
#######################################################################
#
#                 Cambridge Crystallographic Data Centre
#                                CCDC 
#
#######################################################################
#
# If this CIF has been generated from an entry in the Cambridge 
# Structural Database, then it will include bibliographic, chemical, 
# crystal, experimental, refinement or atomic coordinate data resulting 
# from the CCDC's data processing and validation procedures.
#
#######################################################################

data_UGIXOZ
_symmetry_cell_setting           monoclinic
_symmetry_space_group_name_H-M   'P 21/c'
_symmetry_Int_Tables_number      14
_space_group_name_Hall           '-P 2ybc'
loop_
_symmetry_equiv_pos_site_id
_symmetry_equiv_pos_as_xyz
1 x,y,z
2 -x,1/2+y,1/2-z
3 -x,-y,-z
4 x,1/2-y,1/2+z
_cell_length_a                   8.4299(5)
_cell_length_b                   14.6789(8)
_cell_length_c                   8.8096(5)
_cell_angle_alpha                90
_cell_angle_beta                 103.318(3)
_cell_angle_gamma                90
_cell_volume                     1060.8
loop_
_atom_site_label
_atom_site_type_symbol
_atom_site_fract_x
_atom_site_fract_y
_atom_site_fract_z
C1 C 0.91794(19) 0.17630(11) 0.3525(2)
C2 C 1.09547(19) 0.16975(12) 0.3538(2)
H1 H 1.1677 0.1528 0.4461
C3 C 1.1551(2) 0.18705(11) 0.22925(19)
H2 H 1.0842 0.2006 0.1344
C4 C 1.33672(18) 0.18480(11) 0.24064(19)
C5 C 0.9759(2) 0.43916(12) 0.3056(2)
C6 C 1.0339(2) 0.50146(12) 0.4385(2)
H3 H 1.1173 0.5426 0.4366
C7 C 0.53342(19) 0.10280(11) -0.12552(19)
C8 C 0.5242(2) 0.04320(11) 0.0094(2)
H4 H 0.5533 0.0672 0.1098
O1 O 0.81442(14) 0.18896(8) 0.22694(15)
O2 O 0.88376(15) 0.16822(9) 0.48504(15)
O3 O 0.68340(16) 0.47790(9) 0.02557(17)
O4 O 1.38637(14) 0.22346(9) 0.13278(15)
O5 O 1.42800(14) 0.14400(8) 0.35629(14)
O6 O 1.05314(17) 0.44700(11) 0.19286(17)
H5 H 1.0152 0.4107 0.1232
O7 O 0.86412(16) 0.38537(9) 0.30246(15)
O8 O 0.59366(15) 0.18252(8) -0.09912(15)
O9 O 0.48750(15) 0.07304(9) -0.26313(14)
La1 La 0.631512(10) 0.309568(6) 0.097101(10)
H6 H 0.656(3) 0.4969(19) -0.062(4)
H7 H 0.651(3) 0.513(2) 0.071(4)
C5B C 1.0241(2) 0.56084(12) 0.6944(2)
C6B C 0.9661(2) 0.49854(12) 0.5615(2)
H3B H 0.8827 0.4574 0.5634
O6B O 0.94686(17) 0.55300(11) 0.80714(17)
H5B H 0.9848 0.5893 0.8768
O7B O 1.13588(16) 0.61463(9) 0.69754(15)
C7B C 0.46658(19) -0.10280(11) 0.12552(19)
C8B C 0.4758(2) -0.04320(11) -0.0094(2)
H4B H 0.4467 -0.0672 -0.1098
O8B O 0.40634(15) -0.18252(8) 0.09912(15)
O9B O 0.51250(15) -0.07304(9) 0.26313(14)
C1B C 0.08206(19) -0.17630(11) -0.3525(2)
C2B C -0.09547(19) -0.16975(12) -0.3538(2)
H1B H -0.1677 -0.1528 -0.4461
C3B C -0.1551(2) -0.18705(11) -0.22925(19)
H2B H -0.0842 -0.2006 -0.1344
C4B C -0.33672(18) -0.18480(11) -0.24064(19)
O1B O 0.18558(14) -0.18896(8) -0.22694(15)
O2B O 0.11624(15) -0.16822(9) -0.48504(15)
O3B O 0.31660(16) -0.47790(9) -0.02557(17)
O4B O -0.38637(14) -0.22346(9) -0.13278(15)
O5B O -0.42800(14) -0.14400(8) -0.35629(14)
La1B La 0.368488(10) -0.309568(6) -0.097101(10)
H6B H 0.344(3) -0.4969(19) 0.062(4)
H7B H 0.349(3) -0.513(2) -0.071(4)
O2A O 0.11624(15) -0.33178(9) 0.01496(15)
O2C O 0.88376(15) 0.33178(9) -0.01496(15)
O4_2 O 0.38637(14) 0.22346(9) 0.13278(15)
O4B_2 O 0.61363(14) -0.22346(9) -0.13278(15)
O5A O 0.57200(14) -0.35600(8) 0.14371(14)
O5C O 0.42800(14) 0.35600(8) -0.14371(14)
O7B_2 O 0.13588(16) -0.38537(9) -0.30246(15)
O8A O 0.40634(15) -0.31748(8) -0.40088(15)
O8C O 0.59366(15) 0.31748(8) 0.40088(15)
O9A O 0.51250(15) -0.42696(9) -0.23687(14)
O9C O 0.48750(15) 0.42696(9) 0.23687(14)
La1_2 La 1.631512(10) 0.309568(6) 0.097101(10)
La1A La -0.631512(10) -0.190432(6) -0.597101(10)
La1A_2 La 0.368488(10) -0.190432(6) -0.597101(10)
La1A_3 La 0.368488(10) -0.190432(6) 0.402899(10)
La1B_2 La -0.631512(10) -0.309568(6) -0.097101(10)
La1B_3 La 1.368488(10) 0.690432(6) 0.902899(10)
La1C La 0.631512(10) 0.190432(6) -0.402899(10)
La1C_2 La 0.631512(10) 0.190432(6) 0.597101(10)
La1C_3 La 1.631512(10) 0.190432(6) 0.597101(10)
loop_
_geom_bond_atom_site_label_1
_geom_bond_atom_site_label_2
_geom_bond_site_symmetry_1
_geom_bond_site_symmetry_2
C1 C2 1_555 1_555
C2 H1 1_555 1_555
C3 C2 1_555 1_555
H2 C3 1_555 1_555
C4 C3 1_555 1_555
C5 C6 1_555 1_555
C6 H3 1_555 1_555
C7 C8 1_555 1_555
C8 H4 1_555 1_555
O1 C1 1_555 1_555
O2 C1 1_555 1_555
O3 La1 1_555 1_555
O4 C4 1_555 1_555
O5 C4 1_555 1_555
O6 C5 1_555 1_555
H5 O6 1_555 1_555
O7 C5 1_555 1_555
O8 C7 1_555 1_555
O9 C7 1_555 1_555
La1 O1 1_555 1_555
H6 O3 1_555 1_555
H7 O3 1_555 1_555
C5B C6B 1_555 1_555
C6B C6 1_555 1_555
H3B C6B 1_555 1_555
O6B C5B 1_555 1_555
H5B O6B 1_555 1_555
O7B C5B 1_555 1_555
C7B C8B 1_555 1_555
C8B C8 1_555 1_555
H4B C8B 1_555 1_555
O8B C7B 1_555 1_555
O9B C7B 1_555 1_555
C1B C2B 1_555 1_555
C2B H1B 1_555 1_555
C3B C2B 1_555 1_555
H2B C3B 1_555 1_555
C4B C3B 1_555 1_555
O1B C1B 1_555 1_555
O2B C1B 1_555 1_555
O3B La1B 1_555 1_555
O4B C4B 1_555 1_555
O5B C4B 1_555 1_555
La1B O8B 1_555 1_555
H6B O3B 1_555 1_555
H7B O3B 1_555 1_555
O2A La1B 1_555 1_555
O2C La1 1_555 1_555
O4_2 La1 1_555 1_555
O4B_2 La1B 1_555 1_555
O5A La1B 1_555 1_555
O5C La1 1_555 1_555
O7B_2 La1B 1_555 1_555
O8A La1B 1_555 1_555
O8C La1 1_555 1_555
O9A La1B 1_555 1_555
O9C La1 1_555 1_555
La1_2 O4 1_555 1_555
La1A O5B 1_555 1_555
La1A_2 O2B 1_555 1_555
La1A_3 O8B 1_555 1_555
La1B_2 O4B 1_555 1_555
La1B_3 O7B 1_555 1_555
La1C O8 1_555 1_555
La1C_2 O2 1_555 1_555
La1C_3 O5 1_555 1_555
O7 La1 1_555 1_555
O8 La1 1_555 1_555
O9 La1C 1_555 1_555
O9B La1A_3 1_555 1_555
O1B La1B 1_555 1_555
O8A La1A_2 1_555 1_555
O8C La1C_2 1_555 1_555

#END
