
#######################################################################
#
#                 Cambridge Crystallographic Data Centre
#                                CCDC 
#
#######################################################################
#
# If this CIF has been generated from an entry in the Cambridge 
# Structural Database, then it will include bibliographic, chemical, 
# crystal, experimental, refinement or atomic coordinate data resulting 
# from the CCDC's data processing and validation procedures.
#
#######################################################################

data_UGOBIB01
_symmetry_cell_setting           monoclinic
_symmetry_space_group_name_H-M   'P 21/n'
_symmetry_Int_Tables_number      14
_space_group_name_Hall           '-P 2yn'
loop_
_symmetry_equiv_pos_site_id
_symmetry_equiv_pos_as_xyz
1 x,y,z
2 1/2-x,1/2+y,1/2-z
3 -x,-y,-z
4 1/2+x,1/2-y,1/2+z
_cell_length_a                   11.698(1)
_cell_length_b                   11.351(1)
_cell_length_c                   11.923(1)
_cell_angle_alpha                90
_cell_angle_beta                 96.21(1)
_cell_angle_gamma                90
_cell_volume                     1573.89
loop_
_atom_site_label
_atom_site_type_symbol
_atom_site_fract_x
_atom_site_fract_y
_atom_site_fract_z
Zn1 Zn 0.96447(3) 0.08066(4) 1.18788(4)
O1 O 1.0551(2) -0.0642(2) 1.1698(3)
O2 O 1.1837(3) 0.0557(3) 1.2352(3)
O3 O 1.2280(3) -0.1244(3) 1.2137(4)
O4 O 0.8138(3) 0.0236(4) 1.0999(4)
O5 O 0.6908(3) -0.1094(4) 1.1200(4)
O6 O 0.8113(4) -0.0645(4) 1.2535(4)
N1 N 0.9837(2) 0.2109(3) 1.0762(2)
N2 N 0.9769(2) 0.1550(2) 0.3415(2)
N3 N 1.1590(3) -0.0453(3) 1.2076(3)
N4 N 0.7695(3) -0.0531(4) 1.1536(4)
C1 C 1.0842(3) 0.2366(4) 1.0362(3)
C2 C 1.0914(3) 0.3190(4) 0.9524(4)
C3 C 0.9959(4) 0.3781(3) 0.9065(3)
C4 C 0.8944(4) 0.3532(3) 0.9490(3)
C5 C 0.8915(3) 0.2709(4) 1.0325(4)
C6 C 1.0003(4) 0.4637(4) 0.8101(3)
C7 C 0.9683(4) 0.4039(4) 0.6948(4)
C8 C 1.0505(4) 0.3091(4) 0.6715(4)
C9 C 1.0524(3) 0.2432(3) 0.3621(3)
C10 C 1.0759(4) 0.2951(3) 0.4660(4)
C11 C 1.0217(4) 0.2565(3) 0.5550(3)
C12 C 0.9401(4) 0.1672(4) 0.5327(3)
C13 C 0.9215(4) 0.1195(4) 0.4275(4)
H1 H 1.1519 0.1967 1.0666
H2 H 1.1638 0.3349 0.9262
H3 H 0.8260 0.3931 0.9205
H4 H 0.8201 0.2558 1.0608
H5 H 0.9479 0.5261 0.8185
H6 H 1.0761 0.4945 0.8124
H7 H 0.8937 0.3706 0.6939
H8 H 0.9677 0.4619 0.6373
H9 H 1.1258 0.3413 0.6767
H10 H 1.0477 0.2486 0.7262
H11 H 1.0918 0.2711 0.3017
H12 H 1.1298 0.3578 0.4759
H13 H 0.8976 0.1397 0.5910
H14 H 0.8665 0.0581 0.4148
N2_2 N 0.9769(2) 0.1550(2) 1.3415(2)
Zn1_2 Zn 0.96447(3) 0.08066(4) 0.18788(4)
loop_
_geom_bond_atom_site_label_1
_geom_bond_atom_site_label_2
_geom_bond_site_symmetry_1
_geom_bond_site_symmetry_2
Zn1 O1 1_555 1_555
O1 N3 1_555 1_555
O2 N3 1_555 1_555
O3 N3 1_555 1_555
O4 Zn1 1_555 1_555
O5 N4 1_555 1_555
O6 N4 1_555 1_555
N1 Zn1 1_555 1_555
N2 C9 1_555 1_555
N4 O4 1_555 1_555
C1 N1 1_555 1_555
C2 C1 1_555 1_555
C3 C2 1_555 1_555
C4 C3 1_555 1_555
C5 N1 1_555 1_555
C6 C3 1_555 1_555
C7 C6 1_555 1_555
C8 C7 1_555 1_555
C9 C10 1_555 1_555
C10 C11 1_555 1_555
C11 C8 1_555 1_555
C12 C11 1_555 1_555
C13 N2 1_555 1_555
H1 C1 1_555 1_555
H2 C2 1_555 1_555
H3 C4 1_555 1_555
H4 C5 1_555 1_555
H5 C6 1_555 1_555
H6 C6 1_555 1_555
H7 C7 1_555 1_555
H8 C7 1_555 1_555
H9 C8 1_555 1_555
H10 C8 1_555 1_555
H11 C9 1_555 1_555
H12 C10 1_555 1_555
H13 C12 1_555 1_555
H14 C13 1_555 1_555
N2_2 Zn1 1_555 1_555
Zn1_2 N2 1_555 1_555
C4 C5 1_555 1_555
C12 C13 1_555 1_555

#END
