
#######################################################################
#
#                 Cambridge Crystallographic Data Centre
#                                CCDC 
#
#######################################################################
#
# If this CIF has been generated from an entry in the Cambridge 
# Structural Database, then it will include bibliographic, chemical, 
# crystal, experimental, refinement or atomic coordinate data resulting 
# from the CCDC's data processing and validation procedures.
#
#######################################################################

data_UGOFED
_symmetry_cell_setting           monoclinic
_symmetry_space_group_name_H-M   'C 2/c'
_symmetry_Int_Tables_number      15
_space_group_name_Hall           '-C 2yn'
loop_
_symmetry_equiv_pos_site_id
_symmetry_equiv_pos_as_xyz
1 x,y,z
2 1/2+x,1/2+y,z
3 -x,y,1/2-z
4 1/2-x,1/2+y,1/2-z
5 -x,-y,-z
6 1/2-x,1/2-y,-z
7 x,-y,1/2+z
8 1/2+x,1/2-y,1/2+z
_cell_length_a                   7.4416(5)
_cell_length_b                   24.8056(16)
_cell_length_c                   30.314(2)
_cell_angle_alpha                90
_cell_angle_beta                 91.637(6)
_cell_angle_gamma                90
_cell_volume                     5593.48
loop_
_atom_site_label
_atom_site_type_symbol
_atom_site_fract_x
_atom_site_fract_y
_atom_site_fract_z
Cs1 Cs 0.0000 0.24602(3) 0.2500
Fe1 Fe 0.0000 0.33305(4) 0.7500
O1 O 0.2517(5) 0.35729(17) 0.73456(13)
C1 C 0.1948(7) 0.3890(2) 0.70425(17)
O2 O 0.0292(5) 0.39574(19) 0.70023(15)
C2 C 0.3234(7) 0.4138(2) 0.67391(18)
C3 C 0.2626(8) 0.4449(3) 0.6385(2)
C4 C 0.3822(8) 0.4638(3) 0.6077(2)
C5 C 0.5639(8) 0.4516(3) 0.61251(19)
C6 C 0.6244(7) 0.4225(3) 0.6488(2)
C7 C 0.5052(8) 0.4034(3) 0.6790(2)
C8 C 0.6919(8) 0.4682(3) 0.57768(19)
C9 C 1.1794(7) 0.4930(2) 0.41167(17)
N1 N 1.0475(6) 0.4751(2) 0.43882(15)
Fe2 Fe 1.0000 0.5000 0.5000
N2 N 0.7908(7) 0.4505(2) 0.50228(17)
C10 C 0.6818(10) 0.4421(3) 0.5373(2)
C11 C 0.5545(13) 0.4008(4) 0.5269(3)
C12 C 0.5891(14) 0.3827(4) 0.4867(3)
C13 C 0.7345(9) 0.4142(3) 0.4701(2)
C14 C 0.8118(8) 0.4067(3) 0.4296(2)
C15 C 0.9579(8) 0.4360(2) 0.41532(19)
C16 C 1.0346(8) 0.4293(3) 0.3720(2)
C17 C 1.1693(8) 0.4651(3) 0.37042(19)
C18 C 0.7316(9) 0.3655(3) 0.3994(2)
C19 C 0.8243(11) 0.3191(3) 0.3889(3)
C20 C 0.7465(13) 0.2817(3) 0.3595(3)
C21 C 0.5827(11) 0.2905(4) 0.3408(3)
C22 C 0.4886(12) 0.3354(4) 0.3519(3)
C23 C 0.5631(11) 0.3732(4) 0.3801(3)
C24 C 0.4946(16) 0.2534(5) 0.3076(4)
O3 O 0.5931(10) 0.2142(2) 0.29499(19)
O4 O 0.3444(13) 0.2606(5) 0.2930(4)
O5 O 0.8611(7) 0.5644(3) 0.48226(15)
H1 H 0.1398 0.4530 0.6353
H2 H 0.3403 0.4848 0.5843
H3 H 0.7459 0.4151 0.6529
H4 H 0.5465 0.3832 0.7032
H5 H 0.4672 0.3884 0.5454
H6 H 0.5276 0.3558 0.4717
H7 H 0.9964 0.4055 0.3499
H8 H 1.2456 0.4705 0.3468
H9 H 0.9356 0.3124 0.4020
H10 H 0.8102 0.2506 0.3528
H11 H 0.3731 0.3406 0.3403
H12 H 0.4998 0.4044 0.3868
H13 H 0.8235 0.5846 0.5079
H14 H 0.9339 0.5892 0.4654
O1D O 1.7483(5) 0.64271(17) 0.26544(13)
C1D C 1.8052(7) 0.6110(2) 0.29575(17)
O2D O 1.9708(5) 0.60426(19) 0.29977(15)
C2D C 1.6766(7) 0.5862(2) 0.32609(18)
C3D C 1.7374(8) 0.5551(3) 0.3615(2)
C4D C 1.6178(8) 0.5362(3) 0.3923(2)
C5D C 1.4361(8) 0.5484(3) 0.38749(19)
C6D C 1.3756(7) 0.5775(3) 0.3512(2)
C7D C 1.4948(8) 0.5966(3) 0.3210(2)
C8D C 1.3081(8) 0.5318(3) 0.42232(19)
C9D C 0.8206(7) 0.5070(2) 0.58833(17)
N1D N 0.9525(6) 0.5249(2) 0.56118(15)
N2D N 1.2092(7) 0.5495(2) 0.49772(17)
C10D C 1.3182(10) 0.5579(3) 0.4627(2)
C11D C 1.4455(13) 0.5992(4) 0.4731(3)
C12D C 1.4109(14) 0.6173(4) 0.5133(3)
C13D C 1.2655(9) 0.5858(3) 0.5299(2)
C14D C 1.1882(8) 0.5933(3) 0.5704(2)
C15D C 1.0421(8) 0.5640(2) 0.58468(19)
C16D C 0.9654(8) 0.5707(3) 0.6280(2)
C17D C 0.8307(8) 0.5349(3) 0.62958(19)
C18D C 1.2684(9) 0.6345(3) 0.6006(2)
C19D C 1.1757(11) 0.6809(3) 0.6111(3)
C20D C 1.2535(13) 0.7183(3) 0.6405(3)
C21D C 1.4173(11) 0.7095(4) 0.6592(3)
C22D C 1.5114(12) 0.6646(4) 0.6481(3)
C23D C 1.4369(11) 0.6268(4) 0.6199(3)
C24D C 1.5054(16) 0.7466(5) 0.6924(4)
O3D O 1.4069(10) 0.7858(2) 0.70501(19)
O4D O 1.6556(13) 0.7394(5) 0.7070(4)
H1D H 1.8602 0.5470 0.3647
H2D H 1.6597 0.5152 0.4157
H3D H 1.2541 0.5849 0.3471
H4D H 1.4535 0.6168 0.2968
H5D H 1.5328 0.6116 0.4546
H6D H 1.4724 0.6442 0.5283
H7D H 1.0036 0.5945 0.6501
H8D H 0.7544 0.5295 0.6532
H9D H 1.0644 0.6876 0.5980
H10D H 1.1898 0.7494 0.6472
H11D H 1.6269 0.6594 0.6597
H12D H 1.5002 0.5956 0.6132
O5D O 1.1389(7) 0.4356(3) 0.51774(15)
H13D H 1.1765 0.4154 0.4921
H14D H 1.0661 0.4108 0.5346
Cs1_2 Cs 1.0000 0.24602(3) 0.2500
Cs1D Cs 1.0000 0.75398(3) 0.7500
Cs1D_2 Cs 2.0000 0.75398(3) 0.7500
Cs1A Cs 1.5000 0.74602(3) 0.2500
Cs1E Cs 0.5000 0.25398(3) 0.7500
Fe1D Fe 2.0000 0.66695(4) 0.2500
Fe1A Fe 1.5000 0.83305(4) 0.7500
Fe1E Fe 0.5000 0.16695(4) 0.2500
O1E O 0.2483(5) 0.14271(17) 0.26544(13)
O1B O -0.2517(5) 0.35729(17) 0.76544(13)
O1G O -0.2483(5) 0.14271(17) 0.23456(13)
O2B O -0.0292(5) 0.39574(19) 0.79977(15)
O3_2 O -0.4069(10) 0.2142(2) 0.29499(19)
O3E O -0.0931(10) 0.2858(2) 0.70501(19)
O3B O 0.4069(10) 0.2142(2) 0.20501(19)
O3G O 0.0931(10) 0.2858(2) 0.79499(19)
O4B O -0.3444(13) 0.2606(5) 0.2070(4)
N3 N 0.573(3) 0.2023(10) 0.0675(8)
C25 C 0.465(3) 0.1617(10) 0.0919(9)
O6 O 0.801(6) 0.209(3) 0.1222(16)
C26 C 0.491(6) 0.230(2) 0.0278(15)
C27 C 0.756(5) 0.219(3) 0.0847(17)
H15 H 0.3745 0.2100 0.0194
H16 H 0.4699 0.2641 0.0303
H17 H 0.5642 0.2214 0.0016
H18 H 0.3562 0.1541 0.0758
H19 H 0.4403 0.1755 0.1199
H20 H 0.5335 0.1292 0.0947
H21 H 0.8287 0.2394 0.0649
loop_
_geom_bond_atom_site_label_1
_geom_bond_atom_site_label_2
_geom_bond_site_symmetry_1
_geom_bond_site_symmetry_2
Cs1 O4 1_555 1_555
Fe1 O1 1_555 1_555
O1 C1 1_555 1_555
C1 O2 1_555 1_555
O2 Fe1 1_555 1_555
C2 C1 1_555 1_555
C3 C2 1_555 1_555
C4 C3 1_555 1_555
C5 C4 1_555 1_555
C6 C5 1_555 1_555
C7 C2 1_555 1_555
C8 C5 1_555 1_555
C9 N1 1_555 1_555
N1 Fe2 1_555 1_555
Fe2 N2 1_555 1_555
N2 C10 1_555 1_555
C10 C8 1_555 1_555
C11 C10 1_555 1_555
C12 C11 1_555 1_555
C13 N2 1_555 1_555
C14 C13 1_555 1_555
C15 N1 1_555 1_555
C16 C15 1_555 1_555
C17 C9 1_555 1_555
C18 C14 1_555 1_555
C19 C18 1_555 1_555
C20 C19 1_555 1_555
C21 C20 1_555 1_555
C22 C21 1_555 1_555
C23 C18 1_555 1_555
C24 C21 1_555 1_555
O3 C24 1_555 1_555
O4 C24 1_555 1_555
O5 Fe2 1_555 1_555
H1 C3 1_555 1_555
H2 C4 1_555 1_555
H3 C6 1_555 1_555
H4 C7 1_555 1_555
H5 C11 1_555 1_555
H6 C12 1_555 1_555
H7 C16 1_555 1_555
H8 C17 1_555 1_555
H9 C19 1_555 1_555
H10 C20 1_555 1_555
H11 C22 1_555 1_555
H12 C23 1_555 1_555
H13 O5 1_555 1_555
H14 O5 1_555 1_555
N3 C25 1_555 1_555
C25 H18 1_555 1_555
O6 C27 1_555 1_555
C26 N3 1_555 1_555
C27 N3 1_555 1_555
H15 C26 1_555 1_555
H16 C26 1_555 1_555
H17 C26 1_555 1_555
H19 C25 1_555 1_555
H20 C25 1_555 1_555
H21 C27 1_555 1_555
O1D C1D 1_555 1_555
C1D O2D 1_555 1_555
O2D Fe1D 1_555 1_555
C2D C1D 1_555 1_555
C3D C2D 1_555 1_555
C4D C3D 1_555 1_555
C5D C4D 1_555 1_555
C6D C5D 1_555 1_555
C7D C2D 1_555 1_555
C8D C9 1_555 1_555
C9D C8 1_555 1_555
N1D Fe2 1_555 1_555
N2D Fe2 1_555 1_555
C10D C8D 1_555 1_555
C11D C10D 1_555 1_555
C12D C11D 1_555 1_555
C13D N2D 1_555 1_555
C14D C13D 1_555 1_555
C15D N1D 1_555 1_555
C16D C15D 1_555 1_555
C17D C9D 1_555 1_555
C18D C14D 1_555 1_555
C19D C18D 1_555 1_555
C20D C19D 1_555 1_555
C21D C20D 1_555 1_555
C22D C21D 1_555 1_555
C23D C18D 1_555 1_555
C24D C21D 1_555 1_555
O3D C24D 1_555 1_555
O4D C24D 1_555 1_555
H1D C3D 1_555 1_555
H2D C4D 1_555 1_555
H3D C6D 1_555 1_555
H4D C7D 1_555 1_555
H5D C11D 1_555 1_555
H6D C12D 1_555 1_555
H7D C16D 1_555 1_555
H8D C17D 1_555 1_555
H9D C19D 1_555 1_555
H10D C20D 1_555 1_555
H11D C22D 1_555 1_555
H12D C23D 1_555 1_555
O5D Fe2 1_555 1_555
H13D O5D 1_555 1_555
H14D O5D 1_555 1_555
Cs1_2 O3 1_555 1_555
Cs1D O3D 1_555 1_555
Cs1D_2 O4D 1_555 1_555
Cs1A O1D 1_555 1_555
Cs1E O1 1_555 1_555
Fe1D O1D 1_555 1_555
Fe1A O3D 1_555 1_555
Fe1E O3 1_555 1_555
O1E Cs1 1_555 1_555
O1B Fe1 1_555 1_555
O1G Cs1 1_555 1_555
O2B Fe1 1_555 1_555
O3_2 Cs1 1_555 1_555
O3E Fe1 1_555 1_555
O3B Cs1 1_555 1_555
O3G Fe1 1_555 1_555
O4B Cs1 1_555 1_555
C6 C7 1_555 1_555
C12 C13 1_555 1_555
C14 C15 1_555 1_555
C16 C17 1_555 1_555
C22 C23 1_555 1_555
C5D C8D 1_555 1_555
C6D C7D 1_555 1_555
C9D N1D 1_555 1_555
N2D C10D 1_555 1_555
C12D C13D 1_555 1_555
C14D C15D 1_555 1_555
C16D C17D 1_555 1_555
C22D C23D 1_555 1_555
Cs1E O3G 1_555 1_555
Fe1E O1E 1_555 1_555
Fe1E O3B 1_555 1_555

#END
