
#######################################################################
#
#                 Cambridge Crystallographic Data Centre
#                                CCDC 
#
#######################################################################
#
# If this CIF has been generated from an entry in the Cambridge 
# Structural Database, then it will include bibliographic, chemical, 
# crystal, experimental, refinement or atomic coordinate data resulting 
# from the CCDC's data processing and validation procedures.
#
#######################################################################

data_UGOKIK
_symmetry_cell_setting           monoclinic
_symmetry_space_group_name_H-M   'C 2/c'
_symmetry_Int_Tables_number      15
_space_group_name_Hall           '-C 2yn'
loop_
_symmetry_equiv_pos_site_id
_symmetry_equiv_pos_as_xyz
1 x,y,z
2 1/2+x,1/2+y,z
3 -x,y,1/2-z
4 1/2-x,1/2+y,1/2-z
5 -x,-y,-z
6 1/2-x,1/2-y,-z
7 x,-y,1/2+z
8 1/2+x,1/2-y,1/2+z
_cell_length_a                   16.952(2)
_cell_length_b                   11.2850(10)
_cell_length_c                   13.025(2)
_cell_angle_alpha                90
_cell_angle_beta                 126.652(7)
_cell_angle_gamma                90
_cell_volume                     1999.05
loop_
_atom_site_label
_atom_site_type_symbol
_atom_site_fract_x
_atom_site_fract_y
_atom_site_fract_z
Ni1 Ni 0.5000 0.72534(4) 0.7500
N1 N 0.5000 0.5399(3) 0.7500
C1 C 0.4771(2) 0.4780(3) 0.8162(3)
C2 C 0.4774(2) 0.3560(2) 0.8202(3)
C3 C 0.5000 0.2916(3) 0.7500
C4 C 0.5000 0.1599(3) 0.7500
C5 C 0.4650(2) 0.0950(3) 0.8059(3)
C6 C 0.4664(2) -0.0268(2) 0.8038(3)
N2 N 0.5000 -0.0889(3) 0.7500
O1 O 0.57811(16) 0.7286(2) 0.9507(2)
O2 O 0.63145(16) 0.7285(2) 0.7783(3)
H1 H 0.461(2) 0.520(3) 0.857(3)
H2 H 0.468(2) 0.322(3) 0.872(3)
H3 H 0.440(3) 0.127(3) 0.841(3)
H4 H 0.443(2) -0.065(3) 0.838(3)
H5 H 0.605(3) 0.678(4) 0.992(4)
H6 H 0.618(3) 0.779(4) 0.981(4)
H7 H 0.635(3) 0.724(4) 0.734(4)
H8 H 0.672(3) 0.689(3) 0.837(4)
C2B C 0.5226(2) 0.3560(2) 0.6798(3)
C1B C 0.5229(2) 0.4780(3) 0.6838(3)
H1B H 0.539(2) 0.520(3) 0.643(3)
H2B H 0.532(2) 0.322(3) 0.628(3)
C6B C 0.5336(2) -0.0268(2) 0.6962(3)
C5B C 0.5350(2) 0.0950(3) 0.6941(3)
H3B H 0.560(3) 0.127(3) 0.659(3)
H4B H 0.557(2) -0.065(3) 0.662(3)
O1B O 0.42189(16) 0.7286(2) 0.5493(2)
H5B H 0.395(3) 0.678(4) 0.508(4)
H6B H 0.382(3) 0.779(4) 0.519(4)
O2B O 0.36855(16) 0.7285(2) 0.7217(3)
H7B H 0.365(3) 0.724(4) 0.766(4)
H8B H 0.328(3) 0.689(3) 0.663(4)
N2_2 N 0.5000 0.9111(3) 0.7500
Ni1_2 Ni 0.5000 -0.27466(4) 0.7500
O3 O 0.67760(19) 1.29488(18) 1.1181(2)
O4 O 0.69958(18) 1.09931(19) 1.1370(2)
C7 C 0.7056(2) 1.2000(3) 1.1002(3)
C8 C 0.7472(2) 1.2032(3) 1.0266(3)
H9 H 0.772(3) 1.136(4) 1.026(4)
C8E C 0.7528(2) 1.2968(3) 0.9734(3)
C7E C 0.7944(2) 1.3000(3) 0.8998(3)
O3E O 0.82240(19) 1.20512(18) 0.8819(2)
O4E O 0.80042(18) 1.40069(19) 0.8630(2)
H9E H 0.728(3) 1.364(4) 0.974(4)
O5 O 0.7957(2) 0.9600(2) 0.8952(2)
H10 H 0.766(3) 0.941(3) 0.822(4)
H11 H 0.805(3) 1.020(3) 0.895(3)
O6 O 0.71530(18) 0.9033(2) 1.0326(2)
H12 H 0.710(3) 0.969(4) 1.060(3)
H13 H 0.724(2) 0.913(3) 0.990(3)
loop_
_geom_bond_atom_site_label_1
_geom_bond_atom_site_label_2
_geom_bond_site_symmetry_1
_geom_bond_site_symmetry_2
Ni1 N1 1_555 1_555
N1 C1 1_555 1_555
C1 C2 1_555 1_555
C2 C3 1_555 1_555
C3 C4 1_555 1_555
C4 C5 1_555 1_555
C5 C6 1_555 1_555
C6 N2 1_555 1_555
N2 C6B 1_555 1_555
O1 Ni1 1_555 1_555
O2 Ni1 1_555 1_555
H1 C1 1_555 1_555
H2 C2 1_555 1_555
H3 C5 1_555 1_555
H4 C6 1_555 1_555
H5 O1 1_555 1_555
H6 O1 1_555 1_555
H7 O2 1_555 1_555
H8 O2 1_555 1_555
O3 C7 1_555 1_555
O4 C7 1_555 1_555
C7 C8 1_555 1_555
C8 H9 1_555 1_555
O5 H10 1_555 1_555
H11 O5 1_555 1_555
O6 H12 1_555 1_555
H13 O6 1_555 1_555
C2B C3 1_555 1_555
C1B N1 1_555 1_555
H1B C1B 1_555 1_555
H2B C2B 1_555 1_555
C6B C5B 1_555 1_555
C5B C4 1_555 1_555
H3B C5B 1_555 1_555
H4B C6B 1_555 1_555
O1B Ni1 1_555 1_555
H5B O1B 1_555 1_555
H6B O1B 1_555 1_555
O2B Ni1 1_555 1_555
H7B O2B 1_555 1_555
H8B O2B 1_555 1_555
N2_2 Ni1 1_555 1_555
Ni1_2 N2 1_555 1_555
C8E C8 1_555 1_555
C7E C8E 1_555 1_555
O3E C7E 1_555 1_555
O4E C7E 1_555 1_555
H9E C8E 1_555 1_555
C2B C1B 1_555 1_555

#END
