
#######################################################################
#
#                 Cambridge Crystallographic Data Centre
#                                CCDC 
#
#######################################################################
#
# If this CIF has been generated from an entry in the Cambridge 
# Structural Database, then it will include bibliographic, chemical, 
# crystal, experimental, refinement or atomic coordinate data resulting 
# from the CCDC's data processing and validation procedures.
#
#######################################################################

data_UGOPIR
_symmetry_cell_setting           monoclinic
_symmetry_space_group_name_H-M   'P 21/c'
_symmetry_Int_Tables_number      14
_space_group_name_Hall           '-P 2ybc'
loop_
_symmetry_equiv_pos_site_id
_symmetry_equiv_pos_as_xyz
1 x,y,z
2 -x,1/2+y,1/2-z
3 -x,-y,-z
4 x,1/2-y,1/2+z
_cell_length_a                   13.538(2)
_cell_length_b                   37.044(5)
_cell_length_c                   7.6063(13)
_cell_angle_alpha                90
_cell_angle_beta                 102.237(16)
_cell_angle_gamma                90
_cell_volume                     3727.9
loop_
_atom_site_label
_atom_site_type_symbol
_atom_site_fract_x
_atom_site_fract_y
_atom_site_fract_z
Cd1 Cd 0.0000 0.5000 0.0000
S1 S -0.26972(8) 0.51893(3) -0.12715(16)
O1 O -0.2838(3) 0.53385(9) 0.0411(4)
C1 C 0.5835(3) 0.28197(13) 1.3266(6)
N1 N -0.0379(3) 0.48565(8) 0.2810(5)
O2 O -0.3252(3) 0.48585(8) -0.1813(5)
N2 N -0.0177(3) 0.11764(8) 0.5175(5)
N3 N 0.2595(3) 0.24845(9) 0.8994(5)
N4 N -0.0217(2) 0.43892(8) 0.4682(5)
N5 N -0.0360(3) 0.05960(10) 0.4484(5)
C2 C -0.1174(3) 0.11238(12) 0.4327(7)
H1 H -0.1678 0.1298 0.4077
C3 C -0.3765(4) 0.61111(13) -0.3813(7)
H2 H -0.3893 0.6346 -0.3492
C4 C -0.3357(4) 0.54211(13) -0.4730(7)
H3 H -0.3208 0.5188 -0.5051
C5 C 0.0258(3) 0.46272(11) 0.3784(6)
H4 H 0.0951 0.4629 0.3848
N6 N 0.2619(3) 0.31274(9) 0.8827(5)
N7 N 0.1225(3) 0.27969(9) 0.7167(5)
C6 C 0.1646(3) 0.18208(11) 0.7803(6)
H5 H 0.2249 0.1818 0.8658
C7 C -0.0276(3) 0.37489(11) 0.5342(6)
H6 H -0.0944 0.3741 0.4713
C8 C -0.3753(4) 0.56688(16) -0.6074(7)
H7 H -0.3877 0.5600 -0.7277
C9 C 0.0301(3) 0.15061(11) 0.5905(6)
C10 C 0.5354(3) 0.24958(12) 1.2732(6)
H8 H 0.5638 0.2280 1.3222
C11 C -0.1310(3) 0.47614(11) 0.3142(6)
H9 H -0.1914 0.4879 0.2661
C12 C -0.1272(3) 0.07675(11) 0.3930(6)
H10 H -0.1870 0.0655 0.3366
C13 C 0.1192(3) 0.14991(11) 0.7167(6)
H11 H 0.1487 0.1280 0.7587
C14 C -0.0157(3) 0.18296(10) 0.5256(7)
H12 H -0.0757 0.1832 0.4390
C15 C 0.1707(3) 0.24963(11) 0.7845(6)
C16 C 0.4453(3) 0.24917(12) 1.1472(6)
H13 H 0.4140 0.2272 1.1114
C17 C -0.3182(3) 0.55133(11) -0.2945(6)
C18 C 0.0257(3) 0.40739(11) 0.5573(5)
C19 C 0.1204(3) 0.34444(10) 0.7008(6)
C20 C 0.0280(3) 0.08475(11) 0.5232(6)
H14 H 0.0959 0.0806 0.5737
C21 C 0.1699(3) 0.37742(10) 0.7277(6)
H15 H 0.2356 0.3784 0.7957
C22 C 0.3027(3) 0.28072(11) 0.9454(6)
C23 C 0.0213(3) 0.34371(11) 0.6070(6)
H16 H -0.0134 0.3219 0.5924
C24 C 0.1231(3) 0.40887(11) 0.6551(6)
H17 H 0.1573 0.4308 0.6724
C25 C 0.8088(4) 0.26763(15) 1.6581(7)
H18 H 0.8624 0.2542 1.7228
C26 C 0.1214(3) 0.21479(10) 0.7185(5)
C27 C -0.3379(3) 0.58618(11) -0.2464(7)
H19 H -0.3257 0.5929 -0.1260
C28 C 0.4511(3) 0.31311(12) 1.1264(6)
H20 H 0.4228 0.3347 1.0767
C29 C 0.4009(3) 0.28105(11) 1.0731(6)
C30 C 0.5407(4) 0.31414(12) 1.2495(6)
H21 H 0.5729 0.3361 1.2818
N8 N 0.7927(3) 0.30393(12) 1.6869(6)
C31 C 0.0309(3) 0.21491(11) 0.5942(6)
H22 H 0.0005 0.2368 0.5555
C32 C 0.7370(4) 0.25457(15) 1.5251(7)
H23 H 0.7313 0.2309 1.4837
C33 C -0.3962(4) 0.60170(15) -0.5613(7)
C34 C -0.4437(4) 0.62935(16) -0.7023(8)
H24 H -0.4520 0.6518 -0.6444
H25 H -0.5085 0.6208 -0.7653
H26 H -0.4006 0.6329 -0.7862
C35 C 0.7112(4) 0.31203(14) 1.5661(7)
H27 H 0.6823 0.3349 1.5527
O3 O -0.1630(2) 0.51566(8) -0.1341(4)
N9 N 0.6731(3) 0.28264(10) 1.4610(5)
C36 C 0.1713(3) 0.31058(11) 0.7718(6)
C37 C -0.1226(3) 0.44753(11) 0.4257(6)
H28 H -0.1747 0.4359 0.4658
S1B S 0.26972(8) 0.48107(3) 0.12715(16)
O1B O 0.2838(3) 0.46615(9) -0.0411(4)
C1B C -0.5835(3) 0.71803(13) -1.3266(6)
N1B N 0.0379(3) 0.51435(8) -0.2810(5)
O2B O 0.3252(3) 0.51415(8) 0.1813(5)
N2B N 0.0177(3) 0.88236(8) -0.5175(5)
N3B N -0.2595(3) 0.75155(9) -0.8994(5)
N4B N 0.0217(2) 0.56108(8) -0.4682(5)
N5B N 0.0360(3) 0.94040(10) -0.4484(5)
C2B C 0.1174(3) 0.88762(12) -0.4327(7)
H1B H 0.1678 0.8702 -0.4077
C3B C 0.3765(4) 0.38889(13) 0.3813(7)
H2B H 0.3893 0.3654 0.3492
C4B C 0.3357(4) 0.45789(13) 0.4730(7)
H3B H 0.3208 0.4812 0.5051
C5B C -0.0258(3) 0.53728(11) -0.3784(6)
H4B H -0.0951 0.5371 -0.3848
N6B N -0.2619(3) 0.68726(9) -0.8827(5)
N7B N -0.1225(3) 0.72031(9) -0.7167(5)
C6B C -0.1646(3) 0.81792(11) -0.7803(6)
H5B H -0.2249 0.8182 -0.8658
C7B C 0.0276(3) 0.62511(11) -0.5342(6)
H6B H 0.0944 0.6259 -0.4713
C8B C 0.3753(4) 0.43312(16) 0.6074(7)
H7B H 0.3877 0.4400 0.7277
C9B C -0.0301(3) 0.84939(11) -0.5905(6)
C10B C -0.5354(3) 0.75042(12) -1.2732(6)
H8B H -0.5638 0.7720 -1.3222
C11B C 0.1310(3) 0.52386(11) -0.3142(6)
H9B H 0.1914 0.5121 -0.2661
C12B C 0.1272(3) 0.92325(11) -0.3930(6)
H10B H 0.1870 0.9345 -0.3366
C13B C -0.1192(3) 0.85009(11) -0.7167(6)
H11B H -0.1487 0.8720 -0.7587
C14B C 0.0157(3) 0.81704(10) -0.5256(7)
H12B H 0.0757 0.8168 -0.4390
C15B C -0.1707(3) 0.75037(11) -0.7845(6)
C16B C -0.4453(3) 0.75083(12) -1.1472(6)
H13B H -0.4140 0.7728 -1.1114
C17B C 0.3182(3) 0.44867(11) 0.2945(6)
C18B C -0.0257(3) 0.59261(11) -0.5573(5)
C19B C -0.1204(3) 0.65556(10) -0.7008(6)
C20B C -0.0280(3) 0.91525(11) -0.5232(6)
H14B H -0.0959 0.9194 -0.5737
C21B C -0.1699(3) 0.62258(10) -0.7277(6)
H15B H -0.2356 0.6216 -0.7957
C22B C -0.3027(3) 0.71928(11) -0.9454(6)
C23B C -0.0213(3) 0.65629(11) -0.6070(6)
H16B H 0.0134 0.6781 -0.5924
C24B C -0.1231(3) 0.59113(11) -0.6551(6)
H17B H -0.1573 0.5692 -0.6724
C25B C -0.8088(4) 0.73237(15) -1.6581(7)
H18B H -0.8624 0.7458 -1.7228
C26B C -0.1214(3) 0.78521(10) -0.7185(5)
C27B C 0.3379(3) 0.41382(11) 0.2464(7)
H19B H 0.3257 0.4071 0.1260
C28B C -0.4511(3) 0.68689(12) -1.1264(6)
H20B H -0.4228 0.6653 -1.0767
C29B C -0.4009(3) 0.71895(11) -1.0731(6)
C30B C -0.5407(4) 0.68586(12) -1.2495(6)
H21B H -0.5729 0.6639 -1.2818
N8B N -0.7927(3) 0.69607(12) -1.6869(6)
C31B C -0.0309(3) 0.78509(11) -0.5942(6)
H22B H -0.0005 0.7632 -0.5555
C32B C -0.7370(4) 0.74543(15) -1.5251(7)
H23B H -0.7313 0.7691 -1.4837
C33B C 0.3962(4) 0.39830(15) 0.5613(7)
C34B C 0.4437(4) 0.37065(16) 0.7023(8)
H24B H 0.4520 0.3482 0.6444
H25B H 0.5085 0.3792 0.7653
H26B H 0.4006 0.3671 0.7862
C35B C -0.7112(4) 0.68797(14) -1.5661(7)
H27B H -0.6823 0.6651 -1.5527
O3B O 0.1630(2) 0.48434(8) 0.1341(4)
N9B N -0.6731(3) 0.71736(10) -1.4610(5)
C36B C -0.1713(3) 0.68942(11) -0.7718(6)
C37B C 0.1226(3) 0.55247(11) -0.4257(6)
H28B H 0.1747 0.5641 -0.4658
Cd1A Cd 0.0000 0.0000 0.5000
Cd1A_2 Cd 0.0000 1.0000 -0.5000
N5A N 0.0360(3) 0.55960(10) 0.0516(5)
N5C N -0.0360(3) 0.44040(10) -0.0516(5)
C38 C 0.6182(4) 0.42392(16) 0.4263(9)
H29 H 0.5925 0.4381 0.5072
O4 O 0.6594(3) 0.39479(11) 0.4810(7)
C39 C 0.5542(4) 0.46941(14) 0.2000(9)
H30 H 0.5345 0.4808 0.3007
H31 H 0.4950 0.4640 0.1096
H32 H 0.5971 0.4854 0.1509
N10 N 0.6090(3) 0.43597(12) 0.2591(7)
C40 C 0.6455(5) 0.41492(16) 0.1236(8)
H33 H 0.6803 0.3939 0.1788
H34 H 0.6910 0.4294 0.0721
H35 H 0.5893 0.4077 0.0309
loop_
_geom_bond_atom_site_label_1
_geom_bond_atom_site_label_2
_geom_bond_site_symmetry_1
_geom_bond_site_symmetry_2
Cd1 N1 1_555 1_555
S1 O1 1_555 1_555
C1 C10 1_555 1_555
N1 C5 1_555 1_555
O2 S1 1_555 1_555
N2 C2 1_555 1_555
N3 C15 1_555 1_555
N4 C5 1_555 1_555
N5 C12 1_555 1_555
C2 H1 1_555 1_555
C3 H2 1_555 1_555
C4 H3 1_555 1_555
C5 H4 1_555 1_555
N6 C22 1_555 1_555
N7 C15 1_555 1_555
C6 H5 1_555 1_555
C7 H6 1_555 1_555
C8 C4 1_555 1_555
H7 C8 1_555 1_555
C9 N2 1_555 1_555
C10 H8 1_555 1_555
C11 N1 1_555 1_555
H9 C11 1_555 1_555
C12 C2 1_555 1_555
H10 C12 1_555 1_555
C13 C6 1_555 1_555
H11 C13 1_555 1_555
C14 C9 1_555 1_555
H12 C14 1_555 1_555
C15 C26 1_555 1_555
C16 C10 1_555 1_555
H13 C16 1_555 1_555
C17 S1 1_555 1_555
C18 N4 1_555 1_555
C19 C21 1_555 1_555
C20 N2 1_555 1_555
H14 C20 1_555 1_555
C21 H15 1_555 1_555
C22 N3 1_555 1_555
C23 C7 1_555 1_555
H16 C23 1_555 1_555
C24 C18 1_555 1_555
H17 C24 1_555 1_555
C25 H18 1_555 1_555
C26 C6 1_555 1_555
C27 C3 1_555 1_555
H19 C27 1_555 1_555
C28 H20 1_555 1_555
C29 C16 1_555 1_555
C30 C1 1_555 1_555
H21 C30 1_555 1_555
N8 C25 1_555 1_555
C31 C14 1_555 1_555
H22 C31 1_555 1_555
C32 C25 1_555 1_555
H23 C32 1_555 1_555
C33 C3 1_555 1_555
C34 C33 1_555 1_555
H24 C34 1_555 1_555
H25 C34 1_555 1_555
H26 C34 1_555 1_555
C35 N8 1_555 1_555
H27 C35 1_555 1_555
O3 Cd1 1_555 1_555
N9 C1 1_555 1_555
C36 N6 1_555 1_555
C37 N4 1_555 1_555
H28 C37 1_555 1_555
C38 H29 1_555 1_555
O4 C38 1_555 1_555
C39 H30 1_555 1_555
H31 C39 1_555 1_555
H32 C39 1_555 1_555
N10 C38 1_555 1_555
C40 N10 1_555 1_555
H33 C40 1_555 1_555
H34 C40 1_555 1_555
H35 C40 1_555 1_555
S1B O1B 1_555 1_555
C1B C10B 1_555 1_555
N1B Cd1 1_555 1_555
O2B S1B 1_555 1_555
N2B C2B 1_555 1_555
N3B C15B 1_555 1_555
N4B C5B 1_555 1_555
N5B C12B 1_555 1_555
C2B H1B 1_555 1_555
C3B H2B 1_555 1_555
C4B H3B 1_555 1_555
C5B N1B 1_555 1_555
H4B C5B 1_555 1_555
N6B C22B 1_555 1_555
N7B C15B 1_555 1_555
C6B H5B 1_555 1_555
C7B H6B 1_555 1_555
C8B C4B 1_555 1_555
H7B C8B 1_555 1_555
C9B N2B 1_555 1_555
C10B H8B 1_555 1_555
C11B N1B 1_555 1_555
H9B C11B 1_555 1_555
C12B C2B 1_555 1_555
H10B C12B 1_555 1_555
C13B C6B 1_555 1_555
H11B C13B 1_555 1_555
C14B C9B 1_555 1_555
H12B C14B 1_555 1_555
C15B C26B 1_555 1_555
C16B C10B 1_555 1_555
H13B C16B 1_555 1_555
C17B S1B 1_555 1_555
C18B N4B 1_555 1_555
C19B C21B 1_555 1_555
C20B N2B 1_555 1_555
H14B C20B 1_555 1_555
C21B H15B 1_555 1_555
C22B N3B 1_555 1_555
C23B C7B 1_555 1_555
H16B C23B 1_555 1_555
C24B C18B 1_555 1_555
H17B C24B 1_555 1_555
C25B H18B 1_555 1_555
C26B C6B 1_555 1_555
C27B C3B 1_555 1_555
H19B C27B 1_555 1_555
C28B H20B 1_555 1_555
C29B C16B 1_555 1_555
C30B C1B 1_555 1_555
H21B C30B 1_555 1_555
N8B C25B 1_555 1_555
C31B C14B 1_555 1_555
H22B C31B 1_555 1_555
C32B C25B 1_555 1_555
H23B C32B 1_555 1_555
C33B C3B 1_555 1_555
C34B C33B 1_555 1_555
H24B C34B 1_555 1_555
H25B C34B 1_555 1_555
H26B C34B 1_555 1_555
C35B N8B 1_555 1_555
H27B C35B 1_555 1_555
O3B Cd1 1_555 1_555
N9B C1B 1_555 1_555
C36B N6B 1_555 1_555
C37B N4B 1_555 1_555
H28B C37B 1_555 1_555
Cd1A N5 1_555 1_555
Cd1A_2 N5B 1_555 1_555
N5A Cd1 1_555 1_555
N5C Cd1 1_555 1_555
S1 O3 1_555 1_555
N5 C20 1_555 1_555
C4 C17 1_555 1_555
N7 C36 1_555 1_555
C7 C18 1_555 1_555
C8 C33 1_555 1_555
C9 C13 1_555 1_555
C11 C37 1_555 1_555
C17 C27 1_555 1_555
C19 C23 1_555 1_555
C19 C36 1_555 1_555
C21 C24 1_555 1_555
C22 C29 1_555 1_555
C26 C31 1_555 1_555
C28 C29 1_555 1_555
C28 C30 1_555 1_555
C32 N9 1_555 1_555
C35 N9 1_555 1_555
C39 N10 1_555 1_555
S1B O3B 1_555 1_555
N5B C20B 1_555 1_555
C4B C17B 1_555 1_555
N7B C36B 1_555 1_555
C7B C18B 1_555 1_555
C8B C33B 1_555 1_555
C9B C13B 1_555 1_555
C11B C37B 1_555 1_555
C17B C27B 1_555 1_555
C19B C23B 1_555 1_555
C19B C36B 1_555 1_555
C21B C24B 1_555 1_555
C22B C29B 1_555 1_555
C26B C31B 1_555 1_555
C28B C29B 1_555 1_555
C28B C30B 1_555 1_555
C32B N9B 1_555 1_555
C35B N9B 1_555 1_555

#END
