
#######################################################################
#
#                 Cambridge Crystallographic Data Centre
#                                CCDC 
#
#######################################################################
#
# If this CIF has been generated from an entry in the Cambridge 
# Structural Database, then it will include bibliographic, chemical, 
# crystal, experimental, refinement or atomic coordinate data resulting 
# from the CCDC's data processing and validation procedures.
#
#######################################################################

data_UGOQIQ
_symmetry_cell_setting           triclinic
_symmetry_space_group_name_H-M   'P -1'
_symmetry_Int_Tables_number      2
_space_group_name_Hall           '-P 1'
loop_
_symmetry_equiv_pos_site_id
_symmetry_equiv_pos_as_xyz
1 x,y,z
2 -x,-y,-z
_cell_length_a                   7.1654(5)
_cell_length_b                   15.7277(11)
_cell_length_c                   18.8157(13)
_cell_angle_alpha                73.5150(10)
_cell_angle_beta                 89.0410(10)
_cell_angle_gamma                89.0970(10)
_cell_volume                     2032.86
loop_
_atom_site_label
_atom_site_type_symbol
_atom_site_fract_x
_atom_site_fract_y
_atom_site_fract_z
Ag1 Ag 0.14355(7) -0.40309(2) 0.515968(18)
Ag2 Ag 0.62787(5) 0.30290(2) 0.32161(2)
C1 C 0.3431(4) 0.0582(2) 0.05021(17)
C2 C 0.4538(5) 0.0850(2) 0.10064(17)
H1 H 0.4758 0.0511 0.1491
C3 C 0.5264(4) 0.1691(2) 0.06843(17)
C4 C 0.4571(4) 0.1978(2) -0.00340(17)
H2 H 0.4802 0.2530 -0.0367
C5 C 0.3468(4) 0.1314(2) -0.01854(16)
C6 C 0.2496(4) -0.0234(2) 0.06461(17)
C7 C 0.2227(4) -0.0823(2) 0.14207(17)
C8 C 0.1797(5) -0.0486(2) 0.20112(18)
H3 H 0.1734 0.0124 0.1936
C9 C 0.1464(5) -0.1046(2) 0.27048(19)
H4 H 0.1163 -0.0817 0.3097
C10 C 0.1579(5) -0.1960(2) 0.28186(19)
C11 C 0.1985(5) -0.2307(2) 0.2235(2)
H5 H 0.2052 -0.2917 0.2312
C12 C 0.2290(5) -0.1737(2) 0.15374(19)
H6 H 0.2540 -0.1966 0.1141
C13 C 0.1291(5) -0.2546(3) 0.3550(2)
C14 C 0.2726(4) 0.1339(2) -0.08755(17)
C15 C 0.2691(4) 0.2167(2) -0.15042(17)
C16 C 0.2101(5) 0.2970(2) -0.14035(19)
H7 H 0.1751 0.2996 -0.0932
C17 C 0.2024(6) 0.3735(3) -0.1997(2)
H8 H 0.1632 0.4273 -0.1928
C18 C 0.2547(6) 0.3674(3) -0.2694(2)
C19 C 0.3113(5) 0.2874(3) -0.28068(19)
H9 H 0.3452 0.2844 -0.3278
C20 C 0.3167(5) 0.2129(3) -0.22126(18)
H10 H 0.3530 0.1589 -0.2286
C21 C 0.2452(7) 0.4457(3) -0.3313(2)
C22 C 0.6658(5) 0.2158(2) 0.10429(18)
C23 C 0.6255(5) 0.1853(2) 0.18798(18)
C24 C 0.4784(5) 0.2225(3) 0.2185(2)
H11 H 0.4113 0.2696 0.1881
C25 C 0.4285(7) 0.1915(4) 0.2929(3)
H12 H 0.3303 0.2178 0.3121
C26 C 0.5275(9) 0.1204(4) 0.3384(3)
H13 H 0.4954 0.0984 0.3883
C27 C 0.6716(8) 0.0834(3) 0.3093(3)
H14 H 0.7388 0.0365 0.3398
C28 C 0.7195(6) 0.1143(3) 0.2356(2)
H15 H 0.8173 0.0870 0.2171
C29 C 0.6481(6) 0.3172(2) 0.0732(2)
H16 H 0.6556 0.3330 0.0195
H17 H 0.5264 0.3360 0.0868
C30 C 0.7988(7) 0.3671(3) 0.1013(3)
H18 H 0.7833 0.4303 0.0785
H19 H 0.7848 0.3560 0.1545
C31 C 0.9929(7) 0.3380(4) 0.0833(3)
H20 H 1.0126 0.3562 0.0300
H21 H 1.0855 0.3668 0.1052
C32 C 1.0178(6) 0.2385(3) 0.1123(3)
H22 H 1.0156 0.2212 0.1661
H23 H 1.1383 0.2214 0.0962
C33 C 0.8642(5) 0.1902(3) 0.0849(2)
H24 H 0.8821 0.1269 0.1061
H25 H 0.8760 0.2029 0.0315
N1 N 0.1101(5) -0.3015(2) 0.41284(19)
N2 N 0.2385(8) 0.5060(3) -0.3815(2)
O1 O 0.1814(3) -0.05298(15) 0.01487(12)
O2 O 0.2087(3) 0.06582(17) -0.10345(12)
H26 H 0.209(7) 0.006(4) -0.055(3)
O3 O 0.1833(6) -0.5176(2) 0.44429(19)
H27 H 0.2675(7) -0.5573(3) 0.4707(2)
H28 H 0.1940(6) -0.5023(2) 0.3978(3)
O4 O 0.9409(5) 0.2999(3) 0.3360(2)
H29 H 1.0125(7) 0.3027(3) 0.3725(3)
H30 H 1.008(5) 0.332(4) 0.2990(5)
S1 S 0.40493(18) 0.27154(7) 0.48782(6)
O5 O 0.5860(5) 0.2663(2) 0.45513(18)
O6 O 0.3915(5) 0.3348(2) 0.52944(17)
O7 O 0.2532(5) 0.2718(2) 0.43961(18)
C34 C 0.3889(7) 0.1654(3) 0.5584(2)
F1 F 0.2269(4) 0.15654(19) 0.59410(16)
F2 F 0.4083(4) 0.09851(17) 0.52967(15)
F3 F 0.5200(4) 0.15693(18) 0.60862(14)
S2 S 0.31026(16) 0.47022(7) 0.24046(6)
O8 O 0.5012(5) 0.4431(2) 0.25306(19)
O9 O 0.2444(7) 0.5284(3) 0.28060(19)
O10 O 0.1909(5) 0.3996(3) 0.2380(2)
C35 C 0.3141(7) 0.5377(3) 0.1449(3)
F4 F 0.1464(5) 0.5601(3) 0.11979(18)
F5 F 0.3843(6) 0.4968(2) 0.10035(17)
F6 F 0.3990(6) 0.6111(2) 0.13717(19)
N2_2 N 0.2385(8) -0.4940(3) 0.6185(2)
O3A O -0.1833(6) -0.4824(2) 0.55571(19)
H27A H -0.2675(7) -0.4427(3) 0.5293(2)
H28A H -0.1940(6) -0.4977(2) 0.6022(3)
Ag1_2 Ag 0.14355(7) 0.59691(2) -0.484032(18)
Ag1A Ag -0.14355(7) -0.59691(2) 0.484032(18)
C36 C 0.1278(7) -0.0127(5) 0.4500(4)
H31 H 0.2163 -0.0209 0.4157
C37 C 0.0344(9) 0.0653(4) 0.4376(4)
H32 H 0.0575 0.1102 0.3942
C38 C 0.0918(8) -0.0791(4) 0.5127(4)
H33 H 0.1536 -0.1335 0.5213
C38A C -0.0918(8) 0.0791(4) 0.4873(4)
C36A C -0.1278(7) 0.0127(5) 0.5500(4)
H31A H -0.2163 0.0209 0.5843
C37A C -0.0344(9) -0.0653(4) 0.5624(4)
H32A H -0.0575 -0.1102 0.6058
H33A H -0.1536 0.1335 0.4787
loop_
_geom_bond_atom_site_label_1
_geom_bond_atom_site_label_2
_geom_bond_site_symmetry_1
_geom_bond_site_symmetry_2
Ag1 N1 1_555 1_555
Ag2 C25 1_555 1_555
C1 C2 1_555 1_555
C2 H1 1_555 1_555
C3 C2 1_555 1_555
C4 C3 1_555 1_555
H2 C4 1_555 1_555
C5 C1 1_555 1_555
C6 C1 1_555 1_555
C7 C6 1_555 1_555
C8 C7 1_555 1_555
H3 C8 1_555 1_555
C9 C8 1_555 1_555
H4 C9 1_555 1_555
C10 C9 1_555 1_555
C11 C10 1_555 1_555
H5 C11 1_555 1_555
C12 C7 1_555 1_555
H6 C12 1_555 1_555
C13 C10 1_555 1_555
C14 C5 1_555 1_555
C15 C14 1_555 1_555
C16 C15 1_555 1_555
H7 C16 1_555 1_555
C17 C16 1_555 1_555
H8 C17 1_555 1_555
C18 C17 1_555 1_555
C19 C18 1_555 1_555
H9 C19 1_555 1_555
C20 C15 1_555 1_555
H10 C20 1_555 1_555
C21 C18 1_555 1_555
C22 C3 1_555 1_555
C23 C22 1_555 1_555
C24 C23 1_555 1_555
H11 C24 1_555 1_555
C25 C24 1_555 1_555
H12 C25 1_555 1_555
C26 C25 1_555 1_555
H13 C26 1_555 1_555
C27 C26 1_555 1_555
H14 C27 1_555 1_555
C28 C23 1_555 1_555
H15 C28 1_555 1_555
C29 C22 1_555 1_555
H16 C29 1_555 1_555
H17 C29 1_555 1_555
C30 C29 1_555 1_555
H18 C30 1_555 1_555
H19 C30 1_555 1_555
C31 C30 1_555 1_555
H20 C31 1_555 1_555
H21 C31 1_555 1_555
C32 C31 1_555 1_555
H22 C32 1_555 1_555
H23 C32 1_555 1_555
C33 C22 1_555 1_555
H24 C33 1_555 1_555
H25 C33 1_555 1_555
N1 C13 1_555 1_555
N2 C21 1_555 1_555
O1 C6 1_555 1_555
O2 C14 1_555 1_555
H26 O2 1_555 1_555
O3 Ag1 1_555 1_555
H27 O3 1_555 1_555
H28 O3 1_555 1_555
O4 Ag2 1_555 1_555
H29 O4 1_555 1_555
H30 O4 1_555 1_555
S1 O5 1_555 1_555
O5 Ag2 1_555 1_555
O6 S1 1_555 1_555
O7 S1 1_555 1_555
C34 S1 1_555 1_555
F1 C34 1_555 1_555
F2 C34 1_555 1_555
F3 C34 1_555 1_555
S2 O8 1_555 1_555
O8 Ag2 1_555 1_555
O9 S2 1_555 1_555
O10 S2 1_555 1_555
C35 S2 1_555 1_555
F4 C35 1_555 1_555
F5 C35 1_555 1_555
F6 C35 1_555 1_555
C36 H31 1_555 1_555
C37 C36 1_555 1_555
H32 C37 1_555 1_555
C38 C36 1_555 1_555
H33 C38 1_555 1_555
C38A C37 1_555 1_555
C36A C38A 1_555 1_555
H31A C36A 1_555 1_555
C37A C38 1_555 1_555
H32A C37A 1_555 1_555
H33A C38A 1_555 1_555
N2_2 Ag1 1_555 1_555
O3A Ag1 1_555 1_555
H27A O3A 1_555 1_555
H28A O3A 1_555 1_555
Ag1_2 N2 1_555 1_555
Ag1A O3 1_555 1_555
C4 C5 1_555 1_555
C11 C12 1_555 1_555
C19 C20 1_555 1_555
C27 C28 1_555 1_555
C32 C33 1_555 1_555
C36A C37A 1_555 1_555
O3A Ag1A 1_555 1_555

#END
