
#######################################################################
#
#                 Cambridge Crystallographic Data Centre
#                                CCDC 
#
#######################################################################
#
# If this CIF has been generated from an entry in the Cambridge 
# Structural Database, then it will include bibliographic, chemical, 
# crystal, experimental, refinement or atomic coordinate data resulting 
# from the CCDC's data processing and validation procedures.
#
#######################################################################

data_UGOQIS
_symmetry_cell_setting           triclinic
_symmetry_space_group_name_H-M   'P -1'
_symmetry_Int_Tables_number      2
_space_group_name_Hall           '-P 1'
loop_
_symmetry_equiv_pos_site_id
_symmetry_equiv_pos_as_xyz
1 x,y,z
2 -x,-y,-z
_cell_length_a                   10.134(5)
_cell_length_b                   11.529(5)
_cell_length_c                   11.698(5)
_cell_angle_alpha                107.863(5)
_cell_angle_beta                 95.831(5)
_cell_angle_gamma                92.552(5)
_cell_volume                     1289.98
loop_
_atom_site_label
_atom_site_type_symbol
_atom_site_fract_x
_atom_site_fract_y
_atom_site_fract_z
C1 C 0.5260(4) 0.2717(3) 0.3549(3)
C2 C 0.5386(3) 0.1727(3) 0.4136(3)
C3 C 0.6645(4) 0.1502(3) 0.4626(3)
H1 H 0.7401 0.1958 0.4567
C4 C 0.6766(4) 0.0631(3) 0.5180(4)
H2 H 0.7600 0.0512 0.5518
C5 C 0.5629(3) -0.0102(3) 0.5249(3)
C6 C 0.4275(4) 0.1044(3) 0.4202(3)
H3 H 0.3446 0.1197 0.3884
C7 C 0.7574(5) 0.2697(4) 0.1056(4)
C8 C 0.8346(4) 0.1623(3) 0.0472(4)
C9 C 0.9593(4) 0.1509(3) 0.0998(4)
H4 H 0.9980 0.2129 0.1683
C10 C 1.0302(4) 0.0467(3) 0.0518(3)
C11 C 0.8428(4) -0.0321(4) -0.1055(4)
H5 H 0.8030 -0.0928 -0.1744
C12 C 0.7778(4) 0.0694(4) -0.0579(4)
H6 H 0.6948 0.0774 -0.0954
C13 C 0.8182(3) 0.6626(3) 0.3724(3)
C14 C 0.8929(3) 0.7852(3) 0.4387(3)
C15 C 0.9402(4) 0.8158(3) 0.5628(3)
H7 H 0.9280 0.7595 0.6039
C16 C 1.0040(4) 0.9283(3) 0.6225(3)
H8 H 1.0356 0.9476 0.7041
C17 C 0.9772(3) 0.9843(3) 0.4376(3)
C18 C 0.9113(4) 0.8663(3) 0.3782(3)
H9 H 0.8802 0.8446 0.2963
C19 C 0.4777(4) 0.6115(4) 0.2045(4)
H10 H 0.4989 0.5961 0.1224
H11 H 0.5347 0.6818 0.2560
C20 C 0.3391(5) 0.6407(4) 0.2087(6)
H12 H 0.3296 0.6922 0.2899
H13 H 0.3186 0.6880 0.1543
C21 C 0.1774(5) 0.3524(5) 0.0039(4)
H14 H 0.0844 0.3346 0.0100
H15 H 0.1908 0.3211 -0.0808
C22 C 0.2086(6) 0.4843(5) 0.0467(5)
H16 H 0.2829 0.5038 0.0078
H17 H 0.1327 0.5231 0.0218
C23 C 0.1344(5) 0.5373(4) 0.3557(4)
H18 H 0.1804 0.6070 0.4187
H19 H 0.0454 0.5252 0.3760
C24 C 0.1261(6) 0.5615(6) 0.2398(5)
H20 H 0.0496 0.5130 0.1878
H21 H 0.1105 0.6469 0.2537
N1 N 0.2420(3) 0.5358(3) 0.1766(3)
O1 O 0.4152(3) 0.2731(2) 0.2965(3)
O2 O 0.6270(3) 0.3433(2) 0.3682(3)
O3 O 0.6388(3) 0.2683(3) 0.0666(3)
O4 O 0.8147(3) 0.3537(2) 0.1906(3)
O5 O 0.7899(3) 0.6324(2) 0.2609(2)
O6 O 0.7848(3) 0.5919(2) 0.4302(2)
O7 O 0.5056(2) 0.5096(2) 0.2418(3)
O8 O 0.2573(3) 0.2919(3) 0.0710(3)
O9 O 0.2034(3) 0.4317(3) 0.3499(2)
Zn1 Zn 0.68104(4) 0.45890(3) 0.27690(4)
Zn2 Zn 0.35004(4) 0.40179(3) 0.23421(4)
H22 H 0.314(3) 0.243(3) 0.029(3)
H23 H 0.201(4) 0.419(3) 0.4209(18)
C1A C 0.4740(4) -0.2717(3) 0.6451(3)
C2A C 0.4614(3) -0.1727(3) 0.5864(3)
C3A C 0.3355(4) -0.1502(3) 0.5374(3)
H1A H 0.2599 -0.1958 0.5433
C4A C 0.3234(4) -0.0631(3) 0.4820(4)
H2A H 0.2400 -0.0512 0.4482
C5A C 0.4371(3) 0.0102(3) 0.4751(3)
C6A C 0.5725(4) -0.1044(3) 0.5798(3)
H3A H 0.6554 -0.1197 0.6116
O1A O 0.5848(3) -0.2731(2) 0.7035(3)
O2A O 0.3730(3) -0.3433(2) 0.6318(3)
C7A C 1.2426(5) -0.2697(4) -0.1056(4)
C8A C 1.1654(4) -0.1623(3) -0.0472(4)
C9A C 1.0407(4) -0.1509(3) -0.0998(4)
H4A H 1.0020 -0.2129 -0.1683
C10A C 0.9698(4) -0.0467(3) -0.0518(3)
C11A C 1.1572(4) 0.0321(4) 0.1055(4)
H5A H 1.1970 0.0928 0.1744
C12A C 1.2222(4) -0.0694(4) 0.0579(4)
H6A H 1.3052 -0.0774 0.0954
O3A O 1.3612(3) -0.2683(3) -0.0666(3)
O4A O 1.1853(3) -0.3537(2) -0.1906(3)
C13A C 1.1818(3) 1.3374(3) 0.6276(3)
C14A C 1.1071(3) 1.2148(3) 0.5613(3)
C15A C 1.0598(4) 1.1842(3) 0.4372(3)
H7A H 1.0720 1.2405 0.3961
C16A C 0.9960(4) 1.0717(3) 0.3775(3)
H8A H 0.9644 1.0524 0.2959
C17A C 1.0228(3) 1.0157(3) 0.5624(3)
C18A C 1.0887(4) 1.1337(3) 0.6218(3)
H9A H 1.1198 1.1554 0.7037
O5A O 1.2101(3) 1.3676(2) 0.7391(2)
O6A O 1.2152(3) 1.4081(2) 0.5698(2)
C19A C 0.5223(4) -0.6115(4) 0.7955(4)
H10A H 0.5011 -0.5961 0.8776
H11A H 0.4653 -0.6818 0.7440
C20A C 0.6609(5) -0.6407(4) 0.7913(6)
H12A H 0.6704 -0.6922 0.7101
H13A H 0.6814 -0.6880 0.8457
C21A C 0.8226(5) -0.3524(5) 0.9961(4)
H14A H 0.9156 -0.3346 0.9900
H15A H 0.8092 -0.3211 1.0808
C22A C 0.7914(6) -0.4843(5) 0.9533(5)
H16A H 0.7171 -0.5038 0.9922
H17A H 0.8673 -0.5231 0.9782
C23A C 0.8656(5) -0.5373(4) 0.6443(4)
H18A H 0.8196 -0.6070 0.5813
H19A H 0.9546 -0.5252 0.6240
C24A C 0.8739(6) -0.5615(6) 0.7602(5)
H20A H 0.9504 -0.5130 0.8122
H21A H 0.8895 -0.6469 0.7463
N1A N 0.7580(3) -0.5358(3) 0.8234(3)
O7A O 0.4944(2) -0.5096(2) 0.7582(3)
O8A O 0.7427(3) -0.2919(3) 0.9290(3)
O9A O 0.7966(3) -0.4317(3) 0.6501(2)
Zn1A Zn 0.31896(4) -0.45890(3) 0.72310(4)
Zn2A Zn 0.64996(4) -0.40179(3) 0.76579(4)
H22A H 0.686(3) -0.243(3) 0.971(3)
H23A H 0.799(4) -0.419(3) 0.5791(18)
O4A_2 O 0.1853(3) -0.3537(2) 0.8094(3)
O5A_2 O 0.2101(3) -0.6324(2) 0.7391(2)
O6A_2 O 0.2152(3) -0.5919(2) 0.5698(2)
Zn1A_2 Zn 1.31896(4) -0.45890(3) -0.27690(4)
Zn1A_3 Zn 1.31896(4) 1.54110(3) 0.72310(4)
C25 C 0.3974(6) 0.0535(5) -0.1521(5)
H24 H 0.3055 0.0391 -0.1859
H25 H 0.4238 -0.0148 -0.1271
H26 H 0.4512 0.0634 -0.2120
O10 O 0.4138(4) 0.1561(4) -0.0554(4)
H27 H 0.4916 0.1840 -0.0435
loop_
_geom_bond_atom_site_label_1
_geom_bond_atom_site_label_2
_geom_bond_site_symmetry_1
_geom_bond_site_symmetry_2
C1 C2 1_555 1_555
C2 C3 1_555 1_555
C3 H1 1_555 1_555
C4 C3 1_555 1_555
H2 C4 1_555 1_555
C5 C4 1_555 1_555
C6 C2 1_555 1_555
H3 C6 1_555 1_555
C7 C8 1_555 1_555
C8 C9 1_555 1_555
C9 H4 1_555 1_555
C10 C9 1_555 1_555
C11 H5 1_555 1_555
C12 C8 1_555 1_555
H6 C12 1_555 1_555
C13 C14 1_555 1_555
C14 C15 1_555 1_555
C15 H7 1_555 1_555
C16 C15 1_555 1_555
H8 C16 1_555 1_555
C17 C18 1_555 1_555
C18 C14 1_555 1_555
H9 C18 1_555 1_555
C19 H10 1_555 1_555
H11 C19 1_555 1_555
C20 C19 1_555 1_555
H12 C20 1_555 1_555
H13 C20 1_555 1_555
C21 H14 1_555 1_555
H15 C21 1_555 1_555
C22 C21 1_555 1_555
H16 C22 1_555 1_555
H17 C22 1_555 1_555
C23 H18 1_555 1_555
H19 C23 1_555 1_555
C24 C23 1_555 1_555
H20 C24 1_555 1_555
H21 C24 1_555 1_555
N1 C20 1_555 1_555
O1 C1 1_555 1_555
O2 C1 1_555 1_555
O3 C7 1_555 1_555
O4 C7 1_555 1_555
O5 C13 1_555 1_555
O6 C13 1_555 1_555
O7 C19 1_555 1_555
O8 C21 1_555 1_555
O9 C23 1_555 1_555
Zn1 O2 1_555 1_555
Zn2 N1 1_555 1_555
H22 O8 1_555 1_555
H23 O9 1_555 1_555
C25 H24 1_555 1_555
H25 C25 1_555 1_555
H26 C25 1_555 1_555
O10 C25 1_555 1_555
H27 O10 1_555 1_555
C1A C2A 1_555 1_555
C2A C3A 1_555 1_555
C3A H1A 1_555 1_555
C4A C3A 1_555 1_555
H2A C4A 1_555 1_555
C5A C5 1_555 1_555
C6A C5 1_555 1_555
H3A C6A 1_555 1_555
O1A C1A 1_555 1_555
O2A C1A 1_555 1_555
C7A C8A 1_555 1_555
C8A C9A 1_555 1_555
C9A H4A 1_555 1_555
C10A C10 1_555 1_555
C11A C10 1_555 1_555
H5A C11A 1_555 1_555
C12A C8A 1_555 1_555
H6A C12A 1_555 1_555
O3A C7A 1_555 1_555
O4A C7A 1_555 1_555
C13A C14A 1_555 1_555
C14A C15A 1_555 1_555
C15A H7A 1_555 1_555
C16A C17 1_555 1_555
H8A C16A 1_555 1_555
C17A C16 1_555 1_555
C18A C14A 1_555 1_555
H9A C18A 1_555 1_555
O5A C13A 1_555 1_555
O6A C13A 1_555 1_555
C19A H10A 1_555 1_555
H11A C19A 1_555 1_555
C20A C19A 1_555 1_555
H12A C20A 1_555 1_555
H13A C20A 1_555 1_555
C21A H14A 1_555 1_555
H15A C21A 1_555 1_555
C22A C21A 1_555 1_555
H16A C22A 1_555 1_555
H17A C22A 1_555 1_555
C23A H18A 1_555 1_555
H19A C23A 1_555 1_555
C24A C23A 1_555 1_555
H20A C24A 1_555 1_555
H21A C24A 1_555 1_555
N1A C20A 1_555 1_555
O7A C19A 1_555 1_555
O8A C21A 1_555 1_555
O9A C23A 1_555 1_555
Zn1A O2A 1_555 1_555
Zn2A O1A 1_555 1_555
H22A O8A 1_555 1_555
H23A O9A 1_555 1_555
O4A_2 Zn1A 1_555 1_555
O5A_2 Zn1A 1_555 1_555
O6A_2 Zn1A 1_555 1_555
Zn1A_2 O4A 1_555 1_555
Zn1A_3 O5A 1_555 1_555
C6 C5A 1_555 1_555
C11 C12 1_555 1_555
C11 C10A 1_555 1_555
C17 C17A 1_555 1_555
C22 N1 1_555 1_555
C24 N1 1_555 1_555
O1 Zn2 1_555 1_555
O4 Zn1 1_555 1_555
O5 Zn1 1_555 1_555
O6 Zn1 1_555 1_555
O7 Zn1 1_555 1_555
O7 Zn2 1_555 1_555
O8 Zn2 1_555 1_555
O9 Zn2 1_555 1_555
C2A C6A 1_555 1_555
C4A C5A 1_555 1_555
C9A C10A 1_555 1_555
C11A C12A 1_555 1_555
C15A C16A 1_555 1_555
C17A C18A 1_555 1_555
O6A Zn1A_3 1_555 1_555
C22A N1A 1_555 1_555
C24A N1A 1_555 1_555
N1A Zn2A 1_555 1_555
O7A Zn1A 1_555 1_555
O7A Zn2A 1_555 1_555
O8A Zn2A 1_555 1_555
O9A Zn2A 1_555 1_555

#END
