
#######################################################################
#
#                 Cambridge Crystallographic Data Centre
#                                CCDC 
#
#######################################################################
#
# If this CIF has been generated from an entry in the Cambridge 
# Structural Database, then it will include bibliographic, chemical, 
# crystal, experimental, refinement or atomic coordinate data resulting 
# from the CCDC's data processing and validation procedures.
#
#######################################################################

data_UGOQOY
_symmetry_cell_setting           triclinic
_symmetry_space_group_name_H-M   'P -1'
_symmetry_Int_Tables_number      2
_space_group_name_Hall           '-P 1'
loop_
_symmetry_equiv_pos_site_id
_symmetry_equiv_pos_as_xyz
1 x,y,z
2 -x,-y,-z
_cell_length_a                   10.1815(11)
_cell_length_b                   11.5501(12)
_cell_length_c                   11.6759(12)
_cell_angle_alpha                108.4540(10)
_cell_angle_beta                 96.560(2)
_cell_angle_gamma                92.829(2)
_cell_volume                     1288.58
loop_
_atom_site_label
_atom_site_type_symbol
_atom_site_fract_x
_atom_site_fract_y
_atom_site_fract_z
C1 C 0.1381(4) 0.5409(4) 0.8603(3)
H1 H 0.1844 0.6116 0.9241
H2 H 0.0500 0.5276 0.8803
C2 C 0.1280(6) 0.5639(6) 0.7428(5)
H3 H 0.0524 0.5130 0.6894
H4 H 0.1110 0.6487 0.7563
C3 C 0.1771(5) 0.3577(4) 0.5042(3)
H5 H 0.0842 0.3413 0.5104
H6 H 0.1889 0.3253 0.4189
C4 C 0.2127(6) 0.4912(5) 0.5489(4)
H7 H 0.2884 0.5096 0.5120
H8 H 0.1390 0.5317 0.5235
C5 C 0.3423(4) 0.6468(4) 0.7186(6)
H9 H 0.3336 0.6964 0.8012
H10 H 0.3216 0.6957 0.6661
C6 C 0.4802(4) 0.6173(3) 0.7138(4)
H11 H 0.5009 0.6046 0.6318
H12 H 0.5383 0.6865 0.7685
C7 C 0.8161(3) 0.6606(3) 0.8703(3)
C8 C 0.8910(3) 0.7840(3) 0.9377(3)
C9 C 0.9122(3) 0.8641(3) 0.8760(3)
H13 H 0.8833 0.8404 0.7927
C10 C 0.9777(3) 0.9833(3) 0.9364(3)
C11 C 0.9374(3) 0.8181(3) 1.0639(3)
H14 H 0.9243 0.7630 1.1056
C12 C 1.0014(3) 0.9316(3) 1.1247(3)
H15 H 1.0314 0.9528 1.2076
C13 C 0.7707(4) 0.2749(3) 0.6172(3)
C14 C 0.8427(3) 0.1658(3) 0.5549(3)
C15 C 0.7777(4) 0.0719(3) 0.4511(3)
H16 H 0.6928 0.0806 0.4178
C16 C 0.9679(4) 0.1532(3) 0.6025(3)
H17 H 1.0111 0.2156 0.6701
C17 C 1.0336(3) 0.0473(3) 0.5514(3)
C18 C 1.1620(4) 0.0314(3) 0.6012(3)
H18 H 1.2059 0.0917 0.6701
C19 C 0.5287(3) 0.2667(3) 0.8508(3)
C20 C 0.5399(3) 0.1680(3) 0.9097(3)
C21 C 0.6659(3) 0.1426(3) 0.9548(3)
H19 H 0.7419 0.1849 0.9456
C22 C 0.4284(3) 0.1035(3) 0.9198(3)
H20 H 0.3456 0.1199 0.8891
C23 C 0.4370(3) 0.0121(3) 0.9765(3)
C24 C 0.3231(3) -0.0565(3) 0.9884(3)
H21 H 0.2396 -0.0426 0.9569
N1 N 0.2453(3) 0.5399(2) 0.6817(2)
O1 O 0.2562(3) 0.2975(2) 0.5720(2)
O2 O 0.2084(3) 0.4359(2) 0.8529(2)
O3 O 0.5055(2) 0.51160(19) 0.7463(2)
O4 O 0.4173(2) 0.2722(2) 0.7958(2)
O5 O 0.6316(2) 0.3356(2) 0.8620(2)
O6 O 0.6515(3) 0.2785(3) 0.5840(3)
O7 O 0.8344(3) 0.3597(2) 0.7042(3)
O8 O 0.7881(2) 0.62664(19) 0.75809(19)
O9 O 0.7816(2) 0.59251(19) 0.93047(19)
Co1 Co 0.68125(4) 0.45546(3) 0.77578(4)
Co2 Co 0.34865(4) 0.40454(3) 0.73821(4)
H22 H 0.323(3) 0.261(3) 0.535(3)
H23 H 0.210(4) 0.423(3) 0.9244(18)
C7A C 1.1839(3) 1.3394(3) 1.1297(3)
C8A C 1.1090(3) 1.2160(3) 1.0623(3)
C9A C 1.0878(3) 1.1359(3) 1.1240(3)
H13A H 1.1167 1.1596 1.2073
C10A C 1.0223(3) 1.0167(3) 1.0636(3)
C11A C 1.0626(3) 1.1819(3) 0.9361(3)
H14A H 1.0757 1.2370 0.8944
C12A C 0.9986(3) 1.0684(3) 0.8753(3)
H15A H 0.9686 1.0472 0.7924
O8A O 1.2119(2) 1.37336(19) 1.24191(19)
O9A O 1.2184(2) 1.40749(19) 1.06953(19)
C13A C 1.2293(4) -0.2749(3) 0.3828(3)
C14A C 1.1573(3) -0.1658(3) 0.4451(3)
C15A C 1.2223(4) -0.0719(3) 0.5489(3)
H16A H 1.3072 -0.0806 0.5822
C16A C 1.0321(4) -0.1532(3) 0.3975(3)
H17A H 0.9889 -0.2156 0.3299
C17A C 0.9664(3) -0.0473(3) 0.4486(3)
C18A C 0.8380(4) -0.0314(3) 0.3988(3)
H18A H 0.7941 -0.0917 0.3299
O6A O 1.3485(3) -0.2785(3) 0.4160(3)
O7A O 1.1656(3) -0.3597(2) 0.2958(3)
C19A C 0.4713(3) -0.2667(3) 1.1492(3)
C20A C 0.4601(3) -0.1680(3) 1.0903(3)
C21A C 0.3341(3) -0.1426(3) 1.0452(3)
H19A H 0.2581 -0.1849 1.0544
C22A C 0.5716(3) -0.1035(3) 1.0802(3)
H20A H 0.6544 -0.1199 1.1109
C23A C 0.5630(3) -0.0121(3) 1.0235(3)
C24A C 0.6769(3) 0.0565(3) 1.0116(3)
H21A H 0.7604 0.0426 1.0431
O4A O 0.5827(2) -0.2722(2) 1.2042(2)
O5A O 0.3684(2) -0.3356(2) 1.1380(2)
C1A C 0.8619(4) -0.5409(4) 1.1397(3)
H1A H 0.8156 -0.6116 1.0759
H2A H 0.9500 -0.5276 1.1197
C2A C 0.8720(6) -0.5639(6) 1.2572(5)
H3A H 0.9476 -0.5130 1.3106
H4A H 0.8890 -0.6487 1.2437
C3A C 0.8229(5) -0.3577(4) 1.4958(3)
H5A H 0.9158 -0.3413 1.4896
H6A H 0.8111 -0.3253 1.5811
C4A C 0.7873(6) -0.4912(5) 1.4511(4)
H7A H 0.7116 -0.5096 1.4880
H8A H 0.8610 -0.5317 1.4765
C5A C 0.6577(4) -0.6468(4) 1.2814(6)
H9A H 0.6664 -0.6964 1.1988
H10A H 0.6784 -0.6957 1.3339
C6A C 0.5198(4) -0.6173(3) 1.2862(4)
H11A H 0.4991 -0.6046 1.3682
H12A H 0.4617 -0.6865 1.2315
N1A N 0.7547(3) -0.5399(2) 1.3183(2)
O1A O 0.7438(3) -0.2975(2) 1.4280(2)
O2A O 0.7916(3) -0.4359(2) 1.1471(2)
O3A O 0.4945(2) -0.51160(19) 1.2537(2)
Co1A Co 0.31875(4) -0.45546(3) 1.22422(4)
Co2A Co 0.65135(4) -0.40454(3) 1.26179(4)
H22A H 0.677(3) -0.261(3) 1.465(3)
H23A H 0.790(4) -0.423(3) 1.0756(18)
O7A_2 O 0.1656(3) -0.3597(2) 1.2958(3)
O8A_2 O 0.2119(2) -0.62664(19) 1.24191(19)
O9A_2 O 0.2184(2) -0.59251(19) 1.06953(19)
Co1A_2 Co 1.31875(4) -0.45546(3) 0.22422(4)
Co1A_3 Co 1.31875(4) 1.54454(3) 1.22422(4)
C25 C 0.4042(6) 0.0643(5) 0.3534(5)
H24 H 0.4801 0.0607 0.3110
H25 H 0.3258 0.0664 0.3003
H26 H 0.3954 -0.0068 0.3788
O10 O 0.4203(4) 0.1667(4) 0.4527(4)
H27 H 0.4985 0.1939 0.4682
loop_
_geom_bond_atom_site_label_1
_geom_bond_atom_site_label_2
_geom_bond_site_symmetry_1
_geom_bond_site_symmetry_2
C1 H1 1_555 1_555
H2 C1 1_555 1_555
C2 C1 1_555 1_555
H3 C2 1_555 1_555
H4 C2 1_555 1_555
C3 H5 1_555 1_555
H6 C3 1_555 1_555
C4 C3 1_555 1_555
H7 C4 1_555 1_555
H8 C4 1_555 1_555
C5 H9 1_555 1_555
H10 C5 1_555 1_555
C6 C5 1_555 1_555
H11 C6 1_555 1_555
H12 C6 1_555 1_555
C7 C8 1_555 1_555
C8 C9 1_555 1_555
C9 H13 1_555 1_555
C10 C9 1_555 1_555
C11 C8 1_555 1_555
H14 C11 1_555 1_555
C12 C11 1_555 1_555
H15 C12 1_555 1_555
C13 C14 1_555 1_555
C14 C15 1_555 1_555
C15 H16 1_555 1_555
C16 C14 1_555 1_555
H17 C16 1_555 1_555
C17 C16 1_555 1_555
C18 C17 1_555 1_555
H18 C18 1_555 1_555
C19 C20 1_555 1_555
C20 C21 1_555 1_555
C21 H19 1_555 1_555
C22 C20 1_555 1_555
H20 C22 1_555 1_555
C23 C22 1_555 1_555
C24 C23 1_555 1_555
H21 C24 1_555 1_555
N1 C2 1_555 1_555
O1 C3 1_555 1_555
O2 C1 1_555 1_555
O3 C6 1_555 1_555
O4 C19 1_555 1_555
O5 C19 1_555 1_555
O6 C13 1_555 1_555
O7 C13 1_555 1_555
O8 C7 1_555 1_555
O9 C7 1_555 1_555
Co1 O3 1_555 1_555
Co2 N1 1_555 1_555
H22 O1 1_555 1_555
H23 O2 1_555 1_555
C25 H24 1_555 1_555
H25 C25 1_555 1_555
H26 C25 1_555 1_555
O10 C25 1_555 1_555
H27 O10 1_555 1_555
C7A C8A 1_555 1_555
C8A C9A 1_555 1_555
C9A H13A 1_555 1_555
C10A C10 1_555 1_555
C11A C8A 1_555 1_555
H14A C11A 1_555 1_555
C12A C10 1_555 1_555
H15A C12A 1_555 1_555
O8A C7A 1_555 1_555
O9A C7A 1_555 1_555
C13A C14A 1_555 1_555
C14A C15A 1_555 1_555
C15A C18 1_555 1_555
H16A C15A 1_555 1_555
C16A C14A 1_555 1_555
H17A C16A 1_555 1_555
C17A C17 1_555 1_555
C18A C15 1_555 1_555
H18A C18A 1_555 1_555
O6A C13A 1_555 1_555
O7A C13A 1_555 1_555
C19A C20A 1_555 1_555
C20A C21A 1_555 1_555
C21A C24 1_555 1_555
H19A C21A 1_555 1_555
C22A C20A 1_555 1_555
H20A C22A 1_555 1_555
C23A C23 1_555 1_555
C24A C21 1_555 1_555
H21A C24A 1_555 1_555
O4A C19A 1_555 1_555
O5A C19A 1_555 1_555
C1A H1A 1_555 1_555
H2A C1A 1_555 1_555
C2A C1A 1_555 1_555
H3A C2A 1_555 1_555
H4A C2A 1_555 1_555
C3A H5A 1_555 1_555
H6A C3A 1_555 1_555
C4A C3A 1_555 1_555
H7A C4A 1_555 1_555
H8A C4A 1_555 1_555
C5A H9A 1_555 1_555
H10A C5A 1_555 1_555
C6A C5A 1_555 1_555
H11A C6A 1_555 1_555
H12A C6A 1_555 1_555
N1A C2A 1_555 1_555
O1A C3A 1_555 1_555
O2A C1A 1_555 1_555
O3A C6A 1_555 1_555
Co1A O5A 1_555 1_555
Co2A O4A 1_555 1_555
H22A O1A 1_555 1_555
H23A O2A 1_555 1_555
O7A_2 Co1A 1_555 1_555
O8A_2 Co1A 1_555 1_555
O9A_2 Co1A 1_555 1_555
Co1A_2 O7A 1_555 1_555
Co1A_3 O8A 1_555 1_555
C4 N1 1_555 1_555
C5 N1 1_555 1_555
C12 C10A 1_555 1_555
O1 Co2 1_555 1_555
O2 Co2 1_555 1_555
O3 Co2 1_555 1_555
O4 Co2 1_555 1_555
O5 Co1 1_555 1_555
O7 Co1 1_555 1_555
O8 Co1 1_555 1_555
O9 Co1 1_555 1_555
C9A C10A 1_555 1_555
C11A C12A 1_555 1_555
O9A Co1A_3 1_555 1_555
C16A C17A 1_555 1_555
C17A C18A 1_555 1_555
C22A C23A 1_555 1_555
C23A C24A 1_555 1_555
C4A N1A 1_555 1_555
C5A N1A 1_555 1_555
N1A Co2A 1_555 1_555
O1A Co2A 1_555 1_555
O2A Co2A 1_555 1_555
O3A Co1A 1_555 1_555
O3A Co2A 1_555 1_555

#END
