
#######################################################################
#
#                 Cambridge Crystallographic Data Centre
#                                CCDC 
#
#######################################################################
#
# If this CIF has been generated from an entry in the Cambridge 
# Structural Database, then it will include bibliographic, chemical, 
# crystal, experimental, refinement or atomic coordinate data resulting 
# from the CCDC's data processing and validation procedures.
#
#######################################################################

data_UGOQUE
_symmetry_cell_setting           triclinic
_symmetry_space_group_name_H-M   'P -1'
_symmetry_Int_Tables_number      2
_space_group_name_Hall           '-P 1'
loop_
_symmetry_equiv_pos_site_id
_symmetry_equiv_pos_as_xyz
1 x,y,z
2 -x,-y,-z
_cell_length_a                   10.7060(5)
_cell_length_b                   11.2340(5)
_cell_length_c                   11.4670(6)
_cell_angle_alpha                93.6080(10)
_cell_angle_beta                 111.5970(10)
_cell_angle_gamma                107.9950(10)
_cell_volume                     1195.02
loop_
_atom_site_label
_atom_site_type_symbol
_atom_site_fract_x
_atom_site_fract_y
_atom_site_fract_z
C1 C 0.2159(3) 0.2886(2) 0.1838(2)
C2 C 0.1466(3) 0.3693(2) -0.0230(2)
H1 H 0.1944 0.3252 -0.0506
C3 C 0.1464(3) 0.3674(2) 0.1006(2)
C4 C 0.0772(3) 0.4331(2) 0.1422(2)
H2 H 0.0809 0.4338 0.2246
C5 C 0.0002(3) 0.4998(2) 0.0619(2)
C6 C -0.0766(3) 0.5643(2) 0.1012(2)
H3 H -0.0794 0.5613 0.1811
C7 C 0.5962(3) 0.2564(2) 0.3792(2)
C8 C 0.7530(3) 0.3312(2) 0.4178(2)
C9 C 0.8385(3) 0.2751(2) 0.3834(2)
H4 H 0.7976 0.1916 0.3373
C10 C 0.9807(3) 0.3423(2) 0.4171(2)
H5 H 1.0371 0.3033 0.3967
C11 C 1.0431(3) 0.4714(2) 0.4832(2)
C12 C 0.8103(3) 0.4546(2) 0.4838(2)
H6 H 0.7530 0.4901 0.5071
C13 C 0.3934(3) 0.2664(3) 0.6740(2)
C14 C 0.4307(3) 0.3368(3) 0.8041(2)
C15 C 0.4410(3) 0.4615(3) 0.8234(2)
H7 H 0.4194 0.5012 0.7536
C16 C 0.4613(3) 0.2760(3) 0.9097(2)
H8 H 0.4530 0.1908 0.8966
C17 C 0.5024(3) 0.3395(3) 1.0299(3)
H9 H 0.5217 0.2974 1.0980
C18 C 0.5164(3) 0.4688(3) 1.0528(2)
C19 C 0.2765(3) -0.0501(3) 0.3920(3)
H10 H 0.2204 -0.0772 0.4417
H11 H 0.3776 -0.0213 0.4492
C20 C 0.2413(3) -0.1605(2) 0.2890(3)
H12 H 0.2726 -0.2262 0.3278
H13 H 0.1381 -0.1970 0.2393
C21 C 0.2412(3) -0.1935(3) 0.0729(3)
H14 H 0.1378 -0.2209 0.0458
H15 H 0.2669 -0.2690 0.0718
C22 C 0.2852(3) -0.1157(3) -0.0186(3)
H16 H 0.3839 -0.1041 -0.0034
H17 H 0.2240 -0.1605 -0.1063
N1 N 0.3146(2) -0.1154(2) 0.2039(2)
H18 H 0.4059 -0.1154 0.2395
O1 O 0.2457(2) 0.20641(18) 0.13130(17)
O2 O 0.2363(2) 0.30933(18) 0.29953(17)
O3 O 0.53488(18) 0.16653(16) 0.28246(17)
O4 O 0.53733(18) 0.28930(18) 0.44537(18)
O5 O 0.3334(2) 0.31284(19) 0.57934(17)
O6 O 0.4213(2) 0.16851(18) 0.66054(18)
O7 O 0.24450(18) 0.05209(16) 0.33406(16)
O8 O 0.2717(2) 0.00580(19) 0.00095(18)
Zn1 Zn 0.33764(3) 0.22705(3) 0.43089(3)
Zn2 Zn 0.32389(3) 0.07234(3) 0.19550(3)
H19 H 0.197(2) 0.010(3) -0.059(2)
C1A C -0.2159(3) 0.7114(2) -0.1838(2)
C2A C -0.1466(3) 0.6307(2) 0.0230(2)
H1A H -0.1944 0.6748 0.0506
C3A C -0.1464(3) 0.6326(2) -0.1006(2)
C4A C -0.0772(3) 0.5669(2) -0.1422(2)
H2A H -0.0809 0.5662 -0.2246
C5A C -0.0002(3) 0.5002(2) -0.0619(2)
C6A C 0.0766(3) 0.4357(2) -0.1012(2)
H3A H 0.0794 0.4387 -0.1811
O1A O -0.2457(2) 0.79359(18) -0.13130(17)
O2A O -0.2363(2) 0.69067(18) -0.29953(17)
C7A C 1.4038(3) 0.7436(2) 0.6208(2)
C8A C 1.2470(3) 0.6688(2) 0.5822(2)
C9A C 1.1615(3) 0.7249(2) 0.6166(2)
H4A H 1.2024 0.8084 0.6627
C10A C 1.0193(3) 0.6577(2) 0.5829(2)
H5A H 0.9629 0.6967 0.6033
C11A C 0.9569(3) 0.5286(2) 0.5168(2)
C12A C 1.1897(3) 0.5454(2) 0.5162(2)
H6A H 1.2470 0.5099 0.4929
O3A O 1.46512(18) 0.83347(16) 0.71754(17)
O4A O 1.46267(18) 0.71070(18) 0.55463(18)
C13A C 0.6066(3) 0.7336(3) 1.3260(2)
C14A C 0.5693(3) 0.6632(3) 1.1959(2)
C15A C 0.5590(3) 0.5385(3) 1.1766(2)
H7A H 0.5806 0.4988 1.2464
C16A C 0.5387(3) 0.7240(3) 1.0903(2)
H8A H 0.5470 0.8092 1.1034
C17A C 0.4976(3) 0.6605(3) 0.9701(3)
H9A H 0.4783 0.7026 0.9020
C18A C 0.4836(3) 0.5312(3) 0.9472(2)
O5A O 0.6666(2) 0.68716(19) 1.42066(17)
O6A O 0.5787(2) 0.83149(18) 1.33946(18)
C19A C -0.2765(3) 1.0501(3) -0.3920(3)
H10A H -0.2204 1.0772 -0.4417
H11A H -0.3776 1.0213 -0.4492
C20A C -0.2413(3) 1.1605(2) -0.2890(3)
H12A H -0.2726 1.2262 -0.3278
H13A H -0.1381 1.1970 -0.2393
C21A C -0.2412(3) 1.1935(3) -0.0729(3)
H14A H -0.1378 1.2209 -0.0458
H15A H -0.2669 1.2690 -0.0718
C22A C -0.2852(3) 1.1157(3) 0.0186(3)
H16A H -0.3839 1.1041 0.0034
H17A H -0.2240 1.1605 0.1063
N1A N -0.3146(2) 1.1154(2) -0.2039(2)
H18A H -0.4059 1.1154 -0.2395
O7A O -0.24450(18) 0.94791(16) -0.33406(16)
O8A O -0.2717(2) 0.99420(19) -0.00095(18)
Zn1A Zn -0.33764(3) 0.77295(3) -0.43089(3)
Zn2A Zn -0.32389(3) 0.92766(3) -0.19550(3)
H19A H -0.197(2) 0.990(3) 0.059(2)
O3A_2 O -0.53488(18) 0.83347(16) -0.28246(17)
O4A_2 O -0.53733(18) 0.71070(18) -0.44537(18)
O5A_2 O -0.3334(2) 0.68716(19) -0.57934(17)
Zn1A_2 Zn 0.66236(3) 0.77295(3) 1.56911(3)
Zn1A_3 Zn 1.66236(3) 0.77295(3) 0.56911(3)
Zn2A_2 Zn 1.67611(3) 0.92766(3) 0.80450(3)
C23 C 0.0900(4) 0.0395(4) -0.3091(4)
H20 H 0.0235 -0.0169 -0.3894
H21 H 0.1849 0.0395 -0.2912
H22 H 0.0896 0.1244 -0.3135
O9 O 0.0491(2) -0.0021(2) -0.2116(2)
H23 H -0.0374 -0.0181 -0.2344
loop_
_geom_bond_atom_site_label_1
_geom_bond_atom_site_label_2
_geom_bond_site_symmetry_1
_geom_bond_site_symmetry_2
C1 C3 1_555 1_555
C2 H1 1_555 1_555
C3 C2 1_555 1_555
C4 C3 1_555 1_555
H2 C4 1_555 1_555
C5 C4 1_555 1_555
C6 C5 1_555 1_555
H3 C6 1_555 1_555
C7 C8 1_555 1_555
C8 C9 1_555 1_555
C9 H4 1_555 1_555
C10 C9 1_555 1_555
H5 C10 1_555 1_555
C11 C10 1_555 1_555
C12 C8 1_555 1_555
H6 C12 1_555 1_555
C13 C14 1_555 1_555
C14 C15 1_555 1_555
C15 H7 1_555 1_555
C16 C14 1_555 1_555
H8 C16 1_555 1_555
C17 C16 1_555 1_555
H9 C17 1_555 1_555
C18 C17 1_555 1_555
C19 H10 1_555 1_555
H11 C19 1_555 1_555
C20 C19 1_555 1_555
H12 C20 1_555 1_555
H13 C20 1_555 1_555
C21 H14 1_555 1_555
H15 C21 1_555 1_555
C22 C21 1_555 1_555
H16 C22 1_555 1_555
H17 C22 1_555 1_555
N1 C20 1_555 1_555
H18 N1 1_555 1_555
O1 C1 1_555 1_555
O2 C1 1_555 1_555
O3 C7 1_555 1_555
O4 C7 1_555 1_555
O5 C13 1_555 1_555
O6 C13 1_555 1_555
O7 C19 1_555 1_555
O8 C22 1_555 1_555
Zn1 O2 1_555 1_555
Zn2 N1 1_555 1_555
H19 O8 1_555 1_555
C23 H20 1_555 1_555
H21 C23 1_555 1_555
H22 C23 1_555 1_555
O9 C23 1_555 1_555
H23 O9 1_555 1_555
C1A C3A 1_555 1_555
C2A C6 1_555 1_555
H1A C2A 1_555 1_555
C3A C2A 1_555 1_555
C4A C3A 1_555 1_555
H2A C4A 1_555 1_555
C5A C5 1_555 1_555
C6A C2 1_555 1_555
H3A C6A 1_555 1_555
O1A C1A 1_555 1_555
O2A C1A 1_555 1_555
C7A C8A 1_555 1_555
C8A C9A 1_555 1_555
C9A H4A 1_555 1_555
C10A C9A 1_555 1_555
H5A C10A 1_555 1_555
C11A C11 1_555 1_555
C12A C11 1_555 1_555
H6A C12A 1_555 1_555
O3A C7A 1_555 1_555
O4A C7A 1_555 1_555
C13A C14A 1_555 1_555
C14A C15A 1_555 1_555
C15A C18 1_555 1_555
H7A C15A 1_555 1_555
C16A C14A 1_555 1_555
H8A C16A 1_555 1_555
C17A C16A 1_555 1_555
H9A C17A 1_555 1_555
C18A C15 1_555 1_555
O5A C13A 1_555 1_555
O6A C13A 1_555 1_555
C19A H10A 1_555 1_555
H11A C19A 1_555 1_555
C20A C19A 1_555 1_555
H12A C20A 1_555 1_555
H13A C20A 1_555 1_555
C21A H14A 1_555 1_555
H15A C21A 1_555 1_555
C22A C21A 1_555 1_555
H16A C22A 1_555 1_555
H17A C22A 1_555 1_555
N1A C20A 1_555 1_555
H18A N1A 1_555 1_555
O7A C19A 1_555 1_555
O8A C22A 1_555 1_555
Zn1A O2A 1_555 1_555
Zn2A O1A 1_555 1_555
H19A O8A 1_555 1_555
O3A_2 Zn2A 1_555 1_555
O4A_2 Zn1A 1_555 1_555
O5A_2 Zn1A 1_555 1_555
Zn1A_2 O5A 1_555 1_555
Zn1A_3 O4A 1_555 1_555
Zn2A_2 O3A 1_555 1_555
C12 C11A 1_555 1_555
C18 C18A 1_555 1_555
C21 N1 1_555 1_555
O1 Zn2 1_555 1_555
O3 Zn2 1_555 1_555
O4 Zn1 1_555 1_555
O5 Zn1 1_555 1_555
O7 Zn1 1_555 1_555
O7 Zn2 1_555 1_555
O8 Zn2 1_555 1_555
C4A C5A 1_555 1_555
C5A C6A 1_555 1_555
C8A C12A 1_555 1_555
C10A C11A 1_555 1_555
C17A C18A 1_555 1_555
C21A N1A 1_555 1_555
N1A Zn2A 1_555 1_555
O7A Zn1A 1_555 1_555
O7A Zn2A 1_555 1_555
O8A Zn2A 1_555 1_555

#END
