
#######################################################################
#
#                 Cambridge Crystallographic Data Centre
#                                CCDC 
#
#######################################################################
#
# If this CIF has been generated from an entry in the Cambridge 
# Structural Database, then it will include bibliographic, chemical, 
# crystal, experimental, refinement or atomic coordinate data resulting 
# from the CCDC's data processing and validation procedures.
#
#######################################################################

data_UGORAL
_symmetry_cell_setting           monoclinic
_symmetry_space_group_name_H-M   'P 21/n'
_symmetry_Int_Tables_number      14
_space_group_name_Hall           '-P 2yn'
loop_
_symmetry_equiv_pos_site_id
_symmetry_equiv_pos_as_xyz
1 x,y,z
2 1/2-x,1/2+y,1/2-z
3 -x,-y,-z
4 1/2+x,1/2-y,1/2+z
_cell_length_a                   16.635(5)
_cell_length_b                   9.405(5)
_cell_length_c                   25.855(5)
_cell_angle_alpha                90
_cell_angle_beta                 96.657(5)
_cell_angle_gamma                90
_cell_volume                     4017.8
loop_
_atom_site_label
_atom_site_type_symbol
_atom_site_fract_x
_atom_site_fract_y
_atom_site_fract_z
C1 C 0.3073(3) -0.0822(4) -0.02274(15)
C2 C 0.2386(3) 0.1087(5) 0.09281(16)
H1 H 0.1928 0.1105 0.1103
C3 C 0.2402(3) 0.0199(4) 0.05079(16)
H2 H 0.1952 -0.0358 0.0400
C4 C 0.3073(2) 0.0119(4) 0.02441(14)
C5 C 0.3730(2) 0.0977(4) 0.04062(15)
H3 H 0.4188 0.0946 0.0231
C6 C 0.3713(2) 0.1874(4) 0.08252(16)
H4 H 0.4162 0.2436 0.0929
C7 C 0.3042(2) 0.1965(4) 0.10979(14)
C8 C -0.0704(2) 0.5626(4) 0.29758(16)
C9 C 0.0864(2) 0.5046(4) 0.20470(15)
H5 H 0.0910 0.5160 0.1694
C10 C 0.0144(2) 0.5383(4) 0.22394(15)
H6 H -0.0288 0.5739 0.2016
C11 C 0.0064(2) 0.5192(4) 0.27618(15)
C12 C 0.0714(2) 0.4667(4) 0.30908(15)
H7 H 0.0664 0.4524 0.3442
C13 C 0.1432(2) 0.4357(4) 0.29001(15)
H8 H 0.1867 0.4018 0.3125
C14 C 0.1514(2) 0.4543(4) 0.23762(14)
C15 C 0.3748(2) 0.3401(4) 0.18267(15)
H9 H 0.4237 0.3128 0.1715
C16 C 0.3030(2) 0.2908(4) 0.15590(14)
C17 C 0.2304(2) 0.3328(4) 0.17349(15)
H10 H 0.1816 0.3039 0.1553
C18 C 0.2295(2) 0.4171(4) 0.21771(15)
C19 C 0.3019(2) 0.4638(4) 0.24343(15)
H11 H 0.3015 0.5194 0.2732
C20 C 0.3757(2) 0.4295(4) 0.22579(14)
C21 C 0.5966(2) 0.4723(4) 0.27626(16)
H12 H 0.6445 0.4210 0.2767
C22 C 0.5254(2) 0.4158(4) 0.25201(16)
H13 H 0.5261 0.3280 0.2356
C23 C 0.4527(2) 0.4887(4) 0.25182(15)
C24 C 0.4545(2) 0.6220(4) 0.27594(16)
H14 H 0.4067 0.6730 0.2762
C25 C 0.5254(2) 0.6782(4) 0.29909(16)
H15 H 0.5251 0.7675 0.3145
C26 C 0.5977(2) 0.6050(4) 0.30006(15)
C27 C 0.6746(2) 0.6692(4) 0.32568(15)
C28 C 0.9179(3) 0.9155(5) 0.40161(19)
H16 H 0.9534 0.9415 0.3759
H17 H 0.9478 0.8542 0.4272
C29 C 0.8912(3) 1.0474(5) 0.4279(2)
H18 H 0.8737 1.0218 0.4612
H19 H 0.9366 1.1121 0.4345
C30 C 0.8555(3) 1.2020(5) 0.3537(2)
H20 H 0.9010 1.1527 0.3416
H21 H 0.8740 1.2945 0.3667
C31 C 0.7896(3) 1.2202(5) 0.3095(2)
H22 H 0.7487 1.2852 0.3193
H23 H 0.8117 1.2589 0.2793
C32 C 0.7748(3) 1.2043(6) 0.4272(2)
H24 H 0.7476 1.2782 0.4056
H25 H 0.8091 1.2500 0.4552
C33 C 0.7128(3) 1.1144(6) 0.4497(2)
H26 H 0.7384 1.0564 0.4779
H27 H 0.6724 1.1741 0.4630
N1 N 0.8248(2) 1.1193(3) 0.39601(14)
O1 O -0.12623(16) 0.6176(3) 0.26831(11)
O2 O -0.07140(16) 0.5457(3) 0.34617(11)
O3 O 0.73138(15) 0.5867(3) 0.34169(10)
O4 O 0.67621(17) 0.8030(3) 0.32881(12)
O5 O 0.35452(17) -0.0442(3) -0.05550(10)
O6 O 0.26258(19) -0.1881(3) -0.02780(12)
O7 O 0.6764(2) 1.0268(4) 0.40866(16)
O8 O 0.84984(15) 0.8421(3) 0.37716(11)
O9 O 0.7547(2) 1.0835(3) 0.29740(13)
Co1 Co 0.83945(3) 0.63772(5) 0.37657(2)
Co2 Co 0.75159(3) 0.95135(6) 0.35940(2)
H28 H 0.6268(12) 0.998(4) 0.4139(17)
H29 H 0.7093(16) 1.084(5) 0.2748(13)
O2_2 O 0.92860(16) 0.5457(3) 0.34617(11)
O5C O 0.85452(17) 0.5442(3) 0.44450(10)
Co1_2 Co -0.16055(3) 0.63772(5) 0.37657(2)
Co1C Co 0.33945(3) -0.13772(5) -0.12343(2)
C34 C 0.4919(6) 0.8244(9) 0.4450(3)
H30 H 0.4741 0.8462 0.4785
H31 H 0.4451 0.7976 0.4211
C35 C 0.5502(5) 0.7108(10) 0.4501(3)
H32 H 0.5262 0.6277 0.4634
H33 H 0.5964 0.7391 0.4736
H34 H 0.5670 0.6899 0.4166
O10 O 0.5318(2) 0.9468(5) 0.42519(19)
H35 H 0.5001 1.0139 0.4219
C36 C 0.4803(4) 0.6746(7) 0.6054(3)
H36 H 0.4725 0.5867 0.6230
H37 H 0.4583 0.6666 0.5695
H38 H 0.4533 0.7499 0.6215
C37 C 0.5680(4) 0.7064(7) 0.6087(3)
H39 H 0.5910 0.7129 0.6449
H40 H 0.5958 0.6313 0.5922
O11 O 0.5778(2) 0.8408(4) 0.58242(15)
H41 H 0.6261 0.8603 0.5840
C38 C 0.7910(3) 0.8354(6) 0.5956(2)
H42 H 0.7924 0.7364 0.6061
H43 H 0.7782 0.8918 0.6250
C39 C 0.8722(4) 0.8770(7) 0.5824(3)
H44 H 0.9116 0.8620 0.6120
H45 H 0.8717 0.9756 0.5728
H46 H 0.8858 0.8202 0.5538
O12 O 0.7286(2) 0.8543(3) 0.55319(13)
H47 H 0.7385 0.8053 0.5285
loop_
_geom_bond_atom_site_label_1
_geom_bond_atom_site_label_2
_geom_bond_site_symmetry_1
_geom_bond_site_symmetry_2
C1 C4 1_555 1_555
C2 H1 1_555 1_555
C3 C2 1_555 1_555
H2 C3 1_555 1_555
C4 C3 1_555 1_555
C5 C4 1_555 1_555
H3 C5 1_555 1_555
C6 C5 1_555 1_555
H4 C6 1_555 1_555
C7 C2 1_555 1_555
C8 C11 1_555 1_555
C9 H5 1_555 1_555
C10 C9 1_555 1_555
H6 C10 1_555 1_555
C11 C10 1_555 1_555
C12 C11 1_555 1_555
H7 C12 1_555 1_555
C13 C12 1_555 1_555
H8 C13 1_555 1_555
C14 C9 1_555 1_555
C15 H9 1_555 1_555
C16 C7 1_555 1_555
C17 C16 1_555 1_555
H10 C17 1_555 1_555
C18 C14 1_555 1_555
C19 C18 1_555 1_555
H11 C19 1_555 1_555
C20 C15 1_555 1_555
C21 H12 1_555 1_555
C22 C21 1_555 1_555
H13 C22 1_555 1_555
C23 C20 1_555 1_555
C24 C23 1_555 1_555
H14 C24 1_555 1_555
C25 C24 1_555 1_555
H15 C25 1_555 1_555
C26 C21 1_555 1_555
C27 C26 1_555 1_555
C28 H16 1_555 1_555
H17 C28 1_555 1_555
C29 C28 1_555 1_555
H18 C29 1_555 1_555
H19 C29 1_555 1_555
C30 H20 1_555 1_555
H21 C30 1_555 1_555
C31 C30 1_555 1_555
H22 C31 1_555 1_555
H23 C31 1_555 1_555
C32 H24 1_555 1_555
H25 C32 1_555 1_555
C33 C32 1_555 1_555
H26 C33 1_555 1_555
H27 C33 1_555 1_555
N1 C29 1_555 1_555
O1 C8 1_555 1_555
O2 C8 1_555 1_555
O3 C27 1_555 1_555
O4 C27 1_555 1_555
O5 C1 1_555 1_555
O6 C1 1_555 1_555
O7 C33 1_555 1_555
O8 C28 1_555 1_555
O9 C31 1_555 1_555
Co1 O3 1_555 1_555
Co2 N1 1_555 1_555
H28 O7 1_555 1_555
H29 O9 1_555 1_555
C34 H30 1_555 1_555
H31 C34 1_555 1_555
C35 C34 1_555 1_555
H32 C35 1_555 1_555
H33 C35 1_555 1_555
H34 C35 1_555 1_555
O10 C34 1_555 1_555
H35 O10 1_555 1_555
C36 H36 1_555 1_555
H37 C36 1_555 1_555
H38 C36 1_555 1_555
C37 C36 1_555 1_555
H39 C37 1_555 1_555
H40 C37 1_555 1_555
O11 C37 1_555 1_555
H41 O11 1_555 1_555
C38 H42 1_555 1_555
H43 C38 1_555 1_555
C39 C38 1_555 1_555
H44 C39 1_555 1_555
H45 C39 1_555 1_555
H46 C39 1_555 1_555
O12 C38 1_555 1_555
H47 O12 1_555 1_555
O2_2 Co1 1_555 1_555
O5C Co1 1_555 1_555
Co1_2 O2 1_555 1_555
Co1C O5 1_555 1_555
C6 C7 1_555 1_555
C13 C14 1_555 1_555
C15 C16 1_555 1_555
C17 C18 1_555 1_555
C19 C20 1_555 1_555
C22 C23 1_555 1_555
C25 C26 1_555 1_555
C30 N1 1_555 1_555
C32 N1 1_555 1_555
O4 Co2 1_555 1_555
O7 Co2 1_555 1_555
O8 Co1 1_555 1_555
O8 Co2 1_555 1_555
O9 Co2 1_555 1_555

#END
