
#######################################################################
#
#                 Cambridge Crystallographic Data Centre
#                                CCDC 
#
#######################################################################
#
# If this CIF has been generated from an entry in the Cambridge 
# Structural Database, then it will include bibliographic, chemical, 
# crystal, experimental, refinement or atomic coordinate data resulting 
# from the CCDC's data processing and validation procedures.
#
#######################################################################

data_UGORUD
_symmetry_cell_setting           monoclinic
_symmetry_space_group_name_H-M   'P 2/n'
_symmetry_Int_Tables_number      13
_space_group_name_Hall           '-P 2yac'
loop_
_symmetry_equiv_pos_site_id
_symmetry_equiv_pos_as_xyz
1 x,y,z
2 1/2+x,-y,1/2+z
3 -x,-y,-z
4 1/2-x,y,1/2-z
_cell_length_a                   12.4621(15)
_cell_length_b                   9.4849(11)
_cell_length_c                   13.2833(16)
_cell_angle_alpha                90
_cell_angle_beta                 96.629(2)
_cell_angle_gamma                90
_cell_volume                     1559.61
loop_
_atom_site_label
_atom_site_type_symbol
_atom_site_fract_x
_atom_site_fract_y
_atom_site_fract_z
Cd1 Cd 0.25234(5) 0.73994(5) 1.00028(4)
C1 C 0.3558(6) 1.0280(8) 1.0794(6)
H1 H 0.3481 0.9870 1.1434
C2 C 0.3875(6) 1.1667(8) 1.0758(6)
H2 H 0.4025 1.2200 1.1363
C3 C 0.3969(6) 1.2268(8) 0.9826(6)
H3 H 0.4162 1.3233 0.9784
C4 C 0.3783(5) 1.1465(7) 0.8954(5)
C5 C 0.3461(6) 1.0073(7) 0.9062(5)
H4 H 0.3310 0.9514 0.8470
C6 C 0.3836(6) 1.2057(8) 0.7975(6)
C7 C 0.3834(6) 1.2562(7) 0.7159(6)
C8 C 0.3402(6) 1.4595(8) 0.6073(5)
H5 H 0.3259 1.5094 0.6663
C9 C 0.3740(5) 1.3218(8) 0.6179(5)
C10 C 0.3946(6) 1.2484(7) 0.5303(6)
H6 H 0.4166 1.1525 0.5341
C11 C 0.3823(6) 1.3185(8) 0.4386(5)
H7 H 0.3979 1.2723 0.3785
C12 C 0.3472(7) 1.4559(9) 0.4354(6)
H8 H 0.3374 1.5026 0.3717
N1 N 0.3355(5) 0.9489(6) 0.9959(4)
N2 N 0.3263(5) 1.5271(6) 0.5182(4)
N3 N 0.0797(5) 0.8694(7) 0.8503(5)
N4 N 0.4085(5) 0.5653(6) 1.1594(4)
O1 O 0.1480(5) 0.7913(6) 0.8148(4)
O2 O 0.0933(5) 0.8906(6) 0.9430(4)
O3 O 0.0042(5) 0.9205(7) 0.7956(5)
O4 O 0.3457(4) 0.6708(6) 1.1615(4)
O5 O 0.4385(5) 0.5333(6) 1.0756(4)
O6 O 0.4403(5) 0.5002(7) 1.2359(4)
O7 O 0.3628(5) 0.6581(6) 0.8774(4)
H9 H 0.415(4) 0.602(6) 0.889(5)
H10 H 0.362(5) 0.691(8) 0.819(3)
O8 O 0.1574(5) 0.8154(7) 1.1442(4)
H11 H 0.133(5) 0.895(3) 1.158(5)
H12 H 0.152(9) 0.760(6) 1.193(4)
N2C N 0.1737(5) 0.5271(6) 0.9818(4)
Cd1C Cd 0.24766(5) 1.73994(5) 0.49972(4)
loop_
_geom_bond_atom_site_label_1
_geom_bond_atom_site_label_2
_geom_bond_site_symmetry_1
_geom_bond_site_symmetry_2
Cd1 N1 1_555 1_555
C1 H1 1_555 1_555
C2 C1 1_555 1_555
H2 C2 1_555 1_555
C3 C2 1_555 1_555
H3 C3 1_555 1_555
C4 C3 1_555 1_555
C5 C4 1_555 1_555
H4 C5 1_555 1_555
C6 C4 1_555 1_555
C7 C6 1_555 1_555
C8 H5 1_555 1_555
C9 C7 1_555 1_555
C10 C9 1_555 1_555
H6 C10 1_555 1_555
C11 C10 1_555 1_555
H7 C11 1_555 1_555
C12 C11 1_555 1_555
H8 C12 1_555 1_555
N1 C1 1_555 1_555
N2 C8 1_555 1_555
N3 O1 1_555 1_555
N4 O4 1_555 1_555
O2 Cd1 1_555 1_555
O3 N3 1_555 1_555
O4 Cd1 1_555 1_555
O5 N4 1_555 1_555
O6 N4 1_555 1_555
O7 Cd1 1_555 1_555
H9 O7 1_555 1_555
H10 O7 1_555 1_555
O8 Cd1 1_555 1_555
H11 O8 1_555 1_555
H12 O8 1_555 1_555
N2C Cd1 1_555 1_555
Cd1C N2 1_555 1_555
C5 N1 1_555 1_555
C8 C9 1_555 1_555
C12 N2 1_555 1_555
N3 O2 1_555 1_555

#END
