
#######################################################################
#
#                 Cambridge Crystallographic Data Centre
#                                CCDC 
#
#######################################################################
#
# If this CIF has been generated from an entry in the Cambridge 
# Structural Database, then it will include bibliographic, chemical, 
# crystal, experimental, refinement or atomic coordinate data resulting 
# from the CCDC's data processing and validation procedures.
#
#######################################################################

data_UGORAJ
_symmetry_cell_setting           monoclinic
_symmetry_space_group_name_H-M   'C 2/c'
_symmetry_Int_Tables_number      15
_space_group_name_Hall           '-C 2yn'
loop_
_symmetry_equiv_pos_site_id
_symmetry_equiv_pos_as_xyz
1 x,y,z
2 1/2+x,1/2+y,z
3 x,-y,1/2+z
4 1/2+x,1/2-y,1/2+z
5 -x,-y,-z
6 1/2-x,1/2-y,-z
7 -x,y,1/2-z
8 1/2-x,1/2+y,1/2-z
_cell_length_a                   7.619(2)
_cell_length_b                   19.781(4)
_cell_length_c                   26.799(5)
_cell_angle_alpha                90
_cell_angle_beta                 94.72(1)
_cell_angle_gamma                90
_cell_volume                     4025.22
loop_
_atom_site_label
_atom_site_type_symbol
_atom_site_fract_x
_atom_site_fract_y
_atom_site_fract_z
Ag1 Ag 0.26099(5) 0.112450(17) 0.442829(11)
O1 O 0.0860(4) 0.21356(15) 0.45919(12)
O2 O 0.0766(4) 0.30745(14) 0.50305(11)
N1 N 0.2491(4) 0.12876(16) 0.36044(11)
N2 N 0.2668(5) -0.03117(17) 0.00041(12)
C1 C 0.2889(5) 0.0797(2) 0.32876(14)
H1 H 0.3186 0.0359 0.3425
C2 C 0.2906(5) 0.08869(19) 0.27773(14)
H2 H 0.3171 0.0512 0.2568
C3 C 0.2523(5) 0.15138(18) 0.25660(13)
C4 C 0.2078(5) 0.2020(2) 0.28918(14)
H3 H 0.1782 0.2463 0.2765
C5 C 0.2081(6) 0.1887(2) 0.33973(15)
H4 H 0.1751 0.2244 0.3614
C6 C 0.2624(5) 0.16546(19) 0.20163(14)
H5 H 0.1734 0.1981 0.1913
H6 H 0.3747 0.1856 0.1973
C7 C 0.2405(5) 0.10457(19) 0.16701(14)
H7 H 0.3278 0.0712 0.1770
H8 H 0.1264 0.0850 0.1698
C8 C 0.2576(6) 0.12458(19) 0.11258(14)
H9 H 0.1631 0.1550 0.1024
H10 H 0.3659 0.1491 0.1114
C9 C 0.2569(5) 0.06821(19) 0.07516(14)
C10 C 0.1908(7) 0.0796(2) 0.02651(16)
H11 H 0.1378 0.1224 0.0175
C11 C 0.1996(7) 0.0298(2) -0.00918(15)
H12 H 0.1546 0.0396 -0.0429
C12 C 0.3238(7) 0.0045(2) 0.08509(16)
H13 H 0.3692 -0.0066 0.1186
C13 C 0.3272(7) -0.0426(2) 0.04763(17)
H14 H 0.3746 -0.0865 0.0559
C21 C 0.1522(4) 0.25626(18) 0.48878(13)
C21E C 0.3478(4) 0.24374(18) 0.51122(13)
O1E O 0.4140(4) 0.28644(15) 0.54081(12)
O2E O 0.4234(4) 0.19255(14) 0.49695(11)
N1B N 0.2491(4) -0.12876(16) 0.86044(11)
N2B N 0.2668(5) 0.03117(17) 0.50041(12)
C1B C 0.2889(5) -0.0797(2) 0.82876(14)
H1B H 0.3186 -0.0359 0.8425
C2B C 0.2906(5) -0.08869(19) 0.77773(14)
H2B H 0.3171 -0.0512 0.7568
C3B C 0.2523(5) -0.15138(18) 0.75660(13)
C4B C 0.2078(5) -0.2020(2) 0.78918(14)
H3B H 0.1782 -0.2463 0.7765
C5B C 0.2081(6) -0.1887(2) 0.83973(15)
H4B H 0.1751 -0.2244 0.8614
C6B C 0.2624(5) -0.16546(19) 0.70163(14)
H5B H 0.1734 -0.1981 0.6913
H6B H 0.3747 -0.1856 0.6973
C7B C 0.2405(5) -0.10457(19) 0.66701(14)
H7B H 0.3278 -0.0712 0.6770
H8B H 0.1264 -0.0850 0.6698
C8B C 0.2576(6) -0.12458(19) 0.61258(14)
H9B H 0.1631 -0.1550 0.6024
H10B H 0.3659 -0.1491 0.6114
C9B C 0.2569(5) -0.06821(19) 0.57516(14)
C10B C 0.1908(7) -0.0796(2) 0.52651(16)
H11B H 0.1378 -0.1224 0.5175
C11B C 0.1996(7) -0.0298(2) 0.49082(15)
H12B H 0.1546 -0.0396 0.4571
C12B C 0.3238(7) -0.0045(2) 0.58509(16)
H13B H 0.3692 0.0066 0.6186
C13B C 0.3272(7) 0.0426(2) 0.54763(17)
H14B H 0.3746 0.0865 0.5559
Ag1E Ag 0.23901(5) 0.387550(17) 0.557171(11)
Ag1B Ag 0.26099(5) -0.112450(17) -0.057171(11)
Ag1B_2 Ag 0.26099(5) -0.112450(17) 0.942829(11)
N1E N 0.2509(4) 0.37124(16) 0.63956(11)
N2G N 0.2332(5) 0.46883(17) 0.49959(12)
Ag2 Ag 0.2500 0.2500 1.0000
N3 N 0.1714(4) 0.19881(17) 0.92800(11)
C14 C 0.2967(5) 0.1761(2) 0.90043(14)
H15 H 0.4167 0.1880 0.9103
C15 C 0.2625(6) 0.1377(2) 0.85811(15)
H16 H 0.3575 0.1220 0.8397
C16 C -0.0360(6) 0.1451(3) 0.86966(16)
H17 H -0.1571 0.1346 0.8600
C17 C 0.0085(6) 0.1841(3) 0.91160(17)
H18 H -0.0851 0.2018 0.9296
C18 C 0.0923(5) 0.12099(18) 0.84220(13)
C19 C 0.0476(6) 0.0795(2) 0.79567(13)
H19 H -0.0505 0.0507 0.8010
H20 H 0.1461 0.0513 0.7895
C20 C 0.0000 0.1232(3) 0.7500
H21 H 0.0983 0.1517 0.7441
C19F C -0.0476(6) 0.0795(2) 0.70433(13)
C18F C -0.0923(5) 0.12099(18) 0.65780(13)
C15F C -0.2625(6) 0.1377(2) 0.64189(15)
C14F C -0.2967(5) 0.1761(2) 0.59957(14)
N3F N -0.1714(4) 0.19881(17) 0.57200(11)
C17F C -0.0085(6) 0.1841(3) 0.58840(17)
C16F C 0.0360(6) 0.1451(3) 0.63034(16)
H17F H 0.1571 0.1346 0.6400
H18F H 0.0851 0.2018 0.5704
H15F H -0.4167 0.1880 0.5897
H16F H -0.3575 0.1220 0.6603
H19F H 0.0505 0.0507 0.6990
H20F H -0.1461 0.0513 0.7105
H21F H -0.0983 0.1517 0.7559
N3E N 0.3286(4) 0.30119(17) 1.07200(11)
Ag2C Ag -0.2500 0.2500 0.5000
N4 N 0.5000 0.0879(3) 0.7500
O3 O 0.5000 0.1496(2) 0.7500
O4 O 0.5594(5) 0.0556(2) 0.78722(14)
O4F O 0.4406(5) 0.0556(2) 0.71278(14)
loop_
_geom_bond_atom_site_label_1
_geom_bond_atom_site_label_2
_geom_bond_site_symmetry_1
_geom_bond_site_symmetry_2
Ag1 O1 1_555 1_555
Ag2 N3 1_555 1_555
O1 C21 1_555 1_555
O2 C21 1_555 1_555
N1 Ag1 1_555 1_555
N2 C11 1_555 1_555
C1 N1 1_555 1_555
H1 C1 1_555 1_555
C2 C1 1_555 1_555
H2 C2 1_555 1_555
C3 C2 1_555 1_555
C4 C3 1_555 1_555
H3 C4 1_555 1_555
C5 N1 1_555 1_555
H4 C5 1_555 1_555
C6 C3 1_555 1_555
H5 C6 1_555 1_555
H6 C6 1_555 1_555
C7 C6 1_555 1_555
H7 C7 1_555 1_555
H8 C7 1_555 1_555
C8 C7 1_555 1_555
H9 C8 1_555 1_555
H10 C8 1_555 1_555
C9 C8 1_555 1_555
C10 C9 1_555 1_555
H11 C10 1_555 1_555
C11 C10 1_555 1_555
H12 C11 1_555 1_555
C12 C9 1_555 1_555
H13 C12 1_555 1_555
C13 N2 1_555 1_555
H14 C13 1_555 1_555
N3 C14 1_555 1_555
C14 H15 1_555 1_555
C15 C14 1_555 1_555
H16 C15 1_555 1_555
C16 H17 1_555 1_555
C17 N3 1_555 1_555
H18 C17 1_555 1_555
C18 C15 1_555 1_555
C19 C18 1_555 1_555
H19 C19 1_555 1_555
H20 C19 1_555 1_555
C20 C19 1_555 1_555
H21 C20 1_555 1_555
C21 C21E 1_555 1_555
N4 O3 1_555 1_555
O4 N4 1_555 1_555
C21E O1E 1_555 1_555
O1E Ag1E 1_555 1_555
O2E Ag1 1_555 1_555
C19F C20 1_555 1_555
C18F C19F 1_555 1_555
C15F C18F 1_555 1_555
C14F C15F 1_555 1_555
N3F C14F 1_555 1_555
C17F N3F 1_555 1_555
C16F C18F 1_555 1_555
H17F C16F 1_555 1_555
H18F C17F 1_555 1_555
H15F C14F 1_555 1_555
H16F C15F 1_555 1_555
H19F C19F 1_555 1_555
H20F C19F 1_555 1_555
H21F C20 1_555 1_555
O4F N4 1_555 1_555
N1B C1B 1_555 1_555
N2B Ag1 1_555 1_555
C1B H1B 1_555 1_555
C2B C1B 1_555 1_555
H2B C2B 1_555 1_555
C3B C2B 1_555 1_555
C4B C3B 1_555 1_555
H3B C4B 1_555 1_555
C5B N1B 1_555 1_555
H4B C5B 1_555 1_555
C6B C3B 1_555 1_555
H5B C6B 1_555 1_555
H6B C6B 1_555 1_555
C7B C6B 1_555 1_555
H7B C7B 1_555 1_555
H8B C7B 1_555 1_555
C8B C7B 1_555 1_555
H9B C8B 1_555 1_555
H10B C8B 1_555 1_555
C9B C8B 1_555 1_555
C10B C9B 1_555 1_555
H11B C10B 1_555 1_555
C11B N2B 1_555 1_555
H12B C11B 1_555 1_555
C12B C9B 1_555 1_555
H13B C12B 1_555 1_555
C13B N2B 1_555 1_555
H14B C13B 1_555 1_555
Ag1E O2 1_555 1_555
N3E Ag2 1_555 1_555
Ag1B N2 1_555 1_555
Ag2C N3F 1_555 1_555
Ag1B_2 N1B 1_555 1_555
N1E Ag1E 1_555 1_555
N2G Ag1E 1_555 1_555
C4 C5 1_555 1_555
C12 C13 1_555 1_555
C16 C18 1_555 1_555
C16 C17 1_555 1_555
C21E O2E 1_555 1_555
C17F C16F 1_555 1_555
C4B C5B 1_555 1_555
C10B C11B 1_555 1_555
C12B C13B 1_555 1_555

#END
