
#######################################################################
#
#                 Cambridge Crystallographic Data Centre
#                                CCDC 
#
#######################################################################
#
# If this CIF has been generated from an entry in the Cambridge 
# Structural Database, then it will include bibliographic, chemical, 
# crystal, experimental, refinement or atomic coordinate data resulting 
# from the CCDC's data processing and validation procedures.
#
#######################################################################

data_UGOREN
_symmetry_cell_setting           monoclinic
_symmetry_space_group_name_H-M   'C 2/c'
_symmetry_Int_Tables_number      15
_space_group_name_Hall           '-C 2yn'
loop_
_symmetry_equiv_pos_site_id
_symmetry_equiv_pos_as_xyz
1 x,y,z
2 1/2+x,1/2+y,z
3 x,-y,1/2+z
4 1/2+x,1/2-y,1/2+z
5 -x,-y,-z
6 1/2-x,1/2-y,-z
7 -x,y,1/2-z
8 1/2-x,1/2+y,1/2-z
_cell_length_a                   28.947(8)
_cell_length_b                   8.617(3)
_cell_length_c                   16.307(6)
_cell_angle_alpha                90
_cell_angle_beta                 121.07(1)
_cell_angle_gamma                90
_cell_volume                     3484.02
loop_
_atom_site_label
_atom_site_type_symbol
_atom_site_fract_x
_atom_site_fract_y
_atom_site_fract_z
Ag1 Ag 0.030901(15) 0.15784(5) 0.05015(3)
O1 O 0.30720(15) -0.0973(5) 0.1956(3)
O2 O 0.03518(16) 0.2283(4) 0.2115(3)
O3 O -0.00980(14) 0.0113(4) 0.1514(2)
N1 N 0.10704(14) 0.0320(4) 0.1181(3)
N2 N 0.29979(15) -0.1620(4) 0.3214(3)
H1 H 0.3113 -0.1482 0.3805
N3 N 0.46401(14) 0.1866(4) 0.4589(3)
C1 C 0.13539(19) 0.0212(6) 0.2125(4)
H2 H 0.1229 0.0758 0.2487
C2 C 0.18211(19) -0.0660(6) 0.2618(4)
H3 H 0.2019 -0.0697 0.3305
C3 C 0.20003(16) -0.1477(5) 0.2108(3)
C4 C 0.17122(19) -0.1339(6) 0.1131(4)
H4 H 0.1831 -0.1869 0.0755
C5 C 0.12539(18) -0.0449(6) 0.0698(3)
H5 H 0.1054 -0.0384 0.0012
C6 C 0.25016(18) -0.2497(6) 0.2625(4)
H6 H 0.2455 -0.3242 0.3015
H7 H 0.2538 -0.3058 0.2153
C7 C 0.32493(18) -0.0934(5) 0.2829(3)
C8 C 0.37519(17) -0.0038(5) 0.3473(3)
C9 C 0.39972(19) -0.0014(6) 0.4454(3)
H8 H 0.3867 -0.0667 0.4768
C10 C 0.4432(2) 0.0951(6) 0.4978(4)
H9 H 0.4597 0.0962 0.5662
C11 C 0.39732(19) 0.0893(6) 0.3065(4)
H10 H 0.3822 0.0877 0.2385
C12 C 0.4404(2) 0.1827(6) 0.3629(4)
H11 H 0.4546 0.2479 0.3333
C13 C 0.00694(18) 0.1179(5) 0.2111(3)
C13F C -0.00694(18) 0.1179(5) 0.2889(3)
O2F O -0.03518(16) 0.2283(4) 0.2885(3)
O3F O 0.00980(14) 0.0113(4) 0.3486(2)
O1C O -0.19280(15) 0.5973(5) -0.3044(3)
N1C N -0.39296(14) 0.4680(4) -0.3819(3)
N2C N -0.20021(15) 0.6620(4) -0.1786(3)
H1C H -0.1887 0.6482 -0.1195
N3C N -0.03599(14) 0.3134(4) -0.0411(3)
C1C C -0.36461(19) 0.4788(6) -0.2875(4)
H2C H -0.3771 0.4242 -0.2513
C2C C -0.31789(19) 0.5660(6) -0.2382(4)
H3C H -0.2981 0.5697 -0.1695
C3C C -0.29997(16) 0.6477(5) -0.2892(3)
C4C C -0.32878(19) 0.6339(6) -0.3869(4)
H4C H -0.3169 0.6869 -0.4245
C5C C -0.37461(18) 0.5449(6) -0.4302(3)
H5C H -0.3946 0.5384 -0.4988
C6C C -0.24984(18) 0.7497(6) -0.2375(4)
H6C H -0.2545 0.8242 -0.1985
H7C H -0.2462 0.8058 -0.2847
C7C C -0.17507(18) 0.5934(5) -0.2171(3)
C8C C -0.12481(17) 0.5038(5) -0.1527(3)
C9C C -0.10028(19) 0.5014(6) -0.0546(3)
H8C H -0.1133 0.5667 -0.0232
C10C C -0.0568(2) 0.4049(6) -0.0022(4)
H9C H -0.0403 0.4038 0.0662
C11C C -0.10268(19) 0.4107(6) -0.1935(4)
H10C H -0.1178 0.4123 -0.2615
C12C C -0.0596(2) 0.3173(6) -0.1371(4)
H11C H -0.0454 0.2521 -0.1667
Ag1F Ag -0.030901(15) 0.15784(5) 0.44985(3)
Ag1C Ag 0.530901(15) 0.34216(5) 0.55015(3)
Ag1C_2 Ag -0.469099(15) 0.34216(5) -0.44985(3)
N1F N -0.10704(14) 0.0320(4) 0.3819(3)
N3E N 0.03599(14) 0.3134(4) 0.5411(3)
O4 O 0.0000 0.5087(6) 0.2500
H12 H 0.0218 0.4617 0.2383
H12F H -0.0218 0.4617 0.2617
O5 O -0.06954(16) 0.7578(5) 0.1424(3)
H13 H -0.0504 0.6762 0.1636
H14 H -0.0481 0.8121 0.1331
O6 O 0.32333(18) 0.2344(7) 0.0109(3)
H15 H 0.3566 0.2416 0.0535
H16 H 0.3088 0.1461 0.0049
O7 O 0.2450(3) 0.0283(9) 0.0085(4)
H17 H 0.2631 -0.0063 0.0655
H18 H 0.2681 0.0891 0.0085
O8 O 0.3687(3) -0.1993(13) 0.1034(5)
H19 H 0.3475 -0.1723 0.1223
H20 H 0.3986 -0.2243 0.1525
loop_
_geom_bond_atom_site_label_1
_geom_bond_atom_site_label_2
_geom_bond_site_symmetry_1
_geom_bond_site_symmetry_2
Ag1 O2 1_555 1_555
O1 C7 1_555 1_555
O2 C13 1_555 1_555
O3 C13 1_555 1_555
N1 Ag1 1_555 1_555
N2 H1 1_555 1_555
N3 C10 1_555 1_555
C1 N1 1_555 1_555
H2 C1 1_555 1_555
C2 C1 1_555 1_555
H3 C2 1_555 1_555
C3 C2 1_555 1_555
C4 C3 1_555 1_555
H4 C4 1_555 1_555
C5 N1 1_555 1_555
H5 C5 1_555 1_555
C6 N2 1_555 1_555
H6 C6 1_555 1_555
H7 C6 1_555 1_555
C7 N2 1_555 1_555
C8 C7 1_555 1_555
C9 C8 1_555 1_555
H8 C9 1_555 1_555
C10 C9 1_555 1_555
H9 C10 1_555 1_555
C11 C8 1_555 1_555
H10 C11 1_555 1_555
C12 N3 1_555 1_555
H11 C12 1_555 1_555
C13 C13F 1_555 1_555
O4 H12 1_555 1_555
O5 H13 1_555 1_555
H14 O5 1_555 1_555
O6 H15 1_555 1_555
H16 O6 1_555 1_555
O7 H17 1_555 1_555
H18 O7 1_555 1_555
O8 H19 1_555 1_555
H20 O8 1_555 1_555
C13F O2F 1_555 1_555
O2F Ag1F 1_555 1_555
O3F C13F 1_555 1_555
H12F O4 1_555 1_555
O1C C7C 1_555 1_555
N1C C1C 1_555 1_555
N2C H1C 1_555 1_555
N3C Ag1 1_555 1_555
C1C H2C 1_555 1_555
C2C C1C 1_555 1_555
H3C C2C 1_555 1_555
C3C C2C 1_555 1_555
C4C C3C 1_555 1_555
H4C C4C 1_555 1_555
C5C N1C 1_555 1_555
H5C C5C 1_555 1_555
C6C N2C 1_555 1_555
H6C C6C 1_555 1_555
H7C C6C 1_555 1_555
C7C N2C 1_555 1_555
C8C C7C 1_555 1_555
C9C C8C 1_555 1_555
H8C C9C 1_555 1_555
C10C N3C 1_555 1_555
H9C C10C 1_555 1_555
C11C C8C 1_555 1_555
H10C C11C 1_555 1_555
C12C N3C 1_555 1_555
H11C C12C 1_555 1_555
Ag1F N1F 1_555 1_555
Ag1C N3 1_555 1_555
Ag1C_2 N1C 1_555 1_555
N3E Ag1F 1_555 1_555
C3 C6 1_555 1_555
C4 C5 1_555 1_555
C11 C12 1_555 1_555
C3C C6C 1_555 1_555
C4C C5C 1_555 1_555
C9C C10C 1_555 1_555
C11C C12C 1_555 1_555

#END
