
#######################################################################
#
#                 Cambridge Crystallographic Data Centre
#                                CCDC 
#
#######################################################################
#
# If this CIF has been generated from an entry in the Cambridge 
# Structural Database, then it will include bibliographic, chemical, 
# crystal, experimental, refinement or atomic coordinate data resulting 
# from the CCDC's data processing and validation procedures.
#
#######################################################################

data_UGOSEO
_symmetry_cell_setting           monoclinic
_symmetry_space_group_name_H-M   'I 2/a'
_symmetry_Int_Tables_number      15
_space_group_name_Hall           '-I 2ya'
loop_
_symmetry_equiv_pos_site_id
_symmetry_equiv_pos_as_xyz
1 x,y,z
2 1/2+x,1/2+y,1/2+z
3 1/2+x,-y,z
4 x,1/2-y,1/2+z
5 -x,-y,-z
6 1/2-x,1/2-y,1/2-z
7 1/2-x,y,-z
8 -x,1/2+y,1/2-z
_cell_length_a                   18.315(2)
_cell_length_b                   8.5166(9)
_cell_length_c                   20.494(3)
_cell_angle_alpha                90
_cell_angle_beta                 104.042(2)
_cell_angle_gamma                90
_cell_volume                     3101.16
loop_
_atom_site_label
_atom_site_type_symbol
_atom_site_fract_x
_atom_site_fract_y
_atom_site_fract_z
Cu1 Cu 0.14956(2) 0.54843(5) 0.37318(2)
C1 C 0.24517(17) 0.2841(4) 0.35629(17)
H1 H 0.2826 0.3487 0.3838
C2 C 0.26743(17) 0.1417(4) 0.33448(17)
C3 C 0.21251(18) 0.0464(4) 0.29487(17)
H2 H 0.2254 -0.0515 0.2784
C4 C 0.13919(19) 0.0972(4) 0.28010(18)
H3 H 0.1005 0.0333 0.2539
C5 C 0.12177(18) 0.2413(4) 0.30327(16)
H4 H 0.0708 0.2749 0.2922
C6 C 0.34621(18) 0.1045(4) 0.35331(17)
C7 C 0.52904(17) 0.2337(4) 0.38254(15)
H5 H 0.4991 0.3192 0.3615
C8 C 0.49293(17) 0.0965(4) 0.39413(17)
C9 C 0.53670(18) -0.0253(4) 0.42718(18)
H6 H 0.5141 -0.1202 0.4367
C10 C 0.6141(2) -0.0064(4) 0.4461(2)
H7 H 0.6453 -0.0881 0.4691
C11 C 0.64526(18) 0.1315(4) 0.43130(17)
H8 H 0.6984 0.1429 0.4441
C12 C 0.41248(19) 0.0921(4) 0.37269(17)
N1 N 0.17418(14) 0.3359(3) 0.34093(13)
N2 N 0.60355(14) 0.2513(3) 0.39941(13)
N3 N 0.08877(16) 0.4091(3) 0.46839(16)
N4 N 0.08926(14) 0.6547(3) 0.24928(14)
O1 O 0.15455(11) 0.4632(3) 0.46507(11)
O2 O 0.03827(13) 0.4068(3) 0.41616(12)
O3 O 0.08191(14) 0.3615(3) 0.52291(13)
O4 O 0.04228(12) 0.5658(3) 0.26487(12)
O5 O 0.15682(11) 0.6549(3) 0.28763(11)
O6 O 0.07426(13) 0.7416(3) 0.20042(12)
C13 C 0.32509(19) 0.6787(5) 0.38865(19)
H9 H 0.3548 0.5900 0.3789
H10 H 0.3584 0.7539 0.4177
H11 H 0.2999 0.7304 0.3465
O7 O 0.26996(12) 0.6231(3) 0.42198(12)
H12 H 0.293(2) 0.582(5) 0.4589(12)
N2B N 0.10355(14) 0.7487(3) 0.39941(13)
Cu1B Cu 0.64956(2) 0.45157(5) 0.37318(2)
loop_
_geom_bond_atom_site_label_1
_geom_bond_atom_site_label_2
_geom_bond_site_symmetry_1
_geom_bond_site_symmetry_2
Cu1 N1 1_555 1_555
C1 H1 1_555 1_555
C2 C1 1_555 1_555
C3 C2 1_555 1_555
H2 C3 1_555 1_555
C4 C3 1_555 1_555
H3 C4 1_555 1_555
C5 C4 1_555 1_555
H4 C5 1_555 1_555
C6 C2 1_555 1_555
C7 H5 1_555 1_555
C8 C7 1_555 1_555
C9 C8 1_555 1_555
H6 C9 1_555 1_555
C10 C9 1_555 1_555
H7 C10 1_555 1_555
C11 C10 1_555 1_555
H8 C11 1_555 1_555
C12 C6 1_555 1_555
N1 C1 1_555 1_555
N2 C7 1_555 1_555
N3 O1 1_555 1_555
N4 O4 1_555 1_555
O1 Cu1 1_555 1_555
O2 N3 1_555 1_555
O3 N3 1_555 1_555
O5 Cu1 1_555 1_555
O6 N4 1_555 1_555
C13 H9 1_555 1_555
H10 C13 1_555 1_555
H11 C13 1_555 1_555
O7 Cu1 1_555 1_555
H12 O7 1_555 1_555
N2B Cu1 1_555 1_555
Cu1B N2 1_555 1_555
C5 N1 1_555 1_555
C8 C12 1_555 1_555
C11 N2 1_555 1_555
N4 O5 1_555 1_555
C13 O7 1_555 1_555

#END
