
#######################################################################
#
#                 Cambridge Crystallographic Data Centre
#                                CCDC 
#
#######################################################################
#
# If this CIF has been generated from an entry in the Cambridge 
# Structural Database, then it will include bibliographic, chemical, 
# crystal, experimental, refinement or atomic coordinate data resulting 
# from the CCDC's data processing and validation procedures.
#
#######################################################################

data_UGOTIT
_symmetry_cell_setting           monoclinic
_symmetry_space_group_name_H-M   'C 2/c'
_symmetry_Int_Tables_number      15
_space_group_name_Hall           '-C 2yn'
loop_
_symmetry_equiv_pos_site_id
_symmetry_equiv_pos_as_xyz
1 x,y,z
2 1/2+x,1/2+y,z
3 x,-y,1/2+z
4 1/2+x,1/2-y,1/2+z
5 -x,-y,-z
6 1/2-x,1/2-y,-z
7 -x,y,1/2-z
8 1/2-x,1/2+y,1/2-z
_cell_length_a                   11.0467(10)
_cell_length_b                   13.4232(10)
_cell_length_c                   21.9334(10)
_cell_angle_alpha                90
_cell_angle_beta                 103.490(10)
_cell_angle_gamma                90
_cell_volume                     3162.6
loop_
_atom_site_label
_atom_site_type_symbol
_atom_site_fract_x
_atom_site_fract_y
_atom_site_fract_z
Yb1 Yb 0.0000 0.182846(9) 0.2500
N1 N 0.20416(17) 0.11748(13) 0.32236(9)
C1 C 0.2966(2) 0.07678(19) 0.30072(12)
H1 H 0.2875 0.0724 0.2567
C2 C 0.4041(3) 0.0410(2) 0.33950(17)
H2 H 0.4676 0.0127 0.3223
C3 C 0.4187(3) 0.0466(3) 0.40314(18)
H3 H 0.4922 0.0223 0.4307
C4 C 0.3247(3) 0.0883(2) 0.42654(13)
H4 H 0.3319 0.0933 0.4704
C5 C 0.2210(2) 0.12204(18) 0.38467(12)
H5 H 0.1565 0.1507 0.4010
N2 N 0.15687(16) 0.25042(13) 0.18939(8)
C6 C 0.2673(2) 0.29015(18) 0.21565(11)
H6 H 0.2951 0.2884 0.2600
C7 C 0.3432(2) 0.3338(2) 0.18116(13)
H7 H 0.4209 0.3620 0.2017
C8 C 0.3054(3) 0.3360(2) 0.11708(12)
H8 H 0.3562 0.3653 0.0925
C9 C 0.1922(2) 0.29486(19) 0.08928(11)
H9 H 0.1629 0.2951 0.0450
C10 C 0.1219(2) 0.25323(17) 0.12694(10)
H10 H 0.0438 0.2248 0.1073
Co1 Co -0.30856(3) 0.43863(2) 0.108090(13)
C11 C -0.1814(2) 0.37430(16) 0.15321(10)
O1 O -0.09812(15) 0.33148(11) 0.18477(8)
C12 C -0.3984(2) 0.3566(2) 0.05194(13)
O2 O -0.4552(2) 0.30436(17) 0.01474(11)
C13 C -0.2609(3) 0.5336(2) 0.06293(12)
O3 O -0.2293(2) 0.59484(16) 0.03353(10)
C14 C 0.1049(2) -0.00554(16) 0.15583(10)
O4 O 0.05012(15) 0.03431(11) 0.18847(7)
N1F N -0.20416(17) 0.11748(13) 0.17764(9)
C1F C -0.2966(2) 0.07678(19) 0.19928(12)
H1F H -0.2875 0.0724 0.2433
C2F C -0.4041(3) 0.0410(2) 0.16050(17)
H2F H -0.4676 0.0127 0.1777
C3F C -0.4187(3) 0.0466(3) 0.09686(18)
H3F H -0.4922 0.0223 0.0693
C4F C -0.3247(3) 0.0883(2) 0.07346(13)
H4F H -0.3319 0.0933 0.0296
C5F C -0.2210(2) 0.12204(18) 0.11533(12)
H5F H -0.1565 0.1507 0.0990
N2F N -0.15687(16) 0.25042(13) 0.31061(8)
C6F C -0.2673(2) 0.29015(18) 0.28435(11)
H6F H -0.2951 0.2884 0.2400
C7F C -0.3432(2) 0.3338(2) 0.31884(13)
H7F H -0.4209 0.3620 0.2983
C8F C -0.3054(3) 0.3360(2) 0.38292(12)
H8F H -0.3562 0.3653 0.4075
C9F C -0.1922(2) 0.29486(19) 0.41072(11)
H9F H -0.1629 0.2951 0.4550
C10F C -0.1219(2) 0.25323(17) 0.37306(10)
H10F H -0.0438 0.2248 0.3927
C11F C 0.1814(2) 0.37430(16) 0.34679(10)
O1F O 0.09812(15) 0.33148(11) 0.31523(8)
C14F C -0.1049(2) -0.00554(16) 0.34417(10)
O4F O -0.05012(15) 0.03431(11) 0.31153(7)
Co1F Co 0.30856(3) 0.43863(2) 0.391910(13)
C12F C 0.3984(2) 0.3566(2) 0.44806(13)
O2F O 0.4552(2) 0.30436(17) 0.48526(11)
C13F C 0.2609(3) 0.5336(2) 0.43707(12)
O3F O 0.2293(2) 0.59484(16) 0.46647(10)
C14A C -0.3951(2) 0.49446(16) 0.15583(10)
Co1A Co 0.19144(3) -0.06137(2) 0.108090(13)
Co1G Co -0.19144(3) -0.06137(2) 0.391910(13)
C14G C 0.3951(2) 0.49446(16) 0.34417(10)
loop_
_geom_bond_atom_site_label_1
_geom_bond_atom_site_label_2
_geom_bond_site_symmetry_1
_geom_bond_site_symmetry_2
Yb1 N1 1_555 1_555
N1 C1 1_555 1_555
C1 H1 1_555 1_555
C2 C1 1_555 1_555
H2 C2 1_555 1_555
C3 C2 1_555 1_555
H3 C3 1_555 1_555
C4 C3 1_555 1_555
H4 C4 1_555 1_555
C5 N1 1_555 1_555
H5 C5 1_555 1_555
N2 Yb1 1_555 1_555
C6 N2 1_555 1_555
H6 C6 1_555 1_555
C7 C6 1_555 1_555
H7 C7 1_555 1_555
C8 C7 1_555 1_555
H8 C8 1_555 1_555
C9 C8 1_555 1_555
H9 C9 1_555 1_555
C10 N2 1_555 1_555
H10 C10 1_555 1_555
Co1 C11 1_555 1_555
C11 O1 1_555 1_555
O1 Yb1 1_555 1_555
C12 Co1 1_555 1_555
O2 C12 1_555 1_555
C13 Co1 1_555 1_555
O3 C13 1_555 1_555
C14 O4 1_555 1_555
O4 Yb1 1_555 1_555
N1F Yb1 1_555 1_555
C1F N1F 1_555 1_555
H1F C1F 1_555 1_555
C2F C1F 1_555 1_555
H2F C2F 1_555 1_555
C3F C2F 1_555 1_555
H3F C3F 1_555 1_555
C4F C3F 1_555 1_555
H4F C4F 1_555 1_555
C5F N1F 1_555 1_555
H5F C5F 1_555 1_555
N2F Yb1 1_555 1_555
C6F N2F 1_555 1_555
H6F C6F 1_555 1_555
C7F C6F 1_555 1_555
H7F C7F 1_555 1_555
C8F C7F 1_555 1_555
H8F C8F 1_555 1_555
C9F C8F 1_555 1_555
H9F C9F 1_555 1_555
C10F N2F 1_555 1_555
H10F C10F 1_555 1_555
C11F O1F 1_555 1_555
O1F Yb1 1_555 1_555
C14F O4F 1_555 1_555
O4F Yb1 1_555 1_555
Co1F C11F 1_555 1_555
C12F Co1F 1_555 1_555
O2F C12F 1_555 1_555
C13F Co1F 1_555 1_555
O3F C13F 1_555 1_555
C14A Co1 1_555 1_555
Co1A C14 1_555 1_555
Co1G C14F 1_555 1_555
C14G Co1F 1_555 1_555
C4 C5 1_555 1_555
C9 C10 1_555 1_555
C4F C5F 1_555 1_555
C9F C10F 1_555 1_555

#END
