
#######################################################################
#
#                 Cambridge Crystallographic Data Centre
#                                CCDC 
#
#######################################################################
#
# If this CIF has been generated from an entry in the Cambridge 
# Structural Database, then it will include bibliographic, chemical, 
# crystal, experimental, refinement or atomic coordinate data resulting 
# from the CCDC's data processing and validation procedures.
#
#######################################################################

data_UGOWUI
_symmetry_cell_setting           triclinic
_symmetry_space_group_name_H-M   'P -1'
_symmetry_Int_Tables_number      2
_space_group_name_Hall           '-P 1'
loop_
_symmetry_equiv_pos_site_id
_symmetry_equiv_pos_as_xyz
1 x,y,z
2 -x,-y,-z
_cell_length_a                   6.823(4)
_cell_length_b                   10.356(6)
_cell_length_c                   11.366(6)
_cell_angle_alpha                65.739(9)
_cell_angle_beta                 80.303(9)
_cell_angle_gamma                81.160(9)
_cell_volume                     718.526
loop_
_atom_site_label
_atom_site_type_symbol
_atom_site_fract_x
_atom_site_fract_y
_atom_site_fract_z
Cd1 Cd -0.5000 0.5000 1.5000
S1 S -0.15097(16) 0.62664(10) 1.21659(10)
O1 O -0.2305(5) 0.6009(4) 1.3511(3)
O2 O -0.1983(7) 0.5220(4) 1.1761(5)
O3 O 0.0585(5) 0.6461(4) 1.1949(4)
O4 O 0.2185(6) -0.1111(4) 1.6835(5)
O5 O -0.3321(6) 0.5410(4) 1.6382(4)
H1 H -0.244(11) 0.486(7) 1.683(6)
H2 H -0.372(11) 0.585(8) 1.691(7)
N1 N -0.3193(6) 0.2828(4) 1.5565(4)
N2 N -0.0495(7) -0.2354(4) 1.7574(5)
H5 H 0.0219 -0.3156 1.7860
H6 H -0.1775 -0.2331 1.7664
C1 C -0.5405(7) 0.9399(5) 1.0042(4)
C2 C -0.4374(7) 0.8032(5) 1.0712(5)
H7 H -0.4865 0.7211 1.0781
C3 C -0.2718(7) 0.7930(5) 1.1238(4)
C4 C -0.1904(8) 0.9175(5) 1.1140(5)
H8 H -0.0750 0.9089 1.1511
C5 C -0.7156(8) 0.9517(5) 0.9501(5)
H9 H -0.7677 0.8702 0.9579
C6 C -0.1216(7) 0.2737(5) 1.5423(5)
H10 H -0.0587 0.3572 1.5008
C7 C -0.0050(7) 0.1459(5) 1.5863(5)
H11 H 0.1336 0.1440 1.5728
C8 C -0.0951(7) 0.0214(4) 1.6503(4)
C9 C -0.3008(7) 0.0299(5) 1.6654(5)
H12 H -0.3673 -0.0520 1.7074
C10 C -0.4064(7) 0.1617(5) 1.6174(5)
H13 H -0.5452 0.1666 1.6280
C11 C 0.0376(7) -0.1157(5) 1.6996(5)
C1A C -0.4595(7) 1.0601(5) 0.9958(4)
C2A C -0.5626(7) 1.1968(5) 0.9288(5)
H7A H -0.5135 1.2789 0.9219
C3A C -0.7282(7) 1.2070(5) 0.8762(4)
S1A S -0.84903(16) 1.37336(10) 0.78341(10)
O1A O -0.7695(5) 1.3991(4) 0.6489(3)
O2A O -0.8017(7) 1.4780(4) 0.8239(5)
O3A O -1.0585(5) 1.3539(4) 0.8051(4)
C4A C -0.8096(8) 1.0825(5) 0.8860(5)
H8A H -0.9250 1.0911 0.8489
C5A C -0.2844(8) 1.0483(5) 1.0499(5)
H9A H -0.2323 1.1298 1.0421
O5A O -0.6679(6) 0.4590(4) 1.3618(4)
H1A H -0.756(11) 0.514(7) 1.317(6)
H2A H -0.628(11) 0.415(8) 1.309(7)
O4A O -1.2185(6) 1.1111(4) 1.3165(5)
N1A N -0.6807(6) 0.7172(4) 1.4435(4)
N2A N -0.9505(7) 1.2354(4) 1.2426(5)
H5A H -1.0219 1.3156 1.2140
H6A H -0.8225 1.2331 1.2336
C6A C -0.8784(7) 0.7263(5) 1.4577(5)
H10A H -0.9413 0.6428 1.4992
C7A C -0.9950(7) 0.8541(5) 1.4137(5)
H11A H -1.1336 0.8560 1.4272
C8A C -0.9049(7) 0.9786(4) 1.3497(4)
C9A C -0.6992(7) 0.9701(5) 1.3346(5)
H12A H -0.6327 1.0520 1.2926
C10A C -0.5936(7) 0.8383(5) 1.3826(5)
H13A H -0.4548 0.8334 1.3720
C11A C -1.0376(7) 1.1157(5) 1.3004(5)
O1A_2 O -0.7695(5) 0.3991(4) 1.6489(3)
Cd1_2 Cd -0.5000 1.5000 0.5000
O6 O 0.4656(6) 0.2958(4) 0.2232(5)
H3 H 0.555(10) 0.246(7) 0.250(6)
H4 H 0.435(19) 0.360(13) 0.174(12)
O7 O 0.2987(11) 0.5448(9) 1.0160(7)
loop_
_geom_bond_atom_site_label_1
_geom_bond_atom_site_label_2
_geom_bond_site_symmetry_1
_geom_bond_site_symmetry_2
Cd1 O1 1_555 1_555
S1 O1 1_555 1_555
O2 S1 1_555 1_555
O3 S1 1_555 1_555
O4 C11 1_555 1_555
O5 Cd1 1_555 1_555
H1 O5 1_555 1_555
H2 O5 1_555 1_555
O6 H3 1_555 1_555
H4 O6 1_555 1_555
N1 Cd1 1_555 1_555
N2 H5 1_555 1_555
H6 N2 1_555 1_555
C1 C2 1_555 1_555
C2 H7 1_555 1_555
C3 S1 1_555 1_555
C4 C3 1_555 1_555
H8 C4 1_555 1_555
C5 C1 1_555 1_555
H9 C5 1_555 1_555
C6 N1 1_555 1_555
H10 C6 1_555 1_555
C7 C6 1_555 1_555
H11 C7 1_555 1_555
C8 C7 1_555 1_555
C9 C8 1_555 1_555
H12 C9 1_555 1_555
C10 N1 1_555 1_555
H13 C10 1_555 1_555
C11 N2 1_555 1_555
C1A C1 1_555 1_555
C2A C1A 1_555 1_555
H7A C2A 1_555 1_555
C3A C2A 1_555 1_555
S1A C3A 1_555 1_555
O1A S1A 1_555 1_555
O2A S1A 1_555 1_555
O3A S1A 1_555 1_555
C4A C5 1_555 1_555
H8A C4A 1_555 1_555
C5A C4 1_555 1_555
H9A C5A 1_555 1_555
O5A Cd1 1_555 1_555
H1A O5A 1_555 1_555
H2A O5A 1_555 1_555
O4A C11A 1_555 1_555
N1A Cd1 1_555 1_555
N2A H5A 1_555 1_555
H6A N2A 1_555 1_555
C6A N1A 1_555 1_555
H10A C6A 1_555 1_555
C7A C6A 1_555 1_555
H11A C7A 1_555 1_555
C8A C7A 1_555 1_555
C9A C8A 1_555 1_555
H12A C9A 1_555 1_555
C10A N1A 1_555 1_555
H13A C10A 1_555 1_555
C11A N2A 1_555 1_555
O1A_2 Cd1 1_555 1_555
Cd1_2 O1A 1_555 1_555
C2 C3 1_555 1_555
C8 C11 1_555 1_555
C9 C10 1_555 1_555
C1A C5A 1_555 1_555
C3A C4A 1_555 1_555
C8A C11A 1_555 1_555
C9A C10A 1_555 1_555

#END
