
#######################################################################
#
#                 Cambridge Crystallographic Data Centre
#                                CCDC 
#
#######################################################################
#
# If this CIF has been generated from an entry in the Cambridge 
# Structural Database, then it will include bibliographic, chemical, 
# crystal, experimental, refinement or atomic coordinate data resulting 
# from the CCDC's data processing and validation procedures.
#
#######################################################################

data_UGOXUJ
_symmetry_cell_setting           orthorhombic
_symmetry_space_group_name_H-M   'F d d 2'
_symmetry_Int_Tables_number      43
_space_group_name_Hall           'F 2 -2d'
loop_
_symmetry_equiv_pos_site_id
_symmetry_equiv_pos_as_xyz
1 x,y,z
2 -x,-y,z
3 1/4+x,1/4-y,1/4+z
4 1/4-x,1/4+y,1/4+z
5 x,1/2+y,1/2+z
6 -x,1/2-y,1/2+z
7 1/4+x,3/4-y,3/4+z
8 1/4-x,3/4+y,3/4+z
9 1/2+x,y,1/2+z
10 1/2-x,-y,1/2+z
11 3/4+x,1/4-y,3/4+z
12 3/4-x,1/4+y,3/4+z
13 1/2+x,1/2+y,z
14 1/2-x,1/2-y,z
15 3/4+x,3/4-y,1/4+z
16 3/4-x,3/4+y,1/4+z
_cell_length_a                   16.3695(4)
_cell_length_b                   55.4983(9)
_cell_length_c                   13.8680(3)
_cell_angle_alpha                90
_cell_angle_beta                 90
_cell_angle_gamma                90
_cell_volume                     12598.8
loop_
_atom_site_label
_atom_site_type_symbol
_atom_site_fract_x
_atom_site_fract_y
_atom_site_fract_z
Mn1 Mn 0.12958(4) 0.245351(12) 0.30350(6)
P1 P 0.27274(8) 0.21257(2) 0.17546(12)
P2 P 0.14966(9) 0.20332(2) 0.47860(12)
O1 O 0.2500 0.2500 0.3865(4)
O2 O 0.1921(2) 0.22014(6) 0.2138(3)
O3 O 0.3477(2) 0.22378(6) 0.2148(3)
O4 O 0.2677(3) 0.21692(7) 0.0622(4)
O5 O 0.0990(2) 0.21796(6) 0.4128(3)
O6 O 0.2372(3) 0.21043(7) 0.4901(4)
O7 O 0.1034(3) 0.20378(7) 0.5802(3)
N1 N 0.2019(3) 0.02108(7) 0.1440(3)
N2 N 0.2649(3) 0.01805(7) 0.4777(4)
C1 C 0.1958(4) 0.04530(9) 0.1445(4)
H1 H 0.1499 0.0523 0.1164
C2 C 0.2546(4) 0.06059(9) 0.1850(5)
C3 C 0.3210(4) 0.04963(10) 0.2283(5)
H2 H 0.3619 0.0591 0.2556
C4 C 0.3273(4) 0.02496(9) 0.2314(5)
H3 H 0.3715 0.0175 0.2615
C5 C 0.2662(4) 0.01146(9) 0.1886(5)
H4 H 0.2702 -0.0052 0.1912
C6 C 0.2436(4) 0.08666(9) 0.1781(5)
H5 H 0.1920 0.0922 0.1607
C7 C 0.3002(4) 0.10308(9) 0.1944(5)
H6 H 0.3518 0.0973 0.2105
C8 C 0.2915(4) 0.12944(9) 0.1899(5)
C9 C 0.3607(4) 0.14388(10) 0.1988(6)
H7 H 0.4113 0.1367 0.2088
C10 C 0.3560(4) 0.16853(10) 0.1930(6)
H8 H 0.4037 0.1776 0.1941
C11 C 0.2809(3) 0.18023(9) 0.1854(5)
C12 C 0.2120(4) 0.16586(9) 0.1794(5)
H9 H 0.1610 0.1731 0.1743
C13 C 0.2169(4) 0.14088(9) 0.1809(6)
H10 H 0.1694 0.1317 0.1758
C14 C 0.3338(5) 0.21205(17) -0.0018(6)
H11 H 0.3744 0.2247 0.0047
H12 H 0.3592 0.1969 0.0166
C15 C 0.3106(10) 0.2107(6) -0.0932(12)
H13 H 0.3570 0.2071 -0.1329
H14 H 0.2873 0.2258 -0.1126
H15 H 0.2705 0.1982 -0.1002
C16 C 0.2546(3) 0.04191(8) 0.4789(5)
H16 H 0.2924 0.0512 0.5123
C17 C 0.1909(4) 0.05356(9) 0.4331(5)
C18 C 0.1337(4) 0.03968(10) 0.3849(5)
H17 H 0.0894 0.0468 0.3541
C19 C 0.1437(4) 0.01530(11) 0.3837(5)
H18 H 0.1063 0.0056 0.3511
C20 C 0.2087(4) 0.00503(9) 0.4304(5)
H19 H 0.2141 -0.0117 0.4293
C21 C 0.1901(4) 0.08036(9) 0.4403(5)
H20 H 0.2353 0.0875 0.4691
C22 C 0.1321(4) 0.09492(10) 0.4103(5)
H21 H 0.0855 0.0883 0.3827
C23 C 0.1378(4) 0.12179(9) 0.4188(5)
C24 C 0.2123(4) 0.13351(10) 0.4291(6)
H22 H 0.2605 0.1246 0.4263
C25 C 0.2160(4) 0.15801(10) 0.4435(5)
H23 H 0.2665 0.1654 0.4511
C26 C 0.1458(3) 0.17172(9) 0.4466(5)
C27 C 0.0709(4) 0.16032(10) 0.4322(6)
H24 H 0.0229 0.1693 0.4329
C28 C 0.0673(4) 0.13554(10) 0.4168(6)
H25 H 0.0172 0.1282 0.4052
C29 C 0.1464(7) 0.1948(2) 0.6656(9)
H26 H 0.2036 0.1924 0.6503
H27 H 0.1429 0.2067 0.7168
C30 C 0.1134(9) 0.1736(3) 0.6967(17)
H28 H 0.1421 0.1681 0.7530
H29 H 0.1181 0.1617 0.6467
H30 H 0.0568 0.1759 0.7122
P1M P 0.22726(8) 0.28743(2) 0.17546(12)
O2M O 0.3079(2) 0.27986(6) 0.2138(3)
O3M O 0.1523(2) 0.27622(6) 0.2148(3)
O4M O 0.2323(3) 0.28308(7) 0.0622(4)
N1M N 0.2981(3) 0.47892(7) 0.1440(3)
C1M C 0.3042(4) 0.45470(9) 0.1445(4)
H1M H 0.3501 0.4477 0.1164
C2M C 0.2454(4) 0.43941(9) 0.1850(5)
C3M C 0.1790(4) 0.45037(10) 0.2283(5)
H2M H 0.1381 0.4409 0.2556
C4M C 0.1727(4) 0.47504(9) 0.2314(5)
H3M H 0.1285 0.4825 0.2615
C5M C 0.2338(4) 0.48854(9) 0.1886(5)
H4M H 0.2298 0.5052 0.1912
C6M C 0.2564(4) 0.41334(9) 0.1781(5)
H5M H 0.3080 0.4078 0.1607
C7M C 0.1998(4) 0.39692(9) 0.1944(5)
H6M H 0.1482 0.4027 0.2105
C8M C 0.2085(4) 0.37056(9) 0.1899(5)
C9M C 0.1393(4) 0.35612(10) 0.1988(6)
H7M H 0.0887 0.3633 0.2088
C10M C 0.1440(4) 0.33147(10) 0.1930(6)
H8M H 0.0963 0.3224 0.1941
C11M C 0.2191(3) 0.31977(9) 0.1854(5)
C12M C 0.2880(4) 0.33414(9) 0.1794(5)
H9M H 0.3390 0.3269 0.1743
C13M C 0.2831(4) 0.35912(9) 0.1809(6)
H10M H 0.3306 0.3683 0.1758
C14M C 0.1662(5) 0.28795(17) -0.0018(6)
H11M H 0.1256 0.2753 0.0047
H12M H 0.1408 0.3031 0.0166
C15M C 0.1894(10) 0.2893(6) -0.0932(12)
H13M H 0.1430 0.2929 -0.1329
H14M H 0.2127 0.2742 -0.1126
H15M H 0.2295 0.3018 -0.1002
P2J P -0.10034(9) 0.04668(2) 0.22860(12)
O5J O -0.1510(2) 0.03204(6) 0.1628(3)
O6J O -0.0128(3) 0.03957(7) 0.2401(4)
O7J O -0.1466(3) 0.04622(7) 0.3302(3)
N2J N 0.0149(3) 0.23195(7) 0.2277(4)
C16J C 0.0046(3) 0.20809(8) 0.2289(5)
H16J H 0.0424 0.1988 0.2623
C17J C -0.0591(4) 0.19644(9) 0.1831(5)
C18J C -0.1163(4) 0.21032(10) 0.1349(5)
H17J H -0.1606 0.2032 0.1041
C19J C -0.1063(4) 0.23470(11) 0.1337(5)
H18J H -0.1437 0.2444 0.1011
C20J C -0.0413(4) 0.24497(9) 0.1804(5)
H19J H -0.0359 0.2617 0.1793
C21J C -0.0599(4) 0.16964(9) 0.1903(5)
H20J H -0.0147 0.1625 0.2191
C22J C -0.1179(4) 0.15508(10) 0.1603(5)
H21J H -0.1645 0.1617 0.1327
C23J C -0.1122(4) 0.12821(9) 0.1688(5)
C24J C -0.0377(4) 0.11649(10) 0.1791(6)
H22J H 0.0105 0.1254 0.1763
C25J C -0.0340(4) 0.09199(10) 0.1935(5)
H23J H 0.0165 0.0846 0.2011
C26J C -0.1042(3) 0.07828(9) 0.1966(5)
C27J C -0.1791(4) 0.08968(10) 0.1822(6)
H24J H -0.2271 0.0807 0.1829
C28J C -0.1827(4) 0.11446(10) 0.1668(6)
H25J H -0.2328 0.1218 0.1552
C29J C -0.1036(7) 0.0552(2) 0.4156(9)
H26J H -0.0464 0.0576 0.4003
H27J H -0.1071 0.0433 0.4668
C30J C -0.1366(9) 0.0764(3) 0.4467(17)
H28J H -0.1079 0.0819 0.5030
H29J H -0.1319 0.0883 0.3967
H30J H -0.1932 0.0741 0.4622
Mn1M Mn 0.37042(4) 0.254649(12) 0.30350(6)
N1C N 0.0481(3) 0.27108(7) 0.3940(3)
Mn1G Mn 0.12042(4) -0.004649(12) 0.05350(6)
Mn1B Mn 0.37958(4) 0.004649(12) 0.55350(6)
Mn1F Mn 0.37958(4) 0.504649(12) 0.05350(6)
Mn1J Mn -0.12042(4) 0.004649(12) 0.05350(6)
O5M O 0.4010(2) 0.28204(6) 0.4128(3)
N1B N 0.4519(3) 0.22892(7) 0.3940(3)
N2K N 0.4851(3) 0.26805(7) 0.2277(4)
loop_
_geom_bond_atom_site_label_1
_geom_bond_atom_site_label_2
_geom_bond_site_symmetry_1
_geom_bond_site_symmetry_2
Mn1 O1 1_555 1_555
P1 O2 1_555 1_555
P2 O5 1_555 1_555
O1 Mn1M 1_555 1_555
O2 Mn1 1_555 1_555
O3 P1 1_555 1_555
O4 P1 1_555 1_555
O5 Mn1 1_555 1_555
O6 P2 1_555 1_555
O7 P2 1_555 1_555
N1 C1 1_555 1_555
N2 C16 1_555 1_555
C1 H1 1_555 1_555
C2 C1 1_555 1_555
C3 C2 1_555 1_555
H2 C3 1_555 1_555
C4 C3 1_555 1_555
H3 C4 1_555 1_555
C5 N1 1_555 1_555
H4 C5 1_555 1_555
C6 C2 1_555 1_555
H5 C6 1_555 1_555
C7 C6 1_555 1_555
H6 C7 1_555 1_555
C8 C7 1_555 1_555
C9 C8 1_555 1_555
H7 C9 1_555 1_555
C10 C9 1_555 1_555
H8 C10 1_555 1_555
C11 P1 1_555 1_555
C12 C11 1_555 1_555
H9 C12 1_555 1_555
C13 C8 1_555 1_555
H10 C13 1_555 1_555
C14 O4 1_555 1_555
H11 C14 1_555 1_555
H12 C14 1_555 1_555
C15 C14 1_555 1_555
H13 C15 1_555 1_555
H14 C15 1_555 1_555
H15 C15 1_555 1_555
C16 H16 1_555 1_555
C17 C16 1_555 1_555
C18 C17 1_555 1_555
H17 C18 1_555 1_555
C19 C18 1_555 1_555
H18 C19 1_555 1_555
C20 N2 1_555 1_555
H19 C20 1_555 1_555
C21 C17 1_555 1_555
H20 C21 1_555 1_555
C22 C21 1_555 1_555
H21 C22 1_555 1_555
C23 C22 1_555 1_555
C24 C23 1_555 1_555
H22 C24 1_555 1_555
C25 C24 1_555 1_555
H23 C25 1_555 1_555
C26 P2 1_555 1_555
C27 C26 1_555 1_555
H24 C27 1_555 1_555
C28 C23 1_555 1_555
H25 C28 1_555 1_555
C29 O7 1_555 1_555
H26 C29 1_555 1_555
H27 C29 1_555 1_555
C30 C29 1_555 1_555
H28 C30 1_555 1_555
H29 C30 1_555 1_555
H30 C30 1_555 1_555
P1M O2M 1_555 1_555
O2M Mn1M 1_555 1_555
O3M Mn1 1_555 1_555
O4M P1M 1_555 1_555
N1M C1M 1_555 1_555
C1M H1M 1_555 1_555
C2M C1M 1_555 1_555
C3M C2M 1_555 1_555
H2M C3M 1_555 1_555
C4M C3M 1_555 1_555
H3M C4M 1_555 1_555
C5M N1M 1_555 1_555
H4M C5M 1_555 1_555
C6M C2M 1_555 1_555
H5M C6M 1_555 1_555
C7M C6M 1_555 1_555
H6M C7M 1_555 1_555
C8M C7M 1_555 1_555
C9M C8M 1_555 1_555
H7M C9M 1_555 1_555
C10M C9M 1_555 1_555
H8M C10M 1_555 1_555
C11M P1M 1_555 1_555
C12M C11M 1_555 1_555
H9M C12M 1_555 1_555
C13M C8M 1_555 1_555
H10M C13M 1_555 1_555
C14M O4M 1_555 1_555
H11M C14M 1_555 1_555
H12M C14M 1_555 1_555
C15M C14M 1_555 1_555
H13M C15M 1_555 1_555
H14M C15M 1_555 1_555
H15M C15M 1_555 1_555
P2J O5J 1_555 1_555
O5J Mn1J 1_555 1_555
O6J P2J 1_555 1_555
O7J P2J 1_555 1_555
N2J Mn1 1_555 1_555
C16J N2J 1_555 1_555
H16J C16J 1_555 1_555
C17J C16J 1_555 1_555
C18J C17J 1_555 1_555
H17J C18J 1_555 1_555
C19J C18J 1_555 1_555
H18J C19J 1_555 1_555
C20J N2J 1_555 1_555
H19J C20J 1_555 1_555
C21J C17J 1_555 1_555
H20J C21J 1_555 1_555
C22J C21J 1_555 1_555
H21J C22J 1_555 1_555
C23J C22J 1_555 1_555
C24J C23J 1_555 1_555
H22J C24J 1_555 1_555
C25J C24J 1_555 1_555
H23J C25J 1_555 1_555
C26J P2J 1_555 1_555
C27J C26J 1_555 1_555
H24J C27J 1_555 1_555
C28J C23J 1_555 1_555
H25J C28J 1_555 1_555
C29J O7J 1_555 1_555
H26J C29J 1_555 1_555
H27J C29J 1_555 1_555
C30J C29J 1_555 1_555
H28J C30J 1_555 1_555
H29J C30J 1_555 1_555
H30J C30J 1_555 1_555
Mn1M O3 1_555 1_555
N1C Mn1 1_555 1_555
Mn1G N1 1_555 1_555
Mn1B N2 1_555 1_555
Mn1F N1M 1_555 1_555
O5M Mn1M 1_555 1_555
N1B Mn1M 1_555 1_555
N2K Mn1M 1_555 1_555
C4 C5 1_555 1_555
C10 C11 1_555 1_555
C12 C13 1_555 1_555
C19 C20 1_555 1_555
C25 C26 1_555 1_555
C27 C28 1_555 1_555
P1M O3M 1_555 1_555
C4M C5M 1_555 1_555
C10M C11M 1_555 1_555
C12M C13M 1_555 1_555
C19J C20J 1_555 1_555
C25J C26J 1_555 1_555
C27J C28J 1_555 1_555

#END
