
#######################################################################
#
#                 Cambridge Crystallographic Data Centre
#                                CCDC 
#
#######################################################################
#
# If this CIF has been generated from an entry in the Cambridge 
# Structural Database, then it will include bibliographic, chemical, 
# crystal, experimental, refinement or atomic coordinate data resulting 
# from the CCDC's data processing and validation procedures.
#
#######################################################################

data_UGOXAP
_symmetry_cell_setting           triclinic
_symmetry_space_group_name_H-M   'P -1'
_symmetry_Int_Tables_number      2
_space_group_name_Hall           '-P 1'
loop_
_symmetry_equiv_pos_site_id
_symmetry_equiv_pos_as_xyz
1 x,y,z
2 -x,-y,-z
_cell_length_a                   6.850(2)
_cell_length_b                   10.611(6)
_cell_length_c                   11.861(8)
_cell_angle_alpha                73.90
_cell_angle_beta                 75.33
_cell_angle_gamma                80.060(10)
_cell_volume                     796.429
loop_
_atom_site_label
_atom_site_type_symbol
_atom_site_fract_x
_atom_site_fract_y
_atom_site_fract_z
Cd1 Cd 0.0000 0.0000 1.0000
S1 S 0.40056(11) 0.07635(7) 0.73909(7)
O1 O 0.2980(4) 0.0703(3) 0.8652(2)
O2 O 0.6106(4) 0.1022(3) 0.7182(2)
O3 O 0.3763(5) -0.0365(3) 0.6999(3)
O4 O 0.6846(4) -0.5769(3) 1.1774(4)
O7 O 0.1399(5) 0.0633(3) 1.1309(3)
H5 H 0.081(7) 0.126(5) 1.170(4)
H6 H 0.212(8) 0.017(5) 1.161(4)
N1 N 0.1708(4) -0.2065(2) 1.0524(2)
N2 N 0.4079(5) -0.6867(3) 1.2361(3)
H7 H 0.4753 -0.7607 1.2627
H8 H 0.2796 -0.6828 1.2411
C1 C 0.2749(5) 0.2167(3) 0.6534(3)
C2 C 0.3392(6) 0.3402(3) 0.6296(4)
H9 H 0.4548 0.3488 0.6532
C3 C 0.2307(6) 0.4518(3) 0.5702(4)
H10 H 0.2733 0.5345 0.5557
C4 C 0.0584(5) 0.4405(3) 0.5323(3)
C5 C -0.0044(6) 0.3158(3) 0.5592(4)
H11 H -0.1203 0.3065 0.5364
C6 C 0.1025(6) 0.2044(3) 0.6196(4)
H12 H 0.0573 0.1220 0.6371
C7 C 0.3710(5) -0.2200(3) 1.0458(3)
H13 H 0.4410 -0.1460 1.0117
C8 C 0.4785(5) -0.3407(3) 1.0881(4)
H14 H 0.6181 -0.3466 1.0807
C9 C 0.3777(5) -0.4511(3) 1.1408(3)
C10 C 0.1717(5) -0.4377(3) 1.1470(4)
H15 H 0.0989 -0.5105 1.1809
C11 C 0.0742(5) -0.3156(3) 1.1025(4)
H16 H -0.0648 -0.3082 1.1073
C12 C 0.5017(5) -0.5788(3) 1.1876(3)
C4A C -0.0584(5) 0.5595(3) 0.4677(3)
C3A C -0.2307(6) 0.5482(3) 0.4298(4)
C2A C -0.3392(6) 0.6598(3) 0.3704(4)
C1A C -0.2749(5) 0.7833(3) 0.3466(3)
S1A S -0.40056(11) 0.92365(7) 0.26091(7)
O1A O -0.2980(4) 0.9297(3) 0.1348(2)
O2A O -0.6106(4) 0.8978(3) 0.2818(2)
O3A O -0.3763(5) 1.0365(3) 0.3001(3)
C6A C -0.1025(6) 0.7956(3) 0.3804(4)
C5A C 0.0044(6) 0.6842(3) 0.4408(4)
H11A H 0.1203 0.6935 0.4636
H12A H -0.0573 0.8780 0.3629
H9A H -0.4548 0.6512 0.3468
H10A H -0.2733 0.4655 0.4443
O7A O -0.1399(5) -0.0633(3) 0.8691(3)
H5A H -0.081(7) -0.126(5) 0.830(4)
H6A H -0.212(8) -0.017(5) 0.839(4)
O4A O -0.6846(4) 0.5769(3) 0.8226(4)
N1A N -0.1708(4) 0.2065(2) 0.9476(2)
N2A N -0.4079(5) 0.6867(3) 0.7639(3)
H7A H -0.4753 0.7607 0.7373
H8A H -0.2796 0.6828 0.7589
C7A C -0.3710(5) 0.2200(3) 0.9542(3)
H13A H -0.4410 0.1460 0.9883
C8A C -0.4785(5) 0.3407(3) 0.9119(4)
H14A H -0.6181 0.3466 0.9193
C9A C -0.3777(5) 0.4511(3) 0.8592(3)
C10A C -0.1717(5) 0.4377(3) 0.8530(4)
H15A H -0.0989 0.5105 0.8191
C11A C -0.0742(5) 0.3156(3) 0.8975(4)
H16A H 0.0648 0.3082 0.8927
C12A C -0.5017(5) 0.5788(3) 0.8124(3)
O1A_2 O -0.2980(4) -0.0703(3) 1.1348(2)
Cd1_2 Cd 0.0000 1.0000 0.0000
O5 O 0.9926(4) 0.2528(3) 0.2560(3)
H1 H 0.882(10) 0.298(6) 0.240(6)
H2 H 0.931(7) 0.206(5) 0.324(4)
O6 O 0.7947(10) 0.1022(6) 0.4665(4)
H3 H 0.758(14) 0.116(9) 0.520(8)
H4 H 0.701(13) 0.047(9) 0.428(8)
loop_
_geom_bond_atom_site_label_1
_geom_bond_atom_site_label_2
_geom_bond_site_symmetry_1
_geom_bond_site_symmetry_2
Cd1 O1 1_555 1_555
S1 O1 1_555 1_555
O2 S1 1_555 1_555
O3 S1 1_555 1_555
O4 C12 1_555 1_555
O5 H1 1_555 1_555
H2 O5 1_555 1_555
O6 H3 1_555 1_555
H4 O6 1_555 1_555
O7 Cd1 1_555 1_555
H5 O7 1_555 1_555
H6 O7 1_555 1_555
N1 Cd1 1_555 1_555
N2 H7 1_555 1_555
H8 N2 1_555 1_555
C1 S1 1_555 1_555
C2 C1 1_555 1_555
H9 C2 1_555 1_555
C3 C2 1_555 1_555
H10 C3 1_555 1_555
C4 C3 1_555 1_555
C5 C4 1_555 1_555
H11 C5 1_555 1_555
C6 C1 1_555 1_555
H12 C6 1_555 1_555
C7 N1 1_555 1_555
H13 C7 1_555 1_555
C8 C7 1_555 1_555
H14 C8 1_555 1_555
C9 C8 1_555 1_555
C10 C9 1_555 1_555
H15 C10 1_555 1_555
C11 N1 1_555 1_555
H16 C11 1_555 1_555
C12 N2 1_555 1_555
C4A C4 1_555 1_555
C3A C4A 1_555 1_555
C2A C3A 1_555 1_555
C1A C2A 1_555 1_555
S1A C1A 1_555 1_555
O1A S1A 1_555 1_555
O2A S1A 1_555 1_555
O3A S1A 1_555 1_555
C6A C1A 1_555 1_555
C5A C4A 1_555 1_555
H11A C5A 1_555 1_555
H12A C6A 1_555 1_555
H9A C2A 1_555 1_555
H10A C3A 1_555 1_555
O7A Cd1 1_555 1_555
H5A O7A 1_555 1_555
H6A O7A 1_555 1_555
O4A C12A 1_555 1_555
N1A Cd1 1_555 1_555
N2A H7A 1_555 1_555
H8A N2A 1_555 1_555
C7A N1A 1_555 1_555
H13A C7A 1_555 1_555
C8A C7A 1_555 1_555
H14A C8A 1_555 1_555
C9A C8A 1_555 1_555
C10A C9A 1_555 1_555
H15A C10A 1_555 1_555
C11A N1A 1_555 1_555
H16A C11A 1_555 1_555
C12A N2A 1_555 1_555
O1A_2 Cd1 1_555 1_555
Cd1_2 O1A 1_555 1_555
C5 C6 1_555 1_555
C9 C12 1_555 1_555
C10 C11 1_555 1_555
C6A C5A 1_555 1_555
C9A C12A 1_555 1_555
C10A C11A 1_555 1_555

#END
