
#######################################################################
#
#                 Cambridge Crystallographic Data Centre
#                                CCDC 
#
#######################################################################
#
# If this CIF has been generated from an entry in the Cambridge 
# Structural Database, then it will include bibliographic, chemical, 
# crystal, experimental, refinement or atomic coordinate data resulting 
# from the CCDC's data processing and validation procedures.
#
#######################################################################

data_UGOYIY
_symmetry_cell_setting           orthorhombic
_symmetry_space_group_name_H-M   'P b c n'
_symmetry_Int_Tables_number      60
_space_group_name_Hall           '-P 2n 2ab'
loop_
_symmetry_equiv_pos_site_id
_symmetry_equiv_pos_as_xyz
1 x,y,z
2 1/2+x,1/2+y,1/2-z
3 x,-y,1/2+z
4 1/2-x,1/2+y,z
5 -x,-y,-z
6 1/2-x,1/2-y,1/2+z
7 -x,y,1/2-z
8 1/2+x,1/2-y,-z
_cell_length_a                   27.904(8)
_cell_length_b                   11.640(3)
_cell_length_c                   7.546(2)
_cell_angle_alpha                90
_cell_angle_beta                 90
_cell_angle_gamma                90
_cell_volume                     2450.96
loop_
_atom_site_label
_atom_site_type_symbol
_atom_site_fract_x
_atom_site_fract_y
_atom_site_fract_z
Cd1 Cd 0.5000 0.346212(19) 0.2500
P1 P 0.569000(19) 0.40833(5) -0.11431(7)
O1 O 0.55112(6) 0.32579(14) 0.0226(2)
O2 O 0.55865(6) 0.35570(14) -0.3018(2)
O3 O 0.55064(5) 0.53050(14) -0.1010(2)
N1 N 0.95113(6) 0.29646(17) -0.1160(3)
C1 C 0.63369(8) 0.4131(2) -0.0948(3)
C2 C 0.66118(9) 0.3153(2) -0.1293(4)
H1 H 0.6460 0.2473 -0.1663
C3 C 0.71059(9) 0.3172(2) -0.1097(4)
H2 H 0.7285 0.2508 -0.1348
C4 C 0.73401(8) 0.4166(2) -0.0531(3)
C5 C 0.70643(8) 0.5135(2) -0.0172(3)
H3 H 0.7215 0.5809 0.0228
C6 C 0.65688(8) 0.5121(2) -0.0395(3)
H4 H 0.6390 0.5789 -0.0169
C7 C 0.78608(8) 0.4243(2) -0.0269(4)
H5 H 0.7970 0.4865 0.0415
C8 C 0.81965(8) 0.3535(2) -0.0888(3)
H6 H 0.8096 0.2928 -0.1622
C9 C 0.87120(8) 0.3627(2) -0.0516(3)
C10 C 0.89010(9) 0.4343(2) 0.0792(4)
H7 H 0.8697 0.4817 0.1460
C11 C 0.93893(9) 0.4355(2) 0.1107(4)
H8 H 0.9521 0.4841 0.1975
C12 C 0.96809(8) 0.3636(2) 0.0119(3)
H9 H 1.0011 0.3623 0.0362
C13 C 0.90371(8) 0.2964(2) -0.1470(3)
H10 H 0.8919 0.2491 -0.2380
P1F P 0.431000(19) 0.40833(5) 0.61431(7)
O1F O 0.44888(6) 0.32579(14) 0.4774(2)
O2F O 0.44135(6) 0.35570(14) 0.8018(2)
O3F O 0.44936(5) 0.53050(14) 0.6010(2)
N1F N 0.04887(6) 0.29646(17) 0.6160(3)
C1F C 0.36631(8) 0.4131(2) 0.5948(3)
C2F C 0.33882(9) 0.3153(2) 0.6293(4)
H1F H 0.3540 0.2473 0.6663
C3F C 0.28941(9) 0.3172(2) 0.6097(4)
H2F H 0.2715 0.2508 0.6348
C4F C 0.26599(8) 0.4166(2) 0.5531(3)
C5F C 0.29357(8) 0.5135(2) 0.5172(3)
H3F H 0.2785 0.5809 0.4772
C6F C 0.34312(8) 0.5121(2) 0.5395(3)
H4F H 0.3610 0.5789 0.5169
C7F C 0.21392(8) 0.4243(2) 0.5269(4)
H5F H 0.2030 0.4865 0.4585
C8F C 0.18035(8) 0.3535(2) 0.5888(3)
H6F H 0.1904 0.2928 0.6622
C9F C 0.12880(8) 0.3627(2) 0.5516(3)
C10F C 0.10990(9) 0.4343(2) 0.4208(4)
H7F H 0.1303 0.4817 0.3540
C11F C 0.06107(9) 0.4355(2) 0.3893(4)
H8F H 0.0479 0.4841 0.3025
C12F C 0.03191(8) 0.3636(2) 0.4881(3)
H9F H -0.0011 0.3623 0.4638
C13F C 0.09629(8) 0.2964(2) 0.6470(3)
H10F H 0.1081 0.2491 0.7380
O3B O 0.55064(5) 0.46950(14) 0.3990(2)
O3D O 0.44936(5) 0.46950(14) 0.1010(2)
N1E N 0.54887(6) 0.20354(17) 0.3840(3)
N1G N 0.45113(6) 0.20354(17) 0.1160(3)
Cd1B Cd 0.5000 0.653788(19) -0.2500
Cd1E Cd 1.0000 0.153788(19) -0.2500
Cd1B_2 Cd 0.5000 0.653788(19) 0.7500
Cd1E_2 Cd 0.0000 0.153788(19) 0.7500
loop_
_geom_bond_atom_site_label_1
_geom_bond_atom_site_label_2
_geom_bond_site_symmetry_1
_geom_bond_site_symmetry_2
Cd1 O1 1_555 1_555
P1 O1 1_555 1_555
O2 P1 1_555 1_555
O3 P1 1_555 1_555
N1 C12 1_555 1_555
C1 P1 1_555 1_555
C2 C1 1_555 1_555
H1 C2 1_555 1_555
C3 C2 1_555 1_555
H2 C3 1_555 1_555
C4 C3 1_555 1_555
C5 C4 1_555 1_555
H3 C5 1_555 1_555
C6 C1 1_555 1_555
H4 C6 1_555 1_555
C7 C4 1_555 1_555
H5 C7 1_555 1_555
C8 C7 1_555 1_555
H6 C8 1_555 1_555
C9 C8 1_555 1_555
C10 C9 1_555 1_555
H7 C10 1_555 1_555
C11 C10 1_555 1_555
H8 C11 1_555 1_555
C12 C11 1_555 1_555
H9 C12 1_555 1_555
C13 N1 1_555 1_555
H10 C13 1_555 1_555
P1F O1F 1_555 1_555
O1F Cd1 1_555 1_555
O2F P1F 1_555 1_555
O3F P1F 1_555 1_555
N1F C12F 1_555 1_555
C1F P1F 1_555 1_555
C2F C1F 1_555 1_555
H1F C2F 1_555 1_555
C3F C2F 1_555 1_555
H2F C3F 1_555 1_555
C4F C3F 1_555 1_555
C5F C4F 1_555 1_555
H3F C5F 1_555 1_555
C6F C1F 1_555 1_555
H4F C6F 1_555 1_555
C7F C4F 1_555 1_555
H5F C7F 1_555 1_555
C8F C7F 1_555 1_555
H6F C8F 1_555 1_555
C9F C8F 1_555 1_555
C10F C9F 1_555 1_555
H7F C10F 1_555 1_555
C11F C10F 1_555 1_555
H8F C11F 1_555 1_555
C12F C11F 1_555 1_555
H9F C12F 1_555 1_555
C13F N1F 1_555 1_555
H10F C13F 1_555 1_555
O3B Cd1 1_555 1_555
O3D Cd1 1_555 1_555
N1E Cd1 1_555 1_555
N1G Cd1 1_555 1_555
Cd1B O3 1_555 1_555
Cd1E N1 1_555 1_555
Cd1B_2 O3F 1_555 1_555
Cd1E_2 N1F 1_555 1_555
C5 C6 1_555 1_555
C9 C13 1_555 1_555
C5F C6F 1_555 1_555
C9F C13F 1_555 1_555

#END
