
#######################################################################
#
#                 Cambridge Crystallographic Data Centre
#                                CCDC 
#
#######################################################################
#
# If this CIF has been generated from an entry in the Cambridge 
# Structural Database, then it will include bibliographic, chemical, 
# crystal, experimental, refinement or atomic coordinate data resulting 
# from the CCDC's data processing and validation procedures.
#
#######################################################################

data_UGOYUL
_symmetry_cell_setting           triclinic
_symmetry_space_group_name_H-M   'P -1'
_symmetry_Int_Tables_number      2
_space_group_name_Hall           '-P 1'
loop_
_symmetry_equiv_pos_site_id
_symmetry_equiv_pos_as_xyz
1 x,y,z
2 -x,-y,-z
_cell_length_a                   9.373(5)
_cell_length_b                   11.673(5)
_cell_length_c                   13.808(5)
_cell_angle_alpha                75.243(5)
_cell_angle_beta                 75.941(5)
_cell_angle_gamma                71.844(5)
_cell_volume                     1366.01
loop_
_atom_site_label
_atom_site_type_symbol
_atom_site_fract_x
_atom_site_fract_y
_atom_site_fract_z
O1 O 0.4792(3) -0.0885(2) 0.77275(17)
Co1 Co 0.23117(3) 0.11824(3) 0.64024(2)
O2 O 0.29670(18) 0.08552(15) 0.78256(12)
N1 N 0.1348(2) 0.13435(18) 0.51094(15)
O3 O 0.3102(2) 0.30546(16) 0.86671(15)
O4 O 0.3370(2) -0.06033(15) 0.63036(14)
C1 C 0.4988(3) 0.4471(2) 0.42063(17)
O5 O 0.4639(3) 0.19224(17) 0.51468(17)
C2 C 0.4399(2) 0.3992(2) 0.52045(17)
C3 C 0.5601(3) 0.5462(2) 0.40125(18)
H1 H 0.6017 0.5766 0.3349
C4 C 0.3905(2) 0.1030(2) 0.96078(17)
C5 C 0.5602(3) -0.0969(2) 0.95085(18)
H2 H 0.6013 -0.1628 0.9173
C6 C 0.4514(2) 0.0044(2) 0.91039(17)
N2 N -0.0027(2) 0.16495(18) 0.69606(15)
C7 C 0.3354(3) 0.4183(2) 0.30823(19)
O6 O 0.2590(2) 0.28890(17) 0.60662(15)
C8 C 0.2730(3) 0.2198(2) 0.92707(18)
O7 O 0.6053(2) 0.3609(2) 0.27423(18)
C9 C 0.3846(3) 0.2851(2) 0.5475(2)
C10 C 0.1134(3) 0.2292(2) 0.98236(18)
C11 C 0.4054(3) 0.0006(2) 0.81377(18)
C12 C 0.4896(3) 0.4020(2) 0.32990(19)
C13 C -0.0188(3) 0.1620(2) 0.52693(19)
C14 C -0.0966(3) 0.1741(3) 0.4498(2)
H3 H -0.2027 0.1953 0.4617
C15 C -0.0651(3) 0.1838(3) 0.7906(2)
H4 H -0.0007 0.1767 0.8349
C16 C -0.0955(3) 0.1782(2) 0.63134(19)
C17 C 0.0670(3) 0.1272(3) 1.0395(2)
H5 H 0.1363 0.0500 1.0434
C18 C 0.0093(3) 0.3428(3) 0.9794(3)
H6 H 0.0379 0.4125 0.9407
C19 C -0.3144(3) 0.2228(3) 0.7607(2)
H7 H -0.4196 0.2408 0.7825
C20 C -0.2203(3) 0.2134(3) 0.8254(2)
H8 H -0.2599 0.2268 0.8914
C21 C -0.2523(3) 0.2053(3) 0.6629(2)
H9 H -0.3153 0.2116 0.6180
C22 C 0.3253(4) 0.3781(3) 0.2242(2)
H10 H 0.4134 0.3394 0.1841
C23 C 0.0615(4) 0.4934(3) 0.3413(3)
H11 H -0.0273 0.5326 0.3805
C24 C 0.2027(3) 0.4766(2) 0.3662(2)
H12 H 0.2080 0.5047 0.4222
C25 C -0.1377(4) 0.3535(3) 1.0336(3)
H13 H -0.2066 0.4307 1.0332
C26 C 0.2122(3) 0.1151(3) 0.4189(2)
H14 H 0.3182 0.0953 0.4079
C27 C -0.0810(3) 0.1389(3) 1.0907(2)
H15 H -0.1116 0.0692 1.1275
C28 C 0.1839(5) 0.3958(3) 0.2004(3)
H16 H 0.1775 0.3692 0.1440
C29 C 0.0532(4) 0.4520(4) 0.2589(3)
H17 H -0.0413 0.4622 0.2428
C30 C -0.1821(4) 0.2509(4) 1.0879(3)
H18 H -0.2818 0.2581 1.1229
C31 C 0.1418(4) 0.1232(3) 0.3398(2)
H19 H 0.1988 0.1081 0.2769
C32 C -0.0156(4) 0.1545(3) 0.3561(2)
H20 H -0.0663 0.1621 0.3037
O1A O 0.5208(3) 0.0885(2) 1.22725(17)
Co1A Co 0.76883(3) -0.11824(3) 1.35976(2)
Co1A_2 Co 0.76883(3) 0.88176(3) 0.35976(2)
O2A O 0.70330(18) -0.08552(15) 1.21744(12)
N1A N 0.8652(2) -0.13435(18) 1.48906(15)
O3A O 0.6898(2) -0.30546(16) 1.13329(15)
O4A O 0.6630(2) 0.06033(15) 1.36964(14)
C1A C 0.5012(3) 0.5529(2) 0.57937(17)
O5A O 0.5361(3) 0.80776(17) 0.48532(17)
C2A C 0.5601(2) 0.6008(2) 0.47955(17)
C3A C 0.4399(3) 0.4538(2) 0.59875(18)
H1A H 0.3983 0.4234 0.6651
C4A C 0.6095(2) -0.1030(2) 1.03922(17)
C5A C 0.4398(3) 0.0969(2) 1.04915(18)
H2A H 0.3987 0.1628 1.0827
C6A C 0.5486(2) -0.0044(2) 1.08961(17)
N2A N 1.0027(2) -0.16495(18) 1.30394(15)
C7A C 0.6646(3) 0.5817(2) 0.69177(19)
O6A O 0.7410(2) 0.71110(17) 0.39338(15)
O6A_2 O 0.7410(2) -0.28890(17) 1.39338(15)
C8A C 0.7270(3) -0.2198(2) 1.07293(18)
O7A O 0.3947(2) 0.6391(2) 0.72577(18)
C9A C 0.6154(3) 0.7149(2) 0.4525(2)
C10A C 0.8866(3) -0.2292(2) 1.01764(18)
C11A C 0.5946(3) -0.0006(2) 1.18623(18)
C12A C 0.5104(3) 0.5980(2) 0.67010(19)
C13A C 1.0188(3) -0.1620(2) 1.47307(19)
C14A C 1.0966(3) -0.1741(3) 1.5502(2)
H3A H 1.2027 -0.1953 1.5383
C15A C 1.0651(3) -0.1838(3) 1.2094(2)
H4A H 1.0007 -0.1767 1.1651
C16A C 1.0955(3) -0.1782(2) 1.36866(19)
C17A C 0.9330(3) -0.1272(3) 0.9605(2)
H5A H 0.8637 -0.0500 0.9566
C18A C 0.9907(3) -0.3428(3) 1.0206(3)
H6A H 0.9621 -0.4125 1.0593
C19A C 1.3144(3) -0.2228(3) 1.2393(2)
H7A H 1.4196 -0.2408 1.2175
C20A C 1.2203(3) -0.2134(3) 1.1746(2)
H8A H 1.2599 -0.2268 1.1086
C21A C 1.2523(3) -0.2053(3) 1.3371(2)
H9A H 1.3153 -0.2116 1.3820
C22A C 0.6747(4) 0.6219(3) 0.7758(2)
H10A H 0.5866 0.6606 0.8159
C23A C 0.9385(4) 0.5066(3) 0.6587(3)
H11A H 1.0273 0.4674 0.6195
C24A C 0.7973(3) 0.5234(2) 0.6338(2)
H12A H 0.7920 0.4953 0.5778
C25A C 1.1377(4) -0.3535(3) 0.9664(3)
H13A H 1.2066 -0.4307 0.9668
C26A C 0.7878(3) -0.1151(3) 1.5811(2)
H14A H 0.6818 -0.0953 1.5921
C27A C 1.0810(3) -0.1389(3) 0.9093(2)
H15A H 1.1116 -0.0692 0.8725
C28A C 0.8161(5) 0.6042(3) 0.7996(3)
H16A H 0.8225 0.6308 0.8560
C29A C 0.9468(4) 0.5480(4) 0.7411(3)
H17A H 1.0413 0.5378 0.7572
C30A C 1.1821(4) -0.2509(4) 0.9121(3)
H18A H 1.2818 -0.2581 0.8771
C31A C 0.8582(4) -0.1232(3) 1.6602(2)
H19A H 0.8012 -0.1081 1.7231
C32A C 1.0156(4) -0.1545(3) 1.6439(2)
H20A H 1.0663 -0.1621 1.6963
loop_
_geom_bond_atom_site_label_1
_geom_bond_atom_site_label_2
_geom_bond_site_symmetry_1
_geom_bond_site_symmetry_2
O1 C11 1_555 1_555
Co1 O2 1_555 1_555
O2 C11 1_555 1_555
N1 Co1 1_555 1_555
O3 C8 1_555 1_555
O4 Co1 1_555 1_555
C1 C2 1_555 1_555
O5 C9 1_555 1_555
C2 C9 1_555 1_555
C3 C1 1_555 1_555
H1 C3 1_555 1_555
C4 C6 1_555 1_555
C5 H2 1_555 1_555
C6 C5 1_555 1_555
N2 Co1 1_555 1_555
C7 C12 1_555 1_555
O6 Co1 1_555 1_555
C8 C4 1_555 1_555
O7 C12 1_555 1_555
C9 O6 1_555 1_555
C10 C8 1_555 1_555
C11 C6 1_555 1_555
C12 C1 1_555 1_555
C13 N1 1_555 1_555
C14 C13 1_555 1_555
H3 C14 1_555 1_555
C15 N2 1_555 1_555
H4 C15 1_555 1_555
C16 N2 1_555 1_555
C17 C10 1_555 1_555
H5 C17 1_555 1_555
C18 C10 1_555 1_555
H6 C18 1_555 1_555
C19 H7 1_555 1_555
C20 C15 1_555 1_555
H8 C20 1_555 1_555
C21 C16 1_555 1_555
H9 C21 1_555 1_555
C22 C7 1_555 1_555
H10 C22 1_555 1_555
C23 H11 1_555 1_555
C24 C7 1_555 1_555
H12 C24 1_555 1_555
C25 C18 1_555 1_555
H13 C25 1_555 1_555
C26 N1 1_555 1_555
H14 C26 1_555 1_555
C27 C17 1_555 1_555
H15 C27 1_555 1_555
C28 C22 1_555 1_555
H16 C28 1_555 1_555
C29 C23 1_555 1_555
H17 C29 1_555 1_555
C30 C25 1_555 1_555
H18 C30 1_555 1_555
C31 C26 1_555 1_555
H19 C31 1_555 1_555
C32 C14 1_555 1_555
H20 C32 1_555 1_555
O1A C11A 1_555 1_555
Co1A O2A 1_555 1_555
Co1A_2 O6A 1_555 1_555
O2A C11A 1_555 1_555
N1A Co1A 1_555 1_555
O3A C8A 1_555 1_555
O4A Co1A 1_555 1_555
C1A C2A 1_555 1_555
O5A C9A 1_555 1_555
C2A C3 1_555 1_555
C3A C2 1_555 1_555
H1A C3A 1_555 1_555
C4A C5 1_555 1_555
C5A C4 1_555 1_555
H2A C5A 1_555 1_555
C6A C4A 1_555 1_555
N2A Co1A 1_555 1_555
C7A C12A 1_555 1_555
O6A C9A 1_555 1_555
O6A_2 Co1A 1_555 1_555
C8A C4A 1_555 1_555
O7A C12A 1_555 1_555
C9A C2A 1_555 1_555
C10A C8A 1_555 1_555
C11A C6A 1_555 1_555
C12A C1A 1_555 1_555
C13A N1A 1_555 1_555
C14A C13A 1_555 1_555
H3A C14A 1_555 1_555
C15A N2A 1_555 1_555
H4A C15A 1_555 1_555
C16A N2A 1_555 1_555
C17A C10A 1_555 1_555
H5A C17A 1_555 1_555
C18A C10A 1_555 1_555
H6A C18A 1_555 1_555
C19A H7A 1_555 1_555
C20A C15A 1_555 1_555
H8A C20A 1_555 1_555
C21A C16A 1_555 1_555
H9A C21A 1_555 1_555
C22A C7A 1_555 1_555
H10A C22A 1_555 1_555
C23A H11A 1_555 1_555
C24A C7A 1_555 1_555
H12A C24A 1_555 1_555
C25A C18A 1_555 1_555
H13A C25A 1_555 1_555
C26A N1A 1_555 1_555
H14A C26A 1_555 1_555
C27A C17A 1_555 1_555
H15A C27A 1_555 1_555
C28A C22A 1_555 1_555
H16A C28A 1_555 1_555
C29A C23A 1_555 1_555
H17A C29A 1_555 1_555
C30A C25A 1_555 1_555
H18A C30A 1_555 1_555
C31A C26A 1_555 1_555
H19A C31A 1_555 1_555
C32A C14A 1_555 1_555
H20A C32A 1_555 1_555
C13 C16 1_555 1_555
C19 C20 1_555 1_555
C19 C21 1_555 1_555
C23 C24 1_555 1_555
C27 C30 1_555 1_555
C28 C29 1_555 1_555
C31 C32 1_555 1_555
C1A C3A 1_555 1_555
C5A C6A 1_555 1_555
C13A C16A 1_555 1_555
C19A C20A 1_555 1_555
C19A C21A 1_555 1_555
C23A C24A 1_555 1_555
C27A C30A 1_555 1_555
C28A C29A 1_555 1_555
C31A C32A 1_555 1_555

#END
