
#######################################################################
#
#                 Cambridge Crystallographic Data Centre
#                                CCDC 
#
#######################################################################
#
# If this CIF has been generated from an entry in the Cambridge 
# Structural Database, then it will include bibliographic, chemical, 
# crystal, experimental, refinement or atomic coordinate data resulting 
# from the CCDC's data processing and validation procedures.
#
#######################################################################

data_UGOZIA
_symmetry_cell_setting           monoclinic
_symmetry_space_group_name_H-M   'P 21/c'
_symmetry_Int_Tables_number      14
_space_group_name_Hall           '-P 2ybc'
loop_
_symmetry_equiv_pos_site_id
_symmetry_equiv_pos_as_xyz
1 x,y,z
2 -x,1/2+y,1/2-z
3 -x,-y,-z
4 x,1/2-y,1/2+z
_cell_length_a                   13.9956(8)
_cell_length_b                   20.7637(12)
_cell_length_c                   10.2864(6)
_cell_angle_alpha                90
_cell_angle_beta                 110.7600(10)
_cell_angle_gamma                90
_cell_volume                     2795.15
loop_
_atom_site_label
_atom_site_type_symbol
_atom_site_fract_x
_atom_site_fract_y
_atom_site_fract_z
Ni1 Ni 0.24001(2) 0.393007(13) 0.25969(3)
O1 O 0.13193(12) 0.38401(7) 0.35757(15)
O2 O 0.35416(12) 0.41148(8) 0.45022(15)
H1 H 0.3983 0.4342 0.4383
O3 O 0.16091(12) 0.47919(7) 0.28488(15)
O4 O 0.69064(12) 0.50826(8) 0.35415(16)
N1 N 0.13810(13) 0.36569(9) 0.07046(18)
O5 O 0.32619(11) 0.42642(8) 0.15242(15)
O6 O 0.45183(13) 0.47705(9) 0.31988(17)
N2 N 0.27666(14) 0.29776(9) 0.26096(18)
O7 O -0.06651(15) 0.32885(8) 0.43626(18)
C1 C 0.45573(16) 0.47762(10) 0.0937(2)
C2 C -0.02792(16) 0.43977(10) 0.4375(2)
C3 C 0.60503(16) 0.50895(11) 0.0433(2)
H2 H 0.6753 0.5153 0.0725
C4 C 0.05360(16) 0.47365(10) 0.4215(2)
C5 C 0.11809(16) 0.44426(10) 0.3485(2)
C6 C 0.56185(16) 0.48616(10) 0.1369(2)
C7 C 0.15022(17) 0.30480(11) 0.0328(2)
C8 C 0.34105(19) 0.26535(12) 0.3687(3)
H3 H 0.3795 0.2880 0.4480
C9 C 0.63110(16) 0.46856(11) 0.2814(2)
C10 C 0.08052(16) 0.53346(10) 0.4839(2)
H4 H 0.1346 0.5560 0.4729
C11 C -0.10721(17) 0.37501(11) 0.2123(2)
C12 C 0.62945(18) 0.40091(12) 0.3274(3)
C13 C 0.22101(17) 0.26482(11) 0.1453(2)
C14 C 0.40751(16) 0.45859(10) 0.1981(2)
C15 C 0.0239(2) 0.38713(13) -0.1602(3)
H5 H -0.0195 0.4157 -0.2236
C16 C -0.06551(17) 0.37630(11) 0.3672(2)
C17 C -0.1192(2) 0.31645(12) 0.1432(3)
H6 H -0.1013 0.2785 0.1942
C18 C 0.07506(19) 0.40544(12) -0.0236(3)
H7 H 0.0652 0.4469 0.0037
C19 C -0.1574(2) 0.31380(14) -0.0003(3)
H8 H -0.1628 0.2745 -0.0458
C20 C 0.2298(2) 0.19865(12) 0.1368(3)
H9 H 0.1913 0.1767 0.0566
C21 C 0.10066(19) 0.28305(13) -0.1025(2)
H10 H 0.1088 0.2408 -0.1269
C22 C -0.13683(17) 0.43122(11) 0.1344(2)
H11 H -0.1288 0.4708 0.1794
C23 C 0.0389(2) 0.32570(14) -0.2001(3)
H12 H 0.0076 0.3129 -0.2922
C24 C 0.6619(2) 0.38700(14) 0.4690(3)
H13 H 0.6859 0.4198 0.5341
C25 C 0.2964(2) 0.16576(13) 0.2486(3)
H14 H 0.3033 0.1213 0.2444
C26 C -0.1874(2) 0.36972(15) -0.0756(3)
H15 H -0.2142 0.3679 -0.1721
C27 C -0.1782(2) 0.42861(13) -0.0095(3)
H16 H -0.1996 0.4661 -0.0611
C28 C 0.3525(2) 0.19908(13) 0.3665(3)
H17 H 0.3973 0.1776 0.4432
C29 C 0.5941(2) 0.35098(13) 0.2315(3)
H18 H 0.5727 0.3598 0.1369
C30 C 0.6221(3) 0.27543(15) 0.4169(4)
H19 H 0.6189 0.2336 0.4472
C31 C 0.6584(3) 0.32417(17) 0.5124(3)
H20 H 0.6807 0.3149 0.6069
C32 C 0.5904(3) 0.28848(14) 0.2761(4)
H21 H 0.5668 0.2554 0.2117
Ni1B Ni -0.24001(2) 0.606993(13) 0.74031(3)
Ni1B_2 Ni 0.75999(2) 0.606993(13) -0.25969(3)
O1B O -0.13193(12) 0.61599(7) 0.64243(15)
O2B O -0.35416(12) 0.58852(8) 0.54978(15)
H1B H -0.3983 0.5658 0.5617
O3B O -0.16091(12) 0.52081(7) 0.71512(15)
O4B O 0.30936(12) 0.49174(8) -0.35415(16)
N1B N -0.13810(13) 0.63431(9) 0.92954(18)
O5B O 0.67381(11) 0.57358(8) -0.15242(15)
O5B_2 O -0.32619(11) 0.57358(8) 0.84758(15)
O6B O 0.54817(13) 0.52295(9) -0.31988(17)
N2B N -0.27666(14) 0.70224(9) 0.73904(18)
O7B O 0.06651(15) 0.67115(8) 0.56374(18)
C1B C 0.54427(16) 0.52238(10) -0.0937(2)
C2B C 0.02792(16) 0.56023(10) 0.5625(2)
C3B C 0.39497(16) 0.49105(11) -0.0433(2)
H2B H 0.3247 0.4847 -0.0725
C4B C -0.05360(16) 0.52635(10) 0.5785(2)
C5B C -0.11809(16) 0.55574(10) 0.6515(2)
C6B C 0.43815(16) 0.51384(10) -0.1369(2)
C7B C -0.15022(17) 0.69520(11) 0.9672(2)
C8B C -0.34105(19) 0.73465(12) 0.6313(3)
H3B H -0.3795 0.7120 0.5520
C9B C 0.36890(16) 0.53144(11) -0.2814(2)
C10B C -0.08052(16) 0.46654(10) 0.5161(2)
H4B H -0.1346 0.4440 0.5271
C11B C 0.10721(17) 0.62499(11) 0.7877(2)
C12B C 0.37055(18) 0.59909(12) -0.3274(3)
C13B C -0.22101(17) 0.73518(11) 0.8547(2)
C14B C 0.59249(16) 0.54141(10) -0.1981(2)
C15B C -0.0239(2) 0.61287(13) 1.1602(3)
H5B H 0.0195 0.5843 1.2236
C16B C 0.06551(17) 0.62370(11) 0.6328(2)
C17B C 0.1192(2) 0.68355(12) 0.8568(3)
H6B H 0.1013 0.7215 0.8058
C18B C -0.07506(19) 0.59456(12) 1.0236(3)
H7B H -0.0652 0.5531 0.9963
C19B C 0.1574(2) 0.68620(14) 1.0003(3)
H8B H 0.1628 0.7255 1.0458
C20B C -0.2298(2) 0.80135(12) 0.8632(3)
H9B H -0.1913 0.8233 0.9434
C21B C -0.10066(19) 0.71695(13) 1.1025(2)
H10B H -0.1088 0.7592 1.1269
C22B C 0.13683(17) 0.56878(11) 0.8656(2)
H11B H 0.1288 0.5292 0.8206
C23B C -0.0389(2) 0.67430(14) 1.2001(3)
H12B H -0.0076 0.6871 1.2922
C24B C 0.3381(2) 0.61300(14) -0.4690(3)
H13B H 0.3141 0.5802 -0.5341
C25B C -0.2964(2) 0.83424(13) 0.7514(3)
H14B H -0.3033 0.8787 0.7556
C26B C 0.1874(2) 0.63028(15) 1.0756(3)
H15B H 0.2142 0.6321 1.1721
C27B C 0.1782(2) 0.57139(13) 1.0095(3)
H16B H 0.1996 0.5339 1.0611
C28B C -0.3525(2) 0.80092(13) 0.6335(3)
H17B H -0.3973 0.8224 0.5568
C29B C 0.4059(2) 0.64902(13) -0.2315(3)
H18B H 0.4273 0.6402 -0.1369
C30B C 0.3779(3) 0.72457(15) -0.4169(4)
H19B H 0.3811 0.7664 -0.4472
C31B C 0.3416(3) 0.67583(17) -0.5124(3)
H20B H 0.3193 0.6851 -0.6069
C32B C 0.4096(3) 0.71152(14) -0.2761(4)
H21B H 0.4332 0.7446 -0.2117
O8 O 0.5315(5) 0.3763(3) 0.7213(7)
loop_
_geom_bond_atom_site_label_1
_geom_bond_atom_site_label_2
_geom_bond_site_symmetry_1
_geom_bond_site_symmetry_2
Ni1 O1 1_555 1_555
O1 C5 1_555 1_555
O2 Ni1 1_555 1_555
H1 O2 1_555 1_555
O3 Ni1 1_555 1_555
O4 C9 1_555 1_555
N1 Ni1 1_555 1_555
O5 Ni1 1_555 1_555
O6 C14 1_555 1_555
N2 Ni1 1_555 1_555
O7 C16 1_555 1_555
C1 C6 1_555 1_555
C2 C4 1_555 1_555
C3 H2 1_555 1_555
C4 C5 1_555 1_555
C5 O3 1_555 1_555
C6 C3 1_555 1_555
C7 N1 1_555 1_555
C8 N2 1_555 1_555
H3 C8 1_555 1_555
C9 C6 1_555 1_555
C10 C4 1_555 1_555
H4 C10 1_555 1_555
C11 C16 1_555 1_555
C12 C9 1_555 1_555
C13 N2 1_555 1_555
C14 O5 1_555 1_555
C15 H5 1_555 1_555
C16 C2 1_555 1_555
C17 C11 1_555 1_555
H6 C17 1_555 1_555
C18 N1 1_555 1_555
H7 C18 1_555 1_555
C19 C17 1_555 1_555
H8 C19 1_555 1_555
C20 C13 1_555 1_555
H9 C20 1_555 1_555
C21 C7 1_555 1_555
H10 C21 1_555 1_555
C22 C11 1_555 1_555
H11 C22 1_555 1_555
C23 C15 1_555 1_555
H12 C23 1_555 1_555
C24 C12 1_555 1_555
H13 C24 1_555 1_555
C25 C20 1_555 1_555
H14 C25 1_555 1_555
C26 C19 1_555 1_555
H15 C26 1_555 1_555
C27 C22 1_555 1_555
H16 C27 1_555 1_555
C28 C8 1_555 1_555
H17 C28 1_555 1_555
C29 C12 1_555 1_555
H18 C29 1_555 1_555
C30 H19 1_555 1_555
C31 C24 1_555 1_555
H20 C31 1_555 1_555
C32 C29 1_555 1_555
H21 C32 1_555 1_555
Ni1B O1B 1_555 1_555
Ni1B_2 O5B 1_555 1_555
O1B C5B 1_555 1_555
O2B Ni1B 1_555 1_555
H1B O2B 1_555 1_555
O3B Ni1B 1_555 1_555
O4B C9B 1_555 1_555
N1B Ni1B 1_555 1_555
O5B C14B 1_555 1_555
O5B_2 Ni1B 1_555 1_555
O6B C14B 1_555 1_555
N2B Ni1B 1_555 1_555
O7B C16B 1_555 1_555
C1B C3 1_555 1_555
C2B C10 1_555 1_555
C3B C1 1_555 1_555
H2B C3B 1_555 1_555
C4B C2B 1_555 1_555
C5B O3B 1_555 1_555
C6B C1B 1_555 1_555
C7B N1B 1_555 1_555
C8B N2B 1_555 1_555
H3B C8B 1_555 1_555
C9B C6B 1_555 1_555
C10B C2 1_555 1_555
H4B C10B 1_555 1_555
C11B C16B 1_555 1_555
C12B C9B 1_555 1_555
C13B N2B 1_555 1_555
C14B C1B 1_555 1_555
C15B H5B 1_555 1_555
C16B C2B 1_555 1_555
C17B C11B 1_555 1_555
H6B C17B 1_555 1_555
C18B N1B 1_555 1_555
H7B C18B 1_555 1_555
C19B C17B 1_555 1_555
H8B C19B 1_555 1_555
C20B C13B 1_555 1_555
H9B C20B 1_555 1_555
C21B C7B 1_555 1_555
H10B C21B 1_555 1_555
C22B C11B 1_555 1_555
H11B C22B 1_555 1_555
C23B C15B 1_555 1_555
H12B C23B 1_555 1_555
C24B C12B 1_555 1_555
H13B C24B 1_555 1_555
C25B C20B 1_555 1_555
H14B C25B 1_555 1_555
C26B C19B 1_555 1_555
H15B C26B 1_555 1_555
C27B C22B 1_555 1_555
H16B C27B 1_555 1_555
C28B C8B 1_555 1_555
H17B C28B 1_555 1_555
C29B C12B 1_555 1_555
H18B C29B 1_555 1_555
C30B H19B 1_555 1_555
C31B C24B 1_555 1_555
H20B C31B 1_555 1_555
C32B C29B 1_555 1_555
H21B C32B 1_555 1_555
C1 C14 1_555 1_555
C7 C13 1_555 1_555
C15 C18 1_555 1_555
C21 C23 1_555 1_555
C25 C28 1_555 1_555
C26 C27 1_555 1_555
C30 C31 1_555 1_555
C30 C32 1_555 1_555
C3B C6B 1_555 1_555
C4B C5B 1_555 1_555
C4B C10B 1_555 1_555
C7B C13B 1_555 1_555
C15B C18B 1_555 1_555
C21B C23B 1_555 1_555
C25B C28B 1_555 1_555
C26B C27B 1_555 1_555
C30B C31B 1_555 1_555
C30B C32B 1_555 1_555

#END
