
#######################################################################
#
#                 Cambridge Crystallographic Data Centre
#                                CCDC 
#
#######################################################################
#
# If this CIF has been generated from an entry in the Cambridge 
# Structural Database, then it will include bibliographic, chemical, 
# crystal, experimental, refinement or atomic coordinate data resulting 
# from the CCDC's data processing and validation procedures.
#
#######################################################################

data_UGOZAS
_symmetry_cell_setting           monoclinic
_symmetry_space_group_name_H-M   'P 21/c'
_symmetry_Int_Tables_number      14
_space_group_name_Hall           '-P 2ybc'
loop_
_symmetry_equiv_pos_site_id
_symmetry_equiv_pos_as_xyz
1 x,y,z
2 -x,1/2+y,1/2-z
3 -x,-y,-z
4 x,1/2-y,1/2+z
_cell_length_a                   16.0141(9)
_cell_length_b                   17.5279(10)
_cell_length_c                   22.2579(13)
_cell_angle_alpha                90
_cell_angle_beta                 102.5850(10)
_cell_angle_gamma                90
_cell_volume                     6097.54
loop_
_atom_site_label
_atom_site_type_symbol
_atom_site_fract_x
_atom_site_fract_y
_atom_site_fract_z
Co1 Co 0.25270(2) 0.90306(2) 0.162786(17)
Co2 Co -0.23571(2) 0.58719(2) -0.050552(17)
O1 O 0.18353(11) 0.85910(11) 0.08332(8)
O2 O 0.31936(12) 0.79819(11) 0.20751(9)
N1 N 0.35096(14) 0.93765(14) 0.11984(10)
O3 O 0.34361(12) 0.91232(12) 0.24761(9)
O4 O -0.14933(11) 0.64301(10) -0.10649(9)
O5 O 0.64425(12) 0.91151(13) 0.38650(10)
O6 O -0.12910(11) 0.64446(11) -0.00600(9)
O7 O 0.15677(12) 0.87950(14) 0.21283(9)
H1 H 0.1152 0.8602 0.1898
C1 C 0.2782(3) 0.3896(2) 0.2697(2)
H2 H 0.2438 0.3646 0.2942
H3 H 0.3349 0.3685 0.2791
H4 H 0.2531 0.3819 0.2269
N2 N -0.21022(15) 0.47691(13) -0.07427(12)
O8 O 0.67238(11) 0.82334(11) 0.45694(9)
C2 C 0.54690(17) 0.74304(17) 0.48856(13)
C3 C 0.48623(16) 0.84259(16) 0.33351(12)
H5 H 0.5069 0.8805 0.3114
O9 O 0.57809(14) 0.67986(12) 0.49803(10)
O10 O 0.22728(12) 0.75292(12) 0.30881(10)
C4 C 0.53479(16) 0.82029(15) 0.39003(12)
C5 C 0.09024(16) 0.75896(15) -0.08967(13)
H6 H 0.1195 0.7623 -0.1214
N3 N -0.25947(14) 0.52598(15) 0.02406(12)
C6 C 0.01701(16) 0.71354(15) -0.09761(12)
C7 C 0.35394(17) 0.84127(18) 0.25052(13)
C8 C 0.00568(16) 0.58954(16) -0.16143(14)
C9 C 0.50283(16) 0.76570(15) 0.42426(12)
C10 C 0.37795(16) 0.75116(15) 0.34133(12)
C11 C 0.10858(18) 0.83164(16) 0.07370(13)
C12 C 0.40748(16) 0.80969(15) 0.30916(12)
C13 C 0.07753(16) 0.79361(15) 0.01218(12)
C14 C -0.10610(17) 0.66208(15) -0.05499(15)
O11 O -0.03551(16) 0.71068(12) -0.20472(10)
C15 C 0.00517(16) 0.74752(15) 0.00416(13)
H7 H -0.0232 0.7430 0.0363
C16 C 0.29223(18) 0.71430(17) 0.31814(12)
C17 C 0.12043(16) 0.79913(15) -0.03573(12)
N4 N 0.23093(17) 1.02039(15) 0.15219(12)
C18 C -0.02591(16) 0.70835(15) -0.04978(13)
C19 C 0.62228(17) 0.85411(17) 0.41291(14)
C20 C -0.00948(17) 0.67289(17) -0.15897(14)
C21 C 0.42586(16) 0.73057(15) 0.39884(13)
H8 H 0.4057 0.6922 0.4208
C22 C 0.28999(19) 0.63092(17) 0.30868(13)
O12 O 0.06049(12) 0.83279(14) 0.11008(10)
C23 C 0.54239(18) 0.79569(17) 0.53992(14)
C24 C -0.23487(18) 0.42296(18) -0.03927(17)
C25 C -0.25262(17) 0.44954(19) 0.01919(17)
C26 C 0.2897(2) 1.05950(18) 0.12975(15)
C27 C 0.5859(2) 0.7764(2) 0.59879(16)
H9 H 0.6198 0.7328 0.6050
C28 C -0.00525(19) 0.55440(19) -0.21807(15)
H10 H -0.0216 0.5830 -0.2539
C29 C 0.03119(18) 0.54533(18) -0.10901(15)
H11 H 0.0404 0.5681 -0.0704
C30 C 0.41038(19) 0.89223(19) 0.10570(14)
H12 H 0.4044 0.8398 0.1094
C31 C -0.2426(2) 0.3466(2) -0.0587(2)
H13 H -0.2601 0.3090 -0.0347
C32 C 0.4803(2) 0.9193(3) 0.08581(17)
H14 H 0.5203 0.8859 0.0758
C33 C -0.1895(2) 0.4572(2) -0.12734(16)
H15 H -0.1715 0.4952 -0.1508
C34 C 0.2162(2) 0.5898(2) 0.30885(15)
H16 H 0.1681 0.6146 0.3162
C35 C 0.0431(2) 0.4675(2) -0.11375(18)
H17 H 0.0592 0.4386 -0.0780
C36 C 0.4933(2) 0.8608(2) 0.53179(17)
H18 H 0.4644 0.8752 0.4925
C37 C 0.3593(2) 1.01292(18) 0.11432(13)
C38 C -0.2723(2) 0.5556(2) 0.07581(18)
H19 H -0.2782 0.6082 0.0786
C39 C 0.3555(3) 0.5148(2) 0.28455(19)
H20 H 0.4031 0.4900 0.2765
C40 C 0.3597(2) 0.5921(2) 0.29710(18)
H21 H 0.4103 0.6183 0.2978
C41 C -0.2576(2) 0.4021(2) 0.0676(2)
H22 H -0.2528 0.3495 0.0638
C42 C 0.0082(2) 0.4761(2) -0.22177(19)
H23 H 0.0009 0.4533 -0.2603
C43 C 0.2824(3) 0.4744(2) 0.28387(18)
C44 C 0.4895(3) 0.9955(3) 0.08122(19)
H24 H 0.5369 1.0152 0.0687
C45 C 0.5290(3) 0.8860(3) 0.6403(2)
C46 C 0.1673(3) 1.0581(2) 0.1687(2)
H25 H 0.1271 1.0309 0.1846
C47 C 0.4294(3) 1.0435(2) 0.09493(16)
H26 H 0.4350 1.0960 0.0914
C48 C 0.4869(3) 0.9049(2) 0.5821(2)
H27 H 0.4530 0.9486 0.5761
C49 C -0.1935(3) 0.3842(3) -0.1485(2)
H28 H -0.1765 0.3720 -0.1847
C50 C 0.0319(2) 0.4321(2) -0.1698(2)
C51 C 0.1592(4) 1.1367(3) 0.1629(3)
H29 H 0.1144 1.1623 0.1747
C52 C -0.2774(3) 0.5104(3) 0.1266(2)
H30 H -0.2857 0.5320 0.1630
C53 C 0.5217(4) 0.9324(3) 0.6961(2)
H31 H 0.5712 0.9643 0.7080
H32 H 0.5179 0.8987 0.7295
H33 H 0.4713 0.9636 0.6864
C54 C 0.2138(3) 0.5128(2) 0.29820(17)
H34 H 0.1648 0.4856 0.3007
C55 C 0.5792(3) 0.8213(3) 0.64817(18)
H35 H 0.6089 0.8079 0.6874
C56 C -0.2697(3) 0.4327(3) 0.1208(3)
H36 H -0.2728 0.4010 0.1537
C57 C 0.2184(4) 1.1755(3) 0.1395(3)
H37 H 0.2143 1.2282 0.1351
C58 C -0.2233(3) 0.3291(2) -0.1146(2)
H38 H -0.2306 0.2794 -0.1296
C59 C 0.2840(3) 1.1372(2) 0.1223(2)
H39 H 0.3242 1.1635 0.1058
O13 O 0.26828(12) 0.81190(11) -0.03018(10)
C60 C 0.20110(17) 0.84551(16) -0.03265(12)
C61 C 0.26867(18) 0.97156(17) -0.03660(13)
H40 H 0.3214 0.9470 -0.0290
C62 C 0.19466(17) 0.92924(16) -0.03944(13)
C63 C 0.1175(2) 0.96737(19) -0.05085(17)
H41 H 0.0669 0.9403 -0.0532
C64 C 0.0448(3) 0.3461(2) -0.1740(2)
H42 H 0.0247 0.3297 -0.2158
H43 H 0.0133 0.3202 -0.1480
H44 H 0.1045 0.3343 -0.1608
C65 C 0.2650(2) 1.04913(18) -0.04486(15)
H45 H 0.3154 1.0764 -0.0427
C66 C 0.1884(2) 1.08725(19) -0.05628(18)
C67 C 0.1148(2) 1.0456(2) -0.0589(2)
H46 H 0.0623 1.0705 -0.0662
C68 C 0.1851(3) 1.1727(2) -0.0658(2)
H47 H 0.1382 1.1853 -0.0993
H48 H 0.2377 1.1898 -0.0753
H49 H 0.1772 1.1974 -0.0290
Co2C Co 0.76429(2) 0.91281(2) 0.449448(17)
O5C O -0.35575(12) 0.58849(13) -0.11350(10)
O8C O -0.32762(11) 0.67666(11) -0.04306(9)
loop_
_geom_bond_atom_site_label_1
_geom_bond_atom_site_label_2
_geom_bond_site_symmetry_1
_geom_bond_site_symmetry_2
Co1 O1 1_555 1_555
Co2 O4 1_555 1_555
O1 C11 1_555 1_555
O2 Co1 1_555 1_555
N1 Co1 1_555 1_555
O3 Co1 1_555 1_555
O4 C14 1_555 1_555
O5 C19 1_555 1_555
O6 Co2 1_555 1_555
O7 Co1 1_555 1_555
H1 O7 1_555 1_555
C1 H2 1_555 1_555
H3 C1 1_555 1_555
H4 C1 1_555 1_555
N2 Co2 1_555 1_555
O8 C19 1_555 1_555
C2 O9 1_555 1_555
C3 H5 1_555 1_555
O10 C16 1_555 1_555
C4 C3 1_555 1_555
C5 H6 1_555 1_555
N3 Co2 1_555 1_555
C6 C5 1_555 1_555
C7 O2 1_555 1_555
C8 C20 1_555 1_555
C9 C2 1_555 1_555
C10 C12 1_555 1_555
C11 C13 1_555 1_555
C12 C3 1_555 1_555
C13 C15 1_555 1_555
C14 O6 1_555 1_555
O11 C20 1_555 1_555
C15 H7 1_555 1_555
C16 C10 1_555 1_555
C17 C5 1_555 1_555
N4 Co1 1_555 1_555
C18 C6 1_555 1_555
C19 C4 1_555 1_555
C20 C6 1_555 1_555
C21 C9 1_555 1_555
H8 C21 1_555 1_555
C22 C16 1_555 1_555
O12 C11 1_555 1_555
C23 C2 1_555 1_555
C24 N2 1_555 1_555
C25 N3 1_555 1_555
C26 N4 1_555 1_555
C27 C23 1_555 1_555
H9 C27 1_555 1_555
C28 C8 1_555 1_555
H10 C28 1_555 1_555
C29 C8 1_555 1_555
H11 C29 1_555 1_555
C30 N1 1_555 1_555
H12 C30 1_555 1_555
C31 C24 1_555 1_555
H13 C31 1_555 1_555
C32 C30 1_555 1_555
H14 C32 1_555 1_555
C33 N2 1_555 1_555
H15 C33 1_555 1_555
C34 C22 1_555 1_555
H16 C34 1_555 1_555
C35 C29 1_555 1_555
H17 C35 1_555 1_555
C36 C23 1_555 1_555
H18 C36 1_555 1_555
C37 N1 1_555 1_555
C38 N3 1_555 1_555
H19 C38 1_555 1_555
C39 H20 1_555 1_555
C40 C22 1_555 1_555
H21 C40 1_555 1_555
C41 C25 1_555 1_555
H22 C41 1_555 1_555
C42 C28 1_555 1_555
H23 C42 1_555 1_555
C43 C1 1_555 1_555
C44 C32 1_555 1_555
H24 C44 1_555 1_555
C45 C48 1_555 1_555
C46 N4 1_555 1_555
H25 C46 1_555 1_555
C47 C37 1_555 1_555
H26 C47 1_555 1_555
C48 C36 1_555 1_555
H27 C48 1_555 1_555
C49 C33 1_555 1_555
H28 C49 1_555 1_555
C50 C35 1_555 1_555
C51 C46 1_555 1_555
H29 C51 1_555 1_555
C52 C38 1_555 1_555
H30 C52 1_555 1_555
C53 C45 1_555 1_555
H31 C53 1_555 1_555
H32 C53 1_555 1_555
H33 C53 1_555 1_555
C54 C34 1_555 1_555
H34 C54 1_555 1_555
C55 C27 1_555 1_555
H35 C55 1_555 1_555
C56 C41 1_555 1_555
H36 C56 1_555 1_555
C57 C51 1_555 1_555
H37 C57 1_555 1_555
C58 C31 1_555 1_555
H38 C58 1_555 1_555
C59 C26 1_555 1_555
H39 C59 1_555 1_555
O13 C60 1_555 1_555
C60 C17 1_555 1_555
C61 H40 1_555 1_555
C62 C60 1_555 1_555
C63 C62 1_555 1_555
H41 C63 1_555 1_555
C64 C50 1_555 1_555
H42 C64 1_555 1_555
H43 C64 1_555 1_555
H44 C64 1_555 1_555
C65 C61 1_555 1_555
H45 C65 1_555 1_555
C66 C65 1_555 1_555
C67 C63 1_555 1_555
H46 C67 1_555 1_555
C68 C66 1_555 1_555
H47 C68 1_555 1_555
H48 C68 1_555 1_555
H49 C68 1_555 1_555
Co2C O5 1_555 1_555
O5C Co2 1_555 1_555
O8C Co2 1_555 1_555
O3 C7 1_555 1_555
O8 Co2C 1_555 1_555
C4 C9 1_555 1_555
C7 C12 1_555 1_555
C10 C21 1_555 1_555
C13 C17 1_555 1_555
C14 C18 1_555 1_555
C15 C18 1_555 1_555
C24 C25 1_555 1_555
C26 C37 1_555 1_555
C39 C40 1_555 1_555
C39 C43 1_555 1_555
C42 C50 1_555 1_555
C43 C54 1_555 1_555
C44 C47 1_555 1_555
C45 C55 1_555 1_555
C49 C58 1_555 1_555
C52 C56 1_555 1_555
C57 C59 1_555 1_555
C61 C62 1_555 1_555
C66 C67 1_555 1_555

#END
