
#######################################################################
#
#                 Cambridge Crystallographic Data Centre
#                                CCDC 
#
#######################################################################
#
# If this CIF has been generated from an entry in the Cambridge 
# Structural Database, then it will include bibliographic, chemical, 
# crystal, experimental, refinement or atomic coordinate data resulting 
# from the CCDC's data processing and validation procedures.
#
#######################################################################

data_UGOZEW
_symmetry_cell_setting           monoclinic
_symmetry_space_group_name_H-M   'P 21/c'
_symmetry_Int_Tables_number      14
_space_group_name_Hall           '-P 2ybc'
loop_
_symmetry_equiv_pos_site_id
_symmetry_equiv_pos_as_xyz
1 x,y,z
2 -x,1/2+y,1/2-z
3 -x,-y,-z
4 x,1/2-y,1/2+z
_cell_length_a                   15.852(5)
_cell_length_b                   17.539(5)
_cell_length_c                   22.255(5)
_cell_angle_alpha                90
_cell_angle_beta                 102.687(5)
_cell_angle_gamma                90
_cell_volume                     6036.45
loop_
_atom_site_label
_atom_site_type_symbol
_atom_site_fract_x
_atom_site_fract_y
_atom_site_fract_z
Ni1 Ni 0.246930(19) -0.400610(16) 0.336560(14)
Ni2 Ni 0.736080(18) -0.083290(16) 0.552350(14)
O1 O 0.65715(10) -0.14494(8) 0.60586(7)
O2 O 0.18001(11) -0.29985(9) 0.29259(7)
O3 O 0.23179(11) -0.31117(10) 0.52968(9)
O4 O 0.31660(10) -0.35589(9) 0.41583(7)
O5 O -0.17735(10) -0.32527(9) 0.04562(8)
O6 O 0.62344(10) -0.13108(9) 0.50565(8)
C1 C 0.60724(15) -0.15720(13) 0.55463(12)
O7 O 0.16075(11) -0.41396(9) 0.25101(7)
O8 O -0.08278(12) -0.17898(10) 0.00408(8)
O9 O -0.14157(10) -0.41977(9) 0.11032(8)
C2 C 0.30695(15) -0.42842(13) 0.53830(11)
O10 O 0.44044(11) -0.32801(13) 0.38906(9)
C3 C 0.49544(15) -0.24319(13) 0.49500(11)
H1 H 0.5231 -0.2372 0.4625
O11 O 0.27263(11) -0.25112(10) 0.19216(9)
C4 C -0.12350(15) -0.35818(13) 0.08688(11)
O12 O 0.54196(15) -0.21285(10) 0.70511(8)
C5 C -0.03634(15) -0.32326(13) 0.10989(11)
C6 C 0.42352(15) -0.28993(13) 0.48712(11)
N1 N 0.14941(13) -0.43103(11) 0.37828(9)
C7 C 0.49673(15) -0.09152(13) 0.66382(12)
C8 C 0.14745(15) -0.34316(14) 0.24862(11)
C9 C 0.52751(14) -0.20497(13) 0.55000(11)
C10 C 0.38122(15) -0.29791(12) 0.53553(11)
C11 C 0.01406(15) -0.34594(13) 0.16568(11)
H2 H -0.0052 -0.3853 0.1873
C12 C 0.09238(15) -0.31173(13) 0.19023(11)
C13 C 0.41281(15) -0.25953(12) 0.59021(11)
H3 H 0.3844 -0.2646 0.6224
C14 C 0.48600(15) -0.21362(12) 0.59832(11)
N2 N 0.70475(12) 0.02233(11) 0.57716(10)
C15 C 0.39185(16) -0.32812(14) 0.42540(12)
C16 C -0.04841(17) -0.29383(14) -0.03948(12)
C17 C -0.05155(15) -0.24221(14) 0.01272(11)
C18 C 0.51353(16) -0.17455(14) 0.65990(11)
C19 C 0.20736(18) -0.12963(15) 0.19128(12)
N3 N 0.76266(13) -0.02150(12) 0.48123(10)
C20 C 0.12048(15) -0.25111(13) 0.15924(11)
C21 C 0.23281(17) -0.47075(14) 0.53527(12)
H4 H 0.1794 -0.4465 0.5275
C22 C 0.20671(17) -0.21334(15) 0.18256(11)
O13 O 0.34330(11) -0.37927(11) 0.28896(8)
H5 H 0.3860 -0.3621 0.3127
C23 C 0.73122(16) 0.07833(14) 0.54485(13)
C24 C 0.07121(15) -0.22916(13) 0.10206(11)
H6 H 0.0904 -0.1897 0.0806
C25 C 0.29988(16) -0.34433(14) 0.53207(11)
C26 C 0.21301(19) -0.55285(15) 0.37261(13)
C27 C -0.00587(15) -0.26541(13) 0.07687(11)
N4 N 0.27279(15) -0.51376(12) 0.35097(10)
C28 C 0.14160(17) -0.50655(14) 0.38598(11)
C29 C 0.75277(15) 0.05426(15) 0.48700(13)
C30 C 0.23700(19) -0.54847(15) 0.54356(13)
H7 H 0.1864 -0.5761 0.5416
C31 C -0.0961(2) -0.27585(17) -0.09756(13)
H8 H -0.1331 -0.2340 -0.1027
C32 C 0.08912(17) -0.38486(16) 0.39138(12)
H9 H 0.0948 -0.3326 0.3865
C33 C 0.46799(17) -0.04673(15) 0.61209(13)
H10 H 0.4581 -0.0688 0.5732
C34 C 0.0713(2) -0.53617(18) 0.40575(14)
H11 H 0.0660 -0.5885 0.4105
C35 C 0.50897(18) -0.05745(16) 0.72108(13)
H12 H 0.5274 -0.0865 0.7565
C36 C 0.2191(2) -0.63099(17) 0.38100(17)
H13 H 0.1779 -0.6574 0.3969
C37 C 0.68061(18) 0.03951(15) 0.62943(13)
H14 H 0.6610 0.0004 0.6511
C38 C 0.38568(19) -0.46550(16) 0.54926(16)
H15 H 0.4364 -0.4380 0.5511
C39 C 0.45395(19) 0.03019(16) 0.61777(15)
H16 H 0.4356 0.0595 0.5825
C40 C 0.6834(2) 0.11191(17) 0.65244(15)
H17 H 0.6645 0.1222 0.6883
C41 C 0.00472(19) -0.35771(16) -0.03265(15)
H18 H 0.0364 -0.3714 0.0062
C42 C 0.1379(2) -0.09249(17) 0.20524(16)
H19 H 0.0878 -0.1195 0.2064
C43 C 0.2801(2) -0.08778(17) 0.18868(13)
H20 H 0.3281 -0.1119 0.1797
C44 C 0.7146(2) 0.16880(18) 0.62132(17)
H21 H 0.7204 0.2180 0.6373
C45 C 0.75816(19) 0.10354(19) 0.43937(17)
H22 H 0.7520 0.1558 0.4439
C46 C 0.7374(2) 0.15317(16) 0.56637(17)
H23 H 0.7566 0.1918 0.5441
C47 C 0.0189(2) -0.4114(2) 0.41184(15)
H24 H -0.0218 -0.3778 0.4211
C48 C 0.3889(2) -0.54365(18) 0.55751(19)
H25 H 0.4421 -0.5683 0.5651
C49 C 0.4938(2) 0.01991(18) 0.72579(16)
H26 H 0.5023 0.0422 0.7646
C50 C 0.7726(2) 0.0745(2) 0.3861(2)
H27 H 0.7757 0.1070 0.3537
C51 C 0.7826(2) -0.0026(2) 0.37967(16)
H28 H 0.7924 -0.0229 0.3432
C52 C 0.3148(2) -0.58565(16) 0.55472(17)
C53 C 0.2867(3) -0.6686(2) 0.3655(2)
H29 H 0.2910 -0.7212 0.3701
C54 C 0.2820(3) -0.0107(2) 0.19921(15)
H30 H 0.3305 0.0170 0.1953
C55 C 0.2137(3) 0.02685(18) 0.21548(16)
C56 C 0.3480(3) -0.6298(2) 0.3434(2)
H31 H 0.3945 -0.6550 0.3331
C57 C 0.0105(2) -0.4009(2) -0.0834(2)
H32 H 0.0464 -0.4434 -0.0785
C58 C -0.0357(3) -0.3821(2) -0.14097(19)
C59 C 0.0100(2) -0.4879(2) 0.41823(16)
H33 H -0.0378 -0.5072 0.4311
C60 C 0.1420(3) -0.01465(19) 0.21762(17)
H34 H 0.0946 0.0095 0.2276
C61 C 0.4510(3) 0.14978(19) 0.6794(2)
H35 H 0.3960 0.1579 0.6898
H36 H 0.4512 0.1739 0.6407
H37 H 0.4959 0.1713 0.7109
C62 C -0.0895(3) -0.3190(2) -0.14741(15)
H38 H -0.1216 -0.3059 -0.1862
C63 C 0.77774(19) -0.04951(19) 0.42940(15)
H39 H 0.7853 -0.1018 0.4260
C64 C 0.3194(3) -0.67162(18) 0.5648(2)
H40 H 0.2739 -0.6873 0.5843
H41 H 0.3743 -0.6848 0.5907
H42 H 0.3129 -0.6970 0.5258
C65 C 0.3386(2) -0.55176(19) 0.33702(17)
H43 H 0.3802 -0.5245 0.3223
C66 C 0.2164(3) 0.11120(19) 0.2304(2)
H44 H 0.1591 0.1289 0.2302
H45 H 0.2390 0.1387 0.2000
H46 H 0.2530 0.1195 0.2703
C67 C 0.4665(2) 0.06423(17) 0.67436(18)
C68 C -0.0296(4) -0.4278(3) -0.1978(2)
H47 H 0.0299 -0.4389 -0.1970
H48 H -0.0539 -0.3988 -0.2341
H49 H -0.0610 -0.4747 -0.1983
Ni2C Ni -0.263920(18) -0.416710(16) 0.052350(14)
O5C O 0.82265(10) -0.17473(9) 0.54562(8)
O9C O 0.85843(10) -0.08023(9) 0.61032(8)
loop_
_geom_bond_atom_site_label_1
_geom_bond_atom_site_label_2
_geom_bond_site_symmetry_1
_geom_bond_site_symmetry_2
Ni1 O2 1_555 1_555
Ni2 O1 1_555 1_555
O1 C1 1_555 1_555
O2 C8 1_555 1_555
O3 C25 1_555 1_555
O4 Ni1 1_555 1_555
O5 C4 1_555 1_555
O6 Ni2 1_555 1_555
C1 O6 1_555 1_555
O7 Ni1 1_555 1_555
O8 C17 1_555 1_555
O9 C4 1_555 1_555
C2 C21 1_555 1_555
O10 C15 1_555 1_555
C3 H1 1_555 1_555
O11 C22 1_555 1_555
C4 C5 1_555 1_555
O12 C18 1_555 1_555
C5 C11 1_555 1_555
C6 C3 1_555 1_555
N1 Ni1 1_555 1_555
C7 C18 1_555 1_555
C8 O7 1_555 1_555
C9 C1 1_555 1_555
C10 C6 1_555 1_555
C11 H2 1_555 1_555
C12 C8 1_555 1_555
C13 C10 1_555 1_555
H3 C13 1_555 1_555
C14 C9 1_555 1_555
N2 Ni2 1_555 1_555
C15 O4 1_555 1_555
C16 C17 1_555 1_555
C17 C27 1_555 1_555
C18 C14 1_555 1_555
C19 C22 1_555 1_555
N3 Ni2 1_555 1_555
C20 C12 1_555 1_555
C21 H4 1_555 1_555
C22 C20 1_555 1_555
O13 Ni1 1_555 1_555
H5 O13 1_555 1_555
C23 N2 1_555 1_555
C24 C20 1_555 1_555
H6 C24 1_555 1_555
C25 C2 1_555 1_555
C26 N4 1_555 1_555
C27 C5 1_555 1_555
N4 Ni1 1_555 1_555
C28 N1 1_555 1_555
C29 N3 1_555 1_555
C30 C21 1_555 1_555
H7 C30 1_555 1_555
C31 C16 1_555 1_555
H8 C31 1_555 1_555
C32 N1 1_555 1_555
H9 C32 1_555 1_555
C33 C7 1_555 1_555
H10 C33 1_555 1_555
C34 C28 1_555 1_555
H11 C34 1_555 1_555
C35 C7 1_555 1_555
H12 C35 1_555 1_555
C36 C26 1_555 1_555
H13 C36 1_555 1_555
C37 N2 1_555 1_555
H14 C37 1_555 1_555
C38 C2 1_555 1_555
H15 C38 1_555 1_555
C39 C33 1_555 1_555
H16 C39 1_555 1_555
C40 C37 1_555 1_555
H17 C40 1_555 1_555
C41 C16 1_555 1_555
H18 C41 1_555 1_555
C42 C19 1_555 1_555
H19 C42 1_555 1_555
C43 C19 1_555 1_555
H20 C43 1_555 1_555
C44 C40 1_555 1_555
H21 C44 1_555 1_555
C45 C29 1_555 1_555
H22 C45 1_555 1_555
C46 C23 1_555 1_555
H23 C46 1_555 1_555
C47 C32 1_555 1_555
H24 C47 1_555 1_555
C48 C38 1_555 1_555
H25 C48 1_555 1_555
C49 C35 1_555 1_555
H26 C49 1_555 1_555
C50 C45 1_555 1_555
H27 C50 1_555 1_555
C51 C50 1_555 1_555
H28 C51 1_555 1_555
C52 C30 1_555 1_555
C53 C36 1_555 1_555
H29 C53 1_555 1_555
C54 C43 1_555 1_555
H30 C54 1_555 1_555
C55 C54 1_555 1_555
C56 C53 1_555 1_555
H31 C56 1_555 1_555
C57 C41 1_555 1_555
H32 C57 1_555 1_555
C58 C57 1_555 1_555
C59 C34 1_555 1_555
H33 C59 1_555 1_555
C60 C42 1_555 1_555
H34 C60 1_555 1_555
C61 H35 1_555 1_555
H36 C61 1_555 1_555
H37 C61 1_555 1_555
C62 C31 1_555 1_555
H38 C62 1_555 1_555
C63 N3 1_555 1_555
H39 C63 1_555 1_555
C64 C52 1_555 1_555
H40 C64 1_555 1_555
H41 C64 1_555 1_555
H42 C64 1_555 1_555
C65 N4 1_555 1_555
H43 C65 1_555 1_555
C66 C55 1_555 1_555
H44 C66 1_555 1_555
H45 C66 1_555 1_555
H46 C66 1_555 1_555
C67 C39 1_555 1_555
C68 C58 1_555 1_555
H47 C68 1_555 1_555
H48 C68 1_555 1_555
H49 C68 1_555 1_555
Ni2C O5 1_555 1_555
O5C Ni2 1_555 1_555
O9C Ni2 1_555 1_555
O9 Ni2C 1_555 1_555
C3 C9 1_555 1_555
C6 C15 1_555 1_555
C10 C25 1_555 1_555
C11 C12 1_555 1_555
C13 C14 1_555 1_555
C23 C29 1_555 1_555
C24 C27 1_555 1_555
C26 C28 1_555 1_555
C44 C46 1_555 1_555
C47 C59 1_555 1_555
C48 C52 1_555 1_555
C49 C67 1_555 1_555
C51 C63 1_555 1_555
C55 C60 1_555 1_555
C56 C65 1_555 1_555
C58 C62 1_555 1_555
C61 C67 1_555 1_555

#END
