
#######################################################################
#
#                 Cambridge Crystallographic Data Centre
#                                CCDC 
#
#######################################################################
#
# If this CIF has been generated from an entry in the Cambridge 
# Structural Database, then it will include bibliographic, chemical, 
# crystal, experimental, refinement or atomic coordinate data resulting 
# from the CCDC's data processing and validation procedures.
#
#######################################################################

data_UGUFUY
_symmetry_cell_setting           triclinic
_symmetry_space_group_name_H-M   'P -1'
_symmetry_Int_Tables_number      2
_space_group_name_Hall           '-P 1'
loop_
_symmetry_equiv_pos_site_id
_symmetry_equiv_pos_as_xyz
1 x,y,z
2 -x,-y,-z
_cell_length_a                   13.475(3)
_cell_length_b                   14.578(3)
_cell_length_c                   16.099(3)
_cell_angle_alpha                97.934(4)
_cell_angle_beta                 113.562(4)
_cell_angle_gamma                106.287(4)
_cell_volume                     2667.65
loop_
_atom_site_label
_atom_site_type_symbol
_atom_site_fract_x
_atom_site_fract_y
_atom_site_fract_z
O12 O 0.3518(4) 0.8737(4) 0.1304(4)
H35 H 0.4008 0.8721 0.1765
H36 H 0.3721 0.8714 0.0921
O13 O 0.4359(8) 0.8359(9) 0.5411(6)
H37 H 0.5037 0.8612 0.5737
H38 H 0.3820 0.8137 0.4899
O14 O 0.6782(7) 0.9246(6) 0.6469(5)
H39 H 0.6616 0.8701 0.6178
H40 H 0.6836 0.9373 0.7016
O15 O 0.3620(7) 0.2593(6) -0.5494(5)
H41 H 0.417(4) 0.251(2) -0.508(6)
H42 H 0.318(7) 0.2707(18) -0.528(8)
Cu1 Cu 0.5000 0.5000 -0.5000
Cu2 Cu 0.10304(6) 1.00972(5) 0.06557(6)
Cu3 Cu 0.5000 2.0000 0.0000
S1 S 0.94430(16) 0.65613(14) -0.01143(13)
S2 S -0.05853(16) 1.94649(15) -0.39075(14)
N1 N 0.6000(5) 0.5150(6) -0.3630(5)
N2 N 0.8215(5) 0.4773(5) -0.0382(5)
N3 N 0.9072(5) 0.5081(5) 0.0544(4)
N4 N 1.2507(6) 0.7540(6) 0.3564(5)
N5 N 0.3647(5) 1.9798(4) -0.1225(4)
N6 N 0.0348(5) 1.8500(5) -0.4579(5)
N7 N -0.0716(5) 1.8338(5) -0.5311(4)
N8 N -0.4639(6) 1.8582(7) -0.7069(6)
O1 O 0.3567(4) 0.4543(4) -0.4795(4)
O2 O 0.4242(4) 0.6181(4) -0.4480(4)
O3 O -0.0069(3) 0.5438(3) -0.3599(3)
O4 O 0.0877(4) 0.9019(3) -0.0308(3)
O5 O -0.0857(4) 0.8875(3) -0.1430(3)
O6 O 0.2823(3) 1.0316(3) 0.1547(3)
H1 H 0.3442 1.0752 0.1651
H2 H 0.3025 0.9855 0.1484
O7 O 0.1533(3) 1.1064(3) 0.0026(3)
O8 O -0.0207(3) 1.0876(3) -0.1123(3)
O9 O 0.3226(4) 1.4022(3) -0.2046(3)
O10 O 0.4352(5) 1.8548(4) -0.0141(4)
O11 O 0.5462(4) 1.8724(4) -0.0835(4)
C1 C 0.6077(7) 0.4379(7) -0.3358(6)
H3 H 0.5632 0.3751 -0.3790
C2 C 0.6549(7) 0.6001(7) -0.3034(6)
H4 H 0.6457 0.6554 -0.3236
C3 C 0.7286(6) 0.6144(7) -0.2088(6)
H5 H 0.7660 0.6780 -0.1667
C4 C 0.7457(6) 0.5356(7) -0.1784(6)
C5 C 0.6831(6) 0.4460(7) -0.2404(6)
H6 H 0.6884 0.3891 -0.2219
C6 C 0.8284(6) 0.5470(6) -0.0808(5)
C7 C 0.9775(6) 0.5995(6) 0.0782(5)
C8 C 1.0751(6) 0.6526(6) 0.1721(5)
C9 C 1.0823(7) 0.6112(6) 0.2464(5)
H7 H 1.0297 0.5484 0.2357
C10 C 1.1691(8) 0.6654(7) 0.3356(6)
H8 H 1.1711 0.6385 0.3851
C11 C 1.2434(7) 0.7910(6) 0.2836(7)
H9 H 1.2998 0.8523 0.2960
C12 C 1.1592(6) 0.7454(6) 0.1928(6)
H10 H 1.1579 0.7757 0.1453
C13 C 0.3544(7) 0.5385(7) -0.4518(5)
C14 C 0.2603(5) 0.5418(6) -0.4251(5)
C15 C 0.2465(5) 0.6308(5) -0.4041(5)
H11 H 0.2961 0.6889 -0.4054
C16 C 0.1595(6) 0.6335(5) -0.3813(5)
H12 H 0.1492 0.6933 -0.3684
C17 C 0.0869(5) 0.5474(5) -0.3776(4)
C18 C 0.1019(5) 0.4589(5) -0.3952(4)
H13 H 0.0543 0.4013 -0.3912
C19 C 0.1901(6) 0.4571(5) -0.4191(4)
H14 H 0.2015 0.3976 -0.4312
C20 C 0.0025(5) 0.6272(5) -0.3000(5)
C21 C -0.0842(5) 0.6642(5) -0.3318(4)
H15 H -0.1428 0.6382 -0.3940
C22 C -0.0835(5) 0.7425(5) -0.2689(5)
H16 H -0.1430 0.7671 -0.2893
C23 C 0.0051(5) 0.7825(4) -0.1775(5)
C24 C 0.0925(5) 0.7450(5) -0.1484(5)
H17 H 0.1524 0.7715 -0.0867
C25 C 0.0926(5) 0.6681(5) -0.2098(5)
H18 H 0.1531 0.6446 -0.1900
C26 C 0.0024(6) 0.8633(5) -0.1128(5)
C27 C 0.0888(6) 1.1253(4) -0.0692(5)
C28 C 0.1495(5) 1.1987(4) -0.1050(5)
C29 C 0.2657(5) 1.2551(5) -0.0488(5)
H19 H 0.3052 1.2472 0.0105
C30 C 0.3233(6) 1.3241(5) -0.0817(5)
H20 H 0.4021 1.3623 -0.0443
C31 C 0.2652(6) 1.3363(5) -0.1688(5)
C32 C 0.1478(6) 1.2801(5) -0.2250(5)
H21 H 0.1079 1.2886 -0.2838
C33 C 0.0900(5) 1.2102(4) -0.1920(5)
H22 H 0.0112 1.1717 -0.2292
C34 C 0.3600(5) 1.5022(5) -0.1639(5)
C35 C 0.4312(6) 1.5615(5) -0.1920(5)
H23 H 0.4546 1.5330 -0.2327
C36 C 0.4684(5) 1.6640(5) -0.1598(5)
H24 H 0.5155 1.7043 -0.1802
C37 C 0.4358(6) 1.7072(5) -0.0971(5)
C38 C 0.3657(6) 1.6467(5) -0.0674(5)
H25 H 0.3436 1.6751 -0.0256
C39 C 0.3278(5) 1.5431(5) -0.0997(5)
H26 H 0.2820 1.5021 -0.0788
C40 C 0.4754(8) 1.8193(7) -0.0605(7)
C41 C 0.3514(6) 1.9366(5) -0.2066(5)
H27 H 0.4128 1.9205 -0.2083
C42 C 0.2539(6) 1.9139(4) -0.2916(5)
H28 H 0.2520 1.8847 -0.3476
C43 C 0.1595(6) 1.9343(5) -0.2936(5)
C44 C 0.1724(5) 1.9797(5) -0.2075(5)
H29 H 0.1124 1.9969 -0.2041
C45 C 0.2735(6) 2.0001(4) -0.1261(5)
H30 H 0.2780 2.0304 -0.0692
C46 C 0.0540(6) 1.9095(5) -0.3803(5)
C47 C -0.1305(6) 1.8785(5) -0.5068(5)
C48 C -0.2461(6) 1.8708(6) -0.5747(6)
C49 C -0.3002(7) 1.8105(8) -0.6624(7)
H31 H -0.2646 1.7712 -0.6807
C50 C -0.4083(8) 1.8053(8) -0.7268(7)
H32 H -0.4431 1.7621 -0.7873
C51 C -0.4139(9) 1.9187(9) -0.6208(8)
H33 H -0.4529 1.9561 -0.6052
C52 C -0.3043(8) 1.9287(7) -0.5519(6)
H34 H -0.2705 1.9729 -0.4921
Cu2A Cu 0.89696(6) -0.00972(5) -1.06557(6)
Cu2A_2 Cu -0.10304(6) 0.99028(5) -0.06557(6)
Cu2_2 Cu 1.10304(6) 0.00972(5) -0.93443(6)
Cu3_2 Cu -0.5000 0.0000 0.0000
S1A S 0.05570(16) 0.34387(14) -0.98857(13)
S2A S 1.05853(16) 2.05351(15) 0.39075(14)
N1A N 0.4000(5) 0.4850(6) -0.6370(5)
N2A N 0.1785(5) 0.5227(5) -0.9618(5)
N3A N 0.0928(5) 0.4919(5) -1.0544(4)
N4A N -0.2507(6) 0.2460(6) -1.3564(5)
N5A N 0.6353(5) 2.0202(4) 0.1225(4)
N5_2 N -0.6353(5) -0.0202(4) -0.1225(4)
N5A_2 N -0.3647(5) 0.0202(4) 0.1225(4)
N6A N 0.9652(5) 2.1500(5) 0.4579(5)
N7A N 1.0716(5) 2.1662(5) 0.5311(4)
N8A N 1.4639(6) 2.1418(7) 0.7069(6)
O1A O 0.6433(4) 0.5457(4) -0.5205(4)
O2A O 0.5758(4) 0.3819(4) -0.5520(4)
O3A O 1.0069(3) 0.4562(3) -0.6401(3)
O4A O 0.9123(4) 0.0981(3) -0.9692(3)
O4A_2 O -0.0877(4) 1.0981(3) 0.0308(3)
O4_2 O 1.0877(4) -0.0981(3) -1.0308(3)
O5A O 1.0857(4) 0.1125(3) -0.8570(3)
O5A_2 O 0.0857(4) 1.1125(3) 0.1430(3)
O5_2 O 0.9143(4) -0.1125(3) -1.1430(3)
O6A O 0.7177(3) -0.0316(3) -1.1547(3)
O6A_2 O -0.2823(3) 0.9684(3) -0.1547(3)
O6_2 O 1.2823(3) 0.0316(3) -0.8453(3)
H1A H 0.6558 -0.0752 -1.1651
H1A_2 H -0.3442 0.9248 -0.1651
H1_2 H 1.3442 0.0752 -0.8349
H2A H 0.6975 0.0145 -1.1484
H2A_2 H -0.3025 1.0145 -0.1484
H2_2 H 1.3025 -0.0145 -0.8516
O7A O -0.1533(3) 0.8936(3) -0.0026(3)
O7A_2 O 0.8467(3) -0.1064(3) -1.0026(3)
O7_2 O 1.1533(3) 0.1064(3) -0.9974(3)
O8A O 0.0207(3) 0.9124(3) 0.1123(3)
O8_2 O 0.9793(3) 0.0876(3) -1.1123(3)
O8A_2 O 1.0207(3) -0.0876(3) -0.8877(3)
O9A O -0.3226(4) 0.5978(3) 0.2046(3)
O10A O -0.4352(5) 0.1452(4) 0.0141(4)
O10A_2 O 0.5648(5) 2.1452(4) 0.0141(4)
O10_2 O -0.5648(5) -0.1452(4) -0.0141(4)
O11A O -0.5462(4) 0.1276(4) 0.0835(4)
O11A_2 O 0.4538(4) 2.1276(4) 0.0835(4)
O11_2 O -0.4538(4) -0.1276(4) -0.0835(4)
C1A C 0.3923(7) 0.5621(7) -0.6642(6)
H3A H 0.4368 0.6249 -0.6210
C2A C 0.3451(7) 0.3999(7) -0.6966(6)
H4A H 0.3543 0.3446 -0.6764
C3A C 0.2714(6) 0.3856(7) -0.7912(6)
H5A H 0.2340 0.3220 -0.8333
C4A C 0.2543(6) 0.4644(7) -0.8216(6)
C5A C 0.3169(6) 0.5540(7) -0.7596(6)
H6A H 0.3116 0.6109 -0.7781
C6A C 0.1716(6) 0.4530(6) -0.9192(5)
C7A C 0.0225(6) 0.4005(6) -1.0782(5)
C8A C -0.0751(6) 0.3474(6) -1.1721(5)
C9A C -0.0823(7) 0.3888(6) -1.2464(5)
H7A H -0.0297 0.4516 -1.2357
C10A C -0.1691(8) 0.3346(7) -1.3356(6)
H8A H -0.1711 0.3615 -1.3851
C11A C -0.2434(7) 0.2090(6) -1.2836(7)
H9A H -0.2998 0.1477 -1.2960
C12A C -0.1592(6) 0.2546(6) -1.1928(6)
H10A H -0.1579 0.2243 -1.1453
C13A C 0.6456(7) 0.4615(7) -0.5482(5)
C14A C 0.7397(5) 0.4582(6) -0.5749(5)
C15A C 0.7535(5) 0.3692(5) -0.5959(5)
H11A H 0.7039 0.3111 -0.5946
C16A C 0.8405(6) 0.3665(5) -0.6187(5)
H12A H 0.8508 0.3067 -0.6316
C17A C 0.9131(5) 0.4526(5) -0.6224(4)
C18A C 0.8981(5) 0.5411(5) -0.6048(4)
H13A H 0.9457 0.5987 -0.6088
C19A C 0.8099(6) 0.5429(5) -0.5809(4)
H14A H 0.7985 0.6024 -0.5688
C20A C 0.9975(5) 0.3728(5) -0.7000(5)
C21A C 1.0842(5) 0.3358(5) -0.6682(4)
H15A H 1.1428 0.3618 -0.6060
C22A C 1.0835(5) 0.2575(5) -0.7311(5)
C22A_2 C 0.0835(5) 1.2575(5) 0.2689(5)
C22_2 C 0.9165(5) -0.2575(5) -1.2689(5)
H16A H 1.1430 0.2329 -0.7107
C23A C 0.9949(5) 0.2175(4) -0.8225(5)
C23A_2 C -0.0051(5) 1.2175(4) 0.1775(5)
C23_2 C 1.0051(5) -0.2175(4) -1.1775(5)
C24A C 0.9075(5) 0.2550(5) -0.8516(5)
C24A_2 C -0.0925(5) 1.2550(5) 0.1484(5)
C24_2 C 1.0925(5) -0.2550(5) -1.1484(5)
H17A H 0.8476 0.2285 -0.9133
C25A C 0.9074(5) 0.3319(5) -0.7902(5)
H18A H 0.8469 0.3554 -0.8100
C26A C 0.9976(6) 0.1367(5) -0.8872(5)
C26A_2 C -0.0024(6) 1.1367(5) 0.1128(5)
C26_2 C 1.0024(6) -0.1367(5) -1.1128(5)
C27A C -0.0888(6) 0.8747(4) 0.0692(5)
C27A_2 C 0.9112(6) -0.1253(4) -0.9308(5)
C27_2 C 1.0888(6) 0.1253(4) -1.0692(5)
C28A C -0.1495(5) 0.8013(4) 0.1050(5)
C28A_2 C 0.8505(5) -0.1987(4) -0.8950(5)
C28_2 C 1.1495(5) 0.1987(4) -1.1050(5)
C29A C -0.2657(5) 0.7449(5) 0.0488(5)
C29A_2 C 0.7343(5) -0.2551(5) -0.9512(5)
C29_2 C 1.2657(5) 0.2551(5) -1.0488(5)
H19A H -0.3052 0.7528 -0.0105
C30A C -0.3233(6) 0.6759(5) 0.0817(5)
H20A H -0.4021 0.6377 0.0443
C31A C -0.2652(6) 0.6637(5) 0.1688(5)
C32A C -0.1478(6) 0.7199(5) 0.2250(5)
H21A H -0.1079 0.7114 0.2838
C33A C -0.0900(5) 0.7898(4) 0.1920(5)
C33A_2 C 0.9100(5) -0.2102(4) -0.8080(5)
C33_2 C 1.0900(5) 0.2102(4) -1.1920(5)
H22A H -0.0112 0.8283 0.2292
C34A C -0.3600(5) 0.4978(5) 0.1639(5)
C35A C -0.4312(6) 0.4385(5) 0.1920(5)
H23A H -0.4546 0.4670 0.2327
C36A C -0.4684(5) 0.3360(5) 0.1598(5)
C36A_2 C 0.5316(5) 2.3360(5) 0.1598(5)
H24A H -0.5155 0.2957 0.1802
C37A C -0.4358(6) 0.2928(5) 0.0971(5)
C37A_2 C 0.5642(6) 2.2928(5) 0.0971(5)
C37_2 C -0.5642(6) -0.2928(5) -0.0971(5)
C38A C -0.3657(6) 0.3533(5) 0.0674(5)
C38A_2 C 0.6343(6) 2.3533(5) 0.0674(5)
H25A H -0.3436 0.3249 0.0256
C39A C -0.3278(5) 0.4569(5) 0.0997(5)
H26A H -0.2820 0.4979 0.0788
C40A C -0.4754(8) 0.1807(7) 0.0605(7)
C40A_2 C 0.5246(8) 2.1807(7) 0.0605(7)
C40_2 C -0.5246(8) -0.1807(7) -0.0605(7)
C41A C 0.6486(6) 2.0634(5) 0.2066(5)
C41_2 C -0.6486(6) -0.0634(5) -0.2066(5)
C41A_2 C -0.3514(6) 0.0634(5) 0.2066(5)
H27A H 0.5872 2.0795 0.2083
H27_2 H -0.5872 -0.0795 -0.2083
H27A_2 H -0.4128 0.0795 0.2083
C42A C 0.7461(6) 2.0861(4) 0.2916(5)
C42_2 C -0.7461(6) -0.0861(4) -0.2916(5)
C42A_2 C -0.2539(6) 0.0861(4) 0.2916(5)
H28A H 0.7480 2.1153 0.3476
C43A C 0.8405(6) 2.0657(5) 0.2936(5)
C44A C 0.8276(5) 2.0203(5) 0.2075(5)
C44_2 C -0.8276(5) -0.0203(5) -0.2075(5)
C44A_2 C -0.1724(5) 0.0203(5) 0.2075(5)
H29A H 0.8876 2.0031 0.2041
C45A C 0.7265(6) 1.9999(4) 0.1261(5)
C45_2 C -0.7265(6) 0.0001(4) -0.1261(5)
C45A_2 C -0.2735(6) -0.0001(4) 0.1261(5)
H30A H 0.7220 1.9696 0.0692
H30_2 H -0.7220 0.0304 -0.0692
H30A_2 H -0.2780 -0.0304 0.0692
C46A C 0.9460(6) 2.0905(5) 0.3803(5)
C47A C 1.1305(6) 2.1215(5) 0.5068(5)
C48A C 1.2461(6) 2.1292(6) 0.5747(6)
C49A C 1.3002(7) 2.1895(8) 0.6624(7)
H31A H 1.2646 2.2288 0.6807
C50A C 1.4083(8) 2.1947(8) 0.7268(7)
H32A H 1.4431 2.2379 0.7873
C51A C 1.4139(9) 2.0813(9) 0.6208(8)
H33A H 1.4529 2.0439 0.6052
C52A C 1.3043(8) 2.0713(7) 0.5519(6)
H34A H 1.2705 2.0271 0.4921
Cu4? Cu 0.4779(5) 0.4431(4) -0.5072(5)
loop_
_geom_bond_atom_site_label_1
_geom_bond_atom_site_label_2
_geom_bond_site_symmetry_1
_geom_bond_site_symmetry_2
Cu1 N1 1_555 1_555
Cu2 O4 1_555 1_555
Cu3 N5 1_555 1_555
S1 C6 1_555 1_555
S2 C46 1_555 1_555
N1 C1 1_555 1_555
N2 N3 1_555 1_555
N3 C7 1_555 1_555
N4 C10 1_555 1_555
N5 C41 1_555 1_555
N6 N7 1_555 1_555
N7 C47 1_555 1_555
N8 C50 1_555 1_555
O1 Cu1 1_555 1_555
O2 Cu1 1_555 1_555
O3 C17 1_555 1_555
O4 C26 1_555 1_555
O5 C26 1_555 1_555
O6 Cu2 1_555 1_555
H1 O6 1_555 1_555
H2 O6 1_555 1_555
O7 Cu2 1_555 1_555
O8 C27 1_555 1_555
O9 C31 1_555 1_555
O10 Cu3 1_555 1_555
O11 Cu3 1_555 1_555
C1 H3 1_555 1_555
C2 N1 1_555 1_555
H4 C2 1_555 1_555
C3 C2 1_555 1_555
H5 C3 1_555 1_555
C4 C3 1_555 1_555
C5 C1 1_555 1_555
H6 C5 1_555 1_555
C6 N2 1_555 1_555
C7 S1 1_555 1_555
C8 C7 1_555 1_555
C9 C8 1_555 1_555
H7 C9 1_555 1_555
C10 C9 1_555 1_555
H8 C10 1_555 1_555
C11 N4 1_555 1_555
H9 C11 1_555 1_555
C12 C8 1_555 1_555
H10 C12 1_555 1_555
C13 O1 1_555 1_555
C14 C13 1_555 1_555
C15 C14 1_555 1_555
H11 C15 1_555 1_555
C16 C15 1_555 1_555
H12 C16 1_555 1_555
C17 C16 1_555 1_555
C18 C17 1_555 1_555
H13 C18 1_555 1_555
C19 C14 1_555 1_555
H14 C19 1_555 1_555
C20 O3 1_555 1_555
C21 C20 1_555 1_555
H15 C21 1_555 1_555
C22 C21 1_555 1_555
H16 C22 1_555 1_555
C23 C22 1_555 1_555
C24 C23 1_555 1_555
H17 C24 1_555 1_555
C25 C20 1_555 1_555
H18 C25 1_555 1_555
C26 C23 1_555 1_555
C27 O7 1_555 1_555
C28 C27 1_555 1_555
C29 C28 1_555 1_555
H19 C29 1_555 1_555
C30 C29 1_555 1_555
H20 C30 1_555 1_555
C31 C30 1_555 1_555
C32 C31 1_555 1_555
H21 C32 1_555 1_555
C33 C28 1_555 1_555
H22 C33 1_555 1_555
C34 O9 1_555 1_555
C35 C34 1_555 1_555
H23 C35 1_555 1_555
C36 C35 1_555 1_555
H24 C36 1_555 1_555
C37 C36 1_555 1_555
C38 C37 1_555 1_555
H25 C38 1_555 1_555
C39 C34 1_555 1_555
H26 C39 1_555 1_555
C40 O10 1_555 1_555
C41 H27 1_555 1_555
C42 C41 1_555 1_555
H28 C42 1_555 1_555
C43 C42 1_555 1_555
C44 C43 1_555 1_555
H29 C44 1_555 1_555
C45 N5 1_555 1_555
H30 C45 1_555 1_555
C46 N6 1_555 1_555
C47 S2 1_555 1_555
C48 C47 1_555 1_555
C49 C48 1_555 1_555
H31 C49 1_555 1_555
C50 C49 1_555 1_555
H32 C50 1_555 1_555
C51 N8 1_555 1_555
H33 C51 1_555 1_555
C52 C48 1_555 1_555
H34 C52 1_555 1_555
O12 H35 1_555 1_555
H36 O12 1_555 1_555
O13 H37 1_555 1_555
H38 O13 1_555 1_555
O14 H39 1_555 1_555
H40 O14 1_555 1_555
O15 H41 1_555 1_555
H42 O15 1_555 1_555
Cu2A Cu2_2 1_555 1_555
Cu2A_2 Cu2 1_555 1_555
Cu2_2 O4_2 1_555 1_555
Cu3_2 N5_2 1_555 1_555
S1A C6A 1_555 1_555
S2A C46A 1_555 1_555
N1A Cu1 1_555 1_555
N2A N3A 1_555 1_555
N3A C7A 1_555 1_555
N4A C10A 1_555 1_555
N5A Cu3 1_555 1_555
N5_2 C41_2 1_555 1_555
N5A_2 Cu3_2 1_555 1_555
N6A N7A 1_555 1_555
N7A C47A 1_555 1_555
N8A C50A 1_555 1_555
O1A Cu1 1_555 1_555
O2A Cu1 1_555 1_555
O3A C17A 1_555 1_555
O4A Cu2A 1_555 1_555
O4A_2 Cu2A_2 1_555 1_555
O4_2 C26_2 1_555 1_555
O5A Cu2_2 1_555 1_555
O5A_2 Cu2 1_555 1_555
O5_2 Cu2A 1_555 1_555
O6A Cu2A 1_555 1_555
O6A_2 Cu2A_2 1_555 1_555
O6_2 Cu2_2 1_555 1_555
H1A O6A 1_555 1_555
H1A_2 O6A_2 1_555 1_555
H1_2 O6_2 1_555 1_555
H2A O6A 1_555 1_555
H2A_2 O6A_2 1_555 1_555
H2_2 O6_2 1_555 1_555
O7A Cu2A_2 1_555 1_555
O7A_2 Cu2A 1_555 1_555
O7_2 Cu2_2 1_555 1_555
O8A Cu2 1_555 1_555
O8_2 Cu2A 1_555 1_555
O8A_2 Cu2_2 1_555 1_555
O9A C31A 1_555 1_555
O10A Cu3_2 1_555 1_555
O10A_2 Cu3 1_555 1_555
O10_2 Cu3_2 1_555 1_555
O11A Cu3_2 1_555 1_555
O11A_2 Cu3 1_555 1_555
O11_2 Cu3_2 1_555 1_555
C1A N1A 1_555 1_555
H3A C1A 1_555 1_555
C2A N1A 1_555 1_555
H4A C2A 1_555 1_555
C3A C2A 1_555 1_555
H5A C3A 1_555 1_555
C4A C3A 1_555 1_555
C5A C1A 1_555 1_555
H6A C5A 1_555 1_555
C6A N2A 1_555 1_555
C7A S1A 1_555 1_555
C8A C7A 1_555 1_555
C9A C8A 1_555 1_555
H7A C9A 1_555 1_555
C10A C9A 1_555 1_555
H8A C10A 1_555 1_555
C11A N4A 1_555 1_555
H9A C11A 1_555 1_555
C12A C8A 1_555 1_555
H10A C12A 1_555 1_555
C13A O1A 1_555 1_555
C14A C13A 1_555 1_555
C15A C14A 1_555 1_555
H11A C15A 1_555 1_555
C16A C15A 1_555 1_555
H12A C16A 1_555 1_555
C17A C16A 1_555 1_555
C18A C17A 1_555 1_555
H13A C18A 1_555 1_555
C19A C14A 1_555 1_555
H14A C19A 1_555 1_555
C20A O3A 1_555 1_555
C21A C20A 1_555 1_555
H15A C21A 1_555 1_555
C22A C21A 1_555 1_555
C22A_2 C23A_2 1_555 1_555
C22_2 C23_2 1_555 1_555
H16A C22A 1_555 1_555
C23A C22A 1_555 1_555
C23A_2 C24A_2 1_555 1_555
C23_2 C24_2 1_555 1_555
C24A C23A 1_555 1_555
H17A C24A 1_555 1_555
C25A C20A 1_555 1_555
H18A C25A 1_555 1_555
C26A O4A 1_555 1_555
C26A_2 O4A_2 1_555 1_555
C26_2 O5_2 1_555 1_555
C27A O7A 1_555 1_555
C27A_2 O7A_2 1_555 1_555
C27_2 O7_2 1_555 1_555
C28A C27A 1_555 1_555
C28A_2 C27A_2 1_555 1_555
C28_2 C27_2 1_555 1_555
C29A C28A 1_555 1_555
C29A_2 C28A_2 1_555 1_555
C29_2 C28_2 1_555 1_555
H19A C29A 1_555 1_555
C30A C29A 1_555 1_555
H20A C30A 1_555 1_555
C31A C30A 1_555 1_555
C32A C31A 1_555 1_555
H21A C32A 1_555 1_555
C33A C28A 1_555 1_555
C33A_2 C28A_2 1_555 1_555
C33_2 C28_2 1_555 1_555
H22A C33A 1_555 1_555
C34A O9A 1_555 1_555
C35A C34A 1_555 1_555
H23A C35A 1_555 1_555
C36A C35A 1_555 1_555
C36A_2 C37A_2 1_555 1_555
H24A C36A 1_555 1_555
C37A C36A 1_555 1_555
C37A_2 C38A_2 1_555 1_555
C37_2 C40_2 1_555 1_555
C38A C37A 1_555 1_555
H25A C38A 1_555 1_555
C39A C34A 1_555 1_555
H26A C39A 1_555 1_555
C40A O10A 1_555 1_555
C40A_2 O10A_2 1_555 1_555
C40_2 O10_2 1_555 1_555
C41A N5A 1_555 1_555
C41_2 H27_2 1_555 1_555
C41A_2 N5A_2 1_555 1_555
H27A C41A 1_555 1_555
H27A_2 C41A_2 1_555 1_555
C42A C41A 1_555 1_555
C42_2 C41_2 1_555 1_555
C42A_2 C41A_2 1_555 1_555
H28A C42A 1_555 1_555
C43A C42A 1_555 1_555
C44A C43A 1_555 1_555
C44_2 C45_2 1_555 1_555
C44A_2 C45A_2 1_555 1_555
H29A C44A 1_555 1_555
C45A N5A 1_555 1_555
C45_2 N5_2 1_555 1_555
C45A_2 N5A_2 1_555 1_555
H30A C45A 1_555 1_555
H30_2 C45_2 1_555 1_555
H30A_2 C45A_2 1_555 1_555
C46A N6A 1_555 1_555
C47A S2A 1_555 1_555
C48A C47A 1_555 1_555
C49A C48A 1_555 1_555
H31A C49A 1_555 1_555
C50A C49A 1_555 1_555
H32A C50A 1_555 1_555
C51A N8A 1_555 1_555
H33A C51A 1_555 1_555
C52A C48A 1_555 1_555
H34A C52A 1_555 1_555
O2 C13 1_555 1_555
O5 Cu2A_2 1_555 1_555
O8 Cu2A_2 1_555 1_555
O11 C40 1_555 1_555
C4 C5 1_555 1_555
C4 C6 1_555 1_555
C11 C12 1_555 1_555
C18 C19 1_555 1_555
C24 C25 1_555 1_555
C32 C33 1_555 1_555
C37 C40 1_555 1_555
C38 C39 1_555 1_555
C43 C46 1_555 1_555
C44 C45 1_555 1_555
C51 C52 1_555 1_555
O2A C13A 1_555 1_555
O5A C26A 1_555 1_555
O5A_2 C26A_2 1_555 1_555
O8A C27A 1_555 1_555
O8_2 C27_2 1_555 1_555
O8A_2 C27A_2 1_555 1_555
O11A C40A 1_555 1_555
O11A_2 C40A_2 1_555 1_555
O11_2 C40_2 1_555 1_555
C4A C5A 1_555 1_555
C4A C6A 1_555 1_555
C11A C12A 1_555 1_555
C18A C19A 1_555 1_555
C23A C26A 1_555 1_555
C23A_2 C26A_2 1_555 1_555
C23_2 C26_2 1_555 1_555
C24A C25A 1_555 1_555
C32A C33A 1_555 1_555
C37A C40A 1_555 1_555
C37A_2 C40A_2 1_555 1_555
C38A C39A 1_555 1_555
C43A C46A 1_555 1_555
C44A C45A 1_555 1_555
C51A C52A 1_555 1_555

#END
