
#######################################################################
#
#                 Cambridge Crystallographic Data Centre
#                                CCDC 
#
#######################################################################
#
# If this CIF has been generated from an entry in the Cambridge 
# Structural Database, then it will include bibliographic, chemical, 
# crystal, experimental, refinement or atomic coordinate data resulting 
# from the CCDC's data processing and validation procedures.
#
#######################################################################

data_UGUGUZ
_symmetry_cell_setting           monoclinic
_symmetry_space_group_name_H-M   'P 21/c'
_symmetry_Int_Tables_number      14
_space_group_name_Hall           '-P 2ybc'
loop_
_symmetry_equiv_pos_site_id
_symmetry_equiv_pos_as_xyz
1 x,y,z
2 -x,1/2+y,1/2-z
3 -x,-y,-z
4 x,1/2-y,1/2+z
_cell_length_a                   8.954(2)
_cell_length_b                   22.026(5)
_cell_length_c                   13.640(3)
_cell_angle_alpha                90
_cell_angle_beta                 95.570(4)
_cell_angle_gamma                90
_cell_volume                     2677.39
loop_
_atom_site_label
_atom_site_type_symbol
_atom_site_fract_x
_atom_site_fract_y
_atom_site_fract_z
Yb1 Yb -0.01770(4) 0.326224(16) -0.02386(3)
Yb2 Yb 0.54513(4) 0.391007(17) 0.25406(3)
O1 O 0.1687(7) 0.3609(3) 0.0966(4)
O2 O 0.3118(7) 0.3458(3) 0.2394(4)
O3 O 0.1742(7) 0.3473(3) 0.4172(4)
O4 O 0.1523(7) 0.2518(3) 0.4699(4)
O5 O -0.2022(7) 0.1380(3) 0.3600(4)
O6 O -0.3533(7) 0.1500(3) 0.2198(5)
O7 O -0.2138(8) 0.1518(3) 0.0351(5)
O8 O -0.1961(7) 0.2476(3) -0.0176(4)
O9 O 0.1485(7) 0.3738(3) -0.1196(4)
O10 O 0.1618(8) 0.4499(3) -0.2280(5)
O11 O 0.2829(7) 0.5590(3) -0.1587(4)
O12 O 0.1760(7) 0.6325(3) -0.0779(5)
O13 O 0.4072(9) 0.4405(4) 0.1223(6)
H1 H 0.3399 0.4214 0.0865
H2 H 0.4246 0.4776 0.1103
O14 O 0.5653(8) 0.3246(3) 0.1291(5)
H3 H 0.5741 0.2868 0.1410
H4 H 0.5641 0.3375 0.0703
O15 O 0.4339(7) 0.4099(3) 0.3952(4)
H5 H 0.4268 0.3818 0.4372
H6 H 0.3992 0.4450 0.4055
O16 O 0.5667(8) 0.2936(3) 0.3337(5)
H7 H 0.4797 0.2790 0.3371
H8 H 0.6290 0.2904 0.3846
O17 O 0.7734(7) 0.3811(3) 0.3420(5)
H9 H 0.8354 0.4071 0.3235
H10 H 0.7761 0.3750 0.4038
O18 O 0.5781(9) 0.4917(3) 0.2947(5)
H11 H 0.6314 0.5192 0.2720
H12 H 0.5473 0.4981 0.3508
N1 N -0.0058(8) 0.2708(3) 0.1355(5)
N2 N -0.0339(8) 0.2266(3) 0.3166(5)
N3 N -0.0177(8) 0.4397(3) -0.0150(5)
C1 C 0.0815(9) 0.2927(4) 0.2117(6)
C2 C 0.0657(11) 0.2717(4) 0.3066(7)
C3 C -0.1199(10) 0.2045(4) 0.2406(6)
C4 C -0.1065(10) 0.2269(4) 0.1454(6)
C5 C 0.1983(11) 0.3374(4) 0.1824(7)
C6 C 0.1402(10) 0.2935(4) 0.4046(6)
C7 C -0.2365(11) 0.1588(4) 0.2725(6)
C8 C -0.1824(11) 0.2055(4) 0.0473(7)
C9 C 0.0717(10) 0.4698(4) -0.0709(6)
C10 C 0.0887(9) 0.5332(4) -0.0536(6)
C11 C 0.1362(10) 0.4291(4) -0.1473(7)
C12 C 0.1925(10) 0.5777(4) -0.1028(6)
Yb1C Yb -0.01770(4) 0.173776(16) -0.52386(3)
Yb1C_2 Yb -0.01770(4) 0.173776(16) 0.47614(3)
Yb1B Yb 0.01770(4) 0.673776(16) 0.02386(3)
Yb2C Yb 0.54513(4) 0.108993(17) -0.24594(3)
Yb2B Yb 0.45487(4) 0.608993(17) -0.25406(3)
Yb2_2 Yb -0.45487(4) 0.391007(17) 0.25406(3)
O1C O 0.1687(7) 0.1391(3) -0.4034(4)
O2C O 0.3118(7) 0.1542(3) -0.2606(4)
O3C O 0.1742(7) 0.1527(3) -0.0828(4)
O4C O 0.1523(7) 0.2482(3) -0.0301(4)
O4_2 O 0.1523(7) 0.2518(3) -0.5301(4)
O5C O -0.2022(7) 0.3620(3) -0.1400(4)
O5_2 O -0.2022(7) 0.1380(3) -0.6400(4)
O6C O -0.3533(7) 0.3500(3) -0.2802(5)
O7C O -0.2138(8) 0.3482(3) -0.4649(5)
O8C O -0.1961(7) 0.2524(3) -0.5176(4)
O9B O -0.1485(7) 0.6262(3) 0.1196(4)
O9C O 0.1485(7) 0.1262(3) -0.6196(4)
O10B O -0.1618(8) 0.5501(3) 0.2280(5)
O11B O -0.2829(7) 0.4410(3) 0.1587(4)
O11B_2 O 0.7171(7) 0.4410(3) 0.1587(4)
O11A O 0.7171(7) 0.0590(3) -0.3413(4)
O12B O -0.1760(7) 0.3675(3) 0.0779(5)
O12A O -0.1760(7) 0.1325(3) -0.4221(5)
O13C O 0.4072(9) 0.0595(4) -0.3777(6)
H1C H 0.3399 0.0786 -0.4135
H2C H 0.4246 0.0224 -0.3897
O14C O 0.5653(8) 0.1754(3) -0.3709(5)
H3C H 0.5741 0.2132 -0.3590
H4C H 0.5641 0.1625 -0.4297
O15C O 0.4339(7) 0.0901(3) -0.1048(4)
H5C H 0.4268 0.1182 -0.0628
H6C H 0.3992 0.0550 -0.0945
O16C O 0.5667(8) 0.2064(3) -0.1663(5)
H7C H 0.4797 0.2210 -0.1629
H8C H 0.6290 0.2096 -0.1154
O17C O 0.7734(7) 0.1189(3) -0.1580(5)
H9C H 0.8354 0.0929 -0.1765
H10C H 0.7761 0.1250 -0.0962
O18C O 0.5781(9) 0.0083(3) -0.2053(5)
H11C H 0.6314 -0.0192 -0.2280
H12C H 0.5473 0.0019 -0.1492
N1C N -0.0058(8) 0.2292(3) -0.3645(5)
N2C N -0.0339(8) 0.2734(3) -0.1834(5)
N2_2 N -0.0339(8) 0.2266(3) -0.6834(5)
N3B N 0.0177(8) 0.5603(3) 0.0150(5)
N3C N -0.0177(8) 0.0603(3) -0.5150(5)
C1C C 0.0815(9) 0.2073(4) -0.2883(6)
C2C C 0.0657(11) 0.2283(4) -0.1934(7)
C3C C -0.1199(10) 0.2955(4) -0.2594(6)
C4C C -0.1065(10) 0.2731(4) -0.3546(6)
C5C C 0.1983(11) 0.1626(4) -0.3176(7)
C6C C 0.1402(10) 0.2065(4) -0.0954(6)
C7C C -0.2365(11) 0.3412(4) -0.2275(6)
C8C C -0.1824(11) 0.2945(4) -0.4527(7)
C9B C -0.0717(10) 0.5302(4) 0.0709(6)
C10B C -0.0887(9) 0.4668(4) 0.0536(6)
C11B C -0.1362(10) 0.5709(4) 0.1473(7)
C12B C -0.1925(10) 0.4223(4) 0.1028(6)
O19 O 0.3818(8) 0.3111(3) 0.7932(5)
H13 H 0.4456 0.3366 0.7761
H14 H 0.3074 0.3248 0.8203
O20 O 0.1078(9) 0.4209(3) 0.5733(5)
H15 H 0.1308 0.3934 0.5335
H16 H 0.1685 0.4264 0.6246
O21 O 0.4415(7) 0.5609(3) 0.4226(5)
H17 H 0.4100 0.5930 0.3926
H18 H 0.3778 0.5409 0.4520
O22 O 0.9939(8) 0.5552(3) 0.7143(5)
H19 H 0.9237 0.5552 0.6673
H20 H 1.0437 0.5223 0.7228
O23 O 0.5687(8) 0.0622(3) 0.4225(5)
H21 H 0.6063 0.0614 0.4821
H22 H 0.6205 0.0919 0.4048
O24 O 0.1693(8) 0.5116(3) 0.4434(5)
H23 H 0.1706 0.4911 0.4963
H24 H 0.1008 0.5382 0.4442
O25 O 0.4090(8) 0.2743(3) 0.5952(5)
H25 H 0.3864 0.2900 0.6488
H26 H 0.3597 0.2865 0.5421
loop_
_geom_bond_atom_site_label_1
_geom_bond_atom_site_label_2
_geom_bond_site_symmetry_1
_geom_bond_site_symmetry_2
Yb1 O1 1_555 1_555
Yb2 O2 1_555 1_555
O1 C5 1_555 1_555
O2 C5 1_555 1_555
O3 C6 1_555 1_555
O4 C6 1_555 1_555
O5 C7 1_555 1_555
O6 C7 1_555 1_555
O7 C8 1_555 1_555
O8 Yb1 1_555 1_555
O9 Yb1 1_555 1_555
O10 C11 1_555 1_555
O11 C12 1_555 1_555
O12 C12 1_555 1_555
O13 Yb2 1_555 1_555
H1 O13 1_555 1_555
H2 O13 1_555 1_555
O14 Yb2 1_555 1_555
H3 O14 1_555 1_555
H4 O14 1_555 1_555
O15 Yb2 1_555 1_555
H5 O15 1_555 1_555
H6 O15 1_555 1_555
O16 Yb2 1_555 1_555
H7 O16 1_555 1_555
H8 O16 1_555 1_555
O17 Yb2 1_555 1_555
H9 O17 1_555 1_555
H10 O17 1_555 1_555
O18 Yb2 1_555 1_555
H11 O18 1_555 1_555
H12 O18 1_555 1_555
N1 Yb1 1_555 1_555
N2 C2 1_555 1_555
N3 Yb1 1_555 1_555
C1 N1 1_555 1_555
C2 C1 1_555 1_555
C3 N2 1_555 1_555
C4 N1 1_555 1_555
C5 C1 1_555 1_555
C6 C2 1_555 1_555
C7 C3 1_555 1_555
C8 O8 1_555 1_555
C9 N3 1_555 1_555
C10 C9 1_555 1_555
C11 O9 1_555 1_555
C12 C10 1_555 1_555
O19 H13 1_555 1_555
H14 O19 1_555 1_555
O20 H15 1_555 1_555
H16 O20 1_555 1_555
O21 H17 1_555 1_555
H18 O21 1_555 1_555
O22 H19 1_555 1_555
H20 O22 1_555 1_555
O23 H21 1_555 1_555
H22 O23 1_555 1_555
O24 H23 1_555 1_555
H24 O24 1_555 1_555
O25 H25 1_555 1_555
H26 O25 1_555 1_555
Yb1C O1C 1_555 1_555
Yb1C_2 O4 1_555 1_555
Yb1B O12 1_555 1_555
Yb2C O2C 1_555 1_555
Yb2B O11 1_555 1_555
Yb2_2 O11B 1_555 1_555
O1C C5C 1_555 1_555
O2C C5C 1_555 1_555
O3C C6C 1_555 1_555
O4C Yb1 1_555 1_555
O4_2 Yb1C 1_555 1_555
O5C Yb1 1_555 1_555
O5_2 Yb1C 1_555 1_555
O6C C7C 1_555 1_555
O7C C8C 1_555 1_555
O8C Yb1C 1_555 1_555
O9B Yb1B 1_555 1_555
O9C Yb1C 1_555 1_555
O10B C11B 1_555 1_555
O11B C12B 1_555 1_555
O11B_2 Yb2 1_555 1_555
O11A Yb2C 1_555 1_555
O12B Yb1 1_555 1_555
O12A Yb1C 1_555 1_555
O13C Yb2C 1_555 1_555
H1C O13C 1_555 1_555
H2C O13C 1_555 1_555
O14C Yb2C 1_555 1_555
H3C O14C 1_555 1_555
H4C O14C 1_555 1_555
O15C Yb2C 1_555 1_555
H5C O15C 1_555 1_555
H6C O15C 1_555 1_555
O16C Yb2C 1_555 1_555
H7C O16C 1_555 1_555
H8C O16C 1_555 1_555
O17C Yb2C 1_555 1_555
H9C O17C 1_555 1_555
H10C O17C 1_555 1_555
O18C Yb2C 1_555 1_555
H11C O18C 1_555 1_555
H12C O18C 1_555 1_555
N1C Yb1C 1_555 1_555
N2C Yb1 1_555 1_555
N2_2 Yb1C 1_555 1_555
N3B C10 1_555 1_555
N3C Yb1C 1_555 1_555
C1C N1C 1_555 1_555
C2C N2C 1_555 1_555
C3C N2C 1_555 1_555
C4C N1C 1_555 1_555
C5C C1C 1_555 1_555
C6C O4C 1_555 1_555
C7C O5C 1_555 1_555
C8C O8C 1_555 1_555
C9B N3B 1_555 1_555
C10B N3 1_555 1_555
C11B O9B 1_555 1_555
C12B O12B 1_555 1_555
O5 Yb1C_2 1_555 1_555
N2 Yb1C_2 1_555 1_555
C3 C4 1_555 1_555
C4 C8 1_555 1_555
C9 C11 1_555 1_555
Yb1B N3B 1_555 1_555
C1C C2C 1_555 1_555
C2C C6C 1_555 1_555
C3C C4C 1_555 1_555
C3C C7C 1_555 1_555
C4C C8C 1_555 1_555
C9B C10B 1_555 1_555
C9B C11B 1_555 1_555
C10B C12B 1_555 1_555

#END
