
#######################################################################
#
#                 Cambridge Crystallographic Data Centre
#                                CCDC 
#
#######################################################################
#
# If this CIF has been generated from an entry in the Cambridge 
# Structural Database, then it will include bibliographic, chemical, 
# crystal, experimental, refinement or atomic coordinate data resulting 
# from the CCDC's data processing and validation procedures.
#
#######################################################################

data_UGUHEK
_symmetry_cell_setting           monoclinic
_symmetry_space_group_name_H-M   'P 21/c'
_symmetry_Int_Tables_number      14
_space_group_name_Hall           '-P 2ybc'
loop_
_symmetry_equiv_pos_site_id
_symmetry_equiv_pos_as_xyz
1 x,y,z
2 -x,1/2+y,1/2-z
3 -x,-y,-z
4 x,1/2-y,1/2+z
_cell_length_a                   8.9399(18)
_cell_length_b                   22.103(4)
_cell_length_c                   13.693(3)
_cell_angle_alpha                90
_cell_angle_beta                 95.46(3)
_cell_angle_gamma                90
_cell_volume                     2693.44
loop_
_atom_site_label
_atom_site_type_symbol
_atom_site_fract_x
_atom_site_fract_y
_atom_site_fract_z
Er1 Er -0.01716(3) 0.326355(13) -0.02390(2)
Er2 Er 0.54650(3) 0.390913(14) 0.25544(2)
O1 O 0.1707(5) 0.3606(2) 0.0977(3)
O2 O 0.3113(5) 0.3457(2) 0.2403(3)
O3 O 0.1708(5) 0.3476(2) 0.4164(3)
O4 O 0.1541(5) 0.2525(2) 0.4687(3)
O5 O -0.2026(5) 0.1381(2) 0.3591(3)
O6 O -0.3514(5) 0.1505(2) 0.2194(3)
O7 O -0.2107(5) 0.1521(2) 0.0355(3)
O8 O -0.1965(5) 0.2477(2) -0.0163(3)
O9 O 0.1507(5) 0.3749(2) -0.1196(3)
O10 O 0.1575(6) 0.4500(2) -0.2278(3)
O11 O 0.2812(5) 0.5585(2) -0.1592(3)
O12 O 0.1767(5) 0.6316(2) -0.0785(3)
O13 O 0.4087(7) 0.4398(3) 0.1219(5)
H1 H 0.3414 0.4206 0.0861
H2 H 0.4261 0.4768 0.1099
O14 O 0.5667(6) 0.3233(3) 0.1302(4)
H3 H 0.5756 0.2855 0.1420
H4 H 0.5655 0.3362 0.0714
O15 O 0.4332(6) 0.4097(2) 0.3967(3)
H5 H 0.4261 0.3816 0.4387
H6 H 0.3985 0.4448 0.4070
O16 O 0.5669(6) 0.2932(2) 0.3361(4)
H7 H 0.4799 0.2786 0.3395
H8 H 0.6292 0.2900 0.3870
O17 O 0.7775(6) 0.3808(2) 0.3429(4)
H9 H 0.8395 0.4068 0.3244
H10 H 0.7801 0.3747 0.4047
O18 O 0.5807(6) 0.4924(2) 0.2967(4)
H11 H 0.6339 0.5200 0.2740
H12 H 0.5499 0.4989 0.3529
N1 N -0.0055(6) 0.2709(2) 0.1357(4)
N2 N -0.0329(6) 0.2272(2) 0.3164(4)
N3 N -0.0170(5) 0.4409(2) -0.0149(4)
C1 C 0.0816(7) 0.2928(3) 0.2116(5)
C2 C 0.0652(7) 0.2717(3) 0.3052(5)
C3 C -0.1193(7) 0.2046(3) 0.2406(5)
C4 C -0.1038(7) 0.2271(3) 0.1467(5)
C5 C 0.1983(7) 0.3377(3) 0.1820(5)
C6 C 0.1395(7) 0.2935(3) 0.4034(5)
C7 C -0.2355(7) 0.1595(3) 0.2732(5)
C8 C -0.1811(7) 0.2060(3) 0.0480(5)
C9 C 0.0714(7) 0.4707(3) -0.0703(4)
C10 C 0.0905(7) 0.5329(3) -0.0540(4)
C11 C 0.1352(8) 0.4297(3) -0.1466(5)
C12 C 0.1898(7) 0.5769(3) -0.1035(5)
Er1C Er -0.01716(3) 0.173645(13) -0.52390(2)
Er1C_2 Er -0.01716(3) 0.173645(13) 0.47610(2)
Er1B Er 0.01716(3) 0.673645(13) 0.02390(2)
Er2C Er 0.54650(3) 0.109087(14) -0.24456(2)
Er2B Er 0.45350(3) 0.609087(14) -0.25544(2)
Er2_2 Er -0.45350(3) 0.390913(14) 0.25544(2)
O1C O 0.1707(5) 0.1394(2) -0.4023(3)
O2C O 0.3113(5) 0.1543(2) -0.2597(3)
O3C O 0.1708(5) 0.1524(2) -0.0836(3)
O4C O 0.1541(5) 0.2475(2) -0.0313(3)
O4_2 O 0.1541(5) 0.2525(2) -0.5313(3)
O5C O -0.2026(5) 0.3619(2) -0.1409(3)
O5_2 O -0.2026(5) 0.1381(2) -0.6409(3)
O6C O -0.3514(5) 0.3495(2) -0.2806(3)
O7C O -0.2107(5) 0.3479(2) -0.4645(3)
O8C O -0.1965(5) 0.2523(2) -0.5163(3)
O9B O -0.1507(5) 0.6251(2) 0.1196(3)
O9C O 0.1507(5) 0.1251(2) -0.6196(3)
O10B O -0.1575(6) 0.5500(2) 0.2278(3)
O11B O -0.2812(5) 0.4415(2) 0.1592(3)
O11B_2 O 0.7188(5) 0.4415(2) 0.1592(3)
O11A O 0.7188(5) 0.0585(2) -0.3408(3)
O12B O -0.1767(5) 0.3684(2) 0.0785(3)
O12A O -0.1767(5) 0.1316(2) -0.4215(3)
O13C O 0.4087(7) 0.0602(3) -0.3781(5)
H1C H 0.3414 0.0794 -0.4139
H2C H 0.4261 0.0232 -0.3901
O14C O 0.5667(6) 0.1767(3) -0.3698(4)
H3C H 0.5756 0.2145 -0.3580
H4C H 0.5655 0.1638 -0.4286
O15C O 0.4332(6) 0.0903(2) -0.1033(3)
H5C H 0.4261 0.1184 -0.0613
H6C H 0.3985 0.0552 -0.0930
O16C O 0.5669(6) 0.2068(2) -0.1639(4)
H7C H 0.4799 0.2214 -0.1605
H8C H 0.6292 0.2100 -0.1130
O17C O 0.7775(6) 0.1192(2) -0.1571(4)
H9C H 0.8395 0.0932 -0.1756
H10C H 0.7801 0.1253 -0.0953
O18C O 0.5807(6) 0.0076(2) -0.2033(4)
H11C H 0.6339 -0.0200 -0.2260
H12C H 0.5499 0.0011 -0.1471
N1C N -0.0055(6) 0.2291(2) -0.3643(4)
N2C N -0.0329(6) 0.2728(2) -0.1836(4)
N2_2 N -0.0329(6) 0.2272(2) -0.6836(4)
N3B N 0.0170(5) 0.5591(2) 0.0149(4)
N3C N -0.0170(5) 0.0591(2) -0.5149(4)
C1C C 0.0816(7) 0.2072(3) -0.2884(5)
C2C C 0.0652(7) 0.2283(3) -0.1948(5)
C3C C -0.1193(7) 0.2954(3) -0.2594(5)
C4C C -0.1038(7) 0.2729(3) -0.3533(5)
C5C C 0.1983(7) 0.1623(3) -0.3180(5)
C6C C 0.1395(7) 0.2065(3) -0.0966(5)
C7C C -0.2355(7) 0.3405(3) -0.2268(5)
C8C C -0.1811(7) 0.2940(3) -0.4520(5)
C9B C -0.0714(7) 0.5293(3) 0.0703(4)
C10B C -0.0905(7) 0.4671(3) 0.0540(4)
C11B C -0.1352(8) 0.5703(3) 0.1466(5)
C12B C -0.1898(7) 0.4231(3) 0.1035(5)
O19 O 0.3823(6) 0.3109(2) 0.7931(4)
H13 H 0.4460 0.3364 0.7760
H14 H 0.3078 0.3246 0.8202
O20 O 0.1085(6) 0.4210(3) 0.5738(4)
H15 H 0.1315 0.3935 0.5340
H16 H 0.1691 0.4265 0.6250
O21 O 0.4414(6) 0.5616(2) 0.4220(4)
H17 H 0.4099 0.5936 0.3920
H18 H 0.3777 0.5416 0.4514
O22 O 0.9919(6) 0.5556(2) 0.7143(4)
H19 H 0.9216 0.5556 0.6673
H20 H 1.0417 0.5227 0.7228
O23 O 0.5718(7) 0.0611(2) 0.4238(4)
H21 H 0.6093 0.0603 0.4834
H22 H 0.6236 0.0908 0.4061
O24 O 0.1699(6) 0.5118(3) 0.4437(4)
H23 H 0.1711 0.4913 0.4966
H24 H 0.1013 0.5385 0.4445
O25 O 0.4084(6) 0.2745(2) 0.5956(4)
H25 H 0.3857 0.2902 0.6492
H26 H 0.3590 0.2867 0.5426
loop_
_geom_bond_atom_site_label_1
_geom_bond_atom_site_label_2
_geom_bond_site_symmetry_1
_geom_bond_site_symmetry_2
Er1 O1 1_555 1_555
Er2 O2 1_555 1_555
O1 C5 1_555 1_555
O2 C5 1_555 1_555
O3 C6 1_555 1_555
O4 C6 1_555 1_555
O5 C7 1_555 1_555
O6 C7 1_555 1_555
O7 C8 1_555 1_555
O8 Er1 1_555 1_555
O9 Er1 1_555 1_555
O10 C11 1_555 1_555
O11 C12 1_555 1_555
O12 C12 1_555 1_555
O13 Er2 1_555 1_555
H1 O13 1_555 1_555
H2 O13 1_555 1_555
O14 Er2 1_555 1_555
H3 O14 1_555 1_555
H4 O14 1_555 1_555
O15 Er2 1_555 1_555
H5 O15 1_555 1_555
H6 O15 1_555 1_555
O16 Er2 1_555 1_555
H7 O16 1_555 1_555
H8 O16 1_555 1_555
O17 Er2 1_555 1_555
H9 O17 1_555 1_555
H10 O17 1_555 1_555
O18 Er2 1_555 1_555
H11 O18 1_555 1_555
H12 O18 1_555 1_555
N1 Er1 1_555 1_555
N2 C2 1_555 1_555
N3 Er1 1_555 1_555
C1 N1 1_555 1_555
C2 C1 1_555 1_555
C3 N2 1_555 1_555
C4 N1 1_555 1_555
C5 C1 1_555 1_555
C6 C2 1_555 1_555
C7 C3 1_555 1_555
C8 O8 1_555 1_555
C9 N3 1_555 1_555
C10 C9 1_555 1_555
C11 O9 1_555 1_555
C12 C10 1_555 1_555
O19 H13 1_555 1_555
H14 O19 1_555 1_555
O20 H15 1_555 1_555
H16 O20 1_555 1_555
O21 H17 1_555 1_555
H18 O21 1_555 1_555
O22 H19 1_555 1_555
H20 O22 1_555 1_555
O23 H21 1_555 1_555
H22 O23 1_555 1_555
O24 H23 1_555 1_555
H24 O24 1_555 1_555
O25 H25 1_555 1_555
H26 O25 1_555 1_555
Er1C O1C 1_555 1_555
Er1C_2 O4 1_555 1_555
Er1B O12 1_555 1_555
Er2C O2C 1_555 1_555
Er2B O11 1_555 1_555
Er2_2 O11B 1_555 1_555
O1C C5C 1_555 1_555
O2C C5C 1_555 1_555
O3C C6C 1_555 1_555
O4C Er1 1_555 1_555
O4_2 Er1C 1_555 1_555
O5C Er1 1_555 1_555
O5_2 Er1C 1_555 1_555
O6C C7C 1_555 1_555
O7C C8C 1_555 1_555
O8C Er1C 1_555 1_555
O9B Er1B 1_555 1_555
O9C Er1C 1_555 1_555
O10B C11B 1_555 1_555
O11B C12B 1_555 1_555
O11B_2 Er2 1_555 1_555
O11A Er2C 1_555 1_555
O12B Er1 1_555 1_555
O12A Er1C 1_555 1_555
O13C Er2C 1_555 1_555
H1C O13C 1_555 1_555
H2C O13C 1_555 1_555
O14C Er2C 1_555 1_555
H3C O14C 1_555 1_555
H4C O14C 1_555 1_555
O15C Er2C 1_555 1_555
H5C O15C 1_555 1_555
H6C O15C 1_555 1_555
O16C Er2C 1_555 1_555
H7C O16C 1_555 1_555
H8C O16C 1_555 1_555
O17C Er2C 1_555 1_555
H9C O17C 1_555 1_555
H10C O17C 1_555 1_555
O18C Er2C 1_555 1_555
H11C O18C 1_555 1_555
H12C O18C 1_555 1_555
N1C Er1C 1_555 1_555
N2C Er1 1_555 1_555
N2_2 Er1C 1_555 1_555
N3B C10 1_555 1_555
N3C Er1C 1_555 1_555
C1C N1C 1_555 1_555
C2C N2C 1_555 1_555
C3C N2C 1_555 1_555
C4C N1C 1_555 1_555
C5C C1C 1_555 1_555
C6C O4C 1_555 1_555
C7C O5C 1_555 1_555
C8C O8C 1_555 1_555
C9B N3B 1_555 1_555
C10B N3 1_555 1_555
C11B O9B 1_555 1_555
C12B O12B 1_555 1_555
O5 Er1C_2 1_555 1_555
N2 Er1C_2 1_555 1_555
C3 C4 1_555 1_555
C4 C8 1_555 1_555
C9 C11 1_555 1_555
Er1B N3B 1_555 1_555
C1C C2C 1_555 1_555
C2C C6C 1_555 1_555
C3C C4C 1_555 1_555
C3C C7C 1_555 1_555
C4C C8C 1_555 1_555
C9B C10B 1_555 1_555
C9B C11B 1_555 1_555
C10B C12B 1_555 1_555

#END
