
#######################################################################
#
#                 Cambridge Crystallographic Data Centre
#                                CCDC 
#
#######################################################################
#
# If this CIF has been generated from an entry in the Cambridge 
# Structural Database, then it will include bibliographic, chemical, 
# crystal, experimental, refinement or atomic coordinate data resulting 
# from the CCDC's data processing and validation procedures.
#
#######################################################################

data_UGUHIO
_symmetry_cell_setting           triclinic
_symmetry_space_group_name_H-M   'P -1'
_symmetry_Int_Tables_number      2
_space_group_name_Hall           '-P 1'
loop_
_symmetry_equiv_pos_site_id
_symmetry_equiv_pos_as_xyz
1 x,y,z
2 -x,-y,-z
_cell_length_a                   10.1987(7)
_cell_length_b                   12.1765(8)
_cell_length_c                   12.6676(8)
_cell_angle_alpha                103.8970(10)
_cell_angle_beta                 105.9730(10)
_cell_angle_gamma                107.5480(10)
_cell_volume                     1349.43
loop_
_atom_site_label
_atom_site_type_symbol
_atom_site_fract_x
_atom_site_fract_y
_atom_site_fract_z
Co1 Co -0.43233(3) -0.53945(2) 0.39977(2)
Co2 Co 0.18759(3) -0.14002(2) 0.15257(3)
O1 O -0.00537(18) -0.28237(14) 0.12820(16)
O2 O -0.57507(16) -0.45437(13) 0.43620(12)
O3 O -0.60173(16) -0.70565(13) 0.31341(13)
O4 O -0.83137(17) -0.80781(15) 0.18112(15)
C1 C -0.4499(2) -0.61931(18) 0.09768(17)
H1 H -0.5196 -0.6941 0.0891
N1 N -0.54715(18) -0.51324(15) 0.22784(15)
O5 O -0.13629(18) -0.17843(14) 0.18411(16)
C2 C -0.6236(2) -0.39744(18) 0.37122(18)
C3 C -0.4488(2) -0.50956(17) 0.16461(16)
C4 C -0.1175(2) -0.27682(18) 0.14782(19)
C5 C -0.2407(2) -0.50689(19) 0.05907(19)
H2 H -0.1712 -0.5059 0.0244
C6 C -0.5700(2) -0.39892(18) 0.26976(18)
H3 H -0.6428 -0.3930 0.2059
H4 H -0.4775 -0.3284 0.2955
O6 O -0.7035(2) -0.34371(19) 0.38718(17)
C7 C -0.2377(2) -0.39727(18) 0.12627(18)
C8 C -0.3432(2) -0.39857(18) 0.17679(17)
H5 H -0.3432 -0.3246 0.2190
C9 C -0.7083(2) -0.71861(18) 0.22629(18)
C10 C -0.6918(2) -0.61969(18) 0.17046(18)
H6 H -0.7069 -0.6573 0.0890
H7 H -0.7697 -0.5898 0.1714
C11 C -0.3478(2) -0.61832(18) 0.04356(17)
C12 C -0.3498(2) -0.73632(18) -0.03041(18)
O7 O -0.45749(18) -0.83620(14) -0.05692(16)
N2 N -0.23670(19) -0.38280(16) 0.44995(15)
O8 O -0.24310(18) -0.72663(14) -0.06323(16)
N3 N -0.28397(19) -0.61549(16) 0.36012(16)
O9 O 0.38371(18) 0.00511(14) 0.17263(15)
O10 O 0.13690(19) -0.00551(14) 0.25177(16)
O11 O 0.0882(2) -0.11500(18) -0.00092(18)
C13 C -0.1290(2) -0.40427(19) 0.41644(18)
C14 C -0.3171(3) -0.7366(2) 0.3153(2)
H8 H -0.4032 -0.7920 0.3149
O12 O 0.3008(3) -0.15151(18) 0.31127(18)
C15 C -0.2164(2) -0.2661(2) 0.5021(2)
H9 H -0.2888 -0.2512 0.5274
C16 C 0.0164(3) -0.1885(2) 0.4828(2)
H10 H 0.1002 -0.1232 0.4923
C17 C -0.2273(3) -0.7818(2) 0.2695(2)
H11 H -0.2539 -0.8661 0.2375
C18 C -0.0611(3) -0.5743(2) 0.3210(2)
H12 H 0.0264 -0.5173 0.3251
C19 C -0.0010(2) -0.3084(2) 0.4315(2)
H13 H 0.0716 -0.3249 0.4075
C20 C -0.1571(2) -0.53550(19) 0.36359(17)
C21 C -0.0912(3) -0.1664(2) 0.5198(2)
H14 H -0.0803 -0.0863 0.5558
C22 C -0.0979(3) -0.6999(2) 0.2720(2)
H15 H -0.0363 -0.7283 0.2414
H17 H 0.318(4) -0.098(2) 0.373(2)
H18 H 0.296(4) -0.212(2) 0.333(3)
H19 H 0.142(3) 0.056(2) 0.230(3)
H20 H 0.045(2) -0.042(3) 0.229(3)
H21 H 0.419(4) -0.030(3) 0.127(3)
H22 H 0.368(4) 0.055(3) 0.138(3)
H23 H 0.126(3) -0.054(2) -0.021(3)
H24 H 0.001(2) -0.138(3) -0.049(3)
Co1A Co -0.56767(3) -0.46055(2) 0.60023(2)
Co2A Co -0.18759(3) -0.85998(2) -0.15257(3)
O2A O -0.42493(16) -0.54563(13) 0.56380(12)
O8A O 0.24310(18) -0.27337(14) 0.06323(16)
O13 O 0.2795(2) 0.08295(17) -0.02684(18)
H25 H 0.235(3) 0.113(3) -0.069(3)
H26 H 0.361(2) 0.103(3) -0.037(3)
O14 O -0.3122(3) -0.0934(2) 0.2923(2)
H28 H -0.392(3) -0.112(3) 0.231(2)
O15 O 0.3788(4) 0.0590(4) 0.5094(5)
H16 H 0.389(8) 0.082(6) 0.459(4)
H27 H 0.408(8) 0.108(4) 0.567(3)
O16 O -0.9363(4) -0.5099(4) 0.1313(4)
loop_
_geom_bond_atom_site_label_1
_geom_bond_atom_site_label_2
_geom_bond_site_symmetry_1
_geom_bond_site_symmetry_2
Co1 O2 1_555 1_555
Co2 O1 1_555 1_555
O1 C4 1_555 1_555
O2 C2 1_555 1_555
O3 Co1 1_555 1_555
O4 C9 1_555 1_555
C1 H1 1_555 1_555
N1 Co1 1_555 1_555
O5 C4 1_555 1_555
C2 C6 1_555 1_555
C3 C1 1_555 1_555
C4 C7 1_555 1_555
C5 H2 1_555 1_555
C6 N1 1_555 1_555
H3 C6 1_555 1_555
H4 C6 1_555 1_555
O6 C2 1_555 1_555
C7 C5 1_555 1_555
C8 C3 1_555 1_555
H5 C8 1_555 1_555
C9 O3 1_555 1_555
C10 N1 1_555 1_555
H6 C10 1_555 1_555
H7 C10 1_555 1_555
C11 C1 1_555 1_555
C12 C11 1_555 1_555
O7 C12 1_555 1_555
N2 Co1 1_555 1_555
O8 C12 1_555 1_555
N3 Co1 1_555 1_555
O9 Co2 1_555 1_555
O10 Co2 1_555 1_555
O11 Co2 1_555 1_555
C13 N2 1_555 1_555
C14 N3 1_555 1_555
H8 C14 1_555 1_555
O12 Co2 1_555 1_555
C15 N2 1_555 1_555
H9 C15 1_555 1_555
C16 H10 1_555 1_555
C17 C14 1_555 1_555
H11 C17 1_555 1_555
C18 H12 1_555 1_555
C19 C13 1_555 1_555
H13 C19 1_555 1_555
C20 N3 1_555 1_555
C21 C15 1_555 1_555
H14 C21 1_555 1_555
C22 C17 1_555 1_555
H15 C22 1_555 1_555
O13 H25 1_555 1_555
O14 H28 1_555 1_555
O15 H16 1_555 1_555
H17 O12 1_555 1_555
H18 O12 1_555 1_555
H19 O10 1_555 1_555
H20 O10 1_555 1_555
H21 O9 1_555 1_555
H22 O9 1_555 1_555
H23 O11 1_555 1_555
H24 O11 1_555 1_555
H26 O13 1_555 1_555
H27 O15 1_555 1_555
Co1A O2 1_555 1_555
Co2A O8 1_555 1_555
O2A Co1 1_555 1_555
O8A Co2 1_555 1_555
N1 C3 1_555 1_555
C5 C11 1_555 1_555
C7 C8 1_555 1_555
C9 C10 1_555 1_555
C13 C20 1_555 1_555
C16 C19 1_555 1_555
C16 C21 1_555 1_555
C18 C20 1_555 1_555
C18 C22 1_555 1_555
Co1A O2A 1_555 1_555

#END
