
#######################################################################
#
#                 Cambridge Crystallographic Data Centre
#                                CCDC 
#
#######################################################################
#
# If this CIF has been generated from an entry in the Cambridge 
# Structural Database, then it will include bibliographic, chemical, 
# crystal, experimental, refinement or atomic coordinate data resulting 
# from the CCDC's data processing and validation procedures.
#
#######################################################################

data_UGUHOU
_symmetry_cell_setting           triclinic
_symmetry_space_group_name_H-M   'P -1'
_symmetry_Int_Tables_number      2
_space_group_name_Hall           '-P 1'
loop_
_symmetry_equiv_pos_site_id
_symmetry_equiv_pos_as_xyz
1 x,y,z
2 -x,-y,-z
_cell_length_a                   10.0968(10)
_cell_length_b                   12.1101(12)
_cell_length_c                   12.5860(13)
_cell_angle_alpha                103.193(2)
_cell_angle_beta                 106.046(2)
_cell_angle_gamma                107.178(2)
_cell_volume                     1330.1
loop_
_atom_site_label
_atom_site_type_symbol
_atom_site_fract_x
_atom_site_fract_y
_atom_site_fract_z
Ni1 Ni 0.43490(3) 0.53857(2) 0.10136(2)
Ni2 Ni 0.18450(3) 0.85961(2) 0.65047(2)
O1 O 0.60639(15) 0.70232(13) 0.17692(12)
O2 O 0.83092(17) 0.80898(14) 0.31566(14)
O3 O 0.57645(15) 0.45516(13) 0.06281(12)
O4 O 0.71412(19) 0.35022(16) 0.11821(15)
O5 O 0.23355(18) 0.72726(14) 0.55688(15)
O6 O 0.13804(17) 0.17927(13) 0.31421(15)
O7 O 0.45334(18) 0.83412(14) 0.55556(15)
O8 O 0.37623(17) 1.00128(14) 0.66847(14)
O9 O 0.3055(2) 0.84381(17) 0.80200(16)
O10 O 0.0806(2) 0.88999(18) 0.50176(17)
O11 O 0.00275(17) 0.27988(13) 0.37163(15)
O12 O 0.13619(18) 0.99042(14) 0.75319(14)
C1 C 0.4484(2) 0.51085(19) 0.33577(17)
C2 C 0.4476(2) 0.61957(18) 0.40204(18)
H1 H 0.5184 0.6944 0.4118
C3 C 0.3434(2) 0.40001(19) 0.32415(18)
H2 H 0.3459 0.3266 0.2836
C4 C 0.3422(2) 0.61761(19) 0.45390(18)
C5 C 0.2343(2) 0.39750(19) 0.37264(18)
C6 C 0.2332(2) 0.50607(19) 0.43699(19)
H3 H 0.1601 0.5047 0.4688
C7 C 0.3432(2) 0.73564(19) 0.52723(18)
C8 C 0.1163(2) 0.27640(19) 0.35140(18)
C9 C 0.6924(2) 0.62115(19) 0.32830(18)
H4 H 0.7716 0.5909 0.3303
H5 H 0.7052 0.6600 0.4089
C10 C 0.5730(2) 0.40145(19) 0.23133(18)
H6 H 0.4808 0.3308 0.2058
H7 H 0.6462 0.3955 0.2961
C11 C 0.7099(2) 0.71816(19) 0.26828(18)
C12 C 0.6288(2) 0.40097(18) 0.13006(18)
C13 C 0.2236(2) 0.26716(19) -0.00098(19)
H8 H 0.2969 0.2518 -0.0259
C14 C 0.0976(3) 0.1683(2) -0.0179(2)
H9 H 0.0872 0.0882 -0.0528
C15 C -0.0115(3) 0.1915(2) 0.0180(2)
H10 H -0.0966 0.1269 0.0081
C16 C 0.0060(3) 0.3108(2) 0.0685(2)
H11 H -0.0674 0.3277 0.0922
C17 C 0.1346(2) 0.4056(2) 0.08357(18)
C18 C 0.1634(2) 0.53698(19) 0.13711(18)
C19 C 0.0664(3) 0.5769(2) 0.1792(2)
H12 H -0.0226 0.5208 0.1745
C20 C 0.1047(3) 0.7018(2) 0.2283(2)
H13 H 0.0423 0.7307 0.2584
C21 C 0.2361(3) 0.7830(2) 0.2322(2)
H14 H 0.2630 0.8673 0.2641
C22 C 0.3269(3) 0.7370(2) 0.1877(2)
H15 H 0.4147 0.7917 0.1892
N1 N 0.54735(19) 0.51512(15) 0.27131(15)
N2 N 0.24330(19) 0.38373(16) 0.04991(15)
N3 N 0.29303(19) 0.61608(16) 0.14253(15)
H16 H 0.043(2) 0.952(3) 0.732(4)
H17 H 0.416(4) 0.960(3) 0.629(3)
H18 H 0.351(4) 1.046(3) 0.628(3)
H19 H 0.129(4) 0.947(3) 0.482(4)
H20 H -0.006(3) 0.860(4) 0.446(3)
H21 H 0.135(4) 1.045(3) 0.723(3)
H23 H 0.320(5) 0.895(3) 0.867(2)
H24 H 0.294(5) 0.781(2) 0.824(3)
Ni1A Ni 0.56510(3) 0.46143(2) -0.10136(2)
Ni2A Ni -0.18450(3) 0.14039(2) 0.34953(2)
O3A O 0.42355(15) 0.54484(13) -0.06281(12)
O11A O -0.00275(17) 0.72012(13) 0.62837(15)
O13 O 0.2804(2) 1.08212(17) 0.47110(17)
H26 H 0.363(2) 1.102(3) 0.459(3)
H27 H 0.228(3) 1.117(3) 0.435(3)
O14 O 0.3234(3) 1.1004(2) 1.2025(2)
H22 H 0.253(4) 1.118(4) 1.227(4)
H25 H 0.410(3) 1.118(4) 1.256(3)
O15 O 0.3710(5) 1.0476(4) 0.9876(5)
O17 O 0.9390(12) 0.5144(11) 0.3698(10)
O16? O 0.3653(10) 0.9717(11) 1.0276(7)
loop_
_geom_bond_atom_site_label_1
_geom_bond_atom_site_label_2
_geom_bond_site_symmetry_1
_geom_bond_site_symmetry_2
Ni1 O1 1_555 1_555
Ni2 O5 1_555 1_555
O1 C11 1_555 1_555
O2 C11 1_555 1_555
O3 Ni1 1_555 1_555
O4 C12 1_555 1_555
O5 C7 1_555 1_555
O6 C8 1_555 1_555
O7 C7 1_555 1_555
O8 Ni2 1_555 1_555
O9 Ni2 1_555 1_555
O10 Ni2 1_555 1_555
O11 C8 1_555 1_555
O12 Ni2 1_555 1_555
C1 C2 1_555 1_555
C2 H1 1_555 1_555
C3 C1 1_555 1_555
H2 C3 1_555 1_555
C4 C2 1_555 1_555
C5 C3 1_555 1_555
C6 C4 1_555 1_555
H3 C6 1_555 1_555
C7 C4 1_555 1_555
C8 C5 1_555 1_555
C9 H4 1_555 1_555
H5 C9 1_555 1_555
C10 H6 1_555 1_555
H7 C10 1_555 1_555
C11 C9 1_555 1_555
C12 O3 1_555 1_555
C13 H8 1_555 1_555
C14 C13 1_555 1_555
H9 C14 1_555 1_555
C15 C14 1_555 1_555
H10 C15 1_555 1_555
C16 C15 1_555 1_555
H11 C16 1_555 1_555
C17 C16 1_555 1_555
C18 C17 1_555 1_555
C19 C18 1_555 1_555
H12 C19 1_555 1_555
C20 C19 1_555 1_555
H13 C20 1_555 1_555
C21 C20 1_555 1_555
H14 C21 1_555 1_555
C22 C21 1_555 1_555
H15 C22 1_555 1_555
N1 Ni1 1_555 1_555
N2 Ni1 1_555 1_555
N3 Ni1 1_555 1_555
O13 H26 1_555 1_555
O14 H22 1_555 1_555
H16 O12 1_555 1_555
H17 O8 1_555 1_555
H18 O8 1_555 1_555
H19 O10 1_555 1_555
H20 O10 1_555 1_555
H21 O12 1_555 1_555
H23 O9 1_555 1_555
H24 O9 1_555 1_555
H25 O14 1_555 1_555
H27 O13 1_555 1_555
Ni1A O3 1_555 1_555
Ni2A O11 1_555 1_555
O3A Ni1 1_555 1_555
O11A Ni2 1_555 1_555
C1 N1 1_555 1_555
C5 C6 1_555 1_555
C9 N1 1_555 1_555
C10 C12 1_555 1_555
C10 N1 1_555 1_555
C13 N2 1_555 1_555
C17 N2 1_555 1_555
C18 N3 1_555 1_555
C22 N3 1_555 1_555
Ni1A O3A 1_555 1_555

#END
