
#######################################################################
#
#                 Cambridge Crystallographic Data Centre
#                                CCDC 
#
#######################################################################
#
# If this CIF has been generated from an entry in the Cambridge 
# Structural Database, then it will include bibliographic, chemical, 
# crystal, experimental, refinement or atomic coordinate data resulting 
# from the CCDC's data processing and validation procedures.
#
#######################################################################

data_UGUJOW
_symmetry_cell_setting           monoclinic
_symmetry_space_group_name_H-M   'P 21/c'
_symmetry_Int_Tables_number      14
_space_group_name_Hall           '-P 2ybc'
loop_
_symmetry_equiv_pos_site_id
_symmetry_equiv_pos_as_xyz
1 x,y,z
2 -x,1/2+y,1/2-z
3 -x,-y,-z
4 x,1/2-y,1/2+z
_cell_length_a                   11.2948(2)
_cell_length_b                   9.6915(2)
_cell_length_c                   10.2869(3)
_cell_angle_alpha                90
_cell_angle_beta                 97.8560(10)
_cell_angle_gamma                90
_cell_volume                     1115.47
loop_
_atom_site_label
_atom_site_type_symbol
_atom_site_fract_x
_atom_site_fract_y
_atom_site_fract_z
Zn1 Zn -0.397360(16) 0.406536(17) -0.106640(16)
O1 O -0.22324(11) 0.24688(16) -0.06240(15)
O2 O -0.23432(11) 0.45627(14) -0.14322(14)
O3 O 0.15136(13) 0.00498(18) -0.0083(2)
O4 O 0.32683(12) 0.09944(15) -0.02730(17)
N1 N -0.44543(12) 0.15902(13) -0.43679(12)
N2 N -0.51729(13) 0.08949(13) -0.36189(14)
N3 N -0.45722(12) 0.28135(14) -0.25724(13)
C1 C -0.41241(16) 0.27270(18) -0.37112(16)
C2 C -0.52150(17) 0.16563(18) -0.25670(17)
C3 C -0.04278(15) 0.34808(19) -0.11829(17)
C4 C 0.02554(15) 0.2350(2) -0.07355(19)
C5 C 0.14801(15) 0.2317(2) -0.08187(18)
C6 C 0.20114(17) 0.3444(2) -0.1345(2)
C7 C 0.13319(18) 0.4581(2) -0.1787(2)
C8 C 0.01127(17) 0.4599(2) -0.1707(2)
C9 C -0.17403(15) 0.3487(2) -0.10700(17)
C10 C 0.21951(16) 0.1076(2) -0.03587(19)
H1 H -0.3648(19) 0.342(2) -0.403(2)
H2 H -0.5608(18) 0.145(2) -0.188(2)
H3 H 0.183(2) -0.065(3) 0.017(3)
H4 H -0.0055(18) 0.162(2) -0.044(2)
H5 H 0.284(2) 0.341(2) -0.141(2)
H6 H 0.1735(18) 0.537(2) -0.216(2)
H7 H -0.0314(19) 0.536(2) -0.197(2)
Zn1C Zn -0.397360(16) 0.093464(17) -0.606640(16)
Zn1A Zn -0.602640(16) -0.093464(17) -0.393360(16)
N1C N -0.44543(12) 0.34098(13) 0.06321(12)
N2A N -0.48271(13) 0.58949(13) -0.13811(14)
loop_
_geom_bond_atom_site_label_1
_geom_bond_atom_site_label_2
_geom_bond_site_symmetry_1
_geom_bond_site_symmetry_2
Zn1 O2 1_555 1_555
O1 C9 1_555 1_555
O2 C9 1_555 1_555
O3 C10 1_555 1_555
O4 C10 1_555 1_555
N1 N2 1_555 1_555
N2 C2 1_555 1_555
N3 Zn1 1_555 1_555
C1 N1 1_555 1_555
C2 N3 1_555 1_555
C3 C4 1_555 1_555
C4 C5 1_555 1_555
C5 C6 1_555 1_555
C6 C7 1_555 1_555
C7 C8 1_555 1_555
C8 C3 1_555 1_555
C9 C3 1_555 1_555
C10 C5 1_555 1_555
H1 C1 1_555 1_555
H2 C2 1_555 1_555
H3 O3 1_555 1_555
H4 C4 1_555 1_555
H5 C6 1_555 1_555
H6 C7 1_555 1_555
H7 C8 1_555 1_555
Zn1C N1 1_555 1_555
Zn1A N2 1_555 1_555
N1C Zn1 1_555 1_555
N2A Zn1 1_555 1_555
N3 C1 1_555 1_555

#END
