
#######################################################################
#
#                 Cambridge Crystallographic Data Centre
#                                CCDC 
#
#######################################################################
#
# If this CIF has been generated from an entry in the Cambridge 
# Structural Database, then it will include bibliographic, chemical, 
# crystal, experimental, refinement or atomic coordinate data resulting 
# from the CCDC's data processing and validation procedures.
#
#######################################################################

data_UGUKOX
_symmetry_cell_setting           monoclinic
_symmetry_space_group_name_H-M   'P 21/c'
_symmetry_Int_Tables_number      14
_space_group_name_Hall           '-P 2ybc'
loop_
_symmetry_equiv_pos_site_id
_symmetry_equiv_pos_as_xyz
1 x,y,z
2 -x,1/2+y,1/2-z
3 -x,-y,-z
4 x,1/2-y,1/2+z
_cell_length_a                   8.5870(12)
_cell_length_b                   20.054(3)
_cell_length_c                   9.8062(13)
_cell_angle_alpha                90
_cell_angle_beta                 90.701(3)
_cell_angle_gamma                90
_cell_volume                     1688.54
loop_
_atom_site_label
_atom_site_type_symbol
_atom_site_fract_x
_atom_site_fract_y
_atom_site_fract_z
Zn1 Zn 0.94829(8) 0.78016(4) 0.67510(7)
Zn2 Zn 0.44965(8) 0.77435(4) 0.86769(8)
Li1 Li 0.7269(13) 0.2980(6) 0.3811(11)
Li2 Li 0.7748(13) 0.7969(6) 0.4222(12)
P1 P 0.63006(19) 0.70000(8) 0.63809(17)
P2 P 0.86563(19) 1.20569(8) 0.59984(17)
O1 O 0.7228(6) 0.3752(2) 0.4850(5)
O2 O 0.5915(5) 0.3656(2) 0.6789(5)
O3 O 0.4781(4) 0.7150(2) 0.7126(4)
O4 O 0.7692(4) 0.7243(2) 0.7232(4)
O5 O 0.6311(5) 0.7298(2) 0.4959(4)
O6 O 0.9268(5) 0.8742(2) 0.7084(5)
O7 O 0.7587(5) 0.8731(2) 0.5346(5)
O8 O 0.7182(5) 1.2303(2) 0.5295(4)
O9 O 0.8770(4) 1.2299(2) 0.7470(4)
O10 O 1.0108(4) 1.2275(2) 0.5235(4)
C1 C 0.6624(8) 0.3997(4) 0.5864(8)
C2 C 0.6631(7) 0.4732(3) 0.6061(7)
C3 C 0.5705(8) 0.5027(3) 0.7025(7)
H1 H 0.5135 0.4762 0.7616
C4 C 0.5617(8) 0.5705(3) 0.7121(7)
H2 H 0.4998 0.5896 0.7788
C5 C 0.6432(7) 0.6112(3) 0.6247(7)
C6 C 0.7377(8) 0.5812(3) 0.5283(7)
H3 H 0.7955 0.6074 0.4693
C7 C 0.7460(8) 0.5132(3) 0.5202(7)
H4 H 0.8092 0.4938 0.4549
C8 C 0.8410(8) 0.9042(4) 0.6194(7)
C9 C 0.8441(8) 0.9774(3) 0.6175(7)
C10 C 0.7469(8) 1.0123(3) 0.5298(7)
H5 H 0.6765 0.9893 0.4743
C11 C 0.7535(8) 1.0812(3) 0.5240(7)
H6 H 0.6885 1.1041 0.4637
C12 C 0.8553(7) 1.1162(3) 0.6065(7)
C13 C 0.9518(7) 1.0806(3) 0.6948(7)
H7 H 1.0209 1.1036 0.7513
C14 C 0.9475(8) 1.0131(3) 0.7005(7)
H8 H 1.0139 0.9904 0.7602
Zn1A Zn 1.05171(8) 1.28016(4) 0.82490(7)
Zn1B Zn 1.05171(8) 1.21984(4) 0.32490(7)
Zn2A Zn 0.55035(8) 0.27435(4) 0.63231(8)
Zn2C Zn 0.44965(8) 0.72565(4) 0.36769(8)
Zn2A_2 Zn 0.55035(8) 1.27435(4) 0.63231(8)
Li1B Li 0.2731(13) 0.7020(6) 0.6189(11)
Li1_2 Li 0.7269(13) 1.2980(6) 0.3811(11)
Li1C Li 0.7269(13) 1.2020(6) 0.8811(11)
Li2C Li 0.7748(13) 0.7031(6) 0.9222(12)
Li2B Li 1.2252(13) 1.2031(6) 0.5778(12)
O2A O 0.4085(5) 0.8656(2) 0.8211(5)
O3B O 0.5219(4) 0.2850(2) 0.2874(4)
O4C O 0.7692(4) 0.7757(2) 0.2232(4)
O5C O 0.6311(5) 0.7702(2) 0.9959(4)
O8A O 0.2818(5) 0.7303(2) 0.9705(4)
O8_2 O 0.7182(5) 0.2303(2) 0.5295(4)
O9A O 1.1230(4) 0.7299(2) 0.7530(4)
O9C O 0.8770(4) 0.2701(2) 0.2470(4)
O10B O 0.9892(4) 0.7725(2) 0.4765(4)
loop_
_geom_bond_atom_site_label_1
_geom_bond_atom_site_label_2
_geom_bond_site_symmetry_1
_geom_bond_site_symmetry_2
Zn1 O4 1_555 1_555
Zn2 O3 1_555 1_555
Li1 O1 1_555 1_555
Li2 O5 1_555 1_555
P1 O3 1_555 1_555
P2 O8 1_555 1_555
O1 C1 1_555 1_555
O2 C1 1_555 1_555
O3 Li1B 1_555 1_555
O4 P1 1_555 1_555
O5 P1 1_555 1_555
O6 Zn1 1_555 1_555
O7 Li2 1_555 1_555
O8 Zn2A_2 1_555 1_555
O9 P2 1_555 1_555
O10 P2 1_555 1_555
C1 C2 1_555 1_555
C2 C3 1_555 1_555
C3 H1 1_555 1_555
C4 C3 1_555 1_555
H2 C4 1_555 1_555
C5 P1 1_555 1_555
C6 C5 1_555 1_555
H3 C6 1_555 1_555
C7 C2 1_555 1_555
H4 C7 1_555 1_555
C8 O6 1_555 1_555
C9 C8 1_555 1_555
C10 C9 1_555 1_555
H5 C10 1_555 1_555
C11 C10 1_555 1_555
H6 C11 1_555 1_555
C12 P2 1_555 1_555
C13 C12 1_555 1_555
H7 C13 1_555 1_555
C14 C9 1_555 1_555
H8 C14 1_555 1_555
Zn1A O9 1_555 1_555
Zn1B O10 1_555 1_555
Zn2A O2 1_555 1_555
Zn2C O5 1_555 1_555
Li1_2 O8 1_555 1_555
Li1C O9 1_555 1_555
Li2C O4 1_555 1_555
Li2B O10 1_555 1_555
O2A Zn2 1_555 1_555
O3B Li1 1_555 1_555
O4C Li2 1_555 1_555
O5C Zn2 1_555 1_555
O8A Zn2 1_555 1_555
O8_2 Li1 1_555 1_555
O9A Zn1 1_555 1_555
O9C Li1 1_555 1_555
O10B Zn1 1_555 1_555
Li2 O10B 1_555 1_555
O7 C8 1_555 1_555
C4 C5 1_555 1_555
C6 C7 1_555 1_555
C11 C12 1_555 1_555
C13 C14 1_555 1_555
Zn2A O8_2 1_555 1_555
Li2C O5C 1_555 1_555

#END
