
#######################################################################
#
#                 Cambridge Crystallographic Data Centre
#                                CCDC 
#
#######################################################################
#
# If this CIF has been generated from an entry in the Cambridge 
# Structural Database, then it will include bibliographic, chemical, 
# crystal, experimental, refinement or atomic coordinate data resulting 
# from the CCDC's data processing and validation procedures.
#
#######################################################################

data_UGUKEN
_symmetry_cell_setting           triclinic
_symmetry_space_group_name_H-M   'P -1'
_symmetry_Int_Tables_number      2
_space_group_name_Hall           '-P 1'
loop_
_symmetry_equiv_pos_site_id
_symmetry_equiv_pos_as_xyz
1 x,y,z
2 -x,-y,-z
_cell_length_a                   6.782(2)
_cell_length_b                   9.375(3)
_cell_length_c                   11.223(4)
_cell_angle_alpha                94.659(4)
_cell_angle_beta                 92.078(5)
_cell_angle_gamma                91.662(5)
_cell_volume                     710.381
loop_
_atom_site_label
_atom_site_type_symbol
_atom_site_fract_x
_atom_site_fract_y
_atom_site_fract_z
Ag1 Ag 0.0000 0.0000 1.0000
Ag2 Ag -0.56452(4) -0.00918(3) 0.87291(2)
O1 O -0.2467(4) 0.1442(3) 0.9103(2)
O2 O -0.2660(4) 0.8044(3) 1.0571(2)
O3 O -0.3951(4) 0.7879(3) 0.8715(2)
O4 O -0.0967(4) 0.1240(3) 1.18809(19)
O5 O 0.1363(4) 0.2372(3) 1.7270(2)
H1 H 0.1831 0.2283 1.7943
O6 O 0.3821(4) 0.0974(3) 1.6725(2)
N1 N -0.2532(4) 0.2850(3) 0.9215(3)
N2 N -0.0123(4) 0.1378(3) 1.2970(2)
C1 C -0.2181(5) 0.3576(4) 1.0296(3)
H2 H -0.1842 0.3082 1.0956
C2 C -0.2321(5) 0.5033(3) 1.0425(3)
H3 H -0.2068 0.5524 1.1171
C3 C -0.2834(4) 0.5776(3) 0.9458(3)
C4 C -0.3159(5) 0.7357(4) 0.9583(3)
C5 C -0.3153(5) 0.5009(4) 0.8354(3)
H4 H -0.3478 0.5487 0.7684
C6 C -0.2992(5) 0.3557(4) 0.8247(3)
H5 H -0.3200 0.3052 0.7503
C7 C -0.0898(5) 0.2268(4) 1.3818(3)
H6 H -0.1996 0.2791 1.3631
C8 C -0.0073(5) 0.2407(4) 1.4958(3)
H7 H -0.0603 0.3032 1.5540
C9 C 0.1539(5) 0.1622(4) 1.5240(3)
C10 C 0.2390(5) 0.1638(4) 1.6474(3)
C11 C 0.2322(5) 0.0741(4) 1.4342(3)
H8 H 0.3433 0.0221 1.4506
C12 C 0.1476(5) 0.0630(4) 1.3215(3)
H9 H 0.2011 0.0034 1.2615
Ag1_2 Ag 0.0000 1.0000 1.0000
Ag1_3 Ag 0.0000 -1.0000 1.0000
Ag2A Ag 0.56452(4) 0.00918(3) 1.12709(2)
Ag2_2 Ag 0.43548(4) -0.00918(3) 0.87291(2)
Ag2A_2 Ag -0.43548(4) 0.00918(3) 1.12709(2)
Ag2A_3 Ag -0.43548(4) 1.00918(3) 1.12709(2)
Ag2_3 Ag -0.56452(4) 0.99082(3) 0.87291(2)
Ag2_4 Ag 0.43548(4) -0.00918(3) 1.87291(2)
Ag2_5 Ag 0.43548(4) -1.00918(3) 0.87291(2)
Ag2A_4 Ag 0.56452(4) -0.99082(3) 1.12709(2)
Ag2A_5 Ag -0.43548(4) 0.00918(3) 0.12709(2)
O1A O 0.2467(4) -0.1442(3) 1.0897(2)
O2A O 0.2660(4) -0.8044(3) 0.9429(2)
O2_2 O -0.2660(4) -0.1956(3) 1.0571(2)
O2A_2 O 0.2660(4) 0.1956(3) 0.9429(2)
O2A_3 O -0.7340(4) 0.1956(3) 0.9429(2)
O2_3 O 0.7340(4) -0.1956(3) 1.0571(2)
O3A O 0.3951(4) -0.7879(3) 1.1285(2)
O3_2 O -0.3951(4) -0.2121(3) 0.8715(2)
O3A_2 O 0.3951(4) 0.2121(3) 1.1285(2)
O4A O 0.0967(4) -0.1240(3) 0.81191(19)
O4A_2 O -0.9033(4) -0.1240(3) 0.81191(19)
O4_2 O 0.9033(4) 0.1240(3) 1.18809(19)
O5A O -0.1363(4) -0.2372(3) 0.2730(2)
H1A H -0.1831 -0.2283 0.2057
O6A O -0.3821(4) -0.0974(3) 0.3275(2)
O6_2 O -0.6179(4) 0.0974(3) 0.6725(2)
O6A_2 O 0.6179(4) -0.0974(3) 1.3275(2)
N1A N 0.2532(4) -0.2850(3) 1.0785(3)
N2A N 0.0123(4) -0.1378(3) 0.7030(2)
C1A C 0.2181(5) -0.3576(4) 0.9704(3)
H2A H 0.1842 -0.3082 0.9044
C2A C 0.2321(5) -0.5033(3) 0.9575(3)
H3A H 0.2068 -0.5524 0.8829
C3A C 0.2834(4) -0.5776(3) 1.0542(3)
C4A C 0.3159(5) -0.7357(4) 1.0417(3)
C5A C 0.3153(5) -0.5009(4) 1.1646(3)
H4A H 0.3478 -0.5487 1.2316
C6A C 0.2992(5) -0.3557(4) 1.1753(3)
H5A H 0.3200 -0.3052 1.2497
C7A C 0.0898(5) -0.2268(4) 0.6182(3)
H6A H 0.1996 -0.2791 0.6369
C8A C 0.0073(5) -0.2407(4) 0.5042(3)
H7A H 0.0603 -0.3032 0.4460
C9A C -0.1539(5) -0.1622(4) 0.4760(3)
C10A C -0.2390(5) -0.1638(4) 0.3526(3)
C11A C -0.2322(5) -0.0741(4) 0.5658(3)
H8A H -0.3433 -0.0221 0.5494
C12A C -0.1476(5) -0.0630(4) 0.6785(3)
H9A H -0.2011 -0.0034 0.7385
Cl1 Cl 0.5000 0.5000 0.5000
O7 O 0.3734(10) 0.4797(9) 0.6027(6)
O8 O 0.6974(9) 0.5074(9) 0.5493(6)
O7A O 0.6266(10) 0.5203(9) 0.3973(6)
O8A O 0.3026(9) 0.4926(9) 0.4507(6)
O9? O 0.4508(12) 0.6228(8) 0.4500(7)
O10? O 0.4740(12) 0.3742(8) 0.4192(6)
loop_
_geom_bond_atom_site_label_1
_geom_bond_atom_site_label_2
_geom_bond_site_symmetry_1
_geom_bond_site_symmetry_2
Ag1 O1 1_555 1_555
Ag2 O1 1_555 1_555
O1 N1 1_555 1_555
O2 C4 1_555 1_555
O3 C4 1_555 1_555
O4 Ag1 1_555 1_555
O5 H1 1_555 1_555
O6 C10 1_555 1_555
N1 C1 1_555 1_555
N2 O4 1_555 1_555
C1 H2 1_555 1_555
C2 C1 1_555 1_555
H3 C2 1_555 1_555
C3 C2 1_555 1_555
C4 C3 1_555 1_555
C5 C3 1_555 1_555
H4 C5 1_555 1_555
C6 N1 1_555 1_555
H5 C6 1_555 1_555
C7 N2 1_555 1_555
H6 C7 1_555 1_555
C8 C7 1_555 1_555
H7 C8 1_555 1_555
C9 C8 1_555 1_555
C10 O5 1_555 1_555
C11 C9 1_555 1_555
H8 C11 1_555 1_555
C12 N2 1_555 1_555
H9 C12 1_555 1_555
Cl1 O7 1_555 1_555
O8 Cl1 1_555 1_555
Ag1_2 O2 1_555 1_555
Ag1_3 O2A 1_555 1_555
Ag2A O1A 1_555 1_555
Ag2_2 O2A_2 1_555 1_555
Ag2A_2 O4 1_555 1_555
Ag2A_3 O2 1_555 1_555
Ag2_3 O3 1_555 1_555
Ag2_4 O6 1_555 1_555
Ag2_5 O2A 1_555 1_555
Ag2A_4 O3A 1_555 1_555
Ag2A_5 O6A 1_555 1_555
O1A Ag1 1_555 1_555
O2A C4A 1_555 1_555
O2_2 Ag1 1_555 1_555
O2A_2 Ag1 1_555 1_555
O2A_3 Ag2 1_555 1_555
O2_3 Ag2A 1_555 1_555
O3A C4A 1_555 1_555
O3_2 Ag2 1_555 1_555
O3A_2 Ag2A 1_555 1_555
O4A Ag1 1_555 1_555
O4A_2 Ag2 1_555 1_555
O4_2 Ag2A 1_555 1_555
O5A H1A 1_555 1_555
O6A C10A 1_555 1_555
O6_2 Ag2 1_555 1_555
O6A_2 Ag2A 1_555 1_555
N1A O1A 1_555 1_555
N2A O4A 1_555 1_555
C1A N1A 1_555 1_555
H2A C1A 1_555 1_555
C2A C1A 1_555 1_555
H3A C2A 1_555 1_555
C3A C2A 1_555 1_555
C4A C3A 1_555 1_555
C5A C3A 1_555 1_555
H4A C5A 1_555 1_555
C6A N1A 1_555 1_555
H5A C6A 1_555 1_555
C7A N2A 1_555 1_555
H6A C7A 1_555 1_555
C8A C7A 1_555 1_555
H7A C8A 1_555 1_555
C9A C8A 1_555 1_555
C10A O5A 1_555 1_555
C11A C9A 1_555 1_555
H8A C11A 1_555 1_555
C12A N2A 1_555 1_555
H9A C12A 1_555 1_555
O7A Cl1 1_555 1_555
O8A Cl1 1_555 1_555
C5 C6 1_555 1_555
C9 C10 1_555 1_555
C11 C12 1_555 1_555
Ag2_2 O4A 1_555 1_555
Ag2A_2 O2_2 1_555 1_555
C5A C6A 1_555 1_555
C9A C10A 1_555 1_555
C11A C12A 1_555 1_555

#END
