
#######################################################################
#
#                 Cambridge Crystallographic Data Centre
#                                CCDC 
#
#######################################################################
#
# If this CIF has been generated from an entry in the Cambridge 
# Structural Database, then it will include bibliographic, chemical, 
# crystal, experimental, refinement or atomic coordinate data resulting 
# from the CCDC's data processing and validation procedures.
#
#######################################################################

data_UGUQOC
_symmetry_cell_setting           monoclinic
_symmetry_space_group_name_H-M   'C 2/c'
_symmetry_Int_Tables_number      15
_space_group_name_Hall           '-C 2yn'
loop_
_symmetry_equiv_pos_site_id
_symmetry_equiv_pos_as_xyz
1 x,y,z
2 1/2+x,1/2+y,z
3 x,-y,1/2+z
4 1/2+x,1/2-y,1/2+z
5 -x,-y,-z
6 1/2-x,1/2-y,-z
7 -x,y,1/2-z
8 1/2-x,1/2+y,1/2-z
_cell_length_a                   11.555(2)
_cell_length_b                   15.300(3)
_cell_length_c                   11.072(2)
_cell_angle_alpha                90
_cell_angle_beta                 91.97(3)
_cell_angle_gamma                90
_cell_volume                     1956.28
loop_
_atom_site_label
_atom_site_type_symbol
_atom_site_fract_x
_atom_site_fract_y
_atom_site_fract_z
Zn1 Zn 0.5000 0.494950(16) 0.2500
O1 O 0.38370(12) 0.56214(9) 0.15306(13)
O2 O 0.52526(13) 0.65120(11) 0.09969(16)
O3 O 0.3548(2) 0.65331(13) -0.27795(15)
O4 O 0.41022(13) 0.56661(9) -0.12755(14)
C1 C 0.42225(17) 0.62977(12) 0.10034(17)
C2 C 0.33176(16) 0.68962(11) 0.04435(17)
C3 C 0.27625(18) 0.74539(13) 0.12211(18)
C4 C 0.30524(16) 0.69379(12) -0.07962(17)
C5 C 0.36041(17) 0.63458(13) -0.16921(18)
H1 H 0.302(3) 0.748(2) 0.212(3)
C4E C 0.19476(16) 0.80621(12) 0.07962(17)
C2E C 0.16824(16) 0.81038(11) -0.04435(17)
C1E C 0.07775(17) 0.87023(12) -0.10034(17)
O1E O 0.11630(12) 0.93786(9) -0.15306(13)
O2E O -0.02526(13) 0.84880(11) -0.09969(16)
C3E C 0.22375(18) 0.75461(13) -0.12211(18)
H1E H 0.198(3) 0.752(2) -0.212(3)
C5E C 0.13959(17) 0.86542(13) 0.16921(18)
O3E O 0.1452(2) 0.84669(13) 0.27795(15)
O4E O 0.08978(13) 0.93339(9) 0.12755(14)
O1F O 0.61630(12) 0.56214(9) 0.34694(13)
O4B O 0.41022(13) 0.43339(9) 0.37245(14)
O4D O 0.58978(13) 0.43339(9) 0.12755(14)
Zn1B Zn 0.5000 0.505050(16) -0.2500
Zn1C Zn 0.0000 1.005050(16) -0.2500
Zn1A Zn 0.0000 0.994950(16) 0.2500
N1 N 0.7271(3) 0.5761(2) 0.0020(3)
H2 H 0.774(6) 0.630(5) 0.020(6)
H3 H 0.741(9) 0.520(6) 0.044(11)
H4 H 0.668(7) 0.587(4) 0.046(7)
H5 H 0.695(8) 0.573(5) -0.088(9)
O5 O 0.1645(4) 0.5424(5) 0.2555(6)
O6 O 0.0000 0.5920(11) 0.7500
O7 O 0.3966(5) 0.2159(4) 0.0572(6)
O9 O 0.4212(7) 0.9401(5) 0.012(2)
O8? O 0.4277(6) 0.1764(5) -0.0637(11)
O10? O 0.4706(12) 0.1707(6) 0.1937(10)
loop_
_geom_bond_atom_site_label_1
_geom_bond_atom_site_label_2
_geom_bond_site_symmetry_1
_geom_bond_site_symmetry_2
Zn1 O1 1_555 1_555
O1 C1 1_555 1_555
O2 C1 1_555 1_555
O3 C5 1_555 1_555
O4 C5 1_555 1_555
C1 C2 1_555 1_555
C2 C3 1_555 1_555
C3 H1 1_555 1_555
C4 C2 1_555 1_555
C5 C4 1_555 1_555
N1 H2 1_555 1_555
H3 N1 1_555 1_555
H4 N1 1_555 1_555
H5 N1 1_555 1_555
C4E C3 1_555 1_555
C2E C4E 1_555 1_555
C1E C2E 1_555 1_555
O1E C1E 1_555 1_555
O2E C1E 1_555 1_555
C3E C4 1_555 1_555
H1E C3E 1_555 1_555
C5E C4E 1_555 1_555
O3E C5E 1_555 1_555
O4E C5E 1_555 1_555
O1F Zn1 1_555 1_555
O4B Zn1 1_555 1_555
O4D Zn1 1_555 1_555
Zn1B O4 1_555 1_555
Zn1C O1E 1_555 1_555
Zn1A O4E 1_555 1_555
C2E C3E 1_555 1_555

#END
