
#######################################################################
#
#                 Cambridge Crystallographic Data Centre
#                                CCDC 
#
#######################################################################
#
# If this CIF has been generated from an entry in the Cambridge 
# Structural Database, then it will include bibliographic, chemical, 
# crystal, experimental, refinement or atomic coordinate data resulting 
# from the CCDC's data processing and validation procedures.
#
#######################################################################

data_UGUQUK
_symmetry_cell_setting           monoclinic
_symmetry_space_group_name_H-M   'P 21/n'
_symmetry_Int_Tables_number      14
_space_group_name_Hall           '-P 2yn'
loop_
_symmetry_equiv_pos_site_id
_symmetry_equiv_pos_as_xyz
1 x,y,z
2 1/2-x,1/2+y,1/2-z
3 -x,-y,-z
4 1/2+x,1/2-y,1/2+z
_cell_length_a                   10.540(2)
_cell_length_b                   13.509(3)
_cell_length_c                   30.526(6)
_cell_angle_alpha                90
_cell_angle_beta                 90.14(3)
_cell_angle_gamma                90
_cell_volume                     4346.43
loop_
_atom_site_label
_atom_site_type_symbol
_atom_site_fract_x
_atom_site_fract_y
_atom_site_fract_z
Co1 Co -0.27885(3) 0.16713(3) 0.048305(12)
Co2 Co 0.17814(4) 0.66651(3) 0.213872(12)
C1 C 0.8581(3) 0.8130(2) 0.18085(11)
O1 O 0.67774(19) 1.07562(15) 0.09652(7)
O2 O 0.3770(2) 0.52671(16) 0.19049(7)
O3 O 0.17805(19) 0.55957(15) 0.17012(7)
N1 N -0.1121(2) 0.24229(18) 0.04363(8)
N2 N 0.2218(2) 0.41081(18) 0.49031(8)
O4 O 0.54649(19) 0.22733(16) 0.03920(7)
N3 N 0.5166(2) 0.82441(19) 0.20686(8)
N4 N 0.0718(2) 0.31469(18) 0.05166(8)
O5 O 0.63321(18) 0.29418(16) 0.09802(7)
C2 C 0.1060(3) 0.6421(2) 0.30758(10)
H1 H 0.0443 0.6882 0.3000
N5 N 0.1866(2) 0.61015(19) 0.27648(8)
O6 O 0.8695(2) 1.02321(18) 0.07840(8)
C3 C 0.4138(3) 0.3292(2) 0.08385(9)
C4 C 0.2843(3) 0.5136(2) 0.16618(9)
N6 N 0.3324(3) 0.75424(19) 0.21496(8)
N7 N -0.0788(2) 0.28271(18) 0.00343(8)
C5 C 0.5397(3) 0.2815(2) 0.07336(10)
C6 C 0.0308(3) 0.3266(2) 0.00883(10)
N8 N 0.3616(3) 0.8047(2) 0.25300(9)
H2 H 0.3151 0.8080 0.2761
C7 C 0.1010(3) 0.4765(2) 0.43062(9)
H3 H 0.0218 0.4913 0.4188
C8 C 0.1889(3) 0.3454(2) 0.07242(9)
C9 C 0.6464(3) 0.9239(2) 0.15748(10)
H4 H 0.5759 0.9625 0.1508
C10 C -0.0214(3) 0.2616(2) 0.07214(9)
C11 C 0.7726(3) 1.0167(2) 0.10123(10)
C12 C 0.2913(3) 0.4406(2) 0.12898(9)
C13 C 0.0922(3) 0.3840(2) -0.02637(10)
C14 C 0.1818(3) 0.4156(2) 0.10558(9)
H5 H 0.1048 0.4457 0.1122
C15 C 0.4064(3) 0.3972(2) 0.11769(9)
H6 H 0.4794 0.4141 0.1331
C16 C 0.2113(3) 0.5006(2) 0.40794(9)
C17 C 0.1115(3) 0.6089(2) 0.35044(10)
H7 H 0.0534 0.6320 0.3709
C18 C 0.3268(3) 0.4815(2) 0.42837(9)
H8 H 0.4025 0.4977 0.4145
C19 C 0.2039(3) 0.5410(2) 0.36282(9)
C20 C 0.1103(3) 0.4305(2) 0.47090(9)
H9 H 0.0361 0.4123 0.4852
C21 C 0.3225(3) 0.7348(2) 0.11584(11)
H10 H 0.2493 0.7635 0.1271
C22 C 0.3030(3) 0.3019(2) 0.06077(9)
H11 H 0.3065 0.2557 0.0382
C23 C 0.7613(3) 0.9400(2) 0.13611(10)
C24 C 0.7432(3) 0.7953(2) 0.20142(10)
H12 H 0.7366 0.7478 0.2233
C25 C 0.2869(3) 0.5075(3) 0.33011(10)
H13 H 0.3494 0.4612 0.3367
C26 C 0.8659(3) 0.8831(2) 0.14791(11)
H14 H 0.9425 0.8924 0.1334
C27 C 0.1861(3) 0.5009(3) -0.09449(11)
H15 H 0.2174 0.5397 -0.1172
C28 C 0.3285(3) 0.4384(2) 0.46930(10)
H16 H 0.4063 0.4280 0.4830
C29 C 0.0662(3) 0.3595(2) -0.06980(10)
H17 H 0.0175 0.3038 -0.0762
C30 C 0.1651(3) 0.4679(2) -0.01721(11)
H18 H 0.1821 0.4855 0.0117
C31 C 0.4264(3) 0.7674(2) 0.18663(10)
C32 C 0.2745(3) 0.5439(3) 0.28814(10)
H19 H 0.3303 0.5211 0.2668
C33 C 0.4313(3) 0.7296(2) 0.14148(10)
O7 O 1.0754(3) 0.7756(2) 0.17648(18)
C34 C 0.6382(3) 0.8504(2) 0.18855(10)
O8 O 0.9667(3) 0.6836(3) 0.21898(9)
C35 C 0.5401(3) 0.6868(3) 0.12414(11)
H20 H 0.6128 0.6816 0.1413
C36 C 0.9740(4) 0.7538(3) 0.19309(14)
C37 C 0.5395(3) 0.9102(3) 0.27974(11)
H21 H 0.6130 0.8760 0.2906
H22 H 0.4842 0.9257 0.3037
H23 H 0.5654 0.9703 0.2656
C38 C 0.4716(3) 0.8463(2) 0.24784(10)
C39 C 0.3223(4) 0.6974(3) 0.07363(12)
H24 H 0.2487 0.6999 0.0568
C40 C 0.4312(4) 0.6563(3) 0.05649(12)
H25 H 0.4311 0.6315 0.0281
C41 C -0.0193(3) 0.2318(3) 0.11887(10)
H26 H -0.0346 0.2886 0.1369
H27 H 0.0622 0.2042 0.1259
H28 H -0.0839 0.1831 0.1240
C42 C 0.1127(3) 0.4180(3) -0.10378(11)
H29 H 0.0945 0.4016 -0.1327
C43 C 0.5407(4) 0.6519(3) 0.08158(12)
H30 H 0.6146 0.6255 0.0698
C44 C 0.2123(3) 0.5252(2) -0.05155(11)
H31 H 0.2620 0.5804 -0.0454
Co1_2 Co 0.72115(3) 0.16713(3) 0.048305(12)
Co1_3 Co 0.72115(3) 1.16713(3) 0.048305(12)
Co1C Co 0.22115(3) 0.33287(3) 0.548305(12)
Co2_2 Co 1.17814(4) 0.66651(3) 0.213872(12)
O1_2 O -0.32226(19) 0.07562(15) 0.09652(7)
N2C N -0.2782(2) 0.08919(18) -0.00969(8)
O4_2 O -0.45351(19) 0.22733(16) 0.03920(7)
O7_2 O 0.0754(3) 0.7756(2) 0.17648(18)
O8_2 O -0.0333(3) 0.6836(3) 0.21898(9)
O9 O 0.6880(3) 0.2853(2) 0.18703(8)
H32 H 0.7091 0.2267 0.1941
H33 H 0.6674 0.2869 0.1601
O10 O 0.7710(3) 0.6013(2) 0.27173(10)
H34 H 0.7348 0.5628 0.2536
O11 O 0.6198(3) 0.4741(3) 0.22100(14)
H35 H 0.5874 0.4165 0.2209
H36 H 0.5789 0.5252 0.2129
loop_
_geom_bond_atom_site_label_1
_geom_bond_atom_site_label_2
_geom_bond_site_symmetry_1
_geom_bond_site_symmetry_2
Co1 N1 1_555 1_555
Co2 O3 1_555 1_555
C1 C24 1_555 1_555
O1 C11 1_555 1_555
O2 C4 1_555 1_555
O3 C4 1_555 1_555
N1 N7 1_555 1_555
N2 C20 1_555 1_555
O4 C5 1_555 1_555
N3 C31 1_555 1_555
N4 C6 1_555 1_555
O5 C5 1_555 1_555
C2 H1 1_555 1_555
N5 Co2 1_555 1_555
O6 C11 1_555 1_555
C3 C5 1_555 1_555
C4 C12 1_555 1_555
N6 Co2 1_555 1_555
N7 C6 1_555 1_555
C6 C13 1_555 1_555
N8 N6 1_555 1_555
H2 N8 1_555 1_555
C7 H3 1_555 1_555
C8 N4 1_555 1_555
C9 H4 1_555 1_555
C10 N1 1_555 1_555
C11 C23 1_555 1_555
C12 C14 1_555 1_555
C13 C29 1_555 1_555
C14 C8 1_555 1_555
H5 C14 1_555 1_555
C15 C3 1_555 1_555
H6 C15 1_555 1_555
C16 C7 1_555 1_555
C17 C2 1_555 1_555
H7 C17 1_555 1_555
C18 C16 1_555 1_555
H8 C18 1_555 1_555
C19 C16 1_555 1_555
C20 C7 1_555 1_555
H9 C20 1_555 1_555
C21 H10 1_555 1_555
C22 C3 1_555 1_555
H11 C22 1_555 1_555
C23 C9 1_555 1_555
C24 H12 1_555 1_555
C25 C19 1_555 1_555
H13 C25 1_555 1_555
C26 C1 1_555 1_555
H14 C26 1_555 1_555
C27 H15 1_555 1_555
C28 N2 1_555 1_555
H16 C28 1_555 1_555
C29 H17 1_555 1_555
C30 C13 1_555 1_555
H18 C30 1_555 1_555
C31 N6 1_555 1_555
C32 N5 1_555 1_555
H19 C32 1_555 1_555
C33 C21 1_555 1_555
O7 C36 1_555 1_555
C34 N3 1_555 1_555
O8 C36 1_555 1_555
C35 C33 1_555 1_555
H20 C35 1_555 1_555
C36 C1 1_555 1_555
C37 H21 1_555 1_555
H22 C37 1_555 1_555
H23 C37 1_555 1_555
C38 N3 1_555 1_555
C39 C21 1_555 1_555
H24 C39 1_555 1_555
C40 C39 1_555 1_555
H25 C40 1_555 1_555
C41 C10 1_555 1_555
H26 C41 1_555 1_555
H27 C41 1_555 1_555
H28 C41 1_555 1_555
C42 C27 1_555 1_555
H29 C42 1_555 1_555
C43 C35 1_555 1_555
H30 C43 1_555 1_555
C44 C27 1_555 1_555
H31 C44 1_555 1_555
O9 H32 1_555 1_555
H33 O9 1_555 1_555
O10 H34 1_555 1_555
O11 H35 1_555 1_555
H36 O11 1_555 1_555
Co1_2 O4 1_555 1_555
Co1_3 O1 1_555 1_555
Co1C N2 1_555 1_555
Co2_2 O7 1_555 1_555
O1_2 Co1 1_555 1_555
N2C Co1 1_555 1_555
O4_2 Co1 1_555 1_555
O7_2 Co2 1_555 1_555
O8_2 Co2 1_555 1_555
N4 C10 1_555 1_555
C2 N5 1_555 1_555
N8 C38 1_555 1_555
C8 C22 1_555 1_555
C9 C34 1_555 1_555
C12 C15 1_555 1_555
C17 C19 1_555 1_555
C18 C28 1_555 1_555
C23 C26 1_555 1_555
C24 C34 1_555 1_555
C25 C32 1_555 1_555
C29 C42 1_555 1_555
C30 C44 1_555 1_555
C31 C33 1_555 1_555
O8 Co2_2 1_555 1_555
C37 C38 1_555 1_555
C40 C43 1_555 1_555

#END
