
#######################################################################
#
#                 Cambridge Crystallographic Data Centre
#                                CCDC 
#
#######################################################################
#
# If this CIF has been generated from an entry in the Cambridge 
# Structural Database, then it will include bibliographic, chemical, 
# crystal, experimental, refinement or atomic coordinate data resulting 
# from the CCDC's data processing and validation procedures.
#
#######################################################################

data_UGUWUO
_symmetry_cell_setting           monoclinic
_symmetry_space_group_name_H-M   'P 21/n'
_symmetry_Int_Tables_number      14
_space_group_name_Hall           '-P 2yn'
loop_
_symmetry_equiv_pos_site_id
_symmetry_equiv_pos_as_xyz
1 x,y,z
2 1/2-x,1/2+y,1/2-z
3 -x,-y,-z
4 1/2+x,1/2-y,1/2+z
_cell_length_a                   8.3741(2)
_cell_length_b                   15.0361(3)
_cell_length_c                   12.53100(10)
_cell_angle_alpha                90
_cell_angle_beta                 106.3300(10)
_cell_angle_gamma                90
_cell_volume                     1514.17
loop_
_atom_site_label
_atom_site_type_symbol
_atom_site_fract_x
_atom_site_fract_y
_atom_site_fract_z
Cd1 Cd 0.06047(4) -0.39306(3) 0.24495(3)
Cl1 Cl -0.0045(2) -0.54620(10) 0.16125(13)
Cl2 Cl 0.3219(2) -0.35375(12) 0.19937(14)
C1 C 0.2910(6) -0.2181(4) 0.6785(4)
C2 C 0.1387(6) -0.3701(4) 0.4751(5)
C3 C 0.1727(7) -0.3718(3) 0.6012(5)
H1 H 0.2866(7) -0.3910(3) 0.6336(5)
H2 H 0.1007(7) -0.4161(3) 0.6198(5)
C4 C 0.1475(7) -0.2839(4) 0.6558(5)
O1 O 0.1351(5) -0.4444(3) 0.4263(3)
O2 O 0.4191(4) -0.2341(3) 0.6473(3)
O3 O 0.2788(4) -0.1476(2) 0.7323(3)
O4 O 0.1120(5) -0.2982(2) 0.4219(3)
H3 H 0.0506(64) -0.2511(31) 0.6218(37)
H4 H 0.1288(64) -0.2998(32) 0.7317(42)
O2C O -0.0809(4) -0.2659(3) 0.1473(3)
Cd1C Cd 0.56047(4) -0.10694(3) 0.74495(3)
O3C O -0.2212(4) -0.3524(2) 0.2323(3)
C5 C 0.3555(7) -0.6453(4) 0.4957(5)
N1 N 0.2812(7) -0.5974(3) 0.5539(4)
H5 H 0.2136(7) -0.5559(3) 0.5224(4)
H6 H 0.2996(7) -0.6072(3) 0.6240(4)
N2 N 0.3293(7) -0.6315(4) 0.3875(4)
H7 H 0.2622(7) -0.5903(4) 0.3547(4)
H8 H 0.3795(7) -0.6638(4) 0.3503(4)
N3 N 0.4570(6) -0.7112(3) 0.5439(4)
H9 H 0.4733(6) -0.7221(3) 0.6136(4)
H10 H 0.5060(6) -0.7428(3) 0.5054(4)
C6 C -0.0100(7) -0.0842(4) 0.3865(5)
N4 N 0.1428(6) -0.1050(3) 0.3934(5)
H11 H 0.2087(6) -0.0658(3) 0.3792(5)
H12 H 0.1782(6) -0.1580(3) 0.4122(5)
N5 N -0.0674(7) -0.0033(3) 0.3578(4)
H13 H -0.0032(7) 0.0367(3) 0.3433(4)
H14 H -0.1692(7) 0.0093(3) 0.3536(4)
N6 N -0.1089(6) -0.1459(3) 0.4098(4)
H15 H -0.0712(6) -0.1984(3) 0.4291(4)
H16 H -0.2107(6) -0.1332(3) 0.4057(4)
loop_
_geom_bond_atom_site_label_1
_geom_bond_atom_site_label_2
_geom_bond_site_symmetry_1
_geom_bond_site_symmetry_2
Cd1 Cl1 1_555 1_555
Cl2 Cd1 1_555 1_555
C1 C4 1_555 1_555
C2 C3 1_555 1_555
C3 H1 1_555 1_555
H2 C3 1_555 1_555
C4 C3 1_555 1_555
O1 Cd1 1_555 1_555
O2 C1 1_555 1_555
O3 C1 1_555 1_555
O4 Cd1 1_555 1_555
H3 C4 1_555 1_555
H4 C4 1_555 1_555
C5 N1 1_555 1_555
N1 H5 1_555 1_555
H6 N1 1_555 1_555
N2 C5 1_555 1_555
H7 N2 1_555 1_555
H8 N2 1_555 1_555
N3 C5 1_555 1_555
H9 N3 1_555 1_555
H10 N3 1_555 1_555
C6 N4 1_555 1_555
N4 H11 1_555 1_555
H12 N4 1_555 1_555
N5 C6 1_555 1_555
H13 N5 1_555 1_555
H14 N5 1_555 1_555
N6 C6 1_555 1_555
H15 N6 1_555 1_555
H16 N6 1_555 1_555
O2C Cd1 1_555 1_555
Cd1C O2 1_555 1_555
O3C Cd1 1_555 1_555
C2 O1 1_555 1_555
C2 O4 1_555 1_555
O3 Cd1C 1_555 1_555

#END
