
#######################################################################
#
#                 Cambridge Crystallographic Data Centre
#                                CCDC 
#
#######################################################################
#
# If this CIF has been generated from an entry in the Cambridge 
# Structural Database, then it will include bibliographic, chemical, 
# crystal, experimental, refinement or atomic coordinate data resulting 
# from the CCDC's data processing and validation procedures.
#
#######################################################################

data_UGUXAV
_symmetry_cell_setting           orthorhombic
_symmetry_space_group_name_H-M   'F d d d'
_symmetry_Int_Tables_number      70
_space_group_name_Hall           '-F 2uv 2vw'
loop_
_symmetry_equiv_pos_site_id
_symmetry_equiv_pos_as_xyz
1 x,y,z
2 x,1/2+y,1/2+z
3 x,1/4-y,1/4-z
4 1/2+x,y,1/2+z
5 1/4-x,y,1/4-z
6 1/2+x,1/2+y,z
7 1/4-x,1/4-y,z
8 1/4+x,1/4+y,-z
9 1/4+x,-y,1/4+z
10 -x,1/4+y,1/4+z
11 1/4+x,3/4+y,1/2-z
12 1/4+x,1/2-y,3/4+z
13 3/4+x,1/4+y,1/2-z
14 1/2-x,1/4+y,3/4+z
15 3/4+x,1/2-y,1/4+z
16 1/2-x,3/4+y,1/4+z
17 -x,-y,-z
18 -x,1/2-y,1/2-z
19 -x,3/4+y,3/4+z
20 1/2-x,-y,1/2-z
21 3/4+x,-y,3/4+z
22 1/2-x,1/2-y,-z
23 3/4+x,3/4+y,-z
24 3/4-x,3/4-y,z
25 3/4-x,y,3/4-z
26 x,3/4-y,3/4-z
27 3/4-x,1/4-y,1/2+z
28 3/4-x,1/2+y,1/4-z
29 1/4-x,3/4-y,1/2+z
30 1/2+x,3/4-y,1/4-z
31 1/4-x,1/2+y,3/4-z
32 1/2+x,1/4-y,3/4-z
_cell_length_a                   7.4194(6)
_cell_length_b                   17.963(2)
_cell_length_c                   24.574(2)
_cell_angle_alpha                90
_cell_angle_beta                 90
_cell_angle_gamma                90
_cell_volume                     3275.09
loop_
_atom_site_label
_atom_site_type_symbol
_atom_site_fract_x
_atom_site_fract_y
_atom_site_fract_z
Cd1 Cd 0.1250 0.6250 0.1250
O1 O -0.0847(2) 0.61553(7) 0.05365(6)
O2 O -0.0374(2) 0.51932(8) 0.16999(5)
C1 C -0.1163(2) 0.68465(11) 0.05030(8)
C2 C -0.2543(3) 0.70927(11) 0.00813(9)
H1 H -0.3660(34) 0.7002(16) 0.0256(10)
H2 H -0.2328(38) 0.6777(15) -0.0244(10)
O2B O -0.0374(2) 0.73068(8) 0.08001(5)
O1B O -0.0847(2) 0.63447(7) 0.19635(6)
C1B C -0.1163(2) 0.56535(11) 0.19970(8)
O1D O 0.3347(2) 0.61553(7) 0.19635(6)
O2F O 0.2874(2) 0.73068(8) 0.16999(5)
O1F O 0.3347(2) 0.63447(7) 0.05365(6)
O2D O 0.2874(2) 0.51932(8) 0.08001(5)
C2B C -0.2543(3) 0.54073(11) 0.24187(9)
C2U C -0.2457(3) 0.79073(11) -0.00813(9)
C1U C -0.3837(2) 0.81535(11) -0.05030(8)
H1U H -0.1340(34) 0.7998(16) -0.0256(10)
H2U H -0.2672(38) 0.8223(15) 0.0244(10)
C2O C -0.2457(3) 0.45927(11) 0.25813(9)
H1B H -0.3660(34) 0.5498(16) 0.2244(10)
H2B H -0.2328(38) 0.5723(15) 0.2744(10)
O1U O -0.4153(2) 0.88447(7) -0.05365(6)
O2M O -0.4626(2) 0.76932(8) -0.08001(5)
C1O C -0.3837(2) 0.43465(11) 0.30030(8)
H1O H -0.1340(34) 0.4502(16) 0.2756(10)
H2O H -0.2672(38) 0.4277(15) 0.2256(10)
Cd1G Cd -0.6250 0.8750 -0.1250
O1O O -0.4153(2) 0.36553(7) 0.30365(6)
O2S O -0.4626(2) 0.48068(8) 0.33001(5)
Cd1H Cd -0.6250 0.3750 0.3750
C3 C -0.1250 0.3750 0.07794(12)
N1 N -0.1250 0.3750 0.13124(11)
H3 H -0.0469(40) 0.4292(16) 0.0225(12)
H4 H -0.1574(34) 0.3353(14) 0.1487(10)
N2 N -0.0769(3) 0.43520(12) 0.05057(9)
H5 H -0.0350(35) 0.4676(15) 0.0671(10)
H4W H -0.0926(34) 0.4147(14) 0.1487(10)
N2W N -0.1731(3) 0.31480(12) 0.05057(9)
H3W H -0.2031(40) 0.3208(16) 0.0225(12)
H5W H -0.2150(35) 0.2824(15) 0.0671(10)
loop_
_geom_bond_atom_site_label_1
_geom_bond_atom_site_label_2
_geom_bond_site_symmetry_1
_geom_bond_site_symmetry_2
Cd1 O1 1_555 1_555
O1 C1 1_555 1_555
O2 Cd1 1_555 1_555
C1 C2 1_555 1_555
C2 H1 1_555 1_555
H2 C2 1_555 1_555
C3 N1 1_555 1_555
N1 H4 1_555 1_555
H3 N2 1_555 1_555
N2 C3 1_555 1_555
H5 N2 1_555 1_555
O2B Cd1 1_555 1_555
O1B Cd1 1_555 1_555
C1B O2 1_555 1_555
O1D Cd1 1_555 1_555
O2F Cd1 1_555 1_555
O1F Cd1 1_555 1_555
O2D Cd1 1_555 1_555
C2B C1B 1_555 1_555
C2U C2 1_555 1_555
C1U C2U 1_555 1_555
H1U C2U 1_555 1_555
H2U C2U 1_555 1_555
H4W N1 1_555 1_555
N2W C3 1_555 1_555
H3W N2W 1_555 1_555
H5W N2W 1_555 1_555
C2O C2B 1_555 1_555
H1B C2B 1_555 1_555
H2B C2B 1_555 1_555
O1U C1U 1_555 1_555
O2M C1U 1_555 1_555
C1O C2O 1_555 1_555
H1O C2O 1_555 1_555
H2O C2O 1_555 1_555
Cd1G O1U 1_555 1_555
O1O C1O 1_555 1_555
O2S C1O 1_555 1_555
Cd1H O1O 1_555 1_555
C1 O2B 1_555 1_555
O1B C1B 1_555 1_555
O2M Cd1G 1_555 1_555
O2S Cd1H 1_555 1_555

#END
