
#######################################################################
#
#                 Cambridge Crystallographic Data Centre
#                                CCDC 
#
#######################################################################
#
# If this CIF has been generated from an entry in the Cambridge 
# Structural Database, then it will include bibliographic, chemical, 
# crystal, experimental, refinement or atomic coordinate data resulting 
# from the CCDC's data processing and validation procedures.
#
#######################################################################

data_UGUXUP02
_symmetry_cell_setting           orthorhombic
_symmetry_space_group_name_H-M   'P b c a'
_symmetry_Int_Tables_number      61
_space_group_name_Hall           '-P 2ac 2ab'
loop_
_symmetry_equiv_pos_site_id
_symmetry_equiv_pos_as_xyz
1 x,y,z
2 1/2-x,-y,1/2+z
3 1/2+x,1/2-y,-z
4 -x,1/2+y,1/2-z
5 -x,-y,-z
6 1/2+x,y,1/2-z
7 1/2-x,1/2+y,z
8 x,1/2-y,1/2+z
_cell_length_a                   10.6568(12)
_cell_length_b                   6.8610(3)
_cell_length_c                   16.949(3)
_cell_angle_alpha                90
_cell_angle_beta                 90
_cell_angle_gamma                90
_cell_volume                     1239.25
loop_
_atom_site_label
_atom_site_type_symbol
_atom_site_fract_x
_atom_site_fract_y
_atom_site_fract_z
Cd1 Cd 0.664227(19) -0.01381(3) 0.034243(13)
Cd2 Cd 1.0000 0.0000 0.0000
O1 O 0.82370(19) 0.1769(3) -0.01293(13)
H1 H 0.829(3) 0.194(6) -0.0682(11)
O2 O 0.9319(3) -0.1247(4) -0.11879(15)
O3 O 0.9551(2) -0.4250(4) -0.07372(13)
C1 C 0.9195(3) -0.3025(5) -0.12573(17)
C2 C 0.8571(3) -0.3820(5) -0.19899(19)
H2 H 0.7678 -0.3546 -0.1966
H3 H 0.8675 -0.5224 -0.2004
C3 C 0.9103(3) -0.2954(5) -0.27360(18)
H4 H 0.9965 -0.3386 -0.2792
H5 H 0.9115 -0.1546 -0.2681
C4 C 0.8404(3) -0.3461(5) -0.34770(18)
O4 O 0.7368(3) -0.4304(4) -0.34299(15)
O5 O 0.8891(2) -0.2971(3) -0.41325(13)
Cd1D Cd 1.335773(19) 0.01381(3) -0.034243(13)
Cd1F Cd 0.835773(19) 0.48619(3) 0.034243(13)
Cd1F_2 Cd 0.835773(19) -0.51381(3) 0.034243(13)
Cd1B Cd 1.164227(19) -0.48619(3) -0.034243(13)
Cd1G Cd 0.664227(19) -0.48619(3) -0.465757(13)
Cd1A Cd 0.835773(19) 0.01381(3) -0.465757(13)
Cd1B_2 Cd 1.164227(19) 0.51381(3) -0.034243(13)
Cd1C Cd 1.335773(19) 0.48619(3) 0.465757(13)
Cd1E Cd 1.164227(19) -0.01381(3) 0.465757(13)
Cd2G Cd 1.0000 -0.5000 -0.5000
Cd2G_2 Cd 1.0000 0.5000 0.5000
O1D O 1.17630(19) -0.1769(3) 0.01293(13)
O1F O 0.67630(19) -0.3231(3) -0.01293(13)
O1B O 1.32370(19) 0.3231(3) 0.01293(13)
H1D H 1.171(3) -0.194(6) 0.0682(11)
H1F H 0.671(3) -0.306(6) -0.0682(11)
H1B H 1.329(3) 0.306(6) 0.0682(11)
O2D O 1.0681(3) 0.1247(4) 0.11879(15)
O3D O 1.0449(2) 0.4250(4) 0.07372(13)
O3F O 0.5449(2) 0.0750(4) -0.07372(13)
O3B O 0.4551(2) -0.0750(4) 0.07372(13)
O3F_2 O 1.5449(2) 0.0750(4) -0.07372(13)
O3B_2 O 1.4551(2) -0.0750(4) 0.07372(13)
C1D C 1.0805(3) 0.3025(5) 0.12573(17)
C2D C 1.1429(3) 0.3820(5) 0.19899(19)
H2D H 1.2322 0.3546 0.1966
H3D H 1.1325 0.5224 0.2004
C3D C 1.0897(3) 0.2954(5) 0.27360(18)
H4D H 1.0035 0.3386 0.2792
H5D H 1.0885 0.1546 0.2681
C4D C 1.1596(3) 0.3461(5) 0.34770(18)
O4D O 1.2632(3) 0.4304(4) 0.34299(15)
O4G O 0.7368(3) -0.0696(4) 0.15701(15)
O4C O 1.2632(3) 0.0696(4) -0.15701(15)
O5D O 1.1109(2) 0.2971(3) 0.41325(13)
O5A O 0.6109(2) 0.2971(3) 0.08675(13)
O5G O 0.8891(2) -0.2029(3) 0.08675(13)
O5C O 1.1109(2) 0.2029(3) -0.08675(13)
O5E O 1.3891(2) -0.2971(3) -0.08675(13)
loop_
_geom_bond_atom_site_label_1
_geom_bond_atom_site_label_2
_geom_bond_site_symmetry_1
_geom_bond_site_symmetry_2
Cd1 O1 1_555 1_555
Cd2 O1 1_555 1_555
O1 H1 1_555 1_555
O2 Cd2 1_555 1_555
O3 C1 1_555 1_555
C1 O2 1_555 1_555
C2 C1 1_555 1_555
H2 C2 1_555 1_555
H3 C2 1_555 1_555
C3 C2 1_555 1_555
H4 C3 1_555 1_555
H5 C3 1_555 1_555
C4 C3 1_555 1_555
O4 C4 1_555 1_555
O5 C4 1_555 1_555
Cd1D O1D 1_555 1_555
Cd1F O1 1_555 1_555
Cd1F_2 O3 1_555 1_555
Cd1B O3 1_555 1_555
Cd1G O4 1_555 1_555
Cd1A O5 1_555 1_555
Cd1B_2 O1B 1_555 1_555
Cd1C O4D 1_555 1_555
Cd1E O5D 1_555 1_555
Cd2G O5 1_555 1_555
Cd2G_2 O5D 1_555 1_555
O1D Cd2 1_555 1_555
O1F Cd1 1_555 1_555
O1B Cd1D 1_555 1_555
H1D O1D 1_555 1_555
H1F O1F 1_555 1_555
H1B O1B 1_555 1_555
O2D Cd2 1_555 1_555
O3D Cd1F 1_555 1_555
O3F Cd1 1_555 1_555
O3B Cd1 1_555 1_555
O3F_2 Cd1D 1_555 1_555
O3B_2 Cd1D 1_555 1_555
C1D O2D 1_555 1_555
C2D C1D 1_555 1_555
H2D C2D 1_555 1_555
H3D C2D 1_555 1_555
C3D C2D 1_555 1_555
H4D C3D 1_555 1_555
H5D C3D 1_555 1_555
C4D C3D 1_555 1_555
O4D C4D 1_555 1_555
O4G Cd1 1_555 1_555
O4C Cd1D 1_555 1_555
O5D C4D 1_555 1_555
O5A Cd1 1_555 1_555
O5G Cd2 1_555 1_555
O5C Cd2 1_555 1_555
O5E Cd1D 1_555 1_555
Cd1F_2 O1F 1_555 1_555
Cd1F_2 O5G 1_555 1_555
Cd1B O1D 1_555 1_555
Cd1B_2 O3D 1_555 1_555
Cd1B_2 O5C 1_555 1_555
O3D C1D 1_555 1_555

#END
