
#######################################################################
#
#                 Cambridge Crystallographic Data Centre
#                                CCDC 
#
#######################################################################
#
# If this CIF has been generated from an entry in the Cambridge 
# Structural Database, then it will include bibliographic, chemical, 
# crystal, experimental, refinement or atomic coordinate data resulting 
# from the CCDC's data processing and validation procedures.
#
#######################################################################

data_UHADUE
_symmetry_cell_setting           monoclinic
_symmetry_space_group_name_H-M   'P 21'
_symmetry_Int_Tables_number      4
_space_group_name_Hall           'P 2yb'
loop_
_symmetry_equiv_pos_site_id
_symmetry_equiv_pos_as_xyz
1 x,y,z
2 -x,1/2+y,-z
_cell_length_a                   14.331
_cell_length_b                   13.839
_cell_length_c                   15.678
_cell_angle_alpha                90
_cell_angle_beta                 90.68
_cell_angle_gamma                90
_cell_volume                     3109.15
loop_
_atom_site_label
_atom_site_type_symbol
_atom_site_fract_x
_atom_site_fract_y
_atom_site_fract_z
Eu1 Eu 0.81839(2) 0.69010(3) -0.50954(2)
N1 N 0.8002(5) 1.4402(5) -0.1822(4)
N2 N 0.4825(5) 1.1271(6) -0.2111(4)
N3 N 0.8721(5) 0.9961(6) -0.2568(4)
N4 N 0.1761(4) 0.9011(5) -0.2220(4)
N5 N 0.1951(4) 0.4436(5) -0.1624(4)
N6 N 0.5543(4) 0.7063(5) -0.2064(4)
O1 O 0.8533(4) 1.6206(5) -0.3801(4)
O2 O 0.3198(4) 1.1304(5) -0.4268(4)
O3 O 0.8549(5) 0.8563(4) -0.4853(4)
O4 O 0.1410(5) 1.0267(5) -0.4551(4)
O5 O 0.1571(4) 0.2502(4) -0.3560(3)
O6 O 0.6969(5) 0.7478(6) -0.4271(4)
C1 C 0.9231(6) 1.2458(8) -0.1508(6)
H1 H 0.9263 1.3143 -0.1411
H2 H 0.9455 1.2314 -0.2068
H3 H 0.9610 1.2130 -0.1090
C2 C 0.5807(6) 1.3197(8) -0.1118(6)
H4 H 0.5216 1.2869 -0.1130
H5 H 0.5820 1.3669 -0.1566
H6 H 0.5891 1.3512 -0.0578
C3 C 0.6866(10) 0.9750(8) -0.1608(7)
H7 H 0.7436 0.9403 -0.1701
H8 H 0.6454 0.9660 -0.2088
H9 H 0.6574 0.9510 -0.1102
C4 C 0.8210(5) 1.2117(6) -0.1434(4)
C5 C 0.7526(6) 1.2774(6) -0.1260(5)
C6 C 0.6579(6) 1.2475(6) -0.1246(5)
C7 C 0.6369(6) 1.1496(6) -0.1360(5)
C8 C 0.7078(7) 1.0819(6) -0.1500(5)
C9 C 0.7999(6) 1.1156(7) -0.1560(5)
C10 C 0.7755(7) 1.3804(6) -0.1066(5)
H10 H 0.7223 1.4098 -0.0790
H11 H 0.8274 1.3819 -0.0663
C11 C 0.7508(6) 1.4329(6) -0.2568(5)
H12 H 0.7036 1.3870 -0.2613
C12 C 0.7685(7) 1.4908(6) -0.3246(5)
H13 H 0.7347 1.4826 -0.3751
C13 C 0.8371(5) 1.5629(6) -0.3197(5)
C14 C 0.8888(7) 1.5659(7) -0.2418(5)
H14 H 0.9383 1.6089 -0.2356
C15 C 0.8667(7) 1.5070(7) -0.1773(5)
H15 H 0.8997 1.5133 -0.1261
C16 C 0.5367(7) 1.1153(9) -0.1301(5)
H16 H 0.5365 1.0476 -0.1141
H17 H 0.5059 1.1511 -0.0853
C17 C 0.3892(6) 1.1340(7) -0.2066(6)
H18 H 0.3613 1.1377 -0.1534
C18 C 0.3350(7) 1.1357(7) -0.2777(6)
H19 H 0.2707 1.1407 -0.2716
C19 C 0.3707(6) 1.1305(6) -0.3590(5)
C20 C 0.4694(7) 1.1260(8) -0.3609(6)
H20 H 0.4990 1.1237 -0.4133
C21 C 0.5208(6) 1.1252(8) -0.2894(5)
H21 H 0.5854 1.1232 -0.2936
C22 C 0.8777(9) 1.0425(9) -0.1740(6)
H22 H 0.9373 1.0754 -0.1691
H23 H 0.8765 0.9929 -0.1303
C23 C 0.8345(7) 1.0398(7) -0.3268(6)
H24 H 0.8110 1.1022 -0.3213
C24 C 0.8298(7) 0.9964(7) -0.4043(5)
H25 H 0.8055 1.0300 -0.4509
C25 C 0.8617(6) 0.8997(6) -0.4149(5)
C26 C 0.9045(6) 0.8573(6) -0.3404(5)
H26 H 0.9311 0.7962 -0.3438
C27 C 0.9064(6) 0.9056(6) -0.2654(5)
H27 H 0.9324 0.8754 -0.2178
C28 C 0.4003(8) 0.8734(7) -0.1517(6)
H28 H 0.4665 0.8633 -0.1524
H29 H 0.3853 0.9187 -0.1076
H30 H 0.3799 0.8984 -0.2059
C29 C 0.1031(5) 0.6842(9) -0.1201(5)
H31 H 0.0816 0.6193 -0.1114
H32 H 0.0807 0.7074 -0.1743
H33 H 0.0801 0.7250 -0.0755
C30 C 0.4136(6) 0.5114(7) -0.1092(6)
H34 H 0.4791 0.5252 -0.1124
H35 H 0.3956 0.4702 -0.1559
H36 H 0.4008 0.4794 -0.0563
C31 C 0.3514(6) 0.7778(6) -0.1345(5)
C32 C 0.2541(6) 0.7739(6) -0.1306(5)
C33 C 0.2086(4) 0.6856(8) -0.1186(4)
C34 C 0.2606(5) 0.6013(6) -0.1089(5)
C35 C 0.3594(6) 0.6040(6) -0.1141(5)
C36 C 0.4025(5) 0.6924(8) -0.1256(4)
C37 C 0.1986(6) 0.8672(6) -0.1342(5)
H37 H 0.1408 0.8580 -0.1037
H38 H 0.2339 0.9172 -0.1048
C38 C 0.1299(6) 0.9851(6) -0.2298(5)
H39 H 0.1083 1.0150 -0.1807
C39 C 0.1133(6) 1.0282(6) -0.3063(5)
H40 H 0.0812 1.0865 -0.3087
C40 C 0.1449(6) 0.9846(6) -0.3825(6)
C41 C 0.1868(7) 0.8912(7) -0.3738(6)
H41 H 0.2046 0.8566 -0.4218
C42 C 0.2003(6) 0.8537(6) -0.2938(5)
H42 H 0.2273 0.7928 -0.2887
C43 C 0.2140(6) 0.5075(6) -0.0872(5)
H43 H 0.2531 0.4728 -0.0467
H44 H 0.1553 0.5215 -0.0595
C44 C 0.1604(5) 0.3544(6) -0.1472(5)
H45 H 0.1454 0.3373 -0.0917
C45 C 0.1470(5) 0.2897(6) -0.2100(5)
H46 H 0.1245 0.2285 -0.1970
C46 C 0.1670(5) 0.3136(6) -0.2970(5)
C47 C 0.2002(5) 0.4084(6) -0.3102(4)
H47 H 0.2132 0.4287 -0.3653
C48 C 0.2135(6) 0.4704(6) -0.2448(5)
H48 H 0.2357 0.5323 -0.2557
C49 C 0.5082(5) 0.6983(9) -0.1219(5)
H49 H 0.5258 0.7539 -0.0876
H50 H 0.5319 0.6412 -0.0931
C50 C 0.5106(5) 0.6988(9) -0.2828(5)
H51 H 0.4470 0.6854 -0.2847
C51 C 0.5578(6) 0.7103(8) -0.3571(5)
H52 H 0.5259 0.7028 -0.4087
C52 C 0.6528(6) 0.7332(7) -0.3578(6)
C53 C 0.6964(5) 0.7368(7) -0.2761(5)
H53 H 0.7602 0.7487 -0.2721
C54 C 0.6473(5) 0.7235(7) -0.2044(5)
H54 H 0.6781 0.7261 -0.1519
O7 O 0.98514(15) 0.69530(18) -0.50818(14)
Eu1_2 Eu 0.81839(2) 1.69010(3) -0.50954(2)
Eu1A Eu 0.18161(2) 0.19010(3) -0.49046(2)
Eu1A_2 Eu 0.18161(2) 1.19010(3) -0.49046(2)
O1_2 O 0.8533(4) 0.6206(5) -0.3801(4)
O2A O 0.6802(4) 0.6304(5) -0.5732(4)
O4A O 0.8590(5) 0.5267(5) -0.5449(4)
O5A O 0.8429(4) 0.7502(4) -0.6440(3)
Cl1 Cl 0.30235(11) 0.64631(13) -0.40261(11)
Cl2 Cl 0.32636(14) 1.07168(16) -0.00143(12)
Cl3 Cl 0.99691(15) 1.43870(19) 0.01198(12)
C55 C 1.4764(8) 0.8848(9) 0.4170(10)
C56 C 1.4455(14) 0.9068(14) 0.5012(12)
H55 H 1.3794 0.8968 0.5044
H56 H 1.4597 0.9730 0.5143
H57 H 1.4768 0.8654 0.5415
C57 C 1.57522(15) 0.89711(18) 0.39732(14)
H58 H 1.5853 0.8814 0.3385
H59 H 1.6120 0.8550 0.4329
H60 H 1.5932 0.9629 0.4076
O8 O 1.42383(15) 0.84902(18) 0.36520(14)
O9 O 0.32080(15) 1.30300(18) -0.00157(14)
O10 O 0.72517(15) 0.22723(18) 0.59099(14)
O11 O 1.13950(15) 1.28442(18) 0.07702(14)
O12 O 0.11858(15) 1.12892(18) -0.03800(14)
O13 O 1.09096(15) 0.77368(18) -0.63083(14)
O14 O 1.00290(15) 0.95009(18) -0.57950(14)
O15 O 1.08034(15) 0.63319(18) -0.36636(14)
loop_
_geom_bond_atom_site_label_1
_geom_bond_atom_site_label_2
_geom_bond_site_symmetry_1
_geom_bond_site_symmetry_2
Eu1 O3 1_555 1_555
N1 C10 1_555 1_555
N2 C16 1_555 1_555
N3 C22 1_555 1_555
N4 C37 1_555 1_555
N5 C43 1_555 1_555
N6 C49 1_555 1_555
O1 C13 1_555 1_555
O2 C19 1_555 1_555
O3 C25 1_555 1_555
O4 C40 1_555 1_555
O5 C46 1_555 1_555
O6 Eu1 1_555 1_555
C1 H1 1_555 1_555
H2 C1 1_555 1_555
H3 C1 1_555 1_555
C2 H4 1_555 1_555
H5 C2 1_555 1_555
H6 C2 1_555 1_555
C3 H7 1_555 1_555
H8 C3 1_555 1_555
H9 C3 1_555 1_555
C4 C1 1_555 1_555
C5 C4 1_555 1_555
C6 C2 1_555 1_555
C7 C6 1_555 1_555
C8 C3 1_555 1_555
C9 C4 1_555 1_555
C10 C5 1_555 1_555
H10 C10 1_555 1_555
H11 C10 1_555 1_555
C11 N1 1_555 1_555
H12 C11 1_555 1_555
C12 C11 1_555 1_555
H13 C12 1_555 1_555
C13 C12 1_555 1_555
C14 C13 1_555 1_555
H14 C14 1_555 1_555
C15 N1 1_555 1_555
H15 C15 1_555 1_555
C16 C7 1_555 1_555
H16 C16 1_555 1_555
H17 C16 1_555 1_555
C17 N2 1_555 1_555
H18 C17 1_555 1_555
C18 C17 1_555 1_555
H19 C18 1_555 1_555
C19 C18 1_555 1_555
C20 C19 1_555 1_555
H20 C20 1_555 1_555
C21 N2 1_555 1_555
H21 C21 1_555 1_555
C22 C9 1_555 1_555
H22 C22 1_555 1_555
H23 C22 1_555 1_555
C23 N3 1_555 1_555
H24 C23 1_555 1_555
C24 C23 1_555 1_555
H25 C24 1_555 1_555
C25 C24 1_555 1_555
C26 C25 1_555 1_555
H26 C26 1_555 1_555
C27 N3 1_555 1_555
H27 C27 1_555 1_555
C28 H28 1_555 1_555
H29 C28 1_555 1_555
H30 C28 1_555 1_555
C29 H31 1_555 1_555
H32 C29 1_555 1_555
H33 C29 1_555 1_555
C30 H34 1_555 1_555
H35 C30 1_555 1_555
H36 C30 1_555 1_555
C31 C28 1_555 1_555
C32 C31 1_555 1_555
C33 C29 1_555 1_555
C34 C33 1_555 1_555
C35 C30 1_555 1_555
C36 C31 1_555 1_555
C37 C32 1_555 1_555
H37 C37 1_555 1_555
H38 C37 1_555 1_555
C38 N4 1_555 1_555
H39 C38 1_555 1_555
C39 C38 1_555 1_555
H40 C39 1_555 1_555
C40 C39 1_555 1_555
C41 C40 1_555 1_555
H41 C41 1_555 1_555
C42 N4 1_555 1_555
H42 C42 1_555 1_555
C43 C34 1_555 1_555
H43 C43 1_555 1_555
H44 C43 1_555 1_555
C44 N5 1_555 1_555
H45 C44 1_555 1_555
C45 C44 1_555 1_555
H46 C45 1_555 1_555
C46 C45 1_555 1_555
C47 C46 1_555 1_555
H47 C47 1_555 1_555
C48 N5 1_555 1_555
H48 C48 1_555 1_555
C49 C36 1_555 1_555
H49 C49 1_555 1_555
H50 C49 1_555 1_555
C50 N6 1_555 1_555
H51 C50 1_555 1_555
C51 C50 1_555 1_555
H52 C51 1_555 1_555
C52 O6 1_555 1_555
C53 C52 1_555 1_555
H53 C53 1_555 1_555
C54 N6 1_555 1_555
H54 C54 1_555 1_555
O7 Eu1 1_555 1_555
C55 C56 1_555 1_555
C56 H55 1_555 1_555
H56 C56 1_555 1_555
H57 C56 1_555 1_555
C57 C55 1_555 1_555
H58 C57 1_555 1_555
H59 C57 1_555 1_555
H60 C57 1_555 1_555
O8 C55 1_555 1_555
Eu1_2 O1 1_555 1_555
Eu1A O5 1_555 1_555
Eu1A_2 O2 1_555 1_555
O1_2 Eu1 1_555 1_555
O2A Eu1 1_555 1_555
O4A Eu1 1_555 1_555
O5A Eu1 1_555 1_555
O4 Eu1A_2 1_555 1_555
C5 C6 1_555 1_555
C7 C8 1_555 1_555
C8 C9 1_555 1_555
C14 C15 1_555 1_555
C20 C21 1_555 1_555
C26 C27 1_555 1_555
C32 C33 1_555 1_555
C34 C35 1_555 1_555
C35 C36 1_555 1_555
C41 C42 1_555 1_555
C47 C48 1_555 1_555
C51 C52 1_555 1_555
C53 C54 1_555 1_555

#END
