
#######################################################################
#
#                 Cambridge Crystallographic Data Centre
#                                CCDC 
#
#######################################################################
#
# If this CIF has been generated from an entry in the Cambridge 
# Structural Database, then it will include bibliographic, chemical, 
# crystal, experimental, refinement or atomic coordinate data resulting 
# from the CCDC's data processing and validation procedures.
#
#######################################################################

data_UHAFUE
_symmetry_cell_setting           orthorhombic
_symmetry_space_group_name_H-M   'P 21 21 21'
_symmetry_Int_Tables_number      19
_space_group_name_Hall           'P 2ac 2ab'
loop_
_symmetry_equiv_pos_site_id
_symmetry_equiv_pos_as_xyz
1 x,y,z
2 1/2-x,-y,1/2+z
3 1/2+x,1/2-y,-z
4 -x,1/2+y,1/2-z
_cell_length_a                   11.468(2)
_cell_length_b                   14.503(3)
_cell_length_c                   16.216(4)
_cell_angle_alpha                90
_cell_angle_beta                 90
_cell_angle_gamma                90
_cell_volume                     2697.05
loop_
_atom_site_label
_atom_site_type_symbol
_atom_site_fract_x
_atom_site_fract_y
_atom_site_fract_z
Rh1 Rh 0.76105(7) 0.64662(6) 0.66227(5)
O1 O 0.6861(6) 0.6135(5) 0.4919(4)
O2 O 0.8334(7) 0.7014(5) 0.8253(5)
H1 H 0.7652 0.6851 0.8300
O3 O 0.9035(6) 0.6511(6) 0.5133(4)
O4 O 0.6027(7) 0.6510(6) 0.8059(4)
N1 N 0.8697(9) 0.6868(6) 0.7469(5)
N2 N 0.6537(9) 0.6121(6) 0.5742(6)
N3 N 0.6133(8) 0.6360(7) 0.7210(6)
C1 C 0.7255(12) 0.7823(8) 0.6394(7)
H2 H 0.7919 0.8107 0.6137
H3 H 0.7087 0.8132 0.6904
H4 H 0.6594 0.7868 0.6034
N4 N 0.9017(8) 0.6600(6) 0.5986(5)
C2 C 0.9768(12) 0.7035(9) 0.7250(6)
C3 C 1.1129(10) 0.6926(9) 0.5958(8)
H5 H 1.1090 0.6716 0.5397
H6 H 1.1679 0.6557 0.6258
H7 H 1.1373 0.7559 0.5968
C4 C 1.0729(11) 0.7352(10) 0.7804(8)
H8 H 1.0503 0.7265 0.8368
H9 H 1.0882 0.7993 0.7706
H10 H 1.1421 0.7000 0.7693
C5 C 0.9951(10) 0.6843(8) 0.6349(7)
C6 C 0.5216(10) 0.6120(7) 0.6823(7)
B1 B 0.8117(12) 0.5894(9) 0.4745(8)
O5 O 0.8236(6) 0.4943(5) 0.5085(5)
C7 C 0.4024(12) 0.5928(12) 0.7205(9)
H11 H 0.4126 0.5660 0.7742
H12 H 0.3600 0.5507 0.6860
H13 H 0.3597 0.6494 0.7254
C8 C 0.5437(12) 0.6009(9) 0.5894(7)
C9 C 0.4447(11) 0.5911(10) 0.5288(8)
H14 H 0.3814 0.6304 0.5452
H15 H 0.4186 0.5282 0.5279
H16 H 0.4709 0.6085 0.4748
C10 C 0.9176(10) 0.6456(9) 0.3409(7)
H17 H 0.9710 0.6761 0.3743
C11 C 0.8277(11) 0.5969(8) 0.3782(7)
C12 C 0.7528(10) 0.5503(7) 0.3221(6)
H18 H 0.6906 0.5167 0.3434
C13 C 0.7677(11) 0.5524(7) 0.2397(6)
C14 C 0.9315(11) 0.6508(10) 0.2560(7)
H19 H 0.9902 0.6871 0.2334
C15 C 0.8582(11) 0.6023(9) 0.2060(7)
H20 H 0.8693 0.6028 0.1492
N5 N 0.6910(7) 0.4997(6) 0.1853(5)
H21 H 0.6878 0.5288 0.1364
H22 H 0.6187 0.5008 0.2069
C16 C 0.9340(11) 0.4507(9) 0.4949(8)
D1 D 0.9581 0.4606 0.4389
D2 D 0.9270 0.3857 0.5050
D3 D 0.9909 0.4765 0.5317
N5A N 0.8090(7) 0.5003(6) 0.6853(5)
Rh1A Rh 0.73895(7) 0.35338(6) 0.16227(5)
H21A H 0.8122 0.4712 0.6364
H22A H 0.8813 0.4992 0.7069
O6 O 0.7886(9) 0.8851(7) 0.8562(6)
O7 O 0.8668(9) 0.6188(6) 0.9770(6)
O8 O 0.5889(13) 0.8554(12) 0.9497(10)
C17 C 0.4159(13) 0.5142(11) 0.3103(9)
D4 D 0.4642 0.4727 0.3412
D5 D 0.3355 0.5026 0.3228
D6 D 0.4350 0.5767 0.3247
O9 O 0.4356(8) 0.5004(6) 0.2236(6)
C18 C 0.825(2) 0.8296(19) 1.0644(18)
D7 D 0.7912 0.8801 1.0945
D8 D 0.8545 0.8516 1.0127
D9 D 0.8870 0.8030 1.0959
O10 O 0.7361(17) 0.7605(10) 1.0494(9)
loop_
_geom_bond_atom_site_label_1
_geom_bond_atom_site_label_2
_geom_bond_site_symmetry_1
_geom_bond_site_symmetry_2
Rh1 N1 1_555 1_555
O1 N2 1_555 1_555
O2 H1 1_555 1_555
O3 N4 1_555 1_555
O4 N3 1_555 1_555
N1 O2 1_555 1_555
N2 Rh1 1_555 1_555
N3 Rh1 1_555 1_555
C1 Rh1 1_555 1_555
H2 C1 1_555 1_555
H3 C1 1_555 1_555
H4 C1 1_555 1_555
N4 Rh1 1_555 1_555
C2 N1 1_555 1_555
C3 H5 1_555 1_555
H6 C3 1_555 1_555
H7 C3 1_555 1_555
C4 C2 1_555 1_555
H8 C4 1_555 1_555
H9 C4 1_555 1_555
H10 C4 1_555 1_555
C5 N4 1_555 1_555
C6 N3 1_555 1_555
B1 O1 1_555 1_555
O5 B1 1_555 1_555
C7 C6 1_555 1_555
H11 C7 1_555 1_555
H12 C7 1_555 1_555
H13 C7 1_555 1_555
C8 N2 1_555 1_555
C9 C8 1_555 1_555
H14 C9 1_555 1_555
H15 C9 1_555 1_555
H16 C9 1_555 1_555
C10 H17 1_555 1_555
C11 B1 1_555 1_555
C12 C11 1_555 1_555
H18 C12 1_555 1_555
C13 C12 1_555 1_555
C14 C10 1_555 1_555
H19 C14 1_555 1_555
C15 C13 1_555 1_555
H20 C15 1_555 1_555
N5 C13 1_555 1_555
H21 N5 1_555 1_555
H22 N5 1_555 1_555
C16 O5 1_555 1_555
D1 C16 1_555 1_555
D2 C16 1_555 1_555
D3 C16 1_555 1_555
C17 D4 1_555 1_555
D5 C17 1_555 1_555
D6 C17 1_555 1_555
O9 C17 1_555 1_555
C18 D7 1_555 1_555
D8 C18 1_555 1_555
D9 C18 1_555 1_555
O10 C18 1_555 1_555
N5A Rh1 1_555 1_555
Rh1A N5 1_555 1_555
H21A N5A 1_555 1_555
H22A N5A 1_555 1_555
O3 B1 1_555 1_555
C2 C5 1_555 1_555
C3 C5 1_555 1_555
C6 C8 1_555 1_555
C10 C11 1_555 1_555
C14 C15 1_555 1_555

#END
