
#######################################################################
#
#                 Cambridge Crystallographic Data Centre
#                                CCDC 
#
#######################################################################
#
# If this CIF has been generated from an entry in the Cambridge 
# Structural Database, then it will include bibliographic, chemical, 
# crystal, experimental, refinement or atomic coordinate data resulting 
# from the CCDC's data processing and validation procedures.
#
#######################################################################

data_UHAGAN
_symmetry_cell_setting           monoclinic
_symmetry_space_group_name_H-M   'P 21'
_symmetry_Int_Tables_number      4
_space_group_name_Hall           'P 2yb'
loop_
_symmetry_equiv_pos_site_id
_symmetry_equiv_pos_as_xyz
1 x,y,z
2 -x,1/2+y,-z
_cell_length_a                   14.450
_cell_length_b                   13.869
_cell_length_c                   15.721
_cell_angle_alpha                90
_cell_angle_beta                 90.84
_cell_angle_gamma                90
_cell_volume                     3150.26
loop_
_atom_site_label
_atom_site_type_symbol
_atom_site_fract_x
_atom_site_fract_y
_atom_site_fract_z
Eu1 Eu 1.18210(2) 1.52098(3) 1.007522(17)
N1 N 1.1963(4) 0.7717(5) 0.6845(3)
N2 N 1.1351(5) 1.2166(5) 0.7518(4)
N3 N 1.5221(4) 1.0754(6) 0.7085(4)
N4 N 1.1942(4) 1.2655(4) 1.3320(3)
N5 N 1.1751(4) 0.8108(4) 1.2753(4)
N6 N 1.5521(3) 1.0029(5) 1.2942(3)
O1 O 1.1437(4) 0.5890(4) 0.8801(3)
O2 O 1.1478(5) 1.3565(4) 0.9778(4)
O3 O 1.6836(4) 1.0730(6) 0.9228(4)
O4 O 1.1550(4) 1.4571(4) 1.1380(3)
O5 O 1.1440(5) 0.6823(4) 1.0439(3)
O6 O 1.6961(4) 0.9734(6) 1.0766(4)
C1 C 1.0820(5) 0.9706(9) 0.6502(6)
H1 H 1.0761 0.9025 0.6409
H2 H 1.0455 1.0047 0.6085
H3 H 1.0607 0.9863 0.7061
C2 C 1.3255(11) 1.2303(8) 0.6593(7)
H4 H 1.3911 1.2382 0.6535
H5 H 1.3074 1.2519 0.7147
H6 H 1.2938 1.2678 0.6166
C3 C 1.4170(6) 0.8828(8) 0.6133(6)
H7 H 1.4765 0.9135 0.6129
H8 H 1.4067 0.8497 0.5604
H9 H 1.4150 0.8373 0.6593
C4 C 1.1817(4) 0.9995(6) 0.6427(4)
C5 C 1.2070(5) 1.0947(6) 0.6537(4)
C6 C 1.3000(7) 1.1231(6) 0.6484(5)
C7 C 1.3676(5) 1.0555(6) 0.6347(4)
C8 C 1.3428(5) 0.9578(6) 0.6249(4)
C9 C 1.2507(5) 0.9307(5) 0.6272(4)
C10 C 1.2217(6) 0.8298(6) 0.6079(4)
H10 H 1.2718 0.7975 0.5790
H11 H 1.1690 0.8316 0.5690
C11 C 1.2443(6) 0.7801(6) 0.7589(4)
H12 H 1.2899 0.8271 0.7645
C12 C 1.2264(6) 0.7206(7) 0.8255(4)
H13 H 1.2594 0.7288 0.8763
C13 C 1.1597(5) 0.6471(6) 0.8199(4)
C14 C 1.1096(7) 0.6455(8) 0.7423(5)
H14 H 1.0609 0.6023 0.7356
C15 C 1.1304(6) 0.7047(7) 0.6778(5)
H15 H 1.0977 0.6987 0.6267
C16 C 1.1342(9) 1.1720(9) 0.6669(6)
H16 H 1.1427 1.2222 0.6248
H17 H 1.0736 1.1437 0.6567
C17 C 1.0980(5) 1.3051(6) 0.7581(5)
H18 H 1.0714 1.3342 0.7103
C18 C 1.0990(6) 1.3528(6) 0.8348(5)
H19 H 1.0704 1.4127 0.8387
C19 C 1.1423(6) 1.3129(6) 0.9074(5)
C20 C 1.1771(7) 1.2191(6) 0.8988(5)
H20 H 1.2042 1.1882 0.9453
C21 C 1.1712(8) 1.1737(7) 0.8230(6)
H21 H 1.1926 1.1107 0.8191
C22 C 1.4683(6) 1.0838(9) 0.6285(5)
H22 H 1.4972 1.0436 0.5859
H23 H 1.4716 1.1500 0.6090
C23 C 1.4842(6) 1.0767(9) 0.7865(5)
H24 H 1.4202 1.0780 0.7911
C24 C 1.5375(6) 1.0761(10) 0.8584(6)
H25 H 1.5084 1.0775 0.9108
C25 C 1.6338(5) 1.0736(7) 0.8570(5)
C26 C 1.6695(5) 1.0706(7) 0.7737(6)
H26 H 1.7333 1.0679 0.7667
C27 C 1.6138(6) 1.0718(7) 0.7043(6)
H27 H 1.6408 1.0699 0.6510
C28 C 1.1027(4) 1.0335(9) 1.3743(5)
H28 H 1.0855 1.0997 1.3826
H29 H 1.0766 0.9946 1.4184
H30 H 1.0797 1.0119 1.3199
C29 C 1.3961(8) 0.8359(8) 1.3479(7)
H31 H 1.3509 0.7854 1.3443
H32 H 1.4391 0.8222 1.3935
H33 H 1.4288 0.8399 1.2953
C30 C 1.4137(6) 1.1975(7) 1.3889(6)
H34 H 1.4784 1.1823 1.3856
H35 H 1.4019 1.2294 1.4418
H36 H 1.3965 1.2393 1.3425
C31 C 1.2074(3) 1.0245(7) 1.3773(3)
C32 C 1.2521(5) 0.9359(6) 1.3666(4)
C33 C 1.3485(6) 0.9304(6) 1.3647(5)
C34 C 1.4004(4) 1.0151(7) 1.3732(3)
C35 C 1.3566(5) 1.1041(6) 1.3835(5)
C36 C 1.2604(5) 1.1092(6) 1.3871(4)
C37 C 1.2133(6) 1.2034(6) 1.4077(4)
H37 H 1.1552 1.1896 1.4354
H38 H 1.2520 1.2390 1.4477
C38 C 1.1561(5) 1.3533(6) 1.3466(4)
H39 H 1.1401 1.3697 1.4018
C39 C 1.1409(5) 1.4175(6) 1.2831(4)
H40 H 1.1145 1.4771 1.2952
C40 C 1.1648(5) 1.3947(6) 1.1981(4)
C41 C 1.2026(5) 1.3014(5) 1.1851(4)
H41 H 1.2177 1.2821 1.1304
C42 C 1.2166(5) 1.2407(6) 1.2501(4)
H42 H 1.2422 1.1804 1.2397
C43 C 1.1964(6) 0.8447(6) 1.3633(5)
H43 H 1.2302 0.7945 1.3934
H44 H 1.1387 0.8551 1.3927
C44 C 1.1281(5) 0.7252(5) 1.2675(5)
H45 H 1.1053 0.6960 1.3162
C45 C 1.1140(6) 0.6827(6) 1.1923(5)
H46 H 1.0815 0.6249 1.1898
C46 C 1.1476(6) 0.7236(7) 1.1162(5)
C47 C 1.1884(7) 0.8184(7) 1.1251(5)
H47 H 1.2054 0.8534 1.0773
C48 C 1.2014(7) 0.8551(7) 1.2036(5)
H48 H 1.2303 0.9148 1.2086
C49 C 1.5044(4) 1.0088(9) 1.3777(4)
H49 H 1.5277 1.0649 1.4079
H50 H 1.5213 0.9524 1.4109
C50 C 1.5090(4) 1.0121(10) 1.2182(4)
H51 H 1.4457 1.0242 1.2160
C51 C 1.5564(5) 1.0039(10) 1.1446(5)
H52 H 1.5247 1.0110 1.0931
C52 C 1.6507(5) 0.9853(7) 1.1443(5)
C53 C 1.6931(5) 0.9759(7) 1.2250(5)
H53 H 1.7561 0.9625 1.2290
C54 C 1.6439(4) 0.9860(6) 1.2968(5)
H54 H 1.6741 0.9811 1.3493
O7 O 1.0170(3) 1.5169(6) 1.0068(4)
H55 H 1.000(4) 1.510(5) 1.0632(13)
H56 H 0.992(5) 1.555(4) 0.963(3)
Eu1_2 Eu 1.18210(2) 0.52098(3) 1.007522(17)
Eu1A Eu 1.81790(2) 1.02098(3) 0.992478(17)
O1_2 O 1.1437(4) 1.5890(4) 0.8801(3)
O3A O 1.3164(4) 1.5730(6) 1.0772(4)
O5_2 O 1.1440(5) 1.6823(4) 1.0439(3)
O6A O 1.3039(4) 1.4734(6) 0.9234(4)
Cl1 Cl 0.99755(16) 0.2729(2) 0.51336(12)
Cl2 Cl 0.67280(19) 0.1385(2) 0.50009(16)
Cl3 Cl 0.69768(11) 0.56459(14) 0.90263(12)
O8 O 1.4200(7) 0.8558(9) 0.8704(7)
C55 C 1.4764(14) 0.8209(16) 0.9174(14)
C56 C 1.4485(15) 0.8004(17) 0.9983(14)
H57 H 1.3877 0.8261 1.0067
H58 H 1.4910 0.8289 1.0385
H59 H 1.4475 0.7318 1.0063
C57 C 1.5669(14) 0.7988(16) 0.8854(14)
H60 H 1.5705 0.8190 0.8271
H61 H 1.5775 0.7306 0.8891
H62 H 1.6130 0.8322 0.9187
O9 O 0.7229(6) 0.4823(7) 1.0900(6)
O10 O 1.1380(7) 0.4277(7) 0.5722(5)
O11 O 1.1220(6) 0.5879(7) 0.4576(5)
O12 O 0.9092(5) 0.4391(5) 1.1311(4)
O13 O 1.0024(4) 0.7630(5) 0.9243(4)
O14 O 0.9169(4) 0.5791(6) 0.8689(4)
O15 O 0.6727(5) -0.0882(6) 0.5066(4)
Tb1? Tb 1.18210(2) 1.52098(3) 1.007522(17)
loop_
_geom_bond_atom_site_label_1
_geom_bond_atom_site_label_2
_geom_bond_site_symmetry_1
_geom_bond_site_symmetry_2
Eu1 O2 1_555 1_555
N1 C10 1_555 1_555
N2 C16 1_555 1_555
N3 C22 1_555 1_555
N4 C37 1_555 1_555
N5 C43 1_555 1_555
N6 C49 1_555 1_555
O1 C13 1_555 1_555
O2 C19 1_555 1_555
O3 C25 1_555 1_555
O4 Eu1 1_555 1_555
O5 C46 1_555 1_555
O6 C52 1_555 1_555
C1 H1 1_555 1_555
H2 C1 1_555 1_555
H3 C1 1_555 1_555
C2 H4 1_555 1_555
H5 C2 1_555 1_555
H6 C2 1_555 1_555
C3 H7 1_555 1_555
H8 C3 1_555 1_555
H9 C3 1_555 1_555
C4 C1 1_555 1_555
C5 C4 1_555 1_555
C6 C2 1_555 1_555
C7 C6 1_555 1_555
C8 C3 1_555 1_555
C9 C4 1_555 1_555
C10 C9 1_555 1_555
H10 C10 1_555 1_555
H11 C10 1_555 1_555
C11 N1 1_555 1_555
H12 C11 1_555 1_555
C12 C11 1_555 1_555
H13 C12 1_555 1_555
C13 C12 1_555 1_555
C14 C13 1_555 1_555
H14 C14 1_555 1_555
C15 N1 1_555 1_555
H15 C15 1_555 1_555
C16 C5 1_555 1_555
H16 C16 1_555 1_555
H17 C16 1_555 1_555
C17 N2 1_555 1_555
H18 C17 1_555 1_555
C18 C17 1_555 1_555
H19 C18 1_555 1_555
C19 C18 1_555 1_555
C20 C19 1_555 1_555
H20 C20 1_555 1_555
C21 N2 1_555 1_555
H21 C21 1_555 1_555
C22 C7 1_555 1_555
H22 C22 1_555 1_555
H23 C22 1_555 1_555
C23 N3 1_555 1_555
H24 C23 1_555 1_555
C24 C23 1_555 1_555
H25 C24 1_555 1_555
C25 C24 1_555 1_555
C26 C25 1_555 1_555
H26 C26 1_555 1_555
C27 N3 1_555 1_555
H27 C27 1_555 1_555
C28 H28 1_555 1_555
H29 C28 1_555 1_555
H30 C28 1_555 1_555
C29 H31 1_555 1_555
H32 C29 1_555 1_555
H33 C29 1_555 1_555
C30 H34 1_555 1_555
H35 C30 1_555 1_555
H36 C30 1_555 1_555
C31 C28 1_555 1_555
C32 C31 1_555 1_555
C33 C29 1_555 1_555
C34 C33 1_555 1_555
C35 C30 1_555 1_555
C36 C31 1_555 1_555
C37 C36 1_555 1_555
H37 C37 1_555 1_555
H38 C37 1_555 1_555
C38 N4 1_555 1_555
H39 C38 1_555 1_555
C39 C38 1_555 1_555
H40 C39 1_555 1_555
C40 O4 1_555 1_555
C41 C40 1_555 1_555
H41 C41 1_555 1_555
C42 N4 1_555 1_555
H42 C42 1_555 1_555
C43 C32 1_555 1_555
H43 C43 1_555 1_555
H44 C43 1_555 1_555
C44 N5 1_555 1_555
H45 C44 1_555 1_555
C45 C44 1_555 1_555
H46 C45 1_555 1_555
C46 C45 1_555 1_555
C47 C46 1_555 1_555
H47 C47 1_555 1_555
C48 N5 1_555 1_555
H48 C48 1_555 1_555
C49 C34 1_555 1_555
H49 C49 1_555 1_555
H50 C49 1_555 1_555
C50 N6 1_555 1_555
H51 C50 1_555 1_555
C51 C50 1_555 1_555
H52 C51 1_555 1_555
C52 C51 1_555 1_555
C53 C52 1_555 1_555
H53 C53 1_555 1_555
C54 N6 1_555 1_555
H54 C54 1_555 1_555
O7 Eu1 1_555 1_555
H55 O7 1_555 1_555
H56 O7 1_555 1_555
O8 C55 1_555 1_555
C55 C56 1_555 1_555
C56 H57 1_555 1_555
H58 C56 1_555 1_555
H59 C56 1_555 1_555
C57 C55 1_555 1_555
H60 C57 1_555 1_555
H61 C57 1_555 1_555
H62 C57 1_555 1_555
Eu1_2 O1 1_555 1_555
Eu1A O3 1_555 1_555
O1_2 Eu1 1_555 1_555
O3A Eu1 1_555 1_555
O5_2 Eu1 1_555 1_555
O6A Eu1 1_555 1_555
O5 Eu1_2 1_555 1_555
O6 Eu1A 1_555 1_555
C5 C6 1_555 1_555
C7 C8 1_555 1_555
C8 C9 1_555 1_555
C14 C15 1_555 1_555
C20 C21 1_555 1_555
C26 C27 1_555 1_555
C32 C33 1_555 1_555
C34 C35 1_555 1_555
C35 C36 1_555 1_555
C39 C40 1_555 1_555
C41 C42 1_555 1_555
C47 C48 1_555 1_555
C53 C54 1_555 1_555

#END
