
#######################################################################
#
#                 Cambridge Crystallographic Data Centre
#                                CCDC 
#
#######################################################################
#
# If this CIF has been generated from an entry in the Cambridge 
# Structural Database, then it will include bibliographic, chemical, 
# crystal, experimental, refinement or atomic coordinate data resulting 
# from the CCDC's data processing and validation procedures.
#
#######################################################################

data_UHAKEV
_symmetry_cell_setting           triclinic
_symmetry_space_group_name_H-M   'P -1'
_symmetry_Int_Tables_number      2
_space_group_name_Hall           '-P 1'
loop_
_symmetry_equiv_pos_site_id
_symmetry_equiv_pos_as_xyz
1 x,y,z
2 -x,-y,-z
_cell_length_a                   7.4413(15)
_cell_length_b                   13.439(3)
_cell_length_c                   15.503(3)
_cell_angle_alpha                113.46(3)
_cell_angle_beta                 92.10(3)
_cell_angle_gamma                93.15(3)
_cell_volume                     1417.15
loop_
_atom_site_label
_atom_site_type_symbol
_atom_site_fract_x
_atom_site_fract_y
_atom_site_fract_z
Zn1 Zn 0.5000 0.5000 0.0000
Zn2 Zn 0.78649(4) 0.34891(3) -0.11539(2)
Zn3 Zn 0.83921(4) 0.62322(3) -0.08708(2)
O1 O 0.4075(2) 0.46102(15) -0.13917(11)
O2 O 0.6045(3) 0.34525(17) -0.22153(13)
O3 O 0.0405(2) 0.39525(15) -0.14700(12)
O4 O 0.0134(2) 0.53373(16) -0.19140(13)
O5 O 0.6814(2) 0.74894(16) 0.00701(15)
O6 O 0.4377(2) 0.66674(15) 0.03429(13)
O7 O 0.0261(3) 0.76786(17) -0.08396(13)
O8 O 0.0708(2) 0.69214(15) 0.01665(12)
O9 O 0.7600(2) 0.51298(15) -0.03577(12)
H1 H 0.822(3) 0.531(2) 0.0141(14)
N1 N 1.0170(4) 0.0856(2) -0.32149(18)
N2 N 0.8521(4) 0.0581(2) -0.36784(19)
N3 N 0.8391(3) 0.1914(2) -0.22347(16)
N4 N 1.4431(3) -0.3852(2) -0.29484(18)
N5 N 1.5853(4) -0.4082(3) -0.3509(2)
N6 N 1.6718(3) -0.3798(2) -0.20062(17)
C1 C 1.1919(4) -0.0755(2) -0.3549(2)
C2 C 1.3097(4) -0.1455(3) -0.4109(2)
H2 H 1.3751 -0.1262 -0.4534
C3 C 1.3321(4) -0.2441(3) -0.4049(2)
H3 H 1.4116 -0.2915 -0.4439
C4 C 1.2379(4) -0.2740(3) -0.3416(2)
C5 C 1.1219(4) -0.2035(3) -0.2854(2)
H4 H 1.0583 -0.2222 -0.2420
C6 C 1.0978(4) -0.1058(3) -0.2920(2)
H5 H 1.0168 -0.0590 -0.2536
C7 C 1.1749(5) 0.0314(3) -0.3647(3)
H6 H 1.2834 0.0797 -0.3354
H7 H 1.1673 0.0178 -0.4318
C8 C 1.2624(4) -0.3813(3) -0.3342(2)
H8 H 1.1720 -0.3930 -0.2942
H9 H 1.2423 -0.4403 -0.3970
C9 C 0.7517(5) 0.1247(3) -0.3056(2)
H10 H 0.6273 0.1258 -0.3176
C10 C 1.0072(4) 0.1641(2) -0.2364(2)
H11 H 1.1053 0.1956 -0.1919
C11 C 1.7181(4) -0.4045(3) -0.2909(2)
H12 H 1.8366 -0.4179 -0.3090
C12 C 1.4962(4) -0.3683(2) -0.2068(2)
H13 H 1.4205 -0.3507 -0.1564
C13 C 0.3290(3) 0.3517(2) -0.29978(17)
C14 C 0.1507(3) 0.3803(2) -0.29414(17)
C15 C 0.0379(4) 0.3459(3) -0.37601(19)
H14 H -0.0813 0.3664 -0.3723
C16 C 0.0987(4) 0.2819(3) -0.4630(2)
H15 H 0.0212 0.2590 -0.5177
C17 C 0.2731(4) 0.2522(3) -0.4685(2)
H16 H 0.3144 0.2074 -0.5269
C18 C 0.3883(4) 0.2882(2) -0.38788(19)
H17 H 0.5084 0.2694 -0.3927
C19 C 0.0665(3) 0.4434(2) -0.20225(17)
C20 C 0.4335(3) 0.8529(2) 0.06010(18)
C21 C 0.2492(3) 0.8592(2) 0.03989(18)
C22 C 0.1827(4) 0.9612(2) 0.0679(2)
H18 H 0.0604 0.9661 0.0538
C23 C 0.2907(4) 1.0552(3) 0.1157(2)
H19 H 0.2420 1.1233 0.1349
C24 C 0.4711(4) 1.0490(3) 0.1352(2)
H20 H 0.5457 1.1128 0.1683
C25 C 0.5415(4) 0.9494(2) 0.1061(2)
H21 H 0.6655 0.9461 0.1176
C26 C 0.5254(3) 0.7490(2) 0.03141(17)
C27 C 0.1115(3) 0.7663(2) -0.01352(19)
C28 C 0.4569(3) 0.3888(2) -0.21307(18)
Zn2A Zn 0.21351(4) 0.65109(3) 0.11539(2)
Zn3A Zn 0.16079(4) 0.37678(3) 0.08708(2)
O1A O 0.5925(2) 0.53898(15) 0.13917(11)
O2A O 0.3955(3) 0.65475(17) 0.22153(13)
O3A O 0.9595(2) 0.60475(15) 0.14700(12)
O4A O 0.9866(2) 0.46627(16) 0.19140(13)
O5A O 0.3186(2) 0.25106(16) -0.00701(15)
O6A O 0.5623(2) 0.33326(15) -0.03429(13)
O7A O 0.9739(3) 0.23214(17) 0.08396(13)
O8A O 0.9292(2) 0.30786(15) -0.01665(12)
O9A O 0.2400(2) 0.48702(15) 0.03577(12)
H1A H 0.178(3) 0.469(2) -0.0141(14)
N1A N -0.0170(4) 0.9144(2) 0.32149(18)
N2A N 0.1479(4) 0.9419(2) 0.36784(19)
N3A N 0.1609(3) 0.8086(2) 0.22347(16)
N4A N -0.4431(3) 1.3852(2) 0.29484(18)
N5A N -0.5853(4) 1.4082(3) 0.3509(2)
N6A N -0.6718(3) 1.3798(2) 0.20062(17)
C1A C -0.1919(4) 1.0755(2) 0.3549(2)
C2A C -0.3097(4) 1.1455(3) 0.4109(2)
H2A H -0.3751 1.1262 0.4534
C3A C -0.3321(4) 1.2441(3) 0.4049(2)
H3A H -0.4116 1.2915 0.4439
C4A C -0.2379(4) 1.2740(3) 0.3416(2)
C5A C -0.1219(4) 1.2035(3) 0.2854(2)
H4A H -0.0583 1.2222 0.2420
C6A C -0.0978(4) 1.1058(3) 0.2920(2)
H5A H -0.0168 1.0590 0.2536
C7A C -0.1749(5) 0.9686(3) 0.3647(3)
H6A H -0.2834 0.9203 0.3354
H7A H -0.1673 0.9822 0.4318
C8A C -0.2624(4) 1.3813(3) 0.3342(2)
H8A H -0.1720 1.3930 0.2942
H9A H -0.2423 1.4403 0.3970
C9A C 0.2483(5) 0.8753(3) 0.3056(2)
H10A H 0.3727 0.8742 0.3176
C10A C -0.0072(4) 0.8359(2) 0.2364(2)
H11A H -0.1053 0.8044 0.1919
C11A C -0.7181(4) 1.4045(3) 0.2909(2)
H12A H -0.8366 1.4179 0.3090
C12A C -0.4962(4) 1.3683(2) 0.2068(2)
H13A H -0.4205 1.3507 0.1564
C13A C 0.6710(3) 0.6483(2) 0.29978(17)
C14A C 0.8493(3) 0.6197(2) 0.29414(17)
C15A C 0.9621(4) 0.6541(3) 0.37601(19)
H14A H 1.0813 0.6336 0.3723
C16A C 0.9013(4) 0.7181(3) 0.4630(2)
H15A H 0.9788 0.7410 0.5177
C17A C 0.7269(4) 0.7478(3) 0.4685(2)
H16A H 0.6856 0.7926 0.5269
C18A C 0.6117(4) 0.7118(2) 0.38788(19)
H17A H 0.4916 0.7306 0.3927
C19A C 0.9335(3) 0.5566(2) 0.20225(17)
C20A C 0.5665(3) 0.1471(2) -0.06010(18)
C21A C 0.7508(3) 0.1408(2) -0.03989(18)
C22A C 0.8173(4) 0.0388(2) -0.0679(2)
H18A H 0.9396 0.0339 -0.0538
C23A C 0.7093(4) -0.0552(3) -0.1157(2)
H19A H 0.7580 -0.1233 -0.1349
C24A C 0.5289(4) -0.0490(3) -0.1352(2)
H20A H 0.4543 -0.1128 -0.1683
C25A C 0.4585(4) 0.0506(2) -0.1061(2)
H21A H 0.3345 0.0539 -0.1176
C26A C 0.4746(3) 0.2510(2) -0.03141(17)
C27A C 0.8885(3) 0.2337(2) 0.01352(19)
C28A C 0.5431(3) 0.6112(2) 0.21307(18)
Zn2_2 Zn -0.21351(4) 0.34891(3) -0.11539(2)
Zn2A_2 Zn 1.21351(4) 0.65109(3) 0.11539(2)
Zn3_2 Zn -0.16079(4) 0.62322(3) -0.08708(2)
Zn3_3 Zn 1.83921(4) -0.37678(3) -0.08708(2)
Zn3A_2 Zn -0.83921(4) 1.37678(3) 0.08708(2)
Zn3A_3 Zn 1.16079(4) 0.37678(3) 0.08708(2)
O3_2 O 1.0405(2) 0.39525(15) -0.14700(12)
O3A_2 O -0.0405(2) 0.60475(15) 0.14700(12)
O4_2 O 1.0134(2) 0.53373(16) -0.19140(13)
O4A_2 O -0.0134(2) 0.46627(16) 0.19140(13)
O7_2 O 1.0261(3) 0.76786(17) -0.08396(13)
O7A_2 O -0.0261(3) 0.23214(17) 0.08396(13)
O8_2 O 1.0708(2) 0.69214(15) 0.01665(12)
O8A_2 O -0.0708(2) 0.30786(15) -0.01665(12)
N6_2 N 0.6718(3) 0.6202(2) -0.20062(17)
N6A_2 N 0.3282(3) 0.3798(2) 0.20062(17)
loop_
_geom_bond_atom_site_label_1
_geom_bond_atom_site_label_2
_geom_bond_site_symmetry_1
_geom_bond_site_symmetry_2
Zn1 O1 1_555 1_555
Zn2 O2 1_555 1_555
Zn3 O5 1_555 1_555
O1 C28 1_555 1_555
O2 C28 1_555 1_555
O3 C19 1_555 1_555
O4 C19 1_555 1_555
O5 C26 1_555 1_555
O6 Zn1 1_555 1_555
O7 C27 1_555 1_555
O8 C27 1_555 1_555
O9 Zn1 1_555 1_555
H1 O9 1_555 1_555
N1 N2 1_555 1_555
N2 C9 1_555 1_555
N3 Zn2 1_555 1_555
N4 N5 1_555 1_555
N5 C11 1_555 1_555
N6 C11 1_555 1_555
C1 C2 1_555 1_555
C2 H2 1_555 1_555
C3 C2 1_555 1_555
H3 C3 1_555 1_555
C4 C3 1_555 1_555
C5 C4 1_555 1_555
H4 C5 1_555 1_555
C6 C1 1_555 1_555
H5 C6 1_555 1_555
C7 N1 1_555 1_555
H6 C7 1_555 1_555
H7 C7 1_555 1_555
C8 N4 1_555 1_555
H8 C8 1_555 1_555
H9 C8 1_555 1_555
C9 N3 1_555 1_555
H10 C9 1_555 1_555
C10 N1 1_555 1_555
H11 C10 1_555 1_555
C11 H12 1_555 1_555
C12 N4 1_555 1_555
H13 C12 1_555 1_555
C13 C14 1_555 1_555
C14 C15 1_555 1_555
C15 H14 1_555 1_555
C16 C15 1_555 1_555
H15 C16 1_555 1_555
C17 C16 1_555 1_555
H16 C17 1_555 1_555
C18 C13 1_555 1_555
H17 C18 1_555 1_555
C19 C14 1_555 1_555
C20 C21 1_555 1_555
C21 C22 1_555 1_555
C22 H18 1_555 1_555
C23 C22 1_555 1_555
H19 C23 1_555 1_555
C24 C23 1_555 1_555
H20 C24 1_555 1_555
C25 C20 1_555 1_555
H21 C25 1_555 1_555
C26 O6 1_555 1_555
C27 C21 1_555 1_555
C28 C13 1_555 1_555
Zn2A O6 1_555 1_555
Zn3A O5A 1_555 1_555
O1A Zn1 1_555 1_555
O2A Zn2A 1_555 1_555
O3A C19A 1_555 1_555
O4A C19A 1_555 1_555
O5A C26A 1_555 1_555
O6A Zn1 1_555 1_555
O7A C27A 1_555 1_555
O8A Zn2 1_555 1_555
O9A Zn1 1_555 1_555
H1A O9A 1_555 1_555
N1A N2A 1_555 1_555
N2A C9A 1_555 1_555
N3A Zn2A 1_555 1_555
N4A N5A 1_555 1_555
N5A C11A 1_555 1_555
N6A C11A 1_555 1_555
C1A C2A 1_555 1_555
C2A H2A 1_555 1_555
C3A C2A 1_555 1_555
H3A C3A 1_555 1_555
C4A C3A 1_555 1_555
C5A C4A 1_555 1_555
H4A C5A 1_555 1_555
C6A C1A 1_555 1_555
H5A C6A 1_555 1_555
C7A N1A 1_555 1_555
H6A C7A 1_555 1_555
H7A C7A 1_555 1_555
C8A N4A 1_555 1_555
H8A C8A 1_555 1_555
H9A C8A 1_555 1_555
C9A N3A 1_555 1_555
H10A C9A 1_555 1_555
C10A N1A 1_555 1_555
H11A C10A 1_555 1_555
C11A H12A 1_555 1_555
C12A N4A 1_555 1_555
H13A C12A 1_555 1_555
C13A C14A 1_555 1_555
C14A C15A 1_555 1_555
C15A H14A 1_555 1_555
C16A C15A 1_555 1_555
H15A C16A 1_555 1_555
C17A C16A 1_555 1_555
H16A C17A 1_555 1_555
C18A C13A 1_555 1_555
H17A C18A 1_555 1_555
C19A C14A 1_555 1_555
C20A C21A 1_555 1_555
C21A C22A 1_555 1_555
C22A H18A 1_555 1_555
C23A C22A 1_555 1_555
H19A C23A 1_555 1_555
C24A C23A 1_555 1_555
H20A C24A 1_555 1_555
C25A C20A 1_555 1_555
H21A C25A 1_555 1_555
C26A O6A 1_555 1_555
C27A O8A 1_555 1_555
C28A O1A 1_555 1_555
Zn2_2 O3 1_555 1_555
Zn2A_2 O3A 1_555 1_555
Zn3_2 O4 1_555 1_555
Zn3_3 N6 1_555 1_555
Zn3A_2 N6A 1_555 1_555
Zn3A_3 O4A 1_555 1_555
O3_2 Zn2 1_555 1_555
O3A_2 Zn2A 1_555 1_555
O4_2 Zn3 1_555 1_555
O4A_2 Zn3A 1_555 1_555
O7_2 Zn3 1_555 1_555
O7A_2 Zn3A 1_555 1_555
O8_2 Zn3 1_555 1_555
O8A_2 Zn3A 1_555 1_555
N6_2 Zn3 1_555 1_555
N6A_2 Zn3A 1_555 1_555
Zn2 O9 1_555 1_555
Zn2 O6A 1_555 1_555
Zn3 O9 1_555 1_555
O7 Zn3_2 1_555 1_555
O8 Zn2A 1_555 1_555
O8 Zn3_2 1_555 1_555
N3 C10 1_555 1_555
N6 C12 1_555 1_555
C1 C7 1_555 1_555
C4 C8 1_555 1_555
C5 C6 1_555 1_555
C17 C18 1_555 1_555
C20 C26 1_555 1_555
C24 C25 1_555 1_555
Zn2A O9A 1_555 1_555
Zn3A O9A 1_555 1_555
O2A C28A 1_555 1_555
O7A Zn3A_3 1_555 1_555
O8A Zn3A_3 1_555 1_555
N3A C10A 1_555 1_555
N6A C12A 1_555 1_555
C1A C7A 1_555 1_555
C4A C8A 1_555 1_555
C5A C6A 1_555 1_555
C13A C28A 1_555 1_555
C17A C18A 1_555 1_555
C20A C26A 1_555 1_555
C21A C27A 1_555 1_555
C24A C25A 1_555 1_555
Zn2_2 O8A_2 1_555 1_555
Zn2A_2 O8_2 1_555 1_555

#END
