
#######################################################################
#
#                 Cambridge Crystallographic Data Centre
#                                CCDC 
#
#######################################################################
#
# If this CIF has been generated from an entry in the Cambridge 
# Structural Database, then it will include bibliographic, chemical, 
# crystal, experimental, refinement or atomic coordinate data resulting 
# from the CCDC's data processing and validation procedures.
#
#######################################################################

data_UHALIA
_symmetry_cell_setting           orthorhombic
_symmetry_space_group_name_H-M   'C m c m'
_symmetry_Int_Tables_number      63
_space_group_name_Hall           '-C 2n 2'
loop_
_symmetry_equiv_pos_site_id
_symmetry_equiv_pos_as_xyz
1 x,y,z
2 -x,-y,1/2+z
3 -x,y,1/2-z
4 x,-y,-z
5 1/2+x,1/2+y,z
6 1/2-x,1/2-y,1/2+z
7 1/2-x,1/2+y,1/2-z
8 1/2+x,1/2-y,-z
9 -x,-y,-z
10 x,y,1/2-z
11 x,-y,1/2+z
12 -x,y,z
13 1/2-x,1/2-y,-z
14 1/2+x,1/2+y,1/2-z
15 1/2+x,1/2-y,1/2+z
16 1/2-x,1/2+y,z
_cell_length_a                   12.5908(5)
_cell_length_b                   9.5436(4)
_cell_length_c                   17.6577(8)
_cell_angle_alpha                90
_cell_angle_beta                 90
_cell_angle_gamma                90
_cell_volume                     2121.78
loop_
_atom_site_label
_atom_site_type_symbol
_atom_site_fract_x
_atom_site_fract_y
_atom_site_fract_z
Zn1 Zn 0.5000 0.0000 0.5000
C1 C 0.2251(3) 0.0287(4) 0.7500
H1 H 0.1547 0.0749 0.7500
H2 H 0.2136 -0.0739 0.7500
C2 C 0.3418(2) -0.0111(2) 0.63714(17)
H3 H 0.3533 -0.1087 0.6436
C3 C 0.3430(2) 0.1960(3) 0.59704(18)
H4 H 0.3580 0.2750 0.5661
C4 C 0.5000 0.3143(4) 0.4252(2)
N1 N 0.38201(15) 0.0653(2) 0.58199(12)
N2 N 0.28283(15) 0.0685(2) 0.68234(12)
N3 N 0.28379(19) 0.2036(3) 0.65715(14)
N4 N 0.5000 0.2048(3) 0.45318(18)
S1 S 0.5000 0.46686(13) 0.38242(7)
C2I C 0.3418(2) -0.0111(2) 0.86286(17)
H3I H 0.3533 -0.1087 0.8564
C3I C 0.3430(2) 0.1960(3) 0.90296(18)
H4I H 0.3580 0.2750 0.9339
N1I N 0.38201(15) 0.0653(2) 0.91801(12)
N2I N 0.28283(15) 0.0685(2) 0.81766(12)
N3I N 0.28379(19) 0.2036(3) 0.84285(14)
C1B C 0.7749(3) 0.0287(4) 0.7500
H1B H 0.8453 0.0749 0.7500
H2B H 0.7864 -0.0739 0.7500
C2B C 0.6582(2) -0.0111(2) 0.86286(17)
H3B H 0.6467 -0.1087 0.8564
C3B C 0.6570(2) 0.1960(3) 0.90296(18)
H4B H 0.6420 0.2750 0.9339
N1B N 0.61799(15) 0.0653(2) 0.91801(12)
N2B N 0.71717(15) 0.0685(2) 0.81766(12)
N3B N 0.71621(19) 0.2036(3) 0.84285(14)
C2K C 0.6582(2) -0.0111(2) 0.63714(17)
H3K H 0.6467 -0.1087 0.6436
C3K C 0.6570(2) 0.1960(3) 0.59704(18)
H4K H 0.6420 0.2750 0.5661
N1K N 0.61799(15) 0.0653(2) 0.58199(12)
N2K N 0.71717(15) 0.0685(2) 0.68234(12)
N3K N 0.71621(19) 0.2036(3) 0.65715(14)
C4C C 0.5000 -0.3143(4) 0.5748(2)
N4C N 0.5000 -0.2048(3) 0.54682(18)
S1C S 0.5000 -0.46686(13) 0.61758(7)
Zn1A Zn 0.5000 0.0000 1.0000
N1C N 0.38201(15) -0.0653(2) 0.41801(12)
N1H N 0.61799(15) -0.0653(2) 0.41801(12)
O1 O 0.5000 0.2141(11) 0.2500
H5 H 0.5000 0.2700 0.2880
H5B H 0.5000 0.2700 0.2120
loop_
_geom_bond_atom_site_label_1
_geom_bond_atom_site_label_2
_geom_bond_site_symmetry_1
_geom_bond_site_symmetry_2
Zn1 N1 1_555 1_555
C1 H1 1_555 1_555
H2 C1 1_555 1_555
C2 H3 1_555 1_555
C3 H4 1_555 1_555
C4 N4 1_555 1_555
N1 C2 1_555 1_555
N2 C1 1_555 1_555
N3 C3 1_555 1_555
N4 Zn1 1_555 1_555
S1 C4 1_555 1_555
O1 H5 1_555 1_555
C2I H3I 1_555 1_555
C3I H4I 1_555 1_555
N1I C2I 1_555 1_555
N2I C1 1_555 1_555
N3I C3I 1_555 1_555
C1B H1B 1_555 1_555
H2B C1B 1_555 1_555
C2B H3B 1_555 1_555
C3B H4B 1_555 1_555
N1B C2B 1_555 1_555
N2B C1B 1_555 1_555
N3B C3B 1_555 1_555
C2K H3K 1_555 1_555
C3K H4K 1_555 1_555
N1K Zn1 1_555 1_555
N2K C1B 1_555 1_555
N3K C3K 1_555 1_555
C4C N4C 1_555 1_555
N4C Zn1 1_555 1_555
S1C C4C 1_555 1_555
Zn1A N1I 1_555 1_555
N1C Zn1 1_555 1_555
N1H Zn1 1_555 1_555
H5B O1 1_555 1_555
C2 N2 1_555 1_555
C3 N1 1_555 1_555
N2 N3 1_555 1_555
C2I N2I 1_555 1_555
C3I N1I 1_555 1_555
N2I N3I 1_555 1_555
C2B N2B 1_555 1_555
C3B N1B 1_555 1_555
N1B Zn1A 1_555 1_555
N2B N3B 1_555 1_555
C2K N1K 1_555 1_555
C2K N2K 1_555 1_555
C3K N1K 1_555 1_555
N2K N3K 1_555 1_555

#END
