
#######################################################################
#
#                 Cambridge Crystallographic Data Centre
#                                CCDC 
#
#######################################################################
#
# If this CIF has been generated from an entry in the Cambridge 
# Structural Database, then it will include bibliographic, chemical, 
# crystal, experimental, refinement or atomic coordinate data resulting 
# from the CCDC's data processing and validation procedures.
#
#######################################################################

data_UHASON
_symmetry_cell_setting           monoclinic
_symmetry_space_group_name_H-M   'P 21/c'
_symmetry_Int_Tables_number      14
_space_group_name_Hall           '-P 2ybc'
loop_
_symmetry_equiv_pos_site_id
_symmetry_equiv_pos_as_xyz
1 x,y,z
2 -x,1/2+y,1/2-z
3 -x,-y,-z
4 x,1/2-y,1/2+z
_cell_length_a                   5.0687(3)
_cell_length_b                   14.8844(9)
_cell_length_c                   13.6533(9)
_cell_angle_alpha                90
_cell_angle_beta                 94.1730(10)
_cell_angle_gamma                90
_cell_volume                     1027.34
loop_
_atom_site_label
_atom_site_type_symbol
_atom_site_fract_x
_atom_site_fract_y
_atom_site_fract_z
C1 C 0.4671(4) 0.54200(13) 0.85078(14)
C2 C 0.2674(4) 0.48600(13) 0.88844(14)
H1 H 0.1813 0.5048 0.9427
C3 C 0.2037(4) 0.40675(13) 0.84624(13)
C4 C 0.5093(4) 0.42581(13) 0.72887(14)
C5 C 0.5858(4) 0.50605(13) 0.76605(15)
H2 H 0.7160 0.5386 0.7371
C6 C 0.6369(4) 0.37859(13) 0.64628(15)
C7 C 0.0000(4) 0.34200(13) 0.87997(13)
Cu1 Cu -0.26695(5) 0.279644(16) 1.045564(17)
H3 H -0.584(5) 0.1914(14) 0.9395(18)
H4 H 0.146(4) 0.3271(19) 1.144(2)
O1 O -0.0734(3) 0.36000(9) 0.96499(10)
O2 O -0.0795(3) 0.28041(10) 0.82552(10)
O3 O 0.5570(3) 0.29934(9) 0.63110(10)
O4 O 0.8088(4) 0.41928(11) 0.60468(12)
O5 O 0.5366(3) 0.61531(9) 0.88904(10)
O6 O 0.3176(3) 0.37586(9) 0.76612(10)
O7 O -0.4910(3) 0.23660(11) 0.93263(11)
H5 H -0.4057 0.2360 0.8839
O8 O 0.0015(3) 0.30495(12) 1.15288(11)
H6 H -0.0068 0.2668 1.1959
Cu1B Cu 0.26695(5) 0.720356(16) 0.954436(17)
Cu1C Cu 0.73305(5) 0.220356(16) 0.545564(17)
O3C O -0.4430(3) 0.20066(9) 1.13110(10)
O5B O -0.5366(3) 0.38469(9) 1.11096(10)
H7 H 0.189(7) 0.0467(15) 0.938(2)
H8 H 0.087(6) 0.103(2) 1.005(2)
O9 O 0.1885(5) 0.09917(14) 0.96020(18)
loop_
_geom_bond_atom_site_label_1
_geom_bond_atom_site_label_2
_geom_bond_site_symmetry_1
_geom_bond_site_symmetry_2
C1 C2 1_555 1_555
C2 H1 1_555 1_555
C3 C2 1_555 1_555
C4 C5 1_555 1_555
C5 C1 1_555 1_555
H2 C5 1_555 1_555
C6 C4 1_555 1_555
C7 C3 1_555 1_555
Cu1 O1 1_555 1_555
H3 O7 1_555 1_555
H4 O8 1_555 1_555
O1 C7 1_555 1_555
O2 C7 1_555 1_555
O3 C6 1_555 1_555
O4 C6 1_555 1_555
O5 C1 1_555 1_555
O6 C3 1_555 1_555
O7 Cu1 1_555 1_555
H5 O7 1_555 1_555
O8 Cu1 1_555 1_555
H6 O8 1_555 1_555
H7 O9 1_555 1_555
H8 O9 1_555 1_555
Cu1B O5 1_555 1_555
Cu1C O3 1_555 1_555
O3C Cu1 1_555 1_555
O5B Cu1 1_555 1_555
C4 O6 1_555 1_555

#END
