
#######################################################################
#
#                 Cambridge Crystallographic Data Centre
#                                CCDC 
#
#######################################################################
#
# If this CIF has been generated from an entry in the Cambridge 
# Structural Database, then it will include bibliographic, chemical, 
# crystal, experimental, refinement or atomic coordinate data resulting 
# from the CCDC's data processing and validation procedures.
#
#######################################################################

data_UHATAA
_symmetry_cell_setting           monoclinic
_symmetry_space_group_name_H-M   'C 2/c'
_symmetry_Int_Tables_number      15
_space_group_name_Hall           '-C 2yn'
loop_
_symmetry_equiv_pos_site_id
_symmetry_equiv_pos_as_xyz
1 x,y,z
2 -x,y,1/2-z
3 1/2+x,1/2+y,z
4 1/2-x,1/2+y,1/2-z
5 -x,-y,-z
6 x,-y,1/2+z
7 1/2-x,1/2-y,-z
8 1/2+x,1/2-y,1/2+z
_cell_length_a                   3.8359(5)
_cell_length_b                   16.507(2)
_cell_length_c                   12.0057(17)
_cell_angle_alpha                90
_cell_angle_beta                 92.883(2)
_cell_angle_gamma                90
_cell_volume                     759.229
loop_
_atom_site_label
_atom_site_type_symbol
_atom_site_fract_x
_atom_site_fract_y
_atom_site_fract_z
Ag1 Ag 0.69628(10) 0.79984(2) 0.38550(3)
C1 C 1.0000 0.9573(3) 0.2500
C2 C 0.8509(11) 1.0040(2) 0.3373(3)
H1 H 0.7538 0.9778 0.3970
C3 C 0.8525(10) 1.0851(2) 0.3324(3)
C4 C 0.6759(10) 1.1426(2) 0.4098(3)
O1 O 1.0000 1.1266(2) 0.2500
O2 O 0.5459(9) 1.11171(18) 0.4926(3)
O3 O 0.6680(7) 1.21567(17) 0.3809(2)
O4 O 1.0000 0.8812(2) 0.2500
C2A C 1.1491(11) 1.0040(2) 0.1627(3)
H1A H 1.2462 0.9778 0.1030
C3A C 1.1475(10) 1.0851(2) 0.1676(3)
C4A C 1.3241(10) 1.1426(2) 0.0902(3)
O2A O 1.4541(9) 1.11171(18) 0.0074(3)
O3A O 1.3320(7) 1.21567(17) 0.1191(2)
Ag1A Ag 1.30372(10) 0.79984(2) 0.11450(3)
Ag1B Ag 0.19628(10) 1.29984(2) 0.38550(3)
Ag1B_2 Ag 1.19628(10) 1.29984(2) 0.38550(3)
Ag1C Ag 0.80372(10) 1.29984(2) 0.11450(3)
Ag1C_2 Ag 1.80372(10) 1.29984(2) 0.11450(3)
Ag1D Ag 0.30372(10) 1.20016(2) 0.61450(3)
Ag1E Ag 1.69628(10) 1.20016(2) -0.11450(3)
O2D O 0.4541(9) 0.88829(18) 0.5074(3)
O2E O 1.5459(9) 0.88829(18) -0.0074(3)
O3B O 0.1680(7) 0.71567(17) 0.3809(2)
O3B_2 O 1.1680(7) 0.71567(17) 0.3809(2)
O3C O 0.8320(7) 0.71567(17) 0.1191(2)
O3C_2 O 1.8320(7) 0.71567(17) 0.1191(2)
loop_
_geom_bond_atom_site_label_1
_geom_bond_atom_site_label_2
_geom_bond_site_symmetry_1
_geom_bond_site_symmetry_2
Ag1 O4 1_555 1_555
C1 C2 1_555 1_555
C2 H1 1_555 1_555
C3 C2 1_555 1_555
C4 C3 1_555 1_555
O1 C3 1_555 1_555
O2 C4 1_555 1_555
O3 C4 1_555 1_555
O4 C1 1_555 1_555
C2A C1 1_555 1_555
H1A C2A 1_555 1_555
C3A O1 1_555 1_555
C4A C3A 1_555 1_555
O2A C4A 1_555 1_555
O3A C4A 1_555 1_555
Ag1A O4 1_555 1_555
Ag1B O3 1_555 1_555
Ag1B_2 O3 1_555 1_555
Ag1C O3A 1_555 1_555
Ag1C_2 O3A 1_555 1_555
Ag1D O2 1_555 1_555
Ag1E O2A 1_555 1_555
O2D Ag1 1_555 1_555
O2E Ag1A 1_555 1_555
O3B Ag1 1_555 1_555
O3B_2 Ag1 1_555 1_555
O3C Ag1A 1_555 1_555
O3C_2 Ag1A 1_555 1_555
C2A C3A 1_555 1_555

#END
