
#######################################################################
#
#                 Cambridge Crystallographic Data Centre
#                                CCDC 
#
#######################################################################
#
# If this CIF has been generated from an entry in the Cambridge 
# Structural Database, then it will include bibliographic, chemical, 
# crystal, experimental, refinement or atomic coordinate data resulting 
# from the CCDC's data processing and validation procedures.
#
#######################################################################

data_UHAVUV
_symmetry_cell_setting           monoclinic
_symmetry_space_group_name_H-M   'P 21/n'
_symmetry_Int_Tables_number      14
_space_group_name_Hall           '-P 2yn'
loop_
_symmetry_equiv_pos_site_id
_symmetry_equiv_pos_as_xyz
1 x,y,z
2 1/2-x,1/2+y,1/2-z
3 -x,-y,-z
4 1/2+x,1/2-y,1/2+z
_cell_length_a                   9.7413(9)
_cell_length_b                   13.2603(13)
_cell_length_c                   18.4924(18)
_cell_angle_alpha                90
_cell_angle_beta                 98.520(2)
_cell_angle_gamma                90
_cell_volume                     2362.35
loop_
_atom_site_label
_atom_site_type_symbol
_atom_site_fract_x
_atom_site_fract_y
_atom_site_fract_z
N1 N 0.2145(3) 0.59464(19) 0.48233(14)
C1 C 0.2230(3) 0.5323(2) 0.53820(17)
H1 H 0.2927 0.4842 0.5482
N2 N 0.1210(3) 0.54476(19) 0.57973(13)
C2 C 0.1160(4) 0.4993(2) 0.65118(18)
H2 H 0.1847 0.4460 0.6595
H3 H 0.0253 0.4693 0.6516
Mn1 Mn -0.13716(5) 0.91233(3) 0.90129(2)
C3 C -0.0480(3) 1.1422(2) 0.94667(19)
C4 C -0.0437(3) 1.2401(2) 0.90483(16)
C5 C -0.1103(3) 1.2479(2) 0.83292(17)
H4 H -0.1528 1.1914 0.8097
C6 C -0.1896(3) 1.3491(4) 0.71769(19)
C7 C -0.1144(3) 1.3389(2) 0.79539(17)
C8 C -0.0488(3) 1.4219(2) 0.82980(18)
H5 H -0.0523 1.4839 0.8061
C9 C 0.0219(3) 1.4119(2) 0.89973(17)
C10 C 0.0244(3) 1.3229(2) 0.93865(16)
H6 H 0.0705 1.3187 0.9863
C11 C 0.0387(3) 0.6234(2) 0.54848(17)
C12 C -0.0784(3) 0.6692(2) 0.56872(18)
H7 H -0.1181 0.6470 0.6086
C13 C -0.1320(3) 0.7491(3) 0.52639(19)
H8 H -0.2097 0.7825 0.5381
C14 C -0.0725(4) 0.7817(3) 0.46606(19)
H9 H -0.1115 0.8363 0.4388
C15 C 0.0423(4) 0.7349(2) 0.44611(17)
H10 H 0.0809 0.7565 0.4057
C16 C 0.0986(3) 0.6544(2) 0.48843(16)
C17 C 0.1437(4) 0.5770(2) 0.71301(17)
H11 H 0.0613 0.6182 0.7128
H12 H 0.1598 0.5415 0.7593
C18 C 0.2657(3) 0.6454(2) 0.70808(17)
H13 H 0.2501 0.6810 0.6618
H14 H 0.3485 0.6046 0.7088
C19 C 0.2902(3) 0.7218(3) 0.76955(19)
H15 H 0.3108 0.6859 0.8156
H16 H 0.3712 0.7617 0.7635
C20 C 0.1094(3) 0.8049(2) 0.83304(17)
H17 H 0.1301 0.7680 0.8760
C21 C 0.0161(3) 0.9106(2) 0.75299(17)
C22 C -0.0645(4) 0.9855(2) 0.7138(2)
H18 H -0.1313 1.0210 0.7344
C23 C -0.0410(4) 1.0043(3) 0.6439(2)
H19 H -0.0940 1.0531 0.6165
C24 C 0.0606(4) 0.9522(3) 0.6121(2)
H20 H 0.0744 0.9679 0.5647
C25 C 0.1396(4) 0.8786(3) 0.64999(19)
H21 H 0.2068 0.8437 0.6292
C26 C 0.1150(3) 0.8582(2) 0.72118(17)
N3 N 0.1001(3) 1.4994(2) 0.93418(18)
N4 N 0.0148(3) 0.87641(19) 0.82432(14)
N5 N 0.1742(3) 0.78984(19) 0.77369(14)
O1 O -0.0168(2) 1.14557(16) 1.01492(12)
O2 O -0.0877(3) 1.06601(16) 0.90932(14)
O3 O -0.2383(3) 1.2722(2) 0.68557(13)
O4 O -0.2005(3) 1.4356(2) 0.69060(13)
O5 O 0.0943(4) 1.57852(19) 0.90032(17)
O6 O 0.1679(3) 1.48818(19) 0.99469(16)
N1B N -0.2145(3) 1.40536(19) 1.51767(14)
N1A N 0.2855(3) 1.09464(19) 1.01767(14)
N1C N -0.2855(3) 0.90536(19) 0.98233(14)
C1B C -0.2230(3) 1.4677(2) 1.46180(17)
H1B H -0.2927 1.5158 1.4518
N2B N -0.1210(3) 1.45524(19) 1.42027(13)
C2B C -0.1160(4) 1.5007(2) 1.34882(18)
H2B H -0.1847 1.5540 1.3405
H3B H -0.0253 1.5307 1.3484
Mn1B Mn 0.13716(5) 1.08767(3) 1.09871(2)
Mn1A Mn -0.36284(5) 1.41233(3) 0.59871(2)
Mn1A_2 Mn -0.36284(5) 1.41233(3) 1.59871(2)
Mn1C Mn 0.36284(5) 0.58767(3) 0.40129(2)
Mn1C_2 Mn 0.36284(5) 0.58767(3) 1.40129(2)
C3B C 0.0480(3) 0.8578(2) 1.05333(19)
C4B C 0.0437(3) 0.7599(2) 1.09517(16)
C5B C 0.1103(3) 0.7521(2) 1.16708(17)
H4B H 0.1528 0.8086 1.1903
C6B C 0.1896(3) 0.6509(4) 1.28231(19)
C7B C 0.1144(3) 0.6611(2) 1.20461(17)
C8B C 0.0488(3) 0.5781(2) 1.17020(18)
H5B H 0.0523 0.5161 1.1939
C9B C -0.0219(3) 0.5881(2) 1.10027(17)
C10B C -0.0244(3) 0.6771(2) 1.06135(16)
H6B H -0.0705 0.6813 1.0137
C11B C -0.0387(3) 1.3766(2) 1.45152(17)
C12B C 0.0784(3) 1.3308(2) 1.43128(18)
H7B H 0.1181 1.3530 1.3914
C13B C 0.1320(3) 1.2509(3) 1.47361(19)
H8B H 0.2097 1.2175 1.4619
C14B C 0.0725(4) 1.2183(3) 1.53394(19)
H9B H 0.1115 1.1637 1.5612
C15B C -0.0423(4) 1.2651(2) 1.55389(17)
H10B H -0.0809 1.2435 1.5943
C16B C -0.0986(3) 1.3456(2) 1.51157(16)
C17B C -0.1437(4) 1.4230(2) 1.28699(17)
H11B H -0.0613 1.3818 1.2872
H12B H -0.1598 1.4585 1.2407
C18B C -0.2657(3) 1.3546(2) 1.29192(17)
H13B H -0.2501 1.3190 1.3382
H14B H -0.3485 1.3954 1.2912
C19B C -0.2902(3) 1.2782(3) 1.23045(19)
H15B H -0.3108 1.3141 1.1844
H16B H -0.3712 1.2383 1.2365
C20B C -0.1094(3) 1.1951(2) 1.16696(17)
H17B H -0.1301 1.2320 1.1240
C21B C -0.0161(3) 1.0894(2) 1.24701(17)
C22B C 0.0645(4) 1.0145(2) 1.2862(2)
H18B H 0.1313 0.9790 1.2656
C23B C 0.0410(4) 0.9957(3) 1.3561(2)
H19B H 0.0940 0.9469 1.3835
C24B C -0.0606(4) 1.0478(3) 1.3879(2)
H20B H -0.0744 1.0321 1.4353
C25B C -0.1396(4) 1.1214(3) 1.35001(19)
H21B H -0.2068 1.1563 1.3708
C26B C -0.1150(3) 1.1418(2) 1.27882(17)
N3B N -0.1001(3) 0.5006(2) 1.06582(18)
N4B N -0.0148(3) 1.12359(19) 1.17568(14)
N5B N -0.1742(3) 1.21016(19) 1.22631(14)
O1B O 0.0168(2) 0.85443(16) 0.98508(12)
O2B O 0.0877(3) 0.93399(16) 1.09068(14)
O3B O 0.2383(3) 0.7278(2) 1.31443(13)
O4B O 0.2005(3) 0.5644(2) 1.30940(13)
O4A O -0.2995(3) 0.9356(2) 0.80940(13)
O4C O 0.2995(3) 1.0644(2) 1.19060(13)
O5B O -0.0943(4) 0.42148(19) 1.09968(17)
O6B O -0.1679(3) 0.51182(19) 1.00531(16)
loop_
_geom_bond_atom_site_label_1
_geom_bond_atom_site_label_2
_geom_bond_site_symmetry_1
_geom_bond_site_symmetry_2
N1 C1 1_555 1_555
C1 H1 1_555 1_555
N2 C1 1_555 1_555
C2 N2 1_555 1_555
H2 C2 1_555 1_555
H3 C2 1_555 1_555
Mn1 N4 1_555 1_555
C3 C4 1_555 1_555
C4 C5 1_555 1_555
C5 H4 1_555 1_555
C6 C7 1_555 1_555
C7 C5 1_555 1_555
C8 C7 1_555 1_555
H5 C8 1_555 1_555
C9 C8 1_555 1_555
C10 C4 1_555 1_555
H6 C10 1_555 1_555
C11 N2 1_555 1_555
C12 C11 1_555 1_555
H7 C12 1_555 1_555
C13 C12 1_555 1_555
H8 C13 1_555 1_555
C14 C13 1_555 1_555
H9 C14 1_555 1_555
C15 C14 1_555 1_555
H10 C15 1_555 1_555
C16 N1 1_555 1_555
C17 C2 1_555 1_555
H11 C17 1_555 1_555
H12 C17 1_555 1_555
C18 C17 1_555 1_555
H13 C18 1_555 1_555
H14 C18 1_555 1_555
C19 C18 1_555 1_555
H15 C19 1_555 1_555
H16 C19 1_555 1_555
C20 H17 1_555 1_555
C21 C22 1_555 1_555
C22 H18 1_555 1_555
C23 C22 1_555 1_555
H19 C23 1_555 1_555
C24 C23 1_555 1_555
H20 C24 1_555 1_555
C25 C24 1_555 1_555
H21 C25 1_555 1_555
C26 C21 1_555 1_555
N3 C9 1_555 1_555
N4 C20 1_555 1_555
N5 C19 1_555 1_555
O1 C3 1_555 1_555
O2 Mn1 1_555 1_555
O3 C6 1_555 1_555
O4 C6 1_555 1_555
O5 N3 1_555 1_555
O6 N3 1_555 1_555
N1B C1B 1_555 1_555
N1A Mn1B 1_555 1_555
N1C Mn1 1_555 1_555
C1B H1B 1_555 1_555
N2B C1B 1_555 1_555
C2B N2B 1_555 1_555
H2B C2B 1_555 1_555
H3B C2B 1_555 1_555
Mn1B O1 1_555 1_555
Mn1A O4 1_555 1_555
Mn1A_2 N1B 1_555 1_555
Mn1C N1 1_555 1_555
Mn1C_2 O4B 1_555 1_555
C3B C4B 1_555 1_555
C4B C5B 1_555 1_555
C5B H4B 1_555 1_555
C6B C7B 1_555 1_555
C7B C5B 1_555 1_555
C8B C7B 1_555 1_555
H5B C8B 1_555 1_555
C9B C8B 1_555 1_555
C10B C4B 1_555 1_555
H6B C10B 1_555 1_555
C11B N2B 1_555 1_555
C12B C11B 1_555 1_555
H7B C12B 1_555 1_555
C13B C12B 1_555 1_555
H8B C13B 1_555 1_555
C14B C13B 1_555 1_555
H9B C14B 1_555 1_555
C15B C14B 1_555 1_555
H10B C15B 1_555 1_555
C16B N1B 1_555 1_555
C17B C2B 1_555 1_555
H11B C17B 1_555 1_555
H12B C17B 1_555 1_555
C18B C17B 1_555 1_555
H13B C18B 1_555 1_555
H14B C18B 1_555 1_555
C19B C18B 1_555 1_555
H15B C19B 1_555 1_555
H16B C19B 1_555 1_555
C20B H17B 1_555 1_555
C21B C22B 1_555 1_555
C22B H18B 1_555 1_555
C23B C22B 1_555 1_555
H19B C23B 1_555 1_555
C24B C23B 1_555 1_555
H20B C24B 1_555 1_555
C25B C24B 1_555 1_555
H21B C25B 1_555 1_555
C26B C21B 1_555 1_555
N3B C9B 1_555 1_555
N4B Mn1B 1_555 1_555
N5B C19B 1_555 1_555
O1B Mn1 1_555 1_555
O2B Mn1B 1_555 1_555
O3B C6B 1_555 1_555
O4B C6B 1_555 1_555
O4A Mn1 1_555 1_555
O4C Mn1B 1_555 1_555
O5B N3B 1_555 1_555
O6B N3B 1_555 1_555
C3 O2 1_555 1_555
C9 C10 1_555 1_555
C11 C16 1_555 1_555
C15 C16 1_555 1_555
C20 N5 1_555 1_555
C21 N4 1_555 1_555
C25 C26 1_555 1_555
C26 N5 1_555 1_555
C3B O1B 1_555 1_555
C3B O2B 1_555 1_555
C9B C10B 1_555 1_555
C11B C16B 1_555 1_555
C15B C16B 1_555 1_555
C20B N4B 1_555 1_555
C20B N5B 1_555 1_555
C21B N4B 1_555 1_555
C25B C26B 1_555 1_555
C26B N5B 1_555 1_555

#END
