
#######################################################################
#
#                 Cambridge Crystallographic Data Centre
#                                CCDC 
#
#######################################################################
#
# If this CIF has been generated from an entry in the Cambridge 
# Structural Database, then it will include bibliographic, chemical, 
# crystal, experimental, refinement or atomic coordinate data resulting 
# from the CCDC's data processing and validation procedures.
#
#######################################################################

data_UHAVOP
_symmetry_cell_setting           triclinic
_symmetry_space_group_name_H-M   'P -1'
_symmetry_Int_Tables_number      2
_space_group_name_Hall           '-P 1'
loop_
_symmetry_equiv_pos_site_id
_symmetry_equiv_pos_as_xyz
1 x,y,z
2 -x,-y,-z
_cell_length_a                   9.9484(9)
_cell_length_b                   10.7880(10)
_cell_length_c                   13.8678(13)
_cell_angle_alpha                92.9090(10)
_cell_angle_beta                 108.763(2)
_cell_angle_gamma                117.2770(10)
_cell_volume                     1217.32
loop_
_atom_site_label
_atom_site_type_symbol
_atom_site_fract_x
_atom_site_fract_y
_atom_site_fract_z
Gd1 Gd 0.76607(3) 1.03453(2) -0.003442(17)
C1 C 0.9800(6) 1.1436(5) 0.3373(4)
C2 C 0.8803(6) 1.0847(5) 0.3932(4)
H1 H 0.7700 1.0161 0.3577
C3 C 0.9467(7) 1.1292(5) 0.5022(4)
C4 C 1.1089(6) 1.2333(5) 0.5546(4)
H2 H 1.1524 1.2679 0.6268
C5 C 1.2048(6) 1.2849(5) 0.4977(4)
C6 C 1.1456(6) 1.2433(5) 0.3892(4)
H3 H 1.2139 1.2806 0.3530
C7 C 0.9064(6) 1.1004(5) 0.2191(4)
C8 C 0.8473(7) 1.0716(5) 0.5666(4)
N1 N 1.3801(6) 1.3927(5) 0.5574(3)
C9 C 0.3371(6) 0.5970(4) -0.0852(3)
C10 C 0.4452(5) 0.5839(5) -0.1213(3)
H4 H 0.5276 0.6637 -0.1308
C11 C 0.4286(6) 0.4506(5) -0.1428(3)
C12 C 0.3135(5) 0.3304(5) -0.1253(4)
H5 H 0.3066 0.2420 -0.1397
C13 C 0.2083(6) 0.3443(5) -0.0856(3)
C14 C 0.2160(5) 0.4765(4) -0.0686(3)
H6 H 0.1411 0.4847 -0.0463
C15 C 0.3573(6) 0.7443(4) -0.0587(3)
N2 N 0.5449(6) 0.4384(5) -0.1803(3)
C16 C 0.0961(6) 0.2179(4) -0.0544(3)
O1 O 0.7542(4) 1.0172(4) 0.1722(3)
O2 O 0.9995(4) 1.1518(3) 0.1707(2)
O3 O 0.6959(5) 0.9776(4) 0.5128(3)
H11 H 0.649(8) 0.947(7) 0.552(5)
O4 O 0.9082(5) 1.1111(4) 0.6617(3)
O5 O 1.4124(5) 1.4895(5) 0.6264(3)
O6 O 1.4806(5) 1.3785(5) 0.5341(4)
O7 O 0.4981(4) 0.8501(3) -0.0375(3)
O8 O 0.2365(4) 0.7527(3) -0.0583(3)
O9 O 0.6693(5) 0.5487(4) -0.1710(3)
O10 O 0.5150(6) 0.3192(5) -0.2162(4)
O11 O 0.1329(4) 0.1207(3) -0.0393(3)
O12 O -0.0248(4) 0.2156(3) -0.0432(3)
O13 O 0.5845(5) 1.0628(4) -0.1520(3)
H12 H 0.624(6) 1.116(5) -0.188(4)
H13 H 0.497(4) 1.058(6) -0.163(5)
O14 O 0.7377(5) 0.9011(4) -0.1626(3)
H14 H 0.810(5) 0.886(7) -0.163(4)
H15 H 0.688(6) 0.899(7) -0.223(2)
Gd1A Gd 0.23393(3) -0.03453(2) 0.003442(17)
Gd1_2 Gd -0.23393(3) 0.03453(2) -0.003442(17)
Gd1_3 Gd 0.76607(3) 0.03453(2) -0.003442(17)
Gd1A_2 Gd 0.23393(3) 0.96547(2) 0.003442(17)
Gd1A_3 Gd 1.23393(3) 0.96547(2) 0.003442(17)
C1A C 0.0200(6) -0.1436(5) -0.3373(4)
C2A C 0.1197(6) -0.0847(5) -0.3932(4)
H1A H 0.2300 -0.0161 -0.3577
C3A C 0.0533(7) -0.1292(5) -0.5022(4)
C4A C -0.1089(6) -0.2333(5) -0.5546(4)
H2A H -0.1524 -0.2679 -0.6268
C5A C -0.2048(6) -0.2849(5) -0.4977(4)
C6A C -0.1456(6) -0.2433(5) -0.3892(4)
H3A H -0.2139 -0.2806 -0.3530
C7A C 0.0936(6) -0.1004(5) -0.2191(4)
C8A C 0.1527(7) -0.0716(5) -0.5666(4)
N1A N -0.3801(6) -0.3927(5) -0.5574(3)
C9A C 0.6629(6) 0.4030(4) 0.0852(3)
C10A C 0.5548(5) 0.4161(5) 0.1213(3)
H4A H 0.4724 0.3363 0.1308
C11A C 0.5714(6) 0.5494(5) 0.1428(3)
C12A C 0.6865(5) 0.6696(5) 0.1253(4)
H5A H 0.6934 0.7580 0.1397
C13A C 0.7917(6) 0.6557(5) 0.0856(3)
C14A C 0.7840(5) 0.5235(4) 0.0686(3)
H6A H 0.8589 0.5153 0.0463
C15A C 0.6427(6) 0.2557(4) 0.0587(3)
N2A N 0.4551(6) 0.5616(5) 0.1803(3)
C16A C 0.9039(6) 0.7821(4) 0.0544(3)
O1A O 0.2458(4) -0.0172(4) -0.1722(3)
O2A O 0.0005(4) -0.1518(3) -0.1707(2)
O3A O 0.3041(5) 0.0224(4) -0.5128(3)
H11A H 0.351(8) 0.053(7) -0.552(5)
O4A O 0.0918(5) -0.1111(4) -0.6617(3)
O5A O -0.4124(5) -0.4895(5) -0.6264(3)
O6A O -0.4806(5) -0.3785(5) -0.5341(4)
O7A O 0.5019(4) 0.1499(3) 0.0375(3)
O8A O 0.7635(4) 0.2473(3) 0.0583(3)
O8_2 O 0.2365(4) -0.2473(3) -0.0583(3)
O8A_2 O 0.7635(4) 1.2473(3) 0.0583(3)
O9A O 0.3307(5) 0.4513(4) 0.1710(3)
O10A O 0.4850(6) 0.6808(5) 0.2162(4)
O11A O 0.8671(4) 0.8793(3) 0.0393(3)
O12A O 1.0248(4) 0.7844(3) 0.0432(3)
O12_2 O 0.9752(4) 1.2156(3) -0.0432(3)
O12A_2 O 0.0248(4) -0.2156(3) 0.0432(3)
O13A O 0.4155(5) -0.0628(4) 0.1520(3)
H12A H 0.376(6) -0.116(5) 0.188(4)
H13A H 0.503(4) -0.058(6) 0.163(5)
O14A O 0.2623(5) 0.0989(4) 0.1626(3)
H14A H 0.190(5) 0.114(7) 0.163(4)
H15A H 0.312(6) 0.101(7) 0.223(2)
C17 C 0.3244(6) 0.7326(5) 0.4972(4)
H7 H 0.3764 0.7717 0.4524
C18 C 0.1682(7) 0.6195(6) 0.4572(4)
H8 H 0.1161 0.5807 0.3852
C19 C 0.0848(6) 0.5605(5) 0.5212(4)
C20 C 0.1702(6) 0.6245(5) 0.6287(4)
H9 H 0.1190 0.5905 0.6748
C21 C 0.3277(7) 0.7362(5) 0.6662(4)
H10 H 0.3834 0.7772 0.7378
N3 N 0.4034(5) 0.7877(4) 0.6005(3)
O15 O 0.5584(5) 0.8940(4) 0.6401(3)
C17A C -0.3244(6) 0.2674(5) 0.5028(4)
H7A H -0.3764 0.2283 0.5476
C18A C -0.1682(7) 0.3805(6) 0.5428(4)
H8A H -0.1161 0.4193 0.6148
C19A C -0.0848(6) 0.4395(5) 0.4788(4)
C20A C -0.1702(6) 0.3755(5) 0.3713(4)
H9A H -0.1190 0.4095 0.3252
C21A C -0.3277(7) 0.2638(5) 0.3338(4)
H10A H -0.3834 0.2228 0.2622
N3A N -0.4034(5) 0.2123(4) 0.3995(3)
O15A O -0.5584(5) 0.1060(4) 0.3599(3)
O16 O 0.2633(5) 0.7770(4) 0.2642(3)
H16 H 0.200(6) 0.805(6) 0.267(6)
H17 H 0.203(6) 0.693(3) 0.229(5)
O17 O 0.0716(6) 0.4716(5) 0.2102(4)
H18 H 0.151(5) 0.464(8) 0.212(5)
H19 H -0.004(5) 0.416(6) 0.156(3)
loop_
_geom_bond_atom_site_label_1
_geom_bond_atom_site_label_2
_geom_bond_site_symmetry_1
_geom_bond_site_symmetry_2
Gd1 O1 1_555 1_555
C1 C2 1_555 1_555
C2 H1 1_555 1_555
C3 C2 1_555 1_555
C4 C3 1_555 1_555
H2 C4 1_555 1_555
C5 C4 1_555 1_555
C6 C1 1_555 1_555
H3 C6 1_555 1_555
C7 C1 1_555 1_555
C8 C3 1_555 1_555
N1 C5 1_555 1_555
C9 C10 1_555 1_555
C10 H4 1_555 1_555
C11 C10 1_555 1_555
C12 C11 1_555 1_555
H5 C12 1_555 1_555
C13 C12 1_555 1_555
C14 C9 1_555 1_555
H6 C14 1_555 1_555
C15 C9 1_555 1_555
N2 C11 1_555 1_555
C16 C13 1_555 1_555
C17 H7 1_555 1_555
C18 C17 1_555 1_555
H8 C18 1_555 1_555
C19 C18 1_555 1_555
C20 C19 1_555 1_555
H9 C20 1_555 1_555
C21 C20 1_555 1_555
H10 C21 1_555 1_555
N3 C17 1_555 1_555
O1 C7 1_555 1_555
O2 Gd1 1_555 1_555
O3 C8 1_555 1_555
H11 O3 1_555 1_555
O4 C8 1_555 1_555
O5 N1 1_555 1_555
O6 N1 1_555 1_555
O7 Gd1 1_555 1_555
O8 C15 1_555 1_555
O9 N2 1_555 1_555
O10 N2 1_555 1_555
O11 C16 1_555 1_555
O12 C16 1_555 1_555
O13 Gd1 1_555 1_555
H12 O13 1_555 1_555
H13 O13 1_555 1_555
O14 Gd1 1_555 1_555
H14 O14 1_555 1_555
H15 O14 1_555 1_555
O15 N3 1_555 1_555
O16 H16 1_555 1_555
H17 O16 1_555 1_555
O17 H18 1_555 1_555
H19 O17 1_555 1_555
Gd1A O11 1_555 1_555
Gd1_2 O12 1_555 1_555
Gd1_3 O8A 1_555 1_555
Gd1A_2 O8 1_555 1_555
Gd1A_3 O12A 1_555 1_555
C1A C2A 1_555 1_555
C2A H1A 1_555 1_555
C3A C2A 1_555 1_555
C4A C3A 1_555 1_555
H2A C4A 1_555 1_555
C5A C4A 1_555 1_555
C6A C1A 1_555 1_555
H3A C6A 1_555 1_555
C7A C1A 1_555 1_555
C8A C3A 1_555 1_555
N1A C5A 1_555 1_555
C9A C10A 1_555 1_555
C10A H4A 1_555 1_555
C11A C10A 1_555 1_555
C12A C11A 1_555 1_555
H5A C12A 1_555 1_555
C13A C12A 1_555 1_555
C14A C9A 1_555 1_555
H6A C14A 1_555 1_555
C15A C9A 1_555 1_555
N2A C11A 1_555 1_555
C16A C13A 1_555 1_555
C17A H7A 1_555 1_555
C18A C17A 1_555 1_555
H8A C18A 1_555 1_555
C19A C19 1_555 1_555
C20A C19A 1_555 1_555
H9A C20A 1_555 1_555
C21A C20A 1_555 1_555
H10A C21A 1_555 1_555
N3A C17A 1_555 1_555
O1A Gd1A 1_555 1_555
O2A Gd1A 1_555 1_555
O3A C8A 1_555 1_555
H11A O3A 1_555 1_555
O4A C8A 1_555 1_555
O5A N1A 1_555 1_555
O6A N1A 1_555 1_555
O7A Gd1A 1_555 1_555
O8A C15A 1_555 1_555
O8_2 Gd1A 1_555 1_555
O8A_2 Gd1 1_555 1_555
O9A N2A 1_555 1_555
O10A N2A 1_555 1_555
O11A Gd1 1_555 1_555
O12A C16A 1_555 1_555
O12_2 Gd1 1_555 1_555
O12A_2 Gd1A 1_555 1_555
O13A Gd1A 1_555 1_555
H12A O13A 1_555 1_555
H13A O13A 1_555 1_555
O14A Gd1A 1_555 1_555
H14A O14A 1_555 1_555
H15A O14A 1_555 1_555
O15A N3A 1_555 1_555
C5 C6 1_555 1_555
C7 O2 1_555 1_555
C13 C14 1_555 1_555
C15 O7 1_555 1_555
C21 N3 1_555 1_555
C5A C6A 1_555 1_555
C7A O1A 1_555 1_555
C7A O2A 1_555 1_555
C13A C14A 1_555 1_555
C15A O7A 1_555 1_555
C16A O11A 1_555 1_555
C18A C19A 1_555 1_555
C21A N3A 1_555 1_555

#END
