
#######################################################################
#
#                 Cambridge Crystallographic Data Centre
#                                CCDC 
#
#######################################################################
#
# If this CIF has been generated from an entry in the Cambridge 
# Structural Database, then it will include bibliographic, chemical, 
# crystal, experimental, refinement or atomic coordinate data resulting 
# from the CCDC's data processing and validation procedures.
#
#######################################################################

data_UHAXOS
_symmetry_cell_setting           monoclinic
_symmetry_space_group_name_H-M   'P 21/c'
_symmetry_Int_Tables_number      14
_space_group_name_Hall           '-P 2ybc'
loop_
_symmetry_equiv_pos_site_id
_symmetry_equiv_pos_as_xyz
1 x,y,z
2 -x,1/2+y,1/2-z
3 -x,-y,-z
4 x,1/2-y,1/2+z
_cell_length_a                   14.0296(4)
_cell_length_b                   23.8117(7)
_cell_length_c                   18.3099(5)
_cell_angle_alpha                90
_cell_angle_beta                 100.04
_cell_angle_gamma                90
_cell_volume                     6023.09
loop_
_atom_site_label
_atom_site_type_symbol
_atom_site_fract_x
_atom_site_fract_y
_atom_site_fract_z
Er1 Er -0.32224(3) 0.291266(19) -0.51822(2)
O1 O -0.4392(4) 0.2614(3) -0.4424(3)
O2 O -0.4861(4) 0.3098(3) -0.5737(4)
O3 O -0.1782(4) 0.2690(3) -0.5594(3)
O4 O -0.3465(5) 0.2873(3) -0.6559(4)
O5 O -0.3583(5) 0.2067(3) -0.5722(4)
O6 O -0.2868(5) 0.3383(3) -0.4059(4)
O7 O -0.2232(4) 0.2334(3) -0.4299(4)
O8 O -0.2952(6) 0.3841(3) -0.5537(4)
Er2 Er -0.40955(3) 0.313215(19) -0.33609(2)
Er3 Er -0.59523(3) 0.282939(19) -0.50348(2)
Er4 Er -0.49106(3) 0.23906(2) -0.66483(2)
Er5 Er -0.08083(3) 0.210674(19) -0.47172(2)
Er6 Er -0.24811(3) 0.20965(2) -0.66079(3)
Er7 Er -0.15566(3) 0.29129(2) -0.32822(3)
O9 O -0.3980(5) 0.3270(3) -0.2135(4)
O10 O -0.5052(5) 0.2419(3) -0.2913(3)
O11 O -0.5792(5) 0.3280(3) -0.3903(3)
O12 O -0.4255(5) 0.4091(3) -0.3414(4)
O13 O -0.2894(4) 0.2520(3) -0.2896(3)
O14 O -0.6521(5) 0.2185(3) -0.4272(3)
O15 O -0.6583(5) 0.3737(3) -0.5384(4)
O16 O -0.7467(4) 0.2598(3) -0.5641(4)
O17 O -0.5791(5) 0.2042(3) -0.5730(4)
O18 O -0.5946(4) 0.1737(3) -0.7245(3)
O19 O -0.6575(5) 0.2681(3) -0.7038(3)
O20 O -0.0313(5) 0.2262(3) -0.3376(4)
O21 O -0.0546(5) 0.3035(3) -0.4241(4)
O22 O -0.1392(5) 0.1215(3) -0.4309(4)
O23 O 0.0373(4) 0.2362(3) -0.5453(3)
O24 O -0.1208(4) 0.1611(3) -0.5854(3)
O25 O 0.0532(4) 0.1563(3) -0.4498(4)
O26 O -0.1052(4) 0.2602(3) -0.2014(3)
O27 O -0.2176(6) 0.3509(3) -0.2505(4)
O28 O -0.0180(4) 0.3445(3) -0.2728(3)
Er8 Er -0.66747(3) 0.271261(19) -0.32304(2)
S1 S -0.4872(2) 0.44525(12) -0.39447(17)
Er9 Er -0.81711(3) 0.203632(19) -0.47335(2)
Er10 Er -0.72610(3) 0.191278(19) -0.65476(2)
Er11 Er 0.08682(3) 0.29677(2) -0.33568(3)
Er12 Er 0.00964(3) 0.32412(2) -0.14833(2)
O29 O -0.8068(5) 0.2940(3) -0.4246(4)
O30 O -0.8084(4) 0.2174(3) -0.3398(4)
O31 O -0.7773(5) 0.3365(3) -0.2759(3)
O32 O -0.5863(6) 0.4445(4) -0.3818(7)
O33 O -0.4795(8) 0.4326(4) -0.4701(5)
C1 C -0.4420(9) 0.5134(5) -0.3738(6)
O34 O -0.8348(5) 0.1538(3) -0.5860(4)
O35 O -0.7464(5) 0.1123(3) -0.4412(4)
O36 O -0.6861(5) 0.0977(3) -0.6375(4)
O37 O -0.8828(4) 0.2302(3) -0.7044(3)
O38 O 0.0105(5) 0.4233(3) -0.1434(4)
H1 H -0.3810 0.5179 -0.3912
H2 H -0.4873 0.5408 -0.3992
C2 C -0.4266(9) 0.5240(5) -0.2891(6)
S2 S -0.6010(2) 0.06210(13) -0.6250(2)
S3 S 0.0522(2) 0.47130(11) -0.09802(16)
O39 O -0.9118(5) 0.3907(3) -0.3873(4)
S4 S -0.4014(2) 0.59626(12) -0.27006(15)
H3 H -0.3732 0.5013 -0.2644
H4 H -0.4844 0.5132 -0.2701
O40 O -0.5551(10) 0.0618(5) -0.6907(8)
C3 C -0.6450(8) -0.0060(5) -0.6204(8)
O41 O -0.5383(13) 0.0754(5) -0.5613(9)
O42 O 0.0412(6) 0.5235(3) -0.1392(4)
O43 O 0.1505(5) 0.4612(3) -0.0609(5)
C4 C -0.0175(8) 0.4757(5) -0.0274(6)
O44 O -0.4896(6) 0.6278(3) -0.2988(4)
O45 O -0.3216(5) 0.6118(3) -0.3103(4)
O46 O -0.3736(6) 0.6007(4) -0.1904(4)
C5 C -0.5644(8) -0.0492(4) -0.6081(7)
H5 H -0.6816 -0.0083 -0.5802
H6 H -0.6887 -0.0145 -0.6662
H7 H -0.0848 0.4817 -0.0493
H8 H -0.0132 0.4404 -0.0004
S5 S -0.6060(2) -0.11811(12) -0.60576(19)
H9 H -0.5218 -0.0410 -0.5617
H10 H -0.5267 -0.0459 -0.6476
O47 O -0.6658(6) -0.1206(4) -0.5487(5)
O48 O -0.5215(6) -0.1532(3) -0.5879(6)
O49 O -0.6629(8) -0.1312(4) -0.6789(6)
Er6C Er -0.24811(3) 0.29035(2) -0.16079(3)
Er4C Er -0.49106(3) 0.26094(2) -0.16483(2)
O24C O -0.1208(4) 0.3389(3) -0.0854(3)
O3C O -0.1782(4) 0.2310(3) -0.0594(3)
O4C O -0.3465(5) 0.2127(3) -0.1559(4)
O5C O -0.3583(5) 0.2933(3) -0.0722(4)
O18C O -0.5946(4) 0.3263(3) -0.2245(3)
O19C O -0.6575(5) 0.2319(3) -0.2038(3)
O2C O -0.4861(4) 0.1902(3) -0.0737(4)
O17C O -0.5791(5) 0.2958(3) -0.0730(4)
O23_2 O -0.9627(4) 0.2362(3) -0.5453(3)
O25_2 O -0.9468(4) 0.1563(3) -0.4498(4)
O31C O -0.7773(5) 0.1635(3) -0.7759(3)
O37C O 0.1172(4) 0.2698(3) -0.2044(3)
O34C O 0.1652(5) 0.3462(3) -0.0860(4)
O23C O 0.0373(4) 0.2638(3) -0.0453(3)
Er5C Er -0.08083(3) 0.289326(19) 0.02828(2)
Er10C Er -0.72610(3) 0.308722(19) -0.15476(2)
Er11_2 Er -0.91318(3) 0.29677(2) -0.33568(3)
Er12C Er -0.99036(3) 0.17588(2) -0.64833(2)
Er5_2 Er -1.08083(3) 0.210674(19) -0.47172(2)
O37C_2 O -0.8828(4) 0.2698(3) -0.2044(3)
O28_2 O -1.0180(4) 0.3445(3) -0.2728(3)
O20_2 O -1.0313(5) 0.2262(3) -0.3376(4)
O21_2 O -1.0546(5) 0.3035(3) -0.4241(4)
Er12_2 Er -0.99036(3) 0.32412(2) -0.14833(2)
Er7_2 Er -1.15566(3) 0.29129(2) -0.32822(3)
C4B C 0.0175(8) 0.5243(5) 0.0274(6)
S3B S -0.0522(2) 0.52870(11) 0.09802(16)
H7B H 0.0848 0.5183 0.0493
H8B H 0.0132 0.5596 0.0004
O38B O -0.0105(5) 0.5767(3) 0.1434(4)
O42B O -0.0412(6) 0.4765(3) 0.1392(4)
O43B O -0.1505(5) 0.5388(3) 0.0609(5)
Er12B Er -0.00964(3) 0.67588(2) 0.14833(2)
O26B O 0.1052(4) 0.7398(3) 0.2014(3)
O24A O 0.1208(4) 0.6611(3) 0.0854(3)
O34A O -0.1652(5) 0.6538(3) 0.0860(4)
O37A O -0.1172(4) 0.7302(3) 0.2044(3)
O23A O -0.0373(4) 0.7362(3) 0.0453(3)
O28B O 0.0180(4) 0.6555(3) 0.2728(3)
Er6A Er 0.24811(3) 0.70965(2) 0.16079(3)
Er7B Er 0.15566(3) 0.70871(2) 0.32822(3)
Er5A Er 0.08083(3) 0.710674(19) -0.02828(2)
Er11B Er -0.08682(3) 0.70323(2) 0.33568(3)
O9B O 0.3980(5) 0.6730(3) 0.2135(4)
O13B O 0.2894(4) 0.7480(3) 0.2896(3)
O27B O 0.2176(6) 0.6491(3) 0.2505(4)
O3A O 0.1782(4) 0.7690(3) 0.0594(3)
O4A O 0.3465(5) 0.7873(3) 0.1559(4)
O5A O 0.3583(5) 0.7067(3) 0.0722(4)
O20B O 0.0313(5) 0.7738(3) 0.3376(4)
O21B O 0.0546(5) 0.6965(3) 0.4241(4)
O6B O 0.2868(5) 0.6617(3) 0.4059(4)
O7B O 0.2232(4) 0.7666(3) 0.4299(4)
Er2B Er 0.40955(3) 0.686785(19) 0.33609(2)
Er4A Er 0.49106(3) 0.73906(2) 0.16483(2)
Er5B Er 0.08083(3) 0.789326(19) 0.47172(2)
Er1B Er 0.32224(3) 0.708734(19) 0.51822(2)
O1B O 0.4392(4) 0.7386(3) 0.4424(3)
O10B O 0.5052(5) 0.7581(3) 0.2913(3)
O11B O 0.5792(5) 0.6720(3) 0.3903(3)
O12B O 0.4255(5) 0.5909(3) 0.3414(4)
O18A O 0.5946(4) 0.6737(3) 0.2245(3)
O19A O 0.6575(5) 0.7681(3) 0.2038(3)
O2A O 0.4861(4) 0.8098(3) 0.0737(4)
O17A O 0.5791(5) 0.7042(3) 0.0730(4)
O3B O 0.1782(4) 0.7310(3) 0.5594(3)
O22B O 0.1392(5) 0.8785(3) 0.4309(4)
O23B O -0.0373(4) 0.7638(3) 0.5453(3)
O24B O 0.1208(4) 0.8389(3) 0.5854(3)
O25B O -0.0532(4) 0.8437(3) 0.4498(4)
O2B O 0.4861(4) 0.6902(3) 0.5737(4)
O4B O 0.3465(5) 0.7127(3) 0.6559(4)
O5B O 0.3583(5) 0.7933(3) 0.5722(4)
O8B O 0.2952(6) 0.6159(3) 0.5537(4)
Er3B Er 0.59523(3) 0.717061(19) 0.50348(2)
Er8B Er 0.66747(3) 0.728739(19) 0.32304(2)
S1B S 0.4872(2) 0.55475(12) 0.39447(17)
Er10A Er 0.72610(3) 0.691278(19) 0.15476(2)
Er6B Er 0.24811(3) 0.79035(2) 0.66079(3)
Er4B Er 0.49106(3) 0.76094(2) 0.66483(2)
O14B O 0.6521(5) 0.7815(3) 0.4272(3)
O15B O 0.6583(5) 0.6263(3) 0.5384(4)
O16B O 0.7467(4) 0.7402(3) 0.5641(4)
O17B O 0.5791(5) 0.7958(3) 0.5730(4)
O29B O 0.8068(5) 0.7060(3) 0.4246(4)
O30B O 0.8084(4) 0.7826(3) 0.3398(4)
O31B O 0.7773(5) 0.6635(3) 0.2759(3)
O32B O 0.5863(6) 0.5555(4) 0.3818(7)
O33B O 0.4795(8) 0.5674(4) 0.4701(5)
C1B C 0.4420(9) 0.4866(5) 0.3738(6)
O37A_2 O 0.8828(4) 0.7302(3) 0.2044(3)
O18B O 0.5946(4) 0.8263(3) 0.7245(3)
O19B O 0.6575(5) 0.7319(3) 0.7038(3)
Er12B_2 Er 0.99036(3) 0.67588(2) 0.14833(2)
Er9B Er 0.81711(3) 0.796368(19) 0.47335(2)
Er10B Er 0.72610(3) 0.808722(19) 0.65476(2)
Er11B_2 Er 0.91318(3) 0.70323(2) 0.33568(3)
H1B H 0.3810 0.4821 0.3912
H2B H 0.4873 0.4592 0.3992
C2B C 0.4266(9) 0.4760(5) 0.2891(6)
O28B_2 O 1.0180(4) 0.6555(3) 0.2728(3)
O34B O 0.8348(5) 0.8462(3) 0.5860(4)
O23B_2 O 0.9627(4) 0.7638(3) 0.5453(3)
O25B_2 O 0.9468(4) 0.8437(3) 0.4498(4)
O35B O 0.7464(5) 0.8877(3) 0.4412(4)
O36B O 0.6861(5) 0.9023(3) 0.6375(4)
O37B O 0.8828(4) 0.7698(3) 0.7044(3)
O31A O 0.7773(5) 0.8365(3) 0.7759(3)
O39B O 0.9118(5) 0.6093(3) 0.3873(4)
O20B_2 O 1.0313(5) 0.7738(3) 0.3376(4)
O21B_2 O 1.0546(5) 0.6965(3) 0.4241(4)
S4B S 0.4014(2) 0.40374(12) 0.27006(15)
H3B H 0.3732 0.4987 0.2644
H4B H 0.4844 0.4868 0.2701
Er7B_2 Er 1.15566(3) 0.70871(2) 0.32822(3)
Er12A Er 0.99036(3) 0.82412(2) 0.64833(2)
Er5B_2 Er 1.08083(3) 0.789326(19) 0.47172(2)
S2B S 0.6010(2) 0.93790(13) 0.6250(2)
O44B O 0.4896(6) 0.3722(3) 0.2988(4)
O45B O 0.3216(5) 0.3882(3) 0.3103(4)
O46B O 0.3736(6) 0.3993(4) 0.1904(4)
O40B O 0.5551(10) 0.9382(5) 0.6907(8)
C3B C 0.6450(8) 1.0060(5) 0.6204(8)
O41B O 0.5383(13) 0.9246(5) 0.5613(9)
C5B C 0.5644(8) 1.0492(4) 0.6081(7)
H5B H 0.6816 1.0083 0.5802
H6B H 0.6887 1.0145 0.6662
S5B S 0.6060(2) 1.11811(12) 0.60576(19)
H9B H 0.5218 1.0410 0.5617
H10B H 0.5267 1.0459 0.6476
O47B O 0.6658(6) 1.1206(4) 0.5487(5)
O48B O 0.5215(6) 1.1532(3) 0.5879(6)
O49B O 0.6629(8) 1.1312(4) 0.6789(6)
O50 O -0.694(11) 0.596(7) -0.332(10)
O51 O -0.7574(8) 0.5825(5) -0.3110(6)
S6 S -0.8573(2) -0.03612(12) -0.09425(19)
S7 S -0.9778(3) 0.13047(13) -0.1361(2)
O52 O -0.7551(6) -0.0450(4) -0.0651(5)
O53 O -0.9210(6) -0.0573(4) -0.0462(5)
O54 O -1.0749(9) 0.1445(5) -0.1590(10)
O55 O -0.8853(7) -0.0563(4) -0.1705(5)
O56 O -0.9196(11) 0.1489(5) -0.1832(11)
O57 O -0.9434(18) 0.1525(5) -0.0668(9)
C6 C -0.9698(9) 0.0569(5) -0.1275(8)
H11 H -1.0124 0.0442 -0.0944
H12 H -0.9918 0.0399 -0.1756
C7 C -0.8695(10) 0.0375(5) -0.0983(8)
H13 H -0.8493 0.0527 -0.0490
H14 H -0.8264 0.0524 -0.1297
O58 O -0.2926(8) 0.4101(4) -0.1172(5)
O59 O -0.7608(7) 0.4595(5) -0.3340(6)
O60 O -0.2018(8) 0.4852(5) -0.2000(7)
O61 O -0.8747(10) 0.0946(5) -0.3067(7)
loop_
_geom_bond_atom_site_label_1
_geom_bond_atom_site_label_2
_geom_bond_site_symmetry_1
_geom_bond_site_symmetry_2
Er1 O1 1_555 1_555
O1 Er2 1_555 1_555
O2 Er1 1_555 1_555
O3 Er1 1_555 1_555
O4 Er1 1_555 1_555
O5 Er1 1_555 1_555
O6 Er1 1_555 1_555
O7 Er1 1_555 1_555
O8 Er1 1_555 1_555
Er2 O6 1_555 1_555
Er3 O1 1_555 1_555
Er4 O2 1_555 1_555
Er5 O3 1_555 1_555
Er6 O3 1_555 1_555
Er7 O6 1_555 1_555
O9 Er2 1_555 1_555
O10 Er2 1_555 1_555
O11 Er2 1_555 1_555
O12 Er2 1_555 1_555
O13 Er2 1_555 1_555
O14 Er3 1_555 1_555
O15 Er3 1_555 1_555
O16 Er3 1_555 1_555
O17 Er3 1_555 1_555
O18 Er4 1_555 1_555
O19 Er4 1_555 1_555
O20 Er5 1_555 1_555
O21 Er5 1_555 1_555
O22 Er5 1_555 1_555
O23 Er5 1_555 1_555
O24 Er5 1_555 1_555
O25 Er5 1_555 1_555
O26 Er7 1_555 1_555
O27 Er7 1_555 1_555
O28 Er7 1_555 1_555
Er8 O10 1_555 1_555
S1 O12 1_555 1_555
Er9 O14 1_555 1_555
Er10 O16 1_555 1_555
Er11 O20 1_555 1_555
Er12 O26 1_555 1_555
O29 Er8 1_555 1_555
O30 Er8 1_555 1_555
O31 Er8 1_555 1_555
O32 S1 1_555 1_555
O33 S1 1_555 1_555
C1 S1 1_555 1_555
O34 Er9 1_555 1_555
O35 Er9 1_555 1_555
O36 Er10 1_555 1_555
O37 Er10 1_555 1_555
O38 Er12 1_555 1_555
H1 C1 1_555 1_555
H2 C1 1_555 1_555
C2 C1 1_555 1_555
S2 O36 1_555 1_555
S3 O38 1_555 1_555
O39 Er11_2 1_555 1_555
S4 C2 1_555 1_555
H3 C2 1_555 1_555
H4 C2 1_555 1_555
O40 S2 1_555 1_555
C3 S2 1_555 1_555
O41 S2 1_555 1_555
O42 S3 1_555 1_555
O43 S3 1_555 1_555
C4 S3 1_555 1_555
O44 S4 1_555 1_555
O45 S4 1_555 1_555
O46 S4 1_555 1_555
C5 C3 1_555 1_555
H5 C3 1_555 1_555
H6 C3 1_555 1_555
H7 C4 1_555 1_555
H8 C4 1_555 1_555
S5 C5 1_555 1_555
H9 C5 1_555 1_555
H10 C5 1_555 1_555
O47 S5 1_555 1_555
O48 S5 1_555 1_555
O49 S5 1_555 1_555
S6 O52 1_555 1_555
S7 O54 1_555 1_555
O53 S6 1_555 1_555
O55 S6 1_555 1_555
O56 S7 1_555 1_555
O57 S7 1_555 1_555
C6 S7 1_555 1_555
H11 C6 1_555 1_555
H12 C6 1_555 1_555
C7 S6 1_555 1_555
H13 C7 1_555 1_555
H14 C7 1_555 1_555
Er6C O9 1_555 1_555
Er4C O9 1_555 1_555
O24C Er12 1_555 1_555
O3C Er6C 1_555 1_555
O4C Er6C 1_555 1_555
O5C Er6C 1_555 1_555
O18C Er8 1_555 1_555
O19C Er8 1_555 1_555
O2C Er4C 1_555 1_555
O17C Er4C 1_555 1_555
O23_2 Er9 1_555 1_555
O25_2 Er9 1_555 1_555
O31C Er10 1_555 1_555
O37C Er11 1_555 1_555
O34C Er12 1_555 1_555
O23C Er12 1_555 1_555
Er5C O24C 1_555 1_555
Er10C O31 1_555 1_555
Er11_2 O29 1_555 1_555
Er12C O34 1_555 1_555
Er5_2 O23_2 1_555 1_555
O37C_2 Er10C 1_555 1_555
O28_2 Er11_2 1_555 1_555
O20_2 Er11_2 1_555 1_555
O21_2 Er11_2 1_555 1_555
Er12_2 O37C_2 1_555 1_555
Er7_2 O28_2 1_555 1_555
C4B C4 1_555 1_555
S3B C4B 1_555 1_555
H7B C4B 1_555 1_555
H8B C4B 1_555 1_555
O38B S3B 1_555 1_555
O42B S3B 1_555 1_555
O43B S3B 1_555 1_555
Er12B O38B 1_555 1_555
O26B Er12B 1_555 1_555
O24A Er12B 1_555 1_555
O34A Er12B 1_555 1_555
O37A Er12B 1_555 1_555
O23A Er12B 1_555 1_555
O28B Er12B 1_555 1_555
Er6A O26B 1_555 1_555
Er7B O26B 1_555 1_555
Er5A O24A 1_555 1_555
Er11B O37A 1_555 1_555
O9B Er6A 1_555 1_555
O13B Er6A 1_555 1_555
O27B Er6A 1_555 1_555
O3A Er6A 1_555 1_555
O4A Er6A 1_555 1_555
O5A Er6A 1_555 1_555
O20B Er7B 1_555 1_555
O21B Er7B 1_555 1_555
O6B Er7B 1_555 1_555
O7B Er7B 1_555 1_555
Er2B O9B 1_555 1_555
Er4A O9B 1_555 1_555
Er5B O20B 1_555 1_555
Er1B O6B 1_555 1_555
O1B Er2B 1_555 1_555
O10B Er2B 1_555 1_555
O11B Er2B 1_555 1_555
O12B Er2B 1_555 1_555
O18A Er4A 1_555 1_555
O19A Er4A 1_555 1_555
O2A Er4A 1_555 1_555
O17A Er4A 1_555 1_555
O3B Er5B 1_555 1_555
O22B Er5B 1_555 1_555
O23B Er5B 1_555 1_555
O24B Er5B 1_555 1_555
O25B Er5B 1_555 1_555
O2B Er1B 1_555 1_555
O4B Er1B 1_555 1_555
O5B Er1B 1_555 1_555
O8B Er1B 1_555 1_555
Er3B O1B 1_555 1_555
Er8B O10B 1_555 1_555
S1B O12B 1_555 1_555
Er10A O18A 1_555 1_555
Er6B O3B 1_555 1_555
Er4B O2B 1_555 1_555
O14B Er3B 1_555 1_555
O15B Er3B 1_555 1_555
O16B Er3B 1_555 1_555
O17B Er3B 1_555 1_555
O29B Er8B 1_555 1_555
O30B Er8B 1_555 1_555
O31B Er8B 1_555 1_555
O32B S1B 1_555 1_555
O33B S1B 1_555 1_555
C1B S1B 1_555 1_555
O37A_2 Er10A 1_555 1_555
O18B Er4B 1_555 1_555
O19B Er4B 1_555 1_555
Er12B_2 O37A_2 1_555 1_555
Er9B O14B 1_555 1_555
Er10B O16B 1_555 1_555
Er11B_2 O29B 1_555 1_555
H1B C1B 1_555 1_555
H2B C1B 1_555 1_555
C2B C1B 1_555 1_555
O28B_2 Er12B_2 1_555 1_555
O34B Er9B 1_555 1_555
O23B_2 Er9B 1_555 1_555
O25B_2 Er9B 1_555 1_555
O35B Er9B 1_555 1_555
O36B Er10B 1_555 1_555
O37B Er10B 1_555 1_555
O31A Er10B 1_555 1_555
O39B Er11B_2 1_555 1_555
O20B_2 Er11B_2 1_555 1_555
O21B_2 Er11B_2 1_555 1_555
S4B C2B 1_555 1_555
H3B C2B 1_555 1_555
H4B C2B 1_555 1_555
Er7B_2 O28B_2 1_555 1_555
Er12A O34B 1_555 1_555
Er5B_2 O23B_2 1_555 1_555
S2B O36B 1_555 1_555
O44B S4B 1_555 1_555
O45B S4B 1_555 1_555
O46B S4B 1_555 1_555
O40B S2B 1_555 1_555
C3B S2B 1_555 1_555
O41B S2B 1_555 1_555
C5B C3B 1_555 1_555
H5B C3B 1_555 1_555
H6B C3B 1_555 1_555
S5B C5B 1_555 1_555
H9B C5B 1_555 1_555
H10B C5B 1_555 1_555
O47B S5B 1_555 1_555
O48B S5B 1_555 1_555
O49B S5B 1_555 1_555
O2 Er3 1_555 1_555
O4 Er4 1_555 1_555
O4 Er6 1_555 1_555
O5 Er4 1_555 1_555
O5 Er6 1_555 1_555
O7 Er5 1_555 1_555
O7 Er7 1_555 1_555
Er3 O11 1_555 1_555
Er4 O17 1_555 1_555
Er6 O24 1_555 1_555
Er7 O13 1_555 1_555
Er7 O20 1_555 1_555
Er7 O21 1_555 1_555
O10 Er4C 1_555 1_555
O11 Er8 1_555 1_555
O13 Er6C 1_555 1_555
O14 Er8 1_555 1_555
O16 Er9 1_555 1_555
O17 Er10 1_555 1_555
O18 Er10 1_555 1_555
O19 Er10 1_555 1_555
O21 Er11 1_555 1_555
O26 Er6C 1_555 1_555
O27 Er6C 1_555 1_555
O28 Er11 1_555 1_555
O28 Er12 1_555 1_555
Er9 O29 1_555 1_555
Er9 O30 1_555 1_555
Er10 O34 1_555 1_555
Er12 O37C 1_555 1_555
O30 Er11_2 1_555 1_555
O31 Er11_2 1_555 1_555
O37 Er12C 1_555 1_555
C6 C7 1_555 1_555
Er6C O24C 1_555 1_555
Er4C O4C 1_555 1_555
Er4C O5C 1_555 1_555
Er4C O18C 1_555 1_555
Er4C O19C 1_555 1_555
O3C Er5C 1_555 1_555
O18C Er10C 1_555 1_555
O19C Er10C 1_555 1_555
O17C Er10C 1_555 1_555
O23_2 Er12C 1_555 1_555
O25_2 Er5_2 1_555 1_555
O23C Er5C 1_555 1_555
Er11_2 O37C_2 1_555 1_555
Er5_2 O20_2 1_555 1_555
Er5_2 O21_2 1_555 1_555
O28_2 Er12_2 1_555 1_555
O20_2 Er7_2 1_555 1_555
O21_2 Er7_2 1_555 1_555
O24A Er6A 1_555 1_555
O23A Er5A 1_555 1_555
O28B Er7B 1_555 1_555
O28B Er11B 1_555 1_555
Er7B O13B 1_555 1_555
Er7B O27B 1_555 1_555
Er5A O3A 1_555 1_555
Er11B O20B 1_555 1_555
Er11B O21B 1_555 1_555
O13B Er2B 1_555 1_555
O4A Er4A 1_555 1_555
O5A Er4A 1_555 1_555
O21B Er5B 1_555 1_555
O6B Er2B 1_555 1_555
O7B Er5B 1_555 1_555
O7B Er1B 1_555 1_555
Er4A O10B 1_555 1_555
Er1B O1B 1_555 1_555
Er1B O3B 1_555 1_555
O11B Er3B 1_555 1_555
O11B Er8B 1_555 1_555
O18A Er8B 1_555 1_555
O19A Er8B 1_555 1_555
O19A Er10A 1_555 1_555
O17A Er10A 1_555 1_555
O24B Er6B 1_555 1_555
O2B Er3B 1_555 1_555
O4B Er6B 1_555 1_555
O4B Er4B 1_555 1_555
O5B Er6B 1_555 1_555
O5B Er4B 1_555 1_555
Er8B O14B 1_555 1_555
Er10A O31B 1_555 1_555
Er4B O17B 1_555 1_555
O16B Er9B 1_555 1_555
O17B Er10B 1_555 1_555
O29B Er9B 1_555 1_555
O30B Er9B 1_555 1_555
O30B Er11B_2 1_555 1_555
O31B Er11B_2 1_555 1_555
O37A_2 Er11B_2 1_555 1_555
O18B Er10B 1_555 1_555
O19B Er10B 1_555 1_555
Er10B O34B 1_555 1_555
Er11B_2 O28B_2 1_555 1_555
O23B_2 Er12A 1_555 1_555
O25B_2 Er5B_2 1_555 1_555
O37B Er12A 1_555 1_555
O20B_2 Er7B_2 1_555 1_555
O20B_2 Er5B_2 1_555 1_555
O21B_2 Er7B_2 1_555 1_555
O21B_2 Er5B_2 1_555 1_555

#END
