
#######################################################################
#
#                 Cambridge Crystallographic Data Centre
#                                CCDC 
#
#######################################################################
#
# If this CIF has been generated from an entry in the Cambridge 
# Structural Database, then it will include bibliographic, chemical, 
# crystal, experimental, refinement or atomic coordinate data resulting 
# from the CCDC's data processing and validation procedures.
#
#######################################################################

data_UHAYUZ
_symmetry_cell_setting           orthorhombic
_symmetry_space_group_name_H-M   'P 21 21 21'
_symmetry_Int_Tables_number      19
_space_group_name_Hall           'P 2ac 2ab'
loop_
_symmetry_equiv_pos_site_id
_symmetry_equiv_pos_as_xyz
1 x,y,z
2 1/2-x,-y,1/2+z
3 1/2+x,1/2-y,-z
4 -x,1/2+y,1/2-z
_cell_length_a                   8.0320(6)
_cell_length_b                   10.4016(8)
_cell_length_c                   23.3623(17)
_cell_angle_alpha                90
_cell_angle_beta                 90
_cell_angle_gamma                90
_cell_volume                     1951.82
loop_
_atom_site_label
_atom_site_type_symbol
_atom_site_fract_x
_atom_site_fract_y
_atom_site_fract_z
Cs1 Cs 0.90343(2) 0.61654(2) 0.127336(9)
Cs2 Cs 0.36205(2) 0.39274(2) 0.123372(10)
V1 V 0.59671(7) 0.54043(6) 0.26350(2)
V2 V 0.30998(7) 0.49261(5) 0.46878(3)
O1 O 0.3617(3) 0.5621(2) 0.23559(10)
O2 O 0.1083(3) 0.6446(2) 0.24400(11)
O3 O 0.4650(3) 0.6463(2) 0.33538(11)
H1 H 0.476(7) 0.589(4) 0.3605(19)
O4 O 0.1904(3) 0.5283(2) 0.38477(10)
H2 H 0.098(3) 0.497(4) 0.379(2)
O5 O 0.2910(3) 0.6848(2) 0.46267(10)
O6 O 0.2250(4) 0.8611(2) 0.41452(11)
O7 O 0.7957(3) 0.5318(2) 0.31386(10)
O8 O 0.9322(3) 0.3922(2) 0.36974(10)
O9 O 0.5292(3) 0.3926(2) 0.30942(10)
O10 O 0.5164(3) 0.4915(2) 0.42337(11)
O11 O 0.3073(3) 0.3084(2) 0.44569(10)
O12 O 0.4717(3) 0.1509(2) 0.41513(11)
O13 O 0.6518(3) 0.7259(2) 0.24176(11)
H3 H 0.733(4) 0.762(4) 0.2557(19)
H4 H 0.595(5) 0.780(4) 0.226(2)
O14 O 0.6634(3) 0.4773(2) 0.20511(10)
O15 O 0.0598(3) 0.4862(3) 0.49053(12)
H5 H 0.029(5) 0.443(3) 0.5163(13)
H6 H -0.013(4) 0.528(4) 0.4763(17)
O16 O 0.3718(3) 0.4848(2) 0.53413(11)
O17 O 0.0740(4) 0.3537(2) 0.22048(12)
H7 H 0.056(6) 0.428(2) 0.2344(18)
H8 H -0.006(4) 0.307(3) 0.2271(18)
C1 C 0.2509(4) 0.6261(3) 0.26262(14)
C2 C 0.3008(4) 0.6851(3) 0.31952(14)
H9 H 0.3044 0.7803 0.3137
C3 C 0.1795(4) 0.6602(3) 0.36847(15)
H10 H 0.0633 0.6816 0.3564
C4 C 0.2319(4) 0.7443(3) 0.41876(15)
C5 C 0.8050(4) 0.4293(3) 0.34471(14)
C6 C 0.6446(4) 0.3518(3) 0.35065(14)
H11 H 0.6706 0.2591 0.3437
C7 C 0.5781(4) 0.3663(3) 0.41252(14)
H12 H 0.6728 0.3502 0.4394
C8 C 0.4445(4) 0.2660(3) 0.42445(15)
O18 O 0.1882(3) 0.1347(3) 0.05182(11)
H13 H 0.281(3) 0.103(4) 0.0553(19)
H14 H 0.194(5) 0.183(3) 0.0239(12)
Cs1_2 Cs -0.09657(2) 0.61654(2) 0.127336(9)
Cs1A Cs 0.59657(2) 0.38346(2) 0.627336(9)
Cs1C Cs 0.09657(2) 0.11654(2) 0.372664(9)
Cs1C_2 Cs 0.09657(2) 1.11654(2) 0.372664(9)
Cs1C_3 Cs 1.09657(2) 0.11654(2) 0.372664(9)
Cs2A Cs 0.13795(2) 0.60726(2) 0.623372(10)
Cs2C Cs 0.63795(2) -0.10726(2) 0.376628(10)
Cs2C_2 Cs 0.63795(2) 0.89274(2) 0.376628(10)
O2_2 O 1.1083(3) 0.6446(2) 0.24400(11)
O3C O 0.5350(3) 0.1463(2) 0.16462(11)
O6C O 0.7750(4) 0.3611(2) 0.08548(11)
O8C O 1.0678(3) 0.8922(2) 0.13026(10)
O11C O 0.6927(3) 0.8084(2) 0.05431(10)
O12C O 0.5283(3) 0.6509(2) 0.08487(11)
O13C O 0.3482(3) 0.2259(2) 0.25824(11)
O15A O 0.4402(3) 0.5138(3) -0.00947(12)
O16A O 0.1282(3) 0.5152(2) 0.03413(11)
O16A_2 O 1.1282(3) 0.5152(2) 0.03413(11)
loop_
_geom_bond_atom_site_label_1
_geom_bond_atom_site_label_2
_geom_bond_site_symmetry_1
_geom_bond_site_symmetry_2
Cs1 O13 1_555 1_555
Cs2 O1 1_555 1_555
V1 O1 1_555 1_555
V2 O4 1_555 1_555
O1 C1 1_555 1_555
O2 C1 1_555 1_555
O3 V1 1_555 1_555
H1 O3 1_555 1_555
O4 H2 1_555 1_555
O5 V2 1_555 1_555
O6 C4 1_555 1_555
O7 V1 1_555 1_555
O8 C5 1_555 1_555
O9 V1 1_555 1_555
O10 V2 1_555 1_555
O11 V2 1_555 1_555
O12 C8 1_555 1_555
O13 V1 1_555 1_555
H3 O13 1_555 1_555
H4 O13 1_555 1_555
O14 Cs1 1_555 1_555
O15 V2 1_555 1_555
H5 O15 1_555 1_555
H6 O15 1_555 1_555
O16 V2 1_555 1_555
O17 Cs2 1_555 1_555
H7 O17 1_555 1_555
H8 O17 1_555 1_555
C1 C2 1_555 1_555
C2 O3 1_555 1_555
H9 C2 1_555 1_555
C3 O4 1_555 1_555
H10 C3 1_555 1_555
C4 O5 1_555 1_555
C5 O7 1_555 1_555
C6 O9 1_555 1_555
H11 C6 1_555 1_555
C7 O10 1_555 1_555
H12 C7 1_555 1_555
C8 O11 1_555 1_555
O18 Cs2 1_555 1_555
H13 O18 1_555 1_555
H14 O18 1_555 1_555
Cs1_2 O2 1_555 1_555
Cs1A O16 1_555 1_555
Cs1C O11 1_555 1_555
Cs1C_2 O6 1_555 1_555
Cs1C_3 O8 1_555 1_555
Cs2A O15 1_555 1_555
Cs2C O12 1_555 1_555
Cs2C_2 O3 1_555 1_555
O2_2 Cs1 1_555 1_555
O3C Cs2 1_555 1_555
O6C Cs1 1_555 1_555
O8C Cs1 1_555 1_555
O11C Cs1 1_555 1_555
O12C Cs1 1_555 1_555
O13C Cs2 1_555 1_555
O15A Cs2 1_555 1_555
O16A Cs2 1_555 1_555
O16A_2 Cs1 1_555 1_555
Cs2 O14 1_555 1_555
Cs2 O6C 1_555 1_555
Cs2 O12C 1_555 1_555
V1 O14 1_555 1_555
O6 Cs2C_2 1_555 1_555
O12 Cs1C 1_555 1_555
O13 Cs2C_2 1_555 1_555
O16 Cs2A 1_555 1_555
C2 C3 1_555 1_555
C3 C4 1_555 1_555
C5 C6 1_555 1_555
C6 C7 1_555 1_555
C7 C8 1_555 1_555
Cs1_2 O16A 1_555 1_555
Cs1C O13C 1_555 1_555

#END
