
#######################################################################
#
#                 Cambridge Crystallographic Data Centre
#                                CCDC 
#
#######################################################################
#
# If this CIF has been generated from an entry in the Cambridge 
# Structural Database, then it will include bibliographic, chemical, 
# crystal, experimental, refinement or atomic coordinate data resulting 
# from the CCDC's data processing and validation procedures.
#
#######################################################################

data_UHAZAG
_symmetry_cell_setting           orthorhombic
_symmetry_space_group_name_H-M   'P 21 21 21'
_symmetry_Int_Tables_number      19
_space_group_name_Hall           'P 2ac 2ab'
loop_
_symmetry_equiv_pos_site_id
_symmetry_equiv_pos_as_xyz
1 x,y,z
2 1/2-x,-y,1/2+z
3 1/2+x,1/2-y,-z
4 -x,1/2+y,1/2-z
_cell_length_a                   7.9061(8)
_cell_length_b                   10.2647(11)
_cell_length_c                   22.814(2)
_cell_angle_alpha                90
_cell_angle_beta                 90
_cell_angle_gamma                90
_cell_volume                     1851.44
loop_
_atom_site_label
_atom_site_type_symbol
_atom_site_fract_x
_atom_site_fract_y
_atom_site_fract_z
Rb1 Rb 0.90103(4) 0.61212(3) 0.126155(12)
Rb2 Rb 0.37099(4) 0.39856(3) 0.125311(13)
V1 V 0.60379(7) 0.54099(5) 0.26310(2)
V2 V 0.30771(7) 0.49159(5) 0.47245(2)
O1 O 0.3649(3) 0.56346(19) 0.23371(9)
O2 O 0.1081(3) 0.6486(2) 0.24167(9)
O3 O 0.4691(3) 0.64937(19) 0.33650(9)
H1 H 0.471(6) 0.592(3) 0.3619(15)
O4 O 0.1922(3) 0.5288(2) 0.38632(8)
H2 H 0.107(3) 0.490(4) 0.3765(18)
O5 O 0.2966(3) 0.68572(19) 0.46549(9)
O6 O 0.2250(3) 0.8656(2) 0.41740(10)
O7 O 0.8059(3) 0.5253(2) 0.31442(9)
O8 O 0.9391(3) 0.3803(2) 0.37099(9)
O9 O 0.5310(3) 0.3915(2) 0.30928(9)
O10 O 0.5185(2) 0.4877(2) 0.42694(9)
O11 O 0.2981(3) 0.3064(2) 0.44737(9)
O12 O 0.4572(3) 0.14501(19) 0.41260(9)
O13 O 0.6624(3) 0.7288(2) 0.24150(10)
H3 H 0.741(4) 0.773(4) 0.2541(17)
H4 H 0.604(4) 0.785(3) 0.2259(16)
O14 O 0.6700(3) 0.4793(2) 0.20256(9)
O15 O 0.0518(3) 0.4962(2) 0.49392(10)
H5 H 0.007(5) 0.456(4) 0.5207(15)
H6 H -0.025(4) 0.534(4) 0.4762(16)
O16 O 0.3639(3) 0.4810(2) 0.54040(9)
O17 O 0.0702(3) 0.3624(2) 0.21561(11)
H7 H 0.051(5) 0.434(3) 0.2327(16)
H8 H 0.002(4) 0.314(3) 0.2315(16)
C1 C 0.2523(4) 0.6277(3) 0.26139(13)
C2 C 0.3026(4) 0.6884(3) 0.31968(12)
H9 H 0.3054 0.7849 0.3138
C3 C 0.1784(4) 0.6616(3) 0.36942(13)
H10 H 0.0600 0.6829 0.3573
C4 C 0.2342(4) 0.7473(3) 0.42105(13)
C5 C 0.8112(4) 0.4211(3) 0.34608(12)
C6 C 0.6461(4) 0.3465(3) 0.35173(13)
H11 H 0.6692 0.2522 0.3441
C7 C 0.5763(4) 0.3604(3) 0.41475(12)
H12 H 0.6700 0.3399 0.4427
C8 C 0.4348(4) 0.2613(3) 0.42459(12)
O18 O 0.1901(3) 0.1432(2) 0.05803(10)
H13 H 0.280(3) 0.106(3) 0.0592(15)
H14 H 0.193(5) 0.195(3) 0.0298(11)
Rb1_2 Rb -0.09897(4) 0.61212(3) 0.126155(12)
Rb1A Rb 0.59897(4) 0.38788(3) 0.626155(12)
Rb1C Rb 0.09897(4) 0.11212(3) 0.373845(12)
Rb1C_2 Rb 0.09897(4) 1.11212(3) 0.373845(12)
Rb1C_3 Rb 1.09897(4) 0.11212(3) 0.373845(12)
Rb2A Rb 0.12901(4) 0.60144(3) 0.625311(13)
Rb2C Rb 0.62901(4) -0.10144(3) 0.374689(13)
Rb2C_2 Rb 0.62901(4) 0.89856(3) 0.374689(13)
O2_2 O 1.1081(3) 0.6486(2) 0.24167(9)
O3C O 0.5309(3) 0.14937(19) 0.16350(9)
O6C O 0.7750(3) 0.3656(2) 0.08260(10)
O8C O 1.0609(3) 0.8803(2) 0.12901(9)
O11C O 0.7019(3) 0.8064(2) 0.05263(9)
O12C O 0.5428(3) 0.64501(19) 0.08740(9)
O15A O 0.4482(3) 0.5038(2) -0.00608(10)
O16A O 0.1361(3) 0.5190(2) 0.04040(9)
O16A_2 O 1.1361(3) 0.5190(2) 0.04040(9)
loop_
_geom_bond_atom_site_label_1
_geom_bond_atom_site_label_2
_geom_bond_site_symmetry_1
_geom_bond_site_symmetry_2
Rb1 O13 1_555 1_555
Rb2 O1 1_555 1_555
V1 O1 1_555 1_555
V2 O4 1_555 1_555
O1 C1 1_555 1_555
O2 C1 1_555 1_555
O3 V1 1_555 1_555
H1 O3 1_555 1_555
O4 H2 1_555 1_555
O5 V2 1_555 1_555
O6 C4 1_555 1_555
O7 V1 1_555 1_555
O8 C5 1_555 1_555
O9 V1 1_555 1_555
O10 V2 1_555 1_555
O11 V2 1_555 1_555
O12 C8 1_555 1_555
O13 V1 1_555 1_555
H3 O13 1_555 1_555
H4 O13 1_555 1_555
O14 Rb1 1_555 1_555
O15 V2 1_555 1_555
H5 O15 1_555 1_555
H6 O15 1_555 1_555
O16 V2 1_555 1_555
O17 Rb2 1_555 1_555
H7 O17 1_555 1_555
H8 O17 1_555 1_555
C1 C2 1_555 1_555
C2 O3 1_555 1_555
H9 C2 1_555 1_555
C3 O4 1_555 1_555
H10 C3 1_555 1_555
C4 O5 1_555 1_555
C5 O7 1_555 1_555
C6 O9 1_555 1_555
H11 C6 1_555 1_555
C7 O10 1_555 1_555
H12 C7 1_555 1_555
C8 O11 1_555 1_555
O18 Rb2 1_555 1_555
H13 O18 1_555 1_555
H14 O18 1_555 1_555
Rb1_2 O2 1_555 1_555
Rb1A O16 1_555 1_555
Rb1C O11 1_555 1_555
Rb1C_2 O6 1_555 1_555
Rb1C_3 O8 1_555 1_555
Rb2A O15 1_555 1_555
Rb2C O12 1_555 1_555
Rb2C_2 O3 1_555 1_555
O2_2 Rb1 1_555 1_555
O3C Rb2 1_555 1_555
O6C Rb1 1_555 1_555
O8C Rb1 1_555 1_555
O11C Rb1 1_555 1_555
O12C Rb1 1_555 1_555
O15A Rb2 1_555 1_555
O16A Rb2 1_555 1_555
O16A_2 Rb1 1_555 1_555
Rb2 O14 1_555 1_555
Rb2 O6C 1_555 1_555
Rb2 O12C 1_555 1_555
V1 O14 1_555 1_555
O6 Rb2C_2 1_555 1_555
O12 Rb1C 1_555 1_555
O16 Rb2A 1_555 1_555
C2 C3 1_555 1_555
C3 C4 1_555 1_555
C5 C6 1_555 1_555
C6 C7 1_555 1_555
C7 C8 1_555 1_555
Rb1_2 O16A 1_555 1_555

#END
