
#######################################################################
#
#                 Cambridge Crystallographic Data Centre
#                                CCDC 
#
#######################################################################
#
# If this CIF has been generated from an entry in the Cambridge 
# Structural Database, then it will include bibliographic, chemical, 
# crystal, experimental, refinement or atomic coordinate data resulting 
# from the CCDC's data processing and validation procedures.
#
#######################################################################

data_UHEBOA
_symmetry_cell_setting           tetragonal
_symmetry_space_group_name_H-M   'P 4 n c'
_symmetry_Int_Tables_number      104
_space_group_name_Hall           'P 4 -2n'
loop_
_symmetry_equiv_pos_site_id
_symmetry_equiv_pos_as_xyz
1 x,y,z
2 -x,-y,z
3 -y,x,z
4 y,-x,z
5 1/2+x,1/2-y,1/2+z
6 1/2-x,1/2+y,1/2+z
7 1/2-y,1/2-x,1/2+z
8 1/2+y,1/2+x,1/2+z
_cell_length_a                   20.7139(3)
_cell_length_b                   20.7139(3)
_cell_length_c                   8.1430(2)
_cell_angle_alpha                90
_cell_angle_beta                 90
_cell_angle_gamma                90
_cell_volume                     3493.88
loop_
_atom_site_label
_atom_site_type_symbol
_atom_site_fract_x
_atom_site_fract_y
_atom_site_fract_z
Pb1 Pb 0.73891(2) 0.27275(2) 0.50041(12)
O1 O 0.7861(3) 0.3345(2) 0.2392(7)
O2 O 0.7400(3) 0.3871(3) 0.4438(6)
O3 O 0.7188(3) 0.6266(3) 0.4218(6)
O4 O 0.7797(2) 0.6799(2) 0.2446(7)
O5 O 0.6904(2) 0.3226(2) 0.7584(7)
N1 N 0.6535(3) 0.4094(3) 0.9033(9)
C1 C 0.7677(3) 0.3865(3) 0.3045(8)
C2 C 0.7804(2) 0.44930(16) 0.2178(5)
C3 C 0.8121(2) 0.45036(15) 0.0675(5)
H1 H 0.8252 0.4111 0.0174
C4 C 0.8247(2) 0.50891(19) -0.0095(4)
C5 C 0.8056(2) 0.56640(15) 0.0639(5)
H2 H 0.8142 0.6064 0.0112
C6 C 0.7738(2) 0.56534(16) 0.2142(5)
C7 C 0.7612(2) 0.5068(2) 0.2912(4)
H3 H 0.7395 0.5061 0.3940
C8 C 0.7558(3) 0.6280(3) 0.2973(8)
C9 C 0.8585(3) 0.5127(3) -0.1768(8)
C10 C 0.8765(4) 0.4485(3) -0.2396(10)
H4 H 0.8375 0.4221 -0.2524
H5 H 0.9059 0.4275 -0.1620
H6 H 0.8979 0.4531 -0.3463
C11 C 0.8151(4) 0.5440(4) -0.2975(8)
H7 H 0.7760 0.5178 -0.3110
H8 H 0.8373 0.5478 -0.4034
H9 H 0.8031 0.5871 -0.2580
C12 C 0.9181(3) 0.5518(4) -0.1595(9)
H10 H 0.9409 0.5533 -0.2649
H11 H 0.9462 0.5322 -0.0763
H12 H 0.9067 0.5958 -0.1257
C13 C 0.6803(3) 0.3816(4) 0.7749(10)
H13 H 0.6931 0.4090 0.6870
C14 C 0.6333(5) 0.3697(5) 1.0421(10)
H14 H 0.6253 0.3255 1.0045
H15 H 0.5937 0.3876 1.0897
H16 H 0.6675 0.3694 1.1255
C15 C 0.6455(4) 0.4781(4) 0.9097(12)
H17 H 0.6741 0.4962 0.9937
H18 H 0.6005 0.4883 0.9373
H19 H 0.6561 0.4968 0.8026
Pb1B Pb 0.72725(2) 0.73891(2) 0.50041(12)
Pb1E Pb 0.76109(2) 0.77275(2) 0.00041(12)
Pb1G Pb 0.77275(2) 0.23891(2) 0.00041(12)
O1G O 0.8345(2) 0.2861(3) 0.7392(7)
O3C O 0.6266(3) 0.2812(3) 0.4218(6)
O4C O 0.6799(2) 0.2203(2) 0.2446(7)
O4E O 0.7203(2) 0.1799(2) 0.7446(7)
loop_
_geom_bond_atom_site_label_1
_geom_bond_atom_site_label_2
_geom_bond_site_symmetry_1
_geom_bond_site_symmetry_2
Pb1 O1 1_555 1_555
O1 C1 1_555 1_555
O2 Pb1 1_555 1_555
O3 C8 1_555 1_555
O4 C8 1_555 1_555
O5 Pb1 1_555 1_555
N1 C13 1_555 1_555
C1 O2 1_555 1_555
C2 C1 1_555 1_555
C3 C2 1_555 1_555
H1 C3 1_555 1_555
C4 C3 1_555 1_555
C5 C4 1_555 1_555
H2 C5 1_555 1_555
C6 C5 1_555 1_555
C7 C2 1_555 1_555
H3 C7 1_555 1_555
C8 C6 1_555 1_555
C9 C4 1_555 1_555
C10 C9 1_555 1_555
H4 C10 1_555 1_555
H5 C10 1_555 1_555
H6 C10 1_555 1_555
C11 C9 1_555 1_555
H7 C11 1_555 1_555
H8 C11 1_555 1_555
H9 C11 1_555 1_555
C12 C9 1_555 1_555
H10 C12 1_555 1_555
H11 C12 1_555 1_555
H12 C12 1_555 1_555
C13 O5 1_555 1_555
H13 C13 1_555 1_555
C14 N1 1_555 1_555
H14 C14 1_555 1_555
H15 C14 1_555 1_555
H16 C14 1_555 1_555
C15 N1 1_555 1_555
H17 C15 1_555 1_555
H18 C15 1_555 1_555
H19 C15 1_555 1_555
Pb1B O3 1_555 1_555
Pb1E O4 1_555 1_555
Pb1G O1 1_555 1_555
O1G Pb1 1_555 1_555
O3C Pb1 1_555 1_555
O4C Pb1 1_555 1_555
O4E Pb1 1_555 1_555
O4 Pb1B 1_555 1_555
C6 C7 1_555 1_555
Pb1G O4C 1_555 1_555

#END
