
#######################################################################
#
#                 Cambridge Crystallographic Data Centre
#                                CCDC 
#
#######################################################################
#
# If this CIF has been generated from an entry in the Cambridge 
# Structural Database, then it will include bibliographic, chemical, 
# crystal, experimental, refinement or atomic coordinate data resulting 
# from the CCDC's data processing and validation procedures.
#
#######################################################################

data_UHEKUN
_symmetry_cell_setting           triclinic
_symmetry_space_group_name_H-M   'P -1'
_symmetry_Int_Tables_number      2
_space_group_name_Hall           '-P 1'
loop_
_symmetry_equiv_pos_site_id
_symmetry_equiv_pos_as_xyz
1 x,y,z
2 -x,-y,-z
_cell_length_a                   11.376(6)
_cell_length_b                   14.255(6)
_cell_length_c                   7.713(4)
_cell_angle_alpha                101.10(1)
_cell_angle_beta                 103.57(1)
_cell_angle_gamma                98.36(1)
_cell_volume                     1169.06
loop_
_atom_site_label
_atom_site_type_symbol
_atom_site_fract_x
_atom_site_fract_y
_atom_site_fract_z
Ca1 Ca 0.02434(8) 0.97442(6) 0.24831(10)
Cl1 Cl -0.36838(13) 1.20169(11) 0.5216(2)
Cl2 Cl -0.57396(14) 1.45917(11) 0.1890(2)
Cl3 Cl -0.1445(2) 1.36937(11) 0.0167(2)
Cl4 Cl -0.28181(13) 1.65585(9) 0.4411(2)
O1 O -0.0313(3) 0.8132(2) 0.0521(5)
O2 O 0.2271(3) 0.9933(3) 0.4477(5)
O3 O -0.1936(3) 0.9912(2) 0.2116(4)
O4 O -0.1395(3) 1.0033(2) -0.0408(4)
O5 O 0.0330(3) 1.1501(2) 0.2793(4)
O6 O 0.0188(3) 1.1092(2) 0.5358(4)
O7 O -0.3500(3) 1.1123(3) 0.1633(4)
O8 O -0.0754(3) 1.3008(2) 0.3435(4)
C1 C -0.2060(4) 1.0201(3) 0.0662(6)
C2 C -0.3011(5) 1.0798(5) 0.0130(7)
C3 C -0.4061(4) 1.1905(4) 0.1582(6)
C4 C -0.4198(4) 1.2404(4) 0.3225(6)
C5 C -0.4722(5) 1.3224(4) 0.3314(8)
C6 C -0.5112(4) 1.3548(4) 0.1747(7)
C7 C -0.5018(5) 1.3054(4) 0.0101(8)
C8 C -0.4477(5) 1.2249(4) 0.0030(7)
C9 C 0.0067(4) 1.1659(3) 0.4297(5)
C10 C -0.0428(5) 1.2553(3) 0.4910(6)
C11 C -0.1234(4) 1.3826(3) 0.3774(6)
C12 C -0.1609(4) 1.4235(3) 0.2283(6)
C13 C -0.2103(5) 1.5063(3) 0.2472(7)
C14 C -0.2225(4) 1.5497(3) 0.4158(7)
C15 C -0.1857(5) 1.5112(3) 0.5651(7)
C16 C -0.1368(5) 1.4277(3) 0.5447(7)
C17 C -0.1459(8) 0.7507(6) 0.0214(10)
C18 C 0.3275(7) 1.0710(6) 0.4774(10)
H1 H -0.0195(48) 0.8175(38) -0.0332(71)
H2 H 0.2238(46) 0.9862(37) 0.5393(69)
H3 H -0.2605(49) 1.1348(40) -0.0120(73)
H4 H -0.3683(50) 1.0416(40) -0.1065(80)
H5 H -0.4780(45) 1.3551(37) 0.4288(70)
H6 H -0.5379(46) 1.3265(36) -0.1012(70)
H7 H -0.4479(42) 1.1898(34) -0.1204(67)
H8 H 0.0213(42) 1.2984(33) 0.5964(63)
H9 H -0.1124(35) 1.2339(27) 0.5319(50)
H10 H -0.2395(37) 1.5315(30) 0.1379(58)
H11 H -0.1862(43) 1.5430(36) 0.6815(69)
H12 H -0.1097(35) 1.4025(29) 0.6435(56)
H13 H -0.2126(53) 0.7620(41) -0.0751(83)
H14 H -0.1419(85) 0.6894(68) -0.011(13)
H15 H -0.1723(55) 0.7595(44) 0.1302(91)
H16 H 0.3310(60) 1.0997(49) 0.3725(98)
H17 H 0.4053(83) 1.0534(62) 0.531(12)
H18 H 0.3306(93) 1.1217(74) 0.577(15)
O4A O 0.1395(3) 0.9967(2) 0.0408(4)
Ca1A Ca -0.02434(8) 1.02558(6) -0.24831(10)
O6A O -0.0188(3) 0.8908(2) 0.4642(4)
Ca1A_2 Ca -0.02434(8) 1.02558(6) 0.75169(10)
loop_
_geom_bond_atom_site_label_1
_geom_bond_atom_site_label_2
_geom_bond_site_symmetry_1
_geom_bond_site_symmetry_2
Ca1 O1 1_555 1_555
Cl1 C4 1_555 1_555
Cl2 C6 1_555 1_555
Cl3 C12 1_555 1_555
Cl4 C14 1_555 1_555
O1 C17 1_555 1_555
O2 Ca1 1_555 1_555
O3 Ca1 1_555 1_555
O4 Ca1 1_555 1_555
O5 Ca1 1_555 1_555
O6 Ca1 1_555 1_555
O7 C2 1_555 1_555
O8 C10 1_555 1_555
C1 O3 1_555 1_555
C2 C1 1_555 1_555
C3 O7 1_555 1_555
C4 C3 1_555 1_555
C5 C4 1_555 1_555
C6 C5 1_555 1_555
C7 C6 1_555 1_555
C8 C3 1_555 1_555
C9 O5 1_555 1_555
C10 C9 1_555 1_555
C11 O8 1_555 1_555
C12 C11 1_555 1_555
C13 C12 1_555 1_555
C14 C13 1_555 1_555
C15 C14 1_555 1_555
C16 C11 1_555 1_555
C17 H13 1_555 1_555
C18 O2 1_555 1_555
H1 O1 1_555 1_555
H2 O2 1_555 1_555
H3 C2 1_555 1_555
H4 C2 1_555 1_555
H5 C5 1_555 1_555
H6 C7 1_555 1_555
H7 C8 1_555 1_555
H8 C10 1_555 1_555
H9 C10 1_555 1_555
H10 C13 1_555 1_555
H11 C15 1_555 1_555
H12 C16 1_555 1_555
H14 C17 1_555 1_555
H15 C17 1_555 1_555
H16 C18 1_555 1_555
H17 C18 1_555 1_555
H18 C18 1_555 1_555
O4A Ca1 1_555 1_555
Ca1A O4 1_555 1_555
O6A Ca1 1_555 1_555
Ca1A_2 O6 1_555 1_555
O4 C1 1_555 1_555
O6 C9 1_555 1_555
C7 C8 1_555 1_555
C15 C16 1_555 1_555
O4A Ca1A 1_555 1_555
O6A Ca1A_2 1_555 1_555

#END
