
#######################################################################
#
#                 Cambridge Crystallographic Data Centre
#                                CCDC 
#
#######################################################################
#
# If this CIF has been generated from an entry in the Cambridge 
# Structural Database, then it will include bibliographic, chemical, 
# crystal, experimental, refinement or atomic coordinate data resulting 
# from the CCDC's data processing and validation procedures.
#
#######################################################################

data_UHELAU
_symmetry_cell_setting           monoclinic
_symmetry_space_group_name_H-M   'P 21/n'
_symmetry_Int_Tables_number      14
_space_group_name_Hall           '-P 2yn'
loop_
_symmetry_equiv_pos_site_id
_symmetry_equiv_pos_as_xyz
1 x,y,z
2 1/2+x,1/2-y,1/2+z
3 -x,-y,-z
4 1/2-x,1/2+y,1/2-z
_cell_length_a                   8.8360(12)
_cell_length_b                   32.693(5)
_cell_length_c                   13.8669(19)
_cell_angle_alpha                90.00
_cell_angle_beta                 93.250(2)
_cell_angle_gamma                90.00
_cell_volume                     3999.36
loop_
_atom_site_label
_atom_site_type_symbol
_atom_site_fract_x
_atom_site_fract_y
_atom_site_fract_z
Gd1 Gd 0.23975(3) -0.001068(9) -0.00763(2)
Cl1 Cl 0.7127(3) -0.20700(7) -0.1794(2)
Cl2 Cl 0.1556(6) -0.15354(14) -0.3849(2)
Cl3 Cl 0.7137(7) -0.12136(19) -0.5054(3)
Cl4 Cl 0.3028(5) -0.24427(10) -0.0738(3)
Cl5 Cl 0.0886(5) 0.25583(8) -0.0590(2)
Cl6 Cl -0.0498(4) 0.16623(10) -0.3721(2)
O1 O 0.1231(5) 0.04768(13) -0.1343(3)
O2 O -0.0351(5) -0.02446(12) -0.0767(3)
O3 O 0.1405(7) 0.10475(17) -0.2806(4)
O4 O 0.1661(5) -0.04737(14) -0.1449(3)
O5 O 0.0000(7) -0.10212(18) -0.2575(4)
O6 O 0.4531(5) -0.04142(14) -0.0176(3)
O7 O 0.6761(5) -0.06966(13) -0.0312(3)
O8 O 0.5434(6) -0.14042(14) -0.1081(4)
O9 O 0.3524(5) 0.02498(15) -0.1571(3)
O10 O 0.3504(5) -0.00214(15) 0.1589(3)
H1 H 0.2861 -0.0096 0.1955
H2 H 0.4512 -0.0088 0.1636
O11 O 0.1553(5) -0.06417(13) 0.0698(4)
H3 H 0.2035 -0.0837 0.0505
H4 H 0.0729 -0.0618 0.0861
C1 C 0.0263(7) -0.04707(19) -0.1373(5)
C2 C -0.0786(9) -0.0732(3) -0.2018(6)
H5 H -0.1477 -0.0877 -0.1620
H6 H -0.1387 -0.0555 -0.2451
C3 C 0.0633(9) -0.1346(3) -0.2078(6)
C4 C 0.1448(11) -0.1616(3) -0.2617(7)
C5 C 0.2155(13) -0.1965(3) -0.2189(9)
H7 H 0.2657 -0.2150 -0.2569
C6 C 0.2105(12) -0.2028(3) -0.1258(9)
C7 C 0.1307(11) -0.1761(3) -0.0695(7)
H8 H 0.1267 -0.1808 -0.0036
C8 C 0.0570(10) -0.1426(2) -0.1114(6)
H9 H 0.0023 -0.1253 -0.0732
C9 C 0.2416(7) 0.04817(19) -0.1796(4)
C10 C 0.2626(10) 0.0774(2) -0.2611(5)
H10 H 0.3538 0.0933 -0.2462
H11 H 0.2784 0.0618 -0.3191
C11 C 0.1325(9) 0.1391(2) -0.2247(5)
C12 C 0.0443(10) 0.1710(3) -0.2619(6)
C13 C 0.0308(12) 0.2072(3) -0.2096(7)
H12 H -0.0294 0.2285 -0.2342
C14 C 0.1067(13) 0.2105(3) -0.1228(7)
C15 C 0.1962(12) 0.1798(3) -0.0847(7)
H13 H 0.2484 0.1830 -0.0250
C16 C 0.2083(10) 0.1436(2) -0.1364(6)
H14 H 0.2681 0.1224 -0.1110
C17 C 0.5344(6) -0.07132(17) -0.0370(4)
C18 C 0.4536(8) -0.11065(19) -0.0628(6)
H15 H 0.4169 -0.1224 -0.0044
H16 H 0.3660 -0.1044 -0.1057
C19 C 0.5747(9) -0.1339(2) -0.2008(5)
C20 C 0.6578(9) -0.1641(3) -0.2445(6)
C21 C 0.6994(13) -0.1610(4) -0.3373(9)
H17 H 0.7560 -0.1815 -0.3646
C22 C 0.6571(17) -0.1278(5) -0.3882(8)
C23 C 0.5736(15) -0.0968(4) -0.3499(8)
H18 H 0.5465 -0.0740 -0.3869
C24 C 0.5297(11) -0.1001(3) -0.2541(6)
H19 H 0.4715 -0.0798 -0.2275
Gd1B Gd -0.23975(3) 0.001068(9) 0.00763(2)
O2B O 0.0351(5) 0.02446(12) 0.0767(3)
O7B O 0.3239(5) 0.06966(13) 0.0312(3)
Gd1B_2 Gd 0.76025(3) 0.001068(9) 0.00763(2)
O12 O -0.6825(11) -0.1278(3) 0.1544(7)
N1 N -0.5826(12) -0.1774(4) 0.2446(11)
C25 C -0.6397(14) -0.1397(6) 0.2281(10)
H20 H -0.6445 -0.1222 0.2806
C26 C -0.579(2) -0.2085(6) 0.1721(18)
H21 H -0.6443 -0.2306 0.1881
H22 H -0.4769 -0.2186 0.1691
H23 H -0.6120 -0.1973 0.1106
C27 C -0.5197(19) -0.1874(7) 0.3301(13)
H24 H -0.5535 -0.2141 0.3478
H25 H -0.5486 -0.1678 0.3773
H26 H -0.4114 -0.1874 0.3273
O13 O 0.2596(18) -0.0102(5) 0.3431(11)
N2 N 0.1525(18) -0.0448(6) 0.4713(11)
C28 C 0.1775(18) -0.0428(5) 0.3709(11)
H27 H 0.1403 -0.0626 0.3274
C29 C 0.2136 -0.0151 0.5436
H28 H 0.2870 0.0021 0.5150
H29 H 0.2610 -0.0295 0.5976
H30 H 0.1326 0.0015 0.5653
C30 C 0.0554 -0.0776 0.5205
H31 H 0.1173 -0.0918 0.5687
H32 H 0.0163 -0.0967 0.4728
H33 H -0.0273 -0.0645 0.5503
loop_
_geom_bond_atom_site_label_1
_geom_bond_atom_site_label_2
_geom_bond_site_symmetry_1
_geom_bond_site_symmetry_2
Gd1 O1 1_555 1_555
Cl1 C20 1_555 1_555
Cl2 C4 1_555 1_555
Cl3 C22 1_555 1_555
Cl4 C6 1_555 1_555
Cl5 C14 1_555 1_555
Cl6 C12 1_555 1_555
O1 C9 1_555 1_555
O2 Gd1 1_555 1_555
O3 C10 1_555 1_555
O4 Gd1 1_555 1_555
O5 C2 1_555 1_555
O6 Gd1 1_555 1_555
O7 C17 1_555 1_555
O8 C18 1_555 1_555
O9 Gd1 1_555 1_555
O10 Gd1 1_555 1_555
H1 O10 1_555 1_555
H2 O10 1_555 1_555
O11 Gd1 1_555 1_555
H3 O11 1_555 1_555
H4 O11 1_555 1_555
C1 O2 1_555 1_555
C2 C1 1_555 1_555
H5 C2 1_555 1_555
H6 C2 1_555 1_555
C3 O5 1_555 1_555
C4 C3 1_555 1_555
C5 C4 1_555 1_555
H7 C5 1_555 1_555
C6 C5 1_555 1_555
C7 C6 1_555 1_555
H8 C7 1_555 1_555
C8 C3 1_555 1_555
H9 C8 1_555 1_555
C9 O9 1_555 1_555
C10 C9 1_555 1_555
H10 C10 1_555 1_555
H11 C10 1_555 1_555
C11 O3 1_555 1_555
C12 C11 1_555 1_555
C13 C12 1_555 1_555
H12 C13 1_555 1_555
C14 C13 1_555 1_555
C15 C14 1_555 1_555
H13 C15 1_555 1_555
C16 C11 1_555 1_555
H14 C16 1_555 1_555
C17 O6 1_555 1_555
C18 C17 1_555 1_555
H15 C18 1_555 1_555
H16 C18 1_555 1_555
C19 O8 1_555 1_555
C20 C19 1_555 1_555
C21 C20 1_555 1_555
H17 C21 1_555 1_555
C22 C21 1_555 1_555
C23 C22 1_555 1_555
H18 C23 1_555 1_555
C24 C19 1_555 1_555
H19 C24 1_555 1_555
O12 C25 1_555 1_555
N1 C25 1_555 1_555
C25 H20 1_555 1_555
C26 N1 1_555 1_555
H21 C26 1_555 1_555
H22 C26 1_555 1_555
H23 C26 1_555 1_555
C27 N1 1_555 1_555
H24 C27 1_555 1_555
H25 C27 1_555 1_555
H26 C27 1_555 1_555
O13 C28 1_555 1_555
N2 C28 1_555 1_555
C28 H27 1_555 1_555
C29 N2 1_555 1_555
H28 C29 1_555 1_555
H29 C29 1_555 1_555
H30 C29 1_555 1_555
C30 N2 1_555 1_555
H31 C30 1_555 1_555
H32 C30 1_555 1_555
H33 C30 1_555 1_555
Gd1B O2 1_555 1_555
O2B Gd1 1_555 1_555
O7B Gd1 1_555 1_555
Gd1B_2 O7 1_555 1_555
O4 C1 1_555 1_555
C7 C8 1_555 1_555
C15 C16 1_555 1_555
C23 C24 1_555 1_555
Gd1B O2B 1_555 1_555

#END
