
#######################################################################
#
#                 Cambridge Crystallographic Data Centre
#                                CCDC 
#
#######################################################################
#
# If this CIF has been generated from an entry in the Cambridge 
# Structural Database, then it will include bibliographic, chemical, 
# crystal, experimental, refinement or atomic coordinate data resulting 
# from the CCDC's data processing and validation procedures.
#
#######################################################################

data_UHEQOO
_symmetry_cell_setting           triclinic
_symmetry_space_group_name_H-M   'P -1'
_symmetry_Int_Tables_number      2
_space_group_name_Hall           '-P 1'
loop_
_symmetry_equiv_pos_site_id
_symmetry_equiv_pos_as_xyz
1 x,y,z
2 -x,-y,-z
_cell_length_a                   7.5840(2)
_cell_length_b                   11.0003(3)
_cell_length_c                   12.3515(4)
_cell_angle_alpha                82.173(2)
_cell_angle_beta                 86.677(2)
_cell_angle_gamma                87.428(2)
_cell_volume                     1018.41
loop_
_atom_site_label
_atom_site_type_symbol
_atom_site_fract_x
_atom_site_fract_y
_atom_site_fract_z
Bi1 Bi 0.38841(3) 0.11340(2) 0.85440(2)
S1 S 0.3248(2) -0.18046(13) 0.92515(14)
O1 O 0.4746(6) -0.1161(4) 0.9621(4)
C1 C 0.4182(8) -0.2879(5) 0.8427(6)
S2 S 0.0551(2) 0.24617(15) 0.67224(14)
O2 O 0.2270(6) -0.0896(4) 0.8520(4)
C2 C 0.3920(8) -0.4120(5) 0.8723(5)
H1 H 0.3284 -0.4400 0.9389
O3 O 0.2207(6) -0.2439(4) 1.0131(4)
C3 C 0.4596(8) -0.4960(5) 0.8035(5)
O4 O 0.3359(6) -0.6706(4) 0.9158(4)
C4 C 0.5537(8) -0.4527(6) 0.7058(5)
O5 O 0.4895(6) -0.7016(4) 0.7667(4)
C5 C 0.5800(9) -0.3265(6) 0.6790(6)
H2 H 0.6452 -0.2975 0.6133
O6 O 0.6235(6) -0.5260(4) 0.6356(4)
H3 H 0.6023 -0.5993 0.6597
C6 C 0.5129(10) -0.2452(6) 0.7460(6)
H4 H 0.5306 -0.1598 0.7269
O7 O 0.1188(6) 0.1844(4) 0.7774(4)
C7 C 0.4251(9) -0.6285(6) 0.8324(6)
O8 O 0.1620(7) 0.2133(4) 0.5788(4)
C8 C 0.0734(9) 0.4052(6) 0.6740(6)
O9 O -0.1315(6) 0.2248(4) 0.6674(4)
C9 C -0.0057(9) 0.4575(6) 0.7581(6)
H5 H -0.0633 0.4083 0.8178
O10 O -0.1608(7) 0.5725(4) 0.9244(4)
H6 H -0.2053 0.6131 0.9727
C10 C -0.0016(9) 0.5868(6) 0.7560(5)
O11 O -0.0937(7) 0.7591(4) 0.8412(4)
C11 C 0.0870(9) 0.6562(6) 0.6677(5)
O12 O 0.0984(7) 0.7782(4) 0.6579(4)
H7 H 0.0250 0.8066 0.7024
C12 C 0.1706(10) 0.5992(6) 0.5836(6)
H8 H 0.2330 0.6462 0.5245
O13 O 0.1423(7) 0.0875(5) 1.0083(5)
C13 C 0.1616(9) 0.4730(6) 0.5870(6)
H9 H 0.2163 0.4334 0.5294
H10 H 0.056(6) 0.120(6) 0.977(5)
H11 H 0.135(10) 0.140(5) 1.049(5)
O14 O 0.4277(8) 0.0720(5) 0.6708(4)
C14 C -0.0891(9) 0.6468(6) 0.8444(6)
H12 H 0.527(4) 0.071(8) 0.642(6)
H13 H 0.366(8) 0.112(6) 0.626(3)
O15 O 0.6950(7) 0.0635(5) 0.8157(5)
H14 H 0.743(11) 0.100(8) 0.858(6)
H15 H 0.753(10) 0.108(7) 0.770(5)
Bi1A Bi 0.61159(3) -0.11340(2) 1.14560(2)
Bi1_2 Bi 0.38841(3) -0.88660(2) 0.85440(2)
O1A O 0.5254(6) 0.1161(4) 1.0379(4)
O4_2 O 0.3359(6) 0.3294(4) 0.9158(4)
O5_2 O 0.4895(6) 0.2984(4) 0.7667(4)
O16 O 0.7122(11) 0.0632(9) 0.5368(7)
H16 H 0.789(11) 0.115(8) 0.528(10)
H17 H 0.762(14) 0.000(6) 0.565(12)
loop_
_geom_bond_atom_site_label_1
_geom_bond_atom_site_label_2
_geom_bond_site_symmetry_1
_geom_bond_site_symmetry_2
Bi1 O1 1_555 1_555
S1 O1 1_555 1_555
O1 Bi1A 1_555 1_555
C1 S1 1_555 1_555
S2 O7 1_555 1_555
O2 Bi1 1_555 1_555
C2 C1 1_555 1_555
H1 C2 1_555 1_555
O3 S1 1_555 1_555
C3 C2 1_555 1_555
O4 C7 1_555 1_555
C4 C3 1_555 1_555
O5 C7 1_555 1_555
C5 C4 1_555 1_555
H2 C5 1_555 1_555
O6 C4 1_555 1_555
H3 O6 1_555 1_555
C6 C1 1_555 1_555
H4 C6 1_555 1_555
O7 Bi1 1_555 1_555
C7 C3 1_555 1_555
O8 S2 1_555 1_555
C8 S2 1_555 1_555
O9 S2 1_555 1_555
C9 C8 1_555 1_555
H5 C9 1_555 1_555
O10 H6 1_555 1_555
C10 C9 1_555 1_555
O11 C14 1_555 1_555
C11 C10 1_555 1_555
O12 C11 1_555 1_555
H7 O12 1_555 1_555
C12 C11 1_555 1_555
H8 C12 1_555 1_555
O13 Bi1 1_555 1_555
C13 C8 1_555 1_555
H9 C13 1_555 1_555
H10 O13 1_555 1_555
H11 O13 1_555 1_555
O14 Bi1 1_555 1_555
C14 O10 1_555 1_555
H12 O14 1_555 1_555
H13 O14 1_555 1_555
O15 Bi1 1_555 1_555
H14 O15 1_555 1_555
H15 O15 1_555 1_555
O16 H16 1_555 1_555
H17 O16 1_555 1_555
Bi1A O1A 1_555 1_555
Bi1_2 O4 1_555 1_555
O1A Bi1 1_555 1_555
O4_2 Bi1 1_555 1_555
O5_2 Bi1 1_555 1_555
S1 O2 1_555 1_555
O5 Bi1_2 1_555 1_555
C5 C6 1_555 1_555
C10 C14 1_555 1_555
C12 C13 1_555 1_555

#END
