
#######################################################################
#
#                 Cambridge Crystallographic Data Centre
#                                CCDC 
#
#######################################################################
#
# If this CIF has been generated from an entry in the Cambridge 
# Structural Database, then it will include bibliographic, chemical, 
# crystal, experimental, refinement or atomic coordinate data resulting 
# from the CCDC's data processing and validation procedures.
#
#######################################################################

data_UHERUW
_symmetry_cell_setting           monoclinic
_symmetry_space_group_name_H-M   'P 21/c'
_symmetry_Int_Tables_number      14
_space_group_name_Hall           '-P 2ybc'
loop_
_symmetry_equiv_pos_site_id
_symmetry_equiv_pos_as_xyz
1 x,y,z
2 -x,1/2+y,1/2-z
3 -x,-y,-z
4 x,1/2-y,1/2+z
_cell_length_a                   10.968(2)
_cell_length_b                   11.489(2)
_cell_length_c                   21.555(4)
_cell_angle_alpha                90
_cell_angle_beta                 101.48(3)
_cell_angle_gamma                90
_cell_volume                     2661.84
loop_
_atom_site_label
_atom_site_type_symbol
_atom_site_fract_x
_atom_site_fract_y
_atom_site_fract_z
Nd1 Nd 0.49801(2) 0.14500(2) 0.108038(11)
O1 O 0.4704(3) 0.0397(3) 0.20838(15)
O2 O 0.5196(3) 0.2247(3) 0.21936(15)
O3 O 0.2731(4) 0.3864(3) 0.29381(17)
O4 O 0.2546(3) 0.2100(3) 0.25373(16)
O5 O 0.4468(3) 0.3590(3) 0.49631(14)
O6 O 0.4247(4) 0.4497(3) 0.40469(14)
O7 O 0.1976(3) 0.2613(3) 0.39931(18)
O8 O 0.1726(3) 0.0979(3) 0.44922(18)
O9 O 0.3135(4) -0.0792(3) 0.47600(17)
O10 O 0.4071(3) -0.1806(3) 0.41143(16)
O11 O 0.1973(3) -0.0182(4) 0.32592(16)
O12 O 0.2715(3) -0.0467(3) 0.23914(15)
C1 C 0.4800(4) 0.1266(4) 0.3116(2)
H1 H 0.5667 0.1200 0.3341
C2 C 0.4372(4) 0.2448(4) 0.33328(19)
H2 H 0.4973 0.3024 0.3244
C3 C 0.4511(4) 0.2415(4) 0.40613(19)
H3 H 0.5386 0.2210 0.4214
C4 C 0.3796(4) 0.1427(4) 0.4310(2)
H4 H 0.4113 0.1412 0.4769
C5 C 0.4218(4) 0.0256(4) 0.40632(19)
H5 H 0.5113 0.0240 0.4240
C6 C 0.4158(4) 0.0187(4) 0.3335(2)
H6 H 0.4679 -0.0479 0.3273
C7 C 0.4890(4) 0.1313(4) 0.2421(2)
C8 C 0.3121(4) 0.2778(4) 0.2919(2)
C9 C 0.4374(4) 0.3590(4) 0.4378(2)
C10 C 0.2400(5) 0.1719(4) 0.4230(2)
C11 C 0.3740(5) -0.0866(4) 0.4329(2)
C12 C 0.2841(5) -0.0131(4) 0.2996(2)
O13 O 0.3278(4) 0.2832(4) 0.1006(2)
N1 N 0.1540(4) 0.3750(5) 0.1168(2)
C13 C 0.1992(8) 0.4890(8) 0.1097(5)
H7 H 0.2780 0.4844 0.0969
H8 H 0.2092 0.5297 0.1493
H9 H 0.1410 0.5302 0.0781
C14 C 0.0358(7) 0.3680(8) 0.1364(5)
H10 H 0.0138 0.2878 0.1402
H11 H -0.0269 0.4057 0.1055
H12 H 0.0420 0.4060 0.1766
C15 C 0.2227(6) 0.2817(6) 0.1129(3)
H13 H 0.1893 0.2096 0.1199
O14 O 0.7190(3) 0.1224(3) 0.15677(18)
N2 N 0.9002(4) 0.1500(4) 0.2270(2)
C16 C 0.9673(6) 0.2137(7) 0.2822(3)
H14 H 0.9141 0.2727 0.2940
H15 H 1.0399 0.2495 0.2720
H16 H 0.9918 0.1608 0.3169
C17 C 0.9671(6) 0.0586(6) 0.2009(3)
H17 H 0.9165 0.0297 0.1625
H18 H 0.9858 -0.0037 0.2310
H19 H 1.0431 0.0897 0.1921
C18 C 0.7831(5) 0.1745(5) 0.2024(3)
H20 H 0.7459 0.2351 0.2205
O15 O 0.3065(4) 0.0250(5) 0.0847(2)
N3 N 0.1712(6) -0.1092(6) 0.0340(3)
C19 C 0.2572(8) -0.0283(10) 0.0365(5)
H21 H 0.2827 -0.0099 -0.0010
C20 C 0.124(2) -0.1475(15) 0.0856(8)
H22 H 0.0625 -0.2065 0.0721
H23 H 0.0868 -0.0833 0.1034
H24 H 0.1903 -0.1793 0.1169
C21 C 0.1253(15) -0.1661(14) -0.0267(6)
H25 H 0.1648 -0.1326 -0.0584
H26 H 0.0369 -0.1555 -0.0386
H27 H 0.1439 -0.2478 -0.0230
H28 H 0.3295 0.4123 0.3240
H29 H 0.2207 0.0404 0.4612
H30 H 0.3431 -0.0310 0.2310
Nd1A Nd 0.50199(2) -0.35500(2) 0.391962(11)
Nd1A_2 Nd 0.50199(2) 0.64500(2) 0.391962(11)
Nd1C Nd 0.49801(2) 0.35500(2) 0.608038(11)
O5C O 0.4468(3) 0.1410(3) -0.00369(14)
O6A O 0.5753(4) -0.0503(3) 0.09531(14)
O10A O 0.5929(3) 0.3194(3) 0.08857(16)
loop_
_geom_bond_atom_site_label_1
_geom_bond_atom_site_label_2
_geom_bond_site_symmetry_1
_geom_bond_site_symmetry_2
Nd1 O1 1_555 1_555
O1 C7 1_555 1_555
O2 Nd1 1_555 1_555
O3 C8 1_555 1_555
O4 C8 1_555 1_555
O5 C9 1_555 1_555
O6 C9 1_555 1_555
O7 C10 1_555 1_555
O8 C10 1_555 1_555
O9 C11 1_555 1_555
O10 C11 1_555 1_555
O11 C12 1_555 1_555
O12 C12 1_555 1_555
C1 H1 1_555 1_555
C2 C1 1_555 1_555
H2 C2 1_555 1_555
C3 C2 1_555 1_555
H3 C3 1_555 1_555
C4 C3 1_555 1_555
H4 C4 1_555 1_555
C5 C4 1_555 1_555
H5 C5 1_555 1_555
C6 C1 1_555 1_555
H6 C6 1_555 1_555
C7 O2 1_555 1_555
C8 C2 1_555 1_555
C9 C3 1_555 1_555
C10 C4 1_555 1_555
C11 C5 1_555 1_555
C12 C6 1_555 1_555
O13 Nd1 1_555 1_555
N1 C13 1_555 1_555
C13 H7 1_555 1_555
H8 C13 1_555 1_555
H9 C13 1_555 1_555
C14 N1 1_555 1_555
H10 C14 1_555 1_555
H11 C14 1_555 1_555
H12 C14 1_555 1_555
C15 O13 1_555 1_555
H13 C15 1_555 1_555
O14 Nd1 1_555 1_555
N2 C16 1_555 1_555
C16 H14 1_555 1_555
H15 C16 1_555 1_555
H16 C16 1_555 1_555
C17 N2 1_555 1_555
H17 C17 1_555 1_555
H18 C17 1_555 1_555
H19 C17 1_555 1_555
C18 O14 1_555 1_555
H20 C18 1_555 1_555
O15 Nd1 1_555 1_555
N3 C19 1_555 1_555
C19 O15 1_555 1_555
H21 C19 1_555 1_555
C20 N3 1_555 1_555
H22 C20 1_555 1_555
H23 C20 1_555 1_555
H24 C20 1_555 1_555
C21 N3 1_555 1_555
H25 C21 1_555 1_555
H26 C21 1_555 1_555
H27 C21 1_555 1_555
H28 O3 1_555 1_555
H29 O8 1_555 1_555
H30 O12 1_555 1_555
Nd1A O10 1_555 1_555
Nd1A_2 O6 1_555 1_555
Nd1C O5 1_555 1_555
O5C Nd1 1_555 1_555
O6A Nd1 1_555 1_555
O10A Nd1 1_555 1_555
C1 C7 1_555 1_555
C5 C6 1_555 1_555
N1 C15 1_555 1_555
N2 C18 1_555 1_555

#END
