
#######################################################################
#
#                 Cambridge Crystallographic Data Centre
#                                CCDC 
#
#######################################################################
#
# If this CIF has been generated from an entry in the Cambridge 
# Structural Database, then it will include bibliographic, chemical, 
# crystal, experimental, refinement or atomic coordinate data resulting 
# from the CCDC's data processing and validation procedures.
#
#######################################################################

data_UHESIK
_symmetry_cell_setting           orthorhombic
_symmetry_space_group_name_H-M   'P b c n'
_symmetry_Int_Tables_number      60
_space_group_name_Hall           '-P 2n 2ab'
loop_
_symmetry_equiv_pos_site_id
_symmetry_equiv_pos_as_xyz
1 x,y,z
2 1/2-x,1/2-y,1/2+z
3 -x,y,1/2-z
4 1/2+x,1/2-y,-z
5 -x,-y,-z
6 1/2+x,1/2+y,1/2-z
7 x,-y,1/2+z
8 1/2-x,1/2+y,z
_cell_length_a                   26.3921(8)
_cell_length_b                   20.8329(7)
_cell_length_c                   16.2704(5)
_cell_angle_alpha                90
_cell_angle_beta                 90
_cell_angle_gamma                90
_cell_volume                     8945.86
loop_
_atom_site_label
_atom_site_type_symbol
_atom_site_fract_x
_atom_site_fract_y
_atom_site_fract_z
Co1 Co 0.20352(3) 0.07706(4) 0.86043(5)
Br1 Br 0.21877(2) 0.02082(4) 0.73613(4)
Br2 Br 0.19643(3) 0.18980(3) 0.84200(5)
C1 C 0.01762(19) 0.1353(3) 1.1743(3)
C2 C 0.0623(2) 0.1178(2) 1.1348(3)
C3 C 0.07561(19) 0.1465(3) 1.0598(3)
C4 C 0.0459(2) 0.1949(3) 1.0267(3)
C5 C 0.0019(2) 0.2153(2) 1.0682(3)
C6 C -0.01416(18) 0.1817(2) 1.1386(3)
C7 C 0.0962(2) 0.0650(3) 1.1695(3)
H1 H 0.1214 0.0839 1.2066
H2 H 0.1136 0.0430 1.1243
H3 H 0.0755 0.0340 1.1999
C8 C 0.1207(2) 0.1236(3) 1.0117(3)
H4 H 0.1320 0.1577 0.9735
H5 H 0.1490 0.1138 1.0496
N1 N 0.10657(16) 0.0648(2) 0.9644(3)
N2 N 0.13980(16) 0.0393(2) 0.9090(3)
C9 C 0.1186(2) -0.0172(3) 0.8849(3)
H6 H 0.1332 -0.0461 0.8464
C10 C 0.0727(2) -0.0268(3) 0.9242(4)
H7 H 0.0502 -0.0621 0.9181
C11 C 0.0668(2) 0.0254(3) 0.9733(4)
H8 H 0.0387 0.0329 1.0086
C12 C 0.0597(2) 0.2234(3) 0.9436(3)
H9 H 0.0873 0.1986 0.9191
H10 H 0.0705 0.2681 0.9508
H11 H 0.0301 0.2221 0.9073
C13 C -0.0293(2) 0.2693(3) 1.0329(3)
H12 H -0.0581 0.2498 1.0029
H13 H -0.0082 0.2918 0.9917
C14 C -0.06555(17) 0.1935(3) 1.1747(3)
H14 H -0.0629 0.2252 1.2190
H15 H -0.0791 0.1532 1.1967
H16 H -0.0883 0.2098 1.1319
C15 C -0.0510(2) 0.3203(2) 1.0917(3)
C16 C -0.1025(2) 0.3353(3) 1.0917(3)
C17 C -0.1206(2) 0.3846(3) 1.1407(3)
C18 C -0.0883(2) 0.4190(3) 1.1912(3)
C19 C -0.03607(19) 0.4029(3) 1.1943(3)
C20 C -0.01797(18) 0.3561(3) 1.1411(3)
C21 C -0.1386(2) 0.2999(3) 1.0357(4)
H17 H -0.1727 0.3176 1.0420
H18 H -0.1388 0.2542 1.0501
H19 H -0.1275 0.3049 0.9785
C22 C -0.17621(19) 0.3977(3) 1.1395(3)
H20 H -0.1947 0.3564 1.1406
H21 H -0.1855 0.4218 1.1897
N3 N -0.19219(16) 0.4339(2) 1.0681(3)
N4 N -0.24293(16) 0.4470(2) 1.0584(3)
C23 C -0.2463(3) 0.4782(3) 0.9858(4)
H22 H -0.2771 0.4938 0.9630
C24 C -0.2004(2) 0.4845(3) 0.9499(4)
H23 H -0.1927 0.5040 0.8986
C25 C -0.1671(3) 0.4560(4) 1.0049(4)
H24 H -0.1314 0.4529 0.9977
C26 C -0.1079(2) 0.4748(3) 1.2432(4)
H25 H -0.1396 0.4910 1.2197
H26 H -0.0826 0.5093 1.2439
H27 H -0.1140 0.4600 1.2995
C27 C 0.03939(18) 0.3420(3) 1.1355(3)
H28 H 0.0585 0.3808 1.1497
H29 H 0.0479 0.3288 1.0794
H30 H 0.0481 0.3075 1.1739
C28 C 0.0000 0.4387(4) 1.2500
H31 H -0.0208 0.4670 1.2854
C29 C 0.0000 0.0992(3) 1.2500
H32 H 0.0282 0.0709 1.2673
Co1B Co -0.20352(3) 0.07706(4) 1.63957(5)
Co1A Co 0.29648(3) 0.42294(4) 1.36043(5)
Co1C Co -0.29648(3) 0.42294(4) 1.13957(5)
Br1B Br -0.21877(2) 0.02082(4) 1.76387(4)
Br2B Br -0.19643(3) 0.18980(3) 1.65800(5)
C1B C -0.01762(19) 0.1353(3) 1.3257(3)
C2B C -0.0623(2) 0.1178(2) 1.3652(3)
C3B C -0.07561(19) 0.1465(3) 1.4402(3)
C4B C -0.0459(2) 0.1949(3) 1.4733(3)
C5B C -0.0019(2) 0.2153(2) 1.4318(3)
C6B C 0.01416(18) 0.1817(2) 1.3614(3)
C7B C -0.0962(2) 0.0650(3) 1.3305(3)
H1B H -0.1214 0.0839 1.2934
H2B H -0.1136 0.0430 1.3757
H3B H -0.0755 0.0340 1.3001
C8B C -0.1207(2) 0.1236(3) 1.4883(3)
H4B H -0.1320 0.1577 1.5265
H5B H -0.1490 0.1138 1.4504
N1B N -0.10657(16) 0.0648(2) 1.5356(3)
N2B N -0.13980(16) 0.0393(2) 1.5910(3)
C9B C -0.1186(2) -0.0172(3) 1.6151(3)
H6B H -0.1332 -0.0461 1.6536
C10B C -0.0727(2) -0.0268(3) 1.5758(4)
H7B H -0.0502 -0.0621 1.5819
C11B C -0.0668(2) 0.0254(3) 1.5267(4)
H8B H -0.0387 0.0329 1.4914
C12B C -0.0597(2) 0.2234(3) 1.5564(3)
H9B H -0.0873 0.1986 1.5809
H10B H -0.0705 0.2681 1.5492
H11B H -0.0301 0.2221 1.5927
C13B C 0.0293(2) 0.2693(3) 1.4671(3)
H12B H 0.0581 0.2498 1.4971
H13B H 0.0082 0.2918 1.5083
C14B C 0.06555(17) 0.1935(3) 1.3253(3)
H14B H 0.0629 0.2252 1.2810
H15B H 0.0791 0.1532 1.3033
H16B H 0.0883 0.2098 1.3681
C15B C 0.0510(2) 0.3203(2) 1.4083(3)
C16B C 0.1025(2) 0.3353(3) 1.4083(3)
C17B C 0.1206(2) 0.3846(3) 1.3593(3)
C18B C 0.0883(2) 0.4190(3) 1.3088(3)
C19B C 0.03607(19) 0.4029(3) 1.3057(3)
C20B C 0.01797(18) 0.3561(3) 1.3589(3)
C21B C 0.1386(2) 0.2999(3) 1.4643(4)
H17B H 0.1727 0.3176 1.4580
H18B H 0.1388 0.2542 1.4499
H19B H 0.1275 0.3049 1.5215
C22B C 0.17621(19) 0.3977(3) 1.3605(3)
H20B H 0.1947 0.3564 1.3594
H21B H 0.1855 0.4218 1.3103
N3B N 0.19219(16) 0.4339(2) 1.4319(3)
N4B N 0.24293(16) 0.4470(2) 1.4416(3)
N4A N -0.25707(16) 0.0530(2) 1.5584(3)
N4C N 0.25707(16) 0.0530(2) 0.9416(3)
C23B C 0.2463(3) 0.4782(3) 1.5142(4)
H22B H 0.2771 0.4938 1.5370
C24B C 0.2004(2) 0.4845(3) 1.5501(4)
H23B H 0.1927 0.5040 1.6014
C25B C 0.1671(3) 0.4560(4) 1.4951(4)
H24B H 0.1314 0.4529 1.5023
C26B C 0.1079(2) 0.4748(3) 1.2568(4)
H25B H 0.1396 0.4910 1.2803
H26B H 0.0826 0.5093 1.2561
H27B H 0.1140 0.4600 1.2005
C27B C -0.03939(18) 0.3420(3) 1.3645(3)
H28B H -0.0585 0.3808 1.3503
H29B H -0.0479 0.3288 1.4206
H30B H -0.0481 0.3075 1.3261
H31B H 0.0208 0.4670 1.2146
H32B H -0.0282 0.0709 1.2327
loop_
_geom_bond_atom_site_label_1
_geom_bond_atom_site_label_2
_geom_bond_site_symmetry_1
_geom_bond_site_symmetry_2
Co1 Br1 1_555 1_555
Br2 Co1 1_555 1_555
C1 C2 1_555 1_555
C2 C3 1_555 1_555
C3 C4 1_555 1_555
C4 C5 1_555 1_555
C5 C6 1_555 1_555
C6 C1 1_555 1_555
C7 C2 1_555 1_555
H1 C7 1_555 1_555
H2 C7 1_555 1_555
H3 C7 1_555 1_555
C8 C3 1_555 1_555
H4 C8 1_555 1_555
H5 C8 1_555 1_555
N1 C8 1_555 1_555
N2 Co1 1_555 1_555
C9 N2 1_555 1_555
H6 C9 1_555 1_555
C10 C9 1_555 1_555
H7 C10 1_555 1_555
C11 N1 1_555 1_555
H8 C11 1_555 1_555
C12 C4 1_555 1_555
H9 C12 1_555 1_555
H10 C12 1_555 1_555
H11 C12 1_555 1_555
C13 C5 1_555 1_555
H12 C13 1_555 1_555
H13 C13 1_555 1_555
C14 C6 1_555 1_555
H14 C14 1_555 1_555
H15 C14 1_555 1_555
H16 C14 1_555 1_555
C15 C13 1_555 1_555
C16 C15 1_555 1_555
C17 C16 1_555 1_555
C18 C17 1_555 1_555
C19 C18 1_555 1_555
C20 C15 1_555 1_555
C21 C16 1_555 1_555
H17 C21 1_555 1_555
H18 C21 1_555 1_555
H19 C21 1_555 1_555
C22 C17 1_555 1_555
H20 C22 1_555 1_555
H21 C22 1_555 1_555
N3 C22 1_555 1_555
N4 N3 1_555 1_555
C23 N4 1_555 1_555
H22 C23 1_555 1_555
C24 C23 1_555 1_555
H23 C24 1_555 1_555
C25 N3 1_555 1_555
H24 C25 1_555 1_555
C26 C18 1_555 1_555
H25 C26 1_555 1_555
H26 C26 1_555 1_555
H27 C26 1_555 1_555
C27 C20 1_555 1_555
H28 C27 1_555 1_555
H29 C27 1_555 1_555
H30 C27 1_555 1_555
C28 C19 1_555 1_555
H31 C28 1_555 1_555
C29 C1 1_555 1_555
H32 C29 1_555 1_555
Co1B Br1B 1_555 1_555
Co1A N4B 1_555 1_555
Co1C N4 1_555 1_555
Br2B Co1B 1_555 1_555
C1B C29 1_555 1_555
C2B C1B 1_555 1_555
C3B C2B 1_555 1_555
C4B C3B 1_555 1_555
C5B C4B 1_555 1_555
C6B C1B 1_555 1_555
C7B C2B 1_555 1_555
H1B C7B 1_555 1_555
H2B C7B 1_555 1_555
H3B C7B 1_555 1_555
C8B C3B 1_555 1_555
H4B C8B 1_555 1_555
H5B C8B 1_555 1_555
N1B C8B 1_555 1_555
N2B Co1B 1_555 1_555
C9B N2B 1_555 1_555
H6B C9B 1_555 1_555
C10B C9B 1_555 1_555
H7B C10B 1_555 1_555
C11B N1B 1_555 1_555
H8B C11B 1_555 1_555
C12B C4B 1_555 1_555
H9B C12B 1_555 1_555
H10B C12B 1_555 1_555
H11B C12B 1_555 1_555
C13B C5B 1_555 1_555
H12B C13B 1_555 1_555
H13B C13B 1_555 1_555
C14B C6B 1_555 1_555
H14B C14B 1_555 1_555
H15B C14B 1_555 1_555
H16B C14B 1_555 1_555
C15B C13B 1_555 1_555
C16B C15B 1_555 1_555
C17B C16B 1_555 1_555
C18B C17B 1_555 1_555
C19B C28 1_555 1_555
C20B C15B 1_555 1_555
C21B C16B 1_555 1_555
H17B C21B 1_555 1_555
H18B C21B 1_555 1_555
H19B C21B 1_555 1_555
C22B C17B 1_555 1_555
H20B C22B 1_555 1_555
H21B C22B 1_555 1_555
N3B C22B 1_555 1_555
N4B N3B 1_555 1_555
N4A Co1B 1_555 1_555
N4C Co1 1_555 1_555
C23B N4B 1_555 1_555
H22B C23B 1_555 1_555
C24B C23B 1_555 1_555
H23B C24B 1_555 1_555
C25B N3B 1_555 1_555
H24B C25B 1_555 1_555
C26B C18B 1_555 1_555
H25B C26B 1_555 1_555
H26B C26B 1_555 1_555
H27B C26B 1_555 1_555
C27B C20B 1_555 1_555
H28B C27B 1_555 1_555
H29B C27B 1_555 1_555
H30B C27B 1_555 1_555
H31B C28 1_555 1_555
H32B C29 1_555 1_555
N1 N2 1_555 1_555
C10 C11 1_555 1_555
C19 C20 1_555 1_555
C24 C25 1_555 1_555
C5B C6B 1_555 1_555
N1B N2B 1_555 1_555
C10B C11B 1_555 1_555
C18B C19B 1_555 1_555
C19B C20B 1_555 1_555
C24B C25B 1_555 1_555

#END
