
#######################################################################
#
#                 Cambridge Crystallographic Data Centre
#                                CCDC 
#
#######################################################################
#
# If this CIF has been generated from an entry in the Cambridge 
# Structural Database, then it will include bibliographic, chemical, 
# crystal, experimental, refinement or atomic coordinate data resulting 
# from the CCDC's data processing and validation procedures.
#
#######################################################################

data_UHESUW
_symmetry_cell_setting           monoclinic
_symmetry_space_group_name_H-M   'P 21/c'
_symmetry_Int_Tables_number      14
_space_group_name_Hall           '-P 2ybc'
loop_
_symmetry_equiv_pos_site_id
_symmetry_equiv_pos_as_xyz
1 x,y,z
2 -x,1/2+y,1/2-z
3 -x,-y,-z
4 x,1/2-y,1/2+z
_cell_length_a                   21.815(2)
_cell_length_b                   14.8140(17)
_cell_length_c                   22.496(3)
_cell_angle_alpha                90
_cell_angle_beta                 97.717(7)
_cell_angle_gamma                90
_cell_volume                     7204.13
loop_
_atom_site_label
_atom_site_type_symbol
_atom_site_fract_x
_atom_site_fract_y
_atom_site_fract_z
Cu1 Cu -0.03629(12) 0.6719(2) 0.52872(13)
Br1 Br 0.04250(10) 0.68189(19) 0.46564(12)
Br2 Br -0.09667(11) 0.7766(2) 0.57518(12)
Cu2 Cu 0.61520(14) 0.9403(2) 0.88048(15)
Br3 Br 0.6685(2) 1.0654(2) 0.85086(16)
Br4 Br 0.58043(14) 0.8051(2) 0.91725(13)
C1 C 0.3580(5) 1.0323(7) 0.6865(6)
C2 C 0.4159(5) 1.0262(7) 0.7207(6)
C3 C 0.4356(4) 0.9447(9) 0.7474(6)
C4 C 0.3973(5) 0.8694(7) 0.7400(6)
C5 C 0.3394(5) 0.8755(7) 0.7059(6)
C6 C 0.3198(4) 0.9570(9) 0.6791(6)
C7 C 0.4622(10) 1.1047(16) 0.7234(11)
H1 H 0.4584 1.1421 0.7587
H2 H 0.4534 1.1415 0.6870
H3 H 0.5044 1.0807 0.7262
C8 C 0.4952(8) 0.9395(16) 0.7906(8)
H4 H 0.5055 1.0001 0.8074
H5 H 0.4893 0.8986 0.8241
N1 N 0.5455(7) 0.9071(12) 0.7616(8)
N2 N 0.6028(9) 0.8939(15) 0.7973(10)
C9 C 0.5496(10) 0.8839(19) 0.7046(11)
H6 H 0.5178 0.8910 0.6717
C10 C 0.6075(11) 0.8482(14) 0.7016(11)
H7 H 0.6227 0.8217 0.6681
C11 C 0.6388(11) 0.8604(19) 0.7602(15)
H8 H 0.6812 0.8461 0.7716
C12 C 0.4234(11) 0.7796(14) 0.7672(10)
H9 H 0.4100 0.7300 0.7397
H10 H 0.4083 0.7694 0.8057
H11 H 0.4687 0.7824 0.7734
C13 C 0.2601(8) 0.9608(14) 0.6377(9)
H12 H 0.2537 0.9037 0.6158
H13 H 0.2616 1.0105 0.6091
H14 H 0.2259 0.9709 0.6610
C14 C 0.2995(8) 0.7905(15) 0.6959(10)
H15 H 0.3204 0.7417 0.7209
H16 H 0.2984 0.7721 0.6535
C15 C 0.2325(5) 0.7965(10) 0.7095(6)
C16 C 0.1826(7) 0.7732(10) 0.6672(4)
C17 C 0.1227(5) 0.7787(10) 0.6816(5)
C18 C 0.1127(4) 0.8075(10) 0.7383(6)
C19 C 0.1626(5) 0.8307(10) 0.7806(4)
C20 C 0.2225(4) 0.8252(10) 0.7662(5)
C21 C 0.1933(11) 0.7334(17) 0.6061(11)
H17 H 0.2028 0.7823 0.5794
H18 H 0.1560 0.7018 0.5881
H19 H 0.2281 0.6909 0.6119
C22 C 0.0684(10) 0.7554(15) 0.6366(9)
H20 H 0.0327 0.7937 0.6433
H21 H 0.0784 0.7678 0.5957
N3 N 0.0520(8) 0.6622(13) 0.6412(8)
N4 N 0.0103(7) 0.6175(15) 0.6003(8)
C23 C 0.0708(11) 0.6032(18) 0.6860(12)
H22 H 0.1003 0.6155 0.7201
C24 C 0.0404(12) 0.5228(19) 0.6740(12)
H23 H 0.0441 0.4690 0.6972
C25 C 0.0044(12) 0.5382(17) 0.6221(12)
H24 H -0.0233 0.4943 0.6029
C26 C 0.0462(8) 0.8081(17) 0.7538(12)
H25 H 0.0304 0.8701 0.7519
H26 H 0.0459 0.7842 0.7943
H27 H 0.0199 0.7705 0.7250
C27 C 0.2771(8) 0.8413(16) 0.8145(9)
H28 H 0.3134 0.8089 0.8041
H29 H 0.2670 0.8193 0.8531
H30 H 0.2862 0.9061 0.8174
C28 C 0.1518(9) 0.8658(17) 0.8445(10)
H31 H 0.1065 0.8714 0.8444
H32 H 0.1662 0.8179 0.8737
C29 C 0.1806(6) 0.9532(7) 0.8686(6)
C30 C 0.2182(6) 0.9569(8) 0.9235(5)
C31 C 0.2479(5) 1.0370(10) 0.9423(5)
C32 C 0.2399(5) 1.1133(8) 0.9062(6)
C33 C 0.2023(6) 1.1097(7) 0.8513(6)
C34 C 0.1726(6) 1.0296(9) 0.8325(4)
C35 C 0.2245(11) 0.8737(19) 0.9626(10)
H33 H 0.1858 0.8636 0.9793
H34 H 0.2584 0.8823 0.9954
H35 H 0.2333 0.8213 0.9386
C36 C 0.2870(9) 1.0403(16) 1.0011(9)
H36 H 0.2914 1.1035 1.0153
H37 H 0.2677 1.0048 1.0309
N5 N 0.3492(8) 1.0020(15) 0.9941(9)
N6 N 0.3915(10) 1.0001(16) 1.0418(10)
C37 C 0.3693(15) 0.962(3) 0.9462(15)
H38 H 0.3463 0.9605 0.9072
C38 C 0.4220(17) 0.926(3) 0.9592(19)
H39 H 0.4456 0.8916 0.9348
C39 C 0.4371(14) 0.954(3) 1.0231(19)
H40 H 0.4748 0.9393 1.0475
C40 C 0.2740(11) 1.1994(17) 0.9298(10)
H41 H 0.3112 1.1830 0.9570
H42 H 0.2467 1.2359 0.9515
H43 H 0.2857 1.2341 0.8960
C41 C 0.1272(13) 1.0260(10) 0.7737(12)
H44 H 0.1493 1.0066 0.7408
H45 H 0.1095 1.0861 0.7649
H46 H 0.0939 0.9832 0.7782
C42 C 0.1911(9) 1.1966(16) 0.8126(9)
H47 H 0.1473 1.2147 0.8118
H48 H 0.2169 1.2455 0.8328
C43 C 0.2046(6) 1.1903(10) 0.7493(4)
C44 C 0.1589(5) 1.2182(10) 0.7039(6)
C45 C 0.1698(5) 1.2157(10) 0.6444(5)
C46 C 0.2263(6) 1.1852(10) 0.6303(4)
C47 C 0.2720(4) 1.1573(10) 0.6757(5)
C48 C 0.2611(5) 1.1599(10) 0.7351(4)
C49 C 0.0985(10) 1.2611(18) 0.7147(11)
H49 H 0.1046 1.2950 0.7525
H50 H 0.0674 1.2139 0.7172
H51 H 0.0842 1.3022 0.6816
C50 C 0.1215(10) 1.2449(15) 0.5930(10)
H52 H 0.1252 1.2081 0.5569
H53 H 0.0794 1.2366 0.6040
N7 N 0.1327(8) 1.3424(14) 0.5806(8)
N8 N 0.0997(9) 1.3813(15) 0.5322(10)
C51 C 0.1193(11) 1.468(2) 0.5312(12)
H54 H 0.1053 1.5113 0.5016
C52 C 0.1627(11) 1.4812(19) 0.5800(13)
H55 H 0.1842 1.5362 0.5896
C53 C 0.1701(11) 1.406(2) 0.6118(12)
H56 H 0.1960 1.3982 0.6488
C54 C 0.2391(10) 1.1889(19) 0.5652(10)
H57 H 0.2402 1.1274 0.5493
H58 H 0.2790 1.2184 0.5633
H59 H 0.2062 1.2232 0.5411
C55 C 0.3112(8) 1.1350(16) 0.7838(9)
H60 H 0.3038 1.1642 0.8213
H61 H 0.3511 1.1549 0.7731
H62 H 0.3118 1.0693 0.7892
C56 C 0.3344(8) 1.1226(16) 0.6607(10)
H63 H 0.3316 1.1186 0.6165
H64 H 0.3660 1.1688 0.6741
Cu1B Cu 0.03629(12) 1.3281(2) 0.47128(13)
Cu2B Cu 0.38480(14) 1.0597(2) 1.11952(15)
N6B N 0.6085(10) 0.9999(16) 0.9582(10)
N8B N -0.0997(9) 0.6187(15) 0.4678(10)
loop_
_geom_bond_atom_site_label_1
_geom_bond_atom_site_label_2
_geom_bond_site_symmetry_1
_geom_bond_site_symmetry_2
Cu1 Br1 1_555 1_555
Br2 Cu1 1_555 1_555
Cu2 Br3 1_555 1_555
Br4 Cu2 1_555 1_555
C1 C2 1_555 1_555
C2 C3 1_555 1_555
C3 C4 1_555 1_555
C4 C5 1_555 1_555
C5 C6 1_555 1_555
C6 C1 1_555 1_555
C7 C2 1_555 1_555
H1 C7 1_555 1_555
H2 C7 1_555 1_555
H3 C7 1_555 1_555
C8 C3 1_555 1_555
H4 C8 1_555 1_555
H5 C8 1_555 1_555
N1 C8 1_555 1_555
N2 Cu2 1_555 1_555
C9 N1 1_555 1_555
H6 C9 1_555 1_555
C10 C9 1_555 1_555
H7 C10 1_555 1_555
C11 N2 1_555 1_555
H8 C11 1_555 1_555
C12 C4 1_555 1_555
H9 C12 1_555 1_555
H10 C12 1_555 1_555
H11 C12 1_555 1_555
C13 C6 1_555 1_555
H12 C13 1_555 1_555
H13 C13 1_555 1_555
H14 C13 1_555 1_555
C14 C5 1_555 1_555
H15 C14 1_555 1_555
H16 C14 1_555 1_555
C15 C14 1_555 1_555
C16 C15 1_555 1_555
C17 C16 1_555 1_555
C18 C17 1_555 1_555
C19 C18 1_555 1_555
C20 C15 1_555 1_555
C21 C16 1_555 1_555
H17 C21 1_555 1_555
H18 C21 1_555 1_555
H19 C21 1_555 1_555
C22 C17 1_555 1_555
H20 C22 1_555 1_555
H21 C22 1_555 1_555
N3 C22 1_555 1_555
N4 Cu1 1_555 1_555
C23 N3 1_555 1_555
H22 C23 1_555 1_555
C24 C23 1_555 1_555
H23 C24 1_555 1_555
C25 N4 1_555 1_555
H24 C25 1_555 1_555
C26 C18 1_555 1_555
H25 C26 1_555 1_555
H26 C26 1_555 1_555
H27 C26 1_555 1_555
C27 C20 1_555 1_555
H28 C27 1_555 1_555
H29 C27 1_555 1_555
H30 C27 1_555 1_555
C28 C19 1_555 1_555
H31 C28 1_555 1_555
H32 C28 1_555 1_555
C29 C28 1_555 1_555
C30 C29 1_555 1_555
C31 C30 1_555 1_555
C32 C31 1_555 1_555
C33 C32 1_555 1_555
C34 C29 1_555 1_555
C35 C30 1_555 1_555
H33 C35 1_555 1_555
H34 C35 1_555 1_555
H35 C35 1_555 1_555
C36 C31 1_555 1_555
H36 C36 1_555 1_555
H37 C36 1_555 1_555
N5 C36 1_555 1_555
N6 N5 1_555 1_555
C37 N5 1_555 1_555
H38 C37 1_555 1_555
C38 C37 1_555 1_555
H39 C38 1_555 1_555
C39 N6 1_555 1_555
H40 C39 1_555 1_555
C40 C32 1_555 1_555
H41 C40 1_555 1_555
H42 C40 1_555 1_555
H43 C40 1_555 1_555
C41 C34 1_555 1_555
H44 C41 1_555 1_555
H45 C41 1_555 1_555
H46 C41 1_555 1_555
C42 C33 1_555 1_555
H47 C42 1_555 1_555
H48 C42 1_555 1_555
C43 C42 1_555 1_555
C44 C43 1_555 1_555
C45 C44 1_555 1_555
C46 C45 1_555 1_555
C47 C46 1_555 1_555
C48 C43 1_555 1_555
C49 C44 1_555 1_555
H49 C49 1_555 1_555
H50 C49 1_555 1_555
H51 C49 1_555 1_555
C50 C45 1_555 1_555
H52 C50 1_555 1_555
H53 C50 1_555 1_555
N7 C50 1_555 1_555
N8 N7 1_555 1_555
C51 N8 1_555 1_555
H54 C51 1_555 1_555
C52 C51 1_555 1_555
H55 C52 1_555 1_555
C53 N7 1_555 1_555
H56 C53 1_555 1_555
C54 C46 1_555 1_555
H57 C54 1_555 1_555
H58 C54 1_555 1_555
H59 C54 1_555 1_555
C55 C48 1_555 1_555
H60 C55 1_555 1_555
H61 C55 1_555 1_555
H62 C55 1_555 1_555
C56 C1 1_555 1_555
H63 C56 1_555 1_555
H64 C56 1_555 1_555
Cu1B N8 1_555 1_555
Cu2B N6 1_555 1_555
N6B Cu2 1_555 1_555
N8B Cu1 1_555 1_555
N1 N2 1_555 1_555
C10 C11 1_555 1_555
C19 C20 1_555 1_555
N3 N4 1_555 1_555
C24 C25 1_555 1_555
C33 C34 1_555 1_555
C38 C39 1_555 1_555
C47 C48 1_555 1_555
C47 C56 1_555 1_555
C52 C53 1_555 1_555

#END
