
#######################################################################
#
#                 Cambridge Crystallographic Data Centre
#                                CCDC 
#
#######################################################################
#
# If this CIF has been generated from an entry in the Cambridge 
# Structural Database, then it will include bibliographic, chemical, 
# crystal, experimental, refinement or atomic coordinate data resulting 
# from the CCDC's data processing and validation procedures.
#
#######################################################################

data_UHESOQ
_symmetry_cell_setting           orthorhombic
_symmetry_space_group_name_H-M   'P b c n'
_symmetry_Int_Tables_number      60
_space_group_name_Hall           '-P 2n 2ab'
loop_
_symmetry_equiv_pos_site_id
_symmetry_equiv_pos_as_xyz
1 x,y,z
2 1/2-x,1/2-y,1/2+z
3 -x,y,1/2-z
4 1/2+x,1/2-y,-z
5 -x,-y,-z
6 1/2+x,1/2+y,1/2-z
7 x,-y,1/2+z
8 1/2-x,1/2+y,z
_cell_length_a                   26.3351(17)
_cell_length_b                   20.7619(17)
_cell_length_c                   16.0893(13)
_cell_angle_alpha                90
_cell_angle_beta                 90
_cell_angle_gamma                90
_cell_volume                     8797.09
loop_
_atom_site_label
_atom_site_type_symbol
_atom_site_fract_x
_atom_site_fract_y
_atom_site_fract_z
Co1 Co 1.20521(2) 0.07425(4) -0.13917(4)
Cl1 Cl 1.19736(5) 0.18005(8) -0.15936(9)
Cl2 Cl 1.22010(5) 0.01816(9) -0.25508(9)
C1 C 1.00200(18) 0.2157(2) 0.0656(3)
C2 C 1.04578(18) 0.1962(3) 0.0252(3)
C3 C 1.07640(16) 0.1459(3) 0.0591(3)
C4 C 1.06308(17) 0.1185(2) 0.1350(3)
C5 C 1.01799(16) 0.1356(3) 0.1745(3)
C6 C 0.98719(15) 0.1828(2) 0.1374(3)
C7 C 1.06063(18) 0.2267(3) -0.0604(3)
H1 H 1.0313 0.2495 -0.0836
H2 H 1.0712 0.1926 -0.0987
H3 H 1.0887 0.2571 -0.0524
C8 C 1.12173(16) 0.1198(3) 0.0115(3)
H4 H 1.1350 0.1536 -0.0261
H5 H 1.1490 0.1081 0.0511
N1 N 1.10777(13) 0.0646(2) -0.0359(2)
N2 N 1.14104(14) 0.0370(2) -0.0891(2)
C9 C 1.12007(19) -0.0193(3) -0.1143(3)
H6 H 1.1348 -0.0483 -0.1532
C10 C 1.07313(18) -0.0281(3) -0.0741(3)
H7 H 1.0505 -0.0635 -0.0800
C11 C 1.06710(18) 0.0238(3) -0.0259(3)
H8 H 1.0390 0.0313 0.0098
C12 C 1.09800(17) 0.0664(3) 0.1711(3)
H9 H 1.1322 0.0714 0.1480
H10 H 1.0847 0.0237 0.1566
H11 H 1.0994 0.0708 0.2317
C13 C 0.93497(15) 0.1952(2) 0.1733(3)
H12 H 0.9375 0.2271 0.2180
H13 H 0.9211 0.1549 0.1957
H14 H 0.9125 0.2115 0.1296
C14 C 0.97061(16) 0.2706(2) 0.0295(3)
H15 H 0.9915 0.2926 -0.0131
H16 H 0.9410 0.2515 0.0005
C15 C 0.95119(17) 0.3208(2) 0.0887(3)
C16 C 0.89854(19) 0.3369(3) 0.0857(3)
C17 C 0.88128(16) 0.3852(3) 0.1356(3)
C18 C 0.91301(19) 0.4203(3) 0.1899(3)
C19 C 0.96522(16) 0.4043(2) 0.1926(3)
C20 C 0.98300(15) 0.3562(2) 0.1397(3)
C21 C 0.86292(16) 0.2992(3) 0.0258(3)
H17 H 0.8292 0.3193 0.0256
H18 H 0.8600 0.2544 0.0447
H19 H 0.8771 0.3001 -0.0305
C22 C 0.82458(16) 0.3991(3) 0.1352(3)
H20 H 0.8060 0.3577 0.1368
H21 H 0.8158 0.4232 0.1863
N3 N 0.80732(14) 0.4357(2) 0.0638(3)
N4 N 0.75694(14) 0.4495(2) 0.0564(3)
C23 C 0.75414(19) 0.4788(3) -0.0171(3)
H22 H 0.7234 0.4953 -0.0395
C24 C 0.8000(2) 0.4828(3) -0.0575(4)
H23 H 0.8066 0.5003 -0.1110
C25 C 0.8347(2) 0.4554(3) -0.0025(4)
H24 H 0.8703 0.4514 -0.0100
C26 C 0.89316(17) 0.4765(3) 0.2402(3)
H25 H 0.8603 0.4903 0.2178
H26 H 0.9173 0.5123 0.2372
H27 H 0.8890 0.4633 0.2983
C27 C 1.03944(14) 0.3425(2) 0.1346(3)
H28 H 1.0482 0.3080 0.1735
H29 H 1.0584 0.3815 0.1490
H30 H 1.0482 0.3293 0.0779
C28 C 1.0000 0.4415(3) 0.2500
H31 H 0.9785 0.4699 0.2848
C29 C 1.0000 0.0991(3) 0.2500
H32 H 1.0281 0.0707 0.2680
Co1B Co 0.79479(2) 0.07425(4) 0.63917(4)
Co1C Co 0.70521(2) 0.42575(4) 0.13917(4)
Co1A Co 1.29479(2) 0.42575(4) 0.36083(4)
Cl1B Cl 0.80264(5) 0.18005(8) 0.65936(9)
Cl2B Cl 0.77990(5) 0.01816(9) 0.75508(9)
C1B C 0.99800(18) 0.2157(2) 0.4344(3)
C2B C 0.95422(18) 0.1962(3) 0.4748(3)
C3B C 0.92360(16) 0.1459(3) 0.4409(3)
C4B C 0.93692(17) 0.1185(2) 0.3650(3)
C5B C 0.98201(16) 0.1356(3) 0.3255(3)
C6B C 1.01281(15) 0.1828(2) 0.3626(3)
C7B C 0.93937(18) 0.2267(3) 0.5604(3)
H1B H 0.9687 0.2495 0.5836
H2B H 0.9288 0.1926 0.5987
H3B H 0.9113 0.2571 0.5524
C8B C 0.87827(16) 0.1198(3) 0.4885(3)
H4B H 0.8650 0.1536 0.5261
H5B H 0.8510 0.1081 0.4489
N1B N 0.89223(13) 0.0646(2) 0.5359(2)
N2B N 0.85896(14) 0.0370(2) 0.5891(2)
C9B C 0.87993(19) -0.0193(3) 0.6143(3)
H6B H 0.8652 -0.0483 0.6532
C10B C 0.92687(18) -0.0281(3) 0.5741(3)
H7B H 0.9495 -0.0635 0.5800
C11B C 0.93290(18) 0.0238(3) 0.5259(3)
H8B H 0.9610 0.0313 0.4902
C12B C 0.90200(17) 0.0664(3) 0.3289(3)
H9B H 0.8678 0.0714 0.3520
H10B H 0.9153 0.0237 0.3434
H11B H 0.9006 0.0708 0.2683
C13B C 1.06503(15) 0.1952(2) 0.3267(3)
H12B H 1.0625 0.2271 0.2820
H13B H 1.0789 0.1549 0.3043
H14B H 1.0875 0.2115 0.3704
C14B C 1.02939(16) 0.2706(2) 0.4705(3)
H15B H 1.0085 0.2926 0.5131
H16B H 1.0590 0.2515 0.4995
C15B C 1.04881(17) 0.3208(2) 0.4113(3)
C16B C 1.10146(19) 0.3369(3) 0.4143(3)
C17B C 1.11872(16) 0.3852(3) 0.3644(3)
C18B C 1.08699(19) 0.4203(3) 0.3101(3)
C19B C 1.03478(16) 0.4043(2) 0.3074(3)
C20B C 1.01700(15) 0.3562(2) 0.3603(3)
C21B C 1.13708(16) 0.2992(3) 0.4742(3)
H17B H 1.1708 0.3193 0.4744
H18B H 1.1400 0.2544 0.4553
H19B H 1.1229 0.3001 0.5305
C22B C 1.17542(16) 0.3991(3) 0.3648(3)
H20B H 1.1940 0.3577 0.3632
H21B H 1.1842 0.4232 0.3137
N3B N 1.19268(14) 0.4357(2) 0.4362(3)
N4B N 1.24306(14) 0.4495(2) 0.4436(3)
N4C N 1.25694(14) 0.0505(2) -0.0564(3)
N4A N 0.74306(14) 0.0505(2) 0.5564(3)
C23B C 1.24586(19) 0.4788(3) 0.5171(3)
H22B H 1.2766 0.4953 0.5395
C24B C 1.2000(2) 0.4828(3) 0.5575(4)
H23B H 1.1934 0.5003 0.6110
C25B C 1.1653(2) 0.4554(3) 0.5025(4)
H24B H 1.1297 0.4514 0.5100
C26B C 1.10684(17) 0.4765(3) 0.2598(3)
H25B H 1.1397 0.4903 0.2822
H26B H 1.0827 0.5123 0.2628
H27B H 1.1110 0.4633 0.2017
C27B C 0.96056(14) 0.3425(2) 0.3654(3)
H28B H 0.9518 0.3080 0.3265
H29B H 0.9416 0.3815 0.3510
H30B H 0.9518 0.3293 0.4221
H31B H 1.0215 0.4699 0.2152
H32B H 0.9719 0.0707 0.2320
loop_
_geom_bond_atom_site_label_1
_geom_bond_atom_site_label_2
_geom_bond_site_symmetry_1
_geom_bond_site_symmetry_2
Co1 Cl1 1_555 1_555
Cl2 Co1 1_555 1_555
C1 C2 1_555 1_555
C2 C3 1_555 1_555
C3 C4 1_555 1_555
C4 C5 1_555 1_555
C5 C6 1_555 1_555
C6 C1 1_555 1_555
C7 C2 1_555 1_555
H1 C7 1_555 1_555
H2 C7 1_555 1_555
H3 C7 1_555 1_555
C8 C3 1_555 1_555
H4 C8 1_555 1_555
H5 C8 1_555 1_555
N1 C8 1_555 1_555
N2 Co1 1_555 1_555
C9 N2 1_555 1_555
H6 C9 1_555 1_555
C10 C9 1_555 1_555
H7 C10 1_555 1_555
C11 N1 1_555 1_555
H8 C11 1_555 1_555
C12 C4 1_555 1_555
H9 C12 1_555 1_555
H10 C12 1_555 1_555
H11 C12 1_555 1_555
C13 C6 1_555 1_555
H12 C13 1_555 1_555
H13 C13 1_555 1_555
H14 C13 1_555 1_555
C14 C1 1_555 1_555
H15 C14 1_555 1_555
H16 C14 1_555 1_555
C15 C14 1_555 1_555
C16 C15 1_555 1_555
C17 C16 1_555 1_555
C18 C17 1_555 1_555
C19 C18 1_555 1_555
C20 C15 1_555 1_555
C21 C16 1_555 1_555
H17 C21 1_555 1_555
H18 C21 1_555 1_555
H19 C21 1_555 1_555
C22 C17 1_555 1_555
H20 C22 1_555 1_555
H21 C22 1_555 1_555
N3 C22 1_555 1_555
N4 N3 1_555 1_555
C23 N4 1_555 1_555
H22 C23 1_555 1_555
C24 C23 1_555 1_555
H23 C24 1_555 1_555
C25 N3 1_555 1_555
H24 C25 1_555 1_555
C26 C18 1_555 1_555
H25 C26 1_555 1_555
H26 C26 1_555 1_555
H27 C26 1_555 1_555
C27 C20 1_555 1_555
H28 C27 1_555 1_555
H29 C27 1_555 1_555
H30 C27 1_555 1_555
C28 C19 1_555 1_555
H31 C28 1_555 1_555
C29 C5 1_555 1_555
H32 C29 1_555 1_555
Co1B Cl1B 1_555 1_555
Co1C N4 1_555 1_555
Co1A N4B 1_555 1_555
Cl2B Co1B 1_555 1_555
C1B C2B 1_555 1_555
C2B C3B 1_555 1_555
C3B C4B 1_555 1_555
C4B C5B 1_555 1_555
C5B C29 1_555 1_555
C6B C1B 1_555 1_555
C7B C2B 1_555 1_555
H1B C7B 1_555 1_555
H2B C7B 1_555 1_555
H3B C7B 1_555 1_555
C8B C3B 1_555 1_555
H4B C8B 1_555 1_555
H5B C8B 1_555 1_555
N1B C8B 1_555 1_555
N2B Co1B 1_555 1_555
C9B N2B 1_555 1_555
H6B C9B 1_555 1_555
C10B C9B 1_555 1_555
H7B C10B 1_555 1_555
C11B N1B 1_555 1_555
H8B C11B 1_555 1_555
C12B C4B 1_555 1_555
H9B C12B 1_555 1_555
H10B C12B 1_555 1_555
H11B C12B 1_555 1_555
C13B C6B 1_555 1_555
H12B C13B 1_555 1_555
H13B C13B 1_555 1_555
H14B C13B 1_555 1_555
C14B C1B 1_555 1_555
H15B C14B 1_555 1_555
H16B C14B 1_555 1_555
C15B C14B 1_555 1_555
C16B C15B 1_555 1_555
C17B C16B 1_555 1_555
C18B C17B 1_555 1_555
C19B C28 1_555 1_555
C20B C15B 1_555 1_555
C21B C16B 1_555 1_555
H17B C21B 1_555 1_555
H18B C21B 1_555 1_555
H19B C21B 1_555 1_555
C22B C17B 1_555 1_555
H20B C22B 1_555 1_555
H21B C22B 1_555 1_555
N3B C22B 1_555 1_555
N4B N3B 1_555 1_555
N4C Co1 1_555 1_555
N4A Co1B 1_555 1_555
C23B N4B 1_555 1_555
H22B C23B 1_555 1_555
C24B C23B 1_555 1_555
H23B C24B 1_555 1_555
C25B N3B 1_555 1_555
H24B C25B 1_555 1_555
C26B C18B 1_555 1_555
H25B C26B 1_555 1_555
H26B C26B 1_555 1_555
H27B C26B 1_555 1_555
C27B C20B 1_555 1_555
H28B C27B 1_555 1_555
H29B C27B 1_555 1_555
H30B C27B 1_555 1_555
H31B C28 1_555 1_555
H32B C29 1_555 1_555
N1 N2 1_555 1_555
C10 C11 1_555 1_555
C19 C20 1_555 1_555
C24 C25 1_555 1_555
C5B C6B 1_555 1_555
N1B N2B 1_555 1_555
C10B C11B 1_555 1_555
C18B C19B 1_555 1_555
C19B C20B 1_555 1_555
C24B C25B 1_555 1_555

#END
