
#######################################################################
#
#                 Cambridge Crystallographic Data Centre
#                                CCDC 
#
#######################################################################
#
# If this CIF has been generated from an entry in the Cambridge 
# Structural Database, then it will include bibliographic, chemical, 
# crystal, experimental, refinement or atomic coordinate data resulting 
# from the CCDC's data processing and validation procedures.
#
#######################################################################

data_UHETEH
_symmetry_cell_setting           orthorhombic
_symmetry_space_group_name_H-M   'P b c n'
_symmetry_Int_Tables_number      60
_space_group_name_Hall           '-P 2n 2ab'
loop_
_symmetry_equiv_pos_site_id
_symmetry_equiv_pos_as_xyz
1 x,y,z
2 1/2-x,1/2-y,1/2+z
3 -x,y,1/2-z
4 1/2+x,1/2-y,-z
5 -x,-y,-z
6 1/2+x,1/2+y,1/2-z
7 x,-y,1/2+z
8 1/2-x,1/2+y,z
_cell_length_a                   26.4215(19)
_cell_length_b                   20.6802(16)
_cell_length_c                   16.0503(12)
_cell_angle_alpha                90
_cell_angle_beta                 90
_cell_angle_gamma                90
_cell_volume                     8769.91
loop_
_atom_site_label
_atom_site_type_symbol
_atom_site_fract_x
_atom_site_fract_y
_atom_site_fract_z
Zn1 Zn 0.205624(16) 0.07460(2) 0.35946(3)
Cl1 Cl 0.19951(4) 0.18112(5) 0.34481(8)
Cl2 Cl 0.22097(5) 0.01911(6) 0.24355(7)
C1 C 0.46472(13) 0.09638(15) 0.3071(2)
C2 C 0.41336(15) 0.07891(18) 0.3106(2)
C3 C 0.38081(14) 0.11374(18) 0.3631(2)
C4 C 0.39902(14) 0.16393(18) 0.4142(2)
C5 C 0.45064(14) 0.17828(17) 0.4126(2)
C6 C 0.48311(12) 0.14385(15) 0.3622(2)
C7 C 0.39353(17) 0.0219(2) 0.2604(3)
H1 H 0.3856 0.0362 0.2036
H2 H 0.3628 0.0049 0.2868
H3 H 0.4194 -0.0121 0.2584
C8 C 0.32428(15) 0.1023(2) 0.3641(3)
H4 H 0.3066 0.1445 0.3647
H5 H 0.3143 0.0793 0.3126
N1 N 0.30797(11) 0.06367(15) 0.4378(2)
N2 N 0.25796(11) 0.05013(14) 0.4459(2)
C9 C 0.25382(16) 0.01928(19) 0.5165(3)
H6 H 0.2229 0.0021 0.5372
C10 C 0.30049(18) 0.0145(3) 0.5584(4)
H7 H 0.3072 -0.0038 0.6115
C11 C 0.33398(18) 0.0427(2) 0.5036(3)
H8 H 0.3695 0.0465 0.5113
C12 C 0.36340(18) 0.1995(2) 0.4725(3)
H9 H 0.3656 0.2461 0.4619
H10 H 0.3730 0.1906 0.5304
H11 H 0.3286 0.1847 0.4629
C13 C 0.53987(13) 0.15675(17) 0.3654(2)
H12 H 0.5488 0.1890 0.3231
H13 H 0.5583 0.1165 0.3544
H14 H 0.5490 0.1731 0.4207
C14 C 0.47148(14) 0.22918(18) 0.4713(2)
H15 H 0.4928 0.2069 0.5132
H16 H 0.4425 0.2486 0.5016
C15 C 0.50278(13) 0.28451(15) 0.4342(2)
C16 C 0.54727(15) 0.30444(17) 0.4762(2)
C17 C 0.57660(13) 0.35382(16) 0.4409(2)
C18 C 0.56410(14) 0.38279(16) 0.3658(2)
C19 C 0.51776(14) 0.36514(15) 0.3263(2)
C20 C 0.48732(13) 0.31817(15) 0.3632(2)
C21 C 0.56106(18) 0.2752(2) 0.5606(3)
H17 H 0.5383 0.2391 0.5728
H18 H 0.5577 0.3082 0.6040
H19 H 0.5961 0.2596 0.5590
C22 C 0.62301(14) 0.37873(16) 0.4880(2)
H20 H 0.6354 0.3450 0.5267
H21 H 0.6504 0.3887 0.4480
N3 N 0.60960(11) 0.43735(15) 0.53512(18)
N4 N 0.64257(11) 0.46392(14) 0.58887(19)
C23 C 0.62155(15) 0.52013(19) 0.6125(2)
H22 H 0.6366 0.5505 0.6494
C24 C 0.57517(16) 0.5271(2) 0.5753(3)
H23 H 0.5520 0.5616 0.5840
C25 C 0.56863(15) 0.4776(2) 0.5255(3)
H24 H 0.5407 0.4707 0.4894
C26 C 0.59883(16) 0.43440(19) 0.3290(3)
H25 H 0.6237 0.4477 0.3709
H26 H 0.5786 0.4719 0.3121
H27 H 0.6164 0.4167 0.2803
C27 C 0.43524(14) 0.30509(16) 0.3269(2)
H28 H 0.4372 0.2687 0.2879
H29 H 0.4233 0.3437 0.2974
H30 H 0.4116 0.2945 0.3719
C28 C 0.5000 0.4026(2) 0.2500
H31 H 0.4719 0.4310 0.2678
C29 C 0.5000 0.0589(2) 0.2500
H32 H 0.4789 0.0305 0.2146
Zn1B Zn 0.794376(16) 0.07460(2) 0.14054(3)
Zn1C Zn 0.705624(16) 0.42540(2) 0.64054(3)
Zn1A Zn 0.294376(16) 0.42540(2) -0.14054(3)
Cl1B Cl 0.80049(4) 0.18112(5) 0.15519(8)
Cl2B Cl 0.77903(5) 0.01911(6) 0.25645(7)
C1B C 0.53528(13) 0.09638(15) 0.1929(2)
C2B C 0.58664(15) 0.07891(18) 0.1894(2)
C3B C 0.61919(14) 0.11374(18) 0.1369(2)
C4B C 0.60098(14) 0.16393(18) 0.0858(2)
C5B C 0.54936(14) 0.17828(17) 0.0874(2)
C6B C 0.51689(12) 0.14385(15) 0.1378(2)
C7B C 0.60647(17) 0.0219(2) 0.2396(3)
H1B H 0.6144 0.0362 0.2964
H2B H 0.6372 0.0049 0.2132
H3B H 0.5806 -0.0121 0.2416
C8B C 0.67572(15) 0.1023(2) 0.1359(3)
H4B H 0.6934 0.1445 0.1353
H5B H 0.6857 0.0793 0.1874
N1B N 0.69203(11) 0.06367(15) 0.0622(2)
N2B N 0.74204(11) 0.05013(14) 0.0541(2)
C9B C 0.74618(16) 0.01928(19) -0.0165(3)
H6B H 0.7771 0.0021 -0.0372
C10B C 0.69951(18) 0.0145(3) -0.0584(4)
H7B H 0.6928 -0.0038 -0.1115
C11B C 0.66602(18) 0.0427(2) -0.0036(3)
H8B H 0.6305 0.0465 -0.0113
C12B C 0.63660(18) 0.1995(2) 0.0275(3)
H9B H 0.6344 0.2461 0.0381
H10B H 0.6270 0.1906 -0.0304
H11B H 0.6714 0.1847 0.0371
C13B C 0.46013(13) 0.15675(17) 0.1346(2)
H12B H 0.4512 0.1890 0.1769
H13B H 0.4417 0.1165 0.1456
H14B H 0.4510 0.1731 0.0793
C14B C 0.52852(14) 0.22918(18) 0.0287(2)
H15B H 0.5072 0.2069 -0.0132
H16B H 0.5575 0.2486 -0.0016
C15B C 0.49722(13) 0.28451(15) 0.0658(2)
C16B C 0.45273(15) 0.30444(17) 0.0238(2)
C17B C 0.42340(13) 0.35382(16) 0.0591(2)
C18B C 0.43590(14) 0.38279(16) 0.1342(2)
C19B C 0.48224(14) 0.36514(15) 0.1737(2)
C20B C 0.51268(13) 0.31817(15) 0.1368(2)
C21B C 0.43894(18) 0.2752(2) -0.0606(3)
H17B H 0.4617 0.2391 -0.0728
H18B H 0.4423 0.3082 -0.1040
H19B H 0.4039 0.2596 -0.0590
C22B C 0.37699(14) 0.37873(16) 0.0120(2)
H20B H 0.3646 0.3450 -0.0267
H21B H 0.3496 0.3887 0.0520
N3B N 0.39040(11) 0.43735(15) -0.03512(18)
N4B N 0.35743(11) 0.46392(14) -0.08887(19)
N4C N 0.14257(11) 0.03608(14) 0.41113(19)
N4A N 0.85743(11) 0.03608(14) 0.08887(19)
C23B C 0.37845(15) 0.52013(19) -0.1125(2)
H22B H 0.3634 0.5505 -0.1494
C24B C 0.42483(16) 0.5271(2) -0.0753(3)
H23B H 0.4480 0.5616 -0.0840
C25B C 0.43137(15) 0.4776(2) -0.0255(3)
H24B H 0.4593 0.4707 0.0106
C26B C 0.40117(16) 0.43440(19) 0.1710(3)
H25B H 0.3763 0.4477 0.1291
H26B H 0.4214 0.4719 0.1879
H27B H 0.3836 0.4167 0.2197
C27B C 0.56476(14) 0.30509(16) 0.1731(2)
H28B H 0.5628 0.2687 0.2121
H29B H 0.5767 0.3437 0.2026
H30B H 0.5884 0.2945 0.1281
H31B H 0.5281 0.4310 0.2322
H32B H 0.5211 0.0305 0.2854
loop_
_geom_bond_atom_site_label_1
_geom_bond_atom_site_label_2
_geom_bond_site_symmetry_1
_geom_bond_site_symmetry_2
Zn1 Cl1 1_555 1_555
Cl2 Zn1 1_555 1_555
C1 C2 1_555 1_555
C2 C3 1_555 1_555
C3 C4 1_555 1_555
C4 C5 1_555 1_555
C5 C6 1_555 1_555
C6 C1 1_555 1_555
C7 C2 1_555 1_555
H1 C7 1_555 1_555
H2 C7 1_555 1_555
H3 C7 1_555 1_555
C8 C3 1_555 1_555
H4 C8 1_555 1_555
H5 C8 1_555 1_555
N1 C8 1_555 1_555
N2 Zn1 1_555 1_555
C9 N2 1_555 1_555
H6 C9 1_555 1_555
C10 C9 1_555 1_555
H7 C10 1_555 1_555
C11 N1 1_555 1_555
H8 C11 1_555 1_555
C12 C4 1_555 1_555
H9 C12 1_555 1_555
H10 C12 1_555 1_555
H11 C12 1_555 1_555
C13 C6 1_555 1_555
H12 C13 1_555 1_555
H13 C13 1_555 1_555
H14 C13 1_555 1_555
C14 C5 1_555 1_555
H15 C14 1_555 1_555
H16 C14 1_555 1_555
C15 C14 1_555 1_555
C16 C15 1_555 1_555
C17 C16 1_555 1_555
C18 C17 1_555 1_555
C19 C18 1_555 1_555
C20 C15 1_555 1_555
C21 C16 1_555 1_555
H17 C21 1_555 1_555
H18 C21 1_555 1_555
H19 C21 1_555 1_555
C22 C17 1_555 1_555
H20 C22 1_555 1_555
H21 C22 1_555 1_555
N3 C22 1_555 1_555
N4 N3 1_555 1_555
C23 N4 1_555 1_555
H22 C23 1_555 1_555
C24 C23 1_555 1_555
H23 C24 1_555 1_555
C25 N3 1_555 1_555
H24 C25 1_555 1_555
C26 C18 1_555 1_555
H25 C26 1_555 1_555
H26 C26 1_555 1_555
H27 C26 1_555 1_555
C27 C20 1_555 1_555
H28 C27 1_555 1_555
H29 C27 1_555 1_555
H30 C27 1_555 1_555
C28 C19 1_555 1_555
H31 C28 1_555 1_555
C29 C1 1_555 1_555
H32 C29 1_555 1_555
Zn1B Cl1B 1_555 1_555
Zn1C N4 1_555 1_555
Zn1A N4B 1_555 1_555
Cl2B Zn1B 1_555 1_555
C1B C29 1_555 1_555
C2B C1B 1_555 1_555
C3B C2B 1_555 1_555
C4B C3B 1_555 1_555
C5B C4B 1_555 1_555
C6B C1B 1_555 1_555
C7B C2B 1_555 1_555
H1B C7B 1_555 1_555
H2B C7B 1_555 1_555
H3B C7B 1_555 1_555
C8B C3B 1_555 1_555
H4B C8B 1_555 1_555
H5B C8B 1_555 1_555
N1B C8B 1_555 1_555
N2B Zn1B 1_555 1_555
C9B N2B 1_555 1_555
H6B C9B 1_555 1_555
C10B C9B 1_555 1_555
H7B C10B 1_555 1_555
C11B N1B 1_555 1_555
H8B C11B 1_555 1_555
C12B C4B 1_555 1_555
H9B C12B 1_555 1_555
H10B C12B 1_555 1_555
H11B C12B 1_555 1_555
C13B C6B 1_555 1_555
H12B C13B 1_555 1_555
H13B C13B 1_555 1_555
H14B C13B 1_555 1_555
C14B C5B 1_555 1_555
H15B C14B 1_555 1_555
H16B C14B 1_555 1_555
C15B C14B 1_555 1_555
C16B C15B 1_555 1_555
C17B C16B 1_555 1_555
C18B C17B 1_555 1_555
C19B C28 1_555 1_555
C20B C15B 1_555 1_555
C21B C16B 1_555 1_555
H17B C21B 1_555 1_555
H18B C21B 1_555 1_555
H19B C21B 1_555 1_555
C22B C17B 1_555 1_555
H20B C22B 1_555 1_555
H21B C22B 1_555 1_555
N3B C22B 1_555 1_555
N4B N3B 1_555 1_555
N4C Zn1 1_555 1_555
N4A Zn1B 1_555 1_555
C23B N4B 1_555 1_555
H22B C23B 1_555 1_555
C24B C23B 1_555 1_555
H23B C24B 1_555 1_555
C25B N3B 1_555 1_555
H24B C25B 1_555 1_555
C26B C18B 1_555 1_555
H25B C26B 1_555 1_555
H26B C26B 1_555 1_555
H27B C26B 1_555 1_555
C27B C20B 1_555 1_555
H28B C27B 1_555 1_555
H29B C27B 1_555 1_555
H30B C27B 1_555 1_555
H31B C28 1_555 1_555
H32B C29 1_555 1_555
N1 N2 1_555 1_555
C10 C11 1_555 1_555
C19 C20 1_555 1_555
C24 C25 1_555 1_555
C5B C6B 1_555 1_555
N1B N2B 1_555 1_555
C10B C11B 1_555 1_555
C18B C19B 1_555 1_555
C19B C20B 1_555 1_555
C24B C25B 1_555 1_555

#END
