
#######################################################################
#
#                 Cambridge Crystallographic Data Centre
#                                CCDC 
#
#######################################################################
#
# If this CIF has been generated from an entry in the Cambridge 
# Structural Database, then it will include bibliographic, chemical, 
# crystal, experimental, refinement or atomic coordinate data resulting 
# from the CCDC's data processing and validation procedures.
#
#######################################################################

data_UHEWEK
_symmetry_cell_setting           monoclinic
_symmetry_space_group_name_H-M   'C 2/c'
_symmetry_Int_Tables_number      15
_space_group_name_Hall           '-C 2yn'
loop_
_symmetry_equiv_pos_site_id
_symmetry_equiv_pos_as_xyz
1 x,y,z
2 -x,y,1/2-z
3 1/2+x,1/2+y,z
4 1/2-x,1/2+y,1/2-z
5 -x,-y,-z
6 x,-y,1/2+z
7 1/2-x,1/2-y,-z
8 1/2+x,1/2-y,1/2+z
_cell_length_a                   25.244(3)
_cell_length_b                   10.7134(13)
_cell_length_c                   18.651(2)
_cell_angle_alpha                90
_cell_angle_beta                 122.111(2)
_cell_angle_gamma                90
_cell_volume                     4272.49
loop_
_atom_site_label
_atom_site_type_symbol
_atom_site_fract_x
_atom_site_fract_y
_atom_site_fract_z
Ce1 Ce 0.5000 0.10346(3) 0.7500
Ag1 Ag 0.699120(17) 0.29880(4) 0.88235(2)
N1 N 0.5000 0.3397(4) 0.7500
N2 N 0.54139(13) -0.0035(3) 0.89072(18)
C1 C 0.59480(17) 0.0352(4) 0.9590(2)
O1 O 0.43918(11) -0.0595(2) 0.75199(17)
O2 O 0.45629(12) 0.2012(2) 0.81897(17)
N3 N 0.73342(15) 0.1544(3) 0.8353(2)
O3 O 0.59937(11) 0.1694(2) 0.86273(16)
C2 C 0.44735(18) -0.1221(3) 0.8160(3)
C3 C 0.47512(16) 0.4020(4) 0.7866(2)
O4 O 0.42377(16) 0.3637(3) 0.8604(2)
C4 C 0.44883(18) 0.3191(4) 0.8257(3)
C5 C 0.50691(17) -0.0907(3) 0.8985(2)
N4 N 0.67468(17) 0.4812(4) 0.9072(2)
O5 O 0.67964(14) 0.1707(3) 0.99562(19)
O6 O 0.41171(14) -0.2001(3) 0.8153(2)
C6 C 0.5804(2) -0.1037(5) 1.0463(3)
H1 H 0.5934 -0.1372 1.0992
C7 C 0.62837(18) 0.1322(4) 0.9399(3)
C8 C 0.78968(19) 0.1617(4) 0.8451(3)
H2 H 0.8124 0.2352 0.8669
C9 C 0.5259(2) -0.1439(4) 0.9758(3)
H3 H 0.5020 -0.2062 0.9802
C10 C 0.6477(2) 0.4919(5) 0.9511(3)
H4 H 0.6376 0.4198 0.9690
C11 C 0.6157(2) -0.0138(4) 1.0382(3)
H5 H 0.6530 0.0136 1.0853
C12 C 0.8158(2) 0.0673(5) 0.8248(3)
H6 H 0.8551 0.0764 0.8324
C13 C 0.7016(2) 0.0490(5) 0.8029(3)
H7 H 0.6621 0.0422 0.7948
C14 C 0.7242(2) -0.0500(4) 0.7808(3)
H8 H 0.7004 -0.1220 0.7581
C15 C 0.7825(2) -0.0415(5) 0.7927(3)
H9 H 0.7993 -0.1082 0.7794
C16 C 0.5000 0.5957(6) 0.7500
H10 H 0.5000 0.6825 0.7500
C17 C 0.47422(19) 0.5315(4) 0.7881(3)
H11 H 0.4567 0.5736 0.8142
C18 C 0.6872(3) 0.5855(6) 0.8813(4)
H12 H 0.7062 0.5797 0.8503
C19 C 0.6738(4) 0.7015(6) 0.8978(5)
H13 H 0.6827 0.7726 0.8775
C20 C 0.6473(3) 0.7108(6) 0.9440(4)
H14 H 0.6382 0.7887 0.9568
C21 C 0.6341(3) 0.6055(6) 0.9714(4)
H15 H 0.6160 0.6100 1.0037
Ag1A Ag 0.300880(17) 0.29880(4) 0.61765(2)
Ag1F Ag 0.800880(17) 0.20120(4) 1.11765(2)
Ag1G Ag 0.199120(17) 0.20120(4) 0.38235(2)
N2A N 0.45861(13) -0.0035(3) 0.60928(18)
C1A C 0.40520(17) 0.0352(4) 0.5410(2)
O1A O 0.56082(11) -0.0595(2) 0.74801(17)
O2A O 0.54371(12) 0.2012(2) 0.68103(17)
N3A N 0.26658(15) 0.1544(3) 0.6647(2)
O3A O 0.40063(11) 0.1694(2) 0.63727(16)
C2A C 0.55265(18) -0.1221(3) 0.6840(3)
C3A C 0.52488(16) 0.4020(4) 0.7134(2)
O4A O 0.57623(16) 0.3637(3) 0.6396(2)
C4A C 0.55117(18) 0.3191(4) 0.6743(3)
C5A C 0.49309(17) -0.0907(3) 0.6015(2)
N4A N 0.32532(17) 0.4812(4) 0.5928(2)
O5A O 0.32036(14) 0.1707(3) 0.50438(19)
O5F O 0.82036(14) 0.3293(3) 1.00438(19)
O5G O 0.17964(14) 0.3293(3) 0.49562(19)
O6A O 0.58829(14) -0.2001(3) 0.6847(2)
C6A C 0.4196(2) -0.1037(5) 0.4537(3)
H1A H 0.4066 -0.1372 0.4008
C7A C 0.37163(18) 0.1322(4) 0.5601(3)
C8A C 0.21032(19) 0.1617(4) 0.6549(3)
H2A H 0.1876 0.2352 0.6331
C9A C 0.4741(2) -0.1439(4) 0.5242(3)
H3A H 0.4980 -0.2062 0.5198
C10A C 0.3523(2) 0.4919(5) 0.5489(3)
H4A H 0.3624 0.4198 0.5310
C11A C 0.3843(2) -0.0138(4) 0.4618(3)
H5A H 0.3470 0.0136 0.4147
C12A C 0.1842(2) 0.0673(5) 0.6752(3)
H6A H 0.1449 0.0764 0.6676
C13A C 0.2984(2) 0.0490(5) 0.6971(3)
H7A H 0.3379 0.0422 0.7052
C14A C 0.2758(2) -0.0500(4) 0.7192(3)
H8A H 0.2996 -0.1220 0.7419
C15A C 0.2175(2) -0.0415(5) 0.7073(3)
H9A H 0.2007 -0.1082 0.7206
C17A C 0.52578(19) 0.5315(4) 0.7119(3)
H11A H 0.5433 0.5736 0.6858
C18A C 0.3128(3) 0.5855(6) 0.6187(4)
H12A H 0.2938 0.5797 0.6497
C19A C 0.3262(4) 0.7015(6) 0.6022(5)
H13A H 0.3173 0.7726 0.6225
C20A C 0.3527(3) 0.7108(6) 0.5560(4)
H14A H 0.3618 0.7887 0.5432
C21A C 0.3659(3) 0.6055(6) 0.5286(4)
H15A H 0.3840 0.6100 0.4963
O7 O 0.4699(6) 0.4457(13) 0.4906(8)
loop_
_geom_bond_atom_site_label_1
_geom_bond_atom_site_label_2
_geom_bond_site_symmetry_1
_geom_bond_site_symmetry_2
Ce1 N1 1_555 1_555
Ag1 N3 1_555 1_555
N1 C3 1_555 1_555
N2 Ce1 1_555 1_555
C1 N2 1_555 1_555
O1 Ce1 1_555 1_555
O2 Ce1 1_555 1_555
N3 C8 1_555 1_555
O3 Ce1 1_555 1_555
C2 O1 1_555 1_555
C3 C4 1_555 1_555
O4 C4 1_555 1_555
C4 O2 1_555 1_555
C5 N2 1_555 1_555
N4 Ag1 1_555 1_555
O5 Ag1 1_555 1_555
O6 C2 1_555 1_555
C6 H1 1_555 1_555
C7 C1 1_555 1_555
C8 H2 1_555 1_555
C9 C5 1_555 1_555
H3 C9 1_555 1_555
C10 N4 1_555 1_555
H4 C10 1_555 1_555
C11 C1 1_555 1_555
H5 C11 1_555 1_555
C12 C8 1_555 1_555
H6 C12 1_555 1_555
C13 N3 1_555 1_555
H7 C13 1_555 1_555
C14 C13 1_555 1_555
H8 C14 1_555 1_555
C15 C12 1_555 1_555
H9 C15 1_555 1_555
C16 H10 1_555 1_555
C17 C3 1_555 1_555
H11 C17 1_555 1_555
C18 N4 1_555 1_555
H12 C18 1_555 1_555
C19 C18 1_555 1_555
H13 C19 1_555 1_555
C20 C19 1_555 1_555
H14 C20 1_555 1_555
C21 C10 1_555 1_555
H15 C21 1_555 1_555
Ag1A N3A 1_555 1_555
Ag1F O5 1_555 1_555
Ag1G O5A 1_555 1_555
N2A Ce1 1_555 1_555
C1A N2A 1_555 1_555
O1A Ce1 1_555 1_555
O2A Ce1 1_555 1_555
N3A C8A 1_555 1_555
O3A Ce1 1_555 1_555
C2A O1A 1_555 1_555
C3A N1 1_555 1_555
O4A C4A 1_555 1_555
C4A O2A 1_555 1_555
C5A N2A 1_555 1_555
N4A Ag1A 1_555 1_555
O5A Ag1A 1_555 1_555
O5F Ag1 1_555 1_555
O5G Ag1A 1_555 1_555
O6A C2A 1_555 1_555
C6A H1A 1_555 1_555
C7A C1A 1_555 1_555
C8A H2A 1_555 1_555
C9A C5A 1_555 1_555
H3A C9A 1_555 1_555
C10A N4A 1_555 1_555
H4A C10A 1_555 1_555
C11A C1A 1_555 1_555
H5A C11A 1_555 1_555
C12A C8A 1_555 1_555
H6A C12A 1_555 1_555
C13A N3A 1_555 1_555
H7A C13A 1_555 1_555
C14A C13A 1_555 1_555
H8A C14A 1_555 1_555
C15A C12A 1_555 1_555
H9A C15A 1_555 1_555
C17A C16 1_555 1_555
H11A C17A 1_555 1_555
C18A N4A 1_555 1_555
H12A C18A 1_555 1_555
C19A C18A 1_555 1_555
H13A C19A 1_555 1_555
C20A C19A 1_555 1_555
H14A C20A 1_555 1_555
C21A C10A 1_555 1_555
H15A C21A 1_555 1_555
Ag1 O3 1_555 1_555
O3 C7 1_555 1_555
C2 C5 1_555 1_555
O5 C7 1_555 1_555
C6 C9 1_555 1_555
C6 C11 1_555 1_555
C14 C15 1_555 1_555
C16 C17 1_555 1_555
C20 C21 1_555 1_555
Ag1A O3A 1_555 1_555
Ag1F O5F 1_555 1_555
Ag1G O5G 1_555 1_555
O3A C7A 1_555 1_555
C2A C5A 1_555 1_555
C3A C4A 1_555 1_555
C3A C17A 1_555 1_555
O5A C7A 1_555 1_555
C6A C9A 1_555 1_555
C6A C11A 1_555 1_555
C14A C15A 1_555 1_555
C20A C21A 1_555 1_555

#END
