
#######################################################################
#
#                 Cambridge Crystallographic Data Centre
#                                CCDC 
#
#######################################################################
#
# If this CIF has been generated from an entry in the Cambridge 
# Structural Database, then it will include bibliographic, chemical, 
# crystal, experimental, refinement or atomic coordinate data resulting 
# from the CCDC's data processing and validation procedures.
#
#######################################################################

data_UHEWUZ
_symmetry_cell_setting           monoclinic
_symmetry_space_group_name_H-M   'P 21/c'
_symmetry_Int_Tables_number      14
_space_group_name_Hall           '-P 2ybc'
loop_
_symmetry_equiv_pos_site_id
_symmetry_equiv_pos_as_xyz
1 x,y,z
2 x,1/2-y,1/2+z
3 -x,-y,-z
4 -x,1/2+y,1/2-z
_cell_length_a                   8.3023(4)
_cell_length_b                   15.5573(8)
_cell_length_c                   7.3435(4)
_cell_angle_alpha                90
_cell_angle_beta                 94.351(1)
_cell_angle_gamma                90
_cell_volume                     945.763
loop_
_atom_site_label
_atom_site_type_symbol
_atom_site_fract_x
_atom_site_fract_y
_atom_site_fract_z
Zn1 Zn 0.25429(3) 0.504836(15) 0.23252(3)
O1 O 0.0330(2) 0.43141(10) 0.2184(2)
O2 O 0.25996(19) 0.36013(12) 0.2102(3)
O3 O 0.50086(19) 0.51807(11) 0.2651(2)
O4 O 0.7065(2) 0.51041(11) 0.4784(2)
O5 O 0.2607(2) 0.52344(13) -0.0417(2)
H1 H 0.3466 0.5025 -0.1079
H2 H 0.1641 0.5335 -0.1164
N1 N -0.1430(2) 0.12246(12) 0.2357(2)
C1 C -0.2166(3) 0.19702(16) 0.2713(3)
H7 H -0.3237 0.1955 0.3045
C2 C -0.1410(3) 0.27543(14) 0.2611(3)
H8 H -0.1967 0.3265 0.2833
C3 C 0.0186(3) 0.27802(14) 0.2175(3)
C4 C 0.0948(3) 0.20108(15) 0.1815(3)
H9 H 0.2030 0.2007 0.1521
C5 C 0.0098(3) 0.12543(15) 0.1894(3)
H10 H 0.0611 0.0738 0.1612
C6 C 0.1093(3) 0.36150(15) 0.2140(3)
C7 C 0.5607(3) 0.50835(13) 0.4266(3)
C7B C 0.4393(3) 0.49165(13) 0.5734(3)
O3B O 0.49914(19) 0.48193(11) 0.7349(2)
O4B O 0.2935(2) 0.48959(11) 0.5216(2)
O1C O -0.0330(2) 0.93141(10) 0.2816(2)
O2C O -0.25996(19) 0.86013(12) 0.2898(3)
N1C N 0.1430(2) 0.62246(12) 0.2643(2)
C1C C 0.2166(3) 0.69702(16) 0.2287(3)
H7C H 0.3237 0.6955 0.1955
C2C C 0.1410(3) 0.77543(14) 0.2389(3)
H8C H 0.1967 0.8265 0.2167
C3C C -0.0186(3) 0.77802(14) 0.2825(3)
C4C C -0.0948(3) 0.70108(15) 0.3185(3)
H9C H -0.2030 0.7007 0.3479
C5C C -0.0098(3) 0.62543(15) 0.3106(3)
H10C H -0.0611 0.5738 0.3388
C6C C -0.1093(3) 0.86150(15) 0.2860(3)
Zn1C Zn -0.25429(3) 1.004836(15) 0.26748(3)
O5C O -0.2607(2) 1.02344(13) 0.5417(2)
H1C H -0.3466 1.0025 0.6079
H2C H -0.1641 1.0335 0.6164
Zn1B Zn 0.74571(3) 0.495164(15) 0.76748(3)
Zn1C_2 Zn -0.25429(3) 0.004836(15) 0.26748(3)
O3C O -0.50086(19) 1.01807(11) 0.2349(2)
O4A O -0.2935(2) 0.98959(11) -0.0216(2)
N1_2 N -0.1430(2) 1.12246(12) 0.2357(2)
O6 O 0.5376(7) 0.7473(4) 0.5246(8)
H3 H 0.5803 0.7319 0.6438
H4 H 0.5913 0.7949 0.4754
O7? O 0.5192(13) 0.7168(9) 0.5195(16)
H5? H 0.5998 0.6944 0.6054
H6? H 0.5625 0.7460 0.4207
loop_
_geom_bond_atom_site_label_1
_geom_bond_atom_site_label_2
_geom_bond_site_symmetry_1
_geom_bond_site_symmetry_2
Zn1 O1 1_555 1_555
O1 C6 1_555 1_555
O2 Zn1 1_555 1_555
O3 Zn1 1_555 1_555
O4 C7 1_555 1_555
O5 Zn1 1_555 1_555
H1 O5 1_555 1_555
H2 O5 1_555 1_555
O6 H3 1_555 1_555
H4 O6 1_555 1_555
N1 C1 1_555 1_555
C1 H7 1_555 1_555
C2 C1 1_555 1_555
H8 C2 1_555 1_555
C3 C2 1_555 1_555
C4 C3 1_555 1_555
H9 C4 1_555 1_555
C5 N1 1_555 1_555
H10 C5 1_555 1_555
C6 O2 1_555 1_555
C7 O3 1_555 1_555
C7B C7 1_555 1_555
O3B C7B 1_555 1_555
O4B Zn1 1_555 1_555
O1C C6C 1_555 1_555
O2C C6C 1_555 1_555
N1C Zn1 1_555 1_555
C1C N1C 1_555 1_555
H7C C1C 1_555 1_555
C2C C1C 1_555 1_555
H8C C2C 1_555 1_555
C3C C2C 1_555 1_555
C4C C3C 1_555 1_555
H9C C4C 1_555 1_555
C5C N1C 1_555 1_555
H10C C5C 1_555 1_555
C6C C3C 1_555 1_555
Zn1C O1C 1_555 1_555
O5C Zn1C 1_555 1_555
H1C O5C 1_555 1_555
H2C O5C 1_555 1_555
Zn1B O4 1_555 1_555
Zn1C_2 N1 1_555 1_555
O3C Zn1C 1_555 1_555
O4A Zn1C 1_555 1_555
N1_2 Zn1C 1_555 1_555
C3 C6 1_555 1_555
C4 C5 1_555 1_555
C7B O4B 1_555 1_555
O3B Zn1B 1_555 1_555
O2C Zn1C 1_555 1_555
C4C C5C 1_555 1_555

#END
