
#######################################################################
#
#                 Cambridge Crystallographic Data Centre
#                                CCDC 
#
#######################################################################
#
# If this CIF has been generated from an entry in the Cambridge 
# Structural Database, then it will include bibliographic, chemical, 
# crystal, experimental, refinement or atomic coordinate data resulting 
# from the CCDC's data processing and validation procedures.
#
#######################################################################

data_UHEWIO
_symmetry_cell_setting           monoclinic
_symmetry_space_group_name_H-M   'P 21/c'
_symmetry_Int_Tables_number      14
_space_group_name_Hall           '-P 2ybc'
loop_
_symmetry_equiv_pos_site_id
_symmetry_equiv_pos_as_xyz
1 x,y,z
2 -x,1/2+y,1/2-z
3 -x,-y,-z
4 x,1/2-y,1/2+z
_cell_length_a                   14.8009(16)
_cell_length_b                   10.7176(11)
_cell_length_c                   12.8757(14)
_cell_angle_alpha                90
_cell_angle_beta                 99.468(2)
_cell_angle_gamma                90
_cell_volume                     2014.65
loop_
_atom_site_label
_atom_site_type_symbol
_atom_site_fract_x
_atom_site_fract_y
_atom_site_fract_z
Pr1 Pr 0.277788(15) 0.80542(2) 0.646194(16)
Ag1 Ag 0.37925(4) 0.27323(5) 0.62302(5)
O1 O 0.1603(2) 0.9354(3) 0.7175(2)
O2 O 0.0695(3) 1.1035(3) 0.7116(3)
O3 O 0.2825(2) 0.7895(3) 0.4507(2)
O4 O 0.2299(2) 0.8356(3) 0.2824(2)
O5 O 0.3498(2) 0.5973(3) 0.6280(3)
O6 O 0.4673(2) 0.4688(3) 0.6237(3)
O7 O 0.3569(2) 1.0074(3) 0.6289(2)
O8 O 0.4831(3) 1.1227(3) 0.6305(3)
O9 O 0.3628(2) 0.8619(3) 0.8246(2)
H1 H 0.3532 0.8165 0.8758
H2 H 0.4167 0.8909 0.8273
O10 O 0.1408(2) 0.6837(3) 0.5657(3)
H3 H 0.1278 0.6974 0.4992
H4 H 0.1246 0.6319 0.5967
O11 O 0.2494(4) 0.3813(4) 0.6229(5)
H5 H 0.2195 0.3831 0.5634
H6 H 0.2335 0.4154 0.6769
N1 N 0.1741(2) 0.9557(3) 0.5173(3)
N2 N 0.4503(3) 0.7971(3) 0.6267(3)
C1 C 0.1175(3) 1.0279(4) 0.6707(3)
C2 C 0.1251(3) 1.0438(4) 0.5562(3)
C3 C 0.0847(3) 1.1416(5) 0.4948(4)
H7 H 0.0525 1.2035 0.5238
C4 C 0.0936(4) 1.1450(5) 0.3898(4)
H8 H 0.0670 1.2097 0.3472
C5 C 0.1420(3) 1.0524(4) 0.3477(3)
H9 H 0.1482 1.0530 0.2770
C6 C 0.1809(3) 0.9587(4) 0.4151(3)
C7 C 0.2354(3) 0.8523(4) 0.3788(3)
C8 C 0.4329(3) 0.5757(4) 0.6250(3)
C9 C 0.4941(3) 0.6879(4) 0.6239(4)
C10 C 0.5862(4) 0.6810(5) 0.6223(4)
H10 H 0.6148 0.6041 0.6192
C11 C 0.6362(4) 0.7914(5) 0.6253(5)
H11 H 0.6990 0.7894 0.6251
C12 C 0.5914(4) 0.9036(5) 0.6286(4)
H12 H 0.6234 0.9785 0.6313
C13 C 0.4980(3) 0.9029(4) 0.6279(3)
C14 C 0.4423(3) 1.0205(4) 0.6290(3)
Pr1C Pr 0.277788(15) 0.69458(2) 0.146194(16)
Ag1_2 Ag 0.37925(4) 1.27323(5) 0.62302(5)
O4C O 0.2299(2) 0.6644(3) 0.7824(2)
O7_2 O 0.3569(2) 0.0074(3) 0.6289(2)
O8_2 O 0.4831(3) 0.1227(3) 0.6305(3)
O12 O 0.0546(2) 0.7007(3) 0.3541(3)
H13 H 0.0785 0.6660 0.3057
H14 H 0.0381 0.7763 0.3441
O13 O 0.2111(6) 0.0568(9) 0.9215(6)
H15 H 0.2222 0.1133 0.8804
H16 H 0.2235 0.0714 0.9874
O14 O 0.9963(4) 1.0452(5) 0.8833(4)
O15? O 0.9231(11) 0.9502(14) 0.9148(10)
loop_
_geom_bond_atom_site_label_1
_geom_bond_atom_site_label_2
_geom_bond_site_symmetry_1
_geom_bond_site_symmetry_2
Pr1 O1 1_555 1_555
Ag1 O6 1_555 1_555
O1 C1 1_555 1_555
O2 C1 1_555 1_555
O3 Pr1 1_555 1_555
O4 C7 1_555 1_555
O5 Pr1 1_555 1_555
O6 C8 1_555 1_555
O7 Pr1 1_555 1_555
O8 C14 1_555 1_555
O9 Pr1 1_555 1_555
H1 O9 1_555 1_555
H2 O9 1_555 1_555
O10 Pr1 1_555 1_555
H3 O10 1_555 1_555
H4 O10 1_555 1_555
O11 Ag1 1_555 1_555
H5 O11 1_555 1_555
H6 O11 1_555 1_555
N1 Pr1 1_555 1_555
N2 Pr1 1_555 1_555
C1 C2 1_555 1_555
C2 N1 1_555 1_555
C3 C2 1_555 1_555
H7 C3 1_555 1_555
C4 C3 1_555 1_555
H8 C4 1_555 1_555
C5 C4 1_555 1_555
H9 C5 1_555 1_555
C6 N1 1_555 1_555
C7 O3 1_555 1_555
C8 O5 1_555 1_555
C9 N2 1_555 1_555
C10 C9 1_555 1_555
H10 C10 1_555 1_555
C11 C10 1_555 1_555
H11 C11 1_555 1_555
C12 C11 1_555 1_555
H12 C12 1_555 1_555
C13 N2 1_555 1_555
C14 O7 1_555 1_555
O12 H13 1_555 1_555
H14 O12 1_555 1_555
O13 H15 1_555 1_555
H16 O13 1_555 1_555
Pr1C O4 1_555 1_555
Ag1_2 O7 1_555 1_555
O4C Pr1 1_555 1_555
O7_2 Ag1 1_555 1_555
O8_2 Ag1 1_555 1_555
O8 Ag1_2 1_555 1_555
C5 C6 1_555 1_555
C6 C7 1_555 1_555
C8 C9 1_555 1_555
C12 C13 1_555 1_555
C13 C14 1_555 1_555

#END
