
#######################################################################
#
#                 Cambridge Crystallographic Data Centre
#                                CCDC 
#
#######################################################################
#
# If this CIF has been generated from an entry in the Cambridge 
# Structural Database, then it will include bibliographic, chemical, 
# crystal, experimental, refinement or atomic coordinate data resulting 
# from the CCDC's data processing and validation procedures.
#
#######################################################################

data_UHEWOU
_symmetry_cell_setting           monoclinic
_symmetry_space_group_name_H-M   'P 21/n'
_symmetry_Int_Tables_number      14
_space_group_name_Hall           '-P 2yn'
loop_
_symmetry_equiv_pos_site_id
_symmetry_equiv_pos_as_xyz
1 x,y,z
2 1/2-x,1/2+y,1/2-z
3 -x,-y,-z
4 1/2+x,1/2-y,1/2+z
_cell_length_a                   14.621(2)
_cell_length_b                   7.3491(10)
_cell_length_c                   19.765(3)
_cell_angle_alpha                90
_cell_angle_beta                 98.776(2)
_cell_angle_gamma                90
_cell_volume                     2098.91
loop_
_atom_site_label
_atom_site_type_symbol
_atom_site_fract_x
_atom_site_fract_y
_atom_site_fract_z
Sm1 Sm 0.29579(4) 0.45879(7) 0.13841(3)
Ag1 Ag 0.37926(11) -0.0024(2) 0.00728(12)
O1 O 0.1969(6) 0.7274(11) 0.1381(4)
O2 O 0.0954(7) 0.9301(12) 0.0864(5)
O3 O 0.2936(6) 0.2450(12) 0.0427(4)
O4 O 0.2371(8) 0.1269(14) -0.0569(5)
O5 O 0.3693(6) 0.6740(12) 0.0682(4)
O6 O 0.4945(7) 0.8029(13) 0.0379(6)
O7 O 0.3676(5) 0.1820(11) 0.1936(4)
O8 O 0.4831(6) -0.0184(12) 0.2148(6)
O9 O 0.1621(6) 0.2546(11) 0.1446(4)
H1 H 0.158(9) 0.145(5) 0.131(5)
H2 H 0.133(8) 0.333(10) 0.118(5)
O10 O 0.2473(6) 0.4511(11) 0.2515(4)
H3 H 0.2132 0.5334 0.2648
H4 H 0.2773 0.3842 0.2824
O11 O 0.3962(6) 0.6575(11) 0.2201(4)
H5 H 0.4080 0.7679 0.2115
H6 H 0.4398 0.5976 0.2439
N1 N 0.1782(6) 0.5181(12) 0.0294(5)
N2 N 0.4643(6) 0.3972(13) 0.1265(5)
C1 C 0.1404(8) 0.7865(16) 0.0883(6)
C2 C 0.1262(8) 0.6675(15) 0.0247(6)
C3 C 0.0642(9) 0.7082(18) -0.0329(6)
H7 H 0.0282 0.8128 -0.0347
C4 C 0.0564(10) 0.590(2) -0.0883(7)
H8 H 0.0160 0.6161 -0.1283
C5 C 0.1098(9) 0.4331(19) -0.0834(7)
H9 H 0.1047 0.3504 -0.1194
C6 C 0.1710(8) 0.4024(16) -0.0233(6)
C7 C 0.2369(9) 0.2461(16) -0.0124(6)
C8 C 0.4552(9) 0.6770(16) 0.0652(6)
C9 C 0.5123(9) 0.5183(16) 0.0953(6)
C10 C 0.6034(10) 0.4953(19) 0.0900(8)
H10 H 0.6345 0.5813 0.0676
C11 C 0.6488(10) 0.343(2) 0.1184(9)
H11 H 0.7113 0.3263 0.1163
C12 C 0.5999(9) 0.215(2) 0.1503(8)
H12 H 0.6285 0.1097 0.1687
C13 C 0.5082(8) 0.2485(16) 0.1540(6)
C14 C 0.4488(8) 0.1253(16) 0.1906(6)
Ag1_2 Ag 0.37926(11) 0.9976(2) 0.00728(12)
Ag1B Ag 0.62074(11) 1.0024(2) -0.00728(12)
O5_2 O 0.3693(6) -0.3260(12) 0.0682(4)
O6_2 O 0.4945(7) -0.1971(13) 0.0379(6)
O6B O 0.5055(7) 0.1971(13) -0.0379(6)
O12 O 0.8035(8) 0.9665(16) 0.1914(6)
H13 H 0.7789 0.9942 0.1461
H14 H 0.8268 0.8504 0.2023
O13 O 0.9914(8) 0.9464(17) 0.1980(7)
H15 H 0.9997 0.9413 0.1544
H16 H 0.9523 1.0394 0.2123
O14 O 0.8358(10) 0.326(2) 0.2452(7)
H17 H 0.8843 0.2840 0.2716
H18 H 0.8156 0.2627 0.2093
loop_
_geom_bond_atom_site_label_1
_geom_bond_atom_site_label_2
_geom_bond_site_symmetry_1
_geom_bond_site_symmetry_2
Sm1 O1 1_555 1_555
Ag1 O3 1_555 1_555
O1 C1 1_555 1_555
O2 C1 1_555 1_555
O3 Sm1 1_555 1_555
O4 Ag1 1_555 1_555
O5 Sm1 1_555 1_555
O6 C8 1_555 1_555
O7 Sm1 1_555 1_555
O8 C14 1_555 1_555
O9 Sm1 1_555 1_555
H1 O9 1_555 1_555
H2 O9 1_555 1_555
O10 Sm1 1_555 1_555
H3 O10 1_555 1_555
H4 O10 1_555 1_555
O11 Sm1 1_555 1_555
H5 O11 1_555 1_555
H6 O11 1_555 1_555
N1 Sm1 1_555 1_555
N2 Sm1 1_555 1_555
C1 C2 1_555 1_555
C2 N1 1_555 1_555
C3 C2 1_555 1_555
H7 C3 1_555 1_555
C4 C3 1_555 1_555
H8 C4 1_555 1_555
C5 C4 1_555 1_555
H9 C5 1_555 1_555
C6 N1 1_555 1_555
C7 O3 1_555 1_555
C8 O5 1_555 1_555
C9 N2 1_555 1_555
C10 C9 1_555 1_555
H10 C10 1_555 1_555
C11 C10 1_555 1_555
H11 C11 1_555 1_555
C12 C11 1_555 1_555
H12 C12 1_555 1_555
C13 N2 1_555 1_555
C14 O7 1_555 1_555
O12 H13 1_555 1_555
H14 O12 1_555 1_555
O13 H15 1_555 1_555
H16 O13 1_555 1_555
O14 H17 1_555 1_555
H18 O14 1_555 1_555
Ag1_2 O5 1_555 1_555
Ag1B O6 1_555 1_555
O5_2 Ag1 1_555 1_555
O6_2 Ag1 1_555 1_555
O6B Ag1 1_555 1_555
O4 C7 1_555 1_555
O6 Ag1_2 1_555 1_555
C5 C6 1_555 1_555
C6 C7 1_555 1_555
C8 C9 1_555 1_555
C12 C13 1_555 1_555
C13 C14 1_555 1_555

#END
