
#######################################################################
#
#                 Cambridge Crystallographic Data Centre
#                                CCDC 
#
#######################################################################
#
# If this CIF has been generated from an entry in the Cambridge 
# Structural Database, then it will include bibliographic, chemical, 
# crystal, experimental, refinement or atomic coordinate data resulting 
# from the CCDC's data processing and validation procedures.
#
#######################################################################

data_UHEXIP01
_symmetry_cell_setting           monoclinic
_symmetry_space_group_name_H-M   'P 21/c'
_symmetry_Int_Tables_number      14
_space_group_name_Hall           '-P 2ybc'
loop_
_symmetry_equiv_pos_site_id
_symmetry_equiv_pos_as_xyz
1 x,y,z
2 -x,1/2+y,1/2-z
3 -x,-y,-z
4 x,1/2-y,1/2+z
_cell_length_a                   14.655(4)
_cell_length_b                   10.777(3)
_cell_length_c                   12.870(4)
_cell_angle_alpha                90
_cell_angle_beta                 100.038(4)
_cell_angle_gamma                90
_cell_volume                     2001.53
loop_
_atom_site_label
_atom_site_type_symbol
_atom_site_fract_x
_atom_site_fract_y
_atom_site_fract_z
Nd1 Nd 0.72353(3) 0.19599(4) 0.35387(4)
Ag1 Ag 0.62235(10) 0.72819(12) 0.38088(12)
C1 C 0.5590(7) -0.0184(9) 0.3700(7)
C2 C 0.5689(7) 0.4248(9) 0.3744(7)
C3 C 0.5063(6) 0.3121(9) 0.3745(7)
C4 C 0.8201(6) 0.0431(8) 0.5865(7)
C5 C 0.8816(7) -0.0274(9) 0.3271(7)
C6 C 0.7664(6) 0.1486(8) 0.6216(7)
C7 C 0.5014(7) 0.0986(9) 0.3712(7)
C8 C 0.4071(7) 0.0985(12) 0.3698(9)
H1 H 0.3747 0.0241 0.3681
C9 C 0.3620(8) 0.2092(12) 0.3708(11)
H2 H 0.2982 0.2113 0.3686
C10 C 0.4129(8) 0.3195(11) 0.3751(9)
H3 H 0.3841 0.3960 0.3784
C11 C 0.8592(7) -0.0510(9) 0.6520(7)
H4 H 0.8546 -0.0510 0.7231
C12 C 0.9053(8) -0.1451(10) 0.6103(8)
H5 H 0.9307 -0.2108 0.6524
C13 C 0.8740(6) -0.0435(9) 0.4434(7)
N1 N 0.8270(5) 0.0467(7) 0.4830(5)
O1 O 0.6517(4) 0.4029(6) 0.3728(5)
O2 O 0.5329(5) 0.5295(7) 0.3766(6)
O3 O 0.7187(5) 0.2136(6) 0.5490(5)
O4 O 0.8400(5) 0.0659(6) 0.2819(5)
O5 O 0.9286(5) -0.1042(7) 0.2880(6)
O6 O 0.6446(5) -0.0034(6) 0.3706(5)
O7 O 0.5180(5) -0.1200(7) 0.3715(6)
O8 O 0.7722(5) 0.1670(6) 0.7185(5)
O9 O 0.8612(5) 0.3180(7) 0.4324(5)
H6 H 0.9025 0.2664 0.4594
H7 H 0.8417 0.3548 0.4827
O10 O 0.6373(5) 0.1398(7) 0.1774(5)
H8 H 0.5798 0.1249 0.1721
H9 H 0.6409 0.1663 0.1163
N2 N 0.5491(5) 0.2036(7) 0.3730(6)
C14 C 0.9132(7) -0.1404(9) 0.5044(7)
H10 H 0.9448 -0.2025 0.4751
O11 O 0.7553(8) 0.6183(11) 0.3838(11)
H11 H 0.7244 0.5579 0.4023
H12 H 0.8104 0.5991 0.4118
Nd1C Nd 0.72353(3) 0.30401(4) 0.85387(4)
Ag1_2 Ag 0.62235(10) -0.27181(12) 0.38088(12)
O7_2 O 0.5180(5) 0.8800(7) 0.3715(6)
O8C O 0.7722(5) 0.3330(6) 0.2185(5)
O12 O 0.9469(5) 0.3023(7) 0.6459(6)
H13 H 0.9899 0.2500 0.6653
H14 H 0.9050 0.2899 0.6828
O13 O 0.0048(10) 0.4471(12) 0.3908(10)
H15 H -0.0100 0.5219 0.3749
H16 H 0.0625 0.4395 0.3906
O14 O 0.791(2) 0.560(3) 0.573(2)
H17 H 0.7754 0.6340 0.5559
H18 H 0.7633 0.5391 0.6232
loop_
_geom_bond_atom_site_label_1
_geom_bond_atom_site_label_2
_geom_bond_site_symmetry_1
_geom_bond_site_symmetry_2
Nd1 N1 1_555 1_555
Ag1 O2 1_555 1_555
C1 C7 1_555 1_555
C2 C3 1_555 1_555
C3 C10 1_555 1_555
C4 C6 1_555 1_555
C5 C13 1_555 1_555
C6 O3 1_555 1_555
C7 C8 1_555 1_555
C8 H1 1_555 1_555
C9 C8 1_555 1_555
H2 C9 1_555 1_555
C10 C9 1_555 1_555
H3 C10 1_555 1_555
C11 C4 1_555 1_555
H4 C11 1_555 1_555
C12 C11 1_555 1_555
H5 C12 1_555 1_555
C13 N1 1_555 1_555
N1 C4 1_555 1_555
O1 Nd1 1_555 1_555
O2 C2 1_555 1_555
O3 Nd1 1_555 1_555
O4 Nd1 1_555 1_555
O5 C5 1_555 1_555
O6 Nd1 1_555 1_555
O7 C1 1_555 1_555
O8 C6 1_555 1_555
O9 Nd1 1_555 1_555
H6 O9 1_555 1_555
H7 O9 1_555 1_555
O10 Nd1 1_555 1_555
H8 O10 1_555 1_555
H9 O10 1_555 1_555
N2 Nd1 1_555 1_555
C14 C12 1_555 1_555
H10 C14 1_555 1_555
O11 Ag1 1_555 1_555
H11 O11 1_555 1_555
H12 O11 1_555 1_555
O12 H13 1_555 1_555
H14 O12 1_555 1_555
O13 H15 1_555 1_555
H16 O13 1_555 1_555
O14 H17 1_555 1_555
H18 O14 1_555 1_555
Nd1C O8 1_555 1_555
Ag1_2 O7 1_555 1_555
O7_2 Ag1 1_555 1_555
O8C Nd1 1_555 1_555
C1 O6 1_555 1_555
C2 O1 1_555 1_555
C3 N2 1_555 1_555
C5 O4 1_555 1_555
C7 N2 1_555 1_555
C13 C14 1_555 1_555

#END
