
#######################################################################
#
#                 Cambridge Crystallographic Data Centre
#                                CCDC 
#
#######################################################################
#
# If this CIF has been generated from an entry in the Cambridge 
# Structural Database, then it will include bibliographic, chemical, 
# crystal, experimental, refinement or atomic coordinate data resulting 
# from the CCDC's data processing and validation procedures.
#
#######################################################################

data_UHEXIP
_symmetry_cell_setting           monoclinic
_symmetry_space_group_name_H-M   'P 21/n'
_symmetry_Int_Tables_number      14
_space_group_name_Hall           '-P 2yn'
loop_
_symmetry_equiv_pos_site_id
_symmetry_equiv_pos_as_xyz
1 x,y,z
2 1/2-x,1/2+y,1/2-z
3 -x,-y,-z
4 1/2+x,1/2-y,1/2+z
_cell_length_a                   14.582(3)
_cell_length_b                   7.3325(15)
_cell_length_c                   19.606(4)
_cell_angle_alpha                90
_cell_angle_beta                 97.99(3)
_cell_angle_gamma                90
_cell_volume                     2075.97
loop_
_atom_site_label
_atom_site_type_symbol
_atom_site_fract_x
_atom_site_fract_y
_atom_site_fract_z
Nd1 Nd 0.79324(2) 0.54911(4) 0.137648(16)
Ag1 Ag 0.87750(4) 0.00514(9) 0.00556(5)
C1 C 0.9498(4) 0.8859(9) 0.1867(3)
C2 C 1.0085(4) 0.7578(9) 0.1502(3)
C3 C 1.1018(5) 0.7879(10) 0.1465(4)
H1 H 1.1307 0.8938 0.1647
C4 C 1.1511(5) 0.6582(10) 0.1155(4)
H2 H 1.2137 0.6747 0.1127
C5 C 1.1051(5) 0.5027(10) 0.0885(4)
H3 H 1.1366 0.4119 0.0681
C6 C 1.0119(5) 0.4857(9) 0.0927(3)
C7 C 0.9544(4) 0.3255(9) 0.0636(3)
C8 C 0.7336(4) 0.7603(9) -0.0163(3)
C9 C 0.6676(4) 0.6012(9) -0.0262(3)
C10 C 0.6082(5) 0.5691(9) -0.0866(3)
H4 H 0.6051 0.6499 -0.1234
C11 C 0.5532(5) 0.4133(10) -0.0910(3)
H5 H 0.5123 0.3886 -0.1307
C12 C 0.5602(4) 0.2955(9) -0.0351(3)
H6 H 0.5244 0.1902 -0.0367
C13 C 0.6222(4) 0.3384(8) 0.0232(3)
C14 C 0.6347(4) 0.2194(9) 0.0873(3)
N1 N 0.9646(4) 0.6099(7) 0.1234(3)
N2 N 0.6745(4) 0.4877(7) 0.0278(3)
O1 O 0.9852(3) 1.0311(6) 0.2104(3)
O2 O 0.8675(3) 0.8327(6) 0.1894(2)
O3 O 0.8685(3) 0.3302(6) 0.0669(2)
O4 O 0.9946(3) 0.1973(6) 0.0370(3)
O5 O 0.7334(3) 0.8791(7) -0.0612(2)
O6 O 0.7900(3) 0.7619(6) 0.0397(2)
O7 O 0.6915(3) 0.2794(6) 0.1374(2)
O8 O 0.5888(3) 0.0762(6) 0.0862(2)
O9 O 0.8959(3) 0.3486(6) 0.2204(2)
H7 H 0.9418 0.3994 0.2461
H8 H 0.9232 0.2497 0.2124
O10 O 0.7470(3) 0.5599(6) 0.2534(2)
H9 H 0.7741 0.6284 0.2883
H10 H 0.7056 0.4855 0.2659
O11 O 0.6584(3) 0.7558(6) 0.1453(2)
H11 H 0.6508 0.7771 0.1902
H12 H 0.6434 0.8472 0.1230
Ag1B Ag 1.12250(4) -0.00514(9) -0.00556(5)
Ag1_2 Ag 0.87750(4) 1.00514(9) 0.00556(5)
O4B O 1.0054(3) -0.1973(6) -0.0370(3)
O5_2 O 0.7334(3) -0.1209(7) -0.0612(2)
O6_2 O 0.7900(3) -0.2381(6) 0.0397(2)
O12 O 0.3320(3) 0.6565(8) 0.2394(3)
H13 H 0.3929 0.6295 0.2534
H14 H 0.3377 0.7737 0.2269
O13 O 0.3072(3) 0.0220(7) 0.1958(2)
H15 H 0.2628 0.0637 0.2202
H16 H 0.2865 0.0539 0.1491
O14 O 0.0061(3) 0.5781(7) 0.2956(2)
H17 H -0.0108 0.5803 0.3379
H18 H 0.0780 0.5730 0.2964
loop_
_geom_bond_atom_site_label_1
_geom_bond_atom_site_label_2
_geom_bond_site_symmetry_1
_geom_bond_site_symmetry_2
Nd1 N1 1_555 1_555
Ag1 O3 1_555 1_555
C1 C2 1_555 1_555
C2 C3 1_555 1_555
C3 H1 1_555 1_555
C4 C3 1_555 1_555
H2 C4 1_555 1_555
C5 C4 1_555 1_555
H3 C5 1_555 1_555
C6 C5 1_555 1_555
C7 C6 1_555 1_555
C8 C9 1_555 1_555
C9 C10 1_555 1_555
C10 H4 1_555 1_555
C11 C10 1_555 1_555
H5 C11 1_555 1_555
C12 C11 1_555 1_555
H6 C12 1_555 1_555
C13 C12 1_555 1_555
C14 C13 1_555 1_555
N1 C2 1_555 1_555
N2 Nd1 1_555 1_555
O1 C1 1_555 1_555
O2 Nd1 1_555 1_555
O3 Nd1 1_555 1_555
O4 Ag1 1_555 1_555
O5 C8 1_555 1_555
O6 Nd1 1_555 1_555
O7 Nd1 1_555 1_555
O8 C14 1_555 1_555
O9 Nd1 1_555 1_555
H7 O9 1_555 1_555
H8 O9 1_555 1_555
O10 Nd1 1_555 1_555
H9 O10 1_555 1_555
H10 O10 1_555 1_555
O11 Nd1 1_555 1_555
H11 O11 1_555 1_555
H12 O11 1_555 1_555
O12 H13 1_555 1_555
H14 O12 1_555 1_555
O13 H15 1_555 1_555
H16 O13 1_555 1_555
O14 H17 1_555 1_555
H18 O14 1_555 1_555
Ag1B O4 1_555 1_555
Ag1_2 O5 1_555 1_555
O4B Ag1 1_555 1_555
O5_2 Ag1 1_555 1_555
O6_2 Ag1 1_555 1_555
C1 O2 1_555 1_555
C6 N1 1_555 1_555
C7 O3 1_555 1_555
C7 O4 1_555 1_555
C8 O6 1_555 1_555
C9 N2 1_555 1_555
C13 N2 1_555 1_555
C14 O7 1_555 1_555
O6 Ag1_2 1_555 1_555
Ag1B O4B 1_555 1_555

#END
