
#######################################################################
#
#                 Cambridge Crystallographic Data Centre
#                                CCDC 
#
#######################################################################
#
# If this CIF has been generated from an entry in the Cambridge 
# Structural Database, then it will include bibliographic, chemical, 
# crystal, experimental, refinement or atomic coordinate data resulting 
# from the CCDC's data processing and validation procedures.
#
#######################################################################

data_UHEXEL
_symmetry_cell_setting           monoclinic
_symmetry_space_group_name_H-M   'P 21/n'
_symmetry_Int_Tables_number      14
_space_group_name_Hall           '-P 2yn'
loop_
_symmetry_equiv_pos_site_id
_symmetry_equiv_pos_as_xyz
1 x,y,z
2 1/2-x,1/2+y,1/2-z
3 -x,-y,-z
4 1/2+x,1/2-y,1/2+z
_cell_length_a                   14.656(3)
_cell_length_b                   7.3077(15)
_cell_length_c                   19.705(4)
_cell_angle_alpha                90
_cell_angle_beta                 97.71(3)
_cell_angle_gamma                90
_cell_volume                     2091.36
loop_
_atom_site_label
_atom_site_type_symbol
_atom_site_fract_x
_atom_site_fract_y
_atom_site_fract_z
Ce1 Ce 0.793080(19) 0.94908(4) 0.137652(15)
Ag1 Ag 0.87785(4) 0.49549(8) 0.00723(4)
C1 C 0.6325(4) 1.2799(8) 0.0863(3)
C2 C 0.6211(4) 1.1621(7) 0.0226(3)
C3 C 0.5596(4) 1.2056(8) -0.0359(3)
H1 H 0.5239 1.3111 -0.0377
C4 C 0.5538(4) 1.0870(8) -0.0907(3)
H2 H 0.5134 1.1118 -0.1302
C5 C 0.6078(4) 0.9311(8) -0.0870(3)
H3 H 0.6044 0.8502 -0.1237
C6 C 0.6672(4) 0.8986(8) -0.0272(3)
C7 C 0.7320(4) 0.7380(8) -0.0173(3)
C8 C 0.9521(4) 0.6098(8) 0.1850(3)
C9 C 1.0105(4) 0.7394(8) 0.1491(3)
C10 C 1.1032(4) 0.7093(8) 0.1450(3)
H4 H 1.1320 0.6026 0.1624
C11 C 1.1516(4) 0.8411(9) 0.1146(3)
H5 H 1.2140 0.8254 0.1118
C12 C 1.1062(4) 0.9968(9) 0.0883(3)
H6 H 1.1377 1.0881 0.0681
C13 C 1.0138(4) 1.0142(8) 0.0925(3)
C14 C 0.9566(4) 1.1750(8) 0.0633(3)
N1 N 0.6734(3) 1.0116(6) 0.0267(2)
N2 N 0.9662(3) 0.8884(6) 0.1226(2)
O1 O 0.7882(3) 0.7362(5) 0.03832(19)
O2 O 0.7322(3) 0.6194(6) -0.0624(2)
O3 O 0.6895(3) 1.2216(5) 0.13605(19)
O4 O 0.5862(3) 1.4232(5) 0.0857(2)
O5 O 0.8697(2) 0.6604(5) 0.1879(2)
O6 O 0.9876(3) 0.4642(5) 0.2088(2)
O7 O 0.8712(3) 1.1706(5) 0.06720(19)
O8 O 0.9962(3) 1.3030(5) 0.0368(2)
O9 O 0.7464(3) 0.9386(5) 0.25470(19)
H7 H 0.7755 0.8756 0.2926
H8 H 0.7015 1.0274 0.2751
O10 O 0.8977(2) 1.1495(5) 0.22148(19)
H9 H 0.9386 1.0689 0.2431
H10 H 0.9194 1.2549 0.2139
O11 O 0.6572(3) 0.7400(6) 0.1458(2)
H11 H 0.650(5) 0.731(9) 0.181(3)
H12 H 0.641(4) 0.640(9) 0.125(3)
Ag1_2 Ag 0.87785(4) 1.49549(8) 0.00723(4)
Ag1B Ag 1.12215(4) 1.50451(8) -0.00723(4)
O7_2 O 0.8712(3) 0.1706(5) 0.06720(19)
O8_2 O 0.9962(3) 0.3030(5) 0.0368(2)
O8B O 1.0038(3) 0.6970(5) -0.0368(2)
O12 O 0.6916(3) 0.5230(6) 0.8032(2)
H13 H 0.7090 0.5197 0.8444
H14 H 0.7351 0.5758 0.7840
O13 O 0.1693(3) 0.3437(6) 0.2611(2)
H15 H 0.1637 0.2265 0.2717
H16 H 0.1121 0.3545 0.2405
O14 O 0.0064(3) 0.9158(6) 0.2950(2)
H17 H -0.0147 0.9272 0.3368
H18 H 0.0630 0.9416 0.2965
loop_
_geom_bond_atom_site_label_1
_geom_bond_atom_site_label_2
_geom_bond_site_symmetry_1
_geom_bond_site_symmetry_2
Ce1 N1 1_555 1_555
Ag1 O1 1_555 1_555
C1 C2 1_555 1_555
C2 C3 1_555 1_555
C3 H1 1_555 1_555
C4 C3 1_555 1_555
H2 C4 1_555 1_555
C5 C4 1_555 1_555
H3 C5 1_555 1_555
C6 C5 1_555 1_555
C7 C6 1_555 1_555
C8 C9 1_555 1_555
C9 C10 1_555 1_555
C10 H4 1_555 1_555
C11 C10 1_555 1_555
H5 C11 1_555 1_555
C12 C11 1_555 1_555
H6 C12 1_555 1_555
C13 C12 1_555 1_555
C14 C13 1_555 1_555
N1 C2 1_555 1_555
N2 Ce1 1_555 1_555
O1 Ce1 1_555 1_555
O2 Ag1 1_555 1_555
O3 Ce1 1_555 1_555
O4 C1 1_555 1_555
O5 Ce1 1_555 1_555
O6 C8 1_555 1_555
O7 Ce1 1_555 1_555
O8 C14 1_555 1_555
O9 Ce1 1_555 1_555
H7 O9 1_555 1_555
H8 O9 1_555 1_555
O10 Ce1 1_555 1_555
H9 O10 1_555 1_555
H10 O10 1_555 1_555
O11 Ce1 1_555 1_555
H11 O11 1_555 1_555
H12 O11 1_555 1_555
O12 H13 1_555 1_555
H14 O12 1_555 1_555
O13 H15 1_555 1_555
H16 O13 1_555 1_555
O14 H17 1_555 1_555
H18 O14 1_555 1_555
Ag1_2 O7 1_555 1_555
Ag1B O8 1_555 1_555
O7_2 Ag1 1_555 1_555
O8_2 Ag1 1_555 1_555
O8B Ag1 1_555 1_555
C1 O3 1_555 1_555
C6 N1 1_555 1_555
C7 O1 1_555 1_555
C7 O2 1_555 1_555
C8 O5 1_555 1_555
C9 N2 1_555 1_555
C13 N2 1_555 1_555
C14 O7 1_555 1_555
O8 Ag1_2 1_555 1_555

#END
