
#######################################################################
#
#                 Cambridge Crystallographic Data Centre
#                                CCDC 
#
#######################################################################
#
# If this CIF has been generated from an entry in the Cambridge 
# Structural Database, then it will include bibliographic, chemical, 
# crystal, experimental, refinement or atomic coordinate data resulting 
# from the CCDC's data processing and validation procedures.
#
#######################################################################

data_UHEXUB
_symmetry_cell_setting           rhombohedral
_symmetry_space_group_name_H-M   'R -3 c'
_symmetry_Int_Tables_number      167
_space_group_name_Hall           '-R 3 2"c'
loop_
_symmetry_equiv_pos_site_id
_symmetry_equiv_pos_as_xyz
1 x,y,z
2 -y,x-y,z
3 -x+y,-x,z
4 x-y,-y,1/2-z
5 -x,-x+y,1/2-z
6 y,x,1/2-z
7 2/3+x,1/3+y,1/3+z
8 2/3-y,1/3+x-y,1/3+z
9 2/3-x+y,1/3-x,1/3+z
10 2/3+x-y,1/3-y,5/6-z
11 2/3-x,1/3-x+y,5/6-z
12 2/3+y,1/3+x,5/6-z
13 1/3+x,2/3+y,2/3+z
14 1/3-y,2/3+x-y,2/3+z
15 1/3-x+y,2/3-x,2/3+z
16 1/3+x-y,2/3-y,1/6-z
17 1/3-x,2/3-x+y,1/6-z
18 1/3+y,2/3+x,1/6-z
19 -x,-y,-z
20 y,-x+y,-z
21 x-y,x,-z
22 -x+y,y,1/2+z
23 x,x-y,1/2+z
24 -y,-x,1/2+z
25 1/3-x,2/3-y,2/3-z
26 1/3+y,2/3-x+y,2/3-z
27 1/3+x-y,2/3+x,2/3-z
28 1/3-x+y,2/3+y,1/6+z
29 1/3+x,2/3+x-y,1/6+z
30 1/3-y,2/3-x,1/6+z
31 2/3-x,1/3-y,1/3-z
32 2/3+y,1/3-x+y,1/3-z
33 2/3+x-y,1/3+x,1/3-z
34 2/3-x+y,1/3+y,5/6+z
35 2/3+x,1/3+x-y,5/6+z
36 2/3-y,1/3-x,5/6+z
_cell_length_a                   26.315(4)
_cell_length_b                   26.315(4)
_cell_length_c                   22.502(5)
_cell_angle_alpha                90
_cell_angle_beta                 90
_cell_angle_gamma                120
_cell_volume                     13494.6
loop_
_atom_site_label
_atom_site_type_symbol
_atom_site_fract_x
_atom_site_fract_y
_atom_site_fract_z
Sb1 Sb 1.0000 1.0000 1.0000
F1 F 0.9562(2) 0.93351(19) 0.9547(2)
F1A F 1.06649(19) 1.02269(28) 0.9547(2)
F1B F 0.97731(28) 1.0438(2) 0.9547(2)
F1R F 1.0438(2) 1.06649(19) 1.0453(2)
F1S F 0.93351(19) 0.97731(28) 1.0453(2)
F1T F 1.02269(28) 0.9562(2) 1.0453(2)
Sb2 Sb 1.0000 0.35151(3) 0.7500
F2 F 0.9337(6) 0.3611(6) 0.7417(6)
F3 F 1.0100(7) 0.3445(7) 0.6701(10)
F4 F 1.0514(6) 0.3263(7) 0.7507(7)
F2D F 1.0663(6) 0.4274(8) 0.7583(6)
F3D F 0.9900(7) 0.3345(10) 0.8299(10)
F4D F 0.9486(6) 0.2749(9) 0.7493(7)
Ag1 Ag 0.84738(2) 0.3333 1.0833
Ag2 Ag 0.6667 0.3333 0.5833
O1 O 0.78905(18) 0.19866(17) 0.63750(12)
N1 N 0.83105(15) 0.30145(16) 0.99350(13)
N2 N 0.81377(17) 0.19257(16) 0.73299(15)
H1 H 0.8255 0.1683 0.7207
N3 N 0.7210(2) 0.2897(2) 0.6427(2)
C1 C 0.7771(2) 0.2629(2) 0.97497(18)
H2 H 0.7455 0.2495 1.0025
C2 C 0.8747(2) 0.32012(19) 0.95511(19)
H3 H 0.9134 0.3472 0.9681
C3 C 0.76511(18) 0.2418(2) 0.91761(17)
H4 H 0.7262 0.2139 0.9063
C4 C 0.86611(19) 0.30149(19) 0.89628(18)
H5 H 0.8984 0.3161 0.8697
C5 C 0.81038(17) 0.26161(18) 0.87655(16)
C6 C 0.80061(17) 0.24224(19) 0.81293(16)
C7 C 0.77474(18) 0.26357(18) 0.77328(17)
H6 H 0.7604 0.2879 0.7879
C8 C 0.76952(18) 0.25017(18) 0.71380(17)
C9 C 0.7908(2) 0.21311(19) 0.69089(17)
C10 C 0.8201(2) 0.2059(2) 0.79124(17)
C11 C 0.8452(3) 0.1770(3) 0.8279(2)
H7 H 0.8182 0.1555 0.8606
H8 H 0.8830 0.2067 0.8442
H9 H 0.8508 0.1495 0.8032
C12 C 0.7431(2) 0.27206(19) 0.67327(18)
Ag1A Ag 0.6667 0.51408(2) 1.0833
Ag1B Ag 0.48592(2) 0.15262(2) 1.0833
Ag2O Ag 0.6667 0.3334 1.5834
O1A O 0.80134(17) 0.59039(25) 0.63750(12)
O1B O 0.40961(25) 0.21095(18) 0.63750(12)
O1O O 0.92372(25) 0.46801(17) 1.52917(12)
O1Q O 0.53199(17) 0.45572(18) 1.52917(12)
O1P O 0.54428(18) 0.07628(25) 1.52917(12)
N1A N 0.69855(16) 0.52960(22) 0.99350(13)
N1B N 0.47040(22) 0.16895(15) 0.99350(13)
N1O N 0.86293(22) 0.36522(16) 1.17317(13)
N1Q N 0.63478(16) 0.49772(15) 1.17317(13)
N1P N 0.50228(15) 0.13707(22) 1.17317(13)
N2A N 0.80743(16) 0.62120(23) 0.73299(15)
N2B N 0.37880(23) 0.18623(17) 0.73299(15)
N2O N 0.95453(23) 0.47410(16) 1.43368(15)
N2Q N 0.52590(16) 0.48044(17) 1.43368(15)
N2P N 0.51956(17) 0.04547(23) 1.43368(15)
H1A H 0.8317 0.6572 0.7207
H1B H 0.3428 0.1745 0.7207
H1O H 0.9905 0.4984 1.4460
H1Q H 0.5016 0.4922 1.4460
H1P H 0.5078 0.0095 1.4460
N3A N 0.7103(2) 0.4313(3) 0.6427(2)
N3B N 0.5687(3) 0.2790(2) 0.6427(2)
N3O N 0.7646(3) 0.3770(2) 0.5240(2)
N3P N 0.6123(2) 0.2354(3) 0.5240(2)
N3Q N 0.6230(2) 0.3877(2) 0.5240(2)
N3O_2 N 0.7646(3) 0.3770(2) 1.5240(2)
N3Q_2 N 0.6230(2) 0.3877(2) 1.5240(2)
N3P_2 N 0.6123(2) 0.2354(3) 1.5240(2)
C1A C 0.7371(2) 0.5142(3) 0.97497(18)
C1B C 0.4858(3) 0.2229(2) 0.97497(18)
C1O C 0.8475(3) 0.4038(2) 1.19170(18)
C1Q C 0.5962(2) 0.4438(2) 1.19170(18)
C1P C 0.5562(2) 0.1525(3) 1.19170(18)
H2A H 0.7505 0.4960 1.0025
H2B H 0.5040 0.2545 1.0025
H2O H 0.8293 0.4172 1.1642
H2Q H 0.5828 0.4122 1.1642
H2P H 0.5878 0.1707 1.1642
C2A C 0.67988(19) 0.55458(28) 0.95511(19)
C2B C 0.44542(28) 0.1253(2) 0.95511(19)
C2O C 0.88791(28) 0.34655(19) 1.21156(19)
C2Q C 0.65345(19) 0.5414(2) 1.21156(19)
C2P C 0.4586(2) 0.11209(28) 1.21156(19)
H3A H 0.6528 0.5662 0.9681
H3B H 0.4338 0.0866 0.9681
H3O H 0.8995 0.3195 1.1986
H3Q H 0.6805 0.5801 1.1986
H3P H 0.4199 0.1005 1.1986
C3A C 0.7582(2) 0.52331(27) 0.91761(17)
C3B C 0.47669(27) 0.23489(18) 0.91761(17)
C3O C 0.85664(27) 0.4249(2) 1.24906(17)
C3Q C 0.5751(2) 0.43178(18) 1.24906(17)
C3P C 0.56822(18) 0.14336(27) 1.24906(17)
H4A H 0.7861 0.5123 0.9063
H4B H 0.4877 0.2738 0.9063
H4O H 0.8456 0.4528 1.2604
H4Q H 0.5472 0.3929 1.2604
H4P H 0.6071 0.1544 1.2604
C4A C 0.69851(19) 0.56462(27) 0.89628(18)
C4B C 0.43538(27) 0.13389(19) 0.89628(18)
C4O C 0.89795(27) 0.36518(19) 1.27039(18)
C4Q C 0.63482(19) 0.53278(19) 1.27039(18)
C4P C 0.46722(19) 0.10205(27) 1.27039(18)
H5A H 0.6839 0.5823 0.8697
H5B H 0.4177 0.1016 0.8697
H5O H 0.9156 0.3506 1.2970
H5Q H 0.6494 0.5651 1.2970
H5P H 0.4349 0.0844 1.2970
C5A C 0.73839(18) 0.54877(25) 0.87655(16)
C5B C 0.45123(25) 0.18962(17) 0.87655(16)
C5O C 0.88210(25) 0.40506(18) 1.29012(16)
C5Q C 0.59494(18) 0.47705(17) 1.29012(16)
C5P C 0.52295(17) 0.11790(25) 1.29012(16)
C6A C 0.75776(19) 0.55837(25) 0.81293(16)
C6B C 0.44163(25) 0.19939(17) 0.81293(16)
C6O C 0.89170(25) 0.42443(19) 1.35374(16)
C6Q C 0.57557(19) 0.46728(17) 1.35374(16)
C6P C 0.53272(17) 0.10830(25) 1.35374(16)
C7A C 0.73643(18) 0.51117(25) 0.77328(17)
C7B C 0.48883(25) 0.22526(18) 0.77328(17)
C7O C 0.84450(25) 0.40310(18) 1.39339(17)
C7Q C 0.59690(18) 0.44141(18) 1.39339(17)
C7P C 0.55859(18) 0.15550(25) 1.39339(17)
H6A H 0.7121 0.4725 0.7879
H6B H 0.5275 0.2396 0.7879
H6O H 0.8058 0.3788 1.3788
H6Q H 0.6212 0.4271 1.3788
H6P H 0.5729 0.1942 1.3788
C8A C 0.74983(18) 0.51935(25) 0.71380(17)
C8B C 0.48065(25) 0.23048(18) 0.71380(17)
C8O C 0.85268(25) 0.41650(18) 1.45287(17)
C8Q C 0.58350(18) 0.43619(18) 1.45287(17)
C8P C 0.56381(18) 0.14732(25) 1.45287(17)
C9A C 0.78689(19) 0.57769(28) 0.69089(17)
C9B C 0.42231(28) 0.2092(2) 0.69089(17)
C9O C 0.91102(28) 0.45356(19) 1.47578(17)
C9Q C 0.54644(19) 0.4575(2) 1.47578(17)
C9P C 0.5425(2) 0.08898(28) 1.47578(17)
C10A C 0.7941(2) 0.6142(3) 0.79124(17)
C10B C 0.3858(3) 0.1799(2) 0.79124(17)
C10O C 0.9475(3) 0.4608(2) 1.37543(17)
C10Q C 0.5392(2) 0.4868(2) 1.37543(17)
C10P C 0.5132(2) 0.0525(3) 1.37543(17)
C11A C 0.8230(3) 0.6682(4) 0.8279(2)
C11B C 0.3318(4) 0.1548(3) 0.8279(2)
C11O C 1.0015(4) 0.4897(3) 1.3388(2)
C11Q C 0.5103(3) 0.5119(3) 1.3388(2)
C11P C 0.4881(3) -0.0015(4) 1.3388(2)
H7A H 0.8445 0.6627 0.8606
H7B H 0.3373 0.1818 0.8606
H7O H 0.9960 0.5112 1.3061
H7Q H 0.4888 0.4849 1.3061
H7P H 0.5151 0.0040 1.3061
H8A H 0.7933 0.6763 0.8442
H8B H 0.3237 0.1170 0.8442
H8O H 1.0096 0.4600 1.3225
H8Q H 0.5400 0.5497 1.3225
H8P H 0.4503 -0.0096 1.3225
H9A H 0.8505 0.7013 0.8032
H9B H 0.2987 0.1492 0.8032
H9O H 1.0346 0.5172 1.3635
H9Q H 0.4828 0.5175 1.3635
H9P H 0.4825 -0.0346 1.3635
C12A C 0.72794(19) 0.47104(28) 0.67327(18)
C12B C 0.52896(28) 0.2569(2) 0.67327(18)
C12O C 0.80437(28) 0.39461(19) 1.49340(18)
C12Q C 0.60539(19) 0.4098(2) 1.49340(18)
C12P C 0.5902(2) 0.19563(28) 1.49340(18)
loop_
_geom_bond_atom_site_label_1
_geom_bond_atom_site_label_2
_geom_bond_site_symmetry_1
_geom_bond_site_symmetry_2
Sb1 F1 1_555 1_555
Sb2 F2 1_555 1_555
Ag1 N1 1_555 1_555
Ag2 N3 1_555 1_555
F3 Sb2 1_555 1_555
F4 Sb2 1_555 1_555
O1 C9 1_555 1_555
N1 C1 1_555 1_555
N2 H1 1_555 1_555
N3 C12 1_555 1_555
C1 H2 1_555 1_555
C2 N1 1_555 1_555
H3 C2 1_555 1_555
C3 C1 1_555 1_555
H4 C3 1_555 1_555
C4 C2 1_555 1_555
H5 C4 1_555 1_555
C5 C3 1_555 1_555
C6 C5 1_555 1_555
C7 C6 1_555 1_555
H6 C7 1_555 1_555
C8 C7 1_555 1_555
C9 N2 1_555 1_555
C10 N2 1_555 1_555
C11 C10 1_555 1_555
H7 C11 1_555 1_555
H8 C11 1_555 1_555
H9 C11 1_555 1_555
C12 C8 1_555 1_555
Ag1A N1A 1_555 1_555
Ag1B N1B 1_555 1_555
Ag2O N3O_2 1_555 1_555
F1A Sb1 1_555 1_555
F1B Sb1 1_555 1_555
F1R Sb1 1_555 1_555
F1S Sb1 1_555 1_555
F1T Sb1 1_555 1_555
F2D Sb2 1_555 1_555
F3D Sb2 1_555 1_555
F4D Sb2 1_555 1_555
O1A C9A 1_555 1_555
O1B C9B 1_555 1_555
O1O C9O 1_555 1_555
O1Q C9Q 1_555 1_555
O1P C9P 1_555 1_555
N1A C1A 1_555 1_555
N1B C1B 1_555 1_555
N1O Ag1 1_555 1_555
N1Q Ag1A 1_555 1_555
N1P Ag1B 1_555 1_555
N2A H1A 1_555 1_555
N2B H1B 1_555 1_555
N2O H1O 1_555 1_555
N2Q H1Q 1_555 1_555
N2P H1P 1_555 1_555
N3A Ag2 1_555 1_555
N3B Ag2 1_555 1_555
N3O Ag2 1_555 1_555
N3P Ag2 1_555 1_555
N3Q Ag2 1_555 1_555
N3O_2 C12O 1_555 1_555
N3Q_2 Ag2O 1_555 1_555
N3P_2 Ag2O 1_555 1_555
C1A H2A 1_555 1_555
C1B H2B 1_555 1_555
C1O N1O 1_555 1_555
C1Q N1Q 1_555 1_555
C1P N1P 1_555 1_555
H2O C1O 1_555 1_555
H2Q C1Q 1_555 1_555
H2P C1P 1_555 1_555
C2A N1A 1_555 1_555
C2B N1B 1_555 1_555
C2O N1O 1_555 1_555
C2Q N1Q 1_555 1_555
C2P N1P 1_555 1_555
H3A C2A 1_555 1_555
H3B C2B 1_555 1_555
H3O C2O 1_555 1_555
H3Q C2Q 1_555 1_555
H3P C2P 1_555 1_555
C3A C1A 1_555 1_555
C3B C1B 1_555 1_555
C3O C1O 1_555 1_555
C3Q C1Q 1_555 1_555
C3P C1P 1_555 1_555
H4A C3A 1_555 1_555
H4B C3B 1_555 1_555
H4O C3O 1_555 1_555
H4Q C3Q 1_555 1_555
H4P C3P 1_555 1_555
C4A C2A 1_555 1_555
C4B C2B 1_555 1_555
C4O C2O 1_555 1_555
C4Q C2Q 1_555 1_555
C4P C2P 1_555 1_555
H5A C4A 1_555 1_555
H5B C4B 1_555 1_555
H5O C4O 1_555 1_555
H5Q C4Q 1_555 1_555
H5P C4P 1_555 1_555
C5A C3A 1_555 1_555
C5B C3B 1_555 1_555
C5O C3O 1_555 1_555
C5Q C3Q 1_555 1_555
C5P C3P 1_555 1_555
C6A C5A 1_555 1_555
C6B C5B 1_555 1_555
C6O C5O 1_555 1_555
C6Q C5Q 1_555 1_555
C6P C5P 1_555 1_555
C7A C6A 1_555 1_555
C7B C6B 1_555 1_555
C7O C6O 1_555 1_555
C7Q C6Q 1_555 1_555
C7P C6P 1_555 1_555
H6A C7A 1_555 1_555
H6B C7B 1_555 1_555
H6O C7O 1_555 1_555
H6Q C7Q 1_555 1_555
H6P C7P 1_555 1_555
C8A C7A 1_555 1_555
C8B C7B 1_555 1_555
C8O C7O 1_555 1_555
C8Q C7Q 1_555 1_555
C8P C7P 1_555 1_555
C9A N2A 1_555 1_555
C9B N2B 1_555 1_555
C9O N2O 1_555 1_555
C9Q N2Q 1_555 1_555
C9P N2P 1_555 1_555
C10A N2A 1_555 1_555
C10B N2B 1_555 1_555
C10O N2O 1_555 1_555
C10Q N2Q 1_555 1_555
C10P N2P 1_555 1_555
C11A C10A 1_555 1_555
C11B C10B 1_555 1_555
C11O C10O 1_555 1_555
C11Q C10Q 1_555 1_555
C11P C10P 1_555 1_555
H7A C11A 1_555 1_555
H7B C11B 1_555 1_555
H7O C11O 1_555 1_555
H7Q C11Q 1_555 1_555
H7P C11P 1_555 1_555
H8A C11A 1_555 1_555
H8B C11B 1_555 1_555
H8O C11O 1_555 1_555
H8Q C11Q 1_555 1_555
H8P C11P 1_555 1_555
H9A C11A 1_555 1_555
H9B C11B 1_555 1_555
H9O C11O 1_555 1_555
H9Q C11Q 1_555 1_555
H9P C11P 1_555 1_555
C12A N3A 1_555 1_555
C12B N3B 1_555 1_555
C12O C8O 1_555 1_555
C12Q N3Q_2 1_555 1_555
C12P N3P_2 1_555 1_555
C4 C5 1_555 1_555
C6 C10 1_555 1_555
C8 C9 1_555 1_555
C4A C5A 1_555 1_555
C4B C5B 1_555 1_555
C4O C5O 1_555 1_555
C4Q C5Q 1_555 1_555
C4P C5P 1_555 1_555
C6A C10A 1_555 1_555
C6B C10B 1_555 1_555
C6O C10O 1_555 1_555
C6Q C10Q 1_555 1_555
C6P C10P 1_555 1_555
C8A C9A 1_555 1_555
C8A C12A 1_555 1_555
C8B C9B 1_555 1_555
C8B C12B 1_555 1_555
C8O C9O 1_555 1_555
C8Q C9Q 1_555 1_555
C8Q C12Q 1_555 1_555
C8P C9P 1_555 1_555
C8P C12P 1_555 1_555

#END
