
#######################################################################
#
#                 Cambridge Crystallographic Data Centre
#                                CCDC 
#
#######################################################################
#
# If this CIF has been generated from an entry in the Cambridge 
# Structural Database, then it will include bibliographic, chemical, 
# crystal, experimental, refinement or atomic coordinate data resulting 
# from the CCDC's data processing and validation procedures.
#
#######################################################################

data_UHEXOV
_symmetry_cell_setting           rhombohedral
_symmetry_space_group_name_H-M   'R -3 c'
_symmetry_Int_Tables_number      167
_space_group_name_Hall           '-R 3 2"c'
loop_
_symmetry_equiv_pos_site_id
_symmetry_equiv_pos_as_xyz
1 x,y,z
2 -y,x-y,z
3 -x+y,-x,z
4 y,x,1/2-z
5 x-y,-y,1/2-z
6 -x,-x+y,1/2-z
7 2/3+x,1/3+y,1/3+z
8 2/3-y,1/3+x-y,1/3+z
9 2/3-x+y,1/3-x,1/3+z
10 2/3+y,1/3+x,5/6-z
11 2/3+x-y,1/3-y,5/6-z
12 2/3-x,1/3-x+y,5/6-z
13 1/3+x,2/3+y,2/3+z
14 1/3-y,2/3+x-y,2/3+z
15 1/3-x+y,2/3-x,2/3+z
16 1/3+y,2/3+x,1/6-z
17 1/3+x-y,2/3-y,1/6-z
18 1/3-x,2/3-x+y,1/6-z
19 -x,-y,-z
20 y,-x+y,-z
21 x-y,x,-z
22 -y,-x,1/2+z
23 -x+y,y,1/2+z
24 x,x-y,1/2+z
25 1/3-x,2/3-y,2/3-z
26 1/3+y,2/3-x+y,2/3-z
27 1/3+x-y,2/3+x,2/3-z
28 1/3-y,2/3-x,1/6+z
29 1/3-x+y,2/3+y,1/6+z
30 1/3+x,2/3+x-y,1/6+z
31 2/3-x,1/3-y,1/3-z
32 2/3+y,1/3-x+y,1/3-z
33 2/3+x-y,1/3+x,1/3-z
34 2/3-y,1/3-x,5/6+z
35 2/3-x+y,1/3+y,5/6+z
36 2/3+x,1/3+x-y,5/6+z
_cell_length_a                   25.9571(7)
_cell_length_b                   25.9571(7)
_cell_length_c                   22.5629(12)
_cell_angle_alpha                90
_cell_angle_beta                 90
_cell_angle_gamma                120
_cell_volume                     13165.5
loop_
_atom_site_label
_atom_site_type_symbol
_atom_site_fract_x
_atom_site_fract_y
_atom_site_fract_z
As1 As 0.3333 0.6667 0.1667
F1 F 0.27210(19) 0.64551(14) 0.20946(14)
F1A F 0.35449(14) 0.62659(24) 0.20946(14)
F1B F 0.37341(24) 0.72790(19) 0.20946(14)
F1DA F 0.39457(19) 0.68782(14) 0.12387(14)
F1EA F 0.31218(14) 0.70674(24) 0.12387(14)
F1FA F 0.29326(24) 0.60543(19) 0.12387(14)
As2 As 0.3333 0.01620(3) 0.9167
F2 F 0.3883(4) 0.0857(6) 0.9183(4)
F3 F 0.2828(3) -0.0546(5) 0.9164(5)
F4 F 0.3393(3) 0.0202(6) 0.8446(3)
F2K F 0.2784(4) 0.0307(7) 0.9150(4)
F3K F 0.3839(3) -0.0041(6) 0.9169(5)
F4K F 0.3274(3) 0.0142(7) 0.9887(3)
O2 O 0.4348(7) 0.1014(7) 0.0833
C13 C 0.4512(12) 0.1366(10) 0.0338(9)
H10 H 0.4211 0.1477 0.0249
H11 H 0.4548 0.1147 0.0002
H12 H 0.4896 0.1726 0.0408
C13O C 0.4699(10) 0.1179(12) 0.1329(9)
H10O H 0.4810 0.0878 0.1418
H11O H 0.4480 0.1215 0.1665
H12O H 0.5059 0.1563 0.1259
Ag1 Ag 0.333300(16) 0.8490 -0.0833
Ag2 Ag 0.3333 0.6667 -0.5833
C1 C 0.40281(13) 0.84348(18) -0.39304(12)
H1 H 0.3782 0.8042 -0.3786
C2 C 0.40445(14) 0.88191(19) -0.29036(12)
C3 C 0.46127(15) 0.94734(21) -0.37508(13)
C4 C 0.39368(14) 0.80275(21) -0.49266(14)
C5 C 0.45353(14) 0.91061(20) -0.47578(12)
C6 C 0.42449(14) 0.89130(19) -0.35356(12)
C7 C 0.41634(13) 0.85202(18) -0.45248(12)
N1 N 0.47437(12) 0.95477(17) -0.43368(11)
H2 H 0.4985 0.9913 -0.4460
O1 O 0.46827(12) 0.92328(17) -0.52833(9)
C8 C 0.36519(15) 0.89956(21) -0.27059(14)
H3 H 0.3509 0.9180 -0.2971
C9 C 0.42360(16) 0.85516(21) -0.24951(13)
H4 H 0.4511 0.8429 -0.2609
C10 C 0.40231(16) 0.84645(22) -0.19200(13)
H5 H 0.4153 0.8274 -0.1647
C11 C 0.34694(14) 0.89027(21) -0.21215(14)
H6 H 0.3207 0.9034 -0.1991
N2 N 0.37597(15) 0.76278(22) -0.52377(13)
N3 N 0.36465(12) 0.86349(17) -0.17334(11)
C12 C 0.4910(2) 1.00249(28) -0.33872(15)
H7 H 0.5193 1.0357 -0.3634
H8 H 0.5122 0.9967 -0.3058
H9 H 0.4610 1.0112 -0.3231
Ag1A Ag 0.1510 0.484300(16) -0.0833
Ag1B Ag 0.515700(16) 0.666700(16) -0.0833
Ag2K Ag 0.3334 0.6667 0.4166
C1A C 0.15652(18) 0.55933(22) -0.39304(12)
C1B C 0.44067(22) 0.59719(13) -0.39304(12)
C1K C 0.26386(13) 0.77400(22) 0.22637(12)
C1J C 0.22600(22) 0.48985(18) 0.22637(12)
C1I C 0.51015(18) 0.73614(13) 0.22637(12)
H1A H 0.1958 0.5740 -0.3786
H1B H 0.4260 0.6218 -0.3786
H1K H 0.2885 0.7593 0.2119
H1J H 0.2407 0.5291 0.2119
H1I H 0.4709 0.7115 0.2119
C2A C 0.11809(19) 0.52254(24) -0.29036(12)
C2B C 0.47746(24) 0.59555(14) -0.29036(12)
C2K C 0.26222(14) 0.81079(24) 0.12369(12)
C2J C 0.18921(24) 0.45142(19) 0.12369(12)
C2I C 0.54858(19) 0.73778(14) 0.12369(12)
C3A C 0.05266(21) 0.51393(26) -0.37508(13)
C3B C 0.48607(26) 0.53873(15) -0.37508(13)
C3K C 0.20540(15) 0.81940(26) 0.20841(13)
C3J C 0.18060(26) 0.38599(21) 0.20841(13)
C3I C 0.61401(21) 0.79460(15) 0.20841(13)
C4A C 0.19725(21) 0.59093(25) -0.49266(14)
C4B C 0.40907(25) 0.60632(14) -0.49266(14)
C4K C 0.27299(14) 0.74240(25) 0.32599(14)
C4J C 0.25760(25) 0.53058(21) 0.32599(14)
C4I C 0.46942(21) 0.72701(14) 0.32599(14)
C5A C 0.08939(20) 0.54292(24) -0.47578(12)
C5B C 0.45708(24) 0.54647(14) -0.47578(12)
C5K C 0.21314(14) 0.79041(24) 0.30911(12)
C5J C 0.20959(24) 0.42272(20) 0.30911(12)
C5I C 0.57728(20) 0.78686(14) 0.30911(12)
C6A C 0.10870(19) 0.53319(24) -0.35356(12)
C6B C 0.46681(24) 0.57551(14) -0.35356(12)
C6K C 0.24218(14) 0.80014(24) 0.18689(12)
C6J C 0.19986(24) 0.44203(19) 0.18689(12)
C6I C 0.55797(19) 0.75782(14) 0.18689(12)
C7A C 0.14798(18) 0.56432(22) -0.45248(12)
C7B C 0.43568(22) 0.58366(13) -0.45248(12)
C7K C 0.25033(13) 0.76901(22) 0.28581(12)
C7J C 0.23099(22) 0.48131(18) 0.28581(12)
C7I C 0.51869(18) 0.74967(13) 0.28581(12)
N1A N 0.04523(17) 0.51960(21) -0.43368(11)
N1B N 0.48040(21) 0.52563(12) -0.43368(11)
N1K N 0.19230(12) 0.81373(21) 0.26701(11)
N1J N 0.18627(21) 0.37856(17) 0.26701(11)
N1I N 0.62144(17) 0.80770(12) 0.26701(11)
H2A H 0.0087 0.5072 -0.4460
H2B H 0.4928 0.5015 -0.4460
H2K H 0.1682 0.8261 0.2793
H2J H 0.1739 0.3420 0.2793
H2I H 0.6580 0.8318 0.2793
O1A O 0.07672(17) 0.54499(21) -0.52833(9)
O1B O 0.45501(21) 0.53173(12) -0.52833(9)
O1K O 0.19840(12) 0.78834(21) 0.36166(9)
O1J O 0.21166(21) 0.41005(17) 0.36166(9)
O1I O 0.58995(17) 0.80160(12) 0.36166(9)
C8A C 0.10044(21) 0.46563(26) -0.27059(14)
C8B C 0.53437(26) 0.63481(15) -0.27059(14)
C8K C 0.30148(15) 0.86770(26) 0.10392(14)
C8J C 0.13230(26) 0.43377(21) 0.10392(14)
C8I C 0.56623(21) 0.69852(15) 0.10392(14)
H3A H 0.0820 0.4329 -0.2971
H3B H 0.5671 0.6491 -0.2971
H3K H 0.3158 0.9004 0.1304
H3J H 0.0996 0.4153 0.1304
H3I H 0.5847 0.6842 0.1304
C9A C 0.14484(21) 0.56844(26) -0.24951(13)
C9B C 0.43156(26) 0.57640(16) -0.24951(13)
C9K C 0.24307(16) 0.76489(26) 0.08284(13)
C9J C 0.23511(26) 0.47817(21) 0.08284(13)
C9I C 0.52183(21) 0.75693(16) 0.08284(13)
H4A H 0.1571 0.6082 -0.2609
H4B H 0.3918 0.5489 -0.2609
H4K H 0.2156 0.7251 0.0942
H4J H 0.2749 0.4904 0.0942
H4I H 0.5096 0.7844 0.0942
C10A C 0.15355(22) 0.55586(27) -0.19200(13)
C10B C 0.44414(27) 0.59769(16) -0.19200(13)
C10K C 0.26436(16) 0.77747(27) 0.02533(13)
C10J C 0.22253(27) 0.48688(22) 0.02533(13)
C10I C 0.51312(22) 0.73564(16) 0.02533(13)
H5A H 0.1726 0.5879 -0.1647
H5B H 0.4121 0.5847 -0.1647
H5K H 0.2514 0.7454 -0.0020
H5J H 0.2546 0.5059 -0.0020
H5I H 0.4941 0.7486 -0.0020
C11A C 0.10973(21) 0.45667(25) -0.21215(14)
C11B C 0.54333(25) 0.65306(14) -0.21215(14)
C11K C 0.31973(14) 0.87666(25) 0.04548(14)
C11J C 0.12334(25) 0.44306(21) 0.04548(14)
C11I C 0.55694(21) 0.68027(14) 0.04548(14)
H6A H 0.0966 0.4173 -0.1991
H6B H 0.5827 0.6793 -0.1991
H6K H 0.3460 0.9160 0.0324
H6J H 0.0840 0.4299 0.0324
H6I H 0.5701 0.6540 0.0324
N2A N 0.23722(22) 0.61319(27) -0.52377(13)
N2B N 0.38681(27) 0.62403(15) -0.52377(13)
N2I N 0.42945(22) 0.70930(15) -0.64290(13)
N2J N 0.27986(27) 0.57055(22) -0.64290(13)
N2K N 0.29070(15) 0.72014(27) -0.64290(13)
N2K_2 N 0.29070(15) 0.72014(27) 0.35710(13)
N2J_2 N 0.27986(27) 0.57055(22) 0.35710(13)
N2I_2 N 0.42945(22) 0.70930(15) 0.35710(13)
N3A N 0.13651(17) 0.50116(21) -0.17334(11)
N3B N 0.49884(21) 0.63535(12) -0.17334(11)
N3K N 0.30202(12) 0.83217(21) 0.00667(11)
N3J N 0.16783(21) 0.46984(17) 0.00667(11)
N3I N 0.53016(17) 0.69798(12) 0.00667(11)
C12A C -0.00249(28) 0.48851(34) -0.33872(15)
C12B C 0.51149(34) 0.5090(2) -0.33872(15)
C12K C 0.1757(2) 0.84482(34) 0.17205(15)
C12J C 0.15518(34) 0.33084(28) 0.17205(15)
C12I C 0.66916(28) 0.8243(2) 0.17205(15)
H7A H -0.0357 0.4836 -0.3634
H7B H 0.5164 0.4807 -0.3634
H7K H 0.1474 0.8497 0.1967
H7J H 0.1503 0.2976 0.1967
H7I H 0.7024 0.8526 0.1967
H8A H 0.0033 0.5155 -0.3058
H8B H 0.4845 0.4878 -0.3058
H8K H 0.1545 0.8178 0.1391
H8J H 0.1822 0.3366 0.1391
H8I H 0.6634 0.8455 0.1391
H9A H -0.0112 0.4498 -0.3231
H9B H 0.5502 0.5390 -0.3231
H9K H 0.2057 0.8835 0.1564
H9J H 0.1165 0.3221 0.1564
H9I H 0.6779 0.7943 0.1564
loop_
_geom_bond_atom_site_label_1
_geom_bond_atom_site_label_2
_geom_bond_site_symmetry_1
_geom_bond_site_symmetry_2
Ag1 N3 1_555 1_555
Ag2 N2 1_555 1_555
C1 H1 1_555 1_555
C2 C6 1_555 1_555
C3 C6 1_555 1_555
C4 C7 1_555 1_555
C5 C7 1_555 1_555
C6 C1 1_555 1_555
C7 C1 1_555 1_555
N1 C3 1_555 1_555
H2 N1 1_555 1_555
O1 C5 1_555 1_555
C8 C2 1_555 1_555
H3 C8 1_555 1_555
C9 C2 1_555 1_555
H4 C9 1_555 1_555
C10 C9 1_555 1_555
H5 C10 1_555 1_555
C11 C8 1_555 1_555
H6 C11 1_555 1_555
N2 C4 1_555 1_555
N3 C10 1_555 1_555
C12 C3 1_555 1_555
H7 C12 1_555 1_555
H8 C12 1_555 1_555
H9 C12 1_555 1_555
As1 F1 1_555 1_555
As2 F2 1_555 1_555
F3 As2 1_555 1_555
F4 As2 1_555 1_555
O2 C13 1_555 1_555
C13 H10 1_555 1_555
H11 C13 1_555 1_555
H12 C13 1_555 1_555
Ag1A N3A 1_555 1_555
Ag1B N3B 1_555 1_555
Ag2K N2K_2 1_555 1_555
C1A H1A 1_555 1_555
C1B H1B 1_555 1_555
C1K H1K 1_555 1_555
C1J H1J 1_555 1_555
C1I H1I 1_555 1_555
C2A C6A 1_555 1_555
C2B C6B 1_555 1_555
C2K C6K 1_555 1_555
C2J C6J 1_555 1_555
C2I C6I 1_555 1_555
C3A C6A 1_555 1_555
C3B C6B 1_555 1_555
C3K C6K 1_555 1_555
C3J C6J 1_555 1_555
C3I C6I 1_555 1_555
C4A C7A 1_555 1_555
C4B C7B 1_555 1_555
C4K C7K 1_555 1_555
C4J C7J 1_555 1_555
C4I C7I 1_555 1_555
C5A C7A 1_555 1_555
C5B C7B 1_555 1_555
C5K C7K 1_555 1_555
C5J C7J 1_555 1_555
C5I C7I 1_555 1_555
C6A C1A 1_555 1_555
C6B C1B 1_555 1_555
C6K C1K 1_555 1_555
C6J C1J 1_555 1_555
C6I C1I 1_555 1_555
C7A C1A 1_555 1_555
C7B C1B 1_555 1_555
C7K C1K 1_555 1_555
C7J C1J 1_555 1_555
C7I C1I 1_555 1_555
N1A C3A 1_555 1_555
N1B C3B 1_555 1_555
N1K C3K 1_555 1_555
N1J C3J 1_555 1_555
N1I C3I 1_555 1_555
H2A N1A 1_555 1_555
H2B N1B 1_555 1_555
H2K N1K 1_555 1_555
H2J N1J 1_555 1_555
H2I N1I 1_555 1_555
O1A C5A 1_555 1_555
O1B C5B 1_555 1_555
O1K C5K 1_555 1_555
O1J C5J 1_555 1_555
O1I C5I 1_555 1_555
C8A C2A 1_555 1_555
C8B C2B 1_555 1_555
C8K C2K 1_555 1_555
C8J C2J 1_555 1_555
C8I C2I 1_555 1_555
H3A C8A 1_555 1_555
H3B C8B 1_555 1_555
H3K C8K 1_555 1_555
H3J C8J 1_555 1_555
H3I C8I 1_555 1_555
C9A C2A 1_555 1_555
C9B C2B 1_555 1_555
C9K C2K 1_555 1_555
C9J C2J 1_555 1_555
C9I C2I 1_555 1_555
H4A C9A 1_555 1_555
H4B C9B 1_555 1_555
H4K C9K 1_555 1_555
H4J C9J 1_555 1_555
H4I C9I 1_555 1_555
C10A C9A 1_555 1_555
C10B C9B 1_555 1_555
C10K C9K 1_555 1_555
C10J C9J 1_555 1_555
C10I C9I 1_555 1_555
H5A C10A 1_555 1_555
H5B C10B 1_555 1_555
H5K C10K 1_555 1_555
H5J C10J 1_555 1_555
H5I C10I 1_555 1_555
C11A C8A 1_555 1_555
C11B C8B 1_555 1_555
C11K C8K 1_555 1_555
C11J C8J 1_555 1_555
C11I C8I 1_555 1_555
H6A C11A 1_555 1_555
H6B C11B 1_555 1_555
H6K C11K 1_555 1_555
H6J C11J 1_555 1_555
H6I C11I 1_555 1_555
N2A Ag2 1_555 1_555
N2B Ag2 1_555 1_555
N2I Ag2 1_555 1_555
N2J Ag2 1_555 1_555
N2K Ag2 1_555 1_555
N2K_2 C4K 1_555 1_555
N2J_2 Ag2K 1_555 1_555
N2I_2 Ag2K 1_555 1_555
N3A C10A 1_555 1_555
N3B C10B 1_555 1_555
N3K Ag1 1_555 1_555
N3J Ag1A 1_555 1_555
N3I Ag1B 1_555 1_555
C12A C3A 1_555 1_555
C12B C3B 1_555 1_555
C12K C3K 1_555 1_555
C12J C3J 1_555 1_555
C12I C3I 1_555 1_555
H7A C12A 1_555 1_555
H7B C12B 1_555 1_555
H7K C12K 1_555 1_555
H7J C12J 1_555 1_555
H7I C12I 1_555 1_555
H8A C12A 1_555 1_555
H8B C12B 1_555 1_555
H8K C12K 1_555 1_555
H8J C12J 1_555 1_555
H8I C12I 1_555 1_555
H9A C12A 1_555 1_555
H9B C12B 1_555 1_555
H9K C12K 1_555 1_555
H9J C12J 1_555 1_555
H9I C12I 1_555 1_555
F1A As1 1_555 1_555
F1B As1 1_555 1_555
F1DA As1 1_555 1_555
F1EA As1 1_555 1_555
F1FA As1 1_555 1_555
F2K As2 1_555 1_555
F3K As2 1_555 1_555
F4K As2 1_555 1_555
C13O O2 1_555 1_555
H10O C13O 1_555 1_555
H11O C13O 1_555 1_555
H12O C13O 1_555 1_555
C5 N1 1_555 1_555
C11 N3 1_555 1_555
C4A N2A 1_555 1_555
C4B N2B 1_555 1_555
C4J N2J_2 1_555 1_555
C4I N2I_2 1_555 1_555
C5A N1A 1_555 1_555
C5B N1B 1_555 1_555
C5K N1K 1_555 1_555
C5J N1J 1_555 1_555
C5I N1I 1_555 1_555
C10K N3K 1_555 1_555
C10J N3J 1_555 1_555
C10I N3I 1_555 1_555
C11A N3A 1_555 1_555
C11B N3B 1_555 1_555
C11K N3K 1_555 1_555
C11J N3J 1_555 1_555
C11I N3I 1_555 1_555

#END
