
#######################################################################
#
#                 Cambridge Crystallographic Data Centre
#                                CCDC 
#
#######################################################################
#
# If this CIF has been generated from an entry in the Cambridge 
# Structural Database, then it will include bibliographic, chemical, 
# crystal, experimental, refinement or atomic coordinate data resulting 
# from the CCDC's data processing and validation procedures.
#
#######################################################################

data_UHEYAJ
_symmetry_cell_setting           monoclinic
_symmetry_space_group_name_H-M   'C 2/c'
_symmetry_Int_Tables_number      15
_space_group_name_Hall           '-C 2yn'
loop_
_symmetry_equiv_pos_site_id
_symmetry_equiv_pos_as_xyz
1 x,y,z
2 -x,y,1/2-z
3 1/2+x,1/2+y,z
4 1/2-x,1/2+y,1/2-z
5 -x,-y,-z
6 x,-y,1/2+z
7 1/2-x,1/2-y,-z
8 1/2+x,1/2-y,1/2+z
_cell_length_a                   16.408(3)
_cell_length_b                   12.446(3)
_cell_length_c                   13.716(3)
_cell_angle_alpha                90
_cell_angle_beta                 126.34(3)
_cell_angle_gamma                90
_cell_volume                     2256.25
loop_
_atom_site_label
_atom_site_type_symbol
_atom_site_fract_x
_atom_site_fract_y
_atom_site_fract_z
Na1 Na 0.48718(5) 0.38288(5) 0.09950(6)
O1 O 0.43922(11) 0.57252(10) 0.00878(13)
O2 O 0.32219(13) 0.66504(11) 0.23734(13)
O3 O 0.38723(13) 0.93439(10) 0.05290(16)
O4 O 0.36013(12) 0.47893(11) 0.22130(13)
O5 O 0.44188(18) 0.87984(13) -0.0733(2)
N1 N 0.38583(12) 0.51138(12) 0.14828(13)
N2 N 0.43861(14) 0.77648(14) -0.04652(17)
C1 C 0.41239(12) 0.64115(13) 0.04772(14)
C2 C 0.37978(12) 0.61286(12) 0.12486(14)
C3 C 0.35085(13) 0.69807(14) 0.17442(14)
C4 C 0.35745(12) 0.80641(13) 0.15382(14)
C5 C 0.38458(13) 0.83742(14) 0.07862(16)
C6 C 0.41132(13) 0.75632(12) 0.02275(16)
C7 C 0.3349(2) 0.8910(2) 0.2130(2)
O6 O 0.33193(12) 0.30650(12) -0.05730(13)
O7 O 0.5000 0.27233(15) 0.2500
H1 H 0.336(2) 0.549(3) 0.242(3)
H2 H 0.423(2) 0.911(3) -0.038(3)
H3 H 0.3204(19) 0.300(2) -0.119(3)
H4 H 0.276(3) 0.330(4) -0.070(4)
H5 H 0.452(2) 0.230(2) 0.209(3)
H6 H 0.389(3) 0.940(3) 0.256(3)
H7 H 0.284(2) 0.937(2) 0.157(3)
H8 H 0.302(2) 0.870(3) 0.240(3)
H5A H 0.548(2) 0.230(2) 0.291(3)
Na1A Na 0.51282(5) 0.38288(5) 0.40050(6)
O1A O 0.56078(11) 0.57252(10) 0.49122(13)
O2A O 0.67781(13) 0.66504(11) 0.26266(13)
O3A O 0.61277(13) 0.93439(10) 0.44710(16)
O4A O 0.63987(12) 0.47893(11) 0.27870(13)
O5A O 0.55812(18) 0.87984(13) 0.5733(2)
N1A N 0.61417(12) 0.51138(12) 0.35172(13)
N2A N 0.56139(14) 0.77648(14) 0.54652(17)
C1A C 0.58761(12) 0.64115(13) 0.45228(14)
C2A C 0.62022(12) 0.61286(12) 0.37514(14)
C3A C 0.64915(13) 0.69807(14) 0.32558(14)
C4A C 0.64255(12) 0.80641(13) 0.34618(14)
C5A C 0.61542(13) 0.83742(14) 0.42138(16)
C6A C 0.58868(13) 0.75632(12) 0.47725(16)
C7A C 0.6651(2) 0.8910(2) 0.2870(2)
O6A O 0.66807(12) 0.30650(12) 0.55730(13)
H1A H 0.664(2) 0.549(3) 0.258(3)
H2A H 0.577(2) 0.911(3) 0.538(3)
H3A H 0.6796(19) 0.300(2) 0.619(3)
H4A H 0.724(3) 0.330(4) 0.570(4)
H6A H 0.611(3) 0.940(3) 0.244(3)
H7A H 0.716(2) 0.937(2) 0.343(3)
H8A H 0.698(2) 0.870(3) 0.260(3)
Na1D Na 0.51282(5) 0.61712(5) -0.09950(6)
Na1E Na 0.48718(5) 0.61712(5) 0.59950(6)
O1D O 0.56078(11) 0.42748(10) -0.00878(13)
O1E O 0.43922(11) 0.42748(10) 0.50878(13)
N2D N 0.56139(14) 0.22352(14) 0.04652(17)
N2E N 0.43861(14) 0.22352(14) 0.45348(17)
O8 O 0.33952(12) 0.14037(14) 0.07858(15)
H9 H 0.347(2) 0.081(3) 0.072(3)
H10 H 0.335(3) 0.169(3) 0.022(4)
loop_
_geom_bond_atom_site_label_1
_geom_bond_atom_site_label_2
_geom_bond_site_symmetry_1
_geom_bond_site_symmetry_2
Na1 O1 1_555 1_555
O1 C1 1_555 1_555
O2 C3 1_555 1_555
O3 C5 1_555 1_555
O4 N1 1_555 1_555
O5 N2 1_555 1_555
N1 Na1 1_555 1_555
N2 C6 1_555 1_555
C1 C2 1_555 1_555
C2 N1 1_555 1_555
C3 C2 1_555 1_555
C4 C3 1_555 1_555
C5 C4 1_555 1_555
C6 C1 1_555 1_555
C7 C4 1_555 1_555
O6 Na1 1_555 1_555
O7 Na1 1_555 1_555
H1 O4 1_555 1_555
H2 O5 1_555 1_555
H3 O6 1_555 1_555
H4 O6 1_555 1_555
H5 O7 1_555 1_555
H6 C7 1_555 1_555
H7 C7 1_555 1_555
H8 C7 1_555 1_555
O8 H9 1_555 1_555
H10 O8 1_555 1_555
H5A O7 1_555 1_555
Na1A O4 1_555 1_555
O1A Na1A 1_555 1_555
O2A C3A 1_555 1_555
O3A C5A 1_555 1_555
O4A Na1 1_555 1_555
O5A N2A 1_555 1_555
N1A Na1A 1_555 1_555
N2A C6A 1_555 1_555
C1A O1A 1_555 1_555
C2A N1A 1_555 1_555
C3A C2A 1_555 1_555
C4A C3A 1_555 1_555
C5A C4A 1_555 1_555
C6A C1A 1_555 1_555
C7A C4A 1_555 1_555
O6A Na1A 1_555 1_555
H1A O4A 1_555 1_555
H2A O5A 1_555 1_555
H3A O6A 1_555 1_555
H4A O6A 1_555 1_555
H6A C7A 1_555 1_555
H7A C7A 1_555 1_555
H8A C7A 1_555 1_555
Na1D O1 1_555 1_555
Na1E O1A 1_555 1_555
O1D Na1 1_555 1_555
O1E Na1A 1_555 1_555
N2D Na1 1_555 1_555
N2E Na1A 1_555 1_555
N2 Na1D 1_555 1_555
C5 C6 1_555 1_555
O7 Na1A 1_555 1_555
O4A N1A 1_555 1_555
N2A Na1E 1_555 1_555
C1A C2A 1_555 1_555
C5A C6A 1_555 1_555
Na1D O1D 1_555 1_555
Na1E O1E 1_555 1_555

#END
