
#######################################################################
#
#                 Cambridge Crystallographic Data Centre
#                                CCDC 
#
#######################################################################
#
# If this CIF has been generated from an entry in the Cambridge 
# Structural Database, then it will include bibliographic, chemical, 
# crystal, experimental, refinement or atomic coordinate data resulting 
# from the CCDC's data processing and validation procedures.
#
#######################################################################

data_UHIHAU
_symmetry_cell_setting           monoclinic
_symmetry_space_group_name_H-M   'P 21/c'
_symmetry_Int_Tables_number      14
_space_group_name_Hall           '-P 2ybc'
loop_
_symmetry_equiv_pos_site_id
_symmetry_equiv_pos_as_xyz
1 x,y,z
2 x,1/2-y,1/2+z
3 -x,-y,-z
4 -x,1/2+y,1/2-z
_cell_length_a                   12.8591(12)
_cell_length_b                   15.298(3)
_cell_length_c                   11.6854(15)
_cell_angle_alpha                90
_cell_angle_beta                 115.532(7)
_cell_angle_gamma                90
_cell_volume                     2074.25
loop_
_atom_site_label
_atom_site_type_symbol
_atom_site_fract_x
_atom_site_fract_y
_atom_site_fract_z
Fe1 Fe 0.50000 0.00000 0.50000
Fe2 Fe 0.94904(13) -0.09014(11) 1.06393(14)
Fe3 Fe 0.77336(12) -0.01672(11) 0.73123(15)
Cl1 Cl 0.6134(2) 0.0564(2) 0.7196(3)
Cl2 Cl 0.6759(2) -0.0757(2) 0.5236(3)
Cl3 Cl 0.8212(2) -0.1424(2) 0.8472(3)
Cl4 Cl 0.9257(3) 0.0480(2) 0.7130(3)
Cl5 Cl 0.8868(2) 0.0610(2) 0.9849(3)
O1 O 0.5495(7) 0.1103(6) 0.4275(8)
O2 O 0.9949(7) -0.2204(6) 1.1159(9)
O3 O 0.8115(7) -0.1019(7) 1.1146(8)
C1 C 0.5832(19) 0.1077(12) 0.3273(18)
H1 H 0.529 0.0725 0.2551
H2 H 0.6622 0.0841 0.3559
C2 C 0.5776(18) 0.2065(15) 0.2925(19)
H3 H 0.6307 0.2201 0.2539
H4 H 0.4984 0.2237 0.2329
C3 C 0.614(2) 0.2515(14) 0.416(3)
H5 H 0.6987 0.2522 0.4647
H6 H 0.5842 0.3121 0.4053
C4 C 0.559(3) 0.1960(12) 0.477(2)
H7 H 0.607 0.1953 0.5701
H8 H 0.4823 0.2192 0.4602
C5 C 0.927(2) -0.2945(14) 1.068(2)
H9 H 0.8687 -0.2856 0.9789
H10 H 0.8871 -0.312 1.1203
C6 C 1.026(3) -0.3657(13) 1.077(2)
H11 H 0.9977 -0.4267 1.0694
H12 H 1.0555 -0.3546 1.013
C7 C 1.1097(15) -0.3446(12) 1.205(2)
H13 H 1.0938 -0.3761 1.2698
H14 H 1.1895 -0.3571 1.2176
C8 C 1.089(2) -0.2518(15) 1.206(3)
H15 H 1.0882 -0.2374 1.2884
H16 H 1.1554 -0.2207 1.2034
C9 C 0.8084(14) -0.1155(19) 1.2232(18)
H17 H 0.8424 -0.0643 1.2787
H18 H 0.8569 -0.1669 1.2643
C10 C 0.6952(18) -0.130(2) 1.214(2)
H19 H 0.6891 -0.1134 1.2927
H20 H 0.6702 -0.1915 1.1922
C11 C 0.6298(18) -0.0685(17) 1.106(2)
H21 H 0.5509 -0.0908 1.0549
H22 H 0.624 -0.01 1.1392
C12 C 0.6860(15) -0.064(2) 1.039(2)
H23 H 0.6907 -0.0023 1.0155
H24 H 0.6452 -0.0976 0.9592
Cl1B Cl 0.3866(2) -0.0564(2) 0.2804(3)
Cl2B Cl 0.3241(2) 0.0757(2) 0.4764(3)
O1B O 0.4505(7) -0.1103(6) 0.5725(8)
C1B C 0.4168(19) -0.1077(12) 0.6727(18)
H1B H 0.471 -0.0725 0.7449
H2B H 0.3378 -0.0841 0.6441
C2B C 0.4224(18) -0.2065(15) 0.7075(19)
H3B H 0.3693 -0.2201 0.7461
H4B H 0.5016 -0.2237 0.7671
C3B C 0.386(2) -0.2515(14) 0.584(3)
H5B H 0.3013 -0.2522 0.5353
H6B H 0.4158 -0.3121 0.5947
C4B C 0.441(3) -0.1960(12) 0.523(2)
H7B H 0.393 -0.1953 0.4299
H8B H 0.5177 -0.2192 0.5398
Fe3B Fe 0.22664(12) 0.01672(11) 0.26877(15)
Cl3B Cl 0.1788(2) 0.1424(2) 0.1528(3)
Cl4B Cl 0.0743(3) -0.0480(2) 0.2870(3)
Fe2B Fe 0.05096(13) 0.09014(11) -0.06393(14)
Cl5B Cl 1.1132(2) -0.0610(2) 1.0151(3)
O2B O 0.0051(7) 0.2204(6) -0.1159(9)
C5B C 0.073(2) 0.2945(14) -0.068(2)
H9B H 0.1313 0.2856 0.0211
H10B H 0.1129 0.312 -0.1203
C6B C -0.026(3) 0.3657(13) -0.077(2)
H11B H 0.0023 0.4267 -0.0694
H12B H -0.0555 0.3546 -0.013
C7B C -0.1097(15) 0.3446(12) -0.205(2)
H13B H -0.0938 0.3761 -0.2698
H14B H -0.1895 0.3571 -0.2176
C8B C -0.089(2) 0.2518(15) -0.206(3)
H15B H -0.0882 0.2374 -0.2884
H16B H -0.1554 0.2207 -0.2034
O3B O 0.1885(7) 0.1019(7) -0.1146(8)
C9B C 0.1916(14) 0.1155(19) -0.2232(18)
H17B H 0.1576 0.0643 -0.2787
H18B H 0.1431 0.1669 -0.2643
C10B C 0.3048(18) 0.130(2) -0.214(2)
H19B H 0.3109 0.1134 -0.2927
H20B H 0.3298 0.1915 -0.1922
C11B C 0.3702(18) 0.0685(17) -0.106(2)
H21B H 0.4491 0.0908 -0.0549
H22B H 0.376 0.01 -0.1392
C12B C 0.3140(15) 0.064(2) -0.039(2)
H23B H 0.3093 0.0023 -0.0155
H24B H 0.3548 0.0976 0.0408
Cl4B_2 Cl 1.0743(3) -0.0480(2) 1.2870(3)
Fe2B_2 Fe 1.05096(13) 0.09014(11) 0.93607(14)
Fe2_2 Fe -0.05096(13) -0.09014(11) 0.06393(14)
Cl4_2 Cl -0.0743(3) 0.0480(2) -0.2870(3)
Cl5_2 Cl -0.1132(2) 0.0610(2) -0.0151(3)
Cl5B_2 Cl 0.1132(2) -0.0610(2) 0.0151(3)
loop_
_geom_bond_atom_site_label_1
_geom_bond_atom_site_label_2
_geom_bond_site_symmetry_1
_geom_bond_site_symmetry_2
Fe1 Cl1 1_555 1_555
Fe2 Cl3 1_555 1_555
Fe3 Cl1 1_555 1_555
Cl2 Fe1 1_555 1_555
Cl3 Fe3 1_555 1_555
Cl4 Fe3 1_555 1_555
Cl5 Fe2 1_555 1_555
O1 Fe1 1_555 1_555
O2 Fe2 1_555 1_555
O3 Fe2 1_555 1_555
C1 O1 1_555 1_555
H1 C1 1_555 1_555
H2 C1 1_555 1_555
C2 C1 1_555 1_555
H3 C2 1_555 1_555
H4 C2 1_555 1_555
C3 C2 1_555 1_555
H5 C3 1_555 1_555
H6 C3 1_555 1_555
C4 O1 1_555 1_555
H7 C4 1_555 1_555
H8 C4 1_555 1_555
C5 O2 1_555 1_555
H9 C5 1_555 1_555
H10 C5 1_555 1_555
C6 C5 1_555 1_555
H11 C6 1_555 1_555
H12 C6 1_555 1_555
C7 C6 1_555 1_555
H13 C7 1_555 1_555
H14 C7 1_555 1_555
C8 O2 1_555 1_555
H15 C8 1_555 1_555
H16 C8 1_555 1_555
C9 O3 1_555 1_555
H17 C9 1_555 1_555
H18 C9 1_555 1_555
C10 C9 1_555 1_555
H19 C10 1_555 1_555
H20 C10 1_555 1_555
C11 C10 1_555 1_555
H21 C11 1_555 1_555
H22 C11 1_555 1_555
C12 O3 1_555 1_555
H23 C12 1_555 1_555
H24 C12 1_555 1_555
Cl1B Fe1 1_555 1_555
Cl2B Fe1 1_555 1_555
O1B Fe1 1_555 1_555
C1B O1B 1_555 1_555
H1B C1B 1_555 1_555
H2B C1B 1_555 1_555
C2B C1B 1_555 1_555
H3B C2B 1_555 1_555
H4B C2B 1_555 1_555
C3B C2B 1_555 1_555
H5B C3B 1_555 1_555
H6B C3B 1_555 1_555
C4B O1B 1_555 1_555
H7B C4B 1_555 1_555
H8B C4B 1_555 1_555
Fe3B Cl1B 1_555 1_555
Cl3B Fe3B 1_555 1_555
Cl4B Fe3B 1_555 1_555
Fe2B Cl3B 1_555 1_555
Cl5B Fe2 1_555 1_555
O2B Fe2B 1_555 1_555
C5B O2B 1_555 1_555
H9B C5B 1_555 1_555
H10B C5B 1_555 1_555
C6B C5B 1_555 1_555
H11B C6B 1_555 1_555
H12B C6B 1_555 1_555
C7B C6B 1_555 1_555
H13B C7B 1_555 1_555
H14B C7B 1_555 1_555
C8B O2B 1_555 1_555
H15B C8B 1_555 1_555
H16B C8B 1_555 1_555
O3B Fe2B 1_555 1_555
C9B O3B 1_555 1_555
H17B C9B 1_555 1_555
H18B C9B 1_555 1_555
C10B C9B 1_555 1_555
H19B C10B 1_555 1_555
H20B C10B 1_555 1_555
C11B C10B 1_555 1_555
H21B C11B 1_555 1_555
H22B C11B 1_555 1_555
C12B O3B 1_555 1_555
H23B C12B 1_555 1_555
H24B C12B 1_555 1_555
Cl4B_2 Fe2 1_555 1_555
Fe2B_2 Cl4 1_555 1_555
Fe2_2 Cl4B 1_555 1_555
Cl4_2 Fe2B 1_555 1_555
Cl5_2 Fe2B 1_555 1_555
Cl5B_2 Fe2B 1_555 1_555
Fe3 Cl2 1_555 1_555
Cl5 Fe2B_2 1_555 1_555
C3 C4 1_555 1_555
C7 C8 1_555 1_555
C11 C12 1_555 1_555
Cl2B Fe3B 1_555 1_555
C3B C4B 1_555 1_555
Cl5B Fe2B_2 1_555 1_555
C7B C8B 1_555 1_555
C11B C12B 1_555 1_555
Fe2_2 Cl5_2 1_555 1_555
Fe2_2 Cl5B_2 1_555 1_555

#END
