
#######################################################################
#
#                 Cambridge Crystallographic Data Centre
#                                CCDC 
#
#######################################################################
#
# If this CIF has been generated from an entry in the Cambridge 
# Structural Database, then it will include bibliographic, chemical, 
# crystal, experimental, refinement or atomic coordinate data resulting 
# from the CCDC's data processing and validation procedures.
#
#######################################################################

data_UHISEK
_symmetry_cell_setting           triclinic
_symmetry_space_group_name_H-M   'P -1'
_symmetry_Int_Tables_number      2
_space_group_name_Hall           '-P 1'
loop_
_symmetry_equiv_pos_site_id
_symmetry_equiv_pos_as_xyz
1 x,y,z
2 -x,-y,-z
_cell_length_a                   8.39360(10)
_cell_length_b                   10.53470(10)
_cell_length_c                   17.4093(2)
_cell_angle_alpha                99.1740(10)
_cell_angle_beta                 97.1300(10)
_cell_angle_gamma                100.3480(10)
_cell_volume                     1476.38
loop_
_atom_site_label
_atom_site_type_symbol
_atom_site_fract_x
_atom_site_fract_y
_atom_site_fract_z
C1 C 0.9749(4) 0.5575(3) 0.30462(19)
C2 C 0.9723(4) 0.4273(3) 0.3289(2)
C3 C 1.0637(5) 0.4200(4) 0.3999(2)
H1 H 1.1287 0.4957 0.4314
C4 C 1.0581(5) 0.3000(4) 0.4238(2)
H2 H 1.1176 0.2956 0.4717
C5 C 0.9638(5) 0.1864(4) 0.3762(2)
H3 H 0.9625 0.1059 0.3918
C6 C 0.8716(4) 0.1924(3) 0.3055(2)
C7 C 0.8768(4) 0.3137(3) 0.2825(2)
H4 H 0.8151 0.3184 0.2352
C8 C 0.7565(4) 0.0745(3) 0.2572(2)
C9 C 0.8382(4) 0.0036(3) -0.14068(18)
C10 C 0.8723(4) -0.0934(3) -0.08926(18)
C11 C 0.9970(5) -0.1622(4) -0.1002(2)
H5 H 1.0598 -0.1491 -0.1397
C12 C 1.0269(6) -0.2504(5) -0.0517(3)
H6 H 1.1077 -0.2987 -0.0600
C13 C 0.9374(5) -0.2671(4) 0.0088(2)
H7 H 0.9601 -0.3250 0.0418
C14 C 0.8149(4) -0.1984(3) 0.02047(18)
C15 C 0.7806(4) -0.1127(3) -0.02967(18)
H8 H 0.6957 -0.0682 -0.0231
C16 C 0.7224(5) -0.2100(4) 0.08796(19)
C17 C 0.6890(4) 0.0008(3) 0.63713(18)
C18 C 0.5991(4) -0.0946(3) 0.56475(18)
C19 C 0.4365(5) -0.1538(4) 0.5632(2)
H9 H 0.3873 -0.1377 0.6078
C20 C 0.3473(5) -0.2363(5) 0.4961(2)
H10 H 0.2383 -0.2750 0.4954
C21 C 0.4204(5) -0.2609(4) 0.4305(2)
H11 H 0.3597 -0.3155 0.3851
C22 C 0.5830(4) -0.2056(3) 0.43108(18)
C23 C 0.6595(4) -0.2309(3) 0.35878(18)
C24 C 0.6727(4) -0.1213(3) 0.49879(18)
H12 H 0.7819 -0.0831 0.4995
C25 C 0.2145(5) -0.3723(4) 0.1614(2)
H13 H 0.1332 -0.4483 0.1475
Eu1 Eu 0.47769(2) -0.138666(16) 0.203295(9)
Eu2 Eu 0.966359(19) 0.807442(15) 0.262312(8)
O1 O 1.0707(3) 0.6570(2) 0.34339(14)
O2 O 0.8769(3) 0.5641(2) 0.24341(14)
O3 O 0.6385(3) 0.0886(2) 0.21063(15)
O4 O 0.7742(3) -0.0401(2) 0.26770(14)
O5 O 0.9382(3) 0.0333(2) -0.18609(14)
O6 O 0.7105(3) 0.0489(3) -0.13402(14)
O7 O 0.5935(4) -0.1665(3) 0.08689(15)
O8 O 0.7768(4) -0.2647(3) 0.14286(13)
O9 O 0.8385(3) 0.0472(2) 0.64084(13)
O10 O 0.6054(3) 0.0306(3) 0.69045(14)
O11 O 0.5652(3) -0.2690(2) 0.29226(12)
O12 O 0.8120(3) -0.2141(3) 0.36658(14)
O13 O 0.3485(3) -0.3733(3) 0.13763(15)
O14 O 0.1844(3) -0.2750(2) 0.20253(15)
Eu1A Eu 0.52231(2) 0.138666(16) -0.203295(9)
Eu1A_2 Eu 0.52231(2) 0.138666(16) 0.796705(9)
Eu2_2 Eu 0.966359(19) -0.192558(15) 0.262312(8)
Eu2A Eu 1.033641(19) 0.192558(15) -0.262312(8)
Eu2A_2 Eu 1.033641(19) 0.192558(15) 0.737688(8)
Eu2_3 Eu -0.033641(19) -0.192558(15) 0.262312(8)
O4_2 O 0.7742(3) 0.9599(2) 0.26770(14)
O5A O 1.0618(3) 0.9667(2) 0.18609(14)
O6A O 0.2895(3) -0.0489(3) 0.13402(14)
O8_2 O 0.7768(4) 0.7353(3) 0.14286(13)
O9A O 1.1615(3) 0.9528(2) 0.35916(13)
O10A O 0.3946(3) -0.0306(3) 0.30955(14)
O12_2 O 0.8120(3) 0.7859(3) 0.36658(14)
O14_2 O 1.1844(3) 0.7250(2) 0.20253(15)
C26 C 0.5589(10) 0.3879(8) 0.1065(5)
H14 H 0.6036 0.3110 0.1102
H15 H 0.6256 0.4440 0.0793
H16 H 0.4492 0.3625 0.0780
C27 C 0.4611(9) 0.3834(7) 0.2353(7)
H17 H 0.3461 0.3743 0.2172
H18 H 0.4873 0.4288 0.2891
H19 H 0.4878 0.2980 0.2318
N1 N 0.5563(5) 0.4587(4) 0.1861(4)
H20 H 0.523(6) 0.529(3) 0.180(3)
H21 H 0.654(3) 0.483(5) 0.213(3)
loop_
_geom_bond_atom_site_label_1
_geom_bond_atom_site_label_2
_geom_bond_site_symmetry_1
_geom_bond_site_symmetry_2
C1 C2 1_555 1_555
C2 C3 1_555 1_555
C3 H1 1_555 1_555
C4 C3 1_555 1_555
H2 C4 1_555 1_555
C5 C4 1_555 1_555
H3 C5 1_555 1_555
C6 C5 1_555 1_555
C7 C2 1_555 1_555
H4 C7 1_555 1_555
C8 C6 1_555 1_555
C9 C10 1_555 1_555
C10 C11 1_555 1_555
C11 H5 1_555 1_555
C12 C11 1_555 1_555
H6 C12 1_555 1_555
C13 C12 1_555 1_555
H7 C13 1_555 1_555
C14 C13 1_555 1_555
C15 C10 1_555 1_555
H8 C15 1_555 1_555
C16 C14 1_555 1_555
C17 C18 1_555 1_555
C18 C19 1_555 1_555
C19 H9 1_555 1_555
C20 C19 1_555 1_555
H10 C20 1_555 1_555
C21 C20 1_555 1_555
H11 C21 1_555 1_555
C22 C21 1_555 1_555
C23 C22 1_555 1_555
C24 C18 1_555 1_555
H12 C24 1_555 1_555
C25 H13 1_555 1_555
C26 H14 1_555 1_555
H15 C26 1_555 1_555
H16 C26 1_555 1_555
C27 H17 1_555 1_555
H18 C27 1_555 1_555
H19 C27 1_555 1_555
Eu1 O3 1_555 1_555
Eu2 O1 1_555 1_555
N1 C26 1_555 1_555
O1 C1 1_555 1_555
O2 C1 1_555 1_555
O3 C8 1_555 1_555
O4 C8 1_555 1_555
O5 C9 1_555 1_555
O6 C9 1_555 1_555
O7 C16 1_555 1_555
O8 C16 1_555 1_555
O9 C17 1_555 1_555
O10 C17 1_555 1_555
O11 C23 1_555 1_555
O12 C23 1_555 1_555
O13 C25 1_555 1_555
O14 C25 1_555 1_555
H20 N1 1_555 1_555
H21 N1 1_555 1_555
Eu1A O6 1_555 1_555
Eu1A_2 O10 1_555 1_555
Eu2_2 O4 1_555 1_555
Eu2A O5 1_555 1_555
Eu2A_2 O9 1_555 1_555
Eu2_3 O14 1_555 1_555
O4_2 Eu2 1_555 1_555
O5A Eu2 1_555 1_555
O6A Eu1 1_555 1_555
O8_2 Eu2 1_555 1_555
O9A Eu2 1_555 1_555
O10A Eu1 1_555 1_555
O12_2 Eu2 1_555 1_555
O14_2 Eu2 1_555 1_555
C6 C7 1_555 1_555
C14 C15 1_555 1_555
C22 C24 1_555 1_555
C27 N1 1_555 1_555
Eu1 O4 1_555 1_555
Eu1 O7 1_555 1_555
Eu1 O11 1_555 1_555
Eu1 O13 1_555 1_555
Eu1 O14 1_555 1_555
Eu2 O2 1_555 1_555
O8 Eu2_2 1_555 1_555
O12 Eu2_2 1_555 1_555

#END
