
#######################################################################
#
#                 Cambridge Crystallographic Data Centre
#                                CCDC 
#
#######################################################################
#
# If this CIF has been generated from an entry in the Cambridge 
# Structural Database, then it will include bibliographic, chemical, 
# crystal, experimental, refinement or atomic coordinate data resulting 
# from the CCDC's data processing and validation procedures.
#
#######################################################################

data_UHIVEN
_symmetry_cell_setting           triclinic
_symmetry_space_group_name_H-M   'P -1'
_symmetry_Int_Tables_number      2
_space_group_name_Hall           '-P 1'
loop_
_symmetry_equiv_pos_site_id
_symmetry_equiv_pos_as_xyz
1 x,y,z
2 -x,-y,-z
_cell_length_a                   9.547(7)
_cell_length_b                   9.870(7)
_cell_length_c                   11.109(12)
_cell_angle_alpha                88.79(4)
_cell_angle_beta                 101.42(4)
_cell_angle_gamma                90.25(2)
_cell_volume                     1025.84
loop_
_atom_site_label
_atom_site_type_symbol
_atom_site_fract_x
_atom_site_fract_y
_atom_site_fract_z
C1 C 0.2304(10) 0.3520(9) 0.4305(11)
C2 C 0.2947(13) 0.2217(9) 0.4145(18)
C3 C 0.3895(10) 0.3422(12) 0.4481(19)
C4 C 0.0380(9) 0.3090(10) 0.5479(10)
C5 C 0.2319(10) 0.4533(11) 0.6300(11)
C6 C 0.1826(9) 0.4789(10) 0.7359(10)
C7 C 0.2697(9) 0.5730(11) 0.8277(11)
C8 C 0.0545(10) 0.4121(11) 0.7563(9)
C9 C -0.0184(9) 0.3304(10) 0.6536(10)
C10 C -0.1473(11) 0.2647(11) 0.6633(11)
C11 C -0.2111(9) 0.1821(11) 0.5714(10)
C12 C -0.1576(9) 0.1583(10) 0.4635(10)
C13 C -0.1484(11) 0.0277(11) 0.2813(13)
C14 C -0.2238(11) -0.0887(12) 0.2075(14)
C15 C -0.4491(11) -0.0160(12) 0.2489(14)
C16 C -0.3766(10) 0.1003(11) 0.3224(14)
C17 C -0.0314(10) 0.2242(11) 0.4539(11)
O1 O 0.3993(9) 0.5885(8) 0.8208(13)
O2 O 0.2088(9) 0.6334(8) 0.9022(12)
O3 O 0.0061(9) 0.4222(8) 0.8535(11)
N1 N 0.1672(8) 0.3717(9) 0.5386(9)
N2 N -0.2269(8) 0.0662(8) 0.3768(10)
N3 N -0.3713(10) -0.0482(10) 0.1494(12)
F1 F -0.3303(7) 0.1133(7) 0.5881(11)
Na1 Na 0.1775(6) 0.4749(5) 1.0602(9)
O4 O 0.0760(10) 0.2833(10) 1.1441(17)
O5 O 0.3882(11) 0.5985(10) 1.1899(17)
O6 O 0.3578(11) 0.3069(10) 1.0301(18)
H1 H 0.1852 0.3979 0.3577
H2 H 0.4480 0.3468 0.5288
H3 H 0.4395 0.3825 0.3909
H4 H 0.2925 0.1501 0.4722
H5 H 0.2840 0.1858 0.3343
H6 H 0.3183 0.4966 0.6201
H7 H -0.1886 0.2775 0.7331
H8 H 0.0097 0.2108 0.3835
H9 H -0.0543 0.0015 0.3186
H10 H -0.1450 0.1037 0.2277
H11 H -0.2267 -0.1650 0.2612
H12 H -0.1726 -0.1122 0.1460
H13 H -0.5448 0.0084 0.2139
H14 H -0.4490 -0.0932 0.3017
H15 H -0.4265 0.1194 0.3866
H16 H -0.3787 0.1779 0.2704
H17 H -0.4146 -0.1155 0.1061
O3A O -0.0061(9) 0.5778(8) 1.1465(11)
Na1A Na -0.1775(6) 0.5251(5) 0.9398(9)
O7 O 0.1240(14) 0.0022(13) 1.106(2)
O8 O -0.3291(10) 0.1526(9) -0.0256(16)
loop_
_geom_bond_atom_site_label_1
_geom_bond_atom_site_label_2
_geom_bond_site_symmetry_1
_geom_bond_site_symmetry_2
C1 C2 1_555 1_555
C2 C3 1_555 1_555
C3 C1 1_555 1_555
C4 C9 1_555 1_555
C5 C6 1_555 1_555
C6 C7 1_555 1_555
C7 O1 1_555 1_555
C8 C6 1_555 1_555
C9 C8 1_555 1_555
C10 C9 1_555 1_555
C11 C10 1_555 1_555
C12 C11 1_555 1_555
C13 C14 1_555 1_555
C14 N3 1_555 1_555
C15 C16 1_555 1_555
C16 N2 1_555 1_555
C17 C4 1_555 1_555
O2 C7 1_555 1_555
O3 C8 1_555 1_555
N1 C1 1_555 1_555
N2 C12 1_555 1_555
N3 C15 1_555 1_555
F1 C11 1_555 1_555
Na1 O2 1_555 1_555
O4 Na1 1_555 1_555
O5 Na1 1_555 1_555
O6 Na1 1_555 1_555
H1 C1 1_555 1_555
H2 C3 1_555 1_555
H3 C3 1_555 1_555
H4 C2 1_555 1_555
H5 C2 1_555 1_555
H6 C5 1_555 1_555
H7 C10 1_555 1_555
H8 C17 1_555 1_555
H9 C13 1_555 1_555
H10 C13 1_555 1_555
H11 C14 1_555 1_555
H12 C14 1_555 1_555
H13 C15 1_555 1_555
H14 C15 1_555 1_555
H15 C16 1_555 1_555
H16 C16 1_555 1_555
H17 N3 1_555 1_555
O3A Na1 1_555 1_555
Na1A O3 1_555 1_555
C4 N1 1_555 1_555
C5 N1 1_555 1_555
C12 C17 1_555 1_555
C13 N2 1_555 1_555
O3 Na1 1_555 1_555
O3A Na1A 1_555 1_555

#END
