
#######################################################################
#
#                 Cambridge Crystallographic Data Centre
#                                CCDC 
#
#######################################################################
#
# If this CIF has been generated from an entry in the Cambridge 
# Structural Database, then it will include bibliographic, chemical, 
# crystal, experimental, refinement or atomic coordinate data resulting 
# from the CCDC's data processing and validation procedures.
#
#######################################################################

data_UHIXUF
_symmetry_cell_setting           monoclinic
_symmetry_space_group_name_H-M   'P 21/n'
_symmetry_Int_Tables_number      14
_space_group_name_Hall           '-P 2yn'
loop_
_symmetry_equiv_pos_site_id
_symmetry_equiv_pos_as_xyz
1 x,y,z
2 1/2-x,1/2+y,1/2-z
3 -x,-y,-z
4 1/2+x,1/2-y,1/2+z
_cell_length_a                   9.9865(14)
_cell_length_b                   14.840(2)
_cell_length_c                   20.416(3)
_cell_angle_alpha                90
_cell_angle_beta                 100.363(4)
_cell_angle_gamma                90
_cell_volume                     2976.29
loop_
_atom_site_label
_atom_site_type_symbol
_atom_site_fract_x
_atom_site_fract_y
_atom_site_fract_z
Cu1 Cu 0.5000 0.0000 0.0000
S1 S 0.59182(12) -0.27537(7) 0.11302(7)
N1 N 0.5415(2) -0.11030(13) 0.05213(9)
C1 C 0.5626(2) -0.17824(17) 0.07741(11)
N2 N 0.6813(2) 0.07962(13) 0.08197(8)
C2 C 0.8028(2) 0.09311(16) 0.19383(10)
C3 C 0.7237(2) 0.04557(16) 0.14271(10)
H1 H 0.6987 -0.0131 0.1511
C4 C 0.7224(3) 0.16189(18) 0.07010(11)
H2 H 0.6929 0.1868 0.0282
C5 C 0.8061(3) 0.2119(2) 0.11661(14)
H3 H 0.8357 0.2685 0.1057
C6 C 0.8465(3) 0.1774(2) 0.18024(13)
H4 H 0.9020 0.2108 0.2129
N3 N 0.83951(18) 0.05542(14) 0.25797(8)
H5 H 0.9243 0.0556 0.2759
N4 N 0.67326(18) -0.05791(13) 0.76989(8)
H6 H 0.5871 -0.0530 0.7559
O1 O 0.62916(17) 0.01356(14) 0.27097(8)
O2 O 0.87501(17) -0.07674(15) 0.73648(8)
C7 C 0.7505(2) 0.01914(16) 0.29312(10)
C8 C 0.8148(2) -0.01310(18) 0.36142(11)
H7 H 0.8909 0.0259 0.3786
H8 H 0.8505 -0.0733 0.3577
C9 C 0.7187(2) -0.01505(16) 0.41063(11)
H9 H 0.6470 -0.0584 0.3958
H10 H 0.6768 0.0438 0.4117
C10 C 0.7898(2) -0.03987(19) 0.48070(11)
H11 H 0.8378 -0.0963 0.4788
H12 H 0.8569 0.0060 0.4966
C11 C 0.6949(2) -0.04936(18) 0.53020(10)
H13 H 0.6393 -0.1028 0.5194
H14 H 0.6345 0.0023 0.5262
C12 C 0.7697(2) -0.05634(17) 0.60166(10)
H15 H 0.8298 -0.1082 0.6056
H16 H 0.8258 -0.0031 0.6123
C13 C 0.6759(2) -0.06531(16) 0.65182(10)
H17 H 0.6125 -0.0152 0.6465
H18 H 0.6236 -0.1204 0.6430
C14 C 0.7523(2) -0.06688(16) 0.72245(10)
N5 N 0.64795(19) -0.03257(13) 0.94451(8)
C15 C 0.7173(2) -0.05584(14) 0.83928(9)
C16 C 0.6214(2) -0.03434(15) 0.87800(10)
H19 H 0.5336 -0.0204 0.8565
C17 C 0.7744(3) -0.05161(17) 0.97487(10)
H20 H 0.7943 -0.0520 1.0212
C18 C 0.8760(3) -0.07071(18) 0.93984(11)
H21 H 0.9638 -0.0818 0.9625
C19 C 0.8490(3) -0.07355(18) 0.87136(11)
H22 H 0.9172 -0.0870 0.8473
Cu1_2 Cu 0.5000 0.0000 1.0000
Cu1_3 Cu 0.5000 0.0000 -1.0000
S1B S 0.40818(12) 0.27537(7) -0.11302(7)
N1B N 0.4585(2) 0.11030(13) -0.05213(9)
C1B C 0.4374(2) 0.17824(17) -0.07741(11)
N2B N 0.3187(2) -0.07962(13) -0.08197(8)
C2B C 0.1972(2) -0.09311(16) -0.19383(10)
C3B C 0.2763(2) -0.04557(16) -0.14271(10)
H1B H 0.3013 0.0131 -0.1511
C4B C 0.2776(3) -0.16189(18) -0.07010(11)
H2B H 0.3071 -0.1868 -0.0282
C5B C 0.1939(3) -0.2119(2) -0.11661(14)
H3B H 0.1643 -0.2685 -0.1057
C6B C 0.1535(3) -0.1774(2) -0.18024(13)
H4B H 0.0980 -0.2108 -0.2129
N3B N 0.16049(18) -0.05542(14) -0.25797(8)
H5B H 0.0757 -0.0556 -0.2759
N4B N 0.32674(18) 0.05791(13) -0.76989(8)
H6B H 0.4129 0.0530 -0.7559
O1B O 0.37084(17) -0.01356(14) -0.27097(8)
O2B O 0.12499(17) 0.07674(15) -0.73648(8)
C7B C 0.2495(2) -0.01914(16) -0.29312(10)
C8B C 0.1852(2) 0.01310(18) -0.36142(11)
H7B H 0.1091 -0.0259 -0.3786
H8B H 0.1495 0.0733 -0.3577
C9B C 0.2813(2) 0.01505(16) -0.41063(11)
H9B H 0.3530 0.0584 -0.3958
H10B H 0.3232 -0.0438 -0.4117
C10B C 0.2102(2) 0.03987(19) -0.48070(11)
H11B H 0.1622 0.0963 -0.4788
H12B H 0.1431 -0.0060 -0.4966
C11B C 0.3051(2) 0.04936(18) -0.53020(10)
H13B H 0.3607 0.1028 -0.5194
H14B H 0.3655 -0.0023 -0.5262
C12B C 0.2303(2) 0.05634(17) -0.60166(10)
H15B H 0.1702 0.1082 -0.6056
H16B H 0.1742 0.0031 -0.6123
C13B C 0.3241(2) 0.06531(16) -0.65182(10)
H17B H 0.3875 0.0152 -0.6465
H18B H 0.3764 0.1204 -0.6430
C14B C 0.2477(2) 0.06688(16) -0.72245(10)
N5B N 0.35205(19) 0.03257(13) -0.94451(8)
N5_2 N 0.64795(19) -0.03257(13) -0.05549(8)
N5B_2 N 0.35205(19) 0.03257(13) 0.05549(8)
C15B C 0.2827(2) 0.05584(14) -0.83928(9)
C16B C 0.3786(2) 0.03434(15) -0.87800(10)
H19B H 0.4664 0.0204 -0.8565
C17B C 0.2256(3) 0.05161(17) -0.97487(10)
H20B H 0.2057 0.0520 -1.0212
C18B C 0.1240(3) 0.07071(18) -0.93984(11)
H21B H 0.0362 0.0818 -0.9625
C19B C 0.1510(3) 0.07355(18) -0.87136(11)
H22B H 0.0828 0.0870 -0.8473
C20 C 0.5270(4) 0.2886(3) 0.3755(2)
H23 H 0.6163 0.2802 0.3972
C21 C 0.4268(5) 0.3022(3) 0.41223(18)
H24 H 0.4477 0.3017 0.4585
C22 C 0.2968(4) 0.3166(2) 0.38070(16)
H25 H 0.2287 0.3264 0.4055
C23 C 0.1623(5) 0.3185(2) 0.09887(18)
H26 H 0.0734 0.3314 0.0785
C24 C 0.2582(6) 0.2996(2) 0.06092(18)
H27 H 0.2350 0.2992 0.0147
C25 C 0.3885(5) 0.2812(2) 0.0916(2)
H28 H 0.4542 0.2683 0.0659
C26 C 0.3639(4) 0.30168(19) 0.27317(15)
C27 C 0.3303(4) 0.30047(19) 0.20045(16)
C28 C 0.1381(5) 0.3355(3) 0.2757(3)
H29 H 0.076(6) 0.349(4) 0.303(3)
C29 C 0.1085(5) 0.3381(3) 0.2104(3)
H30 H 0.015(5) 0.356(3) 0.186(2)
C32 C 0.1978(4) 0.31841(19) 0.16863(16)
C33 C 0.2650(4) 0.31670(19) 0.31196(16)
C34 C 0.4244(5) 0.2816(2) 0.16040(19)
H35 H 0.5138 0.2688 0.1800
C35 C 0.4976(4) 0.2870(3) 0.3062(2)
H36 H 0.5665 0.2763 0.2820
C30? C 0.5725(9) 0.2737(7) 0.2584(6)
H31? H 0.6646 0.2685 0.2726
C31? C 0.5380(11) 0.2693(7) 0.1955(6)
H32? H 0.624(7) 0.267(4) 0.170(3)
H33? H 0.1314 0.3306 0.1940
H34? H 0.1756 0.3271 0.2912
loop_
_geom_bond_atom_site_label_1
_geom_bond_atom_site_label_2
_geom_bond_site_symmetry_1
_geom_bond_site_symmetry_2
Cu1 N1 1_555 1_555
S1 C1 1_555 1_555
N1 C1 1_555 1_555
N2 Cu1 1_555 1_555
C2 C3 1_555 1_555
C3 N2 1_555 1_555
H1 C3 1_555 1_555
C4 N2 1_555 1_555
H2 C4 1_555 1_555
C5 C4 1_555 1_555
H3 C5 1_555 1_555
C6 C2 1_555 1_555
H4 C6 1_555 1_555
N3 C2 1_555 1_555
H5 N3 1_555 1_555
N4 H6 1_555 1_555
O1 C7 1_555 1_555
O2 C14 1_555 1_555
C7 N3 1_555 1_555
C8 C7 1_555 1_555
H7 C8 1_555 1_555
H8 C8 1_555 1_555
C9 C8 1_555 1_555
H9 C9 1_555 1_555
H10 C9 1_555 1_555
C10 C9 1_555 1_555
H11 C10 1_555 1_555
H12 C10 1_555 1_555
C11 C10 1_555 1_555
H13 C11 1_555 1_555
H14 C11 1_555 1_555
C12 C11 1_555 1_555
H15 C12 1_555 1_555
H16 C12 1_555 1_555
C13 C12 1_555 1_555
H17 C13 1_555 1_555
H18 C13 1_555 1_555
C14 N4 1_555 1_555
N5 C16 1_555 1_555
C15 N4 1_555 1_555
C16 C15 1_555 1_555
H19 C16 1_555 1_555
C17 N5 1_555 1_555
H20 C17 1_555 1_555
C18 C17 1_555 1_555
H21 C18 1_555 1_555
C19 C15 1_555 1_555
H22 C19 1_555 1_555
C20 H23 1_555 1_555
C21 C20 1_555 1_555
H24 C21 1_555 1_555
C22 C21 1_555 1_555
H25 C22 1_555 1_555
C23 H26 1_555 1_555
C24 C23 1_555 1_555
H27 C24 1_555 1_555
C25 C24 1_555 1_555
H28 C25 1_555 1_555
C26 C27 1_555 1_555
C27 C32 1_555 1_555
C28 H29 1_555 1_555
C29 C28 1_555 1_555
H30 C29 1_555 1_555
C32 C23 1_555 1_555
C33 C22 1_555 1_555
C34 C25 1_555 1_555
H35 C34 1_555 1_555
C35 C20 1_555 1_555
H36 C35 1_555 1_555
Cu1_2 N5 1_555 1_555
Cu1_3 N5B 1_555 1_555
S1B C1B 1_555 1_555
N1B Cu1 1_555 1_555
C1B N1B 1_555 1_555
N2B Cu1 1_555 1_555
C2B C3B 1_555 1_555
C3B N2B 1_555 1_555
H1B C3B 1_555 1_555
C4B N2B 1_555 1_555
H2B C4B 1_555 1_555
C5B C4B 1_555 1_555
H3B C5B 1_555 1_555
C6B C2B 1_555 1_555
H4B C6B 1_555 1_555
N3B C2B 1_555 1_555
H5B N3B 1_555 1_555
N4B H6B 1_555 1_555
O1B C7B 1_555 1_555
O2B C14B 1_555 1_555
C7B N3B 1_555 1_555
C8B C7B 1_555 1_555
H7B C8B 1_555 1_555
H8B C8B 1_555 1_555
C9B C8B 1_555 1_555
H9B C9B 1_555 1_555
H10B C9B 1_555 1_555
C10B C9B 1_555 1_555
H11B C10B 1_555 1_555
H12B C10B 1_555 1_555
C11B C10B 1_555 1_555
H13B C11B 1_555 1_555
H14B C11B 1_555 1_555
C12B C11B 1_555 1_555
H15B C12B 1_555 1_555
H16B C12B 1_555 1_555
C13B C12B 1_555 1_555
H17B C13B 1_555 1_555
H18B C13B 1_555 1_555
C14B N4B 1_555 1_555
N5B C16B 1_555 1_555
N5_2 Cu1 1_555 1_555
N5B_2 Cu1 1_555 1_555
C15B N4B 1_555 1_555
C16B C15B 1_555 1_555
H19B C16B 1_555 1_555
C17B N5B 1_555 1_555
H20B C17B 1_555 1_555
C18B C17B 1_555 1_555
H21B C18B 1_555 1_555
C19B C15B 1_555 1_555
H22B C19B 1_555 1_555
C5 C6 1_555 1_555
C13 C14 1_555 1_555
C18 C19 1_555 1_555
C26 C33 1_555 1_555
C26 C35 1_555 1_555
C27 C34 1_555 1_555
C28 C33 1_555 1_555
C29 C32 1_555 1_555
C5B C6B 1_555 1_555
C13B C14B 1_555 1_555
C18B C19B 1_555 1_555

#END
