
#######################################################################
#
#                 Cambridge Crystallographic Data Centre
#                                CCDC 
#
#######################################################################
#
# If this CIF has been generated from an entry in the Cambridge 
# Structural Database, then it will include bibliographic, chemical, 
# crystal, experimental, refinement or atomic coordinate data resulting 
# from the CCDC's data processing and validation procedures.
#
#######################################################################

data_UHIXOZ
_symmetry_cell_setting           monoclinic
_symmetry_space_group_name_H-M   'P 21/n'
_symmetry_Int_Tables_number      14
_space_group_name_Hall           '-P 2yn'
loop_
_symmetry_equiv_pos_site_id
_symmetry_equiv_pos_as_xyz
1 x,y,z
2 1/2-x,1/2+y,1/2-z
3 -x,-y,-z
4 1/2+x,1/2-y,1/2+z
_cell_length_a                   10.1435(4)
_cell_length_b                   14.9724(7)
_cell_length_c                   20.3506(9)
_cell_angle_alpha                90
_cell_angle_beta                 101.1110(10)
_cell_angle_gamma                90
_cell_volume                     3032.76
loop_
_atom_site_label
_atom_site_type_symbol
_atom_site_fract_x
_atom_site_fract_y
_atom_site_fract_z
Cu1 Cu 0.5000 0.0000 0.0000
S1 S 0.58407(10) -0.28162(6) 0.10095(6)
N1 N 0.5381(2) -0.11028(14) 0.05243(10)
C1 C 0.5576(2) -0.18096(17) 0.07268(11)
N2 N 0.6807(2) 0.07552(14) 0.08209(9)
C2 C 0.8119(2) 0.08585(16) 0.19302(11)
C3 C 0.7243(2) 0.04181(17) 0.14295(11)
H1 H 0.6942 -0.0146 0.1523
C4 C 0.7302(3) 0.15448(18) 0.06851(12)
H2 H 0.6998 0.1798 0.0266
C5 C 0.8241(3) 0.19981(19) 0.11374(14)
H3 H 0.8604 0.2529 0.1015
C6 C 0.8644(2) 0.16603(19) 0.17771(13)
H4 H 0.9257 0.1969 0.2096
N3 N 0.84800(18) 0.04966(14) 0.25795(9)
H5 H 0.9319 0.0485 0.2760
N4 N 0.66802(19) -0.06204(13) 0.76959(9)
H6 H 0.5827 -0.0599 0.7548
O1 O 0.63902(17) 0.01265(14) 0.27128(9)
O2 O 0.86854(17) -0.07458(16) 0.73786(8)
C7 C 0.7599(2) 0.01668(16) 0.29371(11)
C8 C 0.8223(2) -0.01349(17) 0.36340(12)
H7 H 0.8620 -0.0720 0.3607
H8 H 0.8941 0.0274 0.3817
C9 C 0.7257(3) -0.01851(18) 0.41046(12)
H9 H 0.6584 -0.0636 0.3944
H10 H 0.6799 0.0384 0.4102
C10 C 0.7927(3) -0.0409(2) 0.48206(12)
H11 H 0.8430 -0.0960 0.4818
H12 H 0.8563 0.0060 0.4987
C11 C 0.6966(3) -0.05153(19) 0.52966(12)
H13 H 0.6441 -0.1054 0.5182
H14 H 0.6351 -0.0013 0.5242
C12 C 0.7675(2) -0.05689(18) 0.60247(11)
H15 H 0.8287 -0.1073 0.6078
H16 H 0.8207 -0.0032 0.6136
C13 C 0.6734(2) -0.06687(16) 0.65108(11)
H17 H 0.6233 -0.1221 0.6416
H18 H 0.6095 -0.0179 0.6447
C14 C 0.7466(2) -0.06765(16) 0.72281(11)
N5 N 0.6441(2) -0.03539(13) 0.94452(9)
C15 C 0.7105(2) -0.05936(15) 0.83922(11)
C16 C 0.6169(2) -0.03829(16) 0.87776(11)
H19 H 0.5298 -0.0253 0.8559
C17 C 0.7695(3) -0.05386(18) 0.97562(12)
H20 H 0.7897 -0.0538 1.0222
C18 C 0.8689(3) -0.0728(2) 0.94107(13)
H21 H 0.9559 -0.0834 0.9642
C19 C 0.8411(3) -0.07629(19) 0.87220(12)
H22 H 0.9082 -0.0896 0.8484
Cu1_2 Cu 0.5000 0.0000 1.0000
Cu1_3 Cu 0.5000 0.0000 -1.0000
S1B S 0.41593(10) 0.28162(6) -0.10095(6)
N1B N 0.4619(2) 0.11028(14) -0.05243(10)
C1B C 0.4424(2) 0.18096(17) -0.07268(11)
N2B N 0.3193(2) -0.07552(14) -0.08209(9)
C2B C 0.1881(2) -0.08585(16) -0.19302(11)
C3B C 0.2757(2) -0.04181(17) -0.14295(11)
H1B H 0.3058 0.0146 -0.1523
C4B C 0.2698(3) -0.15448(18) -0.06851(12)
H2B H 0.3002 -0.1798 -0.0266
C5B C 0.1759(3) -0.19981(19) -0.11374(14)
H3B H 0.1396 -0.2529 -0.1015
C6B C 0.1356(2) -0.16603(19) -0.17771(13)
H4B H 0.0743 -0.1969 -0.2096
N3B N 0.15200(18) -0.04966(14) -0.25795(9)
H5B H 0.0681 -0.0485 -0.2760
N4B N 0.33198(19) 0.06204(13) -0.76959(9)
H6B H 0.4173 0.0599 -0.7548
O1B O 0.36098(17) -0.01265(14) -0.27128(9)
O2B O 0.13146(17) 0.07458(16) -0.73786(8)
C7B C 0.2401(2) -0.01668(16) -0.29371(11)
C8B C 0.1777(2) 0.01349(17) -0.36340(12)
H7B H 0.1380 0.0720 -0.3607
H8B H 0.1059 -0.0274 -0.3817
C9B C 0.2743(3) 0.01851(18) -0.41046(12)
H9B H 0.3416 0.0636 -0.3944
H10B H 0.3201 -0.0384 -0.4102
C10B C 0.2073(3) 0.0409(2) -0.48206(12)
H11B H 0.1570 0.0960 -0.4818
H12B H 0.1437 -0.0060 -0.4987
C11B C 0.3034(3) 0.05153(19) -0.52966(12)
H13B H 0.3559 0.1054 -0.5182
H14B H 0.3649 0.0013 -0.5242
C12B C 0.2325(2) 0.05689(18) -0.60247(11)
H15B H 0.1713 0.1073 -0.6078
H16B H 0.1793 0.0032 -0.6136
C13B C 0.3266(2) 0.06687(16) -0.65108(11)
H17B H 0.3767 0.1221 -0.6416
H18B H 0.3905 0.0179 -0.6447
C14B C 0.2534(2) 0.06765(16) -0.72281(11)
N5B N 0.3559(2) 0.03539(13) -0.94452(9)
N5_2 N 0.6441(2) -0.03539(13) -0.05548(9)
N5B_2 N 0.3559(2) 0.03539(13) 0.05548(9)
C15B C 0.2895(2) 0.05936(15) -0.83922(11)
C16B C 0.3831(2) 0.03829(16) -0.87776(11)
H19B H 0.4702 0.0253 -0.8559
C17B C 0.2305(3) 0.05386(18) -0.97562(12)
H20B H 0.2103 0.0538 -1.0222
C18B C 0.1311(3) 0.0728(2) -0.94107(13)
H21B H 0.0441 0.0834 -0.9642
C19B C 0.1589(3) 0.07629(19) -0.87220(12)
H22B H 0.0918 0.0896 -0.8484
C20 C 0.4161(4) -0.2659(3) -0.2622(2)
H23 H 0.3267 -0.2547 -0.2813
C21 C 0.4539(4) -0.2636(3) -0.1950(2)
H24 H 0.3906 -0.2481 -0.1695
C22 C 0.6234(4) -0.2843(2) -0.09220(17)
H25 H 0.5610 -0.2709 -0.0657
C23 C 0.7523(4) -0.3045(2) -0.06273(17)
H26 H 0.7764 -0.3051 -0.0163
C24 C 0.8476(4) -0.3241(2) -0.10055(16)
H27 H 0.9349 -0.3378 -0.0794
C25 C 0.9077(3) -0.3429(2) -0.21211(17)
H28 H 0.9954 -0.3579 -0.1923
C26 C 0.8736(3) -0.3401(2) -0.27926(16)
H29 H 0.9391 -0.3515 -0.3045
C27 C 0.7033(4) -0.3191(2) -0.38149(15)
H30 H 0.7673 -0.3298 -0.4077
C28 C 0.5720(4) -0.3020(2) -0.41209(17)
H31 H 0.5485 -0.3014 -0.4586
C29 C 0.4757(4) -0.2857(2) -0.37434(19)
H32 H 0.3874 -0.2751 -0.3956
C30 C 0.5086(3) -0.2849(2) -0.30488(17)
C31 C 0.5841(3) -0.28361(19) -0.16224(16)
C32 C 0.8138(3) -0.32340(17) -0.17029(14)
C33 C 0.7407(3) -0.32044(18) -0.31278(14)
C34 C 0.6431(3) -0.30323(16) -0.27309(14)
C35 C 0.6808(3) -0.30345(16) -0.20161(14)
loop_
_geom_bond_atom_site_label_1
_geom_bond_atom_site_label_2
_geom_bond_site_symmetry_1
_geom_bond_site_symmetry_2
Cu1 N1 1_555 1_555
S1 C1 1_555 1_555
N1 C1 1_555 1_555
N2 Cu1 1_555 1_555
C2 C3 1_555 1_555
C3 N2 1_555 1_555
H1 C3 1_555 1_555
C4 N2 1_555 1_555
H2 C4 1_555 1_555
C5 C4 1_555 1_555
H3 C5 1_555 1_555
C6 C2 1_555 1_555
H4 C6 1_555 1_555
N3 C2 1_555 1_555
H5 N3 1_555 1_555
N4 H6 1_555 1_555
O1 C7 1_555 1_555
O2 C14 1_555 1_555
C7 N3 1_555 1_555
C8 C7 1_555 1_555
H7 C8 1_555 1_555
H8 C8 1_555 1_555
C9 C8 1_555 1_555
H9 C9 1_555 1_555
H10 C9 1_555 1_555
C10 C9 1_555 1_555
H11 C10 1_555 1_555
H12 C10 1_555 1_555
C11 C10 1_555 1_555
H13 C11 1_555 1_555
H14 C11 1_555 1_555
C12 C11 1_555 1_555
H15 C12 1_555 1_555
H16 C12 1_555 1_555
C13 C12 1_555 1_555
H17 C13 1_555 1_555
H18 C13 1_555 1_555
C14 N4 1_555 1_555
N5 C16 1_555 1_555
C15 N4 1_555 1_555
C16 C15 1_555 1_555
H19 C16 1_555 1_555
C17 N5 1_555 1_555
H20 C17 1_555 1_555
C18 C17 1_555 1_555
H21 C18 1_555 1_555
C19 C15 1_555 1_555
H22 C19 1_555 1_555
C20 H23 1_555 1_555
C21 C20 1_555 1_555
H24 C21 1_555 1_555
C22 H25 1_555 1_555
C23 C22 1_555 1_555
H26 C23 1_555 1_555
C24 C23 1_555 1_555
H27 C24 1_555 1_555
C25 H28 1_555 1_555
C26 C25 1_555 1_555
H29 C26 1_555 1_555
C27 H30 1_555 1_555
C28 C27 1_555 1_555
H31 C28 1_555 1_555
C29 C28 1_555 1_555
H32 C29 1_555 1_555
C30 C20 1_555 1_555
C31 C21 1_555 1_555
C32 C24 1_555 1_555
C33 C26 1_555 1_555
C34 C30 1_555 1_555
C35 C31 1_555 1_555
Cu1_2 N5 1_555 1_555
Cu1_3 N5B 1_555 1_555
S1B C1B 1_555 1_555
N1B Cu1 1_555 1_555
C1B N1B 1_555 1_555
N2B Cu1 1_555 1_555
C2B C3B 1_555 1_555
C3B N2B 1_555 1_555
H1B C3B 1_555 1_555
C4B N2B 1_555 1_555
H2B C4B 1_555 1_555
C5B C4B 1_555 1_555
H3B C5B 1_555 1_555
C6B C2B 1_555 1_555
H4B C6B 1_555 1_555
N3B C2B 1_555 1_555
H5B N3B 1_555 1_555
N4B H6B 1_555 1_555
O1B C7B 1_555 1_555
O2B C14B 1_555 1_555
C7B N3B 1_555 1_555
C8B C7B 1_555 1_555
H7B C8B 1_555 1_555
H8B C8B 1_555 1_555
C9B C8B 1_555 1_555
H9B C9B 1_555 1_555
H10B C9B 1_555 1_555
C10B C9B 1_555 1_555
H11B C10B 1_555 1_555
H12B C10B 1_555 1_555
C11B C10B 1_555 1_555
H13B C11B 1_555 1_555
H14B C11B 1_555 1_555
C12B C11B 1_555 1_555
H15B C12B 1_555 1_555
H16B C12B 1_555 1_555
C13B C12B 1_555 1_555
H17B C13B 1_555 1_555
H18B C13B 1_555 1_555
C14B N4B 1_555 1_555
N5B C16B 1_555 1_555
N5_2 Cu1 1_555 1_555
N5B_2 Cu1 1_555 1_555
C15B N4B 1_555 1_555
C16B C15B 1_555 1_555
H19B C16B 1_555 1_555
C17B N5B 1_555 1_555
H20B C17B 1_555 1_555
C18B C17B 1_555 1_555
H21B C18B 1_555 1_555
C19B C15B 1_555 1_555
H22B C19B 1_555 1_555
C5 C6 1_555 1_555
C13 C14 1_555 1_555
C18 C19 1_555 1_555
C22 C31 1_555 1_555
C25 C32 1_555 1_555
C27 C33 1_555 1_555
C29 C30 1_555 1_555
C32 C35 1_555 1_555
C33 C34 1_555 1_555
C34 C35 1_555 1_555
C5B C6B 1_555 1_555
C13B C14B 1_555 1_555
C18B C19B 1_555 1_555

#END
