
#######################################################################
#
#                 Cambridge Crystallographic Data Centre
#                                CCDC 
#
#######################################################################
#
# If this CIF has been generated from an entry in the Cambridge 
# Structural Database, then it will include bibliographic, chemical, 
# crystal, experimental, refinement or atomic coordinate data resulting 
# from the CCDC's data processing and validation procedures.
#
#######################################################################

data_UHIXEP
_symmetry_cell_setting           triclinic
_symmetry_space_group_name_H-M   'P -1'
_symmetry_Int_Tables_number      2
_space_group_name_Hall           '-P 1'
loop_
_symmetry_equiv_pos_site_id
_symmetry_equiv_pos_as_xyz
1 x,y,z
2 -x,-y,-z
_cell_length_a                   9.008(4)
_cell_length_b                   10.139(5)
_cell_length_c                   16.671(8)
_cell_angle_alpha                92.822(15)
_cell_angle_beta                 104.167(15)
_cell_angle_gamma                109.238(14)
_cell_volume                     1379.75
loop_
_atom_site_label
_atom_site_type_symbol
_atom_site_fract_x
_atom_site_fract_y
_atom_site_fract_z
Cu1 Cu 0.0000 0.0000 0.0000
S1 S 0.0784(4) 0.0314(3) 0.28766(14)
N1 N -0.0206(8) -0.0091(7) 0.1156(4)
C1 C 0.0215(10) 0.0082(7) 0.1872(5)
N2 N 0.1689(7) 0.2039(6) 0.0385(3)
N3 N 0.5208(8) 0.4043(6) 0.2138(4)
H1 H 0.5320 0.3321 0.2359
N4 N 1.7762(8) 1.0989(6) 0.9623(4)
O1 O 0.6103(7) 0.6434(5) 0.2328(4)
O2 O 1.4288(7) 0.8626(5) 0.7535(3)
C2 C 0.4027(10) 0.3786(7) 0.1361(5)
C3 C 0.2853(9) 0.2425(7) 0.1109(4)
H2 H 0.2888 0.1755 0.1467
C4 C 0.1612(11) 0.2999(8) -0.0115(5)
H3 H 0.0792 0.2751 -0.0618
C5 C 0.2720(12) 0.4359(9) 0.0093(6)
H4 H 0.2635 0.5015 -0.0270
C6 C 0.3943(12) 0.4758(9) 0.0825(5)
H5 H 0.4705 0.5672 0.0958
N5 N 1.4331(8) 1.0834(6) 0.7841(4)
H6 H 1.4003 1.1493 0.7652
C7 C 0.6197(10) 0.5357(7) 0.2572(5)
C8 C 0.7369(10) 0.5301(8) 0.3379(5)
H7 H 0.8121 0.4876 0.3254
H8 H 0.6756 0.4705 0.3712
C9 C 0.8340(10) 0.6747(8) 0.3884(5)
H9 H 0.7587 0.7176 0.4004
H10 H 0.8962 0.7339 0.3554
C10 C 0.9512(10) 0.6693(7) 0.4707(5)
H11 H 0.8885 0.6123 0.5044
H12 H 1.0242 0.6236 0.4588
C11 C 1.0527(11) 0.8140(8) 0.5205(5)
H13 H 1.1154 0.8704 0.4866
H14 H 0.9791 0.8597 0.5315
C12 C 1.1676(9) 0.8131(7) 0.6016(5)
H15 H 1.2337 0.7589 0.5915
H16 H 1.1043 0.7656 0.6380
C13 C 1.2798(10) 0.9581(8) 0.6461(5)
H17 H 1.2140 1.0156 0.6503
H18 H 1.3515 1.0012 0.6123
C14 C 1.3839(10) 0.9604(8) 0.7326(5)
C15 C 1.5342(9) 1.1106(7) 0.8665(5)
C16 C 1.6794(9) 1.0840(7) 0.8848(4)
H19 H 1.7116 1.0539 0.8405
C17 C 1.7250(11) 1.1456(8) 1.0252(5)
H20 H 1.7876 1.1540 1.0798
C18 C 1.5883(11) 1.1805(8) 1.0131(5)
H21 H 1.5623 1.2167 1.0580
C19 C 1.4892(11) 1.1609(8) 0.9326(5)
H22 H 1.3933 1.1810 0.9226
Cu1_2 Cu 2.0000 1.0000 1.0000
Cu1_3 Cu -2.0000 -1.0000 -1.0000
S1A S -0.0784(4) -0.0314(3) -0.28766(14)
N1A N 0.0206(8) 0.0091(7) -0.1156(4)
C1A C -0.0215(10) -0.0082(7) -0.1872(5)
N2A N -0.1689(7) -0.2039(6) -0.0385(3)
N3A N -0.5208(8) -0.4043(6) -0.2138(4)
H1A H -0.5320 -0.3321 -0.2359
N4A N -1.7762(8) -1.0989(6) -0.9623(4)
N4_2 N -0.2238(8) 0.0989(6) -0.0377(4)
N4A_2 N 0.2238(8) -0.0989(6) 0.0377(4)
O1A O -0.6103(7) -0.6434(5) -0.2328(4)
O2A O -1.4288(7) -0.8626(5) -0.7535(3)
C2A C -0.4027(10) -0.3786(7) -0.1361(5)
C3A C -0.2853(9) -0.2425(7) -0.1109(4)
H2A H -0.2888 -0.1755 -0.1467
C4A C -0.1612(11) -0.2999(8) 0.0115(5)
H3A H -0.0792 -0.2751 0.0618
C5A C -0.2720(12) -0.4359(9) -0.0093(6)
H4A H -0.2635 -0.5015 0.0270
C6A C -0.3943(12) -0.4758(9) -0.0825(5)
H5A H -0.4705 -0.5672 -0.0958
N5A N -1.4331(8) -1.0834(6) -0.7841(4)
H6A H -1.4003 -1.1493 -0.7652
C7A C -0.6197(10) -0.5357(7) -0.2572(5)
C8A C -0.7369(10) -0.5301(8) -0.3379(5)
H7A H -0.8121 -0.4876 -0.3254
H8A H -0.6756 -0.4705 -0.3712
C9A C -0.8340(10) -0.6747(8) -0.3884(5)
H9A H -0.7587 -0.7176 -0.4004
H10A H -0.8962 -0.7339 -0.3554
C10A C -0.9512(10) -0.6693(7) -0.4707(5)
H11A H -0.8885 -0.6123 -0.5044
H12A H -1.0242 -0.6236 -0.4588
C11A C -1.0527(11) -0.8140(8) -0.5205(5)
H13A H -1.1154 -0.8704 -0.4866
H14A H -0.9791 -0.8597 -0.5315
C12A C -1.1676(9) -0.8131(7) -0.6016(5)
H15A H -1.2337 -0.7589 -0.5915
H16A H -1.1043 -0.7656 -0.6380
C13A C -1.2798(10) -0.9581(8) -0.6461(5)
H17A H -1.2140 -1.0156 -0.6503
H18A H -1.3515 -1.0012 -0.6123
C14A C -1.3839(10) -0.9604(8) -0.7326(5)
C15A C -1.5342(9) -1.1106(7) -0.8665(5)
C16A C -1.6794(9) -1.0840(7) -0.8848(4)
H19A H -1.7116 -1.0539 -0.8405
C17A C -1.7250(11) -1.1456(8) -1.0252(5)
H20A H -1.7876 -1.1540 -1.0798
C18A C -1.5883(11) -1.1805(8) -1.0131(5)
H21A H -1.5623 -1.2167 -1.0580
C19A C -1.4892(11) -1.1609(8) -0.9326(5)
H22A H -1.3933 -1.1810 -0.9226
I1 I 0.42566(8) 0.19796(6) 0.45665(4)
I2 I 1.00011(11) 0.54409(10) 0.83040(5)
C20 C 0.5993(10) 0.2988(8) 0.5710(5)
C21 C 0.6326(12) 0.4401(9) 0.5944(5)
H23 H 0.5771 0.4887 0.5604
C22 C 0.7485(12) 0.5094(9) 0.6683(6)
H24 H 0.7745 0.6055 0.6833
C23 C 0.8247(11) 0.4357(10) 0.7194(5)
C24 C 0.7938(12) 0.2944(10) 0.6954(6)
H25 H 0.8496 0.2461 0.7293
C25 C 0.6800(12) 0.2258(9) 0.6209(6)
H26 H 0.6579 0.1307 0.6045
loop_
_geom_bond_atom_site_label_1
_geom_bond_atom_site_label_2
_geom_bond_site_symmetry_1
_geom_bond_site_symmetry_2
Cu1 N1 1_555 1_555
I1 C20 1_555 1_555
I2 C23 1_555 1_555
S1 C1 1_555 1_555
N1 C1 1_555 1_555
N2 Cu1 1_555 1_555
N3 H1 1_555 1_555
N4 C16 1_555 1_555
O1 C7 1_555 1_555
O2 C14 1_555 1_555
C2 N3 1_555 1_555
C3 N2 1_555 1_555
H2 C3 1_555 1_555
C4 N2 1_555 1_555
H3 C4 1_555 1_555
C5 C4 1_555 1_555
H4 C5 1_555 1_555
C6 C2 1_555 1_555
H5 C6 1_555 1_555
N5 H6 1_555 1_555
C7 N3 1_555 1_555
C8 C7 1_555 1_555
H7 C8 1_555 1_555
H8 C8 1_555 1_555
C9 C8 1_555 1_555
H9 C9 1_555 1_555
H10 C9 1_555 1_555
C10 C9 1_555 1_555
H11 C10 1_555 1_555
H12 C10 1_555 1_555
C11 C10 1_555 1_555
H13 C11 1_555 1_555
H14 C11 1_555 1_555
C12 C11 1_555 1_555
H15 C12 1_555 1_555
H16 C12 1_555 1_555
C13 C12 1_555 1_555
H17 C13 1_555 1_555
H18 C13 1_555 1_555
C14 N5 1_555 1_555
C15 N5 1_555 1_555
C16 C15 1_555 1_555
H19 C16 1_555 1_555
C17 N4 1_555 1_555
H20 C17 1_555 1_555
C18 C17 1_555 1_555
H21 C18 1_555 1_555
C19 C15 1_555 1_555
H22 C19 1_555 1_555
C20 C21 1_555 1_555
C21 H23 1_555 1_555
C22 C21 1_555 1_555
H24 C22 1_555 1_555
C23 C22 1_555 1_555
C24 C23 1_555 1_555
H25 C24 1_555 1_555
C25 C20 1_555 1_555
H26 C25 1_555 1_555
Cu1_2 N4 1_555 1_555
Cu1_3 N4A 1_555 1_555
S1A C1A 1_555 1_555
N1A Cu1 1_555 1_555
C1A N1A 1_555 1_555
N2A Cu1 1_555 1_555
N3A H1A 1_555 1_555
N4A C16A 1_555 1_555
N4_2 Cu1 1_555 1_555
N4A_2 Cu1 1_555 1_555
O1A C7A 1_555 1_555
O2A C14A 1_555 1_555
C2A N3A 1_555 1_555
C3A N2A 1_555 1_555
H2A C3A 1_555 1_555
C4A N2A 1_555 1_555
H3A C4A 1_555 1_555
C5A C4A 1_555 1_555
H4A C5A 1_555 1_555
C6A C2A 1_555 1_555
H5A C6A 1_555 1_555
N5A H6A 1_555 1_555
C7A N3A 1_555 1_555
C8A C7A 1_555 1_555
H7A C8A 1_555 1_555
H8A C8A 1_555 1_555
C9A C8A 1_555 1_555
H9A C9A 1_555 1_555
H10A C9A 1_555 1_555
C10A C9A 1_555 1_555
H11A C10A 1_555 1_555
H12A C10A 1_555 1_555
C11A C10A 1_555 1_555
H13A C11A 1_555 1_555
H14A C11A 1_555 1_555
C12A C11A 1_555 1_555
H15A C12A 1_555 1_555
H16A C12A 1_555 1_555
C13A C12A 1_555 1_555
H17A C13A 1_555 1_555
H18A C13A 1_555 1_555
C14A N5A 1_555 1_555
C15A N5A 1_555 1_555
C16A C15A 1_555 1_555
H19A C16A 1_555 1_555
C17A N4A 1_555 1_555
H20A C17A 1_555 1_555
C18A C17A 1_555 1_555
H21A C18A 1_555 1_555
C19A C15A 1_555 1_555
H22A C19A 1_555 1_555
C2 C3 1_555 1_555
C5 C6 1_555 1_555
C13 C14 1_555 1_555
C18 C19 1_555 1_555
C24 C25 1_555 1_555
C2A C3A 1_555 1_555
C5A C6A 1_555 1_555
C13A C14A 1_555 1_555
C18A C19A 1_555 1_555

#END
