
#######################################################################
#
#                 Cambridge Crystallographic Data Centre
#                                CCDC 
#
#######################################################################
#
# If this CIF has been generated from an entry in the Cambridge 
# Structural Database, then it will include bibliographic, chemical, 
# crystal, experimental, refinement or atomic coordinate data resulting 
# from the CCDC's data processing and validation procedures.
#
#######################################################################

data_UHIXIT
_symmetry_cell_setting           triclinic
_symmetry_space_group_name_H-M   'P -1'
_symmetry_Int_Tables_number      2
_space_group_name_Hall           '-P 1'
loop_
_symmetry_equiv_pos_site_id
_symmetry_equiv_pos_as_xyz
1 x,y,z
2 -x,-y,-z
_cell_length_a                   9.1064(12)
_cell_length_b                   10.0279(12)
_cell_length_c                   16.012(2)
_cell_angle_alpha                94.197(4)
_cell_angle_beta                 102.983(4)
_cell_angle_gamma                108.093(4)
_cell_volume                     1338.13
loop_
_atom_site_label
_atom_site_type_symbol
_atom_site_fract_x
_atom_site_fract_y
_atom_site_fract_z
Cu1 Cu 0.5000 0.0000 0.5000
C1 C 0.4671(7) -0.0163(7) 0.3063(5)
N1 N 0.5121(6) 0.0044(6) 0.3799(4)
S1 S 0.3952(3) -0.0457(2) 0.20039(12)
N2 N 0.3396(5) -0.2052(5) 0.4638(3)
N3 N -0.0142(5) -0.4081(5) 0.2908(3)
H5 H -0.0266 -0.3354 0.2687
C8 C 0.1082(7) -0.3811(7) 0.3679(4)
C9 C 0.2221(6) -0.2456(6) 0.3921(4)
H6 H 0.2147 -0.1792 0.3552
C10 C 0.3521(8) -0.3009(7) 0.5153(4)
H7 H 0.4349 -0.2752 0.5658
C11 C 0.2459(9) -0.4367(7) 0.4957(5)
H8 H 0.2575 -0.5014 0.5333
C12 C 0.1207(8) -0.4800(7) 0.4205(5)
H9 H 0.0486 -0.5724 0.4067
O1 O -0.1093(6) -0.6473(5) 0.2735(3)
O2 O -0.9306(5) -0.8572(5) -0.2533(3)
C13 C -0.1144(7) -0.5375(8) 0.2478(4)
C14 C -0.2321(7) -0.5315(7) 0.1667(4)
H10 H -0.3009 -0.4824 0.1823
H11 H -0.1739 -0.4768 0.1297
C15 C -0.3345(7) -0.6757(7) 0.1165(4)
H12 H -0.3928 -0.7304 0.1535
H13 H -0.2658 -0.7248 0.1008
C16 C -0.4528(7) -0.6693(7) 0.0349(4)
H14 H -0.5219 -0.6208 0.0508
H15 H -0.3944 -0.6135 -0.0016
C17 C -0.5557(7) -0.8138(7) -0.0168(4)
H16 H -0.6183 -0.8676 0.0188
H17 H -0.4863 -0.8643 -0.0297
C18 C -0.6688(7) -0.8087(7) -0.1013(4)
H18 H -0.7324 -0.7515 -0.0894
H19 H -0.6066 -0.7636 -0.1397
C19 C -0.7784(7) -0.9543(7) -0.1459(4)
H20 H -0.8447 -0.9965 -0.1086
H21 H -0.7141 -1.0130 -0.1536
C20 C -0.8869(7) -0.9554(7) -0.2343(4)
N4 N -1.2775(5) -1.0992(5) -0.4666(3)
N5 N -0.9344(5) -1.0804(5) -0.2886(3)
H22 H -0.8999 -1.1465 -0.2704
C21 C -1.0371(7) -1.1082(6) -0.3732(4)
C22 C -1.1795(7) -1.0808(6) -0.3873(4)
H23 H -1.2087 -1.0483 -0.3398
C23 C -1.2343(7) -1.1489(7) -0.5330(4)
H24 H -1.2993 -1.1589 -0.5885
C24 C -1.1003(8) -1.1863(6) -0.5246(4)
H25 H -1.0791 -1.2266 -0.5727
C25 C -0.9977(7) -1.1633(6) -0.4437(4)
H26 H -0.9034 -1.1842 -0.4363
Cu1_2 Cu -1.5000 -1.0000 -0.5000
Cu1_3 Cu 2.5000 1.0000 1.5000
C1A C 0.5329(7) 0.0163(7) 0.6937(5)
N1A N 0.4879(6) -0.0044(6) 0.6201(4)
S1A S 0.6048(3) 0.0457(2) 0.79961(12)
N2A N 0.6604(5) 0.2052(5) 0.5362(3)
N3A N 1.0142(5) 0.4081(5) 0.7092(3)
H5A H 1.0266 0.3354 0.7313
C8A C 0.8918(7) 0.3811(7) 0.6321(4)
C9A C 0.7779(6) 0.2456(6) 0.6079(4)
H6A H 0.7853 0.1792 0.6448
C10A C 0.6479(8) 0.3009(7) 0.4847(4)
H7A H 0.5651 0.2752 0.4342
C11A C 0.7541(9) 0.4367(7) 0.5043(5)
H8A H 0.7425 0.5014 0.4667
C12A C 0.8793(8) 0.4800(7) 0.5795(5)
H9A H 0.9514 0.5724 0.5933
O1A O 1.1093(6) 0.6473(5) 0.7265(3)
O2A O 1.9306(5) 0.8572(5) 1.2533(3)
C13A C 1.1144(7) 0.5375(8) 0.7522(4)
C14A C 1.2321(7) 0.5315(7) 0.8333(4)
H10A H 1.3009 0.4824 0.8177
H11A H 1.1739 0.4768 0.8703
C15A C 1.3345(7) 0.6757(7) 0.8835(4)
H12A H 1.3928 0.7304 0.8465
H13A H 1.2658 0.7248 0.8992
C16A C 1.4528(7) 0.6693(7) 0.9651(4)
H14A H 1.5219 0.6208 0.9492
H15A H 1.3944 0.6135 1.0016
C17A C 1.5557(7) 0.8138(7) 1.0168(4)
H16A H 1.6183 0.8676 0.9812
H17A H 1.4863 0.8643 1.0297
C18A C 1.6688(7) 0.8087(7) 1.1013(4)
H18A H 1.7324 0.7515 1.0894
H19A H 1.6066 0.7636 1.1397
C19A C 1.7784(7) 0.9543(7) 1.1459(4)
H20A H 1.8447 0.9965 1.1086
H21A H 1.7141 1.0130 1.1536
C20A C 1.8869(7) 0.9554(7) 1.2343(4)
N4A N 2.2775(5) 1.0992(5) 1.4666(3)
N4_2 N 0.7225(5) -0.0992(5) 0.5334(3)
N4A_2 N 0.2775(5) 0.0992(5) 0.4666(3)
N5A N 1.9344(5) 1.0804(5) 1.2886(3)
H22A H 1.8999 1.1465 1.2704
C21A C 2.0371(7) 1.1082(6) 1.3732(4)
C22A C 2.1795(7) 1.0808(6) 1.3873(4)
H23A H 2.2087 1.0483 1.3398
C23A C 2.2343(7) 1.1489(7) 1.5330(4)
H24A H 2.2993 1.1589 1.5885
C24A C 2.1003(8) 1.1863(6) 1.5246(4)
H25A H 2.0791 1.2266 1.5727
C25A C 1.9977(7) 1.1633(6) 1.4437(4)
H26A H 1.9034 1.1842 1.4363
Br1 Br -0.94567(10) -1.20894(10) 0.02918(6)
Br2 Br -1.49247(13) -1.53761(12) -0.32598(7)
C2 C -1.1025(8) -1.3032(8) -0.0751(5)
C3 C -1.1444(9) -1.4441(9) -0.0982(5)
H1 H -1.0932 -1.4946 -0.0628
C4 C -1.2597(9) -1.5156(8) -0.1721(5)
H2 H -1.2886 -1.6135 -0.1864
C5 C -1.3308(8) -1.4405(9) -0.2239(5)
C6 C -1.2930(9) -1.2964(9) -0.2020(5)
H3 H -1.3444 -1.2466 -0.2380
C7 C -1.1786(9) -1.2265(8) -0.1266(5)
H4 H -1.1528 -1.1293 -0.1105
loop_
_geom_bond_atom_site_label_1
_geom_bond_atom_site_label_2
_geom_bond_site_symmetry_1
_geom_bond_site_symmetry_2
Cu1 N1 1_555 1_555
Br1 C2 1_555 1_555
Br2 C5 1_555 1_555
C1 N1 1_555 1_555
S1 C1 1_555 1_555
C2 C3 1_555 1_555
C3 H1 1_555 1_555
C4 C3 1_555 1_555
H2 C4 1_555 1_555
C5 C4 1_555 1_555
C6 C5 1_555 1_555
H3 C6 1_555 1_555
C7 C2 1_555 1_555
H4 C7 1_555 1_555
N2 Cu1 1_555 1_555
N3 H5 1_555 1_555
C8 N3 1_555 1_555
C9 N2 1_555 1_555
H6 C9 1_555 1_555
C10 N2 1_555 1_555
H7 C10 1_555 1_555
C11 C10 1_555 1_555
H8 C11 1_555 1_555
C12 C8 1_555 1_555
H9 C12 1_555 1_555
O1 C13 1_555 1_555
O2 C20 1_555 1_555
C13 N3 1_555 1_555
C14 C13 1_555 1_555
H10 C14 1_555 1_555
H11 C14 1_555 1_555
C15 C14 1_555 1_555
H12 C15 1_555 1_555
H13 C15 1_555 1_555
C16 C15 1_555 1_555
H14 C16 1_555 1_555
H15 C16 1_555 1_555
C17 C16 1_555 1_555
H16 C17 1_555 1_555
H17 C17 1_555 1_555
C18 C17 1_555 1_555
H18 C18 1_555 1_555
H19 C18 1_555 1_555
C19 C18 1_555 1_555
H20 C19 1_555 1_555
H21 C19 1_555 1_555
C20 C19 1_555 1_555
N4 C22 1_555 1_555
N5 C20 1_555 1_555
H22 N5 1_555 1_555
C21 N5 1_555 1_555
C22 C21 1_555 1_555
H23 C22 1_555 1_555
C23 N4 1_555 1_555
H24 C23 1_555 1_555
C24 C23 1_555 1_555
H25 C24 1_555 1_555
C25 C21 1_555 1_555
H26 C25 1_555 1_555
Cu1_2 N4 1_555 1_555
Cu1_3 N4A 1_555 1_555
C1A N1A 1_555 1_555
N1A Cu1 1_555 1_555
S1A C1A 1_555 1_555
N2A Cu1 1_555 1_555
N3A H5A 1_555 1_555
C8A N3A 1_555 1_555
C9A N2A 1_555 1_555
H6A C9A 1_555 1_555
C10A N2A 1_555 1_555
H7A C10A 1_555 1_555
C11A C10A 1_555 1_555
H8A C11A 1_555 1_555
C12A C8A 1_555 1_555
H9A C12A 1_555 1_555
O1A C13A 1_555 1_555
O2A C20A 1_555 1_555
C13A N3A 1_555 1_555
C14A C13A 1_555 1_555
H10A C14A 1_555 1_555
H11A C14A 1_555 1_555
C15A C14A 1_555 1_555
H12A C15A 1_555 1_555
H13A C15A 1_555 1_555
C16A C15A 1_555 1_555
H14A C16A 1_555 1_555
H15A C16A 1_555 1_555
C17A C16A 1_555 1_555
H16A C17A 1_555 1_555
H17A C17A 1_555 1_555
C18A C17A 1_555 1_555
H18A C18A 1_555 1_555
H19A C18A 1_555 1_555
C19A C18A 1_555 1_555
H20A C19A 1_555 1_555
H21A C19A 1_555 1_555
C20A C19A 1_555 1_555
N4A C22A 1_555 1_555
N4_2 Cu1 1_555 1_555
N4A_2 Cu1 1_555 1_555
N5A C20A 1_555 1_555
H22A N5A 1_555 1_555
C21A N5A 1_555 1_555
C22A C21A 1_555 1_555
H23A C22A 1_555 1_555
C23A N4A 1_555 1_555
H24A C23A 1_555 1_555
C24A C23A 1_555 1_555
H25A C24A 1_555 1_555
C25A C21A 1_555 1_555
H26A C25A 1_555 1_555
C6 C7 1_555 1_555
C8 C9 1_555 1_555
C11 C12 1_555 1_555
C24 C25 1_555 1_555
C8A C9A 1_555 1_555
C11A C12A 1_555 1_555
C24A C25A 1_555 1_555

#END
