
#######################################################################
#
#                 Cambridge Crystallographic Data Centre
#                                CCDC 
#
#######################################################################
#
# If this CIF has been generated from an entry in the Cambridge 
# Structural Database, then it will include bibliographic, chemical, 
# crystal, experimental, refinement or atomic coordinate data resulting 
# from the CCDC's data processing and validation procedures.
#
#######################################################################

data_UHIYAN
_symmetry_cell_setting           monoclinic
_symmetry_space_group_name_H-M   'P 21/c'
_symmetry_Int_Tables_number      14
_space_group_name_Hall           '-P 2ybc'
loop_
_symmetry_equiv_pos_site_id
_symmetry_equiv_pos_as_xyz
1 x,y,z
2 -x,1/2+y,1/2-z
3 -x,-y,-z
4 x,1/2-y,1/2+z
_cell_length_a                   18.0564(13)
_cell_length_b                   9.2594(7)
_cell_length_c                   8.2426(6)
_cell_angle_alpha                90
_cell_angle_beta                 100.0290(10)
_cell_angle_gamma                90
_cell_volume                     1357.03
loop_
_atom_site_label
_atom_site_type_symbol
_atom_site_fract_x
_atom_site_fract_y
_atom_site_fract_z
Cu1 Cu 0.442147(13) 0.73826(3) 0.09216(3)
O1 O 0.49078(8) 0.91845(14) 0.18814(17)
O2 O 0.54629(8) 1.12548(15) 0.13955(17)
O3 O 0.54404(8) 0.65859(15) 0.07704(18)
O4 O 0.59369(8) 0.45278(15) 0.00445(17)
N1 N 0.33921(10) 0.80137(19) 0.1182(2)
N2 N 0.07329(10) 0.9966(2) 0.1044(2)
C1 C 0.19988(12) 0.8856(2) 0.1915(3)
C2 C 0.22217(13) 0.7422(2) 0.1991(3)
H1 H 0.1898 0.6698 0.2292
C3 C 0.24911(12) 0.9848(2) 0.1432(3)
H2 H 0.2360 1.0842 0.1348
C4 C 0.12646(12) 0.9316(3) 0.2399(3)
H3 H 0.1025 0.8463 0.2814
H4 H 0.1372 1.0022 0.3311
C5 C 0.00537(12) 1.0428(3) 0.1675(3)
H5 H 0.0193 1.1153 0.2557
H6 H -0.0170 0.9587 0.2153
C6 C 0.29146(13) 0.7044(2) 0.1629(3)
H7 H 0.3059 0.6056 0.1699
C7 C 0.31693(12) 0.9396(2) 0.1073(3)
H8 H 0.3495 1.0096 0.0732
C8 C 0.05186(12) 0.8927(2) -0.0301(3)
H9 H 0.0304 0.8054 0.0132
H10 H 0.0972 0.8634 -0.0744
C9 C 0.51088(11) 1.0132(2) 0.0945(3)
C10 C 0.53962(11) 0.5313(2) 0.0237(2)
O1B O 0.50922(8) 1.08155(14) -0.18814(17)
O2B O 0.45371(8) 0.87452(15) -0.13955(17)
C9B C 0.48912(11) 0.9868(2) -0.0945(3)
O3B O 0.45596(8) 0.34141(15) -0.07704(18)
O4B O 0.40631(8) 0.54722(15) -0.00445(17)
C10B C 0.46038(11) 0.4687(2) -0.0237(2)
N1B N -0.33921(10) 1.19863(19) -0.1182(2)
N2B N -0.07329(10) 1.0034(2) -0.1044(2)
C1B C -0.19988(12) 1.1144(2) -0.1915(3)
C2B C -0.22217(13) 1.2578(2) -0.1991(3)
H1B H -0.1898 1.3302 -0.2292
C3B C -0.24911(12) 1.0152(2) -0.1432(3)
H2B H -0.2360 0.9158 -0.1348
C4B C -0.12646(12) 1.0684(3) -0.2399(3)
H3B H -0.1025 1.1537 -0.2814
H4B H -0.1372 0.9978 -0.3311
C5B C -0.00537(12) 0.9572(3) -0.1675(3)
H5B H -0.0193 0.8847 -0.2557
H6B H 0.0170 1.0413 -0.2153
C6B C -0.29146(13) 1.2956(2) -0.1629(3)
H7B H -0.3059 1.3944 -0.1699
C7B C -0.31693(12) 1.0604(2) -0.1073(3)
H8B H -0.3495 0.9904 -0.0732
C8B C -0.05186(12) 1.1073(2) 0.0301(3)
H9B H -0.0304 1.1946 -0.0132
H10B H -0.0972 1.1366 0.0744
Cu1B Cu -0.442147(13) 1.26174(3) -0.09216(3)
Cu1A Cu 0.557853(13) 1.23826(3) 0.40784(3)
Cu1B_2 Cu 0.557853(13) 0.26174(3) -0.09216(3)
Cu1B_3 Cu 0.557853(13) 1.26174(3) -0.09216(3)
Cu1C Cu 0.442147(13) 0.76174(3) -0.40784(3)
O1B_2 O -0.49078(8) 1.08155(14) -0.18814(17)
O2_2 O -0.45371(8) 1.12548(15) 0.13955(17)
O2A O 0.45371(8) 0.62548(15) 0.36045(17)
O2C O -0.45371(8) 1.37452(15) -0.36045(17)
O3B_2 O -0.54404(8) 1.34141(15) -0.07704(18)
O4_2 O -0.40631(8) 1.45278(15) 0.00445(17)
O5 O 0.12337(11) 1.24533(19) -0.0504(3)
H11 H 0.1085(15) 1.175(2) -0.001(3)
H12 H 0.1505(15) 1.208(3) -0.112(3)
O6 O 0.19418(11) 1.3895(2) 0.2211(3)
H13 H 0.1743(15) 1.348(3) 0.129(3)
H14 H 0.2408(10) 1.368(3) 0.228(4)
O7 O 0.34009(11) 1.3068(3) 0.2035(3)
H15 H 0.3674(17) 1.264(3) 0.281(3)
H16 H 0.3640(16) 1.351(3) 0.144(3)
loop_
_geom_bond_atom_site_label_1
_geom_bond_atom_site_label_2
_geom_bond_site_symmetry_1
_geom_bond_site_symmetry_2
Cu1 O1 1_555 1_555
O1 C9 1_555 1_555
O2 C9 1_555 1_555
O3 Cu1 1_555 1_555
O4 C10 1_555 1_555
N1 Cu1 1_555 1_555
N2 C4 1_555 1_555
C1 C2 1_555 1_555
C2 H1 1_555 1_555
C3 C1 1_555 1_555
H2 C3 1_555 1_555
C4 C1 1_555 1_555
H3 C4 1_555 1_555
H4 C4 1_555 1_555
C5 N2 1_555 1_555
H5 C5 1_555 1_555
H6 C5 1_555 1_555
C6 N1 1_555 1_555
H7 C6 1_555 1_555
C7 N1 1_555 1_555
H8 C7 1_555 1_555
C8 N2 1_555 1_555
H9 C8 1_555 1_555
H10 C8 1_555 1_555
C9 C9B 1_555 1_555
C10 O3 1_555 1_555
O5 H11 1_555 1_555
H12 O5 1_555 1_555
O6 H13 1_555 1_555
H14 O6 1_555 1_555
O7 H15 1_555 1_555
H16 O7 1_555 1_555
O1B C9B 1_555 1_555
O2B Cu1 1_555 1_555
C9B O2B 1_555 1_555
O3B C10B 1_555 1_555
O4B Cu1 1_555 1_555
C10B C10 1_555 1_555
N1B C6B 1_555 1_555
N2B C4B 1_555 1_555
C1B C2B 1_555 1_555
C2B H1B 1_555 1_555
C3B C1B 1_555 1_555
H2B C3B 1_555 1_555
C4B C1B 1_555 1_555
H3B C4B 1_555 1_555
H4B C4B 1_555 1_555
C5B C8 1_555 1_555
H5B C5B 1_555 1_555
H6B C5B 1_555 1_555
C6B C2B 1_555 1_555
H7B C6B 1_555 1_555
C7B N1B 1_555 1_555
H8B C7B 1_555 1_555
C8B C5 1_555 1_555
H9B C8B 1_555 1_555
H10B C8B 1_555 1_555
Cu1B N1B 1_555 1_555
Cu1A O2 1_555 1_555
Cu1B_2 O4 1_555 1_555
Cu1B_3 O2 1_555 1_555
Cu1C O2B 1_555 1_555
O1B_2 Cu1B 1_555 1_555
O2_2 Cu1B 1_555 1_555
O2A Cu1 1_555 1_555
O2C Cu1B 1_555 1_555
O3B_2 Cu1B 1_555 1_555
O4_2 Cu1B 1_555 1_555
C2 C6 1_555 1_555
C3 C7 1_555 1_555
O1B Cu1B_3 1_555 1_555
O3B Cu1B_2 1_555 1_555
O4B C10B 1_555 1_555
N2B C5B 1_555 1_555
N2B C8B 1_555 1_555
C3B C7B 1_555 1_555

#END
