
#######################################################################
#
#                 Cambridge Crystallographic Data Centre
#                                CCDC 
#
#######################################################################
#
# If this CIF has been generated from an entry in the Cambridge 
# Structural Database, then it will include bibliographic, chemical, 
# crystal, experimental, refinement or atomic coordinate data resulting 
# from the CCDC's data processing and validation procedures.
#
#######################################################################

data_UHIYEQ
_symmetry_cell_setting           monoclinic
_symmetry_space_group_name_H-M   'P 21/n'
_symmetry_Int_Tables_number      14
_space_group_name_Hall           '-P 2yn'
loop_
_symmetry_equiv_pos_site_id
_symmetry_equiv_pos_as_xyz
1 x,y,z
2 1/2-x,1/2+y,1/2-z
3 -x,-y,-z
4 1/2+x,1/2-y,1/2+z
_cell_length_a                   10.1605(10)
_cell_length_b                   15.0606(15)
_cell_length_c                   20.010(2)
_cell_angle_alpha                90
_cell_angle_beta                 100.338(3)
_cell_angle_gamma                90
_cell_volume                     3012.29
loop_
_atom_site_label
_atom_site_type_symbol
_atom_site_fract_x
_atom_site_fract_y
_atom_site_fract_z
Cu1 Cu 0.5000 0.0000 0.0000
S1 S 0.5636(2) 0.26612(12) 0.12028(11)
N1 N 0.5508(3) 0.1064(2) 0.05315(15)
C1 C 0.5572(4) 0.1721(3) 0.0817(2)
O1 O 0.5143(3) -0.0433(2) 0.26576(13)
N2 N 0.3679(3) -0.0320(2) 0.06294(14)
C2 C 0.3276(3) -0.0540(3) 0.17616(16)
C3 C 0.4077(4) -0.0316(3) 0.13005(17)
H1 H 0.4956 -0.0150 0.1470
C4 C 0.2405(4) -0.0545(3) 0.03943(19)
H2 H 0.2104 -0.0556 -0.0073
C5 C 0.1527(4) -0.0759(3) 0.08174(19)
H3 H 0.0645 -0.0906 0.0638
C6 C 0.1964(4) -0.0756(3) 0.15091(17)
H4 H 0.1381 -0.0897 0.1802
C7 C 0.3916(4) -0.0539(3) 0.24975(17)
O2 O -0.0186(2) 0.0622(2) 0.72744(12)
N3 N 0.3086(3) 0.0803(2) 0.92174(14)
C8 C 0.1652(3) 0.0977(3) 0.81352(17)
C9 C 0.2527(4) 0.0491(3) 0.86056(17)
H5 H 0.2738 -0.0083 0.8491
C10 C 0.2753(4) 0.1612(3) 0.9372(2)
H6 H 0.3148 0.1846 0.9790
C11 C 0.1855(5) 0.2126(3) 0.8948(3)
H7 H 0.1631 0.2688 0.9083
C12 C 0.1289(5) 0.1801(3) 0.8324(2)
H8 H 0.0666 0.2137 0.8032
C13 C 0.1031(4) 0.0608(3) 0.74578(17)
N4 N 0.3139(3) -0.0647(2) 0.29539(13)
H9 H 0.2293 -0.0718 0.2818
N5 N 0.1864(3) 0.0297(2) 0.70712(14)
H10 H 0.2709 0.0288 0.7228
C14 C 0.3667(4) -0.0650(3) 0.36789(17)
H11 H 0.4267 -0.0149 0.3791
H12 H 0.4176 -0.1190 0.3798
C15 C 0.2552(4) -0.0593(3) 0.40829(17)
H13 H 0.2000 -0.1121 0.3999
H14 H 0.1994 -0.0084 0.3929
C16 C 0.3067(4) -0.0508(3) 0.48411(17)
H15 H 0.3579 -0.1035 0.4998
H16 H 0.3668 -0.0003 0.4920
C17 C 0.1969(4) -0.0390(3) 0.52555(17)
H17 H 0.1464 -0.0939 0.5242
H18 H 0.1362 0.0070 0.5047
C18 C 0.2478(4) -0.0145(3) 0.59897(18)
H19 H 0.3080 -0.0605 0.6201
H20 H 0.2982 0.0404 0.6006
C19 C 0.1369(4) -0.0030(3) 0.63867(17)
H21 H 0.0716 0.0385 0.6151
H22 H 0.0924 -0.0595 0.6414
Cu1_2 Cu 0.5000 0.0000 1.0000
Cu1_3 Cu 0.5000 0.0000 -1.0000
S1B S 0.4364(2) -0.26612(12) -0.12028(11)
N1B N 0.4492(3) -0.1064(2) -0.05315(15)
C1B C 0.4428(4) -0.1721(3) -0.0817(2)
O1B O 0.4857(3) 0.0433(2) -0.26576(13)
N2B N 0.6321(3) 0.0320(2) -0.06294(14)
C2B C 0.6724(3) 0.0540(3) -0.17616(16)
C3B C 0.5923(4) 0.0316(3) -0.13005(17)
H1B H 0.5044 0.0150 -0.1470
C4B C 0.7595(4) 0.0545(3) -0.03943(19)
H2B H 0.7896 0.0556 0.0073
C5B C 0.8473(4) 0.0759(3) -0.08174(19)
H3B H 0.9355 0.0906 -0.0638
C6B C 0.8036(4) 0.0756(3) -0.15091(17)
H4B H 0.8619 0.0897 -0.1802
C7B C 0.6084(4) 0.0539(3) -0.24975(17)
O2B O 1.0186(2) -0.0622(2) -0.72744(12)
N3B N 0.6914(3) -0.0803(2) -0.92174(14)
N3_2 N 0.3086(3) 0.0803(2) -0.07826(14)
N3B_2 N 0.6914(3) -0.0803(2) 0.07826(14)
C8B C 0.8348(3) -0.0977(3) -0.81352(17)
C9B C 0.7473(4) -0.0491(3) -0.86056(17)
H5B H 0.7262 0.0083 -0.8491
C10B C 0.7247(4) -0.1612(3) -0.9372(2)
H6B H 0.6852 -0.1846 -0.9790
C11B C 0.8145(5) -0.2126(3) -0.8948(3)
H7B H 0.8369 -0.2688 -0.9083
C12B C 0.8711(5) -0.1801(3) -0.8324(2)
H8B H 0.9334 -0.2137 -0.8032
C13B C 0.8969(4) -0.0608(3) -0.74578(17)
N4B N 0.6861(3) 0.0647(2) -0.29539(13)
H9B H 0.7707 0.0718 -0.2818
N5B N 0.8136(3) -0.0297(2) -0.70712(14)
H10B H 0.7291 -0.0288 -0.7228
C14B C 0.6333(4) 0.0650(3) -0.36789(17)
H11B H 0.5733 0.0149 -0.3791
H12B H 0.5824 0.1190 -0.3798
C15B C 0.7448(4) 0.0593(3) -0.40829(17)
H13B H 0.8000 0.1121 -0.3999
H14B H 0.8006 0.0084 -0.3929
C16B C 0.6933(4) 0.0508(3) -0.48411(17)
H15B H 0.6421 0.1035 -0.4998
H16B H 0.6332 0.0003 -0.4920
C17B C 0.8031(4) 0.0390(3) -0.52555(17)
H17B H 0.8536 0.0939 -0.5242
H18B H 0.8638 -0.0070 -0.5047
C18B C 0.7522(4) 0.0145(3) -0.59897(18)
H19B H 0.6920 0.0605 -0.6201
H20B H 0.7018 -0.0404 -0.6006
C19B C 0.8631(4) 0.0030(3) -0.63867(17)
H21B H 0.9284 -0.0385 -0.6151
H22B H 0.9076 0.0595 -0.6414
C20 C 0.3360(8) 0.1794(4) 0.4070(5)
H23 H 0.4241 0.1677 0.4270
C21 C 0.2356(12) 0.1989(5) 0.4477(4)
H24 H 0.2562 0.1991 0.4949
C22 C 0.1088(10) 0.2172(4) 0.4139(4)
H25 H 0.0432 0.2307 0.4393
C23 C -0.0463(9) 0.2003(5) 0.1291(5)
H26 H -0.1360 0.2066 0.1095
C24 C 0.0500(12) 0.1851(5) 0.0883(4)
H27 H 0.0274 0.1826 0.0412
C25 C 0.1795(10) 0.1741(4) 0.1214(4)
H28 H 0.2443 0.1636 0.0949
C26 C 0.2953(9) 0.1785(4) 0.3353(4)
C27 C 0.1641(9) 0.1960(4) 0.3047(4)
C28 C 0.0744(10) 0.2165(4) 0.3454(4)
C29 C -0.0049(9) 0.2060(4) 0.2016(4)
C30 C 0.1287(8) 0.1925(4) 0.2289(3)
C31 C 0.2201(9) 0.1773(4) 0.1895(4)
C32 C -0.0847(12) 0.2218(9) 0.2434(10)
H29 H -0.1755 0.2285 0.2262
C35 C -0.0452(14) 0.2286(8) 0.3072(9)
H32 H -0.1117 0.2450 0.3313
C33? C 0.3386(13) 0.1632(8) 0.2311(9)
H30? H 0.4100 0.1546 0.2085
C34? C 0.3704(13) 0.1596(8) 0.2957(9)
H31? H 0.4566 0.1412 0.3141
loop_
_geom_bond_atom_site_label_1
_geom_bond_atom_site_label_2
_geom_bond_site_symmetry_1
_geom_bond_site_symmetry_2
Cu1 N1 1_555 1_555
S1 C1 1_555 1_555
N1 C1 1_555 1_555
O1 C7 1_555 1_555
N2 Cu1 1_555 1_555
C2 C3 1_555 1_555
C3 N2 1_555 1_555
H1 C3 1_555 1_555
C4 N2 1_555 1_555
H2 C4 1_555 1_555
C5 C4 1_555 1_555
H3 C5 1_555 1_555
C6 C2 1_555 1_555
H4 C6 1_555 1_555
C7 C2 1_555 1_555
O2 C13 1_555 1_555
N3 C9 1_555 1_555
C8 C9 1_555 1_555
C9 H5 1_555 1_555
C10 N3 1_555 1_555
H6 C10 1_555 1_555
C11 C10 1_555 1_555
H7 C11 1_555 1_555
C12 C8 1_555 1_555
H8 C12 1_555 1_555
C13 C8 1_555 1_555
N4 C7 1_555 1_555
H9 N4 1_555 1_555
N5 C13 1_555 1_555
H10 N5 1_555 1_555
C14 N4 1_555 1_555
H11 C14 1_555 1_555
H12 C14 1_555 1_555
C15 C14 1_555 1_555
H13 C15 1_555 1_555
H14 C15 1_555 1_555
C16 C15 1_555 1_555
H15 C16 1_555 1_555
H16 C16 1_555 1_555
C17 C16 1_555 1_555
H17 C17 1_555 1_555
H18 C17 1_555 1_555
C18 C17 1_555 1_555
H19 C18 1_555 1_555
H20 C18 1_555 1_555
C19 N5 1_555 1_555
H21 C19 1_555 1_555
H22 C19 1_555 1_555
C20 H23 1_555 1_555
C21 C20 1_555 1_555
H24 C21 1_555 1_555
C22 C21 1_555 1_555
H25 C22 1_555 1_555
C23 H26 1_555 1_555
C24 C23 1_555 1_555
H27 C24 1_555 1_555
C25 C24 1_555 1_555
H28 C25 1_555 1_555
C26 C20 1_555 1_555
C27 C26 1_555 1_555
C28 C22 1_555 1_555
C29 C23 1_555 1_555
C30 C27 1_555 1_555
C31 C25 1_555 1_555
C32 C29 1_555 1_555
H29 C32 1_555 1_555
C35 C28 1_555 1_555
H32 C35 1_555 1_555
Cu1_2 N3 1_555 1_555
Cu1_3 N3B 1_555 1_555
S1B C1B 1_555 1_555
N1B Cu1 1_555 1_555
C1B N1B 1_555 1_555
O1B C7B 1_555 1_555
N2B Cu1 1_555 1_555
C2B C3B 1_555 1_555
C3B N2B 1_555 1_555
H1B C3B 1_555 1_555
C4B N2B 1_555 1_555
H2B C4B 1_555 1_555
C5B C4B 1_555 1_555
H3B C5B 1_555 1_555
C6B C2B 1_555 1_555
H4B C6B 1_555 1_555
C7B C2B 1_555 1_555
O2B C13B 1_555 1_555
N3B C9B 1_555 1_555
N3_2 Cu1 1_555 1_555
N3B_2 Cu1 1_555 1_555
C8B C9B 1_555 1_555
C9B H5B 1_555 1_555
C10B N3B 1_555 1_555
H6B C10B 1_555 1_555
C11B C10B 1_555 1_555
H7B C11B 1_555 1_555
C12B C8B 1_555 1_555
H8B C12B 1_555 1_555
C13B C8B 1_555 1_555
N4B C7B 1_555 1_555
H9B N4B 1_555 1_555
N5B C13B 1_555 1_555
H10B N5B 1_555 1_555
C14B N4B 1_555 1_555
H11B C14B 1_555 1_555
H12B C14B 1_555 1_555
C15B C14B 1_555 1_555
H13B C15B 1_555 1_555
H14B C15B 1_555 1_555
C16B C15B 1_555 1_555
H15B C16B 1_555 1_555
H16B C16B 1_555 1_555
C17B C16B 1_555 1_555
H17B C17B 1_555 1_555
H18B C17B 1_555 1_555
C18B C17B 1_555 1_555
H19B C18B 1_555 1_555
H20B C18B 1_555 1_555
C19B N5B 1_555 1_555
H21B C19B 1_555 1_555
H22B C19B 1_555 1_555
C5 C6 1_555 1_555
C11 C12 1_555 1_555
C18 C19 1_555 1_555
C27 C28 1_555 1_555
C29 C30 1_555 1_555
C30 C31 1_555 1_555
C32 C35 1_555 1_555
C5B C6B 1_555 1_555
C11B C12B 1_555 1_555
C18B C19B 1_555 1_555

#END
