
#######################################################################
#
#                 Cambridge Crystallographic Data Centre
#                                CCDC 
#
#######################################################################
#
# If this CIF has been generated from an entry in the Cambridge 
# Structural Database, then it will include bibliographic, chemical, 
# crystal, experimental, refinement or atomic coordinate data resulting 
# from the CCDC's data processing and validation procedures.
#
#######################################################################

data_UHIYAM
_symmetry_cell_setting           triclinic
_symmetry_space_group_name_H-M   'P -1'
_symmetry_Int_Tables_number      2
_space_group_name_Hall           '-P 1'
loop_
_symmetry_equiv_pos_site_id
_symmetry_equiv_pos_as_xyz
1 x,y,z
2 -x,-y,-z
_cell_length_a                   9.210(6)
_cell_length_b                   10.155(7)
_cell_length_c                   15.921(11)
_cell_angle_alpha                93.77(2)
_cell_angle_beta                 104.08(2)
_cell_angle_gamma                109.20(2)
_cell_volume                     1346.6
loop_
_atom_site_label
_atom_site_type_symbol
_atom_site_fract_x
_atom_site_fract_y
_atom_site_fract_z
Cu1 Cu 0.5000 0.5000 0.0000
S1 S 0.6098(2) 0.5395(2) 0.30043(9)
C7 C 0.5353(6) 0.5068(5) 0.1951(3)
N1 N 0.4845(5) 0.4836(4) 0.1197(2)
O1 O 1.0577(4) 0.7616(3) 0.2439(2)
N2 N 0.6637(4) 0.7025(4) 0.0425(2)
C8 C 0.9036(5) 0.8613(4) 0.1456(3)
C9 C 0.7837(5) 0.7314(4) 0.1153(3)
H5 H 0.7868 0.6590 0.1478
C10 C 0.6593(6) 0.8072(5) -0.0034(3)
H6 H 0.5766 0.7892 -0.0546
C11 C 0.7736(6) 0.9413(5) 0.0226(3)
H7 H 0.7676 1.0123 -0.0107
C12 C 0.8964(6) 0.9689(5) 0.0980(3)
H8 H 0.9737 1.0590 0.1168
C13 C 1.0374(5) 0.8693(5) 0.2249(3)
O2 O 1.8906(4) 1.7294(3) 0.7765(2)
N3 N 2.2745(4) 1.5975(4) 0.9671(2)
C14 C 2.0423(5) 1.6329(4) 0.8791(3)
C15 C 2.1757(5) 1.5951(4) 0.8893(3)
H9 H 2.1986 1.5660 0.8390
C16 C 2.2399(6) 1.6411(5) 1.0383(3)
H10 H 2.3057 1.6425 1.0932
C17 C 2.1123(6) 1.6840(5) 1.0346(3)
H11 H 2.0939 1.7154 1.0858
C18 C 2.0120(6) 1.6799(4) 0.9541(3)
H12 H 1.9247 1.7084 0.9502
C19 C 1.9343(5) 1.6291(4) 0.7910(3)
N4 N 1.1259(4) 0.9968(4) 0.2712(2)
H13 H 1.1074 1.0701 0.2548
N5 N 1.8882(5) 1.5133(4) 0.7319(2)
H14 H 1.9241 1.4469 0.7454
C20 C 1.2539(6) 1.0115(4) 0.3497(3)
H15 H 1.3308 0.9754 0.3341
H16 H 1.2096 0.9554 0.3906
C21 C 1.3387(6) 1.1635(5) 0.3936(3)
H17 H 1.2610 1.2008 0.4069
H18 H 1.3869 1.2188 0.3535
C22 C 1.4676(5) 1.1788(4) 0.4775(3)
H19 H 1.4180 1.1269 0.5184
H20 H 1.5414 1.1363 0.4645
C23 C 1.5607(6) 1.3295(5) 0.5208(3)
H21 H 1.4860 1.3739 0.5300
H22 H 1.6163 1.3796 0.4814
C24 C 1.6816(5) 1.3452(5) 0.6076(3)
H23 H 1.6258 1.3015 0.6487
H24 H 1.7524 1.2959 0.5995
C25 C 1.7788(6) 1.4958(5) 0.6452(3)
H25 H 1.8402 1.5375 0.6058
H26 H 1.7073 1.5465 0.6491
Cu1_2 Cu 2.5000 1.5000 1.0000
Cu1_3 Cu -1.5000 -0.5000 -1.0000
S1A S 0.3902(2) 0.4605(2) -0.30043(9)
C7A C 0.4647(6) 0.4932(5) -0.1951(3)
N1A N 0.5155(5) 0.5164(4) -0.1197(2)
O1A O -0.0577(4) 0.2384(3) -0.2439(2)
N2A N 0.3363(4) 0.2975(4) -0.0425(2)
C8A C 0.0964(5) 0.1387(4) -0.1456(3)
C9A C 0.2163(5) 0.2686(4) -0.1153(3)
H5A H 0.2132 0.3410 -0.1478
C10A C 0.3407(6) 0.1928(5) 0.0034(3)
H6A H 0.4234 0.2108 0.0546
C11A C 0.2264(6) 0.0587(5) -0.0226(3)
H7A H 0.2324 -0.0123 0.0107
C12A C 0.1036(6) 0.0311(5) -0.0980(3)
H8A H 0.0263 -0.0590 -0.1168
C13A C -0.0374(5) 0.1307(5) -0.2249(3)
O2A O -0.8906(4) -0.7294(3) -0.7765(2)
N3A N -1.2745(4) -0.5975(4) -0.9671(2)
N3_2 N 0.2745(4) 0.5975(4) -0.0329(2)
N3A_2 N 0.7255(4) 0.4025(4) 0.0329(2)
C14A C -1.0423(5) -0.6329(4) -0.8791(3)
C15A C -1.1757(5) -0.5951(4) -0.8893(3)
H9A H -1.1986 -0.5660 -0.8390
C16A C -1.2399(6) -0.6411(5) -1.0383(3)
H10A H -1.3057 -0.6425 -1.0932
C17A C -1.1123(6) -0.6840(5) -1.0346(3)
H11A H -1.0939 -0.7154 -1.0858
C18A C -1.0120(6) -0.6799(4) -0.9541(3)
H12A H -0.9247 -0.7084 -0.9502
C19A C -0.9343(5) -0.6291(4) -0.7910(3)
N4A N -0.1259(4) 0.0032(4) -0.2712(2)
H13A H -0.1074 -0.0701 -0.2548
N5A N -0.8882(5) -0.5133(4) -0.7319(2)
H14A H -0.9241 -0.4469 -0.7454
C20A C -0.2539(6) -0.0115(4) -0.3497(3)
H15A H -0.3308 0.0246 -0.3341
H16A H -0.2096 0.0446 -0.3906
C21A C -0.3387(6) -0.1635(5) -0.3936(3)
H17A H -0.2610 -0.2008 -0.4069
H18A H -0.3869 -0.2188 -0.3535
C22A C -0.4676(5) -0.1788(4) -0.4775(3)
H19A H -0.4180 -0.1269 -0.5184
H20A H -0.5414 -0.1363 -0.4645
C23A C -0.5607(6) -0.3295(5) -0.5208(3)
H21A H -0.4860 -0.3739 -0.5300
H22A H -0.6163 -0.3796 -0.4814
C24A C -0.6816(5) -0.3452(5) -0.6076(3)
H23A H -0.6258 -0.3015 -0.6487
H24A H -0.7524 -0.2959 -0.5995
C25A C -0.7788(6) -0.4958(5) -0.6452(3)
H25A H -0.8402 -0.5375 -0.6058
H26A H -0.7073 -0.5465 -0.6491
Br1 Br 0.04983(8) 1.28396(7) 0.53219(4)
Br2 Br -0.50328(10) 0.96696(9) 0.16776(5)
C1 C -0.3383(7) 1.0618(7) 0.2726(3)
C2 C -0.3030(7) 1.2015(6) 0.2983(4)
H1 H -0.3577 1.2508 0.2645
C3 C -0.1855(7) 1.2692(6) 0.3749(4)
H2 H -0.1578 1.3654 0.3928
C4 C -0.1099(6) 1.1927(6) 0.4245(3)
C5 C -0.1479(7) 1.0523(6) 0.3977(4)
H3 H -0.0943 1.0019 0.4312
C6 C -0.2642(8) 0.9859(6) 0.3219(4)
H4 H -0.2927 0.8896 0.3040
loop_
_geom_bond_atom_site_label_1
_geom_bond_atom_site_label_2
_geom_bond_site_symmetry_1
_geom_bond_site_symmetry_2
Cu1 N1 1_555 1_555
Br1 C4 1_555 1_555
Br2 C1 1_555 1_555
C1 C2 1_555 1_555
C2 H1 1_555 1_555
C3 C2 1_555 1_555
H2 C3 1_555 1_555
C4 C3 1_555 1_555
C5 C4 1_555 1_555
H3 C5 1_555 1_555
C6 C1 1_555 1_555
H4 C6 1_555 1_555
S1 C7 1_555 1_555
C7 N1 1_555 1_555
O1 C13 1_555 1_555
N2 Cu1 1_555 1_555
C8 C9 1_555 1_555
C9 N2 1_555 1_555
H5 C9 1_555 1_555
C10 N2 1_555 1_555
H6 C10 1_555 1_555
C11 C10 1_555 1_555
H7 C11 1_555 1_555
C12 C8 1_555 1_555
H8 C12 1_555 1_555
C13 C8 1_555 1_555
O2 C19 1_555 1_555
N3 C15 1_555 1_555
C14 C15 1_555 1_555
C15 H9 1_555 1_555
C16 N3 1_555 1_555
H10 C16 1_555 1_555
C17 C16 1_555 1_555
H11 C17 1_555 1_555
C18 C14 1_555 1_555
H12 C18 1_555 1_555
C19 C14 1_555 1_555
N4 C13 1_555 1_555
H13 N4 1_555 1_555
N5 C19 1_555 1_555
H14 N5 1_555 1_555
C20 N4 1_555 1_555
H15 C20 1_555 1_555
H16 C20 1_555 1_555
C21 C20 1_555 1_555
H17 C21 1_555 1_555
H18 C21 1_555 1_555
C22 C21 1_555 1_555
H19 C22 1_555 1_555
H20 C22 1_555 1_555
C23 C22 1_555 1_555
H21 C23 1_555 1_555
H22 C23 1_555 1_555
C24 C23 1_555 1_555
H23 C24 1_555 1_555
H24 C24 1_555 1_555
C25 N5 1_555 1_555
H25 C25 1_555 1_555
H26 C25 1_555 1_555
Cu1_2 N3 1_555 1_555
Cu1_3 N3A 1_555 1_555
S1A C7A 1_555 1_555
C7A N1A 1_555 1_555
N1A Cu1 1_555 1_555
O1A C13A 1_555 1_555
N2A Cu1 1_555 1_555
C8A C9A 1_555 1_555
C9A N2A 1_555 1_555
H5A C9A 1_555 1_555
C10A N2A 1_555 1_555
H6A C10A 1_555 1_555
C11A C10A 1_555 1_555
H7A C11A 1_555 1_555
C12A C8A 1_555 1_555
H8A C12A 1_555 1_555
C13A C8A 1_555 1_555
O2A C19A 1_555 1_555
N3A C15A 1_555 1_555
N3_2 Cu1 1_555 1_555
N3A_2 Cu1 1_555 1_555
C14A C15A 1_555 1_555
C15A H9A 1_555 1_555
C16A N3A 1_555 1_555
H10A C16A 1_555 1_555
C17A C16A 1_555 1_555
H11A C17A 1_555 1_555
C18A C14A 1_555 1_555
H12A C18A 1_555 1_555
C19A C14A 1_555 1_555
N4A C13A 1_555 1_555
H13A N4A 1_555 1_555
N5A C19A 1_555 1_555
H14A N5A 1_555 1_555
C20A N4A 1_555 1_555
H15A C20A 1_555 1_555
H16A C20A 1_555 1_555
C21A C20A 1_555 1_555
H17A C21A 1_555 1_555
H18A C21A 1_555 1_555
C22A C21A 1_555 1_555
H19A C22A 1_555 1_555
H20A C22A 1_555 1_555
C23A C22A 1_555 1_555
H21A C23A 1_555 1_555
H22A C23A 1_555 1_555
C24A C23A 1_555 1_555
H23A C24A 1_555 1_555
H24A C24A 1_555 1_555
C25A N5A 1_555 1_555
H25A C25A 1_555 1_555
H26A C25A 1_555 1_555
C5 C6 1_555 1_555
C11 C12 1_555 1_555
C17 C18 1_555 1_555
C24 C25 1_555 1_555
C11A C12A 1_555 1_555
C17A C18A 1_555 1_555
C24A C25A 1_555 1_555

#END
