
#######################################################################
#
#                 Cambridge Crystallographic Data Centre
#                                CCDC 
#
#######################################################################
#
# If this CIF has been generated from an entry in the Cambridge 
# Structural Database, then it will include bibliographic, chemical, 
# crystal, experimental, refinement or atomic coordinate data resulting 
# from the CCDC's data processing and validation procedures.
#
#######################################################################

data_UHIYOB
_symmetry_cell_setting           triclinic
_symmetry_space_group_name_H-M   'P -1'
_symmetry_Int_Tables_number      2
_space_group_name_Hall           '-P 1'
loop_
_symmetry_equiv_pos_site_id
_symmetry_equiv_pos_as_xyz
1 x,y,z
2 -x,-y,-z
_cell_length_a                   9.489(2)
_cell_length_b                   13.441(3)
_cell_length_c                   18.529(5)
_cell_angle_alpha                109.804(4)
_cell_angle_beta                 90.008(4)
_cell_angle_gamma                107.135(4)
_cell_volume                     2111.59
loop_
_atom_site_label
_atom_site_type_symbol
_atom_site_fract_x
_atom_site_fract_y
_atom_site_fract_z
Co1 Co 0.2301(2) 0.48802(19) 0.31735(11)
Co2 Co 0.7245(2) 0.47660(17) 0.17144(11)
O1 O 0.3759(10) 0.3970(8) 0.2930(6)
O2 O 0.3825(10) 0.5808(8) 0.2626(6)
O3 O 0.5841(10) 0.3958(8) 0.2377(6)
O4 O 0.5828(10) 0.5727(7) 0.2013(5)
O5 O 0.0873(10) 0.5842(8) 0.3285(6)
O6 O 0.0922(11) 0.4000(8) 0.2131(6)
O7 O -0.1248(10) 0.5773(8) 0.2719(6)
O8 O -0.1273(10) 0.3884(8) 0.1598(6)
N1 N 0.3422(11) 0.5950(9) 0.4281(6)
N2 N 0.5215(13) 0.9044(10) 0.6907(7)
N3 N 0.0883(13) 0.3682(10) 0.3573(7)
N4 N -0.0654(11) 0.0509(9) 0.4575(6)
N5 N 0.5869(13) 1.3541(10) 1.0734(7)
N6 N 0.4168(12) 1.0237(9) 0.8299(7)
N7 N 0.8342(12) 0.5835(9) 0.1120(7)
N8 N 1.0298(13) 0.9169(10) 0.0248(7)
C1 C 0.4808(14) 0.4344(11) 0.2569(8)
C2 C 0.4823(15) 0.5359(11) 0.2384(8)
C3 C -0.0215(16) 0.5401(12) 0.2762(9)
C4 C -0.0181(16) 0.4324(12) 0.2092(9)
C5 C 0.3986(16) 0.7062(12) 0.4436(9)
H1 H 0.3851 0.7336 0.4039
C6 C 0.4736(16) 0.7810(12) 0.5125(9)
H2 H 0.5089 0.8583 0.5209
C7 C 0.4972(15) 0.7414(13) 0.5700(9)
C8 C 0.4393(15) 0.6318(12) 0.5567(8)
H3 H 0.4494 0.6036 0.5964
C9 C 0.3651(15) 0.5602(13) 0.4853(9)
H4 H 0.3288 0.4828 0.4765
C10 C 0.5887(15) 0.8192(11) 0.6464(9)
H5 H 0.5994 0.7747 0.6779
H6 H 0.6892 0.8567 0.6363
C11 C 0.3862(15) 0.8512(11) 0.7194(9)
H7 H 0.4112 0.8147 0.7536
H8 H 0.3157 0.7934 0.6754
C12 C 0.6241(15) 0.9833(13) 0.7581(8)
H9 H 0.7194 1.0181 0.7414
H10 H 0.6441 0.9437 0.7913
C13 C 0.0079(15) 0.3932(12) 0.4166(8)
H11 H 0.0018 0.4667 0.4372
C14 C -0.0660(15) 0.3167(12) 0.4485(9)
H12 H -0.1189 0.3391 0.4915
C15 C -0.0650(15) 0.2083(12) 0.4197(9)
C16 C 0.0093(16) 0.1834(12) 0.3549(9)
H13 H 0.0071 0.1086 0.3291
C17 C 0.0844(16) 0.2624(12) 0.3275(9)
H14 H 0.1376 0.2414 0.2845
C18 C -0.1478(15) 0.1258(12) 0.4547(9)
H15 H -0.1659 0.1660 0.5077
H16 H -0.2452 0.0817 0.4239
C19 C -0.1569(14) -0.0325(12) 0.4886(8)
H17 H -0.2513 -0.0754 0.4546
H18 H -0.1809 0.0062 0.5405
C20 C 0.0759(15) 0.1104(11) 0.5065(8)
H19 H 0.0574 0.1522 0.5590
H20 H 0.1385 0.1648 0.4853
C21 C 0.5827(15) 1.2485(13) 1.0557(9)
H21 H 0.6322 1.2288 1.0908
C22 C 0.5070(15) 1.1666(12) 0.9869(10)
H22 H 0.5072 1.0920 0.9742
C23 C 0.4324(15) 1.1948(13) 0.9379(8)
C24 C 0.4330(15) 1.3028(12) 0.9588(9)
H23 H 0.3790 1.3241 0.9266
C25 C 0.5111(16) 1.3787(13) 1.0254(9)
H24 H 0.5118 1.4537 1.0387
C26 C 0.3461(16) 1.1102(12) 0.8633(9)
H25 H 0.2438 1.0753 0.8727
H26 H 0.3400 1.1477 0.8262
C27 C 0.3163(16) 0.9356(12) 0.7625(8)
H27 H 0.2243 0.8985 0.7806
H28 H 0.2887 0.9701 0.7275
C28 C 0.5578(15) 1.0722(12) 0.8032(9)
H29 H 0.6287 1.1263 0.8483
H30 H 0.5405 1.1128 0.7701
C29 C 0.8573(15) 0.5528(12) 0.0375(9)
H31 H 0.8193 0.4759 0.0068
C30 C 0.9311(16) 0.6235(12) 0.0027(9)
H32 H 0.9451 0.5956 -0.0503
C31 C 0.9861(15) 0.7369(12) 0.0444(10)
C32 C 0.9644(16) 0.7712(12) 0.1219(9)
H33 H 1.0010 0.8476 0.1537
C33 C 0.8879(16) 0.6916(12) 0.1522(9)
H34 H 0.8731 0.7164 0.2052
C34 C 1.0814(15) 0.8208(12) 0.0133(10)
H35 H 1.1841 0.8473 0.0387
H36 H 1.0839 0.7838 -0.0427
C35 C 0.9039(17) 0.8911(12) -0.0308(9)
H37 H 0.8217 0.8289 -0.0261
H38 H 0.9330 0.8669 -0.0837
C36 C 1.1481(16) 1.0102(12) 0.0179(10)
H39 H 1.1813 0.9879 -0.0342
H40 H 1.2339 1.0303 0.0562
N3A N -0.0883(13) -0.3682(10) 0.6427(7)
N4A N 0.0654(11) -0.0509(9) 0.5425(6)
C13A C -0.0079(15) -0.3932(12) 0.5834(8)
H11A H -0.0018 -0.4667 0.5628
C14A C 0.0660(15) -0.3167(12) 0.5515(9)
H12A H 0.1189 -0.3391 0.5085
C15A C 0.0650(15) -0.2083(12) 0.5803(9)
C16A C -0.0093(16) -0.1834(12) 0.6451(9)
H13A H -0.0071 -0.1086 0.6709
C17A C -0.0844(16) -0.2624(12) 0.6725(9)
H14A H -0.1376 -0.2414 0.7155
C18A C 0.1478(15) -0.1258(12) 0.5453(9)
H15A H 0.1659 -0.1660 0.4923
H16A H 0.2452 -0.0817 0.5761
C19A C 0.1569(14) 0.0325(12) 0.5114(8)
H17A H 0.2513 0.0754 0.5454
H18A H 0.1809 -0.0062 0.4595
C20A C -0.0759(15) -0.1104(11) 0.4935(8)
H19A H -0.0574 -0.1522 0.4410
H20A H -0.1385 -0.1648 0.5147
N7A N 1.1658(12) 1.4165(9) -0.1120(7)
N8A N 0.9702(13) 1.0831(10) -0.0248(7)
C29A C 1.1427(15) 1.4472(12) -0.0375(9)
H31A H 1.1807 1.5241 -0.0068
C30A C 1.0689(16) 1.3765(12) -0.0027(9)
H32A H 1.0549 1.4044 0.0503
C31A C 1.0139(15) 1.2631(12) -0.0444(10)
C32A C 1.0356(16) 1.2288(12) -0.1219(9)
H33A H 0.9990 1.1524 -0.1537
C33A C 1.1121(16) 1.3084(12) -0.1522(9)
H34A H 1.1269 1.2836 -0.2052
C34A C 0.9186(15) 1.1792(12) -0.0133(10)
H35A H 0.8159 1.1527 -0.0387
H36A H 0.9161 1.2162 0.0427
C35A C 1.0961(17) 1.1089(12) 0.0308(9)
H37A H 1.1783 1.1711 0.0261
H38A H 1.0670 1.1331 0.0837
C36A C 0.8519(16) 0.9898(12) -0.0179(10)
H39A H 0.8187 1.0121 0.0342
H40A H 0.7661 0.9697 -0.0562
Co1A Co -0.2301(2) -0.48802(19) 0.68265(11)
Co2A Co -0.7245(2) -0.47660(17) 0.82856(11)
O1A O -0.3759(10) -0.3970(8) 0.7070(6)
O2A O -0.3825(10) -0.5808(8) 0.7374(6)
O3A O -0.5841(10) -0.3958(8) 0.7623(6)
O4A O -0.5828(10) -0.5727(7) 0.7987(5)
O5A O -0.0873(10) -0.5842(8) 0.6715(6)
O6A O -0.0922(11) -0.4000(8) 0.7869(6)
O7A O 0.1248(10) -0.5773(8) 0.7281(6)
O8A O 0.1273(10) -0.3884(8) 0.8402(6)
N1A N -0.3422(11) -0.5950(9) 0.5719(6)
N2A N -0.5215(13) -0.9044(10) 0.3093(7)
N5A N -0.5869(13) -1.3541(10) -0.0734(7)
N6A N -0.4168(12) -1.0237(9) 0.1701(7)
C1A C -0.4808(14) -0.4344(11) 0.7431(8)
C2A C -0.4823(15) -0.5359(11) 0.7616(8)
C3A C 0.0215(16) -0.5401(12) 0.7238(9)
C4A C 0.0181(16) -0.4324(12) 0.7908(9)
C5A C -0.3986(16) -0.7062(12) 0.5564(9)
H1A H -0.3851 -0.7336 0.5961
C6A C -0.4736(16) -0.7810(12) 0.4875(9)
H2A H -0.5089 -0.8583 0.4791
C7A C -0.4972(15) -0.7414(13) 0.4300(9)
C8A C -0.4393(15) -0.6318(12) 0.4433(8)
H3A H -0.4494 -0.6036 0.4036
C9A C -0.3651(15) -0.5602(13) 0.5147(9)
H4A H -0.3288 -0.4828 0.5235
C10A C -0.5887(15) -0.8192(11) 0.3536(9)
H5A H -0.5994 -0.7747 0.3221
H6A H -0.6892 -0.8567 0.3637
C11A C -0.3862(15) -0.8512(11) 0.2806(9)
H7A H -0.4112 -0.8147 0.2464
H8A H -0.3157 -0.7934 0.3246
C12A C -0.6241(15) -0.9833(13) 0.2419(8)
H9A H -0.7194 -1.0181 0.2586
H10A H -0.6441 -0.9437 0.2087
C21A C -0.5827(15) -1.2485(13) -0.0557(9)
H21A H -0.6322 -1.2288 -0.0908
C22A C -0.5070(15) -1.1666(12) 0.0131(10)
H22A H -0.5072 -1.0920 0.0258
C23A C -0.4324(15) -1.1948(13) 0.0621(8)
C24A C -0.4330(15) -1.3028(12) 0.0412(9)
H23A H -0.3790 -1.3241 0.0734
C25A C -0.5111(16) -1.3787(13) -0.0254(9)
H24A H -0.5118 -1.4537 -0.0387
C26A C -0.3461(16) -1.1102(12) 0.1367(9)
H25A H -0.2438 -1.0753 0.1273
H26A H -0.3400 -1.1477 0.1738
C27A C -0.3163(16) -0.9356(12) 0.2375(8)
H27A H -0.2243 -0.8985 0.2194
H28A H -0.2887 -0.9701 0.2725
C28A C -0.5578(15) -1.0722(12) 0.1968(9)
H29A H -0.6287 -1.1263 0.1517
H30A H -0.5405 -1.1128 0.2299
Co2_2 Co -0.2755(2) 0.47660(17) 0.17144(11)
Co2_3 Co 0.7245(2) 1.47660(17) 1.17144(11)
Co2A_2 Co -0.7245(2) -1.47660(17) -0.17144(11)
Co2A_3 Co 0.2755(2) -0.47660(17) 0.82856(11)
Co2A_4 Co 1.2755(2) 1.52340(17) -0.17144(11)
O7_2 O 0.8752(10) 0.5773(8) 0.2719(6)
O7A_2 O -0.8752(10) -0.5773(8) 0.7281(6)
O8_2 O 0.8727(10) 0.3884(8) 0.1598(6)
O8A_2 O -0.8727(10) -0.3884(8) 0.8402(6)
N5_2 N 0.5869(13) 0.3541(10) 0.0734(7)
N5A_2 N -0.5869(13) -0.3541(10) 0.9266(7)
N7A_2 N -0.8342(12) -0.5835(9) 0.8880(7)
O9 O 0.4638(10) 0.9297(8) 0.3810(6)
H41 H 0.4341 0.9594 0.4253
H42 H 0.4544 0.9651 0.3507
O10 O 0.1713(12) 0.8056(8) 0.3189(7)
H43 H 0.1558 0.7855 0.3589
H44 H 0.1475 0.7467 0.2770
O11 O 0.6992(12) 0.6298(12) 0.4003(8)
H45 H 0.6851 0.5922 0.3510
H46 H 0.7340 0.5951 0.4244
O12 O 0.2115(11) 0.6346(11) 0.1562(7)
H47 H 0.2012 0.6885 0.1959
H48 H 0.2529 0.6613 0.1220
O13 O 0.6516(12) 0.8005(9) 0.3131(7)
H49 H 0.6092 0.8480 0.3403
H50 H 0.7333 0.8360 0.2994
O14 O 0.9523(11) 0.9053(8) 0.3106(6)
H51 H 0.9689 0.9650 0.3515
H52 H 1.0075 0.9204 0.2758
loop_
_geom_bond_atom_site_label_1
_geom_bond_atom_site_label_2
_geom_bond_site_symmetry_1
_geom_bond_site_symmetry_2
Co1 O1 1_555 1_555
Co2 O3 1_555 1_555
O1 C1 1_555 1_555
O2 Co1 1_555 1_555
O3 C1 1_555 1_555
O4 Co2 1_555 1_555
O5 Co1 1_555 1_555
O6 Co1 1_555 1_555
O7 C3 1_555 1_555
O8 C4 1_555 1_555
N1 Co1 1_555 1_555
N2 C10 1_555 1_555
N3 Co1 1_555 1_555
N4 C18 1_555 1_555
N5 C21 1_555 1_555
N6 C26 1_555 1_555
N7 Co2 1_555 1_555
N8 C34 1_555 1_555
C1 C2 1_555 1_555
C2 O2 1_555 1_555
C3 O5 1_555 1_555
C4 O6 1_555 1_555
C5 N1 1_555 1_555
H1 C5 1_555 1_555
C6 C5 1_555 1_555
H2 C6 1_555 1_555
C7 C6 1_555 1_555
C8 C7 1_555 1_555
H3 C8 1_555 1_555
C9 N1 1_555 1_555
H4 C9 1_555 1_555
C10 C7 1_555 1_555
H5 C10 1_555 1_555
H6 C10 1_555 1_555
C11 N2 1_555 1_555
H7 C11 1_555 1_555
H8 C11 1_555 1_555
C12 N2 1_555 1_555
H9 C12 1_555 1_555
H10 C12 1_555 1_555
C13 N3 1_555 1_555
H11 C13 1_555 1_555
C14 C13 1_555 1_555
H12 C14 1_555 1_555
C15 C14 1_555 1_555
C16 C15 1_555 1_555
H13 C16 1_555 1_555
C17 N3 1_555 1_555
H14 C17 1_555 1_555
C18 C15 1_555 1_555
H15 C18 1_555 1_555
H16 C18 1_555 1_555
C19 N4 1_555 1_555
H17 C19 1_555 1_555
H18 C19 1_555 1_555
C20 N4 1_555 1_555
H19 C20 1_555 1_555
H20 C20 1_555 1_555
C21 H21 1_555 1_555
C22 C21 1_555 1_555
H22 C22 1_555 1_555
C23 C22 1_555 1_555
C24 C23 1_555 1_555
H23 C24 1_555 1_555
C25 N5 1_555 1_555
H24 C25 1_555 1_555
C26 C23 1_555 1_555
H25 C26 1_555 1_555
H26 C26 1_555 1_555
C27 N6 1_555 1_555
H27 C27 1_555 1_555
H28 C27 1_555 1_555
C28 N6 1_555 1_555
H29 C28 1_555 1_555
H30 C28 1_555 1_555
C29 N7 1_555 1_555
H31 C29 1_555 1_555
C30 C29 1_555 1_555
H32 C30 1_555 1_555
C31 C30 1_555 1_555
C32 C31 1_555 1_555
H33 C32 1_555 1_555
C33 N7 1_555 1_555
H34 C33 1_555 1_555
C34 C31 1_555 1_555
H35 C34 1_555 1_555
H36 C34 1_555 1_555
C35 N8 1_555 1_555
H37 C35 1_555 1_555
H38 C35 1_555 1_555
C36 N8 1_555 1_555
H39 C36 1_555 1_555
H40 C36 1_555 1_555
O9 H41 1_555 1_555
H42 O9 1_555 1_555
O10 H43 1_555 1_555
H44 O10 1_555 1_555
O11 H45 1_555 1_555
H46 O11 1_555 1_555
O12 H47 1_555 1_555
H48 O12 1_555 1_555
O13 H49 1_555 1_555
H50 O13 1_555 1_555
O14 H51 1_555 1_555
H52 O14 1_555 1_555
N3A C13A 1_555 1_555
N4A C18A 1_555 1_555
C13A H11A 1_555 1_555
C14A C13A 1_555 1_555
H12A C14A 1_555 1_555
C15A C14A 1_555 1_555
C16A C15A 1_555 1_555
H13A C16A 1_555 1_555
C17A N3A 1_555 1_555
H14A C17A 1_555 1_555
C18A C15A 1_555 1_555
H15A C18A 1_555 1_555
H16A C18A 1_555 1_555
C19A C20 1_555 1_555
H17A C19A 1_555 1_555
H18A C19A 1_555 1_555
C20A C19 1_555 1_555
H19A C20A 1_555 1_555
H20A C20A 1_555 1_555
N7A C29A 1_555 1_555
N8A C34A 1_555 1_555
C29A H31A 1_555 1_555
C30A C29A 1_555 1_555
H32A C30A 1_555 1_555
C31A C30A 1_555 1_555
C32A C31A 1_555 1_555
H33A C32A 1_555 1_555
C33A N7A 1_555 1_555
H34A C33A 1_555 1_555
C34A C31A 1_555 1_555
H35A C34A 1_555 1_555
H36A C34A 1_555 1_555
C35A C36 1_555 1_555
H37A C35A 1_555 1_555
H38A C35A 1_555 1_555
C36A C35 1_555 1_555
H39A C36A 1_555 1_555
H40A C36A 1_555 1_555
Co1A N3A 1_555 1_555
Co2A O3A 1_555 1_555
O1A Co1A 1_555 1_555
O2A Co1A 1_555 1_555
O3A C1A 1_555 1_555
O4A Co2A 1_555 1_555
O5A Co1A 1_555 1_555
O6A Co1A 1_555 1_555
O7A C3A 1_555 1_555
O8A C4A 1_555 1_555
N1A Co1A 1_555 1_555
N2A C10A 1_555 1_555
N5A C21A 1_555 1_555
N6A C26A 1_555 1_555
C1A O1A 1_555 1_555
C2A O2A 1_555 1_555
C3A O5A 1_555 1_555
C4A O6A 1_555 1_555
C5A N1A 1_555 1_555
H1A C5A 1_555 1_555
C6A C5A 1_555 1_555
H2A C6A 1_555 1_555
C7A C6A 1_555 1_555
C8A C7A 1_555 1_555
H3A C8A 1_555 1_555
C9A N1A 1_555 1_555
H4A C9A 1_555 1_555
C10A C7A 1_555 1_555
H5A C10A 1_555 1_555
H6A C10A 1_555 1_555
C11A N2A 1_555 1_555
H7A C11A 1_555 1_555
H8A C11A 1_555 1_555
C12A N2A 1_555 1_555
H9A C12A 1_555 1_555
H10A C12A 1_555 1_555
C21A H21A 1_555 1_555
C22A C21A 1_555 1_555
H22A C22A 1_555 1_555
C23A C22A 1_555 1_555
C24A C23A 1_555 1_555
H23A C24A 1_555 1_555
C25A N5A 1_555 1_555
H24A C25A 1_555 1_555
C26A C23A 1_555 1_555
H25A C26A 1_555 1_555
H26A C26A 1_555 1_555
C27A N6A 1_555 1_555
H27A C27A 1_555 1_555
H28A C27A 1_555 1_555
C28A N6A 1_555 1_555
H29A C28A 1_555 1_555
H30A C28A 1_555 1_555
Co2_2 O7 1_555 1_555
Co2_3 N5 1_555 1_555
Co2A_2 N5A 1_555 1_555
Co2A_3 O7A 1_555 1_555
Co2A_4 N7A 1_555 1_555
O7_2 Co2 1_555 1_555
O7A_2 Co2A 1_555 1_555
O8_2 Co2 1_555 1_555
O8A_2 Co2A 1_555 1_555
N5_2 Co2 1_555 1_555
N5A_2 Co2A 1_555 1_555
N7A_2 Co2A 1_555 1_555
O4 C2 1_555 1_555
O8 Co2_2 1_555 1_555
C3 C4 1_555 1_555
C8 C9 1_555 1_555
C11 C27 1_555 1_555
C12 C28 1_555 1_555
C16 C17 1_555 1_555
C24 C25 1_555 1_555
C32 C33 1_555 1_555
N4A C19A 1_555 1_555
N4A C20A 1_555 1_555
C16A C17A 1_555 1_555
N8A C35A 1_555 1_555
N8A C36A 1_555 1_555
C32A C33A 1_555 1_555
O4A C2A 1_555 1_555
O8A Co2A_3 1_555 1_555
C1A C2A 1_555 1_555
C3A C4A 1_555 1_555
C8A C9A 1_555 1_555
C11A C27A 1_555 1_555
C12A C28A 1_555 1_555
C24A C25A 1_555 1_555

#END
