
#######################################################################
#
#                 Cambridge Crystallographic Data Centre
#                                CCDC 
#
#######################################################################
#
# If this CIF has been generated from an entry in the Cambridge 
# Structural Database, then it will include bibliographic, chemical, 
# crystal, experimental, refinement or atomic coordinate data resulting 
# from the CCDC's data processing and validation procedures.
#
#######################################################################

data_UHIZUI
_symmetry_cell_setting           rhombohedral
_symmetry_space_group_name_H-M   'R 3 c'
_symmetry_Int_Tables_number      161
_space_group_name_Hall           'R 3 -2"c'
loop_
_symmetry_equiv_pos_site_id
_symmetry_equiv_pos_as_xyz
1 x,y,z
2 -y,x-y,z
3 -x+y,-x,z
4 -x+y,y,1/2+z
5 x,x-y,1/2+z
6 -y,-x,1/2+z
7 2/3+x,1/3+y,1/3+z
8 2/3-y,1/3+x-y,1/3+z
9 2/3-x+y,1/3-x,1/3+z
10 2/3-x+y,1/3+y,5/6+z
11 2/3+x,1/3+x-y,5/6+z
12 2/3-y,1/3-x,5/6+z
13 1/3+x,2/3+y,2/3+z
14 1/3-y,2/3+x-y,2/3+z
15 1/3-x+y,2/3-x,2/3+z
16 1/3-x+y,2/3+y,1/6+z
17 1/3+x,2/3+x-y,1/6+z
18 1/3-y,2/3-x,1/6+z
_cell_length_a                   20.1157(5)
_cell_length_b                   20.1157(5)
_cell_length_c                   59.6452(18)
_cell_angle_alpha                90
_cell_angle_beta                 90
_cell_angle_gamma                120
_cell_volume                     20901.5
loop_
_atom_site_label
_atom_site_type_symbol
_atom_site_fract_x
_atom_site_fract_y
_atom_site_fract_z
Cu1 Cu 0.650478(18) -0.450808(19) 1.159901(5)
Cu2 Cu 0.430210(18) -0.687429(18) 1.053560(6)
I1 I 0.306583(13) -0.694330(13) 1.022941(7)
B1 B 0.6667 -0.6667 1.21669(10)
B2 B 0.6368(2) -0.3741(3) 1.07090(7)
B3 B 0.35626(14) -0.68704(15) 1.14395(6)
B4 B 0.6667 -0.6667 1.00144(10)
N1 N 0.67726(11) -0.50184(11) 1.18507(4)
N2 N 0.58470(11) -0.69208(11) 1.00936(4)
N3 N 0.36299(10) -0.66942(11) 1.11815(4)
N4 N 0.72579(11) -0.36010(11) 1.06772(4)
N5 N 0.54020(12) -0.53067(13) 1.16415(4)
N6 N 0.68002(11) -0.58961(11) 1.20676(4)
N7 N 0.41998(12) -0.62506(13) 1.15572(4)
N8 N 0.38956(12) -0.66781(12) 1.08219(4)
N9 N 0.62265(11) -0.41761(12) 1.13241(4)
N10 N 0.35192(12) -0.76569(12) 1.14618(4)
N11 N 0.58739(12) -0.45283(12) 1.05813(4)
N12 N 0.62108(12) -0.38985(12) 1.09564(4)
N13 N 0.82446(12) -0.37643(13) 1.06131(4)
N14 N 0.38435(12) -0.85468(11) 1.15243(4)
N15 N 0.50207(11) -0.57516(11) 1.05007(4)
N16 N 0.48946(12) -0.70714(13) 1.02952(5)
C1 C 0.79012(16) -0.29005(15) 1.07131(6)
H1 H 0.7914 -0.2435 1.0751
C2 C 0.40765(14) -0.77694(14) 1.15325(5)
H2 H 0.4566 -0.7377 1.1582
C3 C 0.65064(16) -0.41078(16) 1.11139(6)
H3 H 0.6909 -0.4211 1.1083
C4 C 0.49473(15) -0.57733(14) 1.14843(6)
H4 H 0.5115 -0.5782 1.1336
C5 C 0.74782(16) -0.41015(15) 1.06233(5)
H5 H 0.7136 -0.4631 1.0595
C6 C 0.39079(15) -0.69593(17) 1.10156(5)
H6 H 0.4089 -0.7309 1.1040
C7 C 0.65240(14) -0.57404(14) 1.18810(5)
H7 H 0.6178 -0.6127 1.1781
C8 C 0.85228(18) -0.30015(17) 1.06845(5)
H8 H 0.9045 -0.2626 1.0708
C9 C 0.56389(13) -0.67324(14) 1.02765(5)
H9 H 0.5987 -0.6388 1.0385
C10 C 0.53475(14) -0.53729(14) 1.03088(5)
H10 H 0.5225 -0.5602 1.0164
C11 C 0.72579(16) -0.46759(14) 1.20278(6)
H11 H 0.7462(9) -0.4303(9) 1.2048(3)
C12 C 0.49632(17) -0.55015(17) 1.18317(6)
H12 H 0.5127 -0.5280 1.1976
C13 C 0.42607(19) -0.60622(19) 1.17757(6)
H13 H 0.3848 -0.6302 1.1879
C14 C 0.56378(15) -0.38455(15) 1.10615(6)
H14 H 0.5285 -0.3720 1.0995
C15 C 0.56714(14) -0.40074(16) 1.12811(5)
H15 H 0.5337 -0.4002 1.1393
C16 C 0.31178(14) -0.88985(15) 1.14346(5)
H16 H 0.2810 -0.9433 1.1406
C17 C 0.72971(15) -0.51799(14) 1.21546(5)
H17 H 0.7611 -0.5075 1.2284
C18 C 0.29074(14) -0.83622(14) 1.13930(5)
H18 H 0.2437 -0.8451 1.1330
C19 C 0.53631(14) -0.52417(14) 1.06557(5)
H19 H 0.5263 -0.5359 1.0811
C20 C 0.51700(16) -0.74641(17) 0.99990(6)
H20 H 0.5131 -0.7751 0.9868
C21 C 0.36671(16) -0.61249(16) 1.08487(5)
H21 H 0.3637 -0.5799 1.0739
C22 C 0.58518(14) -0.46549(14) 1.03457(5)
H22 H 0.6151 -0.4283 1.0236
C23 C 0.35023(14) -0.61765(16) 1.10700(6)
H23 H 0.3315 -0.5880 1.1141
C24 C 0.45835(16) -0.75317(16) 1.01144(5)
H24 H 0.4054 -0.7838 1.0079
N1A N 0.50184(11) -0.82090(16) 1.18507(4)
N6A N 0.58961(11) -0.73037(16) 1.20676(4)
C7A C 0.57404(14) -0.77356(20) 1.18810(5)
H7A H 0.6127 -0.7695 1.1781
C11A C 0.46759(14) -0.80662(21) 1.20278(6)
H11A H 0.4303(9) -0.8235(13) 1.2048(3)
C17A C 0.51799(14) -0.75230(21) 1.21546(5)
H17A H 0.5075 -0.7314 1.2284
N1B N 0.82090(16) -0.67726(11) 1.18507(4)
N6B N 0.73037(16) -0.68002(11) 1.20676(4)
C7B C 0.77356(20) -0.65240(14) 1.18810(5)
H7B H 0.7695 -0.6178 1.1781
C11B C 0.80662(21) -0.72579(16) 1.20278(6)
H11B H 0.8235(13) -0.7462(9) 1.2048(3)
C17B C 0.75230(21) -0.72971(15) 1.21546(5)
H17B H 0.7314 -0.7611 1.2284
N2A N 0.69208(11) -0.72322(16) 1.00936(4)
N16A N 0.70714(13) -0.80340(18) 1.02952(5)
C9A C 0.67324(14) -0.76287(19) 1.02765(5)
H9A H 0.6388 -0.7625 1.0385
C20A C 0.74641(17) -0.73659(23) 0.99990(6)
H20A H 0.7751 -0.7118 0.9868
C24A C 0.75317(16) -0.78848(23) 1.01144(5)
H24A H 0.7838 -0.8108 1.0079
N2B N 0.72322(16) -0.58470(11) 1.00936(4)
N16B N 0.80340(18) -0.48946(12) 1.02952(5)
C9B C 0.76287(19) -0.56389(13) 1.02765(5)
H9B H 0.7625 -0.5987 1.0385
C20B C 0.73659(23) -0.51700(16) 0.99990(6)
H20B H 0.7118 -0.5131 0.9868
C24B C 0.78848(23) -0.45835(16) 1.01144(5)
H24B H 0.8108 -0.4054 1.0079
Cu1A Cu 0.450808(19) -0.898714(26) 1.159901(5)
Cu2A Cu 0.687429(18) -0.882361(25) 1.053560(6)
I1A I 0.694330(13) -0.999087(18) 1.022941(7)
B2A B 0.3741(3) -0.9891(4) 1.07090(7)
B3A B 0.68704(15) -0.95670(21) 1.14395(6)
N3A N 0.66942(11) -0.96759(15) 1.11815(4)
N4A N 0.36010(11) -0.91411(16) 1.06772(4)
N5A N 0.53067(13) -0.92913(18) 1.16415(4)
N7A N 0.62506(13) -0.95496(18) 1.15572(4)
N8A N 0.66781(12) -0.94263(17) 1.08219(4)
N9A N 0.41761(12) -0.95974(16) 1.13241(4)
N10A N 0.76569(12) -0.88239(17) 1.14618(4)
N11A N 0.45283(12) -0.95978(17) 1.05813(4)
N12A N 0.38985(12) -0.98907(17) 1.09564(4)
N13A N 0.37643(13) -0.79911(18) 1.06131(4)
N14A N 0.85468(11) -0.76097(16) 1.15243(4)
N15A N 0.57516(11) -0.92277(16) 1.05007(4)
C1A C 0.29005(15) -0.91983(22) 1.07131(6)
H1A H 0.2435 -0.9651 1.0751
C2A C 0.77694(14) -0.81541(20) 1.15325(5)
H2A H 0.7377 -0.8057 1.1582
C3A C 0.41078(16) -0.93858(23) 1.11139(6)
H3A H 0.4211 -0.8880 1.1083
C4A C 0.57733(14) -0.92794(21) 1.14843(6)
H4A H 0.5782 -0.9103 1.1336
C5A C 0.41015(15) -0.84203(22) 1.06233(5)
H5A H 0.4631 -0.8233 1.0595
C6A C 0.69593(17) -0.91328(23) 1.10156(5)
H6A H 0.7309 -0.8602 1.1040
C8A C 0.30015(17) -0.84757(25) 1.06845(5)
H8A H 0.2626 -0.8329 1.0708
C10A C 0.53729(14) -0.92796(20) 1.03088(5)
H10A H 0.5602 -0.9173 1.0164
C12A C 0.55015(17) -0.95353(24) 1.18317(6)
H12A H 0.5280 -0.9593 1.1976
C13A C 0.60622(19) -0.96771(27) 1.17757(6)
H13A H 0.6302 -0.9850 1.1879
C14A C 0.38455(15) -1.05167(21) 1.10615(6)
H14A H 0.3720 -1.0995 1.0995
C15A C 0.40074(16) -1.03212(21) 1.12811(5)
H15A H 0.4002 -1.0661 1.1393
C16A C 0.88985(15) -0.79837(21) 1.14346(5)
H16A H 0.9433 -0.7757 1.1406
C18A C 0.83622(14) -0.87304(20) 1.13930(5)
H18A H 0.8451 -0.9112 1.1330
C19A C 0.52417(14) -0.93952(20) 1.06557(5)
H19A H 0.5359 -0.9378 1.0811
C21A C 0.61249(16) -1.02080(23) 1.08487(5)
H21A H 0.5799 -1.0564 1.0739
C22A C 0.46549(14) -0.94933(20) 1.03457(5)
H22A H 0.4283 -0.9566 1.0236
C23A C 0.61765(16) -1.03212(21) 1.10700(6)
H23A H 0.5880 -1.0805 1.1141
Cu1B Cu 0.898714(26) -0.650478(18) 1.159901(5)
Cu2B Cu 0.882361(25) -0.430210(18) 1.053560(6)
I1B I 0.999087(18) -0.306583(13) 1.022941(7)
B2B B 0.9891(4) -0.6368(2) 1.07090(7)
B3B B 0.95670(21) -0.35626(14) 1.14395(6)
N3B N 0.96759(15) -0.36299(10) 1.11815(4)
N4B N 0.91411(16) -0.72579(11) 1.06772(4)
N5B N 0.92913(18) -0.54020(12) 1.16415(4)
N7B N 0.95496(18) -0.41998(12) 1.15572(4)
N8B N 0.94263(17) -0.38956(12) 1.08219(4)
N9B N 0.95974(16) -0.62265(11) 1.13241(4)
N10B N 0.88239(17) -0.35192(12) 1.14618(4)
N11B N 0.95978(17) -0.58739(12) 1.05813(4)
N12B N 0.98907(17) -0.62108(12) 1.09564(4)
N13B N 0.79911(18) -0.82446(12) 1.06131(4)
N14B N 0.76097(16) -0.38435(12) 1.15243(4)
N15B N 0.92277(16) -0.50207(11) 1.05007(4)
C1B C 0.91983(22) -0.79012(16) 1.07131(6)
H1B H 0.9651 -0.7914 1.0751
C2B C 0.81541(20) -0.40765(14) 1.15325(5)
H2B H 0.8057 -0.4566 1.1582
C3B C 0.93858(23) -0.65064(16) 1.11139(6)
H3B H 0.8880 -0.6909 1.1083
C4B C 0.92794(21) -0.49473(15) 1.14843(6)
H4B H 0.9103 -0.5115 1.1336
C5B C 0.84203(22) -0.74782(16) 1.06233(5)
H5B H 0.8233 -0.7136 1.0595
C6B C 0.91328(23) -0.39079(15) 1.10156(5)
H6B H 0.8602 -0.4089 1.1040
C8B C 0.84757(25) -0.85228(18) 1.06845(5)
H8B H 0.8329 -0.9045 1.0708
C10B C 0.92796(20) -0.53475(14) 1.03088(5)
H10B H 0.9173 -0.5225 1.0164
C12B C 0.95353(24) -0.49632(17) 1.18317(6)
H12B H 0.9593 -0.5127 1.1976
C13B C 0.96771(27) -0.42607(19) 1.17757(6)
H13B H 0.9850 -0.3848 1.1879
C14B C 1.05167(21) -0.56378(15) 1.10615(6)
H14B H 1.0995 -0.5285 1.0995
C15B C 1.03212(21) -0.56714(14) 1.12811(5)
H15B H 1.0661 -0.5337 1.1393
C16B C 0.79837(21) -0.31178(14) 1.14346(5)
H16B H 0.7757 -0.2810 1.1406
C18B C 0.87304(20) -0.29074(14) 1.13930(5)
H18B H 0.9112 -0.2437 1.1330
C19B C 0.93952(20) -0.53631(14) 1.06557(5)
H19B H 0.9378 -0.5263 1.0811
C21B C 1.02080(23) -0.36671(16) 1.08487(5)
H21B H 1.0564 -0.3637 1.0739
C22B C 0.94933(20) -0.58518(14) 1.03457(5)
H22B H 0.9566 -0.6151 1.0236
C23B C 1.03212(21) -0.35023(14) 1.10700(6)
H23B H 1.0805 -0.3315 1.1141
Cu1I Cu 0.565381(26) -1.117475(19) 0.993234(5)
Cu1J Cu 0.317145(18) -0.565381(26) 0.993234(5)
Cu1K Cu 1.117475(19) -0.317145(18) 0.993234(5)
I1O I 0.332420(18) -1.027663(13) 1.189608(7)
I1P I 0.639916(13) -0.332420(18) 1.189608(7)
I1Q I 1.027663(13) -0.639916(13) 1.189608(7)
loop_
_geom_bond_atom_site_label_1
_geom_bond_atom_site_label_2
_geom_bond_site_symmetry_1
_geom_bond_site_symmetry_2
Cu1 N1 1_555 1_555
Cu2 I1 1_555 1_555
I1 Cu1J 1_555 1_555
B1 N6 1_555 1_555
B2 N4 1_555 1_555
B3 N3 1_555 1_555
B4 N2 1_555 1_555
N1 C7 1_555 1_555
N2 C9 1_555 1_555
N3 C6 1_555 1_555
N4 C1 1_555 1_555
N5 Cu1 1_555 1_555
N6 C7 1_555 1_555
N7 B3 1_555 1_555
N8 Cu2 1_555 1_555
N9 Cu1 1_555 1_555
N10 B3 1_555 1_555
N11 B2 1_555 1_555
N12 B2 1_555 1_555
N13 C5 1_555 1_555
N14 C2 1_555 1_555
N15 Cu2 1_555 1_555
N16 Cu2 1_555 1_555
C1 H1 1_555 1_555
C2 N10 1_555 1_555
H2 C2 1_555 1_555
C3 N9 1_555 1_555
H3 C3 1_555 1_555
C4 N5 1_555 1_555
H4 C4 1_555 1_555
C5 N4 1_555 1_555
H5 C5 1_555 1_555
C6 N8 1_555 1_555
H6 C6 1_555 1_555
C7 H7 1_555 1_555
C8 N13 1_555 1_555
H8 C8 1_555 1_555
C9 N16 1_555 1_555
H9 C9 1_555 1_555
C10 N15 1_555 1_555
H10 C10 1_555 1_555
C11 N1 1_555 1_555
H11 C11 1_555 1_555
C12 N5 1_555 1_555
H12 C12 1_555 1_555
C13 N7 1_555 1_555
H13 C13 1_555 1_555
C14 N12 1_555 1_555
H14 C14 1_555 1_555
C15 N9 1_555 1_555
H15 C15 1_555 1_555
C16 N14 1_555 1_555
H16 C16 1_555 1_555
C17 N6 1_555 1_555
H17 C17 1_555 1_555
C18 N10 1_555 1_555
H18 C18 1_555 1_555
C19 N11 1_555 1_555
H19 C19 1_555 1_555
C20 N2 1_555 1_555
H20 C20 1_555 1_555
C21 N8 1_555 1_555
H21 C21 1_555 1_555
C22 N11 1_555 1_555
H22 C22 1_555 1_555
C23 N3 1_555 1_555
H23 C23 1_555 1_555
C24 N16 1_555 1_555
H24 C24 1_555 1_555
N1A C7A 1_555 1_555
N6A B1 1_555 1_555
C7A N6A 1_555 1_555
H7A C7A 1_555 1_555
C11A N1A 1_555 1_555
H11A C11A 1_555 1_555
C17A N6A 1_555 1_555
H17A C17A 1_555 1_555
N1B C7B 1_555 1_555
N6B B1 1_555 1_555
C7B N6B 1_555 1_555
H7B C7B 1_555 1_555
C11B N1B 1_555 1_555
H11B C11B 1_555 1_555
C17B N6B 1_555 1_555
H17B C17B 1_555 1_555
N2A B4 1_555 1_555
N16A C9A 1_555 1_555
C9A N2A 1_555 1_555
H9A C9A 1_555 1_555
C20A N2A 1_555 1_555
H20A C20A 1_555 1_555
C24A N16A 1_555 1_555
H24A C24A 1_555 1_555
N2B B4 1_555 1_555
N16B C9B 1_555 1_555
C9B N2B 1_555 1_555
H9B C9B 1_555 1_555
C20B N2B 1_555 1_555
H20B C20B 1_555 1_555
C24B N16B 1_555 1_555
H24B C24B 1_555 1_555
Cu1A N14 1_555 1_555
Cu2A N16A 1_555 1_555
I1A Cu2A 1_555 1_555
B2A N4A 1_555 1_555
B3A N3A 1_555 1_555
N3A C6A 1_555 1_555
N4A C1A 1_555 1_555
N5A Cu1A 1_555 1_555
N7A B3A 1_555 1_555
N8A Cu2A 1_555 1_555
N9A Cu1A 1_555 1_555
N10A B3A 1_555 1_555
N11A B2A 1_555 1_555
N12A B2A 1_555 1_555
N13A Cu2 1_555 1_555
N14A C2A 1_555 1_555
N15A Cu2A 1_555 1_555
C1A H1A 1_555 1_555
C2A N10A 1_555 1_555
H2A C2A 1_555 1_555
C3A N9A 1_555 1_555
H3A C3A 1_555 1_555
C4A N5A 1_555 1_555
H4A C4A 1_555 1_555
C5A N4A 1_555 1_555
H5A C5A 1_555 1_555
C6A N8A 1_555 1_555
H6A C6A 1_555 1_555
C8A N13A 1_555 1_555
H8A C8A 1_555 1_555
C10A N15A 1_555 1_555
H10A C10A 1_555 1_555
C12A N5A 1_555 1_555
H12A C12A 1_555 1_555
C13A N7A 1_555 1_555
H13A C13A 1_555 1_555
C14A N12A 1_555 1_555
H14A C14A 1_555 1_555
C15A N9A 1_555 1_555
H15A C15A 1_555 1_555
C16A N14A 1_555 1_555
H16A C16A 1_555 1_555
C18A N10A 1_555 1_555
H18A C18A 1_555 1_555
C19A N11A 1_555 1_555
H19A C19A 1_555 1_555
C21A N8A 1_555 1_555
H21A C21A 1_555 1_555
C22A N11A 1_555 1_555
H22A C22A 1_555 1_555
C23A N3A 1_555 1_555
H23A C23A 1_555 1_555
Cu1B N1B 1_555 1_555
Cu2B N13 1_555 1_555
I1B Cu2B 1_555 1_555
B2B N4B 1_555 1_555
B3B N3B 1_555 1_555
N3B C6B 1_555 1_555
N4B C1B 1_555 1_555
N5B Cu1B 1_555 1_555
N7B B3B 1_555 1_555
N8B Cu2B 1_555 1_555
N9B Cu1B 1_555 1_555
N10B B3B 1_555 1_555
N11B B2B 1_555 1_555
N12B B2B 1_555 1_555
N13B Cu2A 1_555 1_555
N14B Cu1 1_555 1_555
N15B Cu2B 1_555 1_555
C1B H1B 1_555 1_555
C2B N10B 1_555 1_555
H2B C2B 1_555 1_555
C3B N9B 1_555 1_555
H3B C3B 1_555 1_555
C4B N5B 1_555 1_555
H4B C4B 1_555 1_555
C5B N4B 1_555 1_555
H5B C5B 1_555 1_555
C6B N8B 1_555 1_555
H6B C6B 1_555 1_555
C8B N13B 1_555 1_555
H8B C8B 1_555 1_555
C10B N15B 1_555 1_555
H10B C10B 1_555 1_555
C12B N5B 1_555 1_555
H12B C12B 1_555 1_555
C13B N7B 1_555 1_555
H13B C13B 1_555 1_555
C14B N12B 1_555 1_555
H14B C14B 1_555 1_555
C15B N9B 1_555 1_555
H15B C15B 1_555 1_555
C16B N14B 1_555 1_555
H16B C16B 1_555 1_555
C18B N10B 1_555 1_555
H18B C18B 1_555 1_555
C19B N11B 1_555 1_555
H19B C19B 1_555 1_555
C21B N8B 1_555 1_555
H21B C21B 1_555 1_555
C22B N11B 1_555 1_555
H22B C22B 1_555 1_555
C23B N3B 1_555 1_555
H23B C23B 1_555 1_555
Cu1I I1A 1_555 1_555
Cu1K I1B 1_555 1_555
I1O Cu1A 1_555 1_555
I1P Cu1 1_555 1_555
I1Q Cu1B 1_555 1_555
N7 C4 1_555 1_555
N12 C3 1_555 1_555
N15 C19 1_555 1_555
C1 C8 1_555 1_555
C10 C22 1_555 1_555
C11 C17 1_555 1_555
C12 C13 1_555 1_555
C14 C15 1_555 1_555
C16 C18 1_555 1_555
C20 C24 1_555 1_555
C21 C23 1_555 1_555
N1A Cu1A 1_555 1_555
C11A C17A 1_555 1_555
C11B C17B 1_555 1_555
C20A C24A 1_555 1_555
N16B Cu2B 1_555 1_555
C20B C24B 1_555 1_555
N7A C4A 1_555 1_555
N12A C3A 1_555 1_555
N13A C5A 1_555 1_555
N14A Cu1B 1_555 1_555
N15A C19A 1_555 1_555
C1A C8A 1_555 1_555
C10A C22A 1_555 1_555
C12A C13A 1_555 1_555
C14A C15A 1_555 1_555
C16A C18A 1_555 1_555
C21A C23A 1_555 1_555
N7B C4B 1_555 1_555
N12B C3B 1_555 1_555
N13B C5B 1_555 1_555
N14B C2B 1_555 1_555
N15B C19B 1_555 1_555
C1B C8B 1_555 1_555
C10B C22B 1_555 1_555
C12B C13B 1_555 1_555
C14B C15B 1_555 1_555
C16B C18B 1_555 1_555
C21B C23B 1_555 1_555

#END
