
#######################################################################
#
#                 Cambridge Crystallographic Data Centre
#                                CCDC 
#
#######################################################################
#
# If this CIF has been generated from an entry in the Cambridge 
# Structural Database, then it will include bibliographic, chemical, 
# crystal, experimental, refinement or atomic coordinate data resulting 
# from the CCDC's data processing and validation procedures.
#
#######################################################################

data_UHOBAU
_symmetry_cell_setting           triclinic
_symmetry_space_group_name_H-M   'P -1'
_symmetry_Int_Tables_number      2
_space_group_name_Hall           '-P 1'
loop_
_symmetry_equiv_pos_site_id
_symmetry_equiv_pos_as_xyz
1 x,y,z
2 -x,-y,-z
_cell_length_a                   11.0489(14)
_cell_length_b                   11.7087(16)
_cell_length_c                   16.158(2)
_cell_angle_alpha                70.746(2)
_cell_angle_beta                 85.124(2)
_cell_angle_gamma                80.226(2)
_cell_volume                     1943.82
loop_
_atom_site_label
_atom_site_type_symbol
_atom_site_fract_x
_atom_site_fract_y
_atom_site_fract_z
Cl1 Cl 1.09158(7) -0.05342(6) 0.41300(5)
Cl2 Cl 1.05368(8) 0.34669(7) 0.00355(5)
P1 P 0.95774(7) 0.37415(7) 0.42669(5)
P2 P 0.98517(7) 0.27584(7) 0.28590(5)
P3 P 0.92240(7) 0.53231(7) 0.25244(5)
N1 N 0.9981(2) 0.2638(2) 0.38633(14)
N2 N 0.9480(2) 0.4123(2) 0.22122(14)
N3 N 0.9401(2) 0.5065(2) 0.35460(14)
N4 N 1.0624(2) 0.3528(2) 0.49835(15)
H1 H 1.043(3) 0.381(3) 0.5358(15)
N5 N 1.1115(3) 0.2149(2) 0.24575(16)
H2 H 1.128(3) 0.1469(17) 0.2745(17)
N6 N 1.0069(2) 0.6375(2) 0.19993(15)
H3 H 0.999(3) 0.656(3) 0.1475(11)
N7 N 0.8339(2) 0.3639(2) 0.49184(15)
H4 H 0.840(3) 0.3014(19) 0.5288(15)
N8 N 0.8802(3) 0.1914(2) 0.28345(16)
H5 H 0.882(3) 0.135(2) 0.3264(14)
N9 N 0.7863(2) 0.6014(2) 0.21673(16)
H6 H 0.733(2) 0.563(2) 0.2226(19)
Li1 Li 1.0626(5) 0.1015(4) 0.4784(3)
Li2 Li 0.9266(5) 0.4533(5) 0.0865(3)
O1 O 1.21774(18) 0.07558(17) 0.53924(13)
O2 O 1.4126(2) 0.0450(2) 0.28093(14)
O3 O 1.1476(2) 0.89393(19) 0.13451(14)
O4 O 0.55432(19) 0.4845(2) 0.30526(14)
O5 O 0.7590(2) 0.4141(2) 0.08182(14)
O6 O 0.5228(2) 0.8262(2) 0.10543(13)
C1 C 1.1929(3) 0.3428(3) 0.47428(18)
H7 H 1.2169 0.4256 0.4518
H8 H 1.2089 0.3055 0.4269
C2 C 1.2699(3) 0.2652(3) 0.55250(18)
H9 H 1.2653 0.3103 0.5952
H10 H 1.3568 0.2521 0.5325
C3 C 1.2282(3) 0.1411(3) 0.59832(18)
H11 H 1.2878 0.0911 0.6436
H12 H 1.1476 0.1537 0.6283
C4 C 1.3337(3) 0.0300(3) 0.5071(2)
H13 H 1.3208 -0.0139 0.4671
H14 H 1.3822 -0.0260 0.5564
H15 H 1.3778 0.0985 0.4756
C5 C 1.2247(3) 0.2671(3) 0.2341(2)
H16 H 1.2630 0.2444 0.2916
H17 H 1.2052 0.3575 0.2113
C6 C 1.3151(3) 0.2227(3) 0.1710(2)
H18 H 1.2776 0.2491 0.1129
H19 H 1.3894 0.2623 0.1640
C7 C 1.3534(3) 0.0853(3) 0.2001(2)
H20 H 1.2800 0.0446 0.2062
H21 H 1.4098 0.0626 0.1551
C8 C 1.4341(3) -0.0843(3) 0.3140(2)
H22 H 1.4754 -0.1107 0.3700
H23 H 1.4862 -0.1162 0.2720
H24 H 1.3555 -0.1157 0.3230
C9 C 1.1285(3) 0.6400(3) 0.2284(2)
H25 H 1.1865 0.6554 0.1771
H26 H 1.1589 0.5593 0.2708
C10 C 1.1246(3) 0.7383(3) 0.27078(19)
H27 H 1.0730 0.7178 0.3253
H28 H 1.2088 0.7386 0.2873
C11 C 1.0749(3) 0.8642(3) 0.21274(19)
H29 H 0.9887 0.8669 0.1989
H30 H 1.0765 0.9246 0.2434
C12 C 1.1066(4) 1.0149(3) 0.0793(2)
H31 H 1.1583 1.0335 0.0256
H32 H 1.1122 1.0732 0.1101
H33 H 1.0211 1.0215 0.0642
C13 C 0.7110(3) 0.4097(3) 0.45761(19)
H34 H 0.7132 0.4890 0.4105
H35 H 0.6551 0.4255 0.5052
C14 C 0.6574(3) 0.3256(3) 0.4213(2)
H36 H 0.7160 0.3039 0.3771
H37 H 0.6473 0.2491 0.4695
C15 C 0.5354(3) 0.3820(3) 0.3798(2)
H38 H 0.5007 0.3215 0.3618
H39 H 0.4769 0.4085 0.4222
C16 C 0.4425(3) 0.5442(4) 0.2630(3)
H40 H 0.4587 0.6142 0.2121
H41 H 0.3851 0.5729 0.3041
H42 H 0.4065 0.4867 0.2436
C17 C 0.8560(3) 0.1668(3) 0.2047(2)
H43 H 0.8775 0.0777 0.2148
H44 H 0.9106 0.2087 0.1565
C18 C 0.7255(3) 0.2066(3) 0.1760(2)
H45 H 0.6704 0.1638 0.2234
H46 H 0.7163 0.1824 0.1239
C19 C 0.6859(3) 0.3467(3) 0.1532(2)
H47 H 0.5985 0.3678 0.1373
H48 H 0.6939 0.3707 0.2055
C20 C 0.7233(4) 0.4210(4) -0.0005(2)
H49 H 0.7769 0.4679 -0.0459
H50 H 0.6381 0.4617 -0.0095
H51 H 0.7298 0.3383 -0.0042
C21 C 0.7369(3) 0.7238(3) 0.22177(19)
H52 H 0.7890 0.7447 0.2600
H53 H 0.6531 0.7227 0.2488
C22 C 0.7321(3) 0.8214(3) 0.13219(18)
H54 H 0.7081 0.9026 0.1400
H55 H 0.8154 0.8193 0.1044
C23 C 0.6445(3) 0.8072(3) 0.07168(19)
H56 H 0.6530 0.8673 0.0126
H57 H 0.6634 0.7240 0.0665
C24 C 0.4346(3) 0.8240(4) 0.0483(2)
H58 H 0.3522 0.8378 0.0742
H59 H 0.4481 0.7442 0.0389
H60 H 0.4422 0.8886 -0.0080
Li1A Li 0.9374(5) -0.1015(4) 0.5216(3)
Li2A Li 1.0734(5) 0.5467(5) -0.0865(3)
Cl1A Cl 0.90842(7) 0.05342(6) 0.58700(5)
Cl2A Cl 0.94632(8) 0.65331(7) -0.00355(5)
loop_
_geom_bond_atom_site_label_1
_geom_bond_atom_site_label_2
_geom_bond_site_symmetry_1
_geom_bond_site_symmetry_2
Cl1 Li1 1_555 1_555
Cl2 Li2 1_555 1_555
P1 N1 1_555 1_555
P2 N1 1_555 1_555
P3 N2 1_555 1_555
N1 Li1 1_555 1_555
N2 P2 1_555 1_555
N3 P1 1_555 1_555
N4 P1 1_555 1_555
H1 N4 1_555 1_555
N5 P2 1_555 1_555
H2 N5 1_555 1_555
N6 P3 1_555 1_555
H3 N6 1_555 1_555
N7 P1 1_555 1_555
H4 N7 1_555 1_555
N8 P2 1_555 1_555
H5 N8 1_555 1_555
N9 P3 1_555 1_555
H6 N9 1_555 1_555
Li1 O1 1_555 1_555
Li2 N2 1_555 1_555
O1 C3 1_555 1_555
O2 C7 1_555 1_555
O3 C11 1_555 1_555
O4 C15 1_555 1_555
O5 Li2 1_555 1_555
O6 C23 1_555 1_555
C1 N4 1_555 1_555
H7 C1 1_555 1_555
H8 C1 1_555 1_555
C2 C1 1_555 1_555
H9 C2 1_555 1_555
H10 C2 1_555 1_555
C3 C2 1_555 1_555
H11 C3 1_555 1_555
H12 C3 1_555 1_555
C4 O1 1_555 1_555
H13 C4 1_555 1_555
H14 C4 1_555 1_555
H15 C4 1_555 1_555
C5 N5 1_555 1_555
H16 C5 1_555 1_555
H17 C5 1_555 1_555
C6 C5 1_555 1_555
H18 C6 1_555 1_555
H19 C6 1_555 1_555
C7 C6 1_555 1_555
H20 C7 1_555 1_555
H21 C7 1_555 1_555
C8 O2 1_555 1_555
H22 C8 1_555 1_555
H23 C8 1_555 1_555
H24 C8 1_555 1_555
C9 N6 1_555 1_555
H25 C9 1_555 1_555
H26 C9 1_555 1_555
C10 C9 1_555 1_555
H27 C10 1_555 1_555
H28 C10 1_555 1_555
C11 C10 1_555 1_555
H29 C11 1_555 1_555
H30 C11 1_555 1_555
C12 O3 1_555 1_555
H31 C12 1_555 1_555
H32 C12 1_555 1_555
H33 C12 1_555 1_555
C13 N7 1_555 1_555
H34 C13 1_555 1_555
H35 C13 1_555 1_555
C14 C13 1_555 1_555
H36 C14 1_555 1_555
H37 C14 1_555 1_555
C15 C14 1_555 1_555
H38 C15 1_555 1_555
H39 C15 1_555 1_555
C16 O4 1_555 1_555
H40 C16 1_555 1_555
H41 C16 1_555 1_555
H42 C16 1_555 1_555
C17 N8 1_555 1_555
H43 C17 1_555 1_555
H44 C17 1_555 1_555
C18 C17 1_555 1_555
H45 C18 1_555 1_555
H46 C18 1_555 1_555
C19 O5 1_555 1_555
H47 C19 1_555 1_555
H48 C19 1_555 1_555
C20 O5 1_555 1_555
H49 C20 1_555 1_555
H50 C20 1_555 1_555
H51 C20 1_555 1_555
C21 N9 1_555 1_555
H52 C21 1_555 1_555
H53 C21 1_555 1_555
C22 C21 1_555 1_555
H54 C22 1_555 1_555
H55 C22 1_555 1_555
C23 C22 1_555 1_555
H56 C23 1_555 1_555
H57 C23 1_555 1_555
C24 O6 1_555 1_555
H58 C24 1_555 1_555
H59 C24 1_555 1_555
H60 C24 1_555 1_555
Li1A Cl1 1_555 1_555
Li2A Cl2 1_555 1_555
Cl1A Li1 1_555 1_555
Cl2A Li2 1_555 1_555
P3 N3 1_555 1_555
C18 C19 1_555 1_555
Li1A Cl1A 1_555 1_555
Li2A Cl2A 1_555 1_555

#END
