
#######################################################################
#
#                 Cambridge Crystallographic Data Centre
#                                CCDC 
#
#######################################################################
#
# If this CIF has been generated from an entry in the Cambridge 
# Structural Database, then it will include bibliographic, chemical, 
# crystal, experimental, refinement or atomic coordinate data resulting 
# from the CCDC's data processing and validation procedures.
#
#######################################################################

data_UHOCOK
_symmetry_cell_setting           monoclinic
_symmetry_space_group_name_H-M   'P 21/c'
_symmetry_Int_Tables_number      14
_space_group_name_Hall           '-P 2ybc'
loop_
_symmetry_equiv_pos_site_id
_symmetry_equiv_pos_as_xyz
1 x,y,z
2 -x,1/2+y,1/2-z
3 -x,-y,-z
4 x,1/2-y,1/2+z
_cell_length_a                   13.0984(18)
_cell_length_b                   10.3215(12)
_cell_length_c                   26.751(4)
_cell_angle_alpha                90
_cell_angle_beta                 102.452(7)
_cell_angle_gamma                90
_cell_volume                     3531.53
loop_
_atom_site_label
_atom_site_type_symbol
_atom_site_fract_x
_atom_site_fract_y
_atom_site_fract_z
C1 C 0.4274(3) 0.5043(4) 0.70038(14)
C2 C 0.4226(3) 0.3749(4) 0.69118(14)
C3 C 0.6194(3) 0.4273(4) 0.72033(14)
C4 C 0.7262(3) 0.4264(3) 0.72457(14)
C5 C 0.9065(3) 0.5012(4) 0.71338(14)
C6 C 0.9026(3) 0.3717(4) 0.70235(14)
C7 C 0.3666(3) 0.7380(4) 0.65633(15)
H1 H 0.3234 0.8164 0.6568
H2 H 0.4397 0.7596 0.6729
C8 C 0.3614(4) 0.6964(4) 0.60074(16)
H3 H 0.4087 0.6218 0.6004
H4 H 0.2894 0.6682 0.5851
C9 C 0.3914(3) 0.8024(4) 0.57016(16)
C10 C 0.3322(3) 0.2139(4) 0.61249(15)
H5 H 0.3997 0.1671 0.6203
H6 H 0.2766 0.1501 0.5990
C11 C 0.3352(3) 0.3170(4) 0.57093(16)
H7 H 0.3925 0.3789 0.5839
H8 H 0.3506 0.2739 0.5403
C12 C 0.2370(4) 0.3881(4) 0.55615(15)
C13 C 0.9443(3) 0.7476(4) 0.68173(15)
H9 H 0.9040 0.7809 0.7063
H10 H 0.9971 0.8138 0.6784
C14 C 0.8691(3) 0.7295(4) 0.62907(15)
H11 H 0.8075 0.6792 0.6337
H12 H 0.8442 0.8156 0.6153
C15 C 0.9181(3) 0.6625(4) 0.59178(15)
C16 C 0.9332(3) 0.1543(4) 0.64679(15)
H13 H 0.9856 0.0928 0.6389
H14 H 0.8949 0.1095 0.6698
C17 C 0.8551(3) 0.1873(4) 0.59657(16)
H15 H 0.8272 0.1057 0.5796
H16 H 0.7958 0.2360 0.6049
C18 C 0.9008(3) 0.2643(4) 0.56061(16)
N1 N 0.4154(3) 0.8853(3) 0.54720(13)
N2 N 0.1598(3) 0.4431(4) 0.54439(14)
N3 N 0.9547(3) 0.6100(4) 0.56258(13)
N4 N 0.9365(3) 0.3268(3) 0.53369(14)
S1 S 0.31955(8) 0.60857(9) 0.69177(4)
S2 S 0.30769(8) 0.28358(9) 0.67165(4)
S3 S 0.55193(8) 0.56850(9) 0.72473(4)
S4 S 0.54185(8) 0.29100(9) 0.70477(4)
S5 S 0.80077(8) 0.56572(9) 0.73521(4)
S6 S 0.79395(8) 0.28835(9) 0.71405(4)
S7 S 1.01164(8) 0.59995(9) 0.70764(4)
S8 S 1.00203(8) 0.29174(9) 0.68082(4)
Mn1 Mn 1.0000 0.5000 0.5000
Mn2 Mn 0.5000 1.0000 0.5000
O1 O 0.6352(2) 0.8807(3) 0.53145(11)
O3 O 0.5498(2) 1.1387(3) 0.56353(11)
C1B C 0.5726(3) 0.4957(4) 0.29962(14)
C2B C 0.5774(3) 0.6251(4) 0.30882(14)
C3B C 0.3806(3) 0.5727(4) 0.27967(14)
C4B C 0.2738(3) 0.5736(3) 0.27543(14)
C5B C 0.0935(3) 0.4988(4) 0.28662(14)
C6B C 0.0974(3) 0.6283(4) 0.29765(14)
C7B C 0.6334(3) 0.2620(4) 0.34367(15)
H1B H 0.6766 0.1836 0.3432
H2B H 0.5603 0.2404 0.3271
C8B C 0.6386(4) 0.3036(4) 0.39926(16)
H3B H 0.5913 0.3782 0.3996
H4B H 0.7106 0.3318 0.4149
C9B C 0.6086(3) 0.1976(4) 0.42984(16)
C10B C 0.6678(3) 0.7861(4) 0.38751(15)
H5B H 0.6003 0.8329 0.3797
H6B H 0.7234 0.8499 0.4010
C11B C 0.6648(3) 0.6830(4) 0.42907(16)
H7B H 0.6075 0.6211 0.4161
H8B H 0.6494 0.7261 0.4597
C12B C 0.7630(4) 0.6119(4) 0.44385(15)
C13B C 0.0557(3) 0.2524(4) 0.31827(15)
H9B H 0.0960 0.2191 0.2937
H10B H 0.0029 0.1862 0.3216
C14B C 0.1309(3) 0.2705(4) 0.37093(15)
H11B H 0.1925 0.3208 0.3663
H12B H 0.1558 0.1844 0.3847
C15B C 0.0819(3) 0.3375(4) 0.40822(15)
C16B C 0.0668(3) 0.8457(4) 0.35321(15)
H13B H 0.0144 0.9072 0.3611
H14B H 0.1051 0.8905 0.3302
C17B C 0.1449(3) 0.8127(4) 0.40343(16)
H15B H 0.1728 0.8943 0.4204
H16B H 0.2042 0.7640 0.3951
C18B C 0.0992(3) 0.7357(4) 0.43939(16)
N1B N 0.5846(3) 0.1147(3) 0.45280(13)
N1B_2 N 0.5846(3) 1.1147(3) 0.45280(13)
N2B N 0.8402(3) 0.5569(4) 0.45561(14)
N2_2 N 1.1598(3) 0.4431(4) 0.54439(14)
N3B N 0.0453(3) 0.3900(4) 0.43742(13)
N3B_2 N 1.0453(3) 0.3900(4) 0.43742(13)
N4B N 0.0635(3) 0.6732(3) 0.46631(14)
N4B_2 N 1.0635(3) 0.6732(3) 0.46631(14)
S1B S 0.68045(8) 0.39143(9) 0.30823(4)
S2B S 0.69231(8) 0.71642(9) 0.32835(4)
S3B S 0.44807(8) 0.43150(9) 0.27527(4)
S4B S 0.45815(8) 0.70900(9) 0.29523(4)
S5B S 0.19923(8) 0.43428(9) 0.26479(4)
S6B S 0.20605(8) 0.71165(9) 0.28595(4)
S7B S -0.01164(8) 0.40005(9) 0.29236(4)
S8B S -0.00203(8) 0.70826(9) 0.31918(4)
Mn1_2 Mn 0.0000 0.5000 0.5000
Mn2_2 Mn 0.5000 0.0000 0.5000
O1B O 0.3648(2) 1.1193(3) 0.46855(11)
O3B O 0.4502(2) 0.8613(3) 0.43647(11)
Cl1 Cl 0.64115(8) 0.48119(9) 0.57123(4)
O2 O 0.5552(3) 0.4846(3) 0.59717(13)
O4 O 0.6466(3) 0.6006(3) 0.54448(12)
O5 O 0.7375(2) 0.4618(3) 0.60864(11)
O7 O 0.6268(3) 0.3737(3) 0.53492(12)
Cl2 Cl 1.11974(8) 0.90711(11) 0.60259(4)
O8 O 1.1603(3) 1.0038(4) 0.63838(17)
O9 O 1.0110(3) 0.9296(3) 0.58090(13)
O10 O 1.1311(3) 0.7816(4) 0.62866(17)
O11 O 1.1788(3) 0.8986(4) 0.56355(15)
Cl3 Cl 0.65499(8) -0.07922(9) 0.67207(4)
O12 O 0.6995(3) 0.0176(3) 0.64329(12)
O13 O 0.7285(3) -0.1044(3) 0.71982(12)
O14 O 0.5585(3) -0.0310(3) 0.68168(12)
O15 O 0.6351(3) -0.1968(3) 0.64189(12)
O6 O 1.1781(3) 1.0994(4) 0.49426(14)
loop_
_geom_bond_atom_site_label_1
_geom_bond_atom_site_label_2
_geom_bond_site_symmetry_1
_geom_bond_site_symmetry_2
C1 C2 1_555 1_555
C2 S2 1_555 1_555
C3 C4 1_555 1_555
C4 S5 1_555 1_555
C5 C6 1_555 1_555
C6 S6 1_555 1_555
C7 H1 1_555 1_555
H2 C7 1_555 1_555
C8 C7 1_555 1_555
H3 C8 1_555 1_555
H4 C8 1_555 1_555
C9 C8 1_555 1_555
C10 H5 1_555 1_555
H6 C10 1_555 1_555
C11 C10 1_555 1_555
H7 C11 1_555 1_555
H8 C11 1_555 1_555
C12 C11 1_555 1_555
C13 H9 1_555 1_555
H10 C13 1_555 1_555
C14 C13 1_555 1_555
H11 C14 1_555 1_555
H12 C14 1_555 1_555
C15 C14 1_555 1_555
C16 H13 1_555 1_555
H14 C16 1_555 1_555
C17 C16 1_555 1_555
H15 C17 1_555 1_555
H16 C17 1_555 1_555
C18 C17 1_555 1_555
N1 C9 1_555 1_555
N2 C12 1_555 1_555
N3 C15 1_555 1_555
N4 C18 1_555 1_555
S1 C1 1_555 1_555
S2 C10 1_555 1_555
S3 C1 1_555 1_555
S4 C2 1_555 1_555
S5 C5 1_555 1_555
S6 C4 1_555 1_555
S7 C5 1_555 1_555
S8 C6 1_555 1_555
Mn1 N3 1_555 1_555
Mn2 N1 1_555 1_555
Cl1 O2 1_555 1_555
Cl2 O8 1_555 1_555
Cl3 O12 1_555 1_555
O1 Mn2 1_555 1_555
O3 Mn2 1_555 1_555
O4 Cl1 1_555 1_555
O5 Cl1 1_555 1_555
O7 Cl1 1_555 1_555
O9 Cl2 1_555 1_555
O10 Cl2 1_555 1_555
O11 Cl2 1_555 1_555
O13 Cl3 1_555 1_555
O14 Cl3 1_555 1_555
O15 Cl3 1_555 1_555
C1B C2B 1_555 1_555
C2B S2B 1_555 1_555
C3B C4B 1_555 1_555
C4B S5B 1_555 1_555
C5B C6B 1_555 1_555
C6B S6B 1_555 1_555
C7B H1B 1_555 1_555
H2B C7B 1_555 1_555
C8B C7B 1_555 1_555
H3B C8B 1_555 1_555
H4B C8B 1_555 1_555
C9B C8B 1_555 1_555
C10B H5B 1_555 1_555
H6B C10B 1_555 1_555
C11B C10B 1_555 1_555
H7B C11B 1_555 1_555
H8B C11B 1_555 1_555
C12B C11B 1_555 1_555
C13B H9B 1_555 1_555
H10B C13B 1_555 1_555
C14B C13B 1_555 1_555
H11B C14B 1_555 1_555
H12B C14B 1_555 1_555
C15B C14B 1_555 1_555
C16B H13B 1_555 1_555
H14B C16B 1_555 1_555
C17B C16B 1_555 1_555
H15B C17B 1_555 1_555
H16B C17B 1_555 1_555
C18B C17B 1_555 1_555
N1B C9B 1_555 1_555
N1B_2 Mn2 1_555 1_555
N2B Mn1 1_555 1_555
N2_2 Mn1 1_555 1_555
N3B C15B 1_555 1_555
N3B_2 Mn1 1_555 1_555
N4B C18B 1_555 1_555
N4B_2 Mn1 1_555 1_555
S1B C1B 1_555 1_555
S2B C10B 1_555 1_555
S3B C1B 1_555 1_555
S4B C2B 1_555 1_555
S5B C5B 1_555 1_555
S6B C4B 1_555 1_555
S7B C5B 1_555 1_555
S8B C6B 1_555 1_555
Mn1_2 N2 1_555 1_555
Mn2_2 N1B 1_555 1_555
O1B Mn2 1_555 1_555
O3B Mn2 1_555 1_555
C3 S3 1_555 1_555
C3 S4 1_555 1_555
C7 S1 1_555 1_555
C13 S7 1_555 1_555
C16 S8 1_555 1_555
N4 Mn1 1_555 1_555
C3B S3B 1_555 1_555
C3B S4B 1_555 1_555
C7B S1B 1_555 1_555
C12B N2B 1_555 1_555
C13B S7B 1_555 1_555
C16B S8B 1_555 1_555
N3B Mn1_2 1_555 1_555
N4B Mn1_2 1_555 1_555

#END
