
#######################################################################
#
#                 Cambridge Crystallographic Data Centre
#                                CCDC 
#
#######################################################################
#
# If this CIF has been generated from an entry in the Cambridge 
# Structural Database, then it will include bibliographic, chemical, 
# crystal, experimental, refinement or atomic coordinate data resulting 
# from the CCDC's data processing and validation procedures.
#
#######################################################################

data_UHOCUQ01
_symmetry_cell_setting           monoclinic
_symmetry_space_group_name_H-M   'P 21/c'
_symmetry_Int_Tables_number      14
_space_group_name_Hall           '-P 2ybc'
loop_
_symmetry_equiv_pos_site_id
_symmetry_equiv_pos_as_xyz
1 x,y,z
2 -x,1/2+y,1/2-z
3 -x,-y,-z
4 x,1/2-y,1/2+z
_cell_length_a                   13.0844(8)
_cell_length_b                   10.3541(7)
_cell_length_c                   26.4055(16)
_cell_angle_alpha                90
_cell_angle_beta                 102.454(3)
_cell_angle_gamma                90
_cell_volume                     3493.17
loop_
_atom_site_label
_atom_site_type_symbol
_atom_site_fract_x
_atom_site_fract_y
_atom_site_fract_z
C1 C 0.42827(16) 0.5036(2) 0.69976(8)
C2 C 0.42243(16) 0.3730(2) 0.69133(8)
C3 C 0.61929(17) 0.4243(2) 0.72003(8)
C4 C 0.72722(17) 0.4230(2) 0.72453(8)
C5 C 0.90681(16) 0.4978(2) 0.71285(8)
C6 C 0.90350(16) 0.3683(2) 0.70227(8)
C7 C 0.37013(17) 0.7386(2) 0.65524(8)
H1 H 0.3273 0.8172 0.6557
H2 H 0.4432 0.7591 0.6726
C8 C 0.36603(19) 0.6981(2) 0.59888(9)
H3 H 0.4144 0.6247 0.5984
H4 H 0.2943 0.6690 0.5827
C9 C 0.39551(17) 0.8059(2) 0.56874(9)
C10 C 0.32813(18) 0.2177(2) 0.61078(9)
H5 H 0.3953 0.1700 0.6176
H6 H 0.2716 0.1554 0.5970
C11 C 0.33073(18) 0.3216(2) 0.56961(9)
H7 H 0.3876 0.3837 0.5832
H8 H 0.3464 0.2804 0.5383
C12 C 0.23091(18) 0.3921(2) 0.55505(9)
C13 C 0.94435(18) 0.7432(2) 0.68101(8)
H9 H 0.9031 0.7754 0.7057
H10 H 0.9969 0.8100 0.6781
C14 C 0.87082(17) 0.7251(2) 0.62776(9)
H11 H 0.8089 0.6749 0.6321
H12 H 0.8461 0.8108 0.6136
C15 C 0.92067(18) 0.6581(2) 0.59020(8)
C16 C 0.93512(18) 0.1518(2) 0.64443(9)
H13 H 0.9878 0.0922 0.6357
H14 H 0.8974 0.1047 0.6674
C17 C 0.85648(18) 0.1871(2) 0.59421(9)
H15 H 0.8287 0.1067 0.5760
H16 H 0.7970 0.2343 0.6031
C18 C 0.90316(18) 0.2673(2) 0.55899(9)
N1 N 0.41913(15) 0.8906(2) 0.54580(8)
N2 N 0.15386(16) 0.4467(2) 0.54346(8)
N3 N 0.95786(16) 0.6061(2) 0.56083(7)
N4 N 0.93853(16) 0.3325(2) 0.53235(8)
S1 S 0.32072(4) 0.60879(5) 0.69037(2)
S2 S 0.30666(4) 0.28400(6) 0.67179(2)
S3 S 0.55308(4) 0.56680(5) 0.72409(2)
S4 S 0.54122(4) 0.28880(5) 0.70492(2)
S5 S 0.80121(4) 0.56196(5) 0.73517(2)
S6 S 0.79434(4) 0.28455(5) 0.71381(2)
S7 S 1.01262(4) 0.59598(6) 0.70727(2)
S8 S 1.00324(4) 0.28802(6) 0.68021(2)
Zn1 Zn 1.0000 0.5000 0.5000
Zn2 Zn 0.5000 1.0000 0.5000
O1 O 0.62974(13) 0.88336(16) 0.53030(6)
O3 O 0.54563(13) 1.13417(16) 0.56159(6)
C1B C 0.57173(16) 0.4964(2) 0.30024(8)
C2B C 0.57757(16) 0.6270(2) 0.30867(8)
C3B C 0.38071(17) 0.5757(2) 0.27997(8)
C4B C 0.27278(17) 0.5770(2) 0.27547(8)
C5B C 0.09319(16) 0.5022(2) 0.28715(8)
C6B C 0.09650(16) 0.6317(2) 0.29773(8)
C7B C 0.62987(17) 0.2614(2) 0.34476(8)
H1B H 0.6727 0.1828 0.3443
H2B H 0.5568 0.2409 0.3274
C8B C 0.63397(19) 0.3019(2) 0.40112(9)
H3B H 0.5856 0.3753 0.4016
H4B H 0.7057 0.3310 0.4173
C9B C 0.60449(17) 0.1941(2) 0.43126(9)
C10B C 0.67187(18) 0.7823(2) 0.38922(9)
H5B H 0.6047 0.8300 0.3824
H6B H 0.7284 0.8446 0.4030
C11B C 0.66927(18) 0.6784(2) 0.43039(9)
H7B H 0.6124 0.6163 0.4168
H8B H 0.6536 0.7196 0.4617
C12B C 0.76909(18) 0.6079(2) 0.44495(9)
C13B C 0.05565(18) 0.2568(2) 0.31899(8)
H9B H 0.0969 0.2246 0.2943
H10B H 0.0031 0.1900 0.3219
C14B C 0.12918(17) 0.2749(2) 0.37224(9)
H11B H 0.1911 0.3251 0.3679
H12B H 0.1539 0.1892 0.3864
C15B C 0.07933(18) 0.3419(2) 0.40980(8)
C16B C 0.06488(18) 0.8482(2) 0.35557(9)
H13B H 0.0122 0.9078 0.3643
H14B H 0.1026 0.8953 0.3326
C17B C 0.14352(18) 0.8129(2) 0.40579(9)
H15B H 0.1713 0.8933 0.4240
H16B H 0.2030 0.7657 0.3969
C18B C 0.09684(18) 0.7327(2) 0.44101(9)
N1B N 0.58087(15) 0.1094(2) 0.45420(8)
N1B_2 N 0.58087(15) 1.1094(2) 0.45420(8)
N2B N 0.84614(16) 0.5533(2) 0.45654(8)
N2_2 N 1.15386(16) 0.4467(2) 0.54346(8)
N3B N 0.04214(16) 0.3939(2) 0.43917(7)
N3B_2 N 1.04214(16) 0.3939(2) 0.43917(7)
N4B N 0.06147(16) 0.6675(2) 0.46765(8)
N4B_2 N 1.06147(16) 0.6675(2) 0.46765(8)
S1B S 0.67928(4) 0.39121(5) 0.30963(2)
S2B S 0.69334(4) 0.71600(6) 0.32821(2)
S3B S 0.44692(4) 0.43320(5) 0.27591(2)
S4B S 0.45878(4) 0.71120(5) 0.29508(2)
S5B S 0.19879(4) 0.43804(5) 0.26483(2)
S6B S 0.20566(4) 0.71545(5) 0.28619(2)
S7B S -0.01262(4) 0.40402(6) 0.29273(2)
S8B S -0.00324(4) 0.71198(6) 0.31979(2)
Zn1_2 Zn 0.0000 0.5000 0.5000
Zn2_2 Zn 0.5000 0.0000 0.5000
O1B O 0.37026(13) 1.11664(16) 0.46970(6)
O3B O 0.45437(13) 0.86583(16) 0.43841(6)
Cl1 Cl 0.64098(4) 0.47587(5) 0.57021(2)
O2 O 0.55572(14) 0.4758(2) 0.59712(7)
O4 O 0.64400(16) 0.59577(18) 0.54341(7)
O5 O 0.73799(14) 0.45866(19) 0.60742(7)
O7 O 0.62790(15) 0.36913(18) 0.53350(7)
Cl2 Cl 1.12237(4) 0.89990(6) 0.60164(2)
O8 O 1.16252(16) 1.0005(2) 0.63726(9)
O9 O 1.01299(13) 0.92482(18) 0.57964(7)
O10 O 1.13285(14) 0.7771(2) 0.62780(9)
O11 O 1.18041(17) 0.8950(2) 0.56116(8)
Cl3 Cl 0.65665(4) -0.07976(5) 0.67077(2)
O12 O 0.70001(14) 0.01762(18) 0.64147(7)
O13 O 0.73110(15) -0.1061(2) 0.71830(7)
O14 O 0.56016(14) -0.03212(19) 0.68160(7)
O15 O 0.63618(14) -0.19675(17) 0.63988(7)
O6 O 1.18031(14) 1.1012(2) 0.49417(7)
loop_
_geom_bond_atom_site_label_1
_geom_bond_atom_site_label_2
_geom_bond_site_symmetry_1
_geom_bond_site_symmetry_2
C1 C2 1_555 1_555
C2 S2 1_555 1_555
C3 C4 1_555 1_555
C4 S5 1_555 1_555
C5 C6 1_555 1_555
C6 S6 1_555 1_555
C7 H1 1_555 1_555
H2 C7 1_555 1_555
C8 C7 1_555 1_555
H3 C8 1_555 1_555
H4 C8 1_555 1_555
C9 C8 1_555 1_555
C10 H5 1_555 1_555
H6 C10 1_555 1_555
C11 C10 1_555 1_555
H7 C11 1_555 1_555
H8 C11 1_555 1_555
C12 C11 1_555 1_555
C13 H9 1_555 1_555
H10 C13 1_555 1_555
C14 C13 1_555 1_555
H11 C14 1_555 1_555
H12 C14 1_555 1_555
C15 C14 1_555 1_555
C16 H13 1_555 1_555
H14 C16 1_555 1_555
C17 C16 1_555 1_555
H15 C17 1_555 1_555
H16 C17 1_555 1_555
C18 C17 1_555 1_555
N1 C9 1_555 1_555
N2 C12 1_555 1_555
N3 C15 1_555 1_555
N4 C18 1_555 1_555
S1 C1 1_555 1_555
S2 C10 1_555 1_555
S3 C1 1_555 1_555
S4 C2 1_555 1_555
S5 C5 1_555 1_555
S6 C4 1_555 1_555
S7 C5 1_555 1_555
S8 C6 1_555 1_555
Zn1 N3 1_555 1_555
Zn2 N1 1_555 1_555
Cl1 O2 1_555 1_555
Cl2 O8 1_555 1_555
Cl3 O12 1_555 1_555
O1 Zn2 1_555 1_555
O3 Zn2 1_555 1_555
O4 Cl1 1_555 1_555
O5 Cl1 1_555 1_555
O7 Cl1 1_555 1_555
O9 Cl2 1_555 1_555
O10 Cl2 1_555 1_555
O11 Cl2 1_555 1_555
O13 Cl3 1_555 1_555
O14 Cl3 1_555 1_555
O15 Cl3 1_555 1_555
C1B C2B 1_555 1_555
C2B S2B 1_555 1_555
C3B C4B 1_555 1_555
C4B S5B 1_555 1_555
C5B C6B 1_555 1_555
C6B S6B 1_555 1_555
C7B H1B 1_555 1_555
H2B C7B 1_555 1_555
C8B C7B 1_555 1_555
H3B C8B 1_555 1_555
H4B C8B 1_555 1_555
C9B C8B 1_555 1_555
C10B H5B 1_555 1_555
H6B C10B 1_555 1_555
C11B C10B 1_555 1_555
H7B C11B 1_555 1_555
H8B C11B 1_555 1_555
C12B C11B 1_555 1_555
C13B H9B 1_555 1_555
H10B C13B 1_555 1_555
C14B C13B 1_555 1_555
H11B C14B 1_555 1_555
H12B C14B 1_555 1_555
C15B C14B 1_555 1_555
C16B H13B 1_555 1_555
H14B C16B 1_555 1_555
C17B C16B 1_555 1_555
H15B C17B 1_555 1_555
H16B C17B 1_555 1_555
C18B C17B 1_555 1_555
N1B C9B 1_555 1_555
N1B_2 Zn2 1_555 1_555
N2B Zn1 1_555 1_555
N2_2 Zn1 1_555 1_555
N3B C15B 1_555 1_555
N3B_2 Zn1 1_555 1_555
N4B C18B 1_555 1_555
N4B_2 Zn1 1_555 1_555
S1B C1B 1_555 1_555
S2B C10B 1_555 1_555
S3B C1B 1_555 1_555
S4B C2B 1_555 1_555
S5B C5B 1_555 1_555
S6B C4B 1_555 1_555
S7B C5B 1_555 1_555
S8B C6B 1_555 1_555
Zn1_2 N2 1_555 1_555
Zn2_2 N1B 1_555 1_555
O1B Zn2 1_555 1_555
O3B Zn2 1_555 1_555
C3 S3 1_555 1_555
C3 S4 1_555 1_555
C7 S1 1_555 1_555
C13 S7 1_555 1_555
C16 S8 1_555 1_555
N4 Zn1 1_555 1_555
C3B S3B 1_555 1_555
C3B S4B 1_555 1_555
C7B S1B 1_555 1_555
C12B N2B 1_555 1_555
C13B S7B 1_555 1_555
C16B S8B 1_555 1_555
N3B Zn1_2 1_555 1_555
N4B Zn1_2 1_555 1_555

#END
