
#######################################################################
#
#                 Cambridge Crystallographic Data Centre
#                                CCDC 
#
#######################################################################
#
# If this CIF has been generated from an entry in the Cambridge 
# Structural Database, then it will include bibliographic, chemical, 
# crystal, experimental, refinement or atomic coordinate data resulting 
# from the CCDC's data processing and validation procedures.
#
#######################################################################

data_UHODUS
_symmetry_cell_setting           monoclinic
_symmetry_space_group_name_H-M   'P 21/c'
_symmetry_Int_Tables_number      14
_space_group_name_Hall           '-P 2ybc'
loop_
_symmetry_equiv_pos_site_id
_symmetry_equiv_pos_as_xyz
1 x,y,z
2 -x,1/2+y,1/2-z
3 -x,-y,-z
4 x,1/2-y,1/2+z
_cell_length_a                   23.577(4)
_cell_length_b                   21.515(4)
_cell_length_c                   20.120(4)
_cell_angle_alpha                90
_cell_angle_beta                 112.540(3)
_cell_angle_gamma                90
_cell_volume                     9426.44
loop_
_atom_site_label
_atom_site_type_symbol
_atom_site_fract_x
_atom_site_fract_y
_atom_site_fract_z
Co1 Co 1.33464(3) 0.69990(3) 0.52821(3)
Co2 Co 1.15805(3) 0.73297(3) 0.34204(3)
Co3 Co 0.99803(3) 0.66987(3) 0.23317(3)
Co4 Co 0.83770(3) 0.73118(3) 0.03973(3)
Co5 Co 0.66738(3) 0.68603(3) -0.08661(3)
Co6 Co 0.52742(3) 0.76612(3) -0.28174(3)
N1 N 1.10227(18) 0.7616(2) 0.3947(2)
N2 N 1.04625(18) 0.82828(19) 0.4265(2)
N3 N 0.77325(19) 1.18913(19) 0.3975(2)
N4 N 0.71041(19) 1.25176(19) 0.4224(2)
N5 N 0.95130(18) 0.71989(19) 0.2790(2)
N6 N 0.89153(19) 0.79006(18) 0.2978(2)
N7 N 0.61861(18) 1.15636(19) 0.2373(2)
N8 N 0.54664(18) 1.21355(19) 0.2528(2)
N9 N 0.61628(18) 0.73232(18) -0.0428(2)
N10 N 0.55122(19) 0.80173(18) -0.0328(2)
N11 N 0.28671(18) 1.17679(18) -0.1085(2)
N12 N 0.22433(18) 1.24161(18) -0.0846(2)
O1 O 1.29069(15) 0.62143(16) 0.4903(2)
O2 O 1.21069(15) 0.68168(15) 0.43560(18)
O3 O 1.13510(16) 0.64379(15) 0.30407(18)
O4 O 1.04878(16) 0.61764(19) 0.3156(2)
O5 O 1.34780(17) 0.74654(19) 0.4530(2)
O6 O 1.3925(2) 0.8275(3) 0.5224(2)
O7 O 1.23213(17) 0.74432(16) 0.30338(19)
O8 O 1.22046(14) 0.80873(14) 0.38123(17)
O9 O 1.10382(18) 0.78061(19) 0.2477(2)
O10 O 1.02249(16) 0.72753(18) 0.17528(19)
O11 O 0.92278(16) 0.74082(16) 0.02118(18)
O12 O 0.90286(15) 0.80507(16) 0.09366(18)
O13 O 0.95018(15) 0.60039(16) 0.1757(2)
O14 O 0.87754(16) 0.67023(14) 0.12788(18)
O15 O 0.80400(15) 0.64680(15) -0.01118(17)
O16 O 0.71215(16) 0.62691(17) -0.0100(2)
O17 O 0.79482(17) 0.78431(17) -0.05353(19)
O18 O 0.70252(16) 0.74949(18) -0.1272(2)
O19 O 0.59511(15) 0.83357(16) -0.21510(18)
O20 O 0.61695(16) 0.77096(17) -0.2879(2)
O21 O 0.62040(16) 0.62281(17) -0.1582(2)
O22 O 0.55361(17) 0.69784(15) -0.20302(18)
O23 O 0.49490(16) 0.69212(16) -0.35067(17)
O24 O 0.39828(16) 0.66100(19) -0.3889(2)
O25 O 0.4952(2) 0.8249(2) -0.3654(3)
C1 C 1.1946(2) 0.5716(2) 0.4431(3)
C2 C 1.2178(2) 0.5229(3) 0.4924(3)
H1 H 1.2563 0.5272 0.5292
C3 C 1.1856(3) 0.4696(3) 0.4877(4)
H2 H 1.2022 0.4382 0.5214
C4 C 1.1282(3) 0.4615(3) 0.4330(4)
H3 H 1.1066 0.4245 0.4289
C5 C 1.1039(3) 0.5096(2) 0.3848(3)
H4 H 1.0650 0.5052 0.3487
C6 C 1.1364(2) 0.5644(2) 0.3892(3)
C7 C 1.2333(2) 0.6290(2) 0.4549(2)
C8 C 1.1055(2) 0.6129(2) 0.3322(3)
C9 C 1.3538(2) 0.8399(2) 0.3960(3)
C10 C 1.3976(3) 0.8810(3) 0.3924(4)
H5 H 1.4350 0.8848 0.4310
C11 C 1.3852(3) 0.9171(3) 0.3298(4)
H6 H 1.4146 0.9446 0.3269
C12 C 1.3298(3) 0.9115(3) 0.2734(4)
H7 H 1.3214 0.9358 0.2325
C13 C 1.2869(3) 0.8706(3) 0.2768(3)
H8 H 1.2495 0.8672 0.2378
C14 C 1.2979(2) 0.8339(2) 0.3375(3)
C15 C 1.3668(2) 0.8019(3) 0.4626(3)
C16 C 1.2478(2) 0.7923(2) 0.3411(2)
C17 C 1.0504(2) 0.8185(2) 0.1301(3)
C18 C 1.0988(3) 0.8556(3) 0.1321(3)
H9 H 1.1368 0.8516 0.1699
C19 C 1.0913(3) 0.8991(4) 0.0776(4)
H10 H 1.1242 0.9239 0.0796
C20 C 1.0368(3) 0.9053(3) 0.0225(3)
H11 H 1.0320 0.9347 -0.0131
C21 C 0.9885(3) 0.8683(3) 0.0189(3)
H12 H 0.9510 0.8729 -0.0196
C22 C 0.9940(2) 0.8235(2) 0.0719(2)
C23 C 1.0597(2) 0.7722(2) 0.1895(3)
C24 C 0.9374(2) 0.7866(2) 0.0634(2)
C25 C 0.8502(2) 0.5610(2) 0.1174(3)
C26 C 0.8672(2) 0.5085(2) 0.1601(3)
H13 H 0.9054 0.5071 0.1979
C27 C 0.8281(3) 0.4576(2) 0.1473(3)
H14 H 0.8406 0.4221 0.1757
C28 C 0.7710(3) 0.4596(2) 0.0927(3)
H15 H 0.7444 0.4259 0.0845
C29 C 0.7534(2) 0.5117(2) 0.0504(3)
H16 H 0.7147 0.5128 0.0134
C30 C 0.7923(2) 0.5633(2) 0.0615(2)
C31 C 0.8948(2) 0.6152(2) 0.1395(2)
C32 C 0.7689(2) 0.6173(2) 0.0100(2)
C33 C 0.7453(2) 0.8343(2) -0.1649(2)
C34 C 0.7988(2) 0.8675(3) -0.1563(3)
H17 H 0.8347 0.8596 -0.1167
C35 C 0.7987(3) 0.9120(3) -0.2061(4)
H18 H 0.8346 0.9336 -0.1997
C36 C 0.7466(3) 0.9243(3) -0.2641(4)
H19 H 0.7466 0.9547 -0.2969
C37 C 0.6938(3) 0.8919(3) -0.2741(3)
H20 H 0.6584 0.9001 -0.3144
C38 C 0.6921(2) 0.8465(2) -0.2248(3)
C39 C 0.7482(2) 0.7860(2) -0.1104(3)
C40 C 0.6320(2) 0.8136(2) -0.2419(2)
C41 C 0.5213(2) 0.5919(2) -0.2380(2)
C42 C 0.5303(3) 0.5344(2) -0.2019(3)
H21 H 0.5651 0.5287 -0.1601
C43 C 0.4893(3) 0.4867(2) -0.2265(4)
H22 H 0.4964 0.4494 -0.2013
C44 C 0.4375(3) 0.4937(2) -0.2885(3)
H23 H 0.4096 0.4612 -0.3054
C45 C 0.4275(2) 0.5497(2) -0.3253(3)
H24 H 0.3927 0.5543 -0.3672
C46 C 0.4684(2) 0.5994(2) -0.3011(3)
C47 C 0.5677(2) 0.6414(2) -0.1989(2)
C48 C 0.4540(2) 0.6562(2) -0.3491(2)
C49 C 1.0690(2) 0.8131(2) 0.3768(3)
H25 H 1.0623 0.8359 0.3352
C50 C 1.0998(2) 0.7431(3) 0.4589(3)
H26 H 1.1191 0.7080 0.4845
C51 C 1.0656(3) 0.7826(3) 0.4796(3)
H27 H 1.0567 0.7800 0.5208
C52 C 1.0085(2) 0.8815(2) 0.4241(3)
C53 C 1.0121(3) 0.9334(3) 0.3867(4)
H28 H 1.0398 0.9348 0.3640
C54 C 0.9745(3) 0.9842(3) 0.3826(3)
H29 H 0.9771 1.0189 0.3564
C55 C 0.9330(2) 0.9843(2) 0.4169(3)
C56 C 0.9322(3) 0.9314(2) 0.4569(3)
H30 H 0.9060 0.9302 0.4816
C57 C 0.9694(3) 0.8807(3) 0.4606(3)
H31 H 0.9680 0.8460 0.4876
C58 C 0.8928(2) 1.0379(2) 0.4130(3)
C59 C 0.8872(3) 1.0884(3) 0.3671(4)
H32 H 0.9104 1.0884 0.3387
C60 C 0.8495(3) 1.1376(3) 0.3621(3)
H33 H 0.8472 1.1703 0.3310
C61 C 0.8148(2) 1.1385(2) 0.4035(3)
C62 C 0.8174(3) 1.0901(3) 0.4482(4)
H34 H 0.7931 1.0902 0.4752
C63 C 0.8561(3) 1.0411(3) 0.4531(4)
H35 H 0.8579 1.0088 0.4845
C64 C 0.7487(2) 1.2049(2) 0.4460(3)
H36 H 0.7576 1.1852 0.4900
C65 C 0.7487(3) 1.2298(3) 0.3404(3)
H37 H 0.7569 1.2308 0.2987
C66 C 0.7106(3) 1.2677(3) 0.3571(3)
H38 H 0.6878 1.2998 0.3283
C67 C 0.9169(2) 0.7691(2) 0.2525(3)
H39 H 0.9109 0.7870 0.2082
C68 C 0.9477(3) 0.7086(2) 0.3445(3)
H40 H 0.9677 0.6765 0.3756
C69 C 0.9109(3) 0.7512(2) 0.3568(3)
H41 H 0.9007 0.7538 0.3970
C70 C 0.8526(2) 0.8435(2) 0.2874(3)
C71 C 0.8529(3) 0.8897(3) 0.2401(3)
H42 H 0.8781 0.8863 0.2143
C72 C 0.8152(3) 0.9417(3) 0.2313(3)
H43 H 0.8157 0.9728 0.1993
C73 C 0.7769(2) 0.9480(2) 0.2694(3)
C74 C 0.7784(3) 0.9008(3) 0.3166(3)
H44 H 0.7535 0.9038 0.3428
C75 C 0.8156(3) 0.8494(3) 0.3259(3)
H45 H 0.8157 0.8186 0.3583
C76 C 0.7373(2) 1.0028(2) 0.2607(3)
C77 C 0.7416(3) 1.0560(3) 0.2241(3)
H46 H 0.7713 1.0578 0.2044
C78 C 0.7033(3) 1.1063(3) 0.2161(3)
H47 H 0.7077 1.1412 0.1911
C79 C 0.6591(2) 1.1054(2) 0.2443(3)
C80 C 0.6544(3) 1.0523(3) 0.2809(5)
H48 H 0.6256 1.0510 0.3020
C81 C 0.6909(3) 1.0022(3) 0.2864(4)
H49 H 0.6844 0.9663 0.3084
C82 C 0.5802(2) 1.1632(2) 0.2726(3)
H50 H 0.5780 1.1354 0.3069
C83 C 0.6082(2) 1.2071(2) 0.1916(3)
H51 H 0.6274 1.2157 0.1600
C84 C 0.5646(2) 1.2413(2) 0.2022(3)
H52 H 0.5489 1.2784 0.1787
C85 C 0.5846(2) 0.7834(2) -0.0701(2)
H53 H 0.5855 0.8040 -0.1103
C86 C 0.6021(3) 0.7180(3) 0.0160(3)
H54 H 0.6176 0.6840 0.0461
C87 C 0.5629(3) 0.7599(2) 0.0234(3)
H55 H 0.5468 0.7608 0.0590
C88 C 0.5122(2) 0.8550(2) -0.0472(2)
C89 C 0.5177(3) 0.9020(3) -0.0901(4)
H56 H 0.5467 0.8993 -0.1108
C90 C 0.4797(3) 0.9539(3) -0.1028(3)
H57 H 0.4834 0.9851 -0.1328
C91 C 0.4368(2) 0.9602(2) -0.0723(3)
C92 C 0.4322(2) 0.9117(3) -0.0299(3)
H58 H 0.4032 0.9141 -0.0091
C93 C 0.4689(3) 0.8599(3) -0.0171(3)
H59 H 0.4644 0.8280 0.0118
C94 C 0.3976(2) 1.0168(2) -0.0840(3)
C95 C 0.4039(2) 1.0681(2) -0.1222(3)
H60 H 0.4330 1.0671 -0.1429
C96 C 0.3683(2) 1.1207(2) -0.1307(3)
H61 H 0.3743 1.1547 -0.1558
C97 C 0.3240(2) 1.1227(2) -0.1022(3)
C98 C 0.3144(3) 1.0712(3) -0.0674(4)
H62 H 0.2829 1.0716 -0.0504
C99 C 0.3506(3) 1.0193(3) -0.0575(4)
H63 H 0.3438 0.9853 -0.0328
C100 C 0.2548(2) 1.1887(2) -0.0664(3)
H64 H 0.2544 1.1630 -0.0294
C101 C 0.2757(3) 1.2252(2) -0.1564(3)
H65 H 0.2914 1.2300 -0.1920
C102 C 0.2375(2) 1.2644(2) -0.1414(3)
H66 H 0.2223 1.3013 -0.1656
Co1_2 Co 0.33464(3) 0.69990(3) -0.47179(3)
Co1B Co 0.66536(3) 1.30010(3) 0.47179(3)
Co4B Co 0.16230(3) 1.26882(3) -0.03973(3)
Co6B Co 0.47258(3) 1.23388(3) 0.28174(3)
N4B N 1.28959(19) 0.74824(19) 0.5776(2)
N8B N 0.45336(18) 0.78645(19) -0.2528(2)
N12B N 0.77567(18) 0.75839(18) 0.0846(2)
O24_2 O 1.39828(16) 0.66100(19) 0.6111(2)
loop_
_geom_bond_atom_site_label_1
_geom_bond_atom_site_label_2
_geom_bond_site_symmetry_1
_geom_bond_site_symmetry_2
Co1 O1 1_555 1_555
Co2 N1 1_555 1_555
Co3 N5 1_555 1_555
Co4 O11 1_555 1_555
Co5 N9 1_555 1_555
Co6 O19 1_555 1_555
N1 C49 1_555 1_555
N2 C49 1_555 1_555
N3 C61 1_555 1_555
N4 C64 1_555 1_555
N5 C67 1_555 1_555
N6 C67 1_555 1_555
N7 C79 1_555 1_555
N8 C82 1_555 1_555
N9 C85 1_555 1_555
N10 C85 1_555 1_555
N11 C97 1_555 1_555
N12 C100 1_555 1_555
O1 C7 1_555 1_555
O2 Co2 1_555 1_555
O3 Co2 1_555 1_555
O4 Co3 1_555 1_555
O5 Co1 1_555 1_555
O6 C15 1_555 1_555
O7 Co2 1_555 1_555
O8 Co2 1_555 1_555
O9 Co2 1_555 1_555
O10 Co3 1_555 1_555
O11 C24 1_555 1_555
O12 Co4 1_555 1_555
O13 Co3 1_555 1_555
O14 Co4 1_555 1_555
O15 Co4 1_555 1_555
O16 Co5 1_555 1_555
O17 Co4 1_555 1_555
O18 Co5 1_555 1_555
O19 C40 1_555 1_555
O20 Co6 1_555 1_555
O21 Co5 1_555 1_555
O22 Co6 1_555 1_555
O23 Co6 1_555 1_555
O24 C48 1_555 1_555
O25 Co6 1_555 1_555
C1 C2 1_555 1_555
C2 H1 1_555 1_555
C3 C2 1_555 1_555
H2 C3 1_555 1_555
C4 C3 1_555 1_555
H3 C4 1_555 1_555
C5 C4 1_555 1_555
H4 C5 1_555 1_555
C6 C1 1_555 1_555
C7 O2 1_555 1_555
C8 O3 1_555 1_555
C9 C10 1_555 1_555
C10 H5 1_555 1_555
C11 C10 1_555 1_555
H6 C11 1_555 1_555
C12 C11 1_555 1_555
H7 C12 1_555 1_555
C13 C12 1_555 1_555
H8 C13 1_555 1_555
C14 C9 1_555 1_555
C15 O5 1_555 1_555
C16 O7 1_555 1_555
C17 C18 1_555 1_555
C18 H9 1_555 1_555
C19 C18 1_555 1_555
H10 C19 1_555 1_555
C20 C19 1_555 1_555
H11 C20 1_555 1_555
C21 C20 1_555 1_555
H12 C21 1_555 1_555
C22 C17 1_555 1_555
C23 O9 1_555 1_555
C24 O12 1_555 1_555
C25 C26 1_555 1_555
C26 H13 1_555 1_555
C27 C26 1_555 1_555
H14 C27 1_555 1_555
C28 C27 1_555 1_555
H15 C28 1_555 1_555
C29 C28 1_555 1_555
H16 C29 1_555 1_555
C30 C25 1_555 1_555
C31 O13 1_555 1_555
C32 O15 1_555 1_555
C33 C34 1_555 1_555
C34 H17 1_555 1_555
C35 C34 1_555 1_555
H18 C35 1_555 1_555
C36 C35 1_555 1_555
H19 C36 1_555 1_555
C37 C36 1_555 1_555
H20 C37 1_555 1_555
C38 C33 1_555 1_555
C39 O17 1_555 1_555
C40 O20 1_555 1_555
C41 C42 1_555 1_555
C42 H21 1_555 1_555
C43 C42 1_555 1_555
H22 C43 1_555 1_555
C44 C43 1_555 1_555
H23 C44 1_555 1_555
C45 C44 1_555 1_555
H24 C45 1_555 1_555
C46 C41 1_555 1_555
C47 O21 1_555 1_555
C48 O23 1_555 1_555
C49 H25 1_555 1_555
C50 N1 1_555 1_555
H26 C50 1_555 1_555
C51 N2 1_555 1_555
H27 C51 1_555 1_555
C52 N2 1_555 1_555
C53 C52 1_555 1_555
H28 C53 1_555 1_555
C54 C53 1_555 1_555
H29 C54 1_555 1_555
C55 C54 1_555 1_555
C56 C55 1_555 1_555
H30 C56 1_555 1_555
C57 C52 1_555 1_555
H31 C57 1_555 1_555
C58 C55 1_555 1_555
C59 C58 1_555 1_555
H32 C59 1_555 1_555
C60 C59 1_555 1_555
H33 C60 1_555 1_555
C61 C60 1_555 1_555
C62 C61 1_555 1_555
H34 C62 1_555 1_555
C63 C58 1_555 1_555
H35 C63 1_555 1_555
C64 N3 1_555 1_555
H36 C64 1_555 1_555
C65 N3 1_555 1_555
H37 C65 1_555 1_555
C66 N4 1_555 1_555
H38 C66 1_555 1_555
C67 H39 1_555 1_555
C68 N5 1_555 1_555
H40 C68 1_555 1_555
C69 N6 1_555 1_555
H41 C69 1_555 1_555
C70 N6 1_555 1_555
C71 C70 1_555 1_555
H42 C71 1_555 1_555
C72 C71 1_555 1_555
H43 C72 1_555 1_555
C73 C72 1_555 1_555
C74 C73 1_555 1_555
H44 C74 1_555 1_555
C75 C70 1_555 1_555
H45 C75 1_555 1_555
C76 C73 1_555 1_555
C77 C76 1_555 1_555
H46 C77 1_555 1_555
C78 C77 1_555 1_555
H47 C78 1_555 1_555
C79 C78 1_555 1_555
C80 C79 1_555 1_555
H48 C80 1_555 1_555
C81 C76 1_555 1_555
H49 C81 1_555 1_555
C82 N7 1_555 1_555
H50 C82 1_555 1_555
C83 N7 1_555 1_555
H51 C83 1_555 1_555
C84 N8 1_555 1_555
H52 C84 1_555 1_555
C85 H53 1_555 1_555
C86 N9 1_555 1_555
H54 C86 1_555 1_555
C87 N10 1_555 1_555
H55 C87 1_555 1_555
C88 N10 1_555 1_555
C89 C88 1_555 1_555
H56 C89 1_555 1_555
C90 C89 1_555 1_555
H57 C90 1_555 1_555
C91 C90 1_555 1_555
C92 C91 1_555 1_555
H58 C92 1_555 1_555
C93 C88 1_555 1_555
H59 C93 1_555 1_555
C94 C91 1_555 1_555
C95 C94 1_555 1_555
H60 C95 1_555 1_555
C96 C95 1_555 1_555
H61 C96 1_555 1_555
C97 C96 1_555 1_555
C98 C97 1_555 1_555
H62 C98 1_555 1_555
C99 C94 1_555 1_555
H63 C99 1_555 1_555
C100 N11 1_555 1_555
H64 C100 1_555 1_555
C101 N11 1_555 1_555
H65 C101 1_555 1_555
C102 N12 1_555 1_555
H66 C102 1_555 1_555
Co1_2 O24 1_555 1_555
Co1B N4 1_555 1_555
Co4B N12 1_555 1_555
Co6B N8 1_555 1_555
N4B Co1 1_555 1_555
N8B Co6 1_555 1_555
N12B Co4 1_555 1_555
O24_2 Co1 1_555 1_555
O4 C8 1_555 1_555
O8 C16 1_555 1_555
O10 C23 1_555 1_555
O14 C31 1_555 1_555
O16 C32 1_555 1_555
O18 C39 1_555 1_555
O22 C47 1_555 1_555
C1 C7 1_555 1_555
C5 C6 1_555 1_555
C6 C8 1_555 1_555
C9 C15 1_555 1_555
C13 C14 1_555 1_555
C14 C16 1_555 1_555
C17 C23 1_555 1_555
C21 C22 1_555 1_555
C22 C24 1_555 1_555
C25 C31 1_555 1_555
C29 C30 1_555 1_555
C30 C32 1_555 1_555
C33 C39 1_555 1_555
C37 C38 1_555 1_555
C38 C40 1_555 1_555
C41 C47 1_555 1_555
C45 C46 1_555 1_555
C46 C48 1_555 1_555
C50 C51 1_555 1_555
C56 C57 1_555 1_555
C62 C63 1_555 1_555
C65 C66 1_555 1_555
C68 C69 1_555 1_555
C74 C75 1_555 1_555
C80 C81 1_555 1_555
C83 C84 1_555 1_555
C86 C87 1_555 1_555
C92 C93 1_555 1_555
C98 C99 1_555 1_555
C101 C102 1_555 1_555

#END
