
#######################################################################
#
#                 Cambridge Crystallographic Data Centre
#                                CCDC 
#
#######################################################################
#
# If this CIF has been generated from an entry in the Cambridge 
# Structural Database, then it will include bibliographic, chemical, 
# crystal, experimental, refinement or atomic coordinate data resulting 
# from the CCDC's data processing and validation procedures.
#
#######################################################################

data_UHODEB
_symmetry_cell_setting           monoclinic
_symmetry_space_group_name_H-M   'P 21/c'
_symmetry_Int_Tables_number      14
_space_group_name_Hall           '-P 2ybc'
loop_
_symmetry_equiv_pos_site_id
_symmetry_equiv_pos_as_xyz
1 x,y,z
2 -x,1/2+y,1/2-z
3 -x,-y,-z
4 x,1/2-y,1/2+z
_cell_length_a                   13.1580(10)
_cell_length_b                   10.5300(10)
_cell_length_c                   27.2480(10)
_cell_angle_alpha                90
_cell_angle_beta                 103.205(10)
_cell_angle_gamma                90
_cell_volume                     3675.49
loop_
_atom_site_label
_atom_site_type_symbol
_atom_site_fract_x
_atom_site_fract_y
_atom_site_fract_z
C1 C -0.5697(5) 0.5169(6) -0.3008(3)
C2 C -0.5750(5) 0.3903(6) -0.3089(2)
C3 C -0.3800(5) 0.4426(6) -0.2792(2)
C4 C -0.2733(5) 0.4416(6) -0.2757(2)
C5 C -0.0938(5) 0.5107(6) -0.2861(2)
C6 C -0.0986(4) 0.3850(6) -0.2972(2)
C7 C -0.6343(6) 0.7429(7) -0.3469(3)
H1 H -0.6779 0.8174 -0.3476
H2 H -0.5631 0.7664 -0.3311
C8 C -0.6392(7) 0.6997(8) -0.3998(3)
H3 H -0.5924 0.6283 -0.3993
H4 H -0.7095 0.6717 -0.4151
C9 C -0.6099(6) 0.8021(8) -0.4295(3)
C10 C -0.6612(5) 0.2289(7) -0.3843(3)
H5 H -0.5943 0.1860 -0.3751
H6 H -0.7139 0.1649 -0.3966
C11 C -0.6586(6) 0.3208(8) -0.4271(3)
H7 H -0.6040 0.3831 -0.4157
H8 H -0.6421 0.2745 -0.4550
C12 C -0.7574(6) 0.3857(8) -0.4442(3)
C13 C -0.0499(5) 0.7477(7) -0.3190(2)
H9 H -0.0895 0.7834 -0.2964
H10 H 0.0035 0.8088 -0.3221
C14 C -0.1243(6) 0.7291(7) -0.3717(2)
H11 H -0.1838 0.6785 -0.3681
H12 H -0.1501 0.8113 -0.3851
C15 C -0.0727(6) 0.6669(8) -0.4071(3)
C16 C -0.0695(6) 0.1694(6) -0.3507(3)
H13 H -0.0187 0.1107 -0.3586
H14 H -0.1064 0.1259 -0.3286
C17 C -0.1476(6) 0.2035(7) -0.3995(3)
H15 H -0.1785 0.1259 -0.4154
H16 H -0.2031 0.2541 -0.3914
C18 C -0.1023(6) 0.2723(8) -0.4345(3)
N1 N -0.5892(6) 0.8817(7) -0.4532(3)
N2 N -0.8343(6) 0.4383(8) -0.4566(3)
N3 N -0.0355(6) 0.6171(7) -0.4351(3)
N4 N -0.0681(6) 0.3282(7) -0.4625(3)
O1 O -0.3603(4) -0.1265(6) -0.4696(2)
O2 O -0.4456(4) 0.1414(5) -0.4349(2)
S1 S -0.67794(13) 0.61860(17) -0.30988(7)
S2 S -0.68834(13) 0.30087(19) -0.32853(7)
S3 S -0.44698(13) 0.58047(16) -0.27560(7)
S4 S -0.45609(12) 0.30947(16) -0.29393(7)
S5 S -0.19785(13) 0.57610(16) -0.26549(7)
S6 S -0.20745(13) 0.30524(15) -0.28545(7)
S7 S 0.01292(13) 0.60439(17) -0.29127(7)
S8 S -0.00095(13) 0.30331(18) -0.31729(7)
Cd1 Cd -1.0000 0.5000 -0.5000
Cd2 Cd -0.5000 0.0000 -0.5000
C1B C -0.4303(5) 0.4831(6) -0.6992(3)
C2B C -0.4250(5) 0.6097(6) -0.6911(2)
C3B C -0.6200(5) 0.5574(6) -0.7208(2)
C4B C -0.7267(5) 0.5584(6) -0.7243(2)
C5B C -0.9062(5) 0.4893(6) -0.7139(2)
C6B C -0.9014(4) 0.6150(6) -0.7028(2)
C7B C -0.3657(6) 0.2571(7) -0.6531(3)
H1B H -0.3221 0.1826 -0.6524
H2B H -0.4369 0.2336 -0.6689
C8B C -0.3608(7) 0.3003(8) -0.6002(3)
H3B H -0.4076 0.3717 -0.6007
H4B H -0.2905 0.3283 -0.5849
C9B C -0.3901(6) 0.1979(8) -0.5705(3)
C10B C -0.3388(5) 0.7711(7) -0.6157(3)
H5B H -0.4057 0.8140 -0.6249
H6B H -0.2861 0.8351 -0.6034
C11B C -0.3414(6) 0.6792(8) -0.5729(3)
H7B H -0.3960 0.6169 -0.5843
H8B H -0.3579 0.7255 -0.5450
C12B C -0.2426(6) 0.6143(8) -0.5558(3)
C13B C -0.9501(5) 0.2523(7) -0.6810(2)
H9B H -0.9105 0.2166 -0.7036
H10B H -1.0035 0.1912 -0.6779
C14B C -0.8757(6) 0.2709(7) -0.6283(2)
H11B H -0.8162 0.3215 -0.6319
H12B H -0.8499 0.1887 -0.6149
C15B C -0.9273(6) 0.3331(8) -0.5929(3)
C16B C -0.9305(6) 0.8306(6) -0.6493(3)
H13B H -0.9813 0.8893 -0.6414
H14B H -0.8936 0.8741 -0.6714
C17B C -0.8524(6) 0.7965(7) -0.6005(3)
H15B H -0.8215 0.8741 -0.5846
H16B H -0.7969 0.7459 -0.6086
C18B C -0.8977(6) 0.7277(8) -0.5655(3)
N1B N -0.4108(6) 0.1183(7) -0.5468(3)
N1_2 N -0.5892(6) -0.1183(7) -0.4532(3)
N2B N -0.1657(6) 0.5617(8) -0.5434(3)
N2B_2 N -1.1657(6) 0.5617(8) -0.5434(3)
N3_2 N -1.0355(6) 0.6171(7) -0.4351(3)
N3B N -0.9645(6) 0.3829(7) -0.5649(3)
N4_2 N -1.0681(6) 0.3282(7) -0.4625(3)
N4B N -0.9319(6) 0.6718(7) -0.5375(3)
O1B O -0.6397(4) 0.1265(6) -0.5304(2)
O2B O -0.5544(4) -0.1414(5) -0.5651(2)
S1B S -0.32206(13) 0.38140(17) -0.69012(7)
S2B S -0.31166(13) 0.69913(19) -0.67147(7)
S3B S -0.55302(13) 0.41953(16) -0.72440(7)
S4B S -0.54391(12) 0.69053(16) -0.70607(7)
S5B S -0.80215(13) 0.42390(16) -0.73451(7)
S6B S -0.79255(13) 0.69476(15) -0.71455(7)
S7B S -1.01292(13) 0.39561(17) -0.70873(7)
S8B S -0.99905(13) 0.69669(18) -0.68271(7)
Cd1_2 Cd 0.0000 0.5000 -0.5000
Cd2_2 Cd -0.5000 1.0000 -0.5000
O3 O 1.1774(6) 1.0700(10) -0.5142(3)
O4 O 0.5591(8) 0.4877(11) -0.4034(4)
O5 O 0.6407(8) 0.5981(7) -0.4555(3)
O6 O 0.7296(6) 0.4740(7) -0.3920(3)
O7 O 0.6246(7) 0.3836(7) -0.4619(3)
Cl1 Cl 0.63654(15) 0.48739(16) -0.42915(8)
O8 O 1.1433(13) 1.0582(17) -0.3824(10)
O9 O 1.0115(5) 0.9358(7) -0.4115(3)
O10 O 1.1460(8) 0.890(2) -0.3524(5)
O11 O 1.1812(7) 0.9120(10) -0.4276(3)
Cl2 Cl 1.1184(2) 0.9467(3) -0.39646(12)
O12 O 0.7020(8) 0.0206(8) -0.3548(3)
O13 O 0.7357(8) -0.0823(9) -0.2784(3)
O14 O 0.5693(7) -0.0190(9) -0.3169(4)
O15 O 0.6447(7) -0.1801(6) -0.3528(3)
Cl3 Cl 0.66496(16) -0.06521(18) -0.32526(7)
loop_
_geom_bond_atom_site_label_1
_geom_bond_atom_site_label_2
_geom_bond_site_symmetry_1
_geom_bond_site_symmetry_2
C1 C2 1_555 1_555
C2 S2 1_555 1_555
C3 C4 1_555 1_555
C4 S5 1_555 1_555
C5 C6 1_555 1_555
C6 S6 1_555 1_555
C7 H1 1_555 1_555
H2 C7 1_555 1_555
C8 C7 1_555 1_555
H3 C8 1_555 1_555
H4 C8 1_555 1_555
C9 C8 1_555 1_555
C10 H5 1_555 1_555
H6 C10 1_555 1_555
C11 C10 1_555 1_555
H7 C11 1_555 1_555
H8 C11 1_555 1_555
C12 C11 1_555 1_555
C13 H9 1_555 1_555
H10 C13 1_555 1_555
C14 C13 1_555 1_555
H11 C14 1_555 1_555
H12 C14 1_555 1_555
C15 C14 1_555 1_555
C16 H13 1_555 1_555
H14 C16 1_555 1_555
C17 C16 1_555 1_555
H15 C17 1_555 1_555
H16 C17 1_555 1_555
C18 C17 1_555 1_555
N1 C9 1_555 1_555
N2 C12 1_555 1_555
N3 C15 1_555 1_555
N4 C18 1_555 1_555
O1 Cd2 1_555 1_555
O2 Cd2 1_555 1_555
O4 Cl1 1_555 1_555
O5 Cl1 1_555 1_555
O6 Cl1 1_555 1_555
O7 Cl1 1_555 1_555
O8 Cl2 1_555 1_555
O9 Cl2 1_555 1_555
O10 Cl2 1_555 1_555
O11 Cl2 1_555 1_555
O12 Cl3 1_555 1_555
O13 Cl3 1_555 1_555
O14 Cl3 1_555 1_555
O15 Cl3 1_555 1_555
S1 C1 1_555 1_555
S2 C10 1_555 1_555
S3 C1 1_555 1_555
S4 C2 1_555 1_555
S5 C5 1_555 1_555
S6 C4 1_555 1_555
S7 C5 1_555 1_555
S8 C6 1_555 1_555
Cd1 N2 1_555 1_555
Cd2 N1B 1_555 1_555
C1B C2B 1_555 1_555
C2B S2B 1_555 1_555
C3B C4B 1_555 1_555
C4B S5B 1_555 1_555
C5B C6B 1_555 1_555
C6B S6B 1_555 1_555
C7B H1B 1_555 1_555
H2B C7B 1_555 1_555
C8B C7B 1_555 1_555
H3B C8B 1_555 1_555
H4B C8B 1_555 1_555
C9B C8B 1_555 1_555
C10B H5B 1_555 1_555
H6B C10B 1_555 1_555
C11B C10B 1_555 1_555
H7B C11B 1_555 1_555
H8B C11B 1_555 1_555
C12B C11B 1_555 1_555
C13B H9B 1_555 1_555
H10B C13B 1_555 1_555
C14B C13B 1_555 1_555
H11B C14B 1_555 1_555
H12B C14B 1_555 1_555
C15B C14B 1_555 1_555
C16B H13B 1_555 1_555
H14B C16B 1_555 1_555
C17B C16B 1_555 1_555
H15B C17B 1_555 1_555
H16B C17B 1_555 1_555
C18B C17B 1_555 1_555
N1B C9B 1_555 1_555
N1_2 Cd2 1_555 1_555
N2B C12B 1_555 1_555
N2B_2 Cd1 1_555 1_555
N3_2 Cd1 1_555 1_555
N3B Cd1 1_555 1_555
N4_2 Cd1 1_555 1_555
N4B Cd1 1_555 1_555
O1B Cd2 1_555 1_555
O2B Cd2 1_555 1_555
S1B C1B 1_555 1_555
S2B C10B 1_555 1_555
S3B C1B 1_555 1_555
S4B C2B 1_555 1_555
S5B C5B 1_555 1_555
S6B C4B 1_555 1_555
S7B C5B 1_555 1_555
S8B C6B 1_555 1_555
Cd1_2 N3 1_555 1_555
Cd2_2 N1 1_555 1_555
C3 S3 1_555 1_555
C3 S4 1_555 1_555
C7 S1 1_555 1_555
C13 S7 1_555 1_555
C16 S8 1_555 1_555
N4 Cd1_2 1_555 1_555
C3B S3B 1_555 1_555
C3B S4B 1_555 1_555
C7B S1B 1_555 1_555
C13B S7B 1_555 1_555
C15B N3B 1_555 1_555
C16B S8B 1_555 1_555
C18B N4B 1_555 1_555
N2B Cd1_2 1_555 1_555

#END
