
#######################################################################
#
#                 Cambridge Crystallographic Data Centre
#                                CCDC 
#
#######################################################################
#
# If this CIF has been generated from an entry in the Cambridge 
# Structural Database, then it will include bibliographic, chemical, 
# crystal, experimental, refinement or atomic coordinate data resulting 
# from the CCDC's data processing and validation procedures.
#
#######################################################################

data_UHOFEE
_symmetry_cell_setting           orthorhombic
_symmetry_space_group_name_H-M   'P n n a'
_symmetry_Int_Tables_number      52
_space_group_name_Hall           '-P 2a 2bc'
loop_
_symmetry_equiv_pos_site_id
_symmetry_equiv_pos_as_xyz
1 x,y,z
2 1/2-x,-y,z
3 1/2-x,1/2+y,1/2-z
4 x,1/2-y,1/2-z
5 -x,-y,-z
6 1/2+x,y,-z
7 1/2+x,1/2-y,1/2+z
8 -x,1/2+y,1/2+z
_cell_length_a                   13.152(3)
_cell_length_b                   17.365(4)
_cell_length_c                   9.3149(19)
_cell_angle_alpha                90
_cell_angle_beta                 90
_cell_angle_gamma                90
_cell_volume                     2127.38
loop_
_atom_site_label
_atom_site_type_symbol
_atom_site_fract_x
_atom_site_fract_y
_atom_site_fract_z
Co1 Co 0.68393(3) 0.2500 0.2500
N1 N 0.78768(13) 0.29467(11) 0.1108(2)
N2 N 0.93434(14) 0.34409(11) 0.0458(2)
O1 O 0.58121(12) 0.18459(9) 0.15414(18)
O2 O 0.71826(13) 0.11857(10) 0.1034(2)
C1 C 0.86618(17) 0.33589(13) 0.1521(3)
H1 H 0.8736 0.3568 0.2435
C2 C 0.80707(18) 0.27564(15) -0.0302(3)
H2 H 0.7646 0.2462 -0.0881
C3 C 0.89659(19) 0.30591(14) -0.0716(3)
H3 H 0.9267 0.3018 -0.1616
C4 C 1.02696(16) 0.38745(13) 0.0504(3)
C5 C 1.08307(18) 0.39182(15) 0.1747(3)
H4 H 1.0627 0.3649 0.2561
C6 C 1.17032(18) 0.43669(15) 0.1778(3)
H5 H 1.2075 0.4404 0.2624
C7 C 1.20316(16) 0.47620(13) 0.0565(2)
C8 C 1.14566(17) 0.46930(13) -0.0680(2)
H6 H 1.1670 0.4942 -0.1511
C9 C 1.05746(17) 0.42622(13) -0.0708(3)
H7 H 1.0189 0.4235 -0.1543
C10 C 0.62549(17) 0.12510(12) 0.1043(2)
C11 C 0.55959(16) 0.06073(12) 0.0500(2)
C12 C 0.45652(17) 0.07120(12) 0.0252(3)
H8 H 0.4268 0.1189 0.0425
C13 C 0.60202(17) -0.01112(13) 0.0250(2)
H9 H 0.6709 -0.0189 0.0423
N1A N 1.71232(13) 0.70533(11) 0.1108(2)
N2A N 1.56566(14) 0.65591(11) 0.0458(2)
C1A C 1.63382(17) 0.66411(13) 0.1521(3)
H1A H 1.6264 0.6432 0.2435
C2A C 1.69293(18) 0.72436(15) -0.0302(3)
H2A H 1.7354 0.7538 -0.0881
C3A C 1.60341(19) 0.69409(14) -0.0716(3)
H3A H 1.5733 0.6982 -0.1616
C4A C 1.47304(16) 0.61255(13) 0.0504(3)
C5A C 1.41693(18) 0.60818(15) 0.1747(3)
H4A H 1.4373 0.6351 0.2561
C6A C 1.32968(18) 0.56331(15) 0.1778(3)
H5A H 1.2925 0.5596 0.2624
C7A C 1.29684(16) 0.52380(13) 0.0565(2)
C8A C 1.35434(17) 0.53070(13) -0.0680(2)
H6A H 1.3330 0.5058 -0.1511
C9A C 1.44254(17) 0.57378(13) -0.0708(3)
H7A H 1.4811 0.5765 -0.1543
O1D O 0.41879(12) -0.18459(9) -0.15414(18)
O2D O 0.28174(13) -0.11857(10) -0.1034(2)
C10D C 0.37451(17) -0.12510(12) -0.1043(2)
C11D C 0.44041(16) -0.06073(12) -0.0500(2)
C12D C 0.54348(17) -0.07120(12) -0.0252(3)
H8D H 0.5732 -0.1189 -0.0425
C13D C 0.39798(17) 0.01112(13) -0.0250(2)
H9D H 0.3291 0.0189 -0.0423
Co1A Co 1.81607(3) 0.7500 0.2500
Co1D Co 0.31607(3) -0.2500 -0.2500
N1C N 0.78768(13) 0.20533(11) 0.3892(2)
O1C O 0.58121(12) 0.31541(9) 0.34586(18)
loop_
_geom_bond_atom_site_label_1
_geom_bond_atom_site_label_2
_geom_bond_site_symmetry_1
_geom_bond_site_symmetry_2
Co1 N1 1_555 1_555
N1 C1 1_555 1_555
N2 C1 1_555 1_555
O1 Co1 1_555 1_555
O2 C10 1_555 1_555
C1 H1 1_555 1_555
C2 N1 1_555 1_555
H2 C2 1_555 1_555
C3 N2 1_555 1_555
H3 C3 1_555 1_555
C4 N2 1_555 1_555
C5 C4 1_555 1_555
H4 C5 1_555 1_555
C6 C5 1_555 1_555
H5 C6 1_555 1_555
C7 C6 1_555 1_555
C8 C7 1_555 1_555
H6 C8 1_555 1_555
C9 C4 1_555 1_555
H7 C9 1_555 1_555
C10 O1 1_555 1_555
C11 C10 1_555 1_555
C12 C11 1_555 1_555
H8 C12 1_555 1_555
C13 C11 1_555 1_555
H9 C13 1_555 1_555
N1A C1A 1_555 1_555
N2A C1A 1_555 1_555
C1A H1A 1_555 1_555
C2A N1A 1_555 1_555
H2A C2A 1_555 1_555
C3A N2A 1_555 1_555
H3A C3A 1_555 1_555
C4A N2A 1_555 1_555
C5A C4A 1_555 1_555
H4A C5A 1_555 1_555
C6A C5A 1_555 1_555
H5A C6A 1_555 1_555
C7A C7 1_555 1_555
C8A C7A 1_555 1_555
H6A C8A 1_555 1_555
C9A C4A 1_555 1_555
H7A C9A 1_555 1_555
O1D C10D 1_555 1_555
O2D C10D 1_555 1_555
C10D C11D 1_555 1_555
C11D C12D 1_555 1_555
C12D C13 1_555 1_555
H8D C12D 1_555 1_555
C13D C12 1_555 1_555
H9D C13D 1_555 1_555
Co1A N1A 1_555 1_555
Co1D O1D 1_555 1_555
N1C Co1 1_555 1_555
O1C Co1 1_555 1_555
C2 C3 1_555 1_555
C8 C9 1_555 1_555
C2A C3A 1_555 1_555
C6A C7A 1_555 1_555
C8A C9A 1_555 1_555
C11D C13D 1_555 1_555

#END
