
#######################################################################
#
#                 Cambridge Crystallographic Data Centre
#                                CCDC 
#
#######################################################################
#
# If this CIF has been generated from an entry in the Cambridge 
# Structural Database, then it will include bibliographic, chemical, 
# crystal, experimental, refinement or atomic coordinate data resulting 
# from the CCDC's data processing and validation procedures.
#
#######################################################################

data_UHOFOM
_symmetry_cell_setting           monoclinic
_symmetry_space_group_name_H-M   'P 21/c'
_symmetry_Int_Tables_number      14
_space_group_name_Hall           '-P 2ybc'
loop_
_symmetry_equiv_pos_site_id
_symmetry_equiv_pos_as_xyz
1 x,y,z
2 x,1/2-y,1/2+z
3 -x,-y,-z
4 -x,1/2+y,1/2-z
_cell_length_a                   17.282(12)
_cell_length_b                   7.309(5)
_cell_length_c                   14.162(10)
_cell_angle_alpha                90
_cell_angle_beta                 94.933(12)
_cell_angle_gamma                90
_cell_volume                     1782.23
loop_
_atom_site_label
_atom_site_type_symbol
_atom_site_fract_x
_atom_site_fract_y
_atom_site_fract_z
V1 V 0.37486(8) 0.3592(2) 0.13034(11)
K1 K 0.43594(11) 0.7630(3) 0.01015(15)
S1 S 0.30944(13) 0.1217(3) 0.04188(17)
S2 S 0.17565(12) -0.1097(3) 0.08228(17)
O1 O 0.3646(3) 0.6076(7) 0.1618(4)
O2 O 0.4269(3) 0.3890(7) 0.0384(4)
O3 O 0.4285(3) 0.2639(8) 0.2146(4)
O4 O 0.5242(3) 0.9988(8) 0.1280(4)
N1 N 0.2633(4) 0.3389(10) 0.1944(5)
N2 N 0.2147(4) 0.1859(10) 0.1788(5)
C1 C 0.3386(5) 0.6978(11) 0.2361(6)
C2 C 0.3667(5) 0.8639(12) 0.2624(6)
H1 H 0.4065 0.9163 0.2287
C3 C 0.3400(5) 0.9595(12) 0.3360(6)
H2 H 0.3614 1.0758 0.3532
C4 C 0.2797(5) 0.8835(12) 0.3871(6)
H3 H 0.2598 0.9468 0.4384
C5 C 0.2520(5) 0.7147(12) 0.3584(6)
H4 H 0.2114 0.6641 0.3913
C6 C 0.2777(4) 0.6142(11) 0.2870(6)
C7 C 0.2444(5) 0.4470(12) 0.2581(6)
H5 H 0.2015 0.4092 0.2910
C8 C 0.2307(5) 0.0825(11) 0.1128(6)
C9 C 0.0989(5) -0.0851(13) 0.1631(7)
H6 H 0.1205 -0.1033 0.2295
H7 H 0.0759 0.0389 0.1574
C10 C 0.0380(5) -0.2269(13) 0.1365(6)
C11 C -0.0327(5) -0.1774(14) 0.0915(7)
H8 H -0.0435 -0.0525 0.0772
C12 C -0.0881(6) -0.3101(15) 0.0670(8)
H9 H -0.1366 -0.2755 0.0352
C13 C -0.0743(6) -0.4838(16) 0.0872(8)
H10 H -0.1130 -0.5727 0.0696
C14 C -0.0053(6) -0.5382(14) 0.1331(7)
H11 H 0.0046 -0.6636 0.1470
C15 C 0.0486(5) -0.4090(13) 0.1583(7)
H12 H 0.0958 -0.4455 0.1925
O2B O 0.5731(3) 0.6110(7) -0.0384(4)
O4B O 0.4758(3) 1.0012(8) -0.1280(4)
K1B K 0.56406(11) 0.2370(3) -0.01015(15)
K1B_2 K 0.56406(11) 1.2370(3) -0.01015(15)
loop_
_geom_bond_atom_site_label_1
_geom_bond_atom_site_label_2
_geom_bond_site_symmetry_1
_geom_bond_site_symmetry_2
V1 S1 1_555 1_555
K1 O1 1_555 1_555
S1 C8 1_555 1_555
S2 C8 1_555 1_555
O1 V1 1_555 1_555
O2 V1 1_555 1_555
O3 V1 1_555 1_555
O4 K1 1_555 1_555
N1 V1 1_555 1_555
N2 N1 1_555 1_555
C1 O1 1_555 1_555
C2 C1 1_555 1_555
H1 C2 1_555 1_555
C3 C2 1_555 1_555
H2 C3 1_555 1_555
C4 C3 1_555 1_555
H3 C4 1_555 1_555
C5 C4 1_555 1_555
H4 C5 1_555 1_555
C6 C1 1_555 1_555
C7 N1 1_555 1_555
H5 C7 1_555 1_555
C8 N2 1_555 1_555
C9 S2 1_555 1_555
H6 C9 1_555 1_555
H7 C9 1_555 1_555
C10 C9 1_555 1_555
C11 C10 1_555 1_555
H8 C11 1_555 1_555
C12 C11 1_555 1_555
H9 C12 1_555 1_555
C13 C12 1_555 1_555
H10 C13 1_555 1_555
C14 C13 1_555 1_555
H11 C14 1_555 1_555
C15 C10 1_555 1_555
H12 C15 1_555 1_555
O2B K1 1_555 1_555
O4B K1 1_555 1_555
K1B O2 1_555 1_555
K1B_2 O4 1_555 1_555
K1 O2 1_555 1_555
C5 C6 1_555 1_555
C6 C7 1_555 1_555
C14 C15 1_555 1_555
O2B K1B 1_555 1_555
O4B K1B_2 1_555 1_555

#END
