
#######################################################################
#
#                 Cambridge Crystallographic Data Centre
#                                CCDC 
#
#######################################################################
#
# If this CIF has been generated from an entry in the Cambridge 
# Structural Database, then it will include bibliographic, chemical, 
# crystal, experimental, refinement or atomic coordinate data resulting 
# from the CCDC's data processing and validation procedures.
#
#######################################################################

data_UHOFIG
_symmetry_cell_setting           monoclinic
_symmetry_space_group_name_H-M   'P 21/c'
_symmetry_Int_Tables_number      14
_space_group_name_Hall           '-P 2ybc'
loop_
_symmetry_equiv_pos_site_id
_symmetry_equiv_pos_as_xyz
1 x,y,z
2 x,1/2-y,1/2+z
3 -x,-y,-z
4 -x,1/2+y,1/2-z
_cell_length_a                   6.2843(2)
_cell_length_b                   37.3447(11)
_cell_length_c                   8.7230(3)
_cell_angle_alpha                90
_cell_angle_beta                 107.2450(10)
_cell_angle_gamma                90
_cell_volume                     1955.13
loop_
_atom_site_label
_atom_site_type_symbol
_atom_site_fract_x
_atom_site_fract_y
_atom_site_fract_z
V1 V -0.00927(4) 0.187176(6) 0.56670(3)
K1 K -0.29627(6) 0.224658(10) 0.18226(4)
Cl1 Cl -0.96956(6) 0.065958(11) 0.37650(5)
S1 S 0.37331(6) 0.177382(10) 0.70199(4)
S2 S 0.59378(6) 0.128537(11) 0.96390(5)
O1 O -0.25549(17) 0.16900(3) 0.40058(12)
O2 O 0.07179(19) 0.21691(3) 0.45406(14)
O3 O -0.10185(19) 0.20911(3) 0.69428(13)
O4 O -0.5501(2) 0.24551(4) 0.38565(16)
H1 H -0.658(4) 0.2345(7) 0.390(4)
H2 H -0.602(5) 0.2645(6) 0.351(4)
O5 O 0.0272(3) 0.20980(4) 0.03755(17)
H3 H 0.051(4) 0.2306(5) 0.031(3)
H4 H -0.014(5) 0.2023(8) -0.050(2)
N1 N -0.00706(19) 0.13354(3) 0.66558(14)
N2 N 0.1723(2) 0.12047(3) 0.79090(15)
C1 C -0.4172(2) 0.14597(4) 0.40084(16)
C2 C -0.6288(2) 0.15025(4) 0.28878(17)
H5 H -0.6557 0.1699 0.2165
C3 C -0.7981(2) 0.12612(4) 0.28265(18)
H6 H -0.9408 0.1293 0.2071
C4 C -0.7581(2) 0.09711(4) 0.38798(17)
C5 C -0.5535(2) 0.09224(4) 0.50060(17)
H7 H -0.5290 0.0724 0.5718
C6 C -0.3814(2) 0.11692(4) 0.50923(16)
C7 C -0.1735(2) 0.11144(4) 0.63173(16)
H8 H -0.1567 0.0900 0.6926
C8 C 0.3487(2) 0.14002(4) 0.81413(16)
C9 C 0.5212(3) 0.08548(5) 1.03417(18)
H9 H 0.6218 0.0809 1.1434
H10 H 0.3671 0.0868 1.0415
C10 C 0.5370(2) 0.05471(4) 0.92670(17)
C11 C 0.7444(3) 0.04171(5) 0.9224(2)
H11 H 0.8772 0.0525 0.9881
C12 C 0.7580(3) 0.01336(5) 0.8235(2)
H12 H 0.8997 0.0047 0.8221
C13 C 0.5650(3) -0.00250(5) 0.7260(2)
H13 H 0.5744 -0.0218 0.6573
C14 C 0.3581(3) 0.01002(5) 0.7296(2)
H14 H 0.2256 -0.0008 0.6635
C15 C 0.3452(3) 0.03831(4) 0.8299(2)
H15 H 0.2034 0.0466 0.8325
O3A O -0.10185(19) 0.29089(3) 0.19428(13)
O4A O -0.5501(2) 0.25449(4) -0.11435(16)
K1A K -0.29627(6) 0.275342(10) 0.68226(4)
H1A H -0.658(4) 0.2655(7) -0.110(4)
H2A H -0.602(5) 0.2355(6) -0.149(4)
loop_
_geom_bond_atom_site_label_1
_geom_bond_atom_site_label_2
_geom_bond_site_symmetry_1
_geom_bond_site_symmetry_2
V1 S1 1_555 1_555
K1 O1 1_555 1_555
Cl1 C4 1_555 1_555
S1 C8 1_555 1_555
S2 C8 1_555 1_555
O1 V1 1_555 1_555
O2 V1 1_555 1_555
O3 V1 1_555 1_555
O4 K1 1_555 1_555
H1 O4 1_555 1_555
H2 O4 1_555 1_555
O5 K1 1_555 1_555
H3 O5 1_555 1_555
H4 O5 1_555 1_555
N1 V1 1_555 1_555
N2 N1 1_555 1_555
C1 O1 1_555 1_555
C2 C1 1_555 1_555
H5 C2 1_555 1_555
C3 C2 1_555 1_555
H6 C3 1_555 1_555
C4 C3 1_555 1_555
C5 C4 1_555 1_555
H7 C5 1_555 1_555
C6 C1 1_555 1_555
C7 N1 1_555 1_555
H8 C7 1_555 1_555
C8 N2 1_555 1_555
C9 S2 1_555 1_555
H9 C9 1_555 1_555
H10 C9 1_555 1_555
C10 C9 1_555 1_555
C11 C10 1_555 1_555
H11 C11 1_555 1_555
C12 C11 1_555 1_555
H12 C12 1_555 1_555
C13 C12 1_555 1_555
H13 C13 1_555 1_555
C14 C13 1_555 1_555
H14 C14 1_555 1_555
C15 C10 1_555 1_555
H15 C15 1_555 1_555
O3A K1 1_555 1_555
O4A K1 1_555 1_555
K1A O3 1_555 1_555
H1A O4A 1_555 1_555
H2A O4A 1_555 1_555
K1 O2 1_555 1_555
O4 K1A 1_555 1_555
C5 C6 1_555 1_555
C6 C7 1_555 1_555
C14 C15 1_555 1_555

#END
