
#######################################################################
#
#                 Cambridge Crystallographic Data Centre
#                                CCDC 
#
#######################################################################
#
# If this CIF has been generated from an entry in the Cambridge 
# Structural Database, then it will include bibliographic, chemical, 
# crystal, experimental, refinement or atomic coordinate data resulting 
# from the CCDC's data processing and validation procedures.
#
#######################################################################

data_UHOHUW
_symmetry_cell_setting           monoclinic
_symmetry_space_group_name_H-M   'P 21/c'
_symmetry_Int_Tables_number      14
_space_group_name_Hall           '-P 2ybc'
loop_
_symmetry_equiv_pos_site_id
_symmetry_equiv_pos_as_xyz
1 x,y,z
2 -x,1/2+y,1/2-z
3 -x,-y,-z
4 x,1/2-y,1/2+z
_cell_length_a                   14.0894(6)
_cell_length_b                   15.3990(5)
_cell_length_c                   20.5520(8)
_cell_angle_alpha                90
_cell_angle_beta                 103.470(4)
_cell_angle_gamma                90
_cell_volume                     4336.36
loop_
_atom_site_label
_atom_site_type_symbol
_atom_site_fract_x
_atom_site_fract_y
_atom_site_fract_z
Fe1 Fe 1.21689(5) -0.79351(5) 1.23649(3)
B1 B 1.4028(8) -0.7833(6) 1.0766(5)
H1 H 1.4712 -0.7830 1.1015
H2 H 1.3884 -0.7296 1.0507
H3 H 1.3912 -0.8333 1.0463
B2 B 1.0876(6) -0.7836(6) 1.4248(4)
H4 H 1.1447 -0.7808 1.4625
H5 H 1.0489 -0.8353 1.4293
H6 H 1.0475 -0.7315 1.4245
N1 N 1.2168(3) -0.6634(3) 1.23567(19)
N2 N 1.3463(3) -0.7915(3) 1.3039(2)
N3 N 2.0896(3) -0.7096(2) 1.6683(2)
N4 N 1.2157(3) 0.0768(3) 1.23755(19)
N5 N 1.2865(3) -0.7943(3) 1.1655(2)
N6 N 1.1508(3) -0.7919(3) 1.3093(2)
C1 C 1.2962(4) -0.6172(3) 1.2317(3)
H7 H 1.3532 -0.6480 1.2280
C2 C 1.3000(4) -0.5279(3) 1.2327(3)
H8 H 1.3590 -0.4989 1.2313
C3 C 1.2173(4) -0.4804(4) 1.2358(2)
C4 C 1.1340(4) -0.5283(4) 1.2390(3)
H9 H 1.0753 -0.4991 1.2406
C5 C 1.1370(4) -0.6169(3) 1.2398(3)
H10 H 1.0799 -0.6476 1.2434
C6 C 1.1369(4) -0.3384(4) 1.2009(3)
H11 H 1.0821 -0.3691 1.1757
C7 C 1.1355(4) -0.2485(3) 1.2017(3)
H12 H 1.0800 -0.2181 1.1771
C8 C 1.2154(4) -0.2024(3) 1.2386(3)
C9 C 1.2964(4) -0.2480(4) 1.2745(3)
H13 H 1.3508 -0.2174 1.3003
C10 C 1.2974(4) -0.3378(4) 1.2725(3)
H14 H 1.3536 -0.3682 1.2961
C11 C 1.2173(4) -0.3844(4) 1.2365(2)
C12 C 1.1831(4) -0.0589(3) 1.1796(3)
H15 H 1.1590 -0.0885 1.1385
C13 C 1.1869(4) 0.0307(3) 1.1805(3)
H16 H 1.1684 0.0611 1.1392
C14 C 1.2430(4) 0.0313(3) 1.2952(3)
H17 H 1.2623 0.0625 1.3360
C15 C 1.2441(4) -0.0578(4) 1.2976(3)
H18 H 1.2650 -0.0867 1.3393
C16 C 1.2145(4) -0.1061(4) 1.2387(2)
C17 C 1.3594(4) -0.7430(3) 1.3600(3)
H19 H 1.3046 -0.7133 1.3687
C18 C 1.4476(4) -0.7343(4) 1.4053(3)
H20 H 1.4524 -0.6992 1.4439
C19 C 1.5301(4) -0.7769(3) 1.3948(3)
C20 C 1.5162(4) -0.8284(4) 1.3379(3)
H21 H 1.5698 -0.8594 1.3286
C21 C 1.4251(4) -0.8350(3) 1.2946(3)
H22 H 1.4178 -0.8718 1.2567
C22 C 1.6343(4) -0.7475(4) 1.5090(3)
H23 H 1.5769 -0.7441 1.5257
C23 C 1.7245(4) -0.7352(4) 1.5519(3)
H24 H 1.7280 -0.7240 1.5979
C24 C 1.8105(4) -0.7388(4) 1.5296(3)
C25 C 1.8031(4) -0.7558(4) 1.4620(3)
H25 H 1.8606 -0.7586 1.4454
C26 C 1.7128(4) -0.7688(4) 1.4186(3)
H26 H 1.7094 -0.7805 1.3727
C27 C 1.6269(4) -0.7648(4) 1.4413(3)
C28 C 1.9175(4) -0.6767(4) 1.6346(3)
H27 H 1.8628 -0.6476 1.6441
C29 C 2.0082(4) -0.6696(3) 1.6784(3)
H28 H 2.0138 -0.6351 1.7174
C30 C 2.0785(4) -0.7562(3) 1.6115(3)
H29 H 2.1343 -0.7839 1.6025
C31 C 1.9905(4) -0.7660(4) 1.5658(3)
H30 H 1.9871 -0.7998 1.5267
C32 C 1.9064(4) -0.7265(4) 1.5766(3)
C33 C 1.3348(4) -0.7899(3) 1.1271(3)
C34 C 1.1222(4) -0.7890(3) 1.3571(3)
Fe1_2 Fe 1.21689(5) 0.20649(5) 1.23649(3)
Fe1C Fe 2.21689(5) -0.70649(5) 1.73649(3)
N3C N 1.0896(3) -0.7904(2) 1.1683(2)
N4_2 N 1.2157(3) -0.9232(3) 1.23755(19)
C35 C 0.7875(17) -0.0671(13) 1.0315(11)
H31 H 0.7416 -0.0855 0.9895
H32 H 0.8167 -0.1208 1.0540
Cl1 Cl 0.7159(7) -0.0214(4) 1.0828(3)
Cl2 Cl 0.8841(8) -0.0090(4) 1.0074(3)
C38 C 0.422(4) -0.0962(14) 1.1752(15)
H37 H 0.3541 -0.1165 1.1710
H38 H 0.4665 -0.1467 1.1798
Cl7 Cl 0.4329(13) -0.0269(9) 1.1079(13)
Cl8 Cl 0.4582(8) -0.0216(8) 1.2405(12)
C41 C 1.1204(16) -0.5033(11) 1.0560(9)
H45 H 1.0881 -0.4515 1.0334
H46 H 1.1242 -0.4990 1.1041
H47 H 1.0830 -0.5551 1.0380
C42 C 1.2113(16) -0.5091(12) 1.0457(8)
H48 H 1.2354 -0.5693 1.0547
H49 H 1.2554 -0.4702 1.0774
O2 O 1.2143(13) -0.4839(8) 0.9728(6)
H50 H 1.2701 -0.4942 0.9667
C43 C 1.4858(14) -0.4009(11) 0.8628(8)
H51 H 1.5441 -0.3801 0.8494
H52 H 1.4559 -0.3527 0.8820
H53 H 1.4390 -0.4237 0.8236
O3 O 1.4425(14) -0.5078(14) 0.9507(6)
H54 H 1.4508 -0.5617 0.9550
C44 C 1.514(2) -0.4711(17) 0.9138(9)
H55 H 1.5701 -0.4494 0.9480
H56 H 1.5375 -0.5205 0.8912
C36? C 0.816(4) -0.0880(17) 1.0186(12)
H33? H 0.8769 -0.1171 1.0139
H34? H 0.7589 -0.1241 0.9982
Cl3? Cl 0.8191(15) -0.0591(8) 1.1033(6)
Cl4? Cl 0.8065(17) 0.0176(10) 0.9875(8)
Cl5? Cl 0.4422(5) -0.0650(7) 1.1822(4)
Cl6? Cl 0.5652(10) -0.0031(7) 1.0891(5)
C37? C 0.4845(17) 0.0237(12) 1.1416(13)
H35? H 0.5183 0.0650 1.1762
H36? H 0.4271 0.0541 1.1141
C39? C 1.0728(15) -0.4723(13) 0.9030(10)
H39? H 1.0290 -0.4324 0.9190
H40? H 1.0408 -0.5288 0.8928
H41? H 1.0883 -0.4485 0.8624
O1? O 1.2477(11) -0.5481(10) 0.9621(7)
H42? H 1.2979 -0.5226 0.9836
C40? C 1.1552(19) -0.4820(18) 0.9504(13)
H43? H 1.1318 -0.4877 0.9920
H44? H 1.1859 -0.4239 0.9529
loop_
_geom_bond_atom_site_label_1
_geom_bond_atom_site_label_2
_geom_bond_site_symmetry_1
_geom_bond_site_symmetry_2
Fe1 N1 1_555 1_555
B1 H1 1_555 1_555
H2 B1 1_555 1_555
H3 B1 1_555 1_555
B2 H4 1_555 1_555
H5 B2 1_555 1_555
H6 B2 1_555 1_555
N1 C1 1_555 1_555
N2 Fe1 1_555 1_555
N3 C29 1_555 1_555
N4 C13 1_555 1_555
N5 Fe1 1_555 1_555
N6 Fe1 1_555 1_555
C1 H7 1_555 1_555
C2 C1 1_555 1_555
H8 C2 1_555 1_555
C3 C2 1_555 1_555
C4 C3 1_555 1_555
H9 C4 1_555 1_555
C5 N1 1_555 1_555
H10 C5 1_555 1_555
C6 H11 1_555 1_555
C7 C6 1_555 1_555
H12 C7 1_555 1_555
C8 C7 1_555 1_555
C9 C8 1_555 1_555
H13 C9 1_555 1_555
C10 C9 1_555 1_555
H14 C10 1_555 1_555
C11 C3 1_555 1_555
C12 H15 1_555 1_555
C13 C12 1_555 1_555
H16 C13 1_555 1_555
C14 N4 1_555 1_555
H17 C14 1_555 1_555
C15 C14 1_555 1_555
H18 C15 1_555 1_555
C16 C8 1_555 1_555
C17 N2 1_555 1_555
H19 C17 1_555 1_555
C18 C17 1_555 1_555
H20 C18 1_555 1_555
C19 C18 1_555 1_555
C20 C19 1_555 1_555
H21 C20 1_555 1_555
C21 N2 1_555 1_555
H22 C21 1_555 1_555
C22 H23 1_555 1_555
C23 C22 1_555 1_555
H24 C23 1_555 1_555
C24 C23 1_555 1_555
C25 C24 1_555 1_555
H25 C25 1_555 1_555
C26 C25 1_555 1_555
H26 C26 1_555 1_555
C27 C19 1_555 1_555
C28 H27 1_555 1_555
C29 C28 1_555 1_555
H28 C29 1_555 1_555
C30 N3 1_555 1_555
H29 C30 1_555 1_555
C31 C30 1_555 1_555
H30 C31 1_555 1_555
C32 C24 1_555 1_555
C33 B1 1_555 1_555
C34 B2 1_555 1_555
C35 H31 1_555 1_555
H32 C35 1_555 1_555
Cl1 C35 1_555 1_555
Cl2 C35 1_555 1_555
C38 H37 1_555 1_555
H38 C38 1_555 1_555
Cl7 C38 1_555 1_555
Cl8 C38 1_555 1_555
C41 H45 1_555 1_555
H46 C41 1_555 1_555
H47 C41 1_555 1_555
C42 C41 1_555 1_555
H48 C42 1_555 1_555
H49 C42 1_555 1_555
O2 C42 1_555 1_555
H50 O2 1_555 1_555
C43 H51 1_555 1_555
H52 C43 1_555 1_555
H53 C43 1_555 1_555
O3 H54 1_555 1_555
C44 C43 1_555 1_555
H55 C44 1_555 1_555
H56 C44 1_555 1_555
Fe1_2 N4 1_555 1_555
Fe1C N3 1_555 1_555
N3C Fe1 1_555 1_555
N4_2 Fe1 1_555 1_555
N5 C33 1_555 1_555
N6 C34 1_555 1_555
C4 C5 1_555 1_555
C6 C11 1_555 1_555
C10 C11 1_555 1_555
C12 C16 1_555 1_555
C15 C16 1_555 1_555
C20 C21 1_555 1_555
C22 C27 1_555 1_555
C26 C27 1_555 1_555
C28 C32 1_555 1_555
C31 C32 1_555 1_555
O3 C44 1_555 1_555

#END
