
#######################################################################
#
#                 Cambridge Crystallographic Data Centre
#                                CCDC 
#
#######################################################################
#
# If this CIF has been generated from an entry in the Cambridge 
# Structural Database, then it will include bibliographic, chemical, 
# crystal, experimental, refinement or atomic coordinate data resulting 
# from the CCDC's data processing and validation procedures.
#
#######################################################################

data_UHOHAC
_symmetry_cell_setting           monoclinic
_symmetry_space_group_name_H-M   'C 2/c'
_symmetry_Int_Tables_number      15
_space_group_name_Hall           '-C 2yn'
loop_
_symmetry_equiv_pos_site_id
_symmetry_equiv_pos_as_xyz
1 x,y,z
2 -x,y,1/2-z
3 1/2+x,1/2+y,z
4 1/2-x,1/2+y,1/2-z
5 -x,-y,-z
6 x,-y,1/2+z
7 1/2-x,1/2-y,-z
8 1/2+x,1/2-y,1/2+z
_cell_length_a                   12.690(2)
_cell_length_b                   15.807(2)
_cell_length_c                   18.999(3)
_cell_angle_alpha                90
_cell_angle_beta                 93.860(4)
_cell_angle_gamma                90
_cell_volume                     3802.38
loop_
_atom_site_label
_atom_site_type_symbol
_atom_site_fract_x
_atom_site_fract_y
_atom_site_fract_z
Fe1 Fe 0.5000 0.40745(8) 0.2500
S1 S 0.6963(2) 0.31482(16) 0.06311(13)
N1 N 0.6087(5) 0.4044(4) 0.1717(3)
N2 N 0.3727(5) 0.4136(3) 0.1662(3)
N3 N 0.5000 0.2674(5) 0.2500
N4 N 0.5000 -0.4517(5) 0.2500
C1 C 0.6466(6) 0.3680(5) 0.1263(5)
C2 C 0.2808(6) 0.3752(4) 0.1747(4)
H1 H 0.2780 0.3337 0.2106
C3 C 0.1903(7) 0.3927(4) 0.1339(4)
H2 H 0.1270 0.3630 0.1415
C4 C 0.1909(6) 0.4534(5) 0.0821(4)
C5 C 0.2885(6) 0.4915(5) 0.0720(4)
H3 H 0.2939 0.5325 0.0358
C6 C 0.3751(6) 0.4698(4) 0.1139(4)
H4 H 0.4406 0.4958 0.1056
C7 C 0.0938(6) 0.4771(5) 0.0384(4)
C8 C 0.0139(6) 0.4175(5) 0.0232(4)
H5 H 0.0237 0.3607 0.0387
C9 C 0.0777(7) 0.5602(5) 0.0136(4)
H6 H 0.1314 0.6014 0.0226
C10 C 0.4839(6) 0.2232(4) 0.1897(4)
H7 H 0.4730 0.2534 0.1467
C11 C 0.4823(6) 0.1357(4) 0.1877(4)
H8 H 0.4692 0.1071 0.1440
C12 C 0.5000 0.0896(6) 0.2500
C13 C 0.5000 -0.0036(6) 0.2500
C14 C 0.4313(6) -0.0501(5) 0.2036(4)
H9 H 0.3845 -0.0206 0.1710
C15 C 0.4301(6) -0.1365(5) 0.2040(4)
H10 H 0.3816 -0.1664 0.1730
C16 C 0.5000 -0.1805(6) 0.2500
C17 C 0.5000 -0.2742(6) 0.2500
C18 C 0.4054(6) -0.3202(4) 0.2448(4)
H11 H 0.3392 -0.2920 0.2401
C19 C 0.4109(6) -0.4081(4) 0.2465(4)
H12 H 0.3464 -0.4388 0.2450
N2D N -0.3727(5) 0.5864(3) -0.1662(3)
C2D C -0.2808(6) 0.6248(4) -0.1747(4)
H1D H -0.2780 0.6663 -0.2106
C3D C -0.1903(7) 0.6073(4) -0.1339(4)
H2D H -0.1270 0.6370 -0.1415
C4D C -0.1909(6) 0.5466(5) -0.0821(4)
C5D C -0.2885(6) 0.5085(5) -0.0720(4)
H3D H -0.2939 0.4675 -0.0358
C6D C -0.3751(6) 0.5302(4) -0.1139(4)
H4D H -0.4406 0.5042 -0.1056
C7D C -0.0938(6) 0.5229(5) -0.0384(4)
C8D C -0.0139(6) 0.5825(5) -0.0232(4)
H5D H -0.0237 0.6393 -0.0387
C9D C -0.0777(7) 0.4398(5) -0.0136(4)
H6D H -0.1314 0.3986 -0.0226
C10A C 0.5161(6) 0.2232(4) 0.3103(4)
H7A H 0.5270 0.2534 0.3533
C11A C 0.5177(6) 0.1357(4) 0.3123(4)
H8A H 0.5308 0.1071 0.3560
C14A C 0.5687(6) -0.0501(5) 0.2964(4)
H9A H 0.6155 -0.0206 0.3290
C15A C 0.5699(6) -0.1365(5) 0.2960(4)
H10A H 0.6184 -0.1664 0.3270
C18A C 0.5946(6) -0.3202(4) 0.2552(4)
H11A H 0.6608 -0.2920 0.2599
C19A C 0.5891(6) -0.4081(4) 0.2535(4)
H12A H 0.6536 -0.4388 0.2550
S1A S 0.3037(2) 0.31482(16) 0.43689(13)
N1A N 0.3913(5) 0.4044(4) 0.3283(3)
C1A C 0.3534(6) 0.3680(5) 0.3737(5)
Fe1_2 Fe 0.5000 -0.59255(8) 0.2500
Fe1D Fe -0.5000 0.59255(8) -0.2500
N2A N 0.6273(5) 0.4136(3) 0.3338(3)
N4_2 N 0.5000 0.5483(5) 0.2500
C20 C 0.4131(12) 0.3664(10) -0.0557(9)
H13 H 0.4463 0.3887 -0.0976
H14 H 0.4174 0.4106 -0.0187
O1 O 0.4674(13) 0.2932(7) -0.0307(11)
H15 H 0.5243 0.3066 -0.0071
C21 C 0.3038(13) 0.3459(11) -0.0742(9)
H16 H 0.2975 0.3201 -0.1212
H17 H 0.2613 0.3976 -0.0743
H18 H 0.2785 0.3060 -0.0397
loop_
_geom_bond_atom_site_label_1
_geom_bond_atom_site_label_2
_geom_bond_site_symmetry_1
_geom_bond_site_symmetry_2
Fe1 N1 1_555 1_555
S1 C1 1_555 1_555
N1 C1 1_555 1_555
N2 Fe1 1_555 1_555
N3 Fe1 1_555 1_555
N4 C19 1_555 1_555
C2 N2 1_555 1_555
H1 C2 1_555 1_555
C3 C2 1_555 1_555
H2 C3 1_555 1_555
C4 C3 1_555 1_555
C5 C4 1_555 1_555
H3 C5 1_555 1_555
C6 N2 1_555 1_555
H4 C6 1_555 1_555
C7 C4 1_555 1_555
C8 C7 1_555 1_555
H5 C8 1_555 1_555
C9 C7 1_555 1_555
H6 C9 1_555 1_555
C10 N3 1_555 1_555
H7 C10 1_555 1_555
C11 C10 1_555 1_555
H8 C11 1_555 1_555
C12 C11 1_555 1_555
C13 C12 1_555 1_555
C14 C13 1_555 1_555
H9 C14 1_555 1_555
C15 C14 1_555 1_555
H10 C15 1_555 1_555
C16 C15 1_555 1_555
C17 C16 1_555 1_555
C18 C17 1_555 1_555
H11 C18 1_555 1_555
C19 C18 1_555 1_555
H12 C19 1_555 1_555
C20 H13 1_555 1_555
H14 C20 1_555 1_555
O1 C20 1_555 1_555
H15 O1 1_555 1_555
C21 C20 1_555 1_555
H16 C21 1_555 1_555
H17 C21 1_555 1_555
H18 C21 1_555 1_555
N2D C2D 1_555 1_555
C2D H1D 1_555 1_555
C3D C2D 1_555 1_555
H2D C3D 1_555 1_555
C4D C3D 1_555 1_555
C5D C4D 1_555 1_555
H3D C5D 1_555 1_555
C6D N2D 1_555 1_555
H4D C6D 1_555 1_555
C7D C4D 1_555 1_555
C8D C9 1_555 1_555
H5D C8D 1_555 1_555
C9D C8 1_555 1_555
H6D C9D 1_555 1_555
C10A N3 1_555 1_555
H7A C10A 1_555 1_555
C11A C12 1_555 1_555
H8A C11A 1_555 1_555
C14A C13 1_555 1_555
H9A C14A 1_555 1_555
C15A C16 1_555 1_555
H10A C15A 1_555 1_555
C18A C17 1_555 1_555
H11A C18A 1_555 1_555
C19A N4 1_555 1_555
H12A C19A 1_555 1_555
S1A C1A 1_555 1_555
N1A Fe1 1_555 1_555
C1A N1A 1_555 1_555
Fe1_2 N4 1_555 1_555
Fe1D N2D 1_555 1_555
N2A Fe1 1_555 1_555
N4_2 Fe1 1_555 1_555
C5 C6 1_555 1_555
C5D C6D 1_555 1_555
C7D C8D 1_555 1_555
C7D C9D 1_555 1_555
C10A C11A 1_555 1_555
C14A C15A 1_555 1_555
C18A C19A 1_555 1_555

#END
