
#######################################################################
#
#                 Cambridge Crystallographic Data Centre
#                                CCDC 
#
#######################################################################
#
# If this CIF has been generated from an entry in the Cambridge 
# Structural Database, then it will include bibliographic, chemical, 
# crystal, experimental, refinement or atomic coordinate data resulting 
# from the CCDC's data processing and validation procedures.
#
#######################################################################

data_UHOHEG
_symmetry_cell_setting           monoclinic
_symmetry_space_group_name_H-M   'C 2/c'
_symmetry_Int_Tables_number      15
_space_group_name_Hall           '-C 2yn'
loop_
_symmetry_equiv_pos_site_id
_symmetry_equiv_pos_as_xyz
1 x,y,z
2 -x,y,1/2-z
3 1/2+x,1/2+y,z
4 1/2-x,1/2+y,1/2-z
5 -x,-y,-z
6 x,-y,1/2+z
7 1/2-x,1/2-y,-z
8 1/2+x,1/2-y,1/2+z
_cell_length_a                   22.110(3)
_cell_length_b                   13.6595(14)
_cell_length_c                   15.0436(14)
_cell_angle_alpha                90
_cell_angle_beta                 116.019(10)
_cell_angle_gamma                90
_cell_volume                     4082.87
loop_
_atom_site_label
_atom_site_type_symbol
_atom_site_fract_x
_atom_site_fract_y
_atom_site_fract_z
Fe1 Fe 0.2500 0.7500 0.0000
Se1 Se 0.24531(15) 1.10289(18) -0.0687(5)
C1 C 0.2273(10) 0.9752(11) -0.0601(13)
N1 N 0.1754(2) 0.6853(4) -0.1410(3)
N2 N 0.3226(3) 0.7527(4) -0.0655(4)
N3 N 0.2186(2) 0.8918(4) -0.0566(4)
C2 C 0.1954(6) 0.6081(8) -0.1759(8)
H1 H 0.2399 0.5841 -0.1390
C3 C 0.1546(7) 0.5619(8) -0.2630(8)
H2 H 0.1707 0.5075 -0.2857
C4 C 0.0702(5) 0.6781(9) -0.2856(6)
H3 H 0.0272 0.7067 -0.3231
C5 C 0.1148(4) 0.7211(8) -0.1961(6)
H4 H 0.1008 0.7783 -0.1742
C6 C 0.0877(4) 0.5972(6) -0.3187(5)
C7 C 0.0426(5) 0.5477(7) -0.4121(5)
C8 C 0.0673(6) 0.5156(10) -0.4786(7)
H5 H 0.1129 0.5278 -0.4645
C9 C -0.0260(5) 0.5337(10) -0.4351(6)
H6 H -0.0438 0.5578 -0.3921
C10 C 0.4313(4) 0.7604(8) -0.3063(6)
H7 H 0.3841 0.7610 -0.3464
C11 C 0.5249(4) 0.7616(8) -0.1496(6)
H8 H 0.5431 0.7645 -0.0795
C12 C 0.4565(3) 0.7586(5) -0.2041(5)
C13 C 0.3040(4) 0.7971(7) -0.1558(6)
H9 H 0.2611 0.8275 -0.1871
C14 C 0.3458(4) 0.7989(7) -0.2027(6)
H10 H 0.3308 0.8285 -0.2660
C15 C 0.4271(4) 0.7161(9) -0.0656(6)
H11 H 0.4704 0.6880 -0.0305
C16 C 0.3827(4) 0.7150(8) -0.0241(6)
H12 H 0.3968 0.6849 0.0387
C17 C 0.4099(3) 0.7571(5) -0.1567(5)
N1D N -0.1754(2) 0.3147(4) -0.8590(3)
C2D C -0.1954(6) 0.3919(8) -0.8241(8)
H1D H -0.2399 0.4159 -0.8610
C3D C -0.1546(7) 0.4381(8) -0.7370(8)
H2D H -0.1707 0.4925 -0.7143
C4D C -0.0702(5) 0.3219(9) -0.7144(6)
H3D H -0.0272 0.2933 -0.6769
C5D C -0.1148(4) 0.2789(8) -0.8039(6)
H4D H -0.1008 0.2217 -0.8258
C6D C -0.0877(4) 0.4028(6) -0.6813(5)
C7D C -0.0426(5) 0.4523(7) -0.5879(5)
C8D C -0.0673(6) 0.4844(10) -0.5214(7)
H5D H -0.1129 0.4722 -0.5355
C9D C 0.0260(5) 0.4663(10) -0.5649(6)
H6D H 0.0438 0.4422 -0.6079
N2A N 0.6774(3) 0.7527(4) -0.4345(4)
C10A C 0.5687(4) 0.7604(8) -0.1937(6)
H7A H 0.6159 0.7610 -0.1536
C11A C 0.4751(4) 0.7616(8) -0.3504(6)
H8A H 0.4569 0.7645 -0.4205
C12A C 0.5435(3) 0.7586(5) -0.2959(5)
C13A C 0.6960(4) 0.7971(7) -0.3442(6)
H9A H 0.7389 0.8275 -0.3129
C14A C 0.6542(4) 0.7989(7) -0.2973(6)
H10A H 0.6692 0.8285 -0.2340
C15A C 0.5729(4) 0.7161(9) -0.4344(6)
H11A H 0.5296 0.6880 -0.4695
C16A C 0.6173(4) 0.7150(8) -0.4759(6)
H12A H 0.6032 0.6849 -0.5387
C17A C 0.5901(3) 0.7571(5) -0.3433(5)
Se1F Se 0.25469(15) 0.39711(18) 0.0687(5)
C1F C 0.2727(10) 0.5248(11) 0.0601(13)
N3F N 0.2814(2) 0.6082(4) 0.0566(4)
Fe1A Fe 0.7500 0.7500 -0.5000
Fe1B Fe -0.2500 0.2500 -1.0000
N1F N 0.3246(2) 0.8147(4) 0.1410(3)
N2F N 0.1774(3) 0.7473(4) 0.0655(4)
O1 O 0.0000 0.959(3) 0.7500
C27 C 0.109(2) 1.064(4) 0.062(3)
H21 H 0.0955 1.0642 -0.0099
H22 H 0.1299 0.9993 0.0848
C28 C 0.0415(17) 1.047(3) 0.062(3)
H23 H 0.0203 0.9892 0.0227
H24 H 0.0126 1.1045 0.0335
H25 H 0.0478 1.0378 0.1302
O2 O 0.1722(18) 1.130(3) 0.099(2)
H26 H 0.2030 1.1006 0.0918
C18? C 0.1454(13) 0.5944(19) -0.1423(16)
H13? H 0.1555 0.5623 -0.0814
C19? C 0.1022(14) 0.5509(19) -0.2285(17)
H14? H 0.0820 0.4898 -0.2273
C20? C 0.1186(19) 0.682(2) -0.3118(17)
H15? H 0.1101 0.7164 -0.3711
C21? C 0.1609(16) 0.722(2) -0.2261(17)
H16? H 0.1819 0.7820 -0.2284
C22? C 0.3742(14) 0.811(2) -0.042(2)
H17? H 0.3832 0.8553 0.0107
C23? C 0.4162(16) 0.814(2) -0.086(2)
H18? H 0.4516 0.8612 -0.0639
C24? C 0.3740(19) 0.667(3) -0.164(3)
H19? H 0.3805 0.6098 -0.1949
C25? C 0.3268(19) 0.669(3) -0.119(3)
H20? H 0.2987 0.6139 -0.1263
C26? C 0.2158(19) 0.9635(14) -0.0967(16)
Se2? Se 0.2129(5) 1.0782(4) -0.1518(7)
H27? H 0.0335 1.0985 0.1016
H28? H 0.0412 0.9831 0.0908
H29? H 0.0060 1.0499 -0.0059
loop_
_geom_bond_atom_site_label_1
_geom_bond_atom_site_label_2
_geom_bond_site_symmetry_1
_geom_bond_site_symmetry_2
Fe1 N1 1_555 1_555
Se1 C1 1_555 1_555
C1 N3 1_555 1_555
N1 C2 1_555 1_555
N2 Fe1 1_555 1_555
N3 Fe1 1_555 1_555
C2 H1 1_555 1_555
C3 C2 1_555 1_555
H2 C3 1_555 1_555
C4 H3 1_555 1_555
C5 N1 1_555 1_555
H4 C5 1_555 1_555
C6 C3 1_555 1_555
C7 C6 1_555 1_555
C8 C7 1_555 1_555
H5 C8 1_555 1_555
C9 C7 1_555 1_555
H6 C9 1_555 1_555
C10 H7 1_555 1_555
C11 H8 1_555 1_555
C12 C10 1_555 1_555
C13 N2 1_555 1_555
H9 C13 1_555 1_555
C14 C13 1_555 1_555
H10 C14 1_555 1_555
C15 H11 1_555 1_555
C16 N2 1_555 1_555
H12 C16 1_555 1_555
C17 C12 1_555 1_555
C27 H21 1_555 1_555
H22 C27 1_555 1_555
C28 C27 1_555 1_555
H23 C28 1_555 1_555
H24 C28 1_555 1_555
H25 C28 1_555 1_555
O2 C27 1_555 1_555
H26 O2 1_555 1_555
N1D C2D 1_555 1_555
C2D H1D 1_555 1_555
C3D C2D 1_555 1_555
H2D C3D 1_555 1_555
C4D H3D 1_555 1_555
C5D N1D 1_555 1_555
H4D C5D 1_555 1_555
C6D C3D 1_555 1_555
C7D C6D 1_555 1_555
C8D C9 1_555 1_555
H5D C8D 1_555 1_555
C9D C8 1_555 1_555
H6D C9D 1_555 1_555
N2A C13A 1_555 1_555
C10A C11 1_555 1_555
H7A C10A 1_555 1_555
C11A C10 1_555 1_555
H8A C11A 1_555 1_555
C12A C10A 1_555 1_555
C13A H9A 1_555 1_555
C14A C13A 1_555 1_555
H10A C14A 1_555 1_555
C15A H11A 1_555 1_555
C16A N2A 1_555 1_555
H12A C16A 1_555 1_555
C17A C12A 1_555 1_555
Se1F C1F 1_555 1_555
C1F N3F 1_555 1_555
N3F Fe1 1_555 1_555
Fe1A N2A 1_555 1_555
Fe1B N1D 1_555 1_555
N1F Fe1 1_555 1_555
N2F Fe1 1_555 1_555
C4 C5 1_555 1_555
C4 C6 1_555 1_555
C11 C12 1_555 1_555
C14 C17 1_555 1_555
C15 C16 1_555 1_555
C15 C17 1_555 1_555
C4D C5D 1_555 1_555
C4D C6D 1_555 1_555
C7D C8D 1_555 1_555
C7D C9D 1_555 1_555
C11A C12A 1_555 1_555
C14A C17A 1_555 1_555
C15A C16A 1_555 1_555
C15A C17A 1_555 1_555

#END
