
#######################################################################
#
#                 Cambridge Crystallographic Data Centre
#                                CCDC 
#
#######################################################################
#
# If this CIF has been generated from an entry in the Cambridge 
# Structural Database, then it will include bibliographic, chemical, 
# crystal, experimental, refinement or atomic coordinate data resulting 
# from the CCDC's data processing and validation procedures.
#
#######################################################################

data_UHOHOQ
_symmetry_cell_setting           monoclinic
_symmetry_space_group_name_H-M   'P 21/c'
_symmetry_Int_Tables_number      14
_space_group_name_Hall           '-P 2ybc'
loop_
_symmetry_equiv_pos_site_id
_symmetry_equiv_pos_as_xyz
1 x,y,z
2 -x,1/2+y,1/2-z
3 -x,-y,-z
4 x,1/2-y,1/2+z
_cell_length_a                   14.1404(8)
_cell_length_b                   15.4361(5)
_cell_length_c                   20.5104(8)
_cell_angle_alpha                90
_cell_angle_beta                 103.704(4)
_cell_angle_gamma                90
_cell_volume                     4349.41
loop_
_atom_site_label
_atom_site_type_symbol
_atom_site_fract_x
_atom_site_fract_y
_atom_site_fract_z
Fe1 Fe 0.28297(4) 0.21363(4) 0.26206(3)
N1 N 0.4106(2) 0.2170(2) 0.32984(16)
N2 N 1.1538(2) 0.2857(2) 0.69520(17)
N3 N 0.2843(2) 1.0840(2) 0.26180(16)
N4 N 0.2832(2) 0.3436(2) 0.26193(16)
N5 N 0.2146(3) 0.2138(2) 0.33340(17)
N6 N 0.3480(2) 0.2139(2) 0.18871(17)
B1 B 0.4138(5) 0.2129(5) 0.0741(3)
H1 H 0.3576 0.2134 0.0355
H2 H 0.4525 0.1606 0.0725
H3 H 0.4540 0.2642 0.0726
B2 B 0.1029(7) 0.2229(5) 0.4246(4)
H4 H 0.1124 0.2792 0.4474
H5 H 0.1202 0.1764 0.4578
H6 H 0.0345 0.2168 0.4006
C1 C 0.4913(3) 0.1773(3) 0.3194(2)
H7 H 0.4853 0.1436 0.2799
C2 C 0.5809(3) 0.1834(3) 0.3628(2)
H8 H 0.6350 0.1543 0.3528
C3 C 0.5934(3) 0.2319(3) 0.4217(2)
C4 C 0.5101(3) 0.2716(3) 0.4331(2)
H9 H 0.5139 0.3047 0.4727
C5 C 0.4226(3) 0.2627(3) 0.3872(2)
H10 H 0.3672 0.2905 0.3963
C6 C 1.0521(3) 0.2320(3) 0.5924(2)
H11 H 1.0469 0.1991 0.5526
C7 C 1.1400(3) 0.2386(3) 0.6376(2)
H12 H 1.1942 0.2089 0.6284
C8 C 0.9695(3) 0.2734(3) 0.6045(2)
C9 C 0.9850(3) 0.3240(3) 0.6626(2)
H13 H 0.9324 0.3556 0.6725
C10 C 1.0758(3) 0.3285(3) 0.7054(2)
H14 H 1.0838 0.3637 0.7443
C11 C 0.6979(3) 0.2540(3) 0.5377(2)
H15 H 0.6409 0.2547 0.5546
C12 C 0.7872(3) 0.2650(3) 0.5812(2)
H16 H 0.7910 0.2738 0.6276
C13 C 0.8727(3) 0.2635(3) 0.5580(2)
C14 C 0.8641(3) 0.2512(4) 0.4895(2)
H17 H 0.9210 0.2501 0.4724
C15 C 0.7742(3) 0.2406(4) 0.4462(2)
H18 H 0.7703 0.2323 0.3997
C16 C 0.6891(3) 0.2417(3) 0.4689(2)
C17 C 0.3624(3) 0.3901(3) 0.2578(2)
H19 H 0.4192 0.3598 0.2537
C18 C 0.3649(3) 0.4793(3) 0.2592(2)
H20 H 0.4234 0.5088 0.2579
C19 C 0.2823(3) 0.5265(3) 0.2624(2)
C20 C 0.2000(3) 0.4786(3) 0.2656(2)
H21 H 0.1414 0.5076 0.2674
C21 C 0.2034(3) 0.3896(3) 0.2660(2)
H22 H 0.1467 0.3587 0.2694
C22 C 0.3126(3) 1.0376(3) 0.3190(2)
H23 H 0.3312 1.0680 0.3603
C23 C 0.2583(3) 1.0385(3) 0.2039(2)
H24 H 0.2400 1.0695 0.1628
C24 C 0.2570(4) 0.9487(3) 0.2019(2)
H25 H 0.2368 0.9196 0.1601
C25 C 0.2853(3) 0.9013(3) 0.2611(2)
C26 C 0.3158(3) 0.9482(3) 0.3204(2)
H26 H 0.3387 0.9187 0.3618
C27 C 0.2027(4) 0.7593(3) 0.2258(2)
H27 H 0.1479 0.7900 0.2007
C28 C 0.2012(3) 0.6694(3) 0.2271(2)
H28 H 0.1448 0.6393 0.2034
C29 C 0.2817(3) 0.6227(3) 0.2629(2)
C30 C 0.3623(3) 0.6687(3) 0.2986(2)
H29 H 0.4174 0.6380 0.3235
C31 C 0.3633(4) 0.7582(3) 0.2982(2)
H30 H 0.4185 0.7883 0.3235
C32 C 0.2840(3) 0.8052(3) 0.2611(2)
C33 C 0.1697(4) 0.2171(3) 0.3731(2)
C34 C 0.3773(3) 0.2134(3) 0.1412(2)
Fe1_2 Fe 0.28297(4) 1.21363(4) 0.26206(3)
Fe1C Fe 1.28297(4) 0.28637(4) 0.76206(3)
N2C N 0.1538(2) 0.2143(2) 0.19520(17)
N3_2 N 0.2843(2) 0.0840(2) 0.26180(16)
C35 C 0.355(2) 0.0708(12) 0.4936(7)
H31 H 0.3019 0.0821 0.4535
H32 H 0.3973 0.1224 0.5047
C36 C 0.314(2) 0.0342(11) 0.5598(14)
H33 H 0.2725 0.0784 0.5731
H34 H 0.3694 0.0220 0.5974
H35 H 0.2762 -0.0189 0.5470
O1 O 0.409(2) -0.0069(16) 0.4879(12)
H36 H 0.4368 -0.0014 0.4564
C37 C 0.3124(16) 0.5158(7) 0.5175(7)
H37 H 0.2828 0.5738 0.5189
H38 H 0.3758 0.5154 0.5508
C38 C 0.3279(14) 0.5016(7) 0.4532(5)
H39 H 0.3705 0.5470 0.4428
H40 H 0.2654 0.5030 0.4200
H41 H 0.3586 0.4449 0.4519
O2 O 0.2505(6) 0.4520(5) 0.5357(4)
H42 H 0.2763 0.4030 0.5360
O3 O 0.0149(9) 0.9011(8) 0.1391(6)
O4 O 0.0365(17) 1.0186(9) 0.0337(8)
C39 C 0.0574(9) 0.5759(7) 0.8110(7)
H43 H 0.0021 0.6165 0.8072
H44 H 0.1176 0.6089 0.8114
C40 C 0.0683(10) 0.5207(8) 0.8675(8)
H45 H 0.0823 0.5556 0.9086
H46 H 0.1221 0.4803 0.8686
H47 H 0.0080 0.4880 0.8645
O5 O 0.0390(6) 0.5138(5) 0.7611(5)
H48 H 0.0149 0.5375 0.7240
O6? O 0.0059(9) 0.4431(8) 0.8382(7)
H49? H 0.0497 0.4496 0.8171
C41? C 0.014(2) 0.5143(19) 0.8908(16)
H50? H 0.0005 0.5693 0.8654
H51? H -0.0405 0.5051 0.9123
C42? C 0.100(3) 0.532(2) 0.9458(19)
H52? H 0.0891 0.5076 0.9877
H53? H 0.1102 0.5943 0.9507
H54? H 0.1574 0.5044 0.9357
loop_
_geom_bond_atom_site_label_1
_geom_bond_atom_site_label_2
_geom_bond_site_symmetry_1
_geom_bond_site_symmetry_2
Fe1 N1 1_555 1_555
N1 C1 1_555 1_555
N2 C7 1_555 1_555
N3 C22 1_555 1_555
N4 Fe1 1_555 1_555
N5 Fe1 1_555 1_555
N6 Fe1 1_555 1_555
B1 H1 1_555 1_555
H2 B1 1_555 1_555
H3 B1 1_555 1_555
B2 H4 1_555 1_555
H5 B2 1_555 1_555
H6 B2 1_555 1_555
C1 H7 1_555 1_555
C2 C1 1_555 1_555
H8 C2 1_555 1_555
C3 C2 1_555 1_555
C4 C3 1_555 1_555
H9 C4 1_555 1_555
C5 N1 1_555 1_555
H10 C5 1_555 1_555
C6 H11 1_555 1_555
C7 C6 1_555 1_555
H12 C7 1_555 1_555
C8 C6 1_555 1_555
C9 C8 1_555 1_555
H13 C9 1_555 1_555
C10 N2 1_555 1_555
H14 C10 1_555 1_555
C11 H15 1_555 1_555
C12 C11 1_555 1_555
H16 C12 1_555 1_555
C13 C8 1_555 1_555
C14 C13 1_555 1_555
H17 C14 1_555 1_555
C15 C14 1_555 1_555
H18 C15 1_555 1_555
C16 C3 1_555 1_555
C17 N4 1_555 1_555
H19 C17 1_555 1_555
C18 C17 1_555 1_555
H20 C18 1_555 1_555
C19 C18 1_555 1_555
C20 C19 1_555 1_555
H21 C20 1_555 1_555
C21 N4 1_555 1_555
H22 C21 1_555 1_555
C22 H23 1_555 1_555
C23 N3 1_555 1_555
H24 C23 1_555 1_555
C24 C23 1_555 1_555
H25 C24 1_555 1_555
C25 C24 1_555 1_555
C26 C22 1_555 1_555
H26 C26 1_555 1_555
C27 H27 1_555 1_555
C28 C27 1_555 1_555
H28 C28 1_555 1_555
C29 C19 1_555 1_555
C30 C29 1_555 1_555
H29 C30 1_555 1_555
C31 C30 1_555 1_555
H30 C31 1_555 1_555
C32 C25 1_555 1_555
C33 N5 1_555 1_555
C34 N6 1_555 1_555
C35 H31 1_555 1_555
H32 C35 1_555 1_555
C36 C35 1_555 1_555
H33 C36 1_555 1_555
H34 C36 1_555 1_555
H35 C36 1_555 1_555
O1 C35 1_555 1_555
H36 O1 1_555 1_555
C37 H37 1_555 1_555
H38 C37 1_555 1_555
C38 C37 1_555 1_555
H39 C38 1_555 1_555
H40 C38 1_555 1_555
H41 C38 1_555 1_555
O2 C37 1_555 1_555
H42 O2 1_555 1_555
C39 H43 1_555 1_555
H44 C39 1_555 1_555
C40 C39 1_555 1_555
H45 C40 1_555 1_555
H46 C40 1_555 1_555
H47 C40 1_555 1_555
O5 C39 1_555 1_555
H48 O5 1_555 1_555
Fe1_2 N3 1_555 1_555
Fe1C N2 1_555 1_555
N2C Fe1 1_555 1_555
N3_2 Fe1 1_555 1_555
B1 C34 1_555 1_555
B2 C33 1_555 1_555
C4 C5 1_555 1_555
C9 C10 1_555 1_555
C11 C16 1_555 1_555
C12 C13 1_555 1_555
C15 C16 1_555 1_555
C20 C21 1_555 1_555
C25 C26 1_555 1_555
C27 C32 1_555 1_555
C28 C29 1_555 1_555
C31 C32 1_555 1_555

#END
