
#######################################################################
#
#                 Cambridge Crystallographic Data Centre
#                                CCDC 
#
#######################################################################
#
# If this CIF has been generated from an entry in the Cambridge 
# Structural Database, then it will include bibliographic, chemical, 
# crystal, experimental, refinement or atomic coordinate data resulting 
# from the CCDC's data processing and validation procedures.
#
#######################################################################

data_UHOKAF
_symmetry_cell_setting           monoclinic
_symmetry_space_group_name_H-M   'C 2/c'
_symmetry_Int_Tables_number      15
_space_group_name_Hall           '-C 2yn'
loop_
_symmetry_equiv_pos_site_id
_symmetry_equiv_pos_as_xyz
1 x,y,z
2 -x,y,1/2-z
3 1/2+x,1/2+y,z
4 1/2-x,1/2+y,1/2-z
5 -x,-y,-z
6 x,-y,1/2+z
7 1/2-x,1/2-y,-z
8 1/2+x,1/2-y,1/2+z
_cell_length_a                   10.674(2)
_cell_length_b                   11.584(2)
_cell_length_c                   18.116(4)
_cell_angle_alpha                90
_cell_angle_beta                 100.38(3)
_cell_angle_gamma                90
_cell_volume                     2203.34
loop_
_atom_site_label
_atom_site_type_symbol
_atom_site_fract_x
_atom_site_fract_y
_atom_site_fract_z
U1 U 0.0000 0.47935(5) 0.2500
O1 O -0.1419(8) 0.4704(6) 0.2877(4)
O2 O 0.1049(9) 0.5081(7) 0.3838(4)
O3 O 0.0947(8) 0.6604(7) 0.3108(4)
N1 N -0.0828(9) 0.2952(8) 0.1809(5)
N2 N -0.0722(9) 0.1447(8) 0.1086(5)
C1 C 0.1904(11) 0.6839(10) 0.4398(6)
C2 C 0.2265(11) 0.7964(10) 0.4289(6)
H1 H 0.2108 0.8279 0.3809
C3 C 0.2149(12) 0.6380(10) 0.5117(6)
H2 H 0.1913 0.5623 0.5197
C4 C 0.1269(11) 0.6139(12) 0.3752(6)
C5 C -0.0340(11) 0.0700(11) 0.0531(6)
C6 C -0.0694(12) 0.0979(9) -0.0215(6)
H3 H -0.1160 0.1650 -0.0347
C7 C 0.0375(12) -0.0286(10) 0.0772(6)
C8 C 0.0796(15) -0.0590(14) 0.1587(7)
H4 H 0.0161 -0.1066 0.1750
H5 H 0.0906 0.0104 0.1881
H6 H 0.1588 -0.1003 0.1649
C9 C -0.1545(12) 0.1168(10) 0.1566(6)
H7 H -0.1976 0.0474 0.1585
C10 C -0.1597(12) 0.2102(10) 0.2003(6)
H8 H -0.2082 0.2161 0.2379
C11 C -0.0319(11) 0.2518(10) 0.1259(6)
H9 H 0.0254 0.2912 0.1020
O2F O 0.3951(9) 0.9919(7) 0.6162(4)
O3F O 0.4053(8) 0.8396(7) 0.6892(4)
C1F C 0.3096(11) 0.8161(10) 0.5602(6)
C2F C 0.2735(11) 0.7036(10) 0.5711(6)
H1F H 0.2892 0.6721 0.6191
C3F C 0.2851(12) 0.8620(10) 0.4883(6)
H2F H 0.3087 0.9377 0.4803
C4F C 0.3731(11) 0.8861(12) 0.6248(6)
N1D N 0.0828(9) -0.2952(8) -0.1809(5)
N2D N 0.0722(9) -0.1447(8) -0.1086(5)
C5D C 0.0340(11) -0.0700(11) -0.0531(6)
C6D C 0.0694(12) -0.0979(9) 0.0215(6)
H3D H 0.1160 -0.1650 0.0347
C7D C -0.0375(12) 0.0286(10) -0.0772(6)
C8D C -0.0796(15) 0.0590(14) -0.1587(7)
H4D H -0.0161 0.1066 -0.1750
H5D H -0.0906 -0.0104 -0.1881
H6D H -0.1588 0.1003 -0.1649
C9D C 0.1545(12) -0.1168(10) -0.1566(6)
H7D H 0.1976 -0.0474 -0.1585
C10D C 0.1597(12) -0.2102(10) -0.2003(6)
H8D H 0.2082 -0.2161 -0.2379
C11D C 0.0319(11) -0.2518(10) -0.1259(6)
H9D H -0.0254 -0.2912 -0.1020
O1A O 0.1419(8) 0.4704(6) 0.2123(4)
U1D U 0.0000 -0.47935(5) -0.2500
U1F U 0.5000 1.02065(5) 0.7500
O2A O -0.1049(9) 0.5081(7) 0.1162(4)
O3A O -0.0947(8) 0.6604(7) 0.1892(4)
N1A N 0.0828(9) 0.2952(8) 0.3191(5)
loop_
_geom_bond_atom_site_label_1
_geom_bond_atom_site_label_2
_geom_bond_site_symmetry_1
_geom_bond_site_symmetry_2
U1 O1 1_555 1_555
O2 U1 1_555 1_555
O3 U1 1_555 1_555
N1 U1 1_555 1_555
N2 C5 1_555 1_555
C1 C2 1_555 1_555
C2 H1 1_555 1_555
C3 C1 1_555 1_555
H2 C3 1_555 1_555
C4 O2 1_555 1_555
C5 C6 1_555 1_555
C6 H3 1_555 1_555
C7 C5 1_555 1_555
C8 C7 1_555 1_555
H4 C8 1_555 1_555
H5 C8 1_555 1_555
H6 C8 1_555 1_555
C9 N2 1_555 1_555
H7 C9 1_555 1_555
C10 N1 1_555 1_555
H8 C10 1_555 1_555
C11 N1 1_555 1_555
H9 C11 1_555 1_555
O2F C4F 1_555 1_555
O3F C4F 1_555 1_555
C1F C2F 1_555 1_555
C2F C3 1_555 1_555
H1F C2F 1_555 1_555
C3F C2 1_555 1_555
H2F C3F 1_555 1_555
C4F C1F 1_555 1_555
N1D C10D 1_555 1_555
N2D C5D 1_555 1_555
C5D C6D 1_555 1_555
C6D C7 1_555 1_555
H3D C6D 1_555 1_555
C7D C6 1_555 1_555
C8D C7D 1_555 1_555
H4D C8D 1_555 1_555
H5D C8D 1_555 1_555
H6D C8D 1_555 1_555
C9D N2D 1_555 1_555
H7D C9D 1_555 1_555
C10D C9D 1_555 1_555
H8D C10D 1_555 1_555
C11D N1D 1_555 1_555
H9D C11D 1_555 1_555
O1A U1 1_555 1_555
U1D N1D 1_555 1_555
U1F O2F 1_555 1_555
O2A U1 1_555 1_555
O3A U1 1_555 1_555
N1A U1 1_555 1_555
O3 C4 1_555 1_555
N2 C11 1_555 1_555
C1 C4 1_555 1_555
C9 C10 1_555 1_555
O3F U1F 1_555 1_555
C1F C3F 1_555 1_555
N2D C11D 1_555 1_555
C5D C7D 1_555 1_555

#END
