
#######################################################################
#
#                 Cambridge Crystallographic Data Centre
#                                CCDC 
#
#######################################################################
#
# If this CIF has been generated from an entry in the Cambridge 
# Structural Database, then it will include bibliographic, chemical, 
# crystal, experimental, refinement or atomic coordinate data resulting 
# from the CCDC's data processing and validation procedures.
#
#######################################################################

data_UHOKIL
_symmetry_cell_setting           monoclinic
_symmetry_space_group_name_H-M   'C 2/m'
_symmetry_Int_Tables_number      12
_space_group_name_Hall           '-C 2y'
loop_
_symmetry_equiv_pos_site_id
_symmetry_equiv_pos_as_xyz
1 x,y,z
2 x,-y,z
3 1/2+x,1/2+y,z
4 1/2+x,1/2-y,z
5 -x,-y,-z
6 -x,y,-z
7 1/2-x,1/2-y,-z
8 1/2-x,1/2+y,-z
_cell_length_a                   11.312(1)
_cell_length_b                   12.0984(8)
_cell_length_c                   7.5450(7)
_cell_angle_alpha                90
_cell_angle_beta                 130.837(3)
_cell_angle_gamma                90
_cell_volume                     781.227
loop_
_atom_site_label
_atom_site_type_symbol
_atom_site_fract_x
_atom_site_fract_y
_atom_site_fract_z
Fe1 Fe 0.7500 0.2500 0.5000
N1 N 0.7411(3) 0.0982(2) 0.3282(4)
N2 N 0.6342(3) 0.1653(2) 0.6002(4)
N3 N 0.5000 0.1669(3) 0.5000
N4 N 0.9671(3) 0.1906(2) 0.8161(4)
N5 N 1.0000 0.1912(3) 1.0000
C1 C 0.7452(5) 0.0000 0.4107(7)
C2 C 0.7328(3) 0.0972(2) 0.1419(5)
C3 C 0.7261(6) 0.0000 0.0411(8)
H1 H 0.750(5) 0.0000 0.556(8)
H2 H 0.727(4) 0.169(3) 0.058(6)
H3 H 0.724(5) 0.0000 -0.059(7)
N1A N 0.7411(3) -0.0982(2) 0.3282(4)
C2A C 0.7328(3) -0.0972(2) 0.1419(5)
H2A H 0.727(4) -0.169(3) 0.058(6)
N2E N 0.3658(3) 0.1653(2) 0.3998(4)
N4E N 1.0329(3) 0.1906(2) 1.1839(4)
N1F N 0.7589(3) 0.4018(2) 0.6718(4)
N2F N 0.8658(3) 0.3347(2) 0.3998(4)
N4F N 0.5329(3) 0.3094(2) 0.1839(4)
Fe1A Fe 0.7500 -0.2500 0.5000
Fe1C Fe 0.2500 0.2500 0.5000
Fe1C_2 Fe 1.2500 0.2500 1.5000
loop_
_geom_bond_atom_site_label_1
_geom_bond_atom_site_label_2
_geom_bond_site_symmetry_1
_geom_bond_site_symmetry_2
Fe1 N1 1_555 1_555
N1 C1 1_555 1_555
N2 Fe1 1_555 1_555
N3 N2 1_555 1_555
N4 Fe1 1_555 1_555
N5 N4 1_555 1_555
C1 H1 1_555 1_555
C2 N1 1_555 1_555
C3 C2 1_555 1_555
H2 C2 1_555 1_555
H3 C3 1_555 1_555
N1A C1 1_555 1_555
C2A C3 1_555 1_555
H2A C2A 1_555 1_555
N2E N3 1_555 1_555
N4E N5 1_555 1_555
N1F Fe1 1_555 1_555
N2F Fe1 1_555 1_555
N4F Fe1 1_555 1_555
Fe1A N1A 1_555 1_555
Fe1C N2E 1_555 1_555
Fe1C_2 N4E 1_555 1_555
N1A C2A 1_555 1_555

#END
