
#######################################################################
#
#                 Cambridge Crystallographic Data Centre
#                                CCDC 
#
#######################################################################
#
# If this CIF has been generated from an entry in the Cambridge 
# Structural Database, then it will include bibliographic, chemical, 
# crystal, experimental, refinement or atomic coordinate data resulting 
# from the CCDC's data processing and validation procedures.
#
#######################################################################

data_UHOLOT
_symmetry_cell_setting           triclinic
_symmetry_space_group_name_H-M   'P -1'
_symmetry_Int_Tables_number      2
_space_group_name_Hall           '-P 1'
loop_
_symmetry_equiv_pos_site_id
_symmetry_equiv_pos_as_xyz
1 x,y,z
2 -x,-y,-z
_cell_length_a                   7.8784(19)
_cell_length_b                   8.0300(18)
_cell_length_c                   14.186(3)
_cell_angle_alpha                105.900(15)
_cell_angle_beta                 93.214(18)
_cell_angle_gamma                96.948(19)
_cell_volume                     853.034
loop_
_atom_site_label
_atom_site_type_symbol
_atom_site_fract_x
_atom_site_fract_y
_atom_site_fract_z
Cu1 Cu 0.25979(8) 1.09610(9) 0.83721(5)
V1 V -0.10943(11) 0.75676(12) 0.94254(7)
V2 V 0.54974(12) 1.48599(12) 0.84109(7)
Te1 Te 0.32914(4) 0.83165(4) 0.98770(2)
C1 C 0.0765(8) 1.3576(9) 0.7733(4)
H1 H 0.0545 1.4012 0.8385
C2 C 0.0282(10) 1.4421(9) 0.7041(6)
H2 H -0.0273 1.5401 0.7236
C3 C 0.0619(8) 1.3816(9) 0.6071(5)
H3 H 0.0318 1.4392 0.5613
C4 C 0.1429(7) 1.2305(8) 0.5790(4)
C5 C 0.1790(8) 1.1527(8) 0.4801(5)
C6 C 0.1758(12) 1.1499(12) 0.3200(6)
H4 H 0.1513 1.2004 0.2701
C7 C 0.2463(11) 1.0002(11) 0.2973(6)
H5 H 0.2662 0.9504 0.2322
C8 C 0.2538(7) 0.9963(7) 0.4574(4)
C9 C 0.2960(7) 0.9142(8) 0.5327(4)
C10 C 0.3644(8) 0.7572(8) 0.5152(4)
H6 H 0.3856 0.6975 0.4518
C11 C 0.3996(10) 0.6928(9) 0.5929(5)
H7 H 0.4430 0.5871 0.5820
C12 C 0.3709(9) 0.7843(8) 0.6892(5)
H8 H 0.3986 0.7402 0.7414
C13 C 0.2655(7) 0.9969(8) 0.6295(4)
C14 C 0.1862(7) 1.1529(7) 0.6519(4)
N1 N 0.1533(6) 1.2166(6) 0.7470(4)
N2 N 0.3045(6) 0.9338(6) 0.7063(3)
N3 N 0.1406(9) 1.2267(9) 0.4088(5)
N4 N 0.2881(7) 0.9214(8) 0.3650(4)
O1 O 0.1090(5) 0.7596(6) 0.9104(3)
O2 O 0.3960(5) 0.9998(5) 0.9230(3)
O3 O 0.4274(5) 0.6572(6) 0.8997(4)
O4 O 0.1165(6) 1.2023(6) 0.9372(3)
O5 O -0.1972(6) 0.9064(6) 0.9074(3)
O6 O -0.2247(6) 0.5479(6) 0.8824(5)
O7 O 0.5209(8) 1.4557(8) 0.7246(4)
O8 O 0.4851(6) 1.3018(5) 0.8646(4)
Cu1A Cu 0.74021(8) 0.90390(9) 1.16279(5)
Cu1A_2 Cu -0.25979(8) 0.90390(9) 1.16279(5)
V1A V 1.10943(11) 1.24324(12) 1.05746(7)
V1A_2 V 0.10943(11) 1.24324(12) 1.05746(7)
V1_2 V 0.89057(11) 1.75676(12) 0.94254(7)
V2_2 V 0.54974(12) 0.48599(12) 0.84109(7)
V2_3 V -0.45026(12) 0.48599(12) 0.84109(7)
V2A V 0.45026(12) 1.51401(12) 1.15891(7)
V2A_2 V 0.45026(12) 0.51401(12) 1.15891(7)
Te1A Te 0.67086(4) 1.16835(4) 1.01230(2)
C1A C 0.9235(8) 0.6424(9) 1.2267(4)
H1A H 0.9455 0.5988 1.1615
C2A C 0.9718(10) 0.5579(9) 1.2959(6)
H2A H 1.0273 0.4599 1.2764
C3A C 0.9381(8) 0.6184(9) 1.3929(5)
H3A H 0.9682 0.5608 1.4387
C4A C 0.8571(7) 0.7695(8) 1.4210(4)
C5A C 0.8210(8) 0.8473(8) 1.5199(5)
C6A C 0.8242(12) 0.8501(12) 1.6800(6)
H4A H 0.8487 0.7996 1.7299
C7A C 0.7537(11) 0.9998(11) 1.7027(6)
H5A H 0.7338 1.0496 1.7678
C8A C 0.7462(7) 1.0037(7) 1.5426(4)
C9A C 0.7040(7) 1.0858(8) 1.4673(4)
C10A C 0.6356(8) 1.2428(8) 1.4848(4)
H6A H 0.6144 1.3025 1.5482
C11A C 0.6004(10) 1.3072(9) 1.4071(5)
H7A H 0.5570 1.4129 1.4180
C12A C 0.6291(9) 1.2157(8) 1.3108(5)
H8A H 0.6014 1.2598 1.2586
C13A C 0.7345(7) 1.0031(8) 1.3705(4)
C14A C 0.8138(7) 0.8471(7) 1.3481(4)
N1A N 0.8467(6) 0.7834(6) 1.2530(4)
N2A N 0.6955(6) 1.0662(6) 1.2937(3)
N3A N 0.8594(9) 0.7733(9) 1.5912(5)
N4A N 0.7119(7) 1.0786(8) 1.6350(4)
O1A O 0.8910(5) 1.2404(6) 1.0896(3)
O2A O 0.6040(5) 1.0002(5) 1.0770(3)
O3A O 0.5726(5) 1.3428(6) 1.1003(4)
O3_2 O 0.4274(5) 1.6572(6) 0.8997(4)
O4A O -0.1165(6) 0.7977(6) 1.0628(3)
O4A_2 O 0.8835(6) 0.7977(6) 1.0628(3)
O4_2 O 1.1165(6) 1.2023(6) 0.9372(3)
O5A O 1.1972(6) 1.0936(6) 1.0926(3)
O6_2 O 0.7753(6) 1.5479(6) 0.8824(5)
O6A O 1.2247(6) 1.4521(6) 1.1176(5)
O6_3 O 0.7753(6) 0.5479(6) 0.8824(5)
O7_2 O 0.5209(8) 0.4557(8) 0.7246(4)
O8A O 0.5149(6) 0.6982(5) 1.1354(4)
O8_2 O 0.4851(6) 0.3018(5) 0.8646(4)
loop_
_geom_bond_atom_site_label_1
_geom_bond_atom_site_label_2
_geom_bond_site_symmetry_1
_geom_bond_site_symmetry_2
Cu1 N1 1_555 1_555
V1 O1 1_555 1_555
V2 O7 1_555 1_555
Te1 O1 1_555 1_555
C1 H1 1_555 1_555
C2 C1 1_555 1_555
H2 C2 1_555 1_555
C3 C2 1_555 1_555
H3 C3 1_555 1_555
C4 C3 1_555 1_555
C5 C4 1_555 1_555
C6 H4 1_555 1_555
C7 C6 1_555 1_555
H5 C7 1_555 1_555
C8 C5 1_555 1_555
C9 C8 1_555 1_555
C10 C9 1_555 1_555
H6 C10 1_555 1_555
C11 C10 1_555 1_555
H7 C11 1_555 1_555
C12 C11 1_555 1_555
H8 C12 1_555 1_555
C13 C9 1_555 1_555
C14 C4 1_555 1_555
N1 C1 1_555 1_555
N2 Cu1 1_555 1_555
N3 C5 1_555 1_555
N4 C7 1_555 1_555
O2 Cu1 1_555 1_555
O3 Te1 1_555 1_555
O4 Cu1 1_555 1_555
O5 V1 1_555 1_555
O6 V1 1_555 1_555
O8 Cu1 1_555 1_555
Cu1A N1A 1_555 1_555
Cu1A_2 O4A 1_555 1_555
V1A O1A 1_555 1_555
V1A_2 O4 1_555 1_555
V1_2 O6_2 1_555 1_555
V2_2 O3 1_555 1_555
V2_3 O6 1_555 1_555
V2A O3A 1_555 1_555
V2A_2 O8A 1_555 1_555
Te1A O2 1_555 1_555
C1A H1A 1_555 1_555
C2A C1A 1_555 1_555
H2A C2A 1_555 1_555
C3A C2A 1_555 1_555
H3A C3A 1_555 1_555
C4A C3A 1_555 1_555
C5A C4A 1_555 1_555
C6A H4A 1_555 1_555
C7A C6A 1_555 1_555
H5A C7A 1_555 1_555
C8A C5A 1_555 1_555
C9A C8A 1_555 1_555
C10A C9A 1_555 1_555
H6A C10A 1_555 1_555
C11A C10A 1_555 1_555
H7A C11A 1_555 1_555
C12A C11A 1_555 1_555
H8A C12A 1_555 1_555
C13A C9A 1_555 1_555
C14A C4A 1_555 1_555
N1A C1A 1_555 1_555
N2A Cu1A 1_555 1_555
N3A C5A 1_555 1_555
N4A C7A 1_555 1_555
O1A Te1A 1_555 1_555
O2A Te1 1_555 1_555
O3A Te1A 1_555 1_555
O3_2 V2 1_555 1_555
O4A V1 1_555 1_555
O4A_2 Cu1A 1_555 1_555
O4_2 V1A 1_555 1_555
O5A V1A 1_555 1_555
O6_2 V2 1_555 1_555
O6A V1A 1_555 1_555
O6_3 V2_2 1_555 1_555
O7_2 V2_2 1_555 1_555
O8A Cu1A 1_555 1_555
O8_2 V2_2 1_555 1_555
V2 O8 1_555 1_555
Te1 O2 1_555 1_555
C6 N3 1_555 1_555
C8 N4 1_555 1_555
C12 N2 1_555 1_555
C13 C14 1_555 1_555
C13 N2 1_555 1_555
C14 N1 1_555 1_555
Cu1A O2A 1_555 1_555
Te1A O2A 1_555 1_555
C6A N3A 1_555 1_555
C8A N4A 1_555 1_555
C12A N2A 1_555 1_555
C13A C14A 1_555 1_555
C13A N2A 1_555 1_555
C14A N1A 1_555 1_555

#END
