
#######################################################################
#
#                 Cambridge Crystallographic Data Centre
#                                CCDC 
#
#######################################################################
#
# If this CIF has been generated from an entry in the Cambridge 
# Structural Database, then it will include bibliographic, chemical, 
# crystal, experimental, refinement or atomic coordinate data resulting 
# from the CCDC's data processing and validation procedures.
#
#######################################################################

data_UHOLUZ
_symmetry_cell_setting           monoclinic
_symmetry_space_group_name_H-M   'P 21/c'
_symmetry_Int_Tables_number      14
_space_group_name_Hall           '-P 2ybc'
loop_
_symmetry_equiv_pos_site_id
_symmetry_equiv_pos_as_xyz
1 x,y,z
2 -x,1/2+y,1/2-z
3 -x,-y,-z
4 x,1/2-y,1/2+z
_cell_length_a                   8.0974(18)
_cell_length_b                   7.6594(17)
_cell_length_c                   35.248(8)
_cell_angle_alpha                90
_cell_angle_beta                 96.424(4)
_cell_angle_gamma                90
_cell_volume                     2172.4
loop_
_atom_site_label
_atom_site_type_symbol
_atom_site_fract_x
_atom_site_fract_y
_atom_site_fract_z
Cu1 Cu -0.11830(11) 0.17184(11) 0.16286(2)
V1 V 0.22509(14) 0.06705(15) 0.20709(3)
V2 V -0.34322(15) -0.44497(15) 0.18227(3)
Te1 Te 0.57245(5) 0.21084(6) 0.250310(11)
Te2 Te -0.10023(5) -0.13096(6) 0.225700(12)
C1 C -0.3104(10) -0.0103(10) 0.0974(2)
H1 H -0.3284 -0.1000 0.1142
C2 C -0.3750(11) -0.0248(10) 0.0592(2)
H2 H -0.4321 -0.1252 0.0506
C3 C -0.3548(10) 0.1079(10) 0.0343(2)
H3 H -0.3987 0.0988 0.0088
C4 C -0.2678(9) 0.2573(10) 0.04727(18)
C5 C -0.2403(9) 0.4090(9) 0.02359(18)
C6 C -0.2947(9) 0.5565(10) -0.03301(19)
C7 C -0.3731(10) 0.5686(11) -0.0710(2)
H4 H -0.4420 0.4790 -0.0811
C8 C -0.3481(11) 0.7088(12) -0.0921(2)
H5 H -0.3991 0.7148 -0.1171
C9 C -0.2454(11) 0.8486(11) -0.0774(2)
H6 H -0.2284 0.9440 -0.0928
C10 C -0.1724(11) 0.8437(10) -0.0411(2)
H7 H -0.1084 0.9377 -0.0314
C11 C -0.1925(9) 0.6966(10) -0.01785(19)
C12 C -0.1412(9) 0.5507(9) 0.03898(18)
C13 C -0.0619(9) 0.5424(9) 0.07844(18)
C14 C 0.0444(10) 0.6710(10) 0.0954(2)
H8 H 0.0670 0.7703 0.0817
C15 C 0.1152(11) 0.6509(10) 0.1322(2)
H9 H 0.1883 0.7346 0.1434
C16 C 0.0769(9) 0.5038(10) 0.15281(18)
H10 H 0.1251 0.4912 0.1779
C17 C -0.0950(8) 0.3999(9) 0.10095(18)
C18 C -0.1991(9) 0.2588(9) 0.08552(19)
N1 N -0.2245(8) 0.1277(8) 0.11015(15)
N2 N -0.0261(7) 0.3811(7) 0.13774(14)
N3 N -0.3164(8) 0.4117(8) -0.01181(15)
N4 N -0.1159(8) 0.6916(8) 0.01837(16)
O1 O -0.1988(6) -0.0471(6) 0.17947(13)
O2 O 0.0383(6) 0.1770(6) 0.20893(12)
O3 O 0.1230(6) -0.1572(6) 0.21565(13)
O4 O 0.2532(7) 0.0572(6) 0.16317(13)
O5 O 0.5869(6) 0.4516(6) 0.26374(12)
O6 O 0.5252(6) 0.1572(6) 0.30101(12)
O7 O 0.3564(5) 0.2616(5) 0.22701(12)
O8 O -0.1591(6) -0.3667(6) 0.21316(13)
O9 O -0.3436(7) -0.3959(7) 0.13787(13)
O10 O -0.3361(6) 0.3387(6) 0.18569(13)
V1A V 0.77491(14) 0.56705(15) 0.29291(3)
V2_2 V -0.34322(15) 0.55503(15) 0.18227(3)
V2A V 0.34322(15) 0.05503(15) 0.31773(3)
Te1A Te 0.42755(5) -0.28916(6) 0.249690(11)
Te1A_2 Te 0.42755(5) 0.71084(6) 0.249690(11)
O5A O 0.4131(6) -0.0484(6) 0.23626(12)
O5A_2 O 0.4131(6) 0.9516(6) 0.23626(12)
O6A O -0.5252(6) -0.3428(6) 0.19899(12)
O6A_2 O 0.4748(6) 0.6572(6) 0.19899(12)
O7A O 0.6436(5) 0.7616(5) 0.27299(12)
O10_2 O -0.3361(6) -0.6613(6) 0.18569(13)
loop_
_geom_bond_atom_site_label_1
_geom_bond_atom_site_label_2
_geom_bond_site_symmetry_1
_geom_bond_site_symmetry_2
Cu1 N1 1_555 1_555
V1 O2 1_555 1_555
V2 O8 1_555 1_555
Te1 O5 1_555 1_555
Te2 O1 1_555 1_555
C1 H1 1_555 1_555
C2 C1 1_555 1_555
H2 C2 1_555 1_555
C3 C2 1_555 1_555
H3 C3 1_555 1_555
C4 C3 1_555 1_555
C5 C4 1_555 1_555
C6 C7 1_555 1_555
C7 H4 1_555 1_555
C8 C7 1_555 1_555
H5 C8 1_555 1_555
C9 C8 1_555 1_555
H6 C9 1_555 1_555
C10 C9 1_555 1_555
H7 C10 1_555 1_555
C11 C6 1_555 1_555
C12 C5 1_555 1_555
C13 C12 1_555 1_555
C14 C13 1_555 1_555
H8 C14 1_555 1_555
C15 C14 1_555 1_555
H9 C15 1_555 1_555
C16 C15 1_555 1_555
H10 C16 1_555 1_555
C17 C13 1_555 1_555
C18 C4 1_555 1_555
N1 C1 1_555 1_555
N2 Cu1 1_555 1_555
N3 C5 1_555 1_555
N4 C11 1_555 1_555
O1 Cu1 1_555 1_555
O2 Cu1 1_555 1_555
O3 V1 1_555 1_555
O4 V1 1_555 1_555
O5 V1A 1_555 1_555
O6 Te1 1_555 1_555
O7 V1 1_555 1_555
O8 Te2 1_555 1_555
O9 V2 1_555 1_555
O10 Cu1 1_555 1_555
V1A O7A 1_555 1_555
V2_2 O10 1_555 1_555
V2A O6 1_555 1_555
Te1A O5A 1_555 1_555
Te1A_2 O5 1_555 1_555
O5A V1 1_555 1_555
O5A_2 Te1A_2 1_555 1_555
O6A V2 1_555 1_555
O6A_2 Te1A_2 1_555 1_555
O7A Te1A_2 1_555 1_555
O10_2 V2 1_555 1_555
Te1 O7 1_555 1_555
Te1 O5A 1_555 1_555
Te2 O3 1_555 1_555
C6 N3 1_555 1_555
C10 C11 1_555 1_555
C12 N4 1_555 1_555
C16 N2 1_555 1_555
C17 C18 1_555 1_555
C17 N2 1_555 1_555
C18 N1 1_555 1_555

#END
