
#######################################################################
#
#                 Cambridge Crystallographic Data Centre
#                                CCDC 
#
#######################################################################
#
# If this CIF has been generated from an entry in the Cambridge 
# Structural Database, then it will include bibliographic, chemical, 
# crystal, experimental, refinement or atomic coordinate data resulting 
# from the CCDC's data processing and validation procedures.
#
#######################################################################

data_UHOMOV
_symmetry_cell_setting           triclinic
_symmetry_space_group_name_H-M   'P 1'
_symmetry_Int_Tables_number      1
_space_group_name_Hall           'P 1'
loop_
_symmetry_equiv_pos_site_id
_symmetry_equiv_pos_as_xyz
1 x,y,z
_cell_length_a                   5.737(4)
_cell_length_b                   9.220(6)
_cell_length_c                   11.957(8)
_cell_angle_alpha                79.343(16)
_cell_angle_beta                 85.956(13)
_cell_angle_gamma                88.690(19)
_cell_volume                     619.98
loop_
_atom_site_label
_atom_site_type_symbol
_atom_site_fract_x
_atom_site_fract_y
_atom_site_fract_z
Zn1 Zn -0.02081(4) -1.50192(3) 0.12129(3)
S1 S 0.63446(12) -1.75474(8) -0.23372(7)
C1 C 0.1139(6) -1.2548(4) -0.0823(3)
H1 H 0.2395 -1.2503 -0.0380
C2 C 0.1084(6) -1.1586(4) -0.1852(3)
H2 H 0.2267 -1.0900 -0.2081
C3 C -0.0723(6) -1.1644(4) -0.2540(3)
C4 C -0.2414(6) -1.2685(4) -0.2136(3)
H3 H -0.3663 -1.2773 -0.2573
C5 C -0.2271(6) -1.3593(4) -0.1094(3)
H4 H -0.3450 -1.4275 -0.0842
C6 C -0.0850(6) -1.0691(4) -0.3658(3)
H5 H -0.2105 -1.0823 -0.4080
C7 C 0.0670(6) -0.9660(4) -0.4118(3)
H6 H 0.1948 -0.9553 -0.3704
C8 C 0.0528(6) -0.8665(4) -0.5222(3)
C9 C 0.2010(6) -0.7476(4) -0.5500(3)
H7 H 0.3147 -0.7349 -0.5010
C10 C 0.1813(6) -0.6474(4) -0.6503(3)
H8 H 0.2799 -0.5665 -0.6656
C11 C -0.1045(7) -0.7789(4) -0.7008(3)
H9 H -0.2091 -0.7927 -0.7538
C12 C -0.0991(8) -0.8818(4) -0.6026(3)
H10 H -0.1988 -0.9621 -0.5903
C13 C 0.1883(5) -1.6789(3) 0.0080(2)
C14 C 0.3101(4) -1.7889(3) -0.0581(2)
H11 H 0.2132 -1.7975 -0.1209
C15 C 0.3299(5) -1.9422(3) 0.0146(3)
H12 H 0.1748 -1.9742 0.0456
H13 H 0.3881 -2.0101 -0.0342
C16 C 0.4871(6) -1.9524(3) 0.1119(3)
H14 H 0.3966 -1.9272 0.1774
H15 H 0.6099 -1.8801 0.0901
C17 C 0.5981(5) -2.1031(3) 0.1466(3)
C18 C 0.5594(5) -1.5932(4) -0.3289(3)
C19 C 0.3462(6) -1.5252(4) -0.3171(3)
H16 H 0.2414 -1.5594 -0.2554
C20 C 0.2895(6) -1.4042(4) -0.3989(3)
H17 H 0.1454 -1.3577 -0.3909
C21 C 0.4376(6) -1.3522(4) -0.4899(3)
C22 C 0.6507(7) -1.4230(5) -0.5006(3)
H18 H 0.7553 -1.3887 -0.5623
C23 C 0.7100(6) -1.5432(4) -0.4214(3)
H19 H 0.8527 -1.5909 -0.4306
C24 C 0.3731(8) -1.2201(4) -0.5770(3)
H20 H 0.2196 -1.1856 -0.5565
H21 H 0.3744 -1.2475 -0.6507
H22 H 0.4840 -1.1430 -0.5794
N1 N -0.0523(5) -1.3541(3) -0.0430(2)
N2 N 0.0295(5) -0.6613(3) -0.7251(2)
N3 N 0.5382(4) -1.7332(3) -0.1093(2)
H23 H 0.6231 -1.6874 -0.0708
O1 O -0.0295(3) -1.6879(2) 0.02723(17)
O2 O 0.3055(3) -1.5857(2) 0.04381(16)
O3 O 0.7869(4) -2.1092(2) 0.1923(2)
O4 O 0.4929(3) -2.2142(2) 0.12845(17)
O5 O 0.5115(3) -1.8732(2) -0.26438(18)
O6 O 0.8846(3) -1.7602(2) -0.23506(18)
O7 O -0.3664(3) -1.4877(2) 0.16554(16)
H24 H -0.4429 -1.5343 0.1254
H25 H -0.4105 -1.3978 0.1529
O8 O 0.0714(3) -1.3331(2) 0.19662(17)
H26 H -0.0307 -1.2643 0.1878
H27 H 0.2027 -1.2983 0.1677
Zn1_2 Zn -0.02081(4) -0.50192(3) -0.87871(3)
N2_2 N 0.0295(5) -1.6613(3) 0.2749(2)
loop_
_geom_bond_atom_site_label_1
_geom_bond_atom_site_label_2
_geom_bond_site_symmetry_1
_geom_bond_site_symmetry_2
Zn1 N1 1_555 1_555
S1 C18 1_555 1_555
C1 H1 1_555 1_555
C2 C1 1_555 1_555
H2 C2 1_555 1_555
C3 C2 1_555 1_555
C4 C3 1_555 1_555
H3 C4 1_555 1_555
C5 C4 1_555 1_555
H4 C5 1_555 1_555
C6 C3 1_555 1_555
H5 C6 1_555 1_555
C7 C6 1_555 1_555
H6 C7 1_555 1_555
C8 C7 1_555 1_555
C9 C8 1_555 1_555
H7 C9 1_555 1_555
C10 C9 1_555 1_555
H8 C10 1_555 1_555
C11 H9 1_555 1_555
C12 C8 1_555 1_555
H10 C12 1_555 1_555
C13 C14 1_555 1_555
C14 H11 1_555 1_555
C15 C14 1_555 1_555
H12 C15 1_555 1_555
H13 C15 1_555 1_555
C16 C15 1_555 1_555
H14 C16 1_555 1_555
H15 C16 1_555 1_555
C17 C16 1_555 1_555
C18 C19 1_555 1_555
C19 H16 1_555 1_555
C20 C19 1_555 1_555
H17 C20 1_555 1_555
C21 C20 1_555 1_555
C22 C21 1_555 1_555
H18 C22 1_555 1_555
C23 C18 1_555 1_555
H19 C23 1_555 1_555
C24 C21 1_555 1_555
H20 C24 1_555 1_555
H21 C24 1_555 1_555
H22 C24 1_555 1_555
N1 C1 1_555 1_555
N2 C10 1_555 1_555
N3 S1 1_555 1_555
H23 N3 1_555 1_555
O1 Zn1 1_555 1_555
O2 Zn1 1_555 1_555
O3 C17 1_555 1_555
O4 C17 1_555 1_555
O5 S1 1_555 1_555
O6 S1 1_555 1_555
O7 Zn1 1_555 1_555
H24 O7 1_555 1_555
H25 O7 1_555 1_555
O8 Zn1 1_555 1_555
H26 O8 1_555 1_555
H27 O8 1_555 1_555
Zn1_2 N2 1_555 1_555
N2_2 Zn1 1_555 1_555
C5 N1 1_555 1_555
C11 C12 1_555 1_555
C11 N2 1_555 1_555
C13 O1 1_555 1_555
C13 O2 1_555 1_555
C14 N3 1_555 1_555
C22 C23 1_555 1_555

#END
