
#######################################################################
#
#                 Cambridge Crystallographic Data Centre
#                                CCDC 
#
#######################################################################
#
# If this CIF has been generated from an entry in the Cambridge 
# Structural Database, then it will include bibliographic, chemical, 
# crystal, experimental, refinement or atomic coordinate data resulting 
# from the CCDC's data processing and validation procedures.
#
#######################################################################

data_UHOMEL
_symmetry_cell_setting           orthorhombic
_symmetry_space_group_name_H-M   'P 21 21 2'
_symmetry_Int_Tables_number      18
_space_group_name_Hall           'P 2 2ab'
loop_
_symmetry_equiv_pos_site_id
_symmetry_equiv_pos_as_xyz
1 x,y,z
2 -x,-y,z
3 1/2-x,1/2+y,-z
4 1/2+x,1/2-y,-z
_cell_length_a                   17.655(7)
_cell_length_b                   21.733(8)
_cell_length_c                   5.626(2)
_cell_angle_alpha                90
_cell_angle_beta                 90
_cell_angle_gamma                90
_cell_volume                     2158.67
loop_
_atom_site_label
_atom_site_type_symbol
_atom_site_fract_x
_atom_site_fract_y
_atom_site_fract_z
Zn1 Zn 0.82758(2) 0.295947(18) 0.15468(7)
C1 C 0.8605(2) 0.3818(2) -0.2436(8)
H1 H 0.8970 0.3525 -0.2816
C2 C 0.8521(2) 0.43181(19) -0.3905(9)
H2 H 0.8835 0.4365 -0.5220
C3 C 0.7663(2) 0.41647(18) 0.0052(8)
H3 H 0.7378 0.4120 0.1434
C4 C 0.7535(2) 0.46677(18) -0.1371(10)
H4 H 0.7162 0.4952 -0.0973
C5 C 0.7973(2) 0.47493(17) -0.3436(9)
C6 C 0.7867(3) 0.52639(19) -0.5072(9)
H5 H 0.8228 0.5318 -0.6258
C7 C 0.7306(3) 0.5653(2) -0.4999(10)
H6 H 0.6946 0.5594 -0.3813
C8 C 0.7187(3) 0.61804(19) -0.6624(10)
C9 C 0.7640(2) 0.63061(19) -0.8612(10)
H7 H 0.8041 0.6047 -0.8994
C10 C 0.7490(2) 0.68140(18) -1.0001(9)
H8 H 0.7801 0.6895 -1.1297
C11 C 0.6603(3) 0.6581(2) -0.6153(10)
H9 H 0.6292 0.6517 -0.4841
C12 C 0.6477(3) 0.7082(2) -0.7644(9)
H10 H 0.6078 0.7346 -0.7303
C13 C 0.98005(19) 0.28692(16) 0.2009(6)
C14 C 1.05614(19) 0.27543(17) 0.3192(7)
H11 H 1.0962 0.2882 0.2090
C15 C 1.06316(19) 0.20520(17) 0.3594(8)
H12 H 1.0370 0.1945 0.5053
H13 H 1.0379 0.1840 0.2300
C16 C 1.1438(2) 0.1825(2) 0.3749(8)
H14 H 1.1725 0.2013 0.2470
H15 H 1.1438 0.1384 0.3476
C17 C 1.1851(2) 0.19490(16) 0.6066(7)
C18 C 1.0591(2) 0.37086(18) 0.5382(8)
N1 N 0.81837(18) 0.37334(13) -0.0474(6)
N2 N 0.69084(18) 0.71967(13) -0.9546(6)
N3 N 1.06606(18) 0.30870(15) 0.5391(6)
H16 H 1.0763 0.2894 0.6687
N4 N 1.0594(2) 0.39816(17) 0.7540(8)
H17 H 1.0577 0.4376 0.7646
H18 H 1.0613 0.3761 0.8807
O1 O 0.92215(13) 0.29063(13) 0.3374(5)
O2 O 0.97694(16) 0.28949(16) -0.0175(5)
O3 O 1.25646(15) 0.20149(16) 0.5836(6)
O4 O 1.15180(18) 0.19541(19) 0.7963(5)
O5 O 1.05641(19) 0.39972(13) 0.3481(7)
Zn1B Zn 0.67242(2) 0.795947(18) -1.15468(7)
Zn1C Zn 1.32758(2) 0.204053(18) 0.84532(7)
N2B N 0.80916(18) 0.21967(13) -0.0454(6)
O3C O 0.75646(15) 0.29851(16) 0.4164(6)
O6 O 1.0525(7) 0.0931(5) 0.858(2)
H19 H 1.0858 0.1165 0.7976
H20 H 1.0733 0.0592 0.8963
O7 O 1.0000 0.5000 0.0899(14)
H21 H 1.0162 0.4711 0.1781
H21A H 0.9838 0.5289 0.1781
loop_
_geom_bond_atom_site_label_1
_geom_bond_atom_site_label_2
_geom_bond_site_symmetry_1
_geom_bond_site_symmetry_2
Zn1 N1 1_555 1_555
C1 H1 1_555 1_555
C2 C1 1_555 1_555
H2 C2 1_555 1_555
C3 H3 1_555 1_555
C4 C3 1_555 1_555
H4 C4 1_555 1_555
C5 C2 1_555 1_555
C6 C5 1_555 1_555
H5 C6 1_555 1_555
C7 C6 1_555 1_555
H6 C7 1_555 1_555
C8 C7 1_555 1_555
C9 C8 1_555 1_555
H7 C9 1_555 1_555
C10 C9 1_555 1_555
H8 C10 1_555 1_555
C11 C8 1_555 1_555
H9 C11 1_555 1_555
C12 C11 1_555 1_555
H10 C12 1_555 1_555
C13 C14 1_555 1_555
C14 H11 1_555 1_555
C15 C14 1_555 1_555
H12 C15 1_555 1_555
H13 C15 1_555 1_555
C16 C15 1_555 1_555
H14 C16 1_555 1_555
H15 C16 1_555 1_555
C17 C16 1_555 1_555
C18 N3 1_555 1_555
N1 C1 1_555 1_555
N2 C10 1_555 1_555
N3 C14 1_555 1_555
H16 N3 1_555 1_555
N4 C18 1_555 1_555
H17 N4 1_555 1_555
H18 N4 1_555 1_555
O1 Zn1 1_555 1_555
O2 C13 1_555 1_555
O3 C17 1_555 1_555
O4 C17 1_555 1_555
O5 C18 1_555 1_555
O6 H19 1_555 1_555
H20 O6 1_555 1_555
O7 H21 1_555 1_555
Zn1B N2 1_555 1_555
Zn1C O3 1_555 1_555
N2B Zn1 1_555 1_555
O3C Zn1 1_555 1_555
H21A O7 1_555 1_555
C3 N1 1_555 1_555
C4 C5 1_555 1_555
C12 N2 1_555 1_555
C13 O1 1_555 1_555

#END
