
#######################################################################
#
#                 Cambridge Crystallographic Data Centre
#                                CCDC 
#
#######################################################################
#
# If this CIF has been generated from an entry in the Cambridge 
# Structural Database, then it will include bibliographic, chemical, 
# crystal, experimental, refinement or atomic coordinate data resulting 
# from the CCDC's data processing and validation procedures.
#
#######################################################################

data_UHOPUC
_symmetry_cell_setting           trigonal
_symmetry_space_group_name_H-M   'P 3 2 1'
_symmetry_Int_Tables_number      150
_space_group_name_Hall           'P 3 2"'
loop_
_symmetry_equiv_pos_site_id
_symmetry_equiv_pos_as_xyz
1 x,y,z
2 -y,x-y,z
3 y,x,-z
4 -x+y,-x,z
5 -x,-x+y,-z
6 x-y,-y,-z
_cell_length_a                   20.9415(6)
_cell_length_b                   20.9415(6)
_cell_length_c                   15.4720(6)
_cell_angle_alpha                90
_cell_angle_beta                 90
_cell_angle_gamma                120
_cell_volume                     5876.15
loop_
_atom_site_label
_atom_site_type_symbol
_atom_site_fract_x
_atom_site_fract_y
_atom_site_fract_z
Zn1 Zn 0.4179(1) 0.6460(1) 0.8903(1)
O1 O 0.3333 0.6667 0.8800(14)
O2 O 0.4639(4) 0.7080(4) 0.7746(7)
O3 O 0.4480(4) 0.8033(4) 0.8060(6)
O4 O 0.5152(8) 0.7545(9) 0.6230(9)
O5 O 0.4722(7) 0.8162(6) 0.5347(8)
O6 O 0.5117(6) 0.9500(6) 0.6192(9)
O7 O 0.3720(4) 0.5849(5) 1.0056(7)
O8 O 0.2517(4) 0.5145(3) 0.9695(6)
O9 O 0.3533(4) 0.5211(4) 1.1544(6)
O10 O 0.2555(4) 0.4967(5) 1.2392(7)
O11 O 0.1314(4) 0.3850(4) 1.1388(7)
N1 N 0.3911(7) 0.8888(5) 0.6591(9)
N2 N 0.3307(11) 1.0515(8) 0.6716(17)
N3 N 0.1143(4) 0.4844(4) 1.1203(7)
N4 N -0.1149(4) 0.3910(4) 1.1061(7)
C1 C 0.4686(6) 0.7686(6) 0.7580(10)
C2 C 0.5018(9) 0.7998(10) 0.6788(12)
C3 C 0.5166(11) 0.7762(11) 0.5340(16)
C4 C 0.4499(7) 0.8173(7) 0.6198(10)
C5 C 0.5893(18) 0.8310(20) 0.5010(20)
C6 C 0.4727(14) 0.7058(13) 0.4759(17)
C7 C 0.4561(12) 0.8954(9) 0.6311(11)
C8 C 0.3752(8) 0.9444(7) 0.6614(11)
C9 C 0.4291(12) 1.0199(8) 0.6441(15)
C10 C 0.3945(18) 1.0704(11) 0.6567(19)
C11 C 0.2793(15) 0.9822(15) 0.6841(19)
C12 C 0.3013(11) 0.9247(9) 0.6829(14)
C13 C 0.3055(6) 0.5334(6) 1.0163(8)
C14 C 0.2915(6) 0.4947(6) 1.0951(10)
C15 C 0.3272(6) 0.5020(7) 1.2404(10)
C16 C 0.2373(5) 0.5067(6) 1.1529(8)
C17 C 0.3776(8) 0.5622(9) 1.2986(12)
C18 C 0.3210(13) 0.4291(12) 1.2641(14)
C19 C 0.1548(6) 0.4515(6) 1.1374(9)
C20 C 0.0379(5) 0.4496(5) 1.1141(8)
C21 C -0.0079(6) 0.3748(7) 1.1126(8)
C22 C -0.0856(5) 0.3467(6) 1.1068(9)
C23 C -0.0663(6) 0.4636(6) 1.1104(9)
C24 C 0.0087(6) 0.4949(7) 1.1100(10)
O2C O 0.2441(6) 0.5361(4) 0.7746(7)
O3C O 0.3553(6) 0.5520(4) 0.8060(6)
O4C O 0.2393(12) 0.4848(8) 0.6230(9)
O5C O 0.3440(9) 0.5278(7) 0.5347(8)
O6C O 0.4383(8) 0.4883(6) 0.6192(9)
N1C N 0.4977(9) 0.6089(7) 0.6591(9)
N2C N 0.7208(14) 0.6693(11) 0.6716(17)
C1C C 0.3000(8) 0.5314(6) 0.7580(10)
C2C C 0.2980(13) 0.4982(9) 0.6788(12)
C3C C 0.2596(16) 0.4834(11) 0.5340(16)
C4C C 0.3674(10) 0.5501(7) 0.6198(10)
C5C C 0.2417(27) 0.4107(18) 0.5010(20)
C6C C 0.2331(19) 0.5273(14) 0.4759(17)
C7C C 0.4393(15) 0.5439(12) 0.6311(11)
C8C C 0.5692(11) 0.6248(8) 0.6614(11)
C9C C 0.5908(14) 0.5709(12) 0.6441(15)
C10C C 0.6759(21) 0.6055(18) 0.6567(19)
C11C C 0.7029(21) 0.7207(15) 0.6841(19)
C12C C 0.6234(14) 0.6987(11) 0.6829(14)
O7A O 0.4151(5) 0.7871(6) 1.0056(7)
O8A O 0.4855(3) 0.7372(5) 0.9695(6)
O9A O 0.4789(4) 0.8322(6) 1.1544(6)
O10A O 0.5033(5) 0.7588(6) 1.2392(7)
O11A O 0.6150(4) 0.7464(6) 1.1388(7)
N3A N 0.5156(4) 0.6299(6) 1.1203(7)
N4A N 0.6090(4) 0.4941(6) 1.1061(7)
C13A C 0.4666(6) 0.7721(8) 1.0163(8)
C14A C 0.5053(6) 0.7968(8) 1.0951(10)
C15A C 0.4980(7) 0.8252(9) 1.2404(10)
C16A C 0.4933(6) 0.7306(8) 1.1529(8)
C17A C 0.4378(9) 0.8154(12) 1.2986(12)
C18A C 0.5709(12) 0.8919(18) 1.2641(14)
C19A C 0.5485(6) 0.7033(8) 1.1374(9)
C20A C 0.5504(5) 0.5883(7) 1.1141(8)
C21A C 0.6252(7) 0.6173(9) 1.1126(8)
C22A C 0.6533(6) 0.5677(8) 1.1068(9)
C23A C 0.5364(6) 0.4701(8) 1.1104(9)
C24A C 0.5051(7) 0.5138(9) 1.1100(10)
Zn1C Zn 0.2281(1) 0.5821(1) 0.8903(1)
N4E N 0.4941(6) 0.6090(4) 0.8939(7)
Zn1A Zn 0.3540(1) 0.7719(1) 0.8903(1)
Zn1E Zn -0.2281(1) 0.3540(1) 1.1097(1)
Zn1B Zn 0.6460(1) 0.4179(1) 1.1097(1)
O3A O 0.1967(4) 0.6447(6) 0.8060(6)
O7C O 0.2129(6) 0.6280(4) 1.0056(7)
N4D N 0.1149(4) 0.5059(6) 0.8939(7)
O2A O 0.2920(4) 0.7559(6) 0.7746(7)
O8C O 0.2628(5) 0.7483(4) 0.9695(6)
N4B N 0.3910(4) 0.8851(4) 0.8939(7)
C13C C 0.2279(8) 0.6945(6) 1.0163(8)
C1A C 0.2314(6) 0.7000(8) 0.7580(10)
C14C C 0.2032(8) 0.7085(6) 1.0951(10)
C2A C 0.2002(10) 0.7020(13) 0.6788(12)
O9C O 0.1678(6) 0.6467(4) 1.1544(6)
C16C C 0.2694(8) 0.7627(5) 1.1529(8)
O4A O 0.2455(9) 0.7607(12) 0.6230(9)
C4A C 0.1827(7) 0.6326(10) 0.6198(10)
O10C O 0.2412(6) 0.7445(4) 1.2392(7)
C19C C 0.2967(8) 0.8452(6) 1.1374(9)
O5A O 0.1838(6) 0.6560(9) 0.5347(8)
C7A C 0.1046(9) 0.5607(15) 0.6311(11)
O11C O 0.2536(6) 0.8686(4) 1.1388(7)
N3C N 0.3701(6) 0.8857(4) 1.1203(7)
O6A O 0.0500(6) 0.5617(8) 0.6192(9)
N1A N 0.1112(5) 0.5023(9) 0.6591(9)
C20C C 0.4117(7) 0.9621(5) 1.1141(8)
C15C C 0.1748(9) 0.6728(6) 1.2404(10)
C17C C 0.1846(12) 0.6224(8) 1.2986(12)
C18C C 0.1081(18) 0.6790(13) 1.2641(14)
C21C C 0.3827(9) 1.0079(6) 1.1126(8)
C24C C 0.4862(9) 0.9913(6) 1.1100(10)
C23C C 0.5299(8) 1.0663(6) 1.1104(9)
C22C C 0.4323(8) 1.0856(5) 1.1068(9)
N4C N 0.5059(6) 1.1149(4) 1.1061(7)
Zn1D Zn 0.5821(1) 1.2281(1) 1.1097(1)
C8A C 0.0556(7) 0.4308(11) 0.6614(11)
C3A C 0.2238(11) 0.7404(16) 0.5340(16)
C5A C 0.1690(20) 0.7583(27) 0.5010(20)
C6A C 0.2942(13) 0.7669(19) 0.4759(17)
C9A C -0.0199(8) 0.4092(14) 0.6441(15)
C12A C 0.0753(9) 0.3766(14) 0.6829(14)
C11A C 0.0178(15) 0.2971(21) 0.6841(19)
C10A C -0.0704(11) 0.3241(21) 0.6567(19)
N2A N -0.0515(8) 0.2792(14) 0.6716(17)
O12 O -0.2470(20) 0.1340(20) 1.1190(20)
O13 O 0.0000 0.6549(19) 1.0000
O14 O 0.6234(18) 1.0000 0.5000
O15 O 0.2595(13) 1.1328(12) 0.6850(20)
loop_
_geom_bond_atom_site_label_1
_geom_bond_atom_site_label_2
_geom_bond_site_symmetry_1
_geom_bond_site_symmetry_2
Zn1 O1 1_555 1_555
O1 Zn1C 1_555 1_555
O2 Zn1 1_555 1_555
O3 C1 1_555 1_555
O4 C2 1_555 1_555
O5 C3 1_555 1_555
O6 C7 1_555 1_555
O7 Zn1 1_555 1_555
O8 C13 1_555 1_555
O9 C14 1_555 1_555
O10 C15 1_555 1_555
O11 C19 1_555 1_555
N1 C7 1_555 1_555
N2 C10 1_555 1_555
N3 C19 1_555 1_555
N4 C22 1_555 1_555
C1 O2 1_555 1_555
C2 C1 1_555 1_555
C3 O4 1_555 1_555
C4 O5 1_555 1_555
C5 C3 1_555 1_555
C6 C3 1_555 1_555
C7 C4 1_555 1_555
C8 N1 1_555 1_555
C9 C8 1_555 1_555
C10 C9 1_555 1_555
C11 N2 1_555 1_555
C12 C8 1_555 1_555
C13 O7 1_555 1_555
C14 C13 1_555 1_555
C15 O9 1_555 1_555
C16 O10 1_555 1_555
C17 C15 1_555 1_555
C18 C15 1_555 1_555
C19 C16 1_555 1_555
C20 N3 1_555 1_555
C21 C20 1_555 1_555
C22 C21 1_555 1_555
C23 N4 1_555 1_555
C24 C20 1_555 1_555
O2C C1C 1_555 1_555
O3C Zn1 1_555 1_555
O4C C2C 1_555 1_555
O5C C3C 1_555 1_555
O6C C7C 1_555 1_555
N1C C7C 1_555 1_555
N2C C10C 1_555 1_555
C1C O3C 1_555 1_555
C2C C1C 1_555 1_555
C3C O4C 1_555 1_555
C4C O5C 1_555 1_555
C5C C3C 1_555 1_555
C6C C3C 1_555 1_555
C7C C4C 1_555 1_555
C8C N1C 1_555 1_555
C9C C8C 1_555 1_555
C10C C9C 1_555 1_555
C11C N2C 1_555 1_555
C12C C8C 1_555 1_555
O7A C13A 1_555 1_555
O8A Zn1 1_555 1_555
O9A C14A 1_555 1_555
O10A C15A 1_555 1_555
O11A C19A 1_555 1_555
N3A C19A 1_555 1_555
N4A C22A 1_555 1_555
C13A O8A 1_555 1_555
C14A C13A 1_555 1_555
C15A O9A 1_555 1_555
C16A O10A 1_555 1_555
C17A C15A 1_555 1_555
C18A C15A 1_555 1_555
C19A C16A 1_555 1_555
C20A N3A 1_555 1_555
C21A C20A 1_555 1_555
C22A C21A 1_555 1_555
C23A N4A 1_555 1_555
C24A C20A 1_555 1_555
Zn1C O8 1_555 1_555
N4E Zn1 1_555 1_555
Zn1A O1 1_555 1_555
Zn1E N4 1_555 1_555
Zn1B N4A 1_555 1_555
O3A Zn1C 1_555 1_555
O7C Zn1C 1_555 1_555
N4D Zn1C 1_555 1_555
O2A Zn1A 1_555 1_555
O8C Zn1A 1_555 1_555
N4B Zn1A 1_555 1_555
C13C O7C 1_555 1_555
C1A O3A 1_555 1_555
C14C C13C 1_555 1_555
C2A C1A 1_555 1_555
O9C C14C 1_555 1_555
C16C C14C 1_555 1_555
O4A C2A 1_555 1_555
C4A C2A 1_555 1_555
O10C C16C 1_555 1_555
C19C C16C 1_555 1_555
O5A C4A 1_555 1_555
C7A C4A 1_555 1_555
O11C C19C 1_555 1_555
N3C C19C 1_555 1_555
O6A C7A 1_555 1_555
N1A C7A 1_555 1_555
C20C N3C 1_555 1_555
C15C O9C 1_555 1_555
C17C C15C 1_555 1_555
C18C C15C 1_555 1_555
C21C C20C 1_555 1_555
C24C C20C 1_555 1_555
C23C C24C 1_555 1_555
C22C C21C 1_555 1_555
N4C C23C 1_555 1_555
Zn1D N4C 1_555 1_555
C8A N1A 1_555 1_555
C3A O4A 1_555 1_555
C5A C3A 1_555 1_555
C6A C3A 1_555 1_555
C9A C8A 1_555 1_555
C12A C8A 1_555 1_555
C11A C12A 1_555 1_555
C10A C9A 1_555 1_555
N2A C11A 1_555 1_555
O3 Zn1A 1_555 1_555
C2 C4 1_555 1_555
C11 C12 1_555 1_555
C14 C16 1_555 1_555
C23 C24 1_555 1_555
O2C Zn1C 1_555 1_555
C2C C4C 1_555 1_555
C11C C12C 1_555 1_555
O7A Zn1A 1_555 1_555
C14A C16A 1_555 1_555
C23A C24A 1_555 1_555
O2A C1A 1_555 1_555
O8C C13C 1_555 1_555
O10C C15C 1_555 1_555
O5A C3A 1_555 1_555
C22C N4C 1_555 1_555
C10A N2A 1_555 1_555

#END
