
#######################################################################
#
#                 Cambridge Crystallographic Data Centre
#                                CCDC 
#
#######################################################################
#
# If this CIF has been generated from an entry in the Cambridge 
# Structural Database, then it will include bibliographic, chemical, 
# crystal, experimental, refinement or atomic coordinate data resulting 
# from the CCDC's data processing and validation procedures.
#
#######################################################################

data_UHOSIV
_symmetry_cell_setting           orthorhombic
_symmetry_space_group_name_H-M   'P 21 21 21'
_symmetry_Int_Tables_number      19
_space_group_name_Hall           'P 2ac 2ab'
loop_
_symmetry_equiv_pos_site_id
_symmetry_equiv_pos_as_xyz
1 x,y,z
2 1/2-x,-y,1/2+z
3 -x,1/2+y,1/2-z
4 1/2+x,1/2-y,-z
_cell_length_a                   14.2244(11)
_cell_length_b                   16.6521(13)
_cell_length_c                   16.6779(13)
_cell_angle_alpha                90
_cell_angle_beta                 90
_cell_angle_gamma                90
_cell_volume                     3950.43
loop_
_atom_site_label
_atom_site_type_symbol
_atom_site_fract_x
_atom_site_fract_y
_atom_site_fract_z
U1 U 0.74572(2) 0.98935(2) 0.29609(2)
P1 P 0.90750(16) 0.97032(16) 0.12571(13)
P2 P 1.08541(17) 0.58832(16) -0.12795(13)
P3 P 0.49975(16) 0.95776(17) 0.36827(14)
P4 P -0.00899(16) 1.02459(18) 0.35520(14)
O1 O 0.8381(5) 1.0090(4) 0.1818(4)
O2 O 1.0086(5) 0.9690(6) 0.1563(4)
H1 H 1.0418 0.9408 0.1256
O3 O 0.9028(5) 1.0146(5) 0.0444(3)
H2 H 0.8558 0.9986 0.0185
O4 O 0.9815(5) 0.5720(6) -0.1581(4)
H3 H 0.9600 0.5311 -0.1350
O5 O 1.0993(6) 0.5582(5) -0.0441(4)
O6 O 1.1521(5) 0.5565(5) -0.1892(4)
O7 O 0.6042(5) 0.9500(5) 0.3568(4)
O8 O 0.4442(5) 0.8956(5) 0.3153(4)
H4 H 0.4634 0.8982 0.2677
O9 O 0.4689(6) 0.9406(6) 0.4537(4)
O10 O -0.1111(5) 1.0456(5) 0.3438(4)
O11 O 0.0299(5) 0.9575(5) 0.3023(4)
O12 O 0.0112(6) 0.9948(6) 0.4430(4)
H5 H -0.0387 0.9966 0.4699
O13 O 0.7924(5) 0.8925(4) 0.3068(5)
O14 O 0.7002(5) 1.0881(4) 0.2863(5)
O15 O 0.7507(5) 1.0030(6) 0.4478(5)
C1 C 0.8671(8) 0.8702(7) 0.1069(7)
H6 H 0.8663 0.8406 0.1584
H7 H 0.8015 0.8730 0.0873
C2 C 0.9250(8) 0.8221(6) 0.0467(6)
C3 C 0.8879(9) 0.8054(8) -0.0283(8)
H8 H 0.8261 0.8225 -0.0417
C4 C 0.9428(9) 0.7629(7) -0.0846(7)
H9 H 0.9169 0.7520 -0.1359
C5 C 1.0333(8) 0.7363(7) -0.0676(7)
C6 C 1.0927(8) 0.6955(7) -0.1286(7)
H10 H 1.1590 0.7112 -0.1198
H11 H 1.0741 0.7150 -0.1824
C7 C 1.0683(9) 0.7519(7) 0.0098(7)
H12 H 1.1291 0.7335 0.0245
C8 C 1.0145(9) 0.7940(7) 0.0645(7)
H13 H 1.0398 0.8041 0.1163
C9 C 0.4642(7) 1.0564(7) 0.3367(8)
H14 H 0.4952 1.0965 0.3716
H15 H 0.4870 1.0653 0.2813
C10 C 0.3588(7) 1.0710(7) 0.3386(7)
C11 C 0.3141(8) 1.0967(8) 0.4068(7)
H16 H 0.3492 1.1046 0.4546
C12 C 0.2172(8) 1.1114(8) 0.4063(7)
H17 H 0.1874 1.1299 0.4538
C13 C 0.1640(7) 1.0994(7) 0.3375(7)
C14 C 0.0581(7) 1.1137(8) 0.3387(9)
H18 H 0.0390 1.1377 0.2868
H19 H 0.0432 1.1529 0.3814
C15 C 0.2092(8) 1.0757(9) 0.2692(7)
H20 H 0.1745 1.0696 0.2209
C16 C 0.3059(8) 1.0603(8) 0.2693(7)
H21 H 0.3357 1.0423 0.2216
U1_2 U -0.25428(2) 0.98935(2) 0.29609(2)
U1C U 1.24572(2) 0.51065(2) -0.29609(2)
O6C O 0.6521(5) 0.9435(5) 0.1892(4)
O10_2 O 0.8889(5) 1.0456(5) 0.3438(4)
N1 N 0.6864(7) 0.7490(6) 0.6022(6)
C17 C 0.6873(10) 0.7108(7) 0.5193(8)
H22 H 0.7500 0.6866 0.5107
H23 H 0.6408 0.6666 0.5190
C18 C 0.6664(14) 0.7649(11) 0.4499(9)
H24 H 0.7144 0.8079 0.4471
H25 H 0.6042 0.7904 0.4576
C19 C 0.6666(13) 0.7175(14) 0.3724(10)
H26 H 0.6315 0.6674 0.3799
H27 H 0.7315 0.7050 0.3571
H28 H 0.6368 0.7493 0.3300
C20 C 0.5926(9) 0.7873(7) 0.6181(9)
H29 H 0.5949 0.8138 0.6713
H30 H 0.5819 0.8296 0.5775
C21 C 0.5105(10) 0.7309(9) 0.6169(12)
H31 H 0.5182 0.6905 0.6600
H32 H 0.5093 0.7021 0.5650
C22 C 0.4177(10) 0.7749(11) 0.6286(13)
H33 H 0.4139 0.8198 0.5909
H34 H 0.4140 0.7953 0.6836
H35 H 0.3654 0.7378 0.6189
C23 C 0.7586(8) 0.8158(6) 0.6056(7)
H36 H 0.7430 0.8556 0.5636
H37 H 0.7527 0.8431 0.6581
C24 C 0.8590(10) 0.7913(10) 0.5948(12)
H38 H 0.8668 0.7637 0.5426
H39 H 0.8773 0.7534 0.6378
C25 C 0.9213(12) 0.8645(11) 0.5978(14)
H40 H 0.9294 0.8815 0.6536
H41 H 0.8921 0.9081 0.5671
H42 H 0.9827 0.8516 0.5745
C26 C 0.7084(8) 0.6838(7) 0.6637(7)
H43 H 0.7709 0.6608 0.6512
H44 H 0.6615 0.6402 0.6580
C27 C 0.7086(13) 0.7123(10) 0.7513(8)
H45 H 0.7555 0.7557 0.7581
H46 H 0.6460 0.7342 0.7653
C28 C 0.7319(11) 0.6436(10) 0.8059(9)
H47 H 0.7852 0.6135 0.7839
H48 H 0.6773 0.6081 0.8106
H49 H 0.7486 0.6644 0.8590
O16 O 0.1706(6) 1.0232(8) 0.0694(6)
O17 O 0.3607(6) 0.0008(8) 0.0674(6)
loop_
_geom_bond_atom_site_label_1
_geom_bond_atom_site_label_2
_geom_bond_site_symmetry_1
_geom_bond_site_symmetry_2
U1 O1 1_555 1_555
P1 O1 1_555 1_555
P2 O4 1_555 1_555
P3 O7 1_555 1_555
P4 O10 1_555 1_555
O2 P1 1_555 1_555
H1 O2 1_555 1_555
O3 P1 1_555 1_555
H2 O3 1_555 1_555
O4 H3 1_555 1_555
O5 P2 1_555 1_555
O6 P2 1_555 1_555
O7 U1 1_555 1_555
O8 P3 1_555 1_555
H4 O8 1_555 1_555
O9 P3 1_555 1_555
O10 U1_2 1_555 1_555
O11 P4 1_555 1_555
O12 P4 1_555 1_555
H5 O12 1_555 1_555
O13 U1 1_555 1_555
O14 U1 1_555 1_555
O15 U1 1_555 1_555
C1 P1 1_555 1_555
H6 C1 1_555 1_555
H7 C1 1_555 1_555
C2 C1 1_555 1_555
C3 C2 1_555 1_555
H8 C3 1_555 1_555
C4 C3 1_555 1_555
H9 C4 1_555 1_555
C5 C4 1_555 1_555
C6 P2 1_555 1_555
H10 C6 1_555 1_555
H11 C6 1_555 1_555
C7 C5 1_555 1_555
H12 C7 1_555 1_555
C8 C2 1_555 1_555
H13 C8 1_555 1_555
C9 P3 1_555 1_555
H14 C9 1_555 1_555
H15 C9 1_555 1_555
C10 C9 1_555 1_555
C11 C10 1_555 1_555
H16 C11 1_555 1_555
C12 C11 1_555 1_555
H17 C12 1_555 1_555
C13 C12 1_555 1_555
C14 P4 1_555 1_555
H18 C14 1_555 1_555
H19 C14 1_555 1_555
C15 C13 1_555 1_555
H20 C15 1_555 1_555
C16 C10 1_555 1_555
H21 C16 1_555 1_555
N1 C17 1_555 1_555
C17 H22 1_555 1_555
H23 C17 1_555 1_555
C18 C17 1_555 1_555
H24 C18 1_555 1_555
H25 C18 1_555 1_555
C19 C18 1_555 1_555
H26 C19 1_555 1_555
H27 C19 1_555 1_555
H28 C19 1_555 1_555
C20 N1 1_555 1_555
H29 C20 1_555 1_555
H30 C20 1_555 1_555
C21 C20 1_555 1_555
H31 C21 1_555 1_555
H32 C21 1_555 1_555
C22 C21 1_555 1_555
H33 C22 1_555 1_555
H34 C22 1_555 1_555
H35 C22 1_555 1_555
C23 N1 1_555 1_555
H36 C23 1_555 1_555
H37 C23 1_555 1_555
C24 C23 1_555 1_555
H38 C24 1_555 1_555
H39 C24 1_555 1_555
C25 C24 1_555 1_555
H40 C25 1_555 1_555
H41 C25 1_555 1_555
H42 C25 1_555 1_555
C26 N1 1_555 1_555
H43 C26 1_555 1_555
H44 C26 1_555 1_555
C27 C26 1_555 1_555
H45 C27 1_555 1_555
H46 C27 1_555 1_555
C28 C27 1_555 1_555
H47 C28 1_555 1_555
H48 C28 1_555 1_555
H49 C28 1_555 1_555
U1C O6 1_555 1_555
O6C U1 1_555 1_555
O10_2 U1 1_555 1_555
C5 C6 1_555 1_555
C7 C8 1_555 1_555
C13 C14 1_555 1_555
C15 C16 1_555 1_555

#END
