
#######################################################################
#
#                 Cambridge Crystallographic Data Centre
#                                CCDC 
#
#######################################################################
#
# If this CIF has been generated from an entry in the Cambridge 
# Structural Database, then it will include bibliographic, chemical, 
# crystal, experimental, refinement or atomic coordinate data resulting 
# from the CCDC's data processing and validation procedures.
#
#######################################################################

data_UHOSUG
_symmetry_cell_setting           monoclinic
_symmetry_space_group_name_H-M   'P 21/n'
_symmetry_Int_Tables_number      14
_space_group_name_Hall           '-P 2yn'
loop_
_symmetry_equiv_pos_site_id
_symmetry_equiv_pos_as_xyz
1 x,y,z
2 1/2-x,1/2+y,1/2-z
3 -x,-y,-z
4 1/2+x,1/2-y,1/2+z
_cell_length_a                   9.3968(2)
_cell_length_b                   7.07250(10)
_cell_length_c                   15.8292(3)
_cell_angle_alpha                90
_cell_angle_beta                 94.3770(10)
_cell_angle_gamma                90
_cell_volume                     1048.92
loop_
_atom_site_label
_atom_site_type_symbol
_atom_site_fract_x
_atom_site_fract_y
_atom_site_fract_z
O1 O 0.8735(3) 0.9506(4) 0.20917(14)
O2 O 1.0280(3) 0.1243(5) 0.08548(17)
O3 O 0.6617(2) 0.3924(3) 0.11936(11)
H1 H 0.891(5) 0.958(6) 0.2683(7)
H2 H 0.941(4) 1.028(6) 0.186(3)
H3 H 1.109(4) 0.141(9) 0.056(3)
H4 H 0.950(4) 0.120(9) 0.046(3)
Cs1 Cs 0.961037(18) 0.54890(3) 0.146491(11)
Cl1 Cl 0.36285(7) 0.26700(11) 0.14122(4)
Cl2 Cl 0.68969(8) 0.23323(12) -0.19311(4)
C1 C 0.5959(3) 0.3237(4) 0.05552(15)
O4 O 0.25617(19) 0.1355(3) -0.03168(11)
O5 O 0.3939(2) 0.1237(3) -0.17297(11)
H5 H 0.312 0.0955 -0.1633
O6 O 0.80277(19) 0.3564(3) -0.02160(12)
C2 C 0.6008(3) 0.2413(4) -0.10172(14)
C3 C 0.4631(3) 0.1857(4) -0.10277(15)
C4 C 0.3821(3) 0.1913(4) -0.02393(15)
C5 C 0.6776(3) 0.3097(4) -0.02537(15)
C6 C 0.4551(3) 0.2595(4) 0.05027(14)
Cs1C Cs 0.461037(18) -0.04890(3) -0.353509(11)
Cs1B Cs 1.038963(18) 0.45110(3) -0.146491(11)
O5C O 0.8939(2) 0.3763(3) 0.32703(11)
H5C H 0.812 0.4045 0.3367
O6B O 1.19723(19) 0.6436(3) 0.02160(12)
loop_
_geom_bond_atom_site_label_1
_geom_bond_atom_site_label_2
_geom_bond_site_symmetry_1
_geom_bond_site_symmetry_2
O1 H1 1_555 1_555
O2 H3 1_555 1_555
O3 Cs1 1_555 1_555
H2 O1 1_555 1_555
H4 O2 1_555 1_555
Cs1 O1 1_555 1_555
Cl1 C6 1_555 1_555
Cl2 C2 1_555 1_555
C1 O3 1_555 1_555
O4 C4 1_555 1_555
O5 H5 1_555 1_555
O6 Cs1 1_555 1_555
C2 C3 1_555 1_555
C3 O5 1_555 1_555
C4 C3 1_555 1_555
C5 C1 1_555 1_555
C6 C1 1_555 1_555
Cs1C O5 1_555 1_555
Cs1B O6 1_555 1_555
O5C Cs1 1_555 1_555
H5C O5C 1_555 1_555
O6B Cs1 1_555 1_555
O2 Cs1 1_555 1_555
O6 C5 1_555 1_555
C2 C5 1_555 1_555
C4 C6 1_555 1_555
Cs1B O6B 1_555 1_555

#END
