
#######################################################################
#
#                 Cambridge Crystallographic Data Centre
#                                CCDC 
#
#######################################################################
#
# If this CIF has been generated from an entry in the Cambridge 
# Structural Database, then it will include bibliographic, chemical, 
# crystal, experimental, refinement or atomic coordinate data resulting 
# from the CCDC's data processing and validation procedures.
#
#######################################################################

data_UHOTAN
_symmetry_cell_setting           monoclinic
_symmetry_space_group_name_H-M   'P 21/c'
_symmetry_Int_Tables_number      14
_space_group_name_Hall           '-P 2ybc'
loop_
_symmetry_equiv_pos_site_id
_symmetry_equiv_pos_as_xyz
1 x,y,z
2 -x,1/2+y,1/2-z
3 -x,-y,-z
4 x,1/2-y,1/2+z
_cell_length_a                   10.0492(8)
_cell_length_b                   15.2833(14)
_cell_length_c                   6.4546(11)
_cell_angle_alpha                90
_cell_angle_beta                 99.156(9)
_cell_angle_gamma                90
_cell_volume                     978.699
loop_
_atom_site_label
_atom_site_type_symbol
_atom_site_fract_x
_atom_site_fract_y
_atom_site_fract_z
K1 K 0.18680(6) 0.94066(4) 0.15721(10)
O1 O 0.3705(3) 0.91558(14) 0.5328(4)
O2 O 0.2892(2) 0.82838(16) -0.1284(4)
Cl1 Cl 0.00111(7) 0.59205(4) 0.15464(11)
Cl2 Cl -0.40254(7) 0.91263(4) 0.06786(12)
O3 O -0.10371(19) 0.91727(11) 0.1172(3)
O4 O -0.46913(19) 0.72340(13) 0.0515(3)
O5 O -0.29981(19) 0.59104(12) 0.0968(3)
O6 O 0.07166(19) 0.78313(12) 0.1886(3)
C1 C -0.0502(3) 0.76556(16) 0.1519(4)
C2 C -0.2449(3) 0.66445(16) 0.1033(4)
C3 C -0.2928(2) 0.82509(16) 0.0919(4)
C4 C -0.3390(3) 0.74180(17) 0.0814(4)
C5 C -0.1492(2) 0.84347(16) 0.1206(4)
C6 C -0.1066(2) 0.68069(15) 0.1333(4)
H1 H 0.212(3) 0.793(3) -0.150(9)
H2 H 0.359(3) 0.791(3) -0.072(8)
H3 H -0.485(4) 0.673(3) 0.042(7)
H4 H 0.343(6) 0.893(3) 0.655(6)
H5 H 0.385(5) 0.9740(15) 0.567(8)
K1B K -0.18680(6) 1.05934(4) -0.15721(10)
K1A K -0.18680(6) 0.44066(4) 0.34279(10)
O3B O 0.10371(19) 1.08273(11) -0.1172(3)
O5A O 0.29981(19) 1.09104(12) 0.4032(3)
loop_
_geom_bond_atom_site_label_1
_geom_bond_atom_site_label_2
_geom_bond_site_symmetry_1
_geom_bond_site_symmetry_2
K1 O1 1_555 1_555
O1 H4 1_555 1_555
O2 K1 1_555 1_555
Cl1 C6 1_555 1_555
Cl2 C3 1_555 1_555
O3 K1 1_555 1_555
O4 C4 1_555 1_555
O5 C2 1_555 1_555
O6 K1 1_555 1_555
C1 O6 1_555 1_555
C2 C4 1_555 1_555
C3 C4 1_555 1_555
C5 O3 1_555 1_555
C6 C1 1_555 1_555
H1 O2 1_555 1_555
H2 O2 1_555 1_555
H3 O4 1_555 1_555
H5 O1 1_555 1_555
K1B O3 1_555 1_555
K1A O5 1_555 1_555
O3B K1 1_555 1_555
O5A K1 1_555 1_555
C1 C5 1_555 1_555
C2 C6 1_555 1_555
C3 C5 1_555 1_555
K1B O3B 1_555 1_555

#END
