
#######################################################################
#
#                 Cambridge Crystallographic Data Centre
#                                CCDC 
#
#######################################################################
#
# If this CIF has been generated from an entry in the Cambridge 
# Structural Database, then it will include bibliographic, chemical, 
# crystal, experimental, refinement or atomic coordinate data resulting 
# from the CCDC's data processing and validation procedures.
#
#######################################################################

data_UHOTER
_symmetry_cell_setting           orthorhombic
_symmetry_space_group_name_H-M   'P n a 21'
_symmetry_Int_Tables_number      33
_space_group_name_Hall           'P 2c -2n'
loop_
_symmetry_equiv_pos_site_id
_symmetry_equiv_pos_as_xyz
1 x,y,z
2 -x,-y,1/2+z
3 1/2-x,1/2+y,1/2+z
4 1/2+x,1/2-y,z
_cell_length_a                   13.72(2)
_cell_length_b                   4.975(2)
_cell_length_c                   14.700(11)
_cell_angle_alpha                90
_cell_angle_beta                 90
_cell_angle_gamma                90
_cell_volume                     1003.38
loop_
_atom_site_label
_atom_site_type_symbol
_atom_site_fract_x
_atom_site_fract_y
_atom_site_fract_z
H1 H 0.209(6) 0.783(17) 0.303(5)
H2 H 0.231(4) 0.852(12) 0.400(4)
H3 H 0.168(5) 1.255(15) 0.284(2)
H4 H 0.0986(19) 1.146(11) 0.356(4)
H5 H 0.182(5) 1.343(10) 0.380(4)
H6 H 0.633(4) 0.707(8) -0.086(4)
H7 H 0.343(5) 1.136(11) 0.304(4)
Cl1 Cl 0.33685(9) 0.0578(2) 0.09206(9)
Cl2 Cl 0.66543(9) 0.9556(2) 0.08439(9)
O1 O 0.5263(3) 0.8236(9) 0.2334(4)
O2 O 0.6073(4) 0.5653(9) -0.0635(4)
O3 O 0.4775(3) 0.1953(8) -0.0565(4)
O4 O 0.3921(3) 0.4511(8) 0.2440(4)
O5 O 0.3321(2) 1.0197(6) 0.3427(5)
C1 C 0.5754(4) 0.7139(9) 0.0858(6)
C2 C 0.4373(4) 0.4649(10) 0.1701(5)
C3 C 0.2300(3) 0.9440(9) 0.3396(10)
C4 C 0.5597(4) 0.5559(10) 0.0142(5)
C5 C 0.1658(3) 1.1870(12) 0.3453(11)
C6 C 0.4837(4) 0.3368(10) 0.0152(6)
C7 C 0.5166(4) 0.6853(9) 0.1684(6)
Li1 Li 0.4321(5) 0.7267(14) 0.3404(13)
C8 C 0.4254(4) 0.3074(9) 0.0922(7)
H6A H 0.367(4) 0.293(8) 0.414(4)
O2A O 0.3927(4) 0.4347(9) 0.4365(4)
O3A O 0.5225(3) 0.8047(8) 0.4435(4)
Li1A Li 0.5679(5) 0.2733(14) -0.1596(13)
loop_
_geom_bond_atom_site_label_1
_geom_bond_atom_site_label_2
_geom_bond_site_symmetry_1
_geom_bond_site_symmetry_2
H1 C3 1_555 1_555
H2 C3 1_555 1_555
H3 C5 1_555 1_555
H4 C5 1_555 1_555
H5 C5 1_555 1_555
H6 O2 1_555 1_555
H7 O5 1_555 1_555
Cl1 C8 1_555 1_555
Cl2 C1 1_555 1_555
O1 C7 1_555 1_555
O2 C4 1_555 1_555
O3 C6 1_555 1_555
O4 C2 1_555 1_555
O5 C3 1_555 1_555
C1 C4 1_555 1_555
C2 C7 1_555 1_555
C3 C5 1_555 1_555
C4 C6 1_555 1_555
C6 C8 1_555 1_555
C7 C1 1_555 1_555
Li1 O1 1_555 1_555
C8 C2 1_555 1_555
H6A O2A 1_555 1_555
O2A Li1 1_555 1_555
O3A Li1 1_555 1_555
Li1A O2 1_555 1_555
O3 Li1A 1_555 1_555
O4 Li1 1_555 1_555
O5 Li1 1_555 1_555

#END
