
#######################################################################
#
#                 Cambridge Crystallographic Data Centre
#                                CCDC 
#
#######################################################################
#
# If this CIF has been generated from an entry in the Cambridge 
# Structural Database, then it will include bibliographic, chemical, 
# crystal, experimental, refinement or atomic coordinate data resulting 
# from the CCDC's data processing and validation procedures.
#
#######################################################################

data_UHOTOB
_symmetry_cell_setting           triclinic
_symmetry_space_group_name_H-M   'P -1'
_symmetry_Int_Tables_number      2
_space_group_name_Hall           '-P 1'
loop_
_symmetry_equiv_pos_site_id
_symmetry_equiv_pos_as_xyz
1 x,y,z
2 -x,-y,-z
_cell_length_a                   10.87270(10)
_cell_length_b                   12.99730(10)
_cell_length_c                   13.3899(2)
_cell_angle_alpha                67.0940(10)
_cell_angle_beta                 66.5280(10)
_cell_angle_gamma                74.3590(10)
_cell_volume                     1584
loop_
_atom_site_label
_atom_site_type_symbol
_atom_site_fract_x
_atom_site_fract_y
_atom_site_fract_z
O1 O 1.00323(11) 1.31482(10) -0.57018(10)
C1 C 0.43611(11) 0.47133(9) 0.69789(9)
Cl1 Cl 0.61454(3) 1.42582(2) 0.06934(2)
Cl2 Cl 0.89264(3) 1.07432(2) 0.43000(2)
O2 O 0.89085(8) 1.41592(7) 0.07652(7)
O3 O 1.00497(8) 1.26933(7) 0.22999(8)
O4 O 0.50457(8) 1.23027(7) 0.26893(7)
C2 C 0.62067(10) 1.24397(9) 0.25532(9)
O5 O 0.61858(8) 1.08361(7) 0.42039(7)
C3 C 0.81793(10) 1.16916(9) 0.33036(9)
C4 C 0.88955(10) 1.25554(9) 0.24225(9)
C5 C 0.82318(10) 1.34147(8) 0.15384(9)
C6 C 0.69167(10) 1.33027(9) 0.16780(9)
C7 C 0.68750(10) 1.15836(9) 0.34282(9)
Cl3 Cl 0.84305(3) 1.12598(2) -0.27619(2)
Cl4 Cl 0.63218(3) 0.37652(2) 0.79215(2)
Cl5 Cl 0.37546(3) 0.73788(2) 0.42278(2)
Cl6 Cl 1.14112(3) 0.76315(2) 0.06363(2)
Na1 Na 0.69047(4) 0.85381(4) 0.24638(4)
O6 O 0.50133(8) 0.96929(7) 0.33310(7)
O7 O 0.53843(8) 1.13569(7) 0.05882(8)
O8 O 0.92388(8) 1.56954(7) 0.21464(7)
O9 O 0.85296(8) 0.78305(7) 0.07489(7)
O10 O 0.36444(8) 0.39821(7) 0.77183(7)
O11 O 1.24145(8) 0.96611(7) -0.12915(7)
O12 O 1.11665(8) 1.12009(7) -0.27156(7)
O13 O 0.76892(8) 0.56118(7) 0.58127(7)
O14 O 0.65943(8) 0.70588(7) 0.42286(7)
O15 O 0.24980(8) 0.55576(7) 0.62488(7)
O16 O 0.73155(8) 0.93345(7) -0.07056(7)
C8 C 0.85156(10) 0.94342(9) -0.09015(9)
C9 C 1.05385(10) 1.04117(9) -0.19696(9)
C10 C 0.37485(10) 0.56048(9) 0.61114(9)
C11 C 0.56809(10) 0.47697(9) 0.68783(9)
C12 C 0.92340(10) 1.02707(9) -0.18184(9)
C13 C 0.64912(10) 0.55469(9) 0.59711(9)
C14 C 0.92255(10) 0.85571(8) -0.00650(9)
C15 C 1.05668(10) 0.86319(8) -0.02637(9)
C16 C 1.12531(10) 0.95203(9) -0.11362(9)
C17 C 0.44745(10) 0.63960(9) 0.52167(9)
C18 C 0.58673(10) 0.64067(8) 0.50587(9)
Na2 Na 1.08334(4) 1.44651(4) 0.10119(4)
Na3 Na 1.13273(5) 1.26913(4) -0.44807(4)
Na4 Na 0.38944(5) 1.00043(4) 0.19937(4)
Na5 Na 0.39061(5) 1.27718(4) 0.13876(4)
O17 O 0.26939(8) 1.32573(7) 0.01293(7)
O18 O 1.29099(8) 1.14358(7) -0.53667(7)
O19 O 0.24364(8) 1.14039(7) 0.27448(8)
O20 O 0.96074(9) 1.38287(8) -0.34539(8)
O21 O 0.54614(8) 0.85090(7) 0.14110(7)
O22 O 0.22391(11) 1.41711(10) 0.21056(10)
H1 H 0.6152(15) 0.8696(13) 0.0731(12)
H2 H 0.5518(17) 0.7776(11) 0.1661(14)
H3 H 0.3055(18) 1.3657(14) -0.0606(12)
H4 H 1.3082(16) 1.0722(11) -0.4922(13)
H5 H 1.3717(15) 1.1632(14) -0.5862(14)
H6 H 0.9611(17) 1.5836(14) 0.2563(14)
H7 H 0.1593(15) 1.1659(15) 0.2734(16)
H8 H 0.242(2) 1.1349(17) 0.3460(14)
H9 H 0.9054(18) 1.4450(13) -0.3701(16)
H10 H 0.9024(16) 1.6361(11) 0.1671(13)
H11 H 0.5494(19) 1.1434(16) -0.0126(13)
H12 H 0.5302(18) 1.0281(13) 0.3291(16)
H13 H 0.6226(16) 1.1118(16) 0.0629(17)
H14 H 0.208(2) 0.5043(16) 0.6872(16)
H15 H 0.4612(19) 0.9377(15) 0.4071(13)
H16 H 0.242(2) 1.2691(14) 0.0095(17)
H17 H 0.9077(19) 1.3293(14) -0.2900(15)
H18 H 0.927(2) 1.3637(19) -0.564(2)
H19 H 0.169(2) 1.3894(18) 0.2828(14)
H20 H 0.996(3) 1.2687(19) -0.601(2)
H21 H 0.2516(19) 1.4759(14) 0.2122(17)
O2A O 1.10915(8) 1.58408(7) -0.07652(7)
Na1A Na 1.30953(4) 1.14619(4) -0.24638(4)
O11A O 0.75855(8) 1.03389(7) 0.12915(7)
O12A O 0.88335(8) 0.87991(7) 0.27156(7)
O13A O 1.23108(8) 1.43882(7) -0.58127(7)
O14A O 1.34057(8) 1.29412(7) -0.42286(7)
O16A O 0.26845(8) 1.06655(7) 0.07056(7)
Na2A Na 0.91666(4) 1.55349(4) -0.10119(4)
Na2_2 Na 0.08334(4) 1.44651(4) 0.10119(4)
Na3A Na 0.86727(5) 0.73087(4) 0.44807(4)
Na4A Na 0.61056(5) 0.99957(4) -0.19937(4)
O17_2 O 1.26939(8) 1.32573(7) 0.01293(7)
O22_2 O 1.22391(11) 1.41711(10) 0.21056(10)
H3_2 H 1.3055(18) 1.3657(14) -0.0606(12)
H16_2 H 1.242(2) 1.2691(14) 0.0095(17)
H19_2 H 1.169(2) 1.3894(18) 0.2828(14)
H21_2 H 1.2516(19) 1.4759(14) 0.2122(17)
loop_
_geom_bond_atom_site_label_1
_geom_bond_atom_site_label_2
_geom_bond_site_symmetry_1
_geom_bond_site_symmetry_2
O1 Na3 1_555 1_555
C1 O10 1_555 1_555
Cl1 C6 1_555 1_555
Cl2 C3 1_555 1_555
O2 C5 1_555 1_555
O3 C4 1_555 1_555
O4 C2 1_555 1_555
C2 C6 1_555 1_555
O5 C7 1_555 1_555
C3 C4 1_555 1_555
C4 C5 1_555 1_555
C5 C6 1_555 1_555
C7 C2 1_555 1_555
Cl3 C12 1_555 1_555
Cl4 C11 1_555 1_555
Cl5 C17 1_555 1_555
Cl6 C15 1_555 1_555
Na1 O6 1_555 1_555
O6 Na4 1_555 1_555
O7 Na4 1_555 1_555
O8 Na2 1_555 1_555
O9 Na1 1_555 1_555
O11 C16 1_555 1_555
O12 C9 1_555 1_555
O13 C13 1_555 1_555
O14 Na1 1_555 1_555
O15 C10 1_555 1_555
O16 C8 1_555 1_555
C8 C12 1_555 1_555
C9 C12 1_555 1_555
C10 C1 1_555 1_555
C11 C1 1_555 1_555
C13 C11 1_555 1_555
C14 O9 1_555 1_555
C15 C14 1_555 1_555
C16 C9 1_555 1_555
C17 C10 1_555 1_555
C18 O14 1_555 1_555
Na2 O2 1_555 1_555
Na3 O12 1_555 1_555
Na4 O19 1_555 1_555
Na5 O4 1_555 1_555
O17 Na5 1_555 1_555
O18 Na3 1_555 1_555
O19 Na5 1_555 1_555
O20 Na3 1_555 1_555
O21 Na1 1_555 1_555
O22 Na5 1_555 1_555
H1 O21 1_555 1_555
H2 O21 1_555 1_555
H3 O17 1_555 1_555
H4 O18 1_555 1_555
H5 O18 1_555 1_555
H6 O8 1_555 1_555
H7 O19 1_555 1_555
H8 O19 1_555 1_555
H9 O20 1_555 1_555
H10 O8 1_555 1_555
H11 O7 1_555 1_555
H12 O6 1_555 1_555
H13 O7 1_555 1_555
H14 O15 1_555 1_555
H15 O6 1_555 1_555
H16 O17 1_555 1_555
H17 O20 1_555 1_555
H18 O1 1_555 1_555
H19 O22 1_555 1_555
H20 O1 1_555 1_555
H21 O22 1_555 1_555
O2A Na2 1_555 1_555
Na1A O11 1_555 1_555
O11A Na1 1_555 1_555
O12A Na1 1_555 1_555
O13A Na3 1_555 1_555
O14A Na3 1_555 1_555
O16A Na4 1_555 1_555
Na2A O2 1_555 1_555
Na2_2 O17 1_555 1_555
Na3A O13 1_555 1_555
Na4A O16 1_555 1_555
O17_2 Na2 1_555 1_555
O22_2 Na2 1_555 1_555
H3_2 O17_2 1_555 1_555
H16_2 O17_2 1_555 1_555
H19_2 O22_2 1_555 1_555
H21_2 O22_2 1_555 1_555
O3 Na2 1_555 1_555
C3 C7 1_555 1_555
O7 Na5 1_555 1_555
O12 Na1A 1_555 1_555
O14 Na3A 1_555 1_555
C8 C14 1_555 1_555
C13 C18 1_555 1_555
C15 C16 1_555 1_555
C17 C18 1_555 1_555
Na4 O21 1_555 1_555
O22 Na2_2 1_555 1_555
O2A Na2A 1_555 1_555
Na1A O14A 1_555 1_555
O12A Na3A 1_555 1_555

#END
