
#######################################################################
#
#                 Cambridge Crystallographic Data Centre
#                                CCDC 
#
#######################################################################
#
# If this CIF has been generated from an entry in the Cambridge 
# Structural Database, then it will include bibliographic, chemical, 
# crystal, experimental, refinement or atomic coordinate data resulting 
# from the CCDC's data processing and validation procedures.
#
#######################################################################

data_UHOTUH
_symmetry_cell_setting           monoclinic
_symmetry_space_group_name_H-M   'P 21/n'
_symmetry_Int_Tables_number      14
_space_group_name_Hall           '-P 2yn'
loop_
_symmetry_equiv_pos_site_id
_symmetry_equiv_pos_as_xyz
1 x,y,z
2 1/2-x,1/2+y,1/2-z
3 -x,-y,-z
4 1/2+x,1/2-y,1/2+z
_cell_length_a                   9.134(5)
_cell_length_b                   6.923(5)
_cell_length_c                   15.844(5)
_cell_angle_alpha                90
_cell_angle_beta                 94.092(5)
_cell_angle_gamma                90
_cell_volume                     999.336
loop_
_atom_site_label
_atom_site_type_symbol
_atom_site_fract_x
_atom_site_fract_y
_atom_site_fract_z
Rb1 Rb 0.53727(4) -0.02937(7) 0.35499(3)
Cl1 Cl 1.13706(9) 0.24352(12) 0.36205(5)
Cl2 Cl 0.80087(10) 0.25640(14) 0.69608(5)
C1 C 0.8918(4) 0.2531(5) 0.6049(2)
O1 O 0.8305(3) 0.1137(4) 0.38222(16)
O2 O 0.6863(3) 0.1352(4) 0.52404(16)
O3 O 1.1055(3) 0.3670(4) 0.67736(15)
C2 C 0.8139(3) 0.1864(5) 0.5279(2)
O4 O 1.2471(3) 0.3653(5) 0.53528(16)
C3 C 1.0340(4) 0.3086(5) 0.60680(19)
C4 C 1.0430(4) 0.2439(4) 0.4525(2)
O5 O 0.4770(4) 0.3739(6) 0.4096(2)
C5 C 1.1178(3) 0.3078(5) 0.5276(2)
C6 C 0.8976(4) 0.1784(5) 0.44671(19)
O6 O 0.6163(3) -0.4089(6) 0.28949(18)
H1 H 0.670(13) -0.512(11) 0.316(5)
H2 H 0.605(10) -0.445(12) 0.2317(19)
H3 H 0.541(6) 0.350(13) 0.457(3)
H4 H 0.382(4) 0.38(2) 0.428(5)
H5 H 1.12(3) 0.482(12) 0.661(15)
Rb1B Rb 0.46273(4) 0.02937(7) 0.64501(3)
Rb1C Rb 1.03727(4) 0.52937(7) 0.85499(3)
O2B O 0.3137(3) -0.1352(4) 0.47596(16)
O3C O 0.6055(3) 0.1330(4) 0.17736(15)
H5C H 0.62(3) 0.018(12) 0.161(15)
loop_
_geom_bond_atom_site_label_1
_geom_bond_atom_site_label_2
_geom_bond_site_symmetry_1
_geom_bond_site_symmetry_2
Rb1 O1 1_555 1_555
Cl1 C4 1_555 1_555
Cl2 C1 1_555 1_555
C1 C2 1_555 1_555
O1 C6 1_555 1_555
O2 Rb1 1_555 1_555
O3 C3 1_555 1_555
C2 O2 1_555 1_555
O4 C5 1_555 1_555
C3 C1 1_555 1_555
C4 C5 1_555 1_555
O5 Rb1 1_555 1_555
C5 C3 1_555 1_555
C6 C2 1_555 1_555
O6 Rb1 1_555 1_555
H1 O6 1_555 1_555
H2 O6 1_555 1_555
H3 O5 1_555 1_555
H4 O5 1_555 1_555
H5 O3 1_555 1_555
Rb1B O2 1_555 1_555
Rb1C O3 1_555 1_555
O2B Rb1 1_555 1_555
O3C Rb1 1_555 1_555
H5C O3C 1_555 1_555
C4 C6 1_555 1_555
Rb1B O2B 1_555 1_555

#END
