
#######################################################################
#
#                 Cambridge Crystallographic Data Centre
#                                CCDC 
#
#######################################################################
#
# If this CIF has been generated from an entry in the Cambridge 
# Structural Database, then it will include bibliographic, chemical, 
# crystal, experimental, refinement or atomic coordinate data resulting 
# from the CCDC's data processing and validation procedures.
#
#######################################################################

data_UHOVAO
_symmetry_cell_setting           tetragonal
_symmetry_space_group_name_H-M   'P 41 21 2'
_symmetry_Int_Tables_number      92
_space_group_name_Hall           'P 4abw 2nw'
loop_
_symmetry_equiv_pos_site_id
_symmetry_equiv_pos_as_xyz
1 x,y,z
2 -x,-y,1/2+z
3 1/2-y,1/2+x,1/4+z
4 1/2+y,1/2-x,3/4+z
5 1/2-x,1/2+y,1/4-z
6 1/2+x,1/2-y,3/4-z
7 y,x,-z
8 -y,-x,1/2-z
_cell_length_a                   38.098(5)
_cell_length_b                   38.098(5)
_cell_length_c                   9.4700(19)
_cell_angle_alpha                90
_cell_angle_beta                 90
_cell_angle_gamma                90
_cell_volume                     13745.3
loop_
_atom_site_label
_atom_site_type_symbol
_atom_site_fract_x
_atom_site_fract_y
_atom_site_fract_z
Ni1 Ni -0.43969(3) -0.30484(4) -0.07008(12)
O1 O -0.4203(2) -0.2916(3) -0.2613(9)
O2 O -0.42928(17) -0.3560(2) -0.1091(8)
O3 O -0.45867(16) -0.3197(2) 0.1220(8)
O4 O -0.4495(2) -0.2538(2) -0.0225(10)
O5 O -0.1046(2) -0.2839(2) 0.7742(12)
O6 O -0.0891(2) -0.2705(2) 0.4249(11)
N1 N -0.38866(19) -0.2966(2) 0.0178(8)
N2 N -0.1886(3) 0.0091(2) 1.0959(8)
C1 C -0.1458(3) -0.2672(2) 0.6030(11)
C2 C -0.1353(3) -0.2903(3) 0.7018(16)
C3 C -0.1553(4) -0.3207(4) 0.7334(16)
H1 H -0.1481 -0.3358 0.8048
C4 C -0.1852(4) -0.3278(3) 0.6591(15)
H2 H -0.1976 -0.3483 0.6771
C5 C -0.2277(3) -0.3100(3) 0.4797(12)
H3 H -0.2408 -0.3300 0.5001
C6 C -0.2389(2) -0.2873(3) 0.3757(12)
C7 C -0.2199(3) -0.2578(3) 0.3501(12)
H4 H -0.2277 -0.2420 0.2821
C8 C -0.1894(2) -0.2508(3) 0.4222(10)
H5 H -0.1768 -0.2305 0.4021
C9 C -0.1772(3) -0.2739(2) 0.5254(11)
C10 C -0.1974(2) -0.3036(3) 0.5530(10)
C11 C -0.2725(3) -0.2949(3) 0.3019(10)
H6 H -0.2826 -0.3166 0.3216
C12 C -0.2894(3) -0.2751(3) 0.2130(11)
H7 H -0.2789 -0.2540 0.1877
C13 C -0.3246(2) -0.2835(3) 0.1472(10)
C14 C -0.3418(2) -0.3135(3) 0.1718(10)
H8 H -0.3325 -0.3306 0.2308
C15 C -0.3744(2) -0.3183(3) 0.1058(11)
H9 H -0.3868 -0.3387 0.1269
C16 C -0.3705(3) -0.2687(3) -0.0071(12)
H10 H -0.3798 -0.2531 -0.0727
C17 C -0.3385(2) -0.2592(3) 0.0532(11)
H11 H -0.3272 -0.2382 0.0319
C18 C -0.0840(5) -0.3115(5) 0.818(3)
H12 H -0.0781 -0.3264 0.7384
H13 H -0.0965 -0.3255 0.8873
C19 C -0.0501(7) -0.2958(8) 0.884(5)
H14 H -0.0351 -0.3146 0.9150
H15 H -0.0562 -0.2813 0.9632
H16 H -0.0381 -0.2820 0.8146
C20 C -0.1237(3) -0.2362(2) 0.5738(11)
C21 C -0.0961(3) -0.2382(3) 0.4885(14)
C22 C -0.0733(3) -0.2108(4) 0.4570(15)
H17 H -0.0538 -0.2141 0.3991
C23 C -0.0805(3) -0.1789(4) 0.5144(13)
H18 H -0.0668 -0.1596 0.4899
C24 C -0.1167(3) -0.1413(3) 0.6774(11)
H19 H -0.1026 -0.1220 0.6588
C25 C -0.1446(3) -0.1380(3) 0.7662(12)
C26 C -0.1656(2) -0.1669(3) 0.7950(11)
H20 H -0.1843 -0.1646 0.8572
C27 C -0.1591(3) -0.1980(3) 0.7347(11)
H21 H -0.1739 -0.2167 0.7550
C28 C -0.1300(2) -0.2034(3) 0.6386(10)
C29 C -0.1087(3) -0.1747(3) 0.6116(11)
C30 C -0.1509(3) -0.1028(3) 0.8327(14)
H22 H -0.1372 -0.0846 0.7974
C31 C -0.1727(3) -0.0939(3) 0.9321(13)
H23 H -0.1854 -0.1120 0.9742
C32 C -0.1789(3) -0.0591(3) 0.9832(12)
C33 C -0.2004(3) -0.0528(2) 1.1012(12)
H24 H -0.2118 -0.0717 1.1436
C34 C -0.2050(3) -0.0208(3) 1.1544(11)
H25 H -0.2194 -0.0181 1.2328
C35 C -0.1691(3) 0.0032(3) 0.9848(12)
H26 H -0.1580 0.0224 0.9438
C36 C -0.1638(3) -0.0294(3) 0.9231(12)
H27 H -0.1501 -0.0314 0.8421
C37 C -0.0554(5) -0.2757(5) 0.362(3)
H28 H -0.0385 -0.2591 0.3384
C38 C -0.0544(6) -0.3144(6) 0.344(4)
H29 H -0.0323 -0.3210 0.3024
H30 H -0.0732 -0.3216 0.2829
H31 H -0.0569 -0.3255 0.4340
C39 C -0.3921(3) -0.2952(5) -0.4843(13)
H32 H -0.3958 -0.2703 -0.4842
H33 H -0.4042 -0.3055 -0.5631
H34 H -0.3675 -0.3000 -0.4917
C40 C -0.4063(4) -0.3109(6) -0.3465(16)
C41 C -0.4029(3) -0.3451(8) -0.3329(18)
H35 H -0.3914 -0.3565 -0.4066
C42 C -0.4147(3) -0.3675(4) -0.219(2)
C43 C -0.4090(4) -0.4085(4) -0.2191(18)
H36 H -0.4189 -0.4184 -0.1348
H37 H -0.3843 -0.4135 -0.2222
H38 H -0.4203 -0.4185 -0.3003
C44 C -0.4750(3) -0.3182(3) 0.3503(15)
H39 H -0.4749 -0.3431 0.3342
H40 H -0.4983 -0.3108 0.3763
H41 H -0.4590 -0.3126 0.4251
C45 C -0.4646(3) -0.3005(4) 0.2246(12)
C46 C -0.4624(3) -0.2671(6) 0.2222(13)
H42 H -0.4657 -0.2558 0.3082
C47 C -0.4555(4) -0.2447(4) 0.102(2)
C48 C -0.4554(5) -0.2038(4) 0.127(3)
H43 H -0.4506 -0.1920 0.0398
H44 H -0.4377 -0.1979 0.1952
H45 H -0.4780 -0.1966 0.1618
N2C N -0.4909(2) -0.3114(3) -0.1541(8)
Ni1B Ni -0.19516(4) 0.06031(3) 1.17992(12)
O7 O -0.3497(12) -0.1673(13) -1.151(6)
O8 O -0.3703(18) -0.1128(17) -1.071(7)
O9 O -0.4201(15) -0.1157(16) -0.735(8)
O10 O -0.066(2) -0.085(2) 0.153(8)
O11 O -0.0775(14) 0.0009(15) -0.214(6)
O12 O -0.529(2) -0.1068(19) -1.286(10)
O13 O -0.485(3) -0.100(2) -1.221(11)
O14 O -0.379(2) -0.130(3) -1.329(11)
O15 O -0.5158(18) -0.0641(18) -1.778(9)
O16 O -0.422(2) -0.079(2) -1.152(9)
O17 O -0.504(3) -0.108(3) -1.631(14)
O18 O -0.0106(19) 0.0106(19) -0.2500
N3 N 0.0151(8) -0.2753(7) -0.883(3)
C49 C 0.0387(8) -0.2979(11) -0.839(5)
C50 C 0.0790(6) -0.2978(6) -0.785(3)
N4 N -0.0956(9) -0.0307(9) 0.188(3)
C51 C -0.1090(7) -0.0131(7) 0.287(3)
C52 C -0.0938(6) -0.0177(6) 0.437(2)
N5 N 0.2452(6) -0.3050(6) -1.242(3)
C53 C 0.2268(9) -0.3312(8) -1.205(4)
C54 C 0.2328(7) -0.3667(8) -1.139(3)
loop_
_geom_bond_atom_site_label_1
_geom_bond_atom_site_label_2
_geom_bond_site_symmetry_1
_geom_bond_site_symmetry_2
Ni1 O1 1_555 1_555
O1 C40 1_555 1_555
O2 Ni1 1_555 1_555
O3 Ni1 1_555 1_555
O4 Ni1 1_555 1_555
O5 C2 1_555 1_555
O6 C21 1_555 1_555
N1 Ni1 1_555 1_555
N2 C34 1_555 1_555
C1 C2 1_555 1_555
C2 C3 1_555 1_555
C3 H1 1_555 1_555
C4 C3 1_555 1_555
H2 C4 1_555 1_555
C5 H3 1_555 1_555
C6 C5 1_555 1_555
C7 C6 1_555 1_555
H4 C7 1_555 1_555
C8 C7 1_555 1_555
H5 C8 1_555 1_555
C9 C1 1_555 1_555
C10 C4 1_555 1_555
C11 C6 1_555 1_555
H6 C11 1_555 1_555
C12 C11 1_555 1_555
H7 C12 1_555 1_555
C13 C12 1_555 1_555
C14 C13 1_555 1_555
H8 C14 1_555 1_555
C15 N1 1_555 1_555
H9 C15 1_555 1_555
C16 N1 1_555 1_555
H10 C16 1_555 1_555
C17 C13 1_555 1_555
H11 C17 1_555 1_555
C18 O5 1_555 1_555
H12 C18 1_555 1_555
H13 C18 1_555 1_555
C19 C18 1_555 1_555
H14 C19 1_555 1_555
H15 C19 1_555 1_555
H16 C19 1_555 1_555
C20 C1 1_555 1_555
C21 C20 1_555 1_555
C22 C21 1_555 1_555
H17 C22 1_555 1_555
C23 C22 1_555 1_555
H18 C23 1_555 1_555
C24 H19 1_555 1_555
C25 C24 1_555 1_555
C26 C25 1_555 1_555
H20 C26 1_555 1_555
C27 C26 1_555 1_555
H21 C27 1_555 1_555
C28 C20 1_555 1_555
C29 C23 1_555 1_555
C30 C25 1_555 1_555
H22 C30 1_555 1_555
C31 C30 1_555 1_555
H23 C31 1_555 1_555
C32 C31 1_555 1_555
C33 C32 1_555 1_555
H24 C33 1_555 1_555
C34 C33 1_555 1_555
H25 C34 1_555 1_555
C35 N2 1_555 1_555
H26 C35 1_555 1_555
C36 C32 1_555 1_555
H27 C36 1_555 1_555
C37 O6 1_555 1_555
H28 C37 1_555 1_555
C38 C37 1_555 1_555
H29 C38 1_555 1_555
H30 C38 1_555 1_555
H31 C38 1_555 1_555
C39 H32 1_555 1_555
H33 C39 1_555 1_555
H34 C39 1_555 1_555
C40 C39 1_555 1_555
C41 C40 1_555 1_555
H35 C41 1_555 1_555
C42 O2 1_555 1_555
C43 C42 1_555 1_555
H36 C43 1_555 1_555
H37 C43 1_555 1_555
H38 C43 1_555 1_555
C44 H39 1_555 1_555
H40 C44 1_555 1_555
H41 C44 1_555 1_555
C45 O3 1_555 1_555
C46 C45 1_555 1_555
H42 C46 1_555 1_555
C47 O4 1_555 1_555
C48 C47 1_555 1_555
H43 C48 1_555 1_555
H44 C48 1_555 1_555
H45 C48 1_555 1_555
N3 C49 1_555 1_555
C49 C50 1_555 1_555
N4 C51 1_555 1_555
C51 C52 1_555 1_555
N5 C53 1_555 1_555
C53 C54 1_555 1_555
N2C Ni1 1_555 1_555
Ni1B N2 1_555 1_555
C5 C10 1_555 1_555
C8 C9 1_555 1_555
C9 C10 1_555 1_555
C14 C15 1_555 1_555
C16 C17 1_555 1_555
C24 C29 1_555 1_555
C27 C28 1_555 1_555
C28 C29 1_555 1_555
C35 C36 1_555 1_555
C41 C42 1_555 1_555
C44 C45 1_555 1_555
C46 C47 1_555 1_555

#END
