
#######################################################################
#
#                 Cambridge Crystallographic Data Centre
#                                CCDC 
#
#######################################################################
#
# If this CIF has been generated from an entry in the Cambridge 
# Structural Database, then it will include bibliographic, chemical, 
# crystal, experimental, refinement or atomic coordinate data resulting 
# from the CCDC's data processing and validation procedures.
#
#######################################################################

data_UHOVES
_symmetry_cell_setting           tetragonal
_symmetry_space_group_name_H-M   'P 43 21 2'
_symmetry_Int_Tables_number      96
_space_group_name_Hall           'P 4nw 2abw'
loop_
_symmetry_equiv_pos_site_id
_symmetry_equiv_pos_as_xyz
1 x,y,z
2 -x,-y,1/2+z
3 1/2-y,1/2+x,3/4+z
4 1/2+y,1/2-x,1/4+z
5 1/2-x,1/2+y,3/4-z
6 1/2+x,1/2-y,1/4-z
7 y,x,-z
8 -y,-x,1/2-z
_cell_length_a                   38.031(5)
_cell_length_b                   38.031(5)
_cell_length_c                   9.4952(19)
_cell_angle_alpha                90
_cell_angle_beta                 90
_cell_angle_gamma                90
_cell_volume                     13733.4
loop_
_atom_site_label
_atom_site_type_symbol
_atom_site_fract_x
_atom_site_fract_y
_atom_site_fract_z
Ni1 Ni 0.43707(4) -0.69830(5) 0.06828(15)
O1 O 0.4481(2) -0.7491(3) 0.0195(14)
O2 O 0.4555(2) -0.6810(3) -0.1219(8)
O3 O 0.4261(2) -0.6472(3) 0.1127(12)
O4 O 0.4178(2) -0.7121(3) 0.2654(9)
O5 O 0.7658(3) -0.5879(3) 0.8150(13)
O6 O 0.8280(15) -0.5426(11) 0.849(6)
O7 O 0.8850(15) -0.6129(15) 0.737(7)
O8 O 0.9045(18) -0.5819(19) 0.439(7)
O9 O 0.8318(17) -0.5760(10) 0.332(7)
O10 O 0.7809(3) -0.6050(3) 0.4609(14)
N1 N 0.4891(2) -0.6919(3) 0.1559(11)
N2 N 0.7919(3) -0.8850(2) 1.2318(10)
C1 C 0.7319 -0.6220 0.6664
C2 C 0.7352 -0.5957 0.7500
C3 C 0.7040(5) -0.5722(4) 0.7866(18)
H1 H 0.7062 -0.5536 0.8499
C4 C 0.6726(4) -0.5795(4) 0.7225(14)
H2 H 0.6531 -0.5654 0.7398
C5 C 0.6386(3) -0.6165(3) 0.5685(13)
H3 H 0.6191 -0.6026 0.5880
C6 C 0.6346(3) -0.6444(3) 0.4779(13)
C7 C 0.6651(3) -0.6647(3) 0.4484(14)
H4 H 0.6638 -0.6833 0.3848
C8 C 0.6956(3) -0.6573(3) 0.5118(12)
H5 H 0.7149 -0.6715 0.4926
C9 C 0.7000(3) -0.6291(2) 0.6057(11)
C10 C 0.6699(3) -0.6080(3) 0.6316(12)
C11 C 0.5995(3) -0.6522(4) 0.4140(15)
H6 H 0.5807 -0.6395 0.4500
C12 C 0.5916(3) -0.6749(4) 0.3135(15)
H7 H 0.6096 -0.6879 0.2733
C13 C 0.5562(3) -0.6802(3) 0.2632(12)
C14 C 0.5262(3) -0.6660(4) 0.3227(13)
H8 H 0.5283 -0.6517 0.4017
C15 C 0.4943(3) -0.6722(4) 0.2701(13)
H9 H 0.4749 -0.6623 0.3149
C16 C 0.5164(3) -0.7067(4) 0.0929(13)
H10 H 0.5131 -0.7211 0.0148
C17 C 0.5510(3) -0.7005(4) 0.1457(14)
H11 H 0.5702 -0.7103 0.0997
C18 C 0.7643(2) -0.6438(3) 0.6392(11)
C19 C 0.7863 -0.6340 0.5453
C20 C 0.8180(4) -0.6545(5) 0.5121(18)
H12 H 0.8331 -0.6473 0.4409
C21 C 0.8247(4) -0.6840(4) 0.5870(17)
H13 H 0.8447 -0.6971 0.5678
C22 C 0.8066(3) -0.7248(3) 0.7694(15)
H14 H 0.8262 -0.7386 0.7497
C23 C 0.7842(3) -0.7352(3) 0.8727(15)
C24 C 0.7551(3) -0.7161(3) 0.8989(13)
H15 H 0.7395 -0.7232 0.9687
C25 C 0.7486(2) -0.6873(3) 0.8264(13)
H16 H 0.7278 -0.6753 0.8461
C26 C 0.7709(3) -0.6731(3) 0.7198(13)
C27 C 0.8014(3) -0.6949(3) 0.6941(13)
C28 C 0.7919(3) -0.7695(4) 0.9459(16)
H17 H 0.8131 -0.7802 0.9222
C29 C 0.7723(3) -0.7866(3) 1.0399(13)
H18 H 0.7515 -0.7758 1.0674
C30 C 0.7803(3) -0.8202(3) 1.1037(12)
C31 C 0.8102(3) -0.8382(3) 1.0821(12)
H19 H 0.8277 -0.8284 1.0258
C32 C 0.8157(3) -0.8718(3) 1.1438(13)
H20 H 0.8359 -0.8845 1.1227
C33 C 0.7642(3) -0.8672(3) 1.2567(15)
H21 H 0.7481 -0.8758 1.3220
C34 C 0.7573(3) -0.8365(3) 1.1921(16)
H22 H 0.7357 -0.8258 1.2086
C35 C 0.7672(15) -0.5601(13) 0.888(7)
C36 C 0.8036(13) -0.549(2) 0.935(5)
C37 C 0.842(2) -0.568(2) 0.789(7)
C38 C 0.867(2) -0.597(2) 0.838(5)
C39 C 0.902(2) -0.630(2) 0.639(9)
C40 C 0.914(2) -0.606(2) 0.523(10)
C41 C 0.891(3) -0.558(2) 0.363(10)
C42 C 0.857(2) -0.558(2) 0.281(9)
C43 C 0.8105(17) -0.5574(17) 0.401(8)
C44 C 0.797(2) -0.5800(7) 0.519(6)
C45 C 0.4526(8) -0.7986(6) -0.126(3)
H23 H 0.4486 -0.8101 -0.0378
H24 H 0.4747 -0.8064 -0.1647
H25 H 0.4340 -0.8044 -0.1906
C46 C 0.4537(4) -0.7582(5) -0.104(3)
C47 C 0.4611(4) -0.7369(7) -0.2204(18)
H26 H 0.4657 -0.7483 -0.3050
C48 C 0.4622(3) -0.6994(5) -0.2225(16)
C49 C 0.4719(5) -0.6850(7) -0.3543(15)
H27 H 0.4733 -0.6598 -0.3464
H28 H 0.4546 -0.6911 -0.4236
H29 H 0.4943 -0.6941 -0.3820
C50 C 0.4065(5) -0.5939(5) 0.228(3)
H30 H 0.3945 -0.5878 0.3133
H31 H 0.3928 -0.5864 0.1485
H32 H 0.4290 -0.5823 0.2259
C51 C 0.4120(3) -0.6343(6) 0.222(3)
C52 C 0.3995(5) -0.6539(9) 0.329(3)
H33 H 0.3873 -0.6416 0.3976
C53 C 0.4025(3) -0.6930(9) 0.3521(14)
C54 C 0.3907(4) -0.7090(8) 0.4747(16)
H34 H 0.3937 -0.7340 0.4672
H35 H 0.3662 -0.7038 0.4881
H36 H 0.4039 -0.7004 0.5535
N2B N 0.3850(2) -0.7081(3) -0.0182(10)
Ni1C Ni 0.80170(5) -0.93707(4) 1.31828(15)
O11 O 0.489(2) -0.560(2) 0.555(10)
O12 O 0.5316(18) -0.5918(18) 0.613(7)
O13 O 0.8607(18) -0.6513(17) 0.138(8)
O14 O 0.884(2) -0.526(2) 0.683(10)
O15 O 0.474(4) -0.977(4) 0.119(18)
O16 O 0.414(2) -0.905(2) 0.270(9)
O17 O 0.6045(8) -0.5020(8) 0.538(4)
O18 O 0.5660(18) -0.5660(18) 0.2500
O19 O 0.889(3) -0.679(3) 0.010(11)
N3 N 0.9810(14) -0.7197(14) -0.093(6)
C55 C 0.9640(18) -0.6942(19) -0.127(9)
C56 C 0.9312(14) -0.6949(12) -0.213(5)
N4 N 0.7437(9) -0.7032(9) 0.247(4)
C57 C 0.7626(9) -0.6782(9) 0.214(4)
C58 C 0.7718(11) -0.6429(10) 0.138(5)
loop_
_geom_bond_atom_site_label_1
_geom_bond_atom_site_label_2
_geom_bond_site_symmetry_1
_geom_bond_site_symmetry_2
Ni1 O1 1_555 1_555
O1 C46 1_555 1_555
O2 Ni1 1_555 1_555
O3 Ni1 1_555 1_555
O4 Ni1 1_555 1_555
O5 C2 1_555 1_555
O6 C36 1_555 1_555
O7 C38 1_555 1_555
O8 C40 1_555 1_555
O9 C42 1_555 1_555
O10 C19 1_555 1_555
N1 Ni1 1_555 1_555
N2 C32 1_555 1_555
C1 C2 1_555 1_555
C2 C3 1_555 1_555
C3 H1 1_555 1_555
C4 C3 1_555 1_555
H2 C4 1_555 1_555
C5 H3 1_555 1_555
C6 C5 1_555 1_555
C7 C6 1_555 1_555
H4 C7 1_555 1_555
C8 C7 1_555 1_555
H5 C8 1_555 1_555
C9 C1 1_555 1_555
C10 C4 1_555 1_555
C11 C6 1_555 1_555
H6 C11 1_555 1_555
C12 C11 1_555 1_555
H7 C12 1_555 1_555
C13 C12 1_555 1_555
C14 C13 1_555 1_555
H8 C14 1_555 1_555
C15 N1 1_555 1_555
H9 C15 1_555 1_555
C16 N1 1_555 1_555
H10 C16 1_555 1_555
C17 C13 1_555 1_555
H11 C17 1_555 1_555
C18 C1 1_555 1_555
C19 C18 1_555 1_555
C20 C19 1_555 1_555
H12 C20 1_555 1_555
C21 C20 1_555 1_555
H13 C21 1_555 1_555
C22 H14 1_555 1_555
C23 C22 1_555 1_555
C24 C23 1_555 1_555
H15 C24 1_555 1_555
C25 C24 1_555 1_555
H16 C25 1_555 1_555
C26 C18 1_555 1_555
C27 C21 1_555 1_555
C28 C23 1_555 1_555
H17 C28 1_555 1_555
C29 C28 1_555 1_555
H18 C29 1_555 1_555
C30 C29 1_555 1_555
C31 C30 1_555 1_555
H19 C31 1_555 1_555
C32 C31 1_555 1_555
H20 C32 1_555 1_555
C33 N2 1_555 1_555
H21 C33 1_555 1_555
C34 C30 1_555 1_555
H22 C34 1_555 1_555
C35 O5 1_555 1_555
C36 C35 1_555 1_555
C37 O6 1_555 1_555
C38 C37 1_555 1_555
C39 O7 1_555 1_555
C40 C39 1_555 1_555
C41 O8 1_555 1_555
C42 C41 1_555 1_555
C43 O9 1_555 1_555
C44 O10 1_555 1_555
C45 H23 1_555 1_555
H24 C45 1_555 1_555
H25 C45 1_555 1_555
C46 C45 1_555 1_555
C47 C46 1_555 1_555
H26 C47 1_555 1_555
C48 O2 1_555 1_555
C49 C48 1_555 1_555
H27 C49 1_555 1_555
H28 C49 1_555 1_555
H29 C49 1_555 1_555
C50 H30 1_555 1_555
H31 C50 1_555 1_555
H32 C50 1_555 1_555
C51 O3 1_555 1_555
C52 C51 1_555 1_555
H33 C52 1_555 1_555
C53 O4 1_555 1_555
C54 C53 1_555 1_555
H34 C54 1_555 1_555
H35 C54 1_555 1_555
H36 C54 1_555 1_555
N3 C55 1_555 1_555
C55 C56 1_555 1_555
N4 C57 1_555 1_555
C57 C58 1_555 1_555
N2B Ni1 1_555 1_555
Ni1C N2 1_555 1_555
C5 C10 1_555 1_555
C8 C9 1_555 1_555
C9 C10 1_555 1_555
C14 C15 1_555 1_555
C16 C17 1_555 1_555
C22 C27 1_555 1_555
C25 C26 1_555 1_555
C26 C27 1_555 1_555
C33 C34 1_555 1_555
C43 C44 1_555 1_555
C47 C48 1_555 1_555
C50 C51 1_555 1_555
C52 C53 1_555 1_555

#END
