
#######################################################################
#
#                 Cambridge Crystallographic Data Centre
#                                CCDC 
#
#######################################################################
#
# If this CIF has been generated from an entry in the Cambridge 
# Structural Database, then it will include bibliographic, chemical, 
# crystal, experimental, refinement or atomic coordinate data resulting 
# from the CCDC's data processing and validation procedures.
#
#######################################################################

data_UHOVUK
_symmetry_cell_setting           orthorhombic
_symmetry_space_group_name_H-M   'P 21 21 21'
_symmetry_Int_Tables_number      19
_space_group_name_Hall           'P 2ac 2ab'
loop_
_symmetry_equiv_pos_site_id
_symmetry_equiv_pos_as_xyz
1 x,y,z
2 1/2-x,-y,1/2+z
3 -x,1/2+y,1/2-z
4 1/2+x,1/2-y,-z
_cell_length_a                   8.5931(5)
_cell_length_b                   10.4332(6)
_cell_length_c                   24.2289(13)
_cell_angle_alpha                90
_cell_angle_beta                 90
_cell_angle_gamma                90
_cell_volume                     2172.21
loop_
_atom_site_label
_atom_site_type_symbol
_atom_site_fract_x
_atom_site_fract_y
_atom_site_fract_z
V1 V 0.26776(9) 0.67476(7) 0.06570(3)
V2 V 0.60874(9) 0.55016(7) 0.24614(3)
Na1 Na 0.2589(3) 0.5949(2) 0.37195(8)
Na2 Na 0.6822(2) 0.60747(19) 0.39871(8)
O1 O 0.1969(4) 0.4897(3) 0.06282(13)
O2 O 0.1506(4) 0.3026(3) 0.10378(13)
O3 O 0.1901(4) 0.6220(3) 0.15150(13)
H1 H 0.144(7) 0.665(6) 0.174(2)
O4 O 0.4437(4) 0.4614(3) 0.17838(13)
H2 H 0.430(10) 0.521(6) 0.156(3)
O5 O 0.3911(4) 0.5566(3) 0.27649(12)
O6 O 0.1529(4) 0.4738(3) 0.28341(13)
O7 O 0.3321(4) 0.8425(3) 0.09465(14)
O8 O 0.5463(4) 0.9563(3) 0.11021(14)
O9 O 0.4692(4) 0.6226(3) 0.09486(13)
O10 O 0.5784(4) 0.7015(3) 0.20079(13)
O11 O 0.7632(4) 0.5102(3) 0.18731(13)
O12 O 0.8568(4) 0.5739(3) 0.10672(14)
O13 O 0.3025(4) 0.6861(3) 0.00106(13)
O14 O 0.0446(4) 0.7478(4) 0.06743(15)
H3 H 0.010(7) 0.785(5) 0.0401(18)
H4 H -0.024(5) 0.702(5) 0.082(2)
O15 O 0.7047(4) 0.6051(3) 0.29791(13)
O16 O 0.6240(4) 0.3611(3) 0.26497(14)
H5 H 0.554(6) 0.316(6) 0.280(3)
H6 H 0.708(6) 0.329(8) 0.276(3)
O17 O 0.1098(4) 0.7579(3) 0.33322(14)
H7 H 0.033(5) 0.753(5) 0.353(2)
H8 H 0.152(6) 0.827(3) 0.337(2)
O18 O 0.1833(5) 0.6387(4) 0.46490(15)
H9 H 0.0893 0.6173 0.4676
H10 H 0.2306 0.6211 0.4943
O19 O 0.4628(5) 0.7514(4) 0.38826(18)
H11 H 0.479(8) 0.798(6) 0.361(2)
H12 H 0.439(8) 0.789(6) 0.4178(18)
O20 O 0.6235(5) 0.6140(4) 0.49617(16)
H13 H 0.550(6) 0.575(6) 0.512(3)
H14 H 0.621(9) 0.686(4) 0.511(3)
O21 O 0.9493(5) 0.5180(4) 0.38141(19)
H15 H 0.9467 0.5197 0.4161
H16 H 0.9848 0.4443 0.3753
C1 C 0.1711(5) 0.4203(4) 0.10553(18)
C2 C 0.1652(5) 0.4882(4) 0.16122(18)
H17 H 0.0608 0.4751 0.1785
C3 C 0.2921(5) 0.4363(4) 0.19961(17)
H18 H 0.2790 0.3412 0.2022
C4 C 0.2750(5) 0.4921(4) 0.25787(18)
C5 C 0.4816(5) 0.8535(4) 0.10302(18)
C6 C 0.5723(5) 0.7277(4) 0.10137(18)
H19 H 0.6431 0.7300 0.0686
C7 C 0.6725(5) 0.7115(4) 0.15322(18)
H20 H 0.7419 0.7879 0.1571
C8 C 0.7731(5) 0.5915(4) 0.14717(19)
Na1_2 Na 1.2589(3) 0.5949(2) 0.37195(8)
Na1B Na 0.7411(3) 1.0949(2) 0.12805(8)
Na2B Na 0.3178(2) 0.10747(19) 0.10129(8)
Na2B_2 Na 0.3178(2) 1.10747(19) 0.10129(8)
O2B O 0.8494(4) 0.8026(3) 0.39622(13)
O7B O 0.6679(4) 0.3425(3) 0.40535(14)
O8B O 0.4537(4) 0.4563(3) 0.38979(14)
O21_2 O -0.0507(5) 0.5180(4) 0.38141(19)
O22 O 0.0613(4) 0.7750(3) 0.22330(14)
H21 H -0.015(5) 0.824(4) 0.222(2)
H22 H 0.077(6) 0.751(5) 0.2550(13)
O23 O 0.9224(6) 0.5632(5) 0.5239(2)
H23 H 0.826(4) 0.561(6) 0.515(3)
H24 H 0.940(6) 0.495(4) 0.541(3)
O24? O 0.9272(14) 0.4715(12) 0.4980(5)
loop_
_geom_bond_atom_site_label_1
_geom_bond_atom_site_label_2
_geom_bond_site_symmetry_1
_geom_bond_site_symmetry_2
V1 O1 1_555 1_555
V2 O4 1_555 1_555
Na1 O5 1_555 1_555
Na2 O15 1_555 1_555
O1 C1 1_555 1_555
O2 C1 1_555 1_555
O3 V1 1_555 1_555
H1 O3 1_555 1_555
O4 H2 1_555 1_555
O5 V2 1_555 1_555
O6 Na1 1_555 1_555
O7 V1 1_555 1_555
O8 C5 1_555 1_555
O9 V1 1_555 1_555
O10 V2 1_555 1_555
O11 V2 1_555 1_555
O12 C8 1_555 1_555
O13 V1 1_555 1_555
O14 V1 1_555 1_555
H3 O14 1_555 1_555
H4 O14 1_555 1_555
O15 V2 1_555 1_555
O16 V2 1_555 1_555
H5 O16 1_555 1_555
H6 O16 1_555 1_555
O17 Na1 1_555 1_555
H7 O17 1_555 1_555
H8 O17 1_555 1_555
O18 Na1 1_555 1_555
H9 O18 1_555 1_555
H10 O18 1_555 1_555
O19 Na1 1_555 1_555
H11 O19 1_555 1_555
H12 O19 1_555 1_555
O20 Na2 1_555 1_555
H13 O20 1_555 1_555
H14 O20 1_555 1_555
O21 Na2 1_555 1_555
H15 O21 1_555 1_555
H16 O21 1_555 1_555
C1 C2 1_555 1_555
C2 O3 1_555 1_555
H17 C2 1_555 1_555
C3 O4 1_555 1_555
H18 C3 1_555 1_555
C4 O5 1_555 1_555
C5 O7 1_555 1_555
C6 O9 1_555 1_555
H19 C6 1_555 1_555
C7 O10 1_555 1_555
H20 C7 1_555 1_555
C8 O11 1_555 1_555
O22 H21 1_555 1_555
H22 O22 1_555 1_555
O23 H23 1_555 1_555
H24 O23 1_555 1_555
Na1_2 O21 1_555 1_555
Na1B O8 1_555 1_555
Na2B O2 1_555 1_555
Na2B_2 O7 1_555 1_555
O2B Na2 1_555 1_555
O7B Na2 1_555 1_555
O8B Na1 1_555 1_555
O21_2 Na1 1_555 1_555
Na2 O19 1_555 1_555
Na2 O8B 1_555 1_555
O6 C4 1_555 1_555
O8 Na2B_2 1_555 1_555
C2 C3 1_555 1_555
C3 C4 1_555 1_555
C5 C6 1_555 1_555
C6 C7 1_555 1_555
C7 C8 1_555 1_555

#END
