
#######################################################################
#
#                 Cambridge Crystallographic Data Centre
#                                CCDC 
#
#######################################################################
#
# If this CIF has been generated from an entry in the Cambridge 
# Structural Database, then it will include bibliographic, chemical, 
# crystal, experimental, refinement or atomic coordinate data resulting 
# from the CCDC's data processing and validation procedures.
#
#######################################################################

data_UHOYIZ
_symmetry_cell_setting           orthorhombic
_symmetry_space_group_name_H-M   'C m c 21'
_symmetry_Int_Tables_number      36
_space_group_name_Hall           'C 2n -2'
loop_
_symmetry_equiv_pos_site_id
_symmetry_equiv_pos_as_xyz
1 x,y,z
2 -x,y,z
3 x,-y,1/2+z
4 -x,-y,1/2+z
5 1/2+x,1/2+y,z
6 1/2-x,1/2+y,z
7 1/2+x,1/2-y,1/2+z
8 1/2-x,1/2-y,1/2+z
_cell_length_a                   20.6660(12)
_cell_length_b                   6.8900(4)
_cell_length_c                   6.7513(4)
_cell_angle_alpha                90
_cell_angle_beta                 90
_cell_angle_gamma                90
_cell_volume                     961.309
loop_
_atom_site_label
_atom_site_type_symbol
_atom_site_fract_x
_atom_site_fract_y
_atom_site_fract_z
N1 N 0.1252(8) 0.3142(33) 0.598(15)
C1 C 0.0614(9) 0.2476(27) 0.521(16)
C2 C 0.00000 0.324(4) 0.616(17)
H1 H 0.12959 0.44243 0.57675
H2 H 0.12697 0.29366 0.72983
H3 H 0.06048 0.10864 0.52989
H4 H 0.05979 0.27984 0.38242
H5 H 0.00000 0.46336 0.60808
H6 H 0.00000 0.28936 0.75368
Cd1 Cd 0.20998(8) 0.14845(32) 0.444(15)
Se1 Se 0.18097(13) 0.2056(4) 0.070(15)
C1A C -0.0614(9) 0.2476(27) 0.521(16)
N1A N -0.1252(8) 0.3142(33) 0.598(15)
H1A H -0.12959 0.44243 0.57675
H2A H -0.12697 0.29366 0.72983
Cd1A Cd -0.20998(8) 0.14845(32) 0.444(15)
Se1A Se -0.18097(13) 0.2056(4) 0.070(15)
Cd1B Cd 0.20998(8) -0.14845(32) -0.056(15)
Se1C Se -0.18097(13) -0.2056(4) 0.570(15)
Se1F Se -0.31903(13) 0.2944(4) 0.570(15)
H3A H -0.06048 0.10864 0.52989
H4A H -0.05979 0.27984 0.38242
Se1G Se 0.31903(13) 0.2944(4) 0.570(15)
Cd1G Cd 0.29002(8) 0.35155(32) -0.056(15)
Se1B Se 0.18097(13) -0.2056(4) 0.570(15)
Cd1E Cd 0.29002(8) 0.64845(32) 0.444(15)
Cd1G_2 Cd 0.29002(8) 0.35155(32) 0.944(15)
loop_
_geom_bond_atom_site_label_1
_geom_bond_atom_site_label_2
_geom_bond_site_symmetry_1
_geom_bond_site_symmetry_2
N1 C1 1_555 1_555
C1 C2 1_555 1_555
C2 H5 1_555 1_555
H1 N1 1_555 1_555
H2 N1 1_555 1_555
H3 C1 1_555 1_555
H4 C1 1_555 1_555
H6 C2 1_555 1_555
Cd1 N1 1_555 1_555
Se1 Cd1 1_555 1_555
C1A C2 1_555 1_555
N1A C1A 1_555 1_555
H1A N1A 1_555 1_555
H2A N1A 1_555 1_555
Cd1A N1A 1_555 1_555
Se1A Cd1A 1_555 1_555
Cd1B Se1 1_555 1_555
Se1C Cd1A 1_555 1_555
Se1F Cd1A 1_555 1_555
H3A C1A 1_555 1_555
H4A C1A 1_555 1_555
Se1G Cd1 1_555 1_555
Cd1G Se1 1_555 1_555
Se1B Cd1 1_555 1_555
Cd1E Se1G 1_555 1_555
Cd1G_2 Se1G 1_555 1_555

#END
