
#######################################################################
#
#                 Cambridge Crystallographic Data Centre
#                                CCDC 
#
#######################################################################
#
# If this CIF has been generated from an entry in the Cambridge 
# Structural Database, then it will include bibliographic, chemical, 
# crystal, experimental, refinement or atomic coordinate data resulting 
# from the CCDC's data processing and validation procedures.
#
#######################################################################

data_UHOZUO
_symmetry_cell_setting           monoclinic
_symmetry_space_group_name_H-M   'P 21/n'
_symmetry_Int_Tables_number      14
_space_group_name_Hall           '-P 2yn'
loop_
_symmetry_equiv_pos_site_id
_symmetry_equiv_pos_as_xyz
1 x,y,z
2 1/2-x,1/2+y,1/2-z
3 -x,-y,-z
4 1/2+x,1/2-y,1/2+z
_cell_length_a                   15.9375(9)
_cell_length_b                   16.0198(9)
_cell_length_c                   23.1712(14)
_cell_angle_alpha                90
_cell_angle_beta                 91.9510(10)
_cell_angle_gamma                90
_cell_volume                     5912.54
loop_
_atom_site_label
_atom_site_type_symbol
_atom_site_fract_x
_atom_site_fract_y
_atom_site_fract_z
Cu1 Cu 0.53969(9) 0.05063(10) 0.23557(7)
Cu2 Cu 0.12982(10) -0.03331(10) 0.39410(7)
C1 C 0.5213(7) -0.2920(8) 0.0899(5)
H1 H 0.4986 -0.3387 0.0713
C2 C 0.5776(7) -0.2453(9) 0.0620(5)
H2 H 0.5923 -0.2593 0.0247
C3 C 0.6126(7) -0.1776(8) 0.0888(6)
H3 H 0.6522 -0.1457 0.0702
C4 C 0.5891(8) -0.1561(8) 0.1442(6)
H4 H 0.6124 -0.1097 0.1628
C5 C 0.5299(7) -0.2057(7) 0.1714(5)
C6 C 0.5490(10) 0.0911(10) 0.0282(6)
H5 H 0.5468 0.0984 -0.0116
C7 C 0.4305(7) -0.3304(8) 0.1691(5)
H6 H 0.4547 -0.3852 0.1761
H7 H 0.4137 -0.3080 0.2059
C8 C 0.3052(8) -0.2779(7) 0.1129(6)
H8 H 0.3066 -0.2227 0.1253
C9 C 0.2483(7) -0.3109(7) 0.0730(5)
H9 H 0.2044 -0.2840 0.0530
C10 C 0.2360(8) -0.4623(8) 0.0356(5)
C11 C 0.2723(6) -0.3934(7) 0.0698(5)
C12 C 0.4963(7) -0.2737(8) 0.1440(5)
C13 C 0.5029(9) -0.1756(8) 0.2319(6)
H10 H 0.4589 -0.1341 0.2270
H11 H 0.4799 -0.2225 0.2526
C14 C 0.6241(13) -0.1814(10) 0.2994(7)
H12 H 0.6227 -0.2383 0.3075
C15 C 0.6829(12) -0.1251(12) 0.3207(8)
H13 H 0.7302 -0.1355 0.3441
C16 C 0.6542(9) -0.0478(9) 0.2984(6)
C17 C 0.6221(8) 0.0566(8) 0.1138(6)
H14 H 0.6715 0.0379 0.1320
C18 C 0.4848(7) 0.0948(7) 0.1188(5)
C19 C 0.4154(6) 0.1093(6) 0.1571(5)
C20 C 0.6213(10) 0.0667(10) 0.0550(7)
H15 H 0.6693 0.0569 0.0342
C21 C 0.4771(9) 0.1055(8) 0.0599(6)
H16 H 0.4265 0.1215 0.0420
C22 C 0.3359(7) 0.1441(7) 0.1471(5)
H17 H 0.3128 0.1637 0.1123
C23 C 0.2997(7) 0.1433(7) 0.1990(6)
H18 H 0.2460 0.1620 0.2066
C24 C 0.3472(7) 0.0996(7) 0.2997(5)
H19 H 0.2911 0.1162 0.3100
H20 H 0.3866 0.1367 0.3196
C25 C 0.3628(6) 0.0120(7) 0.3209(4)
C26 C 0.4254(7) -0.0006(8) 0.3602(5)
H21 H 0.4585 0.0442 0.3724
C27 C 0.4414(7) -0.0784(10) 0.3829(6)
H22 H 0.4858 -0.0858 0.4096
C28 C 0.3279(9) -0.1327(7) 0.3275(5)
H23 H 0.2945 -0.1775 0.3156
C29 C 0.3115(7) -0.0540(7) 0.3052(5)
C30 C 0.2404(7) -0.0407(7) 0.2601(5)
H24 H 0.2211 0.0166 0.2621
H25 H 0.2617 -0.0498 0.2219
C31 C 0.3926(9) -0.1453(8) 0.3667(6)
H26 H 0.4032 -0.1981 0.3820
C32 C 0.2419(10) -0.6011(8) 0.0167(6)
H27 H 0.2663 -0.6532 0.0229
C33 C 0.1763(11) -0.5950(11) -0.0222(7)
H28 H 0.1557 -0.6424 -0.0410
C34 C 0.1416(11) -0.5204(11) -0.0333(7)
H29 H 0.0985 -0.5152 -0.0612
C35 C 0.1706(8) -0.4499(9) -0.0026(6)
H30 H 0.1463 -0.3976 -0.0080
C36 C 0.1365(8) -0.1543(8) 0.2326(5)
H31 H 0.1572 -0.1693 0.1970
C37 C 0.0673(7) -0.1870(8) 0.2571(5)
H32 H 0.0306 -0.2269 0.2416
C38 C 0.0635(7) -0.1471(7) 0.3112(5)
C39 C 0.0048(7) -0.1520(7) 0.3569(5)
C40 C -0.0621(7) -0.2066(7) 0.3550(5)
H33 H -0.0707 -0.2421 0.3236
C41 C -0.1157(7) -0.2080(9) 0.3998(7)
H34 H -0.1622 -0.2431 0.3990
C42 C -0.0991(8) -0.1558(9) 0.4467(6)
H35 H -0.1328 -0.1571 0.4786
C43 C -0.0315(9) -0.1020(9) 0.4449(6)
H36 H -0.0221 -0.0651 0.4754
C44 C 0.6847(8) 0.0361(10) 0.3069(5)
C45 C 0.6580(11) 0.1751(10) 0.2965(7)
H37 H 0.6229 0.2168 0.2815
C46 C 0.7279(14) 0.1998(15) 0.3253(10)
H38 H 0.7387 0.2554 0.3347
C47 C 0.7808(14) 0.1381(18) 0.3395(13)
H39 H 0.8338 0.1522 0.3546
C48 C 0.7611(11) 0.0519(13) 0.3329(8)
H40 H 0.7975 0.0097 0.3452
N1 N 0.3580(6) -0.3382(6) 0.1311(4)
N2 N 0.3380(5) -0.4102(5) 0.1042(4)
N3 N 0.5708(7) -0.1404(7) 0.2659(5)
N4 N 0.5860(6) -0.0588(6) 0.2647(4)
N5 N 0.6340(6) 0.0965(7) 0.2874(4)
N6 N 0.4282(5) 0.0907(5) 0.2131(4)
N7 N 0.5571(5) 0.0716(6) 0.1463(4)
N8 N 0.3549(5) 0.1106(5) 0.2375(4)
N9 N 0.2729(6) -0.5364(6) 0.0462(4)
N10 N 0.0209(6) -0.1006(6) 0.4012(4)
N11 N 0.1261(6) -0.0927(6) 0.3172(4)
N12 N 0.1695(6) -0.0968(6) 0.2687(4)
Cu2A Cu 0.37018(10) -0.53331(10) 0.10590(7)
N2A N 0.1620(5) 0.0898(5) 0.3958(4)
N9A N 0.2271(6) -0.0364(6) 0.4538(4)
W1 W 0.05599(3) 0.09909(3) 0.133456(19)
W2 W 0.11847(3) 0.03911(3) -0.12564(2)
W3 W 0.17310(3) 0.13872(3) 0.00744(2)
W4 W -0.01263(3) 0.19782(3) -0.07024(2)
W5 W 0.18729(3) -0.05815(3) 0.07717(2)
W6 W -0.12994(3) 0.15891(3) 0.05516(2)
P1 P 0.0000 0.0000 0.0000
O1 O 0.0841(4) 0.1460(4) 0.1953(3)
O2 O 0.1248(5) 0.1543(5) 0.0792(4)
O3 O -0.0342(5) 0.1671(5) 0.1049(4)
O4 O 0.0257(4) -0.0201(5) -0.1571(3)
O5 O 0.1344(5) 0.0099(5) 0.1312(3)
O6 O 0.1856(4) 0.0906(5) -0.0666(3)
O7 O 0.1617(5) -0.0667(5) -0.0984(4)
O8 O 0.0471(4) 0.1345(5) -0.1230(3)
O9 O 0.1743(5) 0.0559(6) -0.1831(3)
O10 O 0.2559(4) 0.2026(4) 0.0134(3)
O11 O 0.0886(4) 0.2079(5) -0.0247(3)
O12 O 0.2206(5) 0.0388(5) 0.0386(3)
O13 O 0.1117(4) -0.1441(5) 0.0970(3)
O14 O -0.0690(4) 0.2179(5) -0.0009(3)
O15 O -0.1924(4) 0.2333(5) 0.0802(4)
O16 O -0.0198(5) 0.2909(5) -0.1030(4)
O17 O 0.2743(4) -0.0862(4) 0.1143(3)
O18 O 0.1979(4) -0.1170(5) 0.0067(3)
O19 O -0.0542(7) 0.0726(7) -0.0158(5)
O20 O 0.0765(7) 0.0318(7) 0.0388(5)
O21 O 0.0349(7) -0.0388(8) -0.0543(5)
O22 O -0.0467(7) -0.0658(8) 0.0332(5)
O19B O 0.0542(7) -0.0726(7) 0.0158(5)
O20B O -0.0765(7) -0.0318(7) -0.0388(5)
O21B O -0.0349(7) 0.0388(8) 0.0543(5)
O22B O 0.0467(7) 0.0658(8) -0.0332(5)
W1B W -0.05599(3) -0.09909(3) -0.133456(19)
W2B W -0.11847(3) -0.03911(3) 0.12564(2)
W3B W -0.17310(3) -0.13872(3) -0.00744(2)
W4B W 0.01263(3) -0.19782(3) 0.07024(2)
W5B W -0.18729(3) 0.05815(3) -0.07717(2)
W6B W 0.12994(3) -0.15891(3) -0.05516(2)
O1B O -0.0841(4) -0.1460(4) -0.1953(3)
O2B O -0.1248(5) -0.1543(5) -0.0792(4)
O3B O 0.0342(5) -0.1671(5) -0.1049(4)
O4B O -0.0257(4) 0.0201(5) 0.1571(3)
O5B O -0.1344(5) -0.0099(5) -0.1312(3)
O6B O -0.1856(4) -0.0906(5) 0.0666(3)
O7B O -0.1617(5) 0.0667(5) 0.0984(4)
O8B O -0.0471(4) -0.1345(5) 0.1230(3)
O9B O -0.1743(5) -0.0559(6) 0.1831(3)
O10B O -0.2559(4) -0.2026(4) -0.0134(3)
O11B O -0.0886(4) -0.2079(5) 0.0247(3)
O12B O -0.2206(5) -0.0388(5) -0.0386(3)
O13B O -0.1117(4) 0.1441(5) -0.0970(3)
O14B O 0.0690(4) -0.2179(5) 0.0009(3)
O15B O 0.1924(4) -0.2333(5) -0.0802(4)
O16B O 0.0198(5) -0.2909(5) 0.1030(4)
O17B O -0.2743(4) 0.0862(4) -0.1143(3)
O18B O -0.1979(4) 0.1170(5) -0.0067(3)
loop_
_geom_bond_atom_site_label_1
_geom_bond_atom_site_label_2
_geom_bond_site_symmetry_1
_geom_bond_site_symmetry_2
W1 O1 1_555 1_555
W2 O4 1_555 1_555
W3 O2 1_555 1_555
W4 O8 1_555 1_555
W5 O5 1_555 1_555
W6 O3 1_555 1_555
P1 O19 1_555 1_555
O2 W1 1_555 1_555
O3 W1 1_555 1_555
O4 W1B 1_555 1_555
O5 W1 1_555 1_555
O6 W2 1_555 1_555
O7 W2 1_555 1_555
O8 W2 1_555 1_555
O9 W2 1_555 1_555
O10 W3 1_555 1_555
O11 W3 1_555 1_555
O12 W3 1_555 1_555
O13 W5 1_555 1_555
O14 W4 1_555 1_555
O15 W6 1_555 1_555
O16 W4 1_555 1_555
O17 W5 1_555 1_555
O18 W5 1_555 1_555
O19 W4 1_555 1_555
O20 W1 1_555 1_555
O21 W2 1_555 1_555
O22 P1 1_555 1_555
Cu1 N4 1_555 1_555
Cu2 N10 1_555 1_555
C1 H1 1_555 1_555
C2 C1 1_555 1_555
H2 C2 1_555 1_555
C3 C2 1_555 1_555
H3 C3 1_555 1_555
C4 C3 1_555 1_555
H4 C4 1_555 1_555
C5 C4 1_555 1_555
C6 H5 1_555 1_555
C7 H6 1_555 1_555
H7 C7 1_555 1_555
C8 H8 1_555 1_555
C9 C8 1_555 1_555
H9 C9 1_555 1_555
C10 C11 1_555 1_555
C11 C9 1_555 1_555
C12 C1 1_555 1_555
C13 C5 1_555 1_555
H10 C13 1_555 1_555
H11 C13 1_555 1_555
C14 H12 1_555 1_555
C15 C14 1_555 1_555
H13 C15 1_555 1_555
C16 C15 1_555 1_555
C17 H14 1_555 1_555
C18 C19 1_555 1_555
C19 C22 1_555 1_555
C20 C6 1_555 1_555
H15 C20 1_555 1_555
C21 C6 1_555 1_555
H16 C21 1_555 1_555
C22 H17 1_555 1_555
C23 C22 1_555 1_555
H18 C23 1_555 1_555
C24 H19 1_555 1_555
H20 C24 1_555 1_555
C25 C24 1_555 1_555
C26 C25 1_555 1_555
H21 C26 1_555 1_555
C27 C26 1_555 1_555
H22 C27 1_555 1_555
C28 H23 1_555 1_555
C29 C25 1_555 1_555
C30 C29 1_555 1_555
H24 C30 1_555 1_555
H25 C30 1_555 1_555
C31 C27 1_555 1_555
H26 C31 1_555 1_555
C32 H27 1_555 1_555
C33 C32 1_555 1_555
H28 C33 1_555 1_555
C34 C33 1_555 1_555
H29 C34 1_555 1_555
C35 C10 1_555 1_555
H30 C35 1_555 1_555
C36 H31 1_555 1_555
C37 C36 1_555 1_555
H32 C37 1_555 1_555
C38 C37 1_555 1_555
C39 C38 1_555 1_555
C40 C39 1_555 1_555
H33 C40 1_555 1_555
C41 C40 1_555 1_555
H34 C41 1_555 1_555
C42 C41 1_555 1_555
H35 C42 1_555 1_555
C43 C42 1_555 1_555
H36 C43 1_555 1_555
C44 C16 1_555 1_555
C45 H37 1_555 1_555
C46 C45 1_555 1_555
H38 C46 1_555 1_555
C47 C46 1_555 1_555
H39 C47 1_555 1_555
C48 C44 1_555 1_555
H40 C48 1_555 1_555
N1 C7 1_555 1_555
N2 C11 1_555 1_555
N3 C13 1_555 1_555
N4 C16 1_555 1_555
N5 Cu1 1_555 1_555
N6 Cu1 1_555 1_555
N7 Cu1 1_555 1_555
N8 C23 1_555 1_555
N9 C10 1_555 1_555
N10 C39 1_555 1_555
N11 Cu2 1_555 1_555
N12 C30 1_555 1_555
O19B P1 1_555 1_555
O20B P1 1_555 1_555
O21B W1 1_555 1_555
O22B W2 1_555 1_555
W1B O21 1_555 1_555
W2B O22 1_555 1_555
W3B O22 1_555 1_555
W4B O13 1_555 1_555
W5B O20B 1_555 1_555
W6B O7 1_555 1_555
O1B W1B 1_555 1_555
O2B W1B 1_555 1_555
O3B W1B 1_555 1_555
O4B W1 1_555 1_555
O5B W1B 1_555 1_555
O6B W2B 1_555 1_555
O7B W6 1_555 1_555
O8B W2B 1_555 1_555
O9B W2B 1_555 1_555
O10B W3B 1_555 1_555
O11B W3B 1_555 1_555
O12B W3B 1_555 1_555
O13B W4 1_555 1_555
O14B W4B 1_555 1_555
O15B W6B 1_555 1_555
O16B W4B 1_555 1_555
O17B W5B 1_555 1_555
O18B W6 1_555 1_555
Cu2A N2 1_555 1_555
N2A Cu2 1_555 1_555
N9A Cu2 1_555 1_555
W3 O6 1_555 1_555
W3 O20 1_555 1_555
W3 O22B 1_555 1_555
W4 O11 1_555 1_555
W4 O22B 1_555 1_555
W5 O12 1_555 1_555
W5 O20 1_555 1_555
W6 O14 1_555 1_555
W6 O19 1_555 1_555
W6 O21B 1_555 1_555
P1 O20 1_555 1_555
P1 O21 1_555 1_555
P1 O21B 1_555 1_555
P1 O22B 1_555 1_555
O18 W6B 1_555 1_555
O19 O20B 1_555 1_555
O19 O21B 1_555 1_555
O19 O22B 1_555 1_555
O20 O19B 1_555 1_555
O20 O22B 1_555 1_555
O21 O19B 1_555 1_555
O21 O22B 1_555 1_555
O21 W6B 1_555 1_555
O22 O19B 1_555 1_555
O22 O20B 1_555 1_555
O22 O21B 1_555 1_555
O22 W4B 1_555 1_555
C5 C12 1_555 1_555
C7 C12 1_555 1_555
C8 N1 1_555 1_555
C14 N3 1_555 1_555
C17 C20 1_555 1_555
C17 N7 1_555 1_555
C18 C21 1_555 1_555
C18 N7 1_555 1_555
C19 N6 1_555 1_555
C24 N8 1_555 1_555
C28 C29 1_555 1_555
C28 C31 1_555 1_555
C32 N9 1_555 1_555
C34 C35 1_555 1_555
C36 N12 1_555 1_555
C38 N11 1_555 1_555
C43 N10 1_555 1_555
C44 N5 1_555 1_555
C45 N5 1_555 1_555
C47 C48 1_555 1_555
N1 N2 1_555 1_555
N3 N4 1_555 1_555
N6 N8 1_555 1_555
N9 Cu2A 1_555 1_555
N11 N12 1_555 1_555
O19B W4B 1_555 1_555
O19B W6B 1_555 1_555
O20B W1B 1_555 1_555
O20B W3B 1_555 1_555
O21B W2B 1_555 1_555
W2B O4B 1_555 1_555
W2B O7B 1_555 1_555
W3B O2B 1_555 1_555
W3B O6B 1_555 1_555
W4B O8B 1_555 1_555
W4B O11B 1_555 1_555
W5B O5B 1_555 1_555
W5B O12B 1_555 1_555
W5B O13B 1_555 1_555
W5B O18B 1_555 1_555
W6B O3B 1_555 1_555
W6B O14B 1_555 1_555

#END
