
#######################################################################
#
#                 Cambridge Crystallographic Data Centre
#                                CCDC 
#
#######################################################################
#
# If this CIF has been generated from an entry in the Cambridge 
# Structural Database, then it will include bibliographic, chemical, 
# crystal, experimental, refinement or atomic coordinate data resulting 
# from the CCDC's data processing and validation procedures.
#
#######################################################################

data_UHUBOQ
_symmetry_cell_setting           monoclinic
_symmetry_space_group_name_H-M   'P 21/n'
_symmetry_Int_Tables_number      14
_space_group_name_Hall           '-P 2yn'
loop_
_symmetry_equiv_pos_site_id
_symmetry_equiv_pos_as_xyz
1 x,y,z
2 1/2-x,1/2+y,1/2-z
3 -x,-y,-z
4 1/2+x,1/2-y,1/2+z
_cell_length_a                   17.47(2)
_cell_length_b                   18.16(2)
_cell_length_c                   28.00(3)
_cell_angle_alpha                90
_cell_angle_beta                 97.96(2)
_cell_angle_gamma                90
_cell_volume                     8797.56
loop_
_atom_site_label
_atom_site_type_symbol
_atom_site_fract_x
_atom_site_fract_y
_atom_site_fract_z
Zn1 Zn -0.19740(5) 0.22936(6) 0.63585(3)
Cl1 Cl -0.21519(12) 0.18532(16) 0.70907(8)
Cl2 Cl -0.31435(13) 0.22458(18) 0.58790(8)
Cl3 Cl -0.15849(17) 0.34944(17) 0.63851(9)
Cl4 Cl -0.10511(16) 0.15833(19) 0.60931(10)
Zn2 Zn -0.62619(9) 0.40448(10) 0.45548(6)
Cl5 Cl -0.63606(15) 0.3526(2) 0.37781(8)
Cl6 Cl -0.54657(13) 0.32163(15) 0.50542(7)
Cl7 Cl -0.73835(14) 0.40917(17) 0.47713(8)
Cl8 Cl -0.5748(3) 0.5182(3) 0.4601(2)
O1 O -0.2141(3) -0.0837(3) 0.27511(19)
O2 O -0.0936(5) -0.0291(4) 0.3641(2)
O3 O -0.0188(5) 0.0896(4) 0.3351(3)
O4 O -0.1670(5) 0.0968(6) 0.3039(3)
O5 O -0.1744(5) 0.0978(6) 0.4039(4)
Ba1 Ba -0.06774(3) -0.01370(3) 0.264432(19)
Ba2 Ba -0.26433(4) -0.01080(3) 0.35714(2)
C1 C -0.2035(4) 0.0894(4) 0.1656(3)
C2 C -0.2946(4) 0.1552(4) 0.1122(2)
H1 H -0.3256 0.1298 0.0848
C3 C -0.2135(4) 0.1721(4) 0.1009(2)
H2 H -0.2077 0.1583 0.0674
C4 C -0.2735(5) 0.2811(4) 0.1188(2)
C5 C -0.0833(5) 0.1125(4) 0.1324(3)
H3 H -0.0761 0.1117 0.0983
H4 H -0.0706 0.0634 0.1458
C6 C -0.1391(5) 0.2919(4) 0.0977(3)
H5 H -0.1554 0.3430 0.0910
H6 H -0.1225 0.2721 0.0682
C7 C 0.0114(4) 0.1513(4) 0.2016(3)
C8 C -0.0116(4) 0.2375(4) 0.1372(3)
H7 H 0.0065 0.2316 0.1055
C9 C 0.0539(4) 0.2714(4) 0.1766(3)
H8 H 0.1032 0.2795 0.1638
C10 C -0.0519(5) 0.3537(4) 0.1654(2)
C11 C 0.1245(4) 0.2090(4) 0.2521(3)
H9 H 0.1717 0.2201 0.2382
H10 H 0.1290 0.1584 0.2645
C12 C 0.0660(5) 0.3963(3) 0.2166(2)
H11 H 0.0403 0.4438 0.2095
H12 H 0.1162 0.3985 0.2048
C13 C 0.1060(5) 0.2339(5) 0.3362(3)
C14 C 0.1399(4) 0.3366(4) 0.2927(2)
H13 H 0.1899 0.3448 0.2806
C15 C 0.1438(4) 0.3594(4) 0.3457(2)
H14 H 0.1971 0.3718 0.3602
C16 C 0.0557(4) 0.4369(4) 0.2995(2)
C17 C 0.1183(4) 0.2846(4) 0.4193(3)
H15 H 0.1602 0.3148 0.4359
H16 H 0.1283 0.2331 0.4286
C18 C 0.0831(4) 0.4646(4) 0.3869(2)
H17 H 0.0746 0.5164 0.3778
H18 H 0.1300 0.4616 0.4104
C19 C 0.0206(4) 0.2886(4) 0.4762(3)
C20 C -0.0088(3) 0.3607(3) 0.4071(2)
H19 H -0.0259 0.3443 0.3737
C21 C -0.0767(4) 0.3626(3) 0.4373(2)
H20 H -0.1243 0.3416 0.4191
C22 C -0.0293(4) 0.4828(4) 0.4312(2)
C23 C -0.0918(4) 0.3036(4) 0.5198(2)
H21 H -0.0765 0.2555 0.5340
H22 H -0.0789 0.3412 0.5447
C24 C -0.1397(4) 0.4697(4) 0.4768(2)
H23 H -0.1536 0.5203 0.4671
H24 H -0.1150 0.4706 0.5104
C25 C -0.2164(4) 0.2433(4) 0.4856(2)
C26 C -0.2223(4) 0.3680(3) 0.5059(2)
H25 H -0.2199 0.3872 0.5391
C27 C -0.3051(4) 0.3382(3) 0.4859(2)
H26 H -0.3404 0.3421 0.5106
C28 C -0.2735(4) 0.4360(4) 0.4383(2)
C29 C -0.3532(4) 0.2080(3) 0.4657(2)
H27 H -0.3907 0.2171 0.4881
H28 H -0.3309 0.1591 0.4728
C30 C -0.4073(4) 0.3918(3) 0.4207(2)
H29 H -0.4133 0.4390 0.4036
H30 H -0.4431 0.3915 0.4447
C31 C -0.3926(4) 0.1484(4) 0.3861(3)
C32 C -0.4565(4) 0.2608(4) 0.3998(2)
H31 H -0.4936 0.2653 0.4234
C33 C -0.4937(4) 0.2271(4) 0.3527(2)
H32 H -0.5493 0.2169 0.3533
C34 C -0.4496(3) 0.3453(4) 0.3376(2)
C35 C -0.4717(4) 0.1035(4) 0.3112(2)
H33 H -0.4483 0.0564 0.3224
H34 H -0.5279 0.0972 0.3063
C36 C -0.5263(4) 0.2843(4) 0.2684(2)
H35 H -0.5780 0.2640 0.2695
H36 H -0.5323 0.3354 0.2574
C37 C -0.3869(4) 0.0869(4) 0.2504(2)
C38 C -0.4925(4) 0.1641(3) 0.2279(2)
H37 H -0.5464 0.1459 0.2227
C39 C -0.4525(4) 0.1504(3) 0.1845(2)
H38 H -0.4872 0.1258 0.1584
C40 C -0.4536(4) 0.2770(4) 0.2004(3)
C41 C -0.3403(4) 0.0645(4) 0.1717(2)
H39 H -0.3158 0.0225 0.1897
H40 H -0.3747 0.0449 0.1440
C42 C -0.4058(4) 0.2418(4) 0.1229(2)
H41 H -0.4375 0.2132 0.0979
H42 H -0.4157 0.2941 0.1157
N1 N -0.2814(4) 0.1076(3) 0.15407(18)
N2 N -0.1622(4) 0.1283(3) 0.1360(2)
N3 N -0.3268(3) 0.2269(3) 0.12039(19)
N4 N -0.2058(4) 0.2497(3) 0.1083(2)
N5 N -0.0298(3) 0.1666(3) 0.1580(2)
N6 N 0.0599(3) 0.2128(3) 0.2147(2)
N7 N -0.0728(3) 0.2920(3) 0.1357(2)
N8 N 0.0196(4) 0.3391(3) 0.19027(19)
N9 N 0.1199(3) 0.2588(3) 0.2925(2)
N10 N 0.1155(3) 0.2925(3) 0.3674(2)
N11 N 0.0790(3) 0.3859(3) 0.26882(19)
N12 N 0.0934(3) 0.4218(3) 0.34448(19)
N13 N 0.0436(3) 0.3084(3) 0.4333(2)
N14 N -0.0490(3) 0.3181(3) 0.47905(18)
N15 N 0.0171(3) 0.4375(3) 0.4087(2)
N16 N -0.0859(3) 0.4408(3) 0.44658(19)
N17 N -0.1737(3) 0.3042(3) 0.50383(18)
N18 N -0.2928(3) 0.2621(3) 0.47377(18)
N19 N -0.2102(3) 0.4241(3) 0.47282(17)
N20 N -0.3296(3) 0.3868(3) 0.44535(17)
N21 N -0.3936(3) 0.2088(3) 0.41640(19)
N22 N -0.4507(3) 0.1595(3) 0.34802(18)
N23 N -0.4287(3) 0.3328(3) 0.38617(17)
N24 N -0.4830(3) 0.2832(3) 0.31715(17)
N25 N -0.4460(3) 0.1234(3) 0.26564(19)
N26 N -0.3862(3) 0.1039(3) 0.2023(2)
N27 N -0.4898(3) 0.2433(3) 0.2344(2)
N28 N -0.4303(3) 0.2248(3) 0.17001(19)
O6 O -0.1763(3) 0.0474(3) 0.19807(17)
O7 O 0.0106(3) 0.0965(3) 0.2257(2)
O8 O 0.0872(4) 0.1705(3) 0.3455(2)
O9 O 0.0571(3) 0.2450(3) 0.50584(16)
O10 O -0.1885(3) 0.1805(3) 0.48096(19)
O11 O -0.3506(3) 0.0940(3) 0.39249(17)
O12 O -0.3397(3) 0.0442(3) 0.27335(16)
O13 O -0.2836(3) 0.3481(3) 0.12466(18)
O14 O -0.0913(3) 0.4085(3) 0.16652(17)
O15 O 0.0103(3) 0.4866(3) 0.28866(17)
O16 O -0.0230(2) 0.5510(3) 0.43516(16)
O17 O -0.2762(3) 0.4838(3) 0.40657(16)
O18 O -0.4396(3) 0.4040(3) 0.31670(16)
O19 O -0.4420(3) 0.3442(2) 0.19675(17)
Ba1A Ba -0.43226(3) 0.48630(3) 0.235568(19)
Ba2A Ba -0.23567(4) 0.48920(3) 0.14286(2)
O13A O -0.2164(3) -0.1519(3) 0.37534(18)
O14A O -0.4087(3) -0.0915(3) 0.33348(17)
O18A O -0.0604(3) -0.0960(3) 0.18330(16)
O19A O -0.0580(3) -0.1558(2) 0.30325(17)
Zn3? Zn -0.65588(12) 0.31789(15) 0.45355(8)
Cl9? Cl -0.7056(4) 0.2027(4) 0.4552(5)
loop_
_geom_bond_atom_site_label_1
_geom_bond_atom_site_label_2
_geom_bond_site_symmetry_1
_geom_bond_site_symmetry_2
O1 Ba1 1_555 1_555
O2 Ba1 1_555 1_555
O3 Ba1 1_555 1_555
O4 Ba1 1_555 1_555
O5 Ba2 1_555 1_555
Ba1 O6 1_555 1_555
Ba2 O1 1_555 1_555
C1 N1 1_555 1_555
C2 H1 1_555 1_555
C3 C2 1_555 1_555
H2 C3 1_555 1_555
C4 N3 1_555 1_555
C5 H3 1_555 1_555
H4 C5 1_555 1_555
C6 H5 1_555 1_555
H6 C6 1_555 1_555
C7 N5 1_555 1_555
C8 H7 1_555 1_555
C9 C8 1_555 1_555
H8 C9 1_555 1_555
C10 N7 1_555 1_555
C11 H9 1_555 1_555
H10 C11 1_555 1_555
C12 H11 1_555 1_555
H12 C12 1_555 1_555
C13 N9 1_555 1_555
C14 H13 1_555 1_555
C15 C14 1_555 1_555
H14 C15 1_555 1_555
C16 N11 1_555 1_555
C17 H15 1_555 1_555
H16 C17 1_555 1_555
C18 H17 1_555 1_555
H18 C18 1_555 1_555
C19 N13 1_555 1_555
C20 H19 1_555 1_555
C21 C20 1_555 1_555
H20 C21 1_555 1_555
C22 N15 1_555 1_555
C23 H21 1_555 1_555
H22 C23 1_555 1_555
C24 H23 1_555 1_555
H24 C24 1_555 1_555
C25 N17 1_555 1_555
C26 H25 1_555 1_555
C27 C26 1_555 1_555
H26 C27 1_555 1_555
C28 N19 1_555 1_555
C29 H27 1_555 1_555
H28 C29 1_555 1_555
C30 H29 1_555 1_555
H30 C30 1_555 1_555
C31 N21 1_555 1_555
C32 H31 1_555 1_555
C33 C32 1_555 1_555
H32 C33 1_555 1_555
C34 N23 1_555 1_555
C35 H33 1_555 1_555
H34 C35 1_555 1_555
C36 H35 1_555 1_555
H36 C36 1_555 1_555
C37 N25 1_555 1_555
C38 H37 1_555 1_555
C39 C38 1_555 1_555
H38 C39 1_555 1_555
C40 N27 1_555 1_555
C41 H39 1_555 1_555
H40 C41 1_555 1_555
C42 H41 1_555 1_555
H42 C42 1_555 1_555
N1 C2 1_555 1_555
N2 C1 1_555 1_555
N3 C2 1_555 1_555
N4 C3 1_555 1_555
N5 C5 1_555 1_555
N6 C7 1_555 1_555
N7 C6 1_555 1_555
N8 C9 1_555 1_555
N9 C11 1_555 1_555
N10 C13 1_555 1_555
N11 C12 1_555 1_555
N12 C15 1_555 1_555
N13 C17 1_555 1_555
N14 C19 1_555 1_555
N15 C18 1_555 1_555
N16 C21 1_555 1_555
N17 C23 1_555 1_555
N18 C25 1_555 1_555
N19 C24 1_555 1_555
N20 C27 1_555 1_555
N21 C29 1_555 1_555
N22 C31 1_555 1_555
N23 C30 1_555 1_555
N24 C33 1_555 1_555
N25 C35 1_555 1_555
N26 C37 1_555 1_555
N27 C36 1_555 1_555
N28 C39 1_555 1_555
O6 C1 1_555 1_555
O7 Ba1 1_555 1_555
O8 C13 1_555 1_555
O9 C19 1_555 1_555
O10 C25 1_555 1_555
O11 Ba2 1_555 1_555
O12 Ba2 1_555 1_555
O13 C4 1_555 1_555
O14 C10 1_555 1_555
O15 C16 1_555 1_555
O16 C22 1_555 1_555
O17 C28 1_555 1_555
O18 C34 1_555 1_555
O19 C40 1_555 1_555
Zn1 Cl1 1_555 1_555
Cl2 Zn1 1_555 1_555
Cl3 Zn1 1_555 1_555
Cl4 Zn1 1_555 1_555
Zn2 Cl5 1_555 1_555
Cl6 Zn2 1_555 1_555
Cl7 Zn2 1_555 1_555
Cl8 Zn2 1_555 1_555
Ba1A O18 1_555 1_555
Ba2A O13 1_555 1_555
O13A Ba2 1_555 1_555
O14A Ba2 1_555 1_555
O18A Ba1 1_555 1_555
O19A Ba1 1_555 1_555
O2 Ba2 1_555 1_555
O4 Ba2 1_555 1_555
C3 N2 1_555 1_555
C4 N4 1_555 1_555
C5 N2 1_555 1_555
C6 N4 1_555 1_555
C7 O7 1_555 1_555
C8 N5 1_555 1_555
C8 N7 1_555 1_555
C9 N6 1_555 1_555
C10 N8 1_555 1_555
C11 N6 1_555 1_555
C12 N8 1_555 1_555
C14 N9 1_555 1_555
C14 N11 1_555 1_555
C15 N10 1_555 1_555
C16 N12 1_555 1_555
C17 N10 1_555 1_555
C18 N12 1_555 1_555
C20 N13 1_555 1_555
C20 N15 1_555 1_555
C21 N14 1_555 1_555
C22 N16 1_555 1_555
C23 N14 1_555 1_555
C24 N16 1_555 1_555
C26 N17 1_555 1_555
C26 N19 1_555 1_555
C27 N18 1_555 1_555
C28 N20 1_555 1_555
C29 N18 1_555 1_555
C30 N20 1_555 1_555
C31 O11 1_555 1_555
C32 N21 1_555 1_555
C32 N23 1_555 1_555
C33 N22 1_555 1_555
C34 N24 1_555 1_555
C35 N22 1_555 1_555
C36 N24 1_555 1_555
C37 O12 1_555 1_555
C38 N25 1_555 1_555
C38 N27 1_555 1_555
C39 N26 1_555 1_555
C40 N28 1_555 1_555
C41 N1 1_555 1_555
C41 N26 1_555 1_555
C42 N3 1_555 1_555
C42 N28 1_555 1_555
O14 Ba2A 1_555 1_555
O19 Ba1A 1_555 1_555

#END
