
#######################################################################
#
#                 Cambridge Crystallographic Data Centre
#                                CCDC 
#
#######################################################################
#
# If this CIF has been generated from an entry in the Cambridge 
# Structural Database, then it will include bibliographic, chemical, 
# crystal, experimental, refinement or atomic coordinate data resulting 
# from the CCDC's data processing and validation procedures.
#
#######################################################################

data_UHUBUW
_symmetry_cell_setting           monoclinic
_symmetry_space_group_name_H-M   'P 21/n'
_symmetry_Int_Tables_number      14
_space_group_name_Hall           '-P 2yn'
loop_
_symmetry_equiv_pos_site_id
_symmetry_equiv_pos_as_xyz
1 x,y,z
2 1/2-x,1/2+y,1/2-z
3 -x,-y,-z
4 1/2+x,1/2-y,1/2+z
_cell_length_a                   17.4374(14)
_cell_length_b                   18.0365(14)
_cell_length_c                   28.179(2)
_cell_angle_alpha                90
_cell_angle_beta                 98.338(3)
_cell_angle_gamma                90
_cell_volume                     8768.89
loop_
_atom_site_label
_atom_site_type_symbol
_atom_site_fract_x
_atom_site_fract_y
_atom_site_fract_z
Cd1 Cd 0.30202(4) 0.27398(5) 0.63533(3)
Cl1 Cl 0.28193(15) 0.3184(2) 0.71445(9)
Cl2 Cl 0.34584(19) 0.14414(19) 0.63697(10)
Cl3 Cl 0.17464(16) 0.2730(2) 0.58612(9)
Cl4 Cl 0.40089(19) 0.3509(2) 0.60749(11)
Cd2 Cd 0.87461(8) 0.09746(9) 0.45547(5)
Cl5 Cl 0.96124(15) 0.18780(19) 0.50801(9)
Cl6 Cl 0.75535(17) 0.0955(2) 0.47835(10)
Cl7 Cl 0.8623(2) 0.1488(3) 0.37087(12)
Cl8 Cl 0.9266(4) -0.0244(4) 0.4607(3)
O1 O 0.2168(3) 0.0844(3) 0.2266(2)
O2 O 0.1692(5) -0.0959(5) 0.1966(3)
O3 O 0.0937(5) 0.0320(4) 0.1380(3)
O4 O 0.2790(15) 0.0363(6) 0.0498(3)
O5 O -0.0780(7) 0.0195(9) 0.1959(7)
Ba1 Ba 0.26261(4) 0.01123(3) 0.14487(2)
Ba2 Ba 0.07072(4) 0.01557(3) 0.23709(2)
C1 C 0.0510(4) 0.1549(4) 0.3381(3)
C2 C 0.0453(4) 0.2405(4) 0.3995(2)
H1 H 0.0086 0.2366 0.4231
C3 C 0.0070(4) 0.2743(4) 0.3514(3)
H2 H -0.0486 0.2849 0.3518
C4 C 0.1070(5) 0.3515(4) 0.3841(3)
C5 C -0.0263(4) 0.2172(4) 0.2688(3)
H3 H -0.0775 0.2389 0.2701
H4 H -0.0340 0.1657 0.2580
C6 C 0.0295(5) 0.3966(4) 0.3100(3)
H5 H 0.0520 0.4445 0.3211
H6 H -0.0270 0.4022 0.3049
C7 C 0.0480(4) 0.2223(4) 0.1997(3)
C8 C 0.0074(4) 0.3369(4) 0.2275(2)
H7 H -0.0468 0.3549 0.2224
C9 C 0.0473(4) 0.3500(4) 0.1840(2)
H8 H 0.0124 0.3750 0.1580
C10 C 0.1131(5) 0.4142(4) 0.2483(3)
C11 C 0.0940(5) 0.2595(4) 0.1232(2)
H9 H 0.0838 0.2070 0.1159
H10 H 0.0624 0.2885 0.0983
C12 C 0.1581(5) 0.4374(4) 0.1717(3)
H11 H 0.1831 0.4790 0.1903
H12 H 0.1231 0.4581 0.1446
C13 C 0.2269(5) 0.2186(5) 0.1200(2)
C14 C 0.2018(5) 0.3460(4) 0.1119(3)
H13 H 0.1701 0.3714 0.0847
C15 C 0.2856(5) 0.3285(4) 0.1012(3)
H14 H 0.2922 0.3413 0.0678
C16 C 0.2932(5) 0.4101(4) 0.1648(3)
C17 C 0.3588(5) 0.2070(4) 0.1001(3)
H15 H 0.3426 0.1554 0.0942
H16 H 0.3749 0.2261 0.0705
C18 C 0.4168(5) 0.3859(4) 0.1333(3)
H17 H 0.4249 0.3853 0.0996
H18 H 0.4305 0.4354 0.1461
C19 C 0.4440(5) 0.1462(5) 0.1671(3)
C20 C 0.4871(5) 0.2613(4) 0.1399(3)
H19 H 0.5065 0.2668 0.1088
C21 C 0.5499(5) 0.2298(4) 0.1789(3)
H20 H 0.5996 0.2208 0.1668
C22 C 0.5081(5) 0.3469(5) 0.2021(3)
C23 C 0.5619(5) 0.1051(4) 0.2196(3)
H21 H 0.5374 0.0566 0.2127
H22 H 0.6125 0.1040 0.2083
C24 C 0.6210(5) 0.2906(5) 0.2534(3)
H23 H 0.6274 0.3419 0.2647
H24 H 0.6679 0.2768 0.2401
C25 C 0.5515(4) 0.0649(4) 0.3020(3)
C26 C 0.6348(5) 0.1650(4) 0.2941(3)
H25 H 0.6849 0.1566 0.2823
C27 C 0.6382(4) 0.1436(5) 0.3483(3)
H26 H 0.6918 0.1319 0.3632
C28 C 0.6022(5) 0.2679(5) 0.3377(3)
C29 C 0.5789(5) 0.0371(4) 0.3884(3)
H27 H 0.5699 -0.0150 0.3794
H28 H 0.6264 0.0398 0.4117
C30 C 0.6144(5) 0.2192(5) 0.4199(3)
H29 H 0.6224 0.2718 0.4280
H30 H 0.6582 0.1911 0.4368
C31 C 0.4679(4) 0.0184(4) 0.4324(3)
C32 C 0.4871(4) 0.1405(4) 0.4084(3)
H31 H 0.4698 0.1575 0.3751
C33 C 0.4193(4) 0.1387(4) 0.4390(2)
H32 H 0.3713 0.1602 0.4213
C34 C 0.5173(5) 0.2147(4) 0.4774(3)
C35 C 0.3575(4) 0.0317(4) 0.4776(3)
H33 H 0.3825 0.0318 0.5111
H34 H 0.3438 -0.0196 0.4686
C36 C 0.4065(4) 0.1964(4) 0.5198(3)
H35 H 0.4230 0.2444 0.5341
H36 H 0.4193 0.1581 0.5443
C37 C 0.2253(4) 0.0661(4) 0.4388(3)
C38 C 0.2749(4) 0.1325(4) 0.5058(2)
H37 H 0.2767 0.1130 0.5388
C39 C 0.1933(4) 0.1624(4) 0.4854(2)
H38 H 0.1570 0.1594 0.5094
C40 C 0.2841(5) 0.2563(5) 0.4864(2)
C41 C 0.0921(4) 0.1098(4) 0.4193(3)
H39 H 0.0556 0.1100 0.4427
H40 H 0.0866 0.0621 0.4025
C42 C 0.1476(5) 0.2926(4) 0.4637(3)
H41 H 0.1704 0.3418 0.4705
H42 H 0.1099 0.2842 0.4858
N1 N 0.0708(3) 0.1680(3) 0.3851(2)
N2 N 0.0175(3) 0.2177(3) 0.31647(19)
N3 N 0.1073(3) 0.2916(3) 0.4147(2)
N4 N 0.0507(4) 0.3420(3) 0.3472(2)
N5 N 0.0114(4) 0.2582(3) 0.2339(2)
N6 N 0.0676(4) 0.2763(3) 0.1699(2)
N7 N 0.0549(4) 0.3781(3) 0.2647(2)
N8 N 0.1136(3) 0.3957(3) 0.2013(2)
N9 N 0.1723(4) 0.2736(3) 0.1203(2)
N10 N 0.2918(4) 0.2495(3) 0.1099(2)
N11 N 0.2174(4) 0.3930(3) 0.1534(2)
N12 N 0.3345(4) 0.3724(3) 0.1357(2)
N13 N 0.4248(4) 0.2078(3) 0.1370(2)
N14 N 0.5143(4) 0.1613(3) 0.1933(2)
N15 N 0.4683(4) 0.3327(3) 0.1594(2)
N16 N 0.5560(4) 0.2873(3) 0.2156(2)
N17 N 0.5739(4) 0.1166(3) 0.2707(2)
N18 N 0.5892(3) 0.0795(3) 0.3463(2)
N19 N 0.6145(4) 0.2427(3) 0.2945(2)
N20 N 0.6103(4) 0.2088(4) 0.3682(2)
N21 N 0.5147(4) 0.0643(3) 0.4101(2)
N22 N 0.4106(4) 0.0602(3) 0.4474(2)
N23 N 0.5400(4) 0.1927(4) 0.4353(2)
N24 N 0.4478(4) 0.1819(3) 0.4801(2)
N25 N 0.2879(3) 0.0764(3) 0.47312(19)
N26 N 0.1695(3) 0.1151(3) 0.44479(18)
N27 N 0.3226(4) 0.1974(3) 0.5046(2)
N28 N 0.2074(4) 0.2381(3) 0.4726(2)
O6 O 0.0606(3) 0.0973(3) 0.31684(18)
O7 O 0.0590(3) 0.1568(3) 0.19761(19)
O8 O 0.2149(3) 0.1525(3) 0.12669(19)
O9 O 0.4043(3) 0.0919(3) 0.16931(19)
O10 O 0.5077(3) 0.0146(3) 0.29133(19)
O11 O 0.4752(3) -0.0493(3) 0.43691(18)
O12 O 0.2211(3) 0.0169(3) 0.40735(18)
O13 O 0.1517(3) 0.4041(3) 0.39048(19)
O14 O 0.1600(3) 0.4563(3) 0.27124(19)
O15 O 0.3212(3) 0.4538(3) 0.19652(19)
O16 O 0.5070(3) 0.4040(3) 0.2256(2)
O17 O 0.5843(4) 0.3316(3) 0.3467(2)
O18 O 0.5542(3) 0.2551(3) 0.50578(19)
O19 O 0.3106(3) 0.3190(3) 0.4825(2)
Ba1A Ba 0.23739(4) 0.51123(3) 0.35513(2)
Ba2A Ba 0.42928(4) 0.51557(3) 0.26291(2)
O13A O 0.3483(3) -0.0959(3) 0.10952(19)
O14A O 0.3400(3) -0.0437(3) 0.22876(19)
O15A O 0.1788(3) -0.0462(3) 0.30348(19)
O16A O -0.0070(3) -0.0960(3) 0.2744(2)
Cd3? Cd 0.84078(10) 0.19348(13) 0.45273(6)
Cl9? Cl 0.7788(7) 0.3114(5) 0.4668(7)
loop_
_geom_bond_atom_site_label_1
_geom_bond_atom_site_label_2
_geom_bond_site_symmetry_1
_geom_bond_site_symmetry_2
O1 Ba1 1_555 1_555
O2 Ba1 1_555 1_555
O3 Ba1 1_555 1_555
O4 Ba1 1_555 1_555
O5 Ba2 1_555 1_555
Ba1 O8 1_555 1_555
Ba2 O1 1_555 1_555
C1 N1 1_555 1_555
C2 H1 1_555 1_555
C3 C2 1_555 1_555
H2 C3 1_555 1_555
C4 N3 1_555 1_555
C5 H3 1_555 1_555
H4 C5 1_555 1_555
C6 H5 1_555 1_555
H6 C6 1_555 1_555
C7 N5 1_555 1_555
C8 H7 1_555 1_555
C9 C8 1_555 1_555
H8 C9 1_555 1_555
C10 N7 1_555 1_555
C11 H9 1_555 1_555
H10 C11 1_555 1_555
C12 H11 1_555 1_555
H12 C12 1_555 1_555
C13 N9 1_555 1_555
C14 H13 1_555 1_555
C15 C14 1_555 1_555
H14 C15 1_555 1_555
C16 N11 1_555 1_555
C17 H15 1_555 1_555
H16 C17 1_555 1_555
C18 H17 1_555 1_555
H18 C18 1_555 1_555
C19 N13 1_555 1_555
C20 H19 1_555 1_555
C21 C20 1_555 1_555
H20 C21 1_555 1_555
C22 N15 1_555 1_555
C23 H21 1_555 1_555
H22 C23 1_555 1_555
C24 H23 1_555 1_555
H24 C24 1_555 1_555
C25 N17 1_555 1_555
C26 H25 1_555 1_555
C27 C26 1_555 1_555
H26 C27 1_555 1_555
C28 N19 1_555 1_555
C29 H27 1_555 1_555
H28 C29 1_555 1_555
C30 H29 1_555 1_555
H30 C30 1_555 1_555
C31 N21 1_555 1_555
C32 H31 1_555 1_555
C33 C32 1_555 1_555
H32 C33 1_555 1_555
C34 N23 1_555 1_555
C35 H33 1_555 1_555
H34 C35 1_555 1_555
C36 H35 1_555 1_555
H36 C36 1_555 1_555
C37 N25 1_555 1_555
C38 H37 1_555 1_555
C39 C38 1_555 1_555
H38 C39 1_555 1_555
C40 N27 1_555 1_555
C41 H39 1_555 1_555
H40 C41 1_555 1_555
C42 H41 1_555 1_555
H42 C42 1_555 1_555
N1 C2 1_555 1_555
N2 C1 1_555 1_555
N3 C2 1_555 1_555
N4 C3 1_555 1_555
N5 C5 1_555 1_555
N6 C7 1_555 1_555
N7 C6 1_555 1_555
N8 C9 1_555 1_555
N9 C11 1_555 1_555
N10 C13 1_555 1_555
N11 C12 1_555 1_555
N12 C15 1_555 1_555
N13 C17 1_555 1_555
N14 C19 1_555 1_555
N15 C18 1_555 1_555
N16 C21 1_555 1_555
N17 C23 1_555 1_555
N18 C25 1_555 1_555
N19 C24 1_555 1_555
N20 C27 1_555 1_555
N21 C29 1_555 1_555
N22 C31 1_555 1_555
N23 C30 1_555 1_555
N24 C33 1_555 1_555
N25 C35 1_555 1_555
N26 C37 1_555 1_555
N27 C36 1_555 1_555
N28 C39 1_555 1_555
O6 Ba2 1_555 1_555
O7 Ba2 1_555 1_555
O8 C13 1_555 1_555
O9 Ba1 1_555 1_555
O10 C25 1_555 1_555
O11 C31 1_555 1_555
O12 C37 1_555 1_555
O13 C4 1_555 1_555
O14 C10 1_555 1_555
O15 C16 1_555 1_555
O16 C22 1_555 1_555
O17 C28 1_555 1_555
O18 C34 1_555 1_555
O19 C40 1_555 1_555
Cd1 Cl1 1_555 1_555
Cl2 Cd1 1_555 1_555
Cl3 Cd1 1_555 1_555
Cl4 Cd1 1_555 1_555
Cd2 Cl5 1_555 1_555
Cl6 Cd2 1_555 1_555
Cl7 Cd2 1_555 1_555
Cl8 Cd2 1_555 1_555
Ba1A O13 1_555 1_555
Ba2A O15 1_555 1_555
O13A Ba1 1_555 1_555
O14A Ba1 1_555 1_555
O15A Ba2 1_555 1_555
O16A Ba2 1_555 1_555
O2 Ba2 1_555 1_555
O3 Ba2 1_555 1_555
C1 O6 1_555 1_555
C3 N2 1_555 1_555
C4 N4 1_555 1_555
C5 N2 1_555 1_555
C6 N4 1_555 1_555
C7 O7 1_555 1_555
C8 N5 1_555 1_555
C8 N7 1_555 1_555
C9 N6 1_555 1_555
C10 N8 1_555 1_555
C11 N6 1_555 1_555
C12 N8 1_555 1_555
C14 N9 1_555 1_555
C14 N11 1_555 1_555
C15 N10 1_555 1_555
C16 N12 1_555 1_555
C17 N10 1_555 1_555
C18 N12 1_555 1_555
C19 O9 1_555 1_555
C20 N13 1_555 1_555
C20 N15 1_555 1_555
C21 N14 1_555 1_555
C22 N16 1_555 1_555
C23 N14 1_555 1_555
C24 N16 1_555 1_555
C26 N17 1_555 1_555
C26 N19 1_555 1_555
C27 N18 1_555 1_555
C28 N20 1_555 1_555
C29 N18 1_555 1_555
C30 N20 1_555 1_555
C32 N21 1_555 1_555
C32 N23 1_555 1_555
C33 N22 1_555 1_555
C34 N24 1_555 1_555
C35 N22 1_555 1_555
C36 N24 1_555 1_555
C38 N25 1_555 1_555
C38 N27 1_555 1_555
C39 N26 1_555 1_555
C40 N28 1_555 1_555
C41 N1 1_555 1_555
C41 N26 1_555 1_555
C42 N3 1_555 1_555
C42 N28 1_555 1_555
O14 Ba1A 1_555 1_555
O16 Ba2A 1_555 1_555

#END
