
#######################################################################
#
#                 Cambridge Crystallographic Data Centre
#                                CCDC 
#
#######################################################################
#
# If this CIF has been generated from an entry in the Cambridge 
# Structural Database, then it will include bibliographic, chemical, 
# crystal, experimental, refinement or atomic coordinate data resulting 
# from the CCDC's data processing and validation procedures.
#
#######################################################################

data_UHUCOR
_symmetry_cell_setting           monoclinic
_symmetry_space_group_name_H-M   'P 21/n'
_symmetry_Int_Tables_number      14
_space_group_name_Hall           '-P 2yn'
loop_
_symmetry_equiv_pos_site_id
_symmetry_equiv_pos_as_xyz
1 x,y,z
2 1/2-x,1/2+y,1/2-z
3 -x,-y,-z
4 1/2+x,1/2-y,1/2+z
_cell_length_a                   12.9068(5)
_cell_length_b                   23.7447(9)
_cell_length_c                   38.8170(17)
_cell_angle_alpha                90
_cell_angle_beta                 96.4510(10)
_cell_angle_gamma                90
_cell_volume                     11820.8
loop_
_atom_site_label
_atom_site_type_symbol
_atom_site_fract_x
_atom_site_fract_y
_atom_site_fract_z
W1 W 0.73255(5) 0.02257(3) 0.19404(2)
W2 W 0.36874(6) 0.29595(3) 0.35930(2)
W3 W 0.61497(5) 0.07363(3) 0.37939(2)
W4 W 0.48364(6) 0.00397(3) 0.15633(2)
W5 W 0.60204(5) 0.21427(3) 0.35307(2)
W6 W 0.16603(6) 0.08612(3) 0.41788(2)
W7 W 0.52956(6) 0.25574(3) 0.43665(2)
W8 W 0.24203(6) 0.04746(3) 0.33626(2)
W9 W 0.54590(6) 0.11333(3) 0.46368(2)
W10 W 0.66800(6) 0.22588(3) 0.21200(2)
W11 W 0.22910(5) 0.19107(3) 0.30902(2)
W12 W 0.87204(6) 0.15533(3) 0.18062(3)
W13 W 0.15444(6) 0.23135(3) 0.39098(2)
W14 W 0.81805(8) 0.05593(4) 0.10858(3)
W15 W 0.74837(8) 0.26204(3) 0.13304(3)
W16 W 0.39670(7) 0.00833(3) 0.41396(2)
W17 W 0.56681(8) 0.03764(4) 0.07073(2)
W18 W 0.40178(6) 0.20680(3) 0.17220(2)
W19 W 0.31495(6) 0.19068(3) 0.46899(2)
W20 W 0.35215(8) 0.11723(4) 0.10240(3)
W21 W 0.47930(10) 0.24198(4) 0.09274(3)
W22 W 0.69291(12) 0.16273(4) 0.06000(3)
Ti1 Ti 0.5344(2) 0.09450(13) 0.22207(8)
Ti2 Ti 0.4588(2) 0.11255(12) 0.30500(8)
P1 P 0.3849(3) 0.15170(16) 0.38638(11)
P2 P 0.6127(4) 0.13220(17) 0.14183(12)
O1 O 0.4710(12) 0.1416(6) 0.3653(4)
O2 O 0.3146(12) 0.1974(7) 0.3686(5)
O3 O 0.4229(11) 0.1689(6) 0.4235(4)
O4 O 0.3200(11) 0.0981(6) 0.3889(4)
O5 O 0.8031(13) 0.3222(5) 0.1220(5)
O6 O 0.4379(15) 0.2973(6) 0.0668(4)
O7 O 0.5253(15) -0.0106(6) 0.0403(4)
O8 O 0.7265(17) 0.1869(9) 0.0216(6)
O9 O 0.9253(12) 0.0194(6) 0.1011(5)
O10 O 0.6278(11) 0.0924(7) 0.4993(4)
O11 O 0.2738(12) 0.2061(5) 0.5077(4)
O12 O 0.0632(11) 0.0599(6) 0.4347(4)
O13 O 0.1524(13) 0.0586(6) 0.3728(4)
O14 O 0.2228(10) 0.2316(5) 0.4370(4)
O15 O 0.6028(11) 0.2380(6) 0.4008(4)
O16 O 0.4884(11) 0.0904(5) 0.2640(4)
O17 O 0.6832(9) 0.2667(5) 0.2485(3)
O18 O 0.6257(9) 0.1585(5) 0.2270(3)
O19 O 0.3757(14) 0.1853(6) 0.0789(4)
O20 O 0.2323(12) 0.0994(7) 0.0822(5)
O21 O 0.4283(10) 0.1417(5) 0.4836(4)
O22 O 0.3131(10) 0.1612(5) 0.1395(4)
O23 O 0.3129(10) 0.2414(6) 0.1928(5)
O24 O 0.5086(10) 0.1610(5) 0.1316(3)
O25 O 0.4352(8) 0.1441(5) 0.1988(3)
O26 O 0.5320(9) 0.2410(4) 0.1915(3)
O27 O 0.6107(13) 0.0975(6) 0.0432(4)
O28 O 0.4436(12) 0.0822(5) 0.0738(4)
O29 O 0.3199(12) -0.0002(6) 0.3696(4)
O30 O 0.4067(11) -0.0583(5) 0.4260(4)
O31 O 0.7556(13) 0.2147(6) 0.0937(4)
O32 O 0.7155(10) 0.2777(5) 0.1785(4)
O33 O 0.6534(11) 0.1079(5) 0.1095(3)
O34 O 0.7114(12) 0.0162(5) 0.0805(4)
O35 O 0.0459(9) 0.2677(5) 0.3956(4)
O36 O 0.8755(11) 0.1138(5) 0.1388(4)
O37 O 0.9956(9) 0.1540(6) 0.1977(5)
O38 O 0.8697(10) 0.2220(5) 0.1543(4)
O39 O 0.6914(9) 0.1748(5) 0.1590(3)
O40 O 0.8087(9) 0.1982(4) 0.2144(4)
O41 O 0.3461(9) 0.1634(5) 0.2939(4)
O42 O 0.1372(11) 0.2144(7) 0.3436(4)
O43 O 0.1853(9) 0.1168(5) 0.3181(4)
O44 O 0.1523(9) 0.2067(5) 0.2730(3)
O45 O 0.1717(10) 0.0020(5) 0.3115(4)
O46 O 0.5886(9) 0.1906(6) 0.4592(4)
O47 O 0.4158(10) 0.2482(5) 0.4628(4)
O48 O 0.5985(10) 0.3053(5) 0.4588(4)
O49 O 0.2623(12) 0.0283(6) 0.4302(4)
O50 O 0.1156(10) 0.1560(6) 0.4012(4)
O51 O 0.5163(13) 0.0195(7) 0.3914(4)
O52 O 0.2346(10) 0.1269(5) 0.4559(4)
O53 O 0.7040(9) 0.2476(5) 0.3401(4)
O54 O 0.5524(9) 0.1763(5) 0.3146(4)
O55 O 0.3902(10) 0.0586(5) 0.1338(4)
O56 O 0.4087(9) -0.0550(5) 0.1530(4)
O57 O 0.4615(8) 0.0310(5) 0.1988(3)
O58 O 0.5391(9) 0.0034(5) 0.1114(3)
O59 O 0.7247(10) 0.0347(6) 0.3791(4)
O60 O 0.6208(13) 0.0957(6) 0.4285(4)
O61 O 0.6660(10) 0.1463(5) 0.3720(4)
O62 O 0.4947(10) 0.2700(6) 0.3452(4)
O63 O 0.2938(10) 0.2625(6) 0.3189(4)
O64 O 0.2443(10) 0.2914(6) 0.3812(4)
O65 O 0.4393(9) 0.2979(6) 0.4044(4)
O66 O 0.3691(11) 0.3637(5) 0.3470(4)
O67 O 0.6185(8) -0.0241(4) 0.1752(3)
O68 O 0.7743(9) 0.0206(5) 0.1470(3)
O69 O 0.8161(9) 0.0884(5) 0.1987(3)
O70 O 0.8160(9) -0.0257(5) 0.2140(3)
O71 O 0.6052(11) 0.2698(5) 0.1163(4)
O72 O 0.6543(9) 0.0454(5) 0.2286(3)
O73 O 0.5588(9) 0.0685(5) 0.3344(3)
O74 O 0.3554(8) 0.0581(5) 0.3133(4)
O75 O 0.4624(12) 0.0488(7) 0.4526(4)
O76 O 0.5962(9) 0.0850(4) 0.1670(3)
O77 O 0.4125(13) 0.2579(5) 0.1325(4)
O78 O 0.5639(15) 0.2013(6) 0.0655(4)
O79 O 0.8074(13) 0.1113(6) 0.0722(5)
Cu1 Cu 0.71856(18) 0.36144(11) 0.27374(6)
N1 N 0.9446(13) 0.3251(7) 0.2708(5)
N2 N 0.8631(12) 0.3389(6) 0.2869(4)
N3 N 0.7177(11) 0.3691(6) 0.3264(4)
N4 N 0.5696(11) 0.3626(5) 0.2557(4)
N5 N 0.7298(13) 0.3996(6) 0.2283(4)
N6 N 0.8046(14) 0.4223(7) 0.2100(5)
C1 C 1.1259(15) 0.3323(9) 0.1718(6)
H1 H 1.1707 0.3108 0.1600
C2 C 1.1159(15) 0.3903(10) 0.1647(7)
H2 H 1.1541 0.4076 0.1487
C3 C 1.0460(14) 0.4210(8) 0.1826(6)
H3 H 1.0397 0.4596 0.1788
C4 C 1.0714(14) 0.3068(8) 0.1957(5)
H4 H 1.0818 0.2688 0.2008
C5 C 1.0003(13) 0.3378(7) 0.2126(5)
C6 C 0.9849(15) 0.3954(7) 0.2061(5)
C7 C 0.9082(16) 0.4306(8) 0.2239(7)
H5 H 0.9151 0.4212 0.2484
H6 H 0.9256 0.4701 0.2219
C8 C 0.9341(14) 0.3061(7) 0.2364(5)
H7 H 0.8614 0.3092 0.2270
H8 H 0.9527 0.2665 0.2363
C9 C 0.8962(16) 0.3458(8) 0.3216(5)
C10 C 1.0015(19) 0.3366(7) 0.3266(6)
H9 H 1.0450 0.3390 0.3473
C11 C 0.8140(16) 0.3616(7) 0.3429(5)
C12 C 1.0292(16) 0.3232(7) 0.2946(7)
H10 H 1.0963 0.3142 0.2899
C13 C 0.752(2) 0.3835(9) 0.3971(7)
H11 H 0.7636 0.3884 0.4210
C14 C 0.4942(15) 0.3372(8) 0.2713(6)
H12 H 0.5105 0.3199 0.2927
C15 C 0.6422(15) 0.3829(7) 0.3450(6)
H13 H 0.5758 0.3880 0.3334
C16 C 0.8335(19) 0.3695(9) 0.3788(6)
H14 H 0.9005 0.3653 0.3901
C17 C 0.655(2) 0.3903(9) 0.3799(7)
H15 H 0.5983 0.3996 0.3918
C18 C 0.3899(19) 0.3364(9) 0.2553(7)
H16 H 0.3363 0.3200 0.2659
C19 C 0.3720(15) 0.3618(10) 0.2227(6)
H17 H 0.3040 0.3633 0.2119
C20 C 0.4469(15) 0.3837(8) 0.2064(6)
H18 H 0.4330 0.3982 0.1841
C21 C 0.5479(14) 0.3846(6) 0.2237(5)
C22 C 0.6400(18) 0.4046(9) 0.2083(5)
C23 C 0.6496(17) 0.4308(9) 0.1769(6)
H19 H 0.5978 0.4398 0.1591
C24 C 0.7549(17) 0.4400(10) 0.1786(6)
H20 H 0.7883 0.4560 0.1610
O70A O 0.6840(9) 0.4743(5) 0.2860(3)
Cu1A Cu 0.78144(18) -0.13856(11) 0.22626(6)
N7 N -0.1177(8) 0.1223(6) 0.3062(4)
C25 C -0.2265(10) 0.1064(10) 0.2965(6)
H21 H -0.2444 0.1124 0.2721
H22 H -0.2708 0.1290 0.3092
H23 H -0.2358 0.0673 0.3018
C26 C -0.0871(15) 0.1126(12) 0.3430(4)
H24 H -0.1319 0.1337 0.3564
H25 H -0.0163 0.1244 0.3489
H26 H -0.0931 0.0732 0.3480
C27 C -0.0510(17) 0.0881(12) 0.2867(7)
H27 H -0.0697 0.0940 0.2623
H28 H -0.0597 0.0491 0.2921
H29 H 0.0205 0.0988 0.2928
C28 C -0.1012(16) 0.1823(7) 0.2992(8)
H30 H -0.1190 0.1897 0.2750
H31 H -0.0294 0.1918 0.3057
H32 H -0.1445 0.2047 0.3124
N8 N -0.1099(11) 0.2171(8) 0.4687(4)
C29 C -0.0014(13) 0.2314(11) 0.4783(7)
H33 H 0.0180 0.2217 0.5022
H34 H 0.0083 0.2711 0.4752
H35 H 0.0414 0.2109 0.4640
C30 C -0.178(2) 0.2481(13) 0.4896(8)
H36 H -0.1563 0.2416 0.5137
H37 H -0.2486 0.2355 0.4841
H38 H -0.1740 0.2876 0.4847
C31 C -0.145(3) 0.2215(14) 0.4319(5)
H39 H -0.2169 0.2113 0.4277
H40 H -0.1041 0.1965 0.4192
H41 H -0.1356 0.2595 0.4243
C32 C -0.120(4) 0.1581(10) 0.4787(12)
H42 H -0.0911 0.1532 0.5024
H43 H -0.0840 0.1345 0.4640
H44 H -0.1928 0.1480 0.4764
N9 N 1.1685(11) 0.0215(6) 0.2078(4)
C33 C 1.2104(18) 0.0739(8) 0.2235(7)
H45 H 1.2183 0.0702 0.2483
H46 H 1.1634 0.1043 0.2168
H47 H 1.2770 0.0816 0.2158
C34 C 1.2428(16) -0.0237(8) 0.2182(7)
H48 H 1.2487 -0.0282 0.2430
H49 H 1.3098 -0.0143 0.2113
H50 H 1.2186 -0.0582 0.2073
C35 C 1.161(3) 0.0279(14) 0.1702(5)
H51 H 1.2281 0.0372 0.1635
H52 H 1.1123 0.0574 0.1631
H53 H 1.1370 -0.0068 0.1593
C36 C 1.0685(15) 0.0090(11) 0.2204(7)
H54 H 1.0786 0.0043 0.2451
H55 H 1.0404 -0.0250 0.2098
H56 H 1.0210 0.0395 0.2146
N10 N 0.8230(16) -0.0601(8) 0.4521(6)
C37 C 0.890(3) -0.0987(14) 0.4736(9)
H57 H 0.9614 -0.0891 0.4723
H58 H 0.8771 -0.1365 0.4654
H59 H 0.8747 -0.0958 0.4972
C38 C 0.7119(18) -0.0659(15) 0.4544(10)
H60 H 0.6750 -0.0362 0.4416
H61 H 0.6991 -0.0638 0.4783
H62 H 0.6883 -0.1016 0.4450
C39 C 0.867(3) -0.0048(11) 0.4621(10)
H63 H 0.8272 0.0241 0.4493
H64 H 0.9380 -0.0031 0.4570
H65 H 0.8645 0.0010 0.4864
C40 C 0.841(3) -0.0680(15) 0.4161(7)
H66 H 0.8040 -0.0398 0.4019
H67 H 0.8177 -0.1047 0.4084
H68 H 0.9146 -0.0647 0.4141
N11 N 0.0630(11) 0.2480(6) 0.0726(4)
C41 C 0.0711(19) 0.2151(9) 0.1046(5)
H69 H 0.1277 0.1889 0.1047
H70 H 0.0072 0.1950 0.1059
H71 H 0.0837 0.2400 0.1241
C42 C -0.0180(18) 0.2905(10) 0.0713(8)
H72 H -0.0066 0.3141 0.0914
H73 H -0.0848 0.2725 0.0707
H74 H -0.0162 0.3130 0.0508
C43 C 0.047(2) 0.2107(11) 0.0429(6)
H75 H 0.1016 0.1832 0.0442
H76 H 0.0471 0.2323 0.0220
H77 H -0.0192 0.1920 0.0428
C44 C 0.1644(15) 0.2761(11) 0.0717(8)
H78 H 0.2189 0.2484 0.0734
H79 H 0.1761 0.3019 0.0908
H80 H 0.1643 0.2964 0.0503
N12 N 0.7802(17) 0.0708(8) -0.0489(5)
C45 C 0.844(3) 0.1183(13) -0.0363(10)
H81 H 0.8252 0.1302 -0.0143
H82 H 0.8342 0.1488 -0.0526
H83 H 0.9165 0.1073 -0.0338
C46 C 0.754(3) 0.0324(13) -0.0218(7)
H84 H 0.7085 0.0035 -0.0319
H85 H 0.7197 0.0530 -0.0050
H86 H 0.8167 0.0157 -0.0106
C47 C 0.791(3) 0.0512(14) -0.0837(7)
H87 H 0.7406 0.0220 -0.0899
H88 H 0.8597 0.0368 -0.0846
H89 H 0.7784 0.0820 -0.0997
C48 C 0.685(2) 0.1024(13) -0.0588(9)
H90 H 0.6308 0.0771 -0.0683
H91 H 0.6971 0.1301 -0.0759
H92 H 0.6633 0.1208 -0.0387
O84 O 0.8365(18) 0.0706(10) 0.5356(7)
O85 O 0.602(2) -0.1117(12) 0.0088(8)
O80? O 0.2996(19) 0.1581(11) 0.4076(7)
O81? O 0.461(2) 0.1063(11) 0.4036(7)
O82? O 0.4467(19) 0.2063(11) 0.3870(7)
O83? O 0.349(2) 0.1319(12) 0.3504(8)
loop_
_geom_bond_atom_site_label_1
_geom_bond_atom_site_label_2
_geom_bond_site_symmetry_1
_geom_bond_site_symmetry_2
W1 O67 1_555 1_555
W2 O2 1_555 1_555
W3 O1 1_555 1_555
W4 O55 1_555 1_555
W5 O1 1_555 1_555
W6 O4 1_555 1_555
W7 O3 1_555 1_555
W8 O4 1_555 1_555
W9 O3 1_555 1_555
W10 O17 1_555 1_555
W11 O2 1_555 1_555
W12 O36 1_555 1_555
W13 O2 1_555 1_555
W14 O9 1_555 1_555
W15 O5 1_555 1_555
W16 O29 1_555 1_555
W17 O7 1_555 1_555
W18 O22 1_555 1_555
W19 O3 1_555 1_555
W20 O19 1_555 1_555
W21 O6 1_555 1_555
W22 O8 1_555 1_555
Ti1 O16 1_555 1_555
Ti2 O1 1_555 1_555
P1 O1 1_555 1_555
P2 O24 1_555 1_555
O2 P1 1_555 1_555
O3 P1 1_555 1_555
O4 P1 1_555 1_555
O10 W9 1_555 1_555
O11 W19 1_555 1_555
O12 W6 1_555 1_555
O13 W6 1_555 1_555
O14 W13 1_555 1_555
O15 W5 1_555 1_555
O16 Ti2 1_555 1_555
O17 Cu1 1_555 1_555
O18 W10 1_555 1_555
O19 W21 1_555 1_555
O20 W20 1_555 1_555
O21 W9 1_555 1_555
O22 W20 1_555 1_555
O23 W18 1_555 1_555
O24 W18 1_555 1_555
O25 W18 1_555 1_555
O26 W10 1_555 1_555
O27 W17 1_555 1_555
O28 W17 1_555 1_555
O29 W8 1_555 1_555
O30 W16 1_555 1_555
O31 W15 1_555 1_555
O32 W10 1_555 1_555
O33 W14 1_555 1_555
O34 W14 1_555 1_555
O35 W13 1_555 1_555
O36 W14 1_555 1_555
O37 W12 1_555 1_555
O38 W12 1_555 1_555
O39 W10 1_555 1_555
O40 W10 1_555 1_555
O41 W11 1_555 1_555
O42 W11 1_555 1_555
O43 W8 1_555 1_555
O44 W11 1_555 1_555
O45 W8 1_555 1_555
O46 W7 1_555 1_555
O47 W7 1_555 1_555
O48 W7 1_555 1_555
O49 W6 1_555 1_555
O50 W6 1_555 1_555
O51 W3 1_555 1_555
O52 W6 1_555 1_555
O53 W5 1_555 1_555
O54 W5 1_555 1_555
O55 W20 1_555 1_555
O56 W4 1_555 1_555
O57 W4 1_555 1_555
O58 W4 1_555 1_555
O59 W3 1_555 1_555
O60 W3 1_555 1_555
O61 W3 1_555 1_555
O62 W2 1_555 1_555
O63 W2 1_555 1_555
O64 W2 1_555 1_555
O65 W2 1_555 1_555
O66 W2 1_555 1_555
O67 W4 1_555 1_555
O68 W1 1_555 1_555
O69 W1 1_555 1_555
O70 W1 1_555 1_555
O71 W15 1_555 1_555
O72 W1 1_555 1_555
O73 W3 1_555 1_555
O74 W8 1_555 1_555
O75 W9 1_555 1_555
O76 W1 1_555 1_555
O77 W18 1_555 1_555
O78 W21 1_555 1_555
O79 W14 1_555 1_555
Cu1 N2 1_555 1_555
N1 N2 1_555 1_555
N2 C9 1_555 1_555
N3 Cu1 1_555 1_555
N4 Cu1 1_555 1_555
N5 Cu1 1_555 1_555
N6 N5 1_555 1_555
C1 H1 1_555 1_555
C2 C1 1_555 1_555
H2 C2 1_555 1_555
C3 C2 1_555 1_555
H3 C3 1_555 1_555
C4 C1 1_555 1_555
H4 C4 1_555 1_555
C5 C4 1_555 1_555
C6 C3 1_555 1_555
C7 N6 1_555 1_555
H5 C7 1_555 1_555
H6 C7 1_555 1_555
C8 N1 1_555 1_555
H7 C8 1_555 1_555
H8 C8 1_555 1_555
C9 C10 1_555 1_555
C10 H9 1_555 1_555
C11 N3 1_555 1_555
C12 N1 1_555 1_555
H10 C12 1_555 1_555
C13 H11 1_555 1_555
C14 N4 1_555 1_555
H12 C14 1_555 1_555
C15 N3 1_555 1_555
H13 C15 1_555 1_555
C16 C11 1_555 1_555
H14 C16 1_555 1_555
C17 C13 1_555 1_555
H15 C17 1_555 1_555
C18 C14 1_555 1_555
H16 C18 1_555 1_555
C19 C18 1_555 1_555
H17 C19 1_555 1_555
C20 C19 1_555 1_555
H18 C20 1_555 1_555
C21 N4 1_555 1_555
C22 N5 1_555 1_555
C23 C22 1_555 1_555
H19 C23 1_555 1_555
C24 N6 1_555 1_555
H20 C24 1_555 1_555
N7 C25 1_555 1_555
C25 H21 1_555 1_555
H22 C25 1_555 1_555
H23 C25 1_555 1_555
C26 N7 1_555 1_555
H24 C26 1_555 1_555
H25 C26 1_555 1_555
H26 C26 1_555 1_555
C27 N7 1_555 1_555
H27 C27 1_555 1_555
H28 C27 1_555 1_555
H29 C27 1_555 1_555
C28 N7 1_555 1_555
H30 C28 1_555 1_555
H31 C28 1_555 1_555
H32 C28 1_555 1_555
N8 C29 1_555 1_555
C29 H33 1_555 1_555
H34 C29 1_555 1_555
H35 C29 1_555 1_555
C30 N8 1_555 1_555
H36 C30 1_555 1_555
H37 C30 1_555 1_555
H38 C30 1_555 1_555
C31 N8 1_555 1_555
H39 C31 1_555 1_555
H40 C31 1_555 1_555
H41 C31 1_555 1_555
C32 N8 1_555 1_555
H42 C32 1_555 1_555
H43 C32 1_555 1_555
H44 C32 1_555 1_555
N9 C33 1_555 1_555
C33 H45 1_555 1_555
H46 C33 1_555 1_555
H47 C33 1_555 1_555
C34 N9 1_555 1_555
H48 C34 1_555 1_555
H49 C34 1_555 1_555
H50 C34 1_555 1_555
C35 N9 1_555 1_555
H51 C35 1_555 1_555
H52 C35 1_555 1_555
H53 C35 1_555 1_555
C36 N9 1_555 1_555
H54 C36 1_555 1_555
H55 C36 1_555 1_555
H56 C36 1_555 1_555
N10 C37 1_555 1_555
C37 H57 1_555 1_555
H58 C37 1_555 1_555
H59 C37 1_555 1_555
C38 N10 1_555 1_555
H60 C38 1_555 1_555
H61 C38 1_555 1_555
H62 C38 1_555 1_555
C39 N10 1_555 1_555
H63 C39 1_555 1_555
H64 C39 1_555 1_555
H65 C39 1_555 1_555
C40 N10 1_555 1_555
H66 C40 1_555 1_555
H67 C40 1_555 1_555
H68 C40 1_555 1_555
N11 C41 1_555 1_555
C41 H69 1_555 1_555
H70 C41 1_555 1_555
H71 C41 1_555 1_555
C42 N11 1_555 1_555
H72 C42 1_555 1_555
H73 C42 1_555 1_555
H74 C42 1_555 1_555
C43 N11 1_555 1_555
H75 C43 1_555 1_555
H76 C43 1_555 1_555
H77 C43 1_555 1_555
C44 N11 1_555 1_555
H78 C44 1_555 1_555
H79 C44 1_555 1_555
H80 C44 1_555 1_555
N12 C45 1_555 1_555
C45 H81 1_555 1_555
H82 C45 1_555 1_555
H83 C45 1_555 1_555
C46 N12 1_555 1_555
H84 C46 1_555 1_555
H85 C46 1_555 1_555
H86 C46 1_555 1_555
C47 N12 1_555 1_555
H87 C47 1_555 1_555
H88 C47 1_555 1_555
H89 C47 1_555 1_555
C48 N12 1_555 1_555
H90 C48 1_555 1_555
H91 C48 1_555 1_555
H92 C48 1_555 1_555
O70A Cu1 1_555 1_555
Cu1A O70 1_555 1_555
W4 O76 1_555 1_555
W5 O61 1_555 1_555
W5 O62 1_555 1_555
W7 O15 1_555 1_555
W7 O65 1_555 1_555
W8 O13 1_555 1_555
W9 O46 1_555 1_555
W9 O60 1_555 1_555
W11 O43 1_555 1_555
W11 O63 1_555 1_555
W12 O39 1_555 1_555
W12 O40 1_555 1_555
W12 O69 1_555 1_555
W13 O42 1_555 1_555
W13 O50 1_555 1_555
W13 O64 1_555 1_555
W14 O68 1_555 1_555
W15 O32 1_555 1_555
W15 O38 1_555 1_555
W15 O39 1_555 1_555
W16 O49 1_555 1_555
W16 O51 1_555 1_555
W16 O75 1_555 1_555
W17 O33 1_555 1_555
W17 O34 1_555 1_555
W17 O58 1_555 1_555
W18 O26 1_555 1_555
W19 O14 1_555 1_555
W19 O21 1_555 1_555
W19 O47 1_555 1_555
W19 O52 1_555 1_555
W20 O24 1_555 1_555
W20 O28 1_555 1_555
W21 O24 1_555 1_555
W21 O71 1_555 1_555
W21 O77 1_555 1_555
W22 O27 1_555 1_555
W22 O31 1_555 1_555
W22 O33 1_555 1_555
W22 O78 1_555 1_555
W22 O79 1_555 1_555
Ti1 O18 1_555 1_555
Ti1 O25 1_555 1_555
Ti1 O57 1_555 1_555
Ti1 O72 1_555 1_555
Ti1 O76 1_555 1_555
Ti2 O41 1_555 1_555
Ti2 O54 1_555 1_555
Ti2 O73 1_555 1_555
Ti2 O74 1_555 1_555
P2 O33 1_555 1_555
P2 O39 1_555 1_555
P2 O76 1_555 1_555
C5 C6 1_555 1_555
C5 C8 1_555 1_555
C6 C7 1_555 1_555
C9 C11 1_555 1_555
C10 C12 1_555 1_555
C13 C16 1_555 1_555
C15 C17 1_555 1_555
C20 C21 1_555 1_555
C21 C22 1_555 1_555
C23 C24 1_555 1_555

#END
