
#######################################################################
#
#                 Cambridge Crystallographic Data Centre
#                                CCDC 
#
#######################################################################
#
# If this CIF has been generated from an entry in the Cambridge 
# Structural Database, then it will include bibliographic, chemical, 
# crystal, experimental, refinement or atomic coordinate data resulting 
# from the CCDC's data processing and validation procedures.
#
#######################################################################

data_UHUGIP
_symmetry_cell_setting           monoclinic
_symmetry_space_group_name_H-M   'P 21/c'
_symmetry_Int_Tables_number      14
_space_group_name_Hall           '-P 2ybc'
loop_
_symmetry_equiv_pos_site_id
_symmetry_equiv_pos_as_xyz
1 x,y,z
2 -x,1/2+y,1/2-z
3 -x,-y,-z
4 x,1/2-y,1/2+z
_cell_length_a                   5.5249(3)
_cell_length_b                   15.8838(10)
_cell_length_c                   20.0257(11)
_cell_angle_alpha                90
_cell_angle_beta                 96.853(3)
_cell_angle_gamma                90
_cell_volume                     1744.83
loop_
_atom_site_label
_atom_site_type_symbol
_atom_site_fract_x
_atom_site_fract_y
_atom_site_fract_z
Ag1 Ag 0.94971(5) 0.08333(2) 0.04106(2)
Ag2 Ag 0.55095(5) -0.00701(2) 0.08051(2)
O1 O 0.6850(4) 0.17796(16) 0.00365(15)
O2 O 0.3776(5) 0.11268(17) 0.04293(16)
O3 O 0.6222(7) 0.3128(3) 0.10446(17)
O4 O 0.9451(7) 0.3737(3) 0.0785(2)
O5 O 1.1302(5) -0.02471(16) 0.09716(15)
O6 O 0.8165(4) -0.09755(16) 0.12586(14)
O7 O 1.0110(7) -0.0492(2) 0.2652(2)
O8 O 0.6646(7) -0.0985(3) 0.28321(19)
N1 N 0.7356(7) 0.3501(2) 0.06550(19)
N2 N 0.8701(7) -0.1072(3) 0.26878(18)
C1 C 0.4719(7) 0.1752(2) 0.0172(2)
C2 C 0.3050(7) 0.2495(2) 0.0012(2)
H1 H 0.1657 0.2306 -0.0292
H2 H 0.2445 0.2672 0.0426
C3 C 0.4109(6) 0.3250(2) -0.02943(19)
C4 C 0.6114(7) 0.3702(2) -0.00200(19)
C5 C 0.7012(8) 0.4370(3) -0.0343(3)
H3 H 0.8407 0.4645 -0.0149
C6 C 0.5883(11) 0.4634(3) -0.0944(3)
H4 H 0.6486 0.5095 -0.1158
C7 C 0.3877(11) 0.4226(3) -0.1231(2)
H5 H 0.3080 0.4410 -0.1640
C8 C 0.3015(8) 0.3533(3) -0.0914(2)
H6 H 0.1660 0.3248 -0.1122
C9 C 1.0388(6) -0.0834(2) 0.12825(19)
C10 C 1.2235(7) -0.1397(3) 0.1690(2)
H7 H 1.3176 -0.1683 0.1379
H8 H 1.3352 -0.1038 0.1972
C11 C 1.1271(7) -0.2051(2) 0.21313(18)
C12 C 0.9564(7) -0.1916(2) 0.25696(18)
C13 C 0.8654(9) -0.2561(3) 0.2933(2)
H9 H 0.7455 -0.2457 0.3211
C14 C 0.9568(12) -0.3357(3) 0.2873(3)
H10 H 0.8973 -0.3801 0.3108
C15 C 1.1325(11) -0.3498(3) 0.2474(3)
H11 H 1.1997 -0.4033 0.2453
C16 C 1.2119(8) -0.2866(3) 0.2102(2)
H12 H 1.3281 -0.2985 0.1815
Ag1_2 Ag -0.05029(5) 0.08333(2) 0.04106(2)
Ag1B Ag 1.05029(5) -0.08333(2) -0.04106(2)
Ag2_2 Ag 1.55095(5) -0.00701(2) 0.08051(2)
Ag2B Ag 0.44905(5) 0.00701(2) -0.08051(2)
O2_2 O 1.3776(5) 0.11268(17) 0.04293(16)
O5_2 O 0.1302(5) -0.02471(16) 0.09716(15)
loop_
_geom_bond_atom_site_label_1
_geom_bond_atom_site_label_2
_geom_bond_site_symmetry_1
_geom_bond_site_symmetry_2
Ag1 Ag2 1_555 1_555
Ag2 O2 1_555 1_555
O1 Ag1 1_555 1_555
O2 C1 1_555 1_555
O3 N1 1_555 1_555
O4 N1 1_555 1_555
O5 Ag1 1_555 1_555
O6 Ag2 1_555 1_555
O7 N2 1_555 1_555
O8 N2 1_555 1_555
N1 C4 1_555 1_555
N2 C12 1_555 1_555
C1 O1 1_555 1_555
C2 C1 1_555 1_555
H1 C2 1_555 1_555
H2 C2 1_555 1_555
C3 C2 1_555 1_555
C4 C3 1_555 1_555
C5 C4 1_555 1_555
H3 C5 1_555 1_555
C6 C5 1_555 1_555
H4 C6 1_555 1_555
C7 C6 1_555 1_555
H5 C7 1_555 1_555
C8 C3 1_555 1_555
H6 C8 1_555 1_555
C9 O5 1_555 1_555
C10 C9 1_555 1_555
H7 C10 1_555 1_555
H8 C10 1_555 1_555
C11 C10 1_555 1_555
C12 C11 1_555 1_555
C13 C12 1_555 1_555
H9 C13 1_555 1_555
C14 C13 1_555 1_555
H10 C14 1_555 1_555
C15 C14 1_555 1_555
H11 C15 1_555 1_555
C16 C11 1_555 1_555
H12 C16 1_555 1_555
Ag1_2 O2 1_555 1_555
Ag1B Ag1 1_555 1_555
Ag2_2 O5 1_555 1_555
Ag2B Ag2 1_555 1_555
O2_2 Ag1 1_555 1_555
O5_2 Ag2 1_555 1_555
O6 C9 1_555 1_555
C7 C8 1_555 1_555
C15 C16 1_555 1_555
Ag1_2 O5_2 1_555 1_555
Ag2_2 O2_2 1_555 1_555

#END
