
#######################################################################
#
#                 Cambridge Crystallographic Data Centre
#                                CCDC 
#
#######################################################################
#
# If this CIF has been generated from an entry in the Cambridge 
# Structural Database, then it will include bibliographic, chemical, 
# crystal, experimental, refinement or atomic coordinate data resulting 
# from the CCDC's data processing and validation procedures.
#
#######################################################################

data_UHUHEL
_symmetry_cell_setting           monoclinic
_symmetry_space_group_name_H-M   'P 21/n'
_symmetry_Int_Tables_number      14
_space_group_name_Hall           '-P 2yn'
loop_
_symmetry_equiv_pos_site_id
_symmetry_equiv_pos_as_xyz
1 x,y,z
2 1/2-x,1/2+y,1/2-z
3 -x,-y,-z
4 1/2+x,1/2-y,1/2+z
_cell_length_a                   15.333(5)
_cell_length_b                   9.320(5)
_cell_length_c                   15.628(5)
_cell_angle_alpha                90
_cell_angle_beta                 108.525(5)
_cell_angle_gamma                90
_cell_volume                     2117.58
loop_
_atom_site_label
_atom_site_type_symbol
_atom_site_fract_x
_atom_site_fract_y
_atom_site_fract_z
Mn1 Mn 0.72002(4) 0.13216(6) 0.33397(4)
O1 O 0.7163(2) 0.3455(3) 0.27920(19)
O2 O 0.7553(2) 0.5771(3) 0.2884(2)
O3 O 0.7329(2) -0.0982(3) 0.3712(2)
N1 N 0.8630(3) 0.1624(4) 0.4263(3)
N2 N 0.6738(3) 0.2324(4) 0.4503(2)
N3 N 0.5687(2) 0.0938(4) 0.2923(2)
C1 C 0.9303(3) 0.1964(5) 0.3911(4)
H1 H 0.9148 0.2087 0.3277
C2 C 1.0209(4) 0.2140(6) 0.4440(5)
H2 H 1.0666 0.2386 0.4175
C3 C 1.0435(4) 0.1952(6) 0.5355(5)
H3 H 1.1054 0.2059 0.5732
C4 C 0.9760(4) 0.1610(6) 0.5718(4)
H4 H 0.9910 0.1488 0.6352
C5 C 0.8856(4) 0.1440(5) 0.5169(3)
C6 C 0.8096(4) 0.1084(6) 0.5552(3)
H5 H 0.8369 0.0886 0.6205
H6 H 0.7783 0.0199 0.5259
C7 C 0.7386(4) 0.2274(6) 0.5421(3)
H7 H 0.7039 0.2129 0.5851
H8 H 0.7708 0.3207 0.5563
C8 C 0.5919(4) 0.1448(5) 0.4496(3)
H9 H 0.5568 0.1975 0.4830
H10 H 0.6134 0.0538 0.4822
C9 C 0.5282(3) 0.1103(5) 0.3562(3)
C10 C 0.4346(3) 0.0872(5) 0.3386(4)
H11 H 0.4067 0.1034 0.3840
C11 C 0.3834(3) 0.0409(6) 0.2549(4)
H12 H 0.3196 0.0226 0.2421
C12 C 0.4241(3) 0.0206(5) 0.1894(4)
H13 H 0.3893 -0.0120 0.1310
C13 C 0.5177(3) 0.0491(5) 0.2107(3)
H14 H 0.5463 0.0363 0.1654
C14 C 0.6405(4) 0.3823(5) 0.4244(3)
H15 H 0.6195 0.4239 0.4728
H16 H 0.5868 0.3788 0.3687
C15 C 0.7135(4) 0.4803(5) 0.4084(3)
H17 H 0.6959 0.5809 0.4149
H18 H 0.7724 0.4620 0.4566
C16 C 0.7296(3) 0.4654(4) 0.3183(3)
H19 H 0.699(4) -0.141(6) 0.381(4)
H20 H 0.740(4) -0.146(6) 0.328(4)
Mn1A Mn 0.77998(4) 0.63216(6) 0.16603(4)
O2A O 0.7447(2) 0.0771(3) 0.2116(2)
Cl1 Cl 0.08524(8) 0.08801(14) 0.20659(8)
O4 O 0.1662(4) 0.1548(8) 0.2585(6)
O5 O 0.0564(4) 0.1408(7) 0.1171(4)
O6 O 0.0139(4) 0.1104(8) 0.2417(4)
O7 O 0.1040(4) -0.0584(6) 0.2073(3)
O8 O 0.8871(3) 0.2970(4) 0.0484(3)
H21 H 0.858(4) 0.234(6) 0.003(4)
H22 H 0.931(5) 0.262(8) 0.078(4)
O9 O 0.7815(3) 0.1645(5) 0.8945(3)
H23 H 0.815(6) 0.126(9) 0.856(6)
H24 H 0.748(4) 0.216(7) 0.859(4)
loop_
_geom_bond_atom_site_label_1
_geom_bond_atom_site_label_2
_geom_bond_site_symmetry_1
_geom_bond_site_symmetry_2
Mn1 O1 1_555 1_555
Cl1 O4 1_555 1_555
O1 C16 1_555 1_555
O2 C16 1_555 1_555
O3 Mn1 1_555 1_555
O5 Cl1 1_555 1_555
O6 Cl1 1_555 1_555
O7 Cl1 1_555 1_555
O8 H21 1_555 1_555
O9 H23 1_555 1_555
N1 Mn1 1_555 1_555
N2 Mn1 1_555 1_555
N3 Mn1 1_555 1_555
C1 N1 1_555 1_555
H1 C1 1_555 1_555
C2 C1 1_555 1_555
H2 C2 1_555 1_555
C3 C2 1_555 1_555
H3 C3 1_555 1_555
C4 C3 1_555 1_555
H4 C4 1_555 1_555
C5 N1 1_555 1_555
C6 C5 1_555 1_555
H5 C6 1_555 1_555
H6 C6 1_555 1_555
C7 N2 1_555 1_555
H7 C7 1_555 1_555
H8 C7 1_555 1_555
C8 N2 1_555 1_555
H9 C8 1_555 1_555
H10 C8 1_555 1_555
C9 N3 1_555 1_555
C10 C9 1_555 1_555
H11 C10 1_555 1_555
C11 C10 1_555 1_555
H12 C11 1_555 1_555
C12 C11 1_555 1_555
H13 C12 1_555 1_555
C13 N3 1_555 1_555
H14 C13 1_555 1_555
C14 N2 1_555 1_555
H15 C14 1_555 1_555
H16 C14 1_555 1_555
C15 C14 1_555 1_555
H17 C15 1_555 1_555
H18 C15 1_555 1_555
C16 C15 1_555 1_555
H19 O3 1_555 1_555
H20 O3 1_555 1_555
H22 O8 1_555 1_555
H24 O9 1_555 1_555
Mn1A O2 1_555 1_555
O2A Mn1 1_555 1_555
C4 C5 1_555 1_555
C6 C7 1_555 1_555
C8 C9 1_555 1_555
C12 C13 1_555 1_555

#END
