
#######################################################################
#
#                 Cambridge Crystallographic Data Centre
#                                CCDC 
#
#######################################################################
#
# If this CIF has been generated from an entry in the Cambridge 
# Structural Database, then it will include bibliographic, chemical, 
# crystal, experimental, refinement or atomic coordinate data resulting 
# from the CCDC's data processing and validation procedures.
#
#######################################################################

data_UHUHIP
_symmetry_cell_setting           monoclinic
_symmetry_space_group_name_H-M   'P 21/n'
_symmetry_Int_Tables_number      14
_space_group_name_Hall           '-P 2yn'
loop_
_symmetry_equiv_pos_site_id
_symmetry_equiv_pos_as_xyz
1 x,y,z
2 1/2-x,1/2+y,1/2-z
3 -x,-y,-z
4 1/2+x,1/2-y,1/2+z
_cell_length_a                   14.593(5)
_cell_length_b                   9.409(5)
_cell_length_c                   14.649(5)
_cell_angle_alpha                90
_cell_angle_beta                 92.310(5)
_cell_angle_gamma                90
_cell_volume                     2009.75
loop_
_atom_site_label
_atom_site_type_symbol
_atom_site_fract_x
_atom_site_fract_y
_atom_site_fract_z
Cu1 Cu 0.32845(6) 0.13764(8) 0.27762(6)
O1 O 0.2929(4) 0.3664(4) 0.2575(3)
O2 O 0.2603(3) 0.5781(5) 0.3168(3)
N1 N 0.2483(4) 0.1186(5) 0.3832(4)
N2 N 0.4257(4) 0.1824(6) 0.3760(4)
N3 N 0.4342(4) 0.1128(6) 0.1900(5)
C1 C 0.1558(5) 0.1151(7) 0.3798(5)
H1 H 0.1245 0.1233 0.3234
C2 C 0.1069(6) 0.1000(9) 0.4561(5)
H2 H 0.0432 0.0955 0.4518
C3 C 0.1525(6) 0.0914(10) 0.5395(6)
H3 H 0.1196 0.0819 0.5922
C4 C 0.2470(6) 0.0969(8) 0.5456(5)
H4 H 0.2790 0.0915 0.6017
C5 C 0.2925(5) 0.1108(7) 0.4644(5)
C6 C 0.3968(5) 0.1153(8) 0.4621(5)
H5 H 0.4214 0.1690 0.5140
H6 H 0.4211 0.0194 0.4664
C7 C 0.5104(5) 0.1124(8) 0.3435(6)
H7 H 0.5056 0.0101 0.3506
H8 H 0.5635 0.1449 0.3797
C8 C 0.5217(6) 0.1494(9) 0.2431(7)
H9 H 0.5347 0.2500 0.2370
H10 H 0.5724 0.0962 0.2194
C9 C 0.4227(7) 0.2076(11) 0.1105(6)
H11 H 0.4214 0.3045 0.1308
H12 H 0.3663 0.1855 0.0776
H13 H 0.4731 0.1946 0.0711
C10 C 0.4380(6) -0.0365(9) 0.1613(6)
H14 H 0.4457 -0.0961 0.2143
H15 H 0.4888 -0.0499 0.1226
H16 H 0.3821 -0.0611 0.1284
C11 C 0.4438(5) 0.3352(7) 0.3901(5)
H17 H 0.4749 0.3712 0.3376
H18 H 0.4853 0.3459 0.4430
C12 C 0.3588(5) 0.4271(7) 0.4041(5)
H19 H 0.3211 0.3804 0.4482
H20 H 0.3786 0.5172 0.4303
C13 C 0.3001(5) 0.4564(7) 0.3184(5)
Cu1A Cu 0.17155(6) 0.63764(8) 0.22238(6)
O2A O 0.2397(3) 0.0781(5) 0.1832(3)
S1 S 0.58680(17) 0.6367(3) 0.29147(17)
F1 F 0.6691(7) 0.4147(12) 0.3288(14)
F2 F 0.7433(5) 0.5599(15) 0.2378(6)
F3 F 0.7424(5) 0.5967(10) 0.3861(5)
O3 O 0.6232(7) 0.8017(14) 0.2690(7)
C14 C 0.6867(8) 0.5451(16) 0.3156(10)
O5 O 0.5439(6) 0.5540(13) 0.2220(6)
O6 O 0.5439(7) 0.6350(8) 0.3781(6)
O4 O 0.3800(7) 0.8171(10) 0.3805(7)
H21 H 0.420(6) 0.778(9) 0.361(6)
H22 H 0.325(8) 0.747(11) 0.353(8)
O7? O 0.619(2) 0.590(4) 0.372(2)
O8? O 0.4959(17) 0.655(5) 0.278(2)
loop_
_geom_bond_atom_site_label_1
_geom_bond_atom_site_label_2
_geom_bond_site_symmetry_1
_geom_bond_site_symmetry_2
Cu1 O1 1_555 1_555
S1 O3 1_555 1_555
F1 C14 1_555 1_555
F2 C14 1_555 1_555
F3 C14 1_555 1_555
O1 C13 1_555 1_555
O2 C13 1_555 1_555
O4 H21 1_555 1_555
N1 Cu1 1_555 1_555
N2 Cu1 1_555 1_555
N3 Cu1 1_555 1_555
C1 N1 1_555 1_555
H1 C1 1_555 1_555
C2 C1 1_555 1_555
H2 C2 1_555 1_555
C3 C2 1_555 1_555
H3 C3 1_555 1_555
C4 C3 1_555 1_555
H4 C4 1_555 1_555
C5 N1 1_555 1_555
C6 N2 1_555 1_555
H5 C6 1_555 1_555
H6 C6 1_555 1_555
C7 N2 1_555 1_555
H7 C7 1_555 1_555
H8 C7 1_555 1_555
C8 N3 1_555 1_555
H9 C8 1_555 1_555
H10 C8 1_555 1_555
C9 N3 1_555 1_555
H11 C9 1_555 1_555
H12 C9 1_555 1_555
H13 C9 1_555 1_555
C10 N3 1_555 1_555
H14 C10 1_555 1_555
H15 C10 1_555 1_555
H16 C10 1_555 1_555
C11 N2 1_555 1_555
H17 C11 1_555 1_555
H18 C11 1_555 1_555
C12 C11 1_555 1_555
H19 C12 1_555 1_555
H20 C12 1_555 1_555
C13 C12 1_555 1_555
C14 S1 1_555 1_555
O5 S1 1_555 1_555
O6 S1 1_555 1_555
H22 O4 1_555 1_555
Cu1A O2 1_555 1_555
O2A Cu1 1_555 1_555
C4 C5 1_555 1_555
C5 C6 1_555 1_555
C7 C8 1_555 1_555

#END
