
#######################################################################
#
#                 Cambridge Crystallographic Data Centre
#                                CCDC 
#
#######################################################################
#
# If this CIF has been generated from an entry in the Cambridge 
# Structural Database, then it will include bibliographic, chemical, 
# crystal, experimental, refinement or atomic coordinate data resulting 
# from the CCDC's data processing and validation procedures.
#
#######################################################################

data_UHUHOV
_symmetry_cell_setting           monoclinic
_symmetry_space_group_name_H-M   'P 21/n'
_symmetry_Int_Tables_number      14
_space_group_name_Hall           '-P 2yn'
loop_
_symmetry_equiv_pos_site_id
_symmetry_equiv_pos_as_xyz
1 x,y,z
2 1/2-x,1/2+y,1/2-z
3 -x,-y,-z
4 1/2+x,1/2-y,1/2+z
_cell_length_a                   13.947(5)
_cell_length_b                   9.143(5)
_cell_length_c                   14.050(5)
_cell_angle_alpha                90
_cell_angle_beta                 112.801(5)
_cell_angle_gamma                90
_cell_volume                     1651.62
loop_
_atom_site_label
_atom_site_type_symbol
_atom_site_fract_x
_atom_site_fract_y
_atom_site_fract_z
Zn1 Zn 0.26933(3) 0.32892(5) 0.65650(3)
O1 O 0.2450(3) 0.5330(3) 0.6927(2)
O2 O 0.2513(3) 0.7727(3) 0.7121(2)
N1 N 0.3955(3) 0.2052(4) 0.6609(3)
N2 N 0.2955(2) 0.4171(4) 0.5229(2)
N3 N 0.1344(3) 0.2371(4) 0.5453(3)
C1 C 0.4264(3) 0.0792(5) 0.7135(3)
H1 H 0.3921 0.0465 0.7545
C2 C 0.5070(4) -0.0025(6) 0.7086(4)
H2 H 0.5264 -0.0895 0.7454
C3 C 0.5586(4) 0.0451(6) 0.6492(4)
H3 H 0.6145 -0.0074 0.6463
C4 C 0.5258(4) 0.1732(6) 0.5934(4)
H4 H 0.5591 0.2073 0.5518
C5 C 0.4436(3) 0.2499(5) 0.5999(3)
C6 C 0.4056(3) 0.3916(5) 0.5422(3)
H5 H 0.4472 0.4721 0.5823
H6 H 0.4141 0.3880 0.4769
C7 C 0.2289(3) 0.3209(5) 0.4383(3)
H7 H 0.2623 0.2266 0.4433
H8 H 0.2198 0.3640 0.3723
C8 C 0.1237(3) 0.3006(5) 0.4448(3)
H9 H 0.0888 0.3945 0.4358
H10 H 0.0811 0.2366 0.3895
C9 C 0.1463(4) 0.0770(5) 0.5443(4)
H11 H 0.2072 0.0538 0.5312
H12 H 0.0862 0.0355 0.4909
H13 H 0.1532 0.0376 0.6099
C10 C 0.0407(4) 0.2723(7) 0.5658(4)
H14 H 0.0332 0.3765 0.5673
H15 H 0.0477 0.2318 0.6312
H16 H -0.0195 0.2315 0.5122
C11 C 0.2678(4) 0.5733(4) 0.4963(3)
H17 H 0.1926 0.5818 0.4653
H18 H 0.2944 0.6031 0.4449
C12 C 0.3095(4) 0.6789(4) 0.5880(3)
H19 H 0.3844 0.6677 0.6204
H20 H 0.2954 0.7782 0.5620
C13 C 0.2647(3) 0.6583(4) 0.6693(3)
Zn1A Zn 0.23067(3) 0.82892(5) 0.84350(3)
O2A O 0.2487(3) 0.2727(3) 0.7879(2)
Cl1 Cl 0.62296(11) 0.57216(14) 0.77799(9)
O3 O 0.5288(3) 0.5188(6) 0.7843(3)
O4 O 0.5968(5) 0.6711(6) 0.6952(4)
O5 O 0.6860(7) 0.6340(9) 0.8689(4)
O6 O 0.6720(4) 0.4564(6) 0.7518(6)
loop_
_geom_bond_atom_site_label_1
_geom_bond_atom_site_label_2
_geom_bond_site_symmetry_1
_geom_bond_site_symmetry_2
Zn1 O1 1_555 1_555
Cl1 O3 1_555 1_555
O1 C13 1_555 1_555
O2 C13 1_555 1_555
O4 Cl1 1_555 1_555
O5 Cl1 1_555 1_555
O6 Cl1 1_555 1_555
N1 Zn1 1_555 1_555
N2 Zn1 1_555 1_555
N3 Zn1 1_555 1_555
C1 N1 1_555 1_555
H1 C1 1_555 1_555
C2 C1 1_555 1_555
H2 C2 1_555 1_555
C3 C2 1_555 1_555
H3 C3 1_555 1_555
C4 C3 1_555 1_555
H4 C4 1_555 1_555
C5 N1 1_555 1_555
C6 N2 1_555 1_555
H5 C6 1_555 1_555
H6 C6 1_555 1_555
C7 N2 1_555 1_555
H7 C7 1_555 1_555
H8 C7 1_555 1_555
C8 N3 1_555 1_555
H9 C8 1_555 1_555
H10 C8 1_555 1_555
C9 N3 1_555 1_555
H11 C9 1_555 1_555
H12 C9 1_555 1_555
H13 C9 1_555 1_555
C10 N3 1_555 1_555
H14 C10 1_555 1_555
H15 C10 1_555 1_555
H16 C10 1_555 1_555
C11 N2 1_555 1_555
H17 C11 1_555 1_555
H18 C11 1_555 1_555
C12 C11 1_555 1_555
H19 C12 1_555 1_555
H20 C12 1_555 1_555
C13 C12 1_555 1_555
Zn1A O2 1_555 1_555
O2A Zn1 1_555 1_555
C4 C5 1_555 1_555
C5 C6 1_555 1_555
C7 C8 1_555 1_555

#END
