
#######################################################################
#
#                 Cambridge Crystallographic Data Centre
#                                CCDC 
#
#######################################################################
#
# If this CIF has been generated from an entry in the Cambridge 
# Structural Database, then it will include bibliographic, chemical, 
# crystal, experimental, refinement or atomic coordinate data resulting 
# from the CCDC's data processing and validation procedures.
#
#######################################################################

data_UHUHIQ
_symmetry_cell_setting           monoclinic
_symmetry_space_group_name_H-M   'C 2/c'
_symmetry_Int_Tables_number      15
_space_group_name_Hall           '-C 2yn'
loop_
_symmetry_equiv_pos_site_id
_symmetry_equiv_pos_as_xyz
1 x,y,z
2 -x,y,1/2-z
3 1/2+x,1/2+y,z
4 1/2-x,1/2+y,1/2-z
5 -x,-y,-z
6 x,-y,1/2+z
7 1/2-x,1/2-y,-z
8 1/2+x,1/2-y,1/2+z
_cell_length_a                   22.051(4)
_cell_length_b                   7.8861(16)
_cell_length_c                   17.837(4)
_cell_angle_alpha                90
_cell_angle_beta                 102.65(3)
_cell_angle_gamma                90
_cell_volume                     3026.5
loop_
_atom_site_label
_atom_site_type_symbol
_atom_site_fract_x
_atom_site_fract_y
_atom_site_fract_z
Zn1 Zn 0.5000 0.96013(12) 0.7500
N1 N 0.56556(19) 0.9716(6) 0.8564(2)
N2 N 0.6522(2) 0.9960(6) 0.9451(3)
O1 O 0.5000 0.6945(7) 0.7500
H1 H 0.5215 0.6270 0.7813
O2 O 0.57119(17) 0.9622(6) 0.6871(2)
H2 H 0.5960 1.0433 0.6903
H3 H 0.5993 0.8872 0.6922
O3 O 0.5000 1.2290(7) 0.7500
H4 H 0.5283 1.2929 0.7738
O4 O 0.92408(18) 1.0374(6) 1.1542(2)
C1 C 0.6268(2) 0.9722(8) 0.8698(3)
H5 H 0.6496 0.9579 0.8321
C2 C 0.5516(3) 0.9983(8) 0.9263(3)
H6 H 0.5115 1.0051 0.9347
C3 C 0.6038(3) 1.0134(9) 0.9812(3)
H7 H 0.6065 1.0320 1.0333
C4 C 0.7176(2) 1.0017(7) 0.9795(3)
C5 C 0.7578(2) 1.0726(8) 0.9392(3)
H8 H 0.7429 1.1197 0.8909
C6 C 0.8208(2) 1.0726(8) 0.9719(3)
H9 H 0.8484 1.1186 0.9447
C7 C 0.8435(2) 1.0051(7) 1.0444(3)
C8 C 0.8017(3) 0.9408(8) 1.0846(3)
H10 H 0.8161 0.9001 1.1343
C9 C 0.7385(3) 0.9360(8) 1.0522(3)
H11 H 0.7108 0.8893 1.0789
C10 C 0.9109(3) 1.0080(7) 1.0844(3)
N3 N 0.95517(18) 0.9803(6) 1.0449(2)
C11 C 0.9476(3) 0.8984(9) 0.9696(3)
H12 H 0.9037 0.8881 0.9463
H13 H 0.9651 0.7851 0.9762
C12 C 1.0212(3) 1.0026(9) 1.0821(4)
H14 H 1.0410 0.8927 1.0926
H15 H 1.0248 1.0620 1.1305
N1D N 1.43444(19) 1.0284(6) 1.1436(2)
N2D N 1.3478(2) 1.0040(6) 1.0549(3)
O4D O 1.07592(18) 0.9626(6) 0.8458(2)
C1D C 1.3732(2) 1.0278(8) 1.1302(3)
H5D H 1.3504 1.0421 1.1679
C2D C 1.4484(3) 1.0017(8) 1.0737(3)
H6D H 1.4885 0.9949 1.0653
C3D C 1.3962(3) 0.9866(9) 1.0188(3)
H7D H 1.3935 0.9680 0.9667
C4D C 1.2824(2) 0.9983(7) 1.0205(3)
C5D C 1.2422(2) 0.9274(8) 1.0608(3)
H8D H 1.2571 0.8803 1.1091
C6D C 1.1792(2) 0.9274(8) 1.0281(3)
H9D H 1.1516 0.8814 1.0553
C7D C 1.1565(2) 0.9949(7) 0.9556(3)
C8D C 1.1983(3) 1.0592(8) 0.9154(3)
H10D H 1.1839 1.0999 0.8657
C9D C 1.2615(3) 1.0640(8) 0.9478(3)
H11D H 1.2892 1.1107 0.9211
C10D C 1.0891(3) 0.9920(7) 0.9156(3)
N3D N 1.04483(18) 1.0197(6) 0.9551(2)
C11D C 1.0524(3) 1.1016(9) 1.0304(3)
H12D H 1.0963 1.1119 1.0537
H13D H 1.0349 1.2149 1.0238
C12D C 0.9788(3) 0.9974(9) 0.9179(4)
H14D H 0.9590 1.1073 0.9074
H15D H 0.9752 0.9380 0.8695
H1A H 0.4785 0.6270 0.7187
H4A H 0.4717 1.2929 0.7262
O2A O 0.42881(17) 0.9622(6) 0.8129(2)
H2A H 0.4040 1.0433 0.8097
H3A H 0.4007 0.8872 0.8078
Zn1D Zn 1.5000 1.03987(12) 1.2500
N1A N 0.43444(19) 0.9716(6) 0.6436(2)
N4 N 0.6774(3) 0.2834(11) 0.7201(4)
O5 O 0.6282(4) 0.3010(19) 0.6852(6)
O6 O 0.6930(4) 0.1535(12) 0.7462(6)
O7 O 0.7160(4) 0.3959(12) 0.7332(7)
O8 O 0.6636(2) 0.7354(8) 0.7064(4)
H16 H 0.6651 0.6280 0.7091
H17 H 0.6952 0.7741 0.7339
loop_
_geom_bond_atom_site_label_1
_geom_bond_atom_site_label_2
_geom_bond_site_symmetry_1
_geom_bond_site_symmetry_2
Zn1 N1 1_555 1_555
N1 C1 1_555 1_555
N2 C1 1_555 1_555
O1 Zn1 1_555 1_555
H1 O1 1_555 1_555
O2 Zn1 1_555 1_555
H2 O2 1_555 1_555
H3 O2 1_555 1_555
O3 Zn1 1_555 1_555
H4 O3 1_555 1_555
O4 C10 1_555 1_555
C1 H5 1_555 1_555
C2 N1 1_555 1_555
H6 C2 1_555 1_555
C3 N2 1_555 1_555
H7 C3 1_555 1_555
C4 N2 1_555 1_555
C5 C4 1_555 1_555
H8 C5 1_555 1_555
C6 C5 1_555 1_555
H9 C6 1_555 1_555
C7 C6 1_555 1_555
C8 C7 1_555 1_555
H10 C8 1_555 1_555
C9 C4 1_555 1_555
H11 C9 1_555 1_555
C10 C7 1_555 1_555
N3 C10 1_555 1_555
C11 N3 1_555 1_555
H12 C11 1_555 1_555
H13 C11 1_555 1_555
C12 N3 1_555 1_555
H14 C12 1_555 1_555
H15 C12 1_555 1_555
N4 O5 1_555 1_555
O6 N4 1_555 1_555
O7 N4 1_555 1_555
O8 H16 1_555 1_555
H17 O8 1_555 1_555
N1D C1D 1_555 1_555
N2D C1D 1_555 1_555
O4D C10D 1_555 1_555
C1D H5D 1_555 1_555
C2D N1D 1_555 1_555
H6D C2D 1_555 1_555
C3D N2D 1_555 1_555
H7D C3D 1_555 1_555
C4D N2D 1_555 1_555
C5D C4D 1_555 1_555
H8D C5D 1_555 1_555
C6D C5D 1_555 1_555
H9D C6D 1_555 1_555
C7D C6D 1_555 1_555
C8D C7D 1_555 1_555
H10D C8D 1_555 1_555
C9D C4D 1_555 1_555
H11D C9D 1_555 1_555
C10D C7D 1_555 1_555
N3D C10D 1_555 1_555
C11D C12 1_555 1_555
H12D C11D 1_555 1_555
H13D C11D 1_555 1_555
C12D C11 1_555 1_555
H14D C12D 1_555 1_555
H15D C12D 1_555 1_555
H1A O1 1_555 1_555
H4A O3 1_555 1_555
O2A Zn1 1_555 1_555
H2A O2A 1_555 1_555
H3A O2A 1_555 1_555
Zn1D N1D 1_555 1_555
N1A Zn1 1_555 1_555
C2 C3 1_555 1_555
C8 C9 1_555 1_555
C2D C3D 1_555 1_555
C8D C9D 1_555 1_555
N3D C11D 1_555 1_555
N3D C12D 1_555 1_555

#END
