
#######################################################################
#
#                 Cambridge Crystallographic Data Centre
#                                CCDC 
#
#######################################################################
#
# If this CIF has been generated from an entry in the Cambridge 
# Structural Database, then it will include bibliographic, chemical, 
# crystal, experimental, refinement or atomic coordinate data resulting 
# from the CCDC's data processing and validation procedures.
#
#######################################################################

data_UHUJIR
_symmetry_cell_setting           monoclinic
_symmetry_space_group_name_H-M   'P 21/n'
_symmetry_Int_Tables_number      14
_space_group_name_Hall           '-P 2yn'
loop_
_symmetry_equiv_pos_site_id
_symmetry_equiv_pos_as_xyz
1 x,y,z
2 1/2-x,1/2+y,1/2-z
3 -x,-y,-z
4 1/2+x,1/2-y,1/2+z
_cell_length_a                   6.6299(12)
_cell_length_b                   12.023(2)
_cell_length_c                   10.5769(15)
_cell_angle_alpha                90
_cell_angle_beta                 104.858(2)
_cell_angle_gamma                90
_cell_volume                     814.909
loop_
_atom_site_label
_atom_site_type_symbol
_atom_site_fract_x
_atom_site_fract_y
_atom_site_fract_z
Pb1 Pb 0.19296(4) 0.94848(2) 0.86306(3)
N1 N 0.0203(10) 0.7988(5) 0.7160(6)
N2 N 0.0789(10) 0.6917(5) 0.7459(6)
N3 N -0.0174(11) 0.6270(5) 0.6485(6)
N4 N -0.1376(11) 0.6910(5) 0.5534(6)
N5 N -0.2101(10) 0.8826(5) 0.5236(6)
H1 H -0.2853 0.8681 0.4463
N6 N -0.0865(10) 1.0308(5) 0.6780(6)
N7 N -0.1247(11) 1.1434(6) 0.6714(6)
N8 N -0.2505(10) 1.1664(5) 0.5591(6)
N9 N -0.3029(10) 1.0730(5) 0.4862(6)
O1 O -0.1291(9) 0.8963(5) 0.9456(5)
H2 H -0.2399 0.9100 0.8864
H3 H -0.1281 0.8273 0.9629
O2 O 0.4959(9) 0.8678(4) 0.7627(5)
H4 H 0.5684 0.8208 0.8152
H5 H 0.4418 0.8365 0.6899
C1 C -0.1109(12) 0.7947(6) 0.5968(7)
C2 C -0.1991(12) 0.9920(6) 0.5636(7)
Pb1C Pb -0.30704(4) 0.55152(2) 0.36306(3)
N4C N 0.3624(11) 0.8090(5) 1.0534(6)
loop_
_geom_bond_atom_site_label_1
_geom_bond_atom_site_label_2
_geom_bond_site_symmetry_1
_geom_bond_site_symmetry_2
Pb1 N1 1_555 1_555
N1 N2 1_555 1_555
N2 N3 1_555 1_555
N3 N4 1_555 1_555
N4 C1 1_555 1_555
N5 H1 1_555 1_555
N6 Pb1 1_555 1_555
N7 N6 1_555 1_555
N8 N7 1_555 1_555
N9 N8 1_555 1_555
O1 Pb1 1_555 1_555
H2 O1 1_555 1_555
H3 O1 1_555 1_555
O2 Pb1 1_555 1_555
H4 O2 1_555 1_555
H5 O2 1_555 1_555
C1 N1 1_555 1_555
C2 N5 1_555 1_555
Pb1C N4 1_555 1_555
N4C Pb1 1_555 1_555
N5 C1 1_555 1_555
N6 C2 1_555 1_555
N9 C2 1_555 1_555

#END
