
#######################################################################
#
#                 Cambridge Crystallographic Data Centre
#                                CCDC 
#
#######################################################################
#
# If this CIF has been generated from an entry in the Cambridge 
# Structural Database, then it will include bibliographic, chemical, 
# crystal, experimental, refinement or atomic coordinate data resulting 
# from the CCDC's data processing and validation procedures.
#
#######################################################################

data_UHUKUF
_symmetry_cell_setting           monoclinic
_symmetry_space_group_name_H-M   'P 21/c'
_symmetry_Int_Tables_number      14
_space_group_name_Hall           '-P 2ybc'
loop_
_symmetry_equiv_pos_site_id
_symmetry_equiv_pos_as_xyz
1 x,y,z
2 -x,1/2+y,1/2-z
3 -x,-y,-z
4 x,1/2-y,1/2+z
_cell_length_a                   12.4262(19)
_cell_length_b                   5.5969(8)
_cell_length_c                   15.988(2)
_cell_angle_alpha                90
_cell_angle_beta                 102.028(2)
_cell_angle_gamma                90
_cell_volume                     1087.53
loop_
_atom_site_label
_atom_site_type_symbol
_atom_site_fract_x
_atom_site_fract_y
_atom_site_fract_z
Cu1 Cu 1.0000 0.0000 1.0000
C1 C 0.5231(2) 0.4123(5) 0.53433(16)
C2 C 0.6328(2) 0.4125(6) 0.57449(19)
H1 H 0.6794 0.5266 0.5589
C3 C 0.6753(2) 0.2485(6) 0.63698(19)
H2 H 0.7498 0.2531 0.6621
C4 C 0.6095(2) 0.0789(6) 0.66265(17)
C5 C 0.5003(3) 0.0758(6) 0.6239(2)
H3 H 0.4541 -0.0377 0.6403
C6 C 0.4574(2) 0.2390(6) 0.56052(19)
H4 H 0.3830 0.2322 0.5350
C7 C 0.6533(3) -0.1098(6) 0.72815(19)
H5 H 0.5920 -0.1902 0.7449
H6 H 0.6936 -0.2278 0.7025
C8 C 0.7766(3) 0.2005(6) 0.9116(2)
H7 H 0.7790 0.3191 0.9526
C9 C 0.8204(3) -0.0929(6) 0.84556(19)
H8 H 0.8571 -0.2232 0.8285
C10 C 1.0614(2) -0.4571(5) 0.91088(18)
N1 N 0.7255(2) -0.0119(4) 0.80410(15)
N2 N 0.6955(2) 0.1789(6) 0.84588(17)
N3 N 0.8573(2) 0.0359(4) 0.91511(14)
N4 N 1.0364(2) -0.2791(4) 0.93760(15)
S1 S 1.09711(8) -0.71018(15) 0.87573(7)
C1B C 0.4769(2) 0.5877(5) 0.46567(16)
C2B C 0.3672(2) 0.5875(6) 0.42551(19)
H1B H 0.3206 0.4734 0.4411
C3B C 0.3247(2) 0.7515(6) 0.36302(19)
H2B H 0.2502 0.7469 0.3379
C4B C 0.3905(2) 0.9211(6) 0.33735(17)
C5B C 0.4997(3) 0.9242(6) 0.3761(2)
H3B H 0.5459 1.0377 0.3597
C6B C 0.5426(2) 0.7610(6) 0.43948(19)
H4B H 0.6170 0.7678 0.4650
C7B C 0.3467(3) 1.1098(6) 0.27185(19)
H5B H 0.4080 1.1902 0.2551
H6B H 0.3064 1.2278 0.2975
C8B C 0.2234(3) 0.7995(6) 0.0884(2)
H7B H 0.2210 0.6809 0.0474
C9B C 0.1796(3) 1.0929(6) 0.15444(19)
H8B H 0.1429 1.2232 0.1715
N1B N 0.2745(2) 1.0119(4) 0.19590(15)
N2B N 0.3045(2) 0.8211(6) 0.15412(17)
N3B N 0.1427(2) 0.9641(4) 0.08489(14)
C10B C 0.9386(2) 0.4571(5) 1.08912(18)
N4B N 0.9636(2) 0.2791(4) 1.06240(15)
S1B S 0.90289(8) 0.71018(15) 1.12427(7)
Cu1_2 Cu 0.0000 1.0000 0.0000
N3B_2 N 1.1427(2) -0.0359(4) 1.08489(14)
loop_
_geom_bond_atom_site_label_1
_geom_bond_atom_site_label_2
_geom_bond_site_symmetry_1
_geom_bond_site_symmetry_2
Cu1 N3 1_555 1_555
C1 C2 1_555 1_555
C2 H1 1_555 1_555
C3 C2 1_555 1_555
H2 C3 1_555 1_555
C4 C3 1_555 1_555
C5 C4 1_555 1_555
H3 C5 1_555 1_555
C6 C1 1_555 1_555
H4 C6 1_555 1_555
C7 C4 1_555 1_555
H5 C7 1_555 1_555
H6 C7 1_555 1_555
C8 H7 1_555 1_555
C9 H8 1_555 1_555
C10 N4 1_555 1_555
N1 C7 1_555 1_555
N2 C8 1_555 1_555
N3 C8 1_555 1_555
N4 Cu1 1_555 1_555
S1 C10 1_555 1_555
C1B C1 1_555 1_555
C2B C1B 1_555 1_555
H1B C2B 1_555 1_555
C3B C2B 1_555 1_555
H2B C3B 1_555 1_555
C4B C3B 1_555 1_555
C5B C4B 1_555 1_555
H3B C5B 1_555 1_555
C6B C1B 1_555 1_555
H4B C6B 1_555 1_555
C7B C4B 1_555 1_555
H5B C7B 1_555 1_555
H6B C7B 1_555 1_555
C8B H7B 1_555 1_555
C9B H8B 1_555 1_555
N1B C7B 1_555 1_555
N2B C8B 1_555 1_555
N3B C8B 1_555 1_555
C10B N4B 1_555 1_555
N4B Cu1 1_555 1_555
S1B C10B 1_555 1_555
Cu1_2 N3B 1_555 1_555
N3B_2 Cu1 1_555 1_555
C5 C6 1_555 1_555
C9 N1 1_555 1_555
C9 N3 1_555 1_555
N1 N2 1_555 1_555
C5B C6B 1_555 1_555
C9B N1B 1_555 1_555
C9B N3B 1_555 1_555
N1B N2B 1_555 1_555

#END
