
#######################################################################
#
#                 Cambridge Crystallographic Data Centre
#                                CCDC 
#
#######################################################################
#
# If this CIF has been generated from an entry in the Cambridge 
# Structural Database, then it will include bibliographic, chemical, 
# crystal, experimental, refinement or atomic coordinate data resulting 
# from the CCDC's data processing and validation procedures.
#
#######################################################################

data_UHUNEQ
_symmetry_cell_setting           monoclinic
_symmetry_space_group_name_H-M   'P 21/c'
_symmetry_Int_Tables_number      14
_space_group_name_Hall           '-P 2ybc'
loop_
_symmetry_equiv_pos_site_id
_symmetry_equiv_pos_as_xyz
1 x,y,z
2 x,1/2-y,1/2+z
3 -x,-y,-z
4 -x,1/2+y,1/2-z
_cell_length_a                   11.633(2)
_cell_length_b                   9.6005(14)
_cell_length_c                   6.9230(17)
_cell_angle_alpha                90
_cell_angle_beta                 106.01(2)
_cell_angle_gamma                90
_cell_volume                     743.19
loop_
_atom_site_label
_atom_site_type_symbol
_atom_site_fract_x
_atom_site_fract_y
_atom_site_fract_z
Cu1 Cu 0.5000 0.0000 -0.5000
N1 N 0.6345(4) 0.1321(6) -0.4093(11)
N2 N 0.2476(4) -0.1387(6) -0.6179(11)
C1 C 0.5944(5) 0.2615(8) -0.3868(12)
C2 C 0.3120(5) -0.3551(8) -0.6559(12)
H1 H 0.3146 -0.4527 -0.6775
C3 C 0.2130(5) -0.2730(7) -0.6600(13)
C4 C 0.4654(5) 0.2732(8) -0.3973(14)
O1 O 0.5923(4) -0.1571(6) -0.5593(10)
O2 O 0.4219(4) 0.3835(6) -0.3633(10)
C5 C 0.0826(5) -0.2979(7) -0.7156(13)
O3 O 0.0172(4) -0.1911(5) -0.7395(11)
O4 O 0.0468(4) -0.4210(5) -0.7467(10)
Cu2 Cu 0.11054(8) -0.00945(7) -0.6685(2)
O5 O 0.1840(4) 0.1236(7) -0.4564(11)
H2 H 0.252(5) 0.142(11) -0.439(19)
H3 H 0.151(9) 0.194(12) -0.461(19)
O6 O 0.1732(5) 0.0900(6) -0.9123(10)
H4 H 0.237(8) 0.087(13) -0.880(19)
H5 H 0.145(9) 0.041(12) -1.03(2)
Cu1A Cu 0.5000 0.5000 0.0000
N1B N 0.3655(4) -0.1321(6) -0.5907(11)
C1B C 0.4056(5) -0.2615(8) -0.6132(12)
C4B C 0.5346(5) -0.2732(8) -0.6027(14)
O1B O 0.4077(4) 0.1571(6) -0.4407(10)
O2A O 0.4219(4) 0.1165(6) -0.8633(10)
O2C O 0.5781(4) -0.1165(6) -0.1367(10)
O2B O 0.5781(4) -0.3835(6) -0.6367(10)
Cu1A_2 Cu 0.5000 -0.5000 -1.0000
O4C O -0.0468(4) 0.0790(5) -0.7533(10)
N2B N 0.7524(4) 0.1387(6) -0.3821(11)
C3B C 0.7870(5) 0.2730(7) -0.3400(13)
C2B C 0.6880(5) 0.3551(8) -0.3441(12)
H1B H 0.6854 0.4527 -0.3225
C5B C 0.9174(5) 0.2979(7) -0.2844(13)
O3B O 0.9828(4) 0.1911(5) -0.2605(11)
Cu2B Cu 0.88946(8) 0.00945(7) -0.3315(2)
O4A O 1.0468(4) -0.0790(5) -0.2467(10)
O5B O 0.8160(4) -0.1236(7) -0.5436(11)
H2B H 0.748(5) -0.142(11) -0.561(19)
H3B H 0.849(9) -0.194(12) -0.539(19)
O6B O 0.8268(5) -0.0900(6) -0.0877(10)
H4B H 0.763(8) -0.087(13) -0.120(19)
H5B H 0.855(9) -0.041(12) 0.03(2)
O4B O 0.9532(4) 0.4210(5) -0.2533(10)
Cu2C Cu -0.11054(8) -0.50945(7) -0.8315(2)
Cu2A Cu 1.11054(8) 0.50945(7) -0.1685(2)
loop_
_geom_bond_atom_site_label_1
_geom_bond_atom_site_label_2
_geom_bond_site_symmetry_1
_geom_bond_site_symmetry_2
Cu1 N1 1_555 1_555
N1 C1 1_555 1_555
N2 C3 1_555 1_555
C1 C4 1_555 1_555
C2 H1 1_555 1_555
C3 C2 1_555 1_555
C4 O2 1_555 1_555
O1 Cu1 1_555 1_555
O2 Cu1A 1_555 1_555
C5 C3 1_555 1_555
O3 C5 1_555 1_555
O4 C5 1_555 1_555
Cu2 N2 1_555 1_555
O5 Cu2 1_555 1_555
H2 O5 1_555 1_555
H3 O5 1_555 1_555
O6 Cu2 1_555 1_555
H4 O6 1_555 1_555
H5 O6 1_555 1_555
N1B Cu1 1_555 1_555
C1B C2 1_555 1_555
C4B O1 1_555 1_555
O1B Cu1 1_555 1_555
O2A Cu1 1_555 1_555
O2C Cu1 1_555 1_555
O2B C4B 1_555 1_555
Cu1A_2 O2B 1_555 1_555
O4C Cu2 1_555 1_555
N2B N1 1_555 1_555
C3B N2B 1_555 1_555
C2B C1 1_555 1_555
H1B C2B 1_555 1_555
C5B C3B 1_555 1_555
O3B C5B 1_555 1_555
Cu2B N2B 1_555 1_555
O4A Cu2B 1_555 1_555
O5B Cu2B 1_555 1_555
H2B O5B 1_555 1_555
H3B O5B 1_555 1_555
O6B Cu2B 1_555 1_555
H4B O6B 1_555 1_555
H5B O6B 1_555 1_555
O4B C5B 1_555 1_555
Cu2C O4 1_555 1_555
Cu2A O4B 1_555 1_555
N2 N1B 1_555 1_555
C4 O1B 1_555 1_555
O3 Cu2 1_555 1_555
N1B C1B 1_555 1_555
C1B C4B 1_555 1_555
C3B C2B 1_555 1_555
O3B Cu2B 1_555 1_555

#END
