
#######################################################################
#
#                 Cambridge Crystallographic Data Centre
#                                CCDC 
#
#######################################################################
#
# If this CIF has been generated from an entry in the Cambridge 
# Structural Database, then it will include bibliographic, chemical, 
# crystal, experimental, refinement or atomic coordinate data resulting 
# from the CCDC's data processing and validation procedures.
#
#######################################################################

data_UHUQAQ
_symmetry_cell_setting           trigonal
_symmetry_space_group_name_H-M   'P -3'
_symmetry_Int_Tables_number      147
_space_group_name_Hall           '-P 3'
loop_
_symmetry_equiv_pos_site_id
_symmetry_equiv_pos_as_xyz
1 x,y,z
2 -y,x-y,z
3 -x+y,-x,z
4 -x,-y,-z
5 y,-x+y,-z
6 x-y,x,-z
_cell_length_a                   21.5541(3)
_cell_length_b                   21.5541(3)
_cell_length_c                   30.6820(10)
_cell_angle_alpha                90
_cell_angle_beta                 90
_cell_angle_gamma                120
_cell_volume                     12344.5
loop_
_atom_site_label
_atom_site_type_symbol
_atom_site_fract_x
_atom_site_fract_y
_atom_site_fract_z
Zn1 Zn 1.0000 1.0000 0.18703(3)
Zn2 Zn 0.91497(3) 0.99997(3) 0.270907(17)
O1 O 1.0000 1.0000 0.24995(13)
O2 O 0.9178(3) 0.9998(3) 0.16374(14)
O3 O 0.8571(2) 0.9166(3) 0.30516(15)
O4 O 0.9161(3) 0.8566(3) 0.30528(15)
O5 O 0.8585(2) 1.0003(3) 0.22298(18)
C1 C 0.8667(4) 1.0003(4) 0.1823(3)
C2 C 0.8111(5) 1.0004(4) 0.1531(2)
C3 C 0.8155(7) 1.0011(5) 0.1078(3)
H1 H 0.8554 1.0042 0.0941
C4 C 0.7597(8) 0.9971(6) 0.0834(2)
H2 H 0.7601 0.9929 0.0533
C5 C 0.7028(9) 0.9992(5) 0.1034(3)
C6 C 0.6991(6) 0.9983(5) 0.1487(3)
H3 H 0.6605 0.9979 0.1625
C7 C 0.7531(7) 0.9980(5) 0.1733(2)
H4 H 0.7499 0.9961 0.2036
C8 C 0.6513(9) 0.9971(6) 0.0729(3)
C9 C 0.6097(10) 0.9991(7) 0.0533(3)
C10 C 0.5463(11) 0.9985(7) 0.0301(3)
C11 C 0.4833(12) 0.9943(7) 0.0445(2)
O6 O 0.5041(14) 1.0302(15) 0.0879(6)
C12 C 0.4353(17) 1.0098(13) 0.1115(6)
C13 C 0.4563(19) 1.019(2) 0.1595(5)
O7 O 0.427(2) 0.944(2) 0.1760(11)
C14 C 0.3685(18) 0.898(3) 0.144(2)
C15 C 0.5601(10) 0.9979(6) -0.0138(3)
C16 C 0.8653(4) 0.8652(4) 0.3165(2)
C17 C 0.8090(4) 0.8090(4) 0.3448(2)
C18 C 0.8137(5) 0.7499(6) 0.3577(4)
H5 H 0.8514 0.7444 0.3480
C19 C 0.7626(6) 0.6992(5) 0.3851(4)
H6 H 0.7675 0.6612 0.3952
C20 C 0.7038(6) 0.7052(6) 0.3976(4)
C21 C 0.6976(5) 0.7623(7) 0.3828(4)
H7 H 0.6571 0.7652 0.3897
C22 C 0.7512(6) 0.8152(5) 0.3578(4)
H8 H 0.7483 0.8553 0.3497
C23 C 0.6523(6) 0.6524(6) 0.4249(4)
C24 C 0.6079(6) 0.6073(6) 0.4468(5)
C25 C 0.5591(6) 0.5545(6) 0.4790(6)
C26 C 0.4992(9) 0.5613(6) 0.4866(6)
O8 O 0.475(2) 0.6015(17) 0.4572(9)
C27 C 0.436(3) 0.553(2) 0.4201(12)
C28 C 0.441(4) 0.599(3) 0.3823(9)
O9 O 0.478(3) 0.582(5) 0.3465(16)
C29 C 0.435(4) 0.572(4) 0.3059(12)
C30 C 0.5607(5) 0.4945(8) 0.4931(5)
O10 O 0.6005(15) 0.4712(15) 0.4643(9)
Zn1C Zn 0.0000 1.0000 -0.18703(3)
Zn1C_2 Zn 1.0000 0.0000 -0.18703(3)
Zn1C_3 Zn 2.0000 2.0000 -0.18703(3)
Zn2A Zn 1.00003(3) 0.91500(4) 0.270907(17)
Zn2B Zn 1.08500(4) 1.08503(3) 0.270907(17)
Zn2C Zn 0.08503(3) 1.00003(3) -0.270907(17)
Zn2D Zn 0.99997(3) 0.08500(4) -0.270907(17)
Zn2E Zn 1.91500(4) 1.91497(3) -0.270907(17)
Zn2C_2 Zn 0.08503(3) 0.00003(3) 0.729093(17)
Zn2D_2 Zn -0.00003(3) 0.08500(4) 0.729093(17)
Zn2E_2 Zn 0.91500(4) 1.91497(3) 0.729093(17)
Zn2C_3 Zn 1.08503(3) 2.00003(3) 0.729093(17)
Zn2D_3 Zn -0.00003(3) 1.08500(4) -0.270907(17)
Zn2E_3 Zn -0.08500(4) 0.91497(3) -0.270907(17)
Zn2D_4 Zn 1.99997(3) 1.08500(4) 0.729093(17)
Zn2E_4 Zn 1.91500(4) 0.91497(3) 0.729093(17)
O1C O 0.0000 1.0000 -0.24995(13)
O1C_2 O 1.0000 0.0000 -0.24995(13)
O1C_3 O 2.0000 2.0000 -0.24995(13)
O2C O 0.0822(3) 1.0002(3) -0.16374(14)
O2A O 1.0002(3) 0.9180(4) 0.16374(14)
O2D O 0.9998(3) 0.0820(4) -0.16374(14)
O2B O 1.0820(4) 1.0822(3) 0.16374(14)
O2E O 1.9180(4) 1.9178(3) -0.16374(14)
O2D_2 O -0.0002(3) 1.0820(4) -0.16374(14)
O2E_2 O -0.0820(4) 0.9178(3) -0.16374(14)
O3C O 0.1429(2) 0.0834(3) 0.69484(15)
O3B O 1.0595(4) 1.1429(2) 0.30516(15)
O3E O 0.9405(4) 1.8571(2) 0.69484(15)
O3A O 1.0834(3) 0.9405(4) 0.30516(15)
O3D O 1.9166(3) 1.0595(4) 0.69484(15)
O3C_2 O 0.1429(2) 1.0834(3) -0.30516(15)
O3D_2 O 0.9166(3) 0.0595(4) -0.30516(15)
O3E_2 O 1.9405(4) 1.8571(2) -0.30516(15)
O4C O 0.0839(3) 0.1434(3) 0.69472(15)
O4B O 0.9405(4) 1.0839(3) 0.30528(15)
O4E O 1.0595(4) 1.9161(3) 0.69472(15)
O4A O 1.1434(3) 1.0595(4) 0.30528(15)
O4D O 1.8566(3) 0.9405(4) 0.69472(15)
O4E_2 O 0.0595(4) 0.9161(3) -0.30528(15)
O4C_2 O 1.0839(3) 0.1434(3) -0.30528(15)
O4D_2 O 1.8566(3) 1.9405(4) -0.30528(15)
O5C O 0.1415(2) 0.9997(3) -0.22298(18)
O5A O 0.9997(3) 0.8582(4) 0.22298(18)
O5D O 1.0003(3) 0.1418(4) -0.22298(18)
O5B O 1.1418(4) 1.1415(2) 0.22298(18)
O5E O 1.8582(4) 1.8585(2) -0.22298(18)
C1C C 0.1333(4) 0.9997(4) -0.1823(3)
C1A C 0.9997(4) 0.8664(6) 0.1823(3)
C1D C 1.0003(4) 0.1336(6) -0.1823(3)
C1B C 1.1336(6) 1.1333(4) 0.1823(3)
C1E C 1.8664(6) 1.8667(4) -0.1823(3)
C2C C 0.1889(5) 0.9996(4) -0.1531(2)
C2A C 0.9996(4) 0.8107(6) 0.1531(2)
C2D C 1.0004(4) 0.1893(6) -0.1531(2)
C2B C 1.1893(6) 1.1889(5) 0.1531(2)
C2E C 1.8107(6) 1.8111(5) -0.1531(2)
C3C C 0.1845(7) 0.9989(5) -0.1078(3)
C3A C 0.9989(5) 0.8144(9) 0.1078(3)
C3D C 1.0011(5) 0.1856(9) -0.1078(3)
C3B C 1.1856(9) 1.1845(7) 0.1078(3)
C3E C 1.8144(9) 1.8155(7) -0.1078(3)
H1C H 0.1446 0.9958 -0.0941
H1A H 0.9958 0.8512 0.0941
H1D H 1.0042 0.1488 -0.0941
H1B H 1.1488 1.1446 0.0941
H1E H 1.8512 1.8554 -0.0941
C4C C 0.2403(8) 1.0029(6) -0.0834(2)
C4A C 1.0029(6) 0.7626(10) 0.0834(2)
C4D C 0.9971(6) 0.2374(10) -0.0834(2)
C4B C 1.2374(10) 1.2403(8) 0.0834(2)
C4E C 1.7626(10) 1.7597(8) -0.0834(2)
H2C H 0.2399 1.0071 -0.0533
H2A H 1.0071 0.7672 0.0533
H2D H 0.9929 0.2328 -0.0533
H2B H 1.2328 1.2399 0.0533
H2E H 1.7672 1.7601 -0.0533
C5C C 0.2972(9) 1.0008(5) -0.1034(3)
C5A C 1.0008(5) 0.7036(10) 0.1034(3)
C5D C 0.9992(5) 0.2964(10) -0.1034(3)
C5B C 1.2964(10) 1.2972(9) 0.1034(3)
C5E C 1.7036(10) 1.7028(9) -0.1034(3)
C6C C 0.3009(6) 1.0017(5) -0.1487(3)
C6A C 1.0017(5) 0.7008(8) 0.1487(3)
C6D C 0.9983(5) 0.2992(8) -0.1487(3)
C6B C 1.2992(8) 1.3009(6) 0.1487(3)
C6E C 1.7008(8) 1.6991(6) -0.1487(3)
H3C H 0.3395 1.0021 -0.1625
H3A H 1.0021 0.6626 0.1625
H3D H 0.9979 0.3374 -0.1625
H3B H 1.3374 1.3395 0.1625
H3E H 1.6626 1.6605 -0.1625
C7C C 0.2469(7) 1.0020(5) -0.1733(2)
C7A C 1.0020(5) 0.7551(9) 0.1733(2)
C7D C 0.9980(5) 0.2449(9) -0.1733(2)
C7B C 1.2449(9) 1.2469(7) 0.1733(2)
C7E C 1.7551(9) 1.7531(7) -0.1733(2)
H4C H 0.2501 1.0039 -0.2036
H4A H 1.0039 0.7538 0.2036
H4D H 0.9961 0.2462 -0.2036
H4B H 1.2462 1.2501 0.2036
H4E H 1.7538 1.7499 -0.2036
C8C C 0.3487(9) 1.0029(6) -0.0729(3)
C8A C 1.0029(6) 0.6542(11) 0.0729(3)
C8D C 0.9971(6) 0.3458(11) -0.0729(3)
C8B C 1.3458(11) 1.3487(9) 0.0729(3)
C8E C 1.6542(11) 1.6513(9) -0.0729(3)
C9C C 0.3903(10) 1.0009(7) -0.0533(3)
C9A C 1.0009(7) 0.6106(12) 0.0533(3)
C9D C 0.9991(7) 0.3894(12) -0.0533(3)
C9B C 1.3894(12) 1.3903(10) 0.0533(3)
C9E C 1.6106(12) 1.6097(10) -0.0533(3)
C10C C 0.4537(11) 1.0015(7) -0.0301(3)
C10A C 1.0015(7) 0.5478(13) 0.0301(3)
C10D C 0.9985(7) 0.4522(13) -0.0301(3)
C10B C 1.4522(13) 1.4537(11) 0.0301(3)
C10E C 1.5478(13) 1.5463(11) -0.0301(3)
C11C C 0.5167(12) 1.0057(7) -0.0445(2)
C11A C 1.0057(7) 0.4890(14) 0.0445(2)
C11D C 0.9943(7) 0.5110(14) -0.0445(2)
C11B C 1.5110(14) 1.5167(12) 0.0445(2)
C11E C 1.4890(14) 1.4833(12) -0.0445(2)
O6C O 0.4959(14) 0.9698(15) -0.0879(6)
O6A O 0.9698(15) 0.4739(21) 0.0879(6)
O6D O 1.0302(15) 0.5261(21) -0.0879(6)
O6B O 1.5261(21) 1.4959(14) 0.0879(6)
O6E O 1.4739(21) 1.5041(14) -0.0879(6)
C12C C 0.5647(17) 0.9902(13) -0.1115(6)
C12A C 0.9902(13) 0.4255(21) 0.1115(6)
C12D C 1.0098(13) 0.5745(21) -0.1115(6)
C12B C 1.5745(21) 1.5647(17) 0.1115(6)
C12E C 1.4255(21) 1.4353(17) -0.1115(6)
C13C C 0.5437(19) 0.981(2) -0.1595(5)
C13A C 0.981(2) 0.4373(28) 0.1595(5)
C13D C 1.019(2) 0.5627(28) -0.1595(5)
C13B C 1.5627(28) 1.5437(19) 0.1595(5)
C13E C 1.4373(28) 1.4563(19) -0.1595(5)
O7C O 0.573(2) 1.056(2) -0.1760(11)
O7A O 1.056(2) 0.483(3) 0.1760(11)
O7D O 0.944(2) 0.517(3) -0.1760(11)
O7B O 1.517(3) 1.573(2) 0.1760(11)
O7E O 1.483(3) 1.427(2) -0.1760(11)
C14C C 0.6315(18) 1.102(3) -0.144(2)
C14A C 1.102(3) 0.4705(35) 0.144(2)
C14D C 0.898(3) 0.5295(35) -0.144(2)
C14B C 1.5295(35) 1.6315(18) 0.144(2)
C14E C 1.4705(35) 1.3685(18) -0.144(2)
C15C C 0.4399(10) 1.0021(6) 0.0138(3)
C15A C 1.0021(6) 0.5622(12) -0.0138(3)
C15D C 0.9979(6) 0.4378(12) 0.0138(3)
C15B C 1.4378(12) 1.4399(10) -0.0138(3)
C15E C 1.5622(12) 1.5601(10) 0.0138(3)
C16C C 0.1347(4) 0.1348(4) 0.6835(2)
C16B C 0.9999(6) 1.1347(4) 0.3165(2)
C16E C 1.0001(6) 1.8653(4) 0.6835(2)
C16A C 1.1348(4) 1.0001(6) 0.3165(2)
C16D C 1.8652(4) 0.9999(6) 0.6835(2)
C17C C 0.1910(4) 0.1910(4) 0.6552(2)
C17B C 1.0000(6) 1.1910(4) 0.3448(2)
C17E C 1.0000(6) 1.8090(4) 0.6552(2)
C17A C 1.1910(4) 1.0000(6) 0.3448(2)
C17D C 1.8090(4) 1.0000(6) 0.6552(2)
C18C C 0.1863(5) 0.2501(6) 0.6423(4)
C18B C 0.9362(8) 1.1863(5) 0.3577(4)
C18E C 1.0638(8) 1.8137(5) 0.6423(4)
C18A C 1.2501(6) 1.0638(8) 0.3577(4)
C18D C 1.7499(6) 0.9362(8) 0.6423(4)
H5C H 0.1486 0.2556 0.6520
H5B H 0.8930 1.1486 0.3480
H5E H 1.1070 1.8514 0.6520
H5A H 1.2556 1.1070 0.3480
H5D H 1.7444 0.8930 0.6520
C19C C 0.2374(6) 0.3008(5) 0.6149(4)
C19B C 0.9366(8) 1.2374(6) 0.3851(4)
C19E C 1.0634(8) 1.7626(6) 0.6149(4)
C19A C 1.3008(5) 1.0634(8) 0.3851(4)
C19D C 1.6992(5) 0.9366(8) 0.6149(4)
H6C H 0.2325 0.3388 0.6048
H6B H 0.8937 1.2325 0.3952
H6E H 1.1063 1.7675 0.6048
H6A H 1.3388 1.1063 0.3952
H6D H 1.6612 0.8937 0.6048
C20C C 0.2962(6) 0.2948(6) 0.6024(4)
C20B C 1.0014(8) 1.2962(6) 0.3976(4)
C20E C 0.9986(8) 1.7038(6) 0.6024(4)
C20A C 1.2948(6) 0.9986(8) 0.3976(4)
C20D C 1.7052(6) 1.0014(8) 0.6024(4)
C21C C 0.3024(5) 0.2377(7) 0.6172(4)
C21B C 1.0647(9) 1.3024(5) 0.3828(4)
C21E C 0.9353(9) 1.6976(5) 0.6172(4)
C21A C 1.2377(7) 0.9353(9) 0.3828(4)
C21D C 1.7623(7) 1.0647(9) 0.6172(4)
H7C H 0.3429 0.2348 0.6103
H7B H 1.1081 1.3429 0.3897
H7E H 0.8919 1.6571 0.6103
H7A H 1.2348 0.8919 0.3897
H7D H 1.7652 1.1081 0.6103
C22C C 0.2488(6) 0.1848(5) 0.6422(4)
C22B C 1.0640(8) 1.2488(6) 0.3578(4)
C22E C 0.9360(8) 1.7512(6) 0.6422(4)
C22A C 1.1848(5) 0.9360(8) 0.3578(4)
C22D C 1.8152(5) 1.0640(8) 0.6422(4)
H8C H 0.2517 0.1447 0.6503
H8B H 1.1070 1.2517 0.3497
H8E H 0.8930 1.7483 0.6503
H8A H 1.1447 0.8930 0.3497
H8D H 1.8553 1.1070 0.6503
C23C C 0.3477(6) 0.3476(6) 0.5751(4)
C23B C 1.0001(8) 1.3477(6) 0.4249(4)
C23E C 0.9999(8) 1.6523(6) 0.5751(4)
C23A C 1.3476(6) 0.9999(8) 0.4249(4)
C23D C 1.6524(6) 1.0001(8) 0.5751(4)
C24C C 0.3921(6) 0.3927(6) 0.5532(5)
C24B C 0.9994(8) 1.3921(6) 0.4468(5)
C24E C 1.0006(8) 1.6079(6) 0.5532(5)
C24A C 1.3927(6) 1.0006(8) 0.4468(5)
C24D C 1.6073(6) 0.9994(8) 0.5532(5)
C25C C 0.4409(6) 0.4455(6) 0.5210(6)
C25B C 0.9954(8) 1.4409(6) 0.4790(6)
C25E C 1.0046(8) 1.5591(6) 0.5210(6)
C25A C 1.4455(6) 1.0046(8) 0.4790(6)
C25D C 1.5545(6) 0.9954(8) 0.5210(6)
C26C C 0.5008(9) 0.4387(6) 0.5134(6)
C26B C 1.0621(11) 1.5008(9) 0.4866(6)
C26E C 0.9379(11) 1.4992(9) 0.5134(6)
C26A C 1.4387(6) 0.9379(11) 0.4866(6)
C26D C 1.5613(6) 1.0621(11) 0.5134(6)
O8C O 0.525(2) 0.3985(17) 0.5428(9)
O8B O 1.1265(26) 1.525(2) 0.4572(9)
O8E O 0.8735(26) 1.475(2) 0.5428(9)
O8A O 1.3985(17) 0.8735(26) 0.4572(9)
O8D O 1.6015(17) 1.1265(26) 0.5428(9)
C27C C 0.564(3) 0.447(2) 0.5799(12)
C27B C 1.117(4) 1.564(3) 0.4201(12)
C27E C 0.883(4) 1.436(3) 0.5799(12)
C27A C 1.447(2) 0.883(4) 0.4201(12)
C27D C 1.553(2) 1.117(4) 0.5799(12)
C28C C 0.559(4) 0.401(3) 0.6177(9)
C28B C 1.158(5) 1.559(4) 0.3823(9)
C28E C 0.842(5) 1.441(4) 0.6177(9)
C28A C 1.401(3) 0.842(5) 0.3823(9)
C28D C 1.599(3) 1.158(5) 0.6177(9)
O9C O 0.522(3) 0.418(5) 0.6535(16)
O9B O 1.104(6) 1.522(3) 0.3465(16)
O9E O 0.896(6) 1.478(3) 0.6535(16)
O9A O 1.418(5) 0.896(6) 0.3465(16)
O9D O 1.582(5) 1.104(6) 0.6535(16)
C29C C 0.565(4) 0.428(4) 0.6941(12)
C29B C 1.137(6) 1.565(4) 0.3059(12)
C29E C 0.863(6) 1.435(4) 0.6941(12)
C29A C 1.428(4) 0.863(6) 0.3059(12)
C29D C 1.572(4) 1.137(6) 0.6941(12)
C30C C 0.4393(5) 0.5055(8) 0.5069(5)
C30B C 0.9338(9) 1.4393(5) 0.4931(5)
C30E C 1.0662(9) 1.5607(5) 0.5069(5)
C30A C 1.5055(8) 1.0662(9) 0.4931(5)
C30D C 1.4945(8) 0.9338(9) 0.5069(5)
O10C O 0.3995(15) 0.5288(15) 0.5357(9)
O10B O 0.8707(21) 1.3995(15) 0.4643(9)
O10E O 1.1293(21) 1.6005(15) 0.5357(9)
O10A O 1.5288(15) 1.1293(21) 0.4643(9)
O10D O 1.4712(15) 0.8707(21) 0.5357(9)
loop_
_geom_bond_atom_site_label_1
_geom_bond_atom_site_label_2
_geom_bond_site_symmetry_1
_geom_bond_site_symmetry_2
Zn1 O1 1_555 1_555
Zn2 O1 1_555 1_555
O1 Zn2A 1_555 1_555
O2 Zn1 1_555 1_555
O3 Zn2 1_555 1_555
O4 C16 1_555 1_555
O5 Zn2 1_555 1_555
C1 O2 1_555 1_555
C2 C1 1_555 1_555
C3 C2 1_555 1_555
H1 C3 1_555 1_555
C4 C3 1_555 1_555
H2 C4 1_555 1_555
C5 C4 1_555 1_555
C6 C5 1_555 1_555
H3 C6 1_555 1_555
C7 C2 1_555 1_555
H4 C7 1_555 1_555
C8 C5 1_555 1_555
C9 C8 1_555 1_555
C10 C9 1_555 1_555
C11 C10 1_555 1_555
O6 C11 1_555 1_555
C12 O6 1_555 1_555
C13 C12 1_555 1_555
O7 C13 1_555 1_555
C14 O7 1_555 1_555
C15 C10 1_555 1_555
C16 O3 1_555 1_555
C17 C16 1_555 1_555
C18 C17 1_555 1_555
H5 C18 1_555 1_555
C19 C18 1_555 1_555
H6 C19 1_555 1_555
C20 C19 1_555 1_555
C21 C20 1_555 1_555
H7 C21 1_555 1_555
C22 C17 1_555 1_555
H8 C22 1_555 1_555
C23 C20 1_555 1_555
C24 C23 1_555 1_555
C25 C24 1_555 1_555
C26 C25 1_555 1_555
O8 C26 1_555 1_555
C27 O8 1_555 1_555
C28 C27 1_555 1_555
O9 C28 1_555 1_555
C29 O9 1_555 1_555
C30 C25 1_555 1_555
O10 C30 1_555 1_555
Zn1C O1C 1_555 1_555
Zn1C_2 O1C_2 1_555 1_555
Zn1C_3 O1C_3 1_555 1_555
Zn2A O4 1_555 1_555
Zn2B O1 1_555 1_555
Zn2C O1C 1_555 1_555
Zn2D O1C_2 1_555 1_555
Zn2E O1C_3 1_555 1_555
Zn2C_2 O3C 1_555 1_555
Zn2D_2 O4C 1_555 1_555
Zn2E_2 O3E 1_555 1_555
Zn2C_3 O4E 1_555 1_555
Zn2D_3 O1C 1_555 1_555
Zn2E_3 O1C 1_555 1_555
Zn2D_4 O3D 1_555 1_555
Zn2E_4 O4D 1_555 1_555
O2C Zn1C 1_555 1_555
O2A Zn1 1_555 1_555
O2D Zn1C_2 1_555 1_555
O2B Zn1 1_555 1_555
O2E Zn1C_3 1_555 1_555
O2D_2 Zn1C 1_555 1_555
O2E_2 Zn1C 1_555 1_555
O3C C16C 1_555 1_555
O3B Zn2B 1_555 1_555
O3E C16E 1_555 1_555
O3A Zn2A 1_555 1_555
O3D C16D 1_555 1_555
O3C_2 Zn2C 1_555 1_555
O3D_2 Zn2D 1_555 1_555
O3E_2 Zn2E 1_555 1_555
O4C C16C 1_555 1_555
O4B Zn2 1_555 1_555
O4E C16E 1_555 1_555
O4A Zn2B 1_555 1_555
O4D C16D 1_555 1_555
O4E_2 Zn2C 1_555 1_555
O4C_2 Zn2D 1_555 1_555
O4D_2 Zn2E 1_555 1_555
O5C Zn2C 1_555 1_555
O5A Zn2A 1_555 1_555
O5D Zn2D 1_555 1_555
O5B Zn2B 1_555 1_555
O5E Zn2E 1_555 1_555
C1C O2C 1_555 1_555
C1A O2A 1_555 1_555
C1D O2D 1_555 1_555
C1B O2B 1_555 1_555
C1E O2E 1_555 1_555
C2C C1C 1_555 1_555
C2A C1A 1_555 1_555
C2D C1D 1_555 1_555
C2B C1B 1_555 1_555
C2E C1E 1_555 1_555
C3C C2C 1_555 1_555
C3A C2A 1_555 1_555
C3D C2D 1_555 1_555
C3B C2B 1_555 1_555
C3E C2E 1_555 1_555
H1C C3C 1_555 1_555
H1A C3A 1_555 1_555
H1D C3D 1_555 1_555
H1B C3B 1_555 1_555
H1E C3E 1_555 1_555
C4C C3C 1_555 1_555
C4A C3A 1_555 1_555
C4D C3D 1_555 1_555
C4B C3B 1_555 1_555
C4E C3E 1_555 1_555
H2C C4C 1_555 1_555
H2A C4A 1_555 1_555
H2D C4D 1_555 1_555
H2B C4B 1_555 1_555
H2E C4E 1_555 1_555
C5C C4C 1_555 1_555
C5A C4A 1_555 1_555
C5D C4D 1_555 1_555
C5B C4B 1_555 1_555
C5E C4E 1_555 1_555
C6C C5C 1_555 1_555
C6A C5A 1_555 1_555
C6D C5D 1_555 1_555
C6B C5B 1_555 1_555
C6E C5E 1_555 1_555
H3C C6C 1_555 1_555
H3A C6A 1_555 1_555
H3D C6D 1_555 1_555
H3B C6B 1_555 1_555
H3E C6E 1_555 1_555
C7C C2C 1_555 1_555
C7A C2A 1_555 1_555
C7D C2D 1_555 1_555
C7B C2B 1_555 1_555
C7E C2E 1_555 1_555
H4C C7C 1_555 1_555
H4A C7A 1_555 1_555
H4D C7D 1_555 1_555
H4B C7B 1_555 1_555
H4E C7E 1_555 1_555
C8C C5C 1_555 1_555
C8A C5A 1_555 1_555
C8D C5D 1_555 1_555
C8B C5B 1_555 1_555
C8E C5E 1_555 1_555
C9C C8C 1_555 1_555
C9A C8A 1_555 1_555
C9D C8D 1_555 1_555
C9B C8B 1_555 1_555
C9E C8E 1_555 1_555
C10C C9C 1_555 1_555
C10A C9A 1_555 1_555
C10D C9D 1_555 1_555
C10B C9B 1_555 1_555
C10E C9E 1_555 1_555
C11C C15 1_555 1_555
C11A C10A 1_555 1_555
C11D C10D 1_555 1_555
C11B C10B 1_555 1_555
C11E C10E 1_555 1_555
O6C C11C 1_555 1_555
O6A C11A 1_555 1_555
O6D C11D 1_555 1_555
O6B C11B 1_555 1_555
O6E C11E 1_555 1_555
C12C O6C 1_555 1_555
C12A O6A 1_555 1_555
C12D O6D 1_555 1_555
C12B O6B 1_555 1_555
C12E O6E 1_555 1_555
C13C C12C 1_555 1_555
C13A C12A 1_555 1_555
C13D C12D 1_555 1_555
C13B C12B 1_555 1_555
C13E C12E 1_555 1_555
O7C C13C 1_555 1_555
O7A C13A 1_555 1_555
O7D C13D 1_555 1_555
O7B C13B 1_555 1_555
O7E C13E 1_555 1_555
C14C O7C 1_555 1_555
C14A O7A 1_555 1_555
C14D O7D 1_555 1_555
C14B O7B 1_555 1_555
C14E O7E 1_555 1_555
C15C C11 1_555 1_555
C15A C10A 1_555 1_555
C15D C10D 1_555 1_555
C15B C10B 1_555 1_555
C15E C10E 1_555 1_555
C16C C17C 1_555 1_555
C16B O3B 1_555 1_555
C16E C17E 1_555 1_555
C16A O3A 1_555 1_555
C16D C17D 1_555 1_555
C17C C18C 1_555 1_555
C17B C16B 1_555 1_555
C17E C18E 1_555 1_555
C17A C16A 1_555 1_555
C17D C18D 1_555 1_555
C18C H5C 1_555 1_555
C18B C17B 1_555 1_555
C18E H5E 1_555 1_555
C18A C17A 1_555 1_555
C18D H5D 1_555 1_555
H5B C18B 1_555 1_555
H5A C18A 1_555 1_555
C19C C18C 1_555 1_555
C19B C18B 1_555 1_555
C19E C18E 1_555 1_555
C19A C18A 1_555 1_555
C19D C18D 1_555 1_555
H6C C19C 1_555 1_555
H6B C19B 1_555 1_555
H6E C19E 1_555 1_555
H6A C19A 1_555 1_555
H6D C19D 1_555 1_555
C20C C19C 1_555 1_555
C20B C19B 1_555 1_555
C20E C19E 1_555 1_555
C20A C19A 1_555 1_555
C20D C19D 1_555 1_555
C21C C20C 1_555 1_555
C21B C20B 1_555 1_555
C21E C20E 1_555 1_555
C21A C20A 1_555 1_555
C21D C20D 1_555 1_555
H7C C21C 1_555 1_555
H7B C21B 1_555 1_555
H7E C21E 1_555 1_555
H7A C21A 1_555 1_555
H7D C21D 1_555 1_555
C22C C17C 1_555 1_555
C22B C17B 1_555 1_555
C22E C17E 1_555 1_555
C22A C17A 1_555 1_555
C22D C17D 1_555 1_555
H8C C22C 1_555 1_555
H8B C22B 1_555 1_555
H8E C22E 1_555 1_555
H8A C22A 1_555 1_555
H8D C22D 1_555 1_555
C23C C20C 1_555 1_555
C23B C20B 1_555 1_555
C23E C20E 1_555 1_555
C23A C20A 1_555 1_555
C23D C20D 1_555 1_555
C24C C23C 1_555 1_555
C24B C23B 1_555 1_555
C24E C23E 1_555 1_555
C24A C23A 1_555 1_555
C24D C23D 1_555 1_555
C25C C24C 1_555 1_555
C25B C24B 1_555 1_555
C25E C24E 1_555 1_555
C25A C24A 1_555 1_555
C25D C24D 1_555 1_555
C26C C30 1_555 1_555
C26B C25B 1_555 1_555
C26E C25E 1_555 1_555
C26A C25A 1_555 1_555
C26D C25D 1_555 1_555
O8C C26C 1_555 1_555
O8B C26B 1_555 1_555
O8E C26E 1_555 1_555
O8A C26A 1_555 1_555
O8D C26D 1_555 1_555
C27C O8C 1_555 1_555
C27B O8B 1_555 1_555
C27E O8E 1_555 1_555
C27A O8A 1_555 1_555
C27D O8D 1_555 1_555
C28C C27C 1_555 1_555
C28B C27B 1_555 1_555
C28E C27E 1_555 1_555
C28A C27A 1_555 1_555
C28D C27D 1_555 1_555
O9C C28C 1_555 1_555
O9B C28B 1_555 1_555
O9E C28E 1_555 1_555
O9A C28A 1_555 1_555
O9D C28D 1_555 1_555
C29C O9C 1_555 1_555
C29B O9B 1_555 1_555
C29E O9E 1_555 1_555
C29A O9A 1_555 1_555
C29D O9D 1_555 1_555
C30C C26 1_555 1_555
C30B C25B 1_555 1_555
C30E C25E 1_555 1_555
C30A C25A 1_555 1_555
C30D C25D 1_555 1_555
O10C C30C 1_555 1_555
O10B C30B 1_555 1_555
O10E C30E 1_555 1_555
O10A C30A 1_555 1_555
O10D C30D 1_555 1_555
O5 C1 1_555 1_555
C6 C7 1_555 1_555
C21 C22 1_555 1_555
O4B C16B 1_555 1_555
O4A C16A 1_555 1_555
O5C C1C 1_555 1_555
O5A C1A 1_555 1_555
O5D C1D 1_555 1_555
O5B C1B 1_555 1_555
O5E C1E 1_555 1_555
C6C C7C 1_555 1_555
C6A C7A 1_555 1_555
C6D C7D 1_555 1_555
C6B C7B 1_555 1_555
C6E C7E 1_555 1_555
C10C C11C 1_555 1_555
C10C C15C 1_555 1_555
C11A C15D 1_555 1_555
C11D C15A 1_555 1_555
C11B C15E 1_555 1_555
C11E C15B 1_555 1_555
C21C C22C 1_555 1_555
C21B C22B 1_555 1_555
C21E C22E 1_555 1_555
C21A C22A 1_555 1_555
C21D C22D 1_555 1_555
C25C C26C 1_555 1_555
C25C C30C 1_555 1_555
C26B C30E 1_555 1_555
C26E C30B 1_555 1_555
C26A C30D 1_555 1_555
C26D C30A 1_555 1_555

#END
