
#######################################################################
#
#                 Cambridge Crystallographic Data Centre
#                                CCDC 
#
#######################################################################
#
# If this CIF has been generated from an entry in the Cambridge 
# Structural Database, then it will include bibliographic, chemical, 
# crystal, experimental, refinement or atomic coordinate data resulting 
# from the CCDC's data processing and validation procedures.
#
#######################################################################

data_UHUQAQ01
_symmetry_cell_setting           trigonal
_symmetry_space_group_name_H-M   'P -3'
_symmetry_Int_Tables_number      147
_space_group_name_Hall           '-P 3'
loop_
_symmetry_equiv_pos_site_id
_symmetry_equiv_pos_as_xyz
1 x,y,z
2 -y,x-y,z
3 -x+y,-x,z
4 -x,-y,-z
5 y,-x+y,-z
6 x-y,x,-z
_cell_length_a                   21.5541(3)
_cell_length_b                   21.5541(3)
_cell_length_c                   30.6820(10)
_cell_angle_alpha                90
_cell_angle_beta                 90
_cell_angle_gamma                120
_cell_volume                     12344.5
loop_
_atom_site_label
_atom_site_type_symbol
_atom_site_fract_x
_atom_site_fract_y
_atom_site_fract_z
Zn1 Zn 1.0000 1.0000 0.18694(6)
Zn2 Zn 0.91496(6) 1.00000(6) 0.27095(3)
O1 O 1.0000 1.0000 0.2499(2)
O2 O 1.0001(5) 0.9171(5) 0.1643(3)
O3 O 0.8570(4) 0.9169(6) 0.3052(3)
O4 O 0.9165(6) 0.8573(6) 0.3054(3)
O5 O 0.9992(4) 0.8575(5) 0.2237(4)
C1 C 0.9994(8) 0.8650(8) 0.1835(6)
C2 C 0.9992(10) 0.8102(7) 0.1521(5)
C3 C 0.9983(13) 0.8129(8) 0.1067(5)
H1 H 0.9937 0.8486 0.0927
C4 C 1.0043(15) 0.7617(11) 0.0826(3)
H2 H 1.0095 0.7665 0.0525
C5 C 1.0026(19) 0.7035(11) 0.1032(5)
C6 C 1.0012(12) 0.7000(8) 0.1486(5)
H3 H 0.9996 0.6611 0.1626
C7 C 1.0020(14) 0.7549(10) 0.1728(3)
H4 H 1.0044 0.7544 0.2030
C8 C 1.0012(18) 0.6537(12) 0.0717(7)
C9 C 1.0018(19) 0.6118(13) 0.0522(7)
C10 C 1.007(2) 0.5509(12) 0.0300(5)
C11 C 1.010(2) 0.4914(12) 0.0439(3)
O6 O 0.980(3) 0.478(2) 0.0890(9)
C12 C 0.991(3) 0.420(2) 0.1080(9)
C13 C 0.974(3) 0.418(3) 0.1558(9)
O7 O 1.045(4) 0.466(4) 0.1773(18)
C14 C 1.101(3) 0.464(6) 0.149(4)
C15 C 1.0026(19) 0.5625(10) -0.0141(6)
C16 C 0.8657(9) 0.8663(9) 0.3166(5)
C17 C 0.8093(7) 0.8078(8) 0.3447(5)
C18 C 0.8125(8) 0.7472(10) 0.3570(7)
H5 H 0.8488 0.7400 0.3463
C19 C 0.7616(12) 0.6978(9) 0.3850(8)
H6 H 0.7669 0.6605 0.3960
C20 C 0.7027(10) 0.7038(10) 0.3967(8)
C21 C 0.6973(10) 0.7621(12) 0.3826(9)
H7 H 0.6575 0.7658 0.3900
C22 C 0.7515(10) 0.8148(8) 0.3575(6)
H8 H 0.7490 0.8550 0.3491
C23 C 0.6521(12) 0.6513(12) 0.4233(9)
C24 C 0.6072(12) 0.6051(13) 0.4465(10)
C25 C 0.5591(11) 0.5549(11) 0.4791(11)
C26 C 0.4987(17) 0.5609(11) 0.4866(11)
O8 O 0.476(5) 0.599(3) 0.4553(13)
C27 C 0.458(5) 0.558(3) 0.4133(15)
C28 C 0.460(7) 0.608(5) 0.3784(13)
O9 O 0.495(3) 0.595(5) 0.339(2)
C29 C 0.434(5) 0.543(5) 0.311(3)
C30 C 0.5622(9) 0.4964(15) 0.4953(10)
O10 O 0.601(3) 0.473(3) 0.4653(19)
Zn1C Zn 1.0000 0.0000 -0.18694(6)
Zn1C_2 Zn 2.0000 2.0000 -0.18694(6)
Zn1C_3 Zn 0.0000 1.0000 -0.18694(6)
Zn2A Zn 1.00000(6) 0.91496(8) 0.27095(3)
Zn2D Zn 1.00000(6) 0.08504(8) -0.27095(3)
Zn2B Zn 1.08504(8) 1.08504(6) 0.27095(3)
Zn2E Zn 1.91496(8) 1.91496(6) -0.27095(3)
Zn2C Zn 0.08504(6) 1.00000(6) -0.27095(3)
Zn2C_2 Zn 0.08504(6) 0.00000(6) 0.72905(3)
Zn2D_2 Zn 0.00000(6) 0.08504(8) 0.72905(3)
Zn2E_2 Zn 0.91496(8) 1.91496(6) 0.72905(3)
Zn2C_3 Zn 1.08504(6) 2.00000(6) 0.72905(3)
Zn2C_4 Zn 1.08504(6) 0.00000(6) -0.27095(3)
Zn2E_3 Zn 0.91496(8) -0.08504(6) -0.27095(3)
Zn2D_3 Zn 2.00000(6) 1.08504(8) 0.72905(3)
Zn2E_4 Zn 1.91496(8) 0.91496(6) 0.72905(3)
O1C O 1.0000 0.0000 -0.2499(2)
O1C_2 O 2.0000 2.0000 -0.2499(2)
O1C_3 O 0.0000 1.0000 -0.2499(2)
O2C O 0.9999(5) 0.0829(5) -0.1643(3)
O2A O 1.0829(5) 1.0830(7) 0.1643(3)
O2D O 1.9171(5) 1.9170(7) -0.1643(3)
O2B O 0.9170(7) 0.9999(5) 0.1643(3)
O2E O 0.0830(7) 1.0001(5) -0.1643(3)
O2D_2 O 0.9171(5) -0.0830(7) -0.1643(3)
O2E_2 O 1.0830(7) 0.0001(5) -0.1643(3)
O3C O 0.1430(4) 0.0831(6) 0.6948(3)
O3B O 1.0599(7) 1.1430(4) 0.3052(3)
O3E O 0.9401(7) 1.8570(4) 0.6948(3)
O3A O 1.0831(6) 0.9401(7) 0.3052(3)
O3D O 1.9169(6) 1.0599(7) 0.6948(3)
O3D_2 O 0.9169(6) 0.0599(7) -0.3052(3)
O3E_2 O 1.9401(7) 1.8570(4) -0.3052(3)
O3C_2 O 0.1430(4) 1.0831(6) -0.3052(3)
O4C O 0.0835(6) 0.1427(6) 0.6946(3)
O4B O 0.9408(8) 1.0835(6) 0.3054(3)
O4E O 1.0592(8) 1.9165(6) 0.6946(3)
O4A O 1.1427(6) 1.0592(8) 0.3054(3)
O4D O 1.8573(6) 0.9408(8) 0.6946(3)
O4C_2 O 1.0835(6) 0.1427(6) -0.3054(3)
O4D_2 O 1.8573(6) 1.9408(8) -0.3054(3)
O4E_2 O 0.0592(8) 0.9165(6) -0.3054(3)
O5C O 1.0008(4) 0.1425(5) -0.2237(4)
O5A O 1.1425(5) 1.1417(6) 0.2237(4)
O5D O 1.8575(5) 1.8583(6) -0.2237(4)
O5B O 0.8583(6) 1.0008(4) 0.2237(4)
O5E O 0.1417(6) 0.9992(4) -0.2237(4)
C1C C 1.0006(8) 0.1350(8) -0.1835(6)
C1A C 1.1350(8) 1.1344(11) 0.1835(6)
C1D C 1.8650(8) 1.8656(11) -0.1835(6)
C1B C 0.8656(11) 1.0006(8) 0.1835(6)
C1E C 0.1344(11) 0.9994(8) -0.1835(6)
C2C C 1.0008(10) 0.1898(7) -0.1521(5)
C2A C 1.1898(7) 1.1890(12) 0.1521(5)
C2D C 1.8102(7) 1.8110(12) -0.1521(5)
C2B C 0.8110(12) 1.0008(10) 0.1521(5)
C2E C 0.1890(12) 0.9992(10) -0.1521(5)
C3C C 1.0017(13) 0.1871(8) -0.1067(5)
C3A C 1.1871(8) 1.1854(15) 0.1067(5)
C3D C 1.8129(8) 1.8146(15) -0.1067(5)
C3B C 0.8146(15) 1.0017(13) 0.1067(5)
C3E C 0.1854(15) 0.9983(13) -0.1067(5)
H1C H 1.0063 0.1514 -0.0927
H1A H 1.1514 1.1451 0.0927
H1D H 1.8486 1.8549 -0.0927
H1B H 0.8549 1.0063 0.0927
H1E H 0.1451 0.9937 -0.0927
C4C C 0.9957(15) 0.2383(11) -0.0826(3)
C4A C 1.2383(11) 1.2426(19) 0.0826(3)
C4D C 1.7617(11) 1.7574(19) -0.0826(3)
C4B C 0.7574(19) 0.9957(15) 0.0826(3)
C4E C 0.2426(19) 1.0043(15) -0.0826(3)
H2C H 0.9905 0.2335 -0.0525
H2A H 1.2335 1.2430 0.0525
H2D H 1.7665 1.7570 -0.0525
H2B H 0.7570 0.9905 0.0525
H2E H 0.2430 1.0095 -0.0525
C5C C 0.9974(19) 0.2965(11) -0.1032(5)
C5A C 1.2965(11) 1.2991(22) 0.1032(5)
C5D C 1.7035(11) 1.7009(22) -0.1032(5)
C5B C 0.7009(22) 0.9974(19) 0.1032(5)
C5E C 0.2991(22) 1.0026(19) -0.1032(5)
C6C C 0.9988(12) 0.3000(8) -0.1486(5)
C6A C 1.3000(8) 1.3012(14) 0.1486(5)
C6D C 1.7000(8) 1.6988(14) -0.1486(5)
C6B C 0.6988(14) 0.9988(12) 0.1486(5)
C6E C 0.3012(14) 1.0012(12) -0.1486(5)
H3C H 1.0004 0.3389 -0.1626
H3A H 1.3389 1.3385 0.1626
H3D H 1.6611 1.6615 -0.1626
H3B H 0.6615 1.0004 0.1626
H3E H 0.3385 0.9996 -0.1626
C7C C 0.9980(14) 0.2451(10) -0.1728(3)
C7A C 1.2451(10) 1.2471(17) 0.1728(3)
C7D C 1.7549(10) 1.7529(17) -0.1728(3)
C7B C 0.7529(17) 0.9980(14) 0.1728(3)
C7E C 0.2471(17) 1.0020(14) -0.1728(3)
H4C H 0.9956 0.2456 -0.2030
H4A H 1.2456 1.2500 0.2030
H4D H 1.7544 1.7500 -0.2030
H4B H 0.7500 0.9956 0.2030
H4E H 0.2500 1.0044 -0.2030
C8C C 0.9988(18) 0.3463(12) -0.0717(7)
C8A C 1.3463(12) 1.3475(22) 0.0717(7)
C8D C 1.6537(12) 1.6525(22) -0.0717(7)
C8B C 0.6525(22) 0.9988(18) 0.0717(7)
C8E C 0.3475(22) 1.0012(18) -0.0717(7)
C9C C 0.9982(19) 0.3882(13) -0.0522(7)
C9A C 1.3882(13) 1.3900(23) 0.0522(7)
C9D C 1.6118(13) 1.6100(23) -0.0522(7)
C9B C 0.6100(23) 0.9982(19) 0.0522(7)
C9E C 0.3900(23) 1.0018(19) -0.0522(7)
C10C C 0.993(2) 0.4491(12) -0.0300(5)
C10A C 1.4491(12) 1.4561(23) 0.0300(5)
C10D C 1.5509(12) 1.5439(23) -0.0300(5)
C10B C 0.5439(23) 0.993(2) 0.0300(5)
C10E C 0.4561(23) 1.007(2) -0.0300(5)
C11C C 0.990(2) 0.5086(12) -0.0439(3)
C11A C 1.5086(12) 1.5186(23) 0.0439(3)
C11D C 1.4914(12) 1.4814(23) -0.0439(3)
C11B C 0.4814(23) 0.990(2) 0.0439(3)
C11E C 0.5186(23) 1.010(2) -0.0439(3)
O6C O 1.020(3) 0.522(2) -0.0890(9)
O6A O 1.522(2) 1.502(4) 0.0890(9)
O6D O 1.478(2) 1.498(4) -0.0890(9)
O6B O 0.498(4) 1.020(3) 0.0890(9)
O6E O 0.502(4) 0.980(3) -0.0890(9)
C12C C 1.009(3) 0.580(2) -0.1080(9)
C12A C 1.580(2) 1.571(4) 0.1080(9)
C12D C 1.420(2) 1.429(4) -0.1080(9)
C12B C 0.429(4) 1.009(3) 0.1080(9)
C12E C 0.571(4) 0.991(3) -0.1080(9)
C13C C 1.026(3) 0.582(3) -0.1558(9)
C13A C 1.582(3) 1.556(4) 0.1558(9)
C13D C 1.418(3) 1.444(4) -0.1558(9)
C13B C 0.444(4) 1.026(3) 0.1558(9)
C13E C 0.556(4) 0.974(3) -0.1558(9)
O7C O 0.955(4) 0.534(4) -0.1773(18)
O7A O 1.534(4) 1.579(6) 0.1773(18)
O7D O 1.466(4) 1.421(6) -0.1773(18)
O7B O 0.421(6) 0.955(4) 0.1773(18)
O7E O 0.579(6) 1.045(4) -0.1773(18)
C14C C 0.899(3) 0.536(6) -0.149(4)
C14A C 1.536(6) 1.637(7) 0.149(4)
C14D C 1.464(6) 1.363(7) -0.149(4)
C14B C 0.363(7) 0.899(3) 0.149(4)
C14E C 0.637(7) 1.101(3) -0.149(4)
C15C C 0.9974(19) 0.4375(10) 0.0141(6)
C15A C 1.4375(10) 1.4401(21) -0.0141(6)
C15D C 1.5625(10) 1.5599(21) 0.0141(6)
C15B C 0.5599(21) 0.9974(19) -0.0141(6)
C15E C 0.4401(21) 1.0026(19) 0.0141(6)
C16C C 0.1343(9) 0.1337(9) 0.6834(5)
C16B C 1.0006(13) 1.1343(9) 0.3166(5)
C16E C 0.9994(13) 1.8657(9) 0.6834(5)
C16A C 1.1337(9) 0.9994(13) 0.3166(5)
C16D C 1.8663(9) 1.0006(13) 0.6834(5)
C17C C 0.1907(7) 0.1922(8) 0.6553(5)
C17B C 0.9985(11) 1.1907(7) 0.3447(5)
C17E C 1.0015(11) 1.8093(7) 0.6553(5)
C17A C 1.1922(8) 1.0015(11) 0.3447(5)
C17D C 1.8078(8) 0.9985(11) 0.6553(5)
C18C C 0.1875(8) 0.2528(10) 0.6430(7)
C18B C 0.9347(13) 1.1875(8) 0.3570(7)
C18E C 1.0653(13) 1.8125(8) 0.6430(7)
C18A C 1.2528(10) 1.0653(13) 0.3570(7)
C18D C 1.7472(10) 0.9347(13) 0.6430(7)
H5C H 0.1512 0.2600 0.6537
H5B H 0.8912 1.1512 0.3463
H5E H 1.1088 1.8488 0.6537
H5A H 1.2600 1.1088 0.3463
H5D H 1.7400 0.8912 0.6537
C19C C 0.2384(12) 0.3022(9) 0.6150(8)
C19B C 0.9362(15) 1.2384(12) 0.3850(8)
C19E C 1.0638(15) 1.7616(12) 0.6150(8)
C19A C 1.3022(9) 1.0638(15) 0.3850(8)
C19D C 1.6978(9) 0.9362(15) 0.6150(8)
H6C H 0.2331 0.3395 0.6040
H6B H 0.8936 1.2331 0.3960
H6E H 1.1064 1.7669 0.6040
H6A H 1.3395 1.1064 0.3960
H6D H 1.6605 0.8936 0.6040
C20C C 0.2973(10) 0.2962(10) 0.6033(8)
C20B C 1.0011(14) 1.2973(10) 0.3967(8)
C20E C 0.9989(14) 1.7027(10) 0.6033(8)
C20A C 1.2962(10) 0.9989(14) 0.3967(8)
C20D C 1.7038(10) 1.0011(14) 0.6033(8)
C21C C 0.3027(10) 0.2379(12) 0.6174(9)
C21B C 1.0648(16) 1.3027(10) 0.3826(9)
C21E C 0.9352(16) 1.6973(10) 0.6174(9)
C21A C 1.2379(12) 0.9352(16) 0.3826(9)
C21D C 1.7621(12) 1.0648(16) 0.6174(9)
H7C H 0.3425 0.2342 0.6100
H7B H 1.1083 1.3425 0.3900
H7E H 0.8917 1.6575 0.6100
H7A H 1.2342 0.8917 0.3900
H7D H 1.7658 1.1083 0.6100
C22C C 0.2485(10) 0.1852(8) 0.6425(6)
C22B C 1.0633(13) 1.2485(10) 0.3575(6)
C22E C 0.9367(13) 1.7515(10) 0.6425(6)
C22A C 1.1852(8) 0.9367(13) 0.3575(6)
C22D C 1.8148(8) 1.0633(13) 0.6425(6)
H8C H 0.2510 0.1450 0.6509
H8B H 1.1060 1.2510 0.3491
H8E H 0.8940 1.7490 0.6509
H8A H 1.1450 0.8940 0.3491
H8D H 1.8550 1.1060 0.6509
C23C C 0.3479(12) 0.3487(12) 0.5767(9)
C23B C 0.9992(17) 1.3479(12) 0.4233(9)
C23E C 1.0008(17) 1.6521(12) 0.5767(9)
C23A C 1.3487(12) 1.0008(17) 0.4233(9)
C23D C 1.6513(12) 0.9992(17) 0.5767(9)
C24C C 0.3928(12) 0.3949(13) 0.5535(10)
C24B C 0.9979(18) 1.3928(12) 0.4465(10)
C24E C 1.0021(18) 1.6072(12) 0.5535(10)
C24A C 1.3949(13) 1.0021(18) 0.4465(10)
C24D C 1.6051(13) 0.9979(18) 0.5535(10)
C25C C 0.4409(11) 0.4451(11) 0.5209(11)
C25B C 0.9958(16) 1.4409(11) 0.4791(11)
C25E C 1.0042(16) 1.5591(11) 0.5209(11)
C25A C 1.4451(11) 1.0042(16) 0.4791(11)
C25D C 1.5549(11) 0.9958(16) 0.5209(11)
C26C C 0.5013(17) 0.4391(11) 0.5134(11)
C26B C 1.0622(20) 1.5013(17) 0.4866(11)
C26E C 0.9378(20) 1.4987(17) 0.5134(11)
C26A C 1.4391(11) 0.9378(20) 0.4866(11)
C26D C 1.5609(11) 1.0622(20) 0.5134(11)
O8C O 0.524(5) 0.401(3) 0.5447(13)
O8B O 1.123(6) 1.524(5) 0.4553(13)
O8E O 0.877(6) 1.476(5) 0.5447(13)
O8A O 1.401(3) 0.877(6) 0.4553(13)
O8D O 1.599(3) 1.123(6) 0.5447(13)
C27C C 0.542(5) 0.442(3) 0.5867(15)
C27B C 1.100(6) 1.542(5) 0.4133(15)
C27E C 0.900(6) 1.458(5) 0.5867(15)
C27A C 1.442(3) 0.900(6) 0.4133(15)
C27D C 1.558(3) 1.100(6) 0.5867(15)
C28C C 0.540(7) 0.392(5) 0.6216(13)
C28B C 1.148(9) 1.540(7) 0.3784(13)
C28E C 0.852(9) 1.460(7) 0.6216(13)
C28A C 1.392(5) 0.852(9) 0.3784(13)
C28D C 1.608(5) 1.148(9) 0.6216(13)
O9C O 0.505(3) 0.405(5) 0.661(2)
O9B O 1.100(6) 1.505(3) 0.339(2)
O9E O 0.900(6) 1.495(3) 0.661(2)
O9A O 1.405(5) 0.900(6) 0.339(2)
O9D O 1.595(5) 1.100(6) 0.661(2)
C29C C 0.566(5) 0.457(5) 0.689(3)
C29B C 1.109(7) 1.566(5) 0.311(3)
C29E C 0.891(7) 1.434(5) 0.689(3)
C29A C 1.457(5) 0.891(7) 0.311(3)
C29D C 1.543(5) 1.109(7) 0.689(3)
C30C C 0.4378(9) 0.5036(15) 0.5047(10)
C30B C 0.9342(17) 1.4378(9) 0.4953(10)
C30E C 1.0658(17) 1.5622(9) 0.5047(10)
C30A C 1.5036(15) 1.0658(17) 0.4953(10)
C30D C 1.4964(15) 0.9342(17) 0.5047(10)
O10C O 0.399(3) 0.527(3) 0.5347(19)
O10B O 0.872(4) 1.399(3) 0.4653(19)
O10E O 1.128(4) 1.601(3) 0.5347(19)
O10A O 1.527(3) 1.128(4) 0.4653(19)
O10D O 1.473(3) 0.872(4) 0.5347(19)
loop_
_geom_bond_atom_site_label_1
_geom_bond_atom_site_label_2
_geom_bond_site_symmetry_1
_geom_bond_site_symmetry_2
Zn1 O1 1_555 1_555
Zn2 O1 1_555 1_555
O1 Zn2A 1_555 1_555
O2 Zn1 1_555 1_555
O3 Zn2 1_555 1_555
O4 C16 1_555 1_555
O5 C1 1_555 1_555
C1 O2 1_555 1_555
C2 C1 1_555 1_555
C3 C2 1_555 1_555
H1 C3 1_555 1_555
C4 C3 1_555 1_555
H2 C4 1_555 1_555
C5 C4 1_555 1_555
C6 C5 1_555 1_555
H3 C6 1_555 1_555
C7 C2 1_555 1_555
H4 C7 1_555 1_555
C8 C5 1_555 1_555
C9 C8 1_555 1_555
C10 C9 1_555 1_555
C11 C10 1_555 1_555
O6 C11 1_555 1_555
C12 O6 1_555 1_555
C13 C12 1_555 1_555
O7 C13 1_555 1_555
C14 O7 1_555 1_555
C15 C10 1_555 1_555
C16 O3 1_555 1_555
C17 C16 1_555 1_555
C18 C17 1_555 1_555
H5 C18 1_555 1_555
C19 C18 1_555 1_555
H6 C19 1_555 1_555
C20 C19 1_555 1_555
C21 C20 1_555 1_555
H7 C21 1_555 1_555
C22 C17 1_555 1_555
H8 C22 1_555 1_555
C23 C20 1_555 1_555
C24 C23 1_555 1_555
C25 C24 1_555 1_555
C26 C25 1_555 1_555
O8 C26 1_555 1_555
C27 O8 1_555 1_555
C28 C27 1_555 1_555
O9 C28 1_555 1_555
C29 O9 1_555 1_555
C30 C25 1_555 1_555
O10 C30 1_555 1_555
Zn1C O1C 1_555 1_555
Zn1C_2 O1C_2 1_555 1_555
Zn1C_3 O1C_3 1_555 1_555
Zn2A O4 1_555 1_555
Zn2D O1C 1_555 1_555
Zn2B O1 1_555 1_555
Zn2E O1C_2 1_555 1_555
Zn2C O1C_3 1_555 1_555
Zn2C_2 O3C 1_555 1_555
Zn2D_2 O4C 1_555 1_555
Zn2E_2 O3E 1_555 1_555
Zn2C_3 O4E 1_555 1_555
Zn2C_4 O1C 1_555 1_555
Zn2E_3 O1C 1_555 1_555
Zn2D_3 O3D 1_555 1_555
Zn2E_4 O4D 1_555 1_555
O2C Zn1C 1_555 1_555
O2A Zn1 1_555 1_555
O2D Zn1C_2 1_555 1_555
O2B Zn1 1_555 1_555
O2E Zn1C_3 1_555 1_555
O2D_2 Zn1C 1_555 1_555
O2E_2 Zn1C 1_555 1_555
O3C C16C 1_555 1_555
O3B Zn2B 1_555 1_555
O3E C16E 1_555 1_555
O3A Zn2A 1_555 1_555
O3D C16D 1_555 1_555
O3D_2 Zn2D 1_555 1_555
O3E_2 Zn2E 1_555 1_555
O3C_2 Zn2C 1_555 1_555
O4C C16C 1_555 1_555
O4B Zn2 1_555 1_555
O4E C16E 1_555 1_555
O4A Zn2B 1_555 1_555
O4D C16D 1_555 1_555
O4C_2 Zn2D 1_555 1_555
O4D_2 Zn2E 1_555 1_555
O4E_2 Zn2C 1_555 1_555
O5C Zn2D 1_555 1_555
O5A Zn2B 1_555 1_555
O5D Zn2E 1_555 1_555
O5B Zn2 1_555 1_555
O5E Zn2C 1_555 1_555
C1C O2C 1_555 1_555
C1A O2A 1_555 1_555
C1D O2D 1_555 1_555
C1B O2B 1_555 1_555
C1E O2E 1_555 1_555
C2C C1C 1_555 1_555
C2A C1A 1_555 1_555
C2D C1D 1_555 1_555
C2B C1B 1_555 1_555
C2E C1E 1_555 1_555
C3C C2C 1_555 1_555
C3A C2A 1_555 1_555
C3D C2D 1_555 1_555
C3B C2B 1_555 1_555
C3E C2E 1_555 1_555
H1C C3C 1_555 1_555
H1A C3A 1_555 1_555
H1D C3D 1_555 1_555
H1B C3B 1_555 1_555
H1E C3E 1_555 1_555
C4C C3C 1_555 1_555
C4A C3A 1_555 1_555
C4D C3D 1_555 1_555
C4B C3B 1_555 1_555
C4E C3E 1_555 1_555
H2C C4C 1_555 1_555
H2A C4A 1_555 1_555
H2D C4D 1_555 1_555
H2B C4B 1_555 1_555
H2E C4E 1_555 1_555
C5C C4C 1_555 1_555
C5A C4A 1_555 1_555
C5D C4D 1_555 1_555
C5B C4B 1_555 1_555
C5E C4E 1_555 1_555
C6C C5C 1_555 1_555
C6A C5A 1_555 1_555
C6D C5D 1_555 1_555
C6B C5B 1_555 1_555
C6E C5E 1_555 1_555
H3C C6C 1_555 1_555
H3A C6A 1_555 1_555
H3D C6D 1_555 1_555
H3B C6B 1_555 1_555
H3E C6E 1_555 1_555
C7C C2C 1_555 1_555
C7A C2A 1_555 1_555
C7D C2D 1_555 1_555
C7B C2B 1_555 1_555
C7E C2E 1_555 1_555
H4C C7C 1_555 1_555
H4A C7A 1_555 1_555
H4D C7D 1_555 1_555
H4B C7B 1_555 1_555
H4E C7E 1_555 1_555
C8C C5C 1_555 1_555
C8A C5A 1_555 1_555
C8D C5D 1_555 1_555
C8B C5B 1_555 1_555
C8E C5E 1_555 1_555
C9C C8C 1_555 1_555
C9A C8A 1_555 1_555
C9D C8D 1_555 1_555
C9B C8B 1_555 1_555
C9E C8E 1_555 1_555
C10C C9C 1_555 1_555
C10A C9A 1_555 1_555
C10D C9D 1_555 1_555
C10B C9B 1_555 1_555
C10E C9E 1_555 1_555
C11C C15 1_555 1_555
C11A C10A 1_555 1_555
C11D C10D 1_555 1_555
C11B C10B 1_555 1_555
C11E C10E 1_555 1_555
O6C C11C 1_555 1_555
O6A C11A 1_555 1_555
O6D C11D 1_555 1_555
O6B C11B 1_555 1_555
O6E C11E 1_555 1_555
C12C O6C 1_555 1_555
C12A O6A 1_555 1_555
C12D O6D 1_555 1_555
C12B O6B 1_555 1_555
C12E O6E 1_555 1_555
C13C C12C 1_555 1_555
C13A C12A 1_555 1_555
C13D C12D 1_555 1_555
C13B C12B 1_555 1_555
C13E C12E 1_555 1_555
O7C C13C 1_555 1_555
O7A C13A 1_555 1_555
O7D C13D 1_555 1_555
O7B C13B 1_555 1_555
O7E C13E 1_555 1_555
C14C O7C 1_555 1_555
C14A O7A 1_555 1_555
C14D O7D 1_555 1_555
C14B O7B 1_555 1_555
C14E O7E 1_555 1_555
C15C C11 1_555 1_555
C15A C10A 1_555 1_555
C15D C10D 1_555 1_555
C15B C10B 1_555 1_555
C15E C10E 1_555 1_555
C16C C17C 1_555 1_555
C16B O3B 1_555 1_555
C16E C17E 1_555 1_555
C16A O3A 1_555 1_555
C16D C17D 1_555 1_555
C17C C18C 1_555 1_555
C17B C16B 1_555 1_555
C17E C18E 1_555 1_555
C17A C16A 1_555 1_555
C17D C18D 1_555 1_555
C18C H5C 1_555 1_555
C18B C17B 1_555 1_555
C18E H5E 1_555 1_555
C18A C17A 1_555 1_555
C18D H5D 1_555 1_555
H5B C18B 1_555 1_555
H5A C18A 1_555 1_555
C19C C18C 1_555 1_555
C19B C18B 1_555 1_555
C19E C18E 1_555 1_555
C19A C18A 1_555 1_555
C19D C18D 1_555 1_555
H6C C19C 1_555 1_555
H6B C19B 1_555 1_555
H6E C19E 1_555 1_555
H6A C19A 1_555 1_555
H6D C19D 1_555 1_555
C20C C19C 1_555 1_555
C20B C19B 1_555 1_555
C20E C19E 1_555 1_555
C20A C19A 1_555 1_555
C20D C19D 1_555 1_555
C21C C20C 1_555 1_555
C21B C20B 1_555 1_555
C21E C20E 1_555 1_555
C21A C20A 1_555 1_555
C21D C20D 1_555 1_555
H7C C21C 1_555 1_555
H7B C21B 1_555 1_555
H7E C21E 1_555 1_555
H7A C21A 1_555 1_555
H7D C21D 1_555 1_555
C22C C17C 1_555 1_555
C22B C17B 1_555 1_555
C22E C17E 1_555 1_555
C22A C17A 1_555 1_555
C22D C17D 1_555 1_555
H8C C22C 1_555 1_555
H8B C22B 1_555 1_555
H8E C22E 1_555 1_555
H8A C22A 1_555 1_555
H8D C22D 1_555 1_555
C23C C20C 1_555 1_555
C23B C20B 1_555 1_555
C23E C20E 1_555 1_555
C23A C20A 1_555 1_555
C23D C20D 1_555 1_555
C24C C23C 1_555 1_555
C24B C23B 1_555 1_555
C24E C23E 1_555 1_555
C24A C23A 1_555 1_555
C24D C23D 1_555 1_555
C25C C24C 1_555 1_555
C25B C24B 1_555 1_555
C25E C24E 1_555 1_555
C25A C24A 1_555 1_555
C25D C24D 1_555 1_555
C26C C30 1_555 1_555
C26B C25B 1_555 1_555
C26E C25E 1_555 1_555
C26A C25A 1_555 1_555
C26D C25D 1_555 1_555
O8C C26C 1_555 1_555
O8B C26B 1_555 1_555
O8E C26E 1_555 1_555
O8A C26A 1_555 1_555
O8D C26D 1_555 1_555
C27C O8C 1_555 1_555
C27B O8B 1_555 1_555
C27E O8E 1_555 1_555
C27A O8A 1_555 1_555
C27D O8D 1_555 1_555
C28C C27C 1_555 1_555
C28B C27B 1_555 1_555
C28E C27E 1_555 1_555
C28A C27A 1_555 1_555
C28D C27D 1_555 1_555
O9C C28C 1_555 1_555
O9B C28B 1_555 1_555
O9E C28E 1_555 1_555
O9A C28A 1_555 1_555
O9D C28D 1_555 1_555
C29C O9C 1_555 1_555
C29B O9B 1_555 1_555
C29E O9E 1_555 1_555
C29A O9A 1_555 1_555
C29D O9D 1_555 1_555
C30C C26 1_555 1_555
C30B C25B 1_555 1_555
C30E C25E 1_555 1_555
C30A C25A 1_555 1_555
C30D C25D 1_555 1_555
O10C C30C 1_555 1_555
O10B C30B 1_555 1_555
O10E C30E 1_555 1_555
O10A C30A 1_555 1_555
O10D C30D 1_555 1_555
O5 Zn2A 1_555 1_555
C6 C7 1_555 1_555
C21 C22 1_555 1_555
O4B C16B 1_555 1_555
O4A C16A 1_555 1_555
O5C C1C 1_555 1_555
O5A C1A 1_555 1_555
O5D C1D 1_555 1_555
O5B C1B 1_555 1_555
O5E C1E 1_555 1_555
C6C C7C 1_555 1_555
C6A C7A 1_555 1_555
C6D C7D 1_555 1_555
C6B C7B 1_555 1_555
C6E C7E 1_555 1_555
C10C C11C 1_555 1_555
C10C C15C 1_555 1_555
C11A C15D 1_555 1_555
C11D C15A 1_555 1_555
C11B C15E 1_555 1_555
C11E C15B 1_555 1_555
C21C C22C 1_555 1_555
C21B C22B 1_555 1_555
C21E C22E 1_555 1_555
C21A C22A 1_555 1_555
C21D C22D 1_555 1_555
C25C C26C 1_555 1_555
C25C C30C 1_555 1_555
C26B C30E 1_555 1_555
C26E C30B 1_555 1_555
C26A C30D 1_555 1_555
C26D C30A 1_555 1_555

#END
