
#######################################################################
#
#                 Cambridge Crystallographic Data Centre
#                                CCDC 
#
#######################################################################
#
# If this CIF has been generated from an entry in the Cambridge 
# Structural Database, then it will include bibliographic, chemical, 
# crystal, experimental, refinement or atomic coordinate data resulting 
# from the CCDC's data processing and validation procedures.
#
#######################################################################

data_UHURIZ
_symmetry_cell_setting           monoclinic
_symmetry_space_group_name_H-M   'P 21/c'
_symmetry_Int_Tables_number      14
_space_group_name_Hall           '-P 2ybc'
loop_
_symmetry_equiv_pos_site_id
_symmetry_equiv_pos_as_xyz
1 x,y,z
2 -x,1/2+y,1/2-z
3 -x,-y,-z
4 x,1/2-y,1/2+z
_cell_length_a                   14.957(4)
_cell_length_b                   25.307(6)
_cell_length_c                   14.785(3)
_cell_angle_alpha                90
_cell_angle_beta                 90.579(5)
_cell_angle_gamma                90
_cell_volume                     5596.09
loop_
_atom_site_label
_atom_site_type_symbol
_atom_site_fract_x
_atom_site_fract_y
_atom_site_fract_z
Cu1 Cu 0.0000 0.5000 0.5000
Cu2 Cu 0.73504(4) 0.50750(3) 0.18911(4)
Cu3 Cu 1.5000 0.5000 0.5000
O1 O 0.1085(2) 0.45747(13) 0.5590(2)
O2 O 0.7402(3) 0.51098(15) 0.3317(2)
O3 O 0.7230(3) 0.50853(19) 0.0484(3)
O4 O 1.3784(2) 0.53613(14) 0.5435(2)
O5 O 0.8086(2) 0.57474(13) 0.1900(2)
O6 O 1.4684(2) 0.57333(13) 0.4460(2)
O7 O 0.0125(3) 0.42006(13) 0.4649(2)
C1 C 0.1352(4) 0.36716(19) 0.5180(3)
O8 O 0.6580(3) 0.41163(15) 0.0641(3)
O9 O 0.2946(3) 0.23330(14) 0.5219(3)
N1 N -0.0816(3) 0.47808(16) 0.6084(3)
O10 O 0.4085(3) 0.24654(15) 0.2625(3)
O11 O 0.6647(2) 0.44074(15) 0.2051(2)
N2 N 0.8550(3) 0.46201(17) 0.1850(3)
C2 C 0.5813(3) 0.3643(2) 0.1772(4)
N3 N 1.4313(3) 0.45994(17) 0.3978(3)
C3 C 0.8547(4) 0.5947(2) 0.1273(5)
O12 O 0.8541(3) 0.58028(15) 0.0467(3)
C4 C 0.9152(4) 0.4655(2) 0.1194(4)
H1 H 0.9038 0.4896 0.0731
C5 C -0.1948(4) 0.4403(2) 0.7451(4)
N4 N -0.6134(3) 0.44795(18) 0.8113(3)
C6 C 1.3488(4) 0.6257(2) 0.4971(4)
C7 C 1.4004(4) 0.5757(2) 0.4954(4)
C8 C 0.2852(4) 0.1912(2) 0.4579(4)
H2 H 0.2246 0.1776 0.4606
H3 H 0.3255 0.1628 0.4750
C9 C -0.5934(4) 0.4108(2) 0.7526(4)
H4 H -0.6321 0.4057 0.7037
C10 C 0.6393(4) 0.4092(2) 0.1458(4)
C11 C 0.2383(4) 0.2758(2) 0.5177(4)
O13 O 1.1989(3) 0.76298(17) 0.4964(3)
C12 C 0.9159(4) 0.6382(2) 0.1551(4)
C13 C 0.0826(4) 0.4170(2) 0.5141(4)
O14 O 1.0966(3) 0.75454(19) 0.2346(3)
C14 C -0.0504(4) 0.4613(2) 0.6876(4)
H5 H 0.0109 0.4630 0.6981
C15 C 0.3045(4) 0.2076(2) 0.3622(4)
H6 H 0.2563 0.2298 0.3398
H7 H 0.3073 0.1764 0.3242
C16 C 0.1587(4) 0.2773(2) 0.4695(4)
H8 H 0.1397 0.2479 0.4370
C17 C 0.4731(4) 0.2963(2) 0.1483(4)
H9 H 0.4379 0.2776 0.1071
C18 C 0.9796(4) 0.6601(2) 0.0962(4)
H10 H 0.9830 0.6480 0.0368
C19 C 0.1075(4) 0.3227(2) 0.4700(4)
H11 H 0.0538 0.3235 0.4378
C20 C 0.4682(4) 0.2845(2) 0.2383(4)
C21 C 0.2638(4) 0.3188(2) 0.5701(4)
H12 H 0.3155 0.3170 0.6055
C22 C 1.3841(4) 0.6713(2) 0.4607(4)
H13 H 1.4412 0.6704 0.4365
C23 C 0.8749(4) 0.4273(2) 0.2482(4)
H14 H 0.8341 0.4227 0.2947
C24 C -0.1709(4) 0.4782(2) 0.5996(4)
H15 H -0.1953 0.4915 0.5461
C25 C 0.3919(4) 0.2374(2) 0.3567(4)
H16 H 0.3877 0.2707 0.3888
H17 H 0.4400 0.2168 0.3834
C26 C -0.4604(4) 0.3846(2) 0.8299(4)
C27 C 1.4416(4) 0.4665(2) 0.3104(4)
H18 H 1.4849 0.4901 0.2908
C28 C -0.2284(4) 0.4603(2) 0.6637(4)
H19 H -0.2897 0.4613 0.6532
C29 C 1.3720(4) 0.4234(3) 0.4238(4)
H20 H 1.3656 0.4168 0.4853
C30 C 0.9122(4) 0.6588(2) 0.2409(4)
H21 H 0.8697 0.6459 0.2807
C31 C 0.5242(4) 0.3118(2) 0.2998(4)
H22 H 0.5247 0.3031 0.3609
C32 C 1.3367(4) 0.7183(2) 0.4593(4)
H23 H 1.3618 0.7487 0.4346
C33 C 1.2011(4) 0.7915(2) 0.3408(5)
H24 H 1.2477 0.7675 0.3214
H25 H 1.2039 0.8228 0.3032
C34 C 0.2133(4) 0.3636(2) 0.5697(3)
H26 H 0.2313 0.3923 0.6046
C35 C 1.2637(4) 0.6278(2) 0.5332(4)
H27 H 1.2387 0.5977 0.5584
C36 C 1.3908(4) 0.4398(2) 0.2460(4)
H28 H 1.3991 0.4470 0.1849
C37 C -0.4793(4) 0.4242(3) 0.8899(4)
H29 H -0.4404 0.4308 0.9380
C38 C 1.3199(4) 0.3952(2) 0.3629(5)
H30 H 1.2786 0.3708 0.3840
C39 C -0.5545(4) 0.4539(2) 0.8796(4)
H31 H -0.5659 0.4798 0.9226
C40 C -0.2993(4) 0.3669(2) 0.7832(4)
H32 H -0.3188 0.3702 0.7207
H33 H -0.2534 0.3398 0.7858
C41 C -0.5193(4) 0.3790(2) 0.7587(4)
H34 H -0.5090 0.3536 0.7146
C42 C 0.5778(4) 0.3514(2) 0.2678(4)
H35 H 0.6131 0.3702 0.3087
C43 C 1.0982(5) 0.3701(3) 0.1760(5)
H36 H 1.0922 0.3375 0.2098
H37 H 1.1106 0.3611 0.1136
C44 C 0.5293(4) 0.3355(2) 0.1173(4)
H38 H 0.5321 0.3426 0.0557
C45 C 1.2175(5) 0.8064(2) 0.4364(5)
H39 H 1.2794 0.8172 0.4441
H40 H 1.1799 0.8363 0.4518
C46 C 1.2158(4) 0.6746(3) 0.5319(4)
H41 H 1.1587 0.6755 0.5563
C47 C 1.3288(4) 0.4032(3) 0.2710(5)
C48 C -0.1039(4) 0.4413(2) 0.7555(4)
H42 H -0.0778 0.4285 0.8084
C49 C -0.2591(4) 0.4188(2) 0.8137(4)
H43 H -0.2279 0.4136 0.8708
H44 H -0.3065 0.4442 0.8232
C50 C 1.0361(4) 0.6985(3) 0.1256(5)
H45 H 1.0774 0.7126 0.0856
C51 C 1.2513(4) 0.7196(2) 0.4953(4)
C52 C -0.3786(4) 0.3492(3) 0.8403(4)
H46 H -0.3604 0.3487 0.9034
H47 H -0.3949 0.3135 0.8232
C53 C 0.9502(5) 0.3980(3) 0.2507(4)
H48 H 0.9612 0.3755 0.2993
C54 C 1.0340(4) 0.7171(3) 0.2118(5)
C55 C 0.9918(4) 0.4369(3) 0.1144(5)
H49 H 1.0304 0.4417 0.0662
C56 C 1.1106(5) 0.7651(3) 0.3275(5)
H50 H 1.1087 0.7324 0.3616
H51 H 1.0638 0.7881 0.3496
C57 C 1.0115(4) 0.4012(3) 0.1805(5)
C58 C 1.2660(4) 0.3765(3) 0.2085(4)
H52 H 1.2630 0.3392 0.2238
H53 H 1.2880 0.3794 0.1473
C59 C 0.9700(5) 0.6983(3) 0.2701(5)
H54 H 0.9657 0.7119 0.3283
C60 C 1.1708(5) 0.4006(3) 0.2128(6)
H55 H 1.1577 0.4079 0.2757
H56 H 1.1718 0.4343 0.1815
H57 H 0.779(2) 0.5225(15) 0.367(2)
H58 H 0.709(3) 0.4892(15) 0.359(2)
H59 H 0.7709(18) 0.5243(14) 0.040(4)
H60 H 0.733(3) 0.4763(5) 0.042(3)
Cu2B Cu -0.73504(4) 0.49250(3) 0.81089(4)
Cu3_2 Cu -1.5000 0.5000 0.5000
O1B O -0.1085(2) 0.54253(13) 0.4410(2)
O2B O -0.7402(3) 0.48902(15) 0.6683(2)
O3B O -0.7230(3) 0.49147(19) 0.9516(3)
O4B O -1.3784(2) 0.46387(14) 0.4565(2)
O4B_2 O 1.6216(2) 0.46387(14) 0.4565(2)
O5B O -0.8086(2) 0.42526(13) 0.8100(2)
O6B O -1.4684(2) 0.42667(13) 0.5540(2)
O6B_2 O 1.5316(2) 0.42667(13) 0.5540(2)
O7B O -0.0125(3) 0.57994(13) 0.5351(2)
C1B C -0.1352(4) 0.63284(19) 0.4820(3)
O8B O -0.6580(3) 0.58837(15) 0.9359(3)
O9B O -0.2946(3) 0.76670(14) 0.4781(3)
N1B N 0.0816(3) 0.52192(16) 0.3916(3)
O10B O -0.4085(3) 0.75346(15) 0.7375(3)
O11B O -0.6647(2) 0.55926(15) 0.7949(2)
N2B N -0.8550(3) 0.53799(17) 0.8150(3)
C2B C -0.5813(3) 0.6357(2) 0.8228(4)
N3B N -1.4313(3) 0.54006(17) 0.6022(3)
N3B_2 N 1.5687(3) 0.54006(17) 0.6022(3)
C3B C -0.8547(4) 0.4053(2) 0.8727(5)
O12B O -0.8541(3) 0.41972(15) 0.9533(3)
C4B C -0.9152(4) 0.5345(2) 0.8806(4)
H1B H -0.9038 0.5104 0.9269
C5B C 0.1948(4) 0.5597(2) 0.2549(4)
N4B N 0.6134(3) 0.55205(18) 0.1887(3)
C6B C -1.3488(4) 0.3743(2) 0.5029(4)
C7B C -1.4004(4) 0.4243(2) 0.5046(4)
C8B C -0.2852(4) 0.8088(2) 0.5421(4)
H2B H -0.2246 0.8224 0.5394
H3B H -0.3255 0.8372 0.5250
C9B C 0.5934(4) 0.5892(2) 0.2474(4)
H4B H 0.6321 0.5943 0.2963
C10B C -0.6393(4) 0.5908(2) 0.8542(4)
C11B C -0.2383(4) 0.7242(2) 0.4823(4)
O13B O -1.1989(3) 0.23702(17) 0.5036(3)
C12B C -0.9159(4) 0.3618(2) 0.8449(4)
C13B C -0.0826(4) 0.5830(2) 0.4859(4)
O14B O -1.0966(3) 0.24546(19) 0.7654(3)
C14B C 0.0504(4) 0.5387(2) 0.3124(4)
H5B H -0.0109 0.5370 0.3019
C15B C -0.3045(4) 0.7924(2) 0.6378(4)
H6B H -0.2563 0.7702 0.6602
H7B H -0.3073 0.8236 0.6758
C16B C -0.1587(4) 0.7227(2) 0.5305(4)
H8B H -0.1397 0.7521 0.5630
C17B C -0.4731(4) 0.7037(2) 0.8517(4)
H9B H -0.4379 0.7224 0.8929
C18B C -0.9796(4) 0.3399(2) 0.9038(4)
H10B H -0.9830 0.3520 0.9632
C19B C -0.1075(4) 0.6773(2) 0.5300(4)
H11B H -0.0538 0.6765 0.5622
C20B C -0.4682(4) 0.7155(2) 0.7617(4)
C21B C -0.2638(4) 0.6812(2) 0.4299(4)
H12B H -0.3155 0.6830 0.3945
C22B C -1.3841(4) 0.3287(2) 0.5393(4)
H13B H -1.4412 0.3296 0.5635
C23B C -0.8749(4) 0.5727(2) 0.7518(4)
H14B H -0.8341 0.5773 0.7053
C24B C 0.1709(4) 0.5218(2) 0.4004(4)
H15B H 0.1953 0.5085 0.4539
C25B C -0.3919(4) 0.7626(2) 0.6433(4)
H16B H -0.3877 0.7293 0.6112
H17B H -0.4400 0.7832 0.6166
C26B C 0.4604(4) 0.6154(2) 0.1701(4)
C27B C -1.4416(4) 0.5335(2) 0.6896(4)
H18B H -1.4849 0.5099 0.7092
C28B C 0.2284(4) 0.5397(2) 0.3363(4)
H19B H 0.2897 0.5387 0.3468
C29B C -1.3720(4) 0.5766(3) 0.5762(4)
H20B H -1.3656 0.5832 0.5147
C30B C -0.9122(4) 0.3412(2) 0.7591(4)
H21B H -0.8697 0.3541 0.7193
C31B C -0.5242(4) 0.6882(2) 0.7002(4)
H22B H -0.5247 0.6969 0.6391
C32B C -1.3367(4) 0.2817(2) 0.5407(4)
H23B H -1.3618 0.2513 0.5654
C33B C -1.2011(4) 0.2085(2) 0.6592(5)
H24B H -1.2477 0.2325 0.6786
H25B H -1.2039 0.1772 0.6968
C34B C -0.2133(4) 0.6364(2) 0.4303(3)
H26B H -0.2313 0.6077 0.3954
C35B C -1.2637(4) 0.3722(2) 0.4668(4)
H27B H -1.2387 0.4023 0.4416
C36B C -1.3908(4) 0.5602(2) 0.7540(4)
H28B H -1.3991 0.5530 0.8151
C37B C 0.4793(4) 0.5758(3) 0.1101(4)
H29B H 0.4404 0.5692 0.0620
C38B C -1.3199(4) 0.6048(2) 0.6371(5)
H30B H -1.2786 0.6292 0.6160
C39B C 0.5545(4) 0.5461(2) 0.1204(4)
H31B H 0.5659 0.5202 0.0774
C40B C 0.2993(4) 0.6331(2) 0.2168(4)
H32B H 0.3188 0.6298 0.2793
H33B H 0.2534 0.6602 0.2142
C41B C 0.5193(4) 0.6210(2) 0.2413(4)
H34B H 0.5090 0.6464 0.2854
C42B C -0.5778(4) 0.6486(2) 0.7322(4)
H35B H -0.6131 0.6298 0.6913
C43B C -1.0982(5) 0.6299(3) 0.8240(5)
H36B H -1.0922 0.6625 0.7902
H37B H -1.1106 0.6389 0.8864
C44B C -0.5293(4) 0.6645(2) 0.8827(4)
H38B H -0.5321 0.6574 0.9443
C45B C -1.2175(5) 0.1936(2) 0.5636(5)
H39B H -1.2794 0.1828 0.5559
H40B H -1.1799 0.1637 0.5482
C46B C -1.2158(4) 0.3254(3) 0.4681(4)
H41B H -1.1587 0.3245 0.4437
C47B C -1.3288(4) 0.5968(3) 0.7290(5)
C48B C 0.1039(4) 0.5587(2) 0.2445(4)
H42B H 0.0778 0.5715 0.1916
C49B C 0.2591(4) 0.5812(2) 0.1863(4)
H43B H 0.2279 0.5864 0.1292
H44B H 0.3065 0.5558 0.1768
C50B C -1.0361(4) 0.3015(3) 0.8744(5)
H45B H -1.0774 0.2874 0.9144
C51B C -1.2513(4) 0.2804(2) 0.5047(4)
C52B C 0.3786(4) 0.6508(3) 0.1597(4)
H46B H 0.3604 0.6513 0.0966
H47B H 0.3949 0.6865 0.1768
C53B C -0.9502(5) 0.6020(3) 0.7493(4)
H48B H -0.9612 0.6245 0.7007
C54B C -1.0340(4) 0.2829(3) 0.7882(5)
C55B C -0.9918(4) 0.5631(3) 0.8856(5)
H49B H -1.0304 0.5583 0.9338
C56B C -1.1106(5) 0.2349(3) 0.6725(5)
H50B H -1.1087 0.2676 0.6384
H51B H -1.0638 0.2119 0.6504
C57B C -1.0115(4) 0.5988(3) 0.8195(5)
C58B C -1.2660(4) 0.6235(3) 0.7915(4)
H52B H -1.2630 0.6608 0.7762
H53B H -1.2880 0.6206 0.8527
C59B C -0.9700(5) 0.3017(3) 0.7299(5)
H54B H -0.9657 0.2881 0.6717
C60B C -1.1708(5) 0.5994(3) 0.7872(6)
H55B H -1.1577 0.5921 0.7243
H56B H -1.1718 0.5657 0.8185
H57B H -0.779(2) 0.4775(15) 0.633(2)
H58B H -0.709(3) 0.5108(15) 0.641(2)
H59B H -0.7709(18) 0.4757(14) 0.960(4)
H60B H -0.733(3) 0.5237(5) 0.958(3)
loop_
_geom_bond_atom_site_label_1
_geom_bond_atom_site_label_2
_geom_bond_site_symmetry_1
_geom_bond_site_symmetry_2
Cu1 O1 1_555 1_555
Cu2 O2 1_555 1_555
Cu3 O4 1_555 1_555
O1 C13 1_555 1_555
O2 H57 1_555 1_555
O3 Cu2 1_555 1_555
O4 C7 1_555 1_555
O5 Cu2 1_555 1_555
O6 Cu3 1_555 1_555
O7 Cu1 1_555 1_555
C1 C13 1_555 1_555
O8 C10 1_555 1_555
O9 C8 1_555 1_555
N1 Cu1 1_555 1_555
O10 C20 1_555 1_555
O11 Cu2 1_555 1_555
N2 Cu2 1_555 1_555
C2 C10 1_555 1_555
N3 Cu3 1_555 1_555
C3 O5 1_555 1_555
O12 C3 1_555 1_555
C4 N2 1_555 1_555
H1 C4 1_555 1_555
C5 C28 1_555 1_555
N4 C9 1_555 1_555
C6 C7 1_555 1_555
C7 O6 1_555 1_555
C8 H2 1_555 1_555
H3 C8 1_555 1_555
C9 H4 1_555 1_555
C10 O11 1_555 1_555
C11 O9 1_555 1_555
O13 C45 1_555 1_555
C12 C3 1_555 1_555
C13 O7 1_555 1_555
O14 C54 1_555 1_555
C14 N1 1_555 1_555
H5 C14 1_555 1_555
C15 C8 1_555 1_555
H6 C15 1_555 1_555
H7 C15 1_555 1_555
C16 C11 1_555 1_555
H8 C16 1_555 1_555
C17 H9 1_555 1_555
C18 C12 1_555 1_555
H10 C18 1_555 1_555
C19 C1 1_555 1_555
H11 C19 1_555 1_555
C20 C17 1_555 1_555
C21 C11 1_555 1_555
H12 C21 1_555 1_555
C22 C6 1_555 1_555
H13 C22 1_555 1_555
C23 N2 1_555 1_555
H14 C23 1_555 1_555
C24 N1 1_555 1_555
H15 C24 1_555 1_555
C25 O10 1_555 1_555
H16 C25 1_555 1_555
H17 C25 1_555 1_555
C26 C37 1_555 1_555
C27 N3 1_555 1_555
H18 C27 1_555 1_555
C28 C24 1_555 1_555
H19 C28 1_555 1_555
C29 N3 1_555 1_555
H20 C29 1_555 1_555
C30 C12 1_555 1_555
H21 C30 1_555 1_555
C31 C20 1_555 1_555
H22 C31 1_555 1_555
C32 C22 1_555 1_555
H23 C32 1_555 1_555
C33 H24 1_555 1_555
H25 C33 1_555 1_555
C34 C1 1_555 1_555
H26 C34 1_555 1_555
C35 C6 1_555 1_555
H27 C35 1_555 1_555
C36 C27 1_555 1_555
H28 C36 1_555 1_555
C37 H29 1_555 1_555
C38 C29 1_555 1_555
H30 C38 1_555 1_555
C39 N4 1_555 1_555
H31 C39 1_555 1_555
C40 H32 1_555 1_555
H33 C40 1_555 1_555
C41 C9 1_555 1_555
H34 C41 1_555 1_555
C42 C2 1_555 1_555
H35 C42 1_555 1_555
C43 H36 1_555 1_555
H37 C43 1_555 1_555
C44 C2 1_555 1_555
H38 C44 1_555 1_555
C45 C33 1_555 1_555
H39 C45 1_555 1_555
H40 C45 1_555 1_555
C46 C35 1_555 1_555
H41 C46 1_555 1_555
C47 C36 1_555 1_555
C48 C5 1_555 1_555
H42 C48 1_555 1_555
C49 C5 1_555 1_555
H43 C49 1_555 1_555
H44 C49 1_555 1_555
C50 C18 1_555 1_555
H45 C50 1_555 1_555
C51 O13 1_555 1_555
C52 C26 1_555 1_555
H46 C52 1_555 1_555
H47 C52 1_555 1_555
C53 C23 1_555 1_555
H48 C53 1_555 1_555
C54 C50 1_555 1_555
C55 C4 1_555 1_555
H49 C55 1_555 1_555
C56 O14 1_555 1_555
H50 C56 1_555 1_555
H51 C56 1_555 1_555
C57 C43 1_555 1_555
C58 C47 1_555 1_555
H52 C58 1_555 1_555
H53 C58 1_555 1_555
C59 C30 1_555 1_555
H54 C59 1_555 1_555
C60 C43 1_555 1_555
H55 C60 1_555 1_555
H56 C60 1_555 1_555
H58 O2 1_555 1_555
H59 O3 1_555 1_555
H60 O3 1_555 1_555
Cu2B N4 1_555 1_555
Cu3_2 O4B 1_555 1_555
O1B Cu1 1_555 1_555
O2B Cu2B 1_555 1_555
O3B Cu2B 1_555 1_555
O4B C7B 1_555 1_555
O4B_2 Cu3 1_555 1_555
O5B Cu2B 1_555 1_555
O6B Cu3_2 1_555 1_555
O6B_2 Cu3 1_555 1_555
O7B Cu1 1_555 1_555
C1B C13B 1_555 1_555
O8B C10B 1_555 1_555
O9B C8B 1_555 1_555
N1B Cu1 1_555 1_555
O10B C20B 1_555 1_555
O11B Cu2B 1_555 1_555
N2B Cu2B 1_555 1_555
C2B C10B 1_555 1_555
N3B Cu3_2 1_555 1_555
N3B_2 Cu3 1_555 1_555
C3B O5B 1_555 1_555
O12B C3B 1_555 1_555
C4B N2B 1_555 1_555
H1B C4B 1_555 1_555
C5B C28B 1_555 1_555
N4B Cu2 1_555 1_555
C6B C7B 1_555 1_555
C7B O6B 1_555 1_555
C8B H2B 1_555 1_555
H3B C8B 1_555 1_555
C9B N4B 1_555 1_555
H4B C9B 1_555 1_555
C10B O11B 1_555 1_555
C11B O9B 1_555 1_555
O13B C45B 1_555 1_555
C12B C3B 1_555 1_555
C13B O1B 1_555 1_555
O14B C54B 1_555 1_555
C14B N1B 1_555 1_555
H5B C14B 1_555 1_555
C15B C8B 1_555 1_555
H6B C15B 1_555 1_555
H7B C15B 1_555 1_555
C16B C11B 1_555 1_555
H8B C16B 1_555 1_555
C17B H9B 1_555 1_555
C18B C12B 1_555 1_555
H10B C18B 1_555 1_555
C19B C1B 1_555 1_555
H11B C19B 1_555 1_555
C20B C17B 1_555 1_555
C21B C11B 1_555 1_555
H12B C21B 1_555 1_555
C22B C6B 1_555 1_555
H13B C22B 1_555 1_555
C23B N2B 1_555 1_555
H14B C23B 1_555 1_555
C24B N1B 1_555 1_555
H15B C24B 1_555 1_555
C25B O10B 1_555 1_555
H16B C25B 1_555 1_555
H17B C25B 1_555 1_555
C26B C37B 1_555 1_555
C27B N3B 1_555 1_555
H18B C27B 1_555 1_555
C28B C24B 1_555 1_555
H19B C28B 1_555 1_555
C29B N3B 1_555 1_555
H20B C29B 1_555 1_555
C30B C12B 1_555 1_555
H21B C30B 1_555 1_555
C31B C20B 1_555 1_555
H22B C31B 1_555 1_555
C32B C22B 1_555 1_555
H23B C32B 1_555 1_555
C33B H24B 1_555 1_555
H25B C33B 1_555 1_555
C34B C1B 1_555 1_555
H26B C34B 1_555 1_555
C35B C6B 1_555 1_555
H27B C35B 1_555 1_555
C36B C27B 1_555 1_555
H28B C36B 1_555 1_555
C37B H29B 1_555 1_555
C38B C29B 1_555 1_555
H30B C38B 1_555 1_555
C39B N4B 1_555 1_555
H31B C39B 1_555 1_555
C40B H32B 1_555 1_555
H33B C40B 1_555 1_555
C41B C9B 1_555 1_555
H34B C41B 1_555 1_555
C42B C2B 1_555 1_555
H35B C42B 1_555 1_555
C43B H36B 1_555 1_555
H37B C43B 1_555 1_555
C44B C2B 1_555 1_555
H38B C44B 1_555 1_555
C45B C33B 1_555 1_555
H39B C45B 1_555 1_555
H40B C45B 1_555 1_555
C46B C35B 1_555 1_555
H41B C46B 1_555 1_555
C47B C36B 1_555 1_555
C48B C5B 1_555 1_555
H42B C48B 1_555 1_555
C49B C5B 1_555 1_555
H43B C49B 1_555 1_555
H44B C49B 1_555 1_555
C50B C18B 1_555 1_555
H45B C50B 1_555 1_555
C51B O13B 1_555 1_555
C52B C26B 1_555 1_555
H46B C52B 1_555 1_555
H47B C52B 1_555 1_555
C53B C23B 1_555 1_555
H48B C53B 1_555 1_555
C54B C50B 1_555 1_555
C55B C4B 1_555 1_555
H49B C55B 1_555 1_555
C56B O14B 1_555 1_555
H50B C56B 1_555 1_555
H51B C56B 1_555 1_555
C57B C43B 1_555 1_555
C58B C47B 1_555 1_555
H52B C58B 1_555 1_555
H53B C58B 1_555 1_555
C59B C30B 1_555 1_555
H54B C59B 1_555 1_555
C60B C43B 1_555 1_555
H55B C60B 1_555 1_555
H56B C60B 1_555 1_555
H57B O2B 1_555 1_555
H58B O2B 1_555 1_555
H59B O3B 1_555 1_555
H60B O3B 1_555 1_555
C14 C48 1_555 1_555
C15 C25 1_555 1_555
C16 C19 1_555 1_555
C17 C44 1_555 1_555
C21 C34 1_555 1_555
C26 C41 1_555 1_555
C31 C42 1_555 1_555
C32 C51 1_555 1_555
C33 C56 1_555 1_555
C37 C39 1_555 1_555
C38 C47 1_555 1_555
C40 C49 1_555 1_555
C40 C52 1_555 1_555
C46 C51 1_555 1_555
C53 C57 1_555 1_555
C54 C59 1_555 1_555
C55 C57 1_555 1_555
C58 C60 1_555 1_555
O7B C13B 1_555 1_555
C14B C48B 1_555 1_555
C15B C25B 1_555 1_555
C16B C19B 1_555 1_555
C17B C44B 1_555 1_555
C21B C34B 1_555 1_555
C26B C41B 1_555 1_555
C31B C42B 1_555 1_555
C32B C51B 1_555 1_555
C33B C56B 1_555 1_555
C37B C39B 1_555 1_555
C38B C47B 1_555 1_555
C40B C49B 1_555 1_555
C40B C52B 1_555 1_555
C46B C51B 1_555 1_555
C53B C57B 1_555 1_555
C54B C59B 1_555 1_555
C55B C57B 1_555 1_555
C58B C60B 1_555 1_555

#END
