
#######################################################################
#
#                 Cambridge Crystallographic Data Centre
#                                CCDC 
#
#######################################################################
#
# If this CIF has been generated from an entry in the Cambridge 
# Structural Database, then it will include bibliographic, chemical, 
# crystal, experimental, refinement or atomic coordinate data resulting 
# from the CCDC's data processing and validation procedures.
#
#######################################################################

data_UHUROF
_symmetry_cell_setting           monoclinic
_symmetry_space_group_name_H-M   'P 21/c'
_symmetry_Int_Tables_number      14
_space_group_name_Hall           '-P 2ybc'
loop_
_symmetry_equiv_pos_site_id
_symmetry_equiv_pos_as_xyz
1 x,y,z
2 -x,1/2+y,1/2-z
3 -x,-y,-z
4 x,1/2-y,1/2+z
_cell_length_a                   17.868(3)
_cell_length_b                   19.035(4)
_cell_length_c                   14.429(3)
_cell_angle_alpha                90
_cell_angle_beta                 101.648(3)
_cell_angle_gamma                90
_cell_volume                     4806.49
loop_
_atom_site_label
_atom_site_type_symbol
_atom_site_fract_x
_atom_site_fract_y
_atom_site_fract_z
Co1 Co 0.44530(4) 0.05603(4) 0.49236(5)
Co2 Co 0.94243(4) 0.54545(4) 0.00465(6)
O1 O 0.5407(2) 0.1086(2) 0.5520(3)
O2 O 0.6270(2) 0.0222(2) 0.5577(3)
O3 O 0.8435(3) 0.2866(2) 0.6510(3)
O4 O 0.9908(3) 0.3443(3) 0.5278(4)
O5 O 0.9498(3) 0.5053(2) 0.1361(3)
O6 O 1.0448(3) 0.4309(2) 0.1286(3)
O7 O 0.4372(2) 0.1051(2) 0.3645(3)
O8 O 0.5204(2) 0.0179(2) 0.3810(3)
O9 O 0.5360(3) 0.1324(3) -0.0292(3)
O10 O 0.6866(3) 0.1855(2) -0.1546(3)
O11 O 0.8627(2) 0.4735(2) -0.0503(3)
O12 O 0.9583(2) 0.3995(2) -0.0503(3)
N1 N 0.3770(2) 0.1026(2) 0.5752(3)
N2 N 0.1249(3) 0.3695(3) 0.9811(3)
C1 C 0.1718(4) 0.3694(4) 0.9201(5)
H3 H 0.1715 0.4077 0.8800
C2 C 0.2211(4) 0.3137(4) 0.9149(5)
H4 H 0.2545 0.3161 0.8732
C3 C 0.2209(4) 0.2551(4) 0.9709(4)
C4 C 0.1716(4) 0.2560(3) 1.0319(4)
H5 H 0.1697 0.2177 1.0713
C5 C 0.1253(3) 0.3122(3) 1.0357(4)
H6 H 0.0924 0.3109 1.0780
C6 C 0.2731(5) 0.1941(4) 0.9696(5)
H7 H 0.3125 0.1963 1.0267
H8 H 0.2439 0.1516 0.9734
C7 C 0.3121(4) 0.1864(4) 0.8873(5)
H9 H 0.3408 0.2290 0.8821
H10 H 0.3486 0.1481 0.9007
C8 C 0.2601(4) 0.1725(4) 0.7931(4)
H11 H 0.2231 0.1371 0.8019
H12 H 0.2322 0.2153 0.7724
C9 C 0.2997(3) 0.1482(3) 0.7156(4)
C10 C 0.2741(3) 0.0927(3) 0.6564(4)
H13 H 0.2297 0.0693 0.6625
C11 C 0.3133(3) 0.0714(3) 0.5887(4)
H14 H 0.2945 0.0335 0.5504
C12 C 0.4016(3) 0.1575(3) 0.6298(5)
H15 H 0.4449 0.1812 0.6202
C13 C 0.3654(4) 0.1808(3) 0.7007(5)
H16 H 0.3855 0.2186 0.7384
C14 C 0.6089(3) 0.0859(3) 0.5659(4)
C15 C 0.6711(3) 0.1377(3) 0.5927(4)
C16 C 0.7467(3) 0.1164(3) 0.6172(4)
H17 H 0.7580 0.0687 0.6195
C17 C 0.8052(3) 0.1644(3) 0.6382(4)
H18 H 0.8555 0.1487 0.6552
C18 C 0.7901(4) 0.2348(3) 0.6344(4)
C19 C 0.7141(4) 0.2583(3) 0.6089(4)
H19 H 0.7032 0.3061 0.6049
C20 C 0.6556(3) 0.2094(3) 0.5898(4)
H20 H 0.6051 0.2247 0.5749
C21 C 0.9213(4) 0.2664(4) 0.6731(5)
H21 H 0.9338 0.2379 0.6226
H22 H 0.9317 0.2393 0.7312
C22 C 0.9683(5) 0.3334(4) 0.6848(5)
H23 H 1.0221 0.3216 0.7032
H24 H 0.9547 0.3617 0.7348
C23 C 0.9549(5) 0.3774(4) 0.5906(6)
H25 H 0.9006 0.3811 0.5645
H26 H 0.9754 0.4244 0.6034
C24 C 0.9885(4) 0.3761(5) 0.4427(5)
C25 C 1.0326(5) 0.3449(5) 0.3873(6)
H27 H 1.0605 0.3047 0.4084
C26 C 1.0358(4) 0.3728(4) 0.3010(6)
H28 H 1.0680 0.3525 0.2654
C27 C 0.9926(3) 0.4301(3) 0.2656(4)
C28 C 0.9452(4) 0.4593(3) 0.3189(4)
H29 H 0.9136 0.4966 0.2947
C29 C 0.9442(5) 0.4333(4) 0.4095(5)
H30 H 0.9139 0.4546 0.4469
C30 C 0.9953(4) 0.4575(3) 0.1695(4)
C31 C 0.4866(4) 0.0679(3) 0.3333(4)
C32 C 0.5028(4) 0.0841(3) 0.2387(4)
C33 C 0.5544(3) 0.0442(3) 0.2010(4)
H31 H 0.5799 0.0073 0.2361
C34 C 0.5684(4) 0.0585(3) 0.1123(4)
H32 H 0.6033 0.0317 0.0877
C35 C 0.5294(4) 0.1135(4) 0.0601(4)
C36 C 0.4797(4) 0.1532(4) 0.0980(5)
H33 H 0.4549 0.1909 0.0639
C37 C 0.4659(4) 0.1381(4) 0.1851(5)
H34 H 0.4307 0.1650 0.2090
C38 C 0.5825(4) 0.0913(4) -0.0783(5)
H35 H 0.5665 0.0426 -0.0813
H36 H 0.6357 0.0938 -0.0463
C39 C 0.5726(4) 0.1215(4) -0.1759(4)
H37 H 0.5185 0.1236 -0.2037
H38 H 0.5965 0.0904 -0.2145
C40 C 0.6065(4) 0.1942(4) -0.1781(4)
H39 H 0.5913 0.2148 -0.2406
H40 H 0.5894 0.2247 -0.1326
C41 C 0.7308(3) 0.2440(3) -0.1379(4)
C42 C 0.8090(4) 0.2319(3) -0.1154(4)
H41 H 0.8275 0.1862 -0.1149
C43 C 0.8595(3) 0.2870(3) -0.0941(4)
H42 H 0.9117 0.2778 -0.0798
C44 C 0.8346(3) 0.3552(3) -0.0933(4)
C45 C 0.7561(3) 0.3667(3) -0.1164(4)
H43 H 0.7377 0.4124 -0.1162
C46 C 0.7046(3) 0.3121(4) -0.1396(4)
H44 H 0.6525 0.3213 -0.1563
C47 C 0.8883(4) 0.4138(3) -0.0632(4)
Co1B Co 0.55470(4) -0.05603(4) 0.50764(5)
Co2B Co 1.05757(4) 0.45455(4) -0.00465(6)
Co2B_2 Co 0.05757(4) 0.45455(4) 0.99535(6)
O2B O 0.3730(2) -0.0222(2) 0.4423(3)
O6B O 0.9552(3) 0.5691(2) -0.1286(3)
O8B O 0.4796(2) -0.0179(2) 0.6190(3)
O12B O 1.0417(2) 0.6005(2) 0.0503(3)
N2B N 0.8751(3) 0.6305(3) 0.0189(3)
O13 O 0.7709(11) 0.5991(9) 0.3078(9)
H1 H 0.8144 0.5892 0.3020
C48 C 0.7278(9) 0.5321(9) 0.2999(10)
H45 H 0.7625 0.4940 0.3197
H46 H 0.7023 0.5250 0.2354
H47 H 0.6907 0.5340 0.3396
O14 O 0.7809(5) 0.4871(5) 0.5937(9)
H2 H 0.7404 0.5081 0.5907
C49 C 0.8106(11) 0.4558(8) 0.6937(8)
H48 H 0.8346 0.4113 0.6879
H49 H 0.7685 0.4493 0.7250
H50 H 0.8471 0.4873 0.7299
loop_
_geom_bond_atom_site_label_1
_geom_bond_atom_site_label_2
_geom_bond_site_symmetry_1
_geom_bond_site_symmetry_2
Co1 O1 1_555 1_555
Co2 O5 1_555 1_555
O1 C14 1_555 1_555
O2 C14 1_555 1_555
O3 C18 1_555 1_555
O4 C23 1_555 1_555
O5 C30 1_555 1_555
O6 C30 1_555 1_555
O7 Co1 1_555 1_555
O8 C31 1_555 1_555
O9 C35 1_555 1_555
O10 C40 1_555 1_555
O11 Co2 1_555 1_555
O12 C47 1_555 1_555
O13 H1 1_555 1_555
O14 H2 1_555 1_555
N1 Co1 1_555 1_555
N2 C1 1_555 1_555
C1 H3 1_555 1_555
C2 C1 1_555 1_555
H4 C2 1_555 1_555
C3 C2 1_555 1_555
C4 C3 1_555 1_555
H5 C4 1_555 1_555
C5 N2 1_555 1_555
H6 C5 1_555 1_555
C6 C3 1_555 1_555
H7 C6 1_555 1_555
H8 C6 1_555 1_555
C7 C6 1_555 1_555
H9 C7 1_555 1_555
H10 C7 1_555 1_555
C8 C7 1_555 1_555
H11 C8 1_555 1_555
H12 C8 1_555 1_555
C9 C8 1_555 1_555
C10 C9 1_555 1_555
H13 C10 1_555 1_555
C11 N1 1_555 1_555
H14 C11 1_555 1_555
C12 N1 1_555 1_555
H15 C12 1_555 1_555
C13 C9 1_555 1_555
H16 C13 1_555 1_555
C14 C15 1_555 1_555
C15 C16 1_555 1_555
C16 H17 1_555 1_555
C17 C16 1_555 1_555
H18 C17 1_555 1_555
C18 C17 1_555 1_555
C19 C18 1_555 1_555
H19 C19 1_555 1_555
C20 C15 1_555 1_555
H20 C20 1_555 1_555
C21 O3 1_555 1_555
H21 C21 1_555 1_555
H22 C21 1_555 1_555
C22 C21 1_555 1_555
H23 C22 1_555 1_555
H24 C22 1_555 1_555
C23 C22 1_555 1_555
H25 C23 1_555 1_555
H26 C23 1_555 1_555
C24 O4 1_555 1_555
C25 C24 1_555 1_555
H27 C25 1_555 1_555
C26 C25 1_555 1_555
H28 C26 1_555 1_555
C27 C26 1_555 1_555
C28 C27 1_555 1_555
H29 C28 1_555 1_555
C29 C24 1_555 1_555
H30 C29 1_555 1_555
C30 C27 1_555 1_555
C31 O7 1_555 1_555
C32 C31 1_555 1_555
C33 C32 1_555 1_555
H31 C33 1_555 1_555
C34 C33 1_555 1_555
H32 C34 1_555 1_555
C35 C34 1_555 1_555
C36 C35 1_555 1_555
H33 C36 1_555 1_555
C37 C32 1_555 1_555
H34 C37 1_555 1_555
C38 O9 1_555 1_555
H35 C38 1_555 1_555
H36 C38 1_555 1_555
C39 C38 1_555 1_555
H37 C39 1_555 1_555
H38 C39 1_555 1_555
C40 C39 1_555 1_555
H39 C40 1_555 1_555
H40 C40 1_555 1_555
C41 O10 1_555 1_555
C42 C41 1_555 1_555
H41 C42 1_555 1_555
C43 C42 1_555 1_555
H42 C43 1_555 1_555
C44 C43 1_555 1_555
C45 C44 1_555 1_555
H43 C45 1_555 1_555
C46 C41 1_555 1_555
H44 C46 1_555 1_555
C47 O11 1_555 1_555
C48 O13 1_555 1_555
H45 C48 1_555 1_555
H46 C48 1_555 1_555
H47 C48 1_555 1_555
C49 O14 1_555 1_555
H48 C49 1_555 1_555
H49 C49 1_555 1_555
H50 C49 1_555 1_555
Co1B O2 1_555 1_555
Co2B O6 1_555 1_555
Co2B_2 N2 1_555 1_555
O2B Co1 1_555 1_555
O6B Co2 1_555 1_555
O8B Co1 1_555 1_555
O12B Co2 1_555 1_555
N2B Co2 1_555 1_555
O8 Co1B 1_555 1_555
O12 Co2B 1_555 1_555
C4 C5 1_555 1_555
C10 C11 1_555 1_555
C12 C13 1_555 1_555
C19 C20 1_555 1_555
C28 C29 1_555 1_555
C36 C37 1_555 1_555
C44 C47 1_555 1_555
C45 C46 1_555 1_555

#END
