
#######################################################################
#
#                 Cambridge Crystallographic Data Centre
#                                CCDC 
#
#######################################################################
#
# If this CIF has been generated from an entry in the Cambridge 
# Structural Database, then it will include bibliographic, chemical, 
# crystal, experimental, refinement or atomic coordinate data resulting 
# from the CCDC's data processing and validation procedures.
#
#######################################################################

data_UHUTEX
_symmetry_cell_setting           orthorhombic
_symmetry_space_group_name_H-M   'P b c a'
_symmetry_Int_Tables_number      61
_space_group_name_Hall           '-P 2ac 2ab'
loop_
_symmetry_equiv_pos_site_id
_symmetry_equiv_pos_as_xyz
1 x,y,z
2 1/2-x,-y,1/2+z
3 -x,1/2+y,1/2-z
4 1/2+x,1/2-y,-z
5 -x,-y,-z
6 1/2+x,y,1/2-z
7 x,1/2-y,1/2+z
8 1/2-x,1/2+y,z
_cell_length_a                   9.190(2)
_cell_length_b                   8.684(2)
_cell_length_c                   22.670(6)
_cell_angle_alpha                90
_cell_angle_beta                 90
_cell_angle_gamma                90
_cell_volume                     1809.2
loop_
_atom_site_label
_atom_site_type_symbol
_atom_site_fract_x
_atom_site_fract_y
_atom_site_fract_z
Mn1 Mn 0.63792(5) 0.37821(5) 0.495111(19)
P1 P 0.37598(8) 0.29599(9) 0.58915(3)
O1 O 0.6329(2) 0.1513(2) 0.52621(9)
O2 O 0.7243(2) -0.0570(2) 0.56737(9)
O3 O 0.4329(2) 0.4013(2) 0.54127(8)
O4 O 0.3049(2) 0.1492(2) 0.56863(8)
O5 O 0.2611(2) 0.3910(2) 0.62606(9)
H1 H 0.2430 0.4720 0.6090
O6 O 0.4968(2) 0.2859(3) 0.41762(9)
H2 H 0.4144 0.2349 0.4257
H3 H 0.5550 0.2308 0.3934
C1 C 0.6598(3) 0.0718(3) 0.57036(13)
C2 C 0.6223(3) 0.1312(3) 0.63098(12)
C3 C 0.7080(4) 0.0799(4) 0.67695(13)
H4 H 0.7784 0.0052 0.6698
C4 C 0.6910(4) 0.1378(4) 0.73382(15)
H5 H 0.7502 0.1028 0.7642
C5 C 0.5872(4) 0.2460(4) 0.74466(13)
H6 H 0.5766 0.2862 0.7824
C6 C 0.4974(3) 0.2964(4) 0.69962(12)
H7 H 0.4259 0.3692 0.7077
C7 C 0.5120(3) 0.2400(3) 0.64217(11)
Mn1G Mn 0.86208(5) -0.12179(5) 0.495111(19)
Mn1D Mn 0.36208(5) 0.62179(5) 0.504889(19)
Mn1C Mn 0.13792(5) 0.12179(5) 0.504889(19)
O2G O 0.7757(2) 0.4430(2) 0.56737(9)
O3D O 0.5671(2) 0.5987(2) 0.45873(8)
O4C O 0.8049(2) 0.3508(2) 0.43137(8)
loop_
_geom_bond_atom_site_label_1
_geom_bond_atom_site_label_2
_geom_bond_site_symmetry_1
_geom_bond_site_symmetry_2
Mn1 O1 1_555 1_555
P1 O3 1_555 1_555
O1 C1 1_555 1_555
O2 C1 1_555 1_555
O3 Mn1 1_555 1_555
O4 P1 1_555 1_555
O5 P1 1_555 1_555
H1 O5 1_555 1_555
O6 Mn1 1_555 1_555
H2 O6 1_555 1_555
H3 O6 1_555 1_555
C1 C2 1_555 1_555
C2 C3 1_555 1_555
C3 H4 1_555 1_555
C4 C3 1_555 1_555
H5 C4 1_555 1_555
C5 C4 1_555 1_555
H6 C5 1_555 1_555
C6 C5 1_555 1_555
H7 C6 1_555 1_555
C7 P1 1_555 1_555
Mn1G O2 1_555 1_555
Mn1D O3 1_555 1_555
Mn1C O4 1_555 1_555
O2G Mn1 1_555 1_555
O3D Mn1 1_555 1_555
O4C Mn1 1_555 1_555
C2 C7 1_555 1_555
C6 C7 1_555 1_555
Mn1D O3D 1_555 1_555

#END
