
#######################################################################
#
#                 Cambridge Crystallographic Data Centre
#                                CCDC 
#
#######################################################################
#
# If this CIF has been generated from an entry in the Cambridge 
# Structural Database, then it will include bibliographic, chemical, 
# crystal, experimental, refinement or atomic coordinate data resulting 
# from the CCDC's data processing and validation procedures.
#
#######################################################################

data_UHUTAT
_symmetry_cell_setting           orthorhombic
_symmetry_space_group_name_H-M   'P b c a'
_symmetry_Int_Tables_number      61
_space_group_name_Hall           '-P 2ac 2ab'
loop_
_symmetry_equiv_pos_site_id
_symmetry_equiv_pos_as_xyz
1 x,y,z
2 1/2-x,-y,1/2+z
3 -x,1/2+y,1/2-z
4 1/2+x,1/2-y,-z
5 -x,-y,-z
6 1/2+x,y,1/2-z
7 x,1/2-y,1/2+z
8 1/2-x,1/2+y,z
_cell_length_a                   8.999(5)
_cell_length_b                   8.614(5)
_cell_length_c                   22.506(13)
_cell_angle_alpha                90
_cell_angle_beta                 90
_cell_angle_gamma                90
_cell_volume                     1744.61
loop_
_atom_site_label
_atom_site_type_symbol
_atom_site_fract_x
_atom_site_fract_y
_atom_site_fract_z
Co1 Co 0.62937(7) 0.37541(7) 0.49325(3)
P1 P 0.37469(13) 0.29459(12) 0.58698(5)
O1 O 0.6360(4) 0.1501(3) 0.52119(16)
O2 O 0.7332(4) -0.0590(3) 0.56262(15)
O3 O 0.4343(4) 0.4020(3) 0.53976(14)
O4 O 0.3014(4) 0.1474(3) 0.56595(15)
O5 O 0.2588(4) 0.3903(3) 0.62434(16)
H1 H 0.2278 0.4631 0.6044
O6 O 0.4943(4) 0.2869(4) 0.41965(15)
H2 H 0.4119 0.2359 0.4277
H3 H 0.5524 0.2319 0.3954
C1 C 0.6655(5) 0.0690(5) 0.5660(2)
C2 C 0.6242(5) 0.1254(5) 0.6272(2)
C3 C 0.7126(6) 0.0712(6) 0.6738(2)
H4 H 0.7864 -0.0013 0.6657
C4 C 0.6942(7) 0.1214(6) 0.7310(3)
H5 H 0.7536 0.0823 0.7613
C5 C 0.5861(7) 0.2308(6) 0.7432(2)
H6 H 0.5747 0.2683 0.7817
C6 C 0.4961(6) 0.2841(5) 0.6988(2)
H7 H 0.4218 0.3553 0.7078
C7 C 0.5133(6) 0.2335(5) 0.6397(2)
Co1G Co 0.87063(7) -0.12459(7) 0.49325(3)
Co1D Co 0.37063(7) 0.62459(7) 0.50675(3)
Co1C Co 0.12937(7) 0.12459(7) 0.50675(3)
O2G O 0.7668(4) 0.4410(3) 0.56262(15)
O3D O 0.5657(4) 0.5980(3) 0.46024(14)
O4C O 0.8014(4) 0.3526(3) 0.43405(15)
loop_
_geom_bond_atom_site_label_1
_geom_bond_atom_site_label_2
_geom_bond_site_symmetry_1
_geom_bond_site_symmetry_2
Co1 O1 1_555 1_555
P1 O3 1_555 1_555
O1 C1 1_555 1_555
O2 C1 1_555 1_555
O3 Co1 1_555 1_555
O4 P1 1_555 1_555
O5 P1 1_555 1_555
H1 O5 1_555 1_555
O6 Co1 1_555 1_555
H2 O6 1_555 1_555
H3 O6 1_555 1_555
C1 C2 1_555 1_555
C2 C3 1_555 1_555
C3 H4 1_555 1_555
C4 C3 1_555 1_555
H5 C4 1_555 1_555
C5 C4 1_555 1_555
H6 C5 1_555 1_555
C6 C5 1_555 1_555
H7 C6 1_555 1_555
C7 P1 1_555 1_555
Co1G O2 1_555 1_555
Co1D O3 1_555 1_555
Co1C O4 1_555 1_555
O2G Co1 1_555 1_555
O3D Co1 1_555 1_555
O4C Co1 1_555 1_555
C2 C7 1_555 1_555
C6 C7 1_555 1_555
Co1D O3D 1_555 1_555

#END
