
#######################################################################
#
#                 Cambridge Crystallographic Data Centre
#                                CCDC 
#
#######################################################################
#
# If this CIF has been generated from an entry in the Cambridge 
# Structural Database, then it will include bibliographic, chemical, 
# crystal, experimental, refinement or atomic coordinate data resulting 
# from the CCDC's data processing and validation procedures.
#
#######################################################################

data_UHUTUM
_symmetry_cell_setting           monoclinic
_symmetry_space_group_name_H-M   'P 21/c'
_symmetry_Int_Tables_number      14
_space_group_name_Hall           '-P 2ybc'
loop_
_symmetry_equiv_pos_site_id
_symmetry_equiv_pos_as_xyz
1 x,y,z
2 x,1/2-y,1/2+z
3 -x,-y,-z
4 -x,1/2+y,1/2-z
_cell_length_a                   9.4966(17)
_cell_length_b                   10.4578(19)
_cell_length_c                   11.316(2)
_cell_angle_alpha                90
_cell_angle_beta                 96.766(3)
_cell_angle_gamma                90
_cell_volume                     1116.01
loop_
_atom_site_label
_atom_site_type_symbol
_atom_site_fract_x
_atom_site_fract_y
_atom_site_fract_z
Sn1 Sn 0.13967(3) 0.17764(3) 1.03482(3)
O1 O 0.2873(3) 0.3331(3) 1.0519(3)
O2 O 0.1111(3) 0.5348(3) 1.4176(3)
O3 O 0.1217(3) 0.3646(3) 1.1688(3)
C1 C 0.2157(5) 0.4948(4) 1.3749(4)
O4 O 0.2750(3) 0.3885(3) 1.4108(3)
C2 C 0.2866(4) 0.5687(4) 1.2859(4)
C3 C 0.3044(4) 0.5193(4) 1.1740(4)
C4 C 0.3836(4) 0.5877(4) 1.0995(4)
H1 H 0.3969 0.5546 1.0254
C5 C 0.2330(5) 0.3993(4) 1.1315(4)
C6 C 0.3422(5) 0.6867(4) 1.3193(4)
H2 H 0.3265 0.7217 1.3922
C7 C 0.4219(5) 0.7538(5) 1.2439(5)
H3 H 0.4613 0.8325 1.2675
C8 C 0.4425(5) 0.7041(5) 1.1348(4)
H4 H 0.4960 0.7489 1.0848
C9 C -0.0259(5) 0.2581(5) 0.9202(4)
H5 H 0.0125 0.3027 0.8571
H6 H -0.0779 0.3168 0.9637
H7 H -0.0882 0.1915 0.8872
C10 C 0.2118(6) 0.0705(5) 1.1869(4)
H8 H 0.3134 0.0653 1.1947
H9 H 0.1725 -0.0141 1.1794
H10 H 0.1825 0.1112 1.2560
O2A O 0.1111(3) -0.0348(3) 0.9176(3)
O4A O 0.2750(3) 0.1115(3) 0.9108(3)
Sn1A Sn 0.13967(3) 0.32236(3) 1.53482(3)
loop_
_geom_bond_atom_site_label_1
_geom_bond_atom_site_label_2
_geom_bond_site_symmetry_1
_geom_bond_site_symmetry_2
Sn1 O1 1_555 1_555
O1 C5 1_555 1_555
O2 C1 1_555 1_555
O3 Sn1 1_555 1_555
C1 O4 1_555 1_555
O4 Sn1A 1_555 1_555
C2 C1 1_555 1_555
C3 C2 1_555 1_555
C4 C3 1_555 1_555
H1 C4 1_555 1_555
C5 O3 1_555 1_555
C6 C2 1_555 1_555
H2 C6 1_555 1_555
C7 C6 1_555 1_555
H3 C7 1_555 1_555
C8 C4 1_555 1_555
H4 C8 1_555 1_555
C9 Sn1 1_555 1_555
H5 C9 1_555 1_555
H6 C9 1_555 1_555
H7 C9 1_555 1_555
C10 Sn1 1_555 1_555
H8 C10 1_555 1_555
H9 C10 1_555 1_555
H10 C10 1_555 1_555
O2A Sn1 1_555 1_555
O4A Sn1 1_555 1_555
Sn1A O2 1_555 1_555
C3 C5 1_555 1_555
C7 C8 1_555 1_555

#END
