
#######################################################################
#
#                 Cambridge Crystallographic Data Centre
#                                CCDC 
#
#######################################################################
#
# If this CIF has been generated from an entry in the Cambridge 
# Structural Database, then it will include bibliographic, chemical, 
# crystal, experimental, refinement or atomic coordinate data resulting 
# from the CCDC's data processing and validation procedures.
#
#######################################################################

data_UHUTEW
_symmetry_cell_setting           monoclinic
_symmetry_space_group_name_H-M   'C 2/m'
_symmetry_Int_Tables_number      12
_space_group_name_Hall           '-C 2y'
loop_
_symmetry_equiv_pos_site_id
_symmetry_equiv_pos_as_xyz
1 x,y,z
2 1/2+x,1/2+y,z
3 x,-y,z
4 1/2+x,1/2-y,z
5 -x,-y,-z
6 1/2-x,1/2-y,-z
7 -x,y,-z
8 1/2-x,1/2+y,-z
_cell_length_a                   37.932(6)
_cell_length_b                   21.303(3)
_cell_length_c                   12.546(2)
_cell_angle_alpha                90
_cell_angle_beta                 106.160(10)
_cell_angle_gamma                90
_cell_volume                     9737.42
loop_
_atom_site_label
_atom_site_type_symbol
_atom_site_fract_x
_atom_site_fract_y
_atom_site_fract_z
K1 K 0.02950(17) 0.1645(3) 0.1709(5)
K2 K 0.1435(3) 0.2922(6) -0.1091(10)
O27 O 0.00000 0.2565(9) 0.00000
O28 O -0.0108(6) 0.3774(14) 0.3508(15)
O29 O 0.1195(6) 0.3799(10) 0.0127(17)
O30 O -0.0586(7) 0.4107(13) 0.1452(14)
O31 O 0.0514(8) 0.3482(13) 0.0305(16)
O32 O 0.1072(10) 0.50000 0.360(2)
O33 O 0.0048(7) 0.3552(14) 0.1492(17)
O34 O -0.0186(8) 0.50000 0.271(3)
O35 O 0.0934(9) 0.50000 -0.021(2)
O36 O 0.0894(6) 0.4398(8) 0.1569(19)
O37 O 0.0452(6) 0.4382(9) 0.288(2)
O38 O 0.0178(11) 0.50000 0.138(3)
O40 O 0.0209(8) 0.4365(14) -0.045(2)
Si2 Si 0.00000 0.50000 0.00000
W8 W 0.00000 0.33527(6) 0.00000
W9 W -0.00741(4) 0.41837(6) 0.23450(10)
W10 W 0.08093(3) 0.41723(4) 0.00584(9)
W11 W 0.07316(4) 0.50000 0.24574(11)
O30F O 0.0586(7) 0.4107(13) -0.1452(14)
W9F W 0.00741(4) 0.41837(6) -0.23450(10)
O28F O 0.0108(6) 0.3774(14) -0.3508(15)
O33F O -0.0048(7) 0.3552(14) -0.1492(17)
O31F O -0.0514(8) 0.3482(13) -0.0305(16)
W10F W -0.08093(3) 0.41723(4) -0.00584(9)
O29F O -0.1195(6) 0.3799(10) -0.0127(17)
W9B W -0.00741(4) 0.58163(6) 0.23450(10)
O28B O -0.0108(6) 0.6226(14) 0.3508(15)
O30B O -0.0586(7) 0.5893(13) 0.1452(14)
W10D W -0.08093(3) 0.58277(4) -0.00584(9)
O29D O -0.1195(6) 0.6201(10) -0.0127(17)
O31D O -0.0514(8) 0.6518(13) -0.0305(16)
W8D W 0.00000 0.66473(6) 0.00000
O27D O 0.00000 0.7435(9) 0.00000
O31B O 0.0514(8) 0.6518(13) 0.0305(16)
W10B W 0.08093(3) 0.58277(4) 0.00584(9)
O29B O 0.1195(6) 0.6201(10) 0.0127(17)
O30D O 0.0586(7) 0.5893(13) -0.1452(14)
W9D W 0.00741(4) 0.58163(6) -0.23450(10)
O28D O 0.0108(6) 0.6226(14) -0.3508(15)
O33D O -0.0048(7) 0.6448(14) -0.1492(17)
O33B O 0.0048(7) 0.6448(14) 0.1492(17)
O36B O 0.0894(6) 0.5602(8) 0.1569(19)
O37B O 0.0452(6) 0.5618(9) 0.288(2)
O40D O -0.0209(8) 0.5635(14) 0.045(2)
O38D O -0.0178(11) 0.50000 -0.138(3)
O34F O 0.0186(8) 0.50000 -0.271(3)
O37D O -0.0452(6) 0.5618(9) -0.288(2)
W11D W -0.07316(4) 0.50000 -0.24574(11)
O32D O -0.1072(10) 0.50000 -0.360(2)
O36D O -0.0894(6) 0.5602(8) -0.1569(19)
O35D O -0.0934(9) 0.50000 0.021(2)
O36F O -0.0894(6) 0.4398(8) -0.1569(19)
O37F O -0.0452(6) 0.4382(9) -0.288(2)
O40B O 0.0209(8) 0.5635(14) -0.045(2)
O40F O -0.0209(8) 0.4365(14) 0.045(2)
O41 O 0.1552(5) 0.0974(10) 0.6135(16)
O42 O 0.1153(6) 0.1822(11) -0.2376(18)
O43 O 0.2562(9) 0.00000 0.755(3)
O44 O 0.0854(7) 0.2554(12) 0.182(2)
K4 K -0.0187(13) 0.00000 -0.181(4)
O45 O 0.3323(10) 0.00000 0.260(3)
O46 O 0.0458(12) 0.00000 -0.549(3)
O47 O 0.0740(10) 0.2478(18) -0.119(3)
O48 O 0.3994(10) 0.00000 0.251(3)
O49 O 0.311(3) 0.00000 0.941(8)
O50 O 0.1047(14) 0.342(3) -0.296(4)
O51 O 0.0805(12) 0.323(2) 0.362(3)
O52 O 0.0384(15) 0.50000 -0.477(4)
O53 O 0.0763(12) 0.166(2) -0.450(4)
O54 O -0.016(2) 0.237(4) 0.301(6)
O55 O 0.034(2) 0.279(4) -0.476(7)
O56 O -0.0218(17) 0.092(3) 0.348(5)
C1 C 0.2322(5) 0.7319(8) 0.9800(13)
C2 C 0.1819(6) 0.7384(10) 0.6237(16)
H1 H 0.1755 0.7158 0.6789
C3 C 0.1586(7) 0.7374(10) 0.520(2)
H2 H 0.1362 0.7165 0.5048
C4 C 0.1695(5) 0.7688(10) 0.4373(14)
H3 H 0.1542 0.7677 0.365
C5 C 0.2020(6) 0.8013(9) 0.4590(14)
H4 H 0.209 0.8214 0.4022
C6 C 0.2246(6) 0.8036(10) 0.5690(15)
C7 C 0.3070(5) 0.8562(8) 0.7635(15)
H5 H 0.3175 0.8529 0.8397
C8 C 0.3250(6) 0.8920(10) 0.7011(19)
H6 H 0.1525 0.5896 1.2649
C9 C 0.3096(6) 0.8998(13) 0.593(2)
H7 H 0.179 0.5767 1.4506
C10 C 0.2767(7) 0.8721(10) 0.5484(17)
H8 H 0.2351 0.6224 1.5267
C11 C 0.2604(6) 0.8361(8) 0.6124(13)
Cu1 Cu 0.25277(6) 0.71828(11) 1.20010(16)
N1 N 0.2134(5) 0.7697(7) 0.6511(11)
N2 N 0.2766(4) 0.8276(8) 0.7190(11)
O1 O 0.2829(4) 0.3857(7) 1.1785(11)
O2 O 0.2172(3) 0.7330(6) 0.8749(9)
O3 O 0.3475(4) 0.2582(6) 0.8911(11)
O4 O 0.2198(3) 0.7049(5) 1.0494(9)
O5 O 0.2168(3) 0.3887(6) 0.7200(10)
O6 O 0.3968(6) 0.50000 1.345(2)
O7 O 0.4601(4) 0.6305(6) 1.0427(10)
O8 O 0.4036(4) 0.3715(6) 0.6443(10)
O9 O 0.2749(6) 0.50000 0.4736(12)
O10 O 0.3198(3) 0.3365(5) 1.0245(9)
O11 O 0.2874(3) 0.3365(6) 0.8023(9)
O12 O 0.2571(3) 0.3992(5) 0.9417(9)
O13 O 0.3482(3) 0.4361(6) 1.1498(9)
O14 O 0.3832(3) 0.3660(6) 0.9840(9)
O15 O 0.3533(3) 0.3652(5) 0.7722(9)
O16 O 0.2795(3) 0.4382(6) 0.6764(9)
O17 O 0.2505(5) 0.50000 0.8089(14)
O18 O 0.2854(5) 0.50000 1.0656(13)
O19 O 0.4206(3) 0.5641(5) 1.1600(8)
O20 O 0.4134(4) 0.4263(6) 0.8522(9)
O21 O 0.3377(3) 0.5633(5) 0.5919(9)
O22 O 0.4509(5) 0.50000 1.0184(14)
O23 O 0.3997(5) 0.50000 0.6726(13)
O24 O 0.3180(3) 0.5626(5) 0.9061(9)
O25 O 0.3807(5) 0.50000 0.9884(13)
O26 O 0.3496(5) 0.50000 0.7723(14)
Si1 Si 0.34143(18) 0.50000 0.8941(5)
W1 W 0.30060(2) 0.41484(3) 1.07017(6)
W2 W 0.33725(2) 0.33536(3) 0.89670(6)
W3 W 0.25955(2) 0.41297(3) 0.79543(5)
Cu4 Cu 0.38485(4) 0.50000 1.17850(12)
W5 W 0.42412(2) 0.57771(3) 1.01790(6)
W6 W 0.38127(2) 0.42138(3) 0.71130(6)
W7 W 0.30240(3) 0.50000 0.60696(7)
Cu1B Cu 0.25277(6) 0.28172(11) 1.20010(16)
O13B O 0.3482(3) 0.5639(6) 1.1498(9)
W1B W 0.30060(2) 0.58516(3) 1.07017(6)
O1B O 0.2829(4) 0.6143(7) 1.1785(11)
Cu1G Cu 0.24723(6) 0.21828(11) 0.79990(16)
C1E C 0.2678(5) 0.7681(8) 1.0200(13)
Cu1E Cu 0.24723(6) 0.78172(11) 0.79990(16)
O1G O 0.2171(4) 0.8857(7) 0.8215(11)
O11G O 0.2126(3) 0.8365(6) 1.1977(9)
O2E O 0.2828(3) 0.7670(6) 1.1251(9)
N1E N 0.2866(5) 0.7303(7) 1.3489(11)
C2E C 0.3181(6) 0.7616(10) 1.3763(16)
H1E H 0.3245 0.7842 1.3211
C3E C 0.3414(7) 0.7626(10) 1.480(2)
H2E H 0.3638 0.7835 1.4952
C4E C 0.3305(5) 0.7312(10) 1.5627(14)
H3E H 0.3458 0.7323 1.635
C5E C 0.2980(6) 0.6987(9) 1.5410(14)
H4E H 0.291 0.6786 1.5978
C6E C 0.2754(6) 0.6964(10) 1.4310(15)
C11E C 0.2396(6) 0.6639(8) 1.3876(13)
C10E C 0.2233(7) 0.6279(10) 1.4516(17)
C9E C 0.1904(6) 0.6002(13) 1.407(2)
C8E C 0.1750(6) 0.6080(10) 1.2989(19)
C7E C 0.1930(5) 0.6438(8) 1.2365(15)
H5E H 0.1825 0.6471 1.1603
N2E N 0.2234(4) 0.6724(8) 1.2810(11)
O4E O 0.2802(3) 0.7951(5) 0.9506(9)
O11B O 0.2874(3) 0.6635(6) 0.8023(9)
W2B W 0.33725(2) 0.66464(3) 0.89670(6)
O3B O 0.3475(4) 0.7418(6) 0.8911(11)
O10B O 0.3198(3) 0.6635(5) 1.0245(9)
O12B O 0.2571(3) 0.6008(5) 0.9417(9)
W3B W 0.25955(2) 0.58703(3) 0.79543(5)
O5B O 0.2168(3) 0.6113(6) 0.7200(10)
O16B O 0.2795(3) 0.5618(6) 0.6764(9)
O24B O 0.3180(3) 0.4374(5) 0.9061(9)
O14B O 0.3832(3) 0.6340(6) 0.9840(9)
O19B O 0.4206(3) 0.4359(5) 1.1600(8)
W5B W 0.42412(2) 0.42229(3) 1.01790(6)
O7B O 0.4601(4) 0.3695(6) 1.0427(10)
O20B O 0.4134(4) 0.5737(6) 0.8522(9)
W6B W 0.38127(2) 0.57862(3) 0.71130(6)
O8B O 0.4036(4) 0.6285(6) 0.6443(10)
O15B O 0.3533(3) 0.6348(5) 0.7722(9)
O21B O 0.3377(3) 0.4367(5) 0.5919(9)
H6E H 0.3475 0.9104 0.7351
H7E H 0.321 0.9233 0.5494
H8E H 0.2649 0.8776 0.4733
K3? K 0.1784(4) 0.3962(8) -0.0942(11)
O39? O 0.0434(10) 0.50000 0.052(3)
Cu2? Cu 0.16275(2) 0.16464(3) 0.10330(6)
Cu3? Cu 0.24045(2) 0.08703(3) 0.20457(5)
W4? W 0.11515(4) 0.00000 -0.17850(12)
Cu5? Cu 0.07588(2) 0.07771(3) -0.01790(6)
Cu6? Cu 0.11873(2) 0.07862(3) 0.28870(6)
Cu7? Cu 0.19760(3) 0.00000 0.39304(7)
Cu8? Cu 0.00000 0.33527(6) 0.00000
Cu9? Cu 0.00741(4) 0.41837(6) -0.23450(10)
Cu10? Cu 0.08093(3) 0.41723(4) 0.00584(9)
Cu11? Cu 0.07316(4) 0.50000 0.24574(11)
loop_
_geom_bond_atom_site_label_1
_geom_bond_atom_site_label_2
_geom_bond_site_symmetry_1
_geom_bond_site_symmetry_2
C1 O2 1_555 1_555
C2 H1 1_555 1_555
C3 C2 1_555 1_555
H2 C3 1_555 1_555
C4 C3 1_555 1_555
H3 C4 1_555 1_555
C5 C4 1_555 1_555
H4 C5 1_555 1_555
C6 C5 1_555 1_555
C7 H5 1_555 1_555
C8 C7 1_555 1_555
H6 C8E 1_555 1_555
C9 C8 1_555 1_555
H7 C9E 1_555 1_555
C10 C9 1_555 1_555
H8 C10E 1_555 1_555
C11 C6 1_555 1_555
Cu1 O4 1_555 1_555
N1 C2 1_555 1_555
N2 C7 1_555 1_555
O1 W1 1_555 1_555
O2 Cu1E 1_555 1_555
O3 W2 1_555 1_555
O4 C1 1_555 1_555
O5 W3 1_555 1_555
O6 Cu4 1_555 1_555
O7 W5 1_555 1_555
O8 W6 1_555 1_555
O9 W7 1_555 1_555
O10 W1 1_555 1_555
O11 W2 1_555 1_555
O12 W1 1_555 1_555
O13 W1 1_555 1_555
O14 W2 1_555 1_555
O15 W2 1_555 1_555
O16 W3 1_555 1_555
O17 W3 1_555 1_555
O18 W1 1_555 1_555
O19 Cu4 1_555 1_555
O20 W6 1_555 1_555
O21 W7 1_555 1_555
O22 W5 1_555 1_555
O23 W6 1_555 1_555
O24 Si1 1_555 1_555
O25 Si1 1_555 1_555
O26 Si1 1_555 1_555
O27 W8 1_555 1_555
O28 W9 1_555 1_555
O29 W10 1_555 1_555
O30 W9 1_555 1_555
O31 W8 1_555 1_555
O32 W11 1_555 1_555
O33 W8 1_555 1_555
O34 W9 1_555 1_555
O35 W10 1_555 1_555
O36 W10 1_555 1_555
O37 W9 1_555 1_555
O38 Si2 1_555 1_555
O40 Si2 1_555 1_555
Si1 O24B 1_555 1_555
Si2 O40D 1_555 1_555
W1 O24B 1_555 1_555
W2 O10 1_555 1_555
W3 O11 1_555 1_555
Cu4 O13 1_555 1_555
W5 O19 1_555 1_555
W6 O15 1_555 1_555
W7 O16 1_555 1_555
W8 O40 1_555 1_555
W9 O33 1_555 1_555
W10 O31 1_555 1_555
W11 O36 1_555 1_555
Cu1B O1 1_555 1_555
O13B Cu4 1_555 1_555
W1B O18 1_555 1_555
O1B Cu1 1_555 1_555
Cu1G O11 1_555 1_555
C1E C1 1_555 1_555
Cu1E N1 1_555 1_555
O1G Cu1E 1_555 1_555
O11G Cu1 1_555 1_555
O2E Cu1 1_555 1_555
N1E Cu1 1_555 1_555
C2E N1E 1_555 1_555
H1E C2E 1_555 1_555
C3E C2E 1_555 1_555
H2E C3E 1_555 1_555
C4E C3E 1_555 1_555
H3E C4E 1_555 1_555
C5E C4E 1_555 1_555
H4E C5E 1_555 1_555
C6E N1E 1_555 1_555
C11E C6E 1_555 1_555
C10E C11E 1_555 1_555
C9E C10E 1_555 1_555
C8E C9E 1_555 1_555
C7E C8E 1_555 1_555
H5E C7E 1_555 1_555
N2E Cu1 1_555 1_555
O4E C1E 1_555 1_555
O11B Cu1E 1_555 1_555
W2B O24 1_555 1_555
O3B W2B 1_555 1_555
O10B W1B 1_555 1_555
O12B W1B 1_555 1_555
W3B O17 1_555 1_555
O5B W3B 1_555 1_555
O16B W7 1_555 1_555
O24B W2 1_555 1_555
O14B W5 1_555 1_555
O19B Cu4 1_555 1_555
W5B O14 1_555 1_555
O7B W5B 1_555 1_555
O20B W5 1_555 1_555
W6B O21 1_555 1_555
O8B W6B 1_555 1_555
O15B W2B 1_555 1_555
O21B W6 1_555 1_555
H6E C8 1_555 1_555
H7E C9 1_555 1_555
H8E C10 1_555 1_555
O30F W10 1_555 1_555
W9F O40 1_555 1_555
O28F W9F 1_555 1_555
O33F W8 1_555 1_555
O31F W8 1_555 1_555
W10F O30 1_555 1_555
O29F W10F 1_555 1_555
W9B O34 1_555 1_555
O28B W9B 1_555 1_555
O30B W9B 1_555 1_555
W10D O30B 1_555 1_555
O29D W10D 1_555 1_555
O31D W10D 1_555 1_555
W8D O31D 1_555 1_555
O27D W8D 1_555 1_555
O31B W8D 1_555 1_555
W10B O35 1_555 1_555
O29B W10B 1_555 1_555
O30D W10B 1_555 1_555
W9D O30D 1_555 1_555
O28D W9D 1_555 1_555
O33D W8D 1_555 1_555
O33B W9B 1_555 1_555
O36B W11 1_555 1_555
O37B W11 1_555 1_555
O40D W9B 1_555 1_555
O38D Si2 1_555 1_555
O34F W9F 1_555 1_555
O37D W9D 1_555 1_555
W11D O38D 1_555 1_555
O32D W11D 1_555 1_555
O36D W10D 1_555 1_555
O35D W10F 1_555 1_555
O36F W10F 1_555 1_555
O37F W9F 1_555 1_555
O40B Si2 1_555 1_555
O40F Si2 1_555 1_555
C6 N1 1_555 1_555
C10 C11 1_555 1_555
C11 N2 1_555 1_555
N2 Cu1E 1_555 1_555
O12 W3 1_555 1_555
O20 W5B 1_555 1_555
O22 W5B 1_555 1_555
O23 W6B 1_555 1_555
O24 W3B 1_555 1_555
O24 W1B 1_555 1_555
O25 Cu4 1_555 1_555
O25 W5B 1_555 1_555
O25 W5 1_555 1_555
O26 W6B 1_555 1_555
O26 W6 1_555 1_555
O26 W7 1_555 1_555
O37 W11 1_555 1_555
O38 W9B 1_555 1_555
O38 W9 1_555 1_555
O38 W11 1_555 1_555
O40 W10 1_555 1_555
W3 O24B 1_555 1_555
W7 O21B 1_555 1_555
W8 O40F 1_555 1_555
W9 O40F 1_555 1_555
O13B W1B 1_555 1_555
W1B O1B 1_555 1_555
C1E O2E 1_555 1_555
Cu1E O4E 1_555 1_555
C5E C6E 1_555 1_555
C11E N2E 1_555 1_555
C7E N2E 1_555 1_555
O11B W2B 1_555 1_555
O11B W3B 1_555 1_555
W2B O10B 1_555 1_555
W2B O14B 1_555 1_555
O12B W3B 1_555 1_555
W3B O16B 1_555 1_555
O19B W5B 1_555 1_555
O20B W6B 1_555 1_555
W6B O15B 1_555 1_555
O30F W9F 1_555 1_555
W9F O33F 1_555 1_555
W9F O38D 1_555 1_555
O31F W10F 1_555 1_555
W10F O40F 1_555 1_555
W9B O37B 1_555 1_555
W10D O35D 1_555 1_555
W10D O40D 1_555 1_555
W8D O33B 1_555 1_555
W8D O40B 1_555 1_555
W8D O40D 1_555 1_555
O31B W10B 1_555 1_555
W10B O36B 1_555 1_555
W10B O40B 1_555 1_555
W9D O33D 1_555 1_555
W9D O40B 1_555 1_555
W9D O34F 1_555 1_555
W9D O38D 1_555 1_555
O37D W11D 1_555 1_555
W11D O36D 1_555 1_555
W11D O37F 1_555 1_555
W11D O36F 1_555 1_555

#END
