
#######################################################################
#
#                 Cambridge Crystallographic Data Centre
#                                CCDC 
#
#######################################################################
#
# If this CIF has been generated from an entry in the Cambridge 
# Structural Database, then it will include bibliographic, chemical, 
# crystal, experimental, refinement or atomic coordinate data resulting 
# from the CCDC's data processing and validation procedures.
#
#######################################################################

data_UHUTEW01
_symmetry_cell_setting           monoclinic
_symmetry_space_group_name_H-M   'A 2/m'
_symmetry_Int_Tables_number      12
_space_group_name_Hall           '-A 2y'
loop_
_symmetry_equiv_pos_site_id
_symmetry_equiv_pos_as_xyz
1 x,y,z
2 x,1/2+y,1/2+z
3 -x,y,-z
4 -x,1/2+y,1/2-z
5 -x,-y,-z
6 -x,1/2-y,1/2-z
7 x,-y,z
8 x,1/2-y,1/2+z
_cell_length_a                   12.546(2)
_cell_length_b                   21.303(3)
_cell_length_c                   37.932(6)
_cell_angle_alpha                90
_cell_angle_beta                 106.160(10)
_cell_angle_gamma                90
_cell_volume                     9737.42
loop_
_atom_site_label
_atom_site_type_symbol
_atom_site_fract_x
_atom_site_fract_y
_atom_site_fract_z
K1 K 0.1709(5) -0.1645(3) 0.02950(17)
K2 K -0.1091(10) -0.2922(6) 0.1435(3)
O27 O 0.00000 -0.2565(9) 0.00000
O28 O 0.3508(15) -0.3774(14) -0.0108(6)
O29 O 0.0127(17) -0.3799(10) 0.1195(6)
O30 O 0.1452(14) -0.4107(13) -0.0586(7)
O31 O 0.0305(16) -0.3482(13) 0.0514(8)
O32 O 0.360(2) -0.5 0.1072(10)
O33 O 0.1492(17) -0.3552(14) 0.0048(7)
O34 O 0.271(3) -0.5 -0.0186(8)
O35 O -0.021(2) -0.5 0.0934(9)
O36 O 0.1569(19) -0.4398(8) 0.0894(6)
O37 O 0.288(2) -0.4382(9) 0.0452(6)
O39 O 0.052(3) -0.5 0.0434(10)
O40 O -0.045(2) -0.4365(14) 0.0209(8)
Si2 Si 0.00000 -0.5 0.00000
W8 W 0.00000 -0.33527(6) 0.00000
W9 W 0.23450(10) -0.41837(6) -0.00741(4)
W10 W 0.00584(9) -0.41723(4) 0.08093(3)
W11 W 0.24574(11) -0.5 0.07316(4)
O30B O -0.1452(14) -0.4107(13) 0.0586(7)
O31B O -0.0305(16) -0.3482(13) -0.0514(8)
O33B O -0.1492(17) -0.3552(14) -0.0048(7)
O36F O 0.1569(19) -0.5602(8) 0.0894(6)
O37F O 0.288(2) -0.5618(9) 0.0452(6)
O39D O -0.052(3) -0.5 -0.0434(10)
O40F O -0.045(2) -0.5635(14) 0.0209(8)
O40D O 0.045(2) -0.5635(14) -0.0209(8)
O40B O 0.045(2) -0.4365(14) -0.0209(8)
W9F W 0.23450(10) -0.58163(6) -0.00741(4)
W9B W -0.23450(10) -0.41837(6) 0.00741(4)
W10B W -0.00584(9) -0.41723(4) -0.08093(3)
W10F W 0.00584(9) -0.58277(4) 0.08093(3)
O41 O 0.6135(16) -0.0974(10) 0.1552(5)
O42 O -0.2376(18) -0.1822(11) 0.1153(6)
O43 O 0.755(3) 0.00000 0.2562(9)
O44 O 0.182(2) -0.2554(12) 0.0854(7)
K4 K -0.181(4) 0.00000 -0.0187(13)
O45 O 0.260(3) 0.00000 0.3323(10)
O46 O -0.549(3) 0.00000 0.0458(12)
O47 O -0.119(3) -0.2478(18) 0.0740(10)
O48 O 0.251(3) 0.00000 0.3994(10)
O49 O 0.941(8) 0.00000 0.311(3)
O50 O -0.296(4) -0.342(3) 0.1047(14)
O51 O 0.362(3) -0.323(2) 0.0805(12)
O52 O -0.477(4) -0.5 0.0384(15)
O53 O -0.450(4) -0.166(2) 0.0763(12)
O54 O 0.301(6) -0.237(4) -0.016(2)
O55 O -0.476(7) -0.279(4) 0.034(2)
O56 O 0.348(5) -0.092(3) -0.0218(17)
C1 C 1.0200(13) -0.2319(8) 0.2678(5)
C2 C 1.3763(16) -0.2384(10) 0.3181(6)
H1 H 1.3211 -0.2158 0.3245
C3 C 1.480(2) -0.2374(10) 0.3414(7)
H2 H 1.4952 -0.2165 0.3638
C4 C 1.5627(14) -0.2688(10) 0.3305(5)
H3 H 1.635 -0.2677 0.3458
C5 C 1.5410(14) -0.3013(9) 0.2980(6)
H4 H 1.5978 -0.3214 0.291
C6 C 1.4310(15) -0.3036(10) 0.2754(6)
C7 C 1.2365(15) -0.3562(8) 0.1930(5)
H5 H 1.1603 -0.3529 0.1825
C8 C 1.2989(19) -0.3920(10) 0.1750(6)
H6 H 1.2649 -0.4104 0.1525
C9 C 1.407(2) -0.3998(13) 0.1904(6)
H7 H 1.4506 -0.4233 0.179
C10 C 1.4516(17) -0.3721(10) 0.2233(7)
H8 H 1.5267 -0.3776 0.2351
C11 C 1.3876(13) -0.3361(8) 0.2396(6)
Cu1 Cu 1.20010(16) -0.28172(11) 0.25277(6)
N1 N 1.3489(11) -0.2697(7) 0.2866(5)
N2 N 1.2810(11) -0.3276(8) 0.2234(4)
O1 O 1.1785(11) -0.3857(7) 0.2829(4)
O2 O 1.1251(9) -0.2330(6) 0.2828(3)
O3 O 0.8911(11) -0.2582(6) 0.3475(4)
O4 O 0.9506(9) -0.2049(5) 0.2802(3)
O5 O 0.7200(10) -0.3887(6) 0.2168(3)
O6 O 1.345(2) -0.50000 0.3968(6)
O7 O 1.0427(10) -0.3695(6) 0.4601(4)
O8 O 0.6443(10) -0.3715(6) 0.4036(4)
O9 O 0.4736(13) -0.50000 0.2749(6)
O10 O 1.0245(9) -0.3365(5) 0.3198(3)
O11 O 0.8023(9) -0.3365(6) 0.2874(3)
O12 O 0.9417(9) -0.3992(5) 0.2571(3)
O13 O 1.1498(9) -0.4361(6) 0.3482(3)
O14 O 0.9840(9) -0.3660(6) 0.3832(3)
O15 O 0.7722(9) -0.3652(5) 0.3533(3)
O16 O 0.6764(9) -0.4382(6) 0.2795(3)
O17 O 0.8089(14) -0.50000 0.2505(5)
O18 O 1.0656(13) -0.50000 0.2854(5)
O19 O 1.1600(8) -0.4359(5) 0.4206(3)
O20 O 0.8522(9) -0.4263(6) 0.4134(4)
O21 O 0.5919(9) -0.4367(5) 0.3377(3)
O22 O 1.0184(14) -0.50000 0.4509(5)
O23 O 0.6726(13) -0.50000 0.3997(5)
O24 O 0.9061(9) -0.4374(5) 0.3180(3)
O25 O 0.9884(13) -0.50000 0.3807(5)
O26 O 0.7723(14) -0.50000 0.3496(5)
Si1 Si 0.8941(5) -0.50000 0.34143(18)
W1 W 1.07017(6) -0.41484(3) 0.30060(2)
W2 W 0.89670(6) -0.33536(3) 0.33725(2)
W3 W 0.79543(5) -0.41297(3) 0.25955(2)
Cu4 Cu 1.17850(12) -0.50000 0.38485(4)
W5 W 1.01790(6) -0.42229(3) 0.42412(2)
W6 W 0.71130(6) -0.42138(3) 0.38127(2)
W7 W 0.60696(7) -0.50000 0.30240(3)
C1E C 0.9800(13) -0.2681(8) 0.2322(5)
Cu1E Cu 0.79990(16) -0.21828(11) 0.24723(6)
O4E O 1.0494(9) -0.2951(5) 0.2198(3)
O13F O 1.1498(9) -0.5639(6) 0.3482(3)
O16F O 0.6764(9) -0.5618(6) 0.2795(3)
O19F O 1.1600(8) -0.5641(5) 0.4206(3)
O21F O 0.5919(9) -0.5633(5) 0.3377(3)
O24F O 0.9061(9) -0.5626(5) 0.3180(3)
W1F W 1.07017(6) -0.58516(3) 0.30060(2)
W3F W 0.79543(5) -0.58703(3) 0.25955(2)
W5F W 1.01790(6) -0.57771(3) 0.42412(2)
W6F W 0.71130(6) -0.57862(3) 0.38127(2)
K3? K -0.0942(11) -0.3962(8) 0.1784(4)
O38? O 0.138(3) -0.5 0.0178(11)
Cu2? Cu 0.10330(6) -0.16464(3) 0.16275(2)
Cu3? Cu 0.20457(5) -0.08703(3) 0.24045(2)
W4? W -0.17850(12) 0.00000 0.11515(4)
Cu5? Cu -0.01790(6) -0.07771(3) 0.07588(2)
Cu6? Cu 0.28870(6) -0.07862(3) 0.11873(2)
Cu7? Cu 0.39304(7) 0.00000 0.19760(3)
Cu8? Cu 0.00000 -0.33527(6) 0.00000
Cu9? Cu -0.23450(10) -0.41837(6) 0.00741(4)
Cu10? Cu 0.00584(9) -0.41723(4) 0.08093(3)
Cu11? Cu 0.24574(11) -0.5 0.07316(4)
loop_
_geom_bond_atom_site_label_1
_geom_bond_atom_site_label_2
_geom_bond_site_symmetry_1
_geom_bond_site_symmetry_2
C1 O2 1_555 1_555
C2 H1 1_555 1_555
C3 C2 1_555 1_555
H2 C3 1_555 1_555
C4 C3 1_555 1_555
H3 C4 1_555 1_555
C5 C4 1_555 1_555
H4 C5 1_555 1_555
C6 C5 1_555 1_555
C7 H5 1_555 1_555
C8 C7 1_555 1_555
H6 C8 1_555 1_555
C9 C8 1_555 1_555
H7 C9 1_555 1_555
C10 C9 1_555 1_555
H8 C10 1_555 1_555
C11 C6 1_555 1_555
Cu1 N1 1_555 1_555
N1 C2 1_555 1_555
N2 C7 1_555 1_555
O1 Cu1 1_555 1_555
O2 Cu1 1_555 1_555
O3 W2 1_555 1_555
O4 C1 1_555 1_555
O5 W3 1_555 1_555
O6 Cu4 1_555 1_555
O7 W5 1_555 1_555
O8 W6 1_555 1_555
O9 W7 1_555 1_555
O10 W1 1_555 1_555
O11 W2 1_555 1_555
O12 W1 1_555 1_555
O13 W1 1_555 1_555
O14 W2 1_555 1_555
O15 W2 1_555 1_555
O16 W3 1_555 1_555
O17 W3 1_555 1_555
O18 W1 1_555 1_555
O19 Cu4 1_555 1_555
O20 W5 1_555 1_555
O21 W6 1_555 1_555
O22 W5 1_555 1_555
O23 W6 1_555 1_555
O24 Si1 1_555 1_555
O25 Si1 1_555 1_555
O26 Si1 1_555 1_555
O27 W8 1_555 1_555
O28 W9 1_555 1_555
O29 W10 1_555 1_555
O30 W9 1_555 1_555
O31 W8 1_555 1_555
O32 W11 1_555 1_555
O33 W8 1_555 1_555
O34 W9 1_555 1_555
O35 W10 1_555 1_555
O36 W10 1_555 1_555
O37 W9 1_555 1_555
O39 Si2 1_555 1_555
O40 Si2 1_555 1_555
Si1 O24F 1_555 1_555
Si2 O39D 1_555 1_555
W1 O1 1_555 1_555
W2 O10 1_555 1_555
W3 O11 1_555 1_555
Cu4 O13 1_555 1_555
W5 O14 1_555 1_555
W6 O15 1_555 1_555
W7 O16 1_555 1_555
W8 O40 1_555 1_555
W9 O33 1_555 1_555
W10 O31 1_555 1_555
W11 O36 1_555 1_555
C1E C1 1_555 1_555
Cu1E O4 1_555 1_555
O4E Cu1 1_555 1_555
O13F Cu4 1_555 1_555
O16F W7 1_555 1_555
O19F Cu4 1_555 1_555
O21F W7 1_555 1_555
O24F W1F 1_555 1_555
O30B W10 1_555 1_555
O31B W8 1_555 1_555
O33B W8 1_555 1_555
O36F W11 1_555 1_555
O37F W11 1_555 1_555
O39D W10B 1_555 1_555
O40F Si2 1_555 1_555
O40D Si2 1_555 1_555
O40B Si2 1_555 1_555
W1F O18 1_555 1_555
W3F O17 1_555 1_555
W5F O22 1_555 1_555
W6F O23 1_555 1_555
W9F O34 1_555 1_555
W9B O40 1_555 1_555
W10B O30 1_555 1_555
W10F O35 1_555 1_555
C6 N1 1_555 1_555
C10 C11 1_555 1_555
C11 N2 1_555 1_555
Cu1 N2 1_555 1_555
O12 W3 1_555 1_555
O19 W5 1_555 1_555
O20 W6 1_555 1_555
O21 W7 1_555 1_555
O24 W1 1_555 1_555
O24 W2 1_555 1_555
O24 W3 1_555 1_555
O25 Cu4 1_555 1_555
O25 W5 1_555 1_555
O25 W5F 1_555 1_555
O26 W6 1_555 1_555
O26 W7 1_555 1_555
O26 W6F 1_555 1_555
O37 W11 1_555 1_555
O39 W10 1_555 1_555
O39 W11 1_555 1_555
O39 W10F 1_555 1_555
O40 W10 1_555 1_555
Cu4 W5 1_555 1_555
Cu4 W5F 1_555 1_555
W8 O40B 1_555 1_555
W9 O40B 1_555 1_555
C1E O4E 1_555 1_555
O13F W1F 1_555 1_555
O16F W3F 1_555 1_555
O19F W5F 1_555 1_555
O21F W6F 1_555 1_555
O24F W3F 1_555 1_555
O30B W9B 1_555 1_555
O31B W10B 1_555 1_555
O33B W9B 1_555 1_555
O36F W10F 1_555 1_555
O37F W9F 1_555 1_555
O40F W10F 1_555 1_555
O40D W9F 1_555 1_555
O40B W10B 1_555 1_555

#END
