
#######################################################################
#
#                 Cambridge Crystallographic Data Centre
#                                CCDC 
#
#######################################################################
#
# If this CIF has been generated from an entry in the Cambridge 
# Structural Database, then it will include bibliographic, chemical, 
# crystal, experimental, refinement or atomic coordinate data resulting 
# from the CCDC's data processing and validation procedures.
#
#######################################################################

data_UHUVUO
_symmetry_cell_setting           monoclinic
_symmetry_space_group_name_H-M   'P 21/c'
_symmetry_Int_Tables_number      14
_space_group_name_Hall           '-P 2ybc'
loop_
_symmetry_equiv_pos_site_id
_symmetry_equiv_pos_as_xyz
1 x,y,z
2 x,1/2-y,1/2+z
3 -x,-y,-z
4 -x,1/2+y,1/2-z
_cell_length_a                   13.243(7)
_cell_length_b                   8.080(4)
_cell_length_c                   21.019(11)
_cell_angle_alpha                90
_cell_angle_beta                 107.378(9)
_cell_angle_gamma                90
_cell_volume                     2146.45
loop_
_atom_site_label
_atom_site_type_symbol
_atom_site_fract_x
_atom_site_fract_y
_atom_site_fract_z
Ag1 Ag 0.47978(2) 1.41989(4) 0.684717(18)
S1 S 0.53633(7) 1.59935(12) 0.80499(5)
S2 S 0.58378(8) 1.02583(14) 0.94202(6)
N1 N 0.6636(3) 1.4636(5) 0.71842(18)
N2 N 0.6986(3) 0.9942(5) 0.83382(17)
C1 C 0.7118(4) 1.4100(9) 0.6765(3)
H1 H 0.6709 1.3788 0.6341
C2 C 0.8231(5) 1.3971(10) 0.6924(3)
H2 H 0.8542 1.3607 0.6607
C3 C 0.8821(4) 1.4378(8) 0.7530(3)
H3 H 0.9553 1.4283 0.7642
C4 C 0.8356(3) 1.4953(6) 0.8006(2)
C5 C 0.8953(4) 1.5374(7) 0.8654(3)
H4 H 0.9686 1.5275 0.8782
C6 C 0.8467(4) 1.5927(7) 0.9097(3)
H5 H 0.8868 1.6180 0.9530
C7 C 0.7375(4) 1.6119(6) 0.8907(2)
H6 H 0.7055 1.6538 0.9211
C8 C 0.6764(3) 1.5700(5) 0.8279(2)
C9 C 0.7232(3) 1.5087(5) 0.7805(2)
C10 C 0.5051(3) 1.5023(6) 0.8743(2)
H7 H 0.5475 1.5510 0.9159
H8 H 0.4310 1.5199 0.8705
C11 C 0.5282(4) 1.3146(6) 0.8738(2)
H9 H 0.4754 1.2634 0.8368
H10 H 0.5967 1.2988 0.8668
C12 C 0.5280(4) 1.2299(6) 0.9370(2)
H11 H 0.4559 1.2223 0.9391
H12 H 0.5685 1.2950 0.9748
C13 C 0.7594(3) 1.0533(5) 0.8933(2)
C14 C 0.7165(3) 1.0775(5) 0.9469(2)
C15 C 0.7782(4) 1.1434(8) 1.0051(2)
H13 H 0.7497 1.1594 1.0401
C16 C 0.8844(4) 1.1878(9) 1.0136(3)
H14 H 0.9246 1.2349 1.0535
C17 C 0.9274(4) 1.1624(7) 0.9642(3)
H15 H 0.9979 1.1898 0.9704
C18 C 0.8671(3) 1.0949(5) 0.9036(2)
C19 C 0.9100(4) 1.0674(7) 0.8508(3)
H16 H 0.9805 1.0928 0.8560
C20 C 0.8491(4) 1.0046(9) 0.7932(3)
H17 H 0.8769 0.9836 0.7582
C21 C 0.7430(4) 0.9710(7) 0.7864(2)
H18 H 0.7012 0.9297 0.7458
S1C S 0.46367(7) 1.09935(12) 0.69501(5)
S2C S 0.41622(8) 1.52583(14) 0.55798(6)
N2C N 0.3014(3) 1.4942(5) 0.66618(17)
Ag1C Ag 0.52022(2) 1.91989(4) 0.815283(18)
Ag1C_2 Ag 0.52022(2) 0.91989(4) 0.815283(18)
Cl1 Cl 0.22466(10) 1.38296(18) 0.90607(7)
O1 O 0.1756(10) 1.5208(12) 0.8770(4)
O2 O 0.1565(8) 1.2987(15) 0.9287(5)
O3 O 0.3079(5) 1.4290(14) 0.9585(4)
O4 O 0.2626(4) 1.3023(8) 0.8587(2)
loop_
_geom_bond_atom_site_label_1
_geom_bond_atom_site_label_2
_geom_bond_site_symmetry_1
_geom_bond_site_symmetry_2
Ag1 S1 1_555 1_555
Cl1 O1 1_555 1_555
S1 C8 1_555 1_555
S2 C12 1_555 1_555
O2 Cl1 1_555 1_555
O3 Cl1 1_555 1_555
O4 Cl1 1_555 1_555
N1 Ag1 1_555 1_555
N2 C13 1_555 1_555
C1 N1 1_555 1_555
H1 C1 1_555 1_555
C2 C1 1_555 1_555
H2 C2 1_555 1_555
C3 C2 1_555 1_555
H3 C3 1_555 1_555
C4 C3 1_555 1_555
C5 C4 1_555 1_555
H4 C5 1_555 1_555
C6 C5 1_555 1_555
H5 C6 1_555 1_555
C7 C6 1_555 1_555
H6 C7 1_555 1_555
C8 C7 1_555 1_555
C9 N1 1_555 1_555
C10 S1 1_555 1_555
H7 C10 1_555 1_555
H8 C10 1_555 1_555
C11 C10 1_555 1_555
H9 C11 1_555 1_555
H10 C11 1_555 1_555
C12 C11 1_555 1_555
H11 C12 1_555 1_555
H12 C12 1_555 1_555
C13 C14 1_555 1_555
C14 S2 1_555 1_555
C15 C14 1_555 1_555
H13 C15 1_555 1_555
C16 C15 1_555 1_555
H14 C16 1_555 1_555
C17 C16 1_555 1_555
H15 C17 1_555 1_555
C18 C13 1_555 1_555
C19 C18 1_555 1_555
H16 C19 1_555 1_555
C20 C19 1_555 1_555
H17 C20 1_555 1_555
C21 N2 1_555 1_555
H18 C21 1_555 1_555
S1C Ag1 1_555 1_555
S2C Ag1 1_555 1_555
N2C Ag1 1_555 1_555
Ag1C S1 1_555 1_555
Ag1C_2 S2 1_555 1_555
N2 Ag1C_2 1_555 1_555
C4 C9 1_555 1_555
C8 C9 1_555 1_555
C17 C18 1_555 1_555
C20 C21 1_555 1_555
S1C Ag1C_2 1_555 1_555

#END
