
#######################################################################
#
#                 Cambridge Crystallographic Data Centre
#                                CCDC 
#
#######################################################################
#
# If this CIF has been generated from an entry in the Cambridge 
# Structural Database, then it will include bibliographic, chemical, 
# crystal, experimental, refinement or atomic coordinate data resulting 
# from the CCDC's data processing and validation procedures.
#
#######################################################################

data_UHUVAU
_symmetry_cell_setting           monoclinic
_symmetry_space_group_name_H-M   'P 21/n'
_symmetry_Int_Tables_number      14
_space_group_name_Hall           '-P 2yn'
loop_
_symmetry_equiv_pos_site_id
_symmetry_equiv_pos_as_xyz
1 x,y,z
2 1/2+x,1/2-y,1/2+z
3 -x,-y,-z
4 1/2-x,1/2+y,1/2-z
_cell_length_a                   11.7166(6)
_cell_length_b                   9.8931(5)
_cell_length_c                   29.4262(16)
_cell_angle_alpha                90
_cell_angle_beta                 94.2430(10)
_cell_angle_gamma                90
_cell_volume                     3401.55
loop_
_atom_site_label
_atom_site_type_symbol
_atom_site_fract_x
_atom_site_fract_y
_atom_site_fract_z
Sn1 Sn 0.55519(2) 0.63975(2) 0.061617(8)
Sn2 Sn 0.05913(2) 0.63457(3) 0.110133(8)
O1 O 0.4219(2) 0.7761(3) 0.04006(8)
O2 O 0.4196(2) 0.6159(3) -0.01178(9)
O3 O 0.0561(2) 0.7605(3) 0.05290(8)
O4 O 0.1953(2) 0.6149(3) 0.04386(9)
O5 O 0.9306(2) 0.7685(3) 0.12890(8)
O6 O 0.9702(2) 0.6270(3) 0.18529(9)
O7 O 0.5842(2) 0.7887(3) 0.11409(9)
O8 O 0.7084(2) 0.6237(3) 0.12820(9)
C1 C 0.3793(3) 0.7217(4) 0.00306(12)
C2 C 0.2842(3) 0.7981(4) -0.02238(12)
C3 C 0.1726(3) 0.8001(4) -0.00833(12)
C4 C 0.0911(3) 0.8826(4) -0.03081(13)
H1 H 0.0172 0.8846 -0.0213
C5 C 0.1178(3) 0.9617(4) -0.06706(13)
H2 H 0.0623 1.0161 -0.0820
C6 C 0.2281(3) 0.9594(4) -0.08096(12)
H3 H 0.2467 1.0120 -0.1056
C7 C 0.3107(3) 0.8792(4) -0.05833(12)
H4 H 0.3850 0.8799 -0.0674
C8 C 0.1421(3) 0.7175(4) 0.03136(12)
C9 C 0.9138(3) 0.7237(4) 0.16914(12)
C10 C 0.8298(3) 0.7997(4) 0.19524(12)
C11 C 0.7151(3) 0.8113(4) 0.17938(12)
C12 C 0.6424(3) 0.8903(4) 0.20345(13)
H5 H 0.5658 0.8988 0.1931
C13 C 0.6831(4) 0.9566(5) 0.24286(14)
H6 H 0.6338 1.0090 0.2589
C14 C 0.7965(4) 0.9448(4) 0.25826(14)
H7 H 0.8239 0.9896 0.2846
C15 C 0.8700(4) 0.8661(4) 0.23448(13)
H8 H 0.9465 0.8580 0.2450
C16 C 0.6683(3) 0.7348(4) 0.13831(12)
C17 C 0.6915(3) 0.6857(4) 0.02057(13)
H9 H 0.7565 0.7164 0.0402
H10 H 0.7141 0.6034 0.0057
C18 C 0.6631(3) 0.7929(4) -0.01574(13)
H11 H 0.6332 0.8726 -0.0016
H12 H 0.6043 0.7586 -0.0377
C19 C 0.7685(3) 0.8317(5) -0.04040(15)
H13 H 0.8271 0.8647 -0.0181
H14 H 0.7982 0.7512 -0.0543
C20 C 0.7462(4) 0.9384(5) -0.07697(15)
H15 H 0.6949 0.9028 -0.1010
H16 H 0.8171 0.9633 -0.0891
H17 H 0.7124 1.0165 -0.0640
C21 C 0.4568(3) 0.5041(4) 0.09796(13)
H18 H 0.4222 0.5552 0.1215
H19 H 0.3949 0.4713 0.0771
C22 C 0.5151(4) 0.3833(4) 0.12021(15)
H20 H 0.5873 0.4115 0.1355
H21 H 0.5317 0.3184 0.0969
C23 C 0.4431(4) 0.3149(5) 0.15457(15)
H22 H 0.4359 0.3750 0.1802
H23 H 0.3670 0.2980 0.1405
C24 C 0.4953(5) 0.1837(5) 0.17134(17)
H24 H 0.4946 0.1205 0.1466
H25 H 0.4519 0.1478 0.1950
H26 H 0.5728 0.1991 0.1832
C25 C 0.2108(3) 0.6987(4) 0.14781(13)
H27 H 0.2465 0.6205 0.1628
H28 H 0.2633 0.7331 0.1266
C26 C 0.1947(3) 0.8067(5) 0.18365(15)
H29 H 0.1499 0.7694 0.2071
H30 H 0.1520 0.8816 0.1696
C27 C 0.3085(4) 0.8593(5) 0.20574(16)
H31 H 0.3525 0.7838 0.2188
H32 H 0.3520 0.8998 0.1825
C28 C 0.2926(5) 0.9627(7) 0.2427(2)
H33 H 0.2502 1.0385 0.2299
H34 H 0.3661 0.9928 0.2554
H35 H 0.2513 0.9225 0.2663
C29 C -0.0339(4) 0.4613(4) 0.08543(13)
H36 H -0.1003 0.4916 0.0665
H37 H 0.0141 0.4101 0.0661
C30 C -0.0743(4) 0.3670(4) 0.12179(14)
H38 H -0.1175 0.4188 0.1426
H39 H -0.1254 0.3000 0.1073
C31 C 0.0227(4) 0.2951(5) 0.14873(16)
H40 H 0.0714 0.3620 0.1646
H41 H 0.0684 0.2474 0.1277
C32 C -0.0179(6) 0.1953(5) 0.18330(17)
H42 H -0.0628 0.2418 0.2043
H43 H 0.0472 0.1543 0.1996
H44 H -0.0636 0.1265 0.1678
O5_2 O -0.0694(2) 0.7685(3) 0.12890(8)
O6_2 O -0.0298(2) 0.6270(3) 0.18529(9)
Sn2_2 Sn 1.05913(2) 0.63457(3) 0.110133(8)
loop_
_geom_bond_atom_site_label_1
_geom_bond_atom_site_label_2
_geom_bond_site_symmetry_1
_geom_bond_site_symmetry_2
Sn1 O1 1_555 1_555
Sn2 O3 1_555 1_555
O1 C1 1_555 1_555
O2 Sn1 1_555 1_555
O3 C8 1_555 1_555
O4 Sn2 1_555 1_555
O5 C9 1_555 1_555
O6 C9 1_555 1_555
O7 Sn1 1_555 1_555
O8 Sn1 1_555 1_555
C1 O2 1_555 1_555
C2 C1 1_555 1_555
C3 C2 1_555 1_555
C4 C3 1_555 1_555
H1 C4 1_555 1_555
C5 C4 1_555 1_555
H2 C5 1_555 1_555
C6 C5 1_555 1_555
H3 C6 1_555 1_555
C7 C2 1_555 1_555
H4 C7 1_555 1_555
C8 O4 1_555 1_555
C9 C10 1_555 1_555
C10 C11 1_555 1_555
C11 C12 1_555 1_555
C12 H5 1_555 1_555
C13 C12 1_555 1_555
H6 C13 1_555 1_555
C14 C13 1_555 1_555
H7 C14 1_555 1_555
C15 C10 1_555 1_555
H8 C15 1_555 1_555
C16 O7 1_555 1_555
C17 Sn1 1_555 1_555
H9 C17 1_555 1_555
H10 C17 1_555 1_555
C18 C17 1_555 1_555
H11 C18 1_555 1_555
H12 C18 1_555 1_555
C19 C18 1_555 1_555
H13 C19 1_555 1_555
H14 C19 1_555 1_555
C20 C19 1_555 1_555
H15 C20 1_555 1_555
H16 C20 1_555 1_555
H17 C20 1_555 1_555
C21 Sn1 1_555 1_555
H18 C21 1_555 1_555
H19 C21 1_555 1_555
C22 C21 1_555 1_555
H20 C22 1_555 1_555
H21 C22 1_555 1_555
C23 C22 1_555 1_555
H22 C23 1_555 1_555
H23 C23 1_555 1_555
C24 C23 1_555 1_555
H24 C24 1_555 1_555
H25 C24 1_555 1_555
H26 C24 1_555 1_555
C25 Sn2 1_555 1_555
H27 C25 1_555 1_555
H28 C25 1_555 1_555
C26 C25 1_555 1_555
H29 C26 1_555 1_555
H30 C26 1_555 1_555
C27 C26 1_555 1_555
H31 C27 1_555 1_555
H32 C27 1_555 1_555
C28 C27 1_555 1_555
H33 C28 1_555 1_555
H34 C28 1_555 1_555
H35 C28 1_555 1_555
C29 Sn2 1_555 1_555
H36 C29 1_555 1_555
H37 C29 1_555 1_555
C30 C29 1_555 1_555
H38 C30 1_555 1_555
H39 C30 1_555 1_555
C31 C30 1_555 1_555
H40 C31 1_555 1_555
H41 C31 1_555 1_555
C32 C31 1_555 1_555
H42 C32 1_555 1_555
H43 C32 1_555 1_555
H44 C32 1_555 1_555
O5_2 Sn2 1_555 1_555
O6_2 Sn2 1_555 1_555
Sn2_2 O5 1_555 1_555
O6 Sn2_2 1_555 1_555
O8 C16 1_555 1_555
C3 C8 1_555 1_555
C6 C7 1_555 1_555
C11 C16 1_555 1_555
C14 C15 1_555 1_555

#END
