
#######################################################################
#
#                 Cambridge Crystallographic Data Centre
#                                CCDC 
#
#######################################################################
#
# If this CIF has been generated from an entry in the Cambridge 
# Structural Database, then it will include bibliographic, chemical, 
# crystal, experimental, refinement or atomic coordinate data resulting 
# from the CCDC's data processing and validation procedures.
#
#######################################################################

data_UHUWAV
_symmetry_cell_setting           triclinic
_symmetry_space_group_name_H-M   'P -1'
_symmetry_Int_Tables_number      2
_space_group_name_Hall           '-P 1'
loop_
_symmetry_equiv_pos_site_id
_symmetry_equiv_pos_as_xyz
1 x,y,z
2 -x,-y,-z
_cell_length_a                   9.781(2)
_cell_length_b                   13.178(2)
_cell_length_c                   13.496(3)
_cell_angle_alpha                99.231(10)
_cell_angle_beta                 110.025(11)
_cell_angle_gamma                94.844(10)
_cell_volume                     1594.9
loop_
_atom_site_label
_atom_site_type_symbol
_atom_site_fract_x
_atom_site_fract_y
_atom_site_fract_z
Ag1 Ag 1.35114(3) 0.387127(19) 0.64256(2)
Ag2 Ag 1.42986(3) 0.29304(2) 0.32551(2)
S1 S 1.30012(9) 0.27775(5) 0.46777(6)
S2 S 0.63941(9) 0.40987(5) 0.32295(6)
N1 N 1.3720(3) 0.1160(2) 0.3146(2)
N2 N 0.6863(3) 0.5778(2) 0.2006(2)
N3 N 1.2176(6) 0.2810(4) 0.1681(3)
C1 C 1.3908(5) 0.0502(3) 0.2383(3)
H1 H 1.4145 0.0768 0.1854
C2 C 1.3774(5) -0.0577(3) 0.2313(3)
H2 H 1.3889 -0.1011 0.1741
C3 C 1.3478(5) -0.0976(3) 0.3089(3)
H3 H 1.3417 -0.1688 0.3067
C4 C 1.3261(4) -0.0310(2) 0.3934(3)
C5 C 1.3359(3) 0.0773(2) 0.3919(2)
C6 C 1.3065(4) 0.1443(2) 0.4743(2)
C7 C 1.2797(4) 0.1051(3) 0.5547(3)
H4 H 1.2641 0.1497 0.6093
C8 C 1.2754(5) -0.0020(3) 0.5565(3)
H5 H 1.2581 -0.0273 0.6123
C9 C 1.2962(5) -0.0673(3) 0.4774(3)
H6 H 1.2907 -0.1380 0.4782
C10 C 1.1056(4) 0.2771(3) 0.3905(3)
H7 H 1.0945 0.3436 0.3689
H8 H 1.0762 0.2239 0.3255
C11 C 1.0020(4) 0.2579(3) 0.4492(3)
H9 H 1.0373 0.3055 0.5185
H10 H 1.0020 0.1876 0.4623
C12 C 0.8443(4) 0.2722(3) 0.3855(3)
H11 H 0.8196 0.2415 0.3101
H12 H 0.7769 0.2361 0.4112
C13 C 0.8256(4) 0.3865(2) 0.3963(3)
H13 H 0.8936 0.4219 0.3704
H14 H 0.8522 0.4168 0.4720
C14 C 0.6360(3) 0.3912(2) 0.1887(2)
C15 C 0.6075(4) 0.2926(3) 0.1287(3)
H15 H 0.5849 0.2366 0.1573
C16 C 0.6119(5) 0.2746(3) 0.0251(3)
H16 H 0.5917 0.2069 -0.0145
C17 C 0.6453(5) 0.3548(3) -0.0183(3)
H17 H 0.6501 0.3415 -0.0867
C18 C 0.6728(4) 0.4582(3) 0.0393(3)
C19 C 0.7036(4) 0.5446(3) -0.0039(3)
H18 H 0.7103 0.5345 -0.0718
C20 C 0.7232(5) 0.6424(3) 0.0544(3)
H19 H 0.7428 0.7000 0.0269
C21 C 0.7134(4) 0.6551(3) 0.1556(3)
H20 H 0.7269 0.7225 0.1944
C22 C 0.6675(3) 0.4787(2) 0.1447(2)
C23 C 0.9611(8) 0.1943(8) 0.0256(6)
C24 C 1.1077(6) 0.2453(4) 0.1092(4)
S4 S 1.70282(10) 0.41701(7) 0.65437(7)
O4 O 1.7123(5) 0.5065(3) 0.6105(3)
O5 O 1.6670(4) 0.3221(2) 0.5766(3)
O6 O 1.6235(4) 0.4194(4) 0.7248(3)
C26 C 1.8890(5) 0.4169(4) 0.7437(4)
F4 F 1.9393(4) 0.4975(4) 0.8184(4)
F5 F 1.9003(5) 0.3377(4) 0.7894(4)
F6 F 1.9792(4) 0.4111(5) 0.6914(4)
S2A S 1.36059(9) 0.59013(5) 0.67705(6)
N2A N 1.3137(3) 0.4222(2) 0.7994(2)
S2_2 S 1.63941(9) 0.40987(5) 0.32295(6)
Ag1A Ag 0.64886(3) 0.612873(19) 0.35744(2)
Ag2_2 Ag 0.42986(3) 0.29304(2) 0.32551(2)
S3 S 0.25514(13) 0.03179(8) -0.12957(10)
C25 C 0.0688(6) 0.0358(4) -0.2112(4)
O1 O 0.2616(6) 0.0760(5) -0.0254(3)
O2 O 0.2671(6) -0.0735(3) -0.1519(5)
O3 O 0.3353(4) 0.0965(3) -0.1727(4)
F1 F 0.0330(4) 0.1312(3) -0.2057(4)
F2 F 0.0372(5) -0.0030(4) -0.3161(3)
F3 F -0.0299(4) -0.0185(3) -0.1869(4)
loop_
_geom_bond_atom_site_label_1
_geom_bond_atom_site_label_2
_geom_bond_site_symmetry_1
_geom_bond_site_symmetry_2
Ag1 S1 1_555 1_555
Ag2 S1 1_555 1_555
S1 C6 1_555 1_555
S2 C13 1_555 1_555
N1 Ag2 1_555 1_555
N2 C21 1_555 1_555
N3 Ag2 1_555 1_555
C1 N1 1_555 1_555
H1 C1 1_555 1_555
C2 C1 1_555 1_555
H2 C2 1_555 1_555
C3 C2 1_555 1_555
H3 C3 1_555 1_555
C4 C3 1_555 1_555
C5 N1 1_555 1_555
C6 C5 1_555 1_555
C7 C6 1_555 1_555
H4 C7 1_555 1_555
C8 C7 1_555 1_555
H5 C8 1_555 1_555
C9 C4 1_555 1_555
H6 C9 1_555 1_555
C10 S1 1_555 1_555
H7 C10 1_555 1_555
H8 C10 1_555 1_555
C11 C10 1_555 1_555
H9 C11 1_555 1_555
H10 C11 1_555 1_555
C12 C11 1_555 1_555
H11 C12 1_555 1_555
H12 C12 1_555 1_555
C13 C12 1_555 1_555
H13 C13 1_555 1_555
H14 C13 1_555 1_555
C14 S2 1_555 1_555
C15 C14 1_555 1_555
H15 C15 1_555 1_555
C16 C15 1_555 1_555
H16 C16 1_555 1_555
C17 C16 1_555 1_555
H17 C17 1_555 1_555
C18 C17 1_555 1_555
C19 C18 1_555 1_555
H18 C19 1_555 1_555
C20 C19 1_555 1_555
H19 C20 1_555 1_555
C21 C20 1_555 1_555
H20 C21 1_555 1_555
C22 N2 1_555 1_555
C23 C24 1_555 1_555
C24 N3 1_555 1_555
S3 C25 1_555 1_555
C25 F1 1_555 1_555
O1 S3 1_555 1_555
O2 S3 1_555 1_555
O3 S3 1_555 1_555
F2 C25 1_555 1_555
F3 C25 1_555 1_555
S4 O4 1_555 1_555
O5 S4 1_555 1_555
O6 Ag1 1_555 1_555
C26 S4 1_555 1_555
F4 C26 1_555 1_555
F5 C26 1_555 1_555
F6 C26 1_555 1_555
S2A Ag1 1_555 1_555
N2A Ag1 1_555 1_555
S2_2 Ag2 1_555 1_555
Ag1A S2 1_555 1_555
Ag2_2 S2 1_555 1_555
N2 Ag1A 1_555 1_555
C4 C5 1_555 1_555
C8 C9 1_555 1_555
C14 C22 1_555 1_555
C18 C22 1_555 1_555
S4 O6 1_555 1_555

#END
