
#######################################################################
#
#                 Cambridge Crystallographic Data Centre
#                                CCDC 
#
#######################################################################
#
# If this CIF has been generated from an entry in the Cambridge 
# Structural Database, then it will include bibliographic, chemical, 
# crystal, experimental, refinement or atomic coordinate data resulting 
# from the CCDC's data processing and validation procedures.
#
#######################################################################

data_UHUWEZ
_symmetry_cell_setting           monoclinic
_symmetry_space_group_name_H-M   'P 21/c'
_symmetry_Int_Tables_number      14
_space_group_name_Hall           '-P 2ybc'
loop_
_symmetry_equiv_pos_site_id
_symmetry_equiv_pos_as_xyz
1 x,y,z
2 x,1/2-y,1/2+z
3 -x,-y,-z
4 -x,1/2+y,1/2-z
_cell_length_a                   15.722(7)
_cell_length_b                   13.768(6)
_cell_length_c                   20.967(10)
_cell_angle_alpha                90
_cell_angle_beta                 99.739(9)
_cell_angle_gamma                90
_cell_volume                     4473.12
loop_
_atom_site_label
_atom_site_type_symbol
_atom_site_fract_x
_atom_site_fract_y
_atom_site_fract_z
Ag1 Ag 0.26311(4) 0.89631(6) 0.62198(4)
Ag2 Ag 0.26065(4) 0.37112(5) 0.39498(3)
S1 S 0.15189(13) 0.76990(15) 0.57522(9)
S2 S 0.12342(11) 0.47076(13) 0.36790(9)
S3 S 0.39743(14) 1.37054(14) 0.47814(9)
S4 S 0.41247(14) 0.92045(15) 0.59706(10)
N1 N 0.1356(4) 0.9832(5) 0.6177(3)
N2 N 0.1629(4) 0.2609(4) 0.3340(3)
N3 N 0.3693(4) 1.3327(4) 0.3316(3)
N4 N 0.3423(4) 0.9083(5) 0.7260(3)
C1 C 0.1352(6) 1.0711(7) 0.6426(4)
H1 H 0.1880 1.0991 0.6597
C2 C 0.0603(7) 1.1248(7) 0.6449(5)
H2 H 0.0630 1.1863 0.6634
C3 C -0.0167(6) 1.0840(8) 0.6191(4)
H3 H -0.0677 1.1174 0.6205
C4 C -0.0193(5) 0.9922(7) 0.5904(4)
C5 C -0.0977(6) 0.9486(9) 0.5596(5)
H4 H -0.1494 0.9824 0.5570
C6 C -0.0977(6) 0.8591(9) 0.5344(5)
H5 H -0.1494 0.8323 0.5137
C7 C -0.0213(5) 0.8052(7) 0.5388(4)
H6 H -0.0236 0.7423 0.5224
C8 C 0.0572(5) 0.8434(6) 0.5668(3)
C9 C 0.0588(5) 0.9411(6) 0.5914(3)
C10 C 0.1700(5) 0.7588(6) 0.4921(4)
H7 H 0.1551 0.8202 0.4704
H8 H 0.2311 0.7482 0.4929
C11 C 0.1205(5) 0.6788(6) 0.4523(4)
H9 H 0.0593 0.6928 0.4475
H10 H 0.1360 0.6793 0.4094
C12 C 0.1366(5) 0.5795(6) 0.4805(4)
H11 H 0.1241 0.5799 0.5243
H12 H 0.1973 0.5641 0.4831
C13 C 0.0833(5) 0.4997(6) 0.4422(4)
H13 H 0.0236 0.5207 0.4316
H14 H 0.0849 0.4418 0.4687
C14 C 0.0492(4) 0.3810(5) 0.3330(3)
C15 C -0.0373(5) 0.4033(6) 0.3181(4)
H15 H -0.0566 0.4637 0.3294
C16 C -0.0969(5) 0.3358(8) 0.2858(4)
H16 H -0.1552 0.3519 0.2772
C17 C -0.0714(5) 0.2494(8) 0.2675(4)
H17 H -0.1115 0.2076 0.2442
C18 C 0.0167(5) 0.2205(6) 0.2833(3)
C19 C 0.0453(6) 0.1295(7) 0.2672(4)
H18 H 0.0065 0.0854 0.2449
C20 C 0.1299(7) 0.1050(6) 0.2840(5)
H19 H 0.1501 0.0446 0.2735
C21 C 0.1859(5) 0.1743(6) 0.3180(4)
H20 H 0.2437 0.1572 0.3298
C22 C 0.0774(4) 0.2871(5) 0.3169(3)
C23 C 0.3499(6) 1.3179(6) 0.2689(4)
H21 H 0.2918 1.3130 0.2507
C24 C 0.4105(7) 1.3093(6) 0.2282(4)
H22 H 0.3930 1.2994 0.1841
C25 C 0.4946(7) 1.3153(6) 0.2534(4)
H23 H 0.5361 1.3099 0.2268
C26 C 0.5197(5) 1.3302(5) 0.3210(4)
C27 C 0.6061(5) 1.3396(6) 0.3509(5)
H24 H 0.6495 1.3336 0.3261
C28 C 0.6275(6) 1.3573(8) 0.4145(6)
H25 H 0.6851 1.3651 0.4332
C29 C 0.5623(6) 1.3638(6) 0.4526(5)
H26 H 0.5779 1.3751 0.4968
C30 C 0.4767(5) 1.3541(5) 0.4269(4)
C31 C 0.4539(4) 1.3383(5) 0.3589(3)
C32 C 0.4025(6) 1.2558(6) 0.5238(4)
H27 H 0.4623 1.2421 0.5418
H28 H 0.3714 1.2638 0.5597
C33 C 0.3664(7) 1.1726(7) 0.4849(5)
H29 H 0.4046 1.1564 0.4546
H30 H 0.3112 1.1914 0.4598
C34 C 0.3529(8) 1.0800(8) 0.5248(6)
H31 H 0.3088 1.0939 0.5508
H32 H 0.3312 1.0284 0.4949
C35 C 0.4284(7) 1.0451(7) 0.5669(5)
H33 H 0.4422 1.0889 0.6034
H34 H 0.4768 1.0449 0.5437
C36 C 0.3072(6) 0.9016(6) 0.7795(5)
H35 H 0.2476 0.8946 0.7747
C37 C 0.4395(6) 0.9151(6) 0.8499(4)
H36 H 0.4716 0.9173 0.8914
C38 C 0.4808(5) 0.9228(5) 0.7962(4)
C39 C 0.5700(5) 0.9333(5) 0.8019(4)
H37 H 0.6038 0.9343 0.8428
C40 C 0.6085(5) 0.9422(6) 0.7489(5)
H38 H 0.6679 0.9506 0.7538
C41 C 0.5583(5) 0.9387(6) 0.6862(4)
H39 H 0.5855 0.9439 0.6503
C42 C 0.4699(5) 0.9277(5) 0.6772(3)
C43 C 0.4294(4) 0.9195(5) 0.7327(3)
C44 C 0.3541(7) 0.9044(6) 0.8418(4)
H40 H 0.3263 0.8990 0.8775
S3_2 S 0.39743(14) 0.37054(14) 0.47814(9)
N3_2 N 0.3693(4) 0.3327(4) 0.3316(3)
Ag2_2 Ag 0.26065(4) 1.37112(5) 0.39498(3)
Cl1 Cl 0.19257(13) 0.13557(17) 0.10454(11)
O1 O 0.2200(9) 0.1374(11) 0.0473(5)
O2 O 0.2146(7) 0.0432(7) 0.1325(6)
O3 O 0.2320(5) 0.2080(6) 0.1461(4)
O4 O 0.1032(5) 0.1385(7) 0.0942(5)
Cl2 Cl 0.30260(14) -0.14259(18) 0.36831(13)
O5 O 0.3706(8) -0.1700(9) 0.4084(8)
O6 O 0.3263(9) -0.1451(8) 0.3067(6)
O7 O 0.2786(7) -0.0491(6) 0.3804(6)
O8 O 0.2348(5) -0.2060(8) 0.3642(4)
loop_
_geom_bond_atom_site_label_1
_geom_bond_atom_site_label_2
_geom_bond_site_symmetry_1
_geom_bond_site_symmetry_2
Ag1 S1 1_555 1_555
Ag2 S2 1_555 1_555
S1 C8 1_555 1_555
S2 C13 1_555 1_555
S3 C30 1_555 1_555
S4 Ag1 1_555 1_555
N1 Ag1 1_555 1_555
N2 Ag2 1_555 1_555
N3 C23 1_555 1_555
N4 Ag1 1_555 1_555
C1 N1 1_555 1_555
H1 C1 1_555 1_555
C2 C1 1_555 1_555
H2 C2 1_555 1_555
C3 C2 1_555 1_555
H3 C3 1_555 1_555
C4 C3 1_555 1_555
C5 C4 1_555 1_555
H4 C5 1_555 1_555
C6 C5 1_555 1_555
H5 C6 1_555 1_555
C7 C6 1_555 1_555
H6 C7 1_555 1_555
C8 C7 1_555 1_555
C9 N1 1_555 1_555
C10 S1 1_555 1_555
H7 C10 1_555 1_555
H8 C10 1_555 1_555
C11 C10 1_555 1_555
H9 C11 1_555 1_555
H10 C11 1_555 1_555
C12 C11 1_555 1_555
H11 C12 1_555 1_555
H12 C12 1_555 1_555
C13 C12 1_555 1_555
H13 C13 1_555 1_555
H14 C13 1_555 1_555
C14 S2 1_555 1_555
C15 C14 1_555 1_555
H15 C15 1_555 1_555
C16 C15 1_555 1_555
H16 C16 1_555 1_555
C17 C16 1_555 1_555
H17 C17 1_555 1_555
C18 C17 1_555 1_555
C19 C18 1_555 1_555
H18 C19 1_555 1_555
C20 C19 1_555 1_555
H19 C20 1_555 1_555
C21 N2 1_555 1_555
H20 C21 1_555 1_555
C22 N2 1_555 1_555
C23 H21 1_555 1_555
C24 C23 1_555 1_555
H22 C24 1_555 1_555
C25 C24 1_555 1_555
H23 C25 1_555 1_555
C26 C25 1_555 1_555
C27 C26 1_555 1_555
H24 C27 1_555 1_555
C28 C27 1_555 1_555
H25 C28 1_555 1_555
C29 C28 1_555 1_555
H26 C29 1_555 1_555
C30 C29 1_555 1_555
C31 N3 1_555 1_555
C32 S3 1_555 1_555
H27 C32 1_555 1_555
H28 C32 1_555 1_555
C33 C32 1_555 1_555
H29 C33 1_555 1_555
H30 C33 1_555 1_555
C34 C33 1_555 1_555
H31 C34 1_555 1_555
H32 C34 1_555 1_555
C35 S4 1_555 1_555
H33 C35 1_555 1_555
H34 C35 1_555 1_555
C36 N4 1_555 1_555
H35 C36 1_555 1_555
C37 H36 1_555 1_555
C38 C37 1_555 1_555
C39 C38 1_555 1_555
H37 C39 1_555 1_555
C40 C39 1_555 1_555
H38 C40 1_555 1_555
C41 C40 1_555 1_555
H39 C41 1_555 1_555
C42 S4 1_555 1_555
C43 N4 1_555 1_555
C44 C36 1_555 1_555
H40 C44 1_555 1_555
Cl1 O1 1_555 1_555
O2 Cl1 1_555 1_555
O3 Cl1 1_555 1_555
O4 Cl1 1_555 1_555
Cl2 O5 1_555 1_555
O6 Cl2 1_555 1_555
O7 Cl2 1_555 1_555
O8 Cl2 1_555 1_555
S3_2 Ag2 1_555 1_555
N3_2 Ag2 1_555 1_555
Ag2_2 S3 1_555 1_555
N3 Ag2_2 1_555 1_555
C4 C9 1_555 1_555
C8 C9 1_555 1_555
C14 C22 1_555 1_555
C18 C22 1_555 1_555
C20 C21 1_555 1_555
C26 C31 1_555 1_555
C30 C31 1_555 1_555
C34 C35 1_555 1_555
C37 C44 1_555 1_555
C38 C43 1_555 1_555
C41 C42 1_555 1_555
C42 C43 1_555 1_555

#END
