
#######################################################################
#
#                 Cambridge Crystallographic Data Centre
#                                CCDC 
#
#######################################################################
#
# If this CIF has been generated from an entry in the Cambridge 
# Structural Database, then it will include bibliographic, chemical, 
# crystal, experimental, refinement or atomic coordinate data resulting 
# from the CCDC's data processing and validation procedures.
#
#######################################################################

data_UHUXAW01
_symmetry_cell_setting           monoclinic
_symmetry_space_group_name_H-M   'P n'
_symmetry_Int_Tables_number      7
_space_group_name_Hall           'P -2yac'
loop_
_symmetry_equiv_pos_site_id
_symmetry_equiv_pos_as_xyz
1 x,y,z
2 1/2+x,-y,1/2+z
_cell_length_a                   8.399(2)
_cell_length_b                   9.978(2)
_cell_length_c                   10.011(2)
_cell_angle_alpha                90
_cell_angle_beta                 104.43(3)
_cell_angle_gamma                90
_cell_volume                     812.507
loop_
_atom_site_label
_atom_site_type_symbol
_atom_site_fract_x
_atom_site_fract_y
_atom_site_fract_z
Co1 Co 0.24507(4) 0.60016(3) 0.14083(3)
C1 C 0.0776(5) 0.8436(3) -0.0125(4)
H1 H 0.1162 0.9031 0.0641
N1 N -0.0133(4) 0.8799(3) -0.1363(3)
H2 H -0.0528 0.9550 -0.1597
N2 N 0.4634(3) 0.5711(3) 0.0988(3)
N3 N 0.1067(3) 0.7130(2) -0.0091(3)
C2 C 0.6079(5) 0.6356(4) 0.1571(4)
H3 H 0.6232 0.7033 0.2273
C3 C 0.0327(5) 0.6663(3) -0.1391(4)
H4 H 0.0333 0.5747 -0.1683
C4 C -0.0426(5) 0.7691(4) -0.2180(4)
H5 H -0.1020 0.7645 -0.3132
C5 C 0.4961(4) 0.4869(4) 0.0066(4)
H6 H 0.4175 0.4278 -0.0504
C6 C 0.7269(5) 0.5891(4) 0.0998(4)
H7 H 0.8492 0.6326 0.1111
N4 N 0.6540(4) 0.4956(3) 0.0049(3)
H8 H 0.7077 0.4449 -0.0527
O1 O 0.1394(4) 0.3485(3) -0.0111(3)
O2 O 0.1128(3) 0.4508(2) 0.1788(3)
C7 C -0.0266(4) 0.2455(3) 0.1205(3)
C8 C -0.0187(4) 0.2112(3) 0.2572(3)
H9 H 0.0514 0.2613 0.3306
C9 C 0.0829(4) 0.3551(3) 0.0910(3)
C10 C -0.2148(5) 0.0355(3) 0.1815(4)
H10 H -0.2813 -0.0360 0.2022
C11 C -0.1113(6) 0.1052(4) 0.2877(4)
H11 H -0.1023 0.0799 0.3818
O3 O -0.1303(4) 0.1318(3) -0.2211(3)
C12 C -0.1320(4) 0.1748(3) 0.0142(3)
C13 C -0.2263(5) 0.0691(3) 0.0464(4)
H12 H -0.2975 0.0188 -0.0262
C14 C -0.1580(3) 0.2124(3) -0.1362(3)
O4 O -0.2165(3) 0.3293(2) -0.1689(2)
Co1A Co -0.25493(4) 0.39984(3) -0.35917(3)
O4A O 0.2835(3) 0.6707(2) 0.3311(2)
loop_
_geom_bond_atom_site_label_1
_geom_bond_atom_site_label_2
_geom_bond_site_symmetry_1
_geom_bond_site_symmetry_2
Co1 N2 1_555 1_555
C1 H1 1_555 1_555
N1 C1 1_555 1_555
H2 N1 1_555 1_555
N2 C2 1_555 1_555
N3 Co1 1_555 1_555
C2 H3 1_555 1_555
C3 N3 1_555 1_555
H4 C3 1_555 1_555
C4 N1 1_555 1_555
H5 C4 1_555 1_555
C5 N2 1_555 1_555
H6 C5 1_555 1_555
C6 C2 1_555 1_555
H7 C6 1_555 1_555
N4 C5 1_555 1_555
H8 N4 1_555 1_555
O1 C9 1_555 1_555
O2 Co1 1_555 1_555
C7 C8 1_555 1_555
C8 H9 1_555 1_555
C9 O2 1_555 1_555
C10 H10 1_555 1_555
C11 C8 1_555 1_555
H11 C11 1_555 1_555
O3 C14 1_555 1_555
C12 C7 1_555 1_555
C13 C10 1_555 1_555
H12 C13 1_555 1_555
C14 C12 1_555 1_555
O4 C14 1_555 1_555
Co1A O4 1_555 1_555
O4A Co1 1_555 1_555
C1 N3 1_555 1_555
C3 C4 1_555 1_555
C6 N4 1_555 1_555
C7 C9 1_555 1_555
C10 C11 1_555 1_555
C12 C13 1_555 1_555

#END
