
#######################################################################
#
#                 Cambridge Crystallographic Data Centre
#                                CCDC 
#
#######################################################################
#
# If this CIF has been generated from an entry in the Cambridge 
# Structural Database, then it will include bibliographic, chemical, 
# crystal, experimental, refinement or atomic coordinate data resulting 
# from the CCDC's data processing and validation procedures.
#
#######################################################################

data_UHUXIG
_symmetry_cell_setting           triclinic
_symmetry_space_group_name_H-M   'P -1'
_symmetry_Int_Tables_number      2
_space_group_name_Hall           '-P 1'
loop_
_symmetry_equiv_pos_site_id
_symmetry_equiv_pos_as_xyz
1 x,y,z
2 -x,-y,-z
_cell_length_a                   8.9066(4)
_cell_length_b                   10.1124(4)
_cell_length_c                   14.6819(6)
_cell_angle_alpha                106.303(2)
_cell_angle_beta                 90.280(3)
_cell_angle_gamma                107.690(2)
_cell_volume                     1203.28
loop_
_atom_site_label
_atom_site_type_symbol
_atom_site_fract_x
_atom_site_fract_y
_atom_site_fract_z
Cd1 Cd -0.81045(3) -0.37914(2) -0.926596(16)
Cd2 Cd -0.09862(3) 0.81003(3) 0.013824(17)
O1 O 0.1495(4) 0.9682(3) -0.0388(2)
O2 O -0.3536(3) 0.7221(3) 0.0325(2)
H1 H -0.4102 0.7317 0.0948
H2 H -0.3972 0.6907 -0.0085
O3 O 0.1401(3) 0.7670(3) -0.01092(19)
O4 O 0.0142(3) 0.9461(3) 0.16737(18)
H3 H 0.0479 1.0294 0.1743
H4 H 0.0839 0.9129 0.1646
O5 O -0.5608(3) -0.2464(3) -0.8426(2)
O6 O -0.7581(3) -0.1747(3) -0.78739(18)
O7 O -0.1897(4) 0.2622(3) -0.4775(2)
O8 O -0.0878(3) 0.5871(3) -0.92400(17)
O9 O -0.3332(3) 0.4391(3) -0.94350(17)
O10 O -0.2527(3) 0.7151(3) -0.49216(17)
O11 O -0.1733(4) 0.5622(3) -0.1353(2)
O12 O -0.1630(4) 0.7744(3) -0.14570(17)
C1 C 0.2087(5) 0.8710(4) -0.0438(3)
C2 C 0.3537(7) 0.8699(7) -0.0934(5)
H5 H 0.4088 0.9660 -0.0964
H6 H 0.3245 0.8043 -0.1568
H7 H 0.4214 0.8387 -0.0589
C3 C -0.6128(4) -0.1612(4) -0.7812(3)
C4 C -0.5029(4) -0.0479(4) -0.7016(2)
C5 C -0.5576(5) 0.0446(4) -0.6310(3)
H8 H -0.6649 0.0349 -0.6339
C6 C -0.4560(5) 0.1505(4) -0.5567(3)
H9 H -0.4943 0.2118 -0.5099
C7 C -0.2975(5) 0.1644(4) -0.5527(3)
C8 C -0.2392(5) 0.0731(5) -0.6211(3)
H10 H -0.1319 0.0827 -0.6173
C9 C -0.3419(5) -0.0327(4) -0.6951(3)
H11 H -0.3033 -0.0947 -0.7413
C10 C -0.2191(4) 0.5359(4) -0.8898(2)
C11 C -0.2340(4) 0.5907(4) -0.7857(2)
C12 C -0.3727(5) 0.5337(5) -0.7482(3)
H12 H -0.4602 0.4671 -0.7886
C13 C -0.3815(5) 0.5760(5) -0.6502(3)
H13 H -0.4748 0.5387 -0.6247
C14 C -0.2506(5) 0.6733(4) -0.5918(2)
C15 C -0.1145(5) 0.7362(4) -0.6276(3)
H14 H -0.0293 0.8063 -0.5870
C16 C -0.1058(4) 0.6938(4) -0.7251(3)
H15 H -0.0135 0.7347 -0.7501
C17 C -0.2060(4) 0.3983(4) -0.4343(3)
C18 C -0.1921(4) 0.4466(4) -0.3369(3)
H16 H -0.1807 0.3867 -0.3013
C19 C -0.1954(4) 0.5861(3) -0.2918(2)
C20 C -0.2159(4) 0.6731(4) -0.3460(2)
H17 H -0.2195 0.7662 -0.3162
C21 C -0.2309(4) 0.6212(4) -0.4439(2)
C22 C -0.2244(5) 0.4845(4) -0.4898(3)
H18 H -0.2321 0.4507 -0.5560
C23 C -0.1762(4) 0.6436(4) -0.1851(2)
Cd1_2 Cd 0.18955(3) 0.62086(2) -0.926596(16)
Cd1_3 Cd 0.18955(3) 0.62086(2) 0.073404(16)
Cd1A Cd -0.18955(3) 0.37914(2) -1.073404(16)
Cd1A_2 Cd -0.18955(3) 0.37914(2) -0.073404(16)
Cd2_2 Cd -0.09862(3) 0.81003(3) -0.986176(17)
Cd2A Cd 0.09862(3) 1.18997(3) -0.013824(17)
O1A O -0.1495(4) 1.0318(3) 0.0388(2)
O3_2 O -0.8599(3) -0.2330(3) -1.01092(19)
O8_2 O -1.0878(3) -0.4129(3) -0.92400(17)
O8_3 O -0.0878(3) 0.5871(3) 0.07600(17)
O8A O -0.9122(3) -0.5871(3) -1.07600(17)
O9A O -0.6668(3) -0.4391(3) -1.05650(17)
O11A O -0.8267(4) -0.5622(3) -0.8647(2)
loop_
_geom_bond_atom_site_label_1
_geom_bond_atom_site_label_2
_geom_bond_site_symmetry_1
_geom_bond_site_symmetry_2
Cd1 O5 1_555 1_555
Cd2 O1 1_555 1_555
O1 C1 1_555 1_555
O2 Cd2 1_555 1_555
H1 O2 1_555 1_555
H2 O2 1_555 1_555
O3 Cd2 1_555 1_555
O4 Cd2 1_555 1_555
H3 O4 1_555 1_555
H4 O4 1_555 1_555
O5 C3 1_555 1_555
O6 Cd1 1_555 1_555
O7 C7 1_555 1_555
O8 C10 1_555 1_555
O9 C10 1_555 1_555
O10 C14 1_555 1_555
O11 Cd2 1_555 1_555
O12 Cd2 1_555 1_555
C1 O3 1_555 1_555
C2 C1 1_555 1_555
H5 C2 1_555 1_555
H6 C2 1_555 1_555
H7 C2 1_555 1_555
C3 O6 1_555 1_555
C4 C3 1_555 1_555
C5 C4 1_555 1_555
H8 C5 1_555 1_555
C6 C5 1_555 1_555
H9 C6 1_555 1_555
C7 C6 1_555 1_555
C8 C7 1_555 1_555
H10 C8 1_555 1_555
C9 C4 1_555 1_555
H11 C9 1_555 1_555
C10 C11 1_555 1_555
C11 C12 1_555 1_555
C12 H12 1_555 1_555
C13 C12 1_555 1_555
H13 C13 1_555 1_555
C14 C13 1_555 1_555
C15 C14 1_555 1_555
H14 C15 1_555 1_555
C16 C11 1_555 1_555
H15 C16 1_555 1_555
C17 O7 1_555 1_555
C18 C17 1_555 1_555
H16 C18 1_555 1_555
C19 C18 1_555 1_555
C20 C19 1_555 1_555
H17 C20 1_555 1_555
C21 O10 1_555 1_555
C22 C17 1_555 1_555
H18 C22 1_555 1_555
C23 O11 1_555 1_555
Cd1_2 O8 1_555 1_555
Cd1_3 O3 1_555 1_555
Cd1A O8 1_555 1_555
Cd1A_2 O11 1_555 1_555
Cd2_2 O8 1_555 1_555
Cd2A O1 1_555 1_555
O1A Cd2 1_555 1_555
O3_2 Cd1 1_555 1_555
O8_2 Cd1 1_555 1_555
O8_3 Cd2 1_555 1_555
O8A Cd1 1_555 1_555
O9A Cd1 1_555 1_555
O11A Cd1 1_555 1_555
O9 Cd1A 1_555 1_555
O12 C23 1_555 1_555
C8 C9 1_555 1_555
C15 C16 1_555 1_555
C19 C23 1_555 1_555
C20 C21 1_555 1_555
C21 C22 1_555 1_555
Cd1_3 O8_3 1_555 1_555
Cd1A_2 O8_3 1_555 1_555
Cd2A O1A 1_555 1_555

#END
