
#######################################################################
#
#                 Cambridge Crystallographic Data Centre
#                                CCDC 
#
#######################################################################
#
# If this CIF has been generated from an entry in the Cambridge 
# Structural Database, then it will include bibliographic, chemical, 
# crystal, experimental, refinement or atomic coordinate data resulting 
# from the CCDC's data processing and validation procedures.
#
#######################################################################

data_UHUXAW
_symmetry_cell_setting           monoclinic
_symmetry_space_group_name_H-M   'P n'
_symmetry_Int_Tables_number      7
_space_group_name_Hall           'P -2yac'
loop_
_symmetry_equiv_pos_site_id
_symmetry_equiv_pos_as_xyz
1 x,y,z
2 1/2+x,-y,1/2+z
_cell_length_a                   8.4051(12)
_cell_length_b                   9.9946(14)
_cell_length_c                   9.9955(15)
_cell_angle_alpha                90
_cell_angle_beta                 104.479(2)
_cell_angle_gamma                90
_cell_volume                     813.009
loop_
_atom_site_label
_atom_site_type_symbol
_atom_site_fract_x
_atom_site_fract_y
_atom_site_fract_z
Co1 Co 0.41673(9) 0.89960(8) 0.89849(9)
C1 C 0.3180(9) 0.7118(7) 0.6725(8)
C2 C 0.2687(13) 0.6056(9) 0.2498(11)
H1 H 0.2605 0.5821 0.1583
O1 O 0.3775(7) 0.8296(5) 0.7056(6)
C3 C 0.1862(10) 0.7456(7) 0.4158(8)
N1 N 0.1971(9) 0.9293(6) 0.9392(7)
C4 C 0.2906(10) 0.6744(6) 0.5231(8)
N2 N -0.0659(15) 0.9128(10) 0.9394(11)
H2 H -0.1669 0.8877 0.9218
C5 C 0.0518(11) 0.8664(10) 0.8791(10)
H3 H 0.0363 0.8028 0.8091
C6 C 0.1612(13) 1.0128(9) 1.0309(9)
H4 H 0.2368 1.0693 1.0877
C7 C 0.3835(13) 0.5691(8) 0.4893(10)
H5 H 0.4545 0.5217 0.5596
C8 C 0.3716(13) 0.5352(9) 0.3550(11)
H6 H 0.4331 0.4643 0.3345
C9 C 0.0067(9) 1.0053(8) 1.0312(8)
H7 H -0.0447 1.0559 1.0863
C10 C 0.0760(10) 0.8569(7) 0.4463(9)
C11 C 0.1785(12) 0.7099(9) 0.2799(10)
H8 H 0.1108 0.7579 0.2081
N3 N 0.6724(10) 0.6201(6) 1.1730(8)
H9 H 0.7061 0.5403 1.1969
N4 N 0.5545(8) 0.7871(6) 1.0457(7)
O2 O 0.0211(9) 0.8493(7) 0.5476(7)
C12 C 0.7032(13) 0.7298(9) 1.2563(10)
H10 H 0.7632 0.7332 1.3480
C13 C 0.6280(13) 0.8328(8) 1.1773(10)
H11 H 0.6261 0.9208 1.2070
C14 C 0.5829(12) 0.6553(10) 1.0501(10)
H12 H 0.5448 0.5967 0.9767
O3 O 0.2914(10) 0.6323(7) 0.7583(7)
O4 O 0.0477(7) 0.9515(5) 0.3588(6)
O4A O 0.5477(7) 1.0485(5) 0.8588(6)
Co1A Co -0.08327(9) 1.10040(8) 0.39849(9)
loop_
_geom_bond_atom_site_label_1
_geom_bond_atom_site_label_2
_geom_bond_site_symmetry_1
_geom_bond_site_symmetry_2
Co1 O1 1_555 1_555
C1 O1 1_555 1_555
C2 H1 1_555 1_555
C3 C4 1_555 1_555
N1 Co1 1_555 1_555
C4 C1 1_555 1_555
N2 H2 1_555 1_555
C5 N1 1_555 1_555
H3 C5 1_555 1_555
C6 N1 1_555 1_555
H4 C6 1_555 1_555
C7 C4 1_555 1_555
H5 C7 1_555 1_555
C8 C2 1_555 1_555
H6 C8 1_555 1_555
C9 N2 1_555 1_555
H7 C9 1_555 1_555
C10 C3 1_555 1_555
C11 C2 1_555 1_555
H8 C11 1_555 1_555
N3 H9 1_555 1_555
N4 Co1 1_555 1_555
O2 C10 1_555 1_555
C12 N3 1_555 1_555
H10 C12 1_555 1_555
C13 N4 1_555 1_555
H11 C13 1_555 1_555
C14 N3 1_555 1_555
H12 C14 1_555 1_555
O3 C1 1_555 1_555
O4 C10 1_555 1_555
O4A Co1 1_555 1_555
Co1A O4 1_555 1_555
C3 C11 1_555 1_555
N2 C5 1_555 1_555
C6 C9 1_555 1_555
C7 C8 1_555 1_555
N4 C14 1_555 1_555
C12 C13 1_555 1_555

#END
