
#######################################################################
#
#                 Cambridge Crystallographic Data Centre
#                                CCDC 
#
#######################################################################
#
# If this CIF has been generated from an entry in the Cambridge 
# Structural Database, then it will include bibliographic, chemical, 
# crystal, experimental, refinement or atomic coordinate data resulting 
# from the CCDC's data processing and validation procedures.
#
#######################################################################

data_UJABAK
_symmetry_cell_setting           monoclinic
_symmetry_space_group_name_H-M   'P 21'
_symmetry_Int_Tables_number      4
_space_group_name_Hall           'P 2yb'
loop_
_symmetry_equiv_pos_site_id
_symmetry_equiv_pos_as_xyz
1 x,y,z
2 -x,1/2+y,-z
_cell_length_a                   4.2062(3)
_cell_length_b                   29.6215(19)
_cell_length_c                   17.2646(10)
_cell_angle_alpha                90
_cell_angle_beta                 91.269(3)
_cell_angle_gamma                90
_cell_volume                     2150.54
loop_
_atom_site_label
_atom_site_type_symbol
_atom_site_fract_x
_atom_site_fract_y
_atom_site_fract_z
C1 C 0.867(3) 0.8010(3) 0.2588(4)
H1 H 0.8080 0.8274 0.2839
C2 C 0.864(2) 0.9742(2) 0.8212(5)
H2 H 0.9140 0.9990 0.8521
C3 C 0.139(2) 0.6796(2) 0.6048(3)
C4 C 0.3142(19) 0.7561(3) 0.6489(3)
H3 H 0.2485 0.7492 0.6986
C5 C 0.271(2) 0.7246(3) 0.5879(4)
C6 C 0.727(2) 0.9460(3) 0.7048(5)
H4 H 0.6773 0.9500 0.6525
C7 C 0.458(2) 0.7977(3) 0.6332(4)
C8 C 0.478(2) 0.8298(3) 0.6942(4)
C9 C 0.1152(19) 0.6137(3) 0.7850(5)
H5 H 0.2301 0.6356 0.8123
C10 C 0.0820(18) 0.6200(2) 0.7079(4)
C11 C 0.821(3) 0.7606(4) 0.2946(5)
C12 C 0.844(3) 0.9344(3) 0.8561(4)
H6 H 0.8922 0.9314 0.9087
C13 C 0.751(3) 0.8979(3) 0.8130(5)
H7 H 0.7220 0.8697 0.8353
C14 C 0.498(3) 0.7724(4) 0.4967(4)
C15 C 0.904(3) 0.7208(3) 0.2571(5)
H8 H 0.8684 0.6926 0.2790
C16 C -0.188(2) 0.5506(4) 0.7041(4)
H9 H -0.2936 0.5281 0.6764
C17 C 0.543(2) 0.8071(3) 0.5555(5)
H10 H 0.6257 0.8351 0.5425
C18 C 0.366(3) 0.7320(3) 0.5163(4)
H11 H 0.3431 0.7095 0.4791
C19 C 1.077(3) 0.7657(3) 0.1526(4)
H12 H 1.1599 0.7670 0.1031
C20 C -0.078(3) 0.5855(3) 0.6666(5)
H13 H -0.1064 0.5876 0.6131
C21 C 0.618(3) 0.7880(4) 0.4240(5)
C22 C 0.7032(19) 0.9049(3) 0.7349(5)
C23 C -0.150(3) 0.5461(3) 0.7845(5)
H14 H -0.2268 0.5206 0.8095
C24 C 1.039(3) 0.7253(3) 0.1877(5)
H15 H 1.1092 0.6995 0.1627
Hg1 Hg 0.01840(8) 0.576034(13) 0.965823(18)
Hg2 Hg 0.88608(9) 1.053967(12) 0.68870(2)
Hg3 Hg 1.02913(9) 0.876023(13) 0.127318(18)
I1 I 1.31080(14) 1.09235(2) 0.78474(3)
I2 I 0.69335(13) 0.92785(2) 0.21835(3)
I3 I -0.36354(13) 0.50673(2) 0.98599(3)
I4 I 1.38902(12) 0.85665(2) 0.00866(3)
I5 I 0.35448(14) 0.64865(2) 1.00012(4)
I6 I 0.63396(17) 1.04515(3) 0.54862(4)
N1 N 0.001(2) 0.5796(2) 0.8262(3)
N2 N 0.8199(18) 0.9817(2) 0.7458(4)
N3 N 0.9951(18) 0.8038(3) 0.1887(3)
N4 N 0.699(2) 0.7551(2) 0.3693(3)
H16 H 0.6688 0.7276 0.3834
N5 N 0.1980(16) 0.6598(2) 0.6756(3)
H17 H 0.3290 0.6745 0.7051
N6 N 0.6282(18) 0.8684(3) 0.6816(3)
H18 H 0.6901 0.8724 0.6349
O1 O 0.0063(19) 0.65455(18) 0.5541(3)
O2 O 0.395(2) 0.81963(19) 0.7629(3)
O3 O 0.646(3) 0.8275(2) 0.4033(3)
Hg1_2 Hg -0.98160(8) 0.576034(13) 0.965823(18)
Hg2_2 Hg 1.88608(9) 1.053967(12) 0.68870(2)
Hg3_2 Hg 0.02913(9) 0.876023(13) 0.127318(18)
Hg3_3 Hg 2.02913(9) 0.876023(13) 0.127318(18)
I1_2 I 0.31080(14) 1.09235(2) 0.78474(3)
I2_2 I 1.69335(13) 0.92785(2) 0.21835(3)
I3_2 I 0.63646(13) 0.50673(2) 0.98599(3)
I4_2 I 0.38902(12) 0.85665(2) 0.00866(3)
C25 C 0.759(3) 0.7291(3) 0.8374(5)
C26 C 0.927(3) 0.7593(4) 0.8896(5)
H19 H 1.1509 0.7536 0.8876
H20 H 0.8557 0.7546 0.9414
H21 H 0.8844 0.7900 0.8745
N7 N 0.645(2) 0.7057(3) 0.7928(4)
C27 C 0.886(3) 0.4167(4) 0.5094(5)
C28 C 0.736(3) 0.4256(6) 0.5800(6)
H22 H 0.6222 0.3992 0.5960
H23 H 0.5906 0.4503 0.5732
H24 H 0.8938 0.4332 0.6189
N8 N 0.986(3) 0.4013(3) 0.4548(6)
O4 O 0.251(2) 0.1590(3) 0.5939(3)
loop_
_geom_bond_atom_site_label_1
_geom_bond_atom_site_label_2
_geom_bond_site_symmetry_1
_geom_bond_site_symmetry_2
C1 H1 1_555 1_555
C2 H2 1_555 1_555
C3 C5 1_555 1_555
C4 H3 1_555 1_555
C5 C4 1_555 1_555
C6 H4 1_555 1_555
C7 C4 1_555 1_555
C8 C7 1_555 1_555
C9 H5 1_555 1_555
C10 C9 1_555 1_555
C11 C1 1_555 1_555
C12 C2 1_555 1_555
H6 C12 1_555 1_555
C13 C12 1_555 1_555
H7 C13 1_555 1_555
C14 C17 1_555 1_555
C15 C11 1_555 1_555
H8 C15 1_555 1_555
C16 H9 1_555 1_555
C17 C7 1_555 1_555
H10 C17 1_555 1_555
C18 C5 1_555 1_555
H11 C18 1_555 1_555
C19 H12 1_555 1_555
C20 C10 1_555 1_555
H13 C20 1_555 1_555
C21 C14 1_555 1_555
C22 C6 1_555 1_555
C23 C16 1_555 1_555
H14 C23 1_555 1_555
C24 C15 1_555 1_555
H15 C24 1_555 1_555
Hg1 I3 1_555 1_555
Hg2 I1 1_555 1_555
Hg3 I2 1_555 1_555
I1 Hg2_2 1_555 1_555
I2 Hg3_2 1_555 1_555
I3 Hg1_2 1_555 1_555
I4 Hg3 1_555 1_555
I5 Hg1 1_555 1_555
I6 Hg2 1_555 1_555
N1 C9 1_555 1_555
N2 C2 1_555 1_555
N3 C1 1_555 1_555
N4 C11 1_555 1_555
H16 N4 1_555 1_555
N5 C3 1_555 1_555
H17 N5 1_555 1_555
N6 C8 1_555 1_555
H18 N6 1_555 1_555
O1 C3 1_555 1_555
O2 C8 1_555 1_555
O3 C21 1_555 1_555
C25 C26 1_555 1_555
C26 H19 1_555 1_555
H20 C26 1_555 1_555
H21 C26 1_555 1_555
N7 C25 1_555 1_555
C27 C28 1_555 1_555
C28 H22 1_555 1_555
H23 C28 1_555 1_555
H24 C28 1_555 1_555
N8 C27 1_555 1_555
Hg3_2 I4_2 1_555 1_555
Hg3_3 I4 1_555 1_555
I1_2 Hg2 1_555 1_555
I2_2 Hg3 1_555 1_555
I3_2 Hg1 1_555 1_555
I4_2 Hg3 1_555 1_555
C6 N2 1_555 1_555
C10 N5 1_555 1_555
C13 C22 1_555 1_555
C14 C18 1_555 1_555
C16 C20 1_555 1_555
C19 C24 1_555 1_555
C19 N3 1_555 1_555
C21 N4 1_555 1_555
C22 N6 1_555 1_555
C23 N1 1_555 1_555
Hg1 N1 1_555 1_555
Hg2 N2 1_555 1_555
Hg3 N3 1_555 1_555
Hg3_3 I2_2 1_555 1_555

#END
