
#######################################################################
#
#                 Cambridge Crystallographic Data Centre
#                                CCDC 
#
#######################################################################
#
# If this CIF has been generated from an entry in the Cambridge 
# Structural Database, then it will include bibliographic, chemical, 
# crystal, experimental, refinement or atomic coordinate data resulting 
# from the CCDC's data processing and validation procedures.
#
#######################################################################

data_UJACUD
_symmetry_cell_setting           triclinic
_symmetry_space_group_name_H-M   'P -1'
_symmetry_Int_Tables_number      2
_space_group_name_Hall           '-P 1'
loop_
_symmetry_equiv_pos_site_id
_symmetry_equiv_pos_as_xyz
1 x,y,z
2 -x,-y,-z
_cell_length_a                   7.5390(3)
_cell_length_b                   9.7950(4)
_cell_length_c                   10.5164(5)
_cell_angle_alpha                99.8150(16)
_cell_angle_beta                 97.3533(17)
_cell_angle_gamma                100.496(3)
_cell_volume                     742.202
loop_
_atom_site_label
_atom_site_type_symbol
_atom_site_fract_x
_atom_site_fract_y
_atom_site_fract_z
Mn1 Mn 0.20377(6) 0.61308(5) 0.48813(5)
N1 N 0.3191(3) 0.8373(3) 0.6062(3)
N2 N 0.1093(3) 0.7720(2) 0.3639(2)
N3 N 0.0379(4) 0.3947(3) 0.4103(3)
N4 N 0.0921(3) 0.2964(3) 0.3568(3)
N5 N 0.1424(5) 0.2012(3) 0.3054(4)
N6 N 0.3927(4) 0.5842(3) 0.3496(3)
N7 N 0.5096(3) 0.5213(3) 0.3591(2)
N8 N 0.6247(4) 0.4589(4) 0.3629(3)
C1 C 0.4190(5) 0.8721(4) 0.7239(3)
H1 H 0.4520 0.8003 0.7633
C2 C 0.4769(5) 1.0109(4) 0.7915(4)
H2 H 0.5459 1.0308 0.8749
C3 C 0.4322(6) 1.1182(4) 0.7351(4)
H3 H 0.4708 1.2123 0.7782
C4 C 0.3275(5) 1.0826(3) 0.6116(3)
H4 H 0.2939 1.1528 0.5702
C5 C 0.2732(4) 0.9416(3) 0.5503(3)
C6 C 0.1639(4) 0.9008(3) 0.4197(3)
H5 H 0.1337 0.9708 0.3766
C7 C 0.0080(4) 0.7359(3) 0.2332(3)
C8 C 0.0043(5) 0.8305(4) 0.1496(3)
H6 H 0.0688 0.9237 0.1768
C9 C -0.0956(6) 0.7852(5) 0.0257(4)
H7 H -0.0972 0.8487 -0.0307
C10 C -0.1928(6) 0.6490(4) -0.0167(4)
H8 H -0.2607 0.6199 -0.1004
C11 C -0.1876(5) 0.5566(4) 0.0670(3)
C12 C -0.0869(4) 0.5974(3) 0.1914(3)
H9 H -0.0831 0.5326 0.2464
Cl1 Cl -0.30978(16) 0.38354(12) 0.01721(11)
N3A N -0.0379(4) 0.6053(3) 0.5897(3)
N8A N 0.3753(4) 0.5411(4) 0.6371(3)
Mn1A Mn -0.20377(6) 0.38692(5) 0.51187(5)
Mn1A_2 Mn 0.79623(6) 0.38692(5) 0.51187(5)
loop_
_geom_bond_atom_site_label_1
_geom_bond_atom_site_label_2
_geom_bond_site_symmetry_1
_geom_bond_site_symmetry_2
Mn1 N1 1_555 1_555
N1 C1 1_555 1_555
N2 Mn1 1_555 1_555
N3 Mn1 1_555 1_555
N4 N3 1_555 1_555
N5 N4 1_555 1_555
N6 Mn1 1_555 1_555
N7 N6 1_555 1_555
N8 N7 1_555 1_555
C1 H1 1_555 1_555
C2 C1 1_555 1_555
H2 C2 1_555 1_555
C3 C2 1_555 1_555
H3 C3 1_555 1_555
C4 C3 1_555 1_555
H4 C4 1_555 1_555
C5 N1 1_555 1_555
C6 N2 1_555 1_555
H5 C6 1_555 1_555
C7 N2 1_555 1_555
C8 C7 1_555 1_555
H6 C8 1_555 1_555
C9 C8 1_555 1_555
H7 C9 1_555 1_555
C10 C9 1_555 1_555
H8 C10 1_555 1_555
C11 C10 1_555 1_555
C12 C7 1_555 1_555
H9 C12 1_555 1_555
Cl1 C11 1_555 1_555
N3A Mn1 1_555 1_555
N8A Mn1 1_555 1_555
Mn1A N3 1_555 1_555
Mn1A_2 N8 1_555 1_555
C4 C5 1_555 1_555
C5 C6 1_555 1_555
C11 C12 1_555 1_555
N3A Mn1A 1_555 1_555

#END
