
#######################################################################
#
#                 Cambridge Crystallographic Data Centre
#                                CCDC 
#
#######################################################################
#
# If this CIF has been generated from an entry in the Cambridge 
# Structural Database, then it will include bibliographic, chemical, 
# crystal, experimental, refinement or atomic coordinate data resulting 
# from the CCDC's data processing and validation procedures.
#
#######################################################################

data_UJACOX
_symmetry_cell_setting           triclinic
_symmetry_space_group_name_H-M   'P -1'
_symmetry_Int_Tables_number      2
_space_group_name_Hall           '-P 1'
loop_
_symmetry_equiv_pos_site_id
_symmetry_equiv_pos_as_xyz
1 x,y,z
2 -x,-y,-z
_cell_length_a                   8.0054(2)
_cell_length_b                   9.7308(3)
_cell_length_c                   9.9532(3)
_cell_angle_alpha                74.5845(15)
_cell_angle_beta                 76.4177(13)
_cell_angle_gamma                83.2995(15)
_cell_volume                     725.327
loop_
_atom_site_label
_atom_site_type_symbol
_atom_site_fract_x
_atom_site_fract_y
_atom_site_fract_z
Mn1 Mn 0.15435(4) 0.57592(4) 0.54450(4)
N1 N -0.0200(2) 0.6288(2) 0.7402(2)
N2 N 0.1901(2) 0.8194(2) 0.5328(2)
N3 N 0.0385(2) 0.3675(2) 0.5918(2)
N4 N 0.0550(3) 0.2602(2) 0.6810(2)
N5 N 0.0701(5) 0.1575(3) 0.7667(3)
N6 N 0.3495(3) 0.5099(3) 0.6776(2)
N7 N 0.4985(3) 0.4900(2) 0.65411(18)
N8 N 0.6467(3) 0.4694(2) 0.6362(2)
C1 C -0.1271(3) 0.5420(3) 0.8417(3)
H1 H -0.1457 0.4553 0.8266
C2 C -0.2116(3) 0.5746(3) 0.9680(3)
H2 H -0.2855 0.5111 1.0360
C3 C -0.1849(4) 0.7023(3) 0.9917(3)
H3 H -0.2393 0.7262 1.0766
C4 C -0.0766(4) 0.7940(3) 0.8881(3)
H4 H -0.0573 0.8813 0.9016
C5 C 0.0035(3) 0.7554(2) 0.7634(3)
C6 C 0.1162(3) 0.8509(3) 0.6499(3)
H5 H 0.1352 0.9384 0.6632
C7 C 0.2948(3) 0.9199(3) 0.4234(3)
C8 C 0.3091(4) 1.0586(3) 0.4274(3)
H6 H 0.2472 1.0913 0.5055
C9 C 0.4125(5) 1.1489(3) 0.3187(4)
H7 H 0.4192 1.2426 0.3225
C10 C 0.5048(4) 1.1015(3) 0.2059(4)
C11 C 0.4904(5) 0.9666(4) 0.1969(5)
H8 H 0.5522 0.9347 0.1183
C12 C 0.3827(5) 0.8777(3) 0.3061(4)
H9 H 0.3703 0.7863 0.2988
Cl1 Cl 0.63684(12) 1.21442(11) 0.06556(12)
N3A N -0.0385(2) 0.6325(2) 0.4082(2)
N8A N 0.3533(3) 0.5306(2) 0.3638(2)
Mn1A Mn -0.15435(4) 0.42408(4) 0.45550(4)
Mn1A_2 Mn 0.84565(4) 0.42408(4) 0.45550(4)
loop_
_geom_bond_atom_site_label_1
_geom_bond_atom_site_label_2
_geom_bond_site_symmetry_1
_geom_bond_site_symmetry_2
Mn1 N1 1_555 1_555
N1 C1 1_555 1_555
N2 Mn1 1_555 1_555
N3 Mn1 1_555 1_555
N4 N3 1_555 1_555
N5 N4 1_555 1_555
N6 Mn1 1_555 1_555
N7 N6 1_555 1_555
N8 N7 1_555 1_555
C1 H1 1_555 1_555
C2 C1 1_555 1_555
H2 C2 1_555 1_555
C3 C2 1_555 1_555
H3 C3 1_555 1_555
C4 C3 1_555 1_555
H4 C4 1_555 1_555
C5 N1 1_555 1_555
C6 N2 1_555 1_555
H5 C6 1_555 1_555
C7 N2 1_555 1_555
C8 C7 1_555 1_555
H6 C8 1_555 1_555
C9 C8 1_555 1_555
H7 C9 1_555 1_555
C10 C9 1_555 1_555
C11 C10 1_555 1_555
H8 C11 1_555 1_555
C12 C7 1_555 1_555
H9 C12 1_555 1_555
Cl1 C10 1_555 1_555
N3A Mn1 1_555 1_555
N8A Mn1 1_555 1_555
Mn1A N3 1_555 1_555
Mn1A_2 N8 1_555 1_555
C4 C5 1_555 1_555
C5 C6 1_555 1_555
C11 C12 1_555 1_555
N3A Mn1A 1_555 1_555

#END
