
#######################################################################
#
#                 Cambridge Crystallographic Data Centre
#                                CCDC 
#
#######################################################################
#
# If this CIF has been generated from an entry in the Cambridge 
# Structural Database, then it will include bibliographic, chemical, 
# crystal, experimental, refinement or atomic coordinate data resulting 
# from the CCDC's data processing and validation procedures.
#
#######################################################################

data_UJACIR
_symmetry_cell_setting           triclinic
_symmetry_space_group_name_H-M   'P -1'
_symmetry_Int_Tables_number      2
_space_group_name_Hall           '-P 1'
loop_
_symmetry_equiv_pos_site_id
_symmetry_equiv_pos_as_xyz
1 x,y,z
2 -x,-y,-z
_cell_length_a                   7.4692(2)
_cell_length_b                   9.9908(4)
_cell_length_c                   10.3615(4)
_cell_angle_alpha                97.598(2)
_cell_angle_beta                 99.091(2)
_cell_angle_gamma                101.330(2)
_cell_volume                     737.897
loop_
_atom_site_label
_atom_site_type_symbol
_atom_site_fract_x
_atom_site_fract_y
_atom_site_fract_z
Mn1 Mn 0.20721(5) 0.61462(4) 0.49104(4)
N1 N 0.3273(3) 0.8304(2) 0.6123(2)
N2 N 0.1089(3) 0.77449(19) 0.36589(19)
N3 N 0.4012(3) 0.5994(2) 0.3557(2)
N4 N 0.5092(3) 0.5290(2) 0.35746(18)
N5 N 0.6153(3) 0.4579(3) 0.3541(2)
C1 C 0.4345(4) 0.8614(3) 0.7327(3)
H1 H 0.4718 0.7901 0.7713
C2 C 0.4926(4) 0.9949(3) 0.8025(3)
H2 H 0.5654 1.0122 0.8870
C3 C 0.4420(5) 1.1014(3) 0.7458(3)
H3 H 0.4809 1.1921 0.7909
C4 C 0.3322(4) 1.0720(3) 0.6208(3)
H4 H 0.2958 1.1425 0.5801
C5 C 0.2773(3) 0.9354(2) 0.5570(3)
C6 C 0.1625(4) 0.8997(2) 0.4250(3)
H5 H 0.1274 0.9697 0.3828
C7 C 0.0057(3) 0.7439(2) 0.2331(2)
C8 C -0.0011(4) 0.8409(3) 0.1496(3)
H6 H 0.0605 0.9328 0.1797
C9 C -0.0999(5) 0.8000(3) 0.0214(3)
H7 H -0.1052 0.8651 -0.0347
C10 C -0.1910(4) 0.6639(3) -0.0244(3)
H8 H -0.2557 0.6380 -0.1114
C11 C -0.1872(4) 0.5659(3) 0.0574(3)
C12 C -0.0858(3) 0.6072(2) 0.1861(2)
H9 H -0.0793 0.5418 0.2417
C13 C -0.2865(4) 0.4159(3) 0.0097(3)
H10 H -0.3491 0.4047 -0.0807
H11 H -0.3759 0.3896 0.0641
H12 H -0.1977 0.3583 0.0154
N6 N 0.0415(3) 0.3993(2) 0.4127(2)
N7 N 0.0940(3) 0.3010(2) 0.3665(2)
N8 N 0.1421(4) 0.2059(2) 0.3227(3)
N5A N 0.3847(3) 0.5421(3) 0.6459(2)
N6A N -0.0415(3) 0.6007(2) 0.5873(2)
Mn1A Mn 0.79279(5) 0.38538(4) 0.50896(4)
Mn1A_2 Mn -0.20721(5) 0.38538(4) 0.50896(4)
loop_
_geom_bond_atom_site_label_1
_geom_bond_atom_site_label_2
_geom_bond_site_symmetry_1
_geom_bond_site_symmetry_2
Mn1 N1 1_555 1_555
N1 C1 1_555 1_555
N2 Mn1 1_555 1_555
N3 Mn1 1_555 1_555
N4 N3 1_555 1_555
N5 N4 1_555 1_555
C1 H1 1_555 1_555
C2 C1 1_555 1_555
H2 C2 1_555 1_555
C3 C2 1_555 1_555
H3 C3 1_555 1_555
C4 C3 1_555 1_555
H4 C4 1_555 1_555
C5 N1 1_555 1_555
C6 N2 1_555 1_555
H5 C6 1_555 1_555
C7 N2 1_555 1_555
C8 C7 1_555 1_555
H6 C8 1_555 1_555
C9 C8 1_555 1_555
H7 C9 1_555 1_555
C10 C9 1_555 1_555
H8 C10 1_555 1_555
C11 C10 1_555 1_555
C12 C7 1_555 1_555
H9 C12 1_555 1_555
C13 C11 1_555 1_555
H10 C13 1_555 1_555
H11 C13 1_555 1_555
H12 C13 1_555 1_555
N6 Mn1 1_555 1_555
N7 N6 1_555 1_555
N8 N7 1_555 1_555
N5A Mn1 1_555 1_555
N6A Mn1 1_555 1_555
Mn1A N5 1_555 1_555
Mn1A_2 N6 1_555 1_555
C4 C5 1_555 1_555
C5 C6 1_555 1_555
C11 C12 1_555 1_555
N6A Mn1A_2 1_555 1_555

#END
