
#######################################################################
#
#                 Cambridge Crystallographic Data Centre
#                                CCDC 
#
#######################################################################
#
# If this CIF has been generated from an entry in the Cambridge 
# Structural Database, then it will include bibliographic, chemical, 
# crystal, experimental, refinement or atomic coordinate data resulting 
# from the CCDC's data processing and validation procedures.
#
#######################################################################

data_UJACAJ
_symmetry_cell_setting           monoclinic
_symmetry_space_group_name_H-M   'P 21/c'
_symmetry_Int_Tables_number      14
_space_group_name_Hall           '-P 2ybc'
loop_
_symmetry_equiv_pos_site_id
_symmetry_equiv_pos_as_xyz
1 x,y,z
2 -x,1/2+y,1/2-z
3 -x,-y,-z
4 x,1/2-y,1/2+z
_cell_length_a                   7.6732(2)
_cell_length_b                   10.1040(3)
_cell_length_c                   17.9135(7)
_cell_angle_alpha                90
_cell_angle_beta                 98.4536(11)
_cell_angle_gamma                90
_cell_volume                     1373.74
loop_
_atom_site_label
_atom_site_type_symbol
_atom_site_fract_x
_atom_site_fract_y
_atom_site_fract_z
Mn1 Mn 0.32851(5) 0.89935(4) 0.01229(2)
N1 N 0.4831(3) 0.7863(2) 0.10999(13)
N2 N 0.2853(3) 0.6744(2) -0.01409(13)
N3 N 0.4474(3) 1.0912(2) 0.05411(13)
N4 N 0.3588(3) 1.1864(2) 0.06340(13)
N5 N 0.2768(4) 1.2772(3) 0.07380(19)
N6 N 0.1231(4) 0.9047(3) 0.08783(16)
N7 N -0.0122(3) 0.9596(2) 0.08152(12)
N8 N -0.1478(3) 1.0124(3) 0.07887(14)
C1 C 0.5785(4) 0.8376(3) 0.17048(17)
H1 H 0.6069 0.9271 0.1700
C2 C 0.6386(4) 0.7642(3) 0.23497(18)
H2 H 0.7052 0.8040 0.2765
C3 C 0.5974(4) 0.6319(3) 0.23593(18)
H3 H 0.6340 0.5805 0.2784
C4 C 0.5006(4) 0.5767(3) 0.17241(17)
H4 H 0.4721 0.4872 0.1712
C5 C 0.4465(3) 0.6568(3) 0.11066(16)
C6 C 0.3462(4) 0.6010(3) 0.04129(16)
H5 H 0.3271 0.5102 0.0380
C7 C 0.1935(4) 0.6150(3) -0.08045(16)
C8 C 0.1095(4) 0.4925(3) -0.08106(17)
H6 H 0.1121 0.4450 -0.0365
C9 C 0.0226(4) 0.4421(4) -0.1477(2)
H7 H -0.0344 0.3609 -0.1478
C10 C 0.0196(5) 0.5102(4) -0.2134(2)
H8 H -0.0401 0.4755 -0.2581
C11 C 0.1047(6) 0.6301(4) -0.2141(2)
H9 H 0.1058 0.6749 -0.2594
C12 C 0.1880(5) 0.6838(3) -0.14782(18)
H10 H 0.2409 0.7666 -0.1481
N3B N 0.5526(3) 0.9088(2) -0.05411(13)
N8B N 0.1478(3) 0.9876(3) -0.07887(14)
Mn1B Mn 0.67149(5) 1.10065(4) -0.01229(2)
Mn1B_2 Mn -0.32851(5) 1.10065(4) -0.01229(2)
loop_
_geom_bond_atom_site_label_1
_geom_bond_atom_site_label_2
_geom_bond_site_symmetry_1
_geom_bond_site_symmetry_2
Mn1 N1 1_555 1_555
N1 C1 1_555 1_555
N2 Mn1 1_555 1_555
N3 Mn1 1_555 1_555
N4 N3 1_555 1_555
N5 N4 1_555 1_555
N6 Mn1 1_555 1_555
N7 N6 1_555 1_555
N8 N7 1_555 1_555
C1 H1 1_555 1_555
C2 C1 1_555 1_555
H2 C2 1_555 1_555
C3 C2 1_555 1_555
H3 C3 1_555 1_555
C4 C3 1_555 1_555
H4 C4 1_555 1_555
C5 N1 1_555 1_555
C6 N2 1_555 1_555
H5 C6 1_555 1_555
C7 N2 1_555 1_555
C8 C7 1_555 1_555
H6 C8 1_555 1_555
C9 C8 1_555 1_555
H7 C9 1_555 1_555
C10 C9 1_555 1_555
H8 C10 1_555 1_555
C11 C10 1_555 1_555
H9 C11 1_555 1_555
C12 C7 1_555 1_555
H10 C12 1_555 1_555
N3B Mn1 1_555 1_555
N8B Mn1 1_555 1_555
Mn1B N3 1_555 1_555
Mn1B_2 N8 1_555 1_555
C4 C5 1_555 1_555
C5 C6 1_555 1_555
C11 C12 1_555 1_555
N3B Mn1B 1_555 1_555

#END
