
#######################################################################
#
#                 Cambridge Crystallographic Data Centre
#                                CCDC 
#
#######################################################################
#
# If this CIF has been generated from an entry in the Cambridge 
# Structural Database, then it will include bibliographic, chemical, 
# crystal, experimental, refinement or atomic coordinate data resulting 
# from the CCDC's data processing and validation procedures.
#
#######################################################################

data_UJAPIE
_symmetry_cell_setting           monoclinic
_symmetry_space_group_name_H-M   'P 21/m'
_symmetry_Int_Tables_number      11
_space_group_name_Hall           '-P 2yb'
loop_
_symmetry_equiv_pos_site_id
_symmetry_equiv_pos_as_xyz
1 x,y,z
2 x,1/2-y,z
3 -x,-y,-z
4 -x,1/2+y,-z
_cell_length_a                   7.5876(11)
_cell_length_b                   21.728(3)
_cell_length_c                   9.1261(12)
_cell_angle_alpha                90
_cell_angle_beta                 92.690(5)
_cell_angle_gamma                90
_cell_volume                     1502.9
loop_
_atom_site_label
_atom_site_type_symbol
_atom_site_fract_x
_atom_site_fract_y
_atom_site_fract_z
Ni1 Ni 0.0141(3) 0.41664(8) 0.9638(2)
Ni2 Ni 0.0538(4) 0.25000 0.8981(3)
Br1 Br -0.1870(2) 0.50396(7) 0.88072(16)
Br2 Br -0.1556(2) 0.33302(7) 0.81060(17)
Br3 Br 0.2144(2) 0.32932(7) 1.04762(18)
O1 O 0.1758(13) 0.4323(5) 0.7859(10)
O2 O -0.1495(13) 0.3983(5) 1.1414(10)
O3 O 0.205(2) 0.25000 0.7233(16)
C1 C 0.108(3) 0.4378(10) 0.6364(17)
H1 H 0.0315 0.4744 0.625
H2 H 0.0388 0.4009 0.6073
C2 C 0.263(3) 0.4439(10) 0.5444(19)
H3 H 0.2548 0.4822 0.4858
H4 H 0.2696 0.4085 0.4765
C3 C 0.423(2) 0.4455(10) 0.6463(17)
H5 H 0.5064 0.4128 0.6201
H6 H 0.4831 0.4858 0.639
C4 C 0.367(3) 0.4362(10) 0.7948(19)
H7 H 0.4182 0.3977 0.8363
H8 H 0.4057 0.471 0.8584
C5 C -0.338(2) 0.3848(10) 1.1316(18)
H9 H -0.362 0.3514 1.0596
H10 H -0.4041 0.4217 1.0971
C6 C -0.399(3) 0.3659(12) 1.276(2)
H11 H -0.4626 0.3262 1.2693
H12 H -0.4773 0.3974 1.3164
C7 C -0.227(3) 0.3599(17) 1.370(3)
H13 H -0.232 0.3856 1.4594
H14 H -0.2076 0.3166 1.4004
C8 C -0.087(3) 0.3801(10) 1.2830(18)
H15 H -0.0254 0.4152 1.3322
H16 H -0.0002 0.3464 1.2744
C9 C 0.140(4) 0.25000 0.575(2)
H17 H 0.067 0.287 0.555
H18 H 0.067 0.213 0.555
C10 C 0.294(4) 0.25000 0.483(3)
H19 H 0.2912 0.287 0.4193
H20 H 0.2912 0.213 0.4193
C11 C 0.456(3) 0.25000 0.581(2)
H21 H 0.5279 0.213 0.5619
H22 H 0.5279 0.287 0.5619
C12 C 0.402(3) 0.25000 0.733(3)
H23 H 0.4478 0.287 0.7858
H24 H 0.4478 0.213 0.7858
Br2A Br -0.1556(2) 0.16698(7) 0.81060(17)
Br3A Br 0.2144(2) 0.17068(7) 1.04762(18)
Ni1A Ni 0.0141(3) 0.08336(8) 0.9638(2)
Br1B Br 0.1870(2) 0.49604(7) 1.11928(16)
O1A O 0.1758(13) 0.0677(5) 0.7859(10)
C1A C 0.108(3) 0.0622(10) 0.6364(17)
H1A H 0.0315 0.0256 0.625
H2A H 0.0388 0.0991 0.6073
C2A C 0.263(3) 0.0561(10) 0.5444(19)
H3A H 0.2548 0.0178 0.4858
H4A H 0.2696 0.0915 0.4765
C3A C 0.423(2) 0.0545(10) 0.6463(17)
H5A H 0.5064 0.0872 0.6201
H6A H 0.4831 0.0142 0.639
C4A C 0.367(3) 0.0638(10) 0.7948(19)
H7A H 0.4182 0.1023 0.8363
H8A H 0.4057 0.029 0.8584
O2A O -0.1495(13) 0.1017(5) 1.1414(10)
C5A C -0.338(2) 0.1152(10) 1.1316(18)
H9A H -0.362 0.1486 1.0596
H10A H -0.4041 0.0783 1.0971
C6A C -0.399(3) 0.1341(12) 1.276(2)
H11A H -0.4626 0.1738 1.2693
H12A H -0.4773 0.1026 1.3164
C7A C -0.227(3) 0.1401(17) 1.370(3)
H13A H -0.232 0.1144 1.4594
H14A H -0.2076 0.1834 1.4004
C8A C -0.087(3) 0.1199(10) 1.2830(18)
H15A H -0.0254 0.0848 1.3322
H16A H -0.0002 0.1536 1.2744
Ni1B Ni -0.0141(3) 0.58336(8) 1.0362(2)
Br1A Br -0.1870(2) -0.00396(7) 0.88072(16)
Br1C Br 0.1870(2) 0.00396(7) 1.11928(16)
loop_
_geom_bond_atom_site_label_1
_geom_bond_atom_site_label_2
_geom_bond_site_symmetry_1
_geom_bond_site_symmetry_2
Ni1 Br1 1_555 1_555
Ni2 Br2 1_555 1_555
Br1 Ni1B 1_555 1_555
Br2 Ni1 1_555 1_555
Br3 Ni1 1_555 1_555
O1 Ni1 1_555 1_555
O2 Ni1 1_555 1_555
O3 Ni2 1_555 1_555
C1 O1 1_555 1_555
H1 C1 1_555 1_555
H2 C1 1_555 1_555
C2 C1 1_555 1_555
H3 C2 1_555 1_555
H4 C2 1_555 1_555
C3 C2 1_555 1_555
H5 C3 1_555 1_555
H6 C3 1_555 1_555
C4 O1 1_555 1_555
H7 C4 1_555 1_555
H8 C4 1_555 1_555
C5 O2 1_555 1_555
H9 C5 1_555 1_555
H10 C5 1_555 1_555
C6 C5 1_555 1_555
H11 C6 1_555 1_555
H12 C6 1_555 1_555
C7 C6 1_555 1_555
H13 C7 1_555 1_555
H14 C7 1_555 1_555
C8 O2 1_555 1_555
H15 C8 1_555 1_555
H16 C8 1_555 1_555
C9 O3 1_555 1_555
H17 C9 1_555 1_555
H18 C9 1_555 1_555
C10 C9 1_555 1_555
H19 C10 1_555 1_555
H20 C10 1_555 1_555
C11 C10 1_555 1_555
H21 C11 1_555 1_555
H22 C11 1_555 1_555
C12 O3 1_555 1_555
H23 C12 1_555 1_555
H24 C12 1_555 1_555
Br2A Ni2 1_555 1_555
Br3A Ni2 1_555 1_555
Ni1A Br2A 1_555 1_555
Br1B Ni1 1_555 1_555
O1A Ni1A 1_555 1_555
C1A O1A 1_555 1_555
H1A C1A 1_555 1_555
H2A C1A 1_555 1_555
C2A C1A 1_555 1_555
H3A C2A 1_555 1_555
H4A C2A 1_555 1_555
C3A C2A 1_555 1_555
H5A C3A 1_555 1_555
H6A C3A 1_555 1_555
C4A O1A 1_555 1_555
H7A C4A 1_555 1_555
H8A C4A 1_555 1_555
O2A Ni1A 1_555 1_555
C5A O2A 1_555 1_555
H9A C5A 1_555 1_555
H10A C5A 1_555 1_555
C6A C5A 1_555 1_555
H11A C6A 1_555 1_555
H12A C6A 1_555 1_555
C7A C6A 1_555 1_555
H13A C7A 1_555 1_555
H14A C7A 1_555 1_555
C8A O2A 1_555 1_555
H15A C8A 1_555 1_555
H16A C8A 1_555 1_555
Ni1B Br1B 1_555 1_555
Br1A Ni1A 1_555 1_555
Br1C Ni1A 1_555 1_555
Ni2 Br3 1_555 1_555
C3 C4 1_555 1_555
C7 C8 1_555 1_555
C11 C12 1_555 1_555
Br3A Ni1A 1_555 1_555
C3A C4A 1_555 1_555
C7A C8A 1_555 1_555

#END
