
#######################################################################
#
#                 Cambridge Crystallographic Data Centre
#                                CCDC 
#
#######################################################################
#
# If this CIF has been generated from an entry in the Cambridge 
# Structural Database, then it will include bibliographic, chemical, 
# crystal, experimental, refinement or atomic coordinate data resulting 
# from the CCDC's data processing and validation procedures.
#
#######################################################################

data_UJAQIG
_symmetry_cell_setting           triclinic
_symmetry_space_group_name_H-M   'P -1'
_symmetry_Int_Tables_number      2
_space_group_name_Hall           '-P 1'
loop_
_symmetry_equiv_pos_site_id
_symmetry_equiv_pos_as_xyz
1 x,y,z
2 -x,-y,-z
_cell_length_a                   8.55940(10)
_cell_length_b                   9.7574(2)
_cell_length_c                   11.5046(2)
_cell_angle_alpha                67.7013(9)
_cell_angle_beta                 81.9196(8)
_cell_angle_gamma                71.4140(11)
_cell_volume                     842.408
loop_
_atom_site_label
_atom_site_type_symbol
_atom_site_fract_x
_atom_site_fract_y
_atom_site_fract_z
Ag1 Ag 0.08382(3) 0.10835(3) 0.91956(2)
Ag2 Ag 0.39436(3) 0.94010(3) 1.09628(2)
O1 O 0.1848(3) 0.3921(3) 0.9834(2)
H1 H 0.1171 0.3323 1.0166
O2 O 0.2649(3) 0.2825(3) 0.8366(2)
C1 C 0.2649(4) 0.3801(4) 0.8795(3)
C2 C 0.3583(4) 0.4955(4) 0.8194(3)
C3 C 0.3605(4) 0.5982(4) 0.8771(3)
H2 H 0.3002 0.5965 0.9533
C4 C 0.4526(4) 0.7029(4) 0.8210(3)
C5 C 0.4566(4) 0.8122(4) 0.8824(3)
O3 O 0.3947(3) 0.7928(3) 0.9918(2)
O4 O 0.5252(3) 0.9179(3) 0.8222(2)
C6 C 0.5419(4) 0.7033(4) 0.7097(3)
H3 H 0.6044 0.7746 0.6714
C7 C 0.5395(4) 0.5994(4) 0.6548(3)
C8 C 0.4470(4) 0.4965(4) 0.7082(3)
H4 H 0.4440 0.4272 0.6693
O5 O 0.6271(3) 0.5891(3) 0.5462(2)
C9 C 0.7516(4) 0.6631(4) 0.5053(3)
H5 H 0.7054 0.7745 0.4924
H6 H 0.8013 0.6531 0.4247
O6 O 0.8739(3) 0.5895(3) 0.6010(2)
C10 C 0.9683(4) 0.6827(4) 0.6007(3)
C11 C 1.0780(4) 0.7234(4) 0.5016(3)
H7 H 1.0891 0.6889 0.4332
C12 C 1.1711(4) 0.8154(4) 0.5046(3)
C13 C 1.2845(4) 0.8616(4) 0.3953(3)
O7 O 1.3727(3) 0.9464(3) 0.4055(2)
H8 H 1.4175 0.9959 0.3324
O8 O 1.2911(3) 0.8251(3) 0.3040(2)
C14 C 1.1528(4) 0.8693(4) 0.6035(3)
H9 H 1.2150 0.9344 0.6033
C15 C 1.0430(4) 0.8274(4) 0.7021(3)
C16 C 1.0233(4) 0.8901(4) 0.8060(3)
O9 O 0.9261(3) 0.8483(3) 0.8983(2)
O10 O 1.1027(3) 0.9837(3) 0.7935(2)
C17 C 0.9511(4) 0.7323(4) 0.7014(3)
H10 H 0.8774 0.7018 0.7694
O11 O -0.1486(3) 0.3489(3) 0.8532(3)
H11 H -0.2381 0.3155 0.8837
H12 H -0.1594 0.4138 0.7725
Ag1A Ag -0.08382(3) -0.10835(3) 1.08044(2)
Ag1A_2 Ag 0.91618(3) 0.89165(3) 1.08044(2)
Ag1_2 Ag 1.08382(3) 1.10835(3) 0.91956(2)
Ag2A Ag 0.60564(3) 1.05990(3) 0.90372(2)
Ag2_2 Ag 1.39436(3) 0.94010(3) 0.09628(2)
O4A O 0.4748(3) 1.0821(3) 1.1778(2)
O8_2 O 0.2911(3) 0.8251(3) 1.3040(2)
O9A O 0.0739(3) 0.1517(3) 1.1017(2)
O10_2 O 0.1027(3) -0.0163(3) 0.7935(2)
loop_
_geom_bond_atom_site_label_1
_geom_bond_atom_site_label_2
_geom_bond_site_symmetry_1
_geom_bond_site_symmetry_2
Ag1 O2 1_555 1_555
Ag2 O3 1_555 1_555
O1 H1 1_555 1_555
O2 C1 1_555 1_555
C1 O1 1_555 1_555
C2 C1 1_555 1_555
C3 C2 1_555 1_555
H2 C3 1_555 1_555
C4 C3 1_555 1_555
C5 C4 1_555 1_555
O3 C5 1_555 1_555
O4 C5 1_555 1_555
C6 C4 1_555 1_555
H3 C6 1_555 1_555
C7 C6 1_555 1_555
C8 C2 1_555 1_555
H4 C8 1_555 1_555
O5 C7 1_555 1_555
C9 O5 1_555 1_555
H5 C9 1_555 1_555
H6 C9 1_555 1_555
O6 C9 1_555 1_555
C10 O6 1_555 1_555
C11 C10 1_555 1_555
H7 C11 1_555 1_555
C12 C11 1_555 1_555
C13 C12 1_555 1_555
O7 C13 1_555 1_555
H8 O7 1_555 1_555
O8 C13 1_555 1_555
C14 C12 1_555 1_555
H9 C14 1_555 1_555
C15 C14 1_555 1_555
C16 C15 1_555 1_555
O9 C16 1_555 1_555
O10 C16 1_555 1_555
C17 C10 1_555 1_555
H10 C17 1_555 1_555
O11 Ag1 1_555 1_555
H11 O11 1_555 1_555
H12 O11 1_555 1_555
Ag1A Ag1 1_555 1_555
Ag1A_2 O9 1_555 1_555
Ag1_2 O10 1_555 1_555
Ag2A Ag2 1_555 1_555
Ag2_2 O8 1_555 1_555
O4A Ag2 1_555 1_555
O8_2 Ag2 1_555 1_555
O9A Ag1 1_555 1_555
O10_2 Ag1 1_555 1_555
O4 Ag2A 1_555 1_555
C7 C8 1_555 1_555
C15 C17 1_555 1_555
Ag1A_2 Ag1_2 1_555 1_555

#END
