
#######################################################################
#
#                 Cambridge Crystallographic Data Centre
#                                CCDC 
#
#######################################################################
#
# If this CIF has been generated from an entry in the Cambridge 
# Structural Database, then it will include bibliographic, chemical, 
# crystal, experimental, refinement or atomic coordinate data resulting 
# from the CCDC's data processing and validation procedures.
#
#######################################################################

data_UJAQUS
_symmetry_cell_setting           orthorhombic
_symmetry_space_group_name_H-M   'P 21 21 21'
_symmetry_Int_Tables_number      19
_space_group_name_Hall           'P 2ac 2ab'
loop_
_symmetry_equiv_pos_site_id
_symmetry_equiv_pos_as_xyz
1 x,y,z
2 1/2-x,-y,1/2+z
3 1/2+x,1/2-y,-z
4 -x,1/2+y,1/2-z
_cell_length_a                   11.10990(10)
_cell_length_b                   13.89090(10)
_cell_length_c                   22.4850(4)
_cell_angle_alpha                90
_cell_angle_beta                 90
_cell_angle_gamma                90
_cell_volume                     3470.03
loop_
_atom_site_label
_atom_site_type_symbol
_atom_site_fract_x
_atom_site_fract_y
_atom_site_fract_z
Zn1 Zn 0.36789(3) -0.14083(2) 0.347009(14)
Zn2 Zn 0.13414(3) -0.01874(2) 0.438606(15)
O1 O -0.1847(2) 0.51390(14) 0.53604(10)
C1 C -0.1135(3) 0.58277(19) 0.52909(14)
O2 O -0.07900(19) 0.64054(14) 0.56973(9)
C2 C -0.0590(3) 0.5975(2) 0.46877(14)
C3 C -0.0838(3) 0.53259(19) 0.42346(13)
H1 H -0.1379 0.4808 0.4303
C4 C -0.0299(3) 0.5431(2) 0.36815(14)
C5 C 0.0509(3) 0.61795(19) 0.35715(14)
H2 H 0.0895 0.6240 0.3196
C6 C 0.0735(3) 0.68401(19) 0.40297(13)
C7 C 0.0170(3) 0.6750(2) 0.45739(14)
H3 H 0.0302 0.7221 0.4873
C8 C 0.1576(3) 0.76778(19) 0.39303(13)
O3 O 0.22900(18) 0.76623(13) 0.34912(10)
O4 O 0.15065(19) 0.83391(12) 0.43126(9)
O5 O -0.0621(2) 0.47430(15) 0.32737(9)
C9 C 0.0053(3) 0.4704(2) 0.27362(13)
H4 H 0.0926 0.4670 0.2823
H5 H -0.0102 0.5283 0.2491
C10 C -0.0351(3) 0.38128(18) 0.24141(14)
H6 H -0.1236 0.3835 0.2364
H7 H 0.0016 0.3804 0.2013
O6 O -0.00326(19) 0.29495(14) 0.27204(10)
C11 C 0.1133(3) 0.26332(19) 0.26766(13)
C12 C 0.1345(3) 0.17561(18) 0.29637(12)
H8 H 0.0720 0.1460 0.3187
C13 C 0.2458(3) 0.1318(2) 0.29248(13)
C14 C 0.3399(3) 0.1774(2) 0.26224(13)
H9 H 0.4167 0.1477 0.2596
C15 C 0.3198(3) 0.26735(19) 0.23600(13)
C16 C 0.2062(3) 0.3091(2) 0.23782(14)
H10 H 0.1922 0.3690 0.2186
C17 C 0.4184(3) 0.3212(2) 0.20432(14)
O7 O 0.52267(19) 0.28128(14) 0.20224(10)
O8 O 0.3948(2) 0.40024(15) 0.18114(10)
C18 C 0.2587(3) 0.0339(2) 0.31999(13)
O9 O 0.3550(2) -0.01293(13) 0.30940(9)
O10 O 0.17270(18) 0.00158(13) 0.34945(10)
O11 O -0.0501(2) -0.02244(16) 0.41609(11)
C19 C -0.1045(3) -0.1017(2) 0.41506(15)
H11 H -0.0606 -0.1562 0.4016
N1 N -0.2165(3) -0.11580(18) 0.43095(13)
C20 C -0.2684(3) -0.2125(2) 0.43005(16)
H12 H -0.2212 -0.2536 0.4034
H13 H -0.3517 -0.2092 0.4158
H14 H -0.2671 -0.2395 0.4703
C21 C -0.2901(3) -0.0370(3) 0.45316(19)
H15 H -0.3061 -0.0466 0.4956
H16 H -0.3664 -0.0351 0.4313
H17 H -0.2472 0.0240 0.4475
O12 O 0.0729(2) -0.04386(16) 0.52519(10)
C22 C 0.0773(3) 0.0118(2) 0.56758(15)
H18 H 0.1255 0.0680 0.5637
N2 N 0.0197(3) -0.00137(19) 0.61805(13)
C23 C -0.0616(5) -0.0827(3) 0.6266(2)
H19 H -0.0630 -0.1220 0.5904
H20 H -0.1429 -0.0588 0.6349
H21 H -0.0335 -0.1218 0.6601
C24 C 0.0350(5) 0.0646(3) 0.66800(17)
H22 H 0.0860 0.1187 0.6558
H23 H 0.0733 0.0305 0.7012
H24 H -0.0438 0.0889 0.6806
O13 O 0.1256(2) 0.12831(14) 0.45184(10)
C25 C 0.2129(3) 0.1821(2) 0.44422(15)
H25 H 0.2906 0.1540 0.4410
N3 N 0.2036(3) 0.27672(18) 0.44035(14)
C26 C 0.3084(5) 0.3363(3) 0.4286(3)
H26 H 0.3788 0.2951 0.4223
H27 H 0.3230 0.3788 0.4627
H28 H 0.2941 0.3753 0.3930
C27 C 0.0867(4) 0.3227(2) 0.44362(19)
H29 H 0.0603 0.3406 0.4035
H30 H 0.0923 0.3806 0.4684
H31 H 0.0284 0.2780 0.4612
Zn1_2 Zn 0.36789(3) 0.85917(2) 0.347009(14)
Zn1B Zn -0.13211(3) 0.64083(2) 0.652991(14)
Zn1C Zn 0.63211(3) 0.35917(2) 0.152991(14)
Zn2_2 Zn 0.13414(3) 0.98126(2) 0.438606(15)
Zn2B Zn -0.36586(3) 0.51874(2) 0.561394(15)
O1B O 0.3153(2) -0.01390(14) 0.46396(10)
O2B O 0.42100(19) -0.14054(14) 0.43027(9)
O3_2 O 0.22900(18) -0.23377(13) 0.34912(10)
O4_2 O 0.15065(19) -0.16609(12) 0.43126(9)
O7C O 0.47733(19) -0.21872(14) 0.29776(10)
O14 O 0.4582(3) 0.6921(3) 0.08734(16)
C28 C 0.4127(4) 0.6509(3) 0.12972(19)
H32 H 0.4615 0.6067 0.1511
N4 N 0.3000(3) 0.6632(2) 0.14819(15)
C29 C 0.2526(5) 0.6121(3) 0.1992(2)
H33 H 0.3162 0.5725 0.2168
H34 H 0.1858 0.5707 0.1866
H35 H 0.2235 0.6586 0.2287
C30 C 0.2152(5) 0.7259(3) 0.1163(2)
H36 H 0.2555 0.7544 0.0817
H37 H 0.1875 0.7771 0.1429
H38 H 0.1460 0.6878 0.1029
loop_
_geom_bond_atom_site_label_1
_geom_bond_atom_site_label_2
_geom_bond_site_symmetry_1
_geom_bond_site_symmetry_2
Zn1 O9 1_555 1_555
Zn2 O10 1_555 1_555
O1 C1 1_555 1_555
C1 O2 1_555 1_555
O2 Zn1B 1_555 1_555
C2 C1 1_555 1_555
C3 C2 1_555 1_555
H1 C3 1_555 1_555
C4 C3 1_555 1_555
C5 C4 1_555 1_555
H2 C5 1_555 1_555
C6 C5 1_555 1_555
C7 C2 1_555 1_555
H3 C7 1_555 1_555
C8 C6 1_555 1_555
O3 C8 1_555 1_555
O4 C8 1_555 1_555
O5 C4 1_555 1_555
C9 O5 1_555 1_555
H4 C9 1_555 1_555
H5 C9 1_555 1_555
C10 C9 1_555 1_555
H6 C10 1_555 1_555
H7 C10 1_555 1_555
O6 C10 1_555 1_555
C11 O6 1_555 1_555
C12 C11 1_555 1_555
H8 C12 1_555 1_555
C13 C12 1_555 1_555
C14 C13 1_555 1_555
H9 C14 1_555 1_555
C15 C14 1_555 1_555
C16 C11 1_555 1_555
H10 C16 1_555 1_555
C17 C15 1_555 1_555
O7 C17 1_555 1_555
O8 C17 1_555 1_555
C18 C13 1_555 1_555
O9 C18 1_555 1_555
O10 C18 1_555 1_555
O11 Zn2 1_555 1_555
C19 O11 1_555 1_555
H11 C19 1_555 1_555
N1 C19 1_555 1_555
C20 N1 1_555 1_555
H12 C20 1_555 1_555
H13 C20 1_555 1_555
H14 C20 1_555 1_555
C21 N1 1_555 1_555
H15 C21 1_555 1_555
H16 C21 1_555 1_555
H17 C21 1_555 1_555
O12 Zn2 1_555 1_555
C22 O12 1_555 1_555
H18 C22 1_555 1_555
N2 C22 1_555 1_555
C23 N2 1_555 1_555
H19 C23 1_555 1_555
H20 C23 1_555 1_555
H21 C23 1_555 1_555
C24 N2 1_555 1_555
H22 C24 1_555 1_555
H23 C24 1_555 1_555
H24 C24 1_555 1_555
O13 Zn2 1_555 1_555
C25 O13 1_555 1_555
H25 C25 1_555 1_555
N3 C25 1_555 1_555
C26 N3 1_555 1_555
H26 C26 1_555 1_555
H27 C26 1_555 1_555
H28 C26 1_555 1_555
C27 N3 1_555 1_555
H29 C27 1_555 1_555
H30 C27 1_555 1_555
H31 C27 1_555 1_555
O14 C28 1_555 1_555
C28 H32 1_555 1_555
N4 C28 1_555 1_555
C29 N4 1_555 1_555
H33 C29 1_555 1_555
H34 C29 1_555 1_555
H35 C29 1_555 1_555
C30 N4 1_555 1_555
H36 C30 1_555 1_555
H37 C30 1_555 1_555
H38 C30 1_555 1_555
Zn1_2 O3 1_555 1_555
Zn1C O7 1_555 1_555
Zn2_2 O4 1_555 1_555
Zn2B O1 1_555 1_555
O1B Zn2 1_555 1_555
O2B Zn1 1_555 1_555
O3_2 Zn1 1_555 1_555
O4_2 Zn2 1_555 1_555
O7C Zn1 1_555 1_555
C6 C7 1_555 1_555
C15 C16 1_555 1_555

#END
