
#######################################################################
#
#                 Cambridge Crystallographic Data Centre
#                                CCDC 
#
#######################################################################
#
# If this CIF has been generated from an entry in the Cambridge 
# Structural Database, then it will include bibliographic, chemical, 
# crystal, experimental, refinement or atomic coordinate data resulting 
# from the CCDC's data processing and validation procedures.
#
#######################################################################

data_UJAQAY
_symmetry_cell_setting           monoclinic
_symmetry_space_group_name_H-M   'C 2/c'
_symmetry_Int_Tables_number      15
_space_group_name_Hall           '-C 2yn'
loop_
_symmetry_equiv_pos_site_id
_symmetry_equiv_pos_as_xyz
1 x,y,z
2 -x,y,1/2-z
3 1/2+x,1/2+y,z
4 1/2-x,1/2+y,1/2-z
5 -x,-y,-z
6 x,-y,1/2+z
7 1/2-x,1/2-y,-z
8 1/2+x,1/2-y,1/2+z
_cell_length_a                   28.0246(6)
_cell_length_b                   12.3747(3)
_cell_length_c                   14.1946(3)
_cell_angle_alpha                90
_cell_angle_beta                 109.4888(11)
_cell_angle_gamma                90
_cell_volume                     4640.6
loop_
_atom_site_label
_atom_site_type_symbol
_atom_site_fract_x
_atom_site_fract_y
_atom_site_fract_z
Mn1 Mn 0.12397(2) 0.10600(4) 0.99640(4)
Mn2 Mn 0.2500 0.2500 1.0000
O1 O 0.12171(9) 0.1691(2) 0.85934(18)
O2 O 0.18605(9) 0.28030(18) 0.86587(17)
C1 C 0.14281(13) 0.2424(2) 0.8244(2)
C2 C 0.11202(12) 0.2855(2) 0.7231(2)
C3 C 0.06188(12) 0.2509(3) 0.6783(2)
H1 H 0.0475 0.2002 0.7113
C4 C 0.03341(12) 0.2915(3) 0.5853(2)
C5 C -0.01983(13) 0.2551(3) 0.5372(3)
O3 O -0.04444(9) 0.30911(18) 0.45659(16)
H2 H -0.0818 0.2923 0.4417
O4 O -0.03863(10) 0.1820(2) 0.5698(2)
C6 C 0.05423(12) 0.3668(2) 0.5358(2)
H3 H 0.0348 0.3934 0.4716
C7 C 0.10332(12) 0.4016(2) 0.5820(2)
C8 C 0.13243(13) 0.3611(2) 0.6747(2)
H4 H 0.1663 0.3850 0.7050
O5 O 0.12668(9) 0.47795(17) 0.54109(15)
C9 C 0.10088(14) 0.5149(2) 0.4436(2)
H5 H 0.1174 0.5815 0.4311
H6 H 0.0656 0.5333 0.4377
O6 O 0.10033(8) 0.43727(18) 0.37086(16)
C10 C 0.14391(12) 0.4293(2) 0.3455(2)
C11 C 0.18917(12) 0.4779(2) 0.3988(2)
H7 H 0.1924 0.5163 0.4586
C12 C 0.23003(12) 0.4702(2) 0.3641(2)
C13 C 0.27824(13) 0.5299(3) 0.4187(3)
O7 O 0.27946(9) 0.58871(17) 0.49190(18)
O8 O 0.31550(9) 0.51998(19) 0.38900(19)
C14 C 0.22573(12) 0.4128(2) 0.2771(2)
H8 H 0.2536 0.4080 0.2535
C15 C 0.18012(12) 0.3626(2) 0.2256(2)
C16 C 0.17630(12) 0.3027(2) 0.1311(2)
O9 O 0.13594(8) 0.24904(17) 0.08803(15)
O10 O 0.21250(9) 0.3089(2) 0.09975(18)
C17 C 0.13941(12) 0.3704(2) 0.2592(2)
H9 H 0.1084 0.3356 0.2237
O11 O 0.11120(13) -0.0463(2) 0.91165(18)
C18 C 0.1106(2) -0.1520(3) 0.9535(4)
H10 H 0.1454 -0.1756 0.9886
H11 H 0.0942 -0.2032 0.8998
H12 H 0.0918 -0.1493 1.0006
N1 N 0.08487(17) 0.0327(3) 1.0979(4)
C19 C 0.05233(16) 0.0395(3) 1.1392(3)
C20 C 0.0240(4) 0.0304(9) 1.2015(8)
Mn1F Mn 0.37603(2) 0.39400(4) 1.00360(4)
Mn1A Mn -0.12397(2) 0.10600(4) 0.50360(4)
Mn1C Mn 0.37603(2) 0.60600(4) 0.50360(4)
Mn1_2 Mn 0.12397(2) 0.10600(4) -0.00360(4)
Mn1G Mn 0.62397(2) 0.39400(4) 1.49640(4)
Mn1E Mn 0.12397(2) -0.10600(4) 1.49640(4)
Mn1F_2 Mn 0.37603(2) 0.39400(4) 2.00360(4)
Mn2C Mn 0.2500 0.7500 0.5000
Mn2_2 Mn 0.2500 0.2500 0.0000
Mn2C_2 Mn 0.2500 -0.2500 1.5000
Mn2_3 Mn 0.2500 0.2500 2.0000
O1F O 0.37829(9) 0.3309(2) 1.14066(18)
O2F O 0.31395(9) 0.21970(18) 1.13413(17)
C1F C 0.35719(13) 0.2576(2) 1.1756(2)
C2F C 0.38798(12) 0.2145(2) 1.2769(2)
C3F C 0.43812(12) 0.2491(3) 1.3217(2)
H1F H 0.4525 0.2998 1.2887
C4F C 0.46659(12) 0.2085(3) 1.4147(2)
C5F C 0.51983(13) 0.2449(3) 1.4628(3)
O3F O 0.54444(9) 0.19089(18) 1.54341(16)
H2F H 0.5818 0.2077 1.5583
O4F O 0.53863(10) 0.3180(2) 1.4302(2)
O4A O 0.03863(10) 0.1820(2) 0.9302(2)
O4G O 0.46137(10) 0.3180(2) 1.0698(2)
C6F C 0.44577(12) 0.1332(2) 1.4642(2)
H3F H 0.4652 0.1066 1.5284
C7F C 0.39668(12) 0.0984(2) 1.4180(2)
C8F C 0.36757(13) 0.1389(2) 1.3253(2)
H4F H 0.3337 0.1150 1.2950
O5F O 0.37332(9) 0.02205(17) 1.45891(15)
C9F C 0.39912(14) -0.0149(2) 1.5564(2)
H5F H 0.3826 -0.0815 1.5689
H6F H 0.4344 -0.0333 1.5623
O6F O 0.39967(8) 0.06273(18) 1.62914(16)
C10F C 0.35609(12) 0.0707(2) 1.6545(2)
C11F C 0.31083(12) 0.0221(2) 1.6012(2)
H7F H 0.3076 -0.0163 1.5414
C12F C 0.26997(12) 0.0298(2) 1.6359(2)
C13F C 0.22176(13) -0.0299(3) 1.5813(3)
O7F O 0.22054(9) -0.08871(17) 1.50810(18)
O7C O 0.22054(9) 0.08871(17) 1.00810(18)
O7E O 0.27946(9) 0.41129(17) 0.99190(18)
O8F O 0.18450(9) -0.01998(19) 1.61100(19)
O8C O 0.18450(9) 0.01998(19) 1.11100(19)
O8E O 0.31550(9) 0.48002(19) 0.88900(19)
C14F C 0.27427(12) 0.0872(2) 1.7229(2)
H8F H 0.2464 0.0920 1.7465
C15F C 0.31988(12) 0.1374(2) 1.7744(2)
C16F C 0.32370(12) 0.1973(2) 1.8689(2)
O9F O 0.36406(8) 0.25096(17) 1.91197(15)
O9_2 O 0.13594(8) 0.24904(17) 1.08803(15)
O9F_2 O 0.36406(8) 0.25096(17) 0.91197(15)
O10F O 0.28750(9) 0.1911(2) 1.90025(18)
O10_2 O 0.21250(9) 0.3089(2) 1.09975(18)
O10F_2 O 0.28750(9) 0.1911(2) 0.90025(18)
C17F C 0.36059(12) 0.1296(2) 1.7408(2)
H9F H 0.3916 0.1644 1.7763
O11F O 0.38880(13) 0.5463(2) 1.08835(18)
C18F C 0.3894(2) 0.6520(3) 1.0465(4)
H10F H 0.3546 0.6756 1.0114
H11F H 0.4058 0.7032 1.1002
H12F H 0.4082 0.6493 0.9994
N1F N 0.41513(17) 0.4673(3) 0.9021(4)
C19F C 0.44767(16) 0.4605(3) 0.8608(3)
C20F C 0.4760(4) 0.4696(9) 0.7985(8)
loop_
_geom_bond_atom_site_label_1
_geom_bond_atom_site_label_2
_geom_bond_site_symmetry_1
_geom_bond_site_symmetry_2
Mn1 O1 1_555 1_555
Mn2 O2 1_555 1_555
O1 C1 1_555 1_555
O2 C1 1_555 1_555
C1 C2 1_555 1_555
C2 C3 1_555 1_555
C3 H1 1_555 1_555
C4 C3 1_555 1_555
C5 C4 1_555 1_555
O3 C5 1_555 1_555
H2 O3 1_555 1_555
O4 C5 1_555 1_555
C6 C4 1_555 1_555
H3 C6 1_555 1_555
C7 C6 1_555 1_555
C8 C2 1_555 1_555
H4 C8 1_555 1_555
O5 C7 1_555 1_555
C9 O5 1_555 1_555
H5 C9 1_555 1_555
H6 C9 1_555 1_555
O6 C9 1_555 1_555
C10 O6 1_555 1_555
C11 C10 1_555 1_555
H7 C11 1_555 1_555
C12 C11 1_555 1_555
C13 C12 1_555 1_555
O7 C13 1_555 1_555
O8 C13 1_555 1_555
C14 C12 1_555 1_555
H8 C14 1_555 1_555
C15 C14 1_555 1_555
C16 C15 1_555 1_555
O9 C16 1_555 1_555
O10 C16 1_555 1_555
C17 C10 1_555 1_555
H9 C17 1_555 1_555
O11 Mn1 1_555 1_555
C18 O11 1_555 1_555
H10 C18 1_555 1_555
H11 C18 1_555 1_555
H12 C18 1_555 1_555
N1 Mn1 1_555 1_555
C19 N1 1_555 1_555
C20 C19 1_555 1_555
Mn1F O1F 1_555 1_555
Mn1A O4 1_555 1_555
Mn1C O8 1_555 1_555
Mn1_2 O9 1_555 1_555
Mn1G O4F 1_555 1_555
Mn1E O8F 1_555 1_555
Mn1F_2 O9F 1_555 1_555
Mn2C O7 1_555 1_555
Mn2_2 O10 1_555 1_555
Mn2C_2 O7F 1_555 1_555
Mn2_3 O10F 1_555 1_555
O1F C1F 1_555 1_555
O2F Mn2 1_555 1_555
C1F O2F 1_555 1_555
C2F C1F 1_555 1_555
C3F C2F 1_555 1_555
H1F C3F 1_555 1_555
C4F C3F 1_555 1_555
C5F C4F 1_555 1_555
O3F C5F 1_555 1_555
H2F O3F 1_555 1_555
O4F C5F 1_555 1_555
O4A Mn1 1_555 1_555
O4G Mn1F 1_555 1_555
C6F C4F 1_555 1_555
H3F C6F 1_555 1_555
C7F C6F 1_555 1_555
C8F C2F 1_555 1_555
H4F C8F 1_555 1_555
O5F C7F 1_555 1_555
C9F O5F 1_555 1_555
H5F C9F 1_555 1_555
H6F C9F 1_555 1_555
O6F C9F 1_555 1_555
C10F O6F 1_555 1_555
C11F C10F 1_555 1_555
H7F C11F 1_555 1_555
C12F C11F 1_555 1_555
C13F C12F 1_555 1_555
O7F C13F 1_555 1_555
O7C Mn2 1_555 1_555
O7E Mn2 1_555 1_555
O8F C13F 1_555 1_555
O8C Mn1 1_555 1_555
O8E Mn1F 1_555 1_555
C14F C12F 1_555 1_555
H8F C14F 1_555 1_555
C15F C14F 1_555 1_555
C16F C15F 1_555 1_555
O9F C16F 1_555 1_555
O9_2 Mn1 1_555 1_555
O9F_2 Mn1F 1_555 1_555
O10F C16F 1_555 1_555
O10_2 Mn2 1_555 1_555
O10F_2 Mn2 1_555 1_555
C17F C10F 1_555 1_555
H9F C17F 1_555 1_555
O11F Mn1F 1_555 1_555
C18F O11F 1_555 1_555
H10F C18F 1_555 1_555
H11F C18F 1_555 1_555
H12F C18F 1_555 1_555
N1F Mn1F 1_555 1_555
C19F N1F 1_555 1_555
C20F C19F 1_555 1_555
C7 C8 1_555 1_555
C15 C17 1_555 1_555
C7F C8F 1_555 1_555
C15F C17F 1_555 1_555

#END
