
#######################################################################
#
#                 Cambridge Crystallographic Data Centre
#                                CCDC 
#
#######################################################################
#
# If this CIF has been generated from an entry in the Cambridge 
# Structural Database, then it will include bibliographic, chemical, 
# crystal, experimental, refinement or atomic coordinate data resulting 
# from the CCDC's data processing and validation procedures.
#
#######################################################################

data_UJARED
_symmetry_cell_setting           monoclinic
_symmetry_space_group_name_H-M   'P 21/c'
_symmetry_Int_Tables_number      14
_space_group_name_Hall           '-P 2ybc'
loop_
_symmetry_equiv_pos_site_id
_symmetry_equiv_pos_as_xyz
1 x,y,z
2 -x,1/2+y,1/2-z
3 -x,-y,-z
4 x,1/2-y,1/2+z
_cell_length_a                   15.4803(2)
_cell_length_b                   17.8109(2)
_cell_length_c                   13.2541(2)
_cell_angle_alpha                90
_cell_angle_beta                 104.7111(6)
_cell_angle_gamma                90
_cell_volume                     3534.6
loop_
_atom_site_label
_atom_site_type_symbol
_atom_site_fract_x
_atom_site_fract_y
_atom_site_fract_z
Ag1 Ag 0.587101(18) 0.482769(16) 0.49146(2)
Ag2 Ag 0.656526(18) 0.558578(17) 0.72256(2)
Ag3 Ag 0.836090(19) 0.585960(16) 0.71683(2)
Ag4 Ag 0.094015(19) 0.013007(16) 0.54567(2)
O1 O 0.53465(17) 0.36944(15) 0.4972(2)
O2 O 0.39261(17) 0.39524(15) 0.49555(19)
C1 C 0.4571(2) 0.3504(2) 0.4976(3)
C2 C 0.4391(2) 0.2678(2) 0.5003(2)
C3 C 0.3570(2) 0.2416(2) 0.5108(2)
H1 H 0.3111 0.2758 0.5155
C4 C 0.3432(2) 0.1645(2) 0.5142(3)
C5 C 0.2554(2) 0.1355(2) 0.5252(3)
O3 O 0.19473(17) 0.18862(15) 0.5175(2)
H2 H 0.1450 0.1690 0.5159
O4 O 0.24138(17) 0.06909(16) 0.5396(2)
C6 C 0.4086(2) 0.1137(2) 0.5056(2)
H3 H 0.3984 0.0613 0.5089
C7 C 0.4897(2) 0.1402(2) 0.4921(2)
C8 C 0.5056(2) 0.2174(2) 0.4916(2)
H4 H 0.5618 0.2355 0.4852
O5 O 0.54722(16) 0.08494(14) 0.47694(19)
C9 C 0.6358(2) 0.1046(2) 0.4699(3)
H5 H 0.6346 0.1553 0.4390
H6 H 0.6553 0.0687 0.4231
C10 C 0.7016(2) 0.1037(2) 0.5747(3)
H7 H 0.6985 0.0548 0.6092
H8 H 0.7629 0.1098 0.5660
O6 O 0.68209(16) 0.16392(15) 0.63923(19)
C11 C 0.7521(2) 0.2109(2) 0.6833(2)
C12 C 0.7315(2) 0.2864(2) 0.6903(2)
H9 H 0.6713 0.3030 0.6680
C13 C 0.8002(2) 0.3381(2) 0.7306(3)
C14 C 0.7817(2) 0.4200(2) 0.7344(3)
O7 O 0.70013(16) 0.44067(15) 0.7143(2)
O8 O 0.84678(16) 0.46465(15) 0.75580(19)
C15 C 0.8889(2) 0.3125(2) 0.7616(2)
H10 H 0.9362 0.3472 0.7863
C16 C 0.9072(2) 0.2373(2) 0.7562(2)
C17 C 1.0007(2) 0.2075(2) 0.7831(2)
O9 O 1.01781(17) 0.14180(15) 0.7750(2)
O10 O 1.06237(16) 0.26053(15) 0.8132(2)
H11 H 1.1124 0.2437 0.8103
C18 C 0.8389(2) 0.1858(2) 0.7190(2)
H12 H 0.8519 0.1337 0.7182
O11 O 1.21071(16) 0.20521(15) 0.77526(19)
O12 O 1.34741(16) 0.17965(15) 0.75554(18)
C19 C 1.2859(2) 0.2245(2) 0.7628(2)
C20 C 1.3029(2) 0.3069(2) 0.7535(3)
C21 C 1.3871(2) 0.3312(2) 0.7474(2)
H13 H 1.4332 0.2959 0.7478
C22 C 1.4028(2) 0.4077(2) 0.7406(3)
C23 C 1.4929(2) 0.4347(2) 0.7339(3)
O13 O 1.51048(17) 0.50105(16) 0.7257(2)
O14 O 1.55028(17) 0.37968(15) 0.73421(19)
H14 H 1.5992 0.3978 0.7296
C24 C 1.3368(2) 0.4600(2) 0.7402(3)
H15 H 1.3488 0.5121 0.7364
C25 C 1.2522(2) 0.4356(2) 0.7454(3)
C26 C 1.2349(2) 0.3593(2) 0.7511(3)
H16 H 1.1770 0.3427 0.7533
O15 O 1.19079(16) 0.49212(15) 0.7430(2)
C27 C 1.1050(2) 0.4748(2) 0.7600(3)
H17 H 1.0891 0.5134 0.8060
H18 H 1.1079 0.4256 0.7956
C28 C 1.0343(2) 0.4722(2) 0.6586(3)
H19 H 0.9749 0.4649 0.6722
H20 H 1.0335 0.5201 0.6205
O16 O 1.05388(16) 0.41042(15) 0.5965(2)
C29 C 0.9852(2) 0.3603(2) 0.5570(3)
C30 C 1.0086(2) 0.2853(2) 0.5544(2)
H21 H 1.0694 0.2706 0.5773
C31 C 0.9424(2) 0.2314(2) 0.5181(2)
C32 C 0.9637(2) 0.1496(2) 0.5173(3)
O17 O 1.04564(16) 0.13031(15) 0.53692(19)
O18 O 0.89933(17) 0.10447(15) 0.4978(2)
C33 C 0.8532(2) 0.2542(2) 0.4823(2)
H22 H 0.8077 0.2179 0.4575
C34 C 0.8312(2) 0.3295(2) 0.4831(3)
C35 C 0.7370(2) 0.3559(2) 0.4434(3)
O19 O 0.71544(17) 0.42100(15) 0.4471(2)
O20 O 0.68137(17) 0.30050(16) 0.4028(2)
H23 H 0.6325 0.3186 0.3688
C36 C 0.8968(2) 0.3838(2) 0.5214(3)
H24 H 0.8815 0.4354 0.5230
O21 O 0.8030(2) 0.5953(2) 0.5254(2)
H25 H 0.8404 0.5701 0.4956
H26 H 0.7452 0.5894 0.4915
Ag1B Ag 0.412899(18) 0.517231(16) 0.50854(2)
Ag2A Ag 1.343474(18) 0.058578(17) 0.77744(2)
Ag2_2 Ag 1.656526(18) 0.558578(17) 0.72256(2)
Ag3A Ag 1.163910(19) 0.085960(16) 0.78317(2)
Ag4B Ag -0.094015(19) -0.013007(16) 0.45433(2)
Ag4_2 Ag 1.094015(19) 0.013007(16) 0.54567(2)
Ag4B_2 Ag 0.905985(19) -0.013007(16) 0.45433(2)
O2B O 0.60739(17) 0.60476(15) 0.50445(19)
O9A O 0.98219(17) 0.64180(15) 0.7250(2)
O11A O 0.78929(16) 0.70521(15) 0.72474(19)
O12A O 0.65259(16) 0.67965(15) 0.74446(18)
O13_2 O 0.51048(17) 0.50105(16) 0.7257(2)
O17_2 O 0.04564(16) 0.13031(15) 0.53692(19)
O18B O 0.10067(17) -0.10447(15) 0.5022(2)
O22 O 0.53462(19) 0.3266(2) 0.2631(2)
H27 H 0.4752 0.3304 0.2542
H28 H 0.5516 0.3347 0.2040
loop_
_geom_bond_atom_site_label_1
_geom_bond_atom_site_label_2
_geom_bond_site_symmetry_1
_geom_bond_site_symmetry_2
Ag1 Ag2 1_555 1_555
Ag2 Ag3 1_555 1_555
Ag3 O8 1_555 1_555
Ag4 O4 1_555 1_555
O1 Ag1 1_555 1_555
O2 C1 1_555 1_555
C1 O1 1_555 1_555
C2 C1 1_555 1_555
C3 C2 1_555 1_555
H1 C3 1_555 1_555
C4 C3 1_555 1_555
C5 C4 1_555 1_555
O3 C5 1_555 1_555
H2 O3 1_555 1_555
O4 C5 1_555 1_555
C6 C4 1_555 1_555
H3 C6 1_555 1_555
C7 C6 1_555 1_555
C8 C2 1_555 1_555
H4 C8 1_555 1_555
O5 C7 1_555 1_555
C9 O5 1_555 1_555
H5 C9 1_555 1_555
H6 C9 1_555 1_555
C10 C9 1_555 1_555
H7 C10 1_555 1_555
H8 C10 1_555 1_555
O6 C10 1_555 1_555
C11 O6 1_555 1_555
C12 C11 1_555 1_555
H9 C12 1_555 1_555
C13 C12 1_555 1_555
C14 C13 1_555 1_555
O7 Ag2 1_555 1_555
O8 C14 1_555 1_555
C15 C13 1_555 1_555
H10 C15 1_555 1_555
C16 C15 1_555 1_555
C17 C16 1_555 1_555
O9 C17 1_555 1_555
O10 C17 1_555 1_555
H11 O10 1_555 1_555
C18 C11 1_555 1_555
H12 C18 1_555 1_555
O11 C19 1_555 1_555
O12 C19 1_555 1_555
C19 C20 1_555 1_555
C20 C21 1_555 1_555
C21 H13 1_555 1_555
C22 C21 1_555 1_555
C23 C22 1_555 1_555
O13 C23 1_555 1_555
O14 C23 1_555 1_555
H14 O14 1_555 1_555
C24 C22 1_555 1_555
H15 C24 1_555 1_555
C25 C24 1_555 1_555
C26 C20 1_555 1_555
H16 C26 1_555 1_555
O15 C25 1_555 1_555
C27 O15 1_555 1_555
H17 C27 1_555 1_555
H18 C27 1_555 1_555
C28 C27 1_555 1_555
H19 C28 1_555 1_555
H20 C28 1_555 1_555
O16 C28 1_555 1_555
C29 O16 1_555 1_555
C30 C29 1_555 1_555
H21 C30 1_555 1_555
C31 C30 1_555 1_555
C32 C31 1_555 1_555
O17 C32 1_555 1_555
O18 C32 1_555 1_555
C33 C31 1_555 1_555
H22 C33 1_555 1_555
C34 C33 1_555 1_555
C35 C34 1_555 1_555
O19 Ag1 1_555 1_555
O20 C35 1_555 1_555
H23 O20 1_555 1_555
C36 C29 1_555 1_555
H24 C36 1_555 1_555
O21 Ag3 1_555 1_555
H25 O21 1_555 1_555
H26 O21 1_555 1_555
O22 H27 1_555 1_555
H28 O22 1_555 1_555
Ag1B Ag1 1_555 1_555
Ag2A O12 1_555 1_555
Ag2_2 O13 1_555 1_555
Ag3A O9 1_555 1_555
Ag4B Ag4 1_555 1_555
Ag4_2 O17 1_555 1_555
Ag4B_2 O18 1_555 1_555
O2B Ag1 1_555 1_555
O9A Ag3 1_555 1_555
O11A Ag3 1_555 1_555
O12A Ag2 1_555 1_555
O13_2 Ag2 1_555 1_555
O17_2 Ag4 1_555 1_555
O18B Ag4 1_555 1_555
O2 Ag1B 1_555 1_555
C7 C8 1_555 1_555
C14 O7 1_555 1_555
C16 C18 1_555 1_555
O11 Ag3A 1_555 1_555
C25 C26 1_555 1_555
C34 C36 1_555 1_555
C35 O19 1_555 1_555
Ag2A Ag3A 1_555 1_555
Ag4_2 Ag4B_2 1_555 1_555

#END
