
#######################################################################
#
#                 Cambridge Crystallographic Data Centre
#                                CCDC 
#
#######################################################################
#
# If this CIF has been generated from an entry in the Cambridge 
# Structural Database, then it will include bibliographic, chemical, 
# crystal, experimental, refinement or atomic coordinate data resulting 
# from the CCDC's data processing and validation procedures.
#
#######################################################################

data_UJARUT
_symmetry_cell_setting           monoclinic
_symmetry_space_group_name_H-M   'C 2/c'
_symmetry_Int_Tables_number      15
_space_group_name_Hall           '-C 2yn'
loop_
_symmetry_equiv_pos_site_id
_symmetry_equiv_pos_as_xyz
1 x,y,z
2 -x,y,1/2-z
3 1/2+x,1/2+y,z
4 1/2-x,1/2+y,1/2-z
5 -x,-y,-z
6 x,-y,1/2+z
7 1/2-x,1/2-y,-z
8 1/2+x,1/2-y,1/2+z
_cell_length_a                   20.2908(13)
_cell_length_b                   9.9513(6)
_cell_length_c                   14.5720(9)
_cell_angle_alpha                90
_cell_angle_beta                 116.450(3)
_cell_angle_gamma                90
_cell_volume                     2634.38
loop_
_atom_site_label
_atom_site_type_symbol
_atom_site_fract_x
_atom_site_fract_y
_atom_site_fract_z
Co1 Co 0.0000 0.04339(5) 0.2500
O1 O 0.01770(10) 0.1315(2) 0.14085(15)
O2 O 0.10417(11) 0.21428(19) 0.28495(15)
C1 C 0.07161(15) 0.2100(3) 0.1887(2)
C2 C 0.09275(15) 0.3052(3) 0.1265(2)
C3 C 0.15489(15) 0.3859(3) 0.1735(2)
H1 H 0.1852 0.3788 0.2452
C4 C 0.17255(15) 0.4763(3) 0.1161(2)
C5 C 0.24155(15) 0.5565(3) 0.1699(2)
O3 O 0.25802(11) 0.6313(2) 0.10748(16)
H2 H 0.3101 0.6648 0.1468
O4 O 0.27882(11) 0.5533(2) 0.26161(16)
C6 C 0.12845(15) 0.4889(3) 0.0103(2)
H3 H 0.1408 0.5513 -0.0289
C7 C 0.06623(15) 0.4081(3) -0.0362(2)
C8 C 0.04857(15) 0.3165(3) 0.0216(2)
H4 H 0.0061 0.2615 -0.0108
O5 O 0.01895(10) 0.41095(19) -0.13873(15)
C9 C 0.03109(15) 0.5160(3) -0.1972(2)
H5 H 0.0782 0.5007 -0.2005
H6 H 0.0338 0.6040 -0.1640
N1 N 0.08477(12) -0.0792(2) 0.33936(18)
C10 C 0.12116(16) -0.0525(3) 0.4399(2)
H7 H 0.1022 0.0148 0.4678
C11 C 0.18500(16) -0.1183(3) 0.5047(2)
H8 H 0.2082 -0.0972 0.5757
C12 C 0.21521(15) -0.2147(3) 0.4665(2)
C13 C 0.17745(16) -0.2425(3) 0.3619(2)
H9 H 0.1958 -0.3080 0.3318
C14 C 0.11304(16) -0.1740(3) 0.3022(2)
H10 H 0.0877 -0.1954 0.2313
Co1_2 Co 0.0000 0.04339(5) -0.7500
Co1F Co 0.5000 -0.54339(5) 0.7500
O1A O -0.01770(10) 0.1315(2) -0.64085(15)
O1A_2 O -0.01770(10) 0.1315(2) 0.35915(15)
O2A O -0.10417(11) 0.21428(19) -0.78495(15)
C1A C -0.07161(15) 0.2100(3) -0.6887(2)
C2A C -0.09275(15) 0.3052(3) -0.6265(2)
C3A C -0.15489(15) 0.3859(3) -0.6735(2)
H1A H -0.1852 0.3788 -0.7452
C4A C -0.17255(15) 0.4763(3) -0.6161(2)
C5A C -0.24155(15) 0.5565(3) -0.6699(2)
O3A O -0.25802(11) 0.6313(2) -0.60748(16)
H2A H -0.3101 0.6648 -0.6468
O4A O -0.27882(11) 0.5533(2) -0.76161(16)
C6A C -0.12845(15) 0.4889(3) -0.5103(2)
H3A H -0.1408 0.5513 -0.4711
C7A C -0.06623(15) 0.4081(3) -0.4638(2)
C8A C -0.04857(15) 0.3165(3) -0.5216(2)
H4A H -0.0061 0.2615 -0.4892
O5A O -0.01895(10) 0.41095(19) -0.36127(15)
C9A C -0.03109(15) 0.5160(3) -0.3028(2)
H5A H -0.0782 0.5007 -0.2995
H6A H -0.0338 0.6040 -0.3360
N1F N 0.41523(12) -0.4208(2) 0.66064(18)
N1A N -0.08477(12) -0.0792(2) 0.16064(18)
C10F C 0.37884(16) -0.4475(3) 0.5601(2)
H7F H 0.3978 -0.5148 0.5322
C11F C 0.31500(16) -0.3817(3) 0.4953(2)
H8F H 0.2918 -0.4028 0.4243
C12F C 0.28479(15) -0.2853(3) 0.5335(2)
C13F C 0.32255(16) -0.2575(3) 0.6381(2)
H9F H 0.3042 -0.1920 0.6682
C14F C 0.38696(16) -0.3260(3) 0.6978(2)
H10F H 0.4123 -0.3046 0.7687
loop_
_geom_bond_atom_site_label_1
_geom_bond_atom_site_label_2
_geom_bond_site_symmetry_1
_geom_bond_site_symmetry_2
Co1 O1 1_555 1_555
O1 C1 1_555 1_555
O2 C1 1_555 1_555
C1 C2 1_555 1_555
C2 C3 1_555 1_555
C3 H1 1_555 1_555
C4 C3 1_555 1_555
C5 C4 1_555 1_555
O3 C5 1_555 1_555
H2 O3 1_555 1_555
O4 C5 1_555 1_555
C6 C4 1_555 1_555
H3 C6 1_555 1_555
C7 C6 1_555 1_555
C8 C2 1_555 1_555
H4 C8 1_555 1_555
O5 C7 1_555 1_555
C9 O5 1_555 1_555
H5 C9 1_555 1_555
H6 C9 1_555 1_555
N1 Co1 1_555 1_555
C10 N1 1_555 1_555
H7 C10 1_555 1_555
C11 C10 1_555 1_555
H8 C11 1_555 1_555
C12 C11 1_555 1_555
C13 C12 1_555 1_555
H9 C13 1_555 1_555
C14 N1 1_555 1_555
H10 C14 1_555 1_555
Co1_2 O1A 1_555 1_555
Co1F N1F 1_555 1_555
O1A C1A 1_555 1_555
O1A_2 Co1 1_555 1_555
O2A C1A 1_555 1_555
C1A C2A 1_555 1_555
C2A C3A 1_555 1_555
C3A H1A 1_555 1_555
C4A C3A 1_555 1_555
C5A C4A 1_555 1_555
O3A C5A 1_555 1_555
H2A O3A 1_555 1_555
O4A C5A 1_555 1_555
C6A C4A 1_555 1_555
H3A C6A 1_555 1_555
C7A C6A 1_555 1_555
C8A C2A 1_555 1_555
H4A C8A 1_555 1_555
O5A C7A 1_555 1_555
C9A C9 1_555 1_555
H5A C9A 1_555 1_555
H6A C9A 1_555 1_555
N1F C10F 1_555 1_555
N1A Co1 1_555 1_555
C10F H7F 1_555 1_555
C11F C10F 1_555 1_555
H8F C11F 1_555 1_555
C12F C12 1_555 1_555
C13F C12F 1_555 1_555
H9F C13F 1_555 1_555
C14F N1F 1_555 1_555
H10F C14F 1_555 1_555
C7 C8 1_555 1_555
C13 C14 1_555 1_555
C7A C8A 1_555 1_555
O5A C9A 1_555 1_555
C11F C12F 1_555 1_555
C13F C14F 1_555 1_555

#END
