
#######################################################################
#
#                 Cambridge Crystallographic Data Centre
#                                CCDC 
#
#######################################################################
#
# If this CIF has been generated from an entry in the Cambridge 
# Structural Database, then it will include bibliographic, chemical, 
# crystal, experimental, refinement or atomic coordinate data resulting 
# from the CCDC's data processing and validation procedures.
#
#######################################################################

data_UJASUU
_symmetry_cell_setting           triclinic
_symmetry_space_group_name_H-M   'P -1'
_symmetry_Int_Tables_number      2
_space_group_name_Hall           '-P 1'
loop_
_symmetry_equiv_pos_site_id
_symmetry_equiv_pos_as_xyz
1 x,y,z
2 -x,-y,-z
_cell_length_a                   8.82770(10)
_cell_length_b                   8.8751(2)
_cell_length_c                   12.6582(3)
_cell_angle_alpha                81.0037(8)
_cell_angle_beta                 69.8251(9)
_cell_angle_gamma                61.2379(18)
_cell_volume                     815.978
loop_
_atom_site_label
_atom_site_type_symbol
_atom_site_fract_x
_atom_site_fract_y
_atom_site_fract_z
Nd1 Nd 1.08292(3) -0.22930(3) 0.582378(17)
O1 O 0.8653(4) -0.2663(4) 0.5026(3)
O2 O 0.9184(4) -0.0476(4) 0.4356(2)
C1 C 0.8482(5) -0.1427(5) 0.4353(3)
C2 C 0.7483(5) -0.1084(5) 0.3526(3)
C3 C 0.5957(5) -0.1338(5) 0.3811(4)
H1 H 0.5569 -0.1805 0.4520
C4 C 0.5006(5) -0.0898(5) 0.3041(3)
C5 C 0.3233(5) -0.0985(5) 0.3397(3)
O3 O 0.3073(4) -0.2141(4) 0.4061(2)
O4 O 0.2008(4) 0.0190(4) 0.3016(2)
C6 C 0.5617(5) -0.0289(5) 0.1985(3)
H2 H 0.4947 0.0030 0.1470
C7 C 0.7207(5) -0.0149(5) 0.1687(3)
C8 C 0.8121(5) -0.0493(5) 0.2471(3)
H3 H 0.9167 -0.0324 0.2284
O5 O 0.7994(4) 0.0329(4) 0.0640(2)
C9 C 0.7395(6) 0.0240(5) -0.0239(4)
H4 H 0.7228 -0.0804 -0.0147
H5 H 0.8343 0.0137 -0.0968
O6 O 0.5733(4) 0.1707(4) -0.0260(3)
C10 C 0.5863(5) 0.3081(5) -0.0899(3)
C11 C 0.7273(5) 0.3487(5) -0.1065(4)
H6 H 0.8153 0.2881 -0.0682
C12 C 0.7358(5) 0.4807(5) -0.1808(3)
C13 C 0.8843(5) 0.5294(5) -0.2080(4)
O7 O 0.9635(4) 0.4974(5) -0.1299(3)
H7 H 1.0550 0.5248 -0.1562
O8 O 0.9258(4) 0.5980(4) -0.2966(3)
C14 C 0.6054(5) 0.5721(5) -0.2354(4)
H8 H 0.6153 0.6584 -0.2881
C15 C 0.4597(5) 0.5357(5) -0.2119(3)
C16 C 0.3252(5) 0.6307(5) -0.2754(4)
O9 O 0.1600(4) 0.6611(4) -0.2304(3)
O10 O 0.3780(4) 0.6783(4) -0.3746(2)
C17 C 0.4486(5) 0.4057(5) -0.1381(3)
H9 H 0.3476 0.3835 -0.1205
O11 O 1.2570(4) -0.5101(4) 0.5021(3)
H10 H 1.2185 -0.5945 0.5041
H11 H 1.3738 -0.5538 0.4607
Nd1A Nd 0.91708(3) 0.22930(3) 0.417622(17)
Nd1_2 Nd 0.08292(3) -0.22930(3) 0.582378(17)
Nd1A_2 Nd -0.08292(3) 0.22930(3) 0.417622(17)
Nd1_3 Nd 1.08292(3) 0.77070(3) -0.417622(17)
Nd1_4 Nd 0.08292(3) 0.77070(3) -0.417622(17)
O2A O 1.0816(4) 0.0476(4) 0.5644(2)
O3_2 O 1.3073(4) -0.2141(4) 0.4061(2)
O4A O 0.7992(4) -0.0190(4) 0.6984(2)
O8_2 O 0.9258(4) -0.4020(4) 0.7034(3)
O9_2 O 1.1600(4) -0.3389(4) 0.7696(3)
O10_2 O 1.3780(4) -0.3217(4) 0.6254(2)
loop_
_geom_bond_atom_site_label_1
_geom_bond_atom_site_label_2
_geom_bond_site_symmetry_1
_geom_bond_site_symmetry_2
Nd1 O1 1_555 1_555
O1 C1 1_555 1_555
O2 Nd1 1_555 1_555
C1 O2 1_555 1_555
C2 C1 1_555 1_555
C3 C2 1_555 1_555
H1 C3 1_555 1_555
C4 C3 1_555 1_555
C5 C4 1_555 1_555
O3 C5 1_555 1_555
O4 C5 1_555 1_555
C6 C4 1_555 1_555
H2 C6 1_555 1_555
C7 C6 1_555 1_555
C8 C2 1_555 1_555
H3 C8 1_555 1_555
O5 C7 1_555 1_555
C9 O5 1_555 1_555
H4 C9 1_555 1_555
H5 C9 1_555 1_555
O6 C9 1_555 1_555
C10 O6 1_555 1_555
C11 C10 1_555 1_555
H6 C11 1_555 1_555
C12 C11 1_555 1_555
C13 C12 1_555 1_555
O7 C13 1_555 1_555
H7 O7 1_555 1_555
O8 C13 1_555 1_555
C14 C12 1_555 1_555
H8 C14 1_555 1_555
C15 C14 1_555 1_555
C16 C15 1_555 1_555
O9 C16 1_555 1_555
O10 C16 1_555 1_555
C17 C10 1_555 1_555
H9 C17 1_555 1_555
O11 Nd1 1_555 1_555
H10 O11 1_555 1_555
H11 O11 1_555 1_555
Nd1A O2 1_555 1_555
Nd1_2 O3 1_555 1_555
Nd1A_2 O4 1_555 1_555
Nd1_3 O8 1_555 1_555
Nd1_4 O9 1_555 1_555
O2A Nd1 1_555 1_555
O3_2 Nd1 1_555 1_555
O4A Nd1 1_555 1_555
O8_2 Nd1 1_555 1_555
O9_2 Nd1 1_555 1_555
O10_2 Nd1 1_555 1_555
C7 C8 1_555 1_555
C15 C17 1_555 1_555
O10 Nd1_4 1_555 1_555
Nd1A O2A 1_555 1_555

#END
