
#######################################################################
#
#                 Cambridge Crystallographic Data Centre
#                                CCDC 
#
#######################################################################
#
# If this CIF has been generated from an entry in the Cambridge 
# Structural Database, then it will include bibliographic, chemical, 
# crystal, experimental, refinement or atomic coordinate data resulting 
# from the CCDC's data processing and validation procedures.
#
#######################################################################

data_UJASOO
_symmetry_cell_setting           triclinic
_symmetry_space_group_name_H-M   'P -1'
_symmetry_Int_Tables_number      2
_space_group_name_Hall           '-P 1'
loop_
_symmetry_equiv_pos_site_id
_symmetry_equiv_pos_as_xyz
1 x,y,z
2 -x,-y,-z
_cell_length_a                   8.8934(2)
_cell_length_b                   8.9328(2)
_cell_length_c                   12.6735(3)
_cell_angle_alpha                81.2596(11)
_cell_angle_beta                 69.6581(11)
_cell_angle_gamma                60.9613(10)
_cell_volume                     825.185
loop_
_atom_site_label
_atom_site_type_symbol
_atom_site_fract_x
_atom_site_fract_y
_atom_site_fract_z
La1 La 1.08300(3) -0.23046(3) 0.586207(19)
O1 O 0.8571(4) -0.2615(4) 0.5073(3)
O2 O 0.9208(4) -0.0526(4) 0.4344(2)
C1 C 0.8463(5) -0.1447(5) 0.4372(3)
C2 C 0.7498(6) -0.1108(5) 0.3533(4)
C3 C 0.5967(6) -0.1360(5) 0.3815(3)
H1 H 0.5568 -0.1814 0.4523
C4 C 0.5052(5) -0.0936(5) 0.3044(3)
C5 C 0.3297(6) -0.1026(5) 0.3387(3)
O3 O 0.3129(4) -0.2154(4) 0.4071(2)
O4 O 0.2076(4) 0.0108(4) 0.2982(2)
C6 C 0.5652(6) -0.0331(5) 0.1993(3)
H2 H 0.4984 -0.0013 0.1481
C7 C 0.7240(6) -0.0192(5) 0.1691(3)
C8 C 0.8126(5) -0.0523(5) 0.2486(3)
H3 H 0.9158 -0.0345 0.2305
O5 O 0.8032(4) 0.0286(4) 0.0647(2)
C9 C 0.7448(6) 0.0192(6) -0.0233(4)
H4 H 0.7291 -0.0848 -0.0146
H5 H 0.8393 0.0090 -0.0962
O6 O 0.5786(4) 0.1656(4) -0.0243(3)
C10 C 0.5908(6) 0.3031(5) -0.0870(4)
C11 C 0.7296(6) 0.3437(5) -0.1026(3)
H6 H 0.8177 0.2827 -0.0650
C12 C 0.7358(6) 0.4767(5) -0.1751(3)
C13 C 0.8830(6) 0.5256(5) -0.2029(4)
O7 O 0.9653(5) 0.4881(4) -0.1259(3)
H7 H 1.0569 0.5155 -0.1521
O8 O 0.9222(4) 0.5970(4) -0.2900(3)
C14 C 0.6060(6) 0.5673(5) -0.2289(4)
H8 H 0.6150 0.6538 -0.2806
C15 C 0.4622(6) 0.5309(5) -0.2066(3)
C16 C 0.3266(6) 0.6256(5) -0.2688(4)
O9 O 0.1645(4) 0.6499(4) -0.2243(3)
O10 O 0.3785(4) 0.6774(4) -0.3662(3)
C17 C 0.4536(6) 0.4001(5) -0.1338(4)
H9 H 0.3538 0.3774 -0.1163
O11 O 1.2588(4) -0.5130(4) 0.4965(3)
H10 H 1.2202 -0.5974 0.4986
H11 H 1.3755 -0.5567 0.4552
La1A La 0.91700(3) 0.23046(3) 0.413793(19)
La1_2 La 0.08300(3) -0.23046(3) 0.586207(19)
La1A_2 La -0.08300(3) 0.23046(3) 0.413793(19)
La1_3 La 1.08300(3) 0.76954(3) -0.413793(19)
La1_4 La 0.08300(3) 0.76954(3) -0.413793(19)
O2A O 1.0792(4) 0.0526(4) 0.5656(2)
O3_2 O 1.3129(4) -0.2154(4) 0.4071(2)
O4A O 0.7924(4) -0.0108(4) 0.7018(2)
O8_2 O 0.9222(4) -0.4030(4) 0.7100(3)
O9_2 O 1.1645(4) -0.3501(4) 0.7757(3)
O10_2 O 1.3785(4) -0.3226(4) 0.6338(3)
loop_
_geom_bond_atom_site_label_1
_geom_bond_atom_site_label_2
_geom_bond_site_symmetry_1
_geom_bond_site_symmetry_2
La1 O1 1_555 1_555
O1 C1 1_555 1_555
O2 La1 1_555 1_555
C1 O2 1_555 1_555
C2 C1 1_555 1_555
C3 C2 1_555 1_555
H1 C3 1_555 1_555
C4 C3 1_555 1_555
C5 C4 1_555 1_555
O3 C5 1_555 1_555
O4 C5 1_555 1_555
C6 C4 1_555 1_555
H2 C6 1_555 1_555
C7 C6 1_555 1_555
C8 C2 1_555 1_555
H3 C8 1_555 1_555
O5 C7 1_555 1_555
C9 O5 1_555 1_555
H4 C9 1_555 1_555
H5 C9 1_555 1_555
O6 C9 1_555 1_555
C10 O6 1_555 1_555
C11 C10 1_555 1_555
H6 C11 1_555 1_555
C12 C11 1_555 1_555
C13 C12 1_555 1_555
O7 C13 1_555 1_555
H7 O7 1_555 1_555
O8 C13 1_555 1_555
C14 C12 1_555 1_555
H8 C14 1_555 1_555
C15 C14 1_555 1_555
C16 C15 1_555 1_555
O9 C16 1_555 1_555
O10 C16 1_555 1_555
C17 C10 1_555 1_555
H9 C17 1_555 1_555
O11 La1 1_555 1_555
H10 O11 1_555 1_555
H11 O11 1_555 1_555
La1A O2 1_555 1_555
La1_2 O3 1_555 1_555
La1A_2 O4 1_555 1_555
La1_3 O8 1_555 1_555
La1_4 O9 1_555 1_555
O2A La1 1_555 1_555
O3_2 La1 1_555 1_555
O4A La1 1_555 1_555
O8_2 La1 1_555 1_555
O9_2 La1 1_555 1_555
O10_2 La1 1_555 1_555
C7 C8 1_555 1_555
C15 C17 1_555 1_555
O10 La1_4 1_555 1_555
La1A O2A 1_555 1_555

#END
