
#######################################################################
#
#                 Cambridge Crystallographic Data Centre
#                                CCDC 
#
#######################################################################
#
# If this CIF has been generated from an entry in the Cambridge 
# Structural Database, then it will include bibliographic, chemical, 
# crystal, experimental, refinement or atomic coordinate data resulting 
# from the CCDC's data processing and validation procedures.
#
#######################################################################

data_UJATUV
_symmetry_cell_setting           triclinic
_symmetry_space_group_name_H-M   'P -1'
_symmetry_Int_Tables_number      2
_space_group_name_Hall           '-P 1'
loop_
_symmetry_equiv_pos_site_id
_symmetry_equiv_pos_as_xyz
1 x,y,z
2 -x,-y,-z
_cell_length_a                   8.5679(3)
_cell_length_b                   9.9939(3)
_cell_length_c                   12.5472(5)
_cell_angle_alpha                91.5960(15)
_cell_angle_beta                 94.8827(14)
_cell_angle_gamma                93.4052(16)
_cell_volume                     1068
loop_
_atom_site_label
_atom_site_type_symbol
_atom_site_fract_x
_atom_site_fract_y
_atom_site_fract_z
Nd1 Nd 0.40284(3) 0.60355(3) -0.32267(2)
O1 O 0.3606(5) 0.7364(4) -0.1512(3)
O2 O 0.4736(5) 0.8404(4) -0.2797(3)
C1 C 0.4074(6) 0.8437(5) -0.1938(4)
C2 C 0.3791(6) 0.9766(5) -0.1429(4)
C3 C 0.4200(6) 1.0912(5) -0.1985(4)
H1 H 0.4685 1.0844 -0.2636
C4 C 0.3872(6) 1.2166(5) -0.1551(4)
C5 C 0.4155(7) 1.3422(5) -0.2153(4)
O3 O 0.5051(5) 1.3488(4) -0.2905(3)
O4 O 0.3420(5) 1.4428(4) -0.1876(3)
C6 C 0.3183(6) 1.2250(5) -0.0598(5)
H2 H 0.2970 1.3101 -0.0309
C7 C 0.2795(6) 1.1085(6) -0.0056(4)
C8 C 0.3100(6) 0.9834(5) -0.0473(4)
H3 H 0.2839 0.9041 -0.0109
O5 O 0.2120(5) 1.1297(4) 0.0893(3)
C9 C 0.1574(7) 1.0121(6) 0.1407(5)
H4 H 0.2475 0.9627 0.1697
H5 H 0.0912 0.9522 0.0888
C10 C 0.0636(7) 1.0563(5) 0.2296(5)
H6 H 0.1295 1.1134 0.2837
H7 H -0.0266 1.1064 0.2018
O6 O 0.0117(5) 0.9316(4) 0.2739(3)
C11 C -0.0865(6) 0.9348(5) 0.3542(4)
C12 C -0.1359(6) 0.8085(5) 0.3881(4)
H8 H -0.0991 0.7300 0.3568
C13 C -0.2385(6) 0.7974(5) 0.4677(4)
C14 C -0.2988(6) 0.6578(5) 0.4958(4)
O7 O -0.2564(5) 0.5590(4) 0.4439(3)
O8 O -0.3889(5) 0.6474(4) 0.5694(3)
C15 C -0.2918(6) 0.9122(5) 0.5161(4)
H9 H -0.3600 0.9050 0.5718
C16 C -0.2419(6) 1.0374(5) 0.4802(4)
C17 C -0.2959(6) 1.1641(5) 0.5273(4)
O9 O -0.2879(5) 1.2708(4) 0.4820(3)
O10 O -0.3528(5) 1.1500(4) 0.6208(3)
H10 H -0.3986 1.2189 0.6366
C18 C -0.1398(6) 1.0490(5) 0.3993(4)
H11 H -0.1074 1.1349 0.3756
O11 O 0.1188(5) 0.6319(4) -0.2962(3)
H12 H 0.1037 0.6455 -0.2266
H13 H 0.0372 0.5855 -0.3329
O12 O 0.6592(5) 0.6015(4) -0.2027(3)
H14 H 0.7077 0.6820 -0.1841
H15 H 0.6497 0.5482 -0.1468
Nd1_2 Nd 0.40284(3) 1.60355(3) -0.32267(2)
Nd1A Nd -0.40284(3) 0.39645(3) 0.32267(2)
Nd1_3 Nd -0.59716(3) 0.60355(3) 0.67733(2)
Nd1A_2 Nd -0.40284(3) 1.39645(3) 0.32267(2)
O3_2 O 0.5051(5) 0.3488(4) -0.2905(3)
O4_2 O 0.3420(5) 0.4428(4) -0.1876(3)
O7A O 0.2564(5) 0.4410(4) -0.4439(3)
O8_2 O 0.6111(5) 0.6474(4) -0.4306(3)
O9A O 0.2879(5) 0.7292(4) -0.4820(3)
O13 O 0.3264(7) 0.5686(5) 0.0385(4)
H16 H 0.4086 0.6153 0.0157
H17 H 0.2430 0.5515 -0.0096
O14 O 0.1382(5) 0.5459(4) 0.3399(4)
H18 H 0.1823 0.4780 0.3075
H19 H 0.0646 0.5832 0.2968
O15 O 0.0516(13) 0.5723(11) 0.9185(9)
O16 O -0.0698(17) 0.3143(15) 0.8487(12)
loop_
_geom_bond_atom_site_label_1
_geom_bond_atom_site_label_2
_geom_bond_site_symmetry_1
_geom_bond_site_symmetry_2
Nd1 O1 1_555 1_555
O1 C1 1_555 1_555
O2 Nd1 1_555 1_555
C1 O2 1_555 1_555
C2 C1 1_555 1_555
C3 C2 1_555 1_555
H1 C3 1_555 1_555
C4 C3 1_555 1_555
C5 C4 1_555 1_555
O3 C5 1_555 1_555
O4 C5 1_555 1_555
C6 C4 1_555 1_555
H2 C6 1_555 1_555
C7 C6 1_555 1_555
C8 C2 1_555 1_555
H3 C8 1_555 1_555
O5 C7 1_555 1_555
C9 O5 1_555 1_555
H4 C9 1_555 1_555
H5 C9 1_555 1_555
C10 C9 1_555 1_555
H6 C10 1_555 1_555
H7 C10 1_555 1_555
O6 C10 1_555 1_555
C11 O6 1_555 1_555
C12 C11 1_555 1_555
H8 C12 1_555 1_555
C13 C12 1_555 1_555
C14 C13 1_555 1_555
O7 C14 1_555 1_555
O8 C14 1_555 1_555
C15 C13 1_555 1_555
H9 C15 1_555 1_555
C16 C15 1_555 1_555
C17 C16 1_555 1_555
O9 C17 1_555 1_555
O10 C17 1_555 1_555
H10 O10 1_555 1_555
C18 C11 1_555 1_555
H11 C18 1_555 1_555
O11 Nd1 1_555 1_555
H12 O11 1_555 1_555
H13 O11 1_555 1_555
O12 Nd1 1_555 1_555
H14 O12 1_555 1_555
H15 O12 1_555 1_555
O13 H16 1_555 1_555
H17 O13 1_555 1_555
O14 H18 1_555 1_555
H19 O14 1_555 1_555
Nd1_2 O3 1_555 1_555
Nd1A O7 1_555 1_555
Nd1_3 O8 1_555 1_555
Nd1A_2 O9 1_555 1_555
O3_2 Nd1 1_555 1_555
O4_2 Nd1 1_555 1_555
O7A Nd1 1_555 1_555
O8_2 Nd1 1_555 1_555
O9A Nd1 1_555 1_555
O4 Nd1_2 1_555 1_555
C7 C8 1_555 1_555
C16 C18 1_555 1_555

#END
