
#######################################################################
#
#                 Cambridge Crystallographic Data Centre
#                                CCDC 
#
#######################################################################
#
# If this CIF has been generated from an entry in the Cambridge 
# Structural Database, then it will include bibliographic, chemical, 
# crystal, experimental, refinement or atomic coordinate data resulting 
# from the CCDC's data processing and validation procedures.
#
#######################################################################

data_UJATAB
_symmetry_cell_setting           triclinic
_symmetry_space_group_name_H-M   'P -1'
_symmetry_Int_Tables_number      2
_space_group_name_Hall           '-P 1'
loop_
_symmetry_equiv_pos_site_id
_symmetry_equiv_pos_as_xyz
1 x,y,z
2 -x,-y,-z
_cell_length_a                   9.9205(2)
_cell_length_b                   10.6776(3)
_cell_length_c                   11.7567(4)
_cell_angle_alpha                96.6635(12)
_cell_angle_beta                 108.3377(13)
_cell_angle_gamma                106.8366(15)
_cell_volume                     1101.63
loop_
_atom_site_label
_atom_site_type_symbol
_atom_site_fract_x
_atom_site_fract_y
_atom_site_fract_z
Sm1 Sm 1.095963(18) 0.860672(16) 0.481659(15)
O1 O 0.8427(3) 0.7166(2) 0.3303(2)
O2 O 0.8424(3) 0.9124(2) 0.4109(2)
C1 C 0.7711(4) 0.7950(3) 0.3429(3)
C2 C 0.6033(4) 0.7471(3) 0.2815(3)
C3 C 0.5180(4) 0.8003(3) 0.3331(3)
H1 H 0.5667 0.8723 0.4041
C4 C 0.3610(4) 0.7477(3) 0.2805(3)
C5 C 0.2654(4) 0.7912(3) 0.3423(3)
O3 O 0.3313(3) 0.8814(2) 0.4431(2)
O4 O 0.1243(3) 0.7375(2) 0.2978(2)
C6 C 0.2881(4) 0.6482(3) 0.1722(3)
H2 H 0.1808 0.6147 0.1353
C7 C 0.3743(4) 0.5982(3) 0.1185(3)
C8 C 0.5315(4) 0.6443(3) 0.1741(3)
H3 H 0.5895 0.6065 0.1396
O5 O 0.3148(3) 0.5008(2) 0.0107(2)
C9 C 0.1557(4) 0.4552(3) -0.0531(3)
H4 H 0.1245 0.5331 -0.0709
H5 H 0.1292 0.3935 -0.1326
O6 O 0.0753(3) 0.3879(2) 0.0154(2)
C10 C 0.1085(4) 0.2788(3) 0.0520(3)
C11 C 0.0759(4) 0.2471(3) 0.1543(3)
H6 H 0.0346 0.3001 0.1942
C12 C 0.1038(4) 0.1380(3) 0.1979(3)
C13 C 0.0747(4) 0.1033(3) 0.3104(3)
O7 O 0.0261(3) 0.1774(2) 0.3677(2)
O8 O 0.1049(3) 0.0024(2) 0.3427(2)
C14 C 0.1624(4) 0.0592(3) 0.1374(3)
H7 H 0.1787 -0.0172 0.1650
C15 C 0.1964(4) 0.0933(3) 0.0369(3)
C16 C 0.2609(4) 0.0122(3) -0.0290(3)
O9 O 0.2861(3) 0.0387(3) -0.1202(2)
O10 O 0.2859(3) -0.0871(3) 0.0199(2)
H8 H 0.3266 -0.1383 -0.0293
C17 C 0.1692(4) 0.2025(3) -0.0074(3)
H9 H 0.1918 0.2243 -0.0770
O11 O 1.2957(3) 0.8897(2) 0.6801(2)
H10 H 1.3058 0.9320 0.7556
H11 H 1.3913 0.8819 0.6932
O12 O 1.1045(3) 0.6403(2) 0.5116(2)
H12 H 1.1580 0.6344 0.5883
H13 H 1.1116 0.5821 0.4527
Sm1A Sm 0.904037(18) 1.139328(16) 0.518341(15)
Sm1_2 Sm 0.095963(18) 0.860672(16) 0.481659(15)
Sm1A_2 Sm -0.095963(18) 0.139328(16) 0.518341(15)
Sm1_3 Sm 0.095963(18) -0.139328(16) 0.481659(15)
O2A O 1.1576(3) 1.0876(2) 0.5891(2)
O3_2 O 1.3313(3) 0.8814(2) 0.4431(2)
O4_2 O 1.1243(3) 0.7375(2) 0.2978(2)
O7A O 0.9739(3) 0.8226(2) 0.6323(2)
O8_2 O 1.1049(3) 1.0024(2) 0.3427(2)
O13 O 0.5855(3) 0.2223(3) 0.0835(2)
H14 H 0.6449 0.2986 0.1435
H15 H 0.5144 0.2401 0.0229
O14 O 0.4528(3) 0.1439(3) 0.3669(2)
H16 H 0.3588 0.0841 0.3499
H17 H 0.5210 0.1354 0.4357
O15 O 0.7223(4) 0.4342(3) 0.2860(3)
H18 H 0.6418 0.4249 0.3099
H19 H 0.7811 0.5221 0.3033
O16 O 0.2305(5) 0.4640(4) 0.4154(3)
H20 H 0.1719 0.3730 0.4130
H21 H 0.3024 0.4924 0.4997
O17 O 0.4866(4) 0.4059(3) 0.3667(4)
H22 H 0.4465 0.4426 0.4167
H23 H 0.4469 0.3126 0.3532
loop_
_geom_bond_atom_site_label_1
_geom_bond_atom_site_label_2
_geom_bond_site_symmetry_1
_geom_bond_site_symmetry_2
Sm1 O1 1_555 1_555
O1 C1 1_555 1_555
O2 Sm1 1_555 1_555
C1 O2 1_555 1_555
C2 C1 1_555 1_555
C3 C2 1_555 1_555
H1 C3 1_555 1_555
C4 C3 1_555 1_555
C5 C4 1_555 1_555
O3 C5 1_555 1_555
O4 C5 1_555 1_555
C6 C4 1_555 1_555
H2 C6 1_555 1_555
C7 C6 1_555 1_555
C8 C2 1_555 1_555
H3 C8 1_555 1_555
O5 C7 1_555 1_555
C9 O5 1_555 1_555
H4 C9 1_555 1_555
H5 C9 1_555 1_555
O6 C9 1_555 1_555
C10 O6 1_555 1_555
C11 C10 1_555 1_555
H6 C11 1_555 1_555
C12 C11 1_555 1_555
C13 C12 1_555 1_555
O7 C13 1_555 1_555
O8 C13 1_555 1_555
C14 C12 1_555 1_555
H7 C14 1_555 1_555
C15 C14 1_555 1_555
C16 C15 1_555 1_555
O9 C16 1_555 1_555
O10 C16 1_555 1_555
H8 O10 1_555 1_555
C17 C10 1_555 1_555
H9 C17 1_555 1_555
O11 Sm1 1_555 1_555
H10 O11 1_555 1_555
H11 O11 1_555 1_555
O12 Sm1 1_555 1_555
H12 O12 1_555 1_555
H13 O12 1_555 1_555
O13 H14 1_555 1_555
H15 O13 1_555 1_555
O14 H16 1_555 1_555
H17 O14 1_555 1_555
O15 H18 1_555 1_555
H19 O15 1_555 1_555
O16 H20 1_555 1_555
H21 O16 1_555 1_555
O17 H22 1_555 1_555
H23 O17 1_555 1_555
Sm1A O2 1_555 1_555
Sm1_2 O3 1_555 1_555
Sm1A_2 O7 1_555 1_555
Sm1_3 O8 1_555 1_555
O2A Sm1 1_555 1_555
O3_2 Sm1 1_555 1_555
O4_2 Sm1 1_555 1_555
O7A Sm1 1_555 1_555
O8_2 Sm1 1_555 1_555
O4 Sm1_2 1_555 1_555
C7 C8 1_555 1_555
C15 C17 1_555 1_555
Sm1A O2A 1_555 1_555

#END
