
#######################################################################
#
#                 Cambridge Crystallographic Data Centre
#                                CCDC 
#
#######################################################################
#
# If this CIF has been generated from an entry in the Cambridge 
# Structural Database, then it will include bibliographic, chemical, 
# crystal, experimental, refinement or atomic coordinate data resulting 
# from the CCDC's data processing and validation procedures.
#
#######################################################################

data_UJATEF
_symmetry_cell_setting           monoclinic
_symmetry_space_group_name_H-M   'P 21/c'
_symmetry_Int_Tables_number      14
_space_group_name_Hall           '-P 2ybc'
loop_
_symmetry_equiv_pos_site_id
_symmetry_equiv_pos_as_xyz
1 x,y,z
2 -x,1/2+y,1/2-z
3 -x,-y,-z
4 x,1/2-y,1/2+z
_cell_length_a                   14.8023(6)
_cell_length_b                   20.1819(6)
_cell_length_c                   7.1981(2)
_cell_angle_alpha                90
_cell_angle_beta                 103.2972(14)
_cell_angle_gamma                90
_cell_volume                     2092.7
loop_
_atom_site_label
_atom_site_type_symbol
_atom_site_fract_x
_atom_site_fract_y
_atom_site_fract_z
Dy1 Dy 0.864478(18) 0.141934(12) 0.19290(4)
O1 O 0.7097(3) 0.12573(19) 0.2515(6)
O2 O 0.7472(3) 0.22684(19) 0.1830(6)
C1 C 0.6892(4) 0.1870(3) 0.2244(8)
C2 C 0.5964(4) 0.2117(3) 0.2425(8)
C3 C 0.5802(4) 0.2797(3) 0.2385(8)
H1 H 0.6270 0.3097 0.2208
C4 C 0.4956(4) 0.3034(3) 0.2606(8)
C5 C 0.4815(5) 0.3765(3) 0.2671(9)
O3 O 0.4009(3) 0.3932(2) 0.3000(8)
H2 H 0.3999 0.4342 0.3196
O4 O 0.5403(3) 0.4170(2) 0.2489(7)
C6 C 0.4251(4) 0.2602(3) 0.2802(9)
H3 H 0.3671 0.2769 0.2949
C7 C 0.4406(4) 0.1924(3) 0.2779(9)
C8 C 0.5263(4) 0.1680(3) 0.2618(9)
H4 H 0.5370 0.1216 0.2639
O5 O 0.3741(3) 0.1457(2) 0.2922(7)
C9 C 0.2874(5) 0.1689(4) 0.3177(10)
H5 H 0.2981 0.1980 0.4301
H6 H 0.2498 0.1308 0.3395
O6 O 0.2371(3) 0.2053(2) 0.1541(6)
C10 C 0.1830(4) 0.1688(3) 0.0056(9)
C11 C 0.1978(4) 0.1026(3) -0.0242(8)
H7 H 0.2483 0.0798 0.0556
C12 C 0.1373(4) 0.0693(3) -0.1742(8)
C13 C 0.1473(4) -0.0037(3) -0.1901(8)
O7 O 0.1152(3) -0.0334(2) -0.3473(5)
O8 O 0.1842(3) -0.0364(2) -0.0416(6)
C14 C 0.0634(4) 0.1028(3) -0.2922(8)
H8 H 0.0232 0.0802 -0.3943
C15 C 0.0488(4) 0.1697(3) -0.2598(8)
C16 C -0.0352(4) 0.2047(3) -0.3729(8)
O9 O -0.0486(3) 0.2638(2) -0.3325(6)
O10 O -0.0895(3) 0.1720(2) -0.5012(6)
C17 C 0.1099(4) 0.2031(3) -0.1118(9)
H9 H 0.1015 0.2490 -0.0917
O11 O 0.8164(3) 0.1584(2) -0.1328(6)
H10 H 0.7910 0.1320 -0.2260
H11 H 0.8037 0.2065 -0.1910
O12 O 1.0075(4) 0.1047(3) 0.1516(8)
H12 H 1.0482 0.0761 0.2041
H13 H 0.9548 0.0857 0.1218
Dy1B Dy 0.135522(18) -0.141934(12) -0.19290(4)
Dy1C Dy -0.135522(18) 0.358066(12) -0.30710(4)
Dy1_2 Dy -0.135522(18) 0.141934(12) -0.80710(4)
O7B O 0.8848(3) 0.0334(2) 0.3473(5)
O8B O 0.8158(3) 0.0364(2) 0.0416(6)
O9C O 0.9514(3) 0.2362(2) 0.1675(6)
O10_2 O 0.9105(3) 0.1720(2) 0.4988(6)
O13 O 0.3964(3) -0.0140(2) 0.9034(8)
H14 H 0.3622 -0.0497 0.8526
H15 H 0.4164 -0.0359 1.0131
O14 O 0.2880(3) -0.0728(2) 1.3786(6)
H16 H 0.2880 -0.0888 1.4881
H17 H 0.3377 -0.0758 1.3392
O15 O 0.1279(5) 0.0192(4) 1.3052(9)
H18 H 0.1441 0.0028 1.2050
H19 H 0.1252 0.0031 1.4164
loop_
_geom_bond_atom_site_label_1
_geom_bond_atom_site_label_2
_geom_bond_site_symmetry_1
_geom_bond_site_symmetry_2
Dy1 O1 1_555 1_555
O1 C1 1_555 1_555
O2 Dy1 1_555 1_555
C1 O2 1_555 1_555
C2 C1 1_555 1_555
C3 C2 1_555 1_555
H1 C3 1_555 1_555
C4 C3 1_555 1_555
C5 C4 1_555 1_555
O3 C5 1_555 1_555
H2 O3 1_555 1_555
O4 C5 1_555 1_555
C6 C4 1_555 1_555
H3 C6 1_555 1_555
C7 C6 1_555 1_555
C8 C2 1_555 1_555
H4 C8 1_555 1_555
O5 C7 1_555 1_555
C9 O5 1_555 1_555
H5 C9 1_555 1_555
H6 C9 1_555 1_555
O6 C9 1_555 1_555
C10 O6 1_555 1_555
C11 C10 1_555 1_555
H7 C11 1_555 1_555
C12 C11 1_555 1_555
C13 C12 1_555 1_555
O7 C13 1_555 1_555
O8 C13 1_555 1_555
C14 C12 1_555 1_555
H8 C14 1_555 1_555
C15 C14 1_555 1_555
C16 C15 1_555 1_555
O9 C16 1_555 1_555
O10 C16 1_555 1_555
C17 C10 1_555 1_555
H9 C17 1_555 1_555
O11 Dy1 1_555 1_555
H10 O11 1_555 1_555
H11 O11 1_555 1_555
O12 Dy1 1_555 1_555
H12 O12 1_555 1_555
H13 O12 1_555 1_555
O13 H14 1_555 1_555
H15 O13 1_555 1_555
O14 H16 1_555 1_555
H17 O14 1_555 1_555
O15 H18 1_555 1_555
H19 O15 1_555 1_555
Dy1B O7 1_555 1_555
Dy1C O9 1_555 1_555
Dy1_2 O10 1_555 1_555
O7B Dy1 1_555 1_555
O8B Dy1 1_555 1_555
O9C Dy1 1_555 1_555
O10_2 Dy1 1_555 1_555
C7 C8 1_555 1_555
O8 Dy1B 1_555 1_555
C15 C17 1_555 1_555

#END
