
#######################################################################
#
#                 Cambridge Crystallographic Data Centre
#                                CCDC 
#
#######################################################################
#
# If this CIF has been generated from an entry in the Cambridge 
# Structural Database, then it will include bibliographic, chemical, 
# crystal, experimental, refinement or atomic coordinate data resulting 
# from the CCDC's data processing and validation procedures.
#
#######################################################################

data_UJAVEH
_symmetry_cell_setting           triclinic
_symmetry_space_group_name_H-M   'P -1'
_symmetry_Int_Tables_number      2
_space_group_name_Hall           '-P 1'
loop_
_symmetry_equiv_pos_site_id
_symmetry_equiv_pos_as_xyz
1 x,y,z
2 -x,-y,-z
_cell_length_a                   8.0901(3)
_cell_length_b                   10.1509(4)
_cell_length_c                   14.6134(7)
_cell_angle_alpha                82.8401(18)
_cell_angle_beta                 88.141(2)
_cell_angle_gamma                66.521(3)
_cell_volume                     1091.94
loop_
_atom_site_label
_atom_site_type_symbol
_atom_site_fract_x
_atom_site_fract_y
_atom_site_fract_z
Ce1 Ce -0.37853(4) 0.56670(3) 0.675511(19)
O1 O -0.2484(4) 0.4065(3) 0.5468(2)
O2 O -0.3896(4) 0.3416(4) 0.4435(2)
C1 C -0.2877(6) 0.3145(5) 0.5137(3)
C2 C -0.2093(6) 0.1595(5) 0.5590(3)
C3 C -0.2483(6) 0.0544(5) 0.5226(3)
H1 H -0.3197 0.0782 0.4679
C4 C -0.1805(6) -0.0864(5) 0.5682(3)
C5 C -0.2194(6) -0.2011(5) 0.5325(3)
O3 O -0.2013(4) -0.3158(4) 0.5796(2)
O4 O -0.2718(5) -0.1732(4) 0.4457(2)
H2 H -0.2671 -0.2571 0.4293
C6 C -0.0721(6) -0.1234(5) 0.6468(3)
H3 H -0.0272 -0.2194 0.6774
C7 C -0.0300(6) -0.0170(5) 0.6801(3)
C8 C -0.0965(6) 0.1241(5) 0.6367(3)
H4 H -0.0659 0.1954 0.6594
O5 O 0.0783(4) -0.0654(4) 0.7589(2)
C9 C 0.1174(7) 0.0384(5) 0.8026(3)
H5 H 0.0068 0.1263 0.8080
H6 H 0.2075 0.0664 0.7674
C10 C 0.1920(6) -0.0403(5) 0.8972(3)
H7 H 0.1033 -0.0721 0.9306
H8 H 0.3043 -0.1265 0.8912
O6 O 0.2271(5) 0.0595(4) 0.9455(2)
C11 C 0.2900(6) 0.0123(5) 1.0354(3)
C12 C 0.3247(6) -0.1268(5) 1.0784(3)
H9 H 0.3063 -0.1955 1.0460
C13 C 0.3876(6) -0.1636(5) 1.1708(3)
C14 C 0.4020(6) -0.3084(5) 1.2176(3)
O7 O 0.4732(5) -0.3527(4) 1.2978(2)
O8 O 0.3372(5) -0.3815(4) 1.1785(2)
C15 C 0.4151(6) -0.0631(5) 1.2186(3)
H10 H 0.4601 -0.0895 1.2804
C16 C 0.3760(6) 0.0759(5) 1.1750(3)
C17 C 0.3901(6) 0.1917(5) 1.2258(3)
O9 O 0.4879(5) 0.1583(4) 1.2969(2)
O10 O 0.2971(5) 0.3239(4) 1.1957(2)
C18 C 0.3102(6) 0.1153(5) 1.0840(3)
H11 H 0.2794 0.2115 1.0554
O11 O -0.0489(4) 0.4179(4) 0.7146(2)
H12 H -0.1137 0.5087 0.7271
H13 H 0.0355 0.4128 0.6719
O12 O -0.6675(5) 0.6474(4) 0.7640(3)
H14 H -0.6868 0.5859 0.8109
H15 H -0.7520 0.7385 0.7556
Ce1A Ce -0.62147(4) 0.43330(3) 0.324489(19)
Ce1_2 Ce -0.37853(4) -0.43330(3) 0.675511(19)
Ce1A_2 Ce 0.37853(4) -0.56670(3) 1.324489(19)
Ce1A_3 Ce 0.37853(4) 0.43330(3) 1.324489(19)
O2A O -0.6104(4) 0.6584(4) 0.5565(2)
O3_2 O -0.2013(4) 0.6842(4) 0.5796(2)
O7A O -0.4732(5) 0.3527(4) 0.7022(2)
O8A O -0.3372(5) 0.3815(4) 0.8215(2)
O9A O -0.4879(5) 0.8417(4) 0.7031(2)
O10A O -0.2971(5) 0.6761(4) 0.8043(2)
O13 O 0.2323(4) 0.4117(4) 0.6057(2)
H16 H 0.2375 0.4711 0.5557
H17 H 0.3334 0.3911 0.6390
loop_
_geom_bond_atom_site_label_1
_geom_bond_atom_site_label_2
_geom_bond_site_symmetry_1
_geom_bond_site_symmetry_2
Ce1 O1 1_555 1_555
O1 C1 1_555 1_555
O2 C1 1_555 1_555
C1 C2 1_555 1_555
C2 C3 1_555 1_555
C3 H1 1_555 1_555
C4 C3 1_555 1_555
C5 C4 1_555 1_555
O3 C5 1_555 1_555
O4 C5 1_555 1_555
H2 O4 1_555 1_555
C6 C4 1_555 1_555
H3 C6 1_555 1_555
C7 C6 1_555 1_555
C8 C2 1_555 1_555
H4 C8 1_555 1_555
O5 C7 1_555 1_555
C9 O5 1_555 1_555
H5 C9 1_555 1_555
H6 C9 1_555 1_555
C10 C9 1_555 1_555
H7 C10 1_555 1_555
H8 C10 1_555 1_555
O6 C10 1_555 1_555
C11 O6 1_555 1_555
C12 C11 1_555 1_555
H9 C12 1_555 1_555
C13 C12 1_555 1_555
C14 C13 1_555 1_555
O7 C14 1_555 1_555
O8 C14 1_555 1_555
C15 C13 1_555 1_555
H10 C15 1_555 1_555
C16 C15 1_555 1_555
C17 C16 1_555 1_555
O9 C17 1_555 1_555
O10 C17 1_555 1_555
C18 C11 1_555 1_555
H11 C18 1_555 1_555
O11 Ce1 1_555 1_555
H12 O11 1_555 1_555
H13 O11 1_555 1_555
O12 Ce1 1_555 1_555
H14 O12 1_555 1_555
H15 O12 1_555 1_555
O13 H16 1_555 1_555
H17 O13 1_555 1_555
Ce1A O2 1_555 1_555
Ce1_2 O3 1_555 1_555
Ce1A_2 O7 1_555 1_555
Ce1A_3 O9 1_555 1_555
O2A Ce1 1_555 1_555
O3_2 Ce1 1_555 1_555
O7A Ce1 1_555 1_555
O8A Ce1 1_555 1_555
O9A Ce1 1_555 1_555
O10A Ce1 1_555 1_555
C7 C8 1_555 1_555
O8 Ce1A_2 1_555 1_555
C16 C18 1_555 1_555
O10 Ce1A_3 1_555 1_555

#END
