
#######################################################################
#
#                 Cambridge Crystallographic Data Centre
#                                CCDC 
#
#######################################################################
#
# If this CIF has been generated from an entry in the Cambridge 
# Structural Database, then it will include bibliographic, chemical, 
# crystal, experimental, refinement or atomic coordinate data resulting 
# from the CCDC's data processing and validation procedures.
#
#######################################################################

data_UJAYIN
_symmetry_cell_setting           monoclinic
_symmetry_space_group_name_H-M   'P 21/c'
_symmetry_Int_Tables_number      14
_space_group_name_Hall           '-P 2ybc'
loop_
_symmetry_equiv_pos_site_id
_symmetry_equiv_pos_as_xyz
1 x,y,z
2 x,1/2-y,1/2+z
3 -x,-y,-z
4 -x,1/2+y,1/2-z
_cell_length_a                   10.517(3)
_cell_length_b                   8.206(3)
_cell_length_c                   16.959(4)
_cell_angle_alpha                90
_cell_angle_beta                 99.04(2)
_cell_angle_gamma                90
_cell_volume                     1445.42
loop_
_atom_site_label
_atom_site_type_symbol
_atom_site_fract_x
_atom_site_fract_y
_atom_site_fract_z
Co1 Co 0.26228(6) 0.19591(8) 0.66790(3)
Cl1 Cl 0.37392(12) 0.42723(17) 0.66495(7)
Cl2 Cl 0.32656(13) -0.03640(19) 0.61826(8)
C1 C -0.1282(5) 0.3450(6) 0.4905(3)
H1 H -0.2007 0.3760 0.4528
C2 C -0.0371(4) 0.2420(6) 0.4690(3)
H2 H -0.0467 0.2003 0.4162
C3 C 0.0698(4) 0.1980(6) 0.5246(3)
H3 H 0.1319 0.1267 0.5083
N1 N 0.0881(4) 0.2520(5) 0.5996(2)
C4 C -0.0019(4) 0.3555(6) 0.6228(3)
C5 C -0.1856(4) 0.5550(6) 0.6801(3)
N2 N -0.2717(3) 0.6509(5) 0.7121(2)
C6 C -0.3755(4) 0.7034(6) 0.6640(3)
H4 H -0.4363 0.7673 0.6863
C7 C -0.4000(4) 0.6699(6) 0.5826(3)
H5 H -0.4738 0.7136 0.5501
C8 C -0.3154(4) 0.5726(6) 0.5503(3)
H6 H -0.3316 0.5466 0.4950
C9 C -0.2051(4) 0.5113(6) 0.5985(2)
C10 C -0.1127(4) 0.4046(6) 0.5694(2)
C11 C 0.0162(4) 0.4078(6) 0.7037(3)
H7 H 0.0916 0.3757 0.7387
C12 C -0.0722(4) 0.5026(6) 0.7316(3)
H8 H -0.0587 0.5347 0.7861
N2C N 0.2717(3) 0.1509(5) 0.7879(2)
Co1C Co -0.26228(6) 0.69591(8) 0.83210(3)
N3 N 0.1687(5) 0.5024(6) 0.8785(3)
C13 C 0.2546(5) 0.5746(7) 0.8630(3)
C14 C 0.3533(16) 0.675(3) 0.8288(11)
C15? C 0.3787(14) 0.651(3) 0.8691(14)
C16? C 0.364(4) 0.669(6) 0.844(4)
loop_
_geom_bond_atom_site_label_1
_geom_bond_atom_site_label_2
_geom_bond_site_symmetry_1
_geom_bond_site_symmetry_2
Co1 Cl1 1_555 1_555
Cl2 Co1 1_555 1_555
C1 H1 1_555 1_555
C2 C1 1_555 1_555
H2 C2 1_555 1_555
C3 C2 1_555 1_555
H3 C3 1_555 1_555
N1 Co1 1_555 1_555
C4 N1 1_555 1_555
C5 N2 1_555 1_555
N2 C6 1_555 1_555
C6 H4 1_555 1_555
C7 C6 1_555 1_555
H5 C7 1_555 1_555
C8 C7 1_555 1_555
H6 C8 1_555 1_555
C9 C5 1_555 1_555
C10 C1 1_555 1_555
C11 C4 1_555 1_555
H7 C11 1_555 1_555
C12 C5 1_555 1_555
H8 C12 1_555 1_555
N3 C13 1_555 1_555
C13 C14 1_555 1_555
N2C Co1 1_555 1_555
Co1C N2 1_555 1_555
C3 N1 1_555 1_555
C4 C10 1_555 1_555
C8 C9 1_555 1_555
C9 C10 1_555 1_555
C11 C12 1_555 1_555

#END
