
#######################################################################
#
#                 Cambridge Crystallographic Data Centre
#                                CCDC 
#
#######################################################################
#
# If this CIF has been generated from an entry in the Cambridge 
# Structural Database, then it will include bibliographic, chemical, 
# crystal, experimental, refinement or atomic coordinate data resulting 
# from the CCDC's data processing and validation procedures.
#
#######################################################################

data_UJAZEK
_symmetry_cell_setting           monoclinic
_symmetry_space_group_name_H-M   'P 21/c'
_symmetry_Int_Tables_number      14
_space_group_name_Hall           '-P 2ybc'
loop_
_symmetry_equiv_pos_site_id
_symmetry_equiv_pos_as_xyz
1 x,y,z
2 x,1/2-y,1/2+z
3 -x,-y,-z
4 -x,1/2+y,1/2-z
_cell_length_a                   15.3438(13)
_cell_length_b                   7.9690(7)
_cell_length_c                   21.943(2)
_cell_angle_alpha                90
_cell_angle_beta                 110.107(2)
_cell_angle_gamma                90
_cell_volume                     2519.55
loop_
_atom_site_label
_atom_site_type_symbol
_atom_site_fract_x
_atom_site_fract_y
_atom_site_fract_z
Ni1 Ni 0.67281(3) 0.84624(6) 0.67680(2)
N1 N 0.7908(3) 0.8803(5) 0.62203(17)
O1 O 0.81394(19) 0.8235(4) 0.67920(14)
O2 O 0.70555(18) 0.9187(4) 0.59571(13)
O3 O 0.8457(2) 0.8962(6) 0.59290(17)
N2 N 0.6817(2) 1.2171(4) 0.69350(16)
O4 O 0.70699(19) 1.0748(3) 0.72217(13)
O5 O 0.6288(2) 1.2238(4) 0.63697(13)
O6 O 0.7127(3) 1.3459(4) 0.72535(16)
O7 O 0.6487(2) 0.6086(4) 0.64003(14)
H1 H 0.651(4) 0.582(6) 0.6035(11)
H2 H 0.675(3) 0.529(5) 0.6646(19)
C1 C 0.7769(3) 0.6419(5) 0.89972(19)
H3 H 0.8018 0.6049 0.9435
C2 C 0.8308(3) 0.7340(5) 0.87330(19)
H4 H 0.8935 0.7600 0.8980
C3 C 0.7911(3) 0.7883(5) 0.80909(19)
H5 H 0.8283 0.8540 0.7914
N3 N 0.7045(2) 0.7542(4) 0.77110(14)
C4 C 0.5584(2) 0.6179(5) 0.75709(17)
H6 H 0.5362 0.6529 0.7130
C5 C 0.5019(3) 0.5302(5) 0.78112(17)
H7 H 0.4409 0.5029 0.7533
N4 N 0.4699(2) 0.3949(4) 0.86888(14)
C6 C 0.4979(3) 0.3504(5) 0.93151(17)
H8 H 0.4552 0.2940 0.9471
C7 C 0.5869(3) 0.3830(5) 0.97507(18)
H9 H 0.6036 0.3497 1.0192
C8 C 0.6500(3) 0.4634(5) 0.95368(17)
H10 H 0.7109 0.4860 0.9827
C9 C 0.6514(3) 0.6584(5) 0.79748(17)
C10 C 0.6850(3) 0.6026(5) 0.86185(18)
C11 C 0.6235(3) 0.5120(5) 0.88823(17)
C12 C 0.5319(3) 0.4780(5) 0.84722(17)
N4C N 0.5301(2) 0.8949(4) 0.63112(14)
Ni1C Ni 0.32719(3) 0.34624(6) 0.82320(2)
C13 C 0.3446(3) 0.9715(5) 1.10891(19)
H11 H 0.3430 0.9464 1.1509
C14 C 0.4209(3) 1.0481(5) 1.10242(19)
H12 H 0.4722 1.0787 1.1396
C15 C 0.4218(3) 1.0801(5) 1.0403(2)
H13 H 0.4756 1.1305 1.0363
N5 N 0.3521(2) 1.0445(5) 0.98631(16)
C16 C 0.2063(5) 0.9008(13) 0.9343(4)
H14 H 0.2158 0.9109 0.8939
C17 C 0.1297(6) 0.8234(13) 0.9367(4)
H15 H 0.0820 0.7938 0.8973
N6 N 0.0378(5) 0.7025(13) 0.9963(4)
C18 C 0.0297(7) 0.6671(16) 1.0530(5)
H16 H -0.0210 0.5994 1.0536
C22 C 0.0921(3) 0.7246(8) 1.1121(2)
H20 H 0.0783 0.7098 1.1507
C23 C 0.1726(3) 0.8015(6) 1.1147(2)
H21 H 0.2193 0.8236 1.1554
C24 C 0.2750(3) 0.9695(6) 0.99269(19)
C25 C 0.2688(3) 0.9303(5) 1.05352(18)
C26 C 0.1858(3) 0.8482(6) 1.0566(2)
C27 C 0.1185(6) 0.7838(15) 0.9988(4)
O8 O 1.0549(12) 0.757(3) 0.7708(9)
C19? C 0.1939(8) 0.9702(18) 0.9351(5)
H17? H 0.1957 1.0165 0.8956
C20? C 0.1144(9) 0.902(2) 0.9388(6)
H18? H 0.0618 0.8908 0.9004
N7? N 0.0261(7) 0.7804(17) 0.9964(5)
C21? C 0.0179(8) 0.7329(19) 1.0511(6)
H19? H -0.0421 0.7012 1.0503
C28? C 0.1085(8) 0.8491(18) 0.9984(5)
O9? O 1.0194(13) 1.021(3) 0.7591(9)
O10? O 1.0267(15) 0.658(3) 0.7609(10)
O11? O 1.0381(14) 0.915(3) 0.7634(10)
loop_
_geom_bond_atom_site_label_1
_geom_bond_atom_site_label_2
_geom_bond_site_symmetry_1
_geom_bond_site_symmetry_2
Ni1 O1 1_555 1_555
N1 O1 1_555 1_555
O2 Ni1 1_555 1_555
O3 N1 1_555 1_555
N2 O4 1_555 1_555
O4 Ni1 1_555 1_555
O5 N2 1_555 1_555
O6 N2 1_555 1_555
O7 Ni1 1_555 1_555
H1 O7 1_555 1_555
H2 O7 1_555 1_555
C1 H3 1_555 1_555
C2 C1 1_555 1_555
H4 C2 1_555 1_555
C3 C2 1_555 1_555
H5 C3 1_555 1_555
N3 Ni1 1_555 1_555
C4 H6 1_555 1_555
C5 C4 1_555 1_555
H7 C5 1_555 1_555
N4 C6 1_555 1_555
C6 H8 1_555 1_555
C7 C6 1_555 1_555
H9 C7 1_555 1_555
C8 C7 1_555 1_555
H10 C8 1_555 1_555
C9 N3 1_555 1_555
C10 C1 1_555 1_555
C11 C8 1_555 1_555
C12 C5 1_555 1_555
C13 H11 1_555 1_555
C14 C13 1_555 1_555
H12 C14 1_555 1_555
C15 C14 1_555 1_555
H13 C15 1_555 1_555
N5 C15 1_555 1_555
C16 H14 1_555 1_555
C17 C16 1_555 1_555
H15 C17 1_555 1_555
N6 C18 1_555 1_555
C18 H16 1_555 1_555
C22 C18 1_555 1_555
H20 C22 1_555 1_555
C23 C22 1_555 1_555
H21 C23 1_555 1_555
C24 N5 1_555 1_555
C25 C13 1_555 1_555
C26 C23 1_555 1_555
C27 C17 1_555 1_555
N4C Ni1 1_555 1_555
Ni1C N4 1_555 1_555
N1 O2 1_555 1_555
C3 N3 1_555 1_555
C4 C9 1_555 1_555
N4 C12 1_555 1_555
C9 C10 1_555 1_555
C10 C11 1_555 1_555
C11 C12 1_555 1_555
C16 C24 1_555 1_555
N6 C27 1_555 1_555
C24 C25 1_555 1_555
C25 C26 1_555 1_555
C26 C27 1_555 1_555

#END
