
#######################################################################
#
#                 Cambridge Crystallographic Data Centre
#                                CCDC 
#
#######################################################################
#
# If this CIF has been generated from an entry in the Cambridge 
# Structural Database, then it will include bibliographic, chemical, 
# crystal, experimental, refinement or atomic coordinate data resulting 
# from the CCDC's data processing and validation procedures.
#
#######################################################################

data_UJECES
_symmetry_cell_setting           orthorhombic
_symmetry_space_group_name_H-M   'C m c a'
_symmetry_Int_Tables_number      64
_space_group_name_Hall           '-C 2ac 2'
loop_
_symmetry_equiv_pos_site_id
_symmetry_equiv_pos_as_xyz
1 x,y,z
2 -x,1/2-y,1/2+z
3 -x,1/2+y,1/2-z
4 x,-y,-z
5 1/2+x,1/2+y,z
6 1/2-x,-y,1/2+z
7 1/2-x,y,1/2-z
8 1/2+x,1/2-y,-z
9 -x,-y,-z
10 x,1/2+y,1/2-z
11 x,1/2-y,1/2+z
12 -x,y,z
13 1/2-x,1/2-y,-z
14 1/2+x,y,1/2-z
15 1/2+x,-y,1/2+z
16 1/2-x,1/2+y,z
_cell_length_a                   18.613(3)
_cell_length_b                   22.084(4)
_cell_length_c                   11.703(2)
_cell_angle_alpha                90
_cell_angle_beta                 90
_cell_angle_gamma                90
_cell_volume                     4810.51
loop_
_atom_site_label
_atom_site_type_symbol
_atom_site_fract_x
_atom_site_fract_y
_atom_site_fract_z
Cu1 Cu 0.2500 0.11586(3) 0.7500
N1 N 0.2500 0.0252(2) 0.7500
N2 N 0.2500 -0.2937(2) 0.7500
O2 O 0.1334(3) 0.11592(19) 0.7457(5)
O3 O 0.1900(2) 0.11360(18) 0.5829(4)
O4 O -0.0596(4) 0.0327(3) 0.2459(4)
C5 C 0.1327(4) 0.1102(3) 0.6410(8)
C6 C 0.0644(3) 0.0996(2) 0.5781(5)
C7 C 0.0640(3) 0.0801(2) 0.4664(5)
H8 H 0.1074 0.0746 0.4285
C8 C 0.0000 0.0684(3) 0.4088(7)
C9 C 0.0000 0.1080(3) 0.6348(7)
H9 H 0.0000 0.1193 0.7114
C10 C 0.0000 0.0438(4) 0.2897(8)
C11 C 0.2314(4) -0.0058(3) 0.8386(6)
H10 H 0.2174 0.0152 0.9038
C12 C 0.2308(4) -0.0682(3) 0.8427(6)
H11 H 0.2171 -0.0879 0.9095
C13 C 0.2500 -0.1009(3) 0.7500
C14 C 0.2748(3) -0.2623(2) 0.8380(5)
H12 H 0.2925 -0.2834 0.9007
C15 C 0.2758(3) -0.1999(2) 0.8417(5)
H13 H 0.2937 -0.1799 0.9056
C16 C 0.2500 -0.1676(3) 0.7500
Cu1I Cu 0.2500 -0.38414(3) 0.7500
Cu1K Cu -0.2500 0.11586(3) 0.7500
N2I N 0.2500 0.2063(2) 0.7500
O2K O -0.1334(3) 0.11592(19) 0.7457(5)
O2F O 0.3666(3) 0.11592(19) 0.7543(5)
O3K O -0.1900(2) 0.11360(18) 0.5829(4)
O3F O 0.3100(2) 0.11360(18) 0.9171(4)
O4K O 0.0596(4) 0.0327(3) 0.2459(4)
C5K C -0.1327(4) 0.1102(3) 0.6410(8)
C6K C -0.0644(3) 0.0996(2) 0.5781(5)
C7K C -0.0640(3) 0.0801(2) 0.4664(5)
H8K H -0.1074 0.0746 0.4285
C11F C 0.2686(4) -0.0058(3) 0.6614(6)
H10F H 0.2826 0.0152 0.5962
C12F C 0.2692(4) -0.0682(3) 0.6573(6)
H11F H 0.2829 -0.0879 0.5905
C14F C 0.2252(3) -0.2623(2) 0.6620(5)
H12F H 0.2075 -0.2834 0.5993
C15F C 0.2242(3) -0.1999(2) 0.6583(5)
H13F H 0.2063 -0.1799 0.5944
O1 O 0.5000 0.4062(5) 1.0680(9)
C1 C 0.5000 0.3428(8) 1.0261(12)
H1 H 0.5000 0.3140 1.0898
C2 C 0.5646(6) 0.3354(6) 0.9548(14)
H2 H 0.6072 0.3401 1.0017
H3 H 0.5654 0.3665 0.8963
C3 C 0.5651(5) 0.2763(6) 0.9015(13)
H4 H 0.6084 0.2715 0.8563
H5 H 0.5646 0.2451 0.9598
C4 C 0.5000 0.2699(7) 0.8261(13)
H6 H 0.5000 0.3011 0.7677
H7 H 0.5000 0.2307 0.7890
C2K C 0.4354(6) 0.3354(6) 0.9548(14)
H2K H 0.3928 0.3401 1.0017
H3K H 0.4346 0.3665 0.8963
C3K C 0.4349(5) 0.2763(6) 0.9015(13)
H4K H 0.3916 0.2715 0.8563
H5K H 0.4354 0.2451 0.9598
O5? O 0.0874(5) -0.0103(5) 0.0473(6)
H14? H 0.0636 0.0116 0.0894
loop_
_geom_bond_atom_site_label_1
_geom_bond_atom_site_label_2
_geom_bond_site_symmetry_1
_geom_bond_site_symmetry_2
O1 C1 1_555 1_555
C1 H1 1_555 1_555
C2 C1 1_555 1_555
H2 C2 1_555 1_555
H3 C2 1_555 1_555
C3 C2 1_555 1_555
H4 C3 1_555 1_555
H5 C3 1_555 1_555
C4 C3 1_555 1_555
H6 C4 1_555 1_555
H7 C4 1_555 1_555
Cu1 N1 1_555 1_555
N1 C11 1_555 1_555
N2 C14 1_555 1_555
O2 Cu1 1_555 1_555
O3 Cu1 1_555 1_555
O4 C10 1_555 1_555
C5 O2 1_555 1_555
C6 C5 1_555 1_555
C7 C6 1_555 1_555
H8 C7 1_555 1_555
C8 C7 1_555 1_555
C9 C6 1_555 1_555
H9 C9 1_555 1_555
C10 C8 1_555 1_555
C11 H10 1_555 1_555
C12 C11 1_555 1_555
H11 C12 1_555 1_555
C13 C12 1_555 1_555
C14 H12 1_555 1_555
C15 C14 1_555 1_555
H13 C15 1_555 1_555
C16 C13 1_555 1_555
C2K C1 1_555 1_555
H2K C2K 1_555 1_555
H3K C2K 1_555 1_555
C3K C4 1_555 1_555
H4K C3K 1_555 1_555
H5K C3K 1_555 1_555
Cu1I N2 1_555 1_555
Cu1K O2K 1_555 1_555
N2I Cu1 1_555 1_555
O2K C5K 1_555 1_555
O2F Cu1 1_555 1_555
O3K Cu1K 1_555 1_555
O3F Cu1 1_555 1_555
O4K C10 1_555 1_555
C5K O3K 1_555 1_555
C6K C9 1_555 1_555
C7K C8 1_555 1_555
H8K C7K 1_555 1_555
C11F N1 1_555 1_555
H10F C11F 1_555 1_555
C12F C13 1_555 1_555
H11F C12F 1_555 1_555
C14F N2 1_555 1_555
H12F C14F 1_555 1_555
C15F C16 1_555 1_555
H13F C15F 1_555 1_555
O3 C5 1_555 1_555
C15 C16 1_555 1_555
C2K C3K 1_555 1_555
C5K C6K 1_555 1_555
C6K C7K 1_555 1_555
C11F C12F 1_555 1_555
C14F C15F 1_555 1_555

#END
