
#######################################################################
#
#                 Cambridge Crystallographic Data Centre
#                                CCDC 
#
#######################################################################
#
# If this CIF has been generated from an entry in the Cambridge 
# Structural Database, then it will include bibliographic, chemical, 
# crystal, experimental, refinement or atomic coordinate data resulting 
# from the CCDC's data processing and validation procedures.
#
#######################################################################

data_UJECUI
_symmetry_cell_setting           rhombohedral
_symmetry_space_group_name_H-M   'R 3 2'
_symmetry_Int_Tables_number      155
_space_group_name_Hall           'R 3 2"'
loop_
_symmetry_equiv_pos_site_id
_symmetry_equiv_pos_as_xyz
1 x,y,z
2 -y,x-y,z
3 -x+y,-x,z
4 x-y,-y,-z
5 -x,-x+y,-z
6 y,x,-z
7 2/3+x,1/3+y,1/3+z
8 2/3-y,1/3+x-y,1/3+z
9 2/3-x+y,1/3-x,1/3+z
10 2/3+x-y,1/3-y,1/3-z
11 2/3-x,1/3-x+y,1/3-z
12 2/3+y,1/3+x,1/3-z
13 1/3+x,2/3+y,2/3+z
14 1/3-y,2/3+x-y,2/3+z
15 1/3-x+y,2/3-x,2/3+z
16 1/3+x-y,2/3-y,2/3-z
17 1/3-x,2/3-x+y,2/3-z
18 1/3+y,2/3+x,2/3-z
_cell_length_a                   10.454(2)
_cell_length_b                   10.454(2)
_cell_length_c                   33.383(9)
_cell_angle_alpha                90
_cell_angle_beta                 90
_cell_angle_gamma                120
_cell_volume                     3159.52
loop_
_atom_site_label
_atom_site_type_symbol
_atom_site_fract_x
_atom_site_fract_y
_atom_site_fract_z
La1 La 0.0000 0.0000 0.0000
Co1 Co 0.6666 0.3333 -0.081225(12)
Co2 Co 0.6667 0.3334 -0.1667
S1 S 0.47495(5) 0.22891(7) -0.123425(13)
O1 O 0.15032(19) 0.17486(19) -0.05847(5)
O2 O 0.31024(19) 0.1547(3) -0.01964(4)
N1 N 0.5508(2) 0.40050(28) -0.04891(5)
H1 H 0.5386 0.3614 -0.0236
H2 H 0.6052 0.5016 -0.0466
C1 C 0.4034(3) 0.3511(3) -0.11077(7)
H3 H 0.4671 0.4504 -0.1224
H4 H 0.3021 0.3111 -0.1214
C2 C 0.4028(2) 0.3599(2) -0.06519(7)
H5 H 0.3827 0.4411 -0.0580
C3 C 0.2807(3) 0.2178(2) -0.04658(7)
Co1A Co -0.3333 0.3333 -0.081225(12)
Co1B Co -0.3333 -0.6666 -0.081225(12)
Co1C Co 0.3333 -0.3333 0.081225(12)
Co1D Co -0.6666 -0.3333 0.081225(12)
Co1E Co 0.3333 0.6666 0.081225(12)
Co2A Co -0.3334 0.3333 -0.1667
Co2B Co -0.3333 -0.6667 -0.1667
Co2C Co 0.3333 -0.3334 0.1667
Co2D Co -0.6667 -0.3333 0.1667
Co2E Co 0.3334 0.6667 0.1667
S1A S -0.22891(7) 0.24604(9) -0.123425(13)
S1B S -0.24604(9) -0.47495(5) -0.123425(13)
S1C S 0.24604(9) -0.22891(7) 0.123425(13)
S1D S -0.47495(5) -0.24604(9) 0.123425(13)
S1E S 0.22891(7) 0.47495(5) 0.123425(13)
S1A_2 S 0.77109(7) 0.24604(9) -0.123425(13)
S1B_2 S 0.75396(9) 0.52505(5) -0.123425(13)
S1O S 0.57937(9) 0.43776(7) -0.209908(13)
S1P S 0.85838(5) 0.42063(9) -0.209908(13)
S1Q S 0.56224(7) 0.14162(5) -0.209908(13)
S1B_3 S -0.24604(9) 0.52505(5) -0.123425(13)
S1_2 S -0.52505(5) 0.22891(7) -0.123425(13)
S1Q_2 S -0.43776(7) 0.14162(5) -0.209908(13)
S1O_2 S -0.42063(9) 0.43776(7) -0.209908(13)
S1P_2 S -0.14162(5) 0.42063(9) -0.209908(13)
O1A O -0.17486(19) -0.02454(27) -0.05847(5)
O1B O 0.02454(27) -0.15032(19) -0.05847(5)
O1C O -0.02454(27) -0.17486(19) 0.05847(5)
O1D O -0.15032(19) 0.02454(27) 0.05847(5)
O1E O 0.17486(19) 0.15032(19) 0.05847(5)
O2A O -0.1547(3) 0.15554(36) -0.01964(4)
O2B O -0.15554(36) -0.31024(19) -0.01964(4)
O2C O 0.15554(36) -0.1547(3) 0.01964(4)
O2D O -0.31024(19) -0.15554(36) 0.01964(4)
O2E O 0.1547(3) 0.31024(19) 0.01964(4)
N1A N -0.40050(28) 0.15030(34) -0.04891(5)
N1B N -0.15030(34) -0.5508(2) -0.04891(5)
N1C N 0.15030(34) -0.40050(28) 0.04891(5)
N1D N -0.5508(2) -0.15030(34) 0.04891(5)
N1E N 0.40050(28) 0.5508(2) 0.04891(5)
N1A_2 N 0.59950(28) 0.15030(34) -0.04891(5)
N1B_2 N 0.84970(34) 0.4492(2) -0.04891(5)
N1B_3 N -0.15030(34) 0.4492(2) -0.04891(5)
N1_2 N -0.4492(2) 0.40050(28) -0.04891(5)
H1A H -0.3614 0.1772 -0.0236
H1B H -0.1772 -0.5386 -0.0236
H1C H 0.1772 -0.3614 0.0236
H1D H -0.5386 -0.1772 0.0236
H1E H 0.3614 0.5386 0.0236
H1A_2 H 0.6386 0.1772 -0.0236
H1B_2 H 0.8228 0.4614 -0.0236
H1B_3 H -0.1772 0.4614 -0.0236
H1_2 H -0.4614 0.3614 -0.0236
H2A H -0.5016 0.1036 -0.0466
H2B H -0.1036 -0.6052 -0.0466
H2C H 0.1036 -0.5016 0.0466
H2D H -0.6052 -0.1036 0.0466
H2E H 0.5016 0.6052 0.0466
H2A_2 H 0.4984 0.1036 -0.0466
H2B_2 H 0.8964 0.3948 -0.0466
H2B_3 H -0.1036 0.3948 -0.0466
H2_2 H -0.3948 0.5016 -0.0466
C1A C -0.3511(3) 0.0523(4) -0.11077(7)
C1B C -0.0523(4) -0.4034(3) -0.11077(7)
C1C C 0.0523(4) -0.3511(3) 0.11077(7)
C1D C -0.4034(3) -0.0523(4) 0.11077(7)
C1E C 0.3511(3) 0.4034(3) 0.11077(7)
H3A H -0.4504 0.0167 -0.1224
H3B H -0.0167 -0.4671 -0.1224
H3C H 0.0167 -0.4504 0.1224
H3D H -0.4671 -0.0167 0.1224
H3E H 0.4504 0.4671 0.1224
H4A H -0.3111 -0.0090 -0.1214
H4B H 0.0090 -0.3021 -0.1214
H4C H -0.0090 -0.3111 0.1214
H4D H -0.3021 0.0090 0.1214
H4E H 0.3111 0.3021 0.1214
C2A C -0.3599(2) 0.0429(3) -0.06519(7)
C2B C -0.0429(3) -0.4028(2) -0.06519(7)
C2C C 0.0429(3) -0.3599(2) 0.06519(7)
C2D C -0.4028(2) -0.0429(3) 0.06519(7)
C2E C 0.3599(2) 0.4028(2) 0.06519(7)
H5A H -0.4411 -0.0584 -0.0580
H5B H 0.0584 -0.3827 -0.0580
H5C H -0.0584 -0.4411 0.0580
H5D H -0.3827 0.0584 0.0580
H5E H 0.4411 0.3827 0.0580
C3A C -0.2178(2) 0.0629(4) -0.04658(7)
C3B C -0.0629(4) -0.2807(3) -0.04658(7)
C3C C 0.0629(4) -0.2178(2) 0.04658(7)
C3D C -0.2807(3) -0.0629(4) 0.04658(7)
C3E C 0.2178(2) 0.2807(3) 0.04658(7)
O3 O 0.6667 0.3333 0.03029(12)
O4 O 0.4223(2) 0.1207(3) 0.07291(8)
O5 O 0.0000 0.0000 0.13441(15)
O6 O 0.0000 0.0000 0.2107(2)
O7 O 0.4046(8) 0.1454(6) 0.15746(18)
loop_
_geom_bond_atom_site_label_1
_geom_bond_atom_site_label_2
_geom_bond_site_symmetry_1
_geom_bond_site_symmetry_2
La1 O1 1_555 1_555
Co1 S1 1_555 1_555
Co2 S1 1_555 1_555
S1 C1 1_555 1_555
O1 C3 1_555 1_555
O2 La1 1_555 1_555
N1 Co1 1_555 1_555
H1 N1 1_555 1_555
H2 N1 1_555 1_555
C1 H3 1_555 1_555
H4 C1 1_555 1_555
C2 N1 1_555 1_555
H5 C2 1_555 1_555
C3 O2 1_555 1_555
Co1A S1A 1_555 1_555
Co1B S1B 1_555 1_555
Co1C S1C 1_555 1_555
Co1D S1D 1_555 1_555
Co1E S1E 1_555 1_555
Co2A S1A 1_555 1_555
Co2B S1B 1_555 1_555
Co2C S1C 1_555 1_555
Co2D S1D 1_555 1_555
Co2E S1E 1_555 1_555
S1A C1A 1_555 1_555
S1B C1B 1_555 1_555
S1C C1C 1_555 1_555
S1D C1D 1_555 1_555
S1E C1E 1_555 1_555
S1A_2 Co1 1_555 1_555
S1B_2 Co1 1_555 1_555
S1O Co2 1_555 1_555
S1P Co2 1_555 1_555
S1Q Co2 1_555 1_555
S1B_3 Co1A 1_555 1_555
S1_2 Co1A 1_555 1_555
S1Q_2 Co2A 1_555 1_555
S1O_2 Co2A 1_555 1_555
S1P_2 Co2A 1_555 1_555
O1A La1 1_555 1_555
O1B La1 1_555 1_555
O1C La1 1_555 1_555
O1D La1 1_555 1_555
O1E La1 1_555 1_555
O2A La1 1_555 1_555
O2B La1 1_555 1_555
O2C La1 1_555 1_555
O2D La1 1_555 1_555
O2E La1 1_555 1_555
N1A Co1A 1_555 1_555
N1B Co1B 1_555 1_555
N1C Co1C 1_555 1_555
N1D Co1D 1_555 1_555
N1E Co1E 1_555 1_555
N1A_2 Co1 1_555 1_555
N1B_2 Co1 1_555 1_555
N1B_3 Co1A 1_555 1_555
N1_2 Co1A 1_555 1_555
H1A N1A 1_555 1_555
H1B N1B 1_555 1_555
H1C N1C 1_555 1_555
H1D N1D 1_555 1_555
H1E N1E 1_555 1_555
H1A_2 N1A_2 1_555 1_555
H1B_2 N1B_2 1_555 1_555
H1B_3 N1B_3 1_555 1_555
H1_2 N1_2 1_555 1_555
H2A N1A 1_555 1_555
H2B N1B 1_555 1_555
H2C N1C 1_555 1_555
H2D N1D 1_555 1_555
H2E N1E 1_555 1_555
H2A_2 N1A_2 1_555 1_555
H2B_2 N1B_2 1_555 1_555
H2B_3 N1B_3 1_555 1_555
H2_2 N1_2 1_555 1_555
C1A H3A 1_555 1_555
C1B H3B 1_555 1_555
C1C H3C 1_555 1_555
C1D H3D 1_555 1_555
C1E H3E 1_555 1_555
H4A C1A 1_555 1_555
H4B C1B 1_555 1_555
H4C C1C 1_555 1_555
H4D C1D 1_555 1_555
H4E C1E 1_555 1_555
C2A N1A 1_555 1_555
C2B N1B 1_555 1_555
C2C N1C 1_555 1_555
C2D N1D 1_555 1_555
C2E N1E 1_555 1_555
H5A C2A 1_555 1_555
H5B C2B 1_555 1_555
H5C C2C 1_555 1_555
H5D C2D 1_555 1_555
H5E C2E 1_555 1_555
C3A O1A 1_555 1_555
C3B O1B 1_555 1_555
C3C O1C 1_555 1_555
C3D O1D 1_555 1_555
C3E O1E 1_555 1_555
Co2 S1A_2 1_555 1_555
Co2 S1B_2 1_555 1_555
C1 C2 1_555 1_555
C2 C3 1_555 1_555
Co2A S1B_3 1_555 1_555
Co2A S1_2 1_555 1_555
O2A C3A 1_555 1_555
O2B C3B 1_555 1_555
O2C C3C 1_555 1_555
O2D C3D 1_555 1_555
O2E C3E 1_555 1_555
C1A C2A 1_555 1_555
C1B C2B 1_555 1_555
C1C C2C 1_555 1_555
C1D C2D 1_555 1_555
C1E C2E 1_555 1_555
C2A C3A 1_555 1_555
C2B C3B 1_555 1_555
C2C C3C 1_555 1_555
C2D C3D 1_555 1_555
C2E C3E 1_555 1_555

#END
