
#######################################################################
#
#                 Cambridge Crystallographic Data Centre
#                                CCDC 
#
#######################################################################
#
# If this CIF has been generated from an entry in the Cambridge 
# Structural Database, then it will include bibliographic, chemical, 
# crystal, experimental, refinement or atomic coordinate data resulting 
# from the CCDC's data processing and validation procedures.
#
#######################################################################

data_UJEDUJ
_symmetry_cell_setting           tetragonal
_symmetry_space_group_name_H-M   'I 41/a'
_symmetry_Int_Tables_number      88
_space_group_name_Hall           '-I 4ad'
loop_
_symmetry_equiv_pos_site_id
_symmetry_equiv_pos_as_xyz
1 x,y,z
2 1/2-x,-y,1/2+z
3 3/4-y,1/4+x,1/4+z
4 3/4+y,3/4-x,3/4+z
5 1/2+x,1/2+y,1/2+z
6 -x,1/2-y,z
7 1/4-y,3/4+x,3/4+z
8 1/4+y,1/4-x,1/4+z
9 -x,-y,-z
10 1/2+x,y,1/2-z
11 1/4+y,3/4-x,3/4-z
12 1/4-y,1/4+x,1/4-z
13 1/2-x,1/2-y,1/2-z
14 x,1/2+y,-z
15 3/4+y,1/4-x,1/4-z
16 3/4-y,3/4+x,3/4-z
_cell_length_a                   18.6778(6)
_cell_length_b                   18.6778(6)
_cell_length_c                   59.7427(19)
_cell_angle_alpha                90
_cell_angle_beta                 90
_cell_angle_gamma                90
_cell_volume                     20841.9
loop_
_atom_site_label
_atom_site_type_symbol
_atom_site_fract_x
_atom_site_fract_y
_atom_site_fract_z
Si1 Si 1.0000 0.7500 0.12709(10)
W1 W 0.94440(4) 0.59630(4) 0.097870(11)
W2 W 1.0000 0.7500 0.068816(15)
W3 W 1.16442(5) 0.74845(6) 0.097810(13)
W4 W 1.10878(5) 0.59637(4) 0.127250(13)
W5 W 1.16339(5) 0.74860(6) 0.156830(15)
W6 W 1.0000 0.7500 0.186141(16)
W7 W 0.94520(4) 0.59611(4) 0.156952(12)
O1 O 1.0864(11) 0.7165(12) 0.1275(3)
O2 O 0.9649(12) 0.7180(12) 0.1498(3)
O3 O 0.9632(10) 0.7167(11) 0.1056(3)
O4 O 1.0048(11) 0.8325(11) 0.1274(3)
O5 O 0.9172(8) 0.5717(10) 0.1274(2)
O6 O 0.9180(10) 0.5245(11) 0.0837(3)
O7 O 1.0397(7) 0.5735(11) 0.1052(2)
O8 O 1.0171(9) 0.8475(11) 0.0747(4)
O9 O 1.0000 0.7500 0.0409(3)
O10 O 0.9023(9) 0.7683(10) 0.0748(3)
O11 O 0.8607(8) 0.6536(9) 0.0967(3)
O12 O 1.2415(7) 0.7481(9) 0.0836(3)
O13 O 1.1584(8) 0.5198(9) 0.1268(2)
O14 O 1.0398(9) 0.5736(11) 0.1493(2)
O15 O 0.9823(9) 0.6509(11) 0.1804(4)
O16 O 1.1384(8) 0.8466(11) 0.1582(4)
O17 O 1.0973(8) 0.7330(9) 0.1798(4)
O18 O 1.0000 0.7500 0.2140(3)
O19 O 0.9194(11) 0.5238(10) 0.1710(3)
O20 O 1.2405(8) 0.7482(8) 0.1711(2)
O21 O 1.1969(16) 0.7641(11) 0.1273(3)
O22 O 1.1545(17) 0.6509(12) 0.1497(3)
O23 O 1.1533(15) 0.6513(11) 0.1054(3)
W1E W 1.05560(4) 0.90370(4) 0.097870(11)
W3E W 0.83558(5) 0.75155(6) 0.097810(13)
W4E W 0.89122(5) 0.90363(4) 0.127250(13)
W5E W 0.83661(5) 0.75140(6) 0.156830(15)
W7E W 1.05480(4) 0.90389(4) 0.156952(12)
O1E O 0.9136(11) 0.7835(12) 0.1275(3)
O2E O 1.0351(12) 0.7820(12) 0.1498(3)
O3E O 1.0368(10) 0.7833(11) 0.1056(3)
O4E O 0.9952(11) 0.6675(11) 0.1274(3)
O5E O 1.0828(8) 0.9283(10) 0.1274(2)
O6E O 1.0820(10) 0.9755(11) 0.0837(3)
O7E O 0.9603(7) 0.9265(11) 0.1052(2)
O8E O 0.9829(9) 0.6525(11) 0.0747(4)
O10E O 1.0977(9) 0.7317(10) 0.0748(3)
O11E O 1.1393(8) 0.8464(9) 0.0967(3)
O12E O 0.7585(7) 0.7519(9) 0.0836(3)
O13E O 0.8416(8) 0.9802(9) 0.1268(2)
O14E O 0.9602(9) 0.9264(11) 0.1493(2)
O15E O 1.0177(9) 0.8491(11) 0.1804(4)
O16E O 0.8616(8) 0.6534(11) 0.1582(4)
O17E O 0.9027(8) 0.7670(9) 0.1798(4)
O19E O 1.0806(11) 0.9762(10) 0.1710(3)
O20E O 0.7595(8) 0.7518(8) 0.1711(2)
O21E O 0.8031(16) 0.7359(11) 0.1273(3)
O22E O 0.8455(17) 0.8491(12) 0.1497(3)
O23E O 0.8467(15) 0.8487(11) 0.1054(3)
O26 O 0.5193(12) 0.6243(12) 0.1014(4)
O27 O 0.8739(14) 0.7112(14) -0.0979(4)
O28 O 0.3820(17) 0.6298(17) 0.1178(5)
O29 O 0.3137(9) 0.5027(10) 0.1244(3)
Cu1 Cu 0.0000 -0.2500 -0.03564(4)
Cu2 Cu 0.5000 0.2500 -0.03961(4)
O24 O 0.0000 -0.2500 -0.0742(3)
O25 O 0.5000 0.2500 -0.0779(3)
N1 N 0.0464(6) -0.1525(7) -0.0329(2)
N2 N 0.0970(8) -0.0507(8) -0.0445(3)
N3 N 0.3740(8) 0.0682(8) -0.0491(3)
N4 N 0.4423(7) 0.1599(7) -0.0382(2)
N5 N -0.0966(7) -0.2015(7) -0.0341(2)
N6 N -0.1956(8) -0.1489(7) -0.0451(3)
N7 N -0.3141(8) 0.1310(8) -0.0475(3)
N8 N -0.4086(7) 0.1913(7) -0.0367(2)
C1 C 0.0691(10) -0.1150(9) -0.0502(3)
H1 H 0.0661 -0.1315 -0.0652
C2 C 0.0576(9) -0.1088(8) -0.0144(3)
C3 C 0.0427(9) -0.1192(8) 0.0077(3)
H2 H 0.0200 -0.1617 0.0128
C4 C 0.0626(10) -0.0635(9) 0.0229(3)
H3 H 0.0536 -0.0686 0.0384
C5 C 0.0947(10) -0.0025(10) 0.0149(4)
H4 H 0.1094 0.0334 0.0252
C6 C 0.1061(10) 0.0079(11) -0.0071(4)
H5 H 0.1241 0.0525 -0.0123
C7 C 0.0919(9) -0.0455(9) -0.0218(3)
C8 C 0.1274(12) 0.0014(12) -0.0605(5)
H6 H 0.0935 0.0046 -0.0733
H7 H 0.1271 0.0487 -0.0531
C9 C 0.1977(15) -0.0081(17) -0.0699(5)
H8 H 0.2018 0.0165 -0.0845
H9 H 0.2086 -0.0596 -0.0720
C10 C 0.2462(16) 0.0243(17) -0.0532(5)
H10 H 0.2454 -0.0038 -0.0392
H11 H 0.2310 0.0739 -0.0498
C11 C 0.3294(12) 0.0242(13) -0.0642(5)
H12 H 0.3482 -0.0252 -0.0651
H13 H 0.3288 0.0450 -0.0795
C12 C 0.3927(9) 0.0541(10) -0.0269(3)
C13 C 0.3785(11) -0.0001(11) -0.0124(5)
H14 H 0.3528 -0.0412 -0.0171
C14 C 0.4013(12) 0.0053(11) 0.0088(4)
H15 H 0.3876 -0.0304 0.0192
C15 C 0.4428(12) 0.0593(10) 0.0157(4)
H16 H 0.4595 0.0595 0.0307
C16 C 0.4625(8) 0.1163(8) 0.0011(3)
H17 H 0.4921 0.1548 0.0059
C17 C 0.4356(9) 0.1122(9) -0.0207(3)
C18 C 0.4036(9) 0.1315(11) -0.0545(3)
H18 H 0.3973 0.1538 -0.0687
C19 C -0.1309(8) -0.1743(8) -0.0511(3)
H19 H -0.1125 -0.1727 -0.0659
C20 C -0.1392(8) -0.1921(8) -0.0155(2)
C21 C -0.1299(10) -0.2121(9) 0.0071(3)
H20 H -0.0869 -0.2345 0.0120
C22 C -0.1827(10) -0.1986(9) 0.0213(3)
H21 H -0.1771 -0.2115 0.0366
C23 C -0.2476(9) -0.1655(9) 0.0144(3)
H22 H -0.2841 -0.1581 0.0252
C24 C -0.2599(8) -0.1435(9) -0.0074(3)
H23 H -0.3023 -0.1193 -0.0119
C25 C -0.2034(8) -0.1605(8) -0.0224(3)
C26 C -0.2458(10) -0.1137(10) -0.0604(4)
H24 H -0.2493 -0.1449 -0.0738
H25 H -0.2932 -0.1152 -0.0530
C27 C -0.237(2) -0.0409(18) -0.0687(6)
H26 H -0.2586 -0.0363 -0.0838
H27 H -0.1855 -0.0288 -0.0699
C28 C -0.273(2) 0.0081(14) -0.0528(6)
H28 H -0.2491 0.0058 -0.0381
H29 H -0.3236 -0.0063 -0.0509
C29 C -0.2690(12) 0.0891(11) -0.0626(4)
H30 H -0.2191 0.1071 -0.0624
H31 H -0.2875 0.0912 -0.0781
C30 C -0.3027(9) 0.1476(9) -0.0255(3)
C31 C -0.2439(9) 0.1294(10) -0.0111(4)
H32 H -0.2038 0.1020 -0.0159
C32 C -0.2517(11) 0.1561(11) 0.0106(4)
H33 H -0.2138 0.1490 0.0210
C33 C -0.3134(11) 0.1930(10) 0.0178(3)
H34 H -0.3173 0.2077 0.0330
C34 C -0.3673(11) 0.2078(9) 0.0034(3)
H35 H -0.4080 0.2339 0.0083
C35 C -0.3629(8) 0.1845(8) -0.0187(3)
C36 C -0.3778(9) 0.1596(8) -0.0532(3)
H36 H -0.3977 0.1566 -0.0678
Cu2_2 Cu -0.5000 0.2500 -0.03961(4)
Cu2_3 Cu -0.5000 -0.7500 -0.03961(4)
Cu2_4 Cu 0.5000 -0.7500 -0.03961(4)
N1E N -0.0464(6) -0.3475(7) -0.0329(2)
N2E N -0.0970(8) -0.4493(8) -0.0445(3)
N3E N -0.3740(8) -0.5682(8) -0.0491(3)
N4E N -0.4423(7) -0.6599(7) -0.0382(2)
N4E_2 N 0.5577(7) 0.3401(7) -0.0382(2)
N5E N 0.0966(7) -0.2985(7) -0.0341(2)
N6E N 0.1956(8) -0.3511(7) -0.0451(3)
N7E N 0.3141(8) -0.6310(8) -0.0475(3)
N8E N 0.4086(7) -0.6913(7) -0.0367(2)
N8_2 N 0.5914(7) 0.1913(7) -0.0367(2)
N8E_2 N 0.4086(7) 0.3087(7) -0.0367(2)
C1E C -0.0691(10) -0.3850(9) -0.0502(3)
H1E H -0.0661 -0.3685 -0.0652
C2E C -0.0576(9) -0.3912(8) -0.0144(3)
C3E C -0.0427(9) -0.3808(8) 0.0077(3)
H2E H -0.0200 -0.3383 0.0128
C4E C -0.0626(10) -0.4365(9) 0.0229(3)
H3E H -0.0536 -0.4314 0.0384
C5E C -0.0947(10) -0.4975(10) 0.0149(4)
H4E H -0.1094 -0.5334 0.0252
C6E C -0.1061(10) -0.5079(11) -0.0071(4)
H5E H -0.1241 -0.5525 -0.0123
C7E C -0.0919(9) -0.4545(9) -0.0218(3)
C8E C -0.1274(12) -0.5014(12) -0.0605(5)
H6E H -0.0935 -0.5046 -0.0733
H7E H -0.1271 -0.5487 -0.0531
C9E C -0.1977(15) -0.4919(17) -0.0699(5)
H8E H -0.2018 -0.5165 -0.0845
H9E H -0.2086 -0.4404 -0.0720
C10E C -0.2462(16) -0.5243(17) -0.0532(5)
H10E H -0.2454 -0.4962 -0.0392
H11E H -0.2310 -0.5739 -0.0498
C11E C -0.3294(12) -0.5242(13) -0.0642(5)
H12E H -0.3482 -0.4748 -0.0651
H13E H -0.3288 -0.5450 -0.0795
C12E C -0.3927(9) -0.5541(10) -0.0269(3)
C13E C -0.3785(11) -0.4999(11) -0.0124(5)
H14E H -0.3528 -0.4588 -0.0171
C14E C -0.4013(12) -0.5053(11) 0.0088(4)
H15E H -0.3876 -0.4696 0.0192
C15E C -0.4428(12) -0.5593(10) 0.0157(4)
H16E H -0.4595 -0.5595 0.0307
C16E C -0.4625(8) -0.6163(8) 0.0011(3)
H17E H -0.4921 -0.6548 0.0059
C17E C -0.4356(9) -0.6122(9) -0.0207(3)
C18E C -0.4036(9) -0.6315(11) -0.0545(3)
H18E H -0.3973 -0.6538 -0.0687
C19E C 0.1309(8) -0.3257(8) -0.0511(3)
H19E H 0.1125 -0.3273 -0.0659
C20E C 0.1392(8) -0.3079(8) -0.0155(2)
C21E C 0.1299(10) -0.2879(9) 0.0071(3)
H20E H 0.0869 -0.2655 0.0120
C22E C 0.1827(10) -0.3014(9) 0.0213(3)
H21E H 0.1771 -0.2885 0.0366
C23E C 0.2476(9) -0.3345(9) 0.0144(3)
H22E H 0.2841 -0.3419 0.0252
C24E C 0.2599(8) -0.3565(9) -0.0074(3)
H23E H 0.3023 -0.3807 -0.0119
C25E C 0.2034(8) -0.3395(8) -0.0224(3)
C26E C 0.2458(10) -0.3863(10) -0.0604(4)
H24E H 0.2493 -0.3551 -0.0738
H25E H 0.2932 -0.3848 -0.0530
C27E C 0.237(2) -0.4591(18) -0.0687(6)
H26E H 0.2586 -0.4637 -0.0838
H27E H 0.1855 -0.4712 -0.0699
C28E C 0.273(2) -0.5081(14) -0.0528(6)
H28E H 0.2491 -0.5058 -0.0381
H29E H 0.3236 -0.4937 -0.0509
C29E C 0.2690(12) -0.5891(11) -0.0626(4)
H30E H 0.2191 -0.6071 -0.0624
H31E H 0.2875 -0.5912 -0.0781
C30E C 0.3027(9) -0.6476(9) -0.0255(3)
C31E C 0.2439(9) -0.6294(10) -0.0111(4)
H32E H 0.2038 -0.6020 -0.0159
C32E C 0.2517(11) -0.6561(11) 0.0106(4)
H33E H 0.2138 -0.6490 0.0210
C33E C 0.3134(11) -0.6930(10) 0.0178(3)
H34E H 0.3173 -0.7077 0.0330
C34E C 0.3673(11) -0.7078(9) 0.0034(3)
H35E H 0.4080 -0.7339 0.0083
C35E C 0.3629(8) -0.6845(8) -0.0187(3)
C36E C 0.3778(9) -0.6596(8) -0.0532(3)
H36E H 0.3977 -0.6566 -0.0678
C37? C 0.747(2) 0.455(3) -0.0694(7)
C38? C 1.245(2) 0.5306(13) -0.0522(6)
C39? C 1.2872(19) 0.4845(17) -0.0688(6)
C40? C 0.7917(16) 0.499(3) -0.0531(7)
H37? H 0.7588 0.4667 -0.0851
H38? H 0.7543 0.4032 -0.0670
H39? H 1.2668 0.5268 -0.0372
H40? H 1.1951 0.5132 -0.0513
H41? H 1.2726 0.4947 -0.0844
H42? H 1.3393 0.4930 -0.0673
H43? H 0.7872 0.4794 -0.0379
H44? H 0.7739 0.5493 -0.0529
loop_
_geom_bond_atom_site_label_1
_geom_bond_atom_site_label_2
_geom_bond_site_symmetry_1
_geom_bond_site_symmetry_2
Cu1 O24 1_555 1_555
Cu2 O25 1_555 1_555
Si1 O1 1_555 1_555
W1 O3 1_555 1_555
W2 O3 1_555 1_555
W3 O1 1_555 1_555
W4 O1 1_555 1_555
W5 O1 1_555 1_555
W6 O2 1_555 1_555
W7 O2 1_555 1_555
O2 Si1 1_555 1_555
O3 Si1 1_555 1_555
O4 Si1 1_555 1_555
O5 W1 1_555 1_555
O6 W1 1_555 1_555
O7 W1 1_555 1_555
O8 W2 1_555 1_555
O9 W2 1_555 1_555
O10 W2 1_555 1_555
O11 W1 1_555 1_555
O12 W3 1_555 1_555
O13 W4 1_555 1_555
O14 W4 1_555 1_555
O15 W6 1_555 1_555
O16 W5 1_555 1_555
O17 W5 1_555 1_555
O18 W6 1_555 1_555
O19 W7 1_555 1_555
O20 W5 1_555 1_555
O21 W3 1_555 1_555
O22 W4 1_555 1_555
O23 W3 1_555 1_555
N1 Cu1 1_555 1_555
N2 C1 1_555 1_555
N3 C11 1_555 1_555
N4 Cu2 1_555 1_555
N5 Cu1 1_555 1_555
N6 C19 1_555 1_555
N7 C29 1_555 1_555
N8 C35 1_555 1_555
C1 N1 1_555 1_555
H1 C1 1_555 1_555
C2 N1 1_555 1_555
C3 C2 1_555 1_555
H2 C3 1_555 1_555
C4 C3 1_555 1_555
H3 C4 1_555 1_555
C5 C4 1_555 1_555
H4 C5 1_555 1_555
C6 C5 1_555 1_555
H5 C6 1_555 1_555
C7 N2 1_555 1_555
C8 N2 1_555 1_555
H6 C8 1_555 1_555
H7 C8 1_555 1_555
C9 C8 1_555 1_555
H8 C9 1_555 1_555
H9 C9 1_555 1_555
C10 C9 1_555 1_555
H10 C10 1_555 1_555
H11 C10 1_555 1_555
C11 C10 1_555 1_555
H12 C11 1_555 1_555
H13 C11 1_555 1_555
C12 N3 1_555 1_555
C13 C12 1_555 1_555
H14 C13 1_555 1_555
C14 C13 1_555 1_555
H15 C14 1_555 1_555
C15 C14 1_555 1_555
H16 C15 1_555 1_555
C16 C15 1_555 1_555
H17 C16 1_555 1_555
C17 N4 1_555 1_555
C18 N3 1_555 1_555
H18 C18 1_555 1_555
C19 N5 1_555 1_555
H19 C19 1_555 1_555
C20 N5 1_555 1_555
C21 C20 1_555 1_555
H20 C21 1_555 1_555
C22 C21 1_555 1_555
H21 C22 1_555 1_555
C23 C22 1_555 1_555
H22 C23 1_555 1_555
C24 C23 1_555 1_555
H23 C24 1_555 1_555
C25 N6 1_555 1_555
C26 N6 1_555 1_555
H24 C26 1_555 1_555
H25 C26 1_555 1_555
C27 C26 1_555 1_555
H26 C27 1_555 1_555
H27 C27 1_555 1_555
C28 C27 1_555 1_555
H28 C28 1_555 1_555
H29 C28 1_555 1_555
C29 C28 1_555 1_555
H30 C29 1_555 1_555
H31 C29 1_555 1_555
C30 N7 1_555 1_555
C31 C30 1_555 1_555
H32 C31 1_555 1_555
C32 C31 1_555 1_555
H33 C32 1_555 1_555
C33 C32 1_555 1_555
H34 C33 1_555 1_555
C34 C33 1_555 1_555
H35 C34 1_555 1_555
C35 C30 1_555 1_555
C36 N7 1_555 1_555
H36 C36 1_555 1_555
Cu2_2 N8 1_555 1_555
Cu2_3 N4E 1_555 1_555
Cu2_4 N8E 1_555 1_555
W1E O4 1_555 1_555
W3E O10 1_555 1_555
W4E O1E 1_555 1_555
W5E O1E 1_555 1_555
W7E O4 1_555 1_555
O1E Si1 1_555 1_555
O2E Si1 1_555 1_555
O3E Si1 1_555 1_555
O4E Si1 1_555 1_555
O5E W1E 1_555 1_555
O6E W1E 1_555 1_555
O7E W1E 1_555 1_555
O8E W1 1_555 1_555
O10E W2 1_555 1_555
O11E W3 1_555 1_555
O12E W3E 1_555 1_555
O13E W4E 1_555 1_555
O14E W4E 1_555 1_555
O15E W6 1_555 1_555
O16E W7 1_555 1_555
O17E W6 1_555 1_555
O19E W7E 1_555 1_555
O20E W5E 1_555 1_555
O21E W3E 1_555 1_555
O22E W4E 1_555 1_555
O23E W3E 1_555 1_555
N1E Cu1 1_555 1_555
N2E C1E 1_555 1_555
N3E C11E 1_555 1_555
N4E C17E 1_555 1_555
N4E_2 Cu2 1_555 1_555
N5E Cu1 1_555 1_555
N6E C19E 1_555 1_555
N7E C29E 1_555 1_555
N8E C35E 1_555 1_555
N8_2 Cu2 1_555 1_555
N8E_2 Cu2 1_555 1_555
C1E N1E 1_555 1_555
H1E C1E 1_555 1_555
C2E N1E 1_555 1_555
C3E C2E 1_555 1_555
H2E C3E 1_555 1_555
C4E C3E 1_555 1_555
H3E C4E 1_555 1_555
C5E C4E 1_555 1_555
H4E C5E 1_555 1_555
C6E C5E 1_555 1_555
H5E C6E 1_555 1_555
C7E N2E 1_555 1_555
C8E N2E 1_555 1_555
H6E C8E 1_555 1_555
H7E C8E 1_555 1_555
C9E C8E 1_555 1_555
H8E C9E 1_555 1_555
H9E C9E 1_555 1_555
C10E C9E 1_555 1_555
H10E C10E 1_555 1_555
H11E C10E 1_555 1_555
C11E C10E 1_555 1_555
H12E C11E 1_555 1_555
H13E C11E 1_555 1_555
C12E N3E 1_555 1_555
C13E C12E 1_555 1_555
H14E C13E 1_555 1_555
C14E C13E 1_555 1_555
H15E C14E 1_555 1_555
C15E C14E 1_555 1_555
H16E C15E 1_555 1_555
C16E C15E 1_555 1_555
H17E C16E 1_555 1_555
C17E C12E 1_555 1_555
C18E N3E 1_555 1_555
H18E C18E 1_555 1_555
C19E N5E 1_555 1_555
H19E C19E 1_555 1_555
C20E N5E 1_555 1_555
C21E C20E 1_555 1_555
H20E C21E 1_555 1_555
C22E C21E 1_555 1_555
H21E C22E 1_555 1_555
C23E C22E 1_555 1_555
H22E C23E 1_555 1_555
C24E C23E 1_555 1_555
H23E C24E 1_555 1_555
C25E N6E 1_555 1_555
C26E N6E 1_555 1_555
H24E C26E 1_555 1_555
H25E C26E 1_555 1_555
C27E C26E 1_555 1_555
H26E C27E 1_555 1_555
H27E C27E 1_555 1_555
C28E C27E 1_555 1_555
H28E C28E 1_555 1_555
H29E C28E 1_555 1_555
C29E C28E 1_555 1_555
H30E C29E 1_555 1_555
H31E C29E 1_555 1_555
C30E N7E 1_555 1_555
C31E C30E 1_555 1_555
H32E C31E 1_555 1_555
C32E C31E 1_555 1_555
H33E C32E 1_555 1_555
C33E C32E 1_555 1_555
H34E C33E 1_555 1_555
C34E C33E 1_555 1_555
H35E C34E 1_555 1_555
C35E C30E 1_555 1_555
C36E N7E 1_555 1_555
H36E C36E 1_555 1_555
W1 O4E 1_555 1_555
W2 O3E 1_555 1_555
W2 O8E 1_555 1_555
W3 O10E 1_555 1_555
W4 O7 1_555 1_555
W4 O23 1_555 1_555
W5 O21 1_555 1_555
W5 O22 1_555 1_555
W6 O17 1_555 1_555
W6 O2E 1_555 1_555
W7 O5 1_555 1_555
W7 O14 1_555 1_555
W7 O15 1_555 1_555
W7 O4E 1_555 1_555
O2 O4E 1_555 1_555
O3 O4E 1_555 1_555
O4 O2E 1_555 1_555
O4 O3E 1_555 1_555
O8 W1E 1_555 1_555
O11 W3E 1_555 1_555
O16 W7E 1_555 1_555
N4 C18 1_555 1_555
N8 C36 1_555 1_555
C2 C7 1_555 1_555
C6 C7 1_555 1_555
C12 C17 1_555 1_555
C16 C17 1_555 1_555
C20 C25 1_555 1_555
C24 C25 1_555 1_555
C34 C35 1_555 1_555
W1E O3E 1_555 1_555
W1E O11E 1_555 1_555
W3E O1E 1_555 1_555
W4E O7E 1_555 1_555
W4E O23E 1_555 1_555
W5E O16E 1_555 1_555
W5E O17E 1_555 1_555
W5E O21E 1_555 1_555
W5E O22E 1_555 1_555
W7E O2E 1_555 1_555
W7E O5E 1_555 1_555
W7E O14E 1_555 1_555
W7E O15E 1_555 1_555
N4E C18E 1_555 1_555
N8E C36E 1_555 1_555
C2E C7E 1_555 1_555
C6E C7E 1_555 1_555
C16E C17E 1_555 1_555
C20E C25E 1_555 1_555
C24E C25E 1_555 1_555
C34E C35E 1_555 1_555

#END
