
#######################################################################
#
#                 Cambridge Crystallographic Data Centre
#                                CCDC 
#
#######################################################################
#
# If this CIF has been generated from an entry in the Cambridge 
# Structural Database, then it will include bibliographic, chemical, 
# crystal, experimental, refinement or atomic coordinate data resulting 
# from the CCDC's data processing and validation procedures.
#
#######################################################################

data_UJEHAS
_symmetry_cell_setting           orthorhombic
_symmetry_space_group_name_H-M   'P n n m'
_symmetry_Int_Tables_number      58
_space_group_name_Hall           '-P 2 2n'
loop_
_symmetry_equiv_pos_site_id
_symmetry_equiv_pos_as_xyz
1 x,y,z
2 x,y,-z
3 1/2+x,1/2-y,1/2+z
4 1/2-x,1/2+y,1/2+z
5 -x,-y,-z
6 -x,-y,z
7 1/2-x,1/2+y,1/2-z
8 1/2+x,1/2-y,1/2-z
_cell_length_a                   10.9368(10)
_cell_length_b                   16.2104(16)
_cell_length_c                   10.7803(10)
_cell_angle_alpha                90
_cell_angle_beta                 90
_cell_angle_gamma                90
_cell_volume                     1911.24
loop_
_atom_site_label
_atom_site_type_symbol
_atom_site_fract_x
_atom_site_fract_y
_atom_site_fract_z
S1 S 0.2746(3) -0.09350(17) 0.0000
Cu1 Cu 0.49380(15) -0.31834(6) 0.5000
Cu2 Cu 0.5000 -0.5000 0.36457(10)
O1 O 0.1974(13) -0.0918(7) -0.0987(7)
O2 O 0.3548(11) -0.0404(6) -0.0785(12)
O3 O 0.4561(6) -0.3058(3) 0.3242(4)
O4 O 0.4414(5) -0.4296(3) 0.2332(4)
O5 O 0.4337(7) -0.4320(4) 0.5000
N1 N 0.5623(8) -0.2015(5) 0.5000
N2 N 0.7942(9) 0.2085(6) 0.5000
C1 C 0.4377(7) -0.3529(4) 0.2331(7)
C2 C 0.4125(7) -0.3116(4) 0.1115(6)
C3 C 0.3711(7) -0.2304(4) 0.1101(7)
H1 H 0.368(7) -0.204(4) 0.181(7)
C4 C 0.3478(10) -0.1904(5) 0.0000
C5 C 0.4279(10) -0.3534(6) 0.0000
H2 H 0.452(10) -0.409(7) 0.0000
C6 C 0.5855(9) -0.1609(5) 0.3951(8)
H3 H 0.576(8) -0.186(5) 0.323(8)
C7 C 0.6314(9) -0.0819(5) 0.3923(8)
H4 H 0.638(7) -0.056(4) 0.319(7)
C8 C 0.6557(11) -0.0384(6) 0.5000
C9 C 0.7067(10) 0.0457(6) 0.5000
C10 C 0.7319(9) 0.0867(5) 0.6091(8)
H5 H 0.720(8) 0.061(5) 0.679(8)
C11 C 0.7745(9) 0.1670(5) 0.6035(9)
H6 H 0.804(7) 0.195(5) 0.672(7)
O1A O 0.1974(13) -0.0918(7) 0.0987(7)
O2A O 0.3548(11) -0.0404(6) 0.0785(12)
C2A C 0.4125(7) -0.3116(4) -0.1115(6)
C1A C 0.4377(7) -0.3529(4) -0.2331(7)
O3A O 0.4561(6) -0.3058(3) -0.3242(4)
O4A O 0.4414(5) -0.4296(3) -0.2332(4)
C3A C 0.3711(7) -0.2304(4) -0.1101(7)
H1A H 0.368(7) -0.204(4) -0.181(7)
C7A C 0.6314(9) -0.0819(5) 0.6077(8)
C6A C 0.5855(9) -0.1609(5) 0.6049(8)
H3A H 0.576(8) -0.186(5) 0.677(8)
H4A H 0.638(7) -0.056(4) 0.681(7)
C11A C 0.7745(9) 0.1670(5) 0.3965(9)
C10A C 0.7319(9) 0.0867(5) 0.3909(8)
H5A H 0.720(8) 0.061(5) 0.321(8)
H6A H 0.804(7) 0.195(5) 0.328(7)
O3A_2 O 0.4561(6) -0.3058(3) 0.6758(4)
O4E O 0.5586(5) -0.5704(3) 0.2332(4)
O5D O 0.5663(7) -0.5680(4) 0.5000
Cu2A Cu 0.5000 -0.5000 0.63543(10)
Cu1_2 Cu 0.49380(15) -0.31834(6) -0.5000
Cu2A_2 Cu 0.5000 -0.5000 -0.36457(10)
O6 O 0.2034(11) -0.3794(6) 0.4491(12)
O6A O 0.2034(11) -0.3794(6) 0.5509(12)
loop_
_geom_bond_atom_site_label_1
_geom_bond_atom_site_label_2
_geom_bond_site_symmetry_1
_geom_bond_site_symmetry_2
S1 O1 1_555 1_555
Cu1 O3 1_555 1_555
Cu2 O4 1_555 1_555
O2 S1 1_555 1_555
O3 C1 1_555 1_555
O4 C1 1_555 1_555
O5 Cu1 1_555 1_555
N1 Cu1 1_555 1_555
N2 C11 1_555 1_555
C1 C2 1_555 1_555
C2 C3 1_555 1_555
C3 H1 1_555 1_555
C4 S1 1_555 1_555
C5 C2 1_555 1_555
H2 C5 1_555 1_555
C6 N1 1_555 1_555
H3 C6 1_555 1_555
C7 C6 1_555 1_555
H4 C7 1_555 1_555
C8 C7 1_555 1_555
C9 C8 1_555 1_555
C10 C9 1_555 1_555
H5 C10 1_555 1_555
C11 C10 1_555 1_555
H6 C11 1_555 1_555
O6 O6A 1_555 1_555
O1A S1 1_555 1_555
O2A S1 1_555 1_555
C2A C5 1_555 1_555
C1A C2A 1_555 1_555
O3A C1A 1_555 1_555
O4A C1A 1_555 1_555
C3A C4 1_555 1_555
H1A C3A 1_555 1_555
C7A C8 1_555 1_555
C6A N1 1_555 1_555
H3A C6A 1_555 1_555
H4A C7A 1_555 1_555
C11A N2 1_555 1_555
C10A C9 1_555 1_555
H5A C10A 1_555 1_555
H6A C11A 1_555 1_555
O3A_2 Cu1 1_555 1_555
O4E Cu2 1_555 1_555
O5D Cu2 1_555 1_555
Cu2A O5 1_555 1_555
Cu1_2 O3A 1_555 1_555
Cu2A_2 O4A 1_555 1_555
Cu2 O5 1_555 1_555
O2 O2A 1_555 1_555
C3 C4 1_555 1_555
C2A C3A 1_555 1_555
C7A C6A 1_555 1_555
C11A C10A 1_555 1_555
O5D Cu2A 1_555 1_555

#END
