
#######################################################################
#
#                 Cambridge Crystallographic Data Centre
#                                CCDC 
#
#######################################################################
#
# If this CIF has been generated from an entry in the Cambridge 
# Structural Database, then it will include bibliographic, chemical, 
# crystal, experimental, refinement or atomic coordinate data resulting 
# from the CCDC's data processing and validation procedures.
#
#######################################################################

data_UJEJUO
_symmetry_cell_setting           monoclinic
_symmetry_space_group_name_H-M   'P 21'
_symmetry_Int_Tables_number      4
_space_group_name_Hall           'P 2yb'
loop_
_symmetry_equiv_pos_site_id
_symmetry_equiv_pos_as_xyz
1 x,y,z
2 -x,1/2+y,-z
_cell_length_a                   14.80380(10)
_cell_length_b                   26.81710(10)
_cell_length_c                   21.90260(10)
_cell_angle_alpha                90
_cell_angle_beta                 92.0390(10)
_cell_angle_gamma                90
_cell_volume                     8689.72
loop_
_atom_site_label
_atom_site_type_symbol
_atom_site_fract_x
_atom_site_fract_y
_atom_site_fract_z
Zn1 Zn 1.00192(4) 1.41468(3) 1.03454(3)
Zn2 Zn 1.34231(4) 1.32905(2) 1.02890(3)
Zn3 Zn 0.68466(4) 1.37228(3) 0.93025(3)
N1 N 1.1027(4) 1.4369(2) 1.0952(2)
C1 C 1.0983(6) 1.4307(4) 1.1552(4)
H1 H 1.0473 1.4139 1.1705
C2 C 1.1648(7) 1.4476(5) 1.1968(4)
H2 H 1.1612 1.4426 1.2396
C3 C 1.2395(7) 1.4732(5) 1.1704(4)
H3 H 1.2879 1.4853 1.1959
C4 C 1.2409(5) 1.4802(4) 1.1096(4)
H4 H 1.2886 1.4986 1.0925
C5 C 1.1727(5) 1.4603(3) 1.0720(3)
C6 C 1.1758(4) 1.4637(3) 1.0028(3)
H5 H 1.2095 1.4939 0.9912
H6 H 1.2075 1.4342 0.9867
N2 N 0.9107(4) 1.4699(2) 1.0151(3)
C7 C 0.8226(5) 1.4680(3) 1.0286(3)
H7 H 0.7986 1.4381 1.0446
C8 C 0.7665(5) 1.5085(4) 1.0196(4)
H8 H 0.7048 1.5061 1.0298
C9 C 0.7982(5) 1.5511(3) 0.9968(4)
H9 H 0.7595 1.5792 0.9922
C10 C 0.8895(5) 1.5543(3) 0.9795(3)
H10 H 0.9132 1.5832 0.9608
C11 C 0.9419(4) 1.5123(3) 0.9917(3)
C12 C 1.0425(4) 1.5159(3) 0.9811(3)
H11 H 1.0522 1.5345 0.9428
H12 H 1.0726 1.5345 1.0151
N3 N 1.0832(3) 1.4658(2) 0.9768(2)
C13 C 1.0753(5) 1.4444(2) 0.9151(3)
H13 H 1.1247 1.4568 0.8898
H14 H 1.0168 1.4538 0.8950
C14 C 1.0817(4) 1.3876(2) 0.9224(3)
O1 O 1.0487(3) 1.36755(16) 0.96810(18)
N4 N 1.1203(3) 1.36163(18) 0.8803(2)
H15 H 1.1363 1.3766 0.8466
C15 C 1.1374(4) 1.3089(2) 0.8878(3)
H16 H 1.0802 1.2932 0.9011
C16 C 1.2107(4) 1.2984(2) 0.9377(3)
O2 O 1.2236(4) 1.2556(2) 0.9545(3)
O3 O 1.2547(3) 1.33577(18) 0.9590(2)
C17 C 1.1611(4) 1.2847(3) 0.8266(3)
H17 H 1.2157 1.3010 0.8111
H18 H 1.1756 1.2491 0.8337
C18 C 1.0862(4) 1.2884(2) 0.7788(3)
C19 C 1.0088(5) 1.2581(3) 0.7831(3)
H19 H 1.0037 1.2360 0.8166
C20 C 0.9410(5) 1.2605(3) 0.7390(3)
H20 H 0.8882 1.2408 0.7427
C21 C 0.9493(6) 1.2917(4) 0.6890(3)
H21 H 0.9027 1.2928 0.6581
C22 C 1.0233(6) 1.3207(3) 0.6839(3)
H22 H 1.0269 1.3426 0.6500
C23 C 1.0937(5) 1.3193(3) 0.7268(3)
H23 H 1.1465 1.3387 0.7214
N5 N 1.2600(4) 1.3199(2) 1.1023(2)
C24 C 1.1694(4) 1.3132(3) 1.0964(3)
H24 H 1.1414 1.3144 1.0567
C25 C 1.1168(6) 1.3048(4) 1.1455(4)
H25 H 1.0538 1.2990 1.1398
C26 C 1.1555(7) 1.3049(5) 1.2015(5)
H26 H 1.1202 1.2991 1.2362
C27 C 1.2482(6) 1.3135(5) 1.2085(4)
H27 H 1.2760 1.3154 1.2482
C28 C 1.2992(5) 1.3192(3) 1.1579(3)
C29 C 1.4002(5) 1.3214(3) 1.1642(3)
H28 H 1.4252 1.2872 1.1669
H29 H 1.4184 1.3395 1.2021
N6 N 1.4383(3) 1.2753(2) 1.0221(2)
C30 C 1.4285(5) 1.2338(3) 0.9892(4)
H30 H 1.3760 1.2301 0.9633
C31 C 1.4930(6) 1.1952(3) 0.9912(6)
H31 H 1.4843 1.1666 0.9661
C32 C 1.5650(6) 1.1986(3) 1.0274(6)
H32 H 1.6082 1.1724 1.0293
C33 C 1.5773(5) 1.2418(3) 1.0635(4)
H33 H 1.6286 1.2449 1.0905
C34 C 1.5138(4) 1.2797(3) 1.0592(3)
C35 C 1.5261(4) 1.3289(3) 1.0929(3)
H34 H 1.5647 1.3238 1.1302
H35 H 1.5563 1.3533 1.0665
N7 N 1.4379(3) 1.3480(2) 1.1093(2)
C36 C 1.4376(5) 1.4019(3) 1.1137(3)
H36 H 1.4931 1.4137 1.1357
H37 H 1.3846 1.4134 1.1361
C37 C 1.4335(4) 1.4221(2) 1.0490(3)
O4 O 1.3874(3) 1.39950(16) 1.0084(2)
N8 N 1.4784(4) 1.4622(2) 1.0374(3)
H38 H 1.5021 1.4795 1.0680
C38 C 1.4909(5) 1.4795(3) 0.9757(4)
H39 H 1.4339 1.4715 0.9518
C39 C 1.5672(5) 1.4533(3) 0.9436(4)
O5 O 1.5851(4) 1.4655(3) 0.8924(3)
O6 O 1.6065(3) 1.41761(17) 0.9745(2)
C40 C 1.5016(6) 1.5371(3) 0.9740(6)
H40 H 1.5057 1.5480 0.9310
H41 H 1.5587 1.5465 0.9959
C41 C 1.4104(7) 1.5684(4) 1.0076(5)
C42 C 1.4132(8) 1.5795(4) 1.0645(6)
H42 H 1.4641 1.5717 1.0904
C43 C 1.3352(13) 1.6043(5) 1.0871(8)
H43 H 1.3246 1.6150 1.1275
C44 C 1.2794(15) 1.6086(6) 1.0352(17)
H44 H 1.2330 1.6305 1.0477
C45 C 1.2568(8) 1.5990(4) 0.9796(8)
H45 H 1.2015 1.6074 0.9588
C46 C 1.3453(10) 1.5683(5) 0.9505(16)
H46 H 1.3529 1.5550 0.9108
N9 N 0.7864(4) 1.4057(2) 0.8821(2)
C47 C 0.7832(5) 1.4531(3) 0.8622(3)
H47 H 0.7395 1.4752 0.8778
C48 C 0.8435(6) 1.4705(3) 0.8188(4)
H48 H 0.8423 1.5044 0.8063
C49 C 0.9035(5) 1.4380(3) 0.7952(3)
H49 H 0.9433 1.4487 0.7647
C50 C 0.9061(5) 1.3894(3) 0.8156(3)
H50 H 0.9465 1.3661 0.7985
C51 C 0.8493(4) 1.3747(3) 0.8615(3)
C52 C 0.8579(4) 1.3231(3) 0.8901(3)
H51 H 0.8885 1.3001 0.8621
H52 H 0.8942 1.3249 0.9289
N10 N 0.5887(4) 1.3284(2) 0.8837(2)
C53 C 0.4995(5) 1.3377(3) 0.8864(3)
H53 H 0.4805 1.3656 0.9094
C54 C 0.4351(5) 1.3087(5) 0.8578(4)
H54 H 0.3725 1.3161 0.8599
C55 C 0.4664(7) 1.2672(5) 0.8245(5)
H55 H 0.4245 1.2449 0.8052
C56 C 0.5579(6) 1.2594(5) 0.8206(5)
H56 H 0.5799 1.2330 0.7963
C57 C 0.6171(5) 1.2902(3) 0.8522(3)
C58 C 0.7176(5) 1.2842(3) 0.8470(3)
H57 H 0.7326 1.2485 0.8425
H58 H 0.7376 1.3020 0.8102
C59 C 0.8853(4) 1.3577(3) 1.1100(3)
C60 C 0.7671(5) 1.2705(3) 0.9553(3)
H59 H 0.8208 1.2486 0.9545
H60 H 0.7123 1.2493 0.9541
C61 C 0.7703(4) 1.3017(3) 1.0122(3)
O7 O 0.7302(3) 1.34316(17) 1.01261(19)
N11 N 0.8121(3) 1.2837(2) 1.0616(2)
H61 H 0.8354 1.2535 1.0613
C62 C 0.8194(4) 1.3141(2) 1.1165(3)
H62 H 0.7583 1.3285 1.1234
O8 O 0.8879(4) 1.3904(2) 1.1505(3)
O9 O 0.9323(3) 1.35739(19) 1.0631(2)
C63 C 0.8442(4) 1.2802(3) 1.1712(3)
H63 H 0.8950 1.2582 1.1604
H64 H 0.8648 1.3010 1.2063
N12 N 0.7654(3) 1.3046(2) 0.9018(2)
C64 C 0.7647(4) 1.2480(3) 1.1902(3)
C65 C 0.6932(5) 1.2694(4) 1.2205(3)
H65 H 0.6935 1.3039 1.2305
C66 C 0.6223(6) 1.2394(5) 1.2357(4)
H66 H 0.5730 1.2539 1.2558
C67 C 0.6194(9) 1.1907(7) 1.2233(6)
H67 H 0.5696 1.1709 1.2350
C68 C 0.6878(11) 1.1703(5) 1.1943(8)
H68 H 0.6868 1.1355 1.1862
C69 C 0.7626(6) 1.1993(3) 1.1750(4)
H69 H 0.8092 1.1847 1.1523
O6_2 O 0.6065(3) 1.41761(17) 0.9745(2)
Zn3_2 Zn 1.68466(4) 1.37228(3) 0.93025(3)
Zn4 Zn 1.00015(5) 1.17011(3) 0.54699(3)
Zn5 Zn 0.66790(5) 1.14594(3) 0.43095(3)
Zn6 Zn 1.32795(5) 1.07968(3) 0.51635(4)
N13 N 1.0996(4) 1.1824(2) 0.6138(3)
C70 C 1.0920(5) 1.1701(3) 0.6724(4)
H70 H 1.0391 1.1534 0.6849
C71 C 1.1595(5) 1.1811(3) 0.7150(4)
H71 H 1.1561 1.1697 0.7559
C72 C 1.2323(5) 1.2092(4) 0.6975(4)
H72 H 1.2769 1.2198 0.7269
C73 C 1.2395(5) 1.2213(3) 0.6381(4)
H73 H 1.2911 1.2390 0.6253
C74 C 1.1730(5) 1.2084(3) 0.5961(3)
C75 C 1.1782(5) 1.2183(3) 0.5283(4)
H74 H 1.2154 1.2483 0.5216
H75 H 1.2072 1.1896 0.5082
N14 N 0.9115(4) 1.2299(3) 0.5369(3)
C76 C 0.8221(5) 1.2259(4) 0.5463(4)
H76 H 0.7970 1.1942 0.5551
C77 C 0.7654(6) 1.2683(5) 0.5432(4)
H77 H 0.7028 1.2659 0.5510
C78 C 0.8037(7) 1.3123(5) 0.5288(4)
H78 H 0.7671 1.3413 0.5266
C79 C 0.8962(7) 1.3164(4) 0.5170(4)
H79 H 0.9228 1.3474 0.5067
C80 C 0.9477(5) 1.2719(4) 0.5214(3)
C81 C 1.0471(6) 1.2751(4) 0.5165(4)
H80 H 1.0618 1.2996 0.4845
H81 H 1.0744 1.2871 0.5558
N15 N 1.0862(4) 1.2259(3) 0.5013(3)
C82 C 1.0798(7) 1.2135(3) 0.4361(4)
H82 H 1.1323 1.2274 0.4151
H83 H 1.0239 1.2278 0.4172
C83 C 1.0787(5) 1.1577(3) 0.4302(3)
O10 O 1.0444(3) 1.1322(2) 0.4708(2)
N16 N 1.1097(4) 1.1366(3) 0.3805(3)
H84 H 1.1247 1.1558 0.3499
C84 C 1.1196(5) 1.0842(3) 0.3747(3)
H85 H 1.0599 1.0684 0.3824
C85 C 1.1907(5) 1.0633(3) 0.4236(3)
O11 O 1.1917(4) 1.0184(3) 0.4331(3)
O12 O 1.2440(3) 1.0954(2) 0.4478(3)
C86 C 1.1474(5) 1.0688(4) 0.3114(3)
H86 H 1.1641 1.0330 0.3117
H87 H 1.2012 1.0882 0.3001
C87 C 1.0692(6) 1.0777(4) 0.2628(3)
C88 C 1.0715(10) 1.1059(6) 0.2174(5)
H88 H 1.1258 1.1235 0.2103
C89 C 0.9902(16) 1.1133(5) 0.1723(5)
H89 H 0.9899 1.1370 0.1401
C90 C 0.9249(13) 1.0852(9) 0.1817(8)
H90 H 0.8737 1.0878 0.1544
C91 C 0.9211(9) 1.0544(7) 0.2235(8)
H91 H 0.8693 1.0338 0.2263
C92 C 0.9901(6) 1.0497(5) 0.2653(4)
H92 H 0.9844 1.0264 0.2976
N17 N 0.5721(4) 1.1096(2) 0.3768(3)
C93 C 0.4839(5) 1.1155(3) 0.3784(3)
H93 H 0.4615 1.1394 0.4061
C94 C 0.4229(7) 1.0897(4) 0.3429(5)
H94 H 0.3597 1.0941 0.3466
C95 C 0.4574(8) 1.0563(4) 0.3007(5)
H95 H 0.4177 1.0386 0.2733
C96 C 0.5492(8) 1.0491(4) 0.2992(5)
H96 H 0.5722 1.0246 0.2726
C97 C 0.6080(6) 1.0763(3) 0.3349(3)
C98 C 0.7059(6) 1.0737(3) 0.3325(3)
H97 H 0.7238 1.0397 0.3201
H98 H 0.7268 1.0974 0.3014
N18 N 0.7664(4) 1.1861(2) 0.3896(2)
C99 C 0.7641(5) 1.2355(3) 0.3802(3)
H99 H 0.7157 1.2540 0.3963
C100 C 0.8280(6) 1.2608(4) 0.3486(4)
H100 H 0.8266 1.2961 0.3450
C101 C 0.8948(6) 1.2326(5) 0.3220(4)
H101 H 0.9378 1.2484 0.2973
C102 C 0.8987(6) 1.1827(5) 0.3313(4)
H102 H 0.9445 1.1633 0.3135
C103 C 0.8353(5) 1.1603(4) 0.3670(3)
C104 C 0.8414(5) 1.1071(3) 0.3848(4)
H103 H 0.8767 1.1041 0.4239
H104 H 0.8735 1.0883 0.3533
N19 N 0.7497(4) 1.0856(2) 0.3917(3)
C105 C 0.7492(6) 1.0436(3) 0.4363(3)
H105 H 0.8015 1.0213 0.4304
H106 H 0.6930 1.0238 0.4307
C106 C 0.7544(5) 1.0661(3) 0.4986(3)
O13 O 0.7137(3) 1.1073(2) 0.5073(2)
N20 N 0.7967(5) 1.0428(3) 0.5439(3)
H107 H 0.8203 1.0132 0.5377
C107 C 0.8051(6) 1.0657(3) 0.6050(4)
H108 H 0.7460 1.0824 0.6121
C108 C 0.8768(4) 1.1072(3) 0.6048(3)
O14 O 0.8840(4) 1.1334(3) 0.6514(3)
O15 O 0.9218(3) 1.1127(2) 0.5593(2)
C109 C 0.8199(8) 1.0282(5) 0.6563(5)
H109 H 0.8407 1.0460 0.6939
H110 H 0.8678 1.0045 0.6453
C110 C 0.7293(6) 0.9979(4) 0.6697(4)
C111 C 0.6623(7) 1.0209(5) 0.7003(4)
H111 H 0.6703 1.0549 0.7114
C112 C 0.5843(8) 0.9976(6) 0.7157(5)
H112 H 0.5386 1.0139 0.7376
C113 C 0.5766(13) 0.9428(8) 0.6947(8)
H113 H 0.5238 0.9237 0.7012
C114 C 0.6506(10) 0.9227(6) 0.6656(7)
H114 H 0.6497 0.8885 0.6540
C115 C 0.7229(10) 0.9505(6) 0.6538(5)
H115 H 0.7715 0.9356 0.6333
N21 N 0.4209(4) 1.0258(2) 0.4962(3)
C116 C 0.4053(6) 0.9877(3) 0.4567(4)
H116 H 0.3488 0.9858 0.4349
C117 C 0.4711(7) 0.9510(4) 0.4474(5)
H117 H 0.4610 0.9253 0.4182
C118 C 0.5507(6) 0.9534(3) 0.4818(5)
H118 H 0.5964 0.9290 0.4769
C119 C 0.5634(5) 0.9912(3) 0.5232(3)
H119 H 0.6170 0.9922 0.5483
C120 C 0.4999(4) 1.0276(3) 0.5288(3)
C121 C 0.5116(4) 1.0705(3) 0.5726(3)
H120 H 0.5512 1.0600 0.6076
H121 H 0.5415 1.0984 0.5518
N22 N 0.2456(4) 1.0628(3) 0.5873(3)
C122 C 0.1534(6) 1.0598(5) 0.5839(5)
H122 H 0.1220 1.0656 0.5459
C123 C 0.1055(7) 1.0486(5) 0.6347(6)
H123 H 0.0413 1.0484 0.6320
C124 C 0.1490(7) 1.0375(5) 0.6894(6)
H124 H 0.1160 1.0263 0.7232
C125 C 0.2417(8) 1.0430(4) 0.6945(5)
H125 H 0.2730 1.0392 0.7328
C126 C 0.2896(6) 1.0546(3) 0.6408(3)
C127 C 0.3896(6) 1.0555(3) 0.6425(3)
H126 H 0.4120 1.0675 0.6830
H127 H 0.4127 1.0212 0.6369
N23 N 0.4244(4) 1.0876(2) 0.5952(3)
C128 C 0.4273(5) 1.1403(3) 0.6118(3)
H128 H 0.4851 1.1482 0.6339
H129 H 0.3770 1.1485 0.6386
C129 C 0.4189(5) 1.1698(3) 0.5533(3)
O16 O 0.3768(3) 1.15193(18) 0.5084(2)
N24 N 0.4577(4) 1.2143(2) 0.5527(3)
H130 H 0.4779 1.2275 0.5873
C130 C 0.4676(4) 1.2415(2) 0.4964(3)
H131 H 0.4094 1.2387 0.4721
C131 C 0.5418(4) 1.2192(3) 0.4584(4)
O17 O 0.5481(4) 1.2341(2) 0.4046(2)
O18 O 0.5902(3) 1.18543(19) 0.4838(2)
C132 C 0.4841(5) 1.2971(2) 0.5098(4)
H132 H 0.5355 1.3004 0.5397
H133 H 0.5007 1.3141 0.4717
C133 C 0.4039(4) 1.3216(2) 0.5342(3)
C134 C 0.3312(6) 1.3357(3) 0.4961(4)
H134 H 0.3332 1.3287 0.4537
C135 C 0.2566(6) 1.3594(4) 0.5177(7)
H135 H 0.2069 1.3678 0.4910
C136 C 0.2555(8) 1.3707(4) 0.5794(6)
H136 H 0.2055 1.3885 0.5945
C137 C 0.3235(9) 1.3570(4) 0.6186(6)
H137 H 0.3195 1.3625 0.6613
C138 C 0.4000(7) 1.3345(3) 0.5950(4)
H138 H 0.4508 1.3280 0.6216
N21_2 N 1.4209(4) 1.0258(2) 0.4962(3)
N22_2 N 1.2456(4) 1.0628(3) 0.5873(3)
N23_2 N 1.4244(4) 1.0876(2) 0.5952(3)
O16_2 O 1.3768(3) 1.15193(18) 0.5084(2)
Zn6_2 Zn 0.32795(5) 1.07968(3) 0.51635(4)
O19 O 1.2265(7) 0.8810(6) 0.3259(6)
S1 S 1.31034(13) 0.85967(8) 0.32892(9)
F1 F 1.391(2) 0.9389(7) 0.3036(4)
C139 C 1.3818(9) 0.8964(6) 0.2831(4)
O20 O 1.3025(9) 0.8137(4) 0.2992(5)
F2 F 1.3486(6) 0.8993(3) 0.2258(3)
O21 O 1.3568(5) 0.8573(4) 0.3862(3)
F3 F 1.4599(5) 0.8816(7) 0.2823(6)
O22 O 1.6068(9) 0.7069(5) 0.8570(8)
S2 S 1.66847(19) 0.67915(13) 0.82515(17)
F4 F 1.5582(5) 0.6068(4) 0.8385(4)
C140 C 1.6428(10) 0.6191(7) 0.8500(9)
O23 O 1.7609(7) 0.6880(5) 0.8370(8)
F5 F 1.6617(12) 0.6121(7) 0.9066(6)
O24 O 1.6590(13) 0.6839(8) 0.7721(8)
F6 F 1.6914(7) 0.5853(5) 0.8167(8)
O25 O 0.1889(11) 1.1648(6) 0.9729(9)
O26 O -0.0454(8) 1.3754(5) 0.2777(6)
O27 O 1.0481(7) 0.6247(3) 1.0517(3)
S3 S 1.0244(2) 0.63924(12) 1.11512(13)
F7 F 1.1282(10) 0.5686(8) 1.1463(5)
C141 C 1.0383(10) 0.5770(5) 1.1573(5)
O28 O 1.1008(3) 0.6546(5) 1.1233(5)
F8 F 0.9573(9) 0.5580(7) 1.1369(5)
O29 O 0.9336(5) 0.6565(4) 1.1266(4)
F9 F 1.0136(10) 0.5941(7) 1.2136(5)
O30 O 0.4928(7) 1.1444(5) 0.8363(7)
S4 S 0.4178(3) 1.12186(13) 0.80537(17)
C142 C 0.3300(10) 1.1254(5) 0.8590(5)
F10 F 0.2552(7) 1.1053(4) 0.8387(4)
O31 O 0.4235(7) 1.0681(3) 0.7996(5)
F11 F 0.3516(6) 1.1109(3) 0.9136(3)
O32 O 0.3923(15) 1.1460(4) 0.7518(4)
F12 F 0.3106(9) 1.1776(3) 0.8663(5)
S5 S 0.75083(17) 0.93886(19) 1.23592(10)
C143 C 0.6701(8) 0.9665(6) 1.1807(5)
O33 O 0.7443(5) 0.9552(2) 1.2957(2)
F13 F 0.6778(7) 0.9349(5) 1.1308(5)
O34 O 0.8369(4) 0.9318(2) 1.2121(3)
F14 F 0.5880(7) 0.9522(5) 1.2037(5)
O35 O 0.6974(9) 0.8791(2) 1.2312(4)
F15 F 0.7141(7) 1.0117(5) 1.1910(5)
O36 O -0.2164(9) 1.3893(6) 0.3415(12)
S6 S -0.2930(2) 1.41921(14) 0.35962(18)
F16 F -0.3862(12) 1.3381(4) 0.3461(7)
C144 C -0.3723(8) 1.3760(6) 0.3845(7)
O37 O -0.3384(8) 1.4378(5) 0.3070(5)
F17 F -0.3362(6) 1.3455(5) 0.4268(6)
O38 O -0.2777(12) 1.4492(6) 0.4085(5)
F18 F -0.4405(7) 1.3925(4) 0.4034(5)
O39 O 0.7812(7) 1.1446(6) 0.7531(4)
O40 O 1.8824(7) 0.6929(4) 0.9423(8)
O41 O 0.2839(9) 0.9222(6) 0.8146(5)
O42 O -0.0932(7) 0.9636(4) 0.5076(5)
O43 O 0.5739(10) 1.2361(3) 0.6529(5)
O44 O 1.0938(5) 0.9455(3) 0.3647(4)
O45 O 0.3944(5) 0.9918(3) 0.8719(4)
O46 O 0.9137(5) 0.9616(3) 1.3807(3)
O47 O 1.9328(4) 1.2005(3) 1.0439(3)
O48 O 0.0438(4) 1.3615(2) 0.3704(2)
O49 O 0.2425(13) 1.2822(6) 0.3621(5)
O50 O 0.6071(9) 1.1555(5) 0.7255(6)
O51 O 0.1389(10) 1.2091(5) 0.2915(5)
O52 O -0.5938(7) 1.2694(4) 0.3296(6)
O53 O 0.8799(18) 1.4506(8) 0.4831(7)
loop_
_geom_bond_atom_site_label_1
_geom_bond_atom_site_label_2
_geom_bond_site_symmetry_1
_geom_bond_site_symmetry_2
Zn1 N1 1_555 1_555
Zn2 O3 1_555 1_555
Zn3 N9 1_555 1_555
Zn4 N13 1_555 1_555
Zn5 N17 1_555 1_555
Zn6 O12 1_555 1_555
N1 C1 1_555 1_555
C1 H1 1_555 1_555
C2 C1 1_555 1_555
H2 C2 1_555 1_555
C3 C2 1_555 1_555
H3 C3 1_555 1_555
C4 C3 1_555 1_555
H4 C4 1_555 1_555
C5 N1 1_555 1_555
C6 C5 1_555 1_555
H5 C6 1_555 1_555
H6 C6 1_555 1_555
N2 Zn1 1_555 1_555
C7 N2 1_555 1_555
H7 C7 1_555 1_555
C8 C7 1_555 1_555
H8 C8 1_555 1_555
C9 C8 1_555 1_555
H9 C9 1_555 1_555
C10 C9 1_555 1_555
H10 C10 1_555 1_555
C11 N2 1_555 1_555
C12 C11 1_555 1_555
H11 C12 1_555 1_555
H12 C12 1_555 1_555
N3 Zn1 1_555 1_555
C13 N3 1_555 1_555
H13 C13 1_555 1_555
H14 C13 1_555 1_555
C14 C13 1_555 1_555
O1 Zn1 1_555 1_555
N4 C14 1_555 1_555
H15 N4 1_555 1_555
C15 N4 1_555 1_555
H16 C15 1_555 1_555
C16 C15 1_555 1_555
O2 C16 1_555 1_555
O3 C16 1_555 1_555
C17 C15 1_555 1_555
H17 C17 1_555 1_555
H18 C17 1_555 1_555
C18 C17 1_555 1_555
C19 C18 1_555 1_555
H19 C19 1_555 1_555
C20 C19 1_555 1_555
H20 C20 1_555 1_555
C21 C20 1_555 1_555
H21 C21 1_555 1_555
C22 C21 1_555 1_555
H22 C22 1_555 1_555
C23 C18 1_555 1_555
H23 C23 1_555 1_555
N5 Zn2 1_555 1_555
C24 N5 1_555 1_555
H24 C24 1_555 1_555
C25 C24 1_555 1_555
H25 C25 1_555 1_555
C26 C25 1_555 1_555
H26 C26 1_555 1_555
C27 C26 1_555 1_555
H27 C27 1_555 1_555
C28 N5 1_555 1_555
C29 C28 1_555 1_555
H28 C29 1_555 1_555
H29 C29 1_555 1_555
N6 Zn2 1_555 1_555
C30 N6 1_555 1_555
H30 C30 1_555 1_555
C31 C30 1_555 1_555
H31 C31 1_555 1_555
C32 C31 1_555 1_555
H32 C32 1_555 1_555
C33 C32 1_555 1_555
H33 C33 1_555 1_555
C34 N6 1_555 1_555
C35 C34 1_555 1_555
H34 C35 1_555 1_555
H35 C35 1_555 1_555
N7 Zn2 1_555 1_555
C36 N7 1_555 1_555
H36 C36 1_555 1_555
H37 C36 1_555 1_555
C37 C36 1_555 1_555
O4 Zn2 1_555 1_555
N8 C37 1_555 1_555
H38 N8 1_555 1_555
C38 N8 1_555 1_555
H39 C38 1_555 1_555
C39 C38 1_555 1_555
O5 C39 1_555 1_555
O6 C39 1_555 1_555
C40 C38 1_555 1_555
H40 C40 1_555 1_555
H41 C40 1_555 1_555
C41 C40 1_555 1_555
C42 C41 1_555 1_555
H42 C42 1_555 1_555
C43 C42 1_555 1_555
H43 C43 1_555 1_555
C44 C43 1_555 1_555
H44 C44 1_555 1_555
C45 C44 1_555 1_555
H45 C45 1_555 1_555
C46 C41 1_555 1_555
H46 C46 1_555 1_555
N9 C47 1_555 1_555
C47 H47 1_555 1_555
C48 C47 1_555 1_555
H48 C48 1_555 1_555
C49 C48 1_555 1_555
H49 C49 1_555 1_555
C50 C49 1_555 1_555
H50 C50 1_555 1_555
C51 N9 1_555 1_555
C52 C51 1_555 1_555
H51 C52 1_555 1_555
H52 C52 1_555 1_555
N10 Zn3 1_555 1_555
C53 N10 1_555 1_555
H53 C53 1_555 1_555
C54 C53 1_555 1_555
H54 C54 1_555 1_555
C55 C54 1_555 1_555
H55 C55 1_555 1_555
C56 C55 1_555 1_555
H56 C56 1_555 1_555
C57 N10 1_555 1_555
C58 C57 1_555 1_555
H57 C58 1_555 1_555
H58 C58 1_555 1_555
C59 C62 1_555 1_555
C60 H59 1_555 1_555
H60 C60 1_555 1_555
C61 C60 1_555 1_555
O7 Zn3 1_555 1_555
N11 C61 1_555 1_555
H61 N11 1_555 1_555
C62 N11 1_555 1_555
H62 C62 1_555 1_555
O8 C59 1_555 1_555
O9 Zn1 1_555 1_555
C63 C62 1_555 1_555
H63 C63 1_555 1_555
H64 C63 1_555 1_555
N12 Zn3 1_555 1_555
C64 C63 1_555 1_555
C65 C64 1_555 1_555
H65 C65 1_555 1_555
C66 C65 1_555 1_555
H66 C66 1_555 1_555
C67 C66 1_555 1_555
H67 C67 1_555 1_555
C68 C67 1_555 1_555
H68 C68 1_555 1_555
C69 C64 1_555 1_555
H69 C69 1_555 1_555
N13 C70 1_555 1_555
C70 H70 1_555 1_555
C71 C70 1_555 1_555
H71 C71 1_555 1_555
C72 C71 1_555 1_555
H72 C72 1_555 1_555
C73 C72 1_555 1_555
H73 C73 1_555 1_555
C74 N13 1_555 1_555
C75 C74 1_555 1_555
H74 C75 1_555 1_555
H75 C75 1_555 1_555
N14 Zn4 1_555 1_555
C76 N14 1_555 1_555
H76 C76 1_555 1_555
C77 C76 1_555 1_555
H77 C77 1_555 1_555
C78 C77 1_555 1_555
H78 C78 1_555 1_555
C79 C78 1_555 1_555
H79 C79 1_555 1_555
C80 N14 1_555 1_555
C81 C80 1_555 1_555
H80 C81 1_555 1_555
H81 C81 1_555 1_555
N15 Zn4 1_555 1_555
C82 N15 1_555 1_555
H82 C82 1_555 1_555
H83 C82 1_555 1_555
C83 C82 1_555 1_555
O10 Zn4 1_555 1_555
N16 C83 1_555 1_555
H84 N16 1_555 1_555
C84 N16 1_555 1_555
H85 C84 1_555 1_555
C85 C84 1_555 1_555
O11 C85 1_555 1_555
O12 C85 1_555 1_555
C86 C84 1_555 1_555
H86 C86 1_555 1_555
H87 C86 1_555 1_555
C87 C86 1_555 1_555
C88 C87 1_555 1_555
H88 C88 1_555 1_555
C89 C88 1_555 1_555
H89 C89 1_555 1_555
C90 C89 1_555 1_555
H90 C90 1_555 1_555
C91 C90 1_555 1_555
H91 C91 1_555 1_555
C92 C87 1_555 1_555
H92 C92 1_555 1_555
N17 C93 1_555 1_555
C93 H93 1_555 1_555
C94 C93 1_555 1_555
H94 C94 1_555 1_555
C95 C94 1_555 1_555
H95 C95 1_555 1_555
C96 C95 1_555 1_555
H96 C96 1_555 1_555
C97 N17 1_555 1_555
C98 C97 1_555 1_555
H97 C98 1_555 1_555
H98 C98 1_555 1_555
N18 Zn5 1_555 1_555
C99 N18 1_555 1_555
H99 C99 1_555 1_555
C100 C99 1_555 1_555
H100 C100 1_555 1_555
C101 C100 1_555 1_555
H101 C101 1_555 1_555
C102 C101 1_555 1_555
H102 C102 1_555 1_555
C103 N18 1_555 1_555
C104 C103 1_555 1_555
H103 C104 1_555 1_555
H104 C104 1_555 1_555
N19 Zn5 1_555 1_555
C105 N19 1_555 1_555
H105 C105 1_555 1_555
H106 C105 1_555 1_555
C106 C105 1_555 1_555
O13 Zn5 1_555 1_555
N20 C106 1_555 1_555
H107 N20 1_555 1_555
C107 N20 1_555 1_555
H108 C107 1_555 1_555
C108 C107 1_555 1_555
O14 C108 1_555 1_555
O15 Zn4 1_555 1_555
C109 C107 1_555 1_555
H109 C109 1_555 1_555
H110 C109 1_555 1_555
C110 C109 1_555 1_555
C111 C110 1_555 1_555
H111 C111 1_555 1_555
C112 C111 1_555 1_555
H112 C112 1_555 1_555
C113 C112 1_555 1_555
H113 C113 1_555 1_555
C114 C113 1_555 1_555
H114 C114 1_555 1_555
C115 C110 1_555 1_555
H115 C115 1_555 1_555
N21 C116 1_555 1_555
C116 H116 1_555 1_555
C117 C116 1_555 1_555
H117 C117 1_555 1_555
C118 C117 1_555 1_555
H118 C118 1_555 1_555
C119 C118 1_555 1_555
H119 C119 1_555 1_555
C120 N21 1_555 1_555
C121 C120 1_555 1_555
H120 C121 1_555 1_555
H121 C121 1_555 1_555
N22 C122 1_555 1_555
C122 H122 1_555 1_555
C123 C122 1_555 1_555
H123 C123 1_555 1_555
C124 C123 1_555 1_555
H124 C124 1_555 1_555
C125 C124 1_555 1_555
H125 C125 1_555 1_555
C126 N22 1_555 1_555
C127 C126 1_555 1_555
H126 C127 1_555 1_555
H127 C127 1_555 1_555
N23 C121 1_555 1_555
C128 N23 1_555 1_555
H128 C128 1_555 1_555
H129 C128 1_555 1_555
C129 C128 1_555 1_555
O16 C129 1_555 1_555
N24 C129 1_555 1_555
H130 N24 1_555 1_555
C130 N24 1_555 1_555
H131 C130 1_555 1_555
C131 C130 1_555 1_555
O17 C131 1_555 1_555
O18 Zn5 1_555 1_555
C132 C130 1_555 1_555
H132 C132 1_555 1_555
H133 C132 1_555 1_555
C133 C132 1_555 1_555
C134 C133 1_555 1_555
H134 C134 1_555 1_555
C135 C134 1_555 1_555
H135 C135 1_555 1_555
C136 C135 1_555 1_555
H136 C136 1_555 1_555
C137 C136 1_555 1_555
H137 C137 1_555 1_555
C138 C133 1_555 1_555
H138 C138 1_555 1_555
O19 S1 1_555 1_555
S1 C139 1_555 1_555
F1 C139 1_555 1_555
C139 F2 1_555 1_555
O20 S1 1_555 1_555
O21 S1 1_555 1_555
F3 C139 1_555 1_555
O22 S2 1_555 1_555
S2 C140 1_555 1_555
F4 C140 1_555 1_555
C140 F5 1_555 1_555
O23 S2 1_555 1_555
O24 S2 1_555 1_555
F6 C140 1_555 1_555
O27 S3 1_555 1_555
S3 C141 1_555 1_555
F7 C141 1_555 1_555
C141 F8 1_555 1_555
O28 S3 1_555 1_555
O29 S3 1_555 1_555
F9 C141 1_555 1_555
O30 S4 1_555 1_555
S4 C142 1_555 1_555
C142 F10 1_555 1_555
O31 S4 1_555 1_555
F11 C142 1_555 1_555
O32 S4 1_555 1_555
F12 C142 1_555 1_555
S5 C143 1_555 1_555
C143 F13 1_555 1_555
O33 S5 1_555 1_555
O34 S5 1_555 1_555
F14 C143 1_555 1_555
O35 S5 1_555 1_555
F15 C143 1_555 1_555
O36 S6 1_555 1_555
S6 C144 1_555 1_555
F16 C144 1_555 1_555
C144 F17 1_555 1_555
O37 S6 1_555 1_555
O38 S6 1_555 1_555
F18 C144 1_555 1_555
O6_2 Zn3 1_555 1_555
N21_2 Zn6 1_555 1_555
N22_2 Zn6 1_555 1_555
N23_2 Zn6 1_555 1_555
O16_2 Zn6 1_555 1_555
Zn3_2 O6 1_555 1_555
Zn6_2 N21 1_555 1_555
C4 C5 1_555 1_555
C6 N3 1_555 1_555
C10 C11 1_555 1_555
C12 N3 1_555 1_555
C14 O1 1_555 1_555
C22 C23 1_555 1_555
C27 C28 1_555 1_555
C29 N7 1_555 1_555
C33 C34 1_555 1_555
C35 N7 1_555 1_555
C37 O4 1_555 1_555
C45 C46 1_555 1_555
C50 C51 1_555 1_555
C52 N12 1_555 1_555
C56 C57 1_555 1_555
C58 N12 1_555 1_555
C59 O9 1_555 1_555
C60 N12 1_555 1_555
C61 O7 1_555 1_555
C68 C69 1_555 1_555
C73 C74 1_555 1_555
C75 N15 1_555 1_555
C79 C80 1_555 1_555
C81 N15 1_555 1_555
C83 O10 1_555 1_555
C91 C92 1_555 1_555
C96 C97 1_555 1_555
C98 N19 1_555 1_555
C102 C103 1_555 1_555
C104 N19 1_555 1_555
C106 O13 1_555 1_555
C108 O15 1_555 1_555
C114 C115 1_555 1_555
C119 C120 1_555 1_555
N22 Zn6_2 1_555 1_555
C125 C126 1_555 1_555
C127 N23 1_555 1_555
N23 Zn6_2 1_555 1_555
O16 Zn6_2 1_555 1_555
C131 O18 1_555 1_555
C137 C138 1_555 1_555

#END
