
#######################################################################
#
#                 Cambridge Crystallographic Data Centre
#                                CCDC 
#
#######################################################################
#
# If this CIF has been generated from an entry in the Cambridge 
# Structural Database, then it will include bibliographic, chemical, 
# crystal, experimental, refinement or atomic coordinate data resulting 
# from the CCDC's data processing and validation procedures.
#
#######################################################################

data_UJENAZ
_symmetry_cell_setting           monoclinic
_symmetry_space_group_name_H-M   'P 21/c'
_symmetry_Int_Tables_number      14
_space_group_name_Hall           '-P 2ybc'
loop_
_symmetry_equiv_pos_site_id
_symmetry_equiv_pos_as_xyz
1 x,y,z
2 -x,1/2+y,1/2-z
3 -x,-y,-z
4 x,1/2-y,1/2+z
_cell_length_a                   10.92547(17)
_cell_length_b                   7.96493(12)
_cell_length_c                   18.36893(30)
_cell_angle_alpha                90
_cell_angle_beta                 116.07536(84)
_cell_angle_gamma                90
_cell_volume                     1435.78
loop_
_atom_site_label
_atom_site_type_symbol
_atom_site_fract_x
_atom_site_fract_y
_atom_site_fract_z
Cu1 Cu -0.078252(31) 0.00243(33) 0.050602(25)
S1 S 0.23032(27) 0.00500(46) 0.21914(14)
F1 F 0.33742(51) -0.29576(59) 0.22527(31)
F2 F 0.31127(57) -0.14974(74) 0.12091(25)
F3 F 0.46233(48) -0.08803(66) 0.24078(34)
O1 O 0.009682(78) 0.146554(57) 0.004112(53)
O2 O 0.10149(53) -0.07087(76) 0.17427(35)
O3 O 0.25112(64) 0.16531(67) 0.19085(37)
O4 O 0.28548(58) -0.0061(10) 0.30467(26)
N1 N -0.24045(46) -0.13193(77) 0.04273(24)
N2 N -0.10844(51) 0.18529(62) 0.11061(27)
C1 C -0.31859(37) -0.20339(67) -0.02873(21)
H1 H -0.28648(70) -0.2079(14) -0.07081(37)
C2 C -0.44546(30) -0.26954(63) -0.04344(20)
H2 H -0.50558(64) -0.3205(12) -0.09581(34)
C3 C -0.48343(37) -0.25898(56) 0.01903(20)
H3 H -0.57161(64) -0.3053(12) 0.01131(46)
C4 C -0.39795(35) -0.18715(64) 0.09234(20)
H4 H -0.42266(73) -0.1801(13) 0.13731(38)
C5 C -0.27073(37) -0.12478(70) 0.10546(22)
C6 C -0.18408(36) -0.03987(47) 0.18146(22)
H5 H -0.21943(72) -0.0545(14) 0.22266(36)
H6 H -0.09298(66) -0.0930(11) 0.20292(58)
C7 C -0.17192(36) 0.14812(54) 0.16603(20)
H7 H -0.1195(11) 0.2020(12) 0.22030(46)
H8 H -0.26487(66) 0.1990(13) 0.14237(61)
C8 C -0.08267(47) 0.33759(49) 0.10376(23)
H9 H -0.10673(89) 0.41784(96) 0.13563(43)
C9 C -0.03826(42) 0.41425(11) 0.052016(51)
C10 C 0.00058(11) 0.322233(85) -0.000111(77)
C11 C 0.04331(15) 0.41104(11) -0.04936(17)
H10 H 0.07163(71) 0.3478(10) -0.08447(39)
C12 C 0.34096(39) -0.14019(52) 0.20035(22)
Cu1B Cu 0.078252(31) 0.99757(33) -0.050602(25)
Cu1B_2 Cu 0.078252(31) -0.00243(33) -0.050602(25)
Cu1_2 Cu -0.078252(31) 1.00243(33) 0.050602(25)
S1B S -0.23032(27) 0.99500(46) -0.21914(14)
F1B F -0.33742(51) 1.29576(59) -0.22527(31)
F2B F -0.31127(57) 1.14974(74) -0.12091(25)
F3B F -0.46233(48) 1.08803(66) -0.24078(34)
O1B O -0.009682(78) 0.853446(57) -0.004112(53)
O1B_2 O -0.009682(78) -0.146554(57) -0.004112(53)
O1_2 O 0.009682(78) 1.146554(57) 0.004112(53)
O2B O -0.10149(53) 1.07087(76) -0.17427(35)
O3B O -0.25112(64) 0.83469(67) -0.19085(37)
O4B O -0.28548(58) 1.0061(10) -0.30467(26)
N1B N 0.24045(46) 1.13193(77) -0.04273(24)
N2B N 0.10844(51) 0.81471(62) -0.11061(27)
C1B C 0.31859(37) 1.20339(67) 0.02873(21)
H1B H 0.28648(70) 1.2079(14) 0.07081(37)
C2B C 0.44546(30) 1.26954(63) 0.04344(20)
H2B H 0.50558(64) 1.3205(12) 0.09581(34)
C3B C 0.48343(37) 1.25898(56) -0.01903(20)
H3B H 0.57161(64) 1.3053(12) -0.01131(46)
C4B C 0.39795(35) 1.18715(64) -0.09234(20)
H4B H 0.42266(73) 1.1801(13) -0.13731(38)
C5B C 0.27073(37) 1.12478(70) -0.10546(22)
C6B C 0.18408(36) 1.03987(47) -0.18146(22)
H5B H 0.21943(72) 1.0545(14) -0.22266(36)
H6B H 0.09298(66) 1.0930(11) -0.20292(58)
C7B C 0.17192(36) 0.85188(54) -0.16603(20)
H7B H 0.1195(11) 0.7980(12) -0.22030(46)
H8B H 0.26487(66) 0.8010(13) -0.14237(61)
C8B C 0.08267(47) 0.66241(49) -0.10376(23)
H9B H 0.10673(89) 0.58216(96) -0.13563(43)
C9B C 0.03826(42) 0.58575(11) -0.052016(51)
C10B C -0.00058(11) 0.677767(85) 0.000111(77)
C11B C -0.04331(15) 0.58896(11) 0.04936(17)
H10B H -0.07163(71) 0.6522(10) 0.08447(39)
C12B C -0.34096(39) 1.14019(52) -0.20035(22)
loop_
_geom_bond_atom_site_label_1
_geom_bond_atom_site_label_2
_geom_bond_site_symmetry_1
_geom_bond_site_symmetry_2
Cu1 O1 1_555 1_555
S1 O2 1_555 1_555
F1 C12 1_555 1_555
F2 C12 1_555 1_555
F3 C12 1_555 1_555
O1 C10 1_555 1_555
O2 Cu1 1_555 1_555
O3 S1 1_555 1_555
O4 S1 1_555 1_555
N1 Cu1 1_555 1_555
N2 Cu1 1_555 1_555
C1 N1 1_555 1_555
H1 C1 1_555 1_555
C2 C1 1_555 1_555
H2 C2 1_555 1_555
C3 C2 1_555 1_555
H3 C3 1_555 1_555
C4 C3 1_555 1_555
H4 C4 1_555 1_555
C5 N1 1_555 1_555
C6 C5 1_555 1_555
H5 C6 1_555 1_555
H6 C6 1_555 1_555
C7 N2 1_555 1_555
H7 C7 1_555 1_555
H8 C7 1_555 1_555
C8 N2 1_555 1_555
H9 C8 1_555 1_555
C9 C8 1_555 1_555
C10 C9 1_555 1_555
C11 C10 1_555 1_555
H10 C11 1_555 1_555
C12 S1 1_555 1_555
Cu1B O1B 1_555 1_555
Cu1B_2 O1 1_555 1_555
Cu1_2 O1B 1_555 1_555
S1B O2B 1_555 1_555
F1B C12B 1_555 1_555
F2B C12B 1_555 1_555
F3B C12B 1_555 1_555
O1B C10B 1_555 1_555
O1B_2 Cu1 1_555 1_555
O1_2 Cu1B 1_555 1_555
O2B Cu1B 1_555 1_555
O3B S1B 1_555 1_555
O4B S1B 1_555 1_555
N1B Cu1B 1_555 1_555
N2B Cu1B 1_555 1_555
C1B N1B 1_555 1_555
H1B C1B 1_555 1_555
C2B C1B 1_555 1_555
H2B C2B 1_555 1_555
C3B C2B 1_555 1_555
H3B C3B 1_555 1_555
C4B C3B 1_555 1_555
H4B C4B 1_555 1_555
C5B N1B 1_555 1_555
C6B C5B 1_555 1_555
H5B C6B 1_555 1_555
H6B C6B 1_555 1_555
C7B N2B 1_555 1_555
H7B C7B 1_555 1_555
H8B C7B 1_555 1_555
C8B N2B 1_555 1_555
H9B C8B 1_555 1_555
C9B C11 1_555 1_555
C10B C9B 1_555 1_555
C11B C9 1_555 1_555
H10B C11B 1_555 1_555
C12B S1B 1_555 1_555
C4 C5 1_555 1_555
C6 C7 1_555 1_555
Cu1B_2 O1B_2 1_555 1_555
Cu1_2 O1_2 1_555 1_555
C4B C5B 1_555 1_555
C6B C7B 1_555 1_555
C8B C9B 1_555 1_555
C10B C11B 1_555 1_555

#END
