
#######################################################################
#
#                 Cambridge Crystallographic Data Centre
#                                CCDC 
#
#######################################################################
#
# If this CIF has been generated from an entry in the Cambridge 
# Structural Database, then it will include bibliographic, chemical, 
# crystal, experimental, refinement or atomic coordinate data resulting 
# from the CCDC's data processing and validation procedures.
#
#######################################################################

data_UJEPUV
_symmetry_cell_setting           triclinic
_symmetry_space_group_name_H-M   'P -1'
_symmetry_Int_Tables_number      2
_space_group_name_Hall           '-P 1'
loop_
_symmetry_equiv_pos_site_id
_symmetry_equiv_pos_as_xyz
1 x,y,z
2 -x,-y,-z
_cell_length_a                   11.5834(5)
_cell_length_b                   12.1886(6)
_cell_length_c                   12.8749(6)
_cell_angle_alpha                68.520(4)
_cell_angle_beta                 69.688(4)
_cell_angle_gamma                71.439(4)
_cell_volume                     1547.77
loop_
_atom_site_label
_atom_site_type_symbol
_atom_site_fract_x
_atom_site_fract_y
_atom_site_fract_z
Mn1 Mn 0.50058(6) 0.35501(5) 0.59359(6)
Fe1 Fe 0.56004(7) 0.07199(5) 0.55578(6)
N1 N 0.5976(4) -0.0511(3) 0.7254(3)
N2 N 0.7627(4) 0.0129(3) 0.4676(3)
N3 N 0.3213(4) 0.3724(3) 0.7447(3)
N4 N 0.6076(4) 0.3296(3) 0.7265(3)
O1 O 0.5058(3) -0.0969(2) 0.5881(3)
O2 O 0.6450(3) 0.2261(2) 0.5108(3)
O3 O 0.4209(3) 0.1944(2) 0.6457(3)
O4 O 0.5871(3) 0.5107(2) 0.5345(3)
C1 C 0.6421(5) -0.0281(4) 0.7938(5)
H1 H 0.6630 0.0465 0.7703
C2 C 0.6602(6) -0.1082(6) 0.9000(5)
H2 H 0.6899 -0.0860 0.9462
C3 C 0.6340(6) -0.2178(5) 0.9341(5)
H3 H 0.6467 -0.2726 1.0039
C4 C 0.5875(5) -0.2499(4) 0.8648(4)
C5 C 0.5568(7) -0.3625(5) 0.8917(5)
H4 H 0.5692 -0.4229 0.9590
C6 C 0.5098(6) -0.3817(5) 0.8194(5)
H5 H 0.4907 -0.4564 0.8384
C7 C 0.4881(5) -0.2940(4) 0.7163(4)
H6 H 0.4534 -0.3106 0.6700
C8 C 0.5186(4) -0.1837(4) 0.6844(4)
C9 C 0.5684(4) -0.1612(4) 0.7597(4)
C10 C 0.8205(5) -0.0919(4) 0.4472(5)
H7 H 0.7752 -0.1522 0.4757
C11 C 0.9456(6) -0.1170(5) 0.3854(6)
H8 H 0.9825 -0.1932 0.3746
C12 C 1.0140(6) -0.0314(5) 0.3409(6)
H9 H 1.0977 -0.0481 0.2989
C13 C 0.9576(5) 0.0844(5) 0.3586(5)
C14 C 1.0198(6) 0.1800(6) 0.3166(6)
H10 H 1.1037 0.1704 0.2738
C15 C 0.9561(6) 0.2861(5) 0.3395(6)
H11 H 0.9971 0.3497 0.3096
C16 C 0.8314(5) 0.3044(4) 0.4059(5)
H12 H 0.7931 0.3783 0.4215
C17 C 0.7637(5) 0.2152(4) 0.4489(4)
C18 C 0.8291(4) 0.1018(4) 0.4246(4)
C19 C 0.2724(6) 0.4597(5) 0.7942(5)
H13 H 0.3096 0.5259 0.7649
C20 C 0.1669(8) 0.4571(7) 0.8891(7)
H14 H 0.1339 0.5221 0.9200
C21 C 0.1126(7) 0.3615(7) 0.9362(7)
H15 H 0.0444 0.3587 1.0014
C22 C 0.1591(5) 0.2663(5) 0.8867(5)
C23 C 0.1113(6) 0.1599(7) 0.9297(6)
H16 H 0.0416 0.1515 0.9933
C24 C 0.1664(6) 0.0721(6) 0.8787(6)
H17 H 0.1341 0.0029 0.9085
C25 C 0.2711(5) 0.0794(4) 0.7823(5)
H18 H 0.3059 0.0159 0.7493
C26 C 0.3233(5) 0.1802(4) 0.7358(4)
C27 C 0.2662(5) 0.2746(4) 0.7910(4)
C28 C 0.6106(6) 0.2457(5) 0.8253(5)
H19 H 0.5524 0.1967 0.8563
C29 C 0.6976(7) 0.2272(6) 0.8856(6)
H20 H 0.6955 0.1685 0.9566
C30 C 0.7842(7) 0.2945(6) 0.8406(6)
H21 H 0.8451 0.2787 0.8790
C31 C 0.7857(6) 0.3881(5) 0.7369(6)
C32 C 0.8700(7) 0.4651(6) 0.6858(7)
H22 H 0.9348 0.4535 0.7182
C33 C 0.8567(7) 0.5574(6) 0.5880(7)
H23 H 0.9105 0.6107 0.5563
C34 C 0.7627(6) 0.5736(5) 0.5337(5)
H24 H 0.7575 0.6362 0.4660
C35 C 0.6796(5) 0.4995(4) 0.5783(5)
C36 C 0.6918(5) 0.4036(4) 0.6815(5)
Mn1A Mn 0.49942(6) 0.64499(5) 0.40641(6)
Fe1A Fe 0.43996(7) -0.07199(5) 0.44422(6)
O1A O 0.4942(3) 0.0969(2) 0.4119(3)
O4A O 0.4129(3) 0.4893(2) 0.4655(3)
O5 O 0.8133(13) 0.2446(12) 0.1321(12)
H25 H 0.735(5) 0.265(16) 0.16(2)
H26 H 0.829(16) 0.176(10) 0.12(2)
loop_
_geom_bond_atom_site_label_1
_geom_bond_atom_site_label_2
_geom_bond_site_symmetry_1
_geom_bond_site_symmetry_2
Mn1 N3 1_555 1_555
Fe1 N1 1_555 1_555
N1 C1 1_555 1_555
N2 Fe1 1_555 1_555
N3 C19 1_555 1_555
N4 Mn1 1_555 1_555
O1 Fe1 1_555 1_555
O2 Mn1 1_555 1_555
O3 Mn1 1_555 1_555
O4 Mn1 1_555 1_555
C1 H1 1_555 1_555
C2 C1 1_555 1_555
H2 C2 1_555 1_555
C3 C2 1_555 1_555
H3 C3 1_555 1_555
C4 C3 1_555 1_555
C5 C4 1_555 1_555
H4 C5 1_555 1_555
C6 C5 1_555 1_555
H5 C6 1_555 1_555
C7 C6 1_555 1_555
H6 C7 1_555 1_555
C8 O1 1_555 1_555
C9 N1 1_555 1_555
C10 N2 1_555 1_555
H7 C10 1_555 1_555
C11 C10 1_555 1_555
H8 C11 1_555 1_555
C12 C11 1_555 1_555
H9 C12 1_555 1_555
C13 C12 1_555 1_555
C14 C13 1_555 1_555
H10 C14 1_555 1_555
C15 C14 1_555 1_555
H11 C15 1_555 1_555
C16 C15 1_555 1_555
H12 C16 1_555 1_555
C17 O2 1_555 1_555
C18 N2 1_555 1_555
C19 H13 1_555 1_555
C20 C19 1_555 1_555
H14 C20 1_555 1_555
C21 C20 1_555 1_555
H15 C21 1_555 1_555
C22 C21 1_555 1_555
C23 C22 1_555 1_555
H16 C23 1_555 1_555
C24 C23 1_555 1_555
H17 C24 1_555 1_555
C25 C24 1_555 1_555
H18 C25 1_555 1_555
C26 O3 1_555 1_555
C27 N3 1_555 1_555
C28 N4 1_555 1_555
H19 C28 1_555 1_555
C29 C28 1_555 1_555
H20 C29 1_555 1_555
C30 C29 1_555 1_555
H21 C30 1_555 1_555
C31 C30 1_555 1_555
C32 C31 1_555 1_555
H22 C32 1_555 1_555
C33 C32 1_555 1_555
H23 C33 1_555 1_555
C34 C33 1_555 1_555
H24 C34 1_555 1_555
C35 O4 1_555 1_555
C36 N4 1_555 1_555
O5 H25 1_555 1_555
H26 O5 1_555 1_555
Mn1A O4 1_555 1_555
Fe1A O1 1_555 1_555
O1A Fe1 1_555 1_555
O4A Mn1 1_555 1_555
Fe1 O2 1_555 1_555
Fe1 O3 1_555 1_555
C4 C9 1_555 1_555
C7 C8 1_555 1_555
C8 C9 1_555 1_555
C13 C18 1_555 1_555
C16 C17 1_555 1_555
C17 C18 1_555 1_555
C22 C27 1_555 1_555
C25 C26 1_555 1_555
C26 C27 1_555 1_555
C31 C36 1_555 1_555
C34 C35 1_555 1_555
C35 C36 1_555 1_555
Mn1A O4A 1_555 1_555
Fe1A O1A 1_555 1_555

#END
