
#######################################################################
#
#                 Cambridge Crystallographic Data Centre
#                                CCDC 
#
#######################################################################
#
# If this CIF has been generated from an entry in the Cambridge 
# Structural Database, then it will include bibliographic, chemical, 
# crystal, experimental, refinement or atomic coordinate data resulting 
# from the CCDC's data processing and validation procedures.
#
#######################################################################

data_UJEQAC
_symmetry_cell_setting           tetragonal
_symmetry_space_group_name_H-M   'I 41/a'
_symmetry_Int_Tables_number      88
_space_group_name_Hall           '-I 4ad'
loop_
_symmetry_equiv_pos_site_id
_symmetry_equiv_pos_as_xyz
1 x,y,z
2 1/2-x,-y,1/2+z
3 3/4-y,1/4+x,1/4+z
4 3/4+y,3/4-x,3/4+z
5 1/2+x,1/2+y,1/2+z
6 -x,1/2-y,z
7 1/4-y,3/4+x,3/4+z
8 1/4+y,1/4-x,1/4+z
9 -x,-y,-z
10 1/2+x,y,1/2-z
11 1/4+y,3/4-x,3/4-z
12 1/4-y,1/4+x,1/4-z
13 1/2-x,1/2-y,1/2-z
14 x,1/2+y,-z
15 3/4+y,1/4-x,1/4-z
16 3/4-y,3/4+x,3/4-z
_cell_length_a                   29.9029(8)
_cell_length_b                   29.9029(8)
_cell_length_c                   6.6248(3)
_cell_angle_alpha                90
_cell_angle_beta                 90
_cell_angle_gamma                90
_cell_volume                     5923.79
loop_
_atom_site_label
_atom_site_type_symbol
_atom_site_fract_x
_atom_site_fract_y
_atom_site_fract_z
Mn1 Mn 0.239249(15) 0.267042(14) 0.00032(7)
C1 C 0.15128(12) 0.32207(10) -0.1501(4)
H1 H 0.1687 0.3295 -0.2614
C2 C 0.10776(12) 0.33800(12) -0.1417(5)
H2 H 0.0967 0.3560 -0.2446
C3 C 0.08147(11) 0.32705(10) 0.0175(5)
H3 H 0.0522 0.3374 0.0232
C4 C 0.09839(11) 0.29996(10) 0.1748(5)
C5 C 0.07428(11) 0.28790(11) 0.3488(5)
H4 H 0.0444 0.2960 0.3617
C6 C 0.09464(10) 0.26460(10) 0.4970(5)
H5 H 0.0783 0.2568 0.6112
C7 C 0.13959(10) 0.25172(9) 0.4845(5)
H6 H 0.1524 0.2356 0.5900
C8 C 0.16522(11) 0.26249(10) 0.3184(4)
C9 C 0.14353(11) 0.28658(10) 0.1587(4)
C10 C 0.25230(11) 0.36624(12) 0.1870(5)
H7 H 0.2345 0.3555 0.2913
C11 C 0.26960(12) 0.40970(12) 0.2034(5)
H8 H 0.2627 0.4275 0.3143
C12 C 0.29654(11) 0.42532(11) 0.0542(5)
H9 H 0.3085 0.4540 0.0631
C13 C 0.30640(11) 0.39819(11) -0.1142(5)
C14 C 0.33471(11) 0.41080(11) -0.2717(6)
H10 H 0.3487 0.4386 -0.2695
C15 C 0.34186(11) 0.38234(13) -0.4286(5)
H11 H 0.3610 0.3911 -0.5321
C16 C 0.32120(11) 0.33987(11) -0.4394(5)
H12 H 0.3271 0.3212 -0.5484
C17 C 0.29256(10) 0.32607(10) -0.2899(4)
C18 C 0.28616(10) 0.35531(11) -0.1209(4)
N1 N 0.16934(7) 0.29671(7) -0.0067(4)
N2 N 0.25998(7) 0.33974(8) 0.0316(3)
O1 O 0.20822(6) 0.25286(6) 0.2973(3)
O2 O 0.27136(7) 0.28707(7) -0.2905(3)
Mn1L Mn 0.260751(15) 0.232958(14) 0.49968(7)
Mn1L_2 Mn 0.260751(15) 0.232958(14) -0.50032(7)
O1L O 0.29178(6) 0.24714(6) 0.2027(3)
O2L O 0.22864(7) 0.21293(7) -0.2095(3)
loop_
_geom_bond_atom_site_label_1
_geom_bond_atom_site_label_2
_geom_bond_site_symmetry_1
_geom_bond_site_symmetry_2
Mn1 N1 1_555 1_555
C1 H1 1_555 1_555
C2 C1 1_555 1_555
H2 C2 1_555 1_555
C3 C2 1_555 1_555
H3 C3 1_555 1_555
C4 C3 1_555 1_555
C5 C4 1_555 1_555
H4 C5 1_555 1_555
C6 C5 1_555 1_555
H5 C6 1_555 1_555
C7 C6 1_555 1_555
H6 C7 1_555 1_555
C8 C7 1_555 1_555
C9 C4 1_555 1_555
C10 H7 1_555 1_555
C11 C10 1_555 1_555
H8 C11 1_555 1_555
C12 C11 1_555 1_555
H9 C12 1_555 1_555
C13 C12 1_555 1_555
C14 C13 1_555 1_555
H10 C14 1_555 1_555
C15 C14 1_555 1_555
H11 C15 1_555 1_555
C16 C15 1_555 1_555
H12 C16 1_555 1_555
C17 C16 1_555 1_555
C18 C13 1_555 1_555
N1 C1 1_555 1_555
N2 Mn1 1_555 1_555
O1 Mn1 1_555 1_555
O2 Mn1 1_555 1_555
Mn1L O1 1_555 1_555
Mn1L_2 O2 1_555 1_555
O1L Mn1 1_555 1_555
O2L Mn1 1_555 1_555
C8 C9 1_555 1_555
C8 O1 1_555 1_555
C9 N1 1_555 1_555
C10 N2 1_555 1_555
C17 C18 1_555 1_555
C17 O2 1_555 1_555
C18 N2 1_555 1_555
Mn1L O1L 1_555 1_555
Mn1L_2 O2L 1_555 1_555

#END
