
#######################################################################
#
#                 Cambridge Crystallographic Data Centre
#                                CCDC 
#
#######################################################################
#
# If this CIF has been generated from an entry in the Cambridge 
# Structural Database, then it will include bibliographic, chemical, 
# crystal, experimental, refinement or atomic coordinate data resulting 
# from the CCDC's data processing and validation procedures.
#
#######################################################################

data_UJEQIK
_symmetry_cell_setting           monoclinic
_symmetry_space_group_name_H-M   'C 2/c'
_symmetry_Int_Tables_number      15
_space_group_name_Hall           '-C 2yn'
loop_
_symmetry_equiv_pos_site_id
_symmetry_equiv_pos_as_xyz
1 x,y,z
2 -x,y,1/2-z
3 1/2+x,1/2+y,z
4 1/2-x,1/2+y,1/2-z
5 -x,-y,-z
6 x,-y,1/2+z
7 1/2-x,1/2-y,-z
8 1/2+x,1/2-y,1/2+z
_cell_length_a                   27.772(16)
_cell_length_b                   15.198(9)
_cell_length_c                   15.174(9)
_cell_angle_alpha                90
_cell_angle_beta                 104.897(13)
_cell_angle_gamma                90
_cell_volume                     6189.36
loop_
_atom_site_label
_atom_site_type_symbol
_atom_site_fract_x
_atom_site_fract_y
_atom_site_fract_z
C1 C 0.06159(14) 0.2172(3) 0.5732(3)
C2 C 0.08056(15) 0.2856(3) 0.5203(3)
C3 C 0.01371(17) 0.0878(3) 0.5830(3)
H1 H -0.0081 0.0446 0.5528
C4 C 0.01874(15) 0.4998(2) 0.0450(3)
C5 C 0.09941(15) -0.0748(3) 0.8682(3)
C6 C 0.22788(15) 0.4185(3) 0.2793(3)
C7 C 0.12852(16) 0.6787(3) 0.4372(3)
C8 C 0.10457(15) -0.1453(3) 0.8073(3)
C9 C 0.07465(16) 0.2175(3) 0.6693(3)
H2 H 0.0951 0.2617 0.7012
C10 C 0.01380(16) 0.5550(3) 0.1162(3)
H3 H -0.0134 0.5926 0.1080
C11 C 0.12502(18) 0.3292(3) 0.5550(3)
H4 H 0.1443 0.3163 0.6134
C12 C 0.14097(17) 0.3924(3) 0.5028(3)
H5 H 0.1710 0.4208 0.5283
C13 C 0.05439(16) 0.3086(3) 0.4315(3)
H6 H 0.0244 0.2809 0.4039
C14 C 0.09390(18) 0.4476(3) 0.1479(3)
H7 H 0.1212 0.4100 0.1580
C15 C 0.17754(17) 0.6809(3) 0.4951(3)
C16 C 0.04939(16) 0.5534(3) 0.1984(3)
H8 H 0.0453 0.5912 0.2442
C17 C 0.07353(17) 0.3732(3) 0.3846(3)
H9 H 0.0552 0.3877 0.3260
C18 C 0.03063(16) 0.1494(3) 0.5314(3)
H10 H 0.0212 0.1455 0.4681
C19 C 0.24805(16) 0.4986(3) 0.2509(3)
C20 C 0.05704(16) 0.1520(3) 0.7161(3)
H11 H 0.0665 0.1531 0.7795
C21 C 0.06000(17) 0.4462(3) 0.0639(3)
H12 H 0.0651 0.4082 0.0190
C22 C 0.22430(17) 0.5822(3) 0.2497(3)
H13 H 0.2399 0.6288 0.2284
C23 C 0.14534(17) -0.2042(3) 0.8333(4)
H14 H 0.1479 -0.2500 0.7942
C24 C 0.1802(2) -0.1963(4) 0.9120(4)
H15 H 0.2067 -0.2357 0.9272
C25 C 0.13724(17) -0.0690(3) 0.9504(3)
H16 H 0.1356 -0.0242 0.9913
C26 C 0.25508(17) 0.3408(3) 0.2736(3)
H17 H 0.2438 0.2879 0.2917
C27 C 0.09721(18) 0.7507(3) 0.4435(3)
H18 H 0.0645 0.7506 0.4080
C28 C 0.31642(19) 0.4175(4) 0.2156(4)
H19 H 0.3452 0.4167 0.1950
C29 C 0.1934(2) 0.7545(3) 0.5529(4)
H20 H 0.2258 0.7559 0.5898
C30 C 0.29181(19) 0.4949(3) 0.2201(4)
H21 H 0.3044 0.5467 0.2023
C31 C 0.17616(19) -0.1266(4) 0.9719(3)
H22 H 0.2004 -0.1202 1.0267
C32 C 0.1139(2) 0.8211(3) 0.5008(4)
H23 H 0.0923 0.8675 0.5025
C33 C 0.29726(18) 0.3400(3) 0.2426(4)
H24 H 0.3134 0.2869 0.2395
C34 C 0.1620(2) 0.8239(4) 0.5556(4)
H25 H 0.1729 0.8718 0.5937
C35 C 0.21318(18) 0.6103(3) 0.5020(3)
H26 H 0.2438 0.6181 0.5441
C36 C 0.07030(18) -0.1591(3) 0.7214(3)
H27 H 0.0778 -0.2055 0.6872
Co1 Co 0.14810(2) 0.51321(4) 0.34278(4)
Co2 Co 0.0000 -0.01547(5) 0.7500
N1 N 0.11597(12) 0.4152(2) 0.4181(2)
N2 N 0.02702(12) 0.0868(2) 0.6746(2)
N3 N 0.08925(13) 0.5012(2) 0.2163(2)
O1 O 0.18739(11) 0.41517(17) 0.3055(2)
O2 O 0.11089(10) 0.61365(19) 0.3822(2)
O3 O 0.06313(10) -0.01815(18) 0.85052(19)
O4 O 0.20756(11) 0.5401(2) 0.4579(2)
O5 O 0.18611(11) 0.60157(18) 0.2728(2)
O6 O 0.03180(11) -0.1179(2) 0.6859(2)
C1A C -0.06159(14) 0.2172(3) 0.9268(3)
C2A C -0.08056(15) 0.2856(3) 0.9797(3)
C3A C -0.01371(17) 0.0878(3) 0.9170(3)
H1A H 0.0081 0.0446 0.9472
C4D C -0.01874(15) 0.5002(2) -0.0450(3)
C5A C -0.09941(15) -0.0748(3) 0.6318(3)
C6A C -0.22788(15) 0.4185(3) 1.2207(3)
C7A C -0.12852(16) 0.6787(3) 1.0628(3)
C8A C -0.10457(15) -0.1453(3) 0.6927(3)
C9A C -0.07465(16) 0.2175(3) 0.8307(3)
H2A H -0.0951 0.2617 0.7988
C10D C -0.01380(16) 0.4450(3) -0.1162(3)
H3D H 0.0134 0.4074 -0.1080
C11A C -0.12502(18) 0.3292(3) 0.9450(3)
H4A H -0.1443 0.3163 0.8866
C12A C -0.14097(17) 0.3924(3) 0.9972(3)
H5A H -0.1710 0.4208 0.9717
C13A C -0.05439(16) 0.3086(3) 1.0685(3)
H6A H -0.0244 0.2809 1.0961
C14D C -0.09390(18) 0.5524(3) -0.1479(3)
H7D H -0.1212 0.5900 -0.1580
C15A C -0.17754(17) 0.6809(3) 1.0049(3)
C16D C -0.04939(16) 0.4466(3) -0.1984(3)
H8D H -0.0453 0.4088 -0.2442
C17A C -0.07353(17) 0.3732(3) 1.1154(3)
H9A H -0.0552 0.3877 1.1740
C18A C -0.03063(16) 0.1494(3) 0.9686(3)
H10A H -0.0212 0.1455 1.0319
C19A C -0.24805(16) 0.4986(3) 1.2491(3)
C20A C -0.05704(16) 0.1520(3) 0.7839(3)
H11A H -0.0665 0.1531 0.7205
C21D C -0.06000(17) 0.5538(3) -0.0639(3)
H12D H -0.0651 0.5918 -0.0190
C22A C -0.22430(17) 0.5822(3) 1.2503(3)
H13A H -0.2399 0.6288 1.2716
C23A C -0.14534(17) -0.2042(3) 0.6667(4)
H14A H -0.1479 -0.2500 0.7058
C24A C -0.1802(2) -0.1963(4) 0.5880(4)
H15A H -0.2067 -0.2357 0.5728
C25A C -0.13724(17) -0.0690(3) 0.5496(3)
H16A H -0.1356 -0.0242 0.5087
C26A C -0.25508(17) 0.3408(3) 1.2264(3)
H17A H -0.2438 0.2879 1.2083
C27A C -0.09721(18) 0.7507(3) 1.0565(3)
H18A H -0.0645 0.7506 1.0920
C28A C -0.31642(19) 0.4175(4) 1.2844(4)
H19A H -0.3452 0.4167 1.3050
C29A C -0.1934(2) 0.7545(3) 0.9471(4)
H20A H -0.2258 0.7559 0.9102
C30A C -0.29181(19) 0.4949(3) 1.2799(4)
H21A H -0.3044 0.5467 1.2977
C31A C -0.17616(19) -0.1266(4) 0.5281(3)
H22A H -0.2004 -0.1202 0.4733
C32A C -0.1139(2) 0.8211(3) 0.9992(4)
H23A H -0.0923 0.8675 0.9975
C33A C -0.29726(18) 0.3400(3) 1.2574(4)
H24A H -0.3134 0.2869 1.2605
C34A C -0.1620(2) 0.8239(4) 0.9444(4)
H25A H -0.1729 0.8718 0.9063
C35A C -0.21318(18) 0.6103(3) 0.9980(3)
H26A H -0.2438 0.6181 0.9559
C36A C -0.07030(18) -0.1591(3) 0.7786(3)
H27A H -0.0778 -0.2055 0.8128
Co1A Co -0.14810(2) 0.51321(4) 1.15722(4)
Co1D Co -0.14810(2) 0.48679(4) -0.34278(4)
N1A N -0.11597(12) 0.4152(2) 1.0819(2)
N2A N -0.02702(12) 0.0868(2) 0.8254(2)
N3D N -0.08925(13) 0.4988(2) -0.2163(2)
N3A N -0.08925(13) 0.5012(2) 1.2837(2)
O1A O -0.18739(11) 0.41517(17) 1.1945(2)
O2A O -0.11089(10) 0.61365(19) 1.1178(2)
O3A O -0.06313(10) -0.01815(18) 0.64948(19)
O4A O -0.20756(11) 0.5401(2) 1.0421(2)
O5A O -0.18611(11) 0.60157(18) 1.2272(2)
O6A O -0.03180(11) -0.1179(2) 0.8141(2)
loop_
_geom_bond_atom_site_label_1
_geom_bond_atom_site_label_2
_geom_bond_site_symmetry_1
_geom_bond_site_symmetry_2
C1 C2 1_555 1_555
C2 C11 1_555 1_555
C3 H1 1_555 1_555
C4 C10 1_555 1_555
C5 C8 1_555 1_555
C6 C19 1_555 1_555
C7 C15 1_555 1_555
C8 C23 1_555 1_555
C9 C1 1_555 1_555
H2 C9 1_555 1_555
C10 H3 1_555 1_555
C11 H4 1_555 1_555
C12 C11 1_555 1_555
H5 C12 1_555 1_555
C13 C2 1_555 1_555
H6 C13 1_555 1_555
C14 H7 1_555 1_555
C15 C29 1_555 1_555
C16 C10 1_555 1_555
H8 C16 1_555 1_555
C17 C13 1_555 1_555
H9 C17 1_555 1_555
C18 C1 1_555 1_555
H10 C18 1_555 1_555
C19 C22 1_555 1_555
C20 C9 1_555 1_555
H11 C20 1_555 1_555
C21 C4 1_555 1_555
H12 C21 1_555 1_555
C22 H13 1_555 1_555
C23 H14 1_555 1_555
C24 C23 1_555 1_555
H15 C24 1_555 1_555
C25 C5 1_555 1_555
H16 C25 1_555 1_555
C26 C6 1_555 1_555
H17 C26 1_555 1_555
C27 C7 1_555 1_555
H18 C27 1_555 1_555
C28 H19 1_555 1_555
C29 H20 1_555 1_555
C30 C19 1_555 1_555
H21 C30 1_555 1_555
C31 C24 1_555 1_555
H22 C31 1_555 1_555
C32 C27 1_555 1_555
H23 C32 1_555 1_555
C33 C26 1_555 1_555
H24 C33 1_555 1_555
C34 C29 1_555 1_555
H25 C34 1_555 1_555
C35 C15 1_555 1_555
H26 C35 1_555 1_555
C36 C8 1_555 1_555
H27 C36 1_555 1_555
Co1 N1 1_555 1_555
Co2 N2 1_555 1_555
N1 C12 1_555 1_555
N2 C3 1_555 1_555
N3 C14 1_555 1_555
O1 C6 1_555 1_555
O2 C7 1_555 1_555
O3 C5 1_555 1_555
O4 C35 1_555 1_555
O5 C22 1_555 1_555
O6 C36 1_555 1_555
C1A C2A 1_555 1_555
C2A C11A 1_555 1_555
C3A H1A 1_555 1_555
C4D C4 1_555 1_555
C5A C8A 1_555 1_555
C6A C19A 1_555 1_555
C7A C15A 1_555 1_555
C8A C23A 1_555 1_555
C9A C1A 1_555 1_555
H2A C9A 1_555 1_555
C10D C4D 1_555 1_555
H3D C10D 1_555 1_555
C11A H4A 1_555 1_555
C12A C11A 1_555 1_555
H5A C12A 1_555 1_555
C13A C2A 1_555 1_555
H6A C13A 1_555 1_555
C14D H7D 1_555 1_555
C15A C29A 1_555 1_555
C16D C10D 1_555 1_555
H8D C16D 1_555 1_555
C17A C13A 1_555 1_555
H9A C17A 1_555 1_555
C18A C1A 1_555 1_555
H10A C18A 1_555 1_555
C19A C22A 1_555 1_555
C20A C9A 1_555 1_555
H11A C20A 1_555 1_555
C21D C4D 1_555 1_555
H12D C21D 1_555 1_555
C22A H13A 1_555 1_555
C23A H14A 1_555 1_555
C24A C23A 1_555 1_555
H15A C24A 1_555 1_555
C25A C5A 1_555 1_555
H16A C25A 1_555 1_555
C26A C6A 1_555 1_555
H17A C26A 1_555 1_555
C27A C7A 1_555 1_555
H18A C27A 1_555 1_555
C28A H19A 1_555 1_555
C29A H20A 1_555 1_555
C30A C19A 1_555 1_555
H21A C30A 1_555 1_555
C31A C24A 1_555 1_555
H22A C31A 1_555 1_555
C32A C27A 1_555 1_555
H23A C32A 1_555 1_555
C33A C26A 1_555 1_555
H24A C33A 1_555 1_555
C34A C29A 1_555 1_555
H25A C34A 1_555 1_555
C35A C15A 1_555 1_555
H26A C35A 1_555 1_555
C36A C8A 1_555 1_555
H27A C36A 1_555 1_555
Co1A N1A 1_555 1_555
Co1D N3D 1_555 1_555
N1A C12A 1_555 1_555
N2A Co2 1_555 1_555
N3D C14D 1_555 1_555
N3A Co1A 1_555 1_555
O1A C6A 1_555 1_555
O2A C7A 1_555 1_555
O3A Co2 1_555 1_555
O4A C35A 1_555 1_555
O5A C22A 1_555 1_555
O6A Co2 1_555 1_555
C3 C18 1_555 1_555
C14 C21 1_555 1_555
C16 N3 1_555 1_555
C17 N1 1_555 1_555
C20 N2 1_555 1_555
C25 C31 1_555 1_555
C28 C30 1_555 1_555
C28 C33 1_555 1_555
C32 C34 1_555 1_555
Co1 N3 1_555 1_555
Co1 O1 1_555 1_555
Co1 O2 1_555 1_555
Co1 O4 1_555 1_555
Co1 O5 1_555 1_555
Co2 O3 1_555 1_555
Co2 O6 1_555 1_555
C3A C18A 1_555 1_555
C3A N2A 1_555 1_555
C5A O3A 1_555 1_555
C14D C21D 1_555 1_555
C16D N3D 1_555 1_555
C17A N1A 1_555 1_555
C20A N2A 1_555 1_555
C25A C31A 1_555 1_555
C28A C30A 1_555 1_555
C28A C33A 1_555 1_555
C32A C34A 1_555 1_555
C36A O6A 1_555 1_555
Co1A O1A 1_555 1_555
Co1A O2A 1_555 1_555
Co1A O4A 1_555 1_555
Co1A O5A 1_555 1_555

#END
