
#######################################################################
#
#                 Cambridge Crystallographic Data Centre
#                                CCDC 
#
#######################################################################
#
# If this CIF has been generated from an entry in the Cambridge 
# Structural Database, then it will include bibliographic, chemical, 
# crystal, experimental, refinement or atomic coordinate data resulting 
# from the CCDC's data processing and validation procedures.
#
#######################################################################

data_UJEQOQ
_symmetry_cell_setting           monoclinic
_symmetry_space_group_name_H-M   'P c'
_symmetry_Int_Tables_number      7
_space_group_name_Hall           'P -2yc'
loop_
_symmetry_equiv_pos_site_id
_symmetry_equiv_pos_as_xyz
1 x,y,z
2 x,-y,1/2+z
_cell_length_a                   11.290(3)
_cell_length_b                   12.609(4)
_cell_length_c                   10.281(3)
_cell_angle_alpha                90
_cell_angle_beta                 107.231(6)
_cell_angle_gamma                90
_cell_volume                     1397.87
loop_
_atom_site_label
_atom_site_type_symbol
_atom_site_fract_x
_atom_site_fract_y
_atom_site_fract_z
Co1 Co 0.76780(7) 0.25225(4) 0.14464(7)
O1 O 0.6560(3) 0.3434(2) -0.0214(3)
O2 O 0.7962(3) 0.2348(2) -0.0532(3)
C1 C 0.6816(3) 0.3063(3) -0.4747(4)
N1 N 0.6254(3) 0.1303(3) 0.0826(4)
C2 C 0.5761(3) 0.4037(3) -0.2945(4)
H1 H 0.5409 0.4357 -0.2332
O3 O 0.8166(3) 0.1831(2) -0.5343(3)
C3 C 0.5883(4) 0.3829(3) -0.5192(4)
H2 H 0.5617 0.4011 -0.6109
N2 N 0.2809(3) -0.1456(3) 0.0343(4)
C4 C 0.5351(4) 0.4319(3) -0.4306(4)
C5 C 0.6689(3) 0.3283(3) -0.2478(3)
N3 N -0.0947(3) -0.6206(3) 0.1935(4)
N4 N 0.2184(3) -0.3216(3) 0.1868(4)
C6 C 0.5149(4) 0.1387(4) 0.1040(5)
H3 H 0.5013 0.1974 0.1525
C7 C 0.7086(3) 0.3011(3) -0.0998(4)
C8 C 0.6420(4) 0.0461(4) 0.0115(5)
H4 H 0.7174 0.0383 -0.0068
C9 C 0.0101(4) -0.6207(4) 0.1563(5)
H5 H 0.0275 -0.6798 0.1110
C10 C 0.7201(3) 0.2783(3) -0.3376(4)
H6 H 0.7800 0.2260 -0.3068
C11 C 0.7397(4) 0.2560(3) -0.5748(4)
C12 C 0.0701(4) -0.4479(3) 0.2484(4)
C13 C 0.4378(4) -0.0224(3) -0.0109(5)
C14 C -0.1156(4) -0.5338(4) 0.2586(6)
H7 H -0.1866 -0.5315 0.2867
C15 C 0.3400(4) -0.1067(4) -0.0655(5)
H8 H 0.2765 -0.0778 -0.1429
H9 H 0.3780 -0.1661 -0.0978
C16 C -0.0373(4) -0.4486(3) 0.2856(6)
H10 H -0.0570 -0.3899 0.3301
C17 C 0.5518(4) -0.0299(4) -0.0359(5)
H11 H 0.5675 -0.0871 -0.0855
C18 C 0.4201(4) 0.0671(4) 0.0599(5)
H12 H 0.3447 0.0783 0.0771
C19 C 0.1905(5) -0.2293(4) -0.0317(6)
H13 H 0.2330 -0.2857 -0.0640
H14 H 0.1283 -0.1996 -0.1096
C20 C 0.0921(4) -0.5379(4) 0.1819(6)
H15 H 0.1634 -0.5421 0.1544
C21 C 0.3729(4) -0.1936(3) 0.1515(5)
H16 H 0.4320 -0.1400 0.1980
H17 H 0.4179 -0.2486 0.1200
C22 C 0.1579(4) -0.3541(3) 0.2863(5)
H18 H 0.1117 -0.2940 0.3049
H19 H 0.2216 -0.3712 0.3703
C23 C 0.4306(4) 0.5103(4) -0.4812(5)
H20 H 0.4585 0.5797 -0.4473
H21 H 0.3620 0.4898 -0.4496
H22 H 0.4048 0.5113 -0.5790
C24 C 0.1279(4) -0.2741(3) 0.0691(5)
H23 H 0.0840 -0.2178 0.0996
H24 H 0.0677 -0.3274 0.0240
C25 C 0.3106(5) -0.2407(3) 0.2494(6)
H25 H 0.3733 -0.2720 0.3255
H26 H 0.2704 -0.1844 0.2850
O4 O 0.7057(3) 0.2922(2) -0.6940(3)
O5 O 0.9006(2) 0.1453(2) 0.2528(3)
H27 H 0.9012 0.1449 0.3357
H28 H 0.8828 0.0837 0.2191
Co1_2 Co -0.23220(7) -0.74775(4) 0.14464(7)
Co1_3 Co 0.76780(7) 0.25225(4) -0.85536(7)
N3_2 N 0.9053(3) 0.3794(3) 0.1935(4)
O4_2 O 0.7057(3) 0.2922(2) 0.3060(3)
O6 O 0.9361(3) -0.0551(3) 0.1777(3)
H29 H 0.9641 -0.0968 0.1289
H30 H 0.9939 -0.0390 0.2492
O7 O 1.0128(3) 0.1572(3) -0.0841(4)
H31 H 1.0010 0.2118 -0.0412
H32 H 0.9918 0.1705 -0.1689
O8 O 0.1449(3) 0.0206(3) 0.1113(4)
H33 H 0.0733 0.0393 0.1138
H34 H 0.1416 -0.0420 0.0798
loop_
_geom_bond_atom_site_label_1
_geom_bond_atom_site_label_2
_geom_bond_site_symmetry_1
_geom_bond_site_symmetry_2
Co1 O1 1_555 1_555
O1 C7 1_555 1_555
O2 Co1 1_555 1_555
C1 C3 1_555 1_555
N1 Co1 1_555 1_555
C2 H1 1_555 1_555
O3 C11 1_555 1_555
C3 H2 1_555 1_555
N2 C15 1_555 1_555
C4 C2 1_555 1_555
C5 C2 1_555 1_555
N3 C9 1_555 1_555
N4 C22 1_555 1_555
C6 N1 1_555 1_555
H3 C6 1_555 1_555
C7 O2 1_555 1_555
C8 N1 1_555 1_555
H4 C8 1_555 1_555
C9 H5 1_555 1_555
C10 C1 1_555 1_555
H6 C10 1_555 1_555
C11 C1 1_555 1_555
C12 C16 1_555 1_555
C13 C15 1_555 1_555
C14 N3 1_555 1_555
H7 C14 1_555 1_555
C15 H8 1_555 1_555
H9 C15 1_555 1_555
C16 C14 1_555 1_555
H10 C16 1_555 1_555
C17 C8 1_555 1_555
H11 C17 1_555 1_555
C18 C6 1_555 1_555
H12 C18 1_555 1_555
C19 N2 1_555 1_555
H13 C19 1_555 1_555
H14 C19 1_555 1_555
C20 C9 1_555 1_555
H15 C20 1_555 1_555
C21 N2 1_555 1_555
H16 C21 1_555 1_555
H17 C21 1_555 1_555
C22 C12 1_555 1_555
H18 C22 1_555 1_555
H19 C22 1_555 1_555
C23 C4 1_555 1_555
H20 C23 1_555 1_555
H21 C23 1_555 1_555
H22 C23 1_555 1_555
C24 N4 1_555 1_555
H23 C24 1_555 1_555
H24 C24 1_555 1_555
C25 N4 1_555 1_555
H25 C25 1_555 1_555
H26 C25 1_555 1_555
O4 C11 1_555 1_555
O5 Co1 1_555 1_555
H27 O5 1_555 1_555
H28 O5 1_555 1_555
O6 H29 1_555 1_555
H30 O6 1_555 1_555
O7 H31 1_555 1_555
H32 O7 1_555 1_555
O8 H33 1_555 1_555
H34 O8 1_555 1_555
Co1_2 N3 1_555 1_555
Co1_3 O4 1_555 1_555
N3_2 Co1 1_555 1_555
O4_2 Co1 1_555 1_555
C3 C4 1_555 1_555
C5 C7 1_555 1_555
C5 C10 1_555 1_555
C12 C20 1_555 1_555
C13 C17 1_555 1_555
C13 C18 1_555 1_555
C19 C24 1_555 1_555
C21 C25 1_555 1_555

#END
