
#######################################################################
#
#                 Cambridge Crystallographic Data Centre
#                                CCDC 
#
#######################################################################
#
# If this CIF has been generated from an entry in the Cambridge 
# Structural Database, then it will include bibliographic, chemical, 
# crystal, experimental, refinement or atomic coordinate data resulting 
# from the CCDC's data processing and validation procedures.
#
#######################################################################

data_UJERIL
_symmetry_cell_setting           monoclinic
_symmetry_space_group_name_H-M   'P 2/c'
_symmetry_Int_Tables_number      13
_space_group_name_Hall           '-P 2yc'
loop_
_symmetry_equiv_pos_site_id
_symmetry_equiv_pos_as_xyz
1 x,y,z
2 -x,y,1/2-z
3 -x,-y,-z
4 x,-y,1/2+z
_cell_length_a                   11.845(2)
_cell_length_b                   14.043(3)
_cell_length_c                   17.092(3)
_cell_angle_alpha                90
_cell_angle_beta                 108.750(3)
_cell_angle_gamma                90
_cell_volume                     2692.19
loop_
_atom_site_label
_atom_site_type_symbol
_atom_site_fract_x
_atom_site_fract_y
_atom_site_fract_z
O9 O 0.3950(8) 0.7141(6) 0.3891(5)
H20 H 0.3771 0.7440 0.3436
H21 H 0.3645 0.7420 0.4217
O10 O 0.2682(9) 0.1509(7) 0.5137(6)
H22 H 0.2945 0.1126 0.4851
H23 H 0.1938 0.1423 0.5035
O11 O 0.2560(7) 0.9504(6) 0.4962(5)
H24 H 0.2260 0.9684 0.5327
H25 H 0.2308 0.9860 0.4540
O12 O 0.6727(6) 0.6617(5) 0.3830(4)
H26 H 0.6401 0.7040 0.3473
H27 H 0.6581 0.6069 0.3609
O13 O 0.4999(11) 0.1147(9) 0.4867(7)
H28 H 0.4818 0.0689 0.4524
H29 H 0.5704 0.1069 0.5195
C1 C 1.0460(4) 0.1247(4) 1.6395(3)
C2 C 1.0835(3) 0.02709(16) 1.67401(18)
C3 C 1.1296(3) 0.00689(18) 1.75792(16)
H1 H 1.1407 0.0557 1.7965
C4 C 1.1591(3) -0.0862(2) 1.78420(15)
H2 H 1.1900 -0.0997 1.8403
C5 C 1.1425(3) -0.15909(15) 1.7266(2)
C6 C 1.0964(3) -0.13889(19) 1.64267(19)
H3 H 1.0854 -0.1877 1.6041
C7 C 1.0669(3) -0.0458(2) 1.61638(14)
H4 H 1.0361 -0.0323 1.5602
C8 C 1.1579(4) -0.2588(3) 1.7466(3)
C9 C 1.2535(4) -0.2757(3) 1.8182(3)
H5 H 1.2944 -0.2248 1.8494
C10 C 1.2878(4) -0.3690(4) 1.8432(3)
C11 C 1.2284(4) -0.4449(3) 1.7966(3)
H6 H 1.2514 -0.5070 1.8132
C12 C 1.1344(4) -0.4279(3) 1.7251(3)
C13 C 1.1001(4) -0.3366(3) 1.6999(3)
H7 H 1.0377 -0.3265 1.6511
C14 C 1.3730(4) -0.3894(3) 1.9274(3)
C15 C 1.0652(4) -0.5043(3) 1.6683(3)
C16 C 0.7519(4) 0.2718(3) 1.4383(3)
H8 H 0.7684 0.2069 1.4442
C17 C 0.7616(4) 0.4231(3) 1.4595(3)
H9 H 0.7869 0.4828 1.4820
C18 C 0.6621(4) 0.4058(3) 1.3919(3)
H10 H 0.6073 0.4501 1.3611
C19 C 0.5791(4) 0.2565(3) 1.3143(3)
C20 C 0.5790(5) 0.1576(3) 1.3161(3)
H11 H 0.6293 0.1223 1.3594
C21 C 0.5000 0.1175(6) 1.2500
C22 C 0.5000 0.3075(5) 1.2500
H12 H 0.5000 0.3737 1.2500
C23 C 0.5780(4) -0.0463(3) 1.3092(3)
H13 H 0.6412 -0.0260 1.3573
C24 C 0.5472(5) -0.1361(4) 1.2856(3)
H14 H 0.5827 -0.1884 1.3130
Cd1 Cd 0.97991(3) 0.31559(2) 1.59413(2)
N1 N 0.8165(4) 0.3396(3) 1.4878(2)
N2 N 0.6617(4) 0.3099(3) 1.3802(3)
N3 N 0.5000 0.0116(4) 1.2500
O1 O 1.0978(3) 0.1981(2) 1.6764(2)
O2 O 0.9559(3) 0.1459(2) 1.5734(2)
O3 O 1.4282(3) -0.3256(3) 1.9709(2)
H15 H 1.3940 -0.3124 2.0136
O4 O 1.4192(3) -0.4714(2) 1.94441(19)
O5 O 1.0995(3) -0.5900(2) 1.69014(19)
O6 O 0.9835(3) -0.4865(3) 1.6035(2)
O7 O 0.8532(3) 0.2975(2) 1.6756(2)
H16 H 0.8151 0.3490 1.6748
H17 H 0.8946 0.2845 1.7251
O8 O 1.0944(3) 0.3366(2) 1.5070(2)
H18 H 1.0842 0.3927 1.4872
H19 H 1.1677 0.3283 1.5340
C1_2 C 1.0460(4) 1.1247(4) 1.6395(3)
C2_2 C 1.0835(3) 1.02709(16) 1.67401(18)
C3_2 C 1.1296(3) 1.00689(18) 1.75792(16)
H1_2 H 1.1407 1.0557 1.7965
C4_2 C 1.1591(3) 0.9138(2) 1.78420(15)
H2_2 H 1.1900 0.9003 1.8403
C5_2 C 1.1425(3) 0.84091(15) 1.7266(2)
C6_2 C 1.0964(3) 0.86111(19) 1.64267(19)
H3_2 H 1.0854 0.8123 1.6041
C7_2 C 1.0669(3) 0.9542(2) 1.61638(14)
H4_2 H 1.0361 0.9677 1.5602
C8_2 C 1.1579(4) 0.7412(3) 1.7466(3)
C9_2 C 1.2535(4) 0.7243(3) 1.8182(3)
H5_2 H 1.2944 0.7752 1.8494
C10_2 C 1.2878(4) 0.6310(4) 1.8432(3)
C11_2 C 1.2284(4) 0.5551(3) 1.7966(3)
H6_2 H 1.2514 0.4930 1.8132
C12_2 C 1.1344(4) 0.5721(3) 1.7251(3)
C13_2 C 1.1001(4) 0.6634(3) 1.6999(3)
H7_2 H 1.0377 0.6735 1.6511
C14_2 C 1.3730(4) 0.6106(3) 1.9274(3)
C15_2 C 1.0652(4) 0.4957(3) 1.6683(3)
C16A C 0.2481(4) 0.2718(3) 1.0617(3)
H8A H 0.2316 0.2069 1.0558
C17A C 0.2384(4) 0.4231(3) 1.0405(3)
H9A H 0.2131 0.4828 1.0180
C18A C 0.3379(4) 0.4058(3) 1.1081(3)
H10A H 0.3927 0.4501 1.1389
C19A C 0.4209(4) 0.2565(3) 1.1857(3)
C20A C 0.4210(5) 0.1576(3) 1.1839(3)
H11A H 0.3707 0.1223 1.1406
C23A C 0.4220(4) -0.0463(3) 1.1908(3)
H13A H 0.3588 -0.0260 1.1427
C24A C 0.4528(5) -0.1361(4) 1.2144(3)
H14A H 0.4173 -0.1884 1.1870
Cd1A Cd 0.02009(3) 0.31559(2) 0.90587(2)
Cd1_2 Cd 0.97991(3) -0.68441(2) 1.59413(2)
Cd1_3 Cd 0.97991(3) 1.31559(2) 1.59413(2)
N1A N 0.1835(4) 0.3396(3) 1.0122(2)
N2A N 0.3383(4) 0.3099(3) 1.1198(3)
O1_2 O 1.0978(3) 1.1981(2) 1.6764(2)
O1A O -0.0978(3) 0.1981(2) 0.8236(2)
O2_2 O 0.9559(3) 1.1459(2) 1.5734(2)
O2A O 0.0441(3) 0.1459(2) 0.9266(2)
O3_2 O 1.4282(3) 0.6744(3) 1.9709(2)
H15_2 H 1.3940 0.6876 2.0136
O4_2 O 1.4192(3) 0.5286(2) 1.94441(19)
O5_2 O 1.0995(3) 0.4100(2) 1.69014(19)
O5A O -0.0995(3) 0.4100(2) 0.80986(19)
O6_2 O 0.9835(3) 0.5135(3) 1.6035(2)
O7A O 0.1468(3) 0.2975(2) 0.8244(2)
H16A H 0.1849 0.3490 0.8252
H17A H 0.1054 0.2845 0.7749
O8A O -0.0944(3) 0.3366(2) 0.9930(2)
H18A H -0.0842 0.3927 1.0128
H19A H -0.1677 0.3283 0.9660
N4? N 0.5472(5) 0.8639(4) 1.2856(3)
loop_
_geom_bond_atom_site_label_1
_geom_bond_atom_site_label_2
_geom_bond_site_symmetry_1
_geom_bond_site_symmetry_2
C1 C2 1_555 1_555
C2 C3 1_555 1_555
C3 H1 1_555 1_555
C4 C3 1_555 1_555
H2 C4 1_555 1_555
C5 C4 1_555 1_555
C6 C5 1_555 1_555
H3 C6 1_555 1_555
C7 C2 1_555 1_555
H4 C7 1_555 1_555
C8 C5 1_555 1_555
C9 C8 1_555 1_555
H5 C9 1_555 1_555
C10 C9 1_555 1_555
C11 C10 1_555 1_555
H6 C11 1_555 1_555
C12 C11 1_555 1_555
C13 C8 1_555 1_555
H7 C13 1_555 1_555
C14 C10 1_555 1_555
C15 C12 1_555 1_555
C16 H8 1_555 1_555
C17 H9 1_555 1_555
C18 C17 1_555 1_555
H10 C18 1_555 1_555
C19 C20 1_555 1_555
C20 H11 1_555 1_555
C21 C20 1_555 1_555
C22 C19 1_555 1_555
H12 C22 1_555 1_555
C23 H13 1_555 1_555
C24 C23 1_555 1_555
H14 C24 1_555 1_555
Cd1 N1 1_555 1_555
N1 C16 1_555 1_555
N2 C16 1_555 1_555
N3 C21 1_555 1_555
O1 C1 1_555 1_555
O2 C1 1_555 1_555
O3 C14 1_555 1_555
H15 O3 1_555 1_555
O4 C14 1_555 1_555
O5 C15 1_555 1_555
O6 C15 1_555 1_555
O7 Cd1 1_555 1_555
H16 O7 1_555 1_555
H17 O7 1_555 1_555
O8 Cd1 1_555 1_555
H18 O8 1_555 1_555
H19 O8 1_555 1_555
O9 H20 1_555 1_555
H21 O9 1_555 1_555
O10 H22 1_555 1_555
H23 O10 1_555 1_555
O11 H24 1_555 1_555
H25 O11 1_555 1_555
O12 H26 1_555 1_555
H27 O12 1_555 1_555
O13 H28 1_555 1_555
H29 O13 1_555 1_555
C1_2 C2_2 1_555 1_555
C2_2 C3_2 1_555 1_555
C3_2 H1_2 1_555 1_555
C4_2 C3_2 1_555 1_555
H2_2 C4_2 1_555 1_555
C5_2 C4_2 1_555 1_555
C6_2 C5_2 1_555 1_555
H3_2 C6_2 1_555 1_555
C7_2 C2_2 1_555 1_555
H4_2 C7_2 1_555 1_555
C8_2 C5_2 1_555 1_555
C9_2 C8_2 1_555 1_555
H5_2 C9_2 1_555 1_555
C10_2 C9_2 1_555 1_555
C11_2 C10_2 1_555 1_555
H6_2 C11_2 1_555 1_555
C12_2 C11_2 1_555 1_555
C13_2 C8_2 1_555 1_555
H7_2 C13_2 1_555 1_555
C14_2 C10_2 1_555 1_555
C15_2 C12_2 1_555 1_555
C16A H8A 1_555 1_555
C17A H9A 1_555 1_555
C18A C17A 1_555 1_555
H10A C18A 1_555 1_555
C19A C22 1_555 1_555
C20A C21 1_555 1_555
H11A C20A 1_555 1_555
C23A N3 1_555 1_555
H13A C23A 1_555 1_555
C24A C24 1_555 1_555
H14A C24A 1_555 1_555
Cd1A N1A 1_555 1_555
Cd1_2 O5 1_555 1_555
Cd1_3 O1_2 1_555 1_555
N1A C16A 1_555 1_555
N2A C16A 1_555 1_555
O1_2 C1_2 1_555 1_555
O1A Cd1A 1_555 1_555
O2_2 C1_2 1_555 1_555
O2A Cd1A 1_555 1_555
O3_2 C14_2 1_555 1_555
H15_2 O3_2 1_555 1_555
O4_2 C14_2 1_555 1_555
O5_2 Cd1 1_555 1_555
O5A Cd1A 1_555 1_555
O6_2 C15_2 1_555 1_555
O7A Cd1A 1_555 1_555
H16A O7A 1_555 1_555
H17A O7A 1_555 1_555
O8A Cd1A 1_555 1_555
H18A O8A 1_555 1_555
H19A O8A 1_555 1_555
C6 C7 1_555 1_555
C12 C13 1_555 1_555
C17 N1 1_555 1_555
C18 N2 1_555 1_555
C19 N2 1_555 1_555
C23 N3 1_555 1_555
Cd1 O1 1_555 1_555
Cd1 O2 1_555 1_555
C6_2 C7_2 1_555 1_555
C12_2 C13_2 1_555 1_555
C15_2 O5_2 1_555 1_555
C17A N1A 1_555 1_555
C18A N2A 1_555 1_555
C19A C20A 1_555 1_555
C19A N2A 1_555 1_555
C23A C24A 1_555 1_555
Cd1_3 O2_2 1_555 1_555

#END
