
#######################################################################
#
#                 Cambridge Crystallographic Data Centre
#                                CCDC 
#
#######################################################################
#
# If this CIF has been generated from an entry in the Cambridge 
# Structural Database, then it will include bibliographic, chemical, 
# crystal, experimental, refinement or atomic coordinate data resulting 
# from the CCDC's data processing and validation procedures.
#
#######################################################################

data_UJEROR
_symmetry_cell_setting           triclinic
_symmetry_space_group_name_H-M   'P -1'
_symmetry_Int_Tables_number      2
_space_group_name_Hall           '-P 1'
loop_
_symmetry_equiv_pos_site_id
_symmetry_equiv_pos_as_xyz
1 x,y,z
2 -x,-y,-z
_cell_length_a                   6.940(3)
_cell_length_b                   9.896(4)
_cell_length_c                   13.149(5)
_cell_angle_alpha                94.652(7)
_cell_angle_beta                 99.553(7)
_cell_angle_gamma                96.088(8)
_cell_volume                     881.007
loop_
_atom_site_label
_atom_site_type_symbol
_atom_site_fract_x
_atom_site_fract_y
_atom_site_fract_z
C1 C 0.8622(9) 0.2979(5) -0.1149(4)
C2 C 0.8373(8) 0.3348(5) -0.0053(4)
C3 C 0.7493(8) 0.4466(5) 0.0228(3)
H1 H 0.7020 0.5020 -0.0272
C4 C 0.9069(8) 0.2536(5) 0.0689(4)
H2 H 0.9657 0.1774 0.0501
C5 C 0.8902(7) 0.2844(5) 0.1714(3)
H3 H 0.9398 0.2294 0.2211
C6 C 0.7303(8) 0.4776(4) 0.1253(3)
H4 H 0.6700 0.5534 0.1434
C7 C 0.8005(7) 0.3965(4) 0.2009(3)
C8 C 0.7800(7) 0.4279(4) 0.3105(3)
C9 C 0.7894(7) 0.5601(4) 0.3554(3)
H5 H 0.8098 0.6320 0.3155
C10 C 0.7695(7) 0.5898(4) 0.4585(3)
C11 C 0.7731(7) 0.7315(5) 0.5057(4)
C12 C 0.7401(7) 0.4817(4) 0.5177(3)
H6 H 0.7297 0.4994 0.5870
C13 C 0.7501(7) 0.3220(4) 0.3720(3)
H7 H 0.7459 0.2321 0.3441
C14 C 0.4798(8) 1.0601(5) 0.7745(4)
H8 H 0.4286 1.1182 0.7277
C15 C 0.6497(8) 0.8815(5) 0.8098(4)
H9 H 0.7197 0.8126 0.7883
C16 C 0.6173(8) 0.8911(5) 0.9103(4)
H10 H 0.6645 0.8291 0.9549
C17 C 0.4421(8) 1.0758(5) 0.8741(4)
H11 H 0.3672 1.1430 0.8932
C18 C 0.5162(7) 0.9913(5) 0.9451(3)
C19 C 0.7262(7) 0.3486(4) 0.4746(3)
C20 C 0.6905(7) 0.2322(5) 0.5390(4)
Mn1 Mn 0.68649(12) 0.95789(7) 0.59005(5)
N1 N 0.5854(6) 0.9665(4) 0.7418(3)
O1 O 0.9593(6) 0.2118(4) -0.1407(3)
O2 O 0.7621(6) 0.3721(3) -0.1796(2)
H12 H 0.7796 0.3476 -0.2405
O3 O 0.7413(5) 0.7489(3) 0.5972(2)
O4 O 0.7910(5) 0.8319(3) 0.4525(2)
O5 O 0.6351(5) 0.1128(3) 0.4903(2)
O6 O 0.7133(6) 0.2528(3) 0.6335(2)
O7 O 0.9828(5) 1.0410(3) 0.6716(2)
H13 H 0.9568 1.0476 0.7326
H14 H 1.0222 1.1248 0.6690
C1_2 C 0.8622(9) 1.2979(5) -0.1149(4)
C2_2 C 0.8373(8) 1.3348(5) -0.0053(4)
C3_2 C 0.7493(8) 1.4466(5) 0.0228(3)
H1_2 H 0.7020 1.5020 -0.0272
C4_2 C 0.9069(8) 1.2536(5) 0.0689(4)
H2_2 H 0.9657 1.1774 0.0501
C5_2 C 0.8902(7) 1.2844(5) 0.1714(3)
H3_2 H 0.9398 1.2294 0.2211
C6_2 C 0.7303(8) 1.4776(4) 0.1253(3)
H4_2 H 0.6700 1.5534 0.1434
C7_2 C 0.8005(7) 1.3965(4) 0.2009(3)
C8_2 C 0.7800(7) 1.4279(4) 0.3105(3)
C9_2 C 0.7894(7) 1.5601(4) 0.3554(3)
H5_2 H 0.8098 1.6320 0.3155
C10_2 C 0.7695(7) 1.5898(4) 0.4585(3)
C11_2 C 0.7731(7) 1.7315(5) 0.5057(4)
C12_2 C 0.7401(7) 1.4817(4) 0.5177(3)
H6_2 H 0.7297 1.4994 0.5870
C13_2 C 0.7501(7) 1.3220(4) 0.3720(3)
H7_2 H 0.7459 1.2321 0.3441
C14A C 0.5202(8) 0.9399(5) 1.2255(4)
H8A H 0.5714 0.8818 1.2723
C15A C 0.3503(8) 1.1185(5) 1.1902(4)
H9A H 0.2803 1.1874 1.2117
C16A C 0.3827(8) 1.1089(5) 1.0897(4)
H10A H 0.3355 1.1709 1.0451
C17A C 0.5579(8) 0.9242(5) 1.1259(4)
H11A H 0.6328 0.8570 1.1068
C18A C 0.4838(7) 1.0087(5) 1.0549(3)
C19_2 C 0.7262(7) 1.3486(4) 0.4746(3)
C20_2 C 0.6905(7) 1.2322(5) 0.5390(4)
Mn1A Mn 0.31351(12) 1.04211(7) 1.40995(5)
Mn1_2 Mn 0.68649(12) -0.04211(7) 0.59005(5)
Mn1A_2 Mn 0.31351(12) 0.04211(7) 0.40995(5)
Mn1_3 Mn 0.68649(12) 1.95789(7) 0.59005(5)
Mn1A_3 Mn 0.31351(12) 1.04211(7) 0.40995(5)
N1A N 0.4146(6) 1.0335(4) 1.2582(3)
O1_2 O 0.9593(6) 1.2118(4) -0.1407(3)
O2_2 O 0.7621(6) 1.3721(3) -0.1796(2)
H12_2 H 0.7796 1.3476 -0.2405
O3_2 O 0.7413(5) 1.7489(3) 0.5972(2)
O3A O 0.2587(5) 1.2511(3) 1.4028(2)
O4_2 O 0.7910(5) 1.8319(3) 0.4525(2)
O4A O 0.2090(5) 1.1681(3) 1.5475(2)
O5_2 O 0.6351(5) 1.1128(3) 0.4903(2)
O5A O 0.3649(5) 0.8872(3) 0.5097(2)
O5A_2 O 0.3649(5) 0.8872(3) 1.5097(2)
O5_3 O 0.6351(5) 1.1128(3) 1.4903(2)
O6_2 O 0.7133(6) 1.2528(3) 0.6335(2)
O7A O 0.0172(5) 0.9590(3) 1.3284(2)
H13A H 0.0432 0.9524 1.2674
H14A H -0.0222 0.8752 1.3310
loop_
_geom_bond_atom_site_label_1
_geom_bond_atom_site_label_2
_geom_bond_site_symmetry_1
_geom_bond_site_symmetry_2
C1 C2 1_555 1_555
C2 C3 1_555 1_555
C3 H1 1_555 1_555
C4 C2 1_555 1_555
H2 C4 1_555 1_555
C5 C4 1_555 1_555
H3 C5 1_555 1_555
C6 C3 1_555 1_555
H4 C6 1_555 1_555
C7 C5 1_555 1_555
C8 C7 1_555 1_555
C9 C8 1_555 1_555
H5 C9 1_555 1_555
C10 C9 1_555 1_555
C11 C10 1_555 1_555
C12 C10 1_555 1_555
H6 C12 1_555 1_555
C13 C8 1_555 1_555
H7 C13 1_555 1_555
C14 H8 1_555 1_555
C15 H9 1_555 1_555
C16 C15 1_555 1_555
H10 C16 1_555 1_555
C17 C14 1_555 1_555
H11 C17 1_555 1_555
C18 C16 1_555 1_555
C19 C12 1_555 1_555
C20 C19 1_555 1_555
Mn1 N1 1_555 1_555
N1 C14 1_555 1_555
O1 C1 1_555 1_555
O2 C1 1_555 1_555
H12 O2 1_555 1_555
O3 C11 1_555 1_555
O4 C11 1_555 1_555
O5 C20 1_555 1_555
O6 C20 1_555 1_555
O7 Mn1 1_555 1_555
H13 O7 1_555 1_555
H14 O7 1_555 1_555
C1_2 C2_2 1_555 1_555
C2_2 C3_2 1_555 1_555
C3_2 H1_2 1_555 1_555
C4_2 C2_2 1_555 1_555
H2_2 C4_2 1_555 1_555
C5_2 C4_2 1_555 1_555
H3_2 C5_2 1_555 1_555
C6_2 C3_2 1_555 1_555
H4_2 C6_2 1_555 1_555
C7_2 C5_2 1_555 1_555
C8_2 C7_2 1_555 1_555
C9_2 C8_2 1_555 1_555
H5_2 C9_2 1_555 1_555
C10_2 C9_2 1_555 1_555
C11_2 C10_2 1_555 1_555
C12_2 C10_2 1_555 1_555
H6_2 C12_2 1_555 1_555
C13_2 C8_2 1_555 1_555
H7_2 C13_2 1_555 1_555
C14A H8A 1_555 1_555
C15A H9A 1_555 1_555
C16A C15A 1_555 1_555
H10A C16A 1_555 1_555
C17A C14A 1_555 1_555
H11A C17A 1_555 1_555
C18A C18 1_555 1_555
C19_2 C12_2 1_555 1_555
C20_2 C19_2 1_555 1_555
Mn1A N1A 1_555 1_555
Mn1_2 O5 1_555 1_555
Mn1A_2 O5 1_555 1_555
Mn1_3 O3_2 1_555 1_555
Mn1A_3 O5_2 1_555 1_555
N1A C14A 1_555 1_555
O1_2 C1_2 1_555 1_555
O2_2 C1_2 1_555 1_555
H12_2 O2_2 1_555 1_555
O3_2 C11_2 1_555 1_555
O3A Mn1A 1_555 1_555
O4_2 C11_2 1_555 1_555
O4A Mn1A 1_555 1_555
O5_2 Mn1 1_555 1_555
O5A Mn1 1_555 1_555
O5A_2 Mn1A 1_555 1_555
O5_3 Mn1A 1_555 1_555
O6_2 C20_2 1_555 1_555
O7A Mn1A 1_555 1_555
H13A O7A 1_555 1_555
H14A O7A 1_555 1_555
C6 C7 1_555 1_555
C13 C19 1_555 1_555
C15 N1 1_555 1_555
C17 C18 1_555 1_555
Mn1 O3 1_555 1_555
Mn1 O4 1_555 1_555
C6_2 C7_2 1_555 1_555
C13_2 C19_2 1_555 1_555
C15A N1A 1_555 1_555
C16A C18A 1_555 1_555
C17A C18A 1_555 1_555
C20_2 O5_2 1_555 1_555
Mn1_3 O4_2 1_555 1_555
Mn1A_3 O5A 1_555 1_555

#END
