
#######################################################################
#
#                 Cambridge Crystallographic Data Centre
#                                CCDC 
#
#######################################################################
#
# If this CIF has been generated from an entry in the Cambridge 
# Structural Database, then it will include bibliographic, chemical, 
# crystal, experimental, refinement or atomic coordinate data resulting 
# from the CCDC's data processing and validation procedures.
#
#######################################################################

data_UJEVAH
_symmetry_cell_setting           monoclinic
_symmetry_space_group_name_H-M   'C 2/c'
_symmetry_Int_Tables_number      15
_space_group_name_Hall           '-C 2yn'
loop_
_symmetry_equiv_pos_site_id
_symmetry_equiv_pos_as_xyz
1 x,y,z
2 -x,y,1/2-z
3 1/2+x,1/2+y,z
4 1/2-x,1/2+y,1/2-z
5 -x,-y,-z
6 x,-y,1/2+z
7 1/2-x,1/2-y,-z
8 1/2+x,1/2-y,1/2+z
_cell_length_a                   18.814(3)
_cell_length_b                   9.945(3)
_cell_length_c                   13.995(2)
_cell_angle_alpha                90
_cell_angle_beta                 107.770(10)
_cell_angle_gamma                90
_cell_volume                     2493.61
loop_
_atom_site_label
_atom_site_type_symbol
_atom_site_fract_x
_atom_site_fract_y
_atom_site_fract_z
Co1 Co 0.5000 0.00778(9) 0.2500
N1 N 0.4314(2) 0.1631(3) 0.1523(3)
C1 C 0.4025(3) 0.2663(4) 0.1897(3)
H1 H 0.4158 0.2764 0.259
N2 N 0.4403(2) 0.8452(3) 0.1499(3)
C2 C 0.2814(2) 0.4459(4) -0.0411(4)
H2 H 0.249 0.4857 -0.0066
H3 H 0.2502 0.3996 -0.1
C3 C 0.3322(2) 0.3466(4) 0.0268(3)
C4 C 0.3355(2) 0.7056(5) 0.0785(4)
H4 H 0.2888 0.6768 0.0797
C5 C 0.3727(2) 0.8004(4) 0.1444(3)
H5 H 0.3494 0.8363 0.1885
N3 N 0.4203(2) 0.0142(4) 0.3271(3)
C6 C 0.3624(3) 0.0435(4) 0.3321(3)
O1 O 0.3015(2) 0.0740(5) 0.3385(3)
C7 C 0.3541(3) 0.3578(5) 0.1303(3)
H6 H 0.3358 0.428 0.1599
C8 C 0.3666(2) 0.6512(4) 0.0092(3)
C9 C 0.3249(3) 0.5571(4) -0.0739(3)
H7 H 0.3604 0.516 -0.1027
H8 H 0.2903 0.6096 -0.1262
C10 C 0.3610(2) 0.2384(4) -0.0108(3)
H9 H 0.3473 0.2245 -0.0797
C11 C 0.4098(2) 0.1509(4) 0.0528(3)
H10 H 0.4287 0.0797 0.0249
C12 C 0.4378(3) 0.6903(5) 0.0188(4)
H11 H 0.4633 0.6511 -0.0214
C13 C 0.4723(3) 0.7869(5) 0.0874(4)
H12 H 0.5204 0.8131 0.0905
Co1_2 Co 0.5000 1.00778(9) 0.2500
N1A N 0.5686(2) 0.1631(3) 0.3477(3)
C1A C 0.5975(3) 0.2663(4) 0.3103(3)
H1A H 0.5842 0.2764 0.241
N2A N 0.5597(2) 0.8452(3) 0.3501(3)
N2_2 N 0.4403(2) -0.1548(3) 0.1499(3)
N2A_2 N 0.5597(2) -0.1548(3) 0.3501(3)
C2A C 0.7186(2) 0.4459(4) 0.5411(4)
H2A H 0.751 0.4857 0.5066
H3A H 0.7498 0.3996 0.6
C3A C 0.6678(2) 0.3466(4) 0.4732(3)
C4A C 0.6645(2) 0.7056(5) 0.4215(4)
H4A H 0.7112 0.6768 0.4203
C5A C 0.6273(2) 0.8004(4) 0.3556(3)
H5A H 0.6506 0.8363 0.3115
N3A N 0.5797(2) 0.0142(4) 0.1729(3)
C6A C 0.6376(3) 0.0435(4) 0.1679(3)
O1A O 0.6985(2) 0.0740(5) 0.1615(3)
C7A C 0.6459(3) 0.3578(5) 0.3697(3)
H6A H 0.6642 0.428 0.3401
C8A C 0.6334(2) 0.6512(4) 0.4908(3)
C9A C 0.6751(3) 0.5571(4) 0.5739(3)
H7A H 0.6396 0.516 0.6027
H8A H 0.7097 0.6096 0.6262
C10A C 0.6390(2) 0.2384(4) 0.5108(3)
H9A H 0.6527 0.2245 0.5797
C11A C 0.5902(2) 0.1509(4) 0.4472(3)
H10A H 0.5713 0.0797 0.4751
C12A C 0.5622(3) 0.6903(5) 0.4812(4)
H11A H 0.5367 0.6511 0.5214
C13A C 0.5277(3) 0.7869(5) 0.4126(4)
H12A H 0.4796 0.8131 0.4095
loop_
_geom_bond_atom_site_label_1
_geom_bond_atom_site_label_2
_geom_bond_site_symmetry_1
_geom_bond_site_symmetry_2
Co1 N1 1_555 1_555
N1 C1 1_555 1_555
C1 H1 1_555 1_555
N2 C5 1_555 1_555
C2 H2 1_555 1_555
H3 C2 1_555 1_555
C3 C2 1_555 1_555
C4 H4 1_555 1_555
C5 C4 1_555 1_555
H5 C5 1_555 1_555
N3 Co1 1_555 1_555
C6 N3 1_555 1_555
O1 C6 1_555 1_555
C7 C1 1_555 1_555
H6 C7 1_555 1_555
C8 C4 1_555 1_555
C9 C2 1_555 1_555
H7 C9 1_555 1_555
H8 C9 1_555 1_555
C10 C3 1_555 1_555
H9 C10 1_555 1_555
C11 N1 1_555 1_555
H10 C11 1_555 1_555
C12 C8 1_555 1_555
H11 C12 1_555 1_555
C13 N2 1_555 1_555
H12 C13 1_555 1_555
Co1_2 N2 1_555 1_555
N1A Co1 1_555 1_555
C1A N1A 1_555 1_555
H1A C1A 1_555 1_555
N2A Co1_2 1_555 1_555
N2_2 Co1 1_555 1_555
N2A_2 Co1 1_555 1_555
C2A H2A 1_555 1_555
H3A C2A 1_555 1_555
C3A C2A 1_555 1_555
C4A H4A 1_555 1_555
C5A N2A 1_555 1_555
H5A C5A 1_555 1_555
N3A Co1 1_555 1_555
C6A N3A 1_555 1_555
O1A C6A 1_555 1_555
C7A C1A 1_555 1_555
H6A C7A 1_555 1_555
C8A C4A 1_555 1_555
C9A C2A 1_555 1_555
H7A C9A 1_555 1_555
H8A C9A 1_555 1_555
C10A C3A 1_555 1_555
H9A C10A 1_555 1_555
C11A N1A 1_555 1_555
H10A C11A 1_555 1_555
C12A C8A 1_555 1_555
H11A C12A 1_555 1_555
C13A N2A 1_555 1_555
H12A C13A 1_555 1_555
C3 C7 1_555 1_555
C8 C9 1_555 1_555
C10 C11 1_555 1_555
C12 C13 1_555 1_555
C3A C7A 1_555 1_555
C4A C5A 1_555 1_555
C8A C9A 1_555 1_555
C10A C11A 1_555 1_555
C12A C13A 1_555 1_555

#END
