
#######################################################################
#
#                 Cambridge Crystallographic Data Centre
#                                CCDC 
#
#######################################################################
#
# If this CIF has been generated from an entry in the Cambridge 
# Structural Database, then it will include bibliographic, chemical, 
# crystal, experimental, refinement or atomic coordinate data resulting 
# from the CCDC's data processing and validation procedures.
#
#######################################################################

data_UJEXAJ
_symmetry_cell_setting           monoclinic
_symmetry_space_group_name_H-M   'P 21/n'
_symmetry_Int_Tables_number      14
_space_group_name_Hall           '-P 2yn'
loop_
_symmetry_equiv_pos_site_id
_symmetry_equiv_pos_as_xyz
1 x,y,z
2 1/2-x,1/2+y,1/2-z
3 -x,-y,-z
4 1/2+x,1/2-y,1/2+z
_cell_length_a                   10.357(3)
_cell_length_b                   11.245(2)
_cell_length_c                   27.541(8)
_cell_angle_alpha                90
_cell_angle_beta                 94.200(9)
_cell_angle_gamma                90
_cell_volume                     3198.93
loop_
_atom_site_label
_atom_site_type_symbol
_atom_site_fract_x
_atom_site_fract_y
_atom_site_fract_z
Cu1 Cu 0.28795(10) 0.10771(16) 0.35966(4)
S1 S 0.8677(2) 0.4680(4) 0.44806(11)
S2 S 0.7518(2) 0.3783(4) 0.49123(9)
S3 S 0.6977(2) -0.1346(4) 0.21762(9)
S4 S 0.8284(2) -0.2314(4) 0.25836(11)
O1 O 0.2702(7) 0.2569(9) 0.2921(3)
O2 O 0.3236(6) -0.0467(9) 0.4228(2)
N1 N 0.4119(6) 0.0224(10) 0.3174(2)
N2 N 1.1401(7) 0.0095(12) 0.3292(3)
N3 N 0.4360(6) 0.1974(10) 0.3960(2)
N4 N 1.1606(7) 0.2090(13) 0.3934(3)
C3 C 0.4353(9) 0.1994(13) 0.4450(3)
H1 H 0.3698 0.1606 0.4602
C4 C 0.5309(8) 0.2585(12) 0.4728(3)
H2 H 0.5278 0.2619 0.5064
C5 C 0.6312(8) 0.3125(13) 0.4511(3)
C6 C 0.6326(8) 0.3073(13) 0.4006(3)
H3 H 0.6995 0.3412 0.3845
C7 C 0.5330(8) 0.2514(11) 0.3758(3)
H4 H 0.5322 0.2505 0.3420
C8 C 0.9797(9) 0.3565(16) 0.4302(3)
C9 C 1.0866(9) 0.4056(13) 0.4089(3)
H5 H 1.0986 0.4874 0.4066
C10 C 1.1738(9) 0.3247(18) 0.3913(3)
H6 H 1.2459 0.3548 0.3772
C11 C 1.0582(8) 0.1690(12) 0.4154(3)
H7 H 1.0497 0.0870 0.4179
C12 C 0.9671(9) 0.2350(15) 0.4342(4)
H8 H 0.8987 0.2007 0.4493
C13 C 1.1428(9) -0.1085(16) 0.3320(4)
H9 H 1.2131 -0.1435 0.3495
C14 C 1.0492(9) -0.1825(14) 0.3111(4)
H10 H 1.0561 -0.2647 0.3144
C15 C 0.9448(9) -0.1316(15) 0.2850(4)
C16 C 0.9396(9) -0.0116(15) 0.2812(3)
H11 H 0.8703 0.0236 0.2633
C17 C 1.0364(9) 0.0605(14) 0.3038(3)
H12 H 1.0301 0.1428 0.3014
C18 C 0.5883(8) -0.0798(11) 0.2590(3)
C19 C 0.6133(8) -0.0751(13) 0.3078(3)
H13 H 0.6906 -0.1051 0.3222
C20 C 0.5231(8) -0.0256(12) 0.3359(3)
H14 H 0.5401 -0.0255 0.3696
C21 C 0.3905(8) 0.0156(12) 0.2696(3)
H15 H 0.3126 0.0455 0.2557
C22 C 0.4737(9) -0.0317(13) 0.2397(3)
H16 H 0.4539 -0.0319 0.2062
H17 H 0.3123 -0.0400 0.4561
H18 H 0.4175 -0.0358 0.4311
H19 H 0.3439 0.2769 0.2937
H20 H 0.2173 0.3046 0.2837
Cu1_2 Cu 1.28795(10) 0.10771(16) 0.35966(4)
N2_2 N 0.1401(7) 0.0095(12) 0.3292(3)
N4_2 N 0.1606(7) 0.2090(13) 0.3934(3)
C1 C 0.3561(3) -0.4062(5) 0.32933(10)
F4 F 0.3828(8) -0.5249(11) 0.3128(3)
F5 F 0.3752(8) -0.3141(10) 0.2950(3)
F6 F 0.2392(8) -0.3931(10) 0.3535(4)
O6 O 0.4730(9) -0.4540(11) 0.4121(3)
O7 O 0.5981(7) -0.3970(11) 0.3583(4)
O8 O 0.4800(10) -0.2697(13) 0.3928(3)
S5 S 0.4870(14) -0.379(2) 0.3761(6)
C2 C 0.7487(2) -0.0394(4) 0.44924(9)
F1 F 0.8072(7) 0.0074(10) 0.4935(2)
F2 F 0.7766(7) 0.0238(10) 0.4067(3)
F3 F 0.6153(6) -0.0745(9) 0.4514(2)
O3 O 0.8037(9) -0.2551(10) 0.4783(3)
O4 O 0.9577(7) -0.1659(10) 0.4457(3)
O5 O 0.7970(7) -0.2319(9) 0.4004(2)
S6 S 0.8288(11) -0.1851(15) 0.4429(4)
loop_
_geom_bond_atom_site_label_1
_geom_bond_atom_site_label_2
_geom_bond_site_symmetry_1
_geom_bond_site_symmetry_2
Cu1 O1 1_555 1_555
S1 S2 1_555 1_555
S2 C5 1_555 1_555
S3 S4 1_555 1_555
S4 C15 1_555 1_555
C1 F4 1_555 1_555
C2 F1 1_555 1_555
F2 C2 1_555 1_555
F3 C2 1_555 1_555
F5 C1 1_555 1_555
F6 C1 1_555 1_555
O1 H19 1_555 1_555
O2 Cu1 1_555 1_555
O3 S6 1_555 1_555
O4 S6 1_555 1_555
O5 S6 1_555 1_555
O6 S5 1_555 1_555
O7 S5 1_555 1_555
O8 S5 1_555 1_555
N1 Cu1 1_555 1_555
N2 C13 1_555 1_555
N3 Cu1 1_555 1_555
N4 C10 1_555 1_555
C3 N3 1_555 1_555
H1 C3 1_555 1_555
C4 C3 1_555 1_555
H2 C4 1_555 1_555
C5 C4 1_555 1_555
C6 C5 1_555 1_555
H3 C6 1_555 1_555
C7 N3 1_555 1_555
H4 C7 1_555 1_555
C8 S1 1_555 1_555
C9 C8 1_555 1_555
H5 C9 1_555 1_555
C10 C9 1_555 1_555
H6 C10 1_555 1_555
C11 N4 1_555 1_555
H7 C11 1_555 1_555
C12 C8 1_555 1_555
H8 C12 1_555 1_555
C13 H9 1_555 1_555
C14 C13 1_555 1_555
H10 C14 1_555 1_555
C15 C14 1_555 1_555
C16 C15 1_555 1_555
H11 C16 1_555 1_555
C17 N2 1_555 1_555
H12 C17 1_555 1_555
C18 S3 1_555 1_555
C19 C18 1_555 1_555
H13 C19 1_555 1_555
C20 N1 1_555 1_555
H14 C20 1_555 1_555
C21 N1 1_555 1_555
H15 C21 1_555 1_555
C22 C18 1_555 1_555
H16 C22 1_555 1_555
S5 C1 1_555 1_555
S6 C2 1_555 1_555
H17 O2 1_555 1_555
H18 O2 1_555 1_555
H20 O1 1_555 1_555
Cu1_2 N2 1_555 1_555
N2_2 Cu1 1_555 1_555
N4_2 Cu1 1_555 1_555
N4 Cu1_2 1_555 1_555
C6 C7 1_555 1_555
C11 C12 1_555 1_555
C16 C17 1_555 1_555
C19 C20 1_555 1_555
C21 C22 1_555 1_555

#END
