
#######################################################################
#
#                 Cambridge Crystallographic Data Centre
#                                CCDC 
#
#######################################################################
#
# If this CIF has been generated from an entry in the Cambridge 
# Structural Database, then it will include bibliographic, chemical, 
# crystal, experimental, refinement or atomic coordinate data resulting 
# from the CCDC's data processing and validation procedures.
#
#######################################################################

data_UJIDIA
_symmetry_cell_setting           monoclinic
_symmetry_space_group_name_H-M   'P 21/c'
_symmetry_Int_Tables_number      14
_space_group_name_Hall           '-P 2ybc'
loop_
_symmetry_equiv_pos_site_id
_symmetry_equiv_pos_as_xyz
1 x,y,z
2 x,1/2-y,1/2+z
3 -x,-y,-z
4 -x,1/2+y,1/2-z
_cell_length_a                   9.172(3)
_cell_length_b                   9.787(3)
_cell_length_c                   10.899(4)
_cell_angle_alpha                90
_cell_angle_beta                 93.833(15)
_cell_angle_gamma                90
_cell_volume                     976.175
loop_
_atom_site_label
_atom_site_type_symbol
_atom_site_fract_x
_atom_site_fract_y
_atom_site_fract_z
Li1 Li 0.1580(11) 0.0850(9) 0.1716(7)
S1 S -0.13876(17) 0.15850(13) 0.01751(11)
O1 O -0.0410(4) 0.1418(3) 0.1272(3)
O2 O -0.2037(4) 0.0352(3) -0.0351(3)
O3 O 0.2691(5) 0.2499(4) 0.1937(3)
N1 N -0.2007(5) 0.4750(5) 0.1754(4)
C1 C -0.2716(7) 0.2664(5) 0.0484(5)
C2 C -0.2350(6) 0.3809(6) 0.1157(4)
C3 C -0.0312(6) 0.2282(5) -0.0948(4)
H1 H -0.0914 0.2405 -0.1718
H2 H 0.0077 0.3168 -0.0665
H3 H 0.0498 0.1661 -0.1087
C4 C 0.4028(7) 0.2572(6) 0.2704(6)
H4 H 0.4862 0.2254 0.2248
H5 H 0.3962 0.1995 0.3444
C5 C 0.4219(7) 0.4024(6) 0.3056(5)
H6 H 0.5265 0.4257 0.3216
H7 H 0.3689 0.4244 0.3793
C6 C 0.3560(7) 0.4755(6) 0.1930(6)
H8 H 0.3186 0.5666 0.2147
H9 H 0.4287 0.4866 0.1306
C7 C 0.2334(7) 0.3828(5) 0.1468(5)
H10 H 0.1395 0.4143 0.1767
H11 H 0.2247 0.3818 0.0558
H12 H -0.357(6) 0.256(6) 0.005(5)
O2B O 0.2037(4) -0.0352(3) 0.0351(3)
N1C N 0.2007(5) -0.0250(5) 0.3246(4)
Li1B Li -0.1580(11) -0.0850(9) -0.1716(7)
Li1C Li -0.1580(11) 0.5850(9) 0.3284(7)
loop_
_geom_bond_atom_site_label_1
_geom_bond_atom_site_label_2
_geom_bond_site_symmetry_1
_geom_bond_site_symmetry_2
Li1 O1 1_555 1_555
S1 O1 1_555 1_555
O2 S1 1_555 1_555
O3 Li1 1_555 1_555
N1 C2 1_555 1_555
C1 S1 1_555 1_555
C2 C1 1_555 1_555
C3 S1 1_555 1_555
H1 C3 1_555 1_555
H2 C3 1_555 1_555
H3 C3 1_555 1_555
C4 O3 1_555 1_555
H4 C4 1_555 1_555
H5 C4 1_555 1_555
C5 C4 1_555 1_555
H6 C5 1_555 1_555
H7 C5 1_555 1_555
C6 C5 1_555 1_555
H8 C6 1_555 1_555
H9 C6 1_555 1_555
C7 O3 1_555 1_555
H10 C7 1_555 1_555
H11 C7 1_555 1_555
H12 C1 1_555 1_555
O2B Li1 1_555 1_555
N1C Li1 1_555 1_555
Li1B O2 1_555 1_555
Li1C N1 1_555 1_555
C6 C7 1_555 1_555

#END
