
#######################################################################
#
#                 Cambridge Crystallographic Data Centre
#                                CCDC 
#
#######################################################################
#
# If this CIF has been generated from an entry in the Cambridge 
# Structural Database, then it will include bibliographic, chemical, 
# crystal, experimental, refinement or atomic coordinate data resulting 
# from the CCDC's data processing and validation procedures.
#
#######################################################################

data_UJIGOK
_symmetry_cell_setting           triclinic
_symmetry_space_group_name_H-M   'P -1'
_symmetry_Int_Tables_number      2
_space_group_name_Hall           '-P 1'
loop_
_symmetry_equiv_pos_site_id
_symmetry_equiv_pos_as_xyz
1 x,y,z
2 -x,-y,-z
_cell_length_a                   5.2735(6)
_cell_length_b                   7.7963(8)
_cell_length_c                   13.9516(15)
_cell_angle_alpha                94.628(2)
_cell_angle_beta                 98.520(2)
_cell_angle_gamma                100.541(2)
_cell_volume                     554.262
loop_
_atom_site_label
_atom_site_type_symbol
_atom_site_fract_x
_atom_site_fract_y
_atom_site_fract_z
Pb1 Pb 0.70305(2) 0.971547(13) 0.866144(8)
O1 O 0.8794(4) 0.8043(3) 1.00288(18)
O2 O 0.6509(5) 0.6741(4) 1.1041(2)
O3 O 0.4610(4) 0.7944(3) 0.98606(18)
O4 O 0.1763(4) 0.9372(3) 0.82860(18)
O5 O 0.3514(4) 1.0013(3) 0.70091(18)
O6 O -0.0502(4) 1.0307(3) 0.70687(18)
N1 N 0.6624(5) 0.7539(3) 1.0331(2)
N2 N 0.1588(5) 0.9916(3) 0.7439(2)
N3 N 0.6540(5) 0.6725(3) 0.7832(2)
N4 N 0.1000(5) 0.5259(4) 0.5404(2)
C1 C 0.8356(6) 0.5738(4) 0.8063(2)
H1 H 0.9661 0.6115 0.8624
C2 C 0.8355(6) 0.4196(4) 0.7502(2)
H2 H 0.9654 0.3526 0.7674
C3 C 0.6443(6) 0.3631(4) 0.6684(2)
H3 H 0.6437 0.2577 0.6291
C4 C 0.4538(6) 0.4612(4) 0.6443(2)
C5 C 0.4689(6) 0.6164(4) 0.7051(2)
H4 H 0.3404 0.6854 0.6898
C6 C 0.2425(6) 0.4105(4) 0.5587(2)
C7 C 0.2110(7) 0.2335(4) 0.5023(3)
H5 H 0.0599 0.2160 0.4498
H6 H 0.1833 0.1420 0.5460
H7 H 0.3691 0.2269 0.4742
Pb1A Pb 1.29695(2) 1.028453(13) 1.133856(8)
Pb1A_2 Pb 0.29695(2) 1.028453(13) 1.133856(8)
Pb1_2 Pb -0.29695(2) 0.971547(13) 0.866144(8)
Pb1A_3 Pb -0.70305(2) 0.028453(13) 0.133856(8)
Pb1_3 Pb 1.70305(2) 0.971547(13) 0.866144(8)
O1A O 1.1206(4) 1.1957(3) 0.99712(18)
O2A O 1.3491(5) 1.3259(4) 0.8959(2)
O3A O 1.5390(4) 1.2056(3) 1.01394(18)
O3A_2 O 0.5390(4) 1.2056(3) 1.01394(18)
O3_2 O 1.4610(4) 0.7944(3) 0.98606(18)
O4_2 O 1.1763(4) 0.9372(3) 0.82860(18)
O4A O 1.8237(4) 1.0628(3) 1.17140(18)
O4A_2 O 0.8237(4) 1.0628(3) 1.17140(18)
O5_2 O 1.3514(4) 1.0013(3) 0.70091(18)
O5A O 1.6486(4) 0.9987(3) 1.29909(18)
O6_2 O 0.9498(4) 1.0307(3) 0.70687(18)
O6A O 1.0502(4) 0.9693(3) 1.29313(18)
N1A N 1.3376(5) 1.2461(3) 0.9669(2)
N2_2 N 1.1588(5) 0.9916(3) 0.7439(2)
N3A N -0.6540(5) 0.3275(3) 0.2168(2)
N3A_2 N 1.3460(5) 1.3275(3) 1.2168(2)
N4A N -0.1000(5) 0.4741(4) 0.4596(2)
C1A C -0.8356(6) 0.4262(4) 0.1937(2)
H1A H -0.9661 0.3885 0.1376
C2A C -0.8355(6) 0.5804(4) 0.2498(2)
H2A H -0.9654 0.6474 0.2326
C3A C -0.6443(6) 0.6369(4) 0.3316(2)
H3A H -0.6437 0.7423 0.3709
C4A C -0.4538(6) 0.5388(4) 0.3557(2)
C5A C -0.4689(6) 0.3836(4) 0.2949(2)
H4A H -0.3404 0.3146 0.3102
C6A C -0.2425(6) 0.5895(4) 0.4413(2)
C7A C -0.2110(7) 0.7665(4) 0.4977(3)
H5A H -0.0599 0.7840 0.5502
H6A H -0.1833 0.8580 0.4540
H7A H -0.3691 0.7731 0.5258
loop_
_geom_bond_atom_site_label_1
_geom_bond_atom_site_label_2
_geom_bond_site_symmetry_1
_geom_bond_site_symmetry_2
Pb1 O1 1_555 1_555
O1 N1 1_555 1_555
O2 N1 1_555 1_555
O3 Pb1 1_555 1_555
O4 Pb1 1_555 1_555
O5 Pb1 1_555 1_555
O6 N2 1_555 1_555
N1 O3 1_555 1_555
N2 O4 1_555 1_555
N3 Pb1 1_555 1_555
N4 C6 1_555 1_555
C1 N3 1_555 1_555
H1 C1 1_555 1_555
C2 C1 1_555 1_555
H2 C2 1_555 1_555
C3 C2 1_555 1_555
H3 C3 1_555 1_555
C4 C3 1_555 1_555
C5 N3 1_555 1_555
H4 C5 1_555 1_555
C6 C4 1_555 1_555
C7 C6 1_555 1_555
H5 C7 1_555 1_555
H6 C7 1_555 1_555
H7 C7 1_555 1_555
Pb1A O1 1_555 1_555
Pb1A_2 O3 1_555 1_555
Pb1_2 O4 1_555 1_555
Pb1A_3 N3A 1_555 1_555
Pb1_3 O3A 1_555 1_555
O1A Pb1 1_555 1_555
O2A N1A 1_555 1_555
O3A Pb1A 1_555 1_555
O3A_2 Pb1 1_555 1_555
O3_2 Pb1A 1_555 1_555
O4_2 Pb1 1_555 1_555
O4A Pb1A 1_555 1_555
O4A_2 Pb1A 1_555 1_555
O5_2 Pb1_3 1_555 1_555
O5A Pb1A 1_555 1_555
O6_2 Pb1 1_555 1_555
O6A Pb1A 1_555 1_555
N1A O1A 1_555 1_555
N2_2 O4_2 1_555 1_555
N3A C1A 1_555 1_555
N3A_2 Pb1A 1_555 1_555
N4A N4 1_555 1_555
C1A H1A 1_555 1_555
C2A C1A 1_555 1_555
H2A C2A 1_555 1_555
C3A C2A 1_555 1_555
H3A C3A 1_555 1_555
C4A C3A 1_555 1_555
C5A N3A 1_555 1_555
H4A C5A 1_555 1_555
C6A N4A 1_555 1_555
C7A C6A 1_555 1_555
H5A C7A 1_555 1_555
H6A C7A 1_555 1_555
H7A C7A 1_555 1_555
O5 N2 1_555 1_555
O6 Pb1_2 1_555 1_555
C4 C5 1_555 1_555
Pb1A O1A 1_555 1_555
Pb1A_2 O3A_2 1_555 1_555
Pb1A_2 O4A_2 1_555 1_555
Pb1_3 O3_2 1_555 1_555
Pb1_3 O4_2 1_555 1_555
O3A N1A 1_555 1_555
O5_2 N2_2 1_555 1_555
O6_2 N2_2 1_555 1_555
C4A C5A 1_555 1_555
C4A C6A 1_555 1_555

#END
