
#######################################################################
#
#                 Cambridge Crystallographic Data Centre
#                                CCDC 
#
#######################################################################
#
# If this CIF has been generated from an entry in the Cambridge 
# Structural Database, then it will include bibliographic, chemical, 
# crystal, experimental, refinement or atomic coordinate data resulting 
# from the CCDC's data processing and validation procedures.
#
#######################################################################

data_UJIGEZ
_symmetry_cell_setting           monoclinic
_symmetry_space_group_name_H-M   'P 21/c'
_symmetry_Int_Tables_number      14
_space_group_name_Hall           '-P 2ybc'
loop_
_symmetry_equiv_pos_site_id
_symmetry_equiv_pos_as_xyz
1 x,y,z
2 x,1/2-y,1/2+z
3 -x,-y,-z
4 -x,1/2+y,1/2-z
_cell_length_a                   10.905(2)
_cell_length_b                   18.006(4)
_cell_length_c                   20.551(4)
_cell_angle_alpha                90
_cell_angle_beta                 94.91(3)
_cell_angle_gamma                90
_cell_volume                     4020.49
loop_
_atom_site_label
_atom_site_type_symbol
_atom_site_fract_x
_atom_site_fract_y
_atom_site_fract_z
Ni1 Ni 0.66290(4) 0.39488(2) 0.153056(19)
Ni2 Ni 0.66971(4) 0.55362(3) 0.180062(19)
O1 O 0.6421(2) 0.49009(13) 0.09531(9)
O2 O 0.6934(2) 0.45720(13) 0.24087(10)
O3 O 0.8546(2) 0.53548(13) 0.17276(11)
O4 O 0.8452(2) 0.41402(13) 0.14425(10)
O5 O 0.9377(2) 0.43112(17) 0.28528(11)
O6 O 1.1182(3) 0.44764(17) 0.34077(11)
O7 O 1.3981(2) 0.48405(18) 0.04796(11)
O8 O 1.2142(2) 0.50319(17) -0.00389(10)
O9 O 1.4839(2) 0.53322(13) 0.18310(11)
O10 O 1.4837(2) 0.40816(13) 0.17009(10)
N1 N 0.6365(3) 0.32707(18) 0.07273(15)
N2 N 0.6862(3) 0.29317(18) 0.19623(16)
N3 N 0.6683(3) 0.63108(17) 0.25449(14)
N4 N 0.6719(3) 0.65272(18) 0.12848(14)
C1 C 0.6075(4) 0.3478(3) 0.01074(18)
H1 H 0.5847 0.3970 0.0027
C2 C 0.6096(5) 0.3005(3) -0.0418(2)
H2 H 0.5886 0.3172 -0.0841
C3 C 0.6432(6) 0.2288(4) -0.0302(3)
H3 H 0.6483 0.1962 -0.0650
C4 C 0.6697(5) 0.2039(3) 0.0331(3)
H4 H 0.6905 0.1545 0.0416
C5 C 0.6644(4) 0.2550(2) 0.0840(2)
C6 C 0.6839(4) 0.2356(2) 0.1536(2)
C7 C 0.6943(5) 0.1622(3) 0.1760(3)
H5 H 0.6952 0.1230 0.1466
C8 C 0.7030(6) 0.1491(3) 0.2413(4)
H6 H 0.7076 0.1006 0.2568
C9 C 0.7049(5) 0.2072(3) 0.2842(3)
H7 H 0.7098 0.1984 0.3290
C10 C 0.6996(5) 0.2801(3) 0.2601(2)
H8 H 0.7054 0.3198 0.2891
C11 C 0.6678(4) 0.6163(2) 0.31813(17)
H9 H 0.6802 0.5676 0.3321
C12 C 0.6495(5) 0.6704(3) 0.3641(2)
H10 H 0.6499 0.6582 0.4081
C13 C 0.6308(4) 0.7427(2) 0.3435(2)
H11 H 0.6174 0.7800 0.3733
C14 C 0.6323(4) 0.7588(2) 0.2780(2)
H12 H 0.6196 0.8072 0.2630
C15 C 0.6530(4) 0.7018(2) 0.23475(18)
C16 C 0.6667(4) 0.7149(2) 0.16458(19)
C17 C 0.6802(5) 0.7843(3) 0.1373(2)
H13 H 0.6748 0.8267 0.1627
C18 C 0.7016(5) 0.7905(3) 0.0730(2)
H14 H 0.7115 0.8369 0.0544
C19 C 0.7082(5) 0.7268(3) 0.0361(2)
H15 H 0.7236 0.7297 -0.0076
C20 C 0.6918(4) 0.6593(3) 0.06500(19)
H16 H 0.6945 0.6165 0.0398
C31 C 1.0387(3) 0.46911(18) 0.16616(14)
C32 C 1.1100(3) 0.45730(17) 0.22551(14)
C33 C 1.2374(3) 0.45766(18) 0.22597(14)
H25 H 1.2850 0.4500 0.2651
C34 C 1.2950(3) 0.46922(18) 0.16940(14)
C35 C 1.2237(3) 0.47961(19) 0.10987(14)
C36 C 1.0966(3) 0.47954(19) 0.10940(14)
H26 H 1.0491 0.4866 0.0701
C37 C 0.9010(3) 0.4729(2) 0.16164(13)
C38 C 1.0498(3) 0.4441(2) 0.28844(14)
C39 C 1.2844(3) 0.4895(2) 0.04675(14)
C40 C 1.4330(3) 0.4707(2) 0.17375(14)
O3_2 O -0.1454(2) 0.53548(13) 0.17276(11)
O4_2 O -0.1548(2) 0.41402(13) 0.14425(10)
O5_2 O -0.0623(2) 0.43112(17) 0.28528(11)
O6_2 O 0.1182(3) 0.44764(17) 0.34077(11)
O7_2 O 0.3981(2) 0.48405(18) 0.04796(11)
O8_2 O 0.2142(2) 0.50319(17) -0.00389(10)
O9_2 O 0.4839(2) 0.53322(13) 0.18310(11)
O10_2 O 0.4837(2) 0.40816(13) 0.17009(10)
C31_2 C 0.0387(3) 0.46911(18) 0.16616(14)
C32_2 C 0.1100(3) 0.45730(17) 0.22551(14)
C33_2 C 0.2374(3) 0.45766(18) 0.22597(14)
H25_2 H 0.2850 0.4500 0.2651
C34_2 C 0.2950(3) 0.46922(18) 0.16940(14)
C35_2 C 0.2237(3) 0.47961(19) 0.10987(14)
C36_2 C 0.0966(3) 0.47954(19) 0.10940(14)
H26_2 H 0.0491 0.4866 0.0701
C37_2 C -0.0990(3) 0.4729(2) 0.16164(13)
C38_2 C 0.0498(3) 0.4441(2) 0.28844(14)
C39_2 C 0.2844(3) 0.4895(2) 0.04675(14)
C40_2 C 0.4330(3) 0.4707(2) 0.17375(14)
Ni1_2 Ni -0.33710(4) 0.39488(2) 0.153056(19)
Ni2_2 Ni -0.33029(4) 0.55362(3) 0.180062(19)
O1_2 O -0.3579(2) 0.49009(13) 0.09531(9)
O2_2 O -0.3066(2) 0.45720(13) 0.24087(10)
N1_2 N -0.3635(3) 0.32707(18) 0.07273(15)
N2_2 N -0.3138(3) 0.29317(18) 0.19623(16)
C1_2 C -0.3925(4) 0.3478(3) 0.01074(18)
H1_2 H -0.4153 0.3970 0.0027
C2_2 C -0.3904(5) 0.3005(3) -0.0418(2)
H2_2 H -0.4114 0.3172 -0.0841
C3_2 C -0.3568(6) 0.2288(4) -0.0302(3)
H3_2 H -0.3517 0.1962 -0.0650
C4_2 C -0.3303(5) 0.2039(3) 0.0331(3)
H4_2 H -0.3095 0.1545 0.0416
C5_2 C -0.3356(4) 0.2550(2) 0.0840(2)
C6_2 C -0.3161(4) 0.2356(2) 0.1536(2)
C7_2 C -0.3057(5) 0.1622(3) 0.1760(3)
H5_2 H -0.3048 0.1230 0.1466
C8_2 C -0.2970(6) 0.1491(3) 0.2413(4)
H6_2 H -0.2924 0.1006 0.2568
C9_2 C -0.2951(5) 0.2072(3) 0.2842(3)
H7_2 H -0.2902 0.1984 0.3290
C10_2 C -0.3004(5) 0.2801(3) 0.2601(2)
H8_2 H -0.2946 0.3198 0.2891
N3_2 N -0.3317(3) 0.63108(17) 0.25449(14)
N4_2 N -0.3281(3) 0.65272(18) 0.12848(14)
C11_2 C -0.3322(4) 0.6163(2) 0.31813(17)
H9_2 H -0.3198 0.5676 0.3321
C12_2 C -0.3505(5) 0.6704(3) 0.3641(2)
H10_2 H -0.3501 0.6582 0.4081
C13_2 C -0.3692(4) 0.7427(2) 0.3435(2)
H11_2 H -0.3826 0.7800 0.3733
C14_2 C -0.3677(4) 0.7588(2) 0.2780(2)
H12_2 H -0.3804 0.8072 0.2630
C15_2 C -0.3470(4) 0.7018(2) 0.23475(18)
C16_2 C -0.3333(4) 0.7149(2) 0.16458(19)
C17_2 C -0.3198(5) 0.7843(3) 0.1373(2)
H13_2 H -0.3252 0.8267 0.1627
C18_2 C -0.2984(5) 0.7905(3) 0.0730(2)
H14_2 H -0.2885 0.8369 0.0544
C19_2 C -0.2918(5) 0.7268(3) 0.0361(2)
H15_2 H -0.2764 0.7297 -0.0076
C20_2 C -0.3082(4) 0.6593(3) 0.06500(19)
H16_2 H -0.3055 0.6165 0.0398
Ni2_3 Ni 1.66971(4) 0.55362(3) 0.180062(19)
Ni1_3 Ni 1.66290(4) 0.39488(2) 0.153056(19)
O10_3 O -0.5163(2) 0.40816(13) 0.17009(10)
O9_3 O -0.5161(2) 0.53322(13) 0.18310(11)
Ni3 Ni 0.00482(4) 0.07694(2) 0.022086(18)
O11 O 0.0270(2) -0.02623(13) 0.07043(10)
O12 O -0.1781(2) 0.05486(14) 0.02819(10)
O13 O -0.2688(2) 0.05545(17) -0.11186(11)
O14 O -0.4513(3) 0.05996(17) -0.16669(11)
O15 O -0.1883(2) -0.06327(13) -0.01013(11)
N5 N 0.0192(3) 0.14065(16) 0.10562(13)
N6 N -0.0156(3) 0.18247(17) -0.01705(13)
C21 C 0.0377(4) 0.1161(2) 0.16707(16)
H17 H 0.0523 0.0657 0.1740
C22 C 0.0364(4) 0.1623(2) 0.22095(17)
H18 H 0.0488 0.1429 0.2630
C23 C 0.0164(4) 0.2367(2) 0.21161(19)
H19 H 0.0157 0.2689 0.2470
C24 C -0.0026(4) 0.2631(2) 0.14813(19)
H20 H -0.0169 0.3133 0.1403
C25 C -0.0001(4) 0.2137(2) 0.09633(16)
C26 C -0.0180(4) 0.2381(2) 0.02713(17)
C27 C -0.0328(5) 0.3113(3) 0.0097(2)
H21 H -0.0369 0.3478 0.0413
C28 C -0.0414(7) 0.3299(3) -0.0563(2)
H22 H -0.0496 0.3791 -0.0697
C29 C -0.0375(6) 0.2737(3) -0.1008(2)
H23 H -0.0428 0.2846 -0.1452
C30 C -0.0257(4) 0.2010(2) -0.08023(18)
H24 H -0.0248 0.1635 -0.1114
C41 C -0.3719(3) 0.00053(19) 0.00166(14)
C42 C -0.4419(3) 0.0232(2) -0.05546(14)
C43 C -0.2340(3) -0.0024(2) 0.00611(14)
C44 C -0.3824(3) 0.0485(2) -0.11555(15)
C45 C -0.4304(3) -0.0218(2) 0.05599(14)
H27 H -0.3829 -0.0362 0.0936
C45B C -0.5696(3) 0.0218(2) -0.05599(14)
C41B C -0.6281(3) -0.00053(19) -0.00166(14)
C42B C -0.5581(3) -0.0232(2) 0.05546(14)
C44B C -0.6176(3) -0.0485(2) 0.11555(15)
O13B O -0.7312(2) -0.05545(17) 0.11186(11)
O14B O -0.5487(3) -0.05996(17) 0.16669(11)
C43B C -0.7660(3) 0.0024(2) -0.00611(14)
O12B O -0.8219(2) -0.05486(14) -0.02819(10)
O15B O -0.8117(2) 0.06327(13) 0.01013(11)
H27B H -0.6171 0.0362 -0.0936
O11B O -0.0270(2) 0.02623(13) -0.07043(10)
Ni3B Ni -0.00482(4) -0.07694(2) -0.022086(18)
N5B N -0.0192(3) -0.14065(16) -0.10562(13)
N6B N 0.0156(3) -0.18247(17) 0.01705(13)
C21B C -0.0377(4) -0.1161(2) -0.16707(16)
H17B H -0.0523 -0.0657 -0.1740
C22B C -0.0364(4) -0.1623(2) -0.22095(17)
H18B H -0.0488 -0.1429 -0.2630
C23B C -0.0164(4) -0.2367(2) -0.21161(19)
H19B H -0.0157 -0.2689 -0.2470
C24B C 0.0026(4) -0.2631(2) -0.14813(19)
H20B H 0.0169 -0.3133 -0.1403
C25B C 0.0001(4) -0.2137(2) -0.09633(16)
C26B C 0.0180(4) -0.2381(2) -0.02713(17)
C27B C 0.0328(5) -0.3113(3) -0.0097(2)
H21B H 0.0369 -0.3478 -0.0413
C28B C 0.0414(7) -0.3299(3) 0.0563(2)
H22B H 0.0496 -0.3791 0.0697
C29B C 0.0375(6) -0.2737(3) 0.1008(2)
H23B H 0.0428 -0.2846 0.1452
C30B C 0.0257(4) -0.2010(2) 0.08023(18)
H24B H 0.0248 -0.1635 0.1114
O15B_2 O 0.1883(2) 0.06327(13) 0.01013(11)
Ni3B_2 Ni -1.00482(4) -0.07694(2) -0.022086(18)
Ni3_2 Ni -0.99518(4) 0.07694(2) 0.022086(18)
O12B_2 O 0.1781(2) -0.05486(14) -0.02819(10)
loop_
_geom_bond_atom_site_label_1
_geom_bond_atom_site_label_2
_geom_bond_site_symmetry_1
_geom_bond_site_symmetry_2
Ni1 O1 1_555 1_555
Ni2 O1 1_555 1_555
Ni3 O11 1_555 1_555
O2 Ni1 1_555 1_555
O3 Ni2 1_555 1_555
O4 Ni1 1_555 1_555
O5 C38 1_555 1_555
O6 C38 1_555 1_555
O7 C39 1_555 1_555
O8 C39 1_555 1_555
O9 C40 1_555 1_555
O10 C40 1_555 1_555
O11 Ni3B 1_555 1_555
O12 Ni3 1_555 1_555
O13 C44 1_555 1_555
O14 C44 1_555 1_555
O15 C43 1_555 1_555
N1 Ni1 1_555 1_555
N2 Ni1 1_555 1_555
N3 Ni2 1_555 1_555
N4 Ni2 1_555 1_555
N5 Ni3 1_555 1_555
N6 Ni3 1_555 1_555
C1 N1 1_555 1_555
H1 C1 1_555 1_555
C2 C1 1_555 1_555
H2 C2 1_555 1_555
C3 C2 1_555 1_555
H3 C3 1_555 1_555
C4 C3 1_555 1_555
H4 C4 1_555 1_555
C5 N1 1_555 1_555
C6 N2 1_555 1_555
C7 C6 1_555 1_555
H5 C7 1_555 1_555
C8 C7 1_555 1_555
H6 C8 1_555 1_555
C9 C8 1_555 1_555
H7 C9 1_555 1_555
C10 N2 1_555 1_555
H8 C10 1_555 1_555
C11 N3 1_555 1_555
H9 C11 1_555 1_555
C12 C11 1_555 1_555
H10 C12 1_555 1_555
C13 C12 1_555 1_555
H11 C13 1_555 1_555
C14 C13 1_555 1_555
H12 C14 1_555 1_555
C15 N3 1_555 1_555
C16 N4 1_555 1_555
C17 C16 1_555 1_555
H13 C17 1_555 1_555
C18 C17 1_555 1_555
H14 C18 1_555 1_555
C19 C18 1_555 1_555
H15 C19 1_555 1_555
C20 N4 1_555 1_555
H16 C20 1_555 1_555
C21 N5 1_555 1_555
H17 C21 1_555 1_555
C22 C21 1_555 1_555
H18 C22 1_555 1_555
C23 C22 1_555 1_555
H19 C23 1_555 1_555
C24 C23 1_555 1_555
H20 C24 1_555 1_555
C25 N5 1_555 1_555
C26 N6 1_555 1_555
C27 C26 1_555 1_555
H21 C27 1_555 1_555
C28 C27 1_555 1_555
H22 C28 1_555 1_555
C29 C28 1_555 1_555
H23 C29 1_555 1_555
C30 N6 1_555 1_555
H24 C30 1_555 1_555
C31 C32 1_555 1_555
C32 C33 1_555 1_555
C33 H25 1_555 1_555
C34 C33 1_555 1_555
C35 C34 1_555 1_555
C36 C31 1_555 1_555
H26 C36 1_555 1_555
C37 O3 1_555 1_555
C38 C32 1_555 1_555
C39 C35 1_555 1_555
C40 C34 1_555 1_555
C41 C42 1_555 1_555
C42 C44 1_555 1_555
C43 O12 1_555 1_555
C45 C41 1_555 1_555
H27 C45 1_555 1_555
C45B C42 1_555 1_555
C41B C45B 1_555 1_555
C42B C45 1_555 1_555
C44B C42B 1_555 1_555
O13B C44B 1_555 1_555
O14B C44B 1_555 1_555
C43B C41B 1_555 1_555
O12B C43B 1_555 1_555
O15B C43B 1_555 1_555
H27B C45B 1_555 1_555
O3_2 C37_2 1_555 1_555
O4_2 C37_2 1_555 1_555
O5_2 C38_2 1_555 1_555
O6_2 C38_2 1_555 1_555
O7_2 C39_2 1_555 1_555
O8_2 C39_2 1_555 1_555
O9_2 Ni2 1_555 1_555
O10_2 Ni1 1_555 1_555
C31_2 C32_2 1_555 1_555
C32_2 C33_2 1_555 1_555
C33_2 H25_2 1_555 1_555
C34_2 C33_2 1_555 1_555
C35_2 C34_2 1_555 1_555
C36_2 C31_2 1_555 1_555
H26_2 C36_2 1_555 1_555
C37_2 C31_2 1_555 1_555
C38_2 C32_2 1_555 1_555
C39_2 C35_2 1_555 1_555
C40_2 O9_2 1_555 1_555
Ni1_2 O4_2 1_555 1_555
Ni2_2 O3_2 1_555 1_555
O1_2 Ni1_2 1_555 1_555
O2_2 Ni1_2 1_555 1_555
N1_2 Ni1_2 1_555 1_555
N2_2 Ni1_2 1_555 1_555
C1_2 N1_2 1_555 1_555
H1_2 C1_2 1_555 1_555
C2_2 C1_2 1_555 1_555
H2_2 C2_2 1_555 1_555
C3_2 C2_2 1_555 1_555
H3_2 C3_2 1_555 1_555
C4_2 C3_2 1_555 1_555
H4_2 C4_2 1_555 1_555
C5_2 N1_2 1_555 1_555
C6_2 N2_2 1_555 1_555
C7_2 C6_2 1_555 1_555
H5_2 C7_2 1_555 1_555
C8_2 C7_2 1_555 1_555
H6_2 C8_2 1_555 1_555
C9_2 C8_2 1_555 1_555
H7_2 C9_2 1_555 1_555
C10_2 N2_2 1_555 1_555
H8_2 C10_2 1_555 1_555
N3_2 Ni2_2 1_555 1_555
N4_2 Ni2_2 1_555 1_555
C11_2 N3_2 1_555 1_555
H9_2 C11_2 1_555 1_555
C12_2 C11_2 1_555 1_555
H10_2 C12_2 1_555 1_555
C13_2 C12_2 1_555 1_555
H11_2 C13_2 1_555 1_555
C14_2 C13_2 1_555 1_555
H12_2 C14_2 1_555 1_555
C15_2 N3_2 1_555 1_555
C16_2 N4_2 1_555 1_555
C17_2 C16_2 1_555 1_555
H13_2 C17_2 1_555 1_555
C18_2 C17_2 1_555 1_555
H14_2 C18_2 1_555 1_555
C19_2 C18_2 1_555 1_555
H15_2 C19_2 1_555 1_555
C20_2 N4_2 1_555 1_555
H16_2 C20_2 1_555 1_555
O11B Ni3 1_555 1_555
Ni3B O15 1_555 1_555
N5B Ni3B 1_555 1_555
N6B Ni3B 1_555 1_555
C21B N5B 1_555 1_555
H17B C21B 1_555 1_555
C22B C21B 1_555 1_555
H18B C22B 1_555 1_555
C23B C22B 1_555 1_555
H19B C23B 1_555 1_555
C24B C23B 1_555 1_555
H20B C24B 1_555 1_555
C25B N5B 1_555 1_555
C26B N6B 1_555 1_555
C27B C26B 1_555 1_555
H21B C27B 1_555 1_555
C28B C27B 1_555 1_555
H22B C28B 1_555 1_555
C29B C28B 1_555 1_555
H23B C29B 1_555 1_555
C30B N6B 1_555 1_555
H24B C30B 1_555 1_555
O15B_2 Ni3 1_555 1_555
Ni2_3 O9 1_555 1_555
Ni1_3 O10 1_555 1_555
Ni3B_2 O12B 1_555 1_555
Ni3_2 O15B 1_555 1_555
O10_3 Ni1_2 1_555 1_555
O9_3 Ni2_2 1_555 1_555
O12B_2 Ni3B 1_555 1_555
Ni2 O2 1_555 1_555
O4 C37 1_555 1_555
C4 C5 1_555 1_555
C5 C6 1_555 1_555
C9 C10 1_555 1_555
C14 C15 1_555 1_555
C15 C16 1_555 1_555
C19 C20 1_555 1_555
C24 C25 1_555 1_555
C25 C26 1_555 1_555
C29 C30 1_555 1_555
C31 C37 1_555 1_555
C35 C36 1_555 1_555
C41 C43 1_555 1_555
C41B C42B 1_555 1_555
O10_2 C40_2 1_555 1_555
C34_2 C40_2 1_555 1_555
C35_2 C36_2 1_555 1_555
Ni2_2 O1_2 1_555 1_555
Ni2_2 O2_2 1_555 1_555
C4_2 C5_2 1_555 1_555
C5_2 C6_2 1_555 1_555
C9_2 C10_2 1_555 1_555
C14_2 C15_2 1_555 1_555
C15_2 C16_2 1_555 1_555
C19_2 C20_2 1_555 1_555
O11B Ni3B 1_555 1_555
C24B C25B 1_555 1_555
C25B C26B 1_555 1_555
C29B C30B 1_555 1_555

#END
