
#######################################################################
#
#                 Cambridge Crystallographic Data Centre
#                                CCDC 
#
#######################################################################
#
# If this CIF has been generated from an entry in the Cambridge 
# Structural Database, then it will include bibliographic, chemical, 
# crystal, experimental, refinement or atomic coordinate data resulting 
# from the CCDC's data processing and validation procedures.
#
#######################################################################

data_UJISAI
_symmetry_cell_setting           orthorhombic
_symmetry_space_group_name_H-M   'P n a 21'
_symmetry_Int_Tables_number      33
_space_group_name_Hall           'P 2c -2n'
loop_
_symmetry_equiv_pos_site_id
_symmetry_equiv_pos_as_xyz
1 x,y,z
2 1/2-x,1/2+y,1/2+z
3 1/2+x,1/2-y,z
4 -x,-y,1/2+z
_cell_length_a                   11.744(5)
_cell_length_b                   10.987(3)
_cell_length_c                   10.237(3)
_cell_angle_alpha                90
_cell_angle_beta                 90
_cell_angle_gamma                90
_cell_volume                     1320.89
loop_
_atom_site_label
_atom_site_type_symbol
_atom_site_fract_x
_atom_site_fract_y
_atom_site_fract_z
Zn1 Zn 0.38236(4) 0.58107(3) 0.87754(5)
N1 N 0.2463(2) 0.6926(2) 0.7575(3)
N2 N 0.3710(3) 0.7431(3) 0.9839(3)
N3 N 0.2392(3) 0.4732(3) 0.9003(4)
N4 N 0.4443(2) 0.5716(3) 0.6953(3)
N5 N 0.5120(3) 0.5088(3) 0.5030(3)
C1 C 0.2154(4) 0.7988(3) 0.8400(4)
C2 C 0.3190(4) 0.8441(3) 0.9106(4)
C3 C 0.1529(3) 0.6059(4) 0.7368(5)
C4 C 0.1333(3) 0.5313(4) 0.8578(6)
C5 C 0.3012(3) 0.7278(4) 0.6351(4)
C6 C 0.3878(3) 0.6335(3) 0.5973(4)
C7 C 0.4291(4) 0.5950(4) 0.4823(4)
C8 C 0.5148(4) 0.4990(5) 0.6314(6)
H1 H 0.3288 0.7292 1.0581
H2 H 0.4430 0.7659 1.0096
H3 H 0.2491 0.4025 0.8535
H4 H 0.2324 0.4523 0.9870
H5 H 0.1564 0.7748 0.9041
H6 H 0.1838 0.8645 0.7845
H7 H 0.3745 0.8772 0.8469
H8 H 0.2974 0.9103 0.9714
H9 H 0.1719 0.5514 0.6629
H10 H 0.0825 0.6507 0.7143
H11 H 0.1041 0.5844 0.9284
H12 H 0.0752 0.4682 0.8398
H13 H 0.3389 0.8077 0.6458
H14 H 0.2432 0.7354 0.5654
H15 H 0.4049 0.6232 0.3991
H16 H 0.5641 0.4438 0.6750
Zn1C Zn 0.61764(4) 0.41893(3) 0.37754(5)
N5C N 0.4880(3) 0.4912(3) 1.0030(3)
Cl1 Cl 0.35557(10) 0.16434(10) 0.73651(12)
O1 O 0.3758(3) 0.1533(3) 0.8726(5)
O2 O 0.2963(4) 0.0629(3) 0.6875(4)
O3 O 0.4630(5) 0.1582(12) 0.6764(6)
O4 O 0.3059(13) 0.2780(7) 0.7025(12)
O5? O 0.424(2) 0.231(2) 0.651(2)
O6? O 0.2480(12) 0.2290(19) 0.7440(14)
loop_
_geom_bond_atom_site_label_1
_geom_bond_atom_site_label_2
_geom_bond_site_symmetry_1
_geom_bond_site_symmetry_2
Zn1 N1 1_555 1_555
Cl1 O1 1_555 1_555
O2 Cl1 1_555 1_555
O3 Cl1 1_555 1_555
O4 Cl1 1_555 1_555
N1 C1 1_555 1_555
N2 Zn1 1_555 1_555
N3 Zn1 1_555 1_555
N4 Zn1 1_555 1_555
N5 C7 1_555 1_555
C1 C2 1_555 1_555
C2 N2 1_555 1_555
C3 N1 1_555 1_555
C4 N3 1_555 1_555
C5 N1 1_555 1_555
C6 N4 1_555 1_555
C7 C6 1_555 1_555
C8 N4 1_555 1_555
H1 N2 1_555 1_555
H2 N2 1_555 1_555
H3 N3 1_555 1_555
H4 N3 1_555 1_555
H5 C1 1_555 1_555
H6 C1 1_555 1_555
H7 C2 1_555 1_555
H8 C2 1_555 1_555
H9 C3 1_555 1_555
H10 C3 1_555 1_555
H11 C4 1_555 1_555
H12 C4 1_555 1_555
H13 C5 1_555 1_555
H14 C5 1_555 1_555
H15 C7 1_555 1_555
H16 C8 1_555 1_555
Zn1C N5 1_555 1_555
N5C Zn1 1_555 1_555
N5 C8 1_555 1_555
C3 C4 1_555 1_555
C5 C6 1_555 1_555

#END
