
#######################################################################
#
#                 Cambridge Crystallographic Data Centre
#                                CCDC 
#
#######################################################################
#
# If this CIF has been generated from an entry in the Cambridge 
# Structural Database, then it will include bibliographic, chemical, 
# crystal, experimental, refinement or atomic coordinate data resulting 
# from the CCDC's data processing and validation procedures.
#
#######################################################################

data_UJIYIV
_symmetry_cell_setting           monoclinic
_symmetry_space_group_name_H-M   'P 21/c'
_symmetry_Int_Tables_number      14
_space_group_name_Hall           '-P 2ybc'
loop_
_symmetry_equiv_pos_site_id
_symmetry_equiv_pos_as_xyz
1 x,y,z
2 x,1/2-y,1/2+z
3 -x,-y,-z
4 -x,1/2+y,1/2-z
_cell_length_a                   9.86400(10)
_cell_length_b                   11.90900(10)
_cell_length_c                   10.92800(10)
_cell_angle_alpha                90
_cell_angle_beta                 113.2040(6)
_cell_angle_gamma                90
_cell_volume                     1179.87
loop_
_atom_site_label
_atom_site_type_symbol
_atom_site_fract_x
_atom_site_fract_y
_atom_site_fract_z
Ga1 Ga 0.70891(3) 0.03175(2) 0.67776(2)
Fe1 Fe 0.66873(4) -0.08854(3) 0.37752(3)
O1 O 0.87725(18) -0.00633(16) 0.87656(17)
C1 C 0.7504(3) -0.0948(2) 0.5838(2)
C2 C 0.8667(3) -0.1002(2) 0.5355(2)
H1 H 0.9459 -0.0483 0.5571
C3 C 0.8449(3) -0.1954(2) 0.4504(3)
H2 H 0.9067 -0.2178 0.4065
C4 C 0.7144(3) -0.2506(2) 0.4431(3)
H3 H 0.6725 -0.3161 0.3929
C5 C 0.6577(3) -0.1899(2) 0.5249(2)
H4 H 0.5714 -0.2093 0.5386
C6 C 0.5385(3) 0.0197(2) 0.7268(2)
C7 C 0.4264(3) -0.0659(2) 0.6862(2)
H5 H 0.4244 -0.1290 0.6323
C8 C 0.3191(3) -0.0415(2) 0.7393(3)
H6 H 0.2332 -0.0845 0.7257
C9 C 0.3626(3) 0.0582(2) 0.8160(3)
H7 H 0.3124 0.0934 0.8641
C10 C 0.4962(3) 0.0959(2) 0.8074(2)
H8 H 0.5491 0.1616 0.8488
C11 C 0.7877(3) 0.1809(2) 0.6575(3)
H9 H 0.7058 0.2337 0.6175
H10 H 0.8423 0.1739 0.6000
H11 H 0.8538 0.2088 0.7451
C12 C 0.8698(3) 0.0550(2) 0.9873(3)
H12 H 0.7676 0.0532 0.9828
H13 H 0.8970 0.1344 0.9825
C13 C 1.0274(3) -0.0046(3) 0.8833(3)
H14 H 1.0327 -0.0478 0.8080
H15 H 1.0572 0.0738 0.8764
C13B C 0.9726(3) 0.0046(3) 1.1167(3)
O1B O 1.12275(18) 0.00633(16) 1.12344(17)
C12B C 1.1302(3) -0.0550(2) 1.0127(3)
H12B H 1.2324 -0.0532 1.0172
H13B H 1.1030 -0.1344 1.0175
H14B H 0.9673 0.0478 1.1920
H15B H 0.9428 -0.0738 1.1236
Ga1B Ga 1.29109(3) -0.03175(2) 1.32224(2)
Fe1B Fe 0.33127(4) 0.08854(3) 0.62248(3)
C6B C 0.4615(3) -0.0197(2) 0.2732(2)
C7B C 0.5736(3) 0.0659(2) 0.3138(2)
H5B H 0.5756 0.1290 0.3677
C8B C 0.6809(3) 0.0415(2) 0.2607(3)
H6B H 0.7668 0.0845 0.2743
C9B C 0.6374(3) -0.0582(2) 0.1840(3)
H7B H 0.6876 -0.0934 0.1359
C10B C 0.5038(3) -0.0959(2) 0.1926(2)
H8B H 0.4509 -0.1616 0.1512
C1B C 0.2496(3) 0.0948(2) 0.4162(2)
C2B C 0.1333(3) 0.1002(2) 0.4645(2)
C3B C 0.1551(3) 0.1954(2) 0.5496(3)
C4B C 0.2856(3) 0.2506(2) 0.5569(3)
C5B C 0.3423(3) 0.1899(2) 0.4751(2)
Ga1B_2 Ga 0.29109(3) -0.03175(2) 0.32224(2)
H1B H 0.0541 0.0483 0.4429
H2B H 0.0933 0.2178 0.5935
H3B H 0.3275 0.3161 0.6071
H4B H 0.4286 0.2093 0.4614
O1B_2 O 0.12275(18) 0.00633(16) 0.12344(17)
C11B C 0.2123(3) -0.1809(2) 0.3425(3)
H9B H 0.2942 -0.2337 0.3825
H10B H 0.1577 -0.1739 0.4000
H11B H 0.1462 -0.2088 0.2549
loop_
_geom_bond_atom_site_label_1
_geom_bond_atom_site_label_2
_geom_bond_site_symmetry_1
_geom_bond_site_symmetry_2
Ga1 O1 1_555 1_555
Fe1 C1 1_555 1_555
O1 C12 1_555 1_555
C1 Ga1 1_555 1_555
C2 Fe1 1_555 1_555
H1 C2 1_555 1_555
C3 Fe1 1_555 1_555
H2 C3 1_555 1_555
C4 Fe1 1_555 1_555
H3 C4 1_555 1_555
C5 Fe1 1_555 1_555
H4 C5 1_555 1_555
C6 Ga1 1_555 1_555
C7 C6 1_555 1_555
H5 C7 1_555 1_555
C8 C7 1_555 1_555
H6 C8 1_555 1_555
C9 C8 1_555 1_555
H7 C9 1_555 1_555
C10 C6 1_555 1_555
H8 C10 1_555 1_555
C11 Ga1 1_555 1_555
H9 C11 1_555 1_555
H10 C11 1_555 1_555
H11 C11 1_555 1_555
C12 H12 1_555 1_555
H13 C12 1_555 1_555
C13 O1 1_555 1_555
H14 C13 1_555 1_555
H15 C13 1_555 1_555
C13B C12 1_555 1_555
O1B C13B 1_555 1_555
C12B C13 1_555 1_555
H12B C12B 1_555 1_555
H13B C12B 1_555 1_555
H14B C13B 1_555 1_555
H15B C13B 1_555 1_555
Ga1B O1B 1_555 1_555
Fe1B C6 1_555 1_555
C6B Fe1 1_555 1_555
C7B Fe1 1_555 1_555
H5B C7B 1_555 1_555
C8B Fe1 1_555 1_555
H6B C8B 1_555 1_555
C9B Fe1 1_555 1_555
H7B C9B 1_555 1_555
C10B Fe1 1_555 1_555
H8B C10B 1_555 1_555
C1B Fe1B 1_555 1_555
C2B Fe1B 1_555 1_555
C3B Fe1B 1_555 1_555
C4B Fe1B 1_555 1_555
C5B Fe1B 1_555 1_555
Ga1B_2 C6B 1_555 1_555
H1B C2B 1_555 1_555
H2B C3B 1_555 1_555
H3B C4B 1_555 1_555
H4B C5B 1_555 1_555
O1B_2 Ga1B_2 1_555 1_555
C11B Ga1B_2 1_555 1_555
H9B C11B 1_555 1_555
H10B C11B 1_555 1_555
H11B C11B 1_555 1_555
C1 C2 1_555 1_555
C1 C5 1_555 1_555
C2 C3 1_555 1_555
C3 C4 1_555 1_555
C4 C5 1_555 1_555
C7 Fe1B 1_555 1_555
C8 Fe1B 1_555 1_555
C9 C10 1_555 1_555
C9 Fe1B 1_555 1_555
C10 Fe1B 1_555 1_555
O1B C12B 1_555 1_555
C6B C7B 1_555 1_555
C6B C10B 1_555 1_555
C7B C8B 1_555 1_555
C8B C9B 1_555 1_555
C9B C10B 1_555 1_555
C1B Ga1B_2 1_555 1_555
C1B C2B 1_555 1_555
C1B C5B 1_555 1_555
C2B C3B 1_555 1_555
C3B C4B 1_555 1_555
C4B C5B 1_555 1_555

#END
