
#######################################################################
#
#                 Cambridge Crystallographic Data Centre
#                                CCDC 
#
#######################################################################
#
# If this CIF has been generated from an entry in the Cambridge 
# Structural Database, then it will include bibliographic, chemical, 
# crystal, experimental, refinement or atomic coordinate data resulting 
# from the CCDC's data processing and validation procedures.
#
#######################################################################

data_UJOCEB
_symmetry_cell_setting           monoclinic
_symmetry_space_group_name_H-M   'C 2'
_symmetry_Int_Tables_number      5
_space_group_name_Hall           'C 2y'
loop_
_symmetry_equiv_pos_site_id
_symmetry_equiv_pos_as_xyz
1 x,y,z
2 -x,y,-z
3 1/2+x,1/2+y,z
4 1/2-x,1/2+y,-z
_cell_length_a                   20.0077(4)
_cell_length_b                   13.5582(3)
_cell_length_c                   10.1293(2)
_cell_angle_alpha                90
_cell_angle_beta                 100.2740(10)
_cell_angle_gamma                90
_cell_volume                     2703.7
loop_
_atom_site_label
_atom_site_type_symbol
_atom_site_fract_x
_atom_site_fract_y
_atom_site_fract_z
Br1 Br 0.56653(5) -0.03763(8) 0.35398(10)
Br2 Br 0.5000 -0.20116(10) 0.0000
Br3 Br 0.5000 -0.49383(13) 0.0000
Br4 Br 0.61105(8) -0.33607(11) 0.32640(14)
Br5 Br 0.67844(8) -0.40595(10) -0.01250(14)
Br6 Br 0.71917(7) -0.10982(11) 0.16792(15)
Cu1 Cu 0.45172(6) -0.07813(9) 0.25194(14)
Cu2 Cu 0.61943(11) -0.16953(15) 0.2577(2)
Cu3 Cu 0.56877(11) -0.35304(15) 0.0835(2)
Cu4 Cu 0.69226(10) -0.26592(15) 0.1109(2)
O1 O 0.4134(5) 0.3979(6) 0.4082(8)
O2 O 0.4195(4) 0.2856(6) -0.2262(8)
H1 H 0.4132 0.3334 -0.2765
N1 N 0.4222(4) 0.0431(7) 0.1460(9)
C1 C 0.2299(5) 0.2884(9) -0.3646(11)
H2 H 0.2036 0.2372 -0.4190
C2 C 0.4173(6) 0.0399(8) 0.0128(12)
H3 H 0.4210 -0.0211 -0.0270
C3 C 0.4069(6) 0.1226(7) -0.0702(11)
H4 H 0.4045 0.1157 -0.1622
C4 C 0.4002(4) 0.2149(7) -0.0154(9)
C5 C 0.4059(4) 0.2240(7) 0.1262(9)
C6 C 0.4048(5) 0.3143(7) 0.1931(10)
H5 H 0.3996 0.3731 0.1453
C7 C 0.4117(6) 0.3146(9) 0.3334(11)
C8 C 0.4201(5) 0.2266(9) 0.4046(10)
H6 H 0.4250 0.2279 0.4977
C9 C 0.4213(5) 0.1407(9) 0.3426(11)
H7 H 0.4254 0.0829 0.3929
C10 C 0.4167(5) 0.1346(7) 0.2035(10)
C11 C 0.4112(10) 0.4937(9) 0.3457(15)
H8 H 0.4130 0.5440 0.4129
H9 H 0.3699 0.5001 0.2816
H10 H 0.4494 0.5008 0.3008
C12 C 0.3891(4) 0.3037(8) -0.1094(10)
H11 H 0.4097 0.3624 -0.0623
C13 C 0.3127(5) 0.3207(7) -0.1545(10)
H12 H 0.2929 0.3247 -0.0728
C14 C 0.2741(5) 0.2420(8) -0.2406(13)
H13 H 0.2454 0.2061 -0.1893
H14 H 0.3057 0.1956 -0.2687
N2 N 0.2988(4) 0.4197(6) -0.2262(8)
H15 H 0.3239 0.4666 -0.1756
C15 C 0.3166(6) 0.4219(10) -0.3643(12)
H16 H 0.3649 0.4106 -0.3588
H17 H 0.3055 0.4858 -0.4054
C16 C 0.2763(7) 0.3416(15) -0.4475(14)
H18 H 0.3072 0.2946 -0.4765
H19 H 0.2490 0.3706 -0.5268
C17 C 0.2247(5) 0.4432(8) -0.2309(13)
H20 H 0.2148 0.5091 -0.2660
H21 H 0.2141 0.4405 -0.1411
C18 C 0.1812(5) 0.3671(8) -0.3219(11)
H22 H 0.1591 0.4016 -0.4031
C19 C 0.1266(5) 0.3232(8) -0.2572(11)
H23 H 0.1432 0.2898 -0.1718
C20 C 0.0669(6) 0.2865(8) -0.3270(13)
H24 H 0.0479 0.2300 -0.2880
H25 H 0.0633 0.2820 -0.4236
O1C O 0.0866(5) -0.1021(6) -0.4082(8)
O2C O 0.0805(4) -0.2144(6) 0.2262(8)
H1C H 0.0868 -0.1666 0.2765
N1C N 0.0778(4) -0.4569(7) -0.1460(9)
C1C C 0.2701(5) -0.2116(9) 0.3646(11)
H2C H 0.2964 -0.2628 0.4190
C2C C 0.0827(6) -0.4601(8) -0.0128(12)
H3C H 0.0790 -0.5211 0.0270
C3C C 0.0931(6) -0.3774(7) 0.0702(11)
H4C H 0.0955 -0.3843 0.1622
C4C C 0.0998(4) -0.2851(7) 0.0154(9)
C5C C 0.0941(4) -0.2760(7) -0.1262(9)
C6C C 0.0952(5) -0.1857(7) -0.1931(10)
H5C H 0.1004 -0.1269 -0.1453
C7C C 0.0883(6) -0.1854(9) -0.3334(11)
C8C C 0.0799(5) -0.2734(9) -0.4046(10)
H6C H 0.0750 -0.2721 -0.4977
C9C C 0.0787(5) -0.3593(9) -0.3426(11)
H7C H 0.0746 -0.4171 -0.3929
C10C C 0.0833(5) -0.3654(7) -0.2035(10)
C11C C 0.0888(10) -0.0063(9) -0.3457(15)
H8C H 0.0870 0.0440 -0.4129
H9C H 0.1301 0.0001 -0.2816
H10C H 0.0506 0.0008 -0.3008
C12C C 0.1109(4) -0.1963(8) 0.1094(10)
H11C H 0.0903 -0.1376 0.0623
C13C C 0.1873(5) -0.1793(7) 0.1545(10)
H12C H 0.2071 -0.1753 0.0728
C14C C 0.2259(5) -0.2580(8) 0.2406(13)
H13C H 0.2546 -0.2939 0.1893
H14C H 0.1943 -0.3044 0.2687
N2C N 0.2012(4) -0.0803(6) 0.2262(8)
H15C H 0.1761 -0.0334 0.1756
C15C C 0.1834(6) -0.0781(10) 0.3643(12)
H16C H 0.1351 -0.0894 0.3588
H17C H 0.1945 -0.0142 0.4054
C16C C 0.2237(7) -0.1584(15) 0.4475(14)
H18C H 0.1928 -0.2054 0.4765
H19C H 0.2510 -0.1294 0.5268
C17C C 0.2753(5) -0.0568(8) 0.2309(13)
H20C H 0.2852 0.0091 0.2660
H21C H 0.2859 -0.0595 0.1411
C18C C 0.3188(5) -0.1329(8) 0.3219(11)
H22C H 0.3409 -0.0984 0.4031
C19C C 0.3734(5) -0.1768(8) 0.2572(11)
H23C H 0.3568 -0.2102 0.1718
C20C C 0.4331(6) -0.2135(8) 0.3270(13)
H24C H 0.4521 -0.2700 0.2880
H25C H 0.4367 -0.2180 0.4236
Cu1C Cu 0.04828(6) -0.57813(9) -0.25194(14)
Cu3A Cu 0.43123(11) -0.35304(15) -0.0835(2)
Cu1C_2 Cu 0.04828(6) 0.42187(9) -0.25194(14)
Br4A Br 0.38895(8) -0.33607(11) -0.32640(14)
Cu2A Cu 0.38057(11) -0.16953(15) -0.2577(2)
Br1A Br 0.43347(5) -0.03763(8) -0.35398(10)
Br6A Br 0.28083(7) -0.10982(11) -0.16792(15)
Cu1A Cu 0.54828(6) -0.07813(9) -0.25194(14)
Cu4A Cu 0.30774(10) -0.26592(15) -0.1109(2)
N1A N 0.5778(4) 0.0431(7) -0.1460(9)
C19B C 0.6266(5) -0.1768(8) -0.2572(11)
C20B C 0.5669(6) -0.2135(8) -0.3270(13)
Br5A Br 0.32156(8) -0.40595(10) 0.01250(14)
H23B H 0.6432 -0.2102 -0.1718
H24B H 0.5479 -0.2700 -0.2880
H25B H 0.5633 -0.2180 -0.4236
loop_
_geom_bond_atom_site_label_1
_geom_bond_atom_site_label_2
_geom_bond_site_symmetry_1
_geom_bond_site_symmetry_2
Br1 Cu1 1_555 1_555
Br2 Cu3 1_555 1_555
Br3 Cu3 1_555 1_555
Br4 Cu2 1_555 1_555
Br5 Cu4 1_555 1_555
Br6 Cu2 1_555 1_555
Cu1 N1 1_555 1_555
Cu2 Br1 1_555 1_555
Cu3 Br4 1_555 1_555
Cu4 Br6 1_555 1_555
O1 C7 1_555 1_555
O2 H1 1_555 1_555
N1 C2 1_555 1_555
C1 H2 1_555 1_555
C2 H3 1_555 1_555
C3 C2 1_555 1_555
H4 C3 1_555 1_555
C4 C3 1_555 1_555
C5 C4 1_555 1_555
C6 C5 1_555 1_555
H5 C6 1_555 1_555
C7 C6 1_555 1_555
C8 C7 1_555 1_555
H6 C8 1_555 1_555
C9 C8 1_555 1_555
H7 C9 1_555 1_555
C10 N1 1_555 1_555
C11 O1 1_555 1_555
H8 C11 1_555 1_555
H9 C11 1_555 1_555
H10 C11 1_555 1_555
C12 O2 1_555 1_555
H11 C12 1_555 1_555
C13 C12 1_555 1_555
H12 C13 1_555 1_555
C14 C1 1_555 1_555
H13 C14 1_555 1_555
H14 C14 1_555 1_555
N2 C13 1_555 1_555
H15 N2 1_555 1_555
C15 N2 1_555 1_555
H16 C15 1_555 1_555
H17 C15 1_555 1_555
C16 C1 1_555 1_555
H18 C16 1_555 1_555
H19 C16 1_555 1_555
C17 N2 1_555 1_555
H20 C17 1_555 1_555
H21 C17 1_555 1_555
C18 C1 1_555 1_555
H22 C18 1_555 1_555
C19 C18 1_555 1_555
H23 C19 1_555 1_555
C20 C19 1_555 1_555
H24 C20 1_555 1_555
H25 C20 1_555 1_555
O1C C7C 1_555 1_555
O2C H1C 1_555 1_555
N1C C2C 1_555 1_555
C1C H2C 1_555 1_555
C2C H3C 1_555 1_555
C3C C2C 1_555 1_555
H4C C3C 1_555 1_555
C4C C3C 1_555 1_555
C5C C4C 1_555 1_555
C6C C5C 1_555 1_555
H5C C6C 1_555 1_555
C7C C6C 1_555 1_555
C8C C7C 1_555 1_555
H6C C8C 1_555 1_555
C9C C8C 1_555 1_555
H7C C9C 1_555 1_555
C10C N1C 1_555 1_555
C11C O1C 1_555 1_555
H8C C11C 1_555 1_555
H9C C11C 1_555 1_555
H10C C11C 1_555 1_555
C12C O2C 1_555 1_555
H11C C12C 1_555 1_555
C13C C12C 1_555 1_555
H12C C13C 1_555 1_555
C14C C1C 1_555 1_555
H13C C14C 1_555 1_555
H14C C14C 1_555 1_555
N2C C13C 1_555 1_555
H15C N2C 1_555 1_555
C15C N2C 1_555 1_555
H16C C15C 1_555 1_555
H17C C15C 1_555 1_555
C16C C1C 1_555 1_555
H18C C16C 1_555 1_555
H19C C16C 1_555 1_555
C17C N2C 1_555 1_555
H20C C17C 1_555 1_555
H21C C17C 1_555 1_555
C18C C1C 1_555 1_555
H22C C18C 1_555 1_555
C19C Cu1 1_555 1_555
H23C C19C 1_555 1_555
C20C Cu1 1_555 1_555
H24C C20C 1_555 1_555
H25C C20C 1_555 1_555
Cu1C N1C 1_555 1_555
Cu3A Br2 1_555 1_555
Cu1C_2 C19 1_555 1_555
Br4A Cu3A 1_555 1_555
Cu2A Br4A 1_555 1_555
Br1A Cu2A 1_555 1_555
Br6A Cu2A 1_555 1_555
Cu1A Br1A 1_555 1_555
Cu4A Br6A 1_555 1_555
N1A Cu1A 1_555 1_555
C19B Cu1A 1_555 1_555
C20B Cu1A 1_555 1_555
Br5A Cu4A 1_555 1_555
H23B C19B 1_555 1_555
H24B C20B 1_555 1_555
H25B C20B 1_555 1_555
Br3 Cu3A 1_555 1_555
C4 C12 1_555 1_555
C5 C10 1_555 1_555
C9 C10 1_555 1_555
C13 C14 1_555 1_555
C15 C16 1_555 1_555
C17 C18 1_555 1_555
C20 Cu1C_2 1_555 1_555
C4C C12C 1_555 1_555
C5C C10C 1_555 1_555
C9C C10C 1_555 1_555
C13C C14C 1_555 1_555
C15C C16C 1_555 1_555
C17C C18C 1_555 1_555
C18C C19C 1_555 1_555
C19C C20C 1_555 1_555
C19B C20B 1_555 1_555

#END
