
#######################################################################
#
#                 Cambridge Crystallographic Data Centre
#                                CCDC 
#
#######################################################################
#
# If this CIF has been generated from an entry in the Cambridge 
# Structural Database, then it will include bibliographic, chemical, 
# crystal, experimental, refinement or atomic coordinate data resulting 
# from the CCDC's data processing and validation procedures.
#
#######################################################################

data_UJOJUY
_symmetry_cell_setting           triclinic
_symmetry_space_group_name_H-M   'P -1'
_symmetry_Int_Tables_number      2
_space_group_name_Hall           '-P 1'
loop_
_symmetry_equiv_pos_site_id
_symmetry_equiv_pos_as_xyz
1 x,y,z
2 -x,-y,-z
_cell_length_a                   10.2414(8)
_cell_length_b                   10.9924(8)
_cell_length_c                   13.8482(9)
_cell_angle_alpha                109.940(3)
_cell_angle_beta                 99.410(3)
_cell_angle_gamma                109.142(3)
_cell_volume                     1316.29
loop_
_atom_site_label
_atom_site_type_symbol
_atom_site_fract_x
_atom_site_fract_y
_atom_site_fract_z
Cd1 Cd -0.63618(12) -1.26157(12) 0.17721(9)
O1 O -0.3904(11) -1.2837(14) 0.1825(8)
O2 O -0.4111(11) -1.0811(11) 0.2173(8)
O3 O 0.2311(17) -0.6407(14) 0.3635(13)
O4 O 0.0244(16) -0.6411(15) 0.3676(15)
O5 O 0.1062(12) -1.2815(15) 0.1830(10)
O6 O 0.2799(13) -1.0845(12) 0.2080(9)
N1 N -0.6761(13) -1.2970(19) -0.0050(10)
N2 N -0.5861(16) -1.2433(16) -0.6470(11)
N3 N -0.7370(17) -1.5086(13) 0.1205(9)
N4 N 0.103(2) -0.7038(19) 0.3488(14)
C1 C -0.176(2) -1.077(2) 0.2365(12)
C2 C -0.1132(19) -0.932(2) 0.2806(12)
H1 H -0.1697 -0.8814 0.2975
H2 H 0.2248 -0.8837 0.2966
H3 H -0.1282 -1.2533 0.1827
H4 H -0.7133 -1.5024 -0.0728
H5 H -0.7414 -1.5348 -0.2473
H6 H -0.6492 -1.1135 -0.4187
H7 H -0.6935 -1.1283 -0.5971
H8 H -0.4704 -1.3542 -0.6611
H9 H -0.4456 -1.3660 -0.4970
H10 H -0.6270 -1.1113 -0.1443
H11 H -0.6249 -1.0977 0.0274
H12 H -0.9336 -1.5280 0.1231
H13 H -1.0422 -1.7713 0.0583
H14 H -0.6492 -1.7752 0.0597
H15 H -0.5601 -1.5388 0.0990
C3 C 0.037(2) -0.858(2) 0.3009(13)
C4 C 0.1214(17) -0.931(3) 0.2804(14)
C5 C 0.059(2) -1.076(2) 0.2351(13)
C6 C -0.088(2) -1.1491(16) 0.2143(12)
C7 C -0.338(2) -1.152(2) 0.2108(12)
C8 C 0.158(2) -1.150(2) 0.2070(13)
C9 C -0.7023(19) -1.418(2) -0.084(2)
C10 C -0.7127(17) -1.4410(18) -0.1896(16)
C11 C -0.6845(16) -1.327(2) -0.2174(14)
C12 C -0.6834(18) -1.3396(18) -0.3309(12)
H16 H -0.7085 -1.4379 -0.3778
H17 H -0.7576 -1.3132 -0.3594
H18 H -0.4665 -1.2781 -0.3154
H19 H -0.5051 -1.1478 -0.2780
H20 H -0.8649 -1.9804 0.0618
H21 H -0.8971 -1.9935 -0.0552
C13 C -0.5417(19) -1.2492(18) -0.3339(16)
C14 C -0.554(2) -1.247(2) -0.4448(16)
C15 C -0.617(3) -1.169(3) -0.4694(19)
C16 C -0.637(2) -1.175(2) -0.574(2)
C17 C -0.517(2) -1.307(2) -0.6119(17)
C18 C -0.4968(19) -1.313(2) -0.514(2)
C19 C -0.6496(16) -1.197(2) -0.134(2)
C20 C -0.6481(15) -1.1860(18) -0.0308(16)
C21 C -0.876(2) -1.580(2) 0.1075(14)
C22 C -0.9395(18) -1.725(2) 0.0719(14)
C23 C -0.859(2) -1.805(2) 0.0506(12)
C24 C -0.713(2) -1.728(2) 0.0683(13)
C25 C -0.6592(18) -1.587(3) 0.0976(14)
C26 C -0.9202(15) -1.9627(17) 0.0092(11)
C26A C -1.0798(15) -2.0373(17) -0.0092(11)
H20A H -1.1351 -2.0196 -0.0618
H21A H -1.1029 -2.0065 0.0552
C23A C -1.141(2) -2.195(2) -0.0506(12)
C22A C -1.0605(18) -2.275(2) -0.0719(14)
H13A H -0.9578 -2.2287 -0.0583
C21A C -1.124(2) -2.420(2) -0.1075(14)
N3A N -1.2630(17) -2.4914(13) -0.1205(9)
C25A C -1.3408(18) -2.413(3) -0.0976(14)
H15A H -1.4399 -2.4612 -0.0990
C24A C -1.287(2) -2.272(2) -0.0683(13)
H14A H -1.3508 -2.2248 -0.0597
H12A H -1.0664 -2.4720 -0.1231
O1_2 O -1.3904(11) -1.2837(14) 0.1825(8)
O2_2 O -1.4111(11) -1.0811(11) 0.2173(8)
O3_2 O -0.7689(17) -0.6407(14) 0.3635(13)
O4_2 O -0.9756(16) -0.6411(15) 0.3676(15)
O5_2 O -0.8938(12) -1.2815(15) 0.1830(10)
O6_2 O -0.7201(13) -1.0845(12) 0.2080(9)
N4_2 N -0.897(2) -0.7038(19) 0.3488(14)
C1_2 C -1.176(2) -1.077(2) 0.2365(12)
C2_2 C -1.1132(19) -0.932(2) 0.2806(12)
H1_2 H -1.1697 -0.8814 0.2975
H2_2 H -0.7752 -0.8837 0.2966
H3_2 H -1.1282 -1.2533 0.1827
C3_2 C -0.963(2) -0.858(2) 0.3009(13)
C4_2 C -0.8786(17) -0.931(3) 0.2804(14)
C5_2 C -0.941(2) -1.076(2) 0.2351(13)
C6_2 C -1.088(2) -1.1491(16) 0.2143(12)
C7_2 C -1.338(2) -1.152(2) 0.2108(12)
C8_2 C -0.842(2) -1.150(2) 0.2070(13)
N1_2 N -0.6761(13) -1.2970(19) 0.9950(10)
N2_2 N -0.5861(16) -1.2433(16) 0.3530(11)
H4_2 H -0.7133 -1.5024 0.9272
H5_2 H -0.7414 -1.5348 0.7527
H6_2 H -0.6492 -1.1135 0.5813
H7_2 H -0.6935 -1.1283 0.4029
H8_2 H -0.4704 -1.3542 0.3389
H9_2 H -0.4456 -1.3660 0.5030
H10_2 H -0.6270 -1.1113 0.8557
H11_2 H -0.6249 -1.0977 1.0274
C9_2 C -0.7023(19) -1.418(2) 0.916(2)
C10_2 C -0.7127(17) -1.4410(18) 0.8104(16)
C11_2 C -0.6845(16) -1.327(2) 0.7826(14)
C12_2 C -0.6834(18) -1.3396(18) 0.6691(12)
H16_2 H -0.7085 -1.4379 0.6222
H17_2 H -0.7576 -1.3132 0.6406
H18_2 H -0.4665 -1.2781 0.6846
H19_2 H -0.5051 -1.1478 0.7220
C13_2 C -0.5417(19) -1.2492(18) 0.6661(16)
C14_2 C -0.554(2) -1.247(2) 0.5552(16)
C15_2 C -0.617(3) -1.169(3) 0.5306(19)
C16_2 C -0.637(2) -1.175(2) 0.426(2)
C17_2 C -0.517(2) -1.307(2) 0.3881(17)
C18_2 C -0.4968(19) -1.313(2) 0.486(2)
C19_2 C -0.6496(16) -1.197(2) 0.866(2)
C20_2 C -0.6481(15) -1.1860(18) 0.9692(16)
Cd1_2 Cd -1.63618(12) -1.26157(12) 0.17721(9)
Cd1_3 Cd 0.36382(12) -1.26157(12) 0.17721(9)
Cd1_4 Cd -0.63618(12) -1.26157(12) -0.82279(9)
Cd1A Cd -1.36382(12) -2.73843(12) -0.17721(9)
Cd1_5 Cd -0.63618(12) -1.26157(12) 1.17721(9)
O5_3 O -1.8938(12) -1.2815(15) 0.1830(10)
O6_3 O -1.7201(13) -1.0845(12) 0.2080(9)
N1_3 N -1.6761(13) -1.2970(19) -0.0050(10)
N2_3 N -1.5861(16) -1.2433(16) 0.3530(11)
N3_2 N -1.7370(17) -1.5086(13) 0.1205(9)
O7 O -1.026(6) -1.656(5) -0.381(4)
loop_
_geom_bond_atom_site_label_1
_geom_bond_atom_site_label_2
_geom_bond_site_symmetry_1
_geom_bond_site_symmetry_2
Cd1 O1 1_555 1_555
O1 C7 1_555 1_555
O2 Cd1 1_555 1_555
O3 N4 1_555 1_555
O4 N4 1_555 1_555
O5 C8 1_555 1_555
O6 C8 1_555 1_555
N1 Cd1 1_555 1_555
N2 C16 1_555 1_555
N3 Cd1 1_555 1_555
N4 C3 1_555 1_555
C1 C2 1_555 1_555
C2 H1 1_555 1_555
H2 C4 1_555 1_555
H3 C6 1_555 1_555
H4 C9 1_555 1_555
H5 C10 1_555 1_555
H6 C15 1_555 1_555
H7 C16 1_555 1_555
H8 C17 1_555 1_555
H9 C18 1_555 1_555
H10 C19 1_555 1_555
H11 C20 1_555 1_555
H12 C21 1_555 1_555
H13 C22 1_555 1_555
H14 C24 1_555 1_555
H15 C25 1_555 1_555
C3 C2 1_555 1_555
C4 C3 1_555 1_555
C5 C4 1_555 1_555
C6 C1 1_555 1_555
C7 O2 1_555 1_555
C8 C5 1_555 1_555
C9 N1 1_555 1_555
C10 C9 1_555 1_555
C11 C10 1_555 1_555
C12 C11 1_555 1_555
H16 C12 1_555 1_555
H17 C12 1_555 1_555
H18 C13 1_555 1_555
H19 C13 1_555 1_555
H20 C26 1_555 1_555
H21 C26 1_555 1_555
C13 C12 1_555 1_555
C14 C13 1_555 1_555
C15 C14 1_555 1_555
C16 C15 1_555 1_555
C17 N2 1_555 1_555
C18 C14 1_555 1_555
C19 C11 1_555 1_555
C20 N1 1_555 1_555
C21 N3 1_555 1_555
C22 C21 1_555 1_555
C23 C22 1_555 1_555
C24 C23 1_555 1_555
C25 N3 1_555 1_555
C26 C23 1_555 1_555
C26A C26 1_555 1_555
H20A C26A 1_555 1_555
H21A C26A 1_555 1_555
C23A C26A 1_555 1_555
C22A C23A 1_555 1_555
H13A C22A 1_555 1_555
C21A C22A 1_555 1_555
N3A C21A 1_555 1_555
C25A N3A 1_555 1_555
H15A C25A 1_555 1_555
C24A C23A 1_555 1_555
H14A C24A 1_555 1_555
H12A C21A 1_555 1_555
O1_2 C7_2 1_555 1_555
O2_2 C7_2 1_555 1_555
O3_2 N4_2 1_555 1_555
O4_2 N4_2 1_555 1_555
O5_2 Cd1 1_555 1_555
O6_2 Cd1 1_555 1_555
N4_2 C3_2 1_555 1_555
C1_2 C2_2 1_555 1_555
C2_2 H1_2 1_555 1_555
H2_2 C4_2 1_555 1_555
H3_2 C6_2 1_555 1_555
C3_2 C2_2 1_555 1_555
C4_2 C3_2 1_555 1_555
C5_2 C4_2 1_555 1_555
C6_2 C1_2 1_555 1_555
C7_2 C1_2 1_555 1_555
C8_2 O5_2 1_555 1_555
N1_2 C9_2 1_555 1_555
N2_2 Cd1 1_555 1_555
H4_2 C9_2 1_555 1_555
H5_2 C10_2 1_555 1_555
H6_2 C15_2 1_555 1_555
H7_2 C16_2 1_555 1_555
H8_2 C17_2 1_555 1_555
H9_2 C18_2 1_555 1_555
H10_2 C19_2 1_555 1_555
H11_2 C20_2 1_555 1_555
C9_2 C10_2 1_555 1_555
C10_2 C11_2 1_555 1_555
C11_2 C12_2 1_555 1_555
C12_2 H16_2 1_555 1_555
H17_2 C12_2 1_555 1_555
H18_2 C13_2 1_555 1_555
H19_2 C13_2 1_555 1_555
C13_2 C12_2 1_555 1_555
C14_2 C13_2 1_555 1_555
C15_2 C14_2 1_555 1_555
C16_2 N2_2 1_555 1_555
C17_2 N2_2 1_555 1_555
C18_2 C14_2 1_555 1_555
C19_2 C11_2 1_555 1_555
C20_2 N1_2 1_555 1_555
Cd1_2 O1_2 1_555 1_555
Cd1_3 O5 1_555 1_555
Cd1_4 N2 1_555 1_555
Cd1A N3A 1_555 1_555
Cd1_5 N1_2 1_555 1_555
O5_3 Cd1_2 1_555 1_555
O6_3 Cd1_2 1_555 1_555
N1_3 Cd1_2 1_555 1_555
N2_3 Cd1_2 1_555 1_555
N3_2 Cd1_2 1_555 1_555
O6 Cd1_3 1_555 1_555
C1 C7 1_555 1_555
C5 C6 1_555 1_555
C17 C18 1_555 1_555
C19 C20 1_555 1_555
C24 C25 1_555 1_555
C25A C24A 1_555 1_555
O2_2 Cd1_2 1_555 1_555
O6_2 C8_2 1_555 1_555
C5_2 C6_2 1_555 1_555
C5_2 C8_2 1_555 1_555
C15_2 C16_2 1_555 1_555
C17_2 C18_2 1_555 1_555
C19_2 C20_2 1_555 1_555

#END
