
#######################################################################
#
#                 Cambridge Crystallographic Data Centre
#                                CCDC 
#
#######################################################################
#
# If this CIF has been generated from an entry in the Cambridge 
# Structural Database, then it will include bibliographic, chemical, 
# crystal, experimental, refinement or atomic coordinate data resulting 
# from the CCDC's data processing and validation procedures.
#
#######################################################################

data_UJOKAF
_symmetry_cell_setting           monoclinic
_symmetry_space_group_name_H-M   'C 2/c'
_symmetry_Int_Tables_number      15
_space_group_name_Hall           '-C 2yn'
loop_
_symmetry_equiv_pos_site_id
_symmetry_equiv_pos_as_xyz
1 x,y,z
2 x,-y,1/2+z
3 1/2+x,1/2+y,z
4 1/2+x,1/2-y,1/2+z
5 -x,-y,-z
6 -x,y,1/2-z
7 1/2-x,1/2-y,-z
8 1/2-x,1/2+y,1/2-z
_cell_length_a                   14.47740(10)
_cell_length_b                   18.3603(6)
_cell_length_c                   17.2732(4)
_cell_angle_alpha                90
_cell_angle_beta                 105.561(2)
_cell_angle_gamma                90
_cell_volume                     4423.08
loop_
_atom_site_label
_atom_site_type_symbol
_atom_site_fract_x
_atom_site_fract_y
_atom_site_fract_z
Cd1 Cd -0.13007(4) 0.07569(3) 0.04531(3)
O1 O -0.1266(4) 0.0629(3) -0.0886(3)
O2 O -0.1240(4) 0.1755(3) -0.0474(3)
O3 O -0.1189(5) 0.0092(4) -0.3624(3)
O4 O -0.1207(5) 0.0953(3) -0.4511(4)
O5 O -0.1271(13) 0.3463(5) -0.3571(8)
O6 O -0.1257(9) 0.3710(5) -0.2403(7)
O7 O 0.0362(4) 0.0693(3) 0.0743(3)
N1 N -0.1364(5) 0.1632(4) 0.1377(4)
N2 N 0.2044(5) 0.4347(4) 0.4939(4)
N3 N -0.1274(10) 0.3280(5) -0.2921(8)
C1 C -0.1421(6) 0.2333(5) 0.1203(5)
H1 H -0.1495 0.2469 0.0671
H2 H -0.1441 0.3372 0.1597
H3 H 0.0494 0.5248 0.3513
H4 H 0.2102 0.5122 0.4135
H5 H 0.1626 0.3600 0.5605
H6 H -0.0043 0.3706 0.4993
H7 H -0.1115 0.1812 0.3288
H8 H -0.1239 0.0956 0.2283
H9 H -0.1255 0.0554 -0.2319
H10 H -0.1251 0.2207 -0.3867
H11 H -0.1273 0.2655 -0.1588
C2 C -0.1378(6) 0.2876(4) 0.1760(5)
C3 C -0.1257(5) 0.2695(4) 0.2554(5)
C4 C -0.1160(6) 0.3230(5) 0.3219(5)
H12 H -0.1667 0.3135 0.3476
H13 H -0.0556 0.3137 0.3615
H14 H -0.1810 0.4137 0.2662
H15 H -0.0729 0.4103 0.2691
H16 H -0.1317 0.4329 0.4095
H17 H -0.1128 0.4983 0.3589
C5 C -0.1194(6) 0.4017(5) 0.3005(6)
C6 C -0.0950(6) 0.4494(5) 0.3758(6)
C7 C 0.0086(6) 0.4465(5) 0.4197(5)
C8 C 0.0736(7) 0.4892(5) 0.3962(5)
C9 C 0.1679(7) 0.4819(5) 0.4333(6)
C10 C 0.1402(8) 0.3949(5) 0.5168(5)
C11 C 0.0428(7) 0.3991(5) 0.4821(6)
C12 C -0.1194(6) 0.1972(5) 0.2739(5)
C13 C -0.1249(6) 0.1464(4) 0.2145(5)
C14 C -0.1235(5) 0.1552(4) -0.1828(5)
C15 C -0.1223(5) 0.1061(4) -0.2432(5)
C16 C -0.1224(5) 0.1295(4) -0.3193(5)
C17 C -0.1239(6) 0.2025(5) -0.3344(5)
C18 C -0.1239(7) 0.2503(4) -0.2733(6)
C19 C -0.1240(6) 0.2289(5) -0.1989(5)
C20 C -0.1254(6) 0.1300(6) -0.1003(5)
C21 C -0.1204(6) 0.0741(5) -0.3840(5)
O3A O -0.1189(5) -0.0092(4) 0.1376(3)
N2C N -0.2956(5) 0.0653(4) -0.0061(4)
Cd1A Cd -0.13007(4) -0.07569(3) -0.45469(3)
Cd1C Cd 0.36993(4) 0.42431(3) 0.54531(3)
O8 O -0.070(2) 0.2366(14) -0.5085(14)
loop_
_geom_bond_atom_site_label_1
_geom_bond_atom_site_label_2
_geom_bond_site_symmetry_1
_geom_bond_site_symmetry_2
Cd1 O1 1_555 1_555
O1 C20 1_555 1_555
O2 Cd1 1_555 1_555
O3 C21 1_555 1_555
O4 C21 1_555 1_555
O5 N3 1_555 1_555
O6 N3 1_555 1_555
O7 Cd1 1_555 1_555
N1 Cd1 1_555 1_555
N2 C9 1_555 1_555
N3 C18 1_555 1_555
C1 N1 1_555 1_555
H1 C1 1_555 1_555
H2 C2 1_555 1_555
H3 C8 1_555 1_555
H4 C9 1_555 1_555
H5 C10 1_555 1_555
H6 C11 1_555 1_555
H7 C12 1_555 1_555
H8 C13 1_555 1_555
H9 C15 1_555 1_555
H10 C17 1_555 1_555
H11 C19 1_555 1_555
C2 C1 1_555 1_555
C3 C2 1_555 1_555
C4 C3 1_555 1_555
H12 C4 1_555 1_555
H13 C4 1_555 1_555
H14 C5 1_555 1_555
H15 C5 1_555 1_555
H16 C6 1_555 1_555
H17 C6 1_555 1_555
C5 C4 1_555 1_555
C6 C5 1_555 1_555
C7 C6 1_555 1_555
C8 C7 1_555 1_555
C9 C8 1_555 1_555
C10 N2 1_555 1_555
C11 C7 1_555 1_555
C12 C3 1_555 1_555
C13 N1 1_555 1_555
C14 C15 1_555 1_555
C15 C16 1_555 1_555
C16 C17 1_555 1_555
C17 C18 1_555 1_555
C18 C19 1_555 1_555
C19 C14 1_555 1_555
C20 O2 1_555 1_555
C21 C16 1_555 1_555
O3A Cd1 1_555 1_555
N2C Cd1 1_555 1_555
Cd1A O3 1_555 1_555
Cd1C N2 1_555 1_555
C10 C11 1_555 1_555
C12 C13 1_555 1_555
C14 C20 1_555 1_555

#END
