
#######################################################################
#
#                 Cambridge Crystallographic Data Centre
#                                CCDC 
#
#######################################################################
#
# If this CIF has been generated from an entry in the Cambridge 
# Structural Database, then it will include bibliographic, chemical, 
# crystal, experimental, refinement or atomic coordinate data resulting 
# from the CCDC's data processing and validation procedures.
#
#######################################################################

data_UJOLOU
_symmetry_cell_setting           monoclinic
_symmetry_space_group_name_H-M   'C 2/m'
_symmetry_Int_Tables_number      12
_space_group_name_Hall           '-C 2y'
loop_
_symmetry_equiv_pos_site_id
_symmetry_equiv_pos_as_xyz
1 x,y,z
2 1/2+x,1/2+y,z
3 x,-y,z
4 1/2+x,1/2-y,z
5 -x,-y,-z
6 1/2-x,1/2-y,-z
7 -x,y,-z
8 1/2-x,1/2+y,-z
_cell_length_a                   14.7847(16)
_cell_length_b                   10.2014(11)
_cell_length_c                   6.2298(7)
_cell_angle_alpha                90
_cell_angle_beta                 91.797(6)
_cell_angle_gamma                90
_cell_volume                     939.145
loop_
_atom_site_label
_atom_site_type_symbol
_atom_site_fract_x
_atom_site_fract_y
_atom_site_fract_z
Zn1 Zn 0.0000 0.14406(7) 0.5000
Zn2 Zn 0.0000 0.0000 0.0000
O1 O -0.04789(10) 0.0000 0.3114(2)
H1 H -0.1142 0.0000 0.3080
O2 O 0.06516(10) 0.2699 0.3356(2)
O3 O 0.09938(10) 0.1499 0.0469(2)
O4 O 0.27259(10) 0.3945 -0.5074(2)
C1 C 0.09569(10) 0.2557 0.1487(2)
C2 C 0.12739(10) 0.3810 0.0456(2)
C3 C 0.17401(10) 0.3803 -0.1464(2)
H2 H 0.1890 0.3020 -0.2130
C4 C 0.1970(4) 0.5000 -0.2338(9)
C5 C 0.1053(4) 0.5000 0.1414(9)
H3 H 0.0754 0.5000 0.2706
N1 N 0.2507(4) 0.5000 -0.4301(9)
C3B C 0.17401(10) 0.6197 -0.1464(2)
C2B C 0.12739(10) 0.6190 0.0456(2)
C1B C 0.09569(10) 0.7443 0.1487(2)
O2B O 0.06516(10) 0.7301 0.3356(2)
O3B O 0.09938(10) 0.8501 0.0469(2)
H2B H 0.1890 0.6980 -0.2130
O4B O 0.27259(10) 0.6055 -0.5074(2)
O1D O 0.04789(10) 0.0000 -0.3114(2)
H1D H 0.1142 0.0000 -0.3080
O2B_2 O 0.06516(10) -0.2699 0.3356(2)
O3B_2 O 0.09938(10) -0.1499 0.0469(2)
O4B_2 O 0.27259(10) -0.3945 -0.5074(2)
C1B_2 C 0.09569(10) -0.2557 0.1487(2)
C2B_2 C 0.12739(10) -0.3810 0.0456(2)
C3B_2 C 0.17401(10) -0.3803 -0.1464(2)
H2B_2 H 0.1890 -0.3020 -0.2130
C4B C 0.1970(4) -0.5000 -0.2338(9)
C5B C 0.1053(4) -0.5000 0.1414(9)
H3B H 0.0754 -0.5000 0.2706
N1B N 0.2507(4) -0.5000 -0.4301(9)
C3_2 C 0.17401(10) -0.6197 -0.1464(2)
C2_2 C 0.12739(10) -0.6190 0.0456(2)
C1_2 C 0.09569(10) -0.7443 0.1487(2)
O2_2 O 0.06516(10) -0.7301 0.3356(2)
O3_2 O 0.09938(10) -0.8501 0.0469(2)
H2_2 H 0.1890 -0.6980 -0.2130
O4_2 O 0.27259(10) -0.6055 -0.5074(2)
Zn1D Zn 0.0000 -0.14406(7) -0.5000
O1D_2 O 0.04789(10) 0.0000 0.6886(2)
O2F O -0.06516(10) 0.2699 0.6644(2)
O3D O -0.09938(10) -0.1499 -0.0469(2)
O3F O -0.09938(10) 0.1499 -0.0469(2)
Zn1B Zn 0.0000 -0.14406(7) 0.5000
Zn1B_2 Zn 0.0000 0.85594(7) 0.5000
Zn2_2 Zn 0.0000 1.0000 0.0000
Zn1_2 Zn 0.0000 0.14406(7) -0.5000
Zn1_3 Zn 0.0000 -0.85594(7) 0.5000
Zn2_3 Zn 0.0000 -1.0000 0.0000
O1_2 O -0.04789(10) 0.0000 -0.6886(2)
O2B_3 O 0.06516(10) -0.2699 -0.6644(2)
O2D O -0.06516(10) -0.2699 -0.3356(2)
H1D_2 H 0.1142 0.0000 0.6920
H1_2 H -0.1142 0.0000 -0.6920
loop_
_geom_bond_atom_site_label_1
_geom_bond_atom_site_label_2
_geom_bond_site_symmetry_1
_geom_bond_site_symmetry_2
Zn1 O1 1_555 1_555
Zn2 O1 1_555 1_555
O1 H1 1_555 1_555
O2 Zn1 1_555 1_555
O3 Zn2 1_555 1_555
O4 N1 1_555 1_555
C1 O2 1_555 1_555
C2 C1 1_555 1_555
C3 C2 1_555 1_555
H2 C3 1_555 1_555
C4 C3 1_555 1_555
C5 C2 1_555 1_555
H3 C5 1_555 1_555
N1 C4 1_555 1_555
C3B C4 1_555 1_555
C2B C5 1_555 1_555
C1B C2B 1_555 1_555
O2B C1B 1_555 1_555
O3B C1B 1_555 1_555
H2B C3B 1_555 1_555
O4B N1 1_555 1_555
O1D Zn2 1_555 1_555
H1D O1D 1_555 1_555
O2B_2 C1B_2 1_555 1_555
O3B_2 Zn2 1_555 1_555
O4B_2 N1B 1_555 1_555
C1B_2 O3B_2 1_555 1_555
C2B_2 C1B_2 1_555 1_555
C3B_2 C2B_2 1_555 1_555
H2B_2 C3B_2 1_555 1_555
C4B C3B_2 1_555 1_555
C5B C2B_2 1_555 1_555
H3B C5B 1_555 1_555
N1B C4B 1_555 1_555
C3_2 C4B 1_555 1_555
C2_2 C5B 1_555 1_555
C1_2 C2_2 1_555 1_555
O2_2 C1_2 1_555 1_555
O3_2 C1_2 1_555 1_555
H2_2 C3_2 1_555 1_555
O4_2 N1B 1_555 1_555
Zn1D O1D 1_555 1_555
O1D_2 Zn1 1_555 1_555
O2F Zn1 1_555 1_555
O3D Zn2 1_555 1_555
O3F Zn2 1_555 1_555
Zn1B O1 1_555 1_555
Zn1B_2 O2B 1_555 1_555
Zn2_2 O3B 1_555 1_555
Zn1_2 O1D 1_555 1_555
Zn1_3 O2_2 1_555 1_555
Zn2_3 O3_2 1_555 1_555
O1_2 Zn1D 1_555 1_555
O2B_3 Zn1D 1_555 1_555
O2D Zn1D 1_555 1_555
H1D_2 O1D_2 1_555 1_555
H1_2 O1_2 1_555 1_555
O3 C1 1_555 1_555
C3B C2B 1_555 1_555
O2B_2 Zn1B 1_555 1_555
C3_2 C2_2 1_555 1_555
O1D_2 Zn1B 1_555 1_555
Zn1_2 O1_2 1_555 1_555

#END
