
#######################################################################
#
#                 Cambridge Crystallographic Data Centre
#                                CCDC 
#
#######################################################################
#
# If this CIF has been generated from an entry in the Cambridge 
# Structural Database, then it will include bibliographic, chemical, 
# crystal, experimental, refinement or atomic coordinate data resulting 
# from the CCDC's data processing and validation procedures.
#
#######################################################################

data_UJONOW
_symmetry_cell_setting           triclinic
_symmetry_space_group_name_H-M   'P -1'
_symmetry_Int_Tables_number      2
_space_group_name_Hall           '-P 1'
loop_
_symmetry_equiv_pos_site_id
_symmetry_equiv_pos_as_xyz
1 x,y,z
2 -x,-y,-z
_cell_length_a                   13.619(3)
_cell_length_b                   13.660(3)
_cell_length_c                   14.166(3)
_cell_angle_alpha                68.33(2)
_cell_angle_beta                 64.940(10)
_cell_angle_gamma                87.42(2)
_cell_volume                     2199.07
loop_
_atom_site_label
_atom_site_type_symbol
_atom_site_fract_x
_atom_site_fract_y
_atom_site_fract_z
Re1 Re -0.24002(3) 0.29427(3) 0.66960(4)
Re2 Re -0.42388(3) 0.27872(3) 0.87671(4)
Re3 Re -0.26441(3) 0.46639(3) 0.74543(4)
Re4 Re -0.20682(3) 0.27043(3) 0.86351(4)
Te1 Te -0.07481(6) 0.40013(5) 0.65651(6)
Te2 Te -0.35048(6) 0.37716(6) 0.96765(6)
Te3 Te -0.31319(6) 0.11907(5) 0.85531(6)
Te4 Te -0.39738(6) 0.41442(6) 0.67611(6)
C1 C -0.1732(9) 0.3891(8) 0.4952(10)
C2 C -0.3198(10) 0.2159(9) 0.6155(11)
C3 C -0.1188(9) 0.2030(9) 0.6049(9)
C4 C -0.5385(9) 0.1946(9) 0.8624(10)
C5 C -0.5096(9) 0.1682(9) 1.0440(10)
C6 C -0.5601(10) 0.3579(9) 0.9301(10)
C7 C -0.3712(9) 0.5777(9) 0.7764(11)
C8 C -0.2032(9) 0.5903(9) 0.5856(10)
C9 C -0.1685(9) 0.5644(8) 0.7680(10)
C10 C -0.0957(9) 0.3327(9) 0.9041(10)
C11 C -0.2514(10) 0.1630(10) 1.0303(11)
C12 C -0.0841(9) 0.1722(9) 0.8371(10)
N1 N -0.1371(9) 0.4364(8) 0.3976(9)
N2 N -0.3624(9) 0.1758(9) 0.5812(10)
N3 N -0.0560(8) 0.1529(7) 0.5695(9)
N4 N -0.6037(9) 0.1497(8) 0.8550(10)
N5 N -0.5560(8) 0.1054(8) 1.1352(9)
N6 N -0.6358(9) 0.3969(8) 0.9642(9)
N7 N -0.4303(10) 0.6425(8) 0.7865(10)
N8 N -0.1718(9) 0.6603(8) 0.4984(9)
N9 N -0.1163(8) 0.6164(8) 0.7829(9)
N10 N 0.0330(7) -0.3604(7) 0.0743(8)
N11 N -0.2694(10) 0.1064(9) 1.1209(10)
N12 N -0.0144(10) 0.1195(9) 0.8248(10)
K1 K -0.5359(3) 0.0122(3) 0.7221(3)
Cu1 Cu 0.0000 0.0000 0.5000
Cu2 Cu 0.13709(12) 0.34822(11) -0.06407(12)
C13 C 0.2158(12) 0.2861(10) -0.2523(11)
H1 H 0.1560 0.2996 -0.2737
H2 H 0.2597 0.2402 -0.2872
C14 C 0.1920(12) 0.5734(9) -0.1402(11)
H3 H 0.2274 0.6302 -0.1353
H4 H 0.1293 0.5977 -0.1535
C15 C 0.2841(10) 0.3884(10) -0.2925(12)
H5 H 0.3486 0.3754 -0.2792
H6 H 0.3071 0.4276 -0.3728
C16 C 0.1582(10) 0.1720(9) 0.1271(9)
H7 H 0.2196 0.2123 0.1198
H8 H 0.1865 0.1383 0.0730
C17 C 0.2718(12) 0.5422(10) -0.2358(11)
H9 H 0.2909 0.5999 -0.3085
H10 H 0.3382 0.5254 -0.2271
C18 C 0.2306(10) 0.0569(9) 0.3968(10)
H11 H 0.2526 0.0134 0.3523
H12 H 0.2938 0.0784 0.4031
C19 C 0.1874(10) 0.1523(10) 0.3416(11)
H13 H 0.1727 0.1990 0.3822
H14 H 0.2417 0.1911 0.2647
C20 C 0.1052(11) 0.0857(8) 0.2459(10)
H15 H 0.0354 0.0560 0.2582
H16 H 0.1510 0.0293 0.2494
N13 N 0.1716(8) 0.2332(8) -0.1279(9)
H17 H 0.2211 0.1957 -0.1090
H18 H 0.1106 0.1884 -0.0999
N14 N 0.1573(8) 0.4770(7) -0.0343(8)
H19 H 0.0940 0.4837 0.0187
H20 H 0.2082 0.4695 -0.0083
N15 N 0.2148(8) 0.4483(7) -0.2276(8)
H21 H 0.1632 0.4706 -0.2529
N16 N 0.0832(8) 0.2466(7) 0.0979(8)
H22 H 0.0661 0.2850 0.1411
H23 H 0.0210 0.2078 0.1172
N17 N 0.1415(7) -0.0048(7) 0.5118(8)
H24 H 0.1544 -0.0726 0.5371
H25 H 0.1386 0.0239 0.5607
N18 N 0.0861(8) 0.1199(7) 0.3407(7)
H26 H 0.0471 0.1759 0.3347
O2 O -0.6259(9) 0.0587(9) 0.5713(10)
O4 O -0.4965(8) -0.1693(8) 0.6680(9)
C3A C 0.1188(9) -0.2030(9) 0.3951(9)
N3A N 0.0560(8) -0.1529(7) 0.4305(9)
C16A C -0.1582(10) -0.1720(9) 0.8729(9)
H7A H -0.2196 -0.2123 0.8802
H8A H -0.1865 -0.1383 0.9270
C18A C -0.2306(10) -0.0569(9) 0.6032(10)
H11A H -0.2526 -0.0134 0.6477
H12A H -0.2938 -0.0784 0.5969
C19A C -0.1874(10) -0.1523(10) 0.6584(11)
H13A H -0.1727 -0.1990 0.6178
H14A H -0.2417 -0.1911 0.7353
C20A C -0.1052(11) -0.0857(8) 0.7541(10)
H15A H -0.0354 -0.0560 0.7418
H16A H -0.1510 -0.0293 0.7506
N16A N -0.0832(8) -0.2466(7) 0.9021(8)
H22A H -0.0661 -0.2850 0.8589
H23A H -0.0210 -0.2078 0.8828
N17A N -0.1415(7) 0.0048(7) 0.4882(8)
H24A H -0.1544 0.0726 0.4629
H25A H -0.1386 -0.0239 0.4393
N18A N -0.0861(8) -0.1199(7) 0.6593(7)
H26A H -0.0471 -0.1759 0.6653
Re1A Re 0.24002(3) -0.29427(3) 0.33040(4)
Cu2A Cu -0.13709(12) -0.34822(11) 1.06407(12)
Te1A Te 0.07481(6) -0.40013(5) 0.34349(6)
Te3A Te 0.31319(6) -0.11907(5) 0.14469(6)
Te4A Te 0.39738(6) -0.41442(6) 0.32389(6)
C1A C 0.1732(9) -0.3891(8) 0.5048(10)
N1A N 0.1371(9) -0.4364(8) 0.6024(9)
C2A C 0.3198(10) -0.2159(9) 0.3845(11)
N2A N 0.3624(9) -0.1758(9) 0.4188(10)
N10_2 N 0.0330(7) -0.3604(7) 1.0743(8)
C13A C -0.2158(12) -0.2861(10) 1.2523(11)
H1A H -0.1560 -0.2996 1.2737
H2A H -0.2597 -0.2402 1.2872
C14A C -0.1920(12) -0.5734(9) 1.1402(11)
H3A H -0.2274 -0.6302 1.1353
H4A H -0.1293 -0.5977 1.1535
C15A C -0.2841(10) -0.3884(10) 1.2925(12)
H5A H -0.3486 -0.3754 1.2792
H6A H -0.3071 -0.4276 1.3728
C17A C -0.2718(12) -0.5422(10) 1.2358(11)
H9A H -0.2909 -0.5999 1.3085
H10A H -0.3382 -0.5254 1.2271
N13A N -0.1716(8) -0.2332(8) 1.1279(9)
H17A H -0.2211 -0.1957 1.1090
H18A H -0.1106 -0.1884 1.0999
N14A N -0.1573(8) -0.4770(7) 1.0343(8)
H19A H -0.0940 -0.4837 0.9813
H20A H -0.2082 -0.4695 1.0083
N15A N -0.2148(8) -0.4483(7) 1.2276(8)
H21A H -0.1632 -0.4706 1.2529
Re2A Re 0.42388(3) -0.27872(3) 0.12329(4)
Re3A Re 0.26441(3) -0.46639(3) 0.25457(4)
Re4A Re 0.20682(3) -0.27043(3) 0.13649(4)
K1A K 0.5359(3) -0.0122(3) 0.2779(3)
N5A N -0.4440(8) -0.1054(8) 0.8648(9)
N11A N -0.7306(10) -0.1064(9) 0.8791(10)
Te2A Te 0.35048(6) -0.37716(6) 0.03235(6)
C4A C 0.5385(9) -0.1946(9) 0.1376(10)
N4A N 0.6037(9) -0.1497(8) 0.1450(10)
C6A C 0.5601(10) -0.3579(9) 0.0699(10)
N6A N 0.6358(9) -0.3969(8) 0.0358(9)
C7A C 0.3712(9) -0.5777(9) 0.2236(11)
N7A N 0.4303(10) -0.6425(8) 0.2135(10)
C8A C 0.2032(9) -0.5903(9) 0.4144(10)
N8A N 0.1718(9) -0.6603(8) 0.5016(9)
C9A C 0.1685(9) -0.5644(8) 0.2320(10)
N9A N 0.1163(8) -0.6164(8) 0.2171(9)
C12A C 0.0841(9) -0.1722(9) 0.1629(10)
N12A N 0.0144(10) -0.1195(9) 0.1752(10)
O2A O 0.6259(9) -0.0587(9) 0.4287(10)
O4A O 0.4965(8) 0.1693(8) 0.3320(9)
K1A_2 K -0.4641(3) -0.0122(3) 1.2779(3)
C5A C 0.5096(9) -0.1682(9) -0.0440(10)
C10A C 0.0957(9) -0.3327(9) 0.0959(10)
C11A C 0.2514(10) -0.1630(10) -0.0303(11)
N5_2 N 0.4440(8) 0.1054(8) 0.1352(9)
N11_2 N 0.7306(10) 0.1064(9) 0.1209(10)
N11A_2 N 0.2694(10) -0.1064(9) -0.1209(10)
N10A N -0.0330(7) 0.3604(7) -0.0743(8)
N5A_2 N 0.5560(8) -0.1054(8) -0.1352(9)
K1_2 K 0.4641(3) 0.0122(3) -0.2779(3)
Cu2A_2 Cu -0.13709(12) -0.34822(11) 0.06407(12)
N10A_2 N -0.0330(7) 0.3604(7) 0.9257(8)
Cu2_2 Cu 0.13709(12) 0.34822(11) 0.93593(12)
O1 O 0.1080(8) -0.2419(7) -0.3207(8)
O3 O 0.1717(8) -0.8747(7) 0.6273(8)
O5 O -0.0384(10) 0.0862(7) 0.0868(11)
O6 O 0.3151(11) -0.1607(11) -0.3655(13)
loop_
_geom_bond_atom_site_label_1
_geom_bond_atom_site_label_2
_geom_bond_site_symmetry_1
_geom_bond_site_symmetry_2
Re1 Te1 1_555 1_555
Re2 Te2 1_555 1_555
Re3 Te1 1_555 1_555
Re4 Te1 1_555 1_555
Te2 Re3 1_555 1_555
Te3 Re1 1_555 1_555
Te4 Re1 1_555 1_555
C1 Re1 1_555 1_555
C2 Re1 1_555 1_555
C3 Re1 1_555 1_555
C4 Re2 1_555 1_555
C5 Re2 1_555 1_555
C6 Re2 1_555 1_555
C7 Re3 1_555 1_555
C8 Re3 1_555 1_555
C9 Re3 1_555 1_555
C10 Re4 1_555 1_555
C11 Re4 1_555 1_555
C12 Re4 1_555 1_555
N1 C1 1_555 1_555
N2 C2 1_555 1_555
N3 C3 1_555 1_555
N4 C4 1_555 1_555
N5 C5 1_555 1_555
N6 C6 1_555 1_555
N7 C7 1_555 1_555
N8 C8 1_555 1_555
N9 C9 1_555 1_555
N10 C10A 1_555 1_555
N11 C11 1_555 1_555
N12 C12 1_555 1_555
K1 N2 1_555 1_555
Cu1 N3 1_555 1_555
Cu2 N13 1_555 1_555
C13 H1 1_555 1_555
H2 C13 1_555 1_555
C14 H3 1_555 1_555
H4 C14 1_555 1_555
C15 C13 1_555 1_555
H5 C15 1_555 1_555
H6 C15 1_555 1_555
C16 H7 1_555 1_555
H8 C16 1_555 1_555
C17 C14 1_555 1_555
H9 C17 1_555 1_555
H10 C17 1_555 1_555
C18 H11 1_555 1_555
H12 C18 1_555 1_555
C19 C18 1_555 1_555
H13 C19 1_555 1_555
H14 C19 1_555 1_555
C20 C16 1_555 1_555
H15 C20 1_555 1_555
H16 C20 1_555 1_555
N13 C13 1_555 1_555
H17 N13 1_555 1_555
H18 N13 1_555 1_555
N14 Cu2 1_555 1_555
H19 N14 1_555 1_555
H20 N14 1_555 1_555
N15 Cu2 1_555 1_555
H21 N15 1_555 1_555
N16 Cu2 1_555 1_555
H22 N16 1_555 1_555
H23 N16 1_555 1_555
N17 Cu1 1_555 1_555
H24 N17 1_555 1_555
H25 N17 1_555 1_555
N18 Cu1 1_555 1_555
H26 N18 1_555 1_555
O2 K1 1_555 1_555
O4 K1 1_555 1_555
C3A N3A 1_555 1_555
N3A Cu1 1_555 1_555
C16A H7A 1_555 1_555
H8A C16A 1_555 1_555
C18A H11A 1_555 1_555
H12A C18A 1_555 1_555
C19A C18A 1_555 1_555
H13A C19A 1_555 1_555
H14A C19A 1_555 1_555
C20A C16A 1_555 1_555
H15A C20A 1_555 1_555
H16A C20A 1_555 1_555
N16A C16A 1_555 1_555
H22A N16A 1_555 1_555
H23A N16A 1_555 1_555
N17A Cu1 1_555 1_555
H24A N17A 1_555 1_555
H25A N17A 1_555 1_555
N18A Cu1 1_555 1_555
H26A N18A 1_555 1_555
Re1A C3A 1_555 1_555
Cu2A N16A 1_555 1_555
Te1A Re1A 1_555 1_555
Te3A Re1A 1_555 1_555
Te4A Re1A 1_555 1_555
C1A Re1A 1_555 1_555
N1A C1A 1_555 1_555
C2A Re1A 1_555 1_555
N2A C2A 1_555 1_555
N10_2 Cu2A 1_555 1_555
C13A H1A 1_555 1_555
H2A C13A 1_555 1_555
C14A H3A 1_555 1_555
H4A C14A 1_555 1_555
C15A C13A 1_555 1_555
H5A C15A 1_555 1_555
H6A C15A 1_555 1_555
C17A C14A 1_555 1_555
H9A C17A 1_555 1_555
H10A C17A 1_555 1_555
N13A Cu2A 1_555 1_555
H17A N13A 1_555 1_555
H18A N13A 1_555 1_555
N14A Cu2A 1_555 1_555
H19A N14A 1_555 1_555
H20A N14A 1_555 1_555
N15A Cu2A 1_555 1_555
H21A N15A 1_555 1_555
Re2A Te3A 1_555 1_555
Re3A Te1A 1_555 1_555
Re4A Te1A 1_555 1_555
K1A N2A 1_555 1_555
N5A K1 1_555 1_555
N11A K1 1_555 1_555
Te2A Re2A 1_555 1_555
C4A Re2A 1_555 1_555
N4A K1A 1_555 1_555
C6A Re2A 1_555 1_555
N6A C6A 1_555 1_555
C7A Re3A 1_555 1_555
N7A C7A 1_555 1_555
C8A Re3A 1_555 1_555
N8A C8A 1_555 1_555
C9A Re3A 1_555 1_555
N9A C9A 1_555 1_555
C12A Re4A 1_555 1_555
N12A C12A 1_555 1_555
O2A K1A 1_555 1_555
O4A K1A 1_555 1_555
K1A_2 N5 1_555 1_555
C5A Re2A 1_555 1_555
C10A Re4A 1_555 1_555
C11A Re4A 1_555 1_555
N5_2 K1A 1_555 1_555
N11_2 K1A 1_555 1_555
N11A_2 C11A 1_555 1_555
N10A Cu2 1_555 1_555
N5A_2 C5A 1_555 1_555
K1_2 N11A_2 1_555 1_555
Cu2A_2 N10 1_555 1_555
N10A_2 C10 1_555 1_555
Cu2_2 N10A_2 1_555 1_555
Re2 Te3 1_555 1_555
Re2 Te4 1_555 1_555
Re3 Te4 1_555 1_555
Re4 Te3 1_555 1_555
Re4 Te2 1_555 1_555
N4 K1 1_555 1_555
N11 K1A_2 1_555 1_555
C14 N14 1_555 1_555
C15 N15 1_555 1_555
C16 N16 1_555 1_555
C17 N15 1_555 1_555
C18 N17 1_555 1_555
C19 N18 1_555 1_555
C20 N18 1_555 1_555
C18A N17A 1_555 1_555
C19A N18A 1_555 1_555
C20A N18A 1_555 1_555
Te3A Re4A 1_555 1_555
Te4A Re3A 1_555 1_555
Te4A Re2A 1_555 1_555
C13A N13A 1_555 1_555
C14A N14A 1_555 1_555
C15A N15A 1_555 1_555
C17A N15A 1_555 1_555
Re3A Te2A 1_555 1_555
Re4A Te2A 1_555 1_555
C4A N4A 1_555 1_555
N5A_2 K1_2 1_555 1_555

#END
