
#######################################################################
#
#                 Cambridge Crystallographic Data Centre
#                                CCDC 
#
#######################################################################
#
# If this CIF has been generated from an entry in the Cambridge 
# Structural Database, then it will include bibliographic, chemical, 
# crystal, experimental, refinement or atomic coordinate data resulting 
# from the CCDC's data processing and validation procedures.
#
#######################################################################

data_UJOQIT
_symmetry_cell_setting           monoclinic
_symmetry_space_group_name_H-M   'C 2/c'
_symmetry_Int_Tables_number      15
_space_group_name_Hall           '-C 2yn'
loop_
_symmetry_equiv_pos_site_id
_symmetry_equiv_pos_as_xyz
1 x,y,z
2 1/2+x,1/2+y,z
3 x,-y,1/2+z
4 1/2+x,1/2-y,1/2+z
5 -x,-y,-z
6 1/2-x,1/2-y,-z
7 -x,y,1/2-z
8 1/2-x,1/2+y,1/2-z
_cell_length_a                   33.40590(10)
_cell_length_b                   11.23850(10)
_cell_length_c                   17.1703(3)
_cell_angle_alpha                90
_cell_angle_beta                 119.9160(10)
_cell_angle_gamma                90
_cell_volume                     5587.36
loop_
_atom_site_label
_atom_site_type_symbol
_atom_site_fract_x
_atom_site_fract_y
_atom_site_fract_z
Hg1 Hg 0.24569(2) 0.12213(8) 0.24377(4)
I1 I 0.15463(5) 0.07629(15) 0.15477(10)
I2 I 0.33193(5) 0.04162(15) 0.32455(11)
C1 C 0.2077(6) 0.2971(16) 0.3560(12)
H1 H 0.1794 0.2640 0.3150
C2 C 0.2089(6) 0.3822(16) 0.4149(12)
H2 H 0.1824 0.3960 0.4183
C3 C 0.2487(7) 0.4488(17) 0.4700(12)
C4 C 0.2923(10) 0.422(2) 0.4695(13)
H3 H 0.3196 0.4627 0.5057
C5 C 0.2894(7) 0.3254(17) 0.4075(14)
H4 H 0.3152 0.3085 0.4025
C6 C 0.2536(6) 0.5405(15) 0.5308(12)
C7 C 0.2095(11) 0.603(2) 0.5114(14)
H5 H 0.1823 0.5815 0.4599
C8 C 0.2076(7) 0.6979(17) 0.5717(16)
H6 H 0.1797 0.7287 0.5625
C9 C 0.2908(7) 0.6781(16) 0.6629(13)
H7 H 0.3182 0.7001 0.7137
C10 C 0.2905(6) 0.5855(19) 0.6069(13)
H8 H 0.3189 0.5506 0.6239
N3 N 0.2481(6) 0.2576(17) 0.3553(9)
N4 N 0.2494(6) 0.7363(19) 0.6411(10)
C1B C 0.2077(6) 0.7029(16) -0.1440(12)
H1B H 0.1794 0.7360 -0.1850
C2B C 0.2089(6) 0.6178(16) -0.0851(12)
H2B H 0.1824 0.6040 -0.0817
C3B C 0.2487(7) 0.5512(17) -0.0300(12)
C4B C 0.2923(10) 0.578(2) -0.0305(13)
H3B H 0.3196 0.5373 0.0057
C5B C 0.2894(7) 0.6746(17) -0.0925(14)
H4B H 0.3152 0.6915 -0.0975
C6B C 0.2536(6) 0.4595(15) 0.0308(12)
C7B C 0.2095(11) 0.397(2) 0.0114(14)
H5B H 0.1823 0.4185 -0.0401
C8B C 0.2076(7) 0.3021(17) 0.0717(16)
H6B H 0.1797 0.2713 0.0625
C9B C 0.2908(7) 0.3219(16) 0.1629(13)
H7B H 0.3182 0.2999 0.2137
C10B C 0.2905(6) 0.4145(19) 0.1069(13)
H8B H 0.3189 0.4494 0.1239
N3B N 0.2481(6) 0.7424(17) -0.1447(9)
N4B N 0.2494(6) 0.2637(19) 0.1411(10)
Hg1B Hg 0.24569(2) 0.87787(8) -0.25623(4)
I1B I 0.15463(5) 0.92371(15) -0.34523(10)
I2B I 0.33193(5) 0.95838(15) -0.17545(11)
Hg1B_2 Hg 0.24569(2) 0.87787(8) 0.74377(4)
N4_2 N 0.2494(6) 0.7363(19) -0.3589(10)
Hg2 Hg 0.0000 0.12873(10) 0.2500
Hg3 Hg 0.0000 -0.62840(10) -0.2500
I3 I 0.08927(5) 0.18951(14) 0.34686(11)
I4 I 0.08851(5) -0.69256(14) -0.18043(11)
C11 C 0.0373(6) -0.051(2) 0.1370(14)
H9 H 0.0643 -0.0090 0.1741
C12 C 0.0394(8) -0.1284(18) 0.0816(13)
H10 H 0.0658 -0.1374 0.0769
C13 C -0.0005(7) -0.1971(15) 0.0300(11)
C14 C -0.0371(6) -0.1742(17) 0.0389(12)
H11 H -0.0644 -0.2172 0.0081
C15 C -0.0321(6) -0.0871(18) 0.0938(12)
H12 H -0.0593 -0.0679 0.0936
C16 C 0.0051(6) -0.3015(17) -0.0243(13)
C17 C 0.0402(7) -0.3577(17) -0.0094(12)
H13 H 0.0685 -0.3409 0.0413
C18 C 0.0370(6) -0.444(2) -0.0679(14)
H14 H 0.0639 -0.4869 -0.0514
C19 C -0.0337(6) -0.4193(18) -0.1564(12)
H15 H -0.0609 -0.4370 -0.2092
C20 C -0.0360(8) -0.336(2) -0.1014(14)
H16 H -0.0642 -0.3029 -0.1144
N1 N 0.0012(5) -0.0254(12) 0.1457(9)
N2 N 0.0021(5) -0.4744(12) -0.1418(9)
I3F I -0.08927(5) 0.18951(14) 0.15314(11)
C11F C -0.0373(6) -0.051(2) 0.3630(14)
H9F H -0.0643 -0.0090 0.3259
C12F C -0.0394(8) -0.1284(18) 0.4184(13)
H10F H -0.0658 -0.1374 0.4231
C13F C 0.0005(7) -0.1971(15) 0.4700(11)
C14F C 0.0371(6) -0.1742(17) 0.4611(12)
H11F H 0.0644 -0.2172 0.4919
C15F C 0.0321(6) -0.0871(18) 0.4062(12)
H12F H 0.0593 -0.0679 0.4064
C16F C -0.0051(6) -0.3015(17) 0.5243(13)
C17F C -0.0402(7) -0.3577(17) 0.5094(12)
H13F H -0.0685 -0.3409 0.4587
C18F C -0.0370(6) -0.444(2) 0.5679(14)
H14F H -0.0639 -0.4869 0.5514
C19F C 0.0337(6) -0.4193(18) 0.6564(12)
H15F H 0.0609 -0.4370 0.7092
C20F C 0.0360(8) -0.336(2) 0.6014(14)
H16F H 0.0642 -0.3029 0.6144
N1F N -0.0012(5) -0.0254(12) 0.3543(9)
N2F N -0.0021(5) -0.4744(12) 0.6418(9)
I4F I -0.08851(5) -0.69256(14) -0.31957(11)
N2F_2 N -0.0021(5) -0.4744(12) -0.3582(9)
Hg3_2 Hg 0.0000 -0.62840(10) 0.7500
loop_
_geom_bond_atom_site_label_1
_geom_bond_atom_site_label_2
_geom_bond_site_symmetry_1
_geom_bond_site_symmetry_2
Hg1 I1 1_555 1_555
Hg2 I3 1_555 1_555
Hg3 I4 1_555 1_555
I2 Hg1 1_555 1_555
C1 H1 1_555 1_555
C2 C1 1_555 1_555
H2 C2 1_555 1_555
C3 C2 1_555 1_555
C4 C3 1_555 1_555
H3 C4 1_555 1_555
C5 C4 1_555 1_555
H4 C5 1_555 1_555
C6 C3 1_555 1_555
C7 C6 1_555 1_555
H5 C7 1_555 1_555
C8 C7 1_555 1_555
H6 C8 1_555 1_555
C9 H7 1_555 1_555
C10 C6 1_555 1_555
H8 C10 1_555 1_555
C11 H9 1_555 1_555
C12 C11 1_555 1_555
H10 C12 1_555 1_555
C13 C12 1_555 1_555
C14 C13 1_555 1_555
H11 C14 1_555 1_555
C15 C14 1_555 1_555
H12 C15 1_555 1_555
C16 C13 1_555 1_555
C17 C16 1_555 1_555
H13 C17 1_555 1_555
C18 C17 1_555 1_555
H14 C18 1_555 1_555
C19 H15 1_555 1_555
C20 C16 1_555 1_555
H16 C20 1_555 1_555
N1 Hg2 1_555 1_555
N2 Hg3 1_555 1_555
N3 Hg1 1_555 1_555
N4 C8 1_555 1_555
I3F Hg2 1_555 1_555
C11F H9F 1_555 1_555
C12F C11F 1_555 1_555
H10F C12F 1_555 1_555
C13F C12F 1_555 1_555
C14F C13F 1_555 1_555
H11F C14F 1_555 1_555
C15F C14F 1_555 1_555
H12F C15F 1_555 1_555
C16F C13F 1_555 1_555
C17F C16F 1_555 1_555
H13F C17F 1_555 1_555
C18F C17F 1_555 1_555
H14F C18F 1_555 1_555
C19F H15F 1_555 1_555
C20F C16F 1_555 1_555
H16F C20F 1_555 1_555
N1F Hg2 1_555 1_555
N2F C18F 1_555 1_555
I4F Hg3 1_555 1_555
C1B H1B 1_555 1_555
C2B C1B 1_555 1_555
H2B C2B 1_555 1_555
C3B C2B 1_555 1_555
C4B C3B 1_555 1_555
H3B C4B 1_555 1_555
C5B C4B 1_555 1_555
H4B C5B 1_555 1_555
C6B C3B 1_555 1_555
C7B C6B 1_555 1_555
H5B C7B 1_555 1_555
C8B C7B 1_555 1_555
H6B C8B 1_555 1_555
C9B H7B 1_555 1_555
C10B C6B 1_555 1_555
H8B C10B 1_555 1_555
N3B C1B 1_555 1_555
N4B Hg1 1_555 1_555
Hg1B N3B 1_555 1_555
I1B Hg1B 1_555 1_555
I2B Hg1B 1_555 1_555
N2F_2 Hg3 1_555 1_555
Hg1B_2 N4 1_555 1_555
Hg3_2 N2F 1_555 1_555
N4_2 Hg1B 1_555 1_555
C1 N3 1_555 1_555
C5 N3 1_555 1_555
C9 N4 1_555 1_555
C9 C10 1_555 1_555
C11 N1 1_555 1_555
C15 N1 1_555 1_555
C18 N2 1_555 1_555
C19 N2 1_555 1_555
C19 C20 1_555 1_555
C11F N1F 1_555 1_555
C15F N1F 1_555 1_555
C19F N2F 1_555 1_555
C19F C20F 1_555 1_555
C5B N3B 1_555 1_555
C8B N4B 1_555 1_555
C9B N4B 1_555 1_555
C9B C10B 1_555 1_555

#END
