
#######################################################################
#
#                 Cambridge Crystallographic Data Centre
#                                CCDC 
#
#######################################################################
#
# If this CIF has been generated from an entry in the Cambridge 
# Structural Database, then it will include bibliographic, chemical, 
# crystal, experimental, refinement or atomic coordinate data resulting 
# from the CCDC's data processing and validation procedures.
#
#######################################################################

data_UJOQIT01
_symmetry_cell_setting           monoclinic
_symmetry_space_group_name_H-M   'C 2/c'
_symmetry_Int_Tables_number      15
_space_group_name_Hall           '-C 2yn'
loop_
_symmetry_equiv_pos_site_id
_symmetry_equiv_pos_as_xyz
1 x,y,z
2 1/2+x,1/2+y,z
3 -x,y,1/2-z
4 1/2-x,1/2+y,1/2-z
5 -x,-y,-z
6 1/2-x,1/2-y,-z
7 x,-y,1/2+z
8 1/2+x,1/2-y,1/2+z
_cell_length_a                   16.789(3)
_cell_length_b                   5.5702(10)
_cell_length_c                   16.506(3)
_cell_angle_alpha                90
_cell_angle_beta                 118.724(4)
_cell_angle_gamma                90
_cell_volume                     1353.66
loop_
_atom_site_label
_atom_site_type_symbol
_atom_site_fract_x
_atom_site_fract_y
_atom_site_fract_z
Hg1 Hg 0.5000 0.5071(2) 0.7500
I1 I 0.41597(17) 0.6309(4) 0.84410(15)
N1 N 0.6094(12) 0.210(3) 0.8581(11)
C1 C 0.674(2) 0.108(7) 0.8433(19)
H1 H 0.6802 0.1599 0.7931
C2 C 0.729(2) -0.065(5) 0.897(2)
H2 H 0.7730 -0.1283 0.8837
C3 C 0.7236(13) -0.152(4) 0.9724(13)
C4 C 0.652(3) -0.055(6) 0.985(2)
H3 H 0.6433 -0.1132 1.0329
C5 C 0.594(2) 0.126(6) 0.928(2)
H4 H 0.5478 0.1871 0.9372
Hg1G Hg 1.0000 -1.0071(2) 1.2500
I1B I 0.58403(17) 0.6309(4) 0.65590(15)
N1E N 0.8906(12) -0.710(3) 1.1419(11)
N1B N 0.3906(12) 0.210(3) 0.6419(11)
C1E C 0.826(2) -0.608(7) 1.1567(19)
H1E H 0.8198 -0.6599 1.2069
C2E C 0.771(2) -0.435(5) 1.103(2)
H2E H 0.7270 -0.3717 1.1163
C3E C 0.7764(13) -0.348(4) 1.0276(13)
C4E C 0.848(3) -0.445(6) 1.015(2)
H3E H 0.8567 -0.3868 0.9671
C5E C 0.906(2) -0.626(6) 1.072(2)
H4E H 0.9522 -0.6871 1.0628
loop_
_geom_bond_atom_site_label_1
_geom_bond_atom_site_label_2
_geom_bond_site_symmetry_1
_geom_bond_site_symmetry_2
Hg1 I1 1_555 1_555
N1 Hg1 1_555 1_555
C1 N1 1_555 1_555
H1 C1 1_555 1_555
C2 C1 1_555 1_555
H2 C2 1_555 1_555
C3 C2 1_555 1_555
C4 C3 1_555 1_555
H3 C4 1_555 1_555
C5 N1 1_555 1_555
H4 C5 1_555 1_555
Hg1G N1E 1_555 1_555
I1B Hg1 1_555 1_555
N1E C1E 1_555 1_555
N1B Hg1 1_555 1_555
C1E H1E 1_555 1_555
C2E C1E 1_555 1_555
H2E C2E 1_555 1_555
C3E C3 1_555 1_555
C4E C3E 1_555 1_555
H3E C4E 1_555 1_555
C5E N1E 1_555 1_555
H4E C5E 1_555 1_555
C4 C5 1_555 1_555
C2E C3E 1_555 1_555
C4E C5E 1_555 1_555

#END
