
#######################################################################
#
#                 Cambridge Crystallographic Data Centre
#                                CCDC 
#
#######################################################################
#
# If this CIF has been generated from an entry in the Cambridge 
# Structural Database, then it will include bibliographic, chemical, 
# crystal, experimental, refinement or atomic coordinate data resulting 
# from the CCDC's data processing and validation procedures.
#
#######################################################################

data_UJOWEW
_symmetry_cell_setting           tetragonal
_symmetry_space_group_name_H-M   'I 41/a'
_symmetry_Int_Tables_number      88
_space_group_name_Hall           '-I 4ad'
loop_
_symmetry_equiv_pos_site_id
_symmetry_equiv_pos_as_xyz
1 x,y,z
2 3/4-y,1/4+x,1/4+z
3 1/2-x,-y,1/2+z
4 3/4+y,3/4-x,3/4+z
5 1/2+x,1/2+y,1/2+z
6 1/4-y,3/4+x,3/4+z
7 -x,1/2-y,z
8 1/4+y,1/4-x,1/4+z
9 -x,-y,-z
10 1/4+y,3/4-x,3/4-z
11 1/2+x,y,1/2-z
12 1/4-y,1/4+x,1/4-z
13 1/2-x,1/2-y,1/2-z
14 3/4+y,1/4-x,1/4-z
15 x,1/2+y,-z
16 3/4-y,3/4+x,3/4-z
_cell_length_a                   19.873(3)
_cell_length_b                   19.873(3)
_cell_length_c                   12.5477(16)
_cell_angle_alpha                90
_cell_angle_beta                 90
_cell_angle_gamma                90
_cell_volume                     4955.54
loop_
_atom_site_label
_atom_site_type_symbol
_atom_site_fract_x
_atom_site_fract_y
_atom_site_fract_z
W1 W 0.5000 0.7500 1.1250
Cu1 Cu 0.5000 0.5000 1.0000
N1 N 0.4708(3) 0.5438(3) 0.8216(5)
N2 N 0.3981(3) 0.4884(3) 1.0385(5)
N3 N 0.4972(3) 0.5917(3) 1.0538(5)
N4 N 0.5974(3) 0.7421(3) 0.9080(5)
C1 C 0.4973(3) 0.6472(3) 1.0796(5)
C2 C 0.3538(4) 0.5398(4) 1.0341(6)
H1 H 0.3702 0.5834 1.0169
C3 C 0.4582(4) 0.5209(4) 0.6355(7)
H2 H 0.4584 0.4886 0.5797
C4 C 0.4447(5) 0.5876(5) 0.6133(7)
H3 H 0.4363 0.6024 0.5425
C5 C 0.4439(5) 0.6320(5) 0.6979(8)
H4 H 0.4344 0.6783 0.6867
C6 C 0.4571(5) 0.6082(4) 0.7988(7)
H5 H 0.4564 0.6395 0.8560
C7 C 0.4712(4) 0.5016(4) 0.7384(6)
H6 H 0.4811 0.4555 0.7513
C8 C 0.5640(3) 0.7460(3) 0.9840(5)
C9 C 0.3725(4) 0.4272(4) 1.0637(6)
H7 H 0.4024 0.3900 1.0686
C10 C 0.3048(5) 0.4166(4) 1.0827(7)
H8 H 0.2888 0.3727 1.0989
C11 C 0.2616(5) 0.4691(5) 1.0781(8)
H9 H 0.2150 0.4627 1.0915
C12 C 0.2867(4) 0.5326(5) 1.0533(7)
H10 H 0.2574 0.5704 1.0497
Cu1F Cu 0.5000 1.0000 1.0000
Cu1G Cu 0.7500 0.7500 1.2500
Cu1A Cu 0.2500 0.7500 1.2500
N1H N 0.5292(3) 0.4562(3) 1.1784(5)
N1F N 0.5292(3) 0.9562(3) 0.8216(5)
N1N N 0.4708(3) 1.0438(3) 1.1784(5)
N2H N 0.6019(3) 0.5116(3) 0.9615(5)
N2F N 0.6019(3) 1.0116(3) 1.0385(5)
N2N N 0.3981(3) 0.9884(3) 0.9615(5)
N3F N 0.5028(3) 0.9083(3) 1.0538(5)
N3K N 0.6583(3) 0.7472(3) 1.1962(5)
N3M N 0.3417(3) 0.7528(3) 1.1962(5)
N3H N 0.5028(3) 0.4083(3) 0.9462(5)
N3N N 0.4972(3) 1.0917(3) 0.9462(5)
N4F N 0.4026(3) 0.7579(3) 0.9080(5)
N4K N 0.5079(3) 0.8474(3) 1.3420(5)
N4M N 0.4921(3) 0.6526(3) 1.3420(5)
C1F C 0.5027(3) 0.8528(3) 1.0796(5)
C1K C 0.6028(3) 0.7473(3) 1.1704(5)
C1M C 0.3972(3) 0.7527(3) 1.1704(5)
C2H C 0.6462(4) 0.4602(4) 0.9659(6)
C2F C 0.6462(4) 0.9602(4) 1.0341(6)
C2N C 0.3538(4) 1.0398(4) 0.9659(6)
H1H H 0.6298 0.4166 0.9831
H1F H 0.6298 0.9166 1.0169
H1N H 0.3702 1.0834 0.9831
C3H C 0.5418(4) 0.4791(4) 1.3645(7)
C3F C 0.5418(4) 0.9791(4) 0.6355(7)
C3N C 0.4582(4) 1.0209(4) 1.3645(7)
H2H H 0.5416 0.5114 1.4203
H2F H 0.5416 1.0114 0.5797
H2N H 0.4584 0.9886 1.4203
C4H C 0.5553(5) 0.4124(5) 1.3867(7)
C4F C 0.5553(5) 0.9124(5) 0.6133(7)
C4N C 0.4447(5) 1.0876(5) 1.3867(7)
H3H H 0.5637 0.3976 1.4575
H3F H 0.5637 0.8976 0.5425
H3N H 0.4363 1.1024 1.4575
C5H C 0.5561(5) 0.3680(5) 1.3021(8)
C5F C 0.5561(5) 0.8680(5) 0.6979(8)
C5N C 0.4439(5) 1.1320(5) 1.3021(8)
H4H H 0.5656 0.3217 1.3133
H4F H 0.5656 0.8217 0.6867
H4N H 0.4344 1.1783 1.3133
C6H C 0.5429(5) 0.3918(4) 1.2012(7)
C6F C 0.5429(5) 0.8918(4) 0.7988(7)
C6N C 0.4571(5) 1.1082(4) 1.2012(7)
H5H H 0.5436 0.3605 1.1440
H5F H 0.5436 0.8605 0.8560
H5N H 0.4564 1.1395 1.1440
C7H C 0.5288(4) 0.4984(4) 1.2616(6)
C7F C 0.5288(4) 0.9984(4) 0.7384(6)
C7N C 0.4712(4) 1.0016(4) 1.2616(6)
H6H H 0.5189 0.5445 1.2487
H6F H 0.5189 1.0445 0.7513
H6N H 0.4811 0.9555 1.2487
C8F C 0.4360(3) 0.7540(3) 0.9840(5)
C8K C 0.5040(3) 0.8140(3) 1.2660(5)
C8M C 0.4960(3) 0.6860(3) 1.2660(5)
C9H C 0.6275(4) 0.5728(4) 0.9363(6)
C9F C 0.6275(4) 1.0728(4) 1.0637(6)
C9N C 0.3725(4) 0.9272(4) 0.9363(6)
H7H H 0.5976 0.6100 0.9314
H7F H 0.5976 1.1100 1.0686
H7N H 0.4024 0.8900 0.9314
C10H C 0.6952(5) 0.5834(4) 0.9173(7)
C10F C 0.6952(5) 1.0834(4) 1.0827(7)
C10N C 0.3048(5) 0.9166(4) 0.9173(7)
H8H H 0.7112 0.6273 0.9011
H8F H 0.7112 1.1273 1.0989
H8N H 0.2888 0.8727 0.9011
C11H C 0.7384(5) 0.5309(5) 0.9219(8)
C11F C 0.7384(5) 1.0309(5) 1.0781(8)
C11N C 0.2616(5) 0.9691(5) 0.9219(8)
H9H H 0.7850 0.5373 0.9085
H9F H 0.7850 1.0373 1.0915
H9N H 0.2150 0.9627 0.9085
C12H C 0.7133(4) 0.4674(5) 0.9467(7)
C12F C 0.7133(4) 0.9674(5) 1.0533(7)
C12N C 0.2867(4) 1.0326(5) 0.9467(7)
H10H H 0.7426 0.4296 0.9503
H10F H 0.7426 0.9296 1.0497
H10N H 0.2574 1.0704 0.9503
loop_
_geom_bond_atom_site_label_1
_geom_bond_atom_site_label_2
_geom_bond_site_symmetry_1
_geom_bond_site_symmetry_2
W1 C1 1_555 1_555
Cu1 N1 1_555 1_555
N1 C6 1_555 1_555
N2 Cu1 1_555 1_555
N3 Cu1 1_555 1_555
N4 C8 1_555 1_555
C1 N3 1_555 1_555
C2 N2 1_555 1_555
H1 C2 1_555 1_555
C3 H2 1_555 1_555
C4 C3 1_555 1_555
H3 C4 1_555 1_555
C5 C4 1_555 1_555
H4 C5 1_555 1_555
C6 C5 1_555 1_555
H5 C6 1_555 1_555
C7 N1 1_555 1_555
H6 C7 1_555 1_555
C8 W1 1_555 1_555
C9 N2 1_555 1_555
H7 C9 1_555 1_555
C10 C9 1_555 1_555
H8 C10 1_555 1_555
C11 C10 1_555 1_555
H9 C11 1_555 1_555
C12 C2 1_555 1_555
H10 C12 1_555 1_555
Cu1F N1F 1_555 1_555
Cu1G N3K 1_555 1_555
Cu1A N3M 1_555 1_555
N1H Cu1 1_555 1_555
N1F C6F 1_555 1_555
N1N Cu1F 1_555 1_555
N2H Cu1 1_555 1_555
N2F Cu1F 1_555 1_555
N2N Cu1F 1_555 1_555
N3F Cu1F 1_555 1_555
N3K C1K 1_555 1_555
N3M C1M 1_555 1_555
N3H Cu1 1_555 1_555
N3N Cu1F 1_555 1_555
N4F C8F 1_555 1_555
N4K C8K 1_555 1_555
N4M C8M 1_555 1_555
C1F W1 1_555 1_555
C1K W1 1_555 1_555
C1M W1 1_555 1_555
C2H N2H 1_555 1_555
C2F N2F 1_555 1_555
C2N N2N 1_555 1_555
H1H C2H 1_555 1_555
H1F C2F 1_555 1_555
H1N C2N 1_555 1_555
C3H H2H 1_555 1_555
C3F H2F 1_555 1_555
C3N H2N 1_555 1_555
C4H C3H 1_555 1_555
C4F C3F 1_555 1_555
C4N C3N 1_555 1_555
H3H C4H 1_555 1_555
H3F C4F 1_555 1_555
H3N C4N 1_555 1_555
C5H C4H 1_555 1_555
C5F C4F 1_555 1_555
C5N C4N 1_555 1_555
H4H C5H 1_555 1_555
H4F C5F 1_555 1_555
H4N C5N 1_555 1_555
C6H N1H 1_555 1_555
C6F C5F 1_555 1_555
C6N N1N 1_555 1_555
H5H C6H 1_555 1_555
H5F C6F 1_555 1_555
H5N C6N 1_555 1_555
C7H N1H 1_555 1_555
C7F N1F 1_555 1_555
C7N N1N 1_555 1_555
H6H C7H 1_555 1_555
H6F C7F 1_555 1_555
H6N C7N 1_555 1_555
C8F W1 1_555 1_555
C8K W1 1_555 1_555
C8M W1 1_555 1_555
C9H N2H 1_555 1_555
C9F N2F 1_555 1_555
C9N N2N 1_555 1_555
H7H C9H 1_555 1_555
H7F C9F 1_555 1_555
H7N C9N 1_555 1_555
C10H C9H 1_555 1_555
C10F C9F 1_555 1_555
C10N C9N 1_555 1_555
H8H C10H 1_555 1_555
H8F C10F 1_555 1_555
H8N C10N 1_555 1_555
C11H C10H 1_555 1_555
C11F C10F 1_555 1_555
C11N C10N 1_555 1_555
H9H C11H 1_555 1_555
H9F C11F 1_555 1_555
H9N C11N 1_555 1_555
C12H C2H 1_555 1_555
C12F C2F 1_555 1_555
C12N C2N 1_555 1_555
H10H C12H 1_555 1_555
H10F C12F 1_555 1_555
H10N C12N 1_555 1_555
C3 C7 1_555 1_555
C11 C12 1_555 1_555
N3F C1F 1_555 1_555
C3H C7H 1_555 1_555
C3F C7F 1_555 1_555
C3N C7N 1_555 1_555
C5H C6H 1_555 1_555
C5N C6N 1_555 1_555
C11H C12H 1_555 1_555
C11F C12F 1_555 1_555
C11N C12N 1_555 1_555

#END
