
#######################################################################
#
#                 Cambridge Crystallographic Data Centre
#                                CCDC 
#
#######################################################################
#
# If this CIF has been generated from an entry in the Cambridge 
# Structural Database, then it will include bibliographic, chemical, 
# crystal, experimental, refinement or atomic coordinate data resulting 
# from the CCDC's data processing and validation procedures.
#
#######################################################################

data_UJUBEG
_symmetry_cell_setting           monoclinic
_symmetry_space_group_name_H-M   'C 2/m'
_symmetry_Int_Tables_number      12
_space_group_name_Hall           '-C 2y'
loop_
_symmetry_equiv_pos_site_id
_symmetry_equiv_pos_as_xyz
1 x,y,z
2 1/2+x,1/2+y,z
3 x,-y,z
4 1/2+x,1/2-y,z
5 -x,-y,-z
6 1/2-x,1/2-y,-z
7 -x,y,-z
8 1/2-x,1/2+y,-z
_cell_length_a                   11.3572(4)
_cell_length_b                   18.1700(8)
_cell_length_c                   7.1855(3)
_cell_angle_alpha                90
_cell_angle_beta                 119.577(2)
_cell_angle_gamma                90
_cell_volume                     1289.58
loop_
_atom_site_label
_atom_site_type_symbol
_atom_site_fract_x
_atom_site_fract_y
_atom_site_fract_z
U1 U 0.0000 0.11045(3) 0.5000
F1 F 0.1226(8) 0.00000 0.6237(18)
O1 O 0.1358(7) 0.2256(4) 0.6311(15)
O2 O 0.0130(8) 0.1109(4) 0.2633(14)
O3 O 0.2509(8) 0.1224(4) 0.7193(15)
C1 C 0.2489(10) 0.1919(5) 0.732(2)
C2 C 0.3761(10) 0.2348(6) 0.869(2)
C3 C 0.5000 0.1904(9) 1.0000
H1 H 0.4839 0.1582 1.0965
H2 H 0.5161 0.1582 0.9035
H3 H 0.360(12) 0.272(7) 0.77(2)
H4 H 0.370(14) 0.260(7) 0.99(3)
U1B U 0.0000 -0.11045(3) 0.5000
F1F F -0.1226(8) 0.00000 0.3763(18)
O1F O -0.1358(7) 0.2256(4) 0.3689(15)
O3F O -0.2509(8) 0.1224(4) 0.2807(15)
O2F O -0.0130(8) 0.1109(4) 0.7367(14)
C2F C 0.6239(10) 0.2348(6) 1.131(2)
C1F C 0.7511(10) 0.1919(5) 1.268(2)
H3F H 0.640(12) 0.272(7) 1.23(2)
H4F H 0.630(14) 0.260(7) 1.01(3)
O1F_2 O 0.8642(7) 0.2256(4) 1.3689(15)
O3F_2 O 0.7491(8) 0.1224(4) 1.2807(15)
U1_2 U 1.0000 0.11045(3) 1.5000
O4 O 0.4113(11) 0.00000 0.727(2)
O5 O 0.691(3) 0.00000 0.852(9)
loop_
_geom_bond_atom_site_label_1
_geom_bond_atom_site_label_2
_geom_bond_site_symmetry_1
_geom_bond_site_symmetry_2
U1 F1 1_555 1_555
F1 U1B 1_555 1_555
O1 U1 1_555 1_555
O2 U1 1_555 1_555
O3 U1 1_555 1_555
C1 O1 1_555 1_555
C2 C1 1_555 1_555
C3 C2 1_555 1_555
H1 C3 1_555 1_555
H2 C3 1_555 1_555
H3 C2 1_555 1_555
H4 C2 1_555 1_555
U1B F1F 1_555 1_555
F1F U1 1_555 1_555
O1F U1 1_555 1_555
O3F U1 1_555 1_555
O2F U1 1_555 1_555
C2F C3 1_555 1_555
C1F C2F 1_555 1_555
H3F C2F 1_555 1_555
H4F C2F 1_555 1_555
O1F_2 C1F 1_555 1_555
O3F_2 C1F 1_555 1_555
U1_2 O1F_2 1_555 1_555
O3 C1 1_555 1_555
O3F_2 U1_2 1_555 1_555

#END
