
#######################################################################
#
#                 Cambridge Crystallographic Data Centre
#                                CCDC 
#
#######################################################################
#
# If this CIF has been generated from an entry in the Cambridge 
# Structural Database, then it will include bibliographic, chemical, 
# crystal, experimental, refinement or atomic coordinate data resulting 
# from the CCDC's data processing and validation procedures.
#
#######################################################################

data_UJUBOR
_symmetry_cell_setting           monoclinic
_symmetry_space_group_name_H-M   'C 2/c'
_symmetry_Int_Tables_number      15
_space_group_name_Hall           '-C 2yn'
loop_
_symmetry_equiv_pos_site_id
_symmetry_equiv_pos_as_xyz
1 x,y,z
2 -x,y,1/2-z
3 1/2+x,1/2+y,z
4 1/2-x,1/2+y,1/2-z
5 -x,-y,-z
6 x,-y,1/2+z
7 1/2-x,1/2-y,-z
8 1/2+x,1/2-y,1/2+z
_cell_length_a                   20.7624(7)
_cell_length_b                   11.4376(4)
_cell_length_c                   16.7341(6)
_cell_angle_alpha                90
_cell_angle_beta                 102.662(1)
_cell_angle_gamma                90
_cell_volume                     3877.24
loop_
_atom_site_label
_atom_site_type_symbol
_atom_site_fract_x
_atom_site_fract_y
_atom_site_fract_z
O1 O 0.0474(3) 0.3441(5) 0.8889(4)
H1 H 0.0101 0.3108 0.8740
H2 H 0.0569 0.3809 0.9341
Mo1 Mo 1.07907(3) -0.10755(4) 0.21859(3)
Mo2 Mo 1.0000 0.34939(6) 0.2500
Mo3 Mo 1.09799(3) 0.17059(5) 0.16452(3)
Cu1 Cu 0.88888(4) 0.23945(6) -0.02636(5)
P1 P 0.93872(7) 0.09153(13) 0.14721(9)
Mg1 Mg 1.0000 0.0000 0.0000
O2 O 1.0000 -0.1584(5) 0.2500
O3 O 1.01397(18) 0.0613(3) 0.1686(2)
O4 O 0.9664(2) 0.2972(4) 0.3407(3)
O5 O 0.90326(19) -0.0189(3) 0.1641(2)
O6 O 0.9204(2) 0.1256(4) 0.0576(3)
O7 O 1.13553(19) 0.0231(3) 0.2027(2)
O8 O 1.0585(2) -0.1488(4) 0.1164(3)
O9 O 1.0900(2) 0.1575(4) 0.0611(3)
O10 O 1.1691(2) 0.2485(4) 0.1991(3)
O11 O 1.0602(2) 0.4409(4) 0.3005(3)
O12 O 0.9244(2) 0.1936(4) 0.2026(2)
N1 N 0.8005(3) 0.1646(4) -0.0555(3)
O13 O 0.9660(2) 0.3443(4) 0.0056(3)
H3 H 0.9849 0.3307 0.0530
O14 O 1.1353(2) -0.2099(4) 0.2597(3)
N2 N 0.8435(3) 0.3586(4) -0.1047(3)
C1 C 0.7558(3) 0.2262(6) -0.1069(4)
C2 C 0.7798(3) 0.3343(5) -0.1353(4)
N3 N 0.6965(3) 0.1737(5) -0.1223(3)
H4 H 0.6607 0.1988 -0.1539
N4 N 0.7519(3) 0.4179(5) -0.1867(4)
H5 H 0.7112 0.4208 -0.2125
C3 C 0.8566(4) 0.4606(6) -0.1399(5)
H6 H 0.8973 0.4981 -0.1306
C4 C 0.7683(4) 0.0668(7) -0.0371(5)
H7 H 0.7871 0.0065 -0.0025
C5 C 0.8002(4) 0.4988(7) -0.1908(5)
H8 H 0.7953 0.5664 -0.2224
C6 C 0.7042(4) 0.0727(7) -0.0780(5)
H9 H 0.6715 0.0179 -0.0760
Mo1A Mo 0.92093(3) -0.10755(4) 0.28141(3)
Mo3A Mo 0.90201(3) 0.17059(5) 0.33548(3)
Cu1A Cu 1.11112(4) 0.23945(6) 0.52636(5)
Cu1D Cu 1.11112(4) -0.23945(6) 0.02636(5)
Cu1E Cu 0.88888(4) -0.23945(6) 0.47364(5)
P1A P 1.06128(7) 0.09153(13) 0.35279(9)
Mg1A Mg 1.0000 0.0000 0.5000
O3A O 0.98603(18) 0.0613(3) 0.3314(2)
O4A O 1.0336(2) 0.2972(4) 0.1593(3)
O5A O 1.09674(19) -0.0189(3) 0.3359(2)
O6A O 1.0796(2) 0.1256(4) 0.4424(3)
O6D O 1.0796(2) -0.1256(4) -0.0576(3)
O7A O 0.86447(19) 0.0231(3) 0.2973(2)
O8D O 0.9415(2) 0.1488(4) -0.1164(3)
O8A O 0.9415(2) -0.1488(4) 0.3836(3)
O8E O 1.0585(2) 0.1488(4) 0.6164(3)
O9D O 0.9100(2) -0.1575(4) -0.0611(3)
O9A O 0.9100(2) 0.1575(4) 0.4389(3)
O10A O 0.8309(2) 0.2485(4) 0.3009(3)
O11A O 0.9398(2) 0.4409(4) 0.1995(3)
O12A O 1.0756(2) 0.1936(4) 0.2974(2)
N1A N 1.1995(3) 0.1646(4) 0.5555(3)
O13A O 1.0340(2) 0.3443(4) 0.4944(3)
H3A H 1.0151 0.3307 0.4470
O14A O 0.8647(2) -0.2099(4) 0.2403(3)
N2A N 1.1565(3) 0.3586(4) 0.6047(3)
C1A C 1.2442(3) 0.2262(6) 0.6069(4)
C2A C 1.2202(3) 0.3343(5) 0.6353(4)
N3A N 1.3035(3) 0.1737(5) 0.6223(3)
H4A H 1.3393 0.1988 0.6539
N4A N 1.2481(3) 0.4179(5) 0.6867(4)
H5A H 1.2888 0.4208 0.7125
C3A C 1.1434(4) 0.4606(6) 0.6399(5)
H6A H 1.1027 0.4981 0.6306
C4A C 1.2317(4) 0.0668(7) 0.5371(5)
H7A H 1.2129 0.0065 0.5025
C5A C 1.1998(4) 0.4988(7) 0.6908(5)
H8A H 1.2047 0.5664 0.7224
C6A C 1.2958(4) 0.0727(7) 0.5780(5)
H9A H 1.3285 0.0179 0.5760
O15 O 0.7815(8) 0.7594(10) 0.0564(8)
O16? O 0.7088(6) 0.7615(11) 0.0227(11)
loop_
_geom_bond_atom_site_label_1
_geom_bond_atom_site_label_2
_geom_bond_site_symmetry_1
_geom_bond_site_symmetry_2
O1 H1 1_555 1_555
H2 O1 1_555 1_555
Mo1 O2 1_555 1_555
Mo2 O4 1_555 1_555
Mo3 O3 1_555 1_555
Cu1 O6 1_555 1_555
P1 O3 1_555 1_555
Mg1 O6 1_555 1_555
O2 Mo1A 1_555 1_555
O3 Mo1 1_555 1_555
O4 Mo3A 1_555 1_555
O5 P1 1_555 1_555
O6 P1 1_555 1_555
O7 Mo1 1_555 1_555
O8 Mo1 1_555 1_555
O9 Mo3 1_555 1_555
O10 Mo3 1_555 1_555
O11 Mo2 1_555 1_555
O12 Mo2 1_555 1_555
N1 Cu1 1_555 1_555
O13 Cu1 1_555 1_555
H3 O13 1_555 1_555
O14 Mo1 1_555 1_555
N2 Cu1 1_555 1_555
C1 N1 1_555 1_555
C2 N2 1_555 1_555
N3 C1 1_555 1_555
H4 N3 1_555 1_555
N4 C2 1_555 1_555
H5 N4 1_555 1_555
C3 N2 1_555 1_555
H6 C3 1_555 1_555
C4 N1 1_555 1_555
H7 C4 1_555 1_555
C5 N4 1_555 1_555
H8 C5 1_555 1_555
C6 N3 1_555 1_555
H9 C6 1_555 1_555
Mo1A O5 1_555 1_555
Mo3A O12 1_555 1_555
Cu1A O6A 1_555 1_555
Cu1D O8 1_555 1_555
Cu1E O8A 1_555 1_555
P1A O3A 1_555 1_555
Mg1A O6A 1_555 1_555
O3A Mo1A 1_555 1_555
O4A Mo2 1_555 1_555
O5A Mo1 1_555 1_555
O6A P1A 1_555 1_555
O6D Mg1 1_555 1_555
O7A Mo1A 1_555 1_555
O8D Cu1 1_555 1_555
O8A Mo1A 1_555 1_555
O8E Cu1A 1_555 1_555
O9D Mg1 1_555 1_555
O9A Mo3A 1_555 1_555
O10A Mo3A 1_555 1_555
O11A Mo2 1_555 1_555
O12A Mo2 1_555 1_555
N1A Cu1A 1_555 1_555
O13A Cu1A 1_555 1_555
H3A O13A 1_555 1_555
O14A Mo1A 1_555 1_555
N2A Cu1A 1_555 1_555
C1A N1A 1_555 1_555
C2A N2A 1_555 1_555
N3A C1A 1_555 1_555
H4A N3A 1_555 1_555
N4A C2A 1_555 1_555
H5A N4A 1_555 1_555
C3A N2A 1_555 1_555
H6A C3A 1_555 1_555
C4A N1A 1_555 1_555
H7A C4A 1_555 1_555
C5A N4A 1_555 1_555
H8A C5A 1_555 1_555
C6A N3A 1_555 1_555
H9A C6A 1_555 1_555
Mo3 O7 1_555 1_555
Mo3 O4A 1_555 1_555
Mo3 O12A 1_555 1_555
P1 O12 1_555 1_555
Mg1 O8 1_555 1_555
Mg1 O9 1_555 1_555
Mg1 O8D 1_555 1_555
C1 C2 1_555 1_555
C3 C5 1_555 1_555
C4 C6 1_555 1_555
Mo3A O3A 1_555 1_555
Mo3A O7A 1_555 1_555
Cu1D O6D 1_555 1_555
P1A O5A 1_555 1_555
P1A O12A 1_555 1_555
Mg1A O8A 1_555 1_555
Mg1A O8E 1_555 1_555
Mg1A O9A 1_555 1_555
C1A C2A 1_555 1_555
C3A C5A 1_555 1_555
C4A C6A 1_555 1_555

#END
