
#######################################################################
#
#                 Cambridge Crystallographic Data Centre
#                                CCDC 
#
#######################################################################
#
# If this CIF has been generated from an entry in the Cambridge 
# Structural Database, then it will include bibliographic, chemical, 
# crystal, experimental, refinement or atomic coordinate data resulting 
# from the CCDC's data processing and validation procedures.
#
#######################################################################

data_UJUDOS
_symmetry_cell_setting           triclinic
_symmetry_space_group_name_H-M   'P -1'
_symmetry_Int_Tables_number      2
_space_group_name_Hall           '-P 1'
loop_
_symmetry_equiv_pos_site_id
_symmetry_equiv_pos_as_xyz
1 x,y,z
2 -x,-y,-z
_cell_length_a                   8.3879(4)
_cell_length_b                   9.4463(5)
_cell_length_c                   10.2969(5)
_cell_angle_alpha                63.8090(10)
_cell_angle_beta                 72.4370(10)
_cell_angle_gamma                68.3760(10)
_cell_volume                     671.05
loop_
_atom_site_label
_atom_site_type_symbol
_atom_site_fract_x
_atom_site_fract_y
_atom_site_fract_z
Mn1 Mn 0.40514(3) 0.63396(3) 0.13230(2)
S1 S 0.44638(5) 0.25250(5) 0.20306(4)
O1 O 0.26028(15) 0.30084(16) 0.25589(14)
O2 O 0.52153(16) 0.39353(15) 0.15849(15)
O3 O 0.54171(16) 0.10921(15) 0.31089(13)
O4 O 0.52210(15) 0.77839(14) -0.06454(12)
C1 C 0.0762(2) 0.6823(2) 0.01129(18)
C2 C -0.0891(2) 0.7523(2) -0.02480(18)
C3 C -0.2069(2) 0.86284(19) 0.03878(17)
C4 C -0.1561(2) 0.89706(19) 0.13563(16)
C5 C 0.01248(19) 0.82090(18) 0.16592(16)
C6 C 0.07986(19) 0.84901(18) 0.26810(16)
C7 C -0.0241(2) 0.93363(19) 0.35975(17)
C8 C 0.05318(19) 0.95569(18) 0.44993(16)
C9 C 0.23286(19) 0.88924(19) 0.44591(17)
C10 C 0.32650(19) 0.79860(18) 0.35745(16)
C11 C 0.51136(19) 0.70215(18) 0.36198(16)
C12 C 0.6103(2) 0.70105(19) 0.44930(17)
C13 C 0.7771(2) 0.5952(2) 0.45598(17)
C14 C 0.8416(2) 0.4947(2) 0.37524(17)
C15 C 0.7344(2) 0.5043(2) 0.29053(17)
H1 H 0.161(3) 0.607(2) -0.029(2)
H2 H -0.115(3) 0.722(3) -0.092(2)
H3 H -0.316(3) 0.913(3) 0.010(2)
H4 H -0.233(3) 0.970(3) 0.177(2)
H5 H -0.135(3) 0.972(3) 0.361(2)
H6 H 0.293(3) 0.898(2) 0.507(2)
H7 H 0.572(3) 0.761(3) 0.507(2)
H8 H 0.837(3) 0.592(3) 0.519(3)
H9 H 0.953(3) 0.420(2) 0.375(2)
H10 H 0.766(3) 0.442(3) 0.239(2)
N1 N 0.12868(17) 0.71529(17) 0.10312(14)
N2 N 0.25138(16) 0.78150(16) 0.26933(14)
N3 N 0.57323(17) 0.60554(16) 0.28278(14)
O4A O 0.47790(15) 0.22161(14) 0.06454(12)
Mn1A Mn 0.59486(3) 0.36604(3) -0.13230(2)
O2A O 0.47847(16) 0.60647(15) -0.15849(15)
S1A S 0.55362(5) 0.74750(5) -0.20306(4)
O1A O 0.73972(15) 0.69916(16) -0.25589(14)
O3A O 0.45829(16) 0.89079(15) -0.31089(13)
C8A C -0.05318(19) 1.04431(18) 0.55007(16)
C7A C 0.0241(2) 1.06637(19) 0.64025(17)
C6A C -0.07986(19) 1.15099(18) 0.73190(16)
C5A C -0.01248(19) 1.17910(18) 0.83408(16)
C4A C 0.1561(2) 1.10294(19) 0.86437(16)
C3A C 0.2069(2) 1.13716(19) 0.96122(17)
C2A C 0.0891(2) 1.2477(2) 1.02480(18)
C1A C -0.0762(2) 1.3177(2) 0.98871(18)
H1A H -0.161(3) 1.393(2) 1.029(2)
N1A N -0.12868(17) 1.28471(17) 0.89688(14)
Mn1A_2 Mn -0.40514(3) 1.36604(3) 0.86770(2)
O2A_2 O -0.52153(16) 1.60647(15) 0.84151(15)
O4A_2 O -0.52210(15) 1.22161(14) 1.06454(12)
N2A N -0.25138(16) 1.21850(16) 0.73067(14)
C10A C -0.32650(19) 1.20140(18) 0.64255(16)
C9A C -0.23286(19) 1.11076(19) 0.55409(17)
H6A H -0.293(3) 1.102(2) 0.493(2)
C11A C -0.51136(19) 1.29785(18) 0.63802(16)
C12A C -0.6103(2) 1.29895(19) 0.55070(17)
C13A C -0.7771(2) 1.4048(2) 0.54402(17)
C14A C -0.8416(2) 1.5053(2) 0.62476(17)
C15A C -0.7344(2) 1.4957(2) 0.70947(17)
H10A H -0.766(3) 1.558(3) 0.761(2)
N3A N -0.57323(17) 1.39446(16) 0.71722(14)
H9A H -0.953(3) 1.580(2) 0.625(2)
H8A H -0.837(3) 1.408(3) 0.481(3)
H7A H -0.572(3) 1.239(3) 0.493(2)
H2A H 0.115(3) 1.278(3) 1.092(2)
H3A H 0.316(3) 1.087(3) 0.990(2)
H4A H 0.233(3) 1.030(3) 0.823(2)
H5A H 0.135(3) 1.028(3) 0.639(2)
loop_
_geom_bond_atom_site_label_1
_geom_bond_atom_site_label_2
_geom_bond_site_symmetry_1
_geom_bond_site_symmetry_2
Mn1 O2 1_555 1_555
S1 O1 1_555 1_555
O2 S1 1_555 1_555
O3 S1 1_555 1_555
O4 Mn1 1_555 1_555
C1 C2 1_555 1_555
C2 C3 1_555 1_555
C3 C4 1_555 1_555
C4 C5 1_555 1_555
C5 C6 1_555 1_555
C6 C7 1_555 1_555
C7 C8 1_555 1_555
C8 C9 1_555 1_555
C9 C10 1_555 1_555
C10 C11 1_555 1_555
C11 C12 1_555 1_555
C12 C13 1_555 1_555
C13 C14 1_555 1_555
C14 C15 1_555 1_555
C15 H10 1_555 1_555
H1 C1 1_555 1_555
H2 C2 1_555 1_555
H3 C3 1_555 1_555
H4 C4 1_555 1_555
H5 C7 1_555 1_555
H6 C9 1_555 1_555
H7 C12 1_555 1_555
H8 C13 1_555 1_555
H9 C14 1_555 1_555
N1 Mn1 1_555 1_555
N2 Mn1 1_555 1_555
N3 Mn1 1_555 1_555
O4A S1 1_555 1_555
Mn1A O4A 1_555 1_555
O2A Mn1A 1_555 1_555
S1A O4 1_555 1_555
O1A S1A 1_555 1_555
O3A S1A 1_555 1_555
C8A C8 1_555 1_555
C7A C8A 1_555 1_555
C6A C7A 1_555 1_555
C5A C6A 1_555 1_555
C4A C5A 1_555 1_555
C3A C4A 1_555 1_555
C2A C3A 1_555 1_555
C1A C2A 1_555 1_555
H1A C1A 1_555 1_555
N1A C5A 1_555 1_555
Mn1A_2 N1A 1_555 1_555
O2A_2 Mn1A_2 1_555 1_555
O4A_2 Mn1A_2 1_555 1_555
N2A C6A 1_555 1_555
C10A N2A 1_555 1_555
C9A C8A 1_555 1_555
H6A C9A 1_555 1_555
C11A C10A 1_555 1_555
C12A C11A 1_555 1_555
C13A C12A 1_555 1_555
C14A C13A 1_555 1_555
C15A C14A 1_555 1_555
H10A C15A 1_555 1_555
N3A Mn1A_2 1_555 1_555
H9A C14A 1_555 1_555
H8A C13A 1_555 1_555
H7A C12A 1_555 1_555
H2A C2A 1_555 1_555
H3A C3A 1_555 1_555
H4A C4A 1_555 1_555
H5A C7A 1_555 1_555
C1 N1 1_555 1_555
C5 N1 1_555 1_555
C6 N2 1_555 1_555
C10 N2 1_555 1_555
C11 N3 1_555 1_555
C15 N3 1_555 1_555
O2A S1A 1_555 1_555
C1A N1A 1_555 1_555
Mn1A_2 N2A 1_555 1_555
C10A C9A 1_555 1_555
C11A N3A 1_555 1_555
C15A N3A 1_555 1_555

#END
