
#######################################################################
#
#                 Cambridge Crystallographic Data Centre
#                                CCDC 
#
#######################################################################
#
# If this CIF has been generated from an entry in the Cambridge 
# Structural Database, then it will include bibliographic, chemical, 
# crystal, experimental, refinement or atomic coordinate data resulting 
# from the CCDC's data processing and validation procedures.
#
#######################################################################

data_UJUFEK
_symmetry_cell_setting           triclinic
_symmetry_space_group_name_H-M   'P -1'
_symmetry_Int_Tables_number      2
_space_group_name_Hall           '-P 1'
loop_
_symmetry_equiv_pos_site_id
_symmetry_equiv_pos_as_xyz
1 x,y,z
2 -x,-y,-z
_cell_length_a                   8.2758(7)
_cell_length_b                   9.6097(8)
_cell_length_c                   10.4723(8)
_cell_angle_alpha                63.6230(10)
_cell_angle_beta                 72.001(2)
_cell_angle_gamma                69.0950(10)
_cell_volume                     685.66
loop_
_atom_site_label
_atom_site_type_symbol
_atom_site_fract_x
_atom_site_fract_y
_atom_site_fract_z
Cu1 Cu 0.88844(3) 0.14184(3) 0.67580(3)
Mo1 Mo 1.06323(2) 0.24681(2) 0.30125(2)
O1 O 1.0106(2) 0.2795(2) 0.46518(18)
O2 O 1.2850(2) 0.2340(2) 0.22677(19)
O3 O 0.9340(2) 0.4066(2) 0.17878(18)
O4 O 0.9861(2) -0.06407(19) 0.66325(19)
C1 C 0.6118(3) 0.1699(3) 0.5256(2)
C2 C 0.4498(3) 0.2360(3) 0.4812(3)
C3 C 0.3218(3) 0.3466(3) 0.5364(3)
C4 C 0.3594(3) 0.3881(3) 0.6334(2)
C5 C 0.5247(3) 0.3176(3) 0.6720(2)
C6 C 0.5829(3) 0.3525(2) 0.7722(2)
C7 C 0.4778(3) 0.4360(3) 0.8607(2)
C8 C 0.5542(3) 0.4567(2) 0.9512(2)
C9 C 0.7347(3) 0.3905(3) 0.9505(2)
C10 C 0.8305(3) 0.3035(3) 0.8635(2)
C11 C 1.0142(3) 0.2053(3) 0.8665(2)
C12 C 1.1217(3) 0.2021(3) 0.9469(2)
C13 C 1.2863(3) 0.0931(3) 0.9514(3)
C14 C 1.3401(3) -0.0063(3) 0.8732(3)
C15 C 1.2253(3) 0.0065(3) 0.7937(2)
N1 N 0.6485(2) 0.2096(2) 0.6193(2)
N2 N 0.7551(2) 0.2889(2) 0.77501(19)
N3 N 1.0660(2) 0.1090(2) 0.7903(2)
H1 H 0.704(4) 0.102(3) 0.488(3)
H2 H 0.434(4) 0.197(4) 0.425(3)
H3 H 0.213(5) 0.397(4) 0.515(4)
H4 H 0.275(4) 0.461(3) 0.665(3)
H5 H 0.360(4) 0.477(3) 0.859(3)
H6 H 0.792(4) 0.392(4) 1.010(3)
H7 H 1.081(4) 0.280(4) 0.994(3)
H8 H 1.355(4) 0.097(3) 1.005(3)
H9 H 1.447(4) -0.075(4) 0.864(3)
H10 H 1.254(4) -0.051(3) 0.738(3)
O4A O 1.0139(2) 0.06407(19) 0.33675(19)
Cu1A Cu 1.11156(3) -0.14184(3) 0.32420(3)
O1A O 0.9894(2) -0.2795(2) 0.53482(18)
Mo1A Mo 0.93677(2) -0.24681(2) 0.69875(2)
O2A O 0.7150(2) -0.2340(2) 0.77323(19)
O3A O 1.0660(2) -0.4066(2) 0.82122(18)
C8A C 0.4458(3) 0.5433(2) 1.0488(2)
C7A C 0.5222(3) 0.5640(3) 1.1393(2)
C6A C 0.4171(3) 0.6475(2) 1.2278(2)
C5A C 0.4753(3) 0.6824(3) 1.3280(2)
C4A C 0.6406(3) 0.6119(3) 1.3666(2)
C3A C 0.6782(3) 0.6534(3) 1.4636(3)
C2A C 0.5502(3) 0.7640(3) 1.5188(3)
C1A C 0.3882(3) 0.8301(3) 1.4744(2)
N1A N 0.3515(2) 0.7904(2) 1.3807(2)
Cu1A_2 Cu 0.11156(3) 0.85816(3) 1.32420(3)
O1A_2 O -0.0106(2) 0.7205(2) 1.53482(18)
O4A_2 O 0.0139(2) 1.06407(19) 1.33675(19)
N2A N 0.2449(2) 0.7111(2) 1.22499(19)
C10A C 0.1695(3) 0.6965(3) 1.1365(2)
C9A C 0.2653(3) 0.6095(3) 1.0495(2)
H6A H 0.208(4) 0.608(4) 0.990(3)
C11A C -0.0142(3) 0.7947(3) 1.1335(2)
C12A C -0.1217(3) 0.7979(3) 1.0531(2)
C13A C -0.2863(3) 0.9069(3) 1.0486(3)
C14A C -0.3401(3) 1.0063(3) 1.1268(3)
C15A C -0.2253(3) 0.9935(3) 1.2063(2)
N3A N -0.0660(2) 0.8910(2) 1.2097(2)
H10A H -0.254(4) 1.051(3) 1.262(3)
H9A H -0.447(4) 1.075(4) 1.136(3)
H8A H -0.355(4) 0.903(3) 0.995(3)
H7A H -0.081(4) 0.720(4) 1.006(3)
H1A H 0.296(4) 0.898(3) 1.512(3)
H2A H 0.566(4) 0.803(4) 1.575(3)
H3A H 0.787(5) 0.603(4) 1.485(4)
H4A H 0.725(4) 0.539(3) 1.335(3)
H5A H 0.640(4) 0.523(3) 1.141(3)
loop_
_geom_bond_atom_site_label_1
_geom_bond_atom_site_label_2
_geom_bond_site_symmetry_1
_geom_bond_site_symmetry_2
Cu1 O1 1_555 1_555
Mo1 O1 1_555 1_555
O2 Mo1 1_555 1_555
O3 Mo1 1_555 1_555
O4 Cu1 1_555 1_555
C1 C2 1_555 1_555
C2 C3 1_555 1_555
C3 C4 1_555 1_555
C4 C5 1_555 1_555
C5 C6 1_555 1_555
C6 C7 1_555 1_555
C7 C8 1_555 1_555
C8 C9 1_555 1_555
C9 C10 1_555 1_555
C10 C11 1_555 1_555
C11 C12 1_555 1_555
C12 C13 1_555 1_555
C13 C14 1_555 1_555
C14 C15 1_555 1_555
C15 N3 1_555 1_555
N1 Cu1 1_555 1_555
N2 Cu1 1_555 1_555
N3 Cu1 1_555 1_555
H1 C1 1_555 1_555
H2 C2 1_555 1_555
H3 C3 1_555 1_555
H4 C4 1_555 1_555
H5 C7 1_555 1_555
H6 C9 1_555 1_555
H7 C12 1_555 1_555
H8 C13 1_555 1_555
H9 C14 1_555 1_555
H10 C15 1_555 1_555
O4A Mo1 1_555 1_555
Cu1A O4A 1_555 1_555
O1A Cu1A 1_555 1_555
Mo1A O4 1_555 1_555
O2A Mo1A 1_555 1_555
O3A Mo1A 1_555 1_555
C8A C8 1_555 1_555
C7A C8A 1_555 1_555
C6A C7A 1_555 1_555
C5A C6A 1_555 1_555
C4A C5A 1_555 1_555
C3A C4A 1_555 1_555
C2A C3A 1_555 1_555
C1A C2A 1_555 1_555
N1A C5A 1_555 1_555
Cu1A_2 N1A 1_555 1_555
O1A_2 Cu1A_2 1_555 1_555
O4A_2 Cu1A_2 1_555 1_555
N2A C6A 1_555 1_555
C10A N2A 1_555 1_555
C9A C8A 1_555 1_555
H6A C9A 1_555 1_555
C11A C10A 1_555 1_555
C12A C11A 1_555 1_555
C13A C12A 1_555 1_555
C14A C13A 1_555 1_555
C15A C14A 1_555 1_555
N3A Cu1A_2 1_555 1_555
H10A C15A 1_555 1_555
H9A C14A 1_555 1_555
H8A C13A 1_555 1_555
H7A C12A 1_555 1_555
H1A C1A 1_555 1_555
H2A C2A 1_555 1_555
H3A C3A 1_555 1_555
H4A C4A 1_555 1_555
H5A C7A 1_555 1_555
C1 N1 1_555 1_555
C5 N1 1_555 1_555
C6 N2 1_555 1_555
C10 N2 1_555 1_555
C11 N3 1_555 1_555
O1A Mo1A 1_555 1_555
C1A N1A 1_555 1_555
Cu1A_2 N2A 1_555 1_555
C10A C9A 1_555 1_555
C11A N3A 1_555 1_555
C15A N3A 1_555 1_555

#END
