
#######################################################################
#
#                 Cambridge Crystallographic Data Centre
#                                CCDC 
#
#######################################################################
#
# If this CIF has been generated from an entry in the Cambridge 
# Structural Database, then it will include bibliographic, chemical, 
# crystal, experimental, refinement or atomic coordinate data resulting 
# from the CCDC's data processing and validation procedures.
#
#######################################################################

data_UJUFAG
_symmetry_cell_setting           triclinic
_symmetry_space_group_name_H-M   'P -1'
_symmetry_Int_Tables_number      2
_space_group_name_Hall           '-P 1'
loop_
_symmetry_equiv_pos_site_id
_symmetry_equiv_pos_as_xyz
1 x,y,z
2 -x,-y,-z
_cell_length_a                   8.5342(3)
_cell_length_b                   10.0928(4)
_cell_length_c                   10.5343(4)
_cell_angle_alpha                94.0490(10)
_cell_angle_beta                 103.1260(10)
_cell_angle_gamma                113.8900(10)
_cell_volume                     794.366
loop_
_atom_site_label
_atom_site_type_symbol
_atom_site_fract_x
_atom_site_fract_y
_atom_site_fract_z
Cu1 Cu 0.84578(2) 0.790314(16) 0.348366(15)
S1 S 0.89062(4) 0.88870(3) 0.67310(3)
O1 O 0.77738(13) 0.81726(11) 0.53588(10)
O2 O 0.92222(13) 0.77964(11) 0.74707(11)
O3 O 0.93017(13) 0.99801(10) 0.33474(10)
O4 O 0.80867(14) 0.96413(11) 0.74050(10)
N1 N 0.58611(15) 0.74326(12) 0.25397(11)
N2 N 0.74890(15) 0.58010(12) 0.27768(11)
N3 N 1.06853(15) 0.75314(12) 0.41103(11)
C1 C 0.51219(18) 0.83739(14) 0.25360(13)
C2 C 0.33169(18) 0.79497(15) 0.19463(13)
C3 C 0.22565(18) 0.64999(15) 0.13130(13)
C4 C 0.30062(17) 0.55033(15) 0.13106(14)
C5 C 0.48106(17) 0.60074(14) 0.19495(13)
C6 C 0.57804(17) 0.50737(14) 0.20416(13)
C7 C 0.50889(17) 0.36164(14) 0.14215(13)
C8 C 0.62156(17) 0.29044(14) 0.15295(12)
C9 C 0.79992(17) 0.36945(14) 0.23023(13)
C10 C 0.85816(16) 0.51385(14) 0.29163(13)
C11 C 1.04101(17) 0.61185(14) 0.37517(13)
C12 C 1.17475(17) 0.56506(14) 0.41376(13)
C13 C 1.34222(17) 0.66751(15) 0.49165(13)
C14 C 1.37044(18) 0.81222(15) 0.52836(13)
C15 C 1.23069(17) 0.85107(14) 0.48569(13)
C16 C 0.55677(17) 0.13951(14) 0.07846(12)
C17 C 0.38015(17) 0.06090(14) -0.00039(13)
C18 C 0.67478(17) 0.07559(14) 0.07767(13)
H1 H 0.588(2) 0.931(2) 0.2930(18)
H2 H 0.287(3) 0.867(2) 0.199(2)
H3 H 0.107(3) 0.620(2) 0.090(2)
H4 H 0.228(3) 0.450(2) 0.091(2)
H5 H 0.392(3) 0.316(2) 0.094(2)
H6 H 0.885(3) 0.329(3) 0.238(2)
H7 H 1.157(3) 0.468(2) 0.388(2)
H8 H 1.438(3) 0.640(2) 0.5196(19)
H9 H 1.483(3) 0.881(2) 0.582(2)
H10 H 1.241(2) 0.946(2) 0.5054(18)
H11 H 0.298(3) 0.099(2) -0.002(2)
H12 H 0.793(3) 0.125(2) 0.128(2)
O3A O 1.06983(13) 1.00199(10) 0.66526(10)
Cu1A Cu 1.15422(2) 1.209686(16) 0.651634(15)
O1A O 1.22262(13) 1.18274(11) 0.46412(10)
S1A S 1.10938(4) 1.11130(3) 0.32690(3)
O2A O 1.07778(13) 1.22036(11) 0.25293(11)
C18A C 0.32522(17) -0.07559(14) -0.07767(13)
C16A C 0.44323(17) -0.13951(14) -0.07846(12)
C8A C 0.37844(17) -0.29044(14) -0.15295(12)
C7A C 0.49111(17) -0.36164(14) -0.14215(13)
C6A C 0.42196(17) -0.50737(14) -0.20416(13)
N2A N 0.25110(15) -0.58010(12) -0.27768(11)
Cu1A_2 Cu 0.15422(2) -0.790314(16) -0.348366(15)
O1A_2 O 0.22262(13) -0.81726(11) -0.53588(10)
O3A_2 O 0.06983(13) -0.99801(10) -0.33474(10)
N1A N 0.41389(15) -0.74326(12) -0.25397(11)
C1A C 0.48781(18) -0.83739(14) -0.25360(13)
C2A C 0.66831(18) -0.79497(15) -0.19463(13)
C3A C 0.77435(18) -0.64999(15) -0.13130(13)
C4A C 0.69938(17) -0.55033(15) -0.13106(14)
C5A C 0.51894(17) -0.60074(14) -0.19495(13)
H4A H 0.772(3) -0.450(2) -0.091(2)
H3A H 0.893(3) -0.620(2) -0.090(2)
H2A H 0.713(3) -0.867(2) -0.199(2)
H1A H 0.412(2) -0.931(2) -0.2930(18)
N3A N -0.06853(15) -0.75314(12) -0.41103(11)
C11A C -0.04101(17) -0.61185(14) -0.37517(13)
C10A C 0.14184(16) -0.51385(14) -0.29163(13)
C9A C 0.20008(17) -0.36945(14) -0.23023(13)
H6A H 0.115(3) -0.329(3) -0.238(2)
C12A C -0.17475(17) -0.56506(14) -0.41376(13)
C13A C -0.34222(17) -0.66751(15) -0.49165(13)
C14A C -0.37044(18) -0.81222(15) -0.52836(13)
C15A C -0.23069(17) -0.85107(14) -0.48569(13)
H10A H -0.241(2) -0.946(2) -0.5054(18)
H9A H -0.483(3) -0.881(2) -0.582(2)
H8A H -0.438(3) -0.640(2) -0.5196(19)
H7A H -0.157(3) -0.468(2) -0.388(2)
H5A H 0.608(3) -0.316(2) -0.094(2)
C17A C 0.61985(17) -0.06090(14) 0.00039(13)
H11A H 0.702(3) -0.099(2) 0.002(2)
H12A H 0.207(3) -0.125(2) -0.128(2)
O4A O 1.19133(14) 1.03587(11) 0.25950(10)
O5 O 0.93528(15) 0.80322(13) 0.03129(12)
H13 H 0.946(3) 0.818(3) -0.045(3)
H14 H 1.015(4) 0.875(3) 0.084(3)
loop_
_geom_bond_atom_site_label_1
_geom_bond_atom_site_label_2
_geom_bond_site_symmetry_1
_geom_bond_site_symmetry_2
Cu1 O1 1_555 1_555
S1 O1 1_555 1_555
O2 S1 1_555 1_555
O3 Cu1 1_555 1_555
O4 S1 1_555 1_555
O5 H13 1_555 1_555
N1 Cu1 1_555 1_555
N2 Cu1 1_555 1_555
N3 Cu1 1_555 1_555
C1 N1 1_555 1_555
C2 C1 1_555 1_555
C3 C2 1_555 1_555
C4 C3 1_555 1_555
C5 N1 1_555 1_555
C6 N2 1_555 1_555
C7 C6 1_555 1_555
C8 C7 1_555 1_555
C9 C8 1_555 1_555
C10 N2 1_555 1_555
C11 N3 1_555 1_555
C12 C11 1_555 1_555
C13 C12 1_555 1_555
C14 C13 1_555 1_555
C15 N3 1_555 1_555
C16 C8 1_555 1_555
C17 C16 1_555 1_555
C18 C16 1_555 1_555
H1 C1 1_555 1_555
H2 C2 1_555 1_555
H3 C3 1_555 1_555
H4 C4 1_555 1_555
H5 C7 1_555 1_555
H6 C9 1_555 1_555
H7 C12 1_555 1_555
H8 C13 1_555 1_555
H9 C14 1_555 1_555
H10 C15 1_555 1_555
H11 C17 1_555 1_555
H12 C18 1_555 1_555
H14 O5 1_555 1_555
O3A S1 1_555 1_555
Cu1A O3A 1_555 1_555
O1A Cu1A 1_555 1_555
S1A O3 1_555 1_555
O2A S1A 1_555 1_555
C18A C17 1_555 1_555
C16A C18A 1_555 1_555
C8A C16A 1_555 1_555
C7A C8A 1_555 1_555
C6A C7A 1_555 1_555
N2A C6A 1_555 1_555
Cu1A_2 N2A 1_555 1_555
O1A_2 Cu1A_2 1_555 1_555
O3A_2 Cu1A_2 1_555 1_555
N1A Cu1A_2 1_555 1_555
C1A N1A 1_555 1_555
C2A C1A 1_555 1_555
C3A C2A 1_555 1_555
C4A C3A 1_555 1_555
C5A C6A 1_555 1_555
H4A C4A 1_555 1_555
H3A C3A 1_555 1_555
H2A C2A 1_555 1_555
H1A C1A 1_555 1_555
N3A Cu1A_2 1_555 1_555
C11A N3A 1_555 1_555
C10A N2A 1_555 1_555
C9A C8A 1_555 1_555
H6A C9A 1_555 1_555
C12A C11A 1_555 1_555
C13A C12A 1_555 1_555
C14A C13A 1_555 1_555
C15A N3A 1_555 1_555
H10A C15A 1_555 1_555
H9A C14A 1_555 1_555
H8A C13A 1_555 1_555
H7A C12A 1_555 1_555
H5A C7A 1_555 1_555
C17A C18 1_555 1_555
H11A C17A 1_555 1_555
H12A C18A 1_555 1_555
O4A S1A 1_555 1_555
C4 C5 1_555 1_555
C5 C6 1_555 1_555
C9 C10 1_555 1_555
C10 C11 1_555 1_555
C14 C15 1_555 1_555
O1A S1A 1_555 1_555
C16A C17A 1_555 1_555
N1A C5A 1_555 1_555
C4A C5A 1_555 1_555
C11A C10A 1_555 1_555
C10A C9A 1_555 1_555
C14A C15A 1_555 1_555

#END
