
#######################################################################
#
#                 Cambridge Crystallographic Data Centre
#                                CCDC 
#
#######################################################################
#
# If this CIF has been generated from an entry in the Cambridge 
# Structural Database, then it will include bibliographic, chemical, 
# crystal, experimental, refinement or atomic coordinate data resulting 
# from the CCDC's data processing and validation procedures.
#
#######################################################################

data_UJUFUA
_symmetry_cell_setting           triclinic
_symmetry_space_group_name_H-M   'P -1'
_symmetry_Int_Tables_number      2
_space_group_name_Hall           '-P 1'
loop_
_symmetry_equiv_pos_site_id
_symmetry_equiv_pos_as_xyz
1 x,y,z
2 -x,-y,-z
_cell_length_a                   9.8740(4)
_cell_length_b                   10.3908(4)
_cell_length_c                   11.6448(5)
_cell_angle_alpha                105.2160(10)
_cell_angle_beta                 106.5830(10)
_cell_angle_gamma                92.9800(10)
_cell_volume                     1094.46
loop_
_atom_site_label
_atom_site_type_symbol
_atom_site_fract_x
_atom_site_fract_y
_atom_site_fract_z
Cu1 Cu 0.57356(4) 0.11629(4) 0.18889(4)
Mo1 Mo 0.94029(3) 0.23699(3) 0.33469(3)
Mo2 Mo 1.20048(3) 0.38554(3) 0.27944(3)
Mo3 Mo 0.96198(3) 0.58766(3) 0.37991(3)
Mo4 Mo 0.69871(3) 0.44067(3) 0.42701(3)
O1 O 0.7777(3) 0.1378(2) 0.2383(2)
O2 O 1.0452(3) 0.1255(2) 0.3808(2)
O3 O 1.0129(3) 0.2782(2) 0.2150(2)
O4 O 1.2928(3) 0.2641(2) 0.3224(2)
O5 O 1.2356(3) 0.3987(3) 0.1472(2)
O6 O 1.0499(3) 0.5427(2) 0.2663(2)
O7 O 0.8777(2) 0.3034(2) 0.4850(2)
O8 O 0.8629(3) 0.7062(3) 0.3404(2)
O9 O 1.0931(2) 0.4187(2) 0.4535(2)
O10 O 0.6090(3) 0.5637(3) 0.3854(2)
O11 O 1.3100(3) 0.5396(2) 0.4102(2)
O12 O 0.8226(2) 0.4287(2) 0.3172(2)
O13 O 0.5873(3) 0.2934(2) 0.3432(2)
C1 C 0.6386(4) 0.2848(4) 0.0303(3)
C2 C 0.6010(4) 0.3536(4) -0.0584(4)
C3 C 0.4582(4) 0.3472(4) -0.1231(4)
C4 C 0.3572(4) 0.2728(4) -0.0961(4)
C5 C 0.4001(4) 0.2050(4) -0.0078(3)
C6 C 0.3030(4) 0.1210(3) 0.0268(3)
C7 C 0.1552(4) 0.0943(4) -0.0218(3)
C8 C 0.0793(3) 0.0143(3) 0.0247(3)
C9 C 0.1562(4) -0.0389(4) 0.1188(4)
C10 C 0.3038(4) -0.0096(3) 0.1638(3)
C11 C 0.4022(4) -0.0567(3) 0.2614(3)
C12 C 0.3614(4) -0.1411(4) 0.3231(3)
C13 C 0.4677(4) -0.1794(4) 0.4116(4)
C14 C 0.6084(4) -0.1333(4) 0.4344(4)
C15 C 0.6419(4) -0.0486(4) 0.3690(3)
N1 N 0.5401(3) 0.2122(3) 0.0557(3)
N2 N 0.3717(3) 0.0684(3) 0.1170(3)
N3 N 0.5420(3) -0.0121(3) 0.2847(3)
H1 H 0.740(5) 0.287(4) 0.075(4)
H2 H 0.674(4) 0.399(4) -0.077(4)
H3 H 0.432(5) 0.388(4) -0.179(4)
H4 H 0.274(4) 0.274(4) -0.130(4)
H5 H 0.112(4) 0.131(4) -0.086(4)
H6 H 0.116(4) -0.087(4) 0.145(4)
H7 H 0.239(4) -0.175(4) 0.321(3)
H8 H 0.452(4) -0.229(4) 0.452(4)
H9 H 0.687(5) -0.155(4) 0.488(4)
H10 H 0.739(4) -0.019(4) 0.388(3)
O7A O 1.1223(2) 0.6966(2) 0.5150(2)
Mo1A Mo 1.05971(3) 0.76301(3) 0.66531(3)
O1A O 1.2223(3) 0.8622(2) 0.7617(2)
Cu1A Cu 1.42644(4) 0.88371(4) 0.81111(4)
O13A O 1.4127(3) 0.7066(2) 0.6568(2)
Mo4A Mo 1.30129(3) 0.55933(3) 0.57299(3)
Mo3A Mo 1.03802(3) 0.41234(3) 0.62009(3)
O6A O 0.9501(3) 0.4573(2) 0.7337(2)
Mo2A Mo 0.79952(3) 0.61446(3) 0.72056(3)
O3A O 0.9871(3) 0.7218(2) 0.7850(2)
O2A O 0.9548(3) 0.8745(2) 0.6192(2)
O9A O 0.9069(2) 0.5813(2) 0.5465(2)
O8A O 1.1371(3) 0.2938(3) 0.6596(2)
O11A O 0.6900(3) 0.4604(2) 0.5898(2)
O4A O 0.7072(3) 0.7359(2) 0.6776(2)
O5A O 0.7644(3) 0.6013(3) 0.8528(2)
C8A C -0.0793(3) -0.0143(3) -0.0247(3)
C7A C -0.1552(4) -0.0943(4) 0.0218(3)
C6A C -0.3030(4) -0.1210(3) -0.0268(3)
C5A C -0.4001(4) -0.2050(4) 0.0078(3)
C4A C -0.3572(4) -0.2728(4) 0.0961(4)
C3A C -0.4582(4) -0.3472(4) 0.1231(4)
C2A C -0.6010(4) -0.3536(4) 0.0584(4)
C1A C -0.6386(4) -0.2848(4) -0.0303(3)
N1A N -0.5401(3) -0.2122(3) -0.0557(3)
Cu1A_2 Cu -0.57356(4) -0.11629(4) -0.18889(4)
O1A_2 O -0.7777(3) -0.1378(2) -0.2383(2)
O13A_2 O -0.5873(3) -0.2934(2) -0.3432(2)
N2A N -0.3717(3) -0.0684(3) -0.1170(3)
C10A C -0.3038(4) 0.0096(3) -0.1638(3)
C9A C -0.1562(4) 0.0389(4) -0.1188(4)
H6A H -0.116(4) 0.087(4) -0.145(4)
C11A C -0.4022(4) 0.0567(3) -0.2614(3)
C12A C -0.3614(4) 0.1411(4) -0.3231(3)
C13A C -0.4677(4) 0.1794(4) -0.4116(4)
C14A C -0.6084(4) 0.1333(4) -0.4344(4)
C15A C -0.6419(4) 0.0486(4) -0.3690(3)
N3A N -0.5420(3) 0.0121(3) -0.2847(3)
H10A H -0.739(4) 0.019(4) -0.388(3)
H9A H -0.687(5) 0.155(4) -0.488(4)
H8A H -0.452(4) 0.229(4) -0.452(4)
H7A H -0.239(4) 0.175(4) -0.321(3)
H1A H -0.740(5) -0.287(4) -0.075(4)
H2A H -0.674(4) -0.399(4) 0.077(4)
H3A H -0.432(5) -0.388(4) 0.179(4)
H4A H -0.274(4) -0.274(4) 0.130(4)
H5A H -0.112(4) -0.131(4) 0.086(4)
O12A O 1.1774(2) 0.5713(2) 0.6828(2)
O10A O 1.3910(3) 0.4363(3) 0.6146(2)
O14 O 0.0301(4) 0.6662(4) 0.0767(4)
H11 H -0.031(7) 0.628(7) -0.001(7)
H12 H 0.041(7) 0.604(7) 0.127(7)
loop_
_geom_bond_atom_site_label_1
_geom_bond_atom_site_label_2
_geom_bond_site_symmetry_1
_geom_bond_site_symmetry_2
Cu1 O1 1_555 1_555
Mo1 O1 1_555 1_555
Mo2 O3 1_555 1_555
Mo3 O6 1_555 1_555
Mo4 O7 1_555 1_555
O2 Mo1 1_555 1_555
O3 Mo1 1_555 1_555
O4 Mo2 1_555 1_555
O5 Mo2 1_555 1_555
O6 Mo2 1_555 1_555
O7 Mo1 1_555 1_555
O8 Mo3 1_555 1_555
O9 Mo1 1_555 1_555
O10 Mo4 1_555 1_555
O11 Mo2 1_555 1_555
O12 Mo1 1_555 1_555
O13 Cu1 1_555 1_555
O14 H11 1_555 1_555
C1 C2 1_555 1_555
C2 C3 1_555 1_555
C3 C4 1_555 1_555
C4 C5 1_555 1_555
C5 C6 1_555 1_555
C6 C7 1_555 1_555
C7 C8 1_555 1_555
C8 C9 1_555 1_555
C9 C10 1_555 1_555
C10 C11 1_555 1_555
C11 C12 1_555 1_555
C12 C13 1_555 1_555
C13 C14 1_555 1_555
C14 C15 1_555 1_555
C15 N3 1_555 1_555
N1 Cu1 1_555 1_555
N2 Cu1 1_555 1_555
N3 Cu1 1_555 1_555
H1 C1 1_555 1_555
H2 C2 1_555 1_555
H3 C3 1_555 1_555
H4 C4 1_555 1_555
H5 C7 1_555 1_555
H6 C9 1_555 1_555
H7 C12 1_555 1_555
H8 C13 1_555 1_555
H9 C14 1_555 1_555
H10 C15 1_555 1_555
H12 O14 1_555 1_555
O7A Mo3 1_555 1_555
Mo1A O7A 1_555 1_555
O1A Mo1A 1_555 1_555
Cu1A O1A 1_555 1_555
O13A Cu1A 1_555 1_555
Mo4A O9 1_555 1_555
Mo3A O7 1_555 1_555
O6A Mo3A 1_555 1_555
Mo2A O6A 1_555 1_555
O3A Mo1A 1_555 1_555
O2A Mo1A 1_555 1_555
O9A Mo3 1_555 1_555
O8A Mo3A 1_555 1_555
O11A Mo4 1_555 1_555
O4A Mo2A 1_555 1_555
O5A Mo2A 1_555 1_555
C8A C8 1_555 1_555
C7A C8A 1_555 1_555
C6A C7A 1_555 1_555
C5A C6A 1_555 1_555
C4A C5A 1_555 1_555
C3A C4A 1_555 1_555
C2A C3A 1_555 1_555
C1A C2A 1_555 1_555
N1A C5A 1_555 1_555
Cu1A_2 N1A 1_555 1_555
O1A_2 Cu1A_2 1_555 1_555
O13A_2 Cu1A_2 1_555 1_555
N2A C6A 1_555 1_555
C10A N2A 1_555 1_555
C9A C8A 1_555 1_555
H6A C9A 1_555 1_555
C11A C10A 1_555 1_555
C12A C11A 1_555 1_555
C13A C12A 1_555 1_555
C14A C13A 1_555 1_555
C15A C14A 1_555 1_555
N3A Cu1A_2 1_555 1_555
H10A C15A 1_555 1_555
H9A C14A 1_555 1_555
H8A C13A 1_555 1_555
H7A C12A 1_555 1_555
H1A C1A 1_555 1_555
H2A C2A 1_555 1_555
H3A C3A 1_555 1_555
H4A C4A 1_555 1_555
H5A C7A 1_555 1_555
O12A Mo1A 1_555 1_555
O10A Mo4A 1_555 1_555
Mo3 O9 1_555 1_555
Mo3 O12 1_555 1_555
Mo4 O9A 1_555 1_555
Mo4 O12 1_555 1_555
Mo4 O13 1_555 1_555
O9 Mo3A 1_555 1_555
O11 Mo4A 1_555 1_555
C1 N1 1_555 1_555
C5 N1 1_555 1_555
C6 N2 1_555 1_555
C10 N2 1_555 1_555
C11 N3 1_555 1_555
O7A Mo4A 1_555 1_555
Mo1A O9A 1_555 1_555
O13A Mo4A 1_555 1_555
Mo4A O12A 1_555 1_555
Mo3A O12A 1_555 1_555
Mo3A O9A 1_555 1_555
Mo2A O3A 1_555 1_555
Mo2A O11A 1_555 1_555
C1A N1A 1_555 1_555
Cu1A_2 N2A 1_555 1_555
C10A C9A 1_555 1_555
C11A N3A 1_555 1_555
C15A N3A 1_555 1_555

#END
