
#######################################################################
#
#                 Cambridge Crystallographic Data Centre
#                                CCDC 
#
#######################################################################
#
# If this CIF has been generated from an entry in the Cambridge 
# Structural Database, then it will include bibliographic, chemical, 
# crystal, experimental, refinement or atomic coordinate data resulting 
# from the CCDC's data processing and validation procedures.
#
#######################################################################

data_UJUHOW
_symmetry_cell_setting           monoclinic
_symmetry_space_group_name_H-M   'C 2/c'
_symmetry_Int_Tables_number      15
_space_group_name_Hall           '-C 2yn'
loop_
_symmetry_equiv_pos_site_id
_symmetry_equiv_pos_as_xyz
1 x,y,z
2 1/2+x,1/2+y,z
3 x,-y,1/2+z
4 1/2+x,1/2-y,1/2+z
5 -x,-y,-z
6 1/2-x,1/2-y,-z
7 -x,y,1/2-z
8 1/2-x,1/2+y,1/2-z
_cell_length_a                   33.348(7)
_cell_length_b                   11.020(2)
_cell_length_c                   32.188(6)
_cell_angle_alpha                90
_cell_angle_beta                 110.03(3)
_cell_angle_gamma                90
_cell_volume                     11113.4
loop_
_atom_site_label
_atom_site_type_symbol
_atom_site_fract_x
_atom_site_fract_y
_atom_site_fract_z
Si1 Si 0.21636(6) 0.28674(16) 0.36663(5)
Si2 Si 0.37674(6) -0.00352(15) 0.31754(5)
Si3 Si 0.48787(6) 0.54819(15) 0.33287(5)
Na1 Na 0.5000 0.3040(2) 0.2500
Na2 Na 0.2500 0.2500 0.5000
Si4 Si 0.43152(5) 0.16639(17) 0.48132(5)
Na3 Na 0.32018(7) 0.28018(18) 0.44971(6)
Na4 Na 0.42722(6) 0.27229(19) 0.29557(6)
Na5 Na 0.37272(7) 0.28660(19) 0.37184(6)
O1 O 0.30987(11) 0.3945(3) 0.50667(11)
N1 N 0.50581(13) 0.1993(4) 0.32053(14)
N2 N 0.35094(14) 0.3429(4) 0.29195(14)
N3 N 0.28507(13) 0.0893(4) 0.46846(13)
C1 C 0.51022(18) 0.3092(5) 0.34114(18)
C2 C 0.30011(18) -0.0240(5) 0.47970(18)
C3 C 0.2892(2) -0.1197(5) 0.4502(2)
H1 H 0.3003 -0.1987 0.4590
C4 C 0.34419(17) 0.2207(6) 0.28623(16)
C5 C 0.53706(17) 0.3160(6) 0.38714(17)
H2 H 0.5410 0.3914 0.4023
C6 C 0.2619(2) -0.0979(6) 0.40765(19)
H3 H 0.2543 -0.1625 0.3869
C7 C 0.25753(17) 0.1139(5) 0.42618(17)
C8 C 0.2849(2) 0.3866(7) 0.2338(2)
H4 H 0.2651 0.4448 0.2168
C9 C 0.3219(2) 0.4221(6) 0.26653(18)
C10 C 0.24579(18) 0.0148(5) 0.39520(17)
H5 H 0.2267 0.0283 0.3660
C11 C 0.30635(18) 0.1789(6) 0.25237(18)
H6 H 0.3010 0.0944 0.2476
C12 C 0.3561(2) 0.3686(6) 0.16524(19)
H7 H 0.3346 0.3768 0.1801
H8 H 0.3488 0.4248 0.1397
C13 C 0.29759(19) 0.5188(5) 0.49463(18)
H9 H 0.2669 0.5307 0.4900
H10 H 0.3027 0.5404 0.4670
C14 C 0.55675(19) 0.2143(7) 0.4086(2)
H11 H 0.5738 0.2191 0.4390
C15 C 0.2774(2) 0.2636(7) 0.22656(18)
H12 H 0.2524 0.2366 0.2038
C16 C 0.3444(2) 0.3956(6) 0.54910(18)
H13 H 0.3665 0.3351 0.5494
H14 H 0.3335 0.3765 0.5733
C17 C 0.52662(18) 0.0999(5) 0.3430(2)
C18 C 0.3873(2) 0.1814(5) 0.1932(2)
H15 H 0.3699 0.1447 0.2094
H16 H 0.4049 0.1171 0.1864
C19 C 0.55237(19) 0.1040(6) 0.3869(2)
H17 H 0.5666 0.0334 0.4017
C20 C 0.40064(19) 0.3905(5) 0.19698(19)
H18 H 0.4198 0.4151 0.1808
H19 H 0.4006 0.4553 0.2183
C21 C 0.3620(2) 0.5184(7) 0.5541(2)
H20 H 0.3837 0.5263 0.5396
H21 H 0.3752 0.5404 0.5857
C22 C 0.3592(2) 0.2415(6) 0.1515(2)
H22 H 0.3723 0.2378 0.1282
H23 H 0.3308 0.2026 0.1404
C23 C 0.3244(3) 0.5952(6) 0.5320(2)
H24 H 0.3329 0.6715 0.5210
H25 H 0.3089 0.6152 0.5524
O2 O 0.41457(12) 0.2777(3) 0.21960(11)
N4 N 0.39300(14) 0.2671(4) 0.45202(13)
N5 N 0.24475(14) 0.2286(4) 0.41770(13)
N6 N 0.49000(13) 0.4028(4) 0.31584(13)
N7 N 0.37526(13) 0.1505(4) 0.31374(13)
C24 C 0.3952(2) 0.3888(6) 0.4520(2)
C25 C 0.3589(4) 0.5699(7) 0.4196(3)
C26 C 0.32872(19) -0.0412(5) 0.52698(18)
H26 H 0.3417 0.0367 0.5391
H27 H 0.3512 -0.0997 0.5282
H28 H 0.3119 -0.0716 0.5444
C27 C 0.5202(2) -0.0155(5) 0.3160(2)
H29 H 0.4896 -0.0285 0.3006
H30 H 0.5320 -0.0843 0.3357
H31 H 0.5348 -0.0084 0.2944
C28 C 0.3319(2) 0.5559(6) 0.2746(2)
H32 H 0.3471 0.5696 0.3062
H33 H 0.3053 0.6025 0.2652
H34 H 0.3498 0.5822 0.2577
C29 C 0.3174(4) 0.6189(7) 0.3844(3)
H35 H 0.3156 0.5895 0.3551
H36 H 0.3179 0.7078 0.3846
H37 H 0.2925 0.5903 0.3913
N8 N 0.3605(2) 0.4471(5) 0.42213(17)
C30 C 0.4557(2) 0.6373(5) 0.28342(18)
H38 H 0.4674 0.6260 0.2596
H39 H 0.4567 0.7235 0.2912
H40 H 0.4260 0.6091 0.2735
C31 C 0.40715(19) 0.0119(5) 0.46917(19)
H41 H 0.3837 0.0054 0.4809
H42 H 0.4288 -0.0495 0.4832
H43 H 0.3962 -0.0012 0.4371
C32 C 0.54123(19) 0.6264(5) 0.3543(2)
H44 H 0.5603 0.5810 0.3795
H45 H 0.5375 0.7089 0.3637
H46 H 0.5537 0.6300 0.3309
C33 C 0.4285(2) -0.0478(5) 0.36012(19)
H47 H 0.4521 -0.0183 0.3513
H48 H 0.4300 -0.1364 0.3628
H49 H 0.4305 -0.0120 0.3886
C34 C 0.1619(2) 0.2174(7) 0.3393(2)
H50 H 0.1649 0.1298 0.3361
H51 H 0.1484 0.2540 0.3101
H52 H 0.1442 0.2325 0.3576
C35 C 0.2466(2) 0.2737(6) 0.32796(19)
H53 H 0.2731 0.3204 0.3395
H54 H 0.2292 0.3056 0.2989
H55 H 0.2533 0.1883 0.3251
C36 C 0.4616(2) 0.5601(6) 0.3760(2)
H56 H 0.4318 0.5339 0.3633
H57 H 0.4626 0.6445 0.3860
H58 H 0.4767 0.5082 0.4013
C37 C 0.4798(2) 0.1741(7) 0.4638(2)
H59 H 0.4713 0.1582 0.4320
H60 H 0.5007 0.1131 0.4800
H61 H 0.4926 0.2550 0.4702
C38 C 0.2060(3) 0.4467(6) 0.3731(2)
H62 H 0.1889 0.4547 0.3924
H63 H 0.1905 0.4820 0.3441
H64 H 0.2332 0.4896 0.3864
C39 C 0.3745(3) -0.0817(6) 0.2650(2)
H65 H 0.3479 -0.0597 0.2414
H66 H 0.3754 -0.1698 0.2695
H67 H 0.3989 -0.0566 0.2568
C40 C 0.4491(2) 0.1887(7) 0.54287(19)
H68 H 0.4621 0.2692 0.5505
H69 H 0.4701 0.1264 0.5576
H70 H 0.4244 0.1822 0.5526
C41 C 0.3326(2) -0.0640(7) 0.3354(2)
H71 H 0.3337 -0.1529 0.3360
H72 H 0.3050 -0.0374 0.3145
H73 H 0.3360 -0.0334 0.3650
C42 C 0.4297(3) 0.4613(8) 0.4799(2)
H74 H 0.4538 0.4241 0.5010
C43 C 0.4270(4) 0.5905(13) 0.4754(5)
H75 H 0.4499 0.6411 0.4922
C44 C 0.3905(5) 0.6386(11) 0.4462(6)
H76 H 0.3873 0.7243 0.4446
Si3F Si 0.51213(6) 0.54819(15) 0.16713(5)
N1F N 0.49419(13) 0.1993(4) 0.17947(14)
C1F C 0.48978(18) 0.3092(5) 0.15886(18)
C5F C 0.46294(17) 0.3160(6) 0.11286(17)
H2F H 0.4590 0.3914 0.0977
C14F C 0.44325(19) 0.2143(7) 0.0914(2)
H11F H 0.4262 0.2191 0.0610
C17F C 0.47338(18) 0.0999(5) 0.1570(2)
C19F C 0.44763(19) 0.1040(6) 0.1131(2)
H17F H 0.4334 0.0334 0.0983
N6F N 0.51000(13) 0.4028(4) 0.18416(13)
C27F C 0.4798(2) -0.0155(5) 0.1840(2)
H29F H 0.5104 -0.0285 0.1994
H30F H 0.4680 -0.0843 0.1643
H31F H 0.4652 -0.0084 0.2056
C30F C 0.5443(2) 0.6373(5) 0.21658(18)
H38F H 0.5326 0.6260 0.2404
H39F H 0.5433 0.7235 0.2088
H40F H 0.5740 0.6091 0.2265
C32F C 0.45877(19) 0.6264(5) 0.1457(2)
H44F H 0.4397 0.5810 0.1205
H45F H 0.4625 0.7089 0.1363
H46F H 0.4463 0.6300 0.1691
C36F C 0.5384(2) 0.5601(6) 0.1240(2)
H56F H 0.5682 0.5339 0.1367
H57F H 0.5374 0.6445 0.1140
H58F H 0.5233 0.5082 0.0987
C12F C 0.6439(2) 0.3686(6) 0.33476(19)
H7F H 0.6654 0.3768 0.3199
H8F H 0.6512 0.4248 0.3603
C18F C 0.6127(2) 0.1814(5) 0.3068(2)
H15F H 0.6301 0.1447 0.2906
H16F H 0.5951 0.1171 0.3136
C20F C 0.59936(19) 0.3905(5) 0.30302(19)
H18F H 0.5802 0.4151 0.3192
H19F H 0.5994 0.4553 0.2817
C22F C 0.6408(2) 0.2415(6) 0.3485(2)
H22F H 0.6277 0.2378 0.3718
H23F H 0.6692 0.2026 0.3596
O2F O 0.58543(12) 0.2777(3) 0.28040(11)
Na4F Na 0.57278(6) 0.27229(19) 0.20443(6)
Si2F Si 0.62326(6) -0.00352(15) 0.18246(5)
N2F N 0.64906(14) 0.3429(4) 0.20805(14)
C4F C 0.65581(17) 0.2207(6) 0.21377(16)
C8F C 0.7151(2) 0.3866(7) 0.2662(2)
H4F H 0.7349 0.4448 0.2832
C9F C 0.6781(2) 0.4221(6) 0.23347(18)
C11F C 0.69365(18) 0.1789(6) 0.24763(18)
H6F H 0.6990 0.0944 0.2524
C15F C 0.7226(2) 0.2636(7) 0.27344(18)
H12F H 0.7476 0.2366 0.2962
N7F N 0.62474(13) 0.1505(4) 0.18626(13)
C28F C 0.6681(2) 0.5559(6) 0.2254(2)
H32F H 0.6529 0.5696 0.1938
H33F H 0.6947 0.6025 0.2348
H34F H 0.6502 0.5822 0.2423
C33F C 0.5715(2) -0.0478(5) 0.13988(19)
H47F H 0.5479 -0.0183 0.1487
H48F H 0.5700 -0.1364 0.1372
H49F H 0.5695 -0.0120 0.1114
C39F C 0.6255(3) -0.0817(6) 0.2350(2)
H65F H 0.6521 -0.0597 0.2586
H66F H 0.6246 -0.1698 0.2305
H67F H 0.6011 -0.0566 0.2432
C41F C 0.6674(2) -0.0640(7) 0.1646(2)
H71F H 0.6663 -0.1529 0.1640
H72F H 0.6950 -0.0374 0.1855
H73F H 0.6640 -0.0334 0.1350
Na5F Na 0.62728(7) 0.28660(19) 0.12816(6)
Si4F Si 0.56848(5) 0.16639(17) 0.01868(5)
N4F N 0.60700(14) 0.2671(4) 0.04798(13)
C24F C 0.6048(2) 0.3888(6) 0.0480(2)
C25F C 0.6411(4) 0.5699(7) 0.0804(3)
C29F C 0.6826(4) 0.6189(7) 0.1156(3)
H35F H 0.6844 0.5895 0.1449
H36F H 0.6821 0.7078 0.1154
H37F H 0.7075 0.5903 0.1087
N8F N 0.6395(2) 0.4471(5) 0.07787(17)
C31F C 0.59285(19) 0.0119(5) 0.03083(19)
H41F H 0.6163 0.0054 0.0191
H42F H 0.5712 -0.0495 0.0168
H43F H 0.6038 -0.0012 0.0629
C37F C 0.5202(2) 0.1741(7) 0.0362(2)
H59F H 0.5287 0.1582 0.0680
H60F H 0.4993 0.1131 0.0200
H61F H 0.5074 0.2550 0.0298
C40F C 0.5509(2) 0.1887(7) -0.04287(19)
H68F H 0.5379 0.2692 -0.0505
H69F H 0.5299 0.1264 -0.0576
H70F H 0.5756 0.1822 -0.0526
C42F C 0.5703(3) 0.4613(8) 0.0201(2)
H74F H 0.5462 0.4241 -0.0010
C43F C 0.5730(4) 0.5905(13) 0.0246(5)
H75F H 0.5501 0.6411 0.0078
C44F C 0.6095(5) 0.6386(11) 0.0538(6)
H76F H 0.6127 0.7243 0.0554
Na3F Na 0.67982(7) 0.28018(18) 0.05029(6)
O1F O 0.69013(11) 0.3945(3) -0.00667(11)
C13F C 0.70241(19) 0.5188(5) 0.00537(18)
H9F H 0.7331 0.5307 0.0100
H10F H 0.6973 0.5404 0.0330
C16F C 0.6556(2) 0.3956(6) -0.04910(18)
H13F H 0.6335 0.3351 -0.0494
H14F H 0.6665 0.3765 -0.0733
C21F C 0.6380(2) 0.5184(7) -0.0541(2)
H20F H 0.6163 0.5263 -0.0396
H21F H 0.6248 0.5404 -0.0857
C23F C 0.6756(3) 0.5952(6) -0.0320(2)
H24F H 0.6671 0.6715 -0.0210
H25F H 0.6911 0.6152 -0.0524
Si1F Si 0.78364(6) 0.28674(16) 0.13337(5)
N3F N 0.71493(13) 0.0893(4) 0.03154(13)
C2F C 0.69989(18) -0.0240(5) 0.02030(18)
C3F C 0.7108(2) -0.1197(5) 0.0498(2)
H1F H 0.6997 -0.1987 0.0410
C6F C 0.7381(2) -0.0979(6) 0.09235(19)
H3F H 0.7457 -0.1625 0.1131
C7F C 0.74247(17) 0.1139(5) 0.07382(17)
C10F C 0.75421(18) 0.0148(5) 0.10480(17)
H5F H 0.7733 0.0283 0.1340
N5F N 0.75525(14) 0.2286(4) 0.08230(13)
C26F C 0.67128(19) -0.0412(5) -0.02698(18)
H26F H 0.6583 0.0367 -0.0391
H27F H 0.6488 -0.0997 -0.0282
H28F H 0.6881 -0.0716 -0.0444
C34F C 0.8381(2) 0.2174(7) 0.1607(2)
H50F H 0.8351 0.1298 0.1639
H51F H 0.8516 0.2540 0.1899
H52F H 0.8558 0.2325 0.1424
C35F C 0.7534(2) 0.2737(6) 0.17204(19)
H53F H 0.7269 0.3204 0.1605
H54F H 0.7708 0.3056 0.2011
H55F H 0.7467 0.1883 0.1749
C38F C 0.7940(3) 0.4467(6) 0.1269(2)
H62F H 0.8111 0.4547 0.1076
H63F H 0.8095 0.4820 0.1559
H64F H 0.7668 0.4896 0.1136
O1E O 0.19013(11) 0.1055(3) 0.49333(11)
N3E N 0.21493(13) 0.4107(4) 0.53154(13)
N5E N 0.25525(14) 0.2714(4) 0.58230(13)
Na2C Na 0.7500 0.2500 0.0000
loop_
_geom_bond_atom_site_label_1
_geom_bond_atom_site_label_2
_geom_bond_site_symmetry_1
_geom_bond_site_symmetry_2
Si1 N5 1_555 1_555
Si2 N7 1_555 1_555
Si3 N6 1_555 1_555
Na1 N1 1_555 1_555
Na2 O1 1_555 1_555
Si4 N4 1_555 1_555
Na3 O1 1_555 1_555
Na4 N1 1_555 1_555
Na5 N2 1_555 1_555
O1 C13 1_555 1_555
N1 C1 1_555 1_555
N2 Na4 1_555 1_555
N3 Na2 1_555 1_555
C1 C5 1_555 1_555
C2 N3 1_555 1_555
C3 C2 1_555 1_555
H1 C3 1_555 1_555
C4 N2 1_555 1_555
C5 H2 1_555 1_555
C6 C3 1_555 1_555
H3 C6 1_555 1_555
C7 N3 1_555 1_555
C8 H4 1_555 1_555
C9 N2 1_555 1_555
C10 C6 1_555 1_555
H5 C10 1_555 1_555
C11 C4 1_555 1_555
H6 C11 1_555 1_555
C12 H7 1_555 1_555
H8 C12 1_555 1_555
C13 H9 1_555 1_555
H10 C13 1_555 1_555
C14 C5 1_555 1_555
H11 C14 1_555 1_555
C15 C8 1_555 1_555
H12 C15 1_555 1_555
C16 O1 1_555 1_555
H13 C16 1_555 1_555
H14 C16 1_555 1_555
C17 N1 1_555 1_555
C18 H15 1_555 1_555
H16 C18 1_555 1_555
C19 C14 1_555 1_555
H17 C19 1_555 1_555
C20 C12 1_555 1_555
H18 C20 1_555 1_555
H19 C20 1_555 1_555
C21 C16 1_555 1_555
H20 C21 1_555 1_555
H21 C21 1_555 1_555
C22 C12 1_555 1_555
H22 C22 1_555 1_555
H23 C22 1_555 1_555
C23 C13 1_555 1_555
H24 C23 1_555 1_555
H25 C23 1_555 1_555
O2 Na1 1_555 1_555
N4 Na3 1_555 1_555
N5 Na2 1_555 1_555
N6 Na1 1_555 1_555
N7 Na4 1_555 1_555
C24 N4 1_555 1_555
C25 C29 1_555 1_555
C26 C2 1_555 1_555
H26 C26 1_555 1_555
H27 C26 1_555 1_555
H28 C26 1_555 1_555
C27 C17 1_555 1_555
H29 C27 1_555 1_555
H30 C27 1_555 1_555
H31 C27 1_555 1_555
C28 C9 1_555 1_555
H32 C28 1_555 1_555
H33 C28 1_555 1_555
H34 C28 1_555 1_555
C29 H35 1_555 1_555
H36 C29 1_555 1_555
H37 C29 1_555 1_555
N8 Na3 1_555 1_555
C30 Si3 1_555 1_555
H38 C30 1_555 1_555
H39 C30 1_555 1_555
H40 C30 1_555 1_555
C31 Si4 1_555 1_555
H41 C31 1_555 1_555
H42 C31 1_555 1_555
H43 C31 1_555 1_555
C32 Si3 1_555 1_555
H44 C32 1_555 1_555
H45 C32 1_555 1_555
H46 C32 1_555 1_555
C33 Si2 1_555 1_555
H47 C33 1_555 1_555
H48 C33 1_555 1_555
H49 C33 1_555 1_555
C34 Si1 1_555 1_555
H50 C34 1_555 1_555
H51 C34 1_555 1_555
H52 C34 1_555 1_555
C35 Si1 1_555 1_555
H53 C35 1_555 1_555
H54 C35 1_555 1_555
H55 C35 1_555 1_555
C36 Si3 1_555 1_555
H56 C36 1_555 1_555
H57 C36 1_555 1_555
H58 C36 1_555 1_555
C37 Si4 1_555 1_555
H59 C37 1_555 1_555
H60 C37 1_555 1_555
H61 C37 1_555 1_555
C38 Si1 1_555 1_555
H62 C38 1_555 1_555
H63 C38 1_555 1_555
H64 C38 1_555 1_555
C39 Si2 1_555 1_555
H65 C39 1_555 1_555
H66 C39 1_555 1_555
H67 C39 1_555 1_555
C40 Si4 1_555 1_555
H68 C40 1_555 1_555
H69 C40 1_555 1_555
H70 C40 1_555 1_555
C41 Si2 1_555 1_555
H71 C41 1_555 1_555
H72 C41 1_555 1_555
H73 C41 1_555 1_555
C42 C24 1_555 1_555
H74 C42 1_555 1_555
C43 C42 1_555 1_555
H75 C43 1_555 1_555
C44 C25 1_555 1_555
H76 C44 1_555 1_555
Si3F N6F 1_555 1_555
N1F Na1 1_555 1_555
C1F N1F 1_555 1_555
C5F C1F 1_555 1_555
H2F C5F 1_555 1_555
C14F C5F 1_555 1_555
H11F C14F 1_555 1_555
C17F N1F 1_555 1_555
C19F C14F 1_555 1_555
H17F C19F 1_555 1_555
N6F Na1 1_555 1_555
C27F C17F 1_555 1_555
H29F C27F 1_555 1_555
H30F C27F 1_555 1_555
H31F C27F 1_555 1_555
C30F Si3F 1_555 1_555
H38F C30F 1_555 1_555
H39F C30F 1_555 1_555
H40F C30F 1_555 1_555
C32F Si3F 1_555 1_555
H44F C32F 1_555 1_555
H45F C32F 1_555 1_555
H46F C32F 1_555 1_555
C36F Si3F 1_555 1_555
H56F C36F 1_555 1_555
H57F C36F 1_555 1_555
H58F C36F 1_555 1_555
C12F H7F 1_555 1_555
H8F C12F 1_555 1_555
C18F H15F 1_555 1_555
H16F C18F 1_555 1_555
C20F C12F 1_555 1_555
H18F C20F 1_555 1_555
H19F C20F 1_555 1_555
C22F C12F 1_555 1_555
H22F C22F 1_555 1_555
H23F C22F 1_555 1_555
O2F Na1 1_555 1_555
Na4F N1F 1_555 1_555
Si2F N7F 1_555 1_555
N2F Na4F 1_555 1_555
C4F N2F 1_555 1_555
C8F H4F 1_555 1_555
C9F N2F 1_555 1_555
C11F C4F 1_555 1_555
H6F C11F 1_555 1_555
C15F C8F 1_555 1_555
H12F C15F 1_555 1_555
N7F Na4F 1_555 1_555
C28F C9F 1_555 1_555
H32F C28F 1_555 1_555
H33F C28F 1_555 1_555
H34F C28F 1_555 1_555
C33F Si2F 1_555 1_555
H47F C33F 1_555 1_555
H48F C33F 1_555 1_555
H49F C33F 1_555 1_555
C39F Si2F 1_555 1_555
H65F C39F 1_555 1_555
H66F C39F 1_555 1_555
H67F C39F 1_555 1_555
C41F Si2F 1_555 1_555
H71F C41F 1_555 1_555
H72F C41F 1_555 1_555
H73F C41F 1_555 1_555
Na5F N2F 1_555 1_555
Si4F N4F 1_555 1_555
N4F Na5F 1_555 1_555
C24F N4F 1_555 1_555
C25F C29F 1_555 1_555
C29F H35F 1_555 1_555
H36F C29F 1_555 1_555
H37F C29F 1_555 1_555
N8F Na5F 1_555 1_555
C31F Si4F 1_555 1_555
H41F C31F 1_555 1_555
H42F C31F 1_555 1_555
H43F C31F 1_555 1_555
C37F Si4F 1_555 1_555
H59F C37F 1_555 1_555
H60F C37F 1_555 1_555
H61F C37F 1_555 1_555
C40F Si4F 1_555 1_555
H68F C40F 1_555 1_555
H69F C40F 1_555 1_555
H70F C40F 1_555 1_555
C42F C24F 1_555 1_555
H74F C42F 1_555 1_555
C43F C42F 1_555 1_555
H75F C43F 1_555 1_555
C44F C25F 1_555 1_555
H76F C44F 1_555 1_555
Na3F N4F 1_555 1_555
O1F Na3F 1_555 1_555
C13F O1F 1_555 1_555
H9F C13F 1_555 1_555
H10F C13F 1_555 1_555
C16F O1F 1_555 1_555
H13F C16F 1_555 1_555
H14F C16F 1_555 1_555
C21F C16F 1_555 1_555
H20F C21F 1_555 1_555
H21F C21F 1_555 1_555
C23F C13F 1_555 1_555
H24F C23F 1_555 1_555
H25F C23F 1_555 1_555
Si1F N5F 1_555 1_555
N3F Na3F 1_555 1_555
C2F N3F 1_555 1_555
C3F C2F 1_555 1_555
H1F C3F 1_555 1_555
C6F C3F 1_555 1_555
H3F C6F 1_555 1_555
C7F N3F 1_555 1_555
C10F C6F 1_555 1_555
H5F C10F 1_555 1_555
N5F Na3F 1_555 1_555
C26F C2F 1_555 1_555
H26F C26F 1_555 1_555
H27F C26F 1_555 1_555
H28F C26F 1_555 1_555
C34F Si1F 1_555 1_555
H50F C34F 1_555 1_555
H51F C34F 1_555 1_555
H52F C34F 1_555 1_555
C35F Si1F 1_555 1_555
H53F C35F 1_555 1_555
H54F C35F 1_555 1_555
H55F C35F 1_555 1_555
C38F Si1F 1_555 1_555
H62F C38F 1_555 1_555
H63F C38F 1_555 1_555
H64F C38F 1_555 1_555
O1E Na2 1_555 1_555
N3E Na2 1_555 1_555
N5E Na2 1_555 1_555
Na2C O1F 1_555 1_555
Na3 N5 1_555 1_555
Na3 N3 1_555 1_555
Na4 O2 1_555 1_555
Na4 N6 1_555 1_555
Na5 N8 1_555 1_555
Na5 N7 1_555 1_555
Na5 N4 1_555 1_555
C1 N6 1_555 1_555
C4 N7 1_555 1_555
C7 N5 1_555 1_555
C7 C10 1_555 1_555
C8 C9 1_555 1_555
C11 C15 1_555 1_555
C17 C19 1_555 1_555
C18 O2 1_555 1_555
C18 C22 1_555 1_555
C20 O2 1_555 1_555
C21 C23 1_555 1_555
C24 N8 1_555 1_555
C25 N8 1_555 1_555
C43 C44 1_555 1_555
C1F N6F 1_555 1_555
C17F C19F 1_555 1_555
N6F Na4F 1_555 1_555
C18F O2F 1_555 1_555
C18F C22F 1_555 1_555
C20F O2F 1_555 1_555
O2F Na4F 1_555 1_555
C4F N7F 1_555 1_555
C8F C9F 1_555 1_555
C11F C15F 1_555 1_555
N7F Na5F 1_555 1_555
C24F N8F 1_555 1_555
C25F N8F 1_555 1_555
N8F Na3F 1_555 1_555
C43F C44F 1_555 1_555
C21F C23F 1_555 1_555
N3F Na2C 1_555 1_555
C7F N5F 1_555 1_555
C7F C10F 1_555 1_555
N5F Na2C 1_555 1_555

#END
