
#######################################################################
#
#                 Cambridge Crystallographic Data Centre
#                                CCDC 
#
#######################################################################
#
# If this CIF has been generated from an entry in the Cambridge 
# Structural Database, then it will include bibliographic, chemical, 
# crystal, experimental, refinement or atomic coordinate data resulting 
# from the CCDC's data processing and validation procedures.
#
#######################################################################

data_UJUJUF07
_symmetry_cell_setting           tetragonal
_symmetry_space_group_name_H-M   'I 41/a'
_symmetry_Int_Tables_number      88
_space_group_name_Hall           '-I 4ad'
loop_
_symmetry_equiv_pos_site_id
_symmetry_equiv_pos_as_xyz
1 x,y,z
2 1/2-x,-y,1/2+z
3 3/4-y,1/4+x,1/4+z
4 3/4+y,3/4-x,3/4+z
5 1/2+x,1/2+y,1/2+z
6 -x,1/2-y,z
7 1/4-y,3/4+x,3/4+z
8 1/4+y,1/4-x,1/4+z
9 -x,-y,-z
10 1/2+x,y,1/2-z
11 1/4+y,3/4-x,3/4-z
12 1/4-y,1/4+x,1/4-z
13 1/2-x,1/2-y,1/2-z
14 x,1/2+y,-z
15 3/4+y,1/4-x,1/4-z
16 3/4-y,3/4+x,3/4-z
_cell_length_a                   21.499(4)
_cell_length_b                   21.499(4)
_cell_length_c                   9.410(3)
_cell_angle_alpha                90
_cell_angle_beta                 90
_cell_angle_gamma                90
_cell_volume                     4349.37
loop_
_atom_site_label
_atom_site_type_symbol
_atom_site_fract_x
_atom_site_fract_y
_atom_site_fract_z
O1 O 0.5602(3) 0.8686(4) 0.1969(17)
H1 H 0.537(5) 0.861(6) 0.115(6)
H2 H 0.541(5) 0.854(4) 0.280(6)
C1 C 0.5154(4) 0.8485(4) 0.5537(17)
C2 C 0.4408(4) 0.7603(4) 0.4297(17)
C3 C 0.6711(5) 1.0025(5) 0.2435(19)
H3 H 0.6974 0.9833 0.1786
C4 C 0.6809(6) 1.0560(6) 0.313(2)
H4 H 0.7163 1.0807 0.3077
C5 C 0.6272(4) 1.0681(5) 0.3958(17)
H5 H 0.6209 1.1032 0.4518
C6 C 0.4266(6) 1.0180(6) 0.076(3)
H6 H 0.4208 1.0439 -0.0024
C7 C 0.4105(5) 0.9570(5) 0.082(2)
H7 H 0.3931 0.9321 0.0120
C8 C 0.4263(5) 0.9413(5) 0.219(2)
H8 H 0.4198 0.9021 0.2580
Mn1 Mn 0.5000 1.0000 0.5000
N1 N 0.5208(4) 0.8984(4) 0.5207(14)
N2 N 0.4110(4) 0.7668(5) 0.3303(18)
N3 N 0.5874(4) 1.0216(4) 0.3809(13)
N4 N 0.6138(4) 0.9818(4) 0.2887(16)
H9 H 0.5970 0.9476 0.2612
N5 N 0.4515(4) 0.9874(4) 0.2877(15)
N6 N 0.4515(5) 1.0344(4) 0.1967(19)
H10 H 0.4659 1.0709 0.2148
Nb1 Nb 0.5000 0.7500 0.6250
C1E C 0.4846(4) 0.6515(4) 0.5537(17)
C2E C 0.5592(4) 0.7397(4) 0.4297(17)
C3E C 0.3289(5) 0.4975(5) 0.2435(19)
H3E H 0.3026 0.5167 0.1786
C4E C 0.3191(6) 0.4440(6) 0.313(2)
H4E H 0.2837 0.4193 0.3077
C5E C 0.3728(4) 0.4319(5) 0.3958(17)
H5E H 0.3791 0.3968 0.4518
C6E C 0.5734(6) 0.4820(6) 0.076(3)
H6E H 0.5792 0.4561 -0.0024
C7E C 0.5895(5) 0.5430(5) 0.082(2)
H7E H 0.6069 0.5679 0.0120
C8E C 0.5737(5) 0.5587(5) 0.219(2)
H8E H 0.5802 0.5979 0.2580
Mn1E Mn 0.5000 0.5000 0.5000
N1E N 0.4792(4) 0.6016(4) 0.5207(14)
N2E N 0.5890(4) 0.7332(5) 0.3303(18)
N3E N 0.4126(4) 0.4784(4) 0.3809(13)
N4E N 0.3862(4) 0.5182(4) 0.2887(16)
H9E H 0.4030 0.5524 0.2612
N5E N 0.5485(4) 0.5126(4) 0.2877(15)
N6E N 0.5485(5) 0.4656(4) 0.1967(19)
H10E H 0.5341 0.4291 0.2148
C1K C 0.4015(4) 0.7654(4) 0.6963(17)
C2K C 0.4897(4) 0.6908(4) 0.8203(17)
N1K N 0.3516(4) 0.7708(4) 0.7293(14)
N2K N 0.4832(5) 0.6610(4) 0.9197(18)
C1N C 0.5985(4) 0.7346(4) 0.6963(17)
C2N C 0.5103(4) 0.8092(4) 0.8203(17)
N1N N 0.6484(4) 0.7292(4) 0.7293(14)
N2N N 0.5168(5) 0.8390(4) 0.9197(18)
C3H C 0.3289(5) 0.9975(5) 0.7565(19)
H3H H 0.3026 1.0167 0.8214
C4H C 0.3191(6) 0.9440(6) 0.687(2)
H4H H 0.2837 0.9193 0.6923
C5H C 0.3728(4) 0.9319(5) 0.6042(17)
H5H H 0.3791 0.8968 0.5482
N3H N 0.4126(4) 0.9784(4) 0.6191(13)
N4H N 0.3862(4) 1.0182(4) 0.7113(16)
H9H H 0.4030 1.0524 0.7388
C6H C 0.5734(6) 0.9820(6) 0.924(3)
H6H H 0.5792 0.9561 1.0024
C7H C 0.5895(5) 1.0430(5) 0.918(2)
H7H H 0.6069 1.0679 0.9880
C8H C 0.5737(5) 1.0587(5) 0.781(2)
H8H H 0.5802 1.0979 0.7420
N5H N 0.5485(4) 1.0126(4) 0.7123(15)
N6H N 0.5485(5) 0.9656(4) 0.8033(19)
H10H H 0.5341 0.9291 0.7852
C3M C 0.6711(5) 0.5025(5) 0.7565(19)
H3M H 0.6974 0.4833 0.8214
C4M C 0.6809(6) 0.5560(6) 0.687(2)
H4M H 0.7163 0.5807 0.6923
C5M C 0.6272(4) 0.5681(5) 0.6042(17)
H5M H 0.6209 0.6032 0.5482
N3M N 0.5874(4) 0.5216(4) 0.6191(13)
N4M N 0.6138(4) 0.4818(4) 0.7113(16)
H9M H 0.5970 0.4476 0.7388
C6M C 0.4266(6) 0.5180(6) 0.924(3)
H6M H 0.4208 0.5439 1.0024
C7M C 0.4105(5) 0.4570(5) 0.918(2)
H7M H 0.3931 0.4321 0.9880
C8M C 0.4263(5) 0.4413(5) 0.781(2)
H8M H 0.4198 0.4021 0.7420
N5M N 0.4515(4) 0.4874(4) 0.7123(15)
N6M N 0.4515(5) 0.5344(4) 0.8033(19)
H10M H 0.4659 0.5709 0.7852
Mn1B Mn 0.7500 0.7500 0.7500
Mn1G Mn 0.2500 0.7500 0.7500
N1H N 0.4792(4) 1.1016(4) 0.4793(14)
N1M N 0.5208(4) 0.3984(4) 0.4793(14)
loop_
_geom_bond_atom_site_label_1
_geom_bond_atom_site_label_2
_geom_bond_site_symmetry_1
_geom_bond_site_symmetry_2
O1 H1 1_555 1_555
H2 O1 1_555 1_555
C1 N1 1_555 1_555
C2 N2 1_555 1_555
C3 H3 1_555 1_555
C4 C3 1_555 1_555
H4 C4 1_555 1_555
C5 C4 1_555 1_555
H5 C5 1_555 1_555
C6 H6 1_555 1_555
C7 C6 1_555 1_555
H7 C7 1_555 1_555
C8 C7 1_555 1_555
H8 C8 1_555 1_555
Mn1 N1 1_555 1_555
N3 C5 1_555 1_555
N4 C3 1_555 1_555
H9 N4 1_555 1_555
N5 C8 1_555 1_555
N6 C6 1_555 1_555
H10 N6 1_555 1_555
Nb1 C1 1_555 1_555
C1E Nb1 1_555 1_555
C2E Nb1 1_555 1_555
C3E H3E 1_555 1_555
C4E C3E 1_555 1_555
H4E C4E 1_555 1_555
C5E C4E 1_555 1_555
H5E C5E 1_555 1_555
C6E H6E 1_555 1_555
C7E C6E 1_555 1_555
H7E C7E 1_555 1_555
C8E C7E 1_555 1_555
H8E C8E 1_555 1_555
Mn1E N1E 1_555 1_555
N1E C1E 1_555 1_555
N2E C2E 1_555 1_555
N3E C5E 1_555 1_555
N4E C3E 1_555 1_555
H9E N4E 1_555 1_555
N5E C8E 1_555 1_555
N6E C6E 1_555 1_555
H10E N6E 1_555 1_555
C1K Nb1 1_555 1_555
C2K Nb1 1_555 1_555
N1K C1K 1_555 1_555
N2K C2K 1_555 1_555
C1N Nb1 1_555 1_555
C2N Nb1 1_555 1_555
N1N C1N 1_555 1_555
N2N C2N 1_555 1_555
C3H H3H 1_555 1_555
C4H C3H 1_555 1_555
H4H C4H 1_555 1_555
C5H C4H 1_555 1_555
H5H C5H 1_555 1_555
N3H Mn1 1_555 1_555
N4H C3H 1_555 1_555
H9H N4H 1_555 1_555
C6H H6H 1_555 1_555
C7H C6H 1_555 1_555
H7H C7H 1_555 1_555
C8H C7H 1_555 1_555
H8H C8H 1_555 1_555
N5H Mn1 1_555 1_555
N6H C6H 1_555 1_555
H10H N6H 1_555 1_555
C3M H3M 1_555 1_555
C4M C3M 1_555 1_555
H4M C4M 1_555 1_555
C5M C4M 1_555 1_555
H5M C5M 1_555 1_555
N3M Mn1E 1_555 1_555
N4M C3M 1_555 1_555
H9M N4M 1_555 1_555
C6M H6M 1_555 1_555
C7M C6M 1_555 1_555
H7M C7M 1_555 1_555
C8M C7M 1_555 1_555
H8M C8M 1_555 1_555
N5M Mn1E 1_555 1_555
N6M C6M 1_555 1_555
H10M N6M 1_555 1_555
Mn1B N1N 1_555 1_555
Mn1G N1K 1_555 1_555
N1H Mn1 1_555 1_555
N1M Mn1E 1_555 1_555
C2 Nb1 1_555 1_555
Mn1 N3 1_555 1_555
Mn1 N5 1_555 1_555
N3 N4 1_555 1_555
N5 N6 1_555 1_555
Mn1E N3E 1_555 1_555
Mn1E N5E 1_555 1_555
N3E N4E 1_555 1_555
N5E N6E 1_555 1_555
C5H N3H 1_555 1_555
N3H N4H 1_555 1_555
C8H N5H 1_555 1_555
N5H N6H 1_555 1_555
C5M N3M 1_555 1_555
N3M N4M 1_555 1_555
C8M N5M 1_555 1_555
N5M N6M 1_555 1_555

#END
