
#######################################################################
#
#                 Cambridge Crystallographic Data Centre
#                                CCDC 
#
#######################################################################
#
# If this CIF has been generated from an entry in the Cambridge 
# Structural Database, then it will include bibliographic, chemical, 
# crystal, experimental, refinement or atomic coordinate data resulting 
# from the CCDC's data processing and validation procedures.
#
#######################################################################

data_UJUJOZ
_symmetry_cell_setting           triclinic
_symmetry_space_group_name_H-M   'P -1'
_symmetry_Int_Tables_number      2
_space_group_name_Hall           '-P 1'
loop_
_symmetry_equiv_pos_site_id
_symmetry_equiv_pos_as_xyz
1 x,y,z
2 -x,-y,-z
_cell_length_a                   10.2150(3)
_cell_length_b                   10.4799(4)
_cell_length_c                   12.6602(4)
_cell_angle_alpha                71.072(10)
_cell_angle_beta                 68.047(10)
_cell_angle_gamma                69.032(10)
_cell_volume                     1145.01
loop_
_atom_site_label
_atom_site_type_symbol
_atom_site_fract_x
_atom_site_fract_y
_atom_site_fract_z
Cu1 Cu 0.94048(4) 0.50165(4) 0.38150(3)
S1 S 0.80554(9) 0.96124(9) 0.14604(8)
S2 S 1.11506(9) 0.89750(9) 0.13438(7)
O1 O 0.7652(2) 0.6547(2) 0.41366(19)
O2 O 0.6201(3) 0.8694(2) 0.3756(2)
O3 O 1.0626(2) 0.5965(2) 0.39988(19)
O4 O 1.1671(3) 0.7661(2) 0.3601(2)
O5 O 0.9637(3) 0.5680(2) 0.1802(2)
N1 N 1.1070(3) 0.3300(3) 0.3578(2)
N2 N 0.8291(3) 0.3717(3) 0.3913(2)
N3 N 1.0867(4) 0.6399(3) -0.0087(3)
C1 C 0.8637(3) 0.8351(3) 0.2625(3)
C2 C 1.0035(3) 0.8072(3) 0.2573(3)
C3 C 0.9842(4) 0.9704(3) 0.0565(3)
C4 C 0.7395(4) 0.7828(3) 0.3588(3)
C5 C 1.0834(3) 0.7170(3) 0.3466(3)
C6 C 1.2470(4) 0.3179(4) 0.3425(3)
H1 H 1.2728 0.3956 0.3422
C7 C 1.3561(4) 0.1941(4) 0.3268(4)
H2 H 1.4540 0.1883 0.3161
C8 C 1.3190(4) 0.0817(4) 0.3273(4)
H3 H 1.3912 -0.0032 0.3178
C9 C 1.1746(4) 0.0926(4) 0.3417(3)
H4 H 1.1480 0.0160 0.3408
C10 C 1.0703(4) 0.2178(3) 0.3573(3)
C11 C 0.6839(4) 0.4017(3) 0.4147(3)
H5 H 0.6269 0.4927 0.4235
C12 C 0.6142(4) 0.3041(4) 0.4265(3)
H6 H 0.5117 0.3278 0.4440
C13 C 0.6992(4) 0.1700(4) 0.4117(3)
H7 H 0.6551 0.1016 0.4189
C14 C 0.8498(4) 0.1393(3) 0.3863(3)
H8 H 0.9094 0.0499 0.3749
C15 C 0.9118(4) 0.2410(3) 0.3779(3)
C16 C 1.0777(4) 0.5813(3) 0.1021(3)
H9 H 1.1652 0.5469 0.1232
C17 C 0.9584(5) 0.6993(4) -0.0487(4)
H10 H 0.8720 0.6905 0.0172
H11 H 0.9663 0.6498 -0.1046
H12 H 0.9504 0.7975 -0.0857
C18 C 1.2272(5) 0.6441(5) -0.0957(4)
H13 H 1.3045 0.6015 -0.0582
H14 H 1.2271 0.7407 -0.1340
H15 H 1.2437 0.5930 -0.1532
Cu1A Cu 1.05952(4) 1.49835(4) -0.38150(3)
Cu1A_2 Cu 1.05952(4) 0.49835(4) 0.61850(3)
Cu1_2 Cu 0.94048(4) 1.50165(4) -0.61850(3)
S1A S 1.19446(9) 1.03876(9) -0.14604(8)
S2A S 0.88494(9) 1.10250(9) -0.13438(7)
O1A O 1.2348(2) 1.3453(2) -0.41366(19)
O2A O 1.3799(3) 1.1306(2) -0.3756(2)
O3A O 0.9374(2) 1.4035(2) -0.39988(19)
O3A_2 O 0.9374(2) 0.4035(2) 0.60012(19)
O3_2 O 1.0626(2) 1.5965(2) -0.60012(19)
O4A O 0.8329(3) 1.2339(2) -0.3601(2)
O5A O 1.0363(3) 1.4320(2) -0.1802(2)
N1A N 0.8930(3) 1.6700(3) -0.3578(2)
N2A N 1.1709(3) 1.6283(3) -0.3913(2)
N3A N 0.9133(4) 1.3601(3) 0.0087(3)
C1A C 1.1363(3) 1.1649(3) -0.2625(3)
C2A C 0.9965(3) 1.1928(3) -0.2573(3)
C3A C 1.0158(4) 1.0296(3) -0.0565(3)
C4A C 1.2605(4) 1.2172(3) -0.3588(3)
C5A C 0.9166(3) 1.2830(3) -0.3466(3)
C6A C 0.7530(4) 1.6821(4) -0.3425(3)
H1A H 0.7272 1.6044 -0.3422
C7A C 0.6439(4) 1.8059(4) -0.3268(4)
H2A H 0.5460 1.8117 -0.3161
C8A C 0.6810(4) 1.9183(4) -0.3273(4)
H3A H 0.6088 2.0032 -0.3178
C9A C 0.8254(4) 1.9074(4) -0.3417(3)
H4A H 0.8520 1.9840 -0.3408
C10A C 0.9297(4) 1.7822(3) -0.3573(3)
C11A C 1.3161(4) 1.5983(3) -0.4147(3)
H5A H 1.3731 1.5073 -0.4235
C12A C 1.3858(4) 1.6959(4) -0.4265(3)
H6A H 1.4883 1.6722 -0.4440
C13A C 1.3008(4) 1.8300(4) -0.4117(3)
H7A H 1.3449 1.8984 -0.4189
C14A C 1.1502(4) 1.8607(3) -0.3863(3)
H8A H 1.0906 1.9501 -0.3749
C15A C 1.0882(4) 1.7590(3) -0.3779(3)
C16A C 0.9223(4) 1.4187(3) -0.1021(3)
H9A H 0.8348 1.4531 -0.1232
C17A C 1.0416(5) 1.3007(4) 0.0487(4)
H10A H 1.1280 1.3095 -0.0172
H11A H 1.0337 1.3502 0.1046
H12A H 1.0496 1.2025 0.0857
C18A C 0.7728(5) 1.3559(5) 0.0957(4)
H13A H 0.6955 1.3985 0.0582
H14A H 0.7729 1.2593 0.1340
H15A H 0.7563 1.4070 0.1532
O6 O 0.5923(4) 0.4726(4) 0.8576(3)
N4 N 0.4999(4) 0.2955(4) 0.8815(4)
C19 C 0.5629(6) 0.4023(6) 0.8181(6)
H16 H 0.5847 0.4214 0.7364
C20 C 0.4660(7) 0.2638(7) 1.0063(6)
H17 H 0.4886 0.3311 1.0296
H18 H 0.5238 0.1702 1.0325
H19 H 0.3626 0.2685 1.0412
C21 C 0.4770(9) 0.2170(11) 0.8225(9)
H20 H 0.5060 0.2560 0.7392
H21 H 0.3740 0.2197 0.8486
H22 H 0.5351 0.1207 0.8388
loop_
_geom_bond_atom_site_label_1
_geom_bond_atom_site_label_2
_geom_bond_site_symmetry_1
_geom_bond_site_symmetry_2
Cu1 O1 1_555 1_555
S1 C1 1_555 1_555
S2 C2 1_555 1_555
O1 C4 1_555 1_555
O2 C4 1_555 1_555
O3 Cu1 1_555 1_555
O4 C5 1_555 1_555
O5 Cu1 1_555 1_555
O6 C19 1_555 1_555
N1 Cu1 1_555 1_555
N2 Cu1 1_555 1_555
N3 C16 1_555 1_555
N4 C19 1_555 1_555
C1 C2 1_555 1_555
C2 C5 1_555 1_555
C3 S1 1_555 1_555
C4 C1 1_555 1_555
C5 O3 1_555 1_555
C6 N1 1_555 1_555
H1 C6 1_555 1_555
C7 C6 1_555 1_555
H2 C7 1_555 1_555
C8 C7 1_555 1_555
H3 C8 1_555 1_555
C9 C8 1_555 1_555
H4 C9 1_555 1_555
C10 N1 1_555 1_555
C11 N2 1_555 1_555
H5 C11 1_555 1_555
C12 C11 1_555 1_555
H6 C12 1_555 1_555
C13 C12 1_555 1_555
H7 C13 1_555 1_555
C14 C13 1_555 1_555
H8 C14 1_555 1_555
C15 N2 1_555 1_555
C16 O5 1_555 1_555
H9 C16 1_555 1_555
C17 N3 1_555 1_555
H10 C17 1_555 1_555
H11 C17 1_555 1_555
H12 C17 1_555 1_555
C18 N3 1_555 1_555
H13 C18 1_555 1_555
H14 C18 1_555 1_555
H15 C18 1_555 1_555
C19 H16 1_555 1_555
C20 N4 1_555 1_555
H17 C20 1_555 1_555
H18 C20 1_555 1_555
H19 C20 1_555 1_555
C21 N4 1_555 1_555
H20 C21 1_555 1_555
H21 C21 1_555 1_555
H22 C21 1_555 1_555
Cu1A O1A 1_555 1_555
Cu1A_2 O3 1_555 1_555
Cu1_2 O3A 1_555 1_555
S1A C1A 1_555 1_555
S2A C2A 1_555 1_555
O1A C4A 1_555 1_555
O2A C4A 1_555 1_555
O3A Cu1A 1_555 1_555
O3A_2 Cu1 1_555 1_555
O3_2 Cu1A 1_555 1_555
O4A C5A 1_555 1_555
O5A Cu1A 1_555 1_555
N1A Cu1A 1_555 1_555
N2A Cu1A 1_555 1_555
N3A C16A 1_555 1_555
C1A C2A 1_555 1_555
C2A C5A 1_555 1_555
C3A C3 1_555 1_555
C4A C1A 1_555 1_555
C5A O3A 1_555 1_555
C6A N1A 1_555 1_555
H1A C6A 1_555 1_555
C7A C6A 1_555 1_555
H2A C7A 1_555 1_555
C8A C7A 1_555 1_555
H3A C8A 1_555 1_555
C9A C8A 1_555 1_555
H4A C9A 1_555 1_555
C10A N1A 1_555 1_555
C11A N2A 1_555 1_555
H5A C11A 1_555 1_555
C12A C11A 1_555 1_555
H6A C12A 1_555 1_555
C13A C12A 1_555 1_555
H7A C13A 1_555 1_555
C14A C13A 1_555 1_555
H8A C14A 1_555 1_555
C15A N2A 1_555 1_555
C16A O5A 1_555 1_555
H9A C16A 1_555 1_555
C17A N3A 1_555 1_555
H10A C17A 1_555 1_555
H11A C17A 1_555 1_555
H12A C17A 1_555 1_555
C18A N3A 1_555 1_555
H13A C18A 1_555 1_555
H14A C18A 1_555 1_555
H15A C18A 1_555 1_555
S2 C3 1_555 1_555
C9 C10 1_555 1_555
C10 C15 1_555 1_555
C14 C15 1_555 1_555
Cu1A_2 O3A_2 1_555 1_555
Cu1_2 O3_2 1_555 1_555
S1A C3A 1_555 1_555
S2A C3A 1_555 1_555
C9A C10A 1_555 1_555
C10A C15A 1_555 1_555
C14A C15A 1_555 1_555

#END
