
#######################################################################
#
#                 Cambridge Crystallographic Data Centre
#                                CCDC 
#
#######################################################################
#
# If this CIF has been generated from an entry in the Cambridge 
# Structural Database, then it will include bibliographic, chemical, 
# crystal, experimental, refinement or atomic coordinate data resulting 
# from the CCDC's data processing and validation procedures.
#
#######################################################################

data_UJUJUE
_symmetry_cell_setting           hexagonal
_symmetry_space_group_name_H-M   'P 65 2 2'
_symmetry_Int_Tables_number      179
_space_group_name_Hall           "P 65 2' (0,0,1)"
loop_
_symmetry_equiv_pos_site_id
_symmetry_equiv_pos_as_xyz
1 x,y,z
2 x-y,x,5/6+z
3 -y,x-y,2/3+z
4 -x,-y,1/2+z
5 -x+y,-x,1/3+z
6 y,-x+y,1/6+z
7 x-y,-y,-z
8 -x,-x+y,1/3-z
9 y,x,2/3-z
10 -y,-x,1/6-z
11 -x+y,y,1/2-z
12 x,x-y,5/6-z
_cell_length_a                   12.7708(7)
_cell_length_b                   12.7708(7)
_cell_length_c                   62.460(5)
_cell_angle_alpha                90
_cell_angle_beta                 90
_cell_angle_gamma                120
_cell_volume                     8822.04
loop_
_atom_site_label
_atom_site_type_symbol
_atom_site_fract_x
_atom_site_fract_y
_atom_site_fract_z
Tb1 Tb 0.92856(9) 0.46163(10) 0.005530(12)
O1 O 0.8304(13) 0.3734(13) -0.0265(2)
O2 O 1.0779(15) 0.6528(13) 0.0193(3)
O3 O 0.7540(11) 0.4757(12) 0.00152(18)
O4 O 0.9882(14) 0.3882(14) 0.0348(2)
O6 O 0.761(3) 0.240(3) -0.0524(3)
O7 O 1.2233(18) 0.8419(16) 0.0170(3)
O8 O 0.5876(11) 0.4826(13) 0.0119(3)
O9 O 0.9587(14) 0.2594(16) 0.0607(2)
N1 N 0.9508(14) 0.2701(14) -0.0088(2)
N2 N 0.9924(16) 0.6567(17) -0.0178(3)
N3 N 0.8450(16) 0.5119(16) 0.0403(3)
N4 N 0.7594(15) 0.2621(16) 0.0210(2)
C1 C 1.0199(18) 0.2284(18) -0.0020(3)
H1 H 1.0575 0.2531 0.0114
C2 C 0.945(2) 0.657(2) -0.0377(3)
H2 H 0.8784 0.5853 -0.0430
C3 C 0.896(2) 0.535(2) 0.0601(3)
H3 H 0.9678 0.5335 0.0622
C4 C 0.640(2) 0.205(2) 0.0151(4)
H4 H 0.6129 0.2378 0.0043
C5 C 1.038(2) 0.153(2) -0.0135(3)
H5 H 1.0966 0.1349 -0.0089
C6 C 0.993(3) 0.759(3) -0.0496(5)
H6 H 0.9591 0.7581 -0.0629
C7 C 0.846(2) 0.561(3) 0.0768(4)
H7 H 0.8886 0.5905 0.0897
C8 C 0.561(2) 0.101(2) 0.0254(4)
H8 H 0.4821 0.0544 0.0199
C9 C 0.977(4) 0.101(4) -0.0314(7)
H9 H 0.9870 0.0416 -0.0384
C10 C 1.085(3) 0.857(3) -0.0431(4)
H10 H 1.1192 0.9279 -0.0515
C11 C 0.729(2) 0.544(3) 0.0747(4)
H11 H 0.6879 0.5503 0.0867
C12 C 0.592(2) 0.060(2) 0.0439(4)
H12 H 0.5352 -0.0068 0.0518
C13 C 0.902(2) 0.135(2) -0.0390(4)
H13 H 0.8538 0.0968 -0.0510
C14 C 1.130(2) 0.855(2) -0.0236(4)
H14 H 1.1961 0.9274 -0.0184
C15 C 0.675(2) 0.518(2) 0.0548(3)
H15 H 0.5978 0.5090 0.0528
C16 C 0.708(2) 0.124(2) 0.0495(4)
H16 H 0.7337 0.1016 0.0619
C17 C 0.8975(17) 0.2301(17) -0.0284(3)
C18 C 1.0890(17) 0.7618(16) -0.0118(3)
C19 C 0.7371(19) 0.5074(18) 0.0385(3)
C20 C 0.789(2) 0.219(2) 0.0378(4)
C21 C 0.828(2) 0.285(2) -0.0364(3)
C22 C 1.1324(19) 0.7473(19) 0.0106(3)
C23 C 0.6855(15) 0.4809(15) 0.0166(3)
C24 C 0.9225(19) 0.2944(19) 0.0448(3)
O8F O 1.1050(17) 0.5174(13) -0.0119(3)
Tb1F Tb 0.46693(13) 0.53837(10) -0.005530(12)
O5 O 1.157(2) 0.451(2) 0.0761(3)
O10 O 0.9391(10) 0.0610(10) 0.0833
O11 O 0.924(3) 0.4622(17) -0.0833
N5 N 1.246(2) 0.621(2) 0.0432(4)
loop_
_geom_bond_atom_site_label_1
_geom_bond_atom_site_label_2
_geom_bond_site_symmetry_1
_geom_bond_site_symmetry_2
Tb1 O1 1_555 1_555
O1 C21 1_555 1_555
O2 Tb1 1_555 1_555
O3 Tb1 1_555 1_555
O4 Tb1 1_555 1_555
O6 C21 1_555 1_555
O7 C22 1_555 1_555
O8 C23 1_555 1_555
O9 C24 1_555 1_555
N1 Tb1 1_555 1_555
N2 Tb1 1_555 1_555
N3 Tb1 1_555 1_555
N4 Tb1 1_555 1_555
C1 N1 1_555 1_555
H1 C1 1_555 1_555
C2 N2 1_555 1_555
H2 C2 1_555 1_555
C3 N3 1_555 1_555
H3 C3 1_555 1_555
C4 N4 1_555 1_555
H4 C4 1_555 1_555
C5 C1 1_555 1_555
H5 C5 1_555 1_555
C6 C2 1_555 1_555
H6 C6 1_555 1_555
C7 C3 1_555 1_555
H7 C7 1_555 1_555
C8 C4 1_555 1_555
H8 C8 1_555 1_555
C9 C5 1_555 1_555
H9 C9 1_555 1_555
C10 C6 1_555 1_555
H10 C10 1_555 1_555
C11 C7 1_555 1_555
H11 C11 1_555 1_555
C12 C8 1_555 1_555
H12 C12 1_555 1_555
C13 C9 1_555 1_555
H13 C13 1_555 1_555
C14 C10 1_555 1_555
H14 C14 1_555 1_555
C15 C11 1_555 1_555
H15 C15 1_555 1_555
C16 C12 1_555 1_555
H16 C16 1_555 1_555
C17 N1 1_555 1_555
C18 N2 1_555 1_555
C19 N3 1_555 1_555
C20 N4 1_555 1_555
C21 C17 1_555 1_555
C22 O2 1_555 1_555
C23 O3 1_555 1_555
C24 O4 1_555 1_555
O8F Tb1 1_555 1_555
Tb1F O8 1_555 1_555
C13 C17 1_555 1_555
C14 C18 1_555 1_555
C15 C19 1_555 1_555
C16 C20 1_555 1_555
C18 C22 1_555 1_555
C19 C23 1_555 1_555
C20 C24 1_555 1_555

#END
