
#######################################################################
#
#                 Cambridge Crystallographic Data Centre
#                                CCDC 
#
#######################################################################
#
# If this CIF has been generated from an entry in the Cambridge 
# Structural Database, then it will include bibliographic, chemical, 
# crystal, experimental, refinement or atomic coordinate data resulting 
# from the CCDC's data processing and validation procedures.
#
#######################################################################

data_UJUJUF01
_symmetry_cell_setting           tetragonal
_symmetry_space_group_name_H-M   'I 41/a'
_symmetry_Int_Tables_number      88
_space_group_name_Hall           '-I 4ad'
loop_
_symmetry_equiv_pos_site_id
_symmetry_equiv_pos_as_xyz
1 x,y,z
2 1/2-x,-y,1/2+z
3 3/4-y,1/4+x,1/4+z
4 3/4+y,3/4-x,3/4+z
5 1/2+x,1/2+y,1/2+z
6 -x,1/2-y,z
7 1/4-y,3/4+x,3/4+z
8 1/4+y,1/4-x,1/4+z
9 -x,-y,-z
10 1/2+x,y,1/2-z
11 1/4+y,3/4-x,3/4-z
12 1/4-y,1/4+x,1/4-z
13 1/2-x,1/2-y,1/2-z
14 x,1/2+y,-z
15 3/4+y,1/4-x,1/4-z
16 3/4-y,3/4+x,3/4-z
_cell_length_a                   21.0887(5)
_cell_length_b                   21.0887(5)
_cell_length_c                   9.254(3)
_cell_angle_alpha                90
_cell_angle_beta                 90
_cell_angle_gamma                90
_cell_volume                     4115.56
loop_
_atom_site_label
_atom_site_type_symbol
_atom_site_fract_x
_atom_site_fract_y
_atom_site_fract_z
Nb1 Nb 0.5000 0.7500 0.6250
Mn1 Mn 0.5000 1.0000 0.5000
N1 N 0.54827(19) 0.98584(19) 0.2851(11)
C1 C 0.5597(3) 0.7623(2) 0.4325(17)
N2 N 0.47507(19) 0.89996(18) 0.5160(12)
N3 N 0.5484(3) 1.0333(2) 0.1867(14)
H1 H 0.5322 1.0701 0.2024
N4 N 0.58669(19) 0.97456(18) 0.6201(9)
C2 C 0.6736(2) 0.9948(3) 0.7473(15)
H2 H 0.7023 1.0151 0.8079
C3 C 0.4817(2) 0.8487(2) 0.5548(13)
C4 C 0.6279(2) 0.9286(2) 0.5996(15)
H3 H 0.6208 0.8934 0.5411
C5 C 0.5748(4) 1.0181(3) 0.070(2)
H4 H 0.5813 1.0454 -0.0076
C6 C 0.5924(3) 0.9561(3) 0.0724(17)
H5 H 0.6111 0.9319 0.0001
N5 N 0.5892(3) 0.7680(2) 0.3235(16)
C7 C 0.6829(3) 0.9391(2) 0.6760(14)
H6 H 0.7188 0.9136 0.6784
C8 C 0.5754(3) 0.9390(3) 0.2079(17)
H7 H 0.5819 0.8984 0.2445
N6 N 0.6157(2) 1.0145(2) 0.7134(13)
H8 H 0.5987 1.0485 0.7469
Mn1E Mn 0.5000 0.5000 0.5000
N1E N 0.45173(19) 0.51416(19) 0.2851(11)
C1E C 0.4403(3) 0.7377(2) 0.4325(17)
N2E N 0.52493(19) 0.60004(18) 0.5160(12)
N3E N 0.4516(3) 0.4667(2) 0.1867(14)
H1E H 0.4678 0.4299 0.2024
N4E N 0.41331(19) 0.52544(18) 0.6201(9)
C2E C 0.3264(2) 0.5052(3) 0.7473(15)
H2E H 0.2977 0.4849 0.8079
C3E C 0.5183(2) 0.6513(2) 0.5548(13)
C4E C 0.3721(2) 0.5714(2) 0.5996(15)
H3E H 0.3792 0.6066 0.5411
C5E C 0.4252(4) 0.4819(3) 0.070(2)
H4E H 0.4187 0.4546 -0.0076
C6E C 0.4076(3) 0.5439(3) 0.0724(17)
H5E H 0.3889 0.5681 0.0001
N5E N 0.4108(3) 0.7320(2) 0.3235(16)
C7E C 0.3171(3) 0.5609(2) 0.6760(14)
H6E H 0.2812 0.5864 0.6784
C8E C 0.4246(3) 0.5610(3) 0.2079(17)
H7E H 0.4181 0.6016 0.2445
N6E N 0.3843(2) 0.4855(2) 0.7134(13)
H8E H 0.4013 0.4515 0.7469
C1K C 0.4877(2) 0.8097(3) 0.8175(17)
N2K N 0.35004(18) 0.72507(19) 0.7340(12)
C3K C 0.4013(2) 0.7317(2) 0.6952(13)
N5K N 0.4820(2) 0.8392(3) 0.9265(16)
C1N C 0.5123(2) 0.6903(3) 0.8175(17)
N2N N 0.64996(18) 0.77493(19) 0.7340(12)
C3N C 0.5987(2) 0.7683(2) 0.6952(13)
N5N N 0.5180(2) 0.6608(3) 0.9265(16)
N1H N 0.45173(19) 1.01416(19) 0.7149(11)
N3H N 0.4516(3) 0.9667(2) 0.8133(14)
H1H H 0.4678 0.9299 0.7976
C5H C 0.4252(4) 0.9819(3) 0.930(2)
H4H H 0.4187 0.9546 1.0076
C6H C 0.4076(3) 1.0439(3) 0.9276(17)
H5H H 0.3889 1.0681 0.9999
C8H C 0.4246(3) 1.0610(3) 0.7921(17)
H7H H 0.4181 1.1016 0.7555
N4H N 0.41331(19) 1.02544(18) 0.3799(9)
C2H C 0.3264(2) 1.0052(3) 0.2527(15)
H2H H 0.2977 0.9849 0.1921
C4H C 0.3721(2) 1.0714(2) 0.4004(15)
H3H H 0.3792 1.1066 0.4589
C7H C 0.3171(3) 1.0609(2) 0.3240(14)
H6H H 0.2812 1.0864 0.3216
N6H N 0.3843(2) 0.9855(2) 0.2866(13)
H8H H 0.4013 0.9515 0.2531
N1M N 0.54827(19) 0.48584(19) 0.7149(11)
N3M N 0.5484(3) 0.5333(2) 0.8133(14)
H1M H 0.5322 0.5701 0.7976
C5M C 0.5748(4) 0.5181(3) 0.930(2)
H4M H 0.5813 0.5454 1.0076
C6M C 0.5924(3) 0.4561(3) 0.9276(17)
H5M H 0.6111 0.4319 0.9999
C8M C 0.5754(3) 0.4390(3) 0.7921(17)
H7M H 0.5819 0.3984 0.7555
N4M N 0.58669(19) 0.47456(18) 0.3799(9)
C2M C 0.6736(2) 0.4948(3) 0.2527(15)
H2M H 0.7023 0.5151 0.1921
C4M C 0.6279(2) 0.4286(2) 0.4004(15)
H3M H 0.6208 0.3934 0.4589
C7M C 0.6829(3) 0.4391(2) 0.3240(14)
H6M H 0.7188 0.4136 0.3216
N6M N 0.6157(2) 0.5145(2) 0.2866(13)
H8M H 0.5987 0.5485 0.2531
Mn1B Mn 0.7500 0.7500 0.7500
Mn1G Mn 0.2500 0.7500 0.7500
N2H N 0.52493(19) 1.10004(18) 0.4840(12)
N2M N 0.47507(19) 0.39996(18) 0.4840(12)
O1 O 0.6209(2) 0.8105(2) 0.0502(14)
H9 H 0.614(4) 0.798(4) -0.045(2)
H10 H 0.607(4) 0.790(3) 0.133(4)
loop_
_geom_bond_atom_site_label_1
_geom_bond_atom_site_label_2
_geom_bond_site_symmetry_1
_geom_bond_site_symmetry_2
Nb1 C1 1_555 1_555
Mn1 N1 1_555 1_555
N1 N3 1_555 1_555
C1 N5 1_555 1_555
N2 Mn1 1_555 1_555
N3 H1 1_555 1_555
N4 Mn1 1_555 1_555
C2 H2 1_555 1_555
C3 Nb1 1_555 1_555
C4 N4 1_555 1_555
H3 C4 1_555 1_555
C5 N3 1_555 1_555
H4 C5 1_555 1_555
C6 C5 1_555 1_555
H5 C6 1_555 1_555
C7 C2 1_555 1_555
H6 C7 1_555 1_555
C8 N1 1_555 1_555
H7 C8 1_555 1_555
N6 N4 1_555 1_555
H8 N6 1_555 1_555
O1 H9 1_555 1_555
H10 O1 1_555 1_555
Mn1E N1E 1_555 1_555
N1E N3E 1_555 1_555
C1E Nb1 1_555 1_555
N2E Mn1E 1_555 1_555
N3E H1E 1_555 1_555
N4E Mn1E 1_555 1_555
C2E H2E 1_555 1_555
C3E Nb1 1_555 1_555
C4E N4E 1_555 1_555
H3E C4E 1_555 1_555
C5E N3E 1_555 1_555
H4E C5E 1_555 1_555
C6E C5E 1_555 1_555
H5E C6E 1_555 1_555
N5E C1E 1_555 1_555
C7E C2E 1_555 1_555
H6E C7E 1_555 1_555
C8E N1E 1_555 1_555
H7E C8E 1_555 1_555
N6E N4E 1_555 1_555
H8E N6E 1_555 1_555
C1K Nb1 1_555 1_555
N2K C3K 1_555 1_555
C3K Nb1 1_555 1_555
N5K C1K 1_555 1_555
C1N Nb1 1_555 1_555
N2N C3N 1_555 1_555
C3N Nb1 1_555 1_555
N5N C1N 1_555 1_555
N1H Mn1 1_555 1_555
N3H N1H 1_555 1_555
H1H N3H 1_555 1_555
C5H N3H 1_555 1_555
H4H C5H 1_555 1_555
C6H C5H 1_555 1_555
H5H C6H 1_555 1_555
C8H N1H 1_555 1_555
H7H C8H 1_555 1_555
N4H Mn1 1_555 1_555
C2H H2H 1_555 1_555
C4H N4H 1_555 1_555
H3H C4H 1_555 1_555
C7H C2H 1_555 1_555
H6H C7H 1_555 1_555
N6H N4H 1_555 1_555
H8H N6H 1_555 1_555
N1M Mn1E 1_555 1_555
N3M N1M 1_555 1_555
H1M N3M 1_555 1_555
C5M N3M 1_555 1_555
H4M C5M 1_555 1_555
C6M C5M 1_555 1_555
H5M C6M 1_555 1_555
C8M N1M 1_555 1_555
H7M C8M 1_555 1_555
N4M Mn1E 1_555 1_555
C2M H2M 1_555 1_555
C4M N4M 1_555 1_555
H3M C4M 1_555 1_555
C7M C2M 1_555 1_555
H6M C7M 1_555 1_555
N6M N4M 1_555 1_555
H8M N6M 1_555 1_555
Mn1B N2N 1_555 1_555
Mn1G N2K 1_555 1_555
N2H Mn1 1_555 1_555
N2M Mn1E 1_555 1_555
N2 C3 1_555 1_555
C2 N6 1_555 1_555
C4 C7 1_555 1_555
C6 C8 1_555 1_555
N2E C3E 1_555 1_555
C2E N6E 1_555 1_555
C4E C7E 1_555 1_555
C6E C8E 1_555 1_555
C6H C8H 1_555 1_555
C2H N6H 1_555 1_555
C4H C7H 1_555 1_555
C6M C8M 1_555 1_555
C2M N6M 1_555 1_555
C4M C7M 1_555 1_555

#END
