
#######################################################################
#
#                 Cambridge Crystallographic Data Centre
#                                CCDC 
#
#######################################################################
#
# If this CIF has been generated from an entry in the Cambridge 
# Structural Database, then it will include bibliographic, chemical, 
# crystal, experimental, refinement or atomic coordinate data resulting 
# from the CCDC's data processing and validation procedures.
#
#######################################################################

data_UJUJIS
_symmetry_cell_setting           hexagonal
_symmetry_space_group_name_H-M   'P 65 2 2'
_symmetry_Int_Tables_number      179
_space_group_name_Hall           "P 65 2' (0,0,1)"
loop_
_symmetry_equiv_pos_site_id
_symmetry_equiv_pos_as_xyz
1 x,y,z
2 x-y,x,5/6+z
3 -y,x-y,2/3+z
4 -x,-y,1/2+z
5 -x+y,-x,1/3+z
6 y,-x+y,1/6+z
7 x-y,-y,-z
8 -x,-x+y,1/3-z
9 y,x,2/3-z
10 -y,-x,1/6-z
11 -x+y,y,1/2-z
12 x,x-y,5/6-z
_cell_length_a                   12.6063(6)
_cell_length_b                   12.6063(6)
_cell_length_c                   60.457(4)
_cell_angle_alpha                90
_cell_angle_beta                 90
_cell_angle_gamma                120
_cell_volume                     8320.56
loop_
_atom_site_label
_atom_site_type_symbol
_atom_site_fract_x
_atom_site_fract_y
_atom_site_fract_z
Eu1 Eu 0.09765(7) 0.52689(7) 0.003840(13)
Na1 Na -0.2024(7) 0.4128(9) 0.03474(14)
O2 O -0.168(2) 0.4912(19) 0.0703(3)
O3 O -0.0759(10) 0.3465(10) 0.01901(18)
O4 O 0.2891(9) 0.5196(9) 0.00338(17)
O5 O 0.0196(10) 0.5968(10) 0.03223(19)
O6 O 0.2119(12) 0.6109(12) -0.0281(2)
O7 O -0.2324(12) 0.1571(13) 0.0164(3)
O8 O 0.4487(9) 0.5238(11) 0.0193(2)
O9 O 0.0408(13) 0.7117(13) 0.0619(2)
O10 O 0.303(2) 0.750(2) -0.0547(4)
N1 N 0.0327(13) 0.3210(12) -0.0172(2)
N2 N 0.1634(14) 0.4666(15) 0.0408(2)
N3 N 0.2563(13) 0.7287(14) 0.0234(2)
N4 N 0.0930(13) 0.7227(13) -0.0127(2)
C1 C 0.085(2) 0.308(2) -0.0353(4)
H1 H 0.1599 0.3723 -0.0400
C2 C 0.098(2) 0.430(2) 0.0596(3)
H2 H 0.0184 0.4162 0.0593
C3 C 0.3727(19) 0.7966(18) 0.0170(3)
H3 H 0.3999 0.7727 0.0046
C4 C 0.0301(18) 0.7752(17) -0.0060(3)
H4 H -0.0096 0.7500 0.0076
C5 C 0.030(2) 0.198(2) -0.0477(4)
H5 H 0.0694 0.1901 -0.0601
C6 C 0.143(2) 0.411(2) 0.0801(4)
H6 H 0.0956 0.3895 0.0928
C7 C 0.4539(19) 0.902(2) 0.0283(3)
H7 H 0.5355 0.9470 0.0240
C8 C 0.019(2) 0.860(2) -0.0168(4)
H8 H -0.0267 0.8930 -0.0111
C9 C -0.072(2) 0.110(2) -0.0417(4)
H9 H -0.1104 0.0383 -0.0500
C10 C 0.263(2) 0.427(2) 0.0804(4)
H10 H 0.2982 0.4185 0.0933
C11 C 0.414(2) 0.937(2) 0.0451(4)
H11 H 0.4659 1.0099 0.0524
C12 C 0.079(2) 0.899(3) -0.0377(4)
H12 H 0.0737 0.9595 -0.0456
C13 C -0.1270(18) 0.1200(17) -0.0224(3)
H13 H -0.1998 0.0537 -0.0174
C14 C 0.325(2) 0.457(2) 0.0604(3)
H14 H 0.4013 0.4638 0.0596
C15 C 0.291(2) 0.863(2) 0.0524(4)
H15 H 0.2621 0.8822 0.0650
C16 C 0.146(2) 0.849(2) -0.0463(4)
H16 H 0.1849 0.8707 -0.0600
C17 C -0.0754(16) 0.2248(15) -0.0112(3)
C18 C 0.2761(16) 0.4778(17) 0.0416(3)
C19 C 0.2178(17) 0.7635(16) 0.0400(3)
C20 C 0.148(2) 0.758(2) -0.0321(4)
C21 C -0.1337(13) 0.2418(14) 0.0095(2)
C22 C 0.3418(16) 0.5100(17) 0.0190(3)
C23 C 0.0814(16) 0.6852(16) 0.0450(3)
C24 C 0.222(3) 0.700(3) -0.0398(4)
O8F O -0.0751(14) 0.4762(11) -0.0193(2)
O4F O -0.2305(13) 0.4804(9) -0.00338(17)
O6F O -0.3990(17) 0.3891(12) 0.0281(2)
Na1F Na 0.3848(11) 0.5872(9) -0.03474(14)
Eu1F Eu 0.57076(10) 0.47311(7) -0.003840(13)
O1 O 0.0780(18) 0.9220(18) 0.0833
loop_
_geom_bond_atom_site_label_1
_geom_bond_atom_site_label_2
_geom_bond_site_symmetry_1
_geom_bond_site_symmetry_2
Eu1 O3 1_555 1_555
Na1 O2 1_555 1_555
O3 Na1 1_555 1_555
O4 Eu1 1_555 1_555
O5 Eu1 1_555 1_555
O6 Eu1 1_555 1_555
O7 C21 1_555 1_555
O8 C22 1_555 1_555
O9 C23 1_555 1_555
O10 C24 1_555 1_555
N1 Eu1 1_555 1_555
N2 Eu1 1_555 1_555
N3 Eu1 1_555 1_555
N4 Eu1 1_555 1_555
C1 N1 1_555 1_555
H1 C1 1_555 1_555
C2 N2 1_555 1_555
H2 C2 1_555 1_555
C3 N3 1_555 1_555
H3 C3 1_555 1_555
C4 N4 1_555 1_555
H4 C4 1_555 1_555
C5 C1 1_555 1_555
H5 C5 1_555 1_555
C6 C2 1_555 1_555
H6 C6 1_555 1_555
C7 C3 1_555 1_555
H7 C7 1_555 1_555
C8 C4 1_555 1_555
H8 C8 1_555 1_555
C9 C5 1_555 1_555
H9 C9 1_555 1_555
C10 C6 1_555 1_555
H10 C10 1_555 1_555
C11 C7 1_555 1_555
H11 C11 1_555 1_555
C12 C8 1_555 1_555
H12 C12 1_555 1_555
C13 C9 1_555 1_555
H13 C13 1_555 1_555
C14 C10 1_555 1_555
H14 C14 1_555 1_555
C15 C11 1_555 1_555
H15 C15 1_555 1_555
C16 C12 1_555 1_555
H16 C16 1_555 1_555
C17 N1 1_555 1_555
C18 N2 1_555 1_555
C19 N3 1_555 1_555
C20 N4 1_555 1_555
C21 O3 1_555 1_555
C22 O4 1_555 1_555
C23 O5 1_555 1_555
C24 O6 1_555 1_555
O8F Eu1 1_555 1_555
O4F Na1 1_555 1_555
O6F Na1 1_555 1_555
Na1F O4 1_555 1_555
Eu1F O8 1_555 1_555
Na1 O5 1_555 1_555
O6 Na1F 1_555 1_555
C13 C17 1_555 1_555
C14 C18 1_555 1_555
C15 C19 1_555 1_555
C16 C20 1_555 1_555
C17 C21 1_555 1_555
C18 C22 1_555 1_555
C19 C23 1_555 1_555
C20 C24 1_555 1_555

#END
