
#######################################################################
#
#                 Cambridge Crystallographic Data Centre
#                                CCDC 
#
#######################################################################
#
# If this CIF has been generated from an entry in the Cambridge 
# Structural Database, then it will include bibliographic, chemical, 
# crystal, experimental, refinement or atomic coordinate data resulting 
# from the CCDC's data processing and validation procedures.
#
#######################################################################

data_UJUJIT
_symmetry_cell_setting           triclinic
_symmetry_space_group_name_H-M   'P -1'
_symmetry_Int_Tables_number      2
_space_group_name_Hall           '-P 1'
loop_
_symmetry_equiv_pos_site_id
_symmetry_equiv_pos_as_xyz
1 x,y,z
2 -x,-y,-z
_cell_length_a                   7.6041(5)
_cell_length_b                   11.2211(8)
_cell_length_c                   12.2046(5)
_cell_angle_alpha                70.409(7)
_cell_angle_beta                 73.137(8)
_cell_angle_gamma                80.350(9)
_cell_volume                     936.04
loop_
_atom_site_label
_atom_site_type_symbol
_atom_site_fract_x
_atom_site_fract_y
_atom_site_fract_z
O6 O -0.474(2) -0.0587(11) 0.4949(13)
O6A O -0.526(2) 0.0587(11) 0.5051(13)
O7 O -0.103(3) -0.027(2) 0.516(2)
O7A O 0.103(3) 0.027(2) 0.484(2)
Mn1 Mn -0.03081(9) 0.43145(6) 0.21067(6)
N1 N -0.1914(6) 0.4202(4) 0.3997(4)
N2 N 0.0089(6) 0.6084(4) 0.2442(4)
O1 O 0.1792(4) 0.4761(3) 0.0472(3)
O2 O 0.2461(4) 0.4463(3) -0.1328(3)
O3 O 0.1814(4) 0.3031(3) 0.2846(3)
O4 O 0.4804(5) 0.2688(5) 0.2703(4)
O5 O -0.1534(5) 0.2728(3) 0.2033(4)
C1 C 0.3303(6) 0.2799(4) 0.0221(4)
C2 C 0.3739(6) 0.2233(4) 0.1282(4)
C3 C 0.4689(6) 0.0537(4) 0.0147(4)
C4 C 0.2449(6) 0.4113(4) -0.0240(4)
C5 C 0.3429(6) 0.2735(4) 0.2337(4)
C6 C -0.2834(8) 0.3198(6) 0.4757(5)
H1 H -0.2801 0.2503 0.4483
C7 C -0.3827(9) 0.3130(7) 0.5920(5)
H2 H -0.4460 0.2413 0.6422
C8 C -0.3858(9) 0.4145(8) 0.6316(5)
H3 H -0.4532 0.4136 0.7097
C9 C -0.2903(8) 0.5171(7) 0.5569(6)
H4 H -0.2889 0.5860 0.5839
C10 C -0.1939(7) 0.5181(5) 0.4384(5)
C11 C 0.1012(8) 0.7030(6) 0.1594(7)
H5 H 0.1678 0.6906 0.0856
C12 C 0.1018(10) 0.8182(7) 0.1767(9)
H6 H 0.1647 0.8848 0.1155
C13 C 0.0046(12) 0.8322(8) 0.2897(11)
H7 H 0.0064 0.9083 0.3056
C14 C -0.0930(10) 0.7358(7) 0.3770(8)
H8 H -0.1593 0.7453 0.4520
C15 C -0.0907(7) 0.6244(6) 0.3512(6)
C16 C -0.0912(13) 0.1552(8) 0.1988(11)
H9 H 0.0231 0.1313 0.2238
H10 H -0.0694 0.1527 0.1172
H11 H -0.1821 0.0964 0.2521
S1 S 0.47695(19) 0.06815(11) 0.15256(11)
S2 S 0.37845(18) 0.19101(11) -0.07939(10)
H12 H -0.268(3) 0.287(5) 0.205(5)
Mn1A Mn 0.03081(9) 0.56855(6) -0.21067(6)
Mn1A_2 Mn 1.03081(9) -0.43145(6) -0.21067(6)
Mn1_2 Mn 0.96919(9) -0.56855(6) 0.21067(6)
N1A N 0.1914(6) 0.5798(4) -0.3997(4)
N2A N -0.0089(6) 0.3916(4) -0.2442(4)
O1A O -0.1792(4) 0.5239(3) -0.0472(3)
O1A_2 O 0.8208(4) -0.4761(3) -0.0472(3)
O2A O -0.2461(4) 0.5537(3) 0.1328(3)
O2A_2 O 0.7539(4) -0.4463(3) 0.1328(3)
O3A O 0.8186(4) -0.3031(3) -0.2846(3)
O3A_2 O -0.1814(4) 0.6969(3) -0.2846(3)
O4A O 0.5196(5) -0.2688(5) -0.2703(4)
O5A O 0.1534(5) 0.7272(3) -0.2033(4)
C1A C 0.6697(6) -0.2799(4) -0.0221(4)
C2A C 0.6261(6) -0.2233(4) -0.1282(4)
C3A C 0.5311(6) -0.0537(4) -0.0147(4)
C4A C 0.7551(6) -0.4113(4) 0.0240(4)
C5A C 0.6571(6) -0.2735(4) -0.2337(4)
C6A C 0.2834(8) 0.6802(6) -0.4757(5)
H1A H 0.2801 0.7497 -0.4483
C7A C 0.3827(9) 0.6870(7) -0.5920(5)
H2A H 0.4460 0.7587 -0.6422
C8A C 0.3858(9) 0.5855(8) -0.6316(5)
H3A H 0.4532 0.5864 -0.7097
C9A C 0.2903(8) 0.4829(7) -0.5569(6)
H4A H 0.2889 0.4140 -0.5839
C10A C 0.1939(7) 0.4819(5) -0.4384(5)
C11A C -0.1012(8) 0.2970(6) -0.1594(7)
H5A H -0.1678 0.3094 -0.0856
C12A C -0.1018(10) 0.1818(7) -0.1767(9)
H6A H -0.1647 0.1152 -0.1155
C13A C -0.0046(12) 0.1678(8) -0.2897(11)
H7A H -0.0064 0.0917 -0.3056
C14A C 0.0930(10) 0.2642(7) -0.3770(8)
H8A H 0.1593 0.2547 -0.4520
C15A C 0.0907(7) 0.3756(6) -0.3512(6)
C16A C 0.0912(13) 0.8448(8) -0.1988(11)
H9A H -0.0231 0.8687 -0.2238
H10A H 0.0694 0.8473 -0.1172
H11A H 0.1821 0.9036 -0.2521
S1A S 0.52305(19) -0.06815(11) -0.15256(11)
S2A S 0.62155(18) -0.19101(11) 0.07939(10)
H12A H 0.268(3) 0.713(5) -0.205(5)
loop_
_geom_bond_atom_site_label_1
_geom_bond_atom_site_label_2
_geom_bond_site_symmetry_1
_geom_bond_site_symmetry_2
Mn1 N1 1_555 1_555
N1 C6 1_555 1_555
N2 Mn1 1_555 1_555
O1 Mn1 1_555 1_555
O2 C4 1_555 1_555
O3 Mn1 1_555 1_555
O4 C5 1_555 1_555
O5 Mn1 1_555 1_555
C1 C2 1_555 1_555
C2 C5 1_555 1_555
C3 S1 1_555 1_555
C4 O1 1_555 1_555
C5 O3 1_555 1_555
C6 H1 1_555 1_555
C7 C6 1_555 1_555
H2 C7 1_555 1_555
C8 C7 1_555 1_555
H3 C8 1_555 1_555
C9 C8 1_555 1_555
H4 C9 1_555 1_555
C10 N1 1_555 1_555
C11 N2 1_555 1_555
H5 C11 1_555 1_555
C12 C11 1_555 1_555
H6 C12 1_555 1_555
C13 C12 1_555 1_555
H7 C13 1_555 1_555
C14 C13 1_555 1_555
H8 C14 1_555 1_555
C15 N2 1_555 1_555
C16 O5 1_555 1_555
H9 C16 1_555 1_555
H10 C16 1_555 1_555
H11 C16 1_555 1_555
S1 C2 1_555 1_555
S2 C1 1_555 1_555
O6 O6A 1_555 1_555
O7 O7A 1_555 1_555
H12 O5 1_555 1_555
Mn1A O2 1_555 1_555
Mn1A_2 O1A_2 1_555 1_555
Mn1_2 O2A_2 1_555 1_555
N1A Mn1A 1_555 1_555
N2A Mn1A 1_555 1_555
O1A Mn1A 1_555 1_555
O1A_2 C4A 1_555 1_555
O2A Mn1 1_555 1_555
O2A_2 C4A 1_555 1_555
O3A Mn1A_2 1_555 1_555
O3A_2 Mn1A 1_555 1_555
O4A C5A 1_555 1_555
O5A Mn1A 1_555 1_555
C1A C2A 1_555 1_555
C2A C5A 1_555 1_555
C3A C3 1_555 1_555
C4A C1A 1_555 1_555
C5A O3A 1_555 1_555
C6A N1A 1_555 1_555
H1A C6A 1_555 1_555
C7A C6A 1_555 1_555
H2A C7A 1_555 1_555
C8A C7A 1_555 1_555
H3A C8A 1_555 1_555
C9A C8A 1_555 1_555
H4A C9A 1_555 1_555
C10A N1A 1_555 1_555
C11A N2A 1_555 1_555
H5A C11A 1_555 1_555
C12A C11A 1_555 1_555
H6A C12A 1_555 1_555
C13A C12A 1_555 1_555
H7A C13A 1_555 1_555
C14A C13A 1_555 1_555
H8A C14A 1_555 1_555
C15A N2A 1_555 1_555
C16A O5A 1_555 1_555
H9A C16A 1_555 1_555
H10A C16A 1_555 1_555
H11A C16A 1_555 1_555
S1A C2A 1_555 1_555
S2A C1A 1_555 1_555
H12A O5A 1_555 1_555
C1 C4 1_555 1_555
C3 S2 1_555 1_555
C9 C10 1_555 1_555
C10 C15 1_555 1_555
C14 C15 1_555 1_555
C3A S1A 1_555 1_555
C3A S2A 1_555 1_555
C9A C10A 1_555 1_555
C10A C15A 1_555 1_555
C14A C15A 1_555 1_555

#END
