
#######################################################################
#
#                 Cambridge Crystallographic Data Centre
#                                CCDC 
#
#######################################################################
#
# If this CIF has been generated from an entry in the Cambridge 
# Structural Database, then it will include bibliographic, chemical, 
# crystal, experimental, refinement or atomic coordinate data resulting 
# from the CCDC's data processing and validation procedures.
#
#######################################################################

data_UJUJUF04
_symmetry_cell_setting           tetragonal
_symmetry_space_group_name_H-M   'I 41/a'
_symmetry_Int_Tables_number      88
_space_group_name_Hall           '-I 4ad'
loop_
_symmetry_equiv_pos_site_id
_symmetry_equiv_pos_as_xyz
1 x,y,z
2 1/2-x,-y,1/2+z
3 3/4-y,1/4+x,1/4+z
4 3/4+y,3/4-x,3/4+z
5 1/2+x,1/2+y,1/2+z
6 -x,1/2-y,z
7 1/4-y,3/4+x,3/4+z
8 1/4+y,1/4-x,1/4+z
9 -x,-y,-z
10 1/2+x,y,1/2-z
11 1/4+y,3/4-x,3/4-z
12 1/4-y,1/4+x,1/4-z
13 1/2-x,1/2-y,1/2-z
14 x,1/2+y,-z
15 3/4+y,1/4-x,1/4-z
16 3/4-y,3/4+x,3/4-z
_cell_length_a                   21.82860(10)
_cell_length_b                   21.82860(10)
_cell_length_c                   9.63600(10)
_cell_angle_alpha                90
_cell_angle_beta                 90
_cell_angle_gamma                90
_cell_volume                     4591.44
loop_
_atom_site_label
_atom_site_type_symbol
_atom_site_fract_x
_atom_site_fract_y
_atom_site_fract_z
O1 O 0.55985(9) 0.86614(8) 0.18926(19)
H1 H 0.5417(13) 0.8567(14) 0.114(3)
H2 H 0.5642(15) 0.8394(14) 0.232(3)
C1 C 0.51182(9) 0.84830(8) 0.55601(19)
C2 C 0.44091(8) 0.75914(8) 0.4344(2)
C3 C 0.66324(12) 0.99826(14) 0.2378(2)
H3 H 0.6878 0.9792 0.1718
C4 C 0.67546(12) 1.05178(12) 0.3014(3)
H4 H 0.7094 1.0770 0.2889
C5 C 0.62613(13) 1.06096(11) 0.3895(2)
H5 H 0.6217 1.0948 0.4473
C6 C 0.42892(15) 1.01851(12) 0.0813(3)
H6 H 0.4243 1.0432 0.0033
C7 C 0.41408(13) 0.95857(12) 0.0919(3)
H7 H 0.3968 0.9338 0.0238
C8 C 0.42988(11) 0.94194(10) 0.2248(3)
H8 H 0.4253 0.9027 0.2610
Mn1 Mn 0.5000 1.0000 0.5000
N1 N 0.51550(8) 0.89832(7) 0.52191(17)
N2 N 0.41164(9) 0.76472(10) 0.3363(2)
N3 N 0.58634(9) 1.01580(9) 0.38115(17)
N4 N 0.60973(8) 0.97724(9) 0.28579(18)
H9 H 0.5926 0.9437 0.2594
N5 N 0.45244(8) 0.98889(8) 0.29407(18)
N6 N 0.45135(10) 1.03535(8) 0.2039(2)
H10 H 0.4637 1.0718 0.2229
Nb1 Nb 0.5000 0.7500 0.6250
C1E C 0.48818(9) 0.65170(8) 0.55601(19)
C2E C 0.55909(8) 0.74086(8) 0.4344(2)
C3E C 0.33676(12) 0.50174(14) 0.2378(2)
H3E H 0.3122 0.5208 0.1718
C4E C 0.32454(12) 0.44822(12) 0.3014(3)
H4E H 0.2906 0.4230 0.2889
C5E C 0.37387(13) 0.43904(11) 0.3895(2)
H5E H 0.3783 0.4052 0.4473
C6E C 0.57108(15) 0.48149(12) 0.0813(3)
H6E H 0.5757 0.4568 0.0033
C7E C 0.58592(13) 0.54143(12) 0.0919(3)
H7E H 0.6032 0.5662 0.0238
C8E C 0.57012(11) 0.55806(10) 0.2248(3)
H8E H 0.5747 0.5973 0.2610
Mn1E Mn 0.5000 0.5000 0.5000
N1E N 0.48450(8) 0.60168(7) 0.52191(17)
N2E N 0.58836(9) 0.73528(10) 0.3363(2)
N3E N 0.41366(9) 0.48420(9) 0.38115(17)
N4E N 0.39027(8) 0.52276(9) 0.28579(18)
H9E H 0.4074 0.5563 0.2594
N5E N 0.54756(8) 0.51111(8) 0.29407(18)
N6E N 0.54865(10) 0.46465(8) 0.2039(2)
H10E H 0.5363 0.4282 0.2229
C1K C 0.40170(8) 0.76182(9) 0.69399(19)
C2K C 0.49086(8) 0.69091(8) 0.8156(2)
N1K N 0.35168(7) 0.76550(8) 0.72809(17)
N2K N 0.48528(10) 0.66164(9) 0.9137(2)
C1N C 0.59830(8) 0.73818(9) 0.69399(19)
C2N C 0.50914(8) 0.80909(8) 0.8156(2)
N1N N 0.64832(7) 0.73450(8) 0.72809(17)
N2N N 0.51472(10) 0.83836(9) 0.9137(2)
C3H C 0.33676(12) 1.00174(14) 0.7622(2)
H3H H 0.3122 1.0208 0.8282
C4H C 0.32454(12) 0.94822(12) 0.6986(3)
H4H H 0.2906 0.9230 0.7111
C5H C 0.37387(13) 0.93904(11) 0.6105(2)
H5H H 0.3783 0.9052 0.5527
N3H N 0.41366(9) 0.98420(9) 0.61885(17)
N4H N 0.39027(8) 1.02276(9) 0.71421(18)
H9H H 0.4074 1.0563 0.7406
C6H C 0.57108(15) 0.98149(12) 0.9187(3)
H6H H 0.5757 0.9568 0.9967
C7H C 0.58592(13) 1.04143(12) 0.9081(3)
H7H H 0.6032 1.0662 0.9762
C8H C 0.57012(11) 1.05806(10) 0.7752(3)
H8H H 0.5747 1.0973 0.7390
N5H N 0.54756(8) 1.01111(8) 0.70593(18)
N6H N 0.54865(10) 0.96465(8) 0.7961(2)
H10H H 0.5363 0.9282 0.7771
C3M C 0.66324(12) 0.49826(14) 0.7622(2)
H3M H 0.6878 0.4792 0.8282
C4M C 0.67546(12) 0.55178(12) 0.6986(3)
H4M H 0.7094 0.5770 0.7111
C5M C 0.62613(13) 0.56096(11) 0.6105(2)
H5M H 0.6217 0.5948 0.5527
N3M N 0.58634(9) 0.51580(9) 0.61885(17)
N4M N 0.60973(8) 0.47724(9) 0.71421(18)
H9M H 0.5926 0.4437 0.7406
C6M C 0.42892(15) 0.51851(12) 0.9187(3)
H6M H 0.4243 0.5432 0.9967
C7M C 0.41408(13) 0.45857(12) 0.9081(3)
H7M H 0.3968 0.4338 0.9762
C8M C 0.42988(11) 0.44194(10) 0.7752(3)
H8M H 0.4253 0.4027 0.7390
N5M N 0.45244(8) 0.48889(8) 0.70593(18)
N6M N 0.45135(10) 0.53535(8) 0.7961(2)
H10M H 0.4637 0.5718 0.7771
Mn1B Mn 0.7500 0.7500 0.7500
Mn1G Mn 0.2500 0.7500 0.7500
N1H N 0.48450(8) 1.10168(7) 0.47809(17)
N1M N 0.51550(8) 0.39832(7) 0.47809(17)
loop_
_geom_bond_atom_site_label_1
_geom_bond_atom_site_label_2
_geom_bond_site_symmetry_1
_geom_bond_site_symmetry_2
O1 H1 1_555 1_555
H2 O1 1_555 1_555
C1 N1 1_555 1_555
C2 N2 1_555 1_555
C3 H3 1_555 1_555
C4 C3 1_555 1_555
H4 C4 1_555 1_555
C5 C4 1_555 1_555
H5 C5 1_555 1_555
C6 H6 1_555 1_555
C7 C6 1_555 1_555
H7 C7 1_555 1_555
C8 C7 1_555 1_555
H8 C8 1_555 1_555
Mn1 N1 1_555 1_555
N3 C5 1_555 1_555
N4 C3 1_555 1_555
H9 N4 1_555 1_555
N5 C8 1_555 1_555
N6 C6 1_555 1_555
H10 N6 1_555 1_555
Nb1 C1 1_555 1_555
C1E Nb1 1_555 1_555
C2E Nb1 1_555 1_555
C3E H3E 1_555 1_555
C4E C3E 1_555 1_555
H4E C4E 1_555 1_555
C5E C4E 1_555 1_555
H5E C5E 1_555 1_555
C6E H6E 1_555 1_555
C7E C6E 1_555 1_555
H7E C7E 1_555 1_555
C8E C7E 1_555 1_555
H8E C8E 1_555 1_555
Mn1E N1E 1_555 1_555
N1E C1E 1_555 1_555
N2E C2E 1_555 1_555
N3E C5E 1_555 1_555
N4E C3E 1_555 1_555
H9E N4E 1_555 1_555
N5E C8E 1_555 1_555
N6E C6E 1_555 1_555
H10E N6E 1_555 1_555
C1K Nb1 1_555 1_555
C2K Nb1 1_555 1_555
N1K C1K 1_555 1_555
N2K C2K 1_555 1_555
C1N Nb1 1_555 1_555
C2N Nb1 1_555 1_555
N1N C1N 1_555 1_555
N2N C2N 1_555 1_555
C3H H3H 1_555 1_555
C4H C3H 1_555 1_555
H4H C4H 1_555 1_555
C5H C4H 1_555 1_555
H5H C5H 1_555 1_555
N3H Mn1 1_555 1_555
N4H C3H 1_555 1_555
H9H N4H 1_555 1_555
C6H H6H 1_555 1_555
C7H C6H 1_555 1_555
H7H C7H 1_555 1_555
C8H C7H 1_555 1_555
H8H C8H 1_555 1_555
N5H Mn1 1_555 1_555
N6H C6H 1_555 1_555
H10H N6H 1_555 1_555
C3M H3M 1_555 1_555
C4M C3M 1_555 1_555
H4M C4M 1_555 1_555
C5M C4M 1_555 1_555
H5M C5M 1_555 1_555
N3M Mn1E 1_555 1_555
N4M C3M 1_555 1_555
H9M N4M 1_555 1_555
C6M H6M 1_555 1_555
C7M C6M 1_555 1_555
H7M C7M 1_555 1_555
C8M C7M 1_555 1_555
H8M C8M 1_555 1_555
N5M Mn1E 1_555 1_555
N6M C6M 1_555 1_555
H10M N6M 1_555 1_555
Mn1B N1N 1_555 1_555
Mn1G N1K 1_555 1_555
N1H Mn1 1_555 1_555
N1M Mn1E 1_555 1_555
C2 Nb1 1_555 1_555
Mn1 N3 1_555 1_555
Mn1 N5 1_555 1_555
N3 N4 1_555 1_555
N5 N6 1_555 1_555
Mn1E N3E 1_555 1_555
Mn1E N5E 1_555 1_555
N3E N4E 1_555 1_555
N5E N6E 1_555 1_555
C5H N3H 1_555 1_555
N3H N4H 1_555 1_555
C8H N5H 1_555 1_555
N5H N6H 1_555 1_555
C5M N3M 1_555 1_555
N3M N4M 1_555 1_555
C8M N5M 1_555 1_555
N5M N6M 1_555 1_555

#END
