
#######################################################################
#
#                 Cambridge Crystallographic Data Centre
#                                CCDC 
#
#######################################################################
#
# If this CIF has been generated from an entry in the Cambridge 
# Structural Database, then it will include bibliographic, chemical, 
# crystal, experimental, refinement or atomic coordinate data resulting 
# from the CCDC's data processing and validation procedures.
#
#######################################################################

data_UJUJUF03
_symmetry_cell_setting           tetragonal
_symmetry_space_group_name_H-M   'I 41/a'
_symmetry_Int_Tables_number      88
_space_group_name_Hall           '-I 4ad'
loop_
_symmetry_equiv_pos_site_id
_symmetry_equiv_pos_as_xyz
1 x,y,z
2 1/2-x,-y,1/2+z
3 3/4-y,1/4+x,1/4+z
4 3/4+y,3/4-x,3/4+z
5 1/2+x,1/2+y,1/2+z
6 -x,1/2-y,z
7 1/4-y,3/4+x,3/4+z
8 1/4+y,1/4-x,1/4+z
9 -x,-y,-z
10 1/2+x,y,1/2-z
11 1/4+y,3/4-x,3/4-z
12 1/4-y,1/4+x,1/4-z
13 1/2-x,1/2-y,1/2-z
14 x,1/2+y,-z
15 3/4+y,1/4-x,1/4-z
16 3/4-y,3/4+x,3/4-z
_cell_length_a                   21.140(3)
_cell_length_b                   21.140(3)
_cell_length_c                   8.903(2)
_cell_angle_alpha                90
_cell_angle_beta                 90
_cell_angle_gamma                90
_cell_volume                     3978.75
loop_
_atom_site_label
_atom_site_type_symbol
_atom_site_fract_x
_atom_site_fract_y
_atom_site_fract_z
Nb1 Nb 0.5000 0.7500 0.6250
Mn1 Mn 0.5000 1.0000 0.5000
N1 N 0.5445(6) 0.9848(6) 0.284(3)
C1 C 0.5562(8) 0.7635(7) 0.400(4)
N2 N 0.4749(7) 0.9002(6) 0.520(4)
N3 N 0.5509(10) 1.0318(8) 0.184(4)
H1 H 0.5406 1.0701 0.2055
N4 N 0.5881(9) 0.9762(7) 0.614(3)
C2 C 0.6713(10) 0.9912(10) 0.734(5)
H2 H 0.6988 1.0108 0.8014
C3 C 0.4815(8) 0.8481(8) 0.552(5)
C4 C 0.6303(9) 0.9281(10) 0.596(5)
H3 H 0.6213 0.8924 0.5390
C5 C 0.5750(16) 1.0157(17) 0.042(4)
H4 H 0.5826 1.0424 -0.0387
C6 C 0.5848(11) 0.9527(12) 0.051(6)
H5 H 0.5950 0.9252 -0.0272
N5 N 0.5892(8) 0.7734(10) 0.334(4)
C7 C 0.6830(10) 0.9356(10) 0.664(4)
H6 H 0.7190 0.9102 0.6646
C8 C 0.5758(9) 0.9374(8) 0.206(5)
H7 H 0.5895 0.8999 0.2502
N6 N 0.6173(9) 1.0129(10) 0.696(5)
H8 H 0.6030 1.0491 0.7239
Mn1E Mn 0.5000 0.5000 0.5000
N1E N 0.4555(6) 0.5152(6) 0.284(3)
C1E C 0.4438(8) 0.7365(7) 0.400(4)
N2E N 0.5251(7) 0.5998(6) 0.520(4)
N3E N 0.4491(10) 0.4682(8) 0.184(4)
H1E H 0.4594 0.4299 0.2055
N4E N 0.4119(9) 0.5238(7) 0.614(3)
C2E C 0.3287(10) 0.5088(10) 0.734(5)
H2E H 0.3012 0.4892 0.8014
C3E C 0.5185(8) 0.6519(8) 0.552(5)
C4E C 0.3697(9) 0.5719(10) 0.596(5)
H3E H 0.3787 0.6076 0.5390
C5E C 0.4250(16) 0.4843(17) 0.042(4)
H4E H 0.4174 0.4576 -0.0387
C6E C 0.4152(11) 0.5473(12) 0.051(6)
H5E H 0.4050 0.5748 -0.0272
N5E N 0.4108(8) 0.7266(10) 0.334(4)
C7E C 0.3170(10) 0.5644(10) 0.664(4)
H6E H 0.2810 0.5898 0.6646
C8E C 0.4242(9) 0.5626(8) 0.206(5)
H7E H 0.4105 0.6001 0.2502
N6E N 0.3827(9) 0.4871(10) 0.696(5)
H8E H 0.3970 0.4509 0.7239
C1K C 0.4865(7) 0.8062(8) 0.850(4)
N2K N 0.3498(6) 0.7249(7) 0.730(4)
C3K C 0.4019(8) 0.7315(8) 0.698(5)
N5K N 0.4766(10) 0.8392(8) 0.916(4)
C1N C 0.5135(7) 0.6938(8) 0.850(4)
N2N N 0.6502(6) 0.7751(7) 0.730(4)
C3N C 0.5981(8) 0.7685(8) 0.698(5)
N5N N 0.5234(10) 0.6608(8) 0.916(4)
N1H N 0.4555(6) 1.0152(6) 0.716(3)
N3H N 0.4491(10) 0.9682(8) 0.816(4)
H1H H 0.4594 0.9299 0.7945
C5H C 0.4250(16) 0.9843(17) 0.958(4)
H4H H 0.4174 0.9576 1.0387
C6H C 0.4152(11) 1.0473(12) 0.949(6)
H5H H 0.4050 1.0748 1.0272
C8H C 0.4242(9) 1.0626(8) 0.794(5)
H7H H 0.4105 1.1001 0.7498
N4H N 0.4119(9) 1.0238(7) 0.386(3)
C2H C 0.3287(10) 1.0088(10) 0.266(5)
H2H H 0.3012 0.9892 0.1986
C4H C 0.3697(9) 1.0719(10) 0.404(5)
H3H H 0.3787 1.1076 0.4610
C7H C 0.3170(10) 1.0644(10) 0.336(4)
H6H H 0.2810 1.0898 0.3354
N6H N 0.3827(9) 0.9871(10) 0.304(5)
H8H H 0.3970 0.9509 0.2761
N1M N 0.5445(6) 0.4848(6) 0.716(3)
N3M N 0.5509(10) 0.5318(8) 0.816(4)
H1M H 0.5406 0.5701 0.7945
C5M C 0.5750(16) 0.5157(17) 0.958(4)
H4M H 0.5826 0.5424 1.0387
C6M C 0.5848(11) 0.4527(12) 0.949(6)
H5M H 0.5950 0.4252 1.0272
C8M C 0.5758(9) 0.4374(8) 0.794(5)
H7M H 0.5895 0.3999 0.7498
N4M N 0.5881(9) 0.4762(7) 0.386(3)
C2M C 0.6713(10) 0.4912(10) 0.266(5)
H2M H 0.6988 0.5108 0.1986
C4M C 0.6303(9) 0.4281(10) 0.404(5)
H3M H 0.6213 0.3924 0.4610
C7M C 0.6830(10) 0.4356(10) 0.336(4)
H6M H 0.7190 0.4102 0.3354
N6M N 0.6173(9) 0.5129(10) 0.304(5)
H8M H 0.6030 0.5491 0.2761
Mn1B Mn 0.7500 0.7500 0.7500
Mn1G Mn 0.2500 0.7500 0.7500
N2H N 0.5251(7) 1.0998(6) 0.480(4)
N2M N 0.4749(7) 0.4002(6) 0.480(4)
O1 O 0.6243(10) 0.8145(8) 1.043(4)
H9 H 0.603(7) 0.789(10) 0.974(12)
H10 H 0.615(13) 0.806(12) 1.144(5)
loop_
_geom_bond_atom_site_label_1
_geom_bond_atom_site_label_2
_geom_bond_site_symmetry_1
_geom_bond_site_symmetry_2
Nb1 C1 1_555 1_555
Mn1 N1 1_555 1_555
N1 N3 1_555 1_555
C1 N5 1_555 1_555
N2 Mn1 1_555 1_555
N3 H1 1_555 1_555
N4 Mn1 1_555 1_555
C2 H2 1_555 1_555
C3 Nb1 1_555 1_555
C4 N4 1_555 1_555
H3 C4 1_555 1_555
C5 N3 1_555 1_555
H4 C5 1_555 1_555
C6 C5 1_555 1_555
H5 C6 1_555 1_555
C7 C2 1_555 1_555
H6 C7 1_555 1_555
C8 N1 1_555 1_555
H7 C8 1_555 1_555
N6 N4 1_555 1_555
H8 N6 1_555 1_555
O1 H9 1_555 1_555
H10 O1 1_555 1_555
Mn1E N1E 1_555 1_555
N1E N3E 1_555 1_555
C1E Nb1 1_555 1_555
N2E Mn1E 1_555 1_555
N3E H1E 1_555 1_555
N4E Mn1E 1_555 1_555
C2E H2E 1_555 1_555
C3E Nb1 1_555 1_555
C4E N4E 1_555 1_555
H3E C4E 1_555 1_555
C5E N3E 1_555 1_555
H4E C5E 1_555 1_555
C6E C5E 1_555 1_555
H5E C6E 1_555 1_555
N5E C1E 1_555 1_555
C7E C2E 1_555 1_555
H6E C7E 1_555 1_555
C8E N1E 1_555 1_555
H7E C8E 1_555 1_555
N6E N4E 1_555 1_555
H8E N6E 1_555 1_555
C1K Nb1 1_555 1_555
N2K C3K 1_555 1_555
C3K Nb1 1_555 1_555
N5K C1K 1_555 1_555
C1N Nb1 1_555 1_555
N2N C3N 1_555 1_555
C3N Nb1 1_555 1_555
N5N C1N 1_555 1_555
N1H Mn1 1_555 1_555
N3H N1H 1_555 1_555
H1H N3H 1_555 1_555
C5H N3H 1_555 1_555
H4H C5H 1_555 1_555
C6H C5H 1_555 1_555
H5H C6H 1_555 1_555
C8H N1H 1_555 1_555
H7H C8H 1_555 1_555
N4H Mn1 1_555 1_555
C2H H2H 1_555 1_555
C4H N4H 1_555 1_555
H3H C4H 1_555 1_555
C7H C2H 1_555 1_555
H6H C7H 1_555 1_555
N6H N4H 1_555 1_555
H8H N6H 1_555 1_555
N1M Mn1E 1_555 1_555
N3M N1M 1_555 1_555
H1M N3M 1_555 1_555
C5M N3M 1_555 1_555
H4M C5M 1_555 1_555
C6M C5M 1_555 1_555
H5M C6M 1_555 1_555
C8M N1M 1_555 1_555
H7M C8M 1_555 1_555
N4M Mn1E 1_555 1_555
C2M H2M 1_555 1_555
C4M N4M 1_555 1_555
H3M C4M 1_555 1_555
C7M C2M 1_555 1_555
H6M C7M 1_555 1_555
N6M N4M 1_555 1_555
H8M N6M 1_555 1_555
Mn1B N2N 1_555 1_555
Mn1G N2K 1_555 1_555
N2H Mn1 1_555 1_555
N2M Mn1E 1_555 1_555
N2 C3 1_555 1_555
C2 N6 1_555 1_555
C4 C7 1_555 1_555
C6 C8 1_555 1_555
N2E C3E 1_555 1_555
C2E N6E 1_555 1_555
C4E C7E 1_555 1_555
C6E C8E 1_555 1_555
C6H C8H 1_555 1_555
C2H N6H 1_555 1_555
C4H C7H 1_555 1_555
C6M C8M 1_555 1_555
C2M N6M 1_555 1_555
C4M C7M 1_555 1_555

#END
