
#######################################################################
#
#                 Cambridge Crystallographic Data Centre
#                                CCDC 
#
#######################################################################
#
# If this CIF has been generated from an entry in the Cambridge 
# Structural Database, then it will include bibliographic, chemical, 
# crystal, experimental, refinement or atomic coordinate data resulting 
# from the CCDC's data processing and validation procedures.
#
#######################################################################

data_UJUJEP
_symmetry_cell_setting           monoclinic
_symmetry_space_group_name_H-M   'C 2/c'
_symmetry_Int_Tables_number      15
_space_group_name_Hall           '-C 2yn'
loop_
_symmetry_equiv_pos_site_id
_symmetry_equiv_pos_as_xyz
1 x,y,z
2 -x,y,1/2-z
3 1/2+x,1/2+y,z
4 1/2-x,1/2+y,1/2-z
5 -x,-y,-z
6 x,-y,1/2+z
7 1/2-x,1/2-y,-z
8 1/2+x,1/2-y,1/2+z
_cell_length_a                   24.472(4)
_cell_length_b                   10.4173(14)
_cell_length_c                   16.127(3)
_cell_angle_alpha                90
_cell_angle_beta                 125.049(3)
_cell_angle_gamma                90
_cell_volume                     3365.75
loop_
_atom_site_label
_atom_site_type_symbol
_atom_site_fract_x
_atom_site_fract_y
_atom_site_fract_z
Mn1 Mn 0.51691(4) 0.35141(8) 0.61740(7)
N1 N 0.4340(3) 0.2409(5) 0.4795(4)
N2 N 0.5309(3) 0.1418(6) 0.6585(5)
C1 C 0.3771(3) 0.6051(5) 0.5286(4)
C2 C 0.3707(3) 0.5425(5) 0.5949(4)
C3 C 0.2753(3) 0.7107(6) 0.5116(5)
C4 C 0.4304(3) 0.5978(5) 0.5088(5)
C5 C 0.4090(3) 0.4321(5) 0.6644(5)
C6 C 0.5836(5) 0.0954(8) 0.7452(7)
H1 H 0.6158 0.1533 0.7931
C7 C 0.5931(7) -0.0382(10) 0.7682(9)
H2 H 0.6306 -0.0703 0.8292
C8 C 0.5436(7) -0.1170(10) 0.6953(10)
H3 H 0.5477 -0.2060 0.7069
C9 C 0.4883(6) -0.0713(8) 0.6058(8)
H4 H 0.4550 -0.1271 0.5572
C10 C 0.4837(5) 0.0611(7) 0.5901(7)
C11 C 0.3839(4) 0.2998(9) 0.3959(6)
H5 H 0.3902 0.3842 0.3822
C12 C 0.4271(5) 0.1199(7) 0.4977(6)
O1 O 0.48541(19) 0.5459(4) 0.5738(3)
O2 O 0.41603(19) 0.6513(4) 0.4294(3)
O3 O 0.4396(2) 0.3568(4) 0.6447(3)
O4 O 0.4036(2) 0.4207(4) 0.7377(3)
S1 S 0.31637(8) 0.72077(17) 0.45145(14)
S2 S 0.30589(9) 0.59104(17) 0.60466(15)
C13 C 0.3164(7) 0.1172(13) 0.3497(10)
H6 H 0.2747 0.0767 0.3080
C14 C 0.3696(6) 0.0508(13) 0.4303(9)
H7 H 0.3668 -0.0377 0.4389
C15 C 0.3242(5) 0.2410(10) 0.3303(7)
H8 H 0.2892 0.2846 0.2732
Mn1A Mn 0.48309(4) 0.35141(8) 0.88260(7)
Mn1B Mn 0.01691(4) 0.85141(8) 0.61740(7)
Mn1D Mn 0.48309(4) 0.64859(8) 0.38260(7)
Mn1F Mn -0.01691(4) 1.14859(8) 0.38260(7)
Mn1G Mn 0.01691(4) 1.14859(8) 0.11740(7)
N1A N 0.5660(3) 0.2409(5) 1.0205(4)
N2A N 0.4691(3) 0.1418(6) 0.8415(5)
C1F C 0.1229(3) 0.8949(5) 0.4714(4)
C2F C 0.1293(3) 0.9575(5) 0.4051(4)
C3F C 0.2247(3) 0.7893(6) 0.4884(5)
C4F C 0.0696(3) 0.9022(5) 0.4912(5)
C5F C 0.0910(3) 1.0679(5) 0.3356(5)
C6A C 0.4164(5) 0.0954(8) 0.7548(7)
H1A H 0.3842 0.1533 0.7069
C7A C 0.4069(7) -0.0382(10) 0.7318(9)
H2A H 0.3694 -0.0703 0.6708
C8A C 0.4564(7) -0.1170(10) 0.8047(10)
H3A H 0.4523 -0.2060 0.7931
C9A C 0.5117(6) -0.0713(8) 0.8942(8)
H4A H 0.5450 -0.1271 0.9428
C10A C 0.5163(5) 0.0611(7) 0.9099(7)
C11A C 0.6161(4) 0.2998(9) 1.1041(6)
H5A H 0.6098 0.3842 1.1178
C12A C 0.5729(5) 0.1199(7) 1.0023(6)
O1F O 0.01459(19) 0.9541(4) 0.4262(3)
O1A O 0.51459(19) 0.5459(4) 0.9262(3)
O2F O 0.08397(19) 0.8487(4) 0.5706(3)
O2D O 0.58397(19) 0.3487(4) 0.5706(3)
O2E O 0.41603(19) 0.3487(4) 0.9294(3)
O3F O 0.0604(2) 1.1432(4) 0.3553(3)
O3A O 0.5604(2) 0.3568(4) 0.8553(3)
O4F O 0.0964(2) 1.0793(4) 0.2623(3)
O4A O 0.5964(2) 0.4207(4) 0.7623(3)
S1F S 0.18363(8) 0.77923(17) 0.54855(14)
S2F S 0.19411(9) 0.90896(17) 0.39534(15)
C13A C 0.6836(7) 0.1172(13) 1.1503(10)
H6A H 0.7253 0.0767 1.1920
C14A C 0.6304(6) 0.0508(13) 1.0697(9)
H7A H 0.6332 -0.0377 1.0611
C15A C 0.6758(5) 0.2410(10) 1.1697(7)
H8A H 0.7108 0.2846 1.2268
O5 O 0.2405(5) 0.3008(10) 0.4261(7)
O6? O 0.2032(5) 0.2817(10) 0.3016(7)
loop_
_geom_bond_atom_site_label_1
_geom_bond_atom_site_label_2
_geom_bond_site_symmetry_1
_geom_bond_site_symmetry_2
Mn1 N1 1_555 1_555
N1 C11 1_555 1_555
N2 Mn1 1_555 1_555
C1 C2 1_555 1_555
C2 C5 1_555 1_555
C3 S1 1_555 1_555
C4 C1 1_555 1_555
C5 O3 1_555 1_555
C6 N2 1_555 1_555
H1 C6 1_555 1_555
C7 C6 1_555 1_555
H2 C7 1_555 1_555
C8 C7 1_555 1_555
H3 C8 1_555 1_555
C9 C8 1_555 1_555
H4 C9 1_555 1_555
C10 N2 1_555 1_555
C11 H5 1_555 1_555
C12 N1 1_555 1_555
O1 Mn1 1_555 1_555
O2 C4 1_555 1_555
O3 Mn1 1_555 1_555
O4 C5 1_555 1_555
S1 C1 1_555 1_555
S2 C2 1_555 1_555
C13 H6 1_555 1_555
C14 C12 1_555 1_555
H7 C14 1_555 1_555
C15 C11 1_555 1_555
H8 C15 1_555 1_555
Mn1A O4 1_555 1_555
Mn1B O2F 1_555 1_555
Mn1D O2 1_555 1_555
Mn1F O1F 1_555 1_555
Mn1G O4F 1_555 1_555
N1A Mn1A 1_555 1_555
N2A Mn1A 1_555 1_555
C1F C2F 1_555 1_555
C2F C5F 1_555 1_555
C3F C3 1_555 1_555
C4F C1F 1_555 1_555
C5F O3F 1_555 1_555
C6A N2A 1_555 1_555
H1A C6A 1_555 1_555
C7A C6A 1_555 1_555
H2A C7A 1_555 1_555
C8A C7A 1_555 1_555
H3A C8A 1_555 1_555
C9A C8A 1_555 1_555
H4A C9A 1_555 1_555
C10A N2A 1_555 1_555
C11A N1A 1_555 1_555
H5A C11A 1_555 1_555
C12A N1A 1_555 1_555
O1F C4F 1_555 1_555
O1A Mn1A 1_555 1_555
O2F C4F 1_555 1_555
O2D Mn1 1_555 1_555
O2E Mn1A 1_555 1_555
O3F Mn1F 1_555 1_555
O3A Mn1A 1_555 1_555
O4F C5F 1_555 1_555
O4A Mn1 1_555 1_555
S1F C1F 1_555 1_555
S2F C2F 1_555 1_555
C13A H6A 1_555 1_555
C14A C12A 1_555 1_555
H7A C14A 1_555 1_555
C15A C11A 1_555 1_555
H8A C15A 1_555 1_555
C3 S2 1_555 1_555
C4 O1 1_555 1_555
C9 C10 1_555 1_555
C10 C12 1_555 1_555
C13 C14 1_555 1_555
C13 C15 1_555 1_555
C3F S1F 1_555 1_555
C3F S2F 1_555 1_555
C9A C10A 1_555 1_555
C10A C12A 1_555 1_555
C13A C14A 1_555 1_555
C13A C15A 1_555 1_555

#END
