
#######################################################################
#
#                 Cambridge Crystallographic Data Centre
#                                CCDC 
#
#######################################################################
#
# If this CIF has been generated from an entry in the Cambridge 
# Structural Database, then it will include bibliographic, chemical, 
# crystal, experimental, refinement or atomic coordinate data resulting 
# from the CCDC's data processing and validation procedures.
#
#######################################################################

data_UJUJEO
_symmetry_cell_setting           hexagonal
_symmetry_space_group_name_H-M   'P 65 2 2'
_symmetry_Int_Tables_number      179
_space_group_name_Hall           "P 65 2' (0,0,1)"
loop_
_symmetry_equiv_pos_site_id
_symmetry_equiv_pos_as_xyz
1 x,y,z
2 x-y,x,5/6+z
3 -y,x-y,2/3+z
4 -x,-y,1/2+z
5 -x+y,-x,1/3+z
6 y,-x+y,1/6+z
7 x-y,-y,-z
8 -x,-x+y,1/3-z
9 y,x,2/3-z
10 -y,-x,1/6-z
11 -x+y,y,1/2-z
12 x,x-y,5/6-z
_cell_length_a                   12.5721(9)
_cell_length_b                   12.5721(9)
_cell_length_c                   60.565(6)
_cell_angle_alpha                90
_cell_angle_beta                 90
_cell_angle_gamma                120
_cell_volume                     8290.26
loop_
_atom_site_label
_atom_site_type_symbol
_atom_site_fract_x
_atom_site_fract_y
_atom_site_fract_z
Gd1 Gd 0.09767(7) 0.52825(7) 0.003990(13)
Na1 Na -0.2037(8) 0.4132(9) 0.03484(14)
O2 O -0.168(2) 0.492(2) 0.0694(3)
O3 O -0.0747(11) 0.3470(11) 0.01908(19)
O4 O 0.2880(9) 0.5190(10) 0.00337(16)
O5 O 0.0195(11) 0.5977(11) 0.03222(19)
O6 O 0.2122(12) 0.6137(12) -0.0280(2)
O7 O -0.2300(13) 0.1584(14) 0.0170(3)
O8 O 0.4492(9) 0.5231(11) 0.0189(2)
O9 O 0.0416(13) 0.7137(14) 0.0618(2)
O10 O 0.298(2) 0.750(2) -0.0554(3)
N1 N 0.0316(14) 0.3219(14) -0.0171(2)
N2 N 0.1626(15) 0.4666(16) 0.0407(3)
N3 N 0.2566(14) 0.7303(15) 0.0228(3)
N4 N 0.0921(13) 0.7243(13) -0.0123(2)
C1 C 0.083(2) 0.313(2) -0.0360(4)
H1 H 0.1573 0.3811 -0.0411
C2 C 0.100(2) 0.435(2) 0.0600(4)
H2 H 0.0207 0.4262 0.0601
C3 C 0.374(2) 0.7978(18) 0.0168(3)
H3 H 0.4035 0.7725 0.0046
C4 C 0.0278(18) 0.7753(18) -0.0061(3)
H4 H -0.0125 0.7508 0.0078
C5 C 0.030(2) 0.205(2) -0.0482(4)
H5 H 0.0678 0.1990 -0.0613
C6 C 0.144(2) 0.413(2) 0.0798(4)
H6 H 0.0950 0.3895 0.0928
C7 C 0.4530(19) 0.902(2) 0.0280(3)
H7 H 0.5362 0.9499 0.0234
C8 C 0.014(3) 0.859(3) -0.0175(5)
H8 H -0.0331 0.8920 -0.0117
C9 C -0.077(2) 0.109(2) -0.0410(4)
H9 H -0.1162 0.0346 -0.0492
C10 C 0.262(2) 0.428(2) 0.0797(4)
H10 H 0.2976 0.4183 0.0929
C11 C 0.412(2) 0.937(2) 0.0454(4)
H11 H 0.4658 1.0105 0.0532
C12 C 0.071(3) 0.895(3) -0.0380(4)
H12 H 0.0613 0.9539 -0.0463
C13 C -0.1264(18) 0.1207(17) -0.0223(3)
H13 H -0.1998 0.0528 -0.0168
C14 C 0.325(2) 0.457(2) 0.0602(4)
H14 H 0.4029 0.4617 0.0594
C15 C 0.292(2) 0.867(2) 0.0520(4)
H15 H 0.2623 0.8884 0.0647
C16 C 0.142(2) 0.847(2) -0.0468(4)
H16 H 0.1820 0.8697 -0.0607
C17 C -0.0740(17) 0.2262(16) -0.0112(3)
C18 C 0.2766(17) 0.4794(18) 0.0417(3)
C19 C 0.2164(19) 0.7651(18) 0.0398(3)
C20 C 0.146(2) 0.761(2) -0.0321(4)
C21 C -0.1333(14) 0.2427(15) 0.0098(3)
C22 C 0.3405(17) 0.5087(18) 0.0186(3)
C23 C 0.0811(17) 0.6850(17) 0.0450(3)
C24 C 0.222(2) 0.703(2) -0.0394(4)
O8F O -0.0739(14) 0.4769(11) -0.0189(2)
O4F O -0.2310(13) 0.4810(10) -0.00337(16)
O6F O -0.4015(17) 0.3863(12) 0.0280(2)
Na1F Na 0.3831(12) 0.5868(9) -0.03484(14)
Gd1F Gd 0.56942(10) 0.47175(7) -0.003990(13)
O1 O 0.0770(15) 0.9230(15) 0.0833
loop_
_geom_bond_atom_site_label_1
_geom_bond_atom_site_label_2
_geom_bond_site_symmetry_1
_geom_bond_site_symmetry_2
Gd1 O3 1_555 1_555
Na1 O2 1_555 1_555
O3 Na1 1_555 1_555
O4 Gd1 1_555 1_555
O5 Gd1 1_555 1_555
O6 Gd1 1_555 1_555
O7 C21 1_555 1_555
O8 C22 1_555 1_555
O9 C23 1_555 1_555
O10 C24 1_555 1_555
N1 Gd1 1_555 1_555
N2 Gd1 1_555 1_555
N3 Gd1 1_555 1_555
N4 Gd1 1_555 1_555
C1 N1 1_555 1_555
H1 C1 1_555 1_555
C2 N2 1_555 1_555
H2 C2 1_555 1_555
C3 N3 1_555 1_555
H3 C3 1_555 1_555
C4 N4 1_555 1_555
H4 C4 1_555 1_555
C5 C1 1_555 1_555
H5 C5 1_555 1_555
C6 C2 1_555 1_555
H6 C6 1_555 1_555
C7 C3 1_555 1_555
H7 C7 1_555 1_555
C8 C4 1_555 1_555
H8 C8 1_555 1_555
C9 C5 1_555 1_555
H9 C9 1_555 1_555
C10 C6 1_555 1_555
H10 C10 1_555 1_555
C11 C7 1_555 1_555
H11 C11 1_555 1_555
C12 C8 1_555 1_555
H12 C12 1_555 1_555
C13 C9 1_555 1_555
H13 C13 1_555 1_555
C14 C10 1_555 1_555
H14 C14 1_555 1_555
C15 C11 1_555 1_555
H15 C15 1_555 1_555
C16 C12 1_555 1_555
H16 C16 1_555 1_555
C17 N1 1_555 1_555
C18 N2 1_555 1_555
C19 N3 1_555 1_555
C20 N4 1_555 1_555
C21 O3 1_555 1_555
C22 O4 1_555 1_555
C23 O5 1_555 1_555
C24 O6 1_555 1_555
O8F Gd1 1_555 1_555
O4F Na1 1_555 1_555
O6F Na1 1_555 1_555
Na1F O4 1_555 1_555
Gd1F O8 1_555 1_555
Na1 O5 1_555 1_555
O6 Na1F 1_555 1_555
C13 C17 1_555 1_555
C14 C18 1_555 1_555
C15 C19 1_555 1_555
C16 C20 1_555 1_555
C17 C21 1_555 1_555
C18 C22 1_555 1_555
C19 C23 1_555 1_555
C20 C24 1_555 1_555

#END
