
#######################################################################
#
#                 Cambridge Crystallographic Data Centre
#                                CCDC 
#
#######################################################################
#
# If this CIF has been generated from an entry in the Cambridge 
# Structural Database, then it will include bibliographic, chemical, 
# crystal, experimental, refinement or atomic coordinate data resulting 
# from the CCDC's data processing and validation procedures.
#
#######################################################################

data_UJUJUF09
_symmetry_cell_setting           tetragonal
_symmetry_space_group_name_H-M   'I 41/a'
_symmetry_Int_Tables_number      88
_space_group_name_Hall           '-I 4ad'
loop_
_symmetry_equiv_pos_site_id
_symmetry_equiv_pos_as_xyz
1 x,y,z
2 1/2-x,-y,1/2+z
3 3/4-y,1/4+x,1/4+z
4 3/4+y,3/4-x,3/4+z
5 1/2+x,1/2+y,1/2+z
6 -x,1/2-y,z
7 1/4-y,3/4+x,3/4+z
8 1/4+y,1/4-x,1/4+z
9 -x,-y,-z
10 1/2+x,y,1/2-z
11 1/4+y,3/4-x,3/4-z
12 1/4-y,1/4+x,1/4-z
13 1/2-x,1/2-y,1/2-z
14 x,1/2+y,-z
15 3/4+y,1/4-x,1/4-z
16 3/4-y,3/4+x,3/4-z
_cell_length_a                   21.2734(17)
_cell_length_b                   21.2734(17)
_cell_length_c                   9.258(3)
_cell_angle_alpha                90
_cell_angle_beta                 90
_cell_angle_gamma                90
_cell_volume                     4189.78
loop_
_atom_site_label
_atom_site_type_symbol
_atom_site_fract_x
_atom_site_fract_y
_atom_site_fract_z
O1 O 0.5601(3) 0.8708(3) 0.2002(13)
H1 H 0.541(4) 0.854(4) 0.119(5)
H2 H 0.544(4) 0.856(4) 0.287(4)
C1 C 0.5179(3) 0.8481(3) 0.5520(14)
C2 C 0.4409(3) 0.7614(3) 0.4266(14)
C3 C 0.6733(4) 1.0045(4) 0.2506(14)
H3 H 0.7014 0.9851 0.1879
C4 C 0.6823(4) 1.0596(4) 0.3235(16)
H4 H 0.7182 1.0845 0.3215
C5 C 0.6283(4) 1.0710(3) 0.4001(14)
H5 H 0.6211 1.1062 0.4574
C6 C 0.4259(5) 1.0178(5) 0.072(2)
H6 H 0.4195 1.0444 -0.0065
C7 C 0.4095(4) 0.9562(4) 0.0777(17)
H7 H 0.3921 0.9313 0.0054
C8 C 0.4249(4) 0.9397(4) 0.2159(17)
H8 H 0.4175 0.9000 0.2546
Mn1 Mn 0.5000 1.0000 0.5000
N1 N 0.5237(3) 0.8996(3) 0.5165(11)
N2 N 0.4107(3) 0.7673(4) 0.3249(15)
N3 N 0.5875(3) 1.0237(3) 0.3797(10)
N4 N 0.6154(3) 0.9839(3) 0.2877(13)
H9 H 0.5987 0.9497 0.2563
N5 N 0.4514(3) 0.9863(3) 0.2892(11)
N6 N 0.4514(4) 1.0333(3) 0.1915(15)
H10 H 0.4669 1.0700 0.2081
Nb1 Nb 0.5000 0.7500 0.6250
C1E C 0.4821(3) 0.6519(3) 0.5520(14)
C2E C 0.5591(3) 0.7386(3) 0.4266(14)
C3E C 0.3267(4) 0.4955(4) 0.2506(14)
H3E H 0.2986 0.5149 0.1879
C4E C 0.3177(4) 0.4404(4) 0.3235(16)
H4E H 0.2818 0.4155 0.3215
C5E C 0.3717(4) 0.4290(3) 0.4001(14)
H5E H 0.3789 0.3938 0.4574
C6E C 0.5741(5) 0.4822(5) 0.072(2)
H6E H 0.5805 0.4556 -0.0065
C7E C 0.5905(4) 0.5438(4) 0.0777(17)
H7E H 0.6079 0.5687 0.0054
C8E C 0.5751(4) 0.5603(4) 0.2159(17)
H8E H 0.5825 0.6000 0.2546
Mn1E Mn 0.5000 0.5000 0.5000
N1E N 0.4763(3) 0.6004(3) 0.5165(11)
N2E N 0.5893(3) 0.7327(4) 0.3249(15)
N3E N 0.4125(3) 0.4763(3) 0.3797(10)
N4E N 0.3846(3) 0.5161(3) 0.2877(13)
H9E H 0.4013 0.5503 0.2563
N5E N 0.5486(3) 0.5137(3) 0.2892(11)
N6E N 0.5486(4) 0.4667(3) 0.1915(15)
H10E H 0.5331 0.4300 0.2081
C1K C 0.4019(3) 0.7679(3) 0.6980(14)
C2K C 0.4886(3) 0.6909(3) 0.8234(14)
N1K N 0.3504(3) 0.7737(3) 0.7335(11)
N2K N 0.4827(4) 0.6607(3) 0.9251(15)
C1N C 0.5981(3) 0.7321(3) 0.6980(14)
C2N C 0.5114(3) 0.8091(3) 0.8234(14)
N1N N 0.6496(3) 0.7263(3) 0.7335(11)
N2N N 0.5173(4) 0.8393(3) 0.9251(15)
C3H C 0.3267(4) 0.9955(4) 0.7494(14)
H3H H 0.2986 1.0149 0.8121
C4H C 0.3177(4) 0.9404(4) 0.6765(16)
H4H H 0.2818 0.9155 0.6785
C5H C 0.3717(4) 0.9290(3) 0.5999(14)
H5H H 0.3789 0.8938 0.5426
N3H N 0.4125(3) 0.9763(3) 0.6203(10)
N4H N 0.3846(3) 1.0161(3) 0.7123(13)
H9H H 0.4013 1.0503 0.7437
C6H C 0.5741(5) 0.9822(5) 0.928(2)
H6H H 0.5805 0.9556 1.0065
C7H C 0.5905(4) 1.0438(4) 0.9223(17)
H7H H 0.6079 1.0687 0.9946
C8H C 0.5751(4) 1.0603(4) 0.7841(17)
H8H H 0.5825 1.1000 0.7454
N5H N 0.5486(3) 1.0137(3) 0.7108(11)
N6H N 0.5486(4) 0.9667(3) 0.8085(15)
H10H H 0.5331 0.9300 0.7919
C3M C 0.6733(4) 0.5045(4) 0.7494(14)
H3M H 0.7014 0.4851 0.8121
C4M C 0.6823(4) 0.5596(4) 0.6765(16)
H4M H 0.7182 0.5845 0.6785
C5M C 0.6283(4) 0.5710(3) 0.5999(14)
H5M H 0.6211 0.6062 0.5426
N3M N 0.5875(3) 0.5237(3) 0.6203(10)
N4M N 0.6154(3) 0.4839(3) 0.7123(13)
H9M H 0.5987 0.4497 0.7437
C6M C 0.4259(5) 0.5178(5) 0.928(2)
H6M H 0.4195 0.5444 1.0065
C7M C 0.4095(4) 0.4562(4) 0.9223(17)
H7M H 0.3921 0.4313 0.9946
C8M C 0.4249(4) 0.4397(4) 0.7841(17)
H8M H 0.4175 0.4000 0.7454
N5M N 0.4514(3) 0.4863(3) 0.7108(11)
N6M N 0.4514(4) 0.5333(3) 0.8085(15)
H10M H 0.4669 0.5700 0.7919
Mn1B Mn 0.7500 0.7500 0.7500
Mn1G Mn 0.2500 0.7500 0.7500
N1H N 0.4763(3) 1.1004(3) 0.4835(11)
N1M N 0.5237(3) 0.3996(3) 0.4835(11)
loop_
_geom_bond_atom_site_label_1
_geom_bond_atom_site_label_2
_geom_bond_site_symmetry_1
_geom_bond_site_symmetry_2
O1 H1 1_555 1_555
H2 O1 1_555 1_555
C1 N1 1_555 1_555
C2 N2 1_555 1_555
C3 H3 1_555 1_555
C4 C3 1_555 1_555
H4 C4 1_555 1_555
C5 C4 1_555 1_555
H5 C5 1_555 1_555
C6 H6 1_555 1_555
C7 C6 1_555 1_555
H7 C7 1_555 1_555
C8 C7 1_555 1_555
H8 C8 1_555 1_555
Mn1 N1 1_555 1_555
N3 C5 1_555 1_555
N4 C3 1_555 1_555
H9 N4 1_555 1_555
N5 C8 1_555 1_555
N6 C6 1_555 1_555
H10 N6 1_555 1_555
Nb1 C1 1_555 1_555
C1E Nb1 1_555 1_555
C2E Nb1 1_555 1_555
C3E H3E 1_555 1_555
C4E C3E 1_555 1_555
H4E C4E 1_555 1_555
C5E C4E 1_555 1_555
H5E C5E 1_555 1_555
C6E H6E 1_555 1_555
C7E C6E 1_555 1_555
H7E C7E 1_555 1_555
C8E C7E 1_555 1_555
H8E C8E 1_555 1_555
Mn1E N1E 1_555 1_555
N1E C1E 1_555 1_555
N2E C2E 1_555 1_555
N3E C5E 1_555 1_555
N4E C3E 1_555 1_555
H9E N4E 1_555 1_555
N5E C8E 1_555 1_555
N6E C6E 1_555 1_555
H10E N6E 1_555 1_555
C1K Nb1 1_555 1_555
C2K Nb1 1_555 1_555
N1K C1K 1_555 1_555
N2K C2K 1_555 1_555
C1N Nb1 1_555 1_555
C2N Nb1 1_555 1_555
N1N C1N 1_555 1_555
N2N C2N 1_555 1_555
C3H H3H 1_555 1_555
C4H C3H 1_555 1_555
H4H C4H 1_555 1_555
C5H C4H 1_555 1_555
H5H C5H 1_555 1_555
N3H Mn1 1_555 1_555
N4H C3H 1_555 1_555
H9H N4H 1_555 1_555
C6H H6H 1_555 1_555
C7H C6H 1_555 1_555
H7H C7H 1_555 1_555
C8H C7H 1_555 1_555
H8H C8H 1_555 1_555
N5H Mn1 1_555 1_555
N6H C6H 1_555 1_555
H10H N6H 1_555 1_555
C3M H3M 1_555 1_555
C4M C3M 1_555 1_555
H4M C4M 1_555 1_555
C5M C4M 1_555 1_555
H5M C5M 1_555 1_555
N3M Mn1E 1_555 1_555
N4M C3M 1_555 1_555
H9M N4M 1_555 1_555
C6M H6M 1_555 1_555
C7M C6M 1_555 1_555
H7M C7M 1_555 1_555
C8M C7M 1_555 1_555
H8M C8M 1_555 1_555
N5M Mn1E 1_555 1_555
N6M C6M 1_555 1_555
H10M N6M 1_555 1_555
Mn1B N1N 1_555 1_555
Mn1G N1K 1_555 1_555
N1H Mn1 1_555 1_555
N1M Mn1E 1_555 1_555
C2 Nb1 1_555 1_555
Mn1 N3 1_555 1_555
Mn1 N5 1_555 1_555
N3 N4 1_555 1_555
N5 N6 1_555 1_555
Mn1E N3E 1_555 1_555
Mn1E N5E 1_555 1_555
N3E N4E 1_555 1_555
N5E N6E 1_555 1_555
C5H N3H 1_555 1_555
N3H N4H 1_555 1_555
C8H N5H 1_555 1_555
N5H N6H 1_555 1_555
C5M N3M 1_555 1_555
N3M N4M 1_555 1_555
C8M N5M 1_555 1_555
N5M N6M 1_555 1_555

#END
