
#######################################################################
#
#                 Cambridge Crystallographic Data Centre
#                                CCDC 
#
#######################################################################
#
# If this CIF has been generated from an entry in the Cambridge 
# Structural Database, then it will include bibliographic, chemical, 
# crystal, experimental, refinement or atomic coordinate data resulting 
# from the CCDC's data processing and validation procedures.
#
#######################################################################

data_UJUJUF
_symmetry_cell_setting           tetragonal
_symmetry_space_group_name_H-M   'I 41/a'
_symmetry_Int_Tables_number      88
_space_group_name_Hall           '-I 4ad'
loop_
_symmetry_equiv_pos_site_id
_symmetry_equiv_pos_as_xyz
1 x,y,z
2 1/2-x,-y,1/2+z
3 3/4-y,1/4+x,1/4+z
4 3/4+y,3/4-x,3/4+z
5 1/2+x,1/2+y,1/2+z
6 -x,1/2-y,z
7 1/4-y,3/4+x,3/4+z
8 1/4+y,1/4-x,1/4+z
9 -x,-y,-z
10 1/2+x,y,1/2-z
11 1/4+y,3/4-x,3/4-z
12 1/4-y,1/4+x,1/4-z
13 1/2-x,1/2-y,1/2-z
14 x,1/2+y,-z
15 3/4+y,1/4-x,1/4-z
16 3/4-y,3/4+x,3/4-z
_cell_length_a                   21.8528(4)
_cell_length_b                   21.8528(4)
_cell_length_c                   9.6461(2)
_cell_angle_alpha                90
_cell_angle_beta                 90
_cell_angle_gamma                90
_cell_volume                     4606.45
loop_
_atom_site_label
_atom_site_type_symbol
_atom_site_fract_x
_atom_site_fract_y
_atom_site_fract_z
O1 O 0.05970(11) 0.36597(11) -0.3106(2)
H1 H 0.0341(18) 0.356(2) -0.382(4)
H2 H 0.069(3) 0.3287(15) -0.270(6)
C1 C 0.01216(11) 0.34810(11) 0.0561(2)
C2 C -0.05919(11) 0.25908(11) -0.0657(2)
C3 C 0.16345(16) 0.49783(16) -0.2632(3)
H3 H 0.1878 0.4787 -0.3294
C4 C 0.17559(16) 0.55164(16) -0.1989(4)
H4 H 0.2095 0.5767 -0.2111
C5 C 0.12601(15) 0.56112(14) -0.1103(3)
H5 H 0.1216 0.5949 -0.0526
C6 C -0.07113(18) 0.51874(16) -0.4183(3)
H6 H -0.0761 0.5438 -0.4954
C7 C -0.08575(17) 0.45831(15) -0.4092(3)
H7 H -0.1025 0.4335 -0.4779
C8 C -0.07027(14) 0.44194(13) -0.2755(3)
H8 H -0.0752 0.4028 -0.2391
Mn1 Mn 0.00000 0.50000 0.0000
N1 N 0.01570(11) 0.39834(9) 0.0220(2)
N2 N -0.08819(11) 0.26406(13) -0.1638(2)
N3 N 0.08613(11) 0.51576(10) -0.1192(2)
N4 N 0.10994(11) 0.47733(11) -0.2139(2)
H9 H 0.0929 0.4437 -0.2396
N5 N -0.04755(10) 0.48897(9) -0.2055(2)
N6 N -0.04854(13) 0.53507(11) -0.2967(2)
H10 H -0.0358 0.5714 -0.2782
Nb1 Nb 0.00000 0.25000 0.125
C1E C -0.01216(11) 0.15190(11) 0.0561(2)
C1K C -0.09810(11) 0.26216(11) 0.1939(2)
C1N C 0.09810(11) 0.23784(11) 0.1939(2)
C2E C 0.05919(11) 0.24092(11) -0.0657(2)
C2K C -0.00908(11) 0.19081(11) 0.3157(2)
C2N C 0.00908(11) 0.30919(11) 0.3157(2)
C3N C 0.24783(16) 0.08655(16) 0.5132(3)
C3H C -0.16345(16) 0.50217(16) 0.2632(3)
C3B C 0.25217(16) 0.41345(16) -0.0132(3)
H3N H 0.2287 0.0622 0.5794
H3H H -0.1878 0.5213 0.3294
H3B H 0.2713 0.4378 -0.0794
C4N C 0.30164(16) 0.07441(16) 0.4489(4)
C4H C -0.17559(16) 0.44836(16) 0.1989(4)
C4B C 0.19836(16) 0.42559(16) 0.0511(4)
H4N H 0.3267 0.0405 0.4611
H4H H -0.2095 0.4233 0.2111
H4B H 0.1733 0.4595 0.0389
C5N C 0.31112(14) 0.12399(15) 0.3603(3)
C5H C -0.12601(15) 0.43888(14) 0.1103(3)
C5B C 0.18888(14) 0.37601(15) 0.1397(3)
H5N H 0.3449 0.1284 0.3026
H5H H -0.1216 0.4051 0.0526
H5B H 0.1551 0.3716 0.1974
C6N C 0.26874(16) 0.32113(18) 0.6683(3)
C6H C 0.07113(18) 0.48126(16) 0.4183(3)
C6B C 0.23126(16) 0.17887(18) -0.1683(3)
H6N H 0.2938 0.3261 0.7454
H6H H 0.0761 0.4562 0.4954
H6B H 0.2062 0.1739 -0.2454
C7N C 0.20831(15) 0.33575(17) 0.6592(3)
C7H C 0.08575(17) 0.54169(15) 0.4092(3)
C7B C 0.29169(15) 0.16425(17) -0.1592(3)
H7N H 0.1835 0.3525 0.7279
H7H H 0.1025 0.5665 0.4779
H7B H 0.3165 0.1475 -0.2279
C8N C 0.19194(13) 0.32027(14) 0.5255(3)
C8H C 0.07027(14) 0.55806(13) 0.2755(3)
C8B C 0.30806(13) 0.17973(14) -0.0255(3)
H8N H 0.1528 0.3252 0.4891
H8H H 0.0752 0.5972 0.2391
H8B H 0.3472 0.1748 0.0109
Mn1B Mn 0.25000 0.25000 0.2500
Mn1G Mn -0.25000 0.25000 0.2500
Mn1E Mn 0.00000 0.00000 0.0000
N1E N -0.01570(11) 0.10166(9) 0.0220(2)
N1K N -0.14834(9) 0.26570(11) 0.2280(2)
N1N N 0.14834(9) 0.23430(11) 0.2280(2)
N1B N 0.35166(9) 0.26570(11) 0.2720(2)
N1H N -0.01570(11) 0.60166(9) -0.0220(2)
N2E N 0.08819(11) 0.23594(13) -0.1638(2)
N2K N -0.01406(13) 0.16181(11) 0.4138(2)
N2N N 0.01406(13) 0.33819(11) 0.4138(2)
N3N N 0.26576(10) 0.16387(11) 0.3692(2)
N3H N -0.08613(11) 0.48424(10) 0.1192(2)
N3B N 0.23424(10) 0.33613(11) 0.1308(2)
N4N N 0.22733(11) 0.14006(11) 0.4639(2)
N4H N -0.10994(11) 0.52267(11) 0.2139(2)
N4B N 0.27267(11) 0.35994(11) 0.0361(2)
H9N H 0.1937 0.1571 0.4896
H9H H -0.0929 0.5563 0.2396
H9B H 0.3063 0.3429 0.0104
N5N N 0.23897(9) 0.29755(10) 0.4555(2)
N5H N 0.04755(10) 0.51103(9) 0.2055(2)
N5B N 0.26103(9) 0.20245(10) 0.0445(2)
N6N N 0.28507(11) 0.29854(13) 0.5467(2)
N6H N 0.04854(13) 0.46493(11) 0.2967(2)
N6B N 0.21493(11) 0.20146(13) -0.0467(2)
H10N H 0.3214 0.2858 0.5282
H10H H 0.0358 0.4286 0.2782
H10B H 0.1786 0.2142 -0.0282
loop_
_geom_bond_atom_site_label_1
_geom_bond_atom_site_label_2
_geom_bond_site_symmetry_1
_geom_bond_site_symmetry_2
O1 H1 1_555 1_555
H2 O1 1_555 1_555
C1 N1 1_555 1_555
C2 N2 1_555 1_555
C3 H3 1_555 1_555
C4 C3 1_555 1_555
H4 C4 1_555 1_555
C5 C4 1_555 1_555
H5 C5 1_555 1_555
C6 H6 1_555 1_555
C7 C6 1_555 1_555
H7 C7 1_555 1_555
C8 C7 1_555 1_555
H8 C8 1_555 1_555
Mn1 N1 1_555 1_555
N3 C5 1_555 1_555
N4 C3 1_555 1_555
H9 N4 1_555 1_555
N5 C8 1_555 1_555
N6 C6 1_555 1_555
H10 N6 1_555 1_555
Nb1 C1 1_555 1_555
C1E Nb1 1_555 1_555
C1K Nb1 1_555 1_555
C1N Nb1 1_555 1_555
C2E Nb1 1_555 1_555
C2K Nb1 1_555 1_555
C2N Nb1 1_555 1_555
C3N H3N 1_555 1_555
C3H H3H 1_555 1_555
C3B H3B 1_555 1_555
C4N C3N 1_555 1_555
C4H C3H 1_555 1_555
C4B C3B 1_555 1_555
H4N C4N 1_555 1_555
H4H C4H 1_555 1_555
H4B C4B 1_555 1_555
C5N C4N 1_555 1_555
C5H C4H 1_555 1_555
C5B C4B 1_555 1_555
H5N C5N 1_555 1_555
H5H C5H 1_555 1_555
H5B C5B 1_555 1_555
C6N H6N 1_555 1_555
C6H H6H 1_555 1_555
C6B H6B 1_555 1_555
C7N C6N 1_555 1_555
C7H C6H 1_555 1_555
C7B C6B 1_555 1_555
H7N C7N 1_555 1_555
H7H C7H 1_555 1_555
H7B C7B 1_555 1_555
C8N C7N 1_555 1_555
C8H C7H 1_555 1_555
C8B C7B 1_555 1_555
H8N C8N 1_555 1_555
H8H C8H 1_555 1_555
H8B C8B 1_555 1_555
Mn1B N1N 1_555 1_555
Mn1G N1K 1_555 1_555
Mn1E N1E 1_555 1_555
N1E C1E 1_555 1_555
N1K C1K 1_555 1_555
N1N C1N 1_555 1_555
N1B Mn1B 1_555 1_555
N1H Mn1 1_555 1_555
N2E C2E 1_555 1_555
N2K C2K 1_555 1_555
N2N C2N 1_555 1_555
N3N C5N 1_555 1_555
N3H Mn1 1_555 1_555
N3B C5B 1_555 1_555
N4N C3N 1_555 1_555
N4H C3H 1_555 1_555
N4B C3B 1_555 1_555
H9N N4N 1_555 1_555
H9H N4H 1_555 1_555
H9B N4B 1_555 1_555
N5N C8N 1_555 1_555
N5H Mn1 1_555 1_555
N5B C8B 1_555 1_555
N6N C6N 1_555 1_555
N6H C6H 1_555 1_555
N6B C6B 1_555 1_555
H10N N6N 1_555 1_555
H10H N6H 1_555 1_555
H10B N6B 1_555 1_555
C2 Nb1 1_555 1_555
Mn1 N3 1_555 1_555
Mn1 N5 1_555 1_555
N3 N4 1_555 1_555
N5 N6 1_555 1_555
C5H N3H 1_555 1_555
C8H N5H 1_555 1_555
Mn1B N3N 1_555 1_555
Mn1B N3B 1_555 1_555
Mn1B N5N 1_555 1_555
Mn1B N5B 1_555 1_555
N3N N4N 1_555 1_555
N3H N4H 1_555 1_555
N3B N4B 1_555 1_555
N5N N6N 1_555 1_555
N5H N6H 1_555 1_555
N5B N6B 1_555 1_555

#END
