
#######################################################################
#
#                 Cambridge Crystallographic Data Centre
#                                CCDC 
#
#######################################################################
#
# If this CIF has been generated from an entry in the Cambridge 
# Structural Database, then it will include bibliographic, chemical, 
# crystal, experimental, refinement or atomic coordinate data resulting 
# from the CCDC's data processing and validation procedures.
#
#######################################################################

data_UJUJUF02
_symmetry_cell_setting           tetragonal
_symmetry_space_group_name_H-M   'I 41/a'
_symmetry_Int_Tables_number      88
_space_group_name_Hall           '-I 4ad'
loop_
_symmetry_equiv_pos_site_id
_symmetry_equiv_pos_as_xyz
1 x,y,z
2 1/2-x,-y,1/2+z
3 3/4-y,1/4+x,1/4+z
4 3/4+y,3/4-x,3/4+z
5 1/2+x,1/2+y,1/2+z
6 -x,1/2-y,z
7 1/4-y,3/4+x,3/4+z
8 1/4+y,1/4-x,1/4+z
9 -x,-y,-z
10 1/2+x,y,1/2-z
11 1/4+y,3/4-x,3/4-z
12 1/4-y,1/4+x,1/4-z
13 1/2-x,1/2-y,1/2-z
14 x,1/2+y,-z
15 3/4+y,1/4-x,1/4-z
16 3/4-y,3/4+x,3/4-z
_cell_length_a                   20.897(15)
_cell_length_b                   20.897(15)
_cell_length_c                   9.210(14)
_cell_angle_alpha                90
_cell_angle_beta                 90
_cell_angle_gamma                90
_cell_volume                     4021.87
loop_
_atom_site_label
_atom_site_type_symbol
_atom_site_fract_x
_atom_site_fract_y
_atom_site_fract_z
Nb1 Nb 1.0000 0.2500 0.1250
Mn1 Mn 1.0000 0.5000 0.0000
N1 N 1.0476(3) 0.4862(3) -0.2124(16)
C1 C 1.0581(4) 0.2608(4) -0.076(2)
N2 N 0.9749(3) 0.4001(3) 0.0180(16)
N3 N 1.0488(4) 0.5344(4) -0.314(2)
H1 H 1.0325 0.5716 -0.2982
N4 N 1.0877(3) 0.4738(4) 0.1208(14)
C2 C 1.1761(5) 0.4942(5) 0.246(2)
H2 H 1.2054 0.5143 0.3071
C3 C 0.9815(4) 0.3479(4) 0.0543(19)
C4 C 1.1297(5) 0.4274(4) 0.102(2)
H3 H 1.1222 0.3915 0.0449
C5 C 1.0777(7) 0.5188(6) -0.439(3)
H4 H 1.0864 0.5473 -0.5141
C6 C 1.0918(5) 0.4572(5) -0.441(3)
H5 H 1.1073 0.4319 -0.5160
N5 N 1.0896(5) 0.2684(4) -0.173(2)
C7 C 1.1835(4) 0.4376(5) 0.1733(19)
H6 H 1.2195 0.4114 0.1738
C8 C 1.0761(5) 0.4397(4) -0.290(2)
H7 H 1.0852 0.3996 -0.2520
N6 N 1.1172(4) 0.5143(4) 0.2107(18)
H8 H 1.1004 0.5493 0.2421
Mn1E Mn 1.0000 0.0000 0.0000
N1E N 0.9524(3) 0.0138(3) -0.2124(16)
C1E C 0.9419(4) 0.2392(4) -0.076(2)
N2E N 1.0251(3) 0.0999(3) 0.0180(16)
N3E N 0.9512(4) -0.0344(4) -0.314(2)
H1E H 0.9675 -0.0716 -0.2982
N4E N 0.9123(3) 0.0262(4) 0.1208(14)
C2E C 0.8239(5) 0.0058(5) 0.246(2)
H2E H 0.7946 -0.0143 0.3071
C3E C 1.0185(4) 0.1521(4) 0.0543(19)
C4E C 0.8703(5) 0.0726(4) 0.102(2)
H3E H 0.8778 0.1085 0.0449
C5E C 0.9223(7) -0.0188(6) -0.439(3)
H4E H 0.9136 -0.0473 -0.5141
C6E C 0.9082(5) 0.0428(5) -0.441(3)
H5E H 0.8927 0.0681 -0.5160
N5E N 0.9104(5) 0.2316(4) -0.173(2)
C7E C 0.8165(4) 0.0624(5) 0.1733(19)
H6E H 0.7805 0.0886 0.1738
C8E C 0.9239(5) 0.0603(4) -0.290(2)
H7E H 0.9148 0.1004 -0.2520
N6E N 0.8828(4) -0.0143(4) 0.2107(18)
H8E H 0.8996 -0.0493 0.2421
C1K C 0.9892(4) 0.3081(4) 0.326(2)
N2K N 0.8499(3) 0.2249(3) 0.2320(16)
C3K C 0.9021(4) 0.2315(4) 0.1957(19)
N5K N 0.9816(4) 0.3396(5) 0.423(2)
C1N C 1.0108(4) 0.1919(4) 0.326(2)
N2N N 1.1501(3) 0.2751(3) 0.2320(16)
C3N C 1.0979(4) 0.2685(4) 0.1957(19)
N5N N 1.0184(4) 0.1604(5) 0.423(2)
N1H N 0.9524(3) 0.5138(3) 0.2124(16)
N3H N 0.9512(4) 0.4656(4) 0.314(2)
H1H H 0.9675 0.4284 0.2982
C5H C 0.9223(7) 0.4812(6) 0.439(3)
H4H H 0.9136 0.4527 0.5141
C6H C 0.9082(5) 0.5428(5) 0.441(3)
H5H H 0.8927 0.5681 0.5160
C8H C 0.9239(5) 0.5603(4) 0.290(2)
H7H H 0.9148 0.6004 0.2520
N4H N 0.9123(3) 0.5262(4) -0.1208(14)
C2H C 0.8239(5) 0.5058(5) -0.246(2)
H2H H 0.7946 0.4857 -0.3071
C4H C 0.8703(5) 0.5726(4) -0.102(2)
H3H H 0.8778 0.6085 -0.0449
C7H C 0.8165(4) 0.5624(5) -0.1733(19)
H6H H 0.7805 0.5886 -0.1738
N6H N 0.8828(4) 0.4857(4) -0.2107(18)
H8H H 0.8996 0.4507 -0.2421
N1M N 1.0476(3) -0.0138(3) 0.2124(16)
N3M N 1.0488(4) 0.0344(4) 0.314(2)
H1M H 1.0325 0.0716 0.2982
C5M C 1.0777(7) 0.0188(6) 0.439(3)
H4M H 1.0864 0.0473 0.5141
C6M C 1.0918(5) -0.0428(5) 0.441(3)
H5M H 1.1073 -0.0681 0.5160
C8M C 1.0761(5) -0.0603(4) 0.290(2)
H7M H 1.0852 -0.1004 0.2520
N4M N 1.0877(3) -0.0262(4) -0.1208(14)
C2M C 1.1761(5) -0.0058(5) -0.246(2)
H2M H 1.2054 0.0143 -0.3071
C4M C 1.1297(5) -0.0726(4) -0.102(2)
H3M H 1.1222 -0.1085 -0.0449
C7M C 1.1835(4) -0.0624(5) -0.1733(19)
H6M H 1.2195 -0.0886 -0.1738
N6M N 1.1172(4) 0.0143(4) -0.2107(18)
H8M H 1.1004 0.0493 -0.2421
Mn1B Mn 1.2500 0.2500 0.2500
Mn1G Mn 0.7500 0.2500 0.2500
N2H N 1.0251(3) 0.5999(3) -0.0180(16)
N2M N 0.9749(3) -0.0999(3) -0.0180(16)
O1 O 1.1220(3) 0.3106(3) -0.4569(14)
H9 H 1.086(2) 0.333(3) -0.46(2)
H10 H 1.105(4) 0.277(4) -0.412(15)
loop_
_geom_bond_atom_site_label_1
_geom_bond_atom_site_label_2
_geom_bond_site_symmetry_1
_geom_bond_site_symmetry_2
Nb1 C1 1_555 1_555
Mn1 N1 1_555 1_555
N1 N3 1_555 1_555
C1 N5 1_555 1_555
N2 Mn1 1_555 1_555
N3 H1 1_555 1_555
N4 Mn1 1_555 1_555
C2 H2 1_555 1_555
C3 Nb1 1_555 1_555
C4 N4 1_555 1_555
H3 C4 1_555 1_555
C5 N3 1_555 1_555
H4 C5 1_555 1_555
C6 C5 1_555 1_555
H5 C6 1_555 1_555
C7 C2 1_555 1_555
H6 C7 1_555 1_555
C8 N1 1_555 1_555
H7 C8 1_555 1_555
N6 N4 1_555 1_555
H8 N6 1_555 1_555
O1 H9 1_555 1_555
H10 O1 1_555 1_555
Mn1E N1E 1_555 1_555
N1E N3E 1_555 1_555
C1E Nb1 1_555 1_555
N2E Mn1E 1_555 1_555
N3E H1E 1_555 1_555
N4E Mn1E 1_555 1_555
C2E H2E 1_555 1_555
C3E Nb1 1_555 1_555
C4E N4E 1_555 1_555
H3E C4E 1_555 1_555
C5E N3E 1_555 1_555
H4E C5E 1_555 1_555
C6E C5E 1_555 1_555
H5E C6E 1_555 1_555
N5E C1E 1_555 1_555
C7E C2E 1_555 1_555
H6E C7E 1_555 1_555
C8E N1E 1_555 1_555
H7E C8E 1_555 1_555
N6E N4E 1_555 1_555
H8E N6E 1_555 1_555
C1K Nb1 1_555 1_555
N2K C3K 1_555 1_555
C3K Nb1 1_555 1_555
N5K C1K 1_555 1_555
C1N Nb1 1_555 1_555
N2N C3N 1_555 1_555
C3N Nb1 1_555 1_555
N5N C1N 1_555 1_555
N1H Mn1 1_555 1_555
N3H N1H 1_555 1_555
H1H N3H 1_555 1_555
C5H N3H 1_555 1_555
H4H C5H 1_555 1_555
C6H C5H 1_555 1_555
H5H C6H 1_555 1_555
C8H N1H 1_555 1_555
H7H C8H 1_555 1_555
N4H Mn1 1_555 1_555
C2H H2H 1_555 1_555
C4H N4H 1_555 1_555
H3H C4H 1_555 1_555
C7H C2H 1_555 1_555
H6H C7H 1_555 1_555
N6H N4H 1_555 1_555
H8H N6H 1_555 1_555
N1M Mn1E 1_555 1_555
N3M N1M 1_555 1_555
H1M N3M 1_555 1_555
C5M N3M 1_555 1_555
H4M C5M 1_555 1_555
C6M C5M 1_555 1_555
H5M C6M 1_555 1_555
C8M N1M 1_555 1_555
H7M C8M 1_555 1_555
N4M Mn1E 1_555 1_555
C2M H2M 1_555 1_555
C4M N4M 1_555 1_555
H3M C4M 1_555 1_555
C7M C2M 1_555 1_555
H6M C7M 1_555 1_555
N6M N4M 1_555 1_555
H8M N6M 1_555 1_555
Mn1B N2N 1_555 1_555
Mn1G N2K 1_555 1_555
N2H Mn1 1_555 1_555
N2M Mn1E 1_555 1_555
N2 C3 1_555 1_555
C2 N6 1_555 1_555
C4 C7 1_555 1_555
C6 C8 1_555 1_555
N2E C3E 1_555 1_555
C2E N6E 1_555 1_555
C4E C7E 1_555 1_555
C6E C8E 1_555 1_555
C6H C8H 1_555 1_555
C2H N6H 1_555 1_555
C4H C7H 1_555 1_555
C6M C8M 1_555 1_555
C2M N6M 1_555 1_555
C4M C7M 1_555 1_555

#END
