
#######################################################################
#
#                 Cambridge Crystallographic Data Centre
#                                CCDC 
#
#######################################################################
#
# If this CIF has been generated from an entry in the Cambridge 
# Structural Database, then it will include bibliographic, chemical, 
# crystal, experimental, refinement or atomic coordinate data resulting 
# from the CCDC's data processing and validation procedures.
#
#######################################################################

data_UJUJUF05
_symmetry_cell_setting           tetragonal
_symmetry_space_group_name_H-M   'I 41/a'
_symmetry_Int_Tables_number      88
_space_group_name_Hall           '-I 4ad'
loop_
_symmetry_equiv_pos_site_id
_symmetry_equiv_pos_as_xyz
1 x,y,z
2 1/2-x,-y,1/2+z
3 3/4-y,1/4+x,1/4+z
4 3/4+y,3/4-x,3/4+z
5 1/2+x,1/2+y,1/2+z
6 -x,1/2-y,z
7 1/4-y,3/4+x,3/4+z
8 1/4+y,1/4-x,1/4+z
9 -x,-y,-z
10 1/2+x,y,1/2-z
11 1/4+y,3/4-x,3/4-z
12 1/4-y,1/4+x,1/4-z
13 1/2-x,1/2-y,1/2-z
14 x,1/2+y,-z
15 3/4+y,1/4-x,1/4-z
16 3/4-y,3/4+x,3/4-z
_cell_length_a                   21.6751(19)
_cell_length_b                   21.6751(19)
_cell_length_c                   9.526(2)
_cell_angle_alpha                90
_cell_angle_beta                 90
_cell_angle_gamma                90
_cell_volume                     4475.41
loop_
_atom_site_label
_atom_site_type_symbol
_atom_site_fract_x
_atom_site_fract_y
_atom_site_fract_z
O1 O 0.5596(3) 0.8678(3) 0.1964(12)
H1 H 0.547(5) 0.870(4) 0.103(3)
H2 H 0.559(4) 0.8282(18) 0.234(9)
C1 C 0.5142(3) 0.8474(3) 0.5527(13)
C2 C 0.4406(3) 0.7593(3) 0.4308(14)
C3 C 0.6689(5) 1.0001(5) 0.2415(16)
H3 H 0.6954 0.9804 0.1793
C4 C 0.6779(5) 1.0547(5) 0.3077(18)
H4 H 0.7120 1.0805 0.2978
C5 C 0.6277(4) 1.0649(4) 0.3924(15)
H5 H 0.6227 1.0994 0.4493
C6 C 0.4277(5) 1.0178(5) 0.080(2)
H6 H 0.4226 1.0430 0.0022
C7 C 0.4124(5) 0.9584(5) 0.0884(17)
H7 H 0.3948 0.9339 0.0188
C8 C 0.4280(4) 0.9416(4) 0.2204(16)
H8 H 0.4226 0.9021 0.2565
Mn1 Mn 0.5000 1.0000 0.5000
N1 N 0.5187(3) 0.8986(3) 0.5187(12)
N2 N 0.4116(4) 0.7671(4) 0.3317(14)
N3 N 0.5865(3) 1.0186(3) 0.3822(10)
N4 N 0.6127(3) 0.9806(3) 0.2860(13)
H9 H 0.5954 0.9474 0.2561
N5 N 0.4520(3) 0.9885(3) 0.2924(12)
N6 N 0.4514(4) 1.0347(3) 0.2018(15)
H10 H 0.4648 1.0713 0.2198
Nb1 Nb 0.5000 0.7500 0.6250
C1E C 0.4858(3) 0.6526(3) 0.5527(13)
C2E C 0.5594(3) 0.7407(3) 0.4308(14)
C3E C 0.3311(5) 0.4999(5) 0.2415(16)
H3E H 0.3046 0.5196 0.1793
C4E C 0.3221(5) 0.4453(5) 0.3077(18)
H4E H 0.2880 0.4195 0.2978
C5E C 0.3723(4) 0.4351(4) 0.3924(15)
H5E H 0.3773 0.4006 0.4493
C6E C 0.5723(5) 0.4822(5) 0.080(2)
H6E H 0.5774 0.4570 0.0022
C7E C 0.5876(5) 0.5416(5) 0.0884(17)
H7E H 0.6052 0.5661 0.0188
C8E C 0.5720(4) 0.5584(4) 0.2204(16)
H8E H 0.5774 0.5979 0.2565
Mn1E Mn 0.5000 0.5000 0.5000
N1E N 0.4813(3) 0.6014(3) 0.5187(12)
N2E N 0.5884(4) 0.7329(4) 0.3317(14)
N3E N 0.4135(3) 0.4814(3) 0.3822(10)
N4E N 0.3873(3) 0.5194(3) 0.2860(13)
H9E H 0.4046 0.5526 0.2561
N5E N 0.5480(3) 0.5115(3) 0.2924(12)
N6E N 0.5486(4) 0.4653(3) 0.2018(15)
H10E H 0.5352 0.4287 0.2198
C1K C 0.4026(3) 0.7642(3) 0.6973(13)
C2K C 0.4907(3) 0.6906(3) 0.8192(14)
N1K N 0.3514(3) 0.7687(3) 0.7313(12)
N2K N 0.4829(4) 0.6616(4) 0.9183(14)
C1N C 0.5974(3) 0.7358(3) 0.6973(13)
C2N C 0.5093(3) 0.8094(3) 0.8192(14)
N1N N 0.6486(3) 0.7313(3) 0.7313(12)
N2N N 0.5171(4) 0.8384(4) 0.9183(14)
C3H C 0.3311(5) 0.9999(5) 0.7585(16)
H3H H 0.3046 1.0196 0.8207
C4H C 0.3221(5) 0.9453(5) 0.6923(18)
H4H H 0.2880 0.9195 0.7022
C5H C 0.3723(4) 0.9351(4) 0.6076(15)
H5H H 0.3773 0.9006 0.5507
N3H N 0.4135(3) 0.9814(3) 0.6178(10)
N4H N 0.3873(3) 1.0194(3) 0.7140(13)
H9H H 0.4046 1.0526 0.7439
C6H C 0.5723(5) 0.9822(5) 0.920(2)
H6H H 0.5774 0.9570 0.9978
C7H C 0.5876(5) 1.0416(5) 0.9116(17)
H7H H 0.6052 1.0661 0.9812
C8H C 0.5720(4) 1.0584(4) 0.7796(16)
H8H H 0.5774 1.0979 0.7435
N5H N 0.5480(3) 1.0115(3) 0.7076(12)
N6H N 0.5486(4) 0.9653(3) 0.7982(15)
H10H H 0.5352 0.9287 0.7802
C3M C 0.6689(5) 0.5001(5) 0.7585(16)
H3M H 0.6954 0.4804 0.8207
C4M C 0.6779(5) 0.5547(5) 0.6923(18)
H4M H 0.7120 0.5805 0.7022
C5M C 0.6277(4) 0.5649(4) 0.6076(15)
H5M H 0.6227 0.5994 0.5507
N3M N 0.5865(3) 0.5186(3) 0.6178(10)
N4M N 0.6127(3) 0.4806(3) 0.7140(13)
H9M H 0.5954 0.4474 0.7439
C6M C 0.4277(5) 0.5178(5) 0.920(2)
H6M H 0.4226 0.5430 0.9978
C7M C 0.4124(5) 0.4584(5) 0.9116(17)
H7M H 0.3948 0.4339 0.9812
C8M C 0.4280(4) 0.4416(4) 0.7796(16)
H8M H 0.4226 0.4021 0.7435
N5M N 0.4520(3) 0.4885(3) 0.7076(12)
N6M N 0.4514(4) 0.5347(3) 0.7982(15)
H10M H 0.4648 0.5713 0.7802
Mn1B Mn 0.7500 0.7500 0.7500
Mn1G Mn 0.2500 0.7500 0.7500
N1H N 0.4813(3) 1.1014(3) 0.4813(12)
N1M N 0.5187(3) 0.3986(3) 0.4813(12)
loop_
_geom_bond_atom_site_label_1
_geom_bond_atom_site_label_2
_geom_bond_site_symmetry_1
_geom_bond_site_symmetry_2
O1 H1 1_555 1_555
H2 O1 1_555 1_555
C1 N1 1_555 1_555
C2 N2 1_555 1_555
C3 H3 1_555 1_555
C4 C3 1_555 1_555
H4 C4 1_555 1_555
C5 C4 1_555 1_555
H5 C5 1_555 1_555
C6 H6 1_555 1_555
C7 C6 1_555 1_555
H7 C7 1_555 1_555
C8 C7 1_555 1_555
H8 C8 1_555 1_555
Mn1 N1 1_555 1_555
N3 C5 1_555 1_555
N4 C3 1_555 1_555
H9 N4 1_555 1_555
N5 C8 1_555 1_555
N6 C6 1_555 1_555
H10 N6 1_555 1_555
Nb1 C1 1_555 1_555
C1E Nb1 1_555 1_555
C2E Nb1 1_555 1_555
C3E H3E 1_555 1_555
C4E C3E 1_555 1_555
H4E C4E 1_555 1_555
C5E C4E 1_555 1_555
H5E C5E 1_555 1_555
C6E H6E 1_555 1_555
C7E C6E 1_555 1_555
H7E C7E 1_555 1_555
C8E C7E 1_555 1_555
H8E C8E 1_555 1_555
Mn1E N1E 1_555 1_555
N1E C1E 1_555 1_555
N2E C2E 1_555 1_555
N3E C5E 1_555 1_555
N4E C3E 1_555 1_555
H9E N4E 1_555 1_555
N5E C8E 1_555 1_555
N6E C6E 1_555 1_555
H10E N6E 1_555 1_555
C1K Nb1 1_555 1_555
C2K Nb1 1_555 1_555
N1K C1K 1_555 1_555
N2K C2K 1_555 1_555
C1N Nb1 1_555 1_555
C2N Nb1 1_555 1_555
N1N C1N 1_555 1_555
N2N C2N 1_555 1_555
C3H H3H 1_555 1_555
C4H C3H 1_555 1_555
H4H C4H 1_555 1_555
C5H C4H 1_555 1_555
H5H C5H 1_555 1_555
N3H Mn1 1_555 1_555
N4H C3H 1_555 1_555
H9H N4H 1_555 1_555
C6H H6H 1_555 1_555
C7H C6H 1_555 1_555
H7H C7H 1_555 1_555
C8H C7H 1_555 1_555
H8H C8H 1_555 1_555
N5H Mn1 1_555 1_555
N6H C6H 1_555 1_555
H10H N6H 1_555 1_555
C3M H3M 1_555 1_555
C4M C3M 1_555 1_555
H4M C4M 1_555 1_555
C5M C4M 1_555 1_555
H5M C5M 1_555 1_555
N3M Mn1E 1_555 1_555
N4M C3M 1_555 1_555
H9M N4M 1_555 1_555
C6M H6M 1_555 1_555
C7M C6M 1_555 1_555
H7M C7M 1_555 1_555
C8M C7M 1_555 1_555
H8M C8M 1_555 1_555
N5M Mn1E 1_555 1_555
N6M C6M 1_555 1_555
H10M N6M 1_555 1_555
Mn1B N1N 1_555 1_555
Mn1G N1K 1_555 1_555
N1H Mn1 1_555 1_555
N1M Mn1E 1_555 1_555
C2 Nb1 1_555 1_555
Mn1 N3 1_555 1_555
Mn1 N5 1_555 1_555
N3 N4 1_555 1_555
N5 N6 1_555 1_555
Mn1E N3E 1_555 1_555
Mn1E N5E 1_555 1_555
N3E N4E 1_555 1_555
N5E N6E 1_555 1_555
C5H N3H 1_555 1_555
N3H N4H 1_555 1_555
C8H N5H 1_555 1_555
N5H N6H 1_555 1_555
C5M N3M 1_555 1_555
N3M N4M 1_555 1_555
C8M N5M 1_555 1_555
N5M N6M 1_555 1_555

#END
