
#######################################################################
#
#                 Cambridge Crystallographic Data Centre
#                                CCDC 
#
#######################################################################
#
# If this CIF has been generated from an entry in the Cambridge 
# Structural Database, then it will include bibliographic, chemical, 
# crystal, experimental, refinement or atomic coordinate data resulting 
# from the CCDC's data processing and validation procedures.
#
#######################################################################

data_UJUJUF10
_symmetry_cell_setting           tetragonal
_symmetry_space_group_name_H-M   'I 41/a'
_symmetry_Int_Tables_number      88
_space_group_name_Hall           '-I 4ad'
loop_
_symmetry_equiv_pos_site_id
_symmetry_equiv_pos_as_xyz
1 x,y,z
2 1/2-x,-y,1/2+z
3 3/4-y,1/4+x,1/4+z
4 3/4+y,3/4-x,3/4+z
5 1/2+x,1/2+y,1/2+z
6 -x,1/2-y,z
7 1/4-y,3/4+x,3/4+z
8 1/4+y,1/4-x,1/4+z
9 -x,-y,-z
10 1/2+x,y,1/2-z
11 1/4+y,3/4-x,3/4-z
12 1/4-y,1/4+x,1/4-z
13 1/2-x,1/2-y,1/2-z
14 x,1/2+y,-z
15 3/4+y,1/4-x,1/4-z
16 3/4-y,3/4+x,3/4-z
_cell_length_a                   21.1568(5)
_cell_length_b                   21.1568(5)
_cell_length_c                   9.303(4)
_cell_angle_alpha                90
_cell_angle_beta                 90
_cell_angle_gamma                90
_cell_volume                     4164.12
loop_
_atom_site_label
_atom_site_type_symbol
_atom_site_fract_x
_atom_site_fract_y
_atom_site_fract_z
O1 O 0.5600(2) 0.8706(2) 0.2011(15)
H1 H 0.542(4) 0.861(4) 0.112(4)
H2 H 0.553(3) 0.840(3) 0.271(6)
C1 C 0.5175(2) 0.8489(2) 0.5565(14)
C2 C 0.4406(3) 0.7620(2) 0.4337(18)
C3 C 0.6727(3) 1.0046(3) 0.2510(17)
H3 H 0.7007 0.9847 0.1888
C4 C 0.6820(3) 1.0600(3) 0.3218(16)
H4 H 0.7176 1.0857 0.3177
C5 C 0.6279(3) 1.0705(2) 0.4009(16)
H5 H 0.6214 1.1051 0.4607
C6 C 0.4253(5) 1.0183(3) 0.071(2)
H6 H 0.4196 1.0450 -0.0073
C7 C 0.4072(4) 0.9568(3) 0.077(2)
H7 H 0.3868 0.9330 0.0066
C8 C 0.4252(3) 0.9391(3) 0.2038(19)
H8 H 0.4205 0.8980 0.2372
Mn1 Mn 0.5000 1.0000 0.5000
N1 N 0.5239(2) 0.89975(19) 0.5158(13)
N2 N 0.4107(3) 0.7685(3) 0.3252(17)
N3 N 0.5866(2) 1.02438(19) 0.3797(11)
N4 N 0.6150(2) 0.9846(2) 0.2890(14)
H9 H 0.5981 0.9501 0.2584
N5 N 0.4517(2) 0.9863(2) 0.2844(13)
N6 N 0.4510(3) 1.0338(2) 0.1880(17)
H10 H 0.4664 1.0707 0.2045
Nb1 Nb 0.5000 0.7500 0.6250
C1E C 0.4825(2) 0.6511(2) 0.5565(14)
C2E C 0.5594(3) 0.7380(2) 0.4337(18)
C3E C 0.3273(3) 0.4954(3) 0.2510(17)
H3E H 0.2993 0.5153 0.1888
C4E C 0.3180(3) 0.4400(3) 0.3218(16)
H4E H 0.2824 0.4143 0.3177
C5E C 0.3721(3) 0.4295(2) 0.4009(16)
H5E H 0.3786 0.3949 0.4607
C6E C 0.5747(5) 0.4817(3) 0.071(2)
H6E H 0.5804 0.4550 -0.0073
C7E C 0.5928(4) 0.5432(3) 0.077(2)
H7E H 0.6132 0.5670 0.0066
C8E C 0.5748(3) 0.5609(3) 0.2038(19)
H8E H 0.5795 0.6020 0.2372
Mn1E Mn 0.5000 0.5000 0.5000
N1E N 0.4761(2) 0.60025(19) 0.5158(13)
N2E N 0.5893(3) 0.7315(3) 0.3252(17)
N3E N 0.4134(2) 0.47562(19) 0.3797(11)
N4E N 0.3850(2) 0.5154(2) 0.2890(14)
H9E H 0.4019 0.5499 0.2584
N5E N 0.5483(2) 0.5137(2) 0.2844(13)
N6E N 0.5490(3) 0.4662(2) 0.1880(17)
H10E H 0.5336 0.4293 0.2045
C1K C 0.4011(2) 0.7675(2) 0.6935(14)
C2K C 0.4880(2) 0.6906(3) 0.8163(18)
N1K N 0.35025(19) 0.7739(2) 0.7342(13)
N2K N 0.4815(3) 0.6607(3) 0.9248(17)
C1N C 0.5989(2) 0.7325(2) 0.6935(14)
C2N C 0.5120(2) 0.8094(3) 0.8163(18)
N1N N 0.64975(19) 0.7261(2) 0.7342(13)
N2N N 0.5185(3) 0.8393(3) 0.9248(17)
C3H C 0.3273(3) 0.9954(3) 0.7490(17)
H3H H 0.2993 1.0153 0.8112
C4H C 0.3180(3) 0.9400(3) 0.6782(16)
H4H H 0.2824 0.9143 0.6823
C5H C 0.3721(3) 0.9295(2) 0.5991(16)
H5H H 0.3786 0.8949 0.5393
N3H N 0.4134(2) 0.97562(19) 0.6203(11)
N4H N 0.3850(2) 1.0154(2) 0.7110(14)
H9H H 0.4019 1.0499 0.7416
C6H C 0.5747(5) 0.9817(3) 0.929(2)
H6H H 0.5804 0.9550 1.0073
C7H C 0.5928(4) 1.0432(3) 0.923(2)
H7H H 0.6132 1.0670 0.9934
C8H C 0.5748(3) 1.0609(3) 0.7962(19)
H8H H 0.5795 1.1020 0.7628
N5H N 0.5483(2) 1.0137(2) 0.7156(13)
N6H N 0.5490(3) 0.9662(2) 0.8120(17)
H10H H 0.5336 0.9293 0.7955
C3M C 0.6727(3) 0.5046(3) 0.7490(17)
H3M H 0.7007 0.4847 0.8112
C4M C 0.6820(3) 0.5600(3) 0.6782(16)
H4M H 0.7176 0.5857 0.6823
C5M C 0.6279(3) 0.5705(2) 0.5991(16)
H5M H 0.6214 0.6051 0.5393
N3M N 0.5866(2) 0.52438(19) 0.6203(11)
N4M N 0.6150(2) 0.4846(2) 0.7110(14)
H9M H 0.5981 0.4501 0.7416
C6M C 0.4253(5) 0.5183(3) 0.929(2)
H6M H 0.4196 0.5450 1.0073
C7M C 0.4072(4) 0.4568(3) 0.923(2)
H7M H 0.3868 0.4330 0.9934
C8M C 0.4252(3) 0.4391(3) 0.7962(19)
H8M H 0.4205 0.3980 0.7628
N5M N 0.4517(2) 0.4863(2) 0.7156(13)
N6M N 0.4510(3) 0.5338(2) 0.8120(17)
H10M H 0.4664 0.5707 0.7955
Mn1B Mn 0.7500 0.7500 0.7500
Mn1G Mn 0.2500 0.7500 0.7500
N1H N 0.4761(2) 1.10025(19) 0.4842(13)
N1M N 0.5239(2) 0.39975(19) 0.4842(13)
loop_
_geom_bond_atom_site_label_1
_geom_bond_atom_site_label_2
_geom_bond_site_symmetry_1
_geom_bond_site_symmetry_2
O1 H1 1_555 1_555
H2 O1 1_555 1_555
C1 N1 1_555 1_555
C2 N2 1_555 1_555
C3 H3 1_555 1_555
C4 C3 1_555 1_555
H4 C4 1_555 1_555
C5 C4 1_555 1_555
H5 C5 1_555 1_555
C6 H6 1_555 1_555
C7 C6 1_555 1_555
H7 C7 1_555 1_555
C8 C7 1_555 1_555
H8 C8 1_555 1_555
Mn1 N1 1_555 1_555
N3 C5 1_555 1_555
N4 C3 1_555 1_555
H9 N4 1_555 1_555
N5 C8 1_555 1_555
N6 C6 1_555 1_555
H10 N6 1_555 1_555
Nb1 C1 1_555 1_555
C1E Nb1 1_555 1_555
C2E Nb1 1_555 1_555
C3E H3E 1_555 1_555
C4E C3E 1_555 1_555
H4E C4E 1_555 1_555
C5E C4E 1_555 1_555
H5E C5E 1_555 1_555
C6E H6E 1_555 1_555
C7E C6E 1_555 1_555
H7E C7E 1_555 1_555
C8E C7E 1_555 1_555
H8E C8E 1_555 1_555
Mn1E N1E 1_555 1_555
N1E C1E 1_555 1_555
N2E C2E 1_555 1_555
N3E C5E 1_555 1_555
N4E C3E 1_555 1_555
H9E N4E 1_555 1_555
N5E C8E 1_555 1_555
N6E C6E 1_555 1_555
H10E N6E 1_555 1_555
C1K Nb1 1_555 1_555
C2K Nb1 1_555 1_555
N1K C1K 1_555 1_555
N2K C2K 1_555 1_555
C1N Nb1 1_555 1_555
C2N Nb1 1_555 1_555
N1N C1N 1_555 1_555
N2N C2N 1_555 1_555
C3H H3H 1_555 1_555
C4H C3H 1_555 1_555
H4H C4H 1_555 1_555
C5H C4H 1_555 1_555
H5H C5H 1_555 1_555
N3H Mn1 1_555 1_555
N4H C3H 1_555 1_555
H9H N4H 1_555 1_555
C6H H6H 1_555 1_555
C7H C6H 1_555 1_555
H7H C7H 1_555 1_555
C8H C7H 1_555 1_555
H8H C8H 1_555 1_555
N5H Mn1 1_555 1_555
N6H C6H 1_555 1_555
H10H N6H 1_555 1_555
C3M H3M 1_555 1_555
C4M C3M 1_555 1_555
H4M C4M 1_555 1_555
C5M C4M 1_555 1_555
H5M C5M 1_555 1_555
N3M Mn1E 1_555 1_555
N4M C3M 1_555 1_555
H9M N4M 1_555 1_555
C6M H6M 1_555 1_555
C7M C6M 1_555 1_555
H7M C7M 1_555 1_555
C8M C7M 1_555 1_555
H8M C8M 1_555 1_555
N5M Mn1E 1_555 1_555
N6M C6M 1_555 1_555
H10M N6M 1_555 1_555
Mn1B N1N 1_555 1_555
Mn1G N1K 1_555 1_555
N1H Mn1 1_555 1_555
N1M Mn1E 1_555 1_555
C2 Nb1 1_555 1_555
Mn1 N3 1_555 1_555
Mn1 N5 1_555 1_555
N3 N4 1_555 1_555
N5 N6 1_555 1_555
Mn1E N3E 1_555 1_555
Mn1E N5E 1_555 1_555
N3E N4E 1_555 1_555
N5E N6E 1_555 1_555
C5H N3H 1_555 1_555
N3H N4H 1_555 1_555
C8H N5H 1_555 1_555
N5H N6H 1_555 1_555
C5M N3M 1_555 1_555
N3M N4M 1_555 1_555
C8M N5M 1_555 1_555
N5M N6M 1_555 1_555

#END
