
#######################################################################
#
#                 Cambridge Crystallographic Data Centre
#                                CCDC 
#
#######################################################################
#
# If this CIF has been generated from an entry in the Cambridge 
# Structural Database, then it will include bibliographic, chemical, 
# crystal, experimental, refinement or atomic coordinate data resulting 
# from the CCDC's data processing and validation procedures.
#
#######################################################################

data_UJUKAM07
_symmetry_cell_setting           tetragonal
_symmetry_space_group_name_H-M   'I 41/a'
_symmetry_Int_Tables_number      88
_space_group_name_Hall           '-I 4ad'
loop_
_symmetry_equiv_pos_site_id
_symmetry_equiv_pos_as_xyz
1 x,y,z
2 1/2-x,-y,1/2+z
3 3/4-y,1/4+x,1/4+z
4 3/4+y,3/4-x,3/4+z
5 1/2+x,1/2+y,1/2+z
6 -x,1/2-y,z
7 1/4-y,3/4+x,3/4+z
8 1/4+y,1/4-x,1/4+z
9 -x,-y,-z
10 1/2+x,y,1/2-z
11 1/4+y,3/4-x,3/4-z
12 1/4-y,1/4+x,1/4-z
13 1/2-x,1/2-y,1/2-z
14 x,1/2+y,-z
15 3/4+y,1/4-x,1/4-z
16 3/4-y,3/4+x,3/4-z
_cell_length_a                   20.717(2)
_cell_length_b                   20.717(2)
_cell_length_c                   9.222(6)
_cell_angle_alpha                90
_cell_angle_beta                 90
_cell_angle_gamma                90
_cell_volume                     3958.03
loop_
_atom_site_label
_atom_site_type_symbol
_atom_site_fract_x
_atom_site_fract_y
_atom_site_fract_z
Nb1 Nb 0.5000 0.7500 0.6250
Fe1 Fe 0.2500 0.7500 0.7500
C1 C 0.3988(6) 0.7664(5) 0.6936(18)
N1 N 0.3453(5) 0.7702(4) 0.7309(15)
C2 C 0.5601(7) 0.7397(7) 0.427(3)
N2 N 0.5903(5) 0.7326(5) 0.3242(19)
N3 N 0.2292(5) 0.8334(5) 0.8595(15)
N4 N 0.2686(5) 0.8627(6) 0.9586(18)
H1 H 0.3038 0.8455 0.9898
C3 C 0.2474(7) 0.9206(7) 1.0028(19)
H2 H 0.2667 0.9485 1.0689
C4 C 0.1906(7) 0.9295(7) 0.928(2)
H3 H 0.1633 0.9651 0.9308
C5 C 0.1834(6) 0.8759(7) 0.852(2)
H4 H 0.1469 0.8690 0.7951
N5 N 0.2362(6) 0.7939(5) 0.5523(17)
N6 N 0.2836(6) 0.7964(6) 0.452(2)
H5 H 0.3217 0.7815 0.4685
C6 C 0.2678(8) 0.8236(7) 0.326(3)
H6 H 0.2938 0.8297 0.2445
C7 C 0.2045(6) 0.8402(6) 0.344(2)
H7 H 0.1775 0.8593 0.2758
C8 C 0.1891(7) 0.8227(7) 0.484(2)
H8 H 0.1490 0.8306 0.5262
Fe1E Fe 0.7500 0.7500 0.7500
C1E C 0.6012(6) 0.7336(5) 0.6936(18)
N1E N 0.6547(5) 0.7298(4) 0.7309(15)
C2E C 0.4399(7) 0.7603(7) 0.427(3)
N2E N 0.4097(5) 0.7674(5) 0.3242(19)
N3E N 0.7708(5) 0.6666(5) 0.8595(15)
N4E N 0.7314(5) 0.6373(6) 0.9586(18)
H1E H 0.6962 0.6545 0.9898
C3E C 0.7526(7) 0.5794(7) 1.0028(19)
H2E H 0.7333 0.5515 1.0689
C4E C 0.8094(7) 0.5705(7) 0.928(2)
H3E H 0.8367 0.5349 0.9308
C5E C 0.8166(6) 0.6241(7) 0.852(2)
H4E H 0.8531 0.6310 0.7951
N5E N 0.7638(6) 0.7061(5) 0.5523(17)
N6E N 0.7164(6) 0.7036(6) 0.452(2)
H5E H 0.6783 0.7185 0.4685
C6E C 0.7322(8) 0.6764(7) 0.326(3)
H6E H 0.7062 0.6703 0.2445
C7E C 0.7955(6) 0.6598(6) 0.344(2)
H7E H 0.8225 0.6407 0.2758
C8E C 0.8109(7) 0.6773(7) 0.484(2)
H8E H 0.8510 0.6694 0.5262
C1K C 0.4836(5) 0.6488(6) 0.5564(18)
N1K N 0.4798(4) 0.5953(5) 0.5191(15)
C2K C 0.5103(7) 0.8101(7) 0.823(3)
N2K N 0.5174(5) 0.8403(5) 0.9258(19)
C1N C 0.5164(5) 0.8512(6) 0.5564(18)
N1N N 0.5202(4) 0.9047(5) 0.5191(15)
C2N C 0.4897(7) 0.6899(7) 0.823(3)
N2N N 0.4826(5) 0.6597(5) 0.9258(19)
N3L N 0.2708(5) 0.6666(5) 0.6405(15)
N4L N 0.2314(5) 0.6373(6) 0.5414(18)
H1L H 0.1962 0.6545 0.5102
C3L C 0.2526(7) 0.5794(7) 0.4972(19)
H2L H 0.2333 0.5515 0.4311
C4L C 0.3094(7) 0.5705(7) 0.572(2)
H3L H 0.3367 0.5349 0.5692
C5L C 0.3166(6) 0.6241(7) 0.648(2)
H4L H 0.3531 0.6310 0.7049
N5L N 0.2638(6) 0.7061(5) 0.9477(17)
N6L N 0.2164(6) 0.7036(6) 1.048(2)
H5L H 0.1783 0.7185 1.0315
C6L C 0.2322(8) 0.6764(7) 1.174(3)
H6L H 0.2062 0.6703 1.2555
C7L C 0.2955(6) 0.6598(6) 1.156(2)
H7L H 0.3225 0.6407 1.2242
C8L C 0.3109(7) 0.6773(7) 1.016(2)
H8L H 0.3510 0.6694 0.9738
N3I N 0.7292(5) 0.8334(5) 0.6405(15)
N4I N 0.7686(5) 0.8627(6) 0.5414(18)
H1I H 0.8038 0.8455 0.5102
C3I C 0.7474(7) 0.9206(7) 0.4972(19)
H2I H 0.7667 0.9485 0.4311
C4I C 0.6906(7) 0.9295(7) 0.572(2)
H3I H 0.6633 0.9651 0.5692
C5I C 0.6834(6) 0.8759(7) 0.648(2)
H4I H 0.6469 0.8690 0.7049
N5I N 0.7362(6) 0.7939(5) 0.9477(17)
N6I N 0.7836(6) 0.7964(6) 1.048(2)
H5I H 0.8217 0.7815 1.0315
C6I C 0.7678(8) 0.8236(7) 1.174(3)
H6I H 0.7938 0.8297 1.2555
C7I C 0.7045(6) 0.8402(6) 1.156(2)
H7I H 0.6775 0.8593 1.2242
C8I C 0.6891(7) 0.8227(7) 1.016(2)
H8I H 0.6490 0.8306 0.9738
Fe1C Fe 0.5000 0.5000 0.5000
Fe1F Fe 0.5000 1.0000 0.5000
N1I N 0.8453(5) 0.7702(4) 0.7691(15)
N1L N 0.1547(5) 0.7298(4) 0.7691(15)
O1 O 0.3826(4) 0.8080(4) 1.0506(15)
H9 H 0.391(5) 0.781(5) 1.129(8)
H10 H 0.421(3) 0.802(5) 1.001(12)
loop_
_geom_bond_atom_site_label_1
_geom_bond_atom_site_label_2
_geom_bond_site_symmetry_1
_geom_bond_site_symmetry_2
Nb1 C1 1_555 1_555
Fe1 N1 1_555 1_555
C1 N1 1_555 1_555
C2 Nb1 1_555 1_555
N2 C2 1_555 1_555
N3 Fe1 1_555 1_555
N4 N3 1_555 1_555
H1 N4 1_555 1_555
C3 N4 1_555 1_555
H2 C3 1_555 1_555
C4 C3 1_555 1_555
H3 C4 1_555 1_555
C5 N3 1_555 1_555
H4 C5 1_555 1_555
N5 Fe1 1_555 1_555
N6 N5 1_555 1_555
H5 N6 1_555 1_555
C6 N6 1_555 1_555
H6 C6 1_555 1_555
C7 C6 1_555 1_555
H7 C7 1_555 1_555
C8 N5 1_555 1_555
H8 C8 1_555 1_555
O1 H9 1_555 1_555
H10 O1 1_555 1_555
Fe1E N1E 1_555 1_555
C1E Nb1 1_555 1_555
N1E C1E 1_555 1_555
C2E Nb1 1_555 1_555
N2E C2E 1_555 1_555
N3E Fe1E 1_555 1_555
N4E N3E 1_555 1_555
H1E N4E 1_555 1_555
C3E N4E 1_555 1_555
H2E C3E 1_555 1_555
C4E C3E 1_555 1_555
H3E C4E 1_555 1_555
C5E N3E 1_555 1_555
H4E C5E 1_555 1_555
N5E Fe1E 1_555 1_555
N6E N5E 1_555 1_555
H5E N6E 1_555 1_555
C6E N6E 1_555 1_555
H6E C6E 1_555 1_555
C7E C6E 1_555 1_555
H7E C7E 1_555 1_555
C8E N5E 1_555 1_555
H8E C8E 1_555 1_555
C1K Nb1 1_555 1_555
N1K C1K 1_555 1_555
C2K Nb1 1_555 1_555
N2K C2K 1_555 1_555
C1N Nb1 1_555 1_555
N1N C1N 1_555 1_555
C2N Nb1 1_555 1_555
N2N C2N 1_555 1_555
N3L Fe1 1_555 1_555
N4L N3L 1_555 1_555
H1L N4L 1_555 1_555
C3L N4L 1_555 1_555
H2L C3L 1_555 1_555
C4L C3L 1_555 1_555
H3L C4L 1_555 1_555
C5L N3L 1_555 1_555
H4L C5L 1_555 1_555
N5L Fe1 1_555 1_555
N6L N5L 1_555 1_555
H5L N6L 1_555 1_555
C6L N6L 1_555 1_555
H6L C6L 1_555 1_555
C7L C6L 1_555 1_555
H7L C7L 1_555 1_555
C8L N5L 1_555 1_555
H8L C8L 1_555 1_555
N3I Fe1E 1_555 1_555
N4I N3I 1_555 1_555
H1I N4I 1_555 1_555
C3I N4I 1_555 1_555
H2I C3I 1_555 1_555
C4I C3I 1_555 1_555
H3I C4I 1_555 1_555
C5I N3I 1_555 1_555
H4I C5I 1_555 1_555
N5I Fe1E 1_555 1_555
N6I N5I 1_555 1_555
H5I N6I 1_555 1_555
C6I N6I 1_555 1_555
H6I C6I 1_555 1_555
C7I C6I 1_555 1_555
H7I C7I 1_555 1_555
C8I N5I 1_555 1_555
H8I C8I 1_555 1_555
Fe1C N1K 1_555 1_555
Fe1F N1N 1_555 1_555
N1I Fe1E 1_555 1_555
N1L Fe1 1_555 1_555
C4 C5 1_555 1_555
C7 C8 1_555 1_555
C4E C5E 1_555 1_555
C7E C8E 1_555 1_555
C4L C5L 1_555 1_555
C7L C8L 1_555 1_555
C4I C5I 1_555 1_555
C7I C8I 1_555 1_555

#END
