
#######################################################################
#
#                 Cambridge Crystallographic Data Centre
#                                CCDC 
#
#######################################################################
#
# If this CIF has been generated from an entry in the Cambridge 
# Structural Database, then it will include bibliographic, chemical, 
# crystal, experimental, refinement or atomic coordinate data resulting 
# from the CCDC's data processing and validation procedures.
#
#######################################################################

data_UJUKAM09
_symmetry_cell_setting           tetragonal
_symmetry_space_group_name_H-M   'I 41/a'
_symmetry_Int_Tables_number      88
_space_group_name_Hall           '-I 4ad'
loop_
_symmetry_equiv_pos_site_id
_symmetry_equiv_pos_as_xyz
1 x,y,z
2 1/2-x,-y,1/2+z
3 3/4-y,1/4+x,1/4+z
4 3/4+y,3/4-x,3/4+z
5 1/2+x,1/2+y,1/2+z
6 -x,1/2-y,z
7 1/4-y,3/4+x,3/4+z
8 1/4+y,1/4-x,1/4+z
9 -x,-y,-z
10 1/2+x,y,1/2-z
11 1/4+y,3/4-x,3/4-z
12 1/4-y,1/4+x,1/4-z
13 1/2-x,1/2-y,1/2-z
14 x,1/2+y,-z
15 3/4+y,1/4-x,1/4-z
16 3/4-y,3/4+x,3/4-z
_cell_length_a                   20.546(5)
_cell_length_b                   20.546(5)
_cell_length_c                   9.061(17)
_cell_angle_alpha                90
_cell_angle_beta                 90
_cell_angle_gamma                90
_cell_volume                     3824.99
loop_
_atom_site_label
_atom_site_type_symbol
_atom_site_fract_x
_atom_site_fract_y
_atom_site_fract_z
Nb1 Nb 0.5000 0.7500 0.6250
Fe1 Fe 0.2500 0.7500 0.7500
C1 C 0.3945(7) 0.7659(6) 0.699(3)
N1 N 0.3426(5) 0.7679(5) 0.729(2)
C2 C 0.5625(8) 0.7386(7) 0.428(3)
N2 N 0.5911(8) 0.7356(7) 0.315(3)
N3 N 0.2287(7) 0.8338(6) 0.847(3)
N4 N 0.2686(6) 0.8579(7) 0.950(3)
H1 H 0.3024 0.8384 0.9847
C3 C 0.2471(8) 0.9185(8) 0.993(3)
H2 H 0.2691 0.9466 1.0567
C4 C 0.1908(8) 0.9304(8) 0.931(3)
H3 H 0.1641 0.9665 0.9437
C5 C 0.1807(7) 0.8770(7) 0.844(3)
H4 H 0.1434 0.8715 0.7875
N5 N 0.2375(8) 0.7924(7) 0.559(3)
N6 N 0.2817(7) 0.7955(7) 0.460(4)
H5 H 0.3202 0.7811 0.4770
C6 C 0.2666(9) 0.8223(8) 0.324(4)
H6 H 0.2931 0.8261 0.2412
C7 C 0.2033(8) 0.8418(7) 0.341(4)
H7 H 0.1768 0.8615 0.2713
C8 C 0.1869(8) 0.8254(8) 0.488(4)
H8 H 0.1473 0.8354 0.5326
Fe1E Fe 0.7500 0.7500 0.7500
C1E C 0.6055(7) 0.7341(6) 0.699(3)
N1E N 0.6574(5) 0.7321(5) 0.729(2)
C2E C 0.4375(8) 0.7614(7) 0.428(3)
N2E N 0.4089(8) 0.7644(7) 0.315(3)
N3E N 0.7713(7) 0.6662(6) 0.847(3)
N4E N 0.7314(6) 0.6421(7) 0.950(3)
H1E H 0.6976 0.6616 0.9847
C3E C 0.7529(8) 0.5815(8) 0.993(3)
H2E H 0.7309 0.5534 1.0567
C4E C 0.8092(8) 0.5696(8) 0.931(3)
H3E H 0.8359 0.5335 0.9437
C5E C 0.8193(7) 0.6230(7) 0.844(3)
H4E H 0.8566 0.6285 0.7875
N5E N 0.7625(8) 0.7076(7) 0.559(3)
N6E N 0.7183(7) 0.7045(7) 0.460(4)
H5E H 0.6798 0.7189 0.4770
C6E C 0.7334(9) 0.6777(8) 0.324(4)
H6E H 0.7069 0.6739 0.2412
C7E C 0.7967(8) 0.6582(7) 0.341(4)
H7E H 0.8232 0.6385 0.2713
C8E C 0.8131(8) 0.6746(8) 0.488(4)
H8E H 0.8527 0.6646 0.5326
C1K C 0.4841(6) 0.6445(7) 0.551(3)
N1K N 0.4821(5) 0.5926(5) 0.521(2)
C2K C 0.5114(7) 0.8125(8) 0.822(3)
N2K N 0.5144(7) 0.8411(8) 0.935(3)
C1N C 0.5159(6) 0.8555(7) 0.551(3)
N1N N 0.5179(5) 0.9074(5) 0.521(2)
C2N C 0.4886(7) 0.6875(8) 0.822(3)
N2N N 0.4856(7) 0.6589(8) 0.935(3)
N3L N 0.2713(7) 0.6662(6) 0.653(3)
N4L N 0.2314(6) 0.6421(7) 0.550(3)
H1L H 0.1976 0.6616 0.5153
C3L C 0.2529(8) 0.5815(8) 0.507(3)
H2L H 0.2309 0.5534 0.4433
C4L C 0.3092(8) 0.5696(8) 0.569(3)
H3L H 0.3359 0.5335 0.5563
C5L C 0.3193(7) 0.6230(7) 0.656(3)
H4L H 0.3566 0.6285 0.7125
N5L N 0.2625(8) 0.7076(7) 0.941(3)
N6L N 0.2183(7) 0.7045(7) 1.040(4)
H5L H 0.1798 0.7189 1.0230
C6L C 0.2334(9) 0.6777(8) 1.176(4)
H6L H 0.2069 0.6739 1.2588
C7L C 0.2967(8) 0.6582(7) 1.159(4)
H7L H 0.3232 0.6385 1.2287
C8L C 0.3131(8) 0.6746(8) 1.012(4)
H8L H 0.3527 0.6646 0.9674
N3I N 0.7287(7) 0.8338(6) 0.653(3)
N4I N 0.7686(6) 0.8579(7) 0.550(3)
H1I H 0.8024 0.8384 0.5153
C3I C 0.7471(8) 0.9185(8) 0.507(3)
H2I H 0.7691 0.9466 0.4433
C4I C 0.6908(8) 0.9304(8) 0.569(3)
H3I H 0.6641 0.9665 0.5563
C5I C 0.6807(7) 0.8770(7) 0.656(3)
H4I H 0.6434 0.8715 0.7125
N5I N 0.7375(8) 0.7924(7) 0.941(3)
N6I N 0.7817(7) 0.7955(7) 1.040(4)
H5I H 0.8202 0.7811 1.0230
C6I C 0.7666(9) 0.8223(8) 1.176(4)
H6I H 0.7931 0.8261 1.2588
C7I C 0.7033(8) 0.8418(7) 1.159(4)
H7I H 0.6768 0.8615 1.2287
C8I C 0.6869(8) 0.8254(8) 1.012(4)
H8I H 0.6473 0.8354 0.9674
Fe1C Fe 0.5000 0.5000 0.5000
Fe1F Fe 0.5000 1.0000 0.5000
N1I N 0.8426(5) 0.7679(5) 0.771(2)
N1L N 0.1574(5) 0.7321(5) 0.771(2)
O1 O 0.3858(6) 0.8076(4) 1.040(2)
H9 H 0.374(6) 0.780(6) 1.116(12)
H10 H 0.419(5) 0.783(5) 1.000(15)
loop_
_geom_bond_atom_site_label_1
_geom_bond_atom_site_label_2
_geom_bond_site_symmetry_1
_geom_bond_site_symmetry_2
Nb1 C1 1_555 1_555
Fe1 N1 1_555 1_555
C1 N1 1_555 1_555
C2 Nb1 1_555 1_555
N2 C2 1_555 1_555
N3 Fe1 1_555 1_555
N4 N3 1_555 1_555
H1 N4 1_555 1_555
C3 N4 1_555 1_555
H2 C3 1_555 1_555
C4 C3 1_555 1_555
H3 C4 1_555 1_555
C5 N3 1_555 1_555
H4 C5 1_555 1_555
N5 Fe1 1_555 1_555
N6 N5 1_555 1_555
H5 N6 1_555 1_555
C6 N6 1_555 1_555
H6 C6 1_555 1_555
C7 C6 1_555 1_555
H7 C7 1_555 1_555
C8 N5 1_555 1_555
H8 C8 1_555 1_555
O1 H9 1_555 1_555
H10 O1 1_555 1_555
Fe1E N1E 1_555 1_555
C1E Nb1 1_555 1_555
N1E C1E 1_555 1_555
C2E Nb1 1_555 1_555
N2E C2E 1_555 1_555
N3E Fe1E 1_555 1_555
N4E N3E 1_555 1_555
H1E N4E 1_555 1_555
C3E N4E 1_555 1_555
H2E C3E 1_555 1_555
C4E C3E 1_555 1_555
H3E C4E 1_555 1_555
C5E N3E 1_555 1_555
H4E C5E 1_555 1_555
N5E Fe1E 1_555 1_555
N6E N5E 1_555 1_555
H5E N6E 1_555 1_555
C6E N6E 1_555 1_555
H6E C6E 1_555 1_555
C7E C6E 1_555 1_555
H7E C7E 1_555 1_555
C8E N5E 1_555 1_555
H8E C8E 1_555 1_555
C1K Nb1 1_555 1_555
N1K C1K 1_555 1_555
C2K Nb1 1_555 1_555
N2K C2K 1_555 1_555
C1N Nb1 1_555 1_555
N1N C1N 1_555 1_555
C2N Nb1 1_555 1_555
N2N C2N 1_555 1_555
N3L Fe1 1_555 1_555
N4L N3L 1_555 1_555
H1L N4L 1_555 1_555
C3L N4L 1_555 1_555
H2L C3L 1_555 1_555
C4L C3L 1_555 1_555
H3L C4L 1_555 1_555
C5L N3L 1_555 1_555
H4L C5L 1_555 1_555
N5L Fe1 1_555 1_555
N6L N5L 1_555 1_555
H5L N6L 1_555 1_555
C6L N6L 1_555 1_555
H6L C6L 1_555 1_555
C7L C6L 1_555 1_555
H7L C7L 1_555 1_555
C8L N5L 1_555 1_555
H8L C8L 1_555 1_555
N3I Fe1E 1_555 1_555
N4I N3I 1_555 1_555
H1I N4I 1_555 1_555
C3I N4I 1_555 1_555
H2I C3I 1_555 1_555
C4I C3I 1_555 1_555
H3I C4I 1_555 1_555
C5I N3I 1_555 1_555
H4I C5I 1_555 1_555
N5I Fe1E 1_555 1_555
N6I N5I 1_555 1_555
H5I N6I 1_555 1_555
C6I N6I 1_555 1_555
H6I C6I 1_555 1_555
C7I C6I 1_555 1_555
H7I C7I 1_555 1_555
C8I N5I 1_555 1_555
H8I C8I 1_555 1_555
Fe1C N1K 1_555 1_555
Fe1F N1N 1_555 1_555
N1I Fe1E 1_555 1_555
N1L Fe1 1_555 1_555
C4 C5 1_555 1_555
C7 C8 1_555 1_555
C4E C5E 1_555 1_555
C7E C8E 1_555 1_555
C4L C5L 1_555 1_555
C7L C8L 1_555 1_555
C4I C5I 1_555 1_555
C7I C8I 1_555 1_555

#END
