
#######################################################################
#
#                 Cambridge Crystallographic Data Centre
#                                CCDC 
#
#######################################################################
#
# If this CIF has been generated from an entry in the Cambridge 
# Structural Database, then it will include bibliographic, chemical, 
# crystal, experimental, refinement or atomic coordinate data resulting 
# from the CCDC's data processing and validation procedures.
#
#######################################################################

data_UJUKAM
_symmetry_cell_setting           tetragonal
_symmetry_space_group_name_H-M   'I 41/a'
_symmetry_Int_Tables_number      88
_space_group_name_Hall           '-I 4ad'
loop_
_symmetry_equiv_pos_site_id
_symmetry_equiv_pos_as_xyz
1 x,y,z
2 -x,1/2-y,z
3 3/4-y,1/4+x,1/4+z
4 1/4+y,1/4-x,1/4+z
5 1/2+x,1/2+y,1/2+z
6 1/2-x,-y,1/2+z
7 1/4-y,3/4+x,3/4+z
8 3/4+y,3/4-x,3/4+z
9 -x,-y,-z
10 x,1/2+y,-z
11 1/4+y,3/4-x,3/4-z
12 3/4-y,3/4+x,3/4-z
13 1/2-x,1/2-y,1/2-z
14 1/2+x,y,1/2-z
15 3/4+y,1/4-x,1/4-z
16 1/4-y,1/4+x,1/4-z
_cell_length_a                   21.659(5)
_cell_length_b                   21.659(5)
_cell_length_c                   9.618(5)
_cell_angle_alpha                90
_cell_angle_beta                 90
_cell_angle_gamma                90
_cell_volume                     4511.92
loop_
_atom_site_label
_atom_site_type_symbol
_atom_site_fract_x
_atom_site_fract_y
_atom_site_fract_z
Nb1 Nb 0.50000 0.75000 0.625
Fe1 Fe 0.25000 0.75000 0.7500
C1 C 0.40093(18) 0.76235(16) 0.6944(3)
N1 N 0.34990(14) 0.76495(15) 0.7285(3)
C2 C 0.55948(16) 0.74081(17) 0.4340(4)
N2 N 0.58815(17) 0.73636(19) 0.3358(3)
N3 N 0.23505(14) 0.83466(15) 0.8640(4)
N4 N 0.27379(16) 0.85777(16) 0.9602(3)
H1 H 0.3077 0.8405 0.9858
C3 C 0.2526(2) 0.9112(2) 1.0106(5)
H2 H 0.2717 0.9356 1.0777
C4 C 0.1982(2) 0.9235(2) 0.9462(5)
H3 H 0.1724 0.9573 0.9602
C5 C 0.1896(2) 0.8749(2) 0.8549(5)
H4 H 0.1561 0.871 0.7951
N5 N 0.23860(14) 0.79578(15) 0.5497(3)
N6 N 0.28551(16) 0.79721(18) 0.4583(3)
H5 H 0.3223 0.7845 0.4764
C6 C 0.2683(2) 0.8206(3) 0.3362(5)
H6 H 0.2932 0.8261 0.2585
C7 C 0.2072(2) 0.8350(2) 0.3470(5)
H7 H 0.1817 0.8518 0.2789
C8 C 0.1913(2) 0.8190(2) 0.4814(5)
H8 H 0.1521 0.824 0.519
Fe1G Fe 0.50000 0.50000 0.5000
Fe1F Fe 0.50000 1.00000 0.5000
Fe1A Fe 0.75000 0.75000 0.7500
C1A C 0.59907(18) 0.73765(16) 0.6944(3)
C1N C 0.51235(16) 0.84907(18) 0.5556(3)
C1O C 0.48765(16) 0.65093(18) 0.5556(3)
N1A N 0.65010(14) 0.73505(15) 0.7285(3)
N1N N 0.51495(15) 0.90010(14) 0.5215(3)
N1O N 0.48505(15) 0.59990(14) 0.5215(3)
N1G N 0.51495(15) 0.40010(14) 0.4785(3)
N1L N 0.15010(14) 0.73505(15) 0.7715(3)
C2A C 0.44052(16) 0.75919(17) 0.4340(4)
C2N C 0.49081(17) 0.69052(16) 0.8160(4)
C2O C 0.50919(17) 0.80948(16) 0.8160(4)
N2A N 0.41185(17) 0.76364(19) 0.3358(3)
N2N N 0.48636(19) 0.66185(17) 0.9142(3)
N2O N 0.51364(19) 0.83815(17) 0.9142(3)
N3O N 0.41534(15) 0.48505(14) 0.3860(4)
N3L N 0.26495(14) 0.66534(15) 0.6360(4)
N3G N 0.58466(15) 0.51495(14) 0.6140(4)
N4O N 0.39223(16) 0.52379(16) 0.2898(3)
N4L N 0.22621(16) 0.64223(16) 0.5398(3)
N4G N 0.60777(16) 0.47621(16) 0.7102(3)
H1O H 0.4095 0.5577 0.2642
H1L H 0.1923 0.6595 0.5142
H1G H 0.5905 0.4423 0.7358
C3O C 0.3388(2) 0.5026(2) 0.2394(5)
C3L C 0.2474(2) 0.5888(2) 0.4894(5)
C3G C 0.6612(2) 0.4974(2) 0.7606(5)
H2O H 0.3144 0.5217 0.1723
H2L H 0.2283 0.5644 0.4223
H2G H 0.6856 0.4783 0.8277
C4O C 0.3265(2) 0.4482(2) 0.3038(5)
C4L C 0.3018(2) 0.5765(2) 0.5538(5)
C4G C 0.6735(2) 0.5518(2) 0.6962(5)
H3O H 0.2927 0.4224 0.2898
H3L H 0.3276 0.5427 0.5398
H3G H 0.7073 0.5776 0.7102
C5O C 0.3751(2) 0.4396(2) 0.3951(5)
C5L C 0.3104(2) 0.6251(2) 0.6451(5)
C5G C 0.6249(2) 0.5604(2) 0.6049(5)
H4O H 0.379 0.4061 0.4549
H4L H 0.3439 0.629 0.7049
H4G H 0.621 0.5939 0.5451
N5O N 0.45422(15) 0.48860(14) 0.7003(3)
N5L N 0.26140(14) 0.70422(15) 0.9503(3)
N5G N 0.54578(15) 0.51140(14) 0.2997(3)
N6O N 0.45279(18) 0.53551(16) 0.7917(3)
N6L N 0.21449(16) 0.70279(18) 1.0417(3)
N6G N 0.54721(18) 0.46449(16) 0.2083(3)
H5O H 0.4655 0.5723 0.7736
H5L H 0.1777 0.7155 1.0236
H5G H 0.5345 0.4277 0.2264
C6O C 0.4294(3) 0.5183(2) 0.9138(5)
C6L C 0.2317(2) 0.6794(3) 1.1638(5)
C6G C 0.5706(3) 0.4817(2) 0.0862(5)
H6O H 0.4239 0.5432 0.9915
H6L H 0.2068 0.6739 1.2415
H6G H 0.5761 0.4568 0.0085
C7O C 0.4150(2) 0.4572(2) 0.9030(5)
C7L C 0.2928(2) 0.6650(2) 1.1530(5)
C7G C 0.5850(2) 0.5428(2) 0.0970(5)
H7O H 0.3982 0.4317 0.9711
H7L H 0.3183 0.6482 1.2211
H7G H 0.6018 0.5683 0.0289
C8O C 0.4310(2) 0.4413(2) 0.7686(5)
C8L C 0.3087(2) 0.6810(2) 1.0186(5)
C8G C 0.5690(2) 0.5587(2) 0.2314(5)
H8O H 0.426 0.4021 0.731
H8L H 0.3479 0.676 0.981
H8G H 0.574 0.5979 0.269
O1 O 0.38512(14) 0.80932(15) 1.0601(3)
H9 H 0.396(2) 0.788(2) 1.141(3)
H10 H 0.4237(14) 0.815(2) 1.019(5)
loop_
_geom_bond_atom_site_label_1
_geom_bond_atom_site_label_2
_geom_bond_site_symmetry_1
_geom_bond_site_symmetry_2
Nb1 C1 1_555 1_555
Fe1 N1 1_555 1_555
C1 N1 1_555 1_555
C2 Nb1 1_555 1_555
N2 C2 1_555 1_555
N3 Fe1 1_555 1_555
N4 N3 1_555 1_555
H1 N4 1_555 1_555
C3 N4 1_555 1_555
H2 C3 1_555 1_555
C4 C3 1_555 1_555
H3 C4 1_555 1_555
C5 N3 1_555 1_555
H4 C5 1_555 1_555
N5 Fe1 1_555 1_555
N6 N5 1_555 1_555
H5 N6 1_555 1_555
C6 N6 1_555 1_555
H6 C6 1_555 1_555
C7 C6 1_555 1_555
H7 C7 1_555 1_555
C8 N5 1_555 1_555
H8 C8 1_555 1_555
O1 H9 1_555 1_555
H10 O1 1_555 1_555
Fe1G N1O 1_555 1_555
Fe1F N1N 1_555 1_555
Fe1A N1A 1_555 1_555
C1A Nb1 1_555 1_555
C1N Nb1 1_555 1_555
C1O Nb1 1_555 1_555
N1A C1A 1_555 1_555
N1N C1N 1_555 1_555
N1O C1O 1_555 1_555
N1G Fe1G 1_555 1_555
N1L Fe1 1_555 1_555
C2A Nb1 1_555 1_555
C2N Nb1 1_555 1_555
C2O Nb1 1_555 1_555
N2A C2A 1_555 1_555
N2N C2N 1_555 1_555
N2O C2O 1_555 1_555
N3O Fe1G 1_555 1_555
N3L Fe1 1_555 1_555
N3G Fe1G 1_555 1_555
N4O N3O 1_555 1_555
N4L N3L 1_555 1_555
N4G N3G 1_555 1_555
H1O N4O 1_555 1_555
H1L N4L 1_555 1_555
H1G N4G 1_555 1_555
C3O N4O 1_555 1_555
C3L N4L 1_555 1_555
C3G N4G 1_555 1_555
H2O C3O 1_555 1_555
H2L C3L 1_555 1_555
H2G C3G 1_555 1_555
C4O C3O 1_555 1_555
C4L C3L 1_555 1_555
C4G C3G 1_555 1_555
H3O C4O 1_555 1_555
H3L C4L 1_555 1_555
H3G C4G 1_555 1_555
C5O N3O 1_555 1_555
C5L N3L 1_555 1_555
C5G N3G 1_555 1_555
H4O C5O 1_555 1_555
H4L C5L 1_555 1_555
H4G C5G 1_555 1_555
N5O Fe1G 1_555 1_555
N5L Fe1 1_555 1_555
N5G Fe1G 1_555 1_555
N6O N5O 1_555 1_555
N6L N5L 1_555 1_555
N6G N5G 1_555 1_555
H5O N6O 1_555 1_555
H5L N6L 1_555 1_555
H5G N6G 1_555 1_555
C6O N6O 1_555 1_555
C6L N6L 1_555 1_555
C6G N6G 1_555 1_555
H6O C6O 1_555 1_555
H6L C6L 1_555 1_555
H6G C6G 1_555 1_555
C7O C6O 1_555 1_555
C7L C6L 1_555 1_555
C7G C6G 1_555 1_555
H7O C7O 1_555 1_555
H7L C7L 1_555 1_555
H7G C7G 1_555 1_555
C8O N5O 1_555 1_555
C8L N5L 1_555 1_555
C8G N5G 1_555 1_555
H8O C8O 1_555 1_555
H8L C8L 1_555 1_555
H8G C8G 1_555 1_555
C4 C5 1_555 1_555
C7 C8 1_555 1_555
C4O C5O 1_555 1_555
C4L C5L 1_555 1_555
C4G C5G 1_555 1_555
C7O C8O 1_555 1_555
C7L C8L 1_555 1_555
C7G C8G 1_555 1_555

#END
