
#######################################################################
#
#                 Cambridge Crystallographic Data Centre
#                                CCDC 
#
#######################################################################
#
# If this CIF has been generated from an entry in the Cambridge 
# Structural Database, then it will include bibliographic, chemical, 
# crystal, experimental, refinement or atomic coordinate data resulting 
# from the CCDC's data processing and validation procedures.
#
#######################################################################

data_UJUKAM06
_symmetry_cell_setting           tetragonal
_symmetry_space_group_name_H-M   'I 41/a'
_symmetry_Int_Tables_number      88
_space_group_name_Hall           '-I 4ad'
loop_
_symmetry_equiv_pos_site_id
_symmetry_equiv_pos_as_xyz
1 x,y,z
2 1/2-x,-y,1/2+z
3 3/4-y,1/4+x,1/4+z
4 3/4+y,3/4-x,3/4+z
5 1/2+x,1/2+y,1/2+z
6 -x,1/2-y,z
7 1/4-y,3/4+x,3/4+z
8 1/4+y,1/4-x,1/4+z
9 -x,-y,-z
10 1/2+x,y,1/2-z
11 1/4+y,3/4-x,3/4-z
12 1/4-y,1/4+x,1/4-z
13 1/2-x,1/2-y,1/2-z
14 x,1/2+y,-z
15 3/4+y,1/4-x,1/4-z
16 3/4-y,3/4+x,3/4-z
_cell_length_a                   20.986(2)
_cell_length_b                   20.986(2)
_cell_length_c                   9.26(3)
_cell_angle_alpha                90
_cell_angle_beta                 90
_cell_angle_gamma                90
_cell_volume                     4078.22
loop_
_atom_site_label
_atom_site_type_symbol
_atom_site_fract_x
_atom_site_fract_y
_atom_site_fract_z
Nb1 Nb 0.5000 0.7500 0.6250
Fe1 Fe 0.2500 0.7500 0.7500
C1 C 0.3991(7) 0.7670(5) 0.698(5)
N1 N 0.3472(5) 0.7710(4) 0.720(3)
C2 C 0.5634(7) 0.7391(7) 0.428(5)
N2 N 0.5910(7) 0.7315(6) 0.319(5)
N3 N 0.2281(5) 0.8339(4) 0.858(4)
N4 N 0.2687(5) 0.8612(5) 0.953(4)
H1 H 0.3039 0.8442 0.9807
C3 C 0.2475(6) 0.9183(6) 1.000(4)
H2 H 0.2674 0.9445 1.0670
C4 C 0.1922(6) 0.9303(7) 0.930(4)
H3 H 0.1675 0.9670 0.9321
C5 C 0.1820(6) 0.8773(7) 0.860(4)
H4 H 0.1437 0.8702 0.8121
N5 N 0.2359(6) 0.7957(6) 0.536(5)
N6 N 0.2839(6) 0.7950(6) 0.440(4)
H5 H 0.3199 0.7767 0.4563
C6 C 0.2706(8) 0.8240(8) 0.324(6)
H6 H 0.3001 0.8338 0.2525
C7 C 0.2073(9) 0.8388(8) 0.318(7)
H7 H 0.1823 0.8527 0.2417
C8 C 0.1901(7) 0.8257(7) 0.474(5)
H8 H 0.1521 0.8376 0.5185
Fe1E Fe 0.7500 0.7500 0.7500
C1E C 0.6009(7) 0.7330(5) 0.698(5)
N1E N 0.6528(5) 0.7290(4) 0.720(3)
C2E C 0.4366(7) 0.7609(7) 0.428(5)
N2E N 0.4090(7) 0.7685(6) 0.319(5)
N3E N 0.7719(5) 0.6661(4) 0.858(4)
N4E N 0.7313(5) 0.6388(5) 0.953(4)
H1E H 0.6961 0.6558 0.9807
C3E C 0.7525(6) 0.5817(6) 1.000(4)
H2E H 0.7326 0.5555 1.0670
C4E C 0.8078(6) 0.5697(7) 0.930(4)
H3E H 0.8325 0.5330 0.9321
C5E C 0.8180(6) 0.6227(7) 0.860(4)
H4E H 0.8563 0.6298 0.8121
N5E N 0.7641(6) 0.7043(6) 0.536(5)
N6E N 0.7161(6) 0.7050(6) 0.440(4)
H5E H 0.6801 0.7233 0.4563
C6E C 0.7294(8) 0.6760(8) 0.324(6)
H6E H 0.6999 0.6662 0.2525
C7E C 0.7927(9) 0.6612(8) 0.318(7)
H7E H 0.8177 0.6473 0.2417
C8E C 0.8099(7) 0.6743(7) 0.474(5)
H8E H 0.8479 0.6624 0.5185
C1K C 0.4830(5) 0.6491(7) 0.552(5)
N1K N 0.4790(4) 0.5972(5) 0.530(3)
C2K C 0.5109(7) 0.8134(7) 0.822(5)
N2K N 0.5185(6) 0.8410(7) 0.931(5)
C1N C 0.5170(5) 0.8509(7) 0.552(5)
N1N N 0.5210(4) 0.9028(5) 0.530(3)
C2N C 0.4891(7) 0.6866(7) 0.822(5)
N2N N 0.4815(6) 0.6590(7) 0.931(5)
N3L N 0.2719(5) 0.6661(4) 0.642(4)
N4L N 0.2313(5) 0.6388(5) 0.547(4)
H1L H 0.1961 0.6558 0.5193
C3L C 0.2525(6) 0.5817(6) 0.500(4)
H2L H 0.2326 0.5555 0.4330
C4L C 0.3078(6) 0.5697(7) 0.570(4)
H3L H 0.3325 0.5330 0.5679
C5L C 0.3180(6) 0.6227(7) 0.640(4)
H4L H 0.3563 0.6298 0.6879
N5L N 0.2641(6) 0.7043(6) 0.964(5)
N6L N 0.2161(6) 0.7050(6) 1.060(4)
H5L H 0.1801 0.7233 1.0437
C6L C 0.2294(8) 0.6760(8) 1.176(6)
H6L H 0.1999 0.6662 1.2475
C7L C 0.2927(9) 0.6612(8) 1.182(7)
H7L H 0.3177 0.6473 1.2583
C8L C 0.3099(7) 0.6743(7) 1.026(5)
H8L H 0.3479 0.6624 0.9815
N3I N 0.7281(5) 0.8339(4) 0.642(4)
N4I N 0.7687(5) 0.8612(5) 0.547(4)
H1I H 0.8039 0.8442 0.5193
C3I C 0.7475(6) 0.9183(6) 0.500(4)
H2I H 0.7674 0.9445 0.4330
C4I C 0.6922(6) 0.9303(7) 0.570(4)
H3I H 0.6675 0.9670 0.5679
C5I C 0.6820(6) 0.8773(7) 0.640(4)
H4I H 0.6437 0.8702 0.6879
N5I N 0.7359(6) 0.7957(6) 0.964(5)
N6I N 0.7839(6) 0.7950(6) 1.060(4)
H5I H 0.8199 0.7767 1.0437
C6I C 0.7706(8) 0.8240(8) 1.176(6)
H6I H 0.8001 0.8338 1.2475
C7I C 0.7073(9) 0.8388(8) 1.182(7)
H7I H 0.6823 0.8527 1.2583
C8I C 0.6901(7) 0.8257(7) 1.026(5)
H8I H 0.6521 0.8376 0.9815
Fe1C Fe 0.5000 0.5000 0.5000
Fe1F Fe 0.5000 1.0000 0.5000
N1I N 0.8472(5) 0.7710(4) 0.780(3)
N1L N 0.1528(5) 0.7290(4) 0.780(3)
O1 O 0.3822(4) 0.8089(4) 1.051(3)
H9 H 0.387(6) 0.778(4) 1.121(9)
H10 H 0.414(3) 0.839(2) 1.064(13)
loop_
_geom_bond_atom_site_label_1
_geom_bond_atom_site_label_2
_geom_bond_site_symmetry_1
_geom_bond_site_symmetry_2
Nb1 C1 1_555 1_555
Fe1 N1 1_555 1_555
C1 N1 1_555 1_555
C2 Nb1 1_555 1_555
N2 C2 1_555 1_555
N3 Fe1 1_555 1_555
N4 N3 1_555 1_555
H1 N4 1_555 1_555
C3 N4 1_555 1_555
H2 C3 1_555 1_555
C4 C3 1_555 1_555
H3 C4 1_555 1_555
C5 N3 1_555 1_555
H4 C5 1_555 1_555
N5 Fe1 1_555 1_555
N6 N5 1_555 1_555
H5 N6 1_555 1_555
C6 N6 1_555 1_555
H6 C6 1_555 1_555
C7 C6 1_555 1_555
H7 C7 1_555 1_555
C8 N5 1_555 1_555
H8 C8 1_555 1_555
O1 H9 1_555 1_555
H10 O1 1_555 1_555
Fe1E N1E 1_555 1_555
C1E Nb1 1_555 1_555
N1E C1E 1_555 1_555
C2E Nb1 1_555 1_555
N2E C2E 1_555 1_555
N3E Fe1E 1_555 1_555
N4E N3E 1_555 1_555
H1E N4E 1_555 1_555
C3E N4E 1_555 1_555
H2E C3E 1_555 1_555
C4E C3E 1_555 1_555
H3E C4E 1_555 1_555
C5E N3E 1_555 1_555
H4E C5E 1_555 1_555
N5E Fe1E 1_555 1_555
N6E N5E 1_555 1_555
H5E N6E 1_555 1_555
C6E N6E 1_555 1_555
H6E C6E 1_555 1_555
C7E C6E 1_555 1_555
H7E C7E 1_555 1_555
C8E N5E 1_555 1_555
H8E C8E 1_555 1_555
C1K Nb1 1_555 1_555
N1K C1K 1_555 1_555
C2K Nb1 1_555 1_555
N2K C2K 1_555 1_555
C1N Nb1 1_555 1_555
N1N C1N 1_555 1_555
C2N Nb1 1_555 1_555
N2N C2N 1_555 1_555
N3L Fe1 1_555 1_555
N4L N3L 1_555 1_555
H1L N4L 1_555 1_555
C3L N4L 1_555 1_555
H2L C3L 1_555 1_555
C4L C3L 1_555 1_555
H3L C4L 1_555 1_555
C5L N3L 1_555 1_555
H4L C5L 1_555 1_555
N5L Fe1 1_555 1_555
N6L N5L 1_555 1_555
H5L N6L 1_555 1_555
C6L N6L 1_555 1_555
H6L C6L 1_555 1_555
C7L C6L 1_555 1_555
H7L C7L 1_555 1_555
C8L N5L 1_555 1_555
H8L C8L 1_555 1_555
N3I Fe1E 1_555 1_555
N4I N3I 1_555 1_555
H1I N4I 1_555 1_555
C3I N4I 1_555 1_555
H2I C3I 1_555 1_555
C4I C3I 1_555 1_555
H3I C4I 1_555 1_555
C5I N3I 1_555 1_555
H4I C5I 1_555 1_555
N5I Fe1E 1_555 1_555
N6I N5I 1_555 1_555
H5I N6I 1_555 1_555
C6I N6I 1_555 1_555
H6I C6I 1_555 1_555
C7I C6I 1_555 1_555
H7I C7I 1_555 1_555
C8I N5I 1_555 1_555
H8I C8I 1_555 1_555
Fe1C N1K 1_555 1_555
Fe1F N1N 1_555 1_555
N1I Fe1E 1_555 1_555
N1L Fe1 1_555 1_555
C4 C5 1_555 1_555
C7 C8 1_555 1_555
C4E C5E 1_555 1_555
C7E C8E 1_555 1_555
C4L C5L 1_555 1_555
C7L C8L 1_555 1_555
C4I C5I 1_555 1_555
C7I C8I 1_555 1_555

#END
