
#######################################################################
#
#                 Cambridge Crystallographic Data Centre
#                                CCDC 
#
#######################################################################
#
# If this CIF has been generated from an entry in the Cambridge 
# Structural Database, then it will include bibliographic, chemical, 
# crystal, experimental, refinement or atomic coordinate data resulting 
# from the CCDC's data processing and validation procedures.
#
#######################################################################

data_UJUKAM02
_symmetry_cell_setting           tetragonal
_symmetry_space_group_name_H-M   'I 41/a'
_symmetry_Int_Tables_number      88
_space_group_name_Hall           '-I 4ad'
loop_
_symmetry_equiv_pos_site_id
_symmetry_equiv_pos_as_xyz
1 x,y,z
2 1/2-x,-y,1/2+z
3 3/4-y,1/4+x,1/4+z
4 3/4+y,3/4-x,3/4+z
5 1/2+x,1/2+y,1/2+z
6 -x,1/2-y,z
7 1/4-y,3/4+x,3/4+z
8 1/4+y,1/4-x,1/4+z
9 -x,-y,-z
10 1/2+x,y,1/2-z
11 1/4+y,3/4-x,3/4-z
12 1/4-y,1/4+x,1/4-z
13 1/2-x,1/2-y,1/2-z
14 x,1/2+y,-z
15 3/4+y,1/4-x,1/4-z
16 3/4-y,3/4+x,3/4-z
_cell_length_a                   21.7080(16)
_cell_length_b                   21.7080(16)
_cell_length_c                   9.636(2)
_cell_angle_alpha                90
_cell_angle_beta                 90
_cell_angle_gamma                90
_cell_volume                     4540.84
loop_
_atom_site_label
_atom_site_type_symbol
_atom_site_fract_x
_atom_site_fract_y
_atom_site_fract_z
Nb1 Nb 0.5000 0.7500 0.6250
Fe1 Fe 0.5000 1.0000 0.5000
N1 N 0.4855(10) 0.9014(9) 0.520(2)
C1 C 0.5584(11) 0.7593(12) 0.439(3)
N2 N 0.5869(10) 0.7655(11) 0.336(2)
C2 C 0.4877(12) 0.8497(12) 0.554(3)
N3 N 0.5484(10) 1.0359(10) 0.205(2)
H1 H 0.5375 1.0733 0.2208
N4 N 0.5450(10) 0.9884(9) 0.297(2)
C3 C 0.5691(13) 0.9436(13) 0.232(3)
H2 H 0.5765 0.9053 0.2720
C4 C 0.5831(19) 0.9580(19) 0.096(4)
H3 H 0.5980 0.9317 0.0277
C5 C 0.5711(17) 1.0150(18) 0.086(4)
H4 H 0.5773 1.0386 0.0066
N5 N 0.5859(10) 0.9864(10) 0.611(2)
N6 N 0.6252(13) 0.9390(12) 0.600(3)
H5 H 0.6227 0.9081 0.5439
C6 C 0.6080(10) 1.0222(11) 0.709(2)
H6 H 0.5883 1.0581 0.7378
C7 C 0.6597(16) 1.0032(16) 0.763(4)
H7 H 0.6832 1.0224 0.8308
C8 C 0.6713(15) 0.9509(15) 0.699(4)
H8 H 0.7050 0.9256 0.7169
Fe1E Fe 0.5000 0.5000 0.5000
N1E N 0.5145(10) 0.5986(9) 0.520(2)
C1E C 0.4416(11) 0.7407(12) 0.439(3)
N2E N 0.4131(10) 0.7345(11) 0.336(2)
C2E C 0.5123(12) 0.6503(12) 0.554(3)
N3E N 0.4516(10) 0.4641(10) 0.205(2)
H1E H 0.4625 0.4267 0.2208
N4E N 0.4550(10) 0.5116(9) 0.297(2)
C3E C 0.4309(13) 0.5564(13) 0.232(3)
H2E H 0.4235 0.5947 0.2720
C4E C 0.4169(19) 0.5420(19) 0.096(4)
H3E H 0.4020 0.5683 0.0277
C5E C 0.4289(17) 0.4850(18) 0.086(4)
H4E H 0.4227 0.4614 0.0066
N5E N 0.4141(10) 0.5136(10) 0.611(2)
N6E N 0.3748(13) 0.5610(12) 0.600(3)
H5E H 0.3773 0.5919 0.5439
C6E C 0.3920(10) 0.4778(11) 0.709(2)
H6E H 0.4117 0.4419 0.7378
C7E C 0.3403(16) 0.4968(16) 0.763(4)
H7E H 0.3168 0.4776 0.8308
C8E C 0.3287(15) 0.5491(15) 0.699(4)
H8E H 0.2950 0.5744 0.7169
N1K N 0.3486(9) 0.7355(10) 0.730(2)
C1K C 0.4907(12) 0.8084(11) 0.811(3)
N2K N 0.4845(11) 0.8369(10) 0.914(2)
C2K C 0.4003(12) 0.7377(12) 0.696(3)
N1N N 0.6514(9) 0.7645(10) 0.730(2)
C1N C 0.5093(12) 0.6916(11) 0.811(3)
N2N N 0.5155(11) 0.6631(10) 0.914(2)
C2N C 0.5997(12) 0.7623(12) 0.696(3)
N3H N 0.4516(10) 0.9641(10) 0.795(2)
H1H H 0.4625 0.9267 0.7792
N4H N 0.4550(10) 1.0116(9) 0.703(2)
C3H C 0.4309(13) 1.0564(13) 0.768(3)
H2H H 0.4235 1.0947 0.7280
C4H C 0.4169(19) 1.0420(19) 0.904(4)
H3H H 0.4020 1.0683 0.9723
C5H C 0.4289(17) 0.9850(18) 0.914(4)
H4H H 0.4227 0.9614 0.9934
N5H N 0.4141(10) 1.0136(10) 0.389(2)
N6H N 0.3748(13) 1.0610(12) 0.400(3)
H5H H 0.3773 1.0919 0.4561
C6H C 0.3920(10) 0.9778(11) 0.291(2)
H6H H 0.4117 0.9419 0.2622
C7H C 0.3403(16) 0.9968(16) 0.237(4)
H7H H 0.3168 0.9776 0.1692
C8H C 0.3287(15) 1.0491(15) 0.301(4)
H8H H 0.2950 1.0744 0.2831
N3M N 0.5484(10) 0.5359(10) 0.795(2)
H1M H 0.5375 0.5733 0.7792
N4M N 0.5450(10) 0.4884(9) 0.703(2)
C3M C 0.5691(13) 0.4436(13) 0.768(3)
H2M H 0.5765 0.4053 0.7280
C4M C 0.5831(19) 0.4580(19) 0.904(4)
H3M H 0.5980 0.4317 0.9723
C5M C 0.5711(17) 0.5150(18) 0.914(4)
H4M H 0.5773 0.5386 0.9934
N5M N 0.5859(10) 0.4864(10) 0.389(2)
N6M N 0.6252(13) 0.4390(12) 0.400(3)
H5M H 0.6227 0.4081 0.4561
C6M C 0.6080(10) 0.5222(11) 0.291(2)
H6M H 0.5883 0.5581 0.2622
C7M C 0.6597(16) 0.5032(16) 0.237(4)
H7M H 0.6832 0.5224 0.1692
C8M C 0.6713(15) 0.4509(15) 0.301(4)
H8M H 0.7050 0.4256 0.2831
Fe1B Fe 0.7500 0.7500 0.7500
Fe1G Fe 0.2500 0.7500 0.7500
N1H N 0.5145(10) 1.0986(9) 0.480(2)
N1M N 0.4855(10) 0.4014(9) 0.480(2)
O1 O 0.5599(9) 0.6334(9) 0.192(2)
H9 H 0.602(2) 0.640(9) 0.18(3)
H10 H 0.529(6) 0.663(7) 0.20(3)
loop_
_geom_bond_atom_site_label_1
_geom_bond_atom_site_label_2
_geom_bond_site_symmetry_1
_geom_bond_site_symmetry_2
Nb1 C1 1_555 1_555
Fe1 N1 1_555 1_555
N1 C2 1_555 1_555
C1 N2 1_555 1_555
C2 Nb1 1_555 1_555
N3 H1 1_555 1_555
N4 Fe1 1_555 1_555
C3 N4 1_555 1_555
H2 C3 1_555 1_555
C4 C3 1_555 1_555
H3 C4 1_555 1_555
C5 N3 1_555 1_555
H4 C5 1_555 1_555
N5 Fe1 1_555 1_555
N6 N5 1_555 1_555
H5 N6 1_555 1_555
C6 N5 1_555 1_555
H6 C6 1_555 1_555
C7 C6 1_555 1_555
H7 C7 1_555 1_555
C8 N6 1_555 1_555
H8 C8 1_555 1_555
O1 H9 1_555 1_555
H10 O1 1_555 1_555
Fe1E N1E 1_555 1_555
N1E C2E 1_555 1_555
C1E Nb1 1_555 1_555
N2E C1E 1_555 1_555
C2E Nb1 1_555 1_555
N3E H1E 1_555 1_555
N4E Fe1E 1_555 1_555
C3E N4E 1_555 1_555
H2E C3E 1_555 1_555
C4E C3E 1_555 1_555
H3E C4E 1_555 1_555
C5E N3E 1_555 1_555
H4E C5E 1_555 1_555
N5E Fe1E 1_555 1_555
N6E N5E 1_555 1_555
H5E N6E 1_555 1_555
C6E N5E 1_555 1_555
H6E C6E 1_555 1_555
C7E C6E 1_555 1_555
H7E C7E 1_555 1_555
C8E N6E 1_555 1_555
H8E C8E 1_555 1_555
N1K C2K 1_555 1_555
C1K Nb1 1_555 1_555
N2K C1K 1_555 1_555
C2K Nb1 1_555 1_555
N1N C2N 1_555 1_555
C1N Nb1 1_555 1_555
N2N C1N 1_555 1_555
C2N Nb1 1_555 1_555
N3H H1H 1_555 1_555
N4H Fe1 1_555 1_555
C3H N4H 1_555 1_555
H2H C3H 1_555 1_555
C4H C3H 1_555 1_555
H3H C4H 1_555 1_555
C5H N3H 1_555 1_555
H4H C5H 1_555 1_555
N5H Fe1 1_555 1_555
N6H N5H 1_555 1_555
H5H N6H 1_555 1_555
C6H N5H 1_555 1_555
H6H C6H 1_555 1_555
C7H C6H 1_555 1_555
H7H C7H 1_555 1_555
C8H N6H 1_555 1_555
H8H C8H 1_555 1_555
N3M H1M 1_555 1_555
N4M Fe1E 1_555 1_555
C3M N4M 1_555 1_555
H2M C3M 1_555 1_555
C4M C3M 1_555 1_555
H3M C4M 1_555 1_555
C5M N3M 1_555 1_555
H4M C5M 1_555 1_555
N5M Fe1E 1_555 1_555
N6M N5M 1_555 1_555
H5M N6M 1_555 1_555
C6M N5M 1_555 1_555
H6M C6M 1_555 1_555
C7M C6M 1_555 1_555
H7M C7M 1_555 1_555
C8M N6M 1_555 1_555
H8M C8M 1_555 1_555
Fe1B N1N 1_555 1_555
Fe1G N1K 1_555 1_555
N1H Fe1 1_555 1_555
N1M Fe1E 1_555 1_555
N3 N4 1_555 1_555
C4 C5 1_555 1_555
C7 C8 1_555 1_555
N3E N4E 1_555 1_555
C4E C5E 1_555 1_555
C7E C8E 1_555 1_555
N3H N4H 1_555 1_555
C4H C5H 1_555 1_555
C7H C8H 1_555 1_555
N3M N4M 1_555 1_555
C4M C5M 1_555 1_555
C7M C8M 1_555 1_555

#END
