
#######################################################################
#
#                 Cambridge Crystallographic Data Centre
#                                CCDC 
#
#######################################################################
#
# If this CIF has been generated from an entry in the Cambridge 
# Structural Database, then it will include bibliographic, chemical, 
# crystal, experimental, refinement or atomic coordinate data resulting 
# from the CCDC's data processing and validation procedures.
#
#######################################################################

data_UJUKAM03
_symmetry_cell_setting           tetragonal
_symmetry_space_group_name_H-M   'I 41/a'
_symmetry_Int_Tables_number      88
_space_group_name_Hall           '-I 4ad'
loop_
_symmetry_equiv_pos_site_id
_symmetry_equiv_pos_as_xyz
1 x,y,z
2 1/2-x,-y,1/2+z
3 3/4-y,1/4+x,1/4+z
4 3/4+y,3/4-x,3/4+z
5 1/2+x,1/2+y,1/2+z
6 -x,1/2-y,z
7 1/4-y,3/4+x,3/4+z
8 1/4+y,1/4-x,1/4+z
9 -x,-y,-z
10 1/2+x,y,1/2-z
11 1/4+y,3/4-x,3/4-z
12 1/4-y,1/4+x,1/4-z
13 1/2-x,1/2-y,1/2-z
14 x,1/2+y,-z
15 3/4+y,1/4-x,1/4-z
16 3/4-y,3/4+x,3/4-z
_cell_length_a                   21.6165(6)
_cell_length_b                   21.6165(6)
_cell_length_c                   9.5995(9)
_cell_angle_alpha                90
_cell_angle_beta                 90
_cell_angle_gamma                90
_cell_volume                     4485.59
loop_
_atom_site_label
_atom_site_type_symbol
_atom_site_fract_x
_atom_site_fract_y
_atom_site_fract_z
Nb1 Nb 0.5000 0.7500 0.6250
Fe1 Fe 0.2500 0.7500 0.7500
C1 C 0.4006(3) 0.7621(3) 0.6935(8)
N1 N 0.3499(3) 0.7654(3) 0.7287(7)
C2 C 0.5598(4) 0.7411(3) 0.4362(10)
N2 N 0.5887(3) 0.7356(3) 0.3358(9)
N3 N 0.2349(3) 0.8350(3) 0.8644(7)
N4 N 0.2727(3) 0.8587(3) 0.9609(8)
H1 H 0.3065 0.8413 0.9874
C3 C 0.2517(4) 0.9130(4) 1.0121(10)
H2 H 0.2704 0.9375 1.0796
C4 C 0.1972(4) 0.9246(4) 0.9442(11)
H3 H 0.1714 0.9587 0.9552
C5 C 0.1889(4) 0.8755(4) 0.8567(10)
H4 H 0.1549 0.8709 0.7984
N5 N 0.2390(3) 0.7961(3) 0.5521(8)
N6 N 0.2853(3) 0.7977(3) 0.4569(8)
H5 H 0.3220 0.7844 0.4733
C6 C 0.2682(4) 0.8217(4) 0.3358(11)
H6 H 0.2932 0.8276 0.2580
C7 C 0.2078(4) 0.8359(4) 0.3470(10)
H7 H 0.1825 0.8533 0.2793
C8 C 0.1919(3) 0.8193(4) 0.4788(10)
H8 H 0.1522 0.8237 0.5144
Fe1E Fe 0.7500 0.7500 0.7500
C1E C 0.5994(3) 0.7379(3) 0.6935(8)
N1E N 0.6501(3) 0.7346(3) 0.7287(7)
C2E C 0.4402(4) 0.7589(3) 0.4362(10)
N2E N 0.4113(3) 0.7644(3) 0.3358(9)
N3E N 0.7651(3) 0.6650(3) 0.8644(7)
N4E N 0.7273(3) 0.6413(3) 0.9609(8)
H1E H 0.6935 0.6587 0.9874
C3E C 0.7483(4) 0.5870(4) 1.0121(10)
H2E H 0.7296 0.5625 1.0796
C4E C 0.8028(4) 0.5754(4) 0.9442(11)
H3E H 0.8286 0.5413 0.9552
C5E C 0.8111(4) 0.6245(4) 0.8567(10)
H4E H 0.8451 0.6291 0.7984
N5E N 0.7610(3) 0.7039(3) 0.5521(8)
N6E N 0.7147(3) 0.7023(3) 0.4569(8)
H5E H 0.6780 0.7156 0.4733
C6E C 0.7318(4) 0.6783(4) 0.3358(11)
H6E H 0.7068 0.6724 0.2580
C7E C 0.7922(4) 0.6641(4) 0.3470(10)
H7E H 0.8175 0.6467 0.2793
C8E C 0.8081(3) 0.6807(4) 0.4788(10)
H8E H 0.8478 0.6763 0.5144
C1K C 0.4879(3) 0.6506(3) 0.5565(8)
N1K N 0.4846(3) 0.5999(3) 0.5213(7)
C2K C 0.5089(3) 0.8098(4) 0.8138(10)
N2K N 0.5144(3) 0.8387(3) 0.9142(9)
C1N C 0.5121(3) 0.8494(3) 0.5565(8)
N1N N 0.5154(3) 0.9001(3) 0.5213(7)
C2N C 0.4911(3) 0.6902(4) 0.8138(10)
N2N N 0.4856(3) 0.6613(3) 0.9142(9)
N3L N 0.2651(3) 0.6650(3) 0.6356(7)
N4L N 0.2273(3) 0.6413(3) 0.5391(8)
H1L H 0.1935 0.6587 0.5126
C3L C 0.2483(4) 0.5870(4) 0.4879(10)
H2L H 0.2296 0.5625 0.4204
C4L C 0.3028(4) 0.5754(4) 0.5558(11)
H3L H 0.3286 0.5413 0.5448
C5L C 0.3111(4) 0.6245(4) 0.6433(10)
H4L H 0.3451 0.6291 0.7016
N5L N 0.2610(3) 0.7039(3) 0.9479(8)
N6L N 0.2147(3) 0.7023(3) 1.0431(8)
H5L H 0.1780 0.7156 1.0267
C6L C 0.2318(4) 0.6783(4) 1.1642(11)
H6L H 0.2068 0.6724 1.2420
C7L C 0.2922(4) 0.6641(4) 1.1530(10)
H7L H 0.3175 0.6467 1.2207
C8L C 0.3081(3) 0.6807(4) 1.0212(10)
H8L H 0.3478 0.6763 0.9856
N3I N 0.7349(3) 0.8350(3) 0.6356(7)
N4I N 0.7727(3) 0.8587(3) 0.5391(8)
H1I H 0.8065 0.8413 0.5126
C3I C 0.7517(4) 0.9130(4) 0.4879(10)
H2I H 0.7704 0.9375 0.4204
C4I C 0.6972(4) 0.9246(4) 0.5558(11)
H3I H 0.6714 0.9587 0.5448
C5I C 0.6889(4) 0.8755(4) 0.6433(10)
H4I H 0.6549 0.8709 0.7016
N5I N 0.7390(3) 0.7961(3) 0.9479(8)
N6I N 0.7853(3) 0.7977(3) 1.0431(8)
H5I H 0.8220 0.7844 1.0267
C6I C 0.7682(4) 0.8217(4) 1.1642(11)
H6I H 0.7932 0.8276 1.2420
C7I C 0.7078(4) 0.8359(4) 1.1530(10)
H7I H 0.6825 0.8533 1.2207
C8I C 0.6919(3) 0.8193(4) 1.0212(10)
H8I H 0.6522 0.8237 0.9856
Fe1C Fe 0.5000 0.5000 0.5000
Fe1F Fe 0.5000 1.0000 0.5000
N1I N 0.8499(3) 0.7654(3) 0.7713(7)
N1L N 0.1501(3) 0.7346(3) 0.7713(7)
O1 O 0.3840(3) 0.8088(3) 1.0574(8)
H9 H 0.393(5) 0.798(4) 1.127(12)
H10 H 0.415(4) 0.819(4) 1.035(11)
loop_
_geom_bond_atom_site_label_1
_geom_bond_atom_site_label_2
_geom_bond_site_symmetry_1
_geom_bond_site_symmetry_2
Nb1 C1 1_555 1_555
Fe1 N1 1_555 1_555
C1 N1 1_555 1_555
C2 Nb1 1_555 1_555
N2 C2 1_555 1_555
N3 Fe1 1_555 1_555
N4 N3 1_555 1_555
H1 N4 1_555 1_555
C3 N4 1_555 1_555
H2 C3 1_555 1_555
C4 C3 1_555 1_555
H3 C4 1_555 1_555
C5 N3 1_555 1_555
H4 C5 1_555 1_555
N5 Fe1 1_555 1_555
N6 N5 1_555 1_555
H5 N6 1_555 1_555
C6 N6 1_555 1_555
H6 C6 1_555 1_555
C7 C6 1_555 1_555
H7 C7 1_555 1_555
C8 N5 1_555 1_555
H8 C8 1_555 1_555
O1 H9 1_555 1_555
H10 O1 1_555 1_555
Fe1E N1E 1_555 1_555
C1E Nb1 1_555 1_555
N1E C1E 1_555 1_555
C2E Nb1 1_555 1_555
N2E C2E 1_555 1_555
N3E Fe1E 1_555 1_555
N4E N3E 1_555 1_555
H1E N4E 1_555 1_555
C3E N4E 1_555 1_555
H2E C3E 1_555 1_555
C4E C3E 1_555 1_555
H3E C4E 1_555 1_555
C5E N3E 1_555 1_555
H4E C5E 1_555 1_555
N5E Fe1E 1_555 1_555
N6E N5E 1_555 1_555
H5E N6E 1_555 1_555
C6E N6E 1_555 1_555
H6E C6E 1_555 1_555
C7E C6E 1_555 1_555
H7E C7E 1_555 1_555
C8E N5E 1_555 1_555
H8E C8E 1_555 1_555
C1K Nb1 1_555 1_555
N1K C1K 1_555 1_555
C2K Nb1 1_555 1_555
N2K C2K 1_555 1_555
C1N Nb1 1_555 1_555
N1N C1N 1_555 1_555
C2N Nb1 1_555 1_555
N2N C2N 1_555 1_555
N3L Fe1 1_555 1_555
N4L N3L 1_555 1_555
H1L N4L 1_555 1_555
C3L N4L 1_555 1_555
H2L C3L 1_555 1_555
C4L C3L 1_555 1_555
H3L C4L 1_555 1_555
C5L N3L 1_555 1_555
H4L C5L 1_555 1_555
N5L Fe1 1_555 1_555
N6L N5L 1_555 1_555
H5L N6L 1_555 1_555
C6L N6L 1_555 1_555
H6L C6L 1_555 1_555
C7L C6L 1_555 1_555
H7L C7L 1_555 1_555
C8L N5L 1_555 1_555
H8L C8L 1_555 1_555
N3I Fe1E 1_555 1_555
N4I N3I 1_555 1_555
H1I N4I 1_555 1_555
C3I N4I 1_555 1_555
H2I C3I 1_555 1_555
C4I C3I 1_555 1_555
H3I C4I 1_555 1_555
C5I N3I 1_555 1_555
H4I C5I 1_555 1_555
N5I Fe1E 1_555 1_555
N6I N5I 1_555 1_555
H5I N6I 1_555 1_555
C6I N6I 1_555 1_555
H6I C6I 1_555 1_555
C7I C6I 1_555 1_555
H7I C7I 1_555 1_555
C8I N5I 1_555 1_555
H8I C8I 1_555 1_555
Fe1C N1K 1_555 1_555
Fe1F N1N 1_555 1_555
N1I Fe1E 1_555 1_555
N1L Fe1 1_555 1_555
C4 C5 1_555 1_555
C7 C8 1_555 1_555
C4E C5E 1_555 1_555
C7E C8E 1_555 1_555
C4L C5L 1_555 1_555
C7L C8L 1_555 1_555
C4I C5I 1_555 1_555
C7I C8I 1_555 1_555

#END
