
#######################################################################
#
#                 Cambridge Crystallographic Data Centre
#                                CCDC 
#
#######################################################################
#
# If this CIF has been generated from an entry in the Cambridge 
# Structural Database, then it will include bibliographic, chemical, 
# crystal, experimental, refinement or atomic coordinate data resulting 
# from the CCDC's data processing and validation procedures.
#
#######################################################################

data_UJUKIU
_symmetry_cell_setting           tetragonal
_symmetry_space_group_name_H-M   'I 41/a'
_symmetry_Int_Tables_number      88
_space_group_name_Hall           '-I 4ad'
loop_
_symmetry_equiv_pos_site_id
_symmetry_equiv_pos_as_xyz
1 x,y,z
2 -x,1/2-y,z
3 3/4-y,1/4+x,1/4+z
4 1/4+y,1/4-x,1/4+z
5 1/2+x,1/2+y,1/2+z
6 1/2-x,-y,1/2+z
7 1/4-y,3/4+x,3/4+z
8 3/4+y,3/4-x,3/4+z
9 -x,-y,-z
10 x,1/2+y,-z
11 1/4+y,3/4-x,3/4-z
12 3/4-y,3/4+x,3/4-z
13 1/2-x,1/2-y,1/2-z
14 1/2+x,y,1/2-z
15 3/4+y,1/4-x,1/4-z
16 1/4-y,1/4+x,1/4-z
_cell_length_a                   21.4340(4)
_cell_length_b                   21.4340(4)
_cell_length_c                   9.6410(2)
_cell_angle_alpha                90
_cell_angle_beta                 90
_cell_angle_gamma                90
_cell_volume                     4429.23
loop_
_atom_site_label
_atom_site_type_symbol
_atom_site_fract_x
_atom_site_fract_y
_atom_site_fract_z
Nb1 Nb 0.00000 -0.25 0.375
C1 C 0.00883(12) -0.31023(12) 0.1848(3)
N1 N 0.01428(14) -0.33946(12) 0.0863(3)
C2 C -0.01184(12) -0.14952(11) 0.4452(3)
N2 N -0.01449(11) -0.09789(10) 0.4790(2)
Ni1 Ni 0.00000 0.00000 0.5000
N3 N -0.04437(11) 0.01246(10) 0.3071(2)
N4 N -0.04560(13) -0.03438(11) 0.2147(3)
H1 H -0.0322 -0.0714 0.2316
C3 C -0.06995(18) -0.01683(16) 0.0938(3)
H2 H -0.0753 -0.0417 0.0157
C4 C -0.08549(17) 0.04403(16) 0.1061(4)
H3 H -0.1035 0.0695 0.0391
C5 C -0.06881(15) 0.06015(14) 0.2401(3)
H4 H -0.0742 0.0997 0.2781
N5 N -0.08297(11) 0.01413(10) 0.6066(2)
N6 N -0.10487(12) -0.02402(12) 0.7058(2)
H5 H -0.0867 -0.0579 0.7317
C6 C -0.15854(16) -0.00278(17) 0.7594(4)
H6 H -0.1819 -0.0217 0.829
C7 C -0.17248(17) 0.05167(17) 0.6929(4)
H7 H -0.2069 0.0773 0.7072
C8 C -0.12442(14) 0.06044(14) 0.6001(4)
H8 H -0.1213 0.0944 0.5405
C1A C -0.00883(12) -0.18977(12) 0.1848(3)
C1J C -0.06023(12) -0.25883(12) 0.5652(3)
C1K C 0.06023(12) -0.24117(12) 0.5652(3)
N1A N -0.01428(14) -0.16054(12) 0.0863(3)
N1J N -0.08946(12) -0.26428(14) 0.6637(3)
N1K N 0.08946(12) -0.23572(14) 0.6637(3)
C2A C 0.01184(12) -0.35048(11) 0.4452(3)
C2J C 0.10048(11) -0.23816(12) 0.3048(3)
C2K C -0.10048(11) -0.26184(12) 0.3048(3)
N2A N 0.01449(11) -0.40211(10) 0.4790(2)
N2J N 0.15211(10) -0.23551(11) 0.2710(2)
N2K N -0.15211(10) -0.26449(11) 0.2710(2)
N2G N -0.34789(10) -0.23551(11) 0.2290(2)
N2H N 0.01449(11) 0.09789(10) 0.5210(2)
Ni1G Ni -0.25000 -0.25000 0.2500
Ni1F Ni 0.25000 -0.25000 0.2500
Ni1A Ni 0.00000 -0.50000 0.5000
N3K N -0.26246(10) -0.29437(11) 0.4429(2)
N3H N 0.04437(11) -0.01246(10) 0.6929(2)
N3G N -0.23754(10) -0.20563(11) 0.0571(2)
N4K N -0.21562(11) -0.29560(13) 0.5353(3)
N4H N 0.04560(13) 0.03438(11) 0.7853(3)
N4G N -0.28438(11) -0.20440(13) -0.0353(3)
H1K H -0.1786 -0.2822 0.5184
H1H H 0.0322 0.0714 0.7684
H1G H -0.3214 -0.2178 -0.0184
C3K C -0.23317(16) -0.31995(18) 0.6562(3)
C3H C 0.06995(18) 0.01683(16) 0.9062(3)
C3G C -0.26683(16) -0.18005(18) -0.1562(3)
H2K H -0.2083 -0.3253 0.7343
H2H H 0.0753 0.0417 0.9843
H2G H -0.2917 -0.1747 -0.2343
C4K C -0.29403(16) -0.33549(17) 0.6439(4)
C4H C 0.08549(17) -0.04403(16) 0.8939(4)
C4G C -0.20597(16) -0.16451(17) -0.1439(4)
H3K H -0.3195 -0.3535 0.7109
H3H H 0.1035 -0.0695 0.9609
H3G H -0.1805 -0.1465 -0.2109
C5K C -0.31015(14) -0.31881(15) 0.5099(3)
C5H C 0.06881(15) -0.06015(14) 0.7599(3)
C5G C -0.18985(14) -0.18119(15) -0.0099(3)
H4K H -0.3497 -0.3242 0.4719
H4H H 0.0742 -0.0997 0.7219
H4G H -0.1503 -0.1758 0.0281
N5K N -0.26413(10) -0.33297(11) 0.1434(2)
N5H N 0.08297(11) -0.01413(10) 0.3934(2)
N5G N -0.23587(10) -0.16703(11) 0.3566(2)
N6K N -0.22598(12) -0.35487(12) 0.0442(2)
N6H N 0.10487(12) 0.02402(12) 0.2942(2)
N6G N -0.27402(12) -0.14513(12) 0.4558(2)
H5K H -0.1921 -0.3367 0.0183
H5H H 0.0867 0.0579 0.2683
H5G H -0.3079 -0.1633 0.4817
C6K C -0.24722(17) -0.40854(16) -0.0094(4)
C6H C 0.15854(16) 0.00278(17) 0.2406(4)
C6G C -0.25278(17) -0.09146(16) 0.5094(4)
H6K H -0.2283 -0.4319 -0.079
H6H H 0.1819 0.0217 0.171
H6G H -0.2717 -0.0681 0.579
C7K C -0.30167(17) -0.42248(17) 0.0571(4)
C7H C 0.17248(17) -0.05167(17) 0.3071(4)
C7G C -0.19833(17) -0.07752(17) 0.4429(4)
H7K H -0.3273 -0.4569 0.0428
H7H H 0.2069 -0.0773 0.2928
H7G H -0.1727 -0.0431 0.4572
C8K C -0.31044(14) -0.37442(14) 0.1499(4)
C8H C 0.12442(14) -0.06044(14) 0.3999(4)
C8G C -0.18956(14) -0.12558(14) 0.3501(4)
H8K H -0.3444 -0.3713 0.2095
H8H H 0.1213 -0.0944 0.4595
H8G H -0.1556 -0.1287 0.2905
O1 O -0.05743(12) -0.13616(12) 0.8093(3)
H9 H -0.0376(19) -0.146(2) 0.892(3)
H10 H -0.066(2) -0.1745(14) 0.770(5)
loop_
_geom_bond_atom_site_label_1
_geom_bond_atom_site_label_2
_geom_bond_site_symmetry_1
_geom_bond_site_symmetry_2
Nb1 C1 1_555 1_555
C1 N1 1_555 1_555
C2 Nb1 1_555 1_555
N2 C2 1_555 1_555
Ni1 N2 1_555 1_555
N3 Ni1 1_555 1_555
N4 N3 1_555 1_555
H1 N4 1_555 1_555
C3 N4 1_555 1_555
H2 C3 1_555 1_555
C4 C3 1_555 1_555
H3 C4 1_555 1_555
C5 N3 1_555 1_555
H4 C5 1_555 1_555
N5 Ni1 1_555 1_555
N6 N5 1_555 1_555
H5 N6 1_555 1_555
C6 N6 1_555 1_555
H6 C6 1_555 1_555
C7 C6 1_555 1_555
H7 C7 1_555 1_555
C8 N5 1_555 1_555
H8 C8 1_555 1_555
O1 H9 1_555 1_555
H10 O1 1_555 1_555
C1A Nb1 1_555 1_555
C1J Nb1 1_555 1_555
C1K Nb1 1_555 1_555
N1A C1A 1_555 1_555
N1J C1J 1_555 1_555
N1K C1K 1_555 1_555
C2A Nb1 1_555 1_555
C2J Nb1 1_555 1_555
C2K Nb1 1_555 1_555
N2A C2A 1_555 1_555
N2J C2J 1_555 1_555
N2K C2K 1_555 1_555
N2G Ni1G 1_555 1_555
N2H Ni1 1_555 1_555
Ni1G N2K 1_555 1_555
Ni1F N2J 1_555 1_555
Ni1A N2A 1_555 1_555
N3K Ni1G 1_555 1_555
N3H Ni1 1_555 1_555
N3G Ni1G 1_555 1_555
N4K N3K 1_555 1_555
N4H N3H 1_555 1_555
N4G N3G 1_555 1_555
H1K N4K 1_555 1_555
H1H N4H 1_555 1_555
H1G N4G 1_555 1_555
C3K N4K 1_555 1_555
C3H N4H 1_555 1_555
C3G N4G 1_555 1_555
H2K C3K 1_555 1_555
H2H C3H 1_555 1_555
H2G C3G 1_555 1_555
C4K C3K 1_555 1_555
C4H C3H 1_555 1_555
C4G C3G 1_555 1_555
H3K C4K 1_555 1_555
H3H C4H 1_555 1_555
H3G C4G 1_555 1_555
C5K N3K 1_555 1_555
C5H N3H 1_555 1_555
C5G N3G 1_555 1_555
H4K C5K 1_555 1_555
H4H C5H 1_555 1_555
H4G C5G 1_555 1_555
N5K Ni1G 1_555 1_555
N5H Ni1 1_555 1_555
N5G Ni1G 1_555 1_555
N6K N5K 1_555 1_555
N6H N5H 1_555 1_555
N6G N5G 1_555 1_555
H5K N6K 1_555 1_555
H5H N6H 1_555 1_555
H5G N6G 1_555 1_555
C6K N6K 1_555 1_555
C6H N6H 1_555 1_555
C6G N6G 1_555 1_555
H6K C6K 1_555 1_555
H6H C6H 1_555 1_555
H6G C6G 1_555 1_555
C7K C6K 1_555 1_555
C7H C6H 1_555 1_555
C7G C6G 1_555 1_555
H7K C7K 1_555 1_555
H7H C7H 1_555 1_555
H7G C7G 1_555 1_555
C8K N5K 1_555 1_555
C8H N5H 1_555 1_555
C8G N5G 1_555 1_555
H8K C8K 1_555 1_555
H8H C8H 1_555 1_555
H8G C8G 1_555 1_555
C4 C5 1_555 1_555
C7 C8 1_555 1_555
C4K C5K 1_555 1_555
C4H C5H 1_555 1_555
C4G C5G 1_555 1_555
C7K C8K 1_555 1_555
C7H C8H 1_555 1_555
C7G C8G 1_555 1_555

#END
