
#######################################################################
#
#                 Cambridge Crystallographic Data Centre
#                                CCDC 
#
#######################################################################
#
# If this CIF has been generated from an entry in the Cambridge 
# Structural Database, then it will include bibliographic, chemical, 
# crystal, experimental, refinement or atomic coordinate data resulting 
# from the CCDC's data processing and validation procedures.
#
#######################################################################

data_UJUKAL
_symmetry_cell_setting           hexagonal
_symmetry_space_group_name_H-M   'P 65 2 2'
_symmetry_Int_Tables_number      179
_space_group_name_Hall           "P 65 2' (0,0,1)"
loop_
_symmetry_equiv_pos_site_id
_symmetry_equiv_pos_as_xyz
1 x,y,z
2 x-y,x,5/6+z
3 -y,x-y,2/3+z
4 -x,-y,1/2+z
5 -x+y,-x,1/3+z
6 y,-x+y,1/6+z
7 x-y,-y,-z
8 -x,-x+y,1/3-z
9 y,x,2/3-z
10 -y,-x,1/6-z
11 -x+y,y,1/2-z
12 x,x-y,5/6-z
_cell_length_a                   12.5245(18)
_cell_length_b                   12.5245(18)
_cell_length_c                   60.470(12)
_cell_angle_alpha                90
_cell_angle_beta                 90
_cell_angle_gamma                120
_cell_volume                     8214.69
loop_
_atom_site_label
_atom_site_type_symbol
_atom_site_fract_x
_atom_site_fract_y
_atom_site_fract_z
Ho1 Ho 0.90130(4) 0.47145(5) 0.004070(8)
Na1 Na 1.2019(5) 0.5867(6) 0.03466(8)
N1 N 0.7407(9) 0.2713(10) 0.02237(18)
C1 C 0.6253(12) 0.2036(11) 0.0158(2)
H1 H 0.5983 0.2277 0.0030
C2 C 0.5428(11) 0.0984(12) 0.0271(2)
H2 H 0.4593 0.0508 0.0225
C3 C 0.5845(14) 0.0660(14) 0.0447(3)
H3 H 0.5291 -0.0066 0.0526
C4 C 0.7034(13) 0.1328(13) 0.0519(3)
H4 H 0.7319 0.1092 0.0645
C5 C 0.7810(11) 0.2384(11) 0.0396(2)
C6 C 0.9162(11) 0.3159(12) 0.04493(19)
O1 O 0.9797(7) 0.4041(7) 0.03217(12)
O2 O 0.9571(9) 0.2889(9) 0.06152(13)
N2 N 0.8349(9) 0.5324(11) 0.04049(16)
C7 C 0.9030(14) 0.5699(15) 0.0594(2)
H5 H 0.9848 0.5837 0.0593
C8 C 0.8551(14) 0.5886(15) 0.0792(3)
H6 H 0.9022 0.6088 0.0924
C9 C 0.7385(14) 0.5774(15) 0.0793(2)
H7 H 0.7063 0.5929 0.0923
C10 C 0.6708(13) 0.5430(14) 0.0598(2)
H8 H 0.5910 0.5343 0.0591
C11 C 0.7243(11) 0.5213(11) 0.04090(18)
C12 C 0.6605(11) 0.4937(11) 0.01843(18)
O3 O 0.5538(6) 0.4807(8) 0.01829(13)
O4 O 0.7154(6) 0.4830(7) 0.00263(11)
N3 N 0.9655(9) 0.6722(9) -0.01767(14)
C13 C 0.9156(13) 0.6791(14) -0.0362(2)
H9 H 0.8431 0.6082 -0.0414
C14 C 0.9652(13) 0.7872(15) -0.0488(3)
H10 H 0.9266 0.7912 -0.0620
C15 C 1.0707(15) 0.8863(13) -0.0414(3)
H11 H 1.1071 0.9621 -0.0492
C16 C 1.1227(11) 0.8752(11) -0.0227(2)
H12 H 1.1971 0.9431 -0.0174
C17 C 1.0703(12) 0.7699(11) -0.0118(2)
C18 C 1.1281(11) 0.7545(11) 0.0097(2)
O5 O 1.0727(7) 0.6495(7) 0.01895(12)
O6 O 1.2266(10) 0.8414(10) 0.01742(19)
N4 N 0.9079(9) 0.2758(9) -0.01190(15)
C19 C 0.9758(13) 0.2290(13) -0.0056(2)
H13 H 1.0213 0.2593 0.0077
C20 C 0.9861(18) 0.1375(16) -0.0171(3)
H14 H 1.0307 0.1012 -0.0111
C21 C 0.9269(17) 0.1012(16) -0.0381(3)
H15 H 0.9354 0.0430 -0.0468
C22 C 0.8566(15) 0.1516(14) -0.0456(2)
H16 H 0.8151 0.1292 -0.0594
C23 C 0.8509(12) 0.2362(13) -0.0317(3)
C24 C 0.7782(14) 0.2943(14) -0.0399(2)
O7 O 0.7903(8) 0.3881(8) -0.02766(14)
O8 O 0.7077(16) 0.2539(14) -0.0550(2)
O9 O 1.1674(11) 0.5086(13) 0.07013(18)
O3F O 1.0731(10) 0.5193(8) -0.01829(13)
O4F O 1.2324(9) 0.5170(7) -0.00263(11)
O7F O 1.4022(11) 0.6119(8) 0.02766(14)
Ho1F Ho 0.42985(6) 0.52855(5) -0.004070(8)
Na1F Na 0.6152(8) 0.4133(6) -0.03466(8)
O10 O 0.9237(8) 0.0763(8) 0.0833
loop_
_geom_bond_atom_site_label_1
_geom_bond_atom_site_label_2
_geom_bond_site_symmetry_1
_geom_bond_site_symmetry_2
Ho1 N1 1_555 1_555
Na1 O1 1_555 1_555
N1 C1 1_555 1_555
C1 H1 1_555 1_555
C2 C1 1_555 1_555
H2 C2 1_555 1_555
C3 C2 1_555 1_555
H3 C3 1_555 1_555
C4 C3 1_555 1_555
H4 C4 1_555 1_555
C5 N1 1_555 1_555
C6 C5 1_555 1_555
O1 Ho1 1_555 1_555
O2 C6 1_555 1_555
N2 Ho1 1_555 1_555
C7 N2 1_555 1_555
H5 C7 1_555 1_555
C8 C7 1_555 1_555
H6 C8 1_555 1_555
C9 C8 1_555 1_555
H7 C9 1_555 1_555
C10 C9 1_555 1_555
H8 C10 1_555 1_555
C11 N2 1_555 1_555
C12 C11 1_555 1_555
O3 C12 1_555 1_555
O4 Ho1 1_555 1_555
N3 Ho1 1_555 1_555
C13 N3 1_555 1_555
H9 C13 1_555 1_555
C14 C13 1_555 1_555
H10 C14 1_555 1_555
C15 C14 1_555 1_555
H11 C15 1_555 1_555
C16 C15 1_555 1_555
H12 C16 1_555 1_555
C17 N3 1_555 1_555
C18 C17 1_555 1_555
O5 Ho1 1_555 1_555
O6 C18 1_555 1_555
N4 Ho1 1_555 1_555
C19 N4 1_555 1_555
H13 C19 1_555 1_555
C20 C19 1_555 1_555
H14 C20 1_555 1_555
C21 C20 1_555 1_555
H15 C21 1_555 1_555
C22 C21 1_555 1_555
H16 C22 1_555 1_555
C23 N4 1_555 1_555
C24 C23 1_555 1_555
O7 Ho1 1_555 1_555
O8 C24 1_555 1_555
O9 Na1 1_555 1_555
O3F Ho1 1_555 1_555
O4F Na1 1_555 1_555
O7F Na1 1_555 1_555
Ho1F O3 1_555 1_555
Na1F O4 1_555 1_555
Na1 O5 1_555 1_555
C4 C5 1_555 1_555
C6 O1 1_555 1_555
C10 C11 1_555 1_555
C12 O4 1_555 1_555
C16 C17 1_555 1_555
C18 O5 1_555 1_555
C22 C23 1_555 1_555
C24 O7 1_555 1_555
O7 Na1F 1_555 1_555

#END
