
#######################################################################
#
#                 Cambridge Crystallographic Data Centre
#                                CCDC 
#
#######################################################################
#
# If this CIF has been generated from an entry in the Cambridge 
# Structural Database, then it will include bibliographic, chemical, 
# crystal, experimental, refinement or atomic coordinate data resulting 
# from the CCDC's data processing and validation procedures.
#
#######################################################################

data_UJUKAM08
_symmetry_cell_setting           tetragonal
_symmetry_space_group_name_H-M   'I 41/a'
_symmetry_Int_Tables_number      88
_space_group_name_Hall           '-I 4ad'
loop_
_symmetry_equiv_pos_site_id
_symmetry_equiv_pos_as_xyz
1 x,y,z
2 1/2-x,-y,1/2+z
3 3/4-y,1/4+x,1/4+z
4 3/4+y,3/4-x,3/4+z
5 1/2+x,1/2+y,1/2+z
6 -x,1/2-y,z
7 1/4-y,3/4+x,3/4+z
8 1/4+y,1/4-x,1/4+z
9 -x,-y,-z
10 1/2+x,y,1/2-z
11 1/4+y,3/4-x,3/4-z
12 1/4-y,1/4+x,1/4-z
13 1/2-x,1/2-y,1/2-z
14 x,1/2+y,-z
15 3/4+y,1/4-x,1/4-z
16 3/4-y,3/4+x,3/4-z
_cell_length_a                   20.60(2)
_cell_length_b                   20.60(2)
_cell_length_c                   9.16(2)
_cell_angle_alpha                90
_cell_angle_beta                 90
_cell_angle_gamma                90
_cell_volume                     3887.14
loop_
_atom_site_label
_atom_site_type_symbol
_atom_site_fract_x
_atom_site_fract_y
_atom_site_fract_z
Nb1 Nb 0.5000 0.7500 0.6250
Fe1 Fe 0.2500 0.7500 0.7500
C1 C 0.3989(7) 0.7666(6) 0.690(4)
N1 N 0.3441(6) 0.7684(5) 0.730(3)
C2 C 0.5610(8) 0.7381(7) 0.410(4)
N2 N 0.5918(7) 0.7320(7) 0.328(4)
N3 N 0.2282(5) 0.8341(5) 0.860(2)
N4 N 0.2679(6) 0.8631(7) 0.961(3)
H1 H 0.3033 0.8460 0.9921
C3 C 0.2463(7) 0.9195(7) 1.003(3)
H2 H 0.2658 0.9481 1.0685
C4 C 0.1904(7) 0.9274(8) 0.933(4)
H3 H 0.1626 0.9628 0.9412
C5 C 0.1813(6) 0.8753(8) 0.849(4)
H4 H 0.1453 0.8694 0.7894
N5 N 0.2359(7) 0.7957(6) 0.550(3)
N6 N 0.2835(7) 0.7958(7) 0.456(4)
H5 H 0.3213 0.7804 0.4752
C6 C 0.2679(10) 0.8223(9) 0.326(5)
H6 H 0.2956 0.8271 0.2468
C7 C 0.2060(9) 0.8404(8) 0.331(4)
H7 H 0.1811 0.8588 0.2578
C8 C 0.1876(8) 0.8253(8) 0.472(5)
H8 H 0.1466 0.8342 0.5095
Fe1E Fe 0.7500 0.7500 0.7500
C1E C 0.6011(7) 0.7334(6) 0.690(4)
N1E N 0.6559(6) 0.7316(5) 0.730(3)
C2E C 0.4390(8) 0.7619(7) 0.410(4)
N2E N 0.4082(7) 0.7680(7) 0.328(4)
N3E N 0.7718(5) 0.6659(5) 0.860(2)
N4E N 0.7321(6) 0.6369(7) 0.961(3)
H1E H 0.6967 0.6540 0.9921
C3E C 0.7537(7) 0.5805(7) 1.003(3)
H2E H 0.7342 0.5519 1.0685
C4E C 0.8096(7) 0.5726(8) 0.933(4)
H3E H 0.8374 0.5372 0.9412
C5E C 0.8187(6) 0.6247(8) 0.849(4)
H4E H 0.8547 0.6306 0.7894
N5E N 0.7641(7) 0.7043(6) 0.550(3)
N6E N 0.7165(7) 0.7042(7) 0.456(4)
H5E H 0.6787 0.7196 0.4752
C6E C 0.7321(10) 0.6777(9) 0.326(5)
H6E H 0.7044 0.6729 0.2468
C7E C 0.7940(9) 0.6596(8) 0.331(4)
H7E H 0.8189 0.6412 0.2578
C8E C 0.8124(8) 0.6747(8) 0.472(5)
H8E H 0.8534 0.6658 0.5095
C1K C 0.4834(6) 0.6489(7) 0.560(4)
N1K N 0.4816(5) 0.5941(6) 0.520(3)
C2K C 0.5119(7) 0.8110(8) 0.840(4)
N2K N 0.5180(7) 0.8418(7) 0.922(4)
C1N C 0.5166(6) 0.8511(7) 0.560(4)
N1N N 0.5184(5) 0.9059(6) 0.520(3)
C2N C 0.4881(7) 0.6890(8) 0.840(4)
N2N N 0.4820(7) 0.6582(7) 0.922(4)
N3L N 0.2718(5) 0.6659(5) 0.640(2)
N4L N 0.2321(6) 0.6369(7) 0.539(3)
H1L H 0.1967 0.6540 0.5079
C3L C 0.2537(7) 0.5805(7) 0.497(3)
H2L H 0.2342 0.5519 0.4315
C4L C 0.3096(7) 0.5726(8) 0.567(4)
H3L H 0.3374 0.5372 0.5588
C5L C 0.3187(6) 0.6247(8) 0.651(4)
H4L H 0.3547 0.6306 0.7106
N5L N 0.2641(7) 0.7043(6) 0.950(3)
N6L N 0.2165(7) 0.7042(7) 1.044(4)
H5L H 0.1787 0.7196 1.0248
C6L C 0.2321(10) 0.6777(9) 1.174(5)
H6L H 0.2044 0.6729 1.2532
C7L C 0.2940(9) 0.6596(8) 1.169(4)
H7L H 0.3189 0.6412 1.2422
C8L C 0.3124(8) 0.6747(8) 1.028(5)
H8L H 0.3534 0.6658 0.9905
N3I N 0.7282(5) 0.8341(5) 0.640(2)
N4I N 0.7679(6) 0.8631(7) 0.539(3)
H1I H 0.8033 0.8460 0.5079
C3I C 0.7463(7) 0.9195(7) 0.497(3)
H2I H 0.7658 0.9481 0.4315
C4I C 0.6904(7) 0.9274(8) 0.567(4)
H3I H 0.6626 0.9628 0.5588
C5I C 0.6813(6) 0.8753(8) 0.651(4)
H4I H 0.6453 0.8694 0.7106
N5I N 0.7359(7) 0.7957(6) 0.950(3)
N6I N 0.7835(7) 0.7958(7) 1.044(4)
H5I H 0.8213 0.7804 1.0248
C6I C 0.7679(10) 0.8223(9) 1.174(5)
H6I H 0.7956 0.8271 1.2532
C7I C 0.7060(9) 0.8404(8) 1.169(4)
H7I H 0.6811 0.8588 1.2422
C8I C 0.6876(8) 0.8253(8) 1.028(5)
H8I H 0.6466 0.8342 0.9905
Fe1C Fe 0.5000 0.5000 0.5000
Fe1F Fe 0.5000 1.0000 0.5000
N1I N 0.8441(6) 0.7684(5) 0.770(3)
N1L N 0.1559(6) 0.7316(5) 0.770(3)
O1 O 0.3838(5) 0.8083(4) 1.041(3)
H9 H 0.386(6) 0.773(5) 1.104(14)
H10 H 0.419(6) 0.798(6) 0.983(15)
loop_
_geom_bond_atom_site_label_1
_geom_bond_atom_site_label_2
_geom_bond_site_symmetry_1
_geom_bond_site_symmetry_2
Nb1 C1 1_555 1_555
Fe1 N1 1_555 1_555
C1 N1 1_555 1_555
C2 Nb1 1_555 1_555
N2 C2 1_555 1_555
N3 Fe1 1_555 1_555
N4 N3 1_555 1_555
H1 N4 1_555 1_555
C3 N4 1_555 1_555
H2 C3 1_555 1_555
C4 C3 1_555 1_555
H3 C4 1_555 1_555
C5 N3 1_555 1_555
H4 C5 1_555 1_555
N5 Fe1 1_555 1_555
N6 N5 1_555 1_555
H5 N6 1_555 1_555
C6 N6 1_555 1_555
H6 C6 1_555 1_555
C7 C6 1_555 1_555
H7 C7 1_555 1_555
C8 N5 1_555 1_555
H8 C8 1_555 1_555
O1 H9 1_555 1_555
H10 O1 1_555 1_555
Fe1E N1E 1_555 1_555
C1E Nb1 1_555 1_555
N1E C1E 1_555 1_555
C2E Nb1 1_555 1_555
N2E C2E 1_555 1_555
N3E Fe1E 1_555 1_555
N4E N3E 1_555 1_555
H1E N4E 1_555 1_555
C3E N4E 1_555 1_555
H2E C3E 1_555 1_555
C4E C3E 1_555 1_555
H3E C4E 1_555 1_555
C5E N3E 1_555 1_555
H4E C5E 1_555 1_555
N5E Fe1E 1_555 1_555
N6E N5E 1_555 1_555
H5E N6E 1_555 1_555
C6E N6E 1_555 1_555
H6E C6E 1_555 1_555
C7E C6E 1_555 1_555
H7E C7E 1_555 1_555
C8E N5E 1_555 1_555
H8E C8E 1_555 1_555
C1K Nb1 1_555 1_555
N1K C1K 1_555 1_555
C2K Nb1 1_555 1_555
N2K C2K 1_555 1_555
C1N Nb1 1_555 1_555
N1N C1N 1_555 1_555
C2N Nb1 1_555 1_555
N2N C2N 1_555 1_555
N3L Fe1 1_555 1_555
N4L N3L 1_555 1_555
H1L N4L 1_555 1_555
C3L N4L 1_555 1_555
H2L C3L 1_555 1_555
C4L C3L 1_555 1_555
H3L C4L 1_555 1_555
C5L N3L 1_555 1_555
H4L C5L 1_555 1_555
N5L Fe1 1_555 1_555
N6L N5L 1_555 1_555
H5L N6L 1_555 1_555
C6L N6L 1_555 1_555
H6L C6L 1_555 1_555
C7L C6L 1_555 1_555
H7L C7L 1_555 1_555
C8L N5L 1_555 1_555
H8L C8L 1_555 1_555
N3I Fe1E 1_555 1_555
N4I N3I 1_555 1_555
H1I N4I 1_555 1_555
C3I N4I 1_555 1_555
H2I C3I 1_555 1_555
C4I C3I 1_555 1_555
H3I C4I 1_555 1_555
C5I N3I 1_555 1_555
H4I C5I 1_555 1_555
N5I Fe1E 1_555 1_555
N6I N5I 1_555 1_555
H5I N6I 1_555 1_555
C6I N6I 1_555 1_555
H6I C6I 1_555 1_555
C7I C6I 1_555 1_555
H7I C7I 1_555 1_555
C8I N5I 1_555 1_555
H8I C8I 1_555 1_555
Fe1C N1K 1_555 1_555
Fe1F N1N 1_555 1_555
N1I Fe1E 1_555 1_555
N1L Fe1 1_555 1_555
C4 C5 1_555 1_555
C7 C8 1_555 1_555
C4E C5E 1_555 1_555
C7E C8E 1_555 1_555
C4L C5L 1_555 1_555
C7L C8L 1_555 1_555
C4I C5I 1_555 1_555
C7I C8I 1_555 1_555

#END
