
#######################################################################
#
#                 Cambridge Crystallographic Data Centre
#                                CCDC 
#
#######################################################################
#
# If this CIF has been generated from an entry in the Cambridge 
# Structural Database, then it will include bibliographic, chemical, 
# crystal, experimental, refinement or atomic coordinate data resulting 
# from the CCDC's data processing and validation procedures.
#
#######################################################################

data_UJUVOL
_symmetry_cell_setting           monoclinic
_symmetry_space_group_name_H-M   'P 21/c'
_symmetry_Int_Tables_number      14
_space_group_name_Hall           '-P 2ybc'
loop_
_symmetry_equiv_pos_site_id
_symmetry_equiv_pos_as_xyz
1 x,y,z
2 -x,1/2+y,1/2-z
3 -x,-y,-z
4 x,1/2-y,1/2+z
_cell_length_a                   9.0357(11)
_cell_length_b                   16.609(2)
_cell_length_c                   17.374(2)
_cell_angle_alpha                90
_cell_angle_beta                 95.371(6)
_cell_angle_gamma                90
_cell_volume                     2595.94
loop_
_atom_site_label
_atom_site_type_symbol
_atom_site_fract_x
_atom_site_fract_y
_atom_site_fract_z
Ag1 Ag 0.64541(3) 0.875420(14) 0.310207(12)
Cl1 Cl 0.29167(8) 0.96378(5) 0.32602(4)
S1 S 0.71974(9) 0.98862(5) 0.22847(4)
S2 S 0.53166(9) 0.74368(5) 0.27061(4)
O1 O 0.7244(3) 0.92353(12) -0.00202(12)
O2 O 0.4646(2) 0.68516(12) 0.06571(11)
O3 O 0.8398(2) 0.81132(15) 0.21749(12)
O4 O 0.4452(3) 0.97495(17) 0.35458(16)
O5 O 0.2043(3) 1.0105(2) 0.37309(19)
O6 O 0.2525(4) 0.88088(16) 0.33288(17)
O7 O 0.2694(4) 0.9879(2) 0.24715(16)
C1 C 0.6554(3) 0.76293(17) -0.03149(15)
H1 H 0.5794 0.7951 -0.0160
C2 C 0.6439(3) 0.67986(17) -0.02604(15)
C3 C 0.7591(3) 0.63179(17) -0.04937(16)
H2 H 0.7544 0.5761 -0.0447
C4 C 0.8807(3) 0.66749(19) -0.07955(17)
H3 H 0.9557 0.6355 -0.0964
C5 C 0.8900(3) 0.75041(19) -0.08451(17)
H4 H 0.9715 0.7739 -0.1046
C6 C 0.7782(3) 0.79892(17) -0.05965(15)
C7 C 0.7900(4) 0.88896(18) -0.06582(17)
H5 H 0.8934 0.9049 -0.0647
H6 H 0.7384 0.9074 -0.1141
C8 C 0.7335(3) 1.00541(17) 0.00829(16)
C9 C 0.7924(3) 1.05763(18) -0.04356(17)
H7 H 0.8279 1.0377 -0.0884
C10 C 0.7979(4) 1.13954(18) -0.02798(18)
H8 H 0.8382 1.1744 -0.0623
C11 C 0.7440(3) 1.16991(18) 0.03792(19)
H9 H 0.7471 1.2249 0.0478
C12 C 0.6853(3) 1.11737(17) 0.08931(18)
H10 H 0.6496 1.1378 0.1339
C13 C 0.6786(3) 1.03504(17) 0.07561(16)
C14 C 0.6170(3) 0.97960(17) 0.13376(16)
H11 H 0.6221 0.9244 0.1159
H12 H 0.5133 0.9926 0.1378
C15 C 0.9017(4) 0.9538(2) 0.2108(2)
H13 H 0.9864 0.9846 0.2237
C16 C 0.9098(4) 0.8725(2) 0.1743(2)
H14 H 0.8613 0.8745 0.1221
H15 H 1.0131 0.8583 0.1710
C17 C 0.7582(4) 0.7540(2) 0.17013(18)
H16 H 0.8253 0.7238 0.1406
H17 H 0.6868 0.7815 0.1341
C18 C 0.6786(4) 0.69764(19) 0.21973(19)
H18 H 0.7510 0.6737 0.2577
H19 H 0.6353 0.6545 0.1874
C19 C 0.3950(3) 0.77408(17) 0.19159(16)
H20 H 0.3322 0.8158 0.2101
H21 H 0.4470 0.7970 0.1504
C20 C 0.2982(3) 0.70613(17) 0.15917(16)
C21 C 0.1677(3) 0.68714(18) 0.19127(18)
H22 H 0.1418 0.7158 0.2340
C22 C 0.0749(3) 0.62597(19) 0.1605(2)
H23 H -0.0112 0.6130 0.1832
C23 C 0.1118(3) 0.58479(19) 0.0961(2)
H24 H 0.0489 0.5447 0.0748
C24 C 0.2418(3) 0.60239(18) 0.06261(18)
H25 H 0.2660 0.5742 0.0193
C25 C 0.3350(3) 0.66238(17) 0.09448(16)
C26 C 0.5088(4) 0.64053(18) 0.00093(18)
H26 H 0.4289 0.6402 -0.0405
H27 H 0.5311 0.5853 0.0160
Ag1C Ag 0.64541(3) 0.624580(14) -0.189793(12)
C3C C 0.7591(3) 0.86821(17) 0.45063(16)
H2C H 0.7544 0.9239 0.4553
loop_
_geom_bond_atom_site_label_1
_geom_bond_atom_site_label_2
_geom_bond_site_symmetry_1
_geom_bond_site_symmetry_2
Ag1 S1 1_555 1_555
Cl1 O4 1_555 1_555
S1 C14 1_555 1_555
S2 Ag1 1_555 1_555
O1 C7 1_555 1_555
O2 C25 1_555 1_555
O3 Ag1 1_555 1_555
O4 Ag1 1_555 1_555
O5 Cl1 1_555 1_555
O6 Cl1 1_555 1_555
O7 Cl1 1_555 1_555
C1 H1 1_555 1_555
C2 C1 1_555 1_555
C3 C2 1_555 1_555
H2 C3 1_555 1_555
C4 C3 1_555 1_555
H3 C4 1_555 1_555
C5 C4 1_555 1_555
H4 C5 1_555 1_555
C6 C1 1_555 1_555
C7 C6 1_555 1_555
H5 C7 1_555 1_555
H6 C7 1_555 1_555
C8 O1 1_555 1_555
C9 C8 1_555 1_555
H7 C9 1_555 1_555
C10 C9 1_555 1_555
H8 C10 1_555 1_555
C11 C10 1_555 1_555
H9 C11 1_555 1_555
C12 C11 1_555 1_555
H10 C12 1_555 1_555
C13 C8 1_555 1_555
C14 C13 1_555 1_555
H11 C14 1_555 1_555
H12 C14 1_555 1_555
C15 S1 1_555 1_555
H13 C15 1_555 1_555
C16 O3 1_555 1_555
H14 C16 1_555 1_555
H15 C16 1_555 1_555
C17 O3 1_555 1_555
H16 C17 1_555 1_555
H17 C17 1_555 1_555
C18 S2 1_555 1_555
H18 C18 1_555 1_555
H19 C18 1_555 1_555
C19 S2 1_555 1_555
H20 C19 1_555 1_555
H21 C19 1_555 1_555
C20 C19 1_555 1_555
C21 C20 1_555 1_555
H22 C21 1_555 1_555
C22 C21 1_555 1_555
H23 C22 1_555 1_555
C23 C22 1_555 1_555
H24 C23 1_555 1_555
C24 C23 1_555 1_555
H25 C24 1_555 1_555
C25 C20 1_555 1_555
C26 O2 1_555 1_555
H26 C26 1_555 1_555
H27 C26 1_555 1_555
Ag1C C3 1_555 1_555
C3C Ag1 1_555 1_555
H2C C3C 1_555 1_555
C2 C26 1_555 1_555
C5 C6 1_555 1_555
C12 C13 1_555 1_555
C15 C16 1_555 1_555
C17 C18 1_555 1_555
C24 C25 1_555 1_555

#END
