
#######################################################################
#
#                 Cambridge Crystallographic Data Centre
#                                CCDC 
#
#######################################################################
#
# If this CIF has been generated from an entry in the Cambridge 
# Structural Database, then it will include bibliographic, chemical, 
# crystal, experimental, refinement or atomic coordinate data resulting 
# from the CCDC's data processing and validation procedures.
#
#######################################################################

data_UJUWAY
_symmetry_cell_setting           monoclinic
_symmetry_space_group_name_H-M   'P 21/c'
_symmetry_Int_Tables_number      14
_space_group_name_Hall           '-P 2ybc'
loop_
_symmetry_equiv_pos_site_id
_symmetry_equiv_pos_as_xyz
1 x,y,z
2 -x,1/2+y,1/2-z
3 -x,-y,-z
4 x,1/2-y,1/2+z
_cell_length_a                   11.1076(3)
_cell_length_b                   14.0306(5)
_cell_length_c                   19.8652(6)
_cell_angle_alpha                90
_cell_angle_beta                 100.7290(10)
_cell_angle_gamma                90
_cell_volume                     3041.8
loop_
_atom_site_label
_atom_site_type_symbol
_atom_site_fract_x
_atom_site_fract_y
_atom_site_fract_z
Ag1 Ag 0.529078(13) 0.015927(13) 0.249290(8)
Ag2 Ag 0.312706(16) 0.256863(13) 0.135624(9)
S1 S 0.51964(5) -0.12215(4) 0.33556(2)
S2 S 0.36083(4) 0.08107(4) 0.15402(2)
O1 O 0.63611(13) 0.09341(11) 0.38441(7)
O2 O 0.30933(14) -0.12515(12) 0.20569(8)
O3 O 0.62619(13) -0.01252(11) 0.13202(7)
N1 N 0.73425(15) 0.06214(13) 0.26233(8)
C1 C 0.80390(19) 0.02448(17) 0.22064(11)
C2 C 0.9277(2) 0.0459(2) 0.22708(12)
H1 H 0.9747 0.0185 0.1967
C3 C 0.9819(2) 0.1076(2) 0.27815(13)
H2 H 1.0663 0.1233 0.2833
C4 C 0.9108(2) 0.1459(2) 0.32159(12)
H3 H 0.9458 0.1881 0.3573
C5 C 0.78737(19) 0.12187(17) 0.31230(10)
C6 C 0.7058(2) 0.16459(16) 0.35677(11)
H4 H 0.7566 0.2000 0.3949
H5 H 0.6490 0.2105 0.3294
C7 C 0.69498(19) 0.03907(16) 0.43829(10)
C8 C 0.8119(2) 0.05761(18) 0.47578(11)
H6 H 0.8580 0.1102 0.4643
C9 C 0.8599(2) -0.0018(2) 0.53009(12)
H7 H 0.9393 0.0106 0.5558
C10 C 0.7941(2) -0.07857(19) 0.54731(11)
H8 H 0.8278 -0.1187 0.5846
C11 C 0.6780(2) -0.09640(17) 0.50943(11)
H9 H 0.6326 -0.1494 0.5210
C12 C 0.62727(19) -0.03834(16) 0.45522(10)
C13 C 0.50228(18) -0.05938(16) 0.41432(10)
H10 H 0.4566 0.0008 0.4027
H11 H 0.4557 -0.0995 0.4415
C14 C 0.3763(2) -0.18817(17) 0.31599(11)
H12 H 0.3906 -0.2484 0.2927
H13 H 0.3498 -0.2048 0.3594
C15 C 0.2747(2) -0.13317(18) 0.27093(11)
H14 H 0.1959 -0.1676 0.2669
H15 H 0.2655 -0.0692 0.2904
C16 C 0.2185(2) -0.08363(17) 0.15452(11)
H16 H 0.1373 -0.1087 0.1595
H17 H 0.2334 -0.1034 0.1089
C17 C 0.21521(19) 0.02459(17) 0.15736(12)
H18 H 0.1886 0.0441 0.2002
H19 H 0.1533 0.0481 0.1185
C18 C 0.39342(18) 0.03742(16) 0.07269(10)
H20 H 0.4109 -0.0318 0.0759
H21 H 0.3214 0.0478 0.0358
C19 C 0.50200(18) 0.08997(16) 0.05658(10)
C20 C 0.4867(2) 0.16425(17) 0.00971(11)
H22 H 0.4064 0.1829 -0.0117
C21 C 0.5875(2) 0.21179(17) -0.00638(11)
H23 H 0.5761 0.2629 -0.0383
C22 C 0.7046(2) 0.18424(18) 0.02449(11)
H24 H 0.7735 0.2169 0.0137
C23 C 0.72227(19) 0.10943(18) 0.07093(11)
H25 H 0.8028 0.0901 0.0913
C24 C 0.62103(18) 0.06292(16) 0.08735(10)
C25 C 0.74385(19) -0.04457(17) 0.16640(11)
H26 H 0.7976 -0.0536 0.1323
H27 H 0.7347 -0.1071 0.1880
O4 O 0.11943(19) 0.33047(19) 0.11153(11)
H28 H 0.0932 0.3217 0.0679
C26 C 0.0238(3) 0.3065(3) 0.14680(18)
H29 H -0.0488 0.3450 0.1291
H30 H 0.0504 0.3192 0.1958
H31 H 0.0037 0.2388 0.1399
Ag2A Ag 0.687294(16) -0.243137(13) 0.364376(9)
S1A S 0.48036(5) 0.37785(4) 0.16444(2)
B1 B 0.3399(2) 0.2005(2) 0.30823(12)
F1 F 0.44246(14) 0.22979(15) 0.28251(9)
F2 F 0.23660(13) 0.22953(12) 0.26107(8)
F3 F 0.33965(16) 0.10160(11) 0.31193(8)
F4 F 0.34012(19) 0.23968(12) 0.37101(8)
B2 B 0.0552(3) 0.1704(3) -0.01739(19)
F5 F -0.00245(17) 0.25876(15) -0.01858(10)
F6 F 0.17615(15) 0.18062(15) 0.01406(9)
F7 F 0.0490(2) 0.1380(3) -0.08205(13)
F8 F -0.0021(2) 0.1123(2) 0.02404(19)
loop_
_geom_bond_atom_site_label_1
_geom_bond_atom_site_label_2
_geom_bond_site_symmetry_1
_geom_bond_site_symmetry_2
Ag1 S1 1_555 1_555
Ag2 S2 1_555 1_555
S1 C13 1_555 1_555
S2 Ag1 1_555 1_555
O1 C6 1_555 1_555
O2 C15 1_555 1_555
O3 C24 1_555 1_555
N1 Ag1 1_555 1_555
C1 N1 1_555 1_555
C2 C1 1_555 1_555
H1 C2 1_555 1_555
C3 C2 1_555 1_555
H2 C3 1_555 1_555
C4 C3 1_555 1_555
H3 C4 1_555 1_555
C5 N1 1_555 1_555
C6 C5 1_555 1_555
H4 C6 1_555 1_555
H5 C6 1_555 1_555
C7 O1 1_555 1_555
C8 C7 1_555 1_555
H6 C8 1_555 1_555
C9 C8 1_555 1_555
H7 C9 1_555 1_555
C10 C9 1_555 1_555
H8 C10 1_555 1_555
C11 C10 1_555 1_555
H9 C11 1_555 1_555
C12 C7 1_555 1_555
C13 C12 1_555 1_555
H10 C13 1_555 1_555
H11 C13 1_555 1_555
C14 S1 1_555 1_555
H12 C14 1_555 1_555
H13 C14 1_555 1_555
C15 C14 1_555 1_555
H14 C15 1_555 1_555
H15 C15 1_555 1_555
C16 O2 1_555 1_555
H16 C16 1_555 1_555
H17 C16 1_555 1_555
C17 S2 1_555 1_555
H18 C17 1_555 1_555
H19 C17 1_555 1_555
C18 S2 1_555 1_555
H20 C18 1_555 1_555
H21 C18 1_555 1_555
C19 C18 1_555 1_555
C20 C19 1_555 1_555
H22 C20 1_555 1_555
C21 C20 1_555 1_555
H23 C21 1_555 1_555
C22 C21 1_555 1_555
H24 C22 1_555 1_555
C23 C22 1_555 1_555
H25 C23 1_555 1_555
C24 C19 1_555 1_555
C25 O3 1_555 1_555
H26 C25 1_555 1_555
H27 C25 1_555 1_555
O4 Ag2 1_555 1_555
H28 O4 1_555 1_555
C26 O4 1_555 1_555
H29 C26 1_555 1_555
H30 C26 1_555 1_555
H31 C26 1_555 1_555
B1 F1 1_555 1_555
F2 B1 1_555 1_555
F3 B1 1_555 1_555
F4 B1 1_555 1_555
B2 F5 1_555 1_555
F6 B2 1_555 1_555
F7 B2 1_555 1_555
F8 B2 1_555 1_555
Ag2A S1 1_555 1_555
S1A Ag2 1_555 1_555
C1 C25 1_555 1_555
C4 C5 1_555 1_555
C11 C12 1_555 1_555
C16 C17 1_555 1_555
C23 C24 1_555 1_555

#END
