
#######################################################################
#
#                 Cambridge Crystallographic Data Centre
#                                CCDC 
#
#######################################################################
#
# If this CIF has been generated from an entry in the Cambridge 
# Structural Database, then it will include bibliographic, chemical, 
# crystal, experimental, refinement or atomic coordinate data resulting 
# from the CCDC's data processing and validation procedures.
#
#######################################################################

data_UJUWUS
_symmetry_cell_setting           triclinic
_symmetry_space_group_name_H-M   'P -1'
_symmetry_Int_Tables_number      2
_space_group_name_Hall           '-P 1'
loop_
_symmetry_equiv_pos_site_id
_symmetry_equiv_pos_as_xyz
1 x,y,z
2 -x,-y,-z
_cell_length_a                   13.5704(14)
_cell_length_b                   15.2959(18)
_cell_length_c                   18.728(2)
_cell_angle_alpha                70.101(6)
_cell_angle_beta                 69.167(6)
_cell_angle_gamma                65.368(6)
_cell_volume                     3217.07
loop_
_atom_site_label
_atom_site_type_symbol
_atom_site_fract_x
_atom_site_fract_y
_atom_site_fract_z
I1 I 1.16114(10) 0.22213(8) 0.12782(6)
I2 I 1.01011(11) 0.24964(9) 0.38023(7)
I3 I 1.37333(9) 0.07014(8) 0.29931(7)
I4 I 1.25249(10) 0.39779(9) 0.22519(7)
Cu1 Cu 1.09358(17) 0.33516(15) 0.23266(12)
Cu2 Cu 1.16578(17) 0.13845(15) 0.27806(12)
Cu3 Cu 1.2256(2) 0.23589(18) 0.33854(16)
Cu4 Cu 1.31198(18) 0.22815(16) 0.18658(13)
S1 S 0.9390(3) 0.4663(3) 0.2019(2)
S2 S 0.5245(4) 0.7743(3) -0.0912(3)
S3 S 1.1253(3) -0.0029(3) 0.3086(2)
S4 S 0.7698(6) -0.2387(5) 0.5368(4)
O1 O 0.8652(11) 0.6996(10) 0.0975(8)
O2 O 0.6399(15) 0.4413(17) 0.2520(10)
O3 O 0.5515(16) 0.5929(14) 0.1167(10)
O4 O 0.4075(10) 0.9148(12) 0.0763(7)
O5 O 1.1915(12) -0.2247(9) 0.4098(8)
O6 O 0.8514(16) -0.0217(14) 0.2992(15)
O7 O 0.653(2) -0.0623(17) 0.4045(13)
O8 O 0.9018(12) -0.4013(13) 0.4119(9)
C1 C 0.5944(14) 0.8515(12) 0.1326(11)
H1 H 0.5994 0.8817 0.0785
C2 C 0.4927(15) 0.8568(14) 0.1830(10)
C3 C 0.4867(18) 0.8125(14) 0.2624(11)
H2 H 0.4156 0.8168 0.2981
C4 C 0.581(2) 0.7631(15) 0.2896(12)
H3 H 0.5764 0.7333 0.3437
C5 C 0.6812(17) 0.7581(15) 0.2363(11)
H4 H 0.7476 0.7218 0.2542
C6 C 0.6914(16) 0.8025(13) 0.1587(12)
C7 C 0.8070(15) 0.7982(13) 0.1047(12)
H5 H 0.8003 0.8427 0.0526
H6 H 0.8473 0.8191 0.1272
C8 C 0.9777(17) 0.6735(14) 0.0660(10)
C9 C 1.0402(19) 0.7362(17) 0.0380(13)
H7 H 1.0043 0.8046 0.0374
C10 C 1.1498(19) 0.6995(18) 0.0121(14)
H8 H 1.1927 0.7417 -0.0037
C11 C 1.203(2) 0.603(2) 0.0075(16)
H9 H 1.2813 0.5817 -0.0169
C12 C 1.1474(18) 0.5378(17) 0.0370(13)
H10 H 1.1870 0.4697 0.0378
C13 C 1.0315(17) 0.5712(14) 0.0662(11)
C14 C 0.9686(18) 0.5036(14) 0.0955(10)
H11 H 1.0123 0.4447 0.0729
H12 H 0.8974 0.5363 0.0791
C15 C 0.8330(16) 0.4126(17) 0.2250(14)
H13 H 0.8586 0.3661 0.1909
H14 H 0.8244 0.3741 0.2799
C16 C 0.7178(16) 0.4883(19) 0.2148(13)
H15 H 0.6986 0.5443 0.2382
H16 H 0.7193 0.5143 0.1584
C17 C 0.530(2) 0.498(3) 0.2444(16)
H17 H 0.5092 0.5610 0.2591
H18 H 0.4796 0.4627 0.2840
C18 C 0.504(2) 0.522(2) 0.1716(17)
H19 H 0.5342 0.4616 0.1512
H20 H 0.4221 0.5484 0.1790
C19 C 0.507(2) 0.639(2) 0.0485(14)
H21 H 0.4258 0.6747 0.0637
H22 H 0.5198 0.5887 0.0211
C20 C 0.5691(19) 0.7112(17) -0.0049(15)
H23 H 0.6504 0.6742 -0.0185
H24 H 0.5570 0.7597 0.0240
C21 C 0.4651(15) 0.9008(14) -0.0796(11)
H25 H 0.5111 0.9112 -0.0545
H26 H 0.4675 0.9464 -0.1320
C22 C 0.3450(14) 0.9251(12) -0.0303(10)
C23 C 0.2621(15) 0.9403(14) -0.0598(11)
H27 H 0.2794 0.9337 -0.1119
C24 C 0.1497(17) 0.9658(17) -0.0167(13)
H28 H 0.0925 0.9760 -0.0396
C25 C 0.1226(16) 0.9761(17) 0.0596(12)
H29 H 0.0472 0.9903 0.0900
C26 C 0.2074(14) 0.9653(15) 0.0914(11)
H30 H 0.1895 0.9786 0.1413
C27 C 0.3173(14) 0.9350(14) 0.0489(10)
C28 C 0.3867(15) 0.9129(15) 0.1564(10)
H31 H 0.3297 0.8811 0.1885
H32 H 0.3572 0.9813 0.1636
C29 C 1.1078(14) -0.3697(13) 0.3674(10)
H33 H 1.0791 -0.3924 0.4219
C30 C 1.0603(17) -0.3752(13) 0.3155(11)
C31 C 1.106(2) -0.3348(15) 0.2334(12)
H34 H 1.0752 -0.3341 0.1946
C32 C 1.191(3) -0.2981(18) 0.2110(15)
H35 H 1.2192 -0.2728 0.1570
C33 C 1.235(2) -0.2975(16) 0.2655(13)
H36 H 1.2943 -0.2721 0.2492
C34 C 1.1935(18) -0.3335(13) 0.3451(13)
C35 C 1.2407(17) -0.3260(13) 0.4039(11)
H37 H 1.2211 -0.3700 0.4554
H38 H 1.3233 -0.3450 0.3857
C36 C 1.2325(15) -0.1930(13) 0.4492(10)
C37 C 1.317(2) -0.2519(16) 0.4860(14)
H39 H 1.3528 -0.3197 0.4843
C38 C 1.352(2) -0.2101(19) 0.5267(15)
H40 H 1.4101 -0.2499 0.5527
C39 C 1.299(2) -0.1106(18) 0.5279(12)
H41 H 1.3211 -0.0823 0.5552
C40 C 1.216(2) -0.0531(16) 0.4899(11)
H42 H 1.1819 0.0153 0.4896
C41 C 1.1803(15) -0.0940(13) 0.4518(9)
C42 C 1.0832(15) -0.0344(13) 0.4151(9)
H43 H 1.0416 0.0272 0.4343
H44 H 1.0317 -0.0723 0.4320
C43 C 0.9903(16) 0.0351(15) 0.2913(12)
H45 H 0.9327 0.0707 0.3315
H46 H 0.9888 0.0812 0.2393
C44 C 0.9626(17) -0.0529(16) 0.2940(13)
H47 H 1.0064 -0.0784 0.2459
H48 H 0.9813 -0.1065 0.3400
C45 C 0.813(2) -0.094(2) 0.2964(18)
H49 H 0.8426 -0.1574 0.3323
H50 H 0.8382 -0.1041 0.2426
C46 C 0.687(2) -0.0530(19) 0.3220(14)
H51 H 0.6599 0.0174 0.2951
H52 H 0.6543 -0.0897 0.3076
C47 C 0.615(3) -0.142(2) 0.4461(13)
H53 H 0.6600 -0.1979 0.4196
H54 H 0.5361 -0.1232 0.4457
C48 C 0.625(2) -0.177(2) 0.5327(17)
H55 H 0.5819 -0.2226 0.5631
H56 H 0.5916 -0.1191 0.5566
C49 C 0.782(2) -0.3687(17) 0.5608(13)
H57 H 0.8613 -0.4094 0.5581
H58 H 0.7392 -0.3850 0.6159
C50 C 0.7414(16) -0.3995(12) 0.5105(10)
C51 C 0.6397(18) -0.4135(14) 0.5382(11)
H59 H 0.5945 -0.4010 0.5880
C52 C 0.6012(17) -0.4450(15) 0.4962(11)
H60 H 0.5282 -0.4495 0.5152
C53 C 0.6673(17) -0.4693(14) 0.4282(11)
H61 H 0.6428 -0.4959 0.4013
C54 C 0.7675(17) -0.4566(14) 0.3972(10)
H62 H 0.8116 -0.4730 0.3483
C55 C 0.8094(16) -0.4188(14) 0.4366(11)
C56 C 0.9729(16) -0.4172(17) 0.3375(12)
H63 H 0.9286 -0.3862 0.2978
H64 H 1.0068 -0.4889 0.3396
Cu3A Cu 0.7744(2) -0.23589(18) 0.66146(16)
Cu4A Cu 0.68802(18) 0.77185(16) -0.18658(13)
S2A S 1.4755(4) 0.2257(3) 0.0912(3)
S4A S 1.2302(6) 0.2387(5) 0.4632(4)
C57 C 0.704(3) 0.207(3) 0.2732(18)
Cl1 Cl 0.5669(8) 0.2329(9) 0.2692(8)
Cl2 Cl 0.7868(10) 0.2162(9) 0.1719(5)
C58? C 0.697(9) -0.166(7) 0.501(6)
H65? H 0.6380 -0.1928 0.4162
H66? H 0.5344 -0.1239 0.4730
H67? H 0.6819 -0.1035 0.5142
H68? H 0.7750 -0.1854 0.4686
H69? H 0.8559 -0.3619 0.5320
H70? H 0.7903 -0.4208 0.6093
S5? S 0.6873(13) -0.2551(12) 0.5863(8)
loop_
_geom_bond_atom_site_label_1
_geom_bond_atom_site_label_2
_geom_bond_site_symmetry_1
_geom_bond_site_symmetry_2
I1 Cu1 1_555 1_555
I2 Cu1 1_555 1_555
I3 Cu2 1_555 1_555
I4 Cu1 1_555 1_555
Cu1 S1 1_555 1_555
Cu2 I1 1_555 1_555
Cu3 I2 1_555 1_555
Cu4 I1 1_555 1_555
S1 C14 1_555 1_555
S2 C20 1_555 1_555
S3 Cu2 1_555 1_555
S4 C48 1_555 1_555
O1 C7 1_555 1_555
O2 C16 1_555 1_555
O3 C18 1_555 1_555
O4 C27 1_555 1_555
O5 C35 1_555 1_555
O6 C44 1_555 1_555
O7 C46 1_555 1_555
O8 C55 1_555 1_555
C1 H1 1_555 1_555
C2 C1 1_555 1_555
C3 C2 1_555 1_555
H2 C3 1_555 1_555
C4 C3 1_555 1_555
H3 C4 1_555 1_555
C5 C4 1_555 1_555
H4 C5 1_555 1_555
C6 C1 1_555 1_555
C7 C6 1_555 1_555
H5 C7 1_555 1_555
H6 C7 1_555 1_555
C8 O1 1_555 1_555
C9 C8 1_555 1_555
H7 C9 1_555 1_555
C10 C9 1_555 1_555
H8 C10 1_555 1_555
C11 C10 1_555 1_555
H9 C11 1_555 1_555
C12 C11 1_555 1_555
H10 C12 1_555 1_555
C13 C8 1_555 1_555
C14 C13 1_555 1_555
H11 C14 1_555 1_555
H12 C14 1_555 1_555
C15 S1 1_555 1_555
H13 C15 1_555 1_555
H14 C15 1_555 1_555
C16 C15 1_555 1_555
H15 C16 1_555 1_555
H16 C16 1_555 1_555
C17 O2 1_555 1_555
H17 C17 1_555 1_555
H18 C17 1_555 1_555
C18 C17 1_555 1_555
H19 C18 1_555 1_555
H20 C18 1_555 1_555
C19 O3 1_555 1_555
H21 C19 1_555 1_555
H22 C19 1_555 1_555
C20 C19 1_555 1_555
H23 C20 1_555 1_555
H24 C20 1_555 1_555
C21 S2 1_555 1_555
H25 C21 1_555 1_555
H26 C21 1_555 1_555
C22 C21 1_555 1_555
C23 C22 1_555 1_555
H27 C23 1_555 1_555
C24 C23 1_555 1_555
H28 C24 1_555 1_555
C25 C24 1_555 1_555
H29 C25 1_555 1_555
C26 C25 1_555 1_555
H30 C26 1_555 1_555
C27 C22 1_555 1_555
C28 O4 1_555 1_555
H31 C28 1_555 1_555
H32 C28 1_555 1_555
C29 H33 1_555 1_555
C30 C29 1_555 1_555
C31 C30 1_555 1_555
H34 C31 1_555 1_555
C32 C31 1_555 1_555
H35 C32 1_555 1_555
C33 C32 1_555 1_555
H36 C33 1_555 1_555
C34 C29 1_555 1_555
C35 C34 1_555 1_555
H37 C35 1_555 1_555
H38 C35 1_555 1_555
C36 O5 1_555 1_555
C37 C36 1_555 1_555
H39 C37 1_555 1_555
C38 C37 1_555 1_555
H40 C38 1_555 1_555
C39 C38 1_555 1_555
H41 C39 1_555 1_555
C40 C39 1_555 1_555
H42 C40 1_555 1_555
C41 C36 1_555 1_555
C42 S3 1_555 1_555
H43 C42 1_555 1_555
H44 C42 1_555 1_555
C43 S3 1_555 1_555
H45 C43 1_555 1_555
H46 C43 1_555 1_555
C44 C43 1_555 1_555
H47 C44 1_555 1_555
H48 C44 1_555 1_555
C45 O6 1_555 1_555
H49 C45 1_555 1_555
H50 C45 1_555 1_555
C46 C45 1_555 1_555
H51 C46 1_555 1_555
H52 C46 1_555 1_555
C47 O7 1_555 1_555
H53 C47 1_555 1_555
H54 C47 1_555 1_555
C48 C47 1_555 1_555
H55 C48 1_555 1_555
H56 C48 1_555 1_555
C49 S4 1_555 1_555
H57 C49 1_555 1_555
H58 C49 1_555 1_555
C50 C49 1_555 1_555
C51 C50 1_555 1_555
H59 C51 1_555 1_555
C52 C51 1_555 1_555
H60 C52 1_555 1_555
C53 C52 1_555 1_555
H61 C53 1_555 1_555
C54 C53 1_555 1_555
H62 C54 1_555 1_555
C55 C50 1_555 1_555
C56 O8 1_555 1_555
H63 C56 1_555 1_555
H64 C56 1_555 1_555
C57 Cl1 1_555 1_555
Cl2 C57 1_555 1_555
Cu3A S4 1_555 1_555
Cu4A S2 1_555 1_555
S2A Cu4 1_555 1_555
S4A Cu3 1_555 1_555
I2 Cu2 1_555 1_555
I3 Cu3 1_555 1_555
I3 Cu4 1_555 1_555
I4 Cu3 1_555 1_555
I4 Cu4 1_555 1_555
C2 C28 1_555 1_555
C5 C6 1_555 1_555
C12 C13 1_555 1_555
C26 C27 1_555 1_555
C30 C56 1_555 1_555
C33 C34 1_555 1_555
C40 C41 1_555 1_555
C41 C42 1_555 1_555
C54 C55 1_555 1_555

#END
