
#######################################################################
#
#                 Cambridge Crystallographic Data Centre
#                                CCDC 
#
#######################################################################
#
# If this CIF has been generated from an entry in the Cambridge 
# Structural Database, then it will include bibliographic, chemical, 
# crystal, experimental, refinement or atomic coordinate data resulting 
# from the CCDC's data processing and validation procedures.
#
#######################################################################

data_UJUXOM
_symmetry_cell_setting           monoclinic
_symmetry_space_group_name_H-M   'P 21/c'
_symmetry_Int_Tables_number      14
_space_group_name_Hall           '-P 2ybc'
loop_
_symmetry_equiv_pos_site_id
_symmetry_equiv_pos_as_xyz
1 x,y,z
2 x,1/2-y,1/2+z
3 -x,-y,-z
4 -x,1/2+y,1/2-z
_cell_length_a                   13.717(3)
_cell_length_b                   8.9401(18)
_cell_length_c                   16.635(3)
_cell_angle_alpha                90
_cell_angle_beta                 93.60(3)
_cell_angle_gamma                90
_cell_volume                     2035.95
loop_
_atom_site_label
_atom_site_type_symbol
_atom_site_fract_x
_atom_site_fract_y
_atom_site_fract_z
Ag1 Ag 0.63912(4) 0.32627(6) 0.56640(3)
Ag2 Ag 0.90361(4) 0.61652(6) 0.30017(3)
N1 N 0.6852(4) 0.3797(6) 0.4434(3)
H1 H 0.7453 0.3417 0.4386
H2 H 0.6444 0.3326 0.4072
N2 N 0.4941(5) 0.8413(7) 0.4428(4)
H3 H 0.4791 0.9209 0.4114
H4 H 0.5020 0.8743 0.4940
N3 N 0.8017(5) 0.8045(6) 0.3606(4)
H5 H 0.8327 0.8929 0.3576
H6 H 0.7461 0.8118 0.3292
N4 N 0.8200(4) -0.0579(6) 0.6859(3)
H7 H 0.8527 -0.0938 0.6448
H8 H 0.7622 -0.1056 0.6849
N5 N 0.9680(4) 0.4191(7) 0.6154(4)
H9 H 0.9574 0.5182 0.6109
H10 H 0.9825 0.3853 0.5666
N6 N 0.6597(5) 0.3856(7) 0.6972(4)
H11 H 0.6537 0.4856 0.7010
H12 H 0.6096 0.3452 0.7220
C1 C 0.6872(5) 0.5410(7) 0.4221(4)
H13 H 0.6953 0.5505 0.3642
C2 C 0.5921(5) 0.6132(7) 0.4412(5)
H14 H 0.5830 0.6021 0.4982
H15 H 0.5386 0.5620 0.4117
C3 C 0.5888(5) 0.7792(7) 0.4194(4)
H16 H 0.5920 0.7891 0.3609
C4 C 0.6768(6) 0.8606(7) 0.4611(5)
H17 H 0.6778 0.9631 0.4420
H18 H 0.6692 0.8631 0.5187
C5 C 0.7737(5) 0.7862(8) 0.4456(4)
H19 H 0.8245 0.8339 0.4809
C6 C 0.7711(5) 0.6198(8) 0.4677(4)
H20 H 0.8322 0.5731 0.4553
H21 H 0.7642 0.6096 0.5252
C7 C 0.8011(5) 0.1028(7) 0.6712(4)
H22 H 0.7519 0.1134 0.6262
C8 C 0.8935(5) 0.1810(7) 0.6500(4)
H23 H 0.9168 0.1372 0.6014
H24 H 0.9435 0.1668 0.6932
C9 C 0.8759(5) 0.3471(7) 0.6369(4)
H25 H 0.8267 0.3602 0.5922
C10 C 0.8391(5) 0.4197(8) 0.7115(4)
H26 H 0.8225 0.5230 0.6991
H27 H 0.8915 0.4201 0.7534
C11 C 0.7502(5) 0.3431(8) 0.7440(4)
H28 H 0.7446 0.3776 0.7994
C12 C 0.7618(5) 0.1720(7) 0.7464(4)
H29 H 0.8055 0.1459 0.7924
H30 H 0.6987 0.1277 0.7548
N2B N 0.5059(5) 0.1587(7) 0.5572(4)
N4A N 0.8200(4) 0.5579(6) 0.1859(3)
N5B N 1.0320(4) 0.5809(7) 0.3846(4)
Ag1B Ag 0.36088(4) 0.67373(6) 0.43360(3)
Ag2A Ag 0.90361(4) -0.11652(6) 0.80017(3)
Ag2B Ag 1.09639(4) 0.38348(6) 0.69983(3)
H3B H 0.5209 0.0791 0.5886
H4B H 0.4980 0.1257 0.5060
H7A H 0.8527 0.5938 0.1448
H8A H 0.7622 0.6056 0.1849
H9B H 1.0426 0.4818 0.3891
H10B H 1.0175 0.6147 0.4334
O1 O 0.9041(7) 0.3035(11) 0.4440(5)
O2 O 1.0367(7) 0.2372(11) 0.4057(8)
O3 O 0.9316(10) 0.0749(10) 0.4067(8)
N7 N 0.9514(5) 0.2005(7) 0.4199(4)
O4 O 0.4964(8) 0.6667(15) 0.7051(8)
O5 O 0.5201(17) 0.8508(18) 0.6384(9)
O6 O 0.6408(6) 0.7329(11) 0.6965(7)
N8 N 0.5533(7) 0.7615(9) 0.6787(4)
loop_
_geom_bond_atom_site_label_1
_geom_bond_atom_site_label_2
_geom_bond_site_symmetry_1
_geom_bond_site_symmetry_2
Ag1 N1 1_555 1_555
Ag2 N3 1_555 1_555
O1 N7 1_555 1_555
O2 N7 1_555 1_555
O3 N7 1_555 1_555
O4 N8 1_555 1_555
O5 N8 1_555 1_555
O6 N8 1_555 1_555
N1 H1 1_555 1_555
H2 N1 1_555 1_555
N2 H3 1_555 1_555
H4 N2 1_555 1_555
N3 H5 1_555 1_555
H6 N3 1_555 1_555
N4 H7 1_555 1_555
H8 N4 1_555 1_555
N5 H9 1_555 1_555
H10 N5 1_555 1_555
N6 Ag1 1_555 1_555
H11 N6 1_555 1_555
H12 N6 1_555 1_555
C1 N1 1_555 1_555
H13 C1 1_555 1_555
C2 C1 1_555 1_555
H14 C2 1_555 1_555
H15 C2 1_555 1_555
C3 N2 1_555 1_555
H16 C3 1_555 1_555
C4 C3 1_555 1_555
H17 C4 1_555 1_555
H18 C4 1_555 1_555
C5 N3 1_555 1_555
H19 C5 1_555 1_555
C6 C1 1_555 1_555
H20 C6 1_555 1_555
H21 C6 1_555 1_555
C7 N4 1_555 1_555
H22 C7 1_555 1_555
C8 C7 1_555 1_555
H23 C8 1_555 1_555
H24 C8 1_555 1_555
C9 N5 1_555 1_555
H25 C9 1_555 1_555
C10 C9 1_555 1_555
H26 C10 1_555 1_555
H27 C10 1_555 1_555
C11 N6 1_555 1_555
H28 C11 1_555 1_555
C12 C7 1_555 1_555
H29 C12 1_555 1_555
H30 C12 1_555 1_555
N2B Ag1 1_555 1_555
N4A Ag2 1_555 1_555
N5B Ag2 1_555 1_555
Ag1B N2 1_555 1_555
Ag2A N4 1_555 1_555
Ag2B N5 1_555 1_555
H3B N2B 1_555 1_555
H4B N2B 1_555 1_555
H7A N4A 1_555 1_555
H8A N4A 1_555 1_555
H9B N5B 1_555 1_555
H10B N5B 1_555 1_555
C2 C3 1_555 1_555
C4 C5 1_555 1_555
C5 C6 1_555 1_555
C8 C9 1_555 1_555
C10 C11 1_555 1_555
C11 C12 1_555 1_555

#END
