
#######################################################################
#
#                 Cambridge Crystallographic Data Centre
#                                CCDC 
#
#######################################################################
#
# If this CIF has been generated from an entry in the Cambridge 
# Structural Database, then it will include bibliographic, chemical, 
# crystal, experimental, refinement or atomic coordinate data resulting 
# from the CCDC's data processing and validation procedures.
#
#######################################################################

data_UJUXIG
_symmetry_cell_setting           orthorhombic
_symmetry_space_group_name_H-M   'P b c a'
_symmetry_Int_Tables_number      61
_space_group_name_Hall           '-P 2ac 2ab'
loop_
_symmetry_equiv_pos_site_id
_symmetry_equiv_pos_as_xyz
1 x,y,z
2 1/2+x,y,1/2-z
3 1/2-x,1/2+y,z
4 x,1/2-y,1/2+z
5 -x,-y,-z
6 1/2-x,-y,1/2+z
7 1/2+x,1/2-y,-z
8 -x,1/2+y,1/2-z
_cell_length_a                   12.4470(9)
_cell_length_b                   11.4650(7)
_cell_length_c                   12.4929(9)
_cell_angle_alpha                90
_cell_angle_beta                 90
_cell_angle_gamma                90
_cell_volume                     1782.8
loop_
_atom_site_label
_atom_site_type_symbol
_atom_site_fract_x
_atom_site_fract_y
_atom_site_fract_z
Ag1 Ag 0.12918(4) 0.41298(4) -0.24751(5)
N1 N 0.1944(4) 0.5536(4) -0.3600(4)
H1 H 0.1454 0.5629 -0.4156
C1 C 0.2989(5) 0.5210(6) -0.4075(5)
H2 H 0.3242 0.5841 -0.4554
H3 H 0.2906 0.4492 -0.4507
C2 C 0.3807(5) 0.5006(5) -0.3195(5)
H4 H 0.3557 0.4334 -0.2749
C3 C 0.3895(5) 0.6082(5) -0.2474(6)
H5 H 0.4339 0.5888 -0.1842
H6 H 0.4261 0.6715 -0.2871
C4 C 0.2802(5) 0.6511(5) -0.2101(5)
H7 H 0.2491 0.5928 -0.1593
C5 C 0.2039(5) 0.6663(5) -0.3040(5)
H8 H 0.1325 0.6918 -0.2780
H9 H 0.2319 0.7265 -0.3535
N2 N 0.4882(5) 0.4721(5) -0.3625(5)
H10 H 0.480(5) 0.422(4) -0.413(4)
H11 H 0.510(5) 0.533(4) -0.394(5)
N3 N 0.2934(5) 0.7644(5) -0.1535(5)
H12 H 0.330(4) 0.748(6) -0.097(3)
H13 H 0.230(3) 0.788(5) -0.136(5)
N2A N -0.0118(5) 0.4721(5) -0.1375(5)
N3B N 0.2066(5) 0.2644(5) -0.1535(5)
Ag1A Ag 0.62918(4) 0.41298(4) -0.25249(5)
Ag1B Ag 0.37082(4) 0.91298(4) -0.24751(5)
H10A H -0.020(5) 0.422(4) -0.087(4)
H11A H 0.010(5) 0.533(4) -0.106(5)
H12B H 0.170(4) 0.248(6) -0.097(3)
H13B H 0.270(3) 0.288(5) -0.136(5)
N4 N 0.0175(5) 0.8069(5) -0.0507(4)
O1 O -0.0822(4) 0.8157(4) -0.0429(4)
O2 O 0.0646(4) 0.7160(4) -0.0220(5)
O3 O 0.0717(5) 0.8860(5) -0.0878(5)
loop_
_geom_bond_atom_site_label_1
_geom_bond_atom_site_label_2
_geom_bond_site_symmetry_1
_geom_bond_site_symmetry_2
Ag1 N1 1_555 1_555
N1 H1 1_555 1_555
C1 N1 1_555 1_555
H2 C1 1_555 1_555
H3 C1 1_555 1_555
C2 C1 1_555 1_555
H4 C2 1_555 1_555
C3 C2 1_555 1_555
H5 C3 1_555 1_555
H6 C3 1_555 1_555
C4 C3 1_555 1_555
H7 C4 1_555 1_555
C5 N1 1_555 1_555
H8 C5 1_555 1_555
H9 C5 1_555 1_555
N2 C2 1_555 1_555
H10 N2 1_555 1_555
H11 N2 1_555 1_555
N3 C4 1_555 1_555
H12 N3 1_555 1_555
H13 N3 1_555 1_555
N4 O1 1_555 1_555
O2 N4 1_555 1_555
O3 N4 1_555 1_555
N2A Ag1 1_555 1_555
N3B Ag1 1_555 1_555
Ag1A N2 1_555 1_555
Ag1B N3 1_555 1_555
H10A N2A 1_555 1_555
H11A N2A 1_555 1_555
H12B N3B 1_555 1_555
H13B N3B 1_555 1_555
C4 C5 1_555 1_555

#END
