
#######################################################################
#
#                 Cambridge Crystallographic Data Centre
#                                CCDC 
#
#######################################################################
#
# If this CIF has been generated from an entry in the Cambridge 
# Structural Database, then it will include bibliographic, chemical, 
# crystal, experimental, refinement or atomic coordinate data resulting 
# from the CCDC's data processing and validation procedures.
#
#######################################################################

data_UKAMAV
_symmetry_cell_setting           monoclinic
_symmetry_space_group_name_H-M   'P 21/c'
_symmetry_Int_Tables_number      14
_space_group_name_Hall           '-P 2ybc'
loop_
_symmetry_equiv_pos_site_id
_symmetry_equiv_pos_as_xyz
1 x,y,z
2 -x,1/2+y,1/2-z
3 -x,-y,-z
4 x,1/2-y,1/2+z
_cell_length_a                   13.179(12)
_cell_length_b                   8.217(8)
_cell_length_c                   19.94(2)
_cell_angle_alpha                90
_cell_angle_beta                 105.68(2)
_cell_angle_gamma                90
_cell_volume                     2078.98
loop_
_atom_site_label
_atom_site_type_symbol
_atom_site_fract_x
_atom_site_fract_y
_atom_site_fract_z
K1 K -0.08170(5) 0.24788(7) -0.01217(3)
S1 S 0.06123(5) 0.05169(9) -0.09031(4)
P1 P 0.19131(5) 0.16597(9) -0.09742(4)
S2 S 0.14432(5) 0.38672(8) 0.07130(4)
P2 P 0.25892(5) 0.25736(8) 0.04902(4)
N1 N 0.26837(19) 0.2450(3) -0.02868(13)
C1 C 0.3859(2) 0.3370(3) 0.09865(15)
C2 C 0.4652(2) 0.3710(4) 0.06707(17)
H1 H 0.4533 0.3556 0.0194
C3 C 0.5627(3) 0.4282(5) 0.10653(19)
H2 H 0.6156 0.4511 0.0851
C4 C 0.5805(3) 0.4508(5) 0.17734(19)
H3 H 0.6455 0.4896 0.2035
C5 C 0.5022(3) 0.4160(5) 0.20961(17)
H4 H 0.5146 0.4305 0.2574
C6 C 0.4049(2) 0.3592(4) 0.17022(16)
H5 H 0.3523 0.3358 0.1918
C7 C 0.26238(19) 0.0551(3) 0.08746(14)
C8 C 0.3297(2) -0.0618(4) 0.07254(16)
H6 H 0.3683 -0.0377 0.0410
C9 C 0.3399(2) -0.2141(4) 0.10409(18)
H7 H 0.3845 -0.2919 0.0935
C10 C 0.2825(3) -0.2488(4) 0.15171(18)
H8 H 0.2894 -0.3497 0.1736
C11 C 0.2153(2) -0.1336(4) 0.16649(16)
H9 H 0.1765 -0.1582 0.1978
C12 C 0.2051(2) 0.0179(3) 0.13520(15)
H10 H 0.1601 0.0949 0.1459
C13 C 0.3800(3) 0.0910(5) -0.1310(2)
H11 H 0.4112 0.1494 -0.0888
H12 H 0.3687 0.1640 -0.1699
H13 H 0.4264 0.0049 -0.1365
C14 C 0.2749(3) 0.0192(4) -0.12767(19)
H14 H 0.2933 -0.0634 -0.0909
C15 C 0.2231(3) -0.0737(6) -0.1926(3)
H15 H 0.1572 -0.1172 -0.1889
H16 H 0.2682 -0.1611 -0.1985
H17 H 0.2106 -0.0021 -0.2321
C16 C 0.0794(3) 0.2835(6) -0.23001(19)
H18 H 0.1081 0.1931 -0.2493
H19 H 0.0690 0.3736 -0.2618
H20 H 0.0132 0.2527 -0.2224
C17 C 0.1560(2) 0.3331(4) -0.16074(16)
H21 H 0.2212 0.3689 -0.1709
C18 C 0.1144(4) 0.4758(5) -0.1286(2)
H22 H 0.1642 0.5046 -0.0854
H23 H 0.0485 0.4468 -0.1199
H24 H 0.1040 0.5669 -0.1599
K1B K 0.08170(5) -0.24788(7) 0.01217(3)
K1B_2 K 0.08170(5) 0.75212(7) 0.01217(3)
S1B S -0.06123(5) -0.05169(9) 0.09031(4)
S2B S -0.14432(5) 0.61328(8) -0.07130(4)
loop_
_geom_bond_atom_site_label_1
_geom_bond_atom_site_label_2
_geom_bond_site_symmetry_1
_geom_bond_site_symmetry_2
K1 S1 1_555 1_555
S1 P1 1_555 1_555
P1 N1 1_555 1_555
S2 K1 1_555 1_555
P2 S2 1_555 1_555
N1 P2 1_555 1_555
C1 P2 1_555 1_555
C2 C1 1_555 1_555
H1 C2 1_555 1_555
C3 C2 1_555 1_555
H2 C3 1_555 1_555
C4 C3 1_555 1_555
H3 C4 1_555 1_555
C5 C4 1_555 1_555
H4 C5 1_555 1_555
C6 C1 1_555 1_555
H5 C6 1_555 1_555
C7 P2 1_555 1_555
C8 C7 1_555 1_555
H6 C8 1_555 1_555
C9 C8 1_555 1_555
H7 C9 1_555 1_555
C10 C9 1_555 1_555
H8 C10 1_555 1_555
C11 C10 1_555 1_555
H9 C11 1_555 1_555
C12 C7 1_555 1_555
H10 C12 1_555 1_555
C13 H11 1_555 1_555
H12 C13 1_555 1_555
H13 C13 1_555 1_555
C14 P1 1_555 1_555
H14 C14 1_555 1_555
C15 C14 1_555 1_555
H15 C15 1_555 1_555
H16 C15 1_555 1_555
H17 C15 1_555 1_555
C16 H18 1_555 1_555
H19 C16 1_555 1_555
H20 C16 1_555 1_555
C17 P1 1_555 1_555
H21 C17 1_555 1_555
C18 C17 1_555 1_555
H22 C18 1_555 1_555
H23 C18 1_555 1_555
H24 C18 1_555 1_555
K1B S1 1_555 1_555
K1B_2 S2 1_555 1_555
S1B K1 1_555 1_555
S2B K1 1_555 1_555
C5 C6 1_555 1_555
C11 C12 1_555 1_555
C13 C14 1_555 1_555
C16 C17 1_555 1_555
K1B S1B 1_555 1_555
K1B_2 S2B 1_555 1_555

#END
