
#######################################################################
#
#                 Cambridge Crystallographic Data Centre
#                                CCDC 
#
#######################################################################
#
# If this CIF has been generated from an entry in the Cambridge 
# Structural Database, then it will include bibliographic, chemical, 
# crystal, experimental, refinement or atomic coordinate data resulting 
# from the CCDC's data processing and validation procedures.
#
#######################################################################

data_UKAZEM
_symmetry_cell_setting           orthorhombic
_symmetry_space_group_name_H-M   'P 21 21 21'
_symmetry_Int_Tables_number      19
_space_group_name_Hall           'P 2ac 2ab'
loop_
_symmetry_equiv_pos_site_id
_symmetry_equiv_pos_as_xyz
1 x,y,z
2 1/2-x,-y,1/2+z
3 -x,1/2+y,1/2-z
4 1/2+x,1/2-y,-z
_cell_length_a                   16.963(3)
_cell_length_b                   18.283(3)
_cell_length_c                   18.373(3)
_cell_angle_alpha                90
_cell_angle_beta                 90
_cell_angle_gamma                90
_cell_volume                     5698.1
loop_
_atom_site_label
_atom_site_type_symbol
_atom_site_fract_x
_atom_site_fract_y
_atom_site_fract_z
Cu1 Cu 0.63589(10) 0.70162(9) 0.94345(10)
Cu2 Cu 0.70096(9) 0.55640(10) 0.86594(9)
Cu3 Cu 0.55242(10) 0.64719(9) 0.79333(10)
Mn1 Mn 0.89610(11) 0.59293(10) 1.11003(11)
Cl1 Cl 0.7054(2) 0.6978(2) 0.8204(2)
C1 C 0.7553(9) 0.6728(9) 1.0351(9)
C2 C 0.7254(7) 0.5933(7) 1.0092(8)
C3 C 0.7965(7) 0.5467(8) 0.9770(10)
O1 O 0.8089(6) 0.6746(5) 1.0793(5)
O2 O 0.7204(6) 0.7257(5) 1.0075(6)
O3 O 0.6926(5) 0.5562(5) 1.0729(5)
O4 O 0.6690(5) 0.5991(4) 0.9569(5)
O5 O 0.8494(5) 0.5300(4) 1.0236(5)
O6 O 0.7940(6) 0.5288(6) 0.9147(5)
C4 C 0.6814(8) 0.4833(8) 0.7384(10)
C5 C 0.5948(8) 0.5037(8) 0.7643(8)
C6 C 0.5481(8) 0.5325(9) 0.6989(8)
O7 O 0.6913(5) 0.4494(5) 0.6825(5)
O8 O 0.7364(6) 0.5013(6) 0.7829(5)
O9 O 0.5593(5) 0.4419(5) 0.7916(5)
O10 O 0.5999(5) 0.5549(5) 0.8177(5)
O11 O 0.5305(5) 0.4929(5) 0.6494(5)
O12 O 0.5298(5) 0.6009(6) 0.7026(5)
C7 C 0.4733(9) 0.7725(9) 0.8178(8)
C8 C 0.4859(9) 0.7432(8) 0.8937(8)
C9 C 0.5198(10) 0.8036(9) 0.9435(7)
O13 O 0.4367(5) 0.8307(5) 0.8095(5)
O14 O 0.4987(6) 0.7361(5) 0.7663(5)
O15 O 0.4137(5) 0.7159(5) 0.9194(5)
O16 O 0.5398(5) 0.6837(4) 0.8903(4)
O17 O 0.4798(5) 0.8580(6) 0.9566(5)
O18 O 0.5861(6) 0.7917(5) 0.9695(6)
Mn1A Mn 0.60390(11) 0.40707(10) 0.61003(11)
Mn1C Mn 0.39610(11) 0.90707(10) 0.88997(11)
O7A O 0.8087(5) 0.5506(5) 1.1825(5)
O11A O 0.9695(5) 0.5071(5) 1.1494(5)
O13C O 0.9367(5) 0.6693(5) 1.1905(5)
O17C O 0.9798(5) 0.6420(6) 1.0434(5)
P1 P 1.1559(3) 0.3321(2) 0.8213(3)
C10 C 1.0970(7) 0.3628(7) 0.8931(6)
C11 C 1.1002(7) 0.3282(6) 0.9604(7)
H1 H 1.1351 0.2889 0.9677
C12 C 1.0519(8) 0.3517(8) 1.0169(6)
H2 H 1.0542 0.3283 1.0624
C13 C 1.0004(7) 0.4098(7) 1.0061(7)
H3 H 0.9677 0.4257 1.0443
C14 C 0.9971(7) 0.4444(6) 0.9388(8)
H4 H 0.9623 0.4837 0.9314
C15 C 1.0454(8) 0.4209(7) 0.8823(6)
H5 H 1.0432 0.4443 0.8368
C16 C 1.0928(7) 0.3124(6) 0.7463(6)
C17 C 1.0120(8) 0.3060(7) 0.7575(6)
H6 H 0.9911 0.3113 0.8046
C18 C 0.9623(6) 0.2919(7) 0.6991(9)
H7 H 0.9077 0.2875 0.7066
C19 C 0.9933(9) 0.2841(7) 0.6295(7)
H8 H 0.9596 0.2746 0.5899
C20 C 1.0740(9) 0.2905(7) 0.6183(6)
H9 H 1.0950 0.2853 0.5712
C21 C 1.1238(6) 0.3047(7) 0.6767(8)
H10 H 1.1784 0.3090 0.6692
C22 C 1.2080(8) 0.2520(5) 0.8464(7)
C23 C 1.1735(5) 0.1842(7) 0.8338(6)
H11 H 1.1255 0.1812 0.8084
C24 C 1.2098(7) 0.1209(5) 0.8589(7)
H12 H 1.1865 0.0751 0.8504
C25 C 1.2808(7) 0.1253(6) 0.8965(7)
H13 H 1.3054 0.0825 0.9134
C26 C 1.3153(6) 0.1931(8) 0.9091(6)
H14 H 1.3633 0.1961 0.9345
C27 C 1.2790(8) 0.2564(6) 0.8840(8)
H15 H 1.3023 0.3022 0.8925
C28 C 1.2291(6) 0.4006(6) 0.8015(8)
C29 C 1.2868(8) 0.3856(6) 0.7499(7)
H16 H 1.2846 0.3420 0.7229
C30 C 1.3476(7) 0.4352(8) 0.7382(7)
H17 H 1.3866 0.4251 0.7033
C31 C 1.3508(7) 0.4997(7) 0.7782(9)
H18 H 1.3920 0.5332 0.7703
C32 C 1.2931(9) 0.5146(6) 0.8298(8)
H19 H 1.2953 0.5583 0.8568
C33 C 1.2323(7) 0.4651(7) 0.8415(7)
H20 H 1.1933 0.4752 0.8764
P2 P 0.8824(3) 0.1006(3) 0.8877(3)
C34 C 0.9443(8) 0.1174(7) 0.9618(7)
C35 C 0.9097(6) 0.1242(9) 1.0300(9)
H21 H 0.8555 0.1151 1.0358
C36 C 0.9551(11) 0.1444(9) 1.0897(7)
H22 H 0.9317 0.1489 1.1358
C37 C 1.0352(10) 0.1578(9) 1.0811(8)
H23 H 1.0660 0.1715 1.1214
C38 C 1.0699(7) 0.1511(9) 1.0129(10)
H24 H 1.1240 0.1602 1.0071
C39 C 1.0244(9) 0.1309(8) 0.9532(7)
H25 H 1.0478 0.1264 0.9071
C40 C 0.9509(7) 0.0670(8) 0.8191(8)
C41 C 0.9583(8) 0.1043(6) 0.7536(9)
H26 H 0.9230 0.1423 0.7421
C42 C 1.0178(10) 0.0856(8) 0.7050(7)
H27 H 1.0227 0.1109 0.6607
C43 C 1.0699(7) 0.0295(8) 0.7219(8)
H28 H 1.1101 0.0168 0.6891
C44 C 1.0626(7) -0.0079(7) 0.7875(9)
H29 H 1.0978 -0.0458 0.7989
C45 C 1.0031(9) 0.0108(8) 0.8360(7)
H30 H 0.9981 -0.0144 0.8803
C46 C 0.8349(9) 0.1752(6) 0.8546(10)
C47 C 0.8487(9) 0.2420(9) 0.8885(8)
H31 H 0.8836 0.2447 0.9282
C48 C 0.8109(11) 0.3047(6) 0.8638(10)
H32 H 0.8202 0.3498 0.8868
C49 C 0.7593(10) 0.3007(8) 0.8052(11)
H33 H 0.7338 0.3431 0.7885
C50 C 0.7456(9) 0.2339(11) 0.7712(9)
H34 H 0.7107 0.2312 0.7315
C51 C 0.7834(10) 0.1712(8) 0.7959(10)
H35 H 0.7741 0.1261 0.7729
C52 C 0.8107(9) 0.0342(9) 0.9111(9)
C53 C 0.7312(10) 0.0527(8) 0.9120(9)
H36 H 0.7148 0.0983 0.8939
C54 C 0.6762(7) 0.0038(11) 0.9398(10)
H37 H 0.6224 0.0163 0.9404
C55 C 0.7005(10) -0.0636(9) 0.9666(10)
H38 H 0.6633 -0.0967 0.9853
C56 C 0.7800(11) -0.0821(8) 0.9656(9)
H39 H 0.7965 -0.1277 0.9837
C57 C 0.8351(7) -0.0332(10) 0.9379(10)
H40 H 0.8888 -0.0458 0.9373
O19 O 0.5066(10) 0.5567(13) 0.9979(12)
loop_
_geom_bond_atom_site_label_1
_geom_bond_atom_site_label_2
_geom_bond_site_symmetry_1
_geom_bond_site_symmetry_2
Cu1 Cl1 1_555 1_555
Cu2 Cl1 1_555 1_555
Cu3 Cl1 1_555 1_555
Mn1 O1 1_555 1_555
C1 C2 1_555 1_555
C2 C3 1_555 1_555
C3 O5 1_555 1_555
O1 C1 1_555 1_555
O2 Cu1 1_555 1_555
O3 C2 1_555 1_555
O4 Cu1 1_555 1_555
O5 Mn1 1_555 1_555
O6 Cu2 1_555 1_555
C4 C5 1_555 1_555
C5 C6 1_555 1_555
C6 O11 1_555 1_555
O7 C4 1_555 1_555
O8 Cu2 1_555 1_555
O9 C5 1_555 1_555
O10 Cu2 1_555 1_555
O11 Mn1A 1_555 1_555
O12 Cu3 1_555 1_555
C7 C8 1_555 1_555
C8 C9 1_555 1_555
C9 O17 1_555 1_555
O13 C7 1_555 1_555
O14 Cu3 1_555 1_555
O15 C8 1_555 1_555
O16 Cu1 1_555 1_555
O17 Mn1C 1_555 1_555
O18 Cu1 1_555 1_555
P1 C10 1_555 1_555
C10 C11 1_555 1_555
C11 H1 1_555 1_555
C12 C11 1_555 1_555
H2 C12 1_555 1_555
C13 C12 1_555 1_555
H3 C13 1_555 1_555
C14 C13 1_555 1_555
H4 C14 1_555 1_555
C15 C10 1_555 1_555
H5 C15 1_555 1_555
C16 P1 1_555 1_555
C17 C16 1_555 1_555
H6 C17 1_555 1_555
C18 C17 1_555 1_555
H7 C18 1_555 1_555
C19 C18 1_555 1_555
H8 C19 1_555 1_555
C20 C19 1_555 1_555
H9 C20 1_555 1_555
C21 C16 1_555 1_555
H10 C21 1_555 1_555
C22 P1 1_555 1_555
C23 C22 1_555 1_555
H11 C23 1_555 1_555
C24 C23 1_555 1_555
H12 C24 1_555 1_555
C25 C24 1_555 1_555
H13 C25 1_555 1_555
C26 C25 1_555 1_555
H14 C26 1_555 1_555
C27 C22 1_555 1_555
H15 C27 1_555 1_555
C28 P1 1_555 1_555
C29 C28 1_555 1_555
H16 C29 1_555 1_555
C30 C29 1_555 1_555
H17 C30 1_555 1_555
C31 C30 1_555 1_555
H18 C31 1_555 1_555
C32 C31 1_555 1_555
H19 C32 1_555 1_555
C33 C28 1_555 1_555
H20 C33 1_555 1_555
P2 C34 1_555 1_555
C34 C35 1_555 1_555
C35 H21 1_555 1_555
C36 C35 1_555 1_555
H22 C36 1_555 1_555
C37 C36 1_555 1_555
H23 C37 1_555 1_555
C38 C37 1_555 1_555
H24 C38 1_555 1_555
C39 C34 1_555 1_555
H25 C39 1_555 1_555
C40 P2 1_555 1_555
C41 C40 1_555 1_555
H26 C41 1_555 1_555
C42 C41 1_555 1_555
H27 C42 1_555 1_555
C43 C42 1_555 1_555
H28 C43 1_555 1_555
C44 C43 1_555 1_555
H29 C44 1_555 1_555
C45 C40 1_555 1_555
H30 C45 1_555 1_555
C46 P2 1_555 1_555
C47 C46 1_555 1_555
H31 C47 1_555 1_555
C48 C47 1_555 1_555
H32 C48 1_555 1_555
C49 C48 1_555 1_555
H33 C49 1_555 1_555
C50 C49 1_555 1_555
H34 C50 1_555 1_555
C51 C46 1_555 1_555
H35 C51 1_555 1_555
C52 P2 1_555 1_555
C53 C52 1_555 1_555
H36 C53 1_555 1_555
C54 C53 1_555 1_555
H37 C54 1_555 1_555
C55 C54 1_555 1_555
H38 C55 1_555 1_555
C56 C55 1_555 1_555
H39 C56 1_555 1_555
C57 C52 1_555 1_555
H40 C57 1_555 1_555
Mn1A O7 1_555 1_555
Mn1C O13 1_555 1_555
O7A Mn1 1_555 1_555
O11A Mn1 1_555 1_555
O13C Mn1 1_555 1_555
O17C Mn1 1_555 1_555
Cu2 O4 1_555 1_555
Cu3 O10 1_555 1_555
Cu3 O16 1_555 1_555
C1 O2 1_555 1_555
C2 O4 1_555 1_555
C3 O6 1_555 1_555
C4 O8 1_555 1_555
C5 O10 1_555 1_555
C6 O12 1_555 1_555
C7 O14 1_555 1_555
C8 O16 1_555 1_555
C9 O18 1_555 1_555
C14 C15 1_555 1_555
C20 C21 1_555 1_555
C26 C27 1_555 1_555
C32 C33 1_555 1_555
C38 C39 1_555 1_555
C44 C45 1_555 1_555
C50 C51 1_555 1_555
C56 C57 1_555 1_555

#END
