
#######################################################################
#
#                 Cambridge Crystallographic Data Centre
#                                CCDC 
#
#######################################################################
#
# If this CIF has been generated from an entry in the Cambridge 
# Structural Database, then it will include bibliographic, chemical, 
# crystal, experimental, refinement or atomic coordinate data resulting 
# from the CCDC's data processing and validation procedures.
#
#######################################################################

data_UKAZAI
_symmetry_cell_setting           cubic
_symmetry_space_group_name_H-M   'P a -3'
_symmetry_Int_Tables_number      205
_space_group_name_Hall           '-P 2ac 2ab 3'
loop_
_symmetry_equiv_pos_site_id
_symmetry_equiv_pos_as_xyz
1 x,y,z
2 1/2-x,-y,1/2+z
3 1/2+x,1/2-y,-z
4 -x,1/2+y,1/2-z
5 z,x,y
6 1/2-z,-x,1/2+y
7 1/2+z,1/2-x,-y
8 -z,1/2+x,1/2-y
9 y,z,x
10 1/2+y,1/2-z,-x
11 -y,1/2+z,1/2-x
12 1/2-y,-z,1/2+x
13 -x,-y,-z
14 1/2+x,y,1/2-z
15 1/2-x,1/2+y,z
16 x,1/2-y,1/2+z
17 -z,-x,-y
18 1/2+z,x,1/2-y
19 1/2-z,1/2+x,y
20 z,1/2-x,1/2+y
21 -y,-z,-x
22 1/2-y,1/2+z,x
23 y,1/2-z,1/2+x
24 1/2+y,z,1/2-x
_cell_length_a                   18.346(2)
_cell_length_b                   18.346(2)
_cell_length_c                   18.346(2)
_cell_angle_alpha                90
_cell_angle_beta                 90
_cell_angle_gamma                90
_cell_volume                     6174.82
loop_
_atom_site_label
_atom_site_type_symbol
_atom_site_fract_x
_atom_site_fract_y
_atom_site_fract_z
Cu1 Cu 0.3785(4) 0.1988(4) -0.0532(4)
O1 O 0.332(2) 0.208(2) 0.038(3)
Mn1 Mn 0.13092(5) 0.13092(5) 0.13092(5)
O2 O 0.2235(3) 0.1954(3) 0.0970(3)
O3 O 0.2904(2) 0.1471(2) -0.0779(2)
O4 O 0.1754(3) 0.1914(3) -0.0531(3)
H1 H 0.1593 0.1715 -0.0904
O5 O 0.2269(4) 0.0245(3) -0.0525(3)
O6 O 0.1651(3) 0.0620(2) 0.0417(3)
C1 C 0.2626(4) 0.1906(4) 0.0418(4)
C2 C 0.2353(3) 0.1510(3) -0.0263(3)
C3 C 0.2069(4) 0.0735(4) -0.0097(4)
Cu1D Cu -0.0532(4) 0.3785(4) 0.1988(4)
Cu1H Cu 0.1988(4) -0.0532(4) 0.3785(4)
Cu1K Cu 0.3012(4) 0.0532(4) -0.1215(4)
Cu1B Cu -0.1215(4) 0.3012(4) 0.0532(4)
Cu1G Cu 0.0532(4) -0.1215(4) 0.3012(4)
Cu1F Cu 0.4468(4) 0.1215(4) -0.1988(4)
Cu1J Cu -0.1988(4) 0.4468(4) 0.1215(4)
Cu1A Cu 0.1215(4) -0.1988(4) 0.4468(4)
O1D O 0.038(3) 0.332(2) 0.208(2)
O1H O 0.208(2) 0.038(3) 0.332(2)
O1F O 0.538(3) 0.168(2) -0.208(2)
O1J O -0.208(2) 0.538(3) 0.168(2)
O1A O 0.168(2) -0.208(2) 0.538(3)
O1K O 0.292(2) -0.038(3) -0.168(2)
O1B O -0.168(2) 0.292(2) -0.038(3)
O1G O -0.038(3) -0.168(2) 0.292(2)
Mn1B Mn 0.63092(5) 0.36908(5) -0.13092(5)
Mn1C Mn -0.13092(5) 0.63092(5) 0.36908(5)
Mn1A Mn 0.36908(5) -0.13092(5) 0.63092(5)
O2D O 0.0970(3) 0.2235(3) 0.1954(3)
O2H O 0.1954(3) 0.0970(3) 0.2235(3)
O2F O 0.5970(3) 0.2765(3) -0.1954(3)
O2J O -0.1954(3) 0.5970(3) 0.2765(3)
O2A O 0.2765(3) -0.1954(3) 0.5970(3)
O2I O 0.6954(3) 0.4030(3) -0.2235(3)
O2B O 0.7235(3) 0.3046(3) -0.0970(3)
O3D O -0.0779(2) 0.2904(2) 0.1471(2)
O3H O 0.1471(2) -0.0779(2) 0.2904(2)
O3F O 0.4221(2) 0.2096(2) -0.1471(2)
O3J O -0.1471(2) 0.4221(2) 0.2096(2)
O3A O 0.2096(2) -0.1471(2) 0.4221(2)
O3K O 0.3529(2) 0.0779(2) -0.2096(2)
O3B O -0.2096(2) 0.3529(2) 0.0779(2)
O3G O 0.0779(2) -0.2096(2) 0.3529(2)
O4D O -0.0531(3) 0.1754(3) 0.1914(3)
O4H O 0.1914(3) -0.0531(3) 0.1754(3)
O4F O 0.4469(3) 0.3246(3) -0.1914(3)
O4J O -0.1914(3) 0.4469(3) 0.3246(3)
O4A O 0.3246(3) -0.1914(3) 0.4469(3)
H1D H -0.0904 0.1593 0.1715
H1H H 0.1715 -0.0904 0.1593
H1F H 0.4096 0.3407 -0.1715
H1J H -0.1715 0.4096 0.3407
H1A H 0.3407 -0.1715 0.4096
O5D O -0.0525(3) 0.2269(4) 0.0245(3)
O5H O 0.0245(3) -0.0525(3) 0.2269(4)
O5F O 0.4475(3) 0.2731(4) -0.0245(3)
O5J O -0.0245(3) 0.4475(3) 0.2731(4)
O5A O 0.2731(4) -0.0245(3) 0.4475(3)
O6D O 0.0417(3) 0.1651(3) 0.0620(2)
O6H O 0.0620(2) 0.0417(3) 0.1651(3)
O6F O 0.5417(3) 0.3349(3) -0.0620(2)
O6J O -0.0620(2) 0.5417(3) 0.3349(3)
O6A O 0.3349(3) -0.0620(2) 0.5417(3)
O6I O 0.5620(2) 0.4583(3) -0.1651(3)
O6B O 0.6651(3) 0.4380(2) -0.0417(3)
C1D C 0.0418(4) 0.2626(4) 0.1906(4)
C1H C 0.1906(4) 0.0418(4) 0.2626(4)
C1F C 0.5418(4) 0.2374(4) -0.1906(4)
C1J C -0.1906(4) 0.5418(4) 0.2374(4)
C1A C 0.2374(4) -0.1906(4) 0.5418(4)
C2D C -0.0263(3) 0.2353(3) 0.1510(3)
C2H C 0.1510(3) -0.0263(3) 0.2353(3)
C2F C 0.4737(3) 0.2647(3) -0.1510(3)
C2J C -0.1510(3) 0.4737(3) 0.2647(3)
C2A C 0.2647(3) -0.1510(3) 0.4737(3)
C3D C -0.0097(4) 0.2069(4) 0.0735(4)
C3H C 0.0735(4) -0.0097(4) 0.2069(4)
C3F C 0.4903(4) 0.2931(4) -0.0735(4)
C3J C -0.0735(4) 0.4903(4) 0.2931(4)
C3A C 0.2931(4) -0.0735(4) 0.4903(4)
K1 K 0.0000 0.0000 0.0000
O7 O 0.0900(4) -0.0307(5) -0.1294(5)
K2 K 0.2576(11) 0.2576(11) 0.2576(11)
O8 O 0.635(2) 0.393(2) 0.175(2)
K3 K 0.4366(4) 0.0634(4) -0.0634(4)
O9 O 0.3727(8) -0.0182(10) 0.0746(9)
C4 C 0.3744(13) 0.0129(15) 0.1380(13)
C5 C 0.350(2) -0.107(2) 0.079(2)
O9W O 0.4818(10) 0.0746(9) 0.1273(8)
O9F O 0.5746(9) 0.1273(8) 0.0182(10)
O9L O 0.6273(8) 0.0182(10) -0.0746(9)
O9K O 0.5182(10) -0.0746(9) -0.1273(8)
O9R O 0.4254(9) -0.1273(8) -0.0182(10)
C4W C 0.5129(15) 0.1380(13) 0.1256(13)
C4F C 0.6380(13) 0.1256(13) -0.0129(15)
C4L C 0.6256(13) -0.0129(15) -0.1380(13)
C4K C 0.4871(15) -0.1380(13) -0.1256(13)
C4R C 0.3620(13) -0.1256(13) 0.0129(15)
C5W C 0.393(2) 0.079(2) 0.150(2)
C5F C 0.579(2) 0.150(2) 0.107(2)
C5L C 0.650(2) 0.107(2) -0.079(2)
C5K C 0.607(2) -0.079(2) -0.150(2)
C5R C 0.421(2) -0.150(2) -0.107(2)
Cu2? Cu 0.3620(4) 0.2208(4) -0.0596(5)
O10? O 0.316(2) 0.2323(19) 0.036(2)
O11? O 0.048(3) -0.016(3) -0.074(3)
O12? O 0.226(5) 0.287(4) 0.258(4)
O13? O 0.263(3) 0.304(3) 0.193(3)
O14? O 0.3575(15) 0.2987(13) 0.1743(15)
O15? O 0.2817(16) 0.1743(17) 0.4115(17)
O16? O 0.407(3) -0.057(3) 0.131(3)
C6? C 0.415(3) 0.093(3) 0.129(3)
C7? C 0.359(4) 0.056(4) 0.103(5)
C8? C 0.421(2) 0.053(2) 0.1666(19)
loop_
_geom_bond_atom_site_label_1
_geom_bond_atom_site_label_2
_geom_bond_site_symmetry_1
_geom_bond_site_symmetry_2
Cu1 O1 1_555 1_555
O1 C1 1_555 1_555
Mn1 O2 1_555 1_555
O2 C1 1_555 1_555
O3 Cu1 1_555 1_555
O4 H1 1_555 1_555
O5 C3 1_555 1_555
O6 Mn1 1_555 1_555
C1 C2 1_555 1_555
C2 O3 1_555 1_555
C3 O6 1_555 1_555
O9 C4 1_555 1_555
C4 C5W 1_555 1_555
C5 O9 1_555 1_555
Cu1D O1D 1_555 1_555
Cu1H O1H 1_555 1_555
Cu1K O3 1_555 1_555
Cu1B O1B 1_555 1_555
Cu1G O1G 1_555 1_555
Cu1F O1F 1_555 1_555
Cu1J O1J 1_555 1_555
Cu1A O1A 1_555 1_555
O1D C1D 1_555 1_555
O1H C1H 1_555 1_555
O1F C1F 1_555 1_555
O1J C1J 1_555 1_555
O1A C1A 1_555 1_555
O1K Cu1K 1_555 1_555
Mn1B O2F 1_555 1_555
Mn1C O2J 1_555 1_555
Mn1A O2A 1_555 1_555
O2D Mn1 1_555 1_555
O2H Mn1 1_555 1_555
O2F C1F 1_555 1_555
O2J C1J 1_555 1_555
O2A C1A 1_555 1_555
O2I Mn1B 1_555 1_555
O2B Mn1B 1_555 1_555
O3D Cu1D 1_555 1_555
O3H Cu1H 1_555 1_555
O3F Cu1 1_555 1_555
O3J Cu1D 1_555 1_555
O3A Cu1H 1_555 1_555
O3K Cu1K 1_555 1_555
O3B Cu1B 1_555 1_555
O3G Cu1G 1_555 1_555
O4D H1D 1_555 1_555
O4H H1H 1_555 1_555
O4F H1F 1_555 1_555
O4J H1J 1_555 1_555
O4A H1A 1_555 1_555
O5D Cu1B 1_555 1_555
O5H Cu1G 1_555 1_555
O5F Cu1 1_555 1_555
O5J Cu1D 1_555 1_555
O5A Cu1H 1_555 1_555
O6D Mn1 1_555 1_555
O6H Mn1 1_555 1_555
O6F Mn1B 1_555 1_555
O6J Mn1C 1_555 1_555
O6A Mn1A 1_555 1_555
O6I Mn1B 1_555 1_555
O6B Mn1B 1_555 1_555
C1D O2D 1_555 1_555
C1H O2H 1_555 1_555
C1F C2F 1_555 1_555
C1J C2J 1_555 1_555
C1A C2A 1_555 1_555
C2D O3D 1_555 1_555
C2H O3H 1_555 1_555
C2F O3F 1_555 1_555
C2J O3J 1_555 1_555
C2A O3A 1_555 1_555
C3D O5D 1_555 1_555
C3H O5H 1_555 1_555
C3F O5F 1_555 1_555
C3J O5J 1_555 1_555
C3A O5A 1_555 1_555
O9W C4W 1_555 1_555
O9F C4F 1_555 1_555
O9L C4L 1_555 1_555
O9K C4K 1_555 1_555
O9R C4R 1_555 1_555
C4W C5F 1_555 1_555
C4F C5L 1_555 1_555
C4L C5K 1_555 1_555
C4K C5R 1_555 1_555
C4R C5 1_555 1_555
C5W O9W 1_555 1_555
C5F O9F 1_555 1_555
C5L O9L 1_555 1_555
C5K O9K 1_555 1_555
C5R O9R 1_555 1_555
O4 C2 1_555 1_555
O5 Cu1K 1_555 1_555
C2 C3 1_555 1_555
Cu1B O3D 1_555 1_555
Cu1G O3H 1_555 1_555
Cu1F O3F 1_555 1_555
Cu1F O3K 1_555 1_555
Cu1J O3J 1_555 1_555
Cu1J O3B 1_555 1_555
Cu1A O3A 1_555 1_555
Cu1A O3G 1_555 1_555
O4D C2D 1_555 1_555
O4H C2H 1_555 1_555
O4F C2F 1_555 1_555
O4J C2J 1_555 1_555
O4A C2A 1_555 1_555
O6D C3D 1_555 1_555
O6H C3H 1_555 1_555
O6F C3F 1_555 1_555
O6J C3J 1_555 1_555
O6A C3A 1_555 1_555
C1D C2D 1_555 1_555
C1H C2H 1_555 1_555
C2D C3D 1_555 1_555
C2H C3H 1_555 1_555
C2F C3F 1_555 1_555
C2J C3J 1_555 1_555
C2A C3A 1_555 1_555

#END
