
#######################################################################
#
#                 Cambridge Crystallographic Data Centre
#                                CCDC 
#
#######################################################################
#
# If this CIF has been generated from an entry in the Cambridge 
# Structural Database, then it will include bibliographic, chemical, 
# crystal, experimental, refinement or atomic coordinate data resulting 
# from the CCDC's data processing and validation procedures.
#
#######################################################################

data_UKELEB
_symmetry_cell_setting           monoclinic
_symmetry_space_group_name_H-M   'C 2/c'
_symmetry_Int_Tables_number      15
_space_group_name_Hall           '-C 2yn'
loop_
_symmetry_equiv_pos_site_id
_symmetry_equiv_pos_as_xyz
1 x,y,z
2 1/2+x,1/2+y,z
3 x,-y,1/2+z
4 1/2+x,1/2-y,1/2+z
5 -x,-y,-z
6 1/2-x,1/2-y,-z
7 -x,y,1/2-z
8 1/2-x,1/2+y,1/2-z
_cell_length_a                   13.7364(9)
_cell_length_b                   7.6683(4)
_cell_length_c                   11.1280(7)
_cell_angle_alpha                90
_cell_angle_beta                 104.452(7)
_cell_angle_gamma                90
_cell_volume                     1135.08
loop_
_atom_site_label
_atom_site_type_symbol
_atom_site_fract_x
_atom_site_fract_y
_atom_site_fract_z
Cu1 Cu 0.32030(4) 0.61975(7) 0.47676(4)
S1 S 0.17777(7) 0.56501(13) 0.57047(7)
N1 N 0.2782(3) 0.4950(5) 0.8175(3)
C1 C 0.2368(2) 0.5279(5) 0.7169(3)
N2 N 0.4358(2) 0.6089(4) 0.6314(3)
C2 C 0.4672(2) 0.4601(4) 0.6893(3)
C3 C 0.4688(3) 0.7586(5) 0.6912(3)
H1 H 0.4489 0.8645 0.6519
C4 C 0.4303(3) 0.2937(5) 0.6231(4)
H2 H 0.3955 0.3190 0.5389
H3 H 0.3853 0.2367 0.6641
H4 H 0.4864 0.2187 0.6240
C2F C 0.5328(2) 0.4601(4) 0.8107(3)
N2F N 0.5642(2) 0.6089(4) 0.8686(3)
C3F C 0.5312(3) 0.7586(5) 0.8088(3)
H1F H 0.5511 0.8645 0.8481
C4F C 0.5697(3) 0.2937(5) 0.8769(4)
H2F H 0.6045 0.3190 0.9611
H3F H 0.6147 0.2367 0.8359
H4F H 0.5136 0.2187 0.8760
S1E S 0.32223(7) 0.93499(13) 0.42953(7)
N1E N 0.2218(3) 1.0050(5) 0.1825(3)
C1E C 0.2632(2) 0.9721(5) 0.2831(3)
Cu1E Cu 0.17970(4) 0.88025(7) 0.52324(4)
N1B N 0.2782(3) 0.5050(5) 0.3175(3)
Cu1B Cu 0.32030(4) 0.38025(7) 0.97676(4)
Cu1F Cu 0.67970(4) 0.61975(7) 1.02324(4)
Cu1G Cu 0.17970(4) 1.11975(7) 0.02324(4)
N1G N 0.2218(3) 0.9950(5) 0.6825(3)
N2E N 0.0642(2) 0.8911(4) 0.3686(3)
loop_
_geom_bond_atom_site_label_1
_geom_bond_atom_site_label_2
_geom_bond_site_symmetry_1
_geom_bond_site_symmetry_2
Cu1 S1 1_555 1_555
S1 C1 1_555 1_555
N1 C1 1_555 1_555
N2 Cu1 1_555 1_555
C2 N2 1_555 1_555
C3 N2 1_555 1_555
H1 C3 1_555 1_555
C4 C2 1_555 1_555
H2 C4 1_555 1_555
H3 C4 1_555 1_555
H4 C4 1_555 1_555
C2F C2 1_555 1_555
N2F C2F 1_555 1_555
C3F C3 1_555 1_555
H1F C3F 1_555 1_555
C4F C2F 1_555 1_555
H2F C4F 1_555 1_555
H3F C4F 1_555 1_555
H4F C4F 1_555 1_555
S1E Cu1 1_555 1_555
N1E C1E 1_555 1_555
C1E S1E 1_555 1_555
Cu1E Cu1 1_555 1_555
N1B Cu1 1_555 1_555
Cu1B N1 1_555 1_555
Cu1F N2F 1_555 1_555
Cu1G N1E 1_555 1_555
N1G Cu1E 1_555 1_555
N2E Cu1E 1_555 1_555
S1 Cu1E 1_555 1_555
N2F C3F 1_555 1_555
S1E Cu1E 1_555 1_555

#END
