
#######################################################################
#
#                 Cambridge Crystallographic Data Centre
#                                CCDC 
#
#######################################################################
#
# If this CIF has been generated from an entry in the Cambridge 
# Structural Database, then it will include bibliographic, chemical, 
# crystal, experimental, refinement or atomic coordinate data resulting 
# from the CCDC's data processing and validation procedures.
#
#######################################################################

data_UKEMEC
_symmetry_cell_setting           monoclinic
_symmetry_space_group_name_H-M   'P 21/c'
_symmetry_Int_Tables_number      14
_space_group_name_Hall           '-P 2ybc'
loop_
_symmetry_equiv_pos_site_id
_symmetry_equiv_pos_as_xyz
1 x,y,z
2 x,1/2-y,1/2+z
3 -x,-y,-z
4 -x,1/2+y,1/2-z
_cell_length_a                   11.4448(4)
_cell_length_b                   13.6290(5)
_cell_length_c                   14.8134(6)
_cell_angle_alpha                90
_cell_angle_beta                 101.4650(10)
_cell_angle_gamma                90
_cell_volume                     2264.51
loop_
_atom_site_label
_atom_site_type_symbol
_atom_site_fract_x
_atom_site_fract_y
_atom_site_fract_z
Mn1 Mn 0.69522(3) 0.32740(2) 0.13896(2)
N1 N 0.88489(17) 0.33780(14) 0.11727(13)
N2 N 0.74310(17) 0.19163(13) 0.05890(13)
N3 N 0.52201(17) 0.23806(14) 0.08736(14)
N4 N 0.55286(18) 0.40765(14) 0.20348(14)
N5 N 0.78049(18) 0.47054(14) 0.20054(14)
N6 N 0.7428(2) 0.39342(18) -0.12600(17)
N7 N 0.6386(2) 0.40997(15) 0.00208(14)
N8 N 0.7397(2) 0.25422(18) -0.22892(15)
C1 C 0.4336(2) 0.37552(18) 0.15271(18)
H1 H 0.4161 0.4057 0.0907
H2 H 0.3712 0.3962 0.1864
C2 C 0.4347(2) 0.26469(18) 0.14445(18)
H3 H 0.4575 0.2346 0.2063
H4 H 0.3545 0.2406 0.1153
C3 C 0.5541(2) 0.13323(17) 0.08799(18)
H5 H 0.4827 0.0935 0.0626
H6 H 0.5857 0.1113 0.1519
C4 C 0.6484(2) 0.11948(17) 0.02950(18)
H7 H 0.6816 0.0522 0.0376
H8 H 0.6125 0.1291 -0.0364
C5 C 0.8442(2) 0.18659(17) 0.03528(16)
C6 C 0.9263(2) 0.27074(17) 0.06512(16)
C7 C 0.9478(2) 0.41830(17) 0.14494(16)
C8 C 0.8890(2) 0.48945(17) 0.19906(17)
C9 C 0.7050(2) 0.53347(18) 0.24568(18)
H9 H 0.7243 0.6034 0.2379
H10 H 0.7187 0.5187 0.3124
C10 C 0.5764(2) 0.51324(18) 0.20125(19)
H11 H 0.5229 0.5490 0.2347
H12 H 0.5605 0.5366 0.1367
C11 C 1.0349(2) 0.2842(2) 0.03786(19)
H13 H 1.0639 0.2365 0.0010
C12 C 1.0993(2) 0.3681(2) 0.0655(2)
H14 H 1.1729 0.3792 0.0468
C13 C 1.0575(2) 0.4358(2) 0.1200(2)
H15 H 1.1021 0.4932 0.1403
C14 C 0.8828(3) 0.1062(2) -0.0218(2)
H16 H 0.8362 0.0468 -0.0167
H17 H 0.9677 0.0924 0.0005
H18 H 0.8697 0.1270 -0.0864
C15 C 0.9600(3) 0.5750(2) 0.2438(2)
H19 H 0.9175 0.6061 0.2876
H20 H 0.9706 0.6227 0.1966
H21 H 1.0382 0.5522 0.2766
C16 C 0.6848(2) 0.39798(16) -0.05903(16)
C17 C 0.7373(2) 0.31736(18) -0.17849(16)
N8A N 0.7397(2) 0.24578(18) 0.27108(15)
Mn1A Mn 0.69522(3) 0.17260(2) -0.36104(2)
P1 P 0.74984(6) 0.82911(5) 0.13227(5)
F1 F 0.76095(16) 0.78336(12) 0.23249(11)
F2 F 0.73926(19) 0.87443(13) 0.03093(11)
F3 F 0.7453(2) 0.72263(13) 0.08808(13)
F4 F 0.7557(2) 0.93608(13) 0.17566(12)
F5 F 0.89089(17) 0.82888(18) 0.14475(14)
F6 F 0.60918(17) 0.83042(19) 0.12012(14)
loop_
_geom_bond_atom_site_label_1
_geom_bond_atom_site_label_2
_geom_bond_site_symmetry_1
_geom_bond_site_symmetry_2
Mn1 N1 1_555 1_555
N1 C6 1_555 1_555
N2 Mn1 1_555 1_555
N3 Mn1 1_555 1_555
N4 Mn1 1_555 1_555
N5 Mn1 1_555 1_555
N6 C16 1_555 1_555
N7 Mn1 1_555 1_555
N8 C17 1_555 1_555
C1 N4 1_555 1_555
H1 C1 1_555 1_555
H2 C1 1_555 1_555
C2 N3 1_555 1_555
H3 C2 1_555 1_555
H4 C2 1_555 1_555
C3 N3 1_555 1_555
H5 C3 1_555 1_555
H6 C3 1_555 1_555
C4 N2 1_555 1_555
H7 C4 1_555 1_555
H8 C4 1_555 1_555
C5 N2 1_555 1_555
C6 C5 1_555 1_555
C7 N1 1_555 1_555
C8 N5 1_555 1_555
C9 N5 1_555 1_555
H9 C9 1_555 1_555
H10 C9 1_555 1_555
C10 N4 1_555 1_555
H11 C10 1_555 1_555
H12 C10 1_555 1_555
C11 C6 1_555 1_555
H13 C11 1_555 1_555
C12 C11 1_555 1_555
H14 C12 1_555 1_555
C13 C7 1_555 1_555
H15 C13 1_555 1_555
C14 C5 1_555 1_555
H16 C14 1_555 1_555
H17 C14 1_555 1_555
H18 C14 1_555 1_555
C15 C8 1_555 1_555
H19 C15 1_555 1_555
H20 C15 1_555 1_555
H21 C15 1_555 1_555
C16 N7 1_555 1_555
C17 N6 1_555 1_555
P1 F1 1_555 1_555
F2 P1 1_555 1_555
F3 P1 1_555 1_555
F4 P1 1_555 1_555
F5 P1 1_555 1_555
F6 P1 1_555 1_555
N8A Mn1 1_555 1_555
Mn1A N8 1_555 1_555
C1 C2 1_555 1_555
C3 C4 1_555 1_555
C7 C8 1_555 1_555
C9 C10 1_555 1_555
C12 C13 1_555 1_555

#END
