
#######################################################################
#
#                 Cambridge Crystallographic Data Centre
#                                CCDC 
#
#######################################################################
#
# If this CIF has been generated from an entry in the Cambridge 
# Structural Database, then it will include bibliographic, chemical, 
# crystal, experimental, refinement or atomic coordinate data resulting 
# from the CCDC's data processing and validation procedures.
#
#######################################################################

data_UKESUY
_symmetry_cell_setting           monoclinic
_symmetry_space_group_name_H-M   'P 21/c'
_symmetry_Int_Tables_number      14
_space_group_name_Hall           '-P 2ybc'
loop_
_symmetry_equiv_pos_site_id
_symmetry_equiv_pos_as_xyz
1 x,y,z
2 x,1/2-y,1/2+z
3 -x,-y,-z
4 -x,1/2+y,1/2-z
_cell_length_a                   8.583(5)
_cell_length_b                   10.533(6)
_cell_length_c                   12.946(7)
_cell_angle_alpha                90
_cell_angle_beta                 92.433(9)
_cell_angle_gamma                90
_cell_volume                     1169.32
loop_
_atom_site_label
_atom_site_type_symbol
_atom_site_fract_x
_atom_site_fract_y
_atom_site_fract_z
Ni1 Ni 1.0000 0.0000 0.5000
N1 N 0.87673(19) 0.12222(15) 0.41630(14)
H1 H 0.9337 0.1949 0.4142
N2 N 0.8552(2) 0.05109(16) 0.62055(14)
H2 H 0.7811 -0.0104 0.6237
C1 C 0.9242(3) 0.0636(2) 0.72283(17)
H3 H 0.8435 0.0811 0.7711
H4 H 0.9966 0.1343 0.7249
C2 C 1.0081(3) -0.0549(2) 0.75411(19)
H5 H 0.9365 -0.1259 0.7467
H6 H 1.0406 -0.0486 0.8266
C3 C 0.7748(3) 0.1672(2) 0.5885(2)
H7 H 0.8423 0.2402 0.5995
H8 H 0.6819 0.1791 0.6276
C4 C 0.7329(3) 0.1519(2) 0.4780(2)
H9 H 0.6844 0.2292 0.4518
H10 H 0.6579 0.0835 0.4691
C5 C 0.8454(3) 0.0828(2) 0.31005(18)
H11 H 0.7846 0.1487 0.2749
H12 H 0.7816 0.0068 0.3104
S1 S 1.24885(5) 0.24993(4) 0.47173(4)
C6 C 1.3698(2) 0.36232(16) 0.53272(14)
C7 C 1.3813(2) 0.35529(18) 0.63718(15)
H13 H 1.3277 0.2935 0.6728
C8 C 1.4527(2) 0.45613(17) 0.47323(14)
C9 C 1.4458(2) 0.46585(19) 0.36487(15)
H14 H 1.3849 0.4078 0.3271
C10 C 1.4745(2) 0.4421(2) 0.68867(15)
H15 H 1.4845 0.4395 0.7604
O2 O 1.3511(2) 0.17733(16) 0.40324(14)
O3 O 1.13452(19) 0.32181(15) 0.41784(14)
O4 O 1.17781(17) 0.17298(14) 0.55346(12)
C5B C 1.1546(3) -0.0828(2) 0.68995(18)
N1B N 1.12327(19) -0.12222(15) 0.58370(14)
H1B H 1.0663 -0.1949 0.5858
C4B C 1.2671(3) -0.1519(2) 0.5220(2)
C3B C 1.2252(3) -0.1672(2) 0.4115(2)
N2B N 1.1448(2) -0.05109(16) 0.37945(14)
H2B H 1.2189 0.0104 0.3763
C1B C 1.0758(3) -0.0636(2) 0.27717(17)
H3B H 1.1565 -0.0811 0.2289
H4B H 1.0034 -0.1343 0.2751
C2B C 0.9919(3) 0.0549(2) 0.24589(19)
H5B H 1.0635 0.1259 0.2533
H6B H 0.9594 0.0486 0.1734
H7B H 1.1577 -0.2402 0.4005
H8B H 1.3181 -0.1791 0.3724
H9B H 1.3156 -0.2292 0.5482
H10B H 1.3421 -0.0835 0.5309
H11B H 1.2154 -0.1487 0.7251
H12B H 1.2184 -0.0068 0.6896
C9B C 1.5542(2) 0.53415(19) 0.63513(15)
C8B C 1.5473(2) 0.54387(17) 0.52677(14)
C6B C 1.6302(2) 0.63768(16) 0.46728(14)
S1B S 1.75115(5) 0.75007(4) 0.52827(4)
O2B O 1.6489(2) 0.82267(16) 0.59676(14)
O3B O 1.86548(19) 0.67819(15) 0.58216(14)
O4B O 1.82219(17) 0.82702(14) 0.44654(12)
C7B C 1.6187(2) 0.64471(18) 0.36282(15)
H13B H 1.6723 0.7065 0.3272
C10B C 1.5255(2) 0.5579(2) 0.31133(15)
H15B H 1.5155 0.5605 0.2396
H14B H 1.6151 0.5922 0.6729
O4B_2 O 0.82219(17) -0.17298(14) 0.44654(12)
Ni1_2 Ni 2.0000 1.0000 0.5000
O1 O 0.8864(13) 0.4199(11) 0.4889(9)
loop_
_geom_bond_atom_site_label_1
_geom_bond_atom_site_label_2
_geom_bond_site_symmetry_1
_geom_bond_site_symmetry_2
Ni1 N1 1_555 1_555
N1 H1 1_555 1_555
N2 Ni1 1_555 1_555
H2 N2 1_555 1_555
C1 N2 1_555 1_555
H3 C1 1_555 1_555
H4 C1 1_555 1_555
C2 C1 1_555 1_555
H5 C2 1_555 1_555
H6 C2 1_555 1_555
C3 N2 1_555 1_555
H7 C3 1_555 1_555
H8 C3 1_555 1_555
C4 N1 1_555 1_555
H9 C4 1_555 1_555
H10 C4 1_555 1_555
C5 N1 1_555 1_555
H11 C5 1_555 1_555
H12 C5 1_555 1_555
S1 C6 1_555 1_555
C6 C7 1_555 1_555
C7 H13 1_555 1_555
C8 C6 1_555 1_555
C9 C8 1_555 1_555
H14 C9 1_555 1_555
C10 C7 1_555 1_555
H15 C10 1_555 1_555
O2 S1 1_555 1_555
O3 S1 1_555 1_555
O4 Ni1 1_555 1_555
C5B C2 1_555 1_555
N1B Ni1 1_555 1_555
H1B N1B 1_555 1_555
C4B N1B 1_555 1_555
C3B C4B 1_555 1_555
N2B Ni1 1_555 1_555
H2B N2B 1_555 1_555
C1B N2B 1_555 1_555
H3B C1B 1_555 1_555
H4B C1B 1_555 1_555
C2B C5 1_555 1_555
H5B C2B 1_555 1_555
H6B C2B 1_555 1_555
H7B C3B 1_555 1_555
H8B C3B 1_555 1_555
H9B C4B 1_555 1_555
H10B C4B 1_555 1_555
H11B C5B 1_555 1_555
H12B C5B 1_555 1_555
C9B C10 1_555 1_555
C8B C8 1_555 1_555
C6B C8B 1_555 1_555
S1B C6B 1_555 1_555
O2B S1B 1_555 1_555
O3B S1B 1_555 1_555
O4B S1B 1_555 1_555
C7B C6B 1_555 1_555
H13B C7B 1_555 1_555
C10B C9 1_555 1_555
H15B C10B 1_555 1_555
H14B C9B 1_555 1_555
O4B_2 Ni1 1_555 1_555
Ni1_2 O4B 1_555 1_555
C3 C4 1_555 1_555
S1 O4 1_555 1_555
C5B N1B 1_555 1_555
C3B N2B 1_555 1_555
C1B C2B 1_555 1_555
C9B C8B 1_555 1_555
C7B C10B 1_555 1_555

#END
