
#######################################################################
#
#                 Cambridge Crystallographic Data Centre
#                                CCDC 
#
#######################################################################
#
# If this CIF has been generated from an entry in the Cambridge 
# Structural Database, then it will include bibliographic, chemical, 
# crystal, experimental, refinement or atomic coordinate data resulting 
# from the CCDC's data processing and validation procedures.
#
#######################################################################

data_UKETEK
_symmetry_cell_setting           rhombohedral
_symmetry_space_group_name_H-M   'R 3 c'
_symmetry_Int_Tables_number      161
_space_group_name_Hall           'R 3 -2"c'
loop_
_symmetry_equiv_pos_site_id
_symmetry_equiv_pos_as_xyz
1 x,y,z
2 -y,x-y,z
3 -x+y,-x,z
4 -y,-x,1/2+z
5 -x+y,y,1/2+z
6 x,x-y,1/2+z
7 2/3+x,1/3+y,1/3+z
8 2/3-y,1/3+x-y,1/3+z
9 2/3-x+y,1/3-x,1/3+z
10 2/3-y,1/3-x,5/6+z
11 2/3-x+y,1/3+y,5/6+z
12 2/3+x,1/3+x-y,5/6+z
13 1/3+x,2/3+y,2/3+z
14 1/3-y,2/3+x-y,2/3+z
15 1/3-x+y,2/3-x,2/3+z
16 1/3-y,2/3-x,1/6+z
17 1/3-x+y,2/3+y,1/6+z
18 1/3+x,2/3+x-y,1/6+z
_cell_length_a                   38.4784(10)
_cell_length_b                   38.4784(10)
_cell_length_c                   8.7086(2)
_cell_angle_alpha                90
_cell_angle_beta                 90
_cell_angle_gamma                120
_cell_volume                     11166.4
loop_
_atom_site_label
_atom_site_type_symbol
_atom_site_fract_x
_atom_site_fract_y
_atom_site_fract_z
Np1 Np 0.21806(2) 0.79015(2) 0.86471(7)
Np2 Np 0.17028(2) 0.83808(3) 1.10935(9)
O1 O 0.1807(4) 0.7405(3) 0.8209(14)
O2 O 0.2546(4) 0.8392(4) 0.9049(16)
O3 O 0.2185(4) 0.8753(4) 1.0686(14)
O4 O 0.1222(4) 0.8013(4) 1.1515(14)
O5 O 0.1645(6) 0.8075(6) 0.8587(15)
H1 H 0.1393 0.7809 0.8667
O6 O 0.2116(5) 0.8092(5) 0.6129(13)
H2 H 0.2368 0.8358 0.6048
O7 O 0.2480(4) 0.7638(4) 1.0275(13)
O8 O 0.2115(4) 0.7283(4) 1.2262(11)
O9 O 0.1425(4) 0.8662(4) 0.9503(14)
O10 O 0.1091(5) 0.8315(5) 0.7480(13)
C1 C 0.2315(4) 0.7314(5) 1.1078(16)
C2 C 0.2410(5) 0.7005(4) 1.0691(18)
C3 C 0.2656(4) 0.7048(6) 0.9533(18)
H3 H 0.2778 0.7294 0.8980
C4 C 0.2742(6) 0.6753(7) 0.909(2)
H4 H 0.2927 0.6798 0.8293
C5 C 0.2548(7) 0.6393(7) 0.986(2)
H5 H 0.2583 0.6178 0.9531
C6 C 0.2307(7) 0.6338(7) 1.109(2)
H6 H 0.2202 0.6099 1.1681
C7 C 0.2213(6) 0.6641(5) 1.1477(16)
H7 H 0.2021 0.6596 1.2251
C8 C 0.1127(7) 0.8511(6) 0.870(2)
C9 C 0.0760(7) 0.8539(6) 0.9147(18)
C10 C 0.0407(7) 0.8408(7) 0.822(2)
H8 H 0.0406 0.8318 0.7202
C11 C 0.0084(6) 0.8410(6) 0.872(2)
H9 H -0.0142 0.8331 0.8072
C12 C 0.0080(7) 0.8524(6) 1.016(2)
H10 H -0.0162 0.8501 1.0540
C13 C 0.0403(8) 0.8674(7) 1.113(2)
H11 H 0.0398 0.8779 1.2109
C14 C 0.0736(7) 0.8664(7) 1.061(2)
H12 H 0.0957 0.8747 1.1287
Np1C Np 0.20985(2) 0.78194(2) 0.36471(7)
Np1C_2 Np 0.20985(2) 0.78194(2) 1.36471(7)
Np2C Np 0.16192(3) 0.82972(2) 0.60935(9)
O5C O 0.1925(6) 0.8355(6) 1.3587(15)
H1C H 0.2191 0.8607 1.3667
O6C O 0.1908(5) 0.7884(5) 1.1129(13)
H2C H 0.1642 0.7632 1.1048
O8C O 0.2717(4) 0.7885(4) 0.7262(11)
O10C O 0.1685(5) 0.8909(5) 1.2480(13)
O11 O -0.0010(6) 0.7011(7) 0.601(2)
O12 O -0.0046(7) 0.7409(7) 0.400(3)
O13 O 0.0928(12) 0.7372(11) 0.879(4)
O14 O 0.0998(11) 0.6930(11) 0.626(5)
loop_
_geom_bond_atom_site_label_1
_geom_bond_atom_site_label_2
_geom_bond_site_symmetry_1
_geom_bond_site_symmetry_2
Np1 O1 1_555 1_555
Np2 O3 1_555 1_555
O2 Np1 1_555 1_555
O4 Np2 1_555 1_555
O5 Np1 1_555 1_555
H1 O5 1_555 1_555
O6 Np1 1_555 1_555
H2 O6 1_555 1_555
O7 Np1 1_555 1_555
O8 C1 1_555 1_555
O9 Np2 1_555 1_555
O10 C8 1_555 1_555
C1 O7 1_555 1_555
C2 C1 1_555 1_555
C3 C2 1_555 1_555
H3 C3 1_555 1_555
C4 C3 1_555 1_555
H4 C4 1_555 1_555
C5 C4 1_555 1_555
H5 C5 1_555 1_555
C6 C5 1_555 1_555
H6 C6 1_555 1_555
C7 C2 1_555 1_555
H7 C7 1_555 1_555
C8 O9 1_555 1_555
C9 C8 1_555 1_555
C10 C9 1_555 1_555
H8 C10 1_555 1_555
C11 C10 1_555 1_555
H9 C11 1_555 1_555
C12 C11 1_555 1_555
H10 C12 1_555 1_555
C13 C12 1_555 1_555
H11 C13 1_555 1_555
C14 C9 1_555 1_555
H12 C14 1_555 1_555
Np1C O6 1_555 1_555
Np1C_2 O8 1_555 1_555
Np2C O5 1_555 1_555
O5C Np2 1_555 1_555
H1C O5C 1_555 1_555
O6C Np1 1_555 1_555
H2C O6C 1_555 1_555
O8C Np1 1_555 1_555
O10C Np2 1_555 1_555
Np2 O5 1_555 1_555
Np2 O6C 1_555 1_555
O6 Np2C 1_555 1_555
O10 Np2C 1_555 1_555
C6 C7 1_555 1_555
C13 C14 1_555 1_555
Np1C_2 O5C 1_555 1_555
Np1C_2 O6C 1_555 1_555

#END
