
#######################################################################
#
#                 Cambridge Crystallographic Data Centre
#                                CCDC 
#
#######################################################################
#
# If this CIF has been generated from an entry in the Cambridge 
# Structural Database, then it will include bibliographic, chemical, 
# crystal, experimental, refinement or atomic coordinate data resulting 
# from the CCDC's data processing and validation procedures.
#
#######################################################################

data_UKETUA
_symmetry_cell_setting           monoclinic
_symmetry_space_group_name_H-M   'P 21/n'
_symmetry_Int_Tables_number      14
_space_group_name_Hall           '-P 2yn'
loop_
_symmetry_equiv_pos_site_id
_symmetry_equiv_pos_as_xyz
1 x,y,z
2 1/2-x,1/2+y,1/2-z
3 -x,-y,-z
4 1/2+x,1/2-y,1/2+z
_cell_length_a                   11.5818(6)
_cell_length_b                   16.2364(9)
_cell_length_c                   16.2417(9)
_cell_angle_alpha                90
_cell_angle_beta                 110.392(6)
_cell_angle_gamma                90
_cell_volume                     2862.79
loop_
_atom_site_label
_atom_site_type_symbol
_atom_site_fract_x
_atom_site_fract_y
_atom_site_fract_z
Cu1 Cu 0.47107(3) 0.61984(2) 0.84686(2)
Cu2 Cu 0.35346(3) 0.34814(2) 0.71560(2)
Cu3 Cu 0.23868(3) 0.69619(3) 0.70612(2)
Cl1 Cl 0.14827(8) 0.63488(5) 0.57729(5)
Cl2 Cl 0.46447(7) 0.46423(5) 0.83029(5)
C1 C 0.2435(3) 0.61824(19) 0.88354(19)
C2 C 0.1295(3) 0.57902(19) 0.8560(2)
H1 H 0.0941 0.5618 0.7980
C3 C 0.0692(3) 0.5656(2) 0.9140(2)
H2 H -0.0068 0.5391 0.8949
C4 C 0.1196(3) 0.5908(2) 1.0003(2)
H3 H 0.0764 0.5839 1.0386
C5 C 0.2346(3) 0.6262(2) 1.0289(2)
H4 H 0.2706 0.6412 1.0875
C6 C 0.2979(3) 0.63995(19) 0.97155(19)
C7 C 0.4245(3) 0.6768(2) 1.0026(2)
H5 H 0.4219 0.7309 0.9766
H6 H 0.4535 0.6832 1.0659
C8 C 0.6412(3) 0.6462(2) 1.0204(2)
H7 H 0.6725 0.6250 1.0799
H8 H 0.6499 0.7056 1.0227
C9 C 0.7116(3) 0.6097(2) 0.9672(2)
H9 H 0.7966 0.6279 0.9904
H10 H 0.7104 0.5501 0.9707
C10 C 0.7080(3) 0.5881(3) 0.8197(2)
H11 H 0.7945 0.5998 0.8371
H12 H 0.6680 0.6027 0.7591
H13 H 0.6964 0.5304 0.8273
C11 C 0.6770(3) 0.7250(2) 0.8653(3)
H14 H 0.6399 0.7566 0.8995
H15 H 0.6416 0.7408 0.8047
H16 H 0.7641 0.7352 0.8859
C12 C 0.1106(3) 0.36063(19) 0.7350(2)
C13 C 0.0462(3) 0.3550(2) 0.7931(2)
H17 H 0.0766 0.3218 0.8427
C14 C -0.0620(3) 0.3979(2) 0.7780(2)
H18 H -0.1061 0.3913 0.8157
C15 C -0.1051(3) 0.4504(2) 0.7072(2)
H19 H -0.1765 0.4808 0.6984
C16 C -0.0425(3) 0.4577(2) 0.6498(2)
H20 H -0.0720 0.4933 0.6021
C17 C 0.0647(3) 0.4128(2) 0.6618(2)
C18 C 0.1251(3) 0.4179(2) 0.5950(2)
H21 H 0.1131 0.3662 0.5632
H22 H 0.0856 0.4609 0.5532
C19 C 0.3131(3) 0.4507(2) 0.5653(2)
H23 H 0.2960 0.5068 0.5437
H24 H 0.2782 0.4134 0.5163
C20 C 0.4501(3) 0.4375(2) 0.6056(2)
H25 H 0.4866 0.4393 0.5602
H26 H 0.4867 0.4810 0.6475
C21 C 0.6063(3) 0.3536(2) 0.7055(2)
H27 H 0.6257 0.2999 0.7314
H28 H 0.6231 0.3942 0.7510
H29 H 0.6557 0.3645 0.6700
C22 C 0.4494(3) 0.2886(2) 0.5860(2)
H30 H 0.4984 0.2954 0.5495
H31 H 0.3637 0.2890 0.5502
H32 H 0.4695 0.2370 0.6167
O1 O 0.29918(18) 0.63447(14) 0.82586(13)
O2 O 0.21325(18) 0.31628(13) 0.74824(13)
N1 N 0.4098(2) 0.65981(17) 0.72045(16)
N2 N 0.4482(2) 0.65326(18) 0.66171(19)
N3 N 0.4843(3) 0.6482(2) 0.6048(2)
N4 N 0.4127(2) 0.24255(16) 0.77977(16)
N5 N 0.5127(3) 0.20889(18) 0.80936(18)
N6 N 0.6064(3) 0.1781(2) 0.8382(2)
N7 N 0.5105(2) 0.62323(17) 0.97776(15)
H33 H 0.5015 0.5712 0.9954
N8 N 0.6545(2) 0.63623(17) 0.87431(16)
N9 N 0.2582(2) 0.43532(16) 0.63294(16)
H34 H 0.2668 0.4825 0.6647
N10 N 0.4751(2) 0.35679(16) 0.65037(16)
Cu3A Cu 0.26132(3) 0.19619(3) 0.79388(2)
O2A O 0.28675(18) 0.81628(13) 0.75176(13)
N4A N 0.0873(2) 0.74255(16) 0.72023(16)
loop_
_geom_bond_atom_site_label_1
_geom_bond_atom_site_label_2
_geom_bond_site_symmetry_1
_geom_bond_site_symmetry_2
Cu1 Cl2 1_555 1_555
Cu2 Cl2 1_555 1_555
Cu3 Cl1 1_555 1_555
C1 C2 1_555 1_555
C2 H1 1_555 1_555
C3 C2 1_555 1_555
H2 C3 1_555 1_555
C4 C3 1_555 1_555
H3 C4 1_555 1_555
C5 C4 1_555 1_555
H4 C5 1_555 1_555
C6 C1 1_555 1_555
C7 C6 1_555 1_555
H5 C7 1_555 1_555
H6 C7 1_555 1_555
C8 H7 1_555 1_555
H8 C8 1_555 1_555
C9 C8 1_555 1_555
H9 C9 1_555 1_555
H10 C9 1_555 1_555
C10 H11 1_555 1_555
H12 C10 1_555 1_555
H13 C10 1_555 1_555
C11 H14 1_555 1_555
H15 C11 1_555 1_555
H16 C11 1_555 1_555
C12 C13 1_555 1_555
C13 H17 1_555 1_555
C14 C13 1_555 1_555
H18 C14 1_555 1_555
C15 C14 1_555 1_555
H19 C15 1_555 1_555
C16 C15 1_555 1_555
H20 C16 1_555 1_555
C17 C12 1_555 1_555
C18 C17 1_555 1_555
H21 C18 1_555 1_555
H22 C18 1_555 1_555
C19 H23 1_555 1_555
H24 C19 1_555 1_555
C20 C19 1_555 1_555
H25 C20 1_555 1_555
H26 C20 1_555 1_555
C21 H27 1_555 1_555
H28 C21 1_555 1_555
H29 C21 1_555 1_555
C22 H30 1_555 1_555
H31 C22 1_555 1_555
H32 C22 1_555 1_555
O1 Cu1 1_555 1_555
O2 Cu2 1_555 1_555
N1 Cu1 1_555 1_555
N2 N1 1_555 1_555
N3 N2 1_555 1_555
N4 Cu2 1_555 1_555
N5 N4 1_555 1_555
N6 N5 1_555 1_555
N7 Cu1 1_555 1_555
H33 N7 1_555 1_555
N8 Cu1 1_555 1_555
N9 Cu2 1_555 1_555
H34 N9 1_555 1_555
N10 Cu2 1_555 1_555
Cu3A O2 1_555 1_555
O2A Cu3 1_555 1_555
N4A Cu3 1_555 1_555
Cu3 O1 1_555 1_555
Cu3 N1 1_555 1_555
C1 O1 1_555 1_555
C5 C6 1_555 1_555
C7 N7 1_555 1_555
C8 N7 1_555 1_555
C9 N8 1_555 1_555
C10 N8 1_555 1_555
C11 N8 1_555 1_555
C12 O2 1_555 1_555
C16 C17 1_555 1_555
C18 N9 1_555 1_555
C19 N9 1_555 1_555
C20 N10 1_555 1_555
C21 N10 1_555 1_555
C22 N10 1_555 1_555
N4 Cu3A 1_555 1_555

#END
