
#######################################################################
#
#                 Cambridge Crystallographic Data Centre
#                                CCDC 
#
#######################################################################
#
# If this CIF has been generated from an entry in the Cambridge 
# Structural Database, then it will include bibliographic, chemical, 
# crystal, experimental, refinement or atomic coordinate data resulting 
# from the CCDC's data processing and validation procedures.
#
#######################################################################

data_UKETEJ
_symmetry_cell_setting           monoclinic
_symmetry_space_group_name_H-M   'P 21/c'
_symmetry_Int_Tables_number      14
_space_group_name_Hall           '-P 2ybc'
loop_
_symmetry_equiv_pos_site_id
_symmetry_equiv_pos_as_xyz
1 x,y,z
2 x,1/2-y,1/2+z
3 -x,-y,-z
4 -x,1/2+y,1/2-z
_cell_length_a                   8.3399(17)
_cell_length_b                   12.235(2)
_cell_length_c                   15.243(3)
_cell_angle_alpha                90
_cell_angle_beta                 103.95(3)
_cell_angle_gamma                90
_cell_volume                     1509.5
loop_
_atom_site_label
_atom_site_type_symbol
_atom_site_fract_x
_atom_site_fract_y
_atom_site_fract_z
Zn1 Zn 0.59225(3) 0.813519(18) 0.519001(18)
N1 N 0.7372(2) 0.92536(13) 0.59935(11)
N2 N 0.6510(2) 1.65574(13) 0.55973(12)
N3 N 0.3672(2) 0.84571(16) 0.52843(15)
N4 N 0.2636(2) 0.79121(15) 0.54688(13)
N5 N 0.1583(3) 0.7404(2) 0.56382(18)
N6 N 0.6564(2) 0.82774(16) 0.40342(13)
N7 N 0.6136(2) 0.77235(15) 0.33799(13)
N8 N 0.5759(3) 0.72284(19) 0.27186(17)
C1 C 0.6786(3) 0.98550(15) 0.65815(14)
H1 H 0.5745 0.9693 0.6668
C2 C 0.7665(3) 1.07016(16) 0.70624(14)
H2 H 0.7223 1.1087 0.7475
C3 C 0.9200(3) 1.09847(15) 0.69386(14)
C4 C 0.9821(3) 1.03452(16) 0.63451(15)
H3 H 1.0866 1.0486 0.6255
C5 C 0.8886(3) 0.95026(17) 0.58911(15)
H4 H 0.9322 0.9085 0.5494
C6 C 0.7825(3) 1.60551(16) 0.54419(16)
H5 H 0.8431 1.6410 0.5089
C7 C 0.8341(3) 1.50270(17) 0.57790(16)
H6 H 0.9274 1.4711 0.5652
C8 C 0.7470(3) 1.44736(15) 0.63026(14)
C9 C 0.6084(3) 1.49918(16) 0.64471(17)
H7 H 0.5442 1.4647 0.6786
C10 C 0.5647(3) 1.60157(17) 0.60924(16)
H8 H 0.4709 1.6345 0.6202
C11 C 0.7955(3) 1.33629(16) 0.67222(17)
H9 H 0.770(3) 1.3356(18) 0.7299(16)
H10 H 0.720(3) 1.2843(18) 0.6354(15)
C12 C 0.9735(3) 1.30140(16) 0.68239(15)
H11 H 1.049(3) 1.3597(17) 0.7133(14)
H12 H 0.996(2) 1.2891(15) 0.6224(14)
C13 C 1.0146(3) 1.19694(15) 0.73968(14)
H13 H 1.1321 1.1825 0.7509
H14 H 0.9883 1.2084 0.7976
N2_2 N 0.6510(2) 0.65574(13) 0.55973(12)
Zn1_2 Zn 0.59225(3) 1.813519(18) 0.519001(18)
loop_
_geom_bond_atom_site_label_1
_geom_bond_atom_site_label_2
_geom_bond_site_symmetry_1
_geom_bond_site_symmetry_2
Zn1 N1 1_555 1_555
N1 C1 1_555 1_555
N2 C6 1_555 1_555
N3 Zn1 1_555 1_555
N4 N3 1_555 1_555
N5 N4 1_555 1_555
N6 Zn1 1_555 1_555
N7 N6 1_555 1_555
N8 N7 1_555 1_555
C1 H1 1_555 1_555
C2 C1 1_555 1_555
H2 C2 1_555 1_555
C3 C2 1_555 1_555
C4 C3 1_555 1_555
H3 C4 1_555 1_555
C5 N1 1_555 1_555
H4 C5 1_555 1_555
C6 H5 1_555 1_555
C7 C6 1_555 1_555
H6 C7 1_555 1_555
C8 C7 1_555 1_555
C9 C8 1_555 1_555
H7 C9 1_555 1_555
C10 N2 1_555 1_555
H8 C10 1_555 1_555
C11 C8 1_555 1_555
H9 C11 1_555 1_555
H10 C11 1_555 1_555
C12 C11 1_555 1_555
H11 C12 1_555 1_555
H12 C12 1_555 1_555
C13 C3 1_555 1_555
H13 C13 1_555 1_555
H14 C13 1_555 1_555
N2_2 Zn1 1_555 1_555
Zn1_2 N2 1_555 1_555
C4 C5 1_555 1_555
C9 C10 1_555 1_555
C12 C13 1_555 1_555

#END
