
#######################################################################
#
#                 Cambridge Crystallographic Data Centre
#                                CCDC 
#
#######################################################################
#
# If this CIF has been generated from an entry in the Cambridge 
# Structural Database, then it will include bibliographic, chemical, 
# crystal, experimental, refinement or atomic coordinate data resulting 
# from the CCDC's data processing and validation procedures.
#
#######################################################################

data_UKEVEM
_symmetry_cell_setting           triclinic
_symmetry_space_group_name_H-M   'P -1'
_symmetry_Int_Tables_number      2
_space_group_name_Hall           '-P 1'
loop_
_symmetry_equiv_pos_site_id
_symmetry_equiv_pos_as_xyz
1 x,y,z
2 -x,-y,-z
_cell_length_a                   9.869(9)
_cell_length_b                   13.050(11)
_cell_length_c                   15.189(13)
_cell_angle_alpha                113.065(18)
_cell_angle_beta                 93.032(19)
_cell_angle_gamma                109.773(13)
_cell_volume                     1654.41
loop_
_atom_site_label
_atom_site_type_symbol
_atom_site_fract_x
_atom_site_fract_y
_atom_site_fract_z
Co1 Co 0.22985(14) 0.14096(11) 0.35226(9)
Co2 Co 0.09662(14) -0.14547(11) 0.14281(9)
C1 C -0.0231(10) -0.0763(8) 0.3322(8)
C2 C -0.1337(11) -0.1404(10) 0.3786(8)
H1 H -0.0861 -0.1711 0.4140
H2 H -0.1665 -0.0829 0.4252
C3 C -0.2601(12) -0.3482(10) 0.2551(9)
H3 H -0.1756 -0.3608 0.2684
C4 C -0.3759(14) -0.2209(10) 0.2829(9)
H4 H -0.3745 -0.1435 0.3159
C5 C -0.5013(12) -0.3105(9) 0.2120(9)
H5 H -0.5809 -0.2927 0.1977
C6 C -0.3770(12) -0.4423(9) 0.1850(8)
H6 H -0.3722 -0.5174 0.1513
C7 C -0.5048(11) -0.4235(7) 0.1646(7)
C8 C -0.6379(11) -0.5251(9) 0.0920(7)
C9 C -0.7634(12) -0.5072(9) 0.0739(8)
H7 H -0.7639 -0.4303 0.1055
C10 C -0.6459(12) -0.6412(9) 0.0397(9)
H8 H -0.5645 -0.6599 0.0476
C11 C -0.7740(13) -0.7283(9) -0.0238(9)
H9 H -0.7749 -0.8051 -0.0592
C12 C -0.8903(12) -0.6023(9) 0.0088(9)
H10 H -0.9738 -0.5868 -0.0009
C13 C -0.3072(11) 0.6067(8) 0.4824(7)
H11 H -0.4018 0.6038 0.4871
C14 C -0.0573(11) 0.7080(9) 0.5340(7)
H12 H 0.0239 0.7769 0.5758
C15 C -0.0331(11) 0.6141(8) 0.4677(7)
H13 H 0.0629 0.6192 0.4655
C16 C -0.2900(11) 0.5081(9) 0.4141(8)
H14 H -0.3728 0.4390 0.3748
C17 C -0.1508(11) 0.5103(9) 0.4030(7)
C18 C -0.1345(10) 0.4042(8) 0.3277(7)
C19 C -0.0143(12) 0.4171(10) 0.2841(8)
H15 H 0.0578 0.4939 0.3029
C20 C -0.2397(12) 0.2864(9) 0.2938(8)
H16 H -0.3234 0.2729 0.3201
C21 C -0.2220(13) 0.1905(9) 0.2225(8)
H17 H -0.2926 0.1125 0.2015
C22 C 0.0003(12) 0.3208(10) 0.2152(8)
H18 H 0.0842 0.3318 0.1889
C23 C -0.0784(12) 0.1054(9) 0.1140(7)
H19 H -0.1723 0.0378 0.0805
H20 H -0.0325 0.1264 0.0652
C24 C 0.0182(10) 0.0678(8) 0.1636(8)
O1 O -0.0414(7) -0.1316(6) 0.2410(5)
O3 O 0.0725(7) 0.0223(6) 0.3909(5)
O4 O 0.0394(7) -0.0251(6) 0.1072(5)
O5 O 0.0636(7) 0.1266(6) 0.2536(5)
O6 O 0.3827(9) 0.1629(7) 0.4678(6)
H23 H 0.489(15) 0.218(11) 0.493(9)
H24 H 0.399(14) 0.102(12) 0.474(9)
N1 N -0.2615(9) -0.2408(8) 0.3046(6)
N2 N -0.8970(9) -0.7127(7) -0.0393(6)
N3 N -0.1914(9) 0.7068(6) 0.5425(5)
N4 N -0.1041(10) 0.2089(7) 0.1835(6)
N5 N 0.2248(10) -0.1669(8) 0.0385(7)
N6 N 0.2438(12) -0.2568(12) -0.0109(9)
N7 N 0.267(2) -0.3402(14) -0.0610(12)
N8 N 0.1407(11) -0.2736(8) 0.1811(7)
N9 N 0.1498(10) -0.2699(8) 0.2566(9)
N10 N 0.1622(15) -0.2649(11) 0.3374(10)
N11 N 0.3879(10) 0.2610(8) 0.3118(7)
N12 N 0.3620(12) 0.3422(12) 0.3044(9)
N13 N 0.3446(14) 0.4369(14) 0.3060(11)
N14 N 0.2774(10) -0.0038(7) 0.2550(6)
N15 N 0.3948(11) -0.0085(8) 0.2734(6)
N16 N 0.5082(13) -0.0097(11) 0.2905(9)
Co1A Co -0.22985(14) 0.85904(11) 0.64774(9)
Co2A Co -1.09662(14) -0.85453(11) -0.14281(9)
N2A N -0.1030(9) -0.2873(7) 0.0393(6)
N3A N 0.1914(9) 0.2932(6) 0.4575(5)
O2 O -0.4158(17) -0.0983(15) 0.0774(15)
H21 H -0.43(3) -0.036(14) 0.07(2)
H22 H -0.49(2) -0.161(14) 0.029(12)
O7 O 0.4097(16) 0.1028(15) 0.1065(11)
H25 H 0.46(2) 0.174(11) 0.110(16)
H26 H 0.325(12) 0.08(2) 0.07(2)
O8 O 0.3261(15) -0.0375(9) 0.5092(8)
H27 H 0.31(2) -0.077(13) 0.544(10)
H28 H 0.32(2) -0.086(12) 0.452(5)
O9 O 0.6525(11) 0.3415(9) 0.5620(9)
H29 H 0.646(18) 0.411(10) 0.602(11)
H30 H 0.738(10) 0.350(14) 0.586(12)
loop_
_geom_bond_atom_site_label_1
_geom_bond_atom_site_label_2
_geom_bond_site_symmetry_1
_geom_bond_site_symmetry_2
Co1 O3 1_555 1_555
Co2 O1 1_555 1_555
C1 C2 1_555 1_555
C2 H1 1_555 1_555
H2 C2 1_555 1_555
C3 H3 1_555 1_555
C4 H4 1_555 1_555
C5 C4 1_555 1_555
H5 C5 1_555 1_555
C6 C3 1_555 1_555
H6 C6 1_555 1_555
C7 C5 1_555 1_555
C8 C7 1_555 1_555
C9 C8 1_555 1_555
H7 C9 1_555 1_555
C10 C8 1_555 1_555
H8 C10 1_555 1_555
C11 C10 1_555 1_555
H9 C11 1_555 1_555
C12 C9 1_555 1_555
H10 C12 1_555 1_555
C13 H11 1_555 1_555
C14 H12 1_555 1_555
C15 C14 1_555 1_555
H13 C15 1_555 1_555
C16 C13 1_555 1_555
H14 C16 1_555 1_555
C17 C15 1_555 1_555
C18 C17 1_555 1_555
C19 C18 1_555 1_555
H15 C19 1_555 1_555
C20 C18 1_555 1_555
H16 C20 1_555 1_555
C21 C20 1_555 1_555
H17 C21 1_555 1_555
C22 C19 1_555 1_555
H18 C22 1_555 1_555
C23 H19 1_555 1_555
H20 C23 1_555 1_555
C24 C23 1_555 1_555
O1 C1 1_555 1_555
O2 H21 1_555 1_555
H22 O2 1_555 1_555
O3 C1 1_555 1_555
O4 Co2 1_555 1_555
O5 Co1 1_555 1_555
O6 Co1 1_555 1_555
H23 O6 1_555 1_555
H24 O6 1_555 1_555
N1 C2 1_555 1_555
N2 C11 1_555 1_555
N3 C13 1_555 1_555
N4 C21 1_555 1_555
N5 Co2 1_555 1_555
N6 N5 1_555 1_555
N7 N6 1_555 1_555
N8 Co2 1_555 1_555
N9 N8 1_555 1_555
N10 N9 1_555 1_555
N11 Co1 1_555 1_555
N12 N11 1_555 1_555
N13 N12 1_555 1_555
N14 Co1 1_555 1_555
N15 N14 1_555 1_555
N16 N15 1_555 1_555
O7 H25 1_555 1_555
H26 O7 1_555 1_555
O8 H27 1_555 1_555
H28 O8 1_555 1_555
O9 H29 1_555 1_555
H30 O9 1_555 1_555
Co1A N3 1_555 1_555
Co2A N2 1_555 1_555
N2A Co2 1_555 1_555
N3A Co1 1_555 1_555
Co2 N14 1_555 1_555
C3 N1 1_555 1_555
C4 N1 1_555 1_555
C6 C7 1_555 1_555
C12 N2 1_555 1_555
C14 N3 1_555 1_555
C16 C17 1_555 1_555
C22 N4 1_555 1_555
C23 N4 1_555 1_555
C24 O4 1_555 1_555
C24 O5 1_555 1_555

#END
