
#######################################################################
#
#                 Cambridge Crystallographic Data Centre
#                                CCDC 
#
#######################################################################
#
# If this CIF has been generated from an entry in the Cambridge 
# Structural Database, then it will include bibliographic, chemical, 
# crystal, experimental, refinement or atomic coordinate data resulting 
# from the CCDC's data processing and validation procedures.
#
#######################################################################

data_UKEVIQ
_symmetry_cell_setting           triclinic
_symmetry_space_group_name_H-M   'P -1'
_symmetry_Int_Tables_number      2
_space_group_name_Hall           '-P 1'
loop_
_symmetry_equiv_pos_site_id
_symmetry_equiv_pos_as_xyz
1 x,y,z
2 -x,-y,-z
_cell_length_a                   10.979(2)
_cell_length_b                   15.309(3)
_cell_length_c                   21.552(4)
_cell_angle_alpha                81.932(6)
_cell_angle_beta                 88.500(6)
_cell_angle_gamma                85.318(7)
_cell_volume                     3574.19
loop_
_atom_site_label
_atom_site_type_symbol
_atom_site_fract_x
_atom_site_fract_y
_atom_site_fract_z
Mn1 Mn 0.59491(7) 0.86296(5) 0.75824(3)
Mn2 Mn 0.45525(7) 0.84949(5) 0.60882(3)
Mn3 Mn 0.60393(6) 0.62443(5) 1.24259(3)
Mn4 Mn 0.46903(6) 0.65438(5) 1.39610(3)
Mn5 Mn 0.94346(7) 0.54097(6) 0.87836(3)
Mn6 Mn 1.05720(9) 0.16625(7) 0.95319(4)
C1 C 0.3848(4) 0.7398(4) 0.7302(2)
C2 C 0.3172(5) 0.6631(4) 0.7642(2)
H1 H 0.2297 0.6771 0.7606
H2 H 0.3385 0.6101 0.7450
C3 C 0.2690(5) 0.6713(4) 0.8768(2)
H3 H 0.1898 0.6937 0.8662
C4 C 0.4624(5) 0.6136(4) 0.8473(2)
H4 H 0.5144 0.5955 0.8160
C5 C 0.3065(5) 0.6618(4) 0.9377(2)
H5 H 0.2511 0.6765 0.9687
C6 C 0.5059(5) 0.6038(4) 0.9070(2)
H6 H 0.5852 0.5804 0.9162
C7 C 0.4248(5) 0.6308(3) 0.9542(2)
C8 C 0.4664(4) 0.6235(4) 1.0198(2)
C9 C 0.3863(4) 0.6146(4) 1.0697(2)
H7 H 0.3038 0.6110 1.0624
C10 C 0.5901(5) 0.6266(4) 1.03364(19)
H8 H 0.6485 0.6336 1.0017
C11 C 0.4258(5) 0.6109(4) 1.1318(2)
H9 H 0.3686 0.6064 1.1645
C12 C 0.6238(5) 0.6191(4) 1.09648(19)
H10 H 0.7066 0.6177 1.1050
C13 C 0.4015(5) 1.0076(4) 0.6899(2)
C14 C 0.3492(5) 1.1008(4) 0.6787(3)
H11 H 0.4112 1.1373 0.6587
H12 H 0.3285 1.1204 0.7188
C15 C 0.2504(5) 1.1088(4) 0.5786(2)
H13 H 0.3274 1.1003 0.5604
C16 C 0.1315(6) 1.1284(6) 0.6626(3)
H14 H 0.1227 1.1313 0.7053
C17 C 0.1486(6) 1.1151(5) 0.5423(3)
H15 H 0.1584 1.1107 0.4999
C18 C 0.0324(7) 1.1387(6) 0.6280(3)
H16 H -0.0423 1.1543 0.6464
C19 C 0.0357(6) 1.1272(6) 0.5660(3)
C20 C -0.0765(6) 1.1251(6) 0.5264(3)
C21 C -0.0685(6) 1.1282(6) 0.4621(3)
H17 H 0.0077 1.1256 0.4423
C22 C -0.1888(5) 1.1161(4) 0.5525(2)
H18 H -0.1975 1.1047 0.5959
C23 C -0.1724(6) 1.1351(5) 0.4275(3)
H19 H -0.1647 1.1409 0.3841
C24 C -0.2907(5) 1.1236(4) 0.5156(2)
H20 H -0.3672 1.1213 0.5351
C25 C 0.4219(5) 0.4993(4) 1.3183(2)
C26 C 0.3569(5) 0.4170(4) 1.3212(2)
H21 H 0.4129 0.3674 1.3377
H22 H 0.3382 0.4091 1.2787
C27 C 0.1394(5) 0.4131(4) 1.3322(2)
H23 H 0.1374 0.4169 1.2888
C28 C 0.2517(5) 0.4070(4) 1.4200(2)
H24 H 0.3276 0.4085 1.4378
C29 C 0.0294(5) 0.4084(5) 1.3669(2)
H25 H -0.0451 0.4127 1.3467
C30 C 0.1463(4) 0.3990(4) 1.4586(2)
H26 H 0.1520 0.3950 1.5019
C31 C 0.0341(5) 0.3971(4) 1.4308(2)
C32 C -0.0796(5) 0.3805(5) 1.4693(2)
C33 C -0.1941(5) 0.3721(4) 1.4409(2)
H27 H -0.2008 0.3752 1.3977
C34 C -0.0779(4) 0.3718(5) 1.5339(2)
H28 H -0.0056 0.3764 1.5544
C35 C -0.2924(5) 0.3593(4) 1.4799(2)
H29 H -0.3668 0.3560 1.4610
C36 C -0.1854(5) 0.3559(4) 1.5684(2)
H30 H -0.1822 0.3483 1.6119
C37 C 0.3890(5) 0.7658(4) 1.2749(2)
C38 C 0.3357(6) 0.8547(4) 1.2428(2)
H31 H 0.2476 0.8594 1.2484
H32 H 0.3684 0.9021 1.2611
C39 C 0.4712(6) 0.8931(4) 1.1555(2)
H33 H 0.5219 0.9121 1.1839
C40 C 0.2915(6) 0.8325(4) 1.1352(2)
H34 H 0.2178 0.8105 1.1494
C41 C 0.5074(6) 0.8978(4) 1.0928(2)
H35 H 0.5807 0.9212 1.0795
C42 C 0.3278(6) 0.8359(4) 1.0729(3)
H36 H 0.2766 0.8153 1.0454
C43 C 0.4338(5) 0.8675(3) 1.0500(2)
C44 C 0.4744(5) 0.8670(4) 0.98366(19)
C45 C 0.5943(6) 0.8527(4) 0.9673(2)
H37 H 0.6539 0.8413 0.9978
C46 C 0.3894(6) 0.8860(4) 0.9365(2)
H38 H 0.3075 0.8997 0.9459
C47 C 0.6267(5) 0.8556(5) 0.9038(2)
H39 H 0.7084 0.8452 0.8924
C48 C 0.4282(5) 0.8842(4) 0.8751(2)
H40 H 0.3697 0.8915 0.8440
N1 N 0.6259(4) 0.8409(3) 0.66240(18)
N2 N 0.7243(5) 0.8274(4) 0.6388(2)
N3 N 0.8186(5) 0.8140(5) 0.6170(3)
N4 N 0.6371(4) 0.6470(3) 1.33776(18)
N5 N 0.7388(4) 0.6378(4) 1.35859(18)
N6 N 0.8297(6) 0.6169(6) 1.3805(3)
N7 N 0.5427(4) 0.7457(3) 0.55625(19)
N8 N 0.5444(4) 0.7485(3) 0.50118(17)
N9 N 0.5512(4) 0.7535(3) 0.44695(18)
N10 N 0.7219(5) 0.7432(4) 0.7879(3)
N11 N 0.7498(5) 0.6696(4) 0.8073(2)
N12 N 0.7775(4) 0.5934(4) 0.8244(2)
N13 N 0.8263(4) 0.5147(4) 0.9664(2)
N14 N 0.8645(4) 0.5147(4) 1.0149(2)
N15 N 0.8947(6) 0.5110(4) 1.0693(2)
N16 N 0.9167(6) 0.4105(4) 0.8562(2)
N17 N 0.9178(5) 0.3434(4) 0.8896(3)
N18 N 0.9184(6) 0.2746(4) 0.9249(3)
N19 N 0.9349(5) 0.4434(4) 1.2081(2)
N20 N 0.8569(4) 0.4933(3) 1.2202(2)
N21 N 0.7740(5) 0.5366(4) 1.2359(3)
N22 N 1.0397(5) 0.0948(4) 0.8750(3)
N23 N 1.1155(6) 0.0662(4) 0.8406(3)
N24 N 1.2057(6) 0.0356(5) 0.8170(3)
N25 N 0.7921(6) 0.7803(5) 1.1047(3)
N26 N 0.7520(6) 0.7627(4) 1.1554(3)
N27 N 0.7085(5) 0.7418(4) 1.2048(2)
N28 N 0.8809(5) 0.7717(4) 0.9680(3)
N29 N 0.9351(5) 0.7207(4) 0.9398(3)
N30 N 0.9681(5) 0.6760(4) 0.8998(3)
N31 N 1.1778(5) 0.0414(4) 0.9877(3)
N32 N 1.1317(6) -0.0278(5) 0.9903(3)
N33 N 1.0920(6) -0.0988(5) 0.9910(3)
N34 N 0.5412(5) 0.9447(4) 0.5364(2)
N35 N 0.5000 1.0000 0.5000
N36 N 0.5547(5) 0.5554(4) 1.4723(2)
N37 N 0.5000 0.5000 1.5000
N38 N 0.3513(4) 0.6471(3) 0.83157(16)
N39 N 0.5457(4) 0.6137(3) 1.14485(16)
N40 N 0.2401(4) 1.1146(3) 0.63965(19)
N41 N -0.2847(4) 1.1340(3) 0.45333(19)
N42 N 0.2427(4) 0.4124(3) 1.35892(19)
N43 N -0.2932(4) 0.3510(3) 1.54133(17)
N44 N 0.3678(4) 0.8626(3) 1.17495(17)
N45 N 0.5417(4) 0.8731(3) 0.85892(17)
O1 O 0.4382(4) 0.7840(2) 0.76162(14)
O2 O 0.3688(3) 0.7494(2) 0.67126(14)
O3 O 0.3656(4) 0.9565(3) 0.65670(19)
O4 O 0.4852(3) 0.9894(2) 0.72980(15)
O5 O 0.3928(3) 0.5515(2) 1.35708(15)
O6 O 0.4992(3) 0.5096(2) 1.27365(14)
O7 O 0.4366(3) 0.7124(3) 1.24475(14)
O8 O 0.3792(3) 0.7602(2) 1.33503(13)
O9 O 0.7539(4) 0.9372(4) 0.7633(2)
H41 H 0.788(7) 0.962(5) 0.792(2)
H42 H 0.797(6) 0.950(5) 0.7287(19)
Mn1A Mn -0.59491(7) 1.13704(5) 0.24176(3)
Mn2A Mn -0.45525(7) 1.15051(5) 0.39118(3)
Mn2A_2 Mn 0.54475(7) 1.15051(5) 0.39118(3)
Mn2_2 Mn 0.45525(7) 0.84949(5) 1.60882(3)
Mn3A Mn 1.39607(6) 0.37557(5) 0.75741(3)
Mn3A_2 Mn -0.60393(6) 0.37557(5) 1.75741(3)
Mn3A_3 Mn -0.60393(6) 1.37557(5) -0.24259(3)
Mn4_2 Mn 0.46903(6) 0.65438(5) 0.39610(3)
Mn4A Mn -0.46903(6) 0.34562(5) 1.60390(3)
Mn4A_2 Mn 0.53097(6) 0.34562(5) 1.60390(3)
Mn4A_3 Mn -0.46903(6) 1.34562(5) -0.39610(3)
Mn4A_4 Mn 1.53097(6) 0.34562(5) 0.60390(3)
Mn5A Mn 1.05654(7) 0.45903(6) 1.12164(3)
Mn5A_2 Mn -0.94346(7) 1.45903(6) 0.12164(3)
Mn6A Mn 0.94280(9) 0.83375(7) 1.04681(4)
Mn6A_2 Mn 0.94280(9) -0.16625(7) 1.04681(4)
C1A C -0.3848(4) 1.2602(4) 0.2698(2)
C2A C -0.3172(5) 1.3369(4) 0.2358(2)
H1A H -0.2297 1.3229 0.2394
H2A H -0.3385 1.3899 0.2550
C3A C -0.2690(5) 1.3287(4) 0.1232(2)
H3A H -0.1898 1.3063 0.1338
C4A C -0.4624(5) 1.3864(4) 0.1527(2)
H4A H -0.5144 1.4045 0.1840
C5A C -0.3065(5) 1.3382(4) 0.0623(2)
H5A H -0.2511 1.3235 0.0313
C6A C -0.5059(5) 1.3962(4) 0.0930(2)
H6A H -0.5852 1.4196 0.0838
C7A C -0.4248(5) 1.3692(3) 0.0458(2)
C8A C -0.4664(4) 1.3765(4) -0.0198(2)
C9A C -0.3863(4) 1.3854(4) -0.0697(2)
H7A H -0.3038 1.3890 -0.0624
C10A C -0.5901(5) 1.3734(4) -0.03364(19)
H8A H -0.6485 1.3664 -0.0017
C11A C -0.4258(5) 1.3891(4) -0.1318(2)
H9A H -0.3686 1.3936 -0.1645
C12A C -0.6238(5) 1.3809(4) -0.09648(19)
H10A H -0.7066 1.3823 -0.1050
C13A C -0.4015(5) 0.9924(4) 0.3101(2)
C14A C -0.3492(5) 0.8992(4) 0.3213(3)
H11A H -0.4112 0.8627 0.3413
H12A H -0.3285 0.8796 0.2812
C15A C -0.2504(5) 0.8912(4) 0.4214(2)
H13A H -0.3274 0.8997 0.4396
C16A C -0.1315(6) 0.8716(6) 0.3374(3)
H14A H -0.1227 0.8687 0.2947
C17A C -0.1486(6) 0.8849(5) 0.4577(3)
H15A H -0.1584 0.8893 0.5001
C18A C -0.0324(7) 0.8613(6) 0.3720(3)
H16A H 0.0423 0.8457 0.3536
C19A C -0.0357(6) 0.8728(6) 0.4340(3)
C20A C 0.0765(6) 0.8749(6) 0.4736(3)
C21A C 0.0685(6) 0.8718(6) 0.5379(3)
H17A H -0.0077 0.8744 0.5577
C22A C 0.1888(5) 0.8839(4) 0.4475(2)
H18A H 0.1975 0.8953 0.4041
C23A C 0.1724(6) 0.8649(5) 0.5725(3)
H19A H 0.1647 0.8591 0.6159
C24A C 0.2907(5) 0.8764(4) 0.4844(2)
H20A H 0.3672 0.8787 0.4649
C25A C -0.4219(5) 0.5007(4) 1.6817(2)
C26A C -0.3569(5) 0.5830(4) 1.6788(2)
H21A H -0.4129 0.6326 1.6623
H22A H -0.3382 0.5909 1.7213
C27A C -0.1394(5) 0.5869(4) 1.6678(2)
H23A H -0.1374 0.5831 1.7112
C28A C -0.2517(5) 0.5930(4) 1.5800(2)
H24A H -0.3276 0.5915 1.5622
C29A C -0.0294(5) 0.5916(5) 1.6331(2)
H25A H 0.0451 0.5873 1.6533
C30A C -0.1463(4) 0.6010(4) 1.5414(2)
H26A H -0.1520 0.6050 1.4981
C31A C -0.0341(5) 0.6029(4) 1.5692(2)
C32A C 0.0796(5) 0.6195(5) 1.5307(2)
C33A C 0.1941(5) 0.6279(4) 1.5591(2)
H27A H 0.2008 0.6248 1.6023
C34A C 0.0779(4) 0.6282(5) 1.4661(2)
H28A H 0.0056 0.6236 1.4456
C35A C 0.2924(5) 0.6407(4) 1.5201(2)
H29A H 0.3668 0.6440 1.5390
C36A C 0.1854(5) 0.6441(4) 1.4316(2)
H30A H 0.1822 0.6517 1.3881
C37A C -0.3890(5) 1.2342(4) -0.2749(2)
C38A C -0.3357(6) 1.1453(4) -0.2428(2)
H31A H -0.2476 1.1406 -0.2484
H32A H -0.3684 1.0979 -0.2611
C39A C -0.4712(6) 1.1069(4) -0.1555(2)
H33A H -0.5219 1.0879 -0.1839
C40A C -0.2915(6) 1.1675(4) -0.1352(2)
H34A H -0.2178 1.1895 -0.1494
C41A C -0.5074(6) 1.1022(4) -0.0928(2)
H35A H -0.5807 1.0788 -0.0795
C42A C -0.3278(6) 1.1641(4) -0.0729(3)
H36A H -0.2766 1.1847 -0.0454
C43A C -0.4338(5) 1.1325(3) -0.0500(2)
C44A C -0.4744(5) 1.1330(4) 0.01634(19)
C45A C -0.5943(6) 1.1473(4) 0.0327(2)
H37A H -0.6539 1.1587 0.0022
C46A C -0.3894(6) 1.1140(4) 0.0635(2)
H38A H -0.3075 1.1003 0.0541
C47A C -0.6267(5) 1.1444(5) 0.0962(2)
H39A H -0.7084 1.1548 0.1076
C48A C -0.4282(5) 1.1158(4) 0.1249(2)
H40A H -0.3697 1.1085 0.1560
N1A N -0.6259(4) 1.1591(3) 0.33760(18)
N2A N -0.7243(5) 1.1726(4) 0.3612(2)
N3A N -0.8186(5) 1.1860(5) 0.3830(3)
N4A N 1.3629(4) 0.3530(3) 0.66224(18)
N4_2 N 0.6371(4) 0.6470(3) 0.33776(18)
N5A N 1.2612(4) 0.3622(4) 0.64141(18)
N6A N 1.1703(6) 0.3831(6) 0.6195(3)
N7_2 N 0.5427(4) 0.7457(3) 1.55625(19)
N7A N -0.5427(4) 1.2543(3) 0.44375(19)
N8_2 N 0.5444(4) 0.7485(3) 1.50118(17)
N9_2 N 0.5512(4) 0.7535(3) 1.44695(18)
N10A N -0.7219(5) 1.2568(4) 0.2121(3)
N11A N -0.7498(5) 1.3304(4) 0.1927(2)
N12A N -0.7775(4) 1.4066(4) 0.1756(2)
N12A_2 N 1.2225(4) 0.4066(4) 1.1756(2)
N13A N 1.1737(4) 0.4853(4) 1.0336(2)
N14A N 1.1355(4) 0.4853(4) 0.9851(2)
N15A N 1.1053(6) 0.4890(4) 0.9307(2)
N16A N 1.0833(6) 0.5895(4) 1.1438(2)
N17A N 1.0822(5) 0.6566(4) 1.1104(3)
N18A N 1.0816(6) 0.7254(4) 1.0751(3)
N19A N 1.0651(5) 0.5566(4) 0.7919(2)
N20A N 1.1431(4) 0.5067(3) 0.7798(2)
N21A N 1.2260(5) 0.4634(4) 0.7641(3)
N22A N 0.9603(5) 0.9052(4) 1.1250(3)
N23A N 0.8845(6) 0.9338(4) 1.1594(3)
N24A N 0.7943(6) 0.9644(5) 1.1830(3)
N25A N 1.2079(6) 0.2197(5) 0.8953(3)
N26A N 1.2480(6) 0.2373(4) 0.8446(3)
N27A N 1.2915(5) 0.2582(4) 0.7952(2)
N28A N 1.1191(5) 0.2283(4) 1.0320(3)
N29A N 1.0649(5) 0.2793(4) 1.0602(3)
N30A N 1.0319(5) 0.3240(4) 1.1002(3)
N31A N 0.8222(5) -0.0414(4) 1.0123(3)
N31A_2 N 0.8222(5) 0.9586(4) 1.0123(3)
N32A N 0.8683(6) 0.0278(5) 1.0097(3)
N33A N 0.9080(6) 0.0988(5) 1.0090(3)
N33_2 N 1.0920(6) 0.9012(5) 0.9910(3)
N34A N 0.4588(5) 1.0553(4) 0.4636(2)
N34A_2 N -0.5412(5) 1.0553(4) 0.4636(2)
N36A N 0.4453(5) 0.4446(4) 1.5277(2)
N36_2 N 0.5547(5) 0.5554(4) 0.4723(2)
N38A N -0.3513(4) 1.3529(3) 0.16843(16)
N39A N -0.5457(4) 1.3863(3) -0.14485(16)
N39A_2 N 1.4543(4) 0.3863(3) 0.85515(16)
N40A N -0.2401(4) 0.8854(3) 0.36035(19)
N41A N 0.2847(4) 0.8660(3) 0.54667(19)
N42A N -0.2427(4) 0.5876(3) 1.64108(19)
N43A N 0.2932(4) 0.6490(3) 1.45867(17)
N43A_2 N 0.2932(4) 0.6490(3) 0.45867(17)
N44A N -0.3678(4) 1.1374(3) -0.17495(17)
N45A N -0.5417(4) 1.1269(3) 0.14108(17)
O1A O -0.4382(4) 1.2160(2) 0.23838(14)
O2A O -0.3688(3) 1.2506(2) 0.32874(14)
O3A O -0.3656(4) 1.0435(3) 0.34330(19)
O4A O -0.4852(3) 1.0106(2) 0.27020(15)
O5A O -0.3928(3) 0.4485(2) 1.64292(15)
O5_2 O 0.3928(3) 0.5515(2) 0.35708(15)
O6A O -0.4992(3) 0.4904(2) 1.72635(14)
O6A_2 O 1.5008(3) 0.4904(2) 0.72635(14)
O7A O -0.4366(3) 1.2876(3) -0.24475(14)
O7A_2 O 1.5634(3) 0.2876(3) 0.75525(14)
O8A O -0.3792(3) 1.2398(2) -0.33503(13)
O8_2 O 0.3792(3) 0.7602(2) 0.33503(13)
O9A O -0.7539(4) 1.0628(4) 0.2367(2)
H41A H -0.788(7) 1.038(5) 0.208(2)
H42A H -0.797(6) 1.050(5) 0.2713(19)
O10 O 1.8429(9) -0.0228(9) 0.8692(4)
O11 O 1.9255(9) -0.8104(7) 0.7590(4)
O12 O 1.9648(12) -0.6185(7) 0.7183(4)
O13 O 0.1091(17) 0.8470(9) 0.8641(11)
O14 O 0.9428(18) 0.9292(13) 0.6946(9)
O15? O 0.029(3) 0.7816(18) 0.7380(11)
loop_
_geom_bond_atom_site_label_1
_geom_bond_atom_site_label_2
_geom_bond_site_symmetry_1
_geom_bond_site_symmetry_2
Mn1 N1 1_555 1_555
Mn2 N1 1_555 1_555
Mn3 N4 1_555 1_555
Mn4 N4 1_555 1_555
Mn5 N12 1_555 1_555
Mn6 N18 1_555 1_555
C1 C2 1_555 1_555
C2 H1 1_555 1_555
H2 C2 1_555 1_555
C3 H3 1_555 1_555
C4 H4 1_555 1_555
C5 C3 1_555 1_555
H5 C5 1_555 1_555
C6 C4 1_555 1_555
H6 C6 1_555 1_555
C7 C5 1_555 1_555
C8 C7 1_555 1_555
C9 C8 1_555 1_555
H7 C9 1_555 1_555
C10 C8 1_555 1_555
H8 C10 1_555 1_555
C11 C9 1_555 1_555
H9 C11 1_555 1_555
C12 C10 1_555 1_555
H10 C12 1_555 1_555
C13 C14 1_555 1_555
C14 H11 1_555 1_555
H12 C14 1_555 1_555
C15 H13 1_555 1_555
C16 H14 1_555 1_555
C17 C15 1_555 1_555
H15 C17 1_555 1_555
C18 C16 1_555 1_555
H16 C18 1_555 1_555
C19 C17 1_555 1_555
C20 C19 1_555 1_555
C21 C20 1_555 1_555
H17 C21 1_555 1_555
C22 C20 1_555 1_555
H18 C22 1_555 1_555
C23 C21 1_555 1_555
H19 C23 1_555 1_555
C24 C22 1_555 1_555
H20 C24 1_555 1_555
C25 C26 1_555 1_555
C26 H21 1_555 1_555
H22 C26 1_555 1_555
C27 H23 1_555 1_555
C28 H24 1_555 1_555
C29 C27 1_555 1_555
H25 C29 1_555 1_555
C30 C28 1_555 1_555
H26 C30 1_555 1_555
C31 C29 1_555 1_555
C32 C31 1_555 1_555
C33 C32 1_555 1_555
H27 C33 1_555 1_555
C34 C32 1_555 1_555
H28 C34 1_555 1_555
C35 C33 1_555 1_555
H29 C35 1_555 1_555
C36 C34 1_555 1_555
H30 C36 1_555 1_555
C37 C38 1_555 1_555
C38 H31 1_555 1_555
H32 C38 1_555 1_555
C39 H33 1_555 1_555
C40 H34 1_555 1_555
C41 C39 1_555 1_555
H35 C41 1_555 1_555
C42 C40 1_555 1_555
H36 C42 1_555 1_555
C43 C41 1_555 1_555
C44 C43 1_555 1_555
C45 C44 1_555 1_555
H37 C45 1_555 1_555
C46 C44 1_555 1_555
H38 C46 1_555 1_555
C47 C45 1_555 1_555
H39 C47 1_555 1_555
C48 C46 1_555 1_555
H40 C48 1_555 1_555
N1 N2 1_555 1_555
N2 N3 1_555 1_555
N4 N5 1_555 1_555
N5 N6 1_555 1_555
N7 Mn2 1_555 1_555
N8 N7 1_555 1_555
N9 N8 1_555 1_555
N10 Mn1 1_555 1_555
N11 N10 1_555 1_555
N12 N11 1_555 1_555
N13 Mn5 1_555 1_555
N14 N13 1_555 1_555
N15 N14 1_555 1_555
N16 Mn5 1_555 1_555
N17 N16 1_555 1_555
N18 N17 1_555 1_555
N19 N20 1_555 1_555
N20 N21 1_555 1_555
N21 Mn3 1_555 1_555
N22 Mn6 1_555 1_555
N23 N22 1_555 1_555
N24 N23 1_555 1_555
N25 N26 1_555 1_555
N26 N27 1_555 1_555
N27 Mn3 1_555 1_555
N28 N29 1_555 1_555
N29 N30 1_555 1_555
N30 Mn5 1_555 1_555
N31 Mn6 1_555 1_555
N32 N31 1_555 1_555
N33 N32 1_555 1_555
N34 Mn2 1_555 1_555
N35 N34 1_555 1_555
N36 Mn4 1_555 1_555
N37 N36 1_555 1_555
N38 C2 1_555 1_555
N39 Mn3 1_555 1_555
N40 C14 1_555 1_555
N41 C23 1_555 1_555
N42 C26 1_555 1_555
N43 C35 1_555 1_555
N44 C38 1_555 1_555
N45 Mn1 1_555 1_555
O1 Mn1 1_555 1_555
O2 Mn2 1_555 1_555
O3 Mn2 1_555 1_555
O4 Mn1 1_555 1_555
O5 Mn4 1_555 1_555
O6 Mn3 1_555 1_555
O7 Mn3 1_555 1_555
O8 Mn4 1_555 1_555
O9 Mn1 1_555 1_555
H41 O9 1_555 1_555
H42 O9 1_555 1_555
Mn1A N1A 1_555 1_555
Mn2A N41 1_555 1_555
Mn2A_2 N34A 1_555 1_555
Mn2_2 N7_2 1_555 1_555
Mn3A N4A 1_555 1_555
Mn3A_2 O6A 1_555 1_555
Mn3A_3 N39A 1_555 1_555
Mn4_2 N9 1_555 1_555
Mn4A N43 1_555 1_555
Mn4A_2 N36A 1_555 1_555
Mn4A_3 O8A 1_555 1_555
Mn4A_4 N4A 1_555 1_555
Mn5A N15 1_555 1_555
Mn5A_2 N12A 1_555 1_555
Mn6A N25 1_555 1_555
Mn6A_2 N33 1_555 1_555
C1A C2A 1_555 1_555
C2A H1A 1_555 1_555
H2A C2A 1_555 1_555
C3A H3A 1_555 1_555
C4A H4A 1_555 1_555
C5A C3A 1_555 1_555
H5A C5A 1_555 1_555
C6A C4A 1_555 1_555
H6A C6A 1_555 1_555
C7A C5A 1_555 1_555
C8A C7A 1_555 1_555
C9A C8A 1_555 1_555
H7A C9A 1_555 1_555
C10A C8A 1_555 1_555
H8A C10A 1_555 1_555
C11A C9A 1_555 1_555
H9A C11A 1_555 1_555
C12A C10A 1_555 1_555
H10A C12A 1_555 1_555
C13A C14A 1_555 1_555
C14A H11A 1_555 1_555
H12A C14A 1_555 1_555
C15A H13A 1_555 1_555
C16A H14A 1_555 1_555
C17A C15A 1_555 1_555
H15A C17A 1_555 1_555
C18A C16A 1_555 1_555
H16A C18A 1_555 1_555
C19A C17A 1_555 1_555
C20A C19A 1_555 1_555
C21A C20A 1_555 1_555
H17A C21A 1_555 1_555
C22A C20A 1_555 1_555
H18A C22A 1_555 1_555
C23A C21A 1_555 1_555
H19A C23A 1_555 1_555
C24A C22A 1_555 1_555
H20A C24A 1_555 1_555
C25A C26A 1_555 1_555
C26A H21A 1_555 1_555
H22A C26A 1_555 1_555
C27A H23A 1_555 1_555
C28A H24A 1_555 1_555
C29A C27A 1_555 1_555
H25A C29A 1_555 1_555
C30A C28A 1_555 1_555
H26A C30A 1_555 1_555
C31A C29A 1_555 1_555
C32A C31A 1_555 1_555
C33A C32A 1_555 1_555
H27A C33A 1_555 1_555
C34A C32A 1_555 1_555
H28A C34A 1_555 1_555
C35A C33A 1_555 1_555
H29A C35A 1_555 1_555
C36A C34A 1_555 1_555
H30A C36A 1_555 1_555
C37A C38A 1_555 1_555
C38A H31A 1_555 1_555
H32A C38A 1_555 1_555
C39A H33A 1_555 1_555
C40A H34A 1_555 1_555
C41A C39A 1_555 1_555
H35A C41A 1_555 1_555
C42A C40A 1_555 1_555
H36A C42A 1_555 1_555
C43A C41A 1_555 1_555
C44A C43A 1_555 1_555
C45A C44A 1_555 1_555
H37A C45A 1_555 1_555
C46A C44A 1_555 1_555
H38A C46A 1_555 1_555
C47A C45A 1_555 1_555
H39A C47A 1_555 1_555
C48A C46A 1_555 1_555
H40A C48A 1_555 1_555
N1A Mn2A 1_555 1_555
N2A N1A 1_555 1_555
N3A N2A 1_555 1_555
N4A N5A 1_555 1_555
N4_2 Mn4_2 1_555 1_555
N5A N6A 1_555 1_555
N7_2 N8_2 1_555 1_555
N7A Mn2A 1_555 1_555
N8_2 N9_2 1_555 1_555
N9_2 Mn4 1_555 1_555
N10A Mn1A 1_555 1_555
N11A N10A 1_555 1_555
N12A N11A 1_555 1_555
N12A_2 Mn5A 1_555 1_555
N13A Mn5A 1_555 1_555
N14A N13A 1_555 1_555
N15A Mn5 1_555 1_555
N16A Mn5A 1_555 1_555
N17A N16A 1_555 1_555
N18A Mn6A 1_555 1_555
N19A Mn5 1_555 1_555
N20A N19A 1_555 1_555
N21A Mn3A 1_555 1_555
N22A Mn6A 1_555 1_555
N23A N22A 1_555 1_555
N24A N23A 1_555 1_555
N25A Mn6 1_555 1_555
N26A N25A 1_555 1_555
N27A Mn3A 1_555 1_555
N28A Mn6 1_555 1_555
N29A N28A 1_555 1_555
N30A Mn5A 1_555 1_555
N31A Mn6A_2 1_555 1_555
N31A_2 Mn6A 1_555 1_555
N32A N31A 1_555 1_555
N33A Mn6 1_555 1_555
N33_2 Mn6A 1_555 1_555
N34A N35 1_555 1_555
N34A_2 Mn2A 1_555 1_555
N36A N37 1_555 1_555
N36_2 Mn4_2 1_555 1_555
N38A C2A 1_555 1_555
N39A C11A 1_555 1_555
N39A_2 Mn3A 1_555 1_555
N40A C14A 1_555 1_555
N41A Mn2 1_555 1_555
N42A C26A 1_555 1_555
N43A Mn4 1_555 1_555
N43A_2 Mn4_2 1_555 1_555
N44A C38A 1_555 1_555
N45A Mn1A 1_555 1_555
O1A Mn1A 1_555 1_555
O2A Mn2A 1_555 1_555
O3A Mn2A 1_555 1_555
O4A Mn1A 1_555 1_555
O5A Mn4A 1_555 1_555
O5_2 Mn4_2 1_555 1_555
O6A C25A 1_555 1_555
O6A_2 Mn3A 1_555 1_555
O7A Mn3A_3 1_555 1_555
O7A_2 Mn3A 1_555 1_555
O8A C37A 1_555 1_555
O8_2 Mn4_2 1_555 1_555
O9A Mn1A 1_555 1_555
H41A O9A 1_555 1_555
H42A O9A 1_555 1_555
C1 O1 1_555 1_555
C1 O2 1_555 1_555
C3 N38 1_555 1_555
C4 N38 1_555 1_555
C6 C7 1_555 1_555
C11 N39 1_555 1_555
C12 N39 1_555 1_555
C13 O3 1_555 1_555
C13 O4 1_555 1_555
C15 N40 1_555 1_555
C16 N40 1_555 1_555
C18 C19 1_555 1_555
C24 N41 1_555 1_555
C25 O5 1_555 1_555
C25 O6 1_555 1_555
C27 N42 1_555 1_555
C28 N42 1_555 1_555
C30 C31 1_555 1_555
C36 N43 1_555 1_555
C37 O7 1_555 1_555
C37 O8 1_555 1_555
C39 N44 1_555 1_555
C40 N44 1_555 1_555
C42 C43 1_555 1_555
C47 N45 1_555 1_555
C48 N45 1_555 1_555
N19 Mn5A 1_555 1_555
N28 Mn6A 1_555 1_555
C1A O1A 1_555 1_555
C1A O2A 1_555 1_555
C3A N38A 1_555 1_555
C4A N38A 1_555 1_555
C6A C7A 1_555 1_555
C12A N39A 1_555 1_555
C13A O3A 1_555 1_555
C13A O4A 1_555 1_555
C15A N40A 1_555 1_555
C16A N40A 1_555 1_555
C18A C19A 1_555 1_555
C23A N41A 1_555 1_555
C24A N41A 1_555 1_555
C25A O5A 1_555 1_555
C27A N42A 1_555 1_555
C28A N42A 1_555 1_555
C30A C31A 1_555 1_555
C35A N43A 1_555 1_555
C36A N43A 1_555 1_555
C37A O7A 1_555 1_555
C39A N44A 1_555 1_555
C40A N44A 1_555 1_555
C42A C43A 1_555 1_555
C47A N45A 1_555 1_555
C48A N45A 1_555 1_555
N14A N15A 1_555 1_555
N17A N18A 1_555 1_555
N20A N21A 1_555 1_555
N26A N27A 1_555 1_555
N29A N30A 1_555 1_555
N32A N33A 1_555 1_555

#END
