
#######################################################################
#
#                 Cambridge Crystallographic Data Centre
#                                CCDC 
#
#######################################################################
#
# If this CIF has been generated from an entry in the Cambridge 
# Structural Database, then it will include bibliographic, chemical, 
# crystal, experimental, refinement or atomic coordinate data resulting 
# from the CCDC's data processing and validation procedures.
#
#######################################################################

data_UKEWUD
_symmetry_cell_setting           monoclinic
_symmetry_space_group_name_H-M   'P 21/n'
_symmetry_Int_Tables_number      14
_space_group_name_Hall           '-P 2yn'
loop_
_symmetry_equiv_pos_site_id
_symmetry_equiv_pos_as_xyz
1 x,y,z
2 1/2-x,1/2+y,1/2-z
3 -x,-y,-z
4 1/2+x,1/2-y,1/2+z
_cell_length_a                   13.4823(15)
_cell_length_b                   7.2714(8)
_cell_length_c                   13.6596(15)
_cell_angle_alpha                90
_cell_angle_beta                 110.850(1)
_cell_angle_gamma                90
_cell_volume                     1251.43
loop_
_atom_site_label
_atom_site_type_symbol
_atom_site_fract_x
_atom_site_fract_y
_atom_site_fract_z
Cu1 Cu 1.09023(2) 1.10202(4) 0.58922(2)
Cu2 Cu 1.85112(2) 1.00929(4) 0.60227(2)
O1 O 1.76762(13) 0.9180(3) 0.68069(13)
O2 O 1.64931(15) 0.7256(3) 0.57166(14)
O3 O 1.27770(13) 0.9338(3) 0.51698(13)
O4 O 1.24366(13) 1.0651(3) 0.65087(13)
O5 O 1.63135(15) 0.9706(2) 1.02576(13)
O6 O 1.59599(14) 1.2566(2) 0.96729(12)
O7 O 1.06191(12) 0.8759(2) 0.46573(12)
H1 H 1.0829 0.7679 0.4868
N1 N 0.98012(16) 0.9894(3) 0.73062(16)
N2 N 1.07825(15) 1.0166(3) 0.72410(16)
N3 N 1.09963(17) 0.9242(3) 0.88127(16)
H2 H 1.1291 0.8915 0.9457
C1 C 1.1486(2) 0.9764(4) 0.81614(19)
H3 H 1.2218 0.9831 0.8336
C2 C 0.9950(2) 0.9333(4) 0.82556(19)
H4 H 0.9414 0.9041 0.8509
C3 C 1.59921(18) 0.8985(3) 0.69360(18)
C4 C 1.49160(18) 0.9036(3) 0.63425(18)
H5 H 1.4675 0.8610 0.5656
C5 C 1.41960(18) 0.9722(3) 0.67707(18)
C6 C 1.45545(19) 1.0325(3) 0.78037(18)
H6 H 1.4077 1.0804 0.8088
C7 C 1.56284(18) 1.0212(3) 0.84125(17)
C8 C 1.63479(18) 0.9559(3) 0.79805(18)
H7 H 1.7067 0.9503 0.8385
C9 C 1.67722(19) 0.8397(4) 0.64351(18)
C10 C 1.30408(18) 0.9908(3) 0.60937(18)
C11 C 1.60038(17) 1.0836(3) 0.95414(18)
Cu1C Cu 1.59023(2) 1.39798(4) 1.08922(2)
Cu1B Cu 0.90977(2) 0.89798(4) 0.41078(2)
Cu2B Cu 1.14888(2) 0.99071(4) 0.39773(2)
Cu2A Cu 1.64888(2) 1.50929(4) 0.89773(2)
Cu2_2 Cu 0.85112(2) 1.00929(4) 0.60227(2)
O3B O 1.72230(13) 1.0662(3) 0.48302(13)
O6C O 1.09599(14) 1.2434(2) 0.46729(12)
O6A O 1.90401(14) 0.7566(2) 0.53271(12)
O7B O 0.93809(12) 1.1241(2) 0.53427(12)
O7B_2 O 1.93809(12) 1.1241(2) 0.53427(12)
H1B H 0.9171 1.2321 0.5132
H1B_2 H 1.9171 1.2321 0.5132
N1_2 N 1.98012(16) 0.9894(3) 0.73062(16)
loop_
_geom_bond_atom_site_label_1
_geom_bond_atom_site_label_2
_geom_bond_site_symmetry_1
_geom_bond_site_symmetry_2
Cu1 O4 1_555 1_555
Cu2 O1 1_555 1_555
O1 C9 1_555 1_555
O2 C9 1_555 1_555
O3 C10 1_555 1_555
O4 C10 1_555 1_555
O5 C11 1_555 1_555
O6 C11 1_555 1_555
O7 Cu1 1_555 1_555
H1 O7 1_555 1_555
N1 N2 1_555 1_555
N2 Cu1 1_555 1_555
N3 H2 1_555 1_555
C1 N2 1_555 1_555
H3 C1 1_555 1_555
C2 N1 1_555 1_555
H4 C2 1_555 1_555
C3 C4 1_555 1_555
C4 H5 1_555 1_555
C5 C4 1_555 1_555
C6 C5 1_555 1_555
H6 C6 1_555 1_555
C7 C6 1_555 1_555
C8 C3 1_555 1_555
H7 C8 1_555 1_555
C9 C3 1_555 1_555
C10 C5 1_555 1_555
C11 C7 1_555 1_555
Cu1C O6 1_555 1_555
Cu1B O7 1_555 1_555
Cu2B O3 1_555 1_555
Cu2A O6 1_555 1_555
Cu2_2 N1 1_555 1_555
O3B Cu2 1_555 1_555
O6C Cu1 1_555 1_555
O6A Cu2 1_555 1_555
O7B Cu1 1_555 1_555
O7B_2 Cu2 1_555 1_555
H1B O7B 1_555 1_555
H1B_2 O7B_2 1_555 1_555
N1_2 Cu2 1_555 1_555
O7 Cu2B 1_555 1_555
N3 C1 1_555 1_555
N3 C2 1_555 1_555
C7 C8 1_555 1_555
Cu1B O7B 1_555 1_555
Cu2B O6C 1_555 1_555
Cu2_2 O7B 1_555 1_555

#END
