
#######################################################################
#
#                 Cambridge Crystallographic Data Centre
#                                CCDC 
#
#######################################################################
#
# If this CIF has been generated from an entry in the Cambridge 
# Structural Database, then it will include bibliographic, chemical, 
# crystal, experimental, refinement or atomic coordinate data resulting 
# from the CCDC's data processing and validation procedures.
#
#######################################################################

data_UKEWOX
_symmetry_cell_setting           orthorhombic
_symmetry_space_group_name_H-M   'C 2 2 21'
_symmetry_Int_Tables_number      20
_space_group_name_Hall           'C 2n 2'
loop_
_symmetry_equiv_pos_site_id
_symmetry_equiv_pos_as_xyz
1 x,y,z
2 x,-y,-z
3 -x,y,1/2-z
4 -x,-y,1/2+z
5 1/2+x,1/2+y,z
6 1/2+x,1/2-y,-z
7 1/2-x,1/2+y,1/2-z
8 1/2-x,1/2-y,1/2+z
_cell_length_a                   6.8531(2)
_cell_length_b                   39.0426(8)
_cell_length_c                   7.4976(2)
_cell_angle_alpha                90
_cell_angle_beta                 90
_cell_angle_gamma                90
_cell_volume                     2006.08
loop_
_atom_site_label
_atom_site_type_symbol
_atom_site_fract_x
_atom_site_fract_y
_atom_site_fract_z
Y1 Y 0.5000 0.291720(9) -0.2500
Na1 Na 0.5000 0.16571(5) 0.2500
O1 O 0.6591(3) 0.34589(6) -0.2374(8)
O2 O 0.6518(5) 0.63607(7) -0.3000(5)
O3 O 0.4318(4) 0.30503(7) 0.0537(4)
O4 O 0.3135(4) 0.22028(6) 0.1707(4)
O5 O 0.4530(4) 0.24370(6) -0.0681(4)
C1 C 0.5000 0.36208(11) -0.2500
C2 C 0.5000 0.40023(11) -0.2500
C3 C 0.3334(6) 0.41821(10) -0.2946(6)
H1 H 0.2202 0.4064 -0.3245
C4 C 0.3335(7) 0.45393(10) -0.2952(7)
H2 H 0.2205 0.4657 -0.3264
C5 C 0.5000 0.47215(12) -0.2500
C6 C 0.5000 0.51002(12) -0.2500
C7 C 0.3339(7) 0.52852(10) -0.2026(7)
H3 H 0.2203 0.5168 -0.1729
C8 C 0.3349(7) 0.56411(10) -0.1988(7)
H4 H 0.2241 0.5759 -0.1618
C9 C 0.5000 0.58224(11) -0.2500
C10 C 0.5000 0.62092(12) -0.2500
C11 C 0.4109(6) 0.27904(9) 0.1865(5)
H5 H 0.2919 0.2833 0.2555
C12 C 0.3919(6) 0.24493(9) 0.0877(5)
O6 O 0.5090(10) 0.13611(11) 0.5175(5)
H6 H 0.392(11) 0.3238(16) 0.097(9)
H7 H 0.388(6) 0.1313(15) 0.580(9)
H8 H 0.559(8) 0.1579(10) 0.556(9)
Y1E Y 0.0000 0.208280(9) 0.2500
Y1E_2 Y 1.0000 0.208280(9) 0.2500
Y1_2 Y 0.5000 0.291720(9) 0.7500
Na1E Na 0.0000 0.33429(5) -0.2500
Na1E_2 Na 1.0000 0.33429(5) -0.2500
O1B O 0.3409(3) 0.34589(6) -0.2626(8)
O1E O 0.1591(3) 0.15411(6) 0.2374(8)
O1G O 0.8409(3) 0.15411(6) 0.2626(8)
O2B O 0.3482(5) 0.63607(7) -0.2000(5)
O3B O 0.5682(4) 0.30503(7) 0.4463(4)
O3B_2 O 0.5682(4) 0.30503(7) -0.5537(4)
O4G O 0.1865(4) 0.27972(6) -0.3293(4)
O4B O 0.6865(4) 0.22028(6) 0.3293(4)
O4E O 0.8135(4) 0.27972(6) -0.1707(4)
O5B O 0.5470(4) 0.24370(6) 0.5681(4)
O5B_2 O 0.5470(4) 0.24370(6) -0.4319(4)
C3B C 0.6666(6) 0.41821(10) -0.2054(6)
H1B H 0.7798 0.4064 -0.1755
C4B C 0.6665(7) 0.45393(10) -0.2048(7)
H2B H 0.7795 0.4657 -0.1736
C7B C 0.6661(7) 0.52852(10) -0.2974(7)
H3B H 0.7797 0.5168 -0.3271
C8B C 0.6651(7) 0.56411(10) -0.3012(7)
H4B H 0.7759 0.5759 -0.3382
C11B C 0.5891(6) 0.27904(9) 0.3135(5)
H5B H 0.7081 0.2833 0.2445
C12B C 0.6081(6) 0.24493(9) 0.4123(5)
O6B O 0.4910(10) 0.13611(11) -0.0175(5)
H6B H 0.608(11) 0.3238(16) 0.403(9)
H6B_2 H 0.608(11) 0.3238(16) -0.597(9)
H7B H 0.612(6) 0.1313(15) -0.080(9)
H8B H 0.441(8) 0.1579(10) -0.056(9)
loop_
_geom_bond_atom_site_label_1
_geom_bond_atom_site_label_2
_geom_bond_site_symmetry_1
_geom_bond_site_symmetry_2
Y1 O1 1_555 1_555
Na1 O4 1_555 1_555
O1 C1 1_555 1_555
O2 C10 1_555 1_555
O3 Y1 1_555 1_555
O4 C12 1_555 1_555
O5 Y1 1_555 1_555
C1 C2 1_555 1_555
C2 C3 1_555 1_555
C3 H1 1_555 1_555
C4 C3 1_555 1_555
H2 C4 1_555 1_555
C5 C4 1_555 1_555
C6 C5 1_555 1_555
C7 C6 1_555 1_555
H3 C7 1_555 1_555
C8 C7 1_555 1_555
H4 C8 1_555 1_555
C9 C8 1_555 1_555
C10 C9 1_555 1_555
C11 O3 1_555 1_555
H5 C11 1_555 1_555
C12 O5 1_555 1_555
O6 Na1 1_555 1_555
H6 O3 1_555 1_555
H7 O6 1_555 1_555
H8 O6 1_555 1_555
Y1E O4 1_555 1_555
Y1E_2 O1G 1_555 1_555
Y1_2 O3B 1_555 1_555
Na1E O1B 1_555 1_555
Na1E_2 O1 1_555 1_555
O1B Y1 1_555 1_555
O1E Na1 1_555 1_555
O1G Na1 1_555 1_555
O2B C10 1_555 1_555
O3B C11B 1_555 1_555
O3B_2 Y1 1_555 1_555
O4G Y1 1_555 1_555
O4B Na1 1_555 1_555
O4E Y1 1_555 1_555
O5B Y1_2 1_555 1_555
O5B_2 Y1 1_555 1_555
C3B C2 1_555 1_555
H1B C3B 1_555 1_555
C4B C5 1_555 1_555
H2B C4B 1_555 1_555
C7B C6 1_555 1_555
H3B C7B 1_555 1_555
C8B C9 1_555 1_555
H4B C8B 1_555 1_555
C11B C11 1_555 1_555
H5B C11B 1_555 1_555
C12B O4B 1_555 1_555
O6B Na1 1_555 1_555
H6B O3B 1_555 1_555
H6B_2 O3B_2 1_555 1_555
H7B O6B 1_555 1_555
H8B O6B 1_555 1_555
C1 O1B 1_555 1_555
C11 C12 1_555 1_555
Y1E O1E 1_555 1_555
Y1E_2 O4B 1_555 1_555
Na1E O4G 1_555 1_555
Na1E_2 O4E 1_555 1_555
O5B C12B 1_555 1_555
C3B C4B 1_555 1_555
C7B C8B 1_555 1_555
C11B C12B 1_555 1_555

#END
