
#######################################################################
#
#                 Cambridge Crystallographic Data Centre
#                                CCDC 
#
#######################################################################
#
# If this CIF has been generated from an entry in the Cambridge 
# Structural Database, then it will include bibliographic, chemical, 
# crystal, experimental, refinement or atomic coordinate data resulting 
# from the CCDC's data processing and validation procedures.
#
#######################################################################

data_UKEXAK
_symmetry_cell_setting           orthorhombic
_symmetry_space_group_name_H-M   'P b c a'
_symmetry_Int_Tables_number      61
_space_group_name_Hall           '-P 2ac 2ab'
loop_
_symmetry_equiv_pos_site_id
_symmetry_equiv_pos_as_xyz
1 x,y,z
2 1/2-x,-y,1/2+z
3 -x,1/2+y,1/2-z
4 1/2+x,1/2-y,-z
5 -x,-y,-z
6 1/2+x,y,1/2-z
7 x,1/2-y,1/2+z
8 1/2-x,1/2+y,z
_cell_length_a                   8.4471(6)
_cell_length_b                   20.1912(14)
_cell_length_c                   21.6010(14)
_cell_angle_alpha                90
_cell_angle_beta                 90
_cell_angle_gamma                90
_cell_volume                     3684.2
loop_
_atom_site_label
_atom_site_type_symbol
_atom_site_fract_x
_atom_site_fract_y
_atom_site_fract_z
Cu1 Cu 0.78212(4) 0.092118(17) 0.671219(16)
Cu2 Cu 0.98166(4) -0.301020(18) 0.586690(16)
Cu3 Cu 0.77365(5) 0.05750(2) 0.942714(19)
O1 O 0.6367(3) 0.01832(10) 0.68818(10)
O2 O 0.8579(3) -0.03743(11) 0.67709(12)
O3 O 0.1345(3) -0.08247(12) 0.67539(16)
H1 H 0.0374 -0.0817 0.6755
O4 O 0.0951(3) -0.18535(13) 0.64319(15)
O5 O 0.5791(3) -0.33142(10) 0.65322(10)
O6 O 0.8174(3) -0.28594(11) 0.65415(10)
N1 N 0.9018(3) 0.14665(12) 0.84946(11)
N2 N 0.8040(3) 0.09387(13) 0.86111(12)
N3 N 0.8117(3) 0.10910(12) 0.76006(11)
N4 N 0.6414(3) 0.10622(13) 0.54750(12)
N5 N 0.7539(3) 0.07419(13) 0.58236(12)
N6 N 0.7321(4) 0.02010(14) 0.49369(12)
N7 N 1.1689(3) -0.29689(13) 0.52998(12)
N8 N 1.2524(3) -0.35130(13) 0.50988(13)
N9 N 1.3579(3) -0.26126(13) 0.46691(12)
C1 C 0.7532(4) 0.07351(15) 0.80704(14)
H2 H 0.6839 0.0381 0.8019
C2 C 0.9038(4) 0.15390(15) 0.78909(14)
H3 H 0.9622 0.1863 0.7687
C3 C 0.8035(5) 0.02387(18) 0.54876(15)
H4 H 0.8803 -0.0060 0.5620
C4 C 0.6332(4) 0.07255(17) 0.49571(15)
H5 H 0.5656 0.0838 0.4634
C5 C 1.3613(4) -0.32759(17) 0.47299(16)
H6 H 1.4347 -0.3542 0.4527
C6 C 1.2347(4) -0.24544(17) 0.50310(15)
H7 H 1.1993 -0.2022 0.5086
C7 C 0.6152(4) -0.09734(14) 0.67378(15)
C8 C 0.4516(4) -0.09194(15) 0.67242(15)
H8 H 0.4040 -0.0508 0.6780
C9 C 0.3582(4) -0.14798(15) 0.66278(15)
C10 C 0.4287(4) -0.20919(15) 0.65554(15)
H9 H 0.3665 -0.2466 0.6490
C11 C 0.5925(4) -0.21497(15) 0.65802(14)
C12 C 0.6860(4) -0.15900(15) 0.66683(15)
H10 H 0.7957 -0.1629 0.6681
C13 C 0.7111(4) -0.03562(15) 0.68116(14)
C14 C 0.1835(4) -0.14161(16) 0.65915(16)
C15 C 0.6683(4) -0.28152(15) 0.65355(13)
Cu1G Cu 0.71788(4) -0.407882(17) 0.671219(16)
Cu2B Cu 1.01834(4) 0.198980(18) 0.913310(16)
Cu2G Cu 0.51834(4) 0.198980(18) 0.586690(16)
Cu2C Cu 1.48166(4) -0.198980(18) 0.413310(16)
Cu3A Cu 0.72635(5) -0.05750(2) 0.442714(19)
Cu3B Cu 1.22635(5) -0.44250(2) 0.557286(19)
O5G O 0.9209(3) 0.16858(10) 0.65322(10)
N1B N 1.0982(3) -0.35335(12) 0.65054(11)
N4G N 0.8586(3) -0.39378(13) 0.54750(12)
N6A N 0.7679(4) -0.02010(14) 0.99369(12)
N8B N 0.7476(3) 0.14870(13) 0.99012(13)
N9C N 0.8579(3) -0.23874(13) 0.53309(12)
loop_
_geom_bond_atom_site_label_1
_geom_bond_atom_site_label_2
_geom_bond_site_symmetry_1
_geom_bond_site_symmetry_2
Cu1 O1 1_555 1_555
Cu2 O6 1_555 1_555
Cu3 N2 1_555 1_555
O1 C13 1_555 1_555
O2 C13 1_555 1_555
O3 H1 1_555 1_555
O4 C14 1_555 1_555
O5 C15 1_555 1_555
O6 C15 1_555 1_555
N1 N2 1_555 1_555
N2 C1 1_555 1_555
N3 Cu1 1_555 1_555
N4 N5 1_555 1_555
N5 Cu1 1_555 1_555
N6 C3 1_555 1_555
N7 Cu2 1_555 1_555
N8 N7 1_555 1_555
N9 C5 1_555 1_555
C1 N3 1_555 1_555
H2 C1 1_555 1_555
C2 N1 1_555 1_555
H3 C2 1_555 1_555
C3 N5 1_555 1_555
H4 C3 1_555 1_555
C4 N4 1_555 1_555
H5 C4 1_555 1_555
C5 N8 1_555 1_555
H6 C5 1_555 1_555
C6 N7 1_555 1_555
H7 C6 1_555 1_555
C7 C8 1_555 1_555
C8 H8 1_555 1_555
C9 C8 1_555 1_555
C10 C9 1_555 1_555
H9 C10 1_555 1_555
C11 C10 1_555 1_555
C12 C7 1_555 1_555
H10 C12 1_555 1_555
C13 C7 1_555 1_555
C14 O3 1_555 1_555
C15 C11 1_555 1_555
Cu1G O5 1_555 1_555
Cu2B N1 1_555 1_555
Cu2G N4 1_555 1_555
Cu2C N9 1_555 1_555
Cu3A N6 1_555 1_555
Cu3B N8 1_555 1_555
O5G Cu1 1_555 1_555
N1B Cu2 1_555 1_555
N4G Cu2 1_555 1_555
N6A Cu3 1_555 1_555
N8B Cu3 1_555 1_555
N9C Cu2 1_555 1_555
N3 C2 1_555 1_555
N6 C4 1_555 1_555
N9 C6 1_555 1_555
C9 C14 1_555 1_555
C11 C12 1_555 1_555

#END
