
#######################################################################
#
#                 Cambridge Crystallographic Data Centre
#                                CCDC 
#
#######################################################################
#
# If this CIF has been generated from an entry in the Cambridge 
# Structural Database, then it will include bibliographic, chemical, 
# crystal, experimental, refinement or atomic coordinate data resulting 
# from the CCDC's data processing and validation procedures.
#
#######################################################################

data_UKEXIS
_symmetry_cell_setting           orthorhombic
_symmetry_space_group_name_H-M   'P 21 21 21'
_symmetry_Int_Tables_number      19
_space_group_name_Hall           'P 2ac 2ab'
loop_
_symmetry_equiv_pos_site_id
_symmetry_equiv_pos_as_xyz
1 x,y,z
2 1/2-x,-y,1/2+z
3 1/2+x,1/2-y,-z
4 -x,1/2+y,1/2-z
_cell_length_a                   17.709(6)
_cell_length_b                   17.992(12)
_cell_length_c                   18.445(11)
_cell_angle_alpha                90
_cell_angle_beta                 90
_cell_angle_gamma                90
_cell_volume                     5876.95
loop_
_atom_site_label
_atom_site_type_symbol
_atom_site_fract_x
_atom_site_fract_y
_atom_site_fract_z
C1 C 0.5312(7) 0.2682(8) 0.1790(6)
C2 C 0.5119(7) 0.2381(7) 0.1003(6)
C3 C 0.4798(7) 0.3031(8) 0.0544(7)
C4 C 0.7427(8) 0.3258(7) 0.0287(6)
C5 C 0.7707(7) 0.4037(8) 0.0047(7)
C6 C 0.7026(7) 0.4483(7) -0.0275(7)
C7 C 0.6816(7) 0.4841(8) 0.2337(8)
C8 C 0.5975(6) 0.5038(6) 0.2629(7)
C9 C 0.5533(8) 0.5331(8) 0.1957(7)
O1 O 0.5073(7) 0.2310(5) 0.2310(4)
O2 O 0.5681(5) 0.3259(5) 0.1861(4)
O3 O 0.4141(6) 0.2953(6) 0.0311(6)
O4 O 0.5187(5) 0.3576(5) 0.0418(5)
O5 O 0.4597(4) 0.1819(4) 0.1059(4)
O6 O 0.5789(5) 0.2121(5) 0.0711(5)
O7 O 0.6883(5) 0.3216(5) 0.0713(5)
O8 O 0.7811(6) 0.2714(5) 0.0060(5)
O9 O 0.6504(5) 0.4657(5) 0.0155(5)
O10 O 0.7054(5) 0.4643(6) -0.0914(5)
O11 O 0.8271(4) 0.3989(4) -0.0486(4)
O12 O 0.8019(5) 0.4398(5) 0.0643(5)
O13 O 0.5303(6) 0.5981(6) 0.2027(5)
O14 O 0.5372(6) 0.4923(6) 0.1467(5)
O15 O 0.6030(5) 0.5524(5) 0.3179(4)
O16 O 0.7359(5) 0.5075(7) 0.2738(5)
O17 O 0.6897(5) 0.4480(6) 0.1781(5)
O18 O 0.5684(6) 0.4378(6) 0.2886(5)
Co1 Co 0.60581(10) 0.40481(10) 0.10446(9)
Cu1 Cu 0.79660(9) 0.43920(10) -0.14127(8)
Cu2 Cu 0.36519(9) 0.20320(9) 0.05585(9)
Cu3 Cu 0.44808(10) 0.14535(9) 0.20518(8)
Cl1 Cl 0.8069(2) 0.2971(2) -0.1876(2)
O8B O 0.2811(6) 0.2286(5) -0.0060(5)
O11B O 0.3271(4) 0.1011(4) 0.0486(4)
O13C O 0.4697(6) 0.0981(6) 0.2973(5)
O15A O 0.8970(5) 0.4476(5) -0.1821(4)
O15C O 0.3970(5) 0.0524(5) 0.1821(4)
O16A O 0.7641(5) 0.4925(7) -0.2262(5)
Cu1A Cu 0.70340(9) 0.56080(10) 0.35873(8)
Cu2B Cu 0.86519(9) 0.29680(9) -0.05585(9)
Cu3C Cu 0.55192(10) 0.64535(9) 0.29482(8)
Cu3B Cu 0.94808(10) 0.35465(9) -0.20518(8)
Cl1B Cl 0.3069(2) 0.2029(2) 0.1876(2)
P1 P 0.1586(3) 0.3294(3) 0.3284(3)
C34 C 0.1208(12) 0.2986(14) 0.2416(10)
C35 C 0.1206(12) 0.2214(14) 0.2403(12)
H21 H 0.1432 0.1948 0.2777
C36 C 0.0865(15) 0.1838(13) 0.1832(15)
H22 H 0.0863 0.1322 0.1823
C37 C 0.0526(15) 0.2235(18) 0.1273(11)
H23 H 0.0298 0.1984 0.0891
C38 C 0.0529(18) 0.3008(18) 0.1286(11)
H24 H 0.0302 0.3274 0.0912
C39 C 0.0870(19) 0.3383(13) 0.1857(13)
H25 H 0.0871 0.3900 0.1866
C40 C 0.2292(9) 0.3997(9) 0.3107(11)
C41 C 0.2872(13) 0.3832(11) 0.2625(15)
H26 H 0.2887 0.3371 0.2397
C42 C 0.3429(14) 0.4357(17) 0.2483(18)
H27 H 0.3817 0.4246 0.2160
C43 C 0.3407(16) 0.5046(14) 0.282(2)
H28 H 0.3779 0.5396 0.2728
C44 C 0.2827(17) 0.5210(10) 0.3305(16)
H29 H 0.2812 0.5671 0.3533
C45 C 0.2270(13) 0.4686(12) 0.3447(10)
H30 H 0.1882 0.4796 0.3770
C46 C 0.2010(11) 0.2523(9) 0.3715(12)
C47 C 0.2793(11) 0.2511(13) 0.3754(14)
H31 H 0.3070 0.2933 0.3636
C48 C 0.3164(14) 0.1867(18) 0.3971(16)
H32 H 0.3688 0.1859 0.3998
C49 C 0.275(2) 0.1236(14) 0.4149(19)
H33 H 0.2998 0.0805 0.4294
C50 C 0.197(2) 0.1248(12) 0.411(3)
H34 H 0.1690 0.0826 0.4227
C51 C 0.1596(14) 0.1892(14) 0.389(2)
H35 H 0.1072 0.1901 0.3865
C52 C 0.0847(11) 0.3672(13) 0.3811(12)
C53 C 0.0786(15) 0.4120(17) 0.4422(14)
H36 H 0.1209 0.4211 0.4708
C54 C 0.009(2) 0.4433(17) 0.4605(18)
H37 H 0.0054 0.4733 0.5014
C55 C -0.0537(14) 0.430(2) 0.418(2)
H38 H -0.1000 0.4506 0.4300
C56 C -0.0477(13) 0.385(2) 0.357(2)
H39 H -0.0899 0.3758 0.3281
C57 C 0.0215(15) 0.3536(19) 0.3383(14)
H40 H 0.0256 0.3236 0.2974
P2 P -0.1247(4) 0.1166(5) 0.3928(4)
C10 C -0.0525(8) 0.0738(10) 0.3445(10)
C11 C 0.0136(10) 0.0772(12) 0.3726(11)
H1 H 0.0236 0.1064 0.4131
C12 C -0.0726(14) 0.054(2) 0.2662(12)
H2 H -0.1165 0.0631 0.2400
C13 C 0.0760(9) 0.0303(16) 0.3358(17)
H3 H 0.1260 0.0282 0.3512
C14 C 0.0546(14) 0.0014(16) 0.2916(18)
H4 H 0.0792 -0.0434 0.2831
C15 C -0.0017(18) 0.015(2) 0.2437(13)
H5 H 0.0039 0.0005 0.1957
C16 C -0.1557(16) 0.1955(15) 0.3435(12)
C17 C -0.1377(18) 0.2596(19) 0.3671(16)
H6 H -0.1182 0.2606 0.4139
C18 C -0.197(2) 0.1895(18) 0.2917(17)
H7 H -0.2231 0.1465 0.2805
C19 C -0.143(3) 0.3287(16) 0.332(3)
H8 H -0.1290 0.3745 0.3516
C20 C -0.200(3) 0.262(3) 0.245(2)
H9 H -0.2228 0.2643 0.2002
C21 C -0.169(3) 0.318(2) 0.274(3)
H10 H -0.1657 0.3587 0.2433
C22 C -0.1973(14) 0.0564(16) 0.4093(13)
C23 C -0.1869(16) -0.0184(17) 0.426(2)
H11 H -0.1386 -0.0386 0.4256
C24 C -0.249(2) -0.0629(15) 0.442(2)
H12 H -0.2419 -0.1129 0.4525
C25 C -0.3211(18) -0.033(2) 0.4416(16)
H13 H -0.3625 -0.0625 0.4524
C26 C -0.3314(13) 0.042(2) 0.425(3)
H14 H -0.3798 0.0622 0.4253
C27 C -0.2696(17) 0.0866(16) 0.409(2)
H15 H -0.2765 0.1366 0.3984
C28 C -0.0865(13) 0.1509(12) 0.4773(10)
C29 C -0.0383(15) 0.1743(19) 0.6014(10)
H16 H -0.0257 0.1899 0.6479
C30 C -0.0996(18) 0.0907(15) 0.5359(15)
H17 H -0.1263 0.0466 0.5306
C31 C -0.0213(18) 0.2338(14) 0.5438(16)
H18 H -0.0027 0.2809 0.5545
C32 C -0.0384(16) 0.2066(13) 0.4664(12)
H19 H -0.0198 0.2247 0.4227
C33 C -0.0622(18) 0.1168(19) 0.6005(11)
H20 H -0.0580 0.0862 0.6409
loop_
_geom_bond_atom_site_label_1
_geom_bond_atom_site_label_2
_geom_bond_site_symmetry_1
_geom_bond_site_symmetry_2
C1 C2 1_555 1_555
C2 C3 1_555 1_555
C3 O3 1_555 1_555
C4 C5 1_555 1_555
C5 C6 1_555 1_555
C6 O9 1_555 1_555
C7 C8 1_555 1_555
C8 C9 1_555 1_555
C9 O13 1_555 1_555
O1 C1 1_555 1_555
O2 C1 1_555 1_555
O3 Cu2 1_555 1_555
O4 C3 1_555 1_555
O5 C2 1_555 1_555
O6 C2 1_555 1_555
O7 C4 1_555 1_555
O8 C4 1_555 1_555
O9 Co1 1_555 1_555
O10 C6 1_555 1_555
O11 C5 1_555 1_555
O12 C5 1_555 1_555
O13 Cu3C 1_555 1_555
O14 C9 1_555 1_555
O15 C8 1_555 1_555
O16 C7 1_555 1_555
O17 C7 1_555 1_555
O18 C8 1_555 1_555
Co1 O2 1_555 1_555
Cu1 O10 1_555 1_555
Cu2 O5 1_555 1_555
Cu3 O1 1_555 1_555
Cl1 Cu1 1_555 1_555
P1 C34 1_555 1_555
P2 C10 1_555 1_555
C10 C11 1_555 1_555
C11 H1 1_555 1_555
C12 C10 1_555 1_555
H2 C12 1_555 1_555
C13 C11 1_555 1_555
H3 C13 1_555 1_555
C14 C13 1_555 1_555
H4 C14 1_555 1_555
C15 C12 1_555 1_555
H5 C15 1_555 1_555
C16 P2 1_555 1_555
C17 C16 1_555 1_555
H6 C17 1_555 1_555
C18 C16 1_555 1_555
H7 C18 1_555 1_555
C19 C17 1_555 1_555
H8 C19 1_555 1_555
C20 C18 1_555 1_555
H9 C20 1_555 1_555
C21 C19 1_555 1_555
H10 C21 1_555 1_555
C22 P2 1_555 1_555
C23 C22 1_555 1_555
H11 C23 1_555 1_555
C24 C23 1_555 1_555
H12 C24 1_555 1_555
C25 C24 1_555 1_555
H13 C25 1_555 1_555
C26 C25 1_555 1_555
H14 C26 1_555 1_555
C27 C22 1_555 1_555
H15 C27 1_555 1_555
C28 P2 1_555 1_555
C29 H16 1_555 1_555
C30 C28 1_555 1_555
H17 C30 1_555 1_555
C31 C29 1_555 1_555
H18 C31 1_555 1_555
C32 C28 1_555 1_555
H19 C32 1_555 1_555
C33 C29 1_555 1_555
H20 C33 1_555 1_555
C34 C35 1_555 1_555
C35 H21 1_555 1_555
C36 C35 1_555 1_555
H22 C36 1_555 1_555
C37 C36 1_555 1_555
H23 C37 1_555 1_555
C38 C37 1_555 1_555
H24 C38 1_555 1_555
C39 C34 1_555 1_555
H25 C39 1_555 1_555
C40 P1 1_555 1_555
C41 C40 1_555 1_555
H26 C41 1_555 1_555
C42 C41 1_555 1_555
H27 C42 1_555 1_555
C43 C42 1_555 1_555
H28 C43 1_555 1_555
C44 C43 1_555 1_555
H29 C44 1_555 1_555
C45 C40 1_555 1_555
H30 C45 1_555 1_555
C46 P1 1_555 1_555
C47 C46 1_555 1_555
H31 C47 1_555 1_555
C48 C47 1_555 1_555
H32 C48 1_555 1_555
C49 C48 1_555 1_555
H33 C49 1_555 1_555
C50 C49 1_555 1_555
H34 C50 1_555 1_555
C51 C46 1_555 1_555
H35 C51 1_555 1_555
C52 P1 1_555 1_555
C53 C52 1_555 1_555
H36 C53 1_555 1_555
C54 C53 1_555 1_555
H37 C54 1_555 1_555
C55 C54 1_555 1_555
H38 C55 1_555 1_555
C56 C55 1_555 1_555
H39 C56 1_555 1_555
C57 C52 1_555 1_555
H40 C57 1_555 1_555
O8B Cu2 1_555 1_555
O11B Cu2 1_555 1_555
O13C Cu3 1_555 1_555
O15A Cu1 1_555 1_555
O15C Cu3 1_555 1_555
O16A Cu1 1_555 1_555
Cu1A O15 1_555 1_555
Cu2B O8 1_555 1_555
Cu3C O15 1_555 1_555
Cu3B Cl1 1_555 1_555
Cl1B Cu2 1_555 1_555
O4 Co1 1_555 1_555
O5 Cu3 1_555 1_555
O7 Co1 1_555 1_555
O11 Cu1 1_555 1_555
O11 Cu2B 1_555 1_555
O14 Co1 1_555 1_555
O16 Cu1A 1_555 1_555
O17 Co1 1_555 1_555
Cu3 Cl1B 1_555 1_555
Cl1 Cu2B 1_555 1_555
C14 C15 1_555 1_555
C20 C21 1_555 1_555
C26 C27 1_555 1_555
C30 C33 1_555 1_555
C31 C32 1_555 1_555
C38 C39 1_555 1_555
C44 C45 1_555 1_555
C50 C51 1_555 1_555
C56 C57 1_555 1_555
O15A Cu3B 1_555 1_555

#END
