
#######################################################################
#
#                 Cambridge Crystallographic Data Centre
#                                CCDC 
#
#######################################################################
#
# If this CIF has been generated from an entry in the Cambridge 
# Structural Database, then it will include bibliographic, chemical, 
# crystal, experimental, refinement or atomic coordinate data resulting 
# from the CCDC's data processing and validation procedures.
#
#######################################################################

data_UKIBAS
_symmetry_cell_setting           monoclinic
_symmetry_space_group_name_H-M   'C 2/c'
_symmetry_Int_Tables_number      15
_space_group_name_Hall           '-C 2yn'
loop_
_symmetry_equiv_pos_site_id
_symmetry_equiv_pos_as_xyz
1 x,y,z
2 -x,y,1/2-z
3 1/2+x,1/2+y,z
4 1/2-x,1/2+y,1/2-z
5 -x,-y,-z
6 x,-y,1/2+z
7 1/2-x,1/2-y,-z
8 1/2+x,1/2-y,1/2+z
_cell_length_a                   28.5660(14)
_cell_length_b                   28.2130(14)
_cell_length_c                   24.0420(16)
_cell_angle_alpha                90
_cell_angle_beta                 119.329(3)
_cell_angle_gamma                90
_cell_volume                     16892.6
loop_
_atom_site_label
_atom_site_type_symbol
_atom_site_fract_x
_atom_site_fract_y
_atom_site_fract_z
Mn1 Mn 0.70087(5) 0.23164(4) 0.22345(5)
Mn2 Mn 0.65875(4) 0.14004(4) 0.09412(5)
Mn3 Mn 0.78490(4) 0.10776(4) 0.37665(5)
Mn4 Mn 0.78158(4) 0.14991(4) 0.23709(5)
Mn5 Mn 0.69004(4) 0.10955(4) 0.23436(5)
O1 O 0.70641(18) 0.16005(16) 0.1948(2)
O2 O 0.6901(2) 0.30379(17) 0.2511(3)
N1 N 0.7262(3) 0.3536(2) 0.2089(4)
H1 H 0.7415 0.3302 0.1996
H2 H 0.7303 0.3830 0.1996
N2 N 0.6707(2) 0.4698(2) 0.2695(3)
C1 C 0.6974(3) 0.3449(3) 0.2366(4)
C2 C 0.6720(3) 0.3861(3) 0.2504(4)
C3 C 0.6939(3) 0.4308(3) 0.2604(3)
H3 H 0.7271 0.4346 0.2609
C4 C 0.6238(3) 0.4636(3) 0.2685(4)
H4 H 0.6059 0.4907 0.2726
C5 C 0.6000(3) 0.4196(3) 0.2619(4)
H5 H 0.5677 0.4165 0.2638
C6 C 0.6245(3) 0.3798(3) 0.2522(4)
H6 H 0.6090 0.3492 0.2471
O3 O 0.6317(2) 0.24633(19) 0.1351(3)
O4 O 0.6433(2) 0.21092(19) 0.0597(3)
C7 C 0.6238(3) 0.2432(3) 0.0786(4)
C8 C 0.5882(3) 0.2809(3) 0.0298(4)
C9 C 0.5553(10) 0.3094(8) 0.0518(10)
H7 H 0.5384 0.2879 0.0689
H8 H 0.5273 0.3270 0.0156
H9 H 0.5787 0.3316 0.0852
C10 C 0.6265(7) 0.3093(6) 0.0150(10)
H10 H 0.6419 0.2883 -0.0043
H11 H 0.6554 0.3227 0.0546
H12 H 0.6067 0.3350 -0.0148
C11 C 0.5459(7) 0.2520(6) -0.0329(9)
H13 H 0.5221 0.2333 -0.0229
H14 H 0.5655 0.2308 -0.0466
H15 H 0.5246 0.2744 -0.0673
O5 O 0.7505(2) 0.26195(18) 0.1855(3)
O6 O 0.79610(18) 0.19684(16) 0.1873(2)
C12 C 0.7841(3) 0.2408(3) 0.1749(4)
C13 C 0.8148(4) 0.2684(3) 0.1485(5)
C14 C 0.8726(6) 0.2531(6) 0.1773(9)
H16 H 0.8742 0.2189 0.1712
H17 H 0.8916 0.2604 0.2230
H18 H 0.8897 0.2700 0.1563
C15 C 0.8052(6) 0.3205(5) 0.1443(8)
H19 H 0.8233 0.3354 0.1231
H20 H 0.8194 0.3336 0.1873
H21 H 0.7665 0.3267 0.1196
C16 C 0.7837(6) 0.2503(5) 0.0727(7)
H22 H 0.8042 0.2606 0.0520
H23 H 0.7476 0.2640 0.0503
H24 H 0.7811 0.2156 0.0713
O7 O 0.7848(2) 0.20912(17) 0.3022(2)
O8 O 0.8269(2) 0.1737(2) 0.3972(2)
C17 C 0.8171(3) 0.2088(3) 0.3613(4)
C18 C 0.8474(3) 0.2559(3) 0.3927(4)
C19 C 0.8078(8) 0.2942(7) 0.3768(12)
H25 H 0.7813 0.2832 0.3886
H26 H 0.7898 0.3013 0.3311
H27 H 0.8255 0.3228 0.4011
C20 C 0.8927(8) 0.2603(8) 0.3802(13)
H28 H 0.8769 0.2578 0.3338
H29 H 0.9201 0.2357 0.4009
H30 H 0.9092 0.2916 0.3943
C21 C 0.8727(10) 0.2496(8) 0.4644(7)
H31 H 0.8820 0.2805 0.4858
H32 H 0.9054 0.2309 0.4781
H33 H 0.8485 0.2328 0.4756
O9 O 0.6660(2) 0.21583(18) 0.2810(3)
O10 O 0.7044(2) 0.14706(18) 0.3236(2)
C22 C 0.6783(3) 0.1839(3) 0.3216(4)
C23 C 0.6641(3) 0.1906(3) 0.3753(3)
C24 C 0.6519(4) 0.1419(3) 0.3938(4)
H34 H 0.6845 0.1224 0.4124
H35 H 0.6237 0.1262 0.3558
H36 H 0.6397 0.1460 0.4252
C25 C 0.7120(4) 0.2135(4) 0.4303(4)
H37 H 0.7055 0.2166 0.4666
H38 H 0.7177 0.2450 0.4174
H39 H 0.7439 0.1939 0.4427
C26 C 0.6154(3) 0.2244(3) 0.3531(4)
H40 H 0.6054 0.2268 0.3867
H41 H 0.5849 0.2119 0.3141
H42 H 0.6250 0.2559 0.3446
O11 O 0.5835(2) 0.14083(18) 0.0961(2)
O12 O 0.61340(19) 0.12547(18) 0.1992(2)
C27 C 0.5760(3) 0.1343(3) 0.1423(4)
C28 C 0.5195(3) 0.1376(3) 0.1339(4)
C29 C 0.4903(7) 0.0871(6) 0.1018(9)
H43 H 0.5125 0.0696 0.0881
H44 H 0.4550 0.0933 0.0649
H45 H 0.4860 0.0683 0.1333
C30 C 0.4865(6) 0.1749(7) 0.0863(8)
H46 H 0.4519 0.1781 0.0853
H47 H 0.4804 0.1657 0.0440
H48 H 0.5055 0.2053 0.0985
C31 C 0.5178(5) 0.1391(6) 0.1946(7)
H49 H 0.4804 0.1401 0.1853
H50 H 0.5367 0.1674 0.2188
H51 H 0.5353 0.1107 0.2198
O13 O 0.6031(2) 0.11630(19) -0.0079(2)
O14 O 0.5193(3) 0.1290(3) -0.0257(4)
H52 H 0.5346 0.1331 0.0140
C32 C 0.5557(5) 0.1205(4) -0.0431(5)
C33 C 0.5308(3) 0.1129(3) -0.1167(4)
C34 C 0.4751(6) 0.1354(9) -0.1536(7)
H53 H 0.4785 0.1700 -0.1519
H54 H 0.4532 0.1257 -0.1344
H55 H 0.4577 0.1249 -0.1982
C35 C 0.5251(10) 0.0583(4) -0.1273(7)
H56 H 0.5036 0.0516 -0.1730
H57 H 0.5073 0.0449 -0.1048
H58 H 0.5608 0.0441 -0.1107
C36 C 0.5661(6) 0.1310(5) -0.1410(8)
H59 H 0.5537 0.1189 -0.1842
H60 H 0.6031 0.1204 -0.1129
H61 H 0.5650 0.1658 -0.1420
O15 O 0.7333(2) 0.05047(18) 0.3705(2)
O16 O 0.6741(2) 0.05163(17) 0.2664(2)
C37 C 0.6934(3) 0.0346(3) 0.3223(3)
C38 C 0.6661(3) -0.0102(3) 0.3285(4)
C39 C 0.6761(4) -0.0156(3) 0.3958(4)
H62 H 0.6557 0.0085 0.4042
H63 H 0.7145 -0.0116 0.4258
H64 H 0.6647 -0.0472 0.4011
C40 C 0.6936(4) -0.0522(3) 0.3137(5)
H65 H 0.7320 -0.0525 0.3449
H66 H 0.6888 -0.0485 0.2707
H67 H 0.6772 -0.0821 0.3162
C41 C 0.6059(4) -0.0094(4) 0.2802(4)
H68 H 0.5893 -0.0388 0.2837
H69 H 0.6007 -0.0065 0.2369
H70 H 0.5891 0.0177 0.2891
O17 O 0.8001(2) 0.1187(2) 0.4770(2)
H71 H 0.8360(12) 0.1269(17) 0.5021(9)
C42 C 0.7928(4) 0.0835(4) 0.5157(4)
H72 H 0.8253 0.0633 0.5369
H73 H 0.7619 0.0629 0.4882
C43 C 0.7830(5) 0.1071(4) 0.5659(4)
H74 H 0.8128 0.1285 0.5919
H75 H 0.7803 0.0828 0.5934
H76 H 0.7494 0.1252 0.5449
Mn6 Mn 0.79473(4) 0.03887(4) 0.24876(5)
O18 O 0.76527(18) 0.09996(17) 0.2768(2)
O19 O 0.72098(19) 0.00592(16) 0.1846(2)
O20 O 0.66643(18) 0.06813(16) 0.1433(2)
C44 C 0.6779(3) 0.0246(3) 0.1436(3)
C45 C 0.6360(3) -0.0070(3) 0.0911(4)
C46 C 0.5797(3) 0.0108(3) 0.0703(4)
H77 H 0.5535 -0.0095 0.0360
H78 H 0.5761 0.0434 0.0549
H79 H 0.5731 0.0098 0.1067
C47 C 0.6422(4) -0.0586(3) 0.1136(4)
H80 H 0.6346 -0.0609 0.1491
H81 H 0.6790 -0.0692 0.1278
H82 H 0.6169 -0.0786 0.0783
C48 C 0.6473(4) -0.0049(3) 0.0350(4)
H83 H 0.6210 -0.0244 -0.0002
H84 H 0.6835 -0.0170 0.0487
H85 H 0.6447 0.0280 0.0207
O21 O 0.8173(2) 0.00444(18) 0.3377(2)
O22 O 0.8524(2) 0.0616(2) 0.4119(2)
C49 C 0.8507(3) 0.0188(3) 0.3928(4)
C50 C 0.8900(3) -0.0167(3) 0.4384(4)
C51 C 0.9223(3) -0.0379(4) 0.4101(5)
H86 H 0.8979 -0.0486 0.3665
H87 H 0.9431 -0.0649 0.4361
H88 H 0.9467 -0.0138 0.4093
C52 C 0.9269(4) 0.0047(4) 0.5037(5)
H89 H 0.9502 0.0285 0.4998
H90 H 0.9491 -0.0204 0.5330
H91 H 0.9053 0.0197 0.5202
C53 C 0.8576(4) -0.0560(4) 0.4478(6)
H92 H 0.8310 -0.0418 0.4573
H93 H 0.8818 -0.0763 0.4834
H94 H 0.8392 -0.0749 0.4088
O23 O 0.87436(18) 0.06488(17) 0.2873(2)
O24 O 0.85990(19) 0.14297(18) 0.2893(2)
C54 C 0.8903(3) 0.1062(3) 0.3006(3)
C55 C 0.9511(3) 0.1160(3) 0.3347(4)
C56 C 0.9688(3) 0.1178(3) 0.4060(4)
H95 H 1.0072 0.1255 0.4302
H96 H 0.9625 0.0869 0.4197
H97 H 0.9482 0.1421 0.4137
C57 C 0.9801(3) 0.0759(3) 0.3224(4)
H98 H 0.9668 0.0731 0.2764
H99 H 0.9734 0.0461 0.3384
H100 H 1.0187 0.0824 0.3443
C58 C 0.9639(3) 0.1626(3) 0.3133(4)
H101 H 0.9527 0.1608 0.2678
H102 H 1.0026 0.1685 0.3378
H103 H 0.9446 0.1884 0.3206
O25 O 0.78235(19) 0.09460(16) 0.1714(2)
O26 O 0.72129(19) 0.12233(18) 0.0767(2)
C59 C 0.7652(3) 0.1027(3) 0.1123(3)
C60 C 0.8009(3) 0.0888(3) 0.0836(4)
C61 C 0.7961(4) 0.0341(3) 0.0761(4)
H104 H 0.8063 0.0196 0.1175
H105 H 0.8201 0.0227 0.0607
H106 H 0.7590 0.0256 0.0455
C62 C 0.8589(3) 0.1013(4) 0.1304(4)
H107 H 0.8626 0.1358 0.1351
H108 H 0.8822 0.0893 0.1143
H109 H 0.8694 0.0869 0.1719
C63 C 0.7807(4) 0.1121(3) 0.0187(4)
H110 H 0.7443 0.1008 -0.0107
H111 H 0.8046 0.1039 0.0017
H112 H 0.7801 0.1466 0.0233
N2C N 0.8293(2) -0.0302(2) 0.2305(3)
Mn6C Mn 0.70527(4) 0.53887(4) 0.25124(5)
O27 O 0.8851(9) 0.1742(9) 0.5280(11)
C64 C 0.9014(12) 0.1531(13) 0.5796(14)
C65 C 0.9598(12) 0.1648(14) 0.6172(15)
O28 O 0.5664(5) 0.2697(5) 0.2009(6)
O29? O 0.9089(10) 0.1168(11) 0.5283(11)
C66? C 0.9510(13) 0.1402(14) 0.5606(14)
H113? H 0.9480 0.1722 0.5422
H114? H 0.9825 0.1239 0.5627
C67? C 0.9556(13) 0.1432(12) 0.6251(12)
H115? H 0.9237 0.1591 0.6213
H116? H 0.9878 0.1612 0.6541
H117? H 0.9580 0.1112 0.6420
H118? H 0.8960 0.1185 0.5727
H119? H 0.8821 0.1642 0.6020
H120? H 0.9801 0.1389 0.6120
H121? H 0.9703 0.1681 0.6625
H122? H 0.9674 0.1944 0.6019
O30? O 0.9014(14) 0.1097(16) 0.5385(17)
C68? C 0.9487(17) 0.1252(18) 0.572(2)
H123? H 0.9490 0.1568 0.5903
H124? H 0.9681 0.1269 0.5475
C69? C 0.9716(17) 0.0881(16) 0.6226(19)
H125? H 0.9421 0.0706 0.6228
H126? H 0.9936 0.1030 0.6643
H127? H 0.9938 0.0663 0.6137
O31? O 0.9697(13) 0.1886(13) 0.7024(16)
C70? C 0.6122(9) 0.3005(8) -0.0109(13)
C71? C 0.5374(8) 0.2632(8) -0.0066(11)
C72? C 0.8540(11) 0.2982(10) 0.2063(12)
C73? C 0.7800(9) 0.3046(8) 0.1023(11)
C74? C 0.8487(10) 0.2389(8) 0.1319(13)
C75? C 0.8150(9) 0.2852(7) 0.4113(12)
C76? C 0.8530(11) 0.2827(9) 0.3408(10)
C77? C 0.9048(7) 0.2468(9) 0.4374(13)
C78? C 0.4814(9) 0.1328(9) 0.0638(11)
C79? C 0.5175(14) 0.1942(12) 0.1504(16)
C80? C 0.5133(15) 0.1076(14) 0.1749(17)
C81? C 0.5790(7) 0.1351(6) -0.0567(7)
C82? C 0.5308(3) 0.1129(3) -0.1167(4)
C83? C 0.4773(10) 0.1346(16) -0.1308(14)
C84? C 0.5301(19) 0.0589(6) -0.1062(16)
C85? C 0.5403(12) 0.1213(11) -0.1732(11)
C86? C 0.5866(10) 0.3246(8) 0.0707(11)
H128? H 0.6069 0.2774 -0.0438
H129? H 0.6507 0.3063 0.0166
H130? H 0.5942 0.3303 -0.0311
H131? H 0.5220 0.2556 0.0209
H132? H 0.5390 0.2343 -0.0283
H133? H 0.5149 0.2868 -0.0383
H134? H 0.8773 0.2771 0.2415
H135? H 0.8336 0.3186 0.2199
H136? H 0.8760 0.3179 0.1945
H137? H 0.8013 0.3239 0.0889
H138? H 0.7646 0.3249 0.1223
H139? H 0.7510 0.2889 0.0649
H140? H 0.8659 0.2590 0.1139
H141? H 0.8264 0.2150 0.1005
H142? H 0.8762 0.2232 0.1704
H143? H 0.8098 0.2679 0.4432
H144? H 0.7799 0.2925 0.3744
H145? H 0.8343 0.3148 0.4300
H146? H 0.8170 0.2940 0.3099
H147? H 0.8665 0.2618 0.3193
H148? H 0.8772 0.3098 0.3593
H149? H 0.9233 0.2773 0.4445
H150? H 0.9173 0.2251 0.4156
H151? H 0.9124 0.2332 0.4785
H152? H 0.6157 0.1891 -0.0282
H153? H 0.4758 0.0990 0.0526
H154? H 0.4967 0.1483 0.0398
H155? H 0.4470 0.1476 0.0531
H156? H 0.4813 0.2024 0.1419
H157? H 0.5270 0.2138 0.1236
H158? H 0.5432 0.2000 0.1954
H159? H 0.5402 0.1151 0.2190
H160? H 0.5180 0.0748 0.1653
H161? H 0.4772 0.1115 0.1697
H162? H 0.4762 0.1679 -0.1429
H163? H 0.4733 0.1326 -0.0927
H164? H 0.4479 0.1173 -0.1659
H165? H 0.5232 0.0531 -0.0706
H166? H 0.5649 0.0453 -0.0961
H167? H 0.5018 0.0442 -0.1450
H168? H 0.5098 0.1088 -0.2122
H169? H 0.5732 0.1051 -0.1656
H170? H 0.5438 0.1554 -0.1781
H171? H 0.5635 0.3495 0.0420
H172? H 0.6230 0.3370 0.0970
H173? H 0.5723 0.3142 0.0984
O32? O 0.6031(2) 0.11630(19) -0.0079(2)
O33? O 0.5890(6) 0.1800(5) -0.0622(8)
loop_
_geom_bond_atom_site_label_1
_geom_bond_atom_site_label_2
_geom_bond_site_symmetry_1
_geom_bond_site_symmetry_2
Mn1 O1 1_555 1_555
Mn2 O1 1_555 1_555
Mn3 O8 1_555 1_555
Mn4 O1 1_555 1_555
Mn5 O1 1_555 1_555
O2 Mn1 1_555 1_555
N1 H1 1_555 1_555
H2 N1 1_555 1_555
N2 C3 1_555 1_555
C1 O2 1_555 1_555
C2 C1 1_555 1_555
C3 C2 1_555 1_555
H3 C3 1_555 1_555
C4 N2 1_555 1_555
H4 C4 1_555 1_555
C5 C4 1_555 1_555
H5 C5 1_555 1_555
C6 C2 1_555 1_555
H6 C6 1_555 1_555
O3 Mn1 1_555 1_555
O4 Mn2 1_555 1_555
C7 O3 1_555 1_555
C8 C7 1_555 1_555
C9 C8 1_555 1_555
H7 C9 1_555 1_555
H8 C9 1_555 1_555
H9 C9 1_555 1_555
C10 C8 1_555 1_555
H10 C10 1_555 1_555
H11 C10 1_555 1_555
H12 C10 1_555 1_555
C11 C8 1_555 1_555
H13 C11 1_555 1_555
H14 C11 1_555 1_555
H15 C11 1_555 1_555
O5 Mn1 1_555 1_555
O6 Mn4 1_555 1_555
C12 O5 1_555 1_555
C13 C12 1_555 1_555
C14 C13 1_555 1_555
H16 C14 1_555 1_555
H17 C14 1_555 1_555
H18 C14 1_555 1_555
C15 C13 1_555 1_555
H19 C15 1_555 1_555
H20 C15 1_555 1_555
H21 C15 1_555 1_555
C16 C13 1_555 1_555
H22 C16 1_555 1_555
H23 C16 1_555 1_555
H24 C16 1_555 1_555
O7 Mn1 1_555 1_555
O8 C17 1_555 1_555
C17 O7 1_555 1_555
C18 C17 1_555 1_555
C19 C18 1_555 1_555
H25 C19 1_555 1_555
H26 C19 1_555 1_555
H27 C19 1_555 1_555
C20 C18 1_555 1_555
H28 C20 1_555 1_555
H29 C20 1_555 1_555
H30 C20 1_555 1_555
C21 C18 1_555 1_555
H31 C21 1_555 1_555
H32 C21 1_555 1_555
H33 C21 1_555 1_555
O9 Mn1 1_555 1_555
O10 Mn3 1_555 1_555
C22 O9 1_555 1_555
C23 C22 1_555 1_555
C24 C23 1_555 1_555
H34 C24 1_555 1_555
H35 C24 1_555 1_555
H36 C24 1_555 1_555
C25 C23 1_555 1_555
H37 C25 1_555 1_555
H38 C25 1_555 1_555
H39 C25 1_555 1_555
C26 C23 1_555 1_555
H40 C26 1_555 1_555
H41 C26 1_555 1_555
H42 C26 1_555 1_555
O11 Mn2 1_555 1_555
O12 Mn5 1_555 1_555
C27 O11 1_555 1_555
C28 C27 1_555 1_555
C29 C28 1_555 1_555
H43 C29 1_555 1_555
H44 C29 1_555 1_555
H45 C29 1_555 1_555
C30 C28 1_555 1_555
H46 C30 1_555 1_555
H47 C30 1_555 1_555
H48 C30 1_555 1_555
C31 C28 1_555 1_555
H49 C31 1_555 1_555
H50 C31 1_555 1_555
H51 C31 1_555 1_555
O13 Mn2 1_555 1_555
O14 H52 1_555 1_555
C32 O13 1_555 1_555
C33 C32 1_555 1_555
C34 C33 1_555 1_555
H53 C34 1_555 1_555
H54 C34 1_555 1_555
H55 C34 1_555 1_555
C35 C33 1_555 1_555
H56 C35 1_555 1_555
H57 C35 1_555 1_555
H58 C35 1_555 1_555
C36 C33 1_555 1_555
H59 C36 1_555 1_555
H60 C36 1_555 1_555
H61 C36 1_555 1_555
O15 Mn3 1_555 1_555
O16 Mn5 1_555 1_555
C37 O15 1_555 1_555
C38 C37 1_555 1_555
C39 C38 1_555 1_555
H62 C39 1_555 1_555
H63 C39 1_555 1_555
H64 C39 1_555 1_555
C40 C38 1_555 1_555
H65 C40 1_555 1_555
H66 C40 1_555 1_555
H67 C40 1_555 1_555
C41 C38 1_555 1_555
H68 C41 1_555 1_555
H69 C41 1_555 1_555
H70 C41 1_555 1_555
O17 Mn3 1_555 1_555
H71 O17 1_555 1_555
C42 O17 1_555 1_555
H72 C42 1_555 1_555
H73 C42 1_555 1_555
C43 C42 1_555 1_555
H74 C43 1_555 1_555
H75 C43 1_555 1_555
H76 C43 1_555 1_555
Mn6 O18 1_555 1_555
O18 Mn3 1_555 1_555
O19 Mn6 1_555 1_555
O20 Mn2 1_555 1_555
C44 O19 1_555 1_555
C45 C44 1_555 1_555
C46 C45 1_555 1_555
H77 C46 1_555 1_555
H78 C46 1_555 1_555
H79 C46 1_555 1_555
C47 C45 1_555 1_555
H80 C47 1_555 1_555
H81 C47 1_555 1_555
H82 C47 1_555 1_555
C48 C45 1_555 1_555
H83 C48 1_555 1_555
H84 C48 1_555 1_555
H85 C48 1_555 1_555
O21 Mn6 1_555 1_555
O22 Mn3 1_555 1_555
C49 O21 1_555 1_555
C50 C49 1_555 1_555
C51 C50 1_555 1_555
H86 C51 1_555 1_555
H87 C51 1_555 1_555
H88 C51 1_555 1_555
C52 C50 1_555 1_555
H89 C52 1_555 1_555
H90 C52 1_555 1_555
H91 C52 1_555 1_555
C53 C50 1_555 1_555
H92 C53 1_555 1_555
H93 C53 1_555 1_555
H94 C53 1_555 1_555
O23 Mn6 1_555 1_555
O24 Mn4 1_555 1_555
C54 O23 1_555 1_555
C55 C54 1_555 1_555
C56 C55 1_555 1_555
H95 C56 1_555 1_555
H96 C56 1_555 1_555
H97 C56 1_555 1_555
C57 C55 1_555 1_555
H98 C57 1_555 1_555
H99 C57 1_555 1_555
H100 C57 1_555 1_555
C58 C55 1_555 1_555
H101 C58 1_555 1_555
H102 C58 1_555 1_555
H103 C58 1_555 1_555
O25 Mn4 1_555 1_555
O26 Mn2 1_555 1_555
C59 O25 1_555 1_555
C60 C59 1_555 1_555
C61 C60 1_555 1_555
H104 C61 1_555 1_555
H105 C61 1_555 1_555
H106 C61 1_555 1_555
C62 C60 1_555 1_555
H107 C62 1_555 1_555
H108 C62 1_555 1_555
H109 C62 1_555 1_555
C63 C60 1_555 1_555
H110 C63 1_555 1_555
H111 C63 1_555 1_555
H112 C63 1_555 1_555
O27 C64 1_555 1_555
C64 C65 1_555 1_555
N2C Mn6 1_555 1_555
Mn6C N2 1_555 1_555
Mn4 O7 1_555 1_555
Mn4 O18 1_555 1_555
Mn5 O10 1_555 1_555
Mn5 O18 1_555 1_555
Mn5 O20 1_555 1_555
N1 C1 1_555 1_555
C5 C6 1_555 1_555
O4 C7 1_555 1_555
O6 C12 1_555 1_555
O10 C22 1_555 1_555
O12 C27 1_555 1_555
O14 C32 1_555 1_555
O16 C37 1_555 1_555
Mn6 O25 1_555 1_555
O20 C44 1_555 1_555
O22 C49 1_555 1_555
O24 C54 1_555 1_555
O26 C59 1_555 1_555

#END
