
#######################################################################
#
#                 Cambridge Crystallographic Data Centre
#                                CCDC 
#
#######################################################################
#
# If this CIF has been generated from an entry in the Cambridge 
# Structural Database, then it will include bibliographic, chemical, 
# crystal, experimental, refinement or atomic coordinate data resulting 
# from the CCDC's data processing and validation procedures.
#
#######################################################################

data_UKICIB
_symmetry_cell_setting           triclinic
_symmetry_space_group_name_H-M   'P -1'
_symmetry_Int_Tables_number      2
_space_group_name_Hall           '-P 1'
loop_
_symmetry_equiv_pos_site_id
_symmetry_equiv_pos_as_xyz
1 x,y,z
2 -x,-y,-z
_cell_length_a                   7.0758(3)
_cell_length_b                   10.8016(8)
_cell_length_c                   14.8710(10)
_cell_angle_alpha                82.893(6)
_cell_angle_beta                 87.135(4)
_cell_angle_gamma                85.813(4)
_cell_volume                     1123.88
loop_
_atom_site_label
_atom_site_type_symbol
_atom_site_fract_x
_atom_site_fract_y
_atom_site_fract_z
U1 U 0.26440(6) 0.02765(5) 0.33841(3)
U2 U -0.25666(6) 0.39009(5) 0.14511(3)
P1 P -0.2417(5) 0.1141(4) 0.3129(2)
P2 P 0.2542(5) 0.2818(4) 0.1463(2)
O1 O 0.2914(14) -0.1043(8) 0.2798(6)
O2 O 0.2396(12) 0.1606(8) 0.3964(6)
O3 O 0.2661(13) 0.1508(10) 0.2029(7)
O4 O -0.0571(14) 0.0328(10) 0.3237(6)
O5 O -0.1116(13) 0.1128(11) 0.5338(7)
O6 O -0.4190(13) 0.1147(11) 0.5338(6)
O7 O -0.2809(15) 0.4624(10) 0.2469(8)
O8 O -0.2328(15) 0.3120(12) 0.0435(7)
O9 O -0.2451(13) 0.1952(9) 0.2218(6)
O10 O 0.4241(12) 0.3582(10) 0.1604(6)
O11 O 0.0690(13) 0.3582(10) 0.1639(7)
O12 O 0.4142(13) 0.4200(9) -0.0623(7)
O13 O 0.1076(13) 0.4195(9) -0.0694(7)
O14 O -0.4110(13) 0.0342(10) 0.3272(7)
C1 C 0.2616(19) 0.2518(13) 0.0295(10)
H1 H 0.3759 0.2000 0.0180
H2 H 0.1542 0.2045 0.0204
C2 C 0.2580(19) 0.3693(14) -0.0402(9)
C7 C -0.259(2) 0.2181(13) 0.4026(9)
H17 H -0.1513 0.2696 0.3960
H18 H -0.3733 0.2733 0.3955
C8 C -0.2639(19) 0.1466(14) 0.4952(11)
U1A U -0.26440(6) -0.02765(5) 0.66159(3)
U1_2 U -0.73560(6) 0.02765(5) 0.33841(3)
U2_2 U 0.74334(6) 0.39009(5) 0.14511(3)
U2A U 0.25666(6) 0.60991(5) -0.14511(3)
O5A O 0.1116(13) -0.1128(11) 0.4662(7)
O6A O 0.4190(13) -0.1147(11) 0.4662(6)
O10_2 O -0.5759(12) 0.3582(10) 0.1604(6)
O12A O -0.4142(13) 0.5800(9) 0.0623(7)
O13A O -0.1076(13) 0.5805(9) 0.0694(7)
O14_2 O 0.5890(13) 0.0342(10) 0.3272(7)
N1 N 0.2223(19) 0.2089(15) 0.5967(10)
H3 H 0.3359 0.1858 0.5735
H4 H 0.1333 0.1731 0.5708
H5 H 0.2173 0.1850 0.6562
N2 N -0.2320(19) 0.3507(16) 0.8579(10)
H6 H -0.3440 0.3791 0.8798
H7 H -0.1398 0.3828 0.8843
H8 H -0.2209 0.2677 0.8693
C3 C -0.217(2) 0.3876(17) 0.7598(11)
H9 H -0.2330 0.4780 0.7480
H10 H -0.3199 0.3537 0.7317
C4 C -0.034(2) 0.3444(18) 0.7170(12)
H11 H 0.0668 0.3724 0.7497
H12 H -0.0245 0.2537 0.7265
C5 C 0.190(3) 0.3435(19) 0.5800(15)
H13 H 0.1938 0.3697 0.5152
H14 H 0.2898 0.3828 0.6063
C6 C 0.003(3) 0.3828(18) 0.6206(12)
H15 H -0.0117 0.4734 0.6105
H16 H -0.0938 0.3513 0.5875
O15 O 0.189(4) 0.9172(16) 0.0876(12)
loop_
_geom_bond_atom_site_label_1
_geom_bond_atom_site_label_2
_geom_bond_site_symmetry_1
_geom_bond_site_symmetry_2
U1 O1 1_555 1_555
U2 O7 1_555 1_555
P1 O4 1_555 1_555
P2 O3 1_555 1_555
O2 U1 1_555 1_555
O3 U1 1_555 1_555
O4 U1 1_555 1_555
O5 C8 1_555 1_555
O6 C8 1_555 1_555
O8 U2 1_555 1_555
O9 U2 1_555 1_555
O10 P2 1_555 1_555
O11 U2 1_555 1_555
O12 C2 1_555 1_555
O13 C2 1_555 1_555
O14 P1 1_555 1_555
C1 P2 1_555 1_555
H1 C1 1_555 1_555
H2 C1 1_555 1_555
C2 C1 1_555 1_555
N1 H3 1_555 1_555
H4 N1 1_555 1_555
H5 N1 1_555 1_555
N2 H6 1_555 1_555
H7 N2 1_555 1_555
H8 N2 1_555 1_555
C3 N2 1_555 1_555
H9 C3 1_555 1_555
H10 C3 1_555 1_555
C4 C3 1_555 1_555
H11 C4 1_555 1_555
H12 C4 1_555 1_555
C5 N1 1_555 1_555
H13 C5 1_555 1_555
H14 C5 1_555 1_555
C6 C4 1_555 1_555
H15 C6 1_555 1_555
H16 C6 1_555 1_555
C7 P1 1_555 1_555
H17 C7 1_555 1_555
H18 C7 1_555 1_555
C8 C7 1_555 1_555
U1A O5 1_555 1_555
U1_2 O14 1_555 1_555
U2_2 O10 1_555 1_555
U2A O12 1_555 1_555
O5A U1 1_555 1_555
O6A U1 1_555 1_555
O10_2 U2 1_555 1_555
O12A U2 1_555 1_555
O13A U2 1_555 1_555
O14_2 U1 1_555 1_555
P1 O9 1_555 1_555
P2 O11 1_555 1_555
O6 U1A 1_555 1_555
O13 U2A 1_555 1_555
C5 C6 1_555 1_555

#END
