
#######################################################################
#
#                 Cambridge Crystallographic Data Centre
#                                CCDC 
#
#######################################################################
#
# If this CIF has been generated from an entry in the Cambridge 
# Structural Database, then it will include bibliographic, chemical, 
# crystal, experimental, refinement or atomic coordinate data resulting 
# from the CCDC's data processing and validation procedures.
#
#######################################################################

data_UKIDUO
_symmetry_cell_setting           tetragonal
_symmetry_space_group_name_H-M   'P 43 21 2'
_symmetry_Int_Tables_number      96
_space_group_name_Hall           'P 4nw 2abw'
loop_
_symmetry_equiv_pos_site_id
_symmetry_equiv_pos_as_xyz
1 x,y,z
2 -x,-y,1/2+z
3 1/2+x,1/2-y,1/4-z
4 1/2-x,1/2+y,3/4-z
5 -y,-x,1/2-z
6 y,x,-z
7 1/2+y,1/2-x,1/4+z
8 1/2-y,1/2+x,3/4+z
_cell_length_a                   9.6180(18)
_cell_length_b                   9.6180(18)
_cell_length_c                   29.490(8)
_cell_angle_alpha                90
_cell_angle_beta                 90
_cell_angle_gamma                90
_cell_volume                     2728
loop_
_atom_site_label
_atom_site_type_symbol
_atom_site_fract_x
_atom_site_fract_y
_atom_site_fract_z
Ag1 Ag 0.80875(7) 0.19125(7) 0.2500
Ag2 Ag 0.63619(6) 0.58295(6) 0.11848(2)
N1 N 1.0665(9) -0.0665(9) 0.2500
O1 O 0.7453(6) 0.4561(7) 0.1892(2)
N2 N 0.7622(7) -0.1664(6) 0.1949(2)
H1 H 0.7934 -0.2482 0.1890
H2 H 0.8151 -0.1062 0.2079
N3 N 0.5521(6) -0.2333(7) 0.1634(2)
O2 O 0.9484(6) 0.3590(6) 0.1846(2)
O3 O 0.9291(8) 0.5803(7) 0.1948(2)
N4 N 0.6221(7) 0.1188(6) 0.21009(19)
C1 C 0.2630(8) 0.2179(8) 0.1879(3)
H3 H 0.2561 0.2887 0.2112
H4 H 0.1890 0.1511 0.1929
N5 N 0.3983(6) 0.1470(6) 0.1918(2)
N6 N 0.4497(7) 0.4468(7) 0.1228(2)
C2 C 0.5721(8) -0.0048(7) 0.1916(2)
N7 N 0.8759(8) 0.4657(8) 0.1888(2)
N8 N 0.3495(6) -0.0867(6) 0.1614(2)
C3 C 0.6331(8) -0.1332(8) 0.1841(2)
C4 C 0.2442(7) 0.2848(8) 0.1418(3)
H5 H 0.2377 0.2126 0.1190
H6 H 0.1575 0.3364 0.1416
C5 C 0.4338(8) 0.0128(7) 0.1801(3)
C6 C 0.3575(8) 0.3779(8) 0.1303(3)
O4 O 0.9837(7) 0.0163(7) 0.2500
C7 C 0.4208(8) -0.2039(8) 0.1545(3)
H7 H 0.3701 -0.2760 0.1416
C8 C 0.5162(9) 0.2033(8) 0.2089(3)
H8 H 0.5211 0.2948 0.2190
O6 O 1.1677(11) -0.0589(13) 0.2751(4)
Ag2D Ag 0.41705(6) 0.36381(6) 0.38152(2)
Ag2_2 Ag 0.63619(6) -0.41705(6) 0.11848(2)
Ag2B Ag 0.13619(6) -0.08295(6) 0.13152(2)
Ag2D_2 Ag 1.41705(6) 0.36381(6) 0.38152(2)
Ag2F Ag 1.08295(6) 0.86381(6) 0.36848(2)
O1D O 0.5439(7) 0.2547(6) 0.3108(2)
N2D N 1.1664(6) 0.2378(7) 0.3051(2)
H1D H 1.2482 0.2066 0.3110
H2D H 1.1062 0.1849 0.2921
N3D N 1.2333(7) 0.4479(6) 0.3366(2)
N3_2 N 0.5521(6) 0.7667(7) 0.1634(2)
N3D_2 N 0.2333(7) 0.4479(6) 0.3366(2)
O2D O 0.6410(6) 0.0516(6) 0.3154(2)
O3D O 0.4197(7) 0.0709(8) 0.3052(2)
N4D N 0.8812(6) 0.3779(7) 0.28991(19)
C1D C 0.7821(8) 0.7370(8) 0.3121(3)
H3D H 0.7113 0.7439 0.2888
H4D H 0.8489 0.8110 0.3071
N5D N 0.8530(6) 0.6017(6) 0.3082(2)
N6D N 0.5532(7) 0.5503(7) 0.3772(2)
C2D C 1.0048(7) 0.4279(8) 0.3084(2)
N7D N 0.5343(8) 0.1241(8) 0.3112(2)
N8D N 1.0867(6) 0.6505(6) 0.3386(2)
N8B N 0.8495(6) 0.5867(6) 0.0886(2)
N8F N 0.4133(6) 0.1505(6) 0.4114(2)
C3D C 1.1332(8) 0.3669(8) 0.3159(2)
C4D C 0.7152(8) 0.7558(7) 0.3582(3)
H5D H 0.7874 0.7623 0.3810
H6D H 0.6636 0.8425 0.3584
C5D C 0.9872(7) 0.5662(8) 0.3199(3)
C6D C 0.6221(8) 0.6425(8) 0.3697(3)
C7D C 1.2039(8) 0.5792(8) 0.3455(3)
H7D H 1.2760 0.6299 0.3584
C8D C 0.7967(8) 0.4838(9) 0.2911(3)
H8D H 0.7052 0.4789 0.2810
O6D O 1.0589(13) -0.1677(11) 0.2249(4)
O5 O 0.4735(9) 0.5265(9) 0.2500
O7 O 0.2157(13) 0.5747(18) 0.2084(7)
loop_
_geom_bond_atom_site_label_1
_geom_bond_atom_site_label_2
_geom_bond_site_symmetry_1
_geom_bond_site_symmetry_2
Ag1 O2 1_555 1_555
Ag2 O1 1_555 1_555
N1 O4 1_555 1_555
O1 N7 1_555 1_555
N2 H1 1_555 1_555
H2 N2 1_555 1_555
N3 C3 1_555 1_555
O2 N7 1_555 1_555
O3 N7 1_555 1_555
N4 Ag1 1_555 1_555
C1 H3 1_555 1_555
H4 C1 1_555 1_555
N5 C1 1_555 1_555
N6 Ag2 1_555 1_555
C2 N4 1_555 1_555
N8 C5 1_555 1_555
C3 N2 1_555 1_555
C4 C1 1_555 1_555
H5 C4 1_555 1_555
H6 C4 1_555 1_555
C5 N5 1_555 1_555
C6 N6 1_555 1_555
O4 Ag1 1_555 1_555
C7 N3 1_555 1_555
H7 C7 1_555 1_555
C8 N4 1_555 1_555
H8 C8 1_555 1_555
O6 N1 1_555 1_555
Ag2D O1D 1_555 1_555
Ag2_2 N3 1_555 1_555
Ag2B N8 1_555 1_555
Ag2D_2 N3D 1_555 1_555
Ag2F N8D 1_555 1_555
O1D N7D 1_555 1_555
N2D H1D 1_555 1_555
H2D N2D 1_555 1_555
N3D C3D 1_555 1_555
N3_2 Ag2 1_555 1_555
N3D_2 Ag2D 1_555 1_555
O2D Ag1 1_555 1_555
O3D N7D 1_555 1_555
N4D Ag1 1_555 1_555
C1D H3D 1_555 1_555
H4D C1D 1_555 1_555
N5D C1D 1_555 1_555
N6D Ag2D 1_555 1_555
C2D N4D 1_555 1_555
N7D O2D 1_555 1_555
N8D C5D 1_555 1_555
N8B Ag2 1_555 1_555
N8F Ag2D 1_555 1_555
C3D N2D 1_555 1_555
C4D C1D 1_555 1_555
H5D C4D 1_555 1_555
H6D C4D 1_555 1_555
C5D N5D 1_555 1_555
C6D N6D 1_555 1_555
C7D N3D 1_555 1_555
H7D C7D 1_555 1_555
C8D N4D 1_555 1_555
H8D C8D 1_555 1_555
O6D N1 1_555 1_555
N5 C8 1_555 1_555
C2 C3 1_555 1_555
C2 C5 1_555 1_555
N8 C7 1_555 1_555
C4 C6 1_555 1_555
N5D C8D 1_555 1_555
C2D C3D 1_555 1_555
C2D C5D 1_555 1_555
N8D C7D 1_555 1_555
C4D C6D 1_555 1_555

#END
