
#######################################################################
#
#                 Cambridge Crystallographic Data Centre
#                                CCDC 
#
#######################################################################
#
# If this CIF has been generated from an entry in the Cambridge 
# Structural Database, then it will include bibliographic, chemical, 
# crystal, experimental, refinement or atomic coordinate data resulting 
# from the CCDC's data processing and validation procedures.
#
#######################################################################

data_UKINAE
_symmetry_cell_setting           triclinic
_symmetry_space_group_name_H-M   'P 1'
_symmetry_Int_Tables_number      1
_space_group_name_Hall           'P 1'
loop_
_symmetry_equiv_pos_site_id
_symmetry_equiv_pos_as_xyz
1 x,y,z
_cell_length_a                   5.8506(6)
_cell_length_b                   9.8019(9)
_cell_length_c                   11.9747(11)
_cell_angle_alpha                70.1450(10)
_cell_angle_beta                 80.2340(10)
_cell_angle_gamma                89.7150(10)
_cell_volume                     635.505
loop_
_atom_site_label
_atom_site_type_symbol
_atom_site_fract_x
_atom_site_fract_y
_atom_site_fract_z
Er1 Er 0.873962(14) 0.250681(11) 0.106950(10)
C1 C 0.6161(5) 0.2298(3) -0.0630(3)
C2 C 0.4986(5) 0.2280(3) -0.1578(3)
H1 H 0.3756 0.1520 -0.1225
H2 H 0.6082 0.1977 -0.2141
C3 C 0.3878(5) 0.3664(3) -0.2341(2)
C4 C 0.5716(6) 0.4651(4) -0.3264(3)
H3 H 0.6610 0.4119 -0.3710
H4 H 0.6714 0.5043 -0.2876
H5 H 0.5014 0.5429 -0.3805
C5 C 0.2280(6) 0.3155(4) -0.3018(4)
H6 H 0.1866 0.3978 -0.3645
H7 H 0.0901 0.2670 -0.2468
H8 H 0.3067 0.2495 -0.3368
C6 C 0.2574(5) 0.4419(3) -0.1461(3)
C7 C 0.6040(5) 0.0958(3) 0.3255(3)
O1 O 0.7567(4) 0.1359(2) -0.02638(19)
O2 O 0.6104(4) 0.3411(2) -0.03127(18)
O3 O 0.3199(4) 0.5751(2) -0.17718(19)
O4 O 0.1058(4) 0.3744(2) -0.06829(19)
O5 O 0.4893(4) 0.1230(3) 0.2320(2)
O6 O 0.8230(4) 0.1312(2) 0.3159(2)
O7 O 1.2002(4) 0.3388(2) 0.16729(19)
O8 O 1.1374(4) 0.0685(2) 0.13272(19)
Er2 Er 0.126070(14) 0.749380(11) -0.106990(10)
O9 O 0.4768(3) -0.1188(2) 0.77364(18)
O10 O 0.2125(4) -0.1112(3) 0.6803(2)
O11 O 0.3858(4) 0.6533(2) 0.0298(2)
O12 O 0.2580(4) 0.8707(2) 0.01716(19)
O13 O 0.9023(4) 0.6202(3) 0.0668(2)
O14 O 0.7076(4) 0.4153(2) 0.1772(2)
O15 O -0.1719(4) 0.6454(2) -0.1632(2)
O16 O -0.1350(4) 0.9360(3) -0.1259(2)
C8 C 0.4414(6) 0.0368(3) 0.4455(3)
H9 H 0.3513 -0.0471 0.4477
H10 H 0.3341 0.1101 0.4535
C9 C 0.5736(7) -0.0078(4) 0.5539(3)
C10 C 0.4182(6) -0.0837(3) 0.6749(3)
C11 C 0.3725(5) 0.7579(3) 0.0688(3)
C12 C 0.5469(5) 0.7759(3) 0.1544(3)
H11 H 0.6863 0.8324 0.1048
H12 H 0.4730 0.8283 0.2052
C13 C 0.6127(6) 0.6282(4) 0.2336(3)
C14 C 0.7361(5) 0.5465(3) 0.1592(3)
C15 C 0.8043(5) 0.6618(3) 0.2980(2)
H13 H 0.8597 0.5723 0.3460
H14 H 0.7405 0.7149 0.3491
H15 H 0.9309 0.7188 0.2387
C16 C 0.3941(6) 0.5359(4) 0.3244(3)
H16 H 0.2799 0.5221 0.2798
H17 H 0.3288 0.5867 0.3772
H18 H 0.4411 0.4431 0.3714
C17 C 0.7168(8) 0.1158(4) 0.5630(3)
H19 H 0.8292 0.1562 0.4903
H20 H 0.7953 0.0795 0.6306
H21 H 0.6162 0.1897 0.5739
C18 C 0.7514(7) -0.1314(4) 0.5418(3)
H22 H 0.8385 -0.1019 0.4611
H23 H 0.6650 -0.2215 0.5593
H24 H 0.8560 -0.1440 0.5978
H25 H 1.2653 0.4025 0.1249
H26 H -0.2645 0.5885 -0.1193
H27 H -0.1605 1.0032 -0.0889
H28 H -0.1750 0.6586 -0.2265
H29 H -0.2373 0.9437 -0.1895
H30 H 1.1702 0.3413 0.2148
H31 H 1.1600 -0.0030 0.0900
H32 H 1.2300 0.0560 0.1900
Er1_2 Er -0.126038(14) 0.250681(11) 0.106950(10)
O4_2 O 1.1058(4) 0.3744(2) -0.06829(19)
Er2_2 Er 0.126070(14) -0.250620(11) 0.893010(10)
Er2_3 Er 1.126070(14) 0.749380(11) -0.106990(10)
O9_2 O 0.4768(3) 0.8812(2) -0.22636(18)
O10_2 O 0.2125(4) 0.8888(3) -0.3197(2)
O13_2 O -0.0977(4) 0.6202(3) 0.0668(2)
loop_
_geom_bond_atom_site_label_1
_geom_bond_atom_site_label_2
_geom_bond_site_symmetry_1
_geom_bond_site_symmetry_2
Er1 O1 1_555 1_555
C1 C2 1_555 1_555
C2 H1 1_555 1_555
H2 C2 1_555 1_555
C3 C2 1_555 1_555
C4 C3 1_555 1_555
H3 C4 1_555 1_555
H4 C4 1_555 1_555
H5 C4 1_555 1_555
C5 C3 1_555 1_555
H6 C5 1_555 1_555
H7 C5 1_555 1_555
H8 C5 1_555 1_555
C6 C3 1_555 1_555
C7 O5 1_555 1_555
O1 C1 1_555 1_555
O2 Er1 1_555 1_555
O3 C6 1_555 1_555
O4 C6 1_555 1_555
O5 Er1 1_555 1_555
O6 Er1 1_555 1_555
O7 Er1 1_555 1_555
O8 Er1 1_555 1_555
Er2 O3 1_555 1_555
O9 C10 1_555 1_555
O10 C10 1_555 1_555
O11 Er2 1_555 1_555
O12 Er2 1_555 1_555
O13 C14 1_555 1_555
O14 Er1 1_555 1_555
O15 Er2 1_555 1_555
O16 Er2 1_555 1_555
C8 C7 1_555 1_555
H9 C8 1_555 1_555
H10 C8 1_555 1_555
C9 C8 1_555 1_555
C10 C9 1_555 1_555
C11 O11 1_555 1_555
C12 C11 1_555 1_555
H11 C12 1_555 1_555
H12 C12 1_555 1_555
C13 C12 1_555 1_555
C14 O14 1_555 1_555
C15 C13 1_555 1_555
H13 C15 1_555 1_555
H14 C15 1_555 1_555
H15 C15 1_555 1_555
C16 C13 1_555 1_555
H16 C16 1_555 1_555
H17 C16 1_555 1_555
H18 C16 1_555 1_555
C17 C9 1_555 1_555
H19 C17 1_555 1_555
H20 C17 1_555 1_555
H21 C17 1_555 1_555
C18 C9 1_555 1_555
H22 C18 1_555 1_555
H23 C18 1_555 1_555
H24 C18 1_555 1_555
H25 O7 1_555 1_555
H26 O15 1_555 1_555
H27 O16 1_555 1_555
H28 O15 1_555 1_555
H29 O16 1_555 1_555
H30 O7 1_555 1_555
H31 O8 1_555 1_555
H32 O8 1_555 1_555
Er1_2 O4 1_555 1_555
O4_2 Er1 1_555 1_555
Er2_2 O9 1_555 1_555
Er2_3 O13 1_555 1_555
O9_2 Er2 1_555 1_555
O10_2 Er2 1_555 1_555
O13_2 Er2 1_555 1_555
C1 O2 1_555 1_555
C7 O6 1_555 1_555
O10 Er2_2 1_555 1_555
O12 C11 1_555 1_555
C13 C14 1_555 1_555

#END
