
#######################################################################
#
#                 Cambridge Crystallographic Data Centre
#                                CCDC 
#
#######################################################################
#
# If this CIF has been generated from an entry in the Cambridge 
# Structural Database, then it will include bibliographic, chemical, 
# crystal, experimental, refinement or atomic coordinate data resulting 
# from the CCDC's data processing and validation procedures.
#
#######################################################################

data_UKINIM
_symmetry_cell_setting           monoclinic
_symmetry_space_group_name_H-M   'P 21/c'
_symmetry_Int_Tables_number      14
_space_group_name_Hall           '-P 2ybc'
loop_
_symmetry_equiv_pos_site_id
_symmetry_equiv_pos_as_xyz
1 x,y,z
2 -x,1/2+y,1/2-z
3 -x,-y,-z
4 x,1/2-y,1/2+z
_cell_length_a                   11.1794(5)
_cell_length_b                   18.2208(8)
_cell_length_c                   12.7944(6)
_cell_angle_alpha                90
_cell_angle_beta                 112.4270(10)
_cell_angle_gamma                90
_cell_volume                     2409.07
loop_
_atom_site_label
_atom_site_type_symbol
_atom_site_fract_x
_atom_site_fract_y
_atom_site_fract_z
C1 C 0.7837(7) -0.4841(3) 0.4219(6)
H1 H 0.7464 -0.4565 0.3520
H2 H 0.8676 -0.5019 0.4273
C2 C 0.8028(7) -0.4320(3) 0.5223(6)
C3 C 0.8628(8) -0.4724(4) 0.6349(6)
H3 H 0.8061 -0.5112 0.6378
H4 H 0.8751 -0.4386 0.6958
H5 H 0.9448 -0.4926 0.6419
C4 C 0.6725(6) -0.3968(3) 0.5066(6)
C5 C 0.6984(7) -0.5484(3) 0.4167(6)
C6 C 0.5945(7) -0.1694(3) 0.3420(6)
C7 C 0.2697(7) -0.1799(3) 0.5356(5)
C8 C 0.1476(7) -0.2750(4) 0.3886(6)
H6 H 0.1529 -0.3034 0.4543
H7 H 0.0623 -0.2830 0.3305
C9 C 0.8922(7) -0.3688(4) 0.5178(7)
H8 H 0.9069 -0.3365 0.5808
H9 H 0.8520 -0.3420 0.4485
H10 H 0.9733 -0.3885 0.5213
C10 C 0.2459(7) -0.3034(3) 0.3467(5)
C11 C 0.6128(7) -0.1744(3) 0.6084(5)
C12 C 0.6974(7) -0.1353(4) 0.5568(5)
C13 C 0.8358(8) -0.1392(6) 0.6502(7)
H11 H 0.8349 -0.1189 0.7192
H12 H 0.8635 -0.1894 0.6624
H13 H 0.8944 -0.1116 0.6268
C14 C 0.6592(10) -0.0562(4) 0.5304(6)
H14 H 0.6578 -0.0323 0.5968
H15 H 0.7206 -0.0321 0.5062
H16 H 0.5747 -0.0536 0.4712
C15 C 0.1889(9) -0.1452(4) 0.3327(6)
H17 H 0.2754 -0.1543 0.3374
H18 H 0.1285 -0.1573 0.2582
H19 H 0.1799 -0.0943 0.3478
C16 C 0.0353(8) -0.1672(5) 0.4317(8)
H20 H 0.0431 -0.1163 0.4528
H21 H -0.0359 -0.1733 0.3606
H22 H 0.0202 -0.1957 0.4886
C17 C 0.1612(7) -0.1931(4) 0.4208(6)
C18 C 0.7032(7) -0.1789(4) 0.4543(5)
H23 H 0.7091 -0.2306 0.4733
H24 H 0.7829 -0.1655 0.4455
Er1 Er 0.43467(3) -0.341300(14) 0.25961(2)
Er2 Er 0.46511(3) -0.335200(14) 0.60511(2)
O1 O 0.2892(5) -0.1170(2) 0.5763(4)
O2 O 0.3370(5) -0.2335(2) 0.5932(4)
O3 O 0.3594(5) -0.3212(2) 0.4139(4)
O4 O 0.5999(5) -0.5406(2) 0.4417(4)
O5 O 0.7223(5) -0.6101(2) 0.3850(4)
O6 O 0.5813(5) -0.1114(2) 0.2872(4)
O7 O 0.5903(5) -0.2412(3) 0.5891(4)
O8 O 0.3970(5) -0.4629(2) 0.2841(4)
H25 H 0.4566 -0.4894 0.3434
H26 H 0.3223 -0.4856 0.2348
O9 O 0.5177(5) -0.2230(2) 0.2945(4)
O10 O 0.6411(5) -0.3918(2) 0.5905(4)
O11 O 0.6084(5) -0.3705(2) 0.4109(4)
O12 O 0.5742(5) -0.1377(3) 0.6725(4)
O13 O 0.2208(5) -0.3088(3) 0.2438(4)
Er1C Er 0.43467(3) -0.158700(14) 0.75961(2)
Er2B Er 0.53489(3) -0.664800(14) 0.39489(2)
Er2C Er 0.46511(3) -0.164800(14) 0.10511(2)
O1C O 0.2892(5) -0.3830(2) 0.0763(4)
O2C O 0.3370(5) -0.2665(2) 0.0932(4)
O4B O 0.4001(5) -0.4594(2) 0.5583(4)
O5B O 0.2777(5) -0.3899(2) 0.6150(4)
O6C O 0.5813(5) -0.3886(2) 0.7872(4)
O9C O 0.5177(5) -0.2770(2) 0.7945(4)
O12C O 0.5742(5) -0.3623(3) 0.1725(4)
loop_
_geom_bond_atom_site_label_1
_geom_bond_atom_site_label_2
_geom_bond_site_symmetry_1
_geom_bond_site_symmetry_2
C1 H1 1_555 1_555
H2 C1 1_555 1_555
C2 C1 1_555 1_555
C3 C2 1_555 1_555
H3 C3 1_555 1_555
H4 C3 1_555 1_555
H5 C3 1_555 1_555
C4 C2 1_555 1_555
C5 C1 1_555 1_555
C6 C18 1_555 1_555
C7 C17 1_555 1_555
C8 H6 1_555 1_555
H7 C8 1_555 1_555
C9 C2 1_555 1_555
H8 C9 1_555 1_555
H9 C9 1_555 1_555
H10 C9 1_555 1_555
C10 C8 1_555 1_555
C11 C12 1_555 1_555
C12 C13 1_555 1_555
C13 H11 1_555 1_555
H12 C13 1_555 1_555
H13 C13 1_555 1_555
C14 C12 1_555 1_555
H14 C14 1_555 1_555
H15 C14 1_555 1_555
H16 C14 1_555 1_555
C15 H17 1_555 1_555
H18 C15 1_555 1_555
H19 C15 1_555 1_555
C16 H20 1_555 1_555
H21 C16 1_555 1_555
H22 C16 1_555 1_555
C17 C8 1_555 1_555
C18 C12 1_555 1_555
H23 C18 1_555 1_555
H24 C18 1_555 1_555
Er1 O3 1_555 1_555
Er2 O2 1_555 1_555
O1 C7 1_555 1_555
O2 C7 1_555 1_555
O3 C10 1_555 1_555
O4 C5 1_555 1_555
O5 C5 1_555 1_555
O6 C6 1_555 1_555
O7 C11 1_555 1_555
O8 Er1 1_555 1_555
H25 O8 1_555 1_555
H26 O8 1_555 1_555
O9 C6 1_555 1_555
O10 C4 1_555 1_555
O11 C4 1_555 1_555
O12 C11 1_555 1_555
O13 C10 1_555 1_555
Er1C O1 1_555 1_555
Er2B O4 1_555 1_555
Er2C O6 1_555 1_555
O1C Er1 1_555 1_555
O2C Er1 1_555 1_555
O4B Er2 1_555 1_555
O5B Er2 1_555 1_555
O6C Er2 1_555 1_555
O9C Er2 1_555 1_555
O12C Er1 1_555 1_555
C15 C17 1_555 1_555
C16 C17 1_555 1_555
Er1 O9 1_555 1_555
Er1 O11 1_555 1_555
Er1 O13 1_555 1_555
Er2 O3 1_555 1_555
Er2 O7 1_555 1_555
Er2 O10 1_555 1_555
O2 Er1C 1_555 1_555
O5 Er2B 1_555 1_555
O9 Er2C 1_555 1_555
O12 Er1C 1_555 1_555
Er1C O9C 1_555 1_555
Er2C O2C 1_555 1_555

#END
