
#######################################################################
#
#                 Cambridge Crystallographic Data Centre
#                                CCDC 
#
#######################################################################
#
# If this CIF has been generated from an entry in the Cambridge 
# Structural Database, then it will include bibliographic, chemical, 
# crystal, experimental, refinement or atomic coordinate data resulting 
# from the CCDC's data processing and validation procedures.
#
#######################################################################

data_UKOHOS
_symmetry_cell_setting           monoclinic
_symmetry_space_group_name_H-M   'P 21/n'
_symmetry_Int_Tables_number      14
_space_group_name_Hall           '-P 2yn'
loop_
_symmetry_equiv_pos_site_id
_symmetry_equiv_pos_as_xyz
1 x,y,z
2 1/2-x,1/2+y,1/2-z
3 -x,-y,-z
4 1/2+x,1/2-y,1/2+z
_cell_length_a                   16.0569(11)
_cell_length_b                   19.7051(19)
_cell_length_c                   18.6003(15)
_cell_angle_alpha                90
_cell_angle_beta                 97.394(5)
_cell_angle_gamma                90
_cell_volume                     5836.25
loop_
_atom_site_label
_atom_site_type_symbol
_atom_site_fract_x
_atom_site_fract_y
_atom_site_fract_z
U1 U 0.46779(2) 0.26150(2) 0.86016(2)
Na1 Na 0.7296(3) 0.3050(3) 0.6189(3)
Si1 Si 0.4438(3) 0.4090(2) 0.7588(2)
Si2 Si 0.2833(2) 0.3521(2) 0.8015(2)
Si3 Si 0.4056(3) 0.0972(2) 0.8880(2)
Si4 Si 0.4229(3) 0.1301(2) 0.7330(2)
Si5 Si 0.6738(4) 0.2388(4) 0.9382(3)
Si6 Si 0.5754(3) 0.3415(3) 1.0101(2)
O1 O 0.5525(5) 0.2719(4) 0.7751(5)
O2 O 0.6325(7) 0.3179(7) 0.6989(6)
O3 O 0.3888(5) 0.2512(3) 0.9499(5)
O4 O 0.3222(6) 0.1974(5) 1.0312(5)
O5 O 0.6985(14) 0.4291(12) 0.5945(10)
O6 O 0.6126(11) 0.2834(10) 0.5202(10)
N1 N 0.3911(6) 0.3493(5) 0.8054(5)
N2 N 0.4296(6) 0.1535(5) 0.8248(5)
N3 N 0.5824(6) 0.2828(6) 0.9435(5)
N4 N 0.8471(8) 0.3484(6) 0.7079(6)
C4 C 0.5622(9) 0.3910(10) 0.7804(9)
H1 H 0.5933 0.4273 0.7607
H2 H 0.5776 0.3905 0.8326
C5 C 0.5872(9) 0.3218(10) 0.7483(8)
C6 C 0.4212(9) 0.4069(9) 0.6571(8)
H3 H 0.4317 0.3621 0.6401
H4 H 0.4568 0.4389 0.6369
H5 H 0.3634 0.4186 0.6426
C7 C 0.4182(14) 0.4989(12) 0.7973(12)
H6 H 0.3776 0.4940 0.8306
H7 H 0.3960 0.5279 0.7581
H8 H 0.4687 0.5185 0.8221
C8 C 0.2251(8) 0.3904(9) 0.7172(8)
H9 H 0.2408 0.4372 0.7139
H10 H 0.1658 0.3873 0.7191
H11 H 0.2390 0.3663 0.6755
C9 C 0.2525(9) 0.4001(9) 0.8801(9)
H12 H 0.2607 0.3720 0.9226
H13 H 0.1944 0.4128 0.8703
H14 H 0.2865 0.4401 0.8879
C10 C 0.2382(10) 0.2654(8) 0.8083(10)
H15 H 0.2330 0.2438 0.7616
H16 H 0.1837 0.2688 0.8241
H17 H 0.2745 0.2390 0.8425
C11 C 0.4322(9) 0.1369(7) 0.9817(6)
H18 H 0.4246 0.1036 1.0187
H19 H 0.4905 0.1512 0.9885
C12 C 0.3756(7) 0.1980(7) 0.9897(7)
C13 C 0.2905(10) 0.0741(9) 0.8818(9)
H20 H 0.2588 0.1134 0.8925
H21 H 0.2833 0.0388 0.9160
H22 H 0.2709 0.0585 0.8337
C14 C 0.4682(11) 0.0155(9) 0.8873(9)
H23 H 0.4703 0.0016 0.8382
H24 H 0.4418 -0.0192 0.9126
H25 H 0.5243 0.0230 0.9109
C15 C 0.3412(12) 0.0633(10) 0.7039(10)
H26 H 0.3472 0.0264 0.7378
H27 H 0.3487 0.0469 0.6566
H28 H 0.2862 0.0828 0.7025
C16 C 0.5262(12) 0.1017(11) 0.7073(10)
H29 H 0.5695 0.1324 0.7273
H30 H 0.5235 0.1011 0.6554
H31 H 0.5386 0.0569 0.7259
C17 C 0.3909(10) 0.2007(8) 0.6698(7)
H32 H 0.3320 0.2095 0.6693
H33 H 0.4018 0.1885 0.6219
H34 H 0.4223 0.2407 0.6853
C18 C 0.7272(13) 0.2066(13) 1.0327(11)
H35 H 0.7375 0.2444 1.0652
H36 H 0.7795 0.1849 1.0270
H37 H 0.6908 0.1748 1.0522
C19 C 0.7524(15) 0.2846(15) 0.9004(13)
H38 H 0.7532 0.2708 0.8510
H39 H 0.8061 0.2757 0.9277
H40 H 0.7405 0.3323 0.9018
C20 C 0.6429(16) 0.1521(14) 0.8751(13)
H41 H 0.6262 0.1165 0.9054
H42 H 0.6909 0.1378 0.8532
H43 H 0.5975 0.1625 0.8380
C21 C 0.6691(13) 0.3980(13) 1.0191(12)
H44 H 0.7188 0.3715 1.0326
H45 H 0.6639 0.4315 1.0556
H46 H 0.6728 0.4200 0.9736
C22 C 0.5636(12) 0.3007(11) 1.1023(7)
H47 H 0.5057 0.2897 1.1042
H48 H 0.5826 0.3319 1.1405
H49 H 0.5967 0.2600 1.1082
C23 C 0.4806(11) 0.4017(9) 0.9834(8)
H50 H 0.4829 0.4191 0.9355
H51 H 0.4829 0.4387 1.0172
H52 H 0.4292 0.3770 0.9843
N5 N 0.7649(9) 0.1865(6) 0.6420(9)
C24 C 0.7975(9) 0.1488(8) 0.5889(7)
H53 H 0.8124 0.1703 0.5479
C25 C 0.8078(9) 0.0791(8) 0.5971(8)
H54 H 0.8296 0.0539 0.5616
C26 C 0.7855(9) 0.0470(6) 0.6584(9)
H55 H 0.7924 0.0004 0.6639
C27 C 0.7529(9) 0.0847(8) 0.7115(7)
H56 H 0.7380 0.0632 0.7525
C28 C 0.7426(8) 0.1544(8) 0.7033(7)
H57 H 0.7208 0.1796 0.7388
C29 C 0.8395(11) 0.3928(9) 0.7579(9)
H58 H 0.7853 0.4076 0.7618
C30 C 0.9020(14) 0.4205(10) 0.8053(8)
H59 H 0.8931 0.4537 0.8390
C31 C 0.9764(16) 0.3951(13) 0.7983(13)
H60 H 1.0222 0.4114 0.8292
C32 C 0.9911(14) 0.3478(14) 0.7500(14)
H61 H 1.0441 0.3302 0.7463
C33 C 0.9186(11) 0.3275(10) 0.7057(9)
H62 H 0.9252 0.2948 0.6709
C34 C 0.618(2) 0.462(2) 0.593(2)
H63 H 0.6050 0.4649 0.6421
H64 H 0.5762 0.4329 0.5661
C35 C 0.6087(17) 0.5300(15) 0.5608(16)
H65 H 0.5999 0.5637 0.5971
H66 H 0.5621 0.5316 0.5221
C36 C 0.6911(19) 0.5412(18) 0.5320(19)
H67 H 0.7155 0.5843 0.5489
H68 H 0.6831 0.5412 0.4795
C37 C 0.7481(19) 0.4826(18) 0.5608(18)
H69 H 0.7740 0.4628 0.5214
H70 H 0.7924 0.4995 0.5967
C38 C 0.608(2) 0.3174(17) 0.4505(14)
H71 H 0.6527 0.3029 0.4241
H72 H 0.6104 0.3663 0.4566
C39 C 0.522(2) 0.296(2) 0.411(2)
H73 H 0.5287 0.2703 0.3675
H74 H 0.4870 0.3350 0.3977
C40 C 0.483(2) 0.2510(14) 0.4661(15)
H75 H 0.4261 0.2649 0.4705
H76 H 0.4831 0.2035 0.4522
C41 C 0.5413(13) 0.2635(11) 0.5363(14)
H77 H 0.5174 0.2978 0.5650
H78 H 0.5481 0.2220 0.5645
U1C U -0.03221(2) 0.23850(2) 1.36016(2)
U1C_2 U 0.96779(2) 0.23850(2) 0.36016(2)
Na1C Na 0.2296(3) 0.1950(3) 1.1189(3)
Si1C Si -0.0562(3) 0.0910(2) 1.2588(2)
Si2C Si -0.2167(2) 0.1479(2) 1.3015(2)
Si3C Si 0.9056(3) 0.4028(2) 0.3880(2)
Si4C Si 0.9229(3) 0.3699(2) 0.2330(2)
Si5C Si 0.1738(4) 0.2612(4) 1.4382(3)
Si6C Si 0.0754(3) 0.1585(3) 1.5101(2)
O1C O 0.0525(5) 0.2281(4) 1.2751(5)
O2C O 0.1325(7) 0.1821(7) 1.1989(6)
O3C O 0.8888(5) 0.2488(3) 0.4499(5)
O3C_2 O -0.1112(5) 0.2488(3) 1.4499(5)
O4C O 0.8222(6) 0.3026(5) 0.5312(5)
O5C O 0.1985(14) 0.0709(12) 1.0945(10)
O6C O 0.1126(11) 0.2166(10) 1.0202(10)
N1C N -0.1089(6) 0.1507(5) 1.3054(5)
N2C N 0.9296(6) 0.3465(5) 0.3248(5)
N2C_2 N -0.0704(6) 0.3465(5) 1.3248(5)
N3C N 0.0824(6) 0.2172(6) 1.4435(5)
N4C N 0.3471(8) 0.1516(6) 1.2079(6)
C4C C 0.0622(9) 0.1090(10) 1.2804(9)
H1C H 0.0933 0.0727 1.2607
H2C H 0.0776 0.1095 1.3326
C5C C 0.0872(9) 0.1782(10) 1.2483(8)
C6C C -0.0788(9) 0.0931(9) 1.1571(8)
H3C H -0.0683 0.1379 1.1401
H4C H -0.0432 0.0611 1.1369
H5C H -0.1366 0.0814 1.1426
C7C C -0.0818(14) 0.0011(12) 1.2973(12)
H6C H -0.1224 0.0060 1.3306
H7C H -0.1040 -0.0279 1.2581
H8C H -0.0313 -0.0185 1.3221
C8C C -0.2749(8) 0.1096(9) 1.2172(8)
H9C H -0.2592 0.0628 1.2139
H10C H -0.3342 0.1127 1.2191
H11C H -0.2610 0.1337 1.1755
C9C C -0.2475(9) 0.0999(9) 1.3801(9)
H12C H -0.2393 0.1280 1.4226
H13C H -0.3056 0.0872 1.3703
H14C H -0.2135 0.0599 1.3879
C10C C -0.2618(10) 0.2346(8) 1.3083(10)
H15C H -0.2670 0.2562 1.2616
H16C H -0.3163 0.2312 1.3241
H17C H -0.2255 0.2610 1.3425
C11C C 0.9322(9) 0.3631(7) 0.4817(6)
H18C H 0.9246 0.3964 0.5187
H19C H 0.9905 0.3488 0.4885
C12C C 0.8756(7) 0.3020(7) 0.4897(7)
C13C C 0.7905(10) 0.4259(9) 0.3818(9)
H20C H 0.7588 0.3866 0.3925
H21C H 0.7833 0.4612 0.4160
H22C H 0.7709 0.4415 0.3337
C14C C 0.9682(11) 0.4845(9) 0.3873(9)
H23C H 0.9703 0.4984 0.3382
H24C H 0.9418 0.5192 0.4126
H25C H 1.0243 0.4770 0.4109
C15C C 0.8412(12) 0.4367(10) 0.2039(10)
H26C H 0.8472 0.4736 0.2378
H27C H 0.8487 0.4531 0.1566
H28C H 0.7862 0.4172 0.2025
C16C C 1.0262(12) 0.3983(11) 0.2073(10)
H29C H 1.0695 0.3676 0.2273
H30C H 1.0235 0.3989 0.1554
H31C H 1.0386 0.4431 0.2259
C17C C 0.8909(10) 0.2993(8) 0.1698(7)
H32C H 0.8320 0.2905 0.1693
H33C H 0.9018 0.3115 0.1219
H34C H 0.9223 0.2593 0.1853
C18C C 0.2272(13) 0.2934(13) 1.5327(11)
H35C H 0.2375 0.2556 1.5652
H36C H 0.2795 0.3151 1.5270
H37C H 0.1908 0.3252 1.5522
C19C C 0.2524(15) 0.2154(15) 1.4004(13)
H38C H 0.2532 0.2292 1.3510
H39C H 0.3061 0.2243 1.4277
H40C H 0.2405 0.1677 1.4018
C20C C 0.1429(16) 0.3479(14) 1.3751(13)
H41C H 0.1262 0.3835 1.4054
H42C H 0.1909 0.3622 1.3532
H43C H 0.0975 0.3375 1.3380
C21C C 0.1691(13) 0.1020(13) 1.5191(12)
H44C H 0.2188 0.1285 1.5326
H45C H 0.1639 0.0685 1.5556
H46C H 0.1728 0.0800 1.4736
C22C C 0.0636(12) 0.1993(11) 1.6023(7)
H47C H 0.0057 0.2103 1.6042
H48C H 0.0826 0.1681 1.6405
H49C H 0.0967 0.2400 1.6082
C23C C -0.0194(11) 0.0983(9) 1.4834(8)
H50C H -0.0171 0.0809 1.4355
H51C H -0.0171 0.0613 1.5172
H52C H -0.0708 0.1230 1.4843
N5C N 0.2649(9) 0.3135(6) 1.1420(9)
C24C C 0.2975(9) 0.3512(8) 1.0889(7)
H53C H 0.3124 0.3297 1.0479
C25C C 0.3078(9) 0.4209(8) 1.0971(8)
H54C H 0.3296 0.4461 1.0616
C26C C 0.2855(9) 0.4530(6) 1.1584(9)
H55C H 0.2924 0.4996 1.1639
C27C C 0.2529(9) 0.4153(8) 1.2115(7)
H56C H 0.2380 0.4368 1.2525
C28C C 0.2426(8) 0.3456(8) 1.2033(7)
H57C H 0.2208 0.3204 1.2388
C29C C 0.3395(11) 0.1072(9) 1.2579(9)
H58C H 0.2853 0.0924 1.2618
C30C C 0.4020(14) 0.0795(10) 1.3053(8)
H59C H 0.3931 0.0463 1.3390
C31C C 0.4764(16) 0.1049(13) 1.2983(13)
H60C H 0.5222 0.0886 1.3292
C32C C 0.4911(14) 0.1522(14) 1.2500(14)
H61C H 0.5441 0.1698 1.2463
C33C C 0.4186(11) 0.1725(10) 1.2057(9)
H62C H 0.4252 0.2052 1.1709
C34C C 0.118(2) 0.038(2) 1.093(2)
H63C H 0.1050 0.0351 1.1421
H64C H 0.0762 0.0671 1.0661
C35C C 0.1087(17) -0.0300(15) 1.0608(16)
H65C H 0.0999 -0.0637 1.0971
H66C H 0.0621 -0.0316 1.0221
C36C C 0.1911(19) -0.0412(18) 1.0320(19)
H67C H 0.2155 -0.0843 1.0489
H68C H 0.1831 -0.0412 0.9795
C37C C 0.2481(19) 0.0174(18) 1.0608(18)
H69C H 0.2740 0.0372 1.0214
H70C H 0.2924 0.0005 1.0967
C38C C 0.108(2) 0.1826(17) 0.9505(14)
H71C H 0.1527 0.1971 0.9241
H72C H 0.1104 0.1337 0.9566
C39C C 0.022(2) 0.204(2) 0.911(2)
H73C H 0.0287 0.2297 0.8675
H74C H -0.0130 0.1650 0.8977
C40C C -0.017(2) 0.2490(14) 0.9661(15)
H75C H -0.0739 0.2351 0.9705
H76C H -0.0169 0.2965 0.9522
C41C C 0.0413(13) 0.2365(11) 1.0363(14)
H77C H 0.0174 0.2022 1.0650
H78C H 0.0481 0.2780 1.0645
C1 C 0.547(3) 0.0548(19) 0.5072(11)
C2 C 0.467(3) 0.066(3) 0.5113(15)
C3 C 0.580(2) -0.007(3) 0.4964(13)
C1B C 0.453(3) -0.0548(19) 0.4928(11)
C2B C 0.533(3) -0.066(3) 0.4887(15)
C3B C 0.420(2) 0.007(3) 0.5036(13)
loop_
_geom_bond_atom_site_label_1
_geom_bond_atom_site_label_2
_geom_bond_site_symmetry_1
_geom_bond_site_symmetry_2
C1 C2 1_555 1_555
C2 C3B 1_555 1_555
C3 C1 1_555 1_555
U1 O1 1_555 1_555
Na1 O2 1_555 1_555
Si1 N1 1_555 1_555
Si2 N1 1_555 1_555
Si3 N2 1_555 1_555
Si4 N2 1_555 1_555
Si5 N3 1_555 1_555
Si6 N3 1_555 1_555
O1 C5 1_555 1_555
O2 C5 1_555 1_555
O3 U1 1_555 1_555
O4 C12 1_555 1_555
O5 Na1 1_555 1_555
O6 Na1 1_555 1_555
N1 U1 1_555 1_555
N2 U1 1_555 1_555
N3 U1 1_555 1_555
N4 Na1 1_555 1_555
C4 Si1 1_555 1_555
H1 C4 1_555 1_555
H2 C4 1_555 1_555
C5 C4 1_555 1_555
C6 Si1 1_555 1_555
H3 C6 1_555 1_555
H4 C6 1_555 1_555
H5 C6 1_555 1_555
C7 Si1 1_555 1_555
H6 C7 1_555 1_555
H7 C7 1_555 1_555
H8 C7 1_555 1_555
C8 Si2 1_555 1_555
H9 C8 1_555 1_555
H10 C8 1_555 1_555
H11 C8 1_555 1_555
C9 Si2 1_555 1_555
H12 C9 1_555 1_555
H13 C9 1_555 1_555
H14 C9 1_555 1_555
C10 Si2 1_555 1_555
H15 C10 1_555 1_555
H16 C10 1_555 1_555
H17 C10 1_555 1_555
C11 Si3 1_555 1_555
H18 C11 1_555 1_555
H19 C11 1_555 1_555
C12 O3 1_555 1_555
C13 Si3 1_555 1_555
H20 C13 1_555 1_555
H21 C13 1_555 1_555
H22 C13 1_555 1_555
C14 Si3 1_555 1_555
H23 C14 1_555 1_555
H24 C14 1_555 1_555
H25 C14 1_555 1_555
C15 Si4 1_555 1_555
H26 C15 1_555 1_555
H27 C15 1_555 1_555
H28 C15 1_555 1_555
C16 Si4 1_555 1_555
H29 C16 1_555 1_555
H30 C16 1_555 1_555
H31 C16 1_555 1_555
C17 Si4 1_555 1_555
H32 C17 1_555 1_555
H33 C17 1_555 1_555
H34 C17 1_555 1_555
C18 Si5 1_555 1_555
H35 C18 1_555 1_555
H36 C18 1_555 1_555
H37 C18 1_555 1_555
C19 Si5 1_555 1_555
H38 C19 1_555 1_555
H39 C19 1_555 1_555
H40 C19 1_555 1_555
C20 Si5 1_555 1_555
H41 C20 1_555 1_555
H42 C20 1_555 1_555
H43 C20 1_555 1_555
C21 Si6 1_555 1_555
H44 C21 1_555 1_555
H45 C21 1_555 1_555
H46 C21 1_555 1_555
C22 Si6 1_555 1_555
H47 C22 1_555 1_555
H48 C22 1_555 1_555
H49 C22 1_555 1_555
C23 Si6 1_555 1_555
H50 C23 1_555 1_555
H51 C23 1_555 1_555
H52 C23 1_555 1_555
N5 Na1 1_555 1_555
C24 N5 1_555 1_555
H53 C24 1_555 1_555
C25 C24 1_555 1_555
H54 C25 1_555 1_555
C26 C25 1_555 1_555
H55 C26 1_555 1_555
C27 C26 1_555 1_555
H56 C27 1_555 1_555
C28 N5 1_555 1_555
H57 C28 1_555 1_555
C29 N4 1_555 1_555
H58 C29 1_555 1_555
C30 C29 1_555 1_555
H59 C30 1_555 1_555
C31 C30 1_555 1_555
H60 C31 1_555 1_555
C32 C31 1_555 1_555
H61 C32 1_555 1_555
C33 N4 1_555 1_555
H62 C33 1_555 1_555
C34 O5 1_555 1_555
H63 C34 1_555 1_555
H64 C34 1_555 1_555
C35 C34 1_555 1_555
H65 C35 1_555 1_555
H66 C35 1_555 1_555
C36 C35 1_555 1_555
H67 C36 1_555 1_555
H68 C36 1_555 1_555
C37 O5 1_555 1_555
H69 C37 1_555 1_555
H70 C37 1_555 1_555
C38 O6 1_555 1_555
H71 C38 1_555 1_555
H72 C38 1_555 1_555
C39 C38 1_555 1_555
H73 C39 1_555 1_555
H74 C39 1_555 1_555
C40 C39 1_555 1_555
H75 C40 1_555 1_555
H76 C40 1_555 1_555
C41 O6 1_555 1_555
H77 C41 1_555 1_555
H78 C41 1_555 1_555
C1B C2B 1_555 1_555
C2B C3 1_555 1_555
C3B C1B 1_555 1_555
U1C O1C 1_555 1_555
U1C_2 O3C 1_555 1_555
Na1C O4 1_555 1_555
Si1C N1C 1_555 1_555
Si2C N1C 1_555 1_555
Si3C N2C 1_555 1_555
Si4C N2C 1_555 1_555
Si5C N3C 1_555 1_555
Si6C N3C 1_555 1_555
O1C C5C 1_555 1_555
O2C Na1C 1_555 1_555
O3C C12C 1_555 1_555
O3C_2 U1C 1_555 1_555
O4C Na1 1_555 1_555
O5C Na1C 1_555 1_555
O6C Na1C 1_555 1_555
N1C U1C 1_555 1_555
N2C U1C_2 1_555 1_555
N2C_2 U1C 1_555 1_555
N3C U1C 1_555 1_555
N4C Na1C 1_555 1_555
C4C Si1C 1_555 1_555
H1C C4C 1_555 1_555
H2C C4C 1_555 1_555
C5C O2C 1_555 1_555
C6C Si1C 1_555 1_555
H3C C6C 1_555 1_555
H4C C6C 1_555 1_555
H5C C6C 1_555 1_555
C7C Si1C 1_555 1_555
H6C C7C 1_555 1_555
H7C C7C 1_555 1_555
H8C C7C 1_555 1_555
C8C Si2C 1_555 1_555
H9C C8C 1_555 1_555
H10C C8C 1_555 1_555
H11C C8C 1_555 1_555
C9C Si2C 1_555 1_555
H12C C9C 1_555 1_555
H13C C9C 1_555 1_555
H14C C9C 1_555 1_555
C10C Si2C 1_555 1_555
H15C C10C 1_555 1_555
H16C C10C 1_555 1_555
H17C C10C 1_555 1_555
C11C Si3C 1_555 1_555
H18C C11C 1_555 1_555
H19C C11C 1_555 1_555
C12C O4C 1_555 1_555
C13C Si3C 1_555 1_555
H20C C13C 1_555 1_555
H21C C13C 1_555 1_555
H22C C13C 1_555 1_555
C14C Si3C 1_555 1_555
H23C C14C 1_555 1_555
H24C C14C 1_555 1_555
H25C C14C 1_555 1_555
C15C Si4C 1_555 1_555
H26C C15C 1_555 1_555
H27C C15C 1_555 1_555
H28C C15C 1_555 1_555
C16C Si4C 1_555 1_555
H29C C16C 1_555 1_555
H30C C16C 1_555 1_555
H31C C16C 1_555 1_555
C17C Si4C 1_555 1_555
H32C C17C 1_555 1_555
H33C C17C 1_555 1_555
H34C C17C 1_555 1_555
C18C Si5C 1_555 1_555
H35C C18C 1_555 1_555
H36C C18C 1_555 1_555
H37C C18C 1_555 1_555
C19C Si5C 1_555 1_555
H38C C19C 1_555 1_555
H39C C19C 1_555 1_555
H40C C19C 1_555 1_555
C20C Si5C 1_555 1_555
H41C C20C 1_555 1_555
H42C C20C 1_555 1_555
H43C C20C 1_555 1_555
C21C Si6C 1_555 1_555
H44C C21C 1_555 1_555
H45C C21C 1_555 1_555
H46C C21C 1_555 1_555
C22C Si6C 1_555 1_555
H47C C22C 1_555 1_555
H48C C22C 1_555 1_555
H49C C22C 1_555 1_555
C23C Si6C 1_555 1_555
H50C C23C 1_555 1_555
H51C C23C 1_555 1_555
H52C C23C 1_555 1_555
N5C Na1C 1_555 1_555
C24C N5C 1_555 1_555
H53C C24C 1_555 1_555
C25C C24C 1_555 1_555
H54C C25C 1_555 1_555
C26C C25C 1_555 1_555
H55C C26C 1_555 1_555
C27C C26C 1_555 1_555
H56C C27C 1_555 1_555
C28C N5C 1_555 1_555
H57C C28C 1_555 1_555
C29C N4C 1_555 1_555
H58C C29C 1_555 1_555
C30C C29C 1_555 1_555
H59C C30C 1_555 1_555
C31C C30C 1_555 1_555
H60C C31C 1_555 1_555
C32C C31C 1_555 1_555
H61C C32C 1_555 1_555
C33C N4C 1_555 1_555
H62C C33C 1_555 1_555
C34C O5C 1_555 1_555
H63C C34C 1_555 1_555
H64C C34C 1_555 1_555
C35C C34C 1_555 1_555
H65C C35C 1_555 1_555
H66C C35C 1_555 1_555
C36C C35C 1_555 1_555
H67C C36C 1_555 1_555
H68C C36C 1_555 1_555
C37C O5C 1_555 1_555
H69C C37C 1_555 1_555
H70C C37C 1_555 1_555
C38C O6C 1_555 1_555
H71C C38C 1_555 1_555
H72C C38C 1_555 1_555
C39C C38C 1_555 1_555
H73C C39C 1_555 1_555
H74C C39C 1_555 1_555
C40C C39C 1_555 1_555
H75C C40C 1_555 1_555
H76C C40C 1_555 1_555
C41C O6C 1_555 1_555
H77C C41C 1_555 1_555
H78C C41C 1_555 1_555
C11 C12 1_555 1_555
C27 C28 1_555 1_555
C32 C33 1_555 1_555
C36 C37 1_555 1_555
C40 C41 1_555 1_555
C4C C5C 1_555 1_555
C11C C12C 1_555 1_555
C27C C28C 1_555 1_555
C32C C33C 1_555 1_555
C36C C37C 1_555 1_555
C40C C41C 1_555 1_555

#END
