
#######################################################################
#
#                 Cambridge Crystallographic Data Centre
#                                CCDC 
#
#######################################################################
#
# If this CIF has been generated from an entry in the Cambridge 
# Structural Database, then it will include bibliographic, chemical, 
# crystal, experimental, refinement or atomic coordinate data resulting 
# from the CCDC's data processing and validation procedures.
#
#######################################################################

data_UKOSOC
_symmetry_cell_setting           monoclinic
_symmetry_space_group_name_H-M   'P 21/c'
_symmetry_Int_Tables_number      14
_space_group_name_Hall           '-P 2ybc'
loop_
_symmetry_equiv_pos_site_id
_symmetry_equiv_pos_as_xyz
1 x,y,z
2 x,1/2-y,1/2+z
3 -x,-y,-z
4 -x,1/2+y,1/2-z
_cell_length_a                   9.9426(17)
_cell_length_b                   11.2339(11)
_cell_length_c                   13.330(2)
_cell_angle_alpha                90
_cell_angle_beta                 90.85(2)
_cell_angle_gamma                90
_cell_volume                     1488.72
loop_
_atom_site_label
_atom_site_type_symbol
_atom_site_fract_x
_atom_site_fract_y
_atom_site_fract_z
Tl1 Tl 0.44578(4) 0.05275(3) 0.19041(2)
S1 S 0.5980(3) 0.0163(2) 0.37017(18)
S2 S 0.5411(3) -0.1939(2) 0.24056(16)
O1 O 0.6688(7) -0.2070(6) 0.4081(4)
C1 C 0.6063(9) -0.1298(8) 0.3458(6)
C2 C 0.7256(11) -0.1641(10) 0.5029(7)
H1 H 0.7916 -0.1038 0.4900
H2 H 0.7674 -0.2291 0.5383
H3 H 0.6553 -0.1312 0.5430
C3 C 0.2493(9) 0.0302(8) 0.2521(7)
C4 C 0.1562(11) 0.1185(12) 0.2440(8)
H4 H 0.1775 0.1880 0.2097
C5 C 0.0303(13) 0.1067(15) 0.2857(10)
H5 H -0.0330 0.1670 0.2771
C6 C -0.0021(13) 0.0067(16) 0.3398(11)
H6 H -0.0853 0.0002 0.3703
C7 C 0.0899(14) -0.0824(15) 0.3476(11)
H7 H 0.0672 -0.1516 0.3817
C8 C 0.2170(12) -0.0730(11) 0.3061(9)
H8 H 0.2795 -0.1341 0.3140
C9 C 0.6129(10) 0.0841(8) 0.0948(7)
C10 C 0.7357(13) 0.0289(13) 0.1158(10)
H9 H 0.7435 -0.0251 0.1684
C11 C 0.8466(14) 0.0553(13) 0.0572(11)
H10 H 0.9295 0.0211 0.0727
C12 C 0.8351(12) 0.1306(11) -0.0226(8)
H11 H 0.9086 0.1443 -0.0633
C13 C 0.7185(12) 0.1843(10) -0.0421(7)
H12 H 0.7120 0.2374 -0.0955
C14 C 0.6074(11) 0.1628(10) 0.0154(7)
H13 H 0.5271 0.2019 0.0004
S2C S 0.4589(3) 0.3061(2) 0.25944(16)
Tl1C Tl 0.55422(4) -0.44725(3) 0.30959(2)
O1C O 0.3312(7) 0.2930(6) 0.0919(4)
loop_
_geom_bond_atom_site_label_1
_geom_bond_atom_site_label_2
_geom_bond_site_symmetry_1
_geom_bond_site_symmetry_2
Tl1 S1 1_555 1_555
S1 C1 1_555 1_555
S2 Tl1 1_555 1_555
O1 C1 1_555 1_555
C1 S2 1_555 1_555
C2 O1 1_555 1_555
H1 C2 1_555 1_555
H2 C2 1_555 1_555
H3 C2 1_555 1_555
C3 Tl1 1_555 1_555
C4 C3 1_555 1_555
H4 C4 1_555 1_555
C5 C4 1_555 1_555
H5 C5 1_555 1_555
C6 C5 1_555 1_555
H6 C6 1_555 1_555
C7 C6 1_555 1_555
H7 C7 1_555 1_555
C8 C3 1_555 1_555
H8 C8 1_555 1_555
C9 Tl1 1_555 1_555
C10 C9 1_555 1_555
H9 C10 1_555 1_555
C11 C10 1_555 1_555
H10 C11 1_555 1_555
C12 C11 1_555 1_555
H11 C12 1_555 1_555
C13 C12 1_555 1_555
H12 C13 1_555 1_555
C14 C9 1_555 1_555
H13 C14 1_555 1_555
S2C Tl1 1_555 1_555
Tl1C S2 1_555 1_555
O1C Tl1 1_555 1_555
O1 Tl1C 1_555 1_555
C7 C8 1_555 1_555
C13 C14 1_555 1_555

#END
