
#######################################################################
#
#                 Cambridge Crystallographic Data Centre
#                                CCDC 
#
#######################################################################
#
# If this CIF has been generated from an entry in the Cambridge 
# Structural Database, then it will include bibliographic, chemical, 
# crystal, experimental, refinement or atomic coordinate data resulting 
# from the CCDC's data processing and validation procedures.
#
#######################################################################

data_UKOVUM
_symmetry_cell_setting           monoclinic
_symmetry_space_group_name_H-M   'C 2/c'
_symmetry_Int_Tables_number      15
_space_group_name_Hall           '-C 2yn'
loop_
_symmetry_equiv_pos_site_id
_symmetry_equiv_pos_as_xyz
1 x,y,z
2 -x,y,1/2-z
3 1/2+x,1/2+y,z
4 1/2-x,1/2+y,1/2-z
5 -x,-y,-z
6 x,-y,1/2+z
7 1/2-x,1/2-y,-z
8 1/2+x,1/2-y,1/2+z
_cell_length_a                   18.550
_cell_length_b                   8.880
_cell_length_c                   10.834
_cell_angle_alpha                90
_cell_angle_beta                 92.14
_cell_angle_gamma                90
_cell_volume                     1783.38
loop_
_atom_site_label
_atom_site_type_symbol
_atom_site_fract_x
_atom_site_fract_y
_atom_site_fract_z
S1 S 0.5000 0.8280(3) 0.2500
C1 C 0.5000 1.0281(14) 0.2500
O1 O 0.5798(6) 0.8069(11) 0.2873(9)
F1 F 0.5096(15) 1.0836(13) 0.1507(11)
F2 F 0.4386(8) 1.0718(15) 0.226(3)
O2 O 0.5130(7) 0.7823(12) 0.1301(10)
F2A F 0.5614(8) 1.0718(15) 0.274(3)
O2A O 0.4870(7) 0.7823(12) 0.3699(10)
Ag1 Ag 0.5000 0.5000 0.0000
C2 C 0.7521(3) 0.4608(6) 0.2945(5)
H1 H 0.7454 0.5615 0.3267
H2 H 0.7994 0.4567 0.2594
C3 C 0.6905(3) 0.2607(6) 0.4212(5)
H3 H 0.6497 0.2673 0.3688
C4 C 0.7497(3) 0.3494(5) 0.3997(4)
N1 N 0.6974(2) 0.4328(5) 0.1968(4)
C5 C 0.6368(3) 0.5039(6) 0.1724(5)
H4 H 0.6211 0.5885 0.2142
N2 N 0.7045(3) 0.3147(5) 0.1191(4)
C6 C 0.8090(3) 0.3380(6) 0.4801(5)
H5 H 0.8492 0.3978 0.4677
C7 C 0.6451(4) 0.3237(7) 0.0502(5)
H6 H 0.6341 0.2567 -0.0138
N3 N 0.6013(3) 0.4373(6) 0.0793(5)
Ag1B Ag 1.0000 0.0000 1.0000
C2F C 0.7479(3) 0.0392(6) 0.7055(5)
H1F H 0.7546 -0.0615 0.6733
H2F H 0.7006 0.0433 0.7406
C3F C 0.8095(3) 0.2393(6) 0.5788(5)
H3F H 0.8503 0.2327 0.6312
C4F C 0.7503(3) 0.1506(5) 0.6003(4)
N1F N 0.8026(2) 0.0672(5) 0.8032(4)
C5F C 0.8632(3) -0.0039(6) 0.8276(5)
H4F H 0.8789 -0.0885 0.7858
N2F N 0.7955(3) 0.1853(5) 0.8809(4)
C6F C 0.6910(3) 0.1620(6) 0.5199(5)
H5F H 0.6508 0.1022 0.5323
C7F C 0.8549(4) 0.1763(7) 0.9498(5)
H6F H 0.8659 0.2433 1.0138
N3F N 0.8987(3) 0.0627(6) 0.9207(5)
N3D N 0.3987(3) 0.5627(6) -0.0793(5)
loop_
_geom_bond_atom_site_label_1
_geom_bond_atom_site_label_2
_geom_bond_site_symmetry_1
_geom_bond_site_symmetry_2
S1 C1 1_555 1_555
C1 F1 1_555 1_555
O1 S1 1_555 1_555
F2 C1 1_555 1_555
O2 S1 1_555 1_555
Ag1 N3 1_555 1_555
C2 H1 1_555 1_555
H2 C2 1_555 1_555
C3 H3 1_555 1_555
C4 C2 1_555 1_555
N1 C2 1_555 1_555
C5 N1 1_555 1_555
H4 C5 1_555 1_555
N2 N1 1_555 1_555
C6 C4 1_555 1_555
H5 C6 1_555 1_555
C7 N2 1_555 1_555
H6 C7 1_555 1_555
N3 C5 1_555 1_555
F2A C1 1_555 1_555
O2A S1 1_555 1_555
Ag1B N3F 1_555 1_555
C2F H1F 1_555 1_555
H2F C2F 1_555 1_555
C3F C6 1_555 1_555
H3F C3F 1_555 1_555
C4F C2F 1_555 1_555
N1F C2F 1_555 1_555
C5F N1F 1_555 1_555
H4F C5F 1_555 1_555
N2F N1F 1_555 1_555
C6F C3 1_555 1_555
H5F C6F 1_555 1_555
C7F N2F 1_555 1_555
H6F C7F 1_555 1_555
N3F C5F 1_555 1_555
N3D Ag1 1_555 1_555
C3 C4 1_555 1_555
C7 N3 1_555 1_555
C3F C4F 1_555 1_555
C4F C6F 1_555 1_555
C7F N3F 1_555 1_555

#END
