
#######################################################################
#
#                 Cambridge Crystallographic Data Centre
#                                CCDC 
#
#######################################################################
#
# If this CIF has been generated from an entry in the Cambridge 
# Structural Database, then it will include bibliographic, chemical, 
# crystal, experimental, refinement or atomic coordinate data resulting 
# from the CCDC's data processing and validation procedures.
#
#######################################################################

data_UKOWIB
_symmetry_cell_setting           triclinic
_symmetry_space_group_name_H-M   'P -1'
_symmetry_Int_Tables_number      2
_space_group_name_Hall           '-P 1'
loop_
_symmetry_equiv_pos_site_id
_symmetry_equiv_pos_as_xyz
1 x,y,z
2 -x,-y,-z
_cell_length_a                   7.646(2)
_cell_length_b                   9.617(3)
_cell_length_c                   11.906(4)
_cell_angle_alpha                66.233(4)
_cell_angle_beta                 80.653(6)
_cell_angle_gamma                84.832(4)
_cell_volume                     790.289
loop_
_atom_site_label
_atom_site_type_symbol
_atom_site_fract_x
_atom_site_fract_y
_atom_site_fract_z
Cu1 Cu 0.12467(5) 1.16024(4) 0.26412(3)
O1 O 0.1420(3) 0.9309(2) 0.38974(18)
O2 O 0.0457(3) 0.9908(2) 0.21161(19)
O3 O 0.6924(4) 0.4653(3) 0.2661(2)
O4 O 0.9056(3) 0.5972(3) 0.1197(2)
O5 O -0.1332(3) 1.1821(2) 0.3491(2)
O6 O 0.0840(3) 1.3533(2) 0.1193(2)
N1 N 0.2190(3) 0.2601(3) 0.3657(2)
N2 N 0.3859(3) 1.1494(3) 0.1718(2)
C1 C 0.0919(4) 0.8921(3) 0.3098(3)
C2 C 0.1051(4) 0.7303(3) 0.3254(3)
H1 H 0.0483 0.7008 0.2754
C3 C 0.1960(4) 0.6266(3) 0.4089(3)
H2 H 0.2394 0.6585 0.4629
C4 C 0.2360(4) 0.4676(3) 0.4259(3)
C5 C 0.3334(4) 0.3744(3) 0.5189(3)
H3 H 0.3713 0.4121 0.5714
C6 C 0.3736(5) 0.2263(4) 0.5333(3)
H4 H 0.4395 0.1634 0.5949
C7 C 0.3154(5) 0.1728(3) 0.4557(3)
H5 H 0.3433 0.0728 0.4655
C8 C 0.1809(4) 0.4033(3) 0.3520(3)
H6 H 0.1142 0.4635 0.2900
C9 C 0.7551(4) 0.5850(3) 0.1862(3)
C10 C 0.6503(4) 0.7307(3) 0.1711(3)
H7 H 0.5319 0.7242 0.2063
C11 C 0.7177(4) 0.8665(3) 0.1108(3)
H8 H 0.8300 0.8710 0.0658
C12 C 0.6341(4) 1.0125(3) 0.1069(3)
C13 C 0.7287(4) 1.1462(4) 0.0503(3)
H9 H 0.8428 1.1464 0.0088
C14 C 0.6503(5) 1.2785(4) 0.0568(4)
H10 H 0.7113 1.3689 0.0194
C15 C 0.4824(4) 1.2757(3) 0.1185(3)
H11 H 0.4327 1.3651 0.1239
C16 C 0.4632(4) 1.0224(3) 0.1638(3)
H12 H 0.3973 0.9346 0.1989
H13 H -0.129(5) 1.152(3) 0.4262(12)
H14 H -0.190(5) 1.266(3) 0.318(3)
H15 H 0.013(4) 1.423(3) 0.127(3)
H16 H 0.093(4) 1.343(4) 0.0508(18)
Cu1_2 Cu 0.12467(5) 0.16024(4) 0.26412(3)
N1_2 N 0.2190(3) 1.2601(3) 0.3657(2)
loop_
_geom_bond_atom_site_label_1
_geom_bond_atom_site_label_2
_geom_bond_site_symmetry_1
_geom_bond_site_symmetry_2
Cu1 O1 1_555 1_555
O1 C1 1_555 1_555
O2 Cu1 1_555 1_555
O3 C9 1_555 1_555
O4 C9 1_555 1_555
O5 Cu1 1_555 1_555
O6 Cu1 1_555 1_555
N1 C7 1_555 1_555
N2 Cu1 1_555 1_555
C1 O2 1_555 1_555
C2 C1 1_555 1_555
H1 C2 1_555 1_555
C3 C2 1_555 1_555
H2 C3 1_555 1_555
C4 C3 1_555 1_555
C5 C4 1_555 1_555
H3 C5 1_555 1_555
C6 C5 1_555 1_555
H4 C6 1_555 1_555
C7 C6 1_555 1_555
H5 C7 1_555 1_555
C8 N1 1_555 1_555
H6 C8 1_555 1_555
C9 C10 1_555 1_555
C10 H7 1_555 1_555
C11 C10 1_555 1_555
H8 C11 1_555 1_555
C12 C11 1_555 1_555
C13 C12 1_555 1_555
H9 C13 1_555 1_555
C14 C13 1_555 1_555
H10 C14 1_555 1_555
C15 N2 1_555 1_555
H11 C15 1_555 1_555
C16 N2 1_555 1_555
H12 C16 1_555 1_555
H13 O5 1_555 1_555
H14 O5 1_555 1_555
H15 O6 1_555 1_555
H16 O6 1_555 1_555
Cu1_2 N1 1_555 1_555
N1_2 Cu1 1_555 1_555
C4 C8 1_555 1_555
C12 C16 1_555 1_555
C14 C15 1_555 1_555

#END
