
#######################################################################
#
#                 Cambridge Crystallographic Data Centre
#                                CCDC 
#
#######################################################################
#
# If this CIF has been generated from an entry in the Cambridge 
# Structural Database, then it will include bibliographic, chemical, 
# crystal, experimental, refinement or atomic coordinate data resulting 
# from the CCDC's data processing and validation procedures.
#
#######################################################################

data_UKOXUO
_symmetry_cell_setting           hexagonal
_symmetry_space_group_name_H-M   'P 63/m m c'
_symmetry_Int_Tables_number      194
_space_group_name_Hall           "-P 6c 2'c"
loop_
_symmetry_equiv_pos_site_id
_symmetry_equiv_pos_as_xyz
1 x,y,z
2 x-y,x,1/2+z
3 -y,x-y,z
4 -x,-y,1/2+z
5 -x+y,-x,z
6 y,-x+y,1/2+z
7 -y,-x,1/2-z
8 x-y,-y,-z
9 x,x-y,1/2-z
10 y,x,-z
11 -x+y,y,1/2-z
12 -x,-x+y,-z
13 -x,-y,-z
14 -x+y,-x,1/2-z
15 y,-x+y,-z
16 x,y,1/2-z
17 x-y,x,-z
18 -y,x-y,1/2-z
19 y,x,1/2+z
20 -x+y,y,z
21 -x,-x+y,1/2+z
22 -y,-x,z
23 x-y,-y,1/2+z
24 x,x-y,z
_cell_length_a                   13.1406(2)
_cell_length_b                   13.1406(2)
_cell_length_c                   13.6199(3)
_cell_angle_alpha                90
_cell_angle_beta                 90
_cell_angle_gamma                120
_cell_volume                     2036.74
loop_
_atom_site_label
_atom_site_type_symbol
_atom_site_fract_x
_atom_site_fract_y
_atom_site_fract_z
N6 N 0.0000 0.0000 0.7500
N7 N 0.0000 0.0000 0.8309(15)
N7F N 0.0000 0.0000 0.6691(15)
O1 O 1.0000 0.0000 0.0000
C1 C 0.1370(27) 0.3481(13) 0.5859(9)
C2 C 0.0259(19) 0.2564(11) 0.6411(11)
H1 H -0.0342 0.2774 0.6359
H2 H -0.0018 0.1802 0.6127
H3 H 0.0445 0.2548 0.7091
C3 C 0.5083(10) 1.0165(9) 0.2500
C4 C 0.5731(10) 1.1463(9) 0.2500
Cd1 Cd 0.3333 0.6667 0.39869(6)
Cd2 Cd 0.0000 0.5000 0.5000
N2 N 0.1393(6) 0.4411(4) 0.5322(3)
N3 N 0.2479(6) 0.4957(5) 0.4996(4)
N4 N 0.4194(7) 0.8389(5) 0.2976(4)
N5 N 0.4746(5) 0.9493(6) 0.3305(4)
C1S C 0.2111(30) 0.3481(13) 0.5859(9)
C1B C 0.6519(13) 0.7889(30) 0.5859(9)
C1U C 0.6519(13) 0.8630(27) 0.5859(9)
C1D C 0.2111(30) 0.8630(27) 0.5859(9)
C1W C 0.1370(27) 0.7889(30) 0.5859(9)
C1K C -0.1370(27) 0.2111(30) 0.4141(9)
C1P C -0.2111(30) 0.1370(27) 0.4141(9)
C1L C -0.1370(27) 0.6519(13) 0.4141(9)
C1G C -0.2111(30) 0.6519(13) 0.4141(9)
C1J C 0.2111(30) 0.3481(13) -0.0859(9)
C1O C 0.1370(27) 0.3481(13) -0.0859(9)
C1H C 0.1370(27) 0.7889(30) -0.0859(9)
C1M C 0.2111(30) 0.8630(27) -0.0859(9)
C1F C 0.6519(13) 0.8630(27) -0.0859(9)
C1Q C 0.6519(13) 0.7889(30) -0.0859(9)
C1N C 0.3481(13) 0.2111(30) 0.4141(9)
C1I C 0.3481(13) 0.1370(27) 0.4141(9)
C1G_2 C 0.7889(30) 0.6519(13) 0.4141(9)
C1L_2 C 0.8630(27) 0.6519(13) 0.4141(9)
C1P_2 C 0.7889(30) 1.1370(27) 0.4141(9)
C1K_2 C 0.8630(27) 1.2111(30) 0.4141(9)
C1I_2 C 0.3481(13) 1.1370(27) 0.4141(9)
C1N_2 C 0.3481(13) 1.2111(30) 0.4141(9)
C2S C 0.2305(22) 0.2564(11) 0.6411(11)
C2B C 0.7436(11) 0.7695(22) 0.6411(11)
C2U C 0.7436(11) 0.9741(19) 0.6411(11)
C2D C 0.2305(22) 0.9741(19) 0.6411(11)
C2W C 0.0259(19) 0.7695(22) 0.6411(11)
C2K C -0.0259(19) 0.2305(22) 0.3589(11)
C2P C -0.2305(22) 0.0259(19) 0.3589(11)
C2L C -0.0259(19) 0.7436(11) 0.3589(11)
C2G C -0.2305(22) 0.7436(11) 0.3589(11)
C2J C 0.2305(22) 0.2564(11) -0.1411(11)
C2O C 0.0259(19) 0.2564(11) -0.1411(11)
C2H C 0.0259(19) 0.7695(22) -0.1411(11)
C2M C 0.2305(22) 0.9741(19) -0.1411(11)
C2F C 0.7436(11) 0.9741(19) -0.1411(11)
C2Q C 0.7436(11) 0.7695(22) -0.1411(11)
C2N C 0.2564(11) 0.2305(22) 0.3589(11)
C2I C 0.2564(11) 0.0259(19) 0.3589(11)
C2G_2 C 0.7695(22) 0.7436(11) 0.3589(11)
C2L_2 C 0.9741(19) 0.7436(11) 0.3589(11)
C2P_2 C 0.7695(22) 1.0259(19) 0.3589(11)
C2K_2 C 0.9741(19) 1.2305(22) 0.3589(11)
C2I_2 C 0.2564(11) 1.0259(19) 0.3589(11)
C2N_2 C 0.2564(11) 1.2305(22) 0.3589(11)
H1S H 0.3116 0.2774 0.6359
H1B H 0.7226 0.6884 0.6359
H1U H 0.7226 1.0342 0.6359
H1D H 0.3116 1.0342 0.6359
H1W H -0.0342 0.6884 0.6359
H1K H 0.0342 0.3116 0.3641
H1P H -0.3116 -0.0342 0.3641
H1L H 0.0342 0.7226 0.3641
H1G H -0.3116 0.7226 0.3641
H1J H 0.3116 0.2774 -0.1359
H1O H -0.0342 0.2774 -0.1359
H1H H -0.0342 0.6884 -0.1359
H1M H 0.3116 1.0342 -0.1359
H1F H 0.7226 1.0342 -0.1359
H1Q H 0.7226 0.6884 -0.1359
H1N H 0.2774 0.3116 0.3641
H1I H 0.2774 -0.0342 0.3641
H1G_2 H 0.6884 0.7226 0.3641
H1L_2 H 1.0342 0.7226 0.3641
H1P_2 H 0.6884 0.9658 0.3641
H1K_2 H 1.0342 1.3116 0.3641
H1I_2 H 0.2774 0.9658 0.3641
H1N_2 H 0.2774 1.3116 0.3641
H2S H 0.1820 0.1802 0.6127
H2B H 0.8198 0.8180 0.6127
H2U H 0.8198 1.0018 0.6127
H2D H 0.1820 1.0018 0.6127
H2W H -0.0018 0.8180 0.6127
H2K H 0.0018 0.1820 0.3873
H2P H -0.1820 -0.0018 0.3873
H2L H 0.0018 0.8198 0.3873
H2G H -0.1820 0.8198 0.3873
H2J H 0.1820 0.1802 -0.1127
H2O H -0.0018 0.1802 -0.1127
H2H H -0.0018 0.8180 -0.1127
H2M H 0.1820 1.0018 -0.1127
H2F H 0.8198 1.0018 -0.1127
H2Q H 0.8198 0.8180 -0.1127
H2N H 0.1802 0.1820 0.3873
H2I H 0.1802 -0.0018 0.3873
H2G_2 H 0.8180 0.8198 0.3873
H2L_2 H 1.0018 0.8198 0.3873
H2P_2 H 0.8180 0.9982 0.3873
H2K_2 H 1.0018 1.1820 0.3873
H2I_2 H 0.1802 0.9982 0.3873
H2N_2 H 0.1802 1.1820 0.3873
H3S H 0.2103 0.2548 0.7091
H3B H 0.7452 0.7897 0.7091
H3U H 0.7452 0.9555 0.7091
H3D H 0.2103 0.9555 0.7091
H3W H 0.0445 0.7897 0.7091
H3K H -0.0445 0.2103 0.2909
H3P H -0.2103 0.0445 0.2909
H3L H -0.0445 0.7452 0.2909
H3G H -0.2103 0.7452 0.2909
H3J H 0.2103 0.2548 -0.2091
H3O H 0.0445 0.2548 -0.2091
H3H H 0.0445 0.7897 -0.2091
H3M H 0.2103 0.9555 -0.2091
H3F H 0.7452 0.9555 -0.2091
H3Q H 0.7452 0.7897 -0.2091
H3N H 0.2548 0.2103 0.2909
H3I H 0.2548 0.0445 0.2909
H3G_2 H 0.7897 0.7452 0.2909
H3L_2 H 0.9555 0.7452 0.2909
H3P_2 H 0.7897 1.0445 0.2909
H3K_2 H 0.9555 1.2103 0.2909
H3I_2 H 0.2548 1.0445 0.2909
H3N_2 H 0.2548 1.2103 0.2909
C3B C -0.0165(9) 0.4918(13) 0.2500
C3D C 0.5082(13) 0.4917(10) 0.2500
C3I C 0.0165(9) 0.5083(10) 0.7500
C3A C 0.4918(13) 0.5083(10) 0.7500
C3C C 0.4917(10) 0.9835(9) 0.7500
C4B C -0.1463(9) 0.4268(13) 0.2500
C4D C 0.5732(13) 0.4269(10) 0.2500
C4I C 0.1463(9) 0.5731(10) 0.7500
C4A C 0.4268(13) 0.5731(10) 0.7500
C4C C 0.4269(10) 0.8537(9) 0.7500
Cd1J Cd 0.3334 0.6667 0.10131(6)
Cd1K Cd -0.3333 0.3334 0.60131(6)
Cd1K_2 Cd 0.6667 0.3334 0.60131(6)
Cd1E Cd -0.3333 0.3334 0.89869(6)
Cd1E_2 Cd 0.6667 0.3334 0.89869(6)
Cd1G Cd 0.6666 1.3333 0.60131(6)
Cd1A Cd 0.6666 1.3333 0.89869(6)
Cd2B Cd 0.5000 0.5000 0.5000
Cd2D Cd 0.5000 1.0000 0.5000
Cd2A Cd 0.5000 1.0000 0.0000
Cd2C Cd 0.0000 0.5000 0.0000
Cd2E Cd 0.5000 0.5000 0.0000
Cd2D_2 Cd -0.5000 0.0000 0.5000
Cd2B_2 Cd -0.5000 0.5000 0.5000
Cd2C_2 Cd 0.0000 0.5000 1.0000
Cd2D_3 Cd 0.5000 0.0000 0.5000
Cd2_2 Cd 1.0000 0.5000 0.5000
Cd2E_2 Cd 0.5000 0.5000 1.0000
Cd2_3 Cd 1.0000 1.5000 0.5000
Cd2B_3 Cd 0.5000 1.5000 0.5000
Cd2A_2 Cd 0.5000 1.0000 1.0000
N2S N 0.3018(7) 0.4411(4) 0.5322(3)
N2B N 0.5589(4) 0.6982(7) 0.5322(3)
N2U N 0.5589(4) 0.8607(6) 0.5322(3)
N2D N 0.3018(7) 0.8607(6) 0.5322(3)
N2W N 0.1393(6) 0.6982(7) 0.5322(3)
N2K N -0.1393(6) 0.3018(7) 0.4678(3)
N2P N -0.3018(7) 0.1393(6) 0.4678(3)
N2L N -0.1393(6) 0.5589(4) 0.4678(3)
N2G N -0.3018(7) 0.5589(4) 0.4678(3)
N2J N 0.3018(7) 0.4411(4) -0.0322(3)
N2O N 0.1393(6) 0.4411(4) -0.0322(3)
N2H N 0.1393(6) 0.6982(7) -0.0322(3)
N2M N 0.3018(7) 0.8607(6) -0.0322(3)
N2F N 0.5589(4) 0.8607(6) -0.0322(3)
N2Q N 0.5589(4) 0.6982(7) -0.0322(3)
N2N N 0.4411(4) 0.3018(7) 0.4678(3)
N2I N 0.4411(4) 0.1393(6) 0.4678(3)
N2G_2 N 0.6982(7) 0.5589(4) 0.4678(3)
N2L_2 N 0.8607(6) 0.5589(4) 0.4678(3)
N2P_2 N 0.6982(7) 1.1393(6) 0.4678(3)
N2K_2 N 0.8607(6) 1.3018(7) 0.4678(3)
N2I_2 N 0.4411(4) 1.1393(6) 0.4678(3)
N2N_2 N 0.4411(4) 1.3018(7) 0.4678(3)
N2A N 0.6982(7) 1.1393(6) 0.0322(3)
N2R N 0.4411(4) 1.1393(6) 0.0322(3)
N2C N -0.1393(6) 0.5589(4) 0.0322(3)
N2T N -0.1393(6) 0.3018(7) 0.0322(3)
N2E N 0.4411(4) 0.3018(7) 0.0322(3)
N2V N 0.6982(7) 0.5589(4) 0.0322(3)
N3B N 0.5043(5) 0.7522(8) 0.4996(4)
N3D N 0.2478(8) 0.7521(6) 0.4996(4)
N3K N -0.2479(6) 0.2478(8) 0.5004(4)
N3L N -0.2479(6) 0.5043(5) 0.5004(4)
N3J N 0.2478(8) 0.4957(5) 0.0004(4)
N3H N 0.2479(6) 0.7522(8) 0.0004(4)
N3F N 0.5043(5) 0.7521(6) 0.0004(4)
N3N N 0.4957(5) 0.2478(8) 0.5004(4)
N3G N 0.7522(8) 0.5043(5) 0.5004(4)
N3P N 0.7522(8) 1.2479(6) 0.5004(4)
N3I N 0.4957(5) 1.2479(6) 0.5004(4)
N3I_2 N -0.5043(5) 0.2479(6) 0.5004(4)
N3P_2 N 0.7522(8) 0.2479(6) 0.5004(4)
N4J N 0.4195(9) 0.8389(5) 0.2024(4)
N4B N 0.1611(5) 0.5805(9) 0.2976(4)
N4F N 0.1611(5) 0.5806(7) 0.2024(4)
N4D N 0.4195(9) 0.5806(7) 0.2976(4)
N4H N 0.4194(7) 0.5805(9) 0.2024(4)
N4I N -0.1611(5) 0.4194(7) 0.7024(4)
N4E N -0.1611(5) 0.4195(9) 0.7976(4)
N4P N 0.5805(9) 0.4194(7) 0.7024(4)
N4T N 0.5806(7) 0.4195(9) 0.7976(4)
N4L N 0.5806(7) 1.1611(5) 0.7024(4)
N4V N 0.5805(9) 1.1611(5) 0.7976(4)
N4K N -0.4194(7) 0.4195(9) 0.7024(4)
N4G N -0.4195(9) 0.1611(5) 0.7024(4)
N4N N 0.8389(5) 0.4195(9) 0.7024(4)
N4L_2 N 0.5806(7) 0.1611(5) 0.7024(4)
N5J N 0.4747(8) 0.9493(6) 0.1695(4)
N5B N 0.0507(6) 0.5253(8) 0.3305(4)
N5F N 0.0507(6) 0.5254(5) 0.1695(4)
N5D N 0.4747(8) 0.5254(5) 0.3305(4)
N5H N 0.4746(5) 0.5253(8) 0.1695(4)
N5I N -0.0507(6) 0.4746(5) 0.6695(4)
N5E N -0.0507(6) 0.4747(8) 0.8305(4)
N5P N 0.5253(8) 0.4746(5) 0.6695(4)
N5T N 0.5254(5) 0.4747(8) 0.8305(4)
N5L N 0.5254(5) 1.0507(6) 0.6695(4)
N5V N 0.5253(8) 1.0507(6) 0.8305(4)
N5C N 0.5254(5) 1.0507(6) -0.1695(4)
N5E_2 N -0.0507(6) 0.4747(8) -0.1695(4)
N5A N 0.5253(8) 0.4746(5) -0.1695(4)
N1? N 0.2385(21) 0.3532(11) 0.5862(8)
H4? H 0.6477 1.1744 0.2818
H5? H 0.5284 1.1744 0.2847
H6? H 0.5854 1.1744 0.1836
H7? H 0.9685 0.0315 0.0290
loop_
_geom_bond_atom_site_label_1
_geom_bond_atom_site_label_2
_geom_bond_site_symmetry_1
_geom_bond_site_symmetry_2
C1 C2 1_555 1_555
C2 H1 1_555 1_555
H2 C2 1_555 1_555
H3 C2 1_555 1_555
C3 C4 1_555 1_555
Cd1 N3 1_555 1_555
Cd2 N2 1_555 1_555
N2 C1 1_555 1_555
N3 N2 1_555 1_555
N4 Cd1 1_555 1_555
N5 C3 1_555 1_555
N6 N7 1_555 1_555
C1S C1 1_555 1_555
C1B C1U 1_555 1_555
C1U C2U 1_555 1_555
C1D C1W 1_555 1_555
C1W C2W 1_555 1_555
C1K C1P 1_555 1_555
C1P C2P 1_555 1_555
C1L C1G 1_555 1_555
C1G C2G 1_555 1_555
C1J C1O 1_555 1_555
C1O C2O 1_555 1_555
C1H C1M 1_555 1_555
C1M C2M 1_555 1_555
C1F C1Q 1_555 1_555
C1Q C2Q 1_555 1_555
C1N C1I 1_555 1_555
C1I C2I 1_555 1_555
C1G_2 C1L_2 1_555 1_555
C1L_2 C2L_2 1_555 1_555
C1P_2 C1K_2 1_555 1_555
C1K_2 C2K_2 1_555 1_555
C1I_2 C1N_2 1_555 1_555
C1N_2 C2N_2 1_555 1_555
C2S C1S 1_555 1_555
C2B C1B 1_555 1_555
C2U H1U 1_555 1_555
C2D C1D 1_555 1_555
C2W H1W 1_555 1_555
C2K C1K 1_555 1_555
C2P H1P 1_555 1_555
C2L C1L 1_555 1_555
C2G H1G 1_555 1_555
C2J C1J 1_555 1_555
C2O H1O 1_555 1_555
C2H C1H 1_555 1_555
C2M H1M 1_555 1_555
C2F C1F 1_555 1_555
C2Q H1Q 1_555 1_555
C2N C1N 1_555 1_555
C2I H1I 1_555 1_555
C2G_2 C1G_2 1_555 1_555
C2L_2 H1L_2 1_555 1_555
C2P_2 C1P_2 1_555 1_555
C2K_2 H1K_2 1_555 1_555
C2I_2 C1I_2 1_555 1_555
C2N_2 H1N_2 1_555 1_555
H1S C2S 1_555 1_555
H1B C2B 1_555 1_555
H1D C2D 1_555 1_555
H1K C2K 1_555 1_555
H1L C2L 1_555 1_555
H1J C2J 1_555 1_555
H1H C2H 1_555 1_555
H1F C2F 1_555 1_555
H1N C2N 1_555 1_555
H1G_2 C2G_2 1_555 1_555
H1P_2 C2P_2 1_555 1_555
H1I_2 C2I_2 1_555 1_555
H2S C2S 1_555 1_555
H2B C2B 1_555 1_555
H2U C2U 1_555 1_555
H2D C2D 1_555 1_555
H2W C2W 1_555 1_555
H2K C2K 1_555 1_555
H2P C2P 1_555 1_555
H2L C2L 1_555 1_555
H2G C2G 1_555 1_555
H2J C2J 1_555 1_555
H2O C2O 1_555 1_555
H2H C2H 1_555 1_555
H2M C2M 1_555 1_555
H2F C2F 1_555 1_555
H2Q C2Q 1_555 1_555
H2N C2N 1_555 1_555
H2I C2I 1_555 1_555
H2G_2 C2G_2 1_555 1_555
H2L_2 C2L_2 1_555 1_555
H2P_2 C2P_2 1_555 1_555
H2K_2 C2K_2 1_555 1_555
H2I_2 C2I_2 1_555 1_555
H2N_2 C2N_2 1_555 1_555
H3S C2S 1_555 1_555
H3B C2B 1_555 1_555
H3U C2U 1_555 1_555
H3D C2D 1_555 1_555
H3W C2W 1_555 1_555
H3K C2K 1_555 1_555
H3P C2P 1_555 1_555
H3L C2L 1_555 1_555
H3G C2G 1_555 1_555
H3J C2J 1_555 1_555
H3O C2O 1_555 1_555
H3H C2H 1_555 1_555
H3M C2M 1_555 1_555
H3F C2F 1_555 1_555
H3Q C2Q 1_555 1_555
H3N C2N 1_555 1_555
H3I C2I 1_555 1_555
H3G_2 C2G_2 1_555 1_555
H3L_2 C2L_2 1_555 1_555
H3P_2 C2P_2 1_555 1_555
H3K_2 C2K_2 1_555 1_555
H3I_2 C2I_2 1_555 1_555
H3N_2 C2N_2 1_555 1_555
C3B C4B 1_555 1_555
C3D C4D 1_555 1_555
C3I C4I 1_555 1_555
C3A C4A 1_555 1_555
C3C C4C 1_555 1_555
Cd1J N3J 1_555 1_555
Cd1K N3K 1_555 1_555
Cd1K_2 N3N 1_555 1_555
Cd1E N4E 1_555 1_555
Cd1E_2 N4T 1_555 1_555
Cd1G N3P 1_555 1_555
Cd1A N4V 1_555 1_555
Cd2B N2S 1_555 1_555
Cd2D N5 1_555 1_555
Cd2A N2M 1_555 1_555
Cd2C N2O 1_555 1_555
Cd2E N2J 1_555 1_555
Cd2D_2 N2P 1_555 1_555
Cd2B_2 N2G 1_555 1_555
Cd2C_2 N5E 1_555 1_555
Cd2D_3 N2I 1_555 1_555
Cd2_2 N2L_2 1_555 1_555
Cd2E_2 N5T 1_555 1_555
Cd2_3 N2K_2 1_555 1_555
Cd2B_3 N2N_2 1_555 1_555
Cd2A_2 N5V 1_555 1_555
N2S N3 1_555 1_555
N2B C1B 1_555 1_555
N2U C1U 1_555 1_555
N2D C1D 1_555 1_555
N2W Cd2 1_555 1_555
N2K Cd2 1_555 1_555
N2P C1P 1_555 1_555
N2L Cd2 1_555 1_555
N2G C1G 1_555 1_555
N2J C1J 1_555 1_555
N2O C1O 1_555 1_555
N2H C1H 1_555 1_555
N2M C1M 1_555 1_555
N2F C1F 1_555 1_555
N2Q C1Q 1_555 1_555
N2N C1N 1_555 1_555
N2I C1I 1_555 1_555
N2G_2 C1G_2 1_555 1_555
N2L_2 C1L_2 1_555 1_555
N2P_2 C1P_2 1_555 1_555
N2K_2 C1K_2 1_555 1_555
N2I_2 C1I_2 1_555 1_555
N2N_2 C1N_2 1_555 1_555
N2A Cd2A 1_555 1_555
N2R Cd2A 1_555 1_555
N2C Cd2C 1_555 1_555
N2T Cd2C 1_555 1_555
N2E Cd2E 1_555 1_555
N2V Cd2E 1_555 1_555
N3B Cd1 1_555 1_555
N3D Cd1 1_555 1_555
N3K N2K 1_555 1_555
N3L Cd1K 1_555 1_555
N3J N2J 1_555 1_555
N3H Cd1J 1_555 1_555
N3F Cd1J 1_555 1_555
N3N N2N 1_555 1_555
N3G Cd1K_2 1_555 1_555
N3P N2P_2 1_555 1_555
N3I Cd1G 1_555 1_555
N3I_2 Cd1K 1_555 1_555
N3P_2 Cd1K_2 1_555 1_555
N4J N4 1_555 1_555
N4B Cd1 1_555 1_555
N4F Cd1J 1_555 1_555
N4D Cd1 1_555 1_555
N4H Cd1J 1_555 1_555
N4I Cd1K 1_555 1_555
N4E N4I 1_555 1_555
N4P Cd1K_2 1_555 1_555
N4T N4P 1_555 1_555
N4L Cd1G 1_555 1_555
N4V N4L 1_555 1_555
N4K Cd1K 1_555 1_555
N4G Cd1K 1_555 1_555
N4N Cd1K_2 1_555 1_555
N4L_2 Cd1K_2 1_555 1_555
N5J C3 1_555 1_555
N5B Cd2 1_555 1_555
N5F C3B 1_555 1_555
N5D C3D 1_555 1_555
N5H C3D 1_555 1_555
N5I Cd2 1_555 1_555
N5E C3I 1_555 1_555
N5P C3A 1_555 1_555
N5T C3A 1_555 1_555
N5L C3C 1_555 1_555
N5V C3C 1_555 1_555
N5C Cd2A 1_555 1_555
N5E_2 Cd2C 1_555 1_555
N5A Cd2E 1_555 1_555
N7F N6 1_555 1_555
N4 N5 1_555 1_555
C1S N2S 1_555 1_555
C1W N2W 1_555 1_555
C1K N2K 1_555 1_555
C1L N2L 1_555 1_555
C3B N5B 1_555 1_555
C3I N5I 1_555 1_555
Cd1J N4J 1_555 1_555
Cd2B N2B 1_555 1_555
Cd2B N2N 1_555 1_555
Cd2B N2G_2 1_555 1_555
Cd2B N5D 1_555 1_555
Cd2B N5P 1_555 1_555
Cd2D N2U 1_555 1_555
Cd2D N2D 1_555 1_555
Cd2D N2P_2 1_555 1_555
Cd2D N2I_2 1_555 1_555
Cd2D N5L 1_555 1_555
Cd2A N2F 1_555 1_555
Cd2A N5J 1_555 1_555
Cd2C N2H 1_555 1_555
Cd2C N5F 1_555 1_555
Cd2E N2Q 1_555 1_555
Cd2E N5H 1_555 1_555
N2B N3B 1_555 1_555
N2U N3B 1_555 1_555
N2D N3D 1_555 1_555
N2W N3D 1_555 1_555
N2P N3K 1_555 1_555
N2L N3L 1_555 1_555
N2G N3L 1_555 1_555
N2O N3J 1_555 1_555
N2H N3H 1_555 1_555
N2M N3H 1_555 1_555
N2F N3F 1_555 1_555
N2Q N3F 1_555 1_555
N2I N3N 1_555 1_555
N2G_2 N3G 1_555 1_555
N2L_2 N3G 1_555 1_555
N2K_2 N3P 1_555 1_555
N2I_2 N3I 1_555 1_555
N2N_2 N3I 1_555 1_555
N4J N5J 1_555 1_555
N4B N4F 1_555 1_555
N4B N5B 1_555 1_555
N4F N5F 1_555 1_555
N4D N4H 1_555 1_555
N4D N5D 1_555 1_555
N4H N5H 1_555 1_555
N4I N5I 1_555 1_555
N4E N5E 1_555 1_555
N4P N5P 1_555 1_555
N4T N5T 1_555 1_555
N4L N5L 1_555 1_555
N4V N5V 1_555 1_555

#END
