
#######################################################################
#
#                 Cambridge Crystallographic Data Centre
#                                CCDC 
#
#######################################################################
#
# If this CIF has been generated from an entry in the Cambridge 
# Structural Database, then it will include bibliographic, chemical, 
# crystal, experimental, refinement or atomic coordinate data resulting 
# from the CCDC's data processing and validation procedures.
#
#######################################################################

data_UKOYID
_symmetry_cell_setting           monoclinic
_symmetry_space_group_name_H-M   'P 21/c'
_symmetry_Int_Tables_number      14
_space_group_name_Hall           '-P 2ybc'
loop_
_symmetry_equiv_pos_site_id
_symmetry_equiv_pos_as_xyz
1 x,y,z
2 -x,1/2+y,1/2-z
3 -x,-y,-z
4 x,1/2-y,1/2+z
_cell_length_a                   11.3146(4)
_cell_length_b                   13.4518(4)
_cell_length_c                   7.0149(2)
_cell_angle_alpha                90
_cell_angle_beta                 105.790(2)
_cell_angle_gamma                90
_cell_volume                     1027.39
loop_
_atom_site_label
_atom_site_type_symbol
_atom_site_fract_x
_atom_site_fract_y
_atom_site_fract_z
Cd1 Cd 0.32564(5) 0.98072(4) 0.41743(7)
Cd2 Cd 0.17579(5) 0.74676(4) 0.60337(8)
Br1 Br 0.52910(7) 0.85478(5) 0.51085(12)
O1 O 0.1857(5) 0.8523(3) 0.3621(7)
H1 H 0.1383 0.8994 0.3333
N1 N 0.1466(6) 1.0777(5) 0.3321(9)
N2 N 0.0905(6) 1.1022(5) 0.1419(10)
N3 N -0.0056(7) 1.1576(5) 0.1382(10)
N4 N -0.0146(6) 1.1693(5) 0.3275(9)
N5 N 0.0958(8) 1.1096(7) 0.6390(11)
H2 H 0.0448 1.1361 0.6952
H3 H 0.1579 1.0767 0.7084
N6 N 0.3317(6) 0.9601(5) 0.7651(10)
N7 N 0.2996(6) 0.8701(4) 0.8165(9)
N8 N 0.2991(6) 0.8700(4) 1.0009(9)
N9 N 0.3298(6) 0.9605(5) 1.0824(9)
N10 N 0.3808(7) 1.1120(5) 0.9458(9)
H4 H 0.3883 1.1436 1.0551
H5 H 0.3927 1.1425 0.8448
C1 C 0.0786(8) 1.1198(6) 0.4402(12)
C2 C 0.3500(7) 1.0129(6) 0.9327(10)
Cd1B Cd 0.67436(5) 1.01928(4) 0.58257(7)
Cd1_2 Cd 0.32564(5) 0.98072(4) 1.41743(7)
Cd2C Cd 0.17579(5) 0.75324(4) 0.10337(8)
Cd2A Cd -0.17579(5) 1.24676(4) -0.10337(8)
Cd2B Cd -0.17579(5) 1.25324(4) 0.39663(8)
Cd2C_2 Cd 0.17579(5) 0.75324(4) 1.10337(8)
Br1B Br 0.47090(7) 1.14522(5) 0.48915(12)
O1C O 0.1857(5) 0.6477(3) 0.8621(7)
H1C H 0.1383 0.6006 0.8333
N3A N 0.0056(7) 0.6576(5) 0.3618(10)
N4B N 0.0146(6) 0.8307(5) 0.6725(9)
N8C N 0.2991(6) 0.6300(4) 0.5009(9)
N9_2 N 0.3298(6) 0.9605(5) 0.0824(9)
loop_
_geom_bond_atom_site_label_1
_geom_bond_atom_site_label_2
_geom_bond_site_symmetry_1
_geom_bond_site_symmetry_2
Cd1 Br1 1_555 1_555
Cd2 O1 1_555 1_555
Br1 Cd1B 1_555 1_555
O1 Cd1 1_555 1_555
H1 O1 1_555 1_555
N1 Cd1 1_555 1_555
N2 N1 1_555 1_555
N3 N2 1_555 1_555
N4 N3 1_555 1_555
N5 H2 1_555 1_555
H3 N5 1_555 1_555
N6 Cd1 1_555 1_555
N7 Cd2 1_555 1_555
N8 N7 1_555 1_555
N9 N8 1_555 1_555
N10 H4 1_555 1_555
H5 N10 1_555 1_555
C1 N1 1_555 1_555
C2 N6 1_555 1_555
Cd1B Br1B 1_555 1_555
Cd1_2 N9 1_555 1_555
Cd2C O1 1_555 1_555
Cd2A N3 1_555 1_555
Cd2B N4 1_555 1_555
Cd2C_2 N8 1_555 1_555
Br1B Cd1 1_555 1_555
O1C Cd2 1_555 1_555
H1C O1C 1_555 1_555
N3A Cd2 1_555 1_555
N4B Cd2 1_555 1_555
N8C Cd2 1_555 1_555
N9_2 Cd1 1_555 1_555
N4 C1 1_555 1_555
N5 C1 1_555 1_555
N6 N7 1_555 1_555
N9 C2 1_555 1_555
N10 C2 1_555 1_555
Cd2C_2 O1C 1_555 1_555

#END
