
#######################################################################
#
#                 Cambridge Crystallographic Data Centre
#                                CCDC 
#
#######################################################################
#
# If this CIF has been generated from an entry in the Cambridge 
# Structural Database, then it will include bibliographic, chemical, 
# crystal, experimental, refinement or atomic coordinate data resulting 
# from the CCDC's data processing and validation procedures.
#
#######################################################################

data_UKOZUQ
_symmetry_cell_setting           monoclinic
_symmetry_space_group_name_H-M   'C 2/c'
_symmetry_Int_Tables_number      15
_space_group_name_Hall           '-C 2yn'
loop_
_symmetry_equiv_pos_site_id
_symmetry_equiv_pos_as_xyz
1 x,y,z
2 -x,y,1/2-z
3 1/2+x,1/2+y,z
4 1/2-x,1/2+y,1/2-z
5 -x,-y,-z
6 x,-y,1/2+z
7 1/2-x,1/2-y,-z
8 1/2+x,1/2-y,1/2+z
_cell_length_a                   17.3879(3)
_cell_length_b                   8.34640(10)
_cell_length_c                   17.7306(3)
_cell_angle_alpha                90
_cell_angle_beta                 99.9194(15)
_cell_angle_gamma                90
_cell_volume                     2534.71
loop_
_atom_site_label
_atom_site_type_symbol
_atom_site_fract_x
_atom_site_fract_y
_atom_site_fract_z
Bi1 Bi 0.741293(16) 0.13523(3) 0.656349(16)
Cl1 Cl 0.81872(11) 0.3294(3) 0.78591(12)
O1 O 0.6320(4) 0.1026(8) 0.5712(4)
O2 O 0.5254(3) 0.2347(8) 0.5166(4)
O3 O 0.6071(4) 0.4429(8) 0.7828(3)
O4 O 0.6322(4) 0.2205(8) 0.7218(4)
O5 O 0.7120(4) 0.3698(6) 0.6089(4)
O6 O 0.6610(4) 0.3331(8) 0.4246(4)
O7 O 0.7270(3) 0.5584(7) 0.4443(3)
C1 C 0.5922(4) 0.2318(9) 0.5523(5)
C2 C 0.6114(5) 0.3688(8) 0.7210(6)
C3 C 0.5912(5) 0.4553(10) 0.6464(5)
H1 H 0.6045 0.5675 0.6547
H2 H 0.5351 0.4489 0.6294
C4 C 0.6320(6) 0.3916(11) 0.5821(6)
C5 C 0.6239(4) 0.5137(9) 0.5165(4)
H3 H 0.5696 0.5204 0.4920
H4 H 0.6399 0.6186 0.5369
C6 C 0.6734(5) 0.4662(10) 0.4576(4)
Bi1C Bi 0.758707(16) -0.36477(3) 0.843651(16)
Bi1C_2 Bi 0.758707(16) 0.63523(3) 0.843651(16)
Bi1F Bi 0.758707(16) 0.36477(3) 0.343651(16)
Cl1C Cl 0.68128(11) -0.1706(3) 0.71409(12)
Cl1_2 Cl 0.81872(11) -0.6706(3) 0.78591(12)
O1F O 0.8680(4) 0.3974(8) 0.4288(4)
O1C O 0.8680(4) -0.3974(8) 0.9288(4)
O2F O 0.9746(3) 0.2653(8) 0.4834(4)
O3F O 0.8929(4) 0.0571(8) 0.2172(3)
O4F O 0.8678(4) 0.2795(8) 0.2782(4)
O4C O 0.8678(4) -0.2795(8) 0.7782(4)
O5F O 0.7880(4) 0.1302(6) 0.3911(4)
O5C O 0.7880(4) -0.1302(6) 0.8911(4)
O6F O 0.8390(4) 0.1669(8) 0.5754(4)
O6E O 0.6610(4) -0.3331(8) 0.9246(4)
O7F O 0.7730(3) -0.0584(7) 0.5557(3)
O7E O 0.7270(3) -0.5584(7) 0.9443(3)
C1F C 0.9078(4) 0.2682(9) 0.4477(5)
C2F C 0.8886(5) 0.1312(8) 0.2790(6)
C3F C 0.9088(5) 0.0447(10) 0.3536(5)
H1F H 0.8955 -0.0675 0.3453
H2F H 0.9649 0.0511 0.3706
C4F C 0.8680(6) 0.1084(11) 0.4179(6)
C5F C 0.8761(4) -0.0137(9) 0.4835(4)
H3F H 0.9304 -0.0204 0.5080
H4F H 0.8601 -0.1186 0.4631
C6F C 0.8266(5) 0.0338(10) 0.5424(4)
C7 C 0.8861(6) 0.5965(12) 0.5933(6)
H5 H 0.9149 0.6932 0.5861
H6 H 0.8735 0.5414 0.5446
C8 C 0.9342(5) 0.4888(12) 0.6525(5)
H7 H 0.9523 0.5508 0.6984
H8 H 0.9011 0.4036 0.6660
N1 N 0.8136(4) 0.6368(7) 0.6229(5)
H9 H 0.8062 0.5995 0.6663
H10 H 0.7790 0.6976 0.5966
N2 N 1.0030(4) 0.4161(10) 0.6256(5)
H11 H 1.0119 0.4370 0.5804
H12 H 1.0337 0.3534 0.6553
O8 O 1.0000 0.1935(10) 0.7500
loop_
_geom_bond_atom_site_label_1
_geom_bond_atom_site_label_2
_geom_bond_site_symmetry_1
_geom_bond_site_symmetry_2
Bi1 Cl1 1_555 1_555
Cl1 Bi1C_2 1_555 1_555
O1 Bi1 1_555 1_555
O2 C1 1_555 1_555
O3 C2 1_555 1_555
O4 Bi1 1_555 1_555
O5 Bi1 1_555 1_555
O6 C6 1_555 1_555
O7 C6 1_555 1_555
C1 O1 1_555 1_555
C2 O4 1_555 1_555
C3 C2 1_555 1_555
H1 C3 1_555 1_555
H2 C3 1_555 1_555
C4 O5 1_555 1_555
C5 C4 1_555 1_555
H3 C5 1_555 1_555
H4 C5 1_555 1_555
C6 C5 1_555 1_555
C7 H5 1_555 1_555
H6 C7 1_555 1_555
C8 C7 1_555 1_555
H7 C8 1_555 1_555
H8 C8 1_555 1_555
N1 C7 1_555 1_555
H9 N1 1_555 1_555
H10 N1 1_555 1_555
N2 C8 1_555 1_555
H11 N2 1_555 1_555
H12 N2 1_555 1_555
Bi1C Cl1C 1_555 1_555
Bi1F O6 1_555 1_555
Cl1C Bi1 1_555 1_555
Cl1_2 Bi1C 1_555 1_555
O1F Bi1F 1_555 1_555
O1C Bi1C 1_555 1_555
O2F C1F 1_555 1_555
O3F C2F 1_555 1_555
O4F Bi1F 1_555 1_555
O4C Bi1C 1_555 1_555
O5F Bi1F 1_555 1_555
O5C Bi1C 1_555 1_555
O6F Bi1 1_555 1_555
O6E Bi1C 1_555 1_555
O7F Bi1 1_555 1_555
O7E Bi1C 1_555 1_555
C1F O1F 1_555 1_555
C2F O4F 1_555 1_555
C3F C2F 1_555 1_555
H1F C3F 1_555 1_555
H2F C3F 1_555 1_555
C4F O5F 1_555 1_555
C5F C4F 1_555 1_555
H3F C5F 1_555 1_555
H4F C5F 1_555 1_555
C6F O6F 1_555 1_555
O7 Bi1F 1_555 1_555
C1 C4 1_555 1_555
C3 C4 1_555 1_555
O7F C6F 1_555 1_555
C1F C4F 1_555 1_555
C3F C4F 1_555 1_555
C5F C6F 1_555 1_555

#END
