
#######################################################################
#
#                 Cambridge Crystallographic Data Centre
#                                CCDC 
#
#######################################################################
#
# If this CIF has been generated from an entry in the Cambridge 
# Structural Database, then it will include bibliographic, chemical, 
# crystal, experimental, refinement or atomic coordinate data resulting 
# from the CCDC's data processing and validation procedures.
#
#######################################################################

data_UKUBEI
_symmetry_cell_setting           monoclinic
_symmetry_space_group_name_H-M   'C 2/c'
_symmetry_Int_Tables_number      15
_space_group_name_Hall           '-C 2yn'
loop_
_symmetry_equiv_pos_site_id
_symmetry_equiv_pos_as_xyz
1 x,y,z
2 -x,y,1/2-z
3 1/2+x,1/2+y,z
4 1/2-x,1/2+y,1/2-z
5 -x,-y,-z
6 x,-y,1/2+z
7 1/2-x,1/2-y,-z
8 1/2+x,1/2-y,1/2+z
_cell_length_a                   16.4044(5)
_cell_length_b                   13.6668(4)
_cell_length_c                   10.2570(3)
_cell_angle_alpha                90
_cell_angle_beta                 91.56(3)
_cell_angle_gamma                90
_cell_volume                     2298.72
loop_
_atom_site_label
_atom_site_type_symbol
_atom_site_fract_x
_atom_site_fract_y
_atom_site_fract_z
O8 O 0.5000 -0.1082(10) 0.7500
O9 O 0.3630(11) 0.3926(10) 0.8175(17)
H5 H 0.3808 0.3277 0.8038
H6 H 0.3405 0.4192 0.8969
O10 O 0.0000 0.156(2) 0.7500
O11 O 0.1772(13) -0.0640(12) 0.934(2)
Bi1 Bi 0.39786(3) 0.12219(4) 0.99455(5)
O1 O 0.3662(6) 0.0078(7) 0.8378(10)
O2 O 0.2948(6) -0.0079(8) 0.6525(11)
O3 O 0.4657(6) 0.0765(6) 0.5803(9)
O4 O 0.4838(6) 0.2278(7) 0.5157(10)
O5 O 0.2466(6) 0.1390(7) 0.9645(10)
O6 O 0.1359(5) 0.2215(7) 0.8930(9)
O7 O 0.3804(6) 0.2009(7) 0.8127(9)
C1 C 0.3277(8) 0.0416(11) 0.7353(16)
C2 C 0.3262(9) 0.1546(12) 0.7185(17)
C3 C 0.3510(8) 0.1830(10) 0.5831(12)
H1 H 0.3412 0.2524 0.5699
H2 H 0.3179 0.1473 0.5192
C4 C 0.4399(9) 0.1611(12) 0.5631(16)
C5 C 0.2372(8) 0.1922(10) 0.7409(13)
H3 H 0.2348 0.2606 0.7159
H4 H 0.2006 0.1568 0.6819
C6 C 0.2051(9) 0.1836(10) 0.8746(16)
Bi1A Bi 0.60214(3) 0.12219(4) 0.50545(5)
Bi1F Bi 0.10214(3) 0.37781(4) 1.00545(5)
Bi1G Bi 0.89786(3) 0.37781(4) 0.49455(5)
O1A O 0.6338(6) 0.0078(7) 0.6622(10)
O2A O 0.7052(6) -0.0079(8) 0.8475(11)
O3A O 0.5343(6) 0.0765(6) 0.9197(9)
O4A O 0.5162(6) 0.2278(7) 0.9843(10)
O5A O 0.7534(6) 0.1390(7) 0.5355(10)
O6A O 0.8641(5) 0.2215(7) 0.6070(9)
O6F O 0.3641(5) 0.2785(7) 1.1070(9)
O6G O 0.6359(5) 0.2785(7) 0.3930(9)
O7A O 0.6196(6) 0.2009(7) 0.6873(9)
C1A C 0.6723(8) 0.0416(11) 0.7647(16)
C2A C 0.6738(9) 0.1546(12) 0.7815(17)
C3A C 0.6490(8) 0.1830(10) 0.9169(12)
H1A H 0.6588 0.2524 0.9301
H2A H 0.6821 0.1473 0.9808
C4A C 0.5601(9) 0.1611(12) 0.9369(16)
C5A C 0.7628(8) 0.1922(10) 0.7591(13)
H3A H 0.7652 0.2606 0.7841
H4A H 0.7994 0.1568 0.8181
C6A C 0.7949(9) 0.1836(10) 0.6254(16)
loop_
_geom_bond_atom_site_label_1
_geom_bond_atom_site_label_2
_geom_bond_site_symmetry_1
_geom_bond_site_symmetry_2
Bi1 O1 1_555 1_555
O1 C1 1_555 1_555
O2 C1 1_555 1_555
O3 C4 1_555 1_555
O4 C4 1_555 1_555
O5 Bi1 1_555 1_555
O6 C6 1_555 1_555
O7 Bi1 1_555 1_555
C1 C2 1_555 1_555
C2 O7 1_555 1_555
C3 C2 1_555 1_555
H1 C3 1_555 1_555
H2 C3 1_555 1_555
C4 C3 1_555 1_555
C5 C2 1_555 1_555
H3 C5 1_555 1_555
H4 C5 1_555 1_555
C6 O5 1_555 1_555
O9 H5 1_555 1_555
H6 O9 1_555 1_555
Bi1A O3 1_555 1_555
Bi1F O6 1_555 1_555
Bi1G O6A 1_555 1_555
O1A Bi1A 1_555 1_555
O2A C1A 1_555 1_555
O3A Bi1 1_555 1_555
O4A Bi1 1_555 1_555
O5A Bi1A 1_555 1_555
O6A C6A 1_555 1_555
O6F Bi1 1_555 1_555
O6G Bi1A 1_555 1_555
O7A Bi1A 1_555 1_555
C1A O1A 1_555 1_555
C2A O7A 1_555 1_555
C3A C2A 1_555 1_555
H1A C3A 1_555 1_555
H2A C3A 1_555 1_555
C4A O3A 1_555 1_555
C5A C2A 1_555 1_555
H3A C5A 1_555 1_555
H4A C5A 1_555 1_555
C6A O5A 1_555 1_555
O4 Bi1A 1_555 1_555
C5 C6 1_555 1_555
O4A C4A 1_555 1_555
C1A C2A 1_555 1_555
C3A C4A 1_555 1_555
C5A C6A 1_555 1_555

#END
