
#######################################################################
#
#                 Cambridge Crystallographic Data Centre
#                                CCDC 
#
#######################################################################
#
# If this CIF has been generated from an entry in the Cambridge 
# Structural Database, then it will include bibliographic, chemical, 
# crystal, experimental, refinement or atomic coordinate data resulting 
# from the CCDC's data processing and validation procedures.
#
#######################################################################

data_UKUCIM
_symmetry_cell_setting           tetragonal
_symmetry_space_group_name_H-M   'I 41/a'
_symmetry_Int_Tables_number      88
_space_group_name_Hall           '-I 4ad'
loop_
_symmetry_equiv_pos_site_id
_symmetry_equiv_pos_as_xyz
1 x,y,z
2 3/4-y,1/4+x,1/4+z
3 1/2+x,1/2+y,1/2+z
4 1/4-y,3/4+x,3/4+z
5 1/4+y,1/4-x,1/4+z
6 1/2+x,y,1/2-z
7 1/4-y,1/4+x,1/4-z
8 x,1/2+y,-z
9 -x,-y,-z
10 1/4+y,3/4-x,3/4-z
11 1/2-x,1/2-y,1/2-z
12 3/4+y,1/4-x,1/4-z
13 3/4-y,3/4+x,3/4-z
14 1/2-x,-y,1/2+z
15 3/4+y,3/4-x,3/4+z
16 -x,1/2-y,z
_cell_length_a                   24.604(3)
_cell_length_b                   24.604(3)
_cell_length_c                   12.130(2)
_cell_angle_alpha                90
_cell_angle_beta                 90
_cell_angle_gamma                90
_cell_volume                     7342.98
loop_
_atom_site_label
_atom_site_type_symbol
_atom_site_fract_x
_atom_site_fract_y
_atom_site_fract_z
K1 K 0.29014(4) 0.06094(4) 0.08740(8)
K2 K 0.32419(4) -0.03874(4) -0.13651(8)
O1 O 0.31650(12) -0.04461(12) 0.1008(3)
O2 O 0.18577(12) 0.02935(12) 0.0593(3)
O3 O 0.35876(14) 0.14450(14) 0.1209(3)
C1 C 0.35805(18) -0.07820(19) 0.0850(3)
C2 C 0.35008(19) -0.13530(19) 0.0771(4)
H1 H 0.3146 -0.1498 0.0869
C3 C 0.3927(2) -0.1701(2) 0.0553(4)
H2 H 0.3860 -0.2080 0.0486
C4 C 0.4450(2) -0.1508(2) 0.0433(4)
H3 H 0.4743 -0.1749 0.0295
C5 C 0.4535(2) -0.09560(19) 0.0518(4)
H4 H 0.4895 -0.0821 0.0433
C6 C 0.41183(19) -0.05901(19) 0.0722(4)
C7 C 0.4230(2) 0.0007(2) 0.0813(4)
H5 H 0.4493 0.0071 0.1406
H6 H 0.3890 0.0199 0.0979
H7 H 0.4378 0.0141 0.0115
C8 C 0.14302(18) 0.04542(18) 0.1155(3)
C9 C 0.10061(19) 0.0097(2) 0.1443(4)
H8 H 0.1019 -0.0267 0.1183
C10 C 0.05706(19) 0.0256(2) 0.2089(4)
H9 H 0.0294 0.0002 0.2269
C11 C 0.0538(2) 0.0782(2) 0.2471(5)
H10 H 0.0245 0.0890 0.2930
C12 C 0.0937(2) 0.1151(2) 0.2179(4)
H11 H 0.0909 0.1516 0.2429
C13 C 0.13771(18) 0.10018(19) 0.1531(4)
C14 C 0.1808(2) 0.1411(2) 0.1227(4)
H12 H 0.1916 0.1358 0.0456
H13 H 0.2126 0.1363 0.1704
H14 H 0.1664 0.1780 0.1321
C15 C 0.3329(2) 0.1955(2) 0.1270(5)
H15 H 0.2981 0.1926 0.1678
H16 H 0.3253 0.2098 0.0523
C16 C 0.3712(3) 0.2313(2) 0.1861(6)
H17 H 0.3650 0.2299 0.2667
H18 H 0.3679 0.2694 0.1608
C17 C 0.4254(3) 0.2083(3) 0.1570(8)
H19 H 0.4431 0.2306 0.0993
H20 H 0.4493 0.2072 0.2225
C18 C 0.4149(2) 0.1541(3) 0.1167(6)
H21 H 0.4281 0.1506 0.0399
H22 H 0.4344 0.1272 0.1627
O1C O 0.29461(12) 0.06650(12) -0.1492(3)
O2D O 0.27935(12) 0.06423(12) 0.3093(3)
O2C O 0.22065(12) -0.06423(12) -0.1907(3)
K1D K 0.31094(4) -0.04014(4) 0.33740(8)
K2D K 0.21126(4) -0.07419(4) 0.11349(8)
K1C K 0.18906(4) 0.04014(4) -0.16260(8)
loop_
_geom_bond_atom_site_label_1
_geom_bond_atom_site_label_2
_geom_bond_site_symmetry_1
_geom_bond_site_symmetry_2
K1 O1 1_555 1_555
K2 O1 1_555 1_555
O1 C1 1_555 1_555
O2 K1 1_555 1_555
O3 K1 1_555 1_555
C1 C2 1_555 1_555
C2 H1 1_555 1_555
C3 C2 1_555 1_555
H2 C3 1_555 1_555
C4 C3 1_555 1_555
H3 C4 1_555 1_555
C5 C4 1_555 1_555
H4 C5 1_555 1_555
C6 C1 1_555 1_555
C7 C6 1_555 1_555
H5 C7 1_555 1_555
H6 C7 1_555 1_555
H7 C7 1_555 1_555
C8 O2 1_555 1_555
C9 C8 1_555 1_555
H8 C9 1_555 1_555
C10 C9 1_555 1_555
H9 C10 1_555 1_555
C11 C10 1_555 1_555
H10 C11 1_555 1_555
C12 C11 1_555 1_555
H11 C12 1_555 1_555
C13 C8 1_555 1_555
C14 C13 1_555 1_555
H12 C14 1_555 1_555
H13 C14 1_555 1_555
H14 C14 1_555 1_555
C15 O3 1_555 1_555
H15 C15 1_555 1_555
H16 C15 1_555 1_555
C16 C15 1_555 1_555
H17 C16 1_555 1_555
H18 C16 1_555 1_555
C17 C16 1_555 1_555
H19 C17 1_555 1_555
H20 C17 1_555 1_555
C18 O3 1_555 1_555
H21 C18 1_555 1_555
H22 C18 1_555 1_555
O1C K1 1_555 1_555
O2D K1 1_555 1_555
O2C K2 1_555 1_555
K1D O1 1_555 1_555
K2D O1 1_555 1_555
K1C O2 1_555 1_555
K2 O1C 1_555 1_555
O2 K2D 1_555 1_555
C5 C6 1_555 1_555
C12 C13 1_555 1_555
C17 C18 1_555 1_555
O1C K1C 1_555 1_555
O2D K1D 1_555 1_555
O2C K1C 1_555 1_555

#END
