
#######################################################################
#
#                 Cambridge Crystallographic Data Centre
#                                CCDC 
#
#######################################################################
#
# If this CIF has been generated from an entry in the Cambridge 
# Structural Database, then it will include bibliographic, chemical, 
# crystal, experimental, refinement or atomic coordinate data resulting 
# from the CCDC's data processing and validation procedures.
#
#######################################################################

data_UKUFAH
_symmetry_cell_setting           monoclinic
_symmetry_space_group_name_H-M   'P 21'
_symmetry_Int_Tables_number      4
_space_group_name_Hall           'P 2yb'
loop_
_symmetry_equiv_pos_site_id
_symmetry_equiv_pos_as_xyz
1 x,y,z
2 -x,1/2+y,-z
_cell_length_a                   9.698(4)
_cell_length_b                   6.530(3)
_cell_length_c                   10.034(4)
_cell_angle_alpha                90
_cell_angle_beta                 101.368(6)
_cell_angle_gamma                90
_cell_volume                     622.966
loop_
_atom_site_label
_atom_site_type_symbol
_atom_site_fract_x
_atom_site_fract_y
_atom_site_fract_z
K1 K 0.64442(5) 0.65576(8) 0.98425(5)
O1 O 0.39177(14) 0.5301(2) 0.95257(15)
C1 C 0.29561(17) 0.6571(4) 0.97683(18)
C2 C 0.2045(2) 0.7618(3) 0.8672(2)
C3 C 0.1001(2) 0.8913(3) 0.8952(2)
H1 H 0.0403 0.9587 0.8219
C4 C 0.0802(2) 0.9257(4) 1.0272(2)
H2 H 0.0072 1.0132 1.0438
C5 C 0.1700(2) 0.8289(4) 1.1342(2)
H3 H 0.1577 0.8523 1.2246
C6 C 0.2773(2) 0.6987(3) 1.1124(2)
C7 C 0.2216(3) 0.7152(4) 0.7232(2)
H4 H 0.3238 0.6878 0.7273
C8 C 0.1803(4) 0.8921(6) 0.6229(3)
H5 H 0.2254 1.0186 0.6622
H6 H 0.0780 0.9094 0.6046
H7 H 0.2113 0.8615 0.5378
C9 C 0.1428(4) 0.5184(6) 0.6727(3)
H8 H 0.0413 0.5417 0.6612
H9 H 0.1710 0.4089 0.7393
H10 H 0.1655 0.4785 0.5854
C10 C 0.3754(2) 0.5993(3) 1.2317(2)
H11 H 0.4457 0.5169 1.1938
C11 C 0.2957(3) 0.4506(5) 1.3088(3)
H12 H 0.2466 0.3480 1.2455
H13 H 0.2272 0.5272 1.3490
H14 H 0.3627 0.3821 1.3809
C12 C 0.4573(3) 0.7565(5) 1.3297(3)
H15 H 0.3912 0.8430 1.3665
H16 H 0.5142 0.8420 1.2811
H17 H 0.5191 0.6850 1.4044
O1A O 0.60823(14) 1.0301(2) 1.04743(15)
K1A K 0.35558(5) 0.15576(8) 1.01575(5)
loop_
_geom_bond_atom_site_label_1
_geom_bond_atom_site_label_2
_geom_bond_site_symmetry_1
_geom_bond_site_symmetry_2
K1 O1 1_555 1_555
O1 C1 1_555 1_555
C1 C2 1_555 1_555
C2 C3 1_555 1_555
C3 H1 1_555 1_555
C4 C3 1_555 1_555
H2 C4 1_555 1_555
C5 C4 1_555 1_555
H3 C5 1_555 1_555
C6 C1 1_555 1_555
C7 C2 1_555 1_555
H4 C7 1_555 1_555
C8 C7 1_555 1_555
H5 C8 1_555 1_555
H6 C8 1_555 1_555
H7 C8 1_555 1_555
C9 C7 1_555 1_555
H8 C9 1_555 1_555
H9 C9 1_555 1_555
H10 C9 1_555 1_555
C10 C6 1_555 1_555
H11 C10 1_555 1_555
C11 C10 1_555 1_555
H12 C11 1_555 1_555
H13 C11 1_555 1_555
H14 C11 1_555 1_555
C12 C10 1_555 1_555
H15 C12 1_555 1_555
H16 C12 1_555 1_555
H17 C12 1_555 1_555
O1A K1 1_555 1_555
K1A O1 1_555 1_555
C5 C6 1_555 1_555

#END
