
#######################################################################
#
#                 Cambridge Crystallographic Data Centre
#                                CCDC 
#
#######################################################################
#
# If this CIF has been generated from an entry in the Cambridge 
# Structural Database, then it will include bibliographic, chemical, 
# crystal, experimental, refinement or atomic coordinate data resulting 
# from the CCDC's data processing and validation procedures.
#
#######################################################################

data_UKUFEL
_symmetry_cell_setting           orthorhombic
_symmetry_space_group_name_H-M   'P 21 21 21'
_symmetry_Int_Tables_number      19
_space_group_name_Hall           'P 2ac 2ab'
loop_
_symmetry_equiv_pos_site_id
_symmetry_equiv_pos_as_xyz
1 x,y,z
2 1/2-x,-y,1/2+z
3 -x,1/2+y,1/2-z
4 1/2+x,1/2-y,-z
_cell_length_a                   6.8444(18)
_cell_length_b                   12.333(3)
_cell_length_c                   16.208(4)
_cell_angle_alpha                90
_cell_angle_beta                 90
_cell_angle_gamma                90
_cell_volume                     1368.15
loop_
_atom_site_label
_atom_site_type_symbol
_atom_site_fract_x
_atom_site_fract_y
_atom_site_fract_z
K1 K 0.02005(8) 0.31424(5) 0.54638(3)
O1 O 0.1498(2) 0.16305(12) 0.44440(10)
C1 C 0.0008(4) 0.11422(17) 0.41018(13)
C2 C -0.0786(3) 0.01630(19) 0.44537(16)
C3 C -0.2430(4) -0.0309(2) 0.40933(18)
H1 H -0.297(4) -0.093(2) 0.4288(16)
C4 C -0.3299(4) 0.0113(2) 0.33891(17)
H2 H -0.444(4) -0.0239(19) 0.3154(14)
C5 C -0.2487(4) 0.1019(2) 0.30297(18)
H3 H -0.301(4) 0.128(2) 0.2565(16)
C6 C -0.0867(4) 0.1549(2) 0.33555(15)
C7 C 0.0250(4) -0.0401(2) 0.51850(15)
C8 C 0.2348(5) -0.0681(3) 0.4951(2)
H4 H 0.248(4) -0.121(2) 0.4486(19)
H5 H 0.303(4) -0.008(3) 0.4774(17)
H6 H 0.302(4) -0.098(2) 0.5411(18)
C9 C -0.0735(6) -0.1473(3) 0.5416(3)
H7 H -0.007(6) -0.180(3) 0.585(2)
H8 H -0.070(6) -0.197(3) 0.494(2)
H9 H -0.202(6) -0.138(3) 0.561(2)
C10 C 0.0249(6) 0.0317(3) 0.59566(19)
H10 H 0.083(4) 0.100(2) 0.5886(16)
H11 H 0.085(4) -0.006(2) 0.6388(18)
H12 H -0.110(6) 0.043(3) 0.614(2)
C11 C 0.0066(5) 0.2503(2) 0.28823(15)
C12 C 0.0342(6) 0.3516(3) 0.3423(2)
H13 H -0.080(5) 0.372(2) 0.3669(19)
H14 H 0.134(5) 0.337(3) 0.3834(19)
H15 H 0.079(5) 0.414(3) 0.305(2)
C13 C -0.1154(6) 0.2877(4) 0.2145(2)
H16 H -0.117(4) 0.229(2) 0.1744(19)
H17 H -0.260(5) 0.307(3) 0.229(2)
H18 H -0.048(5) 0.351(3) 0.1876(19)
C14 C 0.2068(5) 0.2131(4) 0.2559(2)
H19 H 0.289(5) 0.186(3) 0.299(2)
H20 H 0.273(4) 0.266(3) 0.2287(18)
H21 H 0.205(5) 0.156(3) 0.212(2)
K1C K 0.52005(8) 0.18576(5) 0.45362(3)
O1C O -0.3502(2) 0.33695(12) 0.55560(10)
loop_
_geom_bond_atom_site_label_1
_geom_bond_atom_site_label_2
_geom_bond_site_symmetry_1
_geom_bond_site_symmetry_2
K1 O1 1_555 1_555
O1 C1 1_555 1_555
C1 C2 1_555 1_555
C2 C3 1_555 1_555
C3 H1 1_555 1_555
C4 C3 1_555 1_555
H2 C4 1_555 1_555
C5 C4 1_555 1_555
H3 C5 1_555 1_555
C6 C1 1_555 1_555
C7 C2 1_555 1_555
C8 C7 1_555 1_555
H4 C8 1_555 1_555
H5 C8 1_555 1_555
H6 C8 1_555 1_555
C9 C7 1_555 1_555
H7 C9 1_555 1_555
H8 C9 1_555 1_555
H9 C9 1_555 1_555
C10 C7 1_555 1_555
H10 C10 1_555 1_555
H11 C10 1_555 1_555
H12 C10 1_555 1_555
C11 C6 1_555 1_555
C12 C11 1_555 1_555
H13 C12 1_555 1_555
H14 C12 1_555 1_555
H15 C12 1_555 1_555
C13 C11 1_555 1_555
H16 C13 1_555 1_555
H17 C13 1_555 1_555
H18 C13 1_555 1_555
C14 C11 1_555 1_555
H19 C14 1_555 1_555
H20 C14 1_555 1_555
H21 C14 1_555 1_555
K1C O1 1_555 1_555
O1C K1 1_555 1_555
C5 C6 1_555 1_555

#END
