
#######################################################################
#
#                 Cambridge Crystallographic Data Centre
#                                CCDC 
#
#######################################################################
#
# If this CIF has been generated from an entry in the Cambridge 
# Structural Database, then it will include bibliographic, chemical, 
# crystal, experimental, refinement or atomic coordinate data resulting 
# from the CCDC's data processing and validation procedures.
#
#######################################################################

data_UKUHEN
_symmetry_cell_setting           monoclinic
_symmetry_space_group_name_H-M   'C 2'
_symmetry_Int_Tables_number      5
_space_group_name_Hall           'C 2y'
loop_
_symmetry_equiv_pos_site_id
_symmetry_equiv_pos_as_xyz
1 x,y,z
2 -x,y,-z
3 1/2+x,1/2+y,z
4 1/2-x,1/2+y,-z
_cell_length_a                   16.5391(40)
_cell_length_b                   9.6065(7)
_cell_length_c                   7.5001(6)
_cell_angle_alpha                90
_cell_angle_beta                 105.7790(70)
_cell_angle_gamma                90
_cell_volume                     1146.73
loop_
_atom_site_label
_atom_site_type_symbol
_atom_site_fract_x
_atom_site_fract_y
_atom_site_fract_z
Co1 Co 0.0000 0.13632(8) 0.0000
Co2 Co 0.0000 0.63419(9) 0.5000
O1 O 0.12978(15) 0.1420(4) 0.0827(3)
O2 O 0.3185(2) -0.3014(4) 0.3471(5)
N1 N 0.1748(2) 0.0305(4) 0.1481(5)
N2 N 0.2738(3) -0.1934(4) 0.2854(5)
N3 N -0.0032(3) 0.2871(4) 0.2072(5)
N4 N 0.0000 0.4067(5) 0.5000
N5 N 0.0000 -0.1367(5) 0.5000
N6 N -0.0039(3) -0.0179(4) 0.2059(5)
N7 N -0.0933(2) 0.6368(6) 0.2461(4)
N8 N -0.1419(3) 0.5751(6) -0.0801(5)
N9 N -0.0861(2) 0.6343(6) -0.3402(4)
C1 C 0.1909(3) -0.0032(5) 0.3276(5)
H1 H 0.1679 0.0505 0.4047
C2 C 0.2403(3) -0.1143(6) 0.4002(7)
C3 C 0.2573(4) -0.1543(7) 0.5976(7)
H2 H 0.2930 -0.2349 0.6211
H3 H 0.2053 -0.1752 0.6253
H4 H 0.2847 -0.0787 0.6743
C4 C 0.2590(3) -0.1547(5) 0.1042(6)
H5 H 0.2834 -0.2051 0.0266
C5 C 0.2092(3) -0.0442(5) 0.0353(6)
H6 H 0.1989 -0.0201 -0.0890
C6 C -0.0007(3) 0.3366(4) 0.3462(7)
C7 C -0.0029(3) -0.0673(5) 0.3471(6)
C8 C -0.1118(3) 0.6135(6) 0.0906(5)
C9 C -0.1086(3) 0.6120(6) -0.2107(5)
O1A O -0.12978(15) 0.1420(4) -0.0827(3)
N1A N -0.1748(2) 0.0305(4) -0.1481(5)
C1A C -0.1909(3) -0.0032(5) -0.3276(5)
H1A H -0.1679 0.0505 -0.4047
C2A C -0.2403(3) -0.1143(6) -0.4002(7)
N2A N -0.2738(3) -0.1934(4) -0.2854(5)
O2A O -0.3185(2) -0.3014(4) -0.3471(5)
C4A C -0.2590(3) -0.1547(5) -0.1042(6)
H5A H -0.2834 -0.2051 -0.0266
C5A C -0.2092(3) -0.0442(5) -0.0353(6)
H6A H -0.1989 -0.0201 0.0890
C3A C -0.2573(4) -0.1543(7) -0.5976(7)
H2A H -0.2930 -0.2349 -0.6211
H3A H -0.2053 -0.1752 -0.6253
H4A H -0.2847 -0.0787 -0.6743
Co2A Co 0.0000 0.63419(9) -0.5000
N9_2 N -0.0861(2) 0.6343(6) 0.6598(4)
N9A N 0.0861(2) 0.6343(6) 0.3402(4)
N7A N 0.0933(2) 0.6368(6) 0.7539(4)
C6A C 0.0007(3) 0.3366(4) 0.6538(7)
N3A N 0.0032(3) 0.2871(4) -0.2072(5)
N6A N 0.0039(3) -0.0179(4) -0.2059(5)
N5_2 N 0.0000 0.8633(5) 0.5000
C8A C 0.1118(3) 0.6135(6) 0.9094(5)
N3A_2 N 0.0032(3) 0.2871(4) 0.7928(5)
Co2_2 Co 0.0000 -0.36581(9) 0.5000
C7A C 0.0029(3) -0.0673(5) 0.6529(6)
N8A N 0.1419(3) 0.5751(6) 1.0801(5)
Co1_2 Co 0.0000 0.13632(8) 1.0000
N6A_2 N 0.0039(3) -0.0179(4) 0.7941(5)
C9A C 0.1086(3) 0.6120(6) 1.2107(5)
Co2_3 Co 0.0000 0.63419(9) 1.5000
N9A_2 N 0.0861(2) 0.6343(6) 1.3402(4)
loop_
_geom_bond_atom_site_label_1
_geom_bond_atom_site_label_2
_geom_bond_site_symmetry_1
_geom_bond_site_symmetry_2
Co1 O1 1_555 1_555
Co2 N4 1_555 1_555
O1 N1 1_555 1_555
O2 N2 1_555 1_555
N1 C1 1_555 1_555
N2 C2 1_555 1_555
N3 Co1 1_555 1_555
N4 C6 1_555 1_555
N5 C7 1_555 1_555
N6 Co1 1_555 1_555
N7 Co2 1_555 1_555
N8 C8 1_555 1_555
N9 C9 1_555 1_555
C1 H1 1_555 1_555
C2 C1 1_555 1_555
C3 C2 1_555 1_555
H2 C3 1_555 1_555
H3 C3 1_555 1_555
H4 C3 1_555 1_555
C4 N2 1_555 1_555
H5 C4 1_555 1_555
C5 N1 1_555 1_555
H6 C5 1_555 1_555
C6 N3 1_555 1_555
C7 N6 1_555 1_555
C8 N7 1_555 1_555
C9 N8 1_555 1_555
O1A Co1 1_555 1_555
N1A O1A 1_555 1_555
C1A N1A 1_555 1_555
H1A C1A 1_555 1_555
C2A C1A 1_555 1_555
N2A C2A 1_555 1_555
O2A N2A 1_555 1_555
C4A N2A 1_555 1_555
H5A C4A 1_555 1_555
C5A N1A 1_555 1_555
H6A C5A 1_555 1_555
C3A C2A 1_555 1_555
H2A C3A 1_555 1_555
H3A C3A 1_555 1_555
H4A C3A 1_555 1_555
Co2A N9 1_555 1_555
N9_2 Co2 1_555 1_555
N9A Co2 1_555 1_555
N7A Co2 1_555 1_555
C6A N4 1_555 1_555
N3A Co1 1_555 1_555
N6A Co1 1_555 1_555
N5_2 Co2 1_555 1_555
C8A N7A 1_555 1_555
N3A_2 C6A 1_555 1_555
Co2_2 N5 1_555 1_555
C7A N5 1_555 1_555
N8A C8A 1_555 1_555
Co1_2 N3A_2 1_555 1_555
N6A_2 C7A 1_555 1_555
C9A N8A 1_555 1_555
Co2_3 N9A_2 1_555 1_555
N9A_2 C9A 1_555 1_555
C4 C5 1_555 1_555
C4A C5A 1_555 1_555
Co1_2 N6A_2 1_555 1_555

#END
