
#######################################################################
#
#                 Cambridge Crystallographic Data Centre
#                                CCDC 
#
#######################################################################
#
# If this CIF has been generated from an entry in the Cambridge 
# Structural Database, then it will include bibliographic, chemical, 
# crystal, experimental, refinement or atomic coordinate data resulting 
# from the CCDC's data processing and validation procedures.
#
#######################################################################

data_UKUHAJ
_symmetry_cell_setting           orthorhombic
_symmetry_space_group_name_H-M   'P n n m'
_symmetry_Int_Tables_number      58
_space_group_name_Hall           '-P 2 2n'
loop_
_symmetry_equiv_pos_site_id
_symmetry_equiv_pos_as_xyz
1 x,y,z
2 x,y,-z
3 1/2+x,1/2-y,1/2+z
4 1/2-x,1/2+y,1/2+z
5 -x,-y,-z
6 -x,-y,z
7 1/2-x,1/2+y,1/2-z
8 1/2+x,1/2-y,1/2-z
_cell_length_a                   9.4699(5)
_cell_length_b                   14.9984(30)
_cell_length_c                   7.4313(7)
_cell_angle_alpha                90
_cell_angle_beta                 90
_cell_angle_gamma                90
_cell_volume                     1055.49
loop_
_atom_site_label
_atom_site_type_symbol
_atom_site_fract_x
_atom_site_fract_y
_atom_site_fract_z
Co1 Co -0.5000 0.0000 0.5000
Co2 Co 0.0000 0.0000 0.0000
O1 O -0.5042(4) -0.1425(2) 0.5000
O2 O -0.0332(4) -0.3421(3) 0.5000
N1 N -0.3844(5) -0.1885(3) 0.5000
N2 N -0.1459(5) -0.2926(3) 0.5000
N3 N -0.3476(3) -0.0024(2) 0.2949(4)
N4 N -0.2300(4) -0.0048(3) 0.0000
N5 N -0.0083(4) 0.0950(2) 0.2053(4)
N6 N -0.0915(6) 0.1465(3) 0.5000
H1 H -0.367(5) -0.199(3) 0.232(6)
H2 H -0.171(5) -0.287(3) 0.211(7)
C1 C -0.3246(4) -0.2140(3) 0.3419(6)
C2 C -0.2065(4) -0.2662(3) 0.3423(6)
C3 C -0.2984(3) -0.0033(3) 0.1536(5)
C4 C -0.0435(4) 0.1150(3) 0.3474(6)
C2A C -0.2065(4) -0.2662(3) 0.6577(6)
H2A H -0.171(5) -0.287(3) 0.789(7)
C1A C -0.3246(4) -0.2140(3) 0.6581(6)
H1A H -0.367(5) -0.199(3) 0.768(6)
O1D O -0.4958(4) 0.1425(2) 0.5000
N1D N -0.6156(5) 0.1885(3) 0.5000
C1D C -0.6754(4) 0.2140(3) 0.6581(6)
H1D H -0.633(5) 0.199(3) 0.768(6)
C2D C -0.7935(4) 0.2662(3) 0.6577(6)
N2D N -0.8541(5) 0.2926(3) 0.5000
O2D O -0.9668(4) 0.3421(3) 0.5000
C2E C -0.7935(4) 0.2662(3) 0.3423(6)
H2E H -0.829(5) 0.287(3) 0.211(7)
C1E C -0.6754(4) 0.2140(3) 0.3419(6)
H1E H -0.633(5) 0.199(3) 0.232(6)
H2D H -0.829(5) 0.287(3) 0.789(7)
N4D N 0.2300(4) 0.0048(3) 0.0000
Co2E Co 0.0000 0.0000 -1.0000
C4A C -0.0435(4) 0.1150(3) 0.6526(6)
N5A N -0.0083(4) 0.0950(2) 0.7947(4)
Co2A Co 0.0000 0.0000 1.0000
N4A N -0.2300(4) -0.0048(3) 1.0000
N5A_2 N -0.0083(4) 0.0950(2) -0.2053(4)
N5D N 0.0083(4) -0.0950(2) -0.2053(4)
N5E N 0.0083(4) -0.0950(2) 0.2053(4)
C3A C -0.2984(3) -0.0033(3) -0.1536(5)
N3A N -0.3476(3) -0.0024(2) 0.7051(4)
N3D N -0.6524(3) 0.0024(2) 0.7051(4)
N3E N -0.6524(3) 0.0024(2) 0.2949(4)
C3_2 C -0.2984(3) -0.0033(3) 1.1536(5)
C3A_2 C -0.2984(3) -0.0033(3) 0.8464(5)
C4A_2 C -0.0435(4) 0.1150(3) -0.3474(6)
N3A_2 N -0.3476(3) -0.0024(2) -0.2949(4)
N3_2 N -0.3476(3) -0.0024(2) 1.2949(4)
N6_2 N -0.0915(6) 0.1465(3) -0.5000
Co1_2 Co -0.5000 0.0000 -0.5000
Co1_3 Co -0.5000 0.0000 1.5000
C4_2 C -0.0435(4) 0.1150(3) -0.6526(6)
N5_2 N -0.0083(4) 0.0950(2) -0.7947(4)
loop_
_geom_bond_atom_site_label_1
_geom_bond_atom_site_label_2
_geom_bond_site_symmetry_1
_geom_bond_site_symmetry_2
Co1 O1 1_555 1_555
Co2 N4 1_555 1_555
O1 N1 1_555 1_555
O2 N2 1_555 1_555
N1 C1 1_555 1_555
N2 C2 1_555 1_555
N3 Co1 1_555 1_555
N4 C3 1_555 1_555
N5 Co2 1_555 1_555
N6 C4 1_555 1_555
H1 C1 1_555 1_555
H2 C2 1_555 1_555
C1 C2 1_555 1_555
C3 N3 1_555 1_555
C4 N5 1_555 1_555
C2A N2 1_555 1_555
H2A C2A 1_555 1_555
C1A N1 1_555 1_555
H1A C1A 1_555 1_555
O1D Co1 1_555 1_555
N1D O1D 1_555 1_555
C1D N1D 1_555 1_555
H1D C1D 1_555 1_555
C2D C1D 1_555 1_555
N2D C2D 1_555 1_555
O2D N2D 1_555 1_555
C2E N2D 1_555 1_555
H2E C2E 1_555 1_555
C1E N1D 1_555 1_555
H1E C1E 1_555 1_555
H2D C2D 1_555 1_555
N4D Co2 1_555 1_555
Co2E N5_2 1_555 1_555
C4A N6 1_555 1_555
N5A C4A 1_555 1_555
Co2A N5A 1_555 1_555
N4A Co2A 1_555 1_555
N5A_2 Co2 1_555 1_555
N5D Co2 1_555 1_555
N5E Co2 1_555 1_555
C3A N4 1_555 1_555
N3A Co1 1_555 1_555
N3D Co1 1_555 1_555
N3E Co1 1_555 1_555
C3_2 N4A 1_555 1_555
C3A_2 N4A 1_555 1_555
C4A_2 N5A_2 1_555 1_555
N3A_2 C3A 1_555 1_555
N3_2 C3_2 1_555 1_555
N6_2 C4A_2 1_555 1_555
Co1_2 N3A_2 1_555 1_555
Co1_3 N3_2 1_555 1_555
C4_2 N6_2 1_555 1_555
N5_2 C4_2 1_555 1_555
C2A C1A 1_555 1_555
C2E C1E 1_555 1_555
N3A C3A_2 1_555 1_555

#END
