
#######################################################################
#
#                 Cambridge Crystallographic Data Centre
#                                CCDC 
#
#######################################################################
#
# If this CIF has been generated from an entry in the Cambridge 
# Structural Database, then it will include bibliographic, chemical, 
# crystal, experimental, refinement or atomic coordinate data resulting 
# from the CCDC's data processing and validation procedures.
#
#######################################################################

data_UKUMAO01
_symmetry_cell_setting           monoclinic
_symmetry_space_group_name_H-M   'P 21/c'
_symmetry_Int_Tables_number      14
_space_group_name_Hall           '-P 2ybc'
loop_
_symmetry_equiv_pos_site_id
_symmetry_equiv_pos_as_xyz
1 x,y,z
2 x,1/2-y,1/2+z
3 -x,-y,-z
4 -x,1/2+y,1/2-z
_cell_length_a                   14.6157(5)
_cell_length_b                   13.3075(5)
_cell_length_c                   7.2272(3)
_cell_angle_alpha                90
_cell_angle_beta                 90.944(2)
_cell_angle_gamma                90
_cell_volume                     1405.49
loop_
_atom_site_label
_atom_site_type_symbol
_atom_site_fract_x
_atom_site_fract_y
_atom_site_fract_z
Au1 Au 0.249041(15) 0.754887(18) -0.73177(3)
Au2 Au 0.231752(16) 0.544308(19) 0.02232(3)
Fe1 Fe 0.0000 0.5000 -0.5000
Fe2 Fe 0.5000 1.0000 -1.0000
O1 O 0.4376(3) 1.1252(3) -0.8824(6)
H1 H 0.3809(15) 1.128(5) -0.895(9)
H2 H 0.454(4) 1.139(5) -0.774(4)
N1 N 0.0879(3) 0.6139(4) -0.6157(7)
N2 N 0.0588(3) 0.5414(4) -0.2363(7)
N3 N -0.1066(3) 0.6150(4) -0.4669(6)
N4 N -0.2593(3) 0.6696(4) -0.5150(7)
N5 N 0.4089(3) 0.8949(4) -0.8541(7)
N6 N 0.4022(3) 0.5026(4) 0.2771(7)
C1 C 0.1458(4) 0.6669(5) -0.6584(8)
C2 C 0.1189(4) 0.5483(5) -0.1357(8)
C3 C -0.0815(5) 0.7102(5) -0.4299(10)
H5 H -0.019(5) 0.711(5) -0.397(9)
C4 C -0.1443(5) 0.7877(5) -0.4360(10)
H6 H -0.128(4) 0.852(5) -0.405(9)
C5 C -0.2330(5) 0.7640(6) -0.4815(10)
H7 H -0.275(5) 0.816(5) -0.498(9)
C6 C -0.1945(4) 0.5997(5) -0.5054(9)
H8 H -0.202(4) 0.535(5) -0.524(8)
C7 C 0.3525(4) 0.8427(5) -0.8073(8)
C8 C 0.3408(4) 0.5198(5) 0.1785(8)
N1B N -0.0879(3) 0.3861(4) -0.3843(7)
C1B C -0.1458(4) 0.3331(5) -0.3416(8)
N2B N -0.0588(3) 0.4586(4) -0.7637(7)
C2B C -0.1189(4) 0.4517(5) -0.8643(8)
N3B N 0.1066(3) 0.3850(4) -0.5331(6)
N4B N 0.2593(3) 0.3304(4) -0.4850(7)
C3B C 0.0815(5) 0.2898(5) -0.5701(10)
H5B H 0.019(5) 0.289(5) -0.603(9)
C4B C 0.1443(5) 0.2123(5) -0.5640(10)
H6B H 0.128(4) 0.148(5) -0.595(9)
C5B C 0.2330(5) 0.2360(6) -0.5185(10)
H7B H 0.275(5) 0.184(5) -0.502(9)
C6B C 0.1945(4) 0.4003(5) -0.4946(9)
H8B H 0.202(4) 0.465(5) -0.476(8)
Au1B Au -0.249041(15) 0.245113(18) -0.26823(3)
Au2B Au -0.231752(16) 0.455692(19) -1.02232(3)
N5B N -0.4089(3) 0.1051(4) -0.1459(7)
C7B C -0.3525(4) 0.1573(5) -0.1927(8)
N6B N -0.4022(3) 0.4974(4) -1.2771(7)
C8B C -0.3408(4) 0.4802(5) -1.1785(8)
O1B O 0.5624(3) 0.8748(3) -1.1176(6)
H1B H 0.6191(15) 0.872(5) -1.105(9)
H2B H 0.546(4) 0.861(5) -1.226(4)
Au2_2 Au 0.231752(16) 0.544308(19) -0.97768(3)
Au2A Au 0.231752(16) 0.955692(19) -0.47768(3)
Au1_2 Au 0.249041(15) 0.754887(18) 0.26823(3)
Au1A Au 0.249041(15) 0.745113(18) -0.23177(3)
N5B_2 N 0.5911(3) 1.1051(4) -1.1459(7)
N6A N 0.4022(3) 0.9974(4) -1.2229(7)
N6C N 0.5978(3) 1.0026(4) -0.7771(7)
Fe2A Fe 0.5000 0.5000 0.5000
Au2B_2 Au -0.231752(16) 0.455692(19) -0.02232(3)
Au2C Au -0.231752(16) 0.044308(19) -0.52232(3)
Au1B_2 Au -0.249041(15) 0.245113(18) -1.26823(3)
Au1C Au -0.249041(15) 0.254887(18) -0.76823(3)
Fe2_2 Fe -0.5000 0.0000 0.0000
Fe2A_2 Fe -0.5000 0.5000 -1.5000
O2 O 0.5394(4) 0.6725(4) 0.0229(7)
H3 H 0.528(5) 0.727(3) -0.029(10)
H4 H 0.514(4) 0.637(5) -0.060(7)
loop_
_geom_bond_atom_site_label_1
_geom_bond_atom_site_label_2
_geom_bond_site_symmetry_1
_geom_bond_site_symmetry_2
Au1 C1 1_555 1_555
Au2 C2 1_555 1_555
Fe1 N1 1_555 1_555
Fe2 O1 1_555 1_555
O1 H1 1_555 1_555
H2 O1 1_555 1_555
O2 H3 1_555 1_555
H4 O2 1_555 1_555
N1 C1 1_555 1_555
N2 Fe1 1_555 1_555
N3 Fe1 1_555 1_555
N4 C5 1_555 1_555
N5 Fe2 1_555 1_555
N6 C8 1_555 1_555
C2 N2 1_555 1_555
C3 N3 1_555 1_555
H5 C3 1_555 1_555
C4 C3 1_555 1_555
H6 C4 1_555 1_555
C5 C4 1_555 1_555
H7 C5 1_555 1_555
C6 N3 1_555 1_555
H8 C6 1_555 1_555
C7 Au1 1_555 1_555
C8 Au2 1_555 1_555
N1B Fe1 1_555 1_555
C1B N1B 1_555 1_555
N2B Fe1 1_555 1_555
C2B N2B 1_555 1_555
N3B Fe1 1_555 1_555
N4B C5B 1_555 1_555
C3B N3B 1_555 1_555
H5B C3B 1_555 1_555
C4B C3B 1_555 1_555
H6B C4B 1_555 1_555
C5B C4B 1_555 1_555
H7B C5B 1_555 1_555
C6B N3B 1_555 1_555
H8B C6B 1_555 1_555
Au1B C1B 1_555 1_555
Au2B C2B 1_555 1_555
N5B C7B 1_555 1_555
C7B Au1B 1_555 1_555
N6B C8B 1_555 1_555
C8B Au2B 1_555 1_555
O1B Fe2 1_555 1_555
H1B O1B 1_555 1_555
H2B O1B 1_555 1_555
Au2_2 Au1 1_555 1_555
Au2A Au1 1_555 1_555
Au1_2 Au2 1_555 1_555
Au1A Au2 1_555 1_555
N5B_2 Fe2 1_555 1_555
N6A Fe2 1_555 1_555
N6C Fe2 1_555 1_555
Fe2A N6 1_555 1_555
Au2B_2 Au1B 1_555 1_555
Au2C Au1B 1_555 1_555
Au1B_2 Au2B 1_555 1_555
Au1C Au2B 1_555 1_555
Fe2_2 N5B 1_555 1_555
Fe2A_2 N6B 1_555 1_555
N4 C6 1_555 1_555
N5 C7 1_555 1_555
N4B C6B 1_555 1_555
Au2A Au1A 1_555 1_555
Au2C Au1C 1_555 1_555

#END
