
#######################################################################
#
#                 Cambridge Crystallographic Data Centre
#                                CCDC 
#
#######################################################################
#
# If this CIF has been generated from an entry in the Cambridge 
# Structural Database, then it will include bibliographic, chemical, 
# crystal, experimental, refinement or atomic coordinate data resulting 
# from the CCDC's data processing and validation procedures.
#
#######################################################################

data_UKUMAO
_symmetry_cell_setting           monoclinic
_symmetry_space_group_name_H-M   'P 21/c'
_symmetry_Int_Tables_number      14
_space_group_name_Hall           '-P 2ybc'
loop_
_symmetry_equiv_pos_site_id
_symmetry_equiv_pos_as_xyz
1 x,y,z
2 x,1/2-y,1/2+z
3 -x,-y,-z
4 -x,1/2+y,1/2-z
_cell_length_a                   14.0194(4)
_cell_length_b                   13.1770(3)
_cell_length_c                   7.4306(2)
_cell_angle_alpha                90
_cell_angle_beta                 91.3780(10)
_cell_angle_gamma                90
_cell_volume                     1372.28
loop_
_atom_site_label
_atom_site_type_symbol
_atom_site_fract_x
_atom_site_fract_y
_atom_site_fract_z
Au1 Au 0.240666(19) 0.75265(2) -0.73154(4)
Au2 Au 0.22357(2) 0.53967(2) 0.02288(4)
Fe1 Fe 0.0000 0.5000 -0.5000
Fe2 Fe 0.5000 1.0000 -1.0000
O1 O 0.4397(4) 1.1303(4) -0.8866(7)
H1 H 0.382(2) 1.146(6) -0.902(11)
H2 H 0.454(6) 1.144(6) -0.779(4)
N1 N 0.0830(4) 0.6015(5) -0.6051(7)
N2 N 0.0617(4) 0.5287(5) -0.2706(8)
N3 N -0.0964(4) 0.6074(5) -0.4582(8)
N4 N -0.2543(4) 0.6675(5) -0.4975(8)
N5 N 0.4026(4) 0.8992(5) -0.8571(8)
N6 N 0.3980(4) 0.4998(5) 0.2822(8)
C1 C 0.1386(5) 0.6597(6) -0.6532(9)
C2 C 0.1145(5) 0.5408(6) -0.1505(10)
C3 C -0.0689(6) 0.7004(6) -0.4004(9)
H5 H -0.011(6) 0.716(7) -0.375(11)
C4 C -0.1332(6) 0.7802(6) -0.3932(10)
H6 H -0.115(6) 0.846(7) -0.372(11)
C5 C -0.2254(6) 0.7606(6) -0.4443(11)
H7 H -0.263(6) 0.810(8) -0.457(11)
C6 C -0.1878(5) 0.5955(6) -0.4990(9)
H8 H -0.204(6) 0.541(7) -0.526(11)
C7 C 0.3452(5) 0.8445(6) -0.8108(10)
C8 C 0.3361(5) 0.5169(6) 0.1831(10)
N1B N -0.0830(4) 0.3985(5) -0.3949(7)
C1B C -0.1386(5) 0.3403(6) -0.3468(9)
N2B N -0.0617(4) 0.4713(5) -0.7294(8)
C2B C -0.1145(5) 0.4592(6) -0.8495(10)
N3B N 0.0964(4) 0.3926(5) -0.5418(8)
N4B N 0.2543(4) 0.3325(5) -0.5025(8)
C3B C 0.0689(6) 0.2996(6) -0.5996(9)
H5B H 0.011(6) 0.284(7) -0.625(11)
C4B C 0.1332(6) 0.2198(6) -0.6068(10)
H6B H 0.115(6) 0.154(7) -0.628(11)
C5B C 0.2254(6) 0.2394(6) -0.5557(11)
H7B H 0.263(6) 0.190(8) -0.543(11)
C6B C 0.1878(5) 0.4045(6) -0.5010(9)
H8B H 0.204(6) 0.459(7) -0.474(11)
Au1B Au -0.240666(19) 0.24735(2) -0.26846(4)
Au2B Au -0.22357(2) 0.46033(2) -1.02288(4)
N5B N -0.4026(4) 0.1008(5) -0.1429(8)
C7B C -0.3452(5) 0.1555(6) -0.1892(10)
N6B N -0.3980(4) 0.5002(5) -1.2822(8)
C8B C -0.3361(5) 0.4831(6) -1.1831(10)
O1B O 0.5603(4) 0.8697(4) -1.1134(7)
H1B H 0.618(2) 0.854(6) -1.098(11)
H2B H 0.546(6) 0.856(6) -1.221(4)
Au2_2 Au 0.22357(2) 0.53967(2) -0.97712(4)
Au2A Au 0.22357(2) 0.96033(2) -0.47712(4)
Au1_2 Au 0.240666(19) 0.75265(2) 0.26846(4)
Au1A Au 0.240666(19) 0.74735(2) -0.23154(4)
N5B_2 N 0.5974(4) 1.1008(5) -1.1429(8)
N6A N 0.3980(4) 1.0002(5) -1.2178(8)
N6C N 0.6020(4) 0.9998(5) -0.7822(8)
Fe2A Fe 0.5000 0.5000 0.5000
Au2B_2 Au -0.22357(2) 0.46033(2) -0.02288(4)
Au2C Au -0.22357(2) 0.03967(2) -0.52288(4)
Au1B_2 Au -0.240666(19) 0.24735(2) -1.26846(4)
Au1C Au -0.240666(19) 0.25265(2) -0.76846(4)
Fe2_2 Fe -0.5000 0.0000 0.0000
Fe2A_2 Fe -0.5000 0.5000 -1.5000
O2 O 0.5386(5) 0.6677(5) 0.0315(8)
H3 H 0.530(7) 0.730(2) 0.041(13)
H4 H 0.530(7) 0.628(6) -0.055(8)
loop_
_geom_bond_atom_site_label_1
_geom_bond_atom_site_label_2
_geom_bond_site_symmetry_1
_geom_bond_site_symmetry_2
Au1 C1 1_555 1_555
Au2 C2 1_555 1_555
Fe1 N1 1_555 1_555
Fe2 O1 1_555 1_555
O1 H1 1_555 1_555
H2 O1 1_555 1_555
O2 H3 1_555 1_555
H4 O2 1_555 1_555
N1 C1 1_555 1_555
N2 Fe1 1_555 1_555
N3 Fe1 1_555 1_555
N4 C5 1_555 1_555
N5 Fe2 1_555 1_555
N6 C8 1_555 1_555
C2 N2 1_555 1_555
C3 N3 1_555 1_555
H5 C3 1_555 1_555
C4 C3 1_555 1_555
H6 C4 1_555 1_555
C5 C4 1_555 1_555
H7 C5 1_555 1_555
C6 N3 1_555 1_555
H8 C6 1_555 1_555
C7 Au1 1_555 1_555
C8 Au2 1_555 1_555
N1B Fe1 1_555 1_555
C1B N1B 1_555 1_555
N2B Fe1 1_555 1_555
C2B N2B 1_555 1_555
N3B Fe1 1_555 1_555
N4B C5B 1_555 1_555
C3B N3B 1_555 1_555
H5B C3B 1_555 1_555
C4B C3B 1_555 1_555
H6B C4B 1_555 1_555
C5B C4B 1_555 1_555
H7B C5B 1_555 1_555
C6B N3B 1_555 1_555
H8B C6B 1_555 1_555
Au1B C1B 1_555 1_555
Au2B C2B 1_555 1_555
N5B C7B 1_555 1_555
C7B Au1B 1_555 1_555
N6B C8B 1_555 1_555
C8B Au2B 1_555 1_555
O1B Fe2 1_555 1_555
H1B O1B 1_555 1_555
H2B O1B 1_555 1_555
Au2_2 Au1 1_555 1_555
Au2A Au1 1_555 1_555
Au1_2 Au2 1_555 1_555
Au1A Au2 1_555 1_555
N5B_2 Fe2 1_555 1_555
N6A Fe2 1_555 1_555
N6C Fe2 1_555 1_555
Fe2A N6 1_555 1_555
Au2B_2 Au1B 1_555 1_555
Au2C Au1B 1_555 1_555
Au1B_2 Au2B 1_555 1_555
Au1C Au2B 1_555 1_555
Fe2_2 N5B 1_555 1_555
Fe2A_2 N6B 1_555 1_555
N4 C6 1_555 1_555
N5 C7 1_555 1_555
N4B C6B 1_555 1_555
Au2A Au1A 1_555 1_555
Au2C Au1C 1_555 1_555

#END
