
#######################################################################
#
#                 Cambridge Crystallographic Data Centre
#                                CCDC 
#
#######################################################################
#
# If this CIF has been generated from an entry in the Cambridge 
# Structural Database, then it will include bibliographic, chemical, 
# crystal, experimental, refinement or atomic coordinate data resulting 
# from the CCDC's data processing and validation procedures.
#
#######################################################################

data_UKUMES
_symmetry_cell_setting           monoclinic
_symmetry_space_group_name_H-M   'P 21/c'
_symmetry_Int_Tables_number      14
_space_group_name_Hall           '-P 2ybc'
loop_
_symmetry_equiv_pos_site_id
_symmetry_equiv_pos_as_xyz
1 x,y,z
2 x,1/2-y,1/2+z
3 -x,-y,-z
4 -x,1/2+y,1/2-z
_cell_length_a                   12.3855(7)
_cell_length_b                   13.6751(6)
_cell_length_c                   8.3348(4)
_cell_angle_alpha                90
_cell_angle_beta                 94.150(3)
_cell_angle_gamma                90
_cell_volume                     1407.99
loop_
_atom_site_label
_atom_site_type_symbol
_atom_site_fract_x
_atom_site_fract_y
_atom_site_fract_z
Au1 Au 0.2500 0.7505 -0.7491
Au2 Au 0.2513 0.5507 -0.0004
Fe1 Fe 0.0000 0.5000 -0.5
Fe2 Fe -0.5000 0.5000 -0.5
N1 N 0.0784(6) 0.6162(6) -0.6041(8)
N2 N 0.0665(5) 0.5486(5) -0.2610(7)
N3 N -0.1511(9) 0.5873(7) -0.4931(15)
N4 N -0.3384(9) 0.5891(7) -0.4932(15)
N5 N 0.4216(6) 0.8847(6) -0.8941(8)
N6 N 0.4360(5) 0.5527(5) 0.2602(7)
C1 C 0.1357(4) 0.6611(4) -0.6526(6)
C2 C 0.1356(3) 0.5494(3) -0.1636(5)
C3 C -0.1478(11) 0.6889(7) -0.4980(7)
C4 C -0.2434(13) 0.7373(6) -0.501(11)
C5 C -0.3399(11) 0.6907(7) -0.4980(80)
C6 C -0.2452(8) 0.5393(7) -0.4910(40)
C7 C 0.3643(4) 0.8399(4) -0.8457(6)
C8 C 0.3670(3) 0.5519(3) 0.1628(5)
N1B N -0.0784(6) 0.3838(6) -0.3959(8)
C1B C -0.1357(4) 0.3389(4) -0.3474(6)
N2B N -0.0665(5) 0.4514(5) -0.7390(7)
C2B C -0.1356(3) 0.4506(3) -0.8364(5)
N3B N 0.1511(9) 0.4127(7) -0.5069(15)
N4B N 0.3384(9) 0.4109(7) -0.5068(15)
C3B C 0.1478(11) 0.3111(7) -0.5020(7)
C4B C 0.2434(13) 0.2627(6) -0.499(11)
C5B C 0.3399(11) 0.3093(7) -0.5020(80)
C6B C 0.2452(8) 0.4607(7) -0.5090(40)
Au1B Au -0.2500 0.2495 -0.2509
Au2B Au -0.2513 0.4493 -0.9996
N5C N -0.4216(6) 0.3847(6) -0.6059(8)
C7C C -0.3643(4) 0.3399(4) -0.6543(6)
N6_2 N -0.5640(5) 0.5527(5) -0.7398(7)
C8_2 C -0.6330(3) 0.5519(3) -0.8372(5)
N4B_2 N -0.6616(9) 0.4109(7) -0.5068(15)
N5A N -0.5784(6) 0.6153(6) -0.3941(8)
N6B N -0.4360(5) 0.4473(5) -0.2602(7)
Fe2A Fe 0.5000 1.0000 -1.0
Fe2_2 Fe 0.5000 0.5000 0.5
Fe2_3 Fe 0.5000 0.5000 -0.5
C7B C -0.3643(4) 0.1601(4) -0.1543(6)
C8B C -0.3670(3) 0.4481(3) -1.1628(5)
Au1C Au -0.2500 0.2505 -0.7509
Au2_2 Au -0.7487 0.5507 -1.0004
loop_
_geom_bond_atom_site_label_1
_geom_bond_atom_site_label_2
_geom_bond_site_symmetry_1
_geom_bond_site_symmetry_2
Au1 C1 1_555 1_555
Au2 C2 1_555 1_555
Fe1 N1 1_555 1_555
Fe2 N4 1_555 1_555
N1 C1 1_555 1_555
N2 Fe1 1_555 1_555
N3 Fe1 1_555 1_555
N4 C5 1_555 1_555
N5 C7 1_555 1_555
N6 C8 1_555 1_555
C2 N2 1_555 1_555
C3 N3 1_555 1_555
C4 C3 1_555 1_555
C5 C4 1_555 1_555
C6 N3 1_555 1_555
C7 Au1 1_555 1_555
C8 Au2 1_555 1_555
N1B Fe1 1_555 1_555
C1B N1B 1_555 1_555
N2B Fe1 1_555 1_555
C2B N2B 1_555 1_555
N3B Fe1 1_555 1_555
N4B C5B 1_555 1_555
C3B N3B 1_555 1_555
C4B C3B 1_555 1_555
C5B C4B 1_555 1_555
C6B N3B 1_555 1_555
Au1B C1B 1_555 1_555
Au2B C2B 1_555 1_555
N5C Fe2 1_555 1_555
C7C N5C 1_555 1_555
N6_2 Fe2 1_555 1_555
C8_2 N6_2 1_555 1_555
N4B_2 Fe2 1_555 1_555
N5A Fe2 1_555 1_555
N6B Fe2 1_555 1_555
Fe2A N5 1_555 1_555
Fe2_2 N6 1_555 1_555
Fe2_3 N4B 1_555 1_555
C7B Au1B 1_555 1_555
C8B Au2B 1_555 1_555
Au1C C7C 1_555 1_555
Au2_2 C8_2 1_555 1_555
N4 C6 1_555 1_555
N4B C6B 1_555 1_555

#END
