
#######################################################################
#
#                 Cambridge Crystallographic Data Centre
#                                CCDC 
#
#######################################################################
#
# If this CIF has been generated from an entry in the Cambridge 
# Structural Database, then it will include bibliographic, chemical, 
# crystal, experimental, refinement or atomic coordinate data resulting 
# from the CCDC's data processing and validation procedures.
#
#######################################################################

data_UKUPUM
_symmetry_cell_setting           orthorhombic
_symmetry_space_group_name_H-M   'P b c a'
_symmetry_Int_Tables_number      61
_space_group_name_Hall           '-P 2ac 2ab'
loop_
_symmetry_equiv_pos_site_id
_symmetry_equiv_pos_as_xyz
1 x,y,z
2 1/2-x,-y,1/2+z
3 1/2+x,1/2-y,-z
4 -x,1/2+y,1/2-z
5 -x,-y,-z
6 1/2+x,y,1/2-z
7 1/2-x,1/2+y,z
8 x,1/2-y,1/2+z
_cell_length_a                   18.0520(4)
_cell_length_b                   13.8360(3)
_cell_length_c                   19.1140(4)
_cell_angle_alpha                90
_cell_angle_beta                 90
_cell_angle_gamma                90
_cell_volume                     4774.06
loop_
_atom_site_label
_atom_site_type_symbol
_atom_site_fract_x
_atom_site_fract_y
_atom_site_fract_z
Cu1 Cu 0.23193(12) 0.16765(15) 0.51182(11)
Cu2 Cu 0.30899(11) 0.30896(14) 0.45728(11)
C1 C 0.2594(9) 0.1174(13) 0.2948(9)
C2 C 0.2684(9) 0.1657(12) 0.2343(9)
H1 H 0.2819 0.2305 0.2363
C3 C 0.2585(9) 0.1242(13) 0.1696(9)
C4 C 0.2398(11) 0.0253(13) 0.1668(10)
H2 H 0.2343 -0.0060 0.1240
C5 C 0.2301(12) -0.0234(14) 0.2280(9)
H3 H 0.2163 -0.0882 0.2265
C6 C 0.2400(10) 0.0195(13) 0.2909(9)
H4 H 0.2339 -0.0161 0.3318
C7 C 0.2692(9) 0.1626(12) 0.3640(9)
C8 C 0.2639(9) 0.1780(13) 0.1031(8)
C9 C 0.4529(9) 0.1063(12) 0.5531(9)
C10 C 0.5197(9) 0.1543(12) 0.5416(9)
H5 H 0.5189 0.2132 0.5181
C11 C 0.5872(9) 0.1177(12) 0.5637(9)
C12 C 0.5871(9) 0.0303(14) 0.5993(10)
H6 H 0.6316 0.0035 0.6142
C13 C 0.5209(9) -0.0172(13) 0.6128(10)
H7 H 0.5211 -0.0747 0.6380
C14 C 0.4550(9) 0.0206(13) 0.5890(10)
H8 H 0.4111 -0.0126 0.5975
C15 C 0.3850(10) 0.1481(12) 0.5254(9)
C16 C 0.6574(10) 0.1670(12) 0.5483(8)
C17 C 0.4393(13) 0.3828(17) 0.3919(13)
C18 C 0.5611(8) 0.3834(10) 0.3257(8)
C19 C 0.5505(9) 0.3146(11) 0.2718(8)
C20 C 0.4685(9) 0.5251(9) 0.3315(8)
C21 C 0.5041(9) 0.5956(11) 0.3744(8)
N1 N 0.4950(9) 0.4306(12) 0.3529(12)
O1 O 0.2366(6) 0.1236(8) 0.4153(6)
O2 O 0.3088(6) 0.2389(8) 0.3683(6)
O3 O 0.2402(7) 0.2657(9) 0.1017(6)
O4 O 0.2938(6) 0.1366(8) 0.0512(6)
O5 O 0.3253(6) 0.1029(9) 0.5342(6)
O6 O 0.3891(6) 0.2287(8) 0.4951(6)
O7 O 0.6514(6) 0.2446(9) 0.5132(7)
O8 O 0.7164(6) 0.1338(9) 0.5705(7)
O9 O 0.3869(7) 0.4165(9) 0.4203(7)
O10 O 0.1549(6) 0.0507(8) 0.5309(6)
H9 H 0.1311 0.0360 0.4959
H10 H 0.1675 0.0026 0.5527
Cu1G Cu 0.23193(12) 0.33235(15) 0.01182(11)
Cu1B Cu 0.73193(12) 0.33235(15) 0.48818(11)
Cu2G Cu 0.30899(11) 0.19104(14) -0.04272(11)
Cu2B Cu 0.80899(11) 0.19104(14) 0.54272(11)
O3G O 0.2402(7) 0.2343(9) 0.6017(6)
O4G O 0.2938(6) 0.3634(8) 0.5512(6)
O7B O 0.1514(6) 0.2554(9) 0.4868(7)
O8B O 0.2164(6) 0.3662(9) 0.4295(7)
loop_
_geom_bond_atom_site_label_1
_geom_bond_atom_site_label_2
_geom_bond_site_symmetry_1
_geom_bond_site_symmetry_2
Cu1 Cu2 1_555 1_555
Cu2 O2 1_555 1_555
C1 C2 1_555 1_555
C2 H1 1_555 1_555
C3 C2 1_555 1_555
C4 C3 1_555 1_555
H2 C4 1_555 1_555
C5 C4 1_555 1_555
H3 C5 1_555 1_555
C6 C1 1_555 1_555
H4 C6 1_555 1_555
C7 C1 1_555 1_555
C8 C3 1_555 1_555
C9 C10 1_555 1_555
C10 H5 1_555 1_555
C11 C10 1_555 1_555
C12 C11 1_555 1_555
H6 C12 1_555 1_555
C13 C12 1_555 1_555
H7 C13 1_555 1_555
C14 C9 1_555 1_555
H8 C14 1_555 1_555
C15 C9 1_555 1_555
C16 C11 1_555 1_555
C17 N1 1_555 1_555
C18 C19 1_555 1_555
C20 C21 1_555 1_555
N1 C18 1_555 1_555
O1 Cu1 1_555 1_555
O2 C7 1_555 1_555
O3 C8 1_555 1_555
O4 C8 1_555 1_555
O5 Cu1 1_555 1_555
O6 Cu2 1_555 1_555
O7 C16 1_555 1_555
O8 C16 1_555 1_555
O9 Cu2 1_555 1_555
O10 Cu1 1_555 1_555
H9 O10 1_555 1_555
H10 O10 1_555 1_555
Cu1G O3 1_555 1_555
Cu1B O7 1_555 1_555
Cu2G O4 1_555 1_555
Cu2B O8 1_555 1_555
O3G Cu1 1_555 1_555
O4G Cu2 1_555 1_555
O7B Cu1 1_555 1_555
O8B Cu2 1_555 1_555
C5 C6 1_555 1_555
C7 O1 1_555 1_555
C13 C14 1_555 1_555
C15 O5 1_555 1_555
C15 O6 1_555 1_555
C17 O9 1_555 1_555
C20 N1 1_555 1_555
Cu1G Cu2G 1_555 1_555
Cu1B Cu2B 1_555 1_555

#END
