
#######################################################################
#
#                 Cambridge Crystallographic Data Centre
#                                CCDC 
#
#######################################################################
#
# If this CIF has been generated from an entry in the Cambridge 
# Structural Database, then it will include bibliographic, chemical, 
# crystal, experimental, refinement or atomic coordinate data resulting 
# from the CCDC's data processing and validation procedures.
#
#######################################################################

data_UKUVOL05
_symmetry_cell_setting           hexagonal
_symmetry_space_group_name_H-M   'P 61 2 2'
_symmetry_Int_Tables_number      178
_space_group_name_Hall           "P 61 2' (0,0,5)"
loop_
_symmetry_equiv_pos_site_id
_symmetry_equiv_pos_as_xyz
1 x,y,z
2 -y,x-y,1/3+z
3 -x+y,-x,2/3+z
4 -x,-y,1/2+z
5 y,-x+y,5/6+z
6 x-y,x,1/6+z
7 y,x,1/3-z
8 x-y,-y,-z
9 -x,-x+y,2/3-z
10 -y,-x,5/6-z
11 -x+y,y,1/2-z
12 x,x-y,1/6-z
_cell_length_a                   11.0528(5)
_cell_length_b                   11.0528(5)
_cell_length_c                   24.6980(11)
_cell_angle_alpha                90
_cell_angle_beta                 90
_cell_angle_gamma                120
_cell_volume                     2612.99
loop_
_atom_site_label
_atom_site_type_symbol
_atom_site_fract_x
_atom_site_fract_y
_atom_site_fract_z
Cu1 Cu 1.0000 0.48395(3) 0.3333
C1 C 1.0000 1.0498(3) 0.3333
O1 O 0.82601(17) 0.39214(17) 0.29128(6)
N1 N 1.0000 0.6638(2) 0.3333
N2 N 1.0000 1.3024(2) 0.3333
C2 C 0.6638(3) 0.2132(2) 0.23320(9)
H1 H 0.6438 0.2184 0.1945
H2 H 0.6615 0.1234 0.2389
C3 C 1.1212(2) 1.1759(2) 0.32231(9)
H3 H 1.2058 1.1773 0.3141
C4 C 1.1173(2) 1.2989(3) 0.32337(9)
H4 H 1.2012 1.3844 0.3168
O2 O 0.90586(18) 0.3603(2) 0.21247(7)
O3 O 0.84647(19) 0.40948(19) 0.41498(7)
H5 H 0.9158 0.4268 0.4350
H6 H 0.8081 0.4541 0.4271
C5 C 0.8100(2) 0.3318(2) 0.24576(9)
C6 C 1.0000 0.9170(3) 0.3333
C7 C 0.8779(3) 0.7902(2) 0.32431(10)
H7 H 0.7924 0.7884 0.3177
C8 C 0.8817(2) 0.6669(2) 0.32499(10)
H8 H 0.7973 0.5813 0.3193
Cu1_2 Cu 1.0000 1.48395(3) 0.3333
Cu1D Cu 0.48395(3) 0.48395(3) 0.1666
O1J O 0.56613(24) 0.39214(17) 0.20872(6)
O1H O 1.17399(17) 0.56613(24) 0.37539(6)
N2_2 N 1.0000 0.3024(2) 0.3333
C2J C 0.5494(4) 0.2132(2) 0.26680(9)
H1J H 0.5746 0.2184 0.3055
H2J H 0.4619 0.1234 0.2611
C3H C 0.8788(2) 1.0547(3) 0.34436(9)
H3H H 0.7942 0.9715 0.3526
C4H C 0.8827(2) 1.1816(4) 0.34330(9)
H4H H 0.7988 1.1832 0.3499
O2J O 0.45444(27) 0.3603(2) 0.28753(7)
O3H O 1.15353(19) 0.56301(27) 0.25169(7)
H5H H 1.0842 0.5110 0.2317
H6H H 1.1919 0.6460 0.2396
C5J C 0.5218(3) 0.3318(2) 0.25424(9)
C7H C 1.1221(3) 0.9123(4) 0.34236(10)
H7H H 1.2076 0.9960 0.3490
C8H C 1.1183(2) 0.7852(3) 0.34168(10)
H8H H 1.2027 0.7840 0.3474
O4 O 0.8501(2) 0.3052(3) 0.10348(8)
H9 H 0.8600 0.3343 0.1359
H10 H 0.8506 0.3666 0.0826
loop_
_geom_bond_atom_site_label_1
_geom_bond_atom_site_label_2
_geom_bond_site_symmetry_1
_geom_bond_site_symmetry_2
Cu1 O1 1_555 1_555
C1 C3 1_555 1_555
O1 C5 1_555 1_555
N1 Cu1 1_555 1_555
N2 C4 1_555 1_555
C2 H1 1_555 1_555
H2 C2 1_555 1_555
C3 H3 1_555 1_555
C4 C3 1_555 1_555
H4 C4 1_555 1_555
O2 C5 1_555 1_555
O3 Cu1 1_555 1_555
H5 O3 1_555 1_555
H6 O3 1_555 1_555
C5 C2 1_555 1_555
C6 C1 1_555 1_555
C7 C6 1_555 1_555
H7 C7 1_555 1_555
C8 N1 1_555 1_555
H8 C8 1_555 1_555
O4 H9 1_555 1_555
H10 O4 1_555 1_555
Cu1_2 N2 1_555 1_555
Cu1D O1J 1_555 1_555
O1J C5J 1_555 1_555
O1H Cu1 1_555 1_555
N2_2 Cu1 1_555 1_555
C2J C2 1_555 1_555
H1J C2J 1_555 1_555
H2J C2J 1_555 1_555
C3H C1 1_555 1_555
H3H C3H 1_555 1_555
C4H N2 1_555 1_555
H4H C4H 1_555 1_555
O2J C5J 1_555 1_555
O3H Cu1 1_555 1_555
H5H O3H 1_555 1_555
H6H O3H 1_555 1_555
C5J C2J 1_555 1_555
C7H C6 1_555 1_555
H7H C7H 1_555 1_555
C8H N1 1_555 1_555
H8H C8H 1_555 1_555
C7 C8 1_555 1_555
C3H C4H 1_555 1_555
C7H C8H 1_555 1_555

#END
