
#######################################################################
#
#                 Cambridge Crystallographic Data Centre
#                                CCDC 
#
#######################################################################
#
# If this CIF has been generated from an entry in the Cambridge 
# Structural Database, then it will include bibliographic, chemical, 
# crystal, experimental, refinement or atomic coordinate data resulting 
# from the CCDC's data processing and validation procedures.
#
#######################################################################

data_UKUVOL21
_symmetry_cell_setting           hexagonal
_symmetry_space_group_name_H-M   'P 61 2 2'
_symmetry_Int_Tables_number      178
_space_group_name_Hall           "P 61 2' (0,0,5)"
loop_
_symmetry_equiv_pos_site_id
_symmetry_equiv_pos_as_xyz
1 x,y,z
2 -y,x-y,1/3+z
3 -x+y,-x,2/3+z
4 -x,-y,1/2+z
5 y,-x+y,5/6+z
6 x-y,x,1/6+z
7 y,x,1/3-z
8 x-y,-y,-z
9 -x,-x+y,2/3-z
10 -y,-x,5/6-z
11 -x+y,y,1/2-z
12 x,x-y,1/6-z
_cell_length_a                   11.0487(10)
_cell_length_b                   11.0487(10)
_cell_length_c                   24.919(5)
_cell_angle_alpha                90
_cell_angle_beta                 90
_cell_angle_gamma                120
_cell_volume                     2634.41
loop_
_atom_site_label
_atom_site_type_symbol
_atom_site_fract_x
_atom_site_fract_y
_atom_site_fract_z
Cu1 Cu -0.48548(2) 0.51452(2) -0.3333
N1 N -0.30329(19) 0.69671(19) -0.3333
C1 C 0.2133(2) 1.3309(2) -0.32547(10)
H1 H 0.2143 1.4147 -0.3201
O1 O -0.56703(15) 0.60499(15) -0.29114(6)
O2 O -0.4574(2) 0.6351(2) -0.21341(7)
O3 O -0.41386(19) 0.43157(18) -0.25155(7)
H2 H -0.4164 0.4892 -0.2296
H3 H -0.3579 0.4064 -0.2395
C2 C 0.0817(2) 1.0817(2) -0.3333
C3 C -0.5521(2) 0.7815(2) -0.23379(9)
H6 H -0.5759 0.7767 -0.1961
H7 H -0.4666 0.8695 -0.2396
C4 C 0.0868(2) 1.2080(2) -0.32496(11)
H8 H 0.0047 1.2099 -0.3190
C5 C -0.0507(2) 0.9493(2) -0.3333
C6 C -0.0568(2) 0.8229(2) -0.32251(9)
H9 H 0.0246 0.8211 -0.3147
C7 C -0.5243(2) 0.6636(2) -0.24620(8)
N2 N 0.33412(18) 1.33412(18) -0.3333
C8 C -0.1831(2) 0.7007(2) -0.32336(9)
H10 H -0.1846 0.6171 -0.3167
Cu1_2 Cu 0.51452(2) 1.51452(2) -0.3333
Cu1E Cu -1.00000(3) 0.51452(2) -0.1666
C1F C 0.3309(2) 1.2133(2) -0.34120(10)
H1F H 0.4147 1.2143 -0.3466
O1J O -0.82798(21) 0.60499(15) -0.20886(6)
O1F O -0.39501(15) 0.43297(15) -0.37553(6)
O2J O -0.9075(3) 0.6351(2) -0.28659(7)
O3F O -0.56843(18) 0.58614(19) -0.41512(7)
H2F H -0.5108 0.5836 -0.4371
H3F H -0.5936 0.6421 -0.4272
C3J C -0.6664(3) 0.7815(2) -0.26621(9)
H6J H -0.6474 0.7767 -0.3039
H7J H -0.6639 0.8695 -0.2604
C4F C 0.2080(2) 1.0868(2) -0.34171(11)
H8F H 0.2099 1.0047 -0.3477
C6F C -0.1771(2) 0.9432(2) -0.34416(9)
H9F H -0.1789 1.0246 -0.3520
C7J C -0.8121(3) 0.6636(2) -0.25380(8)
N2_2 N -0.66588(18) 0.33412(18) -0.3333
C8F C -0.2993(2) 0.8169(2) -0.34331(9)
H10F H -0.3829 0.8154 -0.3500
O4 O -0.4525(3) 0.6908(3) -0.10504(8)
H4 H -0.4792 0.6610 -0.1367
H5 H -0.5042 0.7210 -0.0926
loop_
_geom_bond_atom_site_label_1
_geom_bond_atom_site_label_2
_geom_bond_site_symmetry_1
_geom_bond_site_symmetry_2
Cu1 N1 1_555 1_555
N1 C8 1_555 1_555
C1 H1 1_555 1_555
O1 Cu1 1_555 1_555
O2 C7 1_555 1_555
O3 Cu1 1_555 1_555
H2 O3 1_555 1_555
H3 O3 1_555 1_555
C2 C4 1_555 1_555
O4 H4 1_555 1_555
H5 O4 1_555 1_555
C3 H6 1_555 1_555
H7 C3 1_555 1_555
C4 C1 1_555 1_555
H8 C4 1_555 1_555
C5 C2 1_555 1_555
C6 C5 1_555 1_555
H9 C6 1_555 1_555
C7 O1 1_555 1_555
N2 C1 1_555 1_555
C8 C6 1_555 1_555
H10 C8 1_555 1_555
Cu1_2 N2 1_555 1_555
Cu1E O1J 1_555 1_555
C1F N2 1_555 1_555
H1F C1F 1_555 1_555
O1J C7J 1_555 1_555
O1F Cu1 1_555 1_555
O2J C7J 1_555 1_555
O3F Cu1 1_555 1_555
H2F O3F 1_555 1_555
H3F O3F 1_555 1_555
C3J C3 1_555 1_555
H6J C3J 1_555 1_555
H7J C3J 1_555 1_555
C4F C2 1_555 1_555
H8F C4F 1_555 1_555
C6F C5 1_555 1_555
H9F C6F 1_555 1_555
C7J C3J 1_555 1_555
N2_2 Cu1 1_555 1_555
C8F N1 1_555 1_555
H10F C8F 1_555 1_555
C3 C7 1_555 1_555
C1F C4F 1_555 1_555
C6F C8F 1_555 1_555

#END
