
#######################################################################
#
#                 Cambridge Crystallographic Data Centre
#                                CCDC 
#
#######################################################################
#
# If this CIF has been generated from an entry in the Cambridge 
# Structural Database, then it will include bibliographic, chemical, 
# crystal, experimental, refinement or atomic coordinate data resulting 
# from the CCDC's data processing and validation procedures.
#
#######################################################################

data_UKUVOL22
_symmetry_cell_setting           hexagonal
_symmetry_space_group_name_H-M   'P 61 2 2'
_symmetry_Int_Tables_number      178
_space_group_name_Hall           "P 61 2' (0,0,5)"
loop_
_symmetry_equiv_pos_site_id
_symmetry_equiv_pos_as_xyz
1 x,y,z
2 -y,x-y,1/3+z
3 -x+y,-x,2/3+z
4 -x,-y,1/2+z
5 y,-x+y,5/6+z
6 x-y,x,1/6+z
7 y,x,1/3-z
8 x-y,-y,-z
9 -x,-x+y,2/3-z
10 -y,-x,5/6-z
11 -x+y,y,1/2-z
12 x,x-y,1/6-z
_cell_length_a                   11.0229(18)
_cell_length_b                   11.0229(18)
_cell_length_c                   24.815(8)
_cell_angle_alpha                90
_cell_angle_beta                 90
_cell_angle_gamma                120
_cell_volume                     2611.18
loop_
_atom_site_label
_atom_site_type_symbol
_atom_site_fract_x
_atom_site_fract_y
_atom_site_fract_z
Cu1 Cu 0.48475(5) 0.0000 0.5000
N1 N 0.6646(4) 0.0000 0.5000
O1 O 0.4565(3) 0.0931(3) 0.37945(9)
N2 N 1.3035(4) 0.0000 0.5000
C1 C 1.1825(4) -0.1160(4) 0.49019(12)
H1 H 1.1834 -0.1996 0.4839
O2 O 0.5668(3) 0.1728(3) 0.45795(9)
C2 C 0.5517(5) 0.3352(4) 0.40016(13)
H2 H 0.4651 0.3380 0.4056
H3 H 0.5771 0.3547 0.3620
C3 C 0.5231(4) 0.1886(5) 0.41282(12)
O3 O 0.5672(3) 0.1536(3) 0.58186(9)
H4 H 0.4962 0.0900 0.5984
H5 H 0.5842 0.2327 0.5940
C4 C 0.6671(4) -0.1186(5) 0.50800(15)
H8 H 0.5822 -0.2024 0.5135
C5 C 1.0567(5) -0.1196(4) 0.48876(13)
H9 H 0.9746 -0.2035 0.4801
C6 C 1.0497(4) 0.0000 0.5000
C7 C 0.9182(5) 0.0000 0.5000
C8 C 0.7903(4) -0.1216(5) 0.50848(16)
H10 H 0.7882 -0.2068 0.5146
Cu1_2 Cu 1.48475(5) 0.0000 0.5000
Cu1D Cu 1.0000 0.51525(5) 0.3333
O1I O 0.9069(3) 0.5435(3) 0.45388(9)
N2_2 N 0.3035(4) 0.0000 0.5000
C1G C 1.2985(6) 0.1160(4) 0.50981(12)
H1G H 1.3830 0.1996 0.5161
O2I O 0.8272(3) 0.4332(3) 0.37538(9)
O2G O 0.3940(4) -0.1728(3) 0.54205(9)
C2I C 0.6648(4) 0.4483(5) 0.43317(13)
H2I H 0.6620 0.5349 0.4277
H3I H 0.6453 0.4229 0.4713
C3I C 0.8114(5) 0.4769(4) 0.42051(12)
O3G O 0.4136(4) -0.1536(3) 0.41814(9)
H4G H 0.4062 -0.0900 0.4016
H5G H 0.3515 -0.2327 0.4060
C4G C 0.7857(6) 0.1186(5) 0.49200(15)
H8G H 0.7846 0.2024 0.4865
C5G C 1.1763(6) 0.1196(4) 0.51124(13)
H9G H 1.1781 0.2035 0.5199
C8G C 0.9119(6) 0.1216(5) 0.49152(16)
H10G H 0.9950 0.2068 0.4854
O4 O 0.4562(4) 0.1477(4) 0.27068(11)
H6 H 0.5191 0.1869 0.2947
H7 H 0.3763 0.1157 0.2854
loop_
_geom_bond_atom_site_label_1
_geom_bond_atom_site_label_2
_geom_bond_site_symmetry_1
_geom_bond_site_symmetry_2
Cu1 N1 1_555 1_555
N1 C4 1_555 1_555
O1 C3 1_555 1_555
N2 C1 1_555 1_555
C1 H1 1_555 1_555
O2 Cu1 1_555 1_555
C2 H2 1_555 1_555
H3 C2 1_555 1_555
C3 O2 1_555 1_555
O3 Cu1 1_555 1_555
H4 O3 1_555 1_555
H5 O3 1_555 1_555
O4 H6 1_555 1_555
H7 O4 1_555 1_555
C4 H8 1_555 1_555
C5 C1 1_555 1_555
H9 C5 1_555 1_555
C6 C5 1_555 1_555
C7 C6 1_555 1_555
C8 C4 1_555 1_555
H10 C8 1_555 1_555
Cu1_2 N2 1_555 1_555
Cu1D O2I 1_555 1_555
O1I C3I 1_555 1_555
N2_2 Cu1 1_555 1_555
C1G N2 1_555 1_555
H1G C1G 1_555 1_555
O2I C3I 1_555 1_555
O2G Cu1 1_555 1_555
C2I C2 1_555 1_555
H2I C2I 1_555 1_555
H3I C2I 1_555 1_555
C3I C2I 1_555 1_555
O3G Cu1 1_555 1_555
H4G O3G 1_555 1_555
H5G O3G 1_555 1_555
C4G N1 1_555 1_555
H8G C4G 1_555 1_555
C5G C6 1_555 1_555
H9G C5G 1_555 1_555
C8G C7 1_555 1_555
H10G C8G 1_555 1_555
C2 C3 1_555 1_555
C7 C8 1_555 1_555
C1G C5G 1_555 1_555
C4G C8G 1_555 1_555

#END
