
#######################################################################
#
#                 Cambridge Crystallographic Data Centre
#                                CCDC 
#
#######################################################################
#
# If this CIF has been generated from an entry in the Cambridge 
# Structural Database, then it will include bibliographic, chemical, 
# crystal, experimental, refinement or atomic coordinate data resulting 
# from the CCDC's data processing and validation procedures.
#
#######################################################################

data_UKUVOL07
_symmetry_cell_setting           hexagonal
_symmetry_space_group_name_H-M   'P 61 2 2'
_symmetry_Int_Tables_number      178
_space_group_name_Hall           "P 61 2' (0,0,5)"
loop_
_symmetry_equiv_pos_site_id
_symmetry_equiv_pos_as_xyz
1 x,y,z
2 -y,x-y,1/3+z
3 -x+y,-x,2/3+z
4 -x,-y,1/2+z
5 y,-x+y,5/6+z
6 x-y,x,1/6+z
7 y,x,1/3-z
8 x-y,-y,-z
9 -x,-x+y,2/3-z
10 -y,-x,5/6-z
11 -x+y,y,1/2-z
12 x,x-y,1/6-z
_cell_length_a                   11.0414(10)
_cell_length_b                   11.0414(10)
_cell_length_c                   24.755(5)
_cell_angle_alpha                90
_cell_angle_beta                 90
_cell_angle_gamma                120
_cell_volume                     2613.62
loop_
_atom_site_label
_atom_site_type_symbol
_atom_site_fract_x
_atom_site_fract_y
_atom_site_fract_z
Cu1 Cu 0.48444(3) 1.48444(3) -0.3333
N1 N 0.6639(2) 1.6639(2) -0.3333
O1 O 0.56660(18) 1.39295(18) -0.29118(7)
C1 C 1.0500(3) 2.0500(3) -0.3333
N2 N 1.3026(2) 2.3026(2) -0.3333
C2 C 1.1820(2) 2.2993(3) -0.32323(10)
H1 H 1.1836 2.3848 -0.3164
C3 C 0.5506(3) 1.2147(3) -0.23339(10)
H2 H 0.5760 1.2201 -0.1947
H3 H 0.4631 1.1247 -0.2390
C4 C 1.0550(3) 2.1759(3) -0.32239(10)
H4 H 0.9715 2.1771 -0.3143
O2 O 0.4555(2) 1.3615(2) -0.21281(7)
C5 C 0.5227(3) 1.3330(2) -0.24596(10)
O3 O 0.5647(2) 1.4102(2) -0.41492(8)
H5 H 0.5076 1.4174 -0.4358
H6 H 0.6458 1.4545 -0.4289
C6 C 0.9121(3) 1.7907(3) -0.32452(12)
H7 H 0.9959 1.7888 -0.3179
C7 C 0.9178(3) 1.9178(3) -0.3333
C8 C 0.7859(3) 1.6675(2) -0.32528(11)
H8 H 0.7851 1.5819 -0.3199
Cu1_2 Cu 1.48444(3) 2.48444(3) -0.3333
Cu1E Cu 1.00000(4) 1.48444(3) -0.1666
O1J O 0.82635(25) 1.39295(18) -0.20882(7)
O1F O 0.39295(18) 1.56660(18) -0.37549(7)
N2_2 N 0.3026(2) 1.3026(2) -0.3333
C2F C 1.2993(3) 2.1820(2) -0.34344(10)
H1F H 1.3848 2.1836 -0.3503
C3J C 0.6641(4) 1.2147(3) -0.26661(10)
H2J H 0.6441 1.2201 -0.3053
H3J H 0.6616 1.1247 -0.2610
C4F C 1.1759(3) 2.0550(3) -0.34428(10)
H4F H 1.1771 1.9715 -0.3524
O2J O 0.9060(3) 1.3615(2) -0.28719(7)
C5J C 0.8103(4) 1.3330(2) -0.25404(10)
O3F O 0.4102(2) 1.5647(2) -0.25175(8)
H5F H 0.4174 1.5076 -0.2309
H6F H 0.4545 1.6458 -0.2378
C6F C 0.7907(3) 1.9121(3) -0.34215(12)
H7F H 0.7888 1.9959 -0.3488
C8F C 0.6675(2) 1.7859(3) -0.34139(11)
H8F H 0.5819 1.7851 -0.3468
O4 O 0.4571(3) 1.3072(3) -0.10394(9)
H9 H 0.3859 1.2999 -0.0878
H10 H 0.4508 1.3211 -0.1373
loop_
_geom_bond_atom_site_label_1
_geom_bond_atom_site_label_2
_geom_bond_site_symmetry_1
_geom_bond_site_symmetry_2
Cu1 N1 1_555 1_555
N1 C8 1_555 1_555
O1 Cu1 1_555 1_555
C1 C4 1_555 1_555
N2 C2 1_555 1_555
C2 H1 1_555 1_555
C3 H2 1_555 1_555
H3 C3 1_555 1_555
C4 C2 1_555 1_555
H4 C4 1_555 1_555
O2 C5 1_555 1_555
C5 O1 1_555 1_555
O3 Cu1 1_555 1_555
H5 O3 1_555 1_555
H6 O3 1_555 1_555
C6 H7 1_555 1_555
C7 C1 1_555 1_555
C8 C6 1_555 1_555
H8 C8 1_555 1_555
O4 H9 1_555 1_555
H10 O4 1_555 1_555
Cu1_2 N2 1_555 1_555
Cu1E O1J 1_555 1_555
O1J C5J 1_555 1_555
O1F Cu1 1_555 1_555
N2_2 Cu1 1_555 1_555
C2F N2 1_555 1_555
H1F C2F 1_555 1_555
C3J C3 1_555 1_555
H2J C3J 1_555 1_555
H3J C3J 1_555 1_555
C4F C1 1_555 1_555
H4F C4F 1_555 1_555
O2J C5J 1_555 1_555
C5J C3J 1_555 1_555
O3F Cu1 1_555 1_555
H5F O3F 1_555 1_555
H6F O3F 1_555 1_555
C6F C7 1_555 1_555
H7F C6F 1_555 1_555
C8F N1 1_555 1_555
H8F C8F 1_555 1_555
C3 C5 1_555 1_555
C6 C7 1_555 1_555
C2F C4F 1_555 1_555
C6F C8F 1_555 1_555

#END
