
#######################################################################
#
#                 Cambridge Crystallographic Data Centre
#                                CCDC 
#
#######################################################################
#
# If this CIF has been generated from an entry in the Cambridge 
# Structural Database, then it will include bibliographic, chemical, 
# crystal, experimental, refinement or atomic coordinate data resulting 
# from the CCDC's data processing and validation procedures.
#
#######################################################################

data_UKUVOL02
_symmetry_cell_setting           hexagonal
_symmetry_space_group_name_H-M   'P 61 2 2'
_symmetry_Int_Tables_number      178
_space_group_name_Hall           "P 61 2' (0,0,5)"
loop_
_symmetry_equiv_pos_site_id
_symmetry_equiv_pos_as_xyz
1 x,y,z
2 -y,x-y,1/3+z
3 -x+y,-x,2/3+z
4 -x,-y,1/2+z
5 y,-x+y,5/6+z
6 x-y,x,1/6+z
7 y,x,1/3-z
8 x-y,-y,-z
9 -x,-x+y,2/3-z
10 -y,-x,5/6-z
11 -x+y,y,1/2-z
12 x,x-y,1/6-z
_cell_length_a                   11.0856(3)
_cell_length_b                   11.0856(3)
_cell_length_c                   25.0062(10)
_cell_angle_alpha                90
_cell_angle_beta                 90
_cell_angle_gamma                120
_cell_volume                     2661.32
loop_
_atom_site_label
_atom_site_type_symbol
_atom_site_fract_x
_atom_site_fract_y
_atom_site_fract_z
Cu1 Cu 0.48525(8) 1.0000 0.0000
N1 N 0.3034(7) 1.0000 0.0000
C1 C 0.1842(7) 0.8847(7) -0.0097(3)
H1 H 0.1859 0.8028 -0.0158
C2 C 0.0556(8) 0.8800(8) -0.0113(3)
H2 H -0.0256 0.7978 -0.0198
C3 C 0.0524(8) 1.0000 0.0000
C4 C -0.0813(8) 1.0000 0.0000
C5 C -0.2087(8) 0.8788(8) 0.0087(4)
H3 H -0.2112 0.7950 0.0151
C6 C -0.3314(7) 0.8832(8) 0.0078(4)
H4 H -0.4152 0.8008 0.0130
N2 N -0.3338(6) 1.0000 0.0000
O1 O 0.3656(7) 0.9058(6) 0.1199(2)
O2 O 0.3943(5) 0.8274(5) 0.0424(2)
C7 C 0.3377(7) 0.8131(8) 0.0871(3)
C8 C 0.2190(8) 0.6661(9) 0.0996(3)
H5 H 0.2240 0.6468 0.1371
H6 H 0.1312 0.6635 0.0939
O4 O 0.5681(6) 1.1559(6) 0.0818(2)
H9 H 0.6447 1.1918 0.1025
H10 H 0.5058 1.0777 0.0988
Cu1_2 Cu -0.51475(8) 1.0000 0.0000
Cu1E Cu 0.48525(8) 0.48525(8) 0.1667
C1G C 0.2995(10) 1.1153(7) 0.0097(3)
H1G H 0.3831 1.1972 0.0158
C2G C 0.1756(11) 1.1200(8) 0.0113(3)
H2G H 0.1766 1.2022 0.0198
C5G C -0.0875(11) 1.1212(8) -0.0087(4)
H3G H -0.0062 1.2050 -0.0151
C6G C -0.2146(11) 1.1168(8) -0.0078(4)
H4G H -0.2160 1.1992 -0.0130
N2_2 N 0.6662(6) 1.0000 0.0000
O1K O 0.3656(7) 0.4598(9) 0.0468(2)
O2K O 0.3943(5) 0.5669(7) 0.1243(2)
O2G O 0.5669(7) 1.1726(5) -0.0424(2)
C7K C 0.3377(7) 0.5246(11) 0.0796(3)
C8K C 0.2190(8) 0.5529(12) 0.0671(3)
H5K H 0.2240 0.5772 0.0296
H6K H 0.1312 0.4677 0.0728
O4G O 0.4122(8) 0.8441(6) -0.0818(2)
H9G H 0.4529 0.8082 -0.1025
H10G H 0.4281 0.9223 -0.0988
O3 O 0.8563(8) 1.3076(10) 0.1056(3)
H7 H 0.8586 1.3378 0.1351
H8 H 0.8098 1.3186 0.0783
loop_
_geom_bond_atom_site_label_1
_geom_bond_atom_site_label_2
_geom_bond_site_symmetry_1
_geom_bond_site_symmetry_2
Cu1 N1 1_555 1_555
N1 C1 1_555 1_555
C1 H1 1_555 1_555
C2 C1 1_555 1_555
H2 C2 1_555 1_555
C3 C2 1_555 1_555
C4 C3 1_555 1_555
C5 C4 1_555 1_555
H3 C5 1_555 1_555
C6 C5 1_555 1_555
H4 C6 1_555 1_555
N2 C6 1_555 1_555
O1 C7 1_555 1_555
O2 Cu1 1_555 1_555
C7 O2 1_555 1_555
C8 C7 1_555 1_555
H5 C8 1_555 1_555
H6 C8 1_555 1_555
O3 H7 1_555 1_555
H8 O3 1_555 1_555
O4 Cu1 1_555 1_555
H9 O4 1_555 1_555
H10 O4 1_555 1_555
Cu1_2 N2 1_555 1_555
Cu1E O2K 1_555 1_555
C1G N1 1_555 1_555
H1G C1G 1_555 1_555
C2G C3 1_555 1_555
H2G C2G 1_555 1_555
C5G C4 1_555 1_555
H3G C5G 1_555 1_555
C6G N2 1_555 1_555
H4G C6G 1_555 1_555
N2_2 Cu1 1_555 1_555
O1K C7K 1_555 1_555
O2K C7K 1_555 1_555
O2G Cu1 1_555 1_555
C7K C8K 1_555 1_555
C8K C8 1_555 1_555
H5K C8K 1_555 1_555
H6K C8K 1_555 1_555
O4G Cu1 1_555 1_555
H9G O4G 1_555 1_555
H10G O4G 1_555 1_555
C1G C2G 1_555 1_555
C5G C6G 1_555 1_555

#END
