
#######################################################################
#
#                 Cambridge Crystallographic Data Centre
#                                CCDC 
#
#######################################################################
#
# If this CIF has been generated from an entry in the Cambridge 
# Structural Database, then it will include bibliographic, chemical, 
# crystal, experimental, refinement or atomic coordinate data resulting 
# from the CCDC's data processing and validation procedures.
#
#######################################################################

data_UKUVOL15
_symmetry_cell_setting           hexagonal
_symmetry_space_group_name_H-M   'P 61 2 2'
_symmetry_Int_Tables_number      178
_space_group_name_Hall           "P 61 2' (0,0,5)"
loop_
_symmetry_equiv_pos_site_id
_symmetry_equiv_pos_as_xyz
1 x,y,z
2 -y,x-y,1/3+z
3 -x+y,-x,2/3+z
4 -x,-y,1/2+z
5 y,-x+y,5/6+z
6 x-y,x,1/6+z
7 y,x,1/3-z
8 x-y,-y,-z
9 -x,-x+y,2/3-z
10 -y,-x,5/6-z
11 -x+y,y,1/2-z
12 x,x-y,1/6-z
_cell_length_a                   11.0533(8)
_cell_length_b                   11.0533(8)
_cell_length_c                   24.670(3)
_cell_angle_alpha                90
_cell_angle_beta                 90
_cell_angle_gamma                120
_cell_volume                     2610.26
loop_
_atom_site_label
_atom_site_type_symbol
_atom_site_fract_x
_atom_site_fract_y
_atom_site_fract_z
Cu1 Cu 0.51606(3) 0.0000 0.0000
C1 C -0.0498(3) 0.0000 0.0000
O1 O 0.60793(19) 0.17415(19) 0.04203(7)
N1 N 0.3363(3) 0.0000 0.0000
N2 N -0.3023(3) 0.0000 0.0000
C2 C 0.7862(3) 0.3361(3) 0.10007(10)
H1 H 0.7809 0.3562 0.1388
H2 H 0.8760 0.3386 0.0944
C3 C -0.1755(3) -0.1210(3) 0.01103(10)
H3 H -0.1768 -0.2056 0.0192
C4 C -0.2985(3) -0.1169(3) 0.00996(10)
H4 H -0.3840 -0.2008 0.0166
O2 O 0.6394(2) 0.0940(2) 0.12087(7)
O3 O 0.4366(2) -0.1538(2) 0.08169(8)
H5 H 0.5019 -0.0830 0.0976
H6 H 0.3611 -0.1791 0.0990
C5 C 0.6679(3) 0.1899(3) 0.08760(10)
C6 C 0.0829(3) 0.0000 0.0000
C7 C 0.2099(3) 0.1222(3) 0.00898(11)
H7 H 0.2118 0.2078 0.0155
C8 C 0.3331(2) 0.1182(3) 0.00832(11)
H8 H 0.4187 0.2026 0.0140
Cu1_2 Cu -0.48394(3) 0.0000 0.0000
Cu1E Cu 0.51606(3) 0.51606(3) 0.1667
O1K O 0.60793(19) 0.43378(27) 0.12464(7)
O1G O 0.43378(27) -0.17415(19) -0.04203(7)
N2_2 N 0.6977(3) 0.0000 0.0000
C2K C 0.7862(3) 0.4501(4) 0.06660(10)
H1K H 0.7809 0.4247 0.0279
H2K H 0.8760 0.5374 0.0723
C3G C -0.0545(4) 0.1210(3) -0.01103(10)
H3G H 0.0288 0.2056 -0.0192
C4G C -0.1816(4) 0.1169(3) -0.00996(10)
H4G H -0.1832 0.2008 -0.0166
O2K O 0.6394(2) 0.5454(3) 0.04580(7)
O3G O 0.5904(3) 0.1538(2) -0.08169(8)
H5G H 0.5849 0.0830 -0.0976
H6G H 0.5402 0.1791 -0.0990
C5K C 0.6679(3) 0.4780(4) 0.07907(10)
C7G C 0.0877(4) -0.1222(3) -0.00898(11)
H7G H 0.0040 -0.2078 -0.0155
C8G C 0.2149(4) -0.1182(3) -0.00832(11)
H8G H 0.2161 -0.2026 -0.0140
O4 O 0.1501(3) -0.3073(3) 0.10330(9)
H9 H 0.1445 -0.3240 0.1371
H10 H 0.1309 -0.2428 0.0979
loop_
_geom_bond_atom_site_label_1
_geom_bond_atom_site_label_2
_geom_bond_site_symmetry_1
_geom_bond_site_symmetry_2
Cu1 O1 1_555 1_555
C1 C3 1_555 1_555
O1 C5 1_555 1_555
N1 Cu1 1_555 1_555
N2 C4 1_555 1_555
C2 H1 1_555 1_555
H2 C2 1_555 1_555
C3 H3 1_555 1_555
C4 C3 1_555 1_555
H4 C4 1_555 1_555
O2 C5 1_555 1_555
O3 Cu1 1_555 1_555
H5 O3 1_555 1_555
H6 O3 1_555 1_555
C5 C2 1_555 1_555
C6 C1 1_555 1_555
C7 C6 1_555 1_555
H7 C7 1_555 1_555
C8 N1 1_555 1_555
H8 C8 1_555 1_555
O4 H9 1_555 1_555
H10 O4 1_555 1_555
Cu1_2 N2 1_555 1_555
Cu1E O1K 1_555 1_555
O1K C5K 1_555 1_555
O1G Cu1 1_555 1_555
N2_2 Cu1 1_555 1_555
C2K C2 1_555 1_555
H1K C2K 1_555 1_555
H2K C2K 1_555 1_555
C3G C1 1_555 1_555
H3G C3G 1_555 1_555
C4G N2 1_555 1_555
H4G C4G 1_555 1_555
O2K C5K 1_555 1_555
O3G Cu1 1_555 1_555
H5G O3G 1_555 1_555
H6G O3G 1_555 1_555
C5K C2K 1_555 1_555
C7G C6 1_555 1_555
H7G C7G 1_555 1_555
C8G N1 1_555 1_555
H8G C8G 1_555 1_555
C7 C8 1_555 1_555
C3G C4G 1_555 1_555
C7G C8G 1_555 1_555

#END
