
#######################################################################
#
#                 Cambridge Crystallographic Data Centre
#                                CCDC 
#
#######################################################################
#
# If this CIF has been generated from an entry in the Cambridge 
# Structural Database, then it will include bibliographic, chemical, 
# crystal, experimental, refinement or atomic coordinate data resulting 
# from the CCDC's data processing and validation procedures.
#
#######################################################################

data_UKUVOL08
_symmetry_cell_setting           hexagonal
_symmetry_space_group_name_H-M   'P 61 2 2'
_symmetry_Int_Tables_number      178
_space_group_name_Hall           "P 61 2' (0,0,5)"
loop_
_symmetry_equiv_pos_site_id
_symmetry_equiv_pos_as_xyz
1 x,y,z
2 -y,x-y,1/3+z
3 -x+y,-x,2/3+z
4 -x,-y,1/2+z
5 y,-x+y,5/6+z
6 x-y,x,1/6+z
7 y,x,1/3-z
8 x-y,-y,-z
9 -x,-x+y,2/3-z
10 -y,-x,5/6-z
11 -x+y,y,1/2-z
12 x,x-y,1/6-z
_cell_length_a                   11.0700(9)
_cell_length_b                   11.0700(9)
_cell_length_c                   24.739(4)
_cell_angle_alpha                90
_cell_angle_beta                 90
_cell_angle_gamma                120
_cell_volume                     2625.48
loop_
_atom_site_label
_atom_site_type_symbol
_atom_site_fract_x
_atom_site_fract_y
_atom_site_fract_z
Cu1 Cu 0.48391(3) 1.0000 0.0000
C1 C 1.0499(2) 1.0000 0.0000
O1 O 0.39211(15) 0.82576(15) 0.04214(6)
N1 N 0.6639(2) 1.0000 0.0000
N2 N 1.3020(2) 1.0000 0.0000
C2 C 0.2132(2) 0.6640(2) 0.10015(8)
H1 H 0.2185 0.6442 0.1388
H2 H 0.1237 0.6618 0.0944
C3 C 1.1758(2) 1.1213(2) 0.01107(8)
H3 H 1.1771 1.2059 0.0192
C4 C 1.2986(2) 1.1171(2) 0.01010(7)
H4 H 1.3840 1.2006 0.0169
O2 O 0.36009(17) 0.90577(16) 0.12078(6)
O3 O 0.56446(16) 1.15289(16) 0.08178(6)
H5 H 0.5025 1.0831 0.0992
H6 H 0.5430 1.2167 0.0822
C5 C 0.3323(2) 0.8100(2) 0.08735(8)
C6 C 0.7901(2) 0.8780(2) 0.00900(9)
H7 H 0.7884 0.7926 0.0155
C7 C 0.9167(2) 1.0000 0.0000
C8 C 0.6671(2) 0.8817(2) 0.00847(9)
H8 H 0.5816 0.7975 0.0143
Cu1_2 Cu 1.48391(3) 1.0000 0.0000
Cu1E Cu 0.48391(3) 0.48391(3) 0.1667
O1K O 0.39211(15) 0.56635(21) 0.12453(6)
O1G O 0.56635(21) 1.17424(15) -0.04214(6)
N2_2 N 0.3020(2) 1.0000 0.0000
C2K C 0.2132(2) 0.5492(3) 0.06652(8)
H1K H 0.2185 0.5743 0.0279
H2K H 0.1237 0.4619 0.0723
C3G C 1.0545(3) 0.8787(2) -0.01107(8)
H3G H 0.9712 0.7941 -0.0192
C4G C 1.1815(3) 0.8829(2) -0.01010(7)
H4G H 1.1834 0.7994 -0.0169
O2K O 0.36009(17) 0.45432(23) 0.04589(6)
O3G O 0.41157(23) 0.84711(16) -0.08178(6)
H5G H 0.4194 0.9169 -0.0992
H6G H 0.3263 0.7833 -0.0822
C5K C 0.3323(2) 0.5223(3) 0.07932(8)
C6G C 0.9121(3) 1.1220(2) -0.00900(9)
H7G H 0.9958 1.2074 -0.0155
C8G C 0.7854(3) 1.1183(2) -0.00847(9)
H8G H 0.7841 1.2025 -0.0143
O4 O 0.8514(2) 1.3077(2) 0.10328(7)
H9 H 0.8549 1.3074 0.1376
H10 H 0.7696 1.2470 0.0934
loop_
_geom_bond_atom_site_label_1
_geom_bond_atom_site_label_2
_geom_bond_site_symmetry_1
_geom_bond_site_symmetry_2
Cu1 O1 1_555 1_555
C1 C3 1_555 1_555
O1 C5 1_555 1_555
N1 Cu1 1_555 1_555
N2 C4 1_555 1_555
C2 H1 1_555 1_555
H2 C2 1_555 1_555
C3 H3 1_555 1_555
C4 C3 1_555 1_555
H4 C4 1_555 1_555
O2 C5 1_555 1_555
O3 Cu1 1_555 1_555
H5 O3 1_555 1_555
H6 O3 1_555 1_555
C5 C2 1_555 1_555
C6 H7 1_555 1_555
C7 C1 1_555 1_555
C8 N1 1_555 1_555
H8 C8 1_555 1_555
O4 H9 1_555 1_555
H10 O4 1_555 1_555
Cu1_2 N2 1_555 1_555
Cu1E O1K 1_555 1_555
O1K C5K 1_555 1_555
O1G Cu1 1_555 1_555
N2_2 Cu1 1_555 1_555
C2K C2 1_555 1_555
H1K C2K 1_555 1_555
H2K C2K 1_555 1_555
C3G C1 1_555 1_555
H3G C3G 1_555 1_555
C4G N2 1_555 1_555
H4G C4G 1_555 1_555
O2K C5K 1_555 1_555
O3G Cu1 1_555 1_555
H5G O3G 1_555 1_555
H6G O3G 1_555 1_555
C5K C2K 1_555 1_555
C6G C7 1_555 1_555
H7G C6G 1_555 1_555
C8G N1 1_555 1_555
H8G C8G 1_555 1_555
C6 C7 1_555 1_555
C6 C8 1_555 1_555
C3G C4G 1_555 1_555
C6G C8G 1_555 1_555

#END
