
#######################################################################
#
#                 Cambridge Crystallographic Data Centre
#                                CCDC 
#
#######################################################################
#
# If this CIF has been generated from an entry in the Cambridge 
# Structural Database, then it will include bibliographic, chemical, 
# crystal, experimental, refinement or atomic coordinate data resulting 
# from the CCDC's data processing and validation procedures.
#
#######################################################################

data_UKUVOL17
_symmetry_cell_setting           hexagonal
_symmetry_space_group_name_H-M   'P 61 2 2'
_symmetry_Int_Tables_number      178
_space_group_name_Hall           "P 61 2' (0,0,5)"
loop_
_symmetry_equiv_pos_site_id
_symmetry_equiv_pos_as_xyz
1 x,y,z
2 -y,x-y,1/3+z
3 -x+y,-x,2/3+z
4 -x,-y,1/2+z
5 y,-x+y,5/6+z
6 x-y,x,1/6+z
7 y,x,1/3-z
8 x-y,-y,-z
9 -x,-x+y,2/3-z
10 -y,-x,5/6-z
11 -x+y,y,1/2-z
12 x,x-y,1/6-z
_cell_length_a                   11.0591(9)
_cell_length_b                   11.0591(9)
_cell_length_c                   24.652(4)
_cell_angle_alpha                90
_cell_angle_beta                 90
_cell_angle_gamma                120
_cell_volume                     2611.09
loop_
_atom_site_label
_atom_site_type_symbol
_atom_site_fract_x
_atom_site_fract_y
_atom_site_fract_z
Cu1 Cu 0.48392(4) 0.0000 0.0000
N1 N 0.6635(3) 0.0000 0.0000
C1 C 1.0497(3) 0.0000 0.0000
O1 O 0.3925(2) -0.1735(2) 0.04196(8)
N2 N 1.3020(3) 0.0000 0.0000
C2 C 1.1756(3) 0.1207(3) 0.01106(11)
H1 H 1.1769 0.2052 0.0194
C3 C 0.2134(3) -0.3365(3) 0.09989(11)
H2 H 0.1236 -0.3391 0.0940
H3 H 0.2182 -0.3565 0.1387
C4 C 1.2981(3) 0.1172(3) 0.00990(10)
H4 H 1.3834 0.2013 0.0164
O2 O 0.3606(2) -0.0941(2) 0.12104(7)
O3 O 0.5632(2) 0.1538(2) 0.08170(8)
H5 H 0.4961 0.0759 0.0923
H6 H 0.6367 0.1684 0.0983
C5 C 0.3311(3) -0.1903(3) 0.08775(11)
C6 C 0.9176(4) 0.0000 0.0000
C7 C 0.7899(3) -0.1224(3) 0.00919(12)
H7 H 0.7881 -0.2079 0.0160
C8 C 0.6667(3) -0.1190(3) 0.00834(12)
H8 H 0.5812 -0.2034 0.0138
Cu1_2 Cu 1.48392(4) 0.0000 0.0000
Cu1E Cu 0.48392(4) -0.51608(4) 0.1667
O1K O 0.3925(2) -0.4340(3) 0.12471(8)
O1G O 0.5660(3) 0.1735(2) -0.04196(8)
N2_2 N 0.3020(3) 0.0000 0.0000
C2G C 1.0549(4) -0.1207(3) -0.01106(11)
H1G H 0.9717 -0.2052 -0.0194
C3K C 0.2134(3) -0.4501(4) 0.06678(11)
H2K H 0.1236 -0.5373 0.0727
H3K H 0.2182 -0.4253 0.0280
C4G C 1.1809(4) -0.1172(3) -0.00990(10)
H4G H 1.1821 -0.2013 -0.0164
O2K O 0.3606(2) -0.5453(3) 0.04563(7)
O3G O 0.4094(3) -0.1538(2) -0.08170(8)
H5G H 0.4202 -0.0759 -0.0923
H6G H 0.4683 -0.1684 -0.0983
C5K C 0.3311(3) -0.4786(4) 0.07892(11)
C7G C 0.9123(4) 0.1224(3) -0.00919(12)
H7G H 0.9960 0.2079 -0.0160
C8G C 0.7857(4) 0.1190(3) -0.00834(12)
H8G H 0.7846 0.2034 -0.0138
O4 O 0.8506(3) 0.3044(3) 0.10329(9)
H9 H 0.8722 0.2993 0.1360
H10 H 0.8049 0.3475 0.1033
loop_
_geom_bond_atom_site_label_1
_geom_bond_atom_site_label_2
_geom_bond_site_symmetry_1
_geom_bond_site_symmetry_2
Cu1 N1 1_555 1_555
N1 C8 1_555 1_555
C1 C2 1_555 1_555
O1 Cu1 1_555 1_555
N2 C4 1_555 1_555
C2 H1 1_555 1_555
C3 H2 1_555 1_555
H3 C3 1_555 1_555
C4 C2 1_555 1_555
H4 C4 1_555 1_555
O2 C5 1_555 1_555
O3 Cu1 1_555 1_555
H5 O3 1_555 1_555
H6 O3 1_555 1_555
C5 O1 1_555 1_555
C6 C1 1_555 1_555
C7 C6 1_555 1_555
H7 C7 1_555 1_555
C8 C7 1_555 1_555
H8 C8 1_555 1_555
O4 H9 1_555 1_555
H10 O4 1_555 1_555
Cu1_2 N2 1_555 1_555
Cu1E O1K 1_555 1_555
O1K C5K 1_555 1_555
O1G Cu1 1_555 1_555
N2_2 Cu1 1_555 1_555
C2G C1 1_555 1_555
H1G C2G 1_555 1_555
C3K C3 1_555 1_555
H2K C3K 1_555 1_555
H3K C3K 1_555 1_555
C4G N2 1_555 1_555
H4G C4G 1_555 1_555
O2K C5K 1_555 1_555
O3G Cu1 1_555 1_555
H5G O3G 1_555 1_555
H6G O3G 1_555 1_555
C5K C3K 1_555 1_555
C7G C6 1_555 1_555
H7G C7G 1_555 1_555
C8G N1 1_555 1_555
H8G C8G 1_555 1_555
C3 C5 1_555 1_555
C2G C4G 1_555 1_555
C7G C8G 1_555 1_555

#END
