
#######################################################################
#
#                 Cambridge Crystallographic Data Centre
#                                CCDC 
#
#######################################################################
#
# If this CIF has been generated from an entry in the Cambridge 
# Structural Database, then it will include bibliographic, chemical, 
# crystal, experimental, refinement or atomic coordinate data resulting 
# from the CCDC's data processing and validation procedures.
#
#######################################################################

data_UKUVOL11
_symmetry_cell_setting           hexagonal
_symmetry_space_group_name_H-M   'P 61 2 2'
_symmetry_Int_Tables_number      178
_space_group_name_Hall           "P 61 2' (0,0,5)"
loop_
_symmetry_equiv_pos_site_id
_symmetry_equiv_pos_as_xyz
1 x,y,z
2 -y,x-y,1/3+z
3 -x+y,-x,2/3+z
4 -x,-y,1/2+z
5 y,-x+y,5/6+z
6 x-y,x,1/6+z
7 y,x,1/3-z
8 x-y,-y,-z
9 -x,-x+y,2/3-z
10 -y,-x,5/6-z
11 -x+y,y,1/2-z
12 x,x-y,1/6-z
_cell_length_a                   11.039(6)
_cell_length_b                   11.039(6)
_cell_length_c                   24.81(3)
_cell_angle_alpha                90
_cell_angle_beta                 90
_cell_angle_gamma                120
_cell_volume                     2618.28
loop_
_atom_site_label
_atom_site_type_symbol
_atom_site_fract_x
_atom_site_fract_y
_atom_site_fract_z
Cu1 Cu 0.51453(5) 1.0000 0.0000
N1 N 0.3338(4) 1.0000 0.0000
N2 N -0.3037(4) 1.0000 0.0000
O1 O 0.6039(3) 1.1716(3) 0.04269(16)
C1 C -0.0502(5) 1.0000 0.0000
C2 C -0.2989(5) 0.8836(5) 0.0100(2)
H1 H -0.3824 0.8013 0.0166
C3 C -0.1777(4) 0.8794(5) 0.0109(2)
H2 H -0.1798 0.7960 0.0188
C4 C 0.6637(4) 1.1880(5) 0.0871(2)
O2 O 0.4306(4) 0.8446(3) 0.08182(18)
H3 H 0.4750 0.8061 0.0695
H4 H 0.4898 0.9240 0.0945
C5 C 0.7814(4) 1.3329(5) 0.1005(3)
H5 H 0.8698 1.3354 0.0955
H6 H 0.7746 1.3519 0.1382
O3 O 0.6348(4) 1.0923(4) 0.11991(19)
C6 C 0.0822(5) 1.0000 0.0000
C7 C 0.3305(4) 1.1175(5) 0.0082(3)
H7 H 0.4141 1.2002 0.0141
C8 C 0.2081(4) 1.1206(5) 0.0082(3)
H10 H 0.2100 1.2048 0.0137
Cu1_2 Cu -0.48547(5) 1.0000 0.0000
Cu1E Cu 0.51453(5) 1.51453(5) 0.1667
N2_2 N 0.6963(4) 1.0000 0.0000
O1K O 0.6039(3) 1.4323(4) 0.12398(16)
O1G O 0.4323(4) 0.8284(3) -0.04269(16)
C2G C -0.1825(7) 1.1164(5) -0.0100(2)
H1G H -0.1837 1.1987 -0.0166
C3G C -0.0571(6) 1.1206(5) -0.0109(2)
H2G H 0.0242 1.2040 -0.0188
C4K C 0.6637(4) 1.4757(6) 0.0796(2)
O2G O 0.5860(5) 1.1554(3) -0.08182(18)
H3G H 0.6689 1.1939 -0.0695
H4G H 0.5658 1.0760 -0.0945
C5K C 0.7814(4) 1.4485(6) 0.0662(3)
H5K H 0.8698 1.5344 0.0712
H6K H 0.7746 1.4227 0.0285
O3K O 0.6348(4) 1.5425(6) 0.04676(19)
C7G C 0.2130(6) 0.8825(5) -0.0082(3)
H7G H 0.2139 0.7998 -0.0141
C8G C 0.0875(6) 0.8794(5) -0.0082(3)
H10G H 0.0052 0.7952 -0.0137
O4 O 0.1428(5) 0.6900(6) 0.1050(2)
H8 H 0.1710 0.6495 0.0834
H9 H 0.1976 0.7180 0.1320
loop_
_geom_bond_atom_site_label_1
_geom_bond_atom_site_label_2
_geom_bond_site_symmetry_1
_geom_bond_site_symmetry_2
Cu1 N1 1_555 1_555
N1 C7 1_555 1_555
N2 C2 1_555 1_555
O1 Cu1 1_555 1_555
C1 C3 1_555 1_555
C2 H1 1_555 1_555
C3 C2 1_555 1_555
H2 C3 1_555 1_555
C4 O1 1_555 1_555
O2 Cu1 1_555 1_555
H3 O2 1_555 1_555
H4 O2 1_555 1_555
C5 C4 1_555 1_555
H5 C5 1_555 1_555
H6 C5 1_555 1_555
O3 C4 1_555 1_555
C6 C1 1_555 1_555
C7 H7 1_555 1_555
O4 H8 1_555 1_555
H9 O4 1_555 1_555
C8 C6 1_555 1_555
H10 C8 1_555 1_555
Cu1_2 N2 1_555 1_555
Cu1E O1K 1_555 1_555
N2_2 Cu1 1_555 1_555
O1K C4K 1_555 1_555
O1G Cu1 1_555 1_555
C2G N2 1_555 1_555
H1G C2G 1_555 1_555
C3G C1 1_555 1_555
H2G C3G 1_555 1_555
C4K C5K 1_555 1_555
O2G Cu1 1_555 1_555
H3G O2G 1_555 1_555
H4G O2G 1_555 1_555
C5K C5 1_555 1_555
H5K C5K 1_555 1_555
H6K C5K 1_555 1_555
O3K C4K 1_555 1_555
C7G N1 1_555 1_555
H7G C7G 1_555 1_555
C8G C6 1_555 1_555
H10G C8G 1_555 1_555
C7 C8 1_555 1_555
C2G C3G 1_555 1_555
C7G C8G 1_555 1_555

#END
