
#######################################################################
#
#                 Cambridge Crystallographic Data Centre
#                                CCDC 
#
#######################################################################
#
# If this CIF has been generated from an entry in the Cambridge 
# Structural Database, then it will include bibliographic, chemical, 
# crystal, experimental, refinement or atomic coordinate data resulting 
# from the CCDC's data processing and validation procedures.
#
#######################################################################

data_UKUVOL20
_symmetry_cell_setting           hexagonal
_symmetry_space_group_name_H-M   'P 61 2 2'
_symmetry_Int_Tables_number      178
_space_group_name_Hall           "P 61 2' (0,0,5)"
loop_
_symmetry_equiv_pos_site_id
_symmetry_equiv_pos_as_xyz
1 x,y,z
2 -y,x-y,1/3+z
3 -x+y,-x,2/3+z
4 -x,-y,1/2+z
5 y,-x+y,5/6+z
6 x-y,x,1/6+z
7 y,x,1/3-z
8 x-y,-y,-z
9 -x,-x+y,2/3-z
10 -y,-x,5/6-z
11 -x+y,y,1/2-z
12 x,x-y,1/6-z
_cell_length_a                   11.0569(8)
_cell_length_b                   11.0569(8)
_cell_length_c                   24.655(3)
_cell_angle_alpha                90
_cell_angle_beta                 90
_cell_angle_gamma                120
_cell_volume                     2610.37
loop_
_atom_site_label
_atom_site_type_symbol
_atom_site_fract_x
_atom_site_fract_y
_atom_site_fract_z
Cu1 Cu 0.48395(3) 0.0000 0.0000
O1 O 0.39221(19) -0.17412(19) 0.04205(7)
C1 C 0.0497(3) 0.0000 0.0000
N1 N 0.3027(3) 0.0000 0.0000
N2 N -0.3366(3) 0.0000 0.0000
C2 C 0.1757(3) 0.1211(3) 0.01112(10)
H1 H 0.1772 0.2057 0.0195
C3 C 0.2136(3) -0.3363(3) 0.10006(10)
H2 H 0.2189 -0.3562 0.1389
H3 H 0.1238 -0.3387 0.0943
C4 C 0.2985(3) 0.1169(3) 0.00985(10)
H4 H 0.3839 0.2008 0.0163
O2 O 0.3604(2) -0.0943(2) 0.12095(7)
O3 O 0.5631(2) 0.1538(2) 0.08173(8)
H5 H 0.5110 0.0841 0.1017
H6 H 0.6471 0.1876 0.0922
C5 C 0.3320(3) -0.1899(3) 0.08751(10)
C6 C -0.2100(3) -0.1222(3) 0.00910(11)
H7 H -0.2118 -0.2076 0.0159
C7 C -0.0830(3) 0.0000 0.0000
C8 C -0.3332(2) -0.1184(3) 0.00825(11)
H8 H -0.4188 -0.2029 0.0137
Cu1_2 Cu -0.51605(3) 0.0000 0.0000
Cu1E Cu 0.48395(3) -0.51605(3) 0.1667
O1K O 0.39221(19) -0.43367(27) 0.12462(7)
O1G O 0.56633(27) 0.17412(19) -0.04205(7)
N2_2 N 0.6634(3) 0.0000 0.0000
C2G C 0.0546(4) -0.1211(3) -0.01112(10)
H1G H -0.0285 -0.2057 -0.0195
C3K C 0.2136(3) -0.4501(4) 0.06661(10)
H2K H 0.2189 -0.4249 0.0278
H3K H 0.1238 -0.5375 0.0724
C4G C 0.1816(4) -0.1169(3) -0.00985(10)
H4G H 0.1831 -0.2008 -0.0163
O2K O 0.3604(2) -0.5453(3) 0.04572(7)
O3G O 0.4093(3) -0.1538(2) -0.08173(8)
H5G H 0.4269 -0.0841 -0.1017
H6G H 0.4595 -0.1876 -0.0922
C5K C 0.3320(3) -0.4781(4) 0.07916(10)
C6G C -0.0878(4) 0.1222(3) -0.00910(11)
H7G H -0.0042 0.2076 -0.0159
C8G C -0.2148(4) 0.1184(3) -0.00825(11)
H8G H -0.2159 0.2029 -0.0137
O4 O 0.8497(3) 0.3071(3) 0.10345(9)
H9 H 0.8574 0.3133 0.1378
H10 H 0.8801 0.2544 0.0923
loop_
_geom_bond_atom_site_label_1
_geom_bond_atom_site_label_2
_geom_bond_site_symmetry_1
_geom_bond_site_symmetry_2
Cu1 O1 1_555 1_555
O1 C5 1_555 1_555
C1 C2 1_555 1_555
N1 Cu1 1_555 1_555
N2 C8 1_555 1_555
C2 H1 1_555 1_555
C3 H2 1_555 1_555
H3 C3 1_555 1_555
C4 N1 1_555 1_555
H4 C4 1_555 1_555
O2 C5 1_555 1_555
O3 Cu1 1_555 1_555
H5 O3 1_555 1_555
H6 O3 1_555 1_555
C5 C3 1_555 1_555
C6 H7 1_555 1_555
C7 C1 1_555 1_555
C8 C6 1_555 1_555
H8 C8 1_555 1_555
O4 H9 1_555 1_555
H10 O4 1_555 1_555
Cu1_2 N2 1_555 1_555
Cu1E O1K 1_555 1_555
O1K C5K 1_555 1_555
O1G Cu1 1_555 1_555
N2_2 Cu1 1_555 1_555
C2G C1 1_555 1_555
H1G C2G 1_555 1_555
C3K C3 1_555 1_555
H2K C3K 1_555 1_555
H3K C3K 1_555 1_555
C4G N1 1_555 1_555
H4G C4G 1_555 1_555
O2K C5K 1_555 1_555
O3G Cu1 1_555 1_555
H5G O3G 1_555 1_555
H6G O3G 1_555 1_555
C5K C3K 1_555 1_555
C6G C7 1_555 1_555
H7G C6G 1_555 1_555
C8G N2 1_555 1_555
H8G C8G 1_555 1_555
C2 C4 1_555 1_555
C6 C7 1_555 1_555
C2G C4G 1_555 1_555
C6G C8G 1_555 1_555

#END
