
#######################################################################
#
#                 Cambridge Crystallographic Data Centre
#                                CCDC 
#
#######################################################################
#
# If this CIF has been generated from an entry in the Cambridge 
# Structural Database, then it will include bibliographic, chemical, 
# crystal, experimental, refinement or atomic coordinate data resulting 
# from the CCDC's data processing and validation procedures.
#
#######################################################################

data_UKUVOL19
_symmetry_cell_setting           hexagonal
_symmetry_space_group_name_H-M   'P 61 2 2'
_symmetry_Int_Tables_number      178
_space_group_name_Hall           "P 61 2' (0,0,5)"
loop_
_symmetry_equiv_pos_site_id
_symmetry_equiv_pos_as_xyz
1 x,y,z
2 -y,x-y,1/3+z
3 -x+y,-x,2/3+z
4 -x,-y,1/2+z
5 y,-x+y,5/6+z
6 x-y,x,1/6+z
7 y,x,1/3-z
8 x-y,-y,-z
9 -x,-x+y,2/3-z
10 -y,-x,5/6-z
11 -x+y,y,1/2-z
12 x,x-y,1/6-z
_cell_length_a                   11.0545(10)
_cell_length_b                   11.0545(10)
_cell_length_c                   24.645(4)
_cell_angle_alpha                90
_cell_angle_beta                 90
_cell_angle_gamma                120
_cell_volume                     2608.18
loop_
_atom_site_label
_atom_site_type_symbol
_atom_site_fract_x
_atom_site_fract_y
_atom_site_fract_z
Cu1 Cu 0.48391(4) 0.0000 0.0000
N1 N 0.6636(3) 0.0000 0.0000
O1 O 0.3924(2) -0.1738(2) 0.04213(9)
N2 N 1.3021(3) 0.0000 0.0000
C1 C 1.0498(4) 0.0000 0.0000
C2 C 0.2137(3) -0.3360(4) 0.10005(13)
H1 H 0.2189 -0.3559 0.1389
H2 H 0.1239 -0.3384 0.0943
C3 C 1.1755(3) 0.1210(3) 0.01113(13)
H3 H 1.1769 0.2056 0.0194
O2 O 0.3603(3) -0.0943(3) 0.12102(9)
C4 C 1.2981(3) 0.1167(3) 0.00995(12)
H4 H 1.3835 0.2006 0.0165
C5 C 0.3318(3) -0.1903(3) 0.08748(12)
O3 O 0.4096(3) -0.1536(3) -0.08177(10)
H5 H 0.4220 -0.0777 -0.0954
H6 H 0.4673 -0.1732 -0.0964
C6 C 0.9170(4) 0.0000 0.0000
C7 C 0.7898(3) -0.1221(3) 0.00915(14)
H7 H 0.7879 -0.2076 0.0160
C8 C 0.6669(3) -0.1181(3) 0.00820(13)
H8 H 0.5812 -0.2026 0.0136
Cu1_2 Cu 1.48391(4) 0.0000 0.0000
Cu1E Cu 0.48391(4) -0.51609(4) 0.1667
O1K O 0.3924(2) -0.4338(3) 0.12454(9)
O1G O 0.5662(3) 0.1738(2) -0.04213(9)
N2_2 N 0.3021(3) 0.0000 0.0000
C2K C 0.2137(3) -0.4503(5) 0.06662(13)
H1K H 0.2189 -0.4252 0.0278
H2K H 0.1239 -0.5377 0.0724
C3G C 1.0545(4) -0.1210(3) -0.01113(13)
H3G H 0.9713 -0.2056 -0.0194
O2K O 0.3603(3) -0.5454(4) 0.04565(9)
C4G C 1.1814(4) -0.1167(3) -0.00995(12)
H4G H 1.1829 -0.2006 -0.0165
C5K C 0.3318(3) -0.4779(4) 0.07919(12)
O3G O 0.5632(4) 0.1536(3) 0.08177(10)
H5G H 0.4997 0.0777 0.0954
H6G H 0.6405 0.1732 0.0964
C7G C 0.9119(4) 0.1221(3) -0.00915(14)
H7G H 0.9955 0.2076 -0.0160
C8G C 0.7850(4) 0.1181(3) -0.00820(13)
H8G H 0.7838 0.2026 -0.0136
O4 O 0.5449(4) -0.3058(4) -0.10322(11)
H9 H 0.5713 -0.3054 -0.1356
H10 H 0.4568 -0.3402 -0.1036
loop_
_geom_bond_atom_site_label_1
_geom_bond_atom_site_label_2
_geom_bond_site_symmetry_1
_geom_bond_site_symmetry_2
Cu1 N1 1_555 1_555
N1 C8 1_555 1_555
O1 Cu1 1_555 1_555
N2 C4 1_555 1_555
C1 C3 1_555 1_555
C2 H1 1_555 1_555
H2 C2 1_555 1_555
C3 H3 1_555 1_555
O2 C5 1_555 1_555
C4 C3 1_555 1_555
H4 C4 1_555 1_555
C5 O1 1_555 1_555
O3 Cu1 1_555 1_555
H5 O3 1_555 1_555
H6 O3 1_555 1_555
C6 C1 1_555 1_555
C7 C6 1_555 1_555
H7 C7 1_555 1_555
C8 C7 1_555 1_555
H8 C8 1_555 1_555
O4 H9 1_555 1_555
H10 O4 1_555 1_555
Cu1_2 N2 1_555 1_555
Cu1E O1K 1_555 1_555
O1K C5K 1_555 1_555
O1G Cu1 1_555 1_555
N2_2 Cu1 1_555 1_555
C2K C2 1_555 1_555
H1K C2K 1_555 1_555
H2K C2K 1_555 1_555
C3G C1 1_555 1_555
H3G C3G 1_555 1_555
O2K C5K 1_555 1_555
C4G N2 1_555 1_555
H4G C4G 1_555 1_555
C5K C2K 1_555 1_555
O3G Cu1 1_555 1_555
H5G O3G 1_555 1_555
H6G O3G 1_555 1_555
C7G C6 1_555 1_555
H7G C7G 1_555 1_555
C8G N1 1_555 1_555
H8G C8G 1_555 1_555
C2 C5 1_555 1_555
C3G C4G 1_555 1_555
C7G C8G 1_555 1_555

#END
