
#######################################################################
#
#                 Cambridge Crystallographic Data Centre
#                                CCDC 
#
#######################################################################
#
# If this CIF has been generated from an entry in the Cambridge 
# Structural Database, then it will include bibliographic, chemical, 
# crystal, experimental, refinement or atomic coordinate data resulting 
# from the CCDC's data processing and validation procedures.
#
#######################################################################

data_UKUVOL18
_symmetry_cell_setting           hexagonal
_symmetry_space_group_name_H-M   'P 61 2 2'
_symmetry_Int_Tables_number      178
_space_group_name_Hall           "P 61 2' (0,0,5)"
loop_
_symmetry_equiv_pos_site_id
_symmetry_equiv_pos_as_xyz
1 x,y,z
2 -y,x-y,1/3+z
3 -x+y,-x,2/3+z
4 -x,-y,1/2+z
5 y,-x+y,5/6+z
6 x-y,x,1/6+z
7 y,x,1/3-z
8 x-y,-y,-z
9 -x,-x+y,2/3-z
10 -y,-x,5/6-z
11 -x+y,y,1/2-z
12 x,x-y,1/6-z
_cell_length_a                   11.0822(10)
_cell_length_b                   11.0822(10)
_cell_length_c                   24.757(5)
_cell_angle_alpha                90
_cell_angle_beta                 90
_cell_angle_gamma                120
_cell_volume                     2633.18
loop_
_atom_site_label
_atom_site_type_symbol
_atom_site_fract_x
_atom_site_fract_y
_atom_site_fract_z
Cu1 Cu 0.48383(4) 1.0000 0.0000
O1 O 0.3922(2) 0.8262(2) 0.04213(9)
N1 N 0.6636(3) 1.0000 0.0000
C1 C 1.0500(4) 1.0000 0.0000
N2 N 1.3020(3) 1.0000 0.0000
C2 C 0.2134(3) 0.6638(4) 0.10005(13)
H1 H 0.2183 0.6438 0.1387
H2 H 0.1240 0.6617 0.0942
C3 C 1.1751(4) 1.1206(3) 0.01121(13)
H3 H 1.1763 1.2048 0.0197
C4 C 1.2981(4) 1.1166(3) 0.00986(12)
H4 H 1.3834 1.2003 0.0162
O2 O 0.3604(3) 0.9058(3) 0.12091(9)
O3 O 0.5644(3) 1.1529(3) 0.08176(10)
H5 H 0.5030 1.0863 0.1006
H6 H 0.5553 1.2240 0.0862
C5 C 0.3324(3) 0.8100(3) 0.08753(13)
C6 C 0.9172(4) 1.0000 0.0000
C7 C 0.7898(3) 0.8776(4) 0.00904(15)
H7 H 0.7876 0.7921 0.0157
C8 C 0.6669(3) 0.8821(3) 0.00823(13)
H8 H 0.5813 0.7980 0.0137
Cu1_2 Cu 1.48383(4) 1.0000 0.0000
Cu1E Cu 0.48383(4) 0.48383(4) 0.1667
O1K O 0.3922(2) 0.5660(3) 0.12454(9)
O1G O 0.5660(3) 1.1738(2) -0.04213(9)
N2_2 N 0.3020(3) 1.0000 0.0000
C2K C 0.2134(3) 0.5496(5) 0.06662(13)
H1K H 0.2183 0.5745 0.0280
H2K H 0.1240 0.4623 0.0725
C3G C 1.0545(5) 0.8794(3) -0.01121(13)
H3G H 0.9715 0.7952 -0.0197
C4G C 1.1815(5) 0.8834(3) -0.00986(12)
H4G H 1.1831 0.7997 -0.0162
O2K O 0.3604(3) 0.4546(4) 0.04576(9)
O3G O 0.4115(4) 0.8471(3) -0.08176(10)
H5G H 0.4167 0.9137 -0.1006
H6G H 0.3313 0.7760 -0.0862
C5K C 0.3324(3) 0.5224(4) 0.07914(13)
C7G C 0.9122(5) 1.1224(4) -0.00904(15)
H7G H 0.9955 1.2079 -0.0157
C8G C 0.7848(4) 1.1179(3) -0.00823(13)
H8G H 0.7833 1.2020 -0.0137
O4 O 0.8510(3) 1.3058(4) 0.10345(11)
H9 H 0.8482 1.3313 0.1356
H10 H 0.7939 1.3171 0.0842
loop_
_geom_bond_atom_site_label_1
_geom_bond_atom_site_label_2
_geom_bond_site_symmetry_1
_geom_bond_site_symmetry_2
Cu1 O1 1_555 1_555
O1 C5 1_555 1_555
N1 Cu1 1_555 1_555
C1 C3 1_555 1_555
N2 C4 1_555 1_555
C2 H1 1_555 1_555
H2 C2 1_555 1_555
C3 H3 1_555 1_555
C4 C3 1_555 1_555
H4 C4 1_555 1_555
O2 C5 1_555 1_555
O3 Cu1 1_555 1_555
H5 O3 1_555 1_555
H6 O3 1_555 1_555
C5 C2 1_555 1_555
C6 C1 1_555 1_555
C7 C6 1_555 1_555
H7 C7 1_555 1_555
C8 N1 1_555 1_555
H8 C8 1_555 1_555
O4 H9 1_555 1_555
H10 O4 1_555 1_555
Cu1_2 N2 1_555 1_555
Cu1E O1K 1_555 1_555
O1K C5K 1_555 1_555
O1G Cu1 1_555 1_555
N2_2 Cu1 1_555 1_555
C2K C2 1_555 1_555
H1K C2K 1_555 1_555
H2K C2K 1_555 1_555
C3G C1 1_555 1_555
H3G C3G 1_555 1_555
C4G N2 1_555 1_555
H4G C4G 1_555 1_555
O2K C5K 1_555 1_555
O3G Cu1 1_555 1_555
H5G O3G 1_555 1_555
H6G O3G 1_555 1_555
C5K C2K 1_555 1_555
C7G C6 1_555 1_555
H7G C7G 1_555 1_555
C8G N1 1_555 1_555
H8G C8G 1_555 1_555
C7 C8 1_555 1_555
C3G C4G 1_555 1_555
C7G C8G 1_555 1_555

#END
