
#######################################################################
#
#                 Cambridge Crystallographic Data Centre
#                                CCDC 
#
#######################################################################
#
# If this CIF has been generated from an entry in the Cambridge 
# Structural Database, then it will include bibliographic, chemical, 
# crystal, experimental, refinement or atomic coordinate data resulting 
# from the CCDC's data processing and validation procedures.
#
#######################################################################

data_UKUVOL12
_symmetry_cell_setting           hexagonal
_symmetry_space_group_name_H-M   'P 61 2 2'
_symmetry_Int_Tables_number      178
_space_group_name_Hall           "P 61 2' (0,0,5)"
loop_
_symmetry_equiv_pos_site_id
_symmetry_equiv_pos_as_xyz
1 x,y,z
2 -y,x-y,1/3+z
3 -x+y,-x,2/3+z
4 -x,-y,1/2+z
5 y,-x+y,5/6+z
6 x-y,x,1/6+z
7 y,x,1/3-z
8 x-y,-y,-z
9 -x,-x+y,2/3-z
10 -y,-x,5/6-z
11 -x+y,y,1/2-z
12 x,x-y,1/6-z
_cell_length_a                   11.060(3)
_cell_length_b                   11.060(3)
_cell_length_c                   24.860(11)
_cell_angle_alpha                90
_cell_angle_beta                 90
_cell_angle_gamma                120
_cell_volume                     2633.55
loop_
_atom_site_label
_atom_site_type_symbol
_atom_site_fract_x
_atom_site_fract_y
_atom_site_fract_z
Cu1 Cu 0.48549(4) 1.0000 0.0000
N1 N 0.3037(3) 1.0000 0.0000
C1 C 0.1822(3) 0.8827(3) -0.01009(14)
H1 H 0.1833 0.8006 -0.0169
O1 O 0.5670(3) 1.1562(3) 0.08189(10)
H2 H 0.5090 1.0776 0.0954
H3 H 0.6489 1.1738 0.0900
O3 O 0.3948(2) 0.8282(2) 0.04239(10)
C2 C -0.0822(4) 1.0000 0.0000
C3 C 0.0574(3) 0.8797(3) -0.01075(14)
H6 H -0.0240 0.7966 -0.0185
C4 C 0.0504(3) 1.0000 0.0000
N2 N -0.3343(3) 1.0000 0.0000
O4 O 0.3646(3) 0.9067(3) 0.11979(11)
C5 C 0.3361(3) 0.8122(3) 0.08728(14)
C6 C -0.2136(3) 1.1174(3) -0.00782(16)
H7 H -0.2143 1.2003 -0.0132
C7 C 0.2178(3) 0.6660(3) 0.09965(15)
H8 H 0.1299 0.6636 0.0938
H9 H 0.2224 0.6469 0.1374
C8 C -0.0872(3) 1.1203(4) -0.00826(17)
H10 H -0.0051 1.2042 -0.0142
Cu1_2 Cu -0.51451(4) 1.0000 0.0000
Cu1E Cu 0.48549(4) 0.48549(4) 0.1667
C1G C 0.2995(4) 1.1173(3) 0.01009(14)
H1G H 0.3827 1.1994 0.0169
O1G O 0.4108(4) 0.8438(3) -0.08189(10)
H2G H 0.4314 0.9224 -0.0954
H3G H 0.4751 0.8262 -0.0900
O3K O 0.3948(2) 0.5666(3) 0.12428(10)
O3G O 0.5666(3) 1.1718(2) -0.04239(10)
C3G C 0.1777(4) 1.1203(3) 0.01075(14)
H6G H 0.1794 1.2034 0.0185
N2_2 N 0.6657(3) 1.0000 0.0000
O4K O 0.3646(3) 0.4579(4) 0.04688(11)
C5K C 0.3361(3) 0.5239(4) 0.07939(14)
C6G C -0.3310(4) 0.8826(3) 0.00782(16)
H7G H -0.4146 0.7997 0.0132
C7K C 0.2178(3) 0.5518(4) 0.06702(15)
H8K H 0.1299 0.4663 0.0729
H9K H 0.2224 0.5755 0.0293
C8G C -0.2075(5) 0.8797(4) 0.00826(17)
H10G H -0.2093 0.7958 0.0142
O2 O 0.8554(3) 1.3070(4) 0.10521(13)
H4 H 0.8569 1.3845 0.1040
H5 H 0.8558 1.2858 0.1381
loop_
_geom_bond_atom_site_label_1
_geom_bond_atom_site_label_2
_geom_bond_site_symmetry_1
_geom_bond_site_symmetry_2
Cu1 N1 1_555 1_555
N1 C1 1_555 1_555
C1 H1 1_555 1_555
O1 Cu1 1_555 1_555
H2 O1 1_555 1_555
H3 O1 1_555 1_555
O2 H4 1_555 1_555
H5 O2 1_555 1_555
O3 Cu1 1_555 1_555
C2 C4 1_555 1_555
C3 C1 1_555 1_555
H6 C3 1_555 1_555
C4 C3 1_555 1_555
N2 C6 1_555 1_555
O4 C5 1_555 1_555
C5 O3 1_555 1_555
C6 H7 1_555 1_555
C7 C5 1_555 1_555
H8 C7 1_555 1_555
H9 C7 1_555 1_555
C8 C2 1_555 1_555
H10 C8 1_555 1_555
Cu1_2 N2 1_555 1_555
Cu1E O3K 1_555 1_555
C1G N1 1_555 1_555
H1G C1G 1_555 1_555
O1G Cu1 1_555 1_555
H2G O1G 1_555 1_555
H3G O1G 1_555 1_555
O3K C5K 1_555 1_555
O3G Cu1 1_555 1_555
C3G C4 1_555 1_555
H6G C3G 1_555 1_555
N2_2 Cu1 1_555 1_555
O4K C5K 1_555 1_555
C5K C7K 1_555 1_555
C6G N2 1_555 1_555
H7G C6G 1_555 1_555
C7K C7 1_555 1_555
H8K C7K 1_555 1_555
H9K C7K 1_555 1_555
C8G C2 1_555 1_555
H10G C8G 1_555 1_555
C6 C8 1_555 1_555
C1G C3G 1_555 1_555
C6G C8G 1_555 1_555

#END
