
#######################################################################
#
#                 Cambridge Crystallographic Data Centre
#                                CCDC 
#
#######################################################################
#
# If this CIF has been generated from an entry in the Cambridge 
# Structural Database, then it will include bibliographic, chemical, 
# crystal, experimental, refinement or atomic coordinate data resulting 
# from the CCDC's data processing and validation procedures.
#
#######################################################################

data_UKUVOL13
_symmetry_cell_setting           hexagonal
_symmetry_space_group_name_H-M   'P 61 2 2'
_symmetry_Int_Tables_number      178
_space_group_name_Hall           "P 61 2' (0,0,5)"
loop_
_symmetry_equiv_pos_site_id
_symmetry_equiv_pos_as_xyz
1 x,y,z
2 -y,x-y,1/3+z
3 -x+y,-x,2/3+z
4 -x,-y,1/2+z
5 y,-x+y,5/6+z
6 x-y,x,1/6+z
7 y,x,1/3-z
8 x-y,-y,-z
9 -x,-x+y,2/3-z
10 -y,-x,5/6-z
11 -x+y,y,1/2-z
12 x,x-y,1/6-z
_cell_length_a                   11.043(3)
_cell_length_b                   11.043(3)
_cell_length_c                   24.969(12)
_cell_angle_alpha                90
_cell_angle_beta                 90
_cell_angle_gamma                120
_cell_volume                     2636.97
loop_
_atom_site_label
_atom_site_type_symbol
_atom_site_fract_x
_atom_site_fract_y
_atom_site_fract_z
Cu1 Cu 0.48542(4) 1.0000 0.0000
O1 O 0.3945(3) 0.8282(2) 0.04212(8)
C1 C 0.0509(4) 1.0000 0.0000
C2 C 0.2993(4) 1.1167(4) 0.00989(12)
H1 H 0.3828 1.1989 0.0164
N1 N 0.3032(3) 1.0000 0.0000
N2 N -0.3341(3) 1.0000 0.0000
O2 O 0.3653(3) 0.9067(3) 0.11999(9)
C3 C 0.2189(4) 0.6660(4) 0.09958(12)
H2 H 0.1305 0.6629 0.0941
H3 H 0.2244 0.6466 0.1371
C4 C 0.3361(4) 0.8125(4) 0.08735(12)
C5 C 0.1773(4) 1.1200(4) 0.01080(13)
H4 H 0.1790 1.2032 0.0187
C6 C -0.0821(4) 1.0000 0.0000
C7 C -0.2083(4) 0.8798(4) 0.00840(16)
H5 H -0.2101 0.7958 0.0145
O3 O 0.4111(3) 0.8436(3) -0.08197(9)
H6 H 0.4307 0.9189 -0.0982
H7 H 0.4663 0.8164 -0.0931
C8 C -0.3305(4) 0.8822(4) 0.00798(15)
H8 H -0.4140 0.7991 0.0134
Cu1_2 Cu -0.51458(4) 1.0000 0.0000
Cu1E Cu 0.48542(4) 0.48542(4) 0.1667
O1K O 0.3945(3) 0.5663(4) 0.12455(8)
O1G O 0.5663(4) 1.1718(2) -0.04212(8)
C2G C 0.1826(6) 0.8833(4) -0.00989(12)
H1G H 0.1839 0.8011 -0.0164
N2_2 N 0.6659(3) 1.0000 0.0000
O2K O 0.3653(3) 0.4586(4) 0.04668(9)
C3K C 0.2189(4) 0.5529(6) 0.06709(12)
H2K H 0.1305 0.4676 0.0726
H3K H 0.2244 0.5778 0.0296
C4K C 0.3361(4) 0.5236(6) 0.07932(12)
C5G C 0.0573(6) 0.8800(4) -0.01080(13)
H4G H -0.0242 0.7968 -0.0187
C7G C -0.0881(6) 1.1202(4) -0.00840(16)
H5G H -0.0059 1.2042 -0.0145
O3G O 0.5675(4) 1.1564(3) 0.08197(9)
H6G H 0.5118 1.0811 0.0982
H7G H 0.6499 1.1836 0.0931
C8G C -0.2127(6) 1.1178(4) -0.00798(15)
H8G H -0.2131 1.2009 -0.0134
O4 O 0.5485(4) 0.6931(4) -0.10518(12)
H9 H 0.5638 0.6968 -0.1387
H10 H 0.4646 0.6290 -0.0996
loop_
_geom_bond_atom_site_label_1
_geom_bond_atom_site_label_2
_geom_bond_site_symmetry_1
_geom_bond_site_symmetry_2
Cu1 O1 1_555 1_555
O1 C4 1_555 1_555
C1 C5 1_555 1_555
C2 H1 1_555 1_555
N1 Cu1 1_555 1_555
N2 C8 1_555 1_555
O2 C4 1_555 1_555
C3 H2 1_555 1_555
H3 C3 1_555 1_555
C4 C3 1_555 1_555
C5 C2 1_555 1_555
H4 C5 1_555 1_555
C6 C1 1_555 1_555
C7 C6 1_555 1_555
H5 C7 1_555 1_555
O3 Cu1 1_555 1_555
H6 O3 1_555 1_555
H7 O3 1_555 1_555
C8 C7 1_555 1_555
H8 C8 1_555 1_555
O4 H9 1_555 1_555
H10 O4 1_555 1_555
Cu1_2 N2 1_555 1_555
Cu1E O1K 1_555 1_555
O1K C4K 1_555 1_555
O1G Cu1 1_555 1_555
C2G N1 1_555 1_555
H1G C2G 1_555 1_555
N2_2 Cu1 1_555 1_555
O2K C4K 1_555 1_555
C3K C3 1_555 1_555
H2K C3K 1_555 1_555
H3K C3K 1_555 1_555
C4K C3K 1_555 1_555
C5G C1 1_555 1_555
H4G C5G 1_555 1_555
C7G C6 1_555 1_555
H5G C7G 1_555 1_555
O3G Cu1 1_555 1_555
H6G O3G 1_555 1_555
H7G O3G 1_555 1_555
C8G N2 1_555 1_555
H8G C8G 1_555 1_555
C2 N1 1_555 1_555
C2G C5G 1_555 1_555
C7G C8G 1_555 1_555

#END
