
#######################################################################
#
#                 Cambridge Crystallographic Data Centre
#                                CCDC 
#
#######################################################################
#
# If this CIF has been generated from an entry in the Cambridge 
# Structural Database, then it will include bibliographic, chemical, 
# crystal, experimental, refinement or atomic coordinate data resulting 
# from the CCDC's data processing and validation procedures.
#
#######################################################################

data_UKUVOL10
_symmetry_cell_setting           hexagonal
_symmetry_space_group_name_H-M   'P 61 2 2'
_symmetry_Int_Tables_number      178
_space_group_name_Hall           "P 61 2' (0,0,5)"
loop_
_symmetry_equiv_pos_site_id
_symmetry_equiv_pos_as_xyz
1 x,y,z
2 -y,x-y,1/3+z
3 -x+y,-x,2/3+z
4 -x,-y,1/2+z
5 y,-x+y,5/6+z
6 x-y,x,1/6+z
7 y,x,1/3-z
8 x-y,-y,-z
9 -x,-x+y,2/3-z
10 -y,-x,5/6-z
11 -x+y,y,1/2-z
12 x,x-y,1/6-z
_cell_length_a                   11.0315(19)
_cell_length_b                   11.0315(19)
_cell_length_c                   24.825(8)
_cell_angle_alpha                90
_cell_angle_beta                 90
_cell_angle_gamma                120
_cell_volume                     2616.31
loop_
_atom_site_label
_atom_site_type_symbol
_atom_site_fract_x
_atom_site_fract_y
_atom_site_fract_z
Cu1 Cu 0.51448(3) 1.0000 0.0000
N1 N 0.3344(2) 1.0000 0.0000
C1 C -0.0571(3) 1.1201(3) -0.01068(13)
H1 H 0.0245 1.2037 -0.0182
C2 C -0.1831(3) 1.1162(3) -0.01015(13)
H2 H -0.1848 1.1981 -0.0172
C3 C -0.0503(3) 1.0000 0.0000
C4 C 0.7815(3) 1.3327(3) 0.09973(14)
H3 H 0.8695 1.3349 0.0938
H4 H 0.7767 1.3512 0.1376
O1 O 0.6048(2) 1.17175(19) 0.04222(9)
O2 O 0.6352(3) 1.0928(2) 0.12017(10)
C5 C 0.6637(3) 1.1883(3) 0.08689(13)
C6 C 0.0819(3) 1.0000 0.0000
O3 O 0.4334(2) 0.8468(2) 0.08226(10)
H5 H 0.3533 0.8296 0.0931
H6 H 0.4349 0.7705 0.0824
N2 N -0.3028(2) 1.0000 0.0000
C7 C 0.3312(3) 1.1180(3) 0.00796(15)
H7 H 0.4151 1.2009 0.0135
C8 C 0.2081(3) 1.1214(3) 0.00834(15)
H10 H 0.2099 1.2055 0.0142
Cu1_2 Cu -0.48552(3) 1.0000 0.0000
Cu1E Cu 0.51448(3) 1.51448(3) 0.1667
C1G C -0.1772(4) 0.8799(3) 0.01068(13)
H1G H -0.1792 0.7963 0.0182
C2G C -0.2993(4) 0.8838(3) 0.01015(13)
H2G H -0.3829 0.8019 0.0172
C4K C 0.7815(3) 1.4488(4) 0.06694(14)
H3K H 0.8695 1.5346 0.0729
H4K H 0.7767 1.4255 0.0291
O1K O 0.6048(2) 1.43305(28) 0.12445(9)
O1G O 0.43305(28) 0.82825(19) -0.04222(9)
O2K O 0.6352(3) 1.5424(4) 0.04650(10)
C5K C 0.6637(3) 1.4754(4) 0.07978(13)
O3G O 0.5866(3) 1.1532(2) -0.08226(10)
H5G H 0.5237 1.1704 -0.0931
H6G H 0.6644 1.2295 -0.0824
N2_2 N 0.6972(2) 1.0000 0.0000
C7G C 0.2132(4) 0.8820(3) -0.00796(15)
H7G H 0.2142 0.7991 -0.0135
C8G C 0.0867(4) 0.8786(3) -0.00834(15)
H10G H 0.0044 0.7945 -0.0142
O4 O 0.6918(4) 1.1444(3) 0.22826(12)
H8 H 0.6804 1.1112 0.1966
H9 H 0.6502 1.1915 0.2302
loop_
_geom_bond_atom_site_label_1
_geom_bond_atom_site_label_2
_geom_bond_site_symmetry_1
_geom_bond_site_symmetry_2
Cu1 N1 1_555 1_555
N1 C7 1_555 1_555
C1 H1 1_555 1_555
C2 C1 1_555 1_555
H2 C2 1_555 1_555
C3 C1 1_555 1_555
C4 H3 1_555 1_555
H4 C4 1_555 1_555
O1 Cu1 1_555 1_555
O2 C5 1_555 1_555
C5 C4 1_555 1_555
C6 C3 1_555 1_555
O3 Cu1 1_555 1_555
H5 O3 1_555 1_555
H6 O3 1_555 1_555
N2 C2 1_555 1_555
C7 H7 1_555 1_555
O4 H8 1_555 1_555
H9 O4 1_555 1_555
C8 C6 1_555 1_555
H10 C8 1_555 1_555
Cu1_2 N2 1_555 1_555
Cu1E O1K 1_555 1_555
C1G C3 1_555 1_555
H1G C1G 1_555 1_555
C2G N2 1_555 1_555
H2G C2G 1_555 1_555
C4K C4 1_555 1_555
H3K C4K 1_555 1_555
H4K C4K 1_555 1_555
O1K C5K 1_555 1_555
O1G Cu1 1_555 1_555
O2K C5K 1_555 1_555
C5K C4K 1_555 1_555
O3G Cu1 1_555 1_555
H5G O3G 1_555 1_555
H6G O3G 1_555 1_555
N2_2 Cu1 1_555 1_555
C7G N1 1_555 1_555
H7G C7G 1_555 1_555
C8G C6 1_555 1_555
H10G C8G 1_555 1_555
O1 C5 1_555 1_555
C7 C8 1_555 1_555
C1G C2G 1_555 1_555
C7G C8G 1_555 1_555

#END
