
#######################################################################
#
#                 Cambridge Crystallographic Data Centre
#                                CCDC 
#
#######################################################################
#
# If this CIF has been generated from an entry in the Cambridge 
# Structural Database, then it will include bibliographic, chemical, 
# crystal, experimental, refinement or atomic coordinate data resulting 
# from the CCDC's data processing and validation procedures.
#
#######################################################################

data_UKUXOO
_symmetry_cell_setting           monoclinic
_symmetry_space_group_name_H-M   'C 2/c'
_symmetry_Int_Tables_number      15
_space_group_name_Hall           '-C 2yn'
loop_
_symmetry_equiv_pos_site_id
_symmetry_equiv_pos_as_xyz
1 x,y,z
2 -x,y,1/2-z
3 1/2+x,1/2+y,z
4 1/2-x,1/2+y,1/2-z
5 -x,-y,-z
6 x,-y,1/2+z
7 1/2-x,1/2-y,-z
8 1/2+x,1/2-y,1/2+z
_cell_length_a                   9.7033(19)
_cell_length_b                   24.141(5)
_cell_length_c                   8.5810(17)
_cell_angle_alpha                90
_cell_angle_beta                 115.01(3)
_cell_angle_gamma                90
_cell_volume                     1821.6
loop_
_atom_site_label
_atom_site_type_symbol
_atom_site_fract_x
_atom_site_fract_y
_atom_site_fract_z
Ce1 Ce 0.5000 0.492614(8) 0.2500
Co1 Co 0.5000 0.66301(2) -0.2500
O1 O 0.3732(3) 0.58084(9) 0.0856(3)
O2 O 0.4319(3) 0.59802(8) -0.1356(3)
O3 O 0.2112(2) 0.45631(9) 0.0402(3)
O4 O 0.3530(2) 0.47760(10) -0.0939(3)
O5 O 0.2922(3) 0.67061(9) -0.4574(3)
N1 N 0.3826(3) 0.70908(11) -0.1282(3)
C1 C 0.3941(3) 0.61210(12) -0.0161(4)
C2 C 0.2343(3) 0.45685(12) -0.0912(4)
O6 O 0.0492(3) 0.68667(12) -0.5204(4)
C3 C 0.1852(4) 0.69018(14) -0.4252(4)
C4 C 0.2299(4) 0.72317(17) -0.2590(5)
H1 H 0.1562 0.7162 -0.2125
H2 H 0.2266 0.7624 -0.2850
C5 C 0.3834(5) 0.67408(13) 0.0124(5)
H3 H 0.4688 0.6847 0.1181
H4 H 0.2911 0.6811 0.0270
N2 N 0.0000 0.39888(15) -0.2500
H5 H 0.0000 0.3633 -0.2500
C6 C 0.1245(3) 0.43243(15) -0.2610(4)
H6 H 0.0797 0.4624 -0.3422
H7 H 0.1811 0.4092 -0.3058
Ce1D Ce 0.5000 0.507386(8) -0.2500
Ce1D_2 Ce 0.5000 0.507386(8) 0.7500
Ce1_2 Ce -0.5000 0.492614(8) -0.7500
Ce1D_3 Ce -0.5000 0.507386(8) -0.2500
Co1_2 Co 0.5000 0.66301(2) 0.7500
O1A O 0.6268(3) 0.58084(9) 0.4144(3)
O2D O 0.5681(3) 0.40198(8) 0.1356(3)
O2A O 0.5681(3) 0.59802(8) 0.6356(3)
O2E O 0.4319(3) 0.40198(8) 0.3644(3)
O2A_2 O 0.5681(3) 0.59802(8) -0.3644(3)
O3A O -0.2112(2) 0.45631(9) -0.5402(3)
O3A_2 O 0.7888(2) 0.45631(9) 0.4598(3)
O4A O -0.3530(2) 0.47760(10) -0.4061(3)
O4A_2 O 0.6470(2) 0.47760(10) 0.5939(3)
O4D O 0.6470(2) 0.52240(10) 0.0939(3)
O4E O 0.3530(2) 0.52240(10) 0.4061(3)
O5A O 0.7078(3) 0.67061(9) 0.9574(3)
O5A_2 O 0.7078(3) 0.67061(9) -0.0426(3)
N1A N 0.6174(3) 0.70908(11) 0.6282(3)
N1A_2 N 0.6174(3) 0.70908(11) -0.3718(3)
C1A C 0.6059(3) 0.61210(12) 0.5161(4)
C2A C -0.2343(3) 0.45685(12) -0.4088(4)
O6A O 0.9508(3) 0.68667(12) 1.0204(4)
C3A C 0.8148(4) 0.69018(14) 0.9252(4)
C4A C 0.7701(4) 0.72317(17) 0.7590(5)
H1A H 0.8438 0.7162 0.7125
H2A H 0.7734 0.7624 0.7850
C5A C 0.6166(5) 0.67408(13) 0.4876(5)
H3A H 0.5312 0.6847 0.3819
H4A H 0.7089 0.6811 0.4730
C6A C -0.1245(3) 0.43243(15) -0.2390(4)
H6A H -0.0797 0.4624 -0.1578
H7A H -0.1811 0.4092 -0.1942
loop_
_geom_bond_atom_site_label_1
_geom_bond_atom_site_label_2
_geom_bond_site_symmetry_1
_geom_bond_site_symmetry_2
Ce1 O1 1_555 1_555
Co1 O2 1_555 1_555
O1 C1 1_555 1_555
O2 C1 1_555 1_555
O3 Ce1 1_555 1_555
O4 Ce1 1_555 1_555
O5 Co1 1_555 1_555
N1 Co1 1_555 1_555
C1 C5 1_555 1_555
C2 O3 1_555 1_555
O6 C3 1_555 1_555
C3 O5 1_555 1_555
C4 N1 1_555 1_555
H1 C4 1_555 1_555
H2 C4 1_555 1_555
C5 N1 1_555 1_555
H3 C5 1_555 1_555
H4 C5 1_555 1_555
N2 H5 1_555 1_555
C6 C2 1_555 1_555
H6 C6 1_555 1_555
H7 C6 1_555 1_555
Ce1D O2 1_555 1_555
Ce1D_2 O2A 1_555 1_555
Ce1_2 O3A 1_555 1_555
Ce1D_3 O4A 1_555 1_555
Co1_2 O2A 1_555 1_555
O1A Ce1 1_555 1_555
O2D Ce1 1_555 1_555
O2A C1A 1_555 1_555
O2E Ce1 1_555 1_555
O2A_2 Co1 1_555 1_555
O3A C2A 1_555 1_555
O3A_2 Ce1 1_555 1_555
O4A Ce1_2 1_555 1_555
O4A_2 Ce1 1_555 1_555
O4D Ce1 1_555 1_555
O4E Ce1 1_555 1_555
O5A Co1_2 1_555 1_555
O5A_2 Co1 1_555 1_555
N1A Co1_2 1_555 1_555
N1A_2 Co1 1_555 1_555
C1A O1A 1_555 1_555
C2A O4A 1_555 1_555
O6A C3A 1_555 1_555
C3A O5A 1_555 1_555
C4A N1A 1_555 1_555
H1A C4A 1_555 1_555
H2A C4A 1_555 1_555
C5A N1A 1_555 1_555
H3A C5A 1_555 1_555
H4A C5A 1_555 1_555
C6A N2 1_555 1_555
H6A C6A 1_555 1_555
H7A C6A 1_555 1_555
O4 C2 1_555 1_555
O4 Ce1D 1_555 1_555
C3 C4 1_555 1_555
N2 C6 1_555 1_555
Ce1D O2A_2 1_555 1_555
Ce1D O4D 1_555 1_555
Ce1D_2 O4A_2 1_555 1_555
Ce1D_2 O4E 1_555 1_555
C1A C5A 1_555 1_555
C2A C6A 1_555 1_555
C3A C4A 1_555 1_555

#END
