
#######################################################################
#
#                 Cambridge Crystallographic Data Centre
#                                CCDC 
#
#######################################################################
#
# If this CIF has been generated from an entry in the Cambridge 
# Structural Database, then it will include bibliographic, chemical, 
# crystal, experimental, refinement or atomic coordinate data resulting 
# from the CCDC's data processing and validation procedures.
#
#######################################################################

data_UKUYAB
_symmetry_cell_setting           monoclinic
_symmetry_space_group_name_H-M   'P 21/c'
_symmetry_Int_Tables_number      14
_space_group_name_Hall           '-P 2ybc'
loop_
_symmetry_equiv_pos_site_id
_symmetry_equiv_pos_as_xyz
1 x,y,z
2 -x,1/2+y,1/2-z
3 -x,-y,-z
4 x,1/2-y,1/2+z
_cell_length_a                   7.3143(3)
_cell_length_b                   18.5703(7)
_cell_length_c                   8.8713(4)
_cell_angle_alpha                90
_cell_angle_beta                 117.0633(10)
_cell_angle_gamma                90
_cell_volume                     1073.04
loop_
_atom_site_label
_atom_site_type_symbol
_atom_site_fract_x
_atom_site_fract_y
_atom_site_fract_z
Co1 Co 0.0000 0.5000 0.5000
Cl1 Cl 0.37100(6) 0.53050(2) 0.67539(5)
N1 N 0.0803(2) 0.39845(6) 0.43588(18)
N2 N 0.0591(2) 0.28190(8) 0.3625(2)
N3 N 0.2166(2) 0.31504(6) 0.34821(18)
N4 N 0.8773(2) 0.09400(6) 0.38715(18)
N5 N 1.0826(2) 0.08792(8) 0.4837(2)
N6 N 0.9895(2) 0.04597(6) 0.22128(17)
C1 C -0.0168(2) 0.33474(9) 0.4161(2)
C2 C 0.2256(2) 0.38408(9) 0.3907(2)
C3 C 0.3451(3) 0.27711(11) 0.2867(2)
C4 C 0.4814(2) 0.22126(9) 0.4098(2)
C5 C 0.5966(2) 0.17813(9) 0.3343(2)
C6 C 0.7480(3) 0.12657(12) 0.4551(2)
C7 C 0.8246(2) 0.06849(10) 0.2329(2)
C8 C 1.1420(2) 0.05859(9) 0.3781(2)
H1 H -0.1283 0.3286 0.4384
H2 H 0.3199 0.4173 0.3889
H3 H 0.6912 0.0667 0.1457
H4 H 1.2785 0.0474 0.4092
H5 H 0.2565 0.2534 0.1808
H6 H 0.4309 0.3120 0.2675
H7 H 0.3976 0.1888 0.4379
H8 H 0.5799 0.2452 0.5118
H9 H 0.4973 0.1512 0.2381
H10 H 0.6691 0.2115 0.2964
H11 H 0.6744 0.0887 0.4797
H12 H 0.8352 0.1520 0.5586
Co1A Co 1.0000 0.0000 0.0000
Co1A_2 Co -1.0000 1.0000 1.0000
Cl1B Cl -0.37100(6) 0.46950(2) 0.32461(5)
N1B N -0.0803(2) 0.60155(6) 0.56412(18)
N2B N -0.0591(2) 0.71810(8) 0.6375(2)
N3B N -0.2166(2) 0.68496(6) 0.65179(18)
N4B N -0.8773(2) 0.90600(6) 0.61285(18)
N5B N -1.0826(2) 0.91208(8) 0.5163(2)
N6B N -0.9895(2) 0.95403(6) 0.77872(17)
N6A N 0.0105(2) 0.54597(6) 0.27872(17)
N6C N -0.0105(2) 0.45403(6) 0.72128(17)
C1B C 0.0168(2) 0.66526(9) 0.5839(2)
C2B C -0.2256(2) 0.61592(9) 0.6093(2)
C3B C -0.3451(3) 0.72289(11) 0.7133(2)
C4B C -0.4814(2) 0.77874(9) 0.5902(2)
C5B C -0.5966(2) 0.82187(9) 0.6657(2)
C6B C -0.7480(3) 0.87343(12) 0.5449(2)
C7B C -0.8246(2) 0.93151(10) 0.7671(2)
C8B C -1.1420(2) 0.94141(9) 0.6219(2)
H1B H 0.1283 0.6714 0.5616
H2B H -0.3199 0.5827 0.6111
H3B H -0.6912 0.9333 0.8543
H4B H -1.2785 0.9526 0.5908
H5B H -0.2565 0.7466 0.8192
H6B H -0.4309 0.6880 0.7325
H7B H -0.3976 0.8112 0.5621
H8B H -0.5799 0.7548 0.4882
H9B H -0.4973 0.8488 0.7619
H10B H -0.6691 0.7885 0.7036
H11B H -0.6744 0.9113 0.5203
H12B H -0.8352 0.8480 0.4414
loop_
_geom_bond_atom_site_label_1
_geom_bond_atom_site_label_2
_geom_bond_site_symmetry_1
_geom_bond_site_symmetry_2
Co1 Cl1 1_555 1_555
N1 Co1 1_555 1_555
N2 N3 1_555 1_555
N3 C2 1_555 1_555
N4 N5 1_555 1_555
N5 C8 1_555 1_555
N6 C7 1_555 1_555
C1 N1 1_555 1_555
C2 N1 1_555 1_555
C3 N3 1_555 1_555
C4 C3 1_555 1_555
C5 C4 1_555 1_555
C6 N4 1_555 1_555
C7 N4 1_555 1_555
C8 N6 1_555 1_555
H1 C1 1_555 1_555
H2 C2 1_555 1_555
H3 C7 1_555 1_555
H4 C8 1_555 1_555
H5 C3 1_555 1_555
H6 C3 1_555 1_555
H7 C4 1_555 1_555
H8 C4 1_555 1_555
H9 C5 1_555 1_555
H10 C5 1_555 1_555
H11 C6 1_555 1_555
H12 C6 1_555 1_555
Co1A N6 1_555 1_555
Co1A_2 N6B 1_555 1_555
Cl1B Co1 1_555 1_555
N1B Co1 1_555 1_555
N2B N3B 1_555 1_555
N3B C2B 1_555 1_555
N4B N5B 1_555 1_555
N5B C8B 1_555 1_555
N6B C7B 1_555 1_555
N6A Co1 1_555 1_555
N6C Co1 1_555 1_555
C1B N1B 1_555 1_555
C2B N1B 1_555 1_555
C3B N3B 1_555 1_555
C4B C3B 1_555 1_555
C5B C4B 1_555 1_555
C6B N4B 1_555 1_555
C7B N4B 1_555 1_555
C8B N6B 1_555 1_555
H1B C1B 1_555 1_555
H2B C2B 1_555 1_555
H3B C7B 1_555 1_555
H4B C8B 1_555 1_555
H5B C3B 1_555 1_555
H6B C3B 1_555 1_555
H7B C4B 1_555 1_555
H8B C4B 1_555 1_555
H9B C5B 1_555 1_555
H10B C5B 1_555 1_555
H11B C6B 1_555 1_555
H12B C6B 1_555 1_555
N2 C1 1_555 1_555
C5 C6 1_555 1_555
N2B C1B 1_555 1_555
C5B C6B 1_555 1_555

#END
