
#######################################################################
#
#                 Cambridge Crystallographic Data Centre
#                                CCDC 
#
#######################################################################
#
# If this CIF has been generated from an entry in the Cambridge 
# Structural Database, then it will include bibliographic, chemical, 
# crystal, experimental, refinement or atomic coordinate data resulting 
# from the CCDC's data processing and validation procedures.
#
#######################################################################

data_UKUYUV
_symmetry_cell_setting           triclinic
_symmetry_space_group_name_H-M   'P -1'
_symmetry_Int_Tables_number      2
_space_group_name_Hall           '-P 1'
loop_
_symmetry_equiv_pos_site_id
_symmetry_equiv_pos_as_xyz
1 x,y,z
2 -x,-y,-z
_cell_length_a                   8.9523(15)
_cell_length_b                   10.7106(15)
_cell_length_c                   11.6900(19)
_cell_angle_alpha                80.613(5)
_cell_angle_beta                 80.397(5)
_cell_angle_gamma                76.530(4)
_cell_volume                     1065.72
loop_
_atom_site_label
_atom_site_type_symbol
_atom_site_fract_x
_atom_site_fract_y
_atom_site_fract_z
Sm1 Sm 0.590676(16) -0.168893(13) 0.415377(13)
K1 K 0.25640(7) -0.43186(6) 0.50206(6)
O1 O 0.5271(2) -0.36979(19) 0.37285(18)
O2 O 0.6322(2) -0.5419(2) 0.2813(2)
O3 O 0.4004(3) -0.0136(2) 0.3060(2)
O4 O 0.2225(3) 0.0282(3) 0.1847(2)
O5 O 0.8239(2) -0.32531(19) 0.36826(18)
O6 O 1.0785(2) -0.3991(2) 0.32764(19)
O7 O 0.5892(2) 0.06054(19) 0.42437(18)
O8 O 0.7039(2) 0.1894(2) 0.4908(2)
O9 O 0.5906(2) -0.3400(2) 0.59208(19)
H1 H 0.512(3) -0.369(3) 0.617(3)
H2 H 0.619(4) -0.315(3) 0.646(2)
O10 O 0.7662(2) -0.1557(2) 0.55219(19)
H3 H 0.728(4) -0.110(3) 0.603(2)
H4 H 0.832(3) -0.217(2) 0.575(3)
O11 O -0.0219(2) -0.3557(2) 0.63781(19)
H5 H -0.062(2) -0.4195(16) 0.654(2)
H6 H -0.0034(16) -0.336(3) 0.6983(14)
N1 N 0.5827(3) -0.1985(2) 0.1876(2)
N2 N 0.8514(3) -0.0688(2) 0.3056(2)
C1 C 0.6590(3) -0.1168(3) 0.0911(3)
H7 H 0.6599 -0.1502 0.0168
H8 H 0.5946 -0.0279 0.0860
C2 C 0.8233(3) -0.1091(3) 0.1007(3)
H9 H 0.8800 -0.1967 0.1290
H10 H 0.8748 -0.0836 0.0214
C3 C 0.8387(4) -0.0153(3) 0.1811(3)
H11 H 0.7476 0.0577 0.1790
H12 H 0.9316 0.0207 0.1486
C4 C 0.6429(3) -0.3364(3) 0.1740(3)
H13 H 0.6021 -0.3571 0.1073
H14 H 0.7573 -0.3533 0.1566
C5 C 0.5963(3) -0.4226(3) 0.2839(3)
C6 C 0.4152(3) -0.1659(3) 0.1781(3)
H15 H 0.4001 -0.1590 0.0951
H16 H 0.3659 -0.2359 0.2230
C7 C 0.3386(3) -0.0391(3) 0.2248(3)
C8 C 0.9908(3) -0.1731(3) 0.3136(3)
H17 H 1.0617 -0.1651 0.2394
H18 H 1.0447 -0.1606 0.3769
C9 C 0.9607(3) -0.3090(3) 0.3370(3)
C10 C 0.8620(3) 0.0393(3) 0.3667(3)
H19 H 0.9369 0.0060 0.4236
H20 H 0.9029 0.1056 0.3086
C11 C 0.7098(3) 0.1025(3) 0.4304(3)
Sm1A Sm 0.409324(16) 0.168893(13) 0.584623(13)
K1A K 0.74360(7) -0.56814(6) 0.49794(6)
K1_2 K 1.25640(7) -0.43186(6) 0.50206(6)
K1A_2 K 0.74360(7) 0.43186(6) 0.49794(6)
O1A O 0.4729(2) -0.63021(19) 0.62715(18)
O2A O 0.3678(2) -0.4581(2) 0.7187(2)
O5A O 0.1761(2) -0.67469(19) 0.63174(18)
O6_2 O 0.0785(2) -0.3991(2) 0.32764(19)
O7A O 0.4108(2) -0.06054(19) 0.57563(18)
O8A O 0.2961(2) -0.1894(2) 0.5092(2)
O9A O 0.4094(2) -0.6600(2) 0.40792(19)
H1A H 0.488(3) -0.631(3) 0.383(3)
H2A H 0.381(4) -0.685(3) 0.354(2)
O13 O -0.2945(15) 0.472(2) 0.8652(9)
O14 O 0.4283(8) 0.2563(8) 0.1819(4)
O15 O -0.0315(7) 0.7209(4) 0.8570(4)
O16 O 0.2787(6) 0.6880(4) 0.8987(4)
O12? O -0.0042(11) 0.4517(7) 0.9744(7)
O17? O -0.3031(11) 0.427(2) 0.8704(8)
O18? O 0.345(2) 0.2867(15) 0.1894(10)
O19? O -0.1093(18) 0.7237(11) 0.8544(10)
O20? O 0.3562(18) 0.6908(12) 0.9118(12)
O21? O -0.233(2) 0.4679(12) 0.8878(13)
O22? O 0.391(2) 0.316(2) 0.1780(10)
O23? O 0.1135(13) 0.6822(11) 0.8256(10)
O24? O 0.3248(16) 0.7248(14) 0.9630(15)
loop_
_geom_bond_atom_site_label_1
_geom_bond_atom_site_label_2
_geom_bond_site_symmetry_1
_geom_bond_site_symmetry_2
Sm1 O1 1_555 1_555
K1 O1 1_555 1_555
O1 C5 1_555 1_555
O2 C5 1_555 1_555
O3 Sm1 1_555 1_555
O4 C7 1_555 1_555
O5 Sm1 1_555 1_555
O6 C9 1_555 1_555
O7 Sm1 1_555 1_555
O8 C11 1_555 1_555
O9 Sm1 1_555 1_555
H1 O9 1_555 1_555
H2 O9 1_555 1_555
O10 Sm1 1_555 1_555
H3 O10 1_555 1_555
H4 O10 1_555 1_555
O11 K1 1_555 1_555
H5 O11 1_555 1_555
H6 O11 1_555 1_555
N1 Sm1 1_555 1_555
N2 Sm1 1_555 1_555
C1 N1 1_555 1_555
H7 C1 1_555 1_555
H8 C1 1_555 1_555
C2 C1 1_555 1_555
H9 C2 1_555 1_555
H10 C2 1_555 1_555
C3 N2 1_555 1_555
H11 C3 1_555 1_555
H12 C3 1_555 1_555
C4 N1 1_555 1_555
H13 C4 1_555 1_555
H14 C4 1_555 1_555
C5 C4 1_555 1_555
C6 N1 1_555 1_555
H15 C6 1_555 1_555
H16 C6 1_555 1_555
C7 O3 1_555 1_555
C8 N2 1_555 1_555
H17 C8 1_555 1_555
H18 C8 1_555 1_555
C9 O5 1_555 1_555
C10 N2 1_555 1_555
H19 C10 1_555 1_555
H20 C10 1_555 1_555
C11 O7 1_555 1_555
Sm1A O7 1_555 1_555
K1A O1 1_555 1_555
K1_2 O6 1_555 1_555
K1A_2 O8 1_555 1_555
O1A K1 1_555 1_555
O2A K1 1_555 1_555
O5A K1 1_555 1_555
O6_2 K1 1_555 1_555
O7A Sm1 1_555 1_555
O8A Sm1 1_555 1_555
O9A K1 1_555 1_555
H1A O9A 1_555 1_555
H2A O9A 1_555 1_555
K1 O8A 1_555 1_555
O2 K1A 1_555 1_555
O5 K1A 1_555 1_555
O8 Sm1A 1_555 1_555
O9 K1A 1_555 1_555
C2 C3 1_555 1_555
C6 C7 1_555 1_555
C8 C9 1_555 1_555
C10 C11 1_555 1_555
Sm1A O7A 1_555 1_555
K1A O1A 1_555 1_555

#END
