
#######################################################################
#
#                 Cambridge Crystallographic Data Centre
#                                CCDC 
#
#######################################################################
#
# If this CIF has been generated from an entry in the Cambridge 
# Structural Database, then it will include bibliographic, chemical, 
# crystal, experimental, refinement or atomic coordinate data resulting 
# from the CCDC's data processing and validation procedures.
#
#######################################################################

data_UKUYAB01
_symmetry_cell_setting           monoclinic
_symmetry_space_group_name_H-M   'P 21/n'
_symmetry_Int_Tables_number      14
_space_group_name_Hall           '-P 2yn'
loop_
_symmetry_equiv_pos_site_id
_symmetry_equiv_pos_as_xyz
1 x,y,z
2 1/2-x,1/2+y,1/2-z
3 -x,-y,-z
4 1/2+x,1/2-y,1/2+z
_cell_length_a                   7.306(2)
_cell_length_b                   18.481(5)
_cell_length_c                   8.489(3)
_cell_angle_alpha                90
_cell_angle_beta                 112.16(4)
_cell_angle_gamma                90
_cell_volume                     1061.54
loop_
_atom_site_label
_atom_site_type_symbol
_atom_site_fract_x
_atom_site_fract_y
_atom_site_fract_z
Co1 Co 1.5000 0.0000 0.5000
C1 C 1.0920(3) 0.06830(12) 0.2649(3)
H1 H 1.0450 0.0668 0.3525
C2 C 1.2669(3) 0.05824(11) 0.1200(3)
H2 H 1.3729 0.0471 0.0890
C3 C 0.7934(3) 0.12647(13) 0.0404(3)
H3 H 0.6939 0.0887 0.0094
H4 H 0.7789 0.1533 -0.0618
C4 C 0.7602(3) 0.17634(11) 0.1662(3)
H5 H 0.8716 0.2091 0.2109
H6 H 0.7543 0.1481 0.2604
C5 C 0.5706(3) 0.22050(11) 0.0891(3)
H7 H 0.5696 0.2453 -0.0119
H8 H 0.4573 0.1884 0.0559
C6 C 0.3330(3) 0.38327(12) 0.1101(3)
H9 H 0.4291 0.4164 0.1109
C7 C 0.5557(2) 0.27538(9) 0.2162(2)
H10 H 0.5723 0.2509 0.3217
H11 H 0.6619 0.3103 0.2400
C8 C 0.0635(2) 0.33370(9) 0.0861(2)
H12 H -0.0703 0.3277 0.0640
Cl1 Cl 1.30082(7) 0.02977(3) 0.67474(6)
N1 N 1.2696(2) 0.04563(9) 0.2778(2)
N2 N 1.1025(3) 0.08750(10) 0.0135(2)
N3 N 0.9910(2) 0.09331(9) 0.1098(2)
N4 N 0.1420(2) 0.39781(9) 0.0648(2)
N5 N 0.1929(3) 0.28069(10) 0.1408(3)
N6 N 0.3656(2) 0.31378(10) 0.1544(2)
C1B C 1.9080(3) -0.06830(12) 0.7351(3)
H1B H 1.9550 -0.0668 0.6475
C2B C 1.7331(3) -0.05824(11) 0.8800(3)
H2B H 1.6271 -0.0471 0.9110
C3B C 2.2066(3) -0.12647(13) 0.9596(3)
H3B H 2.3061 -0.0887 0.9906
H4B H 2.2211 -0.1533 1.0618
C4B C 2.2398(3) -0.17634(11) 0.8338(3)
H5B H 2.1284 -0.2091 0.7891
H6B H 2.2457 -0.1481 0.7396
C5B C 2.4294(3) -0.22050(11) 0.9109(3)
H7B H 2.4304 -0.2453 1.0119
H8B H 2.5427 -0.1884 0.9441
C6B C 2.6670(3) -0.38327(12) 0.8899(3)
H9B H 2.5709 -0.4164 0.8891
C7B C 2.4443(2) -0.27538(9) 0.7838(2)
H10B H 2.4277 -0.2509 0.6783
H11B H 2.3381 -0.3103 0.7600
C8B C 2.9365(2) -0.33370(9) 0.9139(2)
H12B H 3.0703 -0.3277 0.9360
Cl1B Cl 1.69918(7) -0.02977(3) 0.32526(6)
N1B N 1.7304(2) -0.04563(9) 0.7222(2)
N2B N 1.8975(3) -0.08750(10) 0.9865(2)
N3B N 2.0090(2) -0.09331(9) 0.8902(2)
N4B N 2.8580(2) -0.39781(9) 0.9352(2)
N5B N 2.8071(3) -0.28069(10) 0.8592(3)
N6B N 2.6344(2) -0.31378(10) 0.8456(2)
Co1A Co 0.0000 0.5000 0.0000
Co1A_2 Co 3.0000 -0.5000 1.0000
N4A N 1.3580(2) -0.10219(9) 0.4352(2)
N4C N 1.6420(2) 0.10219(9) 0.5648(2)
loop_
_geom_bond_atom_site_label_1
_geom_bond_atom_site_label_2
_geom_bond_site_symmetry_1
_geom_bond_site_symmetry_2
Co1 Cl1 1_555 1_555
C1 H1 1_555 1_555
C2 H2 1_555 1_555
C3 H3 1_555 1_555
H4 C3 1_555 1_555
C4 C3 1_555 1_555
H5 C4 1_555 1_555
H6 C4 1_555 1_555
C5 C4 1_555 1_555
H7 C5 1_555 1_555
H8 C5 1_555 1_555
C6 H9 1_555 1_555
C7 C5 1_555 1_555
H10 C7 1_555 1_555
H11 C7 1_555 1_555
C8 H12 1_555 1_555
N1 Co1 1_555 1_555
N2 C2 1_555 1_555
N3 C1 1_555 1_555
N4 C6 1_555 1_555
N5 C8 1_555 1_555
N6 C6 1_555 1_555
C1B H1B 1_555 1_555
C2B H2B 1_555 1_555
C3B H3B 1_555 1_555
H4B C3B 1_555 1_555
C4B C3B 1_555 1_555
H5B C4B 1_555 1_555
H6B C4B 1_555 1_555
C5B C4B 1_555 1_555
H7B C5B 1_555 1_555
H8B C5B 1_555 1_555
C6B H9B 1_555 1_555
C7B C5B 1_555 1_555
H10B C7B 1_555 1_555
H11B C7B 1_555 1_555
C8B H12B 1_555 1_555
Cl1B Co1 1_555 1_555
N1B Co1 1_555 1_555
N2B C2B 1_555 1_555
N3B C1B 1_555 1_555
N4B C6B 1_555 1_555
N5B C8B 1_555 1_555
N6B C6B 1_555 1_555
Co1A N4 1_555 1_555
Co1A_2 N4B 1_555 1_555
N4A Co1 1_555 1_555
N4C Co1 1_555 1_555
C1 N1 1_555 1_555
C2 N1 1_555 1_555
C3 N3 1_555 1_555
C7 N6 1_555 1_555
C8 N4 1_555 1_555
N2 N3 1_555 1_555
N5 N6 1_555 1_555
C1B N1B 1_555 1_555
C2B N1B 1_555 1_555
C3B N3B 1_555 1_555
C7B N6B 1_555 1_555
C8B N4B 1_555 1_555
N2B N3B 1_555 1_555
N5B N6B 1_555 1_555

#END
