
#######################################################################
#
#                 Cambridge Crystallographic Data Centre
#                                CCDC 
#
#######################################################################
#
# If this CIF has been generated from an entry in the Cambridge 
# Structural Database, then it will include bibliographic, chemical, 
# crystal, experimental, refinement or atomic coordinate data resulting 
# from the CCDC's data processing and validation procedures.
#
#######################################################################

data_ULACIT
_symmetry_cell_setting           triclinic
_symmetry_space_group_name_H-M   'P -1'
_symmetry_Int_Tables_number      2
_space_group_name_Hall           '-P 1'
loop_
_symmetry_equiv_pos_site_id
_symmetry_equiv_pos_as_xyz
1 x,y,z
2 -x,-y,-z
_cell_length_a                   6.9671(2)
_cell_length_b                   7.3089(3)
_cell_length_c                   12.5097(3)
_cell_angle_alpha                78.7580(10)
_cell_angle_beta                 89.542(2)
_cell_angle_gamma                65.1970(10)
_cell_volume                     565.209
loop_
_atom_site_label
_atom_site_type_symbol
_atom_site_fract_x
_atom_site_fract_y
_atom_site_fract_z
Fe1 Fe 0.0000 0.5000 0.0000
Fe2 Fe -0.5000 1.0000 0.0000
O1 O -0.2052(3) 0.4224(2) 0.10331(13)
O2 O -0.5322(3) 0.7836(3) 0.12770(15)
O3 O -0.7955(2) 0.4196(3) 0.14457(12)
O4 O -0.1534(3) 0.8266(3) 0.02324(15)
O5 O -0.4897(3) 0.1907(3) 0.09939(14)
O6 O -0.7729(3) 0.2847(4) 0.5590(2)
O7 O -0.4702(4) 0.2074(4) 0.6561(2)
O8 O -0.0081(3) 0.0839(3) 0.1558(2)
C1 C -0.4855(3) 0.2833(3) 0.2677(2)
C2 C -0.5997(3) 0.2998(3) 0.1624(2)
C3 C -0.5847(4) 0.2876(3) 0.3642(2)
H1 H -0.7269(4) 0.3119(3) 0.3629(2)
C4 C -0.2711(3) 0.2500(3) 0.2702(2)
C5 C -0.1624(4) 0.2236(4) 0.3691(2)
H2 H -0.0213(4) 0.2031(4) 0.3707(2)
C6 C -0.4731(4) 0.2559(4) 0.4636(2)
C7 C -0.1550(3) 0.2500(3) 0.1679(2)
C8 C -0.2636(4) 0.2276(4) 0.4651(2)
H3 H -0.1906(4) 0.2112(4) 0.5308(2)
C9 C -0.5713(4) 0.2473(4) 0.5695(2)
H4 H -0.5450(56) 0.8045(55) 0.1838(31)
H5 H -0.4454(72) 0.6621(73) 0.1282(35)
H6 H -0.1004(55) 0.8789(55) -0.0330(30)
H7 H -0.1099(60) 0.8451(61) 0.0838(33)
O1A O 0.2052(3) 0.5776(2) -0.10331(13)
O3A O 0.7955(2) 0.5804(3) -0.14457(12)
O5A O 0.4897(3) 0.8093(3) -0.09939(14)
O6A O 0.7729(3) 0.7153(4) -0.5590(2)
O7A O 0.4702(4) 0.7926(4) -0.6561(2)
O8A O 0.0081(3) 0.9161(3) -0.1558(2)
C1A C 0.4855(3) 0.7167(3) -0.2677(2)
C2A C 0.5997(3) 0.7002(3) -0.1624(2)
C3A C 0.5847(4) 0.7124(3) -0.3642(2)
H1A H 0.7269(4) 0.6881(3) -0.3629(2)
C4A C 0.2711(3) 0.7500(3) -0.2702(2)
C5A C 0.1624(4) 0.7764(4) -0.3691(2)
H2A H 0.0213(4) 0.7969(4) -0.3707(2)
C6A C 0.4731(4) 0.7441(4) -0.4636(2)
C7A C 0.1550(3) 0.7500(3) -0.1679(2)
C8A C 0.2636(4) 0.7724(4) -0.4651(2)
H3A H 0.1906(4) 0.7888(4) -0.5308(2)
C9A C 0.5713(4) 0.7527(4) -0.5695(2)
O4A O 0.1534(3) 0.1734(3) -0.02324(15)
H6A H 0.1004(55) 0.1211(55) 0.0330(30)
H7A H 0.1099(60) 0.1549(61) -0.0838(33)
O2A O -0.4678(3) 1.2164(3) -0.12770(15)
H4A H -0.4550(56) 1.1955(55) -0.1838(31)
H5A H -0.5546(72) 1.3379(73) -0.1282(35)
O3_2 O 0.2045(2) 0.4196(3) 0.14457(12)
O3A_2 O -0.2045(2) 0.5804(3) -0.14457(12)
O4A_2 O -0.8466(3) 1.1734(3) -0.02324(15)
O5_2 O -0.4897(3) 1.1907(3) 0.09939(14)
O5A_2 O -0.5103(3) 0.8093(3) -0.09939(14)
Fe1_2 Fe -1.0000 0.5000 0.0000
Fe2_2 Fe -0.5000 0.0000 0.0000
Fe1_3 Fe 1.0000 0.5000 0.0000
Fe2_3 Fe 0.5000 1.0000 0.0000
Fe2_4 Fe 0.5000 0.0000 0.0000
H6A_2 H -0.8996(55) 1.1211(55) 0.0330(30)
H7A_2 H -0.8901(60) 1.1549(61) -0.0838(33)
O9 O -0.0228(4) -0.2726(3) 0.2614(2)
loop_
_geom_bond_atom_site_label_1
_geom_bond_atom_site_label_2
_geom_bond_site_symmetry_1
_geom_bond_site_symmetry_2
Fe1 O1 1_555 1_555
Fe2 O2 1_555 1_555
O1 C7 1_555 1_555
O2 H4 1_555 1_555
O3 C2 1_555 1_555
O4 Fe1 1_555 1_555
O5 C2 1_555 1_555
O6 C9 1_555 1_555
O7 C9 1_555 1_555
O8 C7 1_555 1_555
C1 C2 1_555 1_555
C3 C1 1_555 1_555
H1 C3 1_555 1_555
C4 C1 1_555 1_555
C5 C4 1_555 1_555
H2 C5 1_555 1_555
C6 C3 1_555 1_555
C7 C4 1_555 1_555
C8 C5 1_555 1_555
H3 C8 1_555 1_555
C9 C6 1_555 1_555
H5 O2 1_555 1_555
H6 O4 1_555 1_555
H7 O4 1_555 1_555
O1A Fe1 1_555 1_555
O3A C2A 1_555 1_555
O5A C2A 1_555 1_555
O6A C9A 1_555 1_555
O7A C9A 1_555 1_555
O8A C7A 1_555 1_555
C1A C2A 1_555 1_555
C3A C1A 1_555 1_555
H1A C3A 1_555 1_555
C4A C1A 1_555 1_555
C5A C4A 1_555 1_555
H2A C5A 1_555 1_555
C6A C3A 1_555 1_555
C7A O1A 1_555 1_555
C8A C5A 1_555 1_555
H3A C8A 1_555 1_555
C9A C6A 1_555 1_555
O4A Fe1 1_555 1_555
H6A O4A 1_555 1_555
H7A O4A 1_555 1_555
O2A Fe2 1_555 1_555
H4A O2A 1_555 1_555
H5A O2A 1_555 1_555
O3_2 Fe1 1_555 1_555
O3A_2 Fe1 1_555 1_555
O4A_2 Fe2 1_555 1_555
O5_2 Fe2 1_555 1_555
O5A_2 Fe2 1_555 1_555
Fe1_2 O3 1_555 1_555
Fe2_2 O5 1_555 1_555
Fe1_3 O3A 1_555 1_555
Fe2_3 O5A 1_555 1_555
Fe2_4 O4A 1_555 1_555
H6A_2 O4A_2 1_555 1_555
H7A_2 O4A_2 1_555 1_555
Fe2 O4 1_555 1_555
C6 C8 1_555 1_555
C4A C7A 1_555 1_555
C6A C8A 1_555 1_555

#END
