
#######################################################################
#
#                 Cambridge Crystallographic Data Centre
#                                CCDC 
#
#######################################################################
#
# If this CIF has been generated from an entry in the Cambridge 
# Structural Database, then it will include bibliographic, chemical, 
# crystal, experimental, refinement or atomic coordinate data resulting 
# from the CCDC's data processing and validation procedures.
#
#######################################################################

data_ULACOZ
_symmetry_cell_setting           monoclinic
_symmetry_space_group_name_H-M   'C 2/c'
_symmetry_Int_Tables_number      15
_space_group_name_Hall           '-C 2yn'
loop_
_symmetry_equiv_pos_site_id
_symmetry_equiv_pos_as_xyz
1 x,y,z
2 1/2+x,1/2+y,z
3 x,-y,1/2+z
4 1/2+x,1/2-y,1/2+z
5 -x,-y,-z
6 1/2-x,1/2-y,-z
7 -x,y,1/2-z
8 1/2-x,1/2+y,1/2-z
_cell_length_a                   16.788(2)
_cell_length_b                   11.5719(6)
_cell_length_c                   11.3864(7)
_cell_angle_alpha                90
_cell_angle_beta                 123.671(8)
_cell_angle_gamma                90
_cell_volume                     1840.92
loop_
_atom_site_label
_atom_site_type_symbol
_atom_site_fract_x
_atom_site_fract_y
_atom_site_fract_z
Ag1 Ag 0.385940(12) 0.054834(14) 0.184913(17)
N1 N 0.37869(13) 0.21387(15) 0.08152(18)
C1 C 0.37588(14) 0.21805(16) -0.0393(2)
C2 C 0.37185(19) 0.32272(19) -0.1009(3)
H1 H 0.3701 0.3245 -0.1840
C3 C 0.3705(2) 0.4244(2) -0.0389(3)
H2 H 0.3687 0.4952 -0.0791
C4 C 0.3719(2) 0.4203(2) 0.0829(3)
H3 H 0.3700 0.4878 0.1256
C5 C 0.37630(19) 0.3139(2) 0.1401(3)
H4 H 0.3777 0.3109 0.2229
C6 C 0.37589(16) 0.10236(17) -0.1005(2)
H5 H 0.4270 0.0557 -0.0259
H6 H 0.3159 0.0637 -0.1322
N2 N 0.38803(15) 0.10657(16) -0.21854(19)
H7 H 0.3387(19) 0.144(3) -0.289(3)
H8 H 0.440(2) 0.146(3) -0.198(3)
N2B N 0.38803(15) -0.10657(16) 0.28146(19)
Ag1B Ag 0.385940(12) -0.054834(14) -0.315087(17)
H7B H 0.3387(19) -0.144(3) 0.211(3)
H8B H 0.440(2) -0.146(3) 0.302(3)
B1 B 0.35698(18) -0.2190(2) -0.0380(2)
F1 F 0.41111(12) -0.16433(14) -0.08121(19)
F2 F 0.31087(11) -0.31286(12) -0.12515(16)
F3 F 0.29086(12) -0.14173(14) -0.04679(18)
F4 F 0.41874(12) -0.25498(17) 0.09976(15)
loop_
_geom_bond_atom_site_label_1
_geom_bond_atom_site_label_2
_geom_bond_site_symmetry_1
_geom_bond_site_symmetry_2
Ag1 N1 1_555 1_555
N1 C1 1_555 1_555
C1 C2 1_555 1_555
C2 H1 1_555 1_555
C3 C2 1_555 1_555
H2 C3 1_555 1_555
C4 C3 1_555 1_555
H3 C4 1_555 1_555
C5 N1 1_555 1_555
H4 C5 1_555 1_555
C6 C1 1_555 1_555
H5 C6 1_555 1_555
H6 C6 1_555 1_555
N2 C6 1_555 1_555
H7 N2 1_555 1_555
H8 N2 1_555 1_555
B1 F1 1_555 1_555
F2 B1 1_555 1_555
F3 B1 1_555 1_555
F4 B1 1_555 1_555
N2B Ag1 1_555 1_555
Ag1B N2 1_555 1_555
H7B N2B 1_555 1_555
H8B N2B 1_555 1_555
C4 C5 1_555 1_555

#END
