
#######################################################################
#
#                 Cambridge Crystallographic Data Centre
#                                CCDC 
#
#######################################################################
#
# If this CIF has been generated from an entry in the Cambridge 
# Structural Database, then it will include bibliographic, chemical, 
# crystal, experimental, refinement or atomic coordinate data resulting 
# from the CCDC's data processing and validation procedures.
#
#######################################################################

data_ULADAM
_symmetry_cell_setting           triclinic
_symmetry_space_group_name_H-M   'P -1'
_symmetry_Int_Tables_number      2
_space_group_name_Hall           '-P 1'
loop_
_symmetry_equiv_pos_site_id
_symmetry_equiv_pos_as_xyz
1 x,y,z
2 -x,-y,-z
_cell_length_a                   10.4482(7)
_cell_length_b                   11.1468(9)
_cell_length_c                   12.2720(11)
_cell_angle_alpha                81.018(7)
_cell_angle_beta                 80.868(6)
_cell_angle_gamma                80.977(6)
_cell_volume                     1380.99
loop_
_atom_site_label
_atom_site_type_symbol
_atom_site_fract_x
_atom_site_fract_y
_atom_site_fract_z
Ag1 Ag 0.17937(5) 0.19846(5) 0.40328(4)
N1 N 0.2003(4) 0.1248(4) 0.2380(4)
C1 C 0.0955(4) 0.1466(5) 0.1847(4)
H1 H 0.0143 0.1664 0.2260
C2 C 0.0996(5) 0.1418(4) 0.0721(5)
C3 C 0.2217(6) 0.1130(6) 0.0123(6)
H2 H 0.2305 0.1109 -0.0640
C4 C 0.3292(6) 0.0877(7) 0.0670(8)
H3 H 0.4113 0.0658 0.0279
C5 C 0.3172(6) 0.0945(6) 0.1779(7)
H4 H 0.3917 0.0777 0.2132
C6 C -0.0247(5) 0.1679(6) 0.0193(5)
H5 H -0.0011 0.1700 -0.0606
H6 H -0.0745 0.1000 0.0454
N2 N -0.1077(5) 0.2784(5) 0.0400(5)
H7 H -0.133(6) 0.278(4) 0.113(2)
H8 H -0.063(4) 0.3413(19) 0.020(5)
N3 N -0.3187(4) 0.2585(5) 0.8212(4)
C7 C -0.2088(5) 0.2348(7) 0.7516(5)
H9 H -0.1304 0.2304 0.7798
C8 C -0.2003(6) 0.2167(8) 0.6444(5)
C9 C -0.3191(8) 0.2256(10) 0.6038(6)
H10 H -0.3207 0.2170 0.5299
C10 C -0.4299(7) 0.2464(10) 0.6720(6)
H11 H -0.5093 0.2492 0.6458
C11 C -0.4298(5) 0.2635(7) 0.7786(6)
H12 H -0.5093 0.2793 0.8237
C12 C -0.0743(9) 0.1680(11) 0.5816(7)
H13 H -0.0109 0.1403 0.6330
H14 H -0.0872 0.0976 0.5491
N4 N -0.0288(9) 0.2463(11) 0.5050(10)
H15 H 0.037(12) 0.285(12) 0.516(8)
H16 H -0.077(5) 0.305(10) 0.467(10)
Ag2 Ag -0.31336(4) 0.30921(4) -0.00704(3)
N5 N 0.4943(4) 0.3655(4) 0.0965(3)
C13 C 0.4905(5) 0.3680(5) 0.2062(4)
H17 H 0.5687 0.3479 0.2362
C14 C 0.3768(5) 0.3988(5) 0.2774(4)
C15 C 0.2596(5) 0.4301(5) 0.2293(5)
H18 H 0.1809 0.4529 0.2729
C16 C 0.2635(5) 0.4266(5) 0.1182(5)
H19 H 0.1869 0.4452 0.0857
C17 C 0.3803(5) 0.3955(5) 0.0547(4)
H20 H 0.3811 0.3951 -0.0211
C18 C 0.3791(7) 0.3917(6) 0.4011(5)
H21 H 0.4662 0.3997 0.4145
H22 H 0.3188 0.4586 0.4297
N6 N 0.3420(5) 0.2752(5) 0.4586(4)
H23 H 0.405(4) 0.217(2) 0.448(4)
H24 H 0.321(6) 0.280(3) 0.5299(17)
Ag2_2 Ag -0.31336(4) 0.30921(4) 0.99296(3)
N3_2 N -0.3187(4) 0.2585(5) -0.1788(4)
N5_2 N -0.5057(4) 0.3655(4) 0.0965(3)
Ag2_3 Ag 0.68664(4) 0.30921(4) -0.00704(3)
P1 P -0.84411(13) 0.46243(14) -0.25712(13)
F1 F -0.9566(12) 0.3964(17) -0.1981(16)
F3 F -0.776(2) 0.459(2) -0.1611(13)
F5 F -0.7556(14) 0.3479(16) -0.2894(18)
F7 F -0.9402(11) 0.5810(13) -0.2524(16)
F9 F -0.899(2) 0.4712(17) -0.3725(12)
F11 F -0.7375(17) 0.539(2) -0.3340(18)
P2 P -0.29031(14) 0.03825(12) 0.31031(12)
F13 F -0.3348(9) -0.0878(5) 0.3244(7)
F14 F -0.2375(7) 0.0054(5) 0.4264(4)
F15 F -0.2377(6) 0.1654(5) 0.2964(5)
F16 F -0.4196(5) 0.1040(6) 0.3659(5)
F17 F -0.3434(6) 0.0745(6) 0.1956(4)
F18 F -0.1569(5) -0.0214(5) 0.2477(4)
F2? F -0.9414(15) 0.4714(18) -0.1422(13)
F4? F -0.7490(14) 0.508(2) -0.1925(17)
F6? F -0.804(3) 0.3278(13) -0.224(3)
F8? F -0.882(3) 0.6061(13) -0.2731(15)
F10? F -0.950(2) 0.435(3) -0.316(3)
F12? F -0.749(2) 0.457(3) -0.3585(11)
loop_
_geom_bond_atom_site_label_1
_geom_bond_atom_site_label_2
_geom_bond_site_symmetry_1
_geom_bond_site_symmetry_2
Ag1 N1 1_555 1_555
N1 C1 1_555 1_555
C1 H1 1_555 1_555
C2 C1 1_555 1_555
C3 C2 1_555 1_555
H2 C3 1_555 1_555
C4 C3 1_555 1_555
H3 C4 1_555 1_555
C5 N1 1_555 1_555
H4 C5 1_555 1_555
C6 C2 1_555 1_555
H5 C6 1_555 1_555
H6 C6 1_555 1_555
N2 C6 1_555 1_555
H7 N2 1_555 1_555
H8 N2 1_555 1_555
N3 C7 1_555 1_555
C7 H9 1_555 1_555
C8 C7 1_555 1_555
C9 C8 1_555 1_555
H10 C9 1_555 1_555
C10 C9 1_555 1_555
H11 C10 1_555 1_555
C11 N3 1_555 1_555
H12 C11 1_555 1_555
C12 C8 1_555 1_555
H13 C12 1_555 1_555
H14 C12 1_555 1_555
N4 Ag1 1_555 1_555
H15 N4 1_555 1_555
H16 N4 1_555 1_555
Ag2 N2 1_555 1_555
N5 C13 1_555 1_555
C13 H17 1_555 1_555
C14 C13 1_555 1_555
C15 C14 1_555 1_555
H18 C15 1_555 1_555
C16 C15 1_555 1_555
H19 C16 1_555 1_555
C17 N5 1_555 1_555
H20 C17 1_555 1_555
C18 C14 1_555 1_555
H21 C18 1_555 1_555
H22 C18 1_555 1_555
N6 Ag1 1_555 1_555
H23 N6 1_555 1_555
H24 N6 1_555 1_555
P1 F1 1_555 1_555
F3 P1 1_555 1_555
F5 P1 1_555 1_555
F7 P1 1_555 1_555
F9 P1 1_555 1_555
F11 P1 1_555 1_555
P2 F13 1_555 1_555
F14 P2 1_555 1_555
F15 P2 1_555 1_555
F16 P2 1_555 1_555
F17 P2 1_555 1_555
F18 P2 1_555 1_555
Ag2_2 N3 1_555 1_555
N3_2 Ag2 1_555 1_555
N5_2 Ag2 1_555 1_555
Ag2_3 N5 1_555 1_555
C4 C5 1_555 1_555
C10 C11 1_555 1_555
C12 N4 1_555 1_555
C16 C17 1_555 1_555
C18 N6 1_555 1_555

#END
