
#######################################################################
#
#                 Cambridge Crystallographic Data Centre
#                                CCDC 
#
#######################################################################
#
# If this CIF has been generated from an entry in the Cambridge 
# Structural Database, then it will include bibliographic, chemical, 
# crystal, experimental, refinement or atomic coordinate data resulting 
# from the CCDC's data processing and validation procedures.
#
#######################################################################

data_ULADIU
_symmetry_cell_setting           monoclinic
_symmetry_space_group_name_H-M   'P 21/m'
_symmetry_Int_Tables_number      11
_space_group_name_Hall           '-P 2yb'
loop_
_symmetry_equiv_pos_site_id
_symmetry_equiv_pos_as_xyz
1 x,y,z
2 x,1/2-y,z
3 -x,-y,-z
4 -x,1/2+y,-z
_cell_length_a                   5.209(13)
_cell_length_b                   14.3950(17)
_cell_length_c                   7.0149(14)
_cell_angle_alpha                90
_cell_angle_beta                 96.538(14)
_cell_angle_gamma                90
_cell_volume                     522.581
loop_
_atom_site_label
_atom_site_type_symbol
_atom_site_fract_x
_atom_site_fract_y
_atom_site_fract_z
Ag1 Ag 0.15309(7) 0.7500 0.19486(5)
N1 N -0.1438(10) 0.7500 0.3828(7)
C1 C -0.2362(8) 0.6705(3) 0.4453(6)
H1 H -0.1743 0.6148 0.4015
C2 C -0.4202(9) 0.6678(3) 0.5724(6)
H2 H -0.4817 0.6111 0.6117
C3 C -0.5121(10) 0.7500 0.6409(7)
C4 C -0.7054(11) 0.7500 0.7848(7)
H3 H -0.8147 0.8045 0.7647
H4 H -0.8147 0.6955 0.7647
N2 N -0.5772(9) 0.7500 0.9858(7)
H5 H -0.465(9) 0.704(3) 1.001(9)
C2A C -0.4202(9) 0.8322(3) 0.5724(6)
C1A C -0.2362(8) 0.8295(3) 0.4453(6)
H1A H -0.1743 0.8852 0.4015
H2A H -0.4817 0.8889 0.6117
H5A H -0.465(9) 0.796(3) 1.001(9)
N2_2 N 0.4228(9) 0.7500 -0.0142(7)
Ag1_2 Ag -0.84691(7) 0.7500 1.19486(5)
H5_2 H 0.535(9) 0.704(3) 0.001(9)
H5A_2 H 0.535(9) 0.796(3) 0.001(9)
P1 P 0.0000 0.5000 1.0000
F1 F 0.1425(6) 0.40142(17) 1.0108(5)
F2 F -0.227(3) 0.4569(11) 0.868(4)
F4 F 0.164(3) 0.5314(13) 0.837(3)
F1B F -0.1425(6) 0.59858(17) 0.9892(5)
F2B F 0.227(3) 0.5431(11) 1.132(4)
F4B F -0.164(3) 0.4686(13) 1.163(3)
F3? F -0.201(4) 0.4594(14) 0.840(3)
F5? F 0.140(5) 0.5255(14) 0.825(2)
loop_
_geom_bond_atom_site_label_1
_geom_bond_atom_site_label_2
_geom_bond_site_symmetry_1
_geom_bond_site_symmetry_2
Ag1 N1 1_555 1_555
P1 F1 1_555 1_555
F2 P1 1_555 1_555
F4 P1 1_555 1_555
N1 C1 1_555 1_555
C1 H1 1_555 1_555
C2 C1 1_555 1_555
H2 C2 1_555 1_555
C3 C2 1_555 1_555
C4 C3 1_555 1_555
H3 C4 1_555 1_555
H4 C4 1_555 1_555
N2 C4 1_555 1_555
H5 N2 1_555 1_555
F1B P1 1_555 1_555
F2B P1 1_555 1_555
F4B P1 1_555 1_555
C2A C3 1_555 1_555
C1A N1 1_555 1_555
H1A C1A 1_555 1_555
H2A C2A 1_555 1_555
H5A N2 1_555 1_555
N2_2 Ag1 1_555 1_555
Ag1_2 N2 1_555 1_555
H5_2 N2_2 1_555 1_555
H5A_2 N2_2 1_555 1_555
C2A C1A 1_555 1_555

#END
