
#######################################################################
#
#                 Cambridge Crystallographic Data Centre
#                                CCDC 
#
#######################################################################
#
# If this CIF has been generated from an entry in the Cambridge 
# Structural Database, then it will include bibliographic, chemical, 
# crystal, experimental, refinement or atomic coordinate data resulting 
# from the CCDC's data processing and validation procedures.
#
#######################################################################

data_ULAFUI
_symmetry_cell_setting           monoclinic
_symmetry_space_group_name_H-M   'P 21/c'
_symmetry_Int_Tables_number      14
_space_group_name_Hall           '-P 2ybc'
loop_
_symmetry_equiv_pos_site_id
_symmetry_equiv_pos_as_xyz
1 x,y,z
2 x,1/2-y,1/2+z
3 -x,-y,-z
4 -x,1/2+y,1/2-z
_cell_length_a                   6.6846(4)
_cell_length_b                   27.1113(15)
_cell_length_c                   8.6802(5)
_cell_angle_alpha                90
_cell_angle_beta                 94.1080(10)
_cell_angle_gamma                90
_cell_volume                     1569.06
loop_
_atom_site_label
_atom_site_type_symbol
_atom_site_fract_x
_atom_site_fract_y
_atom_site_fract_z
Ag1 Ag 0.30874(3) 0.387128(7) 0.09450(3)
C1 C 0.4169(5) 0.27742(11) 0.1577(4)
H1 H 0.2965 0.2734 0.0939
C2 C 0.5118(5) 0.23594(11) 0.2186(4)
H2 H 0.4571 0.2041 0.1973
C3 C 0.6874(4) 0.24125(10) 0.3108(3)
C4 C 0.7615(4) 0.28840(11) 0.3398(3)
H3 H 0.8819 0.2934 0.4028
C5 C 0.6559(4) 0.32782(10) 0.2749(3)
H4 H 0.7064 0.3601 0.2955
C6 C 0.7905(4) 0.19807(10) 0.3785(3)
C7 C 0.8263(4) 0.12192(10) 0.4337(3)
C8 C 0.6695(4) -0.00308(10) 0.2978(3)
H5 H 0.6207 -0.0185 0.2043
C9 C 0.7033(4) 0.04666(10) 0.2969(3)
H6 H 0.6760 0.0653 0.2052
C10 C 0.7782(4) 0.06936(10) 0.4324(3)
C11 C 0.8083(4) 0.04125(10) 0.5654(3)
H7 H 0.8553 0.0559 0.6606
C12 C 0.7682(4) -0.00858(10) 0.5558(3)
H8 H 0.7885 -0.0278 0.6471
N1 N 0.4865(4) 0.32317(8) 0.1845(3)
N2 N 0.9583(4) 0.19501(8) 0.4610(3)
N3 N 0.9824(4) 0.14447(8) 0.4981(3)
N4 N 0.7022(3) -0.03136(8) 0.4252(3)
O1 O 0.6981(3) 0.15336(7) 0.3561(2)
N3A N -0.0176(4) 0.35553(8) -0.0019(3)
N4C N 0.2978(3) 0.46864(8) 0.0748(3)
Ag1A Ag 1.30874(3) 0.112872(7) 0.59450(3)
Ag1C Ag 0.69126(3) -0.112872(7) 0.40550(3)
Sb1 Sb 0.82225(3) 0.608168(7) 0.45769(2)
F1 F 0.9388(3) 0.59837(6) 0.65874(19)
F2 F 0.7070(3) 0.61773(6) 0.2558(2)
F3 F 1.0726(3) 0.62723(7) 0.3940(2)
F4 F 0.8739(3) 0.54258(6) 0.4095(2)
F5 F 0.5721(3) 0.58995(7) 0.5244(2)
F6 F 0.7713(3) 0.67394(6) 0.5073(2)
loop_
_geom_bond_atom_site_label_1
_geom_bond_atom_site_label_2
_geom_bond_site_symmetry_1
_geom_bond_site_symmetry_2
Ag1 N1 1_555 1_555
C1 H1 1_555 1_555
C2 C1 1_555 1_555
H2 C2 1_555 1_555
C3 C2 1_555 1_555
C4 C3 1_555 1_555
H3 C4 1_555 1_555
C5 C4 1_555 1_555
H4 C5 1_555 1_555
C6 C3 1_555 1_555
C7 C10 1_555 1_555
C8 H5 1_555 1_555
C9 C8 1_555 1_555
H6 C9 1_555 1_555
C10 C9 1_555 1_555
C11 C10 1_555 1_555
H7 C11 1_555 1_555
C12 C11 1_555 1_555
H8 C12 1_555 1_555
N1 C1 1_555 1_555
N2 C6 1_555 1_555
N3 C7 1_555 1_555
N4 C8 1_555 1_555
O1 C6 1_555 1_555
Sb1 F1 1_555 1_555
F2 Sb1 1_555 1_555
F3 Sb1 1_555 1_555
F4 Sb1 1_555 1_555
F5 Sb1 1_555 1_555
F6 Sb1 1_555 1_555
N3A Ag1 1_555 1_555
N4C Ag1 1_555 1_555
Ag1A N3 1_555 1_555
Ag1C N4 1_555 1_555
C5 N1 1_555 1_555
C7 O1 1_555 1_555
C12 N4 1_555 1_555
N2 N3 1_555 1_555

#END
