
#######################################################################
#
#                 Cambridge Crystallographic Data Centre
#                                CCDC 
#
#######################################################################
#
# If this CIF has been generated from an entry in the Cambridge 
# Structural Database, then it will include bibliographic, chemical, 
# crystal, experimental, refinement or atomic coordinate data resulting 
# from the CCDC's data processing and validation procedures.
#
#######################################################################

data_ULAFES
_symmetry_cell_setting           monoclinic
_symmetry_space_group_name_H-M   'P 21/c'
_symmetry_Int_Tables_number      14
_space_group_name_Hall           '-P 2ybc'
loop_
_symmetry_equiv_pos_site_id
_symmetry_equiv_pos_as_xyz
1 x,y,z
2 x,1/2-y,1/2+z
3 -x,-y,-z
4 -x,1/2+y,1/2-z
_cell_length_a                   17.8199(8)
_cell_length_b                   9.9749(5)
_cell_length_c                   29.2120(13)
_cell_angle_alpha                90
_cell_angle_beta                 97.8670(10)
_cell_angle_gamma                90
_cell_volume                     5143.61
loop_
_atom_site_label
_atom_site_type_symbol
_atom_site_fract_x
_atom_site_fract_y
_atom_site_fract_z
Hg1 Hg 0.49531(3) 0.20522(4) 0.405210(16)
I1 I 0.35924(5) 0.09720(8) 0.41152(3)
I2 I 0.63351(5) 0.10046(9) 0.41446(3)
Hg2 Hg 0.04560(2) 0.72086(4) 0.112001(15)
I3 I -0.06006(5) 0.90028(8) 0.08038(3)
I4 I 0.19326(5) 0.75491(11) 0.14089(3)
C1 C 0.4005(7) 0.3526(13) 0.3133(4)
H1 H 0.3557 0.3282 0.3256
C2 C 0.4751(6) 0.4449(11) 0.2683(4)
C3 C 0.5106(7) 0.5123(12) 0.2349(4)
H2 H 0.4817 0.5624 0.2110
C4 C 0.5867(8) 0.5042(13) 0.2376(4)
H3 H 0.6120 0.5498 0.2156
C5 C 0.6293(7) 0.4270(13) 0.2735(4)
H4 H 0.6828 0.4223 0.2749
C6 C 0.5946(7) 0.3592(12) 0.3060(4)
H5 H 0.6232 0.3092 0.3300
C7 C 0.5172(6) 0.3669(10) 0.3021(4)
C8 C 0.3374(7) 0.5107(14) 0.2514(4)
H6 H 0.3112 0.4545 0.2262
H7 H 0.3570 0.5913 0.2373
C9 C 0.2815(6) 0.5530(11) 0.2826(4)
C10 C 0.3027(7) 0.6530(12) 0.3160(4)
C11 C 0.2488(7) 0.7002(12) 0.3403(4)
H8 H 0.2632 0.7665 0.3632
C12 C 0.1738(7) 0.6578(12) 0.3339(4)
C13 C 0.1530(6) 0.5533(11) 0.3030(4)
C14 C 0.2077(7) 0.5013(12) 0.2776(4)
C15 C 0.3816(7) 0.7036(15) 0.3267(5)
H9 H 0.3816 0.7886 0.3435
H10 H 0.4029 0.7179 0.2978
H11 H 0.4125 0.6378 0.3458
C16 C 0.1156(8) 0.7311(13) 0.3589(5)
H12 H 0.1399 0.8077 0.3759
H13 H 0.0960 0.6695 0.3806
H14 H 0.0738 0.7628 0.3363
C17 C 0.1882(7) 0.3854(12) 0.2442(4)
H15 H 0.1808 0.4195 0.2125
H16 H 0.1415 0.3421 0.2509
H17 H 0.2297 0.3202 0.2478
C18 C 0.0727(7) 0.5035(12) 0.2968(4)
H18 H 0.0724 0.4044 0.2980
H19 H 0.0466 0.5376 0.3223
C19 C 0.0590(7) 0.6236(12) 0.2185(4)
H20 H 0.1101 0.6524 0.2205
C20 C -0.0446(6) 0.5261(10) 0.2368(3)
C21 C -0.0980(7) 0.4571(12) 0.2571(4)
H21 H -0.0863 0.4127 0.2860
C22 C -0.1703(7) 0.4568(13) 0.2324(4)
H22 H -0.2096 0.4094 0.2443
C23 C -0.1864(7) 0.5241(13) 0.1907(4)
H23 H -0.2367 0.5206 0.1751
C24 C -0.1337(7) 0.5955(12) 0.1706(4)
H24 H -0.1468 0.6432 0.1425
C25 C -0.0600(6) 0.5942(11) 0.1939(4)
N1 N 0.4681(5) 0.3104(10) 0.3303(3)
N2 N 0.4007(5) 0.4356(10) 0.2760(3)
N3 N 0.0070(5) 0.6509(10) 0.1835(3)
N4 N 0.0319(5) 0.5499(9) 0.2516(3)
C26 C 0.9133(6) 0.9243(11) 0.4221(4)
H25 H 0.8628 0.9399 0.4079
C27 C 1.0120(6) 0.8236(10) 0.4593(3)
C28 C 1.0645(6) 0.7384(11) 0.4842(4)
H26 H 1.0512 0.6505 0.4927
C29 C 1.1363(7) 0.7879(12) 0.4957(4)
H27 H 1.1733 0.7337 0.5135
C30 C 1.1570(7) 0.9157(12) 0.4822(4)
H28 H 1.2078 0.9450 0.4904
C31 C 1.1060(7) 0.9991(12) 0.4575(4)
H29 H 1.1202 1.0857 0.4482
C32 C 1.0318(6) 0.9518(11) 0.4464(4)
C33 C 0.8925(6) 0.6858(11) 0.4461(4)
H30 H 0.8908 0.6646 0.4790
H31 H 0.9193 0.6114 0.4327
C34 C 0.8127(6) 0.6933(11) 0.4214(4)
C35 C 0.7508(6) 0.7113(11) 0.4448(4)
C36 C 0.6771(6) 0.7185(11) 0.4205(4)
C37 C 0.6667(7) 0.7097(12) 0.3719(4)
C38 C 0.7290(7) 0.6896(11) 0.3495(4)
H32 H 0.7221 0.6811 0.3168
C39 C 0.8014(6) 0.6812(11) 0.3735(4)
C40 C 0.7621(7) 0.7272(15) 0.4973(4)
H33 H 0.7483 0.6435 0.5116
H34 H 0.7300 0.8002 0.5059
H35 H 0.8153 0.7482 0.5080
C41 C 0.5893(8) 0.7247(15) 0.3441(5)
H36 H 0.5947 0.7412 0.3117
H37 H 0.5628 0.8004 0.3562
H38 H 0.5601 0.6424 0.3466
C42 C 0.8673(7) 0.6580(13) 0.3470(4)
H39 H 0.9029 0.7330 0.3523
H40 H 0.8486 0.6514 0.3139
H41 H 0.8930 0.5745 0.3575
C43 C 0.6092(7) 0.7414(12) 0.4452(5)
H42 H 0.6272 0.7618 0.4781
H43 H 0.5814 0.8210 0.4316
C44 C 0.5693(7) 0.4987(11) 0.4342(4)
H44 H 0.6177 0.4643 0.4302
C45 C 0.4501(6) 0.5098(12) 0.4418(4)
C46 C 0.3745(7) 0.4894(12) 0.4425(4)
H45 H 0.3526 0.4032 0.4367
C47 C 0.3307(7) 0.5975(13) 0.4519(5)
H46 H 0.2782 0.5852 0.4532
C48 C 0.3629(7) 0.7256(12) 0.4596(4)
H47 H 0.3311 0.7980 0.4657
C49 C 0.4381(7) 0.7504(11) 0.4586(4)
H48 H 0.4598 0.8368 0.4645
C50 C 0.4810(6) 0.6386(11) 0.4483(4)
N5 N 0.9673(5) 1.0138(9) 0.4228(3)
N6 N 0.9356(5) 0.8089(9) 0.4432(3)
N7 N 0.5081(5) 0.4234(8) 0.4317(3)
N8 N 0.5570(5) 0.6287(9) 0.4431(3)
N5C N 0.0327(5) 0.5138(9) 0.0772(3)
Hg2C Hg 0.95440(2) 1.22086(4) 0.387999(15)
loop_
_geom_bond_atom_site_label_1
_geom_bond_atom_site_label_2
_geom_bond_site_symmetry_1
_geom_bond_site_symmetry_2
Hg1 I1 1_555 1_555
I2 Hg1 1_555 1_555
Hg2 I3 1_555 1_555
I4 Hg2 1_555 1_555
C1 H1 1_555 1_555
C2 C3 1_555 1_555
C3 H2 1_555 1_555
C4 C3 1_555 1_555
H3 C4 1_555 1_555
C5 C4 1_555 1_555
H4 C5 1_555 1_555
C6 C5 1_555 1_555
H5 C6 1_555 1_555
C7 C2 1_555 1_555
C8 H6 1_555 1_555
H7 C8 1_555 1_555
C9 C8 1_555 1_555
C10 C9 1_555 1_555
C11 C10 1_555 1_555
H8 C11 1_555 1_555
C12 C11 1_555 1_555
C13 C12 1_555 1_555
C14 C9 1_555 1_555
C15 C10 1_555 1_555
H9 C15 1_555 1_555
H10 C15 1_555 1_555
H11 C15 1_555 1_555
C16 C12 1_555 1_555
H12 C16 1_555 1_555
H13 C16 1_555 1_555
H14 C16 1_555 1_555
C17 C14 1_555 1_555
H15 C17 1_555 1_555
H16 C17 1_555 1_555
H17 C17 1_555 1_555
C18 C13 1_555 1_555
H18 C18 1_555 1_555
H19 C18 1_555 1_555
C19 H20 1_555 1_555
C20 C21 1_555 1_555
C21 H21 1_555 1_555
C22 C21 1_555 1_555
H22 C22 1_555 1_555
C23 C22 1_555 1_555
H23 C23 1_555 1_555
C24 C23 1_555 1_555
H24 C24 1_555 1_555
C25 C20 1_555 1_555
N1 Hg1 1_555 1_555
N2 C1 1_555 1_555
N3 Hg2 1_555 1_555
N4 C18 1_555 1_555
C26 H25 1_555 1_555
C27 C28 1_555 1_555
C28 H26 1_555 1_555
C29 C28 1_555 1_555
H27 C29 1_555 1_555
C30 C29 1_555 1_555
H28 C30 1_555 1_555
C31 C30 1_555 1_555
H29 C31 1_555 1_555
C32 C27 1_555 1_555
C33 H30 1_555 1_555
H31 C33 1_555 1_555
C34 C33 1_555 1_555
C35 C34 1_555 1_555
C36 C35 1_555 1_555
C37 C36 1_555 1_555
C38 C37 1_555 1_555
H32 C38 1_555 1_555
C39 C34 1_555 1_555
C40 C35 1_555 1_555
H33 C40 1_555 1_555
H34 C40 1_555 1_555
H35 C40 1_555 1_555
C41 C37 1_555 1_555
H36 C41 1_555 1_555
H37 C41 1_555 1_555
H38 C41 1_555 1_555
C42 C39 1_555 1_555
H39 C42 1_555 1_555
H40 C42 1_555 1_555
H41 C42 1_555 1_555
C43 C36 1_555 1_555
H42 C43 1_555 1_555
H43 C43 1_555 1_555
C44 H44 1_555 1_555
C45 C46 1_555 1_555
C46 H45 1_555 1_555
C47 C46 1_555 1_555
H46 C47 1_555 1_555
C48 C47 1_555 1_555
H47 C48 1_555 1_555
C49 C48 1_555 1_555
H48 C49 1_555 1_555
C50 C45 1_555 1_555
N5 C26 1_555 1_555
N6 C26 1_555 1_555
N7 Hg1 1_555 1_555
N8 C43 1_555 1_555
N5C Hg2 1_555 1_555
Hg2C N5 1_555 1_555
C1 N1 1_555 1_555
C2 N2 1_555 1_555
C6 C7 1_555 1_555
C7 N1 1_555 1_555
C8 N2 1_555 1_555
C13 C14 1_555 1_555
C19 N4 1_555 1_555
C19 N3 1_555 1_555
C20 N4 1_555 1_555
C24 C25 1_555 1_555
C25 N3 1_555 1_555
C27 N6 1_555 1_555
C31 C32 1_555 1_555
C32 N5 1_555 1_555
C33 N6 1_555 1_555
C38 C39 1_555 1_555
C44 N8 1_555 1_555
C44 N7 1_555 1_555
C45 N7 1_555 1_555
C49 C50 1_555 1_555
C50 N8 1_555 1_555

#END
