
#######################################################################
#
#                 Cambridge Crystallographic Data Centre
#                                CCDC 
#
#######################################################################
#
# If this CIF has been generated from an entry in the Cambridge 
# Structural Database, then it will include bibliographic, chemical, 
# crystal, experimental, refinement or atomic coordinate data resulting 
# from the CCDC's data processing and validation procedures.
#
#######################################################################

data_ULAGOD
_symmetry_cell_setting           orthorhombic
_symmetry_space_group_name_H-M   'P b c n'
_symmetry_Int_Tables_number      60
_space_group_name_Hall           '-P 2n 2ab'
loop_
_symmetry_equiv_pos_site_id
_symmetry_equiv_pos_as_xyz
1 x,y,z
2 1/2+x,1/2+y,1/2-z
3 x,-y,1/2+z
4 1/2-x,1/2+y,z
5 -x,-y,-z
6 1/2-x,1/2-y,1/2+z
7 -x,y,1/2-z
8 1/2+x,1/2-y,-z
_cell_length_a                   9.8861(5)
_cell_length_b                   20.2580(10)
_cell_length_c                   17.5517(8)
_cell_angle_alpha                90
_cell_angle_beta                 90
_cell_angle_gamma                90
_cell_volume                     3515.12
loop_
_atom_site_label
_atom_site_type_symbol
_atom_site_fract_x
_atom_site_fract_y
_atom_site_fract_z
Ag1 Ag 0.17087(4) 0.245341(16) 0.57037(2)
C1 C 0.4014(5) 0.3306(2) 0.6405(3)
C2 C 0.3584(5) 0.3854(2) 0.6817(3)
H1 H 0.2931 0.3804 0.7210
C3 C 0.4105(5) 0.4472(2) 0.6655(3)
H2 H 0.3805 0.4844 0.6938
C4 C 0.5053(5) 0.4555(2) 0.6088(3)
H3 H 0.5402 0.4982 0.5979
C5 C 0.5495(5) 0.4009(2) 0.5676(3)
C6 C 0.4954(5) 0.3388(2) 0.5833(2)
H4 H 0.5237 0.3017 0.5542
C7 C 0.6526(5) 0.4071(2) 0.5085(3)
C8 C 0.8060(4) 0.4543(2) 0.4425(2)
C9 C 0.8992(5) 0.5062(2) 0.4171(2)
C10 C 0.8965(4) 0.5680(2) 0.4512(2)
H5 H 0.8329 0.5775 0.4903
C11 C 0.9882(5) 0.6159(2) 0.4275(3)
C12 C 1.0793(5) 0.6022(2) 0.3695(3)
H6 H 1.1403 0.6354 0.3526
C13 C 1.0814(6) 0.5402(2) 0.3363(3)
H7 H 1.1453 0.5307 0.2974
C14 C 0.9909(5) 0.4920(2) 0.3594(3)
H8 H 0.9915 0.4497 0.3361
N1 N 0.3451(4) 0.2672(2) 0.6545(2)
H9 H 0.399(5) 0.2361(19) 0.648(3)
H10 H 0.315(6) 0.265(3) 0.699(2)
N2 N 0.6974(4) 0.36387(18) 0.4605(2)
N3 N 0.7992(4) 0.39429(19) 0.4169(2)
N4 N 0.9879(4) 0.67917(18) 0.4632(2)
H11 H 0.976(7) 0.677(3) 0.5105(18)
H12 H 1.061(4) 0.699(2) 0.456(3)
O1 O 0.7166(3) 0.46627(14) 0.49942(17)
N2G N 0.1974(4) 0.13613(18) 0.5395(2)
N4D N 0.0121(4) 0.32083(18) 0.5368(2)
Ag1G Ag 0.67087(4) 0.254659(16) 0.42963(2)
Ag1D Ag 0.82913(4) 0.754659(16) 0.42963(2)
H11D H 0.024(7) 0.323(3) 0.4895(18)
H12D H -0.061(4) 0.301(2) 0.544(3)
C15 C 0.8276(6) 0.1342(3) 0.6667(3)
F1 F 0.7870(4) 0.11750(19) 0.7356(2)
F2 F 0.8015(5) 0.08416(19) 0.6202(3)
F3 F 0.9591(4) 0.1444(2) 0.6686(2)
O2 O 0.7653(5) 0.25683(17) 0.6898(2)
O3 O 0.5988(3) 0.18468(16) 0.6292(2)
O4 O 0.7968(4) 0.21998(19) 0.55930(19)
S1 S 0.73684(12) 0.20748(5) 0.63309(6)
loop_
_geom_bond_atom_site_label_1
_geom_bond_atom_site_label_2
_geom_bond_site_symmetry_1
_geom_bond_site_symmetry_2
Ag1 N1 1_555 1_555
C1 C2 1_555 1_555
C2 H1 1_555 1_555
C3 C2 1_555 1_555
H2 C3 1_555 1_555
C4 C3 1_555 1_555
H3 C4 1_555 1_555
C5 C4 1_555 1_555
C6 C1 1_555 1_555
H4 C6 1_555 1_555
C7 C5 1_555 1_555
C8 C9 1_555 1_555
C9 C10 1_555 1_555
C10 H5 1_555 1_555
C11 C10 1_555 1_555
C12 C11 1_555 1_555
H6 C12 1_555 1_555
C13 C12 1_555 1_555
H7 C13 1_555 1_555
C14 C9 1_555 1_555
H8 C14 1_555 1_555
C15 F1 1_555 1_555
F2 C15 1_555 1_555
F3 C15 1_555 1_555
N1 C1 1_555 1_555
H9 N1 1_555 1_555
H10 N1 1_555 1_555
N2 C7 1_555 1_555
N3 C8 1_555 1_555
N4 C11 1_555 1_555
H11 N4 1_555 1_555
H12 N4 1_555 1_555
O1 C7 1_555 1_555
O2 S1 1_555 1_555
O3 S1 1_555 1_555
O4 S1 1_555 1_555
S1 C15 1_555 1_555
N2G Ag1 1_555 1_555
N4D Ag1 1_555 1_555
Ag1G N2 1_555 1_555
Ag1D N4 1_555 1_555
H11D N4D 1_555 1_555
H12D N4D 1_555 1_555
C5 C6 1_555 1_555
C8 O1 1_555 1_555
C13 C14 1_555 1_555
N2 N3 1_555 1_555

#END
