
#######################################################################
#
#                 Cambridge Crystallographic Data Centre
#                                CCDC 
#
#######################################################################
#
# If this CIF has been generated from an entry in the Cambridge 
# Structural Database, then it will include bibliographic, chemical, 
# crystal, experimental, refinement or atomic coordinate data resulting 
# from the CCDC's data processing and validation procedures.
#
#######################################################################

data_ULAGAP
_symmetry_cell_setting           monoclinic
_symmetry_space_group_name_H-M   'P 21/c'
_symmetry_Int_Tables_number      14
_space_group_name_Hall           '-P 2ybc'
loop_
_symmetry_equiv_pos_site_id
_symmetry_equiv_pos_as_xyz
1 x,y,z
2 x,1/2-y,1/2+z
3 -x,-y,-z
4 -x,1/2+y,1/2-z
_cell_length_a                   6.6753(3)
_cell_length_b                   27.2824(14)
_cell_length_c                   8.2932(4)
_cell_angle_alpha                90
_cell_angle_beta                 94.6030(10)
_cell_angle_gamma                90
_cell_volume                     1505.47
loop_
_atom_site_label
_atom_site_type_symbol
_atom_site_fract_x
_atom_site_fract_y
_atom_site_fract_z
Ag1 Ag 0.31338(3) 0.388028(7) 0.09693(3)
C1 C 0.4187(4) 0.27809(10) 0.1465(4)
H1 H 0.2971 0.2750 0.0795
C2 C 0.5142(4) 0.23594(9) 0.2048(3)
H2 H 0.4589 0.2046 0.1788
C3 C 0.6930(4) 0.24044(9) 0.3022(3)
C4 C 0.7687(4) 0.28685(9) 0.3381(3)
H3 H 0.8909 0.2910 0.4037
C5 C 0.6626(4) 0.32686(10) 0.2763(3)
H4 H 0.7136 0.3586 0.3026
C6 C 0.7949(4) 0.19677(9) 0.3697(3)
C7 C 0.8300(4) 0.12125(9) 0.4273(3)
C8 C 0.6706(4) -0.00361(10) 0.2879(3)
H5 H 0.6227 -0.0194 0.1901
C9 C 0.7040(4) 0.04604(10) 0.2850(3)
H6 H 0.6758 0.0644 0.1884
C10 C 0.7801(4) 0.06889(9) 0.4272(3)
C11 C 0.8106(4) 0.04144(10) 0.5673(3)
H7 H 0.8595 0.0563 0.6663
C12 C 0.7682(4) -0.00820(9) 0.5598(3)
H8 H 0.7865 -0.0269 0.6565
N1 N 0.4908(3) 0.32339(8) 0.1807(3)
N2 N 0.9627(3) 0.19342(8) 0.4577(3)
N3 N 0.9863(3) 0.14331(8) 0.4958(3)
N4 N 0.7025(3) -0.03115(8) 0.4228(3)
O1 O 0.7027(3) 0.15245(6) 0.3439(2)
N3A N -0.0137(3) 0.35669(8) -0.0042(3)
N4C N 0.2975(3) 0.46885(8) 0.0772(3)
Ag1A Ag 1.31338(3) 0.111972(7) 0.59693(3)
Ag1C Ag 0.68662(3) -0.111972(7) 0.40307(3)
P1 P 0.82315(11) 0.60987(3) 0.46082(9)
F1 F 0.9258(3) 0.60227(6) 0.6415(2)
F2 F 0.7212(3) 0.61716(7) 0.2809(2)
F3 F 1.0384(3) 0.62360(7) 0.4013(2)
F4 F 0.8608(3) 0.55340(7) 0.4238(2)
F5 F 0.6090(3) 0.59642(7) 0.5229(2)
F6 F 0.7868(3) 0.66627(6) 0.5001(2)
loop_
_geom_bond_atom_site_label_1
_geom_bond_atom_site_label_2
_geom_bond_site_symmetry_1
_geom_bond_site_symmetry_2
Ag1 N1 1_555 1_555
C1 H1 1_555 1_555
C2 C1 1_555 1_555
H2 C2 1_555 1_555
C3 C2 1_555 1_555
C4 C3 1_555 1_555
H3 C4 1_555 1_555
C5 C4 1_555 1_555
H4 C5 1_555 1_555
C6 C3 1_555 1_555
C7 C10 1_555 1_555
C8 H5 1_555 1_555
C9 C8 1_555 1_555
H6 C9 1_555 1_555
C10 C9 1_555 1_555
C11 C10 1_555 1_555
H7 C11 1_555 1_555
C12 C11 1_555 1_555
H8 C12 1_555 1_555
N1 C1 1_555 1_555
N2 C6 1_555 1_555
N3 C7 1_555 1_555
N4 C8 1_555 1_555
O1 C6 1_555 1_555
P1 F1 1_555 1_555
F2 P1 1_555 1_555
F3 P1 1_555 1_555
F4 P1 1_555 1_555
F5 P1 1_555 1_555
F6 P1 1_555 1_555
N3A Ag1 1_555 1_555
N4C Ag1 1_555 1_555
Ag1A N3 1_555 1_555
Ag1C N4 1_555 1_555
C5 N1 1_555 1_555
C7 O1 1_555 1_555
C12 N4 1_555 1_555
N2 N3 1_555 1_555

#END
