
#######################################################################
#
#                 Cambridge Crystallographic Data Centre
#                                CCDC 
#
#######################################################################
#
# If this CIF has been generated from an entry in the Cambridge 
# Structural Database, then it will include bibliographic, chemical, 
# crystal, experimental, refinement or atomic coordinate data resulting 
# from the CCDC's data processing and validation procedures.
#
#######################################################################

data_ULAGIX
_symmetry_cell_setting           monoclinic
_symmetry_space_group_name_H-M   'P 21/c'
_symmetry_Int_Tables_number      14
_space_group_name_Hall           '-P 2ybc'
loop_
_symmetry_equiv_pos_site_id
_symmetry_equiv_pos_as_xyz
1 x,y,z
2 x,1/2-y,1/2+z
3 -x,-y,-z
4 -x,1/2+y,1/2-z
_cell_length_a                   5.5677(3)
_cell_length_b                   17.3378(9)
_cell_length_c                   15.6640(8)
_cell_angle_alpha                90
_cell_angle_beta                 94.4100(10)
_cell_angle_gamma                90
_cell_volume                     1507.6
loop_
_atom_site_label
_atom_site_type_symbol
_atom_site_fract_x
_atom_site_fract_y
_atom_site_fract_z
Ag1 Ag 0.57470(6) 0.148111(17) 0.762548(18)
C1 C 0.1906(7) 0.2390(2) 0.8519(2)
H1 H 0.2587 0.2822 0.8253
C2 C -0.0082(7) 0.2499(2) 0.8985(2)
C3 C -0.1065(7) 0.1861(2) 0.9386(2)
H2 H -0.2433 0.1920 0.9707
C4 C -0.0015(8) 0.1151(2) 0.9307(2)
H3 H -0.0634 0.0712 0.9578
C5 C 0.1940(8) 0.1087(2) 0.8831(2)
H4 H 0.2654 0.0593 0.8778
C6 C -0.1168(7) 0.3252(2) 0.9087(2)
C7 C -0.1525(7) 0.4466(2) 0.9030(2)
C8 C 0.0941(7) 0.5460(2) 0.8351(2)
H5 H 0.1870 0.5061 0.8124
C9 C -0.0949(7) 0.5271(2) 0.8847(2)
C10 C -0.2311(7) 0.5852(2) 0.9183(2)
H6 H -0.3601 0.5734 0.9524
C11 C -0.1734(7) 0.6609(2) 0.9006(2)
H7 H -0.2640 0.7020 0.9222
C12 C 0.0145(7) 0.6765(2) 0.8518(2)
H8 H 0.0530 0.7288 0.8408
N1 N 0.2898(6) 0.16911(17) 0.84336(19)
N2 N -0.3092(6) 0.34155(18) 0.9450(2)
N3 N -0.3330(6) 0.42197(18) 0.9417(2)
N4 N 0.1467(6) 0.62029(18) 0.81897(19)
O1 O -0.0057(5) 0.38914(13) 0.87950(15)
N4C N 0.8533(6) 0.12029(18) 0.68103(19)
Ag1C Ag 0.42530(6) 0.648111(17) 0.737452(18)
Sb1 Sb 0.49136(5) 0.391613(14) 0.654894(15)
F1 F 0.7777(4) 0.41966(14) 0.60952(16)
F2 F 0.2075(5) 0.36131(17) 0.70099(17)
F3 F 0.6522(5) 0.31645(14) 0.72469(15)
F4 F 0.4396(5) 0.31850(14) 0.56774(16)
F5 F 0.3291(5) 0.46659(14) 0.58728(15)
F6 F 0.5481(5) 0.46554(15) 0.74093(15)
loop_
_geom_bond_atom_site_label_1
_geom_bond_atom_site_label_2
_geom_bond_site_symmetry_1
_geom_bond_site_symmetry_2
Ag1 N1 1_555 1_555
C1 H1 1_555 1_555
C2 C1 1_555 1_555
C3 C2 1_555 1_555
H2 C3 1_555 1_555
C4 C3 1_555 1_555
H3 C4 1_555 1_555
C5 C4 1_555 1_555
H4 C5 1_555 1_555
C6 C2 1_555 1_555
C7 C9 1_555 1_555
C8 H5 1_555 1_555
C9 C8 1_555 1_555
C10 C9 1_555 1_555
H6 C10 1_555 1_555
C11 C10 1_555 1_555
H7 C11 1_555 1_555
C12 C11 1_555 1_555
H8 C12 1_555 1_555
N1 C1 1_555 1_555
N2 C6 1_555 1_555
N3 C7 1_555 1_555
N4 C8 1_555 1_555
O1 C6 1_555 1_555
Sb1 F1 1_555 1_555
F2 Sb1 1_555 1_555
F3 Sb1 1_555 1_555
F4 Sb1 1_555 1_555
F5 Sb1 1_555 1_555
F6 Sb1 1_555 1_555
N4C Ag1 1_555 1_555
Ag1C N4 1_555 1_555
C5 N1 1_555 1_555
C7 O1 1_555 1_555
C12 N4 1_555 1_555
N2 N3 1_555 1_555

#END
