
#######################################################################
#
#                 Cambridge Crystallographic Data Centre
#                                CCDC 
#
#######################################################################
#
# If this CIF has been generated from an entry in the Cambridge 
# Structural Database, then it will include bibliographic, chemical, 
# crystal, experimental, refinement or atomic coordinate data resulting 
# from the CCDC's data processing and validation procedures.
#
#######################################################################

data_ULAJAT
_symmetry_cell_setting           monoclinic
_symmetry_space_group_name_H-M   'P 21/n'
_symmetry_Int_Tables_number      14
_space_group_name_Hall           '-P 2yn'
loop_
_symmetry_equiv_pos_site_id
_symmetry_equiv_pos_as_xyz
1 x,y,z
2 1/2-x,1/2+y,1/2-z
3 -x,-y,-z
4 1/2+x,1/2-y,1/2+z
_cell_length_a                   8.5231(8)
_cell_length_b                   7.0598(7)
_cell_length_c                   19.0329(17)
_cell_angle_alpha                90
_cell_angle_beta                 98.8800(10)
_cell_angle_gamma                90
_cell_volume                     1131.51
loop_
_atom_site_label
_atom_site_type_symbol
_atom_site_fract_x
_atom_site_fract_y
_atom_site_fract_z
Na1 Na 0.93820(11) 0.32398(16) 0.56175(5)
N1 N 0.3469(2) 0.7014(3) 0.42293(10)
N2 N 0.5987(2) 0.6488(3) 0.41437(10)
H1 H 0.6816 0.6165 0.3966
O1 O 0.2192(2) 0.8220(3) 0.54163(10)
O2 O 0.4583(2) 0.8601(3) 0.60539(9)
O3 O 0.7371(2) 0.8029(3) 0.59418(9)
H2 H 0.6453 0.8360 0.5953
O4 O 0.8713(2) 0.6644(3) 0.51722(9)
O5 O 1.1322(2) 0.5012(3) 0.63961(10)
H3 H 1.132(4) 0.608(2) 0.6204(13)
H4 H 1.152(4) 0.509(4) 0.6843(6)
O6 O 1.0214(2) 0.0314(3) 0.61812(10)
H5 H 1.0861 -0.0263 0.5958
H6 H 0.9347 -0.0303 0.6128
C1 C 0.3656(3) 0.8138(4) 0.54743(13)
C2 C 0.4401(3) 0.7466(3) 0.48677(12)
C3 C 0.5973(3) 0.7131(3) 0.48215(12)
C4 C 0.7464(3) 0.7262(4) 0.53360(13)
C5 C 0.4475(3) 0.6448(4) 0.38032(13)
C6 C 0.4053(3) 0.5841(5) 0.30430(13)
H9 H 0.4522 0.4610 0.2986
H10 H 0.4512 0.6731 0.2744
C7 C 0.2284(3) 0.5722(5) 0.27913(15)
H11 H 0.1832 0.4770 0.3059
H12 H 0.2094 0.5397 0.2296
H13 H 0.1804 0.6925 0.2859
Na1B Na 0.06180(11) 0.67602(16) 0.43825(5)
Na1B_2 Na 1.06180(11) 0.67602(16) 0.43825(5)
N1B N 0.6531(2) 0.2986(3) 0.57707(10)
O1B O 0.7808(2) 0.1780(3) 0.45837(10)
O4B O 1.1287(2) 0.3356(3) 0.48278(9)
O7 O 0.3117(3) 0.0343(4) 0.71733(11)
H7 H 0.3704 -0.0161 0.6902
H8 H 0.2135 0.0274 0.7005
loop_
_geom_bond_atom_site_label_1
_geom_bond_atom_site_label_2
_geom_bond_site_symmetry_1
_geom_bond_site_symmetry_2
Na1 O4 1_555 1_555
N1 C2 1_555 1_555
N2 H1 1_555 1_555
O1 C1 1_555 1_555
O2 C1 1_555 1_555
O3 H2 1_555 1_555
O4 C4 1_555 1_555
O5 Na1 1_555 1_555
H3 O5 1_555 1_555
H4 O5 1_555 1_555
O6 Na1 1_555 1_555
H5 O6 1_555 1_555
H6 O6 1_555 1_555
O7 H7 1_555 1_555
H8 O7 1_555 1_555
C1 C2 1_555 1_555
C2 C3 1_555 1_555
C3 N2 1_555 1_555
C4 O3 1_555 1_555
C5 N1 1_555 1_555
C6 C5 1_555 1_555
H9 C6 1_555 1_555
H10 C6 1_555 1_555
C7 C6 1_555 1_555
H11 C7 1_555 1_555
H12 C7 1_555 1_555
H13 C7 1_555 1_555
Na1B N1 1_555 1_555
Na1B_2 O4 1_555 1_555
N1B Na1 1_555 1_555
O1B Na1 1_555 1_555
O4B Na1 1_555 1_555
N2 C5 1_555 1_555
O1 Na1B 1_555 1_555
C3 C4 1_555 1_555
Na1B_2 O4B 1_555 1_555

#END
