
#######################################################################
#
#                 Cambridge Crystallographic Data Centre
#                                CCDC 
#
#######################################################################
#
# If this CIF has been generated from an entry in the Cambridge 
# Structural Database, then it will include bibliographic, chemical, 
# crystal, experimental, refinement or atomic coordinate data resulting 
# from the CCDC's data processing and validation procedures.
#
#######################################################################

data_ULANUR
_symmetry_cell_setting           triclinic
_symmetry_space_group_name_H-M   'P -1'
_symmetry_Int_Tables_number      2
_space_group_name_Hall           '-P 1'
loop_
_symmetry_equiv_pos_site_id
_symmetry_equiv_pos_as_xyz
1 x,y,z
2 -x,-y,-z
_cell_length_a                   13.010(3)
_cell_length_b                   13.453(3)
_cell_length_c                   13.586(3)
_cell_angle_alpha                99.95(3)
_cell_angle_beta                 99.87(3)
_cell_angle_gamma                104.58(3)
_cell_volume                     2208.32
loop_
_atom_site_label
_atom_site_type_symbol
_atom_site_fract_x
_atom_site_fract_y
_atom_site_fract_z
O1 O 0.6037(3) 0.5090(3) 0.9068(4)
H29 H 0.660(8) 0.526(9) 0.895(9)
H38 H 0.560(9) 0.532(11) 0.898(12)
Ce1 Ce 0.003047(16) 0.783224(16) 0.218322(15)
Ce2 Ce 0.503761(15) 0.888641(16) 0.188431(15)
O2 O 0.2143(3) 1.0504(3) 0.1004(3)
O3 O 0.1494(2) 0.9110(2) 0.1619(2)
O4 O -0.3036(2) 0.8972(3) 0.2097(2)
O5 O -0.1754(2) 0.8143(2) 0.2351(2)
O6 O -0.1869(3) 0.5884(3) -0.1116(2)
O7 O -0.1349(2) 0.6945(3) 0.0453(2)
O8 O 0.3383(2) 0.7579(2) 0.2004(2)
O9 O 0.1860(2) 0.7463(2) 0.2582(2)
O10 O -0.1245(4) 0.4852(3) 0.3346(3)
O11 O -0.0903(3) 0.6100(2) 0.2430(2)
O12 O 0.1350(3) 1.0213(2) 0.5401(2)
O13 O 0.0911(2) 0.9458(2) 0.3715(2)
O14 O 0.6021(3) 0.9301(3) 0.5394(2)
O15 O 0.5409(2) 0.8720(2) 0.3707(2)
O16 O 0.6315(3) 1.2353(2) 0.1697(2)
O17 O 0.5796(2) 1.0588(2) 0.1370(2)
O18 O 0.3761(3) 0.9864(3) 0.2614(2)
O19 O 0.3581(2) 0.9170(3) 0.0496(2)
O20 O 0.5152(3) 0.8104(3) 0.0138(2)
O21 O 0.5305(3) 0.7001(3) 0.1861(3)
N1 N -0.0380(3) 0.9504(3) 0.1641(2)
N2 N 0.0640(3) 0.6775(3) 0.0686(3)
N3 N 0.0062(3) 0.7581(3) 0.4076(3)
N4 N 0.6135(3) 1.0587(3) 0.3339(2)
C1 C 0.1421(3) 0.9929(3) 0.1318(3)
C2 C 0.0364(3) 1.0209(3) 0.1351(3)
C3 C 0.0183(3) 1.1118(4) 0.1106(3)
H1 H 0.0721 1.1607 0.0926
C4 C -0.0831(4) 1.1277(4) 0.1137(4)
H2 H -0.0986 1.1868 0.0957
C5 C -0.1604(3) 1.0556(3) 0.1437(3)
H3 H -0.2280 1.0655 0.1471
C6 C -0.1341(3) 0.9675(3) 0.1689(3)
C7 C -0.2116(3) 0.8863(3) 0.2073(3)
C8 C -0.1185(3) 0.6374(3) -0.0315(3)
C9 C -0.0023(3) 0.6335(3) -0.0242(3)
C10 C 0.0355(3) 0.5935(4) -0.1072(3)
H4 H -0.0128 0.5599 -0.1698
C11 C 0.1463(4) 0.6042(4) -0.0960(4)
H5 H 0.1739 0.5810 -0.1517
C12 C 0.2147(3) 0.6503(3) 0.0002(3)
H6 H 0.2892 0.6583 0.0105
C13 C 0.1700(3) 0.6841(3) 0.0808(3)
C14 C 0.2363(3) 0.7337(3) 0.1887(3)
C15 C -0.0873(4) 0.5764(3) 0.3261(3)
C16 C -0.0324(3) 0.6614(3) 0.4231(3)
C17 C -0.0270(4) 0.6413(3) 0.5207(3)
H7 H -0.0523 0.5730 0.5293
C18 C 0.0169(4) 0.7257(4) 0.6047(3)
H8 H 0.0215 0.7147 0.6709
C19 C 0.0540(4) 0.8269(4) 0.5891(3)
H9 H 0.0817 0.8850 0.6442
C20 C 0.0486(3) 0.8388(3) 0.4890(3)
C21 C 0.0944(3) 0.9433(3) 0.4635(3)
C22 C 0.5907(3) 0.9444(3) 0.4513(3)
C23 C 0.6353(3) 1.0531(3) 0.4325(3)
C24 C 0.6926(3) 1.1406(3) 0.5114(3)
H10 H 0.7049 1.1351 0.5795
C25 C 0.7310(3) 1.2366(4) 0.4853(3)
H11 H 0.7712 1.2961 0.5360
C26 C 0.7091(3) 1.2435(3) 0.3829(3)
H12 H 0.7342 1.3069 0.3641
C27 C 0.6485(3) 1.1525(3) 0.3101(3)
C28 C 0.6175(3) 1.1501(3) 0.1968(3)
H23 H 0.311(6) 0.965(5) 0.236(5)
H24 H 0.333(6) 0.971(4) 0.070(5)
H25 H 0.468(6) 0.804(8) -0.037(5)
H26 H 0.592(6) 0.694(6) 0.176(5)
H32 H 0.378(6) 0.998(6) 0.324(6)
H33 H 0.385(5) 0.928(5) -0.005(4)
H34 H 0.575(7) 0.795(7) 0.002(6)
H35 H 0.483(8) 0.654(8) 0.163(7)
Ce2_2 Ce -0.496239(15) 0.888641(16) 0.188431(15)
O4_2 O 0.6964(2) 0.8972(3) 0.2097(2)
O22 O 0.6923(3) 0.7702(3) 0.9590(3)
H27 H 0.731(5) 0.826(4) 0.941(5)
H36 H 0.743(8) 0.739(7) 0.985(7)
O23 O 0.6705(3) 0.5749(3) 0.1273(4)
H28 H 0.741(7) 0.583(6) 0.130(6)
H37 H 0.633(9) 0.566(10) 0.068(5)
O24 O 0.5617(4) 0.4218(3) 0.2152(3)
H30 H 0.577(12) 0.362(12) 0.206(11)
H39 H 0.609(17) 0.464(17) 0.184(16)
O25 O 0.4130(5) 0.2170(5) 0.2555(4)
H31 H 0.414(11) 0.255(9) 0.205(8)
H40 H 0.365(13) 0.152(7) 0.243(12)
N5 N 0.4495(3) 0.6883(3) 0.4101(3)
N6 N 0.2235(3) 0.1985(3) 0.5090(3)
C29 C 0.3327(4) 0.5148(4) 0.3526(4)
H13 H 0.2852 0.4613 0.2995
C30 C 0.3824(4) 0.6105(4) 0.3339(4)
H14 H 0.3691 0.6211 0.2676
C31 C 0.4700(3) 0.6775(4) 0.5069(4)
H15 H 0.5158 0.7336 0.5586
C32 C 0.4232(4) 0.5828(3) 0.5297(3)
H16 H 0.4375 0.5750 0.5969
C33 C 0.3541(3) 0.4985(3) 0.4518(3)
C34 C 0.3074(3) 0.3929(3) 0.4717(3)
C35 C 0.3043(3) 0.3822(3) 0.5715(3)
H17 H 0.3303 0.4405 0.6264
C36 C 0.2614(3) 0.2823(4) 0.5865(4)
H18 H 0.2592 0.2738 0.6527
C37 C 0.2270(4) 0.2074(4) 0.4136(4)
H19 H 0.2010 0.1472 0.3606
C38 C 0.2682(4) 0.3035(4) 0.3914(3)
H20 H 0.2699 0.3087 0.3243
H21 H 0.476(4) 0.743(3) 0.394(4)
H22 H 0.193(6) 0.137(4) 0.522(6)
loop_
_geom_bond_atom_site_label_1
_geom_bond_atom_site_label_2
_geom_bond_site_symmetry_1
_geom_bond_site_symmetry_2
O1 H29 1_555 1_555
Ce1 O3 1_555 1_555
Ce2 O8 1_555 1_555
O2 C1 1_555 1_555
O3 C1 1_555 1_555
O4 C7 1_555 1_555
O5 Ce1 1_555 1_555
O6 C8 1_555 1_555
O7 Ce1 1_555 1_555
O8 C14 1_555 1_555
O9 Ce1 1_555 1_555
O10 C15 1_555 1_555
O11 Ce1 1_555 1_555
O12 C21 1_555 1_555
O13 Ce1 1_555 1_555
O14 C22 1_555 1_555
O15 Ce2 1_555 1_555
O16 C28 1_555 1_555
O17 Ce2 1_555 1_555
O18 Ce2 1_555 1_555
O19 Ce2 1_555 1_555
O20 Ce2 1_555 1_555
O21 Ce2 1_555 1_555
O22 H27 1_555 1_555
O23 H28 1_555 1_555
O24 H30 1_555 1_555
O25 H31 1_555 1_555
N1 Ce1 1_555 1_555
N2 Ce1 1_555 1_555
N3 Ce1 1_555 1_555
N4 Ce2 1_555 1_555
N5 C30 1_555 1_555
N6 C36 1_555 1_555
C1 C2 1_555 1_555
C2 N1 1_555 1_555
C3 C2 1_555 1_555
H1 C3 1_555 1_555
C4 C3 1_555 1_555
H2 C4 1_555 1_555
C5 C4 1_555 1_555
H3 C5 1_555 1_555
C6 N1 1_555 1_555
C7 O5 1_555 1_555
C8 O7 1_555 1_555
C9 N2 1_555 1_555
C10 C9 1_555 1_555
H4 C10 1_555 1_555
C11 C10 1_555 1_555
H5 C11 1_555 1_555
C12 C11 1_555 1_555
H6 C12 1_555 1_555
C13 N2 1_555 1_555
C14 O9 1_555 1_555
C15 O11 1_555 1_555
C16 N3 1_555 1_555
C17 C16 1_555 1_555
H7 C17 1_555 1_555
C18 C17 1_555 1_555
H8 C18 1_555 1_555
C19 C18 1_555 1_555
H9 C19 1_555 1_555
C20 N3 1_555 1_555
C21 O13 1_555 1_555
C22 O15 1_555 1_555
C23 N4 1_555 1_555
C24 C23 1_555 1_555
H10 C24 1_555 1_555
C25 C24 1_555 1_555
H11 C25 1_555 1_555
C26 C25 1_555 1_555
H12 C26 1_555 1_555
C27 N4 1_555 1_555
C28 O17 1_555 1_555
C29 H13 1_555 1_555
C30 C29 1_555 1_555
H14 C30 1_555 1_555
C31 N5 1_555 1_555
H15 C31 1_555 1_555
C32 C31 1_555 1_555
H16 C32 1_555 1_555
C33 C29 1_555 1_555
C34 C33 1_555 1_555
C35 C34 1_555 1_555
H17 C35 1_555 1_555
C36 C35 1_555 1_555
H18 C36 1_555 1_555
C37 N6 1_555 1_555
H19 C37 1_555 1_555
C38 C34 1_555 1_555
H20 C38 1_555 1_555
H21 N5 1_555 1_555
H22 N6 1_555 1_555
H23 O18 1_555 1_555
H24 O19 1_555 1_555
H25 O20 1_555 1_555
H26 O21 1_555 1_555
H32 O18 1_555 1_555
H33 O19 1_555 1_555
H34 O20 1_555 1_555
H35 O21 1_555 1_555
H36 O22 1_555 1_555
H37 O23 1_555 1_555
H38 O1 1_555 1_555
H39 O24 1_555 1_555
H40 O25 1_555 1_555
Ce2_2 O4 1_555 1_555
O4_2 Ce2 1_555 1_555
C5 C6 1_555 1_555
C6 C7 1_555 1_555
C8 C9 1_555 1_555
C12 C13 1_555 1_555
C13 C14 1_555 1_555
C15 C16 1_555 1_555
C19 C20 1_555 1_555
C20 C21 1_555 1_555
C22 C23 1_555 1_555
C26 C27 1_555 1_555
C27 C28 1_555 1_555
C32 C33 1_555 1_555
C37 C38 1_555 1_555

#END
