
#######################################################################
#
#                 Cambridge Crystallographic Data Centre
#                                CCDC 
#
#######################################################################
#
# If this CIF has been generated from an entry in the Cambridge 
# Structural Database, then it will include bibliographic, chemical, 
# crystal, experimental, refinement or atomic coordinate data resulting 
# from the CCDC's data processing and validation procedures.
#
#######################################################################

data_ULAPUT
_symmetry_cell_setting           monoclinic
_symmetry_space_group_name_H-M   'P 21/n'
_symmetry_Int_Tables_number      14
_space_group_name_Hall           '-P 2yn'
loop_
_symmetry_equiv_pos_site_id
_symmetry_equiv_pos_as_xyz
1 x,y,z
2 1/2-x,1/2+y,1/2-z
3 -x,-y,-z
4 1/2+x,1/2-y,1/2+z
_cell_length_a                   7.6240(10)
_cell_length_b                   7.1560(10)
_cell_length_c                   23.190(2)
_cell_angle_alpha                90
_cell_angle_beta                 93.0830(10)
_cell_angle_gamma                90
_cell_volume                     1263.35
loop_
_atom_site_label
_atom_site_type_symbol
_atom_site_fract_x
_atom_site_fract_y
_atom_site_fract_z
C1 C 0.9769(3) 1.4246(3) 0.10705(9)
C2 C 0.9052(3) 1.3164(3) 0.05451(8)
H1 H 0.8158 1.3898 0.0336
H2 H 0.9990 1.2920 0.0289
C3 C 0.7673(2) 1.0222(3) 0.03073(8)
C4 C 0.7833(3) 1.0442(3) -0.02803(8)
H3 H 0.8419 1.1472 -0.0421
C5 C 0.7109(3) 0.9109(3) -0.06585(9)
H4 H 0.7212 0.9252 -0.1054
C6 C 0.6246(3) 0.7584(3) -0.04544(9)
H5 H 0.5769 0.6701 -0.0712
C7 C 0.6081(3) 0.7354(3) 0.01373(9)
H6 H 0.5491 0.6324 0.0276
C8 C 0.6802(3) 0.8668(3) 0.05152(8)
C9 C 0.5795(3) 0.7102(3) 0.13513(8)
H7 H 0.6249 0.5924 0.1215
H8 H 0.4555 0.7172 0.1236
C10 C 0.6045(2) 0.7211(3) 0.20018(8)
Cd1 Cd 0.834230(19) 1.08605(2) 0.178353(6)
O1 O 1.0404(3) 1.5791(2) 0.09652(8)
O2 O 0.9688(2) 1.3536(2) 0.15657(6)
O3 O 0.8318(2) 1.1441(2) 0.07256(6)
O4 O 0.6707(2) 0.8613(2) 0.11069(6)
O5 O 0.6948(2) 0.8467(2) 0.22331(6)
O6 O 0.53106(19) 0.59313(18) 0.22765(6)
O7 O 1.0606(2) 0.8817(2) 0.16508(7)
H9 H 1.1442 0.8811 0.1902
H10 H 1.0565 0.7756 0.1495
O8 O 0.5593(2) 1.2223(2) 0.18164(7)
H11 H 0.5675 1.3249 0.1990
H12 H 0.5013 1.1503 0.2021
Cd1A Cd 0.665770(19) 0.58605(2) 0.321647(6)
O6A O 0.96894(19) 1.09313(18) 0.27235(6)
O9 O 0.1714(2) 0.5083(3) 0.25089(8)
H13 H 0.2619 0.5523 0.2366
H14 H 0.1072 0.4657 0.2230
loop_
_geom_bond_atom_site_label_1
_geom_bond_atom_site_label_2
_geom_bond_site_symmetry_1
_geom_bond_site_symmetry_2
C1 C2 1_555 1_555
C2 H1 1_555 1_555
H2 C2 1_555 1_555
C3 C4 1_555 1_555
C4 H3 1_555 1_555
C5 C4 1_555 1_555
H4 C5 1_555 1_555
C6 C5 1_555 1_555
H5 C6 1_555 1_555
C7 C6 1_555 1_555
H6 C7 1_555 1_555
C8 C3 1_555 1_555
C9 H7 1_555 1_555
H8 C9 1_555 1_555
C10 C9 1_555 1_555
Cd1 O2 1_555 1_555
O1 C1 1_555 1_555
O2 C1 1_555 1_555
O3 C2 1_555 1_555
O4 C8 1_555 1_555
O5 C10 1_555 1_555
O6 C10 1_555 1_555
O7 Cd1 1_555 1_555
H9 O7 1_555 1_555
H10 O7 1_555 1_555
O8 Cd1 1_555 1_555
H11 O8 1_555 1_555
H12 O8 1_555 1_555
O9 H13 1_555 1_555
H14 O9 1_555 1_555
Cd1A O6 1_555 1_555
O6A Cd1 1_555 1_555
C3 O3 1_555 1_555
C7 C8 1_555 1_555
C9 O4 1_555 1_555
Cd1 O3 1_555 1_555
Cd1 O4 1_555 1_555
Cd1 O5 1_555 1_555

#END
