
#######################################################################
#
#                 Cambridge Crystallographic Data Centre
#                                CCDC 
#
#######################################################################
#
# If this CIF has been generated from an entry in the Cambridge 
# Structural Database, then it will include bibliographic, chemical, 
# crystal, experimental, refinement or atomic coordinate data resulting 
# from the CCDC's data processing and validation procedures.
#
#######################################################################

data_ULAWUA
_symmetry_cell_setting           monoclinic
_symmetry_space_group_name_H-M   'P 21/c'
_symmetry_Int_Tables_number      14
_space_group_name_Hall           '-P 2ybc'
loop_
_symmetry_equiv_pos_site_id
_symmetry_equiv_pos_as_xyz
1 x,y,z
2 -x,1/2+y,1/2-z
3 -x,-y,-z
4 x,1/2-y,1/2+z
_cell_length_a                   8.5502(6)
_cell_length_b                   11.2156(8)
_cell_length_c                   13.4634(9)
_cell_angle_alpha                90
_cell_angle_beta                 91.3430(10)
_cell_angle_gamma                90
_cell_volume                     1290.73
loop_
_atom_site_label
_atom_site_type_symbol
_atom_site_fract_x
_atom_site_fract_y
_atom_site_fract_z
C1 C 0.0263(12) 0.9542(9) 1.0288(7)
C2 C 0.2439(12) 0.9942(9) 0.9076(8)
Hg1 Hg 0.51629(6) 0.77041(5) 0.83365(5)
Hg2 Hg 0.22624(7) 0.46970(6) 0.97826(5)
I1 I 0.82359(9) 0.77867(6) 0.83985(5)
I2 I 0.25603(8) 0.64475(6) 0.79810(5)
I3 I 0.08558(9) 0.60123(6) 1.11662(5)
I4 I 0.45656(8) 0.32667(6) 0.92556(5)
S1 S 0.2076(3) 0.8973(2) 1.0033(2)
S2 S 0.4123(3) 0.9968(3) 0.8465(2)
S3 S -0.0987(3) 0.9043(2) 1.1185(2)
C1B C -0.0263(12) 1.0458(9) 0.9712(7)
C2B C -0.2439(12) 1.0058(9) 1.0924(8)
Hg1B Hg -0.51629(6) 0.22959(5) 1.16635(5)
Hg1_2 Hg -0.48371(6) 0.77041(5) 0.83365(5)
Hg1B_2 Hg -0.51629(6) 1.22959(5) 1.16635(5)
Hg1B_3 Hg 0.48371(6) 0.22959(5) 1.16635(5)
Hg2B Hg -0.22624(7) 0.53030(6) 1.02174(5)
I1B I -0.82359(9) 0.22133(6) 1.16015(5)
I2B I -0.25603(8) 0.35525(6) 1.20190(5)
I3B I -0.08558(9) 0.39877(6) 0.88338(5)
I4B I -0.45656(8) 0.67333(6) 1.07444(5)
I4_2 I -0.54344(8) 0.32667(6) 0.92556(5)
I4B_2 I 0.54344(8) 0.67333(6) 1.07444(5)
S1B S -0.2076(3) 1.1027(2) 0.9967(2)
S2B S -0.4123(3) 1.0032(3) 1.1535(2)
S2B_2 S -0.4123(3) 0.0032(3) 1.1535(2)
S3B S 0.0987(3) 1.0957(2) 0.8815(2)
loop_
_geom_bond_atom_site_label_1
_geom_bond_atom_site_label_2
_geom_bond_site_symmetry_1
_geom_bond_site_symmetry_2
C1 S1 1_555 1_555
C2 S1 1_555 1_555
Hg1 I1 1_555 1_555
Hg2 I2 1_555 1_555
I2 Hg1 1_555 1_555
I3 Hg2 1_555 1_555
I4 Hg2 1_555 1_555
S2 C2 1_555 1_555
S3 C1 1_555 1_555
C1B C1 1_555 1_555
C2B S3 1_555 1_555
Hg1B I1B 1_555 1_555
Hg1_2 I4B 1_555 1_555
Hg1B_2 S2B 1_555 1_555
Hg1B_3 I4 1_555 1_555
Hg2B I3 1_555 1_555
I2B Hg1B 1_555 1_555
I3B Hg2 1_555 1_555
I4B Hg2B 1_555 1_555
I4_2 Hg1B 1_555 1_555
I4B_2 Hg1 1_555 1_555
S1B C1B 1_555 1_555
S2B C2B 1_555 1_555
S2B_2 Hg1B 1_555 1_555
S3B C2 1_555 1_555
Hg1 S2 1_555 1_555
C1B S3B 1_555 1_555
C2B S1B 1_555 1_555
Hg2B I2B 1_555 1_555
Hg2B I3B 1_555 1_555

#END
