
#######################################################################
#
#                 Cambridge Crystallographic Data Centre
#                                CCDC 
#
#######################################################################
#
# If this CIF has been generated from an entry in the Cambridge 
# Structural Database, then it will include bibliographic, chemical, 
# crystal, experimental, refinement or atomic coordinate data resulting 
# from the CCDC's data processing and validation procedures.
#
#######################################################################

data_ULAYIQ
_symmetry_cell_setting           monoclinic
_symmetry_space_group_name_H-M   'P 21/n'
_symmetry_Int_Tables_number      14
_space_group_name_Hall           '-P 2yn'
loop_
_symmetry_equiv_pos_site_id
_symmetry_equiv_pos_as_xyz
1 x,y,z
2 1/2-x,1/2+y,1/2-z
3 -x,-y,-z
4 1/2+x,1/2-y,1/2+z
_cell_length_a                   9.953(2)
_cell_length_b                   7.5454(16)
_cell_length_c                   15.461(3)
_cell_angle_alpha                90
_cell_angle_beta                 105.126(2)
_cell_angle_gamma                90
_cell_volume                     1120.88
loop_
_atom_site_label
_atom_site_type_symbol
_atom_site_fract_x
_atom_site_fract_y
_atom_site_fract_z
Tb1 Tb 0.499147(11) 0.823001(18) 0.253250(7)
C1 C 0.5913(3) 0.8297(4) 0.06235(18)
C2 C 0.4542(3) 0.7331(4) 0.03360(17)
C3 C 0.3928(3) 0.6833(4) -0.05345(18)
H1 H 0.4367 0.7069 -0.0984
C4 C 0.2628(3) 0.5961(4) -0.07393(17)
C5 C 0.2059(3) 0.5615(4) -0.00148(17)
H2 H 0.1218 0.5012 -0.0109
C6 C 0.2739(3) 0.6163(4) 0.08284(17)
C7 C 0.2160(3) 0.5940(4) 0.16200(17)
H3 H 0.685(3) 0.519(5) 0.3081(14)
H4 H 0.678(4) 0.555(5) 0.2179(17)
H5 H 0.507(4) 0.547(2) 0.394(2)
H6 H 0.477(4) 0.706(4) 0.433(2)
H7 H 0.378(3) 1.090(5) 0.1149(12)
H8 H 0.339(4) 1.121(5) 0.196(2)
N1 N 0.3970(3) 0.7017(3) 0.10190(15)
O1 O 0.6315(2) 0.8714(3) 0.14414(12)
O2 O 0.6576(2) 0.8598(3) 0.00587(13)
O3 O 0.2780(2) 0.6745(3) 0.23225(14)
O4 O 0.1088(2) 0.5009(3) 0.15414(12)
O5 O 0.1971(2) 0.5510(3) -0.15625(12)
O6 O 0.6360(2) 0.5619(3) 0.25964(14)
O7 O 0.5014(3) 0.6624(3) 0.38879(14)
O8 O 0.3974(3) 1.0761(3) 0.17129(14)
Tb1A Tb 0.000853(11) 0.323001(18) 0.246750(7)
Tb1C Tb -0.000853(11) 0.676999(18) -0.246750(7)
O4A O 0.3912(2) 1.0009(3) 0.34586(12)
O5C O 0.6971(2) 0.9490(3) 0.34375(12)
H9 H 0.348(2) 0.664(5) 0.544(3)
H10 H 0.457(5) 0.756(7) 0.608(3)
O9 O 0.4360(3) 0.6777(3) 0.5670(2)
loop_
_geom_bond_atom_site_label_1
_geom_bond_atom_site_label_2
_geom_bond_site_symmetry_1
_geom_bond_site_symmetry_2
Tb1 N1 1_555 1_555
C1 C2 1_555 1_555
C2 C3 1_555 1_555
C3 H1 1_555 1_555
C4 C3 1_555 1_555
C5 C4 1_555 1_555
H2 C5 1_555 1_555
C6 C5 1_555 1_555
C7 C6 1_555 1_555
H3 O6 1_555 1_555
H4 O6 1_555 1_555
H5 O7 1_555 1_555
H6 O7 1_555 1_555
H7 O8 1_555 1_555
H8 O8 1_555 1_555
N1 C2 1_555 1_555
O1 Tb1 1_555 1_555
O2 C1 1_555 1_555
O3 Tb1 1_555 1_555
O4 C7 1_555 1_555
O5 C4 1_555 1_555
O6 Tb1 1_555 1_555
O7 Tb1 1_555 1_555
O8 Tb1 1_555 1_555
H9 O9 1_555 1_555
H10 O9 1_555 1_555
Tb1A O4 1_555 1_555
Tb1C O5 1_555 1_555
O4A Tb1 1_555 1_555
O5C Tb1 1_555 1_555
C1 O1 1_555 1_555
C6 N1 1_555 1_555
C7 O3 1_555 1_555

#END
