
#######################################################################
#
#                 Cambridge Crystallographic Data Centre
#                                CCDC 
#
#######################################################################
#
# If this CIF has been generated from an entry in the Cambridge 
# Structural Database, then it will include bibliographic, chemical, 
# crystal, experimental, refinement or atomic coordinate data resulting 
# from the CCDC's data processing and validation procedures.
#
#######################################################################

data_ULAYEL
_symmetry_cell_setting           monoclinic
_symmetry_space_group_name_H-M   'P 21'
_symmetry_Int_Tables_number      4
_space_group_name_Hall           'P 2yb'
loop_
_symmetry_equiv_pos_site_id
_symmetry_equiv_pos_as_xyz
1 x,y,z
2 -x,1/2+y,-z
_cell_length_a                   7.3830(10)
_cell_length_b                   19.801(3)
_cell_length_c                   9.297(3)
_cell_angle_alpha                90.00(2)
_cell_angle_beta                 100.26(2)
_cell_angle_gamma                90.00(2)
_cell_volume                     1337.4
loop_
_atom_site_label
_atom_site_type_symbol
_atom_site_fract_x
_atom_site_fract_y
_atom_site_fract_z
Ag1 Ag 0.07282(19) 0.18364(4) 0.35735(13)
N1 N -0.0022(18) 0.1478(7) 0.1213(14)
N2 N -0.7604(17) 0.1362(7) -0.4498(12)
O1 O -0.3687(14) 0.1752(5) -0.1797(10)
O5 O 0.0000(16) 0.2965(7) 0.2932(15)
O6 O 0.2725(18) 0.3132(9) 0.4385(14)
C1 C -0.159(2) 0.1676(7) 0.0432(14)
H1 H -0.2389 0.1944 0.0850
C2 C -0.2039(18) 0.1485(8) -0.1013(15)
C3 C -0.0949(16) 0.1033(10) -0.1681(16)
H2 H -0.1278 0.0883 -0.2639
C4 C 0.0561(19) 0.0850(10) -0.0817(15)
H3 H 0.1360 0.0564 -0.1195
C5 C 0.1052(17) 0.1050(8) 0.0620(19)
H4 H 0.2133 0.0887 0.1183
C6 C -0.622(2) 0.1671(6) -0.3680(14)
H5 H -0.6111 0.2132 -0.3834
C7 C -0.4884(19) 0.1378(8) -0.2599(14)
C8 C -0.515(2) 0.0622(8) -0.2370(18)
H6 H -0.4368 0.0380 -0.1659
C9 C -0.656(2) 0.0326(10) -0.3234(17)
H7 H -0.6750 -0.0135 -0.3135
C10 C -0.774(2) 0.0684(9) -0.4265(18)
H8 H -0.8688 0.0450 -0.4845
C23 C 0.146(2) 0.3257(9) 0.3420(19)
C24 C 0.152(3) 0.4044(10) 0.293(2)
F1 F 0.016(3) 0.4387(9) 0.326(3)
F2 F 0.058(2) 0.4094(8) 0.1550(15)
F3 F 0.3018(14) 0.4246(8) 0.297(2)
N2_2 N 0.2396(17) 0.1362(7) 0.5502(12)
Ag1_2 Ag -0.92718(19) 0.18364(4) -0.64265(13)
Ag2 Ag 0.57166(18) 0.25616(4) 0.35804(13)
N3 N 0.4975(17) 0.2942(7) 0.1251(10)
N4 N -0.2573(14) 0.3085(8) -0.4499(13)
O2 O 0.1401(14) 0.2641(7) -0.1875(11)
O3 O 0.5104(18) 0.1418(6) 0.2745(14)
O4 O 0.7716(16) 0.1304(8) 0.4342(13)
C11 C 0.3433(17) 0.2709(8) 0.0305(16)
H9 H 0.2735 0.2372 0.0640
C12 C 0.288(2) 0.2941(7) -0.1082(14)
C13 C 0.398(2) 0.3370(9) -0.1578(18)
H10 H 0.3697 0.3510 -0.2548
C14 C 0.564(2) 0.3636(12) -0.064(3)
H11 H 0.6398 0.3956 -0.0961
C15 C 0.598(2) 0.3385(11) 0.0696(16)
H12 H 0.7031 0.3538 0.1307
C16 C -0.1168(17) 0.2732(8) -0.3697(12)
H13 H -0.1003 0.2274 -0.3855
C17 C 0.0000(18) 0.3084(9) -0.2641(14)
C18 C -0.0120(19) 0.3692(9) -0.2411(17)
H14 H 0.0727 0.3907 -0.1697
C19 C -0.161(2) 0.4065(10) -0.328(2)
H15 H -0.1746 0.4527 -0.3154
C20 C -0.2799(19) 0.3714(8) -0.4286(15)
H16 H -0.3801 0.3936 -0.4833
C21 C 0.633(2) 0.1062(9) 0.3455(16)
C22 C 0.635(2) 0.0389(9) 0.2889(18)
F4 F 0.641(3) 0.0303(8) 0.1535(14)
F5 F 0.544(2) 0.0000(7) 0.3486(17)
F6 F 0.786(2) 0.0042(9) 0.339(3)
N4_2 N 0.7427(14) 0.3085(8) 0.5501(13)
Ag2_2 Ag -0.42834(18) 0.25616(4) -0.64196(13)
loop_
_geom_bond_atom_site_label_1
_geom_bond_atom_site_label_2
_geom_bond_site_symmetry_1
_geom_bond_site_symmetry_2
Ag1 N1 1_555 1_555
Ag2 N3 1_555 1_555
N1 C1 1_555 1_555
N2 C6 1_555 1_555
N3 C11 1_555 1_555
N4 C16 1_555 1_555
O1 C2 1_555 1_555
O2 C12 1_555 1_555
O3 Ag2 1_555 1_555
O4 C21 1_555 1_555
O5 Ag1 1_555 1_555
O6 C23 1_555 1_555
C1 H1 1_555 1_555
C2 C1 1_555 1_555
C3 C2 1_555 1_555
H2 C3 1_555 1_555
C4 C3 1_555 1_555
H3 C4 1_555 1_555
C5 N1 1_555 1_555
H4 C5 1_555 1_555
C6 H5 1_555 1_555
C7 O1 1_555 1_555
C8 C7 1_555 1_555
H6 C8 1_555 1_555
C9 C8 1_555 1_555
H7 C9 1_555 1_555
C10 N2 1_555 1_555
H8 C10 1_555 1_555
C11 H9 1_555 1_555
C12 C11 1_555 1_555
C13 C12 1_555 1_555
H10 C13 1_555 1_555
C14 C13 1_555 1_555
H11 C14 1_555 1_555
C15 N3 1_555 1_555
H12 C15 1_555 1_555
C16 H13 1_555 1_555
C17 O2 1_555 1_555
C18 C17 1_555 1_555
H14 C18 1_555 1_555
C19 C18 1_555 1_555
H15 C19 1_555 1_555
C20 N4 1_555 1_555
H16 C20 1_555 1_555
C21 O3 1_555 1_555
C22 C21 1_555 1_555
C23 O5 1_555 1_555
C24 C23 1_555 1_555
F1 C24 1_555 1_555
F2 C24 1_555 1_555
F3 C24 1_555 1_555
F4 C22 1_555 1_555
F5 C22 1_555 1_555
F6 C22 1_555 1_555
N2_2 Ag1 1_555 1_555
N4_2 Ag2 1_555 1_555
Ag1_2 N2 1_555 1_555
Ag2_2 N4 1_555 1_555
C4 C5 1_555 1_555
C6 C7 1_555 1_555
C9 C10 1_555 1_555
C14 C15 1_555 1_555
C16 C17 1_555 1_555
C19 C20 1_555 1_555

#END
