
#######################################################################
#
#                 Cambridge Crystallographic Data Centre
#                                CCDC 
#
#######################################################################
#
# If this CIF has been generated from an entry in the Cambridge 
# Structural Database, then it will include bibliographic, chemical, 
# crystal, experimental, refinement or atomic coordinate data resulting 
# from the CCDC's data processing and validation procedures.
#
#######################################################################

data_ULEGOH
_symmetry_cell_setting           cubic
_symmetry_space_group_name_H-M   'I a -3 d'
_symmetry_Int_Tables_number      230
_space_group_name_Hall           '-I 4bd 2c 3'
loop_
_symmetry_equiv_pos_site_id
_symmetry_equiv_pos_as_xyz
1 x,y,z
2 z,x,y
3 y,z,x
4 3/4+y,1/4+x,1/4-z
5 1/4+y,1/4-x,3/4+z
6 1/4-y,3/4+x,1/4+z
7 3/4+x,1/4+z,1/4-y
8 1/4-x,3/4+z,1/4+y
9 1/4+x,1/4-z,3/4+y
10 3/4+z,1/4+y,1/4-x
11 1/4+z,1/4-y,3/4+x
12 1/4-z,3/4+y,1/4+x
13 1/2+x,1/2+y,1/2+z
14 1/2+z,1/2+x,1/2+y
15 1/2+y,1/2+z,1/2+x
16 1/4+y,3/4+x,3/4-z
17 1/4-y,1/4-x,1/4-z
18 3/4+y,3/4-x,1/4+z
19 3/4-y,1/4+x,3/4+z
20 1/4+x,3/4+z,3/4-y
21 3/4-x,1/4+z,3/4+y
22 1/4-x,1/4-z,1/4-y
23 3/4+x,3/4-z,1/4+y
24 1/4+z,3/4+y,3/4-x
25 3/4+z,3/4-y,1/4+x
26 3/4-z,1/4+y,3/4+x
27 1/4-z,1/4-y,1/4-x
28 1/2+x,y,1/2-z
29 x,1/2-y,1/2+z
30 1/2-x,1/2+y,z
31 1/2-z,1/2+x,y
32 1/2+z,x,1/2-y
33 z,1/2-x,1/2+y
34 y,1/2-z,1/2+x
35 1/2-y,1/2+z,x
36 1/2+y,z,1/2-x
37 1/4+y,1/4+x,1/4+z
38 1/4+x,1/4+z,1/4+y
39 1/4+z,1/4+y,1/4+x
40 x,1/2+y,-z
41 1/2+x,-y,z
42 -x,y,1/2+z
43 -z,x,1/2+y
44 z,1/2+x,-y
45 1/2+z,-x,y
46 1/2+y,-z,x
47 -y,z,1/2+x
48 y,1/2+z,-x
49 -x,-y,-z
50 -z,-x,-y
51 -y,-z,-x
52 1/4-y,3/4-x,3/4+z
53 3/4-y,3/4+x,1/4-z
54 3/4+y,1/4-x,3/4-z
55 1/4-x,3/4-z,3/4+y
56 3/4+x,1/4-z,3/4-y
57 3/4-x,3/4+z,1/4-y
58 1/4-z,3/4-y,3/4+x
59 3/4-z,3/4+y,1/4-x
60 3/4+z,1/4-y,3/4-x
61 1/2-x,1/2-y,1/2-z
62 1/2-z,1/2-x,1/2-y
63 1/2-y,1/2-z,1/2-x
64 3/4-y,1/4-x,1/4+z
65 3/4+y,3/4+x,3/4+z
66 1/4-y,1/4+x,3/4-z
67 1/4+y,3/4-x,1/4-z
68 3/4-x,1/4-z,1/4+y
69 1/4+x,3/4-z,1/4-y
70 3/4+x,3/4+z,3/4+y
71 1/4-x,1/4+z,3/4-y
72 3/4-z,1/4-y,1/4+x
73 1/4-z,1/4+y,3/4-x
74 1/4+z,3/4-y,1/4-x
75 3/4+z,3/4+y,3/4+x
76 1/2-x,-y,1/2+z
77 -x,1/2+y,1/2-z
78 1/2+x,1/2-y,-z
79 1/2+z,1/2-x,-y
80 1/2-z,-x,1/2+y
81 -z,1/2+x,1/2-y
82 -y,1/2+z,1/2-x
83 1/2+y,1/2-z,-x
84 1/2-y,-z,1/2+x
85 3/4-y,3/4-x,3/4-z
86 3/4-x,3/4-z,3/4-y
87 3/4-z,3/4-y,3/4-x
88 -x,1/2-y,z
89 1/2-x,y,-z
90 x,-y,1/2-z
91 z,-x,1/2-y
92 -z,1/2-x,y
93 1/2-z,x,-y
94 1/2-y,z,-x
95 y,-z,1/2-x
96 -y,1/2-z,x
_cell_length_a                   33.5375(3)
_cell_length_b                   33.5375(3)
_cell_length_c                   33.5375(3)
_cell_angle_alpha                90
_cell_angle_beta                 90
_cell_angle_gamma                90
_cell_volume                     37721.8
loop_
_atom_site_label
_atom_site_type_symbol
_atom_site_fract_x
_atom_site_fract_y
_atom_site_fract_z
Cu1 Cu 0.063699(12) 0.158521(11) 0.856841(12)
O1 O 0.06434(7) 0.10049(7) 0.85236(7)
C1 C 0.02989(10) 0.08232(10) 0.86182(11)
C2 C 0.01104(11) 0.05689(11) 0.83514(13)
H1 H 0.0225 0.0519 0.8101
C3 C -0.02435(13) 0.03911(14) 0.84547(17)
H2 H -0.0371 0.0219 0.8274
C4 C -0.04134(15) 0.04638(15) 0.88236(19)
H3 H -0.0656 0.0341 0.8894
C5 C -0.02249(14) 0.07180(13) 0.90892(16)
H4 H -0.0341 0.0767 0.9339
C6 C 0.01300(11) 0.09001(10) 0.89926(11)
C7 C 0.03471(11) 0.11660(10) 0.92819(10)
H5 H 0.0194 0.1185 0.9530
H6 H 0.0607 0.1048 0.9346
N1 N 0.04076(8) 0.15728(8) 0.91146(8)
H7 H 0.0191(11) 0.1675(11) 0.9086(10)
C8 C 0.06506(10) 0.18610(10) 0.93495(10)
C9 C 0.04628(14) 0.19768(13) 0.97508(11)
H8 H 0.0328 0.2235 0.9730
H9 H 0.0267 0.1776 0.9834
C10 C 0.0798(3) 0.1999(3) 1.00460(19)
H10 H 0.0703 0.1960 1.0320
H11 H 0.0940 0.2254 1.0028
C11 C 0.1066(3) 0.1646(3) 0.9906(2)
H12 H 0.1335 0.1668 1.0017
H13 H 0.0951 0.1390 0.9986
C12 C 0.10703(12) 0.16893(14) 0.94571(16)
H14 H 0.1112 0.1430 0.9328
H15 H 0.1282 0.1872 0.9373
C13 C 0.07233(10) 0.22193(10) 0.90760(10)
O2 O 0.07344(8) 0.21442(7) 0.87002(7)
O3 O 0.07794(8) 0.25497(7) 0.92260(7)
O1J O 0.10236(7) 0.14951(7) 0.81434(7)
C1J C 0.11182(11) 0.16768(10) 0.77989(10)
C2J C 0.08514(13) 0.19311(11) 0.76104(11)
H1J H 0.0601 0.1981 0.7725
C3J C 0.09547(17) 0.21089(14) 0.72565(13)
H2J H 0.0774 0.2281 0.7129
C4J C 0.13236(19) 0.20362(15) 0.70866(15)
H3J H 0.1394 0.2159 0.6844
C5J C 0.15892(16) 0.17820(13) 0.72751(14)
H4J H 0.1839 0.1733 0.7159
C6J C 0.14926(11) 0.15999(10) 0.76300(11)
C7J C 0.17819(10) 0.13340(10) 0.78471(11)
H5J H 0.2030 0.1315 0.7694
H6J H 0.1846 0.1452 0.8107
N1J N 0.16146(8) 0.09272(8) 0.79076(8)
H7J H 0.1586(10) 0.0825(11) 0.7691(11)
C8J C 0.18495(10) 0.06390(10) 0.81506(10)
C9J C 0.22508(11) 0.05232(13) 0.79628(14)
H8J H 0.2230 0.0265 0.7828
H9J H 0.2334 0.0724 0.7767
C10J C 0.25460(19) 0.0501(3) 0.8298(3)
H10J H 0.2820 0.0540 0.8203
H11J H 0.2528 0.0246 0.8440
C11J C 0.2406(2) 0.0854(3) 0.8566(3)
H12J H 0.2517 0.0832 0.8835
H13J H 0.2486 0.1110 0.8451
C12J C 0.19571(16) 0.08107(14) 0.85703(12)
H14J H 0.1828 0.1070 0.8612
H15J H 0.1873 0.0628 0.8782
C13J C 0.15760(10) 0.02807(10) 0.82233(10)
O2J O 0.12002(7) 0.03558(7) 0.82344(8)
O3J O 0.17260(7) -0.00497(7) 0.82794(8)
O1AB O -0.14951(7) 0.18566(7) 0.89764(7)
C1AB C -0.16768(10) 0.22011(10) 0.88818(11)
C2AB C -0.19311(11) 0.23896(11) 0.91486(13)
H1AB H -0.1981 0.2275 0.9399
C3AB C -0.21089(14) 0.27435(13) 0.90453(17)
H2AB H -0.2281 0.2871 0.9226
C4AB C -0.20362(15) 0.29134(15) 0.86764(19)
H3AB H -0.2159 0.3156 0.8606
C5AB C -0.17820(13) 0.27249(14) 0.84108(16)
H4AB H -0.1733 0.2841 0.8161
C6AB C -0.15999(10) 0.23700(11) 0.85074(11)
C7AB C -0.13340(10) 0.21529(11) 0.82181(10)
H5AB H -0.1315 0.2306 0.7970
H6AB H -0.1452 0.1893 0.8154
N1AB N -0.09272(8) 0.20924(8) 0.83854(8)
H7AB H -0.0825(11) 0.2309(11) 0.8414(10)
C8AB C -0.06390(10) 0.18494(10) 0.81505(10)
C9AB C -0.05232(13) 0.20372(14) 0.77492(11)
H8AB H -0.0265 0.2172 0.7770
H9AB H -0.0724 0.2233 0.7666
C10AB C -0.0501(3) 0.1702(3) 0.74540(19)
H10AB H -0.0540 0.1797 0.7180
H11AB H -0.0246 0.1560 0.7472
C11AB C -0.0854(3) 0.1434(3) 0.7594(2)
H12AB H -0.0832 0.1165 0.7483
H13AB H -0.1110 0.1549 0.7514
C12AB C -0.08107(14) 0.14297(12) 0.80429(16)
H14AB H -0.1070 0.1388 0.8172
H15AB H -0.0628 0.1218 0.8127
C13AB C -0.02807(10) 0.17767(10) 0.84240(10)
O2AB O -0.03558(7) 0.17656(8) 0.87998(7)
O3AB O 0.00497(7) 0.17206(8) 0.82740(7)
Cu1J Cu 0.106841(12) 0.091479(11) 0.813699(12)
Cu1AB Cu -0.091479(11) 0.186301(12) 0.893159(12)
Cu1XA Cu -0.158521(11) 0.143159(12) 0.936301(12)
Cu1MB Cu 0.091479(11) 0.313699(12) 0.893159(12)
Cu1WA Cu 0.143159(12) -0.063699(12) 0.841479(11)
O1PA O 0.14764(7) 0.06434(7) 0.60049(7)
C1PA C 0.13818(11) 0.02989(10) 0.58232(10)
C2PA C 0.16486(13) 0.01104(11) 0.55689(11)
H1PA H 0.1899 0.0225 0.5519
C3PA C 0.15453(17) -0.02435(13) 0.53911(14)
H2PA H 0.1726 -0.0371 0.5219
C4PA C 0.11764(19) -0.04134(15) 0.54638(15)
H3PA H 0.1106 -0.0656 0.5341
C5PA C 0.09108(16) -0.02249(14) 0.57180(13)
H4PA H 0.0661 -0.0341 0.5767
C6PA C 0.10074(11) 0.01300(11) 0.59001(10)
C7PA C 0.07181(10) 0.03471(11) 0.61660(10)
H5PA H 0.0470 0.0194 0.6185
H6PA H 0.0654 0.0607 0.6048
N1PA N 0.08854(8) 0.04076(8) 0.65728(8)
H7PA H 0.0914(10) 0.0191(11) 0.6675(11)
C8PA C 0.06505(10) 0.06506(10) 0.68610(10)
C9PA C 0.02492(11) 0.04628(14) 0.69768(13)
H8PA H 0.0270 0.0328 0.7235
H9PA H 0.0166 0.0267 0.6776
C10PA C -0.00460(19) 0.0798(3) 0.6999(3)
H10PA H -0.0320 0.0703 0.6960
H11PA H -0.0028 0.0940 0.7254
C11PA C 0.0094(2) 0.1066(3) 0.6646(3)
H12PA H -0.0017 0.1335 0.6668
H13PA H 0.0014 0.0951 0.6390
C12PA C 0.05429(16) 0.10703(12) 0.66893(14)
H14PA H 0.0672 0.1112 0.6430
H15PA H 0.0627 0.1282 0.6872
C13PA C 0.09240(10) 0.07233(10) 0.72193(10)
O2PA O 0.12998(7) 0.07344(8) 0.71442(7)
O3PA O 0.07740(7) 0.07794(8) 0.75497(7)
O1XA O -0.10049(7) 0.14764(7) 0.93566(7)
C1XA C -0.08232(10) 0.13818(11) 0.97011(10)
C2XA C -0.05689(11) 0.16486(13) 0.98896(11)
H1XA H -0.0519 0.1899 0.9775
C3XA C -0.03911(14) 0.15453(17) 1.02435(13)
H2XA H -0.0219 0.1726 1.0371
C4XA C -0.04638(15) 0.11764(19) 1.04134(15)
H3XA H -0.0341 0.1106 1.0656
C5XA C -0.07180(13) 0.09108(16) 1.02249(14)
H4XA H -0.0767 0.0661 1.0341
C6XA C -0.09001(10) 0.10074(11) 0.98700(11)
C7XA C -0.11660(10) 0.07181(10) 0.96529(11)
H5XA H -0.1185 0.0470 0.9806
H6XA H -0.1048 0.0654 0.9393
N1XA N -0.15728(8) 0.08854(8) 0.95924(8)
H7XA H -0.1675(11) 0.0914(10) 0.9809(11)
C8XA C -0.18610(10) 0.06505(10) 0.93494(10)
C9XA C -0.19768(13) 0.02492(11) 0.95372(14)
H8XA H -0.2235 0.0270 0.9672
H9XA H -0.1776 0.0166 0.9733
C10XA C -0.1999(3) -0.00460(19) 0.9202(3)
H10XA H -0.1960 -0.0320 0.9297
H11XA H -0.2254 -0.0028 0.9060
C11XA C -0.1646(3) 0.0094(2) 0.8934(3)
H12XA H -0.1668 -0.0017 0.8665
H13XA H -0.1390 0.0014 0.9049
C12XA C -0.16893(14) 0.05429(16) 0.89297(12)
H14XA H -0.1430 0.0672 0.8888
H15XA H -0.1872 0.0627 0.8718
C13XA C -0.22193(10) 0.09240(10) 0.92767(10)
O2XA O -0.21442(7) 0.12998(7) 0.92656(8)
O3XA O -0.25497(7) 0.07740(7) 0.92206(8)
O1IC O -0.06434(7) 0.39951(7) 0.85236(7)
C1IC C -0.02989(10) 0.41768(10) 0.86182(11)
C2IC C -0.01104(11) 0.44311(11) 0.83514(13)
H1IC H -0.0225 0.4481 0.8101
C3IC C 0.02435(13) 0.46089(14) 0.84547(17)
H2IC H 0.0371 0.4781 0.8274
C4IC C 0.04134(15) 0.45362(15) 0.88236(19)
H3IC H 0.0656 0.4659 0.8894
C5IC C 0.02249(14) 0.42820(13) 0.90892(16)
H4IC H 0.0341 0.4233 0.9339
C6IC C -0.01300(11) 0.40999(10) 0.89926(11)
C7IC C -0.03471(11) 0.38340(10) 0.92819(10)
H5IC H -0.0194 0.3815 0.9530
H6IC H -0.0607 0.3952 0.9346
N1IC N -0.04076(8) 0.34272(8) 0.91146(8)
H7IC H -0.0191(11) 0.3325(11) 0.9086(10)
C8IC C -0.06506(10) 0.31390(10) 0.93495(10)
C9IC C -0.04628(14) 0.30232(13) 0.97508(11)
H8IC H -0.0328 0.2765 0.9730
H9IC H -0.0267 0.3224 0.9834
C10IC C -0.0798(3) 0.3001(3) 1.00460(19)
H10IC H -0.0703 0.3040 1.0320
H11IC H -0.0940 0.2746 1.0028
C11IC C -0.1066(3) 0.3354(3) 0.9906(2)
H12IC H -0.1335 0.3332 1.0017
H13IC H -0.0951 0.3610 0.9986
C12IC C -0.10703(12) 0.33107(14) 0.94571(16)
H14IC H -0.1112 0.3570 0.9328
H15IC H -0.1282 0.3128 0.9373
C13IC C -0.07233(10) 0.27807(10) 0.90760(10)
O2IC O -0.07344(8) 0.28558(7) 0.87002(7)
O3IC O -0.07794(8) 0.24503(7) 0.92260(7)
O1F O -0.18566(7) 0.10236(7) 1.14951(7)
C1F C -0.22011(10) 0.11182(11) 1.16768(10)
C2F C -0.23896(11) 0.08514(13) 1.19311(11)
H1F H -0.2275 0.0601 1.1981
C3F C -0.27435(13) 0.09547(17) 1.21089(14)
H2F H -0.2871 0.0774 1.2281
C4F C -0.29134(15) 0.13236(19) 1.20362(15)
H3F H -0.3156 0.1394 1.2159
C5F C -0.27249(14) 0.15892(16) 1.17820(13)
H4F H -0.2841 0.1839 1.1733
C6F C -0.23700(11) 0.14926(11) 1.15999(10)
C7F C -0.21529(11) 0.17819(10) 1.13340(10)
H5F H -0.2306 0.2030 1.1315
H6F H -0.1893 0.1846 1.1452
N1F N -0.20924(8) 0.16146(8) 1.09272(8)
H7F H -0.2309(11) 0.1586(10) 1.0825(11)
C8F C -0.18494(10) 0.18495(10) 1.06390(10)
C9F C -0.20372(14) 0.22508(11) 1.05232(13)
H8F H -0.2172 0.2230 1.0265
H9F H -0.2233 0.2334 1.0724
C10F C -0.1702(3) 0.25460(19) 1.0501(3)
H10F H -0.1797 0.2820 1.0540
H11F H -0.1560 0.2528 1.0246
C11F C -0.1434(3) 0.2406(2) 1.0854(3)
H12F H -0.1165 0.2517 1.0832
H13F H -0.1549 0.2486 1.1110
C12F C -0.14297(12) 0.19571(16) 1.08107(14)
H14F H -0.1388 0.1828 1.1070
H15F H -0.1218 0.1873 1.0628
C13F C -0.17767(10) 0.15760(10) 1.02807(10)
O2F O -0.17656(8) 0.12002(7) 1.03558(7)
O3F O -0.17206(8) 0.17260(7) 0.99503(7)
O1MB O 0.14951(7) 0.31434(7) 0.89764(7)
C1MB C 0.16768(10) 0.27989(10) 0.88818(11)
C2MB C 0.19311(11) 0.26104(11) 0.91486(13)
H1MB H 0.1981 0.2725 0.9399
C3MB C 0.21089(14) 0.22565(13) 0.90453(17)
H2MB H 0.2281 0.2129 0.9226
C4MB C 0.20362(15) 0.20866(15) 0.86764(19)
H3MB H 0.2159 0.1844 0.8606
C5MB C 0.17820(13) 0.22751(14) 0.84108(16)
H4MB H 0.1733 0.2159 0.8161
C6MB C 0.15999(10) 0.26300(11) 0.85074(11)
C7MB C 0.13340(10) 0.28471(11) 0.82181(10)
H5MB H 0.1315 0.2694 0.7970
H6MB H 0.1452 0.3107 0.8154
N1MB N 0.09272(8) 0.29076(8) 0.83854(8)
H7MB H 0.0825(11) 0.2691(11) 0.8414(10)
C8MB C 0.06390(10) 0.31506(10) 0.81505(10)
C9MB C 0.05232(13) 0.29628(14) 0.77492(11)
H8MB H 0.0265 0.2828 0.7770
H9MB H 0.0724 0.2767 0.7666
C10MB C 0.0501(3) 0.3298(3) 0.74540(19)
H10MB H 0.0540 0.3203 0.7180
H11MB H 0.0246 0.3440 0.7472
C11MB C 0.0854(3) 0.3566(3) 0.7594(2)
H12MB H 0.0832 0.3835 0.7483
H13MB H 0.1110 0.3451 0.7514
C12MB C 0.08107(14) 0.35703(12) 0.80429(16)
H14MB H 0.1070 0.3612 0.8172
H15MB H 0.0628 0.3782 0.8127
C13MB C 0.02807(10) 0.32233(10) 0.84240(10)
O2MB O 0.03558(7) 0.32344(8) 0.87998(7)
O3MB O -0.00497(7) 0.32794(8) 0.82740(7)
O1UA O 0.10049(7) 0.35236(7) 0.93566(7)
C1UA C 0.08232(10) 0.36182(11) 0.97011(10)
C2UA C 0.05689(11) 0.33514(13) 0.98896(11)
H1UA H 0.0519 0.3101 0.9775
C3UA C 0.03911(14) 0.34547(17) 1.02435(13)
H2UA H 0.0219 0.3274 1.0371
C4UA C 0.04638(15) 0.38236(19) 1.04134(15)
H3UA H 0.0341 0.3894 1.0656
C5UA C 0.07180(13) 0.40892(16) 1.02249(14)
H4UA H 0.0767 0.4339 1.0341
C6UA C 0.09001(10) 0.39926(11) 0.98700(11)
C7UA C 0.11660(10) 0.42819(10) 0.96529(11)
H5UA H 0.1185 0.4530 0.9806
H6UA H 0.1048 0.4346 0.9393
N1UA N 0.15728(8) 0.41146(8) 0.95924(8)
H7UA H 0.1675(11) 0.4086(10) 0.9809(11)
C8UA C 0.18610(10) 0.43495(10) 0.93494(10)
C9UA C 0.19768(13) 0.47508(11) 0.95372(14)
H8UA H 0.2235 0.4730 0.9672
H9UA H 0.1776 0.4834 0.9733
C10UA C 0.1999(3) 0.50460(19) 0.9202(3)
H10UA H 0.1960 0.5320 0.9297
H11UA H 0.2254 0.5028 0.9060
C11UA C 0.1646(3) 0.4906(2) 0.8934(3)
H12UA H 0.1668 0.5017 0.8665
H13UA H 0.1390 0.4986 0.9049
C12UA C 0.16893(14) 0.44571(16) 0.89297(12)
H14UA H 0.1430 0.4328 0.8888
H15UA H 0.1872 0.4373 0.8718
C13UA C 0.22193(10) 0.40760(10) 0.92767(10)
O2UA O 0.21442(7) 0.37002(7) 0.92656(8)
O3UA O 0.25497(7) 0.42260(7) 0.92206(8)
O1WA O 0.14764(7) -0.06434(7) 0.89951(7)
C1WA C 0.13818(11) -0.02989(10) 0.91768(10)
C2WA C 0.16486(13) -0.01104(11) 0.94311(11)
H1WA H 0.1899 -0.0225 0.9481
C3WA C 0.15453(17) 0.02435(13) 0.96089(14)
H2WA H 0.1726 0.0371 0.9781
C4WA C 0.11764(19) 0.04134(15) 0.95362(15)
H3WA H 0.1106 0.0656 0.9659
C5WA C 0.09108(16) 0.02249(14) 0.92820(13)
H4WA H 0.0661 0.0341 0.9233
C6WA C 0.10074(11) -0.01300(11) 0.90999(10)
C7WA C 0.07181(10) -0.03471(11) 0.88340(10)
H5WA H 0.0470 -0.0194 0.8815
H6WA H 0.0654 -0.0607 0.8952
N1WA N 0.08854(8) -0.04076(8) 0.84272(8)
H7WA H 0.0914(10) -0.0191(11) 0.8325(11)
C8WA C 0.06505(10) -0.06506(10) 0.81390(10)
C9WA C 0.02492(11) -0.04628(14) 0.80232(13)
H8WA H 0.0270 -0.0328 0.7765
H9WA H 0.0166 -0.0267 0.8224
C10WA C -0.00460(19) -0.0798(3) 0.8001(3)
H10WA H -0.0320 -0.0703 0.8040
H11WA H -0.0028 -0.0940 0.7746
C11WA C 0.0094(2) -0.1066(3) 0.8354(3)
H12WA H -0.0017 -0.1335 0.8332
H13WA H 0.0014 -0.0951 0.8610
C12WA C 0.05429(16) -0.10703(12) 0.83107(14)
H14WA H 0.0672 -0.1112 0.8570
H15WA H 0.0627 -0.1282 0.8128
C13WA C 0.09240(10) -0.07233(10) 0.77807(10)
O2WA O 0.12998(7) -0.07344(8) 0.78558(7)
O3WA O 0.07740(7) -0.07794(8) 0.74503(7)
O1BB O 0.18566(7) -0.10236(7) 0.85049(7)
C1BB C 0.22011(10) -0.11182(11) 0.83232(10)
C2BB C 0.23896(11) -0.08514(13) 0.80689(11)
H1BB H 0.2275 -0.0601 0.8019
C3BB C 0.27435(13) -0.09547(17) 0.78911(14)
H2BB H 0.2871 -0.0774 0.7719
C4BB C 0.29134(15) -0.13236(19) 0.79638(15)
H3BB H 0.3156 -0.1394 0.7841
C5BB C 0.27249(14) -0.15892(16) 0.82180(13)
H4BB H 0.2841 -0.1839 0.8267
C6BB C 0.23700(11) -0.14926(11) 0.84001(10)
C7BB C 0.21529(11) -0.17819(10) 0.86660(10)
H5BB H 0.2306 -0.2030 0.8685
H6BB H 0.1893 -0.1846 0.8548
N1BB N 0.20924(8) -0.16146(8) 0.90728(8)
H7BB H 0.2309(11) -0.1586(10) 0.9175(11)
C8BB C 0.18494(10) -0.18495(10) 0.93610(10)
C9BB C 0.20372(14) -0.22508(11) 0.94768(13)
H8BB H 0.2172 -0.2230 0.9735
H9BB H 0.2233 -0.2334 0.9276
C10BB C 0.1702(3) -0.25460(19) 0.9499(3)
H10BB H 0.1797 -0.2820 0.9460
H11BB H 0.1560 -0.2528 0.9754
C11BB C 0.1434(3) -0.2406(2) 0.9146(3)
H12BB H 0.1165 -0.2517 0.9168
H13BB H 0.1549 -0.2486 0.8890
C12BB C 0.14297(12) -0.19571(16) 0.91893(14)
H14BB H 0.1388 -0.1828 0.8930
H15BB H 0.1218 -0.1873 0.9372
C13BB C 0.17767(10) -0.15760(10) 0.97193(10)
O2BB O 0.17656(8) -0.12002(7) 0.96442(7)
O3BB O 0.17206(8) -0.17260(7) 1.00497(7)
Cu1PA Cu 0.143159(12) 0.063699(12) 0.658521(11)
Cu1IC Cu -0.063699(12) 0.341479(11) 0.856841(12)
Cu1F Cu -0.186301(12) 0.106841(12) 1.091479(11)
Cu1UA Cu 0.158521(11) 0.356841(12) 0.936301(12)
Cu1BB Cu 0.186301(12) -0.106841(12) 0.908521(11)
Cu1RB Cu 0.186301(12) 0.106841(12) 0.591479(11)
O1RB O 0.18566(7) 0.10236(7) 0.64951(7)
C1RB C 0.22011(10) 0.11182(11) 0.66768(10)
C2RB C 0.23896(11) 0.08514(13) 0.69311(11)
H1RB H 0.2275 0.0601 0.6981
C3RB C 0.27435(13) 0.09547(17) 0.71089(14)
H2RB H 0.2871 0.0774 0.7281
C4RB C 0.29134(15) 0.13236(19) 0.70362(15)
H3RB H 0.3156 0.1394 0.7159
C5RB C 0.27249(14) 0.15892(16) 0.67820(13)
H4RB H 0.2841 0.1839 0.6733
C6RB C 0.23700(11) 0.14926(11) 0.65999(10)
C7RB C 0.21529(11) 0.17819(10) 0.63340(10)
H5RB H 0.2306 0.2030 0.6315
H6RB H 0.1893 0.1846 0.6452
N1RB N 0.20924(8) 0.16146(8) 0.59272(8)
H7RB H 0.2309(11) 0.1586(10) 0.5825(11)
C8RB C 0.18494(10) 0.18495(10) 0.56390(10)
C9RB C 0.20372(14) 0.22508(11) 0.55232(13)
H8RB H 0.2172 0.2230 0.5265
H9RB H 0.2233 0.2334 0.5724
C10RB C 0.1702(3) 0.25460(19) 0.5501(3)
H10RB H 0.1797 0.2820 0.5540
H11RB H 0.1560 0.2528 0.5246
C11RB C 0.1434(3) 0.2406(2) 0.5854(3)
H12RB H 0.1165 0.2517 0.5832
H13RB H 0.1549 0.2486 0.6110
C12RB C 0.14297(12) 0.19571(16) 0.58107(14)
H14RB H 0.1388 0.1828 0.6070
H15RB H 0.1218 0.1873 0.5628
C13RB C 0.17767(10) 0.15760(10) 0.52807(10)
O2RB O 0.17656(8) 0.12002(7) 0.53558(7)
O3RB O 0.17206(8) 0.17260(7) 0.49503(7)
Cu1T Cu -0.313699(12) 0.106841(12) 0.908521(11)
Cu1Y Cu -0.106841(12) 0.408521(11) 0.813699(12)
Cu1A Cu -0.143159(12) 0.063699(12) 1.158521(11)
Cu1H Cu 0.313699(12) 0.393159(12) 0.908521(11)
Cu1W Cu 0.106841(12) -0.091479(11) 0.686301(12)
Cu1B Cu 0.158521(11) -0.143159(12) 1.063699(12)
O3W O 0.17260(7) 0.00497(7) 0.67206(8)
O1Y O -0.10236(7) 0.35049(7) 0.81434(7)
O1A O -0.14764(7) 0.06434(7) 1.10049(7)
O3SA O -0.24503(7) 0.07740(7) 1.07794(8)
O3U O 0.17206(8) 0.32740(7) 0.99503(7)
O3OC O 0.24503(7) -0.07740(7) 0.92206(8)
O3EC O 0.24503(7) 0.07740(7) 0.57794(8)
Cu1PC Cu 0.158521(11) 0.143159(12) 0.436301(12)
O4 O -0.1250 0.0000 0.7500
O7 O 0.1025(10) 0.1025(10) 1.1025(10)
O8 O 0.0699(10) 0.0699(10) 1.0699(10)
O5? O -0.1250 -0.0300(19) 0.7800(19)
O6? O -0.1250 0.0238(19) 0.7738(19)
O9? O 0.0446(10) 0.0446(10) 1.0446(10)
C14? C 0.1197(9) 0.1939(9) 0.9822(6)
loop_
_geom_bond_atom_site_label_1
_geom_bond_atom_site_label_2
_geom_bond_site_symmetry_1
_geom_bond_site_symmetry_2
Cu1 O1 1_555 1_555
O1 C1 1_555 1_555
C1 C2 1_555 1_555
C2 H1 1_555 1_555
C3 C2 1_555 1_555
H2 C3 1_555 1_555
C4 C3 1_555 1_555
H3 C4 1_555 1_555
C5 C4 1_555 1_555
H4 C5 1_555 1_555
C6 C1 1_555 1_555
C7 C6 1_555 1_555
H5 C7 1_555 1_555
H6 C7 1_555 1_555
N1 Cu1 1_555 1_555
H7 N1 1_555 1_555
C8 N1 1_555 1_555
C9 C8 1_555 1_555
H8 C9 1_555 1_555
H9 C9 1_555 1_555
C10 C9 1_555 1_555
H10 C10 1_555 1_555
H11 C10 1_555 1_555
C11 C10 1_555 1_555
H12 C11 1_555 1_555
H13 C11 1_555 1_555
C12 C8 1_555 1_555
H14 C12 1_555 1_555
H15 C12 1_555 1_555
C13 C8 1_555 1_555
O2 Cu1 1_555 1_555
O3 C13 1_555 1_555
O1J Cu1 1_555 1_555
C1J O1J 1_555 1_555
C2J C1J 1_555 1_555
H1J C2J 1_555 1_555
C3J C2J 1_555 1_555
H2J C3J 1_555 1_555
C4J C3J 1_555 1_555
H3J C4J 1_555 1_555
C5J C4J 1_555 1_555
H4J C5J 1_555 1_555
C6J C1J 1_555 1_555
C7J C6J 1_555 1_555
H5J C7J 1_555 1_555
H6J C7J 1_555 1_555
N1J C7J 1_555 1_555
H7J N1J 1_555 1_555
C8J N1J 1_555 1_555
C9J C8J 1_555 1_555
H8J C9J 1_555 1_555
H9J C9J 1_555 1_555
C10J C9J 1_555 1_555
H10J C10J 1_555 1_555
H11J C10J 1_555 1_555
C11J C10J 1_555 1_555
H12J C11J 1_555 1_555
H13J C11J 1_555 1_555
C12J C8J 1_555 1_555
H14J C12J 1_555 1_555
H15J C12J 1_555 1_555
C13J C8J 1_555 1_555
O2J C13J 1_555 1_555
O3J C13J 1_555 1_555
O1AB C1AB 1_555 1_555
C1AB C2AB 1_555 1_555
C2AB H1AB 1_555 1_555
C3AB C2AB 1_555 1_555
H2AB C3AB 1_555 1_555
C4AB C3AB 1_555 1_555
H3AB C4AB 1_555 1_555
C5AB C4AB 1_555 1_555
H4AB C5AB 1_555 1_555
C6AB C1AB 1_555 1_555
C7AB C6AB 1_555 1_555
H5AB C7AB 1_555 1_555
H6AB C7AB 1_555 1_555
N1AB C7AB 1_555 1_555
H7AB N1AB 1_555 1_555
C8AB N1AB 1_555 1_555
C9AB C8AB 1_555 1_555
H8AB C9AB 1_555 1_555
H9AB C9AB 1_555 1_555
C10AB C9AB 1_555 1_555
H10AB C10AB 1_555 1_555
H11AB C10AB 1_555 1_555
C11AB C10AB 1_555 1_555
H12AB C11AB 1_555 1_555
H13AB C11AB 1_555 1_555
C12AB C8AB 1_555 1_555
H14AB C12AB 1_555 1_555
H15AB C12AB 1_555 1_555
C13AB C8AB 1_555 1_555
O2AB C13AB 1_555 1_555
O3AB Cu1 1_555 1_555
Cu1J O1 1_555 1_555
Cu1AB O1AB 1_555 1_555
Cu1XA O1AB 1_555 1_555
Cu1MB O3 1_555 1_555
Cu1WA O3J 1_555 1_555
O1PA C1PA 1_555 1_555
C1PA C2PA 1_555 1_555
C2PA H1PA 1_555 1_555
C3PA C2PA 1_555 1_555
H2PA C3PA 1_555 1_555
C4PA C3PA 1_555 1_555
H3PA C4PA 1_555 1_555
C5PA C4PA 1_555 1_555
H4PA C5PA 1_555 1_555
C6PA C1PA 1_555 1_555
C7PA C6PA 1_555 1_555
H5PA C7PA 1_555 1_555
H6PA C7PA 1_555 1_555
N1PA C7PA 1_555 1_555
H7PA N1PA 1_555 1_555
C8PA N1PA 1_555 1_555
C9PA C8PA 1_555 1_555
H8PA C9PA 1_555 1_555
H9PA C9PA 1_555 1_555
C10PA C9PA 1_555 1_555
H10PA C10PA 1_555 1_555
H11PA C10PA 1_555 1_555
C11PA C10PA 1_555 1_555
H12PA C11PA 1_555 1_555
H13PA C11PA 1_555 1_555
C12PA C8PA 1_555 1_555
H14PA C12PA 1_555 1_555
H15PA C12PA 1_555 1_555
C13PA C8PA 1_555 1_555
O2PA C13PA 1_555 1_555
O3PA Cu1J 1_555 1_555
O1XA Cu1AB 1_555 1_555
C1XA O1XA 1_555 1_555
C2XA C1XA 1_555 1_555
H1XA C2XA 1_555 1_555
C3XA C2XA 1_555 1_555
H2XA C3XA 1_555 1_555
C4XA C3XA 1_555 1_555
H3XA C4XA 1_555 1_555
C5XA C4XA 1_555 1_555
H4XA C5XA 1_555 1_555
C6XA C1XA 1_555 1_555
C7XA C6XA 1_555 1_555
H5XA C7XA 1_555 1_555
H6XA C7XA 1_555 1_555
N1XA Cu1XA 1_555 1_555
H7XA N1XA 1_555 1_555
C8XA N1XA 1_555 1_555
C9XA C8XA 1_555 1_555
H8XA C9XA 1_555 1_555
H9XA C9XA 1_555 1_555
C10XA C9XA 1_555 1_555
H10XA C10XA 1_555 1_555
H11XA C10XA 1_555 1_555
C11XA C10XA 1_555 1_555
H12XA C11XA 1_555 1_555
H13XA C11XA 1_555 1_555
C12XA C8XA 1_555 1_555
H14XA C12XA 1_555 1_555
H15XA C12XA 1_555 1_555
C13XA C8XA 1_555 1_555
O2XA Cu1XA 1_555 1_555
O3XA C13XA 1_555 1_555
O1IC C1IC 1_555 1_555
C1IC C2IC 1_555 1_555
C2IC H1IC 1_555 1_555
C3IC C2IC 1_555 1_555
H2IC C3IC 1_555 1_555
C4IC C3IC 1_555 1_555
H3IC C4IC 1_555 1_555
C5IC C4IC 1_555 1_555
H4IC C5IC 1_555 1_555
C6IC C1IC 1_555 1_555
C7IC C6IC 1_555 1_555
H5IC C7IC 1_555 1_555
H6IC C7IC 1_555 1_555
N1IC C7IC 1_555 1_555
H7IC N1IC 1_555 1_555
C8IC N1IC 1_555 1_555
C9IC C8IC 1_555 1_555
H8IC C9IC 1_555 1_555
H9IC C9IC 1_555 1_555
C10IC C9IC 1_555 1_555
H10IC C10IC 1_555 1_555
H11IC C10IC 1_555 1_555
C11IC C10IC 1_555 1_555
H12IC C11IC 1_555 1_555
H13IC C11IC 1_555 1_555
C12IC C8IC 1_555 1_555
H14IC C12IC 1_555 1_555
H15IC C12IC 1_555 1_555
C13IC C8IC 1_555 1_555
O2IC C13IC 1_555 1_555
O3IC Cu1AB 1_555 1_555
O1F C1F 1_555 1_555
C1F C2F 1_555 1_555
C2F H1F 1_555 1_555
C3F C2F 1_555 1_555
H2F C3F 1_555 1_555
C4F C3F 1_555 1_555
H3F C4F 1_555 1_555
C5F C4F 1_555 1_555
H4F C5F 1_555 1_555
C6F C1F 1_555 1_555
C7F C6F 1_555 1_555
H5F C7F 1_555 1_555
H6F C7F 1_555 1_555
N1F C7F 1_555 1_555
H7F N1F 1_555 1_555
C8F N1F 1_555 1_555
C9F C8F 1_555 1_555
H8F C9F 1_555 1_555
H9F C9F 1_555 1_555
C10F C9F 1_555 1_555
H10F C10F 1_555 1_555
H11F C10F 1_555 1_555
C11F C10F 1_555 1_555
H12F C11F 1_555 1_555
H13F C11F 1_555 1_555
C12F C8F 1_555 1_555
H14F C12F 1_555 1_555
H15F C12F 1_555 1_555
C13F C8F 1_555 1_555
O2F C13F 1_555 1_555
O3F Cu1XA 1_555 1_555
O1MB Cu1MB 1_555 1_555
C1MB O1MB 1_555 1_555
C2MB C1MB 1_555 1_555
H1MB C2MB 1_555 1_555
C3MB C2MB 1_555 1_555
H2MB C3MB 1_555 1_555
C4MB C3MB 1_555 1_555
H3MB C4MB 1_555 1_555
C5MB C4MB 1_555 1_555
H4MB C5MB 1_555 1_555
C6MB C1MB 1_555 1_555
C7MB C6MB 1_555 1_555
H5MB C7MB 1_555 1_555
H6MB C7MB 1_555 1_555
N1MB Cu1MB 1_555 1_555
H7MB N1MB 1_555 1_555
C8MB N1MB 1_555 1_555
C9MB C8MB 1_555 1_555
H8MB C9MB 1_555 1_555
H9MB C9MB 1_555 1_555
C10MB C9MB 1_555 1_555
H10MB C10MB 1_555 1_555
H11MB C10MB 1_555 1_555
C11MB C10MB 1_555 1_555
H12MB C11MB 1_555 1_555
H13MB C11MB 1_555 1_555
C12MB C8MB 1_555 1_555
H14MB C12MB 1_555 1_555
H15MB C12MB 1_555 1_555
C13MB C8MB 1_555 1_555
O2MB Cu1MB 1_555 1_555
O3MB C13MB 1_555 1_555
O1UA Cu1MB 1_555 1_555
C1UA O1UA 1_555 1_555
C2UA C1UA 1_555 1_555
H1UA C2UA 1_555 1_555
C3UA C2UA 1_555 1_555
H2UA C3UA 1_555 1_555
C4UA C3UA 1_555 1_555
H3UA C4UA 1_555 1_555
C5UA C4UA 1_555 1_555
H4UA C5UA 1_555 1_555
C6UA C1UA 1_555 1_555
C7UA C6UA 1_555 1_555
H5UA C7UA 1_555 1_555
H6UA C7UA 1_555 1_555
N1UA C7UA 1_555 1_555
H7UA N1UA 1_555 1_555
C8UA N1UA 1_555 1_555
C9UA C8UA 1_555 1_555
H8UA C9UA 1_555 1_555
H9UA C9UA 1_555 1_555
C10UA C9UA 1_555 1_555
H10UA C10UA 1_555 1_555
H11UA C10UA 1_555 1_555
C11UA C10UA 1_555 1_555
H12UA C11UA 1_555 1_555
H13UA C11UA 1_555 1_555
C12UA C8UA 1_555 1_555
H14UA C12UA 1_555 1_555
H15UA C12UA 1_555 1_555
C13UA C8UA 1_555 1_555
O2UA C13UA 1_555 1_555
O3UA C13UA 1_555 1_555
O1WA Cu1WA 1_555 1_555
C1WA O1WA 1_555 1_555
C2WA C1WA 1_555 1_555
H1WA C2WA 1_555 1_555
C3WA C2WA 1_555 1_555
H2WA C3WA 1_555 1_555
C4WA C3WA 1_555 1_555
H3WA C4WA 1_555 1_555
C5WA C4WA 1_555 1_555
H4WA C5WA 1_555 1_555
C6WA C1WA 1_555 1_555
C7WA C6WA 1_555 1_555
H5WA C7WA 1_555 1_555
H6WA C7WA 1_555 1_555
N1WA Cu1WA 1_555 1_555
H7WA N1WA 1_555 1_555
C8WA N1WA 1_555 1_555
C9WA C8WA 1_555 1_555
H8WA C9WA 1_555 1_555
H9WA C9WA 1_555 1_555
C10WA C9WA 1_555 1_555
H10WA C10WA 1_555 1_555
H11WA C10WA 1_555 1_555
C11WA C10WA 1_555 1_555
H12WA C11WA 1_555 1_555
H13WA C11WA 1_555 1_555
C12WA C8WA 1_555 1_555
H14WA C12WA 1_555 1_555
H15WA C12WA 1_555 1_555
C13WA C8WA 1_555 1_555
O2WA Cu1WA 1_555 1_555
O3WA C13WA 1_555 1_555
O1BB Cu1WA 1_555 1_555
C1BB O1BB 1_555 1_555
C2BB C1BB 1_555 1_555
H1BB C2BB 1_555 1_555
C3BB C2BB 1_555 1_555
H2BB C3BB 1_555 1_555
C4BB C3BB 1_555 1_555
H3BB C4BB 1_555 1_555
C5BB C4BB 1_555 1_555
H4BB C5BB 1_555 1_555
C6BB C1BB 1_555 1_555
C7BB C6BB 1_555 1_555
H5BB C7BB 1_555 1_555
H6BB C7BB 1_555 1_555
N1BB C7BB 1_555 1_555
H7BB N1BB 1_555 1_555
C8BB N1BB 1_555 1_555
C9BB C8BB 1_555 1_555
H8BB C9BB 1_555 1_555
H9BB C9BB 1_555 1_555
C10BB C9BB 1_555 1_555
H10BB C10BB 1_555 1_555
H11BB C10BB 1_555 1_555
C11BB C10BB 1_555 1_555
H12BB C11BB 1_555 1_555
H13BB C11BB 1_555 1_555
C12BB C8BB 1_555 1_555
H14BB C12BB 1_555 1_555
H15BB C12BB 1_555 1_555
C13BB C8BB 1_555 1_555
O2BB C13BB 1_555 1_555
O3BB C13BB 1_555 1_555
Cu1PA O1PA 1_555 1_555
Cu1IC O1IC 1_555 1_555
Cu1F O1F 1_555 1_555
Cu1UA O1MB 1_555 1_555
Cu1BB O1WA 1_555 1_555
Cu1RB O1PA 1_555 1_555
O1RB Cu1PA 1_555 1_555
C1RB O1RB 1_555 1_555
C2RB C1RB 1_555 1_555
H1RB C2RB 1_555 1_555
C3RB C2RB 1_555 1_555
H2RB C3RB 1_555 1_555
C4RB C3RB 1_555 1_555
H3RB C4RB 1_555 1_555
C5RB C4RB 1_555 1_555
H4RB C5RB 1_555 1_555
C6RB C1RB 1_555 1_555
C7RB C6RB 1_555 1_555
H5RB C7RB 1_555 1_555
H6RB C7RB 1_555 1_555
N1RB Cu1RB 1_555 1_555
H7RB N1RB 1_555 1_555
C8RB N1RB 1_555 1_555
C9RB C8RB 1_555 1_555
H8RB C9RB 1_555 1_555
H9RB C9RB 1_555 1_555
C10RB C9RB 1_555 1_555
H10RB C10RB 1_555 1_555
H11RB C10RB 1_555 1_555
C11RB C10RB 1_555 1_555
H12RB C11RB 1_555 1_555
H13RB C11RB 1_555 1_555
C12RB C8RB 1_555 1_555
H14RB C12RB 1_555 1_555
H15RB C12RB 1_555 1_555
C13RB C8RB 1_555 1_555
O2RB Cu1RB 1_555 1_555
O3RB C13RB 1_555 1_555
Cu1T O3XA 1_555 1_555
Cu1Y O1IC 1_555 1_555
Cu1A O1F 1_555 1_555
Cu1H O3UA 1_555 1_555
Cu1W O3WA 1_555 1_555
Cu1B O3BB 1_555 1_555
O3W Cu1PA 1_555 1_555
O1Y Cu1IC 1_555 1_555
O1A Cu1F 1_555 1_555
O3SA Cu1F 1_555 1_555
O3U Cu1UA 1_555 1_555
O3OC Cu1BB 1_555 1_555
O3EC Cu1RB 1_555 1_555
Cu1PC O3RB 1_555 1_555
C5 C6 1_555 1_555
C7 N1 1_555 1_555
C11 C12 1_555 1_555
C13 O2 1_555 1_555
O1J Cu1J 1_555 1_555
C5J C6J 1_555 1_555
N1J Cu1J 1_555 1_555
C11J C12J 1_555 1_555
O2J Cu1J 1_555 1_555
C5AB C6AB 1_555 1_555
N1AB Cu1AB 1_555 1_555
C11AB C12AB 1_555 1_555
C13AB O3AB 1_555 1_555
O2AB Cu1AB 1_555 1_555
Cu1XA O1XA 1_555 1_555
C5PA C6PA 1_555 1_555
N1PA Cu1PA 1_555 1_555
C11PA C12PA 1_555 1_555
C13PA O3PA 1_555 1_555
O2PA Cu1PA 1_555 1_555
C5XA C6XA 1_555 1_555
C7XA N1XA 1_555 1_555
C11XA C12XA 1_555 1_555
C13XA O2XA 1_555 1_555
C5IC C6IC 1_555 1_555
N1IC Cu1IC 1_555 1_555
C11IC C12IC 1_555 1_555
C13IC O3IC 1_555 1_555
O2IC Cu1IC 1_555 1_555
C5F C6F 1_555 1_555
N1F Cu1F 1_555 1_555
C11F C12F 1_555 1_555
C13F O3F 1_555 1_555
O2F Cu1F 1_555 1_555
C5MB C6MB 1_555 1_555
C7MB N1MB 1_555 1_555
C11MB C12MB 1_555 1_555
C13MB O2MB 1_555 1_555
O3MB Cu1IC 1_555 1_555
O1UA Cu1UA 1_555 1_555
C5UA C6UA 1_555 1_555
N1UA Cu1UA 1_555 1_555
C11UA C12UA 1_555 1_555
O2UA Cu1UA 1_555 1_555
C5WA C6WA 1_555 1_555
C7WA N1WA 1_555 1_555
C11WA C12WA 1_555 1_555
C13WA O2WA 1_555 1_555
O1BB Cu1BB 1_555 1_555
C5BB C6BB 1_555 1_555
N1BB Cu1BB 1_555 1_555
C11BB C12BB 1_555 1_555
O2BB Cu1BB 1_555 1_555
Cu1RB O1RB 1_555 1_555
C5RB C6RB 1_555 1_555
C7RB N1RB 1_555 1_555
C11RB C12RB 1_555 1_555
C13RB O2RB 1_555 1_555
Cu1Y O1Y 1_555 1_555
Cu1A O1A 1_555 1_555

#END
