
#######################################################################
#
#                 Cambridge Crystallographic Data Centre
#                                CCDC 
#
#######################################################################
#
# If this CIF has been generated from an entry in the Cambridge 
# Structural Database, then it will include bibliographic, chemical, 
# crystal, experimental, refinement or atomic coordinate data resulting 
# from the CCDC's data processing and validation procedures.
#
#######################################################################

data_ULIBOG
_symmetry_cell_setting           monoclinic
_symmetry_space_group_name_H-M   'P 21/c'
_symmetry_Int_Tables_number      14
_space_group_name_Hall           '-P 2ybc'
loop_
_symmetry_equiv_pos_site_id
_symmetry_equiv_pos_as_xyz
1 x,y,z
2 x,1/2-y,1/2+z
3 -x,-y,-z
4 -x,1/2+y,1/2-z
_cell_length_a                   5.2849(4)
_cell_length_b                   18.4302(12)
_cell_length_c                   10.7757(7)
_cell_angle_alpha                90
_cell_angle_beta                 94.0120(10)
_cell_angle_gamma                90
_cell_volume                     1047
loop_
_atom_site_label
_atom_site_type_symbol
_atom_site_fract_x
_atom_site_fract_y
_atom_site_fract_z
Zn1 Zn 0.46307(9) 0.44512(3) 0.22902(5)
O1 O 0.7499(7) 0.37297(18) 0.2751(4)
O2 O 0.4824(7) 0.3356(2) 0.1243(4)
O3 O 1.3512(7) 0.03667(17) 0.2854(3)
O4 O 1.2690(7) 0.02400(18) 0.0828(3)
O5 O 0.2200(7) 0.4264(2) 0.3540(3)
H1 H 0.066(4) 0.416(3) 0.333(5)
H2 H 0.233(10) 0.445(3) 0.426(3)
N1 N 0.1947(7) 0.4773(2) 0.0841(3)
C1 C 0.6717(9) 0.3238(2) 0.1976(5)
C2 C 0.8174(9) 0.2548(2) 0.1941(4)
C3 C 0.7478(9) 0.2022(3) 0.1042(5)
H3 H 0.6093 0.2100 0.0477
C4 C 0.8878(9) 0.1378(2) 0.0998(4)
H4 H 0.8430 0.1028 0.0401
C5 C 1.0941(8) 0.1264(2) 0.1851(4)
C6 C 1.1586(9) 0.1784(3) 0.2756(5)
H5 H 1.2947 0.1702 0.3333
C7 C 1.0211(9) 0.2426(3) 0.2801(5)
H6 H 1.0654 0.2772 0.3406
C8 C 1.2478(9) 0.0577(2) 0.1809(4)
C9 C 0.1595(9) 0.5474(2) 0.0573(4)
H7 H 0.2669 0.5818 0.0962
C10 C 0.0339(9) 0.4299(2) 0.0274(4)
H8 H 0.0520 0.3807 0.0452
C10B C -0.0339(9) 0.5701(2) -0.0274(4)
N1B N -0.1947(7) 0.5227(2) -0.0841(3)
C9B C -0.1595(9) 0.4526(2) -0.0573(4)
H7B H -0.2669 0.4182 -0.0962
H8B H -0.0520 0.6193 -0.0452
O1C O 1.2501(7) 0.87297(18) 0.2249(4)
O2C O 1.5176(7) 0.8356(2) 0.3757(4)
O3C O 0.6488(7) 0.53667(17) 0.2146(3)
O4C O 0.7310(7) 0.52400(18) 0.4172(3)
C1C C 1.3283(9) 0.8238(2) 0.3024(5)
C2C C 1.1826(9) 0.7548(2) 0.3059(4)
C3C C 1.2522(9) 0.7022(3) 0.3958(5)
H3C H 1.3907 0.7100 0.4523
C4C C 1.1122(9) 0.6378(2) 0.4002(4)
H4C H 1.1570 0.6028 0.4599
C5C C 0.9059(8) 0.6264(2) 0.3149(4)
C6C C 0.8414(9) 0.6784(3) 0.2244(5)
H5C H 0.7053 0.6702 0.1667
C7C C 0.9789(9) 0.7426(3) 0.2199(5)
H6C H 0.9346 0.7772 0.1594
C8C C 0.7522(9) 0.5577(2) 0.3191(4)
Zn1C Zn 1.53693(9) 0.94512(3) 0.27098(5)
O5C O 1.7800(7) 0.9264(2) 0.1460(3)
H1C H 1.934(4) 0.916(3) 0.167(5)
H2C H 1.767(10) 0.945(3) 0.074(3)
Zn1C_2 Zn 1.53693(9) -0.05488(3) 0.27098(5)
Zn1B Zn -0.46307(9) 0.55488(3) -0.22902(5)
O3_2 O 1.3512(7) 1.03667(17) 0.2854(3)
N1C N 1.8053(7) 0.9773(2) 0.4159(3)
loop_
_geom_bond_atom_site_label_1
_geom_bond_atom_site_label_2
_geom_bond_site_symmetry_1
_geom_bond_site_symmetry_2
Zn1 O1 1_555 1_555
O1 C1 1_555 1_555
O2 Zn1 1_555 1_555
O3 C8 1_555 1_555
O4 C8 1_555 1_555
O5 Zn1 1_555 1_555
H1 O5 1_555 1_555
H2 O5 1_555 1_555
N1 Zn1 1_555 1_555
C1 O2 1_555 1_555
C2 C1 1_555 1_555
C3 C2 1_555 1_555
H3 C3 1_555 1_555
C4 C3 1_555 1_555
H4 C4 1_555 1_555
C5 C4 1_555 1_555
C6 C5 1_555 1_555
H5 C6 1_555 1_555
C7 C2 1_555 1_555
H6 C7 1_555 1_555
C8 C5 1_555 1_555
C9 N1 1_555 1_555
H7 C9 1_555 1_555
C10 N1 1_555 1_555
H8 C10 1_555 1_555
C10B C9 1_555 1_555
N1B C10B 1_555 1_555
C9B C10 1_555 1_555
H7B C9B 1_555 1_555
H8B C10B 1_555 1_555
O1C C1C 1_555 1_555
O2C C1C 1_555 1_555
O3C Zn1 1_555 1_555
O4C C8C 1_555 1_555
C1C C2C 1_555 1_555
C2C C3C 1_555 1_555
C3C H3C 1_555 1_555
C4C C3C 1_555 1_555
H4C C4C 1_555 1_555
C5C C4C 1_555 1_555
C6C C5C 1_555 1_555
H5C C6C 1_555 1_555
C7C C2C 1_555 1_555
H6C C7C 1_555 1_555
C8C O3C 1_555 1_555
Zn1C O1C 1_555 1_555
O5C Zn1C 1_555 1_555
H1C O5C 1_555 1_555
H2C O5C 1_555 1_555
Zn1C_2 O3 1_555 1_555
Zn1B N1B 1_555 1_555
O3_2 Zn1C 1_555 1_555
N1C Zn1C 1_555 1_555
C6 C7 1_555 1_555
N1B C9B 1_555 1_555
O2C Zn1C 1_555 1_555
C5C C8C 1_555 1_555
C6C C7C 1_555 1_555

#END
