
#######################################################################
#
#                 Cambridge Crystallographic Data Centre
#                                CCDC 
#
#######################################################################
#
# If this CIF has been generated from an entry in the Cambridge 
# Structural Database, then it will include bibliographic, chemical, 
# crystal, experimental, refinement or atomic coordinate data resulting 
# from the CCDC's data processing and validation procedures.
#
#######################################################################

data_ULIFUQ
_symmetry_cell_setting           orthorhombic
_symmetry_space_group_name_H-M   'C c c a'
_symmetry_Int_Tables_number      68
_space_group_name_Hall           '-C 2a 2bc'
loop_
_symmetry_equiv_pos_site_id
_symmetry_equiv_pos_as_xyz
1 x,y,z
2 1/2+x,1/2+y,z
3 -x,1/2-y,z
4 x,1/2-y,1/2-z
5 -x,y,1/2-z
6 1/2-x,-y,z
7 1/2+x,-y,1/2-z
8 1/2-x,1/2+y,1/2-z
9 -x,-y,-z
10 1/2-x,1/2-y,-z
11 x,1/2+y,-z
12 -x,1/2+y,1/2+z
13 x,-y,1/2+z
14 1/2+x,y,-z
15 1/2-x,y,1/2+z
16 1/2+x,1/2-y,1/2+z
_cell_length_a                   11.08100(10)
_cell_length_b                   22.7150(3)
_cell_length_c                   13.8470(2)
_cell_angle_alpha                90
_cell_angle_beta                 90
_cell_angle_gamma                90
_cell_volume                     3485.36
loop_
_atom_site_label
_atom_site_type_symbol
_atom_site_fract_x
_atom_site_fract_y
_atom_site_fract_z
Zn1 Zn 0.0000 0.107408(9) 0.2500
S1 S 0.10552(3) 0.054205(16) 0.13518(3)
O1 O 0.10569(10) 0.16457(5) 0.31100(8)
O2 O 0.21645(10) 0.10117(5) 0.39775(9)
N1 N -0.09438(11) -0.01022(6) 0.11702(10)
N2 N 0.08430(12) -0.06109(6) 0.12758(10)
H1 H 0.1615(14) -0.0597(9) 0.1331(15)
H2 H -0.1326(17) -0.0433(7) 0.1123(15)
H3 H -0.1283(18) 0.0253(7) 0.1150(15)
C1 C 0.02401(12) -0.01101(6) 0.12631(10)
C2 C 0.02960(16) -0.11876(7) 0.11313(14)
H4 H -0.0392 -0.1233 0.1570
H5 H 0.0894 -0.1495 0.1265
H6 H 0.0018 -0.1223 0.0462
C3 C 0.17874(12) 0.15169(6) 0.37874(10)
C4 C 0.21781(12) 0.20301(6) 0.44027(10)
C5 C 0.17612(13) 0.25973(6) 0.41953(11)
H7 H 0.1259 0.2664 0.3650
C6 C 0.29117(13) 0.19375(6) 0.52069(10)
H8 H 0.3191 0.1552 0.5348
C6I C 0.20883(13) 0.30625(6) 0.47931(10)
C4I C 0.28219(12) 0.29699(6) 0.55973(10)
C3I C 0.32126(12) 0.34831(6) 0.62126(10)
O1I O 0.39431(10) 0.33543(5) 0.68900(8)
O2I O 0.28355(10) 0.39883(5) 0.60225(9)
C5I C 0.32388(13) 0.24027(6) 0.58047(11)
H7I H 0.3741 0.2336 0.6350
H8I H 0.1809 0.3448 0.4652
S1D S -0.10552(3) 0.054205(16) 0.36482(3)
N1D N 0.09438(11) -0.01022(6) 0.38298(10)
N2D N -0.08430(12) -0.06109(6) 0.37242(10)
H1D H -0.1615(14) -0.0597(9) 0.3669(15)
H2D H 0.1326(17) -0.0433(7) 0.3877(15)
H3D H 0.1283(18) 0.0253(7) 0.3850(15)
C1D C -0.02401(12) -0.01101(6) 0.37369(10)
C2D C -0.02960(16) -0.11876(7) 0.38687(14)
H4D H 0.0392 -0.1233 0.3430
H5D H -0.0894 -0.1495 0.3735
H6D H -0.0018 -0.1223 0.4538
O1D O -0.10569(10) 0.16457(5) 0.18900(8)
Zn1O Zn 0.5000 0.392592(9) 0.7500
loop_
_geom_bond_atom_site_label_1
_geom_bond_atom_site_label_2
_geom_bond_site_symmetry_1
_geom_bond_site_symmetry_2
Zn1 S1 1_555 1_555
S1 C1 1_555 1_555
O1 Zn1 1_555 1_555
O2 C3 1_555 1_555
N1 H2 1_555 1_555
N2 H1 1_555 1_555
H3 N1 1_555 1_555
C1 N1 1_555 1_555
C2 N2 1_555 1_555
H4 C2 1_555 1_555
H5 C2 1_555 1_555
H6 C2 1_555 1_555
C3 O1 1_555 1_555
C4 C3 1_555 1_555
C5 C4 1_555 1_555
H7 C5 1_555 1_555
C6 C4 1_555 1_555
H8 C6 1_555 1_555
C6I C5 1_555 1_555
C4I C6I 1_555 1_555
C3I C4I 1_555 1_555
O1I C3I 1_555 1_555
O2I C3I 1_555 1_555
C5I C6 1_555 1_555
H7I C5I 1_555 1_555
H8I C6I 1_555 1_555
S1D Zn1 1_555 1_555
N1D H2D 1_555 1_555
N2D H1D 1_555 1_555
H3D N1D 1_555 1_555
C1D S1D 1_555 1_555
C2D N2D 1_555 1_555
H4D C2D 1_555 1_555
H5D C2D 1_555 1_555
H6D C2D 1_555 1_555
O1D Zn1 1_555 1_555
Zn1O O1I 1_555 1_555
N2 C1 1_555 1_555
C4I C5I 1_555 1_555
N1D C1D 1_555 1_555
N2D C1D 1_555 1_555

#END
