
#######################################################################
#
#                 Cambridge Crystallographic Data Centre
#                                CCDC 
#
#######################################################################
#
# If this CIF has been generated from an entry in the Cambridge 
# Structural Database, then it will include bibliographic, chemical, 
# crystal, experimental, refinement or atomic coordinate data resulting 
# from the CCDC's data processing and validation procedures.
#
#######################################################################

data_ULIGIF
_symmetry_cell_setting           monoclinic
_symmetry_space_group_name_H-M   'P 21/c'
_symmetry_Int_Tables_number      14
_space_group_name_Hall           '-P 2ybc'
loop_
_symmetry_equiv_pos_site_id
_symmetry_equiv_pos_as_xyz
1 x,y,z
2 -x,1/2+y,1/2-z
3 -x,-y,-z
4 x,1/2-y,1/2+z
_cell_length_a                   6.5790(2)
_cell_length_b                   13.3430(5)
_cell_length_c                   21.2060(9)
_cell_angle_alpha                90
_cell_angle_beta                 97.927(2)
_cell_angle_gamma                90
_cell_volume                     1843.75
loop_
_atom_site_label
_atom_site_type_symbol
_atom_site_fract_x
_atom_site_fract_y
_atom_site_fract_z
Zn1 Zn 0.54832(9) 0.42419(4) -0.19923(3)
S1 S 0.6158(2) 0.57527(10) -0.14451(6)
S2 S 0.2008(2) 0.38258(9) -0.21099(7)
N1 N 0.3752(7) 0.4933(3) -0.0682(2)
H1 H 0.453(8) 0.445(4) -0.072(2)
N2 N 0.3323(8) 0.6617(3) -0.0866(2)
H2 H 0.278(7) 0.669(3) -0.0520(15)
H3 H 0.334(9) 0.713(3) -0.111(2)
N3 N -0.0023(7) 0.2203(3) -0.2487(2)
H4 H -0.094(7) 0.267(3) -0.259(3)
N4 N 0.3348(7) 0.1924(3) -0.2107(2)
H5 H 0.338(8) 0.132(2) -0.225(3)
H6 H 0.452(5) 0.219(3) -0.198(2)
O1 O 0.7035(5) 0.3063(3) -0.16490(16)
O2 O 0.6650(6) 0.3295(3) -0.06251(17)
O3 O 0.6288(6) 0.0259(3) 0.21954(15)
O4 O 0.6435(6) 0.1786(3) 0.17955(16)
C1 C 0.4257(8) 0.5764(4) -0.0959(2)
C2 C 0.1907(9) 0.4822(4) -0.0377(3)
H7 H 0.2102 0.5166 0.0035
H8 H 0.1646 0.4109 -0.0312
H9 H 0.0734 0.5117 -0.0649
C3 C 0.1806(8) 0.2548(4) -0.2252(2)
C4 C -0.0527(9) 0.1154(4) -0.2587(3)
H10 H 0.0181 0.0890 -0.2928
H11 H -0.2013 0.1082 -0.2705
H12 H -0.0091 0.0781 -0.2193
C5 C 0.7362(8) 0.2845(4) -0.1053(2)
C6 C 0.8747(10) 0.1929(4) -0.0905(3)
H13 H 0.8058 0.1342 -0.1126
H14 H 1.0036 0.2043 -0.1085
C7 C 0.9288(9) 0.1672(4) -0.0209(2)
C8 C 1.1188(9) 0.1926(4) 0.0119(3)
H15 H 1.2163 0.2258 -0.0099
C9 C 1.1683(9) 0.1702(4) 0.0757(3)
H16 H 1.2986 0.1884 0.0977
C10 C 1.0270(9) 0.1208(4) 0.1077(3)
H17 H 1.0614 0.1055 0.1516
C11 C 0.8362(8) 0.0939(4) 0.0760(2)
C12 C 0.7901(9) 0.1179(4) 0.0124(2)
H18 H 0.6593 0.1001 -0.0096
C13 C 0.6523(8) 0.0863(4) 0.1746(2)
C14 C 0.6847(9) 0.0392(4) 0.1114(2)
H19 H 0.7332 -0.0305 0.1194
H20 H 0.5508 0.0361 0.0837
O3C O 0.6288(6) 0.4741(3) -0.28046(15)
Zn1C Zn 0.54832(9) 0.07581(4) 0.30077(3)
loop_
_geom_bond_atom_site_label_1
_geom_bond_atom_site_label_2
_geom_bond_site_symmetry_1
_geom_bond_site_symmetry_2
Zn1 S1 1_555 1_555
S1 C1 1_555 1_555
S2 Zn1 1_555 1_555
N1 H1 1_555 1_555
N2 H2 1_555 1_555
H3 N2 1_555 1_555
N3 H4 1_555 1_555
N4 H5 1_555 1_555
H6 N4 1_555 1_555
O1 Zn1 1_555 1_555
O2 C5 1_555 1_555
O3 C13 1_555 1_555
O4 C13 1_555 1_555
C1 N1 1_555 1_555
C2 N1 1_555 1_555
H7 C2 1_555 1_555
H8 C2 1_555 1_555
H9 C2 1_555 1_555
C3 S2 1_555 1_555
C4 N3 1_555 1_555
H10 C4 1_555 1_555
H11 C4 1_555 1_555
H12 C4 1_555 1_555
C5 O1 1_555 1_555
C6 C5 1_555 1_555
H13 C6 1_555 1_555
H14 C6 1_555 1_555
C7 C6 1_555 1_555
C8 C7 1_555 1_555
H15 C8 1_555 1_555
C9 C8 1_555 1_555
H16 C9 1_555 1_555
C10 C9 1_555 1_555
H17 C10 1_555 1_555
C11 C10 1_555 1_555
C12 C7 1_555 1_555
H18 C12 1_555 1_555
C13 C14 1_555 1_555
C14 C11 1_555 1_555
H19 C14 1_555 1_555
H20 C14 1_555 1_555
O3C Zn1 1_555 1_555
Zn1C O3 1_555 1_555
N2 C1 1_555 1_555
N3 C3 1_555 1_555
N4 C3 1_555 1_555
C11 C12 1_555 1_555

#END
