
#######################################################################
#
#                 Cambridge Crystallographic Data Centre
#                                CCDC 
#
#######################################################################
#
# If this CIF has been generated from an entry in the Cambridge 
# Structural Database, then it will include bibliographic, chemical, 
# crystal, experimental, refinement or atomic coordinate data resulting 
# from the CCDC's data processing and validation procedures.
#
#######################################################################

data_ULIGAX
_symmetry_cell_setting           monoclinic
_symmetry_space_group_name_H-M   'C 2/c'
_symmetry_Int_Tables_number      15
_space_group_name_Hall           '-C 2yn'
loop_
_symmetry_equiv_pos_site_id
_symmetry_equiv_pos_as_xyz
1 x,y,z
2 1/2+x,1/2+y,z
3 -x,y,1/2-z
4 1/2-x,1/2+y,1/2-z
5 -x,-y,-z
6 1/2-x,1/2-y,-z
7 x,-y,1/2+z
8 1/2+x,1/2-y,1/2+z
_cell_length_a                   14.817(4)
_cell_length_b                   9.1050(10)
_cell_length_c                   12.430(3)
_cell_angle_alpha                90
_cell_angle_beta                 115.84(2)
_cell_angle_gamma                90
_cell_volume                     1509.25
loop_
_atom_site_label
_atom_site_type_symbol
_atom_site_fract_x
_atom_site_fract_y
_atom_site_fract_z
Zn1 Zn 0.5000 0.53212(4) 0.7500
S1 S 0.42817(4) 0.67129(7) 0.84967(5)
O1 O 0.28905(13) 0.55460(19) 0.58504(18)
O2 O 0.40521(10) 0.38189(17) 0.64490(13)
N1 N 0.59846(16) 0.8265(2) 0.93108(19)
H1 H 0.6536(15) 0.864(3) 0.9844(18)
H2 H 0.5956(19) 0.811(3) 0.8631(16)
N2 N 0.53122(16) 0.7841(2) 1.06245(17)
H3 H 0.4825(18) 0.742(3) 1.071(3)
C1 C 0.52893(16) 0.7659(2) 0.95640(19)
C2 C 0.6069(2) 0.8695(4) 1.1589(2)
H4 H 0.6708 0.8215 1.1861
H5 H 0.5886 0.8773 1.2239
H6 H 0.6112 0.9659 1.1303
C3 C 0.31601(15) 0.4278(2) 0.58252(19)
C4 C 0.24119(16) 0.3198(2) 0.5036(2)
H7 H 0.1769 0.3542 0.4557
C4E C 0.25881(16) 0.1802(2) 0.4964(2)
C3E C 0.18399(15) 0.0722(2) 0.41748(19)
O1E O 0.21095(13) -0.05460(19) 0.41496(18)
O2E O 0.09479(10) 0.11811(17) 0.35510(13)
H7E H 0.3231 0.1458 0.5443
S1B S 0.57183(4) 0.67129(7) 0.65033(5)
N1B N 0.40154(16) 0.8265(2) 0.56892(19)
H1B H 0.3464(15) 0.864(3) 0.5156(18)
H2B H 0.4044(19) 0.811(3) 0.6369(16)
N2B N 0.46878(16) 0.7841(2) 0.43755(17)
H3B H 0.5175(18) 0.742(3) 0.429(3)
C1B C 0.47107(16) 0.7659(2) 0.54360(19)
C2B C 0.3931(2) 0.8695(4) 0.3411(2)
H4B H 0.3292 0.8215 0.3139
H5B H 0.4114 0.8773 0.2761
H6B H 0.3888 0.9659 0.3697
O2B O 0.59479(10) 0.38189(17) 0.85510(13)
Zn1G Zn 0.0000 -0.03212(4) 0.2500
loop_
_geom_bond_atom_site_label_1
_geom_bond_atom_site_label_2
_geom_bond_site_symmetry_1
_geom_bond_site_symmetry_2
Zn1 S1 1_555 1_555
S1 C1 1_555 1_555
O1 C3 1_555 1_555
O2 Zn1 1_555 1_555
N1 H1 1_555 1_555
H2 N1 1_555 1_555
N2 H3 1_555 1_555
C1 N1 1_555 1_555
C2 N2 1_555 1_555
H4 C2 1_555 1_555
H5 C2 1_555 1_555
H6 C2 1_555 1_555
C3 O2 1_555 1_555
C4 C3 1_555 1_555
H7 C4 1_555 1_555
C4E C4 1_555 1_555
C3E C4E 1_555 1_555
O1E C3E 1_555 1_555
O2E C3E 1_555 1_555
H7E C4E 1_555 1_555
S1B Zn1 1_555 1_555
N1B H1B 1_555 1_555
H2B N1B 1_555 1_555
N2B H3B 1_555 1_555
C1B S1B 1_555 1_555
C2B N2B 1_555 1_555
H4B C2B 1_555 1_555
H5B C2B 1_555 1_555
H6B C2B 1_555 1_555
O2B Zn1 1_555 1_555
Zn1G O2E 1_555 1_555
N2 C1 1_555 1_555
N1B C1B 1_555 1_555
N2B C1B 1_555 1_555

#END
