
#######################################################################
#
#                 Cambridge Crystallographic Data Centre
#                                CCDC 
#
#######################################################################
#
# If this CIF has been generated from an entry in the Cambridge 
# Structural Database, then it will include bibliographic, chemical, 
# crystal, experimental, refinement or atomic coordinate data resulting 
# from the CCDC's data processing and validation procedures.
#
#######################################################################

data_ULIGUR
_symmetry_cell_setting           triclinic
_symmetry_space_group_name_H-M   'P -1'
_symmetry_Int_Tables_number      2
_space_group_name_Hall           '-P 1'
loop_
_symmetry_equiv_pos_site_id
_symmetry_equiv_pos_as_xyz
1 x,y,z
2 -x,-y,-z
_cell_length_a                   8.55500(10)
_cell_length_b                   9.6180(2)
_cell_length_c                   13.0360(2)
_cell_angle_alpha                98.2960(10)
_cell_angle_beta                 106.8340(10)
_cell_angle_gamma                100.0610(10)
_cell_volume                     989.027
loop_
_atom_site_label
_atom_site_type_symbol
_atom_site_fract_x
_atom_site_fract_y
_atom_site_fract_z
Zn1 Zn 0.83398(2) 0.75647(2) 0.241636(16)
S1 S 0.69901(6) 0.92073(5) 0.15435(4)
S2 S 0.80369(8) 0.55496(6) 0.11038(5)
O1 O 0.71089(16) 0.69871(14) 0.34066(11)
O2 O 0.7771(2) 0.48586(17) 0.33108(15)
O3 O 1.05535(16) 0.85392(16) 0.34913(12)
O4 O 1.1847(2) 0.8868(2) 0.22586(13)
N1 N 0.6984(2) 1.19275(19) 0.22565(15)
H1 H 0.738(3) 1.276(2) 0.2706(18)
N2 N 0.9164(2) 1.1113(2) 0.32654(15)
H2 H 0.965(3) 1.037(2) 0.334(2)
N3 N 0.7806(3) 0.5323(2) -0.09788(16)
H3 H 0.817(3) 0.557(3) -0.1482(19)
N4 N 0.9617(3) 0.7367(2) 0.01766(16)
H4 H 1.013(3) 0.780(3) 0.0843(15)
C1 C 0.7775(2) 1.0873(2) 0.24206(15)
C2 C 0.5426(4) 1.1787(3) 0.1387(3)
H5 H 0.5547 1.1424 0.0696
H6 H 0.5155 1.2714 0.1385
H7 H 0.4544 1.1130 0.1506
C3 C 0.9920(3) 1.2451(3) 0.4075(2)
H8 H 1.0339 1.3189 0.3735
H9 H 1.0829 1.2307 0.4655
H10 H 0.9093 1.2741 0.4370
C4 C 0.8523(2) 0.6141(2) 0.00228(17)
C5 C 0.6556(3) 0.3964(3) -0.1249(2)
H11 H 0.7084 0.3238 -0.0961
H12 H 0.6068 0.3665 -0.2031
H13 H 0.5694 0.4097 -0.0934
C6 C 1.0040(4) 0.7954(3) -0.0701(2)
H14 H 1.0495 0.7285 -0.1083
H15 H 1.0855 0.8853 -0.0398
H16 H 0.9048 0.8112 -0.1201
C7 C 0.7017(2) 0.57346(19) 0.36188(14)
C8 C 0.5959(2) 0.53524(18) 0.43269(15)
C9 C 0.5338(3) 0.6381(2) 0.4834(2)
H17 H 0.5559 0.7322 0.4729
C10 C 0.5609(3) 0.3964(2) 0.4501(2)
H18 H 0.6017 0.3253 0.4168
C11 C 1.1865(2) 0.8923(2) 0.32069(16)
C12 C 1.3486(2) 0.94871(18) 0.41410(15)
C13 C 1.3510(2) 0.9731(2) 0.52253(16)
H19 H 1.2506 0.9548 0.5378
C14 C 1.4999(2) 0.9759(2) 0.39245(16)
H20 H 1.5005 0.9597 0.3205
C10A C 0.4391(3) 0.6036(2) 0.5499(2)
C8A C 0.4041(2) 0.46476(18) 0.56731(15)
C7A C 0.2983(2) 0.42654(19) 0.63812(14)
O1A O 0.28911(16) 0.30129(14) 0.65934(11)
O2A O 0.2229(2) 0.51414(17) 0.66892(15)
C9A C 0.4662(3) 0.3619(2) 0.5166(2)
H17A H 0.4441 0.2678 0.5271
H18A H 0.3983 0.6747 0.5832
C14A C 1.5001(2) 1.0241(2) 0.60755(16)
C12A C 1.6514(2) 1.05129(18) 0.58590(15)
C11A C 1.8135(2) 1.1077(2) 0.67931(16)
O3A O 1.94465(16) 1.14608(16) 0.65087(12)
O4A O 1.8153(2) 1.1132(2) 0.77414(13)
C13A C 1.6490(2) 1.0269(2) 0.47747(16)
H19A H 1.7494 1.0452 0.4622
H20A H 1.4995 1.0403 0.6795
Zn1A Zn 0.16602(2) 0.24353(2) 0.758364(16)
S1A S 0.30099(6) 0.07927(5) 0.84565(4)
N1A N 0.3016(2) -0.19275(19) 0.77435(15)
H1A H 0.262(3) -0.276(2) 0.7294(18)
N2A N 0.0836(2) -0.1113(2) 0.67346(15)
H2A H 0.035(3) -0.037(2) 0.666(2)
C1A C 0.2225(2) -0.0873(2) 0.75794(15)
C2A C 0.4574(4) -0.1787(3) 0.8613(3)
H5A H 0.4453 -0.1424 0.9304
H6A H 0.4845 -0.2714 0.8615
H7A H 0.5456 -0.1130 0.8494
C3A C 0.0080(3) -0.2451(3) 0.5925(2)
H8A H -0.0339 -0.3189 0.6265
H9A H -0.0829 -0.2307 0.5345
H10A H 0.0907 -0.2741 0.5630
S2A S 0.19631(8) 0.44504(6) 0.88962(5)
N3A N 0.2194(3) 0.4677(2) 1.09788(16)
H3A H 0.183(3) 0.443(3) 1.1482(19)
N4A N 0.0383(3) 0.2633(2) 0.98234(16)
H4A H -0.013(3) 0.220(3) 0.9157(15)
C4A C 0.1477(2) 0.3859(2) 0.99772(17)
C5A C 0.3444(3) 0.6036(3) 1.1249(2)
H11A H 0.2916 0.6762 1.0961
H12A H 0.3932 0.6335 1.2031
H13A H 0.4306 0.5903 1.0934
C6A C -0.0040(4) 0.2046(3) 1.0701(2)
H14A H -0.0495 0.2715 1.1083
H15A H -0.0855 0.1147 1.0398
H16A H 0.0952 0.1888 1.1201
Zn1A_2 Zn 2.16602(2) 1.24353(2) 0.758364(16)
O3A_2 O -0.05535(16) 0.14608(16) 0.65087(12)
O5 O 0.8593(4) 0.4871(4) -0.3015(3)
loop_
_geom_bond_atom_site_label_1
_geom_bond_atom_site_label_2
_geom_bond_site_symmetry_1
_geom_bond_site_symmetry_2
Zn1 S1 1_555 1_555
S1 C1 1_555 1_555
S2 Zn1 1_555 1_555
O1 Zn1 1_555 1_555
O2 C7 1_555 1_555
O3 Zn1 1_555 1_555
O4 C11 1_555 1_555
N1 H1 1_555 1_555
N2 H2 1_555 1_555
N3 H3 1_555 1_555
N4 H4 1_555 1_555
C1 N1 1_555 1_555
C2 N1 1_555 1_555
H5 C2 1_555 1_555
H6 C2 1_555 1_555
H7 C2 1_555 1_555
C3 N2 1_555 1_555
H8 C3 1_555 1_555
H9 C3 1_555 1_555
H10 C3 1_555 1_555
C4 S2 1_555 1_555
C5 N3 1_555 1_555
H11 C5 1_555 1_555
H12 C5 1_555 1_555
H13 C5 1_555 1_555
C6 N4 1_555 1_555
H14 C6 1_555 1_555
H15 C6 1_555 1_555
H16 C6 1_555 1_555
C7 O1 1_555 1_555
C8 C7 1_555 1_555
C9 C8 1_555 1_555
H17 C9 1_555 1_555
C10 C8 1_555 1_555
H18 C10 1_555 1_555
C11 O3 1_555 1_555
C12 C11 1_555 1_555
C13 C12 1_555 1_555
H19 C13 1_555 1_555
C14 C12 1_555 1_555
H20 C14 1_555 1_555
C10A C9 1_555 1_555
C8A C10A 1_555 1_555
C7A C8A 1_555 1_555
O1A C7A 1_555 1_555
O2A C7A 1_555 1_555
C9A C10 1_555 1_555
H17A C9A 1_555 1_555
H18A C10A 1_555 1_555
C14A C13 1_555 1_555
C12A C14A 1_555 1_555
C11A C12A 1_555 1_555
O3A C11A 1_555 1_555
O4A C11A 1_555 1_555
C13A C14 1_555 1_555
H19A C13A 1_555 1_555
H20A C14A 1_555 1_555
Zn1A O1A 1_555 1_555
S1A Zn1A 1_555 1_555
N1A H1A 1_555 1_555
N2A H2A 1_555 1_555
C1A S1A 1_555 1_555
C2A N1A 1_555 1_555
H5A C2A 1_555 1_555
H6A C2A 1_555 1_555
H7A C2A 1_555 1_555
C3A N2A 1_555 1_555
H8A C3A 1_555 1_555
H9A C3A 1_555 1_555
H10A C3A 1_555 1_555
S2A Zn1A 1_555 1_555
N3A H3A 1_555 1_555
N4A H4A 1_555 1_555
C4A S2A 1_555 1_555
C5A N3A 1_555 1_555
H11A C5A 1_555 1_555
H12A C5A 1_555 1_555
H13A C5A 1_555 1_555
C6A N4A 1_555 1_555
H14A C6A 1_555 1_555
H15A C6A 1_555 1_555
H16A C6A 1_555 1_555
Zn1A_2 O3A 1_555 1_555
O3A_2 Zn1A 1_555 1_555
N2 C1 1_555 1_555
N3 C4 1_555 1_555
N4 C4 1_555 1_555
C8A C9A 1_555 1_555
C12A C13A 1_555 1_555
N1A C1A 1_555 1_555
N2A C1A 1_555 1_555
N3A C4A 1_555 1_555
N4A C4A 1_555 1_555

#END
