
#######################################################################
#
#                 Cambridge Crystallographic Data Centre
#                                CCDC 
#
#######################################################################
#
# If this CIF has been generated from an entry in the Cambridge 
# Structural Database, then it will include bibliographic, chemical, 
# crystal, experimental, refinement or atomic coordinate data resulting 
# from the CCDC's data processing and validation procedures.
#
#######################################################################

data_ULIHAY
_symmetry_cell_setting           monoclinic
_symmetry_space_group_name_H-M   'P 21/n'
_symmetry_Int_Tables_number      14
_space_group_name_Hall           '-P 2yn'
loop_
_symmetry_equiv_pos_site_id
_symmetry_equiv_pos_as_xyz
1 x,y,z
2 1/2-x,1/2+y,1/2-z
3 -x,-y,-z
4 1/2+x,1/2-y,1/2+z
_cell_length_a                   7.7910(2)
_cell_length_b                   14.6240(2)
_cell_length_c                   15.1050(4)
_cell_angle_alpha                90
_cell_angle_beta                 94.1120(11)
_cell_angle_gamma                90
_cell_volume                     1716.57
loop_
_atom_site_label
_atom_site_type_symbol
_atom_site_fract_x
_atom_site_fract_y
_atom_site_fract_z
Zn1 Zn 0.105114(19) 0.212160(9) -0.134132(9)
S1 S -0.15689(5) 0.13842(3) -0.13375(2)
S2 S 0.19439(5) 0.24879(3) -0.27335(2)
O1 O 0.11265(14) 0.31830(6) -0.05241(7)
O2 O -0.10343(13) 0.39226(6) -0.12677(6)
O3 O 0.26873(16) 0.02016(7) -0.12290(8)
O4 O 0.30777(13) 0.16043(7) -0.06699(7)
N1 N -0.01063(16) 0.02248(8) -0.24123(9)
H1 H 0.072(2) 0.0250(12) -0.2045(11)
N2 N -0.12822(17) 0.30645(9) -0.30554(8)
H2 H -0.112(2) 0.3254(13) -0.2528(10)
N3 N -0.29496(16) 0.05177(9) -0.27675(9)
H3 H -0.300(2) 0.0050(12) -0.3148(12)
N4 N -0.00178(18) 0.24376(9) -0.42375(8)
H4 H -0.087(2) 0.2659(13) -0.4552(12)
C1 C -0.15282(18) 0.06573(9) -0.22422(9)
C2 C -0.4587(2) 0.09794(16) -0.27022(14)
H5 H -0.5006 0.1207 -0.3289
H6 H -0.4434 0.1494 -0.2288
H7 H -0.5425 0.0549 -0.2485
C3 C 0.0117(2) -0.03145(11) -0.32023(11)
H8 H 0.1291 -0.0559 -0.3178
H9 H -0.0081 0.0072 -0.3730
H10 H -0.0708 -0.0821 -0.3233
C4 C 0.00627(18) 0.26771(9) -0.33877(9)
C5 C -0.2933(2) 0.32203(14) -0.35460(11)
H11 H -0.3826 0.3304 -0.3128
H12 H -0.3223 0.2692 -0.3927
H13 H -0.2863 0.3770 -0.3913
C6 C 0.1389(3) 0.20227(13) -0.46807(12)
H14 H 0.1052 0.1920 -0.5290
H15 H 0.1732 0.1465 -0.4393
H16 H 0.2385 0.2438 -0.4645
C7 C 0.01463(18) 0.38680(8) -0.06708(8)
C8 C 0.05185(18) 0.46496(9) -0.00418(9)
H17 H 0.1569 0.4638 0.0319
C9 C 0.34286(19) 0.07547(9) -0.07197(9)
C10 C 0.48716(19) 0.04316(9) -0.00905(10)
H18 H 0.5629 0.0871 0.0188
C8B C -0.05185(18) 0.53504(9) 0.00418(9)
C7B C -0.01463(18) 0.61320(8) 0.06708(8)
O1B O -0.11265(14) 0.68170(6) 0.05241(7)
O2B O 0.10343(13) 0.60774(6) 0.12677(6)
H17B H -0.1569 0.5362 -0.0319
C10B C 0.51284(19) -0.04316(9) 0.00905(10)
C9B C 0.65714(19) -0.07547(9) 0.07197(9)
O3B O 0.73127(16) -0.02016(7) 0.12290(8)
O4B O 0.69223(13) -0.16043(7) 0.06699(7)
H18B H 0.4371 -0.0871 -0.0188
Zn1B Zn -0.105114(19) 0.787840(9) 0.134132(9)
S1B S 0.15689(5) 0.86158(3) 0.13375(2)
N1B N 0.01063(16) 0.97752(8) 0.24123(9)
H1B H -0.072(2) 0.9750(12) 0.2045(11)
N3B N 0.29496(16) 0.94823(9) 0.27675(9)
H3B H 0.300(2) 0.9950(12) 0.3148(12)
C1B C 0.15282(18) 0.93427(9) 0.22422(9)
C2B C 0.4587(2) 0.90206(16) 0.27022(14)
H5B H 0.5006 0.8793 0.3289
H6B H 0.4434 0.8506 0.2288
H7B H 0.5425 0.9451 0.2485
C3B C -0.0117(2) 1.03145(11) 0.32023(11)
H8B H -0.1291 1.0559 0.3178
H9B H 0.0081 0.9928 0.3730
H10B H 0.0708 1.0821 0.3233
S2B S -0.19439(5) 0.75121(3) 0.27335(2)
N2B N 0.12822(17) 0.69355(9) 0.30554(8)
H2B H 0.112(2) 0.6746(13) 0.2528(10)
N4B N 0.00178(18) 0.75624(9) 0.42375(8)
H4B H 0.087(2) 0.7341(13) 0.4552(12)
C4B C -0.00627(18) 0.73229(9) 0.33877(9)
C5B C 0.2933(2) 0.67797(14) 0.35460(11)
H11B H 0.3826 0.6696 0.3128
H12B H 0.3223 0.7308 0.3927
H13B H 0.2863 0.6230 0.3913
C6B C -0.1389(3) 0.79773(13) 0.46807(12)
H14B H -0.1052 0.8080 0.5290
H15B H -0.1732 0.8535 0.4393
H16B H -0.2385 0.7562 0.4645
Zn1B_2 Zn 0.894886(19) -0.212160(9) 0.134132(9)
O4B_2 O -0.30777(13) 0.83957(7) 0.06699(7)
loop_
_geom_bond_atom_site_label_1
_geom_bond_atom_site_label_2
_geom_bond_site_symmetry_1
_geom_bond_site_symmetry_2
Zn1 S1 1_555 1_555
S1 C1 1_555 1_555
S2 Zn1 1_555 1_555
O1 Zn1 1_555 1_555
O2 C7 1_555 1_555
O3 C9 1_555 1_555
O4 Zn1 1_555 1_555
N1 H1 1_555 1_555
N2 H2 1_555 1_555
N3 H3 1_555 1_555
N4 H4 1_555 1_555
C1 N1 1_555 1_555
C2 N3 1_555 1_555
H5 C2 1_555 1_555
H6 C2 1_555 1_555
H7 C2 1_555 1_555
C3 N1 1_555 1_555
H8 C3 1_555 1_555
H9 C3 1_555 1_555
H10 C3 1_555 1_555
C4 S2 1_555 1_555
C5 N2 1_555 1_555
H11 C5 1_555 1_555
H12 C5 1_555 1_555
H13 C5 1_555 1_555
C6 N4 1_555 1_555
H14 C6 1_555 1_555
H15 C6 1_555 1_555
H16 C6 1_555 1_555
C7 O1 1_555 1_555
C8 C7 1_555 1_555
H17 C8 1_555 1_555
C9 O4 1_555 1_555
C10 C9 1_555 1_555
H18 C10 1_555 1_555
C8B C8 1_555 1_555
C7B C8B 1_555 1_555
O1B C7B 1_555 1_555
O2B C7B 1_555 1_555
H17B C8B 1_555 1_555
C10B C10 1_555 1_555
C9B C10B 1_555 1_555
O3B C9B 1_555 1_555
O4B C9B 1_555 1_555
H18B C10B 1_555 1_555
Zn1B O1B 1_555 1_555
S1B Zn1B 1_555 1_555
N1B H1B 1_555 1_555
N3B H3B 1_555 1_555
C1B S1B 1_555 1_555
C2B N3B 1_555 1_555
H5B C2B 1_555 1_555
H6B C2B 1_555 1_555
H7B C2B 1_555 1_555
C3B N1B 1_555 1_555
H8B C3B 1_555 1_555
H9B C3B 1_555 1_555
H10B C3B 1_555 1_555
S2B Zn1B 1_555 1_555
N2B H2B 1_555 1_555
N4B H4B 1_555 1_555
C4B S2B 1_555 1_555
C5B N2B 1_555 1_555
H11B C5B 1_555 1_555
H12B C5B 1_555 1_555
H13B C5B 1_555 1_555
C6B N4B 1_555 1_555
H14B C6B 1_555 1_555
H15B C6B 1_555 1_555
H16B C6B 1_555 1_555
Zn1B_2 O4B 1_555 1_555
O4B_2 Zn1B 1_555 1_555
N2 C4 1_555 1_555
N3 C1 1_555 1_555
N4 C4 1_555 1_555
N1B C1B 1_555 1_555
N3B C1B 1_555 1_555
N2B C4B 1_555 1_555
N4B C4B 1_555 1_555

#END
