
#######################################################################
#
#                 Cambridge Crystallographic Data Centre
#                                CCDC 
#
#######################################################################
#
# If this CIF has been generated from an entry in the Cambridge 
# Structural Database, then it will include bibliographic, chemical, 
# crystal, experimental, refinement or atomic coordinate data resulting 
# from the CCDC's data processing and validation procedures.
#
#######################################################################

data_ULISOX
_symmetry_cell_setting           orthorhombic
_symmetry_space_group_name_H-M   'P n m a'
_symmetry_Int_Tables_number      62
_space_group_name_Hall           '-P 2ac 2n'
loop_
_symmetry_equiv_pos_site_id
_symmetry_equiv_pos_as_xyz
1 x,y,z
2 1/2-x,1/2+y,1/2+z
3 x,1/2-y,z
4 1/2+x,y,1/2-z
5 -x,-y,-z
6 1/2+x,1/2-y,1/2-z
7 -x,1/2+y,-z
8 1/2-x,-y,1/2+z
_cell_length_a                   6.3635(4)
_cell_length_b                   7.5998(3)
_cell_length_c                   13.1715(9)
_cell_angle_alpha                90
_cell_angle_beta                 90
_cell_angle_gamma                90
_cell_volume                     636.991
loop_
_atom_site_label
_atom_site_type_symbol
_atom_site_fract_x
_atom_site_fract_y
_atom_site_fract_z
Li1 Li -0.466(5) -0.7500 0.325(3)
B1 B -0.089(2) -0.2500 0.4597(11)
O1 O -0.2012(11) -0.0991(8) 0.4155(7)
C1 C -0.3549(18) -0.1484(3) 0.3538(9)
O2 O -0.4795(10) -0.0535(7) 0.3119(6)
O3 O -0.112 -0.2500 0.5708(10)
C2 C 0.080(2) -0.2500 0.6090(10)
O4 O 0.1373(16) -0.2500 0.6955(9)
O5 O 0.135(2) -0.2500 0.4319(8)
C3 C 0.2364(17) -0.2500 0.5195(11)
O6 O 0.4247(15) -0.2500 0.5295(7)
O1B O -0.2012(11) -0.4009(8) 0.4155(7)
C1B C -0.3549(18) -0.3516(3) 0.3538(9)
O2B O -0.4795(10) -0.4465(7) 0.3119(6)
Li1_2 Li -0.466(5) 0.2500 0.325(3)
O2_2 O -0.4795(10) -1.0535(7) 0.3119(6)
O4D O -0.1373(16) -0.7500 0.3045(9)
O4A O -0.6373(16) -0.7500 0.1955(9)
O6D O -0.4247(15) -0.7500 0.4705(7)
Li1D Li 0.466(5) -0.2500 0.675(3)
Li1A Li -0.034(5) -0.2500 0.825(3)
loop_
_geom_bond_atom_site_label_1
_geom_bond_atom_site_label_2
_geom_bond_site_symmetry_1
_geom_bond_site_symmetry_2
Li1 O2B 1_555 1_555
B1 O1 1_555 1_555
O1 C1 1_555 1_555
C1 O2 1_555 1_555
O2 Li1_2 1_555 1_555
O3 B1 1_555 1_555
C2 O3 1_555 1_555
O4 C2 1_555 1_555
O5 B1 1_555 1_555
C3 C2 1_555 1_555
O6 C3 1_555 1_555
O1B B1 1_555 1_555
C1B C1 1_555 1_555
O2B C1B 1_555 1_555
O2_2 Li1 1_555 1_555
O4D Li1 1_555 1_555
O4A Li1 1_555 1_555
O6D Li1 1_555 1_555
Li1D O4 1_555 1_555
Li1A O4 1_555 1_555
O5 C3 1_555 1_555
O6 Li1D 1_555 1_555
O1B C1B 1_555 1_555

#END
