
#######################################################################
#
#                 Cambridge Crystallographic Data Centre
#                                CCDC 
#
#######################################################################
#
# If this CIF has been generated from an entry in the Cambridge 
# Structural Database, then it will include bibliographic, chemical, 
# crystal, experimental, refinement or atomic coordinate data resulting 
# from the CCDC's data processing and validation procedures.
#
#######################################################################

data_ULOFUX
_symmetry_cell_setting           monoclinic
_symmetry_space_group_name_H-M   'P 21/c'
_symmetry_Int_Tables_number      14
_space_group_name_Hall           '-P 2ybc'
loop_
_symmetry_equiv_pos_site_id
_symmetry_equiv_pos_as_xyz
1 x,y,z
2 -x,1/2+y,1/2-z
3 -x,-y,-z
4 x,1/2-y,1/2+z
_cell_length_a                   7.5670(2)
_cell_length_b                   16.1280(5)
_cell_length_c                   17.9040(5)
_cell_angle_alpha                90
_cell_angle_beta                 95.516(2)
_cell_angle_gamma                90
_cell_volume                     2174.9
loop_
_atom_site_label
_atom_site_type_symbol
_atom_site_fract_x
_atom_site_fract_y
_atom_site_fract_z
Cd1 Cd 0.21264(4) 0.34161(2) 0.320005(17)
O1 O 0.2363(4) 0.27962(19) 0.43737(16)
O2 O 0.2180(4) 0.1923(2) 0.34228(16)
O3 O 0.3083(5) -0.1038(2) 0.39827(17)
H1 H 0.3402 -0.1521 0.3886
O4 O 0.2884(4) -0.1567(2) 0.51260(17)
O5 O 0.2062(4) 0.0488(2) 0.72096(16)
O6 O 0.1918(4) 0.1818(2) 0.69321(16)
O7 O 0.1926(4) 0.4650(2) 0.39148(16)
N1 N -0.1045(5) 0.3362(2) 0.31656(18)
N2 N -0.4727(5) 0.3424(2) 0.31966(18)
N3 N 0.0812(5) 0.5967(3) 0.3929(2)
C1 C 0.2268(6) 0.2070(3) 0.4108(3)
C2 C 0.2835(6) -0.0984(3) 0.4698(3)
C3 C 0.2000(6) 0.1074(3) 0.6743(2)
C4 C 0.2264(6) 0.1356(3) 0.4653(2)
C5 C 0.2484(6) 0.0543(3) 0.4424(2)
H2 H 0.2603 0.0428 0.3911
C6 C 0.2531(6) -0.0107(3) 0.4939(2)
C7 C 0.2354(6) 0.0059(3) 0.5688(2)
H3 H 0.2401 -0.0381 0.6041
C8 C 0.2108(6) 0.0875(3) 0.5926(2)
C9 C 0.2070(6) 0.1511(3) 0.5404(2)
H4 H 0.1908 0.2065 0.5563
C10 C -0.1883(7) 0.2867(3) 0.3607(3)
H5 H -0.1213 0.2481 0.3918
C11 C -0.3719(6) 0.2898(3) 0.3625(2)
H6 H -0.4266 0.2534 0.3951
C12 C -0.3884(6) 0.3893(3) 0.2734(2)
H7 H -0.4554 0.4257 0.2399
C13 C -0.2065(7) 0.3867(3) 0.2728(2)
H8 H -0.1520 0.4225 0.2397
C14 C 0.1240(6) 0.5261(3) 0.3606(3)
H9 H 0.0984 0.5229 0.3077
C15 C 0.1168(7) 0.6074(3) 0.4744(3)
H10 H 0.1842 0.5597 0.4958
H11 H 0.0041 0.6115 0.4970
H12 H 0.1858 0.6582 0.4850
C16 C -0.0022(7) 0.6652(3) 0.3505(3)
H13 H -0.0247 0.6493 0.2976
H14 H 0.0765 0.7136 0.3549
H15 H -0.1149 0.6790 0.3704
Cd1C Cd 0.21264(4) 0.15839(2) 0.820005(17)
Cd1_2 Cd -0.78736(4) 0.34161(2) 0.320005(17)
O5C O 0.2062(4) 0.4512(2) 0.22096(16)
O6C O 0.1918(4) 0.3182(2) 0.19321(16)
N2_2 N 0.5273(5) 0.3424(2) 0.31966(18)
O8 O 0.3966(5) -0.2460(2) 0.35069(19)
N4 N 0.5322(5) -0.3701(3) 0.3670(2)
C17 C 0.4745(7) -0.2990(4) 0.3918(3)
H16 H 0.4938 -0.2878 0.4441
C18 C 0.5090(8) -0.3887(3) 0.2870(3)
H17 H 0.4516 -0.3417 0.2598
H18 H 0.4346 -0.4382 0.2785
H19 H 0.6252 -0.3989 0.2688
C19 C 0.6117(7) -0.4333(3) 0.4174(3)
H20 H 0.6318 -0.4106 0.4683
H21 H 0.7252 -0.4510 0.4005
H22 H 0.5315 -0.4811 0.4175
loop_
_geom_bond_atom_site_label_1
_geom_bond_atom_site_label_2
_geom_bond_site_symmetry_1
_geom_bond_site_symmetry_2
Cd1 O1 1_555 1_555
O1 C1 1_555 1_555
O2 Cd1 1_555 1_555
O3 H1 1_555 1_555
O4 C2 1_555 1_555
O5 C3 1_555 1_555
O6 C3 1_555 1_555
O7 Cd1 1_555 1_555
O8 C17 1_555 1_555
N1 Cd1 1_555 1_555
N2 C11 1_555 1_555
N3 C14 1_555 1_555
N4 C17 1_555 1_555
C1 O2 1_555 1_555
C2 O3 1_555 1_555
C3 C8 1_555 1_555
C4 C1 1_555 1_555
C5 C4 1_555 1_555
H2 C5 1_555 1_555
C6 C2 1_555 1_555
C7 C6 1_555 1_555
H3 C7 1_555 1_555
C8 C7 1_555 1_555
C9 C4 1_555 1_555
H4 C9 1_555 1_555
C10 N1 1_555 1_555
H5 C10 1_555 1_555
C11 C10 1_555 1_555
H6 C11 1_555 1_555
C12 N2 1_555 1_555
H7 C12 1_555 1_555
C13 N1 1_555 1_555
H8 C13 1_555 1_555
C14 O7 1_555 1_555
H9 C14 1_555 1_555
C15 N3 1_555 1_555
H10 C15 1_555 1_555
H11 C15 1_555 1_555
H12 C15 1_555 1_555
C16 N3 1_555 1_555
H13 C16 1_555 1_555
H14 C16 1_555 1_555
H15 C16 1_555 1_555
C17 H16 1_555 1_555
C18 N4 1_555 1_555
H17 C18 1_555 1_555
H18 C18 1_555 1_555
H19 C18 1_555 1_555
C19 N4 1_555 1_555
H20 C19 1_555 1_555
H21 C19 1_555 1_555
H22 C19 1_555 1_555
Cd1C O5 1_555 1_555
Cd1_2 N2 1_555 1_555
O5C Cd1 1_555 1_555
O6C Cd1 1_555 1_555
N2_2 Cd1 1_555 1_555
O6 Cd1C 1_555 1_555
C5 C6 1_555 1_555
C8 C9 1_555 1_555
C12 C13 1_555 1_555

#END
