
#######################################################################
#
#                 Cambridge Crystallographic Data Centre
#                                CCDC 
#
#######################################################################
#
# If this CIF has been generated from an entry in the Cambridge 
# Structural Database, then it will include bibliographic, chemical, 
# crystal, experimental, refinement or atomic coordinate data resulting 
# from the CCDC's data processing and validation procedures.
#
#######################################################################

data_ULOFIL
_symmetry_cell_setting           orthorhombic
_symmetry_space_group_name_H-M   'F d d 2'
_symmetry_Int_Tables_number      43
_space_group_name_Hall           'F 2 -2d'
loop_
_symmetry_equiv_pos_site_id
_symmetry_equiv_pos_as_xyz
1 x,y,z
2 -x,-y,z
3 1/4-x,1/4+y,1/4+z
4 1/4+x,1/4-y,1/4+z
5 x,1/2+y,1/2+z
6 -x,1/2-y,1/2+z
7 1/4-x,3/4+y,3/4+z
8 1/4+x,3/4-y,3/4+z
9 1/2+x,y,1/2+z
10 1/2-x,-y,1/2+z
11 3/4-x,1/4+y,3/4+z
12 3/4+x,1/4-y,3/4+z
13 1/2+x,1/2+y,z
14 1/2-x,1/2-y,z
15 3/4-x,3/4+y,1/4+z
16 3/4+x,3/4-y,1/4+z
_cell_length_a                   19.8663(9)
_cell_length_b                   69.269(3)
_cell_length_c                   12.5056(5)
_cell_angle_alpha                90
_cell_angle_beta                 90
_cell_angle_gamma                90
_cell_volume                     17209.2
loop_
_atom_site_label
_atom_site_type_symbol
_atom_site_fract_x
_atom_site_fract_y
_atom_site_fract_z
Cu1 Cu 0.96406(2) 0.247817(6) 0.12718(4)
Cu2 Cu 0.84414(2) 0.139210(6) 0.11863(4)
Cl1 Cl 0.68242(8) 0.164558(18) 0.03336(15)
Cl2 Cl 0.95301(7) 0.277010(17) 0.37765(12)
O1 O 1.00441(15) 0.22674(4) 0.2020(3)
N1 N 0.7715(2) 0.12323(7) 0.1818(4)
H1 H 0.7369 0.1304 0.1550
N2 N 0.84086(19) 0.12094(5) -0.0094(3)
O2 O 0.88426(18) 0.23353(4) 0.1062(4)
C1 C 0.8781(3) 0.21498(7) 0.1146(7)
C2 C 0.9245(2) 0.20255(6) 0.1578(4)
C3 C 0.9856(2) 0.20926(6) 0.1984(4)
C4 C 1.0355(3) 0.19543(6) 0.2425(6)
H2 H 1.0744 0.2024 0.2669
H3 H 1.0485 0.1865 0.1878
H4 H 1.0158 0.1885 0.3013
C5 C 0.9089(2) 0.18138(6) 0.1562(4)
C6 C 0.9297(3) 0.17041(7) 0.0687(4)
O3 O 0.91519(18) 0.15258(5) 0.0523(3)
O4 O 0.85032(15) 0.15553(4) 0.2405(3)
C7 C 0.8731(2) 0.17297(6) 0.2396(4)
C8 C 0.8576(4) 0.18388(8) 0.3379(6)
H5 H 0.8323 0.1759 0.3859
H6 H 0.8316 0.1951 0.3200
H7 H 0.8987 0.1878 0.3718
C9 C 0.7606(3) 0.10671(7) 0.1135(5)
H8 H 0.7842 0.0957 0.1440
H9 H 0.7130 0.1037 0.1136
C10 C 0.7819(4) 0.10903(10) 0.0060(6)
H10 H 0.7451 0.1146 -0.0345
H11 H 0.7910 0.0964 -0.0236
C11 C 0.8327(4) 0.13107(9) -0.1112(5)
H12 H 0.7924 0.1387 -0.1091
H13 H 0.8294 0.1218 -0.1681
H14 H 0.8708 0.1393 -0.1233
C12 C 0.9013(4) 0.10943(13) -0.0141(7)
H15 H 0.9074 0.1028 0.0526
H16 H 0.9393 0.1177 -0.0272
H17 H 0.8975 0.1002 -0.0709
C13 C 0.7521(4) 0.12437(12) 0.2832(6)
H18 H 0.7389 0.1376 0.2963
H19 H 0.7915 0.1219 0.3270
C14 C 0.6967(3) 0.11179(8) 0.3244(5)
N3 N 0.9199(2) 0.27017(5) 0.0479(4)
C15 C 0.8561(3) 0.27604(8) 0.0971(8)
H20 H 0.8640 0.2798 0.1700
H21 H 0.8251 0.2654 0.0953
H22 H 0.8376 0.2868 0.0583
C16 C 0.9684(3) 0.28637(7) 0.0521(5)
H23 H 0.9605 0.2950 -0.0076
H24 H 0.9620 0.2936 0.1177
C17 C 1.0373(3) 0.27909(7) 0.0474(5)
H25 H 1.0688 0.2896 0.0578
H26 H 1.0458 0.2734 -0.0221
N4 N 1.04640(16) 0.26454(4) 0.1315(4)
H27 H 1.0434 0.2712 0.1942
C18 C 1.1137(3) 0.25552(7) 0.1329(7)
H28 H 1.1204 0.2487 0.0660
H29 H 1.1151 0.2461 0.1900
C19 C 1.1699(3) 0.26936(10) 0.1479(10)
O5 O 0.6602(4) 0.17688(8) -0.0440(6)
O6 O 0.6591(2) 0.14555(6) 0.0165(7)
O7 O 0.9296(3) 0.26095(7) 0.3205(4)
O8 O 0.9068(4) 0.28968(13) 0.3985(14)
O9 O 0.7503(3) 0.16324(8) 0.0437(8)
C20 C 0.9735(6) 0.17866(12) -0.0160(6)
H30 H 0.9828 0.1690 -0.0689
H31 H 1.0151 0.1830 0.0152
H32 H 0.9512 0.1894 -0.0491
O10 O 0.6600(9) 0.17232(13) 0.1255(11)
C21 C 1.2726(7) 0.2945(3) 0.185(2)
H33 H 1.3086 0.3027 0.1983
C22 C 0.8118(5) 0.20782(10) 0.0747(14)
H34 H 0.7860 0.2185 0.0476
H35 H 0.7877 0.2018 0.1322
H36 H 0.8191 0.1986 0.0185
C23 C 0.9085(5) 0.26434(10) -0.0641(6)
H37 H 0.9504 0.2605 -0.0958
H38 H 0.8899 0.2750 -0.1033
H39 H 0.8776 0.2537 -0.0660
O11 O 0.9810(7) 0.27159(13) 0.4669(7)
C24 C 0.6319(4) 0.1171(2) 0.3076(7)
H40 H 0.6211 0.1285 0.2730
O12 O 1.0011(6) 0.28658(11) 0.3209(5)
C25 C 0.6615(18) 0.0816(3) 0.4255(18)
H41 H 0.6702 0.0707 0.4671
C26 C 0.6127(15) 0.0873(3) 0.3973(15)
H42 H 0.5807 0.0778 0.4110
C27 C 0.7086(6) 0.09543(14) 0.3807(7)
H43 H 0.7538 0.0926 0.3924
C28 C 1.2113(4) 0.27326(13) 0.0619(14)
H44 H 1.2042 0.2673 -0.0038
C29 C 1.2344(7) 0.29087(19) 0.2605(17)
H45 H 1.2418 0.2964 0.3272
C30 C 1.2655(7) 0.2867(2) 0.076(2)
H46 H 1.2941 0.2902 0.0205
C31 C 1.1804(5) 0.27851(15) 0.2449(13)
H47 H 1.1505 0.2763 0.3008
C32 C 0.5775(5) 0.1033(3) 0.3481(12)
H48 H 0.5312 0.1049 0.3423
Cu1E Cu 1.03594(2) 0.252183(6) 0.62718(4)
O11E O 1.0190(7) 0.22841(13) -0.0331(7)
loop_
_geom_bond_atom_site_label_1
_geom_bond_atom_site_label_2
_geom_bond_site_symmetry_1
_geom_bond_site_symmetry_2
Cu1 O1 1_555 1_555
Cu2 N1 1_555 1_555
Cl1 O5 1_555 1_555
Cl2 O7 1_555 1_555
O1 C3 1_555 1_555
N1 H1 1_555 1_555
N2 Cu2 1_555 1_555
O2 Cu1 1_555 1_555
C1 O2 1_555 1_555
C2 C1 1_555 1_555
C3 C2 1_555 1_555
C4 C3 1_555 1_555
H2 C4 1_555 1_555
H3 C4 1_555 1_555
H4 C4 1_555 1_555
C5 C2 1_555 1_555
C6 C5 1_555 1_555
O3 Cu2 1_555 1_555
O4 Cu2 1_555 1_555
C7 C5 1_555 1_555
C8 C7 1_555 1_555
H5 C8 1_555 1_555
H6 C8 1_555 1_555
H7 C8 1_555 1_555
C9 N1 1_555 1_555
H8 C9 1_555 1_555
H9 C9 1_555 1_555
C10 N2 1_555 1_555
H10 C10 1_555 1_555
H11 C10 1_555 1_555
C11 N2 1_555 1_555
H12 C11 1_555 1_555
H13 C11 1_555 1_555
H14 C11 1_555 1_555
C12 N2 1_555 1_555
H15 C12 1_555 1_555
H16 C12 1_555 1_555
H17 C12 1_555 1_555
C13 N1 1_555 1_555
H18 C13 1_555 1_555
H19 C13 1_555 1_555
C14 C13 1_555 1_555
N3 Cu1 1_555 1_555
C15 N3 1_555 1_555
H20 C15 1_555 1_555
H21 C15 1_555 1_555
H22 C15 1_555 1_555
C16 N3 1_555 1_555
H23 C16 1_555 1_555
H24 C16 1_555 1_555
C17 C16 1_555 1_555
H25 C17 1_555 1_555
H26 C17 1_555 1_555
N4 Cu1 1_555 1_555
H27 N4 1_555 1_555
C18 N4 1_555 1_555
H28 C18 1_555 1_555
H29 C18 1_555 1_555
C19 C18 1_555 1_555
O6 Cl1 1_555 1_555
O7 Cu1 1_555 1_555
O8 Cl2 1_555 1_555
O9 Cu2 1_555 1_555
C20 C6 1_555 1_555
H30 C20 1_555 1_555
H31 C20 1_555 1_555
H32 C20 1_555 1_555
O10 Cl1 1_555 1_555
C21 H33 1_555 1_555
C22 C1 1_555 1_555
H34 C22 1_555 1_555
H35 C22 1_555 1_555
H36 C22 1_555 1_555
C23 N3 1_555 1_555
H37 C23 1_555 1_555
H38 C23 1_555 1_555
H39 C23 1_555 1_555
O11 Cl2 1_555 1_555
C24 C14 1_555 1_555
H40 C24 1_555 1_555
O12 Cl2 1_555 1_555
C25 H41 1_555 1_555
C26 C25 1_555 1_555
H42 C26 1_555 1_555
C27 C14 1_555 1_555
H43 C27 1_555 1_555
C28 C19 1_555 1_555
H44 C28 1_555 1_555
C29 C21 1_555 1_555
H45 C29 1_555 1_555
C30 C21 1_555 1_555
H46 C30 1_555 1_555
C31 C19 1_555 1_555
H47 C31 1_555 1_555
C32 C24 1_555 1_555
H48 C32 1_555 1_555
Cu1E O11 1_555 1_555
O11E Cu1 1_555 1_555
Cl1 O9 1_555 1_555
C6 O3 1_555 1_555
O4 C7 1_555 1_555
C9 C10 1_555 1_555
C17 N4 1_555 1_555
C25 C27 1_555 1_555
C26 C32 1_555 1_555
C28 C30 1_555 1_555
C29 C31 1_555 1_555

#END
