
#######################################################################
#
#                 Cambridge Crystallographic Data Centre
#                                CCDC 
#
#######################################################################
#
# If this CIF has been generated from an entry in the Cambridge 
# Structural Database, then it will include bibliographic, chemical, 
# crystal, experimental, refinement or atomic coordinate data resulting 
# from the CCDC's data processing and validation procedures.
#
#######################################################################

data_ULOFOR
_symmetry_cell_setting           orthorhombic
_symmetry_space_group_name_H-M   'P 2 21 21'
_symmetry_Int_Tables_number      18
_space_group_name_Hall           'P 2bc 2'
loop_
_symmetry_equiv_pos_site_id
_symmetry_equiv_pos_as_xyz
1 x,y,z
2 -x,1/2-y,1/2+z
3 x,-y,-z
4 -x,1/2+y,1/2-z
_cell_length_a                   9.20400(10)
_cell_length_b                   14.1920(2)
_cell_length_c                   18.1270(2)
_cell_angle_alpha                90
_cell_angle_beta                 90
_cell_angle_gamma                90
_cell_volume                     2367.81
loop_
_atom_site_label
_atom_site_type_symbol
_atom_site_fract_x
_atom_site_fract_y
_atom_site_fract_z
Cd1 Cd 0.67687(3) 0.74207(3) 0.184519(14)
O1 O 0.4238(3) 0.7435(3) 0.15628(15)
O2 O 0.5740(3) 0.7421(5) 0.06389(17)
O3 O 0.3889(4) 0.7527(5) -0.19232(16)
O4 O 0.1550(3) 0.7587(3) -0.21420(15)
O5 O -0.1870(3) 0.7501(4) -0.00564(17)
H1 H -0.2687 0.7486 0.0150
O6 O -0.1075(3) 0.7390(5) 0.10988(17)
O7 O 0.6893(9) 0.9002(5) 0.1720(4)
O8 O 0.6824(5) 0.5809(3) 0.1823(3)
N1 N 0.7644(10) 1.0483(5) 0.2044(7)
N2 N 0.7705(13) 0.4421(6) 0.2118(6)
C1 C 0.3227(4) 0.7454(3) 0.03566(19)
C2 C 0.1809(4) 0.7446(4) 0.06242(19)
H2 H 0.1635 0.7427 0.1141
C3 C 0.0648(4) 0.7467(4) 0.01327(18)
C4 C 0.0903(4) 0.7495(4) -0.06270(19)
H3 H 0.0108 0.7507 -0.0961
C5 C 0.2324(4) 0.7506(4) -0.08956(18)
C6 C 0.3492(4) 0.7507(4) -0.0396(2)
H4 H 0.4462 0.7543 -0.0574
C7 C 0.4466(4) 0.7430(5) 0.0887(2)
C8 C 0.2588(5) 0.7538(4) -0.1709(2)
C9 C -0.0845(4) 0.7447(5) 0.0446(2)
C10 C 0.7498(18) 0.9546(8) 0.2043(7)
C11 C 0.837(2) 1.1092(10) 0.2529(9)
H5 H 0.8981 1.0724 0.2865
H6 H 0.7657 1.1452 0.2815
H7 H 0.8981 1.1527 0.2246
C12 C 0.672(3) 1.0989(12) 0.1574(15)
H8 H 0.6189 1.0549 0.1256
H9 H 0.7298 1.1417 0.1268
H10 H 0.6029 1.1354 0.1869
C13 C 0.7661(13) 0.5347(6) 0.2098(7)
C14 C 0.866(2) 0.3854(11) 0.2585(13)
H11 H 0.9453 0.4249 0.2773
H12 H 0.9068 0.3334 0.2295
H13 H 0.8105 0.3599 0.3000
C15 C 0.654(2) 0.3914(10) 0.1901(18)
H14 H 0.6736 0.3242 0.1973
H15 H 0.6345 0.4035 0.1378
H16 H 0.5691 0.4097 0.2195
Cd1A Cd 0.32313(3) 0.75793(3) -0.315481(14)
Cd1_2 Cd -0.32313(3) 0.74207(3) 0.184519(14)
O3A O 0.6111(4) 0.7473(5) 0.30768(16)
O4A O 0.8450(3) 0.7413(3) 0.28580(15)
O6_2 O 0.8925(3) 0.7390(5) 0.10988(17)
loop_
_geom_bond_atom_site_label_1
_geom_bond_atom_site_label_2
_geom_bond_site_symmetry_1
_geom_bond_site_symmetry_2
Cd1 O1 1_555 1_555
O1 C7 1_555 1_555
O2 Cd1 1_555 1_555
O3 C8 1_555 1_555
O4 C8 1_555 1_555
O5 H1 1_555 1_555
O6 C9 1_555 1_555
O7 Cd1 1_555 1_555
O8 Cd1 1_555 1_555
N1 C10 1_555 1_555
N2 C13 1_555 1_555
C1 C2 1_555 1_555
C2 H2 1_555 1_555
C3 C2 1_555 1_555
C4 C3 1_555 1_555
H3 C4 1_555 1_555
C5 C4 1_555 1_555
C6 C1 1_555 1_555
H4 C6 1_555 1_555
C7 O2 1_555 1_555
C8 C5 1_555 1_555
C9 O5 1_555 1_555
C10 O7 1_555 1_555
C11 N1 1_555 1_555
H5 C11 1_555 1_555
H6 C11 1_555 1_555
H7 C11 1_555 1_555
C12 N1 1_555 1_555
H8 C12 1_555 1_555
H9 C12 1_555 1_555
H10 C12 1_555 1_555
C13 O8 1_555 1_555
C14 N2 1_555 1_555
H11 C14 1_555 1_555
H12 C14 1_555 1_555
H13 C14 1_555 1_555
C15 N2 1_555 1_555
H14 C15 1_555 1_555
H15 C15 1_555 1_555
H16 C15 1_555 1_555
Cd1A O3 1_555 1_555
Cd1_2 O6 1_555 1_555
O3A Cd1 1_555 1_555
O4A Cd1 1_555 1_555
O6_2 Cd1 1_555 1_555
O4 Cd1A 1_555 1_555
C1 C7 1_555 1_555
C3 C9 1_555 1_555
C5 C6 1_555 1_555

#END
