
#######################################################################
#
#                 Cambridge Crystallographic Data Centre
#                                CCDC 
#
#######################################################################
#
# If this CIF has been generated from an entry in the Cambridge 
# Structural Database, then it will include bibliographic, chemical, 
# crystal, experimental, refinement or atomic coordinate data resulting 
# from the CCDC's data processing and validation procedures.
#
#######################################################################

data_ULOGAE
_symmetry_cell_setting           triclinic
_symmetry_space_group_name_H-M   'P -1'
_symmetry_Int_Tables_number      2
_space_group_name_Hall           '-P 1'
loop_
_symmetry_equiv_pos_site_id
_symmetry_equiv_pos_as_xyz
1 x,y,z
2 -x,-y,-z
_cell_length_a                   10.2409(7)
_cell_length_b                   19.6102(14)
_cell_length_c                   37.787(3)
_cell_angle_alpha                89.0250(10)
_cell_angle_beta                 89.2630(10)
_cell_angle_gamma                76.4710(10)
_cell_volume                     7376.67
loop_
_atom_site_label
_atom_site_type_symbol
_atom_site_fract_x
_atom_site_fract_y
_atom_site_fract_z
O66 O 0.437(3) -0.1341(17) 0.5925(9)
N17 N 0.264(3) -0.0628(16) 0.5615(7)
C121 C 0.361(3) -0.0747(18) 0.5858(8)
H137 H 0.3733 -0.0358 0.5989
C122 C 0.251(5) -0.123(3) 0.5430(13)
H138 H 0.1806 -0.1090 0.5250
H139 H 0.2255 -0.1566 0.5596
H140 H 0.3361 -0.1444 0.5314
C123 C 0.190(3) 0.0034(18) 0.5558(9)
H141 H 0.1272 0.0034 0.5364
H142 H 0.2492 0.0343 0.5496
H143 H 0.1387 0.0203 0.5773
O67 O 1.071(3) 0.1212(16) 0.8081(8)
N18 N 0.948(3) 0.0597(14) 0.7758(7)
C124 C 1.023(4) 0.108(3) 0.7799(15)
H144 H 1.0399 0.1338 0.7594
C125 C 0.872(4) 0.027(2) 0.8058(10)
H145 H 0.8249 -0.0060 0.7953
H146 H 0.8060 0.0643 0.8176
H147 H 0.9364 0.0019 0.8232
C126 C 0.913(4) 0.0410(16) 0.7420(7)
H148 H 0.8603 0.0055 0.7444
H149 H 0.9952 0.0219 0.7283
H150 H 0.8602 0.0825 0.7298
Cd1 Cd 0.85826(11) -0.31061(6) 0.60924(3)
Cd2 Cd 1.18560(9) -0.30463(5) 0.61133(3)
Cd3 Cd 0.35713(12) -0.83090(6) 0.89654(3)
Cd4 Cd 0.68971(10) -0.82213(6) 0.89286(3)
Cd5 Cd 1.20180(9) -0.23015(5) 0.84117(3)
Cd6 Cd 0.51058(9) -0.36676(5) 0.81921(3)
Cd7 Cd 0.78302(9) -0.40970(5) 0.88956(3)
Cd8 Cd 2.00094(9) -0.28976(6) 0.91118(3)
Cd9 Cd 0.55603(8) 0.16154(5) 0.58978(3)
Cd10 Cd 0.72134(9) -0.70808(5) 0.62796(3)
Cd11 Cd 1.01294(9) 0.23097(5) 0.68483(3)
Cd12 Cd 1.32963(9) 0.10111(5) 0.65567(3)
O1 O 0.8609(9) -0.3313(6) 0.6673(2)
O2 O 1.0774(10) -0.3294(6) 0.6615(2)
O3 O 1.3749(9) -0.3653(6) 0.7664(2)
O4 O 1.2782(8) -0.3394(5) 0.8188(2)
O5 O 0.8102(10) -0.3795(7) 0.8328(3)
O6 O 0.6825(9) -0.3632(6) 0.7851(3)
C1 C 0.9952(12) -0.3423(6) 0.7192(3)
C2 C 1.1202(13) -0.3454(8) 0.7340(4)
H1 H 1.1944 -0.3429 0.7191
C3 C 1.1370(12) -0.3520(7) 0.7703(4)
C4 C 1.0295(12) -0.3575(7) 0.7925(4)
H2 H 1.0407 -0.3607 0.8174
C5 C 0.9063(12) -0.3581(7) 0.7778(3)
C6 C 0.8896(12) -0.3495(7) 0.7415(4)
H3 H 0.8043 -0.3484 0.7317
C7 C 0.9783(14) -0.3334(8) 0.6800(4)
C8 C 1.2732(13) -0.3532(7) 0.7855(4)
C9 C 0.7915(13) -0.3675(7) 0.8007(4)
O7 O 0.8805(10) -0.2025(5) 0.6195(3)
O8 O 1.0929(9) -0.1913(5) 0.6203(3)
O9 O 1.1933(8) 0.0314(5) 0.6482(3)
O10 O 1.0324(10) 0.1219(5) 0.6644(3)
O11 O 0.5516(8) 0.1050(4) 0.6427(2)
O12 O 0.5153(9) -0.0004(5) 0.6499(3)
C10 C 0.9213(12) -0.0931(6) 0.6320(3)
C11 C 1.0101(13) -0.0499(7) 0.6371(3)
H4 H 1.1035 -0.0697 0.6342
C12 C 0.9706(12) 0.0190(7) 0.6457(3)
C13 C 0.8320(12) 0.0495(7) 0.6481(3)
H5 H 0.8008 0.0979 0.6530
C14 C 0.7433(11) 0.0087(6) 0.6431(3)
C15 C 0.7853(13) -0.0615(7) 0.6357(4)
H6 H 0.7207 -0.0887 0.6330
C16 C 0.9681(12) -0.1695(7) 0.6239(3)
C17 C 1.0718(12) 0.0628(8) 0.6535(4)
C18 C 0.5933(12) 0.0388(8) 0.6453(3)
O13 O 0.4307(11) -0.8208(7) 0.8398(3)
O14 O 0.6528(10) -0.8207(6) 0.8362(3)
O15 O 0.8505(9) -0.7761(6) 0.7240(3)
O16 O 0.7414(10) -0.7792(5) 0.6732(2)
O17 O 0.2529(8) -0.7934(5) 0.6805(2)
O18 O 0.1542(9) -0.7740(7) 0.7330(3)
C19 C 0.5241(13) -0.8052(8) 0.7844(4)
C20 C 0.6356(13) -0.7993(8) 0.7636(4)
H7 H 0.7197 -0.8028 0.7747
C21 C 0.6261(12) -0.7884(7) 0.7275(4)
C22 C 0.5041(13) -0.7856(7) 0.7107(3)
H8 H 0.4973 -0.7807 0.6857
C23 C 0.3922(11) -0.7902(7) 0.7314(3)
C24 C 0.4043(13) -0.8004(7) 0.7672(4)
H9 H 0.3274 -0.8042 0.7807
C25 C 0.5346(14) -0.8173(8) 0.8236(4)
C26 C 0.7450(12) -0.7794(7) 0.7064(4)
C27 C 0.2600(13) -0.7863(7) 0.7138(4)
O19 O 1.4344(10) 0.0559(6) 0.8901(3)
O20 O 1.6446(10) 0.0669(5) 0.8933(3)
O21 O 2.0188(9) -0.1275(5) 0.8529(3)
O22 O 1.9835(8) -0.2348(5) 0.8564(3)
O23 O 1.5101(9) -0.2552(5) 0.8349(3)
O24 O 1.3438(9) -0.1630(5) 0.8479(3)
C28 C 1.6051(12) -0.0417(7) 0.8747(4)
C29 C 1.7446(12) -0.0694(7) 0.8707(4)
H10 H 1.8060 -0.0412 0.8755
C30 C 1.7906(12) -0.1364(7) 0.8599(4)
C31 C 1.7008(12) -0.1792(7) 0.8508(3)
H11 H 1.7338 -0.2259 0.8431
C32 C 1.5651(12) -0.1504(7) 0.8537(4)
C33 C 1.5187(13) -0.0823(7) 0.8661(4)
H12 H 1.4247 -0.0637 0.8686
C34 C 1.5589(13) 0.0336(8) 0.8869(4)
C35 C 1.9404(12) -0.1676(7) 0.8556(4)
C36 C 1.4665(14) -0.1946(8) 0.8445(4)
O25 O 1.7694(9) -0.2981(5) 0.9058(3)
O26 O 1.8206(9) -0.2262(6) 0.9443(3)
O27 O 1.5365(10) -0.1694(6) 1.0498(3)
O28 O 1.3180(9) -0.1771(6) 1.0490(3)
O29 O 1.1299(9) -0.2274(6) 0.9374(3)
O30 O 1.2636(9) -0.2813(5) 0.8951(2)
C37 C 1.5986(12) -0.2402(7) 0.9464(4)
C38 C 1.5788(13) -0.2141(7) 0.9814(4)
H13 H 1.6530 -0.2061 0.9941
C39 C 1.4519(12) -0.2002(7) 0.9973(4)
C40 C 1.3443(13) -0.2110(7) 0.9775(4)
H14 H 1.2568 -0.2013 0.9878
C41 C 1.3633(12) -0.2362(7) 0.9426(4)
C42 C 1.4906(12) -0.2526(7) 0.9279(4)
H15 H 1.5044 -0.2724 0.9050
C43 C 1.7380(13) -0.2564(7) 0.9309(3)
C44 C 1.4344(15) -0.1812(8) 1.0349(4)
C45 C 1.2428(13) -0.2498(7) 0.9240(4)
O31 O -0.0156(9) -0.4829(6) 0.8943(3)
O32 O 0.0588(10) -0.3873(5) 0.8825(3)
O33 O 0.5542(8) -0.4068(5) 0.8756(2)
O34 O 0.6865(8) -0.5091(5) 0.8925(3)
O35 O 0.5186(10) -0.7222(5) 0.8950(3)
O36 O 0.2960(10) -0.7151(6) 0.8973(3)
C46 C 0.2181(13) -0.4956(8) 0.8884(4)
C47 C 0.3265(12) -0.4637(8) 0.8866(4)
H16 H 0.3118 -0.4140 0.8855
C48 C 0.4558(12) -0.5057(8) 0.8863(4)
C49 C 0.4796(13) -0.5775(8) 0.8901(4)
H17 H 0.5687 -0.6054 0.8918
C50 C 0.3676(13) -0.6092(8) 0.8914(4)
C51 C 0.2382(13) -0.5701(7) 0.8917(4)
H18 H 0.1644 -0.5916 0.8940
C52 C 0.0747(12) -0.4508(8) 0.8885(3)
C53 C 0.5731(14) -0.4706(8) 0.8847(4)
C54 C 0.3961(13) -0.6881(7) 0.8950(4)
O37 O 1.2343(8) -0.1915(5) 0.4062(2)
O38 O 1.3177(9) -0.1934(6) 0.4598(3)
O39 O 1.0747(10) -0.2857(5) 0.5572(3)
O40 O 0.8554(9) -0.2820(5) 0.5520(3)
O41 O 0.6247(8) -0.1868(5) 0.4436(2)
O42 O 0.7311(9) -0.1465(5) 0.3993(2)
C55 C 1.0961(12) -0.2089(8) 0.4545(4)
C56 C 1.0924(13) -0.2359(7) 0.4883(3)
H19 H 1.1725 -0.2481 0.5017
C57 C 0.9711(12) -0.2456(7) 0.5032(3)
C58 C 0.8547(11) -0.2269(7) 0.4826(3)
H20 H 0.7728 -0.2348 0.4919
C59 C 0.8555(11) -0.1977(7) 0.4497(4)
C60 C 0.9777(12) -0.1889(7) 0.4348(3)
H21 H 0.9797 -0.1695 0.4116
C61 C 1.2247(13) -0.1974(8) 0.4394(4)
C62 C 0.9688(13) -0.2735(7) 0.5404(4)
C63 C 0.7286(13) -0.1743(8) 0.4291(4)
O43 O 0.9647(9) -0.7228(5) 0.6307(3)
O44 O 0.8373(9) -0.6287(5) 0.6064(3)
O45 O 1.0020(9) -0.4141(5) 0.5991(3)
O46 O 1.2217(9) -0.4196(5) 0.6008(3)
O47 O 1.5397(9) -0.6507(5) 0.5995(3)
O48 O 1.4682(9) -0.7394(5) 0.6218(3)
C64 C 1.0668(12) -0.6290(7) 0.6116(4)
C65 C 1.0423(13) -0.5572(8) 0.6068(4)
H22 H 0.9524 -0.5301 0.6064
C66 C 1.1477(12) -0.5242(7) 0.6027(4)
C67 C 1.2795(12) -0.5664(7) 0.6027(4)
H23 H 1.3527 -0.5449 0.5990
C68 C 1.3050(12) -0.6369(7) 0.6078(4)
C69 C 1.1992(14) -0.6693(7) 0.6129(4)
H24 H 1.2165 -0.7185 0.6173
C70 C 0.9516(13) -0.6618(8) 0.6162(4)
C71 C 1.1214(13) -0.4456(8) 0.6000(4)
C72 C 1.4470(13) -0.6790(8) 0.6097(4)
O49 O 0.7054(15) -0.3906(7) 0.5908(4)
N1 N 0.7203(19) -0.4738(10) 0.5552(5)
C73 C 0.7775(19) -0.4229(10) 0.5661(5)
H25 H 0.8579 -0.4129 0.5569
C74 C 0.5970(17) -0.4987(8) 0.5644(5)
H26 H 0.5932 -0.5389 0.5497
H27 H 0.5174 -0.4607 0.5600
H28 H 0.5993 -0.5128 0.5894
C75 C 0.7890(17) -0.5190(8) 0.5260(5)
H29 H 0.7397 -0.5549 0.5209
H30 H 0.8809 -0.5417 0.5330
H31 H 0.7917 -0.4900 0.5047
O62 O 0.6275(11) 0.0520(5) 0.5685(3)
N11 N 0.626(3) -0.0347(17) 0.5301(9)
C103 C 0.586(4) 0.031(2) 0.5457(11)
H95 H 0.5112 0.0623 0.5350
C104 C 0.753(4) -0.082(3) 0.5426(13)
H96 H 0.7688 -0.1265 0.5299
H97 H 0.7457 -0.0914 0.5681
H98 H 0.8280 -0.0599 0.5382
C105 C 0.564(7) -0.064(3) 0.5036(18)
H99 H 0.6140 -0.1122 0.4994
H100 H 0.5611 -0.0361 0.4817
H101 H 0.4716 -0.0643 0.5111
O63 O 0.6204(11) -0.6250(5) 0.6732(2)
N13 N 0.4214(11) -0.5756(5) 0.6999(2)
C109 C 0.4961(11) -0.6223(5) 0.6783(2)
H109 H 0.4559 -0.6544 0.6664
C110 C 0.2740(11) -0.5581(5) 0.6963(2)
H110 H 0.2337 -0.5233 0.7140
H111 H 0.2403 -0.6006 0.7000
H112 H 0.2499 -0.5389 0.6726
C111 C 0.4630(11) -0.5123(5) 0.7117(2)
H113 H 0.3939 -0.4852 0.7274
H114 H 0.4747 -0.4834 0.6910
H115 H 0.5481 -0.5264 0.7244
O64 O 0.9680(11) 0.3514(5) 0.6933(2)
N15 N 0.8497(11) 0.4522(5) 0.7184(2)
C115 C 0.8891(11) 0.3774(5) 0.7155(2)
H123 H 0.8521 0.3485 0.7312
C116 C 0.752(4) 0.4867(15) 0.7469(8)
H124 H 0.7069 0.4520 0.7574
H125 H 0.6841 0.5253 0.7363
H126 H 0.8001 0.5051 0.7652
C117 C 0.904(4) 0.4976(15) 0.6951(8)
H127 H 0.8584 0.5465 0.6997
H128 H 0.8892 0.4865 0.6705
H129 H 1.0001 0.4907 0.6993
O65 O 1.3537(13) 0.0648(6) 0.7145(3)
N16 N 1.352(4) -0.0109(16) 0.7613(8)
C118 C 1.320(3) 0.0216(16) 0.7267(6)
H130 H 1.2604 0.0024 0.7129
C119 C 1.310(5) -0.0759(19) 0.7717(10)
H131 H 1.3400 -0.0898 0.7958
H132 H 1.3506 -0.1134 0.7554
H133 H 1.2120 -0.0675 0.7707
C120 C 1.436(5) 0.0215(19) 0.7806(10)
H134 H 1.4534 -0.0015 0.8038
H135 H 1.3920 0.0711 0.7837
H136 H 1.5208 0.0176 0.7677
Cd3_2 Cd 1.35713(12) 0.16910(6) 0.89654(3)
Cd3A Cd 1.64287(12) -0.16910(6) 1.10346(3)
Cd4_2 Cd 1.68971(10) 0.17787(6) 0.89286(3)
Cd4A Cd 1.31029(10) -0.17787(6) 1.10714(3)
Cd5_2 Cd 2.20180(9) -0.23015(5) 0.84117(3)
Cd6_2 Cd 1.51058(9) -0.36676(5) 0.81921(3)
Cd7_2 Cd 1.78302(9) -0.40970(5) 0.88956(3)
Cd7_3 Cd -0.21698(9) -0.40970(5) 0.88956(3)
Cd8_2 Cd 1.00094(9) -0.28976(6) 0.91118(3)
Cd8_3 Cd 0.00094(9) -0.28976(6) 0.91118(3)
Cd9A Cd 1.44397(8) -0.16154(5) 0.41022(3)
Cd9A_2 Cd 0.44397(8) -0.16154(5) 0.41022(3)
Cd9_2 Cd 1.55603(8) -0.83846(5) 0.58978(3)
Cd10A Cd 1.27866(9) -0.29192(5) 0.37204(3)
Cd10_2 Cd 1.72134(9) -0.70808(5) 0.62796(3)
Cd11_2 Cd 1.01294(9) -0.76903(5) 0.68483(3)
Cd11_3 Cd 0.01294(9) -0.76903(5) 0.68483(3)
Cd12_2 Cd 0.32963(9) 0.10111(5) 0.65567(3)
Cd12_3 Cd 0.32963(9) -0.89889(5) 0.65567(3)
Cd12A Cd 0.67037(9) -0.10111(5) 0.34433(3)
O3_2 O 0.3749(9) -0.3653(6) 0.7664(2)
O4_2 O 0.2782(8) -0.3394(5) 0.8188(2)
O11_2 O 1.5516(8) 0.1050(4) 0.6427(2)
O12_2 O 1.5153(9) -0.0004(5) 0.6499(3)
O15_2 O 0.8505(9) 0.2239(6) 0.7240(3)
O17_2 O 1.2529(8) 0.2066(5) 0.6805(2)
O18_2 O 1.1542(9) 0.2260(7) 0.7330(3)
O19_2 O 0.4344(10) -0.9441(6) 0.8901(3)
O20_2 O 0.6446(10) -0.9331(5) 0.8933(3)
O21_2 O 1.0188(9) -0.1275(5) 0.8529(3)
O22_2 O 0.9835(8) -0.2348(5) 0.8564(3)
O23_2 O 0.5101(9) -0.2552(5) 0.8349(3)
O25_2 O 0.7694(9) -0.2981(5) 0.9058(3)
O27A O 0.4635(10) -0.8306(6) 0.9502(3)
O28A O 0.6820(9) -0.8229(6) 0.9510(3)
O29_2 O 2.1299(9) -0.2274(6) 0.9374(3)
O30_2 O 2.2636(9) -0.2813(5) 0.8951(2)
O31_2 O 0.9844(9) -0.4829(6) 0.8943(3)
O32_2 O 2.0588(10) -0.3873(5) 0.8825(3)
O37A O 0.7657(8) 0.1915(5) 0.5938(2)
O37A_2 O 0.7657(8) -0.8085(5) 0.5938(2)
O38A O 0.6823(9) 0.1934(6) 0.5402(3)
O41A O 0.3753(8) 0.1868(5) 0.5564(2)
O42A O 1.2689(9) 0.1465(5) 0.6007(2)
O43_2 O 0.9647(9) 0.2772(5) 0.6307(3)
O47_2 O 0.5397(9) -0.6507(5) 0.5995(3)
O48_2 O 0.4682(9) 0.2606(5) 0.6218(3)
O48_3 O 0.4682(9) -0.7394(5) 0.6218(3)
O50? O 0.615(2) -0.2534(13) 0.6119(6)
O51? O 0.681(2) -0.3483(11) 0.6081(6)
O52? O 1.3682(11) -0.2986(6) 0.5759(3)
N2? N 1.4579(14) -0.3237(10) 0.5206(4)
C76? C 1.3803(15) -0.3316(10) 0.5472(5)
H32? H 1.3278 -0.3652 0.5447
C77? C 1.4663(19) -0.3609(12) 0.4896(5)
H33? H 1.5304 -0.3463 0.4734
H34? H 1.3778 -0.3516 0.4785
H35? H 1.4968 -0.4112 0.4949
C78? C 1.5414(17) -0.2738(12) 0.5234(5)
H36? H 1.5936 -0.2736 0.5015
H37? H 1.6026 -0.2872 0.5434
H38? H 1.4844 -0.2268 0.5273
O53? O 1.3404(11) -0.2947(7) 0.6545(3)
N3? N 1.467(3) -0.2303(16) 0.6805(7)
C79? C 1.384(3) -0.2414(19) 0.6547(8)
H39? H 1.3594 -0.2073 0.6363
C80? C 1.510(3) -0.2744(18) 0.7072(8)
H40? H 1.5688 -0.2546 0.7223
H41? H 1.5608 -0.3193 0.6979
H42? H 1.4334 -0.2819 0.7211
C81? C 1.528(3) -0.1672(18) 0.6775(8)
H43? H 1.5852 -0.1662 0.6980
H44? H 1.4563 -0.1242 0.6767
H45? H 1.5823 -0.1702 0.6557
O54? O 0.187(2) 0.1431(14) 0.9357(6)
N4? N 0.1836(17) 0.0946(13) 0.9867(6)
C82? C 0.2572(19) 0.1017(14) 0.9581(7)
H46? H 0.3491 0.0790 0.9549
C83? C 0.251(3) 0.0512(19) 1.0168(8)
H47? H 0.3434 0.0280 1.0098
H48? H 0.2019 0.0157 1.0234
H49? H 0.2539 0.0814 1.0371
C84? C 0.041(2) 0.1223(19) 0.9972(8)
H50? H 0.0245 0.1030 1.0204
H51? H -0.0174 0.1087 0.9796
H52? H 0.0221 0.1736 0.9983
O55? O 0.1456(13) 0.1750(8) 0.8681(5)
O56? O 0.8075(11) 0.2641(7) 0.8772(3)
N5? N 0.9298(19) 0.3100(12) 0.8368(6)
C85? C 0.865(2) 0.2611(12) 0.8468(6)
H53? H 0.8620 0.2238 0.8314
C86? C 1.010(4) 0.2981(19) 0.8035(10)
H54? H 1.0530 0.3371 0.7992
H55? H 0.9507 0.2949 0.7837
H56? H 1.0790 0.2542 0.8056
C87? C 0.933(3) 0.3713(14) 0.8530(9)
H57? H 0.9908 0.3956 0.8393
H58? H 0.9691 0.3610 0.8769
H59? H 0.8420 0.4011 0.8544
O57? O 0.9133(10) 0.1127(7) 0.8932(4)
N6? N 1.042(2) 0.0074(10) 0.9102(8)
C88? C 0.9410(18) 0.0611(11) 0.9124(7)
H60? H 0.8807 0.0601 0.9316
C89? C 1.081(5) -0.0521(18) 0.9311(13)
H61? H 1.1641 -0.0817 0.9216
H62? H 1.0101 -0.0783 0.9313
H63? H 1.0957 -0.0387 0.9553
C90? C 1.131(3) 0.0016(16) 0.8794(13)
H64? H 1.2027 -0.0412 0.8816
H65? H 1.1708 0.0425 0.8781
H66? H 1.0799 -0.0004 0.8579
O58? O 0.1503(12) -0.1975(6) 0.7834(3)
N7? N 0.0037(19) -0.1702(9) 0.7374(5)
C91? C 0.032(2) -0.1847(10) 0.7712(5)
H67? H -0.0404 -0.1856 0.7872
C92? C -0.132(2) -0.1568(12) 0.7245(7)
H68? H -0.1315 -0.1476 0.6989
H69? H -0.1869 -0.1159 0.7364
H70? H -0.1688 -0.1978 0.7293
C93? C 0.114(3) -0.1684(12) 0.7118(5)
H71? H 0.0763 -0.1576 0.6881
H72? H 0.1776 -0.2142 0.7117
H73? H 0.1599 -0.1322 0.7187
O59? O 0.5342(11) -0.4865(6) 0.8086(3)
N8? N 0.456(2) -0.5840(9) 0.8016(5)
C94? C 0.444(2) -0.5176(11) 0.8031(5)
H74? H 0.3567 -0.4891 0.7996
C95? C 0.348(3) -0.6176(14) 0.7940(8)
H75? H 0.3829 -0.6686 0.7943
H76? H 0.3113 -0.6021 0.7707
H77? H 0.2776 -0.6048 0.8121
C96? C 0.587(2) -0.6320(11) 0.8064(6)
H78? H 0.5778 -0.6805 0.8045
H79? H 0.6216 -0.6253 0.8298
H80? H 0.6496 -0.6227 0.7881
O60? O 0.7272(13) -0.4124(7) 0.9488(3)
N9? N 0.5660(17) -0.3976(11) 0.9937(4)
C97? C 0.6078(13) -0.4055(10) 0.9602(3)
H81? H 0.5412 -0.4059 0.9430
C98? C 0.4340(19) -0.3917(16) 1.0114(6)
H82? H 0.3671 -0.3963 0.9939
H83? H 0.4062 -0.3459 1.0227
H84? H 0.4413 -0.4290 1.0294
C99? C 0.664(2) -0.3915(16) 1.0212(3)
H85? H 0.6195 -0.3858 1.0444
H86? H 0.7015 -0.3507 1.0159
H87? H 0.7372 -0.4340 1.0216
O61? O 1.0542(18) -0.3628(10) 0.9607(4)
N10? N 1.047(2) -0.3542(13) 1.0219(6)
C100? C 1.032(3) -0.3277(16) 0.9897(7)
H88? H 1.0009 -0.2782 0.9875
C101? C 1.023(3) -0.3050(15) 1.0537(7)
H89? H 1.0362 -0.3329 1.0757
H90? H 0.9315 -0.2759 1.0530
H91? H 1.0873 -0.2748 1.0527
C102? C 1.092(3) -0.4309(15) 1.0258(7)
H92? H 1.0977 -0.4438 1.0510
H93? H 1.1808 -0.4469 1.0147
H94? H 1.0278 -0.4532 1.0143
N12? N 0.7790(16) -0.0411(13) 0.5458(9)
C106? C 0.747(3) 0.0249(12) 0.5575(8)
H102? H 0.8133 0.0516 0.5578
C107? C 0.691(4) -0.0920(17) 0.5478(10)
H103? H 0.7393 -0.1367 0.5377
H104? H 0.6090 -0.0734 0.5345
H105? H 0.6687 -0.0995 0.5726
C108? C 0.9191(11) -0.0664(5) 0.5324(2)
H106? H 0.9326 -0.1151 0.5248
H107? H 0.9822 -0.0640 0.5514
H108? H 0.9347 -0.0369 0.5124
N14? N 0.5282(11) 0.4766(5) 0.6756(2)
C112? C 0.6189(11) 0.4386(5) 0.6648(2)
H116? H 0.6869 0.4522 0.6509
C113? C 0.4084(11) 0.4685(5) 0.6965(2)
H117? H 0.3501 0.5149 0.7010
H118? H 0.4375 0.4450 0.7191
H119? H 0.3588 0.4404 0.6833
C114? C 0.5107(11) 0.5530(5) 0.6681(2)
H120? H 0.4274 0.5789 0.6792
H121? H 0.5061 0.5615 0.6424
H122? H 0.5870 0.5688 0.6776
loop_
_geom_bond_atom_site_label_1
_geom_bond_atom_site_label_2
_geom_bond_site_symmetry_1
_geom_bond_site_symmetry_2
Cd1 O1 1_555 1_555
Cd2 O2 1_555 1_555
Cd3 O13 1_555 1_555
Cd4 O14 1_555 1_555
Cd5 O4 1_555 1_555
Cd6 O6 1_555 1_555
Cd7 O5 1_555 1_555
Cd8 O22 1_555 1_555
Cd9 O11 1_555 1_555
Cd10 O16 1_555 1_555
Cd11 O10 1_555 1_555
Cd12 O9 1_555 1_555
O1 C7 1_555 1_555
O2 C7 1_555 1_555
O3 C8 1_555 1_555
O4 C8 1_555 1_555
O5 C9 1_555 1_555
O6 C9 1_555 1_555
C1 C2 1_555 1_555
C2 H1 1_555 1_555
C3 C2 1_555 1_555
C4 C3 1_555 1_555
H2 C4 1_555 1_555
C5 C4 1_555 1_555
C6 C1 1_555 1_555
H3 C6 1_555 1_555
C7 C1 1_555 1_555
C8 C3 1_555 1_555
C9 C5 1_555 1_555
O7 Cd1 1_555 1_555
O8 Cd2 1_555 1_555
O9 C17 1_555 1_555
O10 C17 1_555 1_555
O11 C18 1_555 1_555
O12 C18 1_555 1_555
C10 C11 1_555 1_555
C11 H4 1_555 1_555
C12 C11 1_555 1_555
C13 C12 1_555 1_555
H5 C13 1_555 1_555
C14 C13 1_555 1_555
C15 C10 1_555 1_555
H6 C15 1_555 1_555
C16 O7 1_555 1_555
C17 C12 1_555 1_555
C18 C14 1_555 1_555
O13 C25 1_555 1_555
O14 C25 1_555 1_555
O15 C26 1_555 1_555
O16 C26 1_555 1_555
O17 C27 1_555 1_555
O18 C27 1_555 1_555
C19 C20 1_555 1_555
C20 H7 1_555 1_555
C21 C20 1_555 1_555
C22 C21 1_555 1_555
H8 C22 1_555 1_555
C23 C22 1_555 1_555
C24 C19 1_555 1_555
H9 C24 1_555 1_555
C25 C19 1_555 1_555
C26 C21 1_555 1_555
C27 C23 1_555 1_555
O19 C34 1_555 1_555
O20 C34 1_555 1_555
O21 C35 1_555 1_555
O22 C35 1_555 1_555
O23 C36 1_555 1_555
O24 Cd5 1_555 1_555
C28 C29 1_555 1_555
C29 H10 1_555 1_555
C30 C29 1_555 1_555
C31 C30 1_555 1_555
H11 C31 1_555 1_555
C32 C31 1_555 1_555
C33 C28 1_555 1_555
H12 C33 1_555 1_555
C34 C28 1_555 1_555
C35 C30 1_555 1_555
C36 O24 1_555 1_555
O25 Cd8 1_555 1_555
O26 Cd8 1_555 1_555
O27 C44 1_555 1_555
O28 C44 1_555 1_555
O29 C45 1_555 1_555
O30 Cd5 1_555 1_555
C37 C38 1_555 1_555
C38 H13 1_555 1_555
C39 C38 1_555 1_555
C40 C39 1_555 1_555
H14 C40 1_555 1_555
C41 C40 1_555 1_555
C42 C37 1_555 1_555
H15 C42 1_555 1_555
C43 O25 1_555 1_555
C44 C39 1_555 1_555
C45 O30 1_555 1_555
O31 C52 1_555 1_555
O32 C52 1_555 1_555
O33 Cd6 1_555 1_555
O34 Cd7 1_555 1_555
O35 Cd4 1_555 1_555
O36 Cd3 1_555 1_555
C46 C47 1_555 1_555
C47 H16 1_555 1_555
C48 C47 1_555 1_555
C49 C48 1_555 1_555
H17 C49 1_555 1_555
C50 C49 1_555 1_555
C51 C46 1_555 1_555
H18 C51 1_555 1_555
C52 C46 1_555 1_555
C53 O33 1_555 1_555
C54 O35 1_555 1_555
O37 C61 1_555 1_555
O38 C61 1_555 1_555
O39 Cd2 1_555 1_555
O40 Cd1 1_555 1_555
O41 C63 1_555 1_555
O42 C63 1_555 1_555
C55 C56 1_555 1_555
C56 H19 1_555 1_555
C57 C56 1_555 1_555
C58 C57 1_555 1_555
H20 C58 1_555 1_555
C59 C58 1_555 1_555
C60 C55 1_555 1_555
H21 C60 1_555 1_555
C61 C55 1_555 1_555
C62 O39 1_555 1_555
C63 C59 1_555 1_555
O43 Cd10 1_555 1_555
O44 Cd10 1_555 1_555
O45 Cd1 1_555 1_555
O46 Cd2 1_555 1_555
O47 C72 1_555 1_555
O48 C72 1_555 1_555
C64 C65 1_555 1_555
C65 H22 1_555 1_555
C66 C65 1_555 1_555
C67 C66 1_555 1_555
H23 C67 1_555 1_555
C68 C67 1_555 1_555
C69 C64 1_555 1_555
H24 C69 1_555 1_555
C70 O43 1_555 1_555
C71 O45 1_555 1_555
C72 C68 1_555 1_555
O49 Cd1 1_555 1_555
N1 C73 1_555 1_555
C73 O49 1_555 1_555
H25 C73 1_555 1_555
C74 N1 1_555 1_555
H26 C74 1_555 1_555
H27 C74 1_555 1_555
H28 C74 1_555 1_555
C75 N1 1_555 1_555
H29 C75 1_555 1_555
H30 C75 1_555 1_555
H31 C75 1_555 1_555
O62 Cd9 1_555 1_555
N11 C103 1_555 1_555
C103 O62 1_555 1_555
H95 C103 1_555 1_555
C104 N11 1_555 1_555
H96 C104 1_555 1_555
H97 C104 1_555 1_555
H98 C104 1_555 1_555
C105 N11 1_555 1_555
H99 C105 1_555 1_555
H100 C105 1_555 1_555
H101 C105 1_555 1_555
O63 Cd10 1_555 1_555
N13 C109 1_555 1_555
C109 O63 1_555 1_555
H109 C109 1_555 1_555
C110 N13 1_555 1_555
H110 C110 1_555 1_555
H111 C110 1_555 1_555
H112 C110 1_555 1_555
C111 N13 1_555 1_555
H113 C111 1_555 1_555
H114 C111 1_555 1_555
H115 C111 1_555 1_555
O64 Cd11 1_555 1_555
N15 C115 1_555 1_555
C115 O64 1_555 1_555
H123 C115 1_555 1_555
C116 N15 1_555 1_555
H124 C116 1_555 1_555
H125 C116 1_555 1_555
H126 C116 1_555 1_555
C117 N15 1_555 1_555
H127 C117 1_555 1_555
H128 C117 1_555 1_555
H129 C117 1_555 1_555
O65 Cd12 1_555 1_555
N16 C118 1_555 1_555
C118 O65 1_555 1_555
H130 C118 1_555 1_555
C119 N16 1_555 1_555
H131 C119 1_555 1_555
H132 C119 1_555 1_555
H133 C119 1_555 1_555
C120 N16 1_555 1_555
H134 C120 1_555 1_555
H135 C120 1_555 1_555
H136 C120 1_555 1_555
O66 C121 1_555 1_555
N17 C121 1_555 1_555
C121 H137 1_555 1_555
C122 N17 1_555 1_555
H138 C122 1_555 1_555
H139 C122 1_555 1_555
H140 C122 1_555 1_555
C123 N17 1_555 1_555
H141 C123 1_555 1_555
H142 C123 1_555 1_555
H143 C123 1_555 1_555
O67 C124 1_555 1_555
N18 C124 1_555 1_555
C124 H144 1_555 1_555
C125 N18 1_555 1_555
H145 C125 1_555 1_555
H146 C125 1_555 1_555
H147 C125 1_555 1_555
C126 N18 1_555 1_555
H148 C126 1_555 1_555
H149 C126 1_555 1_555
H150 C126 1_555 1_555
Cd3_2 O19 1_555 1_555
Cd3A O27 1_555 1_555
Cd4_2 O20 1_555 1_555
Cd4A O28 1_555 1_555
Cd5_2 O21 1_555 1_555
Cd6_2 O3 1_555 1_555
Cd7_2 O25 1_555 1_555
Cd7_3 O31 1_555 1_555
Cd8_2 O29 1_555 1_555
Cd8_3 O32 1_555 1_555
Cd9A O37 1_555 1_555
Cd9A_2 O41 1_555 1_555
Cd9_2 O48 1_555 1_555
Cd10A O37 1_555 1_555
Cd10_2 O47 1_555 1_555
Cd11_2 O15 1_555 1_555
Cd11_3 O17 1_555 1_555
Cd12_2 O11 1_555 1_555
Cd12_3 O17 1_555 1_555
Cd12A O42 1_555 1_555
O3_2 Cd6 1_555 1_555
O4_2 Cd6 1_555 1_555
O11_2 Cd12 1_555 1_555
O12_2 Cd12 1_555 1_555
O15_2 Cd11 1_555 1_555
O17_2 Cd11 1_555 1_555
O18_2 Cd11 1_555 1_555
O19_2 Cd3 1_555 1_555
O20_2 Cd4 1_555 1_555
O21_2 Cd5 1_555 1_555
O22_2 Cd5 1_555 1_555
O23_2 Cd6 1_555 1_555
O25_2 Cd7 1_555 1_555
O27A Cd3 1_555 1_555
O28A Cd4 1_555 1_555
O29_2 Cd8 1_555 1_555
O30_2 Cd8 1_555 1_555
O31_2 Cd7 1_555 1_555
O32_2 Cd8 1_555 1_555
O37A Cd9 1_555 1_555
O37A_2 Cd10 1_555 1_555
O38A Cd9 1_555 1_555
O41A Cd9 1_555 1_555
O42A Cd12 1_555 1_555
O43_2 Cd11 1_555 1_555
O47_2 Cd10 1_555 1_555
O48_2 Cd9 1_555 1_555
O48_3 Cd10 1_555 1_555
Cd7 O33 1_555 1_555
Cd12 O17_2 1_555 1_555
O4 Cd6_2 1_555 1_555
C5 C6 1_555 1_555
O8 C16 1_555 1_555
O12 Cd12_2 1_555 1_555
C10 C16 1_555 1_555
C14 C15 1_555 1_555
O18 Cd11_3 1_555 1_555
C23 C24 1_555 1_555
O22 Cd5_2 1_555 1_555
O23 Cd6_2 1_555 1_555
C32 C33 1_555 1_555
C32 C36 1_555 1_555
O26 C43 1_555 1_555
O30 Cd8_2 1_555 1_555
C37 C43 1_555 1_555
C41 C42 1_555 1_555
C41 C45 1_555 1_555
O34 C53 1_555 1_555
O36 C54 1_555 1_555
C48 C53 1_555 1_555
C50 C51 1_555 1_555
C50 C54 1_555 1_555
O38 Cd9A 1_555 1_555
O40 C62 1_555 1_555
C57 C62 1_555 1_555
C59 C60 1_555 1_555
O43 Cd11_2 1_555 1_555
O44 C70 1_555 1_555
O46 C71 1_555 1_555
O48 Cd10_2 1_555 1_555
C64 C70 1_555 1_555
C66 C71 1_555 1_555
C68 C69 1_555 1_555
Cd5_2 O30_2 1_555 1_555
Cd8_2 O22_2 1_555 1_555
Cd8_2 O25_2 1_555 1_555

#END
