
#######################################################################
#
#                 Cambridge Crystallographic Data Centre
#                                CCDC 
#
#######################################################################
#
# If this CIF has been generated from an entry in the Cambridge 
# Structural Database, then it will include bibliographic, chemical, 
# crystal, experimental, refinement or atomic coordinate data resulting 
# from the CCDC's data processing and validation procedures.
#
#######################################################################

data_ULOLUD
_symmetry_cell_setting           orthorhombic
_symmetry_space_group_name_H-M   'F d d d'
_symmetry_Int_Tables_number      70
_space_group_name_Hall           '-F 2uv 2vw'
loop_
_symmetry_equiv_pos_site_id
_symmetry_equiv_pos_as_xyz
1 x,y,z
2 1/4-x,1/4-y,z
3 x,1/4-y,1/4-z
4 1/4-x,y,1/4-z
5 x,1/2+y,1/2+z
6 1/4-x,3/4-y,1/2+z
7 x,3/4-y,3/4-z
8 1/4-x,1/2+y,3/4-z
9 1/2+x,y,1/2+z
10 3/4-x,1/4-y,1/2+z
11 1/2+x,1/4-y,3/4-z
12 3/4-x,y,3/4-z
13 1/2+x,1/2+y,z
14 3/4-x,3/4-y,z
15 1/2+x,3/4-y,1/4-z
16 3/4-x,1/2+y,1/4-z
17 -x,-y,-z
18 3/4+x,3/4+y,-z
19 -x,3/4+y,3/4+z
20 3/4+x,-y,3/4+z
21 -x,1/2-y,1/2-z
22 3/4+x,1/4+y,1/2-z
23 -x,1/4+y,1/4+z
24 3/4+x,1/2-y,1/4+z
25 1/2-x,-y,1/2-z
26 1/4+x,3/4+y,1/2-z
27 1/2-x,3/4+y,1/4+z
28 1/4+x,-y,1/4+z
29 1/2-x,1/2-y,-z
30 1/4+x,1/4+y,-z
31 1/2-x,1/4+y,3/4+z
32 1/4+x,1/2-y,3/4+z
_cell_length_a                   11.4666(10)
_cell_length_b                   39.891(3)
_cell_length_c                   43.067(4)
_cell_angle_alpha                90
_cell_angle_beta                 90
_cell_angle_gamma                90
_cell_volume                     19699.5
loop_
_atom_site_label
_atom_site_type_symbol
_atom_site_fract_x
_atom_site_fract_y
_atom_site_fract_z
N1 N -0.3944(6) 0.3290(2) 0.4712(2)
C1 C -0.3727(7) 0.3326(2) 0.43964(19)
H1 H -0.4317 0.3400 0.4265
C2 C -0.2630(8) 0.3252(3) 0.42774(16)
H2 H -0.2486 0.3277 0.4066
C3 C -0.1749(6) 0.3142(3) 0.4474(2)
C4 C -0.1966(7) 0.3106(3) 0.4790(2)
H3 H -0.1376 0.3032 0.4922
C5 C -0.3063(9) 0.3180(3) 0.49090(16)
H4 H -0.3207 0.3156 0.5120
S1 S -0.0349(10) 0.3069(4) 0.4310(4)
N2 N 0.0555(7) 0.20896(17) 0.4806(2)
C6 C 0.1173(7) 0.2380(2) 0.48733(18)
H5 H 0.1759 0.2377 0.5023
C7 C 0.0917(7) 0.26763(18) 0.4717(2)
H6 H 0.1331 0.2871 0.4762
C8 C 0.0042(8) 0.2681(2) 0.4494(2)
C9 C -0.0576(7) 0.2391(3) 0.4427(2)
H7 H -0.1162 0.2394 0.4277
C10 C -0.0320(7) 0.2095(2) 0.4583(3)
H8 H -0.0734 0.1900 0.4538
Ni1 Ni 0.07500(9) 0.16658(2) 0.51064(2)
S2 S 0.40098(17) 0.30919(5) 0.63744(5)
O1 O 0.1369(5) 0.19784(12) 0.54567(12)
O2 O 0.2326(6) 0.16268(13) 0.57636(12)
O3 O 0.4218(4) 0.33325(13) 0.61326(12)
O4 O 0.4956(4) 0.29646(13) 0.65582(12)
O5 O 0.0026(4) 0.38907(12) 0.72611(10)
O6 O -0.0115(4) 0.33555(12) 0.74249(11)
O7 O 0.1250 0.1250 0.53720(14)
H9 H 0.1729 0.1339 0.5488
C11 C 0.1972(7) 0.19113(19) 0.56887(17)
C12 C 0.2359(6) 0.22062(17) 0.58847(15)
C13 C 0.2083(7) 0.25240(19) 0.58030(17)
H10 H 0.1559 0.2560 0.5642
C14 C 0.2567(7) 0.27992(19) 0.59552(17)
H11 H 0.2392 0.3016 0.5892
C15 C 0.3309(6) 0.27433(18) 0.62004(16)
C16 C 0.3572(7) 0.24258(18) 0.62967(16)
H12 H 0.4076 0.2392 0.6463
C17 C 0.3079(7) 0.21552(18) 0.61434(16)
H13 H 0.3227 0.1938 0.6213
C18 C 0.0310(6) 0.3588(2) 0.72590(16)
C19 C 0.1262(6) 0.34829(17) 0.70361(15)
C20 C 0.1889(8) 0.3200(2) 0.71062(18)
H14 H 0.1724 0.3081 0.7286
C21 C 0.2765(8) 0.3093(2) 0.69101(18)
H15 H 0.3228 0.2912 0.6966
C22 C 0.2956(6) 0.32553(18) 0.66321(16)
C23 C 0.2300(6) 0.35343(18) 0.65568(17)
H16 H 0.2413 0.3642 0.6368
C24 C 0.1475(6) 0.36525(18) 0.67640(17)
H17 H 0.1063 0.3847 0.6719
N1A N 0.6444(6) -0.0790(2) 0.4712(2)
N1Q N 0.3556(6) 0.0790(2) 0.5288(2)
N1BA N -0.1056(6) 0.1710(2) 0.5288(2)
C1A C 0.6227(7) -0.0826(2) 0.43964(19)
H1A H 0.6817 -0.0900 0.4265
C2A C 0.5130(8) -0.0752(3) 0.42774(16)
H2A H 0.4986 -0.0777 0.4066
C3A C 0.4249(6) -0.0642(3) 0.4474(2)
C4A C 0.4466(7) -0.0606(3) 0.4790(2)
H3A H 0.3876 -0.0532 0.4922
C5A C 0.5563(9) -0.0680(3) 0.49090(16)
H4A H 0.5707 -0.0656 0.5120
S1A S 0.2849(10) -0.0569(4) 0.4310(4)
N2A N 0.1945(7) 0.04104(17) 0.4806(2)
C6A C 0.1327(7) 0.0120(2) 0.48733(18)
H5A H 0.0741 0.0123 0.5023
C7A C 0.1583(7) -0.01763(18) 0.4717(2)
H6A H 0.1169 -0.0371 0.4762
C8A C 0.2458(8) -0.0181(2) 0.4494(2)
C9A C 0.3076(7) 0.0109(3) 0.4427(2)
H7A H 0.3662 0.0106 0.4277
C10A C 0.2820(7) 0.0405(2) 0.4583(3)
H8A H 0.3234 0.0600 0.4538
Ni1A Ni 0.17500(9) 0.08342(2) 0.51064(2)
Ni1Q Ni 0.82500(9) -0.08342(2) 0.48936(2)
Ni1V Ni -0.07500(9) 0.41658(2) 0.76064(2)
Ni1W Ni -0.17500(9) 0.33342(2) 0.76064(2)
Ni1Z Ni 0.42500(9) -0.08342(2) 0.76064(2)
Ni1AA Ni 0.32500(9) -0.16658(2) 0.76064(2)
Ni1BA Ni -0.57500(9) 0.33342(2) 0.48936(2)
S2A S -0.15098(17) -0.05919(5) 0.63744(5)
O1A O 0.1131(5) 0.05216(12) 0.54567(12)
O2A O 0.0174(6) 0.08732(13) 0.57636(12)
O3A O -0.1718(4) -0.08325(13) 0.61326(12)
O4A O -0.2456(4) -0.04646(13) 0.65582(12)
O5A O 0.2474(4) -0.13907(12) 0.72611(10)
O5R O -0.0026(4) 0.13907(12) 0.47611(10)
O5EA O 0.2526(4) 0.11093(12) 0.47611(10)
O6A O 0.2615(4) -0.08555(12) 0.74249(11)
O6R O 0.0115(4) 0.08555(12) 0.49249(11)
O6EA O 0.2385(4) 0.16445(12) 0.49249(11)
H9A H 0.0771 0.1161 0.5488
C11A C 0.0528(7) 0.05887(19) 0.56887(17)
C12A C 0.0141(6) 0.02938(17) 0.58847(15)
C13A C 0.0417(7) -0.00240(19) 0.58030(17)
H10A H 0.0941 -0.0060 0.5642
C14A C -0.0067(7) -0.02992(19) 0.59552(17)
H11A H 0.0108 -0.0516 0.5892
C15A C -0.0809(6) -0.02433(18) 0.62004(16)
C16A C -0.1072(7) 0.00742(18) 0.62967(16)
H12A H -0.1576 0.0108 0.6463
C17A C -0.0579(7) 0.03448(18) 0.61434(16)
H13A H -0.0727 0.0562 0.6213
C18A C 0.2190(6) -0.1088(2) 0.72590(16)
C19A C 0.1238(6) -0.09829(17) 0.70361(15)
C20A C 0.0611(8) -0.0700(2) 0.71062(18)
H14A H 0.0776 -0.0581 0.7286
C21A C -0.0265(8) -0.0593(2) 0.69101(18)
H15A H -0.0728 -0.0412 0.6966
C22A C -0.0456(6) -0.07553(18) 0.66321(16)
C23A C 0.0200(6) -0.10343(18) 0.65568(17)
H16A H 0.0087 -0.1142 0.6368
C24A C 0.1025(6) -0.11525(18) 0.67640(17)
H17A H 0.1437 -0.1347 0.6719
O8 O 0.3551(8) 0.1250 0.6250
H18 H 0.3214 0.1360 0.6116
H18B H 0.3214 0.1140 0.6384
O9 O 0.6250 0.1250 0.6250
C25? C -0.3494(11) 0.3527(2) 0.4594(3)
C26? C 0.0181(14) 0.2078(4) 0.4526(4)
C27? C -0.2392(10) 0.3457(3) 0.4476(3)
C28? C -0.2033(9) 0.3127(3) 0.4440(3)
C29? C -0.2777(10) 0.2866(2) 0.4521(3)
C30? C -0.3880(10) 0.2936(3) 0.4638(3)
C31? C 0.0067(13) 0.2412(3) 0.4991(3)
C32? C -0.0237(13) 0.2690(3) 0.4814(3)
C33? C -0.0332(16) 0.2662(4) 0.4493(3)
C34? C -0.0123(16) 0.2356(6) 0.4349(3)
H19? H -0.3734 0.3748 0.4618
H20? H 0.0321 0.1873 0.4430
H21? H -0.1894 0.3632 0.4422
H22? H -0.2537 0.2645 0.4496
H23? H -0.4377 0.2761 0.4693
H24? H 0.0131 0.2431 0.5205
H25? H -0.0377 0.2895 0.4910
H26? H -0.0186 0.2337 0.4135
N3? N -0.4238(9) 0.3266(3) 0.4675(3)
N4? N 0.0276(12) 0.2106(3) 0.4847(4)
S3? S -0.0663(17) 0.3027(6) 0.4266(7)
loop_
_geom_bond_atom_site_label_1
_geom_bond_atom_site_label_2
_geom_bond_site_symmetry_1
_geom_bond_site_symmetry_2
N1 C1 1_555 1_555
C1 H1 1_555 1_555
C2 C1 1_555 1_555
H2 C2 1_555 1_555
C3 C2 1_555 1_555
C4 C3 1_555 1_555
H3 C4 1_555 1_555
C5 N1 1_555 1_555
H4 C5 1_555 1_555
S1 C3 1_555 1_555
N2 C6 1_555 1_555
C6 H5 1_555 1_555
C7 C6 1_555 1_555
H6 C7 1_555 1_555
C8 S1 1_555 1_555
C9 C8 1_555 1_555
H7 C9 1_555 1_555
C10 N2 1_555 1_555
H8 C10 1_555 1_555
Ni1 N2 1_555 1_555
S2 O3 1_555 1_555
O1 Ni1 1_555 1_555
O2 C11 1_555 1_555
O4 S2 1_555 1_555
O5 C18 1_555 1_555
O6 C18 1_555 1_555
O7 Ni1 1_555 1_555
H9 O7 1_555 1_555
C11 O1 1_555 1_555
C12 C11 1_555 1_555
C13 C12 1_555 1_555
H10 C13 1_555 1_555
C14 C13 1_555 1_555
H11 C14 1_555 1_555
C15 S2 1_555 1_555
C16 C15 1_555 1_555
H12 C16 1_555 1_555
C17 C12 1_555 1_555
H13 C17 1_555 1_555
C18 C19 1_555 1_555
C19 C20 1_555 1_555
C20 H14 1_555 1_555
C21 C20 1_555 1_555
H15 C21 1_555 1_555
C22 S2 1_555 1_555
C23 C22 1_555 1_555
H16 C23 1_555 1_555
C24 C19 1_555 1_555
H17 C24 1_555 1_555
O8 H18 1_555 1_555
N1A C1A 1_555 1_555
N1Q Ni1A 1_555 1_555
N1BA Ni1 1_555 1_555
C1A H1A 1_555 1_555
C2A C1A 1_555 1_555
H2A C2A 1_555 1_555
C3A C2A 1_555 1_555
C4A C3A 1_555 1_555
H3A C4A 1_555 1_555
C5A N1A 1_555 1_555
H4A C5A 1_555 1_555
S1A C3A 1_555 1_555
N2A C6A 1_555 1_555
C6A H5A 1_555 1_555
C7A C6A 1_555 1_555
H6A C7A 1_555 1_555
C8A S1A 1_555 1_555
C9A C8A 1_555 1_555
H7A C9A 1_555 1_555
C10A N2A 1_555 1_555
H8A C10A 1_555 1_555
Ni1A O7 1_555 1_555
Ni1Q N1A 1_555 1_555
Ni1V O5 1_555 1_555
Ni1W O6 1_555 1_555
Ni1Z O6A 1_555 1_555
Ni1AA O5A 1_555 1_555
Ni1BA N1 1_555 1_555
S2A O3A 1_555 1_555
O1A Ni1A 1_555 1_555
O2A C11A 1_555 1_555
O4A S2A 1_555 1_555
O5A C18A 1_555 1_555
O5R Ni1 1_555 1_555
O5EA Ni1A 1_555 1_555
O6A C18A 1_555 1_555
O6R Ni1A 1_555 1_555
O6EA Ni1 1_555 1_555
H9A O7 1_555 1_555
C11A O1A 1_555 1_555
C12A C11A 1_555 1_555
C13A C12A 1_555 1_555
H10A C13A 1_555 1_555
C14A C13A 1_555 1_555
H11A C14A 1_555 1_555
C15A S2A 1_555 1_555
C16A C15A 1_555 1_555
H12A C16A 1_555 1_555
C17A C12A 1_555 1_555
H13A C17A 1_555 1_555
C18A C19A 1_555 1_555
C19A C20A 1_555 1_555
C20A H14A 1_555 1_555
C21A C20A 1_555 1_555
H15A C21A 1_555 1_555
C22A S2A 1_555 1_555
C23A C22A 1_555 1_555
H16A C23A 1_555 1_555
C24A C19A 1_555 1_555
H17A C24A 1_555 1_555
H18B O8 1_555 1_555
C4 C5 1_555 1_555
C7 C8 1_555 1_555
C9 C10 1_555 1_555
C14 C15 1_555 1_555
C16 C17 1_555 1_555
C21 C22 1_555 1_555
C23 C24 1_555 1_555
C4A C5A 1_555 1_555
N2A Ni1A 1_555 1_555
C7A C8A 1_555 1_555
C9A C10A 1_555 1_555
C14A C15A 1_555 1_555
C16A C17A 1_555 1_555
C21A C22A 1_555 1_555
C23A C24A 1_555 1_555

#END
