
#######################################################################
#
#                 Cambridge Crystallographic Data Centre
#                                CCDC 
#
#######################################################################
#
# If this CIF has been generated from an entry in the Cambridge 
# Structural Database, then it will include bibliographic, chemical, 
# crystal, experimental, refinement or atomic coordinate data resulting 
# from the CCDC's data processing and validation procedures.
#
#######################################################################

data_ULOMAK
_symmetry_cell_setting           orthorhombic
_symmetry_space_group_name_H-M   'F d d d'
_symmetry_Int_Tables_number      70
_space_group_name_Hall           '-F 2uv 2vw'
loop_
_symmetry_equiv_pos_site_id
_symmetry_equiv_pos_as_xyz
1 x,y,z
2 1/4-x,1/4-y,z
3 x,1/4-y,1/4-z
4 1/4-x,y,1/4-z
5 x,1/2+y,1/2+z
6 1/4-x,3/4-y,1/2+z
7 x,3/4-y,3/4-z
8 1/4-x,1/2+y,3/4-z
9 1/2+x,y,1/2+z
10 3/4-x,1/4-y,1/2+z
11 1/2+x,1/4-y,3/4-z
12 3/4-x,y,3/4-z
13 1/2+x,1/2+y,z
14 3/4-x,3/4-y,z
15 1/2+x,3/4-y,1/4-z
16 3/4-x,1/2+y,1/4-z
17 -x,-y,-z
18 3/4+x,3/4+y,-z
19 -x,3/4+y,3/4+z
20 3/4+x,-y,3/4+z
21 -x,1/2-y,1/2-z
22 3/4+x,1/4+y,1/2-z
23 -x,1/4+y,1/4+z
24 3/4+x,1/2-y,1/4+z
25 1/2-x,-y,1/2-z
26 1/4+x,3/4+y,1/2-z
27 1/2-x,3/4+y,1/4+z
28 1/4+x,-y,1/4+z
29 1/2-x,1/2-y,-z
30 1/4+x,1/4+y,-z
31 1/2-x,1/4+y,3/4+z
32 1/4+x,1/2-y,3/4+z
_cell_length_a                   11.4184(10)
_cell_length_b                   40.061(4)
_cell_length_c                   42.963(4)
_cell_angle_alpha                90
_cell_angle_beta                 90
_cell_angle_gamma                90
_cell_volume                     19652.7
loop_
_atom_site_label
_atom_site_type_symbol
_atom_site_fract_x
_atom_site_fract_y
_atom_site_fract_z
Co1 Co 0.07528(4) 0.167220(10) 0.510534(10)
N1 N -0.4017(2) 0.32649(7) 0.46936(6)
C1 C -0.3737(6) 0.33323(14) 0.44090(15)
H1 H -0.4315 0.3426 0.4284
C2 C -0.2663(6) 0.32774(16) 0.42744(16)
H2 H -0.2527 0.3339 0.4069
C3 C -0.1799(3) 0.31318(8) 0.44460(8)
C4 C -0.2027(6) 0.3065(2) 0.47519(17)
H3 H -0.1450 0.2975 0.4879
C5 C -0.3116(6) 0.3134(2) 0.48682(18)
H4 H -0.3257 0.3089 0.5077
S1 S -0.04044(10) 0.30612(3) 0.42743(3)
S2 S 0.40375(8) 0.31007(2) 0.63685(2)
O1 O 0.1347(2) 0.19880(5) 0.54619(5)
O2 O 0.2281(3) 0.16383(6) 0.57792(6)
O3 O 0.4235(2) 0.33411(6) 0.61275(6)
O4 O 0.5003(2) 0.29738(6) 0.65467(6)
O5 O 0.0041(2) 0.38906(5) 0.72641(5)
O6 O -0.0059(2) 0.33609(5) 0.74305(5)
O7 O 0.1250 0.1250 0.53885(6)
H5 H 0.1729 0.1339 0.5504
N2 N 0.0511(2) 0.21044(6) 0.48011(6)
C6 C 0.1002(4) 0.23967(9) 0.48724(8)
H6 H 0.1514 0.2404 0.5040
C7 C 0.0793(3) 0.26898(9) 0.47109(9)
H7 H 0.1176 0.2886 0.4765
C8 C 0.0006(3) 0.26849(9) 0.44677(9)
C9 C -0.0412(4) 0.23829(10) 0.43752(10)
H8 H -0.0878 0.2366 0.4198
C10 C -0.0140(4) 0.21033(9) 0.45452(9)
H9 H -0.0432 0.1900 0.4477
C11 C 0.1947(3) 0.19226(8) 0.57004(7)
C12 C 0.2336(3) 0.22160(8) 0.58950(7)
C13 C 0.2072(3) 0.25382(8) 0.58034(8)
H10 H 0.1551 0.2573 0.5640
C14 C 0.2570(3) 0.28085(9) 0.59510(8)
H11 H 0.2411 0.3024 0.5883
C15 C 0.3306(3) 0.27552(8) 0.62000(7)
C16 C 0.3529(3) 0.24367(8) 0.63055(8)
H12 H 0.4006 0.2403 0.6478
C17 C 0.3040(3) 0.21686(8) 0.61540(7)
H13 H 0.3184 0.1953 0.6226
C18 C 0.0358(3) 0.35898(8) 0.72637(7)
C19 C 0.1314(3) 0.34898(8) 0.70427(7)
C20 C 0.2025(4) 0.32221(10) 0.71171(8)
H14 H 0.1923 0.3115 0.7307
C21 C 0.2875(4) 0.31111(10) 0.69175(9)
H15 H 0.3357 0.2933 0.6973
C22 C 0.3008(3) 0.32657(8) 0.66344(7)
C23 C 0.2314(3) 0.35331(8) 0.65547(7)
H16 H 0.2407 0.3636 0.6362
C24 C 0.1477(3) 0.36487(8) 0.67611(7)
H17 H 0.1025 0.3834 0.6710
Co1A Co 0.17472(4) 0.082780(10) 0.510534(10)
Co1Q Co 0.82528(4) -0.082780(10) 0.489466(10)
Co1V Co -0.07528(4) 0.417220(10) 0.760534(10)
Co1W Co -0.17472(4) 0.332780(10) 0.760534(10)
Co1Z Co 0.42472(4) -0.082780(10) 0.760534(10)
Co1AA Co 0.32528(4) -0.167220(10) 0.760534(10)
Co1BA Co -0.57528(4) 0.332780(10) 0.489466(10)
N1A N 0.6517(2) -0.07649(7) 0.46936(6)
N1Q N 0.3483(2) 0.07649(7) 0.53064(6)
N1BA N -0.0983(2) 0.17351(7) 0.53064(6)
C1A C 0.6237(6) -0.08323(14) 0.44090(15)
H1A H 0.6815 -0.0926 0.4284
C2A C 0.5163(6) -0.07774(16) 0.42744(16)
H2A H 0.5027 -0.0839 0.4069
C3A C 0.4299(3) -0.06318(8) 0.44460(8)
C4A C 0.4527(6) -0.0565(2) 0.47519(17)
H3A H 0.3950 -0.0475 0.4879
C5A C 0.5616(6) -0.0634(2) 0.48682(18)
H4A H 0.5757 -0.0589 0.5077
S1A S 0.29044(10) -0.05612(3) 0.42743(3)
S2A S -0.15375(8) -0.06007(2) 0.63685(2)
O1A O 0.1153(2) 0.05120(5) 0.54619(5)
O2A O 0.0219(3) 0.08617(6) 0.57792(6)
O3A O -0.1735(2) -0.08411(6) 0.61275(6)
O4A O -0.2503(2) -0.04738(6) 0.65467(6)
O5A O 0.2459(2) -0.13906(5) 0.72641(5)
O5R O -0.0041(2) 0.13906(5) 0.47641(5)
O5EA O 0.2541(2) 0.11094(5) 0.47641(5)
O6A O 0.2559(2) -0.08609(5) 0.74305(5)
O6R O 0.0059(2) 0.08609(5) 0.49305(5)
O6EA O 0.2441(2) 0.16391(5) 0.49305(5)
H5A H 0.0771 0.1161 0.5504
N2A N 0.1989(2) 0.03956(6) 0.48011(6)
C6A C 0.1498(4) 0.01033(9) 0.48724(8)
H6A H 0.0986 0.0096 0.5040
C7A C 0.1707(3) -0.01898(9) 0.47109(9)
H7A H 0.1324 -0.0386 0.4765
C8A C 0.2494(3) -0.01849(9) 0.44677(9)
C9A C 0.2912(4) 0.01171(10) 0.43752(10)
H8A H 0.3378 0.0134 0.4198
C10A C 0.2640(4) 0.03967(9) 0.45452(9)
H9A H 0.2932 0.0600 0.4477
C11A C 0.0553(3) 0.05774(8) 0.57004(7)
C12A C 0.0164(3) 0.02840(8) 0.58950(7)
C13A C 0.0428(3) -0.00382(8) 0.58034(8)
H10A H 0.0949 -0.0073 0.5640
C14A C -0.0070(3) -0.03085(9) 0.59510(8)
H11A H 0.0089 -0.0524 0.5883
C15A C -0.0806(3) -0.02552(8) 0.62000(7)
C16A C -0.1029(3) 0.00633(8) 0.63055(8)
H12A H -0.1506 0.0097 0.6478
C17A C -0.0540(3) 0.03314(8) 0.61540(7)
H13A H -0.0684 0.0547 0.6226
C18A C 0.2142(3) -0.10898(8) 0.72637(7)
C19A C 0.1186(3) -0.09898(8) 0.70427(7)
C20A C 0.0475(4) -0.07221(10) 0.71171(8)
H14A H 0.0577 -0.0615 0.7307
C21A C -0.0375(4) -0.06111(10) 0.69175(9)
H15A H -0.0857 -0.0433 0.6973
C22A C -0.0508(3) -0.07657(8) 0.66344(7)
C23A C 0.0186(3) -0.10331(8) 0.65547(7)
H16A H 0.0093 -0.1136 0.6362
C24A C 0.1023(3) -0.11487(8) 0.67611(7)
H17A H 0.1475 -0.1334 0.6710
O8 O 0.3492(4) 0.1250 0.6250
H18 H 0.3154 0.1360 0.6116
H18B H 0.3154 0.1140 0.6384
O9 O 0.6250 0.1250 0.6250
C25? C -0.3342(8) 0.3500(2) 0.4581(2)
C26? C -0.2263(8) 0.3443(2) 0.4456(2)
C27? C -0.2503(8) 0.2873(2) 0.4557(2)
C28? C -0.3592(8) 0.2948(2) 0.4677(2)
H19? H -0.3615 0.3719 0.4586
H20? H -0.1837 0.3621 0.4376
H21? H -0.2242 0.2653 0.4550
H22? H -0.4058 0.2774 0.4749
loop_
_geom_bond_atom_site_label_1
_geom_bond_atom_site_label_2
_geom_bond_site_symmetry_1
_geom_bond_site_symmetry_2
Co1 O1 1_555 1_555
N1 C1 1_555 1_555
C1 H1 1_555 1_555
C2 C1 1_555 1_555
H2 C2 1_555 1_555
C3 C2 1_555 1_555
C4 C3 1_555 1_555
H3 C4 1_555 1_555
C5 N1 1_555 1_555
H4 C5 1_555 1_555
S1 C3 1_555 1_555
S2 O3 1_555 1_555
O1 C11 1_555 1_555
O2 C11 1_555 1_555
O4 S2 1_555 1_555
O5 C18 1_555 1_555
O6 C18 1_555 1_555
O7 Co1 1_555 1_555
H5 O7 1_555 1_555
N2 Co1 1_555 1_555
C6 N2 1_555 1_555
H6 C6 1_555 1_555
C7 C6 1_555 1_555
H7 C7 1_555 1_555
C8 S1 1_555 1_555
C9 C8 1_555 1_555
H8 C9 1_555 1_555
C10 N2 1_555 1_555
H9 C10 1_555 1_555
C11 C12 1_555 1_555
C12 C13 1_555 1_555
C13 H10 1_555 1_555
C14 C13 1_555 1_555
H11 C14 1_555 1_555
C15 S2 1_555 1_555
C16 C15 1_555 1_555
H12 C16 1_555 1_555
C17 C12 1_555 1_555
H13 C17 1_555 1_555
C18 C19 1_555 1_555
C19 C20 1_555 1_555
C20 H14 1_555 1_555
C21 C20 1_555 1_555
H15 C21 1_555 1_555
C22 S2 1_555 1_555
C23 C22 1_555 1_555
H16 C23 1_555 1_555
C24 C19 1_555 1_555
H17 C24 1_555 1_555
O8 H18 1_555 1_555
Co1A O7 1_555 1_555
Co1Q N1A 1_555 1_555
Co1V O5 1_555 1_555
Co1W O6 1_555 1_555
Co1Z O6A 1_555 1_555
Co1AA O5A 1_555 1_555
Co1BA N1 1_555 1_555
N1A C1A 1_555 1_555
N1Q Co1A 1_555 1_555
N1BA Co1 1_555 1_555
C1A H1A 1_555 1_555
C2A C1A 1_555 1_555
H2A C2A 1_555 1_555
C3A C2A 1_555 1_555
C4A C3A 1_555 1_555
H3A C4A 1_555 1_555
C5A N1A 1_555 1_555
H4A C5A 1_555 1_555
S1A C3A 1_555 1_555
S2A O3A 1_555 1_555
O1A Co1A 1_555 1_555
O2A C11A 1_555 1_555
O4A S2A 1_555 1_555
O5A C18A 1_555 1_555
O5R Co1 1_555 1_555
O5EA Co1A 1_555 1_555
O6A C18A 1_555 1_555
O6R Co1A 1_555 1_555
O6EA Co1 1_555 1_555
H5A O7 1_555 1_555
N2A Co1A 1_555 1_555
C6A N2A 1_555 1_555
H6A C6A 1_555 1_555
C7A C6A 1_555 1_555
H7A C7A 1_555 1_555
C8A S1A 1_555 1_555
C9A C8A 1_555 1_555
H8A C9A 1_555 1_555
C10A N2A 1_555 1_555
H9A C10A 1_555 1_555
C11A O1A 1_555 1_555
C12A C11A 1_555 1_555
C13A C12A 1_555 1_555
H10A C13A 1_555 1_555
C14A C13A 1_555 1_555
H11A C14A 1_555 1_555
C15A S2A 1_555 1_555
C16A C15A 1_555 1_555
H12A C16A 1_555 1_555
C17A C12A 1_555 1_555
H13A C17A 1_555 1_555
C18A C19A 1_555 1_555
C19A C20A 1_555 1_555
C20A H14A 1_555 1_555
C21A C20A 1_555 1_555
H15A C21A 1_555 1_555
C22A S2A 1_555 1_555
C23A C22A 1_555 1_555
H16A C23A 1_555 1_555
C24A C19A 1_555 1_555
H17A C24A 1_555 1_555
H18B O8 1_555 1_555
C4 C5 1_555 1_555
C7 C8 1_555 1_555
C9 C10 1_555 1_555
C14 C15 1_555 1_555
C16 C17 1_555 1_555
C21 C22 1_555 1_555
C23 C24 1_555 1_555
C4A C5A 1_555 1_555
C7A C8A 1_555 1_555
C9A C10A 1_555 1_555
C14A C15A 1_555 1_555
C16A C17A 1_555 1_555
C21A C22A 1_555 1_555
C23A C24A 1_555 1_555

#END
