
#######################################################################
#
#                 Cambridge Crystallographic Data Centre
#                                CCDC 
#
#######################################################################
#
# If this CIF has been generated from an entry in the Cambridge 
# Structural Database, then it will include bibliographic, chemical, 
# crystal, experimental, refinement or atomic coordinate data resulting 
# from the CCDC's data processing and validation procedures.
#
#######################################################################

data_ULONAK
_symmetry_cell_setting           triclinic
_symmetry_space_group_name_H-M   'P -1'
_symmetry_Int_Tables_number      2
_space_group_name_Hall           '-P 1'
loop_
_symmetry_equiv_pos_site_id
_symmetry_equiv_pos_as_xyz
1 x,y,z
2 -x,-y,-z
_cell_length_a                   11.4920(6)
_cell_length_b                   14.5074(8)
_cell_length_c                   23.7492(13)
_cell_angle_alpha                73.5990(10)
_cell_angle_beta                 79.8710(10)
_cell_angle_gamma                83.8140(10)
_cell_volume                     3732.05
loop_
_atom_site_label
_atom_site_type_symbol
_atom_site_fract_x
_atom_site_fract_y
_atom_site_fract_z
Cu1 Cu 0.83117(8) 0.28474(7) 0.33907(4)
N1 N 0.7398(7) 0.4003(5) 0.3573(3)
C1 C 1.1309(7) 0.2985(6) 0.2806(4)
Cu2 Cu 0.55066(7) 0.14246(6) 0.10328(4)
N2 N 0.4823(5) 0.6359(5) 0.1882(3)
C2 C 1.1046(9) 0.3865(7) 0.2458(4)
H1 H 1.0243 0.4076 0.2428
Cu3 Cu 0.54489(7) 0.65049(6) 0.09719(4)
N3 N 0.6995(7) 0.1908(5) 0.3613(3)
C3 C 1.1944(10) 0.4469(8) 0.2143(5)
H2 H 1.1761 0.5083 0.1889
P1 P 1.01038(17) 0.22024(15) 0.32149(9)
N4 N 0.4955(5) 0.0877(5) 0.1944(3)
C4 C 1.3079(9) 0.4166(9) 0.2206(5)
H3 H 1.3694 0.4582 0.2005
N5 N 0.7058(5) 0.0829(4) 0.0812(2)
C5 C 1.3356(9) 0.3275(9) 0.2553(6)
H4 H 1.4160 0.3067 0.2585
N6 N 0.7005(5) -0.3001(4) 0.0843(3)
C6 C 1.2492(8) 0.2694(7) 0.2849(5)
H5 H 1.2689 0.2074 0.3093
N7 N 0.4164(5) 0.2270(4) 0.0770(3)
C7 C 1.0609(7) 0.1558(6) 0.3917(4)
N8 N 0.4198(5) 0.6146(4) 0.0645(3)
C8 C 1.0303(9) 0.1969(7) 0.4402(4)
H6 H 0.9847 0.2565 0.4355
C9 C 1.0658(11) 0.1517(10) 0.4936(5)
H7 H 1.0426 0.1790 0.5261
C10 C 1.1347(9) 0.0672(9) 0.5008(4)
H8 H 1.1627 0.0382 0.5375
C11 C 1.1635(8) 0.0239(8) 0.4545(4)
H9 H 1.2082 -0.0362 0.4605
C12 C 1.1280(8) 0.0674(7) 0.3994(4)
H10 H 1.1486 0.0379 0.3677
C13 C 1.0168(7) 0.1280(6) 0.2827(3)
C14 C 1.0810(8) 0.1344(7) 0.2268(4)
H11 H 1.1260 0.1888 0.2071
C15 C 1.0799(9) 0.0623(7) 0.1999(4)
H12 H 1.1257 0.0673 0.1618
C16 C 1.0148(9) -0.0165(7) 0.2261(4)
H13 H 1.0148 -0.0653 0.2066
C17 C 0.9488(10) -0.0237(7) 0.2819(5)
H14 H 0.9041 -0.0783 0.3013
C18 C 0.9486(9) 0.0492(6) 0.3092(4)
H15 H 0.9008 0.0452 0.3466
C19 C 0.7243(12) 0.4086(7) 0.4125(4)
H16 H 0.7688 0.3657 0.4403
C20 C 0.6460(15) 0.4774(10) 0.4311(5)
H17 H 0.6412 0.4840 0.4701
C21 C 0.5743(13) 0.5368(8) 0.3922(4)
H18 H 0.5166 0.5811 0.4056
C22 C 0.5868(9) 0.5316(6) 0.3334(4)
C23 C 0.6737(7) 0.4612(6) 0.3171(3)
C24 C 0.6932(7) 0.4545(5) 0.2580(3)
H19 H 0.7523 0.4093 0.2466
C25 C 0.6294(7) 0.5110(5) 0.2178(4)
H20 H 0.6441 0.5044 0.1784
C26 C 0.5407(7) 0.5802(5) 0.2320(3)
C27 C 0.5179(8) 0.5898(6) 0.2901(4)
C28 C 0.4293(10) 0.6578(7) 0.3034(4)
H21 H 0.4119 0.6670 0.3421
C29 C 0.3668(9) 0.7119(7) 0.2583(5)
H22 H 0.3042 0.7570 0.2664
C30 C 0.3964(8) 0.6995(6) 0.2022(4)
H23 H 0.3540 0.7378 0.1719
C31 C 0.6571(11) 0.1613(9) 0.4187(4)
H24 H 0.6934 0.1817 0.4457
C32 C 0.5630(13) 0.1023(12) 0.4416(5)
H25 H 0.5336 0.0856 0.4829
C33 C 0.5120(11) 0.0677(10) 0.4024(4)
H26 H 0.4512 0.0238 0.4174
C34 C 0.5512(7) 0.0982(7) 0.3420(4)
C35 C 0.6481(7) 0.1611(6) 0.3222(4)
C36 C 0.6908(6) 0.1939(5) 0.2614(3)
H27 H 0.7560 0.2339 0.2488
C37 C 0.6411(7) 0.1699(5) 0.2202(3)
H28 H 0.6714 0.1934 0.1793
C38 C 0.5422(6) 0.1085(5) 0.2382(4)
C39 C 0.5011(7) 0.0701(6) 0.2986(3)
C40 C 0.4109(7) 0.0073(6) 0.3139(4)
H29 H 0.3831 -0.0221 0.3545
C41 C 0.3616(7) -0.0124(6) 0.2698(4)
H30 H 0.2977 -0.0534 0.2798
C42 C 0.4067(8) 0.0284(7) 0.2110(4)
H31 H 0.3731 0.0137 0.1810
C43 C 0.8054(6) 0.1218(5) 0.0795(3)
H32 H 0.8018 0.1866 0.0813
C44 C 0.9137(6) 0.0724(5) 0.0752(4)
H33 H 0.9834 0.1040 0.0728
C45 C 0.9221(6) -0.0215(5) 0.0743(3)
H34 H 0.9971 -0.0560 0.0720
C46 C 0.8189(6) -0.0667(5) 0.0767(3)
C47 C 0.7118(6) -0.0111(5) 0.0788(3)
C48 C 0.6041(6) -0.0520(5) 0.0774(3)
H35 H 0.5324 -0.0128 0.0758
C49 C 0.6036(6) -0.1436(5) 0.0783(3)
H36 H 0.5313 -0.1692 0.0777
C50 C 0.7103(6) -0.2050(5) 0.0803(3)
C51 C 0.8183(6) -0.1676(5) 0.0787(3)
C52 C 0.9191(6) -0.2308(5) 0.0820(4)
H37 H 0.9939 -0.2085 0.0819
C53 C 0.9084(7) -0.3258(6) 0.0855(4)
H38 H 0.9764 -0.3694 0.0871
C54 C 0.7994(6) -0.3578(5) 0.0867(4)
H39 H 0.7941 -0.4239 0.0893
C55 C 0.3197(6) 0.1906(5) 0.0699(3)
H40 H 0.3230 0.1241 0.0718
C56 C 0.2152(6) 0.2445(5) 0.0598(4)
H41 H 0.1486 0.2149 0.0556
C57 C 0.2079(6) 0.3409(5) 0.0560(3)
H42 H 0.1360 0.3786 0.0496
C58 C 0.3077(6) 0.3834(5) 0.0615(3)
C59 C 0.4106(6) 0.3228(5) 0.0732(3)
C60 C 0.5114(6) 0.3621(5) 0.0828(3)
H43 H 0.5799 0.3210 0.0913
C61 C 0.5122(6) 0.4552(5) 0.0800(3)
H44 H 0.5807 0.4788 0.0870
C62 C 0.4124(6) 0.5195(5) 0.0669(3)
C63 C 0.3104(6) 0.4851(5) 0.0558(3)
C64 C 0.2167(6) 0.5524(5) 0.0398(3)
H45 H 0.1467 0.5323 0.0319
C65 C 0.2271(6) 0.6476(5) 0.0355(3)
H46 H 0.1650 0.6939 0.0236
C66 C 0.3277(6) 0.6758(5) 0.0484(3)
H47 H 0.3321 0.7419 0.0459
N6_2 N 0.7005(5) 0.6999(4) 0.0843(3)
Cu3_2 Cu 0.54489(7) -0.34951(6) 0.09719(4)
F1 F 0.6229(7) 0.3101(5) 0.5588(3)
B1 B 0.6901(11) 0.2250(8) 0.5646(5)
F2 F 0.7220(6) 0.1919(4) 0.6206(2)
F3 F 0.6209(6) 0.1562(5) 0.5553(2)
F4 F 0.7889(5) 0.2370(4) 0.5214(2)
O1 O 0.8679(14) -0.2238(11) 0.2427(6)
C67 C 0.6876(18) -0.1431(15) 0.2403(9)
H48 H 0.6638 -0.1344 0.2803
H49 H 0.6174 -0.1355 0.2207
H50 H 0.7434 -0.0949 0.2171
C68 C 0.7376(18) -0.2282(15) 0.2440(9)
H51 H 0.7240 -0.2510 0.2103
H52 H 0.7036 -0.2737 0.2813
C69 C 0.9367(18) -0.3364(14) 0.2516(9)
H53 H 0.9180 -0.3783 0.2924
H54 H 0.9210 -0.3688 0.2224
C70 C 1.045(3) -0.305(2) 0.2398(12)
H55 H 1.0486 -0.2466 0.2066
H56 H 1.1021 -0.3548 0.2292
H57 H 1.0635 -0.2905 0.2750
B2 B 1.2503(7) 0.9187(6) 0.0876(4)
F5 F 1.3517(4) 0.9030(4) 0.0486(2)
F6 F 1.2868(7) 0.9143(5) 0.1400(3)
F7 F 1.1955(4) 1.0094(3) 0.0659(2)
F8 F 1.1769(4) 0.8488(4) 0.0933(3)
B3 B 0.8869(7) 0.3705(6) 0.1139(4)
F9 F 0.9006(5) 0.3411(6) 0.1726(3)
F10 F 0.9450(5) 0.4495(4) 0.0857(3)
F11 F 0.9279(4) 0.2987(4) 0.0872(3)
F12 F 0.7656(4) 0.3903(4) 0.1122(3)
loop_
_geom_bond_atom_site_label_1
_geom_bond_atom_site_label_2
_geom_bond_site_symmetry_1
_geom_bond_site_symmetry_2
Cu1 N1 1_555 1_555
F1 B1 1_555 1_555
O1 C68 1_555 1_555
N1 C19 1_555 1_555
C1 C2 1_555 1_555
B1 F2 1_555 1_555
Cu2 N4 1_555 1_555
N2 Cu3 1_555 1_555
C2 H1 1_555 1_555
B2 F5 1_555 1_555
Cu3 N8 1_555 1_555
F3 B1 1_555 1_555
N3 Cu1 1_555 1_555
C3 C2 1_555 1_555
H2 C3 1_555 1_555
B3 F9 1_555 1_555
P1 Cu1 1_555 1_555
F4 B1 1_555 1_555
N4 C38 1_555 1_555
C4 C3 1_555 1_555
H3 C4 1_555 1_555
N5 Cu2 1_555 1_555
C5 C4 1_555 1_555
H4 C5 1_555 1_555
F6 B2 1_555 1_555
N6 C50 1_555 1_555
C6 C1 1_555 1_555
H5 C6 1_555 1_555
F7 B2 1_555 1_555
N7 Cu2 1_555 1_555
C7 P1 1_555 1_555
N8 C62 1_555 1_555
C8 C7 1_555 1_555
H6 C8 1_555 1_555
F8 B2 1_555 1_555
C9 C8 1_555 1_555
H7 C9 1_555 1_555
F10 B3 1_555 1_555
C10 C9 1_555 1_555
H8 C10 1_555 1_555
F11 B3 1_555 1_555
C11 C10 1_555 1_555
H9 C11 1_555 1_555
F12 B3 1_555 1_555
C12 C7 1_555 1_555
H10 C12 1_555 1_555
C13 P1 1_555 1_555
C14 C13 1_555 1_555
H11 C14 1_555 1_555
C15 C14 1_555 1_555
H12 C15 1_555 1_555
C16 C15 1_555 1_555
H13 C16 1_555 1_555
C17 C16 1_555 1_555
H14 C17 1_555 1_555
C18 C13 1_555 1_555
H15 C18 1_555 1_555
C19 H16 1_555 1_555
C20 C19 1_555 1_555
H17 C20 1_555 1_555
C21 C20 1_555 1_555
H18 C21 1_555 1_555
C22 C21 1_555 1_555
C23 N1 1_555 1_555
C24 C23 1_555 1_555
H19 C24 1_555 1_555
C25 C24 1_555 1_555
H20 C25 1_555 1_555
C26 N2 1_555 1_555
C27 C22 1_555 1_555
C28 C27 1_555 1_555
H21 C28 1_555 1_555
C29 C28 1_555 1_555
H22 C29 1_555 1_555
C30 N2 1_555 1_555
H23 C30 1_555 1_555
C31 N3 1_555 1_555
H24 C31 1_555 1_555
C32 C31 1_555 1_555
H25 C32 1_555 1_555
C33 C32 1_555 1_555
H26 C33 1_555 1_555
C34 C33 1_555 1_555
C35 N3 1_555 1_555
C36 C35 1_555 1_555
H27 C36 1_555 1_555
C37 C36 1_555 1_555
H28 C37 1_555 1_555
C38 C37 1_555 1_555
C39 C34 1_555 1_555
C40 C39 1_555 1_555
H29 C40 1_555 1_555
C41 C40 1_555 1_555
H30 C41 1_555 1_555
C42 N4 1_555 1_555
H31 C42 1_555 1_555
C43 N5 1_555 1_555
H32 C43 1_555 1_555
C44 C43 1_555 1_555
H33 C44 1_555 1_555
C45 C44 1_555 1_555
H34 C45 1_555 1_555
C46 C45 1_555 1_555
C47 N5 1_555 1_555
C48 C47 1_555 1_555
H35 C48 1_555 1_555
C49 C48 1_555 1_555
H36 C49 1_555 1_555
C50 C49 1_555 1_555
C51 C46 1_555 1_555
C52 C51 1_555 1_555
H37 C52 1_555 1_555
C53 C52 1_555 1_555
H38 C53 1_555 1_555
C54 N6 1_555 1_555
H39 C54 1_555 1_555
C55 N7 1_555 1_555
H40 C55 1_555 1_555
C56 C55 1_555 1_555
H41 C56 1_555 1_555
C57 C56 1_555 1_555
H42 C57 1_555 1_555
C58 C57 1_555 1_555
C59 N7 1_555 1_555
C60 C59 1_555 1_555
H43 C60 1_555 1_555
C61 C60 1_555 1_555
H44 C61 1_555 1_555
C62 C61 1_555 1_555
C63 C58 1_555 1_555
C64 C63 1_555 1_555
H45 C64 1_555 1_555
C65 C64 1_555 1_555
H46 C65 1_555 1_555
C66 N8 1_555 1_555
H47 C66 1_555 1_555
C67 H48 1_555 1_555
H49 C67 1_555 1_555
H50 C67 1_555 1_555
C68 C67 1_555 1_555
H51 C68 1_555 1_555
H52 C68 1_555 1_555
C69 O1 1_555 1_555
H53 C69 1_555 1_555
H54 C69 1_555 1_555
C70 C69 1_555 1_555
H55 C70 1_555 1_555
H56 C70 1_555 1_555
H57 C70 1_555 1_555
N6_2 Cu3 1_555 1_555
Cu3_2 N6 1_555 1_555
C1 P1 1_555 1_555
C5 C6 1_555 1_555
C11 C12 1_555 1_555
C17 C18 1_555 1_555
C22 C23 1_555 1_555
C25 C26 1_555 1_555
C26 C27 1_555 1_555
C29 C30 1_555 1_555
C34 C35 1_555 1_555
C38 C39 1_555 1_555
C41 C42 1_555 1_555
C46 C47 1_555 1_555
C50 C51 1_555 1_555
C53 C54 1_555 1_555
C58 C59 1_555 1_555
C62 C63 1_555 1_555
C65 C66 1_555 1_555

#END
