
#######################################################################
#
#                 Cambridge Crystallographic Data Centre
#                                CCDC 
#
#######################################################################
#
# If this CIF has been generated from an entry in the Cambridge 
# Structural Database, then it will include bibliographic, chemical, 
# crystal, experimental, refinement or atomic coordinate data resulting 
# from the CCDC's data processing and validation procedures.
#
#######################################################################

data_ULORAO
_symmetry_cell_setting           orthorhombic
_symmetry_space_group_name_H-M   'P b c a'
_symmetry_Int_Tables_number      61
_space_group_name_Hall           '-P 2ac 2ab'
loop_
_symmetry_equiv_pos_site_id
_symmetry_equiv_pos_as_xyz
1 x,y,z
2 x,1/2-y,1/2+z
3 1/2-x,1/2+y,z
4 1/2+x,y,1/2-z
5 -x,-y,-z
6 -x,1/2+y,1/2-z
7 1/2+x,1/2-y,-z
8 1/2-x,-y,1/2+z
_cell_length_a                   17.38(2)
_cell_length_b                   17.37(2)
_cell_length_c                   22.91(3)
_cell_angle_alpha                90
_cell_angle_beta                 90
_cell_angle_gamma                90
_cell_volume                     6916.31
loop_
_atom_site_label
_atom_site_type_symbol
_atom_site_fract_x
_atom_site_fract_y
_atom_site_fract_z
Cd1 Cd 0.48396(3) 0.23726(3) 0.631673(19)
Cd2 Cd 0.75141(3) 0.48649(3) 0.622547(18)
O1 O 0.7223(3) 0.6185(3) 0.6479(2)
H1 H 0.750(3) 0.6456(11) 0.6278(19)
H2 H 0.724(4) 0.6205(15) 0.6835(8)
O2 O 0.7863(3) 0.3564(3) 0.62834(19)
H3 H 0.756(3) 0.3292(12) 0.608(2)
H4 H 0.786(4) 0.3425(15) 0.6638(9)
O3 O 0.3534(3) 0.2122(3) 0.6413(2)
H5 H 0.3332(14) 0.230(4) 0.6702(15)
H6 H 0.3299(14) 0.213(4) 0.6098(10)
O7 O 0.7509(3) 0.4809(3) 0.7208(2)
O8 O 0.7711(4) 0.3584(3) 0.7415(2)
C1 C 0.7586(4) 0.4267(5) 0.7552(3)
C2 C 0.7544(4) 0.4461(4) 0.8188(3)
C3 C 0.7537(4) 0.3883(4) 0.8603(3)
H13 H 0.7546 0.3369 0.8489
C4 C 0.7517(4) 0.4075(4) 0.9194(3)
H14 H 0.7502 0.3689 0.9476
C5 C 0.7518(4) 0.4849(4) 0.9365(3)
C6 C 0.7523(4) 0.5410(4) 0.8943(3)
H15 H 0.7521 0.5925 0.9054
C7 C 0.7512(4) 0.5034(4) 1.0003(3)
C8 C 0.7531(4) 0.5226(4) 0.8365(3)
H16 H 0.7527 0.5616 0.8086
O9 O 0.7544(3) 0.5721(3) 1.0162(2)
O10 O 0.7482(3) 0.4480(3) 1.03626(19)
O11 O 0.4731(4) 0.2414(3) 0.7289(2)
C9 C 0.5351(5) 0.2324(4) 0.7564(3)
O12 O 0.5978(4) 0.2226(3) 0.7325(2)
C10 C 0.5287(5) 0.2369(4) 0.8238(3)
C11 C 0.4577(5) 0.2410(4) 0.8489(3)
H17 H 0.4136 0.2405 0.8259
C12 C 0.4522(4) 0.2460(4) 0.9091(3)
H18 H 0.4038 0.2481 0.9263
C13 C 0.5174(4) 0.2480(3) 0.9446(3)
C14 C 0.5880(5) 0.2431(4) 0.9174(3)
H19 H 0.6324 0.2443 0.9399
C15 C 0.5944(4) 0.2365(4) 0.8574(3)
H20 H 0.6426 0.2318 0.8400
C16 C 0.5089(4) 0.2558(3) 1.0095(3)
O13 O 0.5689(3) 0.2598(3) 1.04071(19)
O14 O 0.4435(3) 0.2586(3) 1.03206(19)
N1 N 0.6140(3) 0.4693(3) 0.6257(2)
C17 C 0.5759(4) 0.5042(4) 0.5735(3)
H21 H 0.5878 0.5587 0.5721
H22 H 0.5965 0.4806 0.5384
C18 C 0.5945(4) 0.3866(3) 0.6265(3)
H23 H 0.6177 0.3630 0.6605
H24 H 0.6161 0.3622 0.5921
C19 C 0.5780(4) 0.5051(4) 0.6783(3)
H25 H 0.6004 0.4824 0.7131
H26 H 0.5897 0.5597 0.6787
N2 N 0.4931(4) 0.4943(3) 0.5744(2)
C20 C 0.4623(5) 0.5292(4) 0.6270(3)
H27 H 0.4069 0.5229 0.6275
H28 H 0.4734 0.5840 0.6266
N3 N 0.4952(4) 0.4948(3) 0.6799(2)
N4 N 0.5092(3) 0.3725(3) 0.6278(2)
C21 C 0.4771(4) 0.4116(4) 0.5753(3)
H29 H 0.4988 0.3882 0.5405
H30 H 0.4219 0.4037 0.5743
C22 C 0.4785(4) 0.4124(3) 0.6807(3)
H31 H 0.4233 0.4048 0.6827
H32 H 0.5012 0.3896 0.7153
N5 N 0.6096(3) 0.0045(3) 0.6254(2)
C23 C 0.5913(4) 0.0886(3) 0.6273(3)
H33 H 0.6141 0.1137 0.5937
H34 H 0.6141 0.1110 0.6621
C24 C 0.5730(4) -0.0286(4) 0.5726(3)
H35 H 0.5831 -0.0835 0.5712
H36 H 0.5958 -0.0055 0.5381
C25 C 0.5722(4) -0.0316(4) 0.6776(3)
H37 H 0.5943 -0.0099 0.7128
H38 H 0.5828 -0.0865 0.6776
N6 N 0.5087(3) 0.1031(3) 0.6277(2)
N7 N 0.4894(4) -0.0156(3) 0.5718(2)
N8 N 0.4896(3) -0.0196(3) 0.6780(2)
C26 C 0.4745(4) 0.0632(3) 0.6792(3)
H39 H 0.4193 0.0719 0.6796
H40 H 0.4958 0.0850 0.7147
C27 C 0.4753(4) 0.0672(3) 0.5737(3)
H41 H 0.4978 0.0911 0.5395
H42 H 0.4203 0.0765 0.5727
C28 C 0.4568(4) -0.0513(4) 0.6240(3)
H43 H 0.4016 -0.0435 0.6242
H44 H 0.4663 -0.1063 0.6227
O13A O 0.5689(3) 0.2402(3) 0.54071(19)
O14A O 0.4435(3) 0.2414(3) 0.53206(19)
O9G O 0.7456(3) 0.4279(3) 0.5162(2)
O10G O 0.7518(3) 0.5520(3) 0.53626(19)
N5B N 0.8904(3) 0.5045(3) 0.6254(2)
Cd2G Cd 0.74859(3) 0.51351(3) 1.122547(18)
Cd1A Cd 0.48396(3) 0.26274(3) 1.131673(19)
Cd2B Cd 0.74859(3) -0.01351(3) 0.622547(18)
O4 O 0.2913(3) 0.2105(3) 0.5291(2)
H7 H 0.286(4) 0.167(2) 0.514(3)
H8 H 0.338(3) 0.221(4) 0.538(3)
O5 O 0.2553(4) 0.2041(3) 0.7433(2)
H9 H 0.273(4) 0.250(2) 0.746(4)
H10 H 0.2077(17) 0.203(4) 0.753(4)
O6 O 0.7778(3) 0.7321(3) 0.5705(2)
H11 H 0.758(3) 0.714(4) 0.5389(18)
H12 H 0.8253(16) 0.742(4) 0.562(3)
loop_
_geom_bond_atom_site_label_1
_geom_bond_atom_site_label_2
_geom_bond_site_symmetry_1
_geom_bond_site_symmetry_2
Cd1 O3 1_555 1_555
Cd2 O1 1_555 1_555
O1 H1 1_555 1_555
H2 O1 1_555 1_555
O2 Cd2 1_555 1_555
H3 O2 1_555 1_555
H4 O2 1_555 1_555
O3 H5 1_555 1_555
H6 O3 1_555 1_555
O4 H7 1_555 1_555
H8 O4 1_555 1_555
O5 H9 1_555 1_555
H10 O5 1_555 1_555
O6 H11 1_555 1_555
H12 O6 1_555 1_555
O7 Cd2 1_555 1_555
O8 C1 1_555 1_555
C1 O7 1_555 1_555
C2 C1 1_555 1_555
C3 C2 1_555 1_555
H13 C3 1_555 1_555
C4 C3 1_555 1_555
H14 C4 1_555 1_555
C5 C4 1_555 1_555
C6 C5 1_555 1_555
H15 C6 1_555 1_555
C7 C5 1_555 1_555
C8 C2 1_555 1_555
H16 C8 1_555 1_555
O9 C7 1_555 1_555
O10 C7 1_555 1_555
O11 Cd1 1_555 1_555
C9 O11 1_555 1_555
O12 C9 1_555 1_555
C10 C9 1_555 1_555
C11 C10 1_555 1_555
H17 C11 1_555 1_555
C12 C11 1_555 1_555
H18 C12 1_555 1_555
C13 C12 1_555 1_555
C14 C13 1_555 1_555
H19 C14 1_555 1_555
C15 C10 1_555 1_555
H20 C15 1_555 1_555
C16 C13 1_555 1_555
O13 C16 1_555 1_555
O14 C16 1_555 1_555
N1 Cd2 1_555 1_555
C17 N1 1_555 1_555
H21 C17 1_555 1_555
H22 C17 1_555 1_555
C18 N1 1_555 1_555
H23 C18 1_555 1_555
H24 C18 1_555 1_555
C19 N1 1_555 1_555
H25 C19 1_555 1_555
H26 C19 1_555 1_555
N2 C17 1_555 1_555
C20 N2 1_555 1_555
H27 C20 1_555 1_555
H28 C20 1_555 1_555
N3 C19 1_555 1_555
N4 Cd1 1_555 1_555
C21 N2 1_555 1_555
H29 C21 1_555 1_555
H30 C21 1_555 1_555
C22 N3 1_555 1_555
H31 C22 1_555 1_555
H32 C22 1_555 1_555
N5 C23 1_555 1_555
C23 H33 1_555 1_555
H34 C23 1_555 1_555
C24 N5 1_555 1_555
H35 C24 1_555 1_555
H36 C24 1_555 1_555
C25 N5 1_555 1_555
H37 C25 1_555 1_555
H38 C25 1_555 1_555
N6 Cd1 1_555 1_555
N7 C24 1_555 1_555
N8 C25 1_555 1_555
C26 N6 1_555 1_555
H39 C26 1_555 1_555
H40 C26 1_555 1_555
C27 N6 1_555 1_555
H41 C27 1_555 1_555
H42 C27 1_555 1_555
C28 N7 1_555 1_555
H43 C28 1_555 1_555
H44 C28 1_555 1_555
O13A Cd1 1_555 1_555
O14A Cd1 1_555 1_555
O9G Cd2 1_555 1_555
O10G Cd2 1_555 1_555
N5B Cd2 1_555 1_555
Cd2G O9 1_555 1_555
Cd1A O13 1_555 1_555
Cd2B N5 1_555 1_555
C6 C8 1_555 1_555
O10 Cd2G 1_555 1_555
C14 C15 1_555 1_555
O14 Cd1A 1_555 1_555
C18 N4 1_555 1_555
C20 N3 1_555 1_555
N4 C21 1_555 1_555
N4 C22 1_555 1_555
C23 N6 1_555 1_555
N7 C27 1_555 1_555
N8 C26 1_555 1_555
N8 C28 1_555 1_555

#END
