
#######################################################################
#
#                 Cambridge Crystallographic Data Centre
#                                CCDC 
#
#######################################################################
#
# If this CIF has been generated from an entry in the Cambridge 
# Structural Database, then it will include bibliographic, chemical, 
# crystal, experimental, refinement or atomic coordinate data resulting 
# from the CCDC's data processing and validation procedures.
#
#######################################################################

data_ULOVAS
_symmetry_cell_setting           triclinic
_symmetry_space_group_name_H-M   'P -1'
_symmetry_Int_Tables_number      2
_space_group_name_Hall           '-P 1'
loop_
_symmetry_equiv_pos_site_id
_symmetry_equiv_pos_as_xyz
1 x,y,z
2 -x,-y,-z
_cell_length_a                   8.231(2)
_cell_length_b                   8.279(1)
_cell_length_c                   10.451(2)
_cell_angle_alpha                74.11(1)
_cell_angle_beta                 72.98(2)
_cell_angle_gamma                60.20(2)
_cell_volume                     583.827
loop_
_atom_site_label
_atom_site_type_symbol
_atom_site_fract_x
_atom_site_fract_y
_atom_site_fract_z
Zr1 Zr 0.18517(8) 0.53907(10) 0.30756(6)
Cl1 Cl -0.1360(2) 0.5006(3) 0.41058(14)
O1 O 0.0638(6) 0.5212(8) 0.1062(4)
C1 C 0.2025(12) 0.8328(13) 0.3478(8)
C2 C 0.2947(11) 0.8076(11) 0.2146(8)
C3 C 0.1608(10) 0.8509(11) 0.1392(6)
C4 C -0.0173(10) 0.9049(11) 0.2268(7)
C5 C 0.0097(11) 0.8921(12) 0.3564(7)
C6 C 0.4593(9) 0.2629(12) 0.1686(7)
C7 C 0.5425(9) 0.3649(13) 0.1795(7)
C8 C 0.5523(9) 0.3395(12) 0.3168(8)
C9 C 0.4736(10) 0.2185(11) 0.3887(7)
C10 C 0.4139(10) 0.1686(12) 0.2980(7)
C11 C 0.0345(11) 0.3617(15) 0.1131(7)
C12 C -0.0657(10) 0.6797(14) 0.0265(7)
H1 H 0.269(13) 0.793(13) 0.422(10)
H2 H 0.421(11) 0.772(11) 0.184(7)
H3 H 0.170(10) 0.860(11) 0.043(8)
H4 H -0.139(10) 0.940(10) 0.207(7)
H5 H -0.086(11) 0.927(11) 0.431(8)
H6 H 0.436(10) 0.260(11) 0.094(8)
H7 H 0.584(7) 0.455(9) 0.116(6)
H8 H 0.584(9) 0.405(11) 0.353(7)
H9 H 0.446(9) 0.179(9) 0.488(7)
H10 H 0.353(8) 0.097(10) 0.323(6)
H11 H -0.082(10) 0.377(9) 0.164(7)
H12 H 0.123(11) 0.254(12) 0.172(8)
H13 H -0.189(10) 0.700(9) 0.074(7)
H14 H -0.047(10) 0.799(13) 0.013(7)
C12A C 0.0657(10) 0.3203(14) -0.0265(7)
O1A O -0.0638(6) 0.4788(8) -0.1062(4)
C11A C -0.0345(11) 0.6383(15) -0.1131(7)
H11A H 0.082(10) 0.623(9) -0.164(7)
H12A H -0.123(11) 0.746(12) -0.172(8)
H13A H 0.189(10) 0.300(9) -0.074(7)
H14A H 0.047(10) 0.201(13) -0.013(7)
Cl1A Cl 0.1360(2) 0.4994(3) 0.58942(14)
Zr1A Zr -0.18517(8) 0.46093(10) 0.69244(6)
C1A C -0.2025(12) 0.1672(13) 0.6522(8)
C2A C -0.2947(11) 0.1924(11) 0.7854(8)
C3A C -0.1608(10) 0.1491(11) 0.8608(6)
C4A C 0.0173(10) 0.0951(11) 0.7732(7)
C5A C -0.0097(11) 0.1079(12) 0.6436(7)
H1A H -0.269(13) 0.207(13) 0.578(10)
H2A H -0.421(11) 0.228(11) 0.816(7)
H3A H -0.170(10) 0.140(11) 0.957(8)
H4A H 0.139(10) 0.060(10) 0.793(7)
H5A H 0.086(11) 0.073(11) 0.569(8)
C6A C -0.4593(9) 0.7371(12) 0.8314(7)
C7A C -0.5425(9) 0.6351(13) 0.8205(7)
C8A C -0.5523(9) 0.6605(12) 0.6832(8)
C9A C -0.4736(10) 0.7815(11) 0.6113(7)
C10A C -0.4139(10) 0.8314(12) 0.7020(7)
H6A H -0.436(10) 0.740(11) 0.906(8)
H7A H -0.584(7) 0.545(9) 0.884(6)
H8A H -0.584(9) 0.595(11) 0.647(7)
H9A H -0.446(9) 0.821(9) 0.512(7)
H10A H -0.353(8) 0.903(10) 0.677(6)
Zr1A_2 Zr -0.18517(8) 0.46093(10) -0.30756(6)
O1A_2 O -0.0638(6) 0.4788(8) 0.8938(4)
loop_
_geom_bond_atom_site_label_1
_geom_bond_atom_site_label_2
_geom_bond_site_symmetry_1
_geom_bond_site_symmetry_2
Zr1 Cl1 1_555 1_555
Cl1 Zr1A 1_555 1_555
O1 Zr1 1_555 1_555
C1 Zr1 1_555 1_555
C2 Zr1 1_555 1_555
C3 Zr1 1_555 1_555
C4 Zr1 1_555 1_555
C5 Zr1 1_555 1_555
C6 Zr1 1_555 1_555
C7 Zr1 1_555 1_555
C8 Zr1 1_555 1_555
C9 Zr1 1_555 1_555
C10 Zr1 1_555 1_555
C11 O1 1_555 1_555
C12 O1 1_555 1_555
H1 C1 1_555 1_555
H2 C2 1_555 1_555
H3 C3 1_555 1_555
H4 C4 1_555 1_555
H5 C5 1_555 1_555
H6 C6 1_555 1_555
H7 C7 1_555 1_555
H8 C8 1_555 1_555
H9 C9 1_555 1_555
H10 C10 1_555 1_555
H11 C11 1_555 1_555
H12 C11 1_555 1_555
H13 C12 1_555 1_555
H14 C12 1_555 1_555
C12A C11 1_555 1_555
O1A C12A 1_555 1_555
C11A C12 1_555 1_555
H11A C11A 1_555 1_555
H12A C11A 1_555 1_555
H13A C12A 1_555 1_555
H14A C12A 1_555 1_555
Cl1A Zr1 1_555 1_555
Zr1A Cl1A 1_555 1_555
C1A Zr1A 1_555 1_555
C2A Zr1A 1_555 1_555
C3A Zr1A 1_555 1_555
C4A Zr1A 1_555 1_555
C5A Zr1A 1_555 1_555
H1A C1A 1_555 1_555
H2A C2A 1_555 1_555
H3A C3A 1_555 1_555
H4A C4A 1_555 1_555
H5A C5A 1_555 1_555
C6A Zr1A 1_555 1_555
C7A Zr1A 1_555 1_555
C8A Zr1A 1_555 1_555
C9A Zr1A 1_555 1_555
C10A Zr1A 1_555 1_555
H6A C6A 1_555 1_555
H7A C7A 1_555 1_555
H8A C8A 1_555 1_555
H9A C9A 1_555 1_555
H10A C10A 1_555 1_555
Zr1A_2 O1A 1_555 1_555
O1A_2 Zr1A 1_555 1_555
C1 C2 1_555 1_555
C1 C5 1_555 1_555
C2 C3 1_555 1_555
C3 C4 1_555 1_555
C4 C5 1_555 1_555
C6 C7 1_555 1_555
C6 C10 1_555 1_555
C7 C8 1_555 1_555
C8 C9 1_555 1_555
C9 C10 1_555 1_555
O1A C11A 1_555 1_555
C1A C2A 1_555 1_555
C1A C5A 1_555 1_555
C2A C3A 1_555 1_555
C3A C4A 1_555 1_555
C4A C5A 1_555 1_555
C6A C7A 1_555 1_555
C6A C10A 1_555 1_555
C7A C8A 1_555 1_555
C8A C9A 1_555 1_555
C9A C10A 1_555 1_555

#END
