
#######################################################################
#
#                 Cambridge Crystallographic Data Centre
#                                CCDC 
#
#######################################################################
#
# If this CIF has been generated from an entry in the Cambridge 
# Structural Database, then it will include bibliographic, chemical, 
# crystal, experimental, refinement or atomic coordinate data resulting 
# from the CCDC's data processing and validation procedures.
#
#######################################################################

data_ULUCAG
_symmetry_cell_setting           monoclinic
_symmetry_space_group_name_H-M   'C c'
_symmetry_Int_Tables_number      9
_space_group_name_Hall           'C -2yc'
loop_
_symmetry_equiv_pos_site_id
_symmetry_equiv_pos_as_xyz
1 x,y,z
2 x,-y,1/2+z
3 1/2+x,1/2+y,z
4 1/2+x,1/2-y,1/2+z
_cell_length_a                   13.283(3)
_cell_length_b                   23.711(5)
_cell_length_c                   7.4341(15)
_cell_angle_alpha                90
_cell_angle_beta                 115.543(2)
_cell_angle_gamma                90
_cell_volume                     2112.55
loop_
_atom_site_label
_atom_site_type_symbol
_atom_site_fract_x
_atom_site_fract_y
_atom_site_fract_z
C1 C 0.6632(5) -0.0600(2) 1.1083(8)
C2 C 0.7188(5) -0.1094(3) 1.1174(8)
H1 H 0.6795 -0.1441 1.0901
C3 C 0.8317(5) -0.1090(3) 1.1658(9)
H2 H 0.8696 -0.1436 1.1734
C4 C 0.8903(5) -0.0581(3) 1.2036(10)
H3 H 0.9678 -0.0576 1.2361
C5 C 0.8337(5) -0.0086(3) 1.1927(8)
C6 C 0.7202(4) -0.0076(3) 1.1495(8)
C7 C 0.8956(5) 0.0452(3) 1.2234(10)
C8 C 0.8311(5) 0.0977(3) 1.1643(9)
C9 C 0.7167(5) 0.0994(3) 1.1248(8)
C10 C 0.8856(5) 0.1464(3) 1.1469(9)
H4 H 0.9627 0.1453 1.1767
C11 C 0.8274(6) 0.1954(3) 1.0870(9)
H5 H 0.8638 0.2281 1.0698
C12 C 0.7154(5) 0.1988(3) 1.0503(10)
H6 H 0.6761 0.2334 1.0087
C13 C 0.6613(5) 0.1507(3) 1.0754(9)
C14 C 0.6639(4) 0.0459(2) 1.1417(8)
C15 C 0.4892(5) -0.1086(3) 0.9582(9)
H7 H 0.5074 -0.1403 1.0536
H8 H 0.5072 -0.1198 0.8471
C16 C 0.3678(5) -0.0928(2) 0.8809(10)
H9 H 0.3518 -0.0817 0.9944
H10 H 0.3213 -0.1261 0.8161
C17 C 0.1818(5) -0.0390(3) 0.6213(11)
H11 H 0.1455 -0.0098 0.5207
H12 H 0.1642 -0.0330 0.7350
H13 H 0.1547 -0.0762 0.5630
C18 C 0.4962(5) 0.2063(3) 1.0013(10)
H14 H 0.5005 0.2242 0.8846
H15 H 0.5321 0.2315 1.1179
C19 C 0.3762(5) 0.1955(3) 0.9599(9)
H16 H 0.3339 0.2314 0.9285
H17 H 0.3721 0.1785 1.0782
C20 C 0.1705(6) 0.1476(3) 0.6893(12)
H18 H 0.1311 0.1225 0.5756
H19 H 0.1408 0.1859 0.6552
H20 H 0.1599 0.1342 0.8047
O1 O 0.9980(3) 0.0461(2) 1.2954(7)
O2 O 0.5510(3) -0.05870(17) 1.0559(6)
O3 O 0.5506(3) 0.15247(18) 1.0411(7)
O4 O 0.5721(3) 0.04708(17) 1.1507(6)
S1 S 0.33034(12) -0.03538(7) 0.7040(2)
S2 S 0.31747(12) 0.14774(7) 0.7492(2)
Ag1 Ag 0.38665(4) 0.054397(18) 0.90792(4)
S1A S 0.33034(12) 0.03538(7) 1.2040(2)
Ag1A Ag 0.38665(4) -0.054397(18) 0.40792(4)
F1 F 0.5511(3) -0.23968(18) 1.1230(6)
F2 F 0.5200(4) -0.2990(2) 0.8739(8)
F3 F 0.6633(5) -0.3140(2) 1.1665(10)
F4 F 0.6680(3) -0.24137(16) 0.9767(6)
B1 B 0.6019(7) -0.2744(3) 1.0386(13)
loop_
_geom_bond_atom_site_label_1
_geom_bond_atom_site_label_2
_geom_bond_site_symmetry_1
_geom_bond_site_symmetry_2
C1 C2 1_555 1_555
C2 H1 1_555 1_555
C3 C2 1_555 1_555
H2 C3 1_555 1_555
C4 C3 1_555 1_555
H3 C4 1_555 1_555
C5 C4 1_555 1_555
C6 C1 1_555 1_555
C7 C5 1_555 1_555
C8 C7 1_555 1_555
C9 C8 1_555 1_555
C10 C8 1_555 1_555
H4 C10 1_555 1_555
C11 C10 1_555 1_555
H5 C11 1_555 1_555
C12 C11 1_555 1_555
H6 C12 1_555 1_555
C13 C9 1_555 1_555
C14 C6 1_555 1_555
C15 H7 1_555 1_555
H8 C15 1_555 1_555
C16 C15 1_555 1_555
H9 C16 1_555 1_555
H10 C16 1_555 1_555
C17 H11 1_555 1_555
H12 C17 1_555 1_555
H13 C17 1_555 1_555
C18 H14 1_555 1_555
H15 C18 1_555 1_555
C19 C18 1_555 1_555
H16 C19 1_555 1_555
H17 C19 1_555 1_555
C20 H18 1_555 1_555
H19 C20 1_555 1_555
H20 C20 1_555 1_555
O1 C7 1_555 1_555
O2 C1 1_555 1_555
O3 C13 1_555 1_555
O4 C14 1_555 1_555
F1 B1 1_555 1_555
F2 B1 1_555 1_555
F3 B1 1_555 1_555
F4 B1 1_555 1_555
S1 C16 1_555 1_555
S2 C19 1_555 1_555
Ag1 O4 1_555 1_555
S1A Ag1 1_555 1_555
Ag1A S1 1_555 1_555
C5 C6 1_555 1_555
C9 C14 1_555 1_555
C12 C13 1_555 1_555
C15 O2 1_555 1_555
C17 S1 1_555 1_555
C18 O3 1_555 1_555
C20 S2 1_555 1_555
S1 Ag1 1_555 1_555
S2 Ag1 1_555 1_555

#END
