
#######################################################################
#
#                 Cambridge Crystallographic Data Centre
#                                CCDC 
#
#######################################################################
#
# If this CIF has been generated from an entry in the Cambridge 
# Structural Database, then it will include bibliographic, chemical, 
# crystal, experimental, refinement or atomic coordinate data resulting 
# from the CCDC's data processing and validation procedures.
#
#######################################################################

data_ULUCEK
_symmetry_cell_setting           monoclinic
_symmetry_space_group_name_H-M   'P 21/c'
_symmetry_Int_Tables_number      14
_space_group_name_Hall           '-P 2ybc'
loop_
_symmetry_equiv_pos_site_id
_symmetry_equiv_pos_as_xyz
1 x,y,z
2 -x,1/2+y,1/2-z
3 -x,-y,-z
4 x,1/2-y,1/2+z
_cell_length_a                   10.4691(6)
_cell_length_b                   30.7099(17)
_cell_length_c                   7.4010(4)
_cell_angle_alpha                90
_cell_angle_beta                 94.0370(10)
_cell_angle_gamma                90
_cell_volume                     2373.55
loop_
_atom_site_label
_atom_site_type_symbol
_atom_site_fract_x
_atom_site_fract_y
_atom_site_fract_z
Ag1 Ag 0.429011(15) 0.141750(5) 0.45953(2)
S1 S -0.50184(5) 0.315851(16) 0.23784(7)
S2 S 0.54048(5) 0.097860(17) 0.23579(7)
O1 O 0.24368(13) 0.11995(4) 0.19110(18)
O2 O 0.27406(13) 0.19880(4) 0.3449(2)
C1 C -0.0268(2) 0.32358(7) 0.3620(3)
H1 H -0.0663 0.3514 0.3635
O3 O -0.21776(13) 0.28743(4) 0.45586(19)
C2 C -0.34952(19) 0.34291(6) 0.2960(3)
H2 H -0.3648 0.3747 0.3018
H3 H -0.2921 0.3376 0.1976
O4 O -0.22190(14) 0.20304(5) 0.4567(2)
C3 C 0.12193(18) 0.12030(6) 0.2454(3)
C4 C 0.5564(2) 0.04354(7) 0.3281(3)
H4 H 0.6207 0.0436 0.4309
H5 H 0.5832 0.0236 0.2346
H6 H 0.4739 0.0340 0.3690
C5 C 0.15644(19) 0.19954(6) 0.3335(3)
C6 C 0.1594(2) 0.27973(6) 0.3167(3)
H7 H 0.2475 0.2778 0.2947
N1 N 0.2950(2) 0.08884(7) 0.6050(2)
C7 C 0.08914(19) 0.24228(6) 0.3452(2)
C8 C -0.03995(19) 0.24483(6) 0.3863(2)
C9 C 0.0998(2) 0.31992(7) 0.3209(3)
H8 H 0.1466 0.3454 0.2951
C10 C -0.09653(19) 0.28638(6) 0.4011(3)
C11 C -0.05060(18) 0.16203(6) 0.3598(3)
C12 C -0.2819(2) 0.32852(6) 0.4727(3)
H9 H -0.3452 0.3259 0.5655
H10 H -0.2185 0.3509 0.5142
C13 C 0.04250(19) 0.08384(7) 0.2322(3)
H11 H 0.0727 0.0573 0.1845
C14 C 0.28755(19) 0.08034(6) 0.1120(3)
H12 H 0.2292 0.0718 0.0070
H13 H 0.2903 0.0565 0.2021
C15 C 0.1056(2) 0.03755(7) 0.6647(3)
H14 H 0.1236 0.0225 0.7804
H15 H 0.0940 0.0161 0.5669
H16 H 0.0273 0.0549 0.6698
C16 C -0.0805(2) 0.08643(7) 0.2887(3)
H17 H -0.1335 0.0613 0.2827
C17 C 0.07646(18) 0.16002(6) 0.3109(3)
C18 C 0.2123(2) 0.06607(7) 0.6306(3)
C19 C -0.11255(19) 0.20403(6) 0.4091(3)
C20 C 0.4195(2) 0.08921(7) 0.0525(3)
H18 H 0.4157 0.1153 -0.0262
H19 H 0.4459 0.0643 -0.0213
C21 C -0.4574(2) 0.26096(6) 0.1779(3)
H20 H -0.5348 0.2440 0.1449
H21 H -0.4036 0.2619 0.0748
H22 H -0.4097 0.2472 0.2815
C22 C -0.12734(19) 0.12511(7) 0.3538(3)
H23 H -0.2114 0.1264 0.3942
Ag1C Ag -0.570989(15) 0.358250(5) -0.04047(2)
S1C S 0.49816(5) 0.184149(16) 0.73784(7)
F1 F 0.79170(14) 0.01421(4) 0.67123(19)
F2 F 0.83477(13) 0.07746(4) 0.8241(2)
B1 B 0.7714(3) 0.03814(8) 0.8247(3)
F3 F 0.8122(6) 0.01471(13) 0.9740(6)
F4 F 0.6404(5) 0.04602(17) 0.8263(9)
F5? F 0.7595(5) 0.01605(14) 0.9887(6)
F6? F 0.8693(5) 0.01345(13) 0.9473(5)
F7? F 0.6314(5) 0.05145(16) 0.7747(7)
F8? F 0.6656(5) 0.03705(18) 0.8938(8)
loop_
_geom_bond_atom_site_label_1
_geom_bond_atom_site_label_2
_geom_bond_site_symmetry_1
_geom_bond_site_symmetry_2
Ag1 S2 1_555 1_555
S1 C2 1_555 1_555
S2 C4 1_555 1_555
F1 B1 1_555 1_555
O1 C3 1_555 1_555
F2 B1 1_555 1_555
O2 Ag1 1_555 1_555
C1 H1 1_555 1_555
O3 C10 1_555 1_555
C2 H2 1_555 1_555
H3 C2 1_555 1_555
O4 C19 1_555 1_555
C3 C13 1_555 1_555
C4 H4 1_555 1_555
H5 C4 1_555 1_555
H6 C4 1_555 1_555
C5 O2 1_555 1_555
C6 H7 1_555 1_555
N1 Ag1 1_555 1_555
C7 C5 1_555 1_555
C8 C7 1_555 1_555
C9 C1 1_555 1_555
H8 C9 1_555 1_555
C10 C1 1_555 1_555
C11 C17 1_555 1_555
C12 O3 1_555 1_555
H9 C12 1_555 1_555
H10 C12 1_555 1_555
C13 H11 1_555 1_555
C14 O1 1_555 1_555
H12 C14 1_555 1_555
H13 C14 1_555 1_555
C15 H14 1_555 1_555
H15 C15 1_555 1_555
H16 C15 1_555 1_555
C16 C13 1_555 1_555
H17 C16 1_555 1_555
C17 C3 1_555 1_555
C18 N1 1_555 1_555
C19 C8 1_555 1_555
C20 S2 1_555 1_555
H18 C20 1_555 1_555
H19 C20 1_555 1_555
C21 S1 1_555 1_555
H20 C21 1_555 1_555
H21 C21 1_555 1_555
H22 C21 1_555 1_555
C22 C11 1_555 1_555
H23 C22 1_555 1_555
B1 F3 1_555 1_555
F4 B1 1_555 1_555
Ag1C S1 1_555 1_555
S1C Ag1 1_555 1_555
C2 C12 1_555 1_555
C5 C17 1_555 1_555
C6 C7 1_555 1_555
C6 C9 1_555 1_555
C8 C10 1_555 1_555
C11 C19 1_555 1_555
C14 C20 1_555 1_555
C15 C18 1_555 1_555
C16 C22 1_555 1_555

#END
