
#######################################################################
#
#                 Cambridge Crystallographic Data Centre
#                                CCDC 
#
#######################################################################
#
# If this CIF has been generated from an entry in the Cambridge 
# Structural Database, then it will include bibliographic, chemical, 
# crystal, experimental, refinement or atomic coordinate data resulting 
# from the CCDC's data processing and validation procedures.
#
#######################################################################

data_ULUGAK
_symmetry_cell_setting           monoclinic
_symmetry_space_group_name_H-M   'P 21/n'
_symmetry_Int_Tables_number      14
_space_group_name_Hall           '-P 2yn'
loop_
_symmetry_equiv_pos_site_id
_symmetry_equiv_pos_as_xyz
1 x,y,z
2 1/2-x,1/2+y,1/2-z
3 -x,-y,-z
4 1/2+x,1/2-y,1/2+z
_cell_length_a                   14.2928(8)
_cell_length_b                   21.5179(12)
_cell_length_c                   16.3210(7)
_cell_angle_alpha                90
_cell_angle_beta                 104.719(2)
_cell_angle_gamma                90
_cell_volume                     4854.82
loop_
_atom_site_label
_atom_site_type_symbol
_atom_site_fract_x
_atom_site_fract_y
_atom_site_fract_z
Cu1 Cu 0.23647(6) 0.08800(3) -0.08160(4)
Cu2 Cu 0.42343(5) 0.36970(3) 0.18862(4)
Cu3 Cu 0.36660(5) 0.19918(3) 0.09008(4)
N1 N 0.5234(4) 0.4036(2) 0.1351(3)
N2 N 0.3570(5) 0.4490(2) 0.1436(4)
H1 H 0.3243 0.4402 0.0879
N3 N 0.3202(4) 0.3658(2) 0.2497(3)
N4 N 0.4606(4) 0.1765(2) 0.1995(3)
H2 H 0.4740 0.2121 0.2327
N5 N 0.4898(4) 0.2152(2) 0.0554(3)
N6 N 0.2722(4) 0.1851(2) 0.1622(3)
N7 N 0.3073(4) 0.1034(2) -0.1722(3)
N8 N 0.2456(5) -0.0003(2) -0.1174(4)
H3 H 0.1891 -0.0071 -0.1596
N9 N 0.1658(4) 0.0475(2) -0.0031(3)
N10 N 0.2668(4) 0.2169(2) -0.0145(3)
N11 N 0.2095(4) 0.1764(2) -0.0662(3)
N12 N 0.3778(5) 0.0914(3) 0.0282(4)
N13 N 0.4502(6) 0.0855(3) -0.0009(4)
N14 N 0.5208(6) 0.0814(3) -0.0270(5)
O7 O 0.3459(3) 0.3105(2) 0.0841(2)
O8 O 0.2531(4) 0.3819(2) 0.0009(2)
O9 O 0.0721(3) 0.1123(2) -0.1759(2)
O12 O 0.0049(3) 0.1977(2) -0.2429(2)
C1 C 0.5998(6) 0.3722(3) 0.1215(4)
H8 H 0.6040 0.3287 0.1316
C2 C 0.6730(6) 0.4014(4) 0.0930(4)
C3 C 0.6662(7) 0.4647(4) 0.0792(4)
H9 H 0.7154 0.4861 0.0609
C4 C 0.5876(7) 0.4966(4) 0.0921(4)
H10 H 0.5819 0.5401 0.0823
C5 C 0.5166(6) 0.4647(3) 0.1194(4)
C6 C 0.4280(6) 0.4955(3) 0.1376(5)
H11 H 0.4474 0.5190 0.1914
H12 H 0.3995 0.5251 0.0916
C7 C 0.3051(5) 0.3183(3) 0.2992(3)
H13 H 0.3497 0.2847 0.3098
C8 C 0.2284(6) 0.3169(3) 0.3344(4)
H14 H 0.2197 0.2827 0.3685
C9 C 0.1627(6) 0.3661(4) 0.3199(5)
H15 H 0.1094 0.3666 0.3447
C10 C 0.2564(5) 0.4136(3) 0.2352(4)
C11 C 0.2821(5) 0.4668(3) 0.1849(4)
H16 H 0.2236 0.4802 0.1415
H17 H 0.3049 0.5025 0.2231
C12 C 0.4999(5) 0.2469(3) -0.0138(4)
H18 H 0.4437 0.2627 -0.0525
C13 C 0.5887(6) 0.2568(3) -0.0296(4)
H19 H 0.5938 0.2784 -0.0791
C14 C 0.6701(6) 0.2349(3) 0.0277(5)
H20 H 0.7323 0.2418 0.0185
C15 C 0.6608(5) 0.2030(3) 0.0985(4)
H21 H 0.7164 0.1883 0.1390
C16 C 0.5695(5) 0.1928(3) 0.1098(3)
C17 C 0.5511(5) 0.1551(3) 0.1819(4)
H22 H 0.5459 0.1105 0.1665
H23 H 0.6054 0.1602 0.2329
C18 C 0.4130(5) 0.1313(3) 0.2434(4)
H24 H 0.4468 0.1298 0.3044
H25 H 0.4152 0.0893 0.2191
C19 C 0.3101(5) 0.1513(3) 0.2323(3)
C20 C 0.2553(5) 0.1366(3) 0.2885(4)
H26 H 0.2828 0.1132 0.3382
C21 C 0.1809(5) 0.2066(3) 0.1468(4)
H27 H 0.1558 0.2317 0.0982
C22 C 0.1604(5) 0.1564(3) 0.2717(4)
H28 H 0.1212 0.1452 0.3084
C23 C 0.1227(5) 0.1927(3) 0.2008(4)
H29 H 0.0582 0.2077 0.1894
C24 C 0.3289(5) 0.1580(3) -0.2037(4)
H30 H 0.3068 0.1953 -0.1838
C25 C 0.3817(6) 0.1619(4) -0.2635(4)
H31 H 0.3948 0.2012 -0.2849
C26 C 0.4153(6) 0.1076(4) -0.2918(4)
H32 H 0.4522 0.1092 -0.3327
C27 C 0.3415(5) 0.0510(3) -0.2002(4)
C28 C 0.3214(6) -0.0079(3) -0.1579(5)
H33 H 0.3039 -0.0413 -0.2008
H34 H 0.3808 -0.0210 -0.1155
C29 C 0.1124(5) 0.0760(3) 0.0423(4)
H35 H 0.1043 0.1198 0.0374
C30 C 0.0686(6) 0.0440(4) 0.0960(4)
H36 H 0.0325 0.0654 0.1287
C31 C 0.0788(6) -0.0194(4) 0.1008(4)
H37 H 0.0485 -0.0425 0.1366
C32 C 0.1321(5) -0.0493(3) 0.0545(4)
H38 H 0.1391 -0.0932 0.0576
C33 C 0.1762(5) -0.0146(3) 0.0023(4)
C34 C 0.1386(4) 0.2080(2) -0.1209(3)
C35 C 0.1498(4) 0.2715(2) -0.1027(3)
H39 H 0.1107 0.3047 -0.1308
C36 C 0.2302(5) 0.2750(2) -0.0349(3)
C37 C 0.2799(5) 0.3277(3) 0.0194(3)
C38 C 0.0683(4) 0.1696(2) -0.1833(3)
C39 C 0.3950(6) 0.0525(4) -0.2608(4)
H40 H 0.4170 0.0149 -0.2802
C40 C 0.2394(6) -0.0428(3) -0.0486(4)
H41 H 0.3048 -0.0505 -0.0117
H42 H 0.2119 -0.0831 -0.0726
C41 C 0.1776(6) 0.4143(3) 0.2678(5)
H43 H 0.1328 0.4477 0.2550
Cu2C Cu -0.07657(5) 0.13030(3) -0.31138(4)
O12C O 0.5049(3) 0.3023(2) 0.2571(2)
Cl1 Cl 0.89125(14) 0.13175(9) 0.26644(13)
O1 O 0.7965(4) 0.1217(3) 0.2759(4)
O2 O 0.9582(5) 0.1397(3) 0.3478(4)
O3 O 0.8901(5) 0.1829(4) 0.2115(7)
O4 O 0.9215(5) 0.0782(3) 0.2268(3)
Cl2 Cl 0.4355(2) 0.21288(9) 0.49917(11)
O5 O 0.3532(4) 0.1788(3) 0.5121(4)
O6 O 0.4379(4) 0.2053(3) 0.4130(3)
O10 O 0.5207(5) 0.1906(3) 0.5559(4)
O11 O 0.4249(6) 0.2765(3) 0.5137(4)
O13 O 0.1267(9) 0.5508(4) 0.0297(5)
H4 H 0.1354 0.5866 0.0157
H5 H 0.0728 0.5510 0.0427
O14 O 0.0811(7) 0.4476(4) -0.0800(6)
H6 H 0.1287 0.4251 -0.0607
H7 H 0.0875 0.4800 -0.0510
loop_
_geom_bond_atom_site_label_1
_geom_bond_atom_site_label_2
_geom_bond_site_symmetry_1
_geom_bond_site_symmetry_2
Cu1 N7 1_555 1_555
Cu2 N1 1_555 1_555
Cu3 N4 1_555 1_555
Cl1 O1 1_555 1_555
Cl2 O5 1_555 1_555
N1 C1 1_555 1_555
N2 Cu2 1_555 1_555
H1 N2 1_555 1_555
N3 Cu2 1_555 1_555
N4 H2 1_555 1_555
N5 Cu3 1_555 1_555
N6 Cu3 1_555 1_555
N7 C24 1_555 1_555
N8 Cu1 1_555 1_555
H3 N8 1_555 1_555
N9 Cu1 1_555 1_555
N10 Cu3 1_555 1_555
N11 Cu1 1_555 1_555
N12 Cu1 1_555 1_555
N13 N12 1_555 1_555
N14 N13 1_555 1_555
O2 Cl1 1_555 1_555
O3 Cl1 1_555 1_555
O4 Cl1 1_555 1_555
O6 Cl2 1_555 1_555
O7 Cu2 1_555 1_555
O8 C37 1_555 1_555
O9 Cu1 1_555 1_555
O10 Cl2 1_555 1_555
O11 Cl2 1_555 1_555
O12 C38 1_555 1_555
O13 H4 1_555 1_555
H5 O13 1_555 1_555
O14 H6 1_555 1_555
H7 O14 1_555 1_555
C1 H8 1_555 1_555
C2 C1 1_555 1_555
C3 C2 1_555 1_555
H9 C3 1_555 1_555
C4 C3 1_555 1_555
H10 C4 1_555 1_555
C5 N1 1_555 1_555
C6 N2 1_555 1_555
H11 C6 1_555 1_555
H12 C6 1_555 1_555
C7 N3 1_555 1_555
H13 C7 1_555 1_555
C8 C7 1_555 1_555
H14 C8 1_555 1_555
C9 C8 1_555 1_555
H15 C9 1_555 1_555
C10 N3 1_555 1_555
C11 N2 1_555 1_555
H16 C11 1_555 1_555
H17 C11 1_555 1_555
C12 N5 1_555 1_555
H18 C12 1_555 1_555
C13 C12 1_555 1_555
H19 C13 1_555 1_555
C14 C13 1_555 1_555
H20 C14 1_555 1_555
C15 C14 1_555 1_555
H21 C15 1_555 1_555
C16 N5 1_555 1_555
C17 N4 1_555 1_555
H22 C17 1_555 1_555
H23 C17 1_555 1_555
C18 N4 1_555 1_555
H24 C18 1_555 1_555
H25 C18 1_555 1_555
C19 N6 1_555 1_555
C20 C19 1_555 1_555
H26 C20 1_555 1_555
C21 N6 1_555 1_555
H27 C21 1_555 1_555
C22 C20 1_555 1_555
H28 C22 1_555 1_555
C23 C21 1_555 1_555
H29 C23 1_555 1_555
C24 H30 1_555 1_555
C25 C24 1_555 1_555
H31 C25 1_555 1_555
C26 C25 1_555 1_555
H32 C26 1_555 1_555
C27 N7 1_555 1_555
C28 N8 1_555 1_555
H33 C28 1_555 1_555
H34 C28 1_555 1_555
C29 N9 1_555 1_555
H35 C29 1_555 1_555
C30 C29 1_555 1_555
H36 C30 1_555 1_555
C31 C30 1_555 1_555
H37 C31 1_555 1_555
C32 C31 1_555 1_555
H38 C32 1_555 1_555
C33 N9 1_555 1_555
C34 N11 1_555 1_555
C35 C34 1_555 1_555
H39 C35 1_555 1_555
C36 N10 1_555 1_555
C37 O7 1_555 1_555
C38 O9 1_555 1_555
C39 C26 1_555 1_555
H40 C39 1_555 1_555
C40 N8 1_555 1_555
H41 C40 1_555 1_555
H42 C40 1_555 1_555
C41 C9 1_555 1_555
H43 C41 1_555 1_555
Cu2C O12 1_555 1_555
O12C Cu2 1_555 1_555
Cu3 N12 1_555 1_555
Cu3 O7 1_555 1_555
N10 N11 1_555 1_555
C4 C5 1_555 1_555
C5 C6 1_555 1_555
C10 C11 1_555 1_555
C10 C41 1_555 1_555
C15 C16 1_555 1_555
C16 C17 1_555 1_555
C18 C19 1_555 1_555
C22 C23 1_555 1_555
C27 C28 1_555 1_555
C27 C39 1_555 1_555
C32 C33 1_555 1_555
C33 C40 1_555 1_555
C34 C38 1_555 1_555
C35 C36 1_555 1_555
C36 C37 1_555 1_555

#END
