
#######################################################################
#
#                 Cambridge Crystallographic Data Centre
#                                CCDC 
#
#######################################################################
#
# If this CIF has been generated from an entry in the Cambridge 
# Structural Database, then it will include bibliographic, chemical, 
# crystal, experimental, refinement or atomic coordinate data resulting 
# from the CCDC's data processing and validation procedures.
#
#######################################################################

data_ULUKAN
_symmetry_cell_setting           monoclinic
_symmetry_space_group_name_H-M   'P 21/c'
_symmetry_Int_Tables_number      14
_space_group_name_Hall           '-P 2ybc'
loop_
_symmetry_equiv_pos_site_id
_symmetry_equiv_pos_as_xyz
1 x,y,z
2 x,1/2-y,1/2+z
3 -x,-y,-z
4 -x,1/2+y,1/2-z
_cell_length_a                   18.2706(10)
_cell_length_b                   11.3400(9)
_cell_length_c                   7.8946(4)
_cell_angle_alpha                90.00
_cell_angle_beta                 93.201(6)
_cell_angle_gamma                90.00
_cell_volume                     1633.12
loop_
_atom_site_label
_atom_site_type_symbol
_atom_site_fract_x
_atom_site_fract_y
_atom_site_fract_z
Ni1 Ni 0.5000 1.0000 0.5000
O1 O 0.45236(6) 0.96875(11) 0.72822(16)
C1 C 0.47934(9) 0.98691(14) 0.8754(2)
C2 C 0.53712(9) 1.06122(14) 0.9588(2)
O2 O 0.58133(7) 1.13752(11) 0.91081(17)
O3 O 0.54428(7) 1.15845(10) 0.58567(17)
H1 H 0.5635 1.1592 0.6820
H2 H 0.5615 1.2118 0.5302
Ni2 Ni 1.0000 0.5000 1.0000
O4 O 1.00168(7) 0.41753(11) 0.76565(17)
C3 C 1.00114(10) 0.46383(16) 0.6217(2)
C4 C 1.02918(11) 0.57170(16) 0.5462(3)
O5 O 1.06475(13) 0.65861(15) 0.6033(2)
O6 O 1.06978(7) 0.63437(11) 0.93636(17)
H3 H 1.0663 0.6951 0.9918
H4 H 1.0678 0.6520 0.8354
N1 N 0.59400(8) 0.91162(12) 0.59696(19)
C5 C 0.71812(9) 0.78566(15) 0.7179(2)
C6 C 0.64837(10) 0.73625(16) 0.7191(2)
H5 H 0.6420 0.6583 0.7599
C7 C 0.58819(9) 0.80220(15) 0.6602(2)
H6 H 0.5408 0.7684 0.6648
C8 C 0.66105(9) 0.95918(15) 0.5956(2)
H7 H 0.6658 1.0365 0.5514
C9 C 0.72406(9) 0.90028(16) 0.6562(3)
H8 H 0.7706 0.9377 0.6554
N2 N 0.90679(8) 0.59251(13) 0.9085(2)
C10 C 0.78382(9) 0.71881(15) 0.7824(2)
C11 C 0.84039(9) 0.77434(15) 0.8768(2)
H9 H 0.8383 0.8567 0.8981
C12 C 0.90004(10) 0.70810(15) 0.9396(2)
H10 H 0.9375 0.7464 1.0073
C13 C 0.85270(10) 0.53905(16) 0.8153(2)
H11 H 0.8573 0.4573 0.7918
C14 C 0.79034(10) 0.59803(16) 0.7519(2)
H12 H 0.7527 0.5568 0.6886
C1B C 0.52066(9) 1.01309(14) 1.1246(2)
O1B O 0.54764(6) 1.03125(11) 1.27178(16)
Ni1B Ni 0.5000 1.0000 1.5000
C2B C 0.46288(9) 0.93878(14) 1.0412(2)
O2B O 0.41867(7) 0.86248(11) 1.08919(17)
O1B_2 O 0.54764(6) 1.03125(11) 0.27178(16)
O3B O 0.45572(7) 0.84155(10) 0.41433(17)
N1B N 0.40600(8) 1.08838(12) 0.40304(19)
O4B O 0.99832(7) 0.58247(11) 1.23435(17)
O6B O 0.93022(7) 0.36563(11) 1.06364(17)
N2B N 1.09321(8) 0.40749(13) 1.0915(2)
C4B C 0.97082(11) 0.42830(16) 0.4538(3)
C3B C 0.99886(10) 0.53617(16) 0.3783(2)
O4B_2 O 0.99832(7) 0.58247(11) 0.23435(17)
O5B O 0.93525(13) 0.34139(15) 0.3967(2)
H1B H 0.4365 0.8408 0.3180
H2B H 0.4385 0.7882 0.4698
C7B C 0.41181(9) 1.19780(15) 0.3398(2)
C8B C 0.33895(9) 1.04082(15) 0.4044(2)
H3B H 0.9337 0.3049 1.0082
H4B H 0.9322 0.3480 1.1646
Ni2_2 Ni 1.0000 0.5000 0.0000
C6B C 0.35163(10) 1.26375(16) 0.2809(2)
H6B H 0.4592 1.2316 0.3352
H7B H 0.3342 0.9635 0.4486
C9B C 0.27594(9) 1.09972(16) 0.3438(3)
C5B C 0.28188(9) 1.21434(15) 0.2821(2)
H5B H 0.3580 1.3417 0.2401
H8B H 0.2294 1.0623 0.3446
C10B C 0.21618(9) 1.28119(15) 0.2176(2)
Ni2_3 Ni 0.0000 1.5000 0.0000
C11B C 0.15961(9) 1.22566(15) 0.1232(2)
C14B C 0.20966(10) 1.40197(16) 0.2481(2)
H9B H 0.1617 1.1433 0.1019
C12B C 0.09996(10) 1.29190(15) 0.0604(2)
C13B C 0.14730(10) 1.46095(16) 0.1847(2)
H12B H 0.2473 1.4432 0.3114
N2B_2 N 0.09321(8) 1.40749(13) 0.0915(2)
H10B H 0.0625 1.2536 -0.0073
H11B H 0.1427 1.5427 0.2082
O7 O 0.6943(2) 0.3333(4) 0.7633(6)
H13 H 0.7109 0.3300 0.6690
H14 H 0.6516 0.3546 0.7470
O8 O 0.74711(16) 0.3676(3) 0.4617(4)
H15 H 0.7555 0.3413 0.3680
H16 H 0.7024 0.3718 0.4651
O9 O 0.77866(19) 0.1683(4) 0.6389(6)
H17 H 0.7681 0.2290 0.5867
H18 H 0.8176 0.1472 0.6018
loop_
_geom_bond_atom_site_label_1
_geom_bond_atom_site_label_2
_geom_bond_site_symmetry_1
_geom_bond_site_symmetry_2
Ni1 O1 1_555 1_555
O1 C1 1_555 1_555
C1 C2 1_555 1_555
C2 O2 1_555 1_555
O3 Ni1 1_555 1_555
H1 O3 1_555 1_555
H2 O3 1_555 1_555
Ni2 O4 1_555 1_555
O4 C3 1_555 1_555
C3 C4 1_555 1_555
C4 O5 1_555 1_555
O6 Ni2 1_555 1_555
H3 O6 1_555 1_555
H4 O6 1_555 1_555
N1 Ni1 1_555 1_555
C5 C6 1_555 1_555
C6 H5 1_555 1_555
C7 N1 1_555 1_555
H6 C7 1_555 1_555
C8 N1 1_555 1_555
H7 C8 1_555 1_555
C9 C5 1_555 1_555
H8 C9 1_555 1_555
N2 Ni2 1_555 1_555
C10 C5 1_555 1_555
C11 C10 1_555 1_555
H9 C11 1_555 1_555
C12 N2 1_555 1_555
H10 C12 1_555 1_555
C13 N2 1_555 1_555
H11 C13 1_555 1_555
C14 C10 1_555 1_555
H12 C14 1_555 1_555
O7 H13 1_555 1_555
H14 O7 1_555 1_555
O8 H15 1_555 1_555
H16 O8 1_555 1_555
O9 H17 1_555 1_555
H18 O9 1_555 1_555
C1B C2 1_555 1_555
O1B C1B 1_555 1_555
Ni1B O1B 1_555 1_555
C2B C1 1_555 1_555
O2B C2B 1_555 1_555
O1B_2 Ni1 1_555 1_555
O3B Ni1 1_555 1_555
N1B Ni1 1_555 1_555
O4B Ni2 1_555 1_555
O6B Ni2 1_555 1_555
N2B Ni2 1_555 1_555
C4B C3 1_555 1_555
C3B C4 1_555 1_555
O4B_2 C3B 1_555 1_555
O5B C4B 1_555 1_555
H1B O3B 1_555 1_555
H2B O3B 1_555 1_555
C7B N1B 1_555 1_555
C8B N1B 1_555 1_555
H3B O6B 1_555 1_555
H4B O6B 1_555 1_555
Ni2_2 O4B_2 1_555 1_555
C6B C7B 1_555 1_555
H6B C7B 1_555 1_555
H7B C8B 1_555 1_555
C9B C8B 1_555 1_555
C5B C6B 1_555 1_555
H5B C6B 1_555 1_555
H8B C9B 1_555 1_555
C10B C5B 1_555 1_555
Ni2_3 N2B_2 1_555 1_555
C11B C10B 1_555 1_555
C14B C10B 1_555 1_555
H9B C11B 1_555 1_555
C12B C11B 1_555 1_555
C13B C14B 1_555 1_555
H12B C14B 1_555 1_555
N2B_2 C12B 1_555 1_555
H10B C12B 1_555 1_555
H11B C13B 1_555 1_555
C6 C7 1_555 1_555
C8 C9 1_555 1_555
C11 C12 1_555 1_555
C13 C14 1_555 1_555
C1B C2B 1_555 1_555
C4B C3B 1_555 1_555
C9B C5B 1_555 1_555
C13B N2B_2 1_555 1_555

#END
