
#######################################################################
#
#                 Cambridge Crystallographic Data Centre
#                                CCDC 
#
#######################################################################
#
# If this CIF has been generated from an entry in the Cambridge 
# Structural Database, then it will include bibliographic, chemical, 
# crystal, experimental, refinement or atomic coordinate data resulting 
# from the CCDC's data processing and validation procedures.
#
#######################################################################

data_ULUKIV
_symmetry_cell_setting           monoclinic
_symmetry_space_group_name_H-M   'P 21/c'
_symmetry_Int_Tables_number      14
_space_group_name_Hall           '-P 2ybc'
loop_
_symmetry_equiv_pos_site_id
_symmetry_equiv_pos_as_xyz
1 x,y,z
2 x,1/2-y,1/2+z
3 -x,-y,-z
4 -x,1/2+y,1/2-z
_cell_length_a                   18.9370(12)
_cell_length_b                   11.3416(8)
_cell_length_c                   8.0545(5)
_cell_angle_alpha                90.00
_cell_angle_beta                 94.167(7)
_cell_angle_gamma                90.00
_cell_volume                     1725.34
loop_
_atom_site_label
_atom_site_type_symbol
_atom_site_fract_x
_atom_site_fract_y
_atom_site_fract_z
Co1 Co 0.5000 1.0000 0.5000
O1 O 0.45569(9) 0.96411(16) 0.7311(2)
C1 C 0.48079(13) 0.9845(2) 0.8775(3)
C2 C 0.53374(13) 1.0649(2) 0.9598(3)
O2 O 0.57332(10) 1.14481(16) 0.9121(2)
O3 O 0.54454(10) 1.15644(15) 0.5865(2)
H1 H 0.5588 1.1604 0.6850
H2 H 0.5577 1.2153 0.5384
Co2 Co 1.0000 0.5000 1.0000
O4 O 1.03576(10) 0.54975(16) 0.7689(2)
C3 C 1.01516(13) 0.5214(2) 0.6228(3)
C4 C 1.03178(13) 0.5673(2) 0.4592(3)
O5 O 1.06993(10) 0.64970(16) 0.4134(2)
O6 O 1.04535(10) 0.65338(15) 1.0894(2)
H3 H 1.0571 0.7111 1.0366
H4 H 1.0553 0.6665 1.1885
N1 N 0.59389(11) 0.91005(19) 0.6054(3)
C5 C 0.71471(13) 0.7868(2) 0.7348(3)
C6 C 0.64777(14) 0.7353(2) 0.7293(3)
H5 H 0.6420 0.6571 0.7684
C7 C 0.58950(13) 0.7999(2) 0.6656(3)
H6 H 0.5441 0.7642 0.6647
C8 C 0.65837(14) 0.9596(2) 0.6122(3)
H7 H 0.6625 1.0377 0.5717
C9 C 0.71953(13) 0.9022(2) 0.6757(4)
H8 H 0.7640 0.9410 0.6789
N2 N 0.90008(11) 0.59499(19) 0.9224(3)
C10 C 0.77879(13) 0.7212(2) 0.7996(3)
C11 C 0.83677(14) 0.7783(2) 0.8823(4)
H9 H 0.8363 0.8614 0.8978
C12 C 0.89499(14) 0.7121(2) 0.9412(4)
H10 H 0.9335 0.7522 0.9984
C13 C 0.84424(14) 0.5408(2) 0.8438(4)
H11 H 0.8463 0.4578 0.8297
C14 C 0.78335(14) 0.5997(3) 0.7818(4)
H12 H 0.7452 0.5570 0.7276
O1B O 0.54431(9) 1.03589(16) 0.2689(2)
O3B O 0.45546(10) 0.84356(15) 0.4135(2)
N1B N 0.40611(11) 1.08995(19) 0.3946(3)
C2B C 0.46626(13) 0.9351(2) 1.0402(3)
C1B C 0.51921(13) 1.0155(2) 1.1225(3)
O4B O 0.96424(10) 0.45025(16) 1.2311(2)
O6B O 0.95465(10) 0.34662(15) 0.9106(2)
N2B N 1.09992(11) 0.40501(19) 1.0776(3)
C4B C 0.96822(13) 0.4327(2) 0.5408(3)
C3B C 0.98484(13) 0.4786(2) 0.3772(3)
H1B H 0.4412 0.8396 0.3150
H2B H 0.4423 0.7847 0.4616
C7B C 0.41050(13) 1.2001(2) 0.3344(3)
C8B C 0.34163(14) 1.0404(2) 0.3878(3)
O2B O 0.42668(10) 0.85519(16) 1.0879(2)
O1B_2 O 0.54431(9) 1.03589(16) 1.2689(2)
H3B H 0.9429 0.2889 0.9634
H4B H 0.9447 0.3335 0.8115
O5B O 0.93007(10) 0.35030(16) 0.5866(2)
O4B_2 O 0.96424(10) 0.45025(16) 0.2311(2)
C6B C 0.35223(14) 1.2647(2) 0.2707(3)
H6B H 0.4559 1.2358 0.3353
H7B H 0.3375 0.9623 0.4283
C9B C 0.28047(13) 1.0978(2) 0.3243(4)
Co1_2 Co 0.5000 1.0000 1.5000
Co2_2 Co 1.0000 0.5000 0.0000
C5B C 0.28529(13) 1.2132(2) 0.2652(3)
H5B H 0.3580 1.3429 0.2316
H8B H 0.2360 1.0590 0.3211
C10B C 0.22121(13) 1.2788(2) 0.2004(3)
C11B C 0.16323(14) 1.2217(2) 0.1177(4)
C14B C 0.21665(14) 1.4003(3) 0.2182(4)
H9B H 0.1637 1.1386 0.1022
C12B C 0.10501(14) 1.2879(2) 0.0588(4)
C13B C 0.15576(14) 1.4592(2) 0.1562(4)
H12B H 0.2548 1.4430 0.2724
N2B_2 N 0.09992(11) 1.40501(19) 0.0776(3)
H10B H 0.0665 1.2478 0.0016
H11B H 0.1537 1.5422 0.1703
Co2_3 Co 0.0000 1.5000 0.0000
O7 O 0.68233(12) 0.3642(2) 0.7515(3)
H13 H 0.6956 0.3378 0.6642
H14 H 0.6407 0.3820 0.7595
O8 O 0.75291(12) 0.2769(3) 0.4881(3)
H15 H 0.7877 0.2217 0.5416
H16 H 0.7265 0.2353 0.4278
O9 O 0.82221(11) 0.1320(2) 0.7225(3)
H17 H 0.8058 0.1519 0.8097
H18 H 0.8647 0.1189 0.7205
loop_
_geom_bond_atom_site_label_1
_geom_bond_atom_site_label_2
_geom_bond_site_symmetry_1
_geom_bond_site_symmetry_2
Co1 O1 1_555 1_555
O1 C1 1_555 1_555
C1 C2 1_555 1_555
C2 O2 1_555 1_555
O3 Co1 1_555 1_555
H1 O3 1_555 1_555
H2 O3 1_555 1_555
Co2 O4 1_555 1_555
O4 C3 1_555 1_555
C3 C4 1_555 1_555
C4 O5 1_555 1_555
O6 Co2 1_555 1_555
H3 O6 1_555 1_555
H4 O6 1_555 1_555
N1 Co1 1_555 1_555
C5 C6 1_555 1_555
C6 H5 1_555 1_555
C7 N1 1_555 1_555
H6 C7 1_555 1_555
C8 N1 1_555 1_555
H7 C8 1_555 1_555
C9 C5 1_555 1_555
H8 C9 1_555 1_555
N2 Co2 1_555 1_555
C10 C5 1_555 1_555
C11 C10 1_555 1_555
H9 C11 1_555 1_555
C12 N2 1_555 1_555
H10 C12 1_555 1_555
C13 N2 1_555 1_555
H11 C13 1_555 1_555
C14 C10 1_555 1_555
H12 C14 1_555 1_555
O7 H13 1_555 1_555
H14 O7 1_555 1_555
O8 H15 1_555 1_555
H16 O8 1_555 1_555
O9 H17 1_555 1_555
H18 O9 1_555 1_555
O1B Co1 1_555 1_555
O3B Co1 1_555 1_555
N1B Co1 1_555 1_555
C2B C1 1_555 1_555
C1B C2 1_555 1_555
O4B Co2 1_555 1_555
O6B Co2 1_555 1_555
N2B Co2 1_555 1_555
C4B C3 1_555 1_555
C3B C4 1_555 1_555
H1B O3B 1_555 1_555
H2B O3B 1_555 1_555
C7B N1B 1_555 1_555
C8B N1B 1_555 1_555
O2B C2B 1_555 1_555
O1B_2 C1B 1_555 1_555
H3B O6B 1_555 1_555
H4B O6B 1_555 1_555
O5B C4B 1_555 1_555
O4B_2 C3B 1_555 1_555
C6B C7B 1_555 1_555
H6B C7B 1_555 1_555
H7B C8B 1_555 1_555
C9B C8B 1_555 1_555
Co1_2 O1B_2 1_555 1_555
Co2_2 O4B_2 1_555 1_555
C5B C6B 1_555 1_555
H5B C6B 1_555 1_555
H8B C9B 1_555 1_555
C10B C5B 1_555 1_555
C11B C10B 1_555 1_555
C14B C10B 1_555 1_555
H9B C11B 1_555 1_555
C12B C11B 1_555 1_555
C13B C14B 1_555 1_555
H12B C14B 1_555 1_555
N2B_2 C12B 1_555 1_555
H10B C12B 1_555 1_555
H11B C13B 1_555 1_555
Co2_3 N2B_2 1_555 1_555
C6 C7 1_555 1_555
C8 C9 1_555 1_555
C11 C12 1_555 1_555
C13 C14 1_555 1_555
C2B C1B 1_555 1_555
C4B C3B 1_555 1_555
C9B C5B 1_555 1_555
C13B N2B_2 1_555 1_555

#END
