
#######################################################################
#
#                 Cambridge Crystallographic Data Centre
#                                CCDC 
#
#######################################################################
#
# If this CIF has been generated from an entry in the Cambridge 
# Structural Database, then it will include bibliographic, chemical, 
# crystal, experimental, refinement or atomic coordinate data resulting 
# from the CCDC's data processing and validation procedures.
#
#######################################################################

data_ULUVUT
_symmetry_cell_setting           monoclinic
_symmetry_space_group_name_H-M   'C c'
_symmetry_Int_Tables_number      9
_space_group_name_Hall           'C -2yc'
loop_
_symmetry_equiv_pos_site_id
_symmetry_equiv_pos_as_xyz
1 x,y,z
2 x,-y,1/2+z
3 1/2+x,1/2+y,z
4 1/2+x,1/2-y,1/2+z
_cell_length_a                   13.330(3)
_cell_length_b                   15.327(3)
_cell_length_c                   8.7796(17)
_cell_angle_alpha                90
_cell_angle_beta                 131.20(2)
_cell_angle_gamma                90
_cell_volume                     1349.64
loop_
_atom_site_label
_atom_site_type_symbol
_atom_site_fract_x
_atom_site_fract_y
_atom_site_fract_z
Zn1 Zn -0.02543(5) 0.86229(2) 0.13267(6)
N1 N 0.1166(4) 0.7736(3) 0.2790(6)
N2 N 0.0892(4) 0.6936(3) 0.1921(7)
N3 N 0.3142(5) 0.8363(4) 0.5804(9)
H1 H 0.2704 0.8770 0.5444
H2 H 0.4017 0.8296 0.6968
N4 N 0.2978(4) 0.6947(3) 0.4600(7)
N5 N 0.1938(5) 0.6472(3) 0.2972(9)
N6 N 0.1224(5) 0.9468(3) 0.0400(8)
N7 N 0.1248(4) 1.0128(3) -0.0452(8)
N8 N -0.0057(4) 0.9344(3) -0.0355(7)
N9 N -0.0003(4) 1.0475(3) -0.1812(7)
N10 N -0.2087(5) 1.0089(4) -0.2802(11)
H3 H -0.2449 1.0610 -0.3085
H4 H -0.2475 0.9719 -0.2631
C1 C 0.2471(4) 0.7720(3) 0.4455(7)
C2 C -0.0774(5) 0.9981(3) -0.1715(7)
Zn1A Zn -0.02543(5) 1.13771(2) -0.36733(6)
Zn1C Zn 0.47457(5) 0.63771(2) 0.63267(6)
N4C N -0.2022(4) 0.8053(3) -0.0400(7)
N9A N -0.0003(4) 0.9525(3) 0.3188(7)
O1 O 0.5781(8) 0.8583(4) 0.0392(14)
N11 N 0.4621(11) 0.7963(5) 0.1099(16)
C3 C 0.5059(11) 0.8653(6) 0.0846(15)
C4 C 0.3687(11) 0.7968(10) 0.1477(18)
H5 H 0.4035 0.7605 0.2623
H6 H 0.2835 0.7748 0.0307
H7 H 0.3585 0.8553 0.1746
C5 C 0.4987(13) 0.7080(6) 0.079(2)
H8 H 0.4194 0.6794 -0.0362
H9 H 0.5405 0.6726 0.1972
H10 H 0.5592 0.7162 0.0557
O2? O 0.467(2) 0.9514(6) 0.111(4)
loop_
_geom_bond_atom_site_label_1
_geom_bond_atom_site_label_2
_geom_bond_site_symmetry_1
_geom_bond_site_symmetry_2
Zn1 N1 1_555 1_555
N1 N2 1_555 1_555
N2 N5 1_555 1_555
N3 H1 1_555 1_555
H2 N3 1_555 1_555
N4 N5 1_555 1_555
N6 N7 1_555 1_555
N7 N9 1_555 1_555
N8 Zn1 1_555 1_555
N9 C2 1_555 1_555
N10 H3 1_555 1_555
H4 N10 1_555 1_555
C1 N1 1_555 1_555
C2 N8 1_555 1_555
O1 C3 1_555 1_555
N11 C3 1_555 1_555
C4 N11 1_555 1_555
H5 C4 1_555 1_555
H6 C4 1_555 1_555
H7 C4 1_555 1_555
C5 N11 1_555 1_555
H8 C5 1_555 1_555
H9 C5 1_555 1_555
H10 C5 1_555 1_555
Zn1A N9 1_555 1_555
Zn1C N4 1_555 1_555
N4C Zn1 1_555 1_555
N9A Zn1 1_555 1_555
N3 C1 1_555 1_555
N4 C1 1_555 1_555
N6 N8 1_555 1_555
N10 C2 1_555 1_555

#END
