
#######################################################################
#
#                 Cambridge Crystallographic Data Centre
#                                CCDC 
#
#######################################################################
#
# If this CIF has been generated from an entry in the Cambridge 
# Structural Database, then it will include bibliographic, chemical, 
# crystal, experimental, refinement or atomic coordinate data resulting 
# from the CCDC's data processing and validation procedures.
#
#######################################################################

data_ULUWOO
_symmetry_cell_setting           monoclinic
_symmetry_space_group_name_H-M   'P 21/n'
_symmetry_Int_Tables_number      14
_space_group_name_Hall           '-P 2yn'
loop_
_symmetry_equiv_pos_site_id
_symmetry_equiv_pos_as_xyz
1 x,y,z
2 1/2-x,1/2+y,1/2-z
3 -x,-y,-z
4 1/2+x,1/2-y,1/2+z
_cell_length_a                   7.5226(15)
_cell_length_b                   22.668(5)
_cell_length_c                   17.349(4)
_cell_angle_alpha                90
_cell_angle_beta                 95.88(3)
_cell_angle_gamma                90
_cell_volume                     2942.83
loop_
_atom_site_label
_atom_site_type_symbol
_atom_site_fract_x
_atom_site_fract_y
_atom_site_fract_z
C1 C -0.1323(12) 0.3592(3) -0.0498(5)
C2 C -0.0984(11) 0.2993(3) -0.0299(5)
H1 H -0.1211 0.2859 0.0200
C3 C -0.0334(11) 0.2598(4) -0.0809(5)
C4 C -0.0007(12) 0.2789(4) -0.1561(5)
H2 H 0.0410 0.2523 -0.1925
C5 C -0.0316(13) 0.3373(4) -0.1743(5)
H3 H -0.0066 0.3507 -0.2240
C6 C -0.0969(11) 0.3778(4) -0.1245(5)
C7 C -0.1218(12) 0.4373(4) -0.1497(5)
H4 H -0.0998 0.4463 -0.2014
C8 C -0.157(2) 0.5422(7) -0.1349(9)
H5 H -0.0310 0.5500 -0.1439
H6 H -0.2310 0.5468 -0.1851
C9 C -0.207(3) 0.5816(9) -0.0857(11)
H7 H -0.3028 0.6063 -0.1125
H8 H -0.1046 0.6077 -0.0695
C10 C -0.3262(12) 0.5896(3) 0.0389(5)
H9 H -0.3465 0.6299 0.0260
C11 C -0.3224(10) 0.5122(3) 0.1410(5)
C12 C -0.3548(11) 0.5712(3) 0.1156(5)
C13 C -0.4109(12) 0.6143(3) 0.1670(5)
H10 H -0.4310 0.6537 0.1495
C14 C -0.4366(12) 0.5998(4) 0.2418(5)
H11 H -0.4761 0.6289 0.2756
C15 C -0.4043(11) 0.5420(3) 0.2681(5)
C16 C -0.3513(10) 0.4994(3) 0.2185(5)
H12 H -0.3335 0.4602 0.2370
C17 C 0.0007(11) 0.1981(3) -0.0578(5)
C18 C -0.4344(11) 0.5259(3) 0.3507(5)
C19 C 0.6151(14) 0.1553(5) 0.1048(7)
H13 H 0.5995 0.1271 0.1464
H14 H 0.6738 0.1910 0.1269
H15 H 0.6891 0.1375 0.0677
C20 C 0.481(2) 0.2130(7) -0.0224(11)
H16 H 0.5834 0.1922 -0.0399
H17 H 0.5166 0.2529 -0.0057
H18 H 0.3849 0.2153 -0.0651
N1 N -0.2746(10) 0.5551(3) -0.0142(4)
N2 N -0.1721(9) 0.4803(3) -0.1074(4)
N3 N -0.2967(11) 0.0383(4) -0.0697(5)
O1 O -0.1892(9) 0.3944(2) 0.0027(3)
O2 O -0.2740(8) 0.4701(2) 0.0969(3)
O3 O -0.0265(8) 0.1807(2) 0.0095(3)
O4 O 0.0648(8) 0.1624(2) -0.1048(3)
O5 O -0.4164(7) 0.4729(2) 0.3711(3)
O6 O -0.4728(9) 0.5682(2) 0.3935(3)
O7 O -0.2552(8) 0.0912(2) -0.0795(4)
O8 O -0.1920(7) 0.0056(2) -0.0255(3)
O9 O -0.4670(14) 0.0116(5) -0.1118(7)
O10 O 0.3275(8) 0.1159(3) 0.0247(4)
S1 S 0.4027(3) 0.17417(12) 0.05658(19)
Ni1 Ni -0.22823(14) 0.47541(4) -0.00592(6)
Dy1 Dy 0.04809(5) 0.080680(15) -0.01760(2)
O5C O 0.0836(7) 0.0271(2) -0.1289(3)
O6A O -0.0272(9) 0.0682(2) 0.1065(3)
O8B O 0.1920(7) -0.0056(2) 0.0255(3)
Dy1C Dy -0.45191(5) 0.419320(15) 0.48240(2)
Dy1A Dy -0.54809(5) 0.580680(15) 0.51760(2)
Dy1B Dy -0.04809(5) -0.080680(15) 0.01760(2)
C21 C -0.109(3) -0.2699(11) -0.1884(13)
H19 H -0.0691 -0.2945 -0.1435
H20 H -0.2229 -0.2852 -0.2132
H21 H -0.1257 -0.2292 -0.1714
C22 C 0.046(2) -0.3480(7) -0.2709(11)
H22 H 0.1087 -0.3565 -0.3165
H23 H -0.0780 -0.3616 -0.2803
H24 H 0.1057 -0.3684 -0.2257
O11 O 0.2254(16) -0.2598(5) -0.2056(6)
S2 S 0.0489(7) -0.27144(17) -0.2537(2)
O12 O 0.091(2) -0.1397(7) 0.2581(8)
O13 O 0.0911(14) 0.1697(5) -0.3967(7)
C23? C -0.218(3) 0.5377(8) -0.1492(11)
C24? C -0.301(2) 0.5778(7) -0.0924(8)
H25? H -0.3028 0.5306 -0.1956
H26? H -0.1082 0.5560 -0.1659
H27? H -0.2465 0.6176 -0.0937
H28? H -0.4304 0.5817 -0.1084
loop_
_geom_bond_atom_site_label_1
_geom_bond_atom_site_label_2
_geom_bond_site_symmetry_1
_geom_bond_site_symmetry_2
C1 C2 1_555 1_555
C2 H1 1_555 1_555
C3 C2 1_555 1_555
C4 C3 1_555 1_555
H2 C4 1_555 1_555
C5 C4 1_555 1_555
H3 C5 1_555 1_555
C6 C1 1_555 1_555
C7 C6 1_555 1_555
H4 C7 1_555 1_555
C8 H5 1_555 1_555
H6 C8 1_555 1_555
C9 C8 1_555 1_555
H7 C9 1_555 1_555
H8 C9 1_555 1_555
C10 H9 1_555 1_555
C11 C12 1_555 1_555
C12 C10 1_555 1_555
C13 C12 1_555 1_555
H10 C13 1_555 1_555
C14 C13 1_555 1_555
H11 C14 1_555 1_555
C15 C14 1_555 1_555
C16 C11 1_555 1_555
H12 C16 1_555 1_555
C17 C3 1_555 1_555
C18 C15 1_555 1_555
C19 H13 1_555 1_555
H14 C19 1_555 1_555
H15 C19 1_555 1_555
C20 H16 1_555 1_555
H17 C20 1_555 1_555
H18 C20 1_555 1_555
C21 H19 1_555 1_555
H20 C21 1_555 1_555
H21 C21 1_555 1_555
C22 H22 1_555 1_555
H23 C22 1_555 1_555
H24 C22 1_555 1_555
N1 C9 1_555 1_555
N2 C7 1_555 1_555
N3 O7 1_555 1_555
O1 C1 1_555 1_555
O2 C11 1_555 1_555
O3 C17 1_555 1_555
O4 C17 1_555 1_555
O5 C18 1_555 1_555
O6 C18 1_555 1_555
O7 Dy1 1_555 1_555
O8 N3 1_555 1_555
O9 N3 1_555 1_555
O10 S1 1_555 1_555
O11 S2 1_555 1_555
S1 C19 1_555 1_555
S2 C21 1_555 1_555
Ni1 N1 1_555 1_555
Dy1 O3 1_555 1_555
O5C Dy1 1_555 1_555
O6A Dy1 1_555 1_555
O8B Dy1 1_555 1_555
Dy1C O5 1_555 1_555
Dy1A O6 1_555 1_555
Dy1B O8 1_555 1_555
C5 C6 1_555 1_555
C8 N2 1_555 1_555
C10 N1 1_555 1_555
C15 C16 1_555 1_555
C20 S1 1_555 1_555
C22 S2 1_555 1_555
N2 Ni1 1_555 1_555
O1 Ni1 1_555 1_555
O2 Ni1 1_555 1_555
O4 Dy1 1_555 1_555
O8 Dy1 1_555 1_555
O10 Dy1 1_555 1_555
O8B Dy1B 1_555 1_555

#END
