
#######################################################################
#
#                 Cambridge Crystallographic Data Centre
#                                CCDC 
#
#######################################################################
#
# If this CIF has been generated from an entry in the Cambridge 
# Structural Database, then it will include bibliographic, chemical, 
# crystal, experimental, refinement or atomic coordinate data resulting 
# from the CCDC's data processing and validation procedures.
#
#######################################################################

data_ULUYAC
_symmetry_cell_setting           orthorhombic
_symmetry_space_group_name_H-M   'P 21 21 21'
_symmetry_Int_Tables_number      19
_space_group_name_Hall           'P 2ac 2ab'
loop_
_symmetry_equiv_pos_site_id
_symmetry_equiv_pos_as_xyz
1 x,y,z
2 1/2-x,-y,1/2+z
3 -x,1/2+y,1/2-z
4 1/2+x,1/2-y,-z
_cell_length_a                   5.9976(4)
_cell_length_b                   7.8816(6)
_cell_length_c                   19.2462(14)
_cell_angle_alpha                90
_cell_angle_beta                 90
_cell_angle_gamma                90
_cell_volume                     909.781
loop_
_atom_site_label
_atom_site_type_symbol
_atom_site_fract_x
_atom_site_fract_y
_atom_site_fract_z
Cu1 Cu 0.22937(5) 0.15113(4) 0.189195(16)
C1 C -0.0556(5) 0.0107(3) 0.08538(16)
C2 C -0.2212(5) -0.0821(3) 0.05110(15)
C3 C -0.2061(5) -0.1103(3) -0.01970(16)
C4 C -0.0238(5) -0.0497(4) -0.05683(16)
C5 C 0.1414(5) 0.0411(4) -0.02309(16)
C6 C 0.1243(5) 0.0716(3) 0.04744(15)
N1 N -0.0599(4) 0.0394(3) 0.15928(13)
N2 N 0.2914(4) 0.1623(3) 0.08633(12)
N3 N 0.1404(4) 0.1693(3) 0.28780(12)
N4 N 0.0475(4) 0.0527(3) 0.31522(13)
N5 N -0.0402(5) -0.0581(3) 0.34371(14)
N6 N 0.5339(4) 0.2416(3) 0.20699(13)
N7 N 0.5800(4) 0.2977(3) 0.26319(13)
N8 N 0.6305(4) 0.3542(3) 0.31617(13)
H1 H -0.327(5) -0.133(4) 0.0755(16)
H2 H -0.313(5) -0.166(4) -0.0411(15)
H3 H -0.016(5) -0.052(4) -0.1081(18)
H4 H 0.255(7) 0.076(5) -0.0449(18)
H5 H -0.171(7) 0.101(5) 0.1704(18)
H6 H -0.076(5) -0.066(5) 0.1765(17)
H7 H 0.427(7) 0.133(5) 0.068(2)
H8 H 0.288(6) 0.253(5) 0.0784(19)
Cu1B Cu -0.22937(5) -0.34887(4) 0.310805(16)
Cu1B_2 Cu 0.77063(5) 0.65113(4) 0.310805(16)
N5B N 0.0402(5) 0.4419(3) 0.15629(14)
N8B N 0.3695(4) -0.1458(3) 0.18383(13)
loop_
_geom_bond_atom_site_label_1
_geom_bond_atom_site_label_2
_geom_bond_site_symmetry_1
_geom_bond_site_symmetry_2
Cu1 N1 1_555 1_555
C1 C2 1_555 1_555
C2 C3 1_555 1_555
C3 C4 1_555 1_555
C4 C5 1_555 1_555
C5 C6 1_555 1_555
C6 C1 1_555 1_555
N1 C1 1_555 1_555
N2 Cu1 1_555 1_555
N3 Cu1 1_555 1_555
N4 N3 1_555 1_555
N5 N4 1_555 1_555
N6 Cu1 1_555 1_555
N7 N6 1_555 1_555
N8 N7 1_555 1_555
H1 C2 1_555 1_555
H2 C3 1_555 1_555
H3 C4 1_555 1_555
H4 C5 1_555 1_555
H5 N1 1_555 1_555
H6 N1 1_555 1_555
H7 N2 1_555 1_555
H8 N2 1_555 1_555
Cu1B N5 1_555 1_555
Cu1B_2 N8 1_555 1_555
N5B Cu1 1_555 1_555
N8B Cu1 1_555 1_555
C6 N2 1_555 1_555

#END
