
#######################################################################
#
#                 Cambridge Crystallographic Data Centre
#                                CCDC 
#
#######################################################################
#
# If this CIF has been generated from an entry in the Cambridge 
# Structural Database, then it will include bibliographic, chemical, 
# crystal, experimental, refinement or atomic coordinate data resulting 
# from the CCDC's data processing and validation procedures.
#
#######################################################################

data_ULUZUX
_symmetry_cell_setting           triclinic
_symmetry_space_group_name_H-M   'P -1'
_symmetry_Int_Tables_number      2
_space_group_name_Hall           '-P 1'
loop_
_symmetry_equiv_pos_site_id
_symmetry_equiv_pos_as_xyz
1 x,y,z
2 -x,-y,-z
_cell_length_a                   10.991(2)
_cell_length_b                   11.310(2)
_cell_length_c                   12.530(2)
_cell_angle_alpha                100.67(3)
_cell_angle_beta                 99.56(3)
_cell_angle_gamma                104.17(3)
_cell_volume                     1447.09
loop_
_atom_site_label
_atom_site_type_symbol
_atom_site_fract_x
_atom_site_fract_y
_atom_site_fract_z
Cu1 Cu -0.08107(4) -0.13508(4) -0.06314(3)
Cu2 Cu 0.08224(4) -0.01580(4) 0.41220(3)
N1 N -0.0314(3) -0.2866(3) -0.1265(3)
C1 C 0.0586(4) -0.2701(5) -0.1952(4)
H1 H 0.0940 -0.1889 -0.2061
C2 C 0.0965(5) -0.3718(7) -0.2473(5)
H2 H 0.1587 -0.3604 -0.2916
C3 C 0.0400(6) -0.4893(6) -0.2318(5)
H3 H 0.0651 -0.5584 -0.2674
C4 C -0.1272(6) -0.6130(5) -0.1379(5)
H4 H -0.1290 -0.6985 -0.1600
C5 C -0.1985(6) -0.5688(5) -0.0721(5)
H5 H -0.2584 -0.6176 -0.0393
N2 N -0.1700(4) -0.4381(4) -0.0597(3)
H6 H -0.2048 -0.3881 -0.0204
C6 C -0.0826(4) -0.4028(4) -0.1163(4)
C7 C -0.0493(5) -0.5121(5) -0.1688(4)
N3 N -0.2653(3) -0.2119(3) -0.1427(2)
C8 C -0.2941(4) -0.2694(3) -0.2517(3)
H7 H -0.2256 -0.2799 -0.2863
C9 C -0.4187(4) -0.3141(4) -0.3161(3)
H8 H -0.4337 -0.3542 -0.3927
C10 C -0.5214(4) -0.3003(4) -0.2688(3)
H9 H -0.6070 -0.3304 -0.3121
C11 C -0.5697(4) -0.2093(4) -0.0765(4)
H10 H -0.6605 -0.2243 -0.0907
C12 C -0.4862(4) -0.1540(4) 0.0229(3)
H11 H -0.5093 -0.1237 0.0904
N4 N -0.3615(3) -0.1483(3) 0.0110(2)
H12 H -0.2915 -0.1163 0.0645
C13 C -0.3657(3) -0.2005(3) -0.0972(3)
C14 C -0.4960(3) -0.2413(4) -0.1565(3)
N5 N 0.2358(3) -0.0775(4) 0.3993(3)
C15 C 0.3401(4) -0.0061(4) 0.3645(3)
H13 H 0.3345 0.0723 0.3502
C16 C 0.4480(5) -0.0402(5) 0.3498(4)
H14 H 0.5150 0.0128 0.3269
C17 C 0.4565(6) -0.1565(6) 0.3697(4)
H15 H 0.5303 -0.1833 0.3602
C18 C 0.3290(6) -0.3495(5) 0.4294(4)
H16 H 0.3821 -0.4044 0.4281
C19 C 0.2134(6) -0.3715(5) 0.4571(4)
H17 H 0.1723 -0.4452 0.4779
N6 N 0.1626(4) -0.2709(3) 0.4509(3)
H18 H 0.0886 -0.2645 0.4658
C20 C 0.2475(4) -0.1850(4) 0.4179(3)
C21 C 0.3576(5) -0.2319(5) 0.4030(4)
N7 N -0.0970(3) -0.1821(3) 0.1173(3)
N8 N -0.0250(3) -0.0995(3) 0.1869(2)
N9 N 0.0491(3) -0.0105(3) 0.2522(3)
N10 N 0.1025(3) -0.0333(3) 0.0001(2)
N11 N 0.1828(3) -0.0779(3) 0.0480(3)
N12 N 0.2559(4) -0.1163(4) 0.0900(4)
N13 N -0.0759(3) 0.0376(3) 0.4324(2)
N14 N -0.1664(3) 0.0198(3) 0.3557(3)
N15 N -0.2489(4) 0.0042(5) 0.2823(3)
Cl1 Cl 0.19729(10) 0.29601(9) 0.54941(8)
O1 O 0.2275(3) 0.1904(3) 0.4857(2)
O2 O 0.3105(3) 0.4005(3) 0.5869(3)
O3 O 0.0997(4) 0.3291(3) 0.4786(3)
O4 O 0.1473(4) 0.2594(3) 0.6415(3)
Cu1A Cu 0.08107(4) 0.13508(4) 0.06314(3)
Cu2A Cu -0.08224(4) 0.01580(4) 0.58780(3)
N10A N -0.1025(3) 0.0333(3) -0.0001(2)
N13A N 0.0759(3) -0.0376(3) 0.5676(2)
O5 O -0.3258(5) -0.4044(5) 0.1227(4)
H19 H -0.3314 -0.4632 0.0685
C22 C -0.4463(7) -0.4150(8) 0.1474(6)
H20 H -0.5095 -0.4883 0.0956
H21 H -0.4719 -0.3392 0.1402
H22 H -0.4425 -0.4250 0.2238
loop_
_geom_bond_atom_site_label_1
_geom_bond_atom_site_label_2
_geom_bond_site_symmetry_1
_geom_bond_site_symmetry_2
Cu1 N1 1_555 1_555
Cu2 N5 1_555 1_555
N1 C1 1_555 1_555
C1 H1 1_555 1_555
C2 C1 1_555 1_555
H2 C2 1_555 1_555
C3 C2 1_555 1_555
H3 C3 1_555 1_555
C4 H4 1_555 1_555
C5 C4 1_555 1_555
H5 C5 1_555 1_555
N2 C5 1_555 1_555
H6 N2 1_555 1_555
C6 N1 1_555 1_555
C7 C3 1_555 1_555
N3 Cu1 1_555 1_555
C8 N3 1_555 1_555
H7 C8 1_555 1_555
C9 C8 1_555 1_555
H8 C9 1_555 1_555
C10 C9 1_555 1_555
H9 C10 1_555 1_555
C11 H10 1_555 1_555
C12 C11 1_555 1_555
H11 C12 1_555 1_555
N4 C12 1_555 1_555
H12 N4 1_555 1_555
C13 N3 1_555 1_555
C14 C10 1_555 1_555
N5 C15 1_555 1_555
C15 H13 1_555 1_555
C16 C15 1_555 1_555
H14 C16 1_555 1_555
C17 C16 1_555 1_555
H15 C17 1_555 1_555
C18 H16 1_555 1_555
C19 C18 1_555 1_555
H17 C19 1_555 1_555
N6 C19 1_555 1_555
H18 N6 1_555 1_555
C20 N5 1_555 1_555
C21 C17 1_555 1_555
N7 Cu1 1_555 1_555
N8 N7 1_555 1_555
N9 Cu2 1_555 1_555
N10 Cu1 1_555 1_555
N11 N10 1_555 1_555
N12 N11 1_555 1_555
N13 Cu2 1_555 1_555
N14 N13 1_555 1_555
N15 N14 1_555 1_555
Cl1 O1 1_555 1_555
O1 Cu2 1_555 1_555
O2 Cl1 1_555 1_555
O3 Cl1 1_555 1_555
O4 Cl1 1_555 1_555
O5 H19 1_555 1_555
C22 O5 1_555 1_555
H20 C22 1_555 1_555
H21 C22 1_555 1_555
H22 C22 1_555 1_555
Cu1A N10 1_555 1_555
Cu2A N13 1_555 1_555
N10A Cu1 1_555 1_555
N13A Cu2 1_555 1_555
C4 C7 1_555 1_555
N2 C6 1_555 1_555
C6 C7 1_555 1_555
C11 C14 1_555 1_555
N4 C13 1_555 1_555
C13 C14 1_555 1_555
C18 C21 1_555 1_555
N6 C20 1_555 1_555
C20 C21 1_555 1_555
N8 N9 1_555 1_555
Cu1A N10A 1_555 1_555
Cu2A N13A 1_555 1_555

#END
