
#######################################################################
#
#                 Cambridge Crystallographic Data Centre
#                                CCDC 
#
#######################################################################
#
# If this CIF has been generated from an entry in the Cambridge 
# Structural Database, then it will include bibliographic, chemical, 
# crystal, experimental, refinement or atomic coordinate data resulting 
# from the CCDC's data processing and validation procedures.
#
#######################################################################

data_UMAGIZ
_symmetry_cell_setting           triclinic
_symmetry_space_group_name_H-M   'P -1'
_symmetry_Int_Tables_number      2
_space_group_name_Hall           '-P 1'
loop_
_symmetry_equiv_pos_site_id
_symmetry_equiv_pos_as_xyz
1 x,y,z
2 -x,-y,-z
_cell_length_a                   14.8013(10)
_cell_length_b                   14.8132(10)
_cell_length_c                   15.2203(10)
_cell_angle_alpha                116.617(2)
_cell_angle_beta                 96.330(2)
_cell_angle_gamma                111.626(2)
_cell_volume                     2616.78
loop_
_atom_site_label
_atom_site_type_symbol
_atom_site_fract_x
_atom_site_fract_y
_atom_site_fract_z
O12 O 0.3201(6) 0.1968(7) 0.8063(6)
O13 O 0.3113(9) 0.4826(10) 0.1972(9)
O14 O 0.249(3) 0.440(3) 0.958(3)
O15 O 0.472(2) 0.450(2) 0.213(2)
N1 N 1.2303(4) 0.8752(4) 0.6463(4)
N2 N 1.3378(4) 0.8935(5) 0.5565(4)
N3 N 1.0064(4) 0.8070(4) 0.6365(4)
N4 N 0.8451(4) 0.6759(4) 0.5365(4)
N5 N 0.4731(4) 0.2901(5) 0.4117(4)
N6 N 0.3225(4) 0.1361(5) 0.3000(4)
N7 N 0.7946(4) 0.1319(4) 0.8523(4)
N8 N 0.8401(4) 0.2880(5) 0.8450(5)
N9 N 1.1062(4) 0.6547(5) 0.8243(4)
N10 N 1.1484(4) 0.7931(4) 0.7902(4)
O1 O 1.3801(3) 1.2151(4) 1.0840(4)
O2 O 0.2723(4) -0.0034(4) 0.0494(4)
O3 O 1.2573(3) 1.0275(3) 0.8840(3)
O4 O 0.1853(3) 0.1100(4) 0.1205(3)
O5 O 1.1640(3) 1.1464(3) 0.9848(3)
O6 O 1.1377(3) 1.2961(3) 1.1910(3)
O7 O 0.9933(3) 1.0722(4) 1.1229(4)
O8 O 1.0006(3) 1.1451(4) 0.9870(3)
O9 O 1.0863(3) 1.2253(4) 0.8637(4)
O10 O 0.0830(3) -0.0185(3) 0.2145(3)
O11 O 1.1103(3) 1.0339(3) 0.7733(3)
C1 C 1.3089(5) 0.9465(6) 0.6393(5)
H1 H 1.3418 1.0253 0.6858
C2 C 1.2045(5) 0.7679(5) 0.5626(5)
C3 C 1.1285(6) 0.6593(6) 0.5302(6)
H2 H 1.0831 0.6495 0.5669
C4 C 1.1215(6) 0.5663(6) 0.4431(6)
H3 H 1.0704 0.4934 0.4206
C5 C 1.1890(6) 0.5793(6) 0.3881(6)
H4 H 1.1825 0.5146 0.3298
C6 C 1.2647(6) 0.6841(6) 0.4172(5)
H5 H 1.3098 0.6924 0.3800
C7 C 1.2716(5) 0.7788(5) 0.5054(5)
C8 C 1.4213(5) 0.9484(6) 0.5280(5)
C9 C 1.4005(5) 0.9410(7) 0.4332(6)
H6 H 1.3331 0.9013 0.3884
C10 C 1.5201(6) 1.0076(7) 0.5935(6)
H7 H 1.5334 1.0129 0.6573
C11 C 0.9207(5) 0.7273(5) 0.6258(5)
H8 H 0.9129 0.7081 0.6759
C12 C 0.9843(5) 0.8111(5) 0.5466(5)
C13 C 1.0429(6) 0.8828(6) 0.5176(6)
H9 H 1.1102 0.9392 0.5594
C14 C 0.9983(6) 0.8679(7) 0.4244(6)
H10 H 1.0365 0.9153 0.4033
C15 C 0.8977(6) 0.7840(7) 0.3610(6)
H11 H 0.8705 0.7759 0.2983
C16 C 0.8377(6) 0.7128(6) 0.3898(6)
H12 H 0.7703 0.6570 0.3481
C17 C 0.8824(5) 0.7282(5) 0.4829(5)
C18 C 0.7472(5) 0.5795(6) 0.5027(5)
C19 C 0.6904(5) 0.5838(6) 0.5699(5)
H13 H 0.7131 0.6510 0.6339
C20 C 0.6007(5) 0.4887(6) 0.5419(5)
H14 H 0.5623 0.4908 0.5865
C21 C 0.5683(5) 0.3895(6) 0.4460(5)
C22 C 0.6250(5) 0.3862(6) 0.3793(6)
H15 H 0.6026 0.3197 0.3149
C23 C 0.7139(6) 0.4813(7) 0.4087(5)
H16 H 0.7524 0.4792 0.3641
C24 C 0.4066(5) 0.2199(6) 0.3124(5)
H17 H 0.4195 0.2302 0.2582
C25 C 0.4269(5) 0.2501(6) 0.4709(5)
C26 C 0.4590(5) 0.2846(6) 0.5742(6)
H18 H 0.5224 0.3471 0.6205
C27 C 0.3920(6) 0.2215(7) 0.6050(6)
H19 H 0.4114 0.2409 0.6738
C28 C 0.2954(6) 0.1290(7) 0.5359(6)
H20 H 0.2511 0.0906 0.5606
C29 C 0.2649(6) 0.0937(6) 0.4328(6)
H21 H 0.2013 0.0313 0.3867
C30 C 0.3325(5) 0.1548(6) 0.3998(5)
C31 C 0.8658(5) 0.2096(5) 0.8458(5)
H22 H 0.9287 0.2113 0.8420
C32 C 0.7122(5) 0.1580(5) 0.8565(5)
C33 C 0.6178(5) 0.1041(6) 0.8638(5)
H23 H 0.5996 0.0398 0.8687
C34 C 0.5515(5) 0.1491(6) 0.8636(6)
H24 H 0.4874 0.1155 0.8694
C35 C 0.5795(5) 0.2447(6) 0.8549(6)
H25 H 0.5323 0.2718 0.8529
C36 C 0.6738(5) 0.3003(6) 0.8491(6)
H26 H 0.6917 0.3645 0.8440
C37 C 0.7406(5) 0.2565(5) 0.8512(5)
C38 C 0.9068(5) 0.3836(5) 0.8418(6)
C39 C 0.9111(5) 0.4886(5) 0.8972(5)
H27 H 0.8686 0.4988 0.9373
C40 C 0.9781(5) 0.5783(6) 0.8932(5)
H28 H 0.9816 0.6499 0.9310
C41 C 1.0408(5) 0.5624(5) 0.8328(5)
C42 C 1.0374(6) 0.4575(6) 0.7789(6)
H29 H 1.0813 0.4477 0.7404
C43 C 0.9698(6) 0.3681(6) 0.7817(6)
H30 H 0.9659 0.2963 0.7433
C44 C 1.0756(5) 0.7149(5) 0.7960(5)
H31 H 1.0078 0.7021 0.7816
C45 C 1.2125(5) 0.6989(5) 0.8411(5)
C46 C 1.2853(5) 0.6729(6) 0.8736(6)
H32 H 1.2672 0.6131 0.8853
C47 C 1.3844(5) 0.7389(6) 0.8876(5)
H33 H 1.4354 0.7235 0.9089
C48 C 1.4120(5) 0.8292(6) 0.8707(5)
H34 H 1.4810 0.8735 0.8828
C49 C 1.3406(5) 0.8544(6) 0.8372(5)
H35 H 1.3595 0.9143 0.8256
C50 C 1.2375(5) 0.7864(5) 0.8209(5)
Cu1 Cu 1.13815(5) 0.90898(6) 0.75747(6)
Cu2 Cu 0.19563(6) -0.00089(6) 0.15112(6)
Mo1 Mo 1.26460(4) 1.09433(4) 1.01578(4)
Mo2 Mo 1.08583(4) 1.15580(4) 1.09182(4)
Mo3 Mo 1.05009(4) 1.09829(4) 0.85734(4)
C10A C 1.4799(6) 0.9924(7) 0.4065(6)
C8A C 1.5787(5) 1.0516(6) 0.4720(5)
N2A N 1.6622(4) 1.1065(5) 0.4435(4)
C1A C 1.6911(5) 1.0535(6) 0.3607(5)
N1A N 1.7697(4) 1.1248(4) 0.3537(4)
C2A C 1.7955(5) 1.2321(5) 0.4374(5)
C7A C 1.7284(5) 1.2212(5) 0.4946(5)
C6A C 1.7353(6) 1.3159(6) 0.5828(5)
C5A C 1.8110(6) 1.4207(6) 0.6119(6)
C4A C 1.8785(6) 1.4337(6) 0.5569(6)
C3A C 1.8715(6) 1.3407(6) 0.4698(6)
H2A H 1.9169 1.3505 0.4331
H3A H 1.9296 1.5066 0.5794
H4A H 1.8175 1.4854 0.6702
H5A H 1.6902 1.3076 0.6200
H1A H 1.6582 0.9747 0.3142
C9A C 1.5995(5) 1.0590(7) 0.5668(6)
H6A H 1.6669 1.0987 0.6116
H7A H 1.4666 0.9871 0.3427
Cu1A Cu 1.86185(5) 1.09102(6) 0.24253(6)
Cu2A Cu 0.80437(6) 0.00089(6) 0.84888(6)
N7A N 0.2054(4) -0.1319(4) 0.1477(4)
N8A N 0.1599(4) -0.2880(5) 0.1550(5)
N9A N -0.1062(4) -0.6547(5) 0.1757(4)
N10A N -0.1484(4) -0.7931(4) 0.2098(4)
C31A C 0.1342(5) -0.2096(5) 0.1542(5)
H22A H 0.0713 -0.2113 0.1580
C32A C 0.2878(5) -0.1580(5) 0.1435(5)
C33A C 0.3822(5) -0.1041(6) 0.1362(5)
H23A H 0.4004 -0.0398 0.1313
C34A C 0.4485(5) -0.1491(6) 0.1364(6)
H24A H 0.5126 -0.1155 0.1306
C35A C 0.4205(5) -0.2447(6) 0.1451(6)
H25A H 0.4677 -0.2718 0.1471
C36A C 0.3262(5) -0.3003(6) 0.1509(6)
H26A H 0.3083 -0.3645 0.1560
C37A C 0.2594(5) -0.2565(5) 0.1488(5)
C38A C 0.0932(5) -0.3836(5) 0.1582(6)
C39A C 0.0889(5) -0.4886(5) 0.1028(5)
H27A H 0.1314 -0.4988 0.0627
C40A C 0.0219(5) -0.5783(6) 0.1068(5)
H28A H 0.0184 -0.6499 0.0690
C41A C -0.0408(5) -0.5624(5) 0.1672(5)
C42A C -0.0374(6) -0.4575(6) 0.2211(6)
H29A H -0.0813 -0.4477 0.2596
C43A C 0.0302(6) -0.3681(6) 0.2183(6)
H30A H 0.0341 -0.2963 0.2567
C44A C -0.0756(5) -0.7149(5) 0.2040(5)
H31A H -0.0078 -0.7021 0.2184
C45A C -0.2125(5) -0.6989(5) 0.1589(5)
C46A C -0.2853(5) -0.6729(6) 0.1264(6)
H32A H -0.2672 -0.6131 0.1147
C47A C -0.3844(5) -0.7389(6) 0.1124(5)
H33A H -0.4354 -0.7235 0.0911
C48A C -0.4120(5) -0.8292(6) 0.1293(5)
H34A H -0.4810 -0.8735 0.1172
C49A C -0.3406(5) -0.8544(6) 0.1628(5)
H35A H -0.3595 -0.9143 0.1744
C50A C -0.2375(5) -0.7864(5) 0.1791(5)
O2_2 O 1.2723(4) 0.9966(4) 1.0494(4)
O4_2 O 1.1853(3) 1.1100(4) 1.1205(3)
O10A O 0.9170(3) 1.0185(3) 0.7855(3)
O3A O 1.7427(3) 0.9725(3) 0.1160(3)
O11A O 1.8897(3) 0.9661(3) 0.2267(3)
N3A N 1.9936(4) 1.1930(4) 0.3635(4)
N4A N 2.1549(4) 1.3241(4) 0.4635(4)
N5A N 2.5269(4) 1.7099(5) 0.5883(4)
N6A N 2.6775(4) 1.8639(5) 0.7000(4)
C11A C 2.0793(5) 1.2727(5) 0.3742(5)
H8A H 2.0871 1.2919 0.3241
C12A C 2.0157(5) 1.1889(5) 0.4534(5)
C13A C 1.9571(6) 1.1172(6) 0.4824(6)
H9A H 1.8898 1.0608 0.4406
C14A C 2.0017(6) 1.1321(7) 0.5756(6)
H10A H 1.9635 1.0847 0.5967
C15A C 2.1023(6) 1.2160(7) 0.6390(6)
H11A H 2.1295 1.2241 0.7017
C16A C 2.1623(6) 1.2872(6) 0.6102(6)
H12A H 2.2297 1.3430 0.6519
C17A C 2.1176(5) 1.2718(5) 0.5171(5)
C18A C 2.2528(5) 1.4205(6) 0.4973(5)
C19A C 2.3096(5) 1.4162(6) 0.4301(5)
H13A H 2.2869 1.3490 0.3661
C20A C 2.3993(5) 1.5113(6) 0.4581(5)
H14A H 2.4377 1.5092 0.4135
C21A C 2.4317(5) 1.6105(6) 0.5540(5)
C22A C 2.3750(5) 1.6138(6) 0.6207(6)
H15A H 2.3974 1.6803 0.6851
C23A C 2.2861(6) 1.5187(7) 0.5913(5)
H16A H 2.2476 1.5208 0.6359
C24A C 2.5934(5) 1.7801(6) 0.6876(5)
H17A H 2.5805 1.7698 0.7418
C25A C 2.5731(5) 1.7499(6) 0.5291(5)
C26A C 2.5410(5) 1.7154(6) 0.4258(6)
H18A H 2.4776 1.6529 0.3795
C27A C 2.6080(6) 1.7785(7) 0.3950(6)
H19A H 2.5886 1.7591 0.3262
C28A C 2.7046(6) 1.8710(7) 0.4641(6)
H20A H 2.7489 1.9094 0.4394
C29A C 2.7351(6) 1.9063(6) 0.5672(6)
H21A H 2.7987 1.9687 0.6133
C30A C 2.6675(5) 1.8452(6) 0.6002(5)
Mo1A Mo 1.73540(4) 0.90567(4) -0.01578(4)
Mo2_2 Mo 0.08583(4) 0.15580(4) 0.09182(4)
Mo3A Mo 1.94991(4) 0.90171(4) 0.14266(4)
O1A O 1.6199(3) 0.7849(4) -0.0840(4)
O5A O 1.8360(3) 0.8536(3) 0.0152(3)
O6_2 O 0.1377(3) 0.2961(3) 0.1910(3)
O7_2 O -0.0067(3) 0.0722(4) 0.1229(4)
O8_2 O 0.0006(3) 0.1451(4) -0.0130(3)
O9A O 1.9137(3) 0.7747(4) 0.1363(4)
Mo1_2 Mo 0.26460(4) 0.09433(4) 0.01578(4)
Mo3A_2 Mo -0.05009(4) -0.09829(4) 0.14266(4)
N10A_2 N 1.8516(4) 1.2069(4) 0.2098(4)
O2A O 0.7277(4) 0.0034(4) 0.9506(4)
O4A O 0.8147(3) -0.1100(4) 0.8795(3)
O10A_2 O 0.9170(3) 0.0185(3) 0.7855(3)
N6A_2 N 0.6775(4) -0.1361(5) 0.7000(4)
Cu1A_2 Cu -0.13815(5) -0.90898(6) 0.24253(6)
Cu2_2 Cu 1.19563(6) 0.99911(6) 1.15112(6)
Cu2A_2 Cu 0.80437(6) 1.00089(6) 0.84888(6)
Cu2A_3 Cu 2.80437(6) 2.00089(6) 0.84888(6)
O2A_2 O 1.7277(4) 1.0034(4) -0.0494(4)
O4A_2 O 1.8147(3) 0.8900(4) -0.1205(3)
O5_2 O 0.1640(3) 0.1464(3) -0.0152(3)
O8A O 1.9994(3) 0.8549(4) 0.0130(3)
O10_2 O 2.0830(3) 0.9815(3) 0.2145(3)
Mo2A Mo 1.91417(4) 0.84420(4) -0.09182(4)
Mo3_2 Mo 0.05009(4) 0.09829(4) -0.14266(4)
loop_
_geom_bond_atom_site_label_1
_geom_bond_atom_site_label_2
_geom_bond_site_symmetry_1
_geom_bond_site_symmetry_2
N1 C1 1_555 1_555
N2 C1 1_555 1_555
N3 C11 1_555 1_555
N4 C11 1_555 1_555
N5 C21 1_555 1_555
N6 C24 1_555 1_555
N7 C31 1_555 1_555
N8 C31 1_555 1_555
N9 C41 1_555 1_555
N10 C44 1_555 1_555
O1 Mo1 1_555 1_555
O2 Cu2 1_555 1_555
O3 Cu1 1_555 1_555
O4 Cu2 1_555 1_555
O5 Mo1 1_555 1_555
O6 Mo2 1_555 1_555
O7 Mo2 1_555 1_555
O8 Mo2 1_555 1_555
O9 Mo3 1_555 1_555
O10 Cu2 1_555 1_555
O11 Cu1 1_555 1_555
C1 H1 1_555 1_555
C2 N1 1_555 1_555
C3 C2 1_555 1_555
H2 C3 1_555 1_555
C4 C3 1_555 1_555
H3 C4 1_555 1_555
C5 C4 1_555 1_555
H4 C5 1_555 1_555
C6 C5 1_555 1_555
H5 C6 1_555 1_555
C7 N2 1_555 1_555
C8 N2 1_555 1_555
C9 C8 1_555 1_555
H6 C9 1_555 1_555
C10 C8 1_555 1_555
H7 C10 1_555 1_555
C11 H8 1_555 1_555
C12 N3 1_555 1_555
C13 C12 1_555 1_555
H9 C13 1_555 1_555
C14 C13 1_555 1_555
H10 C14 1_555 1_555
C15 C14 1_555 1_555
H11 C15 1_555 1_555
C16 C15 1_555 1_555
H12 C16 1_555 1_555
C17 N4 1_555 1_555
C18 N4 1_555 1_555
C19 C18 1_555 1_555
H13 C19 1_555 1_555
C20 C19 1_555 1_555
H14 C20 1_555 1_555
C21 C20 1_555 1_555
C22 C21 1_555 1_555
H15 C22 1_555 1_555
C23 C18 1_555 1_555
H16 C23 1_555 1_555
C24 N5 1_555 1_555
H17 C24 1_555 1_555
C25 N5 1_555 1_555
C26 C25 1_555 1_555
H18 C26 1_555 1_555
C27 C26 1_555 1_555
H19 C27 1_555 1_555
C28 C27 1_555 1_555
H20 C28 1_555 1_555
C29 C28 1_555 1_555
H21 C29 1_555 1_555
C30 N6 1_555 1_555
C31 H22 1_555 1_555
C32 N7 1_555 1_555
C33 C32 1_555 1_555
H23 C33 1_555 1_555
C34 C33 1_555 1_555
H24 C34 1_555 1_555
C35 C34 1_555 1_555
H25 C35 1_555 1_555
C36 C35 1_555 1_555
H26 C36 1_555 1_555
C37 N8 1_555 1_555
C38 N8 1_555 1_555
C39 C38 1_555 1_555
H27 C39 1_555 1_555
C40 C39 1_555 1_555
H28 C40 1_555 1_555
C41 C40 1_555 1_555
C42 C41 1_555 1_555
H29 C42 1_555 1_555
C43 C38 1_555 1_555
H30 C43 1_555 1_555
C44 N9 1_555 1_555
H31 C44 1_555 1_555
C45 N9 1_555 1_555
C46 C45 1_555 1_555
H32 C46 1_555 1_555
C47 C46 1_555 1_555
H33 C47 1_555 1_555
C48 C47 1_555 1_555
H34 C48 1_555 1_555
C49 C48 1_555 1_555
H35 C49 1_555 1_555
C50 N10 1_555 1_555
Cu1 N1 1_555 1_555
Cu2 N6 1_555 1_555
Mo1 O3 1_555 1_555
Mo2 O5 1_555 1_555
Mo3 O5 1_555 1_555
C10A C9 1_555 1_555
C8A C10A 1_555 1_555
N2A C8A 1_555 1_555
C1A N2A 1_555 1_555
N1A C1A 1_555 1_555
C2A N1A 1_555 1_555
C7A N2A 1_555 1_555
C6A C7A 1_555 1_555
C5A C6A 1_555 1_555
C4A C5A 1_555 1_555
C3A C2A 1_555 1_555
H2A C3A 1_555 1_555
H3A C4A 1_555 1_555
H4A C5A 1_555 1_555
H5A C6A 1_555 1_555
H1A C1A 1_555 1_555
C9A C10 1_555 1_555
H6A C9A 1_555 1_555
H7A C10A 1_555 1_555
Cu1A N1A 1_555 1_555
Cu2A N7 1_555 1_555
N7A Cu2 1_555 1_555
N8A C31A 1_555 1_555
N9A C41A 1_555 1_555
N10A C44A 1_555 1_555
C31A N7A 1_555 1_555
H22A C31A 1_555 1_555
C32A N7A 1_555 1_555
C33A C32A 1_555 1_555
H23A C33A 1_555 1_555
C34A C33A 1_555 1_555
H24A C34A 1_555 1_555
C35A C34A 1_555 1_555
H25A C35A 1_555 1_555
C36A C35A 1_555 1_555
H26A C36A 1_555 1_555
C37A N8A 1_555 1_555
C38A N8A 1_555 1_555
C39A C38A 1_555 1_555
H27A C39A 1_555 1_555
C40A C39A 1_555 1_555
H28A C40A 1_555 1_555
C41A C40A 1_555 1_555
C42A C41A 1_555 1_555
H29A C42A 1_555 1_555
C43A C38A 1_555 1_555
H30A C43A 1_555 1_555
C44A N9A 1_555 1_555
H31A C44A 1_555 1_555
C45A N9A 1_555 1_555
C46A C45A 1_555 1_555
H32A C46A 1_555 1_555
C47A C46A 1_555 1_555
H33A C47A 1_555 1_555
C48A C47A 1_555 1_555
H34A C48A 1_555 1_555
C49A C48A 1_555 1_555
H35A C49A 1_555 1_555
C50A N10A 1_555 1_555
O2_2 Mo1 1_555 1_555
O4_2 Mo1 1_555 1_555
O10A Mo3 1_555 1_555
O3A Cu1A 1_555 1_555
O11A Cu1A 1_555 1_555
N3A Cu1A 1_555 1_555
N4A C11A 1_555 1_555
N5A C21A 1_555 1_555
N6A C24A 1_555 1_555
C11A N3A 1_555 1_555
H8A C11A 1_555 1_555
C12A N3A 1_555 1_555
C13A C12A 1_555 1_555
H9A C13A 1_555 1_555
C14A C13A 1_555 1_555
H10A C14A 1_555 1_555
C15A C14A 1_555 1_555
H11A C15A 1_555 1_555
C16A C15A 1_555 1_555
H12A C16A 1_555 1_555
C17A N4A 1_555 1_555
C18A N4A 1_555 1_555
C19A C18A 1_555 1_555
H13A C19A 1_555 1_555
C20A C19A 1_555 1_555
H14A C20A 1_555 1_555
C21A C20A 1_555 1_555
C22A C21A 1_555 1_555
H15A C22A 1_555 1_555
C23A C18A 1_555 1_555
H16A C23A 1_555 1_555
C24A N5A 1_555 1_555
H17A C24A 1_555 1_555
C25A N5A 1_555 1_555
C26A C25A 1_555 1_555
H18A C26A 1_555 1_555
C27A C26A 1_555 1_555
H19A C27A 1_555 1_555
C28A C27A 1_555 1_555
H20A C28A 1_555 1_555
C29A C28A 1_555 1_555
H21A C29A 1_555 1_555
C30A N6A 1_555 1_555
Mo1A O3A 1_555 1_555
Mo2_2 O4 1_555 1_555
Mo3A O11A 1_555 1_555
O1A Mo1A 1_555 1_555
O5A Mo1A 1_555 1_555
O6_2 Mo2_2 1_555 1_555
O7_2 Mo2_2 1_555 1_555
O8_2 Mo2_2 1_555 1_555
O9A Mo3A 1_555 1_555
Mo1_2 O2 1_555 1_555
Mo3A_2 O10 1_555 1_555
N10A_2 Cu1A 1_555 1_555
O2A Cu2A 1_555 1_555
O4A Cu2A 1_555 1_555
O10A_2 Cu2A 1_555 1_555
N6A_2 Cu2A 1_555 1_555
Cu1A_2 N10A 1_555 1_555
Cu2_2 O2_2 1_555 1_555
Cu2A_2 O10A 1_555 1_555
Cu2A_3 N6A 1_555 1_555
O2A_2 Mo1A 1_555 1_555
O4A_2 Mo1A 1_555 1_555
O5_2 Mo2_2 1_555 1_555
O8A Mo3A 1_555 1_555
O10_2 Mo3A 1_555 1_555
Mo2A O5A 1_555 1_555
Mo3_2 O8_2 1_555 1_555
N3 Cu1 1_555 1_555
N10 Cu1 1_555 1_555
O4 Mo1_2 1_555 1_555
O8 Mo3 1_555 1_555
O11 Mo3 1_555 1_555
C2 C7 1_555 1_555
C6 C7 1_555 1_555
C12 C17 1_555 1_555
C16 C17 1_555 1_555
C22 C23 1_555 1_555
C25 C30 1_555 1_555
C29 C30 1_555 1_555
C32 C37 1_555 1_555
C36 C37 1_555 1_555
C42 C43 1_555 1_555
C45 C50 1_555 1_555
C49 C50 1_555 1_555
Mo2 O4_2 1_555 1_555
C8A C9A 1_555 1_555
C2A C7A 1_555 1_555
C4A C3A 1_555 1_555
C32A C37A 1_555 1_555
C36A C37A 1_555 1_555
C42A C43A 1_555 1_555
C45A C50A 1_555 1_555
C49A C50A 1_555 1_555
O4_2 Cu2_2 1_555 1_555
C12A C17A 1_555 1_555
C16A C17A 1_555 1_555
C22A C23A 1_555 1_555
C25A C30A 1_555 1_555
C29A C30A 1_555 1_555
Mo3A O5A 1_555 1_555
Mo1_2 O5_2 1_555 1_555
O4A_2 Mo2A 1_555 1_555
O5_2 Mo3_2 1_555 1_555
O8A Mo2A 1_555 1_555

#END
