
#######################################################################
#
#                 Cambridge Crystallographic Data Centre
#                                CCDC 
#
#######################################################################
#
# If this CIF has been generated from an entry in the Cambridge 
# Structural Database, then it will include bibliographic, chemical, 
# crystal, experimental, refinement or atomic coordinate data resulting 
# from the CCDC's data processing and validation procedures.
#
#######################################################################

data_UMALUQ
_symmetry_cell_setting           monoclinic
_symmetry_space_group_name_H-M   'C 2/m'
_symmetry_Int_Tables_number      12
_space_group_name_Hall           '-C 2y'
loop_
_symmetry_equiv_pos_site_id
_symmetry_equiv_pos_as_xyz
1 x,y,z
2 -x,y,-z
3 1/2+x,1/2+y,z
4 1/2-x,1/2+y,-z
5 -x,-y,-z
6 x,-y,z
7 1/2-x,1/2-y,-z
8 1/2+x,1/2-y,z
_cell_length_a                   36.4616(17)
_cell_length_b                   19.2841(11)
_cell_length_c                   16.0675(9)
_cell_angle_alpha                90
_cell_angle_beta                 95.679(4)
_cell_angle_gamma                90
_cell_volume                     11242.1
loop_
_atom_site_label
_atom_site_type_symbol
_atom_site_fract_x
_atom_site_fract_y
_atom_site_fract_z
N5 N 0.3366(3) 0.5000 0.0924(8)
C15 C 0.3160(3) 0.5635(6) 0.0600(8)
H21 H 0.3291 0.6042 0.0806
H22 H 0.3140 0.5634 0.0000
H23 H 0.2919 0.5634 0.0788
C16 C 0.3405(5) 0.5000 0.1860(10)
H28 H 0.3536 0.4592 0.2061
H29 H 0.3165 0.5003 0.2057
C17 C 0.3742(5) 0.5000 0.0601(11)
H30 H 0.3876 0.5405 0.0802
H31 H 0.3713 0.4997 0.0000
C15E C 0.3160(3) 0.4365(6) 0.0600(8)
H21E H 0.3291 0.3958 0.0806
H22E H 0.3140 0.4366 0.0000
H23E H 0.2919 0.4366 0.0788
H28E H 0.3536 0.5408 0.2061
H30E H 0.3876 0.4595 0.0802
C18 C 0.3187(2) 0.3372(5) 0.3187(6)
H38 H 0.3384 0.3136 0.2995
C19 C 0.2863(3) 0.3465(6) 0.2664(5)
H39 H 0.2844 0.3291 0.2122
C20 C 0.2568(2) 0.3819(6) 0.2951(7)
H40 H 0.2352 0.3881 0.2601
C21 C 0.2596(3) 0.4079(6) 0.3762(8)
H41 H 0.2399 0.4315 0.3954
C22 C 0.2920(3) 0.3985(6) 0.4285(5)
H42 H 0.2938 0.4159 0.4828
C23 C 0.3215(3) 0.3632(6) 0.3998(6)
C28 C 0.3528(8) 0.3432(13) 0.4476(17)
N7 N 0.3827(8) 0.3264(14) 0.4945(17)
N6 N 0.4096(3) 0.2863(7) 0.7749(8)
C24 C 0.4363(4) 0.2311(8) 0.7785(9)
H44 H 0.4263 0.1923 0.7463
H45 H 0.4422 0.2171 0.8355
H46 H 0.4582 0.2470 0.7559
C25 C 0.3764(5) 0.2645(10) 0.8108(11)
H47 H 0.3656 0.2259 0.7797
H48 H 0.3592 0.3023 0.8085
H49 H 0.3826 0.2510 0.8680
C26 C 0.3996(6) 0.3028(12) 0.6834(14)
H50 H 0.3896 0.2621 0.6551
H51 H 0.4213 0.3173 0.6587
H52 H 0.3816 0.3393 0.6783
C27 C 0.4239(7) 0.3423(12) 0.8213(14)
H53 H 0.4060 0.3789 0.8189
H54 H 0.4458 0.3585 0.7987
H55 H 0.4299 0.3284 0.8784
C31 C 0.4361(10) 0.5712(18) 0.3686(17)
H56 H 0.4353 0.6194 0.3678
N9 N 0.524(3) 0.613(4) 0.401(4)
C32 C 0.499(5) 0.590(7) 0.394(3)
C33 C 0.4030(17) 0.539(2) 0.352(3)
H57 H 0.3813 0.5641 0.3411
C34 C 0.470(2) 0.543(3) 0.386(3)
C31E C 0.4361(10) 0.4288(18) 0.3686(17)
H56E H 0.4353 0.3806 0.3678
N9E N 0.524(3) 0.387(4) 0.401(4)
C32E C 0.499(5) 0.410(7) 0.394(3)
C33E C 0.4030(17) 0.461(2) 0.352(3)
H57E H 0.3813 0.4359 0.3411
C34E C 0.470(2) 0.457(3) 0.386(3)
C35 C 0.473(2) 0.5000 0.155(4)
C36 C 0.512(2) 0.5000 0.199(5)
N10 N 0.531(2) 0.5000 0.258(6)
N1 N 0.5136(2) 0.0000 -0.2196(5)
N2 N 0.4075(3) 0.0000 0.0036(6)
N3 N 0.28881(19) 0.1382(4) 0.0711(4)
C1 C 0.4860(3) 0.0000 -0.1648(6)
C2 C 0.5379(3) 0.0000 -0.2581(6)
N4 N 0.2970(2) -0.1849(4) 0.3999(5)
C3 C 0.4474(2) -0.0630(4) -0.0810(5)
H1 H 0.4384 -0.1045 -0.0617
C4 C 0.4349(3) 0.0000 -0.0540(6)
C5 C 0.4733(2) -0.0625(4) -0.1374(5)
H2 H 0.4823 -0.1040 -0.1569
C6 C 0.3056(2) 0.0914(4) 0.0960(5)
C7 C 0.3863(3) 0.0000 0.0508(7)
C8 C 0.3150(2) -0.1546(4) 0.3599(6)
B1 B 0.4366(2) -0.1584(4) 0.1122(5)
H3 H 0.4475 -0.1089 0.0912
C9 C 0.2317(2) 0.2004(4) 0.0430(6)
H4 H 0.2199 0.1667 0.0721
C10 C 0.2692(2) 0.1959(4) 0.0355(5)
B2 B 0.3890(2) -0.1890(5) 0.0762(5)
H5 H 0.3697 -0.1595 0.0325
C11 C 0.2878(2) 0.2446(4) -0.0068(5)
H6 H 0.3130 0.2404 -0.0107
C12 C 0.2733(3) -0.2181(4) 0.4515(6)
C13 C 0.2859(3) -0.2359(5) 0.5313(6)
H7 H 0.3101 -0.2263 0.5517
B3 B 0.3734(3) -0.2458(5) 0.1602(6)
H8 H 0.3442 -0.2524 0.1701
B4 B 0.4116(3) -0.2510(5) 0.2464(6)
H9 H 0.4067 -0.2614 0.3117
C14 C 0.2375(3) -0.2317(5) 0.4183(7)
H10 H 0.2294 -0.2194 0.3636
B5 B 0.4287(3) -0.2286(5) 0.0421(6)
H11 H 0.4344 -0.2231 -0.0235
B6 B 0.4509(3) -0.1961(5) 0.2177(6)
H12 H 0.4708 -0.1715 0.2645
B7 B 0.3914(3) -0.2794(5) 0.0710(7)
H13 H 0.3729 -0.3069 0.0239
B8 B 0.4650(3) -0.2321(6) 0.1247(7)
H14 H 0.4941 -0.2283 0.1130
B9 B 0.4042(3) -0.3161(5) 0.1712(7)
H15 H 0.3941 -0.3670 0.1898
B10 B 0.4377(4) -0.3070(6) 0.0968(8)
H16 H 0.4492 -0.3524 0.0669
B11 B 0.2304(3) -0.0481(5) 0.3504(7)
H17 H 0.2434 -0.0785 0.4032
B12 B 0.2276(3) -0.0798(6) 0.2393(7)
H18 H 0.2387 -0.1302 0.2217
B13 B 0.2252(4) 0.0000 0.1687(10)
H19 H 0.2350 0.0000 0.1061
B14 B 0.4503(3) -0.2871(5) 0.2022(7)
H20 H 0.4702 -0.3197 0.2403
B15 B 0.3472(3) -0.0485(7) 0.5512(7)
H24 H 0.3232 -0.0789 0.5256
B16 B 0.4263(4) 0.0000 0.5494(9)
H25 H 0.4527 0.0000 0.5219
B17 B 0.1897(4) 0.0000 0.3601(11)
H26 H 0.1774 0.0000 0.4199
B18 B 0.1882(3) -0.0742(7) 0.2946(7)
H27 H 0.1751 -0.1227 0.3119
B19 B 0.3961(4) -0.0785(7) 0.5501(7)
H32 H 0.4031 -0.1287 0.5232
B20 B 0.4214(4) -0.0461(9) 0.6418(7)
H33 H 0.4449 -0.0758 0.6720
B21 B 0.1849(3) -0.0453(8) 0.1885(8)
H34 H 0.1697 -0.0744 0.1373
B22 B 0.3466(5) 0.0000 0.6447(9)
H35 H 0.3215 0.0000 0.6776
B23 B 0.1623(4) 0.0000 0.2640(12)
H36 H 0.1321 0.0000 0.2623
B24 B 0.3904(6) 0.0000 0.7002(10)
H37 H 0.3935 0.0000 0.7690
B25 B 0.3752(4) -0.0756(9) 0.6435(8)
H43 H 0.3689 -0.1244 0.6746
Sn1 Sn 0.394520(15) -0.13770(3) 0.20930(3)
Sn2 Sn 0.27478(2) 0.0000 0.27372(5)
Ag1 Ag 0.34002(2) 0.0000 0.12831(5)
Ag2 Ag 0.40530(2) 0.0000 0.28158(5)
Ag3 Ag 0.342020(15) -0.07360(3) 0.29706(3)
Sn3 Sn 0.37771(2) 0.0000 0.44427(4)
N3F N 0.21119(19) 0.3618(4) -0.0711(4)
C2A C 0.4621(3) 0.0000 0.2581(6)
N4F N 0.2030(2) -0.3151(4) 0.6001(5)
C3E C 0.4474(2) 0.0630(4) -0.0810(5)
H1E H 0.4384 0.1045 -0.0617
C5E C 0.4733(2) 0.0625(4) -0.1374(5)
H2E H 0.4823 0.1040 -0.1569
C6F C 0.1944(2) 0.4086(4) -0.0960(5)
C6E C 0.3056(2) -0.0914(4) 0.0960(5)
C8F C 0.1850(2) -0.3454(4) 0.6401(6)
C8E C 0.3150(2) 0.1546(4) 0.3599(6)
B1E B 0.4366(2) 0.1584(4) 0.1122(5)
H3E H 0.4475 0.1089 0.0912
C9F C 0.2683(2) 0.2996(4) -0.0430(6)
H4F H 0.2801 0.3333 -0.0721
C10F C 0.2308(2) 0.3041(4) -0.0355(5)
B2E B 0.3890(2) 0.1890(5) 0.0762(5)
H5E H 0.3697 0.1595 0.0325
C11F C 0.2122(2) 0.2554(4) 0.0068(5)
H6F H 0.1870 0.2596 0.0107
C12F C 0.2267(3) -0.2819(4) 0.5485(6)
C13F C 0.2141(3) -0.2641(5) 0.4687(6)
H7F H 0.1899 -0.2737 0.4483
B3E B 0.3734(3) 0.2458(5) 0.1602(6)
H8E H 0.3442 0.2524 0.1701
B4E B 0.4116(3) 0.2510(5) 0.2464(6)
H9E H 0.4067 0.2614 0.3117
C14F C 0.2625(3) -0.2683(5) 0.5817(7)
H10F H 0.2706 -0.2806 0.6364
B5E B 0.4287(3) 0.2286(5) 0.0421(6)
H11E H 0.4344 0.2231 -0.0235
B6E B 0.4509(3) 0.1961(5) 0.2177(6)
H12E H 0.4708 0.1715 0.2645
B7E B 0.3914(3) 0.2794(5) 0.0710(7)
H13E H 0.3729 0.3069 0.0239
B8E B 0.4650(3) 0.2321(6) 0.1247(7)
H14E H 0.4941 0.2283 0.1130
B9E B 0.4042(3) 0.3161(5) 0.1712(7)
H15E H 0.3941 0.3670 0.1898
B10E B 0.4377(4) 0.3070(6) 0.0968(8)
H16E H 0.4492 0.3524 0.0669
B11E B 0.2304(3) 0.0481(5) 0.3504(7)
H17E H 0.2434 0.0785 0.4032
B12E B 0.2276(3) 0.0798(6) 0.2393(7)
H18E H 0.2387 0.1302 0.2217
B14E B 0.4503(3) 0.2871(5) 0.2022(7)
H20E H 0.4702 0.3197 0.2403
B15E B 0.3472(3) 0.0485(7) 0.5512(7)
H24E H 0.3232 0.0789 0.5256
B18E B 0.1882(3) 0.0742(7) 0.2946(7)
H27E H 0.1751 0.1227 0.3119
B19E B 0.3961(4) 0.0785(7) 0.5501(7)
H32E H 0.4031 0.1287 0.5232
B20E B 0.4214(4) 0.0461(9) 0.6418(7)
H33E H 0.4449 0.0758 0.6720
B21E B 0.1849(3) 0.0453(8) 0.1885(8)
H34E H 0.1697 0.0744 0.1373
B25E B 0.3752(4) 0.0756(9) 0.6435(8)
H43E H 0.3689 0.1244 0.6746
Sn1E Sn 0.394520(15) 0.13770(3) 0.20930(3)
Ag1C Ag 0.15998(2) 0.5000 -0.12831(5)
Ag2A Ag 0.59470(2) 0.0000 -0.28158(5)
Ag3E Ag 0.342020(15) 0.07360(3) 0.29706(3)
Ag3F Ag 0.157980(15) -0.42640(3) 0.70294(3)
N8? N 0.2676(12) 0.0000 -0.120(2)
C29? C 0.2977(13) 0.0000 -0.121(4)
C30? C 0.3314(11) 0.044(2) -0.131(3)
N11? N 0.5000 0.1985(9) 0.5000
C37? C 0.4793(8) 0.2314(16) 0.5671(16)
H58? H 0.4956 0.2368 0.6174
H59? H 0.4590 0.2021 0.5781
H60? H 0.4701 0.2759 0.5484
C38? C 0.5125(8) 0.1276(16) 0.5508(17)
H61? H 0.5240 0.1394 0.6054
H62? H 0.5297 0.1025 0.5206
H63? H 0.4913 0.0993 0.5563
C39? C 0.5377(6) 0.2355(18) 0.515(2)
H64? H 0.5449 0.2379 0.5745
H65? H 0.5358 0.2816 0.4928
H66? H 0.5559 0.2100 0.4888
C40? C 0.4826(13) 0.187(3) 0.4188(16)
H67? H 0.4770 0.2313 0.3923
H68? H 0.4603 0.1618 0.4221
H69? H 0.4988 0.1616 0.3866
H70? H 0.3875 0.4592 0.0795
loop_
_geom_bond_atom_site_label_1
_geom_bond_atom_site_label_2
_geom_bond_site_symmetry_1
_geom_bond_site_symmetry_2
N1 C1 1_555 1_555
N2 C4 1_555 1_555
N3 C6 1_555 1_555
C1 C5 1_555 1_555
C2 N1 1_555 1_555
N4 C8 1_555 1_555
C3 H1 1_555 1_555
C4 C3 1_555 1_555
C5 C3 1_555 1_555
H2 C5 1_555 1_555
C6 Ag1 1_555 1_555
C7 N2 1_555 1_555
C8 Ag3 1_555 1_555
B1 H3 1_555 1_555
C9 H4 1_555 1_555
C10 N3 1_555 1_555
B2 B1 1_555 1_555
H5 B2 1_555 1_555
C11 C10 1_555 1_555
H6 C11 1_555 1_555
C12 N4 1_555 1_555
C13 C12 1_555 1_555
H7 C13 1_555 1_555
B3 B2 1_555 1_555
H8 B3 1_555 1_555
B4 B3 1_555 1_555
H9 B4 1_555 1_555
C14 C12 1_555 1_555
H10 C14 1_555 1_555
B5 B1 1_555 1_555
H11 B5 1_555 1_555
B6 B1 1_555 1_555
H12 B6 1_555 1_555
B7 B2 1_555 1_555
H13 B7 1_555 1_555
B8 B1 1_555 1_555
H14 B8 1_555 1_555
B9 B3 1_555 1_555
H15 B9 1_555 1_555
B10 B5 1_555 1_555
H16 B10 1_555 1_555
B11 H17 1_555 1_555
B12 B11 1_555 1_555
H18 B12 1_555 1_555
B13 B12 1_555 1_555
H19 B13 1_555 1_555
B14 B4 1_555 1_555
H20 B14 1_555 1_555
N5 C15 1_555 1_555
C15 H21 1_555 1_555
H22 C15 1_555 1_555
H23 C15 1_555 1_555
B15 H24 1_555 1_555
B16 H25 1_555 1_555
B17 B11 1_555 1_555
H26 B17 1_555 1_555
B18 B11 1_555 1_555
H27 B18 1_555 1_555
C16 N5 1_555 1_555
H28 C16 1_555 1_555
H29 C16 1_555 1_555
C17 N5 1_555 1_555
H30 C17 1_555 1_555
H31 C17 1_555 1_555
B19 B15 1_555 1_555
H32 B19 1_555 1_555
B20 B16 1_555 1_555
H33 B20 1_555 1_555
B21 B12 1_555 1_555
H34 B21 1_555 1_555
B22 B15 1_555 1_555
H35 B22 1_555 1_555
B23 B17 1_555 1_555
H36 B23 1_555 1_555
B24 B20 1_555 1_555
H37 B24 1_555 1_555
C18 H38 1_555 1_555
C19 C18 1_555 1_555
H39 C19 1_555 1_555
C20 C19 1_555 1_555
H40 C20 1_555 1_555
C21 C20 1_555 1_555
H41 C21 1_555 1_555
C22 C21 1_555 1_555
H42 C22 1_555 1_555
C23 C18 1_555 1_555
N6 C24 1_555 1_555
B25 B15 1_555 1_555
H43 B25 1_555 1_555
C24 H44 1_555 1_555
H45 C24 1_555 1_555
H46 C24 1_555 1_555
C25 N6 1_555 1_555
H47 C25 1_555 1_555
H48 C25 1_555 1_555
H49 C25 1_555 1_555
C26 N6 1_555 1_555
H50 C26 1_555 1_555
H51 C26 1_555 1_555
H52 C26 1_555 1_555
C27 N6 1_555 1_555
H53 C27 1_555 1_555
H54 C27 1_555 1_555
H55 C27 1_555 1_555
C28 C23 1_555 1_555
N7 C28 1_555 1_555
C31 H56 1_555 1_555
N9 C32 1_555 1_555
C32 C34 1_555 1_555
C33 C31 1_555 1_555
H57 C33 1_555 1_555
C34 C31 1_555 1_555
C35 C36 1_555 1_555
C36 N10 1_555 1_555
Sn1 B1 1_555 1_555
Sn2 B11 1_555 1_555
Ag1 C7 1_555 1_555
Ag2 Sn1 1_555 1_555
Ag3 Sn1 1_555 1_555
Sn3 B15 1_555 1_555
N3F C6F 1_555 1_555
C2A Ag2 1_555 1_555
N4F C8F 1_555 1_555
C3E C4 1_555 1_555
H1E C3E 1_555 1_555
C5E C1 1_555 1_555
H2E C5E 1_555 1_555
C6F Ag1C 1_555 1_555
C6E Ag1 1_555 1_555
C8F Ag3F 1_555 1_555
C8E Ag3E 1_555 1_555
B1E H3E 1_555 1_555
C9F C11 1_555 1_555
H4F C9F 1_555 1_555
C10F N3F 1_555 1_555
B2E B1E 1_555 1_555
H5E B2E 1_555 1_555
C11F C9 1_555 1_555
H6F C11F 1_555 1_555
C12F N4F 1_555 1_555
C13F C14 1_555 1_555
H7F C13F 1_555 1_555
B3E B2E 1_555 1_555
H8E B3E 1_555 1_555
B4E B3E 1_555 1_555
H9E B4E 1_555 1_555
C14F C13 1_555 1_555
H10F C14F 1_555 1_555
B5E B1E 1_555 1_555
H11E B5E 1_555 1_555
B6E B1E 1_555 1_555
H12E B6E 1_555 1_555
B7E B2E 1_555 1_555
H13E B7E 1_555 1_555
B8E B1E 1_555 1_555
H14E B8E 1_555 1_555
B9E B3E 1_555 1_555
H15E B9E 1_555 1_555
B10E B5E 1_555 1_555
H16E B10E 1_555 1_555
B11E B11 1_555 1_555
H17E B11E 1_555 1_555
B12E B13 1_555 1_555
H18E B12E 1_555 1_555
B14E B4E 1_555 1_555
H20E B14E 1_555 1_555
C15E N5 1_555 1_555
H21E C15E 1_555 1_555
H22E C15E 1_555 1_555
H23E C15E 1_555 1_555
B15E B15 1_555 1_555
H24E B15E 1_555 1_555
B18E B17 1_555 1_555
H27E B18E 1_555 1_555
H28E C16 1_555 1_555
H30E C17 1_555 1_555
B19E B16 1_555 1_555
H32E B19E 1_555 1_555
B20E B16 1_555 1_555
H33E B20E 1_555 1_555
B21E B13 1_555 1_555
H34E B21E 1_555 1_555
B25E B22 1_555 1_555
H43E B25E 1_555 1_555
C31E H56E 1_555 1_555
N9E C32E 1_555 1_555
C32E C34E 1_555 1_555
C33E C33 1_555 1_555
H57E C33E 1_555 1_555
C34E C34 1_555 1_555
Sn1E Ag2 1_555 1_555
Ag2A C2 1_555 1_555
Ag3E Sn2 1_555 1_555
C9 C10 1_555 1_555
B2 B5 1_555 1_555
B2 Sn1 1_555 1_555
B3 B7 1_555 1_555
B3 Sn1 1_555 1_555
B4 B6 1_555 1_555
B4 B9 1_555 1_555
B4 Sn1 1_555 1_555
B5 B7 1_555 1_555
B5 B8 1_555 1_555
B6 B8 1_555 1_555
B6 B14 1_555 1_555
B6 Sn1 1_555 1_555
B7 B9 1_555 1_555
B7 B10 1_555 1_555
B8 B10 1_555 1_555
B8 B14 1_555 1_555
B9 B10 1_555 1_555
B9 B14 1_555 1_555
B10 B14 1_555 1_555
B12 B18 1_555 1_555
B12 Sn2 1_555 1_555
B13 B21 1_555 1_555
B13 Sn2 1_555 1_555
B16 B19 1_555 1_555
B16 Sn3 1_555 1_555
B17 B18 1_555 1_555
B17 B11E 1_555 1_555
B18 B21 1_555 1_555
B18 B23 1_555 1_555
B19 B20 1_555 1_555
B19 B25 1_555 1_555
B19 Sn3 1_555 1_555
B20 B25 1_555 1_555
B20 B20E 1_555 1_555
B21 B23 1_555 1_555
B21 B21E 1_555 1_555
B22 B24 1_555 1_555
B22 B25 1_555 1_555
B22 B15E 1_555 1_555
B23 B18E 1_555 1_555
B23 B21E 1_555 1_555
B24 B25 1_555 1_555
B24 B20E 1_555 1_555
B24 B25E 1_555 1_555
C22 C23 1_555 1_555
Sn2 Ag3 1_555 1_555
Sn2 B11E 1_555 1_555
Sn2 B12E 1_555 1_555
Ag1 Ag2 1_555 1_555
Ag1 Ag3 1_555 1_555
Ag1 Ag3E 1_555 1_555
Ag2 Ag3 1_555 1_555
Ag2 Sn3 1_555 1_555
Ag2 Ag3E 1_555 1_555
Ag3 Sn3 1_555 1_555
Ag3 Ag3E 1_555 1_555
Sn3 B15E 1_555 1_555
Sn3 B19E 1_555 1_555
Sn3 Ag3E 1_555 1_555
C3E C5E 1_555 1_555
B1E Sn1E 1_555 1_555
C9F C10F 1_555 1_555
C10F C11F 1_555 1_555
B2E B5E 1_555 1_555
B2E Sn1E 1_555 1_555
C12F C13F 1_555 1_555
C12F C14F 1_555 1_555
B3E B7E 1_555 1_555
B3E Sn1E 1_555 1_555
B4E B6E 1_555 1_555
B4E B9E 1_555 1_555
B4E Sn1E 1_555 1_555
B5E B7E 1_555 1_555
B5E B8E 1_555 1_555
B6E B8E 1_555 1_555
B6E B14E 1_555 1_555
B6E Sn1E 1_555 1_555
B7E B9E 1_555 1_555
B7E B10E 1_555 1_555
B8E B10E 1_555 1_555
B8E B14E 1_555 1_555
B9E B10E 1_555 1_555
B9E B14E 1_555 1_555
B10E B14E 1_555 1_555
B11E B12E 1_555 1_555
B11E B18E 1_555 1_555
B12E B18E 1_555 1_555
B12E B21E 1_555 1_555
B15E B19E 1_555 1_555
B15E B25E 1_555 1_555
B18E B21E 1_555 1_555
B19E B20E 1_555 1_555
B19E B25E 1_555 1_555
B20E B25E 1_555 1_555
C31E C33E 1_555 1_555
C31E C34E 1_555 1_555
Sn1E Ag3E 1_555 1_555

#END
