
#######################################################################
#
#                 Cambridge Crystallographic Data Centre
#                                CCDC 
#
#######################################################################
#
# If this CIF has been generated from an entry in the Cambridge 
# Structural Database, then it will include bibliographic, chemical, 
# crystal, experimental, refinement or atomic coordinate data resulting 
# from the CCDC's data processing and validation procedures.
#
#######################################################################

data_UMALOK
_symmetry_cell_setting           monoclinic
_symmetry_space_group_name_H-M   'C 2/c'
_symmetry_Int_Tables_number      15
_space_group_name_Hall           '-C 2yn'
loop_
_symmetry_equiv_pos_site_id
_symmetry_equiv_pos_as_xyz
1 x,y,z
2 -x,y,1/2-z
3 1/2+x,1/2+y,z
4 1/2-x,1/2+y,1/2-z
5 -x,-y,-z
6 x,-y,1/2+z
7 1/2-x,1/2-y,-z
8 1/2+x,1/2-y,1/2+z
_cell_length_a                   26.4490(17)
_cell_length_b                   16.1365(8)
_cell_length_c                   24.1068(14)
_cell_angle_alpha                90
_cell_angle_beta                 114.725(4)
_cell_angle_gamma                90
_cell_volume                     9345.44
loop_
_atom_site_label
_atom_site_type_symbol
_atom_site_fract_x
_atom_site_fract_y
_atom_site_fract_z
N1 N 0.09870(12) 0.15855(19) 0.40556(14)
B1 B 0.13671(17) -0.0590(3) 0.16434(19)
H1 H 0.1544 -0.1107 0.1485
B2 B 0.15164(18) 0.0519(3) 0.2644(2)
H2 H 0.1787 0.0696 0.3117
B3 B 0.14443(18) -0.0534(3) 0.2411(2)
H3 H 0.1667 -0.1015 0.2748
C1 C 0.15362(16) 0.1640(3) 0.42149(18)
H4 H 0.1657 0.1784 0.3917
B4 B 0.07782(18) -0.0733(3) 0.1811(2)
H5 H 0.0573 -0.1339 0.1759
C2 C 0.08246(16) 0.1381(3) 0.44959(17)
H6 H 0.0446 0.1347 0.4397
B5 B 0.18005(17) 0.0187(3) 0.2134(2)
H7 H 0.2255 0.0175 0.2292
B6 B 0.06782(18) 0.5237(3) 0.3555(2)
H8 H 0.0368 0.5521 0.3136
B7 B 0.15791(18) 0.3952(3) 0.4201(2)
H12 H 0.1838 0.3424 0.4189
C4 C 0.17630(18) 0.1272(3) 0.52459(18)
H13 H 0.2021 0.1162 0.5642
B8 B 0.13285(19) 0.5727(3) 0.3975(2)
H19 H 0.1423 0.6318 0.3812
B9 B 0.18572(19) 0.4971(3) 0.4352(2)
H20 H 0.2293 0.5074 0.4431
C7 C 0.11969(18) 0.1220(3) 0.50880(18)
H21 H 0.1068 0.1077 0.5380
B10 B 0.08436(19) -0.0069(3) 0.2430(2)
H24 H 0.0686 -0.0257 0.2768
N3 N 0.10762(12) 0.34689(18) 0.19609(14)
B11 B 0.08243(19) 0.5656(3) 0.4292(2)
H28 H 0.0592 0.6202 0.4332
C10 C 0.19302(17) 0.1492(3) 0.47978(19)
H29 H 0.2307 0.1540 0.4888
B12 B 0.04902(19) 0.4682(3) 0.4136(2)
H30 H 0.0058 0.4619 0.4083
B13 B 0.16793(19) 0.4444(3) 0.4898(2)
H31 H 0.2002 0.4209 0.5329
B14 B 0.10506(19) 0.3883(3) 0.4537(2)
H32 H 0.0975 0.3312 0.4740
C11 C 0.09487(17) 0.3482(2) 0.13587(18)
H33 H 0.0580 0.3407 0.1084
B15 B 0.1045(2) 0.4863(3) 0.4858(2)
H34 H 0.0957 0.4897 0.5264
C12 C 0.1890(2) 0.3714(3) 0.1536(2)
H35 H 0.2162 0.3807 0.1394
C13 C 0.1347(2) 0.3603(3) 0.1133(2)
H36 H 0.1247 0.3608 0.0714
C14 C 0.20287(17) 0.3688(2) 0.2151(2)
H37 H 0.2397 0.3753 0.2431
B16 B 0.15425(19) 0.5521(3) 0.4767(2)
H38 H 0.1776 0.5985 0.5114
B17 B 0.13457(18) 0.4787(3) 0.3599(2)
H39 H 0.1456 0.4786 0.3207
C15 C 0.16130(15) 0.3563(2) 0.2347(2)
H40 H 0.1709 0.3544 0.2764
B18 B 0.07464(17) 0.0947(3) 0.1324(2)
H64 H 0.0528 0.1397 0.0959
B19 B 0.03757(18) 0.0187(3) 0.1624(2)
H65 H -0.0080 0.0157 0.1451
B20 B 0.13494(18) 0.0429(3) 0.1362(2)
H66 H 0.1512 0.0569 0.1021
B21 B 0.14484(17) 0.1155(3) 0.1957(2)
H67 H 0.1675 0.1739 0.1995
B22 B 0.07179(17) -0.0129(3) 0.1165(2)
H68 H 0.0470 -0.0345 0.0695
Ag1 Ag 0.042824(11) 0.318457(17) 0.229723(12)
Sn1 Sn 0.071975(11) 0.135214(16) 0.223590(13)
Sn2 Sn 0.066393(11) 0.379284(17) 0.347631(12)
Ag2 Ag 0.040223(11) 0.196046(18) 0.312425(12)
Ag1A Ag -0.042824(11) 0.318457(17) 0.270277(12)
Sn1A Sn -0.071975(11) 0.135214(16) 0.276410(13)
Sn2A Sn -0.066393(11) 0.379284(17) 0.152369(12)
Ag2A Ag -0.040223(11) 0.196046(18) 0.187575(12)
N2 N 0.88661(13) 0.8534(2) 0.06309(15)
C3 C 0.8095(2) 0.8025(3) -0.0371(2)
H9 H 0.7864 0.7552 -0.0550
H10 H 0.8315 0.8147 -0.0593
H11 H 0.7865 0.8494 -0.0390
C5 C 0.84761(17) 0.7840(2) 0.0290(2)
H14 H 0.8248 0.7702 0.0505
H15 H 0.8697 0.7355 0.0302
C6 C 0.8097(2) 0.9248(3) 0.0827(2)
H16 H 0.7927 0.9780 0.0804
H17 H 0.8246 0.9052 0.1240
H18 H 0.7823 0.8863 0.0567
C8 C 0.85560(19) 0.9326(3) 0.0621(2)
H22 H 0.8822 0.9730 0.0879
H23 H 0.8400 0.9542 0.0208
C9 C 0.91923(19) 0.8259(3) 0.1283(2)
H25 H 0.9443 0.8692 0.1508
H26 H 0.9401 0.7770 0.1289
H27 H 0.8940 0.8141 0.1466
C17 C 0.92738(17) 0.8741(3) 0.0351(2)
H43 H 0.9063 0.8948 -0.0059
H44 H 0.9514 0.9186 0.0587
C19 C 0.9631(2) 0.8042(3) 0.0321(2)
H48 H 0.9871 0.8232 0.0140
H49 H 0.9399 0.7602 0.0078
H50 H 0.9852 0.7841 0.0726
N4 N 0.14501(15) 0.6533(2) 0.17147(17)
C16 C 0.15752(19) 0.7147(3) 0.2226(2)
H41 H 0.1230 0.7282 0.2256
H42 H 0.1713 0.7653 0.2120
C18 C 0.1998(2) 0.6856(3) 0.2851(2)
H45 H 0.2052 0.7283 0.3148
H46 H 0.2346 0.6737 0.2831
H47 H 0.1862 0.6365 0.2968
C20 C 0.2219(3) 0.7082(3) 0.1427(3)
H51 H 0.2538 0.6909 0.1363
H52 H 0.2331 0.7484 0.1751
H53 H 0.1949 0.7325 0.1059
C21 C 0.1256(2) 0.5706(3) 0.1849(2)
H54 H 0.1149 0.5356 0.1491
H55 H 0.1564 0.5440 0.2179
C22 C 0.1008(2) 0.6892(3) 0.1144(2)
H56 H 0.0924 0.6507 0.0813
H57 H 0.1140 0.7402 0.1046
H58 H 0.0679 0.6997 0.1206
C23 C 0.0772(2) 0.5770(4) 0.2023(3)
H59 H 0.0671 0.5226 0.2102
H60 H 0.0461 0.6020 0.1694
H61 H 0.0877 0.6105 0.2383
C24 C 0.1967(2) 0.6342(3) 0.1599(2)
H62 H 0.2247 0.6094 0.1965
H63 H 0.1866 0.5935 0.1274
loop_
_geom_bond_atom_site_label_1
_geom_bond_atom_site_label_2
_geom_bond_site_symmetry_1
_geom_bond_site_symmetry_2
N1 C1 1_555 1_555
B1 H1 1_555 1_555
B2 H2 1_555 1_555
B3 B1 1_555 1_555
H3 B3 1_555 1_555
C1 H4 1_555 1_555
B4 B1 1_555 1_555
H5 B4 1_555 1_555
C2 N1 1_555 1_555
H6 C2 1_555 1_555
B5 B1 1_555 1_555
H7 B5 1_555 1_555
N2 C5 1_555 1_555
B6 H8 1_555 1_555
C3 H9 1_555 1_555
H10 C3 1_555 1_555
H11 C3 1_555 1_555
B7 H12 1_555 1_555
C4 H13 1_555 1_555
C5 C3 1_555 1_555
H14 C5 1_555 1_555
H15 C5 1_555 1_555
C6 H16 1_555 1_555
H17 C6 1_555 1_555
H18 C6 1_555 1_555
B8 B6 1_555 1_555
H19 B8 1_555 1_555
B9 B7 1_555 1_555
H20 B9 1_555 1_555
C7 C2 1_555 1_555
H21 C7 1_555 1_555
C8 N2 1_555 1_555
H22 C8 1_555 1_555
H23 C8 1_555 1_555
B10 B2 1_555 1_555
H24 B10 1_555 1_555
C9 N2 1_555 1_555
H25 C9 1_555 1_555
H26 C9 1_555 1_555
H27 C9 1_555 1_555
N3 C11 1_555 1_555
B11 B6 1_555 1_555
H28 B11 1_555 1_555
C10 C1 1_555 1_555
H29 C10 1_555 1_555
B12 B6 1_555 1_555
H30 B12 1_555 1_555
B13 B7 1_555 1_555
H31 B13 1_555 1_555
B14 B7 1_555 1_555
H32 B14 1_555 1_555
C11 H33 1_555 1_555
B15 B11 1_555 1_555
H34 B15 1_555 1_555
C12 H35 1_555 1_555
C13 C11 1_555 1_555
H36 C13 1_555 1_555
C14 C12 1_555 1_555
H37 C14 1_555 1_555
B16 B8 1_555 1_555
H38 B16 1_555 1_555
B17 B6 1_555 1_555
H39 B17 1_555 1_555
C15 N3 1_555 1_555
H40 C15 1_555 1_555
N4 C16 1_555 1_555
C16 H41 1_555 1_555
H42 C16 1_555 1_555
C17 N2 1_555 1_555
H43 C17 1_555 1_555
H44 C17 1_555 1_555
C18 C16 1_555 1_555
H45 C18 1_555 1_555
H46 C18 1_555 1_555
H47 C18 1_555 1_555
C19 C17 1_555 1_555
H48 C19 1_555 1_555
H49 C19 1_555 1_555
H50 C19 1_555 1_555
C20 H51 1_555 1_555
H52 C20 1_555 1_555
H53 C20 1_555 1_555
C21 N4 1_555 1_555
H54 C21 1_555 1_555
H55 C21 1_555 1_555
C22 N4 1_555 1_555
H56 C22 1_555 1_555
H57 C22 1_555 1_555
H58 C22 1_555 1_555
C23 C21 1_555 1_555
H59 C23 1_555 1_555
H60 C23 1_555 1_555
H61 C23 1_555 1_555
C24 N4 1_555 1_555
H62 C24 1_555 1_555
H63 C24 1_555 1_555
B18 H64 1_555 1_555
B19 B4 1_555 1_555
H65 B19 1_555 1_555
B20 B1 1_555 1_555
H66 B20 1_555 1_555
B21 B2 1_555 1_555
H67 B21 1_555 1_555
B22 B1 1_555 1_555
H68 B22 1_555 1_555
Ag1 N3 1_555 1_555
Sn1 B2 1_555 1_555
Sn2 B6 1_555 1_555
Ag2 N1 1_555 1_555
Ag1A Ag1 1_555 1_555
Sn1A Ag2 1_555 1_555
Sn2A Ag1 1_555 1_555
Ag2A Ag1 1_555 1_555
B2 B3 1_555 1_555
B2 B5 1_555 1_555
B3 B4 1_555 1_555
B3 B5 1_555 1_555
B3 B10 1_555 1_555
B4 B10 1_555 1_555
B4 B22 1_555 1_555
B5 B20 1_555 1_555
B5 B21 1_555 1_555
B7 B17 1_555 1_555
B7 Sn2 1_555 1_555
C4 C7 1_555 1_555
C4 C10 1_555 1_555
C6 C8 1_555 1_555
B8 B9 1_555 1_555
B8 B11 1_555 1_555
B8 B17 1_555 1_555
B9 B13 1_555 1_555
B9 B16 1_555 1_555
B9 B17 1_555 1_555
B10 B19 1_555 1_555
B10 Sn1 1_555 1_555
B11 B12 1_555 1_555
B11 B16 1_555 1_555
B12 B14 1_555 1_555
B12 B15 1_555 1_555
B12 Sn2 1_555 1_555
B13 B14 1_555 1_555
B13 B15 1_555 1_555
B13 B16 1_555 1_555
B14 B15 1_555 1_555
B14 Sn2 1_555 1_555
B15 B16 1_555 1_555
C12 C13 1_555 1_555
C14 C15 1_555 1_555
B17 Sn2 1_555 1_555
C20 C24 1_555 1_555
B18 B19 1_555 1_555
B18 B20 1_555 1_555
B18 B21 1_555 1_555
B18 B22 1_555 1_555
B18 Sn1 1_555 1_555
B19 B22 1_555 1_555
B19 Sn1 1_555 1_555
B20 B21 1_555 1_555
B20 B22 1_555 1_555
B21 Sn1 1_555 1_555
Ag1 Sn1 1_555 1_555
Ag1 Sn2 1_555 1_555
Ag1 Ag2 1_555 1_555
Sn1 Ag2 1_555 1_555
Sn1 Ag2A 1_555 1_555
Sn2 Ag2 1_555 1_555
Sn2 Ag1A 1_555 1_555
Ag2 Ag1A 1_555 1_555
Ag2 Ag2A 1_555 1_555
Ag1A Sn1A 1_555 1_555
Ag1A Sn2A 1_555 1_555
Ag1A Ag2A 1_555 1_555
Sn1A Ag2A 1_555 1_555
Sn2A Ag2A 1_555 1_555

#END
