
#######################################################################
#
#                 Cambridge Crystallographic Data Centre
#                                CCDC 
#
#######################################################################
#
# If this CIF has been generated from an entry in the Cambridge 
# Structural Database, then it will include bibliographic, chemical, 
# crystal, experimental, refinement or atomic coordinate data resulting 
# from the CCDC's data processing and validation procedures.
#
#######################################################################

data_UMALIE
_symmetry_cell_setting           triclinic
_symmetry_space_group_name_H-M   'P -1'
_symmetry_Int_Tables_number      2
_space_group_name_Hall           '-P 1'
loop_
_symmetry_equiv_pos_site_id
_symmetry_equiv_pos_as_xyz
1 x,y,z
2 -x,-y,-z
_cell_length_a                   16.0544(10)
_cell_length_b                   16.0191(10)
_cell_length_c                   30.6972(18)
_cell_angle_alpha                87.648(5)
_cell_angle_beta                 83.507(5)
_cell_angle_gamma                72.780(5)
_cell_volume                     7492.13
loop_
_atom_site_label
_atom_site_type_symbol
_atom_site_fract_x
_atom_site_fract_y
_atom_site_fract_z
C12 C 0.7478(7) 0.4020(7) 0.8395(4)
H59 H 0.7497 0.3488 0.8555
H60 H 0.7032 0.4497 0.8537
H61 H 0.8036 0.4129 0.8385
C13 C 0.7274(6) 0.3934(6) 0.7936(3)
H64 H 0.6718 0.3805 0.7952
H65 H 0.7720 0.3438 0.7800
N6 N 0.7222(4) 0.4735(4) 0.7637(2)
C27 C 0.8101(6) 0.4913(6) 0.7568(3)
H99 H 0.8044 0.5430 0.7384
H100 H 0.8249 0.5045 0.7850
C29 C 0.6568(7) 0.5541(7) 0.7836(4)
H103 H 0.6572 0.6034 0.7642
H104 H 0.6754 0.5654 0.8111
C30 C 0.6816(6) 0.5236(6) 0.6868(3)
H105 H 0.6654 0.5038 0.6608
H106 H 0.7346 0.5397 0.6798
H107 H 0.6354 0.5734 0.6982
C31 C 0.6960(6) 0.4511(6) 0.7207(3)
H108 H 0.7414 0.4007 0.7084
H109 H 0.6425 0.4345 0.7268
C33 C 0.8851(7) 0.4184(7) 0.7362(4)
H112 H 0.9379 0.4357 0.7333
H113 H 0.8725 0.4059 0.7078
H114 H 0.8928 0.3670 0.7544
C34 C 0.5636(8) 0.5489(9) 0.7920(5)
H115 H 0.5262 0.6026 0.8048
H116 H 0.5619 0.5012 0.8117
H117 H 0.5435 0.5397 0.7648
C14 C 0.6271(5) 0.3406(5) 0.3771(2)
H66 H 0.5928 0.2996 0.3798
H67 H 0.6871 0.3079 0.3675
N5 N 0.6250(3) 0.3765(4) 0.42184(18)
C15 C 0.5343(4) 0.4334(5) 0.4388(2)
H68 H 0.5366 0.4524 0.4681
H69 H 0.5194 0.4852 0.4203
C16 C 0.6526(5) 0.3014(5) 0.4540(3)
H70 H 0.6416 0.3253 0.4833
H71 H 0.6152 0.2640 0.4526
C17 C 0.6870(5) 0.4325(5) 0.4191(2)
H72 H 0.7451 0.3969 0.4081
H73 H 0.6682 0.4791 0.3980
C18 C 0.4621(5) 0.3915(5) 0.4404(3)
H74 H 0.4077 0.4325 0.4515
H75 H 0.4747 0.3411 0.4594
H76 H 0.4575 0.3740 0.4115
C19 C 0.6931(6) 0.4728(6) 0.4618(3)
H77 H 0.7335 0.5069 0.4570
H78 H 0.7135 0.4273 0.4828
H79 H 0.6363 0.5097 0.4727
C23 C 0.5934(6) 0.4068(6) 0.3416(3)
H88 H 0.5978 0.3769 0.3145
H89 H 0.6278 0.4469 0.3377
H90 H 0.5332 0.4384 0.3500
C25 C 0.7467(6) 0.2456(7) 0.4472(3)
H94 H 0.7570 0.2003 0.4692
H95 H 0.7847 0.2811 0.4495
H96 H 0.7583 0.2197 0.4187
N4 N 0.9666(4) 0.3078(4) 0.5610(2)
C20 C 0.8670(6) 0.4331(6) 0.6080(3)
H80 H 0.8682 0.4754 0.6290
H81 H 0.8330 0.3965 0.6210
H82 H 0.8410 0.4627 0.5829
C21 C 1.0872(7) 0.1939(7) 0.5149(4)
H83 H 1.1498 0.1711 0.5095
H84 H 1.0635 0.2174 0.4881
H85 H 1.0631 0.1478 0.5255
C22 C 0.9591(6) 0.3777(6) 0.5942(3)
H86 H 0.9852 0.3497 0.6201
H87 H 0.9931 0.4157 0.5819
C26 C 1.0637(6) 0.2653(6) 0.5489(3)
H97 H 1.0901 0.3104 0.5380
H98 H 1.0899 0.2409 0.5753
C28 C 0.9218(6) 0.2413(6) 0.5803(3)
H101 H 0.8600 0.2715 0.5875
H102 H 0.9259 0.1993 0.5577
C32 C 0.9210(6) 0.3461(6) 0.5215(3)
H110 H 0.9311 0.3000 0.5003
H111 H 0.8584 0.3664 0.5304
C36 C 0.9485(8) 0.4195(8) 0.4997(4)
H118 H 0.9162 0.4396 0.4749
H119 H 1.0101 0.4000 0.4900
H120 H 0.9370 0.4665 0.5201
C69 C 0.9555(8) 0.1925(9) 0.6197(4)
H194 H 0.9224 0.1526 0.6288
H195 H 0.9500 0.2327 0.6429
H196 H 1.0161 0.1603 0.6129
C24 C 0.1821(7) 0.9103(7) 0.6590(3)
H91 H 0.2429 0.8881 0.6636
H92 H 0.1583 0.8624 0.6570
H93 H 0.1507 0.9468 0.6832
C35 C 0.1738(9) 0.9596(9) 0.6199(5)
N8 N 0.1673(10) 1.0034(11) 0.5887(5)
C37 C 0.2982(6) 0.2070(6) 0.7136(3)
H121 H 0.3381 0.1584 0.6970
H122 H 0.3332 0.2410 0.7236
C38 C 0.2572(7) 0.1704(7) 0.7532(3)
H123 H 0.3023 0.1358 0.7700
H124 H 0.2240 0.1345 0.7441
H125 H 0.2190 0.2174 0.7708
N7 N 0.2378(4) 0.2634(4) 0.6830(2)
C39 C 0.2031(10) 0.1988(10) 0.6583(5)
H126 H 0.1772 0.1652 0.6798
H127 H 0.1569 0.2328 0.6413
C40 C 0.2707(11) 0.1370(11) 0.6284(6)
H128 H 0.2441 0.1000 0.6147
H129 H 0.3160 0.1018 0.6449
H130 H 0.2956 0.1693 0.6063
C41 C 0.2853(9) 0.3075(11) 0.6523(5)
H131 H 0.3362 0.2641 0.6385
H132 H 0.3064 0.3464 0.6686
C42 C 0.2341(10) 0.3605(10) 0.6163(5)
H133 H 0.2716 0.3867 0.5975
H134 H 0.1847 0.4055 0.6293
H135 H 0.2139 0.3227 0.5994
C43 C 0.1554(9) 0.3220(10) 0.7072(5)
H136 H 0.1170 0.3534 0.6860
H137 H 0.1253 0.2859 0.7247
C44 C 0.1712(14) 0.3870(14) 0.7367(7)
H138 H 0.1161 0.4217 0.7509
H139 H 0.1995 0.4244 0.7196
H140 H 0.2079 0.3566 0.7584
N9 N 0.2167(6) 0.6742(6) 0.8279(3)
C45 C 0.1896(11) 0.7538(11) 0.8027(5)
H141 H 0.1974 0.8010 0.8191
H142 H 0.1274 0.7668 0.8001
C46 C 0.1711(11) 0.6889(11) 0.8740(5)
H143 H 0.1083 0.7036 0.8725
H144 H 0.1827 0.7388 0.8861
C47 C 0.3179(11) 0.6548(17) 0.8336(9)
H145 H 0.3345 0.6043 0.8528
H146 H 0.3509 0.6386 0.8052
C48 C 0.228(2) 0.588(2) 0.8150(11)
H147 H 0.2567 0.5462 0.8364
H148 H 0.2624 0.5755 0.7868
C49 C 0.1298(16) 0.5805(17) 0.8119(9)
H149 H 0.1335 0.5220 0.8041
H150 H 0.1025 0.6206 0.7900
H151 H 0.0956 0.5946 0.8398
C50 C 0.345(2) 0.724(2) 0.8507(10)
H152 H 0.4070 0.7038 0.8527
H153 H 0.3146 0.7393 0.8793
H154 H 0.3314 0.7735 0.8315
C51 C 0.198(2) 0.612(2) 0.9054(12)
H155 H 0.1659 0.6267 0.9337
H156 H 0.2596 0.5973 0.9078
H157 H 0.1849 0.5621 0.8943
C52 C 0.2380(12) 0.7536(12) 0.7561(6)
H158 H 0.2153 0.8093 0.7423
H159 H 0.2291 0.7086 0.7391
H160 H 0.2995 0.7426 0.7581
N10 N 0.731(2) 0.268(2) 0.0292(11)
C53 C 0.816(3) 0.127(3) -0.0153(14)
C54 C 0.758(3) 0.206(3) 0.0040(14)
C63 C 0.2725(7) 0.0004(8) 0.8340(4)
H179 H 0.2196 0.0159 0.8199
H180 H 0.3197 -0.0357 0.8148
H181 H 0.2864 0.0525 0.8406
C64 C 0.2614(12) -0.0433(13) 0.8711(7)
N14 N 0.2432(15) -0.0759(15) 0.9044(8)
N12 N 0.0499(7) 0.3242(7) 0.9168(4)
C65 C 0.0374(12) 0.3648(12) 0.8361(6)
H182 H 0.0449 0.4121 0.8174
H183 H -0.0212 0.3613 0.8361
H184 H 0.0784 0.3110 0.8255
C68 C 0.1578(14) 0.1792(15) 0.9188(7)
H191 H 0.2122 0.1427 0.9049
H192 H 0.1126 0.1516 0.9175
H193 H 0.1640 0.1878 0.9489
C72 C 0.139(2) 0.4024(16) 0.9476(11)
H203 H 0.1460 0.4214 0.9759
H204 H 0.1222 0.4522 0.9286
H205 H 0.1943 0.3635 0.9354
C73 C 0.1356(17) 0.259(2) 0.8976(14)
H206 H 0.1307 0.2489 0.8671
H207 H 0.1829 0.2847 0.8981
C74 C -0.024(2) 0.297(4) 0.9089(19)
H208 H -0.0123 0.2364 0.9175
H209 H -0.0278 0.3008 0.8776
C75 C -0.110(3) 0.347(3) 0.9315(16)
H210 H -0.1536 0.3189 0.9265
H211 H -0.1272 0.4056 0.9200
H212 H -0.1064 0.3485 0.9624
C76 C 0.0695(16) 0.3548(17) 0.9521(9)
H213 H 0.0877 0.3061 0.9722
H214 H 0.0159 0.3945 0.9660
C77 C 0.0519(16) 0.3792(17) 0.8778(9)
H215 H 0.0106 0.4356 0.8858
H216 H 0.1096 0.3878 0.8748
C66 C 0.010(2) 0.097(3) 0.0325(16)
C70 C -0.0017(19) 0.0676(19) 0.0749(11)
N15 N -0.004(4) 0.136(4) 0.002(2)
C78 C 0.2675(6) 0.3207(6) 0.4138(3)
H217 H 0.2197 0.3123 0.4001
H218 H 0.3172 0.2696 0.4096
H219 H 0.2827 0.3705 0.4008
C79 C 0.2428(8) 0.3345(8) 0.4581(4)
N16 N 0.2208(10) 0.3489(10) 0.4952(5)
Ag1 Ag 0.32494(3) -0.06866(3) 1.256818(16)
Sn1 Sn 0.36970(3) 0.07391(3) 1.297870(17)
Sn2 Sn 0.43865(3) -0.15408(3) 1.189601(16)
Ag2 Ag 0.22227(3) 0.11080(3) 1.243475(16)
Sn3 Sn 0.34101(3) -0.17737(3) 1.326116(16)
Ag3 Ag 0.39660(5) 0.04629(5) 1.19779(2)
Ag4 Ag 0.25904(5) -0.01482(5) 1.17182(2)
Sn4 Sn 0.10751(3) 0.23773(3) 1.290443(18)
Ag5 Ag 0.21290(4) 0.02324(4) 1.325823(17)
Sn5 Sn 0.23933(4) 0.17854(4) 1.161105(17)
B1 B 0.3875(5) 0.2108(5) 1.3089(3)
H1 H 0.3236 0.2613 1.3127
B2 B 0.0871(5) 0.2607(6) 1.3663(3)
H2 H 0.1427 0.2180 1.3821
B3 B 0.5085(5) 0.0246(6) 1.3234(3)
H3 H 0.5207 -0.0424 1.3365
B4 B 0.3744(6) -0.2172(5) 1.4382(3)
H4 H 0.3590 -0.1856 1.4704
B5 B 0.4986(5) -0.3395(5) 1.3785(3)
H5 H 0.5639 -0.3871 1.3723
B6 B 0.4823(6) -0.2433(5) 1.4100(3)
H6 H 0.5367 -0.2288 1.4238
B7 B 0.4740(5) 0.2114(6) 1.3400(3)
H7 H 0.4621 0.2627 1.3646
B8 B 0.4300(5) 0.1240(6) 1.3520(3)
H8 H 0.3925 0.1200 1.3839
B9 B 0.4256(5) -0.3206(5) 1.3374(3)
H9 H 0.4444 -0.3566 1.3064
B10 B 0.3245(5) -0.2979(5) 1.4247(3)
H10 H 0.2775 -0.3185 1.4483
B11 B 0.5554(5) 0.1421(6) 1.2555(3)
H11 H 0.5964 0.1484 1.2250
B12 B 0.4390(5) -0.3291(5) 1.4313(3)
H12 H 0.4656 -0.3701 1.4591
B13 B 0.5154(5) 0.0501(6) 1.2629(3)
H13 H 0.5314 -0.0007 1.2377
B14 B -0.0925(6) 0.3970(6) 1.3219(4)
H14 H -0.1507 0.4408 1.3085
B15 B 0.3112(5) -0.2929(5) 1.3680(3)
H15 H 0.2566 -0.3109 1.3563
B16 B 0.0336(6) 0.3688(6) 1.3848(3)
H16 H 0.0572 0.3945 1.4122
B17 B -0.0451(5) 0.2919(6) 1.3002(3)
H17 H -0.0733 0.2687 1.2738
B18 B 0.0004(6) 0.2198(6) 1.3460(3)
H18 H 0.0011 0.1510 1.3490
B19 B 0.5446(5) 0.1033(6) 1.3474(3)
H19 H 0.5791 0.0846 1.3769
B20 B 0.5761(5) 0.1733(5) 1.3072(3)
H20 H 0.6305 0.2002 1.3106
B21 B 0.3956(6) -0.1575(5) 1.3914(3)
H21 H 0.3948 -0.0890 1.3945
B22 B 0.0938(5) 0.3598(5) 1.3329(3)
H22 H 0.1540 0.3800 1.3275
B23 B 0.4404(6) 0.1651(6) 1.2548(3)
H23 H 0.4092 0.1861 1.2244
B24 B 0.2947(6) -0.1922(5) 1.4005(3)
H24 H 0.2295 -0.1460 1.4091
B25 B 0.4007(5) -0.3724(5) 1.3872(3)
H25 H 0.4024 -0.4414 1.3864
B26 B -0.0799(6) 0.3939(7) 1.3792(4)
H26 H -0.1297 0.4357 1.4029
B27 B -0.0210(6) 0.2856(7) 1.3928(3)
H27 H -0.0326 0.2571 1.4253
B28 B -0.0094(6) 0.4372(6) 1.3414(4)
H28 H -0.0138 0.5071 1.3406
B29 B 0.4822(5) 0.2355(6) 1.2824(3)
H29 H 0.4768 0.3018 1.2695
B30 B 0.5949(6) 0.0605(6) 1.2957(3)
H30 H 0.6614 0.0145 1.2913
B31 B -0.0989(6) 0.3043(6) 1.3536(3)
H31 H -0.1612 0.2883 1.3607
Sn6 Sn 0.13542(3) -0.02424(3) 1.253005(17)
B32 B 0.4755(5) -0.2353(5) 1.3522(3)
H32 H 0.5258 -0.2164 1.3301
N1 N 0.0983(4) 0.0212(4) 1.42171(19)
N2 N 0.6748(4) 0.0377(4) 0.9338(2)
N3 N 0.5156(4) 0.0503(4) 1.1037(2)
C1 C 0.0482(4) 0.0110(5) 1.4616(2)
C2 C 0.0878(5) -0.0498(5) 1.4920(2)
H33 H 0.1461 -0.0831 1.4865
C3 C 0.6348(5) 0.0418(5) 0.9774(2)
C4 C 0.1403(5) 0.0260(5) 1.3893(2)
C5 C 0.6570(5) -0.0328(5) 1.0032(2)
H34 H 0.6979 -0.0837 0.9922
C6 C 0.5563(5) 0.0469(6) 1.0601(2)
C7 C -0.0385(5) 0.0600(5) 1.4688(2)
H35 H -0.0640 0.0997 1.4477
B33 B 0.1073(5) -0.1580(6) 1.2504(3)
H36 H 0.1519 -0.2072 1.2697
C8 C 0.7055(5) 0.0340(5) 0.8978(2)
C9 C 0.5748(5) 0.1180(6) 0.9918(3)
H37 H 0.5614 0.1668 0.9735
C10 C 0.5346(6) 0.1211(6) 1.0342(2)
H38 H 0.4936 0.1721 1.0450
C11 C 0.4806(5) 0.0513(6) 1.1382(3)
B34 B 0.1430(6) -0.1201(6) 1.1947(3)
H39 H 0.2105 -0.1450 1.1788
B35 B 0.5073(6) -0.1814(6) 1.1182(3)
H40 H 0.4869 -0.1233 1.0971
B36 B -0.0360(6) -0.1210(6) 1.1958(3)
H41 H -0.0827 -0.1467 1.1811
B37 B 0.0122(6) 0.3798(6) 1.2909(3)
H42 H 0.0197 0.4129 1.2592
B38 B 0.4342(7) -0.2514(6) 1.1368(3)
H43 H 0.3672 -0.2378 1.1275
B39 B 0.0538(6) -0.0980(6) 1.1629(3)
H44 H 0.0658 -0.1087 1.1272
B40 B -0.0082(5) 0.0282(6) 1.2352(3)
H45 H -0.0366 0.0971 1.2448
B41 B 0.4692(7) -0.3056(6) 1.1908(3)
H46 H 0.4248 -0.3269 1.2158
B42 B 0.0724(6) -0.0059(6) 1.1856(3)
H47 H 0.0953 0.0412 1.1641
B43 B -0.0712(5) -0.0452(6) 1.2406(3)
H48 H -0.1400 -0.0220 1.2548
B44 B 0.0117(5) -0.0664(6) 1.2752(3)
H49 H -0.0054 -0.0580 1.3108
B45 B 0.5612(6) -0.2656(7) 1.2050(3)
H50 H 0.5747 -0.2605 1.2390
B46 B 0.6155(7) -0.2528(7) 1.1117(4)
H51 H 0.6633 -0.2382 1.0862
B47 B 0.0733(6) -0.1871(6) 1.2015(3)
H52 H 0.0974 -0.2554 1.1904
B48 B 0.5858(5) -0.1910(7) 1.1607(3)
H53 H 0.6151 -0.1389 1.1663
B49 B -0.0361(5) -0.0105(6) 1.1876(3)
H54 H -0.0825 0.0349 1.1675
B50 B -0.0028(6) -0.1557(6) 1.2491(3)
H55 H -0.0274 -0.2041 1.2687
B51 B 0.5041(8) -0.3604(7) 1.1396(4)
H56 H 0.4795 -0.4149 1.1323
B52 B 0.6476(7) -0.3019(8) 1.1628(4)
H57 H 0.7159 -0.3192 1.1706
B53 B 0.6147(8) -0.3607(8) 1.1238(4)
H58 H 0.6623 -0.4163 1.1063
B54 B 0.5276(8) -0.2877(7) 1.0976(3)
H62 H 0.5184 -0.2958 1.0632
B55 B 0.5786(8) -0.3690(7) 1.1801(4)
H63 H 0.6021 -0.4297 1.1990
B56 B 0.297(2) 0.193(2) 1.0879(8)
H220 H 0.3447 0.1321 1.0752
B57 B 0.1755(16) 0.2073(18) 1.0987(8)
H221 H 0.1466 0.1555 1.0921
B58 B 0.2205(14) 0.2636(18) 1.0539(8)
H222 H 0.2190 0.2457 1.0198
B59 B 0.1517(15) 0.3907(12) 1.1240(7)
H223 H 0.1061 0.4541 1.1348
B60 B 0.1308(14) 0.2913(16) 1.1445(6)
H224 H 0.0723 0.2934 1.1674
B61 B 0.2266(16) 0.3247(12) 1.1596(7)
H225 H 0.2307 0.3473 1.1924
B62 B 0.3081(15) 0.2960(11) 1.0708(5)
H226 H 0.3636 0.2991 1.0469
B63 B 0.3261(14) 0.2647(13) 1.1260(6)
H227 H 0.3918 0.2484 1.1372
B64 B 0.2047(16) 0.3720(13) 1.0698(6)
H228 H 0.1928 0.4249 1.0453
B65 B 0.1222(17) 0.3232(16) 1.0872(8)
H229 H 0.0578 0.3436 1.0744
B66 B 0.2683(17) 0.3735(12) 1.1133(7)
H230 H 0.2977 0.4263 1.1172
C80 C 0.6173(5) -0.0302(6) 1.0456(2)
H231 H 0.6311 -0.0789 1.0640
Ag1A Ag 0.67506(3) 0.06866(3) 0.743182(16)
Ag1A_2 Ag -0.32494(3) 0.06866(3) 1.743182(16)
Sn1A Sn 0.63030(3) -0.07391(3) 0.702130(17)
Sn1A_2 Sn -0.36970(3) -0.07391(3) 1.702130(17)
Sn2A Sn 0.56135(3) 0.15408(3) 0.810399(16)
Sn2A_2 Sn -0.43865(3) 0.15408(3) 1.810399(16)
Ag2A Ag 0.77773(3) -0.11080(3) 0.756525(16)
Ag2A_2 Ag -0.22227(3) -0.11080(3) 1.756525(16)
Sn3A Sn 0.65899(3) 0.17737(3) 0.673884(16)
Sn3A_2 Sn -0.34101(3) 0.17737(3) 1.673884(16)
Ag3A Ag 0.60340(5) -0.04629(5) 0.80221(2)
Ag3A_2 Ag -0.39660(5) -0.04629(5) 1.80221(2)
Ag4A Ag 0.74096(5) 0.01482(5) 0.82818(2)
Ag4A_2 Ag -0.25904(5) 0.01482(5) 1.82818(2)
Sn4A Sn 0.89249(3) -0.23773(3) 0.709557(18)
Sn4A_2 Sn -0.10751(3) -0.23773(3) 1.709557(18)
Ag5A Ag -0.21290(4) -0.02324(4) 1.674177(17)
Ag5A_2 Ag 0.78710(4) -0.02324(4) 0.674177(17)
Sn5A Sn 0.76067(4) -0.17854(4) 0.838895(17)
Sn5A_2 Sn -0.23933(4) -0.17854(4) 1.838895(17)
B1A B 0.6125(5) -0.2108(5) 0.6911(3)
B1A_2 B -0.3875(5) -0.2108(5) 1.6911(3)
H1A H 0.6764 -0.2613 0.6873
B2A B 0.9129(5) -0.2607(6) 0.6337(3)
H2A H 0.8573 -0.2180 0.6179
B3A B 0.4915(5) -0.0246(6) 0.6766(3)
B3A_2 B -0.5085(5) -0.0246(6) 1.6766(3)
H3A H 0.4793 0.0424 0.6635
B4A B 0.6256(6) 0.2172(5) 0.5618(3)
H4A H 0.6410 0.1856 0.5296
B5A B 0.5014(5) 0.3395(5) 0.6215(3)
H5A H 0.4361 0.3871 0.6277
B6A B 0.5177(6) 0.2433(5) 0.5900(3)
H6A H 0.4633 0.2288 0.5762
B7A B 0.5260(5) -0.2114(6) 0.6600(3)
H7A H 0.5379 -0.2627 0.6354
B8A B 0.5700(5) -0.1240(6) 0.6480(3)
B8A_2 B -0.4300(5) -0.1240(6) 1.6480(3)
H8A H 0.6075 -0.1200 0.6161
B9A B 0.5744(5) 0.3206(5) 0.6626(3)
H9A H 0.5556 0.3566 0.6936
B10A B 0.6755(5) 0.2979(5) 0.5753(3)
H10A H 0.7225 0.3185 0.5517
B11A B 0.4446(5) -0.1421(6) 0.7445(3)
H11A H 0.4036 -0.1484 0.7750
B12A B 0.5610(5) 0.3291(5) 0.5687(3)
H12A H 0.5344 0.3701 0.5409
B13A B 0.4846(5) -0.0501(6) 0.7371(3)
B13A_2 B -0.5154(5) -0.0501(6) 1.7371(3)
H13A H 0.4686 0.0007 0.7623
B14A B 1.0925(6) -0.3970(6) 0.6781(4)
H14A H 1.1507 -0.4408 0.6915
B15A B 0.6888(5) 0.2929(5) 0.6320(3)
H15A H 0.7434 0.3109 0.6437
B16A B 0.9664(6) -0.3688(6) 0.6152(3)
H16A H 0.9428 -0.3945 0.5878
B17A B 1.0451(5) -0.2919(6) 0.6998(3)
H17A H 1.0733 -0.2687 0.7262
B18A B 0.9996(6) -0.2198(6) 0.6540(3)
H18A H 0.9989 -0.1510 0.6510
B19A B 0.4554(5) -0.1033(6) 0.6526(3)
H19A H 0.4209 -0.0846 0.6231
B20A B 0.4239(5) -0.1733(5) 0.6928(3)
H20A H 0.3695 -0.2002 0.6894
B21A B 0.6044(6) 0.1575(5) 0.6086(3)
H21A H 0.6052 0.0890 0.6055
B22A B 0.9062(5) -0.3598(5) 0.6671(3)
H22A H 0.8460 -0.3800 0.6725
B23A B 0.5596(6) -0.1651(6) 0.7452(3)
B23A_2 B -0.4404(6) -0.1651(6) 1.7452(3)
H23A H 0.5908 -0.1861 0.7756
B24A B 0.7053(6) 0.1922(5) 0.5995(3)
H24A H 0.7705 0.1460 0.5909
B25A B 0.5993(5) 0.3724(5) 0.6128(3)
H25A H 0.5976 0.4414 0.6136
B26A B 1.0799(6) -0.3939(7) 0.6208(4)
H26A H 1.1297 -0.4357 0.5971
B27A B 1.0210(6) -0.2856(7) 0.6072(3)
H27A H 1.0326 -0.2571 0.5747
B28A B 1.0094(6) -0.4372(6) 0.6586(4)
H28A H 1.0138 -0.5071 0.6594
B29A B 0.5178(5) -0.2355(6) 0.7176(3)
H29A H 0.5232 -0.3018 0.7305
B30A B 0.4051(6) -0.0605(6) 0.7043(3)
H30A H 0.3386 -0.0145 0.7087
B31A B 1.0989(6) -0.3043(6) 0.6464(3)
H31A H 1.1612 -0.2883 0.6393
Sn6A Sn 0.86458(3) 0.02424(3) 0.746995(17)
Sn6A_2 Sn -0.13542(3) 0.02424(3) 1.746995(17)
B32A B 0.5245(5) 0.2353(5) 0.6478(3)
H32A H 0.4742 0.2164 0.6699
N1A N -0.0983(4) -0.0212(4) 1.57829(19)
N2A N 0.3252(4) -0.0377(4) 1.0662(2)
N3A N 0.4844(4) -0.0503(4) 0.8963(2)
C1A C -0.0482(4) -0.0110(5) 1.5384(2)
C2A C -0.0878(5) 0.0498(5) 1.5080(2)
H33A H -0.1461 0.0831 1.5135
C3A C 0.3652(5) -0.0418(5) 1.0226(2)
C4A C -0.1403(5) -0.0260(5) 1.6107(2)
C4A_2 C 0.8597(5) -0.0260(5) 0.6107(2)
C5A C 0.3430(5) 0.0328(5) 0.9968(2)
H34A H 0.3021 0.0837 1.0078
C6A C 0.4437(5) -0.0469(6) 0.9399(2)
C7A C 0.0385(5) -0.0600(5) 1.5312(2)
H35A H 0.0640 -0.0997 1.5523
B33A B 0.8927(5) 0.1580(6) 0.7496(3)
B33A_2 B -0.1073(5) 0.1580(6) 1.7496(3)
H36A H 0.8481 0.2072 0.7303
C8A C 0.2945(5) -0.0340(5) 1.1022(2)
C9A C 0.4252(5) -0.1180(6) 1.0082(3)
H37A H 0.4386 -0.1668 1.0265
C10A C 0.4654(6) -0.1211(6) 0.9658(2)
H38A H 0.5064 -0.1721 0.9550
C11A C 0.5194(5) -0.0513(6) 0.8618(3)
B34A B 0.8570(6) 0.1201(6) 0.8053(3)
B34A_2 B -0.1430(6) 0.1201(6) 1.8053(3)
H39A H 0.7895 0.1450 0.8212
B35A B 0.4927(6) 0.1814(6) 0.8818(3)
H40A H 0.5131 0.1233 0.9029
B36A B 1.0360(6) 0.1210(6) 0.8042(3)
H41A H 1.0827 0.1467 0.8189
B37A B 0.9878(6) -0.3798(6) 0.7091(3)
H42A H 0.9803 -0.4129 0.7408
B38A B 0.5658(7) 0.2514(6) 0.8632(3)
H43A H 0.6328 0.2378 0.8725
B39A B 0.9462(6) 0.0980(6) 0.8371(3)
H44A H 0.9342 0.1087 0.8728
B40A B 1.0082(5) -0.0282(6) 0.7648(3)
B40A_2 B 0.0082(5) -0.0282(6) 1.7648(3)
H45A H 1.0366 -0.0971 0.7552
B41A B 0.5308(7) 0.3056(6) 0.8092(3)
H46A H 0.5752 0.3269 0.7842
B42A B 0.9276(6) 0.0059(6) 0.8144(3)
B42A_2 B -0.0724(6) 0.0059(6) 1.8144(3)
H47A H 0.9047 -0.0412 0.8359
B43A B 1.0712(5) 0.0452(6) 0.7594(3)
H48A H 1.1400 0.0220 0.7452
B44A B 0.9883(5) 0.0664(6) 0.7248(3)
B44A_2 B -0.0117(5) 0.0664(6) 1.7248(3)
H49A H 1.0054 0.0580 0.6892
B45A B 0.4388(6) 0.2656(7) 0.7950(3)
H50A H 0.4253 0.2605 0.7610
B46A B 0.3845(7) 0.2528(7) 0.8883(4)
H51A H 0.3367 0.2382 0.9138
B47A B 0.9267(6) 0.1871(6) 0.7985(3)
H52A H 0.9026 0.2554 0.8096
B48A B 0.4142(5) 0.1910(7) 0.8393(3)
H53A H 0.3849 0.1389 0.8337
B49A B 1.0361(5) 0.0105(6) 0.8124(3)
H54A H 1.0825 -0.0349 0.8325
B50A B 1.0028(6) 0.1557(6) 0.7509(3)
H55A H 1.0274 0.2041 0.7313
B51A B 0.4959(8) 0.3604(7) 0.8604(4)
H56A H 0.5205 0.4149 0.8677
B52A B 0.3524(7) 0.3019(8) 0.8372(4)
H57A H 0.2841 0.3192 0.8294
B53A B 0.3853(8) 0.3607(8) 0.8762(4)
H58A H 0.3377 0.4163 0.8937
B54A B 0.4724(8) 0.2877(7) 0.9024(3)
H62A H 0.4816 0.2958 0.9368
B55A B 0.4214(8) 0.3690(7) 0.8199(4)
H63A H 0.3979 0.4297 0.8010
B56A B 0.703(2) -0.193(2) 0.9121(8)
H220A H 0.6553 -0.1321 0.9248
B57A B 0.8245(16) -0.2073(18) 0.9013(8)
H221A H 0.8534 -0.1555 0.9079
B58A B 0.7795(14) -0.2636(18) 0.9461(8)
H222A H 0.7810 -0.2457 0.9802
B59A B 0.8483(15) -0.3907(12) 0.8760(7)
H223A H 0.8939 -0.4541 0.8652
B60A B 0.8692(14) -0.2913(16) 0.8555(6)
H224A H 0.9277 -0.2934 0.8326
B61A B 0.7734(16) -0.3247(12) 0.8404(7)
H225A H 0.7693 -0.3473 0.8076
B62A B 0.6919(15) -0.2960(11) 0.9292(5)
H226A H 0.6364 -0.2991 0.9531
B63A B 0.6739(14) -0.2647(13) 0.8740(6)
H227A H 0.6082 -0.2484 0.8628
B64A B 0.7953(16) -0.3720(13) 0.9302(6)
H228A H 0.8072 -0.4249 0.9547
B65A B 0.8778(17) -0.3232(16) 0.9128(8)
H229A H 0.9422 -0.3436 0.9256
B66A B 0.7317(17) -0.3735(12) 0.8867(7)
H230A H 0.7023 -0.4263 0.8828
C80A C 0.3827(5) 0.0302(6) 0.9544(2)
H231A H 0.3689 0.0789 0.9360
N11? N 0.5000 0.0000 0.5000
C55? C 0.5197(7) -0.1559(7) 0.5263(3)
H161? H 0.5373 -0.2155 0.5169
H162? H 0.5571 -0.1492 0.5474
H163? H 0.4601 -0.1403 0.5395
C56? C 0.6578(8) -0.0253(8) 0.5128(4)
H164? H 0.6979 -0.0203 0.5328
H165? H 0.6695 -0.0855 0.5052
H166? H 0.6652 0.0082 0.4867
C57? C 0.5599(10) 0.0109(11) 0.5352(6)
H167? H 0.5469 0.0718 0.5430
H168? H 0.5512 -0.0225 0.5616
C58? C 0.5275(9) -0.0940(9) 0.4855(5)
H169? H 0.4903 -0.1011 0.4639
H170? H 0.5876 -0.1100 0.4719
C59? C 0.488(2) 0.5050(18) 1.0494(11)
H171? H 0.5266 0.5348 1.0593
H172? H 0.4278 0.5385 1.0591
C60? C 0.4304(19) 0.468(2) 0.9818(11)
H173? H 0.4439 0.4058 0.9861
H174? H 0.4320 0.4802 0.9505
C61? C 0.581(2) 0.461(2) 0.9799(12)
H175? H 0.5815 0.4735 0.9487
H176? H 0.5938 0.3979 0.9838
C62? C 0.481(2) 0.598(2) 0.9796(11)
H177? H 0.4212 0.6325 0.9894
H178? H 0.5210 0.6265 0.9889
N13? N 0.5000 0.5000 1.0000
C67? C 0.5076(14) 0.4110(14) 1.0702(7)
H185? H 0.4994 0.4152 1.1016
H186? H 0.4685 0.3819 1.0607
H187? H 0.5671 0.3783 1.0610
H188? H 0.5187 0.3542 1.0837
H189? H 0.5477 0.4397 1.0789
H190? H 0.4485 0.4451 1.0792
C71? C 0.347(2) 0.508(2) 1.0014(10)
H197? H 0.3055 0.4863 0.9887
H198? H 0.3443 0.4955 1.0323
H199? H 0.3327 0.5702 0.9969
H200? H 0.3197 0.4790 1.0242
H201? H 0.3034 0.5578 0.9911
H202? H 0.3728 0.4686 0.9776
B67? B 0.722(2) -0.209(2) 0.9114(11)
B68? B 0.830(2) -0.1848(16) 0.9055(9)
B69? B 0.915(2) -0.3699(15) 0.8809(9)
B70? B 0.9075(16) -0.2863(16) 0.9189(8)
B71? B 0.805(2) -0.254(3) 0.9452(13)
B72? B 0.743(2) -0.318(2) 0.9276(8)
B73? B 0.808(3) -0.3871(19) 0.8867(11)
B74? B 0.852(2) -0.3663(16) 0.9323(7)
B75? B 0.9035(16) -0.2607(15) 0.8626(8)
B76? B 0.842(2) -0.3293(14) 0.8418(8)
B77? B 0.728(2) -0.2965(18) 0.8726(10)
C81? C 0.4061(11) 0.0289(12) 0.5229(5)
C82? C 0.5134(12) 0.0539(11) 0.4609(6)
C83? C 0.0174(19) 0.323(2) 0.9685(9)
C84? C -0.082(5) 0.369(5) 0.977(2)
C85? C 0.055(3) 0.231(2) 0.9127(13)
C86? C 0.1527(6) 0.3170(6) 0.9253(3)
C87? C 0.215(2) 0.360(2) 0.7058(13)
C88? C 0.2874(18) 0.3995(19) 0.7144(10)
C89? C 0.160(2) 0.248(2) 0.6772(12)
C90? C 0.183(3) 0.156(3) 0.6551(13)
C91? C 0.2971(19) 0.273(2) 0.6392(11)
C92? C 0.251(3) 0.335(3) 0.6040(15)
C93? C 0.115(3) 0.743(3) 0.8309(16)
C94? C 0.079(3) 0.763(3) 0.8805(13)
C95? C 0.254(3) 0.744(5) 0.837(3)
C96? C 0.237(4) 0.661(4) 0.7785(8)
C97? C 0.226(6) 0.596(6) 0.8571(15)
H232? H 0.2826 0.0430 0.5004
H233? H 0.3565 -0.0333 0.4766
H234? H 0.3491 0.0639 0.4633
H235? H 0.3997 -0.0099 0.5473
H236? H 0.3923 0.0878 0.5340
H237? H 0.4891 0.1906 0.4483
H238? H 0.5129 0.1659 0.4963
H239? H 0.4190 0.1718 0.4841
H240? H 0.4810 0.0435 0.4379
H241? H 0.5751 0.0376 0.4500
H242? H 0.0301 0.2630 0.9789
H243? H 0.0488 0.3526 0.9845
H244? H -0.1005 0.3684 1.0076
H245? H -0.1133 0.3382 0.9615
H246? H 0.1677 0.1174 0.9163
H247? H 0.1700 0.1919 0.9473
H248? H 0.1956 0.1982 0.8967
H249? H -0.0947 0.4280 0.9663
H250? H 0.0409 0.2192 0.8842
H251? H 0.0162 0.2136 0.9353
H252? H 0.1129 0.4496 0.9287
H253? H 0.1770 0.2676 0.9441
H254? H 0.1953 0.4070 0.9536
H255? H 0.1022 0.4052 0.9746
H256? H 0.1903 0.3124 0.8979
H257? H 0.2616 0.4553 0.7283
H258? H 0.3202 0.4069 0.6871
H259? H 0.3259 0.3611 0.7333
H260? H 0.1767 0.4017 0.6876
H261? H 0.1811 0.3577 0.7338
H262? H 0.1262 0.2927 0.6586
H263? H 0.1252 0.2479 0.7052
H264? H 0.1302 0.1434 0.6503
H265? H 0.2158 0.1122 0.6740
H266? H 0.2179 0.1567 0.6276
H267? H 0.3448 0.2932 0.6468
H268? H 0.3227 0.2155 0.6264
H269? H 0.2924 0.3359 0.5791
H270? H 0.2266 0.3927 0.6158
H271? H 0.2047 0.3147 0.5952
H272? H 0.0209 0.8030 0.8822
H273? H 0.1167 0.7877 0.8942
H274? H 0.0769 0.7092 0.8953
H275? H 0.1159 0.7974 0.8156
H276? H 0.0773 0.7178 0.8169
H277? H 0.2149 0.7796 0.8602
H278? H 0.2524 0.7806 0.8112
H279? H 0.3530 0.7788 0.8566
H280? H 0.3873 0.6955 0.8271
H281? H 0.3526 0.6872 0.8764
H282? H 0.1927 0.6399 0.7673
H283? H 0.2936 0.6176 0.7719
H284? H 0.2502 0.7466 0.7249
H285? H 0.2828 0.7728 0.7671
H286? H 0.1821 0.7962 0.7629
H287? H 0.2872 0.5616 0.8538
H288? H 0.1926 0.5610 0.8466
H289? H 0.2079 0.5565 0.9206
H290? H 0.1365 0.6427 0.9092
H291? H 0.2305 0.6454 0.9169
H292? H 0.6607 -0.1600 0.9234
H293? H 0.8377 -0.1210 0.9127
H294? H 0.9766 -0.4217 0.8721
H295? H 0.9649 -0.2854 0.9351
H296? H 0.7965 -0.2309 0.9790
H297? H 0.6929 -0.3363 0.9501
H298? H 0.7992 -0.4512 0.8811
H299? H 0.8724 -0.4180 0.9569
H300? H 0.9577 -0.2433 0.8429
H301? H 0.8592 -0.3568 0.8085
H302? H 0.6696 -0.3040 0.8591
loop_
_geom_bond_atom_site_label_1
_geom_bond_atom_site_label_2
_geom_bond_site_symmetry_1
_geom_bond_site_symmetry_2
Ag1 Sn1 1_555 1_555
Sn1 Ag2 1_555 1_555
Sn2 Ag1 1_555 1_555
Ag2 Ag1 1_555 1_555
Sn3 Ag1 1_555 1_555
Ag3 Ag1 1_555 1_555
Ag4 Ag1 1_555 1_555
Sn4 Ag2 1_555 1_555
Ag5 Ag1 1_555 1_555
Sn5 Ag2 1_555 1_555
B1 Sn1 1_555 1_555
H1 B1 1_555 1_555
B2 Sn4 1_555 1_555
H2 B2 1_555 1_555
B3 Sn1 1_555 1_555
H3 B3 1_555 1_555
B4 H4 1_555 1_555
B5 H5 1_555 1_555
B6 B4 1_555 1_555
H6 B6 1_555 1_555
B7 B1 1_555 1_555
H7 B7 1_555 1_555
B8 Sn1 1_555 1_555
H8 B8 1_555 1_555
B9 Sn3 1_555 1_555
H9 B9 1_555 1_555
B10 B4 1_555 1_555
H10 B10 1_555 1_555
B11 H11 1_555 1_555
B12 B4 1_555 1_555
H12 B12 1_555 1_555
B13 Sn1 1_555 1_555
H13 B13 1_555 1_555
B14 H14 1_555 1_555
B15 Sn3 1_555 1_555
H15 B15 1_555 1_555
B16 B2 1_555 1_555
H16 B16 1_555 1_555
B17 Sn4 1_555 1_555
H17 B17 1_555 1_555
B18 Sn4 1_555 1_555
H18 B18 1_555 1_555
B19 B3 1_555 1_555
H19 B19 1_555 1_555
B20 B7 1_555 1_555
H20 B20 1_555 1_555
B21 Sn3 1_555 1_555
H21 B21 1_555 1_555
B22 Sn4 1_555 1_555
H22 B22 1_555 1_555
B23 Sn1 1_555 1_555
H23 B23 1_555 1_555
B24 Sn3 1_555 1_555
H24 B24 1_555 1_555
B25 B5 1_555 1_555
H25 B25 1_555 1_555
B26 B14 1_555 1_555
H26 B26 1_555 1_555
B27 B2 1_555 1_555
H27 B27 1_555 1_555
B28 B14 1_555 1_555
H28 B28 1_555 1_555
B29 B1 1_555 1_555
H29 B29 1_555 1_555
B30 B3 1_555 1_555
H30 B30 1_555 1_555
B31 B14 1_555 1_555
H31 B31 1_555 1_555
Sn6 Ag1 1_555 1_555
B32 Sn3 1_555 1_555
H32 B32 1_555 1_555
N1 C1 1_555 1_555
N2 C3 1_555 1_555
N3 C6 1_555 1_555
C1 C2 1_555 1_555
C2 H33 1_555 1_555
C3 C5 1_555 1_555
C4 Ag5 1_555 1_555
C5 H34 1_555 1_555
C6 C10 1_555 1_555
C7 C1 1_555 1_555
H35 C7 1_555 1_555
B33 Sn6 1_555 1_555
H36 B33 1_555 1_555
C8 N2 1_555 1_555
C9 C3 1_555 1_555
H37 C9 1_555 1_555
C10 C9 1_555 1_555
H38 C10 1_555 1_555
C11 Ag3 1_555 1_555
B34 Sn6 1_555 1_555
H39 B34 1_555 1_555
B35 Sn2 1_555 1_555
H40 B35 1_555 1_555
B36 H41 1_555 1_555
B37 Sn4 1_555 1_555
H42 B37 1_555 1_555
B38 Sn2 1_555 1_555
H43 B38 1_555 1_555
B39 B34 1_555 1_555
H44 B39 1_555 1_555
B40 Sn6 1_555 1_555
H45 B40 1_555 1_555
B41 Sn2 1_555 1_555
H46 B41 1_555 1_555
B42 Sn6 1_555 1_555
H47 B42 1_555 1_555
B43 B36 1_555 1_555
H48 B43 1_555 1_555
B44 Sn6 1_555 1_555
H49 B44 1_555 1_555
B45 Sn2 1_555 1_555
H50 B45 1_555 1_555
B46 B35 1_555 1_555
H51 B46 1_555 1_555
B47 B33 1_555 1_555
H52 B47 1_555 1_555
B48 Sn2 1_555 1_555
H53 B48 1_555 1_555
B49 B36 1_555 1_555
H54 B49 1_555 1_555
B50 B33 1_555 1_555
H55 B50 1_555 1_555
B51 B38 1_555 1_555
H56 B51 1_555 1_555
B52 B45 1_555 1_555
H57 B52 1_555 1_555
B53 B46 1_555 1_555
H58 B53 1_555 1_555
C12 H59 1_555 1_555
H60 C12 1_555 1_555
H61 C12 1_555 1_555
B54 B35 1_555 1_555
H62 B54 1_555 1_555
B55 B41 1_555 1_555
H63 B55 1_555 1_555
C13 C12 1_555 1_555
H64 C13 1_555 1_555
H65 C13 1_555 1_555
C14 H66 1_555 1_555
H67 C14 1_555 1_555
N4 C22 1_555 1_555
N5 C14 1_555 1_555
N6 C13 1_555 1_555
C15 N5 1_555 1_555
H68 C15 1_555 1_555
H69 C15 1_555 1_555
C16 N5 1_555 1_555
H70 C16 1_555 1_555
H71 C16 1_555 1_555
C17 N5 1_555 1_555
H72 C17 1_555 1_555
H73 C17 1_555 1_555
C18 C15 1_555 1_555
H74 C18 1_555 1_555
H75 C18 1_555 1_555
H76 C18 1_555 1_555
C19 C17 1_555 1_555
H77 C19 1_555 1_555
H78 C19 1_555 1_555
H79 C19 1_555 1_555
C20 H80 1_555 1_555
H81 C20 1_555 1_555
H82 C20 1_555 1_555
C21 H83 1_555 1_555
H84 C21 1_555 1_555
H85 C21 1_555 1_555
C22 C20 1_555 1_555
H86 C22 1_555 1_555
H87 C22 1_555 1_555
C23 C14 1_555 1_555
H88 C23 1_555 1_555
H89 C23 1_555 1_555
H90 C23 1_555 1_555
C24 H91 1_555 1_555
H92 C24 1_555 1_555
H93 C24 1_555 1_555
C25 C16 1_555 1_555
H94 C25 1_555 1_555
H95 C25 1_555 1_555
H96 C25 1_555 1_555
C26 N4 1_555 1_555
H97 C26 1_555 1_555
H98 C26 1_555 1_555
C27 N6 1_555 1_555
H99 C27 1_555 1_555
H100 C27 1_555 1_555
C28 N4 1_555 1_555
H101 C28 1_555 1_555
H102 C28 1_555 1_555
C29 N6 1_555 1_555
H103 C29 1_555 1_555
H104 C29 1_555 1_555
C30 H105 1_555 1_555
H106 C30 1_555 1_555
H107 C30 1_555 1_555
C31 N6 1_555 1_555
H108 C31 1_555 1_555
H109 C31 1_555 1_555
C32 N4 1_555 1_555
H110 C32 1_555 1_555
H111 C32 1_555 1_555
C33 C27 1_555 1_555
H112 C33 1_555 1_555
H113 C33 1_555 1_555
H114 C33 1_555 1_555
C34 C29 1_555 1_555
H115 C34 1_555 1_555
H116 C34 1_555 1_555
H117 C34 1_555 1_555
C35 C24 1_555 1_555
C36 C32 1_555 1_555
H118 C36 1_555 1_555
H119 C36 1_555 1_555
H120 C36 1_555 1_555
C37 H121 1_555 1_555
H122 C37 1_555 1_555
C38 C37 1_555 1_555
H123 C38 1_555 1_555
H124 C38 1_555 1_555
H125 C38 1_555 1_555
N7 C37 1_555 1_555
C39 N7 1_555 1_555
H126 C39 1_555 1_555
H127 C39 1_555 1_555
C40 C39 1_555 1_555
H128 C40 1_555 1_555
H129 C40 1_555 1_555
H130 C40 1_555 1_555
C41 N7 1_555 1_555
H131 C41 1_555 1_555
H132 C41 1_555 1_555
C42 C41 1_555 1_555
H133 C42 1_555 1_555
H134 C42 1_555 1_555
H135 C42 1_555 1_555
C43 N7 1_555 1_555
H136 C43 1_555 1_555
H137 C43 1_555 1_555
C44 C43 1_555 1_555
H138 C44 1_555 1_555
H139 C44 1_555 1_555
H140 C44 1_555 1_555
N8 C35 1_555 1_555
N9 C45 1_555 1_555
C45 H141 1_555 1_555
H142 C45 1_555 1_555
C46 N9 1_555 1_555
H143 C46 1_555 1_555
H144 C46 1_555 1_555
C47 N9 1_555 1_555
H145 C47 1_555 1_555
H146 C47 1_555 1_555
C48 N9 1_555 1_555
H147 C48 1_555 1_555
H148 C48 1_555 1_555
C49 C48 1_555 1_555
H149 C49 1_555 1_555
H150 C49 1_555 1_555
H151 C49 1_555 1_555
C50 C47 1_555 1_555
H152 C50 1_555 1_555
H153 C50 1_555 1_555
H154 C50 1_555 1_555
C51 C46 1_555 1_555
H155 C51 1_555 1_555
H156 C51 1_555 1_555
H157 C51 1_555 1_555
C52 C45 1_555 1_555
H158 C52 1_555 1_555
H159 C52 1_555 1_555
H160 C52 1_555 1_555
N10 C54 1_555 1_555
C53 C54 1_555 1_555
C63 H179 1_555 1_555
H180 C63 1_555 1_555
H181 C63 1_555 1_555
N12 C73 1_555 1_555
C64 C63 1_555 1_555
C65 H182 1_555 1_555
H183 C65 1_555 1_555
H184 C65 1_555 1_555
N14 C64 1_555 1_555
C66 C70 1_555 1_555
C68 H191 1_555 1_555
H192 C68 1_555 1_555
H193 C68 1_555 1_555
C69 C28 1_555 1_555
H194 C69 1_555 1_555
H195 C69 1_555 1_555
H196 C69 1_555 1_555
C72 H203 1_555 1_555
H204 C72 1_555 1_555
H205 C72 1_555 1_555
N15 C66 1_555 1_555
C73 C68 1_555 1_555
H206 C73 1_555 1_555
H207 C73 1_555 1_555
C74 N12 1_555 1_555
H208 C74 1_555 1_555
H209 C74 1_555 1_555
C75 C74 1_555 1_555
H210 C75 1_555 1_555
H211 C75 1_555 1_555
H212 C75 1_555 1_555
C76 N12 1_555 1_555
H213 C76 1_555 1_555
H214 C76 1_555 1_555
C77 N12 1_555 1_555
H215 C77 1_555 1_555
H216 C77 1_555 1_555
C78 H217 1_555 1_555
H218 C78 1_555 1_555
H219 C78 1_555 1_555
C79 C78 1_555 1_555
N16 C79 1_555 1_555
B56 Sn5 1_555 1_555
H220 B56 1_555 1_555
B57 Sn5 1_555 1_555
H221 B57 1_555 1_555
B58 B56 1_555 1_555
H222 B58 1_555 1_555
B59 H223 1_555 1_555
B60 Sn5 1_555 1_555
H224 B60 1_555 1_555
B61 Sn5 1_555 1_555
H225 B61 1_555 1_555
B62 B56 1_555 1_555
H226 B62 1_555 1_555
B63 Sn5 1_555 1_555
H227 B63 1_555 1_555
B64 B58 1_555 1_555
H228 B64 1_555 1_555
B65 B57 1_555 1_555
H229 B65 1_555 1_555
B66 B59 1_555 1_555
H230 B66 1_555 1_555
C80 C5 1_555 1_555
H231 C80 1_555 1_555
Ag1A Sn1A 1_555 1_555
Ag1A_2 Sn1A_2 1_555 1_555
Sn1A Ag2A 1_555 1_555
Sn1A_2 Ag2A_2 1_555 1_555
Sn2A Ag1A 1_555 1_555
Sn2A_2 Ag1A_2 1_555 1_555
Ag2A Ag1A 1_555 1_555
Ag2A_2 Ag1A_2 1_555 1_555
Sn3A Ag1A 1_555 1_555
Sn3A_2 Ag1A_2 1_555 1_555
Ag3A Ag1A 1_555 1_555
Ag3A_2 Ag1A_2 1_555 1_555
Ag4A C8 1_555 1_555
Ag4A_2 Ag1A_2 1_555 1_555
Sn4A Ag2A 1_555 1_555
Sn4A_2 Ag2A_2 1_555 1_555
Ag5A Ag1A_2 1_555 1_555
Ag5A_2 Ag1A 1_555 1_555
Sn5A Ag2A 1_555 1_555
Sn5A_2 Ag2A_2 1_555 1_555
B1A Sn1A 1_555 1_555
B1A_2 Sn1A_2 1_555 1_555
H1A B1A 1_555 1_555
B2A Sn4A 1_555 1_555
H2A B2A 1_555 1_555
B3A Sn1A 1_555 1_555
B3A_2 Sn1A_2 1_555 1_555
H3A B3A 1_555 1_555
B4A H4A 1_555 1_555
B5A H5A 1_555 1_555
B6A B4A 1_555 1_555
H6A B6A 1_555 1_555
B7A B1A 1_555 1_555
H7A B7A 1_555 1_555
B8A Sn1A 1_555 1_555
B8A_2 Sn1A_2 1_555 1_555
H8A B8A 1_555 1_555
B9A Sn3A 1_555 1_555
H9A B9A 1_555 1_555
B10A B4A 1_555 1_555
H10A B10A 1_555 1_555
B11A H11A 1_555 1_555
B12A B4A 1_555 1_555
H12A B12A 1_555 1_555
B13A Sn1A 1_555 1_555
B13A_2 Sn1A_2 1_555 1_555
H13A B13A 1_555 1_555
B14A H14A 1_555 1_555
B15A Sn3A 1_555 1_555
H15A B15A 1_555 1_555
B16A B2A 1_555 1_555
H16A B16A 1_555 1_555
B17A Sn4A 1_555 1_555
H17A B17A 1_555 1_555
B18A Sn4A 1_555 1_555
H18A B18A 1_555 1_555
B19A B3A 1_555 1_555
H19A B19A 1_555 1_555
B20A B7A 1_555 1_555
H20A B20A 1_555 1_555
B21A Sn3A 1_555 1_555
H21A B21A 1_555 1_555
B22A Sn4A 1_555 1_555
H22A B22A 1_555 1_555
B23A Sn1A 1_555 1_555
B23A_2 Sn1A_2 1_555 1_555
H23A B23A 1_555 1_555
B24A Sn3A 1_555 1_555
H24A B24A 1_555 1_555
B25A B5A 1_555 1_555
H25A B25A 1_555 1_555
B26A B14A 1_555 1_555
H26A B26A 1_555 1_555
B27A B2A 1_555 1_555
H27A B27A 1_555 1_555
B28A B14A 1_555 1_555
H28A B28A 1_555 1_555
B29A B1A 1_555 1_555
H29A B29A 1_555 1_555
B30A B3A 1_555 1_555
H30A B30A 1_555 1_555
B31A B14A 1_555 1_555
H31A B31A 1_555 1_555
Sn6A Ag1A 1_555 1_555
Sn6A_2 Ag1A_2 1_555 1_555
B32A Sn3A 1_555 1_555
H32A B32A 1_555 1_555
N1A C1A 1_555 1_555
N2A C3A 1_555 1_555
N3A C6A 1_555 1_555
C1A C2A 1_555 1_555
C2A C7 1_555 1_555
H33A C2A 1_555 1_555
C3A C5A 1_555 1_555
C4A Ag5A 1_555 1_555
C4A_2 Ag5A_2 1_555 1_555
C5A H34A 1_555 1_555
C6A C10A 1_555 1_555
C7A C2 1_555 1_555
H35A C7A 1_555 1_555
B33A Sn6A 1_555 1_555
B33A_2 Sn6A_2 1_555 1_555
H36A B33A 1_555 1_555
C8A Ag4 1_555 1_555
C9A C3A 1_555 1_555
H37A C9A 1_555 1_555
C10A C9A 1_555 1_555
H38A C10A 1_555 1_555
C11A Ag3A 1_555 1_555
B34A Sn6A 1_555 1_555
B34A_2 Sn6A_2 1_555 1_555
H39A B34A 1_555 1_555
B35A Sn2A 1_555 1_555
H40A B35A 1_555 1_555
B36A H41A 1_555 1_555
B37A Sn4A 1_555 1_555
H42A B37A 1_555 1_555
B38A Sn2A 1_555 1_555
H43A B38A 1_555 1_555
B39A B34A 1_555 1_555
H44A B39A 1_555 1_555
B40A Sn6A 1_555 1_555
B40A_2 Sn6A_2 1_555 1_555
H45A B40A 1_555 1_555
B41A Sn2A 1_555 1_555
H46A B41A 1_555 1_555
B42A Sn6A 1_555 1_555
B42A_2 Sn6A_2 1_555 1_555
H47A B42A 1_555 1_555
B43A B36A 1_555 1_555
H48A B43A 1_555 1_555
B44A Sn6A 1_555 1_555
B44A_2 Sn6A_2 1_555 1_555
H49A B44A 1_555 1_555
B45A Sn2A 1_555 1_555
H50A B45A 1_555 1_555
B46A B35A 1_555 1_555
H51A B46A 1_555 1_555
B47A B33A 1_555 1_555
H52A B47A 1_555 1_555
B48A Sn2A 1_555 1_555
H53A B48A 1_555 1_555
B49A B36A 1_555 1_555
H54A B49A 1_555 1_555
B50A B33A 1_555 1_555
H55A B50A 1_555 1_555
B51A B38A 1_555 1_555
H56A B51A 1_555 1_555
B52A B45A 1_555 1_555
H57A B52A 1_555 1_555
B53A B46A 1_555 1_555
H58A B53A 1_555 1_555
B54A B35A 1_555 1_555
H62A B54A 1_555 1_555
B55A B41A 1_555 1_555
H63A B55A 1_555 1_555
B56A Sn5A 1_555 1_555
H220A B56A 1_555 1_555
B57A Sn5A 1_555 1_555
H221A B57A 1_555 1_555
B58A B56A 1_555 1_555
H222A B58A 1_555 1_555
B59A H223A 1_555 1_555
B60A Sn5A 1_555 1_555
H224A B60A 1_555 1_555
B61A Sn5A 1_555 1_555
H225A B61A 1_555 1_555
B62A B56A 1_555 1_555
H226A B62A 1_555 1_555
B63A Sn5A 1_555 1_555
H227A B63A 1_555 1_555
B64A B58A 1_555 1_555
H228A B64A 1_555 1_555
B65A B57A 1_555 1_555
H229A B65A 1_555 1_555
B66A B59A 1_555 1_555
H230A B66A 1_555 1_555
C80A C5A 1_555 1_555
H231A C80A 1_555 1_555
Sn1 Ag3 1_555 1_555
Sn1 Ag5 1_555 1_555
Sn2 Ag3 1_555 1_555
Sn2 Ag4 1_555 1_555
Ag2 Ag3 1_555 1_555
Ag2 Ag4 1_555 1_555
Ag2 Ag5 1_555 1_555
Ag2 Sn6 1_555 1_555
Ag3 Ag4 1_555 1_555
Ag3 Sn5 1_555 1_555
Ag4 Sn5 1_555 1_555
Ag4 Sn6 1_555 1_555
Ag5 Sn6 1_555 1_555
B1 B8 1_555 1_555
B1 B23 1_555 1_555
B2 B18 1_555 1_555
B2 B22 1_555 1_555
B3 B8 1_555 1_555
B3 B13 1_555 1_555
B4 B21 1_555 1_555
B4 B24 1_555 1_555
B5 B6 1_555 1_555
B5 B9 1_555 1_555
B5 B12 1_555 1_555
B5 B32 1_555 1_555
B6 B12 1_555 1_555
B6 B21 1_555 1_555
B6 B32 1_555 1_555
B7 B8 1_555 1_555
B7 B19 1_555 1_555
B7 B29 1_555 1_555
B8 B19 1_555 1_555
B9 B15 1_555 1_555
B9 B25 1_555 1_555
B9 B32 1_555 1_555
B10 B12 1_555 1_555
B10 B15 1_555 1_555
B10 B24 1_555 1_555
B10 B25 1_555 1_555
B11 B13 1_555 1_555
B11 B20 1_555 1_555
B11 B23 1_555 1_555
B11 B29 1_555 1_555
B11 B30 1_555 1_555
B12 B25 1_555 1_555
B13 B23 1_555 1_555
B13 B30 1_555 1_555
B14 B17 1_555 1_555
B14 B37 1_555 1_555
B15 B24 1_555 1_555
B15 B25 1_555 1_555
B16 B22 1_555 1_555
B16 B26 1_555 1_555
B16 B27 1_555 1_555
B16 B28 1_555 1_555
B17 B18 1_555 1_555
B17 B31 1_555 1_555
B17 B37 1_555 1_555
B18 B27 1_555 1_555
B18 B31 1_555 1_555
B19 B20 1_555 1_555
B19 B30 1_555 1_555
B20 B29 1_555 1_555
B20 B30 1_555 1_555
B21 B24 1_555 1_555
B21 B32 1_555 1_555
B22 B28 1_555 1_555
B22 B37 1_555 1_555
B23 B29 1_555 1_555
B26 B27 1_555 1_555
B26 B28 1_555 1_555
B26 B31 1_555 1_555
B27 B31 1_555 1_555
B28 B37 1_555 1_555
N1 C4 1_555 1_555
N3 C11 1_555 1_555
C6 C80 1_555 1_555
B33 B34 1_555 1_555
B33 B44 1_555 1_555
B34 B42 1_555 1_555
B34 B47 1_555 1_555
B35 B38 1_555 1_555
B35 B48 1_555 1_555
B36 B39 1_555 1_555
B36 B47 1_555 1_555
B36 B50 1_555 1_555
B38 B41 1_555 1_555
B38 B54 1_555 1_555
B39 B42 1_555 1_555
B39 B47 1_555 1_555
B39 B49 1_555 1_555
B40 B42 1_555 1_555
B40 B43 1_555 1_555
B40 B44 1_555 1_555
B40 B49 1_555 1_555
B41 B45 1_555 1_555
B41 B51 1_555 1_555
B42 B49 1_555 1_555
B43 B44 1_555 1_555
B43 B49 1_555 1_555
B43 B50 1_555 1_555
B44 B50 1_555 1_555
B45 B48 1_555 1_555
B45 B55 1_555 1_555
B46 B48 1_555 1_555
B46 B52 1_555 1_555
B46 B54 1_555 1_555
B47 B50 1_555 1_555
B48 B52 1_555 1_555
B51 B53 1_555 1_555
B51 B54 1_555 1_555
B51 B55 1_555 1_555
B52 B53 1_555 1_555
B52 B55 1_555 1_555
B53 B54 1_555 1_555
B53 B55 1_555 1_555
C21 C26 1_555 1_555
C30 C31 1_555 1_555
C65 C77 1_555 1_555
C72 C76 1_555 1_555
B56 B57 1_555 1_555
B56 B63 1_555 1_555
B57 B58 1_555 1_555
B57 B60 1_555 1_555
B58 B62 1_555 1_555
B58 B65 1_555 1_555
B59 B60 1_555 1_555
B59 B61 1_555 1_555
B59 B64 1_555 1_555
B59 B65 1_555 1_555
B60 B61 1_555 1_555
B60 B65 1_555 1_555
B61 B63 1_555 1_555
B61 B66 1_555 1_555
B62 B63 1_555 1_555
B62 B64 1_555 1_555
B62 B66 1_555 1_555
B63 B66 1_555 1_555
B64 B65 1_555 1_555
B64 B66 1_555 1_555
Ag1A Ag4A 1_555 1_555
Sn1A Ag3A 1_555 1_555
Sn1A Ag5A_2 1_555 1_555
Sn1A_2 Ag3A_2 1_555 1_555
Sn1A_2 Ag5A 1_555 1_555
Sn2A Ag3A 1_555 1_555
Sn2A Ag4A 1_555 1_555
Sn2A_2 Ag3A_2 1_555 1_555
Sn2A_2 Ag4A_2 1_555 1_555
Ag2A Ag3A 1_555 1_555
Ag2A Ag4A 1_555 1_555
Ag2A Ag5A_2 1_555 1_555
Ag2A Sn6A 1_555 1_555
Ag2A_2 Ag3A_2 1_555 1_555
Ag2A_2 Ag4A_2 1_555 1_555
Ag2A_2 Ag5A 1_555 1_555
Ag2A_2 Sn6A_2 1_555 1_555
Ag3A Ag4A 1_555 1_555
Ag3A Sn5A 1_555 1_555
Ag3A_2 Ag4A_2 1_555 1_555
Ag3A_2 Sn5A_2 1_555 1_555
Ag4A Sn5A 1_555 1_555
Ag4A Sn6A 1_555 1_555
Ag4A_2 Sn5A_2 1_555 1_555
Ag4A_2 Sn6A_2 1_555 1_555
Ag5A Sn6A_2 1_555 1_555
Ag5A_2 Sn6A 1_555 1_555
B1A B8A 1_555 1_555
B1A B23A 1_555 1_555
B1A_2 B8A_2 1_555 1_555
B1A_2 B23A_2 1_555 1_555
B2A B18A 1_555 1_555
B2A B22A 1_555 1_555
B3A B8A 1_555 1_555
B3A B13A 1_555 1_555
B3A_2 B8A_2 1_555 1_555
B3A_2 B13A_2 1_555 1_555
B4A B21A 1_555 1_555
B4A B24A 1_555 1_555
B5A B6A 1_555 1_555
B5A B9A 1_555 1_555
B5A B12A 1_555 1_555
B5A B32A 1_555 1_555
B6A B12A 1_555 1_555
B6A B21A 1_555 1_555
B6A B32A 1_555 1_555
B7A B8A 1_555 1_555
B7A B19A 1_555 1_555
B7A B29A 1_555 1_555
B8A B19A 1_555 1_555
B9A B15A 1_555 1_555
B9A B25A 1_555 1_555
B9A B32A 1_555 1_555
B10A B12A 1_555 1_555
B10A B15A 1_555 1_555
B10A B24A 1_555 1_555
B10A B25A 1_555 1_555
B11A B13A 1_555 1_555
B11A B20A 1_555 1_555
B11A B23A 1_555 1_555
B11A B29A 1_555 1_555
B11A B30A 1_555 1_555
B12A B25A 1_555 1_555
B13A B23A 1_555 1_555
B13A B30A 1_555 1_555
B13A_2 B23A_2 1_555 1_555
B14A B17A 1_555 1_555
B14A B37A 1_555 1_555
B15A B24A 1_555 1_555
B15A B25A 1_555 1_555
B16A B22A 1_555 1_555
B16A B26A 1_555 1_555
B16A B27A 1_555 1_555
B16A B28A 1_555 1_555
B17A B18A 1_555 1_555
B17A B31A 1_555 1_555
B17A B37A 1_555 1_555
B18A B27A 1_555 1_555
B18A B31A 1_555 1_555
B19A B20A 1_555 1_555
B19A B30A 1_555 1_555
B20A B29A 1_555 1_555
B20A B30A 1_555 1_555
B21A B24A 1_555 1_555
B21A B32A 1_555 1_555
B22A B28A 1_555 1_555
B22A B37A 1_555 1_555
B23A B29A 1_555 1_555
B26A B27A 1_555 1_555
B26A B28A 1_555 1_555
B26A B31A 1_555 1_555
B27A B31A 1_555 1_555
B28A B37A 1_555 1_555
N1A C4A 1_555 1_555
N2A C8A 1_555 1_555
N3A C11A 1_555 1_555
C1A C7A 1_555 1_555
C6A C80A 1_555 1_555
B33A B34A 1_555 1_555
B33A B44A 1_555 1_555
B33A_2 B34A_2 1_555 1_555
B33A_2 B44A_2 1_555 1_555
B34A B42A 1_555 1_555
B34A B47A 1_555 1_555
B34A_2 B42A_2 1_555 1_555
B35A B38A 1_555 1_555
B35A B48A 1_555 1_555
B36A B39A 1_555 1_555
B36A B47A 1_555 1_555
B36A B50A 1_555 1_555
B38A B41A 1_555 1_555
B38A B54A 1_555 1_555
B39A B42A 1_555 1_555
B39A B47A 1_555 1_555
B39A B49A 1_555 1_555
B40A B42A 1_555 1_555
B40A B43A 1_555 1_555
B40A B44A 1_555 1_555
B40A B49A 1_555 1_555
B40A_2 B42A_2 1_555 1_555
B40A_2 B44A_2 1_555 1_555
B41A B45A 1_555 1_555
B41A B51A 1_555 1_555
B42A B49A 1_555 1_555
B43A B44A 1_555 1_555
B43A B49A 1_555 1_555
B43A B50A 1_555 1_555
B44A B50A 1_555 1_555
B45A B48A 1_555 1_555
B45A B55A 1_555 1_555
B46A B48A 1_555 1_555
B46A B52A 1_555 1_555
B46A B54A 1_555 1_555
B47A B50A 1_555 1_555
B48A B52A 1_555 1_555
B51A B53A 1_555 1_555
B51A B54A 1_555 1_555
B51A B55A 1_555 1_555
B52A B53A 1_555 1_555
B52A B55A 1_555 1_555
B53A B54A 1_555 1_555
B53A B55A 1_555 1_555
B56A B57A 1_555 1_555
B56A B63A 1_555 1_555
B57A B58A 1_555 1_555
B57A B60A 1_555 1_555
B58A B62A 1_555 1_555
B58A B65A 1_555 1_555
B59A B60A 1_555 1_555
B59A B61A 1_555 1_555
B59A B64A 1_555 1_555
B59A B65A 1_555 1_555
B60A B61A 1_555 1_555
B60A B65A 1_555 1_555
B61A B63A 1_555 1_555
B61A B66A 1_555 1_555
B62A B63A 1_555 1_555
B62A B64A 1_555 1_555
B62A B66A 1_555 1_555
B63A B66A 1_555 1_555
B64A B65A 1_555 1_555
B64A B66A 1_555 1_555

#END
