
#######################################################################
#
#                 Cambridge Crystallographic Data Centre
#                                CCDC 
#
#######################################################################
#
# If this CIF has been generated from an entry in the Cambridge 
# Structural Database, then it will include bibliographic, chemical, 
# crystal, experimental, refinement or atomic coordinate data resulting 
# from the CCDC's data processing and validation procedures.
#
#######################################################################

data_UMAQIJ
_symmetry_cell_setting           monoclinic
_symmetry_space_group_name_H-M   'P 21/c'
_symmetry_Int_Tables_number      14
_space_group_name_Hall           '-P 2ybc'
loop_
_symmetry_equiv_pos_site_id
_symmetry_equiv_pos_as_xyz
1 x,y,z
2 -x,1/2+y,1/2-z
3 -x,-y,-z
4 x,1/2-y,1/2+z
_cell_length_a                   12.2544(3)
_cell_length_b                   14.7363(3)
_cell_length_c                   15.4417(4)
_cell_angle_alpha                90
_cell_angle_beta                 107.644(3)
_cell_angle_gamma                90
_cell_volume                     2657.35
loop_
_atom_site_label
_atom_site_type_symbol
_atom_site_fract_x
_atom_site_fract_y
_atom_site_fract_z
Cd1 Cd 1.092250(15) 0.951673(12) 1.227574(12)
C1 C 0.6362(2) 0.69933(17) 0.79659(17)
C2 C 0.6241(2) 0.6588(2) 0.8737(2)
H1 H 0.5621 0.6207 0.8690
C3 C 0.7031(2) 0.6743(2) 0.9580(2)
H2 H 0.6927 0.6482 1.0098
C4 C 0.7968(2) 0.72805(16) 0.96503(18)
C5 C 0.8117(2) 0.76687(18) 0.88792(19)
H3 H 0.8764 0.8016 0.8920
C6 C 0.7301(2) 0.75379(18) 0.80467(19)
H4 H 0.7386 0.7822 0.7534
C7 C 0.9450(2) 0.82117(17) 1.07416(18)
H5 H 0.9488 0.8662 1.0330
C8 C 0.8965(3) 0.69768(19) 1.1307(2)
H6 H 0.8627 0.6427 1.1374
C9 C 0.9727(2) 0.74468(18) 1.19650(19)
H7 H 1.0005 0.7272 1.2571
C10 C 0.4544(2) 0.75203(17) 0.69655(18)
C11 C 0.3759(2) 0.7393(2) 0.7444(2)
H8 H 0.3828 0.6896 0.7827
C12 C 0.2878(2) 0.80035(19) 0.7351(2)
H9 H 0.2359 0.7918 0.7676
C13 C 0.2763(2) 0.87419(17) 0.67778(18)
C14 C 0.3537(2) 0.88733(19) 0.63032(19)
H10 H 0.3463 0.9371 0.5919
C15 C 0.4426(2) 0.82618(19) 0.63997(19)
H11 H 0.4949 0.8353 0.6079
C16 C 0.1374(3) 0.9952(2) 0.5977(2)
H12 H 0.1589 1.0020 0.5453
C17 C 0.1275(2) 0.95061(17) 0.72980(18)
H13 H 0.1432 0.9199 0.7848
N1 N 0.04682(19) 1.01218(15) 0.70182(15)
C18 C 0.5749(2) 0.65159(17) 0.63566(18)
C19 C 0.6780(2) 0.60687(18) 0.64584(18)
H14 H 0.7316 0.6029 0.7031
C20 C 0.7018(2) 0.56822(18) 0.57196(19)
H15 H 0.7707 0.5378 0.5803
C21 C 0.6247(2) 0.57427(17) 0.48609(17)
C22 C 0.5214(2) 0.61565(19) 0.47581(19)
H16 H 0.4676 0.6186 0.4186
C23 C 0.4964(2) 0.65309(19) 0.54966(19)
H17 H 0.4252 0.6799 0.5414
C24 C 0.5813(2) 0.5374(2) 0.3206(2)
H18 H 0.5050 0.5555 0.3008
C25 C 0.6432(2) 0.5053(2) 0.26869(19)
H19 H 0.6161 0.4975 0.2060
C26 C 0.7535(2) 0.50664(19) 0.40504(18)
H20 H 0.8176 0.5002 0.4557
Cl1 Cl 0.97903(6) 1.06214(5) 1.10288(5)
Cl2 Cl 1.23004(8) 0.93421(9) 1.38590(6)
C27 C 0.0531(3) 1.04020(19) 0.6189(2)
H21 H 0.0061 1.0839 0.5826
N2 N 0.54904(18) 0.68991(15) 0.71071(15)
N3 N 0.87835(18) 0.74645(13) 1.05177(14)
N4 N 1.00334(19) 0.82287(14) 1.16040(15)
N5 N 0.65248(18) 0.53824(13) 0.40837(15)
N6 N 0.75181(18) 0.48586(16) 0.32196(14)
N7 N 0.18491(18) 0.93747(14) 0.66874(15)
Cd1B Cd -0.092250(15) 1.048327(12) 0.772426(12)
Cd1A Cd 0.907750(15) 0.451673(12) 0.272426(12)
Cd1C Cd 0.092250(15) 1.548327(12) 1.727574(12)
C1B C 0.3638(2) 1.30067(17) 1.20341(17)
C2B C 0.3759(2) 1.3412(2) 1.1263(2)
H1B H 0.4379 1.3793 1.1310
C3B C 0.2969(2) 1.3257(2) 1.0420(2)
H2B H 0.3073 1.3518 0.9902
C4B C 0.2032(2) 1.27195(16) 1.03497(18)
C5B C 0.1883(2) 1.23313(18) 1.11208(19)
H3B H 0.1236 1.1984 1.1080
C6B C 0.2699(2) 1.24621(18) 1.19533(19)
H4B H 0.2614 1.2178 1.2466
C7B C 0.0550(2) 1.17883(17) 0.92584(18)
H5B H 0.0512 1.1338 0.9670
C8B C 0.1035(3) 1.30232(19) 0.8693(2)
H6B H 0.1373 1.3573 0.8626
C9B C 0.0273(2) 1.25532(18) 0.80350(19)
H7B H -0.0005 1.2728 0.7429
C10B C 0.5456(2) 1.24797(17) 1.30345(18)
C11B C 0.6241(2) 1.2607(2) 1.2556(2)
H8B H 0.6172 1.3104 1.2173
C12B C 0.7122(2) 1.19965(19) 1.2649(2)
H9B H 0.7641 1.2082 1.2324
C13B C 0.7237(2) 1.12581(17) 1.32222(18)
C14B C 0.6463(2) 1.11267(19) 1.36968(19)
H10B H 0.6537 1.0629 1.4081
C15B C 0.5574(2) 1.17382(19) 1.36003(19)
H11B H 0.5051 1.1647 1.3921
C16B C 0.8626(3) 1.0048(2) 1.4023(2)
H12B H 0.8411 0.9980 1.4547
C17B C 0.8725(2) 1.04939(17) 1.27020(18)
H13B H 0.8568 1.0801 1.2152
N1B N 0.95318(19) 0.98782(15) 1.29818(15)
C18B C 0.4251(2) 1.34841(17) 1.36434(18)
C19B C 0.3220(2) 1.39313(18) 1.35416(18)
H14B H 0.2684 1.3971 1.2969
C20B C 0.2982(2) 1.43178(18) 1.42804(19)
H15B H 0.2293 1.4622 1.4197
C21B C 0.3753(2) 1.42573(17) 1.51391(17)
C22B C 0.4786(2) 1.38435(19) 1.52419(19)
H16B H 0.5324 1.3814 1.5814
C23B C 0.5036(2) 1.34691(19) 1.45034(19)
H17B H 0.5748 1.3201 1.4586
C24B C 0.4187(2) 1.4626(2) 1.6794(2)
H18B H 0.4950 1.4445 1.6992
C25B C 0.3568(2) 1.4947(2) 1.73131(19)
H19B H 0.3839 1.5025 1.7940
C26B C 0.2465(2) 1.49336(19) 1.59496(18)
H20B H 0.1824 1.4998 1.5443
Cl1B Cl 0.02097(6) 0.93786(5) 0.89712(5)
Cl2B Cl -0.23004(8) 1.06579(9) 0.61410(6)
C27B C 0.9469(3) 0.95980(19) 1.3811(2)
H21B H 0.9939 0.9161 1.4174
N2B N 0.45096(18) 1.31009(15) 1.28929(15)
N3B N 0.12165(18) 1.25355(13) 0.94823(14)
N4B N -0.00334(19) 1.17713(14) 0.83960(15)
N5B N 0.34752(18) 1.46176(13) 1.59163(15)
N6B N 0.24819(18) 1.51414(16) 1.67804(14)
N6A N 1.24819(18) 0.98586(16) 1.17804(14)
N6C N -0.24819(18) 1.01414(16) 0.82196(14)
N7B N 0.81509(18) 1.06253(14) 1.33126(15)
O1 O 0.2136(6) 0.7804(5) 0.9297(5)
O2 O 0.5000 1.0000 0.5000
loop_
_geom_bond_atom_site_label_1
_geom_bond_atom_site_label_2
_geom_bond_site_symmetry_1
_geom_bond_site_symmetry_2
Cd1 Cl1 1_555 1_555
C1 C2 1_555 1_555
C2 H1 1_555 1_555
C3 C2 1_555 1_555
H2 C3 1_555 1_555
C4 C3 1_555 1_555
C5 C4 1_555 1_555
H3 C5 1_555 1_555
C6 C1 1_555 1_555
H4 C6 1_555 1_555
C7 H5 1_555 1_555
C8 H6 1_555 1_555
C9 C8 1_555 1_555
H7 C9 1_555 1_555
C10 C11 1_555 1_555
C11 H8 1_555 1_555
C12 C11 1_555 1_555
H9 C12 1_555 1_555
C13 C12 1_555 1_555
C14 C13 1_555 1_555
H10 C14 1_555 1_555
C15 C10 1_555 1_555
H11 C15 1_555 1_555
C16 H12 1_555 1_555
C17 H13 1_555 1_555
N1 C17 1_555 1_555
C18 C19 1_555 1_555
C19 H14 1_555 1_555
C20 C19 1_555 1_555
H15 C20 1_555 1_555
C21 C20 1_555 1_555
C22 C21 1_555 1_555
H16 C22 1_555 1_555
C23 C18 1_555 1_555
H17 C23 1_555 1_555
C24 H18 1_555 1_555
C25 C24 1_555 1_555
H19 C25 1_555 1_555
C26 H20 1_555 1_555
Cl2 Cd1 1_555 1_555
C27 C16 1_555 1_555
H21 C27 1_555 1_555
N2 C1 1_555 1_555
N3 C4 1_555 1_555
N4 Cd1 1_555 1_555
N5 C21 1_555 1_555
N6 C25 1_555 1_555
N7 C13 1_555 1_555
Cd1B N1 1_555 1_555
Cd1A N6 1_555 1_555
Cd1C N6B 1_555 1_555
C1B C2B 1_555 1_555
C2B H1B 1_555 1_555
C3B C2B 1_555 1_555
H2B C3B 1_555 1_555
C4B C3B 1_555 1_555
C5B C4B 1_555 1_555
H3B C5B 1_555 1_555
C6B C1B 1_555 1_555
H4B C6B 1_555 1_555
C7B H5B 1_555 1_555
C8B H6B 1_555 1_555
C9B C8B 1_555 1_555
H7B C9B 1_555 1_555
C10B C11B 1_555 1_555
C11B H8B 1_555 1_555
C12B C11B 1_555 1_555
H9B C12B 1_555 1_555
C13B C12B 1_555 1_555
C14B C13B 1_555 1_555
H10B C14B 1_555 1_555
C15B C10B 1_555 1_555
H11B C15B 1_555 1_555
C16B H12B 1_555 1_555
C17B H13B 1_555 1_555
N1B Cd1 1_555 1_555
C18B C19B 1_555 1_555
C19B H14B 1_555 1_555
C20B C19B 1_555 1_555
H15B C20B 1_555 1_555
C21B C20B 1_555 1_555
C22B C21B 1_555 1_555
H16B C22B 1_555 1_555
C23B C18B 1_555 1_555
H17B C23B 1_555 1_555
C24B H18B 1_555 1_555
C25B C24B 1_555 1_555
H19B C25B 1_555 1_555
C26B H20B 1_555 1_555
Cl1B Cd1B 1_555 1_555
Cl2B Cd1B 1_555 1_555
C27B C16B 1_555 1_555
H21B C27B 1_555 1_555
N2B C1B 1_555 1_555
N3B C4B 1_555 1_555
N4B Cd1B 1_555 1_555
N5B C21B 1_555 1_555
N6B C25B 1_555 1_555
N6A Cd1 1_555 1_555
N6C Cd1B 1_555 1_555
N7B C13B 1_555 1_555
C5 C6 1_555 1_555
C7 N3 1_555 1_555
C7 N4 1_555 1_555
C8 N3 1_555 1_555
C9 N4 1_555 1_555
C10 N2 1_555 1_555
C14 C15 1_555 1_555
C16 N7 1_555 1_555
C17 N7 1_555 1_555
N1 C27 1_555 1_555
C18 N2 1_555 1_555
C22 C23 1_555 1_555
C24 N5 1_555 1_555
C26 N5 1_555 1_555
C26 N6 1_555 1_555
C5B C6B 1_555 1_555
C7B N3B 1_555 1_555
C7B N4B 1_555 1_555
C8B N3B 1_555 1_555
C9B N4B 1_555 1_555
C10B N2B 1_555 1_555
C14B C15B 1_555 1_555
C16B N7B 1_555 1_555
C17B N1B 1_555 1_555
C17B N7B 1_555 1_555
N1B C27B 1_555 1_555
C18B N2B 1_555 1_555
C22B C23B 1_555 1_555
C24B N5B 1_555 1_555
C26B N5B 1_555 1_555
C26B N6B 1_555 1_555

#END
