
#######################################################################
#
#                 Cambridge Crystallographic Data Centre
#                                CCDC 
#
#######################################################################
#
# If this CIF has been generated from an entry in the Cambridge 
# Structural Database, then it will include bibliographic, chemical, 
# crystal, experimental, refinement or atomic coordinate data resulting 
# from the CCDC's data processing and validation procedures.
#
#######################################################################

data_UMAREF
_symmetry_cell_setting           triclinic
_symmetry_space_group_name_H-M   'P -1'
_symmetry_Int_Tables_number      2
_space_group_name_Hall           '-P 1'
loop_
_symmetry_equiv_pos_site_id
_symmetry_equiv_pos_as_xyz
1 x,y,z
2 -x,-y,-z
_cell_length_a                   10.103(1)
_cell_length_b                   12.361(2)
_cell_length_c                   12.700(4)
_cell_angle_alpha                78.73(2)
_cell_angle_beta                 86.69(2)
_cell_angle_gamma                86.98(1)
_cell_volume                     1551.45
loop_
_atom_site_label
_atom_site_type_symbol
_atom_site_fract_x
_atom_site_fract_y
_atom_site_fract_z
W1 W 0.25943(1) 0.21532(1) 0.30609(1)
Cu1 Cu 0.5000 0.5000 0.0000
Cu2 Cu 0.76790(4) 0.11065(4) 0.34695(4)
O1 O 0.6602(4) 0.3486(3) -0.0037(4)
N1 N 0.4100(4) 0.4000(3) 0.1209(3)
N2 N 0.5756(3) 0.1444(3) 0.3393(3)
N3 N -0.0342(3) 0.1058(3) 0.3413(3)
N4 N 0.2481(4) 0.0573(3) 0.5478(3)
N5 N 0.3276(5) -0.0311(4) 0.2477(4)
N6 N 0.1315(5) 0.2324(5) 0.0699(4)
N7 N 0.0258(5) 0.4073(4) 0.3204(6)
N8 N 0.3799(5) 0.3814(4) 0.4481(4)
N9 N 0.6170(3) 0.5497(3) 0.1069(3)
N10 N 1.0788(5) 0.6111(5) 0.1054(5)
N11 N 0.7748(3) 0.1959(3) 0.4691(3)
N12 N 1.0360(6) 0.1571(5) 0.7762(4)
N13 N 0.7666(3) 0.0585(3) 0.2057(3)
N14 N 0.5089(6) -0.1831(5) 0.0576(6)
C1 C 0.3605(4) 0.3373(3) 0.1871(3)
C2 C 0.4664(4) 0.1696(3) 0.3278(3)
C3 C 0.0701(4) 0.1388(3) 0.3312(3)
C4 C 0.2521(4) 0.1169(3) 0.4664(3)
C5 C 0.3024(4) 0.0552(4) 0.2663(4)
C6 C 0.1767(5) 0.2274(4) 0.1511(4)
C7 C 0.1084(4) 0.3439(4) 0.3146(5)
C8 C 0.3362(4) 0.3246(3) 0.4001(4)
C9 C 0.7462(4) 0.5646(4) 0.0837(4)
C10 C 0.8293(5) 0.5906(4) 0.1564(4)
C11 C 0.7784(6) 0.6040(5) 0.2571(4)
C12 C 0.6452(5) 0.5900(5) 0.2805(4)
C13 C 0.5680(5) 0.5634(4) 0.2035(4)
C14 C 0.9690(5) 0.6028(5) 0.1275(5)
C15 C 0.8577(4) 0.1641(4) 0.5479(4)
C16 C 0.8740(5) 0.2269(4) 0.6255(4)
C17 C 0.8047(6) 0.3264(5) 0.6206(5)
C18 C 0.7182(6) 0.3590(5) 0.5392(6)
C19 C 0.7048(5) 0.2919(4) 0.4656(4)
C20 C 0.9653(6) 0.1862(5) 0.7097(4)
C21 C 0.6806(4) -0.0156(4) 0.1898(4)
C22 C 0.6771(5) -0.0447(4) 0.0900(4)
C23 C 0.7638(6) 0.0011(5) 0.0065(4)
C24 C 0.8504(6) 0.0742(5) 0.0254(4)
C25 C 0.8514(5) 0.1005(4) 0.1250(4)
C26 C 0.5827(6) -0.1226(5) 0.0743(5)
H1 H 0.768(5) 0.553(5) 0.017(5)
H2 H 0.849(7) 0.614(6) 0.311(6)
H3 H 0.610(7) 0.592(7) 0.355(6)
H4 H 0.474(5) 0.554(4) 0.220(4)
H5 H 0.906(5) 0.093(4) 0.551(4)
H6 H 0.826(6) 0.376(5) 0.673(5)
H7 H 0.665(6) 0.429(6) 0.532(5)
H8 H 0.646(5) 0.304(4) 0.422(4)
H9 H 0.618(5) -0.046(4) 0.242(4)
H10 H 0.772(5) -0.020(5) -0.062(5)
H11 H 0.907(7) 0.100(6) -0.023(6)
H12 H 0.919(5) 0.148(5) 0.142(5)
H13 H 0.615(7) 0.298(5) -0.040(6)
H14 H 0.723(7) 0.348(8) -0.067(5)
O1A O 0.3398(4) 0.6514(3) 0.0037(4)
H13A H 0.385(7) 0.702(5) 0.040(6)
H14A H 0.277(7) 0.652(8) 0.067(5)
N1A N 0.5900(4) 0.6000(3) -0.1209(3)
C1A C 0.6395(4) 0.6627(3) -0.1871(3)
N9A N 0.3830(3) 0.4503(3) -0.1069(3)
N10A N -0.0788(5) 0.3889(5) -0.1054(5)
C9A C 0.2538(4) 0.4354(4) -0.0837(4)
C10A C 0.1707(5) 0.4094(4) -0.1564(4)
C11A C 0.2216(6) 0.3960(5) -0.2571(4)
C12A C 0.3548(5) 0.4100(5) -0.2805(4)
C13A C 0.4320(5) 0.4366(4) -0.2035(4)
C14A C 0.0310(5) 0.3972(5) -0.1275(5)
H1A H 0.232(5) 0.447(5) -0.017(5)
H2A H 0.151(7) 0.386(6) -0.311(6)
H3A H 0.390(7) 0.408(7) -0.355(6)
H4A H 0.526(5) 0.446(4) -0.220(4)
W1A W 0.74057(1) 0.78468(1) -0.30609(1)
N2A N 0.4244(3) 0.8556(3) -0.3393(3)
C2A C 0.5336(4) 0.8304(3) -0.3278(3)
N3A N 1.0342(3) 0.8942(3) -0.3413(3)
C3A C 0.9299(4) 0.8612(3) -0.3312(3)
N4A N 0.7519(4) 0.9427(3) -0.5478(3)
C4A C 0.7479(4) 0.8831(3) -0.4664(3)
N5A N 0.6724(5) 1.0311(4) -0.2477(4)
C5A C 0.6976(4) 0.9448(4) -0.2663(4)
N6A N 0.8685(5) 0.7676(5) -0.0699(4)
C6A C 0.8233(5) 0.7726(4) -0.1511(4)
N7A N 0.9742(5) 0.5927(4) -0.3204(6)
C7A C 0.8916(4) 0.6561(4) -0.3146(5)
N8A N 0.6201(5) 0.6186(4) -0.4481(4)
C8A C 0.6638(4) 0.6754(3) -0.4001(4)
Cu2A Cu 0.23210(4) 0.88935(4) -0.34695(4)
N11A N 0.2252(3) 0.8041(3) -0.4691(3)
N12A N -0.0360(6) 0.8429(5) -0.7762(4)
C15A C 0.1423(4) 0.8359(4) -0.5479(4)
C16A C 0.1260(5) 0.7731(4) -0.6255(4)
C17A C 0.1953(6) 0.6736(5) -0.6206(5)
C18A C 0.2818(6) 0.6410(5) -0.5392(6)
C19A C 0.2952(5) 0.7081(4) -0.4656(4)
C20A C 0.0347(6) 0.8138(5) -0.7097(4)
H5A H 0.094(5) 0.907(4) -0.551(4)
H6A H 0.174(6) 0.624(5) -0.673(5)
H7A H 0.335(6) 0.571(6) -0.532(5)
H8A H 0.354(5) 0.696(4) -0.422(4)
N13A N 0.2334(3) 0.9415(3) -0.2057(3)
N14A N 0.4911(6) 1.1831(5) -0.0576(6)
C21A C 0.3194(4) 1.0156(4) -0.1898(4)
C22A C 0.3229(5) 1.0447(4) -0.0900(4)
C23A C 0.2362(6) 0.9989(5) -0.0065(4)
C24A C 0.1496(6) 0.9258(5) -0.0254(4)
C25A C 0.1486(5) 0.8995(4) -0.1250(4)
C26A C 0.4173(6) 1.1226(5) -0.0743(5)
H9A H 0.382(5) 1.046(4) -0.242(4)
H10A H 0.228(5) 1.020(5) 0.062(5)
H11A H 0.093(7) 0.900(6) 0.023(6)
H12A H 0.081(5) 0.852(5) -0.142(5)
N3_2 N 0.9658(3) 0.1058(3) 0.3413(3)
N4A_2 N 0.7519(4) -0.0573(3) 0.4522(3)
Cu2_2 Cu -0.23210(4) 0.11065(4) 0.34695(4)
Cu2A_2 Cu 0.23210(4) -0.11065(4) 0.65305(4)
Cu2A_3 Cu 1.23210(4) 0.88935(4) -0.34695(4)
Cu2_3 Cu 0.76790(4) 1.11065(4) -0.65305(4)
N3A_2 N 0.0342(3) 0.8942(3) -0.3413(3)
N4_2 N 0.2481(4) 1.0573(3) -0.4522(3)
O2 O 0.7804(5) 0.3074(4) 0.2252(4)
H15 H 0.735(7) 0.314(6) 0.155(3)
H17 H 0.7350 0.3635 0.2645
H16? H 0.8750 0.3262 0.2082
loop_
_geom_bond_atom_site_label_1
_geom_bond_atom_site_label_2
_geom_bond_site_symmetry_1
_geom_bond_site_symmetry_2
W1 C1 1_555 1_555
Cu1 O1 1_555 1_555
Cu2 N2 1_555 1_555
O1 H13 1_555 1_555
O2 H15 1_555 1_555
N1 Cu1 1_555 1_555
N2 C2 1_555 1_555
N3 C3 1_555 1_555
N4 C4 1_555 1_555
N5 C5 1_555 1_555
N6 C6 1_555 1_555
N7 C7 1_555 1_555
N8 C8 1_555 1_555
N9 Cu1 1_555 1_555
N10 C14 1_555 1_555
N11 Cu2 1_555 1_555
N12 C20 1_555 1_555
N13 Cu2 1_555 1_555
N14 C26 1_555 1_555
C1 N1 1_555 1_555
C2 W1 1_555 1_555
C3 W1 1_555 1_555
C4 W1 1_555 1_555
C5 W1 1_555 1_555
C6 W1 1_555 1_555
C7 W1 1_555 1_555
C8 W1 1_555 1_555
C9 N9 1_555 1_555
C10 C9 1_555 1_555
C11 C10 1_555 1_555
C12 C11 1_555 1_555
C13 N9 1_555 1_555
C14 C10 1_555 1_555
C15 N11 1_555 1_555
C16 C15 1_555 1_555
C17 C16 1_555 1_555
C18 C17 1_555 1_555
C19 N11 1_555 1_555
C20 C16 1_555 1_555
C21 N13 1_555 1_555
C22 C21 1_555 1_555
C23 C22 1_555 1_555
C24 C23 1_555 1_555
C25 N13 1_555 1_555
C26 C22 1_555 1_555
H1 C9 1_555 1_555
H2 C11 1_555 1_555
H3 C12 1_555 1_555
H4 C13 1_555 1_555
H5 C15 1_555 1_555
H6 C17 1_555 1_555
H7 C18 1_555 1_555
H8 C19 1_555 1_555
H9 C21 1_555 1_555
H10 C23 1_555 1_555
H11 C24 1_555 1_555
H12 C25 1_555 1_555
H14 O1 1_555 1_555
H17 O2 1_555 1_555
O1A Cu1 1_555 1_555
H13A O1A 1_555 1_555
H14A O1A 1_555 1_555
N1A Cu1 1_555 1_555
C1A N1A 1_555 1_555
N9A Cu1 1_555 1_555
N10A C14A 1_555 1_555
C9A N9A 1_555 1_555
C10A C9A 1_555 1_555
C11A C10A 1_555 1_555
C12A C11A 1_555 1_555
C13A N9A 1_555 1_555
C14A C10A 1_555 1_555
H1A C9A 1_555 1_555
H2A C11A 1_555 1_555
H3A C12A 1_555 1_555
H4A C13A 1_555 1_555
W1A C1A 1_555 1_555
N2A C2A 1_555 1_555
C2A W1A 1_555 1_555
N3A C3A 1_555 1_555
C3A W1A 1_555 1_555
N4A C4A 1_555 1_555
C4A W1A 1_555 1_555
N5A C5A 1_555 1_555
C5A W1A 1_555 1_555
N6A C6A 1_555 1_555
C6A W1A 1_555 1_555
N7A C7A 1_555 1_555
C7A W1A 1_555 1_555
N8A C8A 1_555 1_555
C8A W1A 1_555 1_555
Cu2A N2A 1_555 1_555
N11A Cu2A 1_555 1_555
N12A C20A 1_555 1_555
C15A N11A 1_555 1_555
C16A C15A 1_555 1_555
C17A C16A 1_555 1_555
C18A C17A 1_555 1_555
C19A N11A 1_555 1_555
C20A C16A 1_555 1_555
H5A C15A 1_555 1_555
H6A C17A 1_555 1_555
H7A C18A 1_555 1_555
H8A C19A 1_555 1_555
N13A Cu2A 1_555 1_555
N14A C26A 1_555 1_555
C21A N13A 1_555 1_555
C22A C21A 1_555 1_555
C23A C22A 1_555 1_555
C24A C23A 1_555 1_555
C25A N13A 1_555 1_555
C26A C22A 1_555 1_555
H9A C21A 1_555 1_555
H10A C23A 1_555 1_555
H11A C24A 1_555 1_555
H12A C25A 1_555 1_555
N3_2 Cu2 1_555 1_555
N4A_2 Cu2 1_555 1_555
Cu2_2 N3 1_555 1_555
Cu2A_2 N4 1_555 1_555
Cu2A_3 N3A 1_555 1_555
Cu2_3 N4A 1_555 1_555
N3A_2 Cu2A 1_555 1_555
N4_2 Cu2A 1_555 1_555
C12 C13 1_555 1_555
C18 C19 1_555 1_555
C24 C25 1_555 1_555
C12A C13A 1_555 1_555
C18A C19A 1_555 1_555
C24A C25A 1_555 1_555

#END
