
#######################################################################
#
#                 Cambridge Crystallographic Data Centre
#                                CCDC 
#
#######################################################################
#
# If this CIF has been generated from an entry in the Cambridge 
# Structural Database, then it will include bibliographic, chemical, 
# crystal, experimental, refinement or atomic coordinate data resulting 
# from the CCDC's data processing and validation procedures.
#
#######################################################################

data_UMATEH
_symmetry_cell_setting           orthorhombic
_symmetry_space_group_name_H-M   'P 21 21 21'
_symmetry_Int_Tables_number      19
_space_group_name_Hall           'P 2ac 2ab'
loop_
_symmetry_equiv_pos_site_id
_symmetry_equiv_pos_as_xyz
1 x,y,z
2 1/2-x,-y,1/2+z
3 -x,1/2+y,1/2-z
4 1/2+x,1/2-y,-z
_cell_length_a                   12.945(3)
_cell_length_b                   15.010(3)
_cell_length_c                   16.955(3)
_cell_angle_alpha                90
_cell_angle_beta                 90
_cell_angle_gamma                90
_cell_volume                     3294.43
loop_
_atom_site_label
_atom_site_type_symbol
_atom_site_fract_x
_atom_site_fract_y
_atom_site_fract_z
Gd1 Gd 0.91310(2) 0.59810(2) 0.91270(2)
Cu1 Cu 0.70485(6) 0.44838(6) 0.90903(7)
Co1 Co 1.33530(6) 0.60034(7) 0.90844(6)
N1 N 0.6258(5) 0.3907(5) 0.9939(4)
N2 N 0.6331(5) 0.3859(4) 0.8220(4)
N3 N 1.1027(4) 0.6282(5) 0.9175(4)
N4 N 1.2834(6) 0.4249(5) 0.8247(5)
N5 N 1.3438(6) 0.6729(6) 0.7412(5)
N6 N 0.5678(5) 0.5671(5) 0.9010(4)
N7 N 0.8883(5) 0.7268(5) 1.0071(5)
N8 N 1.3153(5) 0.5170(5) 1.0699(5)
O1 O 0.7970(4) 0.5075(4) 0.9865(3)
O2 O 0.8049(4) 0.5030(4) 0.8367(3)
O3 O 0.9690(4) 0.5605(4) 1.0536(3)
O4 O 0.9728(4) 0.5663(4) 0.7715(3)
O5 O 0.9902(4) 0.4514(4) 0.9128(4)
C1 C 0.5204(6) 0.3582(6) 0.9812(5)
H1 H 0.4729 0.4096 0.9764
H2 H 0.4985 0.3225 1.0274
C2 C 0.5128(6) 0.3018(5) 0.9078(6)
H3 H 0.5655 0.2541 0.9107
H4 H 0.4441 0.2728 0.9067
C3 C 0.5275(7) 0.3521(6) 0.8321(6)
H5 H 0.5105 0.3124 0.7873
H6 H 0.4787 0.4029 0.8309
C4 C 0.6730(6) 0.3747(5) 0.7544(5)
H7 H 0.6323 0.3424 0.7176
C5 C 0.7728(6) 0.4050(6) 0.7260(5)
C6 C 0.8069(7) 0.3721(7) 0.6514(5)
H8 H 0.7667 0.3292 0.6241
C7 C 0.8972(7) 0.4021(7) 0.6188(5)
H9 H 0.9202 0.3785 0.5699
C8 C 0.9561(7) 0.4678(6) 0.6575(5)
H10 H 1.0177 0.4897 0.6341
C9 C 0.9232(6) 0.5003(5) 0.7302(5)
C10 C 0.8319(6) 0.4686(5) 0.7664(5)
C11 C 0.8249(6) 0.4676(6) 1.0546(5)
C12 C 0.9165(6) 0.4925(5) 1.0914(5)
C13 C 0.9511(7) 0.4519(7) 1.1601(5)
H11 H 1.0162 0.4676 1.1820
C14 C 0.8904(7) 0.3890(7) 1.1957(5)
H12 H 0.9126 0.3619 1.2434
C15 C 0.7978(7) 0.3650(6) 1.1629(5)
H13 H 0.7556 0.3220 1.1885
C16 C 0.7648(5) 0.4028(6) 1.0923(5)
C17 C 0.6638(7) 0.3738(5) 1.0625(5)
H14 H 0.6224 0.3392 1.0971
C18 C 1.0540(6) 0.5995(7) 1.0955(5)
H15 H 1.0339 0.6103 1.1504
H16 H 1.0731 0.6561 1.0705
H17 H 1.1132 0.5588 1.0941
C19 C 1.0663(6) 0.5996(7) 0.7334(5)
H18 H 1.1165 0.5510 0.7284
H19 H 1.0961 0.6476 0.7652
H20 H 1.0490 0.6224 0.6808
C20 C 1.1906(5) 0.6218(5) 0.9137(5)
C21 C 1.3040(6) 0.4907(6) 0.8573(5)
C22 C 1.3397(6) 0.6494(6) 0.8059(6)
C23 C 0.4818(5) 0.5820(5) 0.9047(4)
C24 C 0.8662(6) 0.7908(6) 1.0423(5)
C25 C 1.3252(6) 0.5477(6) 1.0090(5)
O6 O 0.7502(5) 0.6712(4) 0.8803(4)
O7 O 0.9473(4) 0.7375(4) 0.8379(4)
C23_2 C 1.4818(5) 0.5820(5) 0.9047(4)
C24C C 1.3662(6) 0.7092(6) 0.9577(5)
Co1_2 Co 0.33530(6) 0.60034(7) 0.90844(6)
Co1C Co 0.83530(6) 0.89966(7) 1.09156(6)
O8 O 0.2753(5) 0.6588(5) 1.1818(4)
O9 O 0.2552(5) 0.6608(5) 1.5937(4)
O10 O 0.1513(5) 0.3406(5) 1.9453(5)
O11 O 0.8529(7) 0.3134(7) 1.9159(13)
loop_
_geom_bond_atom_site_label_1
_geom_bond_atom_site_label_2
_geom_bond_site_symmetry_1
_geom_bond_site_symmetry_2
Gd1 N3 1_555 1_555
Cu1 N1 1_555 1_555
Co1 C20 1_555 1_555
N1 C1 1_555 1_555
N2 Cu1 1_555 1_555
N3 C20 1_555 1_555
N4 C21 1_555 1_555
N5 C22 1_555 1_555
N6 Cu1 1_555 1_555
N7 Gd1 1_555 1_555
N8 C25 1_555 1_555
O1 Gd1 1_555 1_555
O2 Gd1 1_555 1_555
O3 Gd1 1_555 1_555
O4 Gd1 1_555 1_555
O5 Gd1 1_555 1_555
C1 H1 1_555 1_555
H2 C1 1_555 1_555
C2 C1 1_555 1_555
H3 C2 1_555 1_555
H4 C2 1_555 1_555
C3 N2 1_555 1_555
H5 C3 1_555 1_555
H6 C3 1_555 1_555
C4 N2 1_555 1_555
H7 C4 1_555 1_555
C5 C4 1_555 1_555
C6 C5 1_555 1_555
H8 C6 1_555 1_555
C7 C6 1_555 1_555
H9 C7 1_555 1_555
C8 C7 1_555 1_555
H10 C8 1_555 1_555
C9 O4 1_555 1_555
C10 O2 1_555 1_555
C11 O1 1_555 1_555
C12 O3 1_555 1_555
C13 C12 1_555 1_555
H11 C13 1_555 1_555
C14 C13 1_555 1_555
H12 C14 1_555 1_555
C15 C14 1_555 1_555
H13 C15 1_555 1_555
C16 C11 1_555 1_555
C17 N1 1_555 1_555
H14 C17 1_555 1_555
C18 O3 1_555 1_555
H15 C18 1_555 1_555
H16 C18 1_555 1_555
H17 C18 1_555 1_555
C19 O4 1_555 1_555
H18 C19 1_555 1_555
H19 C19 1_555 1_555
H20 C19 1_555 1_555
C21 Co1 1_555 1_555
C22 Co1 1_555 1_555
C23 N6 1_555 1_555
C24 N7 1_555 1_555
C25 Co1 1_555 1_555
O6 Gd1 1_555 1_555
O7 Gd1 1_555 1_555
C23_2 Co1 1_555 1_555
C24C Co1 1_555 1_555
Co1_2 C23 1_555 1_555
Co1C C24 1_555 1_555
Cu1 O1 1_555 1_555
Cu1 O2 1_555 1_555
C2 C3 1_555 1_555
C5 C10 1_555 1_555
C8 C9 1_555 1_555
C9 C10 1_555 1_555
C11 C12 1_555 1_555
C15 C16 1_555 1_555
C16 C17 1_555 1_555

#END
