
#######################################################################
#
#                 Cambridge Crystallographic Data Centre
#                                CCDC 
#
#######################################################################
#
# If this CIF has been generated from an entry in the Cambridge 
# Structural Database, then it will include bibliographic, chemical, 
# crystal, experimental, refinement or atomic coordinate data resulting 
# from the CCDC's data processing and validation procedures.
#
#######################################################################

data_UMATAD
_symmetry_cell_setting           orthorhombic
_symmetry_space_group_name_H-M   'P 21 21 21'
_symmetry_Int_Tables_number      19
_space_group_name_Hall           'P 2ac 2ab'
loop_
_symmetry_equiv_pos_site_id
_symmetry_equiv_pos_as_xyz
1 x,y,z
2 1/2-x,-y,1/2+z
3 -x,1/2+y,1/2-z
4 1/2+x,1/2-y,-z
_cell_length_a                   13.0095(6)
_cell_length_b                   14.9900(8)
_cell_length_c                   16.9710(10)
_cell_angle_alpha                90
_cell_angle_beta                 90
_cell_angle_gamma                90
_cell_volume                     3309.56
loop_
_atom_site_label
_atom_site_type_symbol
_atom_site_fract_x
_atom_site_fract_y
_atom_site_fract_z
Cu1 Cu 0.20546(4) -0.05184(4) 0.90805(4)
Gd1 Gd 0.414075(17) 0.096404(15) 0.911816(15)
Fe1 Fe -0.16300(5) 0.10053(5) 0.90667(4)
N1 N 0.1348(3) -0.1139(3) 0.8207(3)
N2 N 0.1261(3) -0.1102(3) 0.9930(3)
N3 N 0.6022(3) 0.1266(3) 0.9170(3)
N4 N -0.1836(4) 0.0147(3) 1.0712(3)
N5 N 0.3915(4) 0.2251(3) 1.0060(3)
N6 N 0.0716(3) 0.0675(3) 0.8997(3)
N7 N -0.1561(4) 0.1725(4) 0.7369(3)
N8 N -0.2163(4) -0.0768(4) 0.8229(3)
O1 O 0.3066(3) 0.0008(3) 0.8352(2)
O2 O 0.2982(3) 0.0070(2) 0.9862(2)
O3 O 0.4731(3) 0.0649(3) 0.7702(2)
O4 O 0.4698(3) 0.0580(3) 1.0522(2)
C1 C 0.0274(4) -0.1466(4) 0.8315(4)
H1 H 0.0091 -0.1854 0.7864
H2 H -0.0199 -0.0949 0.8312
C2 C 0.0124(4) -0.1980(4) 0.9066(4)
H3 H 0.0642 -0.2462 0.9091
H4 H -0.0564 -0.2263 0.9055
C3 C 0.0210(4) -0.1420(4) 0.9798(4)
H5 H -0.0257 -0.0901 0.9752
H6 H -0.0014 -0.1777 1.0258
C4 C 0.1642(5) -0.1261(4) 1.0616(3)
H7 H 0.1228 -0.1598 1.0968
C5 C 0.2643(4) -0.0977(4) 1.0908(3)
C6 C 0.2967(5) -0.1362(4) 1.1622(4)
H8 H 0.2546 -0.1792 1.1876
C7 C 0.3890(5) -0.1122(4) 1.1954(3)
H9 H 0.4108 -0.1391 1.2432
C8 C 0.4503(5) -0.0487(4) 1.1592(3)
H10 H 0.5148 -0.0328 1.1814
C9 C 0.4166(4) -0.0083(3) 1.0897(3)
C10 C 0.3240(4) -0.0323(4) 1.0537(3)
C11 C 0.3317(4) -0.0317(3) 0.7655(3)
C12 C 0.4221(4) -0.0016(3) 0.7292(3)
C13 C 0.4545(4) -0.0340(4) 0.6570(3)
H11 H 0.5166 -0.0127 0.6344
C14 C 0.3957(4) -0.0982(4) 0.6172(3)
H12 H 0.4181 -0.1217 0.5681
C15 C 0.3051(5) -0.1265(4) 0.6503(3)
H13 H 0.2636 -0.1682 0.6226
C16 C 0.2723(4) -0.0952(4) 0.7245(3)
C17 C 0.1737(4) -0.1257(4) 0.7531(3)
H14 H 0.1331 -0.1586 0.7167
C18 C 0.5547(4) 0.0980(5) 1.0942(4)
H15 H 0.6116 0.0553 1.0973
H16 H 0.5326 0.1141 1.1475
H17 H 0.5776 0.1517 1.0662
C19 C 0.5645(4) 0.0995(5) 0.7327(3)
H18 H 0.5468 0.1227 0.6804
H19 H 0.6153 0.0517 0.7274
H20 H 0.5932 0.1477 0.7649
C20 C 0.6897(4) 0.1204(3) 0.9130(4)
C21 C -0.1735(4) 0.0463(4) 1.0091(3)
C22 C 0.3699(4) 0.2884(4) 1.0413(3)
C23 C -0.0150(4) 0.0810(3) 0.9025(3)
C24 C -0.1581(4) 0.1495(4) 0.8011(4)
C25 C -0.1948(4) -0.0120(4) 0.8546(4)
O5 O 0.4491(3) 0.2364(3) 0.8370(2)
O6 O 0.4901(3) -0.0511(2) 0.9118(3)
O7 O 0.2537(3) 0.1709(3) 0.8802(3)
C20_2 C -0.3103(4) 0.1204(3) 0.9130(4)
C22C C -0.1301(4) 0.2116(4) 0.9587(3)
Fe1_2 Fe 0.83700(5) 0.10053(5) 0.90667(4)
Fe1C Fe 0.33700(5) 0.39947(5) 1.09333(4)
O8 O 0.7778(3) 0.1595(3) 1.1814(3)
O9 O 0.7536(3) 0.1618(3) 0.5912(3)
O10 O 0.6504(3) -0.1590(3) 0.9433(3)
O11 O 0.6444(5) 0.3083(4) 0.5952(8)
loop_
_geom_bond_atom_site_label_1
_geom_bond_atom_site_label_2
_geom_bond_site_symmetry_1
_geom_bond_site_symmetry_2
Cu1 N1 1_555 1_555
Gd1 N3 1_555 1_555
Fe1 C21 1_555 1_555
N1 C1 1_555 1_555
N2 Cu1 1_555 1_555
N3 C20 1_555 1_555
N4 C21 1_555 1_555
N5 Gd1 1_555 1_555
N6 Cu1 1_555 1_555
N7 C24 1_555 1_555
N8 C25 1_555 1_555
O1 Cu1 1_555 1_555
O2 Cu1 1_555 1_555
O3 Gd1 1_555 1_555
O4 Gd1 1_555 1_555
C1 H1 1_555 1_555
H2 C1 1_555 1_555
C2 C1 1_555 1_555
H3 C2 1_555 1_555
H4 C2 1_555 1_555
C3 N2 1_555 1_555
H5 C3 1_555 1_555
H6 C3 1_555 1_555
C4 N2 1_555 1_555
H7 C4 1_555 1_555
C5 C4 1_555 1_555
C6 C5 1_555 1_555
H8 C6 1_555 1_555
C7 C6 1_555 1_555
H9 C7 1_555 1_555
C8 C7 1_555 1_555
H10 C8 1_555 1_555
C9 O4 1_555 1_555
C10 O2 1_555 1_555
C11 O1 1_555 1_555
C12 O3 1_555 1_555
C13 C12 1_555 1_555
H11 C13 1_555 1_555
C14 C13 1_555 1_555
H12 C14 1_555 1_555
C15 C14 1_555 1_555
H13 C15 1_555 1_555
C16 C11 1_555 1_555
C17 N1 1_555 1_555
H14 C17 1_555 1_555
C18 O4 1_555 1_555
H15 C18 1_555 1_555
H16 C18 1_555 1_555
H17 C18 1_555 1_555
C19 O3 1_555 1_555
H18 C19 1_555 1_555
H19 C19 1_555 1_555
H20 C19 1_555 1_555
C20 Fe1_2 1_555 1_555
C22 N5 1_555 1_555
C23 Fe1 1_555 1_555
C24 Fe1 1_555 1_555
C25 Fe1 1_555 1_555
O5 Gd1 1_555 1_555
O6 Gd1 1_555 1_555
O7 Gd1 1_555 1_555
C20_2 Fe1 1_555 1_555
C22C Fe1 1_555 1_555
Fe1C C22 1_555 1_555
Gd1 O1 1_555 1_555
Gd1 O2 1_555 1_555
N6 C23 1_555 1_555
C2 C3 1_555 1_555
C5 C10 1_555 1_555
C8 C9 1_555 1_555
C9 C10 1_555 1_555
C11 C12 1_555 1_555
C15 C16 1_555 1_555
C16 C17 1_555 1_555

#END
