
#######################################################################
#
#                 Cambridge Crystallographic Data Centre
#                                CCDC 
#
#######################################################################
#
# If this CIF has been generated from an entry in the Cambridge 
# Structural Database, then it will include bibliographic, chemical, 
# crystal, experimental, refinement or atomic coordinate data resulting 
# from the CCDC's data processing and validation procedures.
#
#######################################################################

data_UMAVAF
_symmetry_cell_setting           monoclinic
_symmetry_space_group_name_H-M   'P 21/c'
_symmetry_Int_Tables_number      14
_space_group_name_Hall           '-P 2ybc'
loop_
_symmetry_equiv_pos_site_id
_symmetry_equiv_pos_as_xyz
1 x,y,z
2 x,1/2-y,1/2+z
3 -x,-y,-z
4 -x,1/2+y,1/2-z
_cell_length_a                   12.510(7)
_cell_length_b                   12.446(7)
_cell_length_c                   13.185(8)
_cell_angle_alpha                90
_cell_angle_beta                 114.400(10)
_cell_angle_gamma                90
_cell_volume                     1869.54
loop_
_atom_site_label
_atom_site_type_symbol
_atom_site_fract_x
_atom_site_fract_y
_atom_site_fract_z
Co1 Co 0.01670(3) 0.91911(2) 0.60849(3)
O1 O 0.03561(16) 1.07328(13) 0.69237(14)
H1 H 0.1084 1.0968 0.7501
H2 H 0.0237 1.1216 0.6319
S1 S -0.28099(7) 0.70704(6) 0.63522(7)
C1 C -0.1799(2) 0.7948(2) 0.6483(2)
N1 N -0.10600(19) 0.85628(17) 0.65857(18)
S2 S 0.38519(8) 0.79648(9) 0.88101(8)
C2 C 0.2574(2) 0.8332(2) 0.7903(2)
N2 N 0.1659(2) 0.86025(18) 0.72796(18)
O2 O -0.01097(16) 0.79520(13) 0.48882(14)
O3 O 0.89157(14) 0.49676(13) 0.97660(13)
N3 N 0.04738(17) 0.70183(15) 0.51950(15)
N4 N 0.77371(16) 0.49966(15) 0.94011(15)
C3 C 0.1018(2) 0.6614(2) 0.4584(2)
H3 H 0.0980 0.6976 0.3953
C4 C 0.1627(2) 0.5670(2) 0.4895(2)
H4 H 0.2008 0.5397 0.4476
C5 C 0.1682(2) 0.51135(18) 0.58299(19)
C6 C 0.1094(2) 0.55471(19) 0.6421(2)
H5 H 0.1104 0.5189 0.7044
C7 C 0.0495(2) 0.64982(19) 0.60977(19)
H6 H 0.0105 0.6784 0.6502
C8 C 0.2365(2) 0.40922(19) 0.6183(2)
H7 H 0.2228 0.3660 0.5528
H8 H 0.2085 0.3690 0.6655
C9 C 0.3682(2) 0.4287(2) 0.6813(2)
H9 H 0.4083 0.3600 0.6962
H10 H 0.3956 0.4698 0.6342
C10 C 0.4014(2) 0.4883(2) 0.7912(2)
H11 H 0.3674 0.5597 0.7769
H12 H 0.3704 0.4503 0.8374
C11 C 0.5324(2) 0.4963(2) 0.8508(2)
C12 C 0.5938(2) 0.5837(2) 0.8386(3)
H13 H 0.5528 0.6433 0.7988
C13 C 0.7148(2) 0.5845(2) 0.8842(2)
H14 H 0.7548 0.6443 0.8757
C14 C 0.5987(2) 0.4132(2) 0.9147(3)
H15 H 0.5613 0.3540 0.9284
C15 C 0.7186(2) 0.4161(2) 0.9584(2)
H16 H 0.7617 0.3590 1.0013
O3A O -0.10843(14) 1.00324(13) 0.47660(13)
O3C O 0.10843(14) 0.99676(13) 0.52340(13)
Co1A Co 1.01670(3) 0.58089(2) 1.10849(3)
Co1C Co 0.98330(3) 0.41911(2) 0.89151(3)
loop_
_geom_bond_atom_site_label_1
_geom_bond_atom_site_label_2
_geom_bond_site_symmetry_1
_geom_bond_site_symmetry_2
Co1 O1 1_555 1_555
O1 H1 1_555 1_555
H2 O1 1_555 1_555
S1 C1 1_555 1_555
C1 N1 1_555 1_555
N1 Co1 1_555 1_555
S2 C2 1_555 1_555
C2 N2 1_555 1_555
N2 Co1 1_555 1_555
O2 Co1 1_555 1_555
O3 N4 1_555 1_555
N3 O2 1_555 1_555
N4 C13 1_555 1_555
C3 N3 1_555 1_555
H3 C3 1_555 1_555
C4 C3 1_555 1_555
H4 C4 1_555 1_555
C5 C4 1_555 1_555
C6 C5 1_555 1_555
H5 C6 1_555 1_555
C7 N3 1_555 1_555
H6 C7 1_555 1_555
C8 C5 1_555 1_555
H7 C8 1_555 1_555
H8 C8 1_555 1_555
C9 C8 1_555 1_555
H9 C9 1_555 1_555
H10 C9 1_555 1_555
C10 C9 1_555 1_555
H11 C10 1_555 1_555
H12 C10 1_555 1_555
C11 C10 1_555 1_555
C12 C11 1_555 1_555
H13 C12 1_555 1_555
C13 C12 1_555 1_555
H14 C13 1_555 1_555
C14 C11 1_555 1_555
H15 C14 1_555 1_555
C15 N4 1_555 1_555
H16 C15 1_555 1_555
O3A Co1 1_555 1_555
O3C Co1 1_555 1_555
Co1A O3 1_555 1_555
Co1C O3 1_555 1_555
C6 C7 1_555 1_555
C14 C15 1_555 1_555

#END
