
#######################################################################
#
#                 Cambridge Crystallographic Data Centre
#                                CCDC 
#
#######################################################################
#
# If this CIF has been generated from an entry in the Cambridge 
# Structural Database, then it will include bibliographic, chemical, 
# crystal, experimental, refinement or atomic coordinate data resulting 
# from the CCDC's data processing and validation procedures.
#
#######################################################################

data_UMAVOT
_symmetry_cell_setting           monoclinic
_symmetry_space_group_name_H-M   'P 21/c'
_symmetry_Int_Tables_number      14
_space_group_name_Hall           '-P 2ybc'
loop_
_symmetry_equiv_pos_site_id
_symmetry_equiv_pos_as_xyz
1 x,y,z
2 x,1/2-y,1/2+z
3 -x,-y,-z
4 -x,1/2+y,1/2-z
_cell_length_a                   12.555(3)
_cell_length_b                   12.529(3)
_cell_length_c                   13.159(3)
_cell_angle_alpha                90
_cell_angle_beta                 114.779(5)
_cell_angle_gamma                90
_cell_volume                     1879.36
loop_
_atom_site_label
_atom_site_type_symbol
_atom_site_fract_x
_atom_site_fract_y
_atom_site_fract_z
Zn1 Zn 0.01399(4) 0.91739(4) 0.61163(4)
O1 O 0.0342(3) 1.0767(2) 0.6944(2)
H1 H 0.0915 1.0930 0.7341
H2 H 0.0185 1.1085 0.6321
S1 S -0.28469(12) 0.70790(10) 0.63061(11)
C1 C -0.1827(4) 0.7957(3) 0.6462(3)
N1 N -0.1099(3) 0.8569(3) 0.6585(3)
S2 S 0.38414(14) 0.79802(14) 0.87779(14)
C2 C 0.2558(4) 0.8352(3) 0.7890(4)
N2 N 0.1646(3) 0.8621(3) 0.7273(3)
O2 O -0.0126(3) 0.79326(19) 0.4867(2)
O3 O 0.8935(2) 0.4986(2) 0.9777(2)
N3 N 0.0467(3) 0.7010(2) 0.5187(3)
N4 N 0.7767(3) 0.5011(2) 0.9411(2)
C3 C 0.1024(4) 0.6612(3) 0.4593(3)
H3 H 0.1002 0.6978 0.3970
C4 C 0.1625(4) 0.5667(3) 0.4907(3)
H4 H 0.1994 0.5395 0.4480
C5 C 0.1697(3) 0.5110(3) 0.5834(3)
C6 C 0.1094(4) 0.5541(3) 0.6414(3)
H5 H 0.1097 0.5182 0.7034
C7 C 0.0494(4) 0.6488(3) 0.6089(3)
H6 H 0.0106 0.6768 0.6495
C8 C 0.2378(4) 0.4088(3) 0.6202(3)
H7 H 0.2233 0.3649 0.5550
H8 H 0.2103 0.3700 0.6683
C9 C 0.3680(4) 0.4278(3) 0.6822(4)
H9 H 0.3946 0.4677 0.6340
H10 H 0.4078 0.3594 0.6974
C10 C 0.4045(4) 0.4883(4) 0.7928(4)
H11 H 0.3706 0.5593 0.7781
H12 H 0.3745 0.4514 0.8402
C11 C 0.5343(4) 0.4967(3) 0.8520(3)
C12 C 0.5957(4) 0.5829(3) 0.8378(4)
H13 H 0.5545 0.6416 0.7969
C13 C 0.7157(4) 0.5838(3) 0.8825(4)
H14 H 0.7547 0.6428 0.8718
C14 C 0.6016(4) 0.4155(4) 0.9180(4)
H15 H 0.5650 0.3573 0.9337
C15 C 0.7211(4) 0.4186(3) 0.9611(4)
H16 H 0.7645 0.3622 1.0050
O3A O -0.1065(2) 1.0014(2) 0.4777(2)
O3C O 0.1065(2) 0.9986(2) 0.5223(2)
Zn1A Zn 1.01399(4) 0.58261(4) 1.11163(4)
Zn1C Zn 0.98601(4) 0.41739(4) 0.88837(4)
loop_
_geom_bond_atom_site_label_1
_geom_bond_atom_site_label_2
_geom_bond_site_symmetry_1
_geom_bond_site_symmetry_2
Zn1 O1 1_555 1_555
O1 H1 1_555 1_555
H2 O1 1_555 1_555
S1 C1 1_555 1_555
C1 N1 1_555 1_555
N1 Zn1 1_555 1_555
S2 C2 1_555 1_555
C2 N2 1_555 1_555
N2 Zn1 1_555 1_555
O2 Zn1 1_555 1_555
O3 N4 1_555 1_555
N3 O2 1_555 1_555
N4 C13 1_555 1_555
C3 N3 1_555 1_555
H3 C3 1_555 1_555
C4 C3 1_555 1_555
H4 C4 1_555 1_555
C5 C4 1_555 1_555
C6 C5 1_555 1_555
H5 C6 1_555 1_555
C7 N3 1_555 1_555
H6 C7 1_555 1_555
C8 C5 1_555 1_555
H7 C8 1_555 1_555
H8 C8 1_555 1_555
C9 C8 1_555 1_555
H9 C9 1_555 1_555
H10 C9 1_555 1_555
C10 C9 1_555 1_555
H11 C10 1_555 1_555
H12 C10 1_555 1_555
C11 C10 1_555 1_555
C12 C11 1_555 1_555
H13 C12 1_555 1_555
C13 C12 1_555 1_555
H14 C13 1_555 1_555
C14 C11 1_555 1_555
H15 C14 1_555 1_555
C15 N4 1_555 1_555
H16 C15 1_555 1_555
O3A Zn1 1_555 1_555
O3C Zn1 1_555 1_555
Zn1A O3 1_555 1_555
Zn1C O3 1_555 1_555
C6 C7 1_555 1_555
C14 C15 1_555 1_555

#END
