
#######################################################################
#
#                 Cambridge Crystallographic Data Centre
#                                CCDC 
#
#######################################################################
#
# If this CIF has been generated from an entry in the Cambridge 
# Structural Database, then it will include bibliographic, chemical, 
# crystal, experimental, refinement or atomic coordinate data resulting 
# from the CCDC's data processing and validation procedures.
#
#######################################################################

data_UMAVEJ
_symmetry_cell_setting           monoclinic
_symmetry_space_group_name_H-M   'P 21/c'
_symmetry_Int_Tables_number      14
_space_group_name_Hall           '-P 2ybc'
loop_
_symmetry_equiv_pos_site_id
_symmetry_equiv_pos_as_xyz
1 x,y,z
2 x,1/2-y,1/2+z
3 -x,-y,-z
4 -x,1/2+y,1/2-z
_cell_length_a                   15.3748(15)
_cell_length_b                   14.9260(15)
_cell_length_c                   8.1696(8)
_cell_angle_alpha                90
_cell_angle_beta                 91.079(2)
_cell_angle_gamma                90
_cell_volume                     1874.46
loop_
_atom_site_label
_atom_site_type_symbol
_atom_site_fract_x
_atom_site_fract_y
_atom_site_fract_z
Cd1 Cd -0.080164(11) 0.521147(13) 0.17408(2)
S1 S -0.02834(6) 0.36049(5) 0.29315(10)
O1 O 0.06079(11) 0.54105(14) 0.0836(2)
O2 O 0.80442(13) 0.78714(14) 0.2710(3)
N1 N 0.12468(12) 0.56843(14) 0.1865(2)
N2 N 0.72849(13) 0.76292(16) 0.3315(3)
C1 C 0.13750(18) 0.65628(19) 0.2051(4)
H1 H 0.1030 0.6969 0.1470
C2 C 0.20227(19) 0.6866(2) 0.3109(4)
H2 H 0.2113 0.7479 0.3234
C3 C 0.25339(17) 0.6271(2) 0.3978(3)
C4 C 0.23658(19) 0.5368(2) 0.3749(4)
H3 H 0.2698 0.4949 0.4324
C5 C 0.17206(19) 0.5078(2) 0.2691(4)
H4 H 0.1615 0.4469 0.2552
C6 C 0.32644(19) 0.6575(3) 0.5105(4)
H5 H 0.3336 0.6144 0.5986
H6 H 0.3108 0.7146 0.5588
C7 C 0.41228(17) 0.6678(3) 0.4240(4)
H7 H 0.4072 0.7150 0.3429
H8 H 0.4258 0.6125 0.3675
C8 C 0.48567(18) 0.6901(3) 0.5444(4)
H9 H 0.4674 0.7394 0.6129
H10 H 0.4958 0.6387 0.6150
C9 C 0.57043(17) 0.7151(3) 0.4651(4)
C10 C 0.59706(19) 0.8029(3) 0.4562(4)
H11 H 0.5616 0.8477 0.4973
C11 C 0.67445(19) 0.8256(2) 0.3883(4)
H12 H 0.6900 0.8857 0.3813
C12 C 0.7045(2) 0.6769(2) 0.3355(4)
H13 H 0.7411 0.6330 0.2942
C13 C 0.6256(2) 0.6529(2) 0.4010(5)
H14 H 0.6095 0.5928 0.4014
O3 O -0.11153(16) 0.66277(16) 0.0718(3)
H15 H -0.117(2) 0.679(2) -0.028(5)
H16 H -0.136(2) 0.693(3) 0.122(5)
C14 C 0.01773(19) 0.38817(17) 0.4685(3)
C15 C -0.28843(19) 0.4641(2) 0.1059(4)
N3 N -0.22077(17) 0.4825(2) 0.1543(4)
S2 S -0.38639(7) 0.44188(10) 0.04237(17)
N4 N 0.05259(18) 0.40720(17) 0.5888(3)
O1B O -0.06079(11) 0.45895(14) -0.0836(2)
N4B N -0.05259(18) 0.59280(17) 0.4112(3)
Cd1B Cd 0.080164(11) 0.478853(13) -0.17408(2)
Cd1B_2 Cd 0.080164(11) 0.478853(13) 0.82592(2)
loop_
_geom_bond_atom_site_label_1
_geom_bond_atom_site_label_2
_geom_bond_site_symmetry_1
_geom_bond_site_symmetry_2
Cd1 S1 1_555 1_555
S1 C14 1_555 1_555
O1 Cd1 1_555 1_555
O2 N2 1_555 1_555
N1 O1 1_555 1_555
N2 C11 1_555 1_555
C1 N1 1_555 1_555
H1 C1 1_555 1_555
C2 C1 1_555 1_555
H2 C2 1_555 1_555
C3 C2 1_555 1_555
C4 C3 1_555 1_555
H3 C4 1_555 1_555
C5 N1 1_555 1_555
H4 C5 1_555 1_555
C6 C3 1_555 1_555
H5 C6 1_555 1_555
H6 C6 1_555 1_555
C7 C6 1_555 1_555
H7 C7 1_555 1_555
H8 C7 1_555 1_555
C8 C7 1_555 1_555
H9 C8 1_555 1_555
H10 C8 1_555 1_555
C9 C8 1_555 1_555
C10 C9 1_555 1_555
H11 C10 1_555 1_555
C11 C10 1_555 1_555
H12 C11 1_555 1_555
C12 N2 1_555 1_555
H13 C12 1_555 1_555
C13 C9 1_555 1_555
H14 C13 1_555 1_555
O3 Cd1 1_555 1_555
H15 O3 1_555 1_555
H16 O3 1_555 1_555
C14 N4 1_555 1_555
C15 N3 1_555 1_555
N3 Cd1 1_555 1_555
S2 C15 1_555 1_555
N4 Cd1B_2 1_555 1_555
O1B Cd1 1_555 1_555
N4B Cd1 1_555 1_555
Cd1B O1 1_555 1_555
C4 C5 1_555 1_555
C12 C13 1_555 1_555
O1B Cd1B 1_555 1_555

#END
