
#######################################################################
#
#                 Cambridge Crystallographic Data Centre
#                                CCDC 
#
#######################################################################
#
# If this CIF has been generated from an entry in the Cambridge 
# Structural Database, then it will include bibliographic, chemical, 
# crystal, experimental, refinement or atomic coordinate data resulting 
# from the CCDC's data processing and validation procedures.
#
#######################################################################

data_UMAWOV
_symmetry_cell_setting           triclinic
_symmetry_space_group_name_H-M   'P -1'
_symmetry_Int_Tables_number      2
_space_group_name_Hall           '-P 1'
loop_
_symmetry_equiv_pos_site_id
_symmetry_equiv_pos_as_xyz
1 x,y,z
2 -x,-y,-z
_cell_length_a                   9.7392(9)
_cell_length_b                   10.0086(10)
_cell_length_c                   10.6721(19)
_cell_angle_alpha                101.4960(10)
_cell_angle_beta                 96.5610(10)
_cell_angle_gamma                112.0380(10)
_cell_volume                     924.229
loop_
_atom_site_label
_atom_site_type_symbol
_atom_site_fract_x
_atom_site_fract_y
_atom_site_fract_z
Zn1 Zn 0.39872(5) -0.09773(5) 0.19546(5)
Zn2 Zn 0.13683(5) -0.11388(5) 0.34608(5)
Zn3 Zn 0.49745(5) 0.21066(5) 0.44035(5)
Zn4 Zn 0.22292(5) 0.19993(5) 0.56883(5)
O1 O 0.1485(3) 0.0125(3) 0.2046(3)
O2 O 0.3315(3) 0.0217(3) 0.0963(3)
O3 O 0.3878(3) 0.3196(3) 0.3686(3)
O4 O 0.1660(3) 0.2827(3) 0.4240(3)
O5 O 0.4124(3) 0.6632(3) 0.3765(3)
O6 O 0.6065(3) 0.6233(3) 0.3093(3)
O7 O 0.5153(3) 0.2069(3) -0.0802(3)
O8 O 0.2798(3) 0.0534(3) -0.1875(3)
O9 O 0.3034(3) 0.0599(3) 0.4835(3)
O10 O 0.2244(3) -0.2324(3) 0.2464(3)
O11 O 0.5479(3) 0.0522(3) 0.3509(3)
O12 O 0.0971(4) -0.2645(5) 0.4858(4)
O13 O -0.0628(3) -0.1227(4) 0.3464(3)
H1 H -0.1118 -0.1662 0.2551
O14 O 0.7025(4) 0.3734(4) 0.3914(3)
C1 C 0.2221(4) 0.0540(4) 0.1222(4)
C2 C 0.1772(4) 0.1495(4) 0.0444(4)
H2 H 0.1006 0.0802 -0.0329
C3 C 0.1027(4) 0.2401(4) 0.1204(4)
H3 H 0.0241 0.1741 0.1550
H4 H 0.0545 0.2785 0.0606
C4 C 0.2135(4) 0.3715(4) 0.2339(4)
H5 H 0.1614 0.4353 0.2625
C5 C 0.3545(4) 0.4672(4) 0.1867(4)
H6 H 0.3179 0.5149 0.1268
C6 C 0.4261(4) 0.3746(4) 0.1073(4)
H7 H 0.5066 0.4397 0.0739
H8 H 0.4703 0.3302 0.1641
C7 C 0.3092(4) 0.2517(4) -0.0062(4)
H9 H 0.2662 0.3018 -0.0590
C8 C 0.2581(4) 0.3200(4) 0.3495(4)
C9 C 0.4680(4) 0.5928(4) 0.2985(4)
C10 C 0.3703(5) 0.1616(4) -0.0978(4)
H10 H 0.6975 0.4536 0.3957
H11 H 0.7288 0.3451 0.3242
H12 H 0.1444 -0.3205 0.5051
H13 H 0.0315 -0.2799 0.5312
H18 H 0.255(5) -0.287(5) 0.280(5)
H19 H 0.624(4) 0.079(5) 0.318(5)
H20 H 0.346(6) 0.028(7) 0.536(5)
Zn1A Zn 0.60128(5) 0.09773(5) -0.19546(5)
Zn3A Zn 0.50255(5) 0.78934(5) 0.55965(5)
Zn4A Zn 0.77708(5) 0.80007(5) 0.43117(5)
Zn4A_2 Zn -0.22292(5) -0.19993(5) 0.43117(5)
O5A O 0.5876(3) 0.3368(3) 0.6235(3)
O6A O 0.3935(3) 0.3767(3) 0.6907(3)
O7A O 0.4847(3) -0.2069(3) 0.0802(3)
O13A O 0.0628(3) 0.1227(4) 0.6536(3)
H1A H 0.1118 0.1662 0.7449
O15 O 0.7301(5) 0.2547(6) 0.1504(4)
H14 H 0.7674 0.3457 0.1601
H15 H 0.6695 0.2135 0.0800
O16 O 0.9499(9) 0.5306(8) 0.0975(8)
H16 H 0.8610 0.5056 0.0542
H17 H 0.9296 0.5144 0.1746
loop_
_geom_bond_atom_site_label_1
_geom_bond_atom_site_label_2
_geom_bond_site_symmetry_1
_geom_bond_site_symmetry_2
Zn1 O2 1_555 1_555
Zn2 O1 1_555 1_555
Zn3 O3 1_555 1_555
Zn4 O4 1_555 1_555
O1 C1 1_555 1_555
O2 C1 1_555 1_555
O3 C8 1_555 1_555
O4 C8 1_555 1_555
O5 C9 1_555 1_555
O6 C9 1_555 1_555
O7 C10 1_555 1_555
O8 C10 1_555 1_555
O9 Zn2 1_555 1_555
O10 Zn1 1_555 1_555
O11 Zn1 1_555 1_555
O12 Zn2 1_555 1_555
O13 Zn2 1_555 1_555
H1 O13 1_555 1_555
O14 Zn3 1_555 1_555
C1 C2 1_555 1_555
C2 H2 1_555 1_555
C3 C2 1_555 1_555
H3 C3 1_555 1_555
H4 C3 1_555 1_555
C4 C3 1_555 1_555
H5 C4 1_555 1_555
C5 C4 1_555 1_555
H6 C5 1_555 1_555
C6 C5 1_555 1_555
H7 C6 1_555 1_555
H8 C6 1_555 1_555
C7 C2 1_555 1_555
H9 C7 1_555 1_555
C8 C4 1_555 1_555
C9 C5 1_555 1_555
C10 C7 1_555 1_555
O15 H14 1_555 1_555
O16 H16 1_555 1_555
H10 O14 1_555 1_555
H11 O14 1_555 1_555
H12 O12 1_555 1_555
H13 O12 1_555 1_555
H15 O15 1_555 1_555
H17 O16 1_555 1_555
H18 O10 1_555 1_555
H19 O11 1_555 1_555
H20 O9 1_555 1_555
Zn1A O7 1_555 1_555
Zn3A O5 1_555 1_555
Zn4A O6 1_555 1_555
Zn4A_2 O13 1_555 1_555
O5A Zn3 1_555 1_555
O6A Zn4 1_555 1_555
O7A Zn1 1_555 1_555
O13A Zn4 1_555 1_555
H1A O13A 1_555 1_555
Zn2 O10 1_555 1_555
Zn3 O9 1_555 1_555
Zn3 O11 1_555 1_555
Zn4 O9 1_555 1_555
C6 C7 1_555 1_555

#END
