
#######################################################################
#
#                 Cambridge Crystallographic Data Centre
#                                CCDC 
#
#######################################################################
#
# If this CIF has been generated from an entry in the Cambridge 
# Structural Database, then it will include bibliographic, chemical, 
# crystal, experimental, refinement or atomic coordinate data resulting 
# from the CCDC's data processing and validation procedures.
#
#######################################################################

data_UMAWUB
_symmetry_cell_setting           monoclinic
_symmetry_space_group_name_H-M   'P 21/c'
_symmetry_Int_Tables_number      14
_space_group_name_Hall           '-P 2ybc'
loop_
_symmetry_equiv_pos_site_id
_symmetry_equiv_pos_as_xyz
1 x,y,z
2 -x,1/2+y,1/2-z
3 -x,-y,-z
4 x,1/2-y,1/2+z
_cell_length_a                   6.3944(9)
_cell_length_b                   25.686(4)
_cell_length_c                   10.2690(11)
_cell_angle_alpha                90
_cell_angle_beta                 127.942(6)
_cell_angle_gamma                90
_cell_volume                     1330.15
loop_
_atom_site_label
_atom_site_type_symbol
_atom_site_fract_x
_atom_site_fract_y
_atom_site_fract_z
Zn1 Zn 0.06713(10) 0.95314(2) 0.60430(6)
Zn2 Zn 0.02551(11) 0.79518(2) 0.59883(7)
O1 O -0.1518(7) 0.82487(13) 0.7030(4)
O2 O 0.0928(6) 0.88667(13) 0.7103(4)
O3 O 0.6819(6) 0.94073(13) 1.3999(4)
O4 O 0.5738(6) 1.01368(12) 1.2519(4)
O5 O 0.1660(7) 0.91992(13) 1.4653(4)
O6 O 0.0698(7) 0.99171(13) 1.3203(4)
O7 O 0.3221(8) 0.77290(18) 0.8425(5)
O8 O -0.2723(7) 0.83204(15) 0.3714(4)
O9 O -0.1467(7) 0.77318(13) 1.0104(4)
O10 O 0.2294(7) 0.80446(14) 1.0738(5)
O11 O 0.2789(8) 0.81773(17) 0.5528(5)
C1 C 0.2395(9) 0.94951(17) 1.1511(5)
H1 H 0.1195 0.9795 1.1012
C2 C 0.1294(8) 0.94424(18) 1.3482(6)
C3 C -0.0345(9) 0.86853(17) 0.7592(6)
C4 C -0.0047(10) 0.81067(19) 1.0182(6)
C5 C -0.0415(9) 0.89750(19) 0.8830(5)
H2 H -0.1681 0.9262 0.8243
C6 C 0.2303(9) 0.92185(18) 1.0149(6)
H3 H 0.2718 0.9467 0.9627
H4 H 0.3645 0.8948 1.0643
C7 C 0.1474(9) 0.91438(19) 1.2273(6)
H5 H 0.2724 0.8854 1.2851
C8 C 0.5187(9) 0.96992(19) 1.2780(6)
C9 C -0.1430(9) 0.86302(18) 0.9567(6)
H6 H -0.3307 0.8560 0.8675
C10 C -0.1298(9) 0.8927(2) 1.0909(6)
H7 H -0.1829 0.8695 1.1405
H8 H -0.2554 0.9212 1.0403
H9 H 0.160(6) 0.812(2) 0.454(2)
H10 H 0.430(4) 0.811(2) 0.584(5)
H11 H -0.288(9) 0.832(2) 0.446(4)
H12 H -0.418(5) 0.825(2) 0.282(3)
H13 H 0.486(3) 0.775(2) 0.892(5)
H14 H 0.299(8) 0.771(2) 0.914(4)
Zn1_2 Zn 1.06713(10) 0.95314(2) 1.60430(6)
Zn1B Zn 0.93287(10) 1.04686(2) 1.39570(6)
Zn1_3 Zn 0.06713(10) 0.95314(2) 1.60430(6)
Zn1B_2 Zn -0.06713(10) 1.04686(2) 1.39570(6)
Zn2C Zn 0.02551(11) 0.70482(2) 1.09883(7)
O3_2 O -0.3181(6) 0.94073(13) 0.3999(4)
O4B O 0.4262(6) 0.98632(12) 0.7481(4)
O5_2 O 0.1660(7) 0.91992(13) 0.4653(4)
O6B O -0.0698(7) 1.00829(13) 0.6797(4)
O9C O -0.1467(7) 0.72682(13) 0.5104(4)
loop_
_geom_bond_atom_site_label_1
_geom_bond_atom_site_label_2
_geom_bond_site_symmetry_1
_geom_bond_site_symmetry_2
Zn1 O2 1_555 1_555
Zn2 O1 1_555 1_555
O1 C3 1_555 1_555
O2 Zn2 1_555 1_555
O3 C8 1_555 1_555
O4 C8 1_555 1_555
O5 C2 1_555 1_555
O6 C2 1_555 1_555
O7 Zn2 1_555 1_555
O8 Zn2 1_555 1_555
O9 C4 1_555 1_555
O10 C4 1_555 1_555
O11 Zn2 1_555 1_555
C1 H1 1_555 1_555
C2 C7 1_555 1_555
C3 O2 1_555 1_555
C4 C9 1_555 1_555
C5 C3 1_555 1_555
H2 C5 1_555 1_555
C6 C1 1_555 1_555
H3 C6 1_555 1_555
H4 C6 1_555 1_555
C7 C1 1_555 1_555
H5 C7 1_555 1_555
C8 C1 1_555 1_555
C9 C5 1_555 1_555
H6 C9 1_555 1_555
C10 C7 1_555 1_555
H7 C10 1_555 1_555
H8 C10 1_555 1_555
H9 O11 1_555 1_555
H10 O11 1_555 1_555
H11 O8 1_555 1_555
H12 O8 1_555 1_555
H13 O7 1_555 1_555
H14 O7 1_555 1_555
Zn1_2 O3 1_555 1_555
Zn1B O4 1_555 1_555
Zn1_3 O5 1_555 1_555
Zn1B_2 O6 1_555 1_555
Zn2C O9 1_555 1_555
O3_2 Zn1 1_555 1_555
O4B Zn1 1_555 1_555
O5_2 Zn1 1_555 1_555
O6B Zn1 1_555 1_555
O9C Zn2 1_555 1_555
C5 C6 1_555 1_555
C9 C10 1_555 1_555

#END
