
#######################################################################
#
#                 Cambridge Crystallographic Data Centre
#                                CCDC 
#
#######################################################################
#
# If this CIF has been generated from an entry in the Cambridge 
# Structural Database, then it will include bibliographic, chemical, 
# crystal, experimental, refinement or atomic coordinate data resulting 
# from the CCDC's data processing and validation procedures.
#
#######################################################################

data_UMESUB
_symmetry_cell_setting           triclinic
_symmetry_space_group_name_H-M   'P -1'
_symmetry_Int_Tables_number      2
_space_group_name_Hall           '-P 1'
loop_
_symmetry_equiv_pos_site_id
_symmetry_equiv_pos_as_xyz
1 x,y,z
2 -x,-y,-z
_cell_length_a                   9.917(1)
_cell_length_b                   11.154(5)
_cell_length_c                   11.723(8)
_cell_angle_alpha                63.990(4)
_cell_angle_beta                 78.250(10)
_cell_angle_gamma                80.630(8)
_cell_volume                     1136.99
loop_
_atom_site_label
_atom_site_type_symbol
_atom_site_fract_x
_atom_site_fract_y
_atom_site_fract_z
Co1 Co 0.0000 0.5000 0.5000
Co2 Co -0.5000 1.5000 0.0000
C1 C -0.0588(4) 0.6137(3) 0.2196(3)
H1 H -0.0236 0.5280 0.2286
C2 C -0.1046(4) 0.7010(3) 0.1060(3)
H2 H -0.1014 0.6736 0.0411
C3 C -0.1560(3) 0.8308(3) 0.0889(3)
C4 C -0.1575(4) 0.8660(3) 0.1894(3)
H3 H -0.1887 0.9522 0.1814
C5 C -0.1123(3) 0.7715(3) 0.3009(3)
H4 H -0.1165 0.7961 0.3679
C6 C -0.3146(4) 1.3182(3) -0.1121(3)
H5 H -0.2845 1.4010 -0.1708
C7 C -0.2497(4) 1.2061(3) -0.1260(3)
H6 H -0.1778 1.2135 -0.1928
C8 C -0.4630(3) 1.1941(3) 0.0634(3)
H7 H -0.5365 1.1896 0.1283
C9 C -0.4044(4) 1.0764(3) 0.0562(3)
H8 H -0.4388 0.9950 0.1137
C10 C -0.2925(3) 1.0817(3) -0.0392(3)
C11 C 0.1129(3) 0.7349(3) 0.5181(3)
C12 C 0.0546(3) 0.8710(2) 0.5131(2)
C13 C 0.1275(3) 0.9832(2) 0.4321(2)
H9 H 0.2135 0.9714 0.3870
C14 C -0.0748(3) 0.8882(2) 0.5826(2)
C15 C -0.1594(3) 0.7709(3) 0.6776(3)
N1 N -0.0623(3) 0.6457(2) 0.3190(2)
N2 N -0.4200(3) 1.3149(2) -0.0177(2)
O1 O 0.0258(2) 0.65397(18) 0.5432(2)
O2 O 0.2404(3) 0.7116(3) 0.4980(4)
O3 O -0.2680(2) 0.7596(2) 0.6432(2)
O4 O -0.1207(2) 0.6984(2) 0.7832(2)
O5 O -0.2083(3) 0.5144(3) 0.5901(2)
H10 H -0.2500 0.5805 0.6034
H11 H -0.2612 0.4846 0.5630
O6 O -0.4798(2) 1.6072(2) -0.20281(19)
H12 H -0.4053 1.6392 -0.2440
H13 H -0.5481 1.6528 -0.2379
O7 O -0.2957(2) 1.5378(2) -0.0100(2)
H14 H -0.2539 1.5934 -0.0782
H15 H -0.2379 1.4787 0.0316
S1 S -0.20812(11) 0.93841(9) -0.06215(8)
Co1_2 Co 0.0000 1.5000 0.5000
Co1_3 Co -1.0000 2.5000 -0.5000
C1A C -0.9412(4) 2.3863(3) -0.2196(3)
H1A H -0.9764 2.4720 -0.2286
C2A C -0.8954(4) 2.2990(3) -0.1060(3)
H2A H -0.8986 2.3264 -0.0411
C3A C -0.8440(3) 2.1692(3) -0.0889(3)
C4A C -0.8425(4) 2.1340(3) -0.1894(3)
H3A H -0.8113 2.0478 -0.1814
C5A C -0.8877(3) 2.2285(3) -0.3009(3)
H4A H -0.8835 2.2039 -0.3679
C6A C -0.6854(4) 1.6818(3) 0.1121(3)
H5A H -0.7155 1.5990 0.1708
C7A C -0.7503(4) 1.7939(3) 0.1260(3)
H6A H -0.8222 1.7865 0.1928
C8A C -0.5370(3) 1.8059(3) -0.0634(3)
H7A H -0.4635 1.8104 -0.1283
C9A C -0.5956(4) 1.9236(3) -0.0562(3)
H8A H -0.5612 2.0050 -0.1137
C10A C -0.7075(3) 1.9183(3) 0.0392(3)
C11A C -0.1129(3) 1.2651(3) 0.4819(3)
C12A C -0.0546(3) 1.1290(2) 0.4869(2)
C13A C -0.1275(3) 1.0168(2) 0.5679(2)
H9A H -0.2135 1.0286 0.6130
C14A C 0.0748(3) 1.1118(2) 0.4174(2)
C15A C 0.1594(3) 1.2291(3) 0.3224(3)
N1A N 0.0623(3) 0.3543(2) 0.6810(2)
N1A_2 N -0.9377(3) 2.3543(2) -0.3190(2)
N2A N -0.5800(3) 1.6851(2) 0.0177(2)
O1A O -0.0258(2) 1.34603(18) 0.4568(2)
O1A_2 O -0.0258(2) 0.34603(18) 0.4568(2)
O2A O -0.2404(3) 1.2884(3) 0.5020(4)
O3A O 0.2680(2) 1.2404(2) 0.3568(2)
O4A O 0.1207(2) 1.3016(2) 0.2168(2)
O5A O 0.2083(3) 0.4856(3) 0.4099(2)
H10A H 0.2500 0.4195 0.3966
H11A H 0.2612 0.5154 0.4370
O6A O -0.5202(2) 1.3928(2) 0.20281(19)
H12A H -0.5947 1.3608 0.2440
H13A H -0.4519 1.3472 0.2379
O7A O -0.7043(2) 1.4622(2) 0.0100(2)
H14A H -0.7461 1.4066 0.0782
H15A H -0.7621 1.5213 -0.0316
S1A S -0.79188(11) 2.06159(9) 0.06215(8)
O8 O -0.3310(4) 0.2011(4) 0.3283(4)
H16 H -0.3531 0.1249 0.3621
H17 H -0.2614 0.1893 0.2796
O9 O 0.1326(4) 0.6697(4) -0.1363(4)
H18 H 0.1749 0.6402 -0.1940
H19 H 0.0478 0.6821 -0.1540
O10 O -0.4160(12) 0.5313(11) 0.3336(12)
O11 O 0.4886(4) 0.8043(4) 0.3308(4)
H20 H 0.4148 0.7762 0.3897
H21 H 0.5546 0.7295 0.3555
O12 O 0.6071(3) 0.9404(3) 0.4359(3)
H22 H 0.5760 0.9100 0.3924
H23 H 0.6570 0.8812 0.4867
O13? O -0.3921(10) 0.5426(10) 0.4396(10)
loop_
_geom_bond_atom_site_label_1
_geom_bond_atom_site_label_2
_geom_bond_site_symmetry_1
_geom_bond_site_symmetry_2
Co1 N1 1_555 1_555
Co2 N2 1_555 1_555
C1 H1 1_555 1_555
C2 C1 1_555 1_555
H2 C2 1_555 1_555
C3 C2 1_555 1_555
C4 C3 1_555 1_555
H3 C4 1_555 1_555
C5 C4 1_555 1_555
H4 C5 1_555 1_555
C6 H5 1_555 1_555
C7 C6 1_555 1_555
H6 C7 1_555 1_555
C8 H7 1_555 1_555
C9 C8 1_555 1_555
H8 C9 1_555 1_555
C10 C7 1_555 1_555
C11 C12 1_555 1_555
C12 C13 1_555 1_555
C13 H9 1_555 1_555
C14 C12 1_555 1_555
C15 C14 1_555 1_555
N1 C1 1_555 1_555
N2 C6 1_555 1_555
O1 Co1 1_555 1_555
O2 C11 1_555 1_555
O3 C15 1_555 1_555
O4 C15 1_555 1_555
O5 Co1 1_555 1_555
H10 O5 1_555 1_555
H11 O5 1_555 1_555
O6 Co2 1_555 1_555
H12 O6 1_555 1_555
H13 O6 1_555 1_555
O7 Co2 1_555 1_555
H14 O7 1_555 1_555
H15 O7 1_555 1_555
O8 H16 1_555 1_555
H17 O8 1_555 1_555
O9 H18 1_555 1_555
H19 O9 1_555 1_555
O11 H20 1_555 1_555
H21 O11 1_555 1_555
O12 H22 1_555 1_555
H23 O12 1_555 1_555
S1 C3 1_555 1_555
Co1_2 O1A 1_555 1_555
Co1_3 N1A_2 1_555 1_555
C1A H1A 1_555 1_555
C2A C1A 1_555 1_555
H2A C2A 1_555 1_555
C3A C2A 1_555 1_555
C4A C3A 1_555 1_555
H3A C4A 1_555 1_555
C5A C4A 1_555 1_555
H4A C5A 1_555 1_555
C6A H5A 1_555 1_555
C7A C6A 1_555 1_555
H6A C7A 1_555 1_555
C8A H7A 1_555 1_555
C9A C8A 1_555 1_555
H8A C9A 1_555 1_555
C10A C7A 1_555 1_555
C11A C12A 1_555 1_555
C12A C13A 1_555 1_555
C13A C14 1_555 1_555
H9A C13A 1_555 1_555
C14A C13 1_555 1_555
C15A C14A 1_555 1_555
N1A Co1 1_555 1_555
N1A_2 C1A 1_555 1_555
N2A Co2 1_555 1_555
O1A C11A 1_555 1_555
O1A_2 Co1 1_555 1_555
O2A C11A 1_555 1_555
O3A C15A 1_555 1_555
O4A C15A 1_555 1_555
O5A Co1 1_555 1_555
H10A O5A 1_555 1_555
H11A O5A 1_555 1_555
O6A Co2 1_555 1_555
H12A O6A 1_555 1_555
H13A O6A 1_555 1_555
O7A Co2 1_555 1_555
H14A O7A 1_555 1_555
H15A O7A 1_555 1_555
S1A C3A 1_555 1_555
C5 N1 1_555 1_555
C8 N2 1_555 1_555
C9 C10 1_555 1_555
C10 S1 1_555 1_555
C11 O1 1_555 1_555
C5A N1A_2 1_555 1_555
C6A N2A 1_555 1_555
C8A N2A 1_555 1_555
C9A C10A 1_555 1_555
C10A S1A 1_555 1_555
C12A C14A 1_555 1_555

#END
