
#######################################################################
#
#                 Cambridge Crystallographic Data Centre
#                                CCDC 
#
#######################################################################
#
# If this CIF has been generated from an entry in the Cambridge 
# Structural Database, then it will include bibliographic, chemical, 
# crystal, experimental, refinement or atomic coordinate data resulting 
# from the CCDC's data processing and validation procedures.
#
#######################################################################

data_UMETAI
_symmetry_cell_setting           monoclinic
_symmetry_space_group_name_H-M   'P 21/n'
_symmetry_Int_Tables_number      14
_space_group_name_Hall           '-P 2yn'
loop_
_symmetry_equiv_pos_site_id
_symmetry_equiv_pos_as_xyz
1 x,y,z
2 1/2-x,1/2+y,1/2-z
3 -x,-y,-z
4 1/2+x,1/2-y,1/2+z
_cell_length_a                   13.692(3)
_cell_length_b                   12.039(2)
_cell_length_c                   16.888(3)
_cell_angle_alpha                90
_cell_angle_beta                 90.01(3)
_cell_angle_gamma                90
_cell_volume                     2783.78
loop_
_atom_site_label
_atom_site_type_symbol
_atom_site_fract_x
_atom_site_fract_y
_atom_site_fract_z
Cu1 Cu 0.91804(3) 0.72356(4) 0.23325(2)
Cu2 Cu 1.47073(3) 0.68886(4) 0.25020(2)
O1 O 1.01319(18) 0.6878(2) 0.15109(15)
O2 O 1.0991(2) 0.8351(3) 0.18241(19)
C1 C 1.0846(3) 0.7525(3) 0.1425(2)
O3 O 1.0600(2) 0.8036(3) -0.16113(16)
O4 O 1.1304(2) 0.6463(2) -0.19611(15)
C2 C 1.1152(2) 0.7222(3) -0.1489(2)
C3 C 1.1645(2) 0.7189(3) -0.06951(19)
C4 C 1.1103(2) 0.7391(3) -0.0025(2)
H1 H 1.0457 0.7617 -0.0078
C5 C 1.1493(2) 0.7267(3) 0.07288(19)
O5 O 1.38106(18) 0.7024(2) 0.16307(15)
O6 O 1.2412(2) 0.6462(3) 0.21563(16)
C6 C 1.3009(2) 0.6742(3) 0.01307(19)
H2 H 1.3656 0.6518 0.0183
C7 C 1.2615(2) 0.6867(3) -0.06177(19)
N1 N 0.8475(2) 0.8251(3) 0.15856(16)
C8 C 0.7865(3) 0.8597(3) 0.0288(2)
H3 H 0.7827 0.8386 -0.0241
C9 C 1.2458(2) 0.6942(3) 0.08057(19)
C10 C 0.8387(3) 0.7979(3) 0.0819(2)
H4 H 0.8697 0.7339 0.0640
C11 C 0.8045(3) 0.9184(3) 0.1829(2)
H5 H 0.8112 0.9392 0.2356
C12 C 1.2917(2) 0.6792(3) 0.16060(19)
S1 S 0.67305(10) 1.04514(9) -0.00460(7)
O7 O 1.38669(19) 0.5958(2) -0.13249(15)
C13 C 0.7510(3) 0.9849(3) 0.1334(2)
H6 H 0.7227 1.0499 0.1523
C14 C 1.3284(2) 0.6746(3) -0.13121(19)
C15 C 0.7396(3) 0.9541(3) 0.0553(2)
C16 C 0.5909(3) 0.8523(3) -0.0668(2)
H7 H 0.6133 0.8120 -0.0234
C17 C 0.6109(3) 0.9629(3) -0.0735(2)
O8 O 1.32352(18) 0.7505(2) -0.18247(14)
C18 C 0.5375(3) 0.8017(3) -0.1247(3)
H8 H 0.5257 0.7259 -0.1201
C19 C 0.5740(4) 1.0185(4) -0.1380(3)
H9 H 0.5857 1.0940 -0.1445
C20 C 0.5202(3) 0.9619(4) -0.1921(2)
H10 H 0.4949 1.0009 -0.2351
N2 N 0.5017(2) 0.8541(3) -0.18700(17)
O9 O 0.8270(2) 0.5764(2) 0.18862(17)
H11 H 0.7826 0.5786 0.1589
H12 H 0.8392 0.5062 0.1816
O10 O 1.4868(2) 0.5119(3) 0.23304(19)
H13 H 1.5317 0.4878 0.2042
H14 H 1.4710 0.4664 0.2690
O11 O 1.5738(2) 0.7458(3) 0.17228(18)
H15 H 1.6001 0.7740 0.2056
H16 H 1.5266 0.7364 0.1476
O12 O 1.3662(3) 0.6760(4) 0.3292(2)
H17 H 1.3531 0.7382 0.3495
H18 H 1.3237 0.6486 0.2998
Cu1C Cu 0.41804(3) 0.77644(4) -0.26675(2)
Cu1C_2 Cu 1.41804(3) 0.77644(4) -0.26675(2)
Cu2C Cu 0.97073(3) 0.81114(4) -0.24980(2)
O3C O 1.5600(2) 0.6964(3) 0.33887(16)
O8C O 0.82352(18) 0.7495(2) 0.31753(14)
N2C N 1.0017(2) 0.6459(3) 0.31300(17)
O13 O 1.3293(3) 0.3962(3) -0.0751(3)
H19 H 1.3510 0.4616 -0.0819
H20 H 1.3597 0.3444 -0.0985
O14 O 1.0317(4) 0.4800(4) 0.0763(3)
H21 H 1.0192 0.5396 0.0993
H22 H 1.0878 0.4547 0.0692
O15 O 1.2515(5) 0.9077(5) 0.2803(4)
H23 H 1.2560 0.9827 0.2834
H24 H 1.2095 0.8766 0.2450
O16 O 1.4772(8) 0.5149(5) 0.4280(4)
H25 H 1.4547 0.4544 0.3917
H26 H 1.5085 0.5775 0.4018
O17 O 1.2154(7) 0.3816(6) 0.0635(4)
H27 H 1.2468 0.3976 0.1005
H28 H 1.2419 0.4063 0.0189
loop_
_geom_bond_atom_site_label_1
_geom_bond_atom_site_label_2
_geom_bond_site_symmetry_1
_geom_bond_site_symmetry_2
Cu1 O1 1_555 1_555
Cu2 O5 1_555 1_555
O1 C1 1_555 1_555
O2 C1 1_555 1_555
C1 C5 1_555 1_555
O3 C2 1_555 1_555
O4 C2 1_555 1_555
C2 C3 1_555 1_555
C3 C4 1_555 1_555
C4 H1 1_555 1_555
C5 C4 1_555 1_555
O5 C12 1_555 1_555
O6 C12 1_555 1_555
C6 H2 1_555 1_555
C7 C3 1_555 1_555
N1 Cu1 1_555 1_555
C8 H3 1_555 1_555
C9 C5 1_555 1_555
C10 N1 1_555 1_555
H4 C10 1_555 1_555
C11 N1 1_555 1_555
H5 C11 1_555 1_555
C12 C9 1_555 1_555
S1 C15 1_555 1_555
O7 C14 1_555 1_555
C13 C11 1_555 1_555
H6 C13 1_555 1_555
C14 C7 1_555 1_555
C15 C8 1_555 1_555
C16 H7 1_555 1_555
C17 S1 1_555 1_555
O8 C14 1_555 1_555
C18 C16 1_555 1_555
H8 C18 1_555 1_555
C19 C17 1_555 1_555
H9 C19 1_555 1_555
C20 C19 1_555 1_555
H10 C20 1_555 1_555
N2 C18 1_555 1_555
O9 Cu1 1_555 1_555
H11 O9 1_555 1_555
H12 O9 1_555 1_555
O10 Cu2 1_555 1_555
H13 O10 1_555 1_555
H14 O10 1_555 1_555
O11 Cu2 1_555 1_555
H15 O11 1_555 1_555
H16 O11 1_555 1_555
O12 Cu2 1_555 1_555
H17 O12 1_555 1_555
H18 O12 1_555 1_555
O13 H19 1_555 1_555
H20 O13 1_555 1_555
O14 H21 1_555 1_555
H22 O14 1_555 1_555
O15 H23 1_555 1_555
H24 O15 1_555 1_555
O16 H25 1_555 1_555
H26 O16 1_555 1_555
O17 H27 1_555 1_555
H28 O17 1_555 1_555
Cu1C N2 1_555 1_555
Cu1C_2 O8 1_555 1_555
Cu2C O3 1_555 1_555
O3C Cu2 1_555 1_555
O8C Cu1 1_555 1_555
N2C Cu1 1_555 1_555
C6 C7 1_555 1_555
C6 C9 1_555 1_555
C8 C10 1_555 1_555
C13 C15 1_555 1_555
C16 C17 1_555 1_555
C20 N2 1_555 1_555

#END
