
#######################################################################
#
#                 Cambridge Crystallographic Data Centre
#                                CCDC 
#
#######################################################################
#
# If this CIF has been generated from an entry in the Cambridge 
# Structural Database, then it will include bibliographic, chemical, 
# crystal, experimental, refinement or atomic coordinate data resulting 
# from the CCDC's data processing and validation procedures.
#
#######################################################################

data_UMETEM
_symmetry_cell_setting           triclinic
_symmetry_space_group_name_H-M   'P -1'
_symmetry_Int_Tables_number      2
_space_group_name_Hall           '-P 1'
loop_
_symmetry_equiv_pos_site_id
_symmetry_equiv_pos_as_xyz
1 x,y,z
2 -x,-y,-z
_cell_length_a                   10.1249(9)
_cell_length_b                   11.3083(5)
_cell_length_c                   11.7880(9)
_cell_angle_alpha                63.338(5)
_cell_angle_beta                 77.668(7)
_cell_angle_gamma                80.150(6)
_cell_volume                     1173.95
loop_
_atom_site_label
_atom_site_type_symbol
_atom_site_fract_x
_atom_site_fract_y
_atom_site_fract_z
Mn1 Mn 0.0000 0.5000 0.5000
Mn2 Mn -0.5000 1.5000 0.0000
C1 C -0.0702(4) 0.6171(3) 0.2150(4)
H1 H -0.0436 0.5295 0.2284
C2 C -0.1195(4) 0.7021(3) 0.1026(4)
H2 H -0.1275 0.6710 0.0437
C3 C -0.1569(4) 0.8340(3) 0.0779(3)
C4 C -0.1433(4) 0.8736(3) 0.1702(4)
H3 H -0.1658 0.9615 0.1575
C5 C -0.0958(4) 0.7807(3) 0.2812(4)
H4 H -0.0895 0.8086 0.3429
C6 C -0.4595(4) 1.1858(3) 0.0627(3)
H5 H -0.5260 1.1783 0.1330
C7 C -0.3974(4) 1.0706(3) 0.0542(4)
H6 H -0.4230 0.9882 0.1168
C8 C -0.3353(4) 1.3138(4) -0.1254(4)
H7 H -0.3141 1.3975 -0.1887
C9 C -0.2679(4) 1.2047(4) -0.1420(4)
H8 H -0.2041 1.2151 -0.2148
C10 C -0.2966(4) 1.0792(3) -0.0484(3)
C11 C 0.1187(3) 0.7380(3) 0.5237(3)
C12 C 0.0565(3) 0.8724(3) 0.5156(3)
C13 C 0.1283(3) 0.9842(3) 0.4353(3)
H9 H 0.2145 0.9730 0.3923
C14 C -0.0731(3) 0.8880(3) 0.5814(3)
C15 C -0.1551(3) 0.7716(3) 0.6750(3)
N1 N -0.0584(3) 0.6534(2) 0.3058(3)
N2 N -0.4286(3) 1.3075(3) -0.0251(3)
O1 O 0.0386(2) 0.6587(2) 0.5359(2)
O2 O 0.2450(2) 0.7138(2) 0.5187(3)
O3 O -0.2620(2) 0.7623(2) 0.6418(2)
O4 O -0.1153(2) 0.6961(2) 0.7793(2)
O5 O 0.2104(2) 0.4670(2) 0.4136(3)
H10 H 0.2308 0.3932 0.4155
H11 H 0.2694 0.4685 0.4688
O6 O -0.5229(2) 1.3825(2) 0.2079(2)
H12 H -0.5989 1.3558 0.2345
H13 H -0.4544 1.3337 0.2345
O7 O -0.7151(2) 1.4742(2) 0.0185(2)
H14 H -0.7612 1.4187 0.0840
H15 H -0.7520 1.5425 -0.0318
S1 S -0.21095(13) 0.93963(10) -0.07161(10)
Mn1_2 Mn -1.0000 2.5000 -0.5000
Mn1_3 Mn 0.0000 1.5000 0.5000
C1A C -0.9298(4) 2.3829(3) -0.2150(4)
H1A H -0.9564 2.4705 -0.2284
C2A C -0.8805(4) 2.2979(3) -0.1026(4)
H2A H -0.8725 2.3290 -0.0437
C3A C -0.8431(4) 2.1660(3) -0.0779(3)
C4A C -0.8567(4) 2.1264(3) -0.1702(4)
H3A H -0.8342 2.0385 -0.1575
C5A C -0.9042(4) 2.2193(3) -0.2812(4)
H4A H -0.9105 2.1914 -0.3429
C6A C -0.5405(4) 1.8142(3) -0.0627(3)
H5A H -0.4740 1.8217 -0.1330
C7A C -0.6026(4) 1.9294(3) -0.0542(4)
H6A H -0.5770 2.0118 -0.1168
C8A C -0.6647(4) 1.6862(4) 0.1254(4)
H7A H -0.6859 1.6025 0.1887
C9A C -0.7321(4) 1.7953(4) 0.1420(4)
H8A H -0.7959 1.7849 0.2148
C10A C -0.7034(4) 1.9208(3) 0.0484(3)
C11A C -0.1187(3) 1.2620(3) 0.4763(3)
C12A C -0.0565(3) 1.1276(3) 0.4844(3)
C13A C -0.1283(3) 1.0158(3) 0.5647(3)
H9A H -0.2145 1.0270 0.6077
C14A C 0.0731(3) 1.1120(3) 0.4186(3)
C15A C 0.1551(3) 1.2284(3) 0.3250(3)
N1A N -0.9416(3) 2.3466(2) -0.3058(3)
N1A_2 N 0.0584(3) 0.3466(2) 0.6942(3)
N2A N -0.5714(3) 1.6925(3) 0.0251(3)
O1A O -0.0386(2) 1.3413(2) 0.4641(2)
O1A_2 O -0.0386(2) 0.3413(2) 0.4641(2)
O2A O -0.2450(2) 1.2862(2) 0.4813(3)
O3A O 0.2620(2) 1.2377(2) 0.3582(2)
O4A O 0.1153(2) 1.3039(2) 0.2207(2)
O5A O -0.2104(2) 0.5330(2) 0.5864(3)
H10A H -0.2308 0.6068 0.5845
H11A H -0.2694 0.5315 0.5312
O6A O -0.4771(2) 1.6175(2) -0.2079(2)
H12A H -0.4011 1.6442 -0.2345
H13A H -0.5456 1.6663 -0.2345
O7A O -0.2849(2) 1.5258(2) -0.0185(2)
H14A H -0.2388 1.5813 -0.0840
H15A H -0.2480 1.4575 0.0318
S1A S -0.78905(13) 2.06037(10) 0.07161(10)
O8 O -0.3260(3) 0.1999(3) 0.3208(3)
H16 H -0.3455 0.1185 0.3536
H17 H -0.3093 0.2210 0.3780
O9 O -0.8778(3) 0.6780(4) -0.1264(4)
H18 H -0.9445 0.6761 -0.1586
H19 H -0.8404 0.7480 -0.1752
O10 O 0.3797(4) 0.4605(4) 0.5671(5)
H20 H 0.4196 0.4515 0.6356
H21 H 0.3294 0.5414 0.5560
O11 O 0.4956(4) 0.8052(4) 0.3378(4)
H22 H 0.5482 0.7336 0.3529
H23 H 0.4239 0.8024 0.3805
O12 O -0.3892(3) 0.9422(3) 0.4382(3)
H24 H -0.4261 0.8962 0.4197
H25 H -0.3289 0.8909 0.4836
loop_
_geom_bond_atom_site_label_1
_geom_bond_atom_site_label_2
_geom_bond_site_symmetry_1
_geom_bond_site_symmetry_2
Mn1 N1 1_555 1_555
Mn2 N2 1_555 1_555
C1 H1 1_555 1_555
C2 C1 1_555 1_555
H2 C2 1_555 1_555
C3 C2 1_555 1_555
C4 C3 1_555 1_555
H3 C4 1_555 1_555
C5 C4 1_555 1_555
H4 C5 1_555 1_555
C6 H5 1_555 1_555
C7 C6 1_555 1_555
H6 C7 1_555 1_555
C8 H7 1_555 1_555
C9 C8 1_555 1_555
H8 C9 1_555 1_555
C10 C7 1_555 1_555
C11 C12 1_555 1_555
C12 C13 1_555 1_555
C13 H9 1_555 1_555
C14 C12 1_555 1_555
C15 C14 1_555 1_555
N1 C1 1_555 1_555
N2 C6 1_555 1_555
O1 Mn1 1_555 1_555
O2 C11 1_555 1_555
O3 C15 1_555 1_555
O4 C15 1_555 1_555
O5 Mn1 1_555 1_555
H10 O5 1_555 1_555
H11 O5 1_555 1_555
O6 Mn2 1_555 1_555
H12 O6 1_555 1_555
H13 O6 1_555 1_555
O7 Mn2 1_555 1_555
H14 O7 1_555 1_555
H15 O7 1_555 1_555
O8 H16 1_555 1_555
H17 O8 1_555 1_555
O9 H18 1_555 1_555
H19 O9 1_555 1_555
O10 H20 1_555 1_555
H21 O10 1_555 1_555
O11 H22 1_555 1_555
H23 O11 1_555 1_555
O12 H24 1_555 1_555
H25 O12 1_555 1_555
S1 C3 1_555 1_555
Mn1_2 N1A 1_555 1_555
Mn1_3 O1A 1_555 1_555
C1A H1A 1_555 1_555
C2A C1A 1_555 1_555
H2A C2A 1_555 1_555
C3A C2A 1_555 1_555
C4A C3A 1_555 1_555
H3A C4A 1_555 1_555
C5A C4A 1_555 1_555
H4A C5A 1_555 1_555
C6A H5A 1_555 1_555
C7A C6A 1_555 1_555
H6A C7A 1_555 1_555
C8A H7A 1_555 1_555
C9A C8A 1_555 1_555
H8A C9A 1_555 1_555
C10A C7A 1_555 1_555
C11A C12A 1_555 1_555
C12A C13A 1_555 1_555
C13A C14 1_555 1_555
H9A C13A 1_555 1_555
C14A C13 1_555 1_555
C15A C14A 1_555 1_555
N1A C1A 1_555 1_555
N1A_2 Mn1 1_555 1_555
N2A Mn2 1_555 1_555
O1A C11A 1_555 1_555
O1A_2 Mn1 1_555 1_555
O2A C11A 1_555 1_555
O3A C15A 1_555 1_555
O4A C15A 1_555 1_555
O5A Mn1 1_555 1_555
H10A O5A 1_555 1_555
H11A O5A 1_555 1_555
O6A Mn2 1_555 1_555
H12A O6A 1_555 1_555
H13A O6A 1_555 1_555
O7A Mn2 1_555 1_555
H14A O7A 1_555 1_555
H15A O7A 1_555 1_555
S1A C3A 1_555 1_555
C5 N1 1_555 1_555
C8 N2 1_555 1_555
C9 C10 1_555 1_555
C10 S1 1_555 1_555
C11 O1 1_555 1_555
C5A N1A 1_555 1_555
C6A N2A 1_555 1_555
C8A N2A 1_555 1_555
C9A C10A 1_555 1_555
C10A S1A 1_555 1_555
C12A C14A 1_555 1_555

#END
