
#######################################################################
#
#                 Cambridge Crystallographic Data Centre
#                                CCDC 
#
#######################################################################
#
# If this CIF has been generated from an entry in the Cambridge 
# Structural Database, then it will include bibliographic, chemical, 
# crystal, experimental, refinement or atomic coordinate data resulting 
# from the CCDC's data processing and validation procedures.
#
#######################################################################

data_UMETUC
_symmetry_cell_setting           triclinic
_symmetry_space_group_name_H-M   'P -1'
_symmetry_Int_Tables_number      2
_space_group_name_Hall           '-P 1'
loop_
_symmetry_equiv_pos_site_id
_symmetry_equiv_pos_as_xyz
1 x,y,z
2 -x,-y,-z
_cell_length_a                   12.0261(2)
_cell_length_b                   12.4997(2)
_cell_length_c                   16.3737(3)
_cell_angle_alpha                89.571(1)
_cell_angle_beta                 88.673(1)
_cell_angle_gamma                88.576(1)
_cell_volume                     2459.86
loop_
_atom_site_label
_atom_site_type_symbol
_atom_site_fract_x
_atom_site_fract_y
_atom_site_fract_z
Hg1 Hg 0.848848(12) 0.193837(11) 0.468513(9)
Hg2 Hg 0.789533(13) 0.390851(11) 0.274194(9)
Hg3 Hg 0.646950(12) 0.896561(10) -0.022291(9)
Hg4 Hg 1.334220(13) 0.304800(11) 0.215960(9)
N1 N 0.6991(3) 0.4992(3) 0.3461(2)
N2 N 0.7918(3) 0.4155(3) 0.4490(2)
N3 N 0.9074(3) 0.3232(3) 0.5333(2)
N4 N 0.7923(3) 0.0634(3) 0.4044(2)
N5 N 0.8289(4) 0.1723(3) 0.2955(2)
N6 N 0.8932(3) 0.2928(3) 0.2030(2)
N7 N 0.8354(4) 0.5561(3) 0.1780(3)
N8 N 0.8992(5) 0.7379(5) 0.1578(6)
N9 N 0.8222(4) 0.8853(3) 0.0751(3)
N10 N 1.2632(3) -0.0055(3) 0.0931(2)
N11 N 1.3390(3) 0.0863(3) 0.1959(2)
N12 N 1.4188(3) 0.1937(3) 0.2880(2)
N13 N 1.2558(3) 0.4181(3) 0.1425(2)
N14 N 1.3487(3) 0.3268(3) 0.0409(2)
N15 N 1.4373(3) 0.2157(3) -0.0497(2)
N16 N 0.6110(4) 0.3688(3) 0.1877(3)
N17 N 0.6536(4) 0.2310(4) 0.0834(3)
N18 N 0.5779(4) 0.0508(3) 0.0780(3)
N19 N 1.1515(4) 0.2580(3) 0.3044(3)
N20 N 1.0604(4) 0.1395(3) 0.4053(3)
N21 N 1.0715(4) -0.0580(3) 0.4142(3)
N22 N 0.6327(4) 0.5334(3) 0.6821(3)
N23 N 0.7058(3) 0.3474(3) 0.6747(2)
N24 N 0.6674(3) 0.2077(3) 0.5739(3)
C1 C 0.6300(4) 0.5739(3) 0.3124(3)
H1 H 0.6188 0.5736 0.2552
C2 C 0.5760(4) 0.6500(3) 0.3602(3)
H2 H 0.5309 0.7048 0.3364
C3 C 0.5895(4) 0.6442(3) 0.4441(3)
H3 H 0.5491 0.6931 0.4785
C4 C 0.6605(4) 0.5690(3) 0.4789(3)
H4 H 0.6693 0.5665 0.5364
C5 C 0.7199(3) 0.4956(3) 0.4275(3)
C6 C 0.8571(3) 0.4194(3) 0.5145(3)
C7 C 0.8855(4) 0.5091(3) 0.5606(3)
H5 H 0.8523 0.5772 0.5491
C8 C 0.9610(4) 0.4986(3) 0.6222(3)
H6 H 0.9792 0.5594 0.6532
C9 C 1.0115(4) 0.3987(4) 0.6395(3)
H7 H 1.0641 0.3906 0.6817
C10 C 0.9817(4) 0.3129(3) 0.5930(3)
H8 H 1.0146 0.2444 0.6036
C11 C 0.7608(4) -0.0293(3) 0.4405(3)
H9 H 0.7562 -0.0339 0.4984
C12 C 0.7351(5) -0.1176(4) 0.3945(4)
H10 H 0.7168 -0.1835 0.4201
C13 C 0.7369(5) -0.1072(4) 0.3098(4)
H11 H 0.7178 -0.1662 0.2771
C14 C 0.7658(4) -0.0128(4) 0.2729(3)
H12 H 0.7646 -0.0059 0.2151
C15 C 0.7975(4) 0.0742(3) 0.3212(3)
C16 C 0.8888(4) 0.1877(3) 0.2259(3)
C17 C 0.9500(4) 0.1111(3) 0.1780(3)
H13 H 0.9471 0.0371 0.1913
C18 C 1.0133(4) 0.1450(4) 0.1124(3)
H14 H 1.0540 0.0939 0.0802
C19 C 1.0189(4) 0.2542(4) 0.0919(3)
H15 H 1.0635 0.2778 0.0470
C20 C 0.9575(4) 0.3255(3) 0.1391(3)
H16 H 0.9602 0.3997 0.1265
C21 C 0.8608(4) 0.6416(4) 0.1644(3)
C22 C 0.8532(4) 0.8110(4) 0.1107(3)
C23 C 1.1952(3) -0.0779(3) 0.0607(3)
H17 H 1.1898 -0.0823 0.0030
C24 C 1.1335(4) -0.1453(3) 0.1101(3)
H18 H 1.0843 -0.1947 0.0874
C25 C 1.1455(4) -0.1386(3) 0.1948(3)
H19 H 1.1048 -0.1850 0.2299
C26 C 1.2153(4) -0.0658(3) 0.2277(3)
H20 H 1.2233 -0.0619 0.2852
C27 C 1.2755(3) 0.0037(3) 0.1746(3)
C28 C 1.3923(4) 0.0918(3) 0.2672(3)
C29 C 1.4278(4) 0.0077(3) 0.3196(3)
H21 H 1.4106 -0.0641 0.3073
C30 C 1.4869(4) 0.0293(4) 0.3877(3)
H22 H 1.5090 -0.0274 0.4233
C31 C 1.5150(4) 0.1348(4) 0.4053(3)
H23 H 1.5573 0.1504 0.4519
C32 C 1.4798(4) 0.2148(4) 0.3535(3)
H24 H 1.4990 0.2866 0.3641
C33 C 1.1863(4) 0.4945(3) 0.1736(3)
H25 H 1.1652 0.4918 0.2298
C34 C 1.1455(4) 0.5760(4) 0.1254(3)
H26 H 1.0967 0.6298 0.1477
C35 C 1.1778(4) 0.5781(4) 0.0420(3)
H27 H 1.1526 0.6350 0.0079
C36 C 1.2460(4) 0.4977(3) 0.0099(3)
H28 H 1.2657 0.4980 -0.0466
C37 C 1.2867(4) 0.4142(3) 0.0620(3)
C38 C 1.4137(4) 0.3191(3) -0.0275(2)
C39 C 1.4637(4) 0.4016(3) -0.0738(3)
H29 H 1.4469 0.4745 -0.0616
C40 C 1.5370(4) 0.3754(4) -0.1368(3)
H30 H 1.5712 0.4308 -0.1677
C41 C 1.5620(4) 0.2685(4) -0.1560(3)
H31 H 1.6139 0.2503 -0.1986
C42 C 1.5086(4) 0.1904(3) -0.1110(3)
H32 H 1.5228 0.1172 -0.1238
C43 C 0.6280(4) 0.3000(3) 0.1405(3)
C44 C 0.6107(4) 0.1362(4) 0.0847(3)
C45 C 1.1120(4) 0.1979(3) 0.3498(3)
C46 C 1.0701(4) 0.0347(3) 0.4062(3)
C47 C 0.6633(4) 0.4455(3) 0.6747(3)
C48 C 0.6824(4) 0.2775(3) 0.6198(3)
Hg1A Hg 1.151152(12) -0.193837(11) 0.531487(9)
Hg3A Hg 1.353050(12) 0.103439(10) 0.022291(9)
Hg3_2 Hg 0.646950(12) -0.103439(10) -0.022291(9)
Hg4A Hg 0.665780(13) 0.695200(11) 0.784040(9)
N10A N 0.7368(3) 1.0055(3) -0.0931(2)
N14A N 0.6513(3) 0.6732(3) -0.0409(2)
N15A N 0.5627(3) 0.7843(3) 0.0497(2)
N18_2 N 0.5779(4) 1.0508(3) 0.0780(3)
N21A N 0.9285(4) 0.0580(3) 0.5858(3)
N22A N 1.3673(4) 0.4666(3) 0.3179(3)
loop_
_geom_bond_atom_site_label_1
_geom_bond_atom_site_label_2
_geom_bond_site_symmetry_1
_geom_bond_site_symmetry_2
Hg1 N3 1_555 1_555
Hg2 N1 1_555 1_555
Hg3 N9 1_555 1_555
Hg4 N11 1_555 1_555
N1 C1 1_555 1_555
N2 C5 1_555 1_555
N3 C6 1_555 1_555
N4 Hg1 1_555 1_555
N5 Hg2 1_555 1_555
N6 Hg2 1_555 1_555
N7 Hg2 1_555 1_555
N8 C21 1_555 1_555
N9 C22 1_555 1_555
N10 C23 1_555 1_555
N11 C27 1_555 1_555
N12 Hg4 1_555 1_555
N13 Hg4 1_555 1_555
N14 C37 1_555 1_555
N15 C38 1_555 1_555
N16 Hg2 1_555 1_555
N17 C43 1_555 1_555
N18 C44 1_555 1_555
N19 Hg4 1_555 1_555
N20 Hg1 1_555 1_555
N21 C46 1_555 1_555
N22 C47 1_555 1_555
N23 C47 1_555 1_555
N24 Hg1 1_555 1_555
C1 H1 1_555 1_555
C2 C1 1_555 1_555
H2 C2 1_555 1_555
C3 C2 1_555 1_555
H3 C3 1_555 1_555
C4 C3 1_555 1_555
H4 C4 1_555 1_555
C5 N1 1_555 1_555
C6 N2 1_555 1_555
C7 C6 1_555 1_555
H5 C7 1_555 1_555
C8 C7 1_555 1_555
H6 C8 1_555 1_555
C9 C8 1_555 1_555
H7 C9 1_555 1_555
C10 N3 1_555 1_555
H8 C10 1_555 1_555
C11 N4 1_555 1_555
H9 C11 1_555 1_555
C12 C11 1_555 1_555
H10 C12 1_555 1_555
C13 C12 1_555 1_555
H11 C13 1_555 1_555
C14 C13 1_555 1_555
H12 C14 1_555 1_555
C15 N4 1_555 1_555
C16 N5 1_555 1_555
C17 C16 1_555 1_555
H13 C17 1_555 1_555
C18 C17 1_555 1_555
H14 C18 1_555 1_555
C19 C18 1_555 1_555
H15 C19 1_555 1_555
C20 N6 1_555 1_555
H16 C20 1_555 1_555
C21 N7 1_555 1_555
C22 N8 1_555 1_555
C23 H17 1_555 1_555
C24 C23 1_555 1_555
H18 C24 1_555 1_555
C25 C24 1_555 1_555
H19 C25 1_555 1_555
C26 C25 1_555 1_555
H20 C26 1_555 1_555
C27 N10 1_555 1_555
C28 N11 1_555 1_555
C29 C28 1_555 1_555
H21 C29 1_555 1_555
C30 C29 1_555 1_555
H22 C30 1_555 1_555
C31 C30 1_555 1_555
H23 C31 1_555 1_555
C32 N12 1_555 1_555
H24 C32 1_555 1_555
C33 N13 1_555 1_555
H25 C33 1_555 1_555
C34 C33 1_555 1_555
H26 C34 1_555 1_555
C35 C34 1_555 1_555
H27 C35 1_555 1_555
C36 C35 1_555 1_555
H28 C36 1_555 1_555
C37 N13 1_555 1_555
C38 N14 1_555 1_555
C39 C38 1_555 1_555
H29 C39 1_555 1_555
C40 C39 1_555 1_555
H30 C40 1_555 1_555
C41 C40 1_555 1_555
H31 C41 1_555 1_555
C42 N15 1_555 1_555
H32 C42 1_555 1_555
C43 N16 1_555 1_555
C44 N17 1_555 1_555
C45 N19 1_555 1_555
C46 N20 1_555 1_555
C48 N23 1_555 1_555
Hg1A N21 1_555 1_555
Hg3A N10 1_555 1_555
Hg3_2 N18 1_555 1_555
Hg4A N22 1_555 1_555
N10A Hg3 1_555 1_555
N14A Hg3 1_555 1_555
N15A Hg3 1_555 1_555
N18_2 Hg3 1_555 1_555
N21A Hg1 1_555 1_555
N22A Hg4 1_555 1_555
N5 C15 1_555 1_555
N6 C16 1_555 1_555
N12 C28 1_555 1_555
N14 Hg3A 1_555 1_555
N15 Hg3A 1_555 1_555
N20 C45 1_555 1_555
N24 C48 1_555 1_555
C4 C5 1_555 1_555
C9 C10 1_555 1_555
C14 C15 1_555 1_555
C19 C20 1_555 1_555
C26 C27 1_555 1_555
C31 C32 1_555 1_555
C36 C37 1_555 1_555
C41 C42 1_555 1_555

#END
