
#######################################################################
#
#                 Cambridge Crystallographic Data Centre
#                                CCDC 
#
#######################################################################
#
# If this CIF has been generated from an entry in the Cambridge 
# Structural Database, then it will include bibliographic, chemical, 
# crystal, experimental, refinement or atomic coordinate data resulting 
# from the CCDC's data processing and validation procedures.
#
#######################################################################

data_UMEVEO
_symmetry_cell_setting           orthorhombic
_symmetry_space_group_name_H-M   'P b c a'
_symmetry_Int_Tables_number      61
_space_group_name_Hall           '-P 2ac 2ab'
loop_
_symmetry_equiv_pos_site_id
_symmetry_equiv_pos_as_xyz
1 x,y,z
2 1/2-x,-y,1/2+z
3 1/2+x,1/2-y,-z
4 -x,1/2+y,1/2-z
5 -x,-y,-z
6 1/2+x,y,1/2-z
7 1/2-x,1/2+y,z
8 x,1/2-y,1/2+z
_cell_length_a                   19.492(6)
_cell_length_b                   13.990(5)
_cell_length_c                   28.8360(14)
_cell_angle_alpha                90
_cell_angle_beta                 90
_cell_angle_gamma                90
_cell_volume                     7863.38
loop_
_atom_site_label
_atom_site_type_symbol
_atom_site_fract_x
_atom_site_fract_y
_atom_site_fract_z
Pb1 Pb 0.251909(12) 0.033033(14) 0.108462(6)
Pb2 Pb 0.474851(11) -0.229820(14) 0.143328(6)
O1 O 0.2797(2) 0.2066(3) 0.07554(13)
O2 O 0.2734(2) 0.2080(3) 0.14939(13)
O3 O 0.2879(3) 0.3394(3) 0.11145(16)
O4 O 0.3865(2) 0.0609(3) 0.12200(14)
O5 O 0.4717(3) -0.0365(3) 0.12652(19)
O6 O 0.3700(2) -0.0856(3) 0.14137(16)
O7 O 0.1187(2) -0.0079(3) 0.12570(16)
O8 O 0.1320(2) 0.1437(3) 0.11673(12)
O9 O 0.0304(2) 0.0852(3) 0.12623(15)
O10 O 0.5896(2) -0.3090(3) 0.15397(14)
O11 O 0.6924(3) -0.2568(4) 0.1443(2)
O12 O 0.6080(2) -0.1626(3) 0.13267(14)
N1 N 0.2796(2) 0.2536(3) 0.11197(16)
N2 N 0.4093(3) -0.0206(4) 0.12994(16)
N3 N 0.0935(3) 0.0730(4) 0.12295(15)
N4 N 0.6314(3) -0.2419(4) 0.14338(16)
N5 N 0.2557(3) 0.0174(3) 0.19824(15)
N6 N 0.3162(3) -0.0521(4) 0.51912(16)
N7 N 0.4984(3) -0.2434(4) 0.05203(16)
N8 N 0.5206(3) -0.3393(4) -0.26954(15)
N9 N 0.4111(3) -0.3214(4) 0.21624(16)
N10 N 0.3320(3) -0.4427(4) 0.53230(16)
C1 C 0.2134(3) -0.0418(4) 0.22023(19)
H1 H 0.1788 -0.0720 0.2035
C2 C 0.2193(3) -0.0598(4) 0.26689(19)
H2 H 0.1882 -0.1011 0.2808
C3 C 0.2696(3) -0.0188(4) 0.29364(19)
C4 C 0.3135(3) 0.0422(4) 0.26993(17)
H3 H 0.3490 0.0727 0.2856
C5 C 0.3044(3) 0.0574(4) 0.22339(19)
H4 H 0.3346 0.0987 0.2085
C6 C 0.2753(3) -0.0396(4) 0.34308(18)
H5 H 0.2438 -0.0827 0.3552
C7 C 0.3204(3) -0.0038(4) 0.37232(18)
H6 H 0.3539 0.0370 0.3607
C8 C 0.3210(3) -0.0247(4) 0.42263(18)
C9 C 0.2778(3) -0.0913(4) 0.44248(17)
H7 H 0.2492 -0.1284 0.4240
C10 C 0.2774(3) -0.1024(5) 0.48981(18)
H8 H 0.2481 -0.1481 0.5023
C11 C 0.3593(4) 0.0087(5) 0.4995(2)
H9 H 0.3886 0.0430 0.5188
C12 C 0.3639(3) 0.0248(4) 0.45224(19)
H10 H 0.3955 0.0684 0.4406
C13 C 0.4495(4) -0.2778(5) 0.02488(19)
H11 H 0.4075 -0.2930 0.0382
C14 C 0.4576(4) -0.2925(5) -0.02204(19)
H12 H 0.4217 -0.3175 -0.0395
C15 C 0.5190(3) -0.2699(4) -0.04298(18)
C16 C 0.5687(4) -0.2343(5) -0.0151(2)
H13 H 0.6111 -0.2176 -0.0275
C17 C 0.5568(4) -0.2227(5) 0.0317(2)
H14 H 0.5922 -0.1987 0.0499
C18 C 0.5325(4) -0.2801(5) -0.0932(2)
H15 H 0.5696 -0.2461 -0.1050
C19 C 0.4988(4) -0.3302(5) -0.1218(2)
H16 H 0.4631 -0.3667 -0.1099
C20 C 0.5110(3) -0.3363(4) -0.17286(18)
C21 C 0.4658(4) -0.3859(5) -0.19990(19)
H17 H 0.4303 -0.4201 -0.1862
C22 C 0.4726(4) -0.3854(5) -0.2476(2)
H18 H 0.4411 -0.4201 -0.2650
C23 C 0.5669(3) -0.2946(5) -0.2434(2)
H19 H 0.6033 -0.2642 -0.2582
C24 C 0.5642(3) -0.2908(5) -0.19536(19)
H20 H 0.5976 -0.2582 -0.1786
C25 C 0.3543(4) -0.2853(5) 0.2333(2)
H21 H 0.3271 -0.2493 0.2134
C26 C 0.3311(3) -0.2961(5) 0.2788(2)
H22 H 0.2902 -0.2684 0.2885
C27 C 0.3708(3) -0.3491(5) 0.30867(18)
C28 C 0.4292(4) -0.3915(5) 0.2903(2)
H23 H 0.4566 -0.4304 0.3088
C29 C 0.4463(4) -0.3758(5) 0.2449(2)
H24 H 0.4854 -0.4056 0.2335
C30 C 0.3507(3) -0.3588(4) 0.3580(2)
H25 H 0.3093 -0.3311 0.3668
C31 C 0.3851(3) -0.4020(5) 0.39006(19)
H26 H 0.4264 -0.4296 0.3811
C32 C 0.3662(3) -0.4121(5) 0.43882(19)
C33 C 0.4038(3) -0.4701(5) 0.4668(2)
H27 H 0.4422 -0.5012 0.4550
C34 C 0.3855(4) -0.4836(5) 0.5130(2)
H28 H 0.4125 -0.5237 0.5311
C35 C 0.2962(4) -0.3837(5) 0.5055(2)
H29 H 0.2593 -0.3516 0.5187
C36 C 0.3105(3) -0.3672(4) 0.4592(2)
H30 H 0.2829 -0.3264 0.4419
Pb2F Pb 0.025149(11) 0.270180(14) 0.143328(6)
O9F O 0.4696(2) -0.4148(3) 0.12623(15)
loop_
_geom_bond_atom_site_label_1
_geom_bond_atom_site_label_2
_geom_bond_site_symmetry_1
_geom_bond_site_symmetry_2
Pb1 O1 1_555 1_555
Pb2 O5 1_555 1_555
O1 N1 1_555 1_555
O2 Pb1 1_555 1_555
O3 N1 1_555 1_555
O4 Pb1 1_555 1_555
O5 N2 1_555 1_555
O6 N2 1_555 1_555
O7 Pb1 1_555 1_555
O8 N3 1_555 1_555
O9 N3 1_555 1_555
O10 Pb2 1_555 1_555
O11 N4 1_555 1_555
O12 N4 1_555 1_555
N1 O2 1_555 1_555
N2 O4 1_555 1_555
N3 O7 1_555 1_555
N4 O10 1_555 1_555
N5 Pb1 1_555 1_555
N6 C10 1_555 1_555
N7 Pb2 1_555 1_555
N8 C22 1_555 1_555
N9 Pb2 1_555 1_555
N10 C34 1_555 1_555
C1 N5 1_555 1_555
H1 C1 1_555 1_555
C2 C1 1_555 1_555
H2 C2 1_555 1_555
C3 C2 1_555 1_555
C4 C3 1_555 1_555
H3 C4 1_555 1_555
C5 N5 1_555 1_555
H4 C5 1_555 1_555
C6 C3 1_555 1_555
H5 C6 1_555 1_555
C7 C6 1_555 1_555
H6 C7 1_555 1_555
C8 C7 1_555 1_555
C9 C8 1_555 1_555
H7 C9 1_555 1_555
C10 C9 1_555 1_555
H8 C10 1_555 1_555
C11 N6 1_555 1_555
H9 C11 1_555 1_555
C12 C8 1_555 1_555
H10 C12 1_555 1_555
C13 N7 1_555 1_555
H11 C13 1_555 1_555
C14 C13 1_555 1_555
H12 C14 1_555 1_555
C15 C14 1_555 1_555
C16 C15 1_555 1_555
H13 C16 1_555 1_555
C17 N7 1_555 1_555
H14 C17 1_555 1_555
C18 C15 1_555 1_555
H15 C18 1_555 1_555
C19 C18 1_555 1_555
H16 C19 1_555 1_555
C20 C19 1_555 1_555
C21 C20 1_555 1_555
H17 C21 1_555 1_555
C22 C21 1_555 1_555
H18 C22 1_555 1_555
C23 N8 1_555 1_555
H19 C23 1_555 1_555
C24 C20 1_555 1_555
H20 C24 1_555 1_555
C25 N9 1_555 1_555
H21 C25 1_555 1_555
C26 C25 1_555 1_555
H22 C26 1_555 1_555
C27 C26 1_555 1_555
C28 C27 1_555 1_555
H23 C28 1_555 1_555
C29 N9 1_555 1_555
H24 C29 1_555 1_555
C30 C27 1_555 1_555
H25 C30 1_555 1_555
C31 C30 1_555 1_555
H26 C31 1_555 1_555
C32 C31 1_555 1_555
C33 C32 1_555 1_555
H27 C33 1_555 1_555
C34 C33 1_555 1_555
H28 C34 1_555 1_555
C35 N10 1_555 1_555
H29 C35 1_555 1_555
C36 C32 1_555 1_555
H30 C36 1_555 1_555
Pb2F O9 1_555 1_555
O9F Pb2 1_555 1_555
C4 C5 1_555 1_555
C11 C12 1_555 1_555
C16 C17 1_555 1_555
C23 C24 1_555 1_555
C28 C29 1_555 1_555
C35 C36 1_555 1_555

#END
