
#######################################################################
#
#                 Cambridge Crystallographic Data Centre
#                                CCDC 
#
#######################################################################
#
# If this CIF has been generated from an entry in the Cambridge 
# Structural Database, then it will include bibliographic, chemical, 
# crystal, experimental, refinement or atomic coordinate data resulting 
# from the CCDC's data processing and validation procedures.
#
#######################################################################

data_UMEVAK
_symmetry_cell_setting           triclinic
_symmetry_space_group_name_H-M   'P -1'
_symmetry_Int_Tables_number      2
_space_group_name_Hall           '-P 1'
loop_
_symmetry_equiv_pos_site_id
_symmetry_equiv_pos_as_xyz
1 x,y,z
2 -x,-y,-z
_cell_length_a                   9.466(2)
_cell_length_b                   16.736(4)
_cell_length_c                   16.864(4)
_cell_angle_alpha                112.54(4)
_cell_angle_beta                 100.82(3)
_cell_angle_gamma                92.10(3)
_cell_volume                     2406.26
loop_
_atom_site_label
_atom_site_type_symbol
_atom_site_fract_x
_atom_site_fract_y
_atom_site_fract_z
Pb1 Pb 0.49077(4) 0.37735(3) 0.15125(3)
Pb2 Pb 0.55134(5) 0.18915(3) 0.33328(3)
O1 O 0.4524(10) 0.2550(8) 0.2102(6)
O2 O 0.2962(10) 0.2357(6) 0.0919(6)
O3 O 0.2840(15) 0.1477(8) 0.1594(7)
O4 O 0.668(2) 0.4812(10) 0.1184(9)
O5 O 0.6096(13) 0.5524(7) 0.2316(7)
O6 O 0.7636(16) 0.6088(9) 0.1873(10)
O7 O 0.6769(11) 0.4145(7) 0.2936(7)
O8 O 0.7559(12) 0.3066(8) 0.3128(9)
O9 O 0.6272(13) 0.3791(8) 0.3957(7)
O10 O 0.3553(12) 0.3610(7) -0.0046(6)
H1 H 0.2962 0.3038 -0.0214
H2 H 0.3391 0.3742 -0.0617
O11 O 0.7949(11) 0.1768(8) 0.4350(6)
O12 O 0.6303(11) 0.2271(8) 0.5033(6)
O13 O 0.8034(14) 0.1778(10) 0.5642(7)
O14 O 0.5403(14) 0.0401(9) 0.3539(10)
O15 O 0.3582(15) 0.0549(9) 0.2766(11)
O16 O 0.3749(13) -0.0684(7) 0.2837(7)
N1 N 0.3388(12) 0.2098(9) 0.1500(7)
N2 N 0.6786(16) 0.5485(9) 0.1782(9)
N3 N 0.6851(11) 0.3646(8) 0.3344(7)
N4 N 0.6463(11) 0.2585(7) 0.0710(7)
N5 N 0.7434(13) 0.1919(9) 0.5015(8)
N6 N 0.4206(15) 0.0038(8) 0.2993(8)
N7 N 1.2909(11) -0.0993(7) -0.2135(7)
C1 C 0.7829(14) 0.2554(9) 0.1058(9)
H4 H 0.8228 0.2949 0.1629
C2 C 0.8685(13) 0.1969(9) 0.0621(8)
H5 H 0.9630 0.1968 0.0901
C3 C 0.8147(13) 0.1386(8) -0.0231(8)
C4 C 0.6731(15) 0.1394(10) -0.0575(8)
H6 H 0.6303 0.0996 -0.1140
C5 C 0.5924(15) 0.1992(10) -0.0089(8)
H7 H 0.4953 0.1974 -0.0338
C6 C 0.8977(13) 0.0745(9) -0.0763(8)
H8 H 0.8489 0.0364 -0.1323
C7 C 1.0331(13) 0.0661(8) -0.0521(8)
H9 H 1.0798 0.1015 0.0054
C8 C 1.1194(12) 0.0063(7) -0.1067(7)
C9 C 1.2660(15) 0.0099(9) -0.0784(8)
H10 H 1.3112 0.0484 -0.0217
C10 C 1.3464(14) -0.0423(10) -0.1323(8)
H11 H 1.4457 -0.0374 -0.1108
C11 C 1.1497(14) -0.1053(8) -0.2413(8)
H12 H 1.1082 -0.1464 -0.2975
C12 C 1.0584(13) -0.0545(8) -0.1924(8)
H13 H 0.9596 -0.0606 -0.2158
N11 N -0.3435(10) 0.7246(7) 0.5943(7)
C31 C -0.3760(13) 0.6670(8) 0.5121(8)
H29 H -0.4724 0.6553 0.4821
C32 C -0.2756(13) 0.6233(8) 0.4682(8)
H30 H -0.3046 0.5841 0.4099
C33 C -0.1317(12) 0.6376(8) 0.5106(8)
C34 C -0.0992(13) 0.6943(10) 0.5977(9)
H31 H -0.0056 0.7027 0.6311
C35 C -0.2059(14) 0.7387(9) 0.6355(9)
H32 H -0.1795 0.7805 0.6928
C36 C -0.0146(12) 0.5967(8) 0.4689(8)
H33 H 0.0771 0.6061 0.5048
C37 C -0.0297(13) 0.5487(8) 0.3863(8)
H34 H -0.1229 0.5382 0.3518
C38 C 0.0838(11) 0.5087(8) 0.3401(8)
C39 C 0.0462(13) 0.4555(10) 0.2526(9)
H35 H -0.0506 0.4439 0.2234
C40 C 0.1502(14) 0.4190(9) 0.2073(9)
H36 H 0.1216 0.3841 0.1475
C41 C 0.3256(13) 0.4804(10) 0.3310(9)
H37 H 0.4229 0.4894 0.3588
C42 C 0.2283(13) 0.5183(9) 0.3805(9)
H38 H 0.2591 0.5502 0.4408
N12 N 0.2882(11) 0.4315(8) 0.2453(7)
Pb1A Pb 1.50923(4) -0.37735(3) -0.15125(3)
Pb1A_2 Pb -0.49077(4) 0.62265(3) 0.84875(3)
Pb2A Pb 1.44866(5) -0.18915(3) -0.33328(3)
Pb2A_2 Pb -0.55134(5) 0.81085(3) 0.66672(3)
O1A O 1.5476(10) -0.2550(8) -0.2102(6)
O2A O 1.7038(10) -0.2357(6) -0.0919(6)
O3A O 1.7160(15) -0.1477(8) -0.1594(7)
O4A O 1.332(2) -0.4812(10) -0.1184(9)
O5A O 1.3904(13) -0.5524(7) -0.2316(7)
O6A O 1.2364(16) -0.6088(9) -0.1873(10)
O7A O 1.3231(11) -0.4145(7) -0.2936(7)
O8A O 1.2441(12) -0.3066(8) -0.3128(9)
O9A O 1.3728(13) -0.3791(8) -0.3957(7)
O10A O 1.6447(12) -0.3610(7) 0.0046(6)
H1A H 1.7038 -0.3038 0.0214
H2A H 1.6609 -0.3742 0.0617
O11A O 1.2051(11) -0.1768(8) -0.4350(6)
O12A O 1.3697(11) -0.2271(8) -0.5033(6)
O13A O 1.1966(14) -0.1778(10) -0.5642(7)
O14A O 1.4597(14) -0.0401(9) -0.3539(10)
O15A O 1.6418(15) -0.0549(9) -0.2766(11)
O16A O 1.6251(13) 0.0684(7) -0.2837(7)
N1A N 1.6612(12) -0.2098(9) -0.1500(7)
N2A N 1.3214(16) -0.5485(9) -0.1782(9)
N3A N 1.3149(11) -0.3646(8) -0.3344(7)
N4A N 1.3537(11) -0.2585(7) -0.0710(7)
N5A N 1.2566(13) -0.1919(9) -0.5015(8)
N6A N 1.5794(15) -0.0038(8) -0.2993(8)
N7A N 0.7091(11) 0.0993(7) 0.2135(7)
C1A C 1.2171(14) -0.2554(9) -0.1058(9)
H4A H 1.1772 -0.2949 -0.1629
C2A C 1.1315(13) -0.1969(9) -0.0621(8)
H5A H 1.0370 -0.1968 -0.0901
C3A C 1.1853(13) -0.1386(8) 0.0231(8)
C4A C 1.3269(15) -0.1394(10) 0.0575(8)
H6A H 1.3697 -0.0996 0.1140
C5A C 1.4076(15) -0.1992(10) 0.0089(8)
H7A H 1.5047 -0.1974 0.0338
C6A C 1.1023(13) -0.0745(9) 0.0763(8)
H8A H 1.1511 -0.0364 0.1323
C7A C 0.9669(13) -0.0661(8) 0.0521(8)
H9A H 0.9202 -0.1015 -0.0054
C8A C 0.8806(12) -0.0063(7) 0.1067(7)
C9A C 0.7340(15) -0.0099(9) 0.0784(8)
H10A H 0.6888 -0.0484 0.0217
C10A C 0.6536(14) 0.0423(10) 0.1323(8)
H11A H 0.5543 0.0374 0.1108
C11A C 0.8503(14) 0.1053(8) 0.2413(8)
H12A H 0.8918 0.1464 0.2975
C12A C 0.9416(13) 0.0545(8) 0.1924(8)
H13A H 1.0404 0.0606 0.2158
N11A N 0.3435(10) 0.2754(7) 0.4057(7)
N11_2 N 1.6565(10) -0.2754(7) -0.4057(7)
C31A C 0.3760(13) 0.3330(8) 0.4879(8)
H29A H 0.4724 0.3447 0.5179
C32A C 0.2756(13) 0.3767(8) 0.5318(8)
H30A H 0.3046 0.4159 0.5901
C33A C 0.1317(12) 0.3624(8) 0.4894(8)
C34A C 0.0992(13) 0.3057(10) 0.4023(9)
H31A H 0.0056 0.2973 0.3689
C35A C 0.2059(14) 0.2613(9) 0.3645(9)
H32A H 0.1795 0.2195 0.3072
C36A C 0.0146(12) 0.4033(8) 0.5311(8)
H33A H -0.0771 0.3939 0.4952
C37A C 0.0297(13) 0.4513(8) 0.6137(8)
H34A H 0.1229 0.4618 0.6482
C38A C -0.0838(11) 0.4913(8) 0.6599(8)
C39A C -0.0462(13) 0.5445(10) 0.7474(9)
H35A H 0.0506 0.5561 0.7766
C40A C -0.1502(14) 0.5810(9) 0.7927(9)
H36A H -0.1216 0.6159 0.8525
C41A C -0.3256(13) 0.5196(10) 0.6690(9)
H37A H -0.4229 0.5106 0.6412
C42A C -0.2283(13) 0.4817(9) 0.6195(9)
H38A H -0.2591 0.4498 0.5592
N12A N -0.2882(11) 0.5685(8) 0.7547(7)
N12A_2 N 1.7118(11) -0.4315(8) -0.2453(7)
N8 N 0.6025(12) 0.7899(8) 0.3623(7)
H3 H 0.5365 0.7548 0.3191
N9 N 1.2347(12) 1.2061(7) 0.8513(7)
C19 C 1.2756(15) 1.1411(9) 0.7904(9)
H19 H 1.3739 1.1350 0.7972
C20 C 1.1820(15) 1.0812(9) 0.7169(8)
H20 H 1.2175 1.0364 0.6758
C21 C 1.0353(14) 1.0880(9) 0.7046(9)
C22 C 0.9940(16) 1.1580(10) 0.7689(10)
H21 H 0.8972 1.1675 0.7638
C23 C 1.0939(16) 1.2119(9) 0.8382(9)
H22 H 1.0617 1.2573 0.8807
C24 C 0.9204(16) 1.0279(9) 0.6308(9)
H23 H 0.8270 1.0436 0.6286
C25 C 0.9363(16) 0.9579(10) 0.5708(9)
H24 H 1.0287 0.9407 0.5714
C26 C 0.8140(13) 0.9008(8) 0.4987(8)
C27 C 0.8428(14) 0.8223(9) 0.4411(9)
H25 H 0.9354 0.8058 0.4487
C28 C 0.7362(17) 0.7687(10) 0.3732(9)
H26 H 0.7573 0.7164 0.3338
C29 C 0.5683(16) 0.8647(12) 0.4172(10)
H27 H 0.4734 0.8780 0.4098
C30 C 0.6736(15) 0.9214(10) 0.4841(9)
H28 H 0.6510 0.9748 0.5206
N10 N 0.3698(12) 0.6926(7) 0.2288(7)
C13 C 0.3766(17) 0.6634(12) 0.1449(10)
H14 H 0.4590 0.6809 0.1303
C14 C 0.2670(18) 0.6084(13) 0.0787(9)
H15 H 0.2784 0.5869 0.0209
C15 C 0.1408(15) 0.5846(9) 0.0971(10)
C16 C 0.1342(15) 0.6180(11) 0.1823(11)
H16 H 0.0498 0.6057 0.1983
C17 C 0.2487(15) 0.6696(9) 0.2458(9)
H17 H 0.2406 0.6896 0.3042
C18 C 0.016(3) 0.5252(11) 0.0361(8)
H18 H -0.0616 0.5289 0.0634
N10A N -0.3698(12) 0.3074(7) -0.2288(7)
C13A C -0.3766(17) 0.3366(12) -0.1449(10)
H14A H -0.4590 0.3191 -0.1303
C14A C -0.2670(18) 0.3916(13) -0.0787(9)
H15A H -0.2784 0.4131 -0.0209
C15A C -0.1408(15) 0.4154(9) -0.0971(10)
C16A C -0.1342(15) 0.3820(11) -0.1823(11)
H16A H -0.0498 0.3943 -0.1983
C17A C -0.2487(15) 0.3304(9) -0.2458(9)
H17A H -0.2406 0.3104 -0.3042
C18A C -0.016(3) 0.4748(11) -0.0361(8)
H18A H 0.0616 0.4711 -0.0634
loop_
_geom_bond_atom_site_label_1
_geom_bond_atom_site_label_2
_geom_bond_site_symmetry_1
_geom_bond_site_symmetry_2
Pb1 O1 1_555 1_555
Pb2 O1 1_555 1_555
O1 N1 1_555 1_555
O2 Pb1 1_555 1_555
O3 N1 1_555 1_555
O4 Pb1 1_555 1_555
O5 N2 1_555 1_555
O6 N2 1_555 1_555
O7 Pb1 1_555 1_555
O8 N3 1_555 1_555
O9 N3 1_555 1_555
O10 Pb1 1_555 1_555
H1 O10 1_555 1_555
H2 O10 1_555 1_555
O11 Pb2 1_555 1_555
O12 Pb2 1_555 1_555
O13 N5 1_555 1_555
O14 Pb2 1_555 1_555
O15 Pb2 1_555 1_555
O16 N6 1_555 1_555
N1 O2 1_555 1_555
N2 O4 1_555 1_555
N3 O7 1_555 1_555
N4 Pb1 1_555 1_555
N5 O11 1_555 1_555
N6 O14 1_555 1_555
N7 C10 1_555 1_555
N8 H3 1_555 1_555
N9 C19 1_555 1_555
N10 C13 1_555 1_555
C1 N4 1_555 1_555
H4 C1 1_555 1_555
C2 C1 1_555 1_555
H5 C2 1_555 1_555
C3 C2 1_555 1_555
C4 C3 1_555 1_555
H6 C4 1_555 1_555
C5 N4 1_555 1_555
H7 C5 1_555 1_555
C6 C3 1_555 1_555
H8 C6 1_555 1_555
C7 C6 1_555 1_555
H9 C7 1_555 1_555
C8 C7 1_555 1_555
C9 C8 1_555 1_555
H10 C9 1_555 1_555
C10 C9 1_555 1_555
H11 C10 1_555 1_555
C11 N7 1_555 1_555
H12 C11 1_555 1_555
C12 C8 1_555 1_555
H13 C12 1_555 1_555
C13 H14 1_555 1_555
C14 C13 1_555 1_555
H15 C14 1_555 1_555
C15 C14 1_555 1_555
C16 C15 1_555 1_555
H16 C16 1_555 1_555
C17 N10 1_555 1_555
H17 C17 1_555 1_555
C18 C15 1_555 1_555
H18 C18 1_555 1_555
C19 H19 1_555 1_555
C20 C19 1_555 1_555
H20 C20 1_555 1_555
C21 C20 1_555 1_555
C22 C21 1_555 1_555
H21 C22 1_555 1_555
C23 N9 1_555 1_555
H22 C23 1_555 1_555
C24 C21 1_555 1_555
H23 C24 1_555 1_555
C25 C24 1_555 1_555
H24 C25 1_555 1_555
C26 C25 1_555 1_555
C27 C26 1_555 1_555
H25 C27 1_555 1_555
C28 N8 1_555 1_555
H26 C28 1_555 1_555
C29 N8 1_555 1_555
H27 C29 1_555 1_555
C30 C26 1_555 1_555
H28 C30 1_555 1_555
N11 C31 1_555 1_555
C31 H29 1_555 1_555
C32 C31 1_555 1_555
H30 C32 1_555 1_555
C33 C32 1_555 1_555
C34 C33 1_555 1_555
H31 C34 1_555 1_555
C35 N11 1_555 1_555
H32 C35 1_555 1_555
C36 C33 1_555 1_555
H33 C36 1_555 1_555
C37 C36 1_555 1_555
H34 C37 1_555 1_555
C38 C37 1_555 1_555
C39 C38 1_555 1_555
H35 C39 1_555 1_555
C40 C39 1_555 1_555
H36 C40 1_555 1_555
C41 H37 1_555 1_555
C42 C38 1_555 1_555
H38 C42 1_555 1_555
N12 Pb1 1_555 1_555
Pb1A O1A 1_555 1_555
Pb1A_2 N12A 1_555 1_555
Pb2A N7 1_555 1_555
Pb2A_2 N11 1_555 1_555
O1A Pb2A 1_555 1_555
O2A Pb1A 1_555 1_555
O3A N1A 1_555 1_555
O4A Pb1A 1_555 1_555
O5A N2A 1_555 1_555
O6A N2A 1_555 1_555
O7A Pb1A 1_555 1_555
O8A N3A 1_555 1_555
O9A N3A 1_555 1_555
O10A Pb1A 1_555 1_555
H1A O10A 1_555 1_555
H2A O10A 1_555 1_555
O11A Pb2A 1_555 1_555
O12A Pb2A 1_555 1_555
O13A N5A 1_555 1_555
O14A Pb2A 1_555 1_555
O15A Pb2A 1_555 1_555
O16A N6A 1_555 1_555
N1A O1A 1_555 1_555
N2A O4A 1_555 1_555
N3A O7A 1_555 1_555
N4A Pb1A 1_555 1_555
N5A O11A 1_555 1_555
N6A O14A 1_555 1_555
N7A Pb2 1_555 1_555
N10A C13A 1_555 1_555
C1A N4A 1_555 1_555
H4A C1A 1_555 1_555
C2A C1A 1_555 1_555
H5A C2A 1_555 1_555
C3A C2A 1_555 1_555
C4A C3A 1_555 1_555
H6A C4A 1_555 1_555
C5A N4A 1_555 1_555
H7A C5A 1_555 1_555
C6A C3A 1_555 1_555
H8A C6A 1_555 1_555
C7A C6A 1_555 1_555
H9A C7A 1_555 1_555
C8A C7A 1_555 1_555
C9A C8A 1_555 1_555
H10A C9A 1_555 1_555
C10A N7A 1_555 1_555
H11A C10A 1_555 1_555
C11A N7A 1_555 1_555
H12A C11A 1_555 1_555
C12A C8A 1_555 1_555
H13A C12A 1_555 1_555
C13A H14A 1_555 1_555
C14A C13A 1_555 1_555
H15A C14A 1_555 1_555
C15A C14A 1_555 1_555
C16A C15A 1_555 1_555
H16A C16A 1_555 1_555
C17A N10A 1_555 1_555
H17A C17A 1_555 1_555
C18A C18 1_555 1_555
H18A C18A 1_555 1_555
N11A Pb2 1_555 1_555
N11_2 Pb2A 1_555 1_555
C31A N11A 1_555 1_555
H29A C31A 1_555 1_555
C32A C31A 1_555 1_555
H30A C32A 1_555 1_555
C33A C32A 1_555 1_555
C34A C33A 1_555 1_555
H31A C34A 1_555 1_555
C35A N11A 1_555 1_555
H32A C35A 1_555 1_555
C36A C33A 1_555 1_555
H33A C36A 1_555 1_555
C37A C36A 1_555 1_555
H34A C37A 1_555 1_555
C38A C37A 1_555 1_555
C39A C38A 1_555 1_555
H35A C39A 1_555 1_555
C40A C39A 1_555 1_555
H36A C40A 1_555 1_555
C41A H37A 1_555 1_555
C42A C38A 1_555 1_555
H38A C42A 1_555 1_555
N12A C40A 1_555 1_555
N12A_2 Pb1A 1_555 1_555
O12 N5 1_555 1_555
O15 N6 1_555 1_555
C4 C5 1_555 1_555
C11 C12 1_555 1_555
C16 C17 1_555 1_555
C22 C23 1_555 1_555
C27 C28 1_555 1_555
C29 C30 1_555 1_555
C34 C35 1_555 1_555
C40 N12 1_555 1_555
C41 C42 1_555 1_555
C41 N12 1_555 1_555
O2A N1A 1_555 1_555
O12A N5A 1_555 1_555
O15A N6A 1_555 1_555
C4A C5A 1_555 1_555
C9A C10A 1_555 1_555
C11A C12A 1_555 1_555
C15A C18A 1_555 1_555
C16A C17A 1_555 1_555
C34A C35A 1_555 1_555
C41A C42A 1_555 1_555
C41A N12A 1_555 1_555

#END
