
#######################################################################
#
#                 Cambridge Crystallographic Data Centre
#                                CCDC 
#
#######################################################################
#
# If this CIF has been generated from an entry in the Cambridge 
# Structural Database, then it will include bibliographic, chemical, 
# crystal, experimental, refinement or atomic coordinate data resulting 
# from the CCDC's data processing and validation procedures.
#
#######################################################################

data_UMEWOY
_symmetry_cell_setting           orthorhombic
_symmetry_space_group_name_H-M   'P n m a'
_symmetry_Int_Tables_number      62
_space_group_name_Hall           '-P 2ac 2n'
loop_
_symmetry_equiv_pos_site_id
_symmetry_equiv_pos_as_xyz
1 x,y,z
2 1/2+x,y,1/2-z
3 x,1/2-y,z
4 1/2-x,1/2+y,1/2+z
5 -x,-y,-z
6 1/2-x,-y,1/2+z
7 -x,1/2+y,-z
8 1/2+x,1/2-y,1/2-z
_cell_length_a                   10.098(2)
_cell_length_b                   10.477(2)
_cell_length_c                   8.220(2)
_cell_angle_alpha                90
_cell_angle_beta                 90
_cell_angle_gamma                90
_cell_volume                     869.649
loop_
_atom_site_label
_atom_site_type_symbol
_atom_site_fract_x
_atom_site_fract_y
_atom_site_fract_z
Ag1 Ag 0.15803(7) 0.2500 0.09525(9)
N1 N 0.1579(5) 0.4559(6) 0.1025(7)
H1 H 0.2411 0.4823 0.0824
H2 H 0.1380 0.4796 0.2049
C1 C 0.0705(6) 0.5238(6) -0.0074(9)
H3 H 0.1010 0.5140 -0.1173
H4 H 0.0717 0.6131 0.0186
N1B N 0.1579(5) 0.0441(6) 0.1025(7)
C1D C -0.0705(6) 0.4762(6) 0.0074(9)
N1D N -0.1579(5) 0.5441(6) -0.1025(7)
H3D H -0.1010 0.4860 0.1173
H4D H -0.0717 0.3869 -0.0186
Ag1D Ag -0.15803(7) 0.7500 -0.09525(9)
H1D H -0.2411 0.5177 -0.0824
H2D H -0.1380 0.5204 -0.2049
H1B H 0.2411 0.0177 0.0824
H2B H 0.1380 0.0204 0.2049
As1 As 0.02978(9) 0.2500 0.55262(11)
F1 F -0.0808(11) 0.3564(8) 0.6174(11)
F2 F 0.1357(7) 0.3557(9) 0.4783(14)
F3 F -0.0514(7) 0.2500 0.3715(9)
F4 F 0.1069(12) 0.2500 0.7323(13)
F1B F -0.0808(11) 0.1436(8) 0.6174(11)
F2B F 0.1357(7) 0.1443(9) 0.4783(14)
loop_
_geom_bond_atom_site_label_1
_geom_bond_atom_site_label_2
_geom_bond_site_symmetry_1
_geom_bond_site_symmetry_2
Ag1 N1 1_555 1_555
As1 F1 1_555 1_555
F2 As1 1_555 1_555
F3 As1 1_555 1_555
F4 As1 1_555 1_555
N1 H1 1_555 1_555
H2 N1 1_555 1_555
C1 N1 1_555 1_555
H3 C1 1_555 1_555
H4 C1 1_555 1_555
N1B Ag1 1_555 1_555
F1B As1 1_555 1_555
F2B As1 1_555 1_555
C1D C1 1_555 1_555
N1D C1D 1_555 1_555
H3D C1D 1_555 1_555
H4D C1D 1_555 1_555
Ag1D N1D 1_555 1_555
H1D N1D 1_555 1_555
H2D N1D 1_555 1_555
H1B N1B 1_555 1_555
H2B N1B 1_555 1_555

#END
