
#######################################################################
#
#                 Cambridge Crystallographic Data Centre
#                                CCDC 
#
#######################################################################
#
# If this CIF has been generated from an entry in the Cambridge 
# Structural Database, then it will include bibliographic, chemical, 
# crystal, experimental, refinement or atomic coordinate data resulting 
# from the CCDC's data processing and validation procedures.
#
#######################################################################

data_UMEZUH
_symmetry_cell_setting           triclinic
_symmetry_space_group_name_H-M   'P -1'
_symmetry_Int_Tables_number      2
_space_group_name_Hall           '-P 1'
loop_
_symmetry_equiv_pos_site_id
_symmetry_equiv_pos_as_xyz
1 x,y,z
2 -x,-y,-z
_cell_length_a                   5.6038(4)
_cell_length_b                   10.2066(7)
_cell_length_c                   12.2719(8)
_cell_angle_alpha                85.5490(10)
_cell_angle_beta                 88.4040(10)
_cell_angle_gamma                89.0260(10)
_cell_volume                     699.435
loop_
_atom_site_label
_atom_site_type_symbol
_atom_site_fract_x
_atom_site_fract_y
_atom_site_fract_z
Zn1 Zn 0.25154(4) 0.52838(2) 0.72784(2)
O1 O 0.0498(3) 0.38117(13) 0.68876(12)
O2 O 0.3631(3) 0.26901(14) 0.75111(14)
O3 O 0.3557(3) -0.22553(14) 0.74451(14)
O4 O 0.0454(3) -0.31818(13) 0.67852(13)
N1 N 0.5721(3) 0.52978(17) 0.64547(15)
H7 H 0.644(4) 0.4561(11) 0.6614(18)
H8 H 0.657(4) 0.5904(15) 0.668(2)
N2 N 0.2637(3) 0.51169(17) 0.89188(15)
H9 H 0.189(3) 0.4413(11) 0.9140(16)
H10 H 0.188(3) 0.5765(12) 0.9166(16)
C1 C 0.1634(4) 0.27343(19) 0.71032(17)
C2 C 0.0471(4) 0.15051(19) 0.68089(17)
C3 C -0.1633(4) 0.1589(2) 0.62465(19)
H11 H -0.2320 0.2409 0.6059
C4 C -0.2725(4) 0.0472(2) 0.5961(2)
H12 H -0.4155 0.0540 0.5593
C5 C -0.1712(4) -0.0742(2) 0.62178(19)
H13 H -0.2452 -0.1493 0.6018
C6 C 0.0411(4) -0.08531(19) 0.67743(17)
C7 C 0.1486(4) 0.02747(19) 0.70688(17)
H14 H 0.2905 0.0206 0.7446
C8 C 0.1567(4) -0.21669(19) 0.70286(17)
C9 C 0.5758(4) 0.5492(2) 0.52491(17)
H15 H 0.7389 0.5412 0.4974
H16 H 0.5181 0.6372 0.5031
C10 C 0.5030(4) 0.5062(2) 0.93840(17)
H17 H 0.5879 0.5852 0.9128
H18 H 0.5909 0.4317 0.9120
C9A C 0.4242(4) 0.4508(2) 0.47509(17)
N1A N 0.4279(3) 0.47022(17) 0.35453(15)
H7A H 0.356(4) 0.5439(11) 0.3386(18)
H8A H 0.343(4) 0.4096(15) 0.332(2)
H15A H 0.2611 0.4588 0.5026
H16A H 0.4819 0.3628 0.4969
C10A C 0.4970(4) 0.4938(2) 1.06160(17)
N2A N 0.7363(3) 0.48831(17) 1.10812(15)
H9A H 0.811(3) 0.5587(11) 1.0860(16)
H10A H 0.812(3) 0.4235(12) 1.0834(16)
H17A H 0.4121 0.4148 1.0872
H18A H 0.4091 0.5683 1.0880
O1_2 O 0.0498(3) 1.38117(13) 0.68876(12)
O2_2 O 0.3631(3) 1.26901(14) 0.75111(14)
O3_2 O 0.3557(3) 0.77447(14) 0.74451(14)
O4_2 O 0.0454(3) 0.68182(13) 0.67852(13)
C1_2 C 0.1634(4) 1.27343(19) 0.71032(17)
C2_2 C 0.0471(4) 1.15051(19) 0.68089(17)
C3_2 C -0.1633(4) 1.1589(2) 0.62465(19)
H11_2 H -0.2320 1.2409 0.6059
C4_2 C -0.2725(4) 1.0472(2) 0.5961(2)
H12_2 H -0.4155 1.0540 0.5593
C5_2 C -0.1712(4) 0.9258(2) 0.62178(19)
H13_2 H -0.2452 0.8507 0.6018
C6_2 C 0.0411(4) 0.91469(19) 0.67743(17)
C7_2 C 0.1486(4) 1.02747(19) 0.70688(17)
H14_2 H 0.2905 1.0206 0.7446
C8_2 C 0.1567(4) 0.78331(19) 0.70286(17)
Zn1_2 Zn 0.25154(4) 1.52838(2) 0.72784(2)
Zn1_3 Zn 0.25154(4) -0.47162(2) 0.72784(2)
Zn1A Zn 0.74846(4) 0.47162(2) 0.27216(2)
Zn1A_2 Zn 0.74846(4) 0.47162(2) 1.27216(2)
O4_3 O 0.0454(3) 1.68182(13) 0.67852(13)
N1_2 N 0.5721(3) 1.52978(17) 0.64547(15)
N2_2 N 0.2637(3) 1.51169(17) 0.89188(15)
H7_2 H 0.644(4) 1.4561(11) 0.6614(18)
H8_2 H 0.657(4) 1.5904(15) 0.668(2)
H9_2 H 0.189(3) 1.4413(11) 0.9140(16)
H10_2 H 0.188(3) 1.5765(12) 0.9166(16)
O5 O 1.0037(3) 0.27931(16) 0.99905(16)
H1 H 1.103(4) 0.229(2) 1.0322(19)
H2 H 0.913(4) 0.237(2) 0.9624(19)
O6 O 0.6456(4) 0.14200(18) 0.90620(16)
H3 H 0.564(4) 0.177(2) 0.8558(16)
H4 H 0.668(5) 0.0616(11) 0.901(2)
O7 O 0.6308(3) -0.12905(19) 0.90194(16)
H5 H 0.560(4) -0.147(3) 0.8455(12)
H6 H 0.537(4) -0.139(3) 0.9574(12)
loop_
_geom_bond_atom_site_label_1
_geom_bond_atom_site_label_2
_geom_bond_site_symmetry_1
_geom_bond_site_symmetry_2
Zn1 O1 1_555 1_555
O1 C1 1_555 1_555
O2 C1 1_555 1_555
O3 C8 1_555 1_555
O4 C8 1_555 1_555
O5 H1 1_555 1_555
H2 O5 1_555 1_555
O6 H3 1_555 1_555
H4 O6 1_555 1_555
O7 H5 1_555 1_555
H6 O7 1_555 1_555
N1 Zn1 1_555 1_555
H7 N1 1_555 1_555
H8 N1 1_555 1_555
N2 Zn1 1_555 1_555
H9 N2 1_555 1_555
H10 N2 1_555 1_555
C1 C2 1_555 1_555
C2 C3 1_555 1_555
C3 H11 1_555 1_555
C4 C3 1_555 1_555
H12 C4 1_555 1_555
C5 C4 1_555 1_555
H13 C5 1_555 1_555
C6 C5 1_555 1_555
C7 C2 1_555 1_555
H14 C7 1_555 1_555
C8 C6 1_555 1_555
C9 N1 1_555 1_555
H15 C9 1_555 1_555
H16 C9 1_555 1_555
C10 N2 1_555 1_555
H17 C10 1_555 1_555
H18 C10 1_555 1_555
C9A C9 1_555 1_555
N1A C9A 1_555 1_555
H7A N1A 1_555 1_555
H8A N1A 1_555 1_555
H15A C9A 1_555 1_555
H16A C9A 1_555 1_555
C10A C10 1_555 1_555
N2A C10A 1_555 1_555
H9A N2A 1_555 1_555
H10A N2A 1_555 1_555
H17A C10A 1_555 1_555
H18A C10A 1_555 1_555
O1_2 C1_2 1_555 1_555
O2_2 C1_2 1_555 1_555
O3_2 C8_2 1_555 1_555
O4_2 Zn1 1_555 1_555
C1_2 C2_2 1_555 1_555
C2_2 C3_2 1_555 1_555
C3_2 H11_2 1_555 1_555
C4_2 C3_2 1_555 1_555
H12_2 C4_2 1_555 1_555
C5_2 C4_2 1_555 1_555
H13_2 C5_2 1_555 1_555
C6_2 C5_2 1_555 1_555
C7_2 C2_2 1_555 1_555
H14_2 C7_2 1_555 1_555
C8_2 O4_2 1_555 1_555
Zn1_2 O1_2 1_555 1_555
Zn1_3 O4 1_555 1_555
Zn1A N1A 1_555 1_555
Zn1A_2 N2A 1_555 1_555
O4_3 Zn1_2 1_555 1_555
N1_2 Zn1_2 1_555 1_555
N2_2 Zn1_2 1_555 1_555
H7_2 N1_2 1_555 1_555
H8_2 N1_2 1_555 1_555
H9_2 N2_2 1_555 1_555
H10_2 N2_2 1_555 1_555
C6 C7 1_555 1_555
C6_2 C7_2 1_555 1_555
C6_2 C8_2 1_555 1_555

#END
