
#######################################################################
#
#                 Cambridge Crystallographic Data Centre
#                                CCDC 
#
#######################################################################
#
# If this CIF has been generated from an entry in the Cambridge 
# Structural Database, then it will include bibliographic, chemical, 
# crystal, experimental, refinement or atomic coordinate data resulting 
# from the CCDC's data processing and validation procedures.
#
#######################################################################

data_UMEZOB
_symmetry_cell_setting           triclinic
_symmetry_space_group_name_H-M   'P -1'
_symmetry_Int_Tables_number      2
_space_group_name_Hall           '-P 1'
loop_
_symmetry_equiv_pos_site_id
_symmetry_equiv_pos_as_xyz
1 x,y,z
2 -x,-y,-z
_cell_length_a                   7.0717(9)
_cell_length_b                   8.6326(11)
_cell_length_c                   8.8223(12)
_cell_angle_alpha                100.699(7)
_cell_angle_beta                 112.489(9)
_cell_angle_gamma                104.780(6)
_cell_volume                     456.334
loop_
_atom_site_label
_atom_site_type_symbol
_atom_site_fract_x
_atom_site_fract_y
_atom_site_fract_z
Co1 Co 0.5000 0.5000 0.5000
O1 O 0.25441(18) 0.26566(13) 0.42313(14)
O2 O 0.09420(19) 0.32133(14) 0.59118(15)
O3 O 0.69480(19) 0.37887(14) 0.42624(15)
N1 N 0.2331(2) 0.43888(18) -0.04259(18)
H1 H 0.1854 0.3764 -0.1471
N2 N 0.3682(2) 0.51426(16) 0.24386(16)
C1 C 0.3049(3) 0.3929(2) 0.1009(2)
H2 H 0.3093 0.2858 0.0989
C2 C 0.3723(3) 0.8140(2) 0.2843(2)
H3 H 0.4283 0.8466 0.4041
C3 C 0.3224(3) 0.9251(2) 0.1942(2)
H4 H 0.3470 1.0345 0.2546
C4 C 0.2355(4) 0.8755(3) 0.0135(3)
H5 H 0.2027 0.9528 -0.0433
C5 C 0.1973(3) 0.7155(3) -0.0821(2)
H6 H 0.1389 0.6828 -0.2020
C6 C 0.2501(3) 0.6049(2) 0.0093(2)
C7 C 0.3358(2) 0.65176(19) 0.18982(19)
C8 C 0.1238(2) 0.22120(18) 0.48490(19)
C9 C -0.0113(3) 0.0345(2) 0.4250(2)
H7 H 0.0349 -0.0277 0.3512
H8 H -0.1644 0.0169 0.3567
H9 H 0.8067 0.3548 0.4950
H10 H 0.7643 0.4654 0.4072
C9A C 0.0113(3) -0.0345(2) 0.5750(2)
C8A C -0.1238(2) -0.22120(18) 0.51510(19)
O1A O -0.25441(18) -0.26566(13) 0.57687(14)
O2A O -0.09420(19) -0.32133(14) 0.40882(15)
H7A H -0.0349 0.0277 0.6488
H8A H 0.1644 -0.0169 0.6433
O1A_2 O 0.74559(18) 0.73434(13) 0.57687(14)
O3A O 0.30520(19) 0.62113(14) 0.57376(15)
H9A H 0.1933 0.6452 0.5050
H10A H 0.2357 0.5346 0.5928
N1A N 0.7669(2) 0.56112(18) 1.04259(18)
H1A H 0.8146 0.6236 1.1471
N2A N 0.6318(2) 0.48574(16) 0.75614(16)
C1A C 0.6951(3) 0.6071(2) 0.8991(2)
H2A H 0.6907 0.7142 0.9011
C2A C 0.6277(3) 0.1860(2) 0.7157(2)
H3A H 0.5717 0.1534 0.5959
C3A C 0.6776(3) 0.0749(2) 0.8058(2)
H4A H 0.6530 -0.0345 0.7454
C4A C 0.7645(4) 0.1245(3) 0.9865(3)
H5A H 0.7973 0.0472 1.0433
C5A C 0.8027(3) 0.2845(3) 1.0821(2)
H6A H 0.8611 0.3172 1.2020
C6A C 0.7499(3) 0.3951(2) 0.9907(2)
C7A C 0.6642(2) 0.34824(19) 0.81018(19)
Co1_2 Co -0.5000 -0.5000 0.5000
loop_
_geom_bond_atom_site_label_1
_geom_bond_atom_site_label_2
_geom_bond_site_symmetry_1
_geom_bond_site_symmetry_2
Co1 O1 1_555 1_555
O1 C8 1_555 1_555
O2 C8 1_555 1_555
O3 Co1 1_555 1_555
N1 H1 1_555 1_555
N2 Co1 1_555 1_555
C1 N1 1_555 1_555
H2 C1 1_555 1_555
C2 H3 1_555 1_555
C3 C2 1_555 1_555
H4 C3 1_555 1_555
C4 C3 1_555 1_555
H5 C4 1_555 1_555
C5 C4 1_555 1_555
H6 C5 1_555 1_555
C6 N1 1_555 1_555
C7 N2 1_555 1_555
C8 C9 1_555 1_555
C9 H7 1_555 1_555
H8 C9 1_555 1_555
H9 O3 1_555 1_555
H10 O3 1_555 1_555
C9A C9 1_555 1_555
C8A C9A 1_555 1_555
O1A C8A 1_555 1_555
O2A C8A 1_555 1_555
H7A C9A 1_555 1_555
H8A C9A 1_555 1_555
O1A_2 Co1 1_555 1_555
O3A Co1 1_555 1_555
H9A O3A 1_555 1_555
H10A O3A 1_555 1_555
N1A H1A 1_555 1_555
N2A Co1 1_555 1_555
C1A N1A 1_555 1_555
H2A C1A 1_555 1_555
C2A H3A 1_555 1_555
C3A C2A 1_555 1_555
H4A C3A 1_555 1_555
C4A C3A 1_555 1_555
H5A C4A 1_555 1_555
C5A C4A 1_555 1_555
H6A C5A 1_555 1_555
C6A N1A 1_555 1_555
C7A N2A 1_555 1_555
Co1_2 O1A 1_555 1_555
N2 C1 1_555 1_555
C2 C7 1_555 1_555
C5 C6 1_555 1_555
C6 C7 1_555 1_555
N2A C1A 1_555 1_555
C2A C7A 1_555 1_555
C5A C6A 1_555 1_555
C6A C7A 1_555 1_555

#END
