
#######################################################################
#
#                 Cambridge Crystallographic Data Centre
#                                CCDC 
#
#######################################################################
#
# If this CIF has been generated from an entry in the Cambridge 
# Structural Database, then it will include bibliographic, chemical, 
# crystal, experimental, refinement or atomic coordinate data resulting 
# from the CCDC's data processing and validation procedures.
#
#######################################################################

data_UMIHIH
_symmetry_cell_setting           triclinic
_symmetry_space_group_name_H-M   'P -1'
_symmetry_Int_Tables_number      2
_space_group_name_Hall           '-P 1'
loop_
_symmetry_equiv_pos_site_id
_symmetry_equiv_pos_as_xyz
1 x,y,z
2 -x,-y,-z
_cell_length_a                   8.2483(13)
_cell_length_b                   9.7341(16)
_cell_length_c                   20.871(3)
_cell_angle_alpha                77.325(3)
_cell_angle_beta                 81.574(3)
_cell_angle_gamma                81.341(3)
_cell_volume                     1605.03
loop_
_atom_site_label
_atom_site_type_symbol
_atom_site_fract_x
_atom_site_fract_y
_atom_site_fract_z
Ba1 Ba 0.41775(6) 1.13768(5) 0.41205(2)
Cu1 Cu 0.40577(12) 1.76115(9) 0.30851(5)
Cu2 Cu 0.84929(12) 0.73867(10) 0.26547(5)
N1 N 0.3858(7) 1.6215(6) 0.2597(3)
N2 N 0.5405(7) 1.6168(6) 0.3583(3)
N3 N 0.7143(8) 0.8877(7) 0.2120(4)
N4 N 0.8497(8) 0.8732(7) 0.3170(3)
C1 C 0.2102(9) 1.8992(9) 0.2073(4)
C2 C 0.1356(10) 2.0306(9) 0.1716(4)
H1 H 0.1290 2.1125 0.1884
C3 C 0.0753(10) 2.0383(11) 0.1147(4)
H2 H 0.0278 2.1250 0.0924
C4 C 0.0835(12) 1.9182(11) 0.0893(4)
H3 H 0.0414 1.9248 0.0496
C5 C 0.1512(10) 1.7910(10) 0.1207(4)
H4 H 0.1542 1.7115 0.1025
C6 C 0.2189(9) 1.7760(9) 0.1818(4)
C7 C 0.2929(10) 1.6349(8) 0.2128(4)
C8 C 0.2513(10) 1.5083(9) 0.1904(4)
H5 H 0.2399 1.4307 0.2282
H6 H 0.1461 1.5328 0.1726
C9 C 0.3815(9) 1.4599(8) 0.1383(4)
H7 H 0.4003 1.5386 0.1025
H8 H 0.3444 1.3865 0.1221
H9 H 0.4824 1.4238 0.1574
C10 C 0.4583(10) 1.4832(8) 0.2907(4)
H10 H 0.5448 1.4466 0.2598
H11 H 0.3747 1.4188 0.3020
C11 C 0.5307(9) 1.4893(9) 0.3532(4)
C12 C 0.5800(9) 1.6483(7) 0.4181(4)
H12 H 0.6983 1.6301 0.4198
H13 H 0.5265 1.5886 0.4564
C13 C 0.5206(9) 1.8023(8) 0.4187(4)
C14 C 0.7949(10) 0.6277(10) 0.1580(5)
C15 C 0.8350(11) 0.5166(10) 0.1235(5)
H14 H 0.8824 0.4288 0.1449
C16 C 0.8058(13) 0.5345(12) 0.0592(6)
H15 H 0.8381 0.4607 0.0365
C17 C 0.7282(14) 0.6627(14) 0.0278(5)
H16 H 0.7080 0.6745 -0.0159
C18 C 0.6820(11) 0.7702(11) 0.0603(4)
H17 H 0.6286 0.8550 0.0386
C19 C 0.7123(10) 0.7576(10) 0.1265(4)
C20 C 0.6642(11) 0.8843(10) 0.1559(4)
C21 C 0.5565(10) 1.0085(9) 0.1209(4)
H18 H 0.4856 1.0538 0.1537
H19 H 0.4861 0.9738 0.0962
C22 C 0.6538(10) 1.1197(10) 0.0734(4)
H20 H 0.7227 1.1557 0.0975
H21 H 0.5782 1.1962 0.0531
H22 H 0.7214 1.0767 0.0398
C23 C 0.6772(10) 1.0139(8) 0.2432(4)
H23 H 0.5585 1.0349 0.2529
H24 H 0.7170 1.0951 0.2123
C24 C 0.7547(10) 0.9918(9) 0.3054(4)
C25 C 0.9503(9) 0.8322(9) 0.3715(4)
H25 H 0.8818 0.8313 0.4135
H26 H 1.0308 0.8979 0.3670
C26 C 1.0355(11) 0.6855(10) 0.3674(4)
O1 O 0.2732(6) 1.9078(5) 0.2612(2)
O2 O 0.5767(6) 1.3722(5) 0.3918(3)
O3 O 0.4371(6) 1.8745(5) 0.3724(2)
O4 O 0.5509(6) 1.8551(5) 0.4632(2)
O5 O 0.8339(6) 0.6000(5) 0.2186(3)
O6 O 0.7210(6) 1.0884(5) 0.3386(3)
O7 O 0.9979(6) 0.6197(5) 0.3263(3)
O8 O 1.1436(7) 0.6329(6) 0.4055(3)
O9 O 0.1898(6) 0.9837(5) 0.5037(3)
H27 H 0.1456 0.9352 0.4834
H28 H 0.2392 0.9284 0.5343
O10 O 0.1641(6) 1.3397(6) 0.4290(3)
H29 H 0.1995 1.4201 0.4208
H30 H 0.0935 1.3406 0.4030
O11 O 0.2426(6) 1.1586(5) 0.3084(3)
H31 H 0.3070 1.1331 0.2763
H32 H 0.1665 1.1050 0.3200
O3_2 O 0.4371(6) 0.8745(5) 0.3724(2)
O4_2 O 0.5509(6) 0.8551(5) 0.4632(2)
O4A O 0.4491(6) 1.1449(5) 0.5368(2)
Ba1_2 Ba 0.41775(6) 2.13768(5) 0.41205(2)
Ba1A Ba 0.58225(6) 1.86232(5) 0.58795(2)
O12 O 0.1738(6) 0.7021(5) 0.5255(3)
H33 H 0.2398 0.6486 0.5036
H34 H 0.0818 0.7212 0.5097
O13 O 0.9394(6) 0.3006(6) 0.2825(3)
H35 H 0.8777 0.3716 0.2937
H36 H 0.8801 0.2436 0.2744
loop_
_geom_bond_atom_site_label_1
_geom_bond_atom_site_label_2
_geom_bond_site_symmetry_1
_geom_bond_site_symmetry_2
Ba1 O2 1_555 1_555
Cu1 N1 1_555 1_555
Cu2 N3 1_555 1_555
N1 C7 1_555 1_555
N2 Cu1 1_555 1_555
N3 C20 1_555 1_555
N4 Cu2 1_555 1_555
C1 C2 1_555 1_555
C2 H1 1_555 1_555
C3 C2 1_555 1_555
H2 C3 1_555 1_555
C4 C3 1_555 1_555
H3 C4 1_555 1_555
C5 C4 1_555 1_555
H4 C5 1_555 1_555
C6 C1 1_555 1_555
C7 C6 1_555 1_555
C8 C7 1_555 1_555
H5 C8 1_555 1_555
H6 C8 1_555 1_555
C9 C8 1_555 1_555
H7 C9 1_555 1_555
H8 C9 1_555 1_555
H9 C9 1_555 1_555
C10 N1 1_555 1_555
H10 C10 1_555 1_555
H11 C10 1_555 1_555
C11 N2 1_555 1_555
C12 N2 1_555 1_555
H12 C12 1_555 1_555
H13 C12 1_555 1_555
C13 C12 1_555 1_555
C14 C15 1_555 1_555
C15 H14 1_555 1_555
C16 C15 1_555 1_555
H15 C16 1_555 1_555
C17 C16 1_555 1_555
H16 C17 1_555 1_555
C18 C17 1_555 1_555
H17 C18 1_555 1_555
C19 C14 1_555 1_555
C20 C19 1_555 1_555
C21 C20 1_555 1_555
H18 C21 1_555 1_555
H19 C21 1_555 1_555
C22 C21 1_555 1_555
H20 C22 1_555 1_555
H21 C22 1_555 1_555
H22 C22 1_555 1_555
C23 N3 1_555 1_555
H23 C23 1_555 1_555
H24 C23 1_555 1_555
C24 N4 1_555 1_555
C25 N4 1_555 1_555
H25 C25 1_555 1_555
H26 C25 1_555 1_555
C26 C25 1_555 1_555
O1 Cu1 1_555 1_555
O2 C11 1_555 1_555
O3 Cu1 1_555 1_555
O4 C13 1_555 1_555
O5 Cu2 1_555 1_555
O6 Ba1 1_555 1_555
O7 Cu2 1_555 1_555
O8 C26 1_555 1_555
O9 Ba1 1_555 1_555
H27 O9 1_555 1_555
H28 O9 1_555 1_555
O10 Ba1 1_555 1_555
H29 O10 1_555 1_555
H30 O10 1_555 1_555
O11 Ba1 1_555 1_555
H31 O11 1_555 1_555
H32 O11 1_555 1_555
O12 H33 1_555 1_555
H34 O12 1_555 1_555
O13 H35 1_555 1_555
H36 O13 1_555 1_555
O3_2 Ba1 1_555 1_555
O4_2 Ba1 1_555 1_555
O4A Ba1 1_555 1_555
Ba1_2 O3 1_555 1_555
Ba1A O4 1_555 1_555
C1 O1 1_555 1_555
C5 C6 1_555 1_555
C10 C11 1_555 1_555
C13 O3 1_555 1_555
C14 O5 1_555 1_555
C18 C19 1_555 1_555
C23 C24 1_555 1_555
C24 O6 1_555 1_555
C26 O7 1_555 1_555
O4 Ba1_2 1_555 1_555

#END
