
#######################################################################
#
#                 Cambridge Crystallographic Data Centre
#                                CCDC 
#
#######################################################################
#
# If this CIF has been generated from an entry in the Cambridge 
# Structural Database, then it will include bibliographic, chemical, 
# crystal, experimental, refinement or atomic coordinate data resulting 
# from the CCDC's data processing and validation procedures.
#
#######################################################################

data_UMITEP01
_symmetry_cell_setting           monoclinic
_symmetry_space_group_name_H-M   'C 2/m'
_symmetry_Int_Tables_number      12
_space_group_name_Hall           '-C 2y'
loop_
_symmetry_equiv_pos_site_id
_symmetry_equiv_pos_as_xyz
1 x,y,z
2 -x,y,-z
3 1/2+x,1/2+y,z
4 1/2-x,1/2+y,-z
5 -x,-y,-z
6 x,-y,z
7 1/2-x,1/2-y,-z
8 1/2+x,1/2-y,z
_cell_length_a                   13.1018(3)
_cell_length_b                   6.95350(10)
_cell_length_c                   10.3240(7)
_cell_angle_alpha                90
_cell_angle_beta                 107.547(8)
_cell_angle_gamma                90
_cell_volume                     896.787
loop_
_atom_site_label
_atom_site_type_symbol
_atom_site_fract_x
_atom_site_fract_y
_atom_site_fract_z
Cu1 Cu 0.04139(14) 0.0000 0.83934(18)
Br1 Br -0.13653(11) 0.0000 0.86830(12)
Br2 Br 0.19013(11) 0.0000 0.75275(13)
N1 N 0.0398(6) 0.3003(10) 0.8301(7)
C1 C 0.1022(7) 0.4021(11) 0.9293(8)
H1 H 0.1495 0.3366 1.0044
C2 C -0.0246(6) 0.3981(11) 0.7178(8)
C3 C -0.0861(7) 0.2967(14) 0.6038(9)
H2 H -0.0859 0.1600 0.6039
C4 C -0.1463(7) 0.3950(10) 0.4924(9)
H3 H -0.1882 0.3267 0.4149
Cu1A Cu -0.04139(14) 0.0000 1.16066(18)
Cu1_2 Cu 0.04139(14) 1.0000 0.83934(18)
Br1A Br 0.13653(11) 0.0000 1.13170(12)
N1E N 0.0398(6) 0.6997(10) 0.8301(7)
N1E_2 N 0.0398(6) -0.3003(10) 0.8301(7)
C1E C 0.1022(7) 0.5979(11) 0.9293(8)
H1E H 0.1495 0.6634 1.0044
C2E C -0.0246(6) 0.6019(11) 0.7178(8)
C3E C -0.0861(7) 0.7033(14) 0.6038(9)
H2E H -0.0859 0.8400 0.6039
C4E C -0.1463(7) 0.6050(10) 0.4924(9)
H3E H -0.1882 0.6733 0.4149
loop_
_geom_bond_atom_site_label_1
_geom_bond_atom_site_label_2
_geom_bond_site_symmetry_1
_geom_bond_site_symmetry_2
Cu1 Br1 1_555 1_555
Br1 Cu1A 1_555 1_555
Br2 Cu1 1_555 1_555
N1 Cu1 1_555 1_555
C1 N1 1_555 1_555
H1 C1 1_555 1_555
C2 N1 1_555 1_555
C3 C2 1_555 1_555
H2 C3 1_555 1_555
C4 C3 1_555 1_555
H3 C4 1_555 1_555
Cu1A Br1A 1_555 1_555
Cu1_2 N1E 1_555 1_555
Br1A Cu1 1_555 1_555
N1E C1E 1_555 1_555
N1E_2 Cu1 1_555 1_555
C1E C1 1_555 1_555
H1E C1E 1_555 1_555
C2E C2 1_555 1_555
C3E C2E 1_555 1_555
H2E C3E 1_555 1_555
C4E C4 1_555 1_555
H3E C4E 1_555 1_555
N1E C2E 1_555 1_555
C3E C4E 1_555 1_555

#END
