
#######################################################################
#
#                 Cambridge Crystallographic Data Centre
#                                CCDC 
#
#######################################################################
#
# If this CIF has been generated from an entry in the Cambridge 
# Structural Database, then it will include bibliographic, chemical, 
# crystal, experimental, refinement or atomic coordinate data resulting 
# from the CCDC's data processing and validation procedures.
#
#######################################################################

data_UMITEP
_symmetry_cell_setting           monoclinic
_symmetry_space_group_name_H-M   'C 2/m'
_symmetry_Int_Tables_number      12
_space_group_name_Hall           '-C 2y'
loop_
_symmetry_equiv_pos_site_id
_symmetry_equiv_pos_as_xyz
1 x,y,z
2 1/2+x,1/2+y,z
3 x,-y,z
4 1/2+x,1/2-y,z
5 -x,-y,-z
6 1/2-x,1/2-y,-z
7 -x,y,-z
8 1/2-x,1/2+y,-z
_cell_length_a                   13.1746(15)
_cell_length_b                   6.9293(8)
_cell_length_c                   10.3564(12)
_cell_angle_alpha                90
_cell_angle_beta                 107.699(2)
_cell_angle_gamma                90
_cell_volume                     900.693
loop_
_atom_site_label
_atom_site_type_symbol
_atom_site_fract_x
_atom_site_fract_y
_atom_site_fract_z
Br1 Br -0.18941(3) -0.5000 -0.25533(4)
Br2 Br 0.13548(3) -0.5000 -0.36799(3)
Cu1 Cu -0.04041(4) -0.5000 -0.33831(4)
N1 N -0.03828(17) -0.7970(3) -0.32768(19)
C1 C 0.1461(2) -0.8996(4) 0.0079(2)
H1 H 0.1866 -0.8332 0.0842
C2 C 0.0246(2) -0.8978(3) -0.2181(2)
C3 C 0.0871(2) -0.7992(3) -0.1029(3)
H2 H 0.0884 -0.6650 -0.1021
C4 C -0.1010(2) -0.8982(3) -0.4265(2)
H3 H -0.1474 -0.8336 -0.4995
C2B C 0.0246(2) -1.1022(3) -0.2181(2)
N1B N -0.03828(17) -1.2030(3) -0.32768(19)
C4B C -0.1010(2) -1.1018(3) -0.4265(2)
H3B H -0.1474 -1.1664 -0.4995
C3B C 0.0871(2) -1.2008(3) -0.1029(3)
C1B C 0.1461(2) -1.1004(4) 0.0079(2)
H1B H 0.1866 -1.1668 0.0842
H2B H 0.0884 -1.3350 -0.1021
Cu1D Cu 0.04041(4) -0.5000 -0.66169(4)
Br2D Br -0.13548(3) -0.5000 -0.63201(3)
N1B_2 N -0.03828(17) -0.2030(3) -0.32768(19)
Cu1_2 Cu -0.04041(4) -1.5000 -0.33831(4)
loop_
_geom_bond_atom_site_label_1
_geom_bond_atom_site_label_2
_geom_bond_site_symmetry_1
_geom_bond_site_symmetry_2
Br1 Cu1 1_555 1_555
Br2 Cu1 1_555 1_555
Cu1 N1 1_555 1_555
N1 C2 1_555 1_555
C1 H1 1_555 1_555
C2 C3 1_555 1_555
C3 C1 1_555 1_555
H2 C3 1_555 1_555
C4 N1 1_555 1_555
H3 C4 1_555 1_555
C2B C2 1_555 1_555
N1B C2B 1_555 1_555
C4B C4 1_555 1_555
H3B C4B 1_555 1_555
C3B C2B 1_555 1_555
C1B C1 1_555 1_555
H1B C1B 1_555 1_555
H2B C3B 1_555 1_555
Cu1D Br2 1_555 1_555
Br2D Cu1 1_555 1_555
N1B_2 Cu1 1_555 1_555
Cu1_2 N1B 1_555 1_555
N1B C4B 1_555 1_555
C3B C1B 1_555 1_555
Cu1D Br2D 1_555 1_555

#END
