
#######################################################################
#
#                 Cambridge Crystallographic Data Centre
#                                CCDC 
#
#######################################################################
#
# If this CIF has been generated from an entry in the Cambridge 
# Structural Database, then it will include bibliographic, chemical, 
# crystal, experimental, refinement or atomic coordinate data resulting 
# from the CCDC's data processing and validation procedures.
#
#######################################################################

data_UMOCOO
_symmetry_cell_setting           monoclinic
_symmetry_space_group_name_H-M   'P 21/n'
_symmetry_Int_Tables_number      14
_space_group_name_Hall           '-P 2yn'
loop_
_symmetry_equiv_pos_site_id
_symmetry_equiv_pos_as_xyz
1 x,y,z
2 1/2+x,1/2-y,1/2+z
3 -x,-y,-z
4 1/2-x,1/2+y,1/2-z
_cell_length_a                   7.806(2)
_cell_length_b                   10.371(2)
_cell_length_c                   13.234(3)
_cell_angle_alpha                90
_cell_angle_beta                 105.74(3)
_cell_angle_gamma                90
_cell_volume                     1031.2
loop_
_atom_site_label
_atom_site_type_symbol
_atom_site_fract_x
_atom_site_fract_y
_atom_site_fract_z
Ag1 Ag -0.47327(6) -0.31308(4) 0.13370(3)
N1 N -0.2426(6) -0.2509(5) 0.5761(4)
H1 H -0.2878 -0.2565 0.6317
H2 H -0.3030 -0.1879 0.5346
H3 H -0.133(10) -0.315(7) 0.230(6)
N2 N -0.2065(7) -0.3790(6) 0.1961(5)
H4 H -0.170(9) -0.396(7) 0.146(6)
C1 C -0.2850(8) -0.3726(6) 0.5174(5)
H5 H -0.4116 -0.3828 0.4916
H6 H -0.2389 -0.4436 0.5632
C2 C -0.2020(7) -0.3731(6) 0.4253(5)
H7 H -0.0750 -0.3789 0.4518
H8 H -0.2297 -0.2933 0.3876
C3 C -0.2694(8) -0.4837(6) 0.3505(5)
H9 H -0.3952 -0.4739 0.3203
H10 H -0.2505 -0.5627 0.3898
C4 C -0.1794(8) -0.4928(7) 0.2640(5)
H11 H -0.0541 -0.5050 0.2943
H12 H -0.2239 -0.5673 0.2219
Ag1A Ag 0.02673(6) -0.18692(4) 0.63370(3)
N1A N -0.7426(6) -0.2491(5) 0.0761(4)
H1A H -0.7878 -0.2435 0.1317
H2A H -0.8030 -0.3121 0.0346
As1 As 0.24632(7) -0.15072(6) 0.37684(4)
F1 F 0.1244(9) -0.2213(9) 0.2684(5)
F2 F 0.3581(11) -0.0749(11) 0.4843(5)
F3 F 0.2474(8) -0.2807(6) 0.4514(6)
F4 F 0.4356(7) -0.1939(6) 0.3488(5)
F5 F 0.2458(8) -0.0156(5) 0.3057(5)
F6 F 0.0522(6) -0.1073(5) 0.4040(5)
loop_
_geom_bond_atom_site_label_1
_geom_bond_atom_site_label_2
_geom_bond_site_symmetry_1
_geom_bond_site_symmetry_2
Ag1 N2 1_555 1_555
As1 F1 1_555 1_555
F2 As1 1_555 1_555
F3 As1 1_555 1_555
F4 As1 1_555 1_555
F5 As1 1_555 1_555
F6 As1 1_555 1_555
N1 H1 1_555 1_555
H2 N1 1_555 1_555
H3 N2 1_555 1_555
N2 H4 1_555 1_555
C1 N1 1_555 1_555
H5 C1 1_555 1_555
H6 C1 1_555 1_555
C2 C1 1_555 1_555
H7 C2 1_555 1_555
H8 C2 1_555 1_555
C3 C2 1_555 1_555
H9 C3 1_555 1_555
H10 C3 1_555 1_555
C4 N2 1_555 1_555
H11 C4 1_555 1_555
H12 C4 1_555 1_555
Ag1A N1 1_555 1_555
N1A Ag1 1_555 1_555
H1A N1A 1_555 1_555
H2A N1A 1_555 1_555
C3 C4 1_555 1_555

#END
