
#######################################################################
#
#                 Cambridge Crystallographic Data Centre
#                                CCDC 
#
#######################################################################
#
# If this CIF has been generated from an entry in the Cambridge 
# Structural Database, then it will include bibliographic, chemical, 
# crystal, experimental, refinement or atomic coordinate data resulting 
# from the CCDC's data processing and validation procedures.
#
#######################################################################

data_UMODOP
_symmetry_cell_setting           monoclinic
_symmetry_space_group_name_H-M   'C m'
_symmetry_Int_Tables_number      8
_space_group_name_Hall           'C -2y'
loop_
_symmetry_equiv_pos_site_id
_symmetry_equiv_pos_as_xyz
1 x,y,z
2 x,-y,z
3 1/2+x,1/2+y,z
4 1/2+x,1/2-y,z
_cell_length_a                   13.0109(10)
_cell_length_b                   17.3720(14)
_cell_length_c                   7.8427(6)
_cell_angle_alpha                90
_cell_angle_beta                 107.979(2)
_cell_angle_gamma                90
_cell_volume                     1686.09
loop_
_atom_site_label
_atom_site_type_symbol
_atom_site_fract_x
_atom_site_fract_y
_atom_site_fract_z
Cs1 Cs 0.54337(3) 0.5000 0.55808(5)
Cs2 Cs 0.53181(3) 0.5000 0.04501(4)
N1 N 0.5867(9) 0.6431(5) 0.3252(12)
N2 N 0.4028(4) 0.6085(3) 0.2416(6)
H1 H 0.322(4) 0.635(3) 0.191(6)
C1 C 0.6594(6) 0.6920(4) 0.3401(8)
H2 H 0.7316 0.6754 0.3591
C2 C 0.6372(10) 0.7678(5) 0.3297(17)
H3 H 0.6950 0.8033 0.3462
C3 C 0.5353(13) 0.7953(3) 0.296(2)
H4 H 0.5223 0.8491 0.2859
C4 C 0.4519(10) 0.7457(5) 0.2780(14)
H5 H 0.3803 0.7633 0.2608
C5 C 0.4802(9) 0.6582(6) 0.2867(13)
O1 O 0.7602(10) 0.5000 0.9015(16)
O2 O 0.6388(8) 0.6418(4) 0.8835(12)
O3 O 0.4197(7) 0.6345(4) 0.7223(9)
O4 O 0.3166(8) 0.5000 0.7064(15)
C6 C 0.8016(9) 0.5711(7) 0.9845(16)
H6 H 0.8804 0.5728 1.0038
H7 H 0.7901 0.5736 1.1034
C7 C 0.7501(10) 0.6398(7) 0.8767(16)
H8 H 0.7890 0.6874 0.9286
H9 H 0.7508 0.6348 0.7513
C8 C 0.6008(13) 0.7062(5) 0.7947(13)
H10 H 0.6020 0.7046 0.6692
H11 H 0.6395 0.7525 0.8556
C9 C 0.4897(13) 0.7008(6) 0.8073(16)
H12 H 0.4954 0.7009 0.9361
H13 H 0.4511 0.7486 0.7549
C10 C 0.3123(10) 0.6290(9) 0.716(2)
H14 H 0.2738 0.6767 0.6635
H15 H 0.3083 0.6242 0.8400
C11 C 0.2592(11) 0.5630(8) 0.6108(18)
H16 H 0.1819 0.5606 0.6037
H17 H 0.2649 0.5650 0.4879
C11A C 0.2592(11) 0.4370(8) 0.6108(18)
C10A C 0.3123(10) 0.3710(9) 0.716(2)
O3A O 0.4197(7) 0.3655(4) 0.7223(9)
C9A C 0.4897(13) 0.2992(6) 0.8073(16)
C8A C 0.6008(13) 0.2938(5) 0.7947(13)
O2A O 0.6388(8) 0.3582(4) 0.8835(12)
C7A C 0.7501(10) 0.3602(7) 0.8767(16)
C6A C 0.8016(9) 0.4289(7) 0.9845(16)
H6A H 0.8804 0.4272 1.0038
H7A H 0.7901 0.4264 1.1034
H8A H 0.7890 0.3126 0.9286
H9A H 0.7508 0.3652 0.7513
H10A H 0.6020 0.2954 0.6692
H11A H 0.6395 0.2475 0.8556
H12A H 0.4954 0.2991 0.9361
H13A H 0.4511 0.2514 0.7549
H14A H 0.2738 0.3233 0.6635
H15A H 0.3083 0.3758 0.8400
H16A H 0.1819 0.4394 0.6037
H17A H 0.2649 0.4350 0.4879
N1A N 0.5867(9) 0.3569(5) 0.3252(12)
N2A N 0.4028(4) 0.3915(3) 0.2416(6)
H1A H 0.322(4) 0.365(3) 0.191(6)
C1A C 0.6594(6) 0.3080(4) 0.3401(8)
H2A H 0.7316 0.3246 0.3591
C2A C 0.6372(10) 0.2322(5) 0.3297(17)
H3A H 0.6950 0.1967 0.3462
C3A C 0.5353(13) 0.2047(3) 0.296(2)
H4A H 0.5223 0.1509 0.2859
C4A C 0.4519(10) 0.2543(5) 0.2780(14)
H5A H 0.3803 0.2367 0.2608
C5A C 0.4802(9) 0.3418(6) 0.2867(13)
Cs2_2 Cs 0.53181(3) 0.5000 1.04501(4)
Cs1_2 Cs 0.54337(3) 0.5000 -0.44192(5)
O1_2 O 0.7602(10) 0.5000 -0.0985(16)
O2_2 O 0.6388(8) 0.6418(4) -0.1165(12)
O2A_2 O 0.6388(8) 0.3582(4) -0.1165(12)
O3_2 O 0.4197(7) 0.6345(4) -0.2777(9)
O3A_2 O 0.4197(7) 0.3655(4) -0.2777(9)
O4_2 O 0.3166(8) 0.5000 -0.2936(15)
C12 C 0.5908(8) 1.0000 0.9116(16)
C13 C 0.5411(14) 0.9324(4) 0.826(2)
H18 H 0.5612 0.8844 0.8855
C14 C 0.4648(7) 0.9335(5) 0.6611(12)
H19 H 0.4398 0.8850 0.6088
C15 C 0.4190(12) 1.0000 0.559(3)
H20 H 0.3669 1.0000 0.4437
C16 C 0.6800(16) 1.0000 1.069(2)
H21 H 0.7024 1.0531 1.1033
C14A C 0.4648(7) 1.0665(5) 0.6611(12)
C13A C 0.5411(14) 1.0676(4) 0.826(2)
H21A H 0.7024 0.9469 1.1033
H18A H 0.5612 1.1156 0.8855
H19A H 0.4398 1.1150 0.6088
H22? H 0.7400 0.9716 1.0483
H23? H 0.6594 0.9752 1.1664
H24? H 0.6988 0.9469 1.1087
H25? H 0.6612 1.0284 1.1637
H26? H 0.7418 1.0248 1.0456
loop_
_geom_bond_atom_site_label_1
_geom_bond_atom_site_label_2
_geom_bond_site_symmetry_1
_geom_bond_site_symmetry_2
Cs1 N1 1_555 1_555
Cs2 N1 1_555 1_555
N1 C1 1_555 1_555
N2 Cs1 1_555 1_555
H1 N2 1_555 1_555
C1 H2 1_555 1_555
C2 C1 1_555 1_555
H3 C2 1_555 1_555
C3 C2 1_555 1_555
H4 C3 1_555 1_555
C4 C3 1_555 1_555
H5 C4 1_555 1_555
C5 N1 1_555 1_555
O1 Cs1 1_555 1_555
O2 Cs1 1_555 1_555
O3 Cs1 1_555 1_555
O4 Cs1 1_555 1_555
C6 O1 1_555 1_555
H6 C6 1_555 1_555
H7 C6 1_555 1_555
C7 O2 1_555 1_555
H8 C7 1_555 1_555
H9 C7 1_555 1_555
C8 O2 1_555 1_555
H10 C8 1_555 1_555
H11 C8 1_555 1_555
C9 O3 1_555 1_555
H12 C9 1_555 1_555
H13 C9 1_555 1_555
C10 O3 1_555 1_555
H14 C10 1_555 1_555
H15 C10 1_555 1_555
C11 O4 1_555 1_555
H16 C11 1_555 1_555
H17 C11 1_555 1_555
C12 C13 1_555 1_555
C13 H18 1_555 1_555
C14 C13 1_555 1_555
H19 C14 1_555 1_555
C15 C14 1_555 1_555
H20 C15 1_555 1_555
C16 C12 1_555 1_555
H21 C16 1_555 1_555
C11A O4 1_555 1_555
C10A C11A 1_555 1_555
O3A Cs1 1_555 1_555
C9A O3A 1_555 1_555
C8A C9A 1_555 1_555
O2A Cs1 1_555 1_555
C7A O2A 1_555 1_555
C6A O1 1_555 1_555
H6A C6A 1_555 1_555
H7A C6A 1_555 1_555
H8A C7A 1_555 1_555
H9A C7A 1_555 1_555
H10A C8A 1_555 1_555
H11A C8A 1_555 1_555
H12A C9A 1_555 1_555
H13A C9A 1_555 1_555
H14A C10A 1_555 1_555
H15A C10A 1_555 1_555
H16A C11A 1_555 1_555
H17A C11A 1_555 1_555
C14A C15 1_555 1_555
C13A C12 1_555 1_555
H21A C16 1_555 1_555
H18A C13A 1_555 1_555
H19A C14A 1_555 1_555
N1A Cs1 1_555 1_555
N2A Cs1 1_555 1_555
H1A N2A 1_555 1_555
C1A N1A 1_555 1_555
H2A C1A 1_555 1_555
C2A C1A 1_555 1_555
H3A C2A 1_555 1_555
C3A C2A 1_555 1_555
H4A C3A 1_555 1_555
C4A C3A 1_555 1_555
H5A C4A 1_555 1_555
C5A N1A 1_555 1_555
Cs2_2 O1 1_555 1_555
Cs1_2 O1_2 1_555 1_555
O1_2 Cs2 1_555 1_555
O2_2 Cs2 1_555 1_555
O2A_2 Cs2 1_555 1_555
O3_2 Cs2 1_555 1_555
O3A_2 Cs2 1_555 1_555
O4_2 Cs2 1_555 1_555
Cs2 N1A 1_555 1_555
Cs2 N2 1_555 1_555
Cs2 N2A 1_555 1_555
N2 C5 1_555 1_555
C4 C5 1_555 1_555
O2 Cs2_2 1_555 1_555
O3 Cs2_2 1_555 1_555
O4 Cs2_2 1_555 1_555
C6 C7 1_555 1_555
C8 C9 1_555 1_555
C10 C11 1_555 1_555
C10A O3A 1_555 1_555
O3A Cs2_2 1_555 1_555
C8A O2A 1_555 1_555
O2A Cs2_2 1_555 1_555
C7A C6A 1_555 1_555
C14A C13A 1_555 1_555
N2A C5A 1_555 1_555
C4A C5A 1_555 1_555
Cs1_2 O2_2 1_555 1_555
Cs1_2 O2A_2 1_555 1_555
Cs1_2 O3_2 1_555 1_555
Cs1_2 O3A_2 1_555 1_555
Cs1_2 O4_2 1_555 1_555

#END
