
#######################################################################
#
#                 Cambridge Crystallographic Data Centre
#                                CCDC 
#
#######################################################################
#
# If this CIF has been generated from an entry in the Cambridge 
# Structural Database, then it will include bibliographic, chemical, 
# crystal, experimental, refinement or atomic coordinate data resulting 
# from the CCDC's data processing and validation procedures.
#
#######################################################################

data_UMORIY
_symmetry_cell_setting           orthorhombic
_symmetry_space_group_name_H-M   'F d d 2'
_symmetry_Int_Tables_number      43
_space_group_name_Hall           'F 2 -2d'
loop_
_symmetry_equiv_pos_site_id
_symmetry_equiv_pos_as_xyz
1 x,y,z
2 -x,-y,z
3 1/4+x,1/4-y,1/4+z
4 1/4-x,1/4+y,1/4+z
5 x,1/2+y,1/2+z
6 -x,1/2-y,1/2+z
7 1/4+x,3/4-y,3/4+z
8 1/4-x,3/4+y,3/4+z
9 1/2+x,y,1/2+z
10 1/2-x,-y,1/2+z
11 3/4+x,1/4-y,3/4+z
12 3/4-x,1/4+y,3/4+z
13 1/2+x,1/2+y,z
14 1/2-x,1/2-y,z
15 3/4+x,3/4-y,1/4+z
16 3/4-x,3/4+y,1/4+z
_cell_length_a                   8.8306(11)
_cell_length_b                   15.2742(18)
_cell_length_c                   18.113(2)
_cell_angle_alpha                90
_cell_angle_beta                 90
_cell_angle_gamma                90
_cell_volume                     2443.09
loop_
_atom_site_label
_atom_site_type_symbol
_atom_site_fract_x
_atom_site_fract_y
_atom_site_fract_z
Cd1 Cd 0.2500 0.2500 0.52789(5)
Cd2 Cd 0.0000 0.0000 0.75919(5)
O1 O 0.1534(7) 0.1194(4) 0.6097(5)
O2 O 0.2291(7) 0.0421(4) 0.7086(6)
O3 O -0.0628(9) 0.1418(5) 0.7318(7)
H1 H -0.1504 0.1461 0.7127
H2 H 0.0012 0.1354 0.6971
N1 N 0.4413(9) 0.1896(4) 0.5975(5)
N2 N 0.5889(8) 0.2053(4) 0.6087(5)
N3 N 0.6370(8) 0.1563(5) 0.6636(5)
N4 N 0.5221(8) 0.1077(6) 0.6892(6)
C1 C 0.4047(11) 0.1298(5) 0.6469(6)
C2 C 0.2480(8) 0.0944(6) 0.6552(7)
Cd1B Cd 0.5000 0.0000 0.77789(5)
Cd1C Cd 0.0000 0.5000 0.77789(5)
Cd2J Cd 0.7500 0.2500 0.50919(5)
Cd2L Cd 0.5000 0.5000 0.75919(5)
Cd2J_2 Cd -0.2500 0.2500 0.50919(5)
O1M O 0.3466(7) 0.3806(4) 0.6097(5)
O2M O 0.2709(7) 0.4579(4) 0.7086(6)
O2A O -0.2291(7) -0.0421(4) 0.7086(6)
O3A O 0.0628(9) -0.1418(5) 0.7318(7)
H1A H 0.1504 -0.1461 0.7127
H2A H -0.0012 -0.1354 0.6971
N1M N 0.0587(9) 0.3104(4) 0.5975(5)
N2M N -0.0889(8) 0.2947(4) 0.6087(5)
N2B N -0.1611(8) 0.0447(4) 0.8587(5)
N2O N 0.1611(8) -0.0447(4) 0.8587(5)
N3M N -0.1370(8) 0.3437(5) 0.6636(5)
N4M N -0.0221(8) 0.3923(6) 0.6892(6)
N4J N 0.2721(8) 0.1423(6) 0.4392(6)
N4K N 0.2279(8) 0.3577(6) 0.4392(6)
C1M C 0.0953(11) 0.3702(5) 0.6469(6)
C2M C 0.2520(8) 0.4056(6) 0.6552(7)
O4 O 0.0000 0.0000 0.514(3)
H3 H 0.0464 0.0363 0.5416
H3A H -0.0464 -0.0363 0.5416
loop_
_geom_bond_atom_site_label_1
_geom_bond_atom_site_label_2
_geom_bond_site_symmetry_1
_geom_bond_site_symmetry_2
Cd1 O1 1_555 1_555
Cd2 O2 1_555 1_555
O1 C2 1_555 1_555
O2 C2 1_555 1_555
O3 Cd2 1_555 1_555
H1 O3 1_555 1_555
H2 O3 1_555 1_555
O4 H3 1_555 1_555
N1 Cd1 1_555 1_555
N2 N1 1_555 1_555
N3 N2 1_555 1_555
N4 N3 1_555 1_555
C1 N1 1_555 1_555
C2 C1 1_555 1_555
Cd1B N4 1_555 1_555
Cd1C N4M 1_555 1_555
Cd2J N2 1_555 1_555
Cd2L O2M 1_555 1_555
Cd2J_2 N2M 1_555 1_555
O1M Cd1 1_555 1_555
O2M C2M 1_555 1_555
O2A Cd2 1_555 1_555
O3A Cd2 1_555 1_555
H1A O3A 1_555 1_555
H2A O3A 1_555 1_555
H3A O4 1_555 1_555
N1M Cd1 1_555 1_555
N2M N1M 1_555 1_555
N2B Cd2 1_555 1_555
N2O Cd2 1_555 1_555
N3M N2M 1_555 1_555
N4M N3M 1_555 1_555
N4J Cd1 1_555 1_555
N4K Cd1 1_555 1_555
C1M N1M 1_555 1_555
C2M O1M 1_555 1_555
N4 C1 1_555 1_555
N4M C1M 1_555 1_555
C1M C2M 1_555 1_555

#END
