
#######################################################################
#
#                 Cambridge Crystallographic Data Centre
#                                CCDC 
#
#######################################################################
#
# If this CIF has been generated from an entry in the Cambridge 
# Structural Database, then it will include bibliographic, chemical, 
# crystal, experimental, refinement or atomic coordinate data resulting 
# from the CCDC's data processing and validation procedures.
#
#######################################################################

data_UMOTOG
_symmetry_cell_setting           monoclinic
_symmetry_space_group_name_H-M   'P 21/n'
_symmetry_Int_Tables_number      14
_space_group_name_Hall           '-P 2yn'
loop_
_symmetry_equiv_pos_site_id
_symmetry_equiv_pos_as_xyz
1 x,y,z
2 1/2-x,1/2+y,1/2-z
3 -x,-y,-z
4 1/2+x,1/2-y,1/2+z
_cell_length_a                   8.1689(4)
_cell_length_b                   20.2307(9)
_cell_length_c                   17.2518(8)
_cell_angle_alpha                90
_cell_angle_beta                 96.9830(10)
_cell_angle_gamma                90
_cell_volume                     2829.93
loop_
_atom_site_label
_atom_site_type_symbol
_atom_site_fract_x
_atom_site_fract_y
_atom_site_fract_z
I1 I 0.60033(4) 0.681834(14) 0.716282(15)
I2 I 0.66048(4) 0.563483(13) 1.038993(16)
I3 I 0.88324(4) 0.843376(13) 0.993970(18)
Cd1 Cd 0.76560(4) 0.935545(13) 0.740319(17)
N1 N 0.7993(6) 0.70874(19) 1.0776(2)
H1 H 0.8373 0.7456 1.0971
H2 H 0.7883 0.6756 1.1077
N2 N 0.7381(5) 0.88470(17) 0.6235(2)
C1 C 0.6559(6) 0.9087(2) 0.5568(3)
H3 H 0.5997 0.9488 0.5545
N3 N 0.7545(5) 0.81817(17) 0.5253(2)
N4 N 0.8317(5) 0.55573(17) 0.5584(2)
N5 N 0.6705(6) 0.5433(2) 0.5343(2)
N6 N 0.7431(5) 0.50139(17) 0.6532(2)
O1 O 0.8723(5) 0.81913(18) 0.7887(2)
O2 O 0.6256(4) 0.85103(14) 0.80849(19)
O3 O 0.7205(4) 0.53441(14) 0.83417(17)
O4 O 0.4544(4) 0.55430(15) 0.8393(2)
O5 O 1.0519(4) 0.95041(16) 0.7616(2)
H4 H 1.1076 0.9150 0.7610
H5 H 1.0809 0.9716 0.8033
O6 O 0.4809(4) 0.96769(19) 0.7129(2)
H6 H 0.4519 1.0042 0.6913
H7 H 0.4035 0.9398 0.7055
C2 C 0.7428(6) 0.81089(19) 0.8168(2)
C3 C 0.7264(5) 0.75095(18) 0.8677(2)
C4 C 0.6663(5) 0.69086(18) 0.8372(2)
C5 C 0.6523(4) 0.63615(17) 0.8852(2)
C6 C 0.6944(5) 0.64330(17) 0.9653(2)
C7 C 0.7567(5) 0.70293(18) 0.9992(2)
C8 C 0.7725(5) 0.75564(18) 0.9479(2)
C9 C 0.6035(5) 0.56884(17) 0.8498(2)
C10 C 0.7984(6) 0.8277(2) 0.6012(3)
H8 H 0.8621 0.7986 0.6340
N7 N 0.6621(5) 0.8706(2) 0.4953(2)
C11 C 0.7902(7) 0.7641(2) 0.4742(3)
H9 H 0.8712 0.7787 0.4411
H10 H 0.6905 0.7523 0.4407
C12 C 0.8556(6) 0.7038(2) 0.5203(2)
H11 H 0.9628 0.7135 0.5486
H12 H 0.7813 0.6920 0.5578
C13 C 0.8699(7) 0.6468(2) 0.4646(3)
H13 H 0.9405 0.6600 0.4259
H14 H 0.7616 0.6371 0.4373
C14 C 0.9399(8) 0.5841(3) 0.5056(3)
H15 H 0.9588 0.5515 0.4665
H16 H 1.0456 0.5944 0.5351
C15 C 0.8720(6) 0.5304(2) 0.6290(3)
H17 H 0.9761 0.5329 0.6574
C16 C 0.6244(6) 0.5107(2) 0.5935(3)
H18 H 0.5174 0.4953 0.5941
Cd1A Cd 0.73440(4) 0.435545(13) 0.759681(17)
N6A N 0.7569(5) 1.00139(17) 0.8468(2)
O3A O 0.7795(4) 1.03441(14) 0.66583(17)
O7 O 0.2917(5) 0.84945(19) 0.7449(2)
H19 H 0.3905 0.8384 0.7625
H20 H 0.2316 0.8148 0.7431
O8 O 0.3659(10) 0.1009(3) 0.6742(4)
O9 O 0.3989(7) 0.2359(3) 0.7608(5)
O10? O 0.3149(15) 0.1152(6) 0.7753(9)
loop_
_geom_bond_atom_site_label_1
_geom_bond_atom_site_label_2
_geom_bond_site_symmetry_1
_geom_bond_site_symmetry_2
I1 C4 1_555 1_555
I2 C6 1_555 1_555
I3 C8 1_555 1_555
Cd1 N2 1_555 1_555
N1 H1 1_555 1_555
H2 N1 1_555 1_555
N2 C1 1_555 1_555
C1 H3 1_555 1_555
N3 C10 1_555 1_555
N4 N5 1_555 1_555
N5 C16 1_555 1_555
N6 C15 1_555 1_555
O1 Cd1 1_555 1_555
O2 Cd1 1_555 1_555
O3 C9 1_555 1_555
O4 C9 1_555 1_555
O5 Cd1 1_555 1_555
H4 O5 1_555 1_555
H5 O5 1_555 1_555
O6 Cd1 1_555 1_555
H6 O6 1_555 1_555
H7 O6 1_555 1_555
C2 O1 1_555 1_555
C3 C2 1_555 1_555
C4 C3 1_555 1_555
C5 C4 1_555 1_555
C6 C5 1_555 1_555
C7 N1 1_555 1_555
C8 C3 1_555 1_555
C9 C5 1_555 1_555
C10 N2 1_555 1_555
H8 C10 1_555 1_555
N7 C1 1_555 1_555
C11 N3 1_555 1_555
H9 C11 1_555 1_555
H10 C11 1_555 1_555
C12 C11 1_555 1_555
H11 C12 1_555 1_555
H12 C12 1_555 1_555
C13 C12 1_555 1_555
H13 C13 1_555 1_555
H14 C13 1_555 1_555
C14 N4 1_555 1_555
H15 C14 1_555 1_555
H16 C14 1_555 1_555
C15 N4 1_555 1_555
H17 C15 1_555 1_555
C16 N6 1_555 1_555
H18 C16 1_555 1_555
O7 H19 1_555 1_555
H20 O7 1_555 1_555
Cd1A N6 1_555 1_555
N6A Cd1 1_555 1_555
O3A Cd1 1_555 1_555
N3 N7 1_555 1_555
O2 C2 1_555 1_555
O3 Cd1A 1_555 1_555
C6 C7 1_555 1_555
C7 C8 1_555 1_555
C13 C14 1_555 1_555

#END
