
#######################################################################
#
#                 Cambridge Crystallographic Data Centre
#                                CCDC 
#
#######################################################################
#
# If this CIF has been generated from an entry in the Cambridge 
# Structural Database, then it will include bibliographic, chemical, 
# crystal, experimental, refinement or atomic coordinate data resulting 
# from the CCDC's data processing and validation procedures.
#
#######################################################################

data_UMOTIA
_symmetry_cell_setting           orthorhombic
_symmetry_space_group_name_H-M   'P n a 21'
_symmetry_Int_Tables_number      33
_space_group_name_Hall           'P 2c -2n'
loop_
_symmetry_equiv_pos_site_id
_symmetry_equiv_pos_as_xyz
1 x,y,z
2 -x,-y,1/2+z
3 1/2+x,1/2-y,z
4 1/2-x,1/2+y,1/2+z
_cell_length_a                   16.511(3)
_cell_length_b                   14.854(2)
_cell_length_c                   10.1159(15)
_cell_angle_alpha                90
_cell_angle_beta                 90
_cell_angle_gamma                90
_cell_volume                     2480.97
loop_
_atom_site_label
_atom_site_type_symbol
_atom_site_fract_x
_atom_site_fract_y
_atom_site_fract_z
N1 N 0.5071(3) 0.7009(4) 0.7200(6)
C1 C 0.5261(4) 0.6510(5) 0.6108(7)
H1 H 0.5281 0.5885 0.6119
N2 N 0.5411(5) 0.6978(5) 0.5059(7)
C2 C 0.5103(6) 0.7839(6) 0.6728(10)
H2 H 0.5011 0.8355 0.7227
N3 N 0.5282(5) 0.7839(5) 0.5465(8)
C3 C 0.6016(4) 0.5601(4) -0.0186(6)
C4 C 0.7003(4) 0.3688(4) 0.3593(7)
C5 C 0.6835(3) 0.3816(4) 0.2137(6)
C6 C 0.6973(4) 0.3110(4) 0.1257(7)
C7 C 0.6836(4) 0.3183(4) -0.0117(7)
C8 C 0.6534(4) 0.4013(4) -0.0554(6)
C9 C 0.6387(3) 0.4734(4) 0.0305(7)
C10 C 0.6543(4) 0.4628(4) 0.1655(6)
C11 C 0.5714(4) 0.8114(4) 0.0506(8)
H3 H 0.6207 0.7837 0.0326
N4 N 0.4824(4) 0.9101(4) 0.1239(8)
C12 C 0.6254(4) 0.9450(5) 0.1716(9)
H4 H 0.6239 1.0024 0.1259
H5 H 0.6779 0.9181 0.1550
C13 C 0.6168(5) 0.9616(5) 0.3175(9)
H6 H 0.5686 0.9977 0.3310
H7 H 0.6627 0.9976 0.3457
C14 C 0.6114(5) 0.8800(6) 0.4090(12)
H8 H 0.6344 0.8281 0.3645
H9 H 0.6435 0.8914 0.4876
C15 C 0.5289(6) 0.8594(7) 0.4479(11)
H10 H 0.4977 0.8423 0.3706
H11 H 0.5040 0.9124 0.4864
I1 I 0.62706(3) 0.56843(3) 0.29749(5)
I2 I 0.63239(3) 0.41846(3) -0.25899(5)
I3 I 0.74417(3) 0.18896(3) 0.20118(7)
N5 N 0.4986(3) 0.7799(4) 0.0129(6)
N6 N 0.5628(3) 0.8866(4) 0.1163(6)
C16 C 0.4469(4) 0.8435(5) 0.0620(8)
H12 H 0.3910 0.8398 0.0523
N7 N 0.6955(4) 0.2474(4) -0.0945(7)
H13 H 0.6844 0.2525 -0.1772
H14 H 0.7142 0.1975 -0.0641
O1 O 0.5240(3) 0.5583(3) -0.0271(5)
O2 O 0.6448(3) 0.6250(3) -0.0465(5)
O3 O 0.6412(3) 0.3413(3) 0.4311(5)
O4 O 0.7682(3) 0.3839(4) 0.4038(6)
Zn1 Zn 0.47631(4) 0.66844(5) -0.09497(9)
N1_2 N 0.5071(3) 0.7009(4) -0.2800(6)
O3A O 0.3588(3) 0.6587(3) -0.0689(5)
Zn1_2 Zn 0.47631(4) 0.66844(5) 0.90503(9)
Zn1A Zn 0.52369(4) 0.33156(5) 0.40503(9)
O5 O 0.0847(4) 0.5444(5) 0.8180(10)
H15 H 0.1286 0.5702 0.8426
H16 H 0.0962 0.5011 0.7651
O6 O 0.7391(3) 0.2230(4) 0.6118(6)
H17 H 0.7467 0.1746 0.5687
H18 H 0.7471 0.2683 0.5623
loop_
_geom_bond_atom_site_label_1
_geom_bond_atom_site_label_2
_geom_bond_site_symmetry_1
_geom_bond_site_symmetry_2
N1 C1 1_555 1_555
C1 H1 1_555 1_555
N2 C1 1_555 1_555
C2 N1 1_555 1_555
H2 C2 1_555 1_555
N3 N2 1_555 1_555
C3 C9 1_555 1_555
C4 C5 1_555 1_555
C5 C6 1_555 1_555
C6 C7 1_555 1_555
C7 C8 1_555 1_555
C8 C9 1_555 1_555
C9 C10 1_555 1_555
C10 C5 1_555 1_555
C11 H3 1_555 1_555
N4 N6 1_555 1_555
C12 H4 1_555 1_555
H5 C12 1_555 1_555
C13 C12 1_555 1_555
H6 C13 1_555 1_555
H7 C13 1_555 1_555
C14 C13 1_555 1_555
H8 C14 1_555 1_555
H9 C14 1_555 1_555
C15 N3 1_555 1_555
H10 C15 1_555 1_555
H11 C15 1_555 1_555
I1 C10 1_555 1_555
I2 C8 1_555 1_555
I3 C6 1_555 1_555
N5 C11 1_555 1_555
N6 C11 1_555 1_555
C16 N4 1_555 1_555
H12 C16 1_555 1_555
N7 C7 1_555 1_555
H13 N7 1_555 1_555
H14 N7 1_555 1_555
O1 C3 1_555 1_555
O2 C3 1_555 1_555
O3 C4 1_555 1_555
O4 C4 1_555 1_555
O5 H15 1_555 1_555
H16 O5 1_555 1_555
O6 H17 1_555 1_555
H18 O6 1_555 1_555
Zn1 N5 1_555 1_555
N1_2 Zn1 1_555 1_555
O3A Zn1 1_555 1_555
Zn1_2 N1 1_555 1_555
Zn1A O3 1_555 1_555
C2 N3 1_555 1_555
C12 N6 1_555 1_555
C14 C15 1_555 1_555
N5 C16 1_555 1_555
O1 Zn1 1_555 1_555

#END
