
#######################################################################
#
#                 Cambridge Crystallographic Data Centre
#                                CCDC 
#
#######################################################################
#
# If this CIF has been generated from an entry in the Cambridge 
# Structural Database, then it will include bibliographic, chemical, 
# crystal, experimental, refinement or atomic coordinate data resulting 
# from the CCDC's data processing and validation procedures.
#
#######################################################################

data_UMOTEW
_symmetry_cell_setting           monoclinic
_symmetry_space_group_name_H-M   'P 21'
_symmetry_Int_Tables_number      4
_space_group_name_Hall           'P 2yb'
loop_
_symmetry_equiv_pos_site_id
_symmetry_equiv_pos_as_xyz
1 x,y,z
2 -x,1/2+y,-z
_cell_length_a                   5.7301(19)
_cell_length_b                   7.586(2)
_cell_length_c                   9.041(3)
_cell_angle_alpha                90
_cell_angle_beta                 104.785(7)
_cell_angle_gamma                90
_cell_volume                     379.987
loop_
_atom_site_label
_atom_site_type_symbol
_atom_site_fract_x
_atom_site_fract_y
_atom_site_fract_z
C1 C 0.6422(7) 0.7603(5) 0.9074(4)
H1 H 0.4998 0.7102 0.8437
C2 C 0.9125(7) 0.8589(5) 1.1076(4)
C3 C 1.0007(7) 0.8848(5) 0.9831(4)
H2 H 1.1517 0.9361 0.9825
C4 C 1.0061(7) 0.9104(6) 1.2722(4)
H3 H 0.8838 0.9846 1.3024
H4 H 1.1534 0.9827 1.2831
C5 C 1.0667(6) 0.7512(4) 1.3827(4)
H5 H 0.9481 0.6548 1.3431
C6 C 1.0397(7) 0.8084(5) 1.5408(4)
Ag1 Ag 0.47605(4) 0.71046(6) 1.20841(2)
N1 N 0.6869(6) 0.7799(5) 1.0595(4)
N2 N 0.8298(7) 0.8225(4) 0.8584(4)
H6 H 0.8409 0.8232 0.7631
N3 N 1.3111(5) 0.6839(5) 1.3935(3)
H7 H 1.3097 0.5656 1.4154
H8 H 1.4123 0.7370 1.4771
O1 O 0.8226(5) 0.8210(4) 1.5530(3)
O2 O 1.2269(5) 0.8406(4) 1.6435(3)
Ag1_2 Ag 1.47605(4) 0.71046(6) 1.20841(2)
N3_2 N 0.3111(5) 0.6839(5) 1.3935(3)
H7_2 H 0.3097 0.5656 1.4154
H8_2 H 0.4123 0.7370 1.4771
loop_
_geom_bond_atom_site_label_1
_geom_bond_atom_site_label_2
_geom_bond_site_symmetry_1
_geom_bond_site_symmetry_2
C1 H1 1_555 1_555
C2 C3 1_555 1_555
C3 H2 1_555 1_555
C4 C2 1_555 1_555
H3 C4 1_555 1_555
H4 C4 1_555 1_555
C5 C4 1_555 1_555
H5 C5 1_555 1_555
C6 C5 1_555 1_555
Ag1 N1 1_555 1_555
N1 C1 1_555 1_555
N2 C1 1_555 1_555
H6 N2 1_555 1_555
N3 C5 1_555 1_555
H7 N3 1_555 1_555
H8 N3 1_555 1_555
O1 C6 1_555 1_555
O2 C6 1_555 1_555
Ag1_2 N3 1_555 1_555
N3_2 Ag1 1_555 1_555
H7_2 N3_2 1_555 1_555
H8_2 N3_2 1_555 1_555
C2 N1 1_555 1_555
C3 N2 1_555 1_555

#END
