
#######################################################################
#
#                 Cambridge Crystallographic Data Centre
#                                CCDC 
#
#######################################################################
#
# If this CIF has been generated from an entry in the Cambridge 
# Structural Database, then it will include bibliographic, chemical, 
# crystal, experimental, refinement or atomic coordinate data resulting 
# from the CCDC's data processing and validation procedures.
#
#######################################################################

data_UMOTAS
_symmetry_cell_setting           monoclinic
_symmetry_space_group_name_H-M   'C 2/c'
_symmetry_Int_Tables_number      15
_space_group_name_Hall           '-C 2yn'
loop_
_symmetry_equiv_pos_site_id
_symmetry_equiv_pos_as_xyz
1 x,y,z
2 -x,y,1/2-z
3 1/2+x,1/2+y,z
4 1/2-x,1/2+y,1/2-z
5 -x,-y,-z
6 x,-y,1/2+z
7 1/2-x,1/2-y,-z
8 1/2+x,1/2-y,1/2+z
_cell_length_a                   12.2198(14)
_cell_length_b                   15.2017(17)
_cell_length_c                   11.8679(14)
_cell_angle_alpha                90
_cell_angle_beta                 93.275(2)
_cell_angle_gamma                90
_cell_volume                     2201
loop_
_atom_site_label
_atom_site_type_symbol
_atom_site_fract_x
_atom_site_fract_y
_atom_site_fract_z
C1 C -0.20519(19) 0.07733(16) 1.22225(18)
H1 H -0.2364 0.0244 1.2483
C2 C -0.09980(19) 0.16986(15) 1.14045(17)
C3 C -0.1768(2) 0.21751(16) 1.19282(18)
H2 H -0.1836 0.2798 1.1938
C4 C -0.00769(13) 0.20037(11) 1.07279(12)
H3 H 0.0519 0.1562 1.0791
H4 H 0.0215 0.2562 1.1053
C5 C -0.04080(13) 0.21504(11) 0.94695(12)
H5 H -0.0944 0.2647 0.9393
C6 C 0.0630(2) 0.23949(16) 0.88762(18)
N1 N -0.11875(16) 0.08094(13) 1.15966(15)
N2 N -0.24276(17) 0.15775(13) 1.24389(15)
H6 H -0.2994 0.1703 1.2836
N3 N -0.09098(16) 0.13481(13) 0.89628(15)
H7 H -0.1217 0.1487 0.8259
H8 H -0.1468 0.1170 0.9399
O1 O 0.11774(14) 0.17954(12) 0.84405(13)
O2 O 0.08863(16) 0.31959(12) 0.88810(14)
Ag1 Ag -0.019740(14) -0.026640(11) 1.120540(13)
N3D N 0.09098(16) -0.13481(13) 1.10372(15)
H7D H 0.1217 -0.1487 1.1741
H8D H 0.1468 -0.1170 1.0601
O1D O -0.11774(14) -0.17954(12) 1.15595(13)
Ag1D Ag 0.019740(14) 0.026640(11) 0.879460(13)
Ag1A Ag 0.019740(14) -0.026640(11) 1.379460(13)
O3 O 0.30338(19) 0.09261(14) 0.93671(17)
H9 H 0.256(3) 0.122(2) 0.903(3)
H10 H 0.336(3) 0.124(2) 0.980(3)
O4 O 0.30585(18) -0.06885(16) 1.0583(2)
H11 H 0.298(3) -0.0245(16) 1.021(3)
H12 H 0.3664(19) -0.066(3) 1.087(3)
O5 O 0.5116(3) 0.0077(2) 1.1414(3)
O6? O 0.5051(3) -0.0932(3) 1.1708(3)
loop_
_geom_bond_atom_site_label_1
_geom_bond_atom_site_label_2
_geom_bond_site_symmetry_1
_geom_bond_site_symmetry_2
C1 H1 1_555 1_555
C2 C3 1_555 1_555
C3 H2 1_555 1_555
C4 C2 1_555 1_555
H3 C4 1_555 1_555
H4 C4 1_555 1_555
C5 C4 1_555 1_555
H5 C5 1_555 1_555
C6 C5 1_555 1_555
N1 C1 1_555 1_555
N2 C1 1_555 1_555
H6 N2 1_555 1_555
N3 C5 1_555 1_555
H7 N3 1_555 1_555
H8 N3 1_555 1_555
O1 C6 1_555 1_555
O2 C6 1_555 1_555
O3 H9 1_555 1_555
O4 H11 1_555 1_555
Ag1 N1 1_555 1_555
H10 O3 1_555 1_555
H12 O4 1_555 1_555
N3D Ag1 1_555 1_555
H7D N3D 1_555 1_555
H8D N3D 1_555 1_555
O1D Ag1 1_555 1_555
Ag1D N3 1_555 1_555
Ag1A Ag1 1_555 1_555
C2 N1 1_555 1_555
C3 N2 1_555 1_555
O1 Ag1D 1_555 1_555
Ag1 Ag1D 1_555 1_555

#END
