
#######################################################################
#
#                 Cambridge Crystallographic Data Centre
#                                CCDC 
#
#######################################################################
#
# If this CIF has been generated from an entry in the Cambridge 
# Structural Database, then it will include bibliographic, chemical, 
# crystal, experimental, refinement or atomic coordinate data resulting 
# from the CCDC's data processing and validation procedures.
#
#######################################################################

data_UMOVAU
_symmetry_cell_setting           monoclinic
_symmetry_space_group_name_H-M   'P 21/c'
_symmetry_Int_Tables_number      14
_space_group_name_Hall           '-P 2ybc'
loop_
_symmetry_equiv_pos_site_id
_symmetry_equiv_pos_as_xyz
1 x,y,z
2 -x,1/2+y,1/2-z
3 -x,-y,-z
4 x,1/2-y,1/2+z
_cell_length_a                   9.5088(7)
_cell_length_b                   18.4349(13)
_cell_length_c                   6.8155(5)
_cell_angle_alpha                90
_cell_angle_beta                 90.643(1)
_cell_angle_gamma                90
_cell_volume                     1194.64
loop_
_atom_site_label
_atom_site_type_symbol
_atom_site_fract_x
_atom_site_fract_y
_atom_site_fract_z
Cu1 Cu 0.88840(3) 0.682035(14) 0.18121(4)
Cl1 Cl 0.84485(5) 0.79303(3) 0.06736(8)
N1 N 0.79820(18) 0.54397(9) 0.2254(3)
O1 O 0.92258(15) 0.57984(8) 0.2076(2)
C1 C 0.8023(2) 0.47006(11) 0.2600(3)
C2 C 0.9433(2) 0.43604(13) 0.2675(4)
H1 H 0.931(3) 0.3850(15) 0.276(4)
H2 H 0.990(3) 0.4443(15) 0.141(5)
H3 H 1.002(3) 0.4543(15) 0.378(4)
N2 N 0.68862(18) 0.43233(10) 0.2825(3)
O2 O 0.68808(15) 0.65012(8) 0.1697(2)
C3 C 0.5608(2) 0.46723(12) 0.2657(3)
C4 C 0.4372(2) 0.42648(12) 0.2891(3)
H4 H 0.446(3) 0.3791(15) 0.319(4)
C5 C 0.3088(2) 0.45922(12) 0.2688(3)
H5 H 0.227(3) 0.4327(15) 0.282(4)
C6 C 0.2976(2) 0.53374(12) 0.2256(3)
H6 H 0.213(3) 0.5534(13) 0.218(4)
C7 C 0.4169(2) 0.57488(12) 0.2038(3)
H7 H 0.410(3) 0.6222(15) 0.172(4)
C8 C 0.5499(2) 0.54231(12) 0.2239(3)
C9 C 0.6777(2) 0.58247(12) 0.2036(3)
O3 O 1.09403(18) 0.69415(9) 0.1904(3)
H8 H 1.138(3) 0.6911(15) 0.300(5)
H9 H 1.131(3) 0.7215(17) 0.145(4)
Cu1C Cu 0.88840(3) 0.817965(14) -0.31879(4)
Cl1C Cl 0.84485(5) 0.70697(3) 0.56736(8)
O4 O 0.74388(18) 0.29886(10) 0.4774(3)
H10 H 0.724(4) 0.3335(19) 0.423(5)
H11 H 0.678(3) 0.2839(16) 0.516(4)
O5 O 0.48618(19) 0.25385(11) 0.0931(3)
H12 H 0.445(3) 0.2777(18) 0.030(5)
H13 H 0.436(3) 0.2308(18) 0.142(5)
loop_
_geom_bond_atom_site_label_1
_geom_bond_atom_site_label_2
_geom_bond_site_symmetry_1
_geom_bond_site_symmetry_2
Cu1 Cl1 1_555 1_555
Cl1 Cu1C 1_555 1_555
N1 O1 1_555 1_555
O1 Cu1 1_555 1_555
C1 N1 1_555 1_555
C2 C1 1_555 1_555
H1 C2 1_555 1_555
H2 C2 1_555 1_555
H3 C2 1_555 1_555
N2 C1 1_555 1_555
O2 Cu1 1_555 1_555
C3 N2 1_555 1_555
C4 C3 1_555 1_555
H4 C4 1_555 1_555
C5 C4 1_555 1_555
H5 C5 1_555 1_555
C6 C5 1_555 1_555
H6 C6 1_555 1_555
C7 C6 1_555 1_555
H7 C7 1_555 1_555
C8 C3 1_555 1_555
C9 N1 1_555 1_555
O3 Cu1 1_555 1_555
H8 O3 1_555 1_555
H9 O3 1_555 1_555
O4 H10 1_555 1_555
H11 O4 1_555 1_555
O5 H12 1_555 1_555
H13 O5 1_555 1_555
Cl1C Cu1 1_555 1_555
O2 C9 1_555 1_555
C7 C8 1_555 1_555
C8 C9 1_555 1_555

#END
