
#######################################################################
#
#                 Cambridge Crystallographic Data Centre
#                                CCDC 
#
#######################################################################
#
# If this CIF has been generated from an entry in the Cambridge 
# Structural Database, then it will include bibliographic, chemical, 
# crystal, experimental, refinement or atomic coordinate data resulting 
# from the CCDC's data processing and validation procedures.
#
#######################################################################

data_UMOWEZ
_symmetry_cell_setting           triclinic
_symmetry_space_group_name_H-M   'P -1'
_symmetry_Int_Tables_number      2
_space_group_name_Hall           '-P 1'
loop_
_symmetry_equiv_pos_site_id
_symmetry_equiv_pos_as_xyz
1 x,y,z
2 -x,-y,-z
_cell_length_a                   7.8718(8)
_cell_length_b                   9.7370(10)
_cell_length_c                   10.0401(11)
_cell_angle_alpha                73.4080(10)
_cell_angle_beta                 78.1300(10)
_cell_angle_gamma                81.3490(10)
_cell_volume                     718.282
loop_
_atom_site_label
_atom_site_type_symbol
_atom_site_fract_x
_atom_site_fract_y
_atom_site_fract_z
Cu1 Cu 0.55056(5) 0.84666(4) -0.15730(3)
O1 O 0.6006(3) 0.7629(2) 0.0370(2)
O2 O 0.6414(3) 0.9437(2) 0.1194(2)
O3 O 0.5611(3) 0.8295(2) 0.6493(2)
O4 O 0.6748(5) 0.6170(3) 0.7617(3)
N1 N 0.3286(4) 0.7545(3) -0.0936(3)
N2 N 0.0530(5) 0.7039(4) -0.0694(4)
N3 N 0.7366(4) 0.9787(3) -0.2313(3)
N4 N 0.9304(5) 1.1305(4) -0.3666(4)
C1 C 0.6279(4) 0.8144(3) 0.1328(3)
C2 C 0.6534(4) 0.7079(3) 0.2702(3)
C3 C 0.7051(5) 0.5640(3) 0.2746(3)
H1 H 0.7156 0.5324 0.1939
C4 C 0.7410(6) 0.4672(4) 0.3996(4)
H2 H 0.7786 0.3714 0.4021
C5 C 0.7203(5) 0.5142(4) 0.5206(4)
H3 H 0.7461 0.4497 0.6038
C6 C 0.6618(4) 0.6558(3) 0.5190(3)
C7 C 0.6309(4) 0.7540(3) 0.3925(3)
H4 H 0.5954 0.8502 0.3899
C8 C 0.6317(4) 0.7027(4) 0.6529(3)
C9 C 0.1827(5) 0.7912(4) -0.1485(4)
H5 H 0.1693 0.8653 -0.2291
C10 C 0.1305(5) 0.6099(4) 0.0378(4)
H6 H 0.0789 0.5368 0.1096
C11 C 0.2932(4) 0.6437(3) 0.0191(3)
H7 H 0.3729 0.5958 0.0778
C12 C 0.8141(5) 1.0326(4) -0.3646(4)
H8 H 0.7943 1.0091 -0.4432
C13 C 0.9175(5) 1.1311(4) -0.2296(4)
H9 H 0.9788 1.1850 -0.1961
C14 C 0.8013(4) 1.0405(3) -0.1516(3)
H10 H 0.7692 1.0226 -0.0542
Cu1A Cu 0.44944(5) 1.15334(4) 0.15730(3)
Cu1_2 Cu 0.55056(5) 0.84666(4) 0.84270(3)
O2A O 0.3586(3) 1.0563(2) -0.1194(2)
O3_2 O 0.5611(3) 0.8295(2) -0.3507(2)
loop_
_geom_bond_atom_site_label_1
_geom_bond_atom_site_label_2
_geom_bond_site_symmetry_1
_geom_bond_site_symmetry_2
Cu1 O1 1_555 1_555
O1 C1 1_555 1_555
O2 C1 1_555 1_555
O3 C8 1_555 1_555
O4 C8 1_555 1_555
N1 Cu1 1_555 1_555
N2 C9 1_555 1_555
N3 Cu1 1_555 1_555
N4 C12 1_555 1_555
C1 C2 1_555 1_555
C2 C3 1_555 1_555
C3 H1 1_555 1_555
C4 C3 1_555 1_555
H2 C4 1_555 1_555
C5 C4 1_555 1_555
H3 C5 1_555 1_555
C6 C5 1_555 1_555
C7 C2 1_555 1_555
H4 C7 1_555 1_555
C8 C6 1_555 1_555
C9 N1 1_555 1_555
H5 C9 1_555 1_555
C10 N2 1_555 1_555
H6 C10 1_555 1_555
C11 N1 1_555 1_555
H7 C11 1_555 1_555
C12 N3 1_555 1_555
H8 C12 1_555 1_555
C13 N4 1_555 1_555
H9 C13 1_555 1_555
C14 N3 1_555 1_555
H10 C14 1_555 1_555
Cu1A O2 1_555 1_555
Cu1_2 O3 1_555 1_555
O2A Cu1 1_555 1_555
O3_2 Cu1 1_555 1_555
C6 C7 1_555 1_555
C10 C11 1_555 1_555
C13 C14 1_555 1_555

#END
