
#######################################################################
#
#                 Cambridge Crystallographic Data Centre
#                                CCDC 
#
#######################################################################
#
# If this CIF has been generated from an entry in the Cambridge 
# Structural Database, then it will include bibliographic, chemical, 
# crystal, experimental, refinement or atomic coordinate data resulting 
# from the CCDC's data processing and validation procedures.
#
#######################################################################

data_UMOWAV
_symmetry_cell_setting           triclinic
_symmetry_space_group_name_H-M   'P -1'
_symmetry_Int_Tables_number      2
_space_group_name_Hall           '-P 1'
loop_
_symmetry_equiv_pos_site_id
_symmetry_equiv_pos_as_xyz
1 x,y,z
2 -x,-y,-z
_cell_length_a                   8.2552(11)
_cell_length_b                   10.4477(14)
_cell_length_c                   11.0881(15)
_cell_angle_alpha                111.299(2)
_cell_angle_beta                 91.368(2)
_cell_angle_gamma                91.702(2)
_cell_volume                     889.995
loop_
_atom_site_label
_atom_site_type_symbol
_atom_site_fract_x
_atom_site_fract_y
_atom_site_fract_z
Cu1 Cu 0.0000 0.5000 0.5000
Cu2 Cu 0.23348(4) 0.26175(4) 0.50441(3)
O1 O 0.0150(3) 0.5332(3) 0.6855(2)
O2 O 0.0353(3) 0.3105(2) 0.6524(2)
O3 O 0.2148(3) 0.4338(2) 0.4773(2)
O4 O 0.1134(3) 0.1517(3) 0.3451(2)
O5 O 0.3034(3) 0.2185(2) 0.2386(2)
N1 N 0.3999(3) 0.3477(3) 0.6520(3)
N2 N 0.2817(3) 0.0917(3) 0.5449(2)
C1 C 0.4586(4) 0.4762(3) 0.7013(3)
H1 H 0.4288 0.5371 0.6617
C2 C 0.5634(5) 0.5239(4) 0.8104(4)
H2 H 0.6033 0.6147 0.8417
C3 C 0.6071(4) 0.4363(4) 0.8710(3)
H3 H 0.6755 0.4673 0.9446
C4 C 0.5473(4) 0.2984(3) 0.8207(3)
C5 C 0.5862(4) 0.1982(4) 0.8755(3)
H4 H 0.6526 0.2234 0.9500
C6 C 0.5270(4) 0.0659(4) 0.8194(3)
H5 H 0.5538 0.0023 0.8566
C7 C 0.4250(4) 0.0226(3) 0.7048(3)
C8 C 0.3640(4) -0.1125(3) 0.6400(4)
H6 H 0.3913 -0.1818 0.6700
C9 C 0.2638(4) -0.1418(4) 0.5325(4)
H7 H 0.2224 -0.2310 0.4893
C10 C 0.2239(4) -0.0374(3) 0.4877(3)
H8 H 0.1543 -0.0588 0.4153
C11 C 0.3807(3) 0.1212(3) 0.6521(3)
C12 C 0.4440(3) 0.2600(3) 0.7106(3)
C13 C 0.0227(3) 0.4330(3) 0.7237(3)
C14 C 0.0139(3) 0.4684(3) 0.8673(2)
C15 C 0.0175(4) 0.3639(3) 0.9174(3)
C16 C -0.0027(4) 0.6043(3) 0.9497(3)
C17 C -0.0640(4) 0.0065(3) 0.1163(3)
C18 C 0.1484(4) 0.0661(3) -0.0012(3)
C19 C 0.0845(4) 0.0728(3) 0.1167(3)
C20 C 0.1769(4) 0.1549(3) 0.2413(3)
Cu1_2 Cu 0.0000 0.5000 1.5000
Cu2A Cu -0.23348(4) 0.73825(4) 1.49559(3)
Cu2A_2 Cu -0.23348(4) -0.26175(4) -0.50441(3)
Cu2A_3 Cu -0.23348(4) 0.73825(4) 0.49559(3)
O1A O -0.0150(3) 0.4668(3) 1.3145(2)
O1A_2 O -0.0150(3) 0.4668(3) 0.3145(2)
O2A O -0.0353(3) 0.6895(2) 1.3476(2)
O3A O -0.2148(3) 0.5662(2) 0.5227(2)
O3A_2 O -0.2148(3) 0.5662(2) 1.5227(2)
O4A O -0.1134(3) -0.1517(3) -0.3451(2)
O4A_2 O -0.1134(3) 0.8483(3) 1.6549(2)
O5A O -0.3034(3) -0.2185(2) -0.2386(2)
N1A N -0.3999(3) 0.6523(3) 1.3480(3)
N2A N -0.2817(3) 0.9083(3) 1.4551(2)
C1A C -0.4586(4) 0.5238(3) 1.2987(3)
H1A H -0.4288 0.4629 1.3383
C2A C -0.5634(5) 0.4761(4) 1.1896(4)
H2A H -0.6033 0.3853 1.1583
C3A C -0.6071(4) 0.5637(4) 1.1290(3)
H3A H -0.6755 0.5327 1.0554
C4A C -0.5473(4) 0.7016(3) 1.1793(3)
C5A C -0.5862(4) 0.8018(4) 1.1245(3)
H4A H -0.6526 0.7766 1.0500
C6A C -0.5270(4) 0.9341(4) 1.1806(3)
H5A H -0.5538 0.9977 1.1434
C7A C -0.4250(4) 0.9774(3) 1.2952(3)
C8A C -0.3640(4) 1.1125(3) 1.3600(4)
H6A H -0.3913 1.1818 1.3300
C9A C -0.2638(4) 1.1418(4) 1.4675(4)
H7A H -0.2224 1.2310 1.5107
C10A C -0.2239(4) 1.0374(3) 1.5123(3)
H8A H -0.1543 1.0588 1.5847
C11A C -0.3807(3) 0.8788(3) 1.3479(3)
C12A C -0.4440(3) 0.7400(3) 1.2894(3)
C13A C -0.0227(3) 0.5670(3) 1.2763(3)
C14A C -0.0139(3) 0.5316(3) 1.1327(2)
C15A C -0.0175(4) 0.6361(3) 1.0826(3)
C16A C 0.0027(4) 0.3957(3) 1.0503(3)
C17A C 0.0640(4) -0.0065(3) -0.1163(3)
C18A C -0.1484(4) -0.0661(3) 0.0012(3)
C19A C -0.0845(4) -0.0728(3) -0.1167(3)
C20A C -0.1769(4) -0.1549(3) -0.2413(3)
loop_
_geom_bond_atom_site_label_1
_geom_bond_atom_site_label_2
_geom_bond_site_symmetry_1
_geom_bond_site_symmetry_2
Cu1 O1 1_555 1_555
Cu2 O2 1_555 1_555
O1 C13 1_555 1_555
O2 C13 1_555 1_555
O3 Cu1 1_555 1_555
O4 Cu2 1_555 1_555
O5 C20 1_555 1_555
N1 Cu2 1_555 1_555
N2 Cu2 1_555 1_555
C1 N1 1_555 1_555
H1 C1 1_555 1_555
C2 C1 1_555 1_555
H2 C2 1_555 1_555
C3 C2 1_555 1_555
H3 C3 1_555 1_555
C4 C3 1_555 1_555
C5 C4 1_555 1_555
H4 C5 1_555 1_555
C6 C5 1_555 1_555
H5 C6 1_555 1_555
C7 C6 1_555 1_555
C8 C7 1_555 1_555
H6 C8 1_555 1_555
C9 C8 1_555 1_555
H7 C9 1_555 1_555
C10 N2 1_555 1_555
H8 C10 1_555 1_555
C11 N2 1_555 1_555
C12 N1 1_555 1_555
C13 C14 1_555 1_555
C14 C15 1_555 1_555
C15 C16A 1_555 1_555
C16 C14 1_555 1_555
C17 C19 1_555 1_555
C18 C19 1_555 1_555
C19 C20 1_555 1_555
C20 O4 1_555 1_555
Cu1_2 O1A 1_555 1_555
Cu2A O2A 1_555 1_555
Cu2A_2 O4A 1_555 1_555
Cu2A_3 O3A 1_555 1_555
O1A C13A 1_555 1_555
O1A_2 Cu1 1_555 1_555
O2A C13A 1_555 1_555
O3A Cu1 1_555 1_555
O3A_2 Cu1_2 1_555 1_555
O4A C20A 1_555 1_555
O4A_2 Cu2A 1_555 1_555
O5A C20A 1_555 1_555
N1A Cu2A 1_555 1_555
N2A Cu2A 1_555 1_555
C1A N1A 1_555 1_555
H1A C1A 1_555 1_555
C2A C1A 1_555 1_555
H2A C2A 1_555 1_555
C3A C2A 1_555 1_555
H3A C3A 1_555 1_555
C4A C3A 1_555 1_555
C5A C4A 1_555 1_555
H4A C5A 1_555 1_555
C6A C5A 1_555 1_555
H5A C6A 1_555 1_555
C7A C6A 1_555 1_555
C8A C7A 1_555 1_555
H6A C8A 1_555 1_555
C9A C8A 1_555 1_555
H7A C9A 1_555 1_555
C10A N2A 1_555 1_555
H8A C10A 1_555 1_555
C11A N2A 1_555 1_555
C12A N1A 1_555 1_555
C13A C14A 1_555 1_555
C14A C15A 1_555 1_555
C15A C16 1_555 1_555
C16A C14A 1_555 1_555
C17A C18 1_555 1_555
C18A C17 1_555 1_555
C19A C17A 1_555 1_555
C20A C19A 1_555 1_555
Cu2 O3 1_555 1_555
C4 C12 1_555 1_555
C7 C11 1_555 1_555
C9 C10 1_555 1_555
C11 C12 1_555 1_555
Cu2A O3A_2 1_555 1_555
C4A C12A 1_555 1_555
C7A C11A 1_555 1_555
C9A C10A 1_555 1_555
C11A C12A 1_555 1_555
C18A C19A 1_555 1_555

#END
