
#######################################################################
#
#                 Cambridge Crystallographic Data Centre
#                                CCDC 
#
#######################################################################
#
# If this CIF has been generated from an entry in the Cambridge 
# Structural Database, then it will include bibliographic, chemical, 
# crystal, experimental, refinement or atomic coordinate data resulting 
# from the CCDC's data processing and validation procedures.
#
#######################################################################

data_UMOXOK
_symmetry_cell_setting           triclinic
_symmetry_space_group_name_H-M   'P -1'
_symmetry_Int_Tables_number      2
_space_group_name_Hall           '-P 1'
loop_
_symmetry_equiv_pos_site_id
_symmetry_equiv_pos_as_xyz
1 x,y,z
2 -x,-y,-z
_cell_length_a                   9.4660(16)
_cell_length_b                   9.738(2)
_cell_length_c                   10.568(2)
_cell_angle_alpha                80.144(8)
_cell_angle_beta                 87.079(6)
_cell_angle_gamma                75.474(8)
_cell_volume                     929.066
loop_
_atom_site_label
_atom_site_type_symbol
_atom_site_fract_x
_atom_site_fract_y
_atom_site_fract_z
Fe1 Fe 0.69947(6) 0.27565(6) 0.17587(5)
N1 N 0.8516(3) 0.0722(3) 0.1769(3)
N2 N 0.6194(4) 0.1825(3) 0.0342(3)
O1 O 0.7924(3) 0.3801(3) 0.0255(2)
H1 H 0.7812 0.3666 -0.0504
H2 H 0.8431 0.4371 0.0381
O2 O 0.5278(3) 0.4368(3) 0.1620(2)
O3 O 0.2984(3) 0.5237(3) 0.2118(2)
O4 O 0.6035(3) 0.1847(2) 0.3245(2)
O5 O 0.6316(3) 0.1113(3) 0.5326(2)
O6 O 0.8286(3) 0.3310(2) 0.2883(2)
O7 O 0.9280(4) 0.4911(3) 0.1672(3)
O8 O 1.1592(3) 0.2080(3) 0.3139(3)
O9 O 1.2601(3) 0.1563(3) 0.5081(3)
H3 H 1.2892 0.0755 0.4894
C1 C 0.4257(4) 0.4754(4) 0.2422(3)
C2 C 0.4674(4) 0.4769(4) 0.3786(3)
C3 C 0.4227(4) 0.6110(4) 0.4158(3)
H4 H 0.3688 0.6870 0.3583
C4 C 0.5456(4) 0.3629(4) 0.4656(3)
C5 C 0.5988(4) 0.2074(4) 0.4416(3)
C6 C 0.9040(4) 0.4228(4) 0.2710(4)
C7 C 0.9586(4) 0.4579(4) 0.3908(3)
C8 C 0.8791(4) 0.5815(4) 0.4323(3)
H5 H 0.7977 0.6370 0.3860
C9 C 1.0828(4) 0.3744(4) 0.4589(3)
C10 C 1.1711(4) 0.2397(4) 0.4174(4)
C11 C 0.9528(4) 0.0154(4) 0.2676(4)
H6 H 0.9662 0.0717 0.3267
C12 C 1.0378(5) -0.1228(5) 0.2769(5)
H7 H 1.1094 -0.1588 0.3393
C13 C 1.0146(6) -0.2054(5) 0.1930(6)
H8 H 1.0699 -0.2997 0.1984
C14 C 0.9114(6) -0.1512(5) 0.1009(5)
H9 H 0.8965 -0.2079 0.0428
C15 C 0.8278(5) -0.0101(4) 0.0941(4)
C16 C 0.7073(5) 0.0587(5) 0.0036(4)
C17 C 0.6756(6) 0.0010(6) -0.1000(4)
H10 H 0.7354 -0.0842 -0.1198
C18 C 0.5538(8) 0.0722(7) -0.1732(4)
H11 H 0.5322 0.0364 -0.2440
C19 C 0.4665(6) 0.1940(6) -0.1409(4)
H12 H 0.3828 0.2410 -0.1880
C20 C 0.5018(5) 0.2488(5) -0.0376(4)
H13 H 0.4422 0.3340 -0.0175
Fe1A Fe 0.30053(6) 0.72435(6) 0.82413(5)
Fe1A_2 Fe 1.30053(6) 0.72435(6) 0.82413(5)
N1A N 0.1484(3) 0.9278(3) 0.8231(3)
N2A N 0.3806(4) 0.8175(3) 0.9658(3)
O1A O 0.2076(3) 0.6199(3) 0.9745(2)
H1A H 0.2188 0.6334 1.0504
H2A H 0.1569 0.5629 0.9619
O2A O 0.4722(3) 0.5632(3) 0.8380(2)
O3A O 0.7016(3) 0.4763(3) 0.7882(2)
O4A O 0.3965(3) 0.8153(2) 0.6755(2)
O5A O 0.3684(3) 0.8887(3) 0.4674(2)
O6A O 1.1714(3) 0.6690(2) 0.7117(2)
O6A_2 O 0.1714(3) 0.6690(2) 0.7117(2)
O7A O 1.0720(4) 0.5089(3) 0.8328(3)
O8A O 0.8408(3) 0.7920(3) 0.6861(3)
O9A O 0.7399(3) 0.8437(3) 0.4919(3)
H3A H 0.7108 0.9245 0.5106
C1A C 0.5743(4) 0.5246(4) 0.7578(3)
C2A C 0.5326(4) 0.5231(4) 0.6214(3)
C3A C 0.5773(4) 0.3890(4) 0.5842(3)
H4A H 0.6312 0.3130 0.6417
C4A C 0.4544(4) 0.6371(4) 0.5344(3)
C5A C 0.4012(4) 0.7926(4) 0.5584(3)
C6A C 1.0960(4) 0.5772(4) 0.7290(4)
C7A C 1.0414(4) 0.5421(4) 0.6092(3)
C8A C 1.1209(4) 0.4185(4) 0.5677(3)
H5A H 1.2023 0.3630 0.6140
C9A C 0.9172(4) 0.6256(4) 0.5411(3)
C10A C 0.8289(4) 0.7603(4) 0.5826(4)
C11A C 0.0472(4) 0.9846(4) 0.7324(4)
H6A H 0.0338 0.9283 0.6733
C12A C -0.0378(5) 1.1228(5) 0.7231(5)
H7A H -0.1094 1.1588 0.6607
C13A C -0.0146(6) 1.2054(5) 0.8070(6)
H8A H -0.0699 1.2997 0.8016
C14A C 0.0886(6) 1.1512(5) 0.8991(5)
H9A H 0.1035 1.2079 0.9572
C15A C 0.1722(5) 1.0101(4) 0.9059(4)
C16A C 0.2927(5) 0.9413(5) 0.9964(4)
C17A C 0.3244(6) 0.9990(6) 1.1000(4)
H10A H 0.2646 1.0842 1.1198
C18A C 0.4462(8) 0.9278(7) 1.1732(4)
H11A H 0.4678 0.9636 1.2440
C19A C 0.5335(6) 0.8060(6) 1.1409(4)
H12A H 0.6172 0.7590 1.1880
C20A C 0.4982(5) 0.7512(5) 1.0376(4)
H13A H 0.5578 0.6660 1.0175
loop_
_geom_bond_atom_site_label_1
_geom_bond_atom_site_label_2
_geom_bond_site_symmetry_1
_geom_bond_site_symmetry_2
Fe1 N1 1_555 1_555
N1 C11 1_555 1_555
N2 Fe1 1_555 1_555
O1 Fe1 1_555 1_555
H1 O1 1_555 1_555
H2 O1 1_555 1_555
O2 Fe1 1_555 1_555
O3 C1 1_555 1_555
O4 Fe1 1_555 1_555
O5 C5 1_555 1_555
O6 Fe1 1_555 1_555
O7 C6 1_555 1_555
O8 C10 1_555 1_555
O9 H3 1_555 1_555
C1 O2 1_555 1_555
C2 C1 1_555 1_555
C3 C2 1_555 1_555
H4 C3 1_555 1_555
C4 C2 1_555 1_555
C5 O4 1_555 1_555
C6 O6 1_555 1_555
C7 C6 1_555 1_555
C8 C7 1_555 1_555
H5 C8 1_555 1_555
C9 C7 1_555 1_555
C10 O9 1_555 1_555
C11 H6 1_555 1_555
C12 C11 1_555 1_555
H7 C12 1_555 1_555
C13 C12 1_555 1_555
H8 C13 1_555 1_555
C14 C13 1_555 1_555
H9 C14 1_555 1_555
C15 N1 1_555 1_555
C16 N2 1_555 1_555
C17 C16 1_555 1_555
H10 C17 1_555 1_555
C18 C17 1_555 1_555
H11 C18 1_555 1_555
C19 C18 1_555 1_555
H12 C19 1_555 1_555
C20 N2 1_555 1_555
H13 C20 1_555 1_555
Fe1A N1A 1_555 1_555
Fe1A_2 O6A 1_555 1_555
N1A C11A 1_555 1_555
N2A Fe1A 1_555 1_555
O1A Fe1A 1_555 1_555
H1A O1A 1_555 1_555
H2A O1A 1_555 1_555
O2A Fe1A 1_555 1_555
O3A C1A 1_555 1_555
O4A Fe1A 1_555 1_555
O5A C5A 1_555 1_555
O6A C6A 1_555 1_555
O6A_2 Fe1A 1_555 1_555
O7A C6A 1_555 1_555
O8A C10A 1_555 1_555
O9A H3A 1_555 1_555
C1A O2A 1_555 1_555
C2A C1A 1_555 1_555
C3A C4 1_555 1_555
H4A C3A 1_555 1_555
C4A C3 1_555 1_555
C5A O4A 1_555 1_555
C6A C7A 1_555 1_555
C7A C8A 1_555 1_555
C8A C9 1_555 1_555
H5A C8A 1_555 1_555
C9A C8 1_555 1_555
C10A O9A 1_555 1_555
C11A H6A 1_555 1_555
C12A C11A 1_555 1_555
H7A C12A 1_555 1_555
C13A C12A 1_555 1_555
H8A C13A 1_555 1_555
C14A C13A 1_555 1_555
H9A C14A 1_555 1_555
C15A N1A 1_555 1_555
C16A N2A 1_555 1_555
C17A C16A 1_555 1_555
H10A C17A 1_555 1_555
C18A C17A 1_555 1_555
H11A C18A 1_555 1_555
C19A C18A 1_555 1_555
H12A C19A 1_555 1_555
C20A N2A 1_555 1_555
H13A C20A 1_555 1_555
C4 C5 1_555 1_555
C9 C10 1_555 1_555
C14 C15 1_555 1_555
C15 C16 1_555 1_555
C19 C20 1_555 1_555
C2A C3A 1_555 1_555
C2A C4A 1_555 1_555
C4A C5A 1_555 1_555
C7A C9A 1_555 1_555
C9A C10A 1_555 1_555
C14A C15A 1_555 1_555
C15A C16A 1_555 1_555
C19A C20A 1_555 1_555

#END
