
#######################################################################
#
#                 Cambridge Crystallographic Data Centre
#                                CCDC 
#
#######################################################################
#
# If this CIF has been generated from an entry in the Cambridge 
# Structural Database, then it will include bibliographic, chemical, 
# crystal, experimental, refinement or atomic coordinate data resulting 
# from the CCDC's data processing and validation procedures.
#
#######################################################################

data_UMOYEB
_symmetry_cell_setting           triclinic
_symmetry_space_group_name_H-M   'P -1'
_symmetry_Int_Tables_number      2
_space_group_name_Hall           '-P 1'
loop_
_symmetry_equiv_pos_site_id
_symmetry_equiv_pos_as_xyz
1 x,y,z
2 -x,-y,-z
_cell_length_a                   8.8466(3)
_cell_length_b                   11.3244(5)
_cell_length_c                   11.4821(4)
_cell_angle_alpha                102.232(3)
_cell_angle_beta                 91.490(3)
_cell_angle_gamma                106.382(3)
_cell_volume                     1074.03
loop_
_atom_site_label
_atom_site_type_symbol
_atom_site_fract_x
_atom_site_fract_y
_atom_site_fract_z
C1 C 0.2027(2) -0.45421(19) -0.10845(17)
C2 C 0.0925(2) -0.37987(18) -0.05636(17)
C3 C -0.0449(2) -0.38128(19) -0.11934(17)
C4 C -0.1046(2) -0.46069(19) -0.24513(17)
C5 C -0.1383(2) -0.3115(2) -0.05980(18)
H1 H -0.2308 -0.3100 -0.0990
C6 C -0.0937(3) -0.2442(2) 0.05783(18)
H2 H -0.1549 -0.1969 0.0980
C7 C 0.0440(2) -0.24929(19) 0.11398(18)
H3 H 0.0737 -0.2055 0.1932
C8 C 0.4822(2) -0.0848(2) 0.28383(18)
C9 C 0.5611(2) -0.07538(19) 0.17042(17)
C10 C 0.6794(2) 0.03176(19) 0.15996(18)
C11 C 0.7482(2) 0.1457(2) 0.26359(18)
C12 C 0.7384(2) 0.0322(2) 0.04818(18)
H4 H 0.8194 0.1011 0.0378
C13 C 0.6760(3) -0.0700(2) -0.04670(19)
H5 H 0.7124 -0.0696 -0.1219
C14 C 0.5581(2) -0.1735(2) -0.02852(18)
H6 H 0.5158 -0.2420 -0.0927
N1 N 0.1358(2) -0.31488(16) 0.05831(14)
N2 N 0.5037(2) -0.17735(16) 0.07876(14)
O1 O 0.31871(16) -0.44973(13) -0.03679(12)
O2 O 0.17474(17) -0.51477(13) -0.21354(12)
O3 O 0.52234(18) -0.41021(15) 0.17894(13)
H7 H 0.5667 -0.4553 0.1245
H8 H 0.5912 -0.3777 0.2440
O4 O -0.05583(17) -0.41779(13) -0.33284(12)
O5 O 0.43312(17) -0.25787(13) -0.50426(12)
H9 H 0.4079 -0.2392 -0.5717
H10 H 0.4439 -0.1912 -0.4445
O6 O -0.21037(17) -0.56418(14) -0.25140(12)
O7 O 0.56708(17) -0.43263(14) -0.36726(13)
H11 H 0.5771 -0.4790 -0.3153
H12 H 0.6268 -0.3529 -0.3353
O8 O 0.38526(17) -0.19246(13) 0.28476(12)
O9 O 0.30705(17) -0.68823(14) -0.39698(13)
H13 H 0.3800 -0.7143 -0.4396
H14 H 0.2369 -0.7561 -0.3827
O10 O 0.50958(19) 0.00930(14) 0.36738(13)
O11 O -0.05379(17) -0.67278(14) -0.46491(13)
H15 H -0.1125 -0.6952 -0.4061
H16 H -0.0771 -0.7424 -0.5260
O12 O 0.70150(17) 0.23977(13) 0.26763(13)
O14 O 0.85395(18) 0.13497(14) 0.33387(13)
Co1 Co 0.34275(3) -0.33740(3) 0.13334(2)
Ba1 Ba 0.233160(14) -0.469840(11) -0.435300(10)
O4A O 0.05583(17) -0.58221(13) -0.66716(12)
O6A O 0.21037(17) -0.43582(14) 0.25140(12)
O7A O 0.43292(17) -0.56737(14) -0.63274(13)
H11A H 0.4229 -0.5210 -0.6847
H12A H 0.3732 -0.6471 -0.6647
O11A O 0.05379(17) -0.32722(14) -0.53509(13)
H15A H 0.1125 -0.3048 -0.5939
H16A H 0.0771 -0.2576 -0.4740
O12A O 0.29850(17) -0.23977(13) -0.26763(13)
Co1A Co -0.34275(3) -0.66260(3) -0.13334(2)
Ba1A Ba -0.233160(14) -0.530160(11) -0.564700(10)
Ba1A_2 Ba 0.766840(14) -0.530160(11) -0.564700(10)
Ba1A_3 Ba 0.766840(14) 0.469840(11) 0.435300(10)
O13 O 0.1087(2) -0.90942(15) -0.34466(15)
H17 H 0.0078 -0.9240 -0.3717
H18 H 0.1193 -0.9713 -0.3106
O15 O 0.2089(2) -0.99192(16) -0.57304(15)
H19 H 0.3004 -1.0122 -0.5811
H20 H 0.1986 -0.9743 -0.4944
O16 O 0.20435(18) -0.79857(15) -0.69440(14)
H21 H 0.1094 -0.7876 -0.6900
H22 H 0.2126 -0.8544 -0.6529
loop_
_geom_bond_atom_site_label_1
_geom_bond_atom_site_label_2
_geom_bond_site_symmetry_1
_geom_bond_site_symmetry_2
C1 C2 1_555 1_555
C2 C3 1_555 1_555
C3 C4 1_555 1_555
C4 O4 1_555 1_555
C5 C3 1_555 1_555
H1 C5 1_555 1_555
C6 C5 1_555 1_555
H2 C6 1_555 1_555
C7 C6 1_555 1_555
H3 C7 1_555 1_555
C8 C9 1_555 1_555
C9 C10 1_555 1_555
C10 C11 1_555 1_555
C11 O12 1_555 1_555
C12 C10 1_555 1_555
H4 C12 1_555 1_555
C13 C12 1_555 1_555
H5 C13 1_555 1_555
C14 C13 1_555 1_555
H6 C14 1_555 1_555
N1 C2 1_555 1_555
N2 C9 1_555 1_555
O1 C1 1_555 1_555
O2 C1 1_555 1_555
O3 H7 1_555 1_555
H8 O3 1_555 1_555
O4 Ba1 1_555 1_555
O5 H9 1_555 1_555
H10 O5 1_555 1_555
O6 C4 1_555 1_555
O7 H11 1_555 1_555
H12 O7 1_555 1_555
O8 C8 1_555 1_555
O9 H13 1_555 1_555
H14 O9 1_555 1_555
O10 C8 1_555 1_555
O11 H15 1_555 1_555
H16 O11 1_555 1_555
O12 Ba1A_3 1_555 1_555
O13 H17 1_555 1_555
H18 O13 1_555 1_555
O14 C11 1_555 1_555
O15 H19 1_555 1_555
H20 O15 1_555 1_555
O16 H21 1_555 1_555
H22 O16 1_555 1_555
Co1 N1 1_555 1_555
Ba1 O2 1_555 1_555
O4A Ba1 1_555 1_555
O6A Co1 1_555 1_555
O7A Ba1 1_555 1_555
H11A O7A 1_555 1_555
H12A O7A 1_555 1_555
O11A Ba1 1_555 1_555
H15A O11A 1_555 1_555
H16A O11A 1_555 1_555
O12A Ba1 1_555 1_555
Co1A O6 1_555 1_555
Ba1A O4 1_555 1_555
Ba1A_2 O7 1_555 1_555
C7 N1 1_555 1_555
C14 N2 1_555 1_555
N2 Co1 1_555 1_555
O1 Co1 1_555 1_555
O3 Co1 1_555 1_555
O5 Ba1 1_555 1_555
O7 Ba1 1_555 1_555
O8 Co1 1_555 1_555
O9 Ba1 1_555 1_555
O11 Ba1 1_555 1_555
O11 Ba1A 1_555 1_555
O4A Ba1A 1_555 1_555
O7A Ba1A_2 1_555 1_555
O11A Ba1A 1_555 1_555

#END
