
#######################################################################
#
#                 Cambridge Crystallographic Data Centre
#                                CCDC 
#
#######################################################################
#
# If this CIF has been generated from an entry in the Cambridge 
# Structural Database, then it will include bibliographic, chemical, 
# crystal, experimental, refinement or atomic coordinate data resulting 
# from the CCDC's data processing and validation procedures.
#
#######################################################################

data_UMUBIN
_symmetry_cell_setting           monoclinic
_symmetry_space_group_name_H-M   'P 2'
_symmetry_Int_Tables_number      3
_space_group_name_Hall           'P 2y'
loop_
_symmetry_equiv_pos_site_id
_symmetry_equiv_pos_as_xyz
1 x,y,z
2 -x,y,-z
_cell_length_a                   11.034(2)
_cell_length_b                   7.4640(15)
_cell_length_c                   21.093(4)
_cell_angle_alpha                90
_cell_angle_beta                 93.18(3)
_cell_angle_gamma                90
_cell_volume                     1734.5
loop_
_atom_site_label
_atom_site_type_symbol
_atom_site_fract_x
_atom_site_fract_y
_atom_site_fract_z
Mn1 Mn 0.0000 0.92924(18) 0.5000
Mn2 Mn 0.0000 1.2709(2) 0.0000
S1 S -0.6083(2) 0.5535(6) 0.19621(13)
S2 S 0.5053(3) 0.9748(6) 0.32256(16)
O1 O 0.0602(6) 1.6663(7) 0.2138(2)
O2 O -0.1824(6) 1.2994(7) 0.2988(2)
O3 O -0.0246(5) 1.2460(7) 0.1034(2)
O4 O -0.0821(5) 0.8829(7) 0.4061(2)
O5 O 0.1062(5) 1.1580(8) 0.4615(2)
O6 O -0.3185(5) 0.5468(8) 0.0498(3)
O7 O -0.2240(6) 0.8083(9) 0.0584(3)
O8 O 0.1969(7) 0.9010(8) 0.4569(3)
N1 N 0.0058(5) 1.3831(8) 0.1386(2)
N2 N 0.1402(5) 1.1699(8) 0.2829(3)
N3 N -0.3639(5) 0.9320(9) 0.1473(2)
H1 H -0.3914 1.0267 0.1282
N4 N 0.1362(6) 1.4874(7) 0.2933(3)
N5 N -0.1657(6) 0.6682(8) 0.3165(3)
H2 H -0.1827 0.5657 0.2997
H3 H -0.1267 0.6741 0.3529
N6 N -0.2620(6) 1.1205(8) 0.2209(3)
N7 N -0.2590(5) 0.8007(8) 0.2304(3)
N8 N 0.2368(5) 1.3054(8) 0.3683(2)
H4 H 0.2579 1.4016 0.3885
N9 N -0.1185(6) 1.0198(8) 0.3728(3)
N10 N 0.0507(7) 1.0336(8) 0.1965(3)
H5 H 0.0690 0.9323 0.2140
H6 H 0.0126 1.0366 0.1599
C1 C -0.1987(6) 0.8147(9) 0.2868(3)
C2 C 0.0813(7) 1.5146(9) 0.2336(3)
C3 C -0.1696(7) 0.9889(9) 0.3155(3)
C4 C -0.2936(6) 0.9496(10) 0.2007(3)
C5 C 0.1678(6) 1.3204(9) 0.3140(3)
C6 C -0.2031(7) 1.1471(9) 0.2801(3)
C7 C -0.3952(6) 0.7582(10) 0.1208(3)
H7 H -0.3886 0.6710 0.1555
C8 C -0.3070(7) 0.7014(10) 0.0717(4)
C9 C 0.2775(6) 1.1334(10) 0.3948(3)
H8 H 0.2791 1.0479 0.3595
C10 C 0.0809(7) 1.1831(9) 0.2258(3)
C11 C 0.0504(6) 1.3532(9) 0.1975(3)
C12 C -0.5282(6) 0.7591(14) 0.0946(3)
H9 H -0.5430 0.8686 0.0706
H10 H -0.5404 0.6594 0.0654
C13 C -0.2997(8) 1.2785(11) 0.1827(4)
H11 H -0.2693 1.3851 0.2035
H12 H -0.3867 1.2835 0.1784
H13 H -0.2676 1.2697 0.1415
C14 C 0.1715(8) 1.6506(10) 0.3311(4)
H14 H 0.1411 1.7554 0.3092
H15 H 0.2583 1.6572 0.3365
H16 H 0.1376 1.6438 0.3720
C15 C 0.1872(8) 1.0639(11) 0.4406(3)
C16 C 0.4060(6) 1.1467(12) 0.4247(4)
H17 H 0.4112 1.2501 0.4526
H18 H 0.4230 1.0410 0.4504
C17 C -0.6200(8) 0.7458(15) 0.1448(4)
H19 H -0.7004 0.7464 0.1238
H20 H -0.6131 0.8526 0.1710
C18 C -0.6450(10) 0.3758(17) 0.1407(6)
H21 H -0.6417 0.2629 0.1625
H22 H -0.5877 0.3756 0.1081
H23 H -0.7253 0.3941 0.1218
C19 C 0.4998(9) 1.1630(16) 0.3768(5)
H24 H 0.5787 1.1759 0.3990
H25 H 0.4842 1.2714 0.3523
C20 C 0.5478(13) 0.797(2) 0.3776(8)
H26 H 0.5552 0.6864 0.3546
H27 H 0.4868 0.7840 0.4079
H28 H 0.6242 0.8251 0.3993
O9 O 0.0000 0.6397(10) 0.5000
H29 H -0.0545 0.5771 0.4805
O10 O 0.1313(5) 1.4755(7) 0.0196(2)
H30 H 0.1108 1.5379 0.0492
H31 H 0.1891 1.5144 0.0010
O11 O 0.1377(6) 1.0613(8) 0.0189(3)
H32 H 0.1158 0.9953 0.0471
H33 H 0.1464 1.0008 -0.0147
H29A H 0.0545 0.5771 0.5195
S1A S 0.6083(2) 0.5535(6) 0.80379(13)
O2A O 0.1824(6) 1.2994(7) 0.7012(2)
O4A O 0.0821(5) 0.8829(7) 0.5939(2)
O6A O 0.3185(5) 0.5468(8) 0.9502(3)
O7A O 0.2240(6) 0.8083(9) 0.9416(3)
N3A N 0.3639(5) 0.9320(9) 0.8527(2)
H1A H 0.3914 1.0267 0.8718
N5A N 0.1657(6) 0.6682(8) 0.6835(3)
H2A H 0.1827 0.5657 0.7003
H3A H 0.1267 0.6741 0.6471
N6A N 0.2620(6) 1.1205(8) 0.7791(3)
N7A N 0.2590(5) 0.8007(8) 0.7696(3)
N9A N 0.1185(6) 1.0198(8) 0.6272(3)
C1A C 0.1987(6) 0.8147(9) 0.7132(3)
C3A C 0.1696(7) 0.9889(9) 0.6845(3)
C4A C 0.2936(6) 0.9496(10) 0.7993(3)
C6A C 0.2031(7) 1.1471(9) 0.7199(3)
C7A C 0.3952(6) 0.7582(10) 0.8792(3)
H7A H 0.3886 0.6710 0.8445
C8A C 0.3070(7) 0.7014(10) 0.9283(4)
C12A C 0.5282(6) 0.7591(14) 0.9054(3)
H9A H 0.5430 0.8686 0.9294
H10A H 0.5404 0.6594 0.9346
C13A C 0.2997(8) 1.2785(11) 0.8173(4)
H11A H 0.2693 1.3851 0.7965
H12A H 0.3867 1.2835 0.8216
H13A H 0.2676 1.2697 0.8585
C17A C 0.6200(8) 0.7458(15) 0.8552(4)
H19A H 0.7004 0.7464 0.8762
H20A H 0.6131 0.8526 0.8290
C18A C 0.6450(10) 0.3758(17) 0.8593(6)
H21A H 0.6417 0.2629 0.8375
H22A H 0.5877 0.3756 0.8919
H23A H 0.7253 0.3941 0.8782
S2A S -0.5053(3) 0.9748(6) 0.67744(16)
O1A O -0.0602(6) 1.6663(7) 0.7862(2)
O3A O 0.0246(5) 1.2460(7) 0.8966(2)
O5A O -0.1062(5) 1.1580(8) 0.5385(2)
O8A O -0.1969(7) 0.9010(8) 0.5431(3)
N1A N -0.0058(5) 1.3831(8) 0.8614(2)
N2A N -0.1402(5) 1.1699(8) 0.7171(3)
N4A N -0.1362(6) 1.4874(7) 0.7067(3)
N8A N -0.2368(5) 1.3054(8) 0.6317(2)
H4A H -0.2579 1.4016 0.6115
N10A N -0.0507(7) 1.0336(8) 0.8035(3)
H5A H -0.0690 0.9323 0.7860
H6A H -0.0126 1.0366 0.8401
C2A C -0.0813(7) 1.5146(9) 0.7664(3)
C5A C -0.1678(6) 1.3204(9) 0.6860(3)
C9A C -0.2775(6) 1.1334(10) 0.6052(3)
H8A H -0.2791 1.0479 0.6405
C10A C -0.0809(7) 1.1831(9) 0.7742(3)
C11A C -0.0504(6) 1.3532(9) 0.8025(3)
C14A C -0.1715(8) 1.6506(10) 0.6689(4)
H14A H -0.1411 1.7554 0.6908
H15A H -0.2583 1.6572 0.6635
H16A H -0.1376 1.6438 0.6280
C15A C -0.1872(8) 1.0639(11) 0.5594(3)
C16A C -0.4060(6) 1.1467(12) 0.5753(4)
H17A H -0.4112 1.2501 0.5474
H18A H -0.4230 1.0410 0.5496
C19A C -0.4998(9) 1.1630(16) 0.6232(5)
H24A H -0.5787 1.1759 0.6010
H25A H -0.4842 1.2714 0.6477
C20A C -0.5478(13) 0.797(2) 0.6224(8)
H26A H -0.5552 0.6864 0.6454
H27A H -0.4868 0.7840 0.5921
H28A H -0.6242 0.8251 0.6007
O10A O -0.1313(5) 1.4755(7) -0.0196(2)
H30A H -0.1108 1.5379 -0.0492
H31A H -0.1891 1.5144 -0.0010
O11A O -0.1377(6) 1.0613(8) -0.0189(3)
H32A H -0.1158 0.9953 -0.0471
H33A H -0.1464 1.0008 0.0147
O3A_2 O 0.0246(5) 1.2460(7) -0.1034(2)
Mn2_2 Mn 0.0000 1.2709(2) 1.0000
O12 O -0.3909(6) 0.1937(9) 0.0386(3)
H34 H -0.4261 0.2617 0.0336
H35 H -0.3107 0.1569 0.0155
O13 O 0.0234(4) 0.7707(7) 0.0845(2)
H36 H 0.0743 0.7807 0.0739
H37 H -0.0648 0.7740 0.0665
O14 O 0.3010(7) 0.5605(10) 0.4720(3)
H38 H 0.2310 0.6709 0.4675
H39 H 0.3066 0.5389 0.5115
O15 O 0.1463(10) 1.3902(9) 0.5665(4)
H40 H 0.1268 1.3267 0.5341
H41 H 0.0783 1.4389 0.5727
loop_
_geom_bond_atom_site_label_1
_geom_bond_atom_site_label_2
_geom_bond_site_symmetry_1
_geom_bond_site_symmetry_2
Mn1 O4 1_555 1_555
Mn2 O3 1_555 1_555
S1 C17 1_555 1_555
S2 C19 1_555 1_555
O1 C2 1_555 1_555
O2 C6 1_555 1_555
O3 N1 1_555 1_555
O4 N9 1_555 1_555
O5 Mn1 1_555 1_555
O6 C8 1_555 1_555
O7 C8 1_555 1_555
O8 Mn1 1_555 1_555
N1 C11 1_555 1_555
N2 C5 1_555 1_555
N3 H1 1_555 1_555
N4 C2 1_555 1_555
N5 H2 1_555 1_555
H3 N5 1_555 1_555
N6 C4 1_555 1_555
N7 C1 1_555 1_555
N8 H4 1_555 1_555
N9 C3 1_555 1_555
N10 H5 1_555 1_555
H6 N10 1_555 1_555
C1 N5 1_555 1_555
C2 C11 1_555 1_555
C3 C1 1_555 1_555
C4 N3 1_555 1_555
C5 N4 1_555 1_555
C6 N6 1_555 1_555
C7 N3 1_555 1_555
H7 C7 1_555 1_555
C8 C7 1_555 1_555
C9 N8 1_555 1_555
H8 C9 1_555 1_555
C10 N2 1_555 1_555
C11 C10 1_555 1_555
C12 C7 1_555 1_555
H9 C12 1_555 1_555
H10 C12 1_555 1_555
C13 N6 1_555 1_555
H11 C13 1_555 1_555
H12 C13 1_555 1_555
H13 C13 1_555 1_555
C14 N4 1_555 1_555
H14 C14 1_555 1_555
H15 C14 1_555 1_555
H16 C14 1_555 1_555
C15 O5 1_555 1_555
C16 C9 1_555 1_555
H17 C16 1_555 1_555
H18 C16 1_555 1_555
C17 C12 1_555 1_555
H19 C17 1_555 1_555
H20 C17 1_555 1_555
C18 S1 1_555 1_555
H21 C18 1_555 1_555
H22 C18 1_555 1_555
H23 C18 1_555 1_555
C19 C16 1_555 1_555
H24 C19 1_555 1_555
H25 C19 1_555 1_555
C20 S2 1_555 1_555
H26 C20 1_555 1_555
H27 C20 1_555 1_555
H28 C20 1_555 1_555
O9 Mn1 1_555 1_555
H29 O9 1_555 1_555
O10 Mn2 1_555 1_555
H30 O10 1_555 1_555
H31 O10 1_555 1_555
O11 Mn2 1_555 1_555
H32 O11 1_555 1_555
H33 O11 1_555 1_555
O12 H34 1_555 1_555
H35 O12 1_555 1_555
O13 H36 1_555 1_555
H37 O13 1_555 1_555
O14 H38 1_555 1_555
H39 O14 1_555 1_555
O15 H40 1_555 1_555
H41 O15 1_555 1_555
H29A O9 1_555 1_555
S1A C17A 1_555 1_555
O2A C6A 1_555 1_555
O4A Mn1 1_555 1_555
O6A C8A 1_555 1_555
O7A C8A 1_555 1_555
N3A H1A 1_555 1_555
N5A H2A 1_555 1_555
H3A N5A 1_555 1_555
N6A C4A 1_555 1_555
N7A C1A 1_555 1_555
N9A O4A 1_555 1_555
C1A N5A 1_555 1_555
C3A N9A 1_555 1_555
C4A N3A 1_555 1_555
C6A N6A 1_555 1_555
C7A N3A 1_555 1_555
H7A C7A 1_555 1_555
C8A C7A 1_555 1_555
C12A C7A 1_555 1_555
H9A C12A 1_555 1_555
H10A C12A 1_555 1_555
C13A N6A 1_555 1_555
H11A C13A 1_555 1_555
H12A C13A 1_555 1_555
H13A C13A 1_555 1_555
C17A C12A 1_555 1_555
H19A C17A 1_555 1_555
H20A C17A 1_555 1_555
C18A S1A 1_555 1_555
H21A C18A 1_555 1_555
H22A C18A 1_555 1_555
H23A C18A 1_555 1_555
S2A C19A 1_555 1_555
O1A C2A 1_555 1_555
O3A N1A 1_555 1_555
O5A Mn1 1_555 1_555
O8A Mn1 1_555 1_555
N1A C11A 1_555 1_555
N2A C5A 1_555 1_555
N4A C2A 1_555 1_555
N8A H4A 1_555 1_555
N10A H5A 1_555 1_555
H6A N10A 1_555 1_555
C2A C11A 1_555 1_555
C5A N4A 1_555 1_555
C9A N8A 1_555 1_555
H8A C9A 1_555 1_555
C10A N2A 1_555 1_555
C11A C10A 1_555 1_555
C14A N4A 1_555 1_555
H14A C14A 1_555 1_555
H15A C14A 1_555 1_555
H16A C14A 1_555 1_555
C15A O5A 1_555 1_555
C16A C9A 1_555 1_555
H17A C16A 1_555 1_555
H18A C16A 1_555 1_555
C19A C16A 1_555 1_555
H24A C19A 1_555 1_555
H25A C19A 1_555 1_555
C20A S2A 1_555 1_555
H26A C20A 1_555 1_555
H27A C20A 1_555 1_555
H28A C20A 1_555 1_555
O10A Mn2 1_555 1_555
H30A O10A 1_555 1_555
H31A O10A 1_555 1_555
O11A Mn2 1_555 1_555
H32A O11A 1_555 1_555
H33A O11A 1_555 1_555
O3A_2 Mn2 1_555 1_555
Mn2_2 O3A 1_555 1_555
O8 C15 1_555 1_555
N7 C4 1_555 1_555
N8 C5 1_555 1_555
N10 C10 1_555 1_555
C3 C6 1_555 1_555
C9 C15 1_555 1_555
N7A C4A 1_555 1_555
C1A C3A 1_555 1_555
C3A C6A 1_555 1_555
O8A C15A 1_555 1_555
N8A C5A 1_555 1_555
N10A C10A 1_555 1_555
C9A C15A 1_555 1_555

#END
