
#######################################################################
#
#                 Cambridge Crystallographic Data Centre
#                                CCDC 
#
#######################################################################
#
# If this CIF has been generated from an entry in the Cambridge 
# Structural Database, then it will include bibliographic, chemical, 
# crystal, experimental, refinement or atomic coordinate data resulting 
# from the CCDC's data processing and validation procedures.
#
#######################################################################

data_UMUFEN
_symmetry_cell_setting           triclinic
_symmetry_space_group_name_H-M   'P -1'
_symmetry_Int_Tables_number      2
_space_group_name_Hall           '-P 1'
loop_
_symmetry_equiv_pos_site_id
_symmetry_equiv_pos_as_xyz
1 x,y,z
2 -x,-y,-z
_cell_length_a                   10.377(1)
_cell_length_b                   10.6890(4)
_cell_length_c                   11.026(1)
_cell_angle_alpha                86.181(3)
_cell_angle_beta                 70.2643(9)
_cell_angle_gamma                88.837(1)
_cell_volume                     1148.6
loop_
_atom_site_label
_atom_site_type_symbol
_atom_site_fract_x
_atom_site_fract_y
_atom_site_fract_z
Cu1 Cu 0.94679(4) 0.09301(3) 0.23736(4)
O1 O 0.7625(2) 0.1603(2) 0.2427(2)
O2 O 0.9153(2) 0.2061(2) 0.0516(2)
O3 O 0.8370(3) 0.2771(3) -0.1405(3)
O4 O 0.8977(2) -0.0766(2) 0.2103(2)
O5 O 0.8522(2) -0.0747(2) 0.4202(2)
O6 O 0.7216(3) -0.2595(3) 0.5682(3)
N1 N 0.9757(2) 0.2388(2) 0.3281(2)
N2 N 1.1465(3) 0.0569(2) 0.1617(3)
C1 C 0.7932(3) 0.2073(3) 0.1279(3)
C2 C 0.6839(3) 0.2604(3) 0.0811(3)
C3 C 0.7116(3) 0.2917(3) -0.0511(3)
C4 C 0.6067(5) 0.3338(4) -0.0941(4)
C5 C 0.4773(4) 0.3499(4) -0.0086(5)
C6 C 0.4492(4) 0.3219(3) 0.1222(4)
C7 C 0.5518(3) 0.2771(3) 0.1649(3)
C8 C 0.8519(3) -0.1296(3) 0.3225(3)
C9 C 0.7971(3) -0.2593(3) 0.3374(3)
C10 C 0.7341(3) -0.3169(3) 0.4601(4)
C11 C 0.6796(4) -0.4378(4) 0.4719(5)
C12 C 0.6903(5) -0.4994(4) 0.3638(6)
C13 C 0.7515(5) -0.4436(4) 0.2442(5)
C14 C 0.8054(4) -0.3242(3) 0.2292(4)
C15 C 0.9299(4) 0.2336(3) 0.4563(3)
C16 C 0.9377(4) 0.3328(3) 0.5270(3)
C17 C 0.9955(3) 0.4454(3) 0.4639(3)
C18 C 1.0432(4) 0.4497(3) 0.3306(3)
C19 C 1.0319(4) 0.3463(3) 0.2667(3)
C20 C 1.2316(4) 0.0264(3) 0.2267(3)
C21 C 1.3681(4) 0.0026(3) 0.1675(3)
C22 C 1.4260(3) 0.0117(3) 0.0335(3)
C23 C 1.3376(4) 0.0431(3) -0.0331(3)
C24 C 1.2009(3) 0.0639(3) 0.0325(3)
H1 H 0.879(4) 0.258(4) -0.108(4)
H2 H 0.628(4) 0.345(3) -0.180(4)
H3 H 0.403(4) 0.376(3) -0.033(4)
H4 H 0.361(4) 0.329(3) 0.182(4)
H5 H 0.534(4) 0.253(3) 0.247(4)
H6 H 0.763(4) -0.201(4) 0.543(4)
H7 H 0.646(4) -0.475(3) 0.551(4)
H8 H 0.657(4) -0.586(3) 0.370(3)
H9 H 0.762(4) -0.476(4) 0.174(4)
H10 H 0.842(4) -0.287(3) 0.143(4)
H11 H 0.891(3) 0.158(3) 0.497(4)
H12 H 0.901(3) 0.318(3) 0.618(4)
H13 H 1.081(3) 0.521(3) 0.281(3)
H14 H 1.064(3) 0.346(3) 0.179(4)
H15 H 1.192(3) 0.019(3) 0.316(4)
H16 H 1.415(4) -0.022(3) 0.220(4)
H17 H 1.361(4) 0.052(3) -0.120(4)
H18 H 1.142(4) 0.081(3) -0.010(4)
C17A C 1.0045(3) 0.5546(3) 0.5361(3)
C16A C 1.0623(4) 0.6672(3) 0.4730(3)
C15A C 1.0701(4) 0.7664(3) 0.5437(3)
N1A N 1.0243(2) 0.7612(2) 0.6719(2)
C19A C 0.9681(4) 0.6537(3) 0.7333(3)
C18A C 0.9568(4) 0.5503(3) 0.6694(3)
H13A H 0.919(3) 0.479(3) 0.719(3)
H14A H 0.936(3) 0.654(3) 0.821(4)
H11A H 1.109(3) 0.842(3) 0.503(4)
H12A H 1.099(3) 0.682(3) 0.382(4)
C22A C 1.5740(3) -0.0117(3) -0.0335(3)
C21A C 1.6319(4) -0.0026(3) -0.1675(3)
C20A C 1.7684(4) -0.0264(3) -0.2267(3)
N2A N 1.8535(3) -0.0569(2) -0.1617(3)
C24A C 1.7991(3) -0.0639(3) -0.0325(3)
C23A C 1.6624(4) -0.0431(3) 0.0331(3)
H17A H 1.639(4) -0.052(3) 0.120(4)
H18A H 1.858(4) -0.081(3) 0.010(4)
H15A H 1.808(3) -0.019(3) -0.316(4)
H16A H 1.585(4) 0.022(3) -0.220(4)
Cu1A Cu 1.05321(4) 0.90699(3) 0.76264(4)
O1A O 1.2375(2) 0.8397(2) 0.7573(2)
O2A O 1.0847(2) 0.7939(2) 0.9484(2)
O3A O 1.1630(3) 0.7229(3) 1.1405(3)
C1A C 1.2068(3) 0.7927(3) 0.8721(3)
C2A C 1.3161(3) 0.7396(3) 0.9189(3)
C3A C 1.2884(3) 0.7083(3) 1.0511(3)
C4A C 1.3933(5) 0.6662(4) 1.0941(4)
C5A C 1.5227(4) 0.6501(4) 1.0086(5)
C6A C 1.5508(4) 0.6781(3) 0.8778(4)
C7A C 1.4482(3) 0.7229(3) 0.8351(3)
H1A H 1.121(4) 0.742(4) 1.108(4)
H2A H 1.372(4) 0.655(3) 1.180(4)
H3A H 1.597(4) 0.624(3) 1.033(4)
H4A H 1.639(4) 0.671(3) 0.818(4)
H5A H 1.466(4) 0.747(3) 0.753(4)
O4A O 1.1023(2) 1.0766(2) 0.7897(2)
O5A O 1.1478(2) 1.0747(2) 0.5798(2)
O6A O 1.2784(3) 1.2595(3) 0.4318(3)
C8A C 1.1481(3) 1.1296(3) 0.6775(3)
C9A C 1.2029(3) 1.2593(3) 0.6626(3)
C10A C 1.2659(3) 1.3169(3) 0.5399(4)
C11A C 1.3204(4) 1.4378(4) 0.5281(5)
C12A C 1.3097(5) 1.4994(4) 0.6362(6)
C13A C 1.2485(5) 1.4436(4) 0.7558(5)
C14A C 1.1946(4) 1.3242(3) 0.7708(4)
H6A H 1.237(4) 1.201(4) 0.457(4)
H7A H 1.354(4) 1.475(3) 0.449(4)
H8A H 1.343(4) 1.586(3) 0.630(3)
H9A H 1.238(4) 1.476(4) 0.826(4)
H10A H 1.158(4) 1.287(3) 0.857(4)
Cu1A_2 Cu 2.05321(4) -0.09301(3) -0.23736(4)
N2A_2 N 0.8535(3) 0.9431(2) 0.8383(3)
loop_
_geom_bond_atom_site_label_1
_geom_bond_atom_site_label_2
_geom_bond_site_symmetry_1
_geom_bond_site_symmetry_2
Cu1 O1 1_555 1_555
O1 C1 1_555 1_555
O2 Cu1 1_555 1_555
O3 C3 1_555 1_555
O4 Cu1 1_555 1_555
O5 Cu1 1_555 1_555
O6 C10 1_555 1_555
N1 Cu1 1_555 1_555
N2 Cu1 1_555 1_555
C1 O2 1_555 1_555
C2 C1 1_555 1_555
C3 C2 1_555 1_555
C4 C3 1_555 1_555
C5 C4 1_555 1_555
C6 C5 1_555 1_555
C7 C2 1_555 1_555
C8 O4 1_555 1_555
C9 C8 1_555 1_555
C10 C9 1_555 1_555
C11 C10 1_555 1_555
C12 C11 1_555 1_555
C13 C12 1_555 1_555
C14 C9 1_555 1_555
C15 N1 1_555 1_555
C16 C15 1_555 1_555
C17 C16 1_555 1_555
C18 C17 1_555 1_555
C19 N1 1_555 1_555
C20 N2 1_555 1_555
C21 C20 1_555 1_555
C22 C21 1_555 1_555
C23 C22 1_555 1_555
C24 N2 1_555 1_555
H1 O3 1_555 1_555
H2 C4 1_555 1_555
H3 C5 1_555 1_555
H4 C6 1_555 1_555
H5 C7 1_555 1_555
H6 O6 1_555 1_555
H7 C11 1_555 1_555
H8 C12 1_555 1_555
H9 C13 1_555 1_555
H10 C14 1_555 1_555
H11 C15 1_555 1_555
H12 C16 1_555 1_555
H13 C18 1_555 1_555
H14 C19 1_555 1_555
H15 C20 1_555 1_555
H16 C21 1_555 1_555
H17 C23 1_555 1_555
H18 C24 1_555 1_555
C17A C17 1_555 1_555
C16A C17A 1_555 1_555
C15A C16A 1_555 1_555
N1A C15A 1_555 1_555
C19A N1A 1_555 1_555
C18A C17A 1_555 1_555
H13A C18A 1_555 1_555
H14A C19A 1_555 1_555
H11A C15A 1_555 1_555
H12A C16A 1_555 1_555
C22A C22 1_555 1_555
C21A C22A 1_555 1_555
C20A C21A 1_555 1_555
N2A C20A 1_555 1_555
C24A N2A 1_555 1_555
C23A C22A 1_555 1_555
H17A C23A 1_555 1_555
H18A C24A 1_555 1_555
H15A C20A 1_555 1_555
H16A C21A 1_555 1_555
Cu1A N1A 1_555 1_555
O1A Cu1A 1_555 1_555
O2A Cu1A 1_555 1_555
O3A C3A 1_555 1_555
C1A O1A 1_555 1_555
C2A C1A 1_555 1_555
C3A C2A 1_555 1_555
C4A C3A 1_555 1_555
C5A C4A 1_555 1_555
C6A C5A 1_555 1_555
C7A C2A 1_555 1_555
H1A O3A 1_555 1_555
H2A C4A 1_555 1_555
H3A C5A 1_555 1_555
H4A C6A 1_555 1_555
H5A C7A 1_555 1_555
O4A Cu1A 1_555 1_555
O5A Cu1A 1_555 1_555
O6A C10A 1_555 1_555
C8A O4A 1_555 1_555
C9A C8A 1_555 1_555
C10A C9A 1_555 1_555
C11A C10A 1_555 1_555
C12A C11A 1_555 1_555
C13A C12A 1_555 1_555
C14A C9A 1_555 1_555
H6A O6A 1_555 1_555
H7A C11A 1_555 1_555
H8A C12A 1_555 1_555
H9A C13A 1_555 1_555
H10A C14A 1_555 1_555
Cu1A_2 N2A 1_555 1_555
N2A_2 Cu1A 1_555 1_555
O5 C8 1_555 1_555
C6 C7 1_555 1_555
C13 C14 1_555 1_555
C18 C19 1_555 1_555
C23 C24 1_555 1_555
C19A C18A 1_555 1_555
C24A C23A 1_555 1_555
O2A C1A 1_555 1_555
C6A C7A 1_555 1_555
O5A C8A 1_555 1_555
C13A C14A 1_555 1_555

#END
