
#######################################################################
#
#                 Cambridge Crystallographic Data Centre
#                                CCDC 
#
#######################################################################
#
# If this CIF has been generated from an entry in the Cambridge 
# Structural Database, then it will include bibliographic, chemical, 
# crystal, experimental, refinement or atomic coordinate data resulting 
# from the CCDC's data processing and validation procedures.
#
#######################################################################

data_UMUTUS
_symmetry_cell_setting           monoclinic
_symmetry_space_group_name_H-M   'P 21/c'
_symmetry_Int_Tables_number      14
_space_group_name_Hall           '-P 2ybc'
loop_
_symmetry_equiv_pos_site_id
_symmetry_equiv_pos_as_xyz
1 x,y,z
2 -x,1/2+y,1/2-z
3 -x,-y,-z
4 x,1/2-y,1/2+z
_cell_length_a                   8.4015(6)
_cell_length_b                   9.4904(7)
_cell_length_c                   28.280(2)
_cell_angle_alpha                90
_cell_angle_beta                 97.514(2)
_cell_angle_gamma                90
_cell_volume                     2235.5
loop_
_atom_site_label
_atom_site_type_symbol
_atom_site_fract_x
_atom_site_fract_y
_atom_site_fract_z
Eu1 Eu 0.14511(3) 0.82153(3) 0.195507(10)
Eu2 Eu 0.45628(4) 0.73889(3) 0.074092(10)
O1 O 0.4220(5) 0.7287(5) 0.22359(16)
H1 H 0.4019 0.6530 0.2376
H2 H 0.4852 0.7117 0.2032
O2 O 0.2802(5) 0.9675(5) 0.26367(15)
H3 H 0.2838 0.9130 0.2875
H4 H 0.2468 1.0483 0.2708
O3 O 0.4787(7) 0.8418(6) -0.00346(18)
H5 H 0.5588 0.8861 -0.0112
H6 H 0.4009 0.8457 -0.0258
O4 O 0.1762(5) 0.8086(6) 0.04785(16)
H7 H 0.1035 0.8206 0.0661
H8 H 0.1325 0.8161 0.0189
O5 O 0.3323(5) 0.8694(4) 0.13864(13)
O6 O 0.4536(6) 1.0025(5) 0.09064(16)
O7 O 0.3505(5) 1.5432(5) 0.11228(16)
O8 O 0.1644(6) 1.5991(5) 0.15789(16)
O9 O -0.1244(5) 1.2094(4) 0.23249(14)
O10 O -0.0524(5) 0.9910(5) 0.21721(15)
O11 O 0.6270(5) 0.6977(5) 0.14896(15)
O12 O 0.8704(5) 0.7101(5) 0.19110(15)
O13 O 0.7315(5) 0.8391(5) 0.07812(15)
O14 O 0.9758(5) 0.8542(5) 0.11917(15)
O15 O 0.6319(5) 0.5625(5) 0.04808(15)
O16 O 0.6743(5) 0.4120(5) -0.00971(16)
N1 N 0.1752(6) 1.0774(5) 0.16953(17)
C1 C 0.2841(7) 1.1147(6) 0.1414(2)
C2 C 0.3128(8) 1.2538(6) 0.1302(2)
H9 H 0.3897 1.2765 0.1106
C3 C 0.2235(7) 1.3593(6) 0.1491(2)
C4 C 0.1075(7) 1.3190(7) 0.1777(2)
H10 H 0.0455 1.3865 0.1907
C5 C 0.0866(7) 1.1779(6) 0.1863(2)
C6 C 0.3654(7) 0.9890(6) 0.1226(2)
C7 C 0.2490(7) 1.5145(6) 0.1393(2)
C8 C -0.0399(7) 1.1210(6) 0.21475(18)
C9 C 0.7719(7) 0.7330(6) 0.1556(2)
C10 C 0.8332(8) 0.8164(6) 0.1139(2)
C11 C 0.5885(7) 0.4913(7) 0.0107(2)
Eu1B Eu 0.85489(3) 0.17847(3) -0.195507(10)
Eu1_2 Eu 0.14511(3) 1.82153(3) 0.195507(10)
Eu1_3 Eu 1.14511(3) 0.82153(3) 0.195507(10)
Eu1A Eu -0.14511(3) 1.32153(3) 0.304493(10)
Eu1B_2 Eu -0.14511(3) 0.17847(3) -0.195507(10)
Eu1B_3 Eu 0.85489(3) -0.82153(3) -0.195507(10)
Eu1C Eu 1.14511(3) -0.32153(3) -0.304493(10)
Eu2B Eu 0.54372(4) 0.26111(3) -0.074092(10)
Eu2_2 Eu 0.45628(4) 1.73889(3) 0.074092(10)
Eu2B_2 Eu 0.54372(4) -0.73889(3) -0.074092(10)
O1B O 0.5780(5) 0.2713(5) -0.22359(16)
H1B H 0.5981 0.3470 -0.2376
H2B H 0.5148 0.2883 -0.2032
O2B O 0.7198(5) 0.0325(5) -0.26367(15)
H3B H 0.7162 0.0870 -0.2875
H4B H 0.7532 -0.0483 -0.2708
O3B O 0.5213(7) 0.1582(6) 0.00346(18)
H5B H 0.4412 0.1139 0.0112
H6B H 0.5991 0.1543 0.0258
O4B O 0.8238(5) 0.1914(6) -0.04785(16)
H7B H 0.8965 0.1794 -0.0661
H8B H 0.8675 0.1839 -0.0189
O5B O 0.6677(5) 0.1306(4) -0.13864(13)
O6B O 0.5464(6) -0.0025(5) -0.09064(16)
O7B O 0.6495(5) -0.5432(5) -0.11228(16)
O7_2 O 0.3505(5) 0.5432(5) 0.11228(16)
O7B_2 O 0.6495(5) 0.4568(5) -0.11228(16)
O8B O 0.8356(6) -0.5991(5) -0.15789(16)
O8_2 O 0.1644(6) 0.5991(5) 0.15789(16)
O8B_2 O 0.8356(6) 0.4009(5) -0.15789(16)
O9B O 1.1244(5) -0.2094(4) -0.23249(14)
O9A O 0.1244(5) 0.7094(4) 0.26751(14)
O9C O 0.8756(5) 0.2906(4) -0.26751(14)
O10B O 1.0524(5) 0.0090(5) -0.21721(15)
O11B O 0.3730(5) 0.3023(5) -0.14896(15)
O12B O 0.1296(5) 0.2899(5) -0.19110(15)
O12_2 O -0.1296(5) 0.7101(5) 0.19110(15)
O12B_2 O 1.1296(5) 0.2899(5) -0.19110(15)
O13B O 0.2685(5) 0.1609(5) -0.07812(15)
O14B O 0.0242(5) 0.1458(5) -0.11917(15)
O14_2 O -0.0242(5) 0.8542(5) 0.11917(15)
O14B_2 O 1.0242(5) 0.1458(5) -0.11917(15)
O15B O 0.3681(5) 0.4375(5) -0.04808(15)
O16B O 0.3257(5) 0.5880(5) 0.00971(16)
N1B N 0.8248(6) -0.0774(5) -0.16953(17)
C1B C 0.7159(7) -0.1147(6) -0.1414(2)
C2B C 0.6872(8) -0.2538(6) -0.1302(2)
H9B H 0.6103 -0.2765 -0.1106
C3B C 0.7765(7) -0.3593(6) -0.1491(2)
C4B C 0.8925(7) -0.3190(7) -0.1777(2)
H10B H 0.9545 -0.3865 -0.1907
C5B C 0.9134(7) -0.1779(6) -0.1863(2)
C6B C 0.6346(7) 0.0110(6) -0.1226(2)
C7B C 0.7510(7) -0.5145(6) -0.1393(2)
C8B C 1.0399(7) -0.1210(6) -0.21475(18)
C9B C 0.2281(7) 0.2670(6) -0.1556(2)
C10B C 0.1668(8) 0.1836(6) -0.1139(2)
C11B C 0.4115(7) 0.5087(7) -0.0107(2)
O17 O 0.3944(7) 0.4939(7) 0.2760(2)
H11 H 0.4387 0.4183 0.2682
H12 H 0.2947 0.4791 0.2766
O18 O 0.3100(10) 0.8718(8) 0.3573(3)
O19 O -0.009(2) 0.713(2) -0.0354(6)
O20 O 0.2261(12) 0.8363(9) -0.0776(3)
O21 O 0.8007(14) 0.9013(13) -0.0123(4)
O22 O 0.9674(18) 0.523(2) 0.0607(6)
loop_
_geom_bond_atom_site_label_1
_geom_bond_atom_site_label_2
_geom_bond_site_symmetry_1
_geom_bond_site_symmetry_2
Eu1 O1 1_555 1_555
Eu2 O3 1_555 1_555
O1 H1 1_555 1_555
H2 O1 1_555 1_555
O2 Eu1 1_555 1_555
H3 O2 1_555 1_555
H4 O2 1_555 1_555
O3 H5 1_555 1_555
H6 O3 1_555 1_555
O4 Eu2 1_555 1_555
H7 O4 1_555 1_555
H8 O4 1_555 1_555
O5 Eu1 1_555 1_555
O6 Eu2 1_555 1_555
O7 C7 1_555 1_555
O8 C7 1_555 1_555
O9 C8 1_555 1_555
O10 Eu1 1_555 1_555
O11 Eu2 1_555 1_555
O12 C9 1_555 1_555
O13 Eu2 1_555 1_555
O14 C10 1_555 1_555
O15 Eu2 1_555 1_555
O16 C11 1_555 1_555
N1 Eu1 1_555 1_555
C1 N1 1_555 1_555
C2 C1 1_555 1_555
H9 C2 1_555 1_555
C3 C2 1_555 1_555
C4 C3 1_555 1_555
H10 C4 1_555 1_555
C5 N1 1_555 1_555
C6 O5 1_555 1_555
C7 C3 1_555 1_555
C8 O10 1_555 1_555
C9 O11 1_555 1_555
C10 O13 1_555 1_555
C11 O15 1_555 1_555
O17 H11 1_555 1_555
H12 O17 1_555 1_555
Eu1B O1B 1_555 1_555
Eu1_2 O8 1_555 1_555
Eu1_3 O12 1_555 1_555
Eu1A O9 1_555 1_555
Eu1B_2 O12B 1_555 1_555
Eu1B_3 O8B 1_555 1_555
Eu1C O9B 1_555 1_555
Eu2B O16 1_555 1_555
Eu2_2 O7 1_555 1_555
Eu2B_2 O7B 1_555 1_555
O1B H1B 1_555 1_555
H2B O1B 1_555 1_555
O2B Eu1B 1_555 1_555
H3B O2B 1_555 1_555
H4B O2B 1_555 1_555
O3B Eu2B 1_555 1_555
H5B O3B 1_555 1_555
H6B O3B 1_555 1_555
O4B Eu2B 1_555 1_555
H7B O4B 1_555 1_555
H8B O4B 1_555 1_555
O5B Eu1B 1_555 1_555
O6B Eu2B 1_555 1_555
O7B C7B 1_555 1_555
O7_2 Eu2 1_555 1_555
O7B_2 Eu2B 1_555 1_555
O8B C7B 1_555 1_555
O8_2 Eu1 1_555 1_555
O8B_2 Eu1B 1_555 1_555
O9B C8B 1_555 1_555
O9A Eu1 1_555 1_555
O9C Eu1B 1_555 1_555
O10B Eu1B 1_555 1_555
O11B Eu2B 1_555 1_555
O12B C9B 1_555 1_555
O12_2 Eu1 1_555 1_555
O12B_2 Eu1B 1_555 1_555
O13B Eu2B 1_555 1_555
O14B Eu1B_2 1_555 1_555
O14_2 Eu1 1_555 1_555
O14B_2 Eu1B 1_555 1_555
O15B Eu2B 1_555 1_555
O16B Eu2 1_555 1_555
N1B Eu1B 1_555 1_555
C1B N1B 1_555 1_555
C2B C1B 1_555 1_555
H9B C2B 1_555 1_555
C3B C2B 1_555 1_555
C4B C3B 1_555 1_555
H10B C4B 1_555 1_555
C5B N1B 1_555 1_555
C6B O5B 1_555 1_555
C7B C3B 1_555 1_555
C8B O10B 1_555 1_555
C9B O11B 1_555 1_555
C10B O13B 1_555 1_555
C11B C11 1_555 1_555
Eu2 O5 1_555 1_555
O6 C6 1_555 1_555
O14 Eu1_3 1_555 1_555
C1 C6 1_555 1_555
C4 C5 1_555 1_555
C5 C8 1_555 1_555
C9 C10 1_555 1_555
Eu2B O5B 1_555 1_555
O6B C6B 1_555 1_555
O14B C10B 1_555 1_555
O15B C11B 1_555 1_555
O16B C11B 1_555 1_555
C1B C6B 1_555 1_555
C4B C5B 1_555 1_555
C5B C8B 1_555 1_555
C9B C10B 1_555 1_555

#END
