
#######################################################################
#
#                 Cambridge Crystallographic Data Centre
#                                CCDC 
#
#######################################################################
#
# If this CIF has been generated from an entry in the Cambridge 
# Structural Database, then it will include bibliographic, chemical, 
# crystal, experimental, refinement or atomic coordinate data resulting 
# from the CCDC's data processing and validation procedures.
#
#######################################################################

data_UMUXAC
_symmetry_cell_setting           hexagonal
_symmetry_space_group_name_H-M   'P 64 2 2'
_symmetry_Int_Tables_number      181
_space_group_name_Hall           "P 64 2' (0,0,2)"
loop_
_symmetry_equiv_pos_site_id
_symmetry_equiv_pos_as_xyz
1 x,y,z
2 x-y,x,2/3+z
3 -y,x-y,1/3+z
4 -x,-y,z
5 -x+y,-x,2/3+z
6 y,-x+y,1/3+z
7 -y,-x,1/3-z
8 x-y,-y,-z
9 x,x-y,2/3-z
10 y,x,1/3-z
11 -x+y,y,-z
12 -x,-x+y,2/3-z
_cell_length_a                   17.5949(3)
_cell_length_b                   17.5949(3)
_cell_length_c                   22.5436(13)
_cell_angle_alpha                90
_cell_angle_beta                 90
_cell_angle_gamma                120
_cell_volume                     6044.04
loop_
_atom_site_label
_atom_site_type_symbol
_atom_site_fract_x
_atom_site_fract_y
_atom_site_fract_z
I1 I 0.17742(4) 0.31750(4) 0.10123(3)
I2 I 0.13621(4) 0.52052(4) 0.02962(3)
I3 I -0.37525(4) -0.01360(4) 0.10405(3)
I4 I -0.40992(3) 0.18017(5) 0.0000
Cu1 Cu -0.5000 0.0000 0.05607(9)
Cu2 Cu -0.33428(7) 0.08386(7) 0.00828(5)
Cu3 Cu 0.25914(7) 0.48107(7) 0.05638(5)
Cu4 Cu 0.10575(7) 0.35728(7) 0.01123(5)
N1 N -0.0293(4) 0.2745(4) 0.0139(3)
N2 N -0.1979(4) 0.1683(4) 0.0132(3)
N3 N 0.3367(5) 0.5614(5) 0.1251(3)
C1 C 0.4042(6) 0.5387(6) 0.1411(4)
H1 H 0.4409 0.5468 0.1068
H2 H 0.3759 0.4774 0.1525
C2 C 0.2857(6) 0.5553(6) 0.1785(4)
H3 H 0.2566 0.4956 0.1934
H4 H 0.2409 0.5699 0.1684
C3 C -0.0699(6) 0.2814(6) 0.0699(5)
H5 H -0.0548 0.3419 0.0760
H6 H -0.0465 0.2641 0.1029
C4 C -0.0517(5) 0.1813(5) 0.0088(4)
H7 H -0.0237 0.1674 0.0407
H8 H -0.0293 0.1729 -0.0285
C5 C -0.0704(6) 0.2940(6) -0.0352(4)
H9 H -0.0433 0.2917 -0.0721
H10 H -0.0609 0.3529 -0.0306
C6 C -0.1703(6) 0.2277(6) -0.0377(5)
H11 H -0.2023 0.2593 -0.0379
H12 H -0.1840 0.1939 -0.0741
C7 C -0.1505(5) 0.1195(5) 0.0115(4)
H13 H -0.1692 0.0813 -0.0229
H14 H -0.1648 0.0830 0.0467
C8 C 0.3815(7) 0.6541(6) 0.1059(4)
H15 H 0.3383 0.6714 0.0973
H16 H 0.4144 0.6607 0.0698
C9 C -0.1701(6) 0.2228(6) 0.0682(4)
H17 H -0.1895 0.1848 0.1028
H18 H -0.1972 0.2591 0.0694
I1J I 0.14008(6) 0.31750(4) -0.10123(3)
I1C I -1.17742(4) -0.31750(4) 0.10123(3)
I1G I -1.14008(6) -0.31750(4) -0.10123(3)
I2C I -1.13621(4) -0.52052(4) 0.02962(3)
I2J I 0.38431(6) 0.52052(4) -0.02962(3)
I3C I -0.62475(4) 0.01360(4) 0.10405(3)
I3G I -0.36165(6) 0.01360(4) -0.10405(3)
I3J I -0.63835(6) -0.01360(4) -0.10405(3)
I4G I -0.59009(6) -0.18017(5) 0.0000
Cu1G Cu -0.5000 0.0000 -0.05607(9)
Cu2C Cu -0.66572(7) -0.08386(7) 0.00828(5)
Cu2G Cu -0.41814(10) -0.08386(7) -0.00828(5)
Cu2J Cu -0.58186(10) 0.08386(7) -0.00828(5)
Cu3J Cu 0.22193(10) 0.48107(7) -0.05638(5)
Cu3F Cu 0.51893(7) 0.74086(7) 0.27695(5)
Cu3G Cu -1.22193(10) -0.48107(7) -0.05638(5)
Cu3C Cu -1.25914(7) -0.48107(7) 0.05638(5)
Cu4C Cu -1.10575(7) -0.35728(7) 0.01123(5)
Cu4J Cu 0.25153(10) 0.35728(7) -0.01123(5)
N1C N -0.9707(4) -0.2745(4) 0.0139(3)
N2C N -0.8021(4) -0.1683(4) 0.0132(3)
N3F N 0.4386(5) 0.6633(5) 0.2082(3)
N3J N 0.2247(7) 0.5614(5) -0.1251(3)
C1F C 0.4613(6) 0.5958(6) 0.1922(4)
H1F H 0.4532 0.5591 0.2265
H2F H 0.5226 0.6241 0.1808
C2F C 0.4447(6) 0.7143(6) 0.1548(4)
H3F H 0.5044 0.7434 0.1399
H4F H 0.4301 0.7591 0.1649
C3C C -0.9301(6) -0.2814(6) 0.0699(5)
H5C H -0.9452 -0.3419 0.0760
H6C H -0.9535 -0.2641 0.1029
C4C C -0.9483(5) -0.1813(5) 0.0088(4)
H7C H -0.9763 -0.1674 0.0407
H8C H -0.9707 -0.1729 -0.0285
C5C C -0.9296(6) -0.2940(6) -0.0352(4)
H9C H -0.9567 -0.2917 -0.0721
H10C H -0.9391 -0.3529 -0.0306
C6C C -0.8297(6) -0.2277(6) -0.0377(5)
H11C H -0.7977 -0.2593 -0.0379
H12C H -0.8160 -0.1939 -0.0741
C7C C -0.8495(5) -0.1195(5) 0.0115(4)
H13C H -0.8308 -0.0813 -0.0229
H14C H -0.8352 -0.0830 0.0467
C8F C 0.3459(6) 0.6185(7) 0.2274(4)
H15F H 0.3286 0.6617 0.2360
H16F H 0.3393 0.5856 0.2635
C9C C -0.8299(6) -0.2228(6) 0.0682(4)
H17C H -0.8105 -0.1848 0.1028
H18C H -0.8028 -0.2591 0.0694
loop_
_geom_bond_atom_site_label_1
_geom_bond_atom_site_label_2
_geom_bond_site_symmetry_1
_geom_bond_site_symmetry_2
I1 Cu3 1_555 1_555
I2 Cu3 1_555 1_555
I3 Cu1 1_555 1_555
I4 Cu1 1_555 1_555
Cu1 I3C 1_555 1_555
Cu2 I3 1_555 1_555
Cu3 N3 1_555 1_555
Cu4 I1 1_555 1_555
N1 Cu4 1_555 1_555
N2 Cu2 1_555 1_555
N3 C1 1_555 1_555
C1 H1 1_555 1_555
H2 C1 1_555 1_555
C2 N3 1_555 1_555
H3 C2 1_555 1_555
H4 C2 1_555 1_555
C3 N1 1_555 1_555
H5 C3 1_555 1_555
H6 C3 1_555 1_555
C4 N1 1_555 1_555
H7 C4 1_555 1_555
H8 C4 1_555 1_555
C5 N1 1_555 1_555
H9 C5 1_555 1_555
H10 C5 1_555 1_555
C6 N2 1_555 1_555
H11 C6 1_555 1_555
H12 C6 1_555 1_555
C7 N2 1_555 1_555
H13 C7 1_555 1_555
H14 C7 1_555 1_555
C8 N3 1_555 1_555
H15 C8 1_555 1_555
H16 C8 1_555 1_555
C9 N2 1_555 1_555
H17 C9 1_555 1_555
H18 C9 1_555 1_555
I1J Cu4 1_555 1_555
I1C Cu3C 1_555 1_555
I1G Cu3G 1_555 1_555
I2C Cu3G 1_555 1_555
I2J Cu3 1_555 1_555
I3C Cu2C 1_555 1_555
I3G Cu2 1_555 1_555
I3J Cu1G 1_555 1_555
I4G Cu1 1_555 1_555
Cu1G I4 1_555 1_555
Cu2C I3J 1_555 1_555
Cu2G I3 1_555 1_555
Cu2J I4 1_555 1_555
Cu3J I2 1_555 1_555
Cu3F N3F 1_555 1_555
Cu3C I2C 1_555 1_555
Cu4C I1C 1_555 1_555
Cu4J I1 1_555 1_555
N1C Cu4C 1_555 1_555
N2C Cu2C 1_555 1_555
N3F C1F 1_555 1_555
N3J Cu3J 1_555 1_555
C1F C1 1_555 1_555
H1F C1F 1_555 1_555
H2F C1F 1_555 1_555
C2F C8 1_555 1_555
H3F C2F 1_555 1_555
H4F C2F 1_555 1_555
C3C N1C 1_555 1_555
H5C C3C 1_555 1_555
H6C C3C 1_555 1_555
C4C N1C 1_555 1_555
H7C C4C 1_555 1_555
H8C C4C 1_555 1_555
C5C N1C 1_555 1_555
H9C C5C 1_555 1_555
H10C C5C 1_555 1_555
C6C N2C 1_555 1_555
H11C C6C 1_555 1_555
H12C C6C 1_555 1_555
C7C N2C 1_555 1_555
H13C C7C 1_555 1_555
H14C C7C 1_555 1_555
C8F C2 1_555 1_555
H15F C8F 1_555 1_555
H16F C8F 1_555 1_555
C9C N2C 1_555 1_555
H17C C9C 1_555 1_555
H18C C9C 1_555 1_555
I2 Cu4 1_555 1_555
I4 Cu2 1_555 1_555
C3 C9 1_555 1_555
C4 C7 1_555 1_555
C5 C6 1_555 1_555
I1J Cu3J 1_555 1_555
I1J Cu4J 1_555 1_555
I1G Cu4C 1_555 1_555
I2C Cu4C 1_555 1_555
I2J Cu3J 1_555 1_555
I2J Cu4J 1_555 1_555
I3C Cu2J 1_555 1_555
I3G Cu1G 1_555 1_555
I3G Cu2G 1_555 1_555
I3J Cu2J 1_555 1_555
I4G Cu1G 1_555 1_555
I4G Cu2C 1_555 1_555
I4G Cu2G 1_555 1_555
N3F C2F 1_555 1_555
N3F C8F 1_555 1_555
C3C C9C 1_555 1_555
C4C C7C 1_555 1_555
C5C C6C 1_555 1_555

#END
