
#######################################################################
#
#                 Cambridge Crystallographic Data Centre
#                                CCDC 
#
#######################################################################
#
# If this CIF has been generated from an entry in the Cambridge 
# Structural Database, then it will include bibliographic, chemical, 
# crystal, experimental, refinement or atomic coordinate data resulting 
# from the CCDC's data processing and validation procedures.
#
#######################################################################

data_UMUYIL
_symmetry_cell_setting           monoclinic
_symmetry_space_group_name_H-M   'C 2/c'
_symmetry_Int_Tables_number      15
_space_group_name_Hall           '-C 2yn'
loop_
_symmetry_equiv_pos_site_id
_symmetry_equiv_pos_as_xyz
1 x,y,z
2 -x,y,1/2-z
3 1/2+x,1/2+y,z
4 1/2-x,1/2+y,1/2-z
5 -x,-y,-z
6 x,-y,1/2+z
7 1/2-x,1/2-y,-z
8 1/2+x,1/2-y,1/2+z
_cell_length_a                   18.746(2)
_cell_length_b                   11.9969(15)
_cell_length_c                   11.6190(16)
_cell_angle_alpha                90
_cell_angle_beta                 121.424(2)
_cell_angle_gamma                90
_cell_volume                     2229.79
loop_
_atom_site_label
_atom_site_type_symbol
_atom_site_fract_x
_atom_site_fract_y
_atom_site_fract_z
Cu1 Cu 0.2500 0.2500 0.5000
Cl1 Cl 0.30881(9) 0.14262(14) 0.68855(16)
S1 S 0.55004(10) 0.10507(14) 0.4044(2)
N1 N 0.3411(3) 0.2098(4) 0.4690(5)
C1 C 0.5000 0.0285(6) 0.2500
H1 H 0.4583 -0.0194 0.2498
C2 C 0.4205(3) 0.2369(6) 0.5520(6)
H2 H 0.4340 0.2766 0.6295
C3 C 0.4836(4) 0.2092(5) 0.5324(7)
H3 H 0.5380 0.2331 0.5920
C4 C 0.4646(3) 0.1480(5) 0.4177(6)
C5 C 0.3832(4) 0.1182(5) 0.3312(7)
H4 H 0.3679 0.0774 0.2537
C6 C 0.3236(4) 0.1529(5) 0.3594(7)
H5 H 0.2679 0.1358 0.2977
Cu1A Cu 0.7500 0.2500 0.0000
Cl1F Cl 0.19119(9) 0.35738(14) 0.31145(16)
S1A S 0.44996(10) 0.10507(14) 0.0956(2)
N1A N 0.6589(3) 0.2098(4) 0.0310(5)
N1F N 0.1589(3) 0.2902(4) 0.5310(5)
H1A H 0.5417 -0.0194 0.2502
C2A C 0.5795(3) 0.2369(6) -0.0520(6)
H2A H 0.5660 0.2766 -0.1295
C3A C 0.5164(4) 0.2092(5) -0.0324(7)
H3A H 0.4620 0.2331 -0.0920
C4A C 0.5354(3) 0.1480(5) 0.0823(6)
C5A C 0.6168(4) 0.1182(5) 0.1688(7)
H4A H 0.6321 0.0774 0.2463
C6A C 0.6764(4) 0.1529(5) 0.1406(7)
H5A H 0.7321 0.1358 0.2023
loop_
_geom_bond_atom_site_label_1
_geom_bond_atom_site_label_2
_geom_bond_site_symmetry_1
_geom_bond_site_symmetry_2
Cu1 Cl1 1_555 1_555
S1 C1 1_555 1_555
N1 Cu1 1_555 1_555
C1 H1 1_555 1_555
C2 N1 1_555 1_555
H2 C2 1_555 1_555
C3 C2 1_555 1_555
H3 C3 1_555 1_555
C4 S1 1_555 1_555
C5 C4 1_555 1_555
H4 C5 1_555 1_555
C6 N1 1_555 1_555
H5 C6 1_555 1_555
Cu1A N1A 1_555 1_555
Cl1F Cu1 1_555 1_555
S1A C1 1_555 1_555
N1A C2A 1_555 1_555
N1F Cu1 1_555 1_555
H1A C1 1_555 1_555
C2A H2A 1_555 1_555
C3A C2A 1_555 1_555
H3A C3A 1_555 1_555
C4A S1A 1_555 1_555
C5A C4A 1_555 1_555
H4A C5A 1_555 1_555
C6A N1A 1_555 1_555
H5A C6A 1_555 1_555
C3 C4 1_555 1_555
C5 C6 1_555 1_555
C3A C4A 1_555 1_555
C5A C6A 1_555 1_555

#END
