
#######################################################################
#
#                 Cambridge Crystallographic Data Centre
#                                CCDC 
#
#######################################################################
#
# If this CIF has been generated from an entry in the Cambridge 
# Structural Database, then it will include bibliographic, chemical, 
# crystal, experimental, refinement or atomic coordinate data resulting 
# from the CCDC's data processing and validation procedures.
#
#######################################################################

data_UMUZOS
_symmetry_cell_setting           orthorhombic
_symmetry_space_group_name_H-M   'P 21 21 21'
_symmetry_Int_Tables_number      19
_space_group_name_Hall           'P 2ac 2ab'
loop_
_symmetry_equiv_pos_site_id
_symmetry_equiv_pos_as_xyz
1 x,y,z
2 1/2-x,-y,1/2+z
3 -x,1/2+y,1/2-z
4 1/2+x,1/2-y,-z
_cell_length_a                   21.746(4)
_cell_length_b                   8.9540(18)
_cell_length_c                   6.1590(12)
_cell_angle_alpha                90
_cell_angle_beta                 90
_cell_angle_gamma                90
_cell_volume                     1199.24
loop_
_atom_site_label
_atom_site_type_symbol
_atom_site_fract_x
_atom_site_fract_y
_atom_site_fract_z
Cd1 Cd 0.048408(13) 0.18762(3) 0.69408(5)
S1 S 0.20738(7) -0.11905(19) 1.0297(3)
S2 S 0.18404(7) 0.5305(2) 0.3174(3)
O1 O 0.03046(13) -0.0567(3) 0.7778(6)
O2 O 0.05621(14) -0.2949(3) 0.7543(5)
O3 O 0.05113(15) 0.1689(4) 0.3210(5)
O4 O 0.06723(18) 0.2972(5) 0.0155(5)
N1 N 0.14605(16) 0.0429(4) 0.7339(7)
H1 H 0.1761 0.0821 0.6481
N2 N 0.09597(16) 0.4035(4) 0.5572(6)
H2 H 0.0876 0.4812 0.6477
C1 C 0.13418(19) -0.1136(5) 0.6757(9)
H3 H 0.1377 -0.1239 0.5178
C2 C 0.1842(2) -0.2130(5) 0.7843(10)
H4 H 0.2191 -0.2253 0.6879
H5 H 0.1676 -0.3109 0.8178
C3 C 0.1639(3) 0.0489(6) 0.9603(10)
H6 H 0.1276 0.0557 1.0510
H7 H 0.1890 0.1367 0.9860
C4 C 0.0686(2) -0.1581(5) 0.7436(7)
C5 C 0.0676(2) 0.4332(5) 0.3456(7)
H8 H 0.0261 0.4717 0.3708
C6 C 0.1051(2) 0.5554(6) 0.2316(8)
H9 H 0.0902 0.6535 0.2732
H10 H 0.1017 0.5455 0.0752
C7 C 0.1623(2) 0.3951(6) 0.5247(9)
H11 H 0.1738 0.2953 0.4787
H12 H 0.1835 0.4171 0.6595
C8 C 0.06213(19) 0.2870(5) 0.2164(7)
Cd1_2 Cd 0.048408(13) 0.18762(3) -0.30592(5)
Cd1B Cd -0.048408(13) -0.31238(3) 0.80592(5)
O2B O -0.05621(14) 0.2051(3) 0.7457(5)
O4_2 O 0.06723(18) 0.2972(5) 1.0155(5)
loop_
_geom_bond_atom_site_label_1
_geom_bond_atom_site_label_2
_geom_bond_site_symmetry_1
_geom_bond_site_symmetry_2
Cd1 O1 1_555 1_555
S1 C2 1_555 1_555
S2 C6 1_555 1_555
O1 C4 1_555 1_555
O2 C4 1_555 1_555
O3 Cd1 1_555 1_555
O4 C8 1_555 1_555
N1 Cd1 1_555 1_555
H1 N1 1_555 1_555
N2 Cd1 1_555 1_555
H2 N2 1_555 1_555
C1 N1 1_555 1_555
H3 C1 1_555 1_555
C2 C1 1_555 1_555
H4 C2 1_555 1_555
H5 C2 1_555 1_555
C3 S1 1_555 1_555
H6 C3 1_555 1_555
H7 C3 1_555 1_555
C4 C1 1_555 1_555
C5 N2 1_555 1_555
H8 C5 1_555 1_555
C6 C5 1_555 1_555
H9 C6 1_555 1_555
H10 C6 1_555 1_555
C7 S2 1_555 1_555
H11 C7 1_555 1_555
H12 C7 1_555 1_555
C8 O3 1_555 1_555
Cd1_2 O4 1_555 1_555
Cd1B O2 1_555 1_555
O2B Cd1 1_555 1_555
O4_2 Cd1 1_555 1_555
N1 C3 1_555 1_555
N2 C7 1_555 1_555
C5 C8 1_555 1_555

#END
