
#######################################################################
#
#                 Cambridge Crystallographic Data Centre
#                                CCDC 
#
#######################################################################
#
# If this CIF has been generated from an entry in the Cambridge 
# Structural Database, then it will include bibliographic, chemical, 
# crystal, experimental, refinement or atomic coordinate data resulting 
# from the CCDC's data processing and validation procedures.
#
#######################################################################

data_UMUZUY
_symmetry_cell_setting           monoclinic
_symmetry_space_group_name_H-M   'P 21'
_symmetry_Int_Tables_number      4
_space_group_name_Hall           'P 2yb'
loop_
_symmetry_equiv_pos_site_id
_symmetry_equiv_pos_as_xyz
1 x,y,z
2 -x,1/2+y,-z
_cell_length_a                   5.897(6)
_cell_length_b                   10.146(11)
_cell_length_c                   10.077(10)
_cell_angle_alpha                90
_cell_angle_beta                 90.165(6)
_cell_angle_gamma                90
_cell_volume                     602.914
loop_
_atom_site_label
_atom_site_type_symbol
_atom_site_fract_x
_atom_site_fract_y
_atom_site_fract_z
Ni1 Ni 0.87205(19) 0.52078(15) 0.57660(13)
O1 O 0.5214(10) 0.5349(10) 0.5451(6)
O2 O 0.1931(10) 0.5027(15) 0.6569(8)
O3 O 0.9434(12) 0.7142(8) 0.5220(8)
O4 O 1.1634(11) 0.8257(8) 0.3771(9)
N1 N 0.7517(13) 0.5594(8) 0.7705(9)
H1 H 0.8477 0.5229 0.8310
N2 N 0.9746(13) 0.4881(8) 0.3834(8)
H2 H 1.0725 0.4188 0.3859
S1 S 0.9200(6) 0.4841(3) 0.1245(3)
S2 S 0.4966(6) 0.7141(4) 0.9262(4)
C1 C 0.718(2) 0.7001(13) 0.8020(12)
H3 H 0.6743 0.7478 0.7226
H4 H 0.8576 0.7378 0.8355
C2 C 0.4035(16) 0.5489(12) 0.9034(11)
H5 H 0.4399 0.4960 0.9807
H6 H 0.2407 0.5464 0.8897
C3 C 0.5278(14) 0.4958(12) 0.7805(9)
H7 H 0.5513 0.4009 0.7925
C4 C 0.4038(13) 0.5169(16) 0.6482(10)
C5 C 0.8001(18) 0.4540(14) 0.2887(10)
H8 H 0.6665 0.5080 0.3024
H9 H 0.7577 0.3621 0.2981
C6 C 1.054(3) 0.6306(15) 0.1917(13)
H10 H 1.1923 0.6501 0.1437
H11 H 0.9527 0.7057 0.1842
C7 C 1.1058(19) 0.6025(11) 0.3364(11)
H12 H 1.2670 0.5799 0.3429
C8 C 1.0666(16) 0.7206(12) 0.4186(11)
Ni1_2 Ni -0.12795(19) 0.52078(15) 0.57660(13)
Ni1A Ni 1.12795(19) 1.02078(15) 0.42340(13)
O2_2 O 1.1931(10) 0.5027(15) 0.6569(8)
O4A O 0.8366(11) 0.3257(8) 0.6229(9)
loop_
_geom_bond_atom_site_label_1
_geom_bond_atom_site_label_2
_geom_bond_site_symmetry_1
_geom_bond_site_symmetry_2
Ni1 O1 1_555 1_555
O1 C4 1_555 1_555
O2 C4 1_555 1_555
O3 Ni1 1_555 1_555
O4 C8 1_555 1_555
N1 Ni1 1_555 1_555
H1 N1 1_555 1_555
N2 Ni1 1_555 1_555
H2 N2 1_555 1_555
S1 C5 1_555 1_555
S2 C1 1_555 1_555
C1 N1 1_555 1_555
H3 C1 1_555 1_555
H4 C1 1_555 1_555
C2 S2 1_555 1_555
H5 C2 1_555 1_555
H6 C2 1_555 1_555
C3 N1 1_555 1_555
H7 C3 1_555 1_555
C4 C3 1_555 1_555
C5 N2 1_555 1_555
H8 C5 1_555 1_555
H9 C5 1_555 1_555
C6 S1 1_555 1_555
H10 C6 1_555 1_555
H11 C6 1_555 1_555
C7 N2 1_555 1_555
H12 C7 1_555 1_555
C8 O3 1_555 1_555
Ni1_2 O2 1_555 1_555
Ni1A O4 1_555 1_555
O2_2 Ni1 1_555 1_555
O4A Ni1 1_555 1_555
C2 C3 1_555 1_555
C6 C7 1_555 1_555
C7 C8 1_555 1_555

#END
