
#######################################################################
#
#                 Cambridge Crystallographic Data Centre
#                                CCDC 
#
#######################################################################
#
# If this CIF has been generated from an entry in the Cambridge 
# Structural Database, then it will include bibliographic, chemical, 
# crystal, experimental, refinement or atomic coordinate data resulting 
# from the CCDC's data processing and validation procedures.
#
#######################################################################

data_UNADET
_symmetry_cell_setting           monoclinic
_symmetry_space_group_name_H-M   'P 21'
_symmetry_Int_Tables_number      4
_space_group_name_Hall           'P 2yb'
loop_
_symmetry_equiv_pos_site_id
_symmetry_equiv_pos_as_xyz
1 x,y,z
2 -x,1/2+y,-z
_cell_length_a                   17.428(4)
_cell_length_b                   13.517(3)
_cell_length_c                   17.588(4)
_cell_angle_alpha                90
_cell_angle_beta                 100.24(3)
_cell_angle_gamma                90
_cell_volume                     4077.29
loop_
_atom_site_label
_atom_site_type_symbol
_atom_site_fract_x
_atom_site_fract_y
_atom_site_fract_z
Zn1 Zn 0.691015(18) 0.68164(2) 0.129031(18)
O1 O 0.68088(11) 0.62822(15) 0.02390(11)
O2 O 0.62078(11) 0.58560(15) 0.16864(12)
N1 N 0.39305(8) 0.29519(11) -0.11417(9)
C1 C 0.43753(10) 0.30602(14) -0.04080(9)
H1 H 0.4262 0.2683 0.0001
C2 C 0.49890(11) 0.37317(18) -0.02851(12)
H2 H 0.5287 0.3804 0.0206
C3 C 0.51578(12) 0.42948(17) -0.08958(16)
C4 C 0.47129(13) 0.41865(15) -0.16295(14)
H3 H 0.4826 0.4563 -0.2038
C5 C 0.40992(11) 0.35151(13) -0.17524(9)
H4 H 0.3802 0.3443 -0.2243
C6 C 0.57983(17) 0.5035(2) -0.07000(19)
H5 H 0.6001 0.5140 -0.0181
C7 C 0.60929(17) 0.5548(2) -0.12104(18)
H6 H 0.5887 0.5403 -0.1723
C8 C 0.66951(7) 0.63122(10) -0.10997(8)
C9 C 0.70297(10) 0.66629(13) -0.03733(8)
C10 C 0.76116(11) 0.73775(15) -0.03021(12)
C11 C 0.78591(11) 0.77412(15) -0.09573(16)
H7 H 0.8248 0.8219 -0.0910
C12 C 0.75245(12) 0.73905(15) -0.16836(13)
C13 C 0.69425(10) 0.66760(13) -0.17548(9)
H8 H 0.6719 0.6441 -0.2241
C14 C 0.77615(19) 0.7789(2) -0.24426(17)
C15 C 0.7583(4) 0.7204(4) -0.3127(2)
H9 H 0.7766 0.7535 -0.3544
H10 H 0.7029 0.7111 -0.3258
H11 H 0.7835 0.6572 -0.3039
C16 C 0.8647(2) 0.7766(7) -0.2355(3)
H12 H 0.8799 0.8027 -0.2813
H13 H 0.8827 0.7097 -0.2277
H14 H 0.8872 0.8161 -0.1918
C17 C 0.7618(4) 0.8841(5) -0.2598(4)
H15 H 0.7818 0.9025 -0.3053
H16 H 0.7875 0.9222 -0.2166
H17 H 0.7068 0.8967 -0.2677
C18 C 0.80220(17) 0.7796(2) 0.03976(17)
H18 H 0.8441 0.8212 0.0370
C19 C 0.83286(18) 0.8046(2) 0.17845(17)
H19 H 0.8028 0.8584 0.1964
C20 C 0.91117(19) 0.8458(3) 0.17141(19)
H20 H 0.9044 0.9030 0.1375
H21 H 0.9405 0.7964 0.1486
C21 C 0.9567(2) 0.8761(3) 0.25062(17)
H22 H 1.0082 0.8986 0.2449
H23 H 0.9302 0.9309 0.2705
C22 C 0.9646(2) 0.7939(3) 0.3066(2)
H24 H 0.9904 0.8172 0.3569
H25 H 0.9962 0.7418 0.2901
C23 C 0.88446(19) 0.7530(3) 0.31281(19)
H26 H 0.8908 0.6965 0.3474
H27 H 0.8554 0.8032 0.3352
C24 C 0.83957(17) 0.7227(2) 0.23813(17)
H28 H 0.8688 0.6689 0.2191
C25 C 0.73862(19) 0.6508(2) 0.30111(19)
H29 H 0.7748 0.6518 0.3469
C26 C 0.66086(8) 0.61223(10) 0.30251(8)
C27 C 0.60338(9) 0.59057(15) 0.23922(8)
C28 C 0.52826(9) 0.56781(17) 0.24995(12)
C29 C 0.51062(9) 0.56672(18) 0.32397(14)
H30 H 0.4604 0.5515 0.3311
C30 C 0.56810(11) 0.58839(19) 0.38726(11)
C31 C 0.64321(10) 0.61114(15) 0.37653(8)
H31 H 0.6817 0.6256 0.4189
C32 C 0.5475(2) 0.5883(3) 0.46983(19)
C33 C 0.4866(3) 0.6636(5) 0.4802(3)
H32 H 0.4759 0.6594 0.5318
H33 H 0.4397 0.6508 0.4438
H34 H 0.5053 0.7287 0.4715
C34 C 0.5073(4) 0.4883(5) 0.4860(4)
H35 H 0.5416 0.4342 0.4809
H36 H 0.4597 0.4806 0.4496
H37 H 0.4960 0.4892 0.5375
C35 C 0.6136(3) 0.5892(5) 0.5324(2)
H38 H 0.6493 0.5376 0.5245
H39 H 0.5960 0.5784 0.5805
H40 H 0.6394 0.6520 0.5338
C36 C 0.4627(2) 0.5553(2) 0.1879(2)
H41 H 0.4168 0.5368 0.2041
C37 C 0.45575(19) 0.5655(3) 0.11171(17)
H42 H 0.5005 0.5764 0.0909
C38 C 0.37899(9) 0.56007(14) 0.05813(9)
C39 C 0.30749(10) 0.53068(17) 0.07511(9)
H43 H 0.3032 0.5145 0.1256
C40 C 0.24245(10) 0.5255(2) 0.01667(10)
H44 H 0.1946 0.5058 0.0280
N2 N 0.24891(10) 0.5497(2) -0.05874(9)
C41 C 0.32041(10) 0.57908(19) -0.07572(9)
H45 H 0.3247 0.5953 -0.1262
C42 C 0.38545(10) 0.58427(16) -0.01728(9)
H46 H 0.4333 0.6039 -0.0286
N5 N 0.78432(14) 0.7628(2) 0.10658(14)
N6 N 0.75945(13) 0.68388(18) 0.23877(14)
Zn1A Zn 0.308985(18) 0.18164(2) -0.129031(18)
N1A N 0.60695(8) 0.79519(11) 0.11417(9)
Zn2 Zn 0.803062(17) 0.39459(2) 0.368134(17)
O3 O 0.81677(11) 0.45914(14) 0.47019(11)
O4 O 0.87740(11) 0.48233(15) 0.33011(11)
C43 C 0.93056(18) 0.5720(2) 0.56784(17)
H47 H 0.9090 0.5611 0.5163
N3 N 1.12010(8) 0.77727(11) 0.60816(8)
C44 C 1.09977(11) 0.72468(14) 0.66953(9)
H48 H 1.1277 0.7338 0.7192
C45 C 1.03777(13) 0.65851(16) 0.65660(13)
H49 H 1.0242 0.6233 0.6977
C46 C 0.99609(12) 0.64494(17) 0.58229(16)
C47 C 1.01642(12) 0.69753(18) 0.52091(12)
H50 H 0.9885 0.6885 0.4712
C48 C 1.07842(10) 0.76370(14) 0.53384(8)
H51 H 1.0920 0.7989 0.4928
C49 C 0.89947(17) 0.5213(2) 0.61855(17)
H52 H 0.9215 0.5329 0.6699
C50 C 0.83558(8) 0.44945(10) 0.60677(8)
C51 C 0.79394(9) 0.42140(13) 0.53515(8)
C52 C 0.73343(10) 0.35347(15) 0.53070(11)
C53 C 0.71455(11) 0.31360(15) 0.59786(13)
H53 H 0.6741 0.2681 0.5949
C54 C 0.75618(12) 0.34165(15) 0.66947(11)
C55 C 0.81670(10) 0.40958(13) 0.67393(8)
H54 H 0.8446 0.4283 0.7218
C56 C 0.7296(3) 0.2962(3) 0.74305(19)
C57 C 0.6914(3) 0.1997(4) 0.7273(2)
H55 H 0.6798 0.1727 0.7744
H56 H 0.7255 0.1556 0.7064
H57 H 0.6439 0.2078 0.6907
C58 C 0.7292(4) 0.3764(5) 0.8049(3)
H58 H 0.7168 0.3469 0.8508
H59 H 0.6909 0.4256 0.7859
H60 H 0.7797 0.4067 0.8165
C59 C 0.8090(3) 0.2540(5) 0.7945(3)
H61 H 0.7974 0.2249 0.8409
H62 H 0.8454 0.3073 0.8076
H63 H 0.8312 0.2049 0.7655
C60 C 0.68276(16) 0.3291(2) 0.45651(17)
H64 H 0.6368 0.2958 0.4598
C61 C 0.63340(17) 0.3376(2) 0.31985(18)
H65 H 0.6106 0.4033 0.3082
C62 C 0.56687(18) 0.2684(3) 0.32673(19)
H66 H 0.5409 0.2901 0.3682
H67 H 0.5867 0.2020 0.3386
C63 C 0.5081(2) 0.2681(3) 0.2487(2)
H68 H 0.4666 0.2212 0.2519
H69 H 0.4849 0.3332 0.2397
C64 C 0.5483(2) 0.2401(3) 0.1806(2)
H70 H 0.5685 0.1731 0.1876
H71 H 0.5106 0.2421 0.1329
C65 C 0.61547(18) 0.3119(3) 0.17529(17)
H72 H 0.5953 0.3785 0.1657
H73 H 0.6412 0.2930 0.1329
C66 C 0.67399(16) 0.3088(2) 0.25182(16)
H74 H 0.6925 0.2405 0.2601
C67 C 0.76371(16) 0.4092(2) 0.19755(17)
H75 H 0.7277 0.4030 0.1520
C68 C 0.83769(8) 0.45896(10) 0.19096(8)
C69 C 0.89335(9) 0.48018(14) 0.25583(9)
C70 C 0.96695(9) 0.51295(17) 0.24730(13)
C71 C 0.98487(9) 0.52450(18) 0.17390(15)
H76 H 1.0341 0.5464 0.1682
C72 C 0.92920(11) 0.50328(18) 0.10903(12)
C73 C 0.85561(10) 0.47051(15) 0.11755(8)
H77 H 0.8184 0.4563 0.0741
C74 C 0.9508(2) 0.5145(3) 0.0275(2)
C75 C 1.0168(2) 0.4497(4) 0.0214(2)
H78 H 1.0580 0.4611 0.0646
H79 H 1.0352 0.4637 -0.0257
H80 H 1.0004 0.3819 0.0214
C76 C 0.9767(3) 0.6190(3) 0.0170(3)
H81 H 1.0215 0.6337 0.0556
H82 H 0.9352 0.6638 0.0222
H83 H 0.9900 0.6261 -0.0334
C77 C 0.8838(3) 0.4945(5) -0.0403(2)
H84 H 0.8652 0.4281 -0.0367
H85 H 0.9023 0.5025 -0.0882
H86 H 0.8421 0.5402 -0.0383
C78 C 1.03507(18) 0.5225(3) 0.31184(18)
H87 H 1.0785 0.5526 0.2980
C79 C 1.0438(2) 0.4968(4) 0.3818(2)
H88 H 1.0003 0.4695 0.3976
C80 C 1.11641(12) 0.5047(2) 0.44307(14)
C81 C 1.17315(15) 0.5725(3) 0.4313(2)
H89 H 1.1632 0.6169 0.3904
C82 C 1.24484(15) 0.5739(4) 0.4808(2)
H90 H 1.2828 0.6192 0.4729
N4 N 1.25978(12) 0.5075(5) 0.54201(16)
C83 C 1.20304(16) 0.4397(4) 0.5538(2)
H91 H 1.2130 0.3953 0.5947
C84 C 1.13135(15) 0.4384(3) 0.5043(2)
H92 H 1.0934 0.3930 0.5121
N7 N 0.69425(13) 0.34812(18) 0.38881(13)
N8 N 0.74314(12) 0.37362(18) 0.25775(13)
Zn2A Zn 1.196938(17) 0.89459(2) 0.631866(17)
N3A N 0.87990(8) 0.27727(11) 0.39184(8)
C85 C 0.3997(5) 0.3816(5) 0.6286(4)
H93 H 0.4391 0.3980 0.5988
H94 H 0.3554 0.3537 0.5952
H95 H 0.4202 0.3343 0.6677
O5 O 0.3753(3) 0.4739(4) 0.6662(3)
H96 H 0.3310 0.4894 0.6455
O6 O 0.10580(17) 0.6136(2) 0.84739(18)
H97 H 0.1476 0.5898 0.8680
C86 C 0.0988(4) 0.7125(4) 0.8761(3)
H98 H 0.1111 0.7121 0.9315
H99 H 0.0463 0.7357 0.8599
H100 H 0.1342 0.7556 0.8561
loop_
_geom_bond_atom_site_label_1
_geom_bond_atom_site_label_2
_geom_bond_site_symmetry_1
_geom_bond_site_symmetry_2
Zn1 O1 1_555 1_555
Zn2 O3 1_555 1_555
O1 C9 1_555 1_555
O2 Zn1 1_555 1_555
O3 C51 1_555 1_555
O4 Zn2 1_555 1_555
N1 C1 1_555 1_555
C1 H1 1_555 1_555
C2 C1 1_555 1_555
H2 C2 1_555 1_555
C3 C2 1_555 1_555
C4 C3 1_555 1_555
H3 C4 1_555 1_555
C5 N1 1_555 1_555
H4 C5 1_555 1_555
C6 C3 1_555 1_555
H5 C6 1_555 1_555
C7 C6 1_555 1_555
H6 C7 1_555 1_555
C8 C7 1_555 1_555
C9 C8 1_555 1_555
C10 C9 1_555 1_555
C11 C10 1_555 1_555
H7 C11 1_555 1_555
C12 C11 1_555 1_555
C13 C8 1_555 1_555
H8 C13 1_555 1_555
C14 C12 1_555 1_555
C15 C14 1_555 1_555
H9 C15 1_555 1_555
H10 C15 1_555 1_555
H11 C15 1_555 1_555
C16 C14 1_555 1_555
H12 C16 1_555 1_555
H13 C16 1_555 1_555
H14 C16 1_555 1_555
C17 C14 1_555 1_555
H15 C17 1_555 1_555
H16 C17 1_555 1_555
H17 C17 1_555 1_555
C18 C10 1_555 1_555
H18 C18 1_555 1_555
C19 H19 1_555 1_555
C20 C19 1_555 1_555
H20 C20 1_555 1_555
H21 C20 1_555 1_555
C21 C20 1_555 1_555
H22 C21 1_555 1_555
H23 C21 1_555 1_555
C22 C21 1_555 1_555
H24 C22 1_555 1_555
H25 C22 1_555 1_555
C23 C22 1_555 1_555
H26 C23 1_555 1_555
H27 C23 1_555 1_555
C24 C19 1_555 1_555
H28 C24 1_555 1_555
C25 H29 1_555 1_555
C26 C25 1_555 1_555
C27 O2 1_555 1_555
C28 C27 1_555 1_555
C29 C28 1_555 1_555
H30 C29 1_555 1_555
C30 C29 1_555 1_555
C31 C26 1_555 1_555
H31 C31 1_555 1_555
C32 C30 1_555 1_555
C33 C32 1_555 1_555
H32 C33 1_555 1_555
H33 C33 1_555 1_555
H34 C33 1_555 1_555
C34 C32 1_555 1_555
H35 C34 1_555 1_555
H36 C34 1_555 1_555
H37 C34 1_555 1_555
C35 C32 1_555 1_555
H38 C35 1_555 1_555
H39 C35 1_555 1_555
H40 C35 1_555 1_555
C36 C28 1_555 1_555
H41 C36 1_555 1_555
C37 C36 1_555 1_555
H42 C37 1_555 1_555
C38 C37 1_555 1_555
C39 C38 1_555 1_555
H43 C39 1_555 1_555
C40 C39 1_555 1_555
H44 C40 1_555 1_555
N2 C40 1_555 1_555
C41 N2 1_555 1_555
H45 C41 1_555 1_555
C42 C38 1_555 1_555
H46 C42 1_555 1_555
C43 H47 1_555 1_555
N3 C44 1_555 1_555
C44 H48 1_555 1_555
C45 C44 1_555 1_555
H49 C45 1_555 1_555
C46 C43 1_555 1_555
C47 C46 1_555 1_555
H50 C47 1_555 1_555
C48 N3 1_555 1_555
H51 C48 1_555 1_555
C49 C43 1_555 1_555
H52 C49 1_555 1_555
C50 C49 1_555 1_555
C51 C50 1_555 1_555
C52 C51 1_555 1_555
C53 C52 1_555 1_555
H53 C53 1_555 1_555
C54 C53 1_555 1_555
C55 C50 1_555 1_555
H54 C55 1_555 1_555
C56 C54 1_555 1_555
C57 C56 1_555 1_555
H55 C57 1_555 1_555
H56 C57 1_555 1_555
H57 C57 1_555 1_555
C58 C56 1_555 1_555
H58 C58 1_555 1_555
H59 C58 1_555 1_555
H60 C58 1_555 1_555
C59 C56 1_555 1_555
H61 C59 1_555 1_555
H62 C59 1_555 1_555
H63 C59 1_555 1_555
C60 C52 1_555 1_555
H64 C60 1_555 1_555
C61 H65 1_555 1_555
C62 C61 1_555 1_555
H66 C62 1_555 1_555
H67 C62 1_555 1_555
C63 C62 1_555 1_555
H68 C63 1_555 1_555
H69 C63 1_555 1_555
C64 C63 1_555 1_555
H70 C64 1_555 1_555
H71 C64 1_555 1_555
C65 C64 1_555 1_555
H72 C65 1_555 1_555
H73 C65 1_555 1_555
C66 C61 1_555 1_555
H74 C66 1_555 1_555
C67 H75 1_555 1_555
C68 C67 1_555 1_555
C69 O4 1_555 1_555
C70 C69 1_555 1_555
C71 C70 1_555 1_555
H76 C71 1_555 1_555
C72 C71 1_555 1_555
C73 C68 1_555 1_555
H77 C73 1_555 1_555
C74 C72 1_555 1_555
C75 C74 1_555 1_555
H78 C75 1_555 1_555
H79 C75 1_555 1_555
H80 C75 1_555 1_555
C76 C74 1_555 1_555
H81 C76 1_555 1_555
H82 C76 1_555 1_555
H83 C76 1_555 1_555
C77 C74 1_555 1_555
H84 C77 1_555 1_555
H85 C77 1_555 1_555
H86 C77 1_555 1_555
C78 C70 1_555 1_555
H87 C78 1_555 1_555
C79 C78 1_555 1_555
H88 C79 1_555 1_555
C80 C79 1_555 1_555
C81 C80 1_555 1_555
H89 C81 1_555 1_555
C82 C81 1_555 1_555
H90 C82 1_555 1_555
N4 C82 1_555 1_555
C83 N4 1_555 1_555
H91 C83 1_555 1_555
C84 C80 1_555 1_555
H92 C84 1_555 1_555
N5 Zn1 1_555 1_555
N6 Zn1 1_555 1_555
N7 Zn2 1_555 1_555
N8 Zn2 1_555 1_555
C85 H93 1_555 1_555
H94 C85 1_555 1_555
H95 C85 1_555 1_555
O5 C85 1_555 1_555
H96 O5 1_555 1_555
O6 H97 1_555 1_555
C86 O6 1_555 1_555
H98 C86 1_555 1_555
H99 C86 1_555 1_555
H100 C86 1_555 1_555
Zn1A N1 1_555 1_555
Zn2A N3 1_555 1_555
N1A Zn1 1_555 1_555
N3A Zn2 1_555 1_555
C4 C5 1_555 1_555
C12 C13 1_555 1_555
C18 N5 1_555 1_555
C19 N5 1_555 1_555
C23 C24 1_555 1_555
C24 N6 1_555 1_555
C25 N6 1_555 1_555
C26 C27 1_555 1_555
C30 C31 1_555 1_555
C41 C42 1_555 1_555
C45 C46 1_555 1_555
C47 C48 1_555 1_555
C54 C55 1_555 1_555
C60 N7 1_555 1_555
C61 N7 1_555 1_555
C65 C66 1_555 1_555
C66 N8 1_555 1_555
C67 N8 1_555 1_555
C68 C69 1_555 1_555
C72 C73 1_555 1_555
C83 C84 1_555 1_555

#END
