
#######################################################################
#
#                 Cambridge Crystallographic Data Centre
#                                CCDC 
#
#######################################################################
#
# If this CIF has been generated from an entry in the Cambridge 
# Structural Database, then it will include bibliographic, chemical, 
# crystal, experimental, refinement or atomic coordinate data resulting 
# from the CCDC's data processing and validation procedures.
#
#######################################################################

data_UNADIX
_symmetry_cell_setting           orthorhombic
_symmetry_space_group_name_H-M   'F d d 2'
_symmetry_Int_Tables_number      43
_space_group_name_Hall           'F 2 -2d'
loop_
_symmetry_equiv_pos_site_id
_symmetry_equiv_pos_as_xyz
1 x,y,z
2 -x,-y,z
3 1/4+x,1/4-y,1/4+z
4 1/4-x,1/4+y,1/4+z
5 x,1/2+y,1/2+z
6 -x,1/2-y,1/2+z
7 1/4+x,3/4-y,3/4+z
8 1/4-x,3/4+y,3/4+z
9 1/2+x,y,1/2+z
10 1/2-x,-y,1/2+z
11 3/4+x,1/4-y,3/4+z
12 3/4-x,1/4+y,3/4+z
13 1/2+x,1/2+y,z
14 1/2-x,1/2-y,z
15 3/4+x,3/4-y,1/4+z
16 3/4-x,3/4+y,1/4+z
_cell_length_a                   25.807(5)
_cell_length_b                   29.405(6)
_cell_length_c                   19.637(4)
_cell_angle_alpha                90
_cell_angle_beta                 90
_cell_angle_gamma                90
_cell_volume                     14901.6
loop_
_atom_site_label
_atom_site_type_symbol
_atom_site_fract_x
_atom_site_fract_y
_atom_site_fract_z
Zn1 Zn 0.82821(4) 0.45123(3) 0.33573(4)
Zn2 Zn 0.68566(4) 0.43537(3) 0.08614(5)
Zn3 Zn 0.74542(5) 0.50338(5) -0.03295(8)
C1 C 0.8967(6) 0.6518(6) 0.1977(7)
C2 C 0.8178(4) 0.5490(3) 0.3695(5)
C3 C 0.8567(4) 0.6029(4) 0.2891(5)
H1 H 0.8552 0.5795 0.2572
C4 C 0.8384(4) 0.5958(3) 0.3539(4)
C5 C 0.8378(4) 0.6306(3) 0.4015(4)
C6 C 0.8193(4) 0.6242(3) 0.4739(5)
C7 C 0.8691(3) 0.4120(3) 0.1388(4)
C8 C 0.8542(3) 0.4419(3) 0.1989(4)
C9 C 0.9028(4) 0.3559(3) 0.0322(4)
C10 C 0.9085(4) 0.3790(3) 0.1494(4)
H2 H 0.9233 0.3759 0.1924
C11 C 0.8649(3) 0.3886(3) 0.0224(4)
H3 H 0.8512 0.3925 -0.0210
C12 C 0.8466(3) 0.4158(3) 0.0754(4)
C13 C 0.9166(4) 0.3266(3) -0.0275(5)
C14 C 0.8585(4) 0.6723(3) 0.3836(5)
H4 H 0.8581 0.6962 0.4145
C15 C 0.8777(4) 0.6456(4) 0.2709(5)
C16 C 0.8798(5) 0.6784(4) 0.3195(5)
C17 C 0.7987(3) 0.4439(3) 0.0602(5)
C18 C 0.9250(3) 0.3514(3) 0.0965(4)
C19 C 0.9680(4) 0.3191(3) 0.1131(4)
C20 C 0.9135(7) 0.7193(5) 0.3046(6)
O1 O 0.7605(3) 0.4352(3) 0.0970(4)
O2 O 0.8014(3) 0.4700(2) 0.0125(4)
O3 O 0.9266(4) 0.2859(3) -0.0178(4)
O4 O 0.9147(3) 0.3470(3) -0.0838(3)
O5 O 0.8416(4) 0.5932(4) 0.5064(4)
O6 O 0.7839(6) 0.6485(4) 0.4955(5)
O7 O 0.7806(4) 0.5455(3) 0.4108(5)
O8 O 0.8391(3) 0.5160(3) 0.3392(5)
O9 O 0.8939(9) 0.6878(6) 0.1731(7)
O10 O 0.8609(2) 0.4249(2) 0.2567(3)
O11 O 1.0073(3) 0.3208(3) 0.0738(4)
O12 O 0.9632(3) 0.2953(3) 0.1637(3)
O13 O 0.9039(6) 0.7534(3) 0.3266(7)
O14 O 0.9541(5) 0.7134(4) 0.2695(6)
O17 O 0.8386(3) 0.4806(3) 0.1863(4)
O18 O 0.9146(9) 0.6204(5) 0.1679(7)
Zn1K Zn 0.92179(4) 0.70123(3) 0.08573(4)
Zn1F Zn 1.07821(4) 0.29877(3) 0.08573(4)
Zn2F Zn 0.93566(4) 0.31463(3) -0.16386(5)
Zn2I Zn 0.81434(4) 0.56463(3) 0.58614(5)
Zn2B Zn 0.93566(4) 0.81463(3) 0.33614(5)
Zn3I Zn 0.75458(5) 0.49662(5) 0.46705(8)
Zn3O Zn 1.00458(5) 0.25338(5) 0.21705(8)
Zn3B Zn 0.99542(5) 0.74662(5) 0.21705(8)
O4N O 0.6647(3) 0.4030(3) 0.1662(3)
O5I O 0.6584(4) 0.4068(4) 0.0064(4)
O7I O 0.7194(4) 0.4545(3) -0.0892(5)
O9O O 0.8561(9) 0.4378(6) 0.4231(7)
O11N O 0.7573(3) 0.4292(3) 0.3238(4)
O12K O 0.7868(3) 0.5453(3) -0.0863(3)
O13J O 0.6539(6) 0.4966(3) 0.0766(7)
O14J O 0.7041(5) 0.5366(4) 0.0195(6)
C21 C 1.010(2) 0.595(2) 0.322(4)
H5 H 1.0069 0.5668 0.2987
H6 H 1.0464 0.6036 0.3238
H7 H 0.9918 0.6184 0.2969
C22 C 0.950(3) 0.661(3) 0.532(4)
H8 H 0.9433 0.6834 0.5661
H9 H 0.9210 0.6575 0.5028
H10 H 0.9802 0.6694 0.5062
C23 C 0.961(2) 0.6146(19) 0.568(3)
H11 H 0.9315 0.6011 0.5903
H12 H 0.9919 0.6141 0.5964
C24 C 0.947(2) 0.5404(19) 0.444(3)
H13 H 0.9289 0.5164 0.4641
C25 C 0.9630(16) 0.5468(15) 0.376(3)
H14 H 0.9584 0.5291 0.3375
C26 C 0.9924(19) 0.630(2) 0.437(3)
H15 H 1.0020 0.6605 0.4397
N1 N 0.9717(15) 0.5955(15) 0.480(2)
N2 N 0.9907(16) 0.5920(17) 0.386(2)
C27 C 0.0053(15) 0.9413(15) 0.523(2)
H16 H -0.0111 0.9195 0.5525
H17 H -0.0207 0.9590 0.5003
H18 H 0.0270 0.9610 0.5496
C28 C 0.1254(16) 1.0441(10) 0.356(2)
H19 H 0.1223 1.0503 0.3077
H20 H 0.1613 1.0411 0.3673
H21 H 0.1104 1.0686 0.3811
C29 C 0.0367(8) 0.9174(8) 0.4727(15)
H22 H 0.0638 0.9002 0.4952
H23 H 0.0153 0.8964 0.4470
C30 C 0.0341(10) 0.9427(10) 0.3657(14)
H24 H 0.0086 0.9226 0.3513
C31 C 0.0624(7) 0.9785(10) 0.3265(13)
H25 H 0.0584 0.9860 0.2808
C32 C 0.0901(7) 0.9776(6) 0.4343(9)
H26 H 0.1087 0.9852 0.4732
N3 N 0.0957(8) 0.9979(7) 0.3730(10)
N4 N 0.0572(8) 0.9479(6) 0.432(3)
O15 O 0.1338(12) 0.9527(8) 0.5871(12)
H27 H 0.1604 0.9430 0.5662
H28 H 0.1125 0.9635 0.5583
O16 O 0.2532(5) 0.9645(5) 0.6957(8)
H29 H 0.2725 0.9800 0.6694
H30 H 0.2246 0.9769 0.7066
loop_
_geom_bond_atom_site_label_1
_geom_bond_atom_site_label_2
_geom_bond_site_symmetry_1
_geom_bond_site_symmetry_2
Zn1 O8 1_555 1_555
Zn2 O1 1_555 1_555
Zn3 O2 1_555 1_555
C1 C15 1_555 1_555
C2 C4 1_555 1_555
C3 H1 1_555 1_555
C4 C3 1_555 1_555
C5 C4 1_555 1_555
C6 C5 1_555 1_555
C7 C8 1_555 1_555
C8 O10 1_555 1_555
C9 C11 1_555 1_555
C10 C7 1_555 1_555
H2 C10 1_555 1_555
C11 H3 1_555 1_555
C12 C7 1_555 1_555
C13 C9 1_555 1_555
C14 C5 1_555 1_555
H4 C14 1_555 1_555
C15 C3 1_555 1_555
C16 C14 1_555 1_555
C17 C12 1_555 1_555
C18 C9 1_555 1_555
C19 C18 1_555 1_555
C20 C16 1_555 1_555
C21 H5 1_555 1_555
H6 C21 1_555 1_555
H7 C21 1_555 1_555
C22 H8 1_555 1_555
H9 C22 1_555 1_555
H10 C22 1_555 1_555
C23 C22 1_555 1_555
H11 C23 1_555 1_555
H12 C23 1_555 1_555
C24 H13 1_555 1_555
C25 C24 1_555 1_555
H14 C25 1_555 1_555
C26 H15 1_555 1_555
C27 H16 1_555 1_555
H17 C27 1_555 1_555
H18 C27 1_555 1_555
C28 H19 1_555 1_555
H20 C28 1_555 1_555
H21 C28 1_555 1_555
C29 C27 1_555 1_555
H22 C29 1_555 1_555
H23 C29 1_555 1_555
C30 H24 1_555 1_555
C31 C30 1_555 1_555
H25 C31 1_555 1_555
C32 H26 1_555 1_555
O1 C17 1_555 1_555
O2 C17 1_555 1_555
O3 C13 1_555 1_555
O4 C13 1_555 1_555
O5 C6 1_555 1_555
O6 C6 1_555 1_555
O7 C2 1_555 1_555
O8 C2 1_555 1_555
O9 C1 1_555 1_555
O10 Zn1 1_555 1_555
O11 C19 1_555 1_555
O12 C19 1_555 1_555
O13 C20 1_555 1_555
O14 C20 1_555 1_555
O15 H27 1_555 1_555
H28 O15 1_555 1_555
O16 H29 1_555 1_555
H30 O16 1_555 1_555
O17 C8 1_555 1_555
O18 C1 1_555 1_555
N1 C23 1_555 1_555
N2 C21 1_555 1_555
N3 C28 1_555 1_555
N4 C29 1_555 1_555
Zn1K O9 1_555 1_555
Zn1F O11 1_555 1_555
Zn2F O4 1_555 1_555
Zn2I O5 1_555 1_555
Zn2B O13 1_555 1_555
Zn3I O7 1_555 1_555
Zn3O O12 1_555 1_555
Zn3B O14 1_555 1_555
O4N Zn2 1_555 1_555
O5I Zn2 1_555 1_555
O7I Zn3 1_555 1_555
O9O Zn1 1_555 1_555
O11N Zn1 1_555 1_555
O12K Zn3 1_555 1_555
O13J Zn2 1_555 1_555
O14J Zn3 1_555 1_555
C10 C18 1_555 1_555
C11 C12 1_555 1_555
C15 C16 1_555 1_555
C24 N1 1_555 1_555
C25 N2 1_555 1_555
C26 N1 1_555 1_555
C26 N2 1_555 1_555
C30 N4 1_555 1_555
C31 N3 1_555 1_555
C32 N3 1_555 1_555
C32 N4 1_555 1_555

#END
