
#######################################################################
#
#                 Cambridge Crystallographic Data Centre
#                                CCDC 
#
#######################################################################
#
# If this CIF has been generated from an entry in the Cambridge 
# Structural Database, then it will include bibliographic, chemical, 
# crystal, experimental, refinement or atomic coordinate data resulting 
# from the CCDC's data processing and validation procedures.
#
#######################################################################

data_UNADAP
_symmetry_cell_setting           monoclinic
_symmetry_space_group_name_H-M   'P 21'
_symmetry_Int_Tables_number      4
_space_group_name_Hall           'P 2yb'
loop_
_symmetry_equiv_pos_site_id
_symmetry_equiv_pos_as_xyz
1 x,y,z
2 -x,1/2+y,-z
_cell_length_a                   12.616(3)
_cell_length_b                   25.145(5)
_cell_length_c                   12.892(3)
_cell_angle_alpha                90
_cell_angle_beta                 108.88(3)
_cell_angle_gamma                90
_cell_volume                     3869.69
loop_
_atom_site_label
_atom_site_type_symbol
_atom_site_fract_x
_atom_site_fract_y
_atom_site_fract_z
Zn1 Zn 0.98269(7) 0.11095(3) -0.26090(7)
Zn2 Zn 1.00581(7) 0.39230(3) 0.25340(7)
N1 N 1.0730(5) 0.0488(2) -0.3012(6)
N2 N 0.8698(6) 0.0875(3) -0.4080(6)
N3 N 1.1147(6) 0.4425(2) 0.2095(5)
N4 N 0.8945(6) 0.4277(3) 0.1171(5)
O1 O 0.8786(4) 0.3782(2) 0.3049(4)
O2 O 1.1086(4) 0.3961(3) 0.4033(4)
O3 O 1.0881(4) 0.1073(2) -0.1126(4)
O4 O 0.8565(4) 0.1223(2) -0.2079(4)
N5 N 1.0480(5) 0.31997(18) 0.1974(4)
C1 C 1.1441(5) 0.2923(2) 0.2559(4)
H1 H 1.1870 0.3038 0.3253
C2 C 1.1760(4) 0.2473(2) 0.2107(5)
H2 H 1.2403 0.2288 0.2498
C3 C 1.1118(5) 0.23003(19) 0.1069(5)
C4 C 1.0157(5) 0.2577(2) 0.0484(4)
H3 H 0.9727 0.2462 -0.0210
C5 C 0.9838(4) 0.3027(2) 0.0936(4)
H4 H 0.9195 0.3212 0.0545
C6 C 1.1373(8) 0.1826(4) 0.0540(7)
H5 H 1.0797 0.1701 -0.0062
C7 C 1.2339(7) 0.1544(3) 0.0812(7)
H6 H 1.2869 0.1634 0.1479
C8 C 1.2659(4) 0.1124(2) 0.0207(5)
C9 C 1.1954(3) 0.0927(2) -0.0784(5)
C10 C 1.2351(5) 0.0555(2) -0.1365(4)
C11 C 1.3454(5) 0.0379(2) -0.0955(5)
H7 H 1.3720 0.0130 -0.1344
C12 C 1.4159(4) 0.0576(2) 0.0036(5)
C13 C 1.3761(4) 0.0948(2) 0.0617(4)
H8 H 1.4233 0.1080 0.1280
C14 C 1.5411(8) 0.0405(5) 0.0489(11)
C15 C 1.6142(8) 0.0748(6) 0.1289(13)
H9 H 1.6888 0.0605 0.1514
H10 H 1.5887 0.0774 0.1913
H11 H 1.6142 0.1095 0.0977
C16 C 1.5450(12) -0.0136(7) 0.089(2)
H12 H 1.6216 -0.0251 0.1176
H13 H 1.5046 -0.0366 0.0300
H14 H 1.5115 -0.0150 0.1461
C17 C 1.5903(10) 0.0406(10) -0.0442(13)
H15 H 1.6675 0.0300 -0.0167
H16 H 1.5850 0.0757 -0.0748
H17 H 1.5495 0.0161 -0.1000
C18 C 1.1713(7) 0.0326(3) -0.2425(7)
H18 H 1.2033 0.0047 -0.2693
C19 C 1.0113(7) 0.0214(3) -0.4056(6)
H19 H 0.9682 -0.0076 -0.3877
C20 C 1.0826(7) -0.0027(5) -0.4678(6)
H20 H 1.1272 0.0249 -0.4861
H21 H 1.1334 -0.0286 -0.4217
C21 C 1.0105(9) -0.0294(4) -0.5716(8)
H22 H 1.0580 -0.0425 -0.6121
H23 H 0.9732 -0.0598 -0.5525
C22 C 0.9238(8) 0.0075(5) -0.6437(6)
H24 H 0.8747 -0.0123 -0.7050
H25 H 0.9609 0.0347 -0.6729
C23 C 0.8536(8) 0.0343(4) -0.5811(6)
H26 H 0.8044 0.0604 -0.6281
H27 H 0.8073 0.0077 -0.5620
C24 C 0.9267(7) 0.0613(3) -0.4776(6)
H28 H 0.9699 0.0887 -0.5002
C25 C 0.7640(8) 0.0953(3) -0.4395(8)
H29 H 0.7225 0.0838 -0.5094
C26 C 0.7043(5) 0.1206(2) -0.3751(5)
C27 C 0.7490(4) 0.1311(2) -0.2636(5)
C28 C 0.6821(6) 0.1533(3) -0.2078(4)
C29 C 0.5704(6) 0.1649(3) -0.2636(6)
H30 H 0.5257 0.1797 -0.2263
C30 C 0.5257(4) 0.1543(3) -0.3752(6)
C31 C 0.5926(5) 0.1322(3) -0.4309(4)
H31 H 0.5626 0.1252 -0.5056
C32 C 0.4004(9) 0.1682(5) -0.4366(11)
C33 C 0.3831(10) 0.2261(6) -0.4296(13)
H32 H 0.3060 0.2346 -0.4672
H33 H 0.4298 0.2450 -0.4631
H34 H 0.4023 0.2364 -0.3541
C34 C 0.3262(9) 0.1371(6) -0.3828(12)
H35 H 0.2488 0.1453 -0.4200
H36 H 0.3454 0.1471 -0.3071
H37 H 0.3382 0.0996 -0.3878
C35 C 0.3603(10) 0.1552(5) -0.5583(11)
H38 H 0.2828 0.1647 -0.5895
H39 H 0.3690 0.1178 -0.5682
H40 H 0.4038 0.1749 -0.5940
C36 C 0.7166(8) 0.1665(4) -0.0906(9)
H41 H 0.6624 0.1832 -0.0675
C37 C 0.8094(11) 0.1584(4) -0.0169(9)
H42 H 0.8666 0.1436 -0.0384
C38 C 0.8352(8) 0.1709(3) 0.1037(5)
C39 C 0.9296(7) 0.1482(3) 0.1786(8)
H43 H 0.9784 0.1280 0.1540
C40 C 0.9509(7) 0.1556(3) 0.2904(7)
H44 H 1.0140 0.1404 0.3405
N6 N 0.8779(10) 0.1858(4) 0.3272(6)
C41 C 0.7836(9) 0.2085(4) 0.2523(9)
H45 H 0.7347 0.2287 0.2769
C42 C 0.7622(7) 0.2011(4) 0.1405(8)
H46 H 0.6991 0.2163 0.0904
C43 C 1.1457(7) 0.3225(3) 0.5672(7)
H47 H 1.0947 0.3352 0.5025
N7 N 1.0362(4) 0.18297(17) 0.6925(4)
C44 C 0.9807(4) 0.2016(2) 0.5874(4)
H48 H 0.9195 0.1830 0.5418
C45 C 1.0166(5) 0.2479(2) 0.5503(4)
H49 H 0.9795 0.2603 0.4799
C46 C 1.1080(5) 0.27565(18) 0.6184(5)
C47 C 1.1635(4) 0.2571(2) 0.7235(5)
H50 H 1.2247 0.2756 0.7691
C48 C 1.1276(5) 0.2107(2) 0.7606(4)
H51 H 1.1647 0.1983 0.8310
C49 C 1.2415(7) 0.3477(3) 0.6023(7)
H52 H 1.2907 0.3375 0.6702
C50 C 1.2789(5) 0.3908(2) 0.5448(5)
C51 C 1.2152(4) 0.4095(2) 0.4420(5)
C52 C 1.2625(5) 0.4440(2) 0.3850(4)
C53 C 1.3735(5) 0.4597(2) 0.4307(5)
H53 H 1.4052 0.4828 0.3925
C54 C 1.4372(3) 0.4410(2) 0.5334(5)
C55 C 1.3899(5) 0.4066(2) 0.5905(4)
H54 H 1.4325 0.3941 0.6592
C56 C 1.5600(9) 0.4611(5) 0.5862(13)
C57 C 1.6261(8) 0.4275(5) 0.6821(11)
H55 H 1.7006 0.4414 0.7119
H56 H 1.6295 0.3916 0.6579
H57 H 1.5902 0.4279 0.7374
C58 C 1.5564(11) 0.5187(5) 0.6239(16)
H58 H 1.6314 0.5316 0.6571
H59 H 1.5170 0.5201 0.6763
H60 H 1.5184 0.5405 0.5619
C59 C 1.6144(11) 0.4661(10) 0.5068(15)
H61 H 1.6896 0.4785 0.5412
H62 H 1.5745 0.4912 0.4517
H63 H 1.6160 0.4322 0.4733
C60 C 1.2096(7) 0.4592(3) 0.2710(8)
H64 H 1.2480 0.4829 0.2407
C61 C 1.0693(7) 0.4555(3) 0.0931(7)
H65 H 1.0750 0.4229 0.0534
C62 C 1.1286(6) 0.4994(5) 0.0488(6)
H66 H 1.1256 0.5327 0.0859
H67 H 1.2066 0.4901 0.0637
C63 C 1.0725(7) 0.5063(4) -0.0733(6)
H68 H 1.1094 0.5346 -0.0996
H69 H 1.0803 0.4737 -0.1106
C64 C 0.9511(8) 0.5193(4) -0.0999(7)
H70 H 0.9171 0.5222 -0.1787
H71 H 0.9436 0.5534 -0.0678
C65 C 0.8893(8) 0.4769(3) -0.0567(7)
H72 H 0.8126 0.4882 -0.0693
H73 H 0.8875 0.4439 -0.0961
C66 C 0.9455(6) 0.4678(3) 0.0626(6)
H74 H 0.9409 0.5018 0.0982
C67 C 0.7925(8) 0.4139(3) 0.0775(8)
H75 H 0.7531 0.4262 0.0076
C68 C 0.7317(5) 0.3807(2) 0.1307(5)
C69 C 0.6239(5) 0.3653(3) 0.0690(4)
H76 H 0.5964 0.3732 -0.0054
C70 C 0.5572(4) 0.3381(3) 0.1186(6)
C71 C 0.5983(5) 0.3264(3) 0.2298(7)
H77 H 0.5536 0.3082 0.2630
C72 C 0.7061(6) 0.3418(3) 0.2915(5)
C73 C 0.7728(4) 0.3690(2) 0.2419(5)
C74 C 0.4387(14) 0.3183(8) 0.0487(14)
C75 C 0.4126(16) 0.3342(11) -0.0700(15)
H78 H 0.3384 0.3225 -0.1112
H79 H 0.4658 0.3180 -0.0992
H80 H 0.4169 0.3722 -0.0751
C76 C 0.4272(14) 0.2606(7) 0.0637(16)
H81 H 0.3530 0.2494 0.0216
H82 H 0.4403 0.2532 0.1398
H83 H 0.4810 0.2417 0.0393
C77 C 0.3552(14) 0.3511(9) 0.086(2)
H84 H 0.2801 0.3404 0.0460
H85 H 0.3645 0.3882 0.0738
H86 H 0.3687 0.3453 0.1633
C78 C 0.7556(11) 0.3359(5) 0.4163(12)
H87 H 0.8230 0.3532 0.4507
C79 C 0.7127(11) 0.3095(5) 0.4771(11)
H88 H 0.6463 0.2904 0.4487
C80 C 0.7782(12) 0.3111(5) 0.6009(6)
C81 C 0.8747(11) 0.3381(4) 0.6608(11)
H89 H 0.9173 0.3558 0.6248
C82 C 0.9076(7) 0.3385(4) 0.7747(11)
H90 H 0.9722 0.3566 0.8148
N8 N 0.8440(12) 0.3120(5) 0.8285(7)
C83 C 0.7475(11) 0.2850(4) 0.7686(14)
H91 H 0.7049 0.2673 0.8046
C84 C 0.7146(8) 0.2846(4) 0.6547(13)
H92 H 0.6500 0.2665 0.6146
Zn1_2 Zn 0.98269(7) 0.11095(3) 0.73910(7)
N7_2 N 1.0362(4) 0.18297(17) -0.3075(4)
loop_
_geom_bond_atom_site_label_1
_geom_bond_atom_site_label_2
_geom_bond_site_symmetry_1
_geom_bond_site_symmetry_2
Zn1 N1 1_555 1_555
Zn2 N3 1_555 1_555
N1 C18 1_555 1_555
N2 Zn1 1_555 1_555
N3 C60 1_555 1_555
N4 Zn2 1_555 1_555
O1 Zn2 1_555 1_555
O2 Zn2 1_555 1_555
O3 Zn1 1_555 1_555
O4 Zn1 1_555 1_555
N5 Zn2 1_555 1_555
C1 N5 1_555 1_555
H1 C1 1_555 1_555
C2 C1 1_555 1_555
H2 C2 1_555 1_555
C3 C2 1_555 1_555
C4 C3 1_555 1_555
H3 C4 1_555 1_555
C5 N5 1_555 1_555
H4 C5 1_555 1_555
C6 C3 1_555 1_555
H5 C6 1_555 1_555
C7 C6 1_555 1_555
H6 C7 1_555 1_555
C8 C7 1_555 1_555
C9 O3 1_555 1_555
C10 C9 1_555 1_555
C11 C10 1_555 1_555
H7 C11 1_555 1_555
C12 C11 1_555 1_555
C13 C8 1_555 1_555
H8 C13 1_555 1_555
C14 C12 1_555 1_555
C15 C14 1_555 1_555
H9 C15 1_555 1_555
H10 C15 1_555 1_555
H11 C15 1_555 1_555
C16 C14 1_555 1_555
H12 C16 1_555 1_555
H13 C16 1_555 1_555
H14 C16 1_555 1_555
C17 C14 1_555 1_555
H15 C17 1_555 1_555
H16 C17 1_555 1_555
H17 C17 1_555 1_555
C18 C10 1_555 1_555
H18 C18 1_555 1_555
C19 N1 1_555 1_555
H19 C19 1_555 1_555
C20 C19 1_555 1_555
H20 C20 1_555 1_555
H21 C20 1_555 1_555
C21 C20 1_555 1_555
H22 C21 1_555 1_555
H23 C21 1_555 1_555
C22 C21 1_555 1_555
H24 C22 1_555 1_555
H25 C22 1_555 1_555
C23 C22 1_555 1_555
H26 C23 1_555 1_555
H27 C23 1_555 1_555
C24 N2 1_555 1_555
H28 C24 1_555 1_555
C25 N2 1_555 1_555
H29 C25 1_555 1_555
C26 C25 1_555 1_555
C27 O4 1_555 1_555
C28 C27 1_555 1_555
C29 C28 1_555 1_555
H30 C29 1_555 1_555
C30 C29 1_555 1_555
C31 C26 1_555 1_555
H31 C31 1_555 1_555
C32 C30 1_555 1_555
C33 C32 1_555 1_555
H32 C33 1_555 1_555
H33 C33 1_555 1_555
H34 C33 1_555 1_555
C34 C32 1_555 1_555
H35 C34 1_555 1_555
H36 C34 1_555 1_555
H37 C34 1_555 1_555
C35 C32 1_555 1_555
H38 C35 1_555 1_555
H39 C35 1_555 1_555
H40 C35 1_555 1_555
C36 C28 1_555 1_555
H41 C36 1_555 1_555
C37 C36 1_555 1_555
H42 C37 1_555 1_555
C38 C37 1_555 1_555
C39 C38 1_555 1_555
H43 C39 1_555 1_555
C40 C39 1_555 1_555
H44 C40 1_555 1_555
N6 C40 1_555 1_555
C41 N6 1_555 1_555
H45 C41 1_555 1_555
C42 C38 1_555 1_555
H46 C42 1_555 1_555
C43 H47 1_555 1_555
N7 C44 1_555 1_555
C44 H48 1_555 1_555
C45 C44 1_555 1_555
H49 C45 1_555 1_555
C46 C43 1_555 1_555
C47 C46 1_555 1_555
H50 C47 1_555 1_555
C48 N7 1_555 1_555
H51 C48 1_555 1_555
C49 C43 1_555 1_555
H52 C49 1_555 1_555
C50 C49 1_555 1_555
C51 O2 1_555 1_555
C52 C51 1_555 1_555
C53 C52 1_555 1_555
H53 C53 1_555 1_555
C54 C53 1_555 1_555
C55 C50 1_555 1_555
H54 C55 1_555 1_555
C56 C54 1_555 1_555
C57 C56 1_555 1_555
H55 C57 1_555 1_555
H56 C57 1_555 1_555
H57 C57 1_555 1_555
C58 C56 1_555 1_555
H58 C58 1_555 1_555
H59 C58 1_555 1_555
H60 C58 1_555 1_555
C59 C56 1_555 1_555
H61 C59 1_555 1_555
H62 C59 1_555 1_555
H63 C59 1_555 1_555
C60 C52 1_555 1_555
H64 C60 1_555 1_555
C61 N3 1_555 1_555
H65 C61 1_555 1_555
C62 C61 1_555 1_555
H66 C62 1_555 1_555
H67 C62 1_555 1_555
C63 C62 1_555 1_555
H68 C63 1_555 1_555
H69 C63 1_555 1_555
C64 C63 1_555 1_555
H70 C64 1_555 1_555
H71 C64 1_555 1_555
C65 C64 1_555 1_555
H72 C65 1_555 1_555
H73 C65 1_555 1_555
C66 N4 1_555 1_555
H74 C66 1_555 1_555
C67 N4 1_555 1_555
H75 C67 1_555 1_555
C68 C67 1_555 1_555
C69 C68 1_555 1_555
H76 C69 1_555 1_555
C70 C69 1_555 1_555
C71 C70 1_555 1_555
H77 C71 1_555 1_555
C72 C71 1_555 1_555
C73 O1 1_555 1_555
C74 C70 1_555 1_555
C75 C74 1_555 1_555
H78 C75 1_555 1_555
H79 C75 1_555 1_555
H80 C75 1_555 1_555
C76 C74 1_555 1_555
H81 C76 1_555 1_555
H82 C76 1_555 1_555
H83 C76 1_555 1_555
C77 C74 1_555 1_555
H84 C77 1_555 1_555
H85 C77 1_555 1_555
H86 C77 1_555 1_555
C78 C72 1_555 1_555
H87 C78 1_555 1_555
C79 C78 1_555 1_555
H88 C79 1_555 1_555
C80 C79 1_555 1_555
C81 C80 1_555 1_555
H89 C81 1_555 1_555
C82 C81 1_555 1_555
H90 C82 1_555 1_555
N8 C82 1_555 1_555
C83 N8 1_555 1_555
H91 C83 1_555 1_555
C84 C80 1_555 1_555
H92 C84 1_555 1_555
Zn1_2 N7 1_555 1_555
N7_2 Zn1 1_555 1_555
C4 C5 1_555 1_555
C8 C9 1_555 1_555
C12 C13 1_555 1_555
C19 C24 1_555 1_555
C23 C24 1_555 1_555
C26 C27 1_555 1_555
C30 C31 1_555 1_555
C41 C42 1_555 1_555
C45 C46 1_555 1_555
C47 C48 1_555 1_555
C50 C51 1_555 1_555
C54 C55 1_555 1_555
C61 C66 1_555 1_555
C65 C66 1_555 1_555
C68 C73 1_555 1_555
C72 C73 1_555 1_555
C83 C84 1_555 1_555

#END
