
#######################################################################
#
#                 Cambridge Crystallographic Data Centre
#                                CCDC 
#
#######################################################################
#
# If this CIF has been generated from an entry in the Cambridge 
# Structural Database, then it will include bibliographic, chemical, 
# crystal, experimental, refinement or atomic coordinate data resulting 
# from the CCDC's data processing and validation procedures.
#
#######################################################################

data_UNAFOE
_symmetry_cell_setting           monoclinic
_symmetry_space_group_name_H-M   'P 21/c'
_symmetry_Int_Tables_number      14
_space_group_name_Hall           '-P 2ybc'
loop_
_symmetry_equiv_pos_site_id
_symmetry_equiv_pos_as_xyz
1 x,y,z
2 -x,1/2+y,1/2-z
3 -x,-y,-z
4 x,1/2-y,1/2+z
_cell_length_a                   7.509(3)
_cell_length_b                   14.415(4)
_cell_length_c                   7.719(3)
_cell_angle_alpha                90
_cell_angle_beta                 99.54(2)
_cell_angle_gamma                90
_cell_volume                     823.967
loop_
_atom_site_label
_atom_site_type_symbol
_atom_site_fract_x
_atom_site_fract_y
_atom_site_fract_z
Co1 Co 0.08094(3) 0.139610(17) -0.70021(3)
O1 O 0.2675(2) 0.12370(12) -0.4676(2)
O2 O 0.5275(2) 0.13361(12) -0.5707(2)
O3 O 0.8855(2) 0.16533(11) 0.0766(2)
O4 O 0.7318(2) 0.03199(11) 0.0507(2)
C1 C 0.4389(3) 0.12067(14) -0.4502(3)
C2 C 0.5330(3) 0.09633(15) -0.2687(3)
H1 H 0.4874 0.0469 -0.2121
C3 C 0.6763(3) 0.14019(14) -0.1836(3)
H2 H 0.7208 0.1915 -0.2357
C4 C 0.7684(3) 0.10972(14) -0.0067(3)
O5 O -0.1091(2) 0.15685(11) -0.5316(2)
H3 H -0.217(3) 0.1478(18) -0.573(5)
H4 H -0.101(4) 0.2105(14) -0.492(4)
O6 O 0.2811(2) 0.12679(11) -0.8646(2)
H5 H 0.375(4) 0.1317(18) -0.788(4)
H6 H 0.280(4) 0.0743(15) -0.907(4)
O7 O 0.0241(2) -0.00174(11) -0.7170(2)
H7 H -0.081(3) -0.006(2) -0.777(3)
H8 H 0.033(4) -0.039(2) -0.637(3)
O8 O 0.1420(2) 0.28264(10) -0.6897(2)
H9 H 0.200(4) 0.304(2) -0.598(3)
H10 H 0.176(4) 0.309(2) -0.774(3)
O3_2 O -0.1145(2) 0.16533(11) -0.9234(2)
Co1_2 Co 1.08094(3) 0.139610(17) 0.29979(3)
loop_
_geom_bond_atom_site_label_1
_geom_bond_atom_site_label_2
_geom_bond_site_symmetry_1
_geom_bond_site_symmetry_2
Co1 O1 1_555 1_555
O1 C1 1_555 1_555
O2 C1 1_555 1_555
O3 C4 1_555 1_555
O4 C4 1_555 1_555
C1 C2 1_555 1_555
C2 H1 1_555 1_555
C3 C2 1_555 1_555
H2 C3 1_555 1_555
C4 C3 1_555 1_555
O5 Co1 1_555 1_555
H3 O5 1_555 1_555
H4 O5 1_555 1_555
O6 Co1 1_555 1_555
H5 O6 1_555 1_555
H6 O6 1_555 1_555
O7 Co1 1_555 1_555
H7 O7 1_555 1_555
H8 O7 1_555 1_555
O8 Co1 1_555 1_555
H9 O8 1_555 1_555
H10 O8 1_555 1_555
O3_2 Co1 1_555 1_555
Co1_2 O3 1_555 1_555

#END
