
#######################################################################
#
#                 Cambridge Crystallographic Data Centre
#                                CCDC 
#
#######################################################################
#
# If this CIF has been generated from an entry in the Cambridge 
# Structural Database, then it will include bibliographic, chemical, 
# crystal, experimental, refinement or atomic coordinate data resulting 
# from the CCDC's data processing and validation procedures.
#
#######################################################################

data_UNAFOE01
_symmetry_cell_setting           monoclinic
_symmetry_space_group_name_H-M   'P 21/c'
_symmetry_Int_Tables_number      14
_space_group_name_Hall           '-P 2ybc'
loop_
_symmetry_equiv_pos_site_id
_symmetry_equiv_pos_as_xyz
1 x,y,z
2 x,1/2-y,1/2+z
3 -x,-y,-z
4 -x,1/2+y,1/2-z
_cell_length_a                   7.4930(10)
_cell_length_b                   14.3770(10)
_cell_length_c                   7.7080(10)
_cell_angle_alpha                90
_cell_angle_beta                 99.540(10)
_cell_angle_gamma                90
_cell_volume                     818.875
loop_
_atom_site_label
_atom_site_type_symbol
_atom_site_fract_x
_atom_site_fract_y
_atom_site_fract_z
Co1 Co 0.08085(4) -0.13961(2) -0.20006(4)
O1 O -0.1150(2) -0.16504(12) -0.4238(2)
O2 O -0.2686(2) -0.03195(13) -0.4495(2)
O3 O -0.7330(2) -0.12400(12) -0.9673(2)
O4 O -0.4724(2) -0.13354(15) -1.0702(2)
O5 O 0.0239(3) 0.00168(14) -0.2168(3)
H1 H 0.032(6) 0.040(3) -0.146(5)
H2 H -0.077(6) 0.015(3) -0.272(5)
O6 O -0.1089(2) -0.15623(14) -0.0314(2)
H3 H -0.110(4) -0.205(2) -0.003(4)
H4 H -0.222(5) -0.145(2) -0.055(4)
O7 O 0.1414(3) -0.28255(13) -0.1895(3)
H5 H 0.195(5) -0.300(2) -0.095(5)
H6 H 0.188(4) -0.309(2) -0.262(4)
H7 H 0.377(5) -0.132(2) -0.287(4)
H8 H 0.281(4) -0.079(2) -0.408(4)
O8 O 0.2811(3) -0.12749(13) -0.3641(2)
C1 C -0.2314(3) -0.10929(18) -0.5063(3)
C2 C -0.3239(3) -0.13999(18) -0.6841(3)
H9 H -0.2790 -0.1913 -0.7365
C3 C -0.4666(3) -0.09659(18) -0.7683(3)
H10 H -0.5125 -0.0473 -0.7112
C4 C -0.5609(3) -0.12073(17) -0.9496(3)
O3_2 O 0.2670(2) -0.12400(12) 0.0327(2)
Co1_2 Co -0.91915(4) -0.13961(2) -1.20006(4)
loop_
_geom_bond_atom_site_label_1
_geom_bond_atom_site_label_2
_geom_bond_site_symmetry_1
_geom_bond_site_symmetry_2
Co1 O1 1_555 1_555
O1 C1 1_555 1_555
O2 C1 1_555 1_555
O3 C4 1_555 1_555
O4 C4 1_555 1_555
O5 Co1 1_555 1_555
H1 O5 1_555 1_555
H2 O5 1_555 1_555
O6 Co1 1_555 1_555
H3 O6 1_555 1_555
H4 O6 1_555 1_555
O7 Co1 1_555 1_555
H5 O7 1_555 1_555
H6 O7 1_555 1_555
H7 O8 1_555 1_555
H8 O8 1_555 1_555
O8 Co1 1_555 1_555
C1 C2 1_555 1_555
C2 H9 1_555 1_555
C3 C2 1_555 1_555
H10 C3 1_555 1_555
C4 C3 1_555 1_555
O3_2 Co1 1_555 1_555
Co1_2 O3 1_555 1_555

#END
