
#######################################################################
#
#                 Cambridge Crystallographic Data Centre
#                                CCDC 
#
#######################################################################
#
# If this CIF has been generated from an entry in the Cambridge 
# Structural Database, then it will include bibliographic, chemical, 
# crystal, experimental, refinement or atomic coordinate data resulting 
# from the CCDC's data processing and validation procedures.
#
#######################################################################

data_UNAFOF
_symmetry_cell_setting           monoclinic
_symmetry_space_group_name_H-M   'P 21/n'
_symmetry_Int_Tables_number      14
_space_group_name_Hall           '-P 2yn'
loop_
_symmetry_equiv_pos_site_id
_symmetry_equiv_pos_as_xyz
1 x,y,z
2 1/2-x,1/2+y,1/2-z
3 -x,-y,-z
4 1/2+x,1/2-y,1/2+z
_cell_length_a                   10.6348(5)
_cell_length_b                   24.7251(11)
_cell_length_c                   19.4535(10)
_cell_angle_alpha                90
_cell_angle_beta                 103.775(5)
_cell_angle_gamma                90
_cell_volume                     4968.11
loop_
_atom_site_label
_atom_site_type_symbol
_atom_site_fract_x
_atom_site_fract_y
_atom_site_fract_z
Ag1 Ag 0.41307(5) 0.05944(2) 0.53240(3)
Ag2 Ag 0.13090(7) 0.04141(3) 0.95015(4)
S1 S -0.0077(2) -0.07575(9) 0.92794(13)
S2 S 0.62000(18) 0.08443(8) 0.43717(11)
P1 P 0.22508(19) 0.09812(8) 0.87915(11)
P2 P 0.43628(17) 0.10290(8) 0.64233(10)
O1 O 0.1114(8) -0.0505(3) 0.9183(4)
O2 O 0.0125(6) -0.1137(3) 0.9862(3)
O3 O -0.1059(8) -0.0355(3) 0.9334(4)
O4 O 0.7560(5) 0.0735(3) 0.4621(3)
O5 O 0.5393(5) 0.0394(2) 0.4517(3)
O6 O 0.5796(6) 0.1348(2) 0.4628(3)
N1 N -0.2325(6) -0.0419(3) 0.5559(4)
C1 C -0.2402(8) -0.0044(3) 0.6053(4)
H1 H -0.3232 0.0052 0.6117
C2 C -0.1316(7) 0.0206(3) 0.6471(4)
H2 H -0.1404 0.0464 0.6819
C3 C -0.0091(7) 0.0072(3) 0.6373(4)
C4 C -0.0025(7) -0.0310(3) 0.5860(4)
H3 H 0.0786 -0.0411 0.5774
C5 C -0.1155(7) -0.0540(3) 0.5479(4)
H4 H -0.1091 -0.0804 0.5134
C6 C 0.1093(7) 0.0341(3) 0.6806(4)
C7 C 0.1174(7) 0.0474(3) 0.7514(4)
H5 H 0.0488 0.0381 0.7728
C8 C 0.2257(7) 0.0743(3) 0.7905(4)
C9 C 0.3250(7) 0.0878(3) 0.7596(4)
H6 H 0.3998 0.1052 0.7872
C10 C 0.3180(6) 0.0764(3) 0.6880(4)
C11 C 0.2093(7) 0.0481(3) 0.6495(4)
H7 H 0.2043 0.0385 0.6017
C12 C 0.1515(7) 0.1651(3) 0.8619(5)
C13 C 0.1323(8) 0.1893(3) 0.7940(5)
H8 H 0.1549 0.1707 0.7560
C14 C 0.0798(9) 0.2408(4) 0.7846(6)
H9 H 0.0658 0.2574 0.7393
C15 C 0.0476(9) 0.2684(4) 0.8391(6)
H10 H 0.0132 0.3040 0.8321
C16 C 0.0658(9) 0.2439(4) 0.9041(6)
H11 H 0.0430 0.2628 0.9418
C17 C 0.1170(9) 0.1919(4) 0.9158(5)
H12 H 0.1277 0.1753 0.9609
C18 C 0.3970(8) 0.1099(4) 0.9162(4)
C19 C 0.4754(8) 0.0643(4) 0.9331(5)
H13 H 0.4385 0.0291 0.9296
C20 C 0.6092(9) 0.0712(5) 0.9554(5)
H14 H 0.6640 0.0406 0.9671
C21 C 0.6619(9) 0.1223(5) 0.9606(6)
H15 H 0.7533 0.1267 0.9744
C22 C 0.5833(9) 0.1671(5) 0.9460(6)
H16 H 0.6202 0.2023 0.9515
C23 C 0.4513(9) 0.1611(4) 0.9234(6)
H17 H 0.3973 0.1921 0.9127
C24 C 0.3969(7) 0.1745(3) 0.6311(5)
C25 C 0.3920(9) 0.1982(4) 0.5663(5)
H18 H 0.4105 0.1772 0.5291
C26 C 0.3601(9) 0.2530(4) 0.5550(5)
H19 H 0.3583 0.2691 0.5104
C27 C 0.3314(9) 0.2834(4) 0.6084(6)
H20 H 0.3074 0.3202 0.6004
C28 C 0.3372(9) 0.2607(3) 0.6728(5)
H21 H 0.3170 0.2819 0.7094
C29 C 0.3724(9) 0.2069(3) 0.6854(5)
H22 H 0.3799 0.1920 0.7312
C30 C 0.5872(7) 0.1006(3) 0.7104(4)
C31 C 0.6186(8) 0.0543(3) 0.7507(4)
H23 H 0.5617 0.0241 0.7421
C32 C 0.7335(9) 0.0512(4) 0.8040(5)
H24 H 0.7546 0.0195 0.8318
C33 C 0.8152(9) 0.0954(4) 0.8150(5)
H25 H 0.8925 0.0943 0.8516
C34 C 0.7864(9) 0.1409(4) 0.7741(6)
H26 H 0.8450 0.1705 0.7819
C35 C 0.6727(8) 0.1445(4) 0.7213(6)
H27 H 0.6535 0.1762 0.6932
C36 C 0.4921(18) 0.1003(6) 0.1156(7)
H28 H 0.3978 0.0980 0.0985
H29 H 0.5325 0.0705 0.0954
H30 H 0.5225 0.1349 0.1011
C37 C 0.5290(14) 0.0961(5) 0.1973(6)
C38 C 0.4326(12) 0.0898(4) 0.2319(5)
H31 H 0.3452 0.0881 0.2055
C39 C 0.4604(9) 0.0860(4) 0.3051(5)
H32 H 0.3919 0.0824 0.3284
C40 C 0.5875(8) 0.0874(3) 0.3446(5)
C41 C 0.6851(10) 0.0938(4) 0.3089(5)
H33 H 0.7727 0.0957 0.3349
C42 C 0.6560(14) 0.0975(5) 0.2357(7)
H34 H 0.7239 0.1010 0.2119
C43 C -0.2030(12) -0.2044(6) 0.6572(7)
H35 H -0.2499 -0.2366 0.6666
H36 H -0.2605 -0.1819 0.6216
H37 H -0.1279 -0.2154 0.6395
C44 C -0.1577(10) -0.1724(4) 0.7248(6)
C45 C -0.0879(9) -0.1244(4) 0.7245(5)
H38 H -0.0708 -0.1117 0.6815
C46 C -0.0432(9) -0.0951(4) 0.7865(5)
H39 H 0.0041 -0.0626 0.7856
C47 C -0.0675(8) -0.1131(3) 0.8493(5)
C48 C -0.1356(9) -0.1609(4) 0.8499(5)
H40 H -0.1515 -0.1739 0.8930
C49 C -0.1803(10) -0.1896(4) 0.7879(6)
H41 H -0.2278 -0.2220 0.7890
Ag1B Ag 0.58693(5) -0.05944(2) 0.46760(3)
Ag1B_2 Ag -0.41307(5) -0.05944(2) 0.46760(3)
Ag2B Ag -0.13090(7) -0.04141(3) 1.04985(4)
O3B O 0.1059(8) 0.0355(3) 1.0666(4)
O5B O 0.4607(5) -0.0394(2) 0.5483(3)
N1B N 0.2325(6) 0.0419(3) 0.4441(4)
Cl1 Cl 0.8421(4) 0.24460(15) 0.5704(2)
Cl2 Cl 1.0027(4) 0.15079(15) 0.5946(2)
Cl3 Cl 0.9240(4) 0.19384(13) 0.4545(2)
C50 C 0.8799(9) 0.1838(4) 0.5355(6)
H42 H 0.8012 0.1602 0.5264
loop_
_geom_bond_atom_site_label_1
_geom_bond_atom_site_label_2
_geom_bond_site_symmetry_1
_geom_bond_site_symmetry_2
Ag1 P2 1_555 1_555
Ag2 P1 1_555 1_555
Cl1 C50 1_555 1_555
Cl2 C50 1_555 1_555
Cl3 C50 1_555 1_555
S1 O1 1_555 1_555
S2 O4 1_555 1_555
P1 C8 1_555 1_555
P2 C10 1_555 1_555
O1 Ag2 1_555 1_555
O2 S1 1_555 1_555
O3 S1 1_555 1_555
O5 Ag1 1_555 1_555
O6 S2 1_555 1_555
N1 C1 1_555 1_555
C1 H1 1_555 1_555
C2 C1 1_555 1_555
H2 C2 1_555 1_555
C3 C2 1_555 1_555
C4 C3 1_555 1_555
H3 C4 1_555 1_555
C5 N1 1_555 1_555
H4 C5 1_555 1_555
C6 C3 1_555 1_555
C7 C6 1_555 1_555
H5 C7 1_555 1_555
C8 C7 1_555 1_555
C9 C8 1_555 1_555
H6 C9 1_555 1_555
C10 C9 1_555 1_555
C11 C6 1_555 1_555
H7 C11 1_555 1_555
C12 P1 1_555 1_555
C13 C12 1_555 1_555
H8 C13 1_555 1_555
C14 C13 1_555 1_555
H9 C14 1_555 1_555
C15 C14 1_555 1_555
H10 C15 1_555 1_555
C16 C15 1_555 1_555
H11 C16 1_555 1_555
C17 C12 1_555 1_555
H12 C17 1_555 1_555
C18 P1 1_555 1_555
C19 C18 1_555 1_555
H13 C19 1_555 1_555
C20 C19 1_555 1_555
H14 C20 1_555 1_555
C21 C20 1_555 1_555
H15 C21 1_555 1_555
C22 C21 1_555 1_555
H16 C22 1_555 1_555
C23 C18 1_555 1_555
H17 C23 1_555 1_555
C24 P2 1_555 1_555
C25 C24 1_555 1_555
H18 C25 1_555 1_555
C26 C25 1_555 1_555
H19 C26 1_555 1_555
C27 C26 1_555 1_555
H20 C27 1_555 1_555
C28 C27 1_555 1_555
H21 C28 1_555 1_555
C29 C24 1_555 1_555
H22 C29 1_555 1_555
C30 P2 1_555 1_555
C31 C30 1_555 1_555
H23 C31 1_555 1_555
C32 C31 1_555 1_555
H24 C32 1_555 1_555
C33 C32 1_555 1_555
H25 C33 1_555 1_555
C34 C33 1_555 1_555
H26 C34 1_555 1_555
C35 C30 1_555 1_555
H27 C35 1_555 1_555
C36 H28 1_555 1_555
H29 C36 1_555 1_555
H30 C36 1_555 1_555
C37 C36 1_555 1_555
C38 C37 1_555 1_555
H31 C38 1_555 1_555
C39 C38 1_555 1_555
H32 C39 1_555 1_555
C40 S2 1_555 1_555
C41 C40 1_555 1_555
H33 C41 1_555 1_555
C42 C37 1_555 1_555
H34 C42 1_555 1_555
C43 H35 1_555 1_555
H36 C43 1_555 1_555
H37 C43 1_555 1_555
C44 C43 1_555 1_555
C45 C44 1_555 1_555
H38 C45 1_555 1_555
C46 C45 1_555 1_555
H39 C46 1_555 1_555
C47 S1 1_555 1_555
C48 C47 1_555 1_555
H40 C48 1_555 1_555
C49 C44 1_555 1_555
H41 C49 1_555 1_555
C50 H42 1_555 1_555
Ag1B O5 1_555 1_555
Ag1B_2 N1 1_555 1_555
Ag2B O3 1_555 1_555
O3B Ag2 1_555 1_555
O5B Ag1 1_555 1_555
N1B Ag1 1_555 1_555
S2 O5 1_555 1_555
C4 C5 1_555 1_555
C10 C11 1_555 1_555
C16 C17 1_555 1_555
C22 C23 1_555 1_555
C28 C29 1_555 1_555
C34 C35 1_555 1_555
C39 C40 1_555 1_555
C41 C42 1_555 1_555
C46 C47 1_555 1_555
C48 C49 1_555 1_555
Ag1B O5B 1_555 1_555

#END
