
#######################################################################
#
#                 Cambridge Crystallographic Data Centre
#                                CCDC 
#
#######################################################################
#
# If this CIF has been generated from an entry in the Cambridge 
# Structural Database, then it will include bibliographic, chemical, 
# crystal, experimental, refinement or atomic coordinate data resulting 
# from the CCDC's data processing and validation procedures.
#
#######################################################################

data_UNAGAR01
_symmetry_cell_setting           triclinic
_symmetry_space_group_name_H-M   'P -1'
_symmetry_Int_Tables_number      2
_space_group_name_Hall           '-P 1'
loop_
_symmetry_equiv_pos_site_id
_symmetry_equiv_pos_as_xyz
1 x,y,z
2 -x,-y,-z
_cell_length_a                   7.060(1)
_cell_length_b                   7.814(1)
_cell_length_c                   9.808(1)
_cell_angle_alpha                79.61(1)
_cell_angle_beta                 86.69(1)
_cell_angle_gamma                72.53(1)
_cell_volume                     507.652
loop_
_atom_site_label
_atom_site_type_symbol
_atom_site_fract_x
_atom_site_fract_y
_atom_site_fract_z
Co1 Co 0.5000 0.5000 0.5000
O1 O 0.3433(2) 0.3532(2) 0.40947(15)
O2 O 0.2317(2) 0.6543(2) 0.56554(15)
N1 N 0.4755(2) 0.6896(2) 0.30930(15)
C1 C 0.4203(3) 0.8698(3) 0.3062(2)
H1 H 0.3738 0.9133 0.3878
C2 C 0.4284(3) 0.9942(3) 0.1893(2)
H2 H 0.3899 1.1179 0.1935
C3 C 0.4944(3) 0.9350(2) 0.06475(18)
C4 C 0.5509(3) 0.7484(3) 0.0682(2)
H3 H 0.5971 0.7015 -0.0122
C5 C 0.5393(3) 0.6320(3) 0.1895(2)
H4 H 0.5776 0.5075 0.1883
H6 H 0.274(3) 0.313(3) 0.4687(19)
H7 H 0.277(3) 0.409(3) 0.3410(19)
H8 H 0.209(4) 0.725(3) 0.620(2)
H9 H 0.137(3) 0.686(4) 0.513(2)
C3A C 0.5056(3) 1.0650(2) -0.06475(18)
C2A C 0.5716(3) 1.0058(3) -0.1893(2)
C1A C 0.5797(3) 1.1302(3) -0.3062(2)
N1A N 0.5245(2) 1.3104(2) -0.30930(15)
C5A C 0.4607(3) 1.3680(3) -0.1895(2)
C4A C 0.4491(3) 1.2516(3) -0.0682(2)
H3A H 0.4029 1.2985 0.0122
H4A H 0.4224 1.4925 -0.1883
H1A H 0.6262 1.0867 -0.3878
H2A H 0.6101 0.8821 -0.1935
O1A O 0.6567(2) 0.6468(2) 0.59053(15)
H6A H 0.726(3) 0.687(3) 0.5313(19)
H7A H 0.723(3) 0.591(3) 0.6590(19)
O2A O 0.7683(2) 0.3457(2) 0.43446(15)
H8A H 0.791(4) 0.275(3) 0.380(2)
H9A H 0.863(3) 0.314(4) 0.487(2)
N1A_2 N 0.5245(2) 0.3104(2) 0.69070(15)
Co1_2 Co 0.5000 1.5000 -0.5000
O3 O 0.1006(3) 0.69712(19) 0.91475(15)
O4 O 0.1463(3) 0.8944(2) 0.73278(15)
C6 C 0.0371(3) 1.0052(3) 0.9384(2)
H5 H 0.0536 1.1165 0.8966
C7 C 0.0989(3) 0.8528(3) 0.8570(2)
C6A C -0.0371(3) 0.9948(3) 1.0616(2)
H5A H -0.0536 0.8835 1.1034
C7A C -0.0989(3) 1.1472(3) 1.1430(2)
O3A O -0.1006(3) 1.30288(19) 1.08525(15)
O4A O -0.1463(3) 1.1056(2) 1.26722(15)
O5 O 0.0887(2) 0.2461(2) 0.60850(16)
H10 H 0.053(4) 0.312(3) 0.668(2)
H11 H 0.110(4) 0.1402(17) 0.647(2)
O6 O 0.0797(3) 0.5214(2) 0.18880(16)
H12 H 0.016(3) 0.457(3) 0.170(3)
H13 H 0.103(4) 0.579(3) 0.1152(17)
loop_
_geom_bond_atom_site_label_1
_geom_bond_atom_site_label_2
_geom_bond_site_symmetry_1
_geom_bond_site_symmetry_2
Co1 O1 1_555 1_555
O1 H6 1_555 1_555
O2 Co1 1_555 1_555
O3 C7 1_555 1_555
O4 C7 1_555 1_555
O5 H10 1_555 1_555
O6 H12 1_555 1_555
N1 Co1 1_555 1_555
C1 N1 1_555 1_555
H1 C1 1_555 1_555
C2 C1 1_555 1_555
H2 C2 1_555 1_555
C3 C2 1_555 1_555
C4 C3 1_555 1_555
H3 C4 1_555 1_555
C5 N1 1_555 1_555
H4 C5 1_555 1_555
C6 H5 1_555 1_555
C7 C6 1_555 1_555
H7 O1 1_555 1_555
H8 O2 1_555 1_555
H9 O2 1_555 1_555
H11 O5 1_555 1_555
H13 O6 1_555 1_555
C6A C6 1_555 1_555
H5A C6A 1_555 1_555
C7A C6A 1_555 1_555
O3A C7A 1_555 1_555
O4A C7A 1_555 1_555
C3A C3 1_555 1_555
C2A C3A 1_555 1_555
C1A C2A 1_555 1_555
N1A C1A 1_555 1_555
C5A N1A 1_555 1_555
C4A C3A 1_555 1_555
H3A C4A 1_555 1_555
H4A C5A 1_555 1_555
H1A C1A 1_555 1_555
H2A C2A 1_555 1_555
O1A Co1 1_555 1_555
H6A O1A 1_555 1_555
H7A O1A 1_555 1_555
O2A Co1 1_555 1_555
H8A O2A 1_555 1_555
H9A O2A 1_555 1_555
N1A_2 Co1 1_555 1_555
Co1_2 N1A 1_555 1_555
C4 C5 1_555 1_555
C5A C4A 1_555 1_555

#END
