
#######################################################################
#
#                 Cambridge Crystallographic Data Centre
#                                CCDC 
#
#######################################################################
#
# If this CIF has been generated from an entry in the Cambridge 
# Structural Database, then it will include bibliographic, chemical, 
# crystal, experimental, refinement or atomic coordinate data resulting 
# from the CCDC's data processing and validation procedures.
#
#######################################################################

data_UNAGAR
_symmetry_cell_setting           triclinic
_symmetry_space_group_name_H-M   'P -1'
_symmetry_Int_Tables_number      2
_space_group_name_Hall           '-P 1'
loop_
_symmetry_equiv_pos_site_id
_symmetry_equiv_pos_as_xyz
1 x,y,z
2 -x,-y,-z
_cell_length_a                   7.071(2)
_cell_length_b                   7.824(2)
_cell_length_c                   9.815(3)
_cell_angle_alpha                79.60(3)
_cell_angle_beta                 86.76(2)
_cell_angle_gamma                72.52(3)
_cell_volume                     509.415
loop_
_atom_site_label
_atom_site_type_symbol
_atom_site_fract_x
_atom_site_fract_y
_atom_site_fract_z
Co1 Co 0.0000 0.0000 0.0000
N1 N -0.0247(3) 0.1895(3) -0.1907(2)
C1 C 0.0397(4) 0.1322(4) -0.3099(3)
H1 H 0.0790 0.0078 -0.3108
C2 C 0.0508(5) 0.2485(4) -0.4320(3)
H2 H 0.0959 0.2016 -0.5124
C3 C -0.0052(4) 0.4354(3) -0.4352(3)
C4 C -0.0719(4) 0.4941(4) -0.3111(3)
H3 H -0.1111 0.6178 -0.3074
C5 C -0.0804(4) 0.3704(4) -0.1927(3)
H4 H -0.1266 0.4138 -0.1111
O1 O 0.2683(3) -0.1544(3) -0.0659(2)
H5 H 0.349(6) -0.182(6) -0.015(5)
H6 H 0.288(6) -0.232(6) -0.126(5)
O2 O -0.1570(3) -0.1464(3) -0.0912(2)
H7 H -0.218(6) -0.182(6) -0.032(5)
H8 H -0.225(6) -0.081(6) -0.155(5)
C3A C 0.0052(4) 0.5646(3) -0.5648(3)
C2A C -0.0508(5) 0.7515(4) -0.5680(3)
C1A C -0.0397(4) 0.8678(4) -0.6901(3)
N1A N 0.0247(3) 0.8105(3) -0.8093(2)
Co1_2 Co 0.0000 1.0000 -1.0000
C5A C 0.0804(4) 0.6296(4) -0.8073(3)
C4A C 0.0719(4) 0.5059(4) -0.6889(3)
H3A H 0.1111 0.3822 -0.6926
H4A H 0.1266 0.5862 -0.8889
H1A H -0.0790 0.9922 -0.6892
H2A H -0.0959 0.7984 -0.4876
N1A_2 N 0.0247(3) -0.1895(3) 0.1907(2)
O1A O -0.2683(3) 0.1544(3) 0.0659(2)
O2A O 0.1570(3) 0.1464(3) 0.0912(2)
H5A H -0.349(6) 0.182(6) 0.015(5)
H6A H -0.288(6) 0.232(6) 0.126(5)
H7A H 0.218(6) 0.182(6) 0.032(5)
H8A H 0.225(6) 0.081(6) 0.155(5)
O3 O 0.6004(4) 0.1967(3) 0.4142(2)
O4 O 0.6471(4) 0.3949(3) 0.2332(2)
C6 C 0.5995(4) 0.3527(3) 0.3578(3)
C7 C 0.5379(5) 0.5053(4) 0.4385(3)
H9 H 0.5554 0.6162 0.3971
C7A C 0.4621(5) 0.4947(4) 0.5615(3)
C6A C 0.4005(4) 0.6473(3) 0.6422(3)
O3A O 0.3996(4) 0.8033(3) 0.5858(2)
O4A O 0.3529(4) 0.6051(3) 0.7668(2)
H9A H 0.4446 0.3838 0.6029
O5 O -0.4113(3) -0.2533(3) 0.1087(2)
H10 H -0.390(7) -0.347(7) 0.145(5)
H11 H -0.451(7) -0.185(6) 0.170(5)
O6 O 0.4206(4) 0.9783(3) 0.3115(2)
H12 H 0.473(7) 1.045(7) 0.327(5)
H13 H 0.418(7) 0.912(7) 0.387(5)
loop_
_geom_bond_atom_site_label_1
_geom_bond_atom_site_label_2
_geom_bond_site_symmetry_1
_geom_bond_site_symmetry_2
Co1 N1 1_555 1_555
N1 C1 1_555 1_555
C1 H1 1_555 1_555
C2 C1 1_555 1_555
H2 C2 1_555 1_555
C3 C2 1_555 1_555
C4 C3 1_555 1_555
H3 C4 1_555 1_555
C5 N1 1_555 1_555
H4 C5 1_555 1_555
O1 Co1 1_555 1_555
H5 O1 1_555 1_555
H6 O1 1_555 1_555
O2 Co1 1_555 1_555
H7 O2 1_555 1_555
H8 O2 1_555 1_555
O3 C6 1_555 1_555
O4 C6 1_555 1_555
C6 C7 1_555 1_555
C7 H9 1_555 1_555
O5 H10 1_555 1_555
H11 O5 1_555 1_555
O6 H12 1_555 1_555
H13 O6 1_555 1_555
C3A C3 1_555 1_555
C2A C3A 1_555 1_555
C1A C2A 1_555 1_555
N1A C1A 1_555 1_555
Co1_2 N1A 1_555 1_555
C5A N1A 1_555 1_555
C4A C3A 1_555 1_555
H3A C4A 1_555 1_555
H4A C5A 1_555 1_555
H1A C1A 1_555 1_555
H2A C2A 1_555 1_555
N1A_2 Co1 1_555 1_555
O1A Co1 1_555 1_555
O2A Co1 1_555 1_555
H5A O1A 1_555 1_555
H6A O1A 1_555 1_555
H7A O2A 1_555 1_555
H8A O2A 1_555 1_555
C7A C7 1_555 1_555
C6A C7A 1_555 1_555
O3A C6A 1_555 1_555
O4A C6A 1_555 1_555
H9A C7A 1_555 1_555
C4 C5 1_555 1_555
C5A C4A 1_555 1_555

#END
