
#######################################################################
#
#                 Cambridge Crystallographic Data Centre
#                                CCDC 
#
#######################################################################
#
# If this CIF has been generated from an entry in the Cambridge 
# Structural Database, then it will include bibliographic, chemical, 
# crystal, experimental, refinement or atomic coordinate data resulting 
# from the CCDC's data processing and validation procedures.
#
#######################################################################

data_UNAJOI
_symmetry_cell_setting           monoclinic
_symmetry_space_group_name_H-M   'P 21/n'
_symmetry_Int_Tables_number      14
_space_group_name_Hall           '-P 2yn'
loop_
_symmetry_equiv_pos_site_id
_symmetry_equiv_pos_as_xyz
1 x,y,z
2 1/2+x,1/2-y,1/2+z
3 -x,-y,-z
4 1/2-x,1/2+y,1/2-z
_cell_length_a                   8.934(2)
_cell_length_b                   13.847(3)
_cell_length_c                   15.450(3)
_cell_angle_alpha                90
_cell_angle_beta                 90.177(16)
_cell_angle_gamma                90
_cell_volume                     1911.3
loop_
_atom_site_label
_atom_site_type_symbol
_atom_site_fract_x
_atom_site_fract_y
_atom_site_fract_z
Zn1 Zn 0.22178(17) 0.25306(13) -0.55330(8)
Br1 Br 0.34376(18) 0.13853(11) -0.64270(9)
Br2 Br 0.10195(17) 0.37040(11) -0.64049(8)
O1 O 0.0915(10) 0.1947(8) -0.4663(5)
O2 O 0.1450(12) -0.1911(7) -0.0386(6)
C1 C -0.0423(17) 0.1680(9) -0.4674(9)
C2 C -0.1339(19) 0.1521(11) -0.5415(9)
H1 H -0.0936 0.1606 -0.5964
C3 C -0.2769(19) 0.1253(11) -0.5337(8)
H2 H -0.3337 0.1145 -0.5832
C4 C -0.3398(15) 0.1137(11) -0.4559(10)
H3 H -0.4408 0.0981 -0.4515
C5 C -0.2573(18) 0.1247(10) -0.3852(10)
H4 H -0.3008 0.1136 -0.3315
N1 N -0.1078(12) 0.1523(7) -0.3886(6)
C6 C -0.0195(15) 0.1667(9) -0.3116(6)
H5 H -0.0855 0.1857 -0.2649
H6 H 0.0496 0.2195 -0.3216
C7 C 0.0681(16) 0.0799(9) -0.2834(7)
C8 C 0.2234(18) 0.0778(12) -0.2957(8)
H7 H 0.2709 0.1289 -0.3233
C9 C 0.3060(17) -0.0003(14) -0.2669(9)
H8 H 0.4099 0.0017 -0.2700
C10 C 0.2353(17) -0.0823(11) -0.2332(8)
H9 H 0.2904 -0.1364 -0.2172
C11 C 0.0778(16) -0.0807(10) -0.2241(7)
C12 C 0.0010(14) -0.0013(9) -0.2502(6)
H10 H -0.1027 -0.0019 -0.2454
C13 C 0.0011(15) -0.1678(9) -0.1891(6)
H11 H 0.0733 -0.2197 -0.1826
H12 H -0.0751 -0.1889 -0.2298
N2 N -0.0704(13) -0.1473(7) -0.1027(6)
C14 C -0.2143(16) -0.1166(10) -0.0990(9)
H13 H -0.2692 -0.1116 -0.1500
C15 C -0.2812(18) -0.0926(11) -0.0224(12)
H14 H -0.3789 -0.0695 -0.0209
C16 C -0.198(2) -0.1041(11) 0.0532(9)
H15 H -0.2431 -0.0925 0.1064
C17 C -0.051(2) -0.1323(11) 0.0505(8)
H16 H 0.0060 -0.1324 0.1009
C18 C 0.0128(19) -0.1606(10) -0.0274(8)
O2C O 0.3550(12) 0.3089(7) -0.4614(6)
Zn1C Zn 0.27822(17) -0.24694(13) 0.05330(8)
loop_
_geom_bond_atom_site_label_1
_geom_bond_atom_site_label_2
_geom_bond_site_symmetry_1
_geom_bond_site_symmetry_2
Zn1 Br1 1_555 1_555
Br2 Zn1 1_555 1_555
O1 Zn1 1_555 1_555
O2 C18 1_555 1_555
C1 O1 1_555 1_555
C2 C1 1_555 1_555
H1 C2 1_555 1_555
C3 C2 1_555 1_555
H2 C3 1_555 1_555
C4 C3 1_555 1_555
H3 C4 1_555 1_555
C5 C4 1_555 1_555
H4 C5 1_555 1_555
N1 C1 1_555 1_555
C6 N1 1_555 1_555
H5 C6 1_555 1_555
H6 C6 1_555 1_555
C7 C6 1_555 1_555
C8 C7 1_555 1_555
H7 C8 1_555 1_555
C9 C8 1_555 1_555
H8 C9 1_555 1_555
C10 C9 1_555 1_555
H9 C10 1_555 1_555
C11 C10 1_555 1_555
C12 C7 1_555 1_555
H10 C12 1_555 1_555
C13 C11 1_555 1_555
H11 C13 1_555 1_555
H12 C13 1_555 1_555
N2 C13 1_555 1_555
C14 N2 1_555 1_555
H13 C14 1_555 1_555
C15 C14 1_555 1_555
H14 C15 1_555 1_555
C16 C15 1_555 1_555
H15 C16 1_555 1_555
C17 C16 1_555 1_555
H16 C17 1_555 1_555
C18 N2 1_555 1_555
O2C Zn1 1_555 1_555
Zn1C O2 1_555 1_555
C5 N1 1_555 1_555
C11 C12 1_555 1_555
C17 C18 1_555 1_555

#END
