
#######################################################################
#
#                 Cambridge Crystallographic Data Centre
#                                CCDC 
#
#######################################################################
#
# If this CIF has been generated from an entry in the Cambridge 
# Structural Database, then it will include bibliographic, chemical, 
# crystal, experimental, refinement or atomic coordinate data resulting 
# from the CCDC's data processing and validation procedures.
#
#######################################################################

data_UNAJUO
_symmetry_cell_setting           monoclinic
_symmetry_space_group_name_H-M   'P 21/n'
_symmetry_Int_Tables_number      14
_space_group_name_Hall           '-P 2yn'
loop_
_symmetry_equiv_pos_site_id
_symmetry_equiv_pos_as_xyz
1 x,y,z
2 1/2+x,1/2-y,1/2+z
3 -x,-y,-z
4 1/2-x,1/2+y,1/2-z
_cell_length_a                   9.3929(11)
_cell_length_b                   13.975(2)
_cell_length_c                   15.574(3)
_cell_angle_alpha                90
_cell_angle_beta                 90.510(14)
_cell_angle_gamma                90
_cell_volume                     2044.25
loop_
_atom_site_label
_atom_site_type_symbol
_atom_site_fract_x
_atom_site_fract_y
_atom_site_fract_z
Zn1 Zn 0.21965(8) 0.25580(6) -0.54611(4)
I1 I 0.34823(6) 0.13070(4) -0.63929(3)
I2 I 0.09196(6) 0.37931(4) -0.64165(3)
O1 O 0.0950(5) 0.1974(4) -0.4604(3)
O2 O 0.1522(5) -0.1886(4) -0.0420(3)
C1 C -0.0353(8) 0.1732(5) -0.4651(4)
C2 C -0.1189(9) 0.1607(6) -0.5399(5)
H1 H -0.0764 0.1686 -0.5932
C3 C -0.2567(9) 0.1381(6) -0.5371(5)
H2 H -0.3094 0.1305 -0.5875
C4 C -0.3203(8) 0.1262(6) -0.4573(6)
H3 H -0.4164 0.1105 -0.4541
C5 C -0.2424(8) 0.1373(5) -0.3845(5)
H4 H -0.2855 0.1305 -0.3313
N1 N -0.1027(6) 0.1582(4) -0.3889(3)
C6 C -0.0196(9) 0.1682(5) -0.3080(4)
H5 H -0.0846 0.1822 -0.2616
H6 H 0.0445 0.2222 -0.3134
C7 C 0.0664(7) 0.0804(5) -0.2844(4)
C8 C 0.2117(9) 0.0773(7) -0.2960(5)
H7 H 0.2577 0.1293 -0.3206
C9 C 0.2890(8) -0.0012(7) -0.2716(5)
H8 H 0.3870 -0.0018 -0.2795
C10 C 0.2241(8) -0.0786(6) -0.2358(5)
H9 H 0.2783 -0.1310 -0.2187
C11 C 0.0747(7) -0.0799(5) -0.2247(4)
C12 C 0.0014(7) 0.0015(5) -0.2505(3)
H10 H -0.0971 0.0024 -0.2446
C13 C 0.0008(8) -0.1648(5) -0.1877(4)
H11 H -0.0754 -0.1842 -0.2264
H12 H 0.0677 -0.2174 -0.1832
N2 N -0.0595(6) -0.1453(4) -0.1018(3)
C14 C -0.1948(8) -0.1138(5) -0.0954(5)
H13 H -0.2494 -0.1057 -0.1450
C15 C -0.2526(9) -0.0936(6) -0.0177(5)
H14 H -0.3474 -0.0750 -0.0137
C16 C -0.1685(9) -0.1013(5) 0.0551(5)
H15 H -0.2055 -0.0858 0.1085
C17 C -0.0342(8) -0.1308(5) 0.0486(4)
H16 H 0.0218 -0.1344 0.0980
C18 C 0.0264(8) -0.1568(5) -0.0311(4)
O2C O 0.3478(5) 0.3114(4) -0.4580(3)
Zn1C Zn 0.28035(8) -0.24420(6) 0.04611(4)
loop_
_geom_bond_atom_site_label_1
_geom_bond_atom_site_label_2
_geom_bond_site_symmetry_1
_geom_bond_site_symmetry_2
Zn1 I1 1_555 1_555
I2 Zn1 1_555 1_555
O1 Zn1 1_555 1_555
O2 C18 1_555 1_555
C1 O1 1_555 1_555
C2 C1 1_555 1_555
H1 C2 1_555 1_555
C3 C2 1_555 1_555
H2 C3 1_555 1_555
C4 C3 1_555 1_555
H3 C4 1_555 1_555
C5 C4 1_555 1_555
H4 C5 1_555 1_555
N1 C1 1_555 1_555
C6 N1 1_555 1_555
H5 C6 1_555 1_555
H6 C6 1_555 1_555
C7 C6 1_555 1_555
C8 C7 1_555 1_555
H7 C8 1_555 1_555
C9 C8 1_555 1_555
H8 C9 1_555 1_555
C10 C9 1_555 1_555
H9 C10 1_555 1_555
C11 C10 1_555 1_555
C12 C7 1_555 1_555
H10 C12 1_555 1_555
C13 C11 1_555 1_555
H11 C13 1_555 1_555
H12 C13 1_555 1_555
N2 C13 1_555 1_555
C14 N2 1_555 1_555
H13 C14 1_555 1_555
C15 C14 1_555 1_555
H14 C15 1_555 1_555
C16 C15 1_555 1_555
H15 C16 1_555 1_555
C17 C16 1_555 1_555
H16 C17 1_555 1_555
C18 N2 1_555 1_555
O2C Zn1 1_555 1_555
Zn1C O2 1_555 1_555
C5 N1 1_555 1_555
C11 C12 1_555 1_555
C17 C18 1_555 1_555

#END
