
#######################################################################
#
#                 Cambridge Crystallographic Data Centre
#                                CCDC 
#
#######################################################################
#
# If this CIF has been generated from an entry in the Cambridge 
# Structural Database, then it will include bibliographic, chemical, 
# crystal, experimental, refinement or atomic coordinate data resulting 
# from the CCDC's data processing and validation procedures.
#
#######################################################################

data_UNARAC
_symmetry_cell_setting           triclinic
_symmetry_space_group_name_H-M   'P -1'
_symmetry_Int_Tables_number      2
_space_group_name_Hall           '-P 1'
loop_
_symmetry_equiv_pos_site_id
_symmetry_equiv_pos_as_xyz
1 x,y,z
2 -x,-y,-z
_cell_length_a                   8.118(3)
_cell_length_b                   9.272(3)
_cell_length_c                   10.348(5)
_cell_angle_alpha                96.71(1)
_cell_angle_beta                 100.97(1)
_cell_angle_gamma                104.66(1)
_cell_volume                     728.519
loop_
_atom_site_label
_atom_site_type_symbol
_atom_site_fract_x
_atom_site_fract_y
_atom_site_fract_z
Cu1 Cu 0.09953(5) 0.05074(4) 0.88158(4)
V1 V 0.50476(13) 0.02878(12) 0.96986(10)
V2 V -0.18212(8) -0.53121(6) 0.82711(5)
P1 P 0.14037(12) -0.25032(9) 0.96283(8)
O1 O 0.5147(7) 0.0501(6) 0.8205(5)
H1 H 0.5861 0.1353 0.8218
H2 H 0.5497 -0.0203 0.7846
O2 O 0.3401(3) 0.0975(3) 0.9862(4)
O3 O 0.3189(3) -0.1909(3) 0.9310(2)
O4 O 0.0378(3) -0.1336(2) 0.9612(2)
O5 O 0.0392(4) -0.3931(3) 0.8555(3)
O6 O 0.1581(4) -0.2973(3) 1.1028(3)
O7 O -0.2702(4) -0.5765(3) 0.6687(3)
O8 O -0.3026(4) -0.4504(3) 0.8996(3)
N1 N 0.1530(4) 0.2175(3) 0.7752(3)
N2 N -0.1164(4) -0.0278(3) 0.7298(3)
C1 C 0.2898(6) 0.3417(4) 0.8032(4)
H3 H 0.3743 0.3607 0.8864
C2 C 0.3130(7) 0.4449(5) 0.7137(5)
H4 H 0.4105 0.5344 0.7367
C3 C 0.1960(7) 0.4175(5) 0.5943(5)
H5 H 0.2127 0.4856 0.5317
C4 C 0.0495(6) 0.2879(4) 0.5618(4)
C5 C 0.0339(5) 0.1919(4) 0.6578(4)
C6 C -0.0808(6) 0.2465(5) 0.4378(4)
H6 H -0.0704 0.3100 0.3712
C7 C -0.2176(6) 0.1198(6) 0.4135(4)
H7 H -0.3029 0.0949 0.3302
C8 C -0.2370(5) 0.0217(5) 0.5109(4)
C9 C -0.1113(5) 0.0590(4) 0.6318(4)
C10 C -0.3748(5) -0.1142(5) 0.4915(4)
H8 H -0.4635 -0.1458 0.4099
C11 C -0.3789(5) -0.1997(5) 0.5913(4)
H9 H -0.4718 -0.2913 0.5801
C12 C -0.2479(5) -0.1536(4) 0.7109(4)
H10 H -0.2530 -0.2141 0.7800
O4A O -0.0378(3) 0.1336(2) 1.0388(2)
V1A V 0.49524(13) -0.02878(12) 1.03014(10)
O1A O 0.4853(7) -0.0501(6) 1.1795(5)
O2A O 0.6599(3) -0.0975(3) 1.0138(4)
O3A O 0.6811(3) 0.1909(3) 1.0690(2)
O6A O -0.1581(4) -0.7027(3) 0.8972(3)
Cu1A Cu -0.09953(5) -0.05074(4) 1.11842(4)
V2A V 0.18212(8) -0.46879(6) 1.17289(5)
loop_
_geom_bond_atom_site_label_1
_geom_bond_atom_site_label_2
_geom_bond_site_symmetry_1
_geom_bond_site_symmetry_2
Cu1 O2 1_555 1_555
V1 O1 1_555 1_555
V2 O5 1_555 1_555
P1 O3 1_555 1_555
O1 H1 1_555 1_555
H2 O1 1_555 1_555
O2 V1 1_555 1_555
O3 V1 1_555 1_555
O4 Cu1 1_555 1_555
O5 P1 1_555 1_555
O6 P1 1_555 1_555
O7 V2 1_555 1_555
O8 V2 1_555 1_555
N1 Cu1 1_555 1_555
N2 Cu1 1_555 1_555
C1 N1 1_555 1_555
H3 C1 1_555 1_555
C2 C1 1_555 1_555
H4 C2 1_555 1_555
C3 C2 1_555 1_555
H5 C3 1_555 1_555
C4 C3 1_555 1_555
C5 N1 1_555 1_555
C6 C4 1_555 1_555
H6 C6 1_555 1_555
C7 C6 1_555 1_555
H7 C7 1_555 1_555
C8 C7 1_555 1_555
C9 N2 1_555 1_555
C10 C8 1_555 1_555
H8 C10 1_555 1_555
C11 C10 1_555 1_555
H9 C11 1_555 1_555
C12 N2 1_555 1_555
H10 C12 1_555 1_555
O4A Cu1 1_555 1_555
V1A V1 1_555 1_555
O1A V1 1_555 1_555
O2A V1 1_555 1_555
O3A V1 1_555 1_555
O6A V2 1_555 1_555
Cu1A O4 1_555 1_555
V2A O6 1_555 1_555
P1 O4 1_555 1_555
O1 V1A 1_555 1_555
O2 V1A 1_555 1_555
O3 V1A 1_555 1_555
C4 C5 1_555 1_555
C5 C9 1_555 1_555
C8 C9 1_555 1_555
C11 C12 1_555 1_555
O4A Cu1A 1_555 1_555
V1A O1A 1_555 1_555
V1A O2A 1_555 1_555
V1A O3A 1_555 1_555

#END
