
#######################################################################
#
#                 Cambridge Crystallographic Data Centre
#                                CCDC 
#
#######################################################################
#
# If this CIF has been generated from an entry in the Cambridge 
# Structural Database, then it will include bibliographic, chemical, 
# crystal, experimental, refinement or atomic coordinate data resulting 
# from the CCDC's data processing and validation procedures.
#
#######################################################################

data_UNAROQ
_symmetry_cell_setting           monoclinic
_symmetry_space_group_name_H-M   'C 2/m'
_symmetry_Int_Tables_number      12
_space_group_name_Hall           '-C 2y'
loop_
_symmetry_equiv_pos_site_id
_symmetry_equiv_pos_as_xyz
1 x,y,z
2 1/2+x,1/2+y,z
3 x,-y,z
4 1/2+x,1/2-y,z
5 -x,-y,-z
6 1/2-x,1/2-y,-z
7 -x,y,-z
8 1/2-x,1/2+y,-z
_cell_length_a                   10.421(2)
_cell_length_b                   10.556(2)
_cell_length_c                   7.1648(14)
_cell_angle_alpha                90.00
_cell_angle_beta                 118.85(2)
_cell_angle_gamma                90.00
_cell_volume                     690.336
loop_
_atom_site_label
_atom_site_type_symbol
_atom_site_fract_x
_atom_site_fract_y
_atom_site_fract_z
Mn1 Mn 0.0000 0.0000 0.5000
S1 S 0.36108(10) 0.0000 1.23738(16)
C1 C 0.2148(3) 0.0000 1.0078(5)
N1 N 0.1121(3) 0.0000 0.8409(4)
N2 N 0.15804(16) 0.15650(14) 0.5066(3)
C2 C 0.2903(2) 0.1776(2) 0.6681(4)
H1 H 0.3228 0.1286 0.7906
C3 C 0.1183(2) 0.2303(2) 0.3391(4)
H2 H 0.0258 0.2198 0.2220
N1D N -0.1121(3) 0.0000 0.1591(4)
C1D C -0.2148(3) 0.0000 -0.0078(5)
S1D S -0.36108(10) 0.0000 -0.23738(16)
C3E C 0.3817(2) 0.2697(2) 0.6609(4)
N2E N 0.34196(16) 0.34350(14) 0.4934(3)
Mn1E Mn 0.5000 0.5000 0.5000
C2E C 0.2097(2) 0.3224(2) 0.3319(4)
H1E H 0.1772 0.3714 0.2094
H2E H 0.4742 0.2802 0.7780
N2B N 0.15804(16) -0.15650(14) 0.5066(3)
N2D N -0.15804(16) -0.15650(14) 0.4934(3)
N2F N -0.15804(16) 0.15650(14) 0.4934(3)
C2B C 0.2903(2) -0.1776(2) 0.6681(4)
C3B C 0.1183(2) -0.2303(2) 0.3391(4)
H1B H 0.3228 -0.1286 0.7906
C3G C 0.3817(2) -0.2697(2) 0.6609(4)
C2G C 0.2097(2) -0.3224(2) 0.3319(4)
H2B H 0.0258 -0.2198 0.2220
N2G N 0.34196(16) -0.34350(14) 0.4934(3)
H2G H 0.4742 -0.2802 0.7780
H1G H 0.1772 -0.3714 0.2094
Mn1A Mn 0.5000 -0.5000 0.5000
loop_
_geom_bond_atom_site_label_1
_geom_bond_atom_site_label_2
_geom_bond_site_symmetry_1
_geom_bond_site_symmetry_2
Mn1 N1 1_555 1_555
S1 C1 1_555 1_555
C1 N1 1_555 1_555
N2 Mn1 1_555 1_555
C2 N2 1_555 1_555
H1 C2 1_555 1_555
C3 N2 1_555 1_555
H2 C3 1_555 1_555
N1D Mn1 1_555 1_555
C1D N1D 1_555 1_555
S1D C1D 1_555 1_555
C3E C2 1_555 1_555
N2E C3E 1_555 1_555
Mn1E N2E 1_555 1_555
C2E C3 1_555 1_555
H1E C2E 1_555 1_555
H2E C3E 1_555 1_555
N2B Mn1 1_555 1_555
N2D Mn1 1_555 1_555
N2F Mn1 1_555 1_555
C2B N2B 1_555 1_555
C3B N2B 1_555 1_555
H1B C2B 1_555 1_555
C3G C2B 1_555 1_555
C2G C3B 1_555 1_555
H2B C3B 1_555 1_555
N2G C3G 1_555 1_555
H2G C3G 1_555 1_555
H1G C2G 1_555 1_555
Mn1A N2G 1_555 1_555
N2E C2E 1_555 1_555
C2G N2G 1_555 1_555

#END
