
#######################################################################
#
#                 Cambridge Crystallographic Data Centre
#                                CCDC 
#
#######################################################################
#
# If this CIF has been generated from an entry in the Cambridge 
# Structural Database, then it will include bibliographic, chemical, 
# crystal, experimental, refinement or atomic coordinate data resulting 
# from the CCDC's data processing and validation procedures.
#
#######################################################################

data_UNASAD
_symmetry_cell_setting           monoclinic
_symmetry_space_group_name_H-M   'C 2/c'
_symmetry_Int_Tables_number      15
_space_group_name_Hall           '-C 2yn'
loop_
_symmetry_equiv_pos_site_id
_symmetry_equiv_pos_as_xyz
1 x,y,z
2 1/2+x,1/2+y,z
3 -x,y,1/2-z
4 1/2-x,1/2+y,1/2-z
5 -x,-y,-z
6 1/2-x,1/2-y,-z
7 x,-y,1/2+z
8 1/2+x,1/2-y,1/2+z
_cell_length_a                   28.0172(18)
_cell_length_b                   12.8603(6)
_cell_length_c                   7.7102(5)
_cell_angle_alpha                90
_cell_angle_beta                 92.850(2)
_cell_angle_gamma                90
_cell_volume                     2774.62
loop_
_atom_site_label
_atom_site_type_symbol
_atom_site_fract_x
_atom_site_fract_y
_atom_site_fract_z
Cd1 Cd 0.0000 0.35898(7) -0.2500
P1 P 0.06507(7) 0.41986(17) 0.1274(3)
P2 P 0.04090(7) 0.14395(17) 0.5438(2)
N1 N 0.0816(2) 0.2153(5) 0.2368(8)
H1 H 0.0512 0.2055 0.1921
C1 C 0.3151(4) 0.1583(13) 0.3356(17)
H2 H 0.3289 0.2267 0.3386
H3 H 0.3319 0.1154 0.2570
H4 H 0.3176 0.1285 0.4498
C2 C 0.2629(4) 0.1653(11) 0.2746(14)
C3 C 0.2345(4) 0.0784(10) 0.2582(17)
H5 H 0.2475 0.0139 0.2874
C4 C 0.1867(4) 0.0840(8) 0.1991(15)
H6 H 0.1684 0.0239 0.1887
C5 C 0.1668(3) 0.1792(7) 0.1561(11)
C6 C 0.1961(3) 0.2662(8) 0.1649(13)
H7 H 0.1839 0.3305 0.1298
C7 C 0.2433(4) 0.2582(10) 0.2254(16)
H8 H 0.2621 0.3178 0.2327
C8 C 0.1155(3) 0.1868(7) 0.0931(10)
H9 H 0.1056 0.1206 0.0427
H10 H 0.1126 0.2388 0.0022
C9 C 0.0854(3) 0.3282(6) 0.2922(10)
H11 H 0.1185 0.3432 0.3256
H12 H 0.0669 0.3381 0.3940
C10 C 0.0885(3) 0.1429(6) 0.3889(9)
H13 H 0.1184 0.1604 0.4509
H14 H 0.0916 0.0726 0.3449
O1 O 0.02148(18) 0.3766(4) 0.0369(6)
O2 O -0.06130(19) 0.5213(4) -0.7197(7)
O3 O 0.10789(18) 0.4251(4) 0.0027(7)
H15 H 0.0978 0.4419 -0.0950
O4 O -0.00606(18) 0.1315(4) 0.4429(6)
O5 O 0.04919(19) 0.2342(4) 0.6604(7)
O6 O 0.05296(19) 0.0400(4) 0.6469(7)
H16 H 0.0361 -0.0073 0.6070
O5_2 O 0.04919(19) 0.2342(4) -0.3396(7)
Cd1_2 Cd 0.0000 0.35898(7) 0.7500
O5B O -0.04919(19) 0.2342(4) -0.1604(7)
O1B O -0.02148(18) 0.3766(4) -0.5369(6)
Cd1F Cd 0.0000 0.64102(7) 0.2500
Cd1F_2 Cd 0.0000 0.64102(7) -0.7500
O2D O 0.06130(19) 0.4787(4) -0.2803(7)
P1B P -0.06507(7) 0.41986(17) -0.6274(3)
C9B C -0.0854(3) 0.3282(6) -0.7922(10)
O3B O -0.10789(18) 0.4251(4) -0.5027(7)
H15B H -0.0978 0.4419 -0.4050
O2F O -0.06130(19) 0.4787(4) -0.2197(7)
O2B O 0.06130(19) 0.5213(4) 0.2197(7)
N1B N -0.0816(2) 0.2153(5) -0.7368(8)
H11B H -0.1185 0.3432 -0.8256
H12B H -0.0669 0.3381 -0.8940
Cd1_3 Cd 0.0000 0.35898(7) -1.2500
H1B H -0.0512 0.2055 -0.6921
C8B C -0.1155(3) 0.1868(7) -0.5931(10)
C10B C -0.0885(3) 0.1429(6) -0.8889(9)
C5B C -0.1668(3) 0.1792(7) -0.6561(11)
H9B H -0.1056 0.1206 -0.5427
H10B H -0.1126 0.2388 -0.5022
P2B P -0.04090(7) 0.14395(17) -1.0438(2)
H13B H -0.1184 0.1604 -0.9509
H14B H -0.0916 0.0726 -0.8449
C4B C -0.1867(4) 0.0840(8) -0.6991(15)
C6B C -0.1961(3) 0.2662(8) -0.6649(13)
O4B O 0.00606(18) 0.1315(4) -0.9429(6)
O5B_2 O -0.04919(19) 0.2342(4) -1.1604(7)
O6B O -0.05296(19) 0.0400(4) -1.1469(7)
C3B C -0.2345(4) 0.0784(10) -0.7582(17)
H6B H -0.1684 0.0239 -0.6887
H7B H -0.1839 0.3305 -0.6298
C7B C -0.2433(4) 0.2582(10) -0.7254(16)
H16B H -0.0361 -0.0073 -1.1070
C2B C -0.2629(4) 0.1653(11) -0.7746(14)
H5B H -0.2475 0.0139 -0.7874
H8B H -0.2621 0.3178 -0.7327
C1B C -0.3151(4) 0.1583(13) -0.8356(17)
H2B H -0.3289 0.2267 -0.8386
H3B H -0.3319 0.1154 -0.7570
H4B H -0.3176 0.1285 -0.9498
loop_
_geom_bond_atom_site_label_1
_geom_bond_atom_site_label_2
_geom_bond_site_symmetry_1
_geom_bond_site_symmetry_2
Cd1 O1 1_555 1_555
P1 C9 1_555 1_555
P2 C10 1_555 1_555
N1 H1 1_555 1_555
C1 H2 1_555 1_555
H3 C1 1_555 1_555
H4 C1 1_555 1_555
C2 C1 1_555 1_555
C3 C2 1_555 1_555
H5 C3 1_555 1_555
C4 C3 1_555 1_555
H6 C4 1_555 1_555
C5 C4 1_555 1_555
C6 C5 1_555 1_555
H7 C6 1_555 1_555
C7 C2 1_555 1_555
H8 C7 1_555 1_555
C8 N1 1_555 1_555
H9 C8 1_555 1_555
H10 C8 1_555 1_555
C9 N1 1_555 1_555
H11 C9 1_555 1_555
H12 C9 1_555 1_555
C10 N1 1_555 1_555
H13 C10 1_555 1_555
H14 C10 1_555 1_555
O1 P1 1_555 1_555
O2 Cd1F_2 1_555 1_555
O3 P1 1_555 1_555
H15 O3 1_555 1_555
O4 P2 1_555 1_555
O5 P2 1_555 1_555
O6 P2 1_555 1_555
H16 O6 1_555 1_555
O5_2 Cd1 1_555 1_555
Cd1_2 O5 1_555 1_555
O5B Cd1 1_555 1_555
O1B Cd1 1_555 1_555
Cd1F O2B 1_555 1_555
O2D Cd1 1_555 1_555
P1B O2 1_555 1_555
C9B P1B 1_555 1_555
O3B P1B 1_555 1_555
H15B O3B 1_555 1_555
O2F Cd1 1_555 1_555
O2B P1 1_555 1_555
N1B C9B 1_555 1_555
H11B C9B 1_555 1_555
H12B C9B 1_555 1_555
Cd1_3 O5B_2 1_555 1_555
H1B N1B 1_555 1_555
C8B N1B 1_555 1_555
C10B N1B 1_555 1_555
C5B C8B 1_555 1_555
H9B C8B 1_555 1_555
H10B C8B 1_555 1_555
P2B C10B 1_555 1_555
H13B C10B 1_555 1_555
H14B C10B 1_555 1_555
C4B C5B 1_555 1_555
C6B C5B 1_555 1_555
O4B P2B 1_555 1_555
O5B_2 P2B 1_555 1_555
O6B P2B 1_555 1_555
C3B C4B 1_555 1_555
H6B C4B 1_555 1_555
H7B C6B 1_555 1_555
C7B C6B 1_555 1_555
H16B O6B 1_555 1_555
C2B C3B 1_555 1_555
H5B C3B 1_555 1_555
H8B C7B 1_555 1_555
C1B C2B 1_555 1_555
H2B C1B 1_555 1_555
H3B C1B 1_555 1_555
H4B C1B 1_555 1_555
C5 C8 1_555 1_555
C6 C7 1_555 1_555
O1B P1B 1_555 1_555
C7B C2B 1_555 1_555

#END
