
#######################################################################
#
#                 Cambridge Crystallographic Data Centre
#                                CCDC 
#
#######################################################################
#
# If this CIF has been generated from an entry in the Cambridge 
# Structural Database, then it will include bibliographic, chemical, 
# crystal, experimental, refinement or atomic coordinate data resulting 
# from the CCDC's data processing and validation procedures.
#
#######################################################################

data_UNATUZ
_symmetry_cell_setting           monoclinic
_symmetry_space_group_name_H-M   'P 21/n'
_symmetry_Int_Tables_number      14
_space_group_name_Hall           '-P 2yn'
loop_
_symmetry_equiv_pos_site_id
_symmetry_equiv_pos_as_xyz
1 x,y,z
2 1/2-x,1/2+y,1/2-z
3 -x,-y,-z
4 1/2+x,1/2-y,1/2+z
_cell_length_a                   5.871(3)
_cell_length_b                   13.107(6)
_cell_length_c                   10.051(5)
_cell_angle_alpha                90
_cell_angle_beta                 96.792(8)
_cell_angle_gamma                90
_cell_volume                     768.009
loop_
_atom_site_label
_atom_site_type_symbol
_atom_site_fract_x
_atom_site_fract_y
_atom_site_fract_z
Cu1 Cu 0.24515(18) 0.49878(8) 1.01422(10)
I1 I -0.01813(7) 0.41130(4) 0.81228(4)
S1 S 0.4835(3) 0.62634(13) 0.91677(17)
N1 N 0.3262(17) 0.5716(7) 0.5343(8)
N2 N 0.4574(13) 0.5623(6) 0.6546(7)
H1 H 0.5802 0.5261 0.6664
N3 N 0.1841(11) 0.6593(5) 0.6919(7)
C1 C 0.3770(13) 0.6147(5) 0.7518(7)
C2 C 0.1593(16) 0.6310(7) 0.5606(8)
H2 H 0.0387 0.6514 0.4979
C3 C 0.0261(14) 0.7230(7) 0.7579(10)
H3 H 0.0840 0.7311 0.8507
H4 H -0.1218 0.6909 0.7509
H5 H 0.0124 0.7886 0.7154
Cu1B Cu -0.24515(18) 0.50122(8) 0.98578(10)
Cu1B_2 Cu 0.75485(18) 0.50122(8) 0.98578(10)
I1B I 0.01813(7) 0.58870(4) 1.18772(4)
S1B S 0.5165(3) 0.37366(13) 1.08323(17)
loop_
_geom_bond_atom_site_label_1
_geom_bond_atom_site_label_2
_geom_bond_site_symmetry_1
_geom_bond_site_symmetry_2
Cu1 I1 1_555 1_555
I1 Cu1B 1_555 1_555
S1 Cu1 1_555 1_555
N1 N2 1_555 1_555
N2 H1 1_555 1_555
N3 C1 1_555 1_555
C1 S1 1_555 1_555
C2 N1 1_555 1_555
H2 C2 1_555 1_555
C3 N3 1_555 1_555
H3 C3 1_555 1_555
H4 C3 1_555 1_555
H5 C3 1_555 1_555
Cu1B I1B 1_555 1_555
Cu1B_2 S1 1_555 1_555
I1B Cu1 1_555 1_555
S1B Cu1 1_555 1_555
N2 C1 1_555 1_555
N3 C2 1_555 1_555
Cu1B_2 S1B 1_555 1_555

#END
