
#######################################################################
#
#                 Cambridge Crystallographic Data Centre
#                                CCDC 
#
#######################################################################
#
# If this CIF has been generated from an entry in the Cambridge 
# Structural Database, then it will include bibliographic, chemical, 
# crystal, experimental, refinement or atomic coordinate data resulting 
# from the CCDC's data processing and validation procedures.
#
#######################################################################

data_UNATOT
_symmetry_cell_setting           monoclinic
_symmetry_space_group_name_H-M   'P 21/n'
_symmetry_Int_Tables_number      14
_space_group_name_Hall           '-P 2yn'
loop_
_symmetry_equiv_pos_site_id
_symmetry_equiv_pos_as_xyz
1 x,y,z
2 1/2-x,1/2+y,1/2-z
3 -x,-y,-z
4 1/2+x,1/2-y,1/2+z
_cell_length_a                   8.8195(11)
_cell_length_b                   5.0838(6)
_cell_length_c                   11.7800(15)
_cell_angle_alpha                90
_cell_angle_beta                 109.4000(10)
_cell_angle_gamma                90
_cell_volume                     498.186
loop_
_atom_site_label
_atom_site_type_symbol
_atom_site_fract_x
_atom_site_fract_y
_atom_site_fract_z
Cu1 Cu 0.66473(4) 0.00074(5) 0.65884(3)
S1 S 0.91942(6) -0.16626(11) 0.72745(5)
N1 N 1.1445(2) 0.2768(4) 1.00207(18)
C1 C 1.0440(3) 0.0101(4) 0.8484(2)
C2 C 1.2546(3) 0.1053(5) 1.0030(2)
H1 H 1.3569 0.0996 1.0602
N2 N 1.0097(2) 0.2211(4) 0.90198(18)
N3 N 1.1999(2) -0.0636(4) 0.90915(18)
C3 C 1.2923(3) -0.2715(5) 0.8779(3)
H2 H 1.3977 -0.2790 0.9372
H3 H 1.3013 -0.2356 0.8004
H4 H 1.2389 -0.4369 0.8755
Cu1A Cu 0.83527(4) -0.49926(5) 0.84116(3)
Cu1A_2 Cu 0.83527(4) 0.50074(5) 0.84116(3)
Cu1C Cu 1.16473(4) 0.49926(5) 1.15884(3)
S1A S 0.58058(6) 0.33374(11) 0.77255(5)
N1C N 0.6445(2) 0.2232(4) 0.50207(18)
N2A N 0.4903(2) -0.2789(4) 0.59802(18)
loop_
_geom_bond_atom_site_label_1
_geom_bond_atom_site_label_2
_geom_bond_site_symmetry_1
_geom_bond_site_symmetry_2
Cu1 S1 1_555 1_555
S1 C1 1_555 1_555
N1 C2 1_555 1_555
C1 N2 1_555 1_555
C2 H1 1_555 1_555
N2 N1 1_555 1_555
N3 C1 1_555 1_555
C3 N3 1_555 1_555
H2 C3 1_555 1_555
H3 C3 1_555 1_555
H4 C3 1_555 1_555
Cu1A S1 1_555 1_555
Cu1A_2 N2 1_555 1_555
Cu1C N1 1_555 1_555
S1A Cu1 1_555 1_555
N1C Cu1 1_555 1_555
N2A Cu1 1_555 1_555
C2 N3 1_555 1_555
Cu1A_2 S1A 1_555 1_555

#END
