
#######################################################################
#
#                 Cambridge Crystallographic Data Centre
#                                CCDC 
#
#######################################################################
#
# If this CIF has been generated from an entry in the Cambridge 
# Structural Database, then it will include bibliographic, chemical, 
# crystal, experimental, refinement or atomic coordinate data resulting 
# from the CCDC's data processing and validation procedures.
#
#######################################################################

data_UNAVEL
_symmetry_cell_setting           triclinic
_symmetry_space_group_name_H-M   'P -1'
_symmetry_Int_Tables_number      2
_space_group_name_Hall           '-P 1'
loop_
_symmetry_equiv_pos_site_id
_symmetry_equiv_pos_as_xyz
1 x,y,z
2 -x,-y,-z
_cell_length_a                   7.1138(7)
_cell_length_b                   11.0894(11)
_cell_length_c                   11.8195(12)
_cell_angle_alpha                104.9670(10)
_cell_angle_beta                 92.2620(10)
_cell_angle_gamma                100.7640(10)
_cell_volume                     881.146
loop_
_atom_site_label
_atom_site_type_symbol
_atom_site_fract_x
_atom_site_fract_y
_atom_site_fract_z
Cu1 Cu 0.20221(11) 0.03296(7) -0.47588(6)
S1 S 0.0962(2) -0.13164(13) -0.24810(12)
S2 S 0.3085(2) -0.22956(13) -0.21394(12)
S3 S 0.0806(2) -0.17125(13) -0.56667(12)
N1 N 0.3900(7) 0.2006(4) -0.2475(4)
N2 N 0.2869(6) 0.0795(4) -0.3024(4)
N3 N 0.2999(6) 0.1026(4) -0.1129(4)
N4 N 0.6230(6) -0.1565(4) -0.4558(4)
N5 N 0.5735(6) -0.1270(4) -0.3416(4)
N6 N 0.4006(6) -0.3136(4) -0.4420(4)
N7 N 0.1760(7) -0.1671(5) -0.8903(4)
N8 N 0.1941(6) -0.1162(4) -0.7711(4)
H1 H 0.2597 -0.0412 -0.7367
N9 N 0.0153(6) -0.2994(4) -0.8006(4)
C1 C 0.2327(8) 0.0219(5) -0.2205(4)
C2 C 0.3945(8) 0.2100(5) -0.1345(5)
H2 H 0.4558 0.2822 -0.0764
C3 C 0.2706(9) 0.0778(6) 0.0019(4)
H3 H 0.3343 0.1509 0.0632
H4 H 0.3227 0.0051 0.0063
H5 H 0.1356 0.0611 0.0112
C4 C 0.4362(7) -0.2236(5) -0.3374(4)
C5 C 0.5193(8) -0.2674(5) -0.5129(5)
H6 H 0.5268 -0.3084 -0.5914
C6 C 0.2552(9) -0.4317(5) -0.4713(5)
H7 H 0.1921 -0.4399 -0.4026
H8 H 0.3156 -0.5030 -0.4990
H9 H 0.1623 -0.4298 -0.5317
C7 C 0.1001(8) -0.1942(5) -0.7128(5)
C8 C 0.0657(9) -0.2767(6) -0.9037(5)
H10 H 0.0248 -0.3346 -0.9767
C9 C -0.1098(9) -0.4141(5) -0.7838(5)
H11 H -0.1510 -0.4746 -0.8589
H12 H -0.2201 -0.3910 -0.7462
H13 H -0.0400 -0.4513 -0.7354
Cu1A Cu -0.20221(11) -0.03296(7) -0.52412(6)
Cu1A_2 Cu 0.79779(11) -0.03296(7) -0.52412(6)
S3A S -0.0806(2) 0.17125(13) -0.43333(12)
N4A N 0.3770(6) 0.1565(4) -0.5442(4)
I1 I 0.34073(7) -0.57183(4) -0.81110(4)
loop_
_geom_bond_atom_site_label_1
_geom_bond_atom_site_label_2
_geom_bond_site_symmetry_1
_geom_bond_site_symmetry_2
Cu1 S3 1_555 1_555
S1 S2 1_555 1_555
S2 C4 1_555 1_555
S3 C7 1_555 1_555
N1 N2 1_555 1_555
N2 Cu1 1_555 1_555
N3 C1 1_555 1_555
N4 N5 1_555 1_555
N5 C4 1_555 1_555
N6 C4 1_555 1_555
N7 N8 1_555 1_555
N8 H1 1_555 1_555
N9 C7 1_555 1_555
C1 S1 1_555 1_555
C2 N1 1_555 1_555
H2 C2 1_555 1_555
C3 N3 1_555 1_555
H3 C3 1_555 1_555
H4 C3 1_555 1_555
H5 C3 1_555 1_555
C5 N4 1_555 1_555
H6 C5 1_555 1_555
C6 N6 1_555 1_555
H7 C6 1_555 1_555
H8 C6 1_555 1_555
H9 C6 1_555 1_555
C7 N8 1_555 1_555
C8 N7 1_555 1_555
H10 C8 1_555 1_555
C9 N9 1_555 1_555
H11 C9 1_555 1_555
H12 C9 1_555 1_555
H13 C9 1_555 1_555
Cu1A S3 1_555 1_555
Cu1A_2 N4 1_555 1_555
S3A Cu1 1_555 1_555
N4A Cu1 1_555 1_555
N2 C1 1_555 1_555
N3 C2 1_555 1_555
N6 C5 1_555 1_555
N9 C8 1_555 1_555
Cu1A S3A 1_555 1_555

#END
