
#######################################################################
#
#                 Cambridge Crystallographic Data Centre
#                                CCDC 
#
#######################################################################
#
# If this CIF has been generated from an entry in the Cambridge 
# Structural Database, then it will include bibliographic, chemical, 
# crystal, experimental, refinement or atomic coordinate data resulting 
# from the CCDC's data processing and validation procedures.
#
#######################################################################

data_UNAVAH
_symmetry_cell_setting           orthorhombic
_symmetry_space_group_name_H-M   'P n m a'
_symmetry_Int_Tables_number      62
_space_group_name_Hall           '-P 2ac 2n'
loop_
_symmetry_equiv_pos_site_id
_symmetry_equiv_pos_as_xyz
1 x,y,z
2 1/2-x,-y,1/2+z
3 1/2+x,1/2-y,1/2-z
4 -x,1/2+y,-z
5 -x,-y,-z
6 1/2+x,y,1/2-z
7 1/2-x,1/2+y,1/2+z
8 x,1/2-y,z
_cell_length_a                   15.6513(15)
_cell_length_b                   16.1222(15)
_cell_length_c                   16.0671(15)
_cell_angle_alpha                90
_cell_angle_beta                 90
_cell_angle_gamma                90
_cell_volume                     4054.27
loop_
_atom_site_label
_atom_site_type_symbol
_atom_site_fract_x
_atom_site_fract_y
_atom_site_fract_z
Cu1 Cu 0.47560(10) 0.7500 0.11863(12)
Cu2 Cu 0.27218(7) 0.65086(8) 0.23882(8)
Cu3 Cu 0.65612(7) 0.63269(7) 0.14226(8)
Cu4 Cu 0.31119(8) 0.63396(8) 0.40329(8)
Cu5 Cu 0.39483(16) 0.7500 0.56011(13)
Cu6 Cu 0.40462(16) 0.7500 -0.25137(14)
Cu7 Cu 0.26571(12) 0.7500 -0.12560(11)
Cu8 Cu 0.30818(11) 0.7500 0.04394(11)
Cu9 Cu 0.04549(16) 0.7500 -0.16529(12)
I1 I 0.13500(5) 0.7500 0.23626(5)
I2 I 0.39385(5) 0.7500 0.31337(5)
I3 I 0.69731(5) 0.7500 0.02653(5)
I4 I 0.25393(4) 0.50437(4) 0.32092(4)
I5 I 0.24118(7) 0.7500 -0.28166(6)
I6 I 0.42552(6) 0.7500 -0.08262(5)
I7 I 0.13611(6) 0.7500 -0.02837(6)
S1 S 0.29807(13) 0.62029(14) 0.10079(14)
S2 S 0.49014(19) 0.62566(16) 0.70966(16)
N1 N 0.4704(4) 0.6333(4) 0.1150(4)
N2 N 0.5421(4) 0.5825(4) 0.1194(4)
N3 N 0.4280(4) 0.5057(4) 0.1071(4)
N4 N 0.3728(5) 0.5845(5) 0.5007(5)
N5 N 0.4054(5) 0.6367(5) 0.5621(5)
N6 N 0.4308(5) 0.5102(5) 0.5992(5)
C1 C 0.4029(5) 0.5863(5) 0.1077(5)
C2 C 0.5142(5) 0.5065(5) 0.1136(5)
H1 H 0.5486 0.4595 0.1139
C3 C 0.3738(6) 0.4318(6) 0.1013(7)
H2 H 0.4089 0.3830 0.1023
H3 H 0.3419 0.4334 0.0503
H4 H 0.3350 0.4306 0.1476
C4 C 0.4406(6) 0.5908(6) 0.6206(6)
C5 C 0.3884(6) 0.5095(6) 0.5246(6)
H5 H 0.3731 0.4620 0.4955
C6 C 0.4593(7) 0.4385(6) 0.6461(6)
H6 H 0.4866 0.4565 0.6965
H7 H 0.4991 0.4072 0.6133
H8 H 0.4110 0.4043 0.6597
Cu2G Cu 0.27218(7) 0.84914(8) 0.23882(8)
Cu2E Cu 0.77218(7) 0.65086(8) 0.26118(8)
Cu3G Cu 0.65612(7) 0.86731(7) 0.14226(8)
Cu3E Cu 0.15612(7) 0.63269(7) 0.35774(8)
Cu3B Cu 0.15612(7) 0.86731(7) 0.35774(8)
Cu4E Cu 0.81119(8) 0.63396(8) 0.09671(8)
Cu4G Cu 0.31119(8) 0.86604(8) 0.40329(8)
Cu4B Cu 0.81119(8) 0.86604(8) 0.09671(8)
Cu4_2 Cu 0.31119(8) 0.63396(8) -0.59671(8)
Cu5_2 Cu 0.39483(16) 0.7500 -0.43989(13)
Cu6_2 Cu 0.40462(16) 0.7500 0.74863(14)
Cu9B Cu 0.54549(16) 0.7500 0.66529(12)
Cu9B_2 Cu 0.54549(16) 0.7500 -0.33471(12)
I1B I 0.63500(5) 0.7500 0.26374(5)
I2B I 0.89385(5) 0.7500 0.18663(5)
I3B I 0.19731(5) 0.7500 0.47347(5)
I4E I 0.75393(4) 0.50437(4) 0.17908(4)
I4G I 0.25393(4) 0.99563(4) 0.32092(4)
I4B I 0.75393(4) 0.99563(4) 0.17908(4)
S1G S 0.29807(13) 0.87971(14) 0.10079(14)
S2_2 S 0.49014(19) 0.62566(16) -0.29034(16)
S2G S 0.49014(19) 0.87434(16) -0.29034(16)
S2B S -0.00986(19) 0.87434(16) -0.20966(16)
S2E S -0.00986(19) 0.62566(16) -0.20966(16)
N1G N 0.4704(4) 0.8667(4) 0.1150(4)
N2G N 0.5421(4) 0.9175(4) 0.1194(4)
N3G N 0.4280(4) 0.9943(4) 0.1071(4)
N4_2 N 0.3728(5) 0.5845(5) -0.4993(5)
N4E N 0.8728(5) 0.5845(5) -0.0007(5)
N5_2 N 0.4054(5) 0.6367(5) -0.4379(5)
N5G N 0.4054(5) 0.8633(5) 0.5621(5)
N6_2 N 0.4308(5) 0.5102(5) -0.4008(5)
C1G C 0.4029(5) 0.9137(5) 0.1077(5)
C2G C 0.5142(5) 0.9935(5) 0.1136(5)
H1G H 0.5486 1.0405 0.1139
C3G C 0.3738(6) 1.0682(6) 0.1013(7)
H2G H 0.4089 1.1170 0.1023
H3G H 0.3419 1.0666 0.0503
H4G H 0.3350 1.0694 0.1476
C4_2 C 0.4406(6) 0.5908(6) -0.3794(6)
C5_2 C 0.3884(6) 0.5095(6) -0.4754(6)
H5_2 H 0.3731 0.4620 -0.5045
C6_2 C 0.4593(7) 0.4385(6) -0.3539(6)
H6_2 H 0.4866 0.4565 -0.3035
H7_2 H 0.4991 0.4072 -0.3867
H8_2 H 0.4110 0.4043 -0.3403
loop_
_geom_bond_atom_site_label_1
_geom_bond_atom_site_label_2
_geom_bond_site_symmetry_1
_geom_bond_site_symmetry_2
Cu1 N1 1_555 1_555
Cu2 I1 1_555 1_555
Cu3 I3 1_555 1_555
Cu4 I2 1_555 1_555
Cu5 N5 1_555 1_555
Cu6 I5 1_555 1_555
Cu7 I5 1_555 1_555
Cu8 I6 1_555 1_555
Cu9 I7 1_555 1_555
I1 Cu2G 1_555 1_555
I2 Cu2 1_555 1_555
I3 Cu3G 1_555 1_555
I4 Cu2 1_555 1_555
I6 Cu6 1_555 1_555
I7 Cu7 1_555 1_555
S1 Cu2 1_555 1_555
S2 C4 1_555 1_555
N1 N2 1_555 1_555
N2 Cu3 1_555 1_555
N3 C1 1_555 1_555
N4 Cu4 1_555 1_555
N5 N4 1_555 1_555
N6 C4 1_555 1_555
C1 S1 1_555 1_555
C2 N2 1_555 1_555
H1 C2 1_555 1_555
C3 N3 1_555 1_555
H2 C3 1_555 1_555
H3 C3 1_555 1_555
H4 C3 1_555 1_555
C4 N5 1_555 1_555
C5 N4 1_555 1_555
H5 C5 1_555 1_555
C6 N6 1_555 1_555
H6 C6 1_555 1_555
H7 C6 1_555 1_555
H8 C6 1_555 1_555
Cu2G I2 1_555 1_555
Cu2E I1B 1_555 1_555
Cu3G I1B 1_555 1_555
Cu3E I1 1_555 1_555
Cu3B I1 1_555 1_555
Cu4E I3 1_555 1_555
Cu4G I2 1_555 1_555
Cu4B I3 1_555 1_555
Cu4_2 N4_2 1_555 1_555
Cu5_2 N5_2 1_555 1_555
Cu6_2 S2 1_555 1_555
Cu9B S2 1_555 1_555
Cu9B_2 S2_2 1_555 1_555
I1B Cu3 1_555 1_555
I2B Cu2E 1_555 1_555
I3B Cu4 1_555 1_555
I4E Cu3 1_555 1_555
I4G Cu2G 1_555 1_555
I4B Cu3G 1_555 1_555
S1G Cu8 1_555 1_555
S2_2 Cu6 1_555 1_555
S2G Cu6 1_555 1_555
S2B Cu9 1_555 1_555
S2E Cu9 1_555 1_555
N1G Cu1 1_555 1_555
N2G Cu3G 1_555 1_555
N3G C1G 1_555 1_555
N4_2 N5_2 1_555 1_555
N4E Cu4E 1_555 1_555
N5_2 C4_2 1_555 1_555
N5G Cu5 1_555 1_555
N6_2 C4_2 1_555 1_555
C1G S1G 1_555 1_555
C2G N2G 1_555 1_555
H1G C2G 1_555 1_555
C3G N3G 1_555 1_555
H2G C3G 1_555 1_555
H3G C3G 1_555 1_555
H4G C3G 1_555 1_555
C4_2 S2_2 1_555 1_555
C5_2 N4_2 1_555 1_555
H5_2 C5_2 1_555 1_555
C6_2 N6_2 1_555 1_555
H6_2 C6_2 1_555 1_555
H7_2 C6_2 1_555 1_555
H8_2 C6_2 1_555 1_555
Cu4 I4 1_555 1_555
Cu7 I6 1_555 1_555
Cu8 I7 1_555 1_555
Cu8 S1 1_555 1_555
I4 Cu3E 1_555 1_555
N1 C1 1_555 1_555
N3 C2 1_555 1_555
N6 C5 1_555 1_555
Cu2G S1G 1_555 1_555
Cu2E I4E 1_555 1_555
Cu3E I3B 1_555 1_555
Cu3B I3B 1_555 1_555
Cu3B I4G 1_555 1_555
Cu4E I2B 1_555 1_555
Cu4E I4E 1_555 1_555
Cu4G I3B 1_555 1_555
Cu4G I4G 1_555 1_555
Cu4B I2B 1_555 1_555
Cu4B I4B 1_555 1_555
Cu9B_2 S2G 1_555 1_555
N1G N2G 1_555 1_555
N1G C1G 1_555 1_555
N3G C2G 1_555 1_555
N6_2 C5_2 1_555 1_555

#END
