
#######################################################################
#
#                 Cambridge Crystallographic Data Centre
#                                CCDC 
#
#######################################################################
#
# If this CIF has been generated from an entry in the Cambridge 
# Structural Database, then it will include bibliographic, chemical, 
# crystal, experimental, refinement or atomic coordinate data resulting 
# from the CCDC's data processing and validation procedures.
#
#######################################################################

data_UNAXAJ01
_symmetry_cell_setting           monoclinic
_symmetry_space_group_name_H-M   'C 2/c'
_symmetry_Int_Tables_number      15
_space_group_name_Hall           '-C 2yn'
loop_
_symmetry_equiv_pos_site_id
_symmetry_equiv_pos_as_xyz
1 x,y,z
2 -x,y,1/2-z
3 1/2+x,1/2+y,z
4 1/2-x,1/2+y,1/2-z
5 -x,-y,-z
6 x,-y,1/2+z
7 1/2-x,1/2-y,-z
8 1/2+x,1/2-y,1/2+z
_cell_length_a                   14.2797(18)
_cell_length_b                   18.8445(18)
_cell_length_c                   16.5121(18)
_cell_angle_alpha                90
_cell_angle_beta                 100.608(3)
_cell_angle_gamma                90
_cell_volume                     4367.37
loop_
_atom_site_label
_atom_site_type_symbol
_atom_site_fract_x
_atom_site_fract_y
_atom_site_fract_z
Cd1 Cd 0.87319(2) 0.416424(16) 1.039730(19)
N1 N 0.7076(2) 0.42121(19) 0.9918(2)
N2 N 0.3646(2) 0.16561(18) 0.6388(2)
O1 O 0.8836(2) 0.30915(17) 0.94048(19)
O2 O 0.8928(2) 0.42152(16) 0.90941(17)
O3 O 0.8655(2) 0.49759(17) 0.6294(2)
O4 O 0.8490(2) 0.42317(18) 0.52514(19)
O5 O 1.0358(3) 0.4369(2) 1.0840(2)
Br1 Br 0.86525(5) 0.15894(3) 0.65558(5)
C1 C 0.8882(3) 0.3567(3) 0.8907(3)
C2 C 0.8829(3) 0.3386(2) 0.8013(3)
C3 C 0.8778(3) 0.3916(2) 0.7436(3)
H1 H 0.8808 0.4386 0.7612
C4 C 0.8685(3) 0.3778(2) 0.6608(3)
C5 C 0.8651(3) 0.3075(2) 0.6344(3)
H2 H 0.8589 0.2967 0.5787
C6 C 0.8711(3) 0.2544(2) 0.6923(3)
C7 C 0.8796(3) 0.2687(2) 0.7751(3)
H3 H 0.8829 0.2319 0.8130
C8 C 0.8602(3) 0.4363(3) 0.5985(3)
C9 C 0.6724(3) 0.4659(2) 0.9317(3)
H4 H 0.7147 0.4939 0.9091
C10 C 0.5763(4) 0.4731(2) 0.9011(3)
H5 H 0.5554 0.5055 0.8592
C11 C 0.5115(3) 0.4328(3) 0.9324(3)
C12 C 0.5470(4) 0.3874(2) 0.9939(3)
H6 H 0.5059 0.3593 1.0178
C13 C 0.6447(4) 0.3827(2) 1.0216(3)
H7 H 0.6670 0.3505 1.0635
C14 C 0.4081(3) 0.4382(2) 0.8960(3)
H8 H 0.3924 0.4873 0.8818
H9 H 0.3708 0.4234 0.9365
C15 C 0.3824(3) 0.3922(2) 0.8191(3)
H10 H 0.3187 0.4043 0.7908
H11 H 0.4262 0.4024 0.7821
C16 C 0.3862(3) 0.3143(2) 0.8386(3)
H12 H 0.3364 0.3038 0.8696
H13 H 0.4468 0.3043 0.8742
C17 C 0.3751(3) 0.2647(2) 0.7660(3)
C18 C 0.3820(3) 0.1928(2) 0.7813(3)
H14 H 0.3902 0.1760 0.8351
C19 C 0.3768(3) 0.1461(2) 0.7169(3)
H15 H 0.3821 0.0979 0.7290
C20 C 0.3558(3) 0.2347(2) 0.6239(3)
H16 H 0.3454 0.2501 0.5695
C21 C 0.3612(3) 0.2849(2) 0.6858(3)
H17 H 0.3553 0.3328 0.6723
H18 H 1.033(4) 0.4786(13) 1.096(4)
H19 H 1.073(3) 0.426(2) 1.055(2)
Cd1E Cd 0.87319(2) 0.583576(16) 0.539730(19)
Cd1G Cd 0.37319(2) 0.083576(16) 0.539730(19)
N2G N 0.8646(2) 0.33439(18) 1.1388(2)
O3E O 0.8655(2) 0.50241(17) 1.1294(2)
loop_
_geom_bond_atom_site_label_1
_geom_bond_atom_site_label_2
_geom_bond_site_symmetry_1
_geom_bond_site_symmetry_2
Cd1 N1 1_555 1_555
N1 C9 1_555 1_555
N2 C19 1_555 1_555
O1 Cd1 1_555 1_555
O2 Cd1 1_555 1_555
O3 C8 1_555 1_555
O4 C8 1_555 1_555
O5 Cd1 1_555 1_555
Br1 C6 1_555 1_555
C1 O1 1_555 1_555
C2 C1 1_555 1_555
C3 C2 1_555 1_555
H1 C3 1_555 1_555
C4 C3 1_555 1_555
C5 C4 1_555 1_555
H2 C5 1_555 1_555
C6 C5 1_555 1_555
C7 C2 1_555 1_555
H3 C7 1_555 1_555
C8 C4 1_555 1_555
C9 H4 1_555 1_555
C10 C9 1_555 1_555
H5 C10 1_555 1_555
C11 C10 1_555 1_555
C12 C11 1_555 1_555
H6 C12 1_555 1_555
C13 N1 1_555 1_555
H7 C13 1_555 1_555
C14 C11 1_555 1_555
H8 C14 1_555 1_555
H9 C14 1_555 1_555
C15 C14 1_555 1_555
H10 C15 1_555 1_555
H11 C15 1_555 1_555
C16 C15 1_555 1_555
H12 C16 1_555 1_555
H13 C16 1_555 1_555
C17 C16 1_555 1_555
C18 C17 1_555 1_555
H14 C18 1_555 1_555
C19 C18 1_555 1_555
H15 C19 1_555 1_555
C20 N2 1_555 1_555
H16 C20 1_555 1_555
C21 C17 1_555 1_555
H17 C21 1_555 1_555
H18 O5 1_555 1_555
H19 O5 1_555 1_555
Cd1E O3 1_555 1_555
Cd1G N2 1_555 1_555
N2G Cd1 1_555 1_555
O3E Cd1 1_555 1_555
O2 C1 1_555 1_555
C6 C7 1_555 1_555
C12 C13 1_555 1_555
C20 C21 1_555 1_555

#END
