
#######################################################################
#
#                 Cambridge Crystallographic Data Centre
#                                CCDC 
#
#######################################################################
#
# If this CIF has been generated from an entry in the Cambridge 
# Structural Database, then it will include bibliographic, chemical, 
# crystal, experimental, refinement or atomic coordinate data resulting 
# from the CCDC's data processing and validation procedures.
#
#######################################################################

data_UNAXUD
_symmetry_cell_setting           monoclinic
_symmetry_space_group_name_H-M   'P 21/n'
_symmetry_Int_Tables_number      14
_space_group_name_Hall           '-P 2yn'
loop_
_symmetry_equiv_pos_site_id
_symmetry_equiv_pos_as_xyz
1 x,y,z
2 1/2-x,1/2+y,1/2-z
3 -x,-y,-z
4 1/2+x,1/2-y,1/2+z
_cell_length_a                   10.173(2)
_cell_length_b                   17.211(3)
_cell_length_c                   11.681(2)
_cell_angle_alpha                90
_cell_angle_beta                 99.371(2)
_cell_angle_gamma                90
_cell_volume                     2017.9
loop_
_atom_site_label
_atom_site_type_symbol
_atom_site_fract_x
_atom_site_fract_y
_atom_site_fract_z
Cd1 Cd -0.11948(5) 0.03759(3) 1.11235(5)
Br1 Br 0.70929(14) -0.09754(12) 1.41555(16)
O1 O 0.0551(6) -0.0262(4) 1.2186(6)
O2 O 0.1361(6) 0.0260(3) 1.0725(5)
O3 O 0.6380(6) 0.0560(4) 1.1220(6)
O4 O 0.7389(7) -0.0526(4) 1.1722(8)
N1 N -0.1243(7) 0.1489(4) 1.0010(6)
N2 N -0.0922(8) 0.1219(4) 0.2814(6)
C1 C 0.2885(7) -0.0336(4) 1.2232(7)
C2 C 0.3984(7) -0.0156(4) 1.1741(6)
H1 H 0.3864 0.0107 1.1036
C3 C 0.5266(7) -0.0352(4) 1.2256(7)
C4 C 0.5414(9) -0.0741(6) 1.3301(9)
C5 C 0.4330(9) -0.0924(7) 1.3808(9)
H2 H 0.4452 -0.1190 1.4511
C6 C 0.3078(9) -0.0722(6) 1.3297(8)
H3 H 0.2352 -0.0841 1.3656
C7 C 0.1510(8) -0.0102(4) 1.1680(7)
C8 C 0.6441(8) -0.0101(5) 1.1693(8)
C9 C -0.2404(9) 0.1808(5) 0.9519(7)
H4 H -0.3190 0.1617 0.9723
C10 C -0.2481(9) 0.2408(5) 0.8724(7)
H5 H -0.3303 0.2615 0.8403
C11 C -0.1316(10) 0.2696(4) 0.8411(7)
C12 C -0.0143(10) 0.2377(5) 0.8926(8)
H6 H 0.0660 0.2566 0.8756
C13 C -0.0148(9) 0.1762(5) 0.9718(7)
H7 H 0.0661 0.1541 1.0047
C14 C -0.1420(12) 0.3310(5) 0.7503(8)
H8 H -0.0608 0.3617 0.7615
H9 H -0.2155 0.3654 0.7584
C15 C -0.1645(11) 0.2959(6) 0.6258(8)
H10 H -0.2394 0.2603 0.6176
H11 H -0.1861 0.3373 0.5694
C16 C -0.0434(11) 0.2535(7) 0.6014(9)
H12 H -0.0141 0.2179 0.6648
H13 H 0.0276 0.2908 0.5990
C17 C -0.0480(11) 0.0911(6) 0.3846(8)
H14 H -0.0230 0.0391 0.3877
C18 C -0.0370(10) 0.1313(6) 0.4866(8)
H15 H -0.0091 0.1056 0.5564
C19 C -0.0661(10) 0.2078(6) 0.4875(8)
C20 C -0.1153(11) 0.2420(6) 0.3814(9)
H16 H -0.1398 0.2941 0.3775
C21 C -0.1275(10) 0.1969(6) 0.2806(9)
H17 H -0.1616 0.2199 0.2099
Cd1B Cd 0.11948(5) -0.03759(3) 0.88765(5)
Cd1_2 Cd 0.88052(5) 0.03759(3) 1.11235(5)
Cd1_3 Cd -0.11948(5) 0.03759(3) 0.11235(5)
O2B O -0.1361(6) -0.0260(3) 0.9275(5)
O3_2 O -0.3620(6) 0.0560(4) 1.1220(6)
O4_2 O -0.2611(7) -0.0526(4) 1.1722(8)
N2_2 N -0.0922(8) 0.1219(4) 1.2814(6)
loop_
_geom_bond_atom_site_label_1
_geom_bond_atom_site_label_2
_geom_bond_site_symmetry_1
_geom_bond_site_symmetry_2
Cd1 O1 1_555 1_555
Br1 C4 1_555 1_555
O1 C7 1_555 1_555
O2 C7 1_555 1_555
O3 C8 1_555 1_555
O4 C8 1_555 1_555
N1 Cd1 1_555 1_555
N2 C17 1_555 1_555
C1 C2 1_555 1_555
C2 H1 1_555 1_555
C3 C2 1_555 1_555
C4 C3 1_555 1_555
C5 C4 1_555 1_555
H2 C5 1_555 1_555
C6 C1 1_555 1_555
H3 C6 1_555 1_555
C7 C1 1_555 1_555
C8 C3 1_555 1_555
C9 N1 1_555 1_555
H4 C9 1_555 1_555
C10 C9 1_555 1_555
H5 C10 1_555 1_555
C11 C10 1_555 1_555
C12 C11 1_555 1_555
H6 C12 1_555 1_555
C13 N1 1_555 1_555
H7 C13 1_555 1_555
C14 C11 1_555 1_555
H8 C14 1_555 1_555
H9 C14 1_555 1_555
C15 C14 1_555 1_555
H10 C15 1_555 1_555
H11 C15 1_555 1_555
C16 C15 1_555 1_555
H12 C16 1_555 1_555
H13 C16 1_555 1_555
C17 H14 1_555 1_555
C18 C17 1_555 1_555
H15 C18 1_555 1_555
C19 C16 1_555 1_555
C20 C19 1_555 1_555
H16 C20 1_555 1_555
C21 N2 1_555 1_555
H17 C21 1_555 1_555
Cd1B O2 1_555 1_555
Cd1_2 O3 1_555 1_555
Cd1_3 N2 1_555 1_555
O2B Cd1 1_555 1_555
O3_2 Cd1 1_555 1_555
O4_2 Cd1 1_555 1_555
N2_2 Cd1 1_555 1_555
O4 Cd1_2 1_555 1_555
C5 C6 1_555 1_555
C12 C13 1_555 1_555
C18 C19 1_555 1_555
C20 C21 1_555 1_555

#END
