
#######################################################################
#
#                 Cambridge Crystallographic Data Centre
#                                CCDC 
#
#######################################################################
#
# If this CIF has been generated from an entry in the Cambridge 
# Structural Database, then it will include bibliographic, chemical, 
# crystal, experimental, refinement or atomic coordinate data resulting 
# from the CCDC's data processing and validation procedures.
#
#######################################################################

data_UNAZAL
_symmetry_cell_setting           rhombohedral
_symmetry_space_group_name_H-M   'R -3'
_symmetry_Int_Tables_number      148
_space_group_name_Hall           '-R 3'
loop_
_symmetry_equiv_pos_site_id
_symmetry_equiv_pos_as_xyz
1 x,y,z
2 -y,x-y,z
3 -x+y,-x,z
4 2/3+x,1/3+y,1/3+z
5 2/3-y,1/3+x-y,1/3+z
6 2/3-x+y,1/3-x,1/3+z
7 1/3+x,2/3+y,2/3+z
8 1/3-y,2/3+x-y,2/3+z
9 1/3-x+y,2/3-x,2/3+z
10 -x,-y,-z
11 y,-x+y,-z
12 x-y,x,-z
13 1/3-x,2/3-y,2/3-z
14 1/3+y,2/3-x+y,2/3-z
15 1/3+x-y,2/3+x,2/3-z
16 2/3-x,1/3-y,1/3-z
17 2/3+y,1/3-x+y,1/3-z
18 2/3+x-y,1/3+x,1/3-z
_cell_length_a                   16.0155(10)
_cell_length_b                   16.0155(10)
_cell_length_c                   26.675(3)
_cell_angle_alpha                90
_cell_angle_beta                 90
_cell_angle_gamma                120
_cell_volume                     5925.38
loop_
_atom_site_label
_atom_site_type_symbol
_atom_site_fract_x
_atom_site_fract_y
_atom_site_fract_z
C1 C 0.11681(17) 0.13867(17) 0.09002(9)
H1 H 0.0620 0.1377 0.1024
C2 C 0.20370(16) 0.18326(19) 0.11210(9)
H2 H 0.2193 0.2171 0.1422
C3 C 0.21036(15) 0.11484(16) 0.04410(8)
H3 H 0.2338 0.0931 0.0184
C4 C 0.36648(15) 0.20834(16) 0.08920(9)
C5 C 0.41845(16) 0.28885(16) 0.11833(8)
H4 H 0.3872 0.3164 0.1350
C6 C 0.51727(16) 0.32898(17) 0.12286(9)
H5 H 0.5520 0.3824 0.1433
C7 C 0.56443(16) 0.28992(16) 0.09703(8)
C8 C 0.51198(15) 0.20777(16) 0.06912(8)
H6 H 0.5431 0.1803 0.0522
C9 C 0.41201(17) 0.16566(18) 0.06622(9)
H7 H 0.3762 0.1084 0.0486
Co1 Co 0.0000 0.0000 0.0000
N1 N 0.12020(12) 0.09571(12) 0.04747(7)
N2 N 0.26399(13) 0.16993(14) 0.08266(7)
N3 N 0.6667 0.3333 0.10133(12)
C1B C 1.02186(24) 0.88319(17) 0.09002(9)
C1A C 0.86133(17) -0.02186(24) 0.09002(9)
C1A_2 C -0.13867(17) -0.02186(24) 0.09002(9)
C1_2 C -0.88319(17) 0.13867(17) 0.09002(9)
C1B_2 C 0.02186(24) 0.88319(17) 0.09002(9)
H1B H 1.0757 0.9380 0.1024
H1A H 0.8623 -0.0757 0.1024
H1A_2 H -0.1377 -0.0757 0.1024
H1_2 H -0.9380 0.1377 0.1024
H1B_2 H 0.0757 0.9380 0.1024
C2B C 0.97956(25) 0.79630(16) 0.11210(9)
C2A C 0.81674(19) 0.02044(25) 0.11210(9)
C2A_2 C -0.18326(19) 0.02044(25) 0.11210(9)
C2_2 C -0.79630(16) 0.18326(19) 0.11210(9)
C2B_2 C -0.02044(25) 0.79630(16) 0.11210(9)
H2B H 0.9978 0.7807 0.1422
H2A H 0.7829 0.0022 0.1422
H2A_2 H -0.2171 0.0022 0.1422
H2_2 H -0.7807 0.2171 0.1422
H2B_2 H -0.0022 0.7807 0.1422
C3B C 0.90448(22) 0.78964(15) 0.04410(8)
C3A C 0.88516(16) 0.09552(22) 0.04410(8)
C3A_2 C -0.11484(16) 0.09552(22) 0.04410(8)
C3_2 C -0.78964(15) 0.11484(16) 0.04410(8)
C3B_2 C -0.09552(22) 0.78964(15) 0.04410(8)
H3B H 0.8593 0.7662 0.0184
H3A H 0.9069 0.1407 0.0184
H3A_2 H -0.0931 0.1407 0.0184
H3_2 H -0.7662 0.0931 0.0184
H3B_2 H -0.1407 0.7662 0.0184
C4B C 0.84186(22) 0.63352(15) 0.08920(9)
C4A C 0.79166(16) 0.15814(22) 0.08920(9)
C4A_2 C -0.20834(16) 0.15814(22) 0.08920(9)
C4_2 C -0.63352(15) 0.20834(16) 0.08920(9)
C4B_2 C -0.15814(22) 0.63352(15) 0.08920(9)
C5B C 0.87040(23) 0.58155(16) 0.11833(8)
C5A C 0.71115(16) 0.12960(23) 0.11833(8)
C5A_2 C -0.28885(16) 0.12960(23) 0.11833(8)
C5_2 C -0.58155(16) 0.28885(16) 0.11833(8)
C5B_2 C -0.12960(23) 0.58155(16) 0.11833(8)
H4B H 0.9292 0.6128 0.1350
H4A H 0.6836 0.0708 0.1350
H4A_2 H -0.3164 0.0708 0.1350
H4_2 H -0.6128 0.3164 0.1350
H4B_2 H -0.0708 0.6128 0.1350
C6B C 0.81171(23) 0.48273(16) 0.12286(9)
C6A C 0.67102(17) 0.18829(23) 0.12286(9)
C6A_2 C -0.32898(17) 0.18829(23) 0.12286(9)
C6_2 C -0.48273(16) 0.32898(17) 0.12286(9)
C6B_2 C -0.18829(23) 0.48273(16) 0.12286(9)
H5B H 0.8304 0.4480 0.1433
H5A H 0.6176 0.1696 0.1433
H5A_2 H -0.3824 0.1696 0.1433
H5_2 H -0.4480 0.3824 0.1433
H5B_2 H -0.1696 0.4480 0.1433
C7B C 0.72549(23) 0.43557(16) 0.09703(8)
C7A C 0.71008(16) 0.27451(23) 0.09703(8)
C7A_2 C -0.28992(16) 0.27451(23) 0.09703(8)
C7_2 C -0.43557(16) 0.28992(16) 0.09703(8)
C7B_2 C -0.27451(23) 0.43557(16) 0.09703(8)
C8B C 0.69579(22) 0.48802(15) 0.06912(8)
C8A C 0.79223(16) 0.30421(22) 0.06912(8)
C8A_2 C -0.20777(16) 0.30421(22) 0.06912(8)
C8_2 C -0.48802(15) 0.20777(16) 0.06912(8)
C8B_2 C -0.30421(22) 0.48802(15) 0.06912(8)
H6B H 0.6372 0.4569 0.0522
H6A H 0.8197 0.3628 0.0522
H6A_2 H -0.1803 0.3628 0.0522
H6_2 H -0.4569 0.1803 0.0522
H6B_2 H -0.3628 0.4569 0.0522
C9B C 0.75365(25) 0.58799(17) 0.06622(9)
C9A C 0.83434(18) 0.24635(25) 0.06622(9)
C9A_2 C -0.16566(18) 0.24635(25) 0.06622(9)
C9_2 C -0.58799(17) 0.16566(18) 0.06622(9)
C9B_2 C -0.24635(25) 0.58799(17) 0.06622(9)
H7B H 0.7322 0.6238 0.0486
H7A H 0.8916 0.2678 0.0486
H7A_2 H -0.1084 0.2678 0.0486
H7_2 H -0.6238 0.1084 0.0486
H7B_2 H -0.2678 0.6238 0.0486
Co1_2 Co 1.0000 1.0000 0.0000
Co1_3 Co 1.0000 0.0000 0.0000
Co1_4 Co -1.0000 0.0000 0.0000
Co1_5 Co 0.0000 1.0000 0.0000
N1B N 0.97551(17) 0.87980(12) 0.04747(7)
N1A N 0.90429(12) 0.02449(17) 0.04747(7)
N1A_2 N -0.09571(12) 0.02449(17) 0.04747(7)
N1_2 N -0.87980(12) 0.09571(12) 0.04747(7)
N1B_2 N -0.02449(17) 0.87980(12) 0.04747(7)
N1B_3 N -0.02449(17) -0.12020(12) 0.04747(7)
N1I N -0.12020(12) -0.09571(12) -0.04747(7)
N1J N 0.09571(12) -0.02449(17) -0.04747(7)
N1K N 0.02449(17) 0.12020(12) -0.04747(7)
N2B N 0.90594(19) 0.73601(13) 0.08266(7)
N2A N 0.83007(14) 0.09406(19) 0.08266(7)
N2A_2 N -0.16993(14) 0.09406(19) 0.08266(7)
N2_2 N -0.73601(13) 0.16993(14) 0.08266(7)
N2B_2 N -0.09406(19) 0.73601(13) 0.08266(7)
N3A N -0.3333 0.3334 0.10133(12)
Cl1 Cl 0.3333 0.6667 0.28442(4)
O1 O 0.2792(4) 0.3762(4) 0.19418(19)
H8 H 0.2998 0.4292 0.1785
H9 H 0.2424 0.3730 0.2180
O2 O 0.3333 0.6667 0.1667
O3 O 0.2607(2) 0.9153(2) 0.05273(12)
H12 H 0.2758 0.9137 0.0224
H13 H 0.2011 0.8976 0.0545
O4 O 0.4298(2) 0.9959(2) 0.98467(12)
H14 H 0.4240 0.9937 0.9529
O5 O 0.3840(2) 0.1089(2) 0.94119(12)
H16 H 0.4305 0.1149 0.9232
H17 H 0.3867 0.1631 0.9439
H10? H 0.3652 0.6878 0.1396
H11? H 0.2801 0.6658 0.1640
H15? H 0.4855 1.0057 0.9926
loop_
_geom_bond_atom_site_label_1
_geom_bond_atom_site_label_2
_geom_bond_site_symmetry_1
_geom_bond_site_symmetry_2
C1 H1 1_555 1_555
C2 C1 1_555 1_555
H2 C2 1_555 1_555
C3 H3 1_555 1_555
C4 C5 1_555 1_555
C5 H4 1_555 1_555
C6 C5 1_555 1_555
H5 C6 1_555 1_555
C7 C6 1_555 1_555
C8 C7 1_555 1_555
H6 C8 1_555 1_555
C9 C4 1_555 1_555
H7 C9 1_555 1_555
Co1 N1 1_555 1_555
N1 C1 1_555 1_555
N2 C2 1_555 1_555
N3 C7 1_555 1_555
O1 H8 1_555 1_555
H9 O1 1_555 1_555
O3 H12 1_555 1_555
H13 O3 1_555 1_555
O4 H14 1_555 1_555
O5 H16 1_555 1_555
H17 O5 1_555 1_555
C1B H1B 1_555 1_555
C1A H1A 1_555 1_555
C1A_2 H1A_2 1_555 1_555
C1_2 H1_2 1_555 1_555
C1B_2 H1B_2 1_555 1_555
C2B C1B 1_555 1_555
C2A C1A 1_555 1_555
C2A_2 C1A_2 1_555 1_555
C2_2 C1_2 1_555 1_555
C2B_2 C1B_2 1_555 1_555
H2B C2B 1_555 1_555
H2A C2A 1_555 1_555
H2A_2 C2A_2 1_555 1_555
H2_2 C2_2 1_555 1_555
H2B_2 C2B_2 1_555 1_555
C3B H3B 1_555 1_555
C3A H3A 1_555 1_555
C3A_2 H3A_2 1_555 1_555
C3_2 H3_2 1_555 1_555
C3B_2 H3B_2 1_555 1_555
C4B C5B 1_555 1_555
C4A C5A 1_555 1_555
C4A_2 C5A_2 1_555 1_555
C4_2 C5_2 1_555 1_555
C4B_2 C5B_2 1_555 1_555
C5B H4B 1_555 1_555
C5A H4A 1_555 1_555
C5A_2 H4A_2 1_555 1_555
C5_2 H4_2 1_555 1_555
C5B_2 H4B_2 1_555 1_555
C6B C5B 1_555 1_555
C6A C5A 1_555 1_555
C6A_2 C5A_2 1_555 1_555
C6_2 C5_2 1_555 1_555
C6B_2 C5B_2 1_555 1_555
H5B C6B 1_555 1_555
H5A C6A 1_555 1_555
H5A_2 C6A_2 1_555 1_555
H5_2 C6_2 1_555 1_555
H5B_2 C6B_2 1_555 1_555
C7B N3 1_555 1_555
C7A N3 1_555 1_555
C7A_2 C6A_2 1_555 1_555
C7_2 C6_2 1_555 1_555
C7B_2 C6B_2 1_555 1_555
C8B C7B 1_555 1_555
C8A C7A 1_555 1_555
C8A_2 C7A_2 1_555 1_555
C8_2 C7_2 1_555 1_555
C8B_2 C7B_2 1_555 1_555
H6B C8B 1_555 1_555
H6A C8A 1_555 1_555
H6A_2 C8A_2 1_555 1_555
H6_2 C8_2 1_555 1_555
H6B_2 C8B_2 1_555 1_555
C9B C4B 1_555 1_555
C9A C4A 1_555 1_555
C9A_2 C4A_2 1_555 1_555
C9_2 C4_2 1_555 1_555
C9B_2 C4B_2 1_555 1_555
H7B C9B 1_555 1_555
H7A C9A 1_555 1_555
H7A_2 C9A_2 1_555 1_555
H7_2 C9_2 1_555 1_555
H7B_2 C9B_2 1_555 1_555
Co1_2 N1B 1_555 1_555
Co1_3 N1A 1_555 1_555
Co1_4 N1_2 1_555 1_555
Co1_5 N1B_2 1_555 1_555
N1B C1B 1_555 1_555
N1A C1A 1_555 1_555
N1A_2 Co1 1_555 1_555
N1_2 C1_2 1_555 1_555
N1B_2 C1B_2 1_555 1_555
N1B_3 Co1 1_555 1_555
N1I Co1 1_555 1_555
N1J Co1 1_555 1_555
N1K Co1 1_555 1_555
N2B C2B 1_555 1_555
N2A C2A 1_555 1_555
N2A_2 C2A_2 1_555 1_555
N2_2 C2_2 1_555 1_555
N2B_2 C2B_2 1_555 1_555
N3A C7A_2 1_555 1_555
C3 N1 1_555 1_555
C3 N2 1_555 1_555
C4 N2 1_555 1_555
C8 C9 1_555 1_555
C1A_2 N1A_2 1_555 1_555
C3B N1B 1_555 1_555
C3B N2B 1_555 1_555
C3A N1A 1_555 1_555
C3A N2A 1_555 1_555
C3A_2 N1A_2 1_555 1_555
C3A_2 N2A_2 1_555 1_555
C3_2 N1_2 1_555 1_555
C3_2 N2_2 1_555 1_555
C3B_2 N1B_2 1_555 1_555
C3B_2 N2B_2 1_555 1_555
C4B N2B 1_555 1_555
C4A N2A 1_555 1_555
C4A_2 N2A_2 1_555 1_555
C4_2 N2_2 1_555 1_555
C4B_2 N2B_2 1_555 1_555
C6B C7B 1_555 1_555
C6A C7A 1_555 1_555
C7_2 N3A 1_555 1_555
C7B_2 N3A 1_555 1_555
C8B C9B 1_555 1_555
C8A C9A 1_555 1_555
C8A_2 C9A_2 1_555 1_555
C8_2 C9_2 1_555 1_555
C8B_2 C9B_2 1_555 1_555

#END
