
#######################################################################
#
#                 Cambridge Crystallographic Data Centre
#                                CCDC 
#
#######################################################################
#
# If this CIF has been generated from an entry in the Cambridge 
# Structural Database, then it will include bibliographic, chemical, 
# crystal, experimental, refinement or atomic coordinate data resulting 
# from the CCDC's data processing and validation procedures.
#
#######################################################################

data_UNAZEP
_symmetry_cell_setting           monoclinic
_symmetry_space_group_name_H-M   'P 21/n'
_symmetry_Int_Tables_number      14
_space_group_name_Hall           '-P 2yn'
loop_
_symmetry_equiv_pos_site_id
_symmetry_equiv_pos_as_xyz
1 x,y,z
2 1/2-x,1/2+y,1/2-z
3 -x,-y,-z
4 1/2+x,1/2-y,1/2+z
_cell_length_a                   9.731(2)
_cell_length_b                   18.145(5)
_cell_length_c                   18.588(5)
_cell_angle_alpha                90
_cell_angle_beta                 96.984(5)
_cell_angle_gamma                90
_cell_volume                     3257.71
loop_
_atom_site_label
_atom_site_type_symbol
_atom_site_fract_x
_atom_site_fract_y
_atom_site_fract_z
C1 C 0.7041(4) 0.25248(18) 0.33332(19)
H1 H 0.6903 0.2324 0.2870
C2 C 0.7158(4) 0.32492(18) 0.34849(19)
H2 H 0.7113 0.3634 0.3152
C3 C 0.7335(3) 0.26233(17) 0.44762(17)
H3 H 0.7440 0.2510 0.4968
C4 C 0.5959(3) 0.57695(16) 0.96208(17)
H4 H 0.5253 0.5682 0.9905
C5 C 0.5811(3) 0.57728(17) 0.88975(17)
H5 H 0.4994 0.5691 0.8593
C6 C 0.7957(3) 0.59974(15) 0.93125(16)
H6 H 0.8898 0.6098 0.9330
C7 C 0.7059(3) 0.93884(17) 0.33030(16)
H7 H 0.7012 0.9589 0.2840
C8 C 0.7137(4) 0.86589(17) 0.34581(17)
H8 H 0.7144 0.8273 0.3130
C9 C 0.7147(3) 0.92970(16) 0.44490(16)
H9 H 0.7166 0.9415 0.4937
C10 C 0.7368(3) 0.79407(16) 0.46137(15)
C11 C 0.6539(3) 0.73466(17) 0.44132(18)
H10 H 0.5856 0.7382 0.4019
C12 C 0.6718(3) 0.66991(17) 0.47944(19)
H11 H 0.6149 0.6298 0.4659
C13 C 0.7730(3) 0.66383(16) 0.53735(16)
C14 C 0.8543(3) 0.72375(16) 0.55781(16)
H12 H 0.9211 0.7205 0.5979
C15 C 0.8376(3) 0.78881(16) 0.51931(15)
H13 H 0.8946 0.8289 0.5326
C16 C 0.7367(3) 0.59689(15) 0.79628(16)
C17 C 0.8459(3) 0.55889(17) 0.77320(17)
H14 H 0.9061 0.5323 0.8062
C18 C 0.8653(3) 0.56054(17) 0.70170(17)
H15 H 0.9399 0.5356 0.6864
C19 C 0.7756(4) 0.59878(15) 0.65189(17)
C20 C 0.6688(4) 0.63753(18) 0.67560(17)
H16 H 0.6091 0.6645 0.6427
C21 C 0.6496(4) 0.63672(18) 0.74757(17)
H17 H 0.5772 0.6633 0.7633
C22 C 0.7508(3) 0.39814(16) 0.46231(17)
C23 C 0.6984(4) 0.40457(17) 0.52696(19)
H18 H 0.6535 0.3647 0.5452
C24 C 0.7117(4) 0.46939(16) 0.56513(18)
H19 H 0.6755 0.4731 0.6090
C25 C 0.7780(3) 0.52908(16) 0.53922(16)
C26 C 0.8331(3) 0.52181(17) 0.47469(17)
H20 H 0.8804 0.5612 0.4571
C27 C 0.8192(4) 0.45686(17) 0.43591(18)
H21 H 0.8557 0.4527 0.3921
C28 C 1.4419(3) 0.10764(15) 0.35742(18)
C29 C 1.3083(3) 0.12840(15) 0.31360(15)
C30 C 1.1831(3) 0.10681(15) 0.33437(16)
H22 H 1.1802 0.0805 0.3771
C31 C 1.0616(3) 0.12463(17) 0.29087(16)
C32 C 1.0663(3) 0.16456(17) 0.22824(16)
H23 H 0.9844 0.1759 0.1991
C33 C 1.1905(3) 0.18784(16) 0.20842(16)
C34 C 1.3109(3) 0.16945(16) 0.25165(15)
H24 H 1.3955 0.1851 0.2386
C35 C 0.9241(3) 0.10293(18) 0.3125(2)
Co1 Co 0.71142(4) 0.09472(2) 0.39943(2)
N1 N 0.7154(2) 0.21306(13) 0.39616(13)
N2 N 0.7352(3) 0.33088(13) 0.42142(14)
N3 N 0.7924(3) 0.59692(12) 0.57695(15)
N4 N 0.7315(2) 0.59147(12) 0.98815(13)
N5 N 0.7082(2) 0.59190(12) 0.86875(13)
N6 N 0.7062(2) 0.97845(12) 0.39253(12)
N7 N 0.7204(2) 0.86051(13) 0.41959(13)
O1 O 1.54601(19) 0.10291(11) 0.32161(12)
O2 O 1.4515(2) 0.09625(14) 0.42202(13)
O3 O 0.9136(2) 0.09571(12) 0.37803(14)
O4 O 0.8257(2) 0.09594(18) 0.26517(18)
O5 O 1.1897(2) 0.22932(13) 0.14737(12)
H25 H 1.2628 0.2331 0.1414
Co1A Co 0.78858(4) 0.59472(2) 1.10057(2)
Co1_2 Co 0.71142(4) 1.09472(2) 0.39943(2)
Co1_3 Co 1.71142(4) 0.09472(2) 0.39943(2)
N4A N 0.7685(2) 0.09147(12) 0.51185(13)
N6_2 N 0.7062(2) -0.02155(12) 0.39253(12)
O1_2 O 0.54601(19) 0.10291(11) 0.32161(12)
O6 O 0.5859(3) 0.10501(17) 0.17635(15)
H26 H 0.5965 0.0980 0.2219
H27 H 0.6695 0.0990 0.1686
O7 O 0.4578(3) 0.22939(18) 0.11181(17)
H28 H 0.5052 0.2324 0.1532
H29 H 0.5091 0.2030 0.0883
loop_
_geom_bond_atom_site_label_1
_geom_bond_atom_site_label_2
_geom_bond_site_symmetry_1
_geom_bond_site_symmetry_2
C1 H1 1_555 1_555
C2 C1 1_555 1_555
H2 C2 1_555 1_555
C3 H3 1_555 1_555
C4 H4 1_555 1_555
C5 C4 1_555 1_555
H5 C5 1_555 1_555
C6 H6 1_555 1_555
C7 H7 1_555 1_555
C8 C7 1_555 1_555
H8 C8 1_555 1_555
C9 H9 1_555 1_555
C10 C11 1_555 1_555
C11 H10 1_555 1_555
C12 C11 1_555 1_555
H11 C12 1_555 1_555
C13 C12 1_555 1_555
C14 C13 1_555 1_555
H12 C14 1_555 1_555
C15 C10 1_555 1_555
H13 C15 1_555 1_555
C16 C17 1_555 1_555
C17 H14 1_555 1_555
C18 C17 1_555 1_555
H15 C18 1_555 1_555
C19 C18 1_555 1_555
C20 C19 1_555 1_555
H16 C20 1_555 1_555
C21 C16 1_555 1_555
H17 C21 1_555 1_555
C22 C23 1_555 1_555
C23 H18 1_555 1_555
C24 C23 1_555 1_555
H19 C24 1_555 1_555
C25 C24 1_555 1_555
C26 C25 1_555 1_555
H20 C26 1_555 1_555
C27 C22 1_555 1_555
H21 C27 1_555 1_555
C28 C29 1_555 1_555
C29 C30 1_555 1_555
C30 H22 1_555 1_555
C31 C30 1_555 1_555
C32 C31 1_555 1_555
H23 C32 1_555 1_555
C33 C32 1_555 1_555
C34 C29 1_555 1_555
H24 C34 1_555 1_555
C35 C31 1_555 1_555
Co1 N1 1_555 1_555
N1 C1 1_555 1_555
N2 C2 1_555 1_555
N3 C13 1_555 1_555
N4 C4 1_555 1_555
N5 C5 1_555 1_555
N6 C7 1_555 1_555
N7 C8 1_555 1_555
O1 C28 1_555 1_555
O2 C28 1_555 1_555
O3 C35 1_555 1_555
O4 C35 1_555 1_555
O5 C33 1_555 1_555
H25 O5 1_555 1_555
O6 H26 1_555 1_555
H27 O6 1_555 1_555
O7 H28 1_555 1_555
H29 O7 1_555 1_555
Co1A N4 1_555 1_555
Co1_2 N6 1_555 1_555
Co1_3 O1 1_555 1_555
N4A Co1 1_555 1_555
N6_2 Co1 1_555 1_555
O1_2 Co1 1_555 1_555
C3 N1 1_555 1_555
C3 N2 1_555 1_555
C6 N4 1_555 1_555
C6 N5 1_555 1_555
C9 N6 1_555 1_555
C9 N7 1_555 1_555
C10 N7 1_555 1_555
C14 C15 1_555 1_555
C16 N5 1_555 1_555
C19 N3 1_555 1_555
C20 C21 1_555 1_555
C22 N2 1_555 1_555
C25 N3 1_555 1_555
C26 C27 1_555 1_555
C33 C34 1_555 1_555
Co1 O3 1_555 1_555

#END
