
#######################################################################
#
#                 Cambridge Crystallographic Data Centre
#                                CCDC 
#
#######################################################################
#
# If this CIF has been generated from an entry in the Cambridge 
# Structural Database, then it will include bibliographic, chemical, 
# crystal, experimental, refinement or atomic coordinate data resulting 
# from the CCDC's data processing and validation procedures.
#
#######################################################################

data_UNAZIT
_symmetry_cell_setting           orthorhombic
_symmetry_space_group_name_H-M   'P 21 21 21'
_symmetry_Int_Tables_number      19
_space_group_name_Hall           'P 2ac 2ab'
loop_
_symmetry_equiv_pos_site_id
_symmetry_equiv_pos_as_xyz
1 x,y,z
2 1/2-x,-y,1/2+z
3 1/2+x,1/2-y,-z
4 -x,1/2+y,1/2-z
_cell_length_a                   18.1535(12)
_cell_length_b                   18.3033(14)
_cell_length_c                   25.2354(19)
_cell_angle_alpha                90
_cell_angle_beta                 90
_cell_angle_gamma                90
_cell_volume                     8384.94
loop_
_atom_site_label
_atom_site_type_symbol
_atom_site_fract_x
_atom_site_fract_y
_atom_site_fract_z
C1 C 0.6840(3) 0.4844(3) 0.33654(19)
H1 H 0.6752 0.4366 0.3474
C2 C 0.6676(3) 0.5936(2) 0.3073(2)
H2 H 0.6443 0.6351 0.2941
C3 C 0.7420(2) 0.5873(2) 0.32050(17)
H3 H 0.7782 0.6230 0.3174
C4 C 0.9824(3) 0.0335(3) 0.56126(18)
H4 H 0.9705 -0.0157 0.5582
C5 C 0.9821(3) 0.0825(2) 0.51898(18)
H5 H 0.9692 0.0747 0.4838
C6 C 1.0158(3) 0.1327(2) 0.59435(19)
H6 H 1.0310 0.1677 0.6187
C7 C 1.3374(3) 0.4804(2) 0.32727(17)
H7 H 1.3448 0.4829 0.3637
C8 C 1.3562(3) 0.4740(3) 0.2435(2)
H8 H 1.3804 0.4719 0.2111
C9 C 1.2821(3) 0.4645(3) 0.25061(18)
H9 H 1.2469 0.4566 0.2245
C10 C 0.4757(3) 0.6520(3) 0.33503(18)
C11 C 0.4572(3) 0.7277(3) 0.34758(17)
C12 C 0.4564(3) 0.7766(3) 0.30405(19)
H10 H 0.4612 0.7596 0.2695
C13 C 0.4478(3) 0.8535(3) 0.3147(2)
C14 C 0.4350(3) 0.8750(3) 0.36571(19)
H11 H 0.4278 0.9245 0.3724
C15 C 0.4321(3) 0.8249(3) 0.40974(19)
C16 C 0.4441(3) 0.7519(3) 0.39642(19)
H12 H 0.4429 0.7176 0.4236
C17 C 0.4578(3) 0.9050(3) 0.27018(17)
C18 C 0.8164(3) 0.4876(2) 0.35786(18)
C19 C 0.8749(3) 0.5322(3) 0.37033(19)
H13 H 0.8708 0.5821 0.3644
C20 C 0.9397(3) 0.5050(3) 0.39140(19)
H14 H 0.9786 0.5369 0.3978
C21 C 0.9479(3) 0.4332(3) 0.4029(2)
C22 C 0.8889(3) 0.3867(3) 0.3914(2)
H15 H 0.8932 0.3371 0.3988
C23 C 0.8246(3) 0.4127(3) 0.36907(19)
H16 H 0.7864 0.3805 0.3614
C24 C 1.0815(3) 0.4231(2) 0.39017(19)
C25 C 1.0890(3) 0.3934(3) 0.3420(2)
H17 H 1.0527 0.3623 0.3293
C26 C 1.1521(3) 0.4086(3) 0.3099(2)
H18 H 1.1576 0.3889 0.2762
C27 C 1.2033(3) 0.4535(3) 0.33147(18)
C28 C 1.1948(3) 0.4849(3) 0.38304(17)
H19 H 1.2313 0.5143 0.3976
C29 C 1.1310(3) 0.4700(3) 0.41031(18)
H20 H 1.1222 0.4925 0.4427
C30 C 1.0168(3) 0.3396(3) 0.45096(19)
C31 C 0.9874(3) 0.3406(2) 0.50149(17)
H21 H 0.9676 0.3847 0.5130
C32 C 0.9844(3) 0.2806(3) 0.5380(2)
H22 H 0.9664 0.2836 0.5724
C33 C 1.0131(3) 0.2147(3) 0.51381(19)
C34 C 1.0437(2) 0.2132(3) 0.46533(18)
H23 H 1.0646 0.1701 0.4529
C35 C 1.0444(3) 0.2757(3) 0.4334(2)
H24 H 1.0642 0.2731 0.3994
Cd1 Cd 0.511318(18) 0.50292(2) 0.311747(13)
N1 N 0.6346(2) 0.5266(2) 0.31757(15)
N2 N 0.7507(2) 0.5173(2) 0.33895(17)
N3 N 1.0158(2) 0.4037(2) 0.42098(15)
N4 N 1.0014(2) 0.0649(2) 0.60580(15)
N5 N 1.0056(2) 0.1447(2) 0.54289(15)
N6 N 1.3902(2) 0.4874(2) 0.29211(15)
N7 N 1.2706(2) 0.4692(2) 0.30431(15)
O1 O 0.49800(19) 0.63043(18) 0.28937(12)
O2 O 0.47104(19) 0.60456(19) 0.37340(13)
O3 O 0.46313(19) 0.97124(19) 0.27889(12)
O4 O 0.4586(2) 0.88173(18) 0.22556(12)
O5 O 0.4193(2) 0.85386(19) 0.45549(13)
H49 H 0.4187 0.8153 0.4812
Cd1B Cd 1.011318(18) -0.00292(2) 0.688253(13)
Cd1_2 Cd 1.511318(18) 0.50292(2) 0.311747(13)
Cd1C Cd 0.488682(18) 1.00292(2) 0.188253(13)
N4B N 0.5014(2) 0.4351(2) 0.39420(15)
N6_2 N 0.3902(2) 0.4874(2) 0.29211(15)
O3C O 0.53687(19) 0.47124(19) 0.22111(12)
O4C O 0.5414(2) 0.38173(18) 0.27444(12)
C36 C 0.6663(3) 0.6524(3) 0.4358(2)
H25 H 0.6331 0.6830 0.4187
C37 C 0.6518(3) 0.5805(3) 0.4537(2)
H26 H 0.6068 0.5562 0.4541
C38 C 0.7648(3) 0.6120(3) 0.46659(19)
H27 H 0.8139 0.6110 0.4771
C39 C 0.8476(3) 0.2002(2) 0.84151(19)
H28 H 0.8797 0.1873 0.8687
C40 C 0.8684(3) 0.2073(2) 0.79000(18)
H29 H 0.9150 0.2014 0.7753
C41 C 0.7486(3) 0.2289(3) 0.80156(17)
H30 H 0.6994 0.2402 0.7951
C42 C 0.8478(3) -0.0675(3) 0.3707(2)
H31 H 0.8664 -0.0904 0.3407
C43 C 0.8429(3) 0.0076(3) 0.37703(19)
H32 H 0.8550 0.0432 0.3522
C44 C 0.8074(3) -0.0459(3) 0.44725(19)
H33 H 0.7920 -0.0520 0.4821
C45 C 0.9297(3) 0.7263(2) 0.41528(17)
C46 C 1.0084(3) 0.7051(2) 0.40847(17)
C47 C 1.0345(3) 0.6823(3) 0.35979(19)
H34 H 1.0026 0.6789 0.3311
C48 C 1.1050(3) 0.6654(3) 0.35395(18)
C49 C 1.1565(3) 0.6704(3) 0.39568(19)
H35 H 1.2066 0.6639 0.3897
C50 C 1.1300(3) 0.6850(2) 0.44524(18)
C51 C 1.0560(3) 0.7025(3) 0.45180(18)
H36 H 1.0381 0.7126 0.4855
C52 C 1.1811(3) 0.6823(3) 0.49183(19)
C53 C 0.7333(3) 0.4818(3) 0.48857(19)
C54 C 0.6940(3) 0.4254(3) 0.4687(2)
H37 H 0.6578 0.4329 0.4432
C55 C 0.7095(3) 0.3559(3) 0.48762(19)
H38 H 0.6834 0.3161 0.4744
C56 C 0.7626(3) 0.3447(3) 0.52535(18)
C57 C 0.8038(3) 0.4008(3) 0.54552(18)
H39 H 0.8415 0.3920 0.5696
C58 C 0.7872(3) 0.4731(3) 0.52860(18)
H40 H 0.8110 0.5132 0.5433
C59 C 0.7833(3) 0.2615(3) 0.5995(2)
C60 C 0.8329(3) 0.2124(3) 0.61918(19)
H41 H 0.8637 0.1878 0.5957
C61 C 0.8389(3) 0.1979(2) 0.67247(18)
H42 H 0.8727 0.1635 0.6844
C62 C 0.7931(3) 0.2356(2) 0.70966(19)
C63 C 0.7444(3) 0.2869(3) 0.6908(2)
H43 H 0.7170 0.3149 0.7144
C64 C 0.7359(3) 0.2973(3) 0.6341(2)
H44 H 0.6991 0.3277 0.6211
C65 C 0.7828(3) 0.2112(3) 0.51087(17)
C66 C 0.8247(3) 0.2128(3) 0.46581(18)
H45 H 0.8451 0.2566 0.4542
C67 C 0.8363(3) 0.1503(2) 0.43816(18)
H46 H 0.8671 0.1513 0.4087
C68 C 0.8034(3) 0.0847(2) 0.45277(19)
C69 C 0.7553(3) 0.0834(3) 0.49614(19)
H47 H 0.7277 0.0420 0.5037
C70 C 0.7501(3) 0.1446(3) 0.5271(2)
H48 H 0.7248 0.1423 0.5591
Cd2 Cd 0.785420(19) 0.781497(18) 0.429483(13)
N8 N 0.7329(2) 0.6677(2) 0.44723(14)
N9 N 0.7188(2) 0.5549(2) 0.47010(15)
N10 N 0.7778(2) 0.2689(2) 0.54500(17)
N11 N 0.7763(2) 0.2136(2) 0.84853(14)
N12 N 0.8016(2) 0.2259(2) 0.76427(14)
N13 N 0.8221(2) -0.1032(2) 0.41363(15)
N14 N 0.8175(2) 0.01833(19) 0.42516(15)
O6 O 0.89145(18) 0.73710(17) 0.37575(12)
O7 O 0.90331(18) 0.73732(19) 0.45998(12)
O8 O 1.15454(19) 0.67959(19) 0.53646(12)
O9 O 1.25054(19) 0.69158(19) 0.48103(14)
O10 O 1.1351(2) 0.6516(2) 0.30136(13)
H50 H 1.1867 0.6407 0.3039
Cd2A Cd 0.714580(19) 0.218503(18) 0.929483(13)
Cd2_2 Cd 0.785420(19) -0.218503(18) 0.429483(13)
Cd2B Cd 1.285420(19) 0.718503(18) 0.570517(13)
N11A N 0.7237(2) 0.7864(2) 0.34853(14)
N13_2 N 0.8221(2) 0.8968(2) 0.41363(15)
O8B O 0.65454(19) 0.82041(19) 0.46354(12)
O9B O 0.75054(19) 0.80842(19) 0.51897(14)
O11 O 0.5852(5) 0.5285(5) 0.5944(3)
H51 H 0.5975 0.5228 0.5621
H52 H 0.5428 0.5100 0.5995
O12 O 0.3105(5) 0.6283(5) 0.1961(3)
H53 H 0.3441 0.6547 0.1826
H54 H 0.2687 0.6316 0.1812
O13 O 0.3352(5) 0.7957(5) 0.1719(4)
H55 H 0.3310 0.7593 0.1925
H56 H 0.3053 0.7912 0.1462
O14 O 0.0114(6) 0.3752(6) 0.0189(3)
H57 H 0.0376 0.4097 0.0313
H58 H -0.0040 0.3868 -0.0117
O15 O 0.5648(5) 0.9515(5) 0.4621(3)
H59 H 0.5677 0.9314 0.4924
H60 H 0.5445 0.9932 0.4652
O16 O 0.9310(5) 0.8152(5) 0.2805(3)
H61 H 0.9701 0.8347 0.2924
H62 H 0.9348 0.7689 0.2822
O17 O 0.6731(5) 0.6238(5) 0.6090(3)
H63 H 0.7100 0.6519 0.6129
H64 H 0.6663 0.6154 0.5763
O18 O 0.5427(5) 0.4153(5) 0.7128(3)
H65 H 0.5235 0.4160 0.7435
H66 H 0.5874 0.4286 0.7148
O19 O 0.9531(5) 0.4439(5) 0.6478(3)
H67 H 0.9074 0.4411 0.6548
H68 H 0.9769 0.4150 0.6678
O20 O 0.1560(4) 0.8739(4) 0.2808(3)
H69 H 0.1725 0.8981 0.2547
H70 H 0.1271 0.8407 0.2698
O21 O 0.6848(5) 0.5324(5) 0.6419(3)
H71 H 0.6452 0.5151 0.6547
H72 H 0.7215 0.5098 0.6550
O22 O 0.1242(6) 0.3264(6) 0.6177(5)
H73 H 0.1374 0.2992 0.6433
H74 H 0.0927 0.3040 0.5988
O23 O 0.4587(6) 0.3385(7) 0.7093(4)
H75 H 0.4577 0.3284 0.7422
H76 H 0.4149 0.3364 0.6975
O24 O 0.2781(5) 0.7331(4) 0.2688(3)
H77 H 0.2708 0.7790 0.2700
H78 H 0.3124 0.7217 0.2902
loop_
_geom_bond_atom_site_label_1
_geom_bond_atom_site_label_2
_geom_bond_site_symmetry_1
_geom_bond_site_symmetry_2
C1 H1 1_555 1_555
C2 H2 1_555 1_555
C3 C2 1_555 1_555
H3 C3 1_555 1_555
C4 H4 1_555 1_555
C5 C4 1_555 1_555
H5 C5 1_555 1_555
C6 H6 1_555 1_555
C7 H7 1_555 1_555
C8 H8 1_555 1_555
C9 C8 1_555 1_555
H9 C9 1_555 1_555
C10 C11 1_555 1_555
C11 C12 1_555 1_555
C12 H10 1_555 1_555
C13 C12 1_555 1_555
C14 C13 1_555 1_555
H11 C14 1_555 1_555
C15 C14 1_555 1_555
C16 C11 1_555 1_555
H12 C16 1_555 1_555
C17 C13 1_555 1_555
C18 C19 1_555 1_555
C19 H13 1_555 1_555
C20 C19 1_555 1_555
H14 C20 1_555 1_555
C21 C20 1_555 1_555
C22 C21 1_555 1_555
H15 C22 1_555 1_555
C23 C18 1_555 1_555
H16 C23 1_555 1_555
C24 C25 1_555 1_555
C25 H17 1_555 1_555
C26 C25 1_555 1_555
H18 C26 1_555 1_555
C27 C26 1_555 1_555
C28 C27 1_555 1_555
H19 C28 1_555 1_555
C29 C24 1_555 1_555
H20 C29 1_555 1_555
C30 C31 1_555 1_555
C31 H21 1_555 1_555
C32 C31 1_555 1_555
H22 C32 1_555 1_555
C33 C32 1_555 1_555
C34 C33 1_555 1_555
H23 C34 1_555 1_555
C35 C30 1_555 1_555
H24 C35 1_555 1_555
C36 H25 1_555 1_555
C37 C36 1_555 1_555
H26 C37 1_555 1_555
C38 H27 1_555 1_555
C39 H28 1_555 1_555
C40 C39 1_555 1_555
H29 C40 1_555 1_555
C41 H30 1_555 1_555
C42 H31 1_555 1_555
C43 C42 1_555 1_555
H32 C43 1_555 1_555
C44 H33 1_555 1_555
C45 C46 1_555 1_555
C46 C47 1_555 1_555
C47 H34 1_555 1_555
C48 C47 1_555 1_555
C49 C48 1_555 1_555
H35 C49 1_555 1_555
C50 C49 1_555 1_555
C51 C46 1_555 1_555
H36 C51 1_555 1_555
C52 C50 1_555 1_555
C53 C54 1_555 1_555
C54 H37 1_555 1_555
C55 C54 1_555 1_555
H38 C55 1_555 1_555
C56 C55 1_555 1_555
C57 C56 1_555 1_555
H39 C57 1_555 1_555
C58 C53 1_555 1_555
H40 C58 1_555 1_555
C59 C60 1_555 1_555
C60 H41 1_555 1_555
C61 C60 1_555 1_555
H42 C61 1_555 1_555
C62 C61 1_555 1_555
C63 C62 1_555 1_555
H43 C63 1_555 1_555
C64 C59 1_555 1_555
H44 C64 1_555 1_555
C65 C66 1_555 1_555
C66 H45 1_555 1_555
C67 C66 1_555 1_555
H46 C67 1_555 1_555
C68 C67 1_555 1_555
C69 C68 1_555 1_555
H47 C69 1_555 1_555
C70 C65 1_555 1_555
H48 C70 1_555 1_555
Cd1 N1 1_555 1_555
Cd2 N8 1_555 1_555
N1 C1 1_555 1_555
N2 C1 1_555 1_555
N3 C21 1_555 1_555
N4 C4 1_555 1_555
N5 C5 1_555 1_555
N6 C7 1_555 1_555
N7 C7 1_555 1_555
N8 C36 1_555 1_555
N9 C37 1_555 1_555
N10 C56 1_555 1_555
N11 C39 1_555 1_555
N12 C40 1_555 1_555
N13 C42 1_555 1_555
N14 C43 1_555 1_555
O1 C10 1_555 1_555
O2 C10 1_555 1_555
O3 C17 1_555 1_555
O4 C17 1_555 1_555
O5 C15 1_555 1_555
H49 O5 1_555 1_555
O6 C45 1_555 1_555
O7 C45 1_555 1_555
O8 C52 1_555 1_555
O9 C52 1_555 1_555
O10 C48 1_555 1_555
H50 O10 1_555 1_555
O11 H51 1_555 1_555
H52 O11 1_555 1_555
O12 H53 1_555 1_555
H54 O12 1_555 1_555
O13 H55 1_555 1_555
H56 O13 1_555 1_555
O14 H57 1_555 1_555
H58 O14 1_555 1_555
O15 H59 1_555 1_555
H60 O15 1_555 1_555
O16 H61 1_555 1_555
H62 O16 1_555 1_555
O17 H63 1_555 1_555
H64 O17 1_555 1_555
O18 H65 1_555 1_555
H66 O18 1_555 1_555
O19 H67 1_555 1_555
H68 O19 1_555 1_555
O20 H69 1_555 1_555
H70 O20 1_555 1_555
O21 H71 1_555 1_555
H72 O21 1_555 1_555
O22 H73 1_555 1_555
H74 O22 1_555 1_555
O23 H75 1_555 1_555
H76 O23 1_555 1_555
O24 H77 1_555 1_555
H78 O24 1_555 1_555
Cd1B N4 1_555 1_555
Cd1_2 N6 1_555 1_555
Cd1C O3 1_555 1_555
Cd2A N11 1_555 1_555
Cd2_2 N13 1_555 1_555
Cd2B O8 1_555 1_555
N4B Cd1 1_555 1_555
N6_2 Cd1 1_555 1_555
N11A Cd2 1_555 1_555
N13_2 Cd2 1_555 1_555
O3C Cd1 1_555 1_555
O4C Cd1 1_555 1_555
O8B Cd2 1_555 1_555
O9B Cd2 1_555 1_555
C2 N1 1_555 1_555
C3 N2 1_555 1_555
C6 N4 1_555 1_555
C6 N5 1_555 1_555
C8 N6 1_555 1_555
C9 N7 1_555 1_555
C15 C16 1_555 1_555
C18 N2 1_555 1_555
C22 C23 1_555 1_555
C24 N3 1_555 1_555
C27 N7 1_555 1_555
C28 C29 1_555 1_555
C30 N3 1_555 1_555
C33 N5 1_555 1_555
C34 C35 1_555 1_555
C38 N8 1_555 1_555
C38 N9 1_555 1_555
C41 N11 1_555 1_555
C41 N12 1_555 1_555
C44 N13 1_555 1_555
C44 N14 1_555 1_555
C50 C51 1_555 1_555
C53 N9 1_555 1_555
C57 C58 1_555 1_555
C59 N10 1_555 1_555
C62 N12 1_555 1_555
C63 C64 1_555 1_555
C65 N10 1_555 1_555
C68 N14 1_555 1_555
C69 C70 1_555 1_555
Cd1 O1 1_555 1_555
Cd1 O2 1_555 1_555
Cd2 O6 1_555 1_555
Cd2 O7 1_555 1_555
O4 Cd1C 1_555 1_555
O9 Cd2B 1_555 1_555

#END
