
#######################################################################
#
#                 Cambridge Crystallographic Data Centre
#                                CCDC 
#
#######################################################################
#
# If this CIF has been generated from an entry in the Cambridge 
# Structural Database, then it will include bibliographic, chemical, 
# crystal, experimental, refinement or atomic coordinate data resulting 
# from the CCDC's data processing and validation procedures.
#
#######################################################################

data_UNEKII
_symmetry_cell_setting           monoclinic
_symmetry_space_group_name_H-M   'P 21/c'
_symmetry_Int_Tables_number      14
_space_group_name_Hall           '-P 2ybc'
loop_
_symmetry_equiv_pos_site_id
_symmetry_equiv_pos_as_xyz
1 x,y,z
2 -x,1/2+y,1/2-z
3 -x,-y,-z
4 x,1/2-y,1/2+z
_cell_length_a                   14.734(2)
_cell_length_b                   9.9412(13)
_cell_length_c                   14.881(3)
_cell_angle_alpha                90
_cell_angle_beta                 112.881(16)
_cell_angle_gamma                90
_cell_volume                     2008.17
loop_
_atom_site_label
_atom_site_type_symbol
_atom_site_fract_x
_atom_site_fract_y
_atom_site_fract_z
Ag1 Ag 0.630396(12) -0.246805(19) 0.265072(12)
F1 F 0.54625(10) 0.12938(15) 0.60482(10)
F2 F 0.64639(11) 0.17013(17) 0.79602(11)
F3 F 0.84608(12) 0.17948(19) 0.87208(10)
F4 F 0.94608(10) 0.13964(19) 0.75429(11)
F5 F 0.84785(10) 0.09519(17) 0.56306(10)
O4 O 0.79009(12) -0.3182(2) 0.29789(13)
H1 H 0.800(2) -0.303(3) 0.250(2)
N1 N 0.62635(14) -0.03331(19) 0.32631(14)
N2 N 0.51364(17) 0.0392(2) 0.17865(16)
H2 H 0.539(2) -0.010(3) 0.153(2)
H3 H 0.467(2) 0.086(3) 0.144(2)
N3 N 0.50830(14) 0.13608(19) 0.31801(14)
C1 C 0.54989(16) 0.0484(2) 0.27551(17)
C2 C 0.55406(17) 0.1539(2) 0.41413(17)
H4 H 0.528(2) 0.216(3) 0.443(2)
C3 C 0.63956(16) 0.0852(2) 0.47072(16)
C4 C 0.67013(17) -0.0125(2) 0.42165(17)
H5 H 0.7229(18) -0.071(2) 0.4570(18)
C5 C 0.69299(17) 0.1086(2) 0.57624(16)
C6 C 0.64541(16) 0.1300(2) 0.63949(17)
C7 C 0.69593(18) 0.1523(3) 0.73799(17)
C8 C 0.79720(19) 0.1562(3) 0.77709(17)
C9 C 0.84717(17) 0.1354(3) 0.71699(18)
C10 C 0.79544(17) 0.1120(3) 0.61892(17)
C11 C 0.87256(18) -0.2655(3) 0.38075(18)
H6 H 0.8528(19) -0.278(3) 0.434(2)
C12 C 0.8886(2) -0.1182(3) 0.3676(2)
H7 H 0.912(2) -0.106(3) 0.313(2)
H8 H 0.937(2) -0.083(3) 0.425(2)
H9 H 0.831(2) -0.066(3) 0.354(2)
C13 C 0.9626(2) -0.3497(4) 0.3970(3)
H10 H 0.952(2) -0.441(3) 0.411(2)
H11 H 1.017(3) -0.318(3) 0.451(3)
H12 H 0.977(2) -0.345(3) 0.337(2)
Ag1A Ag 0.369604(12) 0.253195(19) 0.234928(12)
N3A N 0.49170(14) -0.36392(19) 0.18199(14)
S1 S 0.69658(4) -0.33857(6) 0.55324(4)
F6 F 0.78344(16) -0.54713(18) 0.65820(13)
F7 F 0.82549(16) -0.5061(2) 0.53763(18)
F8 F 0.68417(16) -0.59303(16) 0.51233(13)
O1 O 0.66008(13) -0.31652(18) 0.44933(12)
O2 O 0.62074(13) -0.35511(19) 0.59098(13)
O3 O 0.77653(13) -0.25123(18) 0.60976(12)
C14 C 0.7510(2) -0.5047(3) 0.5666(2)
loop_
_geom_bond_atom_site_label_1
_geom_bond_atom_site_label_2
_geom_bond_site_symmetry_1
_geom_bond_site_symmetry_2
Ag1 O4 1_555 1_555
S1 O1 1_555 1_555
F1 C6 1_555 1_555
F2 C7 1_555 1_555
F3 C8 1_555 1_555
F4 C9 1_555 1_555
F5 C10 1_555 1_555
F6 C14 1_555 1_555
F7 C14 1_555 1_555
F8 C14 1_555 1_555
O2 S1 1_555 1_555
O3 S1 1_555 1_555
O4 H1 1_555 1_555
N1 Ag1 1_555 1_555
N2 H2 1_555 1_555
H3 N2 1_555 1_555
N3 C1 1_555 1_555
C1 N1 1_555 1_555
C2 N3 1_555 1_555
H4 C2 1_555 1_555
C3 C2 1_555 1_555
C4 N1 1_555 1_555
H5 C4 1_555 1_555
C5 C3 1_555 1_555
C6 C5 1_555 1_555
C7 C6 1_555 1_555
C8 C7 1_555 1_555
C9 C8 1_555 1_555
C10 C5 1_555 1_555
C11 O4 1_555 1_555
H6 C11 1_555 1_555
C12 C11 1_555 1_555
H7 C12 1_555 1_555
H8 C12 1_555 1_555
H9 C12 1_555 1_555
C13 C11 1_555 1_555
H10 C13 1_555 1_555
H11 C13 1_555 1_555
H12 C13 1_555 1_555
C14 S1 1_555 1_555
Ag1A N3 1_555 1_555
N3A Ag1 1_555 1_555
N2 C1 1_555 1_555
C3 C4 1_555 1_555
C9 C10 1_555 1_555

#END
