
#######################################################################
#
#                 Cambridge Crystallographic Data Centre
#                                CCDC 
#
#######################################################################
#
# If this CIF has been generated from an entry in the Cambridge 
# Structural Database, then it will include bibliographic, chemical, 
# crystal, experimental, refinement or atomic coordinate data resulting 
# from the CCDC's data processing and validation procedures.
#
#######################################################################

data_UNEKEE
_symmetry_cell_setting           monoclinic
_symmetry_space_group_name_H-M   'C 2/c'
_symmetry_Int_Tables_number      15
_space_group_name_Hall           '-C 2yn'
loop_
_symmetry_equiv_pos_site_id
_symmetry_equiv_pos_as_xyz
1 x,y,z
2 -x,y,1/2-z
3 1/2+x,1/2+y,z
4 1/2-x,1/2+y,1/2-z
5 -x,-y,-z
6 x,-y,1/2+z
7 1/2-x,1/2-y,-z
8 1/2+x,1/2-y,1/2+z
_cell_length_a                   25.3931(18)
_cell_length_b                   10.3439(16)
_cell_length_c                   14.4518(13)
_cell_angle_alpha                90
_cell_angle_beta                 104.055(5)
_cell_angle_gamma                90
_cell_volume                     3682.32
loop_
_atom_site_label
_atom_site_type_symbol
_atom_site_fract_x
_atom_site_fract_y
_atom_site_fract_z
Ag1 Ag 0.182304(4) 0.005041(10) 0.190119(7)
F1 F 0.44317(3) 0.18240(10) 0.15367(6)
F2 F 0.50144(4) 0.13894(11) 0.02471(7)
F3 F 0.45103(4) 0.07937(11) -0.15907(7)
F4 F 0.34072(4) 0.06241(11) -0.21174(7)
F5 F 0.28137(3) 0.10808(9) -0.08482(6)
O4 O 0.09714(4) 0.09187(11) 0.11305(8)
H1 H 0.0912(10) 0.069(2) 0.0630(17)
N1 N 0.25599(5) 0.12774(11) 0.18526(8)
N2 N 0.25397(6) 0.23464(14) 0.32503(10)
H2 H 0.2291(8) 0.186(2) 0.3299(14)
H3 H 0.2677(8) 0.285(2) 0.3678(15)
N3 N 0.31639(5) 0.30346(12) 0.24367(8)
C1 C 0.27575(5) 0.22125(13) 0.25042(10)
C2 C 0.34213(5) 0.27971(13) 0.17506(10)
H4 H 0.3703(7) 0.3403(17) 0.1705(12)
C3 C 0.32808(5) 0.17810(13) 0.11043(9)
C4 C 0.28242(5) 0.10760(13) 0.11694(10)
H5 H 0.2690(7) 0.0420(18) 0.0742(13)
C5 C 0.35978(5) 0.15076(13) 0.03901(10)
C6 C 0.41646(6) 0.15559(14) 0.06317(10)
C7 C 0.44707(6) 0.13184(15) -0.00198(11)
C8 C 0.42169(6) 0.10044(15) -0.09503(11)
C9 C 0.36583(6) 0.09265(15) -0.12163(10)
C10 C 0.33580(6) 0.11710(14) -0.05543(10)
C12 C 0.04922(6) 0.06650(18) 0.14750(12)
H6 H 0.0199(8) 0.1239(19) 0.1137(13)
H7 H 0.0574(8) 0.0943(19) 0.2159(14)
C13 C 0.03246(7) -0.0732(2) 0.13653(13)
H8 H 0.0605(9) -0.126(2) 0.1700(16)
H9 H 0.0232(8) -0.100(2) 0.0690(16)
H10 H 0.0012(9) -0.087(2) 0.1629(16)
Ag1C Ag 0.317696(4) 0.505041(10) 0.309881(7)
N3C N 0.18361(5) -0.19654(12) 0.25633(8)
S1 S 0.142904(13) 0.10180(3) 0.43413(2)
F6 F 0.16114(5) 0.34917(10) 0.43495(9)
F7 F 0.07712(5) 0.29678(13) 0.37627(9)
F8 F 0.11103(4) 0.29052(10) 0.52807(8)
O1 O 0.09598(4) 0.02492(11) 0.43770(8)
O2 O 0.18871(4) 0.08824(11) 0.51570(7)
O3 O 0.15680(4) 0.09921(11) 0.34270(7)
C11 C 0.12137(7) 0.26860(16) 0.44356(12)
loop_
_geom_bond_atom_site_label_1
_geom_bond_atom_site_label_2
_geom_bond_site_symmetry_1
_geom_bond_site_symmetry_2
Ag1 O4 1_555 1_555
S1 O1 1_555 1_555
F1 C6 1_555 1_555
F2 C7 1_555 1_555
F3 C8 1_555 1_555
F4 C9 1_555 1_555
F5 C10 1_555 1_555
F6 C11 1_555 1_555
F7 C11 1_555 1_555
F8 C11 1_555 1_555
O2 S1 1_555 1_555
O3 S1 1_555 1_555
O4 H1 1_555 1_555
N1 Ag1 1_555 1_555
N2 H2 1_555 1_555
H3 N2 1_555 1_555
N3 C1 1_555 1_555
C1 N1 1_555 1_555
C2 N3 1_555 1_555
H4 C2 1_555 1_555
C3 C2 1_555 1_555
C4 N1 1_555 1_555
H5 C4 1_555 1_555
C5 C3 1_555 1_555
C6 C5 1_555 1_555
C7 C6 1_555 1_555
C8 C7 1_555 1_555
C9 C8 1_555 1_555
C10 C5 1_555 1_555
C11 S1 1_555 1_555
C12 O4 1_555 1_555
H6 C12 1_555 1_555
H7 C12 1_555 1_555
C13 C12 1_555 1_555
H8 C13 1_555 1_555
H9 C13 1_555 1_555
H10 C13 1_555 1_555
Ag1C N3 1_555 1_555
N3C Ag1 1_555 1_555
N2 C1 1_555 1_555
C3 C4 1_555 1_555
C9 C10 1_555 1_555

#END
