
#######################################################################
#
#                 Cambridge Crystallographic Data Centre
#                                CCDC 
#
#######################################################################
#
# If this CIF has been generated from an entry in the Cambridge 
# Structural Database, then it will include bibliographic, chemical, 
# crystal, experimental, refinement or atomic coordinate data resulting 
# from the CCDC's data processing and validation procedures.
#
#######################################################################

data_UNEKAA
_symmetry_cell_setting           triclinic
_symmetry_space_group_name_H-M   'P -1'
_symmetry_Int_Tables_number      2
_space_group_name_Hall           '-P 1'
loop_
_symmetry_equiv_pos_site_id
_symmetry_equiv_pos_as_xyz
1 x,y,z
2 -x,-y,-z
_cell_length_a                   6.37950(10)
_cell_length_b                   7.8808(2)
_cell_length_c                   13.8567(4)
_cell_angle_alpha                84.7128(14)
_cell_angle_beta                 85.0068(15)
_cell_angle_gamma                83.2722(15)
_cell_volume                     686.862
loop_
_atom_site_label
_atom_site_type_symbol
_atom_site_fract_x
_atom_site_fract_y
_atom_site_fract_z
Ag1 Ag -0.957244(19) 0.198124(18) 0.036328(9)
F1 F -0.15712(17) 0.00420(14) 0.37271(8)
F2 F -0.17172(19) -0.16361(16) 0.55010(8)
F3 F -0.4955(2) -0.35350(16) 0.61108(8)
F4 F -0.79923(19) -0.38243(15) 0.48823(9)
F5 F -0.78354(18) -0.21972(15) 0.30990(8)
F6 F -0.9086(2) 0.68556(14) -0.25505(9)
F7 F -0.8789(2) 0.43714(15) -0.31170(8)
F8 F -1.1853(2) 0.55496(15) -0.25736(9)
O1 O -1.0344(2) 0.30726(17) -0.12084(10)
O2 O -0.8183(2) 0.50002(18) -0.09181(11)
N1 N -0.6519(2) 0.15373(19) 0.10819(11)
N2 N -0.4594(2) 0.2611(2) -0.02835(11)
H1 H -0.341(4) 0.283(3) -0.0608(19)
H2 H -0.572(4) 0.325(3) -0.0435(19)
N3 N -0.2743(2) 0.09700(18) 0.09066(11)
C1 C -0.4611(3) 0.1707(2) 0.05809(13)
C2 C -0.2805(3) 0.0075(2) 0.17750(13)
H3 H -0.149(4) -0.053(3) 0.1975(18)
C3 C -0.4662(3) -0.0076(2) 0.23645(12)
C4 C -0.6507(3) 0.0698(2) 0.19638(13)
H4 H -0.783(4) 0.066(3) 0.2316(16)
C5 C -0.4694(3) -0.1014(2) 0.33370(12)
C6 C -0.3150(3) -0.0941(2) 0.39822(13)
C7 C -0.3208(3) -0.1785(2) 0.48996(13)
C8 C -0.4856(3) -0.2751(2) 0.52118(13)
C9 C -0.6410(3) -0.2874(2) 0.45975(14)
C10 C -0.6312(3) -0.2019(2) 0.36757(13)
C11 C -0.9407(3) 0.4385(2) -0.14041(13)
C12 C -0.9795(3) 0.5310(2) -0.24227(14)
Ag1_2 Ag 0.042756(19) 0.198124(18) 0.036328(9)
N3_2 N -1.2743(2) 0.09700(18) 0.09066(11)
loop_
_geom_bond_atom_site_label_1
_geom_bond_atom_site_label_2
_geom_bond_site_symmetry_1
_geom_bond_site_symmetry_2
Ag1 O1 1_555 1_555
F1 C6 1_555 1_555
F2 C7 1_555 1_555
F3 C8 1_555 1_555
F4 C9 1_555 1_555
F5 C10 1_555 1_555
F6 C12 1_555 1_555
F7 C12 1_555 1_555
F8 C12 1_555 1_555
O1 C11 1_555 1_555
O2 C11 1_555 1_555
N1 Ag1 1_555 1_555
N2 H1 1_555 1_555
H2 N2 1_555 1_555
N3 C1 1_555 1_555
C1 N1 1_555 1_555
C2 N3 1_555 1_555
H3 C2 1_555 1_555
C3 C2 1_555 1_555
C4 N1 1_555 1_555
H4 C4 1_555 1_555
C5 C3 1_555 1_555
C6 C5 1_555 1_555
C7 C6 1_555 1_555
C8 C7 1_555 1_555
C9 C8 1_555 1_555
C10 C5 1_555 1_555
C11 C12 1_555 1_555
Ag1_2 N3 1_555 1_555
N3_2 Ag1 1_555 1_555
N2 C1 1_555 1_555
C3 C4 1_555 1_555
C9 C10 1_555 1_555

#END
