
#######################################################################
#
#                 Cambridge Crystallographic Data Centre
#                                CCDC 
#
#######################################################################
#
# If this CIF has been generated from an entry in the Cambridge 
# Structural Database, then it will include bibliographic, chemical, 
# crystal, experimental, refinement or atomic coordinate data resulting 
# from the CCDC's data processing and validation procedures.
#
#######################################################################

data_UNEMUW
_symmetry_cell_setting           monoclinic
_symmetry_space_group_name_H-M   'C 2/c'
_symmetry_Int_Tables_number      15
_space_group_name_Hall           '-C 2yn'
loop_
_symmetry_equiv_pos_site_id
_symmetry_equiv_pos_as_xyz
1 x,y,z
2 -x,y,1/2-z
3 1/2+x,1/2+y,z
4 1/2-x,1/2+y,1/2-z
5 -x,-y,-z
6 x,-y,1/2+z
7 1/2-x,1/2-y,-z
8 1/2+x,1/2-y,1/2+z
_cell_length_a                   14.349(7)
_cell_length_b                   5.977(3)
_cell_length_c                   21.368(9)
_cell_angle_alpha                90
_cell_angle_beta                 104.956(9)
_cell_angle_gamma                90
_cell_volume                     1770.52
loop_
_atom_site_label
_atom_site_type_symbol
_atom_site_fract_x
_atom_site_fract_y
_atom_site_fract_z
Cu1 Cu 1.0000 0.19398(6) 0.7500
N1 N 0.72771(12) 0.2417(3) 0.63262(8)
N2 N 0.85866(13) 0.1881(3) 0.71121(9)
O1 O 0.53779(18) 0.7007(3) 0.36037(9)
O2 O 1.0000 0.5628(4) 0.7500
H1 H 1.011(3) 0.642(5) 0.7823(12)
O3 O 0.48270(11) 0.3513(3) 0.33884(7)
C1 C 0.70955(16) 0.0617(4) 0.66854(10)
H2 H 0.6530 -0.0215 0.6611
C2 C 0.52805(16) 0.5050(4) 0.37609(10)
C3 C 0.61780(16) 0.1575(3) 0.52865(11)
H3 H 0.6131 0.0116 0.5426
C4 C 0.79099(16) 0.0314(4) 0.71668(11)
H4 H 0.7998 -0.0783 0.7485
C5 C 0.63113(17) 0.5910(3) 0.48732(11)
H5 H 0.6361 0.7371 0.4735
C6 C 0.67868(17) 0.5309(4) 0.55019(10)
H6 H 0.7145 0.6361 0.5785
C7 C 0.57627(14) 0.4366(3) 0.44470(9)
C8 C 0.57013(16) 0.2189(4) 0.46599(11)
H7 H 0.5338 0.1136 0.4380
C9 C 0.67219(14) 0.3130(3) 0.57026(10)
C10 C 0.81856(14) 0.3115(3) 0.66055(10)
H8 H 0.8486 0.4310 0.6459
Cu1F Cu 0.5000 0.30602(6) 0.2500
Cu1F_2 Cu 1.5000 0.30602(6) 1.2500
N1A N 1.27229(12) 0.2417(3) 0.86738(8)
N2A N 1.14134(13) 0.1881(3) 0.78879(9)
O1A O 1.46221(18) 0.7007(3) 1.13963(9)
H1A H 0.989(3) 0.642(5) 0.7177(12)
O3A O 1.51730(11) 0.3513(3) 1.16116(7)
O3F O 1.01730(11) 0.1487(3) 0.66116(7)
O3G O 0.98270(11) 0.1487(3) 0.83884(7)
C1A C 1.29045(16) 0.0617(4) 0.83146(10)
H2A H 1.3470 -0.0215 0.8389
C2A C 1.47195(16) 0.5050(4) 1.12391(10)
C3A C 1.38220(16) 0.1575(3) 0.97135(11)
H3A H 1.3869 0.0116 0.9574
C4A C 1.20901(16) 0.0314(4) 0.78332(11)
H4A H 1.2002 -0.0783 0.7515
C5A C 1.36887(17) 0.5910(3) 1.01268(11)
H5A H 1.3639 0.7371 1.0265
C6A C 1.32132(17) 0.5309(4) 0.94981(10)
H6A H 1.2855 0.6361 0.9215
C7A C 1.42373(14) 0.4366(3) 1.05530(9)
C8A C 1.42987(16) 0.2189(4) 1.03401(11)
H7A H 1.4662 0.1136 1.0620
C9A C 1.32781(14) 0.3130(3) 0.92974(10)
C10A C 1.18144(14) 0.3115(3) 0.83945(10)
H8A H 1.1514 0.4310 0.8541
loop_
_geom_bond_atom_site_label_1
_geom_bond_atom_site_label_2
_geom_bond_site_symmetry_1
_geom_bond_site_symmetry_2
Cu1 N2 1_555 1_555
N1 C1 1_555 1_555
N2 C4 1_555 1_555
O1 C2 1_555 1_555
O2 Cu1 1_555 1_555
H1 O2 1_555 1_555
O3 C2 1_555 1_555
C1 H2 1_555 1_555
C2 C7 1_555 1_555
C3 H3 1_555 1_555
C4 C1 1_555 1_555
H4 C4 1_555 1_555
C5 H5 1_555 1_555
C6 C5 1_555 1_555
H6 C6 1_555 1_555
C7 C5 1_555 1_555
C8 C3 1_555 1_555
H7 C8 1_555 1_555
C9 N1 1_555 1_555
C10 N1 1_555 1_555
H8 C10 1_555 1_555
Cu1F O3 1_555 1_555
Cu1F_2 O3A 1_555 1_555
N1A C1A 1_555 1_555
N2A Cu1 1_555 1_555
O1A C2A 1_555 1_555
H1A O2 1_555 1_555
O3A C2A 1_555 1_555
O3F Cu1 1_555 1_555
O3G Cu1 1_555 1_555
C1A H2A 1_555 1_555
C2A C7A 1_555 1_555
C3A H3A 1_555 1_555
C4A N2A 1_555 1_555
H4A C4A 1_555 1_555
C5A H5A 1_555 1_555
C6A C5A 1_555 1_555
H6A C6A 1_555 1_555
C7A C5A 1_555 1_555
C8A C3A 1_555 1_555
H7A C8A 1_555 1_555
C9A N1A 1_555 1_555
C10A N1A 1_555 1_555
H8A C10A 1_555 1_555
N2 C10 1_555 1_555
C3 C9 1_555 1_555
C6 C9 1_555 1_555
C7 C8 1_555 1_555
N2A C10A 1_555 1_555
C1A C4A 1_555 1_555
C3A C9A 1_555 1_555
C6A C9A 1_555 1_555
C7A C8A 1_555 1_555

#END
