
#######################################################################
#
#                 Cambridge Crystallographic Data Centre
#                                CCDC 
#
#######################################################################
#
# If this CIF has been generated from an entry in the Cambridge 
# Structural Database, then it will include bibliographic, chemical, 
# crystal, experimental, refinement or atomic coordinate data resulting 
# from the CCDC's data processing and validation procedures.
#
#######################################################################

data_UNENIL
_symmetry_cell_setting           monoclinic
_symmetry_space_group_name_H-M   'P c'
_symmetry_Int_Tables_number      7
_space_group_name_Hall           'P -2yc'
loop_
_symmetry_equiv_pos_site_id
_symmetry_equiv_pos_as_xyz
1 x,y,z
2 x,-y,1/2+z
_cell_length_a                   7.7832(17)
_cell_length_b                   11.527(3)
_cell_length_c                   31.483(7)
_cell_angle_alpha                90
_cell_angle_beta                 91.952(4)
_cell_angle_gamma                90
_cell_volume                     2822.92
loop_
_atom_site_label
_atom_site_type_symbol
_atom_site_fract_x
_atom_site_fract_y
_atom_site_fract_z
C1 C 0.6996(16) 0.4806(9) 0.2443(4)
H1 H 0.7311 0.4406 0.2202
C2 C 0.7023(14) 0.5991(9) 0.2438(3)
H2 H 0.7352 0.6363 0.2191
C3 C 0.6582(15) 0.6667(9) 0.2784(4)
C4 C 0.6082(14) 0.6026(8) 0.3129(3)
H3 H 0.5724 0.6406 0.3372
C5 C 0.6107(15) 0.4834(9) 0.3119(3)
H4 H 0.5806 0.4437 0.3363
C6 C 0.5841(15) 0.9742(9) 0.3087(3)
H5 H 0.5363 1.0127 0.3314
C7 C 0.5819(14) 0.8551(8) 0.3094(3)
H6 H 0.5292 0.8163 0.3313
C8 C 0.6569(13) 0.7938(7) 0.2780(3)
C9 C 0.7209(13) 0.8603(8) 0.2449(3)
H7 H 0.7680 0.8235 0.2217
C10 C 0.7150(13) 0.9769(9) 0.2463(3)
H8 H 0.7597 1.0169 0.2236
C11 C 0.4896(14) 0.2535(7) 0.1899(3)
C12 C 0.5252(11) 0.2852(8) 0.1439(2)
H9 H 0.6256 0.2423 0.1354
H10 H 0.5540 0.3670 0.1429
C13 C 0.3642(12) 0.1077(8) 0.1030(3)
C14 C 0.3184(14) -0.0894(9) 0.0847(3)
C15 C 0.2606(13) -0.2055(9) 0.0696(3)
H11 H 0.2869 -0.2144 0.0402
H12 H 0.1388 -0.2126 0.0727
H13 H 0.3188 -0.2645 0.0861
Co1 Co 0.64679(16) 0.22855(10) 0.27839(4)
N1 N 0.6539(13) 0.4205(6) 0.2780(3)
N2 N 0.6504(12) 1.0403(5) 0.2776(3)
N3 N 0.4756(11) 0.0412(7) 0.1208(3)
N4 N 0.4495(11) -0.0738(7) 0.1104(2)
O1 O 0.3355(9) 0.2587(6) 0.2011(2)
O2 O 0.6157(9) 0.2318(5) 0.21294(19)
O3 O 0.3787(8) 0.2366(5) 0.28539(19)
H37 H 0.3447 0.1744 0.2969
H38 H 0.3294 0.2447 0.2611
O4 O 0.6904(9) 0.2217(5) 0.34316(18)
H39 H 0.7855 0.2008 0.3548
H40 H 0.6175 0.2641 0.3553
O5 O 0.9113(9) 0.2282(5) 0.26779(19)
H41 H 0.9312 0.2921 0.2554
H42 H 0.9263 0.1752 0.2495
S1 S 0.3565(4) 0.2589(2) 0.10573(8)
S2 S 0.2117(4) 0.0367(2) 0.07191(8)
Co1_2 Co 0.64679(16) 1.22855(10) 0.27839(4)
N2_2 N 0.6504(12) 0.0403(5) 0.2776(3)
C16 C 0.7903(16) 0.2988(9) 0.0373(3)
H14 H 0.7553 0.3390 0.0611
C17 C 0.7856(15) 0.1815(9) 0.0387(3)
H15 H 0.7494 0.1448 0.0631
C18 C 0.8337(19) 0.1157(8) 0.0045(3)
C19 C 0.8736(17) 0.1820(9) -0.0305(3)
H16 H 0.8932 0.1452 -0.0562
C20 C 0.8846(18) 0.2992(10) -0.0283(4)
H17 H 0.9258 0.3385 -0.0517
C21 C 0.8841(13) -0.1955(9) -0.0313(3)
H18 H 0.9202 -0.2347 -0.0552
C22 C 0.8798(13) -0.0773(8) -0.0320(3)
H19 H 0.9102 -0.0383 -0.0565
C23 C 0.8296(16) -0.0121(9) 0.0042(4)
C24 C 0.7831(13) -0.0785(8) 0.0377(3)
H20 H 0.7490 -0.0420 0.0624
C25 C 0.7847(14) -0.1965(9) 0.0362(3)
H21 H 0.7471 -0.2376 0.0595
C26 C 1.0060(14) 0.5267(6) 0.0923(3)
C27 C 0.9676(12) 0.4967(8) 0.1383(3)
H22 H 0.9345 0.4156 0.1393
H23 H 0.8690 0.5421 0.1465
C28 C 1.1318(12) 0.6680(8) 0.1803(3)
C29 C 1.1852(12) 0.8676(8) 0.1964(3)
C30 C 1.2434(12) 0.9809(8) 0.2123(3)
H24 H 1.1743 1.0409 0.1992
H25 H 1.3615 0.9923 0.2056
H26 H 1.2324 0.9838 0.2426
Co2 Co 0.84556(17) 0.55244(10) 0.00467(4)
N5 N 0.8408(12) 0.3604(6) 0.0047(3)
N6 N 0.8389(13) -0.2566(6) 0.0020(3)
N7 N 1.0541(10) 0.8530(6) 0.1714(2)
N8 N 1.0203(11) 0.7371(6) 0.1619(2)
O6 O 0.8763(8) 0.5495(5) 0.06995(19)
O7 O 1.1565(9) 0.5240(6) 0.08111(19)
O8 O 1.1121(8) 0.5457(5) -0.00255(19)
H43 H 1.1451 0.6080 -0.0141
H44 H 1.1619 0.5378 0.0217
O9 O 0.8032(9) 0.5530(5) -0.06095(18)
H45 H 0.8599 0.5141 -0.0786
H46 H 0.7157 0.5945 -0.0672
O10 O 0.5864(8) 0.5508(5) 0.01575(18)
H47 H 0.5701 0.5714 0.0412
H48 H 0.5355 0.5974 -0.0014
S3 S 1.1368(4) 0.5198(2) 0.17709(8)
S4 S 1.2865(4) 0.7406(2) 0.21024(9)
Co2_2 Co 0.84556(17) -0.44756(10) 0.00467(4)
N6_2 N 0.8389(13) 0.7434(6) 0.0020(3)
C31 C 0.0942(14) 0.3666(9) 0.3533(3)
H27 H 0.0413 0.3381 0.3784
H28 H 0.2146 0.3482 0.3547
H29 H 0.0412 0.3308 0.3286
C32 C 0.0718(15) 0.4942(10) 0.3506(4)
C33 C 0.0814(13) 0.6967(8) 0.3334(3)
C34 C 0.0350(14) 0.9194(8) 0.3550(3)
H30 H -0.0835 0.8987 0.3599
H31 H 0.1021 0.9042 0.3810
C35 C 0.0455(16) 1.0454(9) 0.3442(4)
N9 N 0.0025(11) 0.6746(7) 0.3690(2)
N10 N 0.0000(12) 0.5578(7) 0.3768(3)
O11 O -0.0275(10) 1.1114(6) 0.3694(2)
O12 O 0.1198(9) 1.0752(6) 0.3116(2)
S5 S 0.1157(4) 0.8313(2) 0.31220(8)
S6 S 0.1535(4) 0.5741(2) 0.30900(9)
C36 C 0.4045(15) 0.4073(8) 0.9336(3)
H32 H 0.5155 0.4341 0.9435
H33 H 0.3182 0.4364 0.9518
H34 H 0.3817 0.4348 0.9051
C37 C 0.4014(13) 0.2794(9) 0.9339(3)
C38 C 0.3903(14) 0.0776(8) 0.9469(3)
C39 C 0.4029(17) -0.1462(8) 0.9214(3)
H35 H 0.3032 -0.1433 0.9021
H36 H 0.4998 -0.1137 0.9069
C40 C 0.4405(14) -0.2693(10) 0.9332(3)
N11 N 0.4441(13) 0.2194(7) 0.9018(3)
N12 N 0.4365(13) 0.0996(8) 0.9093(3)
O13 O 0.3802(9) -0.3074(5) 0.9669(2)
O14 O 0.5336(9) -0.3242(6) 0.9086(2)
S7 S 0.3625(4) -0.0617(2) 0.96790(8)
S8 S 0.3518(5) 0.1971(3) 0.97732(9)
O15 O 0.6476(9) 0.7266(5) 0.1397(2)
H49 H 0.5720 0.7795 0.1412
H50 H 0.7344 0.7443 0.1555
O16 O 0.5008(9) 0.5340(5) 0.0978(2)
H51 H 0.5237 0.5528 0.1234
H52 H 0.3925 0.5303 0.0936
O17 O -0.0069(9) 0.2469(5) 0.1848(2)
H53 H -0.0630 0.1875 0.1763
H54 H 0.0915 0.2468 0.1739
O18 O 0.8485(9) 0.0521(5) 0.1419(2)
H55 H 0.7526 0.0222 0.1343
H56 H 0.9260 0.0001 0.1423
loop_
_geom_bond_atom_site_label_1
_geom_bond_atom_site_label_2
_geom_bond_site_symmetry_1
_geom_bond_site_symmetry_2
C1 H1 1_555 1_555
C2 C1 1_555 1_555
H2 C2 1_555 1_555
C3 C2 1_555 1_555
C4 C3 1_555 1_555
H3 C4 1_555 1_555
C5 C4 1_555 1_555
H4 C5 1_555 1_555
C6 H5 1_555 1_555
C7 C6 1_555 1_555
H6 C7 1_555 1_555
C8 C3 1_555 1_555
C9 C8 1_555 1_555
H7 C9 1_555 1_555
C10 C9 1_555 1_555
H8 C10 1_555 1_555
C11 C12 1_555 1_555
C12 H9 1_555 1_555
H10 C12 1_555 1_555
C13 N3 1_555 1_555
C14 C15 1_555 1_555
C15 H11 1_555 1_555
H12 C15 1_555 1_555
H13 C15 1_555 1_555
C16 H14 1_555 1_555
C17 C16 1_555 1_555
H15 C17 1_555 1_555
C18 C17 1_555 1_555
C19 C18 1_555 1_555
H16 C19 1_555 1_555
C20 C19 1_555 1_555
H17 C20 1_555 1_555
C21 H18 1_555 1_555
C22 C21 1_555 1_555
H19 C22 1_555 1_555
C23 C18 1_555 1_555
C24 C23 1_555 1_555
H20 C24 1_555 1_555
C25 C24 1_555 1_555
H21 C25 1_555 1_555
C26 C27 1_555 1_555
C27 H22 1_555 1_555
H23 C27 1_555 1_555
C28 N8 1_555 1_555
C29 C30 1_555 1_555
C30 H24 1_555 1_555
H25 C30 1_555 1_555
H26 C30 1_555 1_555
C31 H27 1_555 1_555
H28 C31 1_555 1_555
H29 C31 1_555 1_555
C32 C31 1_555 1_555
C33 N9 1_555 1_555
C34 H30 1_555 1_555
H31 C34 1_555 1_555
C35 C34 1_555 1_555
C36 H32 1_555 1_555
H33 C36 1_555 1_555
H34 C36 1_555 1_555
C37 C36 1_555 1_555
C38 N12 1_555 1_555
C39 H35 1_555 1_555
H36 C39 1_555 1_555
C40 C39 1_555 1_555
Co1 N1 1_555 1_555
Co2 N5 1_555 1_555
N1 C1 1_555 1_555
N2 C6 1_555 1_555
N3 N4 1_555 1_555
N4 C14 1_555 1_555
N5 C16 1_555 1_555
N6 C21 1_555 1_555
N7 C29 1_555 1_555
N8 N7 1_555 1_555
N9 N10 1_555 1_555
N10 C32 1_555 1_555
N11 C37 1_555 1_555
N12 N11 1_555 1_555
O1 C11 1_555 1_555
O2 C11 1_555 1_555
O3 Co1 1_555 1_555
H37 O3 1_555 1_555
H38 O3 1_555 1_555
O4 Co1 1_555 1_555
H39 O4 1_555 1_555
H40 O4 1_555 1_555
O5 Co1 1_555 1_555
H41 O5 1_555 1_555
H42 O5 1_555 1_555
O6 C26 1_555 1_555
O7 C26 1_555 1_555
O8 Co2 1_555 1_555
H43 O8 1_555 1_555
H44 O8 1_555 1_555
O9 Co2 1_555 1_555
H45 O9 1_555 1_555
H46 O9 1_555 1_555
O10 Co2 1_555 1_555
H47 O10 1_555 1_555
H48 O10 1_555 1_555
O11 C35 1_555 1_555
O12 C35 1_555 1_555
O13 C40 1_555 1_555
O14 C40 1_555 1_555
O15 H49 1_555 1_555
H50 O15 1_555 1_555
O16 H51 1_555 1_555
H52 O16 1_555 1_555
O17 H53 1_555 1_555
H54 O17 1_555 1_555
O18 H55 1_555 1_555
H56 O18 1_555 1_555
S1 C12 1_555 1_555
S2 C13 1_555 1_555
S3 C27 1_555 1_555
S4 C28 1_555 1_555
S5 C33 1_555 1_555
S6 C32 1_555 1_555
S7 C38 1_555 1_555
S8 C37 1_555 1_555
Co1_2 N2 1_555 1_555
Co2_2 N6 1_555 1_555
N2_2 Co1 1_555 1_555
N6_2 Co2 1_555 1_555
C5 N1 1_555 1_555
C7 C8 1_555 1_555
C10 N2 1_555 1_555
C13 S1 1_555 1_555
C14 S2 1_555 1_555
C20 N5 1_555 1_555
C22 C23 1_555 1_555
C25 N6 1_555 1_555
C28 S3 1_555 1_555
C29 S4 1_555 1_555
C33 S6 1_555 1_555
C34 S5 1_555 1_555
C38 S8 1_555 1_555
C39 S7 1_555 1_555
Co1 O2 1_555 1_555
Co2 O6 1_555 1_555

#END
