
#######################################################################
#
#                 Cambridge Crystallographic Data Centre
#                                CCDC 
#
#######################################################################
#
# If this CIF has been generated from an entry in the Cambridge 
# Structural Database, then it will include bibliographic, chemical, 
# crystal, experimental, refinement or atomic coordinate data resulting 
# from the CCDC's data processing and validation procedures.
#
#######################################################################

data_UNENEH
_symmetry_cell_setting           triclinic
_symmetry_space_group_name_H-M   'P -1'
_symmetry_Int_Tables_number      2
_space_group_name_Hall           '-P 1'
loop_
_symmetry_equiv_pos_site_id
_symmetry_equiv_pos_as_xyz
1 x,y,z
2 -x,-y,-z
_cell_length_a                   7.669(2)
_cell_length_b                   8.840(3)
_cell_length_c                   11.521(4)
_cell_angle_alpha                79.912(5)
_cell_angle_beta                 73.954(5)
_cell_angle_gamma                86.612(6)
_cell_volume                     738.973
loop_
_atom_site_label
_atom_site_type_symbol
_atom_site_fract_x
_atom_site_fract_y
_atom_site_fract_z
C1 C 0.4536(6) 0.6151(4) 0.2418(3)
H1 H 0.4109 0.6997 0.2797
C2 C 0.4467(5) 0.6227(4) 0.1240(3)
H2 H 0.4028 0.7113 0.0842
C3 C 0.5050(4) 0.4986(4) 0.0631(3)
C4 C 0.5731(5) 0.3745(4) 0.1298(3)
H3 H 0.6167 0.2884 0.0940
C5 C 0.5769(5) 0.3770(4) 0.2469(3)
H4 H 0.6240 0.2914 0.2881
Co1 Co 0.5000 0.5000 0.5000
N1 N 0.5166(4) 0.4959(3) 0.3066(3)
O1 O 0.7739(3) 0.5391(3) 0.4567(2)
H10 H 0.8221 0.6271 0.4412
H11 H 0.8318 0.4548 0.4489
O2 O 0.5472(3) 0.2630(2) 0.5201(2)
H12 H 0.6500 0.2389 0.5329
H13 H 0.4610 0.2182 0.5769
C1A C 0.5464(6) 0.3849(4) -0.2418(3)
H1A H 0.5891 0.3003 -0.2797
C2A C 0.5533(5) 0.3773(4) -0.1240(3)
H2A H 0.5972 0.2887 -0.0842
C3A C 0.4950(4) 0.5014(4) -0.0631(3)
C4A C 0.4269(5) 0.6255(4) -0.1298(3)
H3A H 0.3833 0.7116 -0.0940
C5A C 0.4231(5) 0.6230(4) -0.2469(3)
H4A H 0.3760 0.7086 -0.2881
Co1_2 Co 0.5000 0.5000 -0.5000
N1A N 0.4834(4) 0.5041(3) -0.3066(3)
N1A_2 N 0.4834(4) 0.5041(3) 0.6934(3)
O1A O 0.2261(3) 0.4609(3) 0.5433(2)
H10A H 0.1779 0.3729 0.5588
H11A H 0.1682 0.5452 0.5511
O2A O 0.4528(3) 0.7370(2) 0.4799(2)
H12A H 0.3500 0.7611 0.4671
H13A H 0.5390 0.7818 0.4231
C6 C 0.0656(6) 0.3223(5) -0.1459(4)
H5 H 0.1075 0.2888 -0.2239
H6 H 0.1192 0.4192 -0.1501
H7 H -0.0641 0.3334 -0.1247
C7 C 0.1183(5) 0.2078(4) -0.0521(4)
C8 C 0.1731(5) 0.0552(4) 0.1272(4)
C9 C 0.1908(5) 0.1178(4) 0.3491(4)
H8 H 0.2355 0.0781 0.4196
H9 H 0.2793 0.1904 0.2946
C10 C 0.0157(5) 0.2041(4) 0.3923(3)
N2 N 0.2049(5) 0.0819(4) -0.0724(3)
N3 N 0.2379(4) -0.0075(4) 0.0305(3)
O3 O 0.0371(4) 0.3320(4) 0.4175(4)
O4 O -0.1329(3) 0.1499(3) 0.4003(3)
S1 S 0.06684(16) 0.23010(11) 0.09943(10)
S2 S 0.18070(16) -0.03945(11) 0.27097(10)
O5 O 0.3473(4) 0.0335(3) 0.6750(3)
H14 H 0.3583 0.0616 0.7395
H15 H 0.2423 -0.0034 0.6889
loop_
_geom_bond_atom_site_label_1
_geom_bond_atom_site_label_2
_geom_bond_site_symmetry_1
_geom_bond_site_symmetry_2
C1 H1 1_555 1_555
C2 C1 1_555 1_555
H2 C2 1_555 1_555
C3 C2 1_555 1_555
C4 C3 1_555 1_555
H3 C4 1_555 1_555
C5 C4 1_555 1_555
H4 C5 1_555 1_555
C6 H5 1_555 1_555
H6 C6 1_555 1_555
H7 C6 1_555 1_555
C7 C6 1_555 1_555
C8 N3 1_555 1_555
C9 H8 1_555 1_555
H9 C9 1_555 1_555
C10 C9 1_555 1_555
Co1 N1 1_555 1_555
N1 C1 1_555 1_555
N2 C7 1_555 1_555
N3 N2 1_555 1_555
O1 Co1 1_555 1_555
H10 O1 1_555 1_555
H11 O1 1_555 1_555
O2 Co1 1_555 1_555
H12 O2 1_555 1_555
H13 O2 1_555 1_555
O3 C10 1_555 1_555
O4 C10 1_555 1_555
O5 H14 1_555 1_555
H15 O5 1_555 1_555
S1 C7 1_555 1_555
S2 C8 1_555 1_555
C1A H1A 1_555 1_555
C2A C1A 1_555 1_555
H2A C2A 1_555 1_555
C3A C3 1_555 1_555
C4A C3A 1_555 1_555
H3A C4A 1_555 1_555
C5A C4A 1_555 1_555
H4A C5A 1_555 1_555
Co1_2 N1A 1_555 1_555
N1A C1A 1_555 1_555
N1A_2 Co1 1_555 1_555
O1A Co1 1_555 1_555
H10A O1A 1_555 1_555
H11A O1A 1_555 1_555
O2A Co1 1_555 1_555
H12A O2A 1_555 1_555
H13A O2A 1_555 1_555
C5 N1 1_555 1_555
C8 S1 1_555 1_555
C9 S2 1_555 1_555
C2A C3A 1_555 1_555
C5A N1A 1_555 1_555

#END
