
#######################################################################
#
#                 Cambridge Crystallographic Data Centre
#                                CCDC 
#
#######################################################################
#
# If this CIF has been generated from an entry in the Cambridge 
# Structural Database, then it will include bibliographic, chemical, 
# crystal, experimental, refinement or atomic coordinate data resulting 
# from the CCDC's data processing and validation procedures.
#
#######################################################################

data_UNEPEI
_symmetry_cell_setting           monoclinic
_symmetry_space_group_name_H-M   'P 21/n'
_symmetry_Int_Tables_number      14
_space_group_name_Hall           '-P 2yn'
loop_
_symmetry_equiv_pos_site_id
_symmetry_equiv_pos_as_xyz
1 x,y,z
2 1/2+x,1/2-y,1/2+z
3 -x,-y,-z
4 1/2-x,1/2+y,1/2-z
_cell_length_a                   10.1516(4)
_cell_length_b                   15.8101(6)
_cell_length_c                   21.7442(9)
_cell_angle_alpha                90
_cell_angle_beta                 102.252(2)
_cell_angle_gamma                90
_cell_volume                     3410.41
loop_
_atom_site_label
_atom_site_type_symbol
_atom_site_fract_x
_atom_site_fract_y
_atom_site_fract_z
Pb1 Pb -0.14599(9) 0.67284(5) 0.47560(4)
Pb2 Pb -0.61542(8) 0.61570(5) 0.42229(4)
Pb3 Pb -0.98075(9) 0.48731(5) 0.37079(4)
Pb4 Pb 0.64327(14) 0.83099(8) 0.37192(6)
P1 P -0.8390(5) 0.5729(3) 0.5290(2)
P2 P -0.3612(5) 0.5984(3) 0.5560(3)
N1 N -0.6092(17) 0.6720(10) 0.5406(8)
N2 N -0.803(3) 0.848(2) 0.6669(13)
H1 H -0.8724 0.8421 0.6837
C1 C -0.693(2) 0.8040(16) 0.5894(11)
C2 C -0.799(3) 0.7987(19) 0.6176(13)
H2 H -0.8689 0.7610 0.6026
C3 C -0.716(5) 0.901(2) 0.6914(17)
H3 H -0.7280 0.9341 0.7254
C4 C -0.605(7) 0.910(3) 0.6668(18)
H4 H -0.5386 0.9492 0.6841
C5 C -0.590(4) 0.860(2) 0.6148(17)
H5 H -0.5133 0.8652 0.5979
C6 C -0.684(2) 0.7548(13) 0.5325(11)
H6 H -0.6427 0.7907 0.5058
H7 H -0.7756 0.7435 0.5098
C7 C -0.675(2) 0.6077(14) 0.5734(10)
H8 H -0.6860 0.6308 0.6133
H9 H -0.6161 0.5589 0.5823
C8 C -0.4682(19) 0.6853(14) 0.5715(10)
H10 H -0.4613 0.6903 0.6166
H11 H -0.4367 0.7378 0.5567
C9 C -1.377(2) 0.3639(14) 0.2528(10)
C10 C -1.398(3) 0.2835(15) 0.2285(12)
H12 H -1.3259 0.2524 0.2204
C11 C -1.528(2) 0.2481(13) 0.2158(10)
C12 C -1.636(2) 0.2925(16) 0.2265(10)
H13 H -1.7202 0.2675 0.2208
C13 C -1.616(2) 0.3807(15) 0.2473(11)
C14 C -1.486(3) 0.4115(14) 0.2623(12)
H14 H -1.4706 0.4656 0.2791
C15 C -1.237(3) 0.4000(19) 0.2695(13)
C16 C -1.727(3) 0.4336(17) 0.2559(12)
C17 C -1.549(3) 0.1600(16) 0.1867(11)
C18 C 0.287(3) 0.9373(17) 0.4209(12)
C19 C 0.159(3) 0.8971(15) 0.4116(11)
H15 H 0.1521 0.8400 0.4011
C20 C 0.048(2) 0.9405(14) 0.4177(10)
C21 C 0.056(2) 1.0272(15) 0.4345(12)
H16 H -0.0225 1.0574 0.4355
C22 C 0.180(3) 1.0671(15) 0.4493(12)
C23 C 0.296(3) 1.0223(15) 0.4421(13)
H17 H 0.3796 1.0489 0.4514
C24 C 0.406(3) 0.891(2) 0.4064(16)
C25 C -0.083(3) 0.8960(19) 0.4066(13)
C26 C 0.192(3) 1.1557(14) 0.4739(12)
O1 O -1.148(2) 0.3643(15) 0.2494(14)
O2 O -1.2207(19) 0.4676(11) 0.3029(8)
O3 O -1.8340(19) 0.4083(15) 0.2633(12)
O4 O -1.697(2) 0.5169(12) 0.2561(10)
H18 H -1.7477 0.5433 0.2739
O5 O -1.4513(17) 0.1288(10) 0.1651(9)
O6 O -1.655(2) 0.1213(11) 0.1892(9)
O7 O 0.505(2) 0.9371(16) 0.3963(14)
O8 O 0.404(2) 0.8164(11) 0.3984(10)
O9 O -0.086(3) 0.8169(14) 0.4072(11)
O10 O -0.194(2) 0.9392(15) 0.3953(11)
O11 O 0.0888(17) 1.2005(11) 0.4584(9)
O12 O 0.3030(17) 1.1823(10) 0.5068(9)
O13 O -0.3714(15) 0.5250(9) 0.6001(7)
O14 O -0.4100(15) 0.5782(10) 0.4857(8)
O15 O -0.2181(15) 0.6326(10) 0.5667(8)
O16 O -0.8257(16) 0.5677(10) 0.4610(7)
O17 O -0.9436(15) 0.6367(9) 0.5401(7)
O18 O -0.8676(15) 0.4897(9) 0.5582(7)
Pb4_2 Pb -0.35673(14) 0.83099(8) 0.37192(6)
O11B O -0.0888(17) 0.7995(11) 0.5416(9)
O12B O -0.3030(17) 0.8177(10) 0.4932(9)
O17_2 O 0.0564(15) 0.6367(9) 0.5401(7)
O18B O -0.1324(15) 0.5103(9) 0.4418(7)
O13B O -0.6286(15) 0.4750(9) 0.3999(7)
O5C O -1.0487(17) 0.6288(10) 0.3349(9)
O18B_2 O -1.1324(15) 0.5103(9) 0.4418(7)
Pb1_2 Pb 0.85401(9) 0.67284(5) 0.47560(4)
O1C O 0.648(2) 0.8643(15) 0.2506(14)
O9_2 O 0.914(3) 0.8169(14) 0.4072(11)
O10_2 O 0.806(2) 0.9392(15) 0.3953(11)
O12B_2 O 0.6970(17) 0.8177(10) 0.4932(9)
Pb4C Pb -1.14327(14) 0.33099(8) 0.12808(6)
Pb3C Pb -1.51925(9) -0.01269(5) 0.12921(4)
Pb1B Pb 0.14599(9) 1.32716(5) 0.52440(4)
Pb4B Pb 0.35673(14) 1.16901(8) 0.62808(6)
Pb2B Pb -0.38458(8) 0.38430(5) 0.57771(4)
Pb1_3 Pb -1.14599(9) 0.67284(5) 0.47560(4)
Pb1B_2 Pb -0.85401(9) 0.32716(5) 0.52440(4)
Pb3B Pb -1.01925(9) 0.51269(5) 0.62921(4)
O19 O 0.639(6) 0.240(2) 0.8241(17)
O20 O 0.514(4) 0.360(2) 0.7748(17)
O21 O 0.398(3) 0.3862(16) 0.6489(12)
loop_
_geom_bond_atom_site_label_1
_geom_bond_atom_site_label_2
_geom_bond_site_symmetry_1
_geom_bond_site_symmetry_2
Pb1 O9 1_555 1_555
Pb2 N1 1_555 1_555
Pb3 O2 1_555 1_555
Pb4 O7 1_555 1_555
P1 C7 1_555 1_555
P2 C8 1_555 1_555
N1 C6 1_555 1_555
N2 H1 1_555 1_555
C1 C2 1_555 1_555
C2 N2 1_555 1_555
H2 C2 1_555 1_555
C3 N2 1_555 1_555
H3 C3 1_555 1_555
C4 C3 1_555 1_555
H4 C4 1_555 1_555
C5 C1 1_555 1_555
H5 C5 1_555 1_555
C6 C1 1_555 1_555
H6 C6 1_555 1_555
H7 C6 1_555 1_555
C7 N1 1_555 1_555
H8 C7 1_555 1_555
H9 C7 1_555 1_555
C8 N1 1_555 1_555
H10 C8 1_555 1_555
H11 C8 1_555 1_555
C9 C10 1_555 1_555
C10 H12 1_555 1_555
C11 C10 1_555 1_555
C12 C11 1_555 1_555
H13 C12 1_555 1_555
C13 C12 1_555 1_555
C14 C9 1_555 1_555
H14 C14 1_555 1_555
C15 C9 1_555 1_555
C16 C13 1_555 1_555
C17 C11 1_555 1_555
C18 C19 1_555 1_555
C19 H15 1_555 1_555
C20 C19 1_555 1_555
C21 C20 1_555 1_555
H16 C21 1_555 1_555
C22 C21 1_555 1_555
C23 C18 1_555 1_555
H17 C23 1_555 1_555
C24 C18 1_555 1_555
C25 C20 1_555 1_555
C26 C22 1_555 1_555
O1 C15 1_555 1_555
O2 C15 1_555 1_555
O3 C16 1_555 1_555
O4 C16 1_555 1_555
H18 O4 1_555 1_555
O5 C17 1_555 1_555
O6 C17 1_555 1_555
O7 C24 1_555 1_555
O8 Pb4 1_555 1_555
O9 C25 1_555 1_555
O10 C25 1_555 1_555
O11 C26 1_555 1_555
O12 C26 1_555 1_555
O13 P2 1_555 1_555
O14 Pb2 1_555 1_555
O15 Pb1 1_555 1_555
O16 Pb2 1_555 1_555
O17 P1 1_555 1_555
O18 P1 1_555 1_555
Pb4_2 O9 1_555 1_555
O11B Pb1 1_555 1_555
O12B Pb1 1_555 1_555
O17_2 Pb1 1_555 1_555
O18B Pb1 1_555 1_555
O13B Pb2 1_555 1_555
O5C Pb3 1_555 1_555
O18B_2 Pb3 1_555 1_555
Pb1_2 O9_2 1_555 1_555
O1C Pb4 1_555 1_555
O9_2 Pb4 1_555 1_555
O10_2 Pb4 1_555 1_555
O12B_2 Pb4 1_555 1_555
Pb4C O1 1_555 1_555
Pb3C O5 1_555 1_555
Pb1B O11 1_555 1_555
Pb4B O12 1_555 1_555
Pb2B O13 1_555 1_555
Pb1_3 O17 1_555 1_555
Pb1B_2 O18 1_555 1_555
Pb3B O18 1_555 1_555
Pb3 O16 1_555 1_555
P1 O16 1_555 1_555
P2 O14 1_555 1_555
P2 O15 1_555 1_555
C4 C5 1_555 1_555
C13 C14 1_555 1_555
C22 C23 1_555 1_555
C24 O8 1_555 1_555
O10 Pb4_2 1_555 1_555
O12 Pb1B 1_555 1_555
Pb4_2 O12B 1_555 1_555
O18B_2 Pb1_3 1_555 1_555
Pb1_2 O12B_2 1_555 1_555

#END
