
#######################################################################
#
#                 Cambridge Crystallographic Data Centre
#                                CCDC 
#
#######################################################################
#
# If this CIF has been generated from an entry in the Cambridge 
# Structural Database, then it will include bibliographic, chemical, 
# crystal, experimental, refinement or atomic coordinate data resulting 
# from the CCDC's data processing and validation procedures.
#
#######################################################################

data_UNEQOU
_symmetry_cell_setting           triclinic
_symmetry_space_group_name_H-M   'P -1'
_symmetry_Int_Tables_number      2
_space_group_name_Hall           '-P 1'
loop_
_symmetry_equiv_pos_site_id
_symmetry_equiv_pos_as_xyz
1 x,y,z
2 -x,-y,-z
_cell_length_a                   7.5979(8)
_cell_length_b                   7.7128(9)
_cell_length_c                   14.5346(17)
_cell_angle_alpha                100.094(2)
_cell_angle_beta                 92.444(2)
_cell_angle_gamma                116.736(2)
_cell_volume                     741.725
loop_
_atom_site_label
_atom_site_type_symbol
_atom_site_fract_x
_atom_site_fract_y
_atom_site_fract_z
Mn1 Mn 1.0000 1.0000 0.0000
O1 O 0.8939(3) 1.2091(2) 0.46691(11)
N1 N 1.3145(3) 1.2313(3) 0.03281(15)
N2 N 1.6723(3) 1.3697(3) 0.0646(2)
N3 N 1.8901(4) 1.2218(3) 0.02699(15)
N4 N 0.9939(3) 0.9842(3) 0.15778(12)
N5 N 1.0849(4) 1.4434(3) 0.39186(17)
H1 H 1.156(4) 1.483(4) 0.350(2)
H2 H 1.085(4) 1.535(4) 0.438(2)
C1 C 1.4827(4) 1.2885(3) 0.04532(16)
C2 C 1.7805(4) 1.2834(3) 0.04204(16)
C3 C 1.0112(4) 1.1283(3) 0.22996(15)
H5 H 1.0492 1.2547 0.2190
C4 C 0.9755(3) 1.0985(3) 0.31993(15)
C5 C 0.9189(4) 0.9100(4) 0.33564(16)
H6 H 0.8925 0.8840 0.3950
C6 C 0.9021(4) 0.7621(4) 0.26282(18)
H7 H 0.8649 0.6346 0.2721
C7 C 0.9411(4) 0.8048(4) 0.17551(17)
H8 H 0.9300 0.7035 0.1265
C8 C 0.9830(4) 1.2570(4) 0.39885(15)
Mn1_2 Mn 0.0000 1.0000 0.0000
Mn1_3 Mn 2.0000 1.0000 0.0000
O1A O 1.1061(3) 0.7909(2) -0.46691(11)
N1A N 0.6855(3) 0.7687(3) -0.03281(15)
N2A N 0.3277(3) 0.6303(3) -0.0646(2)
N3A N 0.1099(4) 0.7782(3) -0.02699(15)
N3_2 N 0.8901(4) 1.2218(3) 0.02699(15)
N3A_2 N 1.1099(4) 0.7782(3) -0.02699(15)
N4A N 1.0061(3) 1.0158(3) -0.15778(12)
N5A N 0.9151(4) 0.5566(3) -0.39186(17)
H1A H 0.844(4) 0.517(4) -0.350(2)
H2A H 0.915(4) 0.465(4) -0.438(2)
C1A C 0.5173(4) 0.7115(3) -0.04532(16)
C2A C 0.2195(4) 0.7166(3) -0.04204(16)
C3A C 0.9888(4) 0.8717(3) -0.22996(15)
H5A H 0.9508 0.7453 -0.2190
C4A C 1.0245(3) 0.9015(3) -0.31993(15)
C5A C 1.0811(4) 1.0900(4) -0.33564(16)
H6A H 1.1075 1.1160 -0.3950
C6A C 1.0979(4) 1.2379(4) -0.26282(18)
H7A H 1.1351 1.3654 -0.2721
C7A C 1.0589(4) 1.1952(4) -0.17551(17)
H8A H 1.0700 1.2965 -0.1265
C8A C 1.0170(4) 0.7430(4) -0.39885(15)
O2 O 0.4328(3) 0.5804(3) 0.61237(14)
N6 N 0.6531(4) 1.2762(3) 0.71538(16)
N7 N 0.6029(4) 0.7774(4) 0.51724(16)
H3 H 0.586(4) 0.677(5) 0.473(2)
H4 H 0.670(4) 0.888(4) 0.5054(18)
C9 C 0.6314(4) 1.1166(4) 0.65282(17)
H9 H 0.6771 1.1359 0.5952
C10 C 0.5463(4) 0.9253(4) 0.66729(16)
C11 C 0.4790(4) 0.8997(4) 0.75275(17)
H10 H 0.4200 0.7737 0.7661
C12 C 0.4995(4) 1.0607(4) 0.81782(18)
H11 H 0.4550 1.0451 0.8759
C13 C 0.5856(4) 1.2447(4) 0.79726(18)
H12 H 0.5977 1.3528 0.8422
C14 C 0.5227(4) 0.7470(4) 0.59634(17)
loop_
_geom_bond_atom_site_label_1
_geom_bond_atom_site_label_2
_geom_bond_site_symmetry_1
_geom_bond_site_symmetry_2
Mn1 N1 1_555 1_555
O1 C8 1_555 1_555
O2 C14 1_555 1_555
N1 C1 1_555 1_555
N2 C1 1_555 1_555
N3 C2 1_555 1_555
N4 Mn1 1_555 1_555
N5 H1 1_555 1_555
H2 N5 1_555 1_555
N6 C9 1_555 1_555
N7 H3 1_555 1_555
H4 N7 1_555 1_555
C2 N2 1_555 1_555
C3 N4 1_555 1_555
H5 C3 1_555 1_555
C4 C3 1_555 1_555
C5 C4 1_555 1_555
H6 C5 1_555 1_555
C6 C5 1_555 1_555
H7 C6 1_555 1_555
C7 N4 1_555 1_555
H8 C7 1_555 1_555
C8 N5 1_555 1_555
C9 H9 1_555 1_555
C10 C9 1_555 1_555
C11 C10 1_555 1_555
H10 C11 1_555 1_555
C12 C11 1_555 1_555
H11 C12 1_555 1_555
C13 N6 1_555 1_555
H12 C13 1_555 1_555
C14 N7 1_555 1_555
Mn1_2 N3A 1_555 1_555
Mn1_3 N3 1_555 1_555
O1A C8A 1_555 1_555
N1A Mn1 1_555 1_555
N2A C1A 1_555 1_555
N3A C2A 1_555 1_555
N3_2 Mn1 1_555 1_555
N3A_2 Mn1 1_555 1_555
N4A Mn1 1_555 1_555
N5A H1A 1_555 1_555
H2A N5A 1_555 1_555
C1A N1A 1_555 1_555
C2A N2A 1_555 1_555
C3A N4A 1_555 1_555
H5A C3A 1_555 1_555
C4A C3A 1_555 1_555
C5A C4A 1_555 1_555
H6A C5A 1_555 1_555
C6A C5A 1_555 1_555
H7A C6A 1_555 1_555
C7A N4A 1_555 1_555
H8A C7A 1_555 1_555
C8A N5A 1_555 1_555
C4 C8 1_555 1_555
C6 C7 1_555 1_555
C10 C14 1_555 1_555
C12 C13 1_555 1_555
C4A C8A 1_555 1_555
C6A C7A 1_555 1_555

#END
