
#######################################################################
#
#                 Cambridge Crystallographic Data Centre
#                                CCDC 
#
#######################################################################
#
# If this CIF has been generated from an entry in the Cambridge 
# Structural Database, then it will include bibliographic, chemical, 
# crystal, experimental, refinement or atomic coordinate data resulting 
# from the CCDC's data processing and validation procedures.
#
#######################################################################

data_UNEQUA
_symmetry_cell_setting           triclinic
_symmetry_space_group_name_H-M   'P -1'
_symmetry_Int_Tables_number      2
_space_group_name_Hall           '-P 1'
loop_
_symmetry_equiv_pos_site_id
_symmetry_equiv_pos_as_xyz
1 x,y,z
2 -x,-y,-z
_cell_length_a                   7.979(4)
_cell_length_b                   14.538(11)
_cell_length_c                   15.853(8)
_cell_angle_alpha                110.77(2)
_cell_angle_beta                 97.955(18)
_cell_angle_gamma                104.88(2)
_cell_volume                     1607.29
loop_
_atom_site_label
_atom_site_type_symbol
_atom_site_fract_x
_atom_site_fract_y
_atom_site_fract_z
Pb1 Pb 0.0000 0.0000 0.5000
Pb2 Pb 0.5000 0.0000 0.5000
I1 I 0.20551(12) -0.00009(8) 0.33743(6)
I2 I 0.36806(13) 0.17479(8) 0.63623(6)
I3 I 0.17092(13) -0.17424(8) 0.51139(7)
Pb2_2 Pb -0.5000 0.0000 0.5000
I1A I -0.20551(12) 0.00009(8) 0.66257(6)
I1A_2 I 0.79449(12) 0.00009(8) 0.66257(6)
I2A I -0.36806(13) -0.17479(8) 0.36377(6)
I2A_2 I 0.63194(13) -0.17479(8) 0.36377(6)
I3A I -0.17092(13) 0.17424(8) 0.48861(7)
I3A_2 I 0.82908(13) 0.17424(8) 0.48861(7)
I4 I 1.04885(18) 0.23281(10) 0.04773(10)
Cu1 Cu 0.7428(2) 0.27087(12) 0.02207(10)
N1 N 0.5015(14) 0.1481(8) -0.0571(7)
N2 N 0.6711(14) 0.2268(9) 0.1183(8)
N3 N 0.7096(14) 0.4153(9) 0.0767(8)
N4 N 0.7921(14) 0.3199(8) -0.0774(6)
C1 C 0.418(2) 0.1146(12) -0.1470(10)
H1 H 0.4697 0.1461 -0.1831
C2 C 0.256(2) 0.0340(14) -0.1873(12)
H2 H 0.2042 0.0077 -0.2509
C3 C 0.176(2) -0.0048(13) -0.1343(13)
H3 H 0.0630 -0.0557 -0.1607
C4 C 0.2515(18) 0.0267(12) -0.0438(12)
H4 H 0.1943 -0.0020 -0.0073
C5 C 0.4192(15) 0.1042(10) -0.0059(9)
C6 C 0.5155(18) 0.1493(10) 0.0955(9)
C7 C 0.453(2) 0.1152(12) 0.1589(11)
H5 H 0.3429 0.0635 0.1415
C8 C 0.556(2) 0.1583(16) 0.2473(13)
H6 H 0.5194 0.1336 0.2906
C9 C 0.720(3) 0.2411(15) 0.2743(12)
H7 H 0.7883 0.2743 0.3358
C10 C 0.774(2) 0.2704(11) 0.2074(9)
H8 H 0.8847 0.3216 0.2229
C11 C 0.668(2) 0.4634(12) 0.1593(9)
H9 H 0.6466 0.4268 0.1966
C12 C 0.655(2) 0.5595(13) 0.1893(11)
H10 H 0.6229 0.5878 0.2446
C13 C 0.692(2) 0.6141(12) 0.1364(12)
H11 H 0.6914 0.6824 0.1571
C14 C 0.729(2) 0.5686(11) 0.0517(11)
H12 H 0.7507 0.6051 0.0144
C15 C 0.7347(16) 0.4695(10) 0.0237(9)
C16 C 0.7815(16) 0.4137(11) -0.0629(9)
C17 C 0.8104(18) 0.4545(11) -0.1312(10)
H13 H 0.8049 0.5205 -0.1216
C18 C 0.845(2) 0.3978(14) -0.2083(10)
H14 H 0.8617 0.4241 -0.2533
C19 C 0.8573(19) 0.3017(12) -0.2233(9)
H15 H 0.8820 0.2619 -0.2775
C20 C 0.8316(15) 0.2662(8) -0.1551(7)
H16 H 0.8422 0.2015 -0.1634
O1 O 0.4131(15) 0.3566(8) 0.4029(7)
O2 O 0.9934(15) 0.4866(8) -0.3721(7)
loop_
_geom_bond_atom_site_label_1
_geom_bond_atom_site_label_2
_geom_bond_site_symmetry_1
_geom_bond_site_symmetry_2
Pb1 I1 1_555 1_555
Pb2 I1 1_555 1_555
I2 Pb1 1_555 1_555
I3 Pb1 1_555 1_555
I4 Cu1 1_555 1_555
Cu1 N1 1_555 1_555
N1 C1 1_555 1_555
N2 Cu1 1_555 1_555
N3 Cu1 1_555 1_555
N4 Cu1 1_555 1_555
C1 H1 1_555 1_555
C2 C1 1_555 1_555
H2 C2 1_555 1_555
C3 C2 1_555 1_555
H3 C3 1_555 1_555
C4 C3 1_555 1_555
H4 C4 1_555 1_555
C5 N1 1_555 1_555
C6 N2 1_555 1_555
C7 C6 1_555 1_555
H5 C7 1_555 1_555
C8 C7 1_555 1_555
H6 C8 1_555 1_555
C9 C8 1_555 1_555
H7 C9 1_555 1_555
C10 N2 1_555 1_555
H8 C10 1_555 1_555
C11 N3 1_555 1_555
H9 C11 1_555 1_555
C12 C11 1_555 1_555
H10 C12 1_555 1_555
C13 C12 1_555 1_555
H11 C13 1_555 1_555
C14 C13 1_555 1_555
H12 C14 1_555 1_555
C15 N3 1_555 1_555
C16 N4 1_555 1_555
C17 C16 1_555 1_555
H13 C17 1_555 1_555
C18 C17 1_555 1_555
H14 C18 1_555 1_555
C19 C18 1_555 1_555
H15 C19 1_555 1_555
C20 N4 1_555 1_555
H16 C20 1_555 1_555
Pb2_2 I1A 1_555 1_555
I1A Pb1 1_555 1_555
I1A_2 Pb2 1_555 1_555
I2A Pb1 1_555 1_555
I2A_2 Pb2 1_555 1_555
I3A Pb1 1_555 1_555
I3A_2 Pb2 1_555 1_555
Pb2 I2 1_555 1_555
Pb2 I3 1_555 1_555
C4 C5 1_555 1_555
C5 C6 1_555 1_555
C9 C10 1_555 1_555
C14 C15 1_555 1_555
C15 C16 1_555 1_555
C19 C20 1_555 1_555
Pb2_2 I2A 1_555 1_555
Pb2_2 I3A 1_555 1_555

#END
