
#######################################################################
#
#                 Cambridge Crystallographic Data Centre
#                                CCDC 
#
#######################################################################
#
# If this CIF has been generated from an entry in the Cambridge 
# Structural Database, then it will include bibliographic, chemical, 
# crystal, experimental, refinement or atomic coordinate data resulting 
# from the CCDC's data processing and validation procedures.
#
#######################################################################

data_UNEYIW
_symmetry_cell_setting           triclinic
_symmetry_space_group_name_H-M   'P -1'
_symmetry_Int_Tables_number      2
_space_group_name_Hall           '-P 1'
loop_
_symmetry_equiv_pos_site_id
_symmetry_equiv_pos_as_xyz
1 x,y,z
2 -x,-y,-z
_cell_length_a                   8.7547(3)
_cell_length_b                   9.6918(4)
_cell_length_c                   13.6550(5)
_cell_angle_alpha                73.3320(10)
_cell_angle_beta                 74.5630(10)
_cell_angle_gamma                67.6700(10)
_cell_volume                     1010.41
loop_
_atom_site_label
_atom_site_type_symbol
_atom_site_fract_x
_atom_site_fract_y
_atom_site_fract_z
Zn1 Zn 0.48955(6) 0.46162(5) 0.26411(4)
Br1 Br 0.47829(5) 0.34231(5) 0.13789(3)
Br2 Br 0.33831(5) 0.42562(5) 0.43453(3)
N1 N 0.7391(4) 0.3984(4) 0.2698(3)
C1 C 0.8522(5) 0.4036(5) 0.1816(3)
H1 H 0.8163 0.4321 0.1182
C2 C 1.0200(5) 0.3680(5) 0.1823(3)
H2 H 1.0962 0.3744 0.1204
C3 C 1.0730(5) 0.3224(5) 0.2770(3)
H3 H 1.1858 0.2974 0.2793
C4 C 0.9570(5) 0.3142(5) 0.3684(3)
C5 C 0.7890(5) 0.3551(4) 0.3609(3)
H4 H 0.7095 0.3520 0.4215
N2 N 1.0100(4) 0.2700(4) 0.4646(3)
H5 H 1.0910 0.2967 0.4686
C6 C 0.9419(5) 0.1879(5) 0.5519(3)
O1 O 0.8327(4) 0.1379(3) 0.5535(2)
C7 C 1.0112(5) 0.1627(4) 0.6473(3)
C8 C 1.0535(5) 0.2760(5) 0.6669(3)
H6 H 1.0456 0.3672 0.6186
C9 C 1.1075(5) 0.2514(5) 0.7594(3)
H7 H 1.1333 0.3278 0.7733
C10 C 1.1234(5) 0.1156(5) 0.8309(3)
C11 C 1.0822(5) 0.0027(5) 0.8101(3)
H8 H 1.0932 -0.0897 0.8574
C12 C 1.0250(5) 0.0278(5) 0.7191(3)
H9 H 0.9955 -0.0473 0.7064
C13 C 1.1774(5) 0.1004(5) 0.9300(3)
O2 O 1.1503(5) 0.2110(3) 0.9657(2)
N3 N 1.2574(4) -0.0453(4) 0.9768(3)
H10 H 1.2688 -0.1159 0.9463
C14 C 1.3235(5) -0.0939(5) 1.0688(3)
C15 C 1.3544(5) 0.0006(5) 1.1157(3)
H11 H 1.3315 0.1041 1.0865
C16 C 1.4197(5) -0.0620(5) 1.2062(3)
H12 H 1.4402 -0.0008 1.2392
C17 C 1.4543(5) -0.2163(5) 1.2476(3)
H13 H 1.4968 -0.2573 1.3091
N4 N 1.4282(4) -0.3091(4) 1.2016(3)
C18 C 1.3629(5) -0.2480(5) 1.1151(3)
H14 H 1.3427 -0.3117 1.0840
Zn1_2 Zn 1.48955(6) -0.53838(5) 1.26411(4)
N4_2 N 0.4282(4) 0.6909(4) 0.2016(3)
O3 O 0.6487(6) 0.9382(6) 0.5825(5)
H15 H 0.6895 1.0068 0.5662
C19 C 0.4937(6) 0.9938(6) 0.5561(4)
H16 H 0.4344 1.0935 0.5731
H17 H 0.4300 0.9267 0.5959
O3A O 0.3513(6) 1.0618(6) 0.4175(5)
H15A H 0.3105 0.9932 0.4338
C19A C 0.5063(6) 1.0062(6) 0.4439(4)
H16A H 0.5656 0.9065 0.4269
H17A H 0.5700 1.0733 0.4041
loop_
_geom_bond_atom_site_label_1
_geom_bond_atom_site_label_2
_geom_bond_site_symmetry_1
_geom_bond_site_symmetry_2
Zn1 Br1 1_555 1_555
Br2 Zn1 1_555 1_555
N1 Zn1 1_555 1_555
C1 N1 1_555 1_555
H1 C1 1_555 1_555
C2 C1 1_555 1_555
H2 C2 1_555 1_555
C3 C2 1_555 1_555
H3 C3 1_555 1_555
C4 C3 1_555 1_555
C5 N1 1_555 1_555
H4 C5 1_555 1_555
N2 C4 1_555 1_555
H5 N2 1_555 1_555
C6 N2 1_555 1_555
O1 C6 1_555 1_555
C7 C6 1_555 1_555
C8 C7 1_555 1_555
H6 C8 1_555 1_555
C9 C8 1_555 1_555
H7 C9 1_555 1_555
C10 C9 1_555 1_555
C11 C10 1_555 1_555
H8 C11 1_555 1_555
C12 C7 1_555 1_555
H9 C12 1_555 1_555
C13 C10 1_555 1_555
O2 C13 1_555 1_555
N3 C13 1_555 1_555
H10 N3 1_555 1_555
C14 N3 1_555 1_555
C15 C14 1_555 1_555
H11 C15 1_555 1_555
C16 C15 1_555 1_555
H12 C16 1_555 1_555
C17 C16 1_555 1_555
H13 C17 1_555 1_555
N4 C17 1_555 1_555
C18 C14 1_555 1_555
H14 C18 1_555 1_555
O3 H15 1_555 1_555
C19 O3 1_555 1_555
H16 C19 1_555 1_555
H17 C19 1_555 1_555
Zn1_2 N4 1_555 1_555
N4_2 Zn1 1_555 1_555
O3A H15A 1_555 1_555
C19A C19 1_555 1_555
H16A C19A 1_555 1_555
H17A C19A 1_555 1_555
C4 C5 1_555 1_555
C11 C12 1_555 1_555
N4 C18 1_555 1_555
O3A C19A 1_555 1_555

#END
