
#######################################################################
#
#                 Cambridge Crystallographic Data Centre
#                                CCDC 
#
#######################################################################
#
# If this CIF has been generated from an entry in the Cambridge 
# Structural Database, then it will include bibliographic, chemical, 
# crystal, experimental, refinement or atomic coordinate data resulting 
# from the CCDC's data processing and validation procedures.
#
#######################################################################

data_UNEYAO
_symmetry_cell_setting           monoclinic
_symmetry_space_group_name_H-M   'P 21/c'
_symmetry_Int_Tables_number      14
_space_group_name_Hall           '-P 2ybc'
loop_
_symmetry_equiv_pos_site_id
_symmetry_equiv_pos_as_xyz
1 x,y,z
2 -x,1/2+y,1/2-z
3 -x,-y,-z
4 x,1/2-y,1/2+z
_cell_length_a                   16.352(4)
_cell_length_b                   7.805(2)
_cell_length_c                   17.651(5)
_cell_angle_alpha                90
_cell_angle_beta                 113.737(5)
_cell_angle_gamma                90
_cell_volume                     2062.17
loop_
_atom_site_label
_atom_site_type_symbol
_atom_site_fract_x
_atom_site_fract_y
_atom_site_fract_z
Zn1 Zn 0.85958(13) 0.2127(3) 1.07657(11)
Cl1 Cl 0.9852(3) 0.1107(6) 1.1763(3)
Cl2 Cl 0.8001(3) 0.0763(6) 0.9552(3)
N1 N 0.7638(10) 0.2436(18) 1.1202(9)
C1 C 0.7854(12) 0.276(3) 1.2027(10)
H1 H 0.8453 0.2876 1.2381
C2 C 0.7223(12) 0.293(3) 1.2344(11)
H2 H 0.7393 0.3153 1.2904
C3 C 0.6339(12) 0.276(3) 1.1832(10)
H3 H 0.5906 0.2862 1.2045
C4 C 0.6085(10) 0.2421(19) 1.0985(9)
C5 C 0.6816(12) 0.223(2) 1.0722(9)
H4 H 0.6677 0.1945 1.0172
N2 N 0.5209(9) 0.2269(19) 1.0452(8)
H5 H 0.4852 0.1771 1.0630
C6 C 0.4863(11) 0.285(2) 0.9658(11)
O1 O 0.5336(8) 0.3585(19) 0.9345(7)
C7 C 0.3881(11) 0.262(2) 0.9163(10)
C8 C 0.3275(11) 0.265(2) 0.9529(10)
H6 H 0.3471 0.2842 1.0095
C9 C 0.2375(11) 0.240(2) 0.9046(10)
H7 H 0.1963 0.2431 0.9286
C10 C 0.2093(11) 0.211(2) 0.8211(11)
H8 H 0.1489 0.1934 0.7892
C11 C 0.2681(10) 0.208(2) 0.7840(10)
C12 C 0.3600(11) 0.233(2) 0.8331(10)
H9 H 0.4012 0.2294 0.8090
C13 C 0.2420(12) 0.170(2) 0.6929(10)
O2 O 0.2982(8) 0.119(2) 0.6691(8)
N3 N 0.1568(9) 0.1955(19) 0.6423(8)
H10 H 0.1225 0.2420 0.6628
C14 C 0.1193(10) 0.152(2) 0.5590(9)
C15 C 0.0517(12) 0.246(2) 0.5014(11)
H11 H 0.0306 0.3439 0.5179
C16 C 0.0149(12) 0.198(2) 0.4194(10)
H12 H -0.0289 0.2654 0.3804
C17 C 0.0437(12) 0.049(3) 0.3956(10)
H13 H 0.0189 0.0160 0.3403
N4 N 0.1077(9) -0.0491(19) 0.4522(8)
C18 C 0.1449(10) 0.001(2) 0.5309(10)
H14 H 0.1894 -0.0668 0.5688
Zn1A Zn 0.14042(13) -0.2873(3) 0.42343(11)
N4A N 0.8923(9) 0.4509(19) 1.0478(8)
O3 O 0.5314(9) 0.492(2) 0.7907(8)
O4 O 0.4262(9) 0.451(2) 0.6245(9)
loop_
_geom_bond_atom_site_label_1
_geom_bond_atom_site_label_2
_geom_bond_site_symmetry_1
_geom_bond_site_symmetry_2
Zn1 Cl1 1_555 1_555
Cl2 Zn1 1_555 1_555
N1 Zn1 1_555 1_555
C1 N1 1_555 1_555
H1 C1 1_555 1_555
C2 C1 1_555 1_555
H2 C2 1_555 1_555
C3 C2 1_555 1_555
H3 C3 1_555 1_555
C4 C3 1_555 1_555
C5 N1 1_555 1_555
H4 C5 1_555 1_555
N2 C4 1_555 1_555
H5 N2 1_555 1_555
C6 N2 1_555 1_555
O1 C6 1_555 1_555
C7 C6 1_555 1_555
C8 C7 1_555 1_555
H6 C8 1_555 1_555
C9 C8 1_555 1_555
H7 C9 1_555 1_555
C10 C9 1_555 1_555
H8 C10 1_555 1_555
C11 C10 1_555 1_555
C12 C7 1_555 1_555
H9 C12 1_555 1_555
C13 C11 1_555 1_555
O2 C13 1_555 1_555
N3 C13 1_555 1_555
H10 N3 1_555 1_555
C14 N3 1_555 1_555
C15 C14 1_555 1_555
H11 C15 1_555 1_555
C16 C15 1_555 1_555
H12 C16 1_555 1_555
C17 C16 1_555 1_555
H13 C17 1_555 1_555
N4 C17 1_555 1_555
C18 C14 1_555 1_555
H14 C18 1_555 1_555
Zn1A N4 1_555 1_555
N4A Zn1 1_555 1_555
C4 C5 1_555 1_555
C11 C12 1_555 1_555
N4 C18 1_555 1_555

#END
