
#######################################################################
#
#                 Cambridge Crystallographic Data Centre
#                                CCDC 
#
#######################################################################
#
# If this CIF has been generated from an entry in the Cambridge 
# Structural Database, then it will include bibliographic, chemical, 
# crystal, experimental, refinement or atomic coordinate data resulting 
# from the CCDC's data processing and validation procedures.
#
#######################################################################

data_UNIGEE
_symmetry_cell_setting           cubic
_symmetry_space_group_name_H-M   'F m -3 m'
_symmetry_Int_Tables_number      225
_space_group_name_Hall           '-F 4 2 3'
loop_
_symmetry_equiv_pos_site_id
_symmetry_equiv_pos_as_xyz
1 x,y,z
2 -x,-y,z
3 -x,y,-z
4 x,-y,-z
5 z,x,y
6 z,-x,-y
7 -z,-x,y
8 -z,x,-y
9 y,z,x
10 -y,z,-x
11 y,-z,-x
12 -y,-z,x
13 y,x,-z
14 -y,-x,-z
15 y,-x,z
16 -y,x,z
17 x,z,-y
18 -x,z,y
19 -x,-z,-y
20 x,-z,y
21 z,y,-x
22 z,-y,x
23 -z,y,x
24 -z,-y,-x
25 x,1/2+y,1/2+z
26 -x,1/2-y,1/2+z
27 -x,1/2+y,1/2-z
28 x,1/2-y,1/2-z
29 z,1/2+x,1/2+y
30 z,1/2-x,1/2-y
31 -z,1/2-x,1/2+y
32 -z,1/2+x,1/2-y
33 y,1/2+z,1/2+x
34 -y,1/2+z,1/2-x
35 y,1/2-z,1/2-x
36 -y,1/2-z,1/2+x
37 y,1/2+x,1/2-z
38 -y,1/2-x,1/2-z
39 y,1/2-x,1/2+z
40 -y,1/2+x,1/2+z
41 x,1/2+z,1/2-y
42 -x,1/2+z,1/2+y
43 -x,1/2-z,1/2-y
44 x,1/2-z,1/2+y
45 z,1/2+y,1/2-x
46 z,1/2-y,1/2+x
47 -z,1/2+y,1/2+x
48 -z,1/2-y,1/2-x
49 1/2+x,y,1/2+z
50 1/2-x,-y,1/2+z
51 1/2-x,y,1/2-z
52 1/2+x,-y,1/2-z
53 1/2+z,x,1/2+y
54 1/2+z,-x,1/2-y
55 1/2-z,-x,1/2+y
56 1/2-z,x,1/2-y
57 1/2+y,z,1/2+x
58 1/2-y,z,1/2-x
59 1/2+y,-z,1/2-x
60 1/2-y,-z,1/2+x
61 1/2+y,x,1/2-z
62 1/2-y,-x,1/2-z
63 1/2+y,-x,1/2+z
64 1/2-y,x,1/2+z
65 1/2+x,z,1/2-y
66 1/2-x,z,1/2+y
67 1/2-x,-z,1/2-y
68 1/2+x,-z,1/2+y
69 1/2+z,y,1/2-x
70 1/2+z,-y,1/2+x
71 1/2-z,y,1/2+x
72 1/2-z,-y,1/2-x
73 1/2+x,1/2+y,z
74 1/2-x,1/2-y,z
75 1/2-x,1/2+y,-z
76 1/2+x,1/2-y,-z
77 1/2+z,1/2+x,y
78 1/2+z,1/2-x,-y
79 1/2-z,1/2-x,y
80 1/2-z,1/2+x,-y
81 1/2+y,1/2+z,x
82 1/2-y,1/2+z,-x
83 1/2+y,1/2-z,-x
84 1/2-y,1/2-z,x
85 1/2+y,1/2+x,-z
86 1/2-y,1/2-x,-z
87 1/2+y,1/2-x,z
88 1/2-y,1/2+x,z
89 1/2+x,1/2+z,-y
90 1/2-x,1/2+z,y
91 1/2-x,1/2-z,-y
92 1/2+x,1/2-z,y
93 1/2+z,1/2+y,-x
94 1/2+z,1/2-y,x
95 1/2-z,1/2+y,x
96 1/2-z,1/2-y,-x
97 -x,-y,-z
98 x,y,-z
99 x,-y,z
100 -x,y,z
101 -z,-x,-y
102 -z,x,y
103 z,x,-y
104 z,-x,y
105 -y,-z,-x
106 y,-z,x
107 -y,z,x
108 y,z,-x
109 -y,-x,z
110 y,x,z
111 -y,x,-z
112 y,-x,-z
113 -x,-z,y
114 x,-z,-y
115 x,z,y
116 -x,z,-y
117 -z,-y,x
118 -z,y,-x
119 z,-y,-x
120 z,y,x
121 -x,1/2-y,1/2-z
122 x,1/2+y,1/2-z
123 x,1/2-y,1/2+z
124 -x,1/2+y,1/2+z
125 -z,1/2-x,1/2-y
126 -z,1/2+x,1/2+y
127 z,1/2+x,1/2-y
128 z,1/2-x,1/2+y
129 -y,1/2-z,1/2-x
130 y,1/2-z,1/2+x
131 -y,1/2+z,1/2+x
132 y,1/2+z,1/2-x
133 -y,1/2-x,1/2+z
134 y,1/2+x,1/2+z
135 -y,1/2+x,1/2-z
136 y,1/2-x,1/2-z
137 -x,1/2-z,1/2+y
138 x,1/2-z,1/2-y
139 x,1/2+z,1/2+y
140 -x,1/2+z,1/2-y
141 -z,1/2-y,1/2+x
142 -z,1/2+y,1/2-x
143 z,1/2-y,1/2-x
144 z,1/2+y,1/2+x
145 1/2-x,-y,1/2-z
146 1/2+x,y,1/2-z
147 1/2+x,-y,1/2+z
148 1/2-x,y,1/2+z
149 1/2-z,-x,1/2-y
150 1/2-z,x,1/2+y
151 1/2+z,x,1/2-y
152 1/2+z,-x,1/2+y
153 1/2-y,-z,1/2-x
154 1/2+y,-z,1/2+x
155 1/2-y,z,1/2+x
156 1/2+y,z,1/2-x
157 1/2-y,-x,1/2+z
158 1/2+y,x,1/2+z
159 1/2-y,x,1/2-z
160 1/2+y,-x,1/2-z
161 1/2-x,-z,1/2+y
162 1/2+x,-z,1/2-y
163 1/2+x,z,1/2+y
164 1/2-x,z,1/2-y
165 1/2-z,-y,1/2+x
166 1/2-z,y,1/2-x
167 1/2+z,-y,1/2-x
168 1/2+z,y,1/2+x
169 1/2-x,1/2-y,-z
170 1/2+x,1/2+y,-z
171 1/2+x,1/2-y,z
172 1/2-x,1/2+y,z
173 1/2-z,1/2-x,-y
174 1/2-z,1/2+x,y
175 1/2+z,1/2+x,-y
176 1/2+z,1/2-x,y
177 1/2-y,1/2-z,-x
178 1/2+y,1/2-z,x
179 1/2-y,1/2+z,x
180 1/2+y,1/2+z,-x
181 1/2-y,1/2-x,z
182 1/2+y,1/2+x,z
183 1/2-y,1/2+x,-z
184 1/2+y,1/2-x,-z
185 1/2-x,1/2-z,y
186 1/2+x,1/2-z,-y
187 1/2+x,1/2+z,y
188 1/2-x,1/2+z,-y
189 1/2-z,1/2-y,x
190 1/2-z,1/2+y,-x
191 1/2+z,1/2-y,-x
192 1/2+z,1/2+y,x
_cell_length_a                   25.6572(5)
_cell_length_b                   25.6572(5)
_cell_length_c                   25.6572(5)
_cell_angle_alpha                90
_cell_angle_beta                 90
_cell_angle_gamma                90
_cell_volume                     16889.9
loop_
_atom_site_label
_atom_site_type_symbol
_atom_site_fract_x
_atom_site_fract_y
_atom_site_fract_z
Zn1 Zn 0.206317(16) -0.206317(16) 0.206317(16)
O1 O 0.2500 -0.2500 0.2500
O2 O 0.21778(13) -0.13365(10) 0.21778(10)
C1 C 0.21696(18) -0.02603(15) 0.21696(15)
H1 H 0.1943 -0.0445 0.1943
C2 C 0.2500(2) -0.0532 0.2500
C3 C 0.2500(2) -0.1116 0.2500
Zn1XA Zn 0.293683(16) -0.206317(16) 0.293683(16)
Zn1O Zn 0.206317(16) 0.206317(16) 0.206317(16)
Zn1HB Zn 0.293683(16) 0.206317(16) 0.293683(16)
Zn1AA Zn 0.206317(16) -0.293683(16) 0.293683(16)
Zn1UB Zn 0.293683(16) -0.293683(16) 0.206317(16)
Zn1N Zn -0.206317(16) -0.206317(16) 0.206317(16)
Zn1JA Zn -0.206317(16) -0.293683(16) 0.293683(16)
Zn1M Zn 0.206317(16) -0.206317(16) -0.206317(16)
Zn1FC Zn 0.293683(16) -0.293683(16) -0.206317(16)
Zn1KA Zn 0.206317(16) 0.293683(16) 0.293683(16)
Zn1HC Zn 0.293683(16) 0.293683(16) 0.206317(16)
Zn1IB Zn 0.706317(16) -0.206317(16) 0.293683(16)
Zn1IC Zn 0.706317(16) -0.293683(16) 0.206317(16)
Zn1MA Zn 0.206317(16) -0.293683(16) 0.706317(16)
Zn1JB Zn 0.293683(16) -0.206317(16) 0.706317(16)
Zn1C Zn 0.206317(16) 0.206317(16) -0.206317(16)
Zn1VB Zn 0.293683(16) 0.293683(16) -0.206317(16)
O1O O 0.2500 0.2500 0.2500
O1N O -0.2500 -0.2500 0.2500
O1M O 0.2500 -0.2500 -0.2500
O2XA O 0.28222(13) -0.13365(10) 0.28222(10)
O2U O 0.21778(10) 0.13365(10) 0.21778(13)
O2SB O 0.28222(10) 0.13365(10) 0.28222(13)
O2K O 0.13365(10) -0.21778(10) 0.21778(13)
O2GA O 0.13365(10) -0.28222(10) 0.28222(13)
O2N O -0.13365(10) -0.21778(13) 0.21778(10)
O2JA O -0.13365(10) -0.28222(13) 0.28222(10)
O2E O 0.21778(10) -0.21778(13) 0.13365(10)
O2AC O 0.28222(10) -0.28222(13) 0.13365(10)
O2S O 0.21778(13) -0.21778(10) -0.13365(10)
O2KC O 0.28222(13) -0.28222(10) -0.13365(10)
O2FB O 0.36635(10) -0.21778(10) 0.28222(13)
O2BB O 0.28222(10) -0.21778(13) 0.36635(10)
O2P O 0.21778(13) 0.21778(10) 0.13365(10)
O2O O 0.13365(10) 0.21778(13) 0.21778(10)
O2MB O 0.28222(13) 0.21778(10) 0.36635(10)
O2HB O 0.36635(10) 0.21778(13) 0.28222(10)
O2AA O 0.21778(13) -0.36635(10) 0.28222(10)
O2BA O 0.21778(10) -0.28222(13) 0.36635(10)
O2UB O 0.28222(13) -0.36635(10) 0.21778(10)
O2BC O 0.36635(10) -0.28222(10) 0.21778(13)
O2R O -0.21778(13) -0.21778(10) 0.13365(10)
O2V O -0.21778(10) -0.13365(10) 0.21778(13)
O2M O 0.13365(10) -0.21778(13) -0.21778(10)
O2T O 0.21778(10) -0.13365(10) -0.21778(13)
O2LC O 0.28222(13) 0.28222(10) 0.13365(10)
O2IB O 0.63365(10) -0.21778(13) 0.28222(10)
O2IC O 0.63365(10) -0.28222(13) 0.21778(10)
O2NA O 0.21778(13) -0.28222(10) 0.63365(10)
O2NB O 0.28222(13) -0.21778(10) 0.63365(10)
O2D O 0.21778(10) 0.21778(13) -0.13365(10)
O2ZB O 0.28222(10) 0.28222(13) -0.13365(10)
C1U C 0.21696(15) 0.02603(15) 0.21696(18)
C1SB C 0.28304(15) 0.02603(15) 0.28304(18)
C1XA C 0.28304(18) -0.02603(15) 0.28304(15)
C1K C 0.02603(15) -0.21696(15) 0.21696(18)
C1N C -0.02603(15) -0.21696(18) 0.21696(15)
C1JA C -0.02603(15) -0.28304(18) 0.28304(15)
C1GA C 0.02603(15) -0.28304(15) 0.28304(18)
C1E C 0.21696(15) -0.21696(18) 0.02603(15)
C1S C 0.21696(18) -0.21696(15) -0.02603(15)
C1KC C 0.28304(18) -0.28304(15) -0.02603(15)
C1AC C 0.28304(15) -0.28304(18) 0.02603(15)
C1FB C 0.47397(15) -0.21696(15) 0.28304(18)
C1BC C 0.47397(15) -0.28304(15) 0.21696(18)
C1BA C 0.21696(15) -0.28304(18) 0.47397(15)
C1BB C 0.28304(15) -0.21696(18) 0.47397(15)
C1P C 0.21696(18) 0.21696(15) 0.02603(15)
C1LC C 0.28304(18) 0.28304(15) 0.02603(15)
C1IB C 0.52603(15) -0.21696(18) 0.28304(15)
C1IC C 0.52603(15) -0.28304(18) 0.21696(15)
C1NA C 0.21696(18) -0.28304(15) 0.52603(15)
C1NB C 0.28304(18) -0.21696(15) 0.52603(15)
C1D C 0.21696(15) 0.21696(18) -0.02603(15)
C1ZB C 0.28304(15) 0.28304(18) -0.02603(15)
H1U H 0.1943 0.0445 0.1943
H1SB H 0.3057 0.0445 0.3057
H1XA H 0.3057 -0.0445 0.3057
H1K H 0.0445 -0.1943 0.1943
H1N H -0.0445 -0.1943 0.1943
H1JA H -0.0445 -0.3057 0.3057
H1GA H 0.0445 -0.3057 0.3057
H1E H 0.1943 -0.1943 0.0445
H1S H 0.1943 -0.1943 -0.0445
H1KC H 0.3057 -0.3057 -0.0445
H1AC H 0.3057 -0.3057 0.0445
H1FB H 0.4555 -0.1943 0.3057
H1BC H 0.4555 -0.3057 0.1943
H1BA H 0.1943 -0.3057 0.4555
H1BB H 0.3057 -0.1943 0.4555
H1P H 0.1943 0.1943 0.0445
H1LC H 0.3057 0.3057 0.0445
H1IB H 0.5445 -0.1943 0.3057
H1IC H 0.5445 -0.3057 0.1943
H1NA H 0.1943 -0.3057 0.5445
H1NB H 0.3057 -0.1943 0.5445
H1D H 0.1943 0.1943 -0.0445
H1ZB H 0.3057 0.3057 -0.0445
C2U C 0.2500 0.0532 0.2500(2)
C2K C 0.0532 -0.2500 0.2500(2)
C2N C -0.0532 -0.2500(2) 0.2500
C2E C 0.2500 -0.2500(2) 0.0532
C2S C 0.2500(2) -0.2500 -0.0532
C2FB C 0.4468 -0.2500 0.2500(2)
C2BA C 0.2500 -0.2500(2) 0.4468
C2P C 0.2500(2) 0.2500 0.0532
C2IB C 0.5532 -0.2500(2) 0.2500
C2NA C 0.2500(2) -0.2500 0.5532
C2D C 0.2500 0.2500(2) -0.0532
C3U C 0.2500 0.1116 0.2500(2)
C3K C 0.1116 -0.2500 0.2500(2)
C3N C -0.1116 -0.2500(2) 0.2500
C3E C 0.2500 -0.2500(2) 0.1116
C3S C 0.2500(2) -0.2500 -0.1116
C3FB C 0.3884 -0.2500 0.2500(2)
C3BA C 0.2500 -0.2500(2) 0.3884
C3P C 0.2500(2) 0.2500 0.1116
C3IB C 0.6116 -0.2500(2) 0.2500
C3NA C 0.2500(2) -0.2500 0.6116
C3D C 0.2500 0.2500(2) -0.1116
loop_
_geom_bond_atom_site_label_1
_geom_bond_atom_site_label_2
_geom_bond_site_symmetry_1
_geom_bond_site_symmetry_2
Zn1 O1 1_555 1_555
O1 Zn1XA 1_555 1_555
O2 Zn1 1_555 1_555
C1 H1 1_555 1_555
C2 C1 1_555 1_555
C3 O2 1_555 1_555
Zn1XA O2XA 1_555 1_555
Zn1O O1O 1_555 1_555
Zn1HB O1O 1_555 1_555
Zn1AA O1 1_555 1_555
Zn1UB O1 1_555 1_555
Zn1N O1N 1_555 1_555
Zn1JA O1N 1_555 1_555
Zn1M O1M 1_555 1_555
Zn1FC O1M 1_555 1_555
Zn1KA O1O 1_555 1_555
Zn1HC O1O 1_555 1_555
Zn1IB O2IB 1_555 1_555
Zn1IC O2IC 1_555 1_555
Zn1MA O2NA 1_555 1_555
Zn1JB O2NB 1_555 1_555
Zn1C O2D 1_555 1_555
Zn1VB O2ZB 1_555 1_555
O2XA C3 1_555 1_555
O2U Zn1O 1_555 1_555
O2SB Zn1HB 1_555 1_555
O2K Zn1 1_555 1_555
O2GA Zn1AA 1_555 1_555
O2N Zn1N 1_555 1_555
O2JA Zn1JA 1_555 1_555
O2E Zn1 1_555 1_555
O2AC Zn1UB 1_555 1_555
O2S Zn1M 1_555 1_555
O2KC Zn1FC 1_555 1_555
O2FB Zn1XA 1_555 1_555
O2BB Zn1XA 1_555 1_555
O2P Zn1O 1_555 1_555
O2O Zn1O 1_555 1_555
O2MB Zn1HB 1_555 1_555
O2HB Zn1HB 1_555 1_555
O2AA Zn1AA 1_555 1_555
O2BA Zn1AA 1_555 1_555
O2UB Zn1UB 1_555 1_555
O2BC Zn1UB 1_555 1_555
O2R Zn1N 1_555 1_555
O2V Zn1N 1_555 1_555
O2M Zn1M 1_555 1_555
O2T Zn1M 1_555 1_555
O2LC Zn1HC 1_555 1_555
O2IB C3IB 1_555 1_555
O2IC C3IB 1_555 1_555
O2NA C3NA 1_555 1_555
O2NB C3NA 1_555 1_555
O2D C3D 1_555 1_555
O2ZB C3D 1_555 1_555
C1U C1 1_555 1_555
C1SB C1XA 1_555 1_555
C1XA C2 1_555 1_555
C1K C1N 1_555 1_555
C1N H1N 1_555 1_555
C1JA C1GA 1_555 1_555
C1GA H1GA 1_555 1_555
C1E C1S 1_555 1_555
C1S H1S 1_555 1_555
C1KC C1AC 1_555 1_555
C1AC H1AC 1_555 1_555
C1FB C1IB 1_555 1_555
C1BC C1IC 1_555 1_555
C1BA C1NA 1_555 1_555
C1BB C1NB 1_555 1_555
C1P C1D 1_555 1_555
C1LC C1ZB 1_555 1_555
C1IB H1IB 1_555 1_555
C1IC H1IC 1_555 1_555
C1NA H1NA 1_555 1_555
C1NB H1NB 1_555 1_555
C1D H1D 1_555 1_555
C1ZB H1ZB 1_555 1_555
H1U C1U 1_555 1_555
H1SB C1SB 1_555 1_555
H1XA C1XA 1_555 1_555
H1K C1K 1_555 1_555
H1JA C1JA 1_555 1_555
H1E C1E 1_555 1_555
H1KC C1KC 1_555 1_555
H1FB C1FB 1_555 1_555
H1BC C1BC 1_555 1_555
H1BA C1BA 1_555 1_555
H1BB C1BB 1_555 1_555
H1P C1P 1_555 1_555
H1LC C1LC 1_555 1_555
C2U C1U 1_555 1_555
C2K C1K 1_555 1_555
C2N C1N 1_555 1_555
C2E C1E 1_555 1_555
C2S C1S 1_555 1_555
C2FB C1FB 1_555 1_555
C2BA C1BA 1_555 1_555
C2P C1P 1_555 1_555
C2IB C1IB 1_555 1_555
C2NA C1NA 1_555 1_555
C2D C1D 1_555 1_555
C3U O2U 1_555 1_555
C3K O2K 1_555 1_555
C3N O2N 1_555 1_555
C3E O2E 1_555 1_555
C3S O2S 1_555 1_555
C3FB O2FB 1_555 1_555
C3BA O2BB 1_555 1_555
C3P O2P 1_555 1_555
C3IB C2IB 1_555 1_555
C3NA C2NA 1_555 1_555
C3D C2D 1_555 1_555
C2 C3 1_555 1_555
O2SB C3U 1_555 1_555
O2GA C3K 1_555 1_555
O2JA C3N 1_555 1_555
O2AC C3E 1_555 1_555
O2KC C3S 1_555 1_555
O2BA C3BA 1_555 1_555
O2BC C3FB 1_555 1_555
O2LC C3P 1_555 1_555
C1SB C2U 1_555 1_555
C1JA C2N 1_555 1_555
C1GA C2K 1_555 1_555
C1KC C2S 1_555 1_555
C1AC C2E 1_555 1_555
C1BC C2FB 1_555 1_555
C1BB C2BA 1_555 1_555
C1LC C2P 1_555 1_555
C1IC C2IB 1_555 1_555
C1NB C2NA 1_555 1_555
C1ZB C2D 1_555 1_555
C2U C3U 1_555 1_555
C2K C3K 1_555 1_555
C2N C3N 1_555 1_555
C2E C3E 1_555 1_555
C2S C3S 1_555 1_555
C2FB C3FB 1_555 1_555
C2BA C3BA 1_555 1_555
C2P C3P 1_555 1_555

#END
