
#######################################################################
#
#                 Cambridge Crystallographic Data Centre
#                                CCDC 
#
#######################################################################
#
# If this CIF has been generated from an entry in the Cambridge 
# Structural Database, then it will include bibliographic, chemical, 
# crystal, experimental, refinement or atomic coordinate data resulting 
# from the CCDC's data processing and validation procedures.
#
#######################################################################

data_UNINUB
_symmetry_cell_setting           triclinic
_symmetry_space_group_name_H-M   'P -1'
_symmetry_Int_Tables_number      2
_space_group_name_Hall           '-P 1'
loop_
_symmetry_equiv_pos_site_id
_symmetry_equiv_pos_as_xyz
1 x,y,z
2 -x,-y,-z
_cell_length_a                   7.7519(8)
_cell_length_b                   9.2376(8)
_cell_length_c                   12.0934(10)
_cell_angle_alpha                80.994(7)
_cell_angle_beta                 82.035(8)
_cell_angle_gamma                85.377(8)
_cell_volume                     845.531
loop_
_atom_site_label
_atom_site_type_symbol
_atom_site_fract_x
_atom_site_fract_y
_atom_site_fract_z
Cd1 Cd 0.25346(3) 0.34900(3) -0.059083(19)
C1 C 0.5173(5) 0.2530(4) 0.1048(3)
C2 C 0.6063(4) 0.2414(4) 0.2085(2)
C3 C 0.5147(4) 0.2167(4) 0.3139(3)
H1 H 0.3936 0.2172 0.3210
C4 C 0.5976(5) 0.1907(4) 0.4117(3)
C5 C 0.5031(5) 0.1673(4) 0.5221(3)
H2 H 0.3819 0.1680 0.5311
C6 C 0.5908(7) 0.1436(5) 0.6155(3)
H3 H 0.5274 0.1323 0.6872
C7 C 0.7725(7) 0.1364(4) 0.6050(3)
H4 H 0.8297 0.1186 0.6689
C8 C 0.8663(5) 0.1557(4) 0.4993(3)
H5 H 0.9876 0.1502 0.4921
C9 C 0.7811(5) 0.1839(4) 0.4010(2)
C10 C 0.8743(4) 0.2121(4) 0.2918(2)
H6 H 0.9955 0.2090 0.2837
C11 C 0.7917(4) 0.2435(3) 0.1984(2)
C12 C 0.8916(5) 0.3015(4) 0.0860(3)
C13 C 0.2609(4) 0.4266(4) -0.3269(2)
H7 H 0.3801 0.4128 -0.3227
C14 C 0.2050(4) 0.4598(4) -0.4318(2)
H8 H 0.2872 0.4681 -0.4959
C15 C 0.0320(4) 0.4809(4) -0.4437(2)
C16 C -0.0831(4) 0.4686(4) -0.3442(2)
H9 H -0.2027 0.4834 -0.3463
C17 C -0.0175(5) 0.4338(4) -0.2416(3)
H10 H -0.0968 0.4244 -0.1761
N1 N 0.1510(4) 0.4132(3) -0.2310(2)
O1 O 0.3865(3) 0.3439(3) 0.09636(17)
O2 O 0.5742(3) 0.1702(3) 0.03344(18)
O3 O 0.8262(3) 0.4083(3) 0.02619(16)
O4 O 1.0414(3) 0.2392(3) 0.06155(17)
H11 H 0.5761 0.3203 -0.1100
H12 H 0.5519 0.4794 -0.1435
O5 O 0.2884(3) 0.1184(2) -0.12241(16)
H13 H 0.3400 0.0450 -0.0863
H14 H 0.2145 0.0862 -0.1570
O6 O 0.5387(3) 0.3913(3) -0.15550(16)
Cd1A Cd -0.25346(3) 0.65100(3) -0.940917(19)
Cd1A_2 Cd 0.74654(3) 0.65100(3) 0.059083(19)
Cd1_2 Cd 1.25346(3) 0.34900(3) -0.059083(19)
Cd1_3 Cd -0.74654(3) 0.34900(3) -1.059083(19)
Cd1A_3 Cd -1.25346(3) 0.65100(3) -0.940917(19)
C1A C -0.5173(5) 0.7470(4) -1.1048(3)
C2A C -0.6063(4) 0.7586(4) -1.2085(2)
C3A C -0.5147(4) 0.7833(4) -1.3139(3)
H1A H -0.3936 0.7828 -1.3210
C4A C -0.5976(5) 0.8093(4) -1.4117(3)
C5A C -0.5031(5) 0.8327(4) -1.5221(3)
H2A H -0.3819 0.8320 -1.5311
C6A C -0.5908(7) 0.8564(5) -1.6155(3)
H3A H -0.5274 0.8677 -1.6872
C7A C -0.7725(7) 0.8636(4) -1.6050(3)
H4A H -0.8297 0.8814 -1.6689
C8A C -0.8663(5) 0.8443(4) -1.4993(3)
H5A H -0.9876 0.8498 -1.4921
C9A C -0.7811(5) 0.8161(4) -1.4010(2)
C10A C -0.8743(4) 0.7879(4) -1.2918(2)
H6A H -0.9955 0.7910 -1.2837
C11A C -0.7917(4) 0.7565(3) -1.1984(2)
C12A C -0.8916(5) 0.6985(4) -1.0860(3)
C13A C -0.2609(4) 0.5734(4) -0.6731(2)
H7A H -0.3801 0.5872 -0.6773
C14A C -0.2050(4) 0.5402(4) -0.5682(2)
H8A H -0.2872 0.5319 -0.5041
C15A C -0.0320(4) 0.5191(4) -0.5563(2)
C16A C 0.0831(4) 0.5314(4) -0.6558(2)
H9A H 0.2027 0.5166 -0.6537
C17A C 0.0175(5) 0.5662(4) -0.7584(3)
H10A H 0.0968 0.5756 -0.8239
N1A N -0.1510(4) 0.5868(3) -0.7690(2)
O1A O -0.3865(3) 0.6561(3) -1.09636(17)
O2A O -0.5742(3) 0.8298(3) -1.03344(18)
O3A O 0.1738(3) 0.5917(3) -0.02619(16)
O3_2 O -0.1738(3) 0.4083(3) -0.97381(16)
O3A_2 O -0.8262(3) 0.5917(3) -1.02619(16)
O4_2 O 0.0414(3) 0.2392(3) 0.06155(17)
O4A O -0.0414(3) 0.7608(3) -1.06155(17)
O4A_2 O -1.0414(3) 0.7608(3) -1.06155(17)
H11A H -0.5761 0.6797 -0.8900
H12A H -0.5519 0.5206 -0.8565
O5A O -0.2884(3) 0.8816(2) -0.87759(16)
H13A H -0.3400 0.9550 -0.9137
H14A H -0.2145 0.9138 -0.8430
O6A O -0.5387(3) 0.6087(3) -0.84450(16)
O7 O 0.0662(3) 0.9333(3) 0.13566(18)
H15 H 0.0676 1.0246 0.1112
H16 H 0.1459 0.8965 0.0908
loop_
_geom_bond_atom_site_label_1
_geom_bond_atom_site_label_2
_geom_bond_site_symmetry_1
_geom_bond_site_symmetry_2
Cd1 N1 1_555 1_555
C1 C2 1_555 1_555
C2 C3 1_555 1_555
C3 H1 1_555 1_555
C4 C3 1_555 1_555
C5 C4 1_555 1_555
H2 C5 1_555 1_555
C6 C5 1_555 1_555
H3 C6 1_555 1_555
C7 C6 1_555 1_555
H4 C7 1_555 1_555
C8 C7 1_555 1_555
H5 C8 1_555 1_555
C9 C4 1_555 1_555
C10 C9 1_555 1_555
H6 C10 1_555 1_555
C11 C2 1_555 1_555
C12 C11 1_555 1_555
C13 H7 1_555 1_555
C14 C13 1_555 1_555
H8 C14 1_555 1_555
C15 C14 1_555 1_555
C16 C15 1_555 1_555
H9 C16 1_555 1_555
C17 C16 1_555 1_555
H10 C17 1_555 1_555
N1 C13 1_555 1_555
O1 Cd1 1_555 1_555
O2 C1 1_555 1_555
O3 C12 1_555 1_555
O4 C12 1_555 1_555
H11 O6 1_555 1_555
H12 O6 1_555 1_555
O5 Cd1 1_555 1_555
H13 O5 1_555 1_555
H14 O5 1_555 1_555
O6 Cd1 1_555 1_555
O7 H15 1_555 1_555
H16 O7 1_555 1_555
Cd1A N1A 1_555 1_555
Cd1A_2 O3 1_555 1_555
Cd1_2 O4 1_555 1_555
Cd1_3 O3A_2 1_555 1_555
Cd1A_3 O4A_2 1_555 1_555
C1A C2A 1_555 1_555
C2A C3A 1_555 1_555
C3A H1A 1_555 1_555
C4A C3A 1_555 1_555
C5A C4A 1_555 1_555
H2A C5A 1_555 1_555
C6A C5A 1_555 1_555
H3A C6A 1_555 1_555
C7A C6A 1_555 1_555
H4A C7A 1_555 1_555
C8A C7A 1_555 1_555
H5A C8A 1_555 1_555
C9A C4A 1_555 1_555
C10A C9A 1_555 1_555
H6A C10A 1_555 1_555
C11A C2A 1_555 1_555
C12A C11A 1_555 1_555
C13A H7A 1_555 1_555
C14A C13A 1_555 1_555
H8A C14A 1_555 1_555
C15A C15 1_555 1_555
C16A C15A 1_555 1_555
H9A C16A 1_555 1_555
C17A C16A 1_555 1_555
H10A C17A 1_555 1_555
N1A C13A 1_555 1_555
O1A Cd1A 1_555 1_555
O2A C1A 1_555 1_555
O3A Cd1 1_555 1_555
O3_2 Cd1A 1_555 1_555
O3A_2 C12A 1_555 1_555
O4_2 Cd1 1_555 1_555
O4A Cd1A 1_555 1_555
O4A_2 C12A 1_555 1_555
H11A O6A 1_555 1_555
H12A O6A 1_555 1_555
O5A Cd1A 1_555 1_555
H13A O5A 1_555 1_555
H14A O5A 1_555 1_555
O6A Cd1A 1_555 1_555
C1 O1 1_555 1_555
C8 C9 1_555 1_555
C10 C11 1_555 1_555
C17 N1 1_555 1_555
C1A O1A 1_555 1_555
C8A C9A 1_555 1_555
C10A C11A 1_555 1_555
C14A C15A 1_555 1_555
C17A N1A 1_555 1_555

#END
