
#######################################################################
#
#                 Cambridge Crystallographic Data Centre
#                                CCDC 
#
#######################################################################
#
# If this CIF has been generated from an entry in the Cambridge 
# Structural Database, then it will include bibliographic, chemical, 
# crystal, experimental, refinement or atomic coordinate data resulting 
# from the CCDC's data processing and validation procedures.
#
#######################################################################

data_UNINOV
_symmetry_cell_setting           triclinic
_symmetry_space_group_name_H-M   'P -1'
_symmetry_Int_Tables_number      2
_space_group_name_Hall           '-P 1'
loop_
_symmetry_equiv_pos_site_id
_symmetry_equiv_pos_as_xyz
1 x,y,z
2 -x,-y,-z
_cell_length_a                   10.8176(6)
_cell_length_b                   13.6803(6)
_cell_length_c                   14.8358(8)
_cell_angle_alpha                79.974(4)
_cell_angle_beta                 83.661(4)
_cell_angle_gamma                67.607(4)
_cell_volume                     1996.62
loop_
_atom_site_label
_atom_site_type_symbol
_atom_site_fract_x
_atom_site_fract_y
_atom_site_fract_z
Cd1 Cd 0.92453(3) 1.00537(3) 0.11508(2)
Cd2 Cd 0.95425(3) 0.95164(3) 0.38730(2)
C1 C 1.1677(4) 0.8072(4) 0.0363(3)
C2 C 1.2726(4) 0.7408(3) 0.1065(3)
C3 C 1.3832(4) 0.6657(3) 0.0734(3)
H1 H 1.3885 0.6587 0.0117
C4 C 1.4902(4) 0.5981(4) 0.1276(3)
C5 C 1.6060(4) 0.5217(4) 0.0923(4)
H2 H 1.6139 0.5165 0.0301
C6 C 1.7063(5) 0.4553(4) 0.1469(4)
H3 H 1.7814 0.4043 0.1228
C7 C 1.6948(5) 0.4651(4) 0.2383(4)
H4 H 1.7637 0.4201 0.2757
C8 C 1.5865(5) 0.5381(4) 0.2760(4)
H5 H 1.5821 0.5418 0.3384
C9 C 1.4803(4) 0.6087(4) 0.2211(3)
C10 C 1.3667(4) 0.6884(4) 0.2547(3)
H6 H 1.3613 0.6968 0.3161
C11 C 1.2635(4) 0.7541(3) 0.2006(3)
C12 C 1.1401(4) 0.8282(4) 0.2470(3)
C13 C 1.0021(4) 1.1204(4) 0.2252(3)
C14 C 1.0320(4) 1.2110(3) 0.2491(3)
C15 C 1.0483(4) 1.2836(4) 0.1759(3)
H7 H 1.0466 1.2706 0.1167
C16 C 1.0672(4) 1.3755(4) 0.1880(3)
C17 C 1.0872(4) 1.4492(4) 0.1135(4)
H8 H 1.0866 1.4369 0.0539
C18 C 1.1074(5) 1.5374(4) 0.1273(4)
H9 H 1.1207 1.5845 0.0774
C19 C 1.1084(6) 1.5575(5) 0.2156(5)
H10 H 1.1224 1.6181 0.2245
C20 C 1.0889(6) 1.4890(5) 0.2898(4)
H11 H 1.0885 1.5037 0.3487
C21 C 1.0692(4) 1.3956(4) 0.2773(3)
C22 C 1.0511(4) 1.3223(4) 0.3522(3)
H12 H 1.0515 1.3356 0.4115
C23 C 1.0331(4) 1.2318(4) 0.3393(3)
C24 C 1.0277(5) 1.1528(5) 0.4238(4)
C25 C 0.6489(5) 1.2060(4) 0.1723(3)
H13 H 0.7110 1.2341 0.1828
C26 C 0.5137(5) 1.2685(4) 0.1817(4)
H14 H 0.4864 1.3372 0.1966
C27 C 0.4223(5) 1.2269(5) 0.1688(4)
H15 H 0.3313 1.2672 0.1748
C28 C 0.4651(5) 1.1233(5) 0.1465(3)
C29 C 0.3750(5) 1.0722(5) 0.1352(4)
H16 H 0.2832 1.1092 0.1414
C30 C 0.4212(5) 0.9724(6) 0.1158(4)
H17 H 0.3603 0.9415 0.1089
C31 C 0.5614(5) 0.9113(5) 0.1051(3)
C32 C 0.6141(6) 0.8071(5) 0.0868(4)
H18 H 0.5568 0.7726 0.0809
C33 C 0.7485(6) 0.7545(5) 0.0774(4)
H19 H 0.7835 0.6841 0.0661
C34 C 0.8327(5) 0.8075(4) 0.0849(4)
H20 H 0.9245 0.7714 0.0772
C35 C 0.6534(4) 0.9587(4) 0.1140(3)
C36 C 0.6044(4) 1.0657(4) 0.1366(3)
C37 C 0.6924(5) 1.1639(5) 0.4425(4)
H21 H 0.7590 1.1840 0.4588
C38 C 0.5603(6) 1.2357(5) 0.4459(4)
H22 H 0.5397 1.3031 0.4619
C39 C 0.4627(6) 1.2051(6) 0.4254(4)
H23 H 0.3739 1.2518 0.4277
C40 C 0.4943(5) 1.1047(5) 0.4009(4)
C41 C 0.3944(6) 1.0661(7) 0.3822(4)
H24 H 0.3042 1.1090 0.3870
C42 C 0.4305(7) 0.9692(7) 0.3582(4)
H25 H 0.3644 0.9467 0.3449
C43 C 0.5670(6) 0.8992(6) 0.3521(4)
C44 C 0.6097(8) 0.7962(7) 0.3281(4)
H26 H 0.5472 0.7702 0.3143
C45 C 0.7402(8) 0.7354(6) 0.3248(4)
H27 H 0.7687 0.6664 0.3105
C46 C 0.8336(7) 0.7769(5) 0.3433(4)
H28 H 0.9242 0.7347 0.3398
C47 C 0.6671(5) 0.9349(5) 0.3710(3)
C48 C 0.6293(5) 1.0384(5) 0.3969(3)
N1 N 0.6941(3) 1.1094(3) 0.1492(3)
N2 N 0.7885(3) 0.9066(3) 0.1026(3)
N3 N 0.7273(4) 1.0689(4) 0.4174(3)
N4 N 0.7973(4) 0.8739(4) 0.3654(3)
O1 O 1.1250(3) 0.9096(3) 0.0319(2)
O2 O 1.1398(3) 0.7588(3) -0.0152(2)
O3 O 1.0281(3) 0.8507(2) 0.2127(2)
O4 O 1.1527(3) 0.8591(3) 0.3180(2)
O5 O 0.9113(3) 1.0942(3) 0.2712(2)
O6 O 1.0603(3) 1.0812(3) 0.1551(2)
O7 O 1.0746(3) 1.0551(3) 0.4207(2)
O8 O 0.9786(4) 1.1935(3) 0.4963(2)
Cd1A Cd 1.07547(3) 0.99463(3) -0.11508(2)
Cd2A Cd 1.04575(3) 1.04836(3) 0.61270(2)
O1A O 0.8750(3) 1.0904(3) -0.0319(2)
O8A O 1.0214(4) 0.8065(3) 0.5037(2)
loop_
_geom_bond_atom_site_label_1
_geom_bond_atom_site_label_2
_geom_bond_site_symmetry_1
_geom_bond_site_symmetry_2
Cd1 N1 1_555 1_555
Cd2 N3 1_555 1_555
C1 C2 1_555 1_555
C2 C3 1_555 1_555
C3 H1 1_555 1_555
C4 C3 1_555 1_555
C5 C4 1_555 1_555
H2 C5 1_555 1_555
C6 C5 1_555 1_555
H3 C6 1_555 1_555
C7 C6 1_555 1_555
H4 C7 1_555 1_555
C8 C7 1_555 1_555
H5 C8 1_555 1_555
C9 C4 1_555 1_555
C10 C9 1_555 1_555
H6 C10 1_555 1_555
C11 C2 1_555 1_555
C12 C11 1_555 1_555
C13 C14 1_555 1_555
C14 C15 1_555 1_555
C15 H7 1_555 1_555
C16 C15 1_555 1_555
C17 C16 1_555 1_555
H8 C17 1_555 1_555
C18 C17 1_555 1_555
H9 C18 1_555 1_555
C19 C18 1_555 1_555
H10 C19 1_555 1_555
C20 C19 1_555 1_555
H11 C20 1_555 1_555
C21 C16 1_555 1_555
C22 C21 1_555 1_555
H12 C22 1_555 1_555
C23 C14 1_555 1_555
C24 C23 1_555 1_555
C25 H13 1_555 1_555
C26 C25 1_555 1_555
H14 C26 1_555 1_555
C27 C26 1_555 1_555
H15 C27 1_555 1_555
C28 C27 1_555 1_555
C29 C28 1_555 1_555
H16 C29 1_555 1_555
C30 C29 1_555 1_555
H17 C30 1_555 1_555
C31 C30 1_555 1_555
C32 C31 1_555 1_555
H18 C32 1_555 1_555
C33 C32 1_555 1_555
H19 C33 1_555 1_555
C34 C33 1_555 1_555
H20 C34 1_555 1_555
C35 C31 1_555 1_555
C36 C28 1_555 1_555
C37 H21 1_555 1_555
C38 C37 1_555 1_555
H22 C38 1_555 1_555
C39 C38 1_555 1_555
H23 C39 1_555 1_555
C40 C39 1_555 1_555
C41 C40 1_555 1_555
H24 C41 1_555 1_555
C42 C41 1_555 1_555
H25 C42 1_555 1_555
C43 C42 1_555 1_555
C44 C43 1_555 1_555
H26 C44 1_555 1_555
C45 C44 1_555 1_555
H27 C45 1_555 1_555
C46 C45 1_555 1_555
H28 C46 1_555 1_555
C47 C43 1_555 1_555
C48 C40 1_555 1_555
N1 C25 1_555 1_555
N2 Cd1 1_555 1_555
N3 C37 1_555 1_555
N4 Cd2 1_555 1_555
O1 Cd1 1_555 1_555
O2 C1 1_555 1_555
O3 Cd1 1_555 1_555
O4 Cd2 1_555 1_555
O5 Cd2 1_555 1_555
O6 Cd1 1_555 1_555
O7 Cd2 1_555 1_555
O8 C24 1_555 1_555
Cd1A O1 1_555 1_555
Cd2A O8 1_555 1_555
O1A Cd1 1_555 1_555
O8A Cd2 1_555 1_555
C1 O1 1_555 1_555
C8 C9 1_555 1_555
C10 C11 1_555 1_555
C12 O3 1_555 1_555
C12 O4 1_555 1_555
C13 O5 1_555 1_555
C13 O6 1_555 1_555
C20 C21 1_555 1_555
C22 C23 1_555 1_555
C24 O7 1_555 1_555
C34 N2 1_555 1_555
C35 C36 1_555 1_555
C35 N2 1_555 1_555
C36 N1 1_555 1_555
C46 N4 1_555 1_555
C47 C48 1_555 1_555
C47 N4 1_555 1_555
C48 N3 1_555 1_555
Cd1A O1A 1_555 1_555

#END
