
#######################################################################
#
#                 Cambridge Crystallographic Data Centre
#                                CCDC 
#
#######################################################################
#
# If this CIF has been generated from an entry in the Cambridge 
# Structural Database, then it will include bibliographic, chemical, 
# crystal, experimental, refinement or atomic coordinate data resulting 
# from the CCDC's data processing and validation procedures.
#
#######################################################################

data_UNIPIR
_symmetry_cell_setting           monoclinic
_symmetry_space_group_name_H-M   'C 2/c'
_symmetry_Int_Tables_number      15
_space_group_name_Hall           '-C 2yn'
loop_
_symmetry_equiv_pos_site_id
_symmetry_equiv_pos_as_xyz
1 x,y,z
2 -x,y,1/2-z
3 1/2+x,1/2+y,z
4 1/2-x,1/2+y,1/2-z
5 -x,-y,-z
6 x,-y,1/2+z
7 1/2-x,1/2-y,-z
8 1/2+x,1/2-y,1/2+z
_cell_length_a                   19.72(2)
_cell_length_b                   12.388(8)
_cell_length_c                   16.563(13)
_cell_angle_alpha                90
_cell_angle_beta                 104.94(10)
_cell_angle_gamma                90
_cell_volume                     3909.42
loop_
_atom_site_label
_atom_site_type_symbol
_atom_site_fract_x
_atom_site_fract_y
_atom_site_fract_z
Zn1 Zn 0.53433(5) 0.21906(6) 0.14625(5)
C1 C 0.5950(4) 0.1708(6) 0.0294(4)
C2 C 0.6212(3) 0.1282(4) -0.0419(4)
C3 C 0.5935(3) 0.0371(5) -0.0873(4)
H1 H 0.5586 -0.0020 -0.0719
C4 C 0.6168(3) 0.0035(4) -0.1544(4)
C5 C 0.6701(3) 0.0631(5) -0.1778(4)
H2 H 0.6856 0.0423 -0.2240
C6 C 0.6984(3) 0.1506(5) -0.1321(4)
H3 H 0.7349 0.1877 -0.1458
C7 C 0.6739(3) 0.1853(5) -0.0658(4)
H4 H 0.6926 0.2473 -0.0367
C8 C 0.5848(3) -0.0928(5) -0.2046(4)
C9 C 0.3906(5) 0.3139(7) 0.0147(6)
H5 H 0.3807 0.2408 0.0059
C10 C 0.3416(4) 0.3865(7) -0.0291(5)
H6 H 0.3006 0.3631 -0.0665
C11 C 0.3555(5) 0.4940(9) -0.0156(5)
H7 H 0.3247 0.5456 -0.0452
C12 C 0.4163(5) 0.5255(7) 0.0430(6)
H8 H 0.4270 0.5979 0.0546
C13 C 0.4629(4) 0.4386(7) 0.0859(4)
C14 C 0.5302(3) 0.4567(5) 0.1502(4)
C15 C 0.6238(4) 0.4106(7) 0.2407(5)
C16 C 0.6790(5) 0.3471(7) 0.2941(6)
H9 H 0.6781 0.2722 0.2977
C17 C 0.7347(4) 0.4123(9) 0.3402(5)
H10 H 0.7728 0.3784 0.3762
C18 C 0.7353(5) 0.5210(10) 0.3346(6)
H11 H 0.7737 0.5586 0.3666
C19 C 0.6812(6) 0.5785(8) 0.2834(7)
H12 H 0.6811 0.6535 0.2806
C20 C 0.6291(5) 0.5183(6) 0.2380(6)
C21 C 0.5402(4) 0.6621(5) 0.1559(5)
H13 H 0.5194 0.6700 0.0964
H14 H 0.5819 0.7069 0.1708
C22 C 0.4878(5) 0.7000(5) 0.2042(5)
H15 H 0.4732 0.7728 0.1862
H16 H 0.4465 0.6543 0.1883
N1 N 0.5596(4) 0.5499(5) 0.1748(5)
N2 N 0.5610(3) 0.3708(5) 0.1840(4)
N3 N 0.4480(4) 0.3392(5) 0.0658(4)
O1 O 0.6307(3) 0.2335(5) 0.0797(4)
O2 O 0.5357(2) 0.1369(3) 0.0367(3)
O3 O 0.5565(2) -0.1625(3) -0.1685(3)
O4 O 0.5893(2) -0.1008(3) -0.2786(3)
Zn1A Zn 0.46567(5) 0.21906(6) 0.35375(5)
Zn1D Zn 0.46567(5) -0.21906(6) -0.14625(5)
Zn1E Zn 0.53433(5) -0.21906(6) -0.35375(5)
C1D C 0.4050(4) -0.1708(6) -0.0294(4)
C2D C 0.3788(3) -0.1282(4) 0.0419(4)
C3D C 0.4065(3) -0.0371(5) 0.0873(4)
H1D H 0.4414 0.0020 0.0719
C4D C 0.3832(3) -0.0035(4) 0.1544(4)
C5D C 0.3299(3) -0.0631(5) 0.1778(4)
H2D H 0.3144 -0.0423 0.2240
C6D C 0.3016(3) -0.1506(5) 0.1321(4)
H3D H 0.2651 -0.1877 0.1458
C7D C 0.3261(3) -0.1853(5) 0.0658(4)
H4D H 0.3074 -0.2473 0.0367
C8D C 0.4152(3) 0.0928(5) 0.2046(4)
C9A C 0.6094(5) 0.3139(7) 0.4853(6)
H5A H 0.6193 0.2408 0.4941
C10A C 0.6584(4) 0.3865(7) 0.5291(5)
H6A H 0.6994 0.3631 0.5665
C11A C 0.6445(5) 0.4940(9) 0.5156(5)
H7A H 0.6753 0.5456 0.5452
C12A C 0.5837(5) 0.5255(7) 0.4570(6)
H8A H 0.5730 0.5979 0.4454
C13A C 0.5371(4) 0.4386(7) 0.4141(4)
C14A C 0.4698(3) 0.4567(5) 0.3498(4)
C15A C 0.3762(4) 0.4106(7) 0.2593(5)
C16A C 0.3210(5) 0.3471(7) 0.2059(6)
H9A H 0.3219 0.2722 0.2023
C17A C 0.2653(4) 0.4123(9) 0.1598(5)
H10A H 0.2272 0.3784 0.1238
C18A C 0.2647(5) 0.5210(10) 0.1654(6)
H11A H 0.2263 0.5586 0.1334
C19A C 0.3188(6) 0.5785(8) 0.2166(7)
H12A H 0.3189 0.6535 0.2194
C20A C 0.3709(5) 0.5183(6) 0.2620(6)
C21A C 0.4598(4) 0.6621(5) 0.3441(5)
H13A H 0.4806 0.6700 0.4036
H14A H 0.4181 0.7069 0.3292
C22A C 0.5122(5) 0.7000(5) 0.2958(5)
H15A H 0.5268 0.7728 0.3138
H16A H 0.5535 0.6543 0.3117
N1A N 0.4404(4) 0.5499(5) 0.3252(5)
N2A N 0.4390(3) 0.3708(5) 0.3160(4)
N3A N 0.5520(4) 0.3392(5) 0.4342(4)
O1D O 0.3693(3) -0.2335(5) -0.0797(4)
O1A O 0.3693(3) 0.2335(5) 0.4203(4)
O2D O 0.4643(2) -0.1369(3) -0.0367(3)
O2A O 0.4643(2) 0.1369(3) 0.4633(3)
O3D O 0.4435(2) 0.1625(3) 0.1685(3)
O3E O 0.5565(2) 0.1625(3) 0.3315(3)
O4D O 0.4107(2) 0.1008(3) 0.2786(3)
O4E O 0.5893(2) 0.1008(3) 0.2214(3)
O5 O 0.4140(3) -0.1019(4) 0.3895(4)
H17 H 0.454(2) -0.104(7) 0.421(4)
H18 H 0.418(4) -0.061(6) 0.351(4)
loop_
_geom_bond_atom_site_label_1
_geom_bond_atom_site_label_2
_geom_bond_site_symmetry_1
_geom_bond_site_symmetry_2
Zn1 N2 1_555 1_555
C1 C2 1_555 1_555
C2 C3 1_555 1_555
C3 H1 1_555 1_555
C4 C3 1_555 1_555
C5 C4 1_555 1_555
H2 C5 1_555 1_555
C6 C5 1_555 1_555
H3 C6 1_555 1_555
C7 C2 1_555 1_555
H4 C7 1_555 1_555
C8 C4 1_555 1_555
C9 H5 1_555 1_555
C10 C9 1_555 1_555
H6 C10 1_555 1_555
C11 C10 1_555 1_555
H7 C11 1_555 1_555
C12 C11 1_555 1_555
H8 C12 1_555 1_555
C13 C12 1_555 1_555
C14 C13 1_555 1_555
C15 C16 1_555 1_555
C16 H9 1_555 1_555
C17 C16 1_555 1_555
H10 C17 1_555 1_555
C18 C17 1_555 1_555
H11 C18 1_555 1_555
C19 C18 1_555 1_555
H12 C19 1_555 1_555
C20 C15 1_555 1_555
C21 H13 1_555 1_555
H14 C21 1_555 1_555
C22 C21 1_555 1_555
H15 C22 1_555 1_555
H16 C22 1_555 1_555
N1 C14 1_555 1_555
N2 C14 1_555 1_555
N3 Zn1 1_555 1_555
O1 Zn1 1_555 1_555
O2 Zn1 1_555 1_555
O3 C8 1_555 1_555
O4 C8 1_555 1_555
O5 H17 1_555 1_555
H18 O5 1_555 1_555
Zn1A N2A 1_555 1_555
Zn1D O3 1_555 1_555
Zn1E O4 1_555 1_555
C1D C2D 1_555 1_555
C2D C3D 1_555 1_555
C3D H1D 1_555 1_555
C4D C3D 1_555 1_555
C5D C4D 1_555 1_555
H2D C5D 1_555 1_555
C6D C5D 1_555 1_555
H3D C6D 1_555 1_555
C7D C2D 1_555 1_555
H4D C7D 1_555 1_555
C8D C4D 1_555 1_555
C9A H5A 1_555 1_555
C10A C9A 1_555 1_555
H6A C10A 1_555 1_555
C11A C10A 1_555 1_555
H7A C11A 1_555 1_555
C12A C11A 1_555 1_555
H8A C12A 1_555 1_555
C13A C12A 1_555 1_555
C14A C13A 1_555 1_555
C15A C16A 1_555 1_555
C16A H9A 1_555 1_555
C17A C16A 1_555 1_555
H10A C17A 1_555 1_555
C18A C17A 1_555 1_555
H11A C18A 1_555 1_555
C19A C18A 1_555 1_555
H12A C19A 1_555 1_555
C20A C15A 1_555 1_555
C21A H13A 1_555 1_555
H14A C21A 1_555 1_555
C22A C22 1_555 1_555
H15A C22A 1_555 1_555
H16A C22A 1_555 1_555
N1A C14A 1_555 1_555
N2A C14A 1_555 1_555
N3A Zn1A 1_555 1_555
O1D Zn1D 1_555 1_555
O1A Zn1A 1_555 1_555
O2D Zn1D 1_555 1_555
O2A Zn1A 1_555 1_555
O3D Zn1 1_555 1_555
O3E Zn1A 1_555 1_555
O4D Zn1A 1_555 1_555
O4E Zn1 1_555 1_555
C1 O1 1_555 1_555
C1 O2 1_555 1_555
C6 C7 1_555 1_555
C9 N3 1_555 1_555
C13 N3 1_555 1_555
C15 N2 1_555 1_555
C19 C20 1_555 1_555
C20 N1 1_555 1_555
C21 N1 1_555 1_555
C1D O1D 1_555 1_555
C1D O2D 1_555 1_555
C6D C7D 1_555 1_555
C8D O3D 1_555 1_555
C8D O4D 1_555 1_555
C9A N3A 1_555 1_555
C13A N3A 1_555 1_555
C15A N2A 1_555 1_555
C19A C20A 1_555 1_555
C20A N1A 1_555 1_555
C21A C22A 1_555 1_555
C21A N1A 1_555 1_555

#END
