
#######################################################################
#
#                 Cambridge Crystallographic Data Centre
#                                CCDC 
#
#######################################################################
#
# If this CIF has been generated from an entry in the Cambridge 
# Structural Database, then it will include bibliographic, chemical, 
# crystal, experimental, refinement or atomic coordinate data resulting 
# from the CCDC's data processing and validation procedures.
#
#######################################################################

data_UNIPAJ
_symmetry_cell_setting           monoclinic
_symmetry_space_group_name_H-M   'C 2/c'
_symmetry_Int_Tables_number      15
_space_group_name_Hall           '-C 2yn'
loop_
_symmetry_equiv_pos_site_id
_symmetry_equiv_pos_as_xyz
1 x,y,z
2 -x,y,1/2-z
3 1/2+x,1/2+y,z
4 1/2-x,1/2+y,1/2-z
5 -x,-y,-z
6 x,-y,1/2+z
7 1/2-x,1/2-y,-z
8 1/2+x,1/2-y,1/2+z
_cell_length_a                   18.4754(10)
_cell_length_b                   21.5101(14)
_cell_length_c                   12.5984(6)
_cell_angle_alpha                90
_cell_angle_beta                 102.731(5)
_cell_angle_gamma                90
_cell_volume                     4883.61
loop_
_atom_site_label
_atom_site_type_symbol
_atom_site_fract_x
_atom_site_fract_y
_atom_site_fract_z
Cd1 Cd 0.146806(14) 0.451856(12) 0.577001(19)
C1 C 0.1268(2) 0.38142(19) 0.3894(3)
C2 C 0.11319(19) 0.34016(17) 0.2900(3)
C3 C 0.1048(2) 0.27852(19) 0.3055(3)
H1 H 0.1083 0.2641 0.3760
C4 C 0.0907(2) 0.23493(19) 0.2186(3)
C5 C 0.0884(3) 0.1700(2) 0.2358(4)
H2 H 0.0959 0.1542 0.3061
C6 C 0.0750(3) 0.1310(2) 0.1488(4)
H3 H 0.0741 0.0883 0.1601
C7 C 0.0627(3) 0.1538(2) 0.0437(4)
H4 H 0.0529 0.1263 -0.0147
C8 C 0.0647(3) 0.2156(2) 0.0252(4)
H5 H 0.0564 0.2302 -0.0459
C9 C 0.0790(2) 0.25817(18) 0.1121(3)
C10 C 0.0866(2) 0.32272(18) 0.0964(3)
H6 H 0.0786 0.3380 0.0257
C11 C 0.10488(19) 0.36328(17) 0.1805(3)
C12 C 0.1259(2) 0.42830(17) 0.1549(3)
C13 C 0.2101(3) 0.3342(2) 0.7231(3)
H7 H 0.2115 0.3199 0.6539
C14 C 0.2299(3) 0.2933(2) 0.8097(3)
H8 H 0.2425 0.2523 0.7989
C15 C 0.2302(2) 0.3154(2) 0.9116(3)
C16 C 0.2112(3) 0.3754(2) 0.9238(3)
H9 H 0.2119 0.3912 0.9928
C17 C 0.1906(2) 0.4132(2) 0.8332(3)
H10 H 0.1773 0.4542 0.8426
C18 C 0.2937(2) 0.4574(2) 0.4693(3)
H11 H 0.2603 0.4394 0.4115
C19 C 0.3663(2) 0.4654(2) 0.4602(3)
H12 H 0.3810 0.4530 0.3975
C20 C 0.4160(2) 0.49169(18) 0.5444(3)
C21 C 0.3915(2) 0.5097(2) 0.6356(3)
H13 H 0.4240 0.5278 0.6945
C22 C 0.3182(2) 0.5004(2) 0.6379(3)
H14 H 0.3020 0.5131 0.6993
N1 N 0.18938(17) 0.39275(15) 0.7330(2)
N2 N 0.26943(17) 0.47438(16) 0.5573(2)
N3 N 0.49262(17) 0.50274(16) 0.5454(2)
N4 N 0.2505(2) 0.27785(16) 1.0093(3)
O1 O 0.16555(16) 0.35889(14) 0.47546(19)
O2 O 0.09918(15) 0.43434(12) 0.38832(19)
O3 O 0.17707(15) 0.45623(13) 0.21737(19)
O4 O 0.09231(13) 0.45186(12) 0.06472(19)
O5 O 0.02930(14) 0.41756(12) 0.59851(19)
H15 H -0.0026 0.4327 0.5457
H16 H 0.0171 0.4452 0.6394
Cd1F Cd 0.353194(14) 0.048144(12) 1.422999(19)
Cd1E Cd 0.146806(14) 0.548144(12) 0.077001(19)
Cd1D Cd 0.853194(14) 0.548144(12) 0.422999(19)
Cd1C Cd 0.353194(14) -0.048144(12) 1.922999(19)
C1F C 0.3732(2) 0.11858(19) 1.6106(3)
C2F C 0.38681(19) 0.15984(17) 1.7100(3)
C3F C 0.3952(2) 0.22148(19) 1.6945(3)
H1F H 0.3917 0.2359 1.6240
C4F C 0.4093(2) 0.26507(19) 1.7814(3)
C5F C 0.4116(3) 0.3300(2) 1.7642(4)
H2F H 0.4041 0.3458 1.6939
C6F C 0.4250(3) 0.3690(2) 1.8512(4)
H3F H 0.4259 0.4117 1.8399
C7F C 0.4373(3) 0.3462(2) 1.9563(4)
H4F H 0.4471 0.3737 2.0147
C8F C 0.4353(3) 0.2844(2) 1.9748(4)
H5F H 0.4436 0.2698 2.0459
C9F C 0.4210(2) 0.24183(18) 1.8879(3)
C10F C 0.4134(2) 0.17728(18) 1.9036(3)
H6F H 0.4214 0.1620 1.9743
C11F C 0.39512(19) 0.13672(17) 1.8195(3)
C12F C 0.3741(2) 0.07170(17) 1.8451(3)
C13F C 0.2899(3) 0.1658(2) 1.2769(3)
H7F H 0.2885 0.1801 1.3461
C14F C 0.2701(3) 0.2067(2) 1.1903(3)
H8F H 0.2575 0.2477 1.2011
C15F C 0.2698(2) 0.1846(2) 1.0884(3)
C16F C 0.2888(3) 0.1246(2) 1.0762(3)
H9F H 0.2881 0.1088 1.0072
C17F C 0.3094(2) 0.0868(2) 1.1668(3)
H10F H 0.3227 0.0458 1.1574
C18D C 0.7063(2) 0.5426(2) 0.5307(3)
H11D H 0.7397 0.5606 0.5885
C19D C 0.6337(2) 0.5346(2) 0.5398(3)
H12D H 0.6190 0.5470 0.6025
C20D C 0.5840(2) 0.50831(18) 0.4556(3)
C21D C 0.6085(2) 0.4903(2) 0.3644(3)
H13D H 0.5760 0.4722 0.3055
C22D C 0.6818(2) 0.4996(2) 0.3621(3)
H14D H 0.6980 0.4869 0.3007
N1F N 0.31062(17) 0.10725(15) 1.2670(2)
N2D N 0.73057(17) 0.52562(16) 0.4427(2)
N2F N 0.23057(17) 0.02562(16) 1.4427(2)
N3D N 0.50738(17) 0.49726(16) 0.4546(2)
N4F N 0.2495(2) 0.22215(16) 0.9907(3)
O1F O 0.33445(16) 0.14111(14) 1.52454(19)
O2F O 0.40082(15) 0.06566(12) 1.61168(19)
O3E O 0.17707(15) 0.54377(13) 0.71737(19)
O3C O 0.32293(15) -0.04377(13) 1.28263(19)
O3F O 0.32293(15) 0.04377(13) 1.78263(19)
O4E O 0.09231(13) 0.54814(12) 0.56472(19)
O4C O 0.40769(13) -0.04814(12) 1.43528(19)
O4F O 0.40769(13) 0.04814(12) 1.93528(19)
O5F O 0.47070(14) 0.08244(12) 1.40149(19)
H15F H 0.5026 0.0673 1.4543
H16F H 0.4829 0.0548 1.3606
O6 O 0.0000 0.50341(18) 0.2500
H17 H 0.0222 0.4748 0.2911
H17A H -0.0222 0.4748 0.2089
O7 O 0.0000 0.3159(4) 0.7500
H18 H 0.0036 0.3391 0.6968
H18A H -0.0036 0.3391 0.8032
O8 O 0.2932(6) 0.2872(6) 0.4545(8)
H19 H 0.3261 0.2978 0.4203
H20 H 0.2558 0.3087 0.4611
loop_
_geom_bond_atom_site_label_1
_geom_bond_atom_site_label_2
_geom_bond_site_symmetry_1
_geom_bond_site_symmetry_2
Cd1 N1 1_555 1_555
C1 C2 1_555 1_555
C2 C3 1_555 1_555
C3 H1 1_555 1_555
C4 C3 1_555 1_555
C5 C4 1_555 1_555
H2 C5 1_555 1_555
C6 C5 1_555 1_555
H3 C6 1_555 1_555
C7 C6 1_555 1_555
H4 C7 1_555 1_555
C8 C7 1_555 1_555
H5 C8 1_555 1_555
C9 C4 1_555 1_555
C10 C9 1_555 1_555
H6 C10 1_555 1_555
C11 C2 1_555 1_555
C12 C11 1_555 1_555
C13 H7 1_555 1_555
C14 C13 1_555 1_555
H8 C14 1_555 1_555
C15 C14 1_555 1_555
C16 C15 1_555 1_555
H9 C16 1_555 1_555
C17 C16 1_555 1_555
H10 C17 1_555 1_555
C18 H11 1_555 1_555
C19 C18 1_555 1_555
H12 C19 1_555 1_555
C20 C19 1_555 1_555
C21 C20 1_555 1_555
H13 C21 1_555 1_555
C22 C21 1_555 1_555
H14 C22 1_555 1_555
N1 C13 1_555 1_555
N2 Cd1 1_555 1_555
N3 C20 1_555 1_555
N4 C15 1_555 1_555
O1 Cd1 1_555 1_555
O2 Cd1 1_555 1_555
O3 C12 1_555 1_555
O4 C12 1_555 1_555
O5 Cd1 1_555 1_555
H15 O5 1_555 1_555
H16 O5 1_555 1_555
O6 H17 1_555 1_555
O7 H18 1_555 1_555
O8 H19 1_555 1_555
H20 O8 1_555 1_555
Cd1F N1F 1_555 1_555
Cd1E O3 1_555 1_555
Cd1D N2D 1_555 1_555
Cd1C O3F 1_555 1_555
C1F C2F 1_555 1_555
C2F C3F 1_555 1_555
C3F H1F 1_555 1_555
C4F C3F 1_555 1_555
C5F C4F 1_555 1_555
H2F C5F 1_555 1_555
C6F C5F 1_555 1_555
H3F C6F 1_555 1_555
C7F C6F 1_555 1_555
H4F C7F 1_555 1_555
C8F C7F 1_555 1_555
H5F C8F 1_555 1_555
C9F C4F 1_555 1_555
C10F C9F 1_555 1_555
H6F C10F 1_555 1_555
C11F C2F 1_555 1_555
C12F C11F 1_555 1_555
C13F H7F 1_555 1_555
C14F C13F 1_555 1_555
H8F C14F 1_555 1_555
C15F C14F 1_555 1_555
C16F C15F 1_555 1_555
H9F C16F 1_555 1_555
C17F C16F 1_555 1_555
H10F C17F 1_555 1_555
C18D H11D 1_555 1_555
C19D C18D 1_555 1_555
H12D C19D 1_555 1_555
C20D C19D 1_555 1_555
C21D C20D 1_555 1_555
H13D C21D 1_555 1_555
C22D C21D 1_555 1_555
H14D C22D 1_555 1_555
N1F C13F 1_555 1_555
N2D C18D 1_555 1_555
N2F Cd1F 1_555 1_555
N3D N3 1_555 1_555
N4F N4 1_555 1_555
O1F Cd1F 1_555 1_555
O2F Cd1F 1_555 1_555
O3E Cd1 1_555 1_555
O3C Cd1F 1_555 1_555
O3F C12F 1_555 1_555
O4E Cd1 1_555 1_555
O4C Cd1F 1_555 1_555
O4F Cd1C 1_555 1_555
O5F Cd1F 1_555 1_555
H15F O5F 1_555 1_555
H16F O5F 1_555 1_555
H17A O6 1_555 1_555
H18A O7 1_555 1_555
C1 O1 1_555 1_555
C1 O2 1_555 1_555
C8 C9 1_555 1_555
C10 C11 1_555 1_555
C17 N1 1_555 1_555
C18 N2 1_555 1_555
C22 N2 1_555 1_555
O4 Cd1E 1_555 1_555
C1F O1F 1_555 1_555
C1F O2F 1_555 1_555
C8F C9F 1_555 1_555
C10F C11F 1_555 1_555
C12F O4F 1_555 1_555
C15F N4F 1_555 1_555
C17F N1F 1_555 1_555
C20D N3D 1_555 1_555
C22D N2D 1_555 1_555

#END
