
#######################################################################
#
#                 Cambridge Crystallographic Data Centre
#                                CCDC 
#
#######################################################################
#
# If this CIF has been generated from an entry in the Cambridge 
# Structural Database, then it will include bibliographic, chemical, 
# crystal, experimental, refinement or atomic coordinate data resulting 
# from the CCDC's data processing and validation procedures.
#
#######################################################################

data_UNIPUD
_symmetry_cell_setting           monoclinic
_symmetry_space_group_name_H-M   'P 21/n'
_symmetry_Int_Tables_number      14
_space_group_name_Hall           '-P 2yn'
loop_
_symmetry_equiv_pos_site_id
_symmetry_equiv_pos_as_xyz
1 x,y,z
2 1/2-x,1/2+y,1/2-z
3 -x,-y,-z
4 1/2+x,1/2-y,1/2+z
_cell_length_a                   8.6457(5)
_cell_length_b                   23.0914(11)
_cell_length_c                   11.5675(5)
_cell_angle_alpha                90
_cell_angle_beta                 105.197(5)
_cell_angle_gamma                90
_cell_volume                     2228.59
loop_
_atom_site_label
_atom_site_type_symbol
_atom_site_fract_x
_atom_site_fract_y
_atom_site_fract_z
Zn1 Zn 0.29748(11) 0.35496(4) 0.88895(8)
O1 O 0.1016(7) 0.3086(3) 0.8636(5)
O2 O -0.2914(7) 0.1145(2) 1.1694(5)
O3 O -0.0979(6) 0.1702(2) 1.2645(4)
N1 N 0.3801(7) 0.4957(3) 1.1093(5)
N2 N 0.2935(7) 0.4340(3) 0.9593(5)
C1 C -0.1865(9) 0.1508(3) 1.1714(7)
C2 C -0.1683(8) 0.1741(3) 1.0517(6)
C3 C 0.2537(8) 0.5242(3) 1.0251(6)
C4 C 0.3963(8) 0.4427(3) 1.0647(6)
N3 N 0.4965(7) 0.3504(3) 1.0461(5)
C5 C -0.0467(8) 0.2122(3) 1.0503(6)
H1 H 0.0264 0.2216 1.1223
C6 C 0.2047(8) 0.4835(3) 0.9332(7)
C7 C 0.0135(9) 0.5519(4) 0.8333(7)
H2 H -0.0685 0.5634 0.7679
C8 C 0.4700(9) 0.5204(3) 1.2266(6)
H3 H 0.4603 0.5623 1.2236
H4 H 0.5827 0.5108 1.2411
C9 C -0.0293(8) 0.2368(3) 0.9460(6)
C10 C 0.0789(9) 0.4984(3) 0.8315(6)
H5 H 0.0433 0.4731 0.7675
C11 C 0.1856(10) 0.5768(4) 1.0261(7)
H6 H 0.2191 0.6026 1.0894
C12 C 0.7076(10) 0.3022(4) 1.1896(7)
H7 H 0.7712 0.2693 1.2098
C13 C 0.1046(11) 0.2786(4) 0.9500(8)
C14 C 0.7247(10) 0.3491(4) 1.2655(7)
H8 H 0.8001 0.3493 1.3395
C15 C 0.4082(8) 0.4976(3) 1.3285(5)
H9 H 0.3994 0.4558 1.3234
H10 H 0.3024 0.5134 1.3230
C16 C 0.5102(9) 0.3956(3) 1.1157(6)
C17 C -0.2784(9) 0.1594(3) 0.9454(7)
H11 H -0.3613 0.1336 0.9446
C18 C 0.5223(9) 0.5149(4) 1.4477(6)
H12 H 0.5187 0.5565 1.4574
H13 H 0.6309 0.5043 1.4477
C19 C -0.1390(10) 0.2224(3) 0.8403(7)
H14 H -0.1299 0.2388 0.7689
C20 C -0.2613(10) 0.1845(4) 0.8386(7)
H15 H -0.3338 0.1753 0.7662
C21 C 0.0633(10) 0.5892(4) 0.9271(7)
H16 H 0.0118 0.6247 0.9237
C22 C 0.6217(10) 0.3971(3) 1.2255(7)
H17 H 0.6296 0.4297 1.2738
C23 C 0.5936(10) 0.3062(3) 1.0841(8)
H18 H 0.5827 0.2745 1.0331
O6 O 0.190(2) 0.2949(8) 1.0476(12)
Zn1C Zn -0.20252(11) 0.14504(4) 1.38895(8)
Zn1B Zn 0.70252(11) 0.64504(4) 2.11105(8)
Zn1A Zn 1.20252(11) 0.85496(4) 1.61105(8)
O1B O 0.8984(7) 0.6914(3) 2.1364(5)
O2C O 0.2086(7) 0.3855(2) 0.6694(5)
O2A O 0.7914(7) 0.6145(2) 2.3306(5)
O2B O 1.2914(7) 0.8855(2) 1.8306(5)
O3C O 0.4021(6) 0.3298(2) 0.7645(4)
O3A O 0.5979(6) 0.6702(2) 2.2355(4)
O3B O 1.0979(6) 0.8298(2) 1.7355(4)
N1B N 0.6199(7) 0.5043(3) 1.8907(5)
N2B N 0.7065(7) 0.5660(3) 2.0407(5)
C1B C 1.1865(9) 0.8492(3) 1.8286(7)
C2B C 1.1683(8) 0.8259(3) 1.9483(6)
C3B C 0.7463(8) 0.4758(3) 1.9749(6)
C4B C 0.6037(8) 0.5573(3) 1.9353(6)
N3B N 0.5035(7) 0.6496(3) 1.9539(5)
C5B C 1.0467(8) 0.7878(3) 1.9497(6)
H1B H 0.9736 0.7784 1.8777
C6B C 0.7953(8) 0.5165(3) 2.0668(7)
C7B C 0.9865(9) 0.4481(4) 2.1667(7)
H2B H 1.0685 0.4366 2.2321
C8B C 0.5300(9) 0.4796(3) 1.7734(6)
H3B H 0.5397 0.4377 1.7764
H4B H 0.4173 0.4892 1.7589
C9B C 1.0293(8) 0.7632(3) 2.0540(6)
C10B C 0.9211(9) 0.5016(3) 2.1685(6)
H5B H 0.9567 0.5269 2.2325
C11B C 0.8144(10) 0.4232(4) 1.9739(7)
H6B H 0.7809 0.3974 1.9106
C12B C 0.2924(10) 0.6978(4) 1.8104(7)
H7B H 0.2288 0.7307 1.7902
C13B C 0.8954(11) 0.7214(4) 2.0500(8)
C14B C 0.2753(10) 0.6509(4) 1.7345(7)
H8B H 0.1999 0.6507 1.6605
C15B C 0.5918(8) 0.5024(3) 1.6715(5)
H9B H 0.6006 0.5442 1.6766
H10B H 0.6976 0.4866 1.6770
C16B C 0.4898(9) 0.6044(3) 1.8843(6)
C17B C 1.2784(9) 0.8406(3) 2.0546(7)
H11B H 1.3613 0.8664 2.0554
C18B C 0.4777(9) 0.4851(4) 1.5523(6)
H12B H 0.4813 0.4435 1.5426
H13B H 0.3691 0.4957 1.5523
C19B C 1.1390(10) 0.7776(3) 2.1597(7)
H14B H 1.1299 0.7612 2.2311
C20B C 1.2613(10) 0.8155(4) 2.1614(7)
H15B H 1.3338 0.8247 2.2338
C21B C 0.9367(10) 0.4108(4) 2.0729(7)
H16B H 0.9882 0.3753 2.0763
C22B C 0.3783(10) 0.6029(3) 1.7745(7)
H17B H 0.3704 0.5703 1.7262
C23B C 0.4064(10) 0.6938(3) 1.9159(8)
H18B H 0.4173 0.7255 1.9669
O6B O 0.810(2) 0.7051(8) 1.9524(12)
O4 O -0.5000 0.0000 1.0000
O5 O -0.6737(14) 0.1424(6) 1.1417(17)
O7? O -0.622(2) 0.0977(7) 1.0509(17)
loop_
_geom_bond_atom_site_label_1
_geom_bond_atom_site_label_2
_geom_bond_site_symmetry_1
_geom_bond_site_symmetry_2
Zn1 O1 1_555 1_555
O1 C13 1_555 1_555
O2 C1 1_555 1_555
O3 C1 1_555 1_555
N1 C3 1_555 1_555
N2 Zn1 1_555 1_555
C1 C2 1_555 1_555
C2 C5 1_555 1_555
C3 C6 1_555 1_555
C4 N1 1_555 1_555
N3 Zn1 1_555 1_555
C5 H1 1_555 1_555
C6 N2 1_555 1_555
C7 H2 1_555 1_555
C8 N1 1_555 1_555
H3 C8 1_555 1_555
H4 C8 1_555 1_555
C9 C5 1_555 1_555
C10 C6 1_555 1_555
H5 C10 1_555 1_555
C11 C3 1_555 1_555
H6 C11 1_555 1_555
C12 H7 1_555 1_555
C13 C9 1_555 1_555
C14 C12 1_555 1_555
H8 C14 1_555 1_555
C15 C8 1_555 1_555
H9 C15 1_555 1_555
H10 C15 1_555 1_555
C16 C4 1_555 1_555
C17 C2 1_555 1_555
H11 C17 1_555 1_555
C18 C15 1_555 1_555
H12 C18 1_555 1_555
H13 C18 1_555 1_555
C19 C9 1_555 1_555
H14 C19 1_555 1_555
C20 C17 1_555 1_555
H15 C20 1_555 1_555
C21 C7 1_555 1_555
H16 C21 1_555 1_555
C22 C14 1_555 1_555
H17 C22 1_555 1_555
C23 N3 1_555 1_555
H18 C23 1_555 1_555
O6 C13 1_555 1_555
Zn1C O2 1_555 1_555
Zn1B O1B 1_555 1_555
Zn1A O2B 1_555 1_555
O1B C13B 1_555 1_555
O2C Zn1 1_555 1_555
O2A Zn1B 1_555 1_555
O2B C1B 1_555 1_555
O3C Zn1 1_555 1_555
O3A Zn1B 1_555 1_555
O3B Zn1A 1_555 1_555
N1B C3B 1_555 1_555
N2B Zn1B 1_555 1_555
C1B O3B 1_555 1_555
C2B C1B 1_555 1_555
C3B C6B 1_555 1_555
C4B N1B 1_555 1_555
N3B Zn1B 1_555 1_555
C5B C2B 1_555 1_555
H1B C5B 1_555 1_555
C6B N2B 1_555 1_555
C7B H2B 1_555 1_555
C8B N1B 1_555 1_555
H3B C8B 1_555 1_555
H4B C8B 1_555 1_555
C9B C5B 1_555 1_555
C10B C6B 1_555 1_555
H5B C10B 1_555 1_555
C11B C3B 1_555 1_555
H6B C11B 1_555 1_555
C12B H7B 1_555 1_555
C13B C9B 1_555 1_555
C14B C12B 1_555 1_555
H8B C14B 1_555 1_555
C15B C8B 1_555 1_555
H9B C15B 1_555 1_555
H10B C15B 1_555 1_555
C16B C4B 1_555 1_555
C17B C2B 1_555 1_555
H11B C17B 1_555 1_555
C18B C18 1_555 1_555
H12B C18B 1_555 1_555
H13B C18B 1_555 1_555
C19B C9B 1_555 1_555
H14B C19B 1_555 1_555
C20B C17B 1_555 1_555
H15B C20B 1_555 1_555
C21B C7B 1_555 1_555
H16B C21B 1_555 1_555
C22B C14B 1_555 1_555
H17B C22B 1_555 1_555
C23B N3B 1_555 1_555
H18B C23B 1_555 1_555
O6B C13B 1_555 1_555
O3 Zn1C 1_555 1_555
N2 C4 1_555 1_555
N3 C16 1_555 1_555
C7 C10 1_555 1_555
C11 C21 1_555 1_555
C12 C23 1_555 1_555
C16 C22 1_555 1_555
C19 C20 1_555 1_555
N2B C4B 1_555 1_555
N3B C16B 1_555 1_555
C7B C10B 1_555 1_555
C11B C21B 1_555 1_555
C12B C23B 1_555 1_555
C15B C18B 1_555 1_555
C16B C22B 1_555 1_555
C19B C20B 1_555 1_555

#END
