
#######################################################################
#
#                 Cambridge Crystallographic Data Centre
#                                CCDC 
#
#######################################################################
#
# If this CIF has been generated from an entry in the Cambridge 
# Structural Database, then it will include bibliographic, chemical, 
# crystal, experimental, refinement or atomic coordinate data resulting 
# from the CCDC's data processing and validation procedures.
#
#######################################################################

data_UNIQAK
_symmetry_cell_setting           orthorhombic
_symmetry_space_group_name_H-M   'P b c n'
_symmetry_Int_Tables_number      60
_space_group_name_Hall           '-P 2n 2ab'
loop_
_symmetry_equiv_pos_site_id
_symmetry_equiv_pos_as_xyz
1 x,y,z
2 1/2-x,1/2-y,1/2+z
3 1/2+x,1/2-y,-z
4 -x,y,1/2-z
5 -x,-y,-z
6 1/2+x,1/2+y,1/2-z
7 1/2-x,1/2+y,z
8 x,-y,1/2+z
_cell_length_a                   15.0433(7)
_cell_length_b                   16.9932(6)
_cell_length_c                   18.9513(7)
_cell_angle_alpha                90
_cell_angle_beta                 90
_cell_angle_gamma                90
_cell_volume                     4844.59
loop_
_atom_site_label
_atom_site_type_symbol
_atom_site_fract_x
_atom_site_fract_y
_atom_site_fract_z
Zn1 Zn 0.82300(5) 0.35193(4) 0.08439(3)
C1 C 0.8294(5) 0.4125(4) -0.0354(3)
C2 C 0.8240(4) 0.4497(4) -0.1072(3)
C3 C 0.7550(4) 0.4975(4) -0.1243(3)
H1 H 0.7098 0.5059 -0.0916
C4 C 0.7507(4) 0.5336(4) -0.1894(3)
H2 H 0.7036 0.5670 -0.1996
C5 C 0.8148(4) 0.5208(3) -0.2387(3)
C6 C 0.8812(5) 0.4710(5) -0.2216(4)
H3 H 0.9245 0.4603 -0.2553
C7 C 0.8878(5) 0.4357(5) -0.1571(4)
H4 H 0.9353 0.4024 -0.1471
C8 C 0.8156(6) 0.5641(4) -0.3085(3)
C9 C 0.6582(5) 0.2568(5) 0.0400(4)
H5 H 0.6369 0.3052 0.0246
C10 C 0.6035(5) 0.1918(6) 0.0338(4)
H6 H 0.5468 0.1966 0.0147
C11 C 0.6346(5) 0.1198(6) 0.0566(4)
H7 H 0.5991 0.0751 0.0536
C12 C 0.7193(5) 0.1155(4) 0.0837(4)
H8 H 0.7424 0.0676 0.0988
C13 C 0.7693(4) 0.1834(4) 0.0880(3)
C14 C 0.8622(4) 0.1905(4) 0.1159(3)
C15 C 0.9856(4) 0.2490(3) 0.1437(3)
C16 C 1.0522(5) 0.3027(4) 0.1575(3)
H9 H 1.0445 0.3564 0.1507
C17 C 1.1311(5) 0.2716(5) 0.1819(4)
H10 H 1.1777 0.3055 0.1926
C18 C 1.1430(5) 0.1932(5) 0.1910(4)
H11 H 1.1980 0.1749 0.2062
C19 C 1.0775(4) 0.1411(4) 0.1786(3)
H12 H 1.0864 0.0875 0.1859
C20 C 0.9977(4) 0.1688(3) 0.1550(3)
C21 C 0.9045(4) 0.0466(4) 0.1438(4)
H13 H 0.8468 0.0365 0.1648
H14 H 0.9495 0.0246 0.1745
C22 C 0.9092(5) 0.0069(4) 0.0725(4)
H15 H 0.8617 0.0266 0.0428
H16 H 0.9003 -0.0493 0.0785
C23 C 0.9988(5) 0.0209(4) 0.0355(4)
H17 H 1.0076 0.0769 0.0285
H18 H 1.0467 0.0015 0.0650
N1 N 0.9003(3) 0.2604(3) 0.1195(2)
N2 N 0.9182(3) 0.1327(3) 0.1378(3)
N3 N 0.7376(4) 0.2537(3) 0.0663(2)
O1 O 0.7669(3) 0.4216(3) 0.0067(2)
O2 O 0.8935(4) 0.3710(4) -0.0187(3)
O3 O 0.7508(3) 0.6085(3) -0.3226(2)
O4 O 0.8782(4) 0.5569(3) -0.3488(2)
Zn1D Zn 1.17700(5) -0.35193(4) -0.08439(3)
Zn1G Zn 0.82300(5) 0.64807(4) -0.41561(3)
Zn1C Zn 1.17700(5) -0.64807(4) 0.41561(3)
C1D C 1.1706(5) -0.4125(4) 0.0354(3)
C2D C 1.1760(4) -0.4497(4) 0.1072(3)
C3D C 1.2450(4) -0.4975(4) 0.1243(3)
H1D H 1.2902 -0.5059 0.0916
C4D C 1.2493(4) -0.5336(4) 0.1894(3)
H2D H 1.2964 -0.5670 0.1996
C5D C 1.1852(4) -0.5208(3) 0.2387(3)
C6D C 1.1188(5) -0.4710(5) 0.2216(4)
H3D H 1.0755 -0.4603 0.2553
C7D C 1.1122(5) -0.4357(5) 0.1571(4)
H4D H 1.0647 -0.4024 0.1471
C8D C 1.1844(6) -0.5641(4) 0.3085(3)
C9D C 1.3418(5) -0.2568(5) -0.0400(4)
H5D H 1.3631 -0.3052 -0.0246
C10D C 1.3965(5) -0.1918(6) -0.0338(4)
H6D H 1.4532 -0.1966 -0.0147
C11D C 1.3654(5) -0.1198(6) -0.0566(4)
H7D H 1.4009 -0.0751 -0.0536
C12D C 1.2807(5) -0.1155(4) -0.0837(4)
H8D H 1.2576 -0.0676 -0.0988
C13D C 1.2307(4) -0.1834(4) -0.0880(3)
C14D C 1.1378(4) -0.1905(4) -0.1159(3)
C15D C 1.0144(4) -0.2490(3) -0.1437(3)
C16D C 0.9478(5) -0.3027(4) -0.1575(3)
H9D H 0.9555 -0.3564 -0.1507
C17D C 0.8689(5) -0.2716(5) -0.1819(4)
H10D H 0.8223 -0.3055 -0.1926
C18D C 0.8570(5) -0.1932(5) -0.1910(4)
H11D H 0.8020 -0.1749 -0.2062
C19D C 0.9225(4) -0.1411(4) -0.1786(3)
H12D H 0.9136 -0.0875 -0.1859
C20D C 1.0023(4) -0.1688(3) -0.1550(3)
C21D C 1.0955(4) -0.0466(4) -0.1438(4)
H13D H 1.1532 -0.0365 -0.1648
H14D H 1.0505 -0.0246 -0.1745
C22D C 1.0908(5) -0.0069(4) -0.0725(4)
H15D H 1.1383 -0.0266 -0.0428
H16D H 1.0997 0.0493 -0.0785
C23D C 1.0012(5) -0.0209(4) -0.0355(4)
H17D H 0.9924 -0.0769 -0.0285
H18D H 0.9533 -0.0015 -0.0650
N1D N 1.0997(3) -0.2604(3) -0.1195(2)
N2D N 1.0818(3) -0.1327(3) -0.1378(3)
N3D N 1.2624(4) -0.2537(3) -0.0663(2)
O1D O 1.2331(3) -0.4216(3) -0.0067(2)
O2D O 1.1065(4) -0.3710(4) 0.0187(3)
O3G O 0.7508(3) 0.3915(3) 0.1774(2)
O3C O 1.2492(3) -0.3915(3) -0.1774(2)
O3D O 1.2492(3) -0.6085(3) 0.3226(2)
O4G O 0.8782(4) 0.4431(3) 0.1512(2)
O4C O 1.1218(4) -0.4431(3) -0.1512(2)
O4D O 1.1218(4) -0.5569(3) 0.3488(2)
C24 C 0.5719(13) 0.6499(17) -0.1238(13)
H19 H 0.5170 0.6330 -0.1030
H20 H 0.6087 0.6049 -0.1330
H21 H 0.5599 0.6769 -0.1672
O5 O 0.6102(14) 0.6940(11) -0.0834(12)
loop_
_geom_bond_atom_site_label_1
_geom_bond_atom_site_label_2
_geom_bond_site_symmetry_1
_geom_bond_site_symmetry_2
Zn1 N1 1_555 1_555
C1 C2 1_555 1_555
C2 C3 1_555 1_555
C3 H1 1_555 1_555
C4 C3 1_555 1_555
H2 C4 1_555 1_555
C5 C4 1_555 1_555
C6 C5 1_555 1_555
H3 C6 1_555 1_555
C7 C2 1_555 1_555
H4 C7 1_555 1_555
C8 C5 1_555 1_555
C9 H5 1_555 1_555
C10 C9 1_555 1_555
H6 C10 1_555 1_555
C11 C10 1_555 1_555
H7 C11 1_555 1_555
C12 C11 1_555 1_555
H8 C12 1_555 1_555
C13 C12 1_555 1_555
C14 C13 1_555 1_555
C15 C16 1_555 1_555
C16 H9 1_555 1_555
C17 C16 1_555 1_555
H10 C17 1_555 1_555
C18 C17 1_555 1_555
H11 C18 1_555 1_555
C19 C18 1_555 1_555
H12 C19 1_555 1_555
C20 C15 1_555 1_555
C21 H13 1_555 1_555
H14 C21 1_555 1_555
C22 C21 1_555 1_555
H15 C22 1_555 1_555
H16 C22 1_555 1_555
C23 C22 1_555 1_555
H17 C23 1_555 1_555
H18 C23 1_555 1_555
C24 H19 1_555 1_555
H20 C24 1_555 1_555
H21 C24 1_555 1_555
N1 C14 1_555 1_555
N2 C14 1_555 1_555
N3 Zn1 1_555 1_555
O1 Zn1 1_555 1_555
O2 Zn1 1_555 1_555
O3 C8 1_555 1_555
O4 C8 1_555 1_555
O5 C24 1_555 1_555
Zn1D N1D 1_555 1_555
Zn1G O3 1_555 1_555
Zn1C O3D 1_555 1_555
C1D C2D 1_555 1_555
C2D C3D 1_555 1_555
C3D H1D 1_555 1_555
C4D C3D 1_555 1_555
H2D C4D 1_555 1_555
C5D C4D 1_555 1_555
C6D C5D 1_555 1_555
H3D C6D 1_555 1_555
C7D C2D 1_555 1_555
H4D C7D 1_555 1_555
C8D C5D 1_555 1_555
C9D H5D 1_555 1_555
C10D C9D 1_555 1_555
H6D C10D 1_555 1_555
C11D C10D 1_555 1_555
H7D C11D 1_555 1_555
C12D C11D 1_555 1_555
H8D C12D 1_555 1_555
C13D C12D 1_555 1_555
C14D C13D 1_555 1_555
C15D C16D 1_555 1_555
C16D H9D 1_555 1_555
C17D C16D 1_555 1_555
H10D C17D 1_555 1_555
C18D C17D 1_555 1_555
H11D C18D 1_555 1_555
C19D C18D 1_555 1_555
H12D C19D 1_555 1_555
C20D C15D 1_555 1_555
C21D H13D 1_555 1_555
H14D C21D 1_555 1_555
C22D C21D 1_555 1_555
H15D C22D 1_555 1_555
H16D C22D 1_555 1_555
C23D C23 1_555 1_555
H17D C23D 1_555 1_555
H18D C23D 1_555 1_555
N1D C14D 1_555 1_555
N2D C14D 1_555 1_555
N3D Zn1D 1_555 1_555
O1D Zn1D 1_555 1_555
O2D Zn1D 1_555 1_555
O3G Zn1 1_555 1_555
O3C Zn1D 1_555 1_555
O3D C8D 1_555 1_555
O4G Zn1 1_555 1_555
O4C Zn1D 1_555 1_555
O4D Zn1C 1_555 1_555
C1 O1 1_555 1_555
C1 O2 1_555 1_555
C6 C7 1_555 1_555
C9 N3 1_555 1_555
C13 N3 1_555 1_555
C15 N1 1_555 1_555
C19 C20 1_555 1_555
C20 N2 1_555 1_555
C21 N2 1_555 1_555
O4 Zn1G 1_555 1_555
C1D O1D 1_555 1_555
C1D O2D 1_555 1_555
C6D C7D 1_555 1_555
C8D O4D 1_555 1_555
C9D N3D 1_555 1_555
C13D N3D 1_555 1_555
C15D N1D 1_555 1_555
C19D C20D 1_555 1_555
C20D N2D 1_555 1_555
C21D N2D 1_555 1_555
C22D C23D 1_555 1_555

#END
