
#######################################################################
#
#                 Cambridge Crystallographic Data Centre
#                                CCDC 
#
#######################################################################
#
# If this CIF has been generated from an entry in the Cambridge 
# Structural Database, then it will include bibliographic, chemical, 
# crystal, experimental, refinement or atomic coordinate data resulting 
# from the CCDC's data processing and validation procedures.
#
#######################################################################

data_UNIROZ
_symmetry_cell_setting           monoclinic
_symmetry_space_group_name_H-M   'P 21'
_symmetry_Int_Tables_number      4
_space_group_name_Hall           'P 2yb'
loop_
_symmetry_equiv_pos_site_id
_symmetry_equiv_pos_as_xyz
1 x,y,z
2 -x,1/2+y,-z
_cell_length_a                   5.0643(2)
_cell_length_b                   8.3299(3)
_cell_length_c                   7.4469(3)
_cell_angle_alpha                90
_cell_angle_beta                 107.585(2)
_cell_angle_gamma                90
_cell_volume                     299.468
loop_
_atom_site_label
_atom_site_type_symbol
_atom_site_fract_x
_atom_site_fract_y
_atom_site_fract_z
C1 C 0.5143(4) 0.1188(2) 0.4732(2)
C2 C 0.3269(4) 0.0668(2) 0.2802(2)
H1 H 0.187(5) -0.005(3) 0.299(3)
C3 C 0.1977(4) 0.2185(2) 0.1733(2)
H2 H 0.084(5) 0.276(3) 0.243(3)
C4 C 0.0029(4) 0.1708(2) -0.0195(2)
O1 O 0.7773(3) 0.08638(17) 0.50533(19)
H3 H 0.881(6) 0.117(3) 0.624(4)
O2 O 0.4139(3) 0.18657(18) 0.58149(17)
O3 O 0.4657(3) -0.02211(15) 0.17456(18)
H4 H 0.583(5) 0.037(3) 0.144(3)
O4 O 0.4229(3) 0.31295(15) 0.15670(19)
H5 H 0.364(5) 0.414(3) 0.138(3)
O5 O -0.2267(3) 0.10982(14) -0.02247(17)
O6 O 0.0806(3) 0.19390(16) -0.16180(17)
Li1 Li 0.5495(7) -0.2482(4) 0.1615(4)
O2A O 0.5861(3) -0.31343(18) 0.41851(17)
O4A O 0.5771(3) -0.18705(15) -0.15670(19)
H5A H 0.636(5) -0.086(3) -0.138(3)
O5A O 0.2267(3) -0.39018(14) 0.02247(17)
O6A O 0.9194(3) -0.30610(16) 0.16180(17)
Li1A Li 0.4505(7) 0.2518(4) 0.8385(4)
Li1A_2 Li 0.4505(7) 0.2518(4) -0.1615(4)
Li1A_3 Li -0.5495(7) 0.2518(4) -0.1615(4)
loop_
_geom_bond_atom_site_label_1
_geom_bond_atom_site_label_2
_geom_bond_site_symmetry_1
_geom_bond_site_symmetry_2
C1 C2 1_555 1_555
C2 H1 1_555 1_555
C3 C2 1_555 1_555
H2 C3 1_555 1_555
C4 C3 1_555 1_555
O1 C1 1_555 1_555
H3 O1 1_555 1_555
O2 C1 1_555 1_555
O3 C2 1_555 1_555
H4 O3 1_555 1_555
O4 C3 1_555 1_555
H5 O4 1_555 1_555
O5 C4 1_555 1_555
O6 C4 1_555 1_555
Li1 O3 1_555 1_555
O2A Li1 1_555 1_555
O4A Li1 1_555 1_555
H5A O4A 1_555 1_555
O5A Li1 1_555 1_555
O6A Li1 1_555 1_555
Li1A O2 1_555 1_555
Li1A_2 O4 1_555 1_555
Li1A_3 O5 1_555 1_555
O6 Li1A_2 1_555 1_555

#END
