
#######################################################################
#
#                 Cambridge Crystallographic Data Centre
#                                CCDC 
#
#######################################################################
#
# If this CIF has been generated from an entry in the Cambridge 
# Structural Database, then it will include bibliographic, chemical, 
# crystal, experimental, refinement or atomic coordinate data resulting 
# from the CCDC's data processing and validation procedures.
#
#######################################################################

data_UNIRUF02
_symmetry_cell_setting           monoclinic
_symmetry_space_group_name_H-M   'C 2'
_symmetry_Int_Tables_number      5
_space_group_name_Hall           'C 2y'
loop_
_symmetry_equiv_pos_site_id
_symmetry_equiv_pos_as_xyz
1 x,y,z
2 -x,y,-z
3 1/2+x,1/2+y,z
4 1/2-x,1/2+y,-z
_cell_length_a                   15.153(6)
_cell_length_b                   5.0136(8)
_cell_length_c                   10.376(4)
_cell_angle_alpha                90
_cell_angle_beta                 131.89(6)
_cell_angle_gamma                90
_cell_volume                     586.815
loop_
_atom_site_label
_atom_site_type_symbol
_atom_site_fract_x
_atom_site_fract_y
_atom_site_fract_z
O1 O 0.84048(9) 0.1911(2) 0.13932(13)
O2 O 1.05533(8) 0.3832(2) 0.44044(12)
H1 H 0.9936(17) 0.502(4) 0.382(2)
O3 O 0.60353(9) 0.06239(19) 0.03765(12)
H2 H 0.6037(17) -0.060(4) 0.095(2)
O4 O 0.89366(9) -0.2208(2) 0.24506(12)
O5 O 0.63447(9) 0.6596(2) 0.24962(13)
O6 O 0.68666(9) 0.2469(2) 0.35600(12)
C1 C 0.90817(12) 0.0275(3) 0.26029(17)
C2 C 1.01517(12) 0.1295(3) 0.44131(17)
H3 H 1.0803 0.0030 0.4915
C3 C 0.56746(11) 0.3147(3) 0.04961(17)
H4 H 0.5801 0.4447 -0.0072
C4 C 0.63620(12) 0.4117(3) 0.23421(17)
Li1 Li 0.6811(2) 0.0403(6) -0.0524(3)
Li2 Li 1.1749(2) 0.3998(5) 0.4220(3)
O1A O 1.15952(9) 0.1911(2) 0.86068(13)
O2A O 0.94467(8) 0.3832(2) 0.55956(12)
H1A H 1.0064(17) 0.502(4) 0.618(2)
O4A O 1.10634(9) -0.2208(2) 0.75494(12)
C1A C 1.09183(12) 0.0275(3) 0.73971(17)
C2A C 0.98483(12) 0.1295(3) 0.55869(17)
H3A H 0.9197 0.0030 0.5085
O3A O 0.39647(9) 0.06239(19) -0.03765(12)
H2A H 0.3963(17) -0.060(4) -0.095(2)
O5A O 0.36553(9) 0.6596(2) -0.24962(13)
O6A O 0.31334(9) 0.2469(2) -0.35600(12)
C3A C 0.43254(11) 0.3147(3) -0.04961(17)
H4A H 0.4199 0.4447 0.0072
C4A C 0.36380(12) 0.4117(3) -0.23421(17)
Li1A Li 0.3189(2) 0.0403(6) 0.0524(3)
Li2B Li 0.6749(2) 0.8998(5) 0.4220(3)
O1A_2 O 0.15952(9) 0.1911(2) -0.13932(13)
O1B O 0.34048(9) -0.3089(2) 0.13932(13)
O1C O 0.65952(9) -0.3089(2) -0.13932(13)
O2B O 0.55533(8) 0.8832(2) 0.44044(12)
O4B O 0.39366(9) 0.2792(2) 0.24506(12)
O4C O 0.60634(9) 0.2792(2) -0.24506(12)
O5B O 1.13447(9) 0.1596(2) 0.24962(13)
O6_2 O 0.68666(9) 1.2469(2) 0.35600(12)
O6A_2 O 1.31334(9) 0.2469(2) 0.64400(12)
O6B O 1.18666(9) 0.7469(2) 0.35600(12)
O6C O 0.81334(9) 0.7469(2) 0.64400(12)
Li1A_2 Li 1.3189(2) 0.0403(6) 1.0524(3)
Li1B Li 1.1811(2) -0.4597(6) 0.9476(3)
Li1B_2 Li 1.1811(2) 0.5403(6) 0.9476(3)
Li1C Li 0.8189(2) -0.4597(6) 0.0524(3)
Li1C_2 Li 0.8189(2) 0.5403(6) 0.0524(3)
Li2_2 Li 0.1749(2) 0.3998(5) -0.5780(3)
Li2A Li 0.8251(2) 0.3998(5) 0.5780(3)
Li2B_2 Li 0.6749(2) -0.1002(5) 0.4220(3)
Li2C Li 0.3251(2) -0.1002(5) -0.4220(3)
Li2C_2 Li 0.3251(2) 0.8998(5) -0.4220(3)
loop_
_geom_bond_atom_site_label_1
_geom_bond_atom_site_label_2
_geom_bond_site_symmetry_1
_geom_bond_site_symmetry_2
O1 C1 1_555 1_555
O2 H1 1_555 1_555
O3 H2 1_555 1_555
O4 C1 1_555 1_555
O5 C4 1_555 1_555
O6 C4 1_555 1_555
C1 C2 1_555 1_555
C2 O2 1_555 1_555
H3 C2 1_555 1_555
C3 O3 1_555 1_555
H4 C3 1_555 1_555
C4 C3 1_555 1_555
Li1 O1 1_555 1_555
Li2 O2 1_555 1_555
O1A C1A 1_555 1_555
O2A H1A 1_555 1_555
O4A C1A 1_555 1_555
C1A C2A 1_555 1_555
C2A C2 1_555 1_555
H3A C2A 1_555 1_555
O3A H2A 1_555 1_555
O5A C4A 1_555 1_555
O6A C4A 1_555 1_555
C3A C3 1_555 1_555
H4A C3A 1_555 1_555
C4A C3A 1_555 1_555
Li1A O3A 1_555 1_555
Li2B O5 1_555 1_555
O1A_2 Li1A 1_555 1_555
O1B Li1A 1_555 1_555
O1C Li1 1_555 1_555
O2B Li2B 1_555 1_555
O4B Li1A 1_555 1_555
O4C Li1 1_555 1_555
O5B Li2 1_555 1_555
O6_2 Li2B 1_555 1_555
O6A_2 Li2 1_555 1_555
O6B Li2 1_555 1_555
O6C Li2B 1_555 1_555
Li1A_2 O1A 1_555 1_555
Li1B O4A 1_555 1_555
Li1B_2 O1A 1_555 1_555
Li1C O4 1_555 1_555
Li1C_2 O1 1_555 1_555
Li2_2 O6A 1_555 1_555
Li2A O6 1_555 1_555
Li2B_2 O6 1_555 1_555
Li2C O6A 1_555 1_555
Li2C_2 O5A 1_555 1_555
O3 Li1 1_555 1_555
O2A C2A 1_555 1_555
O2A Li2A 1_555 1_555
O3A C3A 1_555 1_555
O1C Li1C 1_555 1_555
O6C Li2A 1_555 1_555

#END
