
#######################################################################
#
#                 Cambridge Crystallographic Data Centre
#                                CCDC 
#
#######################################################################
#
# If this CIF has been generated from an entry in the Cambridge 
# Structural Database, then it will include bibliographic, chemical, 
# crystal, experimental, refinement or atomic coordinate data resulting 
# from the CCDC's data processing and validation procedures.
#
#######################################################################

data_UNIRUF01
_symmetry_cell_setting           orthorhombic
_symmetry_space_group_name_H-M   'C 2 2 21'
_symmetry_Int_Tables_number      20
_space_group_name_Hall           'C 2n 2'
loop_
_symmetry_equiv_pos_site_id
_symmetry_equiv_pos_as_xyz
1 x,y,z
2 -x,-y,1/2+z
3 x,-y,-z
4 -x,y,1/2-z
5 1/2+x,1/2+y,z
6 1/2-x,1/2-y,1/2+z
7 1/2+x,1/2-y,-z
8 1/2-x,1/2+y,1/2-z
_cell_length_a                   5.5800(6)
_cell_length_b                   9.1055(6)
_cell_length_c                   12.0180(11)
_cell_angle_alpha                90
_cell_angle_beta                 90
_cell_angle_gamma                90
_cell_volume                     610.619
loop_
_atom_site_label
_atom_site_type_symbol
_atom_site_fract_x
_atom_site_fract_y
_atom_site_fract_z
O1 O 0.3004(4) 0.6905(2) 0.93429(18)
O2 O 0.1260(4) 0.4886(2) 0.86640(19)
O3 O 0.7115(4) 0.6376(2) 0.84039(19)
H1 H 0.842(8) 0.587(4) 0.854(3)
C1 C 0.3001(5) 0.5752(3) 0.8766(2)
C2 C 0.5286(5) 0.5349(3) 0.8134(3)
H2 H 0.578(6) 0.442(4) 0.842(3)
Li1 Li 0.1004(9) 0.7026(6) 1.0677(4)
O1C O 0.6996(4) 0.6905(2) 0.56571(18)
O1F O -0.1996(4) 0.8095(2) 1.06571(18)
O1B O 0.3004(4) 0.3095(2) 1.06571(18)
O1D O -0.1996(4) 0.1905(2) 0.93429(18)
O2C O 0.8740(4) 0.4886(2) 0.63360(19)
O2B O 0.1260(4) 0.5114(2) 1.13360(19)
O3C O 0.2885(4) 0.6376(2) 0.65961(19)
O3F O 0.2115(4) 0.8624(2) 1.15961(19)
O3D O 0.2115(4) 0.1376(2) 0.84039(19)
H1C H 0.158(8) 0.587(4) 0.646(3)
H1F H 0.342(8) 0.913(4) 1.146(3)
H1D H 0.342(8) 0.087(4) 0.854(3)
C1C C 0.6999(5) 0.5752(3) 0.6234(2)
C2C C 0.4714(5) 0.5349(3) 0.6866(3)
H2C H 0.422(6) 0.442(4) 0.658(3)
Li1C Li 0.8996(9) 0.7026(6) 0.4323(4)
Li1F Li 0.6004(9) 0.7974(6) 0.9323(4)
Li1B Li 0.1004(9) 0.2974(6) 0.9323(4)
Li1E Li 0.3996(9) 0.7974(6) 0.5677(4)
Li1A Li 0.8996(9) 0.2974(6) 0.5677(4)
loop_
_geom_bond_atom_site_label_1
_geom_bond_atom_site_label_2
_geom_bond_site_symmetry_1
_geom_bond_site_symmetry_2
O1 C1 1_555 1_555
O2 C1 1_555 1_555
O3 H1 1_555 1_555
C1 C2 1_555 1_555
C2 O3 1_555 1_555
H2 C2 1_555 1_555
Li1 O1 1_555 1_555
O1C C1C 1_555 1_555
O1F Li1 1_555 1_555
O1B Li1B 1_555 1_555
O1D Li1B 1_555 1_555
O2C C1C 1_555 1_555
O2B Li1 1_555 1_555
O3C H1C 1_555 1_555
O3F Li1 1_555 1_555
O3D H1D 1_555 1_555
H1F O3F 1_555 1_555
C1C C2C 1_555 1_555
C2C C2 1_555 1_555
H2C C2C 1_555 1_555
Li1C O1C 1_555 1_555
Li1F O1 1_555 1_555
Li1B O2 1_555 1_555
Li1E O1C 1_555 1_555
Li1A O2C 1_555 1_555
O3 Li1F 1_555 1_555
O3C C2C 1_555 1_555
O3C Li1E 1_555 1_555
O3D Li1B 1_555 1_555

#END
