
#######################################################################
#
#                 Cambridge Crystallographic Data Centre
#                                CCDC 
#
#######################################################################
#
# If this CIF has been generated from an entry in the Cambridge 
# Structural Database, then it will include bibliographic, chemical, 
# crystal, experimental, refinement or atomic coordinate data resulting 
# from the CCDC's data processing and validation procedures.
#
#######################################################################

data_UNISEQ01
_symmetry_cell_setting           monoclinic
_symmetry_space_group_name_H-M   'P 21/c'
_symmetry_Int_Tables_number      14
_space_group_name_Hall           '-P 2ybc'
loop_
_symmetry_equiv_pos_site_id
_symmetry_equiv_pos_as_xyz
1 x,y,z
2 -x,1/2+y,1/2-z
3 -x,-y,-z
4 x,1/2-y,1/2+z
_cell_length_a                   6.4777(5)
_cell_length_b                   5.0082(4)
_cell_length_c                   8.9897(8)
_cell_angle_alpha                90
_cell_angle_beta                 95.679(8)
_cell_angle_gamma                90
_cell_volume                     290.209
loop_
_atom_site_label
_atom_site_type_symbol
_atom_site_fract_x
_atom_site_fract_y
_atom_site_fract_z
O1 O 0.6723(2) 0.1846(3) 0.88637(18)
H1 H 0.682(5) 0.322(6) 0.951(3)
O2 O 0.8708(2) -0.0116(3) 1.16132(18)
O3 O 0.7654(2) -0.4146(3) 1.08362(18)
C1 C 0.7576(3) -0.1656(4) 1.0776(2)
C2 C 0.5958(3) -0.0395(4) 0.9610(3)
H2 H 0.5533 -0.1755 0.8857
Li1 Li 0.8713(6) 0.1567(7) 0.7385(4)
O1B O 0.3277(2) -0.1846(3) 1.11363(18)
H1B H 0.318(5) -0.322(6) 1.049(3)
O2B O 0.1292(2) 0.0116(3) 0.83868(18)
O3B O 0.2346(2) 0.4146(3) 0.91638(18)
C1B C 0.2424(3) 0.1656(4) 0.9224(2)
C2B C 0.4042(3) 0.0395(4) 1.0390(3)
H2B H 0.4467 0.1755 1.1143
Li1B Li 0.1287(6) -0.1567(7) 1.2615(4)
O2_2 O -0.1292(2) -0.0116(3) 1.16132(18)
O2A O 0.1292(2) -0.5116(3) 1.33868(18)
O2B_2 O 1.1292(2) 0.0116(3) 0.83868(18)
O2C O 0.8708(2) 0.5116(3) 0.66132(18)
O3A O 0.2346(2) 0.0854(3) 1.41638(18)
O3C O 0.7654(2) -0.0854(3) 0.58362(18)
Li1_2 Li -0.1287(6) 0.1567(7) 0.7385(4)
Li1A Li 0.1287(6) -0.3433(7) 0.7615(4)
Li1A_2 Li 0.1287(6) 0.6567(7) 0.7615(4)
Li1B_2 Li 1.1287(6) -0.1567(7) 1.2615(4)
Li1C Li 0.8713(6) -0.6567(7) 1.2385(4)
Li1C_2 Li 0.8713(6) 0.3433(7) 1.2385(4)
loop_
_geom_bond_atom_site_label_1
_geom_bond_atom_site_label_2
_geom_bond_site_symmetry_1
_geom_bond_site_symmetry_2
O1 H1 1_555 1_555
O2 C1 1_555 1_555
O3 C1 1_555 1_555
C1 C2 1_555 1_555
C2 O1 1_555 1_555
H2 C2 1_555 1_555
Li1 O1 1_555 1_555
O1B H1B 1_555 1_555
O2B C1B 1_555 1_555
O3B C1B 1_555 1_555
C1B C2B 1_555 1_555
C2B C2 1_555 1_555
H2B C2B 1_555 1_555
Li1B O1B 1_555 1_555
O2_2 Li1B 1_555 1_555
O2A Li1B 1_555 1_555
O2B_2 Li1 1_555 1_555
O2C Li1 1_555 1_555
O3A Li1B 1_555 1_555
O3C Li1 1_555 1_555
Li1_2 O2B 1_555 1_555
Li1A O2B 1_555 1_555
Li1A_2 O3B 1_555 1_555
Li1B_2 O2 1_555 1_555
Li1C O3 1_555 1_555
Li1C_2 O2 1_555 1_555
O1B C2B 1_555 1_555

#END
