
#######################################################################
#
#                 Cambridge Crystallographic Data Centre
#                                CCDC 
#
#######################################################################
#
# If this CIF has been generated from an entry in the Cambridge 
# Structural Database, then it will include bibliographic, chemical, 
# crystal, experimental, refinement or atomic coordinate data resulting 
# from the CCDC's data processing and validation procedures.
#
#######################################################################

data_UNISEQ02
_symmetry_cell_setting           monoclinic
_symmetry_space_group_name_H-M   'C c'
_symmetry_Int_Tables_number      9
_space_group_name_Hall           'C -2yc'
loop_
_symmetry_equiv_pos_site_id
_symmetry_equiv_pos_as_xyz
1 x,y,z
2 x,-y,1/2+z
3 1/2+x,1/2+y,z
4 1/2+x,1/2-y,1/2+z
_cell_length_a                   9.6880(5)
_cell_length_b                   5.3821(2)
_cell_length_c                   11.4090(6)
_cell_angle_alpha                90
_cell_angle_beta                 93.959(5)
_cell_angle_gamma                90
_cell_volume                     593.466
loop_
_atom_site_label
_atom_site_type_symbol
_atom_site_fract_x
_atom_site_fract_y
_atom_site_fract_z
Li1 Li -0.0581(4) -0.3937(7) -0.1747(3)
Li2 Li 0.2265(4) -0.4823(6) 0.1838(3)
O1 O 0.30416(16) 0.2250(3) 0.11560(13)
O2 O 0.07813(16) -0.2955(3) 0.10177(14)
O3 O 0.32601(15) -0.1673(3) 0.17992(13)
O4 O 0.32999(15) -0.1543(2) -0.10295(13)
O5 O -0.03120(14) -0.0699(3) -0.10841(12)
O6 O 0.14966(15) -0.3825(3) -0.17425(12)
C1 C 0.1147(2) -0.0496(4) 0.07205(17)
H1 H 0.0496 0.0657 0.1053
C2 C 0.2022(2) -0.2002(4) -0.11866(17)
C3 C 0.2602(2) 0.0060(4) 0.12620(17)
C4 C 0.1055(2) -0.0174(4) -0.06329(18)
H2 H 0.1302 0.1532 -0.0834
H3 H -0.017(3) -0.292(4) 0.110(2)
H4 H -0.083(3) 0.067(5) -0.105(2)
Li1B Li 0.4419(4) 0.1063(7) -0.1747(3)
Li1C Li 0.4419(4) -0.1063(7) 0.3253(3)
Li2_2 Li 0.2265(4) 0.5177(6) 0.1838(3)
Li2A Li 0.2265(4) -0.5177(6) -0.3162(3)
O1_2 O 0.30416(16) -0.7750(3) 0.11560(13)
O3C O -0.17399(15) -0.3327(3) -0.32008(13)
O4B O -0.17001(15) -0.6543(2) -0.10295(13)
O6A O 0.14966(15) -0.6175(3) 0.32575(12)
loop_
_geom_bond_atom_site_label_1
_geom_bond_atom_site_label_2
_geom_bond_site_symmetry_1
_geom_bond_site_symmetry_2
Li1 O5 1_555 1_555
Li2 O2 1_555 1_555
O1 C3 1_555 1_555
O2 C1 1_555 1_555
O3 Li2 1_555 1_555
O4 C2 1_555 1_555
O5 C4 1_555 1_555
O6 Li1 1_555 1_555
C1 H1 1_555 1_555
C2 O6 1_555 1_555
C3 O3 1_555 1_555
C4 C1 1_555 1_555
H2 C4 1_555 1_555
H3 O2 1_555 1_555
H4 O5 1_555 1_555
Li1B O4 1_555 1_555
Li1C O3 1_555 1_555
Li2_2 O1 1_555 1_555
Li2A O6 1_555 1_555
O1_2 Li2 1_555 1_555
O3C Li1 1_555 1_555
O4B Li1 1_555 1_555
O6A Li2 1_555 1_555
C1 C3 1_555 1_555
C2 C4 1_555 1_555

#END
