
#######################################################################
#
#                 Cambridge Crystallographic Data Centre
#                                CCDC 
#
#######################################################################
#
# If this CIF has been generated from an entry in the Cambridge 
# Structural Database, then it will include bibliographic, chemical, 
# crystal, experimental, refinement or atomic coordinate data resulting 
# from the CCDC's data processing and validation procedures.
#
#######################################################################

data_UNITUH
_symmetry_cell_setting           monoclinic
_symmetry_space_group_name_H-M   'P 21/n'
_symmetry_Int_Tables_number      14
_space_group_name_Hall           '-P 2yn'
loop_
_symmetry_equiv_pos_site_id
_symmetry_equiv_pos_as_xyz
1 x,y,z
2 1/2-x,1/2+y,1/2-z
3 -x,-y,-z
4 1/2+x,1/2-y,1/2+z
_cell_length_a                   10.623(3)
_cell_length_b                   16.369(5)
_cell_length_c                   12.362(4)
_cell_angle_alpha                90
_cell_angle_beta                 99.655(6)
_cell_angle_gamma                90
_cell_volume                     2119.15
loop_
_atom_site_label
_atom_site_type_symbol
_atom_site_fract_x
_atom_site_fract_y
_atom_site_fract_z
Nd1 Nd 0.57501(2) 0.117449(13) 0.047158(18)
Nd2 Nd 1.14549(2) 0.108260(13) -0.149970(18)
S1 S 0.32214(9) 0.05226(7) 0.12282(8)
O1 O 0.8030(3) 0.1315(2) 0.0236(3)
O2 O 0.9497(3) 0.1419(2) -0.0844(3)
O3 O 0.3851(3) 0.14196(19) -0.0935(2)
O4 O 0.2937(3) 0.1887(2) -0.2549(3)
O5 O 0.3936(3) 0.1282(2) 0.1546(3)
O6 O 0.4121(3) 0.00384(18) 0.0661(2)
O7 O 0.2053(3) 0.0694(2) 0.0436(2)
O8 O 0.2896(3) 0.0084(2) 0.2154(3)
O9 O 0.7167(3) 0.01610(18) 0.1689(2)
O10 O 0.6843(3) 0.1316(2) 0.2507(3)
O11 O 0.9751(3) -0.1784(2) 0.3067(3)
O12 O 0.9434(3) -0.2351(2) 0.4635(3)
O13 O 1.1501(3) 0.2542(2) -0.0939(3)
H1 H 1.0793 0.2747 -0.0842
H2 H 1.1696 0.2880 -0.1405
O14 O 1.0224(3) -0.0226(2) -0.1473(3)
H3 H 1.0562 -0.0677 -0.1608
H4 H 0.9469 -0.0218 -0.1330
N1 N 0.6174(3) 0.1702(2) -0.1371(3)
N2 N 0.8455(3) -0.0494(2) 0.3447(3)
C1 C 0.7363(4) 0.1819(3) -0.1553(4)
C2 C 0.7622(4) 0.2217(3) -0.2483(4)
H9 H 0.8457 0.2290 -0.2600
C3 C 0.6600(5) 0.2501(4) -0.3232(4)
H10 H 0.6746 0.2784 -0.3851
C4 C 0.5366(4) 0.2366(3) -0.3065(4)
H11 H 0.4671 0.2539 -0.3574
C5 C 0.5195(4) 0.1964(3) -0.2116(3)
C6 C 0.8387(4) 0.1493(3) -0.0664(3)
C7 C 0.3912(4) 0.1753(3) -0.1857(3)
C8 C 0.7895(4) 0.0216(3) 0.3603(3)
C9 C 0.7813(5) 0.0512(3) 0.4640(4)
H12 H 0.7462 0.1023 0.4731
C10 C 0.8268(5) 0.0026(3) 0.5537(4)
H13 H 0.8234 0.0209 0.6244
C11 C 0.8776(5) -0.0735(3) 0.5373(4)
H14 H 0.9045 -0.1082 0.5962
C12 C 0.8875(4) -0.0967(3) 0.4314(4)
C13 C 0.7273(4) 0.0609(3) 0.2548(3)
C14 C 0.9408(4) -0.1771(3) 0.3985(4)
Nd1B Nd 0.42499(2) -0.117449(13) -0.047158(18)
Nd1A Nd 0.92499(2) -0.382551(13) 0.452842(18)
Nd2_2 Nd 0.14549(2) 0.108260(13) -0.149970(18)
Nd2B Nd 0.85451(2) -0.108260(13) 0.149970(18)
O3_2 O 1.3851(3) 0.14196(19) -0.0935(2)
O4_2 O 1.2937(3) 0.1887(2) -0.2549(3)
O6B O 0.5879(3) -0.00384(18) -0.0661(2)
O7_2 O 1.2053(3) 0.0694(2) 0.0436(2)
O9B O 1.2833(3) -0.01610(18) -0.1689(2)
O11B O 1.0249(3) 0.1784(2) -0.3067(3)
O12A O 0.5566(3) 0.2649(2) 0.0365(3)
N2B N 1.1545(3) 0.0494(2) -0.3447(3)
O15 O -0.0583(6) 0.3545(4) 0.9152(6)
H5 H -0.0977 0.3836 0.8635
H6 H -0.1029 0.3534 0.9663
O16 O 0.4975(10) -0.0335(6) 0.3880(8)
H7 H 0.4286 -0.0280 0.3425
H8 H 0.5592 -0.0304 0.3524
loop_
_geom_bond_atom_site_label_1
_geom_bond_atom_site_label_2
_geom_bond_site_symmetry_1
_geom_bond_site_symmetry_2
Nd1 O1 1_555 1_555
Nd2 O2 1_555 1_555
S1 O5 1_555 1_555
O1 C6 1_555 1_555
O2 C6 1_555 1_555
O3 Nd1 1_555 1_555
O4 C7 1_555 1_555
O5 Nd1 1_555 1_555
O6 Nd1 1_555 1_555
O7 S1 1_555 1_555
O8 S1 1_555 1_555
O9 Nd1 1_555 1_555
O10 Nd1 1_555 1_555
O11 C14 1_555 1_555
O12 C14 1_555 1_555
O13 Nd2 1_555 1_555
H1 O13 1_555 1_555
H2 O13 1_555 1_555
O14 Nd2 1_555 1_555
H3 O14 1_555 1_555
H4 O14 1_555 1_555
O15 H5 1_555 1_555
H6 O15 1_555 1_555
O16 H7 1_555 1_555
H8 O16 1_555 1_555
N1 Nd1 1_555 1_555
N2 C8 1_555 1_555
C1 N1 1_555 1_555
C2 C1 1_555 1_555
H9 C2 1_555 1_555
C3 C2 1_555 1_555
H10 C3 1_555 1_555
C4 C3 1_555 1_555
H11 C4 1_555 1_555
C5 N1 1_555 1_555
C6 C1 1_555 1_555
C7 O3 1_555 1_555
C8 C9 1_555 1_555
C9 H12 1_555 1_555
C10 C9 1_555 1_555
H13 C10 1_555 1_555
C11 C10 1_555 1_555
H14 C11 1_555 1_555
C12 N2 1_555 1_555
C13 O9 1_555 1_555
C14 C12 1_555 1_555
Nd1B O6 1_555 1_555
Nd1A O12 1_555 1_555
Nd2_2 O3 1_555 1_555
Nd2B O9 1_555 1_555
O3_2 Nd2 1_555 1_555
O4_2 Nd2 1_555 1_555
O6B Nd1 1_555 1_555
O7_2 Nd2 1_555 1_555
O9B Nd2 1_555 1_555
O11B Nd2 1_555 1_555
O12A Nd1 1_555 1_555
N2B Nd2 1_555 1_555
S1 O6 1_555 1_555
O4 Nd2_2 1_555 1_555
O7 Nd2_2 1_555 1_555
O10 C13 1_555 1_555
O11 Nd2B 1_555 1_555
N2 Nd2B 1_555 1_555
C4 C5 1_555 1_555
C5 C7 1_555 1_555
C8 C13 1_555 1_555
C11 C12 1_555 1_555
Nd1B O6B 1_555 1_555

#END
