
#######################################################################
#
#                 Cambridge Crystallographic Data Centre
#                                CCDC 
#
#######################################################################
#
# If this CIF has been generated from an entry in the Cambridge 
# Structural Database, then it will include bibliographic, chemical, 
# crystal, experimental, refinement or atomic coordinate data resulting 
# from the CCDC's data processing and validation procedures.
#
#######################################################################

data_UNITOB
_symmetry_cell_setting           triclinic
_symmetry_space_group_name_H-M   'P -1'
_symmetry_Int_Tables_number      2
_space_group_name_Hall           '-P 1'
loop_
_symmetry_equiv_pos_site_id
_symmetry_equiv_pos_as_xyz
1 x,y,z
2 -x,-y,-z
_cell_length_a                   10.0495(2)
_cell_length_b                   11.0245(4)
_cell_length_c                   18.1435(4)
_cell_angle_alpha                81.327(7)
_cell_angle_beta                 78.600(5)
_cell_angle_gamma                79.416(6)
_cell_volume                     1923.23
loop_
_atom_site_label
_atom_site_type_symbol
_atom_site_fract_x
_atom_site_fract_y
_atom_site_fract_z
Eu1 Eu 0.25525(3) -0.26776(2) 0.296809(14)
Eu2 Eu 0.27738(2) -0.71822(2) 0.135740(14)
Eu3 Eu 0.88602(2) -0.41517(2) 0.094540(14)
S1 S 0.24861(12) -0.43688(12) 0.00178(7)
N1 N 0.0787(4) -0.3992(4) 0.3696(2)
N2 N 0.3903(5) -0.1438(4) 0.3560(3)
N3 N 0.7845(4) -0.5405(4) 0.2130(2)
N4 N -0.1030(4) -0.1854(4) 0.0867(2)
O1 O 0.0842(4) -0.1752(4) 0.3993(2)
O2 O -0.1182(5) -0.1699(5) 0.4788(3)
O3 O 0.2903(4) -0.4820(4) 0.2700(2)
O4 O 0.1956(4) -0.6437(4) 0.2577(2)
O5 O 0.3479(4) -0.3697(4) 0.4134(2)
O6 O 0.5050(5) -0.3879(4) 0.4876(2)
H1 H 0.4202 -0.4026 0.5256
O7 O 0.2689(4) -0.0575(4) 0.2400(2)
O8 O 0.3604(4) 0.1170(4) 0.2195(2)
O9 O 1.0523(4) -0.7963(3) 0.2018(2)
O10 O 1.0283(4) -0.6092(4) 0.1380(2)
O11 O 0.6797(4) -0.3119(4) 0.1663(2)
O12 O 0.4954(4) -0.3128(4) 0.2574(2)
O13 O 0.0005(4) -0.3567(4) 0.1852(2)
O14 O 0.0466(4) -0.2141(4) 0.2489(2)
O15 O -0.1991(4) -0.2781(3) -0.0120(2)
O16 O -0.2574(4) -0.0954(4) -0.0756(2)
O17 O 0.3049(5) -0.2767(5) 0.1563(3)
O18 O 0.4849(4) -0.7821(4) 0.0505(2)
H2 H 0.5117 -0.8602 0.0540
H3 H 0.5551 -0.7469 0.0334
O19 O 0.4681(4) -0.6321(4) 0.1686(2)
H4 H 0.5295 -0.6618 0.1954
H5 H 0.4865 -0.5624 0.1457
O20 O 0.0971(3) -0.4336(3) 0.0049(2)
O21 O 0.3136(4) -0.4966(4) -0.0668(2)
O22 O 0.2897(4) -0.5115(3) 0.0705(2)
O23 O 0.2794(4) -0.3128(4) -0.0030(2)
C1 C -0.0273(5) -0.3518(6) 0.4193(3)
C2 C -0.1352(6) -0.4161(6) 0.4521(3)
H12 H -0.2088 -0.3806 0.4860
C3 C -0.1308(7) -0.5330(7) 0.4333(4)
H13 H -0.2001 -0.5791 0.4557
C4 C -0.0227(6) -0.5813(6) 0.3809(3)
H14 H -0.0189 -0.6598 0.3669
C5 C 0.0793(6) -0.5117(5) 0.3496(3)
C6 C -0.0200(6) -0.2220(6) 0.4333(3)
C7 C 0.1982(6) -0.5507(5) 0.2880(3)
C8 C 0.4598(6) -0.1980(5) 0.4109(3)
C9 C 0.5532(9) -0.1430(7) 0.4337(4)
H15 H 0.5989 -0.1822 0.4728
C10 C 0.5789(11) -0.0263(8) 0.3970(6)
H16 H 0.6433 0.0128 0.4107
C11 C 0.5077(9) 0.0293(7) 0.3405(5)
H17 H 0.5208 0.1080 0.3164
C12 C 0.4157(6) -0.0335(5) 0.3199(3)
C13 C 0.4331(6) -0.3277(5) 0.4396(3)
C14 C 0.3404(6) 0.0122(5) 0.2545(3)
C15 C 0.8420(5) -0.6567(5) 0.2337(3)
C16 C 0.7797(6) -0.7320(5) 0.2935(3)
H18 H 0.8206 -0.8136 0.3055
C17 C 0.6559(6) -0.6842(6) 0.3352(3)
H19 H 0.6122 -0.7328 0.3759
C18 C 0.5981(6) -0.5632(5) 0.3154(3)
H20 H 0.5162 -0.5282 0.3437
C19 C 0.6632(5) -0.4939(5) 0.2528(3)
C20 C 0.9810(5) -0.6925(5) 0.1886(3)
C21 C 0.6075(5) -0.3626(5) 0.2234(3)
C22 C -0.0578(6) -0.1445(5) 0.1411(3)
C23 C -0.0648(7) -0.0178(6) 0.1457(4)
H21 H -0.0300 0.0087 0.1833
C24 C -0.1242(8) 0.0654(6) 0.0935(4)
H22 H -0.1310 0.1502 0.0954
C25 C -0.1746(7) 0.0236(6) 0.0375(3)
H23 H -0.2166 0.0796 0.0020
C26 C -0.1611(5) -0.1019(5) 0.0358(3)
C27 C 0.0024(5) -0.2479(5) 0.1960(3)
C28 C -0.2094(5) -0.1593(5) -0.0217(3)
Eu2_2 Eu 0.27738(2) 0.28178(2) 0.135740(14)
Eu2_3 Eu 1.27738(2) -0.71822(2) 0.135740(14)
Eu2A Eu -0.27738(2) -0.28178(2) -0.135740(14)
Eu3_2 Eu -0.11398(2) -0.41517(2) 0.094540(14)
Eu3A Eu 0.11398(2) -0.58483(2) -0.094540(14)
N4_2 N 0.8970(4) -0.1854(4) 0.0867(2)
O8_2 O 0.3604(4) -0.8830(4) 0.2195(2)
O9_2 O 0.0523(4) -0.7963(3) 0.2018(2)
O10_2 O 0.0283(4) -0.6092(4) 0.1380(2)
O13_2 O 1.0005(4) -0.3567(4) 0.1852(2)
O15A O 0.1991(4) -0.7219(3) 0.0120(2)
O15_2 O 0.8009(4) -0.2781(3) -0.0120(2)
O16A O 0.2574(4) -0.9046(4) 0.0756(2)
O20A O 0.9029(3) -0.5664(3) -0.0049(2)
O20_2 O 1.0971(3) -0.4336(3) 0.0049(2)
O21A O 0.6864(4) -0.5034(4) 0.0668(2)
O24 O 0.0589(10) 0.0971(7) 0.3613(4)
H6 H 0.0835 0.1485 0.3234
H7 H 0.0378 0.0363 0.3448
O25 O 0.5002(5) 0.1208(5) -0.0842(3)
H8 H 0.5827 0.1221 -0.1065
H9 H 0.4484 0.1729 -0.1098
O26 O -0.1602(10) 0.0810(10) 0.4713(6)
H10 H -0.1987 0.0277 0.5032
H11 H -0.1847 0.1510 0.4884
loop_
_geom_bond_atom_site_label_1
_geom_bond_atom_site_label_2
_geom_bond_site_symmetry_1
_geom_bond_site_symmetry_2
Eu1 N1 1_555 1_555
Eu2 O4 1_555 1_555
Eu3 N3 1_555 1_555
S1 O20 1_555 1_555
N1 C1 1_555 1_555
N2 Eu1 1_555 1_555
N3 C15 1_555 1_555
N4 C22 1_555 1_555
O1 Eu1 1_555 1_555
O2 C6 1_555 1_555
O3 Eu1 1_555 1_555
O4 C7 1_555 1_555
O5 Eu1 1_555 1_555
O6 H1 1_555 1_555
O7 Eu1 1_555 1_555
O8 C14 1_555 1_555
O9 C20 1_555 1_555
O10 Eu3 1_555 1_555
O11 Eu3 1_555 1_555
O12 Eu1 1_555 1_555
O13 C27 1_555 1_555
O14 Eu1 1_555 1_555
O15 C28 1_555 1_555
O16 C28 1_555 1_555
O17 Eu1 1_555 1_555
O18 Eu2 1_555 1_555
H2 O18 1_555 1_555
H3 O18 1_555 1_555
O19 Eu2 1_555 1_555
H4 O19 1_555 1_555
H5 O19 1_555 1_555
O20 Eu3_2 1_555 1_555
O21 S1 1_555 1_555
O22 Eu2 1_555 1_555
O23 S1 1_555 1_555
O24 H6 1_555 1_555
H7 O24 1_555 1_555
O25 H8 1_555 1_555
H9 O25 1_555 1_555
O26 H10 1_555 1_555
H11 O26 1_555 1_555
C1 C2 1_555 1_555
C2 H12 1_555 1_555
C3 C2 1_555 1_555
H13 C3 1_555 1_555
C4 C3 1_555 1_555
H14 C4 1_555 1_555
C5 N1 1_555 1_555
C6 O1 1_555 1_555
C7 O3 1_555 1_555
C8 N2 1_555 1_555
C9 C8 1_555 1_555
H15 C9 1_555 1_555
C10 C9 1_555 1_555
H16 C10 1_555 1_555
C11 C10 1_555 1_555
H17 C11 1_555 1_555
C12 N2 1_555 1_555
C13 O5 1_555 1_555
C14 O7 1_555 1_555
C15 C16 1_555 1_555
C16 H18 1_555 1_555
C17 C16 1_555 1_555
H19 C17 1_555 1_555
C18 C17 1_555 1_555
H20 C18 1_555 1_555
C19 N3 1_555 1_555
C20 O10 1_555 1_555
C21 O11 1_555 1_555
C22 C23 1_555 1_555
C23 H21 1_555 1_555
C24 C23 1_555 1_555
H22 C24 1_555 1_555
C25 C24 1_555 1_555
H23 C25 1_555 1_555
C26 N4 1_555 1_555
C27 O14 1_555 1_555
C28 C26 1_555 1_555
Eu2_2 O8 1_555 1_555
Eu2_3 O9 1_555 1_555
Eu2A O15 1_555 1_555
Eu3_2 N4 1_555 1_555
Eu3A O20 1_555 1_555
N4_2 Eu3 1_555 1_555
O8_2 Eu2 1_555 1_555
O9_2 Eu2 1_555 1_555
O10_2 Eu2 1_555 1_555
O13_2 Eu3 1_555 1_555
O15A Eu2 1_555 1_555
O15_2 Eu3 1_555 1_555
O16A Eu2 1_555 1_555
O20A Eu3 1_555 1_555
O20_2 Eu3 1_555 1_555
O21A Eu3 1_555 1_555
S1 O22 1_555 1_555
O6 C13 1_555 1_555
O10 Eu2_3 1_555 1_555
O12 C21 1_555 1_555
O13 Eu3_2 1_555 1_555
O15 Eu3_2 1_555 1_555
O16 Eu2A 1_555 1_555
O21 Eu3A 1_555 1_555
C1 C6 1_555 1_555
C4 C5 1_555 1_555
C5 C7 1_555 1_555
C8 C13 1_555 1_555
C11 C12 1_555 1_555
C12 C14 1_555 1_555
C15 C20 1_555 1_555
C18 C19 1_555 1_555
C19 C21 1_555 1_555
C22 C27 1_555 1_555
C25 C26 1_555 1_555
Eu3_2 O10_2 1_555 1_555
Eu3A O15A 1_555 1_555

#END
