
#######################################################################
#
#                 Cambridge Crystallographic Data Centre
#                                CCDC 
#
#######################################################################
#
# If this CIF has been generated from an entry in the Cambridge 
# Structural Database, then it will include bibliographic, chemical, 
# crystal, experimental, refinement or atomic coordinate data resulting 
# from the CCDC's data processing and validation procedures.
#
#######################################################################

data_UNIVUJ
_symmetry_cell_setting           monoclinic
_symmetry_space_group_name_H-M   'P 21/n'
_symmetry_Int_Tables_number      14
_space_group_name_Hall           '-P 2yn'
loop_
_symmetry_equiv_pos_site_id
_symmetry_equiv_pos_as_xyz
1 x,y,z
2 1/2-x,1/2+y,1/2-z
3 -x,-y,-z
4 1/2+x,1/2-y,1/2+z
_cell_length_a                   10.6886(5)
_cell_length_b                   16.4787(7)
_cell_length_c                   12.4214(6)
_cell_angle_alpha                90
_cell_angle_beta                 100.007(4)
_cell_angle_gamma                90
_cell_volume                     2154.55
loop_
_atom_site_label
_atom_site_type_symbol
_atom_site_fract_x
_atom_site_fract_y
_atom_site_fract_z
Ce1 Ce -0.07496(3) 0.118615(19) -0.04786(3)
Ce2 Ce -0.64376(3) 0.108270(19) 0.15106(3)
S1 S 0.17799(14) 0.05185(9) -0.12288(11)
O1 O 0.1144(4) 0.1422(3) 0.0972(3)
O2 O 0.2073(4) 0.1905(3) 0.2559(4)
O3 O -0.3022(4) 0.1324(3) -0.0214(4)
O4 O -0.4465(4) 0.1428(3) 0.0868(4)
O5 O 0.0893(4) 0.0042(2) -0.0653(3)
O6 O 0.1075(5) 0.1275(3) -0.1541(4)
O7 O 0.2948(4) 0.0694(3) -0.0446(4)
O8 O 0.2096(5) 0.0080(3) -0.2152(4)
O9 O -0.2193(4) 0.0168(3) -0.1719(3)
O10 O -0.1859(5) 0.1310(3) -0.2542(4)
O11 O -0.4771(4) -0.1774(3) -0.3113(4)
O12 O -0.4465(5) -0.2334(3) -0.4676(4)
O13 O -0.5207(5) -0.0239(3) 0.1466(4)
H1 H -0.5748 -0.0599 0.1210
H2 H -0.4492 -0.0381 0.1317
O14 O -0.6450(5) 0.2550(3) 0.0954(4)
H3 H -0.6935 0.2633 0.0346
H4 H -0.6823 0.2731 0.1456
N1 N -0.1168(5) 0.1706(3) 0.1387(4)
N2 N -0.3457(5) -0.0497(3) -0.3474(4)
C1 C -0.0187(6) 0.1972(4) 0.2140(5)
C2 C -0.0352(7) 0.2367(4) 0.3075(5)
H9 H 0.0342 0.2536 0.3584
C3 C -0.1580(7) 0.2507(5) 0.3241(6)
H10 H -0.1724 0.2792 0.3854
C4 C -0.2595(6) 0.2220(4) 0.2487(5)
H11 H -0.3427 0.2295 0.2595
C5 C -0.2343(6) 0.1821(4) 0.1575(5)
C6 C 0.1097(6) 0.1757(3) 0.1883(5)
C7 C -0.3364(6) 0.1499(4) 0.0674(5)
C8 C -0.2900(6) 0.0205(4) -0.3630(5)
C9 C -0.2814(7) 0.0504(4) -0.4658(5)
H12 H -0.2463 0.1012 -0.4743
C10 C -0.3272(7) 0.0018(5) -0.5562(5)
H13 H -0.3230 0.0196 -0.6265
C11 C -0.3785(7) -0.0728(4) -0.5399(5)
H14 H -0.4058 -0.1072 -0.5986
C12 C -0.3889(6) -0.0958(4) -0.4339(5)
C13 C -0.2279(6) 0.0603(4) -0.2568(5)
C14 C -0.4423(6) -0.1752(4) -0.4019(5)
Ce1B Ce 0.07496(3) -0.118615(19) 0.04786(3)
Ce1A Ce -0.42504(3) -0.381385(19) -0.45214(3)
Ce2_2 Ce 0.35624(3) 0.108270(19) 0.15106(3)
Ce2B Ce -0.35624(3) -0.108270(19) -0.15106(3)
O1_2 O -0.8856(4) 0.1422(3) 0.0972(3)
O2_2 O -0.7927(4) 0.1905(3) 0.2559(4)
O5B O -0.0893(4) -0.0042(2) 0.0653(3)
O7_2 O -0.7052(4) 0.0694(3) -0.0446(4)
O9B O -0.7807(4) -0.0168(3) 0.1719(3)
O11B O -0.5229(4) 0.1774(3) 0.3113(4)
O12A O -0.0535(5) 0.2666(3) -0.0324(4)
N2B N -0.6543(5) 0.0497(3) 0.3474(4)
O15 O 0.5618(9) 0.3516(6) 0.0837(8)
H5 H 0.6040 0.3780 0.0433
H6 H 0.5346 0.3853 0.1259
O16 O -0.0018(13) -0.0319(8) -0.3840(10)
H7 H 0.0685 -0.0541 -0.3573
H8 H -0.0588 -0.0525 -0.3525
loop_
_geom_bond_atom_site_label_1
_geom_bond_atom_site_label_2
_geom_bond_site_symmetry_1
_geom_bond_site_symmetry_2
Ce1 O1 1_555 1_555
Ce2 O4 1_555 1_555
S1 O5 1_555 1_555
O1 C6 1_555 1_555
O2 C6 1_555 1_555
O3 Ce1 1_555 1_555
O4 C7 1_555 1_555
O5 Ce1 1_555 1_555
O6 Ce1 1_555 1_555
O7 S1 1_555 1_555
O8 S1 1_555 1_555
O9 Ce1 1_555 1_555
O10 Ce1 1_555 1_555
O11 C14 1_555 1_555
O12 C14 1_555 1_555
O13 Ce2 1_555 1_555
H1 O13 1_555 1_555
H2 O13 1_555 1_555
O14 Ce2 1_555 1_555
H3 O14 1_555 1_555
H4 O14 1_555 1_555
O15 H5 1_555 1_555
H6 O15 1_555 1_555
O16 H7 1_555 1_555
H8 O16 1_555 1_555
N1 Ce1 1_555 1_555
N2 C8 1_555 1_555
C1 N1 1_555 1_555
C2 C1 1_555 1_555
H9 C2 1_555 1_555
C3 C2 1_555 1_555
H10 C3 1_555 1_555
C4 C3 1_555 1_555
H11 C4 1_555 1_555
C5 N1 1_555 1_555
C6 C1 1_555 1_555
C7 O3 1_555 1_555
C8 C9 1_555 1_555
C9 H12 1_555 1_555
C10 C9 1_555 1_555
H13 C10 1_555 1_555
C11 C10 1_555 1_555
H14 C11 1_555 1_555
C12 N2 1_555 1_555
C13 O9 1_555 1_555
C14 C12 1_555 1_555
Ce1B O5 1_555 1_555
Ce1A O12 1_555 1_555
Ce2_2 O1 1_555 1_555
Ce2B O9 1_555 1_555
O1_2 Ce2 1_555 1_555
O2_2 Ce2 1_555 1_555
O5B Ce1 1_555 1_555
O7_2 Ce2 1_555 1_555
O9B Ce2 1_555 1_555
O11B Ce2 1_555 1_555
O12A Ce1 1_555 1_555
N2B Ce2 1_555 1_555
S1 O6 1_555 1_555
O2 Ce2_2 1_555 1_555
O7 Ce2_2 1_555 1_555
O10 C13 1_555 1_555
O11 Ce2B 1_555 1_555
N2 Ce2B 1_555 1_555
C4 C5 1_555 1_555
C5 C7 1_555 1_555
C8 C13 1_555 1_555
C11 C12 1_555 1_555
Ce1B O5B 1_555 1_555

#END
