
#######################################################################
#
#                 Cambridge Crystallographic Data Centre
#                                CCDC 
#
#######################################################################
#
# If this CIF has been generated from an entry in the Cambridge 
# Structural Database, then it will include bibliographic, chemical, 
# crystal, experimental, refinement or atomic coordinate data resulting 
# from the CCDC's data processing and validation procedures.
#
#######################################################################

data_UNIVAP
_symmetry_cell_setting           monoclinic
_symmetry_space_group_name_H-M   'P 21/n'
_symmetry_Int_Tables_number      14
_space_group_name_Hall           '-P 2yn'
loop_
_symmetry_equiv_pos_site_id
_symmetry_equiv_pos_as_xyz
1 x,y,z
2 1/2-x,1/2+y,1/2-z
3 -x,-y,-z
4 1/2+x,1/2-y,1/2+z
_cell_length_a                   10.577(5)
_cell_length_b                   16.299(8)
_cell_length_c                   12.333(6)
_cell_angle_alpha                90
_cell_angle_beta                 99.566(10)
_cell_angle_gamma                90
_cell_volume                     2096.58
loop_
_atom_site_label
_atom_site_type_symbol
_atom_site_fract_x
_atom_site_fract_y
_atom_site_fract_z
Sm1 Sm -0.07533(3) 0.116820(18) -0.04640(2)
Sm2 Sm -0.64678(3) 0.108300(19) 0.14928(2)
S1 S 0.17755(13) 0.05264(9) -0.12199(12)
O1 O -0.3027(4) 0.1308(3) -0.0252(4)
O2 O -0.4523(4) 0.1415(3) 0.0822(4)
O3 O 0.1127(4) 0.1420(3) 0.0910(3)
O4 O 0.2058(4) 0.1879(3) 0.2532(4)
O5 O 0.0868(4) 0.0028(3) -0.0663(3)
O6 O 0.2945(4) 0.0696(3) -0.0424(3)
O7 O 0.2121(5) 0.0086(3) -0.2151(4)
O8 O 0.1059(4) 0.1294(3) -0.1520(4)
O9 O -0.2145(4) 0.0154(3) -0.1670(3)
O10 O -0.1828(5) 0.1323(3) -0.2471(4)
O11 O -0.4738(4) -0.1793(3) -0.3038(4)
O12 O -0.4425(5) -0.2367(3) -0.4605(4)
O13 O -0.5234(5) -0.0209(3) 0.1490(4)
H1 H -0.5766 -0.0587 0.1264
H2 H -0.4498 -0.0366 0.1383
O14 O -0.6505(5) 0.2531(3) 0.0944(4)
H3 H -0.6941 0.2642 0.0318
H4 H -0.6717 0.2872 0.1404
N1 N -0.1185(5) 0.1703(3) 0.1354(4)
N2 N -0.3450(5) -0.0499(3) -0.3426(4)
C1 C -0.2378(6) 0.1824(4) 0.1542(5)
C2 C -0.2644(6) 0.2218(4) 0.2473(6)
H9 H -0.3483 0.2282 0.2595
C3 C -0.1613(6) 0.2515(5) 0.3222(6)
H10 H -0.1762 0.2809 0.3835
C4 C -0.0366(6) 0.2375(4) 0.3056(5)
H11 H 0.0334 0.2551 0.3561
C5 C -0.0205(6) 0.1960(4) 0.2100(5)
C6 C -0.3407(6) 0.1490(4) 0.0637(5)
C7 C 0.1085(6) 0.1745(4) 0.1850(5)
C8 C -0.2897(6) 0.0214(4) -0.3590(5)
C9 C -0.2814(7) 0.0516(4) -0.4626(5)
H12 H -0.2463 0.1030 -0.4717
C10 C -0.3281(7) 0.0017(5) -0.5534(5)
H13 H -0.3255 0.0197 -0.6246
C11 C -0.3772(7) -0.0736(4) -0.5357(5)
H14 H -0.4035 -0.1089 -0.5943
C12 C -0.3875(6) -0.0969(4) -0.4298(5)
C13 C -0.2263(5) 0.0600(4) -0.2531(5)
C14 C -0.4397(6) -0.1779(4) -0.3968(5)
Sm1B Sm 0.07533(3) -0.116820(18) 0.04640(2)
Sm1A Sm -0.42467(3) -0.383180(18) -0.45360(2)
Sm2_2 Sm 0.35322(3) 0.108300(19) 0.14928(2)
Sm2B Sm -0.35322(3) -0.108300(19) -0.14928(2)
O3_2 O -0.8873(4) 0.1420(3) 0.0910(3)
O4_2 O -0.7942(4) 0.1879(3) 0.2532(4)
O5B O -0.0868(4) -0.0028(3) 0.0663(3)
O6_2 O -0.7055(4) 0.0696(3) -0.0424(3)
O9B O -0.7855(4) -0.0154(3) 0.1670(3)
O11B O -0.5262(4) 0.1793(3) 0.3038(4)
O12A O -0.0575(5) 0.2633(3) -0.0395(4)
N2B N -0.6550(5) 0.0499(3) 0.3426(4)
O15 O -0.5587(8) -0.3550(6) -0.0862(8)
H5 H -0.6077 -0.3893 -0.0619
H6 H -0.5799 -0.3074 -0.0679
O16 O -0.0005(13) 0.0332(9) 0.3868(11)
H7 H 0.0318 0.0766 0.3648
H8 H -0.0811 0.0401 0.3793
loop_
_geom_bond_atom_site_label_1
_geom_bond_atom_site_label_2
_geom_bond_site_symmetry_1
_geom_bond_site_symmetry_2
Sm1 O1 1_555 1_555
Sm2 O2 1_555 1_555
S1 O5 1_555 1_555
O1 C6 1_555 1_555
O2 C6 1_555 1_555
O3 Sm1 1_555 1_555
O4 C7 1_555 1_555
O5 Sm1 1_555 1_555
O6 S1 1_555 1_555
O7 S1 1_555 1_555
O8 Sm1 1_555 1_555
O9 Sm1 1_555 1_555
O10 Sm1 1_555 1_555
O11 C14 1_555 1_555
O12 C14 1_555 1_555
O13 Sm2 1_555 1_555
H1 O13 1_555 1_555
H2 O13 1_555 1_555
O14 Sm2 1_555 1_555
H3 O14 1_555 1_555
H4 O14 1_555 1_555
O15 H5 1_555 1_555
H6 O15 1_555 1_555
O16 H7 1_555 1_555
H8 O16 1_555 1_555
N1 Sm1 1_555 1_555
N2 C8 1_555 1_555
C1 N1 1_555 1_555
C2 C1 1_555 1_555
H9 C2 1_555 1_555
C3 C2 1_555 1_555
H10 C3 1_555 1_555
C4 C3 1_555 1_555
H11 C4 1_555 1_555
C5 N1 1_555 1_555
C6 C1 1_555 1_555
C7 O3 1_555 1_555
C8 C9 1_555 1_555
C9 H12 1_555 1_555
C10 C9 1_555 1_555
H13 C10 1_555 1_555
C11 C10 1_555 1_555
H14 C11 1_555 1_555
C12 N2 1_555 1_555
C13 O9 1_555 1_555
C14 C12 1_555 1_555
Sm1B O5 1_555 1_555
Sm1A O12 1_555 1_555
Sm2_2 O3 1_555 1_555
Sm2B O9 1_555 1_555
O3_2 Sm2 1_555 1_555
O4_2 Sm2 1_555 1_555
O5B Sm1 1_555 1_555
O6_2 Sm2 1_555 1_555
O9B Sm2 1_555 1_555
O11B Sm2 1_555 1_555
O12A Sm1 1_555 1_555
N2B Sm2 1_555 1_555
S1 O8 1_555 1_555
O4 Sm2_2 1_555 1_555
O6 Sm2_2 1_555 1_555
O10 C13 1_555 1_555
O11 Sm2B 1_555 1_555
N2 Sm2B 1_555 1_555
C4 C5 1_555 1_555
C5 C7 1_555 1_555
C8 C13 1_555 1_555
C11 C12 1_555 1_555
Sm1B O5B 1_555 1_555

#END
