
#######################################################################
#
#                 Cambridge Crystallographic Data Centre
#                                CCDC 
#
#######################################################################
#
# If this CIF has been generated from an entry in the Cambridge 
# Structural Database, then it will include bibliographic, chemical, 
# crystal, experimental, refinement or atomic coordinate data resulting 
# from the CCDC's data processing and validation procedures.
#
#######################################################################

data_UNIVIX
_symmetry_cell_setting           monoclinic
_symmetry_space_group_name_H-M   'P 21/n'
_symmetry_Int_Tables_number      14
_space_group_name_Hall           '-P 2yn'
loop_
_symmetry_equiv_pos_site_id
_symmetry_equiv_pos_as_xyz
1 x,y,z
2 1/2-x,1/2+y,1/2-z
3 -x,-y,-z
4 1/2+x,1/2-y,1/2+z
_cell_length_a                   10.6611(9)
_cell_length_b                   16.4266(11)
_cell_length_c                   12.4018(8)
_cell_angle_alpha                90
_cell_angle_beta                 99.793(7)
_cell_angle_gamma                90
_cell_volume                     2140.23
loop_
_atom_site_label
_atom_site_type_symbol
_atom_site_fract_x
_atom_site_fract_y
_atom_site_fract_z
Pr1 Pr 0.57496(3) 0.118045(19) 1.04743(2)
Pr2 Pr 1.14464(3) 0.10821(2) 0.84945(3)
S1 S 0.32176(13) 0.05223(9) 1.12267(11)
O1 O 0.8025(4) 0.1322(3) 1.0226(3)
O2 O 0.9482(4) 0.1424(3) 0.9147(4)
O3 O 0.3849(4) 0.1421(3) 0.9047(3)
O4 O 0.2932(4) 0.1898(3) 0.7446(3)
O5 O 0.4110(4) 0.0044(3) 1.0656(3)
O6 O 0.3925(4) 0.1277(3) 1.1543(4)
O7 O 0.2046(4) 0.0692(3) 1.0437(3)
O8 O 0.2899(4) 0.0085(3) 1.2156(4)
O9 O 0.7186(4) 0.0167(3) 1.1705(3)
O10 O 0.6862(5) 0.1320(3) 1.2525(4)
O11 O 0.9764(4) -0.1776(3) 1.3090(3)
O12 O 0.9454(4) -0.2346(3) 1.4652(4)
O13 O 1.1481(5) 0.2544(3) 0.9057(4)
H1 H 1.1960 0.2624 0.9669
H2 H 1.1850 0.2745 0.8562
O14 O 1.0217(4) -0.0232(3) 0.8524(4)
H3 H 1.0554 -0.0681 0.8389
H4 H 0.9467 -0.0225 0.8671
N1 N 0.6171(5) 0.1698(3) 0.8615(4)
N2 N 0.8451(4) -0.0492(3) 1.3452(4)
C1 C 0.7354(5) 0.1819(4) 0.8431(5)
C2 C 0.7599(6) 0.2213(4) 0.7512(5)
H9 H 0.8432 0.2285 0.7399
C3 C 0.6587(7) 0.2503(5) 0.6753(6)
H10 H 0.6736 0.2788 0.6139
C4 C 0.5354(6) 0.2364(5) 0.6922(5)
H11 H 0.4660 0.2534 0.6413
C5 C 0.5183(5) 0.1966(4) 0.7871(5)
C6 C 0.8370(5) 0.1491(4) 0.9328(5)
C7 C 0.3907(5) 0.1755(4) 0.8123(5)
C8 C 0.7901(5) 0.0212(4) 1.3617(4)
C9 C 0.7807(6) 0.0510(4) 1.4650(5)
H12 H 0.7455 0.1019 1.4736
C10 C 0.8257(7) 0.0023(4) 1.5549(5)
H13 H 0.8198 0.0196 1.6252
C11 C 0.8791(6) -0.0724(4) 1.5382(5)
H14 H 0.9087 -0.1063 1.5971
C12 C 0.8879(6) -0.0957(4) 1.4332(5)
C13 C 0.7281(5) 0.0612(4) 1.2561(5)
C14 C 0.9419(5) -0.1763(4) 1.3996(5)
Pr1B Pr 0.42504(3) -0.118045(19) 0.95257(2)
Pr1A Pr 0.92504(3) -0.381955(19) 1.45257(2)
Pr2_2 Pr 0.14464(3) 0.10821(2) 0.84945(3)
Pr2B Pr 0.85536(3) -0.10821(2) 1.15055(3)
O3_2 O 1.3849(4) 0.1421(3) 0.9047(3)
O4_2 O 1.2932(4) 0.1898(3) 0.7446(3)
O5B O 0.5890(4) -0.0044(3) 0.9344(3)
O7_2 O 1.2046(4) 0.0692(3) 1.0437(3)
O9B O 1.2814(4) -0.0167(3) 0.8295(3)
O11B O 1.0236(4) 0.1776(3) 0.6910(3)
O12A O 0.5546(4) 0.2654(3) 1.0348(4)
N2B N 1.1549(4) 0.0492(3) 0.6548(4)
O15 O -0.0591(8) 0.3560(5) 0.9143(8)
H5 H -0.1245 0.3741 0.9371
H6 H -0.0539 0.3053 0.9282
O16 O 0.5005(12) -0.0326(7) 1.3899(10)
H7 H 0.5266 -0.0441 1.3307
H8 H 0.4196 -0.0319 1.3765
loop_
_geom_bond_atom_site_label_1
_geom_bond_atom_site_label_2
_geom_bond_site_symmetry_1
_geom_bond_site_symmetry_2
Pr1 O1 1_555 1_555
Pr2 O2 1_555 1_555
S1 O5 1_555 1_555
O1 C6 1_555 1_555
O2 C6 1_555 1_555
O3 Pr1 1_555 1_555
O4 C7 1_555 1_555
O5 Pr1 1_555 1_555
O6 Pr1 1_555 1_555
O7 S1 1_555 1_555
O8 S1 1_555 1_555
O9 Pr1 1_555 1_555
O10 Pr1 1_555 1_555
O11 C14 1_555 1_555
O12 C14 1_555 1_555
O13 Pr2 1_555 1_555
H1 O13 1_555 1_555
H2 O13 1_555 1_555
O14 Pr2 1_555 1_555
H3 O14 1_555 1_555
H4 O14 1_555 1_555
O15 H5 1_555 1_555
H6 O15 1_555 1_555
O16 H7 1_555 1_555
H8 O16 1_555 1_555
N1 Pr1 1_555 1_555
N2 C8 1_555 1_555
C1 N1 1_555 1_555
C2 C1 1_555 1_555
H9 C2 1_555 1_555
C3 C2 1_555 1_555
H10 C3 1_555 1_555
C4 C3 1_555 1_555
H11 C4 1_555 1_555
C5 N1 1_555 1_555
C6 C1 1_555 1_555
C7 O3 1_555 1_555
C8 C9 1_555 1_555
C9 H12 1_555 1_555
C10 C9 1_555 1_555
H13 C10 1_555 1_555
C11 C10 1_555 1_555
H14 C11 1_555 1_555
C12 N2 1_555 1_555
C13 O9 1_555 1_555
C14 C12 1_555 1_555
Pr1B O5 1_555 1_555
Pr1A O12 1_555 1_555
Pr2_2 O3 1_555 1_555
Pr2B O9 1_555 1_555
O3_2 Pr2 1_555 1_555
O4_2 Pr2 1_555 1_555
O5B Pr1 1_555 1_555
O7_2 Pr2 1_555 1_555
O9B Pr2 1_555 1_555
O11B Pr2 1_555 1_555
O12A Pr1 1_555 1_555
N2B Pr2 1_555 1_555
S1 O6 1_555 1_555
O4 Pr2_2 1_555 1_555
O7 Pr2_2 1_555 1_555
O10 C13 1_555 1_555
O11 Pr2B 1_555 1_555
N2 Pr2B 1_555 1_555
C4 C5 1_555 1_555
C5 C7 1_555 1_555
C8 C13 1_555 1_555
C11 C12 1_555 1_555
Pr1B O5B 1_555 1_555

#END
