
#######################################################################
#
#                 Cambridge Crystallographic Data Centre
#                                CCDC 
#
#######################################################################
#
# If this CIF has been generated from an entry in the Cambridge 
# Structural Database, then it will include bibliographic, chemical, 
# crystal, experimental, refinement or atomic coordinate data resulting 
# from the CCDC's data processing and validation procedures.
#
#######################################################################

data_UNIVET
_symmetry_cell_setting           triclinic
_symmetry_space_group_name_H-M   'P -1'
_symmetry_Int_Tables_number      2
_space_group_name_Hall           '-P 1'
loop_
_symmetry_equiv_pos_site_id
_symmetry_equiv_pos_as_xyz
1 x,y,z
2 -x,-y,-z
_cell_length_a                   10.701(7)
_cell_length_b                   10.737(7)
_cell_length_c                   27.233(17)
_cell_angle_alpha                95.068(8)
_cell_angle_beta                 101.078(5)
_cell_angle_gamma                103.937(9)
_cell_volume                     2950.36
loop_
_atom_site_label
_atom_site_type_symbol
_atom_site_fract_x
_atom_site_fract_y
_atom_site_fract_z
Ce1 Ce 0.74776(6) 0.86853(6) 0.40414(2)
Ce2 Ce 0.57310(6) 0.89998(6) 0.55647(2)
Ce3 Ce 0.46491(7) 0.70884(7) 0.74963(2)
Ce4 Ce 0.84735(6) 1.01836(6) 0.94274(2)
Ce5 Ce 0.04386(6) 0.66120(6) 0.90666(2)
S1 S 0.7397(3) 1.1604(3) 0.48868(11)
S2 S 0.8271(3) 0.7507(3) 0.98892(11)
O1 O 0.6748(9) 0.6381(8) 0.4336(3)
O2 O 0.6232(8) 0.7953(8) 0.4776(3)
O3 O 0.5727(10) 0.8083(9) 0.6353(3)
O4 O 0.5723(11) 0.6464(10) 0.6809(3)
O5 O 0.6300(8) 1.0806(8) 0.5105(3)
O6 O 0.6696(7) 1.2271(8) 0.4519(3)
O7 O 0.8417(8) 1.2478(9) 0.5289(4)
O8 O 0.7983(8) 1.0702(8) 0.4629(3)
O9 O 1.1778(8) 1.0707(8) 0.4278(3)
O10 O 0.9719(8) 0.9575(10) 0.3942(4)
O11 O 1.5285(8) 0.9477(8) 0.3981(3)
O12 O 1.5194(8) 0.7713(8) 0.3469(3)
O13 O 0.6178(10) 1.1127(10) 0.2881(4)
O14 O 0.7453(10) 1.0324(9) 0.3452(4)
O15 O 0.6391(10) 1.5320(9) 0.2838(4)
O16 O 0.7666(9) 1.6961(8) 0.3429(4)
O17 O 0.2606(8) 0.6428(10) 0.7840(3)
O18 O 0.1575(9) 0.5844(8) 0.8458(3)
O19 O 0.6837(10) 0.6636(11) 0.7873(4)
O20 O 0.8240(9) 0.6024(9) 0.8457(4)
O21 O 0.4723(9) 0.8804(9) 0.8195(3)
O22 O 0.6818(9) 0.9403(10) 0.8629(3)
O23 O 0.8176(8) 1.1448(8) 1.0208(3)
O24 O 0.6973(9) 1.2369(9) 1.0638(3)
O25 O 0.8609(9) 1.2512(8) 0.9260(3)
O26 O 0.9510(9) 1.4280(8) 0.8968(4)
O27 O 0.9622(8) 0.8743(8) 0.8989(3)
O28 O 1.0812(9) 0.8296(8) 0.8444(3)
O29 O 0.9268(8) 0.8804(8) 1.0108(3)
O30 O 0.7268(7) 0.7850(8) 0.9504(3)
O31 O 0.8965(8) 0.6665(8) 0.9647(3)
O32 O 0.7737(9) 0.6920(9) 1.0286(4)
O33 O 0.9121(8) 0.8448(9) 0.4842(3)
H1 H 0.8665 0.8511 0.5062
H2 H 0.9018 0.7646 0.4749
O34 O 0.6736(12) 0.9117(12) 0.7495(5)
H3 H 0.6358 0.9582 0.7313
H4 H 0.6865 0.9446 0.7802
O35 O 0.1426(9) 0.5767(8) 0.9878(3)
H5 H 0.1385 0.6324 1.0112
H6 H 0.1600 0.6163 0.9632
N1 N 0.6153(9) 0.6738(9) 0.5577(4)
N2 N 1.2697(9) 0.9113(9) 0.3736(4)
N3 N 0.7325(11) 1.3567(10) 0.3312(4)
N4 N 0.4842(11) 0.5985(11) 0.8315(4)
N5 N 0.6170(9) 1.0556(10) 0.9415(4)
N6 N 0.9761(10) 1.1104(9) 0.8747(4)
C1 C 0.6465(8) 0.6144(8) 0.5180(3)
C2 C 0.6818(8) 0.4946(8) 0.5196(3)
H9 H 0.7060 0.4558 0.4923
C3 C 0.6788(12) 0.4379(13) 0.5635(5)
H10 H 0.6996 0.3591 0.5659
C4 C 0.6445(12) 0.4997(12) 0.6036(5)
H11 H 0.6411 0.4623 0.6330
C5 C 0.6152(12) 0.6187(14) 0.5996(5)
C6 C 0.6489(11) 0.6854(12) 0.4726(5)
C7 C 0.5818(12) 0.6963(13) 0.6416(4)
C8 C 1.1402(11) 0.8975(13) 0.3631(5)
C9 C 1.0557(13) 0.8045(16) 0.3248(5)
H12 H 0.9652 0.7955 0.3184
C10 C 1.1062(14) 0.7269(17) 0.2968(7)
H13 H 1.0510 0.6665 0.2701
C11 C 1.2454(14) 0.7385(16) 0.3085(6)
H14 H 1.2831 0.6849 0.2907
C12 C 1.3185(10) 0.8311(12) 0.3467(4)
C13 C 1.0922(11) 0.9813(12) 0.3972(5)
C14 C 1.4649(11) 0.8503(12) 0.3645(4)
C15 C 0.7827(12) 1.2622(13) 0.3520(5)
C16 C 0.8946(12) 1.2905(14) 0.3921(5)
H15 H 0.9308 1.2258 0.4044
C17 C 0.9495(13) 1.4234(17) 0.4128(6)
H16 H 1.0218 1.4465 0.4400
C18 C 0.7888(12) 1.4808(11) 0.3504(5)
C19 C 0.8964(13) 1.5196(15) 0.3928(5)
H17 H 0.9306 1.6062 0.4069
C20 C 0.7111(13) 1.1277(13) 0.3269(5)
C21 C 0.7267(12) 1.5783(12) 0.3239(5)
C22 C 0.3765(13) 0.5649(12) 0.8521(5)
C23 C 0.3778(15) 0.5025(13) 0.8955(5)
H18 H 0.3054 0.4856 0.9104
C24 C 0.4928(17) 0.4674(15) 0.9150(6)
H19 H 0.4957 0.4230 0.9429
C25 C 0.6054(15) 0.4974(14) 0.8936(5)
H20 H 0.6806 0.4710 0.9060
C26 C 0.5980(12) 0.5703(12) 0.8519(5)
C27 C 0.2568(13) 0.6039(12) 0.8260(5)
C28 C 0.7132(12) 0.6186(12) 0.8279(5)
C29 C 0.5236(13) 1.0111(11) 0.8987(4)
C30 C 0.3990(14) 1.0365(15) 0.8922(5)
H21 H 0.3347 1.0034 0.8626
C31 C 0.3754(12) 1.1143(13) 0.9321(5)
H22 H 0.2951 1.1353 0.9290
C32 C 0.4758(13) 1.1605(14) 0.9773(5)
H23 H 0.4615 1.2103 1.0043
C33 C 0.5961(11) 1.1290(12) 0.9798(5)
C34 C 0.5584(12) 0.9351(12) 0.8569(5)
C35 C 0.7094(11) 1.1721(11) 1.0254(5)
C36 C 0.9910(12) 1.2324(11) 0.8666(4)
C37 C 1.0584(17) 1.2846(14) 0.8322(5)
H24 H 1.0638 1.3698 0.8267
C38 C 1.1198(18) 1.2073(14) 0.8052(6)
H25 H 1.1690 1.2409 0.7824
C39 C 1.1042(14) 1.0820(14) 0.8136(5)
H26 H 1.1403 1.0273 0.7957
C40 C 1.0344(12) 1.0360(11) 0.8490(4)
C41 C 0.9270(13) 1.3102(12) 0.8986(4)
C42 C 1.0273(13) 0.9031(12) 0.8641(4)
Ce1_2 Ce 1.74776(6) 0.86853(6) 0.40414(2)
Ce1_3 Ce 0.74776(6) 1.86853(6) 0.40414(2)
Ce2A Ce 0.42690(6) 1.10002(6) 0.44353(2)
Ce2A_2 Ce 1.42690(6) 1.10002(6) 0.44353(2)
Ce3A Ce 0.53509(7) 1.29116(7) 0.25037(2)
Ce4A Ce 1.15265(6) 0.98164(6) 1.05726(2)
Ce5_2 Ce 1.04386(6) 0.66120(6) 0.90666(2)
Ce5A Ce 0.95614(6) 1.33880(6) 1.09334(2)
Ce5_3 Ce 1.04386(6) 1.66120(6) 0.90666(2)
O5A O 0.3700(8) 0.9194(8) 0.4895(3)
O6A O 0.3304(7) 0.7729(8) 0.5481(3)
O9A O 0.8222(8) 0.9293(8) 0.5722(3)
O11_2 O 0.5285(8) 0.9477(8) 0.3981(3)
O11A O 0.4715(8) 1.0523(8) 0.6019(3)
O12_2 O 0.5194(8) 0.7713(8) 0.3469(3)
O13A O 0.3822(10) 0.8873(10) 0.7119(4)
O15A O 0.3609(10) 0.4680(9) 0.7162(4)
O16_2 O 0.7666(9) 0.6961(8) 0.3429(4)
O20_2 O -0.1760(9) 0.6024(9) 0.8457(4)
O23A O 0.1824(8) 0.8552(8) 0.9792(3)
O24A O 0.3027(9) 0.7631(9) 0.9362(3)
O26_2 O -0.0490(9) 0.4280(8) 0.8968(4)
O27_2 O -0.0378(8) 0.8743(8) 0.8989(3)
O28_2 O 0.0812(9) 0.8296(8) 0.8444(3)
O29A O 1.0732(8) 1.1196(8) 0.9892(3)
O31_2 O -0.1035(8) 0.6665(8) 0.9647(3)
N2A N 0.7303(9) 1.0887(9) 0.6264(4)
N3A N 0.2675(11) 0.6433(10) 0.6688(4)
N7 N 0.9102(8) 0.7287(8) 0.7469(3)
H7 H 0.9688 0.7693 0.7755
H8 H 0.8298 0.7108 0.7543
C43 C 0.940(3) 0.600(2) 0.7328(9)
H27 H 0.9344 0.5494 0.7600
H28 H 1.0276 0.6162 0.7266
H29 H 0.8774 0.5534 0.7028
C44 C 0.912(3) 0.831(2) 0.7061(9)
H30 H 0.8926 0.9073 0.7201
H31 H 0.8469 0.7914 0.6758
H32 H 0.9978 0.8536 0.6984
loop_
_geom_bond_atom_site_label_1
_geom_bond_atom_site_label_2
_geom_bond_site_symmetry_1
_geom_bond_site_symmetry_2
Ce1 O1 1_555 1_555
Ce2 O2 1_555 1_555
Ce3 O4 1_555 1_555
Ce4 O22 1_555 1_555
Ce5 O18 1_555 1_555
S1 O5 1_555 1_555
S2 O29 1_555 1_555
O1 C6 1_555 1_555
O2 Ce1 1_555 1_555
O3 Ce2 1_555 1_555
O4 C7 1_555 1_555
O5 Ce2 1_555 1_555
O6 S1 1_555 1_555
O7 S1 1_555 1_555
O8 Ce1 1_555 1_555
O9 C13 1_555 1_555
O10 Ce1 1_555 1_555
O11 C14 1_555 1_555
O12 C14 1_555 1_555
O13 C20 1_555 1_555
O14 Ce1 1_555 1_555
O15 C21 1_555 1_555
O16 C21 1_555 1_555
O17 Ce3 1_555 1_555
O18 C27 1_555 1_555
O19 Ce3 1_555 1_555
O20 C28 1_555 1_555
O21 Ce3 1_555 1_555
O22 C34 1_555 1_555
O23 Ce4 1_555 1_555
O24 C35 1_555 1_555
O25 Ce4 1_555 1_555
O26 C41 1_555 1_555
O27 Ce4 1_555 1_555
O28 C42 1_555 1_555
O29 Ce4 1_555 1_555
O30 Ce4 1_555 1_555
O31 S2 1_555 1_555
O32 S2 1_555 1_555
O33 Ce1 1_555 1_555
H1 O33 1_555 1_555
H2 O33 1_555 1_555
O34 Ce3 1_555 1_555
H3 O34 1_555 1_555
H4 O34 1_555 1_555
O35 Ce5 1_555 1_555
H5 O35 1_555 1_555
H6 O35 1_555 1_555
N1 Ce2 1_555 1_555
N2 C8 1_555 1_555
N3 C15 1_555 1_555
N4 Ce3 1_555 1_555
N5 Ce4 1_555 1_555
N6 Ce4 1_555 1_555
N7 H7 1_555 1_555
H8 N7 1_555 1_555
C1 N1 1_555 1_555
C2 C1 1_555 1_555
H9 C2 1_555 1_555
C3 C2 1_555 1_555
H10 C3 1_555 1_555
C4 C3 1_555 1_555
H11 C4 1_555 1_555
C5 N1 1_555 1_555
C6 O2 1_555 1_555
C7 O3 1_555 1_555
C8 C9 1_555 1_555
C9 H12 1_555 1_555
C10 C9 1_555 1_555
H13 C10 1_555 1_555
C11 C10 1_555 1_555
H14 C11 1_555 1_555
C12 N2 1_555 1_555
C13 O10 1_555 1_555
C14 C12 1_555 1_555
C15 C16 1_555 1_555
C16 H15 1_555 1_555
C17 C16 1_555 1_555
H16 C17 1_555 1_555
C18 N3 1_555 1_555
C19 C17 1_555 1_555
H17 C19 1_555 1_555
C20 O14 1_555 1_555
C21 C18 1_555 1_555
C22 N4 1_555 1_555
C23 C22 1_555 1_555
H18 C23 1_555 1_555
C24 C23 1_555 1_555
H19 C24 1_555 1_555
C25 C24 1_555 1_555
H20 C25 1_555 1_555
C26 N4 1_555 1_555
C27 O17 1_555 1_555
C28 O19 1_555 1_555
C29 N5 1_555 1_555
C30 C29 1_555 1_555
H21 C30 1_555 1_555
C31 C30 1_555 1_555
H22 C31 1_555 1_555
C32 C31 1_555 1_555
H23 C32 1_555 1_555
C33 N5 1_555 1_555
C34 O21 1_555 1_555
C35 O23 1_555 1_555
C36 N6 1_555 1_555
C37 C36 1_555 1_555
H24 C37 1_555 1_555
C38 C37 1_555 1_555
H25 C38 1_555 1_555
C39 C38 1_555 1_555
H26 C39 1_555 1_555
C40 N6 1_555 1_555
C41 O25 1_555 1_555
C42 O27 1_555 1_555
C43 N7 1_555 1_555
H27 C43 1_555 1_555
H28 C43 1_555 1_555
H29 C43 1_555 1_555
C44 N7 1_555 1_555
H30 C44 1_555 1_555
H31 C44 1_555 1_555
H32 C44 1_555 1_555
Ce1_2 O11 1_555 1_555
Ce1_3 O16 1_555 1_555
Ce2A O5 1_555 1_555
Ce2A_2 O9 1_555 1_555
Ce3A O13 1_555 1_555
Ce4A O29 1_555 1_555
Ce5_2 O20 1_555 1_555
Ce5A O23 1_555 1_555
Ce5_3 O26 1_555 1_555
O5A Ce2 1_555 1_555
O6A Ce2 1_555 1_555
O9A Ce2 1_555 1_555
O11_2 Ce1 1_555 1_555
O11A Ce2 1_555 1_555
O12_2 Ce1 1_555 1_555
O13A Ce3 1_555 1_555
O15A Ce3 1_555 1_555
O16_2 Ce1 1_555 1_555
O20_2 Ce5 1_555 1_555
O23A Ce5 1_555 1_555
O24A Ce5 1_555 1_555
O26_2 Ce5 1_555 1_555
O27_2 Ce5 1_555 1_555
O28_2 Ce5 1_555 1_555
O29A Ce4 1_555 1_555
O31_2 Ce5 1_555 1_555
N2A Ce2 1_555 1_555
N3A Ce3 1_555 1_555
S1 O8 1_555 1_555
S2 O30 1_555 1_555
O6 Ce2A 1_555 1_555
O11 Ce2A_2 1_555 1_555
O12 Ce1_2 1_555 1_555
O15 Ce3A 1_555 1_555
O24 Ce5A 1_555 1_555
O27 Ce5_2 1_555 1_555
O28 Ce5_2 1_555 1_555
O31 Ce5_2 1_555 1_555
N2 Ce2A_2 1_555 1_555
N3 Ce3A 1_555 1_555
C1 C6 1_555 1_555
C4 C5 1_555 1_555
C5 C7 1_555 1_555
C8 C13 1_555 1_555
C11 C12 1_555 1_555
C15 C20 1_555 1_555
C18 C19 1_555 1_555
C22 C27 1_555 1_555
C25 C26 1_555 1_555
C26 C28 1_555 1_555
C29 C34 1_555 1_555
C32 C33 1_555 1_555
C33 C35 1_555 1_555
C36 C41 1_555 1_555
C39 C40 1_555 1_555
C40 C42 1_555 1_555
Ce2A O5A 1_555 1_555
Ce2A O11_2 1_555 1_555
Ce4A O29A 1_555 1_555

#END
