
#######################################################################
#
#                 Cambridge Crystallographic Data Centre
#                                CCDC 
#
#######################################################################
#
# If this CIF has been generated from an entry in the Cambridge 
# Structural Database, then it will include bibliographic, chemical, 
# crystal, experimental, refinement or atomic coordinate data resulting 
# from the CCDC's data processing and validation procedures.
#
#######################################################################

data_UNIWEU
_symmetry_cell_setting           monoclinic
_symmetry_space_group_name_H-M   'P 21/c'
_symmetry_Int_Tables_number      14
_space_group_name_Hall           '-P 2ybc'
loop_
_symmetry_equiv_pos_site_id
_symmetry_equiv_pos_as_xyz
1 x,y,z
2 -x,1/2+y,1/2-z
3 -x,-y,-z
4 x,1/2-y,1/2+z
_cell_length_a                   7.1987(5)
_cell_length_b                   11.4136(4)
_cell_length_c                   17.2888(11)
_cell_angle_alpha                90
_cell_angle_beta                 101.806(3)
_cell_angle_gamma                90
_cell_volume                     1390.45
loop_
_atom_site_label
_atom_site_type_symbol
_atom_site_fract_x
_atom_site_fract_y
_atom_site_fract_z
U1 U 0.96917(3) 0.91679(2) 0.703710(11)
O1 O 1.1878(6) 0.9573(4) 0.6789(2)
O2 O 0.7499(6) 0.8779(5) 0.7250(3)
O3 O 0.8145(7) 0.9480(5) 0.5634(2)
O4 O 0.8397(7) 1.1017(4) 0.6405(2)
O5 O 0.7513(6) 1.2509(4) 0.5175(2)
O6 O 0.9820(6) 1.5477(5) 0.6913(2)
O7 O 0.9884(6) 1.7319(4) 0.6530(2)
O8 O 0.8122(5) 1.4764(4) 0.5448(2)
O9 O 1.1488(7) 0.8221(5) 0.8191(2)
H1 H 1.1350 0.7538 0.8416
H2 H 1.1733 0.8679 0.8667
C1 C 0.7960(9) 1.0581(7) 0.5723(4)
C2 C 0.7220(9) 1.1296(6) 0.5010(4)
H3 H 0.7859 1.1073 0.4589
H4 H 0.5875 1.1146 0.4830
C3 C 0.9452(8) 1.6260(6) 0.6409(3)
C4 C 0.8396(8) 1.5993(6) 0.5569(3)
H5 H 0.7172 1.6382 0.5471
H6 H 0.9114 1.6298 0.5196
C5 C 0.6754(8) 1.3271(6) 0.4548(3)
C6 C 0.7088(8) 1.4462(7) 0.4707(3)
C7 C 0.6365(8) 1.5289(7) 0.4116(3)
H7 H 0.6566 1.6086 0.4209
C8 C 0.5340(8) 1.4891(7) 0.3388(3)
H8 H 0.4835 1.5433 0.2999
C9 C 0.5063(8) 1.3709(6) 0.3234(3)
H9 H 0.4399 1.3459 0.2743
C10 C 0.5783(8) 1.2891(6) 0.3817(3)
H10 H 0.5611 1.2094 0.3715
U1A U 1.03083(3) 1.41679(2) 0.796290(11)
U1_2 U 0.96917(3) 1.91679(2) 0.703710(11)
O6A O 1.0180(6) 1.0477(5) 0.8087(2)
O7_2 O 0.9884(6) 0.7319(4) 0.6530(2)
loop_
_geom_bond_atom_site_label_1
_geom_bond_atom_site_label_2
_geom_bond_site_symmetry_1
_geom_bond_site_symmetry_2
U1 O1 1_555 1_555
O2 U1 1_555 1_555
O3 U1 1_555 1_555
O4 U1 1_555 1_555
O5 C2 1_555 1_555
O6 C3 1_555 1_555
O7 C3 1_555 1_555
O8 C4 1_555 1_555
O9 U1 1_555 1_555
H1 O9 1_555 1_555
H2 O9 1_555 1_555
C1 O3 1_555 1_555
C2 C1 1_555 1_555
H3 C2 1_555 1_555
H4 C2 1_555 1_555
C3 C4 1_555 1_555
C4 H5 1_555 1_555
H6 C4 1_555 1_555
C5 O5 1_555 1_555
C6 O8 1_555 1_555
C7 C6 1_555 1_555
H7 C7 1_555 1_555
C8 C7 1_555 1_555
H8 C8 1_555 1_555
C9 C8 1_555 1_555
H9 C9 1_555 1_555
C10 C5 1_555 1_555
H10 C10 1_555 1_555
U1A O6 1_555 1_555
U1_2 O7 1_555 1_555
O6A U1 1_555 1_555
O7_2 U1 1_555 1_555
O4 C1 1_555 1_555
C5 C6 1_555 1_555
C9 C10 1_555 1_555

#END
