
#######################################################################
#
#                 Cambridge Crystallographic Data Centre
#                                CCDC 
#
#######################################################################
#
# If this CIF has been generated from an entry in the Cambridge 
# Structural Database, then it will include bibliographic, chemical, 
# crystal, experimental, refinement or atomic coordinate data resulting 
# from the CCDC's data processing and validation procedures.
#
#######################################################################

data_UNIWOE
_symmetry_cell_setting           monoclinic
_symmetry_space_group_name_H-M   'P 21/n'
_symmetry_Int_Tables_number      14
_space_group_name_Hall           '-P 2yn'
loop_
_symmetry_equiv_pos_site_id
_symmetry_equiv_pos_as_xyz
1 x,y,z
2 1/2-x,1/2+y,1/2-z
3 -x,-y,-z
4 1/2+x,1/2-y,1/2+z
_cell_length_a                   13.2377(11)
_cell_length_b                   8.1731(7)
_cell_length_c                   18.1071(16)
_cell_angle_alpha                90
_cell_angle_beta                 91.195(6)
_cell_angle_gamma                90
_cell_volume                     1958.64
loop_
_atom_site_label
_atom_site_type_symbol
_atom_site_fract_x
_atom_site_fract_y
_atom_site_fract_z
U1 U 0.40470(3) 0.52382(5) 0.214858(17)
O1 O 0.2712(5) 0.5142(9) 0.2118(3)
O2 O 0.5373(5) 0.5268(9) 0.2153(4)
O3 O 0.3863(5) 0.6109(9) 0.3403(3)
O4 O 0.5406(5) 0.6676(10) 0.3868(4)
O5 O 0.0905(5) 0.7746(9) 0.3528(3)
O6 O 0.1294(5) 0.5273(9) 0.3952(4)
O7 O 0.1065(5) 0.1318(9) 0.4077(3)
O8 O -0.0530(5) 0.1366(10) 0.4501(4)
O9 O 0.3387(5) 0.3096(9) 0.4306(4)
O10 O 0.3881(6) 0.0612(11) 0.4665(4)
O11 O 0.4172(7) 0.2967(11) 0.2999(4)
H1 H 0.3627 0.2894 0.3197
H2 H 0.4383 0.2121 0.2859
O12 O 0.4081(5) 0.8230(10) 0.2211(3)
H3 H 0.3935 0.8786 0.1866
H4 H 0.4138 0.8739 0.2622
N1 N 0.2947(6) 0.6277(11) 0.4713(4)
H7 H 0.2833 0.5440 0.4497
N2 N 0.1815(6) 0.3213(11) 0.5177(4)
H8 H 0.1813 0.3631 0.4714
C1 C 0.2733(11) 0.5892(18) 0.5499(6)
H9 H 0.3321 0.5221 0.5636
C2 C 0.1893(11) 0.4754(17) 0.5656(7)
H10 H 0.1290 0.5380 0.5509
C3 C 0.1719(10) 0.4373(17) 0.6446(6)
H11 H 0.2192 0.3527 0.6601
H12 H 0.1043 0.3929 0.6489
C4 C 0.1831(11) 0.5836(18) 0.6981(7)
H13 H 0.1209 0.6462 0.6963
H14 H 0.1919 0.5417 0.7479
C5 C 0.2683(11) 0.6952(18) 0.6824(7)
H15 H 0.3297 0.6489 0.7039
H16 H 0.2563 0.7988 0.7069
C6 C 0.2850(10) 0.7276(17) 0.6018(6)
H17 H 0.2385 0.8130 0.5861
H18 H 0.3528 0.7708 0.5970
C7 C 0.4056(7) 0.6692(14) 0.4685(5)
H19 H 0.4428 0.6004 0.5032
H20 H 0.4154 0.7822 0.4834
C8 C 0.4470(8) 0.6453(14) 0.3919(5)
C9 C 0.2309(8) 0.7548(14) 0.4336(6)
H21 H 0.2723 0.8183 0.4006
H22 H 0.2039 0.8286 0.4702
C10 C 0.1448(7) 0.6766(13) 0.3901(5)
C11 C 0.0726(8) 0.2653(14) 0.5215(5)
H23 H 0.0649 0.1978 0.5651
H24 H 0.0295 0.3604 0.5268
C12 C 0.0377(7) 0.1692(13) 0.4543(5)
C13 C 0.2536(8) 0.1851(16) 0.5284(5)
H25 H 0.2170 0.0823 0.5268
H26 H 0.2857 0.1947 0.5769
C14 C 0.3340(8) 0.1834(14) 0.4704(5)
U1A U 0.09530(3) 1.02382(5) 0.285142(17)
U1A_2 U 0.09530(3) 0.02382(5) 0.285142(17)
O5A O 0.4095(5) 0.2746(9) 0.1472(3)
O7A O 0.3935(5) 0.6318(9) 0.0923(3)
O13 O 0.5005(9) 1.0021(11) 0.3437(5)
H5 H 0.5293 0.9191 0.3573
H6 H 0.5449 1.0760 0.3580
loop_
_geom_bond_atom_site_label_1
_geom_bond_atom_site_label_2
_geom_bond_site_symmetry_1
_geom_bond_site_symmetry_2
U1 O1 1_555 1_555
O2 U1 1_555 1_555
O3 U1 1_555 1_555
O4 C8 1_555 1_555
O5 C10 1_555 1_555
O6 C10 1_555 1_555
O7 C12 1_555 1_555
O8 C12 1_555 1_555
O9 C14 1_555 1_555
O10 C14 1_555 1_555
O11 U1 1_555 1_555
H1 O11 1_555 1_555
H2 O11 1_555 1_555
O12 U1 1_555 1_555
H3 O12 1_555 1_555
H4 O12 1_555 1_555
O13 H5 1_555 1_555
H6 O13 1_555 1_555
N1 H7 1_555 1_555
N2 H8 1_555 1_555
C1 N1 1_555 1_555
H9 C1 1_555 1_555
C2 N2 1_555 1_555
H10 C2 1_555 1_555
C3 C2 1_555 1_555
H11 C3 1_555 1_555
H12 C3 1_555 1_555
C4 C3 1_555 1_555
H13 C4 1_555 1_555
H14 C4 1_555 1_555
C5 C4 1_555 1_555
H15 C5 1_555 1_555
H16 C5 1_555 1_555
C6 C1 1_555 1_555
H17 C6 1_555 1_555
H18 C6 1_555 1_555
C7 N1 1_555 1_555
H19 C7 1_555 1_555
H20 C7 1_555 1_555
C8 O3 1_555 1_555
C9 N1 1_555 1_555
H21 C9 1_555 1_555
H22 C9 1_555 1_555
C10 C9 1_555 1_555
C11 N2 1_555 1_555
H23 C11 1_555 1_555
H24 C11 1_555 1_555
C12 C11 1_555 1_555
C13 N2 1_555 1_555
H25 C13 1_555 1_555
H26 C13 1_555 1_555
C14 C13 1_555 1_555
U1A O5 1_555 1_555
U1A_2 O7 1_555 1_555
O5A U1 1_555 1_555
O7A U1 1_555 1_555
C1 C2 1_555 1_555
C5 C6 1_555 1_555
C7 C8 1_555 1_555

#END
