
#######################################################################
#
#                 Cambridge Crystallographic Data Centre
#                                CCDC 
#
#######################################################################
#
# If this CIF has been generated from an entry in the Cambridge 
# Structural Database, then it will include bibliographic, chemical, 
# crystal, experimental, refinement or atomic coordinate data resulting 
# from the CCDC's data processing and validation procedures.
#
#######################################################################

data_UNIWAQ
_symmetry_cell_setting           orthorhombic
_symmetry_space_group_name_H-M   'P b c a'
_symmetry_Int_Tables_number      61
_space_group_name_Hall           '-P 2ac 2ab'
loop_
_symmetry_equiv_pos_site_id
_symmetry_equiv_pos_as_xyz
1 x,y,z
2 1/2-x,-y,1/2+z
3 -x,1/2+y,1/2-z
4 1/2+x,1/2-y,-z
5 -x,-y,-z
6 1/2+x,y,1/2-z
7 x,1/2-y,1/2+z
8 1/2-x,1/2+y,z
_cell_length_a                   9.7665(2)
_cell_length_b                   19.3844(9)
_cell_length_c                   20.3345(9)
_cell_angle_alpha                90
_cell_angle_beta                 90
_cell_angle_gamma                90
_cell_volume                     3849.68
loop_
_atom_site_label
_atom_site_type_symbol
_atom_site_fract_x
_atom_site_fract_y
_atom_site_fract_z
U1 U 0.81567(3) 0.385257(15) 0.384098(14)
O1 O 0.6974(8) 0.3164(3) 0.3925(3)
O2 O 0.9365(7) 0.4524(3) 0.3782(3)
O3 O 0.7567(7) 0.4262(3) 0.4960(3)
O4 O 0.9247(8) 0.3519(4) 0.4890(3)
O5 O 0.4950(9) 0.2033(4) 0.6295(3)
O6 O 0.4006(7) 0.1658(3) 0.7189(3)
O7 O 0.3008(6) 0.5754(3) 0.7137(3)
O8 O 0.3761(7) 0.5282(3) 0.6231(3)
C1 C 0.7571(8) 0.3917(4) 0.6392(4)
C2 C 0.7236(8) 0.3266(4) 0.6634(4)
H1 H 0.7762 0.2887 0.6513
C3 C 0.6129(9) 0.3174(5) 0.7055(4)
C4 C 0.5366(9) 0.3742(5) 0.7229(4)
H2 H 0.4618 0.3683 0.7506
C5 C 0.5673(9) 0.4400(5) 0.7004(4)
C6 C 0.6786(10) 0.4480(4) 0.6585(4)
H3 H 0.7010 0.4917 0.6432
C7 C 0.8815(10) 0.3997(6) 0.5954(4)
H4 H 0.9488 0.3652 0.6076
H5 H 0.9219 0.4447 0.6032
C8 C 0.8509(9) 0.3927(5) 0.5224(4)
C9 C 0.5808(12) 0.2468(5) 0.7336(5)
H6 H 0.6662 0.2221 0.7401
H7 H 0.5388 0.2528 0.7765
C10 C 0.4879(11) 0.2033(5) 0.6920(4)
C11 C 0.4930(12) 0.5026(6) 0.7267(5)
H8 H 0.4512 0.4897 0.7682
H9 H 0.5612 0.5375 0.7364
C12 C 0.3839(10) 0.5357(5) 0.6849(4)
U1C U 0.31567(3) 0.114743(15) 0.615902(14)
U1D U 0.18433(3) 0.614743(15) 0.615902(14)
O5C O 0.9950(9) 0.2967(4) 0.3705(3)
O6C O 0.9006(7) 0.3342(3) 0.2811(3)
O7D O 0.6992(6) 0.4246(3) 0.2863(3)
O8D O 0.6239(7) 0.4718(3) 0.3769(3)
O9 O 0.296(2) 0.1322(10) 0.8392(10)
N1 N 0.3346(8) 0.3594(4) 0.5153(4)
C13 C 0.278(3) 0.3025(11) 0.4767(12)
H10 H 0.3212 0.3013 0.4343
H11 H 0.1812 0.3091 0.4712
H12 H 0.2942 0.2597 0.4991
C14 C 0.4775(18) 0.3443(11) 0.5302(10)
H13 H 0.5304 0.3859 0.5271
H14 H 0.5119 0.3110 0.4993
H15 H 0.4844 0.3260 0.5739
C15 C 0.2670(18) 0.3569(9) 0.5820(9)
H16 H 0.3100 0.3898 0.6107
H17 H 0.2765 0.3115 0.6002
H18 H 0.1716 0.3679 0.5776
C16 C 0.308(2) 0.4248(9) 0.4902(9)
H19 H 0.2803 0.4548 0.5253
H20 H 0.2367 0.4220 0.4580
H21 H 0.3898 0.4427 0.4701
loop_
_geom_bond_atom_site_label_1
_geom_bond_atom_site_label_2
_geom_bond_site_symmetry_1
_geom_bond_site_symmetry_2
U1 O1 1_555 1_555
O2 U1 1_555 1_555
O3 U1 1_555 1_555
O4 U1 1_555 1_555
O5 C10 1_555 1_555
O6 C10 1_555 1_555
O7 C12 1_555 1_555
O8 C12 1_555 1_555
N1 C13 1_555 1_555
C1 C2 1_555 1_555
C2 H1 1_555 1_555
C3 C2 1_555 1_555
C4 C3 1_555 1_555
H2 C4 1_555 1_555
C5 C4 1_555 1_555
C6 C1 1_555 1_555
H3 C6 1_555 1_555
C7 C1 1_555 1_555
H4 C7 1_555 1_555
H5 C7 1_555 1_555
C8 O3 1_555 1_555
C9 C3 1_555 1_555
H6 C9 1_555 1_555
H7 C9 1_555 1_555
C10 C9 1_555 1_555
C11 C5 1_555 1_555
H8 C11 1_555 1_555
H9 C11 1_555 1_555
C12 C11 1_555 1_555
C13 H10 1_555 1_555
H11 C13 1_555 1_555
H12 C13 1_555 1_555
C14 N1 1_555 1_555
H13 C14 1_555 1_555
H14 C14 1_555 1_555
H15 C14 1_555 1_555
C15 N1 1_555 1_555
H16 C15 1_555 1_555
H17 C15 1_555 1_555
H18 C15 1_555 1_555
C16 N1 1_555 1_555
H19 C16 1_555 1_555
H20 C16 1_555 1_555
H21 C16 1_555 1_555
U1C O5 1_555 1_555
U1D O7 1_555 1_555
O5C U1 1_555 1_555
O6C U1 1_555 1_555
O7D U1 1_555 1_555
O8D U1 1_555 1_555
O4 C8 1_555 1_555
O6 U1C 1_555 1_555
O8 U1D 1_555 1_555
C5 C6 1_555 1_555
C7 C8 1_555 1_555

#END
