
#######################################################################
#
#                 Cambridge Crystallographic Data Centre
#                                CCDC 
#
#######################################################################
#
# If this CIF has been generated from an entry in the Cambridge 
# Structural Database, then it will include bibliographic, chemical, 
# crystal, experimental, refinement or atomic coordinate data resulting 
# from the CCDC's data processing and validation procedures.
#
#######################################################################

data_UNIWIY
_symmetry_cell_setting           triclinic
_symmetry_space_group_name_H-M   'P -1'
_symmetry_Int_Tables_number      2
_space_group_name_Hall           '-P 1'
loop_
_symmetry_equiv_pos_site_id
_symmetry_equiv_pos_as_xyz
1 x,y,z
2 -x,-y,-z
_cell_length_a                   11.1060(4)
_cell_length_b                   13.2861(5)
_cell_length_c                   15.3098(5)
_cell_angle_alpha                77.361(2)
_cell_angle_beta                 84.741(3)
_cell_angle_gamma                71.863(2)
_cell_volume                     2094.11
loop_
_atom_site_label
_atom_site_type_symbol
_atom_site_fract_x
_atom_site_fract_y
_atom_site_fract_z
U1 U 0.524983(13) 0.209915(11) 0.541528(10)
U2 U -0.249844(13) 0.545388(12) 0.112092(10)
O1 O 0.4843(3) 0.2585(2) 0.6424(2)
O2 O 0.5609(3) 0.1598(2) 0.4409(2)
O3 O -0.2925(3) 0.6274(2) 0.1927(2)
O4 O -0.2077(3) 0.4644(2) 0.0302(2)
O5 O 0.3471(3) 0.3567(2) 0.4531(2)
O6 O 0.5268(3) 0.3890(2) 0.4635(2)
O7 O 0.2816(3) 0.5428(2) 0.3114(2)
O8 O -0.1227(3) 0.6656(2) 0.03662(19)
O9 O -0.0212(3) 0.5244(2) 0.13483(19)
O10 O 0.1354(3) 0.6321(2) 0.17647(19)
O11 O 0.7289(3) 0.2437(2) 0.5310(2)
O12 O 0.7285(3) 0.0795(2) 0.5983(2)
O13 O 0.9891(3) 0.0094(2) 0.6076(2)
O14 O 1.1408(3) -0.3805(2) 0.7804(2)
O15 O 1.3457(3) -0.4191(2) 0.7918(2)
O16 O 1.1277(3) -0.1769(2) 0.6752(2)
O17 O 0.5033(3) 0.0333(2) 0.63089(19)
O18 O 0.3365(3) 0.1481(2) 0.55960(19)
O19 O 0.3600(3) -0.0706(2) 0.74757(18)
O20 O 0.5287(3) -0.4228(2) 1.0831(2)
O21 O 0.6183(3) -0.3103(2) 0.9948(2)
O22 O 0.4007(3) -0.2202(2) 0.88942(19)
C1 C 0.4162(4) 0.4194(3) 0.4334(3)
C2 C 0.3748(4) 0.5300(3) 0.3736(3)
H7 H 0.3417 0.5834 0.4109
H8 H 0.4485 0.5447 0.3409
C3 C -0.0328(4) 0.6188(3) 0.0890(3)
C4 C 0.0567(4) 0.6810(3) 0.1017(3)
H9 H 0.1098 0.6881 0.0482
H10 H 0.0067 0.7533 0.1085
C5 C 0.1560(4) 0.5888(3) 0.3329(3)
C6 C 0.0755(4) 0.6361(3) 0.2597(3)
C7 C -0.0521(4) 0.6799(4) 0.2745(3)
H11 H -0.1056 0.7115 0.2262
C8 C -0.1017(5) 0.6772(4) 0.3614(3)
H12 H -0.1884 0.7061 0.3711
C9 C -0.0231(5) 0.6321(4) 0.4330(3)
H13 H -0.0565 0.6319 0.4910
C10 C 0.1063(5) 0.5867(4) 0.4190(3)
H14 H 0.1592 0.5550 0.4677
C11 C 0.7881(4) 0.1473(4) 0.5661(3)
C12 C 0.9293(4) 0.1177(3) 0.5628(3)
H15 H 0.9584 0.1267 0.5007
H16 H 0.9550 0.1669 0.5901
C13 C 1.2424(4) -0.3563(4) 0.7589(3)
C14 C 1.2473(4) -0.2547(3) 0.6957(3)
H17 H 1.2990 -0.2221 0.7213
H18 H 1.2890 -0.2732 0.6403
C15 C 0.9932(4) -0.0113(4) 0.6992(3)
C16 C 1.0743(4) -0.1109(3) 0.7362(3)
C17 C 1.0947(4) -0.1397(4) 0.8270(3)
H19 H 1.1517 -0.2059 0.8512
C18 C 1.0295(5) -0.0689(4) 0.8824(3)
H20 H 1.0425 -0.0876 0.9437
C19 C 0.9452(5) 0.0292(5) 0.8454(4)
H21 H 0.9000 0.0757 0.8826
C20 C 0.9268(4) 0.0595(4) 0.7538(3)
H22 H 0.8710 0.1262 0.7294
C21 C 0.3850(4) 0.0654(3) 0.6178(3)
C22 C 0.2966(4) 0.0085(3) 0.6741(3)
H23 H 0.2262 0.0615 0.6967
H24 H 0.2626 -0.0262 0.6370
C23 C 0.5233(4) -0.3467(3) 1.0168(3)
C24 C 0.4041(4) -0.3054(3) 0.9646(3)
H25 H 0.3915 -0.3653 0.9439
H26 H 0.3335 -0.2806 1.0047
C25 C 0.3548(4) -0.0356(3) 0.8271(3)
C26 C 0.3739(4) -0.1163(3) 0.9052(3)
C27 C 0.3657(4) -0.0903(4) 0.9873(3)
H27 H 0.3771 -0.1441 1.0388
C28 C 0.3402(5) 0.0174(4) 0.9933(3)
H28 H 0.3332 0.0355 1.0493
C29 C 0.3252(5) 0.0975(4) 0.9172(4)
H29 H 0.3099 0.1690 0.9219
C30 C 0.3328(4) 0.0714(3) 0.8343(3)
H30 H 0.3233 0.1254 0.7829
U2A U 1.249844(13) -0.545388(12) 0.887908(10)
U2_2 U 0.750156(13) -0.454612(12) 1.112092(10)
O14A O -0.1408(3) 0.3805(2) 0.2196(2)
O15A O -0.3457(3) 0.4191(2) 0.2082(2)
O20_2 O -0.4713(3) 0.5772(2) 0.0831(2)
O21_2 O -0.3817(3) 0.6897(2) -0.0052(2)
O23 O 0.3436(4) 0.7521(3) 0.1971(2)
H1 H 0.3462 0.6762 0.2039
H2 H 0.4206 0.7449 0.2219
O24 O 0.7314(6) 0.4788(5) 0.3936(4)
H3 H 0.6614 0.4606 0.4162
H4 H 0.6992 0.5367 0.3467
N1 N 0.1572(3) 0.3346(3) 0.2215(2)
H5 H 0.0947 0.3922 0.1990
N2 N 0.3282(3) 0.1694(3) 0.2901(2)
H6 H 0.3965 0.1166 0.3143
C31 C 0.1305(4) 0.3056(4) 0.3207(3)
H31 H 0.0428 0.3066 0.3316
H32 H 0.1456 0.3575 0.3508
C32 C 0.2183(5) 0.1929(4) 0.3561(3)
H33 H 0.2489 0.1895 0.4143
H34 H 0.1731 0.1398 0.3624
C33 C 0.2835(4) 0.3555(4) 0.2063(3)
H35 H 0.2775 0.4244 0.2210
H36 H 0.3103 0.3581 0.1440
C34 C 0.3780(4) 0.2653(4) 0.2653(3)
H37 H 0.4591 0.2460 0.2338
H38 H 0.3900 0.2884 0.3189
C35 C 0.1613(4) 0.2426(4) 0.1778(3)
H39 H 0.1620 0.2659 0.1131
H40 H 0.0873 0.2183 0.1960
C36 C 0.2827(5) 0.1504(4) 0.2072(3)
H41 H 0.2652 0.0814 0.2199
H42 H 0.3472 0.1492 0.1599
loop_
_geom_bond_atom_site_label_1
_geom_bond_atom_site_label_2
_geom_bond_site_symmetry_1
_geom_bond_site_symmetry_2
U1 O1 1_555 1_555
U2 O3 1_555 1_555
O2 U1 1_555 1_555
O4 U2 1_555 1_555
O5 U1 1_555 1_555
O6 U1 1_555 1_555
O7 C2 1_555 1_555
O8 U2 1_555 1_555
O9 U2 1_555 1_555
O10 C4 1_555 1_555
O11 U1 1_555 1_555
O12 U1 1_555 1_555
O13 C12 1_555 1_555
O14 C13 1_555 1_555
O15 C13 1_555 1_555
O16 C14 1_555 1_555
O17 U1 1_555 1_555
O18 U1 1_555 1_555
O19 C22 1_555 1_555
O20 C23 1_555 1_555
O21 C23 1_555 1_555
O22 C24 1_555 1_555
O23 H1 1_555 1_555
H2 O23 1_555 1_555
O24 H3 1_555 1_555
H4 O24 1_555 1_555
N1 H5 1_555 1_555
N2 H6 1_555 1_555
C1 O5 1_555 1_555
C2 C1 1_555 1_555
H7 C2 1_555 1_555
H8 C2 1_555 1_555
C3 O8 1_555 1_555
C4 C3 1_555 1_555
H9 C4 1_555 1_555
H10 C4 1_555 1_555
C5 O7 1_555 1_555
C6 O10 1_555 1_555
C7 C6 1_555 1_555
H11 C7 1_555 1_555
C8 C7 1_555 1_555
H12 C8 1_555 1_555
C9 C8 1_555 1_555
H13 C9 1_555 1_555
C10 C5 1_555 1_555
H14 C10 1_555 1_555
C11 O11 1_555 1_555
C12 C11 1_555 1_555
H15 C12 1_555 1_555
H16 C12 1_555 1_555
C13 C14 1_555 1_555
C14 H17 1_555 1_555
H18 C14 1_555 1_555
C15 O13 1_555 1_555
C16 O16 1_555 1_555
C17 C16 1_555 1_555
H19 C17 1_555 1_555
C18 C17 1_555 1_555
H20 C18 1_555 1_555
C19 C18 1_555 1_555
H21 C19 1_555 1_555
C20 C15 1_555 1_555
H22 C20 1_555 1_555
C21 O17 1_555 1_555
C22 C21 1_555 1_555
H23 C22 1_555 1_555
H24 C22 1_555 1_555
C23 C24 1_555 1_555
C24 H25 1_555 1_555
H26 C24 1_555 1_555
C25 O19 1_555 1_555
C26 O22 1_555 1_555
C27 C26 1_555 1_555
H27 C27 1_555 1_555
C28 C27 1_555 1_555
H28 C28 1_555 1_555
C29 C28 1_555 1_555
H29 C29 1_555 1_555
C30 C25 1_555 1_555
H30 C30 1_555 1_555
C31 N1 1_555 1_555
H31 C31 1_555 1_555
H32 C31 1_555 1_555
C32 N2 1_555 1_555
H33 C32 1_555 1_555
H34 C32 1_555 1_555
C33 N1 1_555 1_555
H35 C33 1_555 1_555
H36 C33 1_555 1_555
C34 N2 1_555 1_555
H37 C34 1_555 1_555
H38 C34 1_555 1_555
C35 N1 1_555 1_555
H39 C35 1_555 1_555
H40 C35 1_555 1_555
C36 N2 1_555 1_555
H41 C36 1_555 1_555
H42 C36 1_555 1_555
U2A O14 1_555 1_555
U2_2 O20 1_555 1_555
O14A U2 1_555 1_555
O15A U2 1_555 1_555
O20_2 U2 1_555 1_555
O21_2 U2 1_555 1_555
O6 C1 1_555 1_555
O9 C3 1_555 1_555
O12 C11 1_555 1_555
O15 U2A 1_555 1_555
O18 C21 1_555 1_555
O21 U2_2 1_555 1_555
C5 C6 1_555 1_555
C9 C10 1_555 1_555
C15 C16 1_555 1_555
C19 C20 1_555 1_555
C25 C26 1_555 1_555
C29 C30 1_555 1_555
C31 C32 1_555 1_555
C33 C34 1_555 1_555
C35 C36 1_555 1_555

#END
