
#######################################################################
#
#                 Cambridge Crystallographic Data Centre
#                                CCDC 
#
#######################################################################
#
# If this CIF has been generated from an entry in the Cambridge 
# Structural Database, then it will include bibliographic, chemical, 
# crystal, experimental, refinement or atomic coordinate data resulting 
# from the CCDC's data processing and validation procedures.
#
#######################################################################

data_UNIWUK
_symmetry_cell_setting           orthorhombic
_symmetry_space_group_name_H-M   'P b c n'
_symmetry_Int_Tables_number      60
_space_group_name_Hall           '-P 2n 2ab'
loop_
_symmetry_equiv_pos_site_id
_symmetry_equiv_pos_as_xyz
1 x,y,z
2 1/2-x,1/2-y,1/2+z
3 -x,y,1/2-z
4 1/2+x,1/2-y,-z
5 -x,-y,-z
6 1/2+x,1/2+y,1/2-z
7 x,-y,1/2+z
8 1/2-x,1/2+y,z
_cell_length_a                   18.0451(18)
_cell_length_b                   15.0183(8)
_cell_length_c                   18.8449(16)
_cell_angle_alpha                90
_cell_angle_beta                 90
_cell_angle_gamma                90
_cell_volume                     5107.09
loop_
_atom_site_label
_atom_site_type_symbol
_atom_site_fract_x
_atom_site_fract_y
_atom_site_fract_z
U1 U 0.74226(3) 0.77965(3) 0.39991(2)
O1 O 0.6597(5) 0.8014(7) 0.3537(5)
O2 O 0.8251(6) 0.7578(7) 0.4462(5)
O3 O 0.6828(7) 0.6714(7) 0.4663(5)
O4 O 0.7285(6) 0.5461(8) 0.5214(5)
O5 O 0.6807(6) 0.6765(7) 0.8045(5)
O6 O 0.7525(6) 0.6373(9) 0.7116(6)
O7 O 0.7574(7) 0.3459(7) 0.8304(6)
O8 O 0.6948(7) 0.4652(8) 0.7902(6)
O9 O 0.8099(5) 0.3490(7) 0.5041(5)
O10 O 0.8375(8) 0.3995(10) 0.6102(6)
H1 H 0.8223 0.4474 0.6244
O11 O 0.7666(8) 0.9411(8) 0.4043(5)
H2 H 0.7628 0.9856 0.4421
H3 H 0.7980 0.9729 0.3675
N1 N 0.6389(6) 0.5711(7) 0.6364(5)
N2 N 0.6879(7) 0.3952(7) 0.6525(5)
H4 H 0.7080 0.4526 0.6558
C1 C 0.5869(8) 0.4955(11) 0.6149(8)
H5 H 0.5967 0.4833 0.5647
C2 C 0.6067(9) 0.4125(10) 0.6546(8)
H6 H 0.5945 0.4240 0.7044
C3 C 0.5586(9) 0.3358(11) 0.6317(9)
H7 H 0.5698 0.2842 0.6608
H8 H 0.5701 0.3207 0.5828
C4 C 0.4761(10) 0.3574(13) 0.6378(9)
H9 H 0.4472 0.3083 0.6192
H10 H 0.4631 0.3653 0.6874
C5 C 0.4581(11) 0.4415(12) 0.5970(9)
H11 H 0.4665 0.4311 0.5469
H12 H 0.4061 0.4556 0.6034
C6 C 0.5039(10) 0.5193(11) 0.6205(9)
H13 H 0.4917 0.5345 0.6692
H14 H 0.4931 0.5705 0.5909
C7 C 0.6422(11) 0.6411(12) 0.5817(8)
H15 H 0.6608 0.6953 0.6033
H16 H 0.5922 0.6530 0.5652
C8 C 0.6899(11) 0.6186(12) 0.5187(9)
C9 C 0.6219(8) 0.6136(9) 0.7066(7)
H17 H 0.5923 0.6667 0.6992
H18 H 0.5934 0.5726 0.7356
C10 C 0.6915(10) 0.6375(9) 0.7440(8)
C11 C 0.7147(11) 0.3472(12) 0.7143(7)
H19 H 0.6820 0.2966 0.7212
H20 H 0.7630 0.3233 0.7022
C12 C 0.7221(11) 0.3908(9) 0.7821(8)
C13 C 0.7133(11) 0.3587(11) 0.5854(8)
H21 H 0.6821 0.3828 0.5481
H22 H 0.7052 0.2949 0.5864
C14 C 0.7907(9) 0.3743(10) 0.5652(8)
U1A U 0.75774(3) 0.72035(3) 0.89991(2)
U1F U 0.74226(3) 0.22035(3) 0.89991(2)
U1G U 0.75774(3) 0.27965(3) 0.39991(2)
O5A O 0.8193(6) 0.8235(7) 0.3045(5)
O7F O 0.7574(7) 0.6541(7) 0.3304(6)
O9G O 0.6901(5) 0.8490(7) 0.5041(5)
O12 O 0.8671(12) 0.5185(16) 0.7187(12)
O13 O 0.5306(16) 0.7441(15) 0.8398(17)
O14 O 0.933(2) 0.585(2) 0.567(2)
loop_
_geom_bond_atom_site_label_1
_geom_bond_atom_site_label_2
_geom_bond_site_symmetry_1
_geom_bond_site_symmetry_2
U1 O1 1_555 1_555
O2 U1 1_555 1_555
O3 U1 1_555 1_555
O4 C8 1_555 1_555
O5 C10 1_555 1_555
O6 C10 1_555 1_555
O7 C12 1_555 1_555
O8 C12 1_555 1_555
O9 C14 1_555 1_555
O10 H1 1_555 1_555
O11 U1 1_555 1_555
H2 O11 1_555 1_555
H3 O11 1_555 1_555
N1 C1 1_555 1_555
N2 H4 1_555 1_555
C1 H5 1_555 1_555
C2 N2 1_555 1_555
H6 C2 1_555 1_555
C3 C2 1_555 1_555
H7 C3 1_555 1_555
H8 C3 1_555 1_555
C4 C3 1_555 1_555
H9 C4 1_555 1_555
H10 C4 1_555 1_555
C5 C4 1_555 1_555
H11 C5 1_555 1_555
H12 C5 1_555 1_555
C6 C1 1_555 1_555
H13 C6 1_555 1_555
H14 C6 1_555 1_555
C7 N1 1_555 1_555
H15 C7 1_555 1_555
H16 C7 1_555 1_555
C8 O3 1_555 1_555
C9 N1 1_555 1_555
H17 C9 1_555 1_555
H18 C9 1_555 1_555
C10 C9 1_555 1_555
C11 N2 1_555 1_555
H19 C11 1_555 1_555
H20 C11 1_555 1_555
C12 C11 1_555 1_555
C13 N2 1_555 1_555
H21 C13 1_555 1_555
H22 C13 1_555 1_555
C14 O10 1_555 1_555
U1A O5 1_555 1_555
U1F O7 1_555 1_555
U1G O9 1_555 1_555
O5A U1 1_555 1_555
O7F U1 1_555 1_555
O9G U1 1_555 1_555
C1 C2 1_555 1_555
C5 C6 1_555 1_555
C7 C8 1_555 1_555
C13 C14 1_555 1_555

#END
