
#######################################################################
#
#                 Cambridge Crystallographic Data Centre
#                                CCDC 
#
#######################################################################
#
# If this CIF has been generated from an entry in the Cambridge 
# Structural Database, then it will include bibliographic, chemical, 
# crystal, experimental, refinement or atomic coordinate data resulting 
# from the CCDC's data processing and validation procedures.
#
#######################################################################

data_UNIXAR
_symmetry_cell_setting           orthorhombic
_symmetry_space_group_name_H-M   'I 2 2 2'
_symmetry_Int_Tables_number      23
_space_group_name_Hall           'I 2 2'
loop_
_symmetry_equiv_pos_site_id
_symmetry_equiv_pos_as_xyz
1 x,y,z
2 -x,-y,z
3 -x,y,-z
4 x,-y,-z
5 1/2+x,1/2+y,1/2+z
6 1/2-x,1/2-y,1/2+z
7 1/2-x,1/2+y,1/2-z
8 1/2+x,1/2-y,1/2-z
_cell_length_a                   12.0020(9)
_cell_length_b                   12.6829(5)
_cell_length_c                   27.185(2)
_cell_angle_alpha                90
_cell_angle_beta                 90
_cell_angle_gamma                90
_cell_volume                     4138.11
loop_
_atom_site_label
_atom_site_type_symbol
_atom_site_fract_x
_atom_site_fract_y
_atom_site_fract_z
U1 U 0.77659(2) 0.25191(2) 0.590334(9)
O1 O 0.7115(5) 0.2200(5) 0.5351(3)
O2 O 0.8435(6) 0.2864(5) 0.6459(3)
O3 O 0.6622(5) 0.4117(4) 0.5976(2)
O4 O 0.8246(5) 0.4282(4) 0.5597(2)
O5 O 1.0576(5) 0.7761(4) 0.5525(2)
O6 O 0.9002(7) 0.8514(5) 0.5773(3)
O7 O 0.8054(6) 1.0733(4) 0.6171(3)
O8 O 0.6668(6) 0.9831(5) 0.5836(2)
O9 O 0.3858(5) 0.7938(5) 0.6336(2)
O10 O 0.5274(5) 0.7630(5) 0.5817(2)
N1 N 0.7955(6) 0.6614(5) 0.5921(2)
N2 N 0.6856(6) 0.8204(5) 0.6464(3)
H1 H 0.6710 0.8217 0.6121
C1 C 0.8144(10) 0.6658(8) 0.6459(4)
H2 H 0.8794 0.7118 0.6497
C2 C 0.7229(10) 0.7220(7) 0.6730(4)
H3 H 0.6589 0.6742 0.6713
C3 C 0.7453(7) 0.7354(6) 0.7279(3)
H4 H 0.8041 0.7869 0.7326
H5 H 0.6787 0.7615 0.7439
C4 C 0.7788(11) 0.6338(8) 0.7505(4)
H6 H 0.8031 0.6475 0.7839
H7 H 0.7135 0.5888 0.7524
C5 C 0.8671(12) 0.5759(9) 0.7250(4)
H8 H 0.8740 0.5065 0.7397
H9 H 0.9371 0.6125 0.7300
C6 C 0.8478(8) 0.5634(7) 0.6715(3)
H10 H 0.7896 0.5115 0.6664
H11 H 0.9154 0.5367 0.6564
C7 C 0.7132(8) 0.5883(6) 0.5722(4)
H12 H 0.7039 0.6040 0.5375
H13 H 0.6425 0.6025 0.5881
C8 C 0.7369(8) 0.4713(7) 0.5770(3)
C9 C 0.9023(8) 0.6651(7) 0.5659(4)
H14 H 0.9528 0.6147 0.5808
H15 H 0.8902 0.6433 0.5321
C10 C 0.9557(7) 0.7690(7) 0.5658(3)
C11 C 0.7545(6) 0.9151(7) 0.6554(3)
H16 H 0.8324 0.8951 0.6567
H17 H 0.7345 0.9456 0.6869
C12 C 0.7376(7) 0.9979(6) 0.6146(3)
C13 C 0.5666(8) 0.8417(9) 0.6576(4)
H18 H 0.5546 0.9174 0.6580
H19 H 0.5496 0.8148 0.6901
C14 C 0.4884(7) 0.7928(6) 0.6212(3)
U1A U 1.22341(2) 0.74809(2) 0.590334(9)
U1_2 U 0.77659(2) 1.25191(2) 0.590334(9)
U1A_2 U 0.22341(2) 0.74809(2) 0.590334(9)
U1A_3 U 1.22341(2) -0.25191(2) 0.590334(9)
U1_3 U 1.77659(2) 0.25191(2) 0.590334(9)
O1A O 1.2885(5) 0.7800(5) 0.5351(3)
O2A O 1.1565(6) 0.7136(5) 0.6459(3)
O3A O 1.3378(5) 0.5883(4) 0.5976(2)
O4A O 1.1754(5) 0.5718(4) 0.5597(2)
O5A O 0.9424(5) 0.2239(4) 0.5525(2)
O6A O 1.0998(7) 0.1486(5) 0.5773(3)
O7A O 1.1946(6) -0.0733(4) 0.6171(3)
O7_2 O 0.8054(6) 0.0733(4) 0.6171(3)
O7A_2 O 1.1946(6) 0.9267(4) 0.6171(3)
O8A O 1.3332(6) 0.0169(5) 0.5836(2)
O9A O 1.6142(5) 0.2062(5) 0.6336(2)
O9A_2 O 0.6142(5) 0.2062(5) 0.6336(2)
O9_2 O 1.3858(5) 0.7938(5) 0.6336(2)
O10A O 1.4726(5) 0.2370(5) 0.5817(2)
N1A N 1.2045(6) 0.3386(5) 0.5921(2)
N2A N 1.3144(6) 0.1796(5) 0.6464(3)
H1A H 1.3290 0.1783 0.6121
C1A C 1.1856(10) 0.3342(8) 0.6459(4)
H2A H 1.1206 0.2882 0.6497
C2A C 1.2771(10) 0.2780(7) 0.6730(4)
H3A H 1.3411 0.3258 0.6713
C3A C 1.2547(7) 0.2646(6) 0.7279(3)
H4A H 1.1959 0.2131 0.7326
H5A H 1.3213 0.2385 0.7439
C4A C 1.2212(11) 0.3662(8) 0.7505(4)
H6A H 1.1969 0.3525 0.7839
H7A H 1.2865 0.4112 0.7524
C5A C 1.1329(12) 0.4241(9) 0.7250(4)
H8A H 1.1260 0.4935 0.7397
H9A H 1.0629 0.3875 0.7300
C6A C 1.1522(8) 0.4366(7) 0.6715(3)
H10A H 1.2104 0.4885 0.6664
H11A H 1.0846 0.4633 0.6564
C7A C 1.2868(8) 0.4117(6) 0.5722(4)
H12A H 1.2961 0.3960 0.5375
H13A H 1.3575 0.3975 0.5881
C8A C 1.2631(8) 0.5287(7) 0.5770(3)
C9A C 1.0977(8) 0.3349(7) 0.5659(4)
H14A H 1.0472 0.3853 0.5808
H15A H 1.1098 0.3567 0.5321
C10A C 1.0443(7) 0.2310(7) 0.5658(3)
C11A C 1.2455(6) 0.0849(7) 0.6554(3)
H16A H 1.1676 0.1049 0.6567
H17A H 1.2655 0.0544 0.6869
C12A C 1.2624(7) 0.0021(6) 0.6146(3)
C13A C 1.4334(8) 0.1583(9) 0.6576(4)
H18A H 1.4454 0.0826 0.6580
H19A H 1.4504 0.1852 0.6901
C14A C 1.5116(7) 0.2072(6) 0.6212(3)
Na1 Na 1.0000 1.0000 0.5607(3)
Na2 Na 0.6660(9) 0.0000 0.5000
Na3 Na 0.5000 0.2304(10) 0.5000
O11 O 0.8667(9) 1.0000 0.5000
O13 O 0.5000 0.4019(11) 0.5000
O12? O 0.5000 0.039(3) 0.5000
loop_
_geom_bond_atom_site_label_1
_geom_bond_atom_site_label_2
_geom_bond_site_symmetry_1
_geom_bond_site_symmetry_2
U1 O1 1_555 1_555
O2 U1 1_555 1_555
O3 U1 1_555 1_555
O4 U1 1_555 1_555
O5 C10 1_555 1_555
O6 C10 1_555 1_555
O7 C12 1_555 1_555
O8 C12 1_555 1_555
O9 C14 1_555 1_555
O10 C14 1_555 1_555
N1 C1 1_555 1_555
N2 H1 1_555 1_555
C1 H2 1_555 1_555
C2 N2 1_555 1_555
H3 C2 1_555 1_555
C3 C2 1_555 1_555
H4 C3 1_555 1_555
H5 C3 1_555 1_555
C4 C3 1_555 1_555
H6 C4 1_555 1_555
H7 C4 1_555 1_555
C5 C4 1_555 1_555
H8 C5 1_555 1_555
H9 C5 1_555 1_555
C6 C1 1_555 1_555
H10 C6 1_555 1_555
H11 C6 1_555 1_555
C7 N1 1_555 1_555
H12 C7 1_555 1_555
H13 C7 1_555 1_555
C8 O3 1_555 1_555
C9 N1 1_555 1_555
H14 C9 1_555 1_555
H15 C9 1_555 1_555
C10 C9 1_555 1_555
C11 N2 1_555 1_555
H16 C11 1_555 1_555
H17 C11 1_555 1_555
C12 C11 1_555 1_555
C13 N2 1_555 1_555
H18 C13 1_555 1_555
H19 C13 1_555 1_555
C14 C13 1_555 1_555
U1A O5 1_555 1_555
U1_2 O7 1_555 1_555
U1A_2 O9 1_555 1_555
U1A_3 O7A 1_555 1_555
U1_3 O9A 1_555 1_555
O1A U1A 1_555 1_555
O2A U1A 1_555 1_555
O3A U1A 1_555 1_555
O4A U1A 1_555 1_555
O5A U1 1_555 1_555
O6A C10A 1_555 1_555
O7A C12A 1_555 1_555
O7_2 U1 1_555 1_555
O7A_2 U1A 1_555 1_555
O8A C12A 1_555 1_555
O9A C14A 1_555 1_555
O9A_2 U1 1_555 1_555
O9_2 U1A 1_555 1_555
O10A C14A 1_555 1_555
N1A C1A 1_555 1_555
N2A H1A 1_555 1_555
C1A H2A 1_555 1_555
C2A N2A 1_555 1_555
H3A C2A 1_555 1_555
C3A C2A 1_555 1_555
H4A C3A 1_555 1_555
H5A C3A 1_555 1_555
C4A C3A 1_555 1_555
H6A C4A 1_555 1_555
H7A C4A 1_555 1_555
C5A C4A 1_555 1_555
H8A C5A 1_555 1_555
H9A C5A 1_555 1_555
C6A C1A 1_555 1_555
H10A C6A 1_555 1_555
H11A C6A 1_555 1_555
C7A N1A 1_555 1_555
H12A C7A 1_555 1_555
H13A C7A 1_555 1_555
C8A O3A 1_555 1_555
C9A N1A 1_555 1_555
H14A C9A 1_555 1_555
H15A C9A 1_555 1_555
C10A O5A 1_555 1_555
C11A N2A 1_555 1_555
H16A C11A 1_555 1_555
H17A C11A 1_555 1_555
C12A C11A 1_555 1_555
C13A N2A 1_555 1_555
H18A C13A 1_555 1_555
H19A C13A 1_555 1_555
C14A C13A 1_555 1_555
O4 C8 1_555 1_555
C1 C2 1_555 1_555
C5 C6 1_555 1_555
C7 C8 1_555 1_555
O4A C8A 1_555 1_555
C1A C2A 1_555 1_555
C5A C6A 1_555 1_555
C7A C8A 1_555 1_555
C9A C10A 1_555 1_555

#END
