
#######################################################################
#
#                 Cambridge Crystallographic Data Centre
#                                CCDC 
#
#######################################################################
#
# If this CIF has been generated from an entry in the Cambridge 
# Structural Database, then it will include bibliographic, chemical, 
# crystal, experimental, refinement or atomic coordinate data resulting 
# from the CCDC's data processing and validation procedures.
#
#######################################################################

data_UNIZUN
_symmetry_cell_setting           triclinic
_symmetry_space_group_name_H-M   'P -1'
_symmetry_Int_Tables_number      2
_space_group_name_Hall           '-P 1'
loop_
_symmetry_equiv_pos_site_id
_symmetry_equiv_pos_as_xyz
1 x,y,z
2 -x,-y,-z
_cell_length_a                   7.3486(4)
_cell_length_b                   13.5417(7)
_cell_length_c                   15.1244(8)
_cell_angle_alpha                72.5340(10)
_cell_angle_beta                 76.3300(10)
_cell_angle_gamma                80.1660(10)
_cell_volume                     1386.89
loop_
_atom_site_label
_atom_site_type_symbol
_atom_site_fract_x
_atom_site_fract_y
_atom_site_fract_z
Yb1 Yb 0.46140(3) 0.553608(18) 0.188850(15)
Cu1 Cu 0.55405(9) 0.88959(5) -0.15334(4)
Cu2 Cu 0.5000 0.0000 0.5000
O1 O 0.3238(6) 0.7999(3) -0.1743(3)
H1 H 0.2626 0.8487 -0.2052
H2 H 0.2574 0.7825 -0.1215
O2 O 0.5782(7) 0.6367(4) 0.2722(3)
H3 H 0.6913 0.6273 0.2718
H4 H 0.5274 0.6672 0.3126
O3 O 0.1694(6) 0.6205(3) 0.2490(3)
H5 H 0.1014 0.6001 0.3008
H6 H 0.1087 0.6689 0.2174
O4 O 0.2936(5) 0.5798(3) 0.0631(3)
H7 H 0.2306 0.6367 0.0528
H8 H 0.2172 0.5369 0.0803
O5 O 0.6992(5) 0.5902(3) 0.0603(3)
H9 H 0.8033 0.5564 0.0583
H10 H 0.7171 0.6486 0.0256
O6 O 0.4981(6) 0.4061(3) 0.1308(3)
H11 H 0.5319 0.3489 0.1639
H12 H 0.5320 0.4054 0.0754
O7 O 0.4094(5) 0.7414(3) 0.1179(2)
O8 O 0.5572(5) 0.7817(3) -0.0331(2)
O9 O -0.0731(6) 1.2456(3) -0.0036(3)
O10 O 0.0874(6) 1.2581(3) -0.1509(3)
O11 O 0.3506(6) 0.4262(3) 0.3191(3)
O12 O 0.0621(7) 0.4704(4) 0.3939(3)
N1 N 0.3689(6) 0.9653(3) -0.0721(3)
N2 N 0.3478(6) 0.1321(3) 0.5096(3)
C1 C 0.2791(7) 1.0610(4) -0.0974(4)
H17 H 0.2999 1.0985 -0.1608
C2 C 0.1559(7) 1.1059(4) -0.0317(4)
C3 C 0.1278(7) 1.0499(4) 0.0627(4)
H18 H 0.0490 1.0791 0.1083
C4 C 0.2181(7) 0.9499(4) 0.0887(3)
H19 H 0.1987 0.9106 0.1515
C5 C 0.3377(7) 0.9099(4) 0.0192(3)
C6 C 0.4413(7) 0.8016(4) 0.0383(3)
C7 C 0.0495(7) 1.2123(4) -0.0651(4)
C8 C 0.3497(8) 0.2265(4) 0.4463(4)
H20 H 0.4393 0.2362 0.3904
C9 C 0.2210(8) 0.3089(4) 0.4630(4)
C10 C 0.0938(9) 0.2969(5) 0.5474(4)
H21 H 0.0073 0.3523 0.5596
C11 C 0.0968(9) 0.2009(5) 0.6140(4)
H22 H 0.0148 0.1912 0.6723
C12 C 0.2225(8) 0.1209(4) 0.5924(4)
C13 C 0.2115(8) 0.4112(4) 0.3869(4)
C14 C 0.2323(8) 0.0112(4) 0.6572(4)
O15 O 0.3522(6) -0.0560(3) 0.6238(2)
O16 O 0.1287(6) -0.0081(3) 0.7352(3)
O17 O 0.7259(5) 0.4452(3) 0.2402(3)
C15 C 0.8891(8) 0.4189(4) 0.2009(4)
O18 O 0.9801(6) 0.4704(3) 0.1242(3)
C16 C 0.9846(7) 0.3138(4) 0.2468(4)
C17 C 1.1424(8) 0.2750(4) 0.1928(4)
H23 H 1.1890 0.3162 0.1329
C18 C 0.9196(8) 0.2533(5) 0.3365(4)
H24 H 0.8130 0.2777 0.3744
N3 N 1.2312(6) 0.1808(3) 0.2233(3)
C19 C 1.0135(8) 0.1559(4) 0.3702(4)
H25 H 0.9733 0.1152 0.4312
C20 C 1.1666(7) 0.1212(4) 0.3115(3)
C21 C 1.2777(8) 0.0148(4) 0.3346(4)
O19 O 1.4056(5) -0.0058(3) 0.2658(2)
O20 O 1.2456(6) -0.0441(3) 0.4144(3)
Yb1A Yb 0.53860(3) -0.553608(18) 0.811150(15)
Cu1A Cu 0.44595(9) -0.88959(5) 1.15334(4)
Cu1A_2 Cu 1.44595(9) 0.11041(5) 0.15334(4)
Cu1_2 Cu -0.44595(9) -0.11041(5) 0.84666(4)
O1A O 0.6762(6) -0.7999(3) 1.1743(3)
H1A H 0.7374 -0.8487 1.2052
H2A H 0.7426 -0.7825 1.1215
O2A O 0.4218(7) -0.6367(4) 0.7278(3)
H3A H 0.3087 -0.6273 0.7282
H4A H 0.4726 -0.6672 0.6874
O3A O 0.8306(6) -0.6205(3) 0.7510(3)
H5A H 0.8986 -0.6001 0.6992
H6A H 0.8913 -0.6689 0.7826
O4A O 0.7064(5) -0.5798(3) 0.9369(3)
H7A H 0.7694 -0.6367 0.9472
H8A H 0.7828 -0.5369 0.9197
O5A O 0.3008(5) -0.5902(3) 0.9397(3)
H9A H 0.1967 -0.5564 0.9417
H10A H 0.2829 -0.6486 0.9744
O6A O 0.5019(6) -0.4061(3) 0.8692(3)
H11A H 0.4681 -0.3489 0.8361
H12A H 0.4680 -0.4054 0.9246
O7A O 0.5906(5) -0.7414(3) 0.8821(2)
O8A O 0.4428(5) -0.7817(3) 1.0331(2)
O9A O 1.0731(6) -1.2456(3) 1.0036(3)
O10A O 0.9126(6) -1.2581(3) 1.1509(3)
O11A O 0.6494(6) -0.4262(3) 0.6809(3)
O12A O 0.9379(7) -0.4704(4) 0.6061(3)
N1A N 0.6311(6) -0.9653(3) 1.0721(3)
N2A N 0.6522(6) -0.1321(3) 0.4904(3)
C1A C 0.7209(7) -1.0610(4) 1.0974(4)
H17A H 0.7001 -1.0985 1.1608
C2A C 0.8441(7) -1.1059(4) 1.0317(4)
C3A C 0.8722(7) -1.0499(4) 0.9373(4)
H18A H 0.9510 -1.0791 0.8917
C4A C 0.7819(7) -0.9499(4) 0.9113(3)
H19A H 0.8013 -0.9106 0.8485
C5A C 0.6623(7) -0.9099(4) 0.9808(3)
C6A C 0.5587(7) -0.8016(4) 0.9617(3)
C7A C 0.9505(7) -1.2123(4) 1.0651(4)
C8A C 0.6503(8) -0.2265(4) 0.5537(4)
H20A H 0.5607 -0.2362 0.6096
C9A C 0.7790(8) -0.3089(4) 0.5370(4)
C10A C 0.9062(9) -0.2969(5) 0.4526(4)
H21A H 0.9927 -0.3523 0.4404
C11A C 0.9032(9) -0.2009(5) 0.3860(4)
H22A H 0.9852 -0.1912 0.3277
C12A C 0.7775(8) -0.1209(4) 0.4076(4)
C13A C 0.7885(8) -0.4112(4) 0.6131(4)
C14A C 0.7677(8) -0.0112(4) 0.3428(4)
O15A O 0.6478(6) 0.0560(3) 0.3762(2)
O16A O 0.8713(6) 0.0081(3) 0.2648(3)
O17A O 0.2741(5) -0.4452(3) 0.7598(3)
C15A C 0.1109(8) -0.4189(4) 0.7991(4)
O18A O 0.0199(6) -0.4704(3) 0.8758(3)
C16A C 0.0154(7) -0.3138(4) 0.7532(4)
C17A C -0.1424(8) -0.2750(4) 0.8072(4)
H23A H -0.1890 -0.3162 0.8671
C18A C 0.0804(8) -0.2533(5) 0.6635(4)
H24A H 0.1870 -0.2777 0.6256
N3A N -0.2312(6) -0.1808(3) 0.7767(3)
N3A_2 N 0.7688(6) 0.8192(3) -0.2233(3)
N3_2 N 0.2312(6) -0.8192(3) 1.2233(3)
C19A C -0.0135(8) -0.1559(4) 0.6298(4)
H25A H 0.0267 -0.1152 0.5688
C20A C -0.1666(7) -0.1212(4) 0.6885(3)
C21A C -0.2777(8) -0.0148(4) 0.6654(4)
O19A O -0.4056(5) 0.0058(3) 0.7342(2)
O19A_2 O 0.5944(5) 1.0058(3) -0.2658(2)
O19_2 O 0.4056(5) -1.0058(3) 1.2658(2)
O20A O -0.2456(6) 0.0441(3) 0.5856(3)
O13 O 0.3979(9) 0.7458(4) 0.3914(4)
H13 H 0.3762 0.7083 0.4458
H14 H 0.3669 0.8059 0.3945
O14 O -0.3399(9) 0.4351(5) 0.4577(4)
H15 H -0.3755 0.4648 0.4079
H16 H -0.2285 0.4429 0.4499
loop_
_geom_bond_atom_site_label_1
_geom_bond_atom_site_label_2
_geom_bond_site_symmetry_1
_geom_bond_site_symmetry_2
Yb1 O2 1_555 1_555
Cu1 O1 1_555 1_555
Cu2 N2 1_555 1_555
O1 H1 1_555 1_555
H2 O1 1_555 1_555
O2 H3 1_555 1_555
H4 O2 1_555 1_555
O3 Yb1 1_555 1_555
H5 O3 1_555 1_555
H6 O3 1_555 1_555
O4 Yb1 1_555 1_555
H7 O4 1_555 1_555
H8 O4 1_555 1_555
O5 Yb1 1_555 1_555
H9 O5 1_555 1_555
H10 O5 1_555 1_555
O6 Yb1 1_555 1_555
H11 O6 1_555 1_555
H12 O6 1_555 1_555
O7 Yb1 1_555 1_555
O8 Cu1 1_555 1_555
O9 C7 1_555 1_555
O10 C7 1_555 1_555
O11 Yb1 1_555 1_555
O12 C13 1_555 1_555
O13 H13 1_555 1_555
H14 O13 1_555 1_555
O14 H15 1_555 1_555
H16 O14 1_555 1_555
N1 Cu1 1_555 1_555
N2 C8 1_555 1_555
C1 N1 1_555 1_555
H17 C1 1_555 1_555
C2 C1 1_555 1_555
C3 C2 1_555 1_555
H18 C3 1_555 1_555
C4 C3 1_555 1_555
H19 C4 1_555 1_555
C5 N1 1_555 1_555
C6 O7 1_555 1_555
C7 C2 1_555 1_555
C8 H20 1_555 1_555
C9 C8 1_555 1_555
C10 C9 1_555 1_555
H21 C10 1_555 1_555
C11 C10 1_555 1_555
H22 C11 1_555 1_555
C12 N2 1_555 1_555
C13 O11 1_555 1_555
C14 C12 1_555 1_555
O15 Cu2 1_555 1_555
O16 C14 1_555 1_555
O17 Yb1 1_555 1_555
C15 O17 1_555 1_555
O18 C15 1_555 1_555
C16 C15 1_555 1_555
C17 C16 1_555 1_555
H23 C17 1_555 1_555
C18 C16 1_555 1_555
H24 C18 1_555 1_555
N3 C17 1_555 1_555
C19 C18 1_555 1_555
H25 C19 1_555 1_555
C20 N3 1_555 1_555
C21 C20 1_555 1_555
O19 C21 1_555 1_555
O20 C21 1_555 1_555
Yb1A O2A 1_555 1_555
Cu1A O1A 1_555 1_555
Cu1A_2 N3 1_555 1_555
Cu1_2 N3A 1_555 1_555
O1A H1A 1_555 1_555
H2A O1A 1_555 1_555
O2A H3A 1_555 1_555
H4A O2A 1_555 1_555
O3A Yb1A 1_555 1_555
H5A O3A 1_555 1_555
H6A O3A 1_555 1_555
O4A Yb1A 1_555 1_555
H7A O4A 1_555 1_555
H8A O4A 1_555 1_555
O5A Yb1A 1_555 1_555
H9A O5A 1_555 1_555
H10A O5A 1_555 1_555
O6A Yb1A 1_555 1_555
H11A O6A 1_555 1_555
H12A O6A 1_555 1_555
O7A Yb1A 1_555 1_555
O8A Cu1A 1_555 1_555
O9A C7A 1_555 1_555
O10A C7A 1_555 1_555
O11A Yb1A 1_555 1_555
O12A C13A 1_555 1_555
N1A Cu1A 1_555 1_555
N2A Cu2 1_555 1_555
C1A N1A 1_555 1_555
H17A C1A 1_555 1_555
C2A C1A 1_555 1_555
C3A C2A 1_555 1_555
H18A C3A 1_555 1_555
C4A C3A 1_555 1_555
H19A C4A 1_555 1_555
C5A N1A 1_555 1_555
C6A O7A 1_555 1_555
C7A C2A 1_555 1_555
C8A N2A 1_555 1_555
H20A C8A 1_555 1_555
C9A C8A 1_555 1_555
C10A C9A 1_555 1_555
H21A C10A 1_555 1_555
C11A C10A 1_555 1_555
H22A C11A 1_555 1_555
C12A N2A 1_555 1_555
C13A O11A 1_555 1_555
C14A C12A 1_555 1_555
O15A Cu2 1_555 1_555
O16A C14A 1_555 1_555
O17A Yb1A 1_555 1_555
C15A O17A 1_555 1_555
O18A C15A 1_555 1_555
C16A C15A 1_555 1_555
C17A C16A 1_555 1_555
H23A C17A 1_555 1_555
C18A C16A 1_555 1_555
H24A C18A 1_555 1_555
N3A C17A 1_555 1_555
N3A_2 Cu1 1_555 1_555
N3_2 Cu1A 1_555 1_555
C19A C18A 1_555 1_555
H25A C19A 1_555 1_555
C20A N3A 1_555 1_555
C21A C20A 1_555 1_555
O19A Cu1_2 1_555 1_555
O19A_2 Cu1 1_555 1_555
O19_2 Cu1A 1_555 1_555
O20A C21A 1_555 1_555
O8 C6 1_555 1_555
C4 C5 1_555 1_555
C5 C6 1_555 1_555
C9 C13 1_555 1_555
C11 C12 1_555 1_555
C14 O15 1_555 1_555
C19 C20 1_555 1_555
O19 Cu1A_2 1_555 1_555
O8A C6A 1_555 1_555
C4A C5A 1_555 1_555
C5A C6A 1_555 1_555
C9A C13A 1_555 1_555
C11A C12A 1_555 1_555
C14A O15A 1_555 1_555
C19A C20A 1_555 1_555
C21A O19A 1_555 1_555

#END
