
#######################################################################
#
#                 Cambridge Crystallographic Data Centre
#                                CCDC 
#
#######################################################################
#
# If this CIF has been generated from an entry in the Cambridge 
# Structural Database, then it will include bibliographic, chemical, 
# crystal, experimental, refinement or atomic coordinate data resulting 
# from the CCDC's data processing and validation procedures.
#
#######################################################################

data_UNOBAB
_symmetry_cell_setting           monoclinic
_symmetry_space_group_name_H-M   'C 2/c'
_symmetry_Int_Tables_number      15
_space_group_name_Hall           '-C 2yn'
loop_
_symmetry_equiv_pos_site_id
_symmetry_equiv_pos_as_xyz
1 x,y,z
2 -x,y,1/2-z
3 1/2+x,1/2+y,z
4 1/2-x,1/2+y,1/2-z
5 -x,-y,-z
6 x,-y,1/2+z
7 1/2-x,1/2-y,-z
8 1/2+x,1/2-y,1/2+z
_cell_length_a                   15.406(4)
_cell_length_b                   15.478(4)
_cell_length_c                   10.734(3)
_cell_angle_alpha                90
_cell_angle_beta                 118.364(3)
_cell_angle_gamma                90
_cell_volume                     2252.28
loop_
_atom_site_label
_atom_site_type_symbol
_atom_site_fract_x
_atom_site_fract_y
_atom_site_fract_z
O1 O 0.48386(8) 0.25613(8) 0.57288(12)
C1 C 0.41043(11) 0.21569(11) 0.48692(17)
Na1 Na 0.04274(5) 0.08063(4) 0.43441(7)
O2 O 0.10965(9) 0.08373(8) 0.27653(13)
O3 O 0.22662(9) 0.13103(9) 0.23128(12)
H1 H 0.2806 0.1544 0.2746
O4 O 0.38682(9) 0.20490(9) 0.35643(12)
N1 N 0.36555(10) 0.18188(9) 0.67516(14)
H2 H 0.4177 0.2046 0.7425
O5 O -0.06348(10) 0.07199(8) 0.54055(14)
H3 H -0.0517 0.1150 0.5978
H4 H -0.1209 0.0894 0.4662
N2 N 0.22111(10) 0.11704(9) 0.56488(14)
C2 C 0.34437(11) 0.17694(10) 0.53667(16)
C3 C 0.19168(12) 0.11485(11) 0.31776(17)
C4 C 0.25389(11) 0.13611(10) 0.46930(16)
C5 C 0.29110(12) 0.14524(11) 0.68890(18)
C6 C 0.29259(14) 0.13640(14) 0.82798(19)
H5 H 0.2276 0.1191 0.8121
H6 H 0.3074 0.1922 0.8748
C7 C 0.36813(17) 0.07062(14) 0.9247(2)
H7 H 0.3512 0.0141 0.8804
H8 H 0.4327 0.0861 0.9367
C8 C 0.3727(2) 0.06594(17) 1.0677(2)
H9 H 0.3924 0.1210 1.1138
H10 H 0.4198 0.0228 1.1242
H11 H 0.3089 0.0510 1.0564
O1F O 0.01614(8) 0.24387(8) 0.42712(12)
C1F C 0.08957(11) 0.28431(11) 0.51308(17)
Na1F Na 0.45726(5) 0.41937(4) 0.56559(7)
Na1A Na -0.04274(5) 0.08063(4) 0.06559(7)
Na1D Na -0.04274(5) -0.08063(4) 0.56559(7)
Na1G Na 0.54274(5) 0.41937(4) 0.93441(7)
O2F O 0.39035(9) 0.41627(8) 0.72347(13)
O2A O -0.10965(9) 0.08373(8) 0.22347(13)
O2G O 0.60965(9) 0.41627(8) 0.77653(13)
O3F O 0.27338(9) 0.36897(9) 0.76872(12)
H1F H 0.2194 0.3456 0.7254
O4F O 0.11318(9) 0.29510(9) 0.64357(12)
N1F N 0.13445(10) 0.31812(9) 0.32484(14)
H2F H 0.0823 0.2954 0.2575
O5D O 0.06348(10) -0.07199(8) 0.45945(14)
O5F O 0.56348(10) 0.42801(8) 0.45945(14)
O5B O 0.43652(10) 0.57199(8) 0.54055(14)
H3D H 0.0517 -0.1150 0.4022
H3F H 0.5517 0.3850 0.4022
H3B H 0.4483 0.6150 0.5978
H4D H 0.1209 -0.0894 0.5338
H4F H 0.6209 0.4106 0.5338
H4B H 0.3791 0.5894 0.4662
N2F N 0.27889(10) 0.38296(9) 0.43512(14)
C2F C 0.15563(11) 0.32306(10) 0.46333(16)
C3F C 0.30832(12) 0.38515(11) 0.68224(17)
C4F C 0.24611(11) 0.36389(10) 0.53070(16)
C5F C 0.20890(12) 0.35476(11) 0.31110(18)
C6F C 0.20741(14) 0.36360(14) 0.17202(19)
H5F H 0.2724 0.3809 0.1879
H6F H 0.1926 0.3078 0.1252
C7F C 0.13187(17) 0.42938(14) 0.0753(2)
H7F H 0.1488 0.4859 0.1196
H8F H 0.0673 0.4139 0.0633
C8F C 0.1273(2) 0.43406(17) -0.0677(2)
H9F H 0.1076 0.3790 -0.1138
H10F H 0.0802 0.4772 -0.1242
H11F H 0.1911 0.4490 -0.0564
O6 O 0.0000 0.20200(12) 0.7500
H12 H 0.0310 0.2400 0.7245
H12A H -0.0310 0.2400 0.7755
loop_
_geom_bond_atom_site_label_1
_geom_bond_atom_site_label_2
_geom_bond_site_symmetry_1
_geom_bond_site_symmetry_2
O1 C1 1_555 1_555
C1 O4 1_555 1_555
Na1 O2 1_555 1_555
O2 C3 1_555 1_555
O3 H1 1_555 1_555
N1 H2 1_555 1_555
O5 Na1 1_555 1_555
H3 O5 1_555 1_555
H4 O5 1_555 1_555
N2 Na1 1_555 1_555
C2 C1 1_555 1_555
C3 O3 1_555 1_555
C4 N2 1_555 1_555
C5 N1 1_555 1_555
C6 C5 1_555 1_555
H5 C6 1_555 1_555
H6 C6 1_555 1_555
C7 C6 1_555 1_555
H7 C7 1_555 1_555
H8 C7 1_555 1_555
C8 C7 1_555 1_555
H9 C8 1_555 1_555
H10 C8 1_555 1_555
H11 C8 1_555 1_555
O6 H12 1_555 1_555
O1F Na1 1_555 1_555
C1F O1F 1_555 1_555
Na1F O1 1_555 1_555
Na1A O2 1_555 1_555
Na1D O5 1_555 1_555
Na1G O2F 1_555 1_555
O2F Na1F 1_555 1_555
O2A Na1 1_555 1_555
O2G Na1F 1_555 1_555
O3F H1F 1_555 1_555
O4F C1F 1_555 1_555
N1F H2F 1_555 1_555
O5D Na1 1_555 1_555
O5F Na1F 1_555 1_555
O5B Na1F 1_555 1_555
H3D O5D 1_555 1_555
H3F O5F 1_555 1_555
H3B O5B 1_555 1_555
H4D O5D 1_555 1_555
H4F O5F 1_555 1_555
H4B O5B 1_555 1_555
N2F Na1F 1_555 1_555
C2F C1F 1_555 1_555
C3F O2F 1_555 1_555
C4F N2F 1_555 1_555
C5F N1F 1_555 1_555
C6F C5F 1_555 1_555
H5F C6F 1_555 1_555
H6F C6F 1_555 1_555
C7F C6F 1_555 1_555
H7F C7F 1_555 1_555
H8F C7F 1_555 1_555
C8F C7F 1_555 1_555
H9F C8F 1_555 1_555
H10F C8F 1_555 1_555
H11F C8F 1_555 1_555
H12A O6 1_555 1_555
N1 C2 1_555 1_555
N2 C5 1_555 1_555
C2 C4 1_555 1_555
C3 C4 1_555 1_555
Na1A O2A 1_555 1_555
Na1D O5D 1_555 1_555
Na1G O2G 1_555 1_555
O3F C3F 1_555 1_555
N1F C2F 1_555 1_555
N2F C5F 1_555 1_555
C2F C4F 1_555 1_555
C3F C4F 1_555 1_555

#END
