
#######################################################################
#
#                 Cambridge Crystallographic Data Centre
#                                CCDC 
#
#######################################################################
#
# If this CIF has been generated from an entry in the Cambridge 
# Structural Database, then it will include bibliographic, chemical, 
# crystal, experimental, refinement or atomic coordinate data resulting 
# from the CCDC's data processing and validation procedures.
#
#######################################################################

data_UNODAD
_symmetry_cell_setting           monoclinic
_symmetry_space_group_name_H-M   'P 21/c'
_symmetry_Int_Tables_number      14
_space_group_name_Hall           '-P 2ybc'
loop_
_symmetry_equiv_pos_site_id
_symmetry_equiv_pos_as_xyz
1 x,y,z
2 -x,1/2+y,1/2-z
3 -x,-y,-z
4 x,1/2-y,1/2+z
_cell_length_a                   8.1673(16)
_cell_length_b                   9.6908(19)
_cell_length_c                   8.0248(16)
_cell_angle_alpha                90
_cell_angle_beta                 97.08(3)
_cell_angle_gamma                90
_cell_volume                     630.301
loop_
_atom_site_label
_atom_site_type_symbol
_atom_site_fract_x
_atom_site_fract_y
_atom_site_fract_z
O1 O 0.03194(12) 0.42855(10) 0.15091(11)
C1 C 0.18403(15) 0.37648(13) 0.41306(14)
O2 O -0.03510(14) 0.24156(11) 0.28565(13)
N1 N 0.40511(15) 0.28845(14) 0.60951(16)
C2 C 0.04912(15) 0.34645(12) 0.27196(15)
C3 C 0.33735(19) 0.51936(16) 0.61350(17)
H1 H 0.3551 0.6058 0.6629
N2 N 0.42945(15) 0.41548(14) 0.67579(15)
C4 C 0.28349(16) 0.26953(14) 0.48590(16)
H2 H 0.2633 0.1804 0.4455
C5 C 0.21451(17) 0.50626(14) 0.47709(16)
H3 H 0.1559 0.5825 0.4316
Li1 Li -0.1023(3) 0.3958(2) -0.0663(3)
O3 O -0.33301(14) 0.39117(15) -0.04432(15)
H4 H -0.389(4) 0.354(3) 0.027(3)
H5 H -0.403(4) 0.403(3) -0.133(4)
O1B O -0.03194(12) 0.57145(10) -0.15091(11)
C1B C -0.18403(15) 0.62352(13) -0.41306(14)
O2B O 0.03510(14) 0.75844(11) -0.28565(13)
O2A O 0.03510(14) 0.74156(11) 0.21435(13)
O2C O -0.03510(14) 0.25844(11) -0.21435(13)
N1B N -0.40511(15) 0.71155(14) -0.60951(16)
C2B C -0.04912(15) 0.65355(12) -0.27196(15)
C3B C -0.33735(19) 0.48064(16) -0.61350(17)
H1B H -0.3551 0.3942 -0.6629
N2B N -0.42945(15) 0.58452(14) -0.67579(15)
C4B C -0.28349(16) 0.73047(14) -0.48590(16)
H2B H -0.2633 0.8196 -0.4455
C5B C -0.21451(17) 0.49374(14) -0.47709(16)
H3B H -0.1559 0.4175 -0.4316
Li1B Li 0.1023(3) 0.6042(2) 0.0663(3)
Li1A Li 0.1023(3) 0.8958(2) -0.4337(3)
Li1C Li -0.1023(3) 0.1042(2) 0.4337(3)
O3B O 0.33301(14) 0.60883(15) 0.04432(15)
H4B H 0.389(4) 0.646(3) -0.027(3)
H5B H 0.403(4) 0.597(3) 0.133(4)
loop_
_geom_bond_atom_site_label_1
_geom_bond_atom_site_label_2
_geom_bond_site_symmetry_1
_geom_bond_site_symmetry_2
O1 C2 1_555 1_555
C1 C2 1_555 1_555
O2 C2 1_555 1_555
N1 N2 1_555 1_555
C3 H1 1_555 1_555
N2 C3 1_555 1_555
C4 C1 1_555 1_555
H2 C4 1_555 1_555
C5 C1 1_555 1_555
H3 C5 1_555 1_555
Li1 O1 1_555 1_555
O3 Li1 1_555 1_555
H4 O3 1_555 1_555
H5 O3 1_555 1_555
O1B Li1 1_555 1_555
C1B C2B 1_555 1_555
O2B C2B 1_555 1_555
O2A Li1B 1_555 1_555
O2C Li1 1_555 1_555
N1B N2B 1_555 1_555
C2B O1B 1_555 1_555
C3B H1B 1_555 1_555
N2B C3B 1_555 1_555
C4B C1B 1_555 1_555
H2B C4B 1_555 1_555
C5B C1B 1_555 1_555
H3B C5B 1_555 1_555
Li1B O1 1_555 1_555
Li1A O2B 1_555 1_555
Li1C O2 1_555 1_555
O3B Li1B 1_555 1_555
H4B O3B 1_555 1_555
H5B O3B 1_555 1_555
N1 C4 1_555 1_555
C3 C5 1_555 1_555
O1B Li1B 1_555 1_555
N1B C4B 1_555 1_555
C3B C5B 1_555 1_555

#END
