
#######################################################################
#
#                 Cambridge Crystallographic Data Centre
#                                CCDC 
#
#######################################################################
#
# If this CIF has been generated from an entry in the Cambridge 
# Structural Database, then it will include bibliographic, chemical, 
# crystal, experimental, refinement or atomic coordinate data resulting 
# from the CCDC's data processing and validation procedures.
#
#######################################################################

data_UNODIL
_symmetry_cell_setting           monoclinic
_symmetry_space_group_name_H-M   'P 21/n'
_symmetry_Int_Tables_number      14
_space_group_name_Hall           '-P 2yn'
loop_
_symmetry_equiv_pos_site_id
_symmetry_equiv_pos_as_xyz
1 x,y,z
2 1/2-x,1/2+y,1/2-z
3 -x,-y,-z
4 1/2+x,1/2-y,1/2+z
_cell_length_a                   9.7373(10)
_cell_length_b                   9.4468(10)
_cell_length_c                   21.280(2)
_cell_angle_alpha                90
_cell_angle_beta                 101.229(2)
_cell_angle_gamma                90
_cell_volume                     1920
loop_
_atom_site_label
_atom_site_type_symbol
_atom_site_fract_x
_atom_site_fract_y
_atom_site_fract_z
Zn1 Zn 1.0000 0.0000 1.0000
N1 N 0.9529(2) 0.0662(2) 1.08533(8)
C1 C 1.0664(3) -0.1265(3) 1.15417(10)
C2 C 0.8349(2) 0.2917(3) 1.04962(11)
N2 N 1.0918(2) -0.1781(2) 1.04326(8)
C3 C 1.1139(3) -0.2084(3) 1.10731(11)
C4 C 1.0114(3) -0.2648(3) 1.24674(12)
H1 H 0.9250 -0.2874 1.2216
C5 C 1.2649(3) -0.1964(3) 1.32212(13)
H2 H 1.3505 -0.1722 1.3475
C6 C 0.8856(3) 0.1885(3) 1.09594(11)
C7 C 1.1741(3) -0.2811(3) 1.34609(11)
C8 C 0.6411(3) 0.3997(3) 1.09533(13)
H3 H 0.6022 0.3099 1.0958
C9 C 1.1027(3) -0.1798(3) 1.22180(10)
N3 N 1.2522(4) -0.3731(3) 1.46169(12)
C10 C 0.6318(3) 0.6457(3) 1.11635(13)
C11 C 0.8808(3) 0.1975(3) 1.16333(12)
H4 H 0.8407 0.2701 1.1832
C12 C 1.2296(3) -0.1464(3) 1.26005(12)
H5 H 1.2924 -0.0895 1.2439
C13 C 0.7632(3) 0.4171(3) 1.07089(11)
C14 C 0.7496(3) 0.6674(3) 1.09048(12)
H6 H 0.7846 0.7584 1.0880
C15 C 0.9912(3) -0.0002(2) 1.14336(11)
C16 C 1.2141(4) -0.3342(3) 1.41096(13)
C17 C 0.8154(3) 0.5528(3) 1.06823(12)
H7 H 0.8955 0.5673 1.0514
C18 C 0.5695(4) 0.7637(4) 1.14423(19)
C19 C 0.5774(3) 0.5122(3) 1.11873(15)
H8 H 0.4980 0.4981 1.1361
C20 C 0.9447(3) 0.0823(3) 1.19189(11)
H9 H 0.9568 0.0599 1.2352
C21 C 1.0462(3) -0.3172(3) 1.30882(13)
H10 H 0.9844 -0.3756 1.3250
C22 C 0.8455(3) 0.2842(3) 0.98472(11)
C23 C 0.7845(3) 0.3853(3) 0.93660(12)
H11 H 0.7372 0.4678 0.9433
C24 C 1.1911(3) -0.3379(3) 1.11993(12)
H12 H 1.2191 -0.3810 1.1597
N4 N 0.5198(5) 0.8532(4) 1.1673(2)
Zn1A Zn 1.5000 -0.5000 1.5000
Zn1A_2 Zn 0.5000 0.5000 0.5000
N1B N 1.0471(2) -0.0662(2) 0.91467(8)
C1B C 0.9336(3) 0.1265(3) 0.84583(10)
C2B C 1.1651(2) -0.2917(3) 0.95038(11)
N2B N 0.9082(2) 0.1781(2) 0.95674(8)
C3B C 0.8861(3) 0.2084(3) 0.89269(11)
C4B C 0.9886(3) 0.2648(3) 0.75326(12)
H1B H 1.0750 0.2874 0.7784
C5B C 0.7351(3) 0.1964(3) 0.67788(13)
H2B H 0.6495 0.1722 0.6525
C6B C 1.1144(3) -0.1885(3) 0.90406(11)
C7B C 0.8259(3) 0.2811(3) 0.65391(11)
C8B C 1.3589(3) -0.3997(3) 0.90467(13)
H3B H 1.3978 -0.3099 0.9042
C9B C 0.8973(3) 0.1798(3) 0.77820(10)
N3B N 0.7478(4) 0.3731(3) 0.53831(12)
N3A N 1.2478(4) 0.1269(3) 1.03831(12)
N3C N 0.7522(4) -0.1269(3) 0.96169(12)
C10B C 1.3682(3) -0.6457(3) 0.88365(13)
C11B C 1.1192(3) -0.1975(3) 0.83667(12)
H4B H 1.1593 -0.2701 0.8168
C12B C 0.7704(3) 0.1464(3) 0.73995(12)
H5B H 0.7076 0.0895 0.7561
C13B C 1.2368(3) -0.4171(3) 0.92911(11)
C14B C 1.2504(3) -0.6674(3) 0.90952(12)
H6B H 1.2154 -0.7584 0.9120
C15B C 1.0088(3) 0.0002(2) 0.85664(11)
C16B C 0.7859(4) 0.3342(3) 0.58904(13)
C17B C 1.1846(3) -0.5528(3) 0.93177(12)
H7B H 1.1045 -0.5673 0.9486
C18B C 1.4305(4) -0.7637(4) 0.85577(19)
C19B C 1.4226(3) -0.5122(3) 0.88127(15)
H8B H 1.5020 -0.4981 0.8639
C20B C 1.0553(3) -0.0823(3) 0.80811(11)
H9B H 1.0432 -0.0599 0.7648
C21B C 0.9538(3) 0.3172(3) 0.69118(13)
H10B H 1.0156 0.3756 0.6750
C22B C 1.1545(3) -0.2842(3) 1.01528(11)
C23B C 1.2155(3) -0.3853(3) 1.06340(12)
H11B H 1.2628 -0.4678 1.0567
C24B C 0.8089(3) 0.3379(3) 0.88007(12)
H12B H 0.7809 0.3810 0.8403
N4B N 1.4802(5) -0.8532(4) 0.8327(2)
loop_
_geom_bond_atom_site_label_1
_geom_bond_atom_site_label_2
_geom_bond_site_symmetry_1
_geom_bond_site_symmetry_2
Zn1 N1 1_555 1_555
N1 C6 1_555 1_555
C1 C3 1_555 1_555
C2 C6 1_555 1_555
N2 Zn1 1_555 1_555
C3 N2 1_555 1_555
C4 H1 1_555 1_555
C5 H2 1_555 1_555
C6 C11 1_555 1_555
C7 C5 1_555 1_555
C8 H3 1_555 1_555
C9 C1 1_555 1_555
N3 C16 1_555 1_555
C10 C14 1_555 1_555
C11 H4 1_555 1_555
C12 C5 1_555 1_555
H5 C12 1_555 1_555
C13 C2 1_555 1_555
C14 H6 1_555 1_555
C15 N1 1_555 1_555
C16 C7 1_555 1_555
C17 C13 1_555 1_555
H7 C17 1_555 1_555
C18 C10 1_555 1_555
C19 C8 1_555 1_555
H8 C19 1_555 1_555
C20 C11 1_555 1_555
H9 C20 1_555 1_555
C21 C4 1_555 1_555
H10 C21 1_555 1_555
C22 C2 1_555 1_555
C23 C22 1_555 1_555
H11 C23 1_555 1_555
C24 C3 1_555 1_555
H12 C24 1_555 1_555
N4 C18 1_555 1_555
Zn1A N3 1_555 1_555
Zn1A_2 N3B 1_555 1_555
N1B Zn1 1_555 1_555
C1B C3B 1_555 1_555
C2B C6B 1_555 1_555
N2B Zn1 1_555 1_555
C3B N2B 1_555 1_555
C4B H1B 1_555 1_555
C5B H2B 1_555 1_555
C6B N1B 1_555 1_555
C7B C5B 1_555 1_555
C8B H3B 1_555 1_555
C9B C1B 1_555 1_555
N3B C16B 1_555 1_555
N3A Zn1 1_555 1_555
N3C Zn1 1_555 1_555
C10B C14B 1_555 1_555
C11B C6B 1_555 1_555
H4B C11B 1_555 1_555
C12B C5B 1_555 1_555
H5B C12B 1_555 1_555
C13B C2B 1_555 1_555
C14B H6B 1_555 1_555
C15B N1B 1_555 1_555
C16B C7B 1_555 1_555
C17B C13B 1_555 1_555
H7B C17B 1_555 1_555
C18B C10B 1_555 1_555
C19B C8B 1_555 1_555
H8B C19B 1_555 1_555
C20B C11B 1_555 1_555
H9B C20B 1_555 1_555
C21B C4B 1_555 1_555
H10B C21B 1_555 1_555
C22B N2 1_555 1_555
C23B C24 1_555 1_555
H11B C23B 1_555 1_555
C24B C23 1_555 1_555
H12B C24B 1_555 1_555
N4B C18B 1_555 1_555
C1 C15 1_555 1_555
C4 C9 1_555 1_555
C7 C21 1_555 1_555
C8 C13 1_555 1_555
C9 C12 1_555 1_555
C10 C19 1_555 1_555
C14 C17 1_555 1_555
C15 C20 1_555 1_555
C22 N2B 1_555 1_555
C1B C15B 1_555 1_555
C2B C22B 1_555 1_555
C3B C24B 1_555 1_555
C4B C9B 1_555 1_555
C7B C21B 1_555 1_555
C8B C13B 1_555 1_555
C9B C12B 1_555 1_555
C10B C19B 1_555 1_555
C14B C17B 1_555 1_555
C15B C20B 1_555 1_555
C22B C23B 1_555 1_555

#END
