
#######################################################################
#
#                 Cambridge Crystallographic Data Centre
#                                CCDC 
#
#######################################################################
#
# If this CIF has been generated from an entry in the Cambridge 
# Structural Database, then it will include bibliographic, chemical, 
# crystal, experimental, refinement or atomic coordinate data resulting 
# from the CCDC's data processing and validation procedures.
#
#######################################################################

data_UNOFUZ
_symmetry_cell_setting           triclinic
_symmetry_space_group_name_H-M   'P -1'
_symmetry_Int_Tables_number      2
_space_group_name_Hall           '-P 1'
loop_
_symmetry_equiv_pos_site_id
_symmetry_equiv_pos_as_xyz
1 x,y,z
2 -x,-y,-z
_cell_length_a                   10.6453(12)
_cell_length_b                   11.6437(13)
_cell_length_c                   12.3213(14)
_cell_angle_alpha                103.1860(10)
_cell_angle_beta                 93.712(2)
_cell_angle_gamma                95.460(2)
_cell_volume                     1474.32
loop_
_atom_site_label
_atom_site_type_symbol
_atom_site_fract_x
_atom_site_fract_y
_atom_site_fract_z
Cu1 Cu 0.0000 0.5000 0.5000
Cu2 Cu 0.16105(3) 0.28114(3) 0.30705(3)
C1 C 0.3566(3) 0.4952(3) 0.3938(2)
H1 H 0.3151 0.5119 0.4588
C2 C 0.4679(3) 0.5651(3) 0.3878(3)
H2 H 0.4989 0.6283 0.4473
C3 C 0.5320(3) 0.5404(3) 0.2936(3)
H3 H 0.6081 0.5849 0.2895
C4 C 0.4814(3) 0.4478(2) 0.2042(2)
C5 C 0.5409(3) 0.4150(3) 0.0987(2)
C6 C 0.7044(3) 0.4393(3) -0.0073(3)
C7 C 0.8200(3) 0.5009(4) -0.0229(4)
H4 H 0.8591 0.5637 0.0335
C8 C 0.8743(4) 0.4683(5) -0.1208(4)
H5 H 0.9499 0.5099 -0.1311
C9 C 0.8181(5) 0.3737(5) -0.2055(4)
H6 H 0.8576 0.3527 -0.2712
C10 C 0.7062(4) 0.3103(4) -0.1950(3)
H7 H 0.6707 0.2461 -0.2518
C11 C 0.6448(4) 0.3455(4) -0.0940(3)
C12 C 0.4789(3) 0.3224(3) 0.0094(2)
C13 C 0.3556(3) 0.2621(3) 0.0214(2)
C14 C 0.2839(3) 0.1781(3) -0.0637(3)
H8 H 0.3126 0.1582 -0.1345
C15 C 0.1709(4) 0.1247(3) -0.0430(3)
H9 H 0.1212 0.0699 -0.1001
C16 C 0.1307(3) 0.1528(3) 0.0647(3)
H10 H 0.0555 0.1139 0.0791
C17 C 0.3064(3) 0.2894(2) 0.1253(2)
C18 C 0.3685(3) 0.3830(2) 0.2154(2)
C19 C 0.0936(3) 0.3055(2) 0.5382(2)
C20 C 0.1180(3) 0.1978(2) 0.5788(2)
C21 C 0.2345(3) 0.1544(3) 0.5679(2)
H11 H 0.2982 0.1943 0.5378
C22 C 0.2564(3) 0.0524(3) 0.6013(3)
H12 H 0.3356 0.0251 0.5965
C23 C 0.1596(3) -0.0095(3) 0.6423(3)
H13 H 0.1735 -0.0796 0.6629
C24 C 0.0425(3) 0.0324(2) 0.6525(2)
C25 C 0.0231(2) 0.1374(2) 0.6232(2)
H14 H -0.0541 0.1679 0.6332
C26 C -0.0649(3) -0.0392(2) 0.6895(2)
C27 C -0.1168(3) 0.3584(2) 0.3066(2)
C28 C -0.2233(2) 0.2739(2) 0.2388(2)
C29 C -0.2136(3) 0.2190(3) 0.1282(2)
H15 H -0.1427 0.2393 0.0933
C30 C -0.3081(3) 0.1344(3) 0.0692(2)
H16 H -0.3010 0.0972 -0.0051
C31 C -0.4141(3) 0.1051(3) 0.1216(2)
H17 H -0.4773 0.0471 0.0825
C32 C -0.4265(3) 0.1611(2) 0.2310(2)
C33 C -0.3325(2) 0.2459(2) 0.2893(2)
H18 H -0.3415 0.2848 0.3627
C34 C -0.5433(3) 0.1340(3) 0.2864(3)
N1 N 0.3072(2) 0.40537(19) 0.31041(18)
N2 N 0.1971(2) 0.23343(19) 0.14657(18)
N3 N 0.6503(2) 0.4734(2) 0.0899(2)
N4 N 0.5305(3) 0.2874(2) -0.0866(2)
O1 O 0.1657(2) 0.33737(16) 0.46839(15)
O2 O 0.00556(19) 0.36275(15) 0.57337(16)
O3 O -0.0436(2) -0.14264(17) 0.69704(17)
O4 O -0.1638(2) 0.00500(19) 0.7081(2)
O5 O -0.01211(18) 0.36972(17) 0.26738(16)
O6 O -0.14098(18) 0.41203(17) 0.40347(16)
O7 O -0.6232(2) 0.0496(2) 0.22334(19)
H19 H -0.6875 0.0414 0.2554
O8 O -0.5632(2) 0.1898(2) 0.3764(2)
Cu2A Cu -0.16105(3) 0.71886(3) 0.69295(3)
Cu2A_2 Cu -0.16105(3) -0.28114(3) 0.69295(3)
Cu2_2 Cu 0.16105(3) 1.28114(3) 0.30705(3)
C1A C -0.3566(3) 0.5048(3) 0.6062(2)
H1A H -0.3151 0.4881 0.5412
C2A C -0.4679(3) 0.4349(3) 0.6122(3)
H2A H -0.4989 0.3717 0.5527
C3A C -0.5320(3) 0.4596(3) 0.7064(3)
H3A H -0.6081 0.4151 0.7105
C4A C -0.4814(3) 0.5522(2) 0.7958(2)
C5A C -0.5409(3) 0.5850(3) 0.9013(2)
C6A C -0.7044(3) 0.5607(3) 1.0073(3)
C7A C -0.8200(3) 0.4991(4) 1.0229(4)
H4A H -0.8591 0.4363 0.9665
C8A C -0.8743(4) 0.5317(5) 1.1208(4)
H5A H -0.9499 0.4901 1.1311
C9A C -0.8181(5) 0.6263(5) 1.2055(4)
H6A H -0.8576 0.6473 1.2712
C10A C -0.7062(4) 0.6897(4) 1.1950(3)
H7A H -0.6707 0.7539 1.2518
C11A C -0.6448(4) 0.6545(4) 1.0940(3)
C12A C -0.4789(3) 0.6776(3) 0.9906(2)
C13A C -0.3556(3) 0.7379(3) 0.9786(2)
C14A C -0.2839(3) 0.8219(3) 1.0637(3)
H8A H -0.3126 0.8418 1.1345
C15A C -0.1709(4) 0.8753(3) 1.0430(3)
H9A H -0.1212 0.9301 1.1001
C16A C -0.1307(3) 0.8472(3) 0.9353(3)
H10A H -0.0555 0.8861 0.9209
C17A C -0.3064(3) 0.7106(2) 0.8747(2)
C18A C -0.3685(3) 0.6170(2) 0.7846(2)
C19A C -0.0936(3) 0.6945(2) 0.4618(2)
C20A C -0.1180(3) 0.8022(2) 0.4212(2)
C21A C -0.2345(3) 0.8456(3) 0.4321(2)
H11A H -0.2982 0.8057 0.4622
C22A C -0.2564(3) 0.9476(3) 0.3987(3)
H12A H -0.3356 0.9749 0.4035
C23A C -0.1596(3) 1.0095(3) 0.3577(3)
H13A H -0.1735 1.0796 0.3371
C24A C -0.0425(3) 0.9676(2) 0.3475(2)
C25A C -0.0231(2) 0.8626(2) 0.3768(2)
H14A H 0.0541 0.8321 0.3668
C26A C 0.0649(3) 1.0392(2) 0.3105(2)
C27A C 0.1168(3) 0.6416(2) 0.6934(2)
C28A C 0.2233(2) 0.7261(2) 0.7612(2)
C29A C 0.2136(3) 0.7810(3) 0.8718(2)
H15A H 0.1427 0.7607 0.9067
C30A C 0.3081(3) 0.8656(3) 0.9308(2)
H16A H 0.3010 0.9028 1.0051
C31A C 0.4141(3) 0.8949(3) 0.8784(2)
H17A H 0.4773 0.9529 0.9175
C32A C 0.4265(3) 0.8389(2) 0.7690(2)
C33A C 0.3325(2) 0.7541(2) 0.7107(2)
H18A H 0.3415 0.7152 0.6373
C34A C 0.5433(3) 0.8660(3) 0.7136(3)
N1A N -0.3072(2) 0.59463(19) 0.68959(18)
N2A N -0.1971(2) 0.76657(19) 0.85343(18)
N3A N -0.6503(2) 0.5266(2) 0.9101(2)
N4A N -0.5305(3) 0.7126(2) 1.0866(2)
O1A O -0.1657(2) 0.66263(16) 0.53161(15)
O2A O -0.00556(19) 0.63725(15) 0.42663(16)
O3A O 0.0436(2) 1.14264(17) 0.30296(17)
O3A_2 O 0.0436(2) 0.14264(17) 0.30296(17)
O3_2 O -0.0436(2) 0.85736(17) 0.69704(17)
O4A O 0.1638(2) 0.99500(19) 0.2919(2)
O5A O 0.01211(18) 0.63028(17) 0.73262(16)
O6A O 0.14098(18) 0.58797(17) 0.59653(16)
O7A O 0.6232(2) 0.9504(2) 0.77666(19)
H19A H 0.6875 0.9586 0.7446
O8A O 0.5632(2) 0.8102(2) 0.6236(2)
loop_
_geom_bond_atom_site_label_1
_geom_bond_atom_site_label_2
_geom_bond_site_symmetry_1
_geom_bond_site_symmetry_2
Cu1 O1 1_555 1_555
Cu2 N1 1_555 1_555
C1 H1 1_555 1_555
C2 C1 1_555 1_555
H2 C2 1_555 1_555
C3 C2 1_555 1_555
H3 C3 1_555 1_555
C4 C3 1_555 1_555
C5 C4 1_555 1_555
C6 C7 1_555 1_555
C7 H4 1_555 1_555
C8 C7 1_555 1_555
H5 C8 1_555 1_555
C9 C8 1_555 1_555
H6 C9 1_555 1_555
C10 C9 1_555 1_555
H7 C10 1_555 1_555
C11 C6 1_555 1_555
C12 C5 1_555 1_555
C13 C12 1_555 1_555
C14 C13 1_555 1_555
H8 C14 1_555 1_555
C15 C14 1_555 1_555
H9 C15 1_555 1_555
C16 C15 1_555 1_555
H10 C16 1_555 1_555
C17 C13 1_555 1_555
C18 C4 1_555 1_555
C19 C20 1_555 1_555
C20 C21 1_555 1_555
C21 H11 1_555 1_555
C22 C21 1_555 1_555
H12 C22 1_555 1_555
C23 C22 1_555 1_555
H13 C23 1_555 1_555
C24 C23 1_555 1_555
C25 C20 1_555 1_555
H14 C25 1_555 1_555
C26 C24 1_555 1_555
C27 C28 1_555 1_555
C28 C29 1_555 1_555
C29 H15 1_555 1_555
C30 C29 1_555 1_555
H16 C30 1_555 1_555
C31 C30 1_555 1_555
H17 C31 1_555 1_555
C32 C31 1_555 1_555
C33 C28 1_555 1_555
H18 C33 1_555 1_555
C34 C32 1_555 1_555
N1 C1 1_555 1_555
N2 Cu2 1_555 1_555
N3 C5 1_555 1_555
N4 C11 1_555 1_555
O1 Cu2 1_555 1_555
O2 Cu1 1_555 1_555
O3 C26 1_555 1_555
O4 C26 1_555 1_555
O5 Cu2 1_555 1_555
O6 Cu1 1_555 1_555
O7 C34 1_555 1_555
H19 O7 1_555 1_555
O8 C34 1_555 1_555
Cu2A N1A 1_555 1_555
Cu2A_2 O3 1_555 1_555
Cu2_2 O3A 1_555 1_555
C1A H1A 1_555 1_555
C2A C1A 1_555 1_555
H2A C2A 1_555 1_555
C3A C2A 1_555 1_555
H3A C3A 1_555 1_555
C4A C3A 1_555 1_555
C5A C4A 1_555 1_555
C6A C7A 1_555 1_555
C7A H4A 1_555 1_555
C8A C7A 1_555 1_555
H5A C8A 1_555 1_555
C9A C8A 1_555 1_555
H6A C9A 1_555 1_555
C10A C9A 1_555 1_555
H7A C10A 1_555 1_555
C11A C6A 1_555 1_555
C12A C5A 1_555 1_555
C13A C12A 1_555 1_555
C14A C13A 1_555 1_555
H8A C14A 1_555 1_555
C15A C14A 1_555 1_555
H9A C15A 1_555 1_555
C16A C15A 1_555 1_555
H10A C16A 1_555 1_555
C17A C13A 1_555 1_555
C18A C4A 1_555 1_555
C19A C20A 1_555 1_555
C20A C21A 1_555 1_555
C21A H11A 1_555 1_555
C22A C21A 1_555 1_555
H12A C22A 1_555 1_555
C23A C22A 1_555 1_555
H13A C23A 1_555 1_555
C24A C23A 1_555 1_555
C25A C20A 1_555 1_555
H14A C25A 1_555 1_555
C26A C24A 1_555 1_555
C27A C28A 1_555 1_555
C28A C29A 1_555 1_555
C29A H15A 1_555 1_555
C30A C29A 1_555 1_555
H16A C30A 1_555 1_555
C31A C30A 1_555 1_555
H17A C31A 1_555 1_555
C32A C31A 1_555 1_555
C33A C28A 1_555 1_555
H18A C33A 1_555 1_555
C34A C32A 1_555 1_555
N1A C1A 1_555 1_555
N2A Cu2A 1_555 1_555
N3A C5A 1_555 1_555
N4A C11A 1_555 1_555
O1A Cu1 1_555 1_555
O2A Cu1 1_555 1_555
O3A C26A 1_555 1_555
O3A_2 Cu2 1_555 1_555
O3_2 Cu2A 1_555 1_555
O4A C26A 1_555 1_555
O5A Cu2A 1_555 1_555
O6A Cu1 1_555 1_555
O7A C34A 1_555 1_555
H19A O7A 1_555 1_555
O8A C34A 1_555 1_555
C6 N3 1_555 1_555
C10 C11 1_555 1_555
C12 N4 1_555 1_555
C16 N2 1_555 1_555
C17 C18 1_555 1_555
C17 N2 1_555 1_555
C18 N1 1_555 1_555
C19 O1 1_555 1_555
C19 O2 1_555 1_555
C24 C25 1_555 1_555
C27 O5 1_555 1_555
C27 O6 1_555 1_555
C32 C33 1_555 1_555
Cu2A O1A 1_555 1_555
C6A N3A 1_555 1_555
C10A C11A 1_555 1_555
C12A N4A 1_555 1_555
C16A N2A 1_555 1_555
C17A C18A 1_555 1_555
C17A N2A 1_555 1_555
C18A N1A 1_555 1_555
C19A O1A 1_555 1_555
C19A O2A 1_555 1_555
C24A C25A 1_555 1_555
C27A O5A 1_555 1_555
C27A O6A 1_555 1_555
C32A C33A 1_555 1_555

#END
