
#######################################################################
#
#                 Cambridge Crystallographic Data Centre
#                                CCDC 
#
#######################################################################
#
# If this CIF has been generated from an entry in the Cambridge 
# Structural Database, then it will include bibliographic, chemical, 
# crystal, experimental, refinement or atomic coordinate data resulting 
# from the CCDC's data processing and validation procedures.
#
#######################################################################

data_UNOFIN
_symmetry_cell_setting           monoclinic
_symmetry_space_group_name_H-M   'P 21/c'
_symmetry_Int_Tables_number      14
_space_group_name_Hall           '-P 2ybc'
loop_
_symmetry_equiv_pos_site_id
_symmetry_equiv_pos_as_xyz
1 x,y,z
2 -x,1/2+y,1/2-z
3 -x,-y,-z
4 x,1/2-y,1/2+z
_cell_length_a                   12.515(3)
_cell_length_b                   6.8232(14)
_cell_length_c                   19.489(4)
_cell_angle_alpha                90
_cell_angle_beta                 93.71(3)
_cell_angle_gamma                90
_cell_volume                     1660.72
loop_
_atom_site_label
_atom_site_type_symbol
_atom_site_fract_x
_atom_site_fract_y
_atom_site_fract_z
Sr1 Sr 0.49560(4) 0.13650(6) 0.18761(2)
F1 F 0.8456(3) -0.2517(6) 0.1198(2)
F2 F 0.3591(3) -0.0311(5) 0.0763(2)
O1 O 0.6953(3) 0.2536(5) 0.1848(2)
O2 O 0.6718(3) -0.0557(5) 0.15556(19)
O3 O 0.4152(3) -0.5267(4) 0.19585(18)
O4 O 0.4430(3) -0.2113(5) 0.18799(19)
O5 O 0.5122(3) 0.2790(6) 0.0668(2)
H1 H 0.4729 0.2551 0.0325
H2 H 0.5570 0.3656 0.0634
O6 O 0.3191(3) 0.1157(5) 0.24982(19)
H3 H 0.3064 0.0463 0.2827
H4 H 0.3006 0.2265 0.2602
C1 C 0.8510(4) 0.0722(8) 0.1647(3)
C2 C 0.9161(5) 0.2282(10) 0.1858(3)
H7 H 0.8851 0.3423 0.2014
C3 C 1.0267(5) 0.2175(12) 0.1841(4)
H8 H 1.0689 0.3235 0.1989
C4 C 1.0738(5) 0.0520(13) 0.1607(4)
H9 H 1.1478 0.0459 0.1593
C5 C 1.0123(4) -0.1044(11) 0.1394(3)
H10 H 1.0439 -0.2176 0.1235
C6 C 0.9030(4) -0.0920(9) 0.1419(3)
C7 C 0.7313(4) 0.0909(7) 0.1680(2)
C8 C 0.3139(4) -0.3571(7) 0.1084(2)
C9 C 0.2474(4) -0.5162(8) 0.0942(3)
H11 H 0.2541 -0.6266 0.1221
C10 C 0.1711(5) -0.5148(10) 0.0394(3)
H12 H 0.1276 -0.6236 0.0306
C11 C 0.1601(5) -0.3523(12) -0.0016(3)
H13 H 0.1085 -0.3515 -0.0382
C12 C 0.2240(5) -0.1900(10) 0.0103(3)
H14 H 0.2170 -0.0803 -0.0180
C13 C 0.2988(4) -0.1956(8) 0.0656(3)
C14 C 0.3973(3) -0.3640(7) 0.1672(2)
Sr1A Sr 0.50440(4) -0.36350(6) 0.31239(2)
Sr1_2 Sr 0.49560(4) -0.86350(6) 0.18761(2)
O3A O 0.5848(3) -0.0267(4) 0.30415(18)
O3_2 O 0.4152(3) 0.4733(4) 0.19585(18)
O4A O 0.5570(3) 0.2887(5) 0.31201(19)
O7 O 0.3815(3) 0.1569(6) 0.4433(2)
H5 H 0.3644 0.2184 0.4082
H6 H 0.3370 0.1511 0.4723
loop_
_geom_bond_atom_site_label_1
_geom_bond_atom_site_label_2
_geom_bond_site_symmetry_1
_geom_bond_site_symmetry_2
Sr1 F2 1_555 1_555
F1 C6 1_555 1_555
F2 C13 1_555 1_555
O1 Sr1 1_555 1_555
O2 Sr1 1_555 1_555
O3 C14 1_555 1_555
O4 Sr1 1_555 1_555
O5 Sr1 1_555 1_555
H1 O5 1_555 1_555
H2 O5 1_555 1_555
O6 Sr1 1_555 1_555
H3 O6 1_555 1_555
H4 O6 1_555 1_555
O7 H5 1_555 1_555
H6 O7 1_555 1_555
C1 C2 1_555 1_555
C2 H7 1_555 1_555
C3 C2 1_555 1_555
H8 C3 1_555 1_555
C4 C3 1_555 1_555
H9 C4 1_555 1_555
C5 C4 1_555 1_555
H10 C5 1_555 1_555
C6 C1 1_555 1_555
C7 O1 1_555 1_555
C8 C9 1_555 1_555
C9 H11 1_555 1_555
C10 C9 1_555 1_555
H12 C10 1_555 1_555
C11 C10 1_555 1_555
H13 C11 1_555 1_555
C12 C11 1_555 1_555
H14 C12 1_555 1_555
C13 C8 1_555 1_555
C14 O4 1_555 1_555
Sr1A O3 1_555 1_555
Sr1_2 O3 1_555 1_555
O3A Sr1 1_555 1_555
O3_2 Sr1 1_555 1_555
O4A Sr1 1_555 1_555
O2 C7 1_555 1_555
O4 Sr1A 1_555 1_555
C1 C7 1_555 1_555
C5 C6 1_555 1_555
C8 C14 1_555 1_555
C12 C13 1_555 1_555
Sr1A O3A 1_555 1_555

#END
