
#######################################################################
#
#                 Cambridge Crystallographic Data Centre
#                                CCDC 
#
#######################################################################
#
# If this CIF has been generated from an entry in the Cambridge 
# Structural Database, then it will include bibliographic, chemical, 
# crystal, experimental, refinement or atomic coordinate data resulting 
# from the CCDC's data processing and validation procedures.
#
#######################################################################

data_UNOGOU
_symmetry_cell_setting           monoclinic
_symmetry_space_group_name_H-M   'P 21/c'
_symmetry_Int_Tables_number      14
_space_group_name_Hall           '-P 2ybc'
loop_
_symmetry_equiv_pos_site_id
_symmetry_equiv_pos_as_xyz
1 x,y,z
2 -x,1/2+y,1/2-z
3 -x,-y,-z
4 x,1/2-y,1/2+z
_cell_length_a                   7.5957(15)
_cell_length_b                   7.2971(15)
_cell_length_c                   17.036(3)
_cell_angle_alpha                90
_cell_angle_beta                 95.10(3)
_cell_angle_gamma                90
_cell_volume                     940.509
loop_
_atom_site_label
_atom_site_type_symbol
_atom_site_fract_x
_atom_site_fract_y
_atom_site_fract_z
Rb1 Rb 1.61252(5) 1.14921(5) 0.20167(2)
C1 C 1.2759(5) 0.8926(5) 0.1057(2)
C2 C 1.1105(5) 0.8137(5) 0.0645(2)
C3 C 1.0990(5) 0.7877(5) -0.0199(2)
C4 C 0.9370(5) 0.7063(5) -0.0527(2)
C5 C 0.8025(5) 0.6593(4) -0.0081(2)
H1 H 0.6998 0.6056 -0.0314
C6 C 0.8215(5) 0.6929(5) 0.0721(2)
C7 C 0.9735(5) 0.7708(5) 0.1085(2)
H2 H 0.9826 0.7939 0.1624
N1 N 0.9095(5) 0.6663(4) -0.13724(19)
N2 N 0.6787(5) 0.6448(4) 0.1190(2)
O1 O 1.2938(4) 0.9117(4) 0.17699(15)
O2 O 1.3980(3) 0.9418(4) 0.06105(15)
O3 O 1.0271(5) 0.6878(6) -0.17888(19)
O4 O 0.7641(5) 0.6080(5) -0.16227(18)
O5 O 0.5666(4) 0.5376(5) 0.09310(19)
O6 O 0.6775(4) 0.7154(5) 0.18481(17)
O7 O 1.2245(4) 0.8369(4) -0.05933(16)
H3 H 1.3073 0.8813 -0.0282
Rb1A Rb 1.38748(5) 1.64921(5) 0.29833(2)
Rb1A_2 Rb 1.38748(5) 0.64921(5) 0.29833(2)
Rb1B Rb 1.38748(5) 0.85079(5) -0.20167(2)
Rb1B_2 Rb 0.38748(5) 0.85079(5) -0.20167(2)
Rb1C Rb 0.61252(5) 0.35079(5) -0.29833(2)
Rb1_2 Rb 0.61252(5) 0.14921(5) 0.20167(2)
Rb1_3 Rb 0.61252(5) 1.14921(5) 0.20167(2)
Rb1A_3 Rb 0.38748(5) 0.64921(5) 0.29833(2)
O1A O 1.7062(4) 1.4117(4) 0.32301(15)
O3B O 1.9729(5) 1.3122(6) 0.17888(19)
O4B O 1.2359(5) 1.3920(5) 0.16227(18)
O4C O 1.7641(5) 0.8920(5) 0.33773(18)
O5_2 O 1.5666(4) 1.5376(5) 0.09310(19)
O6_2 O 1.6775(4) 0.7154(5) 0.18481(17)
O6A O 1.3225(4) 1.2154(5) 0.31519(17)
O7B O 1.7755(4) 1.1631(4) 0.05933(16)
H3B H 1.6927 1.1187 0.0282
loop_
_geom_bond_atom_site_label_1
_geom_bond_atom_site_label_2
_geom_bond_site_symmetry_1
_geom_bond_site_symmetry_2
Rb1 O1 1_555 1_555
C1 C2 1_555 1_555
C2 C3 1_555 1_555
C3 C4 1_555 1_555
C4 C5 1_555 1_555
C5 H1 1_555 1_555
C6 C5 1_555 1_555
C7 C2 1_555 1_555
H2 C7 1_555 1_555
N1 C4 1_555 1_555
N2 C6 1_555 1_555
O1 C1 1_555 1_555
O2 Rb1 1_555 1_555
O3 N1 1_555 1_555
O4 N1 1_555 1_555
O5 N2 1_555 1_555
O6 N2 1_555 1_555
O7 C3 1_555 1_555
H3 O7 1_555 1_555
Rb1A O1A 1_555 1_555
Rb1A_2 O1 1_555 1_555
Rb1B O3 1_555 1_555
Rb1B_2 O4 1_555 1_555
Rb1C O4 1_555 1_555
Rb1_2 O5 1_555 1_555
Rb1_3 O6 1_555 1_555
Rb1A_3 O6 1_555 1_555
O1A Rb1 1_555 1_555
O3B Rb1 1_555 1_555
O4B Rb1 1_555 1_555
O4C Rb1 1_555 1_555
O5_2 Rb1 1_555 1_555
O6_2 Rb1 1_555 1_555
O6A Rb1 1_555 1_555
O7B Rb1 1_555 1_555
H3B O7B 1_555 1_555
C1 O2 1_555 1_555
C6 C7 1_555 1_555
O7 Rb1B 1_555 1_555
Rb1A O4B 1_555 1_555
Rb1A O6A 1_555 1_555
Rb1A_2 O4C 1_555 1_555
Rb1A_2 O6_2 1_555 1_555

#END
