
#######################################################################
#
#                 Cambridge Crystallographic Data Centre
#                                CCDC 
#
#######################################################################
#
# If this CIF has been generated from an entry in the Cambridge 
# Structural Database, then it will include bibliographic, chemical, 
# crystal, experimental, refinement or atomic coordinate data resulting 
# from the CCDC's data processing and validation procedures.
#
#######################################################################

data_UNOGEK
_symmetry_cell_setting           monoclinic
_symmetry_space_group_name_H-M   'P 21/c'
_symmetry_Int_Tables_number      14
_space_group_name_Hall           '-P 2ybc'
loop_
_symmetry_equiv_pos_site_id
_symmetry_equiv_pos_as_xyz
1 x,y,z
2 -x,1/2+y,1/2-z
3 -x,-y,-z
4 x,1/2-y,1/2+z
_cell_length_a                   7.4559(15)
_cell_length_b                   11.494(2)
_cell_length_c                   12.481(3)
_cell_angle_alpha                90
_cell_angle_beta                 96.19(3)
_cell_angle_gamma                90
_cell_volume                     1063.36
loop_
_atom_site_label
_atom_site_type_symbol
_atom_site_fract_x
_atom_site_fract_y
_atom_site_fract_z
N1 N 0.8455(3) -0.0438(2) 0.85704(19)
H1 H 0.8967 -0.1070 0.8304
H2 H 0.7365 -0.0661 0.8744
C1 C 0.8139(5) 0.0411(3) 0.7680(3)
H3 H 0.7468 0.1069 0.7916
H4 H 0.7420 0.0050 0.7076
Ni1 Ni 1.0000 0.0000 1.0000
S1 S 1.10651(11) 0.18961(6) 0.81832(6)
N2 N 0.7881(3) 0.11099(19) 1.03850(19)
O1 O 1.1241(3) 0.14000(16) 0.92774(15)
N3 N 0.6253(3) 0.27144(19) 1.04500(18)
C2 C 0.5608(4) 0.3874(2) 1.0207(2)
O2 O 0.9938(3) 0.29267(19) 0.8110(2)
O3 O 1.2806(3) 0.2066(2) 0.7786(2)
C3 C 0.7630(4) 0.2182(2) 1.0020(2)
H5 H 0.8314 0.2529 0.9527
C4 C 0.6610(4) 0.0958(3) 1.1103(3)
H6 H 0.6455 0.0278 1.1486
C5 C 0.5626(4) 0.1936(3) 1.1170(3)
H7 H 0.4714 0.2061 1.1609
C6 C 0.6539(5) 0.4610(3) 0.9619(3)
H8 H 0.7584 0.4353 0.9349
C7 C 0.9901(5) 0.0834(3) 0.7320(3)
H9 H 0.9659 0.1163 0.6604
H10 H 1.0690 0.0169 0.7270
C8 C 0.4054(5) 0.4257(3) 1.0584(3)
H11 H 0.3393 0.3757 1.0977
N1B N 1.1545(3) 0.0438(2) 1.14296(19)
H1B H 1.1033 0.1070 1.1696
H2B H 1.2635 0.0661 1.1256
C1B C 1.1861(5) -0.0411(3) 1.2320(3)
H3B H 1.2532 -0.1069 1.2084
H4B H 1.2580 -0.0050 1.2924
Ni1_2 Ni 0.0000 1.0000 1.0000
S1B S 0.89349(11) -0.18961(6) 1.18168(6)
N2B N 0.2119(3) 0.88901(19) 0.96150(19)
N2B_2 N 1.2119(3) -0.11099(19) 0.96150(19)
O1B O 0.8759(3) -0.14000(16) 1.07226(15)
N3B N 0.3747(3) 0.72856(19) 0.95500(18)
C2B C 0.4392(4) 0.6126(2) 0.9793(2)
O2B O 1.0062(3) -0.29267(19) 1.1890(2)
O3B O 0.7194(3) -0.2066(2) 1.2214(2)
C3B C 0.2370(4) 0.7818(2) 0.9980(2)
H5B H 0.1686 0.7471 1.0473
C4B C 0.3390(4) 0.9042(3) 0.8897(3)
H6B H 0.3545 0.9722 0.8514
C5B C 0.4374(4) 0.8064(3) 0.8830(3)
H7B H 0.5286 0.7939 0.8391
C6B C 0.3461(5) 0.5390(3) 1.0381(3)
H8B H 0.2416 0.5647 1.0651
C7B C 1.0099(5) -0.0834(3) 1.2680(3)
H9B H 1.0341 -0.1163 1.3396
H10B H 0.9310 -0.0169 1.2730
C8B C 0.5946(5) 0.5743(3) 0.9416(3)
H11B H 0.6607 0.6243 0.9023
loop_
_geom_bond_atom_site_label_1
_geom_bond_atom_site_label_2
_geom_bond_site_symmetry_1
_geom_bond_site_symmetry_2
N1 H1 1_555 1_555
H2 N1 1_555 1_555
C1 N1 1_555 1_555
H3 C1 1_555 1_555
H4 C1 1_555 1_555
Ni1 N1 1_555 1_555
S1 O1 1_555 1_555
N2 Ni1 1_555 1_555
O1 Ni1 1_555 1_555
N3 C2 1_555 1_555
C2 C6 1_555 1_555
O2 S1 1_555 1_555
O3 S1 1_555 1_555
C3 N2 1_555 1_555
H5 C3 1_555 1_555
C4 N2 1_555 1_555
H6 C4 1_555 1_555
C5 N3 1_555 1_555
H7 C5 1_555 1_555
C6 H8 1_555 1_555
C7 C1 1_555 1_555
H9 C7 1_555 1_555
H10 C7 1_555 1_555
C8 C2 1_555 1_555
H11 C8 1_555 1_555
N1B Ni1 1_555 1_555
H1B N1B 1_555 1_555
H2B N1B 1_555 1_555
C1B N1B 1_555 1_555
H3B C1B 1_555 1_555
H4B C1B 1_555 1_555
Ni1_2 N2B 1_555 1_555
S1B O1B 1_555 1_555
N2B C3B 1_555 1_555
N2B_2 Ni1 1_555 1_555
O1B Ni1 1_555 1_555
N3B C2B 1_555 1_555
C2B C6B 1_555 1_555
O2B S1B 1_555 1_555
O3B S1B 1_555 1_555
C3B N3B 1_555 1_555
H5B C3B 1_555 1_555
C4B N2B 1_555 1_555
H6B C4B 1_555 1_555
C5B N3B 1_555 1_555
H7B C5B 1_555 1_555
C6B C8 1_555 1_555
H8B C6B 1_555 1_555
C7B C1B 1_555 1_555
H9B C7B 1_555 1_555
H10B C7B 1_555 1_555
C8B C6 1_555 1_555
H11B C8B 1_555 1_555
S1 C7 1_555 1_555
N3 C3 1_555 1_555
C4 C5 1_555 1_555
S1B C7B 1_555 1_555
C2B C8B 1_555 1_555
C4B C5B 1_555 1_555

#END
