
#######################################################################
#
#                 Cambridge Crystallographic Data Centre
#                                CCDC 
#
#######################################################################
#
# If this CIF has been generated from an entry in the Cambridge 
# Structural Database, then it will include bibliographic, chemical, 
# crystal, experimental, refinement or atomic coordinate data resulting 
# from the CCDC's data processing and validation procedures.
#
#######################################################################

data_UNOGIO
_symmetry_cell_setting           monoclinic
_symmetry_space_group_name_H-M   'P 21/c'
_symmetry_Int_Tables_number      14
_space_group_name_Hall           '-P 2ybc'
loop_
_symmetry_equiv_pos_site_id
_symmetry_equiv_pos_as_xyz
1 x,y,z
2 -x,1/2+y,1/2-z
3 -x,-y,-z
4 x,1/2-y,1/2+z
_cell_length_a                   4.4393(9)
_cell_length_b                   8.7151(17)
_cell_length_c                   11.860(2)
_cell_angle_alpha                90
_cell_angle_beta                 93.83(3)
_cell_angle_gamma                90
_cell_volume                     457.826
loop_
_atom_site_label
_atom_site_type_symbol
_atom_site_fract_x
_atom_site_fract_y
_atom_site_fract_z
Cs1 Cs 0.08959(8) 0.47092(5) 0.19017(3)
C1 C -0.2743(12) 0.3536(7) 0.4829(5)
N1 N -0.3813(11) 0.3517(6) 0.3756(4)
N2 N -0.5901(11) 0.2386(6) 0.3729(5)
N3 N -0.6023(13) 0.1805(6) 0.4744(5)
N4 N -0.4029(13) 0.2515(7) 0.5477(5)
N5 N -0.0545(11) 0.4536(6) 0.5334(5)
Cs1B Cs -0.08959(8) 0.52908(5) 0.80983(3)
Cs1_2 Cs -0.91041(8) 0.47092(5) 0.19017(3)
Cs1A Cs -1.08959(8) -0.02908(5) 0.30983(3)
Cs1C Cs -0.91041(8) 0.02908(5) 0.69017(3)
Cs1C_2 Cs 0.08959(8) 0.02908(5) 0.69017(3)
Cs1B_2 Cs 0.91041(8) 0.52908(5) 0.80983(3)
Cs1C_3 Cs 1.08959(8) 1.02908(5) 0.69017(3)
Cs1A_2 Cs 0.91041(8) 0.97092(5) 0.30983(3)
Cs1A_3 Cs -0.08959(8) 0.97092(5) 0.30983(3)
C1B C 0.2743(12) 0.6464(7) 0.5171(5)
N1B N 0.3813(11) 0.6483(6) 0.6244(4)
N1_2 N 0.6187(11) 0.3517(6) 0.3756(4)
N1B_2 N -0.6187(11) 0.6483(6) 0.6244(4)
N2B N 0.5901(11) 0.7614(6) 0.6271(5)
N2_2 N 0.4099(11) 0.2386(6) 0.3729(5)
N2A N -0.4099(11) 0.7386(6) 0.1271(5)
N2B_2 N -0.4099(11) 0.7614(6) 0.6271(5)
N2C N 0.4099(11) 0.2614(6) 0.8729(5)
N3B N 0.6023(13) 0.8195(6) 0.5256(5)
N3C N 0.3977(13) 0.3195(6) -0.0256(5)
N3A N -0.3977(13) 0.6805(6) 1.0256(5)
N4B N 0.4029(13) 0.7485(7) 0.4523(5)
N4C N -0.4029(13) 0.2485(7) 0.0477(5)
N4A N 0.4029(13) 0.7515(7) 0.9523(5)
N5B N 0.0545(11) 0.5464(6) 0.4666(5)
loop_
_geom_bond_atom_site_label_1
_geom_bond_atom_site_label_2
_geom_bond_site_symmetry_1
_geom_bond_site_symmetry_2
Cs1 N1 1_555 1_555
C1 N1 1_555 1_555
N1 N2 1_555 1_555
N2 N3 1_555 1_555
N3 N4 1_555 1_555
N4 C1 1_555 1_555
N5 C1 1_555 1_555
Cs1B N1B 1_555 1_555
Cs1_2 N1 1_555 1_555
Cs1A N2 1_555 1_555
Cs1C N3 1_555 1_555
Cs1C_2 N4 1_555 1_555
Cs1B_2 N1B 1_555 1_555
Cs1C_3 N2B 1_555 1_555
Cs1A_2 N3B 1_555 1_555
Cs1A_3 N2A 1_555 1_555
C1B N1B 1_555 1_555
N1B N2B 1_555 1_555
N1_2 Cs1 1_555 1_555
N1B_2 Cs1B 1_555 1_555
N2B Cs1B_2 1_555 1_555
N2_2 Cs1 1_555 1_555
N2A Cs1 1_555 1_555
N2B_2 Cs1B 1_555 1_555
N2C Cs1B 1_555 1_555
N3B N2B 1_555 1_555
N3C Cs1 1_555 1_555
N3A Cs1B 1_555 1_555
N4B Cs1A_3 1_555 1_555
N4C Cs1 1_555 1_555
N4A Cs1B 1_555 1_555
N5B N5 1_555 1_555
N2 Cs1_2 1_555 1_555
Cs1C_2 N2C 1_555 1_555
C1B N4B 1_555 1_555
C1B N5B 1_555 1_555
N1_2 N2_2 1_555 1_555
N1B_2 N2B_2 1_555 1_555
N3B N4B 1_555 1_555

#END
