
#######################################################################
#
#                 Cambridge Crystallographic Data Centre
#                                CCDC 
#
#######################################################################
#
# If this CIF has been generated from an entry in the Cambridge 
# Structural Database, then it will include bibliographic, chemical, 
# crystal, experimental, refinement or atomic coordinate data resulting 
# from the CCDC's data processing and validation procedures.
#
#######################################################################

data_UNOJUD
_symmetry_cell_setting           triclinic
_symmetry_space_group_name_H-M   'P -1'
_symmetry_Int_Tables_number      2
_space_group_name_Hall           '-P 1'
loop_
_symmetry_equiv_pos_site_id
_symmetry_equiv_pos_as_xyz
1 x,y,z
2 -x,-y,-z
_cell_length_a                   8.3585(3)
_cell_length_b                   12.3865(5)
_cell_length_c                   12.6474(5)
_cell_angle_alpha                109.8800(10)
_cell_angle_beta                 97.1480(10)
_cell_angle_gamma                105.3210(10)
_cell_volume                     1154
loop_
_atom_site_label
_atom_site_type_symbol
_atom_site_fract_x
_atom_site_fract_y
_atom_site_fract_z
Sr1 Sr 0.52281(3) 0.38668(2) 0.836097(18)
Sr2 Sr 0.73255(3) -0.029140(18) 0.442990(17)
S1 S 0.86161(8) 0.59771(5) 0.49878(5)
C1 C 0.8122(3) 0.5081(2) 0.3523(2)
C2 C 0.6941(3) 0.3944(2) 0.3291(2)
C3 C 0.6439(3) 0.3818(2) 0.4302(2)
C4 C 0.7262(3) 0.4842(2) 0.5279(2)
C5 C 0.6219(4) 0.2988(2) 0.2169(2)
N1 N 0.5618(4) 0.2193(2) 0.1288(2)
C6 C 0.5138(3) 0.2695(2) 0.4264(2)
H1 H 0.4569 0.2923 0.4909
H2 H 0.4255 0.2337 0.3530
C7 C 0.5937(3) 0.1742(2) 0.4358(2)
O1 O 0.6974(2) 0.14922(16) 0.37546(15)
O2 O 0.5497(2) 0.12130(15) 0.50208(15)
C8 C 0.7165(3) 0.5129(2) 0.6502(2)
O3 O 0.6408(3) 0.42856(17) 0.67841(17)
O4 O 0.7905(3) 0.62341(16) 0.71948(16)
N2 N 0.8873(3) 0.55429(17) 0.28088(16)
C9 C 0.9903(3) 0.6824(2) 0.3295(2)
H3 H 1.0850 0.6964 0.3933
H4 H 1.0415 0.7022 0.2691
C10 C 0.8908(3) 0.7697(2) 0.37615(19)
O5 O 0.7356(2) 0.74141(14) 0.32936(14)
O6 O 0.9741(2) 0.86959(14) 0.45813(13)
C11 C 0.9063(3) 0.4759(2) 0.17032(19)
H5 H 1.0207 0.5130 0.1602
H6 H 0.9023 0.3967 0.1741
C12 C 0.7739(3) 0.4525(2) 0.0643(2)
O7 O 0.7931(3) 0.39005(17) -0.03249(15)
O8 O 0.6533(2) 0.49464(16) 0.07465(15)
O9 O 0.8664(2) -0.04188(16) 0.26212(14)
H7 H 0.805(3) -0.096(2) 0.2032(19)
H8 H 0.889(4) 0.021(2) 0.247(3)
O10 O 0.5486(2) 0.16837(18) 0.73157(15)
H9 H 0.608(4) 0.162(3) 0.686(2)
H10 H 0.572(4) 0.129(3) 0.768(3)
O11 O 0.7989(2) 0.02488(19) 0.66408(16)
H11 H 0.898(3) 0.035(3) 0.689(3)
H12 H 0.751(4) 0.006(3) 0.709(2)
O13 O 0.3787(3) 0.23012(19) 0.92443(16)
H15 H 0.430(4) 0.204(3) 0.965(3)
H16 H 0.316(4) 0.259(3) 0.958(3)
O15 O 0.7186(3) 0.6180(2) 0.91336(19)
H20 H 0.740(5) 0.626(4) 0.854(2)
H21 H 0.811(4) 0.640(4) 0.959(3)
Sr1A Sr 0.47719(3) 0.61332(2) 0.163903(18)
Sr1_2 Sr 0.52281(3) 0.38668(2) -0.163903(18)
Sr2A Sr 0.26745(3) 0.029140(18) 0.557010(17)
Sr2_2 Sr 0.73255(3) 0.970860(18) 0.442990(17)
Sr2A_2 Sr 1.26745(3) 1.029140(18) 0.557010(17)
O2A O 0.4503(2) -0.12130(15) 0.49792(15)
O5A O 0.2644(2) 0.25859(14) 0.67064(14)
O5_2 O 0.7356(2) -0.25859(14) 0.32936(14)
O6_2 O 0.9741(2) -0.13041(14) 0.45813(13)
O6A O 1.0259(2) 0.13041(14) 0.54187(13)
O7_2 O 0.7931(3) 0.39005(17) 0.96751(15)
O8A O 0.3467(2) 0.50536(16) 0.92535(15)
O8_2 O 0.6533(2) 0.49464(16) 1.07465(15)
O10A O 0.4514(2) -0.16837(18) 0.26843(15)
H9A H 0.392(4) -0.162(3) 0.314(2)
H10A H 0.428(4) -0.129(3) 0.232(3)
O12 O -0.0724(3) 0.17943(17) 0.24069(16)
H13 H -0.138(4) 0.198(3) 0.282(3)
H14 H 0.015(3) 0.240(2) 0.260(3)
O14 O 0.6112(3) 1.0182(2) 0.83803(19)
H17 H 0.686(5) 1.030(5) 0.897(3)
H18 H 0.549(6) 1.037(5) 0.885(4)
O16 O 0.1058(3) 0.92663(19) 0.99457(17)
H22 H 0.111(5) 0.896(3) 0.9290(18)
H23 H 0.041(8) 0.966(6) 1.000(7)
O17 O 0.0120(4) 0.7429(3) 1.0829(2)
H25 H 0.073(7) 0.701(5) 1.058(6)
H26 H 0.045(9) 0.806(4) 1.071(6)
H19? H 0.532(5) 0.952(3) 0.823(5)
H24? H 0.059(8) 0.873(5) 1.015(6)
H27? H -0.024(10) 0.732(8) 1.016(3)
O18? O -0.0951(12) 0.6963(8) 0.9739(8)
loop_
_geom_bond_atom_site_label_1
_geom_bond_atom_site_label_2
_geom_bond_site_symmetry_1
_geom_bond_site_symmetry_2
Sr1 O3 1_555 1_555
Sr2 O1 1_555 1_555
S1 C1 1_555 1_555
C1 C2 1_555 1_555
C2 C3 1_555 1_555
C3 C4 1_555 1_555
C4 S1 1_555 1_555
C5 C2 1_555 1_555
N1 C5 1_555 1_555
C6 C3 1_555 1_555
H1 C6 1_555 1_555
H2 C6 1_555 1_555
C7 C6 1_555 1_555
O1 C7 1_555 1_555
O2 Sr2 1_555 1_555
C8 C4 1_555 1_555
O3 C8 1_555 1_555
O4 C8 1_555 1_555
N2 C1 1_555 1_555
C9 N2 1_555 1_555
H3 C9 1_555 1_555
H4 C9 1_555 1_555
C10 C9 1_555 1_555
O5 C10 1_555 1_555
O6 C10 1_555 1_555
C11 N2 1_555 1_555
H5 C11 1_555 1_555
H6 C11 1_555 1_555
C12 C11 1_555 1_555
O7 C12 1_555 1_555
O8 C12 1_555 1_555
O9 Sr2 1_555 1_555
H7 O9 1_555 1_555
H8 O9 1_555 1_555
O10 Sr1 1_555 1_555
H9 O10 1_555 1_555
H10 O10 1_555 1_555
O11 Sr2 1_555 1_555
H11 O11 1_555 1_555
H12 O11 1_555 1_555
O12 H13 1_555 1_555
H14 O12 1_555 1_555
O13 Sr1 1_555 1_555
H15 O13 1_555 1_555
H16 O13 1_555 1_555
O14 H17 1_555 1_555
H18 O14 1_555 1_555
O15 Sr1 1_555 1_555
H20 O15 1_555 1_555
H21 O15 1_555 1_555
O16 H22 1_555 1_555
H23 O16 1_555 1_555
O17 H25 1_555 1_555
H26 O17 1_555 1_555
Sr1A O5 1_555 1_555
Sr1_2 O7 1_555 1_555
Sr2A O2 1_555 1_555
Sr2_2 O5 1_555 1_555
Sr2A_2 O6 1_555 1_555
O2A Sr2 1_555 1_555
O5A Sr1 1_555 1_555
O5_2 Sr2 1_555 1_555
O6_2 Sr2 1_555 1_555
O6A Sr2 1_555 1_555
O7_2 Sr1 1_555 1_555
O8A Sr1 1_555 1_555
O8_2 Sr1 1_555 1_555
O10A Sr2 1_555 1_555
H9A O10A 1_555 1_555
H10A O10A 1_555 1_555
C7 O2 1_555 1_555
O6 Sr2_2 1_555 1_555
O8 Sr1A 1_555 1_555
O8 Sr1_2 1_555 1_555
O10 Sr2A 1_555 1_555
Sr2A O2A 1_555 1_555
Sr2A O5A 1_555 1_555

#END
