
#######################################################################
#
#                 Cambridge Crystallographic Data Centre
#                                CCDC 
#
#######################################################################
#
# If this CIF has been generated from an entry in the Cambridge 
# Structural Database, then it will include bibliographic, chemical, 
# crystal, experimental, refinement or atomic coordinate data resulting 
# from the CCDC's data processing and validation procedures.
#
#######################################################################

data_UNOLAL
_symmetry_cell_setting           monoclinic
_symmetry_space_group_name_H-M   'P 21/c'
_symmetry_Int_Tables_number      14
_space_group_name_Hall           '-P 2ybc'
loop_
_symmetry_equiv_pos_site_id
_symmetry_equiv_pos_as_xyz
1 x,y,z
2 -x,1/2+y,1/2-z
3 -x,-y,-z
4 x,1/2-y,1/2+z
_cell_length_a                   14.602(2)
_cell_length_b                   9.5827(14)
_cell_length_c                   12.8714(19)
_cell_angle_alpha                90
_cell_angle_beta                 107.483(2)
_cell_angle_gamma                90
_cell_volume                     1717.85
loop_
_atom_site_label
_atom_site_type_symbol
_atom_site_fract_x
_atom_site_fract_y
_atom_site_fract_z
Cd1 Cd 0.234091(10) 0.221072(15) 0.070761(11)
S1 S 0.37258(4) -0.22496(6) 0.01149(6)
S2 S 0.23783(5) 0.02652(6) 0.23222(5)
N1 N 0.07134(13) 0.27035(18) 0.05811(14)
N2 N 0.22324(12) 0.41643(18) 0.17479(13)
N3 N 0.39458(13) 0.30157(18) 0.14777(15)
N4 N 0.26943(14) 0.0221(2) -0.00030(15)
N5 N 0.20178(16) 0.1795(2) 0.40086(16)
C1 C -0.00422(17) 0.2001(2) -0.00390(18)
H1 H 0.0067 0.1264 -0.0481
C2 C -0.09807(18) 0.2296(2) -0.0070(2)
H2 H -0.1502 0.1779 -0.0527
C3 C -0.11374(16) 0.3359(3) 0.05798(19)
H3 H -0.1770 0.3575 0.0589
C4 C -0.03583(16) 0.4107(2) 0.12192(18)
H4 H -0.0452 0.4844 0.1671
C5 C 0.05605(15) 0.3770(2) 0.11946(16)
C6 C 0.14267(15) 0.4573(2) 0.18289(16)
C7 C 0.12885(17) 0.5799(2) 0.25002(18)
H5 H 0.1180 0.5461 0.3172
H6 H 0.0732 0.6345 0.2082
H7 H 0.1864 0.6388 0.2683
C8 C 0.31469(16) 0.4832(2) 0.23056(18)
H8 H 0.3129 0.5220 0.3012
H9 H 0.3272 0.5605 0.1857
C9 C 0.39357(16) 0.3735(2) 0.24905(17)
H10 H 0.4566 0.4190 0.2817
H11 H 0.3846 0.3035 0.3017
C10 C 0.42503(18) 0.3962(2) 0.0739(2)
H12 H 0.4891 0.4329 0.1112
H13 H 0.3794 0.4736 0.0527
H14 H 0.4268 0.3447 0.0087
C11 C 0.46237(17) 0.1834(3) 0.1762(2)
H15 H 0.4639 0.1353 0.1096
H16 H 0.4415 0.1181 0.2232
H17 H 0.5267 0.2182 0.2148
C12 C 0.31368(15) -0.0797(2) 0.00673(16)
C13 C 0.21670(16) 0.1178(2) 0.33052(17)
Cd1C Cd 0.234091(10) 0.278928(15) 0.570761(11)
N5C N 0.20178(16) 0.3205(2) -0.09914(16)
loop_
_geom_bond_atom_site_label_1
_geom_bond_atom_site_label_2
_geom_bond_site_symmetry_1
_geom_bond_site_symmetry_2
Cd1 S2 1_555 1_555
S1 C12 1_555 1_555
S2 C13 1_555 1_555
N1 Cd1 1_555 1_555
N2 Cd1 1_555 1_555
N3 Cd1 1_555 1_555
N4 Cd1 1_555 1_555
N5 C13 1_555 1_555
C1 N1 1_555 1_555
H1 C1 1_555 1_555
C2 C1 1_555 1_555
H2 C2 1_555 1_555
C3 C2 1_555 1_555
H3 C3 1_555 1_555
C4 C3 1_555 1_555
H4 C4 1_555 1_555
C5 N1 1_555 1_555
C6 N2 1_555 1_555
C7 C6 1_555 1_555
H5 C7 1_555 1_555
H6 C7 1_555 1_555
H7 C7 1_555 1_555
C8 N2 1_555 1_555
H8 C8 1_555 1_555
H9 C8 1_555 1_555
C9 N3 1_555 1_555
H10 C9 1_555 1_555
H11 C9 1_555 1_555
C10 N3 1_555 1_555
H12 C10 1_555 1_555
H13 C10 1_555 1_555
H14 C10 1_555 1_555
C11 N3 1_555 1_555
H15 C11 1_555 1_555
H16 C11 1_555 1_555
H17 C11 1_555 1_555
C12 N4 1_555 1_555
Cd1C N5 1_555 1_555
N5C Cd1 1_555 1_555
C4 C5 1_555 1_555
C5 C6 1_555 1_555
C8 C9 1_555 1_555

#END
