
#######################################################################
#
#                 Cambridge Crystallographic Data Centre
#                                CCDC 
#
#######################################################################
#
# If this CIF has been generated from an entry in the Cambridge 
# Structural Database, then it will include bibliographic, chemical, 
# crystal, experimental, refinement or atomic coordinate data resulting 
# from the CCDC's data processing and validation procedures.
#
#######################################################################

data_UNOMIU
_symmetry_cell_setting           monoclinic
_symmetry_space_group_name_H-M   'P 21/c'
_symmetry_Int_Tables_number      14
_space_group_name_Hall           '-P 2ybc'
loop_
_symmetry_equiv_pos_site_id
_symmetry_equiv_pos_as_xyz
1 x,y,z
2 -x,1/2+y,1/2-z
3 -x,-y,-z
4 x,1/2-y,1/2+z
_cell_length_a                   13.548(3)
_cell_length_b                   9.2054(18)
_cell_length_c                   12.549(3)
_cell_angle_alpha                90
_cell_angle_beta                 115.17(3)
_cell_angle_gamma                90
_cell_volume                     1416.44
loop_
_atom_site_label
_atom_site_type_symbol
_atom_site_fract_x
_atom_site_fract_y
_atom_site_fract_z
O1 O 0.4450(2) -1.2949(3) 0.9518(2)
O2 O 0.4582(3) -1.2604(3) 0.7820(3)
O3 O 0.0826(3) -0.6942(4) 0.6289(3)
O4 O 0.3405(2) -0.5553(3) 0.9959(2)
O5 O 0.5531(2) -0.4483(3) 1.1813(2)
H1 H 0.6060 -0.5105 1.2077
H2 H 0.5186 -0.4578 1.2237
N1 N 0.1342(3) -0.6213(4) 0.7227(3)
N2 N 0.2516(3) -0.5595(4) 0.8999(3)
C1 C 0.4323(3) -1.2209(4) 0.8615(4)
C2 C 0.3798(3) -1.0740(4) 0.8520(4)
C3 C 0.3428(3) -0.9981(4) 0.7470(4)
H3 H 0.3513 -1.0380 0.6834
C4 C 0.2933(4) -0.8637(4) 0.7352(4)
H4 H 0.2687 -0.8139 0.6640
C5 C 0.2805(3) -0.8039(4) 0.8299(4)
C6 C 0.3184(4) -0.8778(4) 0.9369(4)
H5 H 0.3115 -0.8366 1.0011
C7 C 0.3663(3) -1.0122(4) 0.9470(4)
H6 H 0.3900 -1.0626 1.0177
C8 C 0.2253(3) -0.6637(4) 0.8166(3)
C9 C 0.1031(4) -0.4678(4) 0.7365(4)
C10 C 0.1582(3) -0.4559(4) 0.8726(4)
C11 C 0.1545(4) -0.3707(5) 0.6754(4)
H7 H 0.1167 -0.3834 0.5917
H8 H 0.2298 -0.3965 0.7010
H9 H 0.1494 -0.2710 0.6949
C12 C -0.0192(4) -0.4509(6) 0.6821(4)
H10 H -0.0472 -0.4596 0.5981
H11 H -0.0377 -0.3572 0.7018
H12 H -0.0506 -0.5252 0.7118
C13 C 0.0892(4) -0.5195(5) 0.9312(5)
H13 H 0.1274 -0.5090 1.0151
H14 H 0.0760 -0.6206 0.9117
H15 H 0.0209 -0.4688 0.9037
C14 C 0.1972(4) -0.3056(5) 0.9213(4)
H16 H 0.2299 -0.3090 1.0058
H17 H 0.1363 -0.2400 0.8944
H18 H 0.2500 -0.2724 0.8946
Co1 Co 0.5000 -0.5000 1.0000
O1_2 O 0.4450(2) -0.2949(3) 0.9518(2)
O1B O 0.5550(2) -0.7051(3) 1.0482(2)
O2_2 O 0.4582(3) -0.2604(3) 0.7820(3)
O3_2 O 0.0826(3) 0.3058(4) 0.6289(3)
O4_2 O 0.3405(2) 0.4447(3) 0.9959(2)
O4B O 0.6595(2) -0.4447(3) 1.0041(2)
O5B O 0.4469(2) -0.5517(3) 0.8187(2)
H1B H 0.3940 -0.4895 0.7923
H2B H 0.4814 -0.5422 0.7763
N1_2 N 0.1342(3) 0.3787(4) 0.7227(3)
N2_2 N 0.2516(3) 0.4405(4) 0.8999(3)
C1_2 C 0.4323(3) -0.2209(4) 0.8615(4)
C2_2 C 0.3798(3) -0.0740(4) 0.8520(4)
C3_2 C 0.3428(3) 0.0019(4) 0.7470(4)
H3_2 H 0.3513 -0.0380 0.6834
C4_2 C 0.2933(4) 0.1363(4) 0.7352(4)
H4_2 H 0.2687 0.1861 0.6640
C5_2 C 0.2805(3) 0.1961(4) 0.8299(4)
C6_2 C 0.3184(4) 0.1222(4) 0.9369(4)
H5_2 H 0.3115 0.1634 1.0011
C7_2 C 0.3663(3) -0.0122(4) 0.9470(4)
H6_2 H 0.3900 -0.0626 1.0177
C8_2 C 0.2253(3) 0.3363(4) 0.8166(3)
C9_2 C 0.1031(4) 0.5322(4) 0.7365(4)
C10_2 C 0.1582(3) 0.5441(4) 0.8726(4)
C11_2 C 0.1545(4) 0.6293(5) 0.6754(4)
H7_2 H 0.1167 0.6166 0.5917
H8_2 H 0.2298 0.6035 0.7010
H9_2 H 0.1494 0.7290 0.6949
C12_2 C -0.0192(4) 0.5491(6) 0.6821(4)
H10_2 H -0.0472 0.5404 0.5981
H11_2 H -0.0377 0.6428 0.7018
H12_2 H -0.0506 0.4748 0.7118
C13_2 C 0.0892(4) 0.4805(5) 0.9312(5)
H13_2 H 0.1274 0.4910 1.0151
H14_2 H 0.0760 0.3794 0.9117
H15_2 H 0.0209 0.5312 0.9037
C14_2 C 0.1972(4) 0.6944(5) 0.9213(4)
H16_2 H 0.2299 0.6910 1.0058
H17_2 H 0.1363 0.7600 0.8944
H18_2 H 0.2500 0.7276 0.8946
Co1_2 Co 0.5000 -1.5000 1.0000
Co1_3 Co 0.5000 0.5000 1.0000
loop_
_geom_bond_atom_site_label_1
_geom_bond_atom_site_label_2
_geom_bond_site_symmetry_1
_geom_bond_site_symmetry_2
O1 C1 1_555 1_555
O2 C1 1_555 1_555
O3 N1 1_555 1_555
O4 N2 1_555 1_555
O5 H1 1_555 1_555
H2 O5 1_555 1_555
N1 C8 1_555 1_555
N2 C8 1_555 1_555
C1 C2 1_555 1_555
C2 C3 1_555 1_555
C3 H3 1_555 1_555
C4 C3 1_555 1_555
H4 C4 1_555 1_555
C5 C4 1_555 1_555
C6 C5 1_555 1_555
H5 C6 1_555 1_555
C7 C2 1_555 1_555
H6 C7 1_555 1_555
C8 C5 1_555 1_555
C9 N1 1_555 1_555
C10 N2 1_555 1_555
C11 C9 1_555 1_555
H7 C11 1_555 1_555
H8 C11 1_555 1_555
H9 C11 1_555 1_555
C12 C9 1_555 1_555
H10 C12 1_555 1_555
H11 C12 1_555 1_555
H12 C12 1_555 1_555
C13 C10 1_555 1_555
H13 C13 1_555 1_555
H14 C13 1_555 1_555
H15 C13 1_555 1_555
C14 C10 1_555 1_555
H16 C14 1_555 1_555
H17 C14 1_555 1_555
H18 C14 1_555 1_555
Co1 O4 1_555 1_555
O1_2 Co1 1_555 1_555
O1B Co1 1_555 1_555
O2_2 C1_2 1_555 1_555
O3_2 N1_2 1_555 1_555
O4_2 N2_2 1_555 1_555
O4B Co1 1_555 1_555
O5B Co1 1_555 1_555
H1B O5B 1_555 1_555
H2B O5B 1_555 1_555
N1_2 C8_2 1_555 1_555
N2_2 C8_2 1_555 1_555
C1_2 O1_2 1_555 1_555
C2_2 C1_2 1_555 1_555
C3_2 C2_2 1_555 1_555
H3_2 C3_2 1_555 1_555
C4_2 C3_2 1_555 1_555
H4_2 C4_2 1_555 1_555
C5_2 C4_2 1_555 1_555
C6_2 C5_2 1_555 1_555
H5_2 C6_2 1_555 1_555
C7_2 C2_2 1_555 1_555
H6_2 C7_2 1_555 1_555
C8_2 C5_2 1_555 1_555
C9_2 N1_2 1_555 1_555
C10_2 N2_2 1_555 1_555
C11_2 C9_2 1_555 1_555
H7_2 C11_2 1_555 1_555
H8_2 C11_2 1_555 1_555
H9_2 C11_2 1_555 1_555
C12_2 C9_2 1_555 1_555
H10_2 C12_2 1_555 1_555
H11_2 C12_2 1_555 1_555
H12_2 C12_2 1_555 1_555
C13_2 C10_2 1_555 1_555
H13_2 C13_2 1_555 1_555
H14_2 C13_2 1_555 1_555
H15_2 C13_2 1_555 1_555
C14_2 C10_2 1_555 1_555
H16_2 C14_2 1_555 1_555
H17_2 C14_2 1_555 1_555
H18_2 C14_2 1_555 1_555
Co1_2 O1 1_555 1_555
Co1_3 O4_2 1_555 1_555
O5 Co1 1_555 1_555
C6 C7 1_555 1_555
C9 C10 1_555 1_555
C6_2 C7_2 1_555 1_555
C9_2 C10_2 1_555 1_555

#END
