
#######################################################################
#
#                 Cambridge Crystallographic Data Centre
#                                CCDC 
#
#######################################################################
#
# If this CIF has been generated from an entry in the Cambridge 
# Structural Database, then it will include bibliographic, chemical, 
# crystal, experimental, refinement or atomic coordinate data resulting 
# from the CCDC's data processing and validation procedures.
#
#######################################################################

data_UNOQOE
_symmetry_cell_setting           monoclinic
_symmetry_space_group_name_H-M   'P 2/n'
_symmetry_Int_Tables_number      13
_space_group_name_Hall           '-P 2yac'
loop_
_symmetry_equiv_pos_site_id
_symmetry_equiv_pos_as_xyz
1 x,y,z
2 1/2-x,y,1/2-z
3 -x,-y,-z
4 1/2+x,-y,1/2+z
_cell_length_a                   8.0310(10)
_cell_length_b                   9.732(3)
_cell_length_c                   12.436(7)
_cell_angle_alpha                90
_cell_angle_beta                 96.584(9)
_cell_angle_gamma                90
_cell_volume                     965.559
loop_
_atom_site_label
_atom_site_type_symbol
_atom_site_fract_x
_atom_site_fract_y
_atom_site_fract_z
Zn1 Zn -0.2500 -0.79138(7) -0.2500
S1 S -0.53421(13) -0.05934(11) 0.22275(9)
O1 O -0.0250(3) -0.5421(3) -0.2171(2)
O2 O -0.1994(3) -0.6632(3) -0.1262(2)
N1 N -0.3247(4) -0.0874(3) 0.0706(2)
H1 H -0.3095 -0.0003 0.0655
N2 N -0.4101(4) -0.2848(3) 0.1261(2)
H2 H -0.4577 -0.3449 0.1630
C1 C -0.4205(4) -0.1486(4) 0.1382(3)
C2 C -0.2548(4) -0.1864(4) 0.0112(3)
C3 C -0.3103(4) -0.3141(4) 0.0445(3)
C4 C -0.2693(4) -0.4350(4) -0.0030(3)
H3 H -0.3080 -0.5193 0.0191
C5 C -0.1666(4) -0.4254(4) -0.0864(3)
C6 C -0.1099(5) -0.2984(4) -0.1183(3)
H4 H -0.0422 -0.2952 -0.1741
C7 C -0.1506(5) -0.1767(4) -0.0701(3)
H5 H -0.1100 -0.0925 -0.0911
C8 C -0.1248(5) -0.5512(4) -0.1469(3)
Zn1B Zn -0.7500 -0.20862(7) 0.2500
Zn1B_2 Zn 0.2500 -0.20862(7) -0.7500
S1C S -0.03421(13) -0.94066(11) -0.27725(9)
S1B S -0.46579(13) -0.94066(11) -0.22275(9)
S1A S 0.03421(13) -0.05934(11) -0.72275(9)
O1A O -0.4750(3) -0.5421(3) -0.2829(2)
O2A O -0.3006(3) -0.6632(3) -0.3738(2)
N1A N -0.1753(4) -0.0874(3) -0.5706(2)
H1A H -0.1905 -0.0003 -0.5655
N2A N -0.0899(4) -0.2848(3) -0.6261(2)
H2A H -0.0423 -0.3449 -0.6630
C1A C -0.0795(4) -0.1486(4) -0.6382(3)
C2A C -0.2452(4) -0.1864(4) -0.5112(3)
C3A C -0.1897(4) -0.3141(4) -0.5445(3)
C4A C -0.2307(4) -0.4350(4) -0.4970(3)
H3A H -0.1920 -0.5193 -0.5191
C5A C -0.3334(4) -0.4254(4) -0.4136(3)
C6A C -0.3901(5) -0.2984(4) -0.3817(3)
H4A H -0.4578 -0.2952 -0.3259
C7A C -0.3494(5) -0.1767(4) -0.4299(3)
H5A H -0.3900 -0.0925 -0.4089
C8A C -0.3752(5) -0.5512(4) -0.3531(3)
O3 O -0.2982(4) 0.1927(3) 0.0612(2)
H6 H -0.2234 0.2210 0.0243
H7 H -0.3104 0.2530 0.1073
O4 O 0.2500 -0.3703(5) -0.2500
H8 H 0.1720 -0.4223 -0.2410
H8A H 0.3280 -0.4223 -0.2590
loop_
_geom_bond_atom_site_label_1
_geom_bond_atom_site_label_2
_geom_bond_site_symmetry_1
_geom_bond_site_symmetry_2
Zn1 O2 1_555 1_555
S1 C1 1_555 1_555
O1 C8 1_555 1_555
O2 C8 1_555 1_555
N1 H1 1_555 1_555
N2 H2 1_555 1_555
C1 N1 1_555 1_555
C2 N1 1_555 1_555
C3 N2 1_555 1_555
C4 C3 1_555 1_555
H3 C4 1_555 1_555
C5 C4 1_555 1_555
C6 C5 1_555 1_555
H4 C6 1_555 1_555
C7 C2 1_555 1_555
H5 C7 1_555 1_555
C8 C5 1_555 1_555
O3 H6 1_555 1_555
H7 O3 1_555 1_555
O4 H8 1_555 1_555
Zn1B S1 1_555 1_555
Zn1B_2 S1A 1_555 1_555
S1C Zn1 1_555 1_555
S1B Zn1 1_555 1_555
S1A C1A 1_555 1_555
O1A C8A 1_555 1_555
O2A Zn1 1_555 1_555
N1A H1A 1_555 1_555
N2A H2A 1_555 1_555
C1A N1A 1_555 1_555
C2A N1A 1_555 1_555
C3A N2A 1_555 1_555
C4A C3A 1_555 1_555
H3A C4A 1_555 1_555
C5A C4A 1_555 1_555
C6A C5A 1_555 1_555
H4A C6A 1_555 1_555
C7A C2A 1_555 1_555
H5A C7A 1_555 1_555
C8A O2A 1_555 1_555
H8A O4 1_555 1_555
N2 C1 1_555 1_555
C2 C3 1_555 1_555
C6 C7 1_555 1_555
N2A C1A 1_555 1_555
C2A C3A 1_555 1_555
C5A C8A 1_555 1_555
C6A C7A 1_555 1_555

#END
