
#######################################################################
#
#                 Cambridge Crystallographic Data Centre
#                                CCDC 
#
#######################################################################
#
# If this CIF has been generated from an entry in the Cambridge 
# Structural Database, then it will include bibliographic, chemical, 
# crystal, experimental, refinement or atomic coordinate data resulting 
# from the CCDC's data processing and validation procedures.
#
#######################################################################

data_UNOTOH
_symmetry_cell_setting           monoclinic
_symmetry_space_group_name_H-M   'P 21/c'
_symmetry_Int_Tables_number      14
_space_group_name_Hall           '-P 2ybc'
loop_
_symmetry_equiv_pos_site_id
_symmetry_equiv_pos_as_xyz
1 x,y,z
2 -x,1/2+y,1/2-z
3 -x,-y,-z
4 x,1/2-y,1/2+z
_cell_length_a                   9.917(2)
_cell_length_b                   8.7409(17)
_cell_length_c                   22.499(6)
_cell_angle_alpha                90
_cell_angle_beta                 107.43(3)
_cell_angle_gamma                90
_cell_volume                     1860.74
loop_
_atom_site_label
_atom_site_type_symbol
_atom_site_fract_x
_atom_site_fract_y
_atom_site_fract_z
C1 C -0.1691(5) 0.5154(5) 0.27731(19)
H1 H -0.2584 0.5537 0.2569
C2 C -0.1040(4) 0.5629(5) 0.33689(19)
H2 H -0.1487 0.6318 0.3563
C3 C 0.0293(4) 0.5073(5) 0.36812(18)
C4 C 0.0904(4) 0.4047(5) 0.33735(18)
H3 H 0.1795 0.3642 0.3568
C5 C 0.0177(4) 0.3635(5) 0.27772(19)
H4 H 0.0600 0.2945 0.2573
C6 C 0.5691(4) 0.2273(5) 0.55716(19)
H5 H 0.5981 0.1474 0.5366
C7 C 0.4531(4) 0.3104(5) 0.52532(18)
H6 H 0.4053 0.2872 0.4840
C8 C 0.4077(4) 0.4293(5) 0.55511(18)
C9 C 0.4827(4) 0.4592(5) 0.61641(19)
H7 H 0.4557 0.5381 0.6382
C10 C 0.5983(4) 0.3696(5) 0.64455(19)
H8 H 0.6482 0.3904 0.6858
C11 C 0.0496(4) 0.9682(5) 0.6342(2)
H9 H 0.0994 1.0111 0.6722
C12 C 0.1191(4) 0.8664(5) 0.60714(18)
H10 H 0.2124 0.8393 0.6271
C13 C 0.0474(4) 0.8050(5) 0.54967(17)
C14 C -0.0906(4) 0.8507(5) 0.52211(18)
H11 H -0.1408 0.8143 0.4829
C15 C -0.1526(4) 0.9498(5) 0.55297(19)
H12 H -0.2462 0.9775 0.5342
C16 C 0.1021(4) 0.5523(5) 0.43321(17)
C17 C 0.2806(4) 0.5165(5) 0.52141(18)
C18 C 0.1122(4) 0.6898(5) 0.51893(18)
Cu1 Cu -0.19856(5) 0.38069(7) 0.15691(2)
N1 N -0.1108(4) 0.4169(4) 0.24703(15)
N2 N 0.6432(3) 0.2554(4) 0.61653(15)
N3 N -0.0852(3) 1.0091(4) 0.60904(15)
N4 N 0.0422(3) 0.6577(4) 0.45964(15)
N5 N 0.2221(3) 0.4792(4) 0.46175(14)
N6 N 0.2306(3) 0.6215(4) 0.55228(14)
Cu1C Cu 0.80144(5) 0.11931(7) 0.65691(2)
Cu1C_2 Cu -0.19856(5) 1.11931(7) 0.65691(2)
N2C N -0.3568(3) 0.2446(4) 0.11653(15)
N3C N -0.0852(3) 0.4909(4) 0.10904(15)
N7 N -0.4795(5) 0.6084(6) 0.1312(2)
O1 O -0.3565(4) 0.6301(5) 0.13251(19)
O2 O -0.5122(4) 0.6217(6) 0.18018(19)
O3 O -0.5691(4) 0.5721(6) 0.0832(2)
O4 O -0.3407(5) 0.8630(5) 0.2697(2)
H13 H -0.4160 0.8171 0.2417
H14 H -0.3653 0.9580 0.2804
loop_
_geom_bond_atom_site_label_1
_geom_bond_atom_site_label_2
_geom_bond_site_symmetry_1
_geom_bond_site_symmetry_2
C1 H1 1_555 1_555
C2 C1 1_555 1_555
H2 C2 1_555 1_555
C3 C2 1_555 1_555
C4 C3 1_555 1_555
H3 C4 1_555 1_555
C5 C4 1_555 1_555
H4 C5 1_555 1_555
C6 H5 1_555 1_555
C7 C6 1_555 1_555
H6 C7 1_555 1_555
C8 C7 1_555 1_555
C9 C8 1_555 1_555
H7 C9 1_555 1_555
C10 C9 1_555 1_555
H8 C10 1_555 1_555
C11 H9 1_555 1_555
C12 C11 1_555 1_555
H10 C12 1_555 1_555
C13 C12 1_555 1_555
C14 C13 1_555 1_555
H11 C14 1_555 1_555
C15 C14 1_555 1_555
H12 C15 1_555 1_555
C16 C3 1_555 1_555
C17 C8 1_555 1_555
C18 C13 1_555 1_555
Cu1 N1 1_555 1_555
N1 C1 1_555 1_555
N2 C6 1_555 1_555
N3 C11 1_555 1_555
N4 C16 1_555 1_555
N5 C16 1_555 1_555
N6 C17 1_555 1_555
N7 O1 1_555 1_555
O2 N7 1_555 1_555
O3 N7 1_555 1_555
O4 H13 1_555 1_555
H14 O4 1_555 1_555
Cu1C N2 1_555 1_555
Cu1C_2 N3 1_555 1_555
N2C Cu1 1_555 1_555
N3C Cu1 1_555 1_555
C5 N1 1_555 1_555
C10 N2 1_555 1_555
C15 N3 1_555 1_555
C17 N5 1_555 1_555
C18 N4 1_555 1_555
C18 N6 1_555 1_555

#END
