
#######################################################################
#
#                 Cambridge Crystallographic Data Centre
#                                CCDC 
#
#######################################################################
#
# If this CIF has been generated from an entry in the Cambridge 
# Structural Database, then it will include bibliographic, chemical, 
# crystal, experimental, refinement or atomic coordinate data resulting 
# from the CCDC's data processing and validation procedures.
#
#######################################################################

data_UNOTEX
_symmetry_cell_setting           monoclinic
_symmetry_space_group_name_H-M   'C 2/c'
_symmetry_Int_Tables_number      15
_space_group_name_Hall           '-C 2yn'
loop_
_symmetry_equiv_pos_site_id
_symmetry_equiv_pos_as_xyz
1 x,y,z
2 -x,y,1/2-z
3 1/2+x,1/2+y,z
4 1/2-x,1/2+y,1/2-z
5 -x,-y,-z
6 x,-y,1/2+z
7 1/2-x,1/2-y,-z
8 1/2+x,1/2-y,1/2+z
_cell_length_a                   24.0964(9)
_cell_length_b                   10.5885(3)
_cell_length_c                   15.3528(5)
_cell_angle_alpha                90
_cell_angle_beta                 117.354(3)
_cell_angle_gamma                90
_cell_volume                     3479.18
loop_
_atom_site_label
_atom_site_type_symbol
_atom_site_fract_x
_atom_site_fract_y
_atom_site_fract_z
Cu1 Cu 0.47745(2) -0.03938(5) 0.38413(4)
Br1 Br 0.819293(19) 0.00198(4) 0.58443(3)
Br2 Br 0.134787(18) 0.00911(4) 0.11824(3)
O1 O 0.54761(13) 0.0506(3) 0.4822(2)
O2 O 0.40617(13) -0.1341(3) 0.2998(2)
N1 N 0.53131(15) -0.1956(3) 0.4080(2)
N2 N 0.43372(16) 0.1252(3) 0.3280(3)
C1 C 0.60593(18) 0.0376(4) 0.4980(3)
C2 C 0.64637(19) 0.1423(4) 0.5324(3)
H1 H 0.6310 0.2195 0.5405
C3 C 0.70866(19) 0.1318(4) 0.5542(3)
H2 H 0.7347 0.2021 0.5755
C4 C 0.73222(18) 0.0156(4) 0.5442(3)
C5 C 0.69348(17) -0.0878(4) 0.5073(3)
H3 H 0.7094 -0.1640 0.4987
C6 C 0.62944(17) -0.0775(4) 0.4828(3)
C7 C 0.59134(18) -0.1902(4) 0.4466(3)
H4 H 0.6123 -0.2657 0.4517
C8 C 0.50307(18) -0.3230(4) 0.3790(3)
H5 H 0.4702 -0.3323 0.3984
H6 H 0.5347 -0.3863 0.4138
C9 C 0.47575(17) -0.3465(4) 0.2686(3)
H7 H 0.4544 -0.4273 0.2533
H8 H 0.4449 -0.2817 0.2341
C10 C 0.34829(17) -0.0968(4) 0.2555(3)
C11 C 0.30077(18) -0.1890(4) 0.2123(3)
H9 H 0.3120 -0.2728 0.2115
C12 C 0.23841(18) -0.1575(4) 0.1715(3)
H10 H 0.2080 -0.2199 0.1450
C13 C 0.22092(17) -0.0308(4) 0.1703(3)
C14 C 0.26555(18) 0.0625(4) 0.2037(3)
H11 H 0.2534 0.1467 0.1980
C15 C 0.32968(18) 0.0317(4) 0.2466(3)
C16 C 0.37388(19) 0.1347(4) 0.2777(3)
H12 H 0.3576 0.2157 0.2597
C17 C 0.47047(19) 0.2436(4) 0.3495(3)
H13 H 0.4937 0.2543 0.4200
H14 H 0.4421 0.3145 0.3233
C18 C 0.51627(19) 0.2440(4) 0.3057(3)
H15 H 0.5427 0.3181 0.3289
H16 H 0.5429 0.1701 0.3289
Cu1A Cu 0.52255(2) -0.03938(5) 0.11587(4)
Cu1D Cu 0.52255(2) 0.03938(5) 0.61587(4)
Cu1E Cu 0.47745(2) 0.03938(5) -0.11587(4)
Br1A Br 0.180707(19) 0.00198(4) -0.08443(3)
Br2A Br 0.865213(18) 0.00911(4) 0.38176(3)
O1A O 0.45239(13) 0.0506(3) 0.0178(2)
O1D O 0.45239(13) -0.0506(3) 0.5178(2)
O1E O 0.54761(13) -0.0506(3) -0.0178(2)
O2A O 0.59383(13) -0.1341(3) 0.2002(2)
N1A N 0.46869(15) -0.1956(3) 0.0920(2)
N2A N 0.56628(16) 0.1252(3) 0.1720(3)
C1A C 0.39407(18) 0.0376(4) 0.0020(3)
C2A C 0.35363(19) 0.1423(4) -0.0324(3)
H1A H 0.3690 0.2195 -0.0405
C3A C 0.29134(19) 0.1318(4) -0.0542(3)
H2A H 0.2653 0.2021 -0.0755
C4A C 0.26778(18) 0.0156(4) -0.0442(3)
C5A C 0.30652(17) -0.0878(4) -0.0073(3)
H3A H 0.2906 -0.1640 0.0013
C6A C 0.37056(17) -0.0775(4) 0.0172(3)
C7A C 0.40866(18) -0.1902(4) 0.0534(3)
H4A H 0.3877 -0.2657 0.0483
C8A C 0.49693(18) -0.3230(4) 0.1210(3)
H5A H 0.5298 -0.3323 0.1016
H6A H 0.4653 -0.3863 0.0862
C9A C 0.52425(17) -0.3465(4) 0.2314(3)
H7A H 0.5456 -0.4273 0.2467
H8A H 0.5551 -0.2817 0.2659
C10A C 0.65171(17) -0.0968(4) 0.2445(3)
C11A C 0.69923(18) -0.1890(4) 0.2877(3)
H9A H 0.6880 -0.2728 0.2885
C12A C 0.76159(18) -0.1575(4) 0.3285(3)
H10A H 0.7920 -0.2199 0.3550
C13A C 0.77908(17) -0.0308(4) 0.3297(3)
C14A C 0.73445(18) 0.0625(4) 0.2963(3)
H11A H 0.7466 0.1467 0.3020
C15A C 0.67032(18) 0.0317(4) 0.2534(3)
C16A C 0.62612(19) 0.1347(4) 0.2223(3)
H12A H 0.6424 0.2157 0.2403
C17A C 0.52953(19) 0.2436(4) 0.1505(3)
H13A H 0.5063 0.2543 0.0800
H14A H 0.5579 0.3145 0.1767
C18A C 0.48373(19) 0.2440(4) 0.1943(3)
H15A H 0.4573 0.3181 0.1711
H16A H 0.4571 0.1701 0.1711
loop_
_geom_bond_atom_site_label_1
_geom_bond_atom_site_label_2
_geom_bond_site_symmetry_1
_geom_bond_site_symmetry_2
Cu1 O1 1_555 1_555
Br1 C4 1_555 1_555
Br2 C13 1_555 1_555
O1 C1 1_555 1_555
O2 Cu1 1_555 1_555
N1 Cu1 1_555 1_555
N2 Cu1 1_555 1_555
C1 C2 1_555 1_555
C2 H1 1_555 1_555
C3 C2 1_555 1_555
H2 C3 1_555 1_555
C4 C3 1_555 1_555
C5 C4 1_555 1_555
H3 C5 1_555 1_555
C6 C1 1_555 1_555
C7 N1 1_555 1_555
H4 C7 1_555 1_555
C8 N1 1_555 1_555
H5 C8 1_555 1_555
H6 C8 1_555 1_555
C9 C8 1_555 1_555
H7 C9 1_555 1_555
H8 C9 1_555 1_555
C10 O2 1_555 1_555
C11 C10 1_555 1_555
H9 C11 1_555 1_555
C12 C11 1_555 1_555
H10 C12 1_555 1_555
C13 C12 1_555 1_555
C14 C13 1_555 1_555
H11 C14 1_555 1_555
C15 C10 1_555 1_555
C16 N2 1_555 1_555
H12 C16 1_555 1_555
C17 N2 1_555 1_555
H13 C17 1_555 1_555
H14 C17 1_555 1_555
C18 C17 1_555 1_555
H15 C18 1_555 1_555
H16 C18 1_555 1_555
Cu1A O1A 1_555 1_555
Cu1D O1 1_555 1_555
Cu1E O1A 1_555 1_555
Br1A C4A 1_555 1_555
Br2A C13A 1_555 1_555
O1A C1A 1_555 1_555
O1D Cu1 1_555 1_555
O1E Cu1A 1_555 1_555
O2A Cu1A 1_555 1_555
N1A Cu1A 1_555 1_555
N2A Cu1A 1_555 1_555
C1A C2A 1_555 1_555
C2A H1A 1_555 1_555
C3A C2A 1_555 1_555
H2A C3A 1_555 1_555
C4A C3A 1_555 1_555
C5A C4A 1_555 1_555
H3A C5A 1_555 1_555
C6A C1A 1_555 1_555
C7A N1A 1_555 1_555
H4A C7A 1_555 1_555
C8A N1A 1_555 1_555
H5A C8A 1_555 1_555
H6A C8A 1_555 1_555
C9A C9 1_555 1_555
H7A C9A 1_555 1_555
H8A C9A 1_555 1_555
C10A O2A 1_555 1_555
C11A C10A 1_555 1_555
H9A C11A 1_555 1_555
C12A C11A 1_555 1_555
H10A C12A 1_555 1_555
C13A C12A 1_555 1_555
C14A C13A 1_555 1_555
H11A C14A 1_555 1_555
C15A C10A 1_555 1_555
C16A N2A 1_555 1_555
H12A C16A 1_555 1_555
C17A N2A 1_555 1_555
H13A C17A 1_555 1_555
H14A C17A 1_555 1_555
C18A C18 1_555 1_555
H15A C18A 1_555 1_555
H16A C18A 1_555 1_555
C5 C6 1_555 1_555
C6 C7 1_555 1_555
C14 C15 1_555 1_555
C15 C16 1_555 1_555
Cu1D O1D 1_555 1_555
Cu1E O1E 1_555 1_555
C5A C6A 1_555 1_555
C6A C7A 1_555 1_555
C8A C9A 1_555 1_555
C14A C15A 1_555 1_555
C15A C16A 1_555 1_555
C17A C18A 1_555 1_555

#END
