
#######################################################################
#
#                 Cambridge Crystallographic Data Centre
#                                CCDC 
#
#######################################################################
#
# If this CIF has been generated from an entry in the Cambridge 
# Structural Database, then it will include bibliographic, chemical, 
# crystal, experimental, refinement or atomic coordinate data resulting 
# from the CCDC's data processing and validation procedures.
#
#######################################################################

data_UPAZUH
_symmetry_cell_setting           orthorhombic
_symmetry_space_group_name_H-M   'P 21 21 21'
_symmetry_Int_Tables_number      19
_space_group_name_Hall           'P 2ac 2ab'
loop_
_symmetry_equiv_pos_site_id
_symmetry_equiv_pos_as_xyz
1 x,y,z
2 1/2-x,-y,1/2+z
3 -x,1/2+y,1/2-z
4 1/2+x,1/2-y,-z
_cell_length_a                   8.339(15)
_cell_length_b                   10.40(2)
_cell_length_c                   18.067(4)
_cell_angle_alpha                90
_cell_angle_beta                 90
_cell_angle_gamma                90
_cell_volume                     1566.87
loop_
_atom_site_label
_atom_site_type_symbol
_atom_site_fract_x
_atom_site_fract_y
_atom_site_fract_z
Sn1 Sn 0.5619(1) 0.2490(1) 0.9971(1)
C1 C 0.5993(6) 0.1480(5) 0.8947(3)
C2 C 0.6959(7) 0.0388(6) 0.8934(4)
C3 C 0.7258(8) -0.0282(8) 0.8272(4)
C4 C 0.6586(10) 0.0171(9) 0.7625(5)
C5 C 0.5621(10) 0.1234(9) 0.7630(4)
C6 C 0.5324(7) 0.1894(6) 0.8293(3)
C7 C 0.6166(5) 0.4483(5) 1.0101(3)
C8 C 0.5692(7) 0.5396(6) 0.9591(3)
C9 C 0.6097(8) 0.6687(7) 0.9683(5)
C10 C 0.7004(9) 0.7058(7) 1.0300(6)
C11 C 0.7480(8) 0.6179(7) 1.0805(4)
C12 C 0.7062(7) 0.4882(5) 1.0714(3)
C13 C 0.4897(6) 0.1397(5) 1.0907(3)
C14 C 0.4527(6) 0.1977(6) 1.1576(3)
C15 C 0.4092(8) 0.1269(8) 1.2191(3)
C16 C 0.3997(8) -0.0031(9) 1.2139(4)
C17 C 0.4380(9) -0.0654(6) 1.1493(4)
C18 C 0.4819(7) 0.0073(6) 1.0875(3)
O1 O 0.3149(4) 0.2996(3) 0.9664(2)
Sn1C Sn 0.0619(1) 0.2510(1) 1.0029(1)
O1C O 0.8149(4) 0.2004(3) 1.0336(2)
loop_
_geom_bond_atom_site_label_1
_geom_bond_atom_site_label_2
_geom_bond_site_symmetry_1
_geom_bond_site_symmetry_2
Sn1 C1 1_555 1_555
C1 C2 1_555 1_555
C2 C3 1_555 1_555
C3 C4 1_555 1_555
C4 C5 1_555 1_555
C5 C6 1_555 1_555
C6 C1 1_555 1_555
C7 Sn1 1_555 1_555
C8 C7 1_555 1_555
C9 C8 1_555 1_555
C10 C9 1_555 1_555
C11 C10 1_555 1_555
C12 C7 1_555 1_555
C13 Sn1 1_555 1_555
C14 C13 1_555 1_555
C15 C14 1_555 1_555
C16 C15 1_555 1_555
C17 C16 1_555 1_555
C18 C13 1_555 1_555
O1 Sn1 1_555 1_555
Sn1C O1 1_555 1_555
O1C Sn1 1_555 1_555
C11 C12 1_555 1_555
C17 C18 1_555 1_555

#END
