
#######################################################################
#
#                 Cambridge Crystallographic Data Centre
#                                CCDC 
#
#######################################################################
#
# If this CIF has been generated from an entry in the Cambridge 
# Structural Database, then it will include bibliographic, chemical, 
# crystal, experimental, refinement or atomic coordinate data resulting 
# from the CCDC's data processing and validation procedures.
#
#######################################################################

data_UPECAU
_symmetry_cell_setting           triclinic
_symmetry_space_group_name_H-M   'P -1'
_symmetry_Int_Tables_number      2
_space_group_name_Hall           '-P 1'
loop_
_symmetry_equiv_pos_site_id
_symmetry_equiv_pos_as_xyz
1 x,y,z
2 -x,-y,-z
_cell_length_a                   8.884(3)
_cell_length_b                   9.422(4)
_cell_length_c                   7.201(4)
_cell_angle_alpha                97.75(4)
_cell_angle_beta                 101.76(4)
_cell_angle_gamma                85.05(3)
_cell_volume                     583.643
loop_
_atom_site_label
_atom_site_type_symbol
_atom_site_fract_x
_atom_site_fract_y
_atom_site_fract_z
Ba1 Ba 0.2678(2) 0.0001(2) 0.1135(3)
C1 C 0.1912(4) 0.3143(4) -0.0619(6)
O1 O 0.3086(3) 0.3024(3) 0.0638(4)
C2 C -0.0170(5) 0.2175(4) -0.2780(6)
O2 O -0.0992(4) 0.1183(3) -0.3548(5)
C3 C 0.0132(4) 0.4719(4) -0.2502(5)
O3 O -0.0324(3) 0.5926(3) -0.2962(4)
C4 C 0.4210(4) -0.3268(4) 0.1885(5)
O4 O 0.3035(3) -0.3152(3) 0.0634(4)
C5 C 0.6153(4) -0.2260(4) 0.4220(6)
O5 O 0.6847(3) -0.1226(3) 0.5169(4)
C6 C 0.6101(4) -0.4856(4) 0.3622(5)
O6 O 0.6622(3) -0.6068(3) 0.3964(4)
H1 H -0.120(6) 0.358(6) -0.399(8)
O7 O 0.0370(4) -0.1224(4) -0.1844(5)
H2 H 0.183(6) 0.506(5) 0.028(7)
O8 O 0.5927(4) 0.0875(4) 0.2240(5)
H3 H 0.737(8) -0.374(7) 0.52(1)
N1 N 0.1127(4) 0.2001(4) -0.1455(5)
H4 H 0.440(6) -0.517(6) 0.183(8)
N2 N -0.0615(4) 0.3532(4) -0.3295(5)
H5 H 0.042(8) -0.207(8) -0.21(1)
N3 N 0.1405(4) 0.4494(4) -0.1156(5)
H6 H 0.03(1) -0.066(9) -0.28(1)
N4 N 0.4889(4) -0.2105(4) 0.2868(5)
H7 H 0.595(7) 0.171(7) 0.250(8)
N5 N 0.6739(4) -0.3629(4) 0.4581(5)
H8 H 0.64(1) 0.05(1) 0.28(1)
N6 N 0.4833(4) -0.4618(4) 0.2266(5)
Ba1A Ba -0.2678(2) -0.0001(2) -0.1135(3)
Ba1A_2 Ba 0.7322(2) -0.0001(2) 0.8865(3)
Ba1A_3 Ba 0.7322(2) -0.0001(2) -0.1135(3)
O2A O 0.0992(4) -0.1183(3) 0.3548(5)
O5A O 0.3153(3) 0.1226(3) 0.4831(4)
O7A O -0.0370(4) 0.1224(4) 0.1844(5)
O8A O 0.4073(4) -0.0875(4) -0.2240(5)
H5A H -0.042(8) 0.207(8) 0.21(1)
H6A H -0.03(1) 0.066(9) 0.28(1)
H7A H 0.405(7) -0.171(7) -0.250(8)
H8A H 0.36(1) -0.05(1) -0.28(1)
loop_
_geom_bond_atom_site_label_1
_geom_bond_atom_site_label_2
_geom_bond_site_symmetry_1
_geom_bond_site_symmetry_2
Ba1 O1 1_555 1_555
C1 O1 1_555 1_555
C2 O2 1_555 1_555
O2 Ba1A 1_555 1_555
C3 O3 1_555 1_555
C4 O4 1_555 1_555
O4 Ba1 1_555 1_555
C5 O5 1_555 1_555
O5 Ba1A_2 1_555 1_555
C6 O6 1_555 1_555
H1 N2 1_555 1_555
O7 Ba1 1_555 1_555
H2 N3 1_555 1_555
O8 Ba1 1_555 1_555
H3 N5 1_555 1_555
N1 Ba1 1_555 1_555
H4 N6 1_555 1_555
N2 C2 1_555 1_555
H5 O7 1_555 1_555
N3 C1 1_555 1_555
H6 O7 1_555 1_555
N4 Ba1 1_555 1_555
H7 O8 1_555 1_555
N5 C5 1_555 1_555
H8 O8 1_555 1_555
N6 C4 1_555 1_555
Ba1A O7 1_555 1_555
Ba1A_3 O8 1_555 1_555
O2A Ba1 1_555 1_555
O5A Ba1 1_555 1_555
O7A Ba1 1_555 1_555
O8A Ba1 1_555 1_555
H5A O7A 1_555 1_555
H6A O7A 1_555 1_555
H7A O8A 1_555 1_555
H8A O8A 1_555 1_555
C1 N1 1_555 1_555
C2 N1 1_555 1_555
C3 N2 1_555 1_555
C3 N3 1_555 1_555
C4 N4 1_555 1_555
C5 N4 1_555 1_555
C6 N5 1_555 1_555
C6 N6 1_555 1_555
Ba1A O7A 1_555 1_555
Ba1A_3 O8A 1_555 1_555

#END
