
#######################################################################
#
#                 Cambridge Crystallographic Data Centre
#                                CCDC 
#
#######################################################################
#
# If this CIF has been generated from an entry in the Cambridge 
# Structural Database, then it will include bibliographic, chemical, 
# crystal, experimental, refinement or atomic coordinate data resulting 
# from the CCDC's data processing and validation procedures.
#
#######################################################################

data_UPESAK
_symmetry_cell_setting           tetragonal
_symmetry_space_group_name_H-M   'P 4/n c c'
_symmetry_Int_Tables_number      130
_space_group_name_Hall           '-P 4a 2ac'
loop_
_symmetry_equiv_pos_site_id
_symmetry_equiv_pos_as_xyz
1 x,y,z
2 1/2-y,x,z
3 1/2+x,-y,1/2-z
4 1/2-x,1/2-y,z
5 1/2+y,1/2+x,1/2-z
6 y,1/2-x,z
7 -x,1/2+y,1/2-z
8 -y,-x,1/2-z
9 -x,-y,-z
10 1/2+y,-x,-z
11 1/2-x,y,1/2+z
12 1/2+x,1/2+y,-z
13 1/2-y,1/2-x,1/2+z
14 -y,1/2+x,-z
15 x,1/2-y,1/2+z
16 y,x,1/2+z
_cell_length_a                   15.6228(19)
_cell_length_b                   15.6228(19)
_cell_length_c                   15.732(2)
_cell_angle_alpha                90
_cell_angle_beta                 90
_cell_angle_gamma                90
_cell_volume                     3839.74
loop_
_atom_site_label
_atom_site_type_symbol
_atom_site_fract_x
_atom_site_fract_y
_atom_site_fract_z
S2 S 0.887(2) -0.147(3) 0.365(5)
C8 C 0.799(4) -0.098(2) 0.312(3)
O1 O 0.852(6) -0.170(3) 0.453(4)
O2 O 0.8836(11) -0.2012(10) 0.125(2)
Ni1 Ni 0.2500 0.7500 -0.2500
N1 N 0.3181(2) 0.6807(2) -0.15563(16)
C1 C 0.3659(3) 0.7191(3) -0.0970(2)
H1 H 0.3630 0.7784 -0.0924
C2 C 0.4196(3) 0.6753(3) -0.0425(2)
H2 H 0.4508 0.7050 -0.0017
C3 C 0.4270(3) 0.5866(3) -0.0487(2)
C4 C 0.3746(3) 0.5460(3) -0.1080(2)
H3 H 0.3746 0.4867 -0.1129
C5 C 0.3232(2) 0.5952(3) -0.1589(2)
H4 H 0.2893 0.5671 -0.1987
C6 C 0.4885(3) 0.5392(2) 0.0049(3)
H5 H 0.5128 0.5689 0.0500
N2 N 0.1571(2) 0.6571(2) -0.2500
C7 C 0.1059(3) 0.6059(3) -0.2500
S1 S 0.0520(4) 0.5146(5) -0.2554(13)
Ni1H Ni 0.7500 0.2500 0.2500
Ni1H_2 Ni -0.2500 1.2500 0.2500
N1H N 0.6819(2) 0.3193(2) 0.15563(16)
N1C N 0.1819(2) 0.8193(2) -0.15563(16)
N1K N -0.1819(2) 1.1807(2) 0.15563(16)
N1D N 0.1807(2) 0.8181(2) -0.34437(16)
N1G N 0.3193(2) 0.6819(2) -0.34437(16)
C1H C 0.6341(3) 0.2809(3) 0.0970(2)
C1C C 0.1341(3) 0.7809(3) -0.0970(2)
C1K C -0.1341(3) 1.2191(3) 0.0970(2)
H1H H 0.6370 0.2216 0.0924
H1C H 0.1370 0.7216 -0.0924
H1K H -0.1370 1.2784 0.0924
C2H C 0.5804(3) 0.3247(3) 0.0425(2)
C2C C 0.0804(3) 0.8247(3) -0.0425(2)
C2K C -0.0804(3) 1.1753(3) 0.0425(2)
H2H H 0.5492 0.2950 0.0017
H2C H 0.0492 0.7950 -0.0017
H2K H -0.0492 1.2050 0.0017
C3H C 0.5730(3) 0.4134(3) 0.0487(2)
C3C C 0.0730(3) 0.9134(3) -0.0487(2)
C3K C -0.0730(3) 1.0866(3) 0.0487(2)
C4H C 0.6254(3) 0.4540(3) 0.1080(2)
C4C C 0.1254(3) 0.9540(3) -0.1080(2)
C4K C -0.1254(3) 1.0460(3) 0.1080(2)
H3H H 0.6254 0.5133 0.1129
H3C H 0.1254 1.0133 -0.1129
H3K H -0.1254 0.9867 0.1129
C5H C 0.6768(2) 0.4048(3) 0.1589(2)
C5C C 0.1768(2) 0.9048(3) -0.1589(2)
C5K C -0.1768(2) 1.0952(3) 0.1589(2)
H4H H 0.7107 0.4329 0.1987
H4C H 0.2107 0.9329 -0.1987
H4K H -0.2107 1.0671 0.1987
C6H C 0.5115(3) 0.4608(2) -0.0049(3)
C6C C 0.0115(3) 0.9608(2) 0.0049(3)
C6K C -0.0115(3) 1.0392(2) -0.0049(3)
H5H H 0.4872 0.4311 -0.0500
H5C H -0.0128 0.9311 0.0500
H5K H 0.0128 1.0689 -0.0500
N2C N 0.3429(2) 0.8429(2) -0.2500
C7C C 0.3941(3) 0.8941(3) -0.2500
S1D S 0.0146(5) 0.5520(4) -0.2446(13)
S1C S 0.4480(4) 0.9854(5) -0.2554(13)
S1G S 0.4854(5) 0.9480(4) -0.2446(13)
C9? C 0.886(5) -0.245(5) 0.308(7)
loop_
_geom_bond_atom_site_label_1
_geom_bond_atom_site_label_2
_geom_bond_site_symmetry_1
_geom_bond_site_symmetry_2
Ni1 N1 1_555 1_555
N1 C1 1_555 1_555
C1 H1 1_555 1_555
C2 C1 1_555 1_555
H2 C2 1_555 1_555
C3 C2 1_555 1_555
C4 C3 1_555 1_555
H3 C4 1_555 1_555
C5 N1 1_555 1_555
H4 C5 1_555 1_555
C6 C3 1_555 1_555
H5 C6 1_555 1_555
N2 Ni1 1_555 1_555
C7 N2 1_555 1_555
S1 C7 1_555 1_555
S2 C8 1_555 1_555
O1 S2 1_555 1_555
Ni1H N1H 1_555 1_555
Ni1H_2 N1K 1_555 1_555
N1H C1H 1_555 1_555
N1C Ni1 1_555 1_555
N1K C1K 1_555 1_555
N1D Ni1 1_555 1_555
N1G Ni1 1_555 1_555
C1H H1H 1_555 1_555
C1C N1C 1_555 1_555
C1K H1K 1_555 1_555
H1C C1C 1_555 1_555
C2H C1H 1_555 1_555
C2C C1C 1_555 1_555
C2K C1K 1_555 1_555
H2H C2H 1_555 1_555
H2C C2C 1_555 1_555
H2K C2K 1_555 1_555
C3H C2H 1_555 1_555
C3C C2C 1_555 1_555
C3K C2K 1_555 1_555
C4H C3H 1_555 1_555
C4C C3C 1_555 1_555
C4K C3K 1_555 1_555
H3H C4H 1_555 1_555
H3C C4C 1_555 1_555
H3K C4K 1_555 1_555
C5H N1H 1_555 1_555
C5C N1C 1_555 1_555
C5K N1K 1_555 1_555
H4H C5H 1_555 1_555
H4C C5C 1_555 1_555
H4K C5K 1_555 1_555
C6H C6 1_555 1_555
C6C C3C 1_555 1_555
C6K C3K 1_555 1_555
H5H C6H 1_555 1_555
H5C C6C 1_555 1_555
H5K C6K 1_555 1_555
N2C Ni1 1_555 1_555
C7C N2C 1_555 1_555
S1D C7 1_555 1_555
S1C C7C 1_555 1_555
S1G C7C 1_555 1_555
C4 C5 1_555 1_555
S1 S1D 1_555 1_555
C3H C6H 1_555 1_555
C4H C5H 1_555 1_555
C4C C5C 1_555 1_555
C4K C5K 1_555 1_555
C6C C6K 1_555 1_555
S1C S1G 1_555 1_555

#END
