
#######################################################################
#
#                 Cambridge Crystallographic Data Centre
#                                CCDC 
#
#######################################################################
#
# If this CIF has been generated from an entry in the Cambridge 
# Structural Database, then it will include bibliographic, chemical, 
# crystal, experimental, refinement or atomic coordinate data resulting 
# from the CCDC's data processing and validation procedures.
#
#######################################################################

data_UPEWIW
_symmetry_cell_setting           triclinic
_symmetry_space_group_name_H-M   'P -1'
_symmetry_Int_Tables_number      2
_space_group_name_Hall           '-P 1'
loop_
_symmetry_equiv_pos_site_id
_symmetry_equiv_pos_as_xyz
1 x,y,z
2 -x,-y,-z
_cell_length_a                   7.6341(6)
_cell_length_b                   9.3095(7)
_cell_length_c                   15.6476(11)
_cell_angle_alpha                106.345(4)
_cell_angle_beta                 93.270(5)
_cell_angle_gamma                109.439(4)
_cell_volume                     992.242
loop_
_atom_site_label
_atom_site_type_symbol
_atom_site_fract_x
_atom_site_fract_y
_atom_site_fract_z
Hg1 Hg 0.15030(6) 0.05472(5) 0.63577(3)
Hg2 Hg 0.38397(7) 0.35887(5) 0.87385(3)
Br1 Br -0.18937(17) -0.02945(17) 0.58249(8)
Br2 Br 0.48421(18) 0.23184(16) 0.67373(8)
Br3 Br 0.08896(18) 0.36145(15) 0.80497(9)
Br4 Br 0.71887(17) 0.46457(15) 0.93702(9)
N1 N 0.0685(13) -0.1638(10) 0.7919(6)
N2 N 0.1527(13) -0.0122(10) 0.7933(6)
N3 N 0.2384(12) 0.0726(10) 0.8753(6)
N4 N 0.1781(12) -0.2146(10) 0.6049(6)
C1 C -0.0327(18) -0.2895(14) 0.7074(8)
H1 H -0.1225 -0.2560 0.6796
H2 H -0.1033 -0.3862 0.7208
C2 C 0.0920(15) -0.3283(12) 0.6414(7)
C3 C 0.1206(19) -0.4739(14) 0.6189(8)
H3 H 0.0617 -0.5504 0.6459
C4 C 0.237(2) -0.5054(17) 0.5564(9)
H4 H 0.2532 -0.6035 0.5399
C5 C 0.3234(18) -0.3913(16) 0.5206(8)
H5 H 0.4037 -0.4082 0.4796
C6 C 0.2921(17) -0.2458(14) 0.5457(8)
H6 H 0.3529 -0.1676 0.5202
C7 C 0.2075(15) -0.0252(12) 0.9285(7)
C8 C 0.0982(15) -0.1772(13) 0.8744(7)
H7 H 0.0540 -0.2696 0.8910
C9 C 0.2818(14) 0.0324(12) 1.0256(7)
C10 C 0.4160(19) 0.1830(14) 1.0689(8)
H8 H 0.4618 0.2524 1.0358
C11 C 0.4829(19) 0.2323(16) 1.1592(8)
H9 H 0.5726 0.3349 1.1865
C12 C 0.4214(16) 0.1352(13) 1.2098(7)
H10 H 0.4676 0.1700 1.2713
C13 C 0.2892(18) -0.0161(15) 1.1683(8)
H11 H 0.2477 -0.0853 1.2019
C14 C 0.2172(17) -0.0665(14) 1.0776(8)
H12 H 0.1245 -0.1679 1.0510
Hg1A Hg -0.15030(6) -0.05472(5) 0.36423(3)
Hg2A Hg 0.61603(7) 0.64113(5) 1.12615(3)
Br1A Br 0.18937(17) 0.02945(17) 0.41751(8)
Br4A Br 0.28113(17) 0.53543(15) 1.06298(9)
loop_
_geom_bond_atom_site_label_1
_geom_bond_atom_site_label_2
_geom_bond_site_symmetry_1
_geom_bond_site_symmetry_2
Hg1 Br1 1_555 1_555
Hg2 Br2 1_555 1_555
Br1 Hg1A 1_555 1_555
Br2 Hg1 1_555 1_555
Br3 Hg1 1_555 1_555
Br4 Hg2 1_555 1_555
N1 N2 1_555 1_555
N2 Hg1 1_555 1_555
N3 Hg2 1_555 1_555
N4 Hg1 1_555 1_555
C1 N1 1_555 1_555
H1 C1 1_555 1_555
H2 C1 1_555 1_555
C2 N4 1_555 1_555
C3 C2 1_555 1_555
H3 C3 1_555 1_555
C4 C3 1_555 1_555
H4 C4 1_555 1_555
C5 C4 1_555 1_555
H5 C5 1_555 1_555
C6 N4 1_555 1_555
H6 C6 1_555 1_555
C7 N3 1_555 1_555
C8 N1 1_555 1_555
H7 C8 1_555 1_555
C9 C7 1_555 1_555
C10 C9 1_555 1_555
H8 C10 1_555 1_555
C11 C10 1_555 1_555
H9 C11 1_555 1_555
C12 C11 1_555 1_555
H10 C12 1_555 1_555
C13 C12 1_555 1_555
H11 C13 1_555 1_555
C14 C9 1_555 1_555
H12 C14 1_555 1_555
Hg1A Br1A 1_555 1_555
Hg2A Br4 1_555 1_555
Br1A Hg1 1_555 1_555
Br4A Hg2 1_555 1_555
Hg2 Br3 1_555 1_555
N2 N3 1_555 1_555
C1 C2 1_555 1_555
C5 C6 1_555 1_555
C7 C8 1_555 1_555
C13 C14 1_555 1_555
Hg2A Br4A 1_555 1_555

#END
