
#######################################################################
#
#                 Cambridge Crystallographic Data Centre
#                                CCDC 
#
#######################################################################
#
# If this CIF has been generated from an entry in the Cambridge 
# Structural Database, then it will include bibliographic, chemical, 
# crystal, experimental, refinement or atomic coordinate data resulting 
# from the CCDC's data processing and validation procedures.
#
#######################################################################

data_UPIVOF
_symmetry_cell_setting           monoclinic
_symmetry_space_group_name_H-M   'C 2/c'
_symmetry_Int_Tables_number      15
_space_group_name_Hall           '-C 2yn'
loop_
_symmetry_equiv_pos_site_id
_symmetry_equiv_pos_as_xyz
1 x,y,z
2 1/2+x,1/2+y,z
3 -x,y,1/2-z
4 1/2-x,1/2+y,1/2-z
5 -x,-y,-z
6 1/2-x,1/2-y,-z
7 x,-y,1/2+z
8 1/2+x,1/2-y,1/2+z
_cell_length_a                   11.2850(6)
_cell_length_b                   13.8925(7)
_cell_length_c                   17.0988(9)
_cell_angle_alpha                90
_cell_angle_beta                 94.300(3)
_cell_angle_gamma                90
_cell_volume                     2673.15
loop_
_atom_site_label
_atom_site_type_symbol
_atom_site_fract_x
_atom_site_fract_y
_atom_site_fract_z
Fe1 Fe 0.5000 0.594287(19) 0.2500
Cl1 Cl 0.33316(3) 0.59455(3) 0.332517(16)
N1 N 0.59775(11) 0.70717(9) 0.32402(7)
N2 N 0.41156(10) 0.48325(8) 0.17295(6)
C1 C 0.71403(13) 0.69513(11) 0.34562(9)
C2 C 0.78359(15) 0.76446(13) 0.38616(9)
C3 C 0.72913(18) 0.85085(14) 0.40240(10)
C4 C 0.60983(17) 0.86606(13) 0.38058(10)
C5 C 0.54705(14) 0.79068(11) 0.34212(9)
C6 C 0.91304(18) 0.74560(17) 0.40993(13)
C7 C 0.5487(2) 0.96000(17) 0.39469(18)
C8 C 0.40575(12) 0.49354(9) 0.09423(7)
C9 C 0.34106(12) 0.43219(10) 0.04304(7)
C10 C 0.27969(12) 0.35467(10) 0.07289(8)
C11 C 0.28878(12) 0.34184(10) 0.15429(8)
C12 C 0.35373(12) 0.40782(10) 0.20153(7)
C13 C 0.20923(12) 0.28700(10) 0.01824(8)
H1 H 0.7526 0.6329 0.3322
H2 H 0.7768 0.9031 0.4304
H3 H 0.4598 0.7996 0.3275
H4 H 0.9502 0.8024 0.4379
H5 H 0.9577 0.7327 0.3616
H6 H 0.9221 0.6875 0.4448
H7 H 0.4630 0.9561 0.3742
H8 H 0.5880 1.0135 0.3669
H9 H 0.5530 0.9741 0.4521
H10 H 0.4506 0.5483 0.0719
H11 H 0.3383 0.4434 -0.0152
H12 H 0.2484 0.2860 0.1782
H13 H 0.3582 0.3987 0.2600
H14 H 0.1665 0.3255 -0.0249
H15 H 0.1492 0.2523 0.0481
Fe1E Fe 0.0000 -0.094287(19) -0.2500
Cl1B Cl 0.66684(3) 0.59455(3) 0.167483(16)
N1B N 0.40225(11) 0.70717(9) 0.17598(7)
N2E N 0.08844(10) 0.01675(8) -0.17295(6)
N2B N 0.58844(10) 0.48325(8) 0.32705(6)
C1B C 0.28597(13) 0.69513(11) 0.15438(9)
C2B C 0.21641(15) 0.76446(13) 0.11384(9)
C3B C 0.27087(18) 0.85085(14) 0.09760(10)
C4B C 0.39017(17) 0.86606(13) 0.11942(10)
C5B C 0.45295(14) 0.79068(11) 0.15788(9)
C6B C 0.08696(18) 0.74560(17) 0.09007(13)
C7B C 0.4513(2) 0.96000(17) 0.10531(18)
C8E C 0.09425(12) 0.00646(9) -0.09423(7)
C9E C 0.15894(12) 0.06781(10) -0.04304(7)
C10E C 0.22031(12) 0.14533(10) -0.07289(8)
C11E C 0.21122(12) 0.15816(10) -0.15429(8)
C12E C 0.14627(12) 0.09218(10) -0.20153(7)
C13E C 0.29077(12) 0.21300(10) -0.01824(8)
H1B H 0.2474 0.6329 0.1678
H2B H 0.2232 0.9031 0.0696
H3B H 0.5402 0.7996 0.1725
H4B H 0.0498 0.8024 0.0621
H5B H 0.0423 0.7327 0.1384
H6B H 0.0779 0.6875 0.0552
H7B H 0.5370 0.9561 0.1258
H8B H 0.4120 1.0135 0.1331
H9B H 0.4470 0.9741 0.0479
H10E H 0.0494 -0.0483 -0.0719
H11E H 0.1617 0.0566 0.0152
H12E H 0.2516 0.2140 -0.1782
H13E H 0.1418 0.1013 -0.2600
H14E H 0.3335 0.1745 0.0249
H15E H 0.3508 0.2477 -0.0481
loop_
_geom_bond_atom_site_label_1
_geom_bond_atom_site_label_2
_geom_bond_site_symmetry_1
_geom_bond_site_symmetry_2
Fe1 Cl1 1_555 1_555
N1 Fe1 1_555 1_555
N2 Fe1 1_555 1_555
C1 N1 1_555 1_555
C2 C1 1_555 1_555
C3 C2 1_555 1_555
C4 C3 1_555 1_555
C5 N1 1_555 1_555
C6 C2 1_555 1_555
C7 C4 1_555 1_555
C8 N2 1_555 1_555
C9 C8 1_555 1_555
C10 C9 1_555 1_555
C11 C10 1_555 1_555
C12 N2 1_555 1_555
C13 C10 1_555 1_555
H1 C1 1_555 1_555
H2 C3 1_555 1_555
H3 C5 1_555 1_555
H4 C6 1_555 1_555
H5 C6 1_555 1_555
H6 C6 1_555 1_555
H7 C7 1_555 1_555
H8 C7 1_555 1_555
H9 C7 1_555 1_555
H10 C8 1_555 1_555
H11 C9 1_555 1_555
H12 C11 1_555 1_555
H13 C12 1_555 1_555
H14 C13 1_555 1_555
H15 C13 1_555 1_555
Fe1E N2E 1_555 1_555
Cl1B Fe1 1_555 1_555
N1B Fe1 1_555 1_555
N2E C8E 1_555 1_555
N2B Fe1 1_555 1_555
C1B N1B 1_555 1_555
C2B C1B 1_555 1_555
C3B C2B 1_555 1_555
C4B C3B 1_555 1_555
C5B N1B 1_555 1_555
C6B C2B 1_555 1_555
C7B C4B 1_555 1_555
C8E C9E 1_555 1_555
C9E C10E 1_555 1_555
C10E C11E 1_555 1_555
C11E C12E 1_555 1_555
C12E N2E 1_555 1_555
C13E C13 1_555 1_555
H1B C1B 1_555 1_555
H2B C3B 1_555 1_555
H3B C5B 1_555 1_555
H4B C6B 1_555 1_555
H5B C6B 1_555 1_555
H6B C6B 1_555 1_555
H7B C7B 1_555 1_555
H8B C7B 1_555 1_555
H9B C7B 1_555 1_555
H10E C8E 1_555 1_555
H11E C9E 1_555 1_555
H12E C11E 1_555 1_555
H13E C12E 1_555 1_555
H14E C13E 1_555 1_555
H15E C13E 1_555 1_555
C4 C5 1_555 1_555
C11 C12 1_555 1_555
C4B C5B 1_555 1_555
C10E C13E 1_555 1_555

#END
