
#######################################################################
#
#                 Cambridge Crystallographic Data Centre
#                                CCDC 
#
#######################################################################
#
# If this CIF has been generated from an entry in the Cambridge 
# Structural Database, then it will include bibliographic, chemical, 
# crystal, experimental, refinement or atomic coordinate data resulting 
# from the CCDC's data processing and validation procedures.
#
#######################################################################

data_UPIXUN
_symmetry_cell_setting           orthorhombic
_symmetry_space_group_name_H-M   'C 2 2 21'
_symmetry_Int_Tables_number      20
_space_group_name_Hall           'C 2n 2'
loop_
_symmetry_equiv_pos_site_id
_symmetry_equiv_pos_as_xyz
1 x,y,z
2 -x,-y,1/2+z
3 x,-y,-z
4 -x,y,1/2-z
5 1/2+x,1/2+y,z
6 1/2-x,1/2-y,1/2+z
7 1/2+x,1/2-y,-z
8 1/2-x,1/2+y,1/2-z
_cell_length_a                   10.8093(13)
_cell_length_b                   11.2114(13)
_cell_length_c                   30.618(5)
_cell_angle_alpha                90
_cell_angle_beta                 90
_cell_angle_gamma                90
_cell_volume                     3710.52
loop_
_atom_site_label
_atom_site_type_symbol
_atom_site_fract_x
_atom_site_fract_y
_atom_site_fract_z
Cd1 Cd 1.0000 1.29845(5) 0.7500
Cd2 Cd 1.0000 0.80073(5) 0.7500
Cd3 Cd 1.04474(4) 1.18220(3) 0.578450(11)
Cd4 Cd 1.08913(3) 0.70205(3) 0.601892(11)
O1 O 0.9917(3) 1.2377(3) 0.67872(11)
O2 O 0.8922(4) 1.1452(3) 0.62511(11)
O3 O 0.8003(4) 0.8677(3) 0.75773(12)
O4 O 0.6339(4) 0.9226(3) 0.72014(13)
O5 O 0.8502(3) 1.1443(3) 0.74058(10)
H1 H 0.7873 1.1466 0.7555
O6 O 0.9490(4) 0.9399(4) 0.69212(16)
H2 H 0.9668 0.9016 0.6644
O7 O 1.0247(3) 0.6897(3) 0.67304(10)
O8 O 0.8783(3) 0.6477(3) 0.72029(11)
O9 O 0.6174(4) 0.4944(3) 0.58709(12)
O10 O 0.7024(4) 0.3526(3) 0.62791(12)
O11 O 0.9245(3) 0.5543(3) 0.61046(10)
H3 H 0.9444 0.4891 0.6006
O12 O 0.7045(3) 0.6704(3) 0.63779(10)
H4 H 0.6652 0.7041 0.6571
O13 O 1.0723(3) 1.3814(3) 0.58737(13)
O14 O 1.1822(3) 1.5438(3) 0.57074(13)
O15 O 1.5520(4) 1.2522(3) 0.53201(11)
O16 O 1.4520(4) 1.3624(4) 0.48350(11)
O17 O 1.2167(3) 1.2408(3) 0.53788(13)
H5 H 1.1902 1.2240 0.5136
O18 O 1.3961(3) 1.3201(3) 0.59723(10)
H6 H 1.3467 1.2650 0.5998
C1 C 0.9083(4) 1.1714(4) 0.66471(14)
C2 C 0.8188(4) 1.1132(4) 0.69689(15)
H7 H 0.7345 1.1406 0.6906
C3 C 0.8248(5) 0.9782(4) 0.69111(17)
H8 H 0.7903 0.9585 0.6624
C4 C 0.7472(5) 0.9156(4) 0.72585(16)
C5 C 0.9294(4) 0.6307(4) 0.68412(14)
C6 C 0.8751(4) 0.5390(4) 0.65310(15)
H9 H 0.8959 0.4589 0.6636
C7 C 0.7326(4) 0.5517(4) 0.65114(15)
H10 H 0.6981 0.5378 0.6803
C8 C 0.6785(5) 0.4600(5) 0.61919(17)
C9 C 1.1599(4) 1.4348(4) 0.56761(16)
C10 C 1.2493(5) 1.3644(4) 0.53958(15)
H11 H 1.2453 1.3963 0.5098
C11 C 1.3807(4) 1.3754(4) 0.55527(15)
H12 H 1.3991 1.4605 0.5586
C12 C 1.4700(5) 1.3248(4) 0.52118(15)
Cd1D Cd 0.5000 0.79845(5) 0.7500
Cd1D_2 Cd 1.5000 1.79845(5) 0.7500
Cd2D Cd 1.5000 1.30073(5) 0.7500
Cd3D Cd 1.54474(4) 1.68220(3) 0.578450(11)
Cd3D_2 Cd 0.54474(4) 0.68220(3) 0.578450(11)
Cd3F Cd 1.54474(4) 1.31780(3) 0.421550(11)
Cd3G Cd 1.45526(4) 0.68220(3) 0.921550(11)
Cd3F_2 Cd 0.54474(4) 1.31780(3) 0.421550(11)
Cd4C Cd 0.91087(3) 0.70205(3) 0.898108(11)
Cd4D Cd 0.58913(3) 0.20205(3) 0.601892(11)
Cd4_2 Cd 1.08913(3) 1.70205(3) 0.601892(11)
Cd4D_2 Cd 1.58913(3) 1.20205(3) 0.601892(11)
Cd4G Cd 1.41087(3) 0.20205(3) 0.898108(11)
Cd4F Cd 0.58913(3) 0.79795(3) 0.398108(11)
Cd4B Cd 1.08913(3) 1.29795(3) 0.398108(11)
O1D O 1.4917(3) 1.7377(3) 0.67872(11)
O1C O 1.0083(3) 1.2377(3) 0.82128(11)
O2D O 1.3922(4) 1.6452(3) 0.62511(11)
O3D O 1.3003(4) 1.3677(3) 0.75773(12)
O3C O 1.1997(4) 0.8677(3) 0.74227(12)
O4D O 1.1339(4) 1.4226(3) 0.72014(13)
O4G O 0.8661(4) 1.4226(3) 0.77986(13)
O5D O 1.3502(3) 1.6443(3) 0.74058(10)
O5C O 1.1498(3) 1.1443(3) 0.75942(10)
H1D H 1.2873 1.6466 0.7555
H1C H 1.2127 1.1466 0.7445
O6D O 1.4490(4) 1.4399(4) 0.69212(16)
O6C O 1.0510(4) 0.9399(4) 0.80788(16)
H2D H 1.4668 1.4016 0.6644
H2C H 1.0332 0.9016 0.8356
O7C O 0.9753(3) 0.6897(3) 0.82696(10)
O8C O 1.1217(3) 0.6477(3) 0.77971(11)
O9C O 1.3826(4) 0.4944(3) 0.91291(12)
O9D O 1.1174(4) 0.9944(3) 0.58709(12)
O9_2 O 1.6174(4) 1.4944(3) 0.58709(12)
O10C O 1.2976(4) 0.3526(3) 0.87209(12)
O10D O 1.2024(4) 0.8526(3) 0.62791(12)
O10G O 0.7976(4) 0.8526(3) 0.87209(12)
O11C O 1.0755(3) 0.5543(3) 0.88954(10)
H3C H 1.0556 0.4891 0.8994
O12C O 1.2955(3) 0.6704(3) 0.86221(10)
O12D O 1.2045(3) 1.1704(3) 0.63779(10)
O12_2 O 1.7045(3) 1.6704(3) 0.63779(10)
H4C H 1.3348 0.7041 0.8429
H4D H 1.1652 1.2041 0.6571
H4_2 H 1.6652 1.7041 0.6571
O13F O 0.5723(3) 1.1186(3) 0.41263(13)
O13D O 1.5723(3) 1.8814(3) 0.58737(13)
O14F O 0.6822(3) 0.9562(3) 0.42926(13)
O14_2 O 1.1822(3) 0.5438(3) 0.57074(13)
O14C O 0.8178(3) 0.5438(3) 0.92926(13)
O15F O 1.0520(4) 1.2478(3) 0.46799(11)
O15D O 1.0520(4) 0.7522(3) 0.53201(11)
O15G O 0.9480(4) 0.7522(3) 0.96799(11)
O16F O 0.9520(4) 1.1376(4) 0.51650(11)
O16B O 1.4520(4) 1.6376(4) 0.51650(11)
O17F O 0.7167(3) 1.2592(3) 0.46212(13)
O17D O 1.7167(3) 1.7408(3) 0.53788(13)
H5F H 0.6902 1.2760 0.4864
H5D H 1.6902 1.7240 0.5136
O18F O 0.8961(3) 1.1799(3) 0.40277(10)
O18D O 0.8961(3) 0.8201(3) 0.59723(10)
O18G O 1.1039(3) 0.8201(3) 0.90277(10)
H6F H 0.8467 1.2350 0.4002
H6D H 0.8467 0.7650 0.5998
H6G H 1.1533 0.7650 0.9002
C1D C 1.4083(4) 1.6714(4) 0.66471(14)
C2D C 1.3188(4) 1.6132(4) 0.69689(15)
H7D H 1.2345 1.6406 0.6906
C3D C 1.3248(5) 1.4782(4) 0.69111(17)
H8D H 1.2903 1.4585 0.6624
C4D C 1.2472(5) 1.4156(4) 0.72585(16)
C5C C 1.0706(4) 0.6307(4) 0.81588(14)
C6C C 1.1249(4) 0.5390(4) 0.84690(15)
H9C H 1.1041 0.4589 0.8364
C7C C 1.2674(4) 0.5517(4) 0.84886(15)
H10C H 1.3019 0.5378 0.8197
C8C C 1.3215(5) 0.4600(5) 0.88081(17)
C9F C 0.6599(4) 1.0652(4) 0.43239(16)
C10F C 0.7493(5) 1.1356(4) 0.46042(15)
H11F H 0.7453 1.1037 0.4902
C11F C 0.8807(4) 1.1246(4) 0.44473(15)
H12F H 0.8991 1.0395 0.4414
C12F C 0.9700(5) 1.1752(4) 0.47882(15)
loop_
_geom_bond_atom_site_label_1
_geom_bond_atom_site_label_2
_geom_bond_site_symmetry_1
_geom_bond_site_symmetry_2
Cd1 O1 1_555 1_555
Cd2 O3 1_555 1_555
Cd3 O2 1_555 1_555
Cd4 O7 1_555 1_555
O1 C1 1_555 1_555
O2 C1 1_555 1_555
O3 C4 1_555 1_555
O4 C4 1_555 1_555
O5 Cd1 1_555 1_555
H1 O5 1_555 1_555
O6 Cd2 1_555 1_555
H2 O6 1_555 1_555
O7 C5 1_555 1_555
O8 Cd2 1_555 1_555
O9 C8 1_555 1_555
O10 C8 1_555 1_555
O11 Cd4 1_555 1_555
H3 O11 1_555 1_555
O12 H4 1_555 1_555
O13 Cd3 1_555 1_555
O14 C9 1_555 1_555
O15 C12 1_555 1_555
O16 C12 1_555 1_555
O17 Cd3 1_555 1_555
H5 O17 1_555 1_555
O18 H6 1_555 1_555
C1 C2 1_555 1_555
C2 O5 1_555 1_555
H7 C2 1_555 1_555
C3 O6 1_555 1_555
H8 C3 1_555 1_555
C4 C3 1_555 1_555
C5 O8 1_555 1_555
C6 O11 1_555 1_555
H9 C6 1_555 1_555
C7 O12 1_555 1_555
H10 C7 1_555 1_555
C8 C7 1_555 1_555
C9 O13 1_555 1_555
C10 O17 1_555 1_555
H11 C10 1_555 1_555
C11 O18 1_555 1_555
H12 C11 1_555 1_555
C12 C11 1_555 1_555
Cd1D O4 1_555 1_555
Cd1D_2 O1D 1_555 1_555
Cd2D O3D 1_555 1_555
Cd3D O2D 1_555 1_555
Cd3D_2 O9 1_555 1_555
Cd3F O16 1_555 1_555
Cd3G O9C 1_555 1_555
Cd3F_2 O13F 1_555 1_555
Cd4C O7C 1_555 1_555
Cd4D O10 1_555 1_555
Cd4_2 O14 1_555 1_555
Cd4D_2 O15 1_555 1_555
Cd4G O10C 1_555 1_555
Cd4F O14F 1_555 1_555
Cd4B O15F 1_555 1_555
O1D C1D 1_555 1_555
O1C Cd1 1_555 1_555
O2D C1D 1_555 1_555
O3D C4D 1_555 1_555
O3C Cd2 1_555 1_555
O4D Cd1 1_555 1_555
O4G Cd1 1_555 1_555
O5D Cd1D_2 1_555 1_555
O5C Cd1 1_555 1_555
H1D O5D 1_555 1_555
H1C O5C 1_555 1_555
O6D Cd2D 1_555 1_555
O6C Cd2 1_555 1_555
H2D O6D 1_555 1_555
H2C O6C 1_555 1_555
O7C C5C 1_555 1_555
O8C Cd2 1_555 1_555
O9C C8C 1_555 1_555
O9D Cd3 1_555 1_555
O9_2 Cd3D 1_555 1_555
O10C C8C 1_555 1_555
O10D Cd4 1_555 1_555
O10G Cd4C 1_555 1_555
O11C Cd4C 1_555 1_555
H3C O11C 1_555 1_555
O12C Cd3G 1_555 1_555
O12D Cd3 1_555 1_555
O12_2 Cd3D 1_555 1_555
H4C O12C 1_555 1_555
H4D O12D 1_555 1_555
H4_2 O12_2 1_555 1_555
O13F C9F 1_555 1_555
O13D Cd3D 1_555 1_555
O14F C9F 1_555 1_555
O14_2 Cd4 1_555 1_555
O14C Cd4C 1_555 1_555
O15F C12F 1_555 1_555
O15D Cd4 1_555 1_555
O15G Cd4C 1_555 1_555
O16F Cd3 1_555 1_555
O16B Cd3D 1_555 1_555
O17F Cd3F_2 1_555 1_555
O17D Cd3D 1_555 1_555
H5F O17F 1_555 1_555
H5D O17D 1_555 1_555
O18F Cd4B 1_555 1_555
O18D Cd4 1_555 1_555
O18G Cd4C 1_555 1_555
H6F O18F 1_555 1_555
H6D O18D 1_555 1_555
H6G O18G 1_555 1_555
C1D C2D 1_555 1_555
C2D O5D 1_555 1_555
H7D C2D 1_555 1_555
C3D O6D 1_555 1_555
H8D C3D 1_555 1_555
C4D O4D 1_555 1_555
C5C O8C 1_555 1_555
C6C O11C 1_555 1_555
H9C C6C 1_555 1_555
C7C O12C 1_555 1_555
H10C C7C 1_555 1_555
C8C C7C 1_555 1_555
C9F C10F 1_555 1_555
C10F O17F 1_555 1_555
H11F C10F 1_555 1_555
C11F O18F 1_555 1_555
H12F C11F 1_555 1_555
C12F O16F 1_555 1_555
O12 Cd3D_2 1_555 1_555
O18 Cd4D_2 1_555 1_555
C2 C3 1_555 1_555
C5 C6 1_555 1_555
C6 C7 1_555 1_555
C9 C10 1_555 1_555
C10 C11 1_555 1_555
C2D C3D 1_555 1_555
C3D C4D 1_555 1_555
C5C C6C 1_555 1_555
C6C C7C 1_555 1_555
C10F C11F 1_555 1_555
C11F C12F 1_555 1_555

#END
