
#######################################################################
#
#                 Cambridge Crystallographic Data Centre
#                                CCDC 
#
#######################################################################
#
# If this CIF has been generated from an entry in the Cambridge 
# Structural Database, then it will include bibliographic, chemical, 
# crystal, experimental, refinement or atomic coordinate data resulting 
# from the CCDC's data processing and validation procedures.
#
#######################################################################

data_UPIXIB
_symmetry_cell_setting           monoclinic
_symmetry_space_group_name_H-M   'C 2/c'
_symmetry_Int_Tables_number      15
_space_group_name_Hall           '-C 2yn'
loop_
_symmetry_equiv_pos_site_id
_symmetry_equiv_pos_as_xyz
1 x,y,z
2 -x,y,1/2-z
3 1/2+x,1/2+y,z
4 1/2-x,1/2+y,1/2-z
5 -x,-y,-z
6 x,-y,1/2+z
7 1/2-x,1/2-y,-z
8 1/2+x,1/2-y,1/2+z
_cell_length_a                   23.5265(15)
_cell_length_b                   7.3558(5)
_cell_length_c                   17.4771(11)
_cell_angle_alpha                90
_cell_angle_beta                 90.3560(10)
_cell_angle_gamma                90
_cell_volume                     3024.46
loop_
_atom_site_label
_atom_site_type_symbol
_atom_site_fract_x
_atom_site_fract_y
_atom_site_fract_z
Cd1 Cd 0.398570(8) 1.01110(3) 0.098458(12)
Cl1 Cl 0.36586(4) 0.78309(10) 0.00182(5)
O1 O 0.44485(9) 1.2905(3) 0.12626(12)
O2 O 0.44315(8) 1.2087(3) 0.00557(12)
O3 O 0.49358(10) 0.9010(4) 0.11889(15)
N1 N 0.38531(10) 0.8562(3) 0.21047(13)
N2 N 0.35972(9) 0.7680(3) 0.32540(13)
N3 N 0.27443(9) 0.7725(3) 0.40206(13)
N4 N 0.18508(9) 0.6852(3) 0.39756(14)
C1 C 0.39898(14) 0.6750(4) 0.21970(18)
H1 H 0.4163 0.6027 0.1829
C2 C 0.38370(13) 0.6188(4) 0.28937(18)
H2 H 0.3883 0.5027 0.3096
C3 C 0.36216(12) 0.9086(4) 0.27509(17)
C4 C 0.34186(17) 1.0952(4) 0.2926(2)
H3 H 0.3562 1.1784 0.2551
H4 H 0.3552 1.1304 0.3425
H5 H 0.3011 1.0972 0.2916
C5 C 0.33631(12) 0.7694(4) 0.40162(16)
H6 H 0.3505 0.8754 0.4287
H7 H 0.3494 0.6624 0.4289
C6 C 0.24177(12) 0.9233(4) 0.41856(17)
H8 H 0.2549 1.0396 0.4300
C7 C 0.18737(12) 0.8688(4) 0.41485(16)
H9 H 0.1560 0.9430 0.4227
C8 C 0.23846(11) 0.6312(4) 0.39013(16)
C9 C 0.25699(14) 0.4441(5) 0.3720(2)
H10 H 0.2254 0.3624 0.3772
H11 H 0.2869 0.4087 0.4065
H12 H 0.2707 0.4398 0.3204
C10 C 0.46028(11) 1.3137(4) 0.05817(17)
C11 C 0.49922(16) 1.4695(4) 0.0414(2)
H13 H 0.5374 1.4356 0.0570
H14 H 0.4879 1.5721 0.0727
H16 H 0.512(2) 0.938(7) 0.159(2)
H17 H 0.5132(14) 0.859(5) 0.0797(16)
Cd1D Cd 0.601430(8) 1.98890(3) -0.098458(12)
Cd1C Cd 0.101430(8) 0.51110(3) 0.401542(12)
Cd1C_2 Cd 0.101430(8) 1.51110(3) 0.401542(12)
Cl1D Cl 0.63414(4) 2.21691(10) -0.00182(5)
O1D O 0.55515(9) 1.7095(3) -0.12626(12)
O2D O 0.55685(8) 1.7913(3) -0.00557(12)
O3D O 0.50642(10) 2.0990(4) -0.11889(15)
N1C N 0.11469(10) 1.3562(3) 0.28953(13)
N1D N 0.61469(10) 2.1438(3) -0.21047(13)
N2C N 0.14028(9) 1.2680(3) 0.17460(13)
N3C N 0.22557(9) 1.2725(3) 0.09794(13)
N4C N 0.31492(9) 1.1852(3) 0.10244(14)
N4G N 0.68508(9) 1.8148(3) -0.10244(14)
C1C C 0.10102(14) 1.1750(4) 0.28030(18)
H1C H 0.0837 1.1027 0.3171
C2C C 0.11630(13) 1.1188(4) 0.21063(18)
H2C H 0.1117 1.0027 0.1904
C3C C 0.13784(12) 1.4086(4) 0.22491(17)
C4C C 0.15814(17) 1.5952(4) 0.2074(2)
H3C H 0.1438 1.6784 0.2449
H4C H 0.1448 1.6304 0.1575
H5C H 0.1989 1.5972 0.2084
C5C C 0.16369(12) 1.2694(4) 0.09838(16)
H6C H 0.1495 1.3754 0.0713
H7C H 0.1506 1.1624 0.0711
C6C C 0.25823(12) 1.4233(4) 0.08144(17)
H8C H 0.2451 1.5396 0.0700
C7C C 0.31263(12) 1.3688(4) 0.08515(16)
H9C H 0.3440 1.4430 0.0773
C8C C 0.26154(11) 1.1312(4) 0.10987(16)
C9C C 0.24301(14) 0.9441(5) 0.1280(2)
H10C H 0.2746 0.8624 0.1228
H11C H 0.2131 0.9087 0.0935
H12C H 0.2293 0.9398 0.1796
C10D C 0.53972(11) 1.6863(4) -0.05817(17)
C11D C 0.50078(16) 1.5305(4) -0.0414(2)
H13D H 0.4626 1.5644 -0.0570
H14D H 0.5121 1.4279 -0.0727
H16D H 0.488(2) 2.062(7) -0.159(2)
H17D H 0.4868(14) 2.141(5) -0.0797(16)
O4 O 0.5000 0.1511(11) 0.2500
H15 H 0.4709(10) 0.215(3) 0.2792(15)
H15A H 0.5291(10) 0.215(3) 0.2208(15)
loop_
_geom_bond_atom_site_label_1
_geom_bond_atom_site_label_2
_geom_bond_site_symmetry_1
_geom_bond_site_symmetry_2
Cd1 Cl1 1_555 1_555
O1 Cd1 1_555 1_555
O2 Cd1 1_555 1_555
O3 Cd1 1_555 1_555
O4 H15 1_555 1_555
N1 Cd1 1_555 1_555
N2 C2 1_555 1_555
N3 C5 1_555 1_555
N4 C7 1_555 1_555
C1 N1 1_555 1_555
H1 C1 1_555 1_555
C2 C1 1_555 1_555
H2 C2 1_555 1_555
C3 N1 1_555 1_555
C4 C3 1_555 1_555
H3 C4 1_555 1_555
H4 C4 1_555 1_555
H5 C4 1_555 1_555
C5 N2 1_555 1_555
H6 C5 1_555 1_555
H7 C5 1_555 1_555
C6 N3 1_555 1_555
H8 C6 1_555 1_555
C7 C6 1_555 1_555
H9 C7 1_555 1_555
C8 N3 1_555 1_555
C9 C8 1_555 1_555
H10 C9 1_555 1_555
H11 C9 1_555 1_555
H12 C9 1_555 1_555
C10 O1 1_555 1_555
C11 C10 1_555 1_555
H13 C11 1_555 1_555
H14 C11 1_555 1_555
H16 O3 1_555 1_555
H17 O3 1_555 1_555
Cd1D Cl1D 1_555 1_555
Cd1C N4 1_555 1_555
Cd1C_2 N1C 1_555 1_555
O1D Cd1D 1_555 1_555
O2D Cd1D 1_555 1_555
O3D Cd1D 1_555 1_555
N1C C1C 1_555 1_555
N1D Cd1D 1_555 1_555
N2C C2C 1_555 1_555
N3C C5C 1_555 1_555
N4C Cd1 1_555 1_555
N4G Cd1D 1_555 1_555
C1C H1C 1_555 1_555
C2C C1C 1_555 1_555
H2C C2C 1_555 1_555
C3C N1C 1_555 1_555
C4C C3C 1_555 1_555
H3C C4C 1_555 1_555
H4C C4C 1_555 1_555
H5C C4C 1_555 1_555
C5C N2C 1_555 1_555
H6C C5C 1_555 1_555
H7C C5C 1_555 1_555
C6C N3C 1_555 1_555
H8C C6C 1_555 1_555
C7C N4C 1_555 1_555
H9C C7C 1_555 1_555
C8C N3C 1_555 1_555
C9C C8C 1_555 1_555
H10C C9C 1_555 1_555
H11C C9C 1_555 1_555
H12C C9C 1_555 1_555
C10D O1D 1_555 1_555
C11D C11 1_555 1_555
H13D C11D 1_555 1_555
H14D C11D 1_555 1_555
H15A O4 1_555 1_555
H16D O3D 1_555 1_555
H17D O3D 1_555 1_555
O2 C10 1_555 1_555
N2 C3 1_555 1_555
N4 C8 1_555 1_555
O2D C10D 1_555 1_555
N2C C3C 1_555 1_555
N4C C8C 1_555 1_555
C6C C7C 1_555 1_555
C10D C11D 1_555 1_555

#END
