
#######################################################################
#
#                 Cambridge Crystallographic Data Centre
#                                CCDC 
#
#######################################################################
#
# If this CIF has been generated from an entry in the Cambridge 
# Structural Database, then it will include bibliographic, chemical, 
# crystal, experimental, refinement or atomic coordinate data resulting 
# from the CCDC's data processing and validation procedures.
#
#######################################################################

data_UPIXOH
_symmetry_cell_setting           monoclinic
_symmetry_space_group_name_H-M   'P 21/n'
_symmetry_Int_Tables_number      14
_space_group_name_Hall           '-P 2yn'
loop_
_symmetry_equiv_pos_site_id
_symmetry_equiv_pos_as_xyz
1 x,y,z
2 1/2-x,1/2+y,1/2-z
3 -x,-y,-z
4 1/2+x,1/2-y,1/2+z
_cell_length_a                   10.9594(4)
_cell_length_b                   16.6431(5)
_cell_length_c                   11.3476(4)
_cell_angle_alpha                90
_cell_angle_beta                 104.6870(10)
_cell_angle_gamma                90
_cell_volume                     2002.15
loop_
_atom_site_label
_atom_site_type_symbol
_atom_site_fract_x
_atom_site_fract_y
_atom_site_fract_z
Cu1 Cu 0.83608(2) 0.212385(13) 0.777526(19)
N1 N 0.77678(15) 0.19856(9) 0.93394(14)
N2 N 0.62932(14) -0.26464(10) 0.88824(14)
N3 N 0.59975(17) 0.02054(10) 1.18348(15)
N4 N 0.57286(17) -0.06211(10) 1.17569(15)
O1 O 1.24782(12) 0.38607(7) 1.20817(11)
O2 O 1.07978(13) 0.30577(8) 1.15572(12)
O3 O 0.89306(12) 0.31990(7) 0.82928(11)
O4 O 1.10288(12) 0.30603(8) 0.90071(12)
O5 O 1.02564(13) 0.15301(8) 0.86726(13)
O6 O 0.66965(12) -0.03052(8) 1.03316(11)
C1 C 0.74277(17) 0.12587(12) 0.96640(17)
H1 H 0.7471 0.0811 0.9157
C2 C 0.76968(18) 0.26129(12) 1.00690(18)
H2 H 0.7919 0.3132 0.9843
C3 C 0.73138(19) 0.25320(13) 1.11334(18)
H3 H 0.7287 0.2988 1.1630
C4 C 0.69717(18) 0.17872(13) 1.14699(17)
H4 H 0.6712 0.1718 1.2201
C5 C 0.70179(18) 0.11374(12) 1.07067(16)
C6 C 0.65729(18) 0.03563(11) 1.10008(16)
C7 C 0.61574(17) -0.08923(12) 1.08754(16)
C8 C 0.60899(17) -0.17133(12) 1.04245(17)
C9 C 0.56702(19) -0.23245(12) 1.10680(18)
H5 H 0.5436 -0.2212 1.1801
C10 C 0.5605(2) -0.30954(13) 1.06117(18)
H6 H 0.5340 -0.3526 1.1037
C11 C 0.59286(18) -0.32356(12) 0.95291(18)
H7 H 0.5892 -0.3770 0.9229
C12 C 0.63835(18) -0.18978(12) 0.93335(17)
H8 H 0.6657 -0.1479 0.8892
C13 C 1.06587(16) 0.43709(11) 1.07047(16)
C14 C 1.00167(16) 0.42385(10) 0.94851(16)
C15 C 1.06385(16) 0.51335(11) 1.11982(16)
H9 H 1.1083 0.5227 1.2021
C16 C 1.13310(17) 0.36996(11) 1.14925(15)
C17 C 1.00246(17) 0.34286(11) 0.88916(15)
H10 H 1.0617 0.1239 0.8245
H11 H 1.0690 0.1959 0.8788
Cu1A Cu 0.66392(2) 0.712385(13) 0.722474(19)
Cu1A_2 Cu 0.66392(2) -0.287615(13) 0.722474(19)
Cu1C Cu 1.33608(2) 0.287615(13) 1.277526(19)
Cu1B Cu 1.16392(2) 0.787615(13) 1.222474(19)
N1A N 0.72322(15) 0.69856(9) 0.56606(14)
N2A N 0.87068(14) 0.23536(10) 0.61176(14)
N2_2 N 0.62932(14) 0.73536(10) 0.88824(14)
N3A N 0.90025(17) 0.52054(10) 0.31652(15)
N4A N 0.92714(17) 0.43789(10) 0.32431(15)
O1B O 0.75218(12) 0.61393(7) 0.79183(11)
O1C O 0.74782(12) 0.11393(7) 0.70817(11)
O2B O 0.92022(13) 0.69423(8) 0.84428(12)
O3B O 1.10694(12) 0.68010(7) 1.17072(11)
O3A O 0.60694(12) 0.81990(7) 0.67072(11)
O4B O 0.89712(12) 0.69397(8) 1.09929(12)
O5A O 0.47436(13) 0.65301(8) 0.63274(13)
O6A O 0.83035(12) 0.46948(8) 0.46684(11)
C1A C 0.75723(17) 0.62587(12) 0.53360(17)
H1A H 0.7529 0.5811 0.5843
C2A C 0.73032(18) 0.76129(12) 0.49310(18)
H2A H 0.7081 0.8132 0.5157
C3A C 0.76862(19) 0.75320(13) 0.38666(18)
H3A H 0.7713 0.7988 0.3370
C4A C 0.80283(18) 0.67872(13) 0.35301(17)
H4A H 0.8288 0.6718 0.2799
C5A C 0.79821(18) 0.61374(12) 0.42933(16)
C6A C 0.84271(18) 0.53563(11) 0.39992(16)
C7A C 0.88426(17) 0.41077(12) 0.41246(16)
C8A C 0.89101(17) 0.32867(12) 0.45755(17)
C9A C 0.93298(19) 0.26755(12) 0.39320(18)
H5A H 0.9564 0.2788 0.3199
C10A C 0.9395(2) 0.19046(13) 0.43883(18)
H6A H 0.9660 0.1474 0.3963
C11A C 0.90714(18) 0.17644(12) 0.54709(18)
H7A H 0.9108 0.1230 0.5771
C12A C 0.86165(18) 0.31022(12) 0.56665(17)
H8A H 0.8343 0.3521 0.6108
C13B C 0.93413(16) 0.56291(11) 0.92953(16)
C14B C 0.99833(16) 0.57615(10) 1.05149(16)
C15B C 0.93615(16) 0.48665(11) 0.88018(16)
H9B H 0.8917 0.4773 0.7979
C16B C 0.86690(17) 0.63004(11) 0.85075(15)
C17B C 0.99754(17) 0.65714(11) 1.11084(15)
H10A H 0.4383 0.6239 0.6755
H11A H 0.4310 0.6959 0.6212
O7 O 1.37665(15) 0.53067(9) 1.19169(14)
H12 H 1.3322 0.4906 1.2015
H13 H 1.3821 0.5645 1.2489
O8 O 1.11243(15) 0.03883(10) 0.74360(14)
H14 H 1.0475 0.0089 0.7269
H15 H 1.1403 0.0402 0.6802
O9 O 1.08320(19) 0.13991(10) 1.12772(15)
H16 H 1.0640 0.1353 1.0506
H17 H 1.0907 0.1901 1.1414
O10 O 0.77608(17) -0.04406(13) 1.44270(16)
H18 H 0.8062 -0.0417 1.5194
H19 H 0.7041 -0.0216 1.4233
loop_
_geom_bond_atom_site_label_1
_geom_bond_atom_site_label_2
_geom_bond_site_symmetry_1
_geom_bond_site_symmetry_2
Cu1 N1 1_555 1_555
N1 C1 1_555 1_555
N2 C11 1_555 1_555
N3 N4 1_555 1_555
N4 C7 1_555 1_555
O1 C16 1_555 1_555
O2 C16 1_555 1_555
O3 Cu1 1_555 1_555
O4 C17 1_555 1_555
O5 Cu1 1_555 1_555
O6 C6 1_555 1_555
C1 H1 1_555 1_555
C2 N1 1_555 1_555
H2 C2 1_555 1_555
C3 C2 1_555 1_555
H3 C3 1_555 1_555
C4 C3 1_555 1_555
H4 C4 1_555 1_555
C5 C1 1_555 1_555
C6 N3 1_555 1_555
C7 O6 1_555 1_555
C8 C7 1_555 1_555
C9 C8 1_555 1_555
H5 C9 1_555 1_555
C10 C9 1_555 1_555
H6 C10 1_555 1_555
C11 C10 1_555 1_555
H7 C11 1_555 1_555
C12 N2 1_555 1_555
H8 C12 1_555 1_555
C13 C14 1_555 1_555
C14 C17 1_555 1_555
C15 C13 1_555 1_555
H9 C15 1_555 1_555
C16 C13 1_555 1_555
C17 O3 1_555 1_555
O7 H12 1_555 1_555
O8 H14 1_555 1_555
O9 H16 1_555 1_555
O10 H18 1_555 1_555
H10 O5 1_555 1_555
H11 O5 1_555 1_555
H13 O7 1_555 1_555
H15 O8 1_555 1_555
H17 O9 1_555 1_555
H19 O10 1_555 1_555
Cu1A N1A 1_555 1_555
Cu1A_2 N2 1_555 1_555
Cu1C O1 1_555 1_555
Cu1B O3B 1_555 1_555
N1A C1A 1_555 1_555
N2A Cu1 1_555 1_555
N2_2 Cu1A 1_555 1_555
N3A N4A 1_555 1_555
N4A C7A 1_555 1_555
O1B Cu1A 1_555 1_555
O1C Cu1 1_555 1_555
O2B C16B 1_555 1_555
O3B C17B 1_555 1_555
O3A Cu1A 1_555 1_555
O4B C17B 1_555 1_555
O5A Cu1A 1_555 1_555
O6A C6A 1_555 1_555
C1A H1A 1_555 1_555
C2A N1A 1_555 1_555
H2A C2A 1_555 1_555
C3A C2A 1_555 1_555
H3A C3A 1_555 1_555
C4A C3A 1_555 1_555
H4A C4A 1_555 1_555
C5A C1A 1_555 1_555
C6A N3A 1_555 1_555
C7A O6A 1_555 1_555
C8A C7A 1_555 1_555
C9A C8A 1_555 1_555
H5A C9A 1_555 1_555
C10A C9A 1_555 1_555
H6A C10A 1_555 1_555
C11A N2A 1_555 1_555
H7A C11A 1_555 1_555
C12A N2A 1_555 1_555
H8A C12A 1_555 1_555
C13B C14B 1_555 1_555
C14B C15 1_555 1_555
C15B C14 1_555 1_555
H9B C15B 1_555 1_555
C16B O1B 1_555 1_555
C17B C14B 1_555 1_555
H10A O5A 1_555 1_555
H11A O5A 1_555 1_555
C4 C5 1_555 1_555
C5 C6 1_555 1_555
C8 C12 1_555 1_555
C4A C5A 1_555 1_555
C5A C6A 1_555 1_555
C8A C12A 1_555 1_555
C10A C11A 1_555 1_555
C13B C15B 1_555 1_555
C13B C16B 1_555 1_555

#END
