
#######################################################################
#
#                 Cambridge Crystallographic Data Centre
#                                CCDC 
#
#######################################################################
#
# If this CIF has been generated from an entry in the Cambridge 
# Structural Database, then it will include bibliographic, chemical, 
# crystal, experimental, refinement or atomic coordinate data resulting 
# from the CCDC's data processing and validation procedures.
#
#######################################################################

data_UPIYAU
_symmetry_cell_setting           monoclinic
_symmetry_space_group_name_H-M   'P 21'
_symmetry_Int_Tables_number      4
_space_group_name_Hall           'P 2yb'
loop_
_symmetry_equiv_pos_site_id
_symmetry_equiv_pos_as_xyz
1 x,y,z
2 -x,1/2+y,-z
_cell_length_a                   7.6097(11)
_cell_length_b                   11.2192(15)
_cell_length_c                   9.0149(13)
_cell_angle_alpha                90
_cell_angle_beta                 99.4940(10)
_cell_angle_gamma                90
_cell_volume                     759.103
loop_
_atom_site_label
_atom_site_type_symbol
_atom_site_fract_x
_atom_site_fract_y
_atom_site_fract_z
Mn1 Mn 0.7709(2) 0.61651(18) 0.76291(19)
Mn2 Mn 0.6432(2) 0.12931(19) 0.78459(18)
O1 O 0.6216(13) 0.6096(12) 0.9443(11)
O2 O 0.5561(13) 0.5200(10) 1.1492(10)
O3 O 0.8618(13) 0.1374(10) 0.9652(10)
O4 O 1.0220(13) 0.2403(10) 1.1519(12)
O5 O 0.8866(14) 0.4625(10) 0.9213(11)
H1 H 1.0114 0.4791 0.9578
O6 O 0.5988(14) 0.2941(10) 0.9223(12)
H2 H 0.4866 0.2851 0.9589
O7 O 0.9247(13) 0.5557(9) 0.6026(11)
O8 O 0.9581(15) 0.4354(11) 0.4134(13)
O9 O 0.4515(13) 0.1807(10) 0.5870(10)
O10 O 0.4176(14) 0.2463(9) 0.3512(11)
O11 O 0.6167(13) 0.4621(10) 0.6369(11)
H3 H 0.6160 0.3958 0.7059
O12 O 0.7899(13) 0.2390(10) 0.6428(10)
H4 H 0.8396 0.3066 0.7023
O13 O 0.7454(15) -0.0275(10) 0.6911(14)
H5 H 0.8435 -0.0349 0.6585
H6 H 0.6912 -0.0940 0.6806
C1 C 0.6429(17) 0.5301(13) 1.0467(14)
C2 C 0.8017(19) 0.4436(15) 1.0445(15)
H7 H 0.8885 0.4570 1.1360
C3 C 0.7354(19) 0.3165(14) 1.0471(16)
H8 H 0.6824 0.3072 1.1384
C4 C 0.8832(19) 0.2240(13) 1.0539(15)
C5 C 0.874(2) 0.4711(16) 0.5074(16)
C6 C 0.6872(18) 0.4205(13) 0.5055(14)
H9 H 0.6091 0.4478 0.4144
C7 C 0.6956(18) 0.2834(14) 0.5047(15)
H10 H 0.7570 0.2577 0.4228
C8 C 0.5096(19) 0.2328(13) 0.4785(15)
Mn1A Mn 1.2291(2) 0.11651(18) 1.23709(19)
Mn1A_2 Mn 0.2291(2) 0.11651(18) 0.23709(19)
Mn2A Mn 0.3568(2) 0.62931(19) 1.21541(18)
O2A O 0.4439(13) 0.0200(10) 0.8508(10)
O4A O 0.9780(13) 0.7403(10) 0.8481(12)
O10A O 0.5824(14) 0.7463(9) 0.6488(11)
loop_
_geom_bond_atom_site_label_1
_geom_bond_atom_site_label_2
_geom_bond_site_symmetry_1
_geom_bond_site_symmetry_2
Mn1 O1 1_555 1_555
Mn2 O3 1_555 1_555
O1 C1 1_555 1_555
O2 C1 1_555 1_555
O3 C4 1_555 1_555
O4 C4 1_555 1_555
O5 Mn1 1_555 1_555
H1 O5 1_555 1_555
O6 Mn2 1_555 1_555
H2 O6 1_555 1_555
O7 Mn1 1_555 1_555
O8 C5 1_555 1_555
O9 Mn2 1_555 1_555
O10 C8 1_555 1_555
O11 Mn1 1_555 1_555
H3 O11 1_555 1_555
O12 Mn2 1_555 1_555
H4 O12 1_555 1_555
O13 Mn2 1_555 1_555
H5 O13 1_555 1_555
H6 O13 1_555 1_555
C1 C2 1_555 1_555
C2 O5 1_555 1_555
H7 C2 1_555 1_555
C3 O6 1_555 1_555
H8 C3 1_555 1_555
C4 C3 1_555 1_555
C5 O7 1_555 1_555
C6 O11 1_555 1_555
H9 C6 1_555 1_555
C7 O12 1_555 1_555
H10 C7 1_555 1_555
C8 O9 1_555 1_555
Mn1A O4 1_555 1_555
Mn1A_2 O10 1_555 1_555
Mn2A O2 1_555 1_555
O2A Mn2 1_555 1_555
O4A Mn1 1_555 1_555
O10A Mn1 1_555 1_555
C2 C3 1_555 1_555
C5 C6 1_555 1_555
C6 C7 1_555 1_555
C7 C8 1_555 1_555

#END
