
#######################################################################
#
#                 Cambridge Crystallographic Data Centre
#                                CCDC 
#
#######################################################################
#
# If this CIF has been generated from an entry in the Cambridge 
# Structural Database, then it will include bibliographic, chemical, 
# crystal, experimental, refinement or atomic coordinate data resulting 
# from the CCDC's data processing and validation procedures.
#
#######################################################################

data_UPIYOI
_symmetry_cell_setting           triclinic
_symmetry_space_group_name_H-M   'P -1'
_symmetry_Int_Tables_number      2
_space_group_name_Hall           '-P 1'
loop_
_symmetry_equiv_pos_site_id
_symmetry_equiv_pos_as_xyz
1 x,y,z
2 -x,-y,-z
_cell_length_a                   8.760(4)
_cell_length_b                   11.190(5)
_cell_length_c                   13.917(7)
_cell_angle_alpha                110.383(5)
_cell_angle_beta                 101.736(5)
_cell_angle_gamma                100.612(5)
_cell_volume                     1202.76
loop_
_atom_site_label
_atom_site_type_symbol
_atom_site_fract_x
_atom_site_fract_y
_atom_site_fract_z
C1 C -0.3193(5) 0.6374(5) 0.0288(4)
H1 H -0.3713 0.6396 -0.0389
H2 H -0.3116 0.5480 0.0153
O1 O 0.3257(3) 0.9457(3) 0.01738(19)
O4 O -0.5080(5) 0.7425(4) 0.1013(3)
O5 O -0.3948(4) 0.6253(3) 0.1776(3)
H4 H -0.4363 0.6491 0.2255
O6 O 0.5559(3) 1.0668(3) 0.1450(2)
H5 H 0.5923 1.0530 0.0938
C17 C -0.1253(5) 0.8609(4) 0.0779(3)
H17 H -0.2126 0.8875 0.0502
C18 C 0.1614(4) 0.9120(4) 0.1618(3)
C19 C 0.4025(4) 1.0010(4) 0.1119(3)
C20 C -0.1507(4) 0.7336(4) 0.0764(3)
C21 C -0.4196(5) 0.6745(4) 0.1049(4)
C22 C -0.0189(5) 0.6985(4) 0.1207(3)
H18 H -0.0336 0.6150 0.1226
C23 C 0.0300(5) 0.9488(4) 0.1205(3)
H19 H 0.0450 1.0335 0.1210
C24 C 0.1345(5) 0.7865(4) 0.1621(3)
H20 H 0.2216 0.7606 0.1909
C25 C 0.3298(5) 1.0037(5) 0.2009(3)
H21 H 0.3266 1.0935 0.2397
H22 H 0.3987 0.9789 0.2504
C2 C 0.0870(5) 0.8056(4) 0.6552(3)
H3 H 0.1127 0.8676 0.7253
Cd1 Cd 0.37916(2) 0.60331(2) 0.446543(17)
Cl1 Cl 0.47968(10) 0.39738(8) 0.36757(6)
N1 N 0.1756(3) 0.6721(2) 0.5143(2)
N2 N 0.1279(3) 0.4957(3) 0.3137(2)
O2 O 0.4876(4) 0.7005(3) 0.3388(2)
O3 O 0.5445(4) 0.8246(3) 0.5069(2)
C3 C 0.0220(3) 0.6236(3) 0.4497(2)
C4 C 0.2058(4) 0.7607(3) 0.6139(3)
H6 H 0.3124 0.7940 0.6578
C5 C 0.5556(4) 0.8099(4) 0.4163(3)
C6 C 0.8319(4) 0.9632(3) 0.4516(3)
C7 C -0.0047(3) 0.5249(3) 0.3388(2)
C8 C 0.8999(4) 1.0522(3) 0.5575(3)
H7 H 0.8334 1.0887 0.5967
C9 C 0.9337(4) 0.9122(3) 0.3942(3)
H8 H 0.8904 0.8536 0.3227
C10 C 0.6507(4) 0.9254(4) 0.3984(3)
H9 H 0.6317 0.9013 0.3220
H10 H 0.6107 1.0019 0.4264
C11 C -0.1036(4) 0.6632(3) 0.4869(3)
H11 H -0.2098 0.6272 0.4424
C12 C -0.0707(4) 0.7563(3) 0.5900(3)
H12 H -0.1537 0.7852 0.6150
C13 C -0.1740(4) 0.3705(4) 0.1648(3)
H13 H -0.2757 0.3286 0.1148
C14 C -0.0383(5) 0.3400(4) 0.1399(3)
H14 H -0.0464 0.2766 0.0733
C15 C -0.1577(4) 0.4641(4) 0.2650(3)
H15 H -0.2485 0.4862 0.2829
C16 C 0.1094(4) 0.4051(4) 0.2156(3)
H16 H 0.2014 0.3856 0.1982
C2A C 0.9130(5) 0.1944(4) 0.3448(3)
H3A H 0.8873 0.1324 0.2747
Cd1A Cd 0.62084(2) 0.39669(2) 0.553457(17)
Cd1A_2 Cd 1.62084(2) 1.39669(2) 0.553457(17)
Cl1A Cl 0.52032(10) 0.60262(8) 0.63243(6)
N1A N 0.8244(3) 0.3279(2) 0.4857(2)
N2A N 0.8721(3) 0.5043(3) 0.6863(2)
O2A O 1.5124(4) 1.2995(3) 0.6612(2)
O2A_2 O 0.5124(4) 0.2995(3) 0.6612(2)
O3A O 1.4555(4) 1.1754(3) 0.4931(2)
O3A_2 O 0.4555(4) 0.1754(3) 0.4931(2)
C3A C 0.9780(3) 0.3764(3) 0.5503(2)
C4A C 0.7942(4) 0.2393(3) 0.3861(3)
H6A H 0.6876 0.2060 0.3422
C5A C 1.4444(4) 1.1901(4) 0.5837(3)
C6A C 1.1681(4) 1.0368(3) 0.5484(3)
C7A C 1.0047(3) 0.4751(3) 0.6612(2)
C8A C 1.1001(4) 0.9478(3) 0.4425(3)
H7A H 1.1666 0.9113 0.4033
C9A C 1.0663(4) 1.0878(3) 0.6058(3)
H8A H 1.1096 1.1464 0.6773
C10A C 1.3493(4) 1.0746(4) 0.6016(3)
H9A H 1.3683 1.0987 0.6780
H10A H 1.3893 0.9981 0.5736
C11A C 1.1036(4) 0.3368(3) 0.5131(3)
H11A H 1.2098 0.3728 0.5576
C12A C 1.0707(4) 0.2437(3) 0.4100(3)
H12A H 1.1537 0.2148 0.3850
C13A C 1.1740(4) 0.6295(4) 0.8352(3)
H13A H 1.2757 0.6714 0.8852
C14A C 1.0383(5) 0.6600(4) 0.8601(3)
H14A H 1.0464 0.7234 0.9267
C15A C 1.1577(4) 0.5359(4) 0.7350(3)
H15A H 1.2485 0.5138 0.7171
C16A C 0.8906(4) 0.5949(4) 0.7844(3)
H16A H 0.7986 0.6144 0.8018
loop_
_geom_bond_atom_site_label_1
_geom_bond_atom_site_label_2
_geom_bond_site_symmetry_1
_geom_bond_site_symmetry_2
C1 H1 1_555 1_555
H2 C1 1_555 1_555
O1 C19 1_555 1_555
C2 H3 1_555 1_555
Cd1 Cl1 1_555 1_555
Cl1 Cd1A 1_555 1_555
N1 Cd1 1_555 1_555
N2 Cd1 1_555 1_555
O2 Cd1 1_555 1_555
O3 Cd1 1_555 1_555
O4 C21 1_555 1_555
O5 H4 1_555 1_555
O6 H5 1_555 1_555
C3 N1 1_555 1_555
C4 C2 1_555 1_555
H6 C4 1_555 1_555
C5 O2 1_555 1_555
C6 C8 1_555 1_555
C7 N2 1_555 1_555
C8 H7 1_555 1_555
C9 C6 1_555 1_555
H8 C9 1_555 1_555
C10 C5 1_555 1_555
H9 C10 1_555 1_555
H10 C10 1_555 1_555
C11 C3 1_555 1_555
H11 C11 1_555 1_555
C12 C2 1_555 1_555
H12 C12 1_555 1_555
C13 H13 1_555 1_555
C14 C13 1_555 1_555
H14 C14 1_555 1_555
C15 C7 1_555 1_555
H15 C15 1_555 1_555
C16 N2 1_555 1_555
H16 C16 1_555 1_555
C17 H17 1_555 1_555
C18 C23 1_555 1_555
C19 O6 1_555 1_555
C20 C1 1_555 1_555
C21 C1 1_555 1_555
C22 C20 1_555 1_555
H18 C22 1_555 1_555
C23 C17 1_555 1_555
H19 C23 1_555 1_555
C24 C18 1_555 1_555
H20 C24 1_555 1_555
C25 C18 1_555 1_555
H21 C25 1_555 1_555
H22 C25 1_555 1_555
C2A H3A 1_555 1_555
Cd1A Cl1A 1_555 1_555
Cd1A_2 O2A 1_555 1_555
Cl1A Cd1 1_555 1_555
N1A Cd1A 1_555 1_555
N2A Cd1A 1_555 1_555
O2A C5A 1_555 1_555
O2A_2 Cd1A 1_555 1_555
O3A Cd1A_2 1_555 1_555
O3A_2 Cd1A 1_555 1_555
C3A N1A 1_555 1_555
C4A C2A 1_555 1_555
H6A C4A 1_555 1_555
C5A O3A 1_555 1_555
C6A C8A 1_555 1_555
C7A N2A 1_555 1_555
C8A C9 1_555 1_555
H7A C8A 1_555 1_555
C9A C8 1_555 1_555
H8A C9A 1_555 1_555
C10A C5A 1_555 1_555
H9A C10A 1_555 1_555
H10A C10A 1_555 1_555
C11A C3A 1_555 1_555
H11A C11A 1_555 1_555
C12A C2A 1_555 1_555
H12A C12A 1_555 1_555
C13A H13A 1_555 1_555
C14A C13A 1_555 1_555
H14A C14A 1_555 1_555
C15A C7A 1_555 1_555
H15A C15A 1_555 1_555
C16A N2A 1_555 1_555
H16A C16A 1_555 1_555
N1 C4 1_555 1_555
O3 C5 1_555 1_555
O5 C21 1_555 1_555
C3 C7 1_555 1_555
C6 C10 1_555 1_555
C11 C12 1_555 1_555
C13 C15 1_555 1_555
C14 C16 1_555 1_555
C17 C20 1_555 1_555
C19 C25 1_555 1_555
C22 C24 1_555 1_555
N1A C4A 1_555 1_555
C3A C7A 1_555 1_555
C6A C9A 1_555 1_555
C6A C10A 1_555 1_555
C11A C12A 1_555 1_555
C13A C15A 1_555 1_555
C14A C16A 1_555 1_555

#END
