
#######################################################################
#
#                 Cambridge Crystallographic Data Centre
#                                CCDC 
#
#######################################################################
#
# If this CIF has been generated from an entry in the Cambridge 
# Structural Database, then it will include bibliographic, chemical, 
# crystal, experimental, refinement or atomic coordinate data resulting 
# from the CCDC's data processing and validation procedures.
#
#######################################################################

data_UPIZOJ
_symmetry_cell_setting           monoclinic
_symmetry_space_group_name_H-M   'P 21/c'
_symmetry_Int_Tables_number      14
_space_group_name_Hall           '-P 2ybc'
loop_
_symmetry_equiv_pos_site_id
_symmetry_equiv_pos_as_xyz
1 x,y,z
2 -x,1/2+y,1/2-z
3 -x,-y,-z
4 x,1/2-y,1/2+z
_cell_length_a                   12.3213(3)
_cell_length_b                   6.7557(2)
_cell_length_c                   36.2020(9)
_cell_angle_alpha                90
_cell_angle_beta                 90.548(2)
_cell_angle_gamma                90
_cell_volume                     3013.28
loop_
_atom_site_label
_atom_site_type_symbol
_atom_site_fract_x
_atom_site_fract_y
_atom_site_fract_z
Cs1 Cs 0.38151(3) 0.71981(8) 0.81292(1)
Cs2 Cs 0.36595(4) 0.60793(7) 0.65319(1)
Cs3 Cs -0.10968(4) 0.46662(6) 0.91088(1)
Cs4 Cs 0.15668(4) 0.98656(7) 0.90507(1)
O1 O 0.4223(6) 0.8257(14) 0.7291(2)
O2 O 0.3697(6) 1.1698(10) 0.84008(19)
O3 O -0.0412(6) 0.1939(11) 0.97403(19)
O4 O 0.1069(5) 0.6259(9) 0.95799(18)
O5 O 0.2263(6) 1.4230(10) 0.8792(2)
O6 O 0.3091(5) 1.0508(9) 0.64119(17)
O7 O 0.1616(4) 0.5113(8) 0.60725(14)
O8 O 0.3502(4) 0.7272(9) 0.90854(15)
O9 O -0.0084(4) 0.7647(7) 0.85730(12)
O10 O 0.5134(4) 0.7559(8) 0.88328(12)
O11 O 0.1455(4) 0.7095(9) 0.82720(13)
O12 O 0.8344(3) 0.8366(7) 0.96236(12)
O13 O 0.1407(4) 0.7631(9) 0.69136(15)
O14 O 0.8174(4) 0.7899(8) 1.02298(12)
O15 O -0.0093(5) 0.7570(9) 0.66290(14)
O16 O 0.4572(6) 0.7356(10) 1.07677(16)
O17 O -0.3539(4) 0.8121(10) 0.73050(13)
O18 O 0.3153(5) 0.7154(10) 1.04304(17)
O19 O -0.3542(3) 0.7381(8) 0.78966(12)
N1 N 0.4134(6) 0.7307(9) 1.04680(18)
N2 N -0.3070(5) 0.7726(10) 0.75999(17)
C1 C 0.4995(5) 0.7532(9) 0.94830(16)
C2 C -0.0137(5) 0.7550(8) 0.79195(15)
C3 C 0.6109(5) 0.7741(8) 0.95225(16)
C4 C 0.0418(5) 0.7546(8) 0.75886(17)
C5 C 0.6583(5) 0.7793(8) 0.98712(16)
C6 C -0.0162(5) 0.7607(8) 0.72653(16)
C7 C 0.5926(5) 0.7638(9) 1.01844(17)
C8 C -0.1281(5) 0.7702(9) 0.72588(17)
C9 C 0.4823(5) 0.7455(9) 1.01357(17)
C10 C -0.1835(5) 0.7682(9) 0.75910(15)
C11 C 0.4349(5) 0.7388(9) 0.97956(18)
C12 C -0.1251(5) 0.7616(9) 0.79207(16)
C13 C 0.4513(5) 0.7443(10) 0.91002(18)
C14 C 0.0461(5) 0.7438(9) 0.82865(17)
C15 C 0.7797(5) 0.8045(9) 0.99080(17)
C16 C 0.0421(5) 0.7599(8) 0.69112(15)
H1 H 0.65400 0.78470 0.93140
H2 H 0.11720 0.75010 0.75860
H3 H 0.62310 0.76570 1.04200
H4 H -0.16580 0.77780 0.70350
H5 H 0.36000 0.72460 0.97720
H6 H -0.16180 0.76150 0.81440
H7 H 0.402(10) 0.950(16) 0.723(3)
H8 H 0.495(10) 0.821(16) 0.730(3)
H9 H 0.327(7) 1.246(15) 0.853(3)
H10 H 0.365(7) 1.214(14) 0.815(3)
H11 H -0.080(6) 0.084(11) 0.970(2)
H12 H 0.029(7) 0.171(14) 0.974(3)
H13 H 0.076(7) 0.682(15) 0.979(3)
H14 H 0.128(6) 0.510(14) 0.963(3)
H15 H 0.212(8) 1.490(16) 0.862(3)
H16 H 0.265(7) 1.502(13) 0.888(2)
H17 H 0.349(8) 1.112(14) 0.630(3)
H18 H 0.302(8) 1.108(14) 0.664(3)
H19 H 0.106(9) 0.440(15) 0.619(3)
H20 H 0.163(9) 0.455(15) 0.585(3)
Cs1A Cs -0.38151(3) 1.21981(8) 0.68708(1)
Cs1_2 Cs -0.61849(3) 0.71981(8) 0.81292(1)
Cs2A Cs 0.63405(4) 1.10793(7) 0.84681(1)
Cs2C Cs 0.36595(4) 0.89207(7) 1.15319(1)
Cs2A_2 Cs -0.36595(4) 1.10793(7) 0.84681(1)
Cs3A Cs 0.10968(4) 0.96662(6) 0.58912(1)
Cs3_2 Cs 0.89032(4) 0.46662(6) 0.91088(1)
Cs3B Cs 0.10968(4) 0.53338(6) 1.08912(1)
Cs4B Cs 0.84332(4) 1.01344(7) 1.09493(1)
O2A O 0.6303(6) 0.6698(10) 0.65992(19)
O6A O -0.3091(5) 0.5508(9) 0.85881(17)
O7A O -0.1616(4) 0.0113(8) 0.89275(14)
O10A O 0.4866(4) 0.2559(8) 0.61672(12)
O12_2 O -0.1656(3) 0.8366(7) 0.96236(12)
O14B O 0.1826(4) 1.2101(8) 0.97702(12)
O15A O 0.0093(5) 0.2570(9) 0.83710(14)
O16C O 0.4572(6) 0.7644(10) 0.57677(16)
O17A O 0.3539(4) 0.3121(10) 0.76950(13)
O18B O -0.3153(5) 0.2846(10) 0.95696(17)
O19_2 O 0.6458(3) 0.7381(8) 0.78966(12)
O19A O 0.3542(3) 0.2381(8) 0.71034(12)
H9A H 0.673(7) 0.746(15) 0.647(3)
H10A H 0.635(7) 0.714(14) 0.685(3)
H17A H -0.349(8) 0.612(14) 0.870(3)
H18A H -0.302(8) 0.608(14) 0.836(3)
H19A H -0.106(9) -0.060(15) 0.881(3)
H20A H -0.163(9) -0.045(15) 0.915(3)
loop_
_geom_bond_atom_site_label_1
_geom_bond_atom_site_label_2
_geom_bond_site_symmetry_1
_geom_bond_site_symmetry_2
Cs1 O1 1_555 1_555
Cs2 O1 1_555 1_555
Cs3 O3 1_555 1_555
Cs4 O4 1_555 1_555
O1 H7 1_555 1_555
O2 Cs1 1_555 1_555
O3 H11 1_555 1_555
O4 Cs3 1_555 1_555
O5 Cs4 1_555 1_555
O6 Cs2 1_555 1_555
O7 Cs2 1_555 1_555
O8 Cs4 1_555 1_555
O9 Cs3 1_555 1_555
O10 Cs1 1_555 1_555
O11 Cs1 1_555 1_555
O12 C15 1_555 1_555
O13 Cs2 1_555 1_555
O14 C15 1_555 1_555
O15 C16 1_555 1_555
O16 N1 1_555 1_555
O17 N2 1_555 1_555
O18 N1 1_555 1_555
O19 N2 1_555 1_555
N1 C9 1_555 1_555
N2 C10 1_555 1_555
C1 C3 1_555 1_555
C2 C4 1_555 1_555
C3 C5 1_555 1_555
C4 C6 1_555 1_555
C5 C7 1_555 1_555
C6 C8 1_555 1_555
C7 C9 1_555 1_555
C8 C10 1_555 1_555
C9 C11 1_555 1_555
C10 C12 1_555 1_555
C11 C1 1_555 1_555
C12 C2 1_555 1_555
C13 O8 1_555 1_555
C14 O9 1_555 1_555
C15 C5 1_555 1_555
C16 O13 1_555 1_555
H1 C3 1_555 1_555
H2 C4 1_555 1_555
H3 C7 1_555 1_555
H4 C8 1_555 1_555
H5 C11 1_555 1_555
H6 C12 1_555 1_555
H8 O1 1_555 1_555
H9 O2 1_555 1_555
H10 O2 1_555 1_555
H12 O3 1_555 1_555
H13 O4 1_555 1_555
H14 O4 1_555 1_555
H15 O5 1_555 1_555
H16 O5 1_555 1_555
H17 O6 1_555 1_555
H18 O6 1_555 1_555
H19 O7 1_555 1_555
H20 O7 1_555 1_555
Cs1A O17 1_555 1_555
Cs1_2 O19 1_555 1_555
Cs2A O2 1_555 1_555
Cs2C O16 1_555 1_555
Cs2A_2 O19 1_555 1_555
Cs3A O6 1_555 1_555
Cs3_2 O12 1_555 1_555
Cs3B O18 1_555 1_555
Cs4B O14 1_555 1_555
O2A Cs2 1_555 1_555
O6A Cs3 1_555 1_555
O7A Cs3 1_555 1_555
O10A Cs2 1_555 1_555
O12_2 Cs3 1_555 1_555
O14B Cs4 1_555 1_555
O15A Cs3 1_555 1_555
O16C Cs2 1_555 1_555
O17A Cs1 1_555 1_555
O18B Cs3 1_555 1_555
O19_2 Cs1 1_555 1_555
O19A Cs2 1_555 1_555
H9A O2A 1_555 1_555
H10A O2A 1_555 1_555
H17A O6A 1_555 1_555
H18A O6A 1_555 1_555
H19A O7A 1_555 1_555
H20A O7A 1_555 1_555
Cs4 O9 1_555 1_555
Cs4 O11 1_555 1_555
O7 Cs3A 1_555 1_555
O10 C13 1_555 1_555
O10 Cs2A 1_555 1_555
O11 C14 1_555 1_555
O15 Cs3A 1_555 1_555
C1 C13 1_555 1_555
C2 C14 1_555 1_555
C6 C16 1_555 1_555
Cs2A O19_2 1_555 1_555

#END
