
#######################################################################
#
#                 Cambridge Crystallographic Data Centre
#                                CCDC 
#
#######################################################################
#
# If this CIF has been generated from an entry in the Cambridge 
# Structural Database, then it will include bibliographic, chemical, 
# crystal, experimental, refinement or atomic coordinate data resulting 
# from the CCDC's data processing and validation procedures.
#
#######################################################################

data_UPONUJ
_symmetry_cell_setting           monoclinic
_symmetry_space_group_name_H-M   'P 21/c'
_symmetry_Int_Tables_number      14
_space_group_name_Hall           '-P 2ybc'
loop_
_symmetry_equiv_pos_site_id
_symmetry_equiv_pos_as_xyz
1 x,y,z
2 -x,1/2+y,1/2-z
3 -x,-y,-z
4 x,1/2-y,1/2+z
_cell_length_a                   10.0067(12)
_cell_length_b                   14.5084(18)
_cell_length_c                   14.0415(14)
_cell_angle_alpha                90
_cell_angle_beta                 114.311(7)
_cell_angle_gamma                90
_cell_volume                     1857.79
loop_
_atom_site_label
_atom_site_type_symbol
_atom_site_fract_x
_atom_site_fract_y
_atom_site_fract_z
Co1 Co 0.70043(5) 0.44793(3) 0.78008(3)
C1 C 0.6693(4) 0.6088(3) 0.9177(3)
H1 H 0.5959 0.5690 0.9228
C2 C 0.7020(4) 0.6893(3) 0.9743(3)
H2 H 0.6515 0.7055 1.0172
C3 C 0.8076(4) 0.7472(3) 0.9690(3)
C4 C 0.8760(4) 0.7217(3) 0.9062(3)
H3 H 0.9495 0.7606 0.9000
C5 C 0.8368(4) 0.6398(3) 0.8519(3)
H4 H 0.8858 0.6226 0.8084
C6 C 0.8481(4) 0.8344(2) 1.0310(3)
C7 C 0.7932(4) 0.9460(2) 1.1230(3)
C8 C 1.0157(4) 0.9430(2) 1.1131(3)
C9 C 1.1699(4) 0.9784(2) 1.1461(3)
C10 C 1.2275(4) 1.0497(3) 1.2170(3)
H5 H 1.1659 1.0827 1.2426
C11 C 1.3740(4) 1.0728(3) 1.2488(3)
H6 H 1.4128 1.1222 1.2980
C12 C 1.4051(4) 0.9636(3) 1.1438(3)
H7 H 1.4672 0.9336 1.1164
C13 C 1.2610(4) 0.9364(3) 1.1081(3)
H8 H 1.2243 0.8881 1.0571
C14 C 0.7807(4) 0.2550(3) 0.7302(3)
H9 H 0.8328 0.2519 0.8048
C15 C 0.8045(4) 0.1877(2) 0.6703(3)
H10 H 0.8741 0.1394 0.7029
C16 C 0.7295(4) 0.1894(2) 0.5627(3)
C17 C 0.6292(4) 0.2596(2) 0.5205(3)
H11 H 0.5724 0.2624 0.4463
C18 C 0.6108(4) 0.3252(2) 0.5852(3)
H12 H 0.5409 0.3736 0.5546
C19 C 0.7600(4) 0.1178(2) 0.4957(3)
N1 N 0.7350(3) 0.5820(2) 0.8570(2)
N2 N 0.7520(3) 0.8679(2) 1.0637(2)
N3 N 0.9806(3) 0.8700(2) 1.0506(2)
N4 N 0.9310(3) 0.9844(2) 1.1524(2)
N5 N 1.4636(3) 1.03057(19) 1.2142(2)
N6 N 0.6862(3) 0.32503(19) 0.6890(2)
O1 O 0.7033(2) 0.98205(17) 1.15206(18)
O2 O 0.6862(3) 0.12608(17) 0.39828(17)
O3 O 0.8532(4) 0.0583(2) 0.5396(2)
O4 O 0.9357(3) 0.42992(17) 0.8383(2)
H13 H 1.0101 0.4683 0.8884
H14 H 0.9475 0.4572 0.7804
Co1C Co 1.70043(5) 1.05207(3) 1.28008(3)
Co1C_2 Co 0.70043(5) 1.05207(3) 1.28008(3)
Co1C_3 Co 0.70043(5) 0.05207(3) 0.28008(3)
N5C N 0.4636(3) 0.46943(19) 0.7142(2)
O1C O 0.7033(2) 0.51795(17) 0.65206(18)
O2C O 0.6862(3) 0.37392(17) 0.89828(17)
loop_
_geom_bond_atom_site_label_1
_geom_bond_atom_site_label_2
_geom_bond_site_symmetry_1
_geom_bond_site_symmetry_2
Co1 N1 1_555 1_555
C1 H1 1_555 1_555
C2 C1 1_555 1_555
H2 C2 1_555 1_555
C3 C2 1_555 1_555
C4 C3 1_555 1_555
H3 C4 1_555 1_555
C5 C4 1_555 1_555
H4 C5 1_555 1_555
C6 C3 1_555 1_555
C7 N2 1_555 1_555
C8 C9 1_555 1_555
C9 C10 1_555 1_555
C10 H5 1_555 1_555
C11 C10 1_555 1_555
H6 C11 1_555 1_555
C12 H7 1_555 1_555
C13 C9 1_555 1_555
H8 C13 1_555 1_555
C14 H9 1_555 1_555
C15 C14 1_555 1_555
H10 C15 1_555 1_555
C16 C15 1_555 1_555
C17 C16 1_555 1_555
H11 C17 1_555 1_555
C18 C17 1_555 1_555
H12 C18 1_555 1_555
C19 C16 1_555 1_555
N1 C1 1_555 1_555
N2 C6 1_555 1_555
N3 C6 1_555 1_555
N4 C7 1_555 1_555
N5 C11 1_555 1_555
N6 Co1 1_555 1_555
O1 C7 1_555 1_555
O2 C19 1_555 1_555
O3 C19 1_555 1_555
O4 Co1 1_555 1_555
H13 O4 1_555 1_555
H14 O4 1_555 1_555
Co1C N5 1_555 1_555
Co1C_2 O1 1_555 1_555
Co1C_3 O2 1_555 1_555
N5C Co1 1_555 1_555
O1C Co1 1_555 1_555
O2C Co1 1_555 1_555
C5 N1 1_555 1_555
C8 N3 1_555 1_555
C8 N4 1_555 1_555
C12 C13 1_555 1_555
C12 N5 1_555 1_555
C14 N6 1_555 1_555
C18 N6 1_555 1_555

#END
