
#######################################################################
#
#                 Cambridge Crystallographic Data Centre
#                                CCDC 
#
#######################################################################
#
# If this CIF has been generated from an entry in the Cambridge 
# Structural Database, then it will include bibliographic, chemical, 
# crystal, experimental, refinement or atomic coordinate data resulting 
# from the CCDC's data processing and validation procedures.
#
#######################################################################

data_UPONOD
_symmetry_cell_setting           monoclinic
_symmetry_space_group_name_H-M   'P 21/c'
_symmetry_Int_Tables_number      14
_space_group_name_Hall           '-P 2ybc'
loop_
_symmetry_equiv_pos_site_id
_symmetry_equiv_pos_as_xyz
1 x,y,z
2 -x,1/2+y,1/2-z
3 -x,-y,-z
4 x,1/2-y,1/2+z
_cell_length_a                   6.793(2)
_cell_length_b                   12.736(4)
_cell_length_c                   17.340(6)
_cell_angle_alpha                90
_cell_angle_beta                 93.437(6)
_cell_angle_gamma                90
_cell_volume                     1497.48
loop_
_atom_site_label
_atom_site_type_symbol
_atom_site_fract_x
_atom_site_fract_y
_atom_site_fract_z
Fe1 Fe 0.0000 1.0000 0.0000
C1 C 0.0225(3) 1.15460(16) 0.14167(11)
H1 H -0.0154 1.2031 0.1035
C2 C 0.0587(3) 1.19035(16) 0.21593(11)
H2 H 0.0459 1.2613 0.2273
C3 C 0.1147(3) 1.11944(15) 0.27373(11)
C4 C 0.1306(3) 1.01461(15) 0.25345(12)
H3 H 0.1675 0.9646 0.2906
C5 C 0.0913(3) 0.98546(15) 0.17766(12)
H4 H 0.1017 0.9148 0.1649
C6 C 0.1528(3) 1.15341(15) 0.35545(11)
C7 C 0.1813(3) 1.28319(15) 0.44559(11)
C8 C 0.2233(3) 1.11133(15) 0.47977(11)
C9 C 0.2643(3) 1.02991(16) 0.53983(12)
C10 C 0.2967(3) 1.05603(16) 0.61705(12)
H5 H 0.2922 1.1258 0.6327
C11 C 0.3359(4) 0.97732(18) 0.67076(13)
H6 H 0.3583 0.9962 0.7224
C12 C 0.3096(3) 0.85136(17) 0.57780(13)
H7 H 0.3117 0.7808 0.5640
C13 C 0.2721(3) 0.92425(16) 0.52034(12)
H8 H 0.2521 0.9031 0.4691
N1 N 0.0387(2) 1.05370(13) 0.12114(9)
N2 N 0.1462(3) 1.25563(13) 0.37026(9)
N3 N 0.1893(2) 1.07717(13) 0.40739(9)
N4 N 0.2229(2) 1.21127(12) 0.50196(9)
N5 N 0.3434(3) 0.87586(15) 0.65243(11)
O1 O 0.1820(2) 1.38012(10) 0.46383(8)
O2 O 0.2565(2) 0.90170(11) 0.01598(8)
H9 H 0.3198 0.8776 -0.0211
H10 H 0.3495 0.9194 0.0520
Fe1A Fe 0.0000 1.5000 0.5000
Fe1A_2 Fe 0.0000 0.5000 -0.5000
C1B C -0.0225(3) 0.84540(16) -0.14167(11)
H1B H 0.0154 0.7969 -0.1035
C2B C -0.0587(3) 0.80965(16) -0.21593(11)
H2B H -0.0459 0.7387 -0.2273
C3B C -0.1147(3) 0.88056(15) -0.27373(11)
C4B C -0.1306(3) 0.98539(15) -0.25345(12)
H3B H -0.1675 1.0354 -0.2906
C5B C -0.0913(3) 1.01454(15) -0.17766(12)
H4B H -0.1017 1.0852 -0.1649
C6B C -0.1528(3) 0.84659(15) -0.35545(11)
C7B C -0.1813(3) 0.71681(15) -0.44559(11)
C8B C -0.2233(3) 0.88867(15) -0.47977(11)
C9B C -0.2643(3) 0.97009(16) -0.53983(12)
C10B C -0.2967(3) 0.94397(16) -0.61705(12)
H5B H -0.2922 0.8742 -0.6327
C11B C -0.3359(4) 1.02268(18) -0.67076(13)
H6B H -0.3583 1.0038 -0.7224
C12B C -0.3096(3) 1.14864(17) -0.57780(13)
H7B H -0.3117 1.2192 -0.5640
C13B C -0.2721(3) 1.07575(16) -0.52034(12)
H8B H -0.2521 1.0969 -0.4691
N1B N -0.0387(2) 0.94630(13) -0.12114(9)
N2B N -0.1462(3) 0.74437(13) -0.37026(9)
N3B N -0.1893(2) 0.92283(13) -0.40739(9)
N4B N -0.2229(2) 0.78873(12) -0.50196(9)
N5B N -0.3434(3) 1.12414(15) -0.65243(11)
O1B O -0.1820(2) 0.61988(10) -0.46383(8)
O1A O -0.1820(2) 0.88012(10) 0.03617(8)
O1C O 0.1820(2) 1.11988(10) -0.03617(8)
O2B O -0.2565(2) 1.09830(11) -0.01598(8)
H9B H -0.3198 1.1224 0.0211
H10B H -0.3495 1.0806 -0.0520
O3 O 0.4759(3) 0.67897(15) 0.39631(10)
H11 H 0.5750 0.7089 0.4219
H12 H 0.4612 0.7159 0.3529
O4 O 0.4150(3) 0.78816(14) 0.25747(10)
H13 H 0.3919 0.7342 0.2297
H14 H 0.4614 0.8425 0.2353
O5 O -0.4681(2) 0.95834(15) 0.13298(10)
H15 H -0.3651 0.9370 0.1103
H16 H -0.4822 1.0260 0.1295
loop_
_geom_bond_atom_site_label_1
_geom_bond_atom_site_label_2
_geom_bond_site_symmetry_1
_geom_bond_site_symmetry_2
Fe1 N1 1_555 1_555
C1 H1 1_555 1_555
C2 C1 1_555 1_555
H2 C2 1_555 1_555
C3 C2 1_555 1_555
C4 C3 1_555 1_555
H3 C4 1_555 1_555
C5 C4 1_555 1_555
H4 C5 1_555 1_555
C6 C3 1_555 1_555
C7 N2 1_555 1_555
C8 C9 1_555 1_555
C9 C10 1_555 1_555
C10 H5 1_555 1_555
C11 C10 1_555 1_555
H6 C11 1_555 1_555
C12 H7 1_555 1_555
C13 C9 1_555 1_555
H8 C13 1_555 1_555
N1 C1 1_555 1_555
N2 C6 1_555 1_555
N3 C6 1_555 1_555
N4 C7 1_555 1_555
N5 C11 1_555 1_555
O1 C7 1_555 1_555
O2 Fe1 1_555 1_555
H9 O2 1_555 1_555
H10 O2 1_555 1_555
O3 H11 1_555 1_555
H12 O3 1_555 1_555
O4 H13 1_555 1_555
H14 O4 1_555 1_555
O5 H15 1_555 1_555
H16 O5 1_555 1_555
Fe1A O1 1_555 1_555
Fe1A_2 O1B 1_555 1_555
C1B H1B 1_555 1_555
C2B C1B 1_555 1_555
H2B C2B 1_555 1_555
C3B C2B 1_555 1_555
C4B C3B 1_555 1_555
H3B C4B 1_555 1_555
C5B C4B 1_555 1_555
H4B C5B 1_555 1_555
C6B C3B 1_555 1_555
C7B N2B 1_555 1_555
C8B C9B 1_555 1_555
C9B C10B 1_555 1_555
C10B H5B 1_555 1_555
C11B C10B 1_555 1_555
H6B C11B 1_555 1_555
C12B H7B 1_555 1_555
C13B C9B 1_555 1_555
H8B C13B 1_555 1_555
N1B Fe1 1_555 1_555
N2B C6B 1_555 1_555
N3B C6B 1_555 1_555
N4B C7B 1_555 1_555
N5B C11B 1_555 1_555
O1B C7B 1_555 1_555
O1A Fe1 1_555 1_555
O1C Fe1 1_555 1_555
O2B Fe1 1_555 1_555
H9B O2B 1_555 1_555
H10B O2B 1_555 1_555
C5 N1 1_555 1_555
C8 N3 1_555 1_555
C8 N4 1_555 1_555
C12 C13 1_555 1_555
C12 N5 1_555 1_555
C1B N1B 1_555 1_555
C5B N1B 1_555 1_555
C8B N3B 1_555 1_555
C8B N4B 1_555 1_555
C12B C13B 1_555 1_555
C12B N5B 1_555 1_555

#END
