
#######################################################################
#
#                 Cambridge Crystallographic Data Centre
#                                CCDC 
#
#######################################################################
#
# If this CIF has been generated from an entry in the Cambridge 
# Structural Database, then it will include bibliographic, chemical, 
# crystal, experimental, refinement or atomic coordinate data resulting 
# from the CCDC's data processing and validation procedures.
#
#######################################################################

data_UPOPUL
_symmetry_cell_setting           monoclinic
_symmetry_space_group_name_H-M   'P 21/n'
_symmetry_Int_Tables_number      14
_space_group_name_Hall           '-P 2yn'
loop_
_symmetry_equiv_pos_site_id
_symmetry_equiv_pos_as_xyz
1 x,y,z
2 1/2-x,1/2+y,1/2-z
3 -x,-y,-z
4 1/2+x,1/2-y,1/2+z
_cell_length_a                   8.6369(7)
_cell_length_b                   16.9044(14)
_cell_length_c                   13.1088(10)
_cell_angle_alpha                90
_cell_angle_beta                 92.608(1)
_cell_angle_gamma                90
_cell_volume                     1911.92
loop_
_atom_site_label
_atom_site_type_symbol
_atom_site_fract_x
_atom_site_fract_y
_atom_site_fract_z
C20 C 1.4606(15) 0.0543(8) 1.0782(10)
O5 O 1.5000 0.0000 1.0000
C20B C 1.5394(15) -0.0543(8) 0.9218(10)
Ni1 Ni 0.99209(3) -0.025205(15) 0.76543(2)
C1 C 0.7859(3) -0.16053(15) 0.81820(17)
H1 H 0.7966 -0.1362 0.8817
C2 C 0.7030(4) -0.23049(16) 0.81012(19)
H2 H 0.6606 -0.2528 0.8673
C3 C 0.6844(3) -0.26653(14) 0.71621(18)
H3 H 0.6307 -0.3141 0.7092
C4 C 0.7466(3) -0.23097(12) 0.63246(16)
C5 C 0.8297(3) -0.16108(13) 0.64799(16)
H4 H 0.8725 -0.1373 0.5918
C6 C 0.7204(3) -0.26288(13) 0.52700(16)
C7 C 0.6315(3) -0.35939(12) 0.41804(16)
C8 C 0.7157(3) -0.24135(13) 0.35873(17)
C9 C 0.7494(3) -0.19056(13) 0.26996(17)
C10 C 0.7002(5) -0.21250(19) 0.1719(2)
H5 H 0.6432 -0.2586 0.1604
C11 C 0.7379(6) -0.1644(2) 0.0921(2)
H6 H 0.7037 -0.1771 0.0258
C12 C 0.8259(4) -0.09788(16) 0.11007(19)
H7 H 0.8530 -0.0670 0.0550
C13 C 0.8339(3) -0.12229(13) 0.28167(17)
H8 H 0.8657 -0.1070 0.3475
C14 C 1.3189(3) -0.07266(14) 0.70517(18)
H9 H 1.3373 -0.0718 0.7756
C15 C 1.4413(3) -0.08605(16) 0.6447(2)
H10 H 1.5394 -0.0956 0.6744
C16 C 1.4194(3) -0.08544(16) 0.53966(19)
H11 H 1.5013 -0.0952 0.4978
C17 C 1.2716(3) -0.06994(13) 0.49840(17)
C18 C 1.1541(3) -0.05976(12) 0.56590(16)
H12 H 1.0542 -0.0517 0.5384
C19 C 1.2386(3) -0.05737(13) 0.38534(17)
N1 N 0.8512(2) -0.12635(10) 0.73884(13)
N2 N 0.6650(2) -0.33567(10) 0.51674(13)
N3 N 0.7525(2) -0.21288(11) 0.45192(14)
N4 N 0.6536(2) -0.31087(11) 0.33721(14)
N5 N 0.8735(2) -0.07621(11) 0.20380(14)
N6 N 1.1740(2) -0.06072(11) 0.66763(14)
O1 O 0.8072(2) 0.02161(10) 0.84977(14)
H13 H 0.756(4) 0.0388(18) 0.805(3)
H14 H 0.828(4) 0.0506(19) 0.894(3)
O2 O 0.57894(19) -0.42827(8) 0.40266(11)
O3 O 1.10647(19) -0.02790(9) 0.36270(12)
O4 O 1.3389(2) -0.07356(13) 0.32455(13)
Ni1B Ni 1.00791(3) 0.025205(15) 0.23457(2)
Ni1C Ni 0.49209(3) -0.474795(15) 0.26543(2)
Ni1A Ni 1.50791(3) 0.474795(15) 0.73457(2)
C1B C 1.2141(3) 0.16053(15) 0.18180(17)
H1B H 1.2034 0.1362 0.1183
C2B C 1.2970(4) 0.23049(16) 0.18988(19)
H2B H 1.3394 0.2528 0.1327
C3B C 1.3156(3) 0.26653(14) 0.28379(18)
H3B H 1.3693 0.3141 0.2908
C4B C 1.2534(3) 0.23097(12) 0.36754(16)
C5B C 1.1703(3) 0.16108(13) 0.35201(16)
H4B H 1.1275 0.1373 0.4082
C6B C 1.2796(3) 0.26288(13) 0.47300(16)
C7B C 1.3685(3) 0.35939(12) 0.58196(16)
C8B C 1.2843(3) 0.24135(13) 0.64127(17)
C9B C 1.2506(3) 0.19056(13) 0.73004(17)
C10B C 1.2998(5) 0.21250(19) 0.8281(2)
H5B H 1.3568 0.2586 0.8396
C11B C 1.2621(6) 0.1644(2) 0.9079(2)
H6B H 1.2963 0.1771 0.9742
C12B C 1.1741(4) 0.09788(16) 0.88993(19)
H7B H 1.1470 0.0670 0.9450
C13B C 1.1661(3) 0.12229(13) 0.71833(17)
H8B H 1.1343 0.1070 0.6525
C14B C 0.6811(3) 0.07266(14) 0.29483(18)
H9B H 0.6627 0.0718 0.2244
C15B C 0.5587(3) 0.08605(16) 0.3553(2)
H10B H 0.4606 0.0956 0.3256
C16B C 0.5806(3) 0.08544(16) 0.46034(19)
H11B H 0.4987 0.0952 0.5022
C17B C 0.7284(3) 0.06994(13) 0.50160(17)
C18B C 0.8459(3) 0.05976(12) 0.43410(16)
H12B H 0.9458 0.0517 0.4616
C19B C 0.7614(3) 0.05737(13) 0.61466(17)
N1B N 1.1488(2) 0.12635(10) 0.26116(13)
N2B N 1.3350(2) 0.33567(10) 0.48326(13)
N3B N 1.2475(2) 0.21288(11) 0.54808(14)
N4B N 1.3464(2) 0.31087(11) 0.66279(14)
N5B N 1.1265(2) 0.07621(11) 0.79620(14)
N6B N 0.8260(2) 0.06072(11) 0.33237(14)
O1B O 1.1928(2) -0.02161(10) 0.15023(14)
H13B H 1.244(4) -0.0388(18) 0.195(3)
H14B H 1.172(4) -0.0506(19) 0.106(3)
O2B O 1.42106(19) 0.42827(8) 0.59734(11)
O2C O 1.07894(19) -0.07173(8) 0.90266(11)
O2A O 0.92106(19) 0.07173(8) 0.09734(11)
O3B O 0.89353(19) 0.02790(9) 0.63730(12)
O4B O 0.6611(2) 0.07356(13) 0.67545(13)
loop_
_geom_bond_atom_site_label_1
_geom_bond_atom_site_label_2
_geom_bond_site_symmetry_1
_geom_bond_site_symmetry_2
Ni1 N1 1_555 1_555
C1 H1 1_555 1_555
C2 C1 1_555 1_555
H2 C2 1_555 1_555
C3 C2 1_555 1_555
H3 C3 1_555 1_555
C4 C3 1_555 1_555
C5 C4 1_555 1_555
H4 C5 1_555 1_555
C6 C4 1_555 1_555
C7 N2 1_555 1_555
C8 C9 1_555 1_555
C9 C10 1_555 1_555
C10 H5 1_555 1_555
C11 C10 1_555 1_555
H6 C11 1_555 1_555
C12 C11 1_555 1_555
H7 C12 1_555 1_555
C13 C9 1_555 1_555
H8 C13 1_555 1_555
C14 H9 1_555 1_555
C15 C14 1_555 1_555
H10 C15 1_555 1_555
C16 C15 1_555 1_555
H11 C16 1_555 1_555
C17 C16 1_555 1_555
C18 C17 1_555 1_555
H12 C18 1_555 1_555
C19 C17 1_555 1_555
N1 C1 1_555 1_555
N2 C6 1_555 1_555
N3 C6 1_555 1_555
N4 C7 1_555 1_555
N5 C12 1_555 1_555
N6 Ni1 1_555 1_555
O1 Ni1 1_555 1_555
H13 O1 1_555 1_555
H14 O1 1_555 1_555
O2 C7 1_555 1_555
O3 C19 1_555 1_555
O4 C19 1_555 1_555
C20 O5 1_555 1_555
O5 C20B 1_555 1_555
Ni1B N5 1_555 1_555
Ni1C O2 1_555 1_555
Ni1A O2B 1_555 1_555
C1B H1B 1_555 1_555
C2B C1B 1_555 1_555
H2B C2B 1_555 1_555
C3B C2B 1_555 1_555
H3B C3B 1_555 1_555
C4B C3B 1_555 1_555
C5B C4B 1_555 1_555
H4B C5B 1_555 1_555
C6B C4B 1_555 1_555
C7B N2B 1_555 1_555
C8B C9B 1_555 1_555
C9B C10B 1_555 1_555
C10B H5B 1_555 1_555
C11B C10B 1_555 1_555
H6B C11B 1_555 1_555
C12B C11B 1_555 1_555
H7B C12B 1_555 1_555
C13B C9B 1_555 1_555
H8B C13B 1_555 1_555
C14B H9B 1_555 1_555
C15B C14B 1_555 1_555
H10B C15B 1_555 1_555
C16B C15B 1_555 1_555
H11B C16B 1_555 1_555
C17B C16B 1_555 1_555
C18B C17B 1_555 1_555
H12B C18B 1_555 1_555
C19B C17B 1_555 1_555
N1B Ni1B 1_555 1_555
N2B C6B 1_555 1_555
N3B C6B 1_555 1_555
N4B C7B 1_555 1_555
N5B Ni1 1_555 1_555
N6B Ni1B 1_555 1_555
O1B Ni1B 1_555 1_555
H13B O1B 1_555 1_555
H14B O1B 1_555 1_555
O2B C7B 1_555 1_555
O2C Ni1 1_555 1_555
O2A Ni1B 1_555 1_555
O3B Ni1 1_555 1_555
O4B C19B 1_555 1_555
C5 N1 1_555 1_555
C8 N3 1_555 1_555
C8 N4 1_555 1_555
C13 N5 1_555 1_555
C14 N6 1_555 1_555
C18 N6 1_555 1_555
O3 Ni1B 1_555 1_555
C1B N1B 1_555 1_555
C5B N1B 1_555 1_555
C8B N3B 1_555 1_555
C8B N4B 1_555 1_555
C12B N5B 1_555 1_555
C13B N5B 1_555 1_555
C14B N6B 1_555 1_555
C18B N6B 1_555 1_555
C19B O3B 1_555 1_555

#END
