
#######################################################################
#
#                 Cambridge Crystallographic Data Centre
#                                CCDC 
#
#######################################################################
#
# If this CIF has been generated from an entry in the Cambridge 
# Structural Database, then it will include bibliographic, chemical, 
# crystal, experimental, refinement or atomic coordinate data resulting 
# from the CCDC's data processing and validation procedures.
#
#######################################################################

data_UPOPOF
_symmetry_cell_setting           monoclinic
_symmetry_space_group_name_H-M   'P 21/n'
_symmetry_Int_Tables_number      14
_space_group_name_Hall           '-P 2yn'
loop_
_symmetry_equiv_pos_site_id
_symmetry_equiv_pos_as_xyz
1 x,y,z
2 1/2-x,1/2+y,1/2-z
3 -x,-y,-z
4 1/2+x,1/2-y,1/2+z
_cell_length_a                   8.694(2)
_cell_length_b                   16.956(5)
_cell_length_c                   13.172(4)
_cell_angle_alpha                90
_cell_angle_beta                 92.306(4)
_cell_angle_gamma                90
_cell_volume                     1940.18
loop_
_atom_site_label
_atom_site_type_symbol
_atom_site_fract_x
_atom_site_fract_y
_atom_site_fract_z
C20 C 1.4594(14) 0.0557(8) 1.0791(9)
O5 O 1.5000 0.0000 1.0000
C20B C 1.5406(14) -0.0557(8) 0.9209(9)
Co1 Co 0.99358(3) -0.025808(15) 0.76646(2)
C1 C 0.7826(3) -0.16264(15) 0.81662(17)
H1 H 0.7933 -0.1388 0.8801
C2 C 0.6993(4) -0.23194(16) 0.80821(18)
H2 H 0.6562 -0.2542 0.8650
C3 C 0.6810(3) -0.26758(15) 0.71437(18)
H3 H 0.6268 -0.3147 0.7071
C4 C 0.7444(3) -0.23212(13) 0.63147(16)
C5 C 0.8271(3) -0.16265(13) 0.64751(16)
H4 H 0.8700 -0.1388 0.5917
C6 C 0.7190(3) -0.26345(13) 0.52676(16)
C7 C 0.6316(3) -0.36017(12) 0.41894(16)
C8 C 0.7143(3) -0.24294(13) 0.35876(16)
C9 C 0.7471(3) -0.19233(13) 0.27018(16)
C10 C 0.6979(5) -0.21433(19) 0.1725(2)
H5 H 0.6406 -0.2601 0.1615
C11 C 0.7356(6) -0.1672(2) 0.0929(2)
H6 H 0.7034 -0.1808 0.0270
C12 C 0.8207(4) -0.10000(17) 0.10980(19)
H7 H 0.8464 -0.0692 0.0546
C13 C 0.8296(3) -0.12371(13) 0.28086(17)
H8 H 0.8611 -0.1081 0.3461
C14 C 1.3223(3) -0.07251(15) 0.70079(18)
H9 H 1.3415 -0.0717 0.7708
C15 C 1.4428(3) -0.08637(16) 0.6390(2)
H10 H 1.5404 -0.0964 0.6675
C16 C 1.4196(3) -0.08543(16) 0.5347(2)
H11 H 1.5002 -0.0952 0.4921
C17 C 1.2722(3) -0.06944(12) 0.49501(17)
C18 C 1.1565(3) -0.05907(12) 0.56342(16)
H12 H 1.0570 -0.0508 0.5370
C19 C 1.2385(3) -0.05733(14) 0.38282(17)
N1 N 0.8484(2) -0.12820(10) 0.73807(14)
N2 N 0.6642(2) -0.33617(10) 0.51649(13)
N3 N 0.7498(2) -0.21378(11) 0.45072(13)
N4 N 0.6541(3) -0.31238(11) 0.33803(13)
N5 N 0.8677(2) -0.07761(11) 0.20269(14)
N6 N 1.1776(2) -0.06004(11) 0.66432(14)
O1 O 0.8058(2) 0.02228(10) 0.85121(14)
H13 H 0.752(4) 0.0427(18) 0.803(3)
H14 H 0.822(4) 0.0515(19) 0.896(3)
O2 O 0.5785(2) -0.42870(8) 0.40419(11)
O3 O 1.1067(2) -0.02885(9) 0.36032(12)
O4 O 1.3389(2) -0.07290(13) 0.32224(13)
Co1B Co 1.00642(3) 0.025808(15) 0.23354(2)
Co1C Co 0.49358(3) -0.474192(15) 0.26646(2)
Co1A Co 1.50642(3) 0.474192(15) 0.73354(2)
C1B C 1.2174(3) 0.16264(15) 0.18338(17)
H1B H 1.2067 0.1388 0.1199
C2B C 1.3007(4) 0.23194(16) 0.19179(18)
H2B H 1.3438 0.2542 0.1350
C3B C 1.3190(3) 0.26758(15) 0.28563(18)
H3B H 1.3732 0.3147 0.2929
C4B C 1.2556(3) 0.23212(13) 0.36853(16)
C5B C 1.1729(3) 0.16265(13) 0.35249(16)
H4B H 1.1300 0.1388 0.4083
C6B C 1.2810(3) 0.26345(13) 0.47324(16)
C7B C 1.3684(3) 0.36017(12) 0.58106(16)
C8B C 1.2857(3) 0.24294(13) 0.64124(16)
C9B C 1.2529(3) 0.19233(13) 0.72982(16)
C10B C 1.3021(5) 0.21433(19) 0.8275(2)
H5B H 1.3594 0.2601 0.8385
C11B C 1.2644(6) 0.1672(2) 0.9071(2)
H6B H 1.2966 0.1808 0.9730
C12B C 1.1793(4) 0.10000(17) 0.89020(19)
H7B H 1.1536 0.0692 0.9454
C13B C 1.1704(3) 0.12371(13) 0.71914(17)
H8B H 1.1389 0.1081 0.6539
C14B C 0.6777(3) 0.07251(15) 0.29921(18)
H9B H 0.6585 0.0717 0.2292
C15B C 0.5572(3) 0.08637(16) 0.3610(2)
H10B H 0.4596 0.0964 0.3325
C16B C 0.5804(3) 0.08543(16) 0.4653(2)
H11B H 0.4998 0.0952 0.5079
C17B C 0.7278(3) 0.06944(12) 0.50499(17)
C18B C 0.8435(3) 0.05907(12) 0.43658(16)
H12B H 0.9430 0.0508 0.4630
C19B C 0.7615(3) 0.05733(14) 0.61718(17)
N1B N 1.1516(2) 0.12820(10) 0.26193(14)
N2B N 1.3358(2) 0.33617(10) 0.48351(13)
N3B N 1.2502(2) 0.21378(11) 0.54928(13)
N4B N 1.3459(3) 0.31238(11) 0.66197(13)
N5B N 1.1323(2) 0.07761(11) 0.79731(14)
N6B N 0.8224(2) 0.06004(11) 0.33568(14)
O1B O 1.1942(2) -0.02228(10) 0.14879(14)
H13B H 1.248(4) -0.0427(18) 0.197(3)
H14B H 1.178(4) -0.0515(19) 0.104(3)
O2B O 1.4215(2) 0.42870(8) 0.59581(11)
O2C O 1.0785(2) -0.07130(8) 0.90419(11)
O2A O 0.9215(2) 0.07130(8) 0.09581(11)
O3B O 0.8933(2) 0.02885(9) 0.63968(12)
O4B O 0.6611(2) 0.07290(13) 0.67776(13)
loop_
_geom_bond_atom_site_label_1
_geom_bond_atom_site_label_2
_geom_bond_site_symmetry_1
_geom_bond_site_symmetry_2
Co1 N1 1_555 1_555
C1 H1 1_555 1_555
C2 C1 1_555 1_555
H2 C2 1_555 1_555
C3 C2 1_555 1_555
H3 C3 1_555 1_555
C4 C3 1_555 1_555
C5 C4 1_555 1_555
H4 C5 1_555 1_555
C6 C4 1_555 1_555
C7 N2 1_555 1_555
C8 C9 1_555 1_555
C9 C10 1_555 1_555
C10 H5 1_555 1_555
C11 C10 1_555 1_555
H6 C11 1_555 1_555
C12 C11 1_555 1_555
H7 C12 1_555 1_555
C13 C9 1_555 1_555
H8 C13 1_555 1_555
C14 H9 1_555 1_555
C15 C14 1_555 1_555
H10 C15 1_555 1_555
C16 C15 1_555 1_555
H11 C16 1_555 1_555
C17 C16 1_555 1_555
C18 C17 1_555 1_555
H12 C18 1_555 1_555
C19 C17 1_555 1_555
N1 C1 1_555 1_555
N2 C6 1_555 1_555
N3 C6 1_555 1_555
N4 C7 1_555 1_555
N5 C12 1_555 1_555
N6 Co1 1_555 1_555
O1 Co1 1_555 1_555
H13 O1 1_555 1_555
H14 O1 1_555 1_555
O2 C7 1_555 1_555
O3 C19 1_555 1_555
O4 C19 1_555 1_555
C20 O5 1_555 1_555
O5 C20B 1_555 1_555
Co1B N5 1_555 1_555
Co1C O2 1_555 1_555
Co1A O2B 1_555 1_555
C1B H1B 1_555 1_555
C2B C1B 1_555 1_555
H2B C2B 1_555 1_555
C3B C2B 1_555 1_555
H3B C3B 1_555 1_555
C4B C3B 1_555 1_555
C5B C4B 1_555 1_555
H4B C5B 1_555 1_555
C6B C4B 1_555 1_555
C7B N2B 1_555 1_555
C8B C9B 1_555 1_555
C9B C10B 1_555 1_555
C10B H5B 1_555 1_555
C11B C10B 1_555 1_555
H6B C11B 1_555 1_555
C12B C11B 1_555 1_555
H7B C12B 1_555 1_555
C13B C9B 1_555 1_555
H8B C13B 1_555 1_555
C14B H9B 1_555 1_555
C15B C14B 1_555 1_555
H10B C15B 1_555 1_555
C16B C15B 1_555 1_555
H11B C16B 1_555 1_555
C17B C16B 1_555 1_555
C18B C17B 1_555 1_555
H12B C18B 1_555 1_555
C19B C17B 1_555 1_555
N1B Co1B 1_555 1_555
N2B C6B 1_555 1_555
N3B C6B 1_555 1_555
N4B C7B 1_555 1_555
N5B Co1 1_555 1_555
N6B Co1B 1_555 1_555
O1B Co1B 1_555 1_555
H13B O1B 1_555 1_555
H14B O1B 1_555 1_555
O2B C7B 1_555 1_555
O2C Co1 1_555 1_555
O2A Co1B 1_555 1_555
O3B Co1 1_555 1_555
O4B C19B 1_555 1_555
C5 N1 1_555 1_555
C8 N3 1_555 1_555
C8 N4 1_555 1_555
C13 N5 1_555 1_555
C14 N6 1_555 1_555
C18 N6 1_555 1_555
O3 Co1B 1_555 1_555
C1B N1B 1_555 1_555
C5B N1B 1_555 1_555
C8B N3B 1_555 1_555
C8B N4B 1_555 1_555
C12B N5B 1_555 1_555
C13B N5B 1_555 1_555
C14B N6B 1_555 1_555
C18B N6B 1_555 1_555
C19B O3B 1_555 1_555

#END
