
#######################################################################
#
#                 Cambridge Crystallographic Data Centre
#                                CCDC 
#
#######################################################################
#
# If this CIF has been generated from an entry in the Cambridge 
# Structural Database, then it will include bibliographic, chemical, 
# crystal, experimental, refinement or atomic coordinate data resulting 
# from the CCDC's data processing and validation procedures.
#
#######################################################################

data_UPOPAR
_symmetry_cell_setting           monoclinic
_symmetry_space_group_name_H-M   'P 21/c'
_symmetry_Int_Tables_number      14
_space_group_name_Hall           '-P 2ybc'
loop_
_symmetry_equiv_pos_site_id
_symmetry_equiv_pos_as_xyz
1 x,y,z
2 -x,1/2+y,1/2-z
3 -x,-y,-z
4 x,1/2-y,1/2+z
_cell_length_a                   10.0488(11)
_cell_length_b                   14.6598(16)
_cell_length_c                   13.4856(15)
_cell_angle_alpha                90
_cell_angle_beta                 108.268(2)
_cell_angle_gamma                90
_cell_volume                     1886.49
loop_
_atom_site_label
_atom_site_type_symbol
_atom_site_fract_x
_atom_site_fract_y
_atom_site_fract_z
Fe1 Fe 0.70041(3) -0.551440(19) -0.21909(2)
C1 C -0.3314(3) -0.11202(17) -0.5824(2)
H1 H -0.4048 -0.0722 -0.5773
C2 C -0.2998(3) -0.19180(17) -0.5262(2)
H2 H -0.3503 -0.2080 -0.4834
C3 C -0.1929(2) -0.24953(15) -0.53044(17)
C4 C -0.1238(3) -0.22334(17) -0.5926(2)
H3 H -0.0502 -0.2623 -0.5988
C5 C -0.1625(3) -0.14233(18) -0.6466(2)
H4 H -0.1135 -0.1251 -0.6901
C6 C -0.1529(2) -0.33542(15) -0.46869(17)
C7 C -0.2067(2) -0.44605(14) -0.37709(16)
C8 C 0.0142(2) -0.44292(14) -0.38725(16)
C9 C 0.1669(2) -0.47772(16) -0.35422(16)
C10 C 0.2254(3) -0.54778(17) -0.2835(2)
H5 H 0.1639 -0.5808 -0.2579
C11 C 0.3708(3) -0.57113(17) -0.2518(2)
H6 H 0.4097 -0.6205 -0.2025
C12 C 0.4024(2) -0.46358(18) -0.35648(19)
H7 H 0.4645 -0.4335 -0.3838
C13 C 0.2584(3) -0.43639(18) -0.3931(2)
H8 H 0.2216 -0.3881 -0.4441
C14 C 0.7821(3) -0.74498(17) -0.27015(17)
H9 H 0.8342 -0.7481 -0.1956
C15 C 0.8053(3) -0.81261(16) -0.32994(17)
H10 H 0.8748 -0.8608 -0.2973
C16 C 0.7310(2) -0.81092(15) -0.43720(16)
C17 C 0.6316(2) -0.74052(16) -0.48056(17)
H11 H 0.5748 -0.7377 -0.5547
C18 C 0.6139(2) -0.67561(15) -0.41565(17)
H12 H 0.5440 -0.6272 -0.4463
C19 C 0.7600(2) -0.88265(16) -0.50366(17)
N1 N -0.2646(2) -0.08558(13) -0.64264(15)
N2 N -0.24869(19) -0.36900(13) -0.43629(15)
N3 N -0.02080(19) -0.37041(13) -0.44953(14)
N4 N -0.07024(18) -0.48363(13) -0.34820(13)
N5 N 0.46050(19) -0.52927(13) -0.28576(14)
N6 N 0.68852(19) -0.67573(12) -0.31197(14)
O1 O -0.29589(15) -0.48195(11) -0.34666(11)
O2 O 0.68697(17) -0.87443(11) -0.60153(11)
O3 O 0.8501(2) -0.94222(13) -0.45959(15)
O4 O 0.94023(17) -0.56944(11) -0.16091(13)
H13 H 1.0042 -0.5364 -0.1178
H14 H 0.9521 -0.5421 -0.2188
Fe1_2 Fe -0.29959(3) -0.551440(19) -0.21909(2)
Fe1C Fe 0.70041(3) -0.948560(19) -0.71909(2)
Fe1C_2 Fe -0.29959(3) 0.051440(19) -0.71909(2)
N1C N 0.7354(2) -0.41442(13) -0.14264(15)
O1_2 O 0.70411(15) -0.48195(11) -0.34666(11)
O2C O 0.68697(17) -0.62557(11) -0.10153(11)
loop_
_geom_bond_atom_site_label_1
_geom_bond_atom_site_label_2
_geom_bond_site_symmetry_1
_geom_bond_site_symmetry_2
Fe1 N5 1_555 1_555
C1 H1 1_555 1_555
C2 C1 1_555 1_555
H2 C2 1_555 1_555
C3 C2 1_555 1_555
C4 C3 1_555 1_555
H3 C4 1_555 1_555
C5 C4 1_555 1_555
H4 C5 1_555 1_555
C6 C3 1_555 1_555
C7 N2 1_555 1_555
C8 C9 1_555 1_555
C9 C10 1_555 1_555
C10 H5 1_555 1_555
C11 C10 1_555 1_555
H6 C11 1_555 1_555
C12 H7 1_555 1_555
C13 C9 1_555 1_555
H8 C13 1_555 1_555
C14 H9 1_555 1_555
C15 C14 1_555 1_555
H10 C15 1_555 1_555
C16 C15 1_555 1_555
C17 C16 1_555 1_555
H11 C17 1_555 1_555
C18 C17 1_555 1_555
H12 C18 1_555 1_555
C19 C16 1_555 1_555
N1 C1 1_555 1_555
N2 C6 1_555 1_555
N3 C6 1_555 1_555
N4 C7 1_555 1_555
N5 C11 1_555 1_555
N6 Fe1 1_555 1_555
O1 C7 1_555 1_555
O2 C19 1_555 1_555
O3 C19 1_555 1_555
O4 Fe1 1_555 1_555
H13 O4 1_555 1_555
H14 O4 1_555 1_555
Fe1_2 O1 1_555 1_555
Fe1C O2 1_555 1_555
Fe1C_2 N1 1_555 1_555
N1C Fe1 1_555 1_555
O1_2 Fe1 1_555 1_555
O2C Fe1 1_555 1_555
C5 N1 1_555 1_555
C8 N3 1_555 1_555
C8 N4 1_555 1_555
C12 C13 1_555 1_555
C12 N5 1_555 1_555
C14 N6 1_555 1_555
C18 N6 1_555 1_555

#END
