
#######################################################################
#
#                 Cambridge Crystallographic Data Centre
#                                CCDC 
#
#######################################################################
#
# If this CIF has been generated from an entry in the Cambridge 
# Structural Database, then it will include bibliographic, chemical, 
# crystal, experimental, refinement or atomic coordinate data resulting 
# from the CCDC's data processing and validation procedures.
#
#######################################################################

data_UPOPIZ
_symmetry_cell_setting           monoclinic
_symmetry_space_group_name_H-M   'C 2/c'
_symmetry_Int_Tables_number      15
_space_group_name_Hall           '-C 2yn'
loop_
_symmetry_equiv_pos_site_id
_symmetry_equiv_pos_as_xyz
1 x,y,z
2 -x,y,1/2-z
3 1/2+x,1/2+y,z
4 1/2-x,1/2+y,1/2-z
5 -x,-y,-z
6 x,-y,1/2+z
7 1/2-x,1/2-y,-z
8 1/2+x,1/2-y,1/2+z
_cell_length_a                   20.746(5)
_cell_length_b                   13.754(3)
_cell_length_c                   11.421(3)
_cell_angle_alpha                90
_cell_angle_beta                 121.044(4)
_cell_angle_gamma                90
_cell_volume                     2792.11
loop_
_atom_site_label
_atom_site_type_symbol
_atom_site_fract_x
_atom_site_fract_y
_atom_site_fract_z
Co1 Co 0.5000 -0.08282(6) 1.2500
O1 O 0.43956(19) 0.0198(2) 1.2946(3)
O2 O 0.4100(2) -0.0766(2) 1.0430(3)
H1 H 0.3998 -0.1034 0.9683
H2 H 0.4036 -0.0154 1.0388
N1 N 0.4446(2) 0.1910(3) 0.8028(4)
N2 N 0.4095(2) 0.1176(3) 1.1139(4)
N3 N 0.3572(3) 0.2716(3) 1.1067(4)
N4 N 0.3815(2) 0.1609(3) 1.2849(4)
N5 N 0.2658(4) 0.3491(5) 1.4048(6)
C1 C 0.4127(3) 0.2702(4) 0.7299(5)
H3 H 0.4189 0.2840 0.6566
C2 C 0.3701(4) 0.3340(4) 0.7577(6)
H4 H 0.3486 0.3891 0.7043
C3 C 0.3606(3) 0.3138(4) 0.8659(6)
H5 H 0.3326 0.3552 0.8869
C4 C 0.3934(3) 0.2310(3) 0.9431(5)
C5 C 0.4350(3) 0.1723(3) 0.9083(5)
H6 H 0.4574 0.1169 0.9605
C6 C 0.3855(3) 0.2052(3) 1.0610(5)
C7 C 0.4113(3) 0.0975(3) 1.2334(5)
C8 C 0.3537(3) 0.2432(3) 1.2154(5)
C9 C 0.3152(3) 0.3117(3) 1.2611(5)
C10 C 0.2878(4) 0.3988(4) 1.1974(6)
H7 H 0.2939 0.4156 1.1249
C11 C 0.2520(4) 0.4615(4) 1.2363(6)
H8 H 0.2346 0.5213 1.1932
C12 C 0.2425(4) 0.4342(5) 1.3400(7)
H9 H 0.2183 0.4771 1.3678
C13 C 0.3030(3) 0.2869(4) 1.3660(6)
H10 H 0.3203 0.2276 1.4104
Co1D Co 0.5000 0.08282(6) 0.7500
Co1D_2 Co 0.5000 0.08282(6) 1.7500
O1A O 0.56044(19) 0.0198(2) 1.2054(3)
O2A O 0.5900(2) -0.0766(2) 1.4570(3)
H1A H 0.6002 -0.1034 1.5317
H2A H 0.5964 -0.0154 1.4612
N1A N 0.5554(2) 0.1910(3) 1.6972(4)
N1D N 0.5554(2) -0.1910(3) 1.1972(4)
N1E N 0.4446(2) -0.1910(3) 1.3028(4)
N2A N 0.5905(2) 0.1176(3) 1.3861(4)
N3A N 0.6428(3) 0.2716(3) 1.3933(4)
N4A N 0.6185(2) 0.1609(3) 1.2151(4)
N5A N 0.7342(4) 0.3491(5) 1.0952(6)
C1A C 0.5873(3) 0.2702(4) 1.7701(5)
H3A H 0.5811 0.2840 1.8434
C2A C 0.6299(4) 0.3340(4) 1.7423(6)
H4A H 0.6514 0.3891 1.7957
C3A C 0.6394(3) 0.3138(4) 1.6341(6)
H5A H 0.6674 0.3552 1.6131
C4A C 0.6066(3) 0.2310(3) 1.5569(5)
C5A C 0.5650(3) 0.1723(3) 1.5917(5)
H6A H 0.5426 0.1169 1.5395
C6A C 0.6145(3) 0.2052(3) 1.4390(5)
C7A C 0.5887(3) 0.0975(3) 1.2666(5)
C8A C 0.6463(3) 0.2432(3) 1.2846(5)
C9A C 0.6848(3) 0.3117(3) 1.2389(5)
C10A C 0.7122(4) 0.3988(4) 1.3026(6)
H7A H 0.7061 0.4156 1.3751
C11A C 0.7480(4) 0.4615(4) 1.2637(6)
H8A H 0.7654 0.5213 1.3068
C12A C 0.7575(4) 0.4342(5) 1.1600(7)
H9A H 0.7817 0.4771 1.1322
C13A C 0.6970(3) 0.2869(4) 1.1340(6)
H10A H 0.6797 0.2276 1.0896
O3 O 0.471(2) 0.532(2) 0.658(3)
loop_
_geom_bond_atom_site_label_1
_geom_bond_atom_site_label_2
_geom_bond_site_symmetry_1
_geom_bond_site_symmetry_2
Co1 O1 1_555 1_555
O1 C7 1_555 1_555
O2 Co1 1_555 1_555
H1 O2 1_555 1_555
H2 O2 1_555 1_555
N1 C1 1_555 1_555
N2 C6 1_555 1_555
N3 C6 1_555 1_555
N4 C7 1_555 1_555
N5 C12 1_555 1_555
C1 H3 1_555 1_555
C2 C1 1_555 1_555
H4 C2 1_555 1_555
C3 C2 1_555 1_555
H5 C3 1_555 1_555
C4 C3 1_555 1_555
C5 N1 1_555 1_555
H6 C5 1_555 1_555
C6 C4 1_555 1_555
C7 N2 1_555 1_555
C8 N3 1_555 1_555
C9 C8 1_555 1_555
C10 C9 1_555 1_555
H7 C10 1_555 1_555
C11 C10 1_555 1_555
H8 C11 1_555 1_555
C12 C11 1_555 1_555
H9 C12 1_555 1_555
C13 N5 1_555 1_555
H10 C13 1_555 1_555
Co1D N1 1_555 1_555
Co1D_2 N1A 1_555 1_555
O1A Co1 1_555 1_555
O2A Co1 1_555 1_555
H1A O2A 1_555 1_555
H2A O2A 1_555 1_555
N1A C1A 1_555 1_555
N1D Co1 1_555 1_555
N1E Co1 1_555 1_555
N2A C6A 1_555 1_555
N3A C6A 1_555 1_555
N4A C7A 1_555 1_555
N5A C12A 1_555 1_555
C1A H3A 1_555 1_555
C2A C1A 1_555 1_555
H4A C2A 1_555 1_555
C3A C2A 1_555 1_555
H5A C3A 1_555 1_555
C4A C3A 1_555 1_555
C5A N1A 1_555 1_555
H6A C5A 1_555 1_555
C6A C4A 1_555 1_555
C7A O1A 1_555 1_555
C8A N3A 1_555 1_555
C9A C8A 1_555 1_555
C10A C9A 1_555 1_555
H7A C10A 1_555 1_555
C11A C10A 1_555 1_555
H8A C11A 1_555 1_555
C12A C11A 1_555 1_555
H9A C12A 1_555 1_555
C13A N5A 1_555 1_555
H10A C13A 1_555 1_555
N4 C8 1_555 1_555
C4 C5 1_555 1_555
C9 C13 1_555 1_555
N2A C7A 1_555 1_555
N4A C8A 1_555 1_555
C4A C5A 1_555 1_555
C9A C13A 1_555 1_555

#END
