
#######################################################################
#
#                 Cambridge Crystallographic Data Centre
#                                CCDC 
#
#######################################################################
#
# If this CIF has been generated from an entry in the Cambridge 
# Structural Database, then it will include bibliographic, chemical, 
# crystal, experimental, refinement or atomic coordinate data resulting 
# from the CCDC's data processing and validation procedures.
#
#######################################################################

data_UPOPEV
_symmetry_cell_setting           monoclinic
_symmetry_space_group_name_H-M   'P 21/c'
_symmetry_Int_Tables_number      14
_space_group_name_Hall           '-P 2ybc'
loop_
_symmetry_equiv_pos_site_id
_symmetry_equiv_pos_as_xyz
1 x,y,z
2 -x,1/2+y,1/2-z
3 -x,-y,-z
4 x,1/2-y,1/2+z
_cell_length_a                   10.0145(11)
_cell_length_b                   14.5610(16)
_cell_length_c                   14.0695(12)
_cell_angle_alpha                90
_cell_angle_beta                 114.635(6)
_cell_angle_gamma                90
_cell_volume                     1864.89
loop_
_atom_site_label
_atom_site_type_symbol
_atom_site_fract_x
_atom_site_fract_y
_atom_site_fract_z
Zn1 Zn 0.70005(2) -0.553130(17) -0.217880(18)
C1 C -0.3311(3) -0.10817(18) -0.5825(2)
H1 H -0.4045 -0.0684 -0.5774
C2 C -0.2994(3) -0.18883(18) -0.5262(2)
H2 H -0.3498 -0.2050 -0.4833
C3 C -0.1936(2) -0.24751(15) -0.53194(17)
C4 C -0.1256(3) -0.22147(18) -0.59508(19)
H3 H -0.0521 -0.2604 -0.6013
C5 C -0.1649(3) -0.14010(18) -0.64916(19)
H4 H -0.1159 -0.1229 -0.6926
C6 C -0.1530(2) -0.33407(16) -0.47018(16)
C7 C -0.2084(2) -0.44553(15) -0.37886(16)
C8 C 0.0144(2) -0.44207(15) -0.38783(16)
C9 C 0.1679(2) -0.47717(16) -0.35464(16)
C10 C 0.2257(3) -0.54823(17) -0.2843(2)
H5 H 0.1641 -0.5813 -0.2587
C11 C 0.3714(3) -0.57226(18) -0.2525(2)
H6 H 0.4102 -0.6216 -0.2032
C12 C 0.4045(3) -0.46317(18) -0.35585(19)
H7 H 0.4666 -0.4331 -0.3832
C13 C 0.2599(3) -0.43562(18) -0.3921(2)
H8 H 0.2232 -0.3873 -0.4431
C14 C 0.7825(3) -0.74440(18) -0.26841(17)
H9 H 0.8346 -0.7475 -0.1938
C15 C 0.8056(3) -0.81139(17) -0.32875(18)
H10 H 0.8752 -0.8596 -0.2961
C16 C 0.7306(2) -0.80922(16) -0.43644(17)
C17 C 0.6300(2) -0.73891(17) -0.47914(17)
H11 H 0.5732 -0.7361 -0.5533
C18 C 0.6123(2) -0.67397(16) -0.41432(17)
H12 H 0.5424 -0.6255 -0.4450
C19 C 0.7599(2) -0.88114(16) -0.50371(17)
N1 N -0.2654(2) -0.08286(14) -0.64374(15)
N2 N -0.2496(2) -0.36775(14) -0.43809(15)
N3 N -0.02061(19) -0.36934(13) -0.45110(14)
N4 N -0.07026(19) -0.48260(14) -0.34885(13)
N5 N 0.46204(19) -0.53024(13) -0.28581(14)
N6 N 0.6884(2) -0.67456(13) -0.31021(14)
O1 O -0.29822(16) -0.48147(11) -0.34954(12)
O2 O 0.68574(17) -0.87178(12) -0.60115(11)
O3 O 0.8521(2) -0.94045(13) -0.45998(15)
O4 O 0.93724(18) -0.56909(12) -0.16209(13)
H13 H 1.0117 -0.5307 -0.1120
H14 H 0.9491 -0.5418 -0.2200
Zn1_2 Zn -0.29995(2) -0.553130(17) -0.217880(18)
Zn1C Zn 0.70005(2) -0.946870(17) -0.717880(18)
Zn1C_2 Zn -0.29995(2) 0.053130(17) -0.717880(18)
N1C N 0.7346(2) -0.41714(14) -0.14374(15)
O1_2 O 0.70178(16) -0.48147(11) -0.34954(12)
O2C O 0.68574(17) -0.62822(12) -0.10115(11)
loop_
_geom_bond_atom_site_label_1
_geom_bond_atom_site_label_2
_geom_bond_site_symmetry_1
_geom_bond_site_symmetry_2
Zn1 N5 1_555 1_555
C1 H1 1_555 1_555
C2 C1 1_555 1_555
H2 C2 1_555 1_555
C3 C2 1_555 1_555
C4 C3 1_555 1_555
H3 C4 1_555 1_555
C5 C4 1_555 1_555
H4 C5 1_555 1_555
C6 C3 1_555 1_555
C7 N2 1_555 1_555
C8 C9 1_555 1_555
C9 C10 1_555 1_555
C10 H5 1_555 1_555
C11 C10 1_555 1_555
H6 C11 1_555 1_555
C12 H7 1_555 1_555
C13 C9 1_555 1_555
H8 C13 1_555 1_555
C14 H9 1_555 1_555
C15 C14 1_555 1_555
H10 C15 1_555 1_555
C16 C15 1_555 1_555
C17 C16 1_555 1_555
H11 C17 1_555 1_555
C18 C17 1_555 1_555
H12 C18 1_555 1_555
C19 C16 1_555 1_555
N1 C1 1_555 1_555
N2 C6 1_555 1_555
N3 C6 1_555 1_555
N4 C7 1_555 1_555
N5 C11 1_555 1_555
N6 Zn1 1_555 1_555
O1 C7 1_555 1_555
O2 C19 1_555 1_555
O3 C19 1_555 1_555
O4 Zn1 1_555 1_555
H13 O4 1_555 1_555
H14 O4 1_555 1_555
Zn1_2 O1 1_555 1_555
Zn1C O2 1_555 1_555
Zn1C_2 N1 1_555 1_555
N1C Zn1 1_555 1_555
O1_2 Zn1 1_555 1_555
O2C Zn1 1_555 1_555
C5 N1 1_555 1_555
C8 N3 1_555 1_555
C8 N4 1_555 1_555
C12 C13 1_555 1_555
C12 N5 1_555 1_555
C14 N6 1_555 1_555
C18 N6 1_555 1_555

#END
