
#######################################################################
#
#                 Cambridge Crystallographic Data Centre
#                                CCDC 
#
#######################################################################
#
# If this CIF has been generated from an entry in the Cambridge 
# Structural Database, then it will include bibliographic, chemical, 
# crystal, experimental, refinement or atomic coordinate data resulting 
# from the CCDC's data processing and validation procedures.
#
#######################################################################

data_UPOQUM
_symmetry_cell_setting           monoclinic
_symmetry_space_group_name_H-M   'C 2/c'
_symmetry_Int_Tables_number      15
_space_group_name_Hall           '-C 2yn'
loop_
_symmetry_equiv_pos_site_id
_symmetry_equiv_pos_as_xyz
1 x,y,z
2 -x,y,1/2-z
3 1/2+x,1/2+y,z
4 1/2-x,1/2+y,1/2-z
5 -x,-y,-z
6 x,-y,1/2+z
7 1/2-x,1/2-y,-z
8 1/2+x,1/2-y,1/2+z
_cell_length_a                   9.282(12)
_cell_length_b                   26.13(3)
_cell_length_c                   9.799(12)
_cell_angle_alpha                90
_cell_angle_beta                 109.55(3)
_cell_angle_gamma                90
_cell_volume                     2239.62
loop_
_atom_site_label
_atom_site_type_symbol
_atom_site_fract_x
_atom_site_fract_y
_atom_site_fract_z
Cu1 Cu 0.2500 0.2500 1.0000
N1 N 0.1836(7) 0.1755(2) 0.9884(6)
C1 C 0.0738(9) 0.1602(3) 1.0417(9)
H1 H 0.0313 0.1838 1.0884
C2 C 0.0234(10) 0.1099(3) 1.0281(11)
H2 H -0.0545 0.1006 1.0630
C3 C 0.0860(11) 0.0739(3) 0.9644(11)
H3 H 0.0511 0.0402 0.9548
C4 C 0.2033(9) 0.0885(3) 0.9139(9)
C5 C 0.2467(8) 0.1397(3) 0.9259(8)
H4 H 0.3227 0.1498 0.8894
N2 N 0.2841(8) 0.0547(2) 0.8528(8)
H5 H 0.3381 0.0688 0.8069
C6 C 0.2870(16) 0.0025(3) 0.8576(16)
O1 O 0.2028(16) -0.0215(3) 0.9080(18)
C7 C 0.3963(14) -0.0239(3) 0.7997(13)
C8 C 0.4000(11) -0.0773(3) 0.8033(10)
H6 H 0.3361 -0.0956 0.8411
C9 C 0.5000 -0.1024(4) 0.7500
H7 H 0.5000 -0.1380 0.7500
C10 C 0.5000 0.0015(5) 0.7500
H8 H 0.5000 0.0371 0.7500
O2 O 0.1958(5) 0.25321(16) 0.7769(5)
O3 O 0.0012(5) 0.26964(17) 0.5728(5)
C11 C 0.0561(8) 0.2613(2) 0.7060(8)
Cu1A Cu -0.2500 0.2500 0.5000
Cu1A_2 Cu 0.7500 0.2500 0.5000
N1A N 0.8164(7) 0.1755(2) 0.5116(6)
N1F N 0.3164(7) 0.3245(2) 1.0116(6)
C1A C 0.9262(9) 0.1602(3) 0.4583(9)
H1A H 0.9687 0.1838 0.4116
C2A C 0.9766(10) 0.1099(3) 0.4719(11)
H2A H 1.0545 0.1006 0.4370
C3A C 0.9140(11) 0.0739(3) 0.5356(11)
H3A H 0.9489 0.0402 0.5452
C4A C 0.7967(9) 0.0885(3) 0.5861(9)
C5A C 0.7533(8) 0.1397(3) 0.5741(8)
H4A H 0.6773 0.1498 0.6106
N2A N 0.7159(8) 0.0547(2) 0.6472(8)
H5A H 0.6619 0.0688 0.6931
C6A C 0.7130(16) 0.0025(3) 0.6424(16)
O1A O 0.7972(16) -0.0215(3) 0.5920(18)
C7A C 0.6037(14) -0.0239(3) 0.7003(13)
C8A C 0.6000(11) -0.0773(3) 0.6967(10)
H6A H 0.6639 -0.0956 0.6589
O2A O -0.1958(5) 0.25321(16) 0.7231(5)
O2F O 0.3042(5) 0.24679(16) 1.2231(5)
O3A O -0.0012(5) 0.26964(17) 0.9272(5)
O3G O 0.5012(5) 0.23036(17) 1.0728(5)
C11A C -0.0561(8) 0.2613(2) 0.7940(8)
O4 O 0.8158(9) 0.3081(3) 0.0795(10)
O5 O 0.5000 0.1204(4) 0.7500
loop_
_geom_bond_atom_site_label_1
_geom_bond_atom_site_label_2
_geom_bond_site_symmetry_1
_geom_bond_site_symmetry_2
Cu1 N1 1_555 1_555
N1 C1 1_555 1_555
C1 H1 1_555 1_555
C2 C1 1_555 1_555
H2 C2 1_555 1_555
C3 C2 1_555 1_555
H3 C3 1_555 1_555
C4 C3 1_555 1_555
C5 N1 1_555 1_555
H4 C5 1_555 1_555
N2 C4 1_555 1_555
H5 N2 1_555 1_555
C6 N2 1_555 1_555
O1 C6 1_555 1_555
C7 C6 1_555 1_555
C8 C7 1_555 1_555
H6 C8 1_555 1_555
C9 C8 1_555 1_555
H7 C9 1_555 1_555
C10 C7 1_555 1_555
H8 C10 1_555 1_555
O2 Cu1 1_555 1_555
O3 C11 1_555 1_555
C11 O2 1_555 1_555
Cu1A O3 1_555 1_555
Cu1A_2 N1A 1_555 1_555
N1A C1A 1_555 1_555
N1F Cu1 1_555 1_555
C1A H1A 1_555 1_555
C2A C1A 1_555 1_555
H2A C2A 1_555 1_555
C3A C2A 1_555 1_555
H3A C3A 1_555 1_555
C4A C3A 1_555 1_555
C5A N1A 1_555 1_555
H4A C5A 1_555 1_555
N2A C4A 1_555 1_555
H5A N2A 1_555 1_555
C6A N2A 1_555 1_555
O1A C6A 1_555 1_555
C7A C10 1_555 1_555
C8A C9 1_555 1_555
H6A C8A 1_555 1_555
O2A Cu1A 1_555 1_555
O2F Cu1 1_555 1_555
O3A Cu1 1_555 1_555
O3G Cu1 1_555 1_555
C11A C11 1_555 1_555
C4 C5 1_555 1_555
C4A C5A 1_555 1_555
C6A C7A 1_555 1_555
C7A C8A 1_555 1_555
O2A C11A 1_555 1_555
O3A C11A 1_555 1_555

#END
