
#######################################################################
#
#                 Cambridge Crystallographic Data Centre
#                                CCDC 
#
#######################################################################
#
# If this CIF has been generated from an entry in the Cambridge 
# Structural Database, then it will include bibliographic, chemical, 
# crystal, experimental, refinement or atomic coordinate data resulting 
# from the CCDC's data processing and validation procedures.
#
#######################################################################

data_UPOROH
_symmetry_cell_setting           triclinic
_symmetry_space_group_name_H-M   'P -1'
_symmetry_Int_Tables_number      2
_space_group_name_Hall           '-P 1'
loop_
_symmetry_equiv_pos_site_id
_symmetry_equiv_pos_as_xyz
1 x,y,z
2 -x,-y,-z
_cell_length_a                   5.883(3)
_cell_length_b                   8.621(4)
_cell_length_c                   12.088(6)
_cell_angle_alpha                84.727(5)
_cell_angle_beta                 76.275(5)
_cell_angle_gamma                82.535(5)
_cell_volume                     589.329
loop_
_atom_site_label
_atom_site_type_symbol
_atom_site_fract_x
_atom_site_fract_y
_atom_site_fract_z
Co1 Co -1.0000 0.0000 1.0000
N1 N -0.986(2) 0.2354(14) 0.9159(10)
C1 C -1.167(3) 0.341(2) 0.9339(15)
H1 H -1.3021 0.3141 0.9860
C2 C -1.175(3) 0.484(2) 0.8843(16)
H2 H -1.3125 0.5534 0.8983
C3 C -0.969(3) 0.5274(19) 0.8097(15)
H3 H -0.9640 0.6279 0.7744
C4 C -0.776(2) 0.4198(17) 0.7899(13)
C5 C -0.788(3) 0.2765(18) 0.8481(13)
H4 H -0.6522 0.2056 0.8400
N2 N -0.569(2) 0.4646(14) 0.7106(11)
H5 H -0.5632 0.5632 0.6926
C6 C -0.387(3) 0.3700(19) 0.6632(13)
O2 O -0.368(2) 0.2273(13) 0.6855(11)
C7 C -0.187(3) 0.4383(17) 0.5777(12)
C8 C -0.197(3) 0.5966(19) 0.5455(19)
H6 H -0.3285 0.6649 0.5749
C9 C -0.001(4) 0.347(2) 0.5337(18)
H7 H 0.0046 0.2402 0.5547
O3 O -0.769(3) -0.0930(17) 0.8648(14)
O4 O -0.607(4) -0.190(3) 0.6973(19)
C10 C -0.992(6) -0.046(4) 0.736(3)
C11 C -1.217(7) -0.085(4) 0.813(3)
O5 O -1.282(3) -0.0308(18) 0.9330(13)
O6 O -1.355(4) -0.143(3) 0.781(2)
C12 C -0.793(6) -0.110(4) 0.807(3)
Co1_2 Co 1.0000 1.0000 0.0000
N1A N 0.986(2) 0.7646(14) 0.0841(10)
N1A_2 N -1.014(2) -0.2354(14) 1.0841(10)
C1A C 1.167(3) 0.659(2) 0.0661(15)
H1A H 1.3021 0.6859 0.0140
C2A C 1.175(3) 0.516(2) 0.1157(16)
H2A H 1.3125 0.4466 0.1017
C3A C 0.969(3) 0.4726(19) 0.1903(15)
H3A H 0.9640 0.3721 0.2256
C4A C 0.776(2) 0.5802(17) 0.2101(13)
C5A C 0.788(3) 0.7235(18) 0.1519(13)
H4A H 0.6522 0.7944 0.1600
N2A N 0.569(2) 0.5354(14) 0.2894(11)
H5A H 0.5632 0.4368 0.3074
C6A C 0.387(3) 0.6300(19) 0.3368(13)
O2A O 0.368(2) 0.7727(13) 0.3145(11)
C7A C 0.187(3) 0.5617(17) 0.4223(12)
C8A C 0.197(3) 0.4034(19) 0.4545(19)
H6A H 0.3285 0.3351 0.4251
C9A C 0.001(4) 0.653(2) 0.4663(18)
H7A H -0.0046 0.7598 0.4453
O3A O -1.231(3) 0.0930(17) 1.1352(14)
O4A O -1.393(4) 0.190(3) 1.3027(19)
C10A C -1.008(6) 0.046(4) 1.264(3)
C11A C -0.783(7) 0.085(4) 1.187(3)
O5A O -0.718(3) 0.0308(18) 1.0670(13)
O6A O -0.645(4) 0.143(3) 1.219(2)
C12A C -1.207(6) 0.110(4) 1.193(3)
O1 O 1.574(7) 1.011(5) -0.478(3)
O1A O 1.426(7) 0.989(5) -0.522(3)
loop_
_geom_bond_atom_site_label_1
_geom_bond_atom_site_label_2
_geom_bond_site_symmetry_1
_geom_bond_site_symmetry_2
O1 O1A 1_555 1_555
Co1 N1 1_555 1_555
N1 C1 1_555 1_555
C1 H1 1_555 1_555
C2 C1 1_555 1_555
H2 C2 1_555 1_555
C3 C2 1_555 1_555
H3 C3 1_555 1_555
C4 C3 1_555 1_555
C5 N1 1_555 1_555
H4 C5 1_555 1_555
N2 C4 1_555 1_555
H5 N2 1_555 1_555
C6 N2 1_555 1_555
O2 C6 1_555 1_555
C7 C6 1_555 1_555
C8 C7 1_555 1_555
H6 C8 1_555 1_555
C9 C7 1_555 1_555
H7 C9 1_555 1_555
O3 Co1 1_555 1_555
O4 C12 1_555 1_555
C10 C11 1_555 1_555
C11 O5 1_555 1_555
O5 Co1 1_555 1_555
O6 C11 1_555 1_555
C12 O3 1_555 1_555
Co1_2 N1A 1_555 1_555
N1A C1A 1_555 1_555
N1A_2 Co1 1_555 1_555
C1A H1A 1_555 1_555
C2A C1A 1_555 1_555
H2A C2A 1_555 1_555
C3A C2A 1_555 1_555
H3A C3A 1_555 1_555
C4A C3A 1_555 1_555
C5A N1A 1_555 1_555
H4A C5A 1_555 1_555
N2A C4A 1_555 1_555
H5A N2A 1_555 1_555
C6A N2A 1_555 1_555
O2A C6A 1_555 1_555
C7A C6A 1_555 1_555
C8A C9 1_555 1_555
H6A C8A 1_555 1_555
C9A C8 1_555 1_555
H7A C9A 1_555 1_555
O3A Co1 1_555 1_555
O4A C12A 1_555 1_555
C10A C11A 1_555 1_555
C11A O5A 1_555 1_555
O5A Co1 1_555 1_555
O6A C11A 1_555 1_555
C12A O3A 1_555 1_555
C4 C5 1_555 1_555
C10 C12 1_555 1_555
C4A C5A 1_555 1_555
C7A C8A 1_555 1_555
C7A C9A 1_555 1_555
C10A C12A 1_555 1_555

#END
