
#######################################################################
#
#                 Cambridge Crystallographic Data Centre
#                                CCDC 
#
#######################################################################
#
# If this CIF has been generated from an entry in the Cambridge 
# Structural Database, then it will include bibliographic, chemical, 
# crystal, experimental, refinement or atomic coordinate data resulting 
# from the CCDC's data processing and validation procedures.
#
#######################################################################

data_UPORUN
_symmetry_cell_setting           triclinic
_symmetry_space_group_name_H-M   'P -1'
_symmetry_Int_Tables_number      2
_space_group_name_Hall           '-P 1'
loop_
_symmetry_equiv_pos_site_id
_symmetry_equiv_pos_as_xyz
1 x,y,z
2 -x,-y,-z
_cell_length_a                   6.344(3)
_cell_length_b                   9.287(4)
_cell_length_c                   16.008(8)
_cell_angle_alpha                99.000(5)
_cell_angle_beta                 96.824(6)
_cell_angle_gamma                102.660(6)
_cell_volume                     897.336
loop_
_atom_site_label
_atom_site_type_symbol
_atom_site_fract_x
_atom_site_fract_y
_atom_site_fract_z
Co1 Co 0.93480(6) 0.66252(4) 0.69055(2)
N1 N 0.8050(3) 0.8572(2) 0.72703(13)
C1 C 0.8908(5) 0.9858(3) 0.7022(2)
H1 H 1.0043 0.9881 0.6703
C2 C 0.8190(6) 1.1143(4) 0.7218(2)
H2 H 0.8835 1.2010 0.7031
C3 C 0.6505(5) 1.1145(3) 0.7692(2)
H3 H 0.5991 1.2004 0.7825
C4 C 0.5602(4) 0.9831(3) 0.79629(17)
C5 C 0.6411(4) 0.8577(3) 0.77309(16)
H4 H 0.5785 0.7691 0.7904
N2 N 0.3921(3) 0.9691(2) 0.84710(14)
H5 H 0.3322 0.8795 0.8529
C6 C 0.3142(4) 1.0816(3) 0.88795(17)
O1 O 0.3719(3) 1.2135(2) 0.88107(13)
C7 C 0.1521(4) 1.0356(3) 0.94532(17)
C8 C -0.0020(4) 1.1203(3) 0.95803(17)
H6 H -0.0031 1.2013 0.9305
C9 C 0.1536(4) 0.9165(3) 0.98828(17)
H7 H 0.2576 0.8609 0.9809
O2 O 1.1273(3) 0.6737(2) 0.81411(11)
O3 O 0.7813(3) 0.5541(2) 0.78595(12)
C10 C 0.9622(4) 0.5925(3) 0.83595(17)
C11 C 0.9812(4) 0.5426(3) 0.92042(16)
C12 C 0.7943(4) 0.4880(3) 0.95409(17)
H8 H 0.6568 0.4794 0.9233
C13 C 1.1876(4) 0.5535(3) 0.96659(17)
H9 H 1.3130 0.5889 0.9438
O4 O 1.1442(3) 0.7881(2) 0.62613(13)
O5 O 1.2919(3) 0.6254(2) 0.54934(11)
C14 C 1.2648(4) 0.7559(3) 0.57225(17)
C15 C 1.3850(4) 0.8819(3) 0.53413(18)
C16 C 1.5348(6) 0.8593(4) 0.4814(2)
H10 H 1.5604 0.7641 0.4681
C17 C 1.3522(6) 1.0246(4) 0.5520(3)
H11 H 1.2514 1.0430 0.5875
O6 O 0.6857(3) 0.5667(2) 0.59343(13)
O7 O 1.0506(3) 0.4680(2) 0.64829(13)
H12 H 0.701(6) 0.496(3) 0.5537(16)
H13 H 0.566(4) 0.595(4) 0.580(2)
H14 H 1.134(6) 0.499(5) 0.611(2)
H15 H 1.145(5) 0.439(4) 0.685(2)
Co1A Co -0.93480(6) 1.33748(4) 1.30945(2)
Co1A_2 Co 1.06520(6) 0.33748(4) 1.30945(2)
Co1A_3 Co 2.06520(6) 1.33748(4) 0.30945(2)
N1A N -0.8050(3) 1.1428(2) 1.27297(13)
C1A C -0.8908(5) 1.0142(3) 1.2978(2)
H1A H -1.0043 1.0119 1.3297
C2A C -0.8190(6) 0.8857(4) 1.2782(2)
H2A H -0.8835 0.7990 1.2969
C3A C -0.6505(5) 0.8855(3) 1.2308(2)
H3A H -0.5991 0.7996 1.2175
C4A C -0.5602(4) 1.0169(3) 1.20371(17)
C5A C -0.6411(4) 1.1423(3) 1.22691(16)
H4A H -0.5785 1.2309 1.2096
N2A N -0.3921(3) 1.0309(2) 1.15290(14)
H5A H -0.3322 1.1205 1.1471
C6A C -0.3142(4) 0.9184(3) 1.11205(17)
O1A O -0.3719(3) 0.7865(2) 1.11893(13)
C7A C -0.1521(4) 0.9644(3) 1.05468(17)
C8A C 0.0020(4) 0.8797(3) 1.04197(17)
H6A H 0.0031 0.7987 1.0695
C9A C -0.1536(4) 1.0835(3) 1.01172(17)
H7A H -0.2576 1.1391 1.0191
O2A O 0.8727(3) 0.3263(2) 1.18589(11)
O2A_2 O -1.1273(3) 1.3263(2) 1.18589(11)
O3A O 1.2187(3) 0.4459(2) 1.21405(12)
O3A_2 O -0.7813(3) 1.4459(2) 1.21405(12)
C10A C 1.0378(4) 0.4075(3) 1.16405(17)
C11A C 1.0188(4) 0.4574(3) 1.07958(16)
C12A C 1.2057(4) 0.5120(3) 1.04591(17)
H8A H 1.3432 0.5206 1.0767
C13A C 0.8124(4) 0.4465(3) 1.03341(17)
H9A H 0.6870 0.4111 1.0562
O4A O 1.8558(3) 1.2119(2) 0.37387(13)
O4A_2 O -1.1442(3) 1.2119(2) 1.37387(13)
O5A O 1.7081(3) 1.3746(2) 0.45066(11)
C14A C 1.7352(4) 1.2441(3) 0.42775(17)
C15A C 1.6150(4) 1.1181(3) 0.46587(18)
C16A C 1.4652(6) 1.1407(4) 0.5186(2)
H10A H 1.4396 1.2359 0.5319
C17A C 1.6478(6) 0.9754(4) 0.4480(3)
H11A H 1.7486 0.9570 0.4125
O6A O -0.6857(3) 1.4333(2) 1.40657(13)
O7A O -1.0506(3) 1.5320(2) 1.35171(13)
H12A H -0.701(6) 1.504(3) 1.4463(16)
H13A H -0.566(4) 1.405(4) 1.420(2)
H14A H -1.134(6) 1.501(5) 1.389(2)
H15A H -1.145(5) 1.561(4) 1.315(2)
O8 O 0.3448(4) 0.3823(3) 0.7517(2)
H16 H 0.321(7) 0.330(4) 0.793(2)
H17 H 0.478(4) 0.440(5) 0.755(4)
loop_
_geom_bond_atom_site_label_1
_geom_bond_atom_site_label_2
_geom_bond_site_symmetry_1
_geom_bond_site_symmetry_2
Co1 N1 1_555 1_555
N1 C1 1_555 1_555
C1 H1 1_555 1_555
C2 C1 1_555 1_555
H2 C2 1_555 1_555
C3 C2 1_555 1_555
H3 C3 1_555 1_555
C4 C3 1_555 1_555
C5 N1 1_555 1_555
H4 C5 1_555 1_555
N2 C4 1_555 1_555
H5 N2 1_555 1_555
C6 N2 1_555 1_555
O1 C6 1_555 1_555
C7 C6 1_555 1_555
C8 C7 1_555 1_555
H6 C8 1_555 1_555
C9 C7 1_555 1_555
H7 C9 1_555 1_555
O2 Co1 1_555 1_555
O3 Co1 1_555 1_555
C10 O2 1_555 1_555
C11 C10 1_555 1_555
C12 C11 1_555 1_555
H8 C12 1_555 1_555
C13 C11 1_555 1_555
H9 C13 1_555 1_555
O4 Co1 1_555 1_555
O5 C14 1_555 1_555
C14 O4 1_555 1_555
C15 C14 1_555 1_555
C16 C15 1_555 1_555
H10 C16 1_555 1_555
C17 C15 1_555 1_555
H11 C17 1_555 1_555
O6 Co1 1_555 1_555
O7 Co1 1_555 1_555
O8 H16 1_555 1_555
H12 O6 1_555 1_555
H13 O6 1_555 1_555
H14 O7 1_555 1_555
H15 O7 1_555 1_555
H17 O8 1_555 1_555
Co1A N1A 1_555 1_555
Co1A_2 O2A 1_555 1_555
Co1A_3 O4A 1_555 1_555
N1A C1A 1_555 1_555
C1A H1A 1_555 1_555
C2A C1A 1_555 1_555
H2A C2A 1_555 1_555
C3A C2A 1_555 1_555
H3A C3A 1_555 1_555
C4A C3A 1_555 1_555
C5A N1A 1_555 1_555
H4A C5A 1_555 1_555
N2A C4A 1_555 1_555
H5A N2A 1_555 1_555
C6A N2A 1_555 1_555
O1A C6A 1_555 1_555
C7A C6A 1_555 1_555
C8A C9 1_555 1_555
H6A C8A 1_555 1_555
C9A C8 1_555 1_555
H7A C9A 1_555 1_555
O2A C10A 1_555 1_555
O2A_2 Co1A 1_555 1_555
O3A Co1A_2 1_555 1_555
O3A_2 Co1A 1_555 1_555
C10A O3A 1_555 1_555
C11A C10A 1_555 1_555
C12A C13 1_555 1_555
H8A C12A 1_555 1_555
C13A C12 1_555 1_555
H9A C13A 1_555 1_555
O4A C14A 1_555 1_555
O4A_2 Co1A 1_555 1_555
O5A C14A 1_555 1_555
C14A C15A 1_555 1_555
C15A C16A 1_555 1_555
C16A C17 1_555 1_555
H10A C16A 1_555 1_555
C17A C16 1_555 1_555
H11A C17A 1_555 1_555
O6A Co1A 1_555 1_555
O7A Co1A 1_555 1_555
H12A O6A 1_555 1_555
H13A O6A 1_555 1_555
H14A O7A 1_555 1_555
H15A O7A 1_555 1_555
C4 C5 1_555 1_555
O3 C10 1_555 1_555
C4A C5A 1_555 1_555
C7A C8A 1_555 1_555
C7A C9A 1_555 1_555
C11A C12A 1_555 1_555
C11A C13A 1_555 1_555
C15A C17A 1_555 1_555

#END
