
#######################################################################
#
#                 Cambridge Crystallographic Data Centre
#                                CCDC 
#
#######################################################################
#
# If this CIF has been generated from an entry in the Cambridge 
# Structural Database, then it will include bibliographic, chemical, 
# crystal, experimental, refinement or atomic coordinate data resulting 
# from the CCDC's data processing and validation procedures.
#
#######################################################################

data_UPOREX
_symmetry_cell_setting           monoclinic
_symmetry_space_group_name_H-M   'P 21/n'
_symmetry_Int_Tables_number      14
_space_group_name_Hall           '-P 2yn'
loop_
_symmetry_equiv_pos_site_id
_symmetry_equiv_pos_as_xyz
1 x,y,z
2 1/2-x,1/2+y,1/2-z
3 -x,-y,-z
4 1/2+x,1/2-y,1/2+z
_cell_length_a                   10.842(2)
_cell_length_b                   16.505(3)
_cell_length_c                   14.595(3)
_cell_angle_alpha                90
_cell_angle_beta                 107.125(3)
_cell_angle_gamma                90
_cell_volume                     2495.94
loop_
_atom_site_label
_atom_site_type_symbol
_atom_site_fract_x
_atom_site_fract_y
_atom_site_fract_z
Cu1 Cu 0.94914(4) 0.13952(3) 0.94836(3)
N1 N 0.8651(3) 0.18649(19) 0.8190(2)
C1 C 0.7711(4) 0.2428(2) 0.8053(3)
H1 H 0.7401 0.2563 0.8564
C2 C 0.7196(4) 0.2806(2) 0.7188(3)
H2 H 0.6539 0.3184 0.7115
C3 C 0.7658(4) 0.2623(2) 0.6424(3)
H3 H 0.7339 0.2885 0.5838
C4 C 0.8606(4) 0.2040(2) 0.6557(3)
C5 C 0.9073(4) 0.1669(2) 0.7441(3)
H4 H 0.9702 0.1270 0.7520
N2 N 0.9097(3) 0.17810(19) 0.5797(2)
H5 H 0.8567 0.1723 0.5233
C6 C 1.0367(4) 0.1623(3) 0.5931(3)
O1 O 1.1211(3) 0.17897(18) 0.6664(2)
C7 C 1.0658(4) 0.1209(2) 0.5102(3)
C8 C 0.9975(4) 0.1352(2) 0.4146(3)
H6 H 0.9300 0.1723 0.3999
C9 C 1.0285(4) 0.0951(2) 0.3417(3)
H7 H 0.9815 0.1047 0.2783
C10 C 1.1292(4) 0.0406(2) 0.3630(3)
H8 H 1.1513 0.0144 0.3136
C11 C 1.1983(4) 0.0243(2) 0.4579(3)
C12 C 1.1648(4) 0.0643(2) 0.5308(3)
H9 H 1.2094 0.0531 0.5944
C13 C 1.2976(4) -0.0408(3) 0.4838(3)
O2 O 1.3012(3) -0.08821(17) 0.5509(2)
N3 N 1.3760(3) -0.04771(19) 0.4277(2)
H10 H 1.3762 -0.0073 0.3905
C14 C 1.4579(4) -0.1127(2) 0.4222(3)
C15 C 1.5103(4) -0.1135(2) 0.3467(3)
H11 H 1.4955 -0.0704 0.3037
C16 C 1.5846(4) -0.1782(2) 0.3351(3)
H12 H 1.6209 -0.1792 0.2848
C17 C 1.6040(4) -0.2415(2) 0.3997(3)
H13 H 1.6535 -0.2855 0.3916
N4 N 1.5542(3) -0.24197(19) 0.4736(2)
C18 C 1.4847(4) -0.1775(2) 0.4858(3)
H14 H 1.4535 -0.1764 0.5386
O3 O 0.7777(2) 0.11734(15) 0.96346(18)
O4 O 0.7426(2) -0.00143(17) 0.88512(19)
C19 C 0.7053(4) 0.0598(3) 0.9209(3)
C20 C 0.5638(4) 0.0682(2) 0.9126(3)
C21 C 0.5164(4) 0.1383(2) 0.9424(3)
H15 H 0.5723 0.1811 0.9667
C22 C 0.3880(4) 0.1453(2) 0.9366(3)
H16 H 0.3582 0.1926 0.9576
C23 C 0.3020(4) 0.0824(2) 0.8994(3)
C24 C 0.1626(4) 0.0868(3) 0.8971(3)
O5 O 0.1241(2) 0.14943(16) 0.93219(18)
O6 O 0.0900(2) 0.02871(16) 0.86041(18)
C25 C 0.3485(4) 0.0123(2) 0.8694(3)
H17 H 0.2926 -0.0304 0.8447
C26 C 0.4786(4) 0.0055(2) 0.8759(3)
H18 H 0.5089 -0.0418 0.8554
O7 O 1.0306(3) 0.08213(17) 1.0696(2)
H19 H 1.095(6) 0.058(3) 1.073(4)
H20 H 0.979(4) 0.048(3) 1.085(3)
Cu1A Cu 1.55086(4) -0.36048(3) 0.55164(3)
Cu1_2 Cu -0.05086(4) 0.13952(3) 0.94836(3)
N4A N 0.9458(3) 0.25803(19) 1.0264(2)
O5_2 O 1.1241(2) 0.14943(16) 0.93219(18)
O8 O 0.6149(3) 0.9320(2) 0.7089(2)
H21 H 0.654(5) 0.951(3) 0.769(4)
H22 H 0.555(6) 0.899(4) 0.711(4)
O9 O 0.4065(3) 0.8354(2) 0.7333(3)
H23 H 0.377(5) 0.791(3) 0.751(4)
H24 H 0.349(5) 0.834(3) 0.667(4)
loop_
_geom_bond_atom_site_label_1
_geom_bond_atom_site_label_2
_geom_bond_site_symmetry_1
_geom_bond_site_symmetry_2
Cu1 N1 1_555 1_555
N1 C1 1_555 1_555
C1 H1 1_555 1_555
C2 C1 1_555 1_555
H2 C2 1_555 1_555
C3 C2 1_555 1_555
H3 C3 1_555 1_555
C4 C3 1_555 1_555
C5 N1 1_555 1_555
H4 C5 1_555 1_555
N2 C4 1_555 1_555
H5 N2 1_555 1_555
C6 N2 1_555 1_555
O1 C6 1_555 1_555
C7 C6 1_555 1_555
C8 C7 1_555 1_555
H6 C8 1_555 1_555
C9 C8 1_555 1_555
H7 C9 1_555 1_555
C10 C9 1_555 1_555
H8 C10 1_555 1_555
C11 C10 1_555 1_555
C12 C7 1_555 1_555
H9 C12 1_555 1_555
C13 C11 1_555 1_555
O2 C13 1_555 1_555
N3 C13 1_555 1_555
H10 N3 1_555 1_555
C14 N3 1_555 1_555
C15 C14 1_555 1_555
H11 C15 1_555 1_555
C16 C15 1_555 1_555
H12 C16 1_555 1_555
C17 C16 1_555 1_555
H13 C17 1_555 1_555
N4 C17 1_555 1_555
C18 C14 1_555 1_555
H14 C18 1_555 1_555
O3 Cu1 1_555 1_555
O4 C19 1_555 1_555
C19 O3 1_555 1_555
C20 C19 1_555 1_555
C21 C20 1_555 1_555
H15 C21 1_555 1_555
C22 C21 1_555 1_555
H16 C22 1_555 1_555
C23 C22 1_555 1_555
C24 C23 1_555 1_555
O5 C24 1_555 1_555
O6 C24 1_555 1_555
C25 C23 1_555 1_555
H17 C25 1_555 1_555
C26 C20 1_555 1_555
H18 C26 1_555 1_555
O7 Cu1 1_555 1_555
O8 H21 1_555 1_555
O9 H23 1_555 1_555
H19 O7 1_555 1_555
H20 O7 1_555 1_555
H22 O8 1_555 1_555
H24 O9 1_555 1_555
Cu1A N4 1_555 1_555
Cu1_2 O5 1_555 1_555
N4A Cu1 1_555 1_555
O5_2 Cu1 1_555 1_555
C4 C5 1_555 1_555
C11 C12 1_555 1_555
N4 C18 1_555 1_555
C25 C26 1_555 1_555

#END
