
#######################################################################
#
#                 Cambridge Crystallographic Data Centre
#                                CCDC 
#
#######################################################################
#
# If this CIF has been generated from an entry in the Cambridge 
# Structural Database, then it will include bibliographic, chemical, 
# crystal, experimental, refinement or atomic coordinate data resulting 
# from the CCDC's data processing and validation procedures.
#
#######################################################################

data_UPORAT
_symmetry_cell_setting           monoclinic
_symmetry_space_group_name_H-M   'P 21/n'
_symmetry_Int_Tables_number      14
_space_group_name_Hall           '-P 2yn'
loop_
_symmetry_equiv_pos_site_id
_symmetry_equiv_pos_as_xyz
1 x,y,z
2 1/2-x,1/2+y,1/2-z
3 -x,-y,-z
4 1/2+x,1/2-y,1/2+z
_cell_length_a                   13.156(4)
_cell_length_b                   7.855(2)
_cell_length_c                   19.135(5)
_cell_angle_alpha                90
_cell_angle_beta                 92.521(4)
_cell_angle_gamma                90
_cell_volume                     1975.5
loop_
_atom_site_label
_atom_site_type_symbol
_atom_site_fract_x
_atom_site_fract_y
_atom_site_fract_z
Cu1 Cu 0.61849(3) 0.24614(6) 0.82564(2)
N1 N 0.5383(2) 0.2230(4) 0.55071(15)
H1 H 0.4968 0.2394 0.5154
O1 O 0.71168(19) 0.2079(4) 0.90620(13)
N2 N 0.5234(2) 0.2799(4) 0.74113(15)
C1 C 0.5062(3) 0.2764(4) 0.61648(18)
C2 C 0.5543(3) 0.2246(4) 0.67944(18)
H2 H 0.6091 0.1499 0.6785
O2 O 0.72543(19) 0.3201(4) 0.76836(13)
C3 C 0.8070(3) 0.1769(5) 0.90283(18)
O3 O 0.8630(2) 0.1625(4) 0.95584(13)
C4 C 0.3906(3) 0.4356(5) 0.68316(18)
H3 H 0.3339 0.5056 0.6858
C5 C 0.4238(2) 0.3844(5) 0.61872(18)
H4 H 0.3909 0.4224 0.5776
O4 O 0.6915(2) 0.1159(5) 0.58427(14)
O5 O 0.8845(2) 0.3428(5) 0.73908(15)
C6 C 0.8198(3) 0.2826(5) 0.77637(19)
C7 C 0.5935(3) 0.1680(5) 0.40576(19)
H5 H 0.5418 0.2467 0.4118
C8 C 0.6280(3) 0.1485(5) 0.53786(18)
C9 C 0.6465(3) 0.1000(4) 0.46404(17)
C10 C 0.8485(3) 0.1509(6) 0.8308(2)
H6 H 0.9222 0.1468 0.8358
H7 H 0.8256 0.0407 0.8134
C11 C 0.4422(2) 0.3819(5) 0.74323(18)
H8 H 0.4201 0.4174 0.7864
C12 C 0.6174(3) 0.1187(5) 0.33887(19)
H9 H 0.5822 0.1651 0.3002
O6 O 0.6081(2) 0.5559(4) 0.85872(14)
C13 C 0.7210(3) -0.0206(5) 0.45415(17)
H10 H 0.7561 -0.0676 0.4928
C14 C 0.7442(3) -0.0724(4) 0.38749(17)
C15 C 0.6931(3) 0.0011(5) 0.32990(18)
H11 H 0.7103 -0.0295 0.2850
N3 N 0.8286(2) -0.3275(4) 0.42841(15)
H12 H 0.7996 -0.3011 0.4663
C16 C 0.8166(3) -0.2150(5) 0.37453(19)
C17 C 0.8830(2) -0.4824(5) 0.42940(17)
C18 C 0.8661(3) -0.5926(5) 0.48429(19)
H13 H 0.8195 -0.5644 0.5175
C19 C 0.9185(3) -0.7434(5) 0.4894(2)
H14 H 0.9074 -0.8188 0.5257
C20 C 0.9878(3) -0.7811(5) 0.4398(2)
H15 H 1.0238 -0.8828 0.4435
O7 O 0.8575(2) -0.2312(4) 0.31933(15)
N4 N 1.0048(2) -0.6775(4) 0.38713(15)
C21 C 0.9539(3) -0.5285(5) 0.38113(18)
H16 H 0.9665 -0.4558 0.3442
Cu1C Cu 1.11849(3) -0.74614(6) 0.32564(2)
N4C N 0.5048(2) 0.1775(4) 0.88713(15)
loop_
_geom_bond_atom_site_label_1
_geom_bond_atom_site_label_2
_geom_bond_site_symmetry_1
_geom_bond_site_symmetry_2
Cu1 O1 1_555 1_555
N1 H1 1_555 1_555
O1 C3 1_555 1_555
N2 Cu1 1_555 1_555
C1 N1 1_555 1_555
C2 N2 1_555 1_555
H2 C2 1_555 1_555
O2 Cu1 1_555 1_555
C3 O3 1_555 1_555
C4 H3 1_555 1_555
C5 C1 1_555 1_555
H4 C5 1_555 1_555
O4 C8 1_555 1_555
O5 C6 1_555 1_555
C6 O2 1_555 1_555
C7 H5 1_555 1_555
C8 N1 1_555 1_555
C9 C7 1_555 1_555
C10 C3 1_555 1_555
H6 C10 1_555 1_555
H7 C10 1_555 1_555
C11 N2 1_555 1_555
H8 C11 1_555 1_555
C12 C7 1_555 1_555
H9 C12 1_555 1_555
O6 Cu1 1_555 1_555
C13 C9 1_555 1_555
H10 C13 1_555 1_555
C14 C13 1_555 1_555
C15 C12 1_555 1_555
H11 C15 1_555 1_555
N3 H12 1_555 1_555
C16 C14 1_555 1_555
C17 N3 1_555 1_555
C18 C17 1_555 1_555
H13 C18 1_555 1_555
C19 C18 1_555 1_555
H14 C19 1_555 1_555
C20 C19 1_555 1_555
H15 C20 1_555 1_555
O7 C16 1_555 1_555
N4 C20 1_555 1_555
C21 C17 1_555 1_555
H16 C21 1_555 1_555
Cu1C N4 1_555 1_555
N4C Cu1 1_555 1_555
C1 C2 1_555 1_555
C4 C5 1_555 1_555
C4 C11 1_555 1_555
C6 C10 1_555 1_555
C8 C9 1_555 1_555
C14 C15 1_555 1_555
N3 C16 1_555 1_555
N4 C21 1_555 1_555

#END
