
#######################################################################
#
#                 Cambridge Crystallographic Data Centre
#                                CCDC 
#
#######################################################################
#
# If this CIF has been generated from an entry in the Cambridge 
# Structural Database, then it will include bibliographic, chemical, 
# crystal, experimental, refinement or atomic coordinate data resulting 
# from the CCDC's data processing and validation procedures.
#
#######################################################################

data_UPOSUO
_symmetry_cell_setting           tetragonal
_symmetry_space_group_name_H-M   'I 41/a'
_symmetry_Int_Tables_number      88
_space_group_name_Hall           '-I 4ad'
loop_
_symmetry_equiv_pos_site_id
_symmetry_equiv_pos_as_xyz
1 x,y,z
2 -x,1/2-y,z
3 3/4-y,1/4+x,1/4+z
4 1/4+y,1/4-x,1/4+z
5 1/2+x,1/2+y,1/2+z
6 1/2-x,-y,1/2+z
7 1/4-y,3/4+x,3/4+z
8 3/4+y,3/4-x,3/4+z
9 -x,-y,-z
10 x,1/2+y,-z
11 1/4+y,3/4-x,3/4-z
12 3/4-y,3/4+x,3/4-z
13 1/2-x,1/2-y,1/2-z
14 1/2+x,y,1/2-z
15 3/4+y,1/4-x,1/4-z
16 1/4-y,1/4+x,1/4-z
_cell_length_a                   15.0113(3)
_cell_length_b                   15.0113(3)
_cell_length_c                   17.3605(4)
_cell_angle_alpha                90
_cell_angle_beta                 90
_cell_angle_gamma                90
_cell_volume                     3912
loop_
_atom_site_label
_atom_site_type_symbol
_atom_site_fract_x
_atom_site_fract_y
_atom_site_fract_z
Cu1 Cu 0.0000 -0.2500 0.3750
C1 C 0.2003(2) -0.2246(3) 0.3760(2)
C2 C 0.2680(3) -0.1561(3) 0.3727(2)
H1 H 0.3306 -0.1651 0.3723
C3 C 0.2251(3) -0.0769(3) 0.3704(2)
H2 H 0.2521 -0.0197 0.3677
C4 C 0.1314(2) -0.0954(2) 0.3728(2)
C5 C 0.2191(3) -0.3145(2) 0.3787(2)
N1 N 0.1170(2) -0.1864(2) 0.37600(17)
C6 C 0.3144(3) -0.3432(2) 0.3864(2)
C7 C 0.3522(3) -0.3459(3) 0.4594(2)
H3 H 0.3161 -0.3310 0.5024
N2 N 0.4377(2) -0.3688(2) 0.4718(2)
C8 C 0.4870(3) -0.3926(3) 0.4108(2)
H4 H 0.5466 -0.4113 0.4192
C9 C 0.4553(3) -0.3912(3) 0.3374(3)
H5 H 0.4926 -0.4073 0.2954
C10 C 0.3669(3) -0.3655(3) 0.3246(2)
H6 H 0.3435 -0.3635 0.2738
Cu2 Cu 0.48926(4) -0.35613(3) 0.57905(3)
Br1 Br 0.38937(3) -0.39669(3) 0.67803(2)
C1K C -0.0254(3) -0.0497(2) 0.3740(2)
C1A C -0.2003(2) -0.2754(3) 0.3760(2)
C1J C 0.0254(3) -0.4503(2) 0.3740(2)
C2K C -0.0939(3) 0.0180(3) 0.3773(2)
C2A C -0.2680(3) -0.3439(3) 0.3727(2)
C2J C 0.0939(3) -0.5180(3) 0.3773(2)
H1K H -0.0849 0.0806 0.3777
H1A H -0.3306 -0.3349 0.3723
H1J H 0.0849 -0.5806 0.3777
C3K C -0.1731(3) -0.0249(3) 0.3796(2)
C3A C -0.2251(3) -0.4231(3) 0.3704(2)
C3J C 0.1731(3) -0.4751(3) 0.3796(2)
H2K H -0.2303 0.0021 0.3823
H2A H -0.2521 -0.4803 0.3677
H2J H 0.2303 -0.5021 0.3823
C4K C -0.1546(2) -0.1186(2) 0.3772(2)
C4A C -0.1314(2) -0.4046(2) 0.3728(2)
C4J C 0.1546(2) -0.3814(2) 0.3772(2)
C5K C 0.0645(2) -0.0309(3) 0.3713(2)
C5A C -0.2191(3) -0.1855(2) 0.3787(2)
C5J C -0.0645(2) -0.4691(3) 0.3713(2)
N1J N 0.0636(2) -0.3670(2) 0.37400(17)
N1A N -0.1170(2) -0.3136(2) 0.37600(17)
N1K N -0.0636(2) -0.1330(2) 0.37400(17)
C6J C -0.0932(2) -0.5644(3) 0.3636(2)
C6A C -0.3144(3) -0.1568(2) 0.3864(2)
C6K C 0.0932(2) 0.0644(3) 0.3636(2)
C7J C -0.0959(3) -0.6022(3) 0.2906(2)
C7A C -0.3522(3) -0.1541(3) 0.4594(2)
C7K C 0.0959(3) 0.1022(3) 0.2906(2)
H3J H -0.0810 -0.5661 0.2476
H3A H -0.3161 -0.1690 0.5024
H3K H 0.0810 0.0661 0.2476
N2J N -0.1188(2) -0.6877(2) 0.2782(2)
N2A N -0.4377(2) -0.1312(2) 0.4718(2)
N2K N 0.1188(2) 0.1877(2) 0.2782(2)
C8J C -0.1426(3) -0.7370(3) 0.3392(2)
C8A C -0.4870(3) -0.1074(3) 0.4108(2)
C8K C 0.1426(3) 0.2370(3) 0.3392(2)
H4J H -0.1613 -0.7966 0.3308
H4A H -0.5466 -0.0887 0.4192
H4K H 0.1613 0.2966 0.3308
C9J C -0.1412(3) -0.7053(3) 0.4126(3)
C9A C -0.4553(3) -0.1088(3) 0.3374(3)
C9K C 0.1412(3) 0.2053(3) 0.4126(3)
H5J H -0.1573 -0.7426 0.4546
H5A H -0.4926 -0.0927 0.2954
H5K H 0.1573 0.2426 0.4546
C10J C -0.1155(3) -0.6169(3) 0.4254(2)
C10A C -0.3669(3) -0.1345(3) 0.3246(2)
C10K C 0.1155(3) 0.1169(3) 0.4254(2)
H6J H -0.1135 -0.5935 0.4762
H6A H -0.3435 -0.1365 0.2738
H6K H 0.1135 0.0935 0.4762
Cu2J Cu -0.10613(3) -0.73926(4) 0.17095(3)
Cu2A Cu -0.48926(4) -0.14387(3) 0.57905(3)
Cu2K Cu 0.10613(3) 0.23926(4) 0.17095(3)
Cu2N Cu 0.39387(3) -0.23926(4) 0.67095(3)
Cu2O Cu 0.60613(3) -0.26074(4) 0.67095(3)
Cu2O_2 Cu -0.39387(3) -0.26074(4) 0.67095(3)
Cu2N_2 Cu -0.60613(3) -0.23926(4) 0.67095(3)
Br1O Br 0.64669(3) -0.36063(3) 0.57197(2)
Br1J Br -0.14669(3) -0.63937(3) 0.07197(2)
Br1D Br -0.11063(3) -0.89669(3) 0.17803(2)
Br1A Br -0.38937(3) -0.10331(3) 0.67803(2)
Br1N Br -0.64669(3) -0.13937(3) 0.57197(2)
Br1K Br 0.14669(3) 0.13937(3) 0.07197(2)
Br1E Br 0.11063(3) 0.39669(3) 0.17803(2)
loop_
_geom_bond_atom_site_label_1
_geom_bond_atom_site_label_2
_geom_bond_site_symmetry_1
_geom_bond_site_symmetry_2
Cu1 N1 1_555 1_555
C1 C2 1_555 1_555
C2 H1 1_555 1_555
C3 C2 1_555 1_555
H2 C3 1_555 1_555
C4 C3 1_555 1_555
C5 C1 1_555 1_555
N1 C1 1_555 1_555
C6 C5 1_555 1_555
C7 C6 1_555 1_555
H3 C7 1_555 1_555
N2 C7 1_555 1_555
C8 N2 1_555 1_555
H4 C8 1_555 1_555
C9 C8 1_555 1_555
H5 C9 1_555 1_555
C10 C6 1_555 1_555
H6 C10 1_555 1_555
Cu2 N2 1_555 1_555
Br1 Cu2 1_555 1_555
C1K C2K 1_555 1_555
C1A C2A 1_555 1_555
C1J C2J 1_555 1_555
C2K H1K 1_555 1_555
C2A H1A 1_555 1_555
C2J H1J 1_555 1_555
C3K C2K 1_555 1_555
C3A C2A 1_555 1_555
C3J C2J 1_555 1_555
H2K C3K 1_555 1_555
H2A C3A 1_555 1_555
H2J C3J 1_555 1_555
C4K C3K 1_555 1_555
C4A C3A 1_555 1_555
C4J C5 1_555 1_555
C5K C4 1_555 1_555
C5A C1A 1_555 1_555
C5J C1J 1_555 1_555
N1J Cu1 1_555 1_555
N1A Cu1 1_555 1_555
N1K Cu1 1_555 1_555
C6J C5J 1_555 1_555
C6A C5A 1_555 1_555
C6K C5K 1_555 1_555
C7J C6J 1_555 1_555
C7A C6A 1_555 1_555
C7K C6K 1_555 1_555
H3J C7J 1_555 1_555
H3A C7A 1_555 1_555
H3K C7K 1_555 1_555
N2J C7J 1_555 1_555
N2A C7A 1_555 1_555
N2K C7K 1_555 1_555
C8J N2J 1_555 1_555
C8A N2A 1_555 1_555
C8K N2K 1_555 1_555
H4J C8J 1_555 1_555
H4A C8A 1_555 1_555
H4K C8K 1_555 1_555
C9J C8J 1_555 1_555
C9A C8A 1_555 1_555
C9K C8K 1_555 1_555
H5J C9J 1_555 1_555
H5A C9A 1_555 1_555
H5K C9K 1_555 1_555
C10J C6J 1_555 1_555
C10A C6A 1_555 1_555
C10K C6K 1_555 1_555
H6J C10J 1_555 1_555
H6A C10A 1_555 1_555
H6K C10K 1_555 1_555
Cu2J N2J 1_555 1_555
Cu2A N2A 1_555 1_555
Cu2K N2K 1_555 1_555
Cu2N Br1 1_555 1_555
Cu2O Br1O 1_555 1_555
Cu2O_2 Br1A 1_555 1_555
Cu2N_2 Br1N 1_555 1_555
Br1O Cu2 1_555 1_555
Br1J Cu2J 1_555 1_555
Br1D Cu2J 1_555 1_555
Br1A Cu2A 1_555 1_555
Br1N Cu2A 1_555 1_555
Br1K Cu2K 1_555 1_555
Br1E Cu2K 1_555 1_555
C4 N1 1_555 1_555
C9 C10 1_555 1_555
C1K C5K 1_555 1_555
C1K N1K 1_555 1_555
C1A N1A 1_555 1_555
C1J N1J 1_555 1_555
C3J C4J 1_555 1_555
C4K C5A 1_555 1_555
C4K N1K 1_555 1_555
C4A C5J 1_555 1_555
C4A N1A 1_555 1_555
C4J N1J 1_555 1_555
C9J C10J 1_555 1_555
C9A C10A 1_555 1_555
C9K C10K 1_555 1_555

#END
