
#######################################################################
#
#                 Cambridge Crystallographic Data Centre
#                                CCDC 
#
#######################################################################
#
# If this CIF has been generated from an entry in the Cambridge 
# Structural Database, then it will include bibliographic, chemical, 
# crystal, experimental, refinement or atomic coordinate data resulting 
# from the CCDC's data processing and validation procedures.
#
#######################################################################

data_UPOSOI
_symmetry_cell_setting           orthorhombic
_symmetry_space_group_name_H-M   'P n m a'
_symmetry_Int_Tables_number      62
_space_group_name_Hall           '-P 2ac 2n'
loop_
_symmetry_equiv_pos_site_id
_symmetry_equiv_pos_as_xyz
1 x,y,z
2 1/2-x,-y,1/2+z
3 1/2+x,1/2-y,1/2-z
4 -x,1/2+y,-z
5 -x,-y,-z
6 1/2+x,y,1/2-z
7 1/2-x,1/2+y,1/2+z
8 x,1/2-y,z
_cell_length_a                   26.0670(2)
_cell_length_b                   21.1688(6)
_cell_length_c                   7.6354(7)
_cell_angle_alpha                90
_cell_angle_beta                 90
_cell_angle_gamma                90
_cell_volume                     4213.27
loop_
_atom_site_label
_atom_site_type_symbol
_atom_site_fract_x
_atom_site_fract_y
_atom_site_fract_z
Cd1 Cd -0.230877(13) -0.2500 -0.36053(4)
Cl1 Cl -0.16576(5) -0.2500 -0.09123(16)
Cl2 Cl -0.29097(5) -0.2500 -0.62659(15)
Cd2 Cd -0.501740(19) -0.47285(2) -0.53996(6)
C1 C -0.39679(14) -0.52593(16) -0.6906(4)
C2 C -0.34211(14) -0.51597(17) -0.6721(5)
H1 H -0.3162 -0.5316 -0.7481
C3 C -0.33457(13) -0.48041(17) -0.5273(5)
H2 H -0.3025 -0.4663 -0.4831
C4 C -0.38400(14) -0.46785(16) -0.4528(4)
C5 C -0.39379(14) -0.43330(16) -0.2968(4)
C6 C -0.44187(14) -0.42460(17) -0.2140(5)
C7 C -0.45140(15) -0.38275(19) -0.0672(5)
H3 H -0.4265 -0.3584 -0.0063
C8 C -0.50220(14) -0.38484(19) -0.0332(5)
H4 H -0.5196 -0.3623 0.0564
C9 C -0.52510(14) -0.42737(16) -0.1573(4)
C10 C -0.42158(14) -0.56076(16) -0.8234(4)
N1 N -0.42085(11) -0.49578(14) -0.5536(4)
N2 N -0.48735(11) -0.45152(14) -0.2626(4)
C11 C -0.34884(14) -0.40372(16) -0.2088(4)
C12 C -0.31872(13) -0.35860(16) -0.2906(4)
H5 H -0.3267 -0.3476 -0.4081
N3 N -0.27895(12) -0.32961(14) -0.2139(4)
C13 C -0.26800(16) -0.3455(2) -0.0467(5)
H6 H -0.2398 -0.3255 0.0095
C14 C -0.29585(18) -0.3895(2) 0.0461(5)
H7 H -0.2873 -0.3994 0.1639
C15 C -0.33675(15) -0.4192(2) -0.0362(5)
H8 H -0.3564 -0.4500 0.0248
C16 C -0.38763(14) -0.59380(16) -0.9518(4)
C17 C -0.35289(14) -0.63822(16) -0.8899(4)
H9 H -0.3513 -0.6453 -0.7671
N4 N -0.32143(12) -0.67164(13) -0.9931(4)
C18 C -0.32448(16) -0.66216(18) -1.1665(5)
H10 H -0.3023 -0.6854 -1.2415
C19 C -0.35855(15) -0.62000(17) -1.2400(5)
H11 H -0.3600 -0.6148 -1.3635
C20 C -0.39058(12) -0.58529(14) -1.1326(4)
H12 H -0.4143 -0.5560 -1.1812
O1 O -0.51151(12) -0.36828(14) -0.6106(4)
C21 C -0.52469(12) -0.32350(14) -0.5214(4)
Cd1A Cd -0.269123(13) -0.7500 -0.86053(4)
Cd1C Cd -0.769123(13) -0.7500 -0.63947(4)
Cd1B Cd -0.730877(13) -0.2500 -0.13947(4)
Cd2D Cd -0.498260(19) -0.52715(2) -0.46004(6)
C1D C -0.60321(14) -0.47407(16) -0.3094(4)
C2D C -0.65789(14) -0.48403(17) -0.3279(5)
H1D H -0.6838 -0.4684 -0.2519
C3D C -0.66543(13) -0.51959(17) -0.4727(5)
H2D H -0.6975 -0.5337 -0.5169
C4D C -0.61600(14) -0.53215(16) -0.5472(4)
C5D C -0.60621(14) -0.56670(16) -0.7032(4)
C6D C -0.55813(14) -0.57540(17) -0.7860(5)
C7D C -0.54860(15) -0.61725(19) -0.9328(5)
H3D H -0.5735 -0.6416 -0.9937
C8D C -0.49780(14) -0.61516(19) -0.9668(5)
H4D H -0.4804 -0.6377 -1.0564
C9D C -0.47490(14) -0.57263(16) -0.8427(4)
C10D C -0.57842(14) -0.43924(16) -0.1766(4)
N1D N -0.57915(11) -0.50422(14) -0.4464(4)
N2D N -0.51265(11) -0.54848(14) -0.7374(4)
C11D C -0.65116(14) -0.59628(16) -0.7912(4)
C12D C -0.68128(13) -0.64140(16) -0.7094(4)
H5D H -0.6733 -0.6524 -0.5919
N3D N -0.72105(12) -0.67039(14) -0.7861(4)
N3G N -0.27895(12) -0.17039(14) -0.2139(4)
C13D C -0.73200(16) -0.6545(2) -0.9533(5)
H6D H -0.7602 -0.6745 -1.0095
C14D C -0.70415(18) -0.6105(2) -1.0461(5)
H7D H -0.7127 -0.6006 -1.1639
C15D C -0.66325(15) -0.5808(2) -0.9638(5)
H8D H -0.6436 -0.5500 -1.0248
C16D C -0.61237(14) -0.40620(16) -0.0482(4)
C17D C -0.64711(14) -0.36178(16) -0.1101(4)
H9D H -0.6487 -0.3547 -0.2329
N4D N -0.67857(12) -0.32836(13) -0.0069(4)
N4F N -0.17857(12) -0.17164(13) -0.4931(4)
N4A N -0.17857(12) -0.32836(13) -0.4931(4)
C18D C -0.67552(16) -0.33784(18) 0.1665(5)
H10D H -0.6977 -0.3146 0.2415
C19D C -0.64145(15) -0.38000(17) 0.2400(5)
H11D H -0.6400 -0.3852 0.3635
C20D C -0.60942(12) -0.41471(14) 0.1326(4)
H12D H -0.5857 -0.4440 0.1812
O1D O -0.48849(12) -0.63172(14) -0.3894(4)
C21D C -0.47531(12) -0.67650(14) -0.4786(4)
loop_
_geom_bond_atom_site_label_1
_geom_bond_atom_site_label_2
_geom_bond_site_symmetry_1
_geom_bond_site_symmetry_2
Cd1 Cl1 1_555 1_555
Cl2 Cd1 1_555 1_555
Cd2 N1 1_555 1_555
C1 C2 1_555 1_555
C2 H1 1_555 1_555
C3 C2 1_555 1_555
H2 C3 1_555 1_555
C4 C3 1_555 1_555
C5 C4 1_555 1_555
C6 C5 1_555 1_555
C7 C6 1_555 1_555
H3 C7 1_555 1_555
C8 C7 1_555 1_555
H4 C8 1_555 1_555
C9 C8 1_555 1_555
C10 C1 1_555 1_555
N1 C1 1_555 1_555
N2 Cd2 1_555 1_555
C11 C5 1_555 1_555
C12 C11 1_555 1_555
H5 C12 1_555 1_555
N3 Cd1 1_555 1_555
C13 N3 1_555 1_555
H6 C13 1_555 1_555
C14 C13 1_555 1_555
H7 C14 1_555 1_555
C15 C11 1_555 1_555
H8 C15 1_555 1_555
C16 C10 1_555 1_555
C17 C16 1_555 1_555
H9 C17 1_555 1_555
N4 C17 1_555 1_555
C18 N4 1_555 1_555
H10 C18 1_555 1_555
C19 C18 1_555 1_555
H11 C19 1_555 1_555
C20 C16 1_555 1_555
H12 C20 1_555 1_555
O1 Cd2 1_555 1_555
C21 O1 1_555 1_555
Cd1A N4 1_555 1_555
Cd1C N3D 1_555 1_555
Cd1B N4D 1_555 1_555
Cd2D Cd2 1_555 1_555
C1D C2D 1_555 1_555
C2D H1D 1_555 1_555
C3D C2D 1_555 1_555
H2D C3D 1_555 1_555
C4D C3D 1_555 1_555
C5D C4D 1_555 1_555
C6D C5D 1_555 1_555
C7D C6D 1_555 1_555
H3D C7D 1_555 1_555
C8D C7D 1_555 1_555
H4D C8D 1_555 1_555
C9D C10 1_555 1_555
C10D C9 1_555 1_555
N1D Cd2 1_555 1_555
N2D Cd2 1_555 1_555
C11D C5D 1_555 1_555
C12D C11D 1_555 1_555
H5D C12D 1_555 1_555
N3D C12D 1_555 1_555
N3G Cd1 1_555 1_555
C13D N3D 1_555 1_555
H6D C13D 1_555 1_555
C14D C13D 1_555 1_555
H7D C14D 1_555 1_555
C15D C11D 1_555 1_555
H8D C15D 1_555 1_555
C16D C10D 1_555 1_555
C17D C16D 1_555 1_555
H9D C17D 1_555 1_555
N4D C17D 1_555 1_555
N4F Cd1 1_555 1_555
N4A Cd1 1_555 1_555
C18D N4D 1_555 1_555
H10D C18D 1_555 1_555
C19D C18D 1_555 1_555
H11D C19D 1_555 1_555
C20D C16D 1_555 1_555
H12D C20D 1_555 1_555
O1D Cd2D 1_555 1_555
C21D O1D 1_555 1_555
C4 N1 1_555 1_555
C6 N2 1_555 1_555
C9 N2 1_555 1_555
N1 Cd2D 1_555 1_555
N2 Cd2D 1_555 1_555
C12 N3 1_555 1_555
C14 C15 1_555 1_555
C19 C20 1_555 1_555
Cd2D N1D 1_555 1_555
Cd2D N2D 1_555 1_555
C1D C10D 1_555 1_555
C1D N1D 1_555 1_555
C4D N1D 1_555 1_555
C6D N2D 1_555 1_555
C8D C9D 1_555 1_555
C9D N2D 1_555 1_555
C14D C15D 1_555 1_555
C19D C20D 1_555 1_555

#END
