
#######################################################################
#
#                 Cambridge Crystallographic Data Centre
#                                CCDC 
#
#######################################################################
#
# If this CIF has been generated from an entry in the Cambridge 
# Structural Database, then it will include bibliographic, chemical, 
# crystal, experimental, refinement or atomic coordinate data resulting 
# from the CCDC's data processing and validation procedures.
#
#######################################################################

data_UPOSAU
_symmetry_cell_setting           monoclinic
_symmetry_space_group_name_H-M   'P 21/c'
_symmetry_Int_Tables_number      14
_space_group_name_Hall           '-P 2ybc'
loop_
_symmetry_equiv_pos_site_id
_symmetry_equiv_pos_as_xyz
1 x,y,z
2 -x,1/2+y,1/2-z
3 -x,-y,-z
4 x,1/2-y,1/2+z
_cell_length_a                   11.5703(5)
_cell_length_b                   9.8865(4)
_cell_length_c                   13.9700(9)
_cell_angle_alpha                90
_cell_angle_beta                 109.9656(16)
_cell_angle_gamma                90
_cell_volume                     1501.98
loop_
_atom_site_label
_atom_site_type_symbol
_atom_site_fract_x
_atom_site_fract_y
_atom_site_fract_z
Co1 Co 0.0000 0.0000 0.5000
C1 C 0.0579(3) 0.1098(3) 0.7145(3)
C2 C 0.1555(3) 0.1725(4) 0.7969(3)
H1 H 0.1541 0.1937 0.8628
C3 C 0.2487(3) 0.1951(4) 0.7616(3)
H2 H 0.3247 0.2381 0.7974
C4 C 0.2118(3) 0.1419(3) 0.6596(3)
C5 C 0.2873(3) 0.1427(3) 0.6001(3)
C6 C 0.2545(3) 0.0800(3) 0.5044(3)
C7 C 0.3394(3) 0.0608(3) 0.4508(3)
H3 H 0.4229 0.0888 0.4726
C8 C 0.2777(3) -0.0050(4) 0.3635(3)
H4 H 0.3097 -0.0335 0.3126
C9 C 0.1537(3) -0.0233(3) 0.3627(2)
C10 C 0.0599(3) -0.0821(3) 0.2816(3)
N1 N 0.0947(3) 0.0897(3) 0.6320(2)
N2 N 0.1416(2) 0.0250(3) 0.4512(2)
C11 C 0.4071(3) 0.2154(3) 0.6376(3)
C12 C 0.4998(3) 0.1845(4) 0.7292(3)
H5 H 0.4870 0.1130 0.7699
N3 N 0.6087(3) 0.2538(4) 0.7624(3)
C13 C 0.6245(4) 0.3552(4) 0.7010(3)
H6 H 0.6998 0.4040 0.7229
C14 C 0.5386(3) 0.3896(4) 0.6108(3)
H7 H 0.5534 0.4602 0.5702
C15 C 0.4316(3) 0.3210(4) 0.5802(3)
H8 H 0.3705 0.3449 0.5174
C16 C 0.0856(3) -0.1198(4) 0.1881(3)
C17 C 0.0668(3) -0.2521(4) 0.1507(3)
H9 H 0.0420 -0.3174 0.1898
N4 N 0.0807(3) -0.2939(3) 0.0651(2)
C18 C 0.1209(3) -0.2024(4) 0.0130(3)
H10 H 0.1322 -0.2301 -0.0483
C19 C 0.1468(3) -0.0699(4) 0.0442(3)
H11 H 0.1778 -0.0091 0.0062
C20 C 0.1268(3) -0.0265(4) 0.1323(3)
H12 H 0.1410 0.0650 0.1538
Co1A Co 0.0000 -0.5000 0.0000
Co1A_2 Co 0.0000 0.5000 1.0000
C1B C -0.0579(3) -0.1098(3) 0.2855(3)
C2B C -0.1555(3) -0.1725(4) 0.2031(3)
H1B H -0.1541 -0.1937 0.1372
C3B C -0.2487(3) -0.1951(4) 0.2384(3)
H2B H -0.3247 -0.2381 0.2026
C4B C -0.2118(3) -0.1419(3) 0.3404(3)
C5B C -0.2873(3) -0.1427(3) 0.3999(3)
C6B C -0.2545(3) -0.0800(3) 0.4956(3)
C7B C -0.3394(3) -0.0608(3) 0.5492(3)
H3B H -0.4229 -0.0888 0.5274
C8B C -0.2777(3) 0.0050(4) 0.6365(3)
H4B H -0.3097 0.0335 0.6874
C9B C -0.1537(3) 0.0233(3) 0.6373(2)
C10B C -0.0599(3) 0.0821(3) 0.7184(3)
N1B N -0.0947(3) -0.0897(3) 0.3680(2)
N2B N -0.1416(2) -0.0250(3) 0.5488(2)
C11B C -0.4071(3) -0.2154(3) 0.3624(3)
C12B C -0.4998(3) -0.1845(4) 0.2708(3)
H5B H -0.4870 -0.1130 0.2301
N3B N -0.6087(3) -0.2538(4) 0.2376(3)
C13B C -0.6245(4) -0.3552(4) 0.2990(3)
H6B H -0.6998 -0.4040 0.2771
C14B C -0.5386(3) -0.3896(4) 0.3892(3)
H7B H -0.5534 -0.4602 0.4298
C15B C -0.4316(3) -0.3210(4) 0.4198(3)
H8B H -0.3705 -0.3449 0.4826
C16B C -0.0856(3) 0.1198(4) 0.8119(3)
C17B C -0.0668(3) 0.2521(4) 0.8493(3)
H9B H -0.0420 0.3174 0.8102
N4B N -0.0807(3) 0.2939(3) 0.9349(2)
N4A N -0.0807(3) 0.2061(3) 0.4349(2)
N4C N 0.0807(3) -0.2061(3) 0.5651(2)
C18B C -0.1209(3) 0.2024(4) 0.9870(3)
H10B H -0.1322 0.2301 1.0483
C19B C -0.1468(3) 0.0699(4) 0.9558(3)
H11B H -0.1778 0.0091 0.9938
C20B C -0.1268(3) 0.0265(4) 0.8677(3)
H12B H -0.1410 -0.0650 0.8462
loop_
_geom_bond_atom_site_label_1
_geom_bond_atom_site_label_2
_geom_bond_site_symmetry_1
_geom_bond_site_symmetry_2
Co1 N1 1_555 1_555
C1 C2 1_555 1_555
C2 H1 1_555 1_555
C3 C2 1_555 1_555
H2 C3 1_555 1_555
C4 C3 1_555 1_555
C5 C4 1_555 1_555
C6 C5 1_555 1_555
C7 C6 1_555 1_555
H3 C7 1_555 1_555
C8 C7 1_555 1_555
H4 C8 1_555 1_555
C9 C8 1_555 1_555
C10 C9 1_555 1_555
N1 C1 1_555 1_555
N2 Co1 1_555 1_555
C11 C5 1_555 1_555
C12 C11 1_555 1_555
H5 C12 1_555 1_555
N3 C12 1_555 1_555
C13 N3 1_555 1_555
H6 C13 1_555 1_555
C14 C13 1_555 1_555
H7 C14 1_555 1_555
C15 C11 1_555 1_555
H8 C15 1_555 1_555
C16 C10 1_555 1_555
C17 C16 1_555 1_555
H9 C17 1_555 1_555
N4 C17 1_555 1_555
C18 N4 1_555 1_555
H10 C18 1_555 1_555
C19 C18 1_555 1_555
H11 C19 1_555 1_555
C20 C16 1_555 1_555
H12 C20 1_555 1_555
Co1A N4 1_555 1_555
Co1A_2 N4B 1_555 1_555
C1B C10 1_555 1_555
C2B C1B 1_555 1_555
H1B C2B 1_555 1_555
C3B C2B 1_555 1_555
H2B C3B 1_555 1_555
C4B C3B 1_555 1_555
C5B C4B 1_555 1_555
C6B C5B 1_555 1_555
C7B C6B 1_555 1_555
H3B C7B 1_555 1_555
C8B C7B 1_555 1_555
H4B C8B 1_555 1_555
C9B C8B 1_555 1_555
C10B C1 1_555 1_555
N1B Co1 1_555 1_555
N2B Co1 1_555 1_555
C11B C5B 1_555 1_555
C12B C11B 1_555 1_555
H5B C12B 1_555 1_555
N3B C12B 1_555 1_555
C13B N3B 1_555 1_555
H6B C13B 1_555 1_555
C14B C13B 1_555 1_555
H7B C14B 1_555 1_555
C15B C11B 1_555 1_555
H8B C15B 1_555 1_555
C16B C10B 1_555 1_555
C17B C16B 1_555 1_555
H9B C17B 1_555 1_555
N4B C17B 1_555 1_555
N4A Co1 1_555 1_555
N4C Co1 1_555 1_555
C18B N4B 1_555 1_555
H10B C18B 1_555 1_555
C19B C18B 1_555 1_555
H11B C19B 1_555 1_555
C20B C16B 1_555 1_555
H12B C20B 1_555 1_555
C4 N1 1_555 1_555
C6 N2 1_555 1_555
C9 N2 1_555 1_555
C14 C15 1_555 1_555
C19 C20 1_555 1_555
C1B N1B 1_555 1_555
C4B N1B 1_555 1_555
C6B N2B 1_555 1_555
C9B C10B 1_555 1_555
C9B N2B 1_555 1_555
C14B C15B 1_555 1_555
C19B C20B 1_555 1_555

#END
