
#######################################################################
#
#                 Cambridge Crystallographic Data Centre
#                                CCDC 
#
#######################################################################
#
# If this CIF has been generated from an entry in the Cambridge 
# Structural Database, then it will include bibliographic, chemical, 
# crystal, experimental, refinement or atomic coordinate data resulting 
# from the CCDC's data processing and validation procedures.
#
#######################################################################

data_UPOSEY
_symmetry_cell_setting           monoclinic
_symmetry_space_group_name_H-M   'C 2/c'
_symmetry_Int_Tables_number      15
_space_group_name_Hall           '-C 2yn'
loop_
_symmetry_equiv_pos_site_id
_symmetry_equiv_pos_as_xyz
1 x,y,z
2 -x,y,1/2-z
3 1/2+x,1/2+y,z
4 1/2-x,1/2+y,1/2-z
5 -x,-y,-z
6 x,-y,1/2+z
7 1/2-x,1/2-y,-z
8 1/2+x,1/2-y,1/2+z
_cell_length_a                   29.6174(10)
_cell_length_b                   9.5015(3)
_cell_length_c                   14.1841(5)
_cell_angle_alpha                90
_cell_angle_beta                 109.5294(16)
_cell_angle_gamma                90
_cell_volume                     3761.91
loop_
_atom_site_label
_atom_site_type_symbol
_atom_site_fract_x
_atom_site_fract_y
_atom_site_fract_z
Co1 Co 0.2500 0.2500 0.0000
C1 C 0.35093(12) 0.3210(3) 0.1338(2)
C2 C 0.38332(12) 0.3078(3) 0.2343(2)
H1 H 0.4160 0.3355 0.2586
C3 C 0.35819(11) 0.2483(3) 0.2877(2)
H2 H 0.3701 0.2244 0.3567
C4 C 0.31017(11) 0.2277(3) 0.2208(2)
C5 C 0.27330(12) 0.1704(3) 0.2488(2)
C6 C 0.22744(11) 0.1418(3) 0.1814(2)
C7 C 0.18802(12) 0.0885(3) 0.2089(2)
H3 H 0.1885 0.0679 0.2748
C8 C 0.15058(12) 0.0733(3) 0.1247(2)
H4 H 0.1197 0.0388 0.1194
C9 C 0.16595(11) 0.1192(3) 0.0437(2)
C10 C 0.13584(11) 0.1228(3) -0.0557(2)
N1 N 0.30607(9) 0.2710(2) 0.12507(17)
N2 N 0.21294(9) 0.1619(2) 0.07906(17)
C11 C 0.28304(11) 0.1359(3) 0.3563(2)
C12 C 0.27504(11) -0.0001(3) 0.3838(2)
H5 H 0.2654 -0.0696 0.3328
N3 N 0.28012(9) -0.0391(2) 0.47757(18)
C13 C 0.29642(11) 0.0584(3) 0.5499(2)
H6 H 0.3009 0.0325 0.6171
C14 C 0.30681(12) 0.1945(3) 0.5301(2)
H7 H 0.3191 0.2598 0.5832
C15 C 0.29921(11) 0.2352(3) 0.4324(2)
H8 H 0.3049 0.3296 0.4174
C16 C 0.08641(12) 0.0664(3) -0.0796(2)
C17 C 0.04653(13) 0.1548(4) -0.1054(2)
H9 H 0.0518 0.2533 -0.1067
N4 N 0.00104(11) 0.1096(3) -0.1286(2)
C18 C -0.00556(14) -0.0284(4) -0.1258(3)
H10 H -0.0375 -0.0622 -0.1427
C19 C 0.03087(14) -0.1247(4) -0.1002(3)
H11 H 0.0243 -0.2224 -0.0983
C20 C 0.07728(13) -0.0769(3) -0.0771(3)
H12 H 0.1031 -0.1420 -0.0595
Co1C Co 0.2500 -0.2500 0.5000
Co1C_2 Co 0.2500 0.7500 -0.5000
C1F C 0.14907(12) 0.1790(3) -0.1338(2)
C2F C 0.11668(12) 0.1922(3) -0.2343(2)
H1F H 0.0840 0.1645 -0.2586
C3F C 0.14181(11) 0.2517(3) -0.2877(2)
H2F H 0.1299 0.2756 -0.3567
C4F C 0.18983(11) 0.2723(3) -0.2208(2)
C5F C 0.22670(12) 0.3296(3) -0.2488(2)
C6F C 0.27256(11) 0.3582(3) -0.1814(2)
C7F C 0.31198(12) 0.4115(3) -0.2089(2)
H3F H 0.3115 0.4321 -0.2748
C8F C 0.34942(12) 0.4267(3) -0.1247(2)
H4F H 0.3803 0.4612 -0.1194
C9F C 0.33405(11) 0.3808(3) -0.0437(2)
C10F C 0.36416(11) 0.3772(3) 0.0557(2)
N1F N 0.19393(9) 0.2290(2) -0.12507(17)
N2F N 0.28706(9) 0.3381(2) -0.07906(17)
C11F C 0.21696(11) 0.3641(3) -0.3563(2)
C12F C 0.22496(11) 0.5001(3) -0.3838(2)
H5F H 0.2346 0.5696 -0.3328
N3F N 0.21988(9) 0.5391(2) -0.47757(18)
N3C N 0.21988(9) 0.4609(2) 0.02243(18)
N3E N 0.28012(9) 0.0391(2) -0.02243(18)
C13F C 0.20358(11) 0.4416(3) -0.5499(2)
H6F H 0.1991 0.4675 -0.6171
C14F C 0.19319(12) 0.3055(3) -0.5301(2)
H7F H 0.1809 0.2402 -0.5832
C15F C 0.20079(11) 0.2648(3) -0.4324(2)
H8F H 0.1951 0.1704 -0.4174
C16F C 0.41359(12) 0.4336(3) 0.0796(2)
C17F C 0.45347(13) 0.3452(4) 0.1054(2)
H9F H 0.4482 0.2467 0.1067
N4F N 0.49896(11) 0.3904(3) 0.1286(2)
C18F C 0.50556(14) 0.5284(4) 0.1258(3)
H10F H 0.5375 0.5622 0.1427
C19F C 0.46913(14) 0.6247(4) 0.1002(3)
H11F H 0.4757 0.7224 0.0983
C20F C 0.42272(13) 0.5769(3) 0.0771(3)
H12F H 0.3969 0.6420 0.0595
O1 O 0.07684(17) 0.5412(4) -0.0124(3)
C21 C 0.0949(3) 0.4551(9) 0.0670(7)
H13 H 0.1214 0.3941 0.0752
N5 N 0.07015(17) 0.4653(5) 0.1369(3)
C22 C 0.0912(3) 0.3752(8) 0.2271(6)
H14 H 0.0675 0.3054 0.2308
H15 H 0.1002 0.4342 0.2872
H16 H 0.1196 0.3269 0.2226
C23 C 0.0335(3) 0.5525(8) 0.1294(6)
H17 H 0.0033 0.4998 0.1058
H18 H 0.0329 0.6278 0.0818
H19 H 0.0375 0.5935 0.1950
C24? C 0.0499(5) 0.5700(15) 0.0558(10)
C25? C 0.0451(6) 0.4975(14) 0.2185(11)
C26? C 0.1031(6) 0.3777(14) 0.1482(11)
H20? H 0.0257 0.6384 0.0495
H21? H 0.0130 0.4561 0.1968
H22? H 0.0428 0.5995 0.2259
H23? H 0.0643 0.4565 0.2828
H24? H 0.1274 0.3905 0.2143
H25? H 0.1177 0.3918 0.0963
H26? H 0.0900 0.2822 0.1430
loop_
_geom_bond_atom_site_label_1
_geom_bond_atom_site_label_2
_geom_bond_site_symmetry_1
_geom_bond_site_symmetry_2
Co1 N1 1_555 1_555
C1 C2 1_555 1_555
C2 H1 1_555 1_555
C3 C2 1_555 1_555
H2 C3 1_555 1_555
C4 C3 1_555 1_555
C5 C4 1_555 1_555
C6 C5 1_555 1_555
C7 C6 1_555 1_555
H3 C7 1_555 1_555
C8 C7 1_555 1_555
H4 C8 1_555 1_555
C9 C8 1_555 1_555
C10 C9 1_555 1_555
N1 C1 1_555 1_555
N2 Co1 1_555 1_555
C11 C5 1_555 1_555
C12 C11 1_555 1_555
H5 C12 1_555 1_555
N3 C12 1_555 1_555
C13 N3 1_555 1_555
H6 C13 1_555 1_555
C14 C13 1_555 1_555
H7 C14 1_555 1_555
C15 C11 1_555 1_555
H8 C15 1_555 1_555
C16 C10 1_555 1_555
C17 C16 1_555 1_555
H9 C17 1_555 1_555
N4 C17 1_555 1_555
C18 N4 1_555 1_555
H10 C18 1_555 1_555
C19 C18 1_555 1_555
H11 C19 1_555 1_555
C20 C16 1_555 1_555
H12 C20 1_555 1_555
O1 C21 1_555 1_555
C21 H13 1_555 1_555
N5 C21 1_555 1_555
C22 N5 1_555 1_555
H14 C22 1_555 1_555
H15 C22 1_555 1_555
H16 C22 1_555 1_555
C23 N5 1_555 1_555
H17 C23 1_555 1_555
H18 C23 1_555 1_555
H19 C23 1_555 1_555
Co1C N3 1_555 1_555
Co1C_2 N3F 1_555 1_555
C1F C10 1_555 1_555
C2F C1F 1_555 1_555
H1F C2F 1_555 1_555
C3F C2F 1_555 1_555
H2F C3F 1_555 1_555
C4F C3F 1_555 1_555
C5F C4F 1_555 1_555
C6F C5F 1_555 1_555
C7F C6F 1_555 1_555
H3F C7F 1_555 1_555
C8F C7F 1_555 1_555
H4F C8F 1_555 1_555
C9F C8F 1_555 1_555
C10F C1 1_555 1_555
N1F Co1 1_555 1_555
N2F Co1 1_555 1_555
C11F C5F 1_555 1_555
C12F C11F 1_555 1_555
H5F C12F 1_555 1_555
N3F C12F 1_555 1_555
N3C Co1 1_555 1_555
N3E Co1 1_555 1_555
C13F N3F 1_555 1_555
H6F C13F 1_555 1_555
C14F C13F 1_555 1_555
H7F C14F 1_555 1_555
C15F C11F 1_555 1_555
H8F C15F 1_555 1_555
C16F C10F 1_555 1_555
C17F C16F 1_555 1_555
H9F C17F 1_555 1_555
N4F C17F 1_555 1_555
C18F N4F 1_555 1_555
H10F C18F 1_555 1_555
C19F C18F 1_555 1_555
H11F C19F 1_555 1_555
C20F C16F 1_555 1_555
H12F C20F 1_555 1_555
C4 N1 1_555 1_555
C6 N2 1_555 1_555
C9 N2 1_555 1_555
C14 C15 1_555 1_555
C19 C20 1_555 1_555
C1F N1F 1_555 1_555
C4F N1F 1_555 1_555
C6F N2F 1_555 1_555
C9F C10F 1_555 1_555
C9F N2F 1_555 1_555
C14F C15F 1_555 1_555
C19F C20F 1_555 1_555

#END
