
#######################################################################
#
#                 Cambridge Crystallographic Data Centre
#                                CCDC 
#
#######################################################################
#
# If this CIF has been generated from an entry in the Cambridge 
# Structural Database, then it will include bibliographic, chemical, 
# crystal, experimental, refinement or atomic coordinate data resulting 
# from the CCDC's data processing and validation procedures.
#
#######################################################################

data_UPOTUP
_symmetry_cell_setting           monoclinic
_symmetry_space_group_name_H-M   'P 21/c'
_symmetry_Int_Tables_number      14
_space_group_name_Hall           '-P 2ybc'
loop_
_symmetry_equiv_pos_site_id
_symmetry_equiv_pos_as_xyz
1 x,y,z
2 -x,1/2+y,1/2-z
3 -x,-y,-z
4 x,1/2-y,1/2+z
_cell_length_a                   12.324(4)
_cell_length_b                   22.572(7)
_cell_length_c                   7.147(2)
_cell_angle_alpha                90
_cell_angle_beta                 91.469(5)
_cell_angle_gamma                90
_cell_volume                     1987.48
loop_
_atom_site_label
_atom_site_type_symbol
_atom_site_fract_x
_atom_site_fract_y
_atom_site_fract_z
Cd1 Cd 0.84626(5) 0.34018(3) 0.43606(10)
Cd2 Cd 0.5000 0.0000 1.0000
C1 C 0.6509(6) 0.2840(4) 0.5111(11)
C2 C 0.5447(6) 0.2580(3) 0.5649(11)
C3 C 0.4582(7) 0.2930(3) 0.6069(11)
H1 H 0.4651 0.3340 0.6006
C4 C 0.5331(6) 0.1955(3) 0.5709(11)
H2 H 0.5916 0.1716 0.5406
C5 C 0.4378(6) 0.1695(3) 0.6202(11)
C6 C 0.3566(6) 0.2676(3) 0.6606(10)
C7 C 0.3457(6) 0.2049(3) 0.6695(11)
C8 C 0.2694(7) 0.3041(3) 0.7075(12)
H3 H 0.2771 0.3451 0.7014
C9 C 0.1735(6) 0.2804(4) 0.7619(12)
H4 H 0.1167 0.3052 0.7946
C10 C 0.2436(6) 0.1814(4) 0.7272(11)
H5 H 0.2344 0.1406 0.7362
C11 C 0.1603(6) 0.2180(4) 0.7688(12)
C12 C 0.0532(7) 0.1924(4) 0.8272(13)
O1 O 0.7268(5) 0.2513(3) 0.4584(9)
O2 O 0.6652(5) 0.3399(3) 0.5247(9)
O3 O 0.0407(5) 0.1371(3) 0.8352(11)
O4 O -0.0226(5) 0.2272(3) 0.8664(10)
O5 O 0.5355(5) 0.0699(3) 0.5576(9)
O6 O 0.4205(5) 0.0754(2) 0.8278(8)
O7 O 0.3395(5) 0.0723(3) 0.5142(10)
O8 O 0.3503(6) 0.0034(4) 1.1841(12)
H6 H 0.327(10) 0.037(3) 1.20(2)
H7 H 0.314(9) -0.024(3) 1.17(2)
O9 O 0.5906(6) 0.0633(3) 1.1888(9)
H8 H 0.545(7) 0.070(4) 1.271(12)
H9 H 0.602(8) 0.094(3) 1.126(12)
O10 O 0.7975(8) 0.3568(4) 0.1304(13)
H10 H 0.776(13) 0.395(3) 0.15(2)
H11 H 0.780(13) 0.343(6) 0.029(13)
O11 O 0.8980(8) 0.3326(4) 0.7472(12)
H12 H 0.915(11) 0.300(3) 0.784(18)
H13 H 0.919(11) 0.362(3) 0.801(18)
O12 O 0.8389(8) 0.4402(4) 0.5037(17)
H14 H 0.874(12) 0.461(6) 0.424(15)
H15 H 0.858(13) 0.457(7) 0.609(11)
S1 S 0.43226(18) 0.09094(9) 0.6293(3)
Cd1B Cd 0.15374(5) -0.34018(3) 1.56394(10)
Cd1C Cd -0.15374(5) 0.15982(3) 0.93606(10)
Cd1A Cd 1.15374(5) -0.15982(3) 1.06394(10)
C1B C 0.3491(6) -0.2840(4) 1.4889(11)
C2B C 0.4553(6) -0.2580(3) 1.4351(11)
C3B C 0.5418(7) -0.2930(3) 1.3931(11)
H1B H 0.5349 -0.3340 1.3994
C4B C 0.4669(6) -0.1955(3) 1.4291(11)
H2B H 0.4084 -0.1716 1.4594
C5B C 0.5622(6) -0.1695(3) 1.3798(11)
C6B C 0.6434(6) -0.2676(3) 1.3394(10)
C7B C 0.6543(6) -0.2049(3) 1.3305(11)
C8B C 0.7306(7) -0.3041(3) 1.2925(12)
H3B H 0.7229 -0.3451 1.2986
C9B C 0.8265(6) -0.2804(4) 1.2381(12)
H4B H 0.8833 -0.3052 1.2054
C10B C 0.7564(6) -0.1814(4) 1.2728(11)
H5B H 0.7656 -0.1406 1.2638
C11B C 0.8397(6) -0.2180(4) 1.2312(12)
C12B C 0.9468(7) -0.1924(4) 1.1728(13)
O1B O 0.2732(5) -0.2513(3) 1.5416(9)
O2B O 0.3348(5) -0.3399(3) 1.4753(9)
O3B O 0.9593(5) -0.1371(3) 1.1648(11)
O3C O 1.0407(5) 0.3629(3) 0.3352(11)
O3A O -0.0407(5) -0.3629(3) 1.6648(11)
O4B O 1.0226(5) -0.2272(3) 1.1336(10)
O4C O 0.9774(5) 0.2728(3) 0.3664(10)
O4A O 0.0226(5) -0.2728(3) 1.6336(10)
O5B O 0.4645(5) -0.0699(3) 1.4424(9)
O6B O 0.5795(5) -0.0754(2) 1.1722(8)
O7B O 0.6605(5) -0.0723(3) 1.4858(10)
O8B O 0.6497(6) -0.0034(4) 0.8159(12)
H6B H 0.673(10) -0.037(3) 0.80(2)
H7B H 0.686(9) 0.024(3) 0.83(2)
O9B O 0.4094(6) -0.0633(3) 0.8112(9)
H8B H 0.455(7) -0.070(4) 0.729(12)
H9B H 0.398(8) -0.094(3) 0.874(12)
O10B O 0.2025(8) -0.3568(4) 1.8696(13)
H10B H 0.224(13) -0.395(3) 1.85(2)
H11B H 0.220(13) -0.343(6) 1.971(13)
O11B O 0.1020(8) -0.3326(4) 1.2528(12)
H12B H 0.085(11) -0.300(3) 1.216(18)
H13B H 0.081(11) -0.362(3) 1.199(18)
O12B O 0.1611(8) -0.4402(4) 1.4963(17)
H14B H 0.126(12) -0.461(6) 1.576(15)
H15B H 0.142(13) -0.457(7) 1.391(11)
S1B S 0.56774(18) -0.09094(9) 1.3707(3)
O13 O 0.8093(8) 0.4664(5) -0.0913(15)
O14 O 1.1182(13) 0.4440(5) 0.6152(17)
O15 O 1.0485(16) 0.4311(7) -0.011(2)
loop_
_geom_bond_atom_site_label_1
_geom_bond_atom_site_label_2
_geom_bond_site_symmetry_1
_geom_bond_site_symmetry_2
Cd1 O1 1_555 1_555
Cd2 O6 1_555 1_555
C1 C2 1_555 1_555
C2 C3 1_555 1_555
C3 H1 1_555 1_555
C4 C2 1_555 1_555
H2 C4 1_555 1_555
C5 C4 1_555 1_555
C6 C3 1_555 1_555
C7 C5 1_555 1_555
C8 C6 1_555 1_555
H3 C8 1_555 1_555
C9 C8 1_555 1_555
H4 C9 1_555 1_555
C10 C7 1_555 1_555
H5 C10 1_555 1_555
C11 C9 1_555 1_555
C12 C11 1_555 1_555
O1 C1 1_555 1_555
O2 Cd1 1_555 1_555
O3 C12 1_555 1_555
O4 C12 1_555 1_555
O5 S1 1_555 1_555
O6 S1 1_555 1_555
O7 S1 1_555 1_555
O8 Cd2 1_555 1_555
H6 O8 1_555 1_555
H7 O8 1_555 1_555
O9 Cd2 1_555 1_555
H8 O9 1_555 1_555
H9 O9 1_555 1_555
O10 Cd1 1_555 1_555
H10 O10 1_555 1_555
H11 O10 1_555 1_555
O11 Cd1 1_555 1_555
H12 O11 1_555 1_555
H13 O11 1_555 1_555
O12 Cd1 1_555 1_555
H14 O12 1_555 1_555
H15 O12 1_555 1_555
S1 C5 1_555 1_555
Cd1B O1B 1_555 1_555
Cd1C O3 1_555 1_555
Cd1A O3B 1_555 1_555
C1B C2B 1_555 1_555
C2B C3B 1_555 1_555
C3B H1B 1_555 1_555
C4B C2B 1_555 1_555
H2B C4B 1_555 1_555
C5B C4B 1_555 1_555
C6B C3B 1_555 1_555
C7B C5B 1_555 1_555
C8B C6B 1_555 1_555
H3B C8B 1_555 1_555
C9B C8B 1_555 1_555
H4B C9B 1_555 1_555
C10B C7B 1_555 1_555
H5B C10B 1_555 1_555
C11B C9B 1_555 1_555
C12B C11B 1_555 1_555
O1B C1B 1_555 1_555
O2B Cd1B 1_555 1_555
O3B C12B 1_555 1_555
O3C Cd1 1_555 1_555
O3A Cd1B 1_555 1_555
O4B Cd1A 1_555 1_555
O4C Cd1 1_555 1_555
O4A Cd1B 1_555 1_555
O5B S1B 1_555 1_555
O6B Cd2 1_555 1_555
O7B S1B 1_555 1_555
O8B Cd2 1_555 1_555
H6B O8B 1_555 1_555
H7B O8B 1_555 1_555
O9B Cd2 1_555 1_555
H8B O9B 1_555 1_555
H9B O9B 1_555 1_555
O10B Cd1B 1_555 1_555
H10B O10B 1_555 1_555
H11B O10B 1_555 1_555
O11B Cd1B 1_555 1_555
H12B O11B 1_555 1_555
H13B O11B 1_555 1_555
O12B Cd1B 1_555 1_555
H14B O12B 1_555 1_555
H15B O12B 1_555 1_555
S1B C5B 1_555 1_555
C1 O2 1_555 1_555
C6 C7 1_555 1_555
C10 C11 1_555 1_555
O4 Cd1C 1_555 1_555
C1B O2B 1_555 1_555
C6B C7B 1_555 1_555
C10B C11B 1_555 1_555
C12B O4B 1_555 1_555
O6B S1B 1_555 1_555

#END
