
#######################################################################
#
#                 Cambridge Crystallographic Data Centre
#                                CCDC 
#
#######################################################################
#
# If this CIF has been generated from an entry in the Cambridge 
# Structural Database, then it will include bibliographic, chemical, 
# crystal, experimental, refinement or atomic coordinate data resulting 
# from the CCDC's data processing and validation procedures.
#
#######################################################################

data_UPOTOJ
_symmetry_cell_setting           monoclinic
_symmetry_space_group_name_H-M   'C 2/c'
_symmetry_Int_Tables_number      15
_space_group_name_Hall           '-C 2yn'
loop_
_symmetry_equiv_pos_site_id
_symmetry_equiv_pos_as_xyz
1 x,y,z
2 -x,y,1/2-z
3 1/2+x,1/2+y,z
4 1/2-x,1/2+y,1/2-z
5 -x,-y,-z
6 x,-y,1/2+z
7 1/2-x,1/2-y,-z
8 1/2+x,1/2-y,1/2+z
_cell_length_a                   13.4943(12)
_cell_length_b                   19.3737(18)
_cell_length_c                   27.359(2)
_cell_angle_alpha                90
_cell_angle_beta                 99.539(1)
_cell_angle_gamma                90
_cell_volume                     7053.69
loop_
_atom_site_label
_atom_site_type_symbol
_atom_site_fract_x
_atom_site_fract_y
_atom_site_fract_z
Eu1 Eu 0.64680(2) -0.111201(14) 0.727814(11)
O1 O 0.3580(4) 0.1245(2) 0.50037(17)
O2 O 0.8164(4) 0.1541(2) 0.51422(17)
O3 O 0.5142(3) -0.0390(2) 0.69780(16)
O4 O 0.3518(3) -0.0333(2) 0.70374(14)
O5 O 0.4571(3) 0.4349(2) 0.45654(18)
H1 H 0.4918 0.4682 0.4518
O6 O 0.4936(4) 0.4339(2) 0.53936(19)
O7 O 0.7356(3) -0.0093(2) 0.70467(15)
O8 O 0.7172(3) -0.0948(2) 0.65175(15)
O9 O 0.4697(3) 0.1777(2) 0.32758(16)
O10 O 0.6050(3) 0.1797(2) 0.29141(14)
N1 N 0.8303(4) -0.1213(3) 0.77239(19)
N2 N 0.7360(5) -0.2317(3) 0.7277(2)
C1 C 0.4244(5) -0.0210(3) 0.6817(2)
C2 C 0.4066(4) 0.0175(3) 0.6339(2)
C3 C 0.3128(5) 0.0404(3) 0.6144(2)
H2 H 0.2589 0.0319 0.6307
C4 C 0.2984(6) 0.0769(4) 0.5697(3)
H3 H 0.2345 0.0930 0.5567
C5 C 0.3750(7) 0.0889(3) 0.5454(3)
C6 C 0.4676(6) 0.0651(5) 0.5635(3)
H4 H 0.5206 0.0725 0.5463
C7 C 0.4827(5) 0.0293(4) 0.6083(3)
H5 H 0.5467 0.0132 0.6209
C8 C 0.4623(5) 0.4054(3) 0.4988(3)
C9 C 0.4318(5) 0.3315(3) 0.4980(3)
C10 C 0.4037(5) 0.2939(3) 0.4545(3)
H6 H 0.4030 0.3151 0.4239
C11 C 0.3770(5) 0.2254(3) 0.4567(2)
H7 H 0.3567 0.2009 0.4275
C12 C 0.3803(5) 0.1936(3) 0.5013(2)
C13 C 0.4065(6) 0.2304(3) 0.5445(3)
H8 H 0.4075 0.2089 0.5750
C14 C 0.4311(5) 0.2984(3) 0.5424(3)
H9 H 0.4479 0.3231 0.5717
C15 C 0.7388(4) -0.0325(3) 0.6618(2)
C16 C 0.7637(4) 0.0149(3) 0.6226(2)
C17 C 0.7570(5) -0.0058(3) 0.5748(2)
H10 H 0.7416 -0.0516 0.5665
C18 C 0.7729(6) 0.0404(4) 0.5380(3)
H11 H 0.7677 0.0255 0.5053
C19 C 0.7959(5) 0.1071(3) 0.5497(2)
C20 C 0.8074(5) 0.1288(3) 0.5974(3)
H12 H 0.8254 0.1743 0.6054
C21 C 0.7921(5) 0.0825(3) 0.6344(2)
H13 H 0.8010 0.0971 0.6672
C22 C 0.5642(5) 0.1777(3) 0.3292(2)
C23 C 0.6286(4) 0.1729(3) 0.3788(2)
C24 C 0.5895(5) 0.1568(4) 0.4208(3)
H14 H 0.5207 0.1501 0.4186
C25 C 0.6517(6) 0.1506(4) 0.4663(3)
H15 H 0.6242 0.1404 0.4945
C26 C 0.7517(5) 0.1593(3) 0.4701(2)
C27 C 0.7915(5) 0.1755(4) 0.4291(2)
H16 H 0.8604 0.1819 0.4316
C28 C 0.7301(5) 0.1827(3) 0.3840(2)
H17 H 0.7583 0.1945 0.3563
C29 C 0.8805(6) -0.0667(6) 0.7918(3)
H18 H 0.8478 -0.0245 0.7859
C30 C 0.9761(6) -0.0643(5) 0.8200(3)
H19 H 1.0069 -0.0234 0.8320
C31 C 1.0205(7) -0.1271(4) 0.8287(3)
H20 H 1.0857 -0.1296 0.8461
C32 C 0.9709(4) -0.1872(3) 0.8122(2)
C33 C 1.0121(3) -0.2523(4) 0.82317(17)
H21 H 1.0742 -0.2566 0.8436
C34 C 0.9605(5) -0.3108(3) 0.8036(2)
H22 H 0.9881 -0.3543 0.8110
C35 C 0.8678(5) -0.3042(3) 0.7732(2)
C36 C 0.8266(3) -0.2392(3) 0.76221(17)
C37 C 0.8782(4) -0.1807(3) 0.7817(2)
C38 C 0.8142(7) -0.3577(5) 0.7491(3)
H23 H 0.8413 -0.4014 0.7562
C39 C 0.7247(7) -0.3559(5) 0.7154(4)
H24 H 0.6930 -0.3952 0.7008
C40 C 0.6866(7) -0.2874(4) 0.7058(4)
H25 H 0.6267 -0.2810 0.6840
Eu1A Eu 0.35320(2) -0.111201(14) 0.772186(11)
Eu1D Eu 0.35320(2) 0.111201(14) 0.272186(11)
Eu1E Eu 0.64680(2) 0.111201(14) 0.227814(11)
O4A O 0.6482(3) -0.0333(2) 0.79626(14)
O9D O 0.5303(3) -0.1777(2) 0.67242(16)
O10E O 0.6050(3) -0.1797(2) 0.79141(14)
loop_
_geom_bond_atom_site_label_1
_geom_bond_atom_site_label_2
_geom_bond_site_symmetry_1
_geom_bond_site_symmetry_2
Eu1 O3 1_555 1_555
O1 C5 1_555 1_555
O2 C19 1_555 1_555
O3 C1 1_555 1_555
O4 C1 1_555 1_555
O5 H1 1_555 1_555
O6 C8 1_555 1_555
O7 Eu1 1_555 1_555
O8 Eu1 1_555 1_555
O9 C22 1_555 1_555
O10 C22 1_555 1_555
N1 Eu1 1_555 1_555
N2 Eu1 1_555 1_555
C1 C2 1_555 1_555
C2 C3 1_555 1_555
C3 H2 1_555 1_555
C4 C3 1_555 1_555
H3 C4 1_555 1_555
C5 C4 1_555 1_555
C6 C5 1_555 1_555
H4 C6 1_555 1_555
C7 C2 1_555 1_555
H5 C7 1_555 1_555
C8 O5 1_555 1_555
C9 C8 1_555 1_555
C10 C9 1_555 1_555
H6 C10 1_555 1_555
C11 C10 1_555 1_555
H7 C11 1_555 1_555
C12 O1 1_555 1_555
C13 C12 1_555 1_555
H8 C13 1_555 1_555
C14 C9 1_555 1_555
H9 C14 1_555 1_555
C15 O7 1_555 1_555
C16 C15 1_555 1_555
C17 C16 1_555 1_555
H10 C17 1_555 1_555
C18 C17 1_555 1_555
H11 C18 1_555 1_555
C19 C18 1_555 1_555
C20 C19 1_555 1_555
H12 C20 1_555 1_555
C21 C16 1_555 1_555
H13 C21 1_555 1_555
C22 C23 1_555 1_555
C23 C24 1_555 1_555
C24 H14 1_555 1_555
C25 C24 1_555 1_555
H15 C25 1_555 1_555
C26 O2 1_555 1_555
C27 C26 1_555 1_555
H16 C27 1_555 1_555
C28 C23 1_555 1_555
H17 C28 1_555 1_555
C29 N1 1_555 1_555
H18 C29 1_555 1_555
C30 C29 1_555 1_555
H19 C30 1_555 1_555
C31 C30 1_555 1_555
H20 C31 1_555 1_555
C32 C31 1_555 1_555
C33 C32 1_555 1_555
H21 C33 1_555 1_555
C34 C33 1_555 1_555
H22 C34 1_555 1_555
C35 C34 1_555 1_555
C36 N2 1_555 1_555
C37 N1 1_555 1_555
C38 C35 1_555 1_555
H23 C38 1_555 1_555
C39 C38 1_555 1_555
H24 C39 1_555 1_555
C40 N2 1_555 1_555
H25 C40 1_555 1_555
Eu1A O4 1_555 1_555
Eu1D O9 1_555 1_555
Eu1E O10 1_555 1_555
O4A Eu1 1_555 1_555
O9D Eu1 1_555 1_555
O10E Eu1 1_555 1_555
O8 C15 1_555 1_555
C6 C7 1_555 1_555
C11 C12 1_555 1_555
C13 C14 1_555 1_555
C20 C21 1_555 1_555
C25 C26 1_555 1_555
C27 C28 1_555 1_555
C32 C37 1_555 1_555
C35 C36 1_555 1_555
C36 C37 1_555 1_555
C39 C40 1_555 1_555

#END
