
#######################################################################
#
#                 Cambridge Crystallographic Data Centre
#                                CCDC 
#
#######################################################################
#
# If this CIF has been generated from an entry in the Cambridge 
# Structural Database, then it will include bibliographic, chemical, 
# crystal, experimental, refinement or atomic coordinate data resulting 
# from the CCDC's data processing and validation procedures.
#
#######################################################################

data_UPOVEB
_symmetry_cell_setting           orthorhombic
_symmetry_space_group_name_H-M   'I b a m'
_symmetry_Int_Tables_number      72
_space_group_name_Hall           '-I 2 2c'
loop_
_symmetry_equiv_pos_site_id
_symmetry_equiv_pos_as_xyz
1 x,y,z
2 -x,-y,z
3 1/2-x,1/2+y,-z
4 1/2+x,1/2-y,-z
5 1/2+x,1/2+y,1/2+z
6 1/2-x,1/2-y,1/2+z
7 -x,y,1/2-z
8 x,-y,1/2-z
9 -x,-y,-z
10 x,y,-z
11 1/2+x,1/2-y,z
12 1/2-x,1/2+y,z
13 1/2-x,1/2-y,1/2-z
14 1/2+x,1/2+y,1/2-z
15 x,-y,1/2+z
16 -x,y,1/2+z
_cell_length_a                   14.4094(8)
_cell_length_b                   18.3003(10)
_cell_length_c                   12.9855(7)
_cell_angle_alpha                90
_cell_angle_beta                 90
_cell_angle_gamma                90
_cell_volume                     3424.23
loop_
_atom_site_label
_atom_site_type_symbol
_atom_site_fract_x
_atom_site_fract_y
_atom_site_fract_z
Zn1 Zn 0.0000 1.0000 0.7500
B1 B 0.2684(4) 0.7004(3) 0.5000
C1 C 0.0942(3) 0.6558(2) 0.5000
C2 C 0.0088(3) 0.6901(2) 0.5000
C3 C 0.0299(3) 0.7644(2) 0.5000
C4 C 0.3577(2) 0.72321(17) 0.6735(2)
C5 C 0.3714(2) 0.78216(19) 0.7358(3)
C6 C 0.32171(19) 0.83928(19) 0.6903(2)
C7 C 0.12486(19) 0.90943(14) 0.6010(2)
C8 C 0.2815(3) 0.9442(3) 0.5000
Fe1 Fe 0.20100(4) 0.86135(3) 0.5000
N1 N 0.1615(2) 0.70648(17) 0.5000
N2 N 0.1220(2) 0.77444(17) 0.5000
N3 N 0.30295(17) 0.74289(14) 0.59490(17)
N4 N 0.28040(14) 0.81477(13) 0.60490(18)
N5 N 0.03845(18) 0.93856(14) 0.66015(19)
N6 N 0.3339(3) 0.9903(2) 0.5000
H1 H 0.2892 0.6424 0.5000
H2 H -0.0103 0.8075 0.5000
H3 H -0.0522 0.6646 0.5000
H4 H 0.3142 0.8909 0.7073
H5 H 0.1084 0.6080 0.5000
H6 H 0.3805 0.6750 0.6760
H7 H 0.4032 0.7874 0.7905
B1A B -0.2684(4) 1.2996(3) 0.5000
C1A C -0.0942(3) 1.3442(2) 0.5000
C2A C -0.0088(3) 1.3099(2) 0.5000
C3A C -0.0299(3) 1.2356(2) 0.5000
C4I C 0.3577(2) 0.72321(17) 0.3265(2)
C4A C -0.3577(2) 1.27679(17) 0.6735(2)
C4H C -0.3577(2) 1.27679(17) 0.3265(2)
C5I C 0.3714(2) 0.78216(19) 0.2642(3)
C5A C -0.3714(2) 1.21784(19) 0.7358(3)
C5H C -0.3714(2) 1.21784(19) 0.2642(3)
C6I C 0.32171(19) 0.83928(19) 0.3097(2)
C6A C -0.32171(19) 1.16072(19) 0.6903(2)
C6H C -0.32171(19) 1.16072(19) 0.3097(2)
C7A C -0.12486(19) 1.09057(14) 0.6010(2)
C7F C -0.12486(19) 0.90943(14) 0.8990(2)
C7G C 0.12486(19) 1.09057(14) 0.8990(2)
C7I C 0.12486(19) 0.90943(14) 0.3990(2)
C7H C -0.12486(19) 1.09057(14) 0.3990(2)
C8A C -0.2815(3) 1.0558(3) 0.5000
Fe1A Fe -0.20100(4) 1.13865(3) 0.5000
Fe1F Fe -0.20100(4) 0.86135(3) 1.0000
Fe1G Fe 0.20100(4) 1.13865(3) 1.0000
N1A N -0.1615(2) 1.29352(17) 0.5000
N2A N -0.1220(2) 1.22556(17) 0.5000
N3I N 0.30295(17) 0.74289(14) 0.40510(17)
N3A N -0.30295(17) 1.25711(14) 0.59490(17)
N3H N -0.30295(17) 1.25711(14) 0.40510(17)
N4I N 0.28040(14) 0.81477(13) 0.39510(18)
N4A N -0.28040(14) 1.18523(13) 0.60490(18)
N4H N -0.28040(14) 1.18523(13) 0.39510(18)
N5A N -0.03845(18) 1.06144(14) 0.66015(19)
N5F N -0.03845(18) 0.93856(14) 0.83985(19)
N5G N 0.03845(18) 1.06144(14) 0.83985(19)
N6A N -0.3339(3) 1.0097(2) 0.5000
H1A H -0.2892 1.3576 0.5000
H2A H 0.0103 1.1925 0.5000
H3A H 0.0522 1.3354 0.5000
H4I H 0.3142 0.8909 0.2927
H4A H -0.3142 1.1091 0.7073
H4H H -0.3142 1.1091 0.2927
H5A H -0.1084 1.3920 0.5000
H6I H 0.3805 0.6750 0.3240
H6A H -0.3805 1.3250 0.6760
H6H H -0.3805 1.3250 0.3240
H7I H 0.4032 0.7874 0.2095
H7A H -0.4032 1.2126 0.7905
H7H H -0.4032 1.2126 0.2095
O1 O 0.5904(2) 0.0000 0.7500
H8 H 0.5609 0.0388 0.7352
H8G H 0.5609 -0.0388 0.7648
H9? H 0.5678 -0.0356 0.7164
loop_
_geom_bond_atom_site_label_1
_geom_bond_atom_site_label_2
_geom_bond_site_symmetry_1
_geom_bond_site_symmetry_2
Zn1 N5 1_555 1_555
B1 N1 1_555 1_555
C1 C2 1_555 1_555
C2 C3 1_555 1_555
C3 N2 1_555 1_555
C4 C5 1_555 1_555
C5 C6 1_555 1_555
C6 N4 1_555 1_555
C7 Fe1 1_555 1_555
C8 Fe1 1_555 1_555
Fe1 N2 1_555 1_555
N1 C1 1_555 1_555
N2 N1 1_555 1_555
N3 B1 1_555 1_555
N4 Fe1 1_555 1_555
N5 C7 1_555 1_555
N6 C8 1_555 1_555
H1 B1 1_555 1_555
H2 C3 1_555 1_555
H3 C2 1_555 1_555
H4 C6 1_555 1_555
H5 C1 1_555 1_555
H6 C4 1_555 1_555
H7 C5 1_555 1_555
O1 H8 1_555 1_555
B1A N1A 1_555 1_555
C1A C2A 1_555 1_555
C2A C3A 1_555 1_555
C3A N2A 1_555 1_555
C4I C5I 1_555 1_555
C4A C5A 1_555 1_555
C4H C5H 1_555 1_555
C5I C6I 1_555 1_555
C5A C6A 1_555 1_555
C5H C6H 1_555 1_555
C6I N4I 1_555 1_555
C6A N4A 1_555 1_555
C6H N4H 1_555 1_555
C7A Fe1A 1_555 1_555
C7F Fe1F 1_555 1_555
C7G Fe1G 1_555 1_555
C7I Fe1 1_555 1_555
C7H Fe1A 1_555 1_555
C8A Fe1A 1_555 1_555
Fe1A N2A 1_555 1_555
N1A C1A 1_555 1_555
N2A N1A 1_555 1_555
N3I B1 1_555 1_555
N3A B1A 1_555 1_555
N3H B1A 1_555 1_555
N4I Fe1 1_555 1_555
N4A Fe1A 1_555 1_555
N4H Fe1A 1_555 1_555
N5A Zn1 1_555 1_555
N5F Zn1 1_555 1_555
N5G Zn1 1_555 1_555
N6A C8A 1_555 1_555
H1A B1A 1_555 1_555
H2A C3A 1_555 1_555
H3A C2A 1_555 1_555
H4I C6I 1_555 1_555
H4A C6A 1_555 1_555
H4H C6H 1_555 1_555
H5A C1A 1_555 1_555
H6I C4I 1_555 1_555
H6A C4A 1_555 1_555
H6H C4H 1_555 1_555
H7I C5I 1_555 1_555
H7A C5A 1_555 1_555
H7H C5H 1_555 1_555
H8G O1 1_555 1_555
C4 N3 1_555 1_555
N3 N4 1_555 1_555
C4I N3I 1_555 1_555
C4A N3A 1_555 1_555
C4H N3H 1_555 1_555
C7A N5A 1_555 1_555
C7F N5F 1_555 1_555
C7G N5G 1_555 1_555
N3I N4I 1_555 1_555
N3A N4A 1_555 1_555
N3H N4H 1_555 1_555

#END
