
#######################################################################
#
#                 Cambridge Crystallographic Data Centre
#                                CCDC 
#
#######################################################################
#
# If this CIF has been generated from an entry in the Cambridge 
# Structural Database, then it will include bibliographic, chemical, 
# crystal, experimental, refinement or atomic coordinate data resulting 
# from the CCDC's data processing and validation procedures.
#
#######################################################################

data_UPUCIS
_symmetry_cell_setting           monoclinic
_symmetry_space_group_name_H-M   'C 2/c'
_symmetry_Int_Tables_number      15
_space_group_name_Hall           '-C 2yn'
loop_
_symmetry_equiv_pos_site_id
_symmetry_equiv_pos_as_xyz
1 x,y,z
2 -x,y,1/2-z
3 1/2+x,1/2+y,z
4 1/2-x,1/2+y,1/2-z
5 -x,-y,-z
6 x,-y,1/2+z
7 1/2-x,1/2-y,-z
8 1/2+x,1/2-y,1/2+z
_cell_length_a                   21.190(3)
_cell_length_b                   6.4851(8)
_cell_length_c                   15.277(2)
_cell_angle_alpha                90
_cell_angle_beta                 91.669(4)
_cell_angle_gamma                90
_cell_volume                     2098.46
loop_
_atom_site_label
_atom_site_type_symbol
_atom_site_fract_x
_atom_site_fract_y
_atom_site_fract_z
N1 N 0.31865(10) 0.4645(3) 0.72267(15)
N2 N 0.17753(10) 0.4438(3) 0.73393(15)
N3 N 0.37607(10) 0.3568(3) 1.00087(14)
C1 C 0.27988(12) 0.4716(4) 0.91695(15)
C2 C 0.32333(12) 0.5056(4) 0.99726(17)
H1 H 0.3402 0.6446 0.9958
H2 H 0.2990 0.4920 1.0498
C3 C 0.37143(13) 0.4258(4) 0.7064(2)
C4 C 0.47358(12) 0.0765(4) 1.00062(17)
C5 C 0.42608(15) 0.0621(4) 1.06052(19)
H3 H 0.4270 -0.0431 1.1019
C6 C 0.37772(15) 0.2026(5) 1.05896(19)
H4 H 0.3456 0.1904 1.0989
C7 C 0.47046(15) 0.2369(5) 0.9402(2)
H5 H 0.5013 0.2496 0.8984
C8 C 0.13485(15) 0.3911(4) 0.6900(2)
O1 O 0.09036(15) 0.3322(4) 0.6460(2)
O2 O 0.42351(14) 0.3854(6) 0.6879(3)
C9 C 0.42175(14) 0.3767(5) 0.9423(2)
H6 H 0.4204 0.4859 0.9028
O3 O 0.27430(10) 0.2889(3) 0.88968(12)
O4 O 0.25326(10) 0.6288(3) 0.88719(12)
Mn1 Mn 0.244815(17) 0.69925(5) 0.74703(2)
N1D N 0.68135(10) -0.4645(3) 1.27733(15)
N1C N 0.18135(10) 0.9645(3) 0.77733(15)
N1G N 0.81865(10) -0.9645(3) 1.22267(15)
N2D N 0.82247(10) -0.4438(3) 1.26607(15)
N2C N 0.32247(10) 0.9438(3) 0.76607(15)
N2G N 0.67753(10) -0.9438(3) 1.23393(15)
N3D N 0.62393(10) -0.3568(3) 0.99913(14)
C1D C 0.72012(12) -0.4716(4) 1.08305(15)
C2D C 0.67667(12) -0.5056(4) 1.00274(17)
H1D H 0.6598 -0.6446 1.0042
H2D H 0.7010 -0.4920 0.9502
C3D C 0.62857(13) -0.4258(4) 1.2936(2)
C4D C 0.52642(12) -0.0765(4) 0.99938(17)
C5D C 0.57392(15) -0.0621(4) 0.93948(19)
H3D H 0.5730 0.0431 0.8981
C6D C 0.62228(15) -0.2026(5) 0.94104(19)
H4D H 0.6544 -0.1904 0.9011
C7D C 0.52954(15) -0.2369(5) 1.0598(2)
H5D H 0.4987 -0.2496 1.1016
C8D C 0.86515(15) -0.3911(4) 1.3100(2)
O1D O 0.90964(15) -0.3322(4) 1.3540(2)
O2D O 0.57649(14) -0.3854(6) 1.3121(3)
C9D C 0.57825(14) -0.3767(5) 1.0577(2)
H6D H 0.5796 -0.4859 1.0972
O3D O 0.72570(10) -0.2889(3) 1.11032(12)
O3C O 0.22570(10) 0.7889(3) 0.61032(12)
O3G O 0.77430(10) -0.7889(3) 1.38968(12)
O4D O 0.74674(10) -0.6288(3) 1.11281(12)
Mn1D Mn 0.755185(17) -0.69925(5) 1.25297(2)
Mn1C Mn 0.255185(17) 0.19925(5) 0.75297(2)
Mn1G Mn 0.744815(17) -0.19925(5) 1.24703(2)
loop_
_geom_bond_atom_site_label_1
_geom_bond_atom_site_label_2
_geom_bond_site_symmetry_1
_geom_bond_site_symmetry_2
N1 C3 1_555 1_555
N2 C8 1_555 1_555
N3 C2 1_555 1_555
C1 C2 1_555 1_555
C2 H1 1_555 1_555
H2 C2 1_555 1_555
C3 O2 1_555 1_555
C4 C5 1_555 1_555
C5 H3 1_555 1_555
C6 N3 1_555 1_555
H4 C6 1_555 1_555
C7 C4 1_555 1_555
H5 C7 1_555 1_555
C8 O1 1_555 1_555
C9 N3 1_555 1_555
H6 C9 1_555 1_555
O3 C1 1_555 1_555
O4 C1 1_555 1_555
Mn1 N1 1_555 1_555
N1D C3D 1_555 1_555
N1C Mn1 1_555 1_555
N1G Mn1D 1_555 1_555
N2D C8D 1_555 1_555
N2C Mn1 1_555 1_555
N2G Mn1D 1_555 1_555
N3D C2D 1_555 1_555
C1D C2D 1_555 1_555
C2D H1D 1_555 1_555
H2D C2D 1_555 1_555
C3D O2D 1_555 1_555
C4D C4 1_555 1_555
C5D C4D 1_555 1_555
H3D C5D 1_555 1_555
C6D N3D 1_555 1_555
H4D C6D 1_555 1_555
C7D C4D 1_555 1_555
H5D C7D 1_555 1_555
C8D O1D 1_555 1_555
C9D N3D 1_555 1_555
H6D C9D 1_555 1_555
O3D C1D 1_555 1_555
O3C Mn1 1_555 1_555
O3G Mn1D 1_555 1_555
O4D C1D 1_555 1_555
Mn1D N1D 1_555 1_555
Mn1C N1 1_555 1_555
Mn1G N1D 1_555 1_555
N2 Mn1 1_555 1_555
N2 Mn1C 1_555 1_555
C5 C6 1_555 1_555
C7 C9 1_555 1_555
O3 Mn1C 1_555 1_555
O4 Mn1 1_555 1_555
N2D Mn1D 1_555 1_555
N2D Mn1G 1_555 1_555
C5D C6D 1_555 1_555
C7D C9D 1_555 1_555
O3D Mn1G 1_555 1_555
O4D Mn1D 1_555 1_555

#END
