
#######################################################################
#
#                 Cambridge Crystallographic Data Centre
#                                CCDC 
#
#######################################################################
#
# If this CIF has been generated from an entry in the Cambridge 
# Structural Database, then it will include bibliographic, chemical, 
# crystal, experimental, refinement or atomic coordinate data resulting 
# from the CCDC's data processing and validation procedures.
#
#######################################################################

data_UPUDIT
_symmetry_cell_setting           tetragonal
_symmetry_space_group_name_H-M   'P 42/n b c'
_symmetry_Int_Tables_number      133
_space_group_name_Hall           '-P 4ac 2b'
loop_
_symmetry_equiv_pos_site_id
_symmetry_equiv_pos_as_xyz
1 x,y,z
2 1/2-x,1/2-y,z
3 1/2-y,x,1/2+z
4 y,1/2-x,1/2+z
5 1/2-x,y,-z
6 x,1/2-y,-z
7 y,x,1/2-z
8 1/2-y,1/2-x,1/2-z
9 -x,-y,-z
10 1/2+x,1/2+y,-z
11 1/2+y,-x,1/2-z
12 -y,1/2+x,1/2-z
13 1/2+x,-y,z
14 -x,1/2+y,z
15 -y,-x,1/2+z
16 1/2+y,1/2+x,1/2+z
_cell_length_a                   16.3453(3)
_cell_length_b                   16.3453(3)
_cell_length_c                   22.5738(7)
_cell_angle_alpha                90
_cell_angle_beta                 90
_cell_angle_gamma                90
_cell_volume                     6031.02
loop_
_atom_site_label
_atom_site_type_symbol
_atom_site_fract_x
_atom_site_fract_y
_atom_site_fract_z
Co1 Co 0.35051(4) 0.2500 0.5000
O1 O 0.28380(17) 0.39509(15) 0.59905(10)
O2 O 0.34854(14) 0.27471(17) 0.59349(10)
O3 O 0.2500 0.3328(2) 0.5000
H1 H 0.2429 0.3622 0.4693
N1 N 0.43920(19) 0.3389(2) 0.48143(14)
N2 N 0.5099(3) 0.4282(2) 0.42710(17)
C1 C 0.5106(3) 0.3592(3) 0.51132(18)
C2 C 0.5549(3) 0.4153(3) 0.4776(2)
C3 C 0.6283(4) 0.4493(4) 0.4976(3)
H2 H 0.6568 0.4880 0.4755
C4 C 0.6558(4) 0.4229(5) 0.5506(3)
H3 H 0.7046 0.4442 0.5652
C5 C 0.6140(4) 0.3653(5) 0.5843(3)
H4 H 0.6361 0.3484 0.6203
C6 C 0.5397(3) 0.3323(4) 0.5655(2)
H5 H 0.5112 0.2942 0.5881
C7 C 0.4424(3) 0.3816(3) 0.43183(18)
H6 H 0.4019 0.3796 0.4029
C8 C 0.5335(5) 0.4801(4) 0.3766(3)
H7 H 0.5610 0.5285 0.3914
H8 H 0.4844 0.4979 0.3562
C9 C 0.5883(9) 0.4377(7) 0.3334(5)
H9 H 0.5967 0.4754 0.3008
H10 H 0.6408 0.4314 0.3529
C10 C 0.5705(11) 0.3663(10) 0.3097(7)
H11 H 0.5132 0.3674 0.2985
H12 H 0.5763 0.3251 0.3403
C11 C 0.6151(13) 0.3397(13) 0.2604(10)
H13 H 0.6162 0.3822 0.2311
H14 H 0.5897 0.2918 0.2441
H15 H 0.6700 0.3269 0.2723
C12 C 0.31925(19) 0.3341(2) 0.62171(13)
C13 C 0.32632(19) 0.3326(2) 0.68834(13)
C14 C 0.3790(3) 0.2808(3) 0.71665(16)
H16 H 0.4126 0.2467 0.6944
C15 C 0.2779(3) 0.3832(3) 0.72231(16)
H17 H 0.2431 0.4205 0.7040
Co1A Co 0.14949(4) 0.2500 0.5000
Co1B Co 0.2500 0.35051(4) 1.0000
O1F O 0.39509(15) 0.28380(17) 0.90095(10)
O2F O 0.27471(17) 0.34854(14) 0.90651(10)
O2E O 0.34854(14) 0.22529(17) 0.40651(10)
O3A O 0.2500 0.1672(2) 0.5000
H1D H 0.2571 0.3622 0.5307
H1A H 0.2571 0.1378 0.4693
H1E H 0.2429 0.1378 0.5307
N1E N 0.43920(19) 0.1611(2) 0.51857(14)
N2E N 0.5099(3) 0.0718(2) 0.57290(17)
C1E C 0.5106(3) 0.1408(3) 0.48868(18)
C2E C 0.5549(3) 0.0847(3) 0.5224(2)
C3E C 0.6283(4) 0.0507(4) 0.5024(3)
H2E H 0.6568 0.0120 0.5245
C4E C 0.6558(4) 0.0771(5) 0.4494(3)
H3E H 0.7046 0.0558 0.4348
C5E C 0.6140(4) 0.1347(5) 0.4157(3)
H4E H 0.6361 0.1516 0.3797
C6E C 0.5397(3) 0.1677(4) 0.4345(2)
H5E H 0.5112 0.2058 0.4119
C7E C 0.4424(3) 0.1184(3) 0.56817(18)
H6E H 0.4019 0.1204 0.5971
C8E C 0.5335(5) 0.0199(4) 0.6234(3)
H7E H 0.5610 -0.0285 0.6086
H8E H 0.4844 0.0021 0.6438
C9E C 0.5883(9) 0.0623(7) 0.6666(5)
H9E H 0.5967 0.0246 0.6992
H10E H 0.6408 0.0686 0.6471
C10E C 0.5705(11) 0.1337(10) 0.6903(7)
H11E H 0.5132 0.1326 0.7015
H12E H 0.5763 0.1749 0.6597
C11E C 0.6151(13) 0.1603(13) 0.7396(10)
H13E H 0.6162 0.1178 0.7689
H14E H 0.5897 0.2082 0.7559
H15E H 0.6700 0.1731 0.7277
C12F C 0.3341(2) 0.31925(19) 0.87829(13)
C13F C 0.3326(2) 0.32632(19) 0.81166(13)
C14F C 0.2808(3) 0.3790(3) 0.78335(16)
H16F H 0.2467 0.4126 0.8056
C15F C 0.3832(3) 0.2779(3) 0.77769(16)
H17F H 0.4205 0.2431 0.7960
loop_
_geom_bond_atom_site_label_1
_geom_bond_atom_site_label_2
_geom_bond_site_symmetry_1
_geom_bond_site_symmetry_2
Co1 O2 1_555 1_555
O1 C12 1_555 1_555
O2 C12 1_555 1_555
O3 Co1 1_555 1_555
H1 O3 1_555 1_555
N1 Co1 1_555 1_555
N2 C2 1_555 1_555
C1 N1 1_555 1_555
C2 C1 1_555 1_555
C3 C2 1_555 1_555
H2 C3 1_555 1_555
C4 C3 1_555 1_555
H3 C4 1_555 1_555
C5 C4 1_555 1_555
H4 C5 1_555 1_555
C6 C1 1_555 1_555
H5 C6 1_555 1_555
C7 N1 1_555 1_555
H6 C7 1_555 1_555
C8 N2 1_555 1_555
H7 C8 1_555 1_555
H8 C8 1_555 1_555
C9 C8 1_555 1_555
H9 C9 1_555 1_555
H10 C9 1_555 1_555
C10 C9 1_555 1_555
H11 C10 1_555 1_555
H12 C10 1_555 1_555
C11 C10 1_555 1_555
H13 C11 1_555 1_555
H14 C11 1_555 1_555
H15 C11 1_555 1_555
C12 C13 1_555 1_555
C13 C14 1_555 1_555
C14 H16 1_555 1_555
C15 C13 1_555 1_555
H17 C15 1_555 1_555
Co1A O3 1_555 1_555
Co1B O2F 1_555 1_555
O1F C12F 1_555 1_555
O2F C12F 1_555 1_555
O2E Co1 1_555 1_555
O3A Co1 1_555 1_555
H1D O3 1_555 1_555
H1A O3A 1_555 1_555
H1E O3A 1_555 1_555
N1E Co1 1_555 1_555
N2E C2E 1_555 1_555
C1E N1E 1_555 1_555
C2E C1E 1_555 1_555
C3E C2E 1_555 1_555
H2E C3E 1_555 1_555
C4E C3E 1_555 1_555
H3E C4E 1_555 1_555
C5E C4E 1_555 1_555
H4E C5E 1_555 1_555
C6E C1E 1_555 1_555
H5E C6E 1_555 1_555
C7E N1E 1_555 1_555
H6E C7E 1_555 1_555
C8E N2E 1_555 1_555
H7E C8E 1_555 1_555
H8E C8E 1_555 1_555
C9E C8E 1_555 1_555
H9E C9E 1_555 1_555
H10E C9E 1_555 1_555
C10E C9E 1_555 1_555
H11E C10E 1_555 1_555
H12E C10E 1_555 1_555
C11E C10E 1_555 1_555
H13E C11E 1_555 1_555
H14E C11E 1_555 1_555
H15E C11E 1_555 1_555
C12F C13F 1_555 1_555
C13F C14F 1_555 1_555
C14F C15 1_555 1_555
H16F C14F 1_555 1_555
C15F C14 1_555 1_555
H17F C15F 1_555 1_555
N2 C7 1_555 1_555
C5 C6 1_555 1_555
Co1A O3A 1_555 1_555
N2E C7E 1_555 1_555
C5E C6E 1_555 1_555
C13F C15F 1_555 1_555

#END
