
#######################################################################
#
#                 Cambridge Crystallographic Data Centre
#                                CCDC 
#
#######################################################################
#
# If this CIF has been generated from an entry in the Cambridge 
# Structural Database, then it will include bibliographic, chemical, 
# crystal, experimental, refinement or atomic coordinate data resulting 
# from the CCDC's data processing and validation procedures.
#
#######################################################################

data_UPUDAL
_symmetry_cell_setting           monoclinic
_symmetry_space_group_name_H-M   'C 2/c'
_symmetry_Int_Tables_number      15
_space_group_name_Hall           '-C 2yn'
loop_
_symmetry_equiv_pos_site_id
_symmetry_equiv_pos_as_xyz
1 x,y,z
2 -x,y,1/2-z
3 1/2+x,1/2+y,z
4 1/2-x,1/2+y,1/2-z
5 -x,-y,-z
6 x,-y,1/2+z
7 1/2-x,1/2-y,-z
8 1/2+x,1/2-y,1/2+z
_cell_length_a                   22.403(9)
_cell_length_b                   16.039(6)
_cell_length_c                   13.808(6)
_cell_angle_alpha                90
_cell_angle_beta                 125.262(6)
_cell_angle_gamma                90
_cell_volume                     4051.18
loop_
_atom_site_label
_atom_site_type_symbol
_atom_site_fract_x
_atom_site_fract_y
_atom_site_fract_z
Cd1 Cd 0.27925(3) 0.81683(3) 0.40396(5)
N1 N 0.4087(3) 0.8355(4) 0.5273(5)
C1 C 0.2836(5) 1.1071(5) 0.3759(7)
H1 H 0.2489 1.1481 0.3308
N2 N 0.3120(3) 0.9614(4) 0.4193(5)
C2 C 0.4342(4) 0.9146(5) 0.5546(6)
C3 C 0.3826(4) 0.9823(5) 0.4954(6)
C4 C 0.4062(4) 1.0654(5) 0.5177(6)
C5 C 0.5325(5) 1.0188(6) 0.6608(7)
C6 C 0.5083(4) 0.9329(5) 0.6349(7)
C7 C 0.4823(5) 1.0831(6) 0.6042(7)
N3 N 0.5024(4) 1.1656(4) 0.6263(6)
C8 C 0.4562(5) 0.7743(5) 0.5794(7)
H2 H 0.4392 0.7197 0.5596
C9 C 0.5748(7) 1.1767(7) 0.7094(9)
N4 N 0.6058(4) 1.0330(5) 0.7423(6)
C10 C 0.5580(4) 0.8676(6) 0.6908(7)
H3 H 0.6077 0.8773 0.7450
C11 C 0.2630(4) 1.0229(5) 0.3617(7)
H4 H 0.2137 1.0093 0.3106
C12 C 0.5297(5) 0.7872(6) 0.6619(7)
H5 H 0.5608 0.7418 0.6986
C13 C 0.3538(5) 1.1277(5) 0.4552(7)
H6 H 0.3678 1.1835 0.4686
C14 C 0.6254(5) 1.1117(7) 0.7645(9)
H7 H 0.6746 1.1246 0.8187
C15 C 0.3763(6) 0.4221(5) 0.5198(8)
H8 H 0.4181 0.4275 0.6017
H9 H 0.3377 0.3934 0.5183
C16 C 0.6003(6) 1.2641(6) 0.7414(9)
H10 H 0.6520 1.2648 0.8015
H11 H 0.5755 1.2909 0.7709
H12 H 0.5898 1.2932 0.6725
O1 O 0.3136(3) 0.6803(3) 0.4090(5)
C17 C 0.2785(6) 0.6396(5) 0.4419(7)
O2 O 0.2298(3) 0.6706(4) 0.4436(6)
C18 C 0.3052(6) 0.5541(6) 0.4803(10)
H13 H 0.3297 0.5539 0.5656
H14 H 0.2618 0.5200 0.4474
C19 C 0.3490(8) 0.5116(6) 0.4616(11)
H15 H 0.3918 0.5457 0.4895
H16 H 0.3236 0.5053 0.3765
C20 C 0.3328(6) 0.3503(5) 0.3242(9)
C21 C 0.3966(5) 0.3749(5) 0.4536(8)
H17 H 0.4209 0.3242 0.4973
H18 H 0.4319 0.4073 0.4502
O3 O 0.2748(4) 0.3209(3) 0.3036(5)
O4 O 0.3422(3) 0.3627(3) 0.2445(6)
Cd1F Cd 0.22075(3) 0.68317(3) 0.59604(5)
Cd1C Cd 0.22075(3) 0.31683(3) 0.09604(5)
O2F O 0.2702(3) 0.8294(4) 0.5564(6)
O3C O 0.2252(4) 0.8209(3) 0.1964(5)
O4C O 0.1578(3) 0.8627(3) 0.2555(6)
loop_
_geom_bond_atom_site_label_1
_geom_bond_atom_site_label_2
_geom_bond_site_symmetry_1
_geom_bond_site_symmetry_2
Cd1 N1 1_555 1_555
N1 C2 1_555 1_555
C1 H1 1_555 1_555
N2 Cd1 1_555 1_555
C2 C3 1_555 1_555
C3 N2 1_555 1_555
C4 C3 1_555 1_555
C5 C6 1_555 1_555
C6 C2 1_555 1_555
C7 C4 1_555 1_555
N3 C7 1_555 1_555
C8 N1 1_555 1_555
H2 C8 1_555 1_555
C9 N3 1_555 1_555
N4 C5 1_555 1_555
C10 C6 1_555 1_555
H3 C10 1_555 1_555
C11 C1 1_555 1_555
H4 C11 1_555 1_555
C12 C8 1_555 1_555
H5 C12 1_555 1_555
C13 C1 1_555 1_555
H6 C13 1_555 1_555
C14 C9 1_555 1_555
H7 C14 1_555 1_555
C15 H8 1_555 1_555
H9 C15 1_555 1_555
C16 C9 1_555 1_555
H10 C16 1_555 1_555
H11 C16 1_555 1_555
H12 C16 1_555 1_555
O1 Cd1 1_555 1_555
C17 O1 1_555 1_555
O2 C17 1_555 1_555
C18 C17 1_555 1_555
H13 C18 1_555 1_555
H14 C18 1_555 1_555
C19 C15 1_555 1_555
H15 C19 1_555 1_555
H16 C19 1_555 1_555
C20 C21 1_555 1_555
C21 C15 1_555 1_555
H17 C21 1_555 1_555
H18 C21 1_555 1_555
O3 C20 1_555 1_555
O4 C20 1_555 1_555
Cd1F O2 1_555 1_555
Cd1C O3 1_555 1_555
O2F Cd1 1_555 1_555
O3C Cd1 1_555 1_555
O4C Cd1 1_555 1_555
N2 C11 1_555 1_555
C4 C13 1_555 1_555
C5 C7 1_555 1_555
N4 C14 1_555 1_555
C10 C12 1_555 1_555
C18 C19 1_555 1_555
O4 Cd1C 1_555 1_555

#END
