
#######################################################################
#
#                 Cambridge Crystallographic Data Centre
#                                CCDC 
#
#######################################################################
#
# If this CIF has been generated from an entry in the Cambridge 
# Structural Database, then it will include bibliographic, chemical, 
# crystal, experimental, refinement or atomic coordinate data resulting 
# from the CCDC's data processing and validation procedures.
#
#######################################################################

data_UPUFOB
_symmetry_cell_setting           triclinic
_symmetry_space_group_name_H-M   'P -1'
_symmetry_Int_Tables_number      2
_space_group_name_Hall           '-P 1'
loop_
_symmetry_equiv_pos_site_id
_symmetry_equiv_pos_as_xyz
1 x,y,z
2 -x,-y,-z
_cell_length_a                   8.358(6)
_cell_length_b                   11.121(8)
_cell_length_c                   11.374(8)
_cell_angle_alpha                74.226(11)
_cell_angle_beta                 74.532(11)
_cell_angle_gamma                83.085(12)
_cell_volume                     979.234
loop_
_atom_site_label
_atom_site_type_symbol
_atom_site_fract_x
_atom_site_fract_y
_atom_site_fract_z
Zn1 Zn 0.76064(7) 0.79536(5) 0.74791(6)
N1 N 0.5007(5) 0.7471(4) 0.8394(4)
N2 N 0.7630(5) 0.6068(3) 0.7561(4)
N3 N 1.0234(5) 0.7455(4) 0.6643(4)
N4 N 0.7623(5) -0.0201(3) 0.7456(4)
N5 N 0.7343(5) 0.8271(4) 0.4690(4)
N6 N 0.7673(6) 0.7709(5) 1.0367(5)
O1 O 0.7110(5) 0.8738(4) 0.5628(4)
O2 O 0.7712(6) 0.7138(4) 0.4827(4)
O3 O 0.7158(6) 0.8959(4) 0.3687(4)
O4 O 0.8104(6) 0.7310(4) 0.9393(4)
O5 O 0.7105(13) 0.8746(5) 1.0290(6)
O6 O 0.7817(6) 0.7006(5) 1.1386(4)
C1 C 0.3718(6) 0.8198(5) 0.8869(5)
H1 H 0.3911 0.9018 0.8819
C2 C 0.2130(7) 0.7790(5) 0.9424(5)
H2 H 0.1274 0.8327 0.9729
C3 C 0.1845(7) 0.6572(5) 0.9514(5)
H3 H 0.0787 0.6273 0.9878
C4 C 0.3140(6) 0.5801(5) 0.9062(5)
H4 H 0.2967 0.4971 0.9134
C5 C 0.4703(6) 0.6265(4) 0.8498(4)
C6 C 0.6185(6) 0.5502(4) 0.7985(4)
C7 C 0.6113(6) 0.4279(4) 0.7942(5)
H5 H 0.5104 0.3895 0.8212
C8 C 0.7592(6) 0.3632(4) 0.7484(5)
C9 C 0.9069(6) 0.4248(4) 0.7039(5)
H6 H 1.0058 0.3839 0.6713
C10 C 0.9046(6) 0.5475(4) 0.7087(4)
C11 C 1.0552(6) 0.6234(4) 0.6635(4)
C12 C 1.2131(6) 0.5742(5) 0.6214(5)
H7 H 1.2301 0.4902 0.6204
C13 C 1.3458(7) 0.6509(5) 0.5808(5)
H8 H 1.4534 0.6191 0.5537
C14 C 1.3157(7) 0.7751(5) 0.5812(5)
H9 H 1.4029 0.8286 0.5549
C15 C 1.1541(7) 0.8192(5) 0.6213(5)
H10 H 1.1344 0.9039 0.6185
C16 C 0.7587(6) 0.2289(4) 0.7472(4)
C17 C 0.6250(6) 0.1828(4) 0.7263(5)
H11 H 0.5306 0.2339 0.7159
C18 C 0.6341(6) 0.0603(4) 0.7212(5)
H12 H 0.5483 0.0315 0.6999
C19 C 0.8879(6) 0.0251(4) 0.7716(5)
H13 H 0.9750 -0.0299 0.7922
C20 C 0.8930(6) 0.1485(4) 0.7690(5)
H14 H 0.9852 0.1776 0.7817
Zn1_2 Zn 0.76064(7) -0.20464(5) 0.74791(6)
N4_2 N 0.7623(5) 0.9799(3) 0.7456(4)
loop_
_geom_bond_atom_site_label_1
_geom_bond_atom_site_label_2
_geom_bond_site_symmetry_1
_geom_bond_site_symmetry_2
Zn1 N1 1_555 1_555
N1 C1 1_555 1_555
N2 Zn1 1_555 1_555
N3 Zn1 1_555 1_555
N4 C18 1_555 1_555
N5 O1 1_555 1_555
N6 O4 1_555 1_555
O1 Zn1 1_555 1_555
O2 N5 1_555 1_555
O3 N5 1_555 1_555
O4 Zn1 1_555 1_555
O5 N6 1_555 1_555
O6 N6 1_555 1_555
C1 H1 1_555 1_555
C2 C1 1_555 1_555
H2 C2 1_555 1_555
C3 C2 1_555 1_555
H3 C3 1_555 1_555
C4 C3 1_555 1_555
H4 C4 1_555 1_555
C5 N1 1_555 1_555
C6 N2 1_555 1_555
C7 C6 1_555 1_555
H5 C7 1_555 1_555
C8 C7 1_555 1_555
C9 C8 1_555 1_555
H6 C9 1_555 1_555
C10 N2 1_555 1_555
C11 N3 1_555 1_555
C12 C11 1_555 1_555
H7 C12 1_555 1_555
C13 C12 1_555 1_555
H8 C13 1_555 1_555
C14 C13 1_555 1_555
H9 C14 1_555 1_555
C15 N3 1_555 1_555
H10 C15 1_555 1_555
C16 C8 1_555 1_555
C17 C16 1_555 1_555
H11 C17 1_555 1_555
C18 C17 1_555 1_555
H12 C18 1_555 1_555
C19 N4 1_555 1_555
H13 C19 1_555 1_555
C20 C16 1_555 1_555
H14 C20 1_555 1_555
Zn1_2 N4 1_555 1_555
N4_2 Zn1 1_555 1_555
C4 C5 1_555 1_555
C5 C6 1_555 1_555
C9 C10 1_555 1_555
C10 C11 1_555 1_555
C14 C15 1_555 1_555
C19 C20 1_555 1_555

#END
