
#######################################################################
#
#                 Cambridge Crystallographic Data Centre
#                                CCDC 
#
#######################################################################
#
# If this CIF has been generated from an entry in the Cambridge 
# Structural Database, then it will include bibliographic, chemical, 
# crystal, experimental, refinement or atomic coordinate data resulting 
# from the CCDC's data processing and validation procedures.
#
#######################################################################

data_UPUFAN
_symmetry_cell_setting           triclinic
_symmetry_space_group_name_H-M   'P -1'
_symmetry_Int_Tables_number      2
_space_group_name_Hall           '-P 1'
loop_
_symmetry_equiv_pos_site_id
_symmetry_equiv_pos_as_xyz
1 x,y,z
2 -x,-y,-z
_cell_length_a                   9.4389(19)
_cell_length_b                   11.009(2)
_cell_length_c                   11.192(2)
_cell_angle_alpha                87.87(3)
_cell_angle_beta                 74.63(3)
_cell_angle_gamma                81.22(3)
_cell_volume                     1108.25
loop_
_atom_site_label
_atom_site_type_symbol
_atom_site_fract_x
_atom_site_fract_y
_atom_site_fract_z
Cd1 Cd 0.02070(4) -0.08584(4) 0.34217(3)
Cd2 Cd 0.14196(4) -0.42605(4) 0.36794(3)
O1 O 0.0597(4) -0.1548(4) 0.1342(3)
O2 O 0.1528(5) -0.1127(4) -0.0645(3)
O3 O 0.4780(4) 0.2018(4) -0.0466(3)
H1 H 0.4993 0.2601 -0.0149
O4 O 0.2634(4) 0.2067(4) 0.4231(4)
O5 O 0.1075(4) 0.0711(4) 0.4488(3)
O6 O -0.0304(4) -0.5781(4) 0.4219(3)
O7 O -0.1370(4) -0.7135(4) 0.3465(3)
O8 O 0.1203(5) -0.7001(4) -0.1167(3)
H2 H 0.0827 -0.7630 -0.0993
O9 O 0.3924(4) -0.3689(4) -0.0132(3)
O10 O 0.3218(4) -0.3699(4) 0.1915(3)
O11 O -0.1769(6) 0.0251(6) 0.2951(4)
H3 H -0.2010 0.1006 0.3153
H4 H -0.2278 -0.0084 0.2572
O12 O -0.0796(4) -0.2786(4) 0.3609(3)
H5 H -0.1155 -0.2932 0.2899
H6 H -0.1589 -0.2811 0.4361
O13 O 0.1926(4) -0.2285(4) 0.4133(3)
H7 H 0.1787 -0.2189 0.5016
H8 H 0.2936 -0.2179 0.3705
O14 O 0.3387(5) -0.5337(5) 0.4184(4)
H9 H 0.3623 -0.5144 0.4826
H10 H 0.3901 -0.5935 0.3731
N1 N 0.1849(4) 0.0195(4) 0.2073(4)
N2 N 0.1295(4) -0.5249(4) 0.1979(4)
C1 C 0.1375(6) -0.0974(5) 0.0458(5)
C2 C 0.2163(5) -0.0015(5) 0.0846(5)
C3 C 0.3119(6) 0.0604(5) -0.0008(5)
H11 H 0.3287 0.0454 -0.0850
C4 C 0.3834(6) 0.1455(5) 0.0388(5)
C5 C 0.3518(5) 0.1678(5) 0.1659(5)
H12 H 0.3973 0.2247 0.1959
C6 C 0.2516(5) 0.1036(5) 0.2458(5)
C7 C 0.2058(5) 0.1289(5) 0.3842(5)
C8 C -0.0522(5) -0.6365(5) 0.3338(5)
C9 C 0.0382(5) -0.6089(5) 0.2054(4)
C10 C 0.0297(5) -0.6704(5) 0.1029(5)
H13 H -0.0351 -0.7277 0.1105
C11 C 0.1207(6) -0.6445(5) -0.0124(4)
C12 C 0.2157(5) -0.5584(5) -0.0185(5)
H14 H 0.2780 -0.5396 -0.0941
C13 C 0.2168(5) -0.5021(5) 0.0870(5)
C14 C 0.3178(6) -0.4062(5) 0.0896(5)
Cd1A Cd -0.02070(4) 0.08584(4) 0.65783(3)
Cd2A Cd -0.14196(4) -0.57395(4) 0.63206(3)
O5A O -0.1075(4) -0.0711(4) 0.5512(3)
O6A O 0.0304(4) -0.4219(4) 0.5781(3)
O15 O 0.4753(5) -0.1912(5) 0.3037(4)
H15 H 0.4868 -0.1961 0.2258
H16 H 0.4031 -0.1369 0.3413
O16 O 0.6490(6) -0.4052(6) 0.3478(5)
H17 H 0.5828 -0.4107 0.4166
H18 H 0.6511 -0.4570 0.2923
O17 O 0.3952(6) -0.3545(7) 0.7424(5)
H19 H 0.4017 -0.2786 0.7425
H20 H 0.3803 -0.3902 0.8131
O18 O 0.5385(8) -0.9663(9) 0.3873(9)
loop_
_geom_bond_atom_site_label_1
_geom_bond_atom_site_label_2
_geom_bond_site_symmetry_1
_geom_bond_site_symmetry_2
Cd1 O1 1_555 1_555
Cd2 O6 1_555 1_555
O1 C1 1_555 1_555
O2 C1 1_555 1_555
O3 H1 1_555 1_555
O4 C7 1_555 1_555
O5 Cd1 1_555 1_555
O6 C8 1_555 1_555
O7 C8 1_555 1_555
O8 H2 1_555 1_555
O9 C14 1_555 1_555
O10 Cd2 1_555 1_555
O11 Cd1 1_555 1_555
H3 O11 1_555 1_555
H4 O11 1_555 1_555
O12 Cd1 1_555 1_555
H5 O12 1_555 1_555
H6 O12 1_555 1_555
O13 Cd1 1_555 1_555
H7 O13 1_555 1_555
H8 O13 1_555 1_555
O14 Cd2 1_555 1_555
H9 O14 1_555 1_555
H10 O14 1_555 1_555
N1 Cd1 1_555 1_555
N2 Cd2 1_555 1_555
C1 C2 1_555 1_555
C2 N1 1_555 1_555
C3 C2 1_555 1_555
H11 C3 1_555 1_555
C4 O3 1_555 1_555
C5 C4 1_555 1_555
H12 C5 1_555 1_555
C6 N1 1_555 1_555
C7 O5 1_555 1_555
C8 C9 1_555 1_555
C9 N2 1_555 1_555
C10 C9 1_555 1_555
H13 C10 1_555 1_555
C11 O8 1_555 1_555
C12 C11 1_555 1_555
H14 C12 1_555 1_555
C13 N2 1_555 1_555
C14 O10 1_555 1_555
O15 H15 1_555 1_555
H16 O15 1_555 1_555
O16 H17 1_555 1_555
H18 O16 1_555 1_555
O17 H19 1_555 1_555
H20 O17 1_555 1_555
Cd1A O5 1_555 1_555
Cd2A O6 1_555 1_555
O5A Cd1 1_555 1_555
O6A Cd2 1_555 1_555
Cd2 O12 1_555 1_555
Cd2 O13 1_555 1_555
C3 C4 1_555 1_555
C5 C6 1_555 1_555
C6 C7 1_555 1_555
C10 C11 1_555 1_555
C12 C13 1_555 1_555
C13 C14 1_555 1_555
Cd1A O5A 1_555 1_555
Cd2A O6A 1_555 1_555

#END
