
#######################################################################
#
#                 Cambridge Crystallographic Data Centre
#                                CCDC 
#
#######################################################################
#
# If this CIF has been generated from an entry in the Cambridge 
# Structural Database, then it will include bibliographic, chemical, 
# crystal, experimental, refinement or atomic coordinate data resulting 
# from the CCDC's data processing and validation procedures.
#
#######################################################################

data_UPUGES
_symmetry_cell_setting           monoclinic
_symmetry_space_group_name_H-M   'C 2/c'
_symmetry_Int_Tables_number      15
_space_group_name_Hall           '-C 2yn'
loop_
_symmetry_equiv_pos_site_id
_symmetry_equiv_pos_as_xyz
1 x,y,z
2 -x,y,1/2-z
3 1/2+x,1/2+y,z
4 1/2-x,1/2+y,1/2-z
5 -x,-y,-z
6 x,-y,1/2+z
7 1/2-x,1/2-y,-z
8 1/2+x,1/2-y,1/2+z
_cell_length_a                   17.224(2)
_cell_length_b                   20.306(3)
_cell_length_c                   7.8501(10)
_cell_angle_alpha                90
_cell_angle_beta                 112.5620(10)
_cell_angle_gamma                90
_cell_volume                     2535.44
loop_
_atom_site_label
_atom_site_type_symbol
_atom_site_fract_x
_atom_site_fract_y
_atom_site_fract_z
Co1 Co 0.0000 0.0000 0.0000
O1 O 0.0000 0.04369(7) 0.2500
H1 H 0.0423 0.0671 0.2618
O2 O -0.07466(7) 0.07307(6) -0.15809(15)
H2 H -0.0618 0.1121 -0.1348
H3 H -0.0881 0.0653 -0.2704
O3 O 0.10855(7) 0.05673(6) 0.02578(14)
O4 O 0.12889(8) 0.11325(6) 0.28214(16)
O5 O 0.32685(8) 0.29434(7) 0.44844(19)
H4 H 0.3539 0.3220 0.5240
O6 O 0.44126(8) 0.29302(7) 0.3807(2)
C1 C 0.14922(10) 0.09825(8) 0.1490(2)
C2 C 0.22540(9) 0.13071(8) 0.1357(2)
C3 C 0.26128(10) 0.10734(8) 0.0147(2)
H5 H 0.2371 0.0713 -0.0598
C4 C 0.33224(10) 0.13659(8) 0.0029(2)
C5 C 0.36755(10) 0.19050(8) 0.1183(2)
H6 H 0.4151 0.2108 0.1138
C6 C 0.33253(10) 0.21402(8) 0.2391(2)
C7 C 0.26122(10) 0.18447(8) 0.2475(2)
H7 H 0.2376 0.2007 0.3277
C8 C 0.37417(11) 0.11113(9) -0.1259(2)
C9 C 0.32275(16) 0.05665(13) -0.2542(3)
H8 H 0.2673 0.0727 -0.3254
H9 H 0.3190 0.0195 -0.1821
H10 H 0.3497 0.0436 -0.3356
C10 C 0.38522(13) 0.16793(11) -0.2430(3)
H11 H 0.4111 0.1518 -0.3235
H12 H 0.4202 0.2013 -0.1637
H13 H 0.3312 0.1864 -0.3153
C11 C 0.46120(14) 0.08407(11) -0.0073(3)
H14 H 0.4880 0.0677 -0.0859
H15 H 0.4554 0.0490 0.0688
H16 H 0.4948 0.1186 0.0694
C12 C 0.37311(10) 0.27073(8) 0.3619(2)
Co1A Co 0.0000 0.0000 0.5000
O1D O 0.0000 -0.04369(7) -0.2500
H1A H -0.0423 0.0671 0.2382
O2D O 0.07466(7) -0.07307(6) 0.15809(15)
H2D H 0.0618 -0.1121 0.1348
H3D H 0.0881 -0.0653 0.2704
O3D O -0.10855(7) -0.05673(6) -0.02578(14)
O4D O -0.12889(8) -0.11325(6) -0.28214(16)
O5D O -0.32685(8) -0.29434(7) -0.44844(19)
H4D H -0.3539 -0.3220 -0.5240
O6D O -0.44126(8) -0.29302(7) -0.3807(2)
C1D C -0.14922(10) -0.09825(8) -0.1490(2)
C2D C -0.22540(9) -0.13071(8) -0.1357(2)
C3D C -0.26128(10) -0.10734(8) -0.0147(2)
H5D H -0.2371 -0.0713 0.0598
C4D C -0.33224(10) -0.13659(8) -0.0029(2)
C5D C -0.36755(10) -0.19050(8) -0.1183(2)
H6D H -0.4151 -0.2108 -0.1138
C6D C -0.33253(10) -0.21402(8) -0.2391(2)
C7D C -0.26122(10) -0.18447(8) -0.2475(2)
H7D H -0.2376 -0.2007 -0.3277
C8D C -0.37417(11) -0.11113(9) 0.1259(2)
C9D C -0.32275(16) -0.05665(13) 0.2542(3)
H8D H -0.2673 -0.0727 0.3254
H9D H -0.3190 -0.0195 0.1821
H10D H -0.3497 -0.0436 0.3356
C10D C -0.38522(13) -0.16793(11) 0.2430(3)
H11D H -0.4111 -0.1518 0.3235
H12D H -0.4202 -0.2013 0.1637
H13D H -0.3312 -0.1864 0.3153
C11D C -0.46120(14) -0.08407(11) 0.0073(3)
H14D H -0.4880 -0.0677 0.0859
H15D H -0.4554 -0.0490 -0.0688
H16D H -0.4948 -0.1186 -0.0694
C12D C -0.37311(10) -0.27073(8) -0.3619(2)
loop_
_geom_bond_atom_site_label_1
_geom_bond_atom_site_label_2
_geom_bond_site_symmetry_1
_geom_bond_site_symmetry_2
Co1 O1 1_555 1_555
O1 H1 1_555 1_555
O2 Co1 1_555 1_555
H2 O2 1_555 1_555
H3 O2 1_555 1_555
O3 Co1 1_555 1_555
O4 C1 1_555 1_555
O5 H4 1_555 1_555
O6 C12 1_555 1_555
C1 O3 1_555 1_555
C2 C1 1_555 1_555
C3 C2 1_555 1_555
H5 C3 1_555 1_555
C4 C3 1_555 1_555
C5 C4 1_555 1_555
H6 C5 1_555 1_555
C6 C5 1_555 1_555
C7 C2 1_555 1_555
H7 C7 1_555 1_555
C8 C4 1_555 1_555
C9 C8 1_555 1_555
H8 C9 1_555 1_555
H9 C9 1_555 1_555
H10 C9 1_555 1_555
C10 C8 1_555 1_555
H11 C10 1_555 1_555
H12 C10 1_555 1_555
H13 C10 1_555 1_555
C11 C8 1_555 1_555
H14 C11 1_555 1_555
H15 C11 1_555 1_555
H16 C11 1_555 1_555
C12 O5 1_555 1_555
Co1A O1 1_555 1_555
O1D Co1 1_555 1_555
H1A O1 1_555 1_555
O2D Co1 1_555 1_555
H2D O2D 1_555 1_555
H3D O2D 1_555 1_555
O3D Co1 1_555 1_555
O4D C1D 1_555 1_555
O5D H4D 1_555 1_555
O6D C12D 1_555 1_555
C1D O3D 1_555 1_555
C2D C1D 1_555 1_555
C3D C2D 1_555 1_555
H5D C3D 1_555 1_555
C4D C3D 1_555 1_555
C5D C4D 1_555 1_555
H6D C5D 1_555 1_555
C6D C5D 1_555 1_555
C7D C2D 1_555 1_555
H7D C7D 1_555 1_555
C8D C4D 1_555 1_555
C9D C8D 1_555 1_555
H8D C9D 1_555 1_555
H9D C9D 1_555 1_555
H10D C9D 1_555 1_555
C10D C8D 1_555 1_555
H11D C10D 1_555 1_555
H12D C10D 1_555 1_555
H13D C10D 1_555 1_555
C11D C8D 1_555 1_555
H14D C11D 1_555 1_555
H15D C11D 1_555 1_555
H16D C11D 1_555 1_555
C12D O5D 1_555 1_555
C6 C7 1_555 1_555
C6 C12 1_555 1_555
C6D C7D 1_555 1_555
C6D C12D 1_555 1_555

#END
