
#######################################################################
#
#                 Cambridge Crystallographic Data Centre
#                                CCDC 
#
#######################################################################
#
# If this CIF has been generated from an entry in the Cambridge 
# Structural Database, then it will include bibliographic, chemical, 
# crystal, experimental, refinement or atomic coordinate data resulting 
# from the CCDC's data processing and validation procedures.
#
#######################################################################

data_UPUGIW
_symmetry_cell_setting           monoclinic
_symmetry_space_group_name_H-M   'P 21/n'
_symmetry_Int_Tables_number      14
_space_group_name_Hall           '-P 2yn'
loop_
_symmetry_equiv_pos_site_id
_symmetry_equiv_pos_as_xyz
1 x,y,z
2 1/2-x,1/2+y,1/2-z
3 -x,-y,-z
4 1/2+x,1/2-y,1/2+z
_cell_length_a                   16.2996(14)
_cell_length_b                   14.3332(12)
_cell_length_c                   25.247(2)
_cell_angle_alpha                90
_cell_angle_beta                 103.4050(10)
_cell_angle_gamma                90
_cell_volume                     5737.64
loop_
_atom_site_label
_atom_site_type_symbol
_atom_site_fract_x
_atom_site_fract_y
_atom_site_fract_z
C1 C 0.8446(5) 0.2074(5) 0.9727(3)
H1 H 0.8056 0.1822 0.9434
C2 C 0.8926(7) 0.1440(6) 1.0104(4)
H2 H 0.8888 0.0797 1.0055
C3 C 0.9461(5) 0.1852(5) 1.0556(3)
C4 C 0.9993(4) 0.1187(4) 1.0969(3)
C5 C 1.0719(5) 0.0764(6) 1.0884(4)
H3 H 1.0872 0.0843 1.0554
C6 C 1.1218(5) 0.0224(7) 1.1292(6)
H4 H 1.1704 -0.0058 1.1235
C7 C 1.0990(7) 0.0107(6) 1.1785(4)
H5 H 1.1324 -0.0254 1.2058
C8 C 1.0264(8) 0.0529(7) 1.1870(3)
H6 H 1.0111 0.0450 1.2200
C9 C 0.9765(6) 0.1069(6) 1.1462(3)
H7 H 0.9279 0.1351 1.1519
C10 C 0.9540(4) 0.2834(4) 1.0619(3)
C11 C 1.0054(4) 0.3274(5) 1.1082(3)
H8 H 1.0390 0.2921 1.1358
C12 C 1.0049(4) 0.4245(5) 1.1115(3)
H9 H 1.0401 0.4536 1.1411
C13 C 0.9541(4) 0.4783(5) 1.0724(3)
C14 C 0.9494(4) 0.5788(5) 1.0763(3)
C15 C 0.9850(4) 0.6309(5) 1.1265(3)
C16 C 0.9732(6) 0.6015(7) 1.1755(4)
H10 H 0.9456 0.5455 1.1783
C17 C 1.0049(7) 0.6596(8) 1.2241(5)
H11 H 0.9932 0.6444 1.2574
C18 C 1.0531(6) 0.7382(7) 1.2188(6)
H12 H 1.0771 0.7738 1.2492
C19 C 1.0653(6) 0.7638(8) 1.1665(7)
H13 H 1.0963 0.8170 1.1630
C20 C 1.0323(5) 0.7113(6) 1.1217(4)
H14 H 1.0410 0.7285 1.0879
C21 C 0.9042(4) 0.6259(5) 1.0303(3)
H15 H 0.8995 0.6905 1.0313
C22 C 0.8653(4) 0.5771(4) 0.9822(3)
H16 H 0.8401 0.6106 0.9511
C23 C 0.9079(4) 0.4364(4) 1.0239(3)
C24 C 0.9039(4) 0.3371(4) 1.0203(3)
C25 C 0.4796(5) 0.6068(6) 0.8117(3)
H17 H 0.5276 0.6327 0.8037
C26 C 0.4014(5) 0.6507(5) 0.7962(4)
H18 H 0.4001 0.7103 0.7814
C27 C 0.3260(4) 0.6127(5) 0.8010(3)
C28 C 0.2445(5) 0.6568(6) 0.7783(4)
C29 C 0.2293(7) 0.7526(7) 0.7874(5)
H19 H 0.2718 0.7898 0.8079
C30 C 0.1515(10) 0.7889(8) 0.7656(6)
H20 H 0.1410 0.8505 0.7735
C31 C 0.0913(7) 0.7412(14) 0.7343(7)
H21 H 0.0392 0.7689 0.7204
C32 C 0.1052(6) 0.6461(10) 0.7211(6)
H22 H 0.0637 0.6124 0.6972
C33 C 0.1803(6) 0.6068(7) 0.7443(4)
H23 H 0.1892 0.5443 0.7374
C34 C 0.3320(4) 0.5265(4) 0.8288(3)
C35 C 0.2618(4) 0.4806(7) 0.8441(4)
H24 H 0.2090 0.5088 0.8346
C36 C 0.2689(4) 0.4013(5) 0.8706(3)
H25 H 0.2223 0.3778 0.8816
C37 C 0.3461(4) 0.3497(5) 0.8832(3)
C38 C 0.3568(4) 0.2595(5) 0.9073(3)
C39 C 0.2846(5) 0.2051(5) 0.9147(3)
C40 C 0.2161(5) 0.1902(6) 0.8694(4)
H26 H 0.2162 0.2155 0.8355
C41 C 0.1487(5) 0.1369(7) 0.8772(5)
H27 H 0.1027 0.1283 0.8480
C42 C 0.1473(6) 0.0971(8) 0.9255(6)
H28 H 0.1025 0.0589 0.9285
C43 C 0.2134(8) 0.1135(8) 0.9712(6)
H29 H 0.2117 0.0892 1.0051
C44 C 0.2798(5) 0.1657(6) 0.9646(4)
H30 H 0.3241 0.1758 0.9947
C45 C 0.4394(4) 0.2239(4) 0.9208(3)
H31 H 0.4486 0.1651 0.9366
C46 C 0.5075(4) 0.2738(5) 0.9116(3)
H32 H 0.5614 0.2491 0.9232
C47 C 0.4195(3) 0.3923(4) 0.8731(3)
C48 C 0.4105(4) 0.4837(4) 0.8471(3)
C49 C 0.7391(3) 0.5493(4) 0.8402(2)
C50 C 0.7689(3) 0.6174(4) 0.8031(3)
C51 C 0.8067(4) 0.5830(4) 0.7637(3)
H33 H 0.8201 0.5199 0.7640
C52 C 0.8254(4) 0.6393(4) 0.7238(3)
C53 C 0.8051(3) 0.7340(4) 0.7226(2)
C54 C 0.7700(4) 0.7681(4) 0.7634(3)
H34 H 0.7572 0.8314 0.7632
C55 C 0.7528(4) 0.7135(4) 0.8042(2)
C56 C 0.7247(4) 0.7560(5) 0.8500(3)
C57 C 0.8716(6) 0.5962(5) 0.6839(4)
C58 C 0.8143(4) 0.7994(4) 0.6764(2)
C59 C 0.5873(5) 0.6448(5) 0.9527(3)
C60 C 0.5431(4) 0.5681(4) 0.9771(3)
C61 C 0.5803(4) 0.4807(4) 0.9945(3)
C62 C 0.6676(4) 0.4485(4) 0.9879(3)
C63 C 0.4628(4) 0.5848(5) 0.9815(3)
H35 H 0.4364 0.6404 0.9684
N1 N 0.8501(3) 0.2999(4) 0.9755(2)
N2 N 0.8641(3) 0.4842(4) 0.9806(2)
N3 N 0.4830(3) 0.5243(4) 0.8390(2)
N4 N 0.4979(3) 0.3547(3) 0.8869(2)
O1 O 0.7943(3) 0.4920(3) 0.86391(19)
O2 O 0.6626(3) 0.5507(3) 0.8403(2)
O3 O 0.7471(3) 0.7264(3) 0.89668(19)
O4 O 0.6749(7) 0.8283(7) 0.8365(3)
H36 H 0.6785 0.8476 0.8066
O5 O 0.7577(3) 0.7981(3) 0.63479(18)
O6 O 0.8790(3) 0.8507(3) 0.68509(19)
O7 O 0.8895(4) 0.6360(4) 0.6468(3)
O8 O 0.9154(5) 0.5206(5) 0.7047(3)
H37 H 0.8893 0.4735 0.6922
O9 O 0.6681(3) 0.6349(4) 0.9629(2)
O10 O 0.5513(3) 0.7074(4) 0.9289(3)
O11 O 0.7229(3) 0.4318(4) 1.0272(2)
O12 O 0.6730(2) 0.4337(3) 0.93719(18)
Zn1 Zn 0.78422(4) 0.39923(5) 0.92281(3)
Zn2 Zn 0.59092(4) 0.44415(5) 0.86442(3)
C1A C 0.6554(5) -0.2926(5) 0.5273(3)
H1A H 0.6944 -0.3178 0.5566
C2A C 0.6074(7) -0.3560(6) 0.4896(4)
H2A H 0.6112 -0.4203 0.4945
C3A C 0.5539(5) -0.3148(5) 0.4444(3)
C4A C 0.5007(4) -0.3813(4) 0.4031(3)
C5A C 0.4281(5) -0.4236(6) 0.4116(4)
H3A H 0.4128 -0.4157 0.4446
C6A C 0.3782(5) -0.4776(7) 0.3708(6)
H4A H 0.3296 -0.5058 0.3765
C7A C 0.4010(7) -0.4893(6) 0.3215(4)
H5A H 0.3676 -0.5254 0.2942
C8A C 0.4736(8) -0.4471(7) 0.3130(3)
H6A H 0.4889 -0.4550 0.2800
C9A C 0.5235(6) -0.3931(6) 0.3538(3)
H7A H 0.5721 -0.3649 0.3481
C10A C 0.5460(4) -0.2166(4) 0.4381(3)
C11A C 0.4946(4) -0.1726(5) 0.3918(3)
H8A H 0.4610 -0.2079 0.3642
C12A C 0.4951(4) -0.0755(5) 0.3885(3)
H9A H 0.4599 -0.0464 0.3589
C13A C 0.5459(4) -0.0217(5) 0.4276(3)
C14A C 0.5506(4) 0.0788(5) 0.4237(3)
C15A C 0.5150(4) 0.1309(5) 0.3735(3)
C16A C 0.5268(6) 0.1015(7) 0.3245(4)
H10A H 0.5544 0.0455 0.3217
C17A C 0.4951(7) 0.1596(8) 0.2759(5)
H11A H 0.5068 0.1444 0.2426
C18A C 0.4469(6) 0.2382(7) 0.2812(6)
H12A H 0.4229 0.2738 0.2508
C19A C 0.4347(6) 0.2638(8) 0.3335(7)
H13A H 0.4037 0.3170 0.3370
C20A C 0.4677(5) 0.2113(6) 0.3783(4)
H14A H 0.4590 0.2285 0.4121
C21A C 0.5958(4) 0.1259(5) 0.4697(3)
H15A H 0.6005 0.1905 0.4687
C22A C 0.6347(4) 0.0771(4) 0.5178(3)
H16A H 0.6599 0.1106 0.5489
C23A C 0.5921(4) -0.0636(4) 0.4761(3)
C24A C 0.5961(4) -0.1629(4) 0.4797(3)
C25A C 1.0204(5) 0.1068(6) 0.6883(3)
H17A H 0.9724 0.1327 0.6963
C26A C 1.0986(5) 0.1507(5) 0.7038(4)
H18A H 1.0999 0.2103 0.7186
C27A C 1.1740(4) 0.1127(5) 0.6990(3)
C28A C 1.2555(5) 0.1568(6) 0.7217(4)
C29A C 1.2707(7) 0.2526(7) 0.7126(5)
H19A H 1.2282 0.2898 0.6921
C30A C 1.3485(10) 0.2889(8) 0.7344(6)
H20A H 1.3590 0.3505 0.7265
C31A C 1.4087(7) 0.2412(14) 0.7657(7)
H21A H 1.4608 0.2689 0.7796
C32A C 1.3948(6) 0.1461(10) 0.7789(6)
H22A H 1.4363 0.1124 0.8028
C33A C 1.3197(6) 0.1068(7) 0.7557(4)
H23A H 1.3108 0.0443 0.7626
C34A C 1.1680(4) 0.0265(4) 0.6712(3)
C35A C 1.2382(4) -0.0194(7) 0.6559(4)
H24A H 1.2910 0.0088 0.6654
C36A C 1.2311(4) -0.0987(5) 0.6294(3)
H25A H 1.2777 -0.1222 0.6184
C37A C 1.1539(4) -0.1503(5) 0.6168(3)
C38A C 1.1432(4) -0.2405(5) 0.5927(3)
C39A C 1.2154(5) -0.2949(5) 0.5853(3)
C40A C 1.2839(5) -0.3098(6) 0.6306(4)
H26A H 1.2838 -0.2845 0.6645
C41A C 1.3513(5) -0.3631(7) 0.6228(5)
H27A H 1.3973 -0.3717 0.6520
C42A C 1.3527(6) -0.4029(8) 0.5745(6)
H28A H 1.3975 -0.4411 0.5715
C43A C 1.2866(8) -0.3865(8) 0.5288(6)
H29A H 1.2883 -0.4108 0.4949
C44A C 1.2202(5) -0.3343(6) 0.5354(4)
H30A H 1.1759 -0.3242 0.5053
C45A C 1.0606(4) -0.2761(4) 0.5792(3)
H31A H 1.0514 -0.3349 0.5634
C46A C 0.9925(4) -0.2262(5) 0.5884(3)
H32A H 0.9386 -0.2509 0.5768
C47A C 1.0805(3) -0.1077(4) 0.6269(3)
C48A C 1.0895(4) -0.0163(4) 0.6529(3)
C49A C 0.7609(3) 0.0493(4) 0.6598(2)
C50A C 0.7311(3) 0.1174(4) 0.6969(3)
C51A C 0.6933(4) 0.0830(4) 0.7363(3)
H33A H 0.6799 0.0199 0.7360
C52A C 0.6746(4) 0.1393(4) 0.7762(3)
C53A C 0.6949(3) 0.2340(4) 0.7774(2)
C54A C 0.7300(4) 0.2681(4) 0.7366(3)
H34A H 0.7428 0.3314 0.7368
C55A C 0.7472(4) 0.2135(4) 0.6958(2)
C56A C 0.7753(4) 0.2560(5) 0.6500(3)
C57A C 0.6284(6) 0.0962(5) 0.8161(4)
C58A C 0.6857(4) 0.2994(4) 0.8236(2)
C59B C 0.4127(5) 0.3552(5) 1.0473(3)
C60B C 0.4569(4) 0.4319(4) 1.0229(3)
C61B C 0.4197(4) 0.5193(4) 1.0055(3)
C62B C 0.3324(4) 0.5515(4) 1.0121(3)
C63B C 0.5372(4) 0.4152(5) 1.0185(3)
H35B H 0.5636 0.3596 1.0316
N1A N 0.6499(3) -0.2001(4) 0.5245(2)
N2A N 0.6359(3) -0.0158(4) 0.5194(2)
N3A N 1.0170(3) 0.0243(4) 0.6610(2)
N4A N 1.0021(3) -0.1453(3) 0.6131(2)
O1A O 0.7057(3) -0.0080(3) 0.63609(19)
O2A O 0.8374(3) 0.0507(3) 0.6597(2)
O3A O 0.7529(3) 0.2264(3) 0.60332(19)
O4A O 0.8251(7) 0.3283(7) 0.6635(3)
H36A H 0.8215 0.3476 0.6934
O5A O 0.7423(3) 0.2981(3) 0.86521(18)
O5_2 O 0.7577(3) -0.2019(3) 0.63479(18)
O6A O 0.6210(3) 0.3507(3) 0.81491(19)
O6_2 O 0.8790(3) -0.1493(3) 0.68509(19)
O7A O 0.6105(4) 0.1360(4) 0.8532(3)
O8A O 0.5846(5) 0.0206(5) 0.7953(3)
H37A H 0.6107 -0.0265 0.8078
O9B O 0.3319(3) 0.3651(4) 1.0371(2)
O10B O 0.4487(3) 0.2926(4) 1.0711(3)
O11B O 0.2771(3) 0.5682(4) 0.9728(2)
O12B O 0.3270(2) 0.5663(3) 1.06281(18)
O12A O 0.8270(2) -0.0663(3) 0.56281(18)
Zn1A Zn 0.71578(4) -0.10077(5) 0.57719(3)
Zn1A_2 Zn 0.71578(4) 0.89923(5) 0.57719(3)
Zn1B Zn 0.21578(4) 0.60077(5) 1.07719(3)
Zn2A Zn 0.90908(4) -0.05585(5) 0.63558(3)
Zn2A_2 Zn 0.90908(4) 0.94415(5) 0.63558(3)
Zn2B Zn 0.40908(4) 0.55585(5) 1.13558(3)
loop_
_geom_bond_atom_site_label_1
_geom_bond_atom_site_label_2
_geom_bond_site_symmetry_1
_geom_bond_site_symmetry_2
C1 H1 1_555 1_555
C2 C1 1_555 1_555
H2 C2 1_555 1_555
C3 C2 1_555 1_555
C4 C3 1_555 1_555
C5 C4 1_555 1_555
H3 C5 1_555 1_555
C6 C5 1_555 1_555
H4 C6 1_555 1_555
C7 C6 1_555 1_555
H5 C7 1_555 1_555
C8 C7 1_555 1_555
H6 C8 1_555 1_555
C9 C4 1_555 1_555
H7 C9 1_555 1_555
C10 C3 1_555 1_555
C11 C10 1_555 1_555
H8 C11 1_555 1_555
C12 C11 1_555 1_555
H9 C12 1_555 1_555
C13 C12 1_555 1_555
C14 C13 1_555 1_555
C15 C14 1_555 1_555
C16 C15 1_555 1_555
H10 C16 1_555 1_555
C17 C16 1_555 1_555
H11 C17 1_555 1_555
C18 C17 1_555 1_555
H12 C18 1_555 1_555
C19 C18 1_555 1_555
H13 C19 1_555 1_555
C20 C15 1_555 1_555
H14 C20 1_555 1_555
C21 C14 1_555 1_555
H15 C21 1_555 1_555
C22 C21 1_555 1_555
H16 C22 1_555 1_555
C23 C13 1_555 1_555
C24 C10 1_555 1_555
C25 H17 1_555 1_555
C26 C25 1_555 1_555
H18 C26 1_555 1_555
C27 C26 1_555 1_555
C28 C27 1_555 1_555
C29 C28 1_555 1_555
H19 C29 1_555 1_555
C30 C29 1_555 1_555
H20 C30 1_555 1_555
C31 C30 1_555 1_555
H21 C31 1_555 1_555
C32 C31 1_555 1_555
H22 C32 1_555 1_555
C33 C28 1_555 1_555
H23 C33 1_555 1_555
C34 C27 1_555 1_555
C35 C34 1_555 1_555
H24 C35 1_555 1_555
C36 C35 1_555 1_555
H25 C36 1_555 1_555
C37 C36 1_555 1_555
C38 C37 1_555 1_555
C39 C38 1_555 1_555
C40 C39 1_555 1_555
H26 C40 1_555 1_555
C41 C40 1_555 1_555
H27 C41 1_555 1_555
C42 C41 1_555 1_555
H28 C42 1_555 1_555
C43 C42 1_555 1_555
H29 C43 1_555 1_555
C44 C39 1_555 1_555
H30 C44 1_555 1_555
C45 C38 1_555 1_555
H31 C45 1_555 1_555
C46 C45 1_555 1_555
H32 C46 1_555 1_555
C47 C37 1_555 1_555
C48 C34 1_555 1_555
C49 C50 1_555 1_555
C50 C51 1_555 1_555
C51 H33 1_555 1_555
C52 C51 1_555 1_555
C53 C52 1_555 1_555
C54 C53 1_555 1_555
H34 C54 1_555 1_555
C55 C50 1_555 1_555
C56 C55 1_555 1_555
C57 C52 1_555 1_555
C58 C53 1_555 1_555
C59 C60 1_555 1_555
C60 C61 1_555 1_555
C61 C62 1_555 1_555
C62 O11 1_555 1_555
C63 C60 1_555 1_555
H35 C63 1_555 1_555
N1 C1 1_555 1_555
N2 C22 1_555 1_555
N3 C25 1_555 1_555
N4 C46 1_555 1_555
O1 C49 1_555 1_555
O2 C49 1_555 1_555
O3 C56 1_555 1_555
O4 C56 1_555 1_555
H36 O4 1_555 1_555
O5 C58 1_555 1_555
O6 C58 1_555 1_555
O7 C57 1_555 1_555
O8 C57 1_555 1_555
H37 O8 1_555 1_555
O9 C59 1_555 1_555
O10 C59 1_555 1_555
O12 C62 1_555 1_555
Zn1 N1 1_555 1_555
Zn2 N3 1_555 1_555
C1A H1A 1_555 1_555
C2A C1A 1_555 1_555
H2A C2A 1_555 1_555
C3A C2A 1_555 1_555
C4A C3A 1_555 1_555
C5A C4A 1_555 1_555
H3A C5A 1_555 1_555
C6A C5A 1_555 1_555
H4A C6A 1_555 1_555
C7A C6A 1_555 1_555
H5A C7A 1_555 1_555
C8A C7A 1_555 1_555
H6A C8A 1_555 1_555
C9A C4A 1_555 1_555
H7A C9A 1_555 1_555
C10A C3A 1_555 1_555
C11A C10A 1_555 1_555
H8A C11A 1_555 1_555
C12A C11A 1_555 1_555
H9A C12A 1_555 1_555
C13A C12A 1_555 1_555
C14A C13A 1_555 1_555
C15A C14A 1_555 1_555
C16A C15A 1_555 1_555
H10A C16A 1_555 1_555
C17A C16A 1_555 1_555
H11A C17A 1_555 1_555
C18A C17A 1_555 1_555
H12A C18A 1_555 1_555
C19A C18A 1_555 1_555
H13A C19A 1_555 1_555
C20A C15A 1_555 1_555
H14A C20A 1_555 1_555
C21A C14A 1_555 1_555
H15A C21A 1_555 1_555
C22A C21A 1_555 1_555
H16A C22A 1_555 1_555
C23A C13A 1_555 1_555
C24A C10A 1_555 1_555
C25A H17A 1_555 1_555
C26A C25A 1_555 1_555
H18A C26A 1_555 1_555
C27A C26A 1_555 1_555
C28A C27A 1_555 1_555
C29A C28A 1_555 1_555
H19A C29A 1_555 1_555
C30A C29A 1_555 1_555
H20A C30A 1_555 1_555
C31A C30A 1_555 1_555
H21A C31A 1_555 1_555
C32A C31A 1_555 1_555
H22A C32A 1_555 1_555
C33A C28A 1_555 1_555
H23A C33A 1_555 1_555
C34A C27A 1_555 1_555
C35A C34A 1_555 1_555
H24A C35A 1_555 1_555
C36A C35A 1_555 1_555
H25A C36A 1_555 1_555
C37A C36A 1_555 1_555
C38A C37A 1_555 1_555
C39A C38A 1_555 1_555
C40A C39A 1_555 1_555
H26A C40A 1_555 1_555
C41A C40A 1_555 1_555
H27A C41A 1_555 1_555
C42A C41A 1_555 1_555
H28A C42A 1_555 1_555
C43A C42A 1_555 1_555
H29A C43A 1_555 1_555
C44A C39A 1_555 1_555
H30A C44A 1_555 1_555
C45A C38A 1_555 1_555
H31A C45A 1_555 1_555
C46A C45A 1_555 1_555
H32A C46A 1_555 1_555
C47A C37A 1_555 1_555
C48A C34A 1_555 1_555
C49A C50A 1_555 1_555
C50A C51A 1_555 1_555
C51A H33A 1_555 1_555
C52A C51A 1_555 1_555
C53A C52A 1_555 1_555
C54A C53A 1_555 1_555
H34A C54A 1_555 1_555
C55A C50A 1_555 1_555
C56A C55A 1_555 1_555
C57A C52A 1_555 1_555
C58A C53A 1_555 1_555
C59B C60B 1_555 1_555
C60B C61B 1_555 1_555
C61B C63 1_555 1_555
C62B C61B 1_555 1_555
C63B C61 1_555 1_555
H35B C63B 1_555 1_555
N1A C1A 1_555 1_555
N2A C22A 1_555 1_555
N3A C25A 1_555 1_555
N4A C46A 1_555 1_555
O1A C49A 1_555 1_555
O2A C49A 1_555 1_555
O3A C56A 1_555 1_555
O4A C56A 1_555 1_555
H36A O4A 1_555 1_555
O5A Zn1 1_555 1_555
O5_2 Zn1A 1_555 1_555
O6A Zn2 1_555 1_555
O6_2 Zn2A 1_555 1_555
O7A C57A 1_555 1_555
O8A C57A 1_555 1_555
H37A O8A 1_555 1_555
O9B C59B 1_555 1_555
O10B C59B 1_555 1_555
O11B C62B 1_555 1_555
O12B C62B 1_555 1_555
O12A Zn1A 1_555 1_555
Zn1A N1A 1_555 1_555
Zn1A_2 O5 1_555 1_555
Zn1B O12B 1_555 1_555
Zn2A N3A 1_555 1_555
Zn2A_2 O6 1_555 1_555
Zn2B O12B 1_555 1_555
C8 C9 1_555 1_555
C19 C20 1_555 1_555
C23 C24 1_555 1_555
C23 N2 1_555 1_555
C24 N1 1_555 1_555
C32 C33 1_555 1_555
C43 C44 1_555 1_555
C47 C48 1_555 1_555
C47 N4 1_555 1_555
C48 N3 1_555 1_555
C54 C55 1_555 1_555
N2 Zn1 1_555 1_555
N4 Zn2 1_555 1_555
O1 Zn1 1_555 1_555
O2 Zn2 1_555 1_555
O12 Zn1 1_555 1_555
O12 Zn2 1_555 1_555
C8A C9A 1_555 1_555
C19A C20A 1_555 1_555
C23A C24A 1_555 1_555
C23A N2A 1_555 1_555
C24A N1A 1_555 1_555
C32A C33A 1_555 1_555
C43A C44A 1_555 1_555
C47A C48A 1_555 1_555
C47A N4A 1_555 1_555
C48A N3A 1_555 1_555
C54A C55A 1_555 1_555
C58A O5A 1_555 1_555
C58A O6A 1_555 1_555
C60B C63B 1_555 1_555
N2A Zn1A 1_555 1_555
N4A Zn2A 1_555 1_555
O1A Zn1A 1_555 1_555
O2A Zn2A 1_555 1_555
O12A Zn2A 1_555 1_555

#END
