
#######################################################################
#
#                 Cambridge Crystallographic Data Centre
#                                CCDC 
#
#######################################################################
#
# If this CIF has been generated from an entry in the Cambridge 
# Structural Database, then it will include bibliographic, chemical, 
# crystal, experimental, refinement or atomic coordinate data resulting 
# from the CCDC's data processing and validation procedures.
#
#######################################################################

data_UPUSUU
_symmetry_cell_setting           monoclinic
_symmetry_space_group_name_H-M   'P 21/n'
_symmetry_Int_Tables_number      14
_space_group_name_Hall           '-P 2yn'
loop_
_symmetry_equiv_pos_site_id
_symmetry_equiv_pos_as_xyz
1 x,y,z
2 1/2-x,1/2+y,1/2-z
3 -x,-y,-z
4 1/2+x,1/2-y,1/2+z
_cell_length_a                   12.125(3)
_cell_length_b                   10.541(3)
_cell_length_c                   12.484(3)
_cell_angle_alpha                90
_cell_angle_beta                 115.834(4)
_cell_angle_gamma                90
_cell_volume                     1436.11
loop_
_atom_site_label
_atom_site_type_symbol
_atom_site_fract_x
_atom_site_fract_y
_atom_site_fract_z
Zn1 Zn 0.62072(4) 0.34773(4) 0.76064(4)
O1 O 0.5182(2) 0.3220(2) 0.5604(2)
N1 N 0.4635(3) 0.3631(3) 0.7711(3)
N2 N 0.2697(3) 0.3460(3) 0.7353(3)
N3 N 0.6914(2) 0.1847(2) 0.7405(2)
C1 C 0.6464(3) 0.1452(3) 0.6235(3)
C2 C 0.5519(3) 0.2229(3) 0.5317(3)
C3 C 0.7772(3) 0.0994(3) 0.8024(3)
H1 H 0.8248 0.1039 0.8862
C4 C 0.3581(3) 0.3065(3) 0.7064(3)
H2 H 0.3465 0.2453 0.6466
C5 C 0.3203(4) 0.4369(4) 0.8222(4)
H3 H 0.2795 0.4840 0.8592
O2 O 0.5075(2) 0.1831(2) 0.4216(2)
H4 H 0.5414 0.1144 0.4190
C6 C 0.0658(3) 0.4080(4) 0.5840(3)
C7 C 0.0671(4) 0.4101(4) 0.4747(4)
H5 H 0.1129 0.3479 0.4562
C8 C 0.1396(3) 0.3100(4) 0.6758(4)
H6 H 0.1072 0.3019 0.7358
H7 H 0.1315 0.2265 0.6367
C9 C 0.4391(3) 0.4457(4) 0.8444(3)
H8 H 0.4974 0.5004 0.9017
C10 C -0.0030(4) 0.4988(4) 0.6089(4)
H9 H -0.0058 0.4981 0.6837
O3 O 0.6154(2) -0.0197(2) 0.4170(2)
N4 N 0.7894(2) 0.0076(2) 0.7351(2)
C11 C 0.7068(3) 0.0365(3) 0.6203(3)
C12 C 0.6961(3) -0.0464(3) 0.5210(3)
O4 O 0.7690(2) -0.1383(2) 0.5459(2)
Zn1B Zn -0.62072(4) 0.65227(4) 0.23936(4)
Zn1A Zn 0.87928(4) -0.15227(4) 0.73936(4)
Zn1C Zn -0.87928(4) 1.15227(4) 0.26064(4)
O1B O -0.5182(2) 0.6780(2) 0.4396(2)
N1B N -0.4635(3) 0.6369(3) 0.2289(3)
N2B N -0.2697(3) 0.6540(3) 0.2647(3)
N3B N -0.6914(2) 0.8153(2) 0.2595(2)
C1B C -0.6464(3) 0.8548(3) 0.3765(3)
C2B C -0.5519(3) 0.7771(3) 0.4683(3)
C3B C -0.7772(3) 0.9006(3) 0.1976(3)
H1B H -0.8248 0.8961 0.1138
C4B C -0.3581(3) 0.6935(3) 0.2936(3)
H2B H -0.3465 0.7547 0.3534
C5B C -0.3203(4) 0.5631(4) 0.1778(4)
H3B H -0.2795 0.5160 0.1408
O2B O -0.5075(2) 0.8169(2) 0.5784(2)
H4B H -0.5414 0.8856 0.5810
C6B C -0.0658(3) 0.5920(4) 0.4160(3)
C7B C -0.0671(4) 0.5899(4) 0.5253(4)
H5B H -0.1129 0.6521 0.5438
C8B C -0.1396(3) 0.6900(4) 0.3242(4)
H6B H -0.1072 0.6981 0.2642
H7B H -0.1315 0.7735 0.3633
C9B C -0.4391(3) 0.5543(4) 0.1556(3)
H8B H -0.4974 0.4996 0.0983
C10B C 0.0030(4) 0.5012(4) 0.3911(4)
H9B H 0.0058 0.5019 0.3163
O3B O -0.6154(2) 1.0197(2) 0.5830(2)
N4B N -0.7894(2) 0.9924(2) 0.2649(2)
N4A N 0.7106(2) 0.5076(2) 0.7649(2)
N4C N -0.7106(2) 0.4924(2) 0.2351(2)
C11B C -0.7068(3) 0.9635(3) 0.3797(3)
C12B C -0.6961(3) 1.0464(3) 0.4790(3)
O4B O -0.7690(2) 1.1383(2) 0.4541(2)
O4A O 0.7310(2) 0.3617(2) 0.9541(2)
O4C O -0.7310(2) 0.6383(2) 0.0459(2)
loop_
_geom_bond_atom_site_label_1
_geom_bond_atom_site_label_2
_geom_bond_site_symmetry_1
_geom_bond_site_symmetry_2
Zn1 O1 1_555 1_555
O1 C2 1_555 1_555
N1 Zn1 1_555 1_555
N2 C4 1_555 1_555
N3 Zn1 1_555 1_555
C1 N3 1_555 1_555
C2 C1 1_555 1_555
C3 N3 1_555 1_555
H1 C3 1_555 1_555
C4 N1 1_555 1_555
H2 C4 1_555 1_555
C5 N2 1_555 1_555
H3 C5 1_555 1_555
O2 C2 1_555 1_555
H4 O2 1_555 1_555
C6 C7 1_555 1_555
C7 H5 1_555 1_555
C8 N2 1_555 1_555
H6 C8 1_555 1_555
H7 C8 1_555 1_555
C9 N1 1_555 1_555
H8 C9 1_555 1_555
C10 C6 1_555 1_555
H9 C10 1_555 1_555
O3 C12 1_555 1_555
N4 C3 1_555 1_555
C11 C1 1_555 1_555
C12 C11 1_555 1_555
O4 C12 1_555 1_555
Zn1B O1B 1_555 1_555
Zn1A N4 1_555 1_555
Zn1C N4B 1_555 1_555
O1B C2B 1_555 1_555
N1B Zn1B 1_555 1_555
N2B C4B 1_555 1_555
N3B Zn1B 1_555 1_555
C1B N3B 1_555 1_555
C2B C1B 1_555 1_555
C3B N3B 1_555 1_555
H1B C3B 1_555 1_555
C4B N1B 1_555 1_555
H2B C4B 1_555 1_555
C5B N2B 1_555 1_555
H3B C5B 1_555 1_555
O2B C2B 1_555 1_555
H4B O2B 1_555 1_555
C6B C7B 1_555 1_555
C7B C10 1_555 1_555
H5B C7B 1_555 1_555
C8B N2B 1_555 1_555
H6B C8B 1_555 1_555
H7B C8B 1_555 1_555
C9B N1B 1_555 1_555
H8B C9B 1_555 1_555
C10B C7 1_555 1_555
H9B C10B 1_555 1_555
O3B C12B 1_555 1_555
N4B C3B 1_555 1_555
N4A Zn1 1_555 1_555
N4C Zn1B 1_555 1_555
C11B C1B 1_555 1_555
C12B C11B 1_555 1_555
O4B Zn1C 1_555 1_555
O4A Zn1 1_555 1_555
O4C Zn1B 1_555 1_555
C5 C9 1_555 1_555
C6 C8 1_555 1_555
N4 C11 1_555 1_555
O4 Zn1A 1_555 1_555
C5B C9B 1_555 1_555
C6B C8B 1_555 1_555
C6B C10B 1_555 1_555
N4B C11B 1_555 1_555
C12B O4B 1_555 1_555

#END
