
#######################################################################
#
#                 Cambridge Crystallographic Data Centre
#                                CCDC 
#
#######################################################################
#
# If this CIF has been generated from an entry in the Cambridge 
# Structural Database, then it will include bibliographic, chemical, 
# crystal, experimental, refinement or atomic coordinate data resulting 
# from the CCDC's data processing and validation procedures.
#
#######################################################################

data_UPUVEH
_symmetry_cell_setting           triclinic
_symmetry_space_group_name_H-M   'P -1'
_symmetry_Int_Tables_number      2
_space_group_name_Hall           '-P 1'
loop_
_symmetry_equiv_pos_site_id
_symmetry_equiv_pos_as_xyz
1 x,y,z
2 -x,-y,-z
_cell_length_a                   7.339(5)
_cell_length_b                   13.105(5)
_cell_length_c                   14.097(5)
_cell_angle_alpha                84.377(5)
_cell_angle_beta                 76.921(5)
_cell_angle_gamma                79.628(5)
_cell_volume                     1296.74
loop_
_atom_site_label
_atom_site_type_symbol
_atom_site_fract_x
_atom_site_fract_y
_atom_site_fract_z
Ag1 Ag 0.92140(5) 0.53854(3) 0.12274(3)
Ag2 Ag 0.63199(9) 0.85214(4) 0.44625(4)
S1 S 0.79307(18) 0.24384(9) 0.60384(9)
S2 S 0.98503(17) 0.73580(9) -0.10983(9)
O1 O 0.8086(5) 0.7946(3) -0.1286(3)
O2 O 0.9244(7) 0.1491(3) 0.6115(4)
O3 O 0.9565(6) 0.6411(3) -0.0492(3)
N1 N 0.6531(7) 0.9647(3) 0.3202(3)
N2 N 1.2297(5) 0.5420(3) 0.1232(3)
O4 O 0.7691(6) 0.2687(3) 0.5046(3)
C1 C 1.0761(6) 0.8122(3) -0.0403(3)
C2 C 0.8224(6) 0.4515(3) 0.6205(3)
O5 O 1.1288(5) 0.7140(3) -0.1976(3)
N3 N 0.6031(9) 0.7730(4) 0.5920(4)
C3 C 0.9259(6) 0.5278(4) 0.6376(3)
C4 C 0.5759(7) 0.5907(4) 0.5870(4)
H1 H 0.4589 0.6121 0.5701
C5 C 1.3551(7) 0.4550(4) 0.1252(4)
H2 H 1.3165 0.3916 0.1236
N4 N 1.6046(5) 0.5432(3) 0.1331(3)
C6 C 1.5391(7) 0.4561(4) 0.1297(4)
H3 H 1.6214 0.3933 0.1304
C7 C 0.9654(6) 0.8496(3) 0.0490(3)
C8 C 0.9028(6) 0.3447(3) 0.6315(3)
C9 C 0.9426(7) 0.9449(3) 0.1934(4)
H4 H 0.9974 0.9823 0.2290
C10 C 1.2568(6) 0.8321(3) -0.0740(4)
H5 H 1.3265 0.8086 -0.1338
C11 C 1.0481(6) 0.9069(3) 0.1050(3)
C12 C 1.2375(6) 0.9241(4) 0.0669(4)
H6 H 1.2931 0.9613 0.1023
C13 C 0.8501(7) 0.6344(4) 0.6272(4)
H7 H 0.9187 0.6841 0.6373
C14 C 1.4789(7) 0.6302(4) 0.1328(4)
H8 H 1.5174 0.6934 0.1360
C15 C 0.7598(7) 0.9281(3) 0.2288(3)
C16 C 0.7768(6) 0.8335(4) 0.0890(3)
H9 H 0.7188 0.7959 0.0551
C17 C 1.3385(6) 0.8885(4) -0.0184(4)
H10 H 1.4623 0.9009 -0.0411
C18 C 0.6451(6) 0.4873(4) 0.5961(3)
H11 H 0.5735 0.4392 0.5858
O6 O 0.6142(7) 0.2475(4) 0.6714(4)
C19 C 1.1014(7) 0.4953(5) 0.6649(4)
H12 H 1.1714 0.5449 0.6734
C20 C 1.0688(7) 0.3172(4) 0.6629(4)
H13 H 1.1151 0.2471 0.6738
C21 C 1.1709(7) 0.3921(5) 0.6790(4)
H14 H 1.2850 0.3719 0.6991
C22 C 1.2946(6) 0.6295(3) 0.1281(4)
H15 H 1.2120 0.6923 0.1283
C23 C 0.6779(7) 0.8716(4) 0.1755(4)
H16 H 0.5541 0.8598 0.1994
C24 C 0.6797(8) 0.6657(4) 0.6029(4)
H17 H 0.546(9) 0.989(4) 0.317(4)
H18 H 0.712(10) 1.001(5) 0.347(5)
H19 H 0.662(7) 0.803(4) 0.623(4)
H20 H 0.4822(19) 0.780(7) 0.606(7)
Ag1A Ag 1.07860(5) 0.46146(3) -0.12274(3)
Ag1_2 Ag 1.92140(5) 0.53854(3) 0.12274(3)
O3A O 1.0435(6) 0.3589(3) 0.0492(3)
N4_2 N 0.6046(5) 0.5432(3) 0.1331(3)
O7 O 1.1811(10) 0.8556(4) -0.3527(4)
H21 H 1.168(16) 0.826(7) -0.401(4)
H22 H 1.185(16) 0.804(5) -0.311(5)
O8 O 0.7139(8) 0.9161(5) -0.2889(5)
H23 H 0.758(14) 0.968(6) -0.321(6)
H24 H 0.776(14) 0.906(8) -0.244(6)
O9 O 0.853(2) 0.9780(10) -0.4634(10)
H25 H 0.84(2) 1.0441(12) -0.467(5)
H26 H 0.969(5) 0.964(13) -0.459(8)
loop_
_geom_bond_atom_site_label_1
_geom_bond_atom_site_label_2
_geom_bond_site_symmetry_1
_geom_bond_site_symmetry_2
Ag1 O3 1_555 1_555
Ag2 N1 1_555 1_555
S1 O2 1_555 1_555
S2 O1 1_555 1_555
O3 S2 1_555 1_555
N1 C15 1_555 1_555
N2 Ag1 1_555 1_555
O4 S1 1_555 1_555
C1 S2 1_555 1_555
C2 C3 1_555 1_555
O5 S2 1_555 1_555
N3 Ag2 1_555 1_555
C3 C13 1_555 1_555
C4 H1 1_555 1_555
C5 N2 1_555 1_555
H2 C5 1_555 1_555
N4 C6 1_555 1_555
C6 C5 1_555 1_555
H3 C6 1_555 1_555
C7 C1 1_555 1_555
C8 S1 1_555 1_555
C9 H4 1_555 1_555
C10 C1 1_555 1_555
H5 C10 1_555 1_555
C11 C7 1_555 1_555
C12 C11 1_555 1_555
H6 C12 1_555 1_555
C13 H7 1_555 1_555
C14 N4 1_555 1_555
H8 C14 1_555 1_555
C15 C9 1_555 1_555
C16 C7 1_555 1_555
H9 C16 1_555 1_555
C17 C10 1_555 1_555
H10 C17 1_555 1_555
C18 C2 1_555 1_555
H11 C18 1_555 1_555
O6 S1 1_555 1_555
C19 C3 1_555 1_555
H12 C19 1_555 1_555
C20 C8 1_555 1_555
H13 C20 1_555 1_555
C21 C19 1_555 1_555
H14 C21 1_555 1_555
C22 N2 1_555 1_555
H15 C22 1_555 1_555
C23 C15 1_555 1_555
H16 C23 1_555 1_555
C24 N3 1_555 1_555
O7 H21 1_555 1_555
O8 H23 1_555 1_555
O9 H25 1_555 1_555
H17 N1 1_555 1_555
H18 N1 1_555 1_555
H19 N3 1_555 1_555
H20 N3 1_555 1_555
H22 O7 1_555 1_555
H24 O8 1_555 1_555
H26 O9 1_555 1_555
Ag1A O3 1_555 1_555
Ag1_2 N4 1_555 1_555
O3A Ag1 1_555 1_555
N4_2 Ag1 1_555 1_555
C2 C8 1_555 1_555
C4 C18 1_555 1_555
C4 C24 1_555 1_555
C9 C11 1_555 1_555
C12 C17 1_555 1_555
C13 C24 1_555 1_555
C14 C22 1_555 1_555
C16 C23 1_555 1_555
C20 C21 1_555 1_555
Ag1A O3A 1_555 1_555

#END
