
#######################################################################
#
#                 Cambridge Crystallographic Data Centre
#                                CCDC 
#
#######################################################################
#
# If this CIF has been generated from an entry in the Cambridge 
# Structural Database, then it will include bibliographic, chemical, 
# crystal, experimental, refinement or atomic coordinate data resulting 
# from the CCDC's data processing and validation procedures.
#
#######################################################################

data_UQADUM
_symmetry_cell_setting           orthorhombic
_symmetry_space_group_name_H-M   'P b c a'
_symmetry_Int_Tables_number      61
_space_group_name_Hall           '-P 2ac 2ab'
loop_
_symmetry_equiv_pos_site_id
_symmetry_equiv_pos_as_xyz
1 x,y,z
2 1/2-x,-y,1/2+z
3 -x,1/2+y,1/2-z
4 1/2+x,1/2-y,-z
5 -x,-y,-z
6 1/2+x,y,1/2-z
7 x,1/2-y,1/2+z
8 1/2-x,1/2+y,z
_cell_length_a                   8.6325(10)
_cell_length_b                   10.5414(13)
_cell_length_c                   27.644(3)
_cell_angle_alpha                90
_cell_angle_beta                 90
_cell_angle_gamma                90
_cell_volume                     2515.57
loop_
_atom_site_label
_atom_site_type_symbol
_atom_site_fract_x
_atom_site_fract_y
_atom_site_fract_z
Ni1 Ni 0.14067(3) 0.30649(2) 0.049639(10)
O1 O 0.35849(18) 0.29489(14) 0.07269(6)
O2 O 0.1830(2) 0.48072(16) 0.03066(8)
O3 O -0.0005(2) -0.01237(16) 0.12011(7)
O4 O 0.10429(19) 0.12872(15) 0.06988(6)
O5 O -0.06879(19) 0.31659(15) 0.02136(6)
O6 O -0.3159(2) 0.26323(18) 0.03045(7)
N1 N -0.0189(2) 0.33197(17) 0.12063(7)
C1 C 0.0165(3) 0.0972(2) 0.10510(9)
C2 C -0.0727(3) 0.2016(2) 0.12960(9)
H1 H -0.1080 0.1836 0.1626
C3 C -0.1700(3) 0.2952(2) 0.10121(9)
H2 H -0.2594 0.3297 0.1187
C4 C -0.1879(3) 0.2899(2) 0.04733(9)
C5 C -0.0224(3) 0.4202(2) 0.16221(8)
H3 H -0.1190 0.4068 0.1801
C6 C 0.1125(3) 0.3945(3) 0.19587(10)
H4 H 0.2088 0.3999 0.1779
H5 H 0.1038 0.3094 0.2089
C7 C 0.1147(4) 0.4901(3) 0.23717(11)
H6 H 0.0230 0.4789 0.2570
H7 H 0.2047 0.4750 0.2573
C8 C 0.1193(4) 0.6250(3) 0.21821(12)
H8 H 0.1161 0.6836 0.2452
H9 H 0.2159 0.6385 0.2010
C9 C -0.0147(4) 0.6518(3) 0.18473(10)
H10 H -0.0043 0.7366 0.1715
H11 H -0.1109 0.6483 0.2028
C10 C -0.0205(3) 0.5552(2) 0.14326(10)
H12 H -0.1126 0.5699 0.1240
H13 H 0.0691 0.5669 0.1225
H14 H 0.4169 0.3483 0.0899
H15 H 0.4409 0.2595 0.0564
H16 H 0.2697 0.5163 0.0332
H17 H 0.1264 0.5378 0.0160
Ni1C Ni -0.35933(3) 0.19351(2) -0.049639(10)
O6C O 0.1841(2) 0.23677(18) -0.03045(7)
loop_
_geom_bond_atom_site_label_1
_geom_bond_atom_site_label_2
_geom_bond_site_symmetry_1
_geom_bond_site_symmetry_2
Ni1 O1 1_555 1_555
O1 H14 1_555 1_555
O2 Ni1 1_555 1_555
O3 C1 1_555 1_555
O4 Ni1 1_555 1_555
O5 Ni1 1_555 1_555
O6 C4 1_555 1_555
N1 Ni1 1_555 1_555
C1 O4 1_555 1_555
C2 N1 1_555 1_555
H1 C2 1_555 1_555
C3 N1 1_555 1_555
H2 C3 1_555 1_555
C4 O5 1_555 1_555
C5 N1 1_555 1_555
H3 C5 1_555 1_555
C6 C5 1_555 1_555
H4 C6 1_555 1_555
H5 C6 1_555 1_555
C7 C6 1_555 1_555
H6 C7 1_555 1_555
H7 C7 1_555 1_555
C8 C7 1_555 1_555
H8 C8 1_555 1_555
H9 C8 1_555 1_555
C9 C8 1_555 1_555
H10 C9 1_555 1_555
H11 C9 1_555 1_555
C10 C5 1_555 1_555
H12 C10 1_555 1_555
H13 C10 1_555 1_555
H15 O1 1_555 1_555
H16 O2 1_555 1_555
H17 O2 1_555 1_555
Ni1C O6 1_555 1_555
O6C Ni1 1_555 1_555
C1 C2 1_555 1_555
C2 C3 1_555 1_555
C3 C4 1_555 1_555
C9 C10 1_555 1_555

#END
