
#######################################################################
#
#                 Cambridge Crystallographic Data Centre
#                                CCDC 
#
#######################################################################
#
# If this CIF has been generated from an entry in the Cambridge 
# Structural Database, then it will include bibliographic, chemical, 
# crystal, experimental, refinement or atomic coordinate data resulting 
# from the CCDC's data processing and validation procedures.
#
#######################################################################

data_UQADOG
_symmetry_cell_setting           orthorhombic
_symmetry_space_group_name_H-M   'P 21 21 21'
_symmetry_Int_Tables_number      19
_space_group_name_Hall           'P 2ac 2ab'
loop_
_symmetry_equiv_pos_site_id
_symmetry_equiv_pos_as_xyz
1 x,y,z
2 1/2-x,-y,1/2+z
3 -x,1/2+y,1/2-z
4 1/2+x,1/2-y,-z
_cell_length_a                   7.7141(8)
_cell_length_b                   14.8095(16)
_cell_length_c                   16.8610(19)
_cell_angle_alpha                90
_cell_angle_beta                 90
_cell_angle_gamma                90
_cell_volume                     1926.23
loop_
_atom_site_label
_atom_site_type_symbol
_atom_site_fract_x
_atom_site_fract_y
_atom_site_fract_z
Nd1 Nd 0.14232(5) 0.72059(3) 0.99598(4)
C1 C 0.2702(11) 0.4896(7) 0.9796(6)
H1 H 0.3804 0.5152 0.9805
C2 C 0.2579(12) 0.3966(7) 0.9739(6)
C3 C -0.0314(12) 0.4123(7) 0.9792(7)
H2 H -0.1417 0.3869 0.9787
C4 C -0.0198(12) 0.5040(7) 0.9842(8)
C5 C -0.1775(10) 0.5628(7) 0.9894(7)
C6 C 0.4133(11) 0.3376(7) 0.9706(6)
H3 H 0.4048 0.2981 0.9256
H4 H 0.4201 0.3023 1.0183
H5 H 0.5154 0.3742 0.9658
C7 C 0.4345(18) 0.6459(8) 1.1347(7)
C8 C 0.2730(15) 0.6185(8) 1.1773(7)
C9 C 0.2770(15) 0.5841(9) 1.2527(7)
H6 H 0.3845 0.5756 1.2766
C10 C -0.0161(17) 0.6119(9) 1.1802(7)
H7 H -0.1240 0.6210 1.1569
C11 C -0.0120(15) 0.5768(9) 1.2564(7)
C12 C -0.1764(15) 0.5585(9) 1.3020(7)
H8 H -0.1537 0.5148 1.3429
H9 H -0.2631 0.5353 1.2666
H10 H -0.2171 0.6135 1.3257
O1 O 0.5851(9) 0.6720(5) 0.8173(4)
C13 C -0.1613(14) 0.6282(9) 0.6640(6)
H11 H -0.1497 0.5753 0.6316
H12 H -0.1759 0.6803 0.6307
H13 H -0.2606 0.6219 0.6979
C14 C -0.0048(16) 0.6394(10) 0.7127(6)
C15 C 0.2866(15) 0.6479(9) 0.7202(7)
H14 H 0.3948 0.6460 0.6959
C16 C 0.2796(14) 0.6628(8) 0.8016(6)
C17 C 0.4433(16) 0.6787(8) 0.8495(6)
C18 C -0.0097(13) 0.6545(8) 0.7947(6)
H15 H -0.1176 0.6572 0.8192
N1 N 0.1350(10) 0.5445(5) 0.9839(4)
N2 N 0.1024(9) 0.3569(5) 0.9749(5)
N3 N 0.1236(13) 0.6335(6) 1.1382(4)
N4 N 0.1371(14) 0.5625(7) 1.2931(5)
N5 N 0.1318(15) 0.6653(6) 0.8402(4)
N6 N 0.1464(14) 0.6363(8) 0.6752(5)
O2 O -0.1495(7) 0.6491(3) 0.9922(5)
O3 O -0.3218(6) 0.5287(4) 0.9915(6)
O4 O 0.4099(10) 0.6911(5) 1.0699(4)
O5 O 0.5781(8) 0.6272(5) 1.1630(4)
O6 O 0.4191(10) 0.7041(6) 0.9212(4)
Nd1C Nd -0.35768(5) 0.77941(3) 1.00402(4)
Nd1C_2 Nd 0.64232(5) 0.77941(3) 1.00402(4)
O2C O 0.3505(7) 0.8509(3) 1.0078(5)
O4C O -0.0901(10) 0.8089(5) 0.9301(4)
O6C O -0.0809(10) 0.7959(6) 1.0788(4)
loop_
_geom_bond_atom_site_label_1
_geom_bond_atom_site_label_2
_geom_bond_site_symmetry_1
_geom_bond_site_symmetry_2
Nd1 N1 1_555 1_555
C1 H1 1_555 1_555
C2 C1 1_555 1_555
C3 H2 1_555 1_555
C4 C3 1_555 1_555
C5 C4 1_555 1_555
C6 C2 1_555 1_555
H3 C6 1_555 1_555
H4 C6 1_555 1_555
H5 C6 1_555 1_555
C7 C8 1_555 1_555
C8 C9 1_555 1_555
C9 H6 1_555 1_555
C10 H7 1_555 1_555
C11 C10 1_555 1_555
C12 C11 1_555 1_555
H8 C12 1_555 1_555
H9 C12 1_555 1_555
H10 C12 1_555 1_555
O1 C17 1_555 1_555
C13 H11 1_555 1_555
H12 C13 1_555 1_555
H13 C13 1_555 1_555
C14 C13 1_555 1_555
C15 H14 1_555 1_555
C16 C15 1_555 1_555
C17 C16 1_555 1_555
C18 C14 1_555 1_555
H15 C18 1_555 1_555
N1 C1 1_555 1_555
N2 C2 1_555 1_555
N3 Nd1 1_555 1_555
N4 C9 1_555 1_555
N5 Nd1 1_555 1_555
N6 C14 1_555 1_555
O2 Nd1 1_555 1_555
O3 C5 1_555 1_555
O4 Nd1 1_555 1_555
O5 C7 1_555 1_555
O6 Nd1 1_555 1_555
Nd1C O2 1_555 1_555
Nd1C_2 O4 1_555 1_555
O2C Nd1 1_555 1_555
O4C Nd1 1_555 1_555
O6C Nd1 1_555 1_555
C3 N2 1_555 1_555
C4 N1 1_555 1_555
C5 O2 1_555 1_555
C7 O4 1_555 1_555
C8 N3 1_555 1_555
C10 N3 1_555 1_555
C11 N4 1_555 1_555
C15 N6 1_555 1_555
C16 N5 1_555 1_555
C17 O6 1_555 1_555
C18 N5 1_555 1_555
O6 Nd1C_2 1_555 1_555
Nd1C O4C 1_555 1_555
Nd1C O6C 1_555 1_555
Nd1C_2 O2C 1_555 1_555

#END
