
#######################################################################
#
#                 Cambridge Crystallographic Data Centre
#                                CCDC 
#
#######################################################################
#
# If this CIF has been generated from an entry in the Cambridge 
# Structural Database, then it will include bibliographic, chemical, 
# crystal, experimental, refinement or atomic coordinate data resulting 
# from the CCDC's data processing and validation procedures.
#
#######################################################################

data_UQAGEZ
_symmetry_cell_setting           monoclinic
_symmetry_space_group_name_H-M   'C 2/c'
_symmetry_Int_Tables_number      15
_space_group_name_Hall           '-C 2yn'
loop_
_symmetry_equiv_pos_site_id
_symmetry_equiv_pos_as_xyz
1 x,y,z
2 -x,y,1/2-z
3 1/2+x,1/2+y,z
4 1/2-x,1/2+y,1/2-z
5 -x,-y,-z
6 x,-y,1/2+z
7 1/2-x,1/2-y,-z
8 1/2+x,1/2-y,1/2+z
_cell_length_a                   23.870(11)
_cell_length_b                   9.887(4)
_cell_length_c                   18.929(9)
_cell_angle_alpha                90
_cell_angle_beta                 126.840(5)
_cell_angle_gamma                90
_cell_volume                     3575.23
loop_
_atom_site_label
_atom_site_type_symbol
_atom_site_fract_x
_atom_site_fract_y
_atom_site_fract_z
Ni1 Ni 0.76621(2) 0.47206(4) 0.32831(3)
N1 N 0.86754(14) 0.4631(3) 0.36404(17)
N2 N 1.00103(17) 0.4073(4) 0.4153(2)
N3 N 0.80036(13) 0.6098(3) 0.43204(17)
N4 N 0.86564(19) 0.8149(3) 0.5563(2)
N5 N 0.66765(14) 0.4544(3) 0.29673(18)
O1 O 0.80463(12) 0.3066(2) 0.41031(15)
O2 O 0.88988(14) 0.1511(3) 0.46842(18)
O3 O 0.74445(12) 0.6563(2) 0.26333(15)
O4 O 0.76764(12) 0.8785(2) 0.28905(15)
C1 C 0.86226(19) 0.2587(4) 0.4306(2)
C2 C 0.90069(18) 0.3496(4) 0.4080(2)
C3 C 0.9665(2) 0.3227(4) 0.4319(3)
H1 H 0.9879 0.2419 0.4610
C4 C 0.96809(19) 0.5205(4) 0.3724(2)
C5 C 0.90080(18) 0.5473(4) 0.3458(2)
H2 H 0.8784 0.6261 0.3144
C6 C 1.0043(2) 0.6200(5) 0.3517(3)
H3 H 1.0152 0.7006 0.3860
H4 H 0.9740 0.6421 0.2901
H5 H 1.0467 0.5805 0.3660
C7 C 0.76908(17) 0.7588(3) 0.3118(2)
C8 C 0.80412(17) 0.7363(3) 0.4094(2)
C9 C 0.8375(2) 0.8368(4) 0.4715(2)
H6 H 0.8406 0.9227 0.4540
C10 C 0.8588(2) 0.6913(4) 0.5786(2)
C11 C 0.82688(18) 0.5881(4) 0.5161(2)
H7 H 0.8240 0.5020 0.5336
C12 C 0.8884(2) 0.6674(5) 0.6731(2)
H8 H 0.9370 0.6923 0.7103
H9 H 0.8838 0.5734 0.6815
H10 H 0.8633 0.7211 0.6879
C13 C 0.65897(18) 0.4142(4) 0.3569(2)
H11 H 0.6983 0.3876 0.4120
C14 C 0.59478(18) 0.4102(4) 0.3418(2)
H12 H 0.5916 0.3828 0.3863
C15 C 0.53488(18) 0.4473(3) 0.2594(2)
C16 C 0.54400(19) 0.4865(4) 0.1962(2)
H13 H 0.5055 0.5107 0.1398
C17 C 0.61017(18) 0.4895(4) 0.2173(2)
H14 H 0.6151 0.5171 0.1743
Ni1C Ni 0.73379(2) -0.02794(4) 0.17169(3)
Ni1C_2 Ni 0.73379(2) 0.97206(4) 0.17169(3)
Ni1A Ni 0.23379(2) 0.47206(4) 0.17169(3)
N1C N 0.63246(14) -0.0369(3) 0.13596(17)
N2C N 0.49897(17) -0.0927(4) 0.0847(2)
N3C N 0.69964(13) 0.1098(3) 0.06796(17)
N4C N 0.63436(19) 0.3149(3) -0.0563(2)
N5A N 0.33235(14) 0.4544(3) 0.20327(18)
N5C N 0.83235(14) -0.0456(3) 0.20327(18)
O1C O 0.69537(12) -0.1934(2) 0.08969(15)
O2C O 0.61012(14) -0.3489(3) 0.03158(18)
O3C O 0.75555(12) 0.1563(2) 0.23667(15)
O4C O 0.73236(12) 0.3785(2) 0.21095(15)
O4_2 O 0.76764(12) -0.1215(2) 0.28905(15)
C1C C 0.63774(19) -0.2413(4) 0.0694(2)
C2C C 0.59931(18) -0.1504(4) 0.0920(2)
C3C C 0.5335(2) -0.1773(4) 0.0681(3)
H1C H 0.5121 -0.2581 0.0390
C4C C 0.53191(19) 0.0205(4) 0.1276(2)
C5C C 0.59920(18) 0.0473(4) 0.1542(2)
H2C H 0.6216 0.1261 0.1856
C6C C 0.4957(2) 0.1200(5) 0.1483(3)
H3C H 0.4848 0.2006 0.1140
H4C H 0.5260 0.1421 0.2099
H5C H 0.4533 0.0805 0.1340
C7C C 0.73092(17) 0.2588(3) 0.1882(2)
C8C C 0.69588(17) 0.2363(3) 0.0906(2)
C9C C 0.6625(2) 0.3368(4) 0.0285(2)
H6C H 0.6594 0.4227 0.0460
C10C C 0.6412(2) 0.1913(4) -0.0786(2)
C11C C 0.67312(18) 0.0881(4) -0.0161(2)
H7C H 0.6760 0.0020 -0.0336
C12C C 0.6116(2) 0.1674(5) -0.1731(2)
H8C H 0.5630 0.1923 -0.2103
H9C H 0.6162 0.0734 -0.1815
H10C H 0.6367 0.2211 -0.1879
C13A C 0.34103(18) 0.4142(4) 0.1431(2)
H11A H 0.3017 0.3876 0.0880
C14A C 0.40522(18) 0.4102(4) 0.1582(2)
H12A H 0.4084 0.3828 0.1137
C15A C 0.46512(18) 0.4473(3) 0.2406(2)
C16A C 0.45600(19) 0.4865(4) 0.3038(2)
H13A H 0.4945 0.5107 0.3602
C17A C 0.38983(18) 0.4895(4) 0.2827(2)
H14A H 0.3849 0.5171 0.3257
O5 O 0.71510(16) 0.0856(3) 0.3688(2)
H15 H 0.7445 0.1678 0.3868
H16 H 0.7269 0.0278 0.3362
loop_
_geom_bond_atom_site_label_1
_geom_bond_atom_site_label_2
_geom_bond_site_symmetry_1
_geom_bond_site_symmetry_2
Ni1 N1 1_555 1_555
N1 C2 1_555 1_555
N2 C3 1_555 1_555
N3 Ni1 1_555 1_555
N4 C9 1_555 1_555
N5 Ni1 1_555 1_555
O1 Ni1 1_555 1_555
O2 C1 1_555 1_555
O3 Ni1 1_555 1_555
O4 C7 1_555 1_555
O5 H15 1_555 1_555
C1 O1 1_555 1_555
C2 C1 1_555 1_555
C3 C2 1_555 1_555
H1 C3 1_555 1_555
C4 N2 1_555 1_555
C5 N1 1_555 1_555
H2 C5 1_555 1_555
C6 C4 1_555 1_555
H3 C6 1_555 1_555
H4 C6 1_555 1_555
H5 C6 1_555 1_555
C7 O3 1_555 1_555
C8 N3 1_555 1_555
C9 C8 1_555 1_555
H6 C9 1_555 1_555
C10 N4 1_555 1_555
C11 N3 1_555 1_555
H7 C11 1_555 1_555
C12 C10 1_555 1_555
H8 C12 1_555 1_555
H9 C12 1_555 1_555
H10 C12 1_555 1_555
C13 N5 1_555 1_555
H11 C13 1_555 1_555
C14 C13 1_555 1_555
H12 C14 1_555 1_555
C15 C14 1_555 1_555
C16 C15 1_555 1_555
H13 C16 1_555 1_555
C17 N5 1_555 1_555
H14 C17 1_555 1_555
H16 O5 1_555 1_555
Ni1C N1C 1_555 1_555
Ni1C_2 O4 1_555 1_555
Ni1A N5A 1_555 1_555
N1C C2C 1_555 1_555
N2C C3C 1_555 1_555
N3C Ni1C 1_555 1_555
N4C C9C 1_555 1_555
N5A C13A 1_555 1_555
N5C Ni1C 1_555 1_555
O1C Ni1C 1_555 1_555
O2C C1C 1_555 1_555
O3C Ni1C 1_555 1_555
O4C Ni1 1_555 1_555
O4_2 Ni1C 1_555 1_555
C1C O1C 1_555 1_555
C2C C1C 1_555 1_555
C3C C2C 1_555 1_555
H1C C3C 1_555 1_555
C4C N2C 1_555 1_555
C5C N1C 1_555 1_555
H2C C5C 1_555 1_555
C6C C4C 1_555 1_555
H3C C6C 1_555 1_555
H4C C6C 1_555 1_555
H5C C6C 1_555 1_555
C7C O3C 1_555 1_555
C8C N3C 1_555 1_555
C9C C8C 1_555 1_555
H6C C9C 1_555 1_555
C10C N4C 1_555 1_555
C11C N3C 1_555 1_555
H7C C11C 1_555 1_555
C12C C10C 1_555 1_555
H8C C12C 1_555 1_555
H9C C12C 1_555 1_555
H10C C12C 1_555 1_555
C13A H11A 1_555 1_555
C14A C13A 1_555 1_555
H12A C14A 1_555 1_555
C15A C15 1_555 1_555
C16A C15A 1_555 1_555
H13A C16A 1_555 1_555
C17A N5A 1_555 1_555
H14A C17A 1_555 1_555
C4 C5 1_555 1_555
C7 C8 1_555 1_555
C10 C11 1_555 1_555
C16 C17 1_555 1_555
O4C C7C 1_555 1_555
C4C C5C 1_555 1_555
C7C C8C 1_555 1_555
C10C C11C 1_555 1_555
C14A C15A 1_555 1_555
C16A C17A 1_555 1_555

#END
