
#######################################################################
#
#                 Cambridge Crystallographic Data Centre
#                                CCDC 
#
#######################################################################
#
# If this CIF has been generated from an entry in the Cambridge 
# Structural Database, then it will include bibliographic, chemical, 
# crystal, experimental, refinement or atomic coordinate data resulting 
# from the CCDC's data processing and validation procedures.
#
#######################################################################

data_UQAJUS
_symmetry_cell_setting           triclinic
_symmetry_space_group_name_H-M   'P -1'
_symmetry_Int_Tables_number      2
_space_group_name_Hall           '-P 1'
loop_
_symmetry_equiv_pos_site_id
_symmetry_equiv_pos_as_xyz
1 x,y,z
2 -x,-y,-z
_cell_length_a                   10.255(3)
_cell_length_b                   11.366(3)
_cell_length_c                   19.969(5)
_cell_angle_alpha                93.026(8)
_cell_angle_beta                 102.453(9)
_cell_angle_gamma                105.891(7)
_cell_volume                     2170.38
loop_
_atom_site_label
_atom_site_type_symbol
_atom_site_fract_x
_atom_site_fract_y
_atom_site_fract_z
O7 O 0.7075(18) 0.4858(16) 0.5708(10)
O8 O 0.7103(11) 0.2928(10) 0.5315(6)
O9 O 0.8055(11) 0.1762(7) 0.4924(5)
O10 O 1.0326(13) 0.2071(13) 0.5051(8)
C40 C 0.8861(13) 0.4503(11) 0.5174(5)
C41 C 0.9585(13) 0.3693(11) 0.5022(6)
C42 C 0.9128(13) 0.5801(11) 0.5175(6)
C43 C 0.7598(18) 0.4108(13) 0.5435(11)
C44 C 0.9225(13) 0.2347(13) 0.5023(8)
H28 H 0.8543 0.6261 0.5288
O7A O 1.2925(18) 0.5142(16) 0.4292(10)
O8A O 1.2897(11) 0.7072(10) 0.4685(6)
O9A O 1.1945(11) 0.8238(7) 0.5076(5)
O10A O 0.9674(13) 0.7929(13) 0.4949(8)
C40A C 1.1139(13) 0.5497(11) 0.4826(5)
C41A C 1.0415(13) 0.6307(11) 0.4978(6)
C42A C 1.0872(13) 0.4199(11) 0.4825(6)
C43A C 1.2402(18) 0.5892(13) 0.4565(11)
C44A C 1.0775(13) 0.7653(13) 0.4977(8)
H28A H 1.1457 0.3739 0.4712
O12 O 0.9313(4) 0.6279(3) 0.9455(3)
H31 H 0.8696 0.5760 0.9579
H32 H 1.0115 0.6264 0.9631
O13 O 0.7534(5) 0.0130(4) 0.3518(3)
O14 O 0.4913(8) 0.1634(5) 0.5395(4)
O15 O 0.0273(11) 0.0258(11) 0.5523(7)
O16 O 0.3341(17) 0.3056(13) 0.5703(10)
Ni1 Ni 0.45220(5) 0.65648(4) 0.92281(3)
Ni2 Ni 0.71771(5) -0.04624(4) 0.66345(3)
O1 O 0.5041(3) 0.5892(2) 0.83220(16)
O2 O 0.5869(3) 0.5365(3) 0.93335(16)
O3 O 0.5558(3) 0.2962(2) 0.97723(15)
O4 O 0.7823(3) 0.3403(3) 0.97585(18)
O5 O 0.6648(3) 0.0122(3) 0.75713(16)
O6 O 0.5991(3) 0.0812(3) 0.65826(16)
O11 O 0.7457(4) -0.0660(3) 0.5662(2)
N1 N 0.1520(4) 0.3107(3) 0.89338(19)
N2 N 0.2829(4) 0.5027(3) 0.90357(18)
N3 N -0.1874(3) -0.0531(3) 0.92931(18)
N4 N -0.3750(4) -0.1922(3) 0.94217(19)
N5 N 0.2316(4) -0.0889(3) 0.86441(19)
N6 N 0.3422(4) -0.2313(3) 0.87526(19)
N7 N 1.0269(4) 0.2975(3) 0.6939(2)
N8 N 0.8939(4) 0.1075(3) 0.6867(2)
N9 N 1.3540(4) 0.6602(3) 0.6453(2)
N10 N 1.5435(4) 0.8008(3) 0.6358(2)
N11 N 0.9353(4) 0.6931(3) 0.71157(19)
N12 N 0.8240(4) 0.8340(3) 0.7026(2)
C1 C 0.1100(4) 0.1806(3) 0.8947(3)
C2 C -0.0158(4) 0.1270(3) 0.9107(3)
C3 C -0.0594(4) 0.0007(3) 0.9113(3)
C4 C 0.0211(4) -0.0719(3) 0.8951(3)
C5 C 0.1462(4) -0.0156(3) 0.8795(3)
C6 C 0.1948(4) 0.1119(3) 0.8793(3)
C7 C 0.2823(4) 0.3883(3) 0.9129(3)
C8 C 0.1445(4) 0.4974(4) 0.8771(3)
C9 C 0.0624(4) 0.3792(3) 0.8708(3)
C10 C -0.2569(4) -0.1756(3) 0.9223(3)
C11 C -0.3801(4) -0.0770(3) 0.9640(3)
C12 C -0.2668(4) 0.0092(3) 0.9557(3)
C13 C 0.2504(4) -0.1882(3) 0.8967(3)
C14 C 0.3854(5) -0.1562(4) 0.8266(3)
C15 C 0.3183(4) -0.0683(4) 0.8188(3)
C16 C 1.0676(4) 0.4274(3) 0.6893(3)
C17 C 1.1899(4) 0.4798(3) 0.6705(3)
C18 C 1.2286(4) 0.6056(3) 0.6652(3)
C19 C 1.1452(4) 0.6772(3) 0.6788(3)
C20 C 1.0233(4) 0.6213(3) 0.6974(3)
C21 C 0.9818(4) 0.4956(4) 0.7030(3)
C22 C 0.8958(5) 0.2207(3) 0.6759(3)
C23 C 1.0310(5) 0.1114(4) 0.7134(3)
C24 C 1.1144(5) 0.2288(4) 0.7178(3)
C25 C 1.4283(4) 0.7820(3) 0.6573(3)
C26 C 1.5433(5) 0.6875(4) 0.6077(3)
C27 C 1.4288(5) 0.6004(4) 0.6133(3)
C28 C 0.9145(4) 0.7904(3) 0.6789(3)
C29 C 0.7859(5) 0.7618(4) 0.7519(3)
C30 C 0.8531(5) 0.6746(4) 0.7584(3)
C31 C 0.5802(4) 0.4082(3) 0.8329(3)
C32 C 0.6190(4) 0.3167(3) 0.8702(2)
C33 C 0.6284(4) 0.2130(3) 0.8326(3)
C34 C 0.5993(4) 0.1994(3) 0.7615(3)
C35 C 0.5633(5) 0.2916(4) 0.7250(3)
C36 C 0.5533(5) 0.3950(4) 0.7618(3)
C37 C 0.5582(4) 0.5198(3) 0.8685(3)
C38 C 0.6556(4) 0.3212(3) 0.9478(3)
C39 C 0.6189(4) 0.0891(3) 0.7234(3)
H1 H -0.0717 0.1763 0.9213
H2 H -0.0095 -0.1588 0.8948
H3 H 0.2820 0.1497 0.8692
H4 H 0.3633 0.3640 0.9309
H5 H 0.1121 0.5659 0.8651
H6 H -0.0362 0.3498 0.8542
H7 H -0.2250 -0.2398 0.9055
H8 H -0.4525 -0.0608 0.9822
H9 H -0.2458 0.0959 0.9660
H10 H 0.2029 -0.2217 0.9305
H11 H 0.4527 -0.1652 0.8021
H12 H 0.3285 -0.0062 0.7887
H13 H 1.2472 0.4309 0.6613
H14 H 1.1717 0.7631 0.6753
H15 H 0.8974 0.4580 0.7158
H16 H 0.8151 0.2454 0.6578
H17 H 1.0623 0.0428 0.7266
H18 H 1.2131 0.2573 0.7341
H19 H 1.4002 0.8447 0.6785
H20 H 1.6138 0.6731 0.5872
H21 H 1.4042 0.5148 0.5983
H22 H 0.9588 0.8227 0.6439
H23 H 0.7213 0.7716 0.7779
H24 H 0.8452 0.6132 0.7890
H25 H 0.6555 0.1504 0.8567
H26 H 0.5460 0.2841 0.6760
H27 H 0.5273 0.4578 0.7375
H29 H 0.6682 -0.0993 0.5384
H30 H 0.7679 0.0036 0.5523
Ni1A Ni 0.54780(5) 0.34352(4) 1.07719(3)
Ni1_2 Ni -0.54780(5) -0.34352(4) 0.92281(3)
Ni1_3 Ni 0.45220(5) -0.34352(4) 0.92281(3)
Ni1A_2 Ni 1.54780(5) 1.34352(4) 1.07719(3)
Ni1A_3 Ni 0.54780(5) 1.34352(4) 1.07719(3)
Ni2A Ni 0.28229(5) 1.04624(4) 1.33655(3)
Ni2_2 Ni -0.28229(5) -1.04624(4) 0.66345(3)
Ni2_3 Ni 1.71771(5) 0.95376(4) 0.66345(3)
Ni2_4 Ni 0.71771(5) 0.95376(4) 0.66345(3)
Ni2_5 Ni -0.28229(5) -0.04624(4) 0.66345(3)
O1A O 0.4959(3) 0.4108(2) 1.16780(16)
O2A O 0.4131(3) 0.4635(3) 1.06665(16)
O3A O 0.4442(3) 0.7038(2) 1.02277(15)
O4A O 0.2177(3) 0.6597(3) 1.02415(18)
O5A O 0.3352(3) 0.9878(3) 1.24287(16)
O6A O 0.4009(3) 0.9188(3) 1.34174(16)
O11A O 0.2543(4) 1.0660(3) 1.4338(2)
N1A N 0.8480(4) 0.6893(3) 1.10662(19)
N2A N 0.7171(4) 0.4973(3) 1.09643(18)
N3A N 1.1874(3) 1.0531(3) 1.07069(18)
N4_2 N 0.6250(4) 0.8078(3) 0.94217(19)
N4A N 1.3750(4) 1.1922(3) 1.05783(19)
N4A_2 N 0.3750(4) 0.1922(3) 1.05783(19)
N5A N 0.7684(4) 1.0889(3) 1.13559(19)
N6_2 N 0.3422(4) 0.7687(3) 0.87526(19)
N6A N 0.6578(4) 1.2313(3) 1.12474(19)
N6A_2 N 0.6578(4) 0.2313(3) 1.12474(19)
N7_2 N 0.0269(4) -0.7025(3) 0.6939(2)
N8_2 N -0.1061(4) -0.8925(3) 0.6867(2)
N8A N 0.1061(4) 0.8925(3) 1.3133(2)
N9_2 N 0.3540(4) -0.3398(3) 0.6453(2)
N10_2 N 0.5435(4) -0.1992(3) 0.6358(2)
N10A N 0.4565(4) 1.1992(3) 1.3642(2)
N11_2 N -0.0647(4) -0.3069(3) 0.71157(19)
N12_2 N -0.1760(4) -0.1660(3) 0.7026(2)
N12_3 N 0.8240(4) -0.1660(3) 0.7026(2)
N12A N 0.1760(4) 1.1660(3) 1.2974(2)
C1A C 0.8900(4) 0.8194(3) 1.1053(3)
C2A C 1.0158(4) 0.8730(3) 1.0893(3)
C3A C 1.0594(4) 0.9993(3) 1.0887(3)
C4A C 0.9789(4) 1.0719(3) 1.1049(3)
C5A C 0.8538(4) 1.0156(3) 1.1205(3)
C6A C 0.8052(4) 0.8881(3) 1.1207(3)
C7A C 0.7177(4) 0.6117(3) 1.0871(3)
C8A C 0.8555(4) 0.5026(4) 1.1229(3)
C9A C 0.9376(4) 0.6208(3) 1.1292(3)
C10A C 1.2569(4) 1.1756(3) 1.0777(3)
C11A C 1.3801(4) 1.0770(3) 1.0360(3)
C12A C 1.2668(4) 0.9908(3) 1.0443(3)
C13A C 0.7496(4) 1.1882(3) 1.1033(3)
C14A C 0.6146(5) 1.1562(4) 1.1734(3)
C15A C 0.6817(4) 1.0683(4) 1.1812(3)
C16_2 C 0.0676(4) -0.5726(3) 0.6893(3)
C17_2 C 0.1899(4) -0.5202(3) 0.6705(3)
C18_2 C 0.2286(4) -0.3944(3) 0.6652(3)
C19_2 C 0.1452(4) -0.3228(3) 0.6788(3)
C20_2 C 0.0233(4) -0.3787(3) 0.6974(3)
C21_2 C -0.0182(4) -0.5044(4) 0.7030(3)
C22_2 C -0.1042(5) -0.7793(3) 0.6759(3)
C23_2 C 0.0310(5) -0.8886(4) 0.7134(3)
C24_2 C 0.1144(5) -0.7712(4) 0.7178(3)
C25_2 C 0.4283(4) -0.2180(3) 0.6573(3)
C26_2 C 0.5433(5) -0.3125(4) 0.6077(3)
C27_2 C 0.4288(5) -0.3996(4) 0.6133(3)
C28_2 C -0.0855(4) -0.2096(3) 0.6789(3)
C29_2 C -0.2141(5) -0.2382(4) 0.7519(3)
C30_2 C -0.1469(5) -0.3254(4) 0.7584(3)
C31A C 0.4198(4) 0.5918(3) 1.1671(3)
C32A C 0.3810(4) 0.6833(3) 1.1298(2)
C33A C 0.3716(4) 0.7870(3) 1.1674(3)
C34A C 0.4007(4) 0.8006(3) 1.2385(3)
C35A C 0.4367(5) 0.7084(4) 1.2750(3)
C36A C 0.4467(5) 0.6050(4) 1.2382(3)
C37A C 0.4418(4) 0.4802(3) 1.1315(3)
C38A C 0.3444(4) 0.6788(3) 1.0522(3)
C39A C 0.3811(4) 0.9109(3) 1.2766(3)
H1A H 1.0717 0.8237 1.0787
H2A H 1.0095 1.1588 1.1052
H3A H 0.7180 0.8503 1.1308
H4A H 0.6367 0.6360 1.0691
H5A H 0.8879 0.4341 1.1349
H6A H 1.0362 0.6502 1.1458
H7A H 1.2250 1.2398 1.0945
H8A H 1.4525 1.0608 1.0178
H9A H 1.2458 0.9041 1.0340
H10A H 0.7971 1.2217 1.0695
H11A H 0.5473 1.1652 1.1979
H12A H 0.6715 1.0062 1.2113
H13_2 H 0.2472 -0.5691 0.6613
H14_2 H 0.1717 -0.2369 0.6753
H15_2 H -0.1026 -0.5420 0.7158
H16_2 H -0.1849 -0.7546 0.6578
H17_2 H 0.0623 -0.9572 0.7266
H18_2 H 0.2131 -0.7427 0.7341
H19_2 H 0.4002 -0.1553 0.6785
H20_2 H 0.6138 -0.3269 0.5872
H21_2 H 0.4042 -0.4852 0.5983
H22_2 H -0.0412 -0.1773 0.6439
H23_2 H -0.2787 -0.2284 0.7779
H24_2 H -0.1548 -0.3868 0.7890
H25A H 0.3445 0.8496 1.1433
H26A H 0.4540 0.7159 1.3240
H27A H 0.4727 0.5422 1.2625
H29A H 0.3318 1.0993 1.4616
H30A H 0.2321 0.9964 1.4477
O17? O 0.263(2) 0.237(3) 0.6025(8)
loop_
_geom_bond_atom_site_label_1
_geom_bond_atom_site_label_2
_geom_bond_site_symmetry_1
_geom_bond_site_symmetry_2
Ni1 O1 1_555 1_555
Ni2 O5 1_555 1_555
O1 C37 1_555 1_555
O2 Ni1 1_555 1_555
O3 C38 1_555 1_555
O4 C38 1_555 1_555
O5 C39 1_555 1_555
O6 Ni2 1_555 1_555
O7 C43 1_555 1_555
O8 C43 1_555 1_555
O9 C44 1_555 1_555
O10 C44 1_555 1_555
O11 Ni2 1_555 1_555
O12 H31 1_555 1_555
N1 C1 1_555 1_555
N2 Ni1 1_555 1_555
N3 C3 1_555 1_555
N4 C10 1_555 1_555
N5 C5 1_555 1_555
N6 C13 1_555 1_555
N7 C16 1_555 1_555
N8 Ni2 1_555 1_555
N9 C18 1_555 1_555
N10 C25 1_555 1_555
N11 C20 1_555 1_555
N12 C28 1_555 1_555
C1 C2 1_555 1_555
C2 C3 1_555 1_555
C3 C4 1_555 1_555
C4 C5 1_555 1_555
C5 C6 1_555 1_555
C6 C1 1_555 1_555
C7 N1 1_555 1_555
C8 N2 1_555 1_555
C9 N1 1_555 1_555
C10 N3 1_555 1_555
C11 N4 1_555 1_555
C12 N3 1_555 1_555
C13 N5 1_555 1_555
C14 N6 1_555 1_555
C15 N5 1_555 1_555
C16 C17 1_555 1_555
C17 C18 1_555 1_555
C18 C19 1_555 1_555
C19 C20 1_555 1_555
C20 C21 1_555 1_555
C21 C16 1_555 1_555
C22 N7 1_555 1_555
C23 N8 1_555 1_555
C24 N7 1_555 1_555
C25 N9 1_555 1_555
C26 N10 1_555 1_555
C27 N9 1_555 1_555
C28 N11 1_555 1_555
C29 N12 1_555 1_555
C30 N11 1_555 1_555
C31 C32 1_555 1_555
C32 C33 1_555 1_555
C33 C34 1_555 1_555
C34 C35 1_555 1_555
C35 C36 1_555 1_555
C36 C31 1_555 1_555
C37 O2 1_555 1_555
C38 C32 1_555 1_555
C39 O6 1_555 1_555
C40 C41 1_555 1_555
C41 C44 1_555 1_555
C42 C40 1_555 1_555
C43 C40 1_555 1_555
H1 C2 1_555 1_555
H2 C4 1_555 1_555
H3 C6 1_555 1_555
H4 C7 1_555 1_555
H5 C8 1_555 1_555
H6 C9 1_555 1_555
H7 C10 1_555 1_555
H8 C11 1_555 1_555
H9 C12 1_555 1_555
H10 C13 1_555 1_555
H11 C14 1_555 1_555
H12 C15 1_555 1_555
H13 C17 1_555 1_555
H14 C19 1_555 1_555
H15 C21 1_555 1_555
H16 C22 1_555 1_555
H17 C23 1_555 1_555
H18 C24 1_555 1_555
H19 C25 1_555 1_555
H20 C26 1_555 1_555
H21 C27 1_555 1_555
H22 C28 1_555 1_555
H23 C29 1_555 1_555
H24 C30 1_555 1_555
H25 C33 1_555 1_555
H26 C35 1_555 1_555
H27 C36 1_555 1_555
H28 C42 1_555 1_555
H29 O11 1_555 1_555
H30 O11 1_555 1_555
H32 O12 1_555 1_555
Ni1A O3 1_555 1_555
Ni1_2 N4 1_555 1_555
Ni1_3 N6 1_555 1_555
Ni1A_2 N4A 1_555 1_555
Ni1A_3 N6A 1_555 1_555
Ni2A O5A 1_555 1_555
Ni2_2 N8_2 1_555 1_555
Ni2_3 N10 1_555 1_555
Ni2_4 N12 1_555 1_555
Ni2_5 N12_2 1_555 1_555
O1A Ni1A 1_555 1_555
O2A Ni1A 1_555 1_555
O3A Ni1 1_555 1_555
O4A C38A 1_555 1_555
O5A C39A 1_555 1_555
O6A Ni2A 1_555 1_555
O7A C43A 1_555 1_555
O8A C43A 1_555 1_555
O9A C44A 1_555 1_555
O10A C44A 1_555 1_555
O11A Ni2A 1_555 1_555
N1A C1A 1_555 1_555
N2A Ni1A 1_555 1_555
N3A C3A 1_555 1_555
N4_2 Ni1 1_555 1_555
N4A C10A 1_555 1_555
N4A_2 Ni1A 1_555 1_555
N5A C5A 1_555 1_555
N6_2 Ni1 1_555 1_555
N6A C13A 1_555 1_555
N6A_2 Ni1A 1_555 1_555
N7_2 C16_2 1_555 1_555
N8_2 C22_2 1_555 1_555
N8A Ni2A 1_555 1_555
N9_2 C18_2 1_555 1_555
N10_2 Ni2 1_555 1_555
N10A Ni2A 1_555 1_555
N11_2 C20_2 1_555 1_555
N12_2 C28_2 1_555 1_555
N12_3 Ni2 1_555 1_555
N12A Ni2A 1_555 1_555
C1A C2A 1_555 1_555
C2A C3A 1_555 1_555
C3A C4A 1_555 1_555
C4A C5A 1_555 1_555
C5A C6A 1_555 1_555
C6A C1A 1_555 1_555
C7A N1A 1_555 1_555
C8A N2A 1_555 1_555
C9A N1A 1_555 1_555
C10A N3A 1_555 1_555
C11A N4A 1_555 1_555
C12A N3A 1_555 1_555
C13A N5A 1_555 1_555
C14A N6A 1_555 1_555
C15A N5A 1_555 1_555
C16_2 C17_2 1_555 1_555
C17_2 C18_2 1_555 1_555
C18_2 C19_2 1_555 1_555
C19_2 C20_2 1_555 1_555
C20_2 C21_2 1_555 1_555
C21_2 C16_2 1_555 1_555
C22_2 N7_2 1_555 1_555
C23_2 N8_2 1_555 1_555
C24_2 N7_2 1_555 1_555
C25_2 N9_2 1_555 1_555
C26_2 N10_2 1_555 1_555
C27_2 N9_2 1_555 1_555
C28_2 N11_2 1_555 1_555
C29_2 N12_2 1_555 1_555
C30_2 N11_2 1_555 1_555
C31A C32A 1_555 1_555
C32A C33A 1_555 1_555
C33A C34A 1_555 1_555
C34A C35A 1_555 1_555
C35A C36A 1_555 1_555
C36A C31A 1_555 1_555
C37A O1A 1_555 1_555
C38A O3A 1_555 1_555
C39A O6A 1_555 1_555
C40A C41A 1_555 1_555
C41A C42 1_555 1_555
C42A C41 1_555 1_555
C43A C40A 1_555 1_555
C44A C41A 1_555 1_555
H1A C2A 1_555 1_555
H2A C4A 1_555 1_555
H3A C6A 1_555 1_555
H4A C7A 1_555 1_555
H5A C8A 1_555 1_555
H6A C9A 1_555 1_555
H7A C10A 1_555 1_555
H8A C11A 1_555 1_555
H9A C12A 1_555 1_555
H10A C13A 1_555 1_555
H11A C14A 1_555 1_555
H12A C15A 1_555 1_555
H13_2 C17_2 1_555 1_555
H14_2 C19_2 1_555 1_555
H15_2 C21_2 1_555 1_555
H16_2 C22_2 1_555 1_555
H17_2 C23_2 1_555 1_555
H18_2 C24_2 1_555 1_555
H19_2 C25_2 1_555 1_555
H20_2 C26_2 1_555 1_555
H21_2 C27_2 1_555 1_555
H22_2 C28_2 1_555 1_555
H23_2 C29_2 1_555 1_555
H24_2 C30_2 1_555 1_555
H25A C33A 1_555 1_555
H26A C35A 1_555 1_555
H27A C36A 1_555 1_555
H28A C42A 1_555 1_555
H29A O11A 1_555 1_555
H30A O11A 1_555 1_555
N2 C7 1_555 1_555
N8 C22 1_555 1_555
C8 C9 1_555 1_555
C11 C12 1_555 1_555
C14 C15 1_555 1_555
C23 C24 1_555 1_555
C26 C27 1_555 1_555
C29 C30 1_555 1_555
C31 C37 1_555 1_555
C34 C39 1_555 1_555
O2A C37A 1_555 1_555
N2A C7A 1_555 1_555
N10_2 C25_2 1_555 1_555
C8A C9A 1_555 1_555
C11A C12A 1_555 1_555
C14A C15A 1_555 1_555
C23_2 C24_2 1_555 1_555
C26_2 C27_2 1_555 1_555
C29_2 C30_2 1_555 1_555
C31A C37A 1_555 1_555
C32A C38A 1_555 1_555
C34A C39A 1_555 1_555
C40A C42A 1_555 1_555

#END
