
#######################################################################
#
#                 Cambridge Crystallographic Data Centre
#                                CCDC 
#
#######################################################################
#
# If this CIF has been generated from an entry in the Cambridge 
# Structural Database, then it will include bibliographic, chemical, 
# crystal, experimental, refinement or atomic coordinate data resulting 
# from the CCDC's data processing and validation procedures.
#
#######################################################################

data_UQAKAZ
_symmetry_cell_setting           monoclinic
_symmetry_space_group_name_H-M   'P 21/c'
_symmetry_Int_Tables_number      14
_space_group_name_Hall           '-P 2ybc'
loop_
_symmetry_equiv_pos_site_id
_symmetry_equiv_pos_as_xyz
1 x,y,z
2 -x,1/2+y,1/2-z
3 -x,-y,-z
4 x,1/2-y,1/2+z
_cell_length_a                   7.770(3)
_cell_length_b                   18.097(7)
_cell_length_c                   15.681(6)
_cell_angle_alpha                90
_cell_angle_beta                 106.010(14)
_cell_angle_gamma                90
_cell_volume                     2119.44
loop_
_atom_site_label
_atom_site_type_symbol
_atom_site_fract_x
_atom_site_fract_y
_atom_site_fract_z
Co1 Co 0.24861(5) 0.499766(16) 0.15989(2)
O1 O 0.5910(3) 0.10242(13) -0.07944(16)
O2 O 0.7460(4) 0.06795(11) 0.05400(18)
H1 H 0.818(5) 0.092(2) 0.119(3)
O3 O 0.8900(3) 0.12166(11) 0.19556(17)
O4 O 0.9439(3) 0.23558(12) 0.24318(14)
O5 O 0.4256(3) 0.39577(12) 0.20423(15)
O6 O 0.3104(3) 0.43377(10) 0.06742(14)
N1 N 0.6764(3) 0.62103(11) 0.32618(15)
N2 N 0.4584(3) 0.56285(12) 0.22817(15)
N3 N 0.9533(3) 0.58435(11) 0.64227(15)
N4 N 0.8998(3) 0.53355(11) 0.75933(15)
N5 N 1.0326(3) 0.81510(11) 0.50530(14)
N6 N 1.1268(3) 0.92157(11) 0.56909(15)
C1 C 0.7883(3) 0.64507(13) 0.40920(17)
C2 C 0.8197(4) 0.59972(13) 0.48312(18)
H2 H 0.7711 0.5513 0.4790
C3 C 0.9241(4) 0.62716(13) 0.56319(17)
C4 C 1.0027(4) 0.69670(13) 0.57054(18)
H3 H 1.0794 0.7133 0.6254
C5 C 0.9663(3) 0.74109(13) 0.49594(17)
C6 C 0.8602(3) 0.71650(13) 0.41491(18)
H4 H 0.8365 0.7475 0.3641
C7 C 0.5464(4) 0.56821(14) 0.31270(18)
H5 H 0.5223 0.5390 0.3585
C8 C 0.5366(4) 0.61440(17) 0.1853(2)
H6 H 0.5009 0.6235 0.1232
C9 C 0.6700(4) 0.64977(17) 0.24390(19)
H7 H 0.7451 0.6872 0.2312
C10 C 0.8276(4) 0.56916(13) 0.68455(17)
H8 H 0.7047 0.5822 0.6635
C11 C 1.0800(4) 0.52571(15) 0.76494(19)
H9 H 1.1657 0.5015 0.8117
C12 C 1.1152(4) 0.55777(14) 0.69362(19)
H10 H 1.2281 0.5613 0.6814
C13 C 1.0631(4) 0.85600(13) 0.58061(18)
H11 H 1.0414 0.8396 0.6343
C14 C 1.1364(4) 0.92307(13) 0.48210(18)
H12 H 1.1778 0.9637 0.4548
C15 C 1.0780(4) 0.85816(14) 0.44190(18)
H13 H 1.0698 0.8448 0.3823
C16 C 0.6148(4) 0.19111(14) 0.03479(19)
C17 C 0.6889(4) 0.21803(14) 0.12173(19)
C18 C 0.6168(4) 0.28255(14) 0.14758(19)
H14 H 0.6620 0.2999 0.2067
C19 C 0.4812(4) 0.32163(14) 0.08897(19)
C20 C 0.4210(4) 0.29892(15) 0.0017(2)
H15 H 0.3360 0.3279 -0.0402
C21 C 0.4853(4) 0.23350(16) -0.0248(2)
H16 H 0.4404 0.2174 -0.0845
C22 C 0.6533(4) 0.11579(16) -0.0016(2)
C23 C 0.8520(4) 0.19012(15) 0.19145(19)
C24 C 0.4030(4) 0.38782(14) 0.1232(2)
Co1B Co 0.75139(5) 0.500234(16) 0.84011(2)
Co1C Co 1.24861(5) 1.000234(16) 0.65989(2)
N4B N 0.1002(3) 0.46645(11) 0.24067(15)
N6C N 0.1268(3) 0.57843(11) 0.06909(15)
loop_
_geom_bond_atom_site_label_1
_geom_bond_atom_site_label_2
_geom_bond_site_symmetry_1
_geom_bond_site_symmetry_2
Co1 O5 1_555 1_555
O1 C22 1_555 1_555
O2 H1 1_555 1_555
O3 C23 1_555 1_555
O4 C23 1_555 1_555
O5 C24 1_555 1_555
O6 Co1 1_555 1_555
N1 C1 1_555 1_555
N2 Co1 1_555 1_555
N3 C3 1_555 1_555
N4 C10 1_555 1_555
N5 C5 1_555 1_555
N6 C13 1_555 1_555
C1 C2 1_555 1_555
C2 H2 1_555 1_555
C3 C2 1_555 1_555
C4 C3 1_555 1_555
H3 C4 1_555 1_555
C5 C4 1_555 1_555
C6 C1 1_555 1_555
H4 C6 1_555 1_555
C7 N1 1_555 1_555
H5 C7 1_555 1_555
C8 N2 1_555 1_555
H6 C8 1_555 1_555
C9 N1 1_555 1_555
H7 C9 1_555 1_555
C10 N3 1_555 1_555
H8 C10 1_555 1_555
C11 N4 1_555 1_555
H9 C11 1_555 1_555
C12 N3 1_555 1_555
H10 C12 1_555 1_555
C13 N5 1_555 1_555
H11 C13 1_555 1_555
C14 N6 1_555 1_555
H12 C14 1_555 1_555
C15 N5 1_555 1_555
H13 C15 1_555 1_555
C16 C17 1_555 1_555
C17 C18 1_555 1_555
C18 H14 1_555 1_555
C19 C18 1_555 1_555
C20 C19 1_555 1_555
H15 C20 1_555 1_555
C21 C16 1_555 1_555
H16 C21 1_555 1_555
C22 O2 1_555 1_555
C23 C17 1_555 1_555
C24 O6 1_555 1_555
Co1B N4 1_555 1_555
Co1C N6 1_555 1_555
N4B Co1 1_555 1_555
N6C Co1 1_555 1_555
N2 C7 1_555 1_555
C5 C6 1_555 1_555
C8 C9 1_555 1_555
C11 C12 1_555 1_555
C14 C15 1_555 1_555
C16 C22 1_555 1_555
C19 C24 1_555 1_555
C20 C21 1_555 1_555

#END
