
#######################################################################
#
#                 Cambridge Crystallographic Data Centre
#                                CCDC 
#
#######################################################################
#
# If this CIF has been generated from an entry in the Cambridge 
# Structural Database, then it will include bibliographic, chemical, 
# crystal, experimental, refinement or atomic coordinate data resulting 
# from the CCDC's data processing and validation procedures.
#
#######################################################################

data_UQAMOP
_symmetry_cell_setting           monoclinic
_symmetry_space_group_name_H-M   'P 21/c'
_symmetry_Int_Tables_number      14
_space_group_name_Hall           '-P 2ybc'
loop_
_symmetry_equiv_pos_site_id
_symmetry_equiv_pos_as_xyz
1 x,y,z
2 -x,1/2+y,1/2-z
3 -x,-y,-z
4 x,1/2-y,1/2+z
_cell_length_a                   9.6401(2)
_cell_length_b                   10.6157(2)
_cell_length_c                   15.2373(3)
_cell_angle_alpha                90
_cell_angle_beta                 97.472(1)
_cell_angle_gamma                90
_cell_volume                     1546.09
loop_
_atom_site_label
_atom_site_type_symbol
_atom_site_fract_x
_atom_site_fract_y
_atom_site_fract_z
Zn1 Zn 0.0000 0.5000 0.5000
O1 O 0.3765(3) 0.1474(3) 0.32662(18)
O2 O 0.0663(2) 0.68288(19) 0.46788(15)
H1 H 0.1445 0.6884 0.4385
H2 H 0.0228 0.7593 0.4602
N1 N 0.4242(3) 0.3518(3) 0.51298(19)
N2 N 0.3899(2) 0.3742(2) 0.42495(17)
N3 N 0.2046(2) 0.4237(2) 0.48473(15)
N4 N 0.1492(3) -0.0163(2) 0.27561(17)
N5 N 0.1832(3) -0.1355(3) 0.25521(17)
N6 N 0.0723(2) -0.0377(2) 0.13654(14)
C1 C 0.3098(3) 0.3824(3) 0.5456(2)
H3 H 0.3013 0.3762 0.6056
C2 C 0.2597(3) 0.4156(3) 0.4094(2)
H4 H 0.2134 0.4360 0.3539
C3 C 0.1347(3) -0.1444(3) 0.17095(19)
H5 H 0.1425 -0.2171 0.1379
C4 C 0.0842(3) 0.0401(3) 0.20523(18)
H6 H 0.0513 0.1225 0.2038
C5 C 0.4861(3) 0.3458(3) 0.3611(3)
H7 H 0.5753 0.3863 0.3796
H8 H 0.4488 0.3796 0.3037
C6 C 0.5085(3) 0.2056(3) 0.3530(3)
H9 H 0.5711 0.1891 0.3093
H10 H 0.5504 0.1716 0.4093
C7 C 0.3403(4) 0.0573(4) 0.3866(2)
H11 H 0.3620 0.0880 0.4467
H12 H 0.3921 -0.0200 0.3810
C8 C 0.1856(4) 0.0335(4) 0.3653(2)
H13 H 0.1565 -0.0260 0.4076
H14 H 0.1354 0.1117 0.3709
Zn1A Zn 0.0000 0.0000 0.0000
Zn1A_2 Zn 0.0000 1.0000 0.0000
O1A O -0.3765(3) 0.6474(3) 0.17338(18)
O2B O -0.0663(2) 0.31712(19) 0.53212(15)
H1B H -0.1445 0.3116 0.5615
H2B H -0.0228 0.2407 0.5398
N1A N -0.4242(3) 0.8518(3) -0.01298(19)
N2A N -0.3899(2) 0.8742(2) 0.07505(17)
N3A N -0.2046(2) 0.9237(2) 0.01527(15)
N3B N -0.2046(2) 0.5763(2) 0.51527(15)
N4A N -0.1492(3) 0.4837(2) 0.22439(17)
N5A N -0.1832(3) 0.3645(3) 0.24479(17)
N6A N -0.0723(2) 0.4623(2) 0.36346(14)
N6C N 0.0723(2) 0.5377(2) 0.63654(14)
C1A C -0.3098(3) 0.8824(3) -0.0456(2)
H3A H -0.3013 0.8762 -0.1056
C2A C -0.2597(3) 0.9156(3) 0.0906(2)
H4A H -0.2134 0.9360 0.1461
C3A C -0.1347(3) 0.3556(3) 0.32905(19)
H5A H -0.1425 0.2829 0.3621
C4A C -0.0842(3) 0.5401(3) 0.29477(18)
H6A H -0.0513 0.6225 0.2962
C5A C -0.4861(3) 0.8458(3) 0.1389(3)
H7A H -0.5753 0.8863 0.1204
H8A H -0.4488 0.8796 0.1963
C6A C -0.5085(3) 0.7056(3) 0.1470(3)
H9A H -0.5711 0.6891 0.1907
H10A H -0.5504 0.6716 0.0907
C7A C -0.3403(4) 0.5573(4) 0.1134(2)
H11A H -0.3620 0.5880 0.0533
H12A H -0.3921 0.4800 0.1190
C8A C -0.1856(4) 0.5335(4) 0.1347(2)
H13A H -0.1565 0.4740 0.0924
H14A H -0.1354 0.6117 0.1291
Cl1 Cl 0.19908(9) 0.43336(9) 0.13722(6)
O3 O 0.1433(6) 0.3475(5) 0.1981(3)
O4 O 0.1716(6) 0.5492(5) 0.1640(8)
O5 O 0.1245(5) 0.3868(5) 0.0552(3)
O6 O 0.3426(3) 0.4102(4) 0.1372(3)
O7 O 0.6981(3) 0.2090(4) 0.1006(2)
H15 H 0.7045 0.2673 0.1446
H16 H 0.6496 0.2159 0.0520
loop_
_geom_bond_atom_site_label_1
_geom_bond_atom_site_label_2
_geom_bond_site_symmetry_1
_geom_bond_site_symmetry_2
Zn1 O2 1_555 1_555
O1 C6 1_555 1_555
O2 H1 1_555 1_555
H2 O2 1_555 1_555
N1 N2 1_555 1_555
N2 C2 1_555 1_555
N3 Zn1 1_555 1_555
N4 N5 1_555 1_555
N5 C3 1_555 1_555
N6 C3 1_555 1_555
C1 N1 1_555 1_555
H3 C1 1_555 1_555
C2 N3 1_555 1_555
H4 C2 1_555 1_555
C3 H5 1_555 1_555
C4 N4 1_555 1_555
H6 C4 1_555 1_555
C5 N2 1_555 1_555
H7 C5 1_555 1_555
H8 C5 1_555 1_555
C6 C5 1_555 1_555
H9 C6 1_555 1_555
H10 C6 1_555 1_555
C7 O1 1_555 1_555
H11 C7 1_555 1_555
H12 C7 1_555 1_555
C8 N4 1_555 1_555
H13 C8 1_555 1_555
H14 C8 1_555 1_555
Cl1 O3 1_555 1_555
O4 Cl1 1_555 1_555
O5 Cl1 1_555 1_555
O6 Cl1 1_555 1_555
O7 H15 1_555 1_555
H16 O7 1_555 1_555
Zn1A N6 1_555 1_555
Zn1A_2 N3A 1_555 1_555
O1A C6A 1_555 1_555
O2B Zn1 1_555 1_555
H1B O2B 1_555 1_555
H2B O2B 1_555 1_555
N1A N2A 1_555 1_555
N2A C2A 1_555 1_555
N3A C1A 1_555 1_555
N3B Zn1 1_555 1_555
N4A N5A 1_555 1_555
N5A C3A 1_555 1_555
N6A Zn1 1_555 1_555
N6C Zn1 1_555 1_555
C1A N1A 1_555 1_555
H3A C1A 1_555 1_555
C2A N3A 1_555 1_555
H4A C2A 1_555 1_555
C3A N6A 1_555 1_555
H5A C3A 1_555 1_555
C4A N4A 1_555 1_555
H6A C4A 1_555 1_555
C5A N2A 1_555 1_555
H7A C5A 1_555 1_555
H8A C5A 1_555 1_555
C6A C5A 1_555 1_555
H9A C6A 1_555 1_555
H10A C6A 1_555 1_555
C7A O1A 1_555 1_555
H11A C7A 1_555 1_555
H12A C7A 1_555 1_555
C8A N4A 1_555 1_555
H13A C8A 1_555 1_555
H14A C8A 1_555 1_555
N3 C1 1_555 1_555
N6 C4 1_555 1_555
C7 C8 1_555 1_555
N6A C4A 1_555 1_555
C7A C8A 1_555 1_555

#END
