
#######################################################################
#
#                 Cambridge Crystallographic Data Centre
#                                CCDC 
#
#######################################################################
#
# If this CIF has been generated from an entry in the Cambridge 
# Structural Database, then it will include bibliographic, chemical, 
# crystal, experimental, refinement or atomic coordinate data resulting 
# from the CCDC's data processing and validation procedures.
#
#######################################################################

data_UQAMIJ
_symmetry_cell_setting           triclinic
_symmetry_space_group_name_H-M   'P -1'
_symmetry_Int_Tables_number      2
_space_group_name_Hall           '-P 1'
loop_
_symmetry_equiv_pos_site_id
_symmetry_equiv_pos_as_xyz
1 x,y,z
2 -x,-y,-z
_cell_length_a                   8.2960(13)
_cell_length_b                   11.0159(18)
_cell_length_c                   14.625(2)
_cell_angle_alpha                70.939(2)
_cell_angle_beta                 83.496(2)
_cell_angle_gamma                75.096(2)
_cell_volume                     1220.14
loop_
_atom_site_label
_atom_site_type_symbol
_atom_site_fract_x
_atom_site_fract_y
_atom_site_fract_z
Zn1 Zn 0.75496(2) 0.757256(18) 0.253973(13)
O1 O 0.11969(15) 1.13055(11) 0.20836(8)
O2 O 1.40025(15) 0.37779(11) 0.28857(8)
O3 O 0.55140(14) 0.68914(12) 0.34262(8)
O4 O 0.38041(16) 0.87132(13) 0.35368(10)
O5 O 0.32925(17) 0.68222(14) 0.43532(10)
O6 O 0.95920(14) 0.80574(12) 0.14499(9)
O7 O 1.20732(15) 0.76197(12) 0.20021(9)
O8 O 1.17259(18) 0.69908(17) 0.07999(11)
N1 N 0.61200(17) 0.92855(13) 0.15786(10)
N2 N 0.39357(17) 1.06760(13) 0.08445(9)
N3 N 0.51418(18) 1.13752(14) 0.06410(10)
N4 N 0.91274(17) 0.58492(13) 0.34300(10)
N5 N 1.12900(16) 0.43948(13) 0.41424(9)
N6 N 1.00908(17) 0.37037(14) 0.42648(10)
N7 N 1.71546(17) 0.63256(13) 0.17333(10)
N8 N 1.60964(17) 0.49792(13) 0.13124(10)
N9 N 1.77289(18) 0.47460(14) 0.10002(10)
N10 N -0.19347(17) 0.87947(13) 0.33013(10)
N11 N -0.24238(18) 1.04113(14) 0.39941(11)
N12 N -0.07915(17) 1.01230(13) 0.36935(10)
N13 N 0.41726(17) 0.74900(14) 0.37770(10)
N14 N 1.11464(17) 0.75477(14) 0.14064(10)
C1 C 0.4530(2) 0.94527(16) 0.14002(11)
H1 H 0.3923 0.8806 0.1632
C2 C 0.6430(2) 1.04957(16) 0.10961(12)
H2 H 0.7464 1.0683 0.1090
C3 C 1.0701(2) 0.56563(16) 0.36536(11)
H3 H 1.1300 0.6308 0.3492
C4 C 0.8816(2) 0.46187(16) 0.38287(12)
H4 H 0.7789 0.4445 0.3794
C5 C 1.8305(2) 0.55805(16) 0.12679(12)
H5 H 1.9406 0.5657 0.1150
C6 C 1.5779(2) 0.59123(16) 0.17440(12)
H6 H 1.4749 0.6228 0.2013
C7 C -0.3052(2) 0.95885(17) 0.37469(13)
H7 H -0.4165 0.9549 0.3865
C8 C -0.0525(2) 0.91675(16) 0.32830(12)
H8 H 0.0494 0.8815 0.3023
C9 C 0.2231(2) 1.12917(16) 0.05222(12)
H9 H 0.1655 1.0609 0.0571
H10 H 0.2259 1.1824 -0.0152
C10 C 0.1279(2) 1.21540(16) 0.11199(11)
H11 H 0.1853 1.2830 0.1093
H12 H 0.0166 1.2582 0.0879
C11 C 0.0419(2) 1.19775(16) 0.27559(11)
H13 H -0.0695 1.2484 0.2555
H14 H 0.1063 1.2577 0.2797
C12 C 1.29852(19) 0.37430(16) 0.44714(12)
H15 H 1.2938 0.3181 0.5136
H16 H 1.3575 0.4405 0.4454
C13 C 1.3932(2) 0.29183(16) 0.38474(11)
H17 H 1.5051 0.2492 0.4080
H18 H 1.3368 0.2240 0.3868
C14 C 1.4867(2) 0.31146(16) 0.22220(12)
H19 H 1.4260 0.2505 0.2156
H20 H 1.5970 0.2618 0.2451
C15 C 1.5004(2) 0.41564(16) 0.12564(12)
H21 H 1.5444 0.3730 0.0766
H22 H 1.3903 0.4708 0.1068
C16 C 0.0336(2) 1.09326(16) 0.37289(12)
H23 H 0.1443 1.0376 0.3893
H24 H -0.0060 1.1355 0.4226
Zn1_2 Zn 1.75496(2) 0.757256(18) 0.253973(13)
Zn1_3 Zn -0.24504(2) 0.757256(18) 0.253973(13)
N7_2 N 0.71546(17) 0.63256(13) 0.17333(10)
N10_2 N 0.80653(17) 0.87947(13) 0.33013(10)
loop_
_geom_bond_atom_site_label_1
_geom_bond_atom_site_label_2
_geom_bond_site_symmetry_1
_geom_bond_site_symmetry_2
Zn1 O3 1_555 1_555
O1 C10 1_555 1_555
O2 C13 1_555 1_555
O3 N13 1_555 1_555
O4 N13 1_555 1_555
O5 N13 1_555 1_555
O6 Zn1 1_555 1_555
O7 N14 1_555 1_555
O8 N14 1_555 1_555
N1 Zn1 1_555 1_555
N2 N3 1_555 1_555
N3 C2 1_555 1_555
N4 Zn1 1_555 1_555
N5 N6 1_555 1_555
N6 C4 1_555 1_555
N7 C5 1_555 1_555
N8 N9 1_555 1_555
N9 C5 1_555 1_555
N10 C7 1_555 1_555
N11 N12 1_555 1_555
N12 C8 1_555 1_555
N14 O6 1_555 1_555
C1 N1 1_555 1_555
H1 C1 1_555 1_555
C2 N1 1_555 1_555
H2 C2 1_555 1_555
C3 N4 1_555 1_555
H3 C3 1_555 1_555
C4 N4 1_555 1_555
H4 C4 1_555 1_555
C5 H5 1_555 1_555
C6 N7 1_555 1_555
H6 C6 1_555 1_555
C7 N11 1_555 1_555
H7 C7 1_555 1_555
C8 N10 1_555 1_555
H8 C8 1_555 1_555
C9 N2 1_555 1_555
H9 C9 1_555 1_555
H10 C9 1_555 1_555
C10 C9 1_555 1_555
H11 C10 1_555 1_555
H12 C10 1_555 1_555
C11 O1 1_555 1_555
H13 C11 1_555 1_555
H14 C11 1_555 1_555
C12 N5 1_555 1_555
H15 C12 1_555 1_555
H16 C12 1_555 1_555
C13 C12 1_555 1_555
H17 C13 1_555 1_555
H18 C13 1_555 1_555
C14 O2 1_555 1_555
H19 C14 1_555 1_555
H20 C14 1_555 1_555
C15 N8 1_555 1_555
H21 C15 1_555 1_555
H22 C15 1_555 1_555
C16 N12 1_555 1_555
H23 C16 1_555 1_555
H24 C16 1_555 1_555
Zn1_2 N7 1_555 1_555
Zn1_3 N10 1_555 1_555
N7_2 Zn1 1_555 1_555
N10_2 Zn1 1_555 1_555
N2 C1 1_555 1_555
N5 C3 1_555 1_555
N8 C6 1_555 1_555
C11 C16 1_555 1_555
C14 C15 1_555 1_555

#END
