
#######################################################################
#
#                 Cambridge Crystallographic Data Centre
#                                CCDC 
#
#######################################################################
#
# If this CIF has been generated from an entry in the Cambridge 
# Structural Database, then it will include bibliographic, chemical, 
# crystal, experimental, refinement or atomic coordinate data resulting 
# from the CCDC's data processing and validation procedures.
#
#######################################################################

data_UQANUW
_symmetry_cell_setting           monoclinic
_symmetry_space_group_name_H-M   'C 2/c'
_symmetry_Int_Tables_number      15
_space_group_name_Hall           '-C 2yn'
loop_
_symmetry_equiv_pos_site_id
_symmetry_equiv_pos_as_xyz
1 x,y,z
2 -x,y,1/2-z
3 1/2+x,1/2+y,z
4 1/2-x,1/2+y,1/2-z
5 -x,-y,-z
6 x,-y,1/2+z
7 1/2-x,1/2-y,-z
8 1/2+x,1/2-y,1/2+z
_cell_length_a                   25.951(3)
_cell_length_b                   11.6618(12)
_cell_length_c                   20.046(2)
_cell_angle_alpha                90
_cell_angle_beta                 114.863(2)
_cell_angle_gamma                90
_cell_volume                     5504.35
loop_
_atom_site_label
_atom_site_type_symbol
_atom_site_fract_x
_atom_site_fract_y
_atom_site_fract_z
Cd1 Cd 0.22958(3) 0.66159(5) 0.10025(4)
Cd2 Cd 0.44240(3) 0.43335(5) 0.29338(3)
O1 O 0.2442(3) 0.4683(6) 0.0771(4)
O2 O 0.3036(3) 0.5936(5) 0.0674(3)
O3 O 0.3821(3) 0.4153(5) 0.1754(3)
O4 O 0.4597(3) 0.4343(5) 0.1575(3)
O5 O 0.4262(3) 0.5514(5) -0.1030(3)
O6 O 0.3461(3) 0.5059(5) -0.1970(3)
O7 O 0.3009(3) 0.6608(5) -0.1047(4)
O8 O 0.2189(3) 0.5923(8) -0.1116(4)
O9 O 0.1752(3) 0.6924(6) -0.0269(4)
H1 H 0.1595 0.7559 -0.0444
H2 H 0.1934 0.6681 -0.0508
O10 O 0.2752(4) 0.6648(7) 0.2234(4)
H3 H 0.2669 0.7205 0.2443
H4 H 0.2938 0.6145 0.2546
N1 N 0.1438(4) 0.5915(8) 0.0920(6)
N2 N 0.4472(3) 0.2345(7) 0.2966(5)
N3 N 0.4489(3) -0.3708(5) 0.2883(4)
C1 C 0.3095(4) 0.3954(7) 0.0324(5)
H11 H 0.3039 0.3253 0.0555
C2 C 0.3724(3) 0.4017(7) 0.0523(4)
H12 H 0.3827 0.3250 0.0421
C3 C 0.3887(4) 0.4833(8) 0.0039(4)
H13 H 0.3803 0.5618 0.0119
H14 H 0.4291 0.4776 0.0170
C4 C 0.3553(4) 0.4517(7) -0.0768(4)
H15 H 0.3631 0.3700 -0.0796
C5 C 0.2912(3) 0.4588(7) -0.1004(4)
H16 H 0.2734 0.4274 -0.1503
C6 C 0.2749(4) 0.3784(8) -0.0516(5)
H17 H 0.2797 0.2998 -0.0638
H18 H 0.2349 0.3894 -0.0634
C7 C 0.2852(4) 0.4927(7) 0.0617(4)
C8 C 0.4076(4) 0.4201(7) 0.1342(4)
C9 C 0.3768(4) 0.5116(7) -0.1290(5)
C10 C 0.2683(4) 0.5789(9) -0.1048(5)
C11 C 0.1294(6) 0.4818(13) 0.0802(8)
H19 H 0.1587 0.4283 0.0963
C12 C 0.0741(5) 0.4400(12) 0.0456(8)
H20 H 0.0671 0.3615 0.0408
C13 C 0.0301(5) 0.5172(11) 0.0190(7)
C14 C 0.0451(5) 0.6344(13) 0.0302(7)
H21 H 0.0172 0.6909 0.0137
C15 C 0.1008(6) 0.6632(12) 0.0655(7)
H22 H 0.1094 0.7410 0.0714
C16 C 0.3988(4) 0.1767(8) 0.2592(6)
H23 H 0.3652 0.2173 0.2346
C17 C 0.3977(4) 0.0577(8) 0.2562(6)
H24 H 0.3635 0.0201 0.2296
C18 C 0.4468(4) -0.0056(6) 0.2925(4)
C19 C 0.4966(4) 0.0579(8) 0.3314(5)
H25 H 0.5309 0.0199 0.3569
C20 C 0.4951(4) 0.1758(7) 0.3320(5)
H26 H 0.5286 0.2159 0.3579
C21 C 0.4490(4) -0.1328(8) 0.2910(5)
C22 C 0.4039(4) -0.1928(8) 0.2386(6)
H27 H 0.3726 -0.1543 0.2042
C23 C 0.4067(4) -0.3109(8) 0.2388(6)
H28 H 0.3773 -0.3507 0.2021
C24 C 0.4925(5) -0.3104(8) 0.3383(5)
H29 H 0.5232 -0.3505 0.3725
C25 C 0.4937(4) -0.1924(8) 0.3412(5)
H30 H 0.5244 -0.1541 0.3767
Cd1F Cd 0.27042(3) 0.83841(5) -0.10025(4)
Cd1D Cd -0.22958(3) 0.33841(5) -0.10025(4)
Cd2F Cd 0.05760(3) 1.06665(5) -0.29338(3)
Cd2A Cd 0.55760(3) 0.43335(5) 0.20662(3)
Cd2E Cd 0.44240(3) 0.56665(5) -0.20662(3)
Cd2_2 Cd 0.44240(3) -0.56665(5) 0.29338(3)
Cd2G Cd -0.05760(3) 1.06665(5) -0.20662(3)
Cd2C Cd 0.05760(3) 0.93335(5) 0.20662(3)
Cd2_3 Cd 0.44240(3) 1.43335(5) 0.29338(3)
O1F O 0.2558(3) 1.0317(6) -0.0771(4)
O2F O 0.1964(3) 0.9064(5) -0.0674(3)
O3F O 0.1179(3) 1.0847(5) -0.1754(3)
O4F O 0.0403(3) 1.0657(5) -0.1575(3)
O4A O 0.5403(3) 0.4343(5) 0.3425(3)
O4G O -0.0403(3) 1.0657(5) -0.3425(3)
O5F O 0.0738(3) 0.9486(5) 0.1030(3)
O5E O 0.4262(3) 0.4486(5) 0.3970(3)
O5C O 0.0738(3) 1.0514(5) -0.3970(3)
O6F O 0.1539(3) 0.9941(5) 0.1970(3)
O7F O 0.1991(3) 0.8392(5) 0.1047(4)
O8F O 0.2811(3) 0.9077(8) 0.1116(4)
O9F O 0.3248(3) 0.8076(6) 0.0269(4)
H1F H 0.3405 0.7441 0.0444
H2F H 0.3066 0.8319 0.0508
O10F O 0.2248(4) 0.8352(7) -0.2234(4)
H3F H 0.2331 0.7795 -0.2443
H4F H 0.2062 0.8855 -0.2546
N1D N -0.1438(4) 0.4085(8) -0.0920(6)
N1F N 0.3562(4) 0.9085(8) -0.0920(6)
N2_2 N 0.4472(3) 1.2345(7) 0.2966(5)
N2F N 0.0528(3) 1.2655(7) -0.2966(5)
N3_2 N 0.4489(3) 0.6292(5) 0.2883(4)
N3F N 0.0511(3) 0.8708(5) -0.2883(4)
C1F C 0.1905(4) 1.1046(7) -0.0324(5)
H11F H 0.1961 1.1747 -0.0555
C2F C 0.1276(3) 1.0983(7) -0.0523(4)
H12F H 0.1173 1.1750 -0.0421
C3F C 0.1113(4) 1.0167(8) -0.0039(4)
H13F H 0.1197 0.9382 -0.0119
H14F H 0.0709 1.0224 -0.0170
C4F C 0.1447(4) 1.0483(7) 0.0768(4)
H15F H 0.1369 1.1300 0.0796
C5F C 0.2088(3) 1.0412(7) 0.1004(4)
H16F H 0.2266 1.0726 0.1503
C6F C 0.2251(4) 1.1216(8) 0.0516(5)
H17F H 0.2203 1.2002 0.0638
H18F H 0.2651 1.1106 0.0634
C7F C 0.2148(4) 1.0073(7) -0.0617(4)
C8F C 0.0924(4) 1.0799(7) -0.1342(4)
C9F C 0.1232(4) 0.9884(7) 0.1290(5)
C10F C 0.2317(4) 0.9211(9) 0.1048(5)
C11D C -0.1294(6) 0.5182(13) -0.0802(8)
H19D H -0.1587 0.5717 -0.0963
C12D C -0.0741(5) 0.5600(12) -0.0456(8)
H20D H -0.0671 0.6385 -0.0408
C13D C -0.0301(5) 0.4828(11) -0.0190(7)
C14D C -0.0451(5) 0.3656(13) -0.0302(7)
H21D H -0.0172 0.3091 -0.0137
C15D C -0.1008(6) 0.3368(12) -0.0655(7)
H22D H -0.1094 0.2590 -0.0714
C16_2 C 0.3988(4) 1.1767(8) 0.2592(6)
H23_2 H 0.3652 1.2173 0.2346
C17_2 C 0.3977(4) 1.0577(8) 0.2562(6)
H24_2 H 0.3635 1.0201 0.2296
C18_2 C 0.4468(4) 0.9944(6) 0.2925(4)
C19_2 C 0.4966(4) 1.0579(8) 0.3314(5)
H25_2 H 0.5309 1.0199 0.3569
C20_2 C 0.4951(4) 1.1758(7) 0.3320(5)
H26_2 H 0.5286 1.2159 0.3579
C21_2 C 0.4490(4) 0.8672(8) 0.2910(5)
C22_2 C 0.4039(4) 0.8072(8) 0.2386(6)
H27_2 H 0.3726 0.8457 0.2042
C23_2 C 0.4067(4) 0.6891(8) 0.2388(6)
H28_2 H 0.3773 0.6493 0.2021
C24_2 C 0.4925(5) 0.6896(8) 0.3383(5)
H29_2 H 0.5232 0.6495 0.3725
C25_2 C 0.4937(4) 0.8076(8) 0.3412(5)
H30_2 H 0.5244 0.8459 0.3767
O11 O 0.2336(4) 0.8272(7) 0.2898(4)
H5 H 0.2069 0.8675 0.2599
H6 H 0.2597 0.8715 0.3180
O12 O 0.1345(11) 0.581(2) 0.4312(14)
H7 H 0.1049 0.5579 0.4401
H8 H 0.1685 0.5941 0.4689
O13 O 0.0097(12) 0.145(2) 0.0139(16)
H9 H 0.0370 0.1005 0.0467
H10 H -0.0220 0.1127 -0.0201
loop_
_geom_bond_atom_site_label_1
_geom_bond_atom_site_label_2
_geom_bond_site_symmetry_1
_geom_bond_site_symmetry_2
Cd1 O1 1_555 1_555
Cd2 O3 1_555 1_555
O1 C7 1_555 1_555
O2 Cd1 1_555 1_555
O3 C8 1_555 1_555
O4 C8 1_555 1_555
O5 C9 1_555 1_555
O6 C9 1_555 1_555
O7 C10 1_555 1_555
O8 C10 1_555 1_555
O9 Cd1 1_555 1_555
H1 O9 1_555 1_555
H2 O9 1_555 1_555
O10 Cd1 1_555 1_555
H3 O10 1_555 1_555
H4 O10 1_555 1_555
O11 H5 1_555 1_555
H6 O11 1_555 1_555
O12 H7 1_555 1_555
H8 O12 1_555 1_555
O13 H9 1_555 1_555
H10 O13 1_555 1_555
N1 Cd1 1_555 1_555
N2 Cd2 1_555 1_555
N3 C23 1_555 1_555
C1 H11 1_555 1_555
C2 C1 1_555 1_555
H12 C2 1_555 1_555
C3 C2 1_555 1_555
H13 C3 1_555 1_555
H14 C3 1_555 1_555
C4 C3 1_555 1_555
H15 C4 1_555 1_555
C5 C4 1_555 1_555
H16 C5 1_555 1_555
C6 C1 1_555 1_555
H17 C6 1_555 1_555
H18 C6 1_555 1_555
C7 O2 1_555 1_555
C8 C2 1_555 1_555
C9 C4 1_555 1_555
C10 C5 1_555 1_555
C11 N1 1_555 1_555
H19 C11 1_555 1_555
C12 C11 1_555 1_555
H20 C12 1_555 1_555
C13 C12 1_555 1_555
C14 C13 1_555 1_555
H21 C14 1_555 1_555
C15 N1 1_555 1_555
H22 C15 1_555 1_555
C16 N2 1_555 1_555
H23 C16 1_555 1_555
C17 C16 1_555 1_555
H24 C17 1_555 1_555
C18 C17 1_555 1_555
C19 C18 1_555 1_555
H25 C19 1_555 1_555
C20 N2 1_555 1_555
H26 C20 1_555 1_555
C21 C18 1_555 1_555
C22 C21 1_555 1_555
H27 C22 1_555 1_555
C23 C22 1_555 1_555
H28 C23 1_555 1_555
C24 N3 1_555 1_555
H29 C24 1_555 1_555
C25 C21 1_555 1_555
H30 C25 1_555 1_555
Cd1F O7 1_555 1_555
Cd1D N1D 1_555 1_555
Cd2F O3F 1_555 1_555
Cd2A O4 1_555 1_555
Cd2E O5 1_555 1_555
Cd2_2 N3 1_555 1_555
Cd2G O4F 1_555 1_555
Cd2C O5F 1_555 1_555
Cd2_3 N2_2 1_555 1_555
O1F Cd1F 1_555 1_555
O2F Cd1F 1_555 1_555
O3F C8F 1_555 1_555
O4F C8F 1_555 1_555
O4A Cd2 1_555 1_555
O4G Cd2F 1_555 1_555
O5F C9F 1_555 1_555
O5E Cd2 1_555 1_555
O5C Cd2F 1_555 1_555
O6F C9F 1_555 1_555
O7F Cd1 1_555 1_555
O8F C10F 1_555 1_555
O9F Cd1F 1_555 1_555
H1F O9F 1_555 1_555
H2F O9F 1_555 1_555
O10F Cd1F 1_555 1_555
H3F O10F 1_555 1_555
H4F O10F 1_555 1_555
N1D C11D 1_555 1_555
N1F Cd1F 1_555 1_555
N2_2 C16_2 1_555 1_555
N2F Cd2F 1_555 1_555
N3_2 Cd2 1_555 1_555
N3F Cd2F 1_555 1_555
C1F H11F 1_555 1_555
C2F C1F 1_555 1_555
H12F C2F 1_555 1_555
C3F C2F 1_555 1_555
H13F C3F 1_555 1_555
H14F C3F 1_555 1_555
C4F C3F 1_555 1_555
H15F C4F 1_555 1_555
C5F C4F 1_555 1_555
H16F C5F 1_555 1_555
C6F C1F 1_555 1_555
H17F C6F 1_555 1_555
H18F C6F 1_555 1_555
C7F O1F 1_555 1_555
C8F C2F 1_555 1_555
C9F C4F 1_555 1_555
C10F O7F 1_555 1_555
C11D H19D 1_555 1_555
C12D C11D 1_555 1_555
H20D C12D 1_555 1_555
C13D C13 1_555 1_555
C14D C13D 1_555 1_555
H21D C14D 1_555 1_555
C15D N1D 1_555 1_555
H22D C15D 1_555 1_555
C16_2 H23_2 1_555 1_555
C17_2 C16_2 1_555 1_555
H24_2 C17_2 1_555 1_555
C18_2 C17_2 1_555 1_555
C19_2 C18_2 1_555 1_555
H25_2 C19_2 1_555 1_555
C20_2 N2_2 1_555 1_555
H26_2 C20_2 1_555 1_555
C21_2 C18_2 1_555 1_555
C22_2 C21_2 1_555 1_555
H27_2 C22_2 1_555 1_555
C23_2 N3_2 1_555 1_555
H28_2 C23_2 1_555 1_555
C24_2 N3_2 1_555 1_555
H29_2 C24_2 1_555 1_555
C25_2 C21_2 1_555 1_555
H30_2 C25_2 1_555 1_555
C1 C7 1_555 1_555
C5 C6 1_555 1_555
C14 C15 1_555 1_555
C19 C20 1_555 1_555
C24 C25 1_555 1_555
O2F C7F 1_555 1_555
C1F C7F 1_555 1_555
C5F C6F 1_555 1_555
C5F C10F 1_555 1_555
C12D C13D 1_555 1_555
C14D C15D 1_555 1_555
C19_2 C20_2 1_555 1_555
C22_2 C23_2 1_555 1_555
C24_2 C25_2 1_555 1_555

#END
