
#######################################################################
#
#                 Cambridge Crystallographic Data Centre
#                                CCDC 
#
#######################################################################
#
# If this CIF has been generated from an entry in the Cambridge 
# Structural Database, then it will include bibliographic, chemical, 
# crystal, experimental, refinement or atomic coordinate data resulting 
# from the CCDC's data processing and validation procedures.
#
#######################################################################

data_UQAPAE
_symmetry_cell_setting           orthorhombic
_symmetry_space_group_name_H-M   'P n a 21'
_symmetry_Int_Tables_number      33
_space_group_name_Hall           'P 2c -2n'
loop_
_symmetry_equiv_pos_site_id
_symmetry_equiv_pos_as_xyz
1 x,y,z
2 -x,-y,1/2+z
3 1/2+x,1/2-y,z
4 1/2-x,1/2+y,1/2+z
_cell_length_a                   11.1972(17)
_cell_length_b                   4.6647(7)
_cell_length_c                   25.158(4)
_cell_angle_alpha                90
_cell_angle_beta                 90
_cell_angle_gamma                90
_cell_volume                     1314.04
loop_
_atom_site_label
_atom_site_type_symbol
_atom_site_fract_x
_atom_site_fract_y
_atom_site_fract_z
K1 K 0.4648(3) 0.5365(7) 0.45816(13)
K2 K 0.2720(3) -0.0281(7) 0.54841(13)
O1 O 0.3888(10) 0.460(3) 0.5635(4)
O2 O 0.5431(11) 0.754(3) 0.5767(7)
O3 O 0.6961(12) 0.752(2) 0.4302(7)
O4 O 0.8480(10) 0.450(3) 0.4428(4)
O5 O 0.6183(12) 0.152(2) 0.5020(6)
C1 C 0.5940(18) 0.722(4) 0.7108(9)
H1 H 0.5233 0.7948 0.7266
C2 C 0.5011(15) 0.395(4) 0.6423(7)
H2 H 0.4278 0.3963 0.6643
H3 H 0.5217 0.1929 0.6348
C3 C 0.4757(14) 0.551(4) 0.5895(7)
C4 C 0.6482(17) 0.722(4) 0.2950(8)
H4 H 0.7205 0.7815 0.2787
C5 C 0.7317(15) 0.387(4) 0.3659(7)
H5 H 0.8052 0.3695 0.3443
H6 H 0.7045 0.1905 0.3747
C6 C 0.7610(15) 0.545(4) 0.4171(7)
N1 N 0.5979(12) 0.527(3) 0.6721(5)
N2 N 0.7130(13) 0.481(3) 0.6591(6)
N3 N 0.7764(13) 0.644(4) 0.6903(7)
N4 N 0.7039(16) 0.797(4) 0.7234(8)
N5 N 0.6394(12) 0.530(3) 0.3343(5)
N6 N 0.5228(12) 0.501(3) 0.3471(6)
N7 N 0.4647(13) 0.672(4) 0.3157(7)
N8 N 0.5410(14) 0.814(4) 0.2825(7)
H7 H 0.65(2) 0.02(5) 0.480(10)
H8 H 0.593(18) 0.06(4) 0.523(9)
K1B K 0.9648(3) -0.0365(7) 0.45816(13)
K1B_2 K 0.9648(3) 0.9635(7) 0.45816(13)
K2_2 K 0.2720(3) 0.9719(7) 0.54841(13)
K2B K 0.7720(3) 0.5281(7) 0.54841(13)
O1_2 O 0.3888(10) -0.540(3) 0.5635(4)
O2B O 0.0431(11) -0.254(3) 0.5767(7)
O4B O 0.3480(10) 0.050(3) 0.4428(4)
O4B_2 O 0.3480(10) 1.050(3) 0.4428(4)
O5B O 0.1183(12) 0.348(2) 0.5020(6)
N2B N 0.2130(13) 0.019(3) 0.6591(6)
H7B H 0.15(2) 0.48(5) 0.480(10)
H8B H 0.093(18) 0.44(4) 0.523(9)
loop_
_geom_bond_atom_site_label_1
_geom_bond_atom_site_label_2
_geom_bond_site_symmetry_1
_geom_bond_site_symmetry_2
K1 O1 1_555 1_555
K2 O1 1_555 1_555
O1 C3 1_555 1_555
O2 C3 1_555 1_555
O3 K1 1_555 1_555
O4 C6 1_555 1_555
O5 K1 1_555 1_555
C1 H1 1_555 1_555
C2 H2 1_555 1_555
H3 C2 1_555 1_555
C3 C2 1_555 1_555
C4 H4 1_555 1_555
C5 H5 1_555 1_555
H6 C5 1_555 1_555
C6 O3 1_555 1_555
N1 C1 1_555 1_555
N2 N1 1_555 1_555
N3 N2 1_555 1_555
N4 C1 1_555 1_555
N5 C4 1_555 1_555
N6 K1 1_555 1_555
N7 N6 1_555 1_555
N8 C4 1_555 1_555
H7 O5 1_555 1_555
H8 O5 1_555 1_555
K1B O4 1_555 1_555
K1B_2 O4 1_555 1_555
K2_2 O1 1_555 1_555
K2B O2 1_555 1_555
O1_2 K2 1_555 1_555
O2B K2 1_555 1_555
O4B K1 1_555 1_555
O4B_2 K1 1_555 1_555
O5B K2 1_555 1_555
N2B K2 1_555 1_555
H7B O5B 1_555 1_555
H8B O5B 1_555 1_555
K2 O4B 1_555 1_555
O4 K2B 1_555 1_555
O5 K2B 1_555 1_555
C2 N1 1_555 1_555
C5 C6 1_555 1_555
C5 N5 1_555 1_555
N2 K2B 1_555 1_555
N3 N4 1_555 1_555
N5 N6 1_555 1_555
N7 N8 1_555 1_555
K2_2 O4B_2 1_555 1_555

#END
