
#######################################################################
#
#                 Cambridge Crystallographic Data Centre
#                                CCDC 
#
#######################################################################
#
# If this CIF has been generated from an entry in the Cambridge 
# Structural Database, then it will include bibliographic, chemical, 
# crystal, experimental, refinement or atomic coordinate data resulting 
# from the CCDC's data processing and validation procedures.
#
#######################################################################

data_UQARIO
_symmetry_cell_setting           triclinic
_symmetry_space_group_name_H-M   'P -1'
_symmetry_Int_Tables_number      2
_space_group_name_Hall           '-P 1'
loop_
_symmetry_equiv_pos_site_id
_symmetry_equiv_pos_as_xyz
1 x,y,z
2 -x,-y,-z
_cell_length_a                   9.3060(6)
_cell_length_b                   10.2374(7)
_cell_length_c                   11.9706(8)
_cell_angle_alpha                73.804(6)
_cell_angle_beta                 77.883(5)
_cell_angle_gamma                85.942(5)
_cell_volume                     1070.68
loop_
_atom_site_label
_atom_site_type_symbol
_atom_site_fract_x
_atom_site_fract_y
_atom_site_fract_z
Cd1 Cd 0.33644(4) 0.43491(3) 0.70876(4)
O1 O 0.3023(3) 0.4950(3) 0.5140(3)
N1 N 0.3701(4) 0.3549(3) 0.9005(4)
O2 O 0.3339(4) 0.2030(3) 0.7002(3)
O3 O 0.5488(3) 0.2972(3) 0.6489(3)
O4 O 0.3107(4) -0.2983(3) 0.7271(4)
C1 C 0.4682(6) 0.1963(4) 0.6679(4)
C2 C 0.5410(5) 0.0673(4) 0.6450(4)
O5 O 0.5082(3) -0.4001(3) 0.6531(3)
C3 C 0.4617(5) -0.0482(4) 0.6681(4)
H1 H 0.3613 -0.0470 0.6986
N2 N 0.3107(4) 0.2433(3) 0.9870(4)
N3 N 0.0197(4) -0.4304(3) 1.2955(3)
N4 N -0.0829(4) -0.4586(3) 1.2416(3)
C4 C 0.5281(5) -0.1675(4) 0.6468(4)
C5 C 0.1254(5) 0.0640(4) 1.0758(5)
C6 C 0.3925(5) 0.2020(4) 1.0690(5)
H2 H 0.3721 0.1288 1.1362
C7 C 0.0468(5) -0.1808(4) 1.2481(4)
C8 C 0.4402(6) -0.2954(4) 0.6779(4)
C9 C 0.1953(6) -0.0553(5) 1.0673(5)
H3 H 0.2703 -0.0550 1.0022
C10 C 0.6766(5) -0.1663(4) 0.6005(4)
H4 H 0.7224 -0.2439 0.5830
C11 C 0.6902(5) 0.0633(4) 0.6027(4)
H5 H 0.7461 0.1399 0.5893
C12 C 0.7571(5) -0.0534(4) 0.5800(5)
H6 H 0.8577 -0.0550 0.5506
C13 C 0.4889(6) 0.3751(4) 0.9355(5)
H7 H 0.5529 0.4458 0.8933
C14 C 0.0033(5) -0.3128(4) 1.3433(4)
H8 H -0.0983 -0.3054 1.3822
H9 H 0.0637 -0.3265 1.4025
C15 C 0.1689(5) 0.1958(4) 0.9818(5)
H10 H 0.1736 0.1823 0.9040
H11 H 0.0943 0.2648 0.9924
C16 C 0.5118(6) 0.2847(5) 1.0385(5)
H12 H 0.5890 0.2804 1.0778
C17 C -0.0204(5) -0.5532(4) 1.1904(5)
H13 H -0.0668 -0.5946 1.1478
C18 C 0.0137(5) 0.0607(4) 1.1716(5)
H14 H -0.0366 0.1404 1.1797
C19 C 0.1583(6) -0.1769(5) 1.1525(5)
H15 H 0.2095 -0.2563 1.1447
C20 C 0.1437(5) -0.5023(5) 1.2741(5)
H16 H 0.2298 -0.4974 1.3004
C21 C 0.1212(6) -0.5830(5) 1.2075(6)
H17 H 0.1868 -0.6449 1.1794
C22 C -0.0240(5) -0.0615(4) 1.2564(5)
H18 H -0.0999 -0.0621 1.3209
H19 H 0.3530 0.4196 0.4848
H20 H 0.3469 0.5758 0.4667
Cd1_2 Cd 0.33644(4) -0.56509(3) 0.70876(4)
Cd1A Cd -0.33644(4) -0.43491(3) 1.29124(4)
O4_2 O 0.3107(4) 0.7017(3) 0.7271(4)
O5_2 O 0.5082(3) 0.5999(3) 0.6531(3)
N4A N 0.0829(4) 0.4586(3) 0.7584(3)
loop_
_geom_bond_atom_site_label_1
_geom_bond_atom_site_label_2
_geom_bond_site_symmetry_1
_geom_bond_site_symmetry_2
Cd1 O1 1_555 1_555
O1 H19 1_555 1_555
N1 Cd1 1_555 1_555
O2 Cd1 1_555 1_555
O3 Cd1 1_555 1_555
O4 C8 1_555 1_555
C1 O2 1_555 1_555
C2 C1 1_555 1_555
O5 C8 1_555 1_555
C3 C2 1_555 1_555
H1 C3 1_555 1_555
N2 N1 1_555 1_555
N3 N4 1_555 1_555
N4 C17 1_555 1_555
C4 C3 1_555 1_555
C5 C9 1_555 1_555
C6 N2 1_555 1_555
H2 C6 1_555 1_555
C7 C14 1_555 1_555
C8 C4 1_555 1_555
C9 H3 1_555 1_555
C10 C4 1_555 1_555
H4 C10 1_555 1_555
C11 C2 1_555 1_555
H5 C11 1_555 1_555
C12 C10 1_555 1_555
H6 C12 1_555 1_555
C13 N1 1_555 1_555
H7 C13 1_555 1_555
C14 N3 1_555 1_555
H8 C14 1_555 1_555
H9 C14 1_555 1_555
C15 N2 1_555 1_555
H10 C15 1_555 1_555
H11 C15 1_555 1_555
C16 C6 1_555 1_555
H12 C16 1_555 1_555
C17 H13 1_555 1_555
C18 C5 1_555 1_555
H14 C18 1_555 1_555
C19 C7 1_555 1_555
H15 C19 1_555 1_555
C20 N3 1_555 1_555
H16 C20 1_555 1_555
C21 C17 1_555 1_555
H17 C21 1_555 1_555
C22 C7 1_555 1_555
H18 C22 1_555 1_555
H20 O1 1_555 1_555
Cd1_2 O4 1_555 1_555
Cd1A N4 1_555 1_555
O4_2 Cd1 1_555 1_555
O5_2 Cd1 1_555 1_555
N4A Cd1 1_555 1_555
O3 C1 1_555 1_555
O5 Cd1_2 1_555 1_555
C5 C15 1_555 1_555
C9 C19 1_555 1_555
C11 C12 1_555 1_555
C13 C16 1_555 1_555
C18 C22 1_555 1_555
C20 C21 1_555 1_555

#END
