
#######################################################################
#
#                 Cambridge Crystallographic Data Centre
#                                CCDC 
#
#######################################################################
#
# If this CIF has been generated from an entry in the Cambridge 
# Structural Database, then it will include bibliographic, chemical, 
# crystal, experimental, refinement or atomic coordinate data resulting 
# from the CCDC's data processing and validation procedures.
#
#######################################################################

data_UQASOV
_symmetry_cell_setting           orthorhombic
_symmetry_space_group_name_H-M   'P b c a'
_symmetry_Int_Tables_number      61
_space_group_name_Hall           '-P 2ac 2ab'
loop_
_symmetry_equiv_pos_site_id
_symmetry_equiv_pos_as_xyz
1 x,y,z
2 1/2-x,-y,1/2+z
3 -x,1/2+y,1/2-z
4 1/2+x,1/2-y,-z
5 -x,-y,-z
6 1/2+x,y,1/2-z
7 x,1/2-y,1/2+z
8 1/2-x,1/2+y,z
_cell_length_a                   18.957(5)
_cell_length_b                   8.566(2)
_cell_length_c                   27.488(7)
_cell_angle_alpha                90
_cell_angle_beta                 90
_cell_angle_gamma                90
_cell_volume                     4463.66
loop_
_atom_site_label
_atom_site_type_symbol
_atom_site_fract_x
_atom_site_fract_y
_atom_site_fract_z
Ni1 Ni 1.039901(18) 0.90522(4) 0.303929(13)
O1 O 1.10573(15) 0.9893(4) 0.37338(10)
O2 O 1.20845(17) 1.0487(5) 0.33844(11)
H1 H 1.190(3) 1.006(6) 0.3136(15)
O3 O 1.44455(12) 1.5781(3) 0.66755(9)
O4 O 1.39648(13) 1.7119(4) 0.72895(10)
O5 O 1.13380(11) 1.5890(3) 0.76952(8)
O6 O 1.07636(13) 1.6535(4) 0.70206(9)
O7 O 1.02599(16) 1.1204(3) 0.28517(14)
H2 H 0.9866(15) 1.160(5) 0.2893(16)
H3 H 1.051(2) 1.178(7) 0.267(2)
N1 N 1.26913(18) 1.3275(4) 0.54936(12)
N2 N 1.2218(2) 1.3686(4) 0.57655(11)
N3 N 1.05462(14) 0.6894(3) 0.32537(10)
N4 N 1.04105(16) 0.4751(3) 0.36800(11)
C1 C 1.1653(2) 1.0437(5) 0.37536(14)
C2 C 1.1942(2) 1.1149(4) 0.42094(14)
C3 C 1.2636(2) 1.1761(5) 0.42328(14)
H4 H 1.2929 1.1722 0.3962
C4 C 1.2871(2) 1.2419(5) 0.46642(15)
H5 H 1.3330 1.2796 0.4691
C5 C 1.24162(19) 1.2502(5) 0.50503(14)
C6 C 1.1758(2) 1.1890(6) 0.50504(15)
H6 H 1.1475 1.1925 0.5327
C7 C 1.1512(2) 1.1182(5) 0.46058(16)
H7 H 1.1062 1.0750 0.4590
C8 C 1.24159(17) 1.4491(4) 0.62048(11)
C9 C 1.31016(16) 1.4893(4) 0.63467(12)
H8 H 1.3486 1.4620 0.6154
C10 C 1.32004(16) 1.5703(4) 0.67773(11)
C11 C 1.26221(16) 1.6059(4) 0.70783(11)
H9 H 1.2695 1.6559 0.7374
C12 C 1.19434(16) 1.5666(4) 0.69357(10)
C13 C 1.18463(16) 1.4909(4) 0.64936(12)
H10 H 1.1391 1.4679 0.6389
C14 C 1.39234(17) 1.6249(4) 0.69316(12)
C15 C 1.12978(16) 1.6073(4) 0.72310(11)
C16 C 1.01621(19) 0.6185(4) 0.35863(13)
H11 H 0.9770 0.6622 0.3737
C17 C 1.1054(2) 0.5845(5) 0.31259(16)
H12 H 1.1405 0.6017 0.2896
C18 C 1.0970(3) 0.4525(5) 0.33828(16)
H13 H 1.1244 0.3627 0.3361
C19 C 1.0094(2) 0.3637(5) 0.40281(14)
H14 H 1.0380 0.2699 0.4041
H15 H 0.9627 0.3347 0.3917
C20 C 1.0044(2) 0.4346(4) 0.45307(13)
C21 C 0.9413(2) 0.4368(6) 0.47779(16)
H16 H 0.9013 0.3944 0.4633
C22 C 1.0635(2) 0.4984(6) 0.47574(16)
H17 H 1.1067 0.4979 0.4597
Ni1C Ni 0.539901(18) 1.59478(4) 0.696071(13)
Ni1C_2 Ni 1.539901(18) 1.59478(4) 0.696071(13)
Ni1F Ni 1.039901(18) 1.59478(4) 0.803929(13)
Ni1D Ni 0.960099(18) 0.09478(4) 0.696071(13)
Ni1E Ni 0.539901(18) 0.90522(4) 0.196071(13)
O1C O 0.60573(15) 1.5107(4) 0.62662(10)
O2C O 0.70845(17) 1.4513(5) 0.66156(11)
H1C H 0.690(3) 1.494(6) 0.6864(15)
O3C O 0.94455(12) 0.9219(3) 0.33245(9)
O3_2 O 0.44455(12) 1.5781(3) 0.66755(9)
O4C O 0.89648(13) 0.7881(4) 0.27105(10)
O5C O 0.63380(11) 0.9110(3) 0.23048(8)
O5F O 1.13380(11) 0.9110(3) 0.26952(8)
O5E O 0.63380(11) 1.5890(3) 0.73048(8)
O6C O 0.57636(13) 0.8465(4) 0.29794(9)
O7C O 0.52599(16) 1.3796(3) 0.71483(14)
H2C H 0.4866(15) 1.340(5) 0.7107(16)
H3C H 0.551(2) 1.322(7) 0.733(2)
N1C N 0.76913(18) 1.1725(4) 0.45064(12)
N2C N 0.7218(2) 1.1314(4) 0.42345(11)
N3D N 0.94538(14) 0.3106(3) 0.67463(10)
N3C N 0.55462(14) 1.8106(3) 0.67463(10)
N4D N 0.95895(16) 0.5249(3) 0.63200(11)
C1C C 0.6653(2) 1.4563(5) 0.62464(14)
C2C C 0.6942(2) 1.3851(4) 0.57906(14)
C3C C 0.7636(2) 1.3239(5) 0.57672(14)
H4C H 0.7929 1.3278 0.6038
C4C C 0.7871(2) 1.2581(5) 0.53358(15)
H5C H 0.8330 1.2204 0.5309
C5C C 0.74162(19) 1.2498(5) 0.49497(14)
C6C C 0.6758(2) 1.3110(6) 0.49496(15)
H6C H 0.6475 1.3075 0.4673
C7C C 0.6512(2) 1.3818(5) 0.53942(16)
H7C H 0.6062 1.4250 0.5410
C8C C 0.74159(17) 1.0509(4) 0.37952(11)
C9C C 0.81016(16) 1.0107(4) 0.36533(12)
H8C H 0.8486 1.0380 0.3846
C10C C 0.82004(16) 0.9297(4) 0.32227(11)
C11C C 0.76221(16) 0.8941(4) 0.29217(11)
H9C H 0.7695 0.8441 0.2626
C12C C 0.69434(16) 0.9334(4) 0.30643(10)
C13C C 0.68463(16) 1.0091(4) 0.35064(12)
H10C H 0.6391 1.0321 0.3611
C14C C 0.89234(17) 0.8751(4) 0.30684(12)
C15C C 0.62978(16) 0.8927(4) 0.27690(11)
C16D C 0.98379(19) 0.3815(4) 0.64137(13)
H11D H 1.0230 0.3378 0.6263
C17D C 0.8946(2) 0.4155(5) 0.68741(16)
H12D H 0.8595 0.3983 0.7104
C18D C 0.9030(3) 0.5475(5) 0.66172(16)
H13D H 0.8756 0.6373 0.6639
C19D C 0.9906(2) 0.6363(5) 0.59719(14)
H14D H 0.9620 0.7301 0.5959
H15D H 1.0373 0.6653 0.6083
C20D C 0.9956(2) 0.5654(4) 0.54693(13)
C21D C 1.0587(2) 0.5632(6) 0.52221(16)
H16D H 1.0987 0.6056 0.5367
C22D C 0.9365(2) 0.5016(6) 0.52426(16)
H17D H 0.8933 0.5021 0.5403
loop_
_geom_bond_atom_site_label_1
_geom_bond_atom_site_label_2
_geom_bond_site_symmetry_1
_geom_bond_site_symmetry_2
Ni1 O1 1_555 1_555
O1 C1 1_555 1_555
O2 H1 1_555 1_555
O3 C14 1_555 1_555
O4 C14 1_555 1_555
O5 C15 1_555 1_555
O6 C15 1_555 1_555
O7 Ni1 1_555 1_555
H2 O7 1_555 1_555
H3 O7 1_555 1_555
N1 N2 1_555 1_555
N2 C8 1_555 1_555
N3 Ni1 1_555 1_555
N4 C16 1_555 1_555
C1 O2 1_555 1_555
C2 C1 1_555 1_555
C3 C2 1_555 1_555
H4 C3 1_555 1_555
C4 C3 1_555 1_555
H5 C4 1_555 1_555
C5 N1 1_555 1_555
C6 C5 1_555 1_555
H6 C6 1_555 1_555
C7 C2 1_555 1_555
H7 C7 1_555 1_555
C8 C9 1_555 1_555
C9 H8 1_555 1_555
C10 C9 1_555 1_555
C11 C10 1_555 1_555
H9 C11 1_555 1_555
C12 C11 1_555 1_555
C13 C8 1_555 1_555
H10 C13 1_555 1_555
C14 C10 1_555 1_555
C15 C12 1_555 1_555
C16 N3 1_555 1_555
H11 C16 1_555 1_555
C17 N3 1_555 1_555
H12 C17 1_555 1_555
C18 N4 1_555 1_555
H13 C18 1_555 1_555
C19 N4 1_555 1_555
H14 C19 1_555 1_555
H15 C19 1_555 1_555
C20 C19 1_555 1_555
C21 C20 1_555 1_555
H16 C21 1_555 1_555
C22 C20 1_555 1_555
H17 C22 1_555 1_555
Ni1C O1C 1_555 1_555
Ni1C_2 O3 1_555 1_555
Ni1F O5 1_555 1_555
Ni1D N3D 1_555 1_555
Ni1E O5C 1_555 1_555
O1C C1C 1_555 1_555
O2C H1C 1_555 1_555
O3C Ni1 1_555 1_555
O3_2 Ni1C 1_555 1_555
O4C C14C 1_555 1_555
O5C C15C 1_555 1_555
O5F Ni1 1_555 1_555
O5E Ni1C 1_555 1_555
O6C C15C 1_555 1_555
O7C Ni1C 1_555 1_555
H2C O7C 1_555 1_555
H3C O7C 1_555 1_555
N1C N2C 1_555 1_555
N2C C8C 1_555 1_555
N3D C16D 1_555 1_555
N3C Ni1C 1_555 1_555
N4D C16D 1_555 1_555
C1C O2C 1_555 1_555
C2C C1C 1_555 1_555
C3C C2C 1_555 1_555
H4C C3C 1_555 1_555
C4C C3C 1_555 1_555
H5C C4C 1_555 1_555
C5C N1C 1_555 1_555
C6C C5C 1_555 1_555
H6C C6C 1_555 1_555
C7C C2C 1_555 1_555
H7C C7C 1_555 1_555
C8C C9C 1_555 1_555
C9C H8C 1_555 1_555
C10C C9C 1_555 1_555
C11C C10C 1_555 1_555
H9C C11C 1_555 1_555
C12C C11C 1_555 1_555
C13C C8C 1_555 1_555
H10C C13C 1_555 1_555
C14C O3C 1_555 1_555
C15C C12C 1_555 1_555
C16D H11D 1_555 1_555
C17D N3D 1_555 1_555
H12D C17D 1_555 1_555
C18D N4D 1_555 1_555
H13D C18D 1_555 1_555
C19D N4D 1_555 1_555
H14D C19D 1_555 1_555
H15D C19D 1_555 1_555
C20D C19D 1_555 1_555
C21D C22 1_555 1_555
H16D C21D 1_555 1_555
C22D C21 1_555 1_555
H17D C22D 1_555 1_555
C4 C5 1_555 1_555
C6 C7 1_555 1_555
C12 C13 1_555 1_555
C17 C18 1_555 1_555
C4C C5C 1_555 1_555
C6C C7C 1_555 1_555
C10C C14C 1_555 1_555
C12C C13C 1_555 1_555
C17D C18D 1_555 1_555
C20D C21D 1_555 1_555
C20D C22D 1_555 1_555

#END
