
#######################################################################
#
#                 Cambridge Crystallographic Data Centre
#                                CCDC 
#
#######################################################################
#
# If this CIF has been generated from an entry in the Cambridge 
# Structural Database, then it will include bibliographic, chemical, 
# crystal, experimental, refinement or atomic coordinate data resulting 
# from the CCDC's data processing and validation procedures.
#
#######################################################################

data_UQASUB
_symmetry_cell_setting           triclinic
_symmetry_space_group_name_H-M   'P -1'
_symmetry_Int_Tables_number      2
_space_group_name_Hall           '-P 1'
loop_
_symmetry_equiv_pos_site_id
_symmetry_equiv_pos_as_xyz
1 x,y,z
2 -x,-y,-z
_cell_length_a                   11.732(2)
_cell_length_b                   15.007(3)
_cell_length_c                   15.262(3)
_cell_angle_alpha                78.05(3)
_cell_angle_beta                 80.77(3)
_cell_angle_gamma                83.89(3)
_cell_volume                     2587.32
loop_
_atom_site_label
_atom_site_type_symbol
_atom_site_fract_x
_atom_site_fract_y
_atom_site_fract_z
La1 La 0.334096(18) 1.076518(14) 0.474643(13)
La2 La 0.799780(18) 1.354450(14) -0.191740(13)
S1 S 0.39943(8) 1.25494(6) 0.01787(6)
S2 S 0.37526(8) 0.94521(6) 0.27757(6)
S3 S 0.75429(8) 0.98078(6) 0.01306(6)
S4 S 0.91374(8) 0.94117(6) 0.33721(6)
S5 S 1.08503(8) 1.20274(6) 0.05531(6)
S6 S 0.96406(8) 1.47593(6) 0.24700(6)
S7 S 0.75679(8) 1.48428(6) -0.04809(6)
S8 S 0.44400(8) 1.46389(6) 0.26042(6)
O1 O 0.6321(2) 1.15945(18) -0.04676(17)
H1 H 0.6098 1.2158 -0.0516
O2 O 0.3990(2) 0.99037(18) 0.34903(16)
O3 O 0.2530(2) 0.95298(18) 0.27003(17)
O4 O 0.4292(2) 0.85206(17) 0.29001(17)
O5 O 0.9148(2) 1.13249(18) -0.04087(16)
H2 H 0.9259 1.1884 -0.0455
O6 O 0.7894(2) 0.94682(18) 0.37320(16)
O7 O 0.9575(3) 0.84552(18) 0.34039(18)
O8 O 0.9817(2) 0.99021(18) 0.38047(17)
O9 O 0.9025(2) 1.30791(17) -0.05698(16)
O10 O 0.9586(2) 1.40059(18) 0.32489(16)
O11 O 1.0772(2) 1.51428(17) 0.23072(16)
O12 O 0.8684(2) 1.54555(18) 0.25316(17)
O13 O 0.6250(2) 1.33585(17) -0.07886(16)
O14 O 0.4490(2) 1.38360(17) 0.33289(16)
O15 O 0.5177(2) 1.53375(17) 0.26789(17)
O16 O 0.3228(2) 1.50046(17) 0.25579(16)
O17 O 0.2092(3) 1.22077(19) 0.49974(18)
H3 H 0.2391 1.2592 0.4551
H4 H 0.1360 1.2196 0.5118
O18 O 0.4248(2) 1.16642(18) 0.56740(18)
H5 H 0.4980 1.1671 0.5616
H6 H 0.3824 1.2162 0.5639
O19 O 0.2009(2) 0.94978(18) 0.49746(17)
H7 H 0.2288 0.8960 0.4931
H8 H 0.1281 0.9609 0.5096
O20 O 0.1877(2) 1.11737(18) 0.35772(18)
H9 H 0.1917 1.0687 0.3367
H10 H 0.1154 1.1211 0.3761
O21 O 0.3873(2) 1.20823(18) 0.34186(17)
H11 H 0.4578 1.2147 0.3197
H12 H 0.3344 1.2454 0.3201
O22 O 0.5615(2) 1.06062(17) 0.43684(16)
O23 O 1.0052(2) 1.29175(19) -0.24047(18)
H13 H 1.0177 1.2573 -0.2793
H14 H 1.0614 1.3052 -0.2179
O24 O 0.8374(2) 1.37614(19) -0.36432(16)
H15 H 0.7742 1.3759 -0.3848
O25 O 0.8148(2) 1.18375(17) -0.19347(16)
H16 H 0.7646 1.1614 -0.2155
H17 H 0.8701 1.1492 -0.1720
O26 O 0.6339(2) 1.31067(17) -0.26299(16)
H18 H 0.6302 1.2555 -0.2672
H19 H 0.5829 1.3514 -0.2823
N1 N 0.6166(3) 1.1237(2) 0.3715(2)
C2 C 0.4619(3) 1.1459(2) 0.0657(2)
C3 C 0.4024(3) 1.0929(2) 0.1403(2)
H36 H 0.3296 1.1160 0.1675
C4 C 0.4478(3) 1.0062(3) 0.1760(2)
C5 C 0.5543(3) 0.9715(3) 0.1373(2)
H37 H 0.5845 0.9118 0.1617
C6 C 0.6166(3) 1.0242(3) 0.0627(2)
C7 C 0.5702(3) 1.1115(3) 0.0255(2)
C8 C 0.8475(3) 1.0152(3) 0.0801(2)
C9 C 0.8509(3) 0.9679(3) 0.1690(2)
H38 H 0.8066 0.9166 0.1925
C10 C 0.9194(3) 0.9966(3) 0.2227(2)
C11 C 0.9878(3) 1.0693(3) 0.1889(2)
H39 H 1.0343 1.0879 0.2265
C12 C 0.9881(3) 1.1151(2) 0.0996(2)
C13 C 0.9168(3) 1.0888(2) 0.0449(2)
C14 C 0.9996(3) 1.3053(2) 0.0700(2)
C15 C 1.0144(3) 1.3458(2) 0.1411(2)
H40 H 1.0662 1.3169 0.1821
C16 C 0.9535(3) 1.4288(2) 0.1526(2)
C17 C 0.8805(3) 1.4723(2) 0.0915(2)
H41 H 0.8420 1.5301 0.0976
C18 C 0.8633(3) 1.4317(2) 0.0212(2)
C19 C 0.9210(3) 1.3465(3) 0.0077(2)
C20 C 0.6332(3) 1.4363(2) 0.0222(2)
C21 C 0.5902(3) 1.4666(2) 0.1018(2)
H42 H 0.6255 1.5138 0.1179
C22 C 0.4961(3) 1.4282(2) 0.1578(2)
C23 C 0.4406(3) 1.3619(2) 0.1323(2)
H43 H 0.3745 1.3371 0.1701
C24 C 0.4811(3) 1.3321(2) 0.0523(2)
C25 C 0.5821(3) 1.3665(2) -0.0047(2)
C26 C 0.6350(3) 1.1108(3) 0.2856(2)
H44 H 0.6109 1.0576 0.2715
C27 C 0.6889(4) 1.1750(3) 0.2181(3)
H45 H 0.7021 1.1663 0.1573
C28 C 0.7238(4) 1.2523(3) 0.2397(3)
H46 H 0.7608 1.2970 0.1937
C29 C 0.7042(3) 1.2637(3) 0.3282(3)
H47 H 0.7278 1.3163 0.3438
C30 C 0.6497(3) 1.1978(3) 0.3942(3)
H48 H 0.6359 1.2049 0.4555
C31 C 0.9271(4) 1.4175(3) -0.4303(3)
H49 H 0.9083 1.4836 -0.4448
H50 H 0.9337 1.3921 -0.4852
H51 H 1.0008 1.4052 -0.4059
La1A La 0.665904(18) 0.923482(14) 0.525357(13)
La2A La 1.200220(18) 1.645550(14) 0.191740(13)
La2A_2 La 0.200220(18) 1.645550(14) 0.191740(13)
O6A O 0.2106(2) 1.05318(18) 0.62680(16)
O11A O 0.9228(2) 1.48572(17) -0.23072(16)
O16A O 0.6772(2) 1.49954(17) -0.25579(16)
O22A O 0.4385(2) 0.93938(17) 0.56316(16)
O27 O 0.3187(2) 0.4879(2) 0.61524(18)
H20 H 0.2517 0.4782 0.6444
H21 H 0.3702 0.4887 0.6484
O28 O 0.1482(3) 0.7997(2) 0.44467(19)
H22 H 0.0947 0.8058 0.4119
H23 H 0.1951 0.7527 0.4426
O29 O 0.6853(3) 0.3614(2) 0.52298(19)
H24 H 0.6121 0.3603 0.5340
H25 H 0.6955 0.4121 0.4868
O30 O 0.4379(3) 0.3555(2) 0.5256(2)
H26 H 0.4112 0.3999 0.5514
H27 H 0.4511 0.3668 0.4681
O31 O 0.1883(3) 0.3499(3) 0.3545(3)
H28 H 0.2159 0.3973 0.3204
H29 H 0.1195 0.3517 0.3430
O32 O 0.2164(4) 0.2421(3) 0.8272(3)
H30 H 0.2023 0.2454 0.8828
C1 C 0.3191(5) 0.2857(4) 0.7892(4)
H31 H 0.3122 0.3472 0.8030
H32 H 0.3312 0.2901 0.7235
H33 H 0.3851 0.2501 0.8149
O33 O 0.0190(3) 0.7912(2) 0.6177(2)
H34 H 0.0235 0.7350 0.6424
H35 H 0.0436 0.8002 0.5613
loop_
_geom_bond_atom_site_label_1
_geom_bond_atom_site_label_2
_geom_bond_site_symmetry_1
_geom_bond_site_symmetry_2
La1 O2 1_555 1_555
La2 S7 1_555 1_555
S1 C2 1_555 1_555
S2 O2 1_555 1_555
S3 C6 1_555 1_555
S4 O6 1_555 1_555
S5 C12 1_555 1_555
S6 O10 1_555 1_555
S7 C18 1_555 1_555
S8 O14 1_555 1_555
O1 H1 1_555 1_555
O3 S2 1_555 1_555
O4 S2 1_555 1_555
O5 H2 1_555 1_555
O6 La1A 1_555 1_555
O7 S4 1_555 1_555
O8 S4 1_555 1_555
O9 La2 1_555 1_555
O11 S6 1_555 1_555
O12 S6 1_555 1_555
O13 La2 1_555 1_555
O15 S8 1_555 1_555
O16 S8 1_555 1_555
O17 La1 1_555 1_555
H3 O17 1_555 1_555
H4 O17 1_555 1_555
O18 La1 1_555 1_555
H5 O18 1_555 1_555
H6 O18 1_555 1_555
O19 La1 1_555 1_555
H7 O19 1_555 1_555
H8 O19 1_555 1_555
O20 La1 1_555 1_555
H9 O20 1_555 1_555
H10 O20 1_555 1_555
O21 La1 1_555 1_555
H11 O21 1_555 1_555
H12 O21 1_555 1_555
O22 La1 1_555 1_555
O23 La2 1_555 1_555
H13 O23 1_555 1_555
H14 O23 1_555 1_555
O24 La2 1_555 1_555
H15 O24 1_555 1_555
O25 La2 1_555 1_555
H16 O25 1_555 1_555
H17 O25 1_555 1_555
O26 La2 1_555 1_555
H18 O26 1_555 1_555
H19 O26 1_555 1_555
O27 H20 1_555 1_555
H21 O27 1_555 1_555
O28 H22 1_555 1_555
H23 O28 1_555 1_555
O29 H24 1_555 1_555
H25 O29 1_555 1_555
O30 H26 1_555 1_555
H27 O30 1_555 1_555
O31 H28 1_555 1_555
H29 O31 1_555 1_555
O32 H30 1_555 1_555
C1 O32 1_555 1_555
H31 C1 1_555 1_555
H32 C1 1_555 1_555
H33 C1 1_555 1_555
O33 H34 1_555 1_555
H35 O33 1_555 1_555
N1 O22 1_555 1_555
C2 C3 1_555 1_555
C3 H36 1_555 1_555
C4 S2 1_555 1_555
C5 C4 1_555 1_555
H37 C5 1_555 1_555
C6 C5 1_555 1_555
C7 O1 1_555 1_555
C8 S3 1_555 1_555
C9 C8 1_555 1_555
H38 C9 1_555 1_555
C10 S4 1_555 1_555
C11 C10 1_555 1_555
H39 C11 1_555 1_555
C12 C11 1_555 1_555
C13 O5 1_555 1_555
C14 S5 1_555 1_555
C15 C14 1_555 1_555
H40 C15 1_555 1_555
C16 S6 1_555 1_555
C17 C16 1_555 1_555
H41 C17 1_555 1_555
C18 C17 1_555 1_555
C19 O9 1_555 1_555
C20 S7 1_555 1_555
C21 C20 1_555 1_555
H42 C21 1_555 1_555
C22 S8 1_555 1_555
C23 C22 1_555 1_555
H43 C23 1_555 1_555
C24 S1 1_555 1_555
C25 O13 1_555 1_555
C26 N1 1_555 1_555
H44 C26 1_555 1_555
C27 C26 1_555 1_555
H45 C27 1_555 1_555
C28 C27 1_555 1_555
H46 C28 1_555 1_555
C29 C28 1_555 1_555
H47 C29 1_555 1_555
C30 N1 1_555 1_555
H48 C30 1_555 1_555
C31 O24 1_555 1_555
H49 C31 1_555 1_555
H50 C31 1_555 1_555
H51 C31 1_555 1_555
La1A O22 1_555 1_555
La2A O11 1_555 1_555
La2A_2 O16 1_555 1_555
O6A La1 1_555 1_555
O11A La2 1_555 1_555
O16A La2 1_555 1_555
O22A La1 1_555 1_555
C2 C7 1_555 1_555
C3 C4 1_555 1_555
C6 C7 1_555 1_555
C8 C13 1_555 1_555
C9 C10 1_555 1_555
C12 C13 1_555 1_555
C14 C19 1_555 1_555
C15 C16 1_555 1_555
C18 C19 1_555 1_555
C20 C25 1_555 1_555
C21 C22 1_555 1_555
C23 C24 1_555 1_555
C24 C25 1_555 1_555
C29 C30 1_555 1_555
La1A O22A 1_555 1_555

#END
