
#######################################################################
#
#                 Cambridge Crystallographic Data Centre
#                                CCDC 
#
#######################################################################
#
# If this CIF has been generated from an entry in the Cambridge 
# Structural Database, then it will include bibliographic, chemical, 
# crystal, experimental, refinement or atomic coordinate data resulting 
# from the CCDC's data processing and validation procedures.
#
#######################################################################

data_UQATEM
_symmetry_cell_setting           monoclinic
_symmetry_space_group_name_H-M   'P 21/c'
_symmetry_Int_Tables_number      14
_space_group_name_Hall           '-P 2ybc'
loop_
_symmetry_equiv_pos_site_id
_symmetry_equiv_pos_as_xyz
1 x,y,z
2 -x,1/2+y,1/2-z
3 -x,-y,-z
4 x,1/2-y,1/2+z
_cell_length_a                   10.0145(6)
_cell_length_b                   25.6854(15)
_cell_length_c                   7.3116(4)
_cell_angle_alpha                90
_cell_angle_beta                 99.498(1)
_cell_angle_gamma                90
_cell_volume                     1854.95
loop_
_atom_site_label
_atom_site_type_symbol
_atom_site_fract_x
_atom_site_fract_y
_atom_site_fract_z
Ba1 Ba 0.884888(18) 0.528313(7) 0.76732(2)
Ba2 Ba 0.352110(19) 0.534470(7) 0.75124(2)
C1 C 0.6421(3) 0.38180(12) 0.7750(4)
C2 C 0.7597(3) 0.36050(11) 0.8858(4)
C3 C 0.7780(3) 0.30686(12) 0.8961(4)
H1 H 0.8546 0.2926 0.9678
C4 C 0.6799(3) 0.27503(11) 0.7973(4)
C5 C 0.5655(3) 0.29606(12) 0.6897(4)
C6 C 0.5452(3) 0.34928(11) 0.6759(4)
H2 H 0.4687 0.3630 0.6022
C7 C 0.5494(3) 0.21199(12) 0.6691(5)
H3 H 0.5168 0.1787 0.6374
C8 C 0.6153(3) 0.43963(12) 0.7573(4)
C9 C 0.8680(3) 0.39451(11) 0.9933(4)
C10 C 0.8863(3) 0.62414(11) 0.3032(4)
C11 C 1.0033(3) 0.64436(11) 0.4154(4)
C12 C 1.0244(3) 0.69784(12) 0.4240(4)
H4 H 1.1014 0.7116 0.4964
C13 C 0.9295(3) 0.73039(11) 0.3233(4)
C14 C 0.8155(3) 0.70982(12) 0.2113(4)
C15 C 0.7933(3) 0.65674(11) 0.1987(4)
H5 H 0.7179 0.6433 0.1221
C16 C 0.8021(3) 0.79408(12) 0.1944(4)
H6 H 0.7704 0.8274 0.1622
C17 C 0.8510(3) 0.56704(11) 0.2930(4)
C18 C 1.1056(3) 0.60938(11) 0.5305(4)
Cl1 Cl 0.62352(8) 0.59655(3) 0.77827(12)
N1 N 0.6659(3) 0.22118(10) 0.7818(4)
H7 H 0.7218 0.1982 0.8348
N2 N 0.4852(3) 0.25492(10) 0.6073(4)
N3 N 0.9165(3) 0.78433(10) 0.3096(4)
H8 H 0.9720 0.8070 0.3653
N4 N 0.7393(3) 0.75141(9) 0.1316(4)
H9 H 0.6645 0.7495 0.0548
O1 O 0.5486(2) 0.45971(8) 0.8698(3)
O2 O 0.6563(3) 0.46342(8) 0.6272(3)
O3 O 0.8460(2) 0.44304(8) 0.9941(3)
O4 O 0.9743(2) 0.37447(8) 1.0797(3)
O5 O 0.7810(2) 0.55115(8) 0.4098(3)
O6 O 0.8825(3) 0.53995(8) 0.1646(3)
O7 O 1.2137(2) 0.62894(8) 0.6161(3)
O8 O 1.0777(2) 0.56134(8) 0.5376(3)
Ba1B Ba 1.115112(18) 0.471687(7) 1.23268(2)
Ba1_2 Ba 0.884888(18) 0.528313(7) -0.23268(2)
Ba1B_2 Ba 1.115112(18) 0.471687(7) 0.23268(2)
Ba2B Ba 0.647890(19) 0.465530(7) 1.24876(2)
Ba2B_2 Ba 0.647890(19) 0.465530(7) 0.24876(2)
Ba2_2 Ba 1.352110(19) 0.534470(7) 0.75124(2)
O1B O 0.4514(2) 0.54029(8) 1.1302(3)
O2B O 0.3437(3) 0.53658(8) 0.3728(3)
O3B O 1.1540(2) 0.55696(8) 1.0059(3)
O3B_2 O 0.1540(2) 0.55696(8) 1.0059(3)
O4B O 1.0257(2) 0.62553(8) 0.9203(3)
O5B O 0.2190(2) 0.44885(8) 0.5902(3)
O6_2 O 0.8825(3) 0.53995(8) 1.1646(3)
O6B O 1.1175(3) 0.46005(8) 0.8354(3)
O6B_2 O 0.1175(3) 0.46005(8) 0.8354(3)
O7_2 O 0.2137(2) 0.62894(8) 0.6161(3)
O8B O 0.9223(2) 0.43866(8) 0.4624(3)
O8_2 O 0.0777(2) 0.56134(8) 0.5376(3)
loop_
_geom_bond_atom_site_label_1
_geom_bond_atom_site_label_2
_geom_bond_site_symmetry_1
_geom_bond_site_symmetry_2
Ba1 Cl1 1_555 1_555
Ba2 Cl1 1_555 1_555
C1 C2 1_555 1_555
C2 C3 1_555 1_555
C3 H1 1_555 1_555
C4 C3 1_555 1_555
C5 C4 1_555 1_555
C6 C1 1_555 1_555
H2 C6 1_555 1_555
C7 H3 1_555 1_555
C8 C1 1_555 1_555
C9 C2 1_555 1_555
C10 C11 1_555 1_555
C11 C12 1_555 1_555
C12 H4 1_555 1_555
C13 C12 1_555 1_555
C14 C13 1_555 1_555
C15 C10 1_555 1_555
H5 C15 1_555 1_555
C16 H6 1_555 1_555
C17 C10 1_555 1_555
C18 C11 1_555 1_555
N1 C4 1_555 1_555
H7 N1 1_555 1_555
N2 C5 1_555 1_555
N3 C13 1_555 1_555
H8 N3 1_555 1_555
N4 C14 1_555 1_555
H9 N4 1_555 1_555
O1 Ba2 1_555 1_555
O2 Ba1 1_555 1_555
O3 Ba1 1_555 1_555
O4 C9 1_555 1_555
O5 Ba1 1_555 1_555
O6 C17 1_555 1_555
O7 C18 1_555 1_555
O8 Ba1 1_555 1_555
Ba1B O3 1_555 1_555
Ba1_2 O6 1_555 1_555
Ba1B_2 O6 1_555 1_555
Ba2B O1 1_555 1_555
Ba2B_2 O2 1_555 1_555
Ba2_2 O7 1_555 1_555
O1B Ba2 1_555 1_555
O2B Ba2 1_555 1_555
O3B Ba1 1_555 1_555
O3B_2 Ba2 1_555 1_555
O4B Ba1 1_555 1_555
O5B Ba2 1_555 1_555
O6_2 Ba1 1_555 1_555
O6B Ba1 1_555 1_555
O6B_2 Ba2 1_555 1_555
O7_2 Ba2 1_555 1_555
O8B Ba1 1_555 1_555
O8_2 Ba2 1_555 1_555
C5 C6 1_555 1_555
C7 N1 1_555 1_555
C7 N2 1_555 1_555
C8 O1 1_555 1_555
C8 O2 1_555 1_555
C9 O3 1_555 1_555
C14 C15 1_555 1_555
C16 N3 1_555 1_555
C16 N4 1_555 1_555
C17 O5 1_555 1_555
C18 O8 1_555 1_555
O3 Ba2B 1_555 1_555
O4 Ba1B 1_555 1_555
O5 Ba2B_2 1_555 1_555
O6 Ba2B_2 1_555 1_555
O8 Ba1B_2 1_555 1_555
O8 Ba2_2 1_555 1_555
Ba1B O3B 1_555 1_555
Ba1B O6_2 1_555 1_555
Ba1B O6B 1_555 1_555
Ba1B_2 O8B 1_555 1_555
Ba2B O1B 1_555 1_555
Ba2B O6_2 1_555 1_555
Ba2B_2 O8B 1_555 1_555
Ba2_2 O3B 1_555 1_555
Ba2_2 O6B 1_555 1_555

#END
