
#######################################################################
#
#                 Cambridge Crystallographic Data Centre
#                                CCDC 
#
#######################################################################
#
# If this CIF has been generated from an entry in the Cambridge 
# Structural Database, then it will include bibliographic, chemical, 
# crystal, experimental, refinement or atomic coordinate data resulting 
# from the CCDC's data processing and validation procedures.
#
#######################################################################

data_UQATAI
_symmetry_cell_setting           triclinic
_symmetry_space_group_name_H-M   'P -1'
_symmetry_Int_Tables_number      2
_space_group_name_Hall           '-P 1'
loop_
_symmetry_equiv_pos_site_id
_symmetry_equiv_pos_as_xyz
1 x,y,z
2 -x,-y,-z
_cell_length_a                   11.719(2)
_cell_length_b                   14.941(3)
_cell_length_c                   15.157(3)
_cell_angle_alpha                78.03(3)
_cell_angle_beta                 80.84(3)
_cell_angle_gamma                83.95(3)
_cell_volume                     2555.87
loop_
_atom_site_label
_atom_site_type_symbol
_atom_site_fract_x
_atom_site_fract_y
_atom_site_fract_z
Nd1 Nd 0.33505(4) 1.07488(3) 0.47374(3)
Nd2 Nd 0.79938(4) 1.35595(3) -0.19161(3)
S1 S 0.40017(18) 1.25389(14) 0.01390(14)
S2 S 0.37313(18) 0.94428(14) 0.27819(14)
S3 S 0.75346(18) 0.97728(14) 0.01369(14)
S4 S 0.91180(18) 0.93904(14) 0.34031(14)
S5 S 1.08323(18) 1.20185(14) 0.05535(14)
S6 S 0.96502(18) 1.47721(14) 0.24644(14)
S7 S 0.75648(17) 1.48518(14) -0.05072(14)
S8 S 0.44266(17) 1.46293(14) 0.25969(14)
O1 O 0.6327(5) 1.1569(4) -0.0490(4)
H1 H 0.6103 1.2135 -0.0539
O2 O 0.3982(5) 0.9891(4) 0.3509(4)
O3 O 0.2503(5) 0.9527(4) 0.2709(4)
O4 O 0.4253(5) 0.8501(4) 0.2911(4)
O5 O 0.9135(5) 1.1306(4) -0.0409(4)
H2 H 0.9247 1.1868 -0.0455
O6 O 0.7867(5) 0.9461(4) 0.3764(4)
O7 O 0.9541(5) 0.8428(4) 0.3430(4)
O8 O 0.9809(5) 0.9881(4) 0.3839(4)
O9 O 0.8991(5) 1.3071(4) -0.0587(4)
O10 O 0.9590(5) 1.4014(4) 0.3258(4)
O11 O 1.0783(5) 1.5159(4) 0.2296(4)
O12 O 0.8693(5) 1.5474(4) 0.2531(4)
O13 O 0.6280(5) 1.3347(4) -0.0815(4)
O14 O 0.4458(5) 1.3813(4) 0.3332(4)
O15 O 0.5172(5) 1.5328(4) 0.2678(4)
O16 O 0.3213(5) 1.5012(4) 0.2538(4)
O17 O 0.2150(5) 1.2188(4) 0.4969(4)
H3 H 0.2450 1.2574 0.4521
H4 H 0.1418 1.2177 0.5090
O18 O 0.4248(5) 1.1621(4) 0.5651(4)
H5 H 0.4981 1.1628 0.5592
H6 H 0.3823 1.2121 0.5616
O19 O 0.2036(5) 0.9507(4) 0.4964(4)
H7 H 0.2316 0.8967 0.4921
H8 H 0.1308 0.9618 0.5086
O20 O 0.1912(5) 1.1157(4) 0.3586(4)
H9 H 0.1952 1.0668 0.3374
H10 H 0.1188 1.1194 0.3770
O21 O 0.3898(5) 1.2025(4) 0.3423(4)
H11 H 0.4604 1.2089 0.3201
H12 H 0.3367 1.2397 0.3205
O22 O 0.5611(5) 1.0576(4) 0.4379(4)
O23 O 1.0013(5) 1.2938(4) -0.2392(4)
H13 H 1.0139 1.2592 -0.2782
H14 H 1.0576 1.3074 -0.2165
O24 O 0.8377(5) 1.3775(4) -0.3619(4)
H15 H 0.7743 1.3774 -0.3825
O25 O 0.8144(5) 1.1888(4) -0.1936(4)
H16 H 0.7640 1.1664 -0.2156
H17 H 0.8698 1.1541 -0.1721
O26 O 0.6371(5) 1.3132(4) -0.2636(4)
H18 H 0.6334 1.2578 -0.2678
H19 H 0.5860 1.3541 -0.2829
N1 N 0.6173(6) 1.1211(5) 0.3723(5)
C2 C 0.4615(7) 1.1448(6) 0.0633(5)
C3 C 0.3997(7) 1.0919(5) 0.1390(6)
H36 H 0.3264 1.1151 0.1653
C4 C 0.4459(7) 1.0049(6) 0.1759(5)
C5 C 0.5536(7) 0.9698(6) 0.1381(6)
H37 H 0.5841 0.9105 0.1642
C6 C 0.6160(7) 1.0213(6) 0.0625(5)
C7 C 0.5694(7) 1.1099(6) 0.0249(6)
C8 C 0.8458(7) 1.0128(6) 0.0810(6)
C9 C 0.8501(7) 0.9660(6) 0.1704(6)
H38 H 0.8061 0.9142 0.1939
C10 C 0.9183(7) 0.9944(6) 0.2256(6)
C11 C 0.9858(7) 1.0680(6) 0.1906(6)
H39 H 1.0320 1.0873 0.2283
C12 C 0.9864(7) 1.1133(6) 0.1017(6)
C13 C 0.9157(7) 1.0870(6) 0.0456(6)
C14 C 0.9971(7) 1.3049(5) 0.0701(5)
C15 C 1.0127(7) 1.3467(6) 0.1407(6)
H40 H 1.0648 1.3180 0.1819
C16 C 0.9530(7) 1.4297(6) 0.1518(6)
C17 C 0.8794(7) 1.4741(5) 0.0897(6)
H41 H 0.8409 1.5323 0.0955
C18 C 0.8631(7) 1.4326(6) 0.0199(5)
C19 C 0.9189(8) 1.3472(6) 0.0070(6)
C20 C 0.6338(7) 1.4360(6) 0.0203(6)
C21 C 0.5899(7) 1.4664(6) 0.1002(6)
H42 H 0.6246 1.5141 0.1166
C22 C 0.4950(7) 1.4272(5) 0.1563(5)
C23 C 0.4398(7) 1.3602(5) 0.1302(5)
H43 H 0.3733 1.3352 0.1678
C24 C 0.4816(7) 1.3305(5) 0.0502(5)
C25 C 0.5836(7) 1.3658(5) -0.0067(5)
C26 C 0.6352(8) 1.1083(6) 0.2846(6)
H44 H 0.6116 1.0548 0.2702
C27 C 0.6874(7) 1.1729(6) 0.2178(6)
H45 H 0.6995 1.1646 0.1565
C28 C 0.7234(8) 1.2515(6) 0.2391(6)
H46 H 0.7608 1.2967 0.1933
C29 C 0.7024(8) 1.2607(6) 0.3293(6)
H47 H 0.7265 1.3131 0.3455
C30 C 0.6479(7) 1.1962(6) 0.3959(6)
H48 H 0.6321 1.2043 0.4573
C31 C 0.9257(9) 1.4193(8) -0.4275(7)
H49 H 0.9147 1.4861 -0.4328
H50 H 0.9218 1.4036 -0.4866
H51 H 1.0015 1.3972 -0.4087
Nd1A Nd 0.66495(4) 0.92512(3) 0.52626(3)
Nd2A Nd 1.20062(4) 1.64405(3) 0.19161(3)
Nd2A_2 Nd 0.20062(4) 1.64405(3) 0.19161(3)
O6A O 0.2133(5) 1.0539(4) 0.6236(4)
O11A O 0.9217(5) 1.4841(4) -0.2296(4)
O16A O 0.6787(5) 1.4988(4) -0.2538(4)
O22A O 0.4389(5) 0.9424(4) 0.5621(4)
O27 O 0.3181(6) 0.4882(5) 0.6144(4)
H20 H 0.2509 0.4785 0.6435
H21 H 0.3698 0.4890 0.6476
O28 O 0.1494(6) 0.7989(4) 0.4460(5)
H22 H 0.0957 0.8051 0.4131
H23 H 0.1965 0.7518 0.4440
O29 O 0.6850(6) 0.3617(5) 0.5236(4)
H24 H 0.6116 0.3606 0.5346
H25 H 0.6952 0.4127 0.4871
O30 O 0.4379(7) 0.3521(6) 0.5269(6)
H26 H 0.4111 0.3967 0.5528
H27 H 0.4512 0.3635 0.4690
O31 O 0.1898(6) 0.3469(6) 0.3498(6)
H28 H 0.2175 0.3945 0.3157
H29 H 0.1208 0.3487 0.3383
O32 O 0.2147(12) 0.2439(10) 0.8250(10)
H30 H 0.2005 0.2473 0.8811
C1 C 0.3179(11) 0.2849(9) 0.7789(12)
H31 H 0.3159 0.3475 0.7898
H32 H 0.3232 0.2868 0.7134
H33 H 0.3855 0.2486 0.8018
O33 O 0.0172(6) 0.7923(5) 0.6191(5)
H34 H 0.0216 0.7358 0.6439
H35 H 0.0419 0.8013 0.5623
loop_
_geom_bond_atom_site_label_1
_geom_bond_atom_site_label_2
_geom_bond_site_symmetry_1
_geom_bond_site_symmetry_2
Nd1 O2 1_555 1_555
Nd2 S7 1_555 1_555
S1 C2 1_555 1_555
S2 O2 1_555 1_555
S3 C6 1_555 1_555
S4 O6 1_555 1_555
S5 C12 1_555 1_555
S6 O10 1_555 1_555
S7 C18 1_555 1_555
S8 O14 1_555 1_555
O1 H1 1_555 1_555
O3 S2 1_555 1_555
O4 S2 1_555 1_555
O5 H2 1_555 1_555
O6 Nd1A 1_555 1_555
O7 S4 1_555 1_555
O8 S4 1_555 1_555
O9 Nd2 1_555 1_555
O11 S6 1_555 1_555
O12 S6 1_555 1_555
O13 Nd2 1_555 1_555
O15 S8 1_555 1_555
O16 S8 1_555 1_555
O17 Nd1 1_555 1_555
H3 O17 1_555 1_555
H4 O17 1_555 1_555
O18 Nd1 1_555 1_555
H5 O18 1_555 1_555
H6 O18 1_555 1_555
O19 Nd1 1_555 1_555
H7 O19 1_555 1_555
H8 O19 1_555 1_555
O20 Nd1 1_555 1_555
H9 O20 1_555 1_555
H10 O20 1_555 1_555
O21 Nd1 1_555 1_555
H11 O21 1_555 1_555
H12 O21 1_555 1_555
O22 Nd1 1_555 1_555
O23 Nd2 1_555 1_555
H13 O23 1_555 1_555
H14 O23 1_555 1_555
O24 Nd2 1_555 1_555
H15 O24 1_555 1_555
O25 Nd2 1_555 1_555
H16 O25 1_555 1_555
H17 O25 1_555 1_555
O26 Nd2 1_555 1_555
H18 O26 1_555 1_555
H19 O26 1_555 1_555
O27 H20 1_555 1_555
H21 O27 1_555 1_555
O28 H22 1_555 1_555
H23 O28 1_555 1_555
O29 H24 1_555 1_555
H25 O29 1_555 1_555
O30 H26 1_555 1_555
H27 O30 1_555 1_555
O31 H28 1_555 1_555
H29 O31 1_555 1_555
O32 H30 1_555 1_555
C1 O32 1_555 1_555
H31 C1 1_555 1_555
H32 C1 1_555 1_555
H33 C1 1_555 1_555
O33 H34 1_555 1_555
H35 O33 1_555 1_555
N1 O22 1_555 1_555
C2 C3 1_555 1_555
C3 H36 1_555 1_555
C4 S2 1_555 1_555
C5 C4 1_555 1_555
H37 C5 1_555 1_555
C6 C5 1_555 1_555
C7 O1 1_555 1_555
C8 S3 1_555 1_555
C9 C8 1_555 1_555
H38 C9 1_555 1_555
C10 S4 1_555 1_555
C11 C10 1_555 1_555
H39 C11 1_555 1_555
C12 C11 1_555 1_555
C13 O5 1_555 1_555
C14 S5 1_555 1_555
C15 C14 1_555 1_555
H40 C15 1_555 1_555
C16 S6 1_555 1_555
C17 C16 1_555 1_555
H41 C17 1_555 1_555
C18 C17 1_555 1_555
C19 O9 1_555 1_555
C20 S7 1_555 1_555
C21 C20 1_555 1_555
H42 C21 1_555 1_555
C22 S8 1_555 1_555
C23 C22 1_555 1_555
H43 C23 1_555 1_555
C24 S1 1_555 1_555
C25 O13 1_555 1_555
C26 N1 1_555 1_555
H44 C26 1_555 1_555
C27 C26 1_555 1_555
H45 C27 1_555 1_555
C28 C27 1_555 1_555
H46 C28 1_555 1_555
C29 C28 1_555 1_555
H47 C29 1_555 1_555
C30 N1 1_555 1_555
H48 C30 1_555 1_555
C31 O24 1_555 1_555
H49 C31 1_555 1_555
H50 C31 1_555 1_555
H51 C31 1_555 1_555
Nd1A O22 1_555 1_555
Nd2A O11 1_555 1_555
Nd2A_2 O16 1_555 1_555
O6A Nd1 1_555 1_555
O11A Nd2 1_555 1_555
O16A Nd2 1_555 1_555
O22A Nd1 1_555 1_555
C2 C7 1_555 1_555
C3 C4 1_555 1_555
C6 C7 1_555 1_555
C8 C13 1_555 1_555
C9 C10 1_555 1_555
C12 C13 1_555 1_555
C14 C19 1_555 1_555
C15 C16 1_555 1_555
C18 C19 1_555 1_555
C20 C25 1_555 1_555
C21 C22 1_555 1_555
C23 C24 1_555 1_555
C24 C25 1_555 1_555
C29 C30 1_555 1_555
Nd1A O22A 1_555 1_555

#END
