
#######################################################################
#
#                 Cambridge Crystallographic Data Centre
#                                CCDC 
#
#######################################################################
#
# If this CIF has been generated from an entry in the Cambridge 
# Structural Database, then it will include bibliographic, chemical, 
# crystal, experimental, refinement or atomic coordinate data resulting 
# from the CCDC's data processing and validation procedures.
#
#######################################################################

data_UQAWUF01
_symmetry_cell_setting           monoclinic
_symmetry_space_group_name_H-M   'P 21/c'
_symmetry_Int_Tables_number      14
_space_group_name_Hall           '-P 2ybc'
loop_
_symmetry_equiv_pos_site_id
_symmetry_equiv_pos_as_xyz
1 x,y,z
2 -x,1/2+y,1/2-z
3 -x,-y,-z
4 x,1/2-y,1/2+z
_cell_length_a                   9.565(2)
_cell_length_b                   8.5582(19)
_cell_length_c                   9.4197(17)
_cell_angle_alpha                90
_cell_angle_beta                 106.288(5)
_cell_angle_gamma                90
_cell_volume                     740.141
loop_
_atom_site_label
_atom_site_type_symbol
_atom_site_fract_x
_atom_site_fract_y
_atom_site_fract_z
Cu1 Cu 1.0000 0.0000 1.0000
S1 S 1.15068(5) 0.19835(6) 0.60557(6)
N1 N 0.63042(14) 0.27354(14) 0.89588(14)
N2 N 0.57633(14) 0.15288(15) 0.95923(15)
N3 N 0.80991(13) 0.11067(15) 0.96881(15)
N4 N 1.01688(16) 0.07672(18) 0.80875(16)
C1 C 0.68871(17) 0.05862(18) 1.00187(18)
H1 H 0.6855 -0.0354 1.0504
C2 C 0.76915(17) 0.24636(18) 0.90234(18)
H2 H 0.8282 0.3123 0.8659
C3 C 0.53523(18) 0.40255(19) 0.82639(18)
H3 H 0.4672 0.3659 0.7356
H4 H 0.5936 0.4849 0.8010
C4 C 0.45073(18) 0.4684(2) 0.92740(19)
H5 H 0.3892 0.3870 0.9490
H6 H 0.3879 0.5518 0.8762
C5 C 1.07197(16) 0.12981(19) 0.72473(17)
Cu1_2 Cu 0.0000 1.0000 1.0000
Cu1A Cu 1.0000 0.5000 0.5000
Cu1A_2 Cu 1.0000 0.5000 1.5000
S1C S 1.15068(5) 0.30165(6) 1.10557(6)
S1A S 0.84932(5) -0.30165(6) 0.89443(6)
N1B N 0.36958(14) 0.72646(14) 1.10412(14)
N2B N 0.42367(14) 0.84712(15) 1.04077(15)
N3B N 0.19009(13) 0.88933(15) 1.03119(15)
N3B_2 N 1.19009(13) -0.11067(15) 1.03119(15)
N4C N 1.01688(16) 0.42328(18) 1.30875(16)
N4B N 0.98312(16) -0.07672(18) 1.19125(16)
C1B C 0.31129(17) 0.94138(18) 0.99813(18)
H1B H 0.3145 1.0354 0.9496
C2B C 0.23085(17) 0.75364(18) 1.09766(18)
H2B H 0.1718 0.6877 1.1341
C3B C 0.46477(18) 0.59745(19) 1.17361(18)
H3B H 0.5328 0.6341 1.2644
H4B H 0.4064 0.5151 1.1990
C4B C 0.54927(18) 0.5316(2) 1.07260(19)
H5B H 0.6108 0.6130 1.0510
H6B H 0.6121 0.4482 1.1238
C5C C 1.07197(16) 0.37019(19) 1.22473(17)
loop_
_geom_bond_atom_site_label_1
_geom_bond_atom_site_label_2
_geom_bond_site_symmetry_1
_geom_bond_site_symmetry_2
Cu1 N3 1_555 1_555
S1 C5 1_555 1_555
N1 N2 1_555 1_555
N2 C1 1_555 1_555
N3 C1 1_555 1_555
N4 Cu1 1_555 1_555
C1 H1 1_555 1_555
C2 N1 1_555 1_555
H2 C2 1_555 1_555
C3 N1 1_555 1_555
H3 C3 1_555 1_555
H4 C3 1_555 1_555
C4 C3 1_555 1_555
H5 C4 1_555 1_555
H6 C4 1_555 1_555
C5 N4 1_555 1_555
Cu1_2 N3B 1_555 1_555
Cu1A S1 1_555 1_555
Cu1A_2 N4C 1_555 1_555
S1C Cu1 1_555 1_555
S1A Cu1 1_555 1_555
N1B N2B 1_555 1_555
N2B C1B 1_555 1_555
N3B C1B 1_555 1_555
N3B_2 Cu1 1_555 1_555
N4C C5C 1_555 1_555
N4B Cu1 1_555 1_555
C1B H1B 1_555 1_555
C2B N1B 1_555 1_555
H2B C2B 1_555 1_555
C3B N1B 1_555 1_555
H3B C3B 1_555 1_555
H4B C3B 1_555 1_555
C4B C4 1_555 1_555
H5B C4B 1_555 1_555
H6B C4B 1_555 1_555
C5C S1C 1_555 1_555
N3 C2 1_555 1_555
N3B C2B 1_555 1_555
C3B C4B 1_555 1_555

#END
