
#######################################################################
#
#                 Cambridge Crystallographic Data Centre
#                                CCDC 
#
#######################################################################
#
# If this CIF has been generated from an entry in the Cambridge 
# Structural Database, then it will include bibliographic, chemical, 
# crystal, experimental, refinement or atomic coordinate data resulting 
# from the CCDC's data processing and validation procedures.
#
#######################################################################

data_UQAWUF
_symmetry_cell_setting           monoclinic
_symmetry_space_group_name_H-M   'P 21/c'
_symmetry_Int_Tables_number      14
_space_group_name_Hall           '-P 2ybc'
loop_
_symmetry_equiv_pos_site_id
_symmetry_equiv_pos_as_xyz
1 x,y,z
2 -x,1/2+y,1/2-z
3 -x,-y,-z
4 x,1/2-y,1/2+z
_cell_length_a                   9.5535(5)
_cell_length_b                   8.5649(5)
_cell_length_c                   9.4012(6)
_cell_angle_alpha                90
_cell_angle_beta                 106.289(6)
_cell_angle_gamma                90
_cell_volume                     738.373
loop_
_atom_site_label
_atom_site_type_symbol
_atom_site_fract_x
_atom_site_fract_y
_atom_site_fract_z
Cu1 Cu 0.0000 0.0000 0.0000
C1 C 0.3116(3) 0.0592(4) -0.0011(4)
H1 H 0.3151 -0.0349 -0.0493
C2 C 0.2310(4) 0.2472(4) 0.0979(3)
H2 H 0.1718 0.3134 0.1341
C3 C 0.4647(4) 0.4028(4) 0.1735(4)
H3 H 0.5331 0.3663 0.2644
H4 H 0.4063 0.4850 0.1991
C4 C 0.5489(4) 0.4688(4) 0.0722(4)
H5 H 0.6116 0.5523 0.1235
H6 H 0.6107 0.3876 0.0507
C5 C -0.0722(4) 0.1299(4) 0.2754(4)
N1 N 0.1901(3) 0.1107(3) 0.0313(3)
N2 N 0.3694(3) 0.2738(3) 0.1046(3)
N3 N 0.4236(3) 0.1531(3) 0.0411(3)
N4 N -0.0162(3) 0.0760(4) 0.1928(3)
S1 S -0.15098(11) 0.19922(12) 0.39501(11)
Cu1A Cu 0.0000 0.5000 0.5000
Cu1_2 Cu 1.0000 1.0000 0.0000
Cu1A_2 Cu 0.0000 -0.5000 -0.5000
C1B C 0.6884(3) 0.9408(4) 0.0011(4)
H1B H 0.6849 1.0349 0.0493
C2B C 0.7690(4) 0.7528(4) -0.0979(3)
H2B H 0.8282 0.6866 -0.1341
C3B C 0.5353(4) 0.5972(4) -0.1735(4)
H3B H 0.4669 0.6337 -0.2644
H4B H 0.5937 0.5150 -0.1991
C4B C 0.4511(4) 0.5312(4) -0.0722(4)
H5B H 0.3884 0.4477 -0.1235
H6B H 0.3893 0.6124 -0.0507
C5B C 0.0722(4) -0.1299(4) -0.2754(4)
N1B N 0.8099(3) 0.8893(3) -0.0313(3)
N1B_2 N -0.1901(3) -0.1107(3) -0.0313(3)
N2B N 0.6306(3) 0.7262(3) -0.1046(3)
N3B N 0.5764(3) 0.8469(3) -0.0411(3)
N4B N 0.0162(3) -0.0760(4) -0.1928(3)
S1B S 0.15098(11) -0.19922(12) -0.39501(11)
S1A S 0.15098(11) -0.30078(12) 0.10499(11)
S1C S -0.15098(11) 0.30078(12) -0.10499(11)
loop_
_geom_bond_atom_site_label_1
_geom_bond_atom_site_label_2
_geom_bond_site_symmetry_1
_geom_bond_site_symmetry_2
Cu1 N1 1_555 1_555
C1 H1 1_555 1_555
C2 H2 1_555 1_555
C3 H3 1_555 1_555
H4 C3 1_555 1_555
C4 C3 1_555 1_555
H5 C4 1_555 1_555
H6 C4 1_555 1_555
C5 N4 1_555 1_555
N1 C1 1_555 1_555
N2 C2 1_555 1_555
N3 C1 1_555 1_555
N4 Cu1 1_555 1_555
S1 C5 1_555 1_555
Cu1A S1 1_555 1_555
Cu1_2 N1B 1_555 1_555
Cu1A_2 S1B 1_555 1_555
C1B H1B 1_555 1_555
C2B H2B 1_555 1_555
C3B H3B 1_555 1_555
H4B C3B 1_555 1_555
C4B C4 1_555 1_555
H5B C4B 1_555 1_555
H6B C4B 1_555 1_555
C5B N4B 1_555 1_555
N1B C1B 1_555 1_555
N1B_2 Cu1 1_555 1_555
N2B C2B 1_555 1_555
N3B C1B 1_555 1_555
N4B Cu1 1_555 1_555
S1B C5B 1_555 1_555
S1A Cu1 1_555 1_555
S1C Cu1 1_555 1_555
C2 N1 1_555 1_555
C3 N2 1_555 1_555
N2 N3 1_555 1_555
C2B N1B 1_555 1_555
C3B C4B 1_555 1_555
C3B N2B 1_555 1_555
N2B N3B 1_555 1_555

#END
