
#######################################################################
#
#                 Cambridge Crystallographic Data Centre
#                                CCDC 
#
#######################################################################
#
# If this CIF has been generated from an entry in the Cambridge 
# Structural Database, then it will include bibliographic, chemical, 
# crystal, experimental, refinement or atomic coordinate data resulting 
# from the CCDC's data processing and validation procedures.
#
#######################################################################

data_UQAYOB
_symmetry_cell_setting           monoclinic
_symmetry_space_group_name_H-M   'P 21/n'
_symmetry_Int_Tables_number      14
_space_group_name_Hall           '-P 2yn'
loop_
_symmetry_equiv_pos_site_id
_symmetry_equiv_pos_as_xyz
1 x,y,z
2 1/2-x,1/2+y,1/2-z
3 -x,-y,-z
4 1/2+x,1/2-y,1/2+z
_cell_length_a                   6.0103(1)
_cell_length_b                   14.1095(3)
_cell_length_c                   14.5486(3)
_cell_angle_alpha                90
_cell_angle_beta                 99.379(2)
_cell_angle_gamma                90
_cell_volume                     1217.26
loop_
_atom_site_label
_atom_site_type_symbol
_atom_site_fract_x
_atom_site_fract_y
_atom_site_fract_z
C1 C 0.5902(4) 0.7482(2) 0.9609(2)
C2 C 0.7088(4) 0.8235(2) 0.92762(19)
C3 C 0.6131(5) 0.6432(2) 0.9472(2)
H1 H 0.7652 0.6228 0.9748
H2 H 0.5870 0.6287 0.8804
H3 H 0.5019 0.6095 0.9774
C4 C 0.4434(4) 0.7944(2) 1.0119(2)
C5 C 0.2666(4) 0.7653(2) 1.0651(2)
C6 C 0.2249(5) 0.6645(2) 1.0888(2)
H4 H 0.1769 0.6286 1.0314
H5 H 0.3640 0.6369 1.1228
H6 H 0.1065 0.6620 1.1278
C7 C 0.8843(4) 0.8232(2) 0.8694(2)
C8 C 0.9329(5) 0.7380(2) 0.8160(2)
H7 H 1.0422 0.7543 0.7754
H8 H 0.7931 0.7155 0.7780
H9 H 0.9953 0.6880 0.8594
Cl1 Cl 0.60735(11) 0.99988(5) 1.28414(5)
Cu1 Cu 0.25665(5) 0.96710(3) 1.06052(2)
H10 H 1.107(6) 0.894(3) 0.823(3)
H11 H -0.072(7) 0.869(4) 1.164(3)
N1 N 0.4755(3) 0.88953(17) 1.00904(16)
N2 N 0.6357(4) 0.90779(17) 0.95830(16)
N3 N 0.1574(4) 0.83702(18) 1.08928(17)
N4 N 1.0081(4) 0.89628(19) 0.85965(18)
O1 O -0.0106(3) 0.81829(17) 1.14206(15)
O2 O 1.0137(3) 0.97904(15) 0.90463(14)
O3 O 0.6789(4) 1.09581(17) 1.26606(17)
O4 O 0.6185(4) 0.98615(16) 1.38203(15)
O5 O 0.7499(4) 0.93335(18) 1.24763(18)
O6 O 0.3783(4) 0.98745(18) 1.23845(17)
Cu1B Cu 0.74335(5) 1.03290(3) 0.93948(2)
Cu1_2 Cu 1.25665(5) 0.96710(3) 1.06052(2)
N2B N 0.3643(4) 1.09221(17) 1.04170(16)
O2B O -0.0137(3) 1.02096(15) 1.09537(14)
O2_2 O 0.0137(3) 0.97904(15) 0.90463(14)
loop_
_geom_bond_atom_site_label_1
_geom_bond_atom_site_label_2
_geom_bond_site_symmetry_1
_geom_bond_site_symmetry_2
C1 C2 1_555 1_555
C2 C7 1_555 1_555
C3 C1 1_555 1_555
H1 C3 1_555 1_555
H2 C3 1_555 1_555
H3 C3 1_555 1_555
C4 C1 1_555 1_555
C5 C4 1_555 1_555
C6 C5 1_555 1_555
H4 C6 1_555 1_555
H5 C6 1_555 1_555
H6 C6 1_555 1_555
C7 C8 1_555 1_555
C8 H7 1_555 1_555
H8 C8 1_555 1_555
H9 C8 1_555 1_555
Cl1 O3 1_555 1_555
Cu1 N1 1_555 1_555
H10 N4 1_555 1_555
H11 O1 1_555 1_555
N1 C4 1_555 1_555
N2 C2 1_555 1_555
N3 C5 1_555 1_555
N4 C7 1_555 1_555
O1 N3 1_555 1_555
O2 N4 1_555 1_555
O4 Cl1 1_555 1_555
O5 Cl1 1_555 1_555
O6 Cl1 1_555 1_555
Cu1B N2 1_555 1_555
Cu1_2 O2 1_555 1_555
N2B Cu1 1_555 1_555
O2B Cu1 1_555 1_555
O2_2 Cu1 1_555 1_555
Cu1 N3 1_555 1_555
Cu1 O6 1_555 1_555
N1 N2 1_555 1_555
O2 Cu1B 1_555 1_555

#END
