
#######################################################################
#
#                 Cambridge Crystallographic Data Centre
#                                CCDC 
#
#######################################################################
#
# If this CIF has been generated from an entry in the Cambridge 
# Structural Database, then it will include bibliographic, chemical, 
# crystal, experimental, refinement or atomic coordinate data resulting 
# from the CCDC's data processing and validation procedures.
#
#######################################################################

data_UQAYIV
_symmetry_cell_setting           monoclinic
_symmetry_space_group_name_H-M   'P 21/n'
_symmetry_Int_Tables_number      14
_space_group_name_Hall           '-P 2yn'
loop_
_symmetry_equiv_pos_site_id
_symmetry_equiv_pos_as_xyz
1 x,y,z
2 1/2-x,1/2+y,1/2-z
3 -x,-y,-z
4 1/2+x,1/2-y,1/2+z
_cell_length_a                   5.9943(1)
_cell_length_b                   13.8734(2)
_cell_length_c                   14.4575(2)
_cell_angle_alpha                90
_cell_angle_beta                 98.793(1)
_cell_angle_gamma                90
_cell_volume                     1188.17
loop_
_atom_site_label
_atom_site_type_symbol
_atom_site_fract_x
_atom_site_fract_y
_atom_site_fract_z
F1 F 0.6800(3) 0.40577(11) 0.76484(12)
F2 F 0.6190(3) 0.51536(11) 0.87606(10)
F3 F 0.3857(3) 0.51074(12) 0.73704(11)
F4 F 0.7428(3) 0.56568(12) 0.74322(12)
B1 B 0.6065(5) 0.5004(2) 0.7808(2)
C1 C 0.5887(4) 0.75621(17) 0.45975(16)
C2 C 0.7094(4) 0.67951(16) 0.42707(15)
C3 C 0.6112(4) 0.86309(17) 0.44579(18)
H1 H 0.5749 0.8783 0.3790
H2 H 0.7664 0.8831 0.4690
H3 H 0.5070 0.8974 0.4802
C4 C 0.4407(4) 0.70902(16) 0.51130(16)
C5 C 0.2617(4) 0.73854(17) 0.56444(16)
C6 C 0.2176(5) 0.84111(18) 0.58787(19)
H4 H 0.1702 0.8774 0.5300
H5 H 0.3558 0.8697 0.6219
H6 H 0.0979 0.8435 0.6270
C7 C 0.8858(4) 0.67938(17) 0.36810(16)
C8 C 0.9342(5) 0.76696(18) 0.31390(18)
H7 H 1.0400 0.7501 0.2711
H8 H 1.0009 0.8171 0.3573
H9 H 0.7933 0.7909 0.2779
Cu1 Cu 0.25401(5) 0.53333(2) 0.56032(2)
H10 H 1.116(5) 0.609(2) 0.315(2)
H11 H -0.071(7) 0.629(3) 0.671(3)
N1 N 0.4732(3) 0.61223(13) 0.50843(13)
N2 N 0.6353(3) 0.59386(14) 0.45802(13)
N3 N 0.1526(3) 0.66516(14) 0.58967(14)
N4 N 1.0109(3) 0.60501(15) 0.35830(14)
O1 O -0.0163(3) 0.68435(13) 0.64264(12)
O2 O 1.0159(3) 0.52143(12) 0.40367(12)
Cu1B Cu 0.74599(5) 0.46667(2) 0.43968(2)
Cu1_2 Cu 1.25401(5) 0.53333(2) 0.56032(2)
N2B N 0.3647(3) 0.40614(14) 0.54198(13)
O2_2 O 0.0159(3) 0.52143(12) 0.40367(12)
O2B O -0.0159(3) 0.47857(12) 0.59633(12)
loop_
_geom_bond_atom_site_label_1
_geom_bond_atom_site_label_2
_geom_bond_site_symmetry_1
_geom_bond_site_symmetry_2
F1 B1 1_555 1_555
F2 B1 1_555 1_555
F3 B1 1_555 1_555
F4 B1 1_555 1_555
C1 C2 1_555 1_555
C2 C7 1_555 1_555
C3 C1 1_555 1_555
H1 C3 1_555 1_555
H2 C3 1_555 1_555
H3 C3 1_555 1_555
C4 C1 1_555 1_555
C5 C4 1_555 1_555
C6 C5 1_555 1_555
H4 C6 1_555 1_555
H5 C6 1_555 1_555
H6 C6 1_555 1_555
C7 C8 1_555 1_555
C8 H7 1_555 1_555
H8 C8 1_555 1_555
H9 C8 1_555 1_555
Cu1 F3 1_555 1_555
H10 N4 1_555 1_555
H11 O1 1_555 1_555
N1 C4 1_555 1_555
N2 C2 1_555 1_555
N3 C5 1_555 1_555
N4 C7 1_555 1_555
O1 N3 1_555 1_555
O2 N4 1_555 1_555
Cu1B N2 1_555 1_555
Cu1_2 O2 1_555 1_555
N2B Cu1 1_555 1_555
O2_2 Cu1 1_555 1_555
O2B Cu1 1_555 1_555
Cu1 N1 1_555 1_555
Cu1 N3 1_555 1_555
N1 N2 1_555 1_555
O2 Cu1B 1_555 1_555

#END
