
#######################################################################
#
#                 Cambridge Crystallographic Data Centre
#                                CCDC 
#
#######################################################################
#
# If this CIF has been generated from an entry in the Cambridge 
# Structural Database, then it will include bibliographic, chemical, 
# crystal, experimental, refinement or atomic coordinate data resulting 
# from the CCDC's data processing and validation procedures.
#
#######################################################################

data_UQAZAO
_symmetry_cell_setting           triclinic
_symmetry_space_group_name_H-M   'P -1'
_symmetry_Int_Tables_number      2
_space_group_name_Hall           '-P 1'
loop_
_symmetry_equiv_pos_site_id
_symmetry_equiv_pos_as_xyz
1 x,y,z
2 -x,-y,-z
_cell_length_a                   6.0192(1)
_cell_length_b                   9.7767(2)
_cell_length_c                   12.6325(3)
_cell_angle_alpha                95.150(2)
_cell_angle_beta                 91.284(2)
_cell_angle_gamma                106.387(2)
_cell_volume                     709.432
loop_
_atom_site_label
_atom_site_type_symbol
_atom_site_fract_x
_atom_site_fract_y
_atom_site_fract_z
C1 C 0.3402(4) 0.7355(2) 1.19056(17)
C2 C 0.2394(4) 0.8483(2) 1.17852(17)
C3 C 0.2945(4) 0.6273(2) 1.2713(2)
H1 H 0.3179 0.5375 1.2396
H2 H 0.1344 0.6096 1.2930
H3 H 0.4014 0.6645 1.3336
C4 C 0.4936(4) 0.7476(2) 1.10934(18)
C5 C 0.6650(4) 0.6732(2) 1.07292(18)
C6 C 0.6977(4) 0.5456(2) 1.12068(19)
H4 H 0.8000 0.5042 1.0772
H5 H 0.5471 0.4740 1.1233
H6 H 0.7676 0.5747 1.1930
C7 C 0.0754(4) 0.8979(2) 1.24299(18)
C8 C 0.0248(5) 0.8571(3) 1.3531(2)
H7 H -0.0560 0.7545 1.3498
H8 H 0.1705 0.8778 1.3958
H9 H -0.0734 0.9122 1.3858
C9 C 0.3612(5) 0.6662(3) 0.5938(2)
Cu1 Cu 0.72538(4) 0.91071(3) 0.95150(2)
F1 F 0.5505(3) 0.7214(2) 0.54214(14)
F2 F 0.3557(3) 0.53242(16) 0.61080(13)
F3 F 0.1767(3) 0.65897(18) 0.53116(13)
H10 H -0.120(5) 1.005(3) 1.252(2)
H11 H 1.000(6) 0.709(4) 0.899(3)
N1 N 0.4842(3) 0.85800(18) 1.05275(15)
N2 N 0.3309(3) 0.91865(18) 1.09470(15)
N3 N 0.7809(3) 0.73174(18) 0.99640(15)
N4 N -0.0309(3) 0.98622(19) 1.21009(16)
O1 O 0.9400(3) 0.66562(17) 0.95526(14)
O2 O -0.0169(3) 1.04140(16) 1.11698(13)
O3 O 0.3603(3) 0.91221(17) 0.68403(14)
O4 O 0.1438(3) 0.69913(18) 0.76335(14)
O5 O 0.5665(3) 0.77297(18) 0.77728(14)
S1 S 0.35777(10) 0.77422(6) 0.71923(4)
Cu1A Cu 0.27462(4) 1.08929(3) 1.04850(2)
Cu1_2 Cu -0.27462(4) 0.91071(3) 0.95150(2)
N2A N 0.6691(3) 1.08135(18) 0.90530(15)
O2_2 O 0.9831(3) 1.04140(16) 1.11698(13)
O2A O 1.0169(3) 0.95860(16) 0.88302(13)
loop_
_geom_bond_atom_site_label_1
_geom_bond_atom_site_label_2
_geom_bond_site_symmetry_1
_geom_bond_site_symmetry_2
C1 C2 1_555 1_555
C2 C7 1_555 1_555
C3 C1 1_555 1_555
H1 C3 1_555 1_555
H2 C3 1_555 1_555
H3 C3 1_555 1_555
C4 C1 1_555 1_555
C5 C4 1_555 1_555
C6 C5 1_555 1_555
H4 C6 1_555 1_555
H5 C6 1_555 1_555
H6 C6 1_555 1_555
C7 C8 1_555 1_555
C8 H7 1_555 1_555
H8 C8 1_555 1_555
H9 C8 1_555 1_555
C9 F1 1_555 1_555
Cu1 N1 1_555 1_555
F2 C9 1_555 1_555
F3 C9 1_555 1_555
H10 N4 1_555 1_555
H11 O1 1_555 1_555
N1 C4 1_555 1_555
N2 C2 1_555 1_555
N3 C5 1_555 1_555
N4 C7 1_555 1_555
O1 N3 1_555 1_555
O2 N4 1_555 1_555
O3 S1 1_555 1_555
O4 S1 1_555 1_555
O5 Cu1 1_555 1_555
S1 C9 1_555 1_555
Cu1A N2 1_555 1_555
Cu1_2 O2 1_555 1_555
N2A Cu1 1_555 1_555
O2_2 Cu1 1_555 1_555
O2A Cu1 1_555 1_555
Cu1 N3 1_555 1_555
N1 N2 1_555 1_555
O2 Cu1A 1_555 1_555
O5 S1 1_555 1_555

#END
