
#######################################################################
#
#                 Cambridge Crystallographic Data Centre
#                                CCDC 
#
#######################################################################
#
# If this CIF has been generated from an entry in the Cambridge 
# Structural Database, then it will include bibliographic, chemical, 
# crystal, experimental, refinement or atomic coordinate data resulting 
# from the CCDC's data processing and validation procedures.
#
#######################################################################

data_UQEBOI
_symmetry_cell_setting           monoclinic
_symmetry_space_group_name_H-M   'C 2/c'
_symmetry_Int_Tables_number      15
_space_group_name_Hall           '-C 2yn'
loop_
_symmetry_equiv_pos_site_id
_symmetry_equiv_pos_as_xyz
1 x,y,z
2 -x,y,1/2-z
3 1/2+x,1/2+y,z
4 1/2-x,1/2+y,1/2-z
5 -x,-y,-z
6 x,-y,1/2+z
7 1/2-x,1/2-y,-z
8 1/2+x,1/2-y,1/2+z
_cell_length_a                   30.656(8)
_cell_length_b                   12.715(3)
_cell_length_c                   22.405(5)
_cell_angle_alpha                90
_cell_angle_beta                 122.758(3)
_cell_angle_gamma                90
_cell_volume                     7344.36
loop_
_atom_site_label
_atom_site_type_symbol
_atom_site_fract_x
_atom_site_fract_y
_atom_site_fract_z
Cu1 Cu 0.168272(17) 0.38617(4) 0.50159(2)
Cu2 Cu 0.303531(17) 0.51398(4) 0.58750(2)
C1 C 0.37683(16) 0.6660(3) 0.5806(2)
H1 H 0.4025 0.6416 0.6253
C2 C 0.38973(18) 0.7399(3) 0.5476(3)
H2 H 0.4236 0.7641 0.5694
C3 C 0.35128(18) 0.7776(3) 0.4812(2)
H3 H 0.3592 0.8271 0.4579
C4 C 0.30110(16) 0.7407(3) 0.4502(2)
H4 H 0.2747 0.7660 0.4063
C5 C 0.29078(15) 0.6655(3) 0.48554(19)
C6 C 0.24014(14) 0.6178(3) 0.45774(18)
C7 C 0.19117(15) 0.6295(3) 0.39609(19)
H5 H 0.1814 0.6755 0.3586
C8 C 0.16069(15) 0.5582(3) 0.40285(19)
H6 H 0.1255 0.5484 0.3698
C9 C 0.14468(15) 1.0890(3) 0.78532(19)
C10 C 0.10252(15) 1.1208(3) 0.71095(19)
C11 C 0.09118(17) 1.2275(4) 0.6973(2)
H7 H 0.1103 1.2760 0.7335
C12 C 0.05202(17) 1.2632(4) 0.6310(2)
H8 H 0.0453 1.3348 0.6222
C13 C 0.02324(17) 1.1903(4) 0.5785(2)
H9 H -0.0038 1.2128 0.5341
C14 C 0.03390(16) 1.0860(4) 0.5908(2)
H10 H 0.0143 1.0384 0.5542
C15 C 0.07348(15) 1.0483(3) 0.65684(19)
C16 C 0.08485(15) 0.9329(3) 0.66536(18)
C17 C 0.04797(16) 0.8596(3) 0.6544(2)
H11 H 0.0154 0.8825 0.6424
C18 C 0.05841(17) 0.7530(4) 0.6610(2)
H12 H 0.0329 0.7058 0.6539
C19 C 0.10617(17) 0.7153(3) 0.6779(2)
C20 C 0.14313(17) 0.7879(4) 0.6880(2)
H13 H 0.1753 0.7643 0.6986
C21 C 0.13353(16) 0.8953(3) 0.6828(2)
H14 H 0.1594 0.9424 0.6909
C22 C 0.11863(19) 0.5998(4) 0.6900(2)
H15 H 0.1523 0.5908 0.7335
H16 H 0.0931 0.5650 0.6961
C23 C 0.07684(15) 0.5376(3) 0.5636(2)
H17 H 0.0432 0.5604 0.5466
C24 C 0.16069(15) 0.5034(3) 0.63305(19)
C25 C 0.21343(16) 0.4936(3) 0.6978(2)
H18 H 0.2220 0.5581 0.7251
H19 H 0.2383 0.4847 0.6841
C26 C 0.21821(17) 0.3995(3) 0.7453(2)
H20 H 0.2525 0.4002 0.7885
H21 H 0.1930 0.4080 0.7584
C27 C 0.20965(18) 0.2950(4) 0.7093(2)
H22 H 0.1756 0.2934 0.6667
H23 H 0.2126 0.2400 0.7406
H24 H 0.2352 0.2849 0.6976
C28 C 0.09355(14) 0.4868(3) 0.52647(19)
C29 C 0.06569(15) 0.4580(3) 0.4502(2)
C30 C 0.10469(18) 0.1882(4) 0.4829(2)
H25 H 0.0753 0.2284 0.4534
C31 C 0.0983(2) 0.0847(4) 0.4970(3)
H26 H 0.0653 0.0560 0.4766
C32 C 0.1413(2) 0.0259(4) 0.5412(3)
H27 H 0.1379 -0.0431 0.5520
C33 C 0.18968(18) 0.0696(3) 0.5697(2)
H28 H 0.2193 0.0305 0.5998
C34 C 0.19378(15) 0.1724(3) 0.55322(19)
C35 C 0.24250(15) 0.2275(3) 0.58103(19)
C36 C 0.29451(16) 0.1998(3) 0.6246(2)
H29 H 0.3081 0.1335 0.6426
C37 C 0.32147(16) 0.2916(3) 0.6353(2)
H30 H 0.3574 0.2981 0.6630
N1 N 0.14589(11) 0.4655(2) 0.56982(15)
N2 N 0.11922(13) 0.5488(3) 0.63110(16)
N3 N 0.15106(13) 0.2315(3) 0.51007(16)
N4 N 0.23903(11) 0.3315(2) 0.56572(15)
N5 N 0.28789(12) 0.3710(3) 0.59944(15)
N6 N 0.32856(12) 0.6282(2) 0.55028(16)
N7 N 0.23825(11) 0.5414(2) 0.49801(15)
N8 N 0.18874(11) 0.5041(2) 0.46411(15)
O1 O 0.01909(10) 0.4789(2) 0.41037(14)
O2 O 0.09346(9) 0.4140(2) 0.43030(12)
O3 O 0.18748(10) 1.1329(2) 0.81586(13)
O4 O 0.13309(10) 1.0193(2) 0.81602(13)
Cu1C Cu 0.331728(17) -0.11383(4) 0.99841(2)
Cu1C_2 Cu 0.331728(17) 0.88617(4) 0.99841(2)
Cu2C Cu 0.196469(17) 1.01398(4) 0.91250(2)
C1C C 0.12317(16) 1.1660(3) 0.9194(2)
H1C H 0.0975 1.1416 0.8747
C2C C 0.11027(18) 1.2399(3) 0.9524(3)
H2C H 0.0764 1.2641 0.9306
C3C C 0.14872(18) 1.2776(3) 1.0188(2)
H3C H 0.1408 1.3271 1.0421
C4C C 0.19890(16) 1.2407(3) 1.0498(2)
H4C H 0.2253 1.2660 1.0937
C5C C 0.20922(15) 1.1655(3) 1.01446(19)
C6C C 0.25986(14) 1.1178(3) 1.04226(18)
C7C C 0.30883(15) 1.1295(3) 1.10391(19)
H5C H 0.3186 1.1755 1.1414
C8C C 0.33931(15) 1.0582(3) 1.09715(19)
H6C H 0.3745 1.0484 1.1302
C9C C 0.35532(15) 0.5890(3) 0.71468(19)
C10C C 0.39748(15) 0.6208(3) 0.78905(19)
C11C C 0.40882(17) 0.7275(4) 0.8027(2)
H7C H 0.3897 0.7760 0.7665
C12C C 0.44798(17) 0.7632(4) 0.8690(2)
H8C H 0.4547 0.8348 0.8778
C13C C 0.47676(17) 0.6903(4) 0.9215(2)
H9C H 0.5038 0.7128 0.9659
C14C C 0.46610(16) 0.5860(4) 0.9092(2)
H10C H 0.4857 0.5384 0.9458
C15C C 0.42652(15) 0.5483(3) 0.84316(19)
C16C C 0.41515(15) 0.4329(3) 0.83464(18)
C17C C 0.45203(16) 0.3596(3) 0.8456(2)
H11C H 0.4846 0.3825 0.8576
C18C C 0.44159(17) 0.2530(4) 0.8390(2)
H12C H 0.4671 0.2058 0.8461
C19C C 0.39383(17) 0.2153(3) 0.8221(2)
C20C C 0.35687(17) 0.2879(4) 0.8120(2)
H13C H 0.3247 0.2643 0.8014
C21C C 0.36647(16) 0.3953(3) 0.8172(2)
H14C H 0.3406 0.4424 0.8091
C22C C 0.38137(19) 0.0998(4) 0.8100(2)
H15C H 0.3477 0.0908 0.7665
H16C H 0.4069 0.0650 0.8039
C23C C 0.42316(15) 0.0376(3) 0.9364(2)
H17C H 0.4568 0.0604 0.9534
C24C C 0.33931(15) 0.0034(3) 0.86695(19)
C25C C 0.28657(16) -0.0064(3) 0.8022(2)
H18C H 0.2780 0.0581 0.7749
H19C H 0.2617 -0.0153 0.8159
C26C C 0.28179(17) -0.1005(3) 0.7547(2)
H20C H 0.2475 -0.0998 0.7115
H21C H 0.3070 -0.0920 0.7416
C27C C 0.29035(18) -0.2050(4) 0.7907(2)
H22C H 0.3244 -0.2066 0.8333
H23C H 0.2874 -0.2600 0.7594
H24C H 0.2648 -0.2151 0.8024
C28C C 0.40645(14) -0.0132(3) 0.97353(19)
C29C C 0.43431(15) -0.0420(3) 1.0498(2)
C30C C 0.39531(18) 0.6882(4) 1.0171(2)
H25C H 0.4247 0.7284 1.0466
C31C C 0.4017(2) 0.5847(4) 1.0030(3)
H26C H 0.4347 0.5560 1.0234
C32C C 0.3587(2) 0.5259(4) 0.9588(3)
H27C H 0.3621 0.4569 0.9480
C33C C 0.31032(18) 0.5696(3) 0.9303(2)
H28C H 0.2807 0.5305 0.9002
C34C C 0.30622(15) 0.6724(3) 0.94678(19)
C35C C 0.25750(15) 0.7275(3) 0.91897(19)
C36C C 0.20549(16) 0.6998(3) 0.8754(2)
H29C H 0.1919 0.6335 0.8574
C37C C 0.17853(16) 0.7916(3) 0.8647(2)
H30C H 0.1426 0.7981 0.8370
N1C N 0.35411(11) -0.0345(2) 0.93018(15)
N2C N 0.38078(13) 0.0488(3) 0.86890(16)
N3C N 0.34894(13) 0.7315(3) 0.98993(16)
N3C_2 N 0.34894(13) -0.2685(3) 0.98993(16)
N4C N 0.26097(11) 0.8315(2) 0.93428(15)
N4C_2 N 0.26097(11) -0.1685(2) 0.93428(15)
N5C N 0.21211(12) 0.8710(3) 0.90056(15)
N6C N 0.17144(12) 1.1282(2) 0.94972(16)
N7C N 0.26175(11) 1.0414(2) 1.00199(15)
N8C N 0.31126(11) 1.0041(2) 1.03589(15)
N8C_2 N 0.31126(11) 0.0041(2) 1.03589(15)
O1C O 0.48091(10) -0.0211(2) 1.08963(14)
O2C O 0.40654(9) -0.0860(2) 1.06970(12)
O3C O 0.31252(10) 0.6329(2) 0.68414(13)
O4C O 0.36691(10) 0.5193(2) 0.68398(13)
O5 O 0.0506(2) 0.3117(5) 0.3006(2)
H31 H 0.063(2) 0.362(3) 0.290(2)
H32 H 0.0605(18) 0.313(4) 0.3428(9)
O6 O 0.05133(18) 0.0928(4) 0.3116(2)
H33 H 0.036(2) 0.034(2) 0.297(3)
H35 H 0.063(13) 0.113(15) 0.289(13)
O7 O 0.5000 0.717(2) 0.7500
H34 H 0.506(2) 0.705(4) 0.7892(16)
H34A H 0.494(2) 0.705(4) 0.7108(16)
O8 O 0.9611(3) 0.5359(9) 0.2706(3)
H36 H 0.982(2) 0.584(4) 0.276(4)
H37 H 0.967(5) 0.514(11) 0.310(2)
loop_
_geom_bond_atom_site_label_1
_geom_bond_atom_site_label_2
_geom_bond_site_symmetry_1
_geom_bond_site_symmetry_2
Cu1 N1 1_555 1_555
Cu2 N5 1_555 1_555
C1 H1 1_555 1_555
C2 C1 1_555 1_555
H2 C2 1_555 1_555
C3 C2 1_555 1_555
H3 C3 1_555 1_555
C4 C3 1_555 1_555
H4 C4 1_555 1_555
C5 C4 1_555 1_555
C6 C5 1_555 1_555
C7 C6 1_555 1_555
H5 C7 1_555 1_555
C8 C7 1_555 1_555
H6 C8 1_555 1_555
C9 C10 1_555 1_555
C10 C11 1_555 1_555
C11 H7 1_555 1_555
C12 C11 1_555 1_555
H8 C12 1_555 1_555
C13 C12 1_555 1_555
H9 C13 1_555 1_555
C14 C13 1_555 1_555
H10 C14 1_555 1_555
C15 C10 1_555 1_555
C16 C15 1_555 1_555
C17 C16 1_555 1_555
H11 C17 1_555 1_555
C18 C17 1_555 1_555
H12 C18 1_555 1_555
C19 C18 1_555 1_555
C20 C19 1_555 1_555
H13 C20 1_555 1_555
C21 C16 1_555 1_555
H14 C21 1_555 1_555
C22 C19 1_555 1_555
H15 C22 1_555 1_555
H16 C22 1_555 1_555
C23 H17 1_555 1_555
C24 C25 1_555 1_555
C25 H18 1_555 1_555
H19 C25 1_555 1_555
C26 C25 1_555 1_555
H20 C26 1_555 1_555
H21 C26 1_555 1_555
C27 C26 1_555 1_555
H22 C27 1_555 1_555
H23 C27 1_555 1_555
H24 C27 1_555 1_555
C28 C23 1_555 1_555
C29 C28 1_555 1_555
C30 H25 1_555 1_555
C31 C30 1_555 1_555
H26 C31 1_555 1_555
C32 C31 1_555 1_555
H27 C32 1_555 1_555
C33 C32 1_555 1_555
H28 C33 1_555 1_555
C34 C33 1_555 1_555
C35 C34 1_555 1_555
C36 C35 1_555 1_555
H29 C36 1_555 1_555
C37 C36 1_555 1_555
H30 C37 1_555 1_555
N1 C24 1_555 1_555
N2 C22 1_555 1_555
N3 Cu1 1_555 1_555
N4 Cu1 1_555 1_555
N5 C37 1_555 1_555
N6 Cu2 1_555 1_555
N7 Cu2 1_555 1_555
N8 Cu1 1_555 1_555
O1 C29 1_555 1_555
O2 Cu1 1_555 1_555
O3 C9 1_555 1_555
O4 C9 1_555 1_555
O5 H31 1_555 1_555
O6 H33 1_555 1_555
O7 H34 1_555 1_555
O8 H36 1_555 1_555
H32 O5 1_555 1_555
H35 O6 1_555 1_555
H37 O8 1_555 1_555
Cu1C N1C 1_555 1_555
Cu1C_2 N3C 1_555 1_555
Cu2C O4 1_555 1_555
C1C H1C 1_555 1_555
C2C C1C 1_555 1_555
H2C C2C 1_555 1_555
C3C C2C 1_555 1_555
H3C C3C 1_555 1_555
C4C C3C 1_555 1_555
H4C C4C 1_555 1_555
C5C C4C 1_555 1_555
C6C C5C 1_555 1_555
C7C C6C 1_555 1_555
H5C C7C 1_555 1_555
C8C C7C 1_555 1_555
H6C C8C 1_555 1_555
C9C C10C 1_555 1_555
C10C C11C 1_555 1_555
C11C H7C 1_555 1_555
C12C C11C 1_555 1_555
H8C C12C 1_555 1_555
C13C C12C 1_555 1_555
H9C C13C 1_555 1_555
C14C C13C 1_555 1_555
H10C C14C 1_555 1_555
C15C C10C 1_555 1_555
C16C C15C 1_555 1_555
C17C C16C 1_555 1_555
H11C C17C 1_555 1_555
C18C C17C 1_555 1_555
H12C C18C 1_555 1_555
C19C C18C 1_555 1_555
C20C C19C 1_555 1_555
H13C C20C 1_555 1_555
C21C C16C 1_555 1_555
H14C C21C 1_555 1_555
C22C C19C 1_555 1_555
H15C C22C 1_555 1_555
H16C C22C 1_555 1_555
C23C H17C 1_555 1_555
C24C C25C 1_555 1_555
C25C H18C 1_555 1_555
H19C C25C 1_555 1_555
C26C C25C 1_555 1_555
H20C C26C 1_555 1_555
H21C C26C 1_555 1_555
C27C C26C 1_555 1_555
H22C C27C 1_555 1_555
H23C C27C 1_555 1_555
H24C C27C 1_555 1_555
C28C C23C 1_555 1_555
C29C C28C 1_555 1_555
C30C H25C 1_555 1_555
C31C C30C 1_555 1_555
H26C C31C 1_555 1_555
C32C C31C 1_555 1_555
H27C C32C 1_555 1_555
C33C C32C 1_555 1_555
H28C C33C 1_555 1_555
C34C C33C 1_555 1_555
C35C C34C 1_555 1_555
C36C C35C 1_555 1_555
H29C C36C 1_555 1_555
C37C C36C 1_555 1_555
H30C C37C 1_555 1_555
N1C C24C 1_555 1_555
N2C C22C 1_555 1_555
N3C C30C 1_555 1_555
N3C_2 Cu1C 1_555 1_555
N4C Cu1C_2 1_555 1_555
N4C_2 Cu1C 1_555 1_555
N5C Cu2C 1_555 1_555
N6C Cu2C 1_555 1_555
N7C Cu2C 1_555 1_555
N8C Cu1C_2 1_555 1_555
N8C_2 Cu1C 1_555 1_555
O1C C29C 1_555 1_555
O2C Cu1C 1_555 1_555
O3C C9C 1_555 1_555
O4C Cu2 1_555 1_555
H34A O7 1_555 1_555
C1 N6 1_555 1_555
C5 N6 1_555 1_555
C6 N7 1_555 1_555
C8 N8 1_555 1_555
C14 C15 1_555 1_555
C20 C21 1_555 1_555
C23 N2 1_555 1_555
C24 N2 1_555 1_555
C28 N1 1_555 1_555
C29 O2 1_555 1_555
C30 N3 1_555 1_555
C34 N3 1_555 1_555
C35 N4 1_555 1_555
N4 N5 1_555 1_555
N7 N8 1_555 1_555
C1C N6C 1_555 1_555
C5C N6C 1_555 1_555
C6C N7C 1_555 1_555
C8C N8C 1_555 1_555
C9C O4C 1_555 1_555
C14C C15C 1_555 1_555
C20C C21C 1_555 1_555
C23C N2C 1_555 1_555
C24C N2C 1_555 1_555
C28C N1C 1_555 1_555
C29C O2C 1_555 1_555
C34C N3C 1_555 1_555
C35C N4C 1_555 1_555
C37C N5C 1_555 1_555
N4C N5C 1_555 1_555
N7C N8C 1_555 1_555

#END
