
#######################################################################
#
#                 Cambridge Crystallographic Data Centre
#                                CCDC 
#
#######################################################################
#
# If this CIF has been generated from an entry in the Cambridge 
# Structural Database, then it will include bibliographic, chemical, 
# crystal, experimental, refinement or atomic coordinate data resulting 
# from the CCDC's data processing and validation procedures.
#
#######################################################################

data_UQEFAY
_symmetry_cell_setting           monoclinic
_symmetry_space_group_name_H-M   'C 2/c'
_symmetry_Int_Tables_number      15
_space_group_name_Hall           '-C 2yn'
loop_
_symmetry_equiv_pos_site_id
_symmetry_equiv_pos_as_xyz
1 x,y,z
2 -x,y,1/2-z
3 1/2+x,1/2+y,z
4 1/2-x,1/2+y,1/2-z
5 -x,-y,-z
6 x,-y,1/2+z
7 1/2-x,1/2-y,-z
8 1/2+x,1/2-y,1/2+z
_cell_length_a                   25.7099(5)
_cell_length_b                   10.3872(2)
_cell_length_c                   19.1820(4)
_cell_angle_alpha                90
_cell_angle_beta                 131.1140(10)
_cell_angle_gamma                90
_cell_volume                     3859.4
loop_
_atom_site_label
_atom_site_type_symbol
_atom_site_fract_x
_atom_site_fract_y
_atom_site_fract_z
Cd1 Cd 0.458662(7) 0.305555(13) 0.622927(9)
S1 S 0.72314(3) 0.41960(7) 0.86455(4)
O1 O 0.54228(9) 0.46885(16) 0.67251(12)
O2 O 0.56825(9) 0.33927(16) 0.78067(11)
O3 O 0.59994(8) 0.64946(15) 0.53615(10)
O4 O 0.62206(8) 0.53062(16) 0.46415(10)
N1 N 0.52150(9) 0.14099(17) 0.62064(11)
N2 N 0.41598(9) 0.10609(18) 0.61996(12)
C1 C 0.66870(9) 0.46223(18) 0.61315(12)
C2 C 0.70165(11) 0.3583(2) 0.61189(15)
H1 H 0.6981 0.3439 0.5610
C3 C 0.74000(12) 0.2758(3) 0.68704(18)
H2 H 0.7625 0.2061 0.6866
C4 C 0.74525(11) 0.2960(2) 0.76230(17)
H3 H 0.7714 0.2401 0.8125
C5 C 0.71160(9) 0.3995(2) 0.76376(13)
C6 C 0.67303(9) 0.48171(18) 0.68806(12)
H4 H 0.6499 0.5507 0.6878
C7 C 0.62750(10) 0.55396(19) 0.53259(13)
C8 C 0.64790(12) 0.5084(2) 0.82502(15)
H5 H 0.6461 0.5889 0.7979
H6 H 0.6519 0.5289 0.8777
C9 C 0.58115(11) 0.43503(19) 0.75410(15)
C10 C 0.36533(14) 0.0901(3) 0.62085(19)
H7 H 0.3444 0.1628 0.6212
C11 C 0.3423(2) -0.0296(4) 0.6213(3)
H8 H 0.3068 -0.0370 0.6225
C12 C 0.3719(2) -0.1361(4) 0.6200(2)
H9 H 0.3564 -0.2171 0.6198
C13 C 0.42584(16) -0.1249(3) 0.61902(18)
C14 C 0.4602(2) -0.2321(3) 0.6175(2)
H10 H 0.4466 -0.3153 0.6174
C15 C 0.5104(2) -0.2159(3) 0.6164(2)
H11 H 0.5313 -0.2879 0.6151
C16 C 0.53396(13) -0.0894(2) 0.61719(16)
C17 C 0.58658(14) -0.0681(3) 0.61525(19)
H12 H 0.6083 -0.1372 0.6129
C18 C 0.60572(14) 0.0542(3) 0.6169(2)
H13 H 0.6409 0.0697 0.6159
C19 C 0.57210(13) 0.1569(3) 0.61997(17)
H14 H 0.5861 0.2403 0.6216
C20 C 0.50223(11) 0.0186(2) 0.61964(13)
C21 C 0.44660(12) 0.0009(2) 0.61947(13)
Cd1A Cd 0.541338(7) 0.305555(13) 0.877073(9)
Cd1D Cd 0.541338(7) 0.694445(13) 0.377073(9)
O2A O 0.43175(9) 0.33927(16) 0.71933(11)
O3D O 0.40006(8) 0.35054(15) 0.46385(10)
O4D O 0.37794(8) 0.46938(16) 0.53585(10)
loop_
_geom_bond_atom_site_label_1
_geom_bond_atom_site_label_2
_geom_bond_site_symmetry_1
_geom_bond_site_symmetry_2
Cd1 O1 1_555 1_555
S1 C5 1_555 1_555
O1 C9 1_555 1_555
O2 Cd1 1_555 1_555
O3 C7 1_555 1_555
O4 C7 1_555 1_555
N1 Cd1 1_555 1_555
N2 Cd1 1_555 1_555
C1 C2 1_555 1_555
C2 H1 1_555 1_555
C3 C2 1_555 1_555
H2 C3 1_555 1_555
C4 C3 1_555 1_555
H3 C4 1_555 1_555
C5 C4 1_555 1_555
C6 C1 1_555 1_555
H4 C6 1_555 1_555
C7 C1 1_555 1_555
C8 S1 1_555 1_555
H5 C8 1_555 1_555
H6 C8 1_555 1_555
C9 O2 1_555 1_555
C10 N2 1_555 1_555
H7 C10 1_555 1_555
C11 C10 1_555 1_555
H8 C11 1_555 1_555
C12 C11 1_555 1_555
H9 C12 1_555 1_555
C13 C12 1_555 1_555
C14 C13 1_555 1_555
H10 C14 1_555 1_555
C15 C14 1_555 1_555
H11 C15 1_555 1_555
C16 C15 1_555 1_555
C17 C16 1_555 1_555
H12 C17 1_555 1_555
C18 C17 1_555 1_555
H13 C18 1_555 1_555
C19 N1 1_555 1_555
H14 C19 1_555 1_555
C20 N1 1_555 1_555
C21 N2 1_555 1_555
Cd1A O2 1_555 1_555
Cd1D O3 1_555 1_555
O2A Cd1 1_555 1_555
O3D Cd1 1_555 1_555
O4D Cd1 1_555 1_555
O4 Cd1D 1_555 1_555
C5 C6 1_555 1_555
C8 C9 1_555 1_555
C13 C21 1_555 1_555
C16 C20 1_555 1_555
C18 C19 1_555 1_555
C20 C21 1_555 1_555
Cd1A O2A 1_555 1_555

#END
