
#######################################################################
#
#                 Cambridge Crystallographic Data Centre
#                                CCDC 
#
#######################################################################
#
# If this CIF has been generated from an entry in the Cambridge 
# Structural Database, then it will include bibliographic, chemical, 
# crystal, experimental, refinement or atomic coordinate data resulting 
# from the CCDC's data processing and validation procedures.
#
#######################################################################

data_UQENUA
_symmetry_cell_setting           triclinic
_symmetry_space_group_name_H-M   'P -1'
_symmetry_Int_Tables_number      2
_space_group_name_Hall           '-P 1'
loop_
_symmetry_equiv_pos_site_id
_symmetry_equiv_pos_as_xyz
1 x,y,z
2 -x,-y,-z
_cell_length_a                   12.107(4)
_cell_length_b                   12.232(4)
_cell_length_c                   13.273(4)
_cell_angle_alpha                68.005(7)
_cell_angle_beta                 88.024(11)
_cell_angle_gamma                77.451(8)
_cell_volume                     1776.64
loop_
_atom_site_label
_atom_site_type_symbol
_atom_site_fract_x
_atom_site_fract_y
_atom_site_fract_z
Er1 Er 0.10250(2) 0.30736(3) 0.40808(3)
C1 C 0.1825(6) 0.2253(6) 0.6241(7)
C2 C 0.2219(6) 0.1703(7) 0.7409(7)
C3 C 0.1869(7) 0.2326(8) 0.8099(7)
H1 H 0.1347 0.3061 0.7827
C4 C 0.2258(8) 0.1901(9) 0.9143(8)
H2 H 0.2009 0.2338 0.9581
C5 C 0.3031(8) 0.0806(9) 0.9555(8)
H3 H 0.3317 0.0509 1.0272
C6 C 0.3382(7) 0.0148(8) 0.8900(7)
H4 H 0.3895 -0.0592 0.9189
C7 C 0.2981(6) 0.0577(7) 0.7825(6)
C8 C 0.3336(6) -0.0186(7) 0.7171(6)
C9 C 0.4493(6) -0.0497(7) 0.6948(6)
C10 C 0.5385(7) -0.0069(8) 0.7283(7)
H5 H 0.5210 0.0475 0.7632
C11 C 0.6476(7) -0.0463(9) 0.7088(8)
H6 H 0.7036 -0.0166 0.7297
C12 C 0.6805(6) -0.1316(8) 0.6572(7)
C13 C 0.5936(6) -0.1696(7) 0.6203(7)
H7 H 0.6111 -0.2235 0.5850
C14 C 0.4813(6) -0.1260(7) 0.6370(7)
C15 C 0.2899(6) -0.1376(7) 0.6179(7)
C16 C 0.2174(6) -0.1827(7) 0.5743(7)
H8 H 0.2446 -0.2267 0.5312
C17 C 0.1022(6) -0.1615(8) 0.5955(7)
C18 C 0.0639(6) -0.0906(8) 0.6604(8)
H9 H -0.0125 -0.0755 0.6747
C19 C 0.1360(6) -0.0453(7) 0.7012(7)
H10 H 0.1085 0.0002 0.7429
C20 C 0.2543(6) -0.0666(6) 0.6810(7)
C21 C 0.2308(6) 0.5173(7) 0.2659(7)
C22 C 0.1923(6) 0.6521(7) 0.2340(6)
C23 C 0.1553(7) 0.7020(8) 0.3117(7)
H11 H 0.1541 0.6508 0.3839
C24 C 0.1206(8) 0.8255(9) 0.2839(8)
H12 H 0.0977 0.8572 0.3369
C25 C 0.1204(8) 0.9006(9) 0.1770(9)
H13 H 0.0960 0.9837 0.1575
C26 C 0.1558(7) 0.8550(8) 0.0977(8)
H14 H 0.1538 0.9076 0.0255
C27 C 0.1953(6) 0.7283(7) 0.1252(7)
C28 C 0.2353(6) 0.6889(7) 0.0349(7)
C29 C 0.1614(7) 0.6654(8) -0.0279(7)
C30 C 0.0430(7) 0.6717(9) -0.0084(7)
H15 H 0.0138 0.6895 0.0508
C31 C -0.0265(7) 0.6521(10) -0.0742(8)
H16 H -0.1030 0.6585 -0.0604
C32 C 0.0152(7) 0.6219(8) -0.1648(7)
C33 C 0.1336(6) 0.6040(8) -0.1798(7)
H17 H 0.1645 0.5752 -0.2326
C34 C 0.2015(6) 0.6297(8) -0.1155(7)
C35 C 0.3863(6) 0.6480(7) -0.0807(6)
C36 C 0.4963(6) 0.6368(7) -0.1144(7)
H18 H 0.5167 0.6156 -0.1739
C37 C 0.5747(7) 0.6591(7) -0.0544(7)
C38 C 0.5426(7) 0.6922(8) 0.0337(8)
H19 H 0.5965 0.7063 0.0729
C39 C 0.4347(7) 0.7040(8) 0.0627(7)
H20 H 0.4147 0.7282 0.1206
C40 C 0.3510(6) 0.6805(7) 0.0073(6)
O1 O 0.0903(5) 0.3018(5) 0.5930(5)
O2 O 0.2441(5) 0.1990(6) 0.5539(5)
O3 O 0.0326(4) -0.2078(5) 0.5604(5)
O4 O 0.4021(4) -0.1675(5) 0.5984(5)
O5 O 0.7845(4) -0.1712(6) 0.6473(6)
O6 O 0.2023(5) 0.4514(6) 0.3600(5)
O7 O 0.2884(5) 0.4775(5) 0.2043(5)
O8 O -0.0536(5) 0.6102(6) -0.2280(5)
O9 O 0.3124(4) 0.6200(5) -0.1394(5)
O10 O 0.6851(4) 0.6506(6) -0.0793(6)
H28 H 0.6999 0.6116 -0.1184
O11 O -0.0479(5) 0.4698(5) 0.4023(5)
H29 H -0.0537 0.5328 0.4168
H30 H -0.1029 0.4357 0.4254
Er1A Er -0.10250(2) -0.30736(3) 0.59192(3)
Er1A_2 Er 0.89750(2) -0.30736(3) 0.59192(3)
Er1A_3 Er -0.10250(2) 0.69264(3) -0.40808(3)
O3A O -0.0326(4) 0.2078(5) 0.4396(5)
O5A O 0.2155(4) 0.1712(6) 0.3527(6)
O8A O 0.0536(5) 0.3898(6) 0.2280(5)
C41 C 0.5321(14) 0.3168(12) 0.6178(13)
H21 H 0.4958 0.2731 0.5872
H22 H 0.5601 0.2658 0.6908
H23 H 0.5940 0.3415 0.5746
C42 C 0.3420(10) 0.4424(12) 0.5891(13)
H24 H 0.3202 0.3898 0.5620
C43 C 0.4857(11) 0.5047(13) 0.6590(12)
H25 H 0.4223 0.5699 0.6528
H26 H 0.5457 0.5364 0.6169
H27 H 0.5118 0.4629 0.7339
O12 O 0.2697(7) 0.5251(10) 0.5951(10)
N1 N 0.4515(8) 0.4221(9) 0.6189(9)
loop_
_geom_bond_atom_site_label_1
_geom_bond_atom_site_label_2
_geom_bond_site_symmetry_1
_geom_bond_site_symmetry_2
Er1 O1 1_555 1_555
C1 C2 1_555 1_555
C2 C3 1_555 1_555
C3 H1 1_555 1_555
C4 C3 1_555 1_555
H2 C4 1_555 1_555
C5 C4 1_555 1_555
H3 C5 1_555 1_555
C6 C5 1_555 1_555
H4 C6 1_555 1_555
C7 C2 1_555 1_555
C8 C7 1_555 1_555
C9 C8 1_555 1_555
C10 C9 1_555 1_555
H5 C10 1_555 1_555
C11 C10 1_555 1_555
H6 C11 1_555 1_555
C12 C11 1_555 1_555
C13 C12 1_555 1_555
H7 C13 1_555 1_555
C14 C9 1_555 1_555
C15 C16 1_555 1_555
C16 H8 1_555 1_555
C17 C16 1_555 1_555
C18 C17 1_555 1_555
H9 C18 1_555 1_555
C19 C18 1_555 1_555
H10 C19 1_555 1_555
C20 C8 1_555 1_555
C21 C22 1_555 1_555
C22 C23 1_555 1_555
C23 H11 1_555 1_555
C24 C23 1_555 1_555
H12 C24 1_555 1_555
C25 C24 1_555 1_555
H13 C25 1_555 1_555
C26 C25 1_555 1_555
H14 C26 1_555 1_555
C27 C22 1_555 1_555
C28 C27 1_555 1_555
C29 C28 1_555 1_555
C30 C29 1_555 1_555
H15 C30 1_555 1_555
C31 C30 1_555 1_555
H16 C31 1_555 1_555
C32 C31 1_555 1_555
C33 C32 1_555 1_555
H17 C33 1_555 1_555
C34 C29 1_555 1_555
C35 C36 1_555 1_555
C36 H18 1_555 1_555
C37 C36 1_555 1_555
C38 C37 1_555 1_555
H19 C38 1_555 1_555
C39 C38 1_555 1_555
H20 C39 1_555 1_555
C40 C28 1_555 1_555
C41 H21 1_555 1_555
H22 C41 1_555 1_555
H23 C41 1_555 1_555
C42 H24 1_555 1_555
C43 H25 1_555 1_555
H26 C43 1_555 1_555
H27 C43 1_555 1_555
O1 C1 1_555 1_555
O2 Er1 1_555 1_555
O3 C17 1_555 1_555
O4 C14 1_555 1_555
O5 C12 1_555 1_555
O6 Er1 1_555 1_555
O7 C21 1_555 1_555
O8 C32 1_555 1_555
O9 C34 1_555 1_555
O10 C37 1_555 1_555
H28 O10 1_555 1_555
O11 Er1 1_555 1_555
H29 O11 1_555 1_555
H30 O11 1_555 1_555
O12 C42 1_555 1_555
N1 C41 1_555 1_555
Er1A O3 1_555 1_555
Er1A_2 O5 1_555 1_555
Er1A_3 O8 1_555 1_555
O3A Er1 1_555 1_555
O5A Er1 1_555 1_555
O8A Er1 1_555 1_555
C1 O2 1_555 1_555
C6 C7 1_555 1_555
C13 C14 1_555 1_555
C15 C20 1_555 1_555
C15 O4 1_555 1_555
C19 C20 1_555 1_555
C21 O6 1_555 1_555
C26 C27 1_555 1_555
C33 C34 1_555 1_555
C35 C40 1_555 1_555
C35 O9 1_555 1_555
C39 C40 1_555 1_555
C42 N1 1_555 1_555
C43 N1 1_555 1_555

#END
