
#######################################################################
#
#                 Cambridge Crystallographic Data Centre
#                                CCDC 
#
#######################################################################
#
# If this CIF has been generated from an entry in the Cambridge 
# Structural Database, then it will include bibliographic, chemical, 
# crystal, experimental, refinement or atomic coordinate data resulting 
# from the CCDC's data processing and validation procedures.
#
#######################################################################

data_UQEPOW
_symmetry_cell_setting           triclinic
_symmetry_space_group_name_H-M   'P -1'
_symmetry_Int_Tables_number      2
_space_group_name_Hall           '-P 1'
loop_
_symmetry_equiv_pos_site_id
_symmetry_equiv_pos_as_xyz
1 x,y,z
2 -x,-y,-z
_cell_length_a                   10.063(4)
_cell_length_b                   11.554(5)
_cell_length_c                   11.554(5)
_cell_angle_alpha                88.89
_cell_angle_beta                 74.839(4)
_cell_angle_gamma                74.839(4)
_cell_volume                     1249.74
loop_
_atom_site_label
_atom_site_type_symbol
_atom_site_fract_x
_atom_site_fract_y
_atom_site_fract_z
Mo1 Mo 0.60129(4) 0.31271(3) 0.31770(4)
Mo2 Mo 0.19749(4) 0.54794(3) 0.56580(4)
Mo3 Mo 0.49162(4) 0.38139(3) 0.60145(3)
Mo4 Mo 0.30138(4) 0.48174(3) 0.27498(4)
Mn1 Mn 0.13413(6) 0.22543(5) 0.26047(5)
C1 C 0.2116(6) 0.2795(4) 0.0052(4)
C2 C 0.1861(5) 0.0260(4) 0.4152(4)
C3 C 0.3481(6) 0.2182(4) 0.0245(4)
C4 C 0.1219(5) -0.0213(4) 0.3342(4)
C5 C 0.4627(6) 0.1031(5) 0.1522(5)
H1 H 0.4587 0.0645 0.2240
C6 C 0.0150(6) 0.0207(5) 0.1798(5)
H2 H -0.0160 0.0745 0.1254
C7 C 0.1034(6) -0.1365(4) 0.3385(5)
H3 H 0.1357 -0.1892 0.3932
C8 C 0.2938(6) 0.0629(5) 0.5463(5)
H4 H 0.3418 0.0560 0.6058
C9 C 0.0375(6) -0.1716(5) 0.2615(6)
H5 H 0.0232 -0.2480 0.2638
C10 C 0.2557(6) -0.0273(5) 0.4992(5)
H6 H 0.2729 -0.1072 0.5192
C11 C -0.0083(6) -0.0916(5) 0.1795(6)
H7 H -0.0534 -0.1133 0.1260
C12 C 0.4777(7) 0.2143(6) -0.0594(6)
H8 H 0.4804 0.2531 -0.1309
C13 C 0.0225(6) 0.3698(5) -0.0550(5)
H9 H -0.0386 0.4081 -0.1004
C14 C 0.1682(7) 0.3336(5) -0.0934(5)
H10 H 0.2259 0.3429 -0.1683
C15 C 0.5938(6) 0.0935(6) 0.0723(6)
H11 H 0.6766 0.0482 0.0899
C16 C 0.6018(7) 0.1507(7) -0.0325(6)
H12 H 0.6902 0.1469 -0.0856
N1 N 0.2497(5) 0.1619(4) 0.4917(4)
H13 H 0.2616 0.2305 0.5070
N2 N 0.1841(4) 0.1420(3) 0.4095(4)
N3 N 0.0792(4) 0.0556(3) 0.2536(4)
N4 N -0.0170(5) 0.3409(4) 0.0587(4)
H14 H -0.1043 0.3559 0.1011
N5 N 0.0964(4) 0.2853(4) 0.0991(4)
N6 N 0.3413(4) 0.1657(4) 0.1302(4)
O1 O 0.2250(4) 0.3630(3) 0.3019(3)
O2 O 0.0621(4) 0.6631(3) 0.6485(3)
O3 O 0.2527(4) 0.5457(4) 0.1552(3)
O4 O 0.4936(3) 0.3933(3) 0.2138(3)
O5 O 0.4163(3) 0.4477(3) 0.4502(3)
O6 O 0.6743(3) 0.4870(3) 0.3243(3)
O7 O 0.1382(4) 0.4230(3) 0.5924(3)
O8 O 0.1784(3) 0.5830(3) 0.4105(3)
O9 O 0.5801(4) 0.3793(3) 0.7138(3)
O10 O 0.4198(4) 0.2632(3) 0.6275(3)
O11 O 0.7629(4) 0.2542(3) 0.2170(3)
O12 O 0.5305(4) 0.1953(3) 0.3560(3)
O13 O 0.6607(3) 0.3192(3) 0.4703(3)
Mo1A Mo 0.39871(4) 0.68729(3) 0.68230(4)
Mo2A Mo 0.80251(4) 0.45206(3) 0.43420(4)
Mo3A Mo 0.50838(4) 0.61861(3) 0.39855(3)
Mo4A Mo 0.69862(4) 0.51826(3) 0.72502(4)
Mn1A Mn -0.13413(6) 0.77457(5) 0.73953(5)
Mn1_2 Mn 1.13413(6) 0.22543(5) 0.26047(5)
Mn1A_2 Mn 0.86587(6) 0.77457(5) 0.73953(5)
C1A C -0.2116(6) 0.7205(4) 0.9948(4)
C2A C -0.1861(5) 0.9740(4) 0.5848(4)
C3A C -0.3481(6) 0.7818(4) 0.9755(4)
C4A C -0.1219(5) 1.0213(4) 0.6658(4)
C5A C -0.4627(6) 0.8969(5) 0.8478(5)
H1A H -0.4587 0.9355 0.7760
C6A C -0.0150(6) 0.9793(5) 0.8202(5)
H2A H 0.0160 0.9255 0.8746
C7A C -0.1034(6) 1.1365(4) 0.6615(5)
H3A H -0.1357 1.1892 0.6068
C8A C -0.2938(6) 0.9371(5) 0.4537(5)
H4A H -0.3418 0.9440 0.3942
C9A C -0.0375(6) 1.1716(5) 0.7385(6)
H5A H -0.0232 1.2480 0.7362
C10A C -0.2557(6) 1.0273(5) 0.5008(5)
H6A H -0.2729 1.1072 0.4808
C11A C 0.0083(6) 1.0916(5) 0.8205(6)
H7A H 0.0534 1.1133 0.8740
C12A C -0.4777(7) 0.7857(6) 1.0594(6)
H8A H -0.4804 0.7469 1.1309
C13A C -0.0225(6) 0.6302(5) 1.0550(5)
H9A H 0.0386 0.5919 1.1004
C14A C -0.1682(7) 0.6664(5) 1.0934(5)
H10A H -0.2259 0.6571 1.1683
C15A C -0.5938(6) 0.9065(6) 0.9277(6)
H11A H -0.6766 0.9518 0.9101
C16A C -0.6018(7) 0.8493(7) 1.0325(6)
H12A H -0.6902 0.8531 1.0856
N1A N -0.2497(5) 0.8381(4) 0.5083(4)
H13A H -0.2616 0.7695 0.4930
N2A N -0.1841(4) 0.8580(3) 0.5905(4)
N3A N -0.0792(4) 0.9444(3) 0.7464(4)
N4A N 0.0170(5) 0.6591(4) 0.9413(4)
H14A H 0.1043 0.6441 0.8989
N5A N -0.0964(4) 0.7147(4) 0.9009(4)
N6A N -0.3413(4) 0.8343(4) 0.8698(4)
O1A O 0.7750(4) 0.6370(3) 0.6981(3)
O1A_2 O -0.2250(4) 0.6370(3) 0.6981(3)
O2A O 0.9379(4) 0.3369(3) 0.3515(3)
O2A_2 O -0.0621(4) 0.3369(3) 0.3515(3)
O3A O 0.7473(4) 0.4543(4) 0.8448(3)
O4A O 0.5064(3) 0.6067(3) 0.7862(3)
O5A O 0.5837(3) 0.5523(3) 0.5498(3)
O6A O 0.3257(3) 0.5130(3) 0.6757(3)
O7A O 0.8618(4) 0.5770(3) 0.4076(3)
O8A O 0.8216(3) 0.4170(3) 0.5895(3)
O9A O 0.4199(4) 0.6207(3) 0.2862(3)
O10A O 0.5802(4) 0.7368(3) 0.3725(3)
O11A O 0.2371(4) 0.7458(3) 0.7830(3)
O12A O 0.4695(4) 0.8047(3) 0.6440(3)
O13A O 0.3393(3) 0.6808(3) 0.5297(3)
loop_
_geom_bond_atom_site_label_1
_geom_bond_atom_site_label_2
_geom_bond_site_symmetry_1
_geom_bond_site_symmetry_2
Mo1 O4 1_555 1_555
Mo2 O2 1_555 1_555
Mo3 O5 1_555 1_555
Mo4 O1 1_555 1_555
Mn1 N2 1_555 1_555
C1 C3 1_555 1_555
C2 C4 1_555 1_555
C3 C12 1_555 1_555
C4 C7 1_555 1_555
C5 H1 1_555 1_555
C6 H2 1_555 1_555
C7 H3 1_555 1_555
C8 H4 1_555 1_555
C9 C7 1_555 1_555
H5 C9 1_555 1_555
C10 C2 1_555 1_555
H6 C10 1_555 1_555
C11 C6 1_555 1_555
H7 C11 1_555 1_555
C12 H8 1_555 1_555
C13 H9 1_555 1_555
C14 C1 1_555 1_555
H10 C14 1_555 1_555
C15 C5 1_555 1_555
H11 C15 1_555 1_555
C16 C12 1_555 1_555
H12 C16 1_555 1_555
N1 C8 1_555 1_555
H13 N1 1_555 1_555
N2 C2 1_555 1_555
N3 Mn1 1_555 1_555
N4 C13 1_555 1_555
H14 N4 1_555 1_555
N5 Mn1 1_555 1_555
N6 Mn1 1_555 1_555
O1 Mn1 1_555 1_555
O2 Mn1A 1_555 1_555
O3 Mo4 1_555 1_555
O4 Mo4 1_555 1_555
O5 Mo1 1_555 1_555
O6 Mo1 1_555 1_555
O7 Mo2 1_555 1_555
O8 Mo2 1_555 1_555
O9 Mo3 1_555 1_555
O10 Mo3 1_555 1_555
O11 Mo1 1_555 1_555
O12 Mo1 1_555 1_555
O13 Mo1 1_555 1_555
Mo1A O4A 1_555 1_555
Mo2A O6 1_555 1_555
Mo3A O5 1_555 1_555
Mo4A O9 1_555 1_555
Mn1A N2A 1_555 1_555
Mn1_2 O2A 1_555 1_555
Mn1A_2 O1A 1_555 1_555
C1A C3A 1_555 1_555
C2A C4A 1_555 1_555
C3A C12A 1_555 1_555
C4A C7A 1_555 1_555
C5A H1A 1_555 1_555
C6A H2A 1_555 1_555
C7A H3A 1_555 1_555
C8A H4A 1_555 1_555
C9A C7A 1_555 1_555
H5A C9A 1_555 1_555
C10A C2A 1_555 1_555
H6A C10A 1_555 1_555
C11A C6A 1_555 1_555
H7A C11A 1_555 1_555
C12A H8A 1_555 1_555
C13A H9A 1_555 1_555
C14A C1A 1_555 1_555
H10A C14A 1_555 1_555
C15A C5A 1_555 1_555
H11A C15A 1_555 1_555
C16A C12A 1_555 1_555
H12A C16A 1_555 1_555
N1A C8A 1_555 1_555
H13A N1A 1_555 1_555
N2A C2A 1_555 1_555
N3A Mn1A 1_555 1_555
N4A C13A 1_555 1_555
H14A N4A 1_555 1_555
N5A Mn1A 1_555 1_555
N6A Mn1A 1_555 1_555
O1A Mo4A 1_555 1_555
O1A_2 Mn1A 1_555 1_555
O2A Mo2A 1_555 1_555
O2A_2 Mn1 1_555 1_555
O3A Mo4A 1_555 1_555
O4A Mo4A 1_555 1_555
O5A Mo3 1_555 1_555
O6A Mo2 1_555 1_555
O7A Mo2A 1_555 1_555
O8A Mo2A 1_555 1_555
O9A Mo4 1_555 1_555
O10A Mo3A 1_555 1_555
O11A Mo1A 1_555 1_555
O12A Mo1A 1_555 1_555
O13A Mo2 1_555 1_555
Mo2 O5 1_555 1_555
Mo3 O13 1_555 1_555
Mo3 O6A 1_555 1_555
Mo4 O5 1_555 1_555
Mo4 O8 1_555 1_555
C1 N5 1_555 1_555
C3 N6 1_555 1_555
C4 N3 1_555 1_555
C5 N6 1_555 1_555
C6 N3 1_555 1_555
C8 C10 1_555 1_555
C9 C11 1_555 1_555
C13 C14 1_555 1_555
C15 C16 1_555 1_555
N1 N2 1_555 1_555
N4 N5 1_555 1_555
O6 Mo3A 1_555 1_555
O13 Mo2A 1_555 1_555
Mo1A O5A 1_555 1_555
Mo1A O6A 1_555 1_555
Mo1A O13A 1_555 1_555
Mo2A O5A 1_555 1_555
Mo3A O5A 1_555 1_555
Mo3A O9A 1_555 1_555
Mo3A O13A 1_555 1_555
Mo4A O5A 1_555 1_555
Mo4A O8A 1_555 1_555
C1A N5A 1_555 1_555
C3A N6A 1_555 1_555
C4A N3A 1_555 1_555
C5A N6A 1_555 1_555
C6A N3A 1_555 1_555
C8A C10A 1_555 1_555
C9A C11A 1_555 1_555
C13A C14A 1_555 1_555
C15A C16A 1_555 1_555
N1A N2A 1_555 1_555
N4A N5A 1_555 1_555

#END
