
#######################################################################
#
#                 Cambridge Crystallographic Data Centre
#                                CCDC 
#
#######################################################################
#
# If this CIF has been generated from an entry in the Cambridge 
# Structural Database, then it will include bibliographic, chemical, 
# crystal, experimental, refinement or atomic coordinate data resulting 
# from the CCDC's data processing and validation procedures.
#
#######################################################################

data_UQEQAJ
_symmetry_cell_setting           triclinic
_symmetry_space_group_name_H-M   'P -1'
_symmetry_Int_Tables_number      2
_space_group_name_Hall           '-P 1'
loop_
_symmetry_equiv_pos_site_id
_symmetry_equiv_pos_as_xyz
1 x,y,z
2 -x,-y,-z
_cell_length_a                   10.375(3)
_cell_length_b                   12.076(3)
_cell_length_c                   13.196(4)
_cell_angle_alpha                84.170(4)
_cell_angle_beta                 71.961(3)
_cell_angle_gamma                86.326(4)
_cell_volume                     1562.98
loop_
_atom_site_label
_atom_site_type_symbol
_atom_site_fract_x
_atom_site_fract_y
_atom_site_fract_z
P1 P 0.0000 0.0000 1.0000
Ag1 Ag -0.22039(10) -0.50941(9) 1.35489(8)
Ag2 Ag -0.5000 -0.5000 1.5000
Mo1 Mo 0.32942(8) 0.08443(8) 0.84392(8)
Mo2 Mo 0.08824(11) 0.02360(8) 0.71605(8)
Mo3 Mo -0.22761(9) -0.08869(9) 0.87363(9)
Mo4 Mo -0.04020(10) -0.26632(9) 1.14215(8)
Mo5 Mo 0.29025(9) -0.16820(10) 1.00916(9)
Mo6 Mo 0.08123(10) -0.24308(9) 0.85891(9)
C1 C -0.1499(13) -0.3252(16) 1.5039(13)
H1 H -0.1425 -0.2708 1.4474
C2 C -0.1397(12) -0.2992(14) 1.5914(13)
H2 H -0.1247 -0.2263 1.6008
C3 C -0.1522(14) -0.3852(16) 1.674(2)
H3 H -0.1460 -0.3621 1.7377
C4 C -0.172(3) -0.499(3) 1.678(2)
H4 H -0.1796 -0.5511 1.7357
C5 C -0.1793(15) -0.5180(19) 1.5781(15)
C6 C -0.1950(13) -0.6415(10) 1.5753(11)
C7 C -0.2050(19) -0.7356(11) 1.6380(9)
H5 H -0.2046 -0.7426 1.7087
C8 C -0.2156(15) -0.8179(10) 1.5821(13)
H6 H -0.2294 -0.8930 1.6043
C9 C -0.5380(12) -0.7473(10) 1.5164(10)
H7 H -0.5534 -0.7358 1.5879
C10 C -0.5521(12) -0.8526(9) 1.4919(10)
H8 H -0.5712 -0.9125 1.5439
C11 C -0.5362(12) -0.8649(11) 1.3847(13)
H9 H -0.5485 -0.9335 1.3633
C12 C -0.5018(11) -0.7734(10) 1.3103(10)
H10 H -0.4885 -0.7803 1.2382
C13 C -0.4881(9) -0.6759(9) 1.3433(9)
C14 C -0.4567(10) -0.5767(8) 1.2625(9)
C15 C -0.5011(15) -0.5551(13) 1.1763(14)
H11 H -0.5544 -0.5992 1.1527
C16 C -0.4483(15) -0.4507(12) 1.1300(12)
H12 H -0.4576 -0.4113 1.0682
N1 N -0.1719(12) -0.4341(14) 1.4918(12)
N2 N -0.2008(13) -0.7633(16) 1.4832(11)
H13 H -0.1937 -0.7973 1.4275
N3 N -0.1983(12) -0.6509(14) 1.4809(13)
N4 N -0.3839(9) -0.4940(8) 1.2743(8)
N5 N -0.3831(11) -0.4210(8) 1.1932(10)
H14 H -0.3430 -0.3588 1.1824
N6 N -0.5037(9) -0.6603(8) 1.4442(7)
O1 O -0.0566(9) -0.3882(8) 1.2126(8)
O2 O 0.4801(9) 0.1284(9) 0.7738(9)
O3 O 0.3683(13) -0.0611(7) 0.8908(7)
O4 O -0.0112(10) -0.2993(12) 1.0045(9)
O5 O 0.1508(11) -0.2456(11) 1.1096(9)
O6 O 0.0523(9) 0.1707(7) 0.7464(9)
O7 O 0.2653(10) 0.0408(8) 0.7407(9)
O8 O 0.2316(11) -0.2326(12) 0.8991(8)
O9 O 0.1114(9) -0.3607(7) 0.7973(8)
O10 O -0.3171(12) -0.1251(7) 1.0119(8)
O11 O -0.1058(8) -0.2070(7) 0.8600(11)
O12 O -0.0896(10) -0.0115(8) 0.7527(10)
O13 O -0.2898(11) 0.0684(8) 0.8981(8)
O14 O 0.1327(8) -0.1348(7) 0.7470(9)
O15 O 0.1396(10) 0.0339(11) 0.5827(7)
O16 O 0.4253(8) -0.2482(7) 1.0078(7)
O17 O -0.2167(9) -0.2244(7) 1.1556(9)
O18 O -0.3308(10) -0.1221(10) 0.8104(9)
O19 O -0.0122(12) -0.0489(10) 0.9022(10)
O20 O 0.1464(15) 0.0081(11) 0.9916(11)
O21 O -0.0561(13) 0.1239(11) 0.9950(10)
O22 O -0.0818(12) -0.0588(11) 1.1008(11)
Ag1A Ag -0.77961(10) -0.49059(9) 1.64511(8)
Ag1A_2 Ag 0.22039(10) -0.49059(9) 0.64511(8)
Ag1_2 Ag -0.22039(10) 0.49059(9) 1.35489(8)
Ag1A_3 Ag 0.22039(10) 0.50941(9) 0.64511(8)
Mo1A Mo -0.32942(8) -0.08443(8) 1.15608(8)
Mo2A Mo -0.08824(11) -0.02360(8) 1.28395(8)
Mo3A Mo 0.22761(9) 0.08869(9) 1.12637(9)
Mo4A Mo 0.04020(10) 0.26632(9) 0.85785(8)
Mo5A Mo -0.29025(9) 0.16820(10) 0.99084(9)
Mo6A Mo -0.08123(10) 0.24308(9) 1.14109(9)
C1A C -0.8501(13) -0.6748(16) 1.4961(13)
H1A H -0.8575 -0.7292 1.5526
C2A C -0.8603(12) -0.7008(14) 1.4086(13)
H2A H -0.8753 -0.7737 1.3992
C3A C -0.8478(14) -0.6148(16) 1.326(2)
H3A H -0.8540 -0.6379 1.2623
C4A C -0.828(3) -0.501(3) 1.322(2)
H4A H -0.8204 -0.4489 1.2643
C5A C -0.8207(15) -0.4820(19) 1.4219(15)
C6A C -0.8050(13) -0.3585(10) 1.4247(11)
C7A C -0.7950(19) -0.2644(11) 1.3620(9)
H5A H -0.7954 -0.2574 1.2913
C8A C -0.7844(15) -0.1821(10) 1.4179(13)
H6A H -0.7706 -0.1070 1.3957
C9A C -0.4620(12) -0.2527(10) 1.4836(10)
H7A H -0.4466 -0.2642 1.4121
C10A C -0.4479(12) -0.1474(9) 1.5081(10)
H8A H -0.4288 -0.0875 1.4561
C11A C -0.4638(12) -0.1351(11) 1.6153(13)
H9A H -0.4515 -0.0665 1.6367
C12A C -0.4982(11) -0.2266(10) 1.6897(10)
H10A H -0.5115 -0.2197 1.7618
C13A C -0.5119(9) -0.3241(9) 1.6567(9)
C14A C -0.5433(10) -0.4233(8) 1.7375(9)
C15A C -0.4989(15) -0.4449(13) 1.8237(14)
H11A H -0.4456 -0.4008 1.8473
C16A C -0.5517(15) -0.5493(12) 1.8700(12)
H12A H -0.5424 -0.5887 1.9318
N1A N -0.8281(12) -0.5659(14) 1.5082(12)
N2A N -0.7992(13) -0.2367(16) 1.5168(11)
H13A H -0.8063 -0.2027 1.5725
N3A N -0.8017(12) -0.3491(14) 1.5191(13)
N4A N -0.6161(9) -0.5060(8) 1.7257(8)
N5A N -0.6169(11) -0.5790(8) 1.8068(10)
H14A H -0.6570 -0.6412 1.8176
N6A N -0.4963(9) -0.3397(8) 1.5558(7)
O1A O -0.9434(9) -0.6118(8) 1.7874(8)
O1A_2 O 0.0566(9) 0.3882(8) 0.7874(8)
O2A O -0.4801(9) -0.1284(9) 1.2262(9)
O3A O -0.3683(13) 0.0611(7) 1.1092(7)
O4A O 0.0112(10) 0.2993(12) 0.9955(9)
O5A O -0.1508(11) 0.2456(11) 0.8904(9)
O6A O -0.0523(9) -0.1707(7) 1.2536(9)
O7A O -0.2653(10) -0.0408(8) 1.2593(9)
O8A O -0.2316(11) 0.2326(12) 1.1009(8)
O9A O -0.1114(9) -0.6393(7) 1.2027(8)
O9_2 O -0.8886(9) -0.3607(7) 1.7973(8)
O9A_2 O -0.1114(9) 0.3607(7) 1.2027(8)
O10A O 0.3171(12) 0.1251(7) 0.9881(8)
O11A O 0.1058(8) 0.2070(7) 1.1400(11)
O12A O 0.0896(10) 0.0115(8) 1.2473(10)
O13A O 0.2898(11) -0.0684(8) 1.1019(8)
O14A O -0.1327(8) 0.1348(7) 1.2530(9)
O15A O -0.1396(10) -0.0339(11) 1.4173(7)
O16A O -0.4253(8) 0.2482(7) 0.9922(7)
O17A O 0.2167(9) 0.2244(7) 0.8444(9)
O18A O 0.3308(10) 0.1221(10) 1.1896(9)
O19A O 0.0122(12) 0.0489(10) 1.0978(10)
O20A O -0.1464(15) -0.0081(11) 1.0084(11)
O21A O 0.0561(13) -0.1239(11) 1.0050(10)
O22A O 0.0818(12) 0.0588(11) 0.8992(11)
loop_
_geom_bond_atom_site_label_1
_geom_bond_atom_site_label_2
_geom_bond_site_symmetry_1
_geom_bond_site_symmetry_2
P1 O19 1_555 1_555
Ag1 Ag2 1_555 1_555
Ag2 N6 1_555 1_555
Mo1 O2 1_555 1_555
Mo2 O6 1_555 1_555
Mo3 O10 1_555 1_555
Mo4 O1 1_555 1_555
Mo5 O3 1_555 1_555
Mo6 O4 1_555 1_555
C1 H1 1_555 1_555
C2 C1 1_555 1_555
H2 C2 1_555 1_555
C3 C2 1_555 1_555
H3 C3 1_555 1_555
C4 C3 1_555 1_555
H4 C4 1_555 1_555
C5 C4 1_555 1_555
C6 C5 1_555 1_555
C7 C6 1_555 1_555
H5 C7 1_555 1_555
C8 C7 1_555 1_555
H6 C8 1_555 1_555
C9 H7 1_555 1_555
C10 C9 1_555 1_555
H8 C10 1_555 1_555
C11 C10 1_555 1_555
H9 C11 1_555 1_555
C12 C11 1_555 1_555
H10 C12 1_555 1_555
C13 C12 1_555 1_555
C14 C13 1_555 1_555
C15 C14 1_555 1_555
H11 C15 1_555 1_555
C16 C15 1_555 1_555
H12 C16 1_555 1_555
N1 Ag1 1_555 1_555
N2 C8 1_555 1_555
H13 N2 1_555 1_555
N3 Ag1 1_555 1_555
N4 Ag1 1_555 1_555
N5 C16 1_555 1_555
H14 N5 1_555 1_555
N6 C9 1_555 1_555
O1 Ag1 1_555 1_555
O3 Mo1 1_555 1_555
O4 Mo4 1_555 1_555
O5 Mo4 1_555 1_555
O6 Mo4A 1_555 1_555
O7 Mo1 1_555 1_555
O8 Mo5 1_555 1_555
O9 Mo6 1_555 1_555
O10 Mo1A 1_555 1_555
O11 Mo3 1_555 1_555
O12 Mo2 1_555 1_555
O13 Mo3 1_555 1_555
O14 Mo2 1_555 1_555
O15 Mo2 1_555 1_555
O16 Mo5 1_555 1_555
O17 Mo4 1_555 1_555
O18 Mo3 1_555 1_555
O19 Mo2 1_555 1_555
O20 P1 1_555 1_555
O21 P1 1_555 1_555
O22 P1 1_555 1_555
Ag1A Ag2 1_555 1_555
Ag1A_2 O9 1_555 1_555
Ag1_2 O9A_2 1_555 1_555
Ag1A_3 O1A_2 1_555 1_555
Mo1A O17 1_555 1_555
Mo2A O22 1_555 1_555
Mo3A O20 1_555 1_555
Mo4A O21 1_555 1_555
Mo5A O13 1_555 1_555
Mo6A O21 1_555 1_555
C1A H1A 1_555 1_555
C2A C1A 1_555 1_555
H2A C2A 1_555 1_555
C3A C2A 1_555 1_555
H3A C3A 1_555 1_555
C4A C3A 1_555 1_555
H4A C4A 1_555 1_555
C5A C4A 1_555 1_555
C6A C5A 1_555 1_555
C7A C6A 1_555 1_555
H5A C7A 1_555 1_555
C8A C7A 1_555 1_555
H6A C8A 1_555 1_555
C9A H7A 1_555 1_555
C10A C9A 1_555 1_555
H8A C10A 1_555 1_555
C11A C10A 1_555 1_555
H9A C11A 1_555 1_555
C12A C11A 1_555 1_555
H10A C12A 1_555 1_555
C13A C12A 1_555 1_555
C14A C13A 1_555 1_555
C15A C14A 1_555 1_555
H11A C15A 1_555 1_555
C16A C15A 1_555 1_555
H12A C16A 1_555 1_555
N1A Ag1A 1_555 1_555
N2A C8A 1_555 1_555
H13A N2A 1_555 1_555
N3A Ag1A 1_555 1_555
N4A Ag1A 1_555 1_555
N5A C16A 1_555 1_555
H14A N5A 1_555 1_555
N6A Ag2 1_555 1_555
O1A Ag1A 1_555 1_555
O1A_2 Mo4A 1_555 1_555
O2A Mo1A 1_555 1_555
O3A Mo1A 1_555 1_555
O4A Mo4A 1_555 1_555
O5A Mo4A 1_555 1_555
O6A Mo4 1_555 1_555
O7A Mo1A 1_555 1_555
O8A Mo5A 1_555 1_555
O9A Ag1 1_555 1_555
O9_2 Ag1A 1_555 1_555
O9A_2 Mo6A 1_555 1_555
O10A Mo1 1_555 1_555
O11A Mo3A 1_555 1_555
O12A Mo2A 1_555 1_555
O13A Mo5 1_555 1_555
O14A Mo2A 1_555 1_555
O15A Mo2A 1_555 1_555
O16A Mo5A 1_555 1_555
O17A Mo1 1_555 1_555
O18A Mo3A 1_555 1_555
O19A P1 1_555 1_555
O20A P1 1_555 1_555
O21A P1 1_555 1_555
O22A P1 1_555 1_555
Mo1 O20 1_555 1_555
Mo1 O22A 1_555 1_555
Mo2 O7 1_555 1_555
Mo2 O22A 1_555 1_555
Mo3 O12 1_555 1_555
Mo3 O19 1_555 1_555
Mo3 O20A 1_555 1_555
Mo4 O22 1_555 1_555
Mo4 O21A 1_555 1_555
Mo5 O5 1_555 1_555
Mo5 O20 1_555 1_555
Mo5 O21A 1_555 1_555
Mo6 O8 1_555 1_555
Mo6 O11 1_555 1_555
Mo6 O14 1_555 1_555
Mo6 O19 1_555 1_555
Mo6 O21A 1_555 1_555
C1 N1 1_555 1_555
C5 N1 1_555 1_555
C6 N3 1_555 1_555
C13 N6 1_555 1_555
C14 N4 1_555 1_555
N2 N3 1_555 1_555
N4 N5 1_555 1_555
O21 Mo5A 1_555 1_555
O22 Mo1A 1_555 1_555
Mo1A O20A 1_555 1_555
Mo2A O6A 1_555 1_555
Mo2A O7A 1_555 1_555
Mo2A O19A 1_555 1_555
Mo3A O10A 1_555 1_555
Mo3A O12A 1_555 1_555
Mo3A O13A 1_555 1_555
Mo3A O19A 1_555 1_555
Mo4A O17A 1_555 1_555
Mo4A O22A 1_555 1_555
Mo5A O3A 1_555 1_555
Mo5A O5A 1_555 1_555
Mo5A O20A 1_555 1_555
Mo6A O4A 1_555 1_555
Mo6A O8A 1_555 1_555
Mo6A O11A 1_555 1_555
Mo6A O14A 1_555 1_555
Mo6A O19A 1_555 1_555
C1A N1A 1_555 1_555
C5A N1A 1_555 1_555
C6A N3A 1_555 1_555
C9A N6A 1_555 1_555
C13A N6A 1_555 1_555
C14A N4A 1_555 1_555
N2A N3A 1_555 1_555
N4A N5A 1_555 1_555

#END
