
#######################################################################
#
#                 Cambridge Crystallographic Data Centre
#                                CCDC 
#
#######################################################################
#
# If this CIF has been generated from an entry in the Cambridge 
# Structural Database, then it will include bibliographic, chemical, 
# crystal, experimental, refinement or atomic coordinate data resulting 
# from the CCDC's data processing and validation procedures.
#
#######################################################################

data_UQEQEN
_symmetry_cell_setting           monoclinic
_symmetry_space_group_name_H-M   'P 21/c'
_symmetry_Int_Tables_number      14
_space_group_name_Hall           '-P 2ybc'
loop_
_symmetry_equiv_pos_site_id
_symmetry_equiv_pos_as_xyz
1 x,y,z
2 -x,1/2+y,1/2-z
3 -x,-y,-z
4 x,1/2-y,1/2+z
_cell_length_a                   10.2678(16)
_cell_length_b                   17.737(3)
_cell_length_c                   8.0378(12)
_cell_angle_alpha                90
_cell_angle_beta                 98.275(2)
_cell_angle_gamma                90
_cell_volume                     1448.6
loop_
_atom_site_label
_atom_site_type_symbol
_atom_site_fract_x
_atom_site_fract_y
_atom_site_fract_z
N1 N 0.6379(3) 0.52863(17) -0.1356(4)
C1 C 0.7304(5) 0.5436(3) -0.3847(5)
C2 C 0.8474(4) 0.5643(3) -0.2935(5)
C3 C 0.8610(4) 0.5660(2) -0.1202(5)
C4 C 0.7534(3) 0.54707(19) -0.0430(5)
Cu1 Cu 0.56995(4) 0.65901(3) 0.17667(6)
Cu2 Cu 0.5000 0.5000 0.0000
N2 N 0.7583(3) 0.66925(17) 0.2611(4)
O1 O 0.6216(2) 0.54778(13) 0.1768(3)
O2 O 0.8137(3) 0.47678(15) 0.2120(3)
H1 H 0.8027 0.4435 0.1406
O3 O 0.5769(3) 0.75373(17) 0.0534(4)
O4 O 0.4815(3) 0.84783(15) -0.0927(3)
O5 O 0.4029(3) 0.63424(15) 0.0469(3)
O6 O 0.1867(3) 0.63998(16) -0.0031(4)
C5 C 0.7524(3) 0.5427(2) 0.1471(4)
C6 C 0.8297(3) 0.6082(2) 0.2376(4)
C7 C 0.9637(4) 0.6061(2) 0.2918(5)
H2 H 1.0126 0.5635 0.2741
C8 C 1.0232(4) 0.6681(3) 0.3722(5)
H3 H 1.1130 0.6674 0.4112
C9 C 0.9507(4) 0.7306(3) 0.3949(6)
H4 H 0.9906 0.7732 0.4470
C10 C 0.8172(4) 0.7297(2) 0.3392(6)
H5 H 0.7669 0.7718 0.3562
C11 C 0.4848(4) 0.8009(2) 0.0188(5)
C12 C 0.3725(4) 0.8003(2) 0.1214(5)
H6 H 0.3578 0.8445 0.1782
C13 C 0.2931(4) 0.7430(2) 0.1382(5)
H7 H 0.2296 0.7505 0.2082
C14 C 0.2944(4) 0.6676(2) 0.0569(5)
C15 C 0.6282(4) 0.5260(2) -0.3018(5)
H8 H 0.5486 0.5116 -0.3638
H9 H 0.7207 0.5415 -0.5013
H10 H 0.9180 0.5773 -0.3480
H11 H 0.9404 0.5796 -0.0567
N1B N 0.3621(3) 0.47137(17) 0.1356(4)
C1B C 0.2696(5) 0.4564(3) 0.3847(5)
C2B C 0.1526(4) 0.4357(3) 0.2935(5)
C3B C 0.1390(4) 0.4340(2) 0.1202(5)
C4B C 0.2466(3) 0.45293(19) 0.0430(5)
Cu1B Cu 0.43005(4) 0.34099(3) -0.17667(6)
Cu1C Cu 0.56995(4) 0.84099(3) -0.32333(6)
Cu1A Cu 0.43005(4) 0.15901(3) 0.32333(6)
N2B N 0.2417(3) 0.33075(17) -0.2611(4)
O1B O 0.3784(2) 0.45222(13) -0.1768(3)
O2B O 0.1863(3) 0.52322(15) -0.2120(3)
H1B H 0.1973 0.5565 -0.1406
O3B O 0.4231(3) 0.24627(17) -0.0534(4)
O4B O 0.5185(3) 0.15217(15) 0.0927(3)
O4C O 0.4815(3) 0.65217(15) 0.4073(3)
O4A O 0.5185(3) 0.34783(15) -0.4073(3)
O5B O 0.5971(3) 0.36576(15) -0.0469(3)
O6B O 0.8133(3) 0.36002(16) 0.0031(4)
C5B C 0.2476(3) 0.4573(2) -0.1471(4)
C6B C 0.1703(3) 0.3918(2) -0.2376(4)
C7B C 0.0363(4) 0.3939(2) -0.2918(5)
H2B H -0.0126 0.4365 -0.2741
C8B C -0.0232(4) 0.3319(3) -0.3722(5)
H3B H -0.1130 0.3326 -0.4112
C9B C 0.0493(4) 0.2694(3) -0.3949(6)
H4B H 0.0094 0.2268 -0.4470
C10B C 0.1828(4) 0.2703(2) -0.3392(6)
H5B H 0.2331 0.2282 -0.3562
C11B C 0.5152(4) 0.1991(2) -0.0188(5)
C12B C 0.6275(4) 0.1997(2) -0.1214(5)
H6B H 0.6422 0.1555 -0.1782
C13B C 0.7069(4) 0.2570(2) -0.1382(5)
H7B H 0.7704 0.2495 -0.2082
C14B C 0.7056(4) 0.3324(2) -0.0569(5)
C15B C 0.3718(4) 0.4740(2) 0.3018(5)
H8B H 0.4514 0.4884 0.3638
H9B H 0.2793 0.4585 0.5013
H10B H 0.0820 0.4227 0.3480
H11B H 0.0596 0.4204 0.0567
loop_
_geom_bond_atom_site_label_1
_geom_bond_atom_site_label_2
_geom_bond_site_symmetry_1
_geom_bond_site_symmetry_2
N1 C4 1_555 1_555
C1 C2 1_555 1_555
C2 C3 1_555 1_555
C3 C4 1_555 1_555
C4 C5 1_555 1_555
Cu1 N2 1_555 1_555
Cu2 N1 1_555 1_555
N2 C6 1_555 1_555
O1 Cu1 1_555 1_555
O2 H1 1_555 1_555
O3 Cu1 1_555 1_555
O4 C11 1_555 1_555
O5 Cu1 1_555 1_555
O6 C14 1_555 1_555
C5 O1 1_555 1_555
C6 C5 1_555 1_555
C7 C6 1_555 1_555
H2 C7 1_555 1_555
C8 C7 1_555 1_555
H3 C8 1_555 1_555
C9 C8 1_555 1_555
H4 C9 1_555 1_555
C10 N2 1_555 1_555
H5 C10 1_555 1_555
C11 O3 1_555 1_555
C12 C11 1_555 1_555
H6 C12 1_555 1_555
C13 C12 1_555 1_555
H7 C13 1_555 1_555
C14 O5 1_555 1_555
C15 N1 1_555 1_555
H8 C15 1_555 1_555
H9 C1 1_555 1_555
H10 C2 1_555 1_555
H11 C3 1_555 1_555
N1B Cu2 1_555 1_555
C1B C2B 1_555 1_555
C2B C3B 1_555 1_555
C3B C4B 1_555 1_555
C4B N1B 1_555 1_555
Cu1B N2B 1_555 1_555
Cu1C O4 1_555 1_555
Cu1A O4B 1_555 1_555
N2B C6B 1_555 1_555
O1B Cu2 1_555 1_555
O2B H1B 1_555 1_555
O3B Cu1B 1_555 1_555
O4B C11B 1_555 1_555
O4C Cu1 1_555 1_555
O4A Cu1B 1_555 1_555
O5B Cu2 1_555 1_555
O6B C14B 1_555 1_555
C5B C4B 1_555 1_555
C6B C5B 1_555 1_555
C7B C6B 1_555 1_555
H2B C7B 1_555 1_555
C8B C7B 1_555 1_555
H3B C8B 1_555 1_555
C9B C8B 1_555 1_555
H4B C9B 1_555 1_555
C10B N2B 1_555 1_555
H5B C10B 1_555 1_555
C11B O3B 1_555 1_555
C12B C11B 1_555 1_555
H6B C12B 1_555 1_555
C13B C12B 1_555 1_555
H7B C13B 1_555 1_555
C14B O5B 1_555 1_555
C15B N1B 1_555 1_555
H8B C15B 1_555 1_555
H9B C1B 1_555 1_555
H10B C2B 1_555 1_555
H11B C3B 1_555 1_555
C1 C15 1_555 1_555
Cu2 O1 1_555 1_555
Cu2 O5 1_555 1_555
O2 C5 1_555 1_555
C9 C10 1_555 1_555
C13 C14 1_555 1_555
C1B C15B 1_555 1_555
Cu1B O1B 1_555 1_555
Cu1B O5B 1_555 1_555
O1B C5B 1_555 1_555
O2B C5B 1_555 1_555
C9B C10B 1_555 1_555
C13B C14B 1_555 1_555

#END
