
#######################################################################
#
#                 Cambridge Crystallographic Data Centre
#                                CCDC 
#
#######################################################################
#
# If this CIF has been generated from an entry in the Cambridge 
# Structural Database, then it will include bibliographic, chemical, 
# crystal, experimental, refinement or atomic coordinate data resulting 
# from the CCDC's data processing and validation procedures.
#
#######################################################################

data_UQERUE
_symmetry_cell_setting           orthorhombic
_symmetry_space_group_name_H-M   'P b c n'
_symmetry_Int_Tables_number      60
_space_group_name_Hall           '-P 2n 2ab'
loop_
_symmetry_equiv_pos_site_id
_symmetry_equiv_pos_as_xyz
1 x,y,z
2 1/2-x,1/2-y,1/2+z
3 -x,y,1/2-z
4 1/2+x,1/2-y,-z
5 -x,-y,-z
6 1/2+x,1/2+y,1/2-z
7 x,-y,1/2+z
8 1/2-x,1/2+y,z
_cell_length_a                   6.7560(11)
_cell_length_b                   35.371(6)
_cell_length_c                   7.0265(12)
_cell_angle_alpha                90
_cell_angle_beta                 90
_cell_angle_gamma                90
_cell_volume                     1679.1
loop_
_atom_site_label
_atom_site_type_symbol
_atom_site_fract_x
_atom_site_fract_y
_atom_site_fract_z
Cd1 Cd 0.0000 0.481534(9) 0.2500
Cl1 Cl 0.22211(13) 0.47291(3) 0.57083(12)
N1 N 0.1709(4) 0.42651(7) 0.1478(4)
N2 N 0.1820(4) 0.29109(8) 0.1527(4)
N3 N 0.2640(5) 0.19573(10) 0.1252(5)
C1 C 0.3406(5) 0.42721(10) 0.0509(5)
H1 H 0.3939 0.4505 0.0174
C2 C 0.4403(5) 0.39491(10) -0.0017(5)
H2 H 0.5596 0.3966 -0.0672
C3 C 0.3622(5) 0.36025(10) 0.0435(5)
H3 H 0.4269 0.3382 0.0075
C4 C 0.1835(5) 0.35854(10) 0.1446(5)
C5 C 0.0915(5) 0.39258(9) 0.1966(5)
C6 C 0.0911(5) 0.32325(9) 0.1991(4)
C7 C 0.0897(5) 0.25897(10) 0.2032(5)
C8 C 0.1890(6) 0.22407(10) 0.1582(5)
Cd1D Cd 0.0000 0.518466(9) 0.7500
Cd1D_2 Cd 0.0000 0.518466(9) -0.2500
Cl1B Cl -0.22211(13) 0.47291(3) -0.07083(12)
Cl1D Cl -0.22211(13) 0.52709(3) 0.42917(12)
Cl1F Cl 0.22211(13) 0.52709(3) 0.07083(12)
N1B N -0.1709(4) 0.42651(7) 0.3522(4)
N2B N -0.1820(4) 0.29109(8) 0.3473(4)
N3B N -0.2640(5) 0.19573(10) 0.3748(5)
C1B C -0.3406(5) 0.42721(10) 0.4491(5)
H1B H -0.3939 0.4505 0.4826
C2B C -0.4403(5) 0.39491(10) 0.5017(5)
H2B H -0.5596 0.3966 0.5672
C3B C -0.3622(5) 0.36025(10) 0.4565(5)
H3B H -0.4269 0.3382 0.4925
C4B C -0.1835(5) 0.35854(10) 0.3554(5)
C5B C -0.0915(5) 0.39258(9) 0.3034(5)
C6B C -0.0911(5) 0.32325(9) 0.3009(4)
C7B C -0.0897(5) 0.25897(10) 0.2968(5)
C8B C -0.1890(6) 0.22407(10) 0.3418(5)
loop_
_geom_bond_atom_site_label_1
_geom_bond_atom_site_label_2
_geom_bond_site_symmetry_1
_geom_bond_site_symmetry_2
Cd1 Cl1 1_555 1_555
Cl1 Cd1D 1_555 1_555
N1 Cd1 1_555 1_555
N2 C6 1_555 1_555
N3 C8 1_555 1_555
C1 N1 1_555 1_555
H1 C1 1_555 1_555
C2 C1 1_555 1_555
H2 C2 1_555 1_555
C3 C2 1_555 1_555
H3 C3 1_555 1_555
C4 C3 1_555 1_555
C5 N1 1_555 1_555
C6 C4 1_555 1_555
C7 N2 1_555 1_555
C8 C7 1_555 1_555
Cd1D Cl1D 1_555 1_555
Cd1D_2 Cl1B 1_555 1_555
Cl1B Cd1 1_555 1_555
Cl1D Cd1 1_555 1_555
Cl1F Cd1 1_555 1_555
N1B Cd1 1_555 1_555
N2B C6B 1_555 1_555
N3B C8B 1_555 1_555
C1B N1B 1_555 1_555
H1B C1B 1_555 1_555
C2B C1B 1_555 1_555
H2B C2B 1_555 1_555
C3B C2B 1_555 1_555
H3B C3B 1_555 1_555
C4B C3B 1_555 1_555
C5B C5 1_555 1_555
C6B C6 1_555 1_555
C7B C7 1_555 1_555
C8B C7B 1_555 1_555
C4 C5 1_555 1_555
Cd1D_2 Cl1F 1_555 1_555
N1B C5B 1_555 1_555
N2B C7B 1_555 1_555
C4B C5B 1_555 1_555
C4B C6B 1_555 1_555

#END
