
#######################################################################
#
#                 Cambridge Crystallographic Data Centre
#                                CCDC 
#
#######################################################################
#
# If this CIF has been generated from an entry in the Cambridge 
# Structural Database, then it will include bibliographic, chemical, 
# crystal, experimental, refinement or atomic coordinate data resulting 
# from the CCDC's data processing and validation procedures.
#
#######################################################################

data_UQESEP
_symmetry_cell_setting           tetragonal
_symmetry_space_group_name_H-M   'P 41 2 2'
_symmetry_Int_Tables_number      91
_space_group_name_Hall           'P 4w 2c'
loop_
_symmetry_equiv_pos_site_id
_symmetry_equiv_pos_as_xyz
1 x,y,z
2 -y,x,1/4+z
3 -x,-y,1/2+z
4 y,-x,3/4+z
5 x,-y,1/2-z
6 y,x,3/4-z
7 -x,y,-z
8 -y,-x,1/4-z
_cell_length_a                   11.6504(16)
_cell_length_b                   11.6504(16)
_cell_length_c                   13.466(3)
_cell_angle_alpha                90
_cell_angle_beta                 90
_cell_angle_gamma                90
_cell_volume                     1827.76
loop_
_atom_site_label
_atom_site_type_symbol
_atom_site_fract_x
_atom_site_fract_y
_atom_site_fract_z
Cu1 Cu 0.0000 0.98153(18) 0.5000
I1 I 0.10931(5) 0.85576(5) 0.36495(5)
Cu1C Cu -0.01847(18) 1.0000 0.2500
I1A I 0.14424(5) 1.10931(5) 0.61495(5)
I1E I -0.14424(5) 1.10931(5) 0.38505(5)
I1F I -0.10931(5) 0.85576(5) 0.63505(5)
Cu2 Cu 0.44824(9) 0.44824(9) 0.3750
S1 S 0.4687(2) 0.6422(2) 0.3632(2)
N1 N 0.2755(6) 0.4385(6) 0.3710(6)
N2 N 0.6927(7) 0.6927(7) 0.3750
C1 C 0.2037(7) 0.5230(8) 0.3724(8)
H1 H 0.2323 0.5974 0.3698
C2 C 0.0873(9) 0.5076(9) 0.3776(10)
H2 H 0.0380 0.5704 0.3786
C3 C 0.0443(8) 0.3971(10) 0.3812(9)
H3 H -0.0344 0.3845 0.3842
C4 C 0.1198(8) 0.3058(10) 0.3803(8)
H4 H 0.0919 0.2311 0.3835
C5 C 0.2384(8) 0.3251(8) 0.3747(8)
C6 C 0.6142(6) 0.6142(6) 0.3750
C7 C 0.6672(10) 0.8168(9) 0.3703(12)
H5 H 0.7377 0.8594 0.3715
H6 H 0.6209 0.8382 0.4263
H7 H 0.6264 0.8335 0.3101
S1E S 0.6422(2) 0.4687(2) 0.3868(2)
N1E N 0.4385(6) 0.2755(6) 0.3790(6)
C1E C 0.5230(8) 0.2037(7) 0.3776(8)
H1E H 0.5974 0.2323 0.3802
C2E C 0.5076(9) 0.0873(9) 0.3724(10)
H2E H 0.5704 0.0380 0.3714
C3E C 0.3971(10) 0.0443(8) 0.3688(9)
H3E H 0.3845 -0.0344 0.3658
C4E C 0.3058(10) 0.1198(8) 0.3697(8)
H4E H 0.2311 0.0919 0.3665
C5E C 0.3251(8) 0.2384(8) 0.3753(8)
C7E C 0.8168(9) 0.6672(10) 0.3797(12)
H5E H 0.8594 0.7377 0.3785
H6E H 0.8382 0.6209 0.3237
H7E H 0.8335 0.6264 0.4399
loop_
_geom_bond_atom_site_label_1
_geom_bond_atom_site_label_2
_geom_bond_site_symmetry_1
_geom_bond_site_symmetry_2
Cu1 I1 1_555 1_555
Cu2 S1 1_555 1_555
I1 Cu1C 1_555 1_555
S1 C6 1_555 1_555
N1 Cu2 1_555 1_555
N2 C6 1_555 1_555
C1 N1 1_555 1_555
H1 C1 1_555 1_555
C2 C1 1_555 1_555
H2 C2 1_555 1_555
C3 C2 1_555 1_555
H3 C3 1_555 1_555
C4 C3 1_555 1_555
H4 C4 1_555 1_555
C5 N1 1_555 1_555
C6 S1E 1_555 1_555
C7 N2 1_555 1_555
H5 C7 1_555 1_555
H6 C7 1_555 1_555
H7 C7 1_555 1_555
Cu1C I1E 1_555 1_555
I1A Cu1 1_555 1_555
I1E Cu1 1_555 1_555
I1F Cu1 1_555 1_555
S1E Cu2 1_555 1_555
N1E Cu2 1_555 1_555
C1E N1E 1_555 1_555
H1E C1E 1_555 1_555
C2E C1E 1_555 1_555
H2E C2E 1_555 1_555
C3E C2E 1_555 1_555
H3E C3E 1_555 1_555
C4E C3E 1_555 1_555
H4E C4E 1_555 1_555
C5E C5 1_555 1_555
C7E N2 1_555 1_555
H5E C7E 1_555 1_555
H6E C7E 1_555 1_555
H7E C7E 1_555 1_555
C4 C5 1_555 1_555
N1E C5E 1_555 1_555
C4E C5E 1_555 1_555

#END
