
#######################################################################
#
#                 Cambridge Crystallographic Data Centre
#                                CCDC 
#
#######################################################################
#
# If this CIF has been generated from an entry in the Cambridge 
# Structural Database, then it will include bibliographic, chemical, 
# crystal, experimental, refinement or atomic coordinate data resulting 
# from the CCDC's data processing and validation procedures.
#
#######################################################################

data_UQESUF
_symmetry_cell_setting           triclinic
_symmetry_space_group_name_H-M   'P -1'
_symmetry_Int_Tables_number      2
_space_group_name_Hall           '-P 1'
loop_
_symmetry_equiv_pos_site_id
_symmetry_equiv_pos_as_xyz
1 x,y,z
2 -x,-y,-z
_cell_length_a                   7.8843(12)
_cell_length_b                   11.5998(17)
_cell_length_c                   13.955(2)
_cell_angle_alpha                112.214(2)
_cell_angle_beta                 95.105(2)
_cell_angle_gamma                97.616(2)
_cell_volume                     1157.59
loop_
_atom_site_label
_atom_site_type_symbol
_atom_site_fract_x
_atom_site_fract_y
_atom_site_fract_z
Cu1 Cu 0.41145(5) 0.30039(3) 0.23859(3)
N1 N 0.2652(4) 0.5419(3) 0.5066(2)
H1 H 0.2773 0.6229 0.5367
N2 N 0.4697(3) 0.5738(2) 0.2921(2)
N3 N 0.4813(3) 0.4611(2) 0.23093(19)
N4 N 0.7939(3) 0.6271(3) 0.0089(2)
O1 O 0.3238(3) 0.3834(2) 0.36746(17)
O2 O 0.3698(4) 0.7766(3) 0.5282(2)
O3 O 0.7661(3) 0.7334(2) 0.0596(2)
O4 O 0.8738(3) 0.6044(2) -0.0660(2)
O5 O 0.5407(3) 0.0690(2) -0.11353(19)
O6 O 0.8097(3) 0.1104(2) -0.0008(2)
O7 O 0.8062(3) 0.1573(2) -0.15495(19)
O8 O 0.5191(3) 0.2336(2) 0.11291(17)
O9 O 0.1558(3) 0.1887(2) 0.13371(19)
H2 H 0.0948 0.1347 0.1464
O10 O 0.4297(3) 0.1515(2) 0.27515(18)
H3 H 0.4825 0.1633 0.3326
H4 H 0.4557 0.0879 0.2320
S1 S 0.71298(10) 0.14892(7) -0.07309(6)
C1 C 0.1823(4) 0.4758(4) 0.5609(3)
C2 C 0.1517(5) 0.3451(4) 0.5279(3)
H5 H 0.1859 0.2946 0.4658
C3 C 0.0703(6) 0.2911(5) 0.5880(4)
H6 H 0.0496 0.2035 0.5664
C4 C 0.0187(5) 0.3660(6) 0.6806(3)
H7 H -0.0363 0.3286 0.7207
C5 C 0.0485(5) 0.4933(6) 0.7124(3)
H8 H 0.0138 0.5431 0.7745
C6 C 0.1302(5) 0.5505(4) 0.6535(3)
H9 H 0.1500 0.6381 0.6759
C7 C 0.3285(4) 0.5002(3) 0.4161(2)
C8 C 0.4007(4) 0.5972(3) 0.3801(2)
C9 C 0.4094(5) 0.7325(3) 0.4398(3)
C10 C 0.4715(8) 0.8212(4) 0.3897(4)
H10 H 0.4718 0.9068 0.4366
H11 H 0.3956 0.8015 0.3257
H12 H 0.5867 0.8120 0.3748
C11 C 0.5697(4) 0.4516(3) 0.1461(2)
C12 C 0.6385(4) 0.5500(3) 0.1220(2)
H13 H 0.6262 0.6324 0.1619
C13 C 0.7266(4) 0.5246(3) 0.0372(2)
C14 C 0.7477(4) 0.4026(3) -0.0238(2)
H14 H 0.8075 0.3883 -0.0806
C15 C 0.6793(4) 0.3030(3) 0.0004(2)
C16 C 0.5877(4) 0.3243(3) 0.0867(2)
O11 O 0.9407(3) 1.0045(2) 0.17171(18)
H15 H 0.9950 0.9467 0.1637
C17 C 0.8700(3) 0.9659(2) 0.32466(18)
H16 H 0.8581 1.0104 0.3966
H17 H 0.9603 0.9170 0.3209
H18 H 0.7629 0.9104 0.2875
C18 C 0.9158(3) 1.0609(2) 0.27533(18)
H19 H 0.8236 1.1093 0.2790
H20 H 1.0206 1.1194 0.3158
Na1 Na 0.70675(17) 0.92752(12) 0.02473(10)
O5A O 0.4593(3) 0.9310(2) 0.11353(19)
O6_2 O 0.8097(3) 1.1104(2) -0.0008(2)
O8A O 0.4809(3) 0.7664(2) -0.11291(17)
O9A O 0.8442(3) 0.8113(2) -0.13371(19)
H2A H 0.9052 0.8653 -0.1464
Na1A Na 0.29325(17) 0.07248(12) -0.02473(10)
Na1_2 Na 0.70675(17) -0.07248(12) 0.02473(10)
loop_
_geom_bond_atom_site_label_1
_geom_bond_atom_site_label_2
_geom_bond_site_symmetry_1
_geom_bond_site_symmetry_2
Cu1 N3 1_555 1_555
N1 H1 1_555 1_555
N2 N3 1_555 1_555
N3 C11 1_555 1_555
N4 O3 1_555 1_555
O1 Cu1 1_555 1_555
O2 C9 1_555 1_555
O3 Na1 1_555 1_555
O4 N4 1_555 1_555
O5 S1 1_555 1_555
O6 S1 1_555 1_555
O7 S1 1_555 1_555
O8 Cu1 1_555 1_555
O9 Cu1 1_555 1_555
H2 O9 1_555 1_555
O10 Cu1 1_555 1_555
H3 O10 1_555 1_555
H4 O10 1_555 1_555
S1 C15 1_555 1_555
C1 N1 1_555 1_555
C2 C1 1_555 1_555
H5 C2 1_555 1_555
C3 C2 1_555 1_555
H6 C3 1_555 1_555
C4 C3 1_555 1_555
H7 C4 1_555 1_555
C5 C4 1_555 1_555
H8 C5 1_555 1_555
C6 C1 1_555 1_555
H9 C6 1_555 1_555
C7 N1 1_555 1_555
C8 N2 1_555 1_555
C9 C8 1_555 1_555
C10 C9 1_555 1_555
H10 C10 1_555 1_555
H11 C10 1_555 1_555
H12 C10 1_555 1_555
C11 C12 1_555 1_555
C12 H13 1_555 1_555
C13 N4 1_555 1_555
C14 C13 1_555 1_555
H14 C14 1_555 1_555
C15 C14 1_555 1_555
C16 O8 1_555 1_555
O11 H15 1_555 1_555
C17 H16 1_555 1_555
H17 C17 1_555 1_555
H18 C17 1_555 1_555
C18 O11 1_555 1_555
H19 C18 1_555 1_555
H20 C18 1_555 1_555
Na1 O11 1_555 1_555
O5A Na1 1_555 1_555
O6_2 Na1 1_555 1_555
O8A Na1 1_555 1_555
O9A Na1 1_555 1_555
H2A O9A 1_555 1_555
Na1A O5 1_555 1_555
Na1_2 O6 1_555 1_555
O1 C7 1_555 1_555
O8 Na1A 1_555 1_555
O9 Na1A 1_555 1_555
C5 C6 1_555 1_555
C7 C8 1_555 1_555
C11 C16 1_555 1_555
C12 C13 1_555 1_555
C15 C16 1_555 1_555
C17 C18 1_555 1_555

#END
