
#######################################################################
#
#                 Cambridge Crystallographic Data Centre
#                                CCDC 
#
#######################################################################
#
# If this CIF has been generated from an entry in the Cambridge 
# Structural Database, then it will include bibliographic, chemical, 
# crystal, experimental, refinement or atomic coordinate data resulting 
# from the CCDC's data processing and validation procedures.
#
#######################################################################

data_UQETIU
_symmetry_cell_setting           monoclinic
_symmetry_space_group_name_H-M   'C 2/c'
_symmetry_Int_Tables_number      15
_space_group_name_Hall           '-C 2yn'
loop_
_symmetry_equiv_pos_site_id
_symmetry_equiv_pos_as_xyz
1 x,y,z
2 -x,y,1/2-z
3 1/2+x,1/2+y,z
4 1/2-x,1/2+y,1/2-z
5 -x,-y,-z
6 x,-y,1/2+z
7 1/2-x,1/2-y,-z
8 1/2+x,1/2-y,1/2+z
_cell_length_a                   18.060(4)
_cell_length_b                   13.870(3)
_cell_length_c                   19.360(4)
_cell_angle_alpha                90
_cell_angle_beta                 93.50(3)
_cell_angle_gamma                90
_cell_volume                     4840.48
loop_
_atom_site_label
_atom_site_type_symbol
_atom_site_fract_x
_atom_site_fract_y
_atom_site_fract_z
Mo1 Mo 0.70493(2) -0.22300(3) 0.42115(2)
Mo2 Mo 0.89418(2) -0.17580(3) 0.40937(2)
Mo3 Mo 0.77644(2) 0.00007(3) 0.41767(2)
Mo4 Mo 0.65257(3) -0.10569(3) 0.55437(2)
Zn1 Zn 0.7500 0.2500 0.5000
C6 C 0.5970(4) 0.2713(5) 0.3217(4)
H5 H 0.5511 0.2717 0.2973
C7 C 0.6625(5) 0.2656(6) 0.2928(4)
H6 H 0.6715 0.2595 0.2462
C8 C 0.7173(5) 0.2713(5) 0.3532(3)
C9 C 0.7966(6) 0.2779(5) 0.3619(3)
C10 C 0.8406(6) 0.2823(7) 0.3084(5)
H7 H 0.8206 0.2767 0.2632
C11 C 0.9101(6) 0.2941(7) 0.3205(6)
H8 H 0.9390 0.2964 0.2824
C12 C 0.9457(4) 0.3037(6) 0.3837(6)
H9 H 0.9965 0.3140 0.3907
C13 C 0.8985(5) 0.2963(5) 0.4356(4)
H10 H 0.9185 0.3019 0.4808
C14 C 0.6665(3) 0.0059(4) 0.2871(3)
H11 H 0.7114 -0.0038 0.2671
C15 C 0.6031(3) 0.0115(4) 0.2449(3)
H12 H 0.6060 0.0067 0.1972
C16 C 0.5346(3) 0.0243(4) 0.2721(3)
C17 C 0.5352(3) 0.0337(4) 0.3424(3)
H13 H 0.4911 0.0439 0.3637
C18 C 0.6009(3) 0.0282(4) 0.3816(3)
H14 H 0.5998 0.0349 0.4293
N2 N 0.8272(4) 0.2821(4) 0.4265(3)
N3 N 0.6789(4) 0.2762(4) 0.4097(3)
N4 N 0.6066(4) 0.2763(4) 0.3874(4)
H15 H 0.5708 0.2793 0.4146
N5 N 0.6664(2) 0.0136(3) 0.3550(2)
O1 O 0.7595(2) 0.0968(3) 0.46900(19)
O2 O 0.8092(2) 0.0499(3) 0.34606(18)
O3 O 0.86387(19) -0.0537(3) 0.45877(17)
O4 O 0.70772(19) -0.0876(2) 0.47352(17)
O5 O 0.77525(18) -0.1467(2) 0.37615(16)
O6 O 0.9227(2) -0.1261(3) 0.33638(19)
O7 O 0.9746(2) -0.1885(3) 0.4604(2)
O8 O 0.6220(2) -0.1969(3) 0.62274(18)
O9 O 0.82592(19) -0.2473(3) 0.48890(17)
O10 O 0.6245(2) -0.2071(3) 0.3728(2)
O11 O 0.7341(2) -0.3382(3) 0.39931(18)
O12 O 0.6741(3) -0.0043(3) 0.6009(2)
O13 O 0.5661(2) -0.0854(3) 0.5189(2)
Mo1F Mo 0.79507(2) -0.27700(3) 0.57885(2)
Mo2F Mo 0.60582(2) -0.32420(3) 0.59063(2)
Mo3F Mo 0.72356(2) -0.50007(3) 0.58233(2)
Mo3A Mo 0.22356(2) 0.00007(3) 0.08233(2)
Mo4F Mo 0.84743(3) -0.39431(3) 0.44563(2)
Zn1_2 Zn 0.7500 -0.7500 0.5000
C6F C 0.9030(4) 0.2287(5) 0.6783(4)
H5F H 0.9489 0.2283 0.7027
C7F C 0.8375(5) 0.2344(6) 0.7072(4)
H6F H 0.8285 0.2405 0.7538
C8F C 0.7827(5) 0.2287(5) 0.6468(3)
C9F C 0.7034(6) 0.2221(5) 0.6381(3)
C10F C 0.6594(6) 0.2177(7) 0.6916(5)
H7F H 0.6794 0.2233 0.7368
C11F C 0.5899(6) 0.2059(7) 0.6795(6)
H8F H 0.5610 0.2036 0.7176
C12F C 0.5543(4) 0.1963(6) 0.6163(6)
H9F H 0.5035 0.1860 0.6093
C13F C 0.6015(5) 0.2037(5) 0.5644(4)
H10F H 0.5815 0.1981 0.5192
C14A C 0.3335(3) 0.0059(4) 0.2129(3)
H11A H 0.2886 -0.0038 0.2329
C15A C 0.3969(3) 0.0115(4) 0.2551(3)
H12A H 0.3940 0.0067 0.3028
C16A C 0.4654(3) 0.0243(4) 0.2279(3)
C17A C 0.4648(3) 0.0337(4) 0.1576(3)
H13A H 0.5089 0.0439 0.1363
C18A C 0.3991(3) 0.0282(4) 0.1184(3)
H14A H 0.4002 0.0349 0.0707
N2F N 0.6728(4) 0.2179(4) 0.5735(3)
N3F N 0.8211(4) 0.2238(4) 0.5903(3)
N4F N 0.8934(4) 0.2237(4) 0.6126(4)
H15F H 0.9292 0.2207 0.5854
N5A N 0.3336(2) 0.0136(3) 0.1450(2)
N5F N 0.8336(2) -0.5136(3) 0.6450(2)
O1F O 0.7405(2) 0.4032(3) 0.53100(19)
O1F_2 O 0.7405(2) -0.5968(3) 0.53100(19)
O2F O 0.6908(2) -0.5499(3) 0.65394(18)
O3F O 0.63613(19) -0.4463(3) 0.54123(17)
O4F O 0.79228(19) -0.4124(2) 0.52648(17)
O5F O 0.72475(18) -0.3533(2) 0.62385(16)
O6F O 0.5773(2) -0.3739(3) 0.66362(19)
O7F O 0.5254(2) -0.3115(3) 0.5396(2)
O8F O 0.8780(2) -0.3031(3) 0.37726(18)
O9F O 0.67408(19) -0.2527(3) 0.51110(17)
O10F O 0.8755(2) -0.2929(3) 0.6272(2)
O11F O 0.7659(2) -0.1618(3) 0.60069(18)
O12F O 0.8259(3) -0.4957(3) 0.3991(2)
O13F O 0.9339(2) -0.4146(3) 0.4811(2)
C1 C 0.4785(4) 0.5673(5) 0.0959(3)
H1 H 0.5024 0.5848 0.0566
C2 C 0.5165(3) 0.5676(4) 0.1585(3)
H2 H 0.5665 0.5843 0.1625
C3 C 0.4794(3) 0.5428(4) 0.2160(3)
C4 C 0.4048(3) 0.5177(4) 0.2089(3)
H3 H 0.3793 0.5016 0.2476
C5 C 0.3695(4) 0.5169(4) 0.1446(3)
H4 H 0.3199 0.4991 0.1388
N1 N 0.4067(3) 0.5417(4) 0.0901(2)
C1A C 0.5215(4) 0.5673(5) 0.4041(3)
H1A H 0.4976 0.5848 0.4434
C2A C 0.4835(3) 0.5676(4) 0.3415(3)
H2A H 0.4335 0.5843 0.3375
C3A C 0.5206(3) 0.5428(4) 0.2840(3)
C4A C 0.5952(3) 0.5177(4) 0.2911(3)
H3A H 0.6207 0.5016 0.2524
C5A C 0.6305(4) 0.5169(4) 0.3554(3)
H4A H 0.6801 0.4991 0.3612
N1A N 0.5933(3) 0.5417(4) 0.4099(2)
loop_
_geom_bond_atom_site_label_1
_geom_bond_atom_site_label_2
_geom_bond_site_symmetry_1
_geom_bond_site_symmetry_2
Mo1 O4 1_555 1_555
Mo2 O3 1_555 1_555
Mo3 N5 1_555 1_555
Mo4 O4 1_555 1_555
Zn1 N2 1_555 1_555
C1 H1 1_555 1_555
C2 C1 1_555 1_555
H2 C2 1_555 1_555
C3 C2 1_555 1_555
C4 C3 1_555 1_555
H3 C4 1_555 1_555
C5 C4 1_555 1_555
H4 C5 1_555 1_555
C6 H5 1_555 1_555
C7 C6 1_555 1_555
H6 C7 1_555 1_555
C8 C7 1_555 1_555
C9 C8 1_555 1_555
C10 C9 1_555 1_555
H7 C10 1_555 1_555
C11 C10 1_555 1_555
H8 C11 1_555 1_555
C12 C11 1_555 1_555
H9 C12 1_555 1_555
C13 C12 1_555 1_555
H10 C13 1_555 1_555
C14 H11 1_555 1_555
C15 C14 1_555 1_555
H12 C15 1_555 1_555
C16 C15 1_555 1_555
C17 C16 1_555 1_555
H13 C17 1_555 1_555
C18 C17 1_555 1_555
H14 C18 1_555 1_555
N1 C1 1_555 1_555
N2 C9 1_555 1_555
N3 Zn1 1_555 1_555
N4 C6 1_555 1_555
H15 N4 1_555 1_555
N5 C14 1_555 1_555
O1 Mo3 1_555 1_555
O2 Mo3 1_555 1_555
O3 Mo3 1_555 1_555
O4 Mo3 1_555 1_555
O5 Mo1 1_555 1_555
O6 Mo2 1_555 1_555
O7 Mo2 1_555 1_555
O8 Mo4 1_555 1_555
O9 Mo1 1_555 1_555
O10 Mo1 1_555 1_555
O11 Mo1 1_555 1_555
O12 Mo4 1_555 1_555
O13 Mo4 1_555 1_555
Mo1F O9 1_555 1_555
Mo2F O8 1_555 1_555
Mo3F N5F 1_555 1_555
Mo3A N5A 1_555 1_555
Mo4F O9 1_555 1_555
Zn1_2 O1F_2 1_555 1_555
C1A H1A 1_555 1_555
C2A C1A 1_555 1_555
H2A C2A 1_555 1_555
C3A C3 1_555 1_555
C4A C3A 1_555 1_555
H3A C4A 1_555 1_555
C5A C4A 1_555 1_555
H4A C5A 1_555 1_555
C6F H5F 1_555 1_555
C7F C6F 1_555 1_555
H6F C7F 1_555 1_555
C8F C7F 1_555 1_555
C9F C8F 1_555 1_555
C10F C9F 1_555 1_555
H7F C10F 1_555 1_555
C11F C10F 1_555 1_555
H8F C11F 1_555 1_555
C12F C11F 1_555 1_555
H9F C12F 1_555 1_555
C13F C12F 1_555 1_555
H10F C13F 1_555 1_555
C14A H11A 1_555 1_555
C15A C14A 1_555 1_555
H12A C15A 1_555 1_555
C16A C16 1_555 1_555
C17A C16A 1_555 1_555
H13A C17A 1_555 1_555
C18A C17A 1_555 1_555
H14A C18A 1_555 1_555
N1A C1A 1_555 1_555
N2F Zn1 1_555 1_555
N3F Zn1 1_555 1_555
N4F C6F 1_555 1_555
H15F N4F 1_555 1_555
N5A C14A 1_555 1_555
O1F Zn1 1_555 1_555
O1F_2 Mo3F 1_555 1_555
O2F Mo3F 1_555 1_555
O3F Mo2F 1_555 1_555
O4F Mo1F 1_555 1_555
O5F Mo1F 1_555 1_555
O6F Mo2F 1_555 1_555
O7F Mo2F 1_555 1_555
O8F Mo2 1_555 1_555
O9F Mo1 1_555 1_555
O10F Mo1F 1_555 1_555
O11F Mo4 1_555 1_555
O12F Mo4F 1_555 1_555
O13F Mo4F 1_555 1_555
Mo2 O5 1_555 1_555
Mo2 O9 1_555 1_555
Mo3 O5 1_555 1_555
Mo4 O9F 1_555 1_555
Zn1 O1 1_555 1_555
C5 N1 1_555 1_555
C8 N3 1_555 1_555
C13 N2 1_555 1_555
C18 N5 1_555 1_555
N3 N4 1_555 1_555
O11 Mo4F 1_555 1_555
Mo1F O9F 1_555 1_555
Mo1F O11F 1_555 1_555
Mo2F O5F 1_555 1_555
Mo2F O9F 1_555 1_555
Mo3F O3F 1_555 1_555
Mo3F O4F 1_555 1_555
Mo3F O5F 1_555 1_555
Mo4F O4F 1_555 1_555
Mo4F O8F 1_555 1_555
C2A C3A 1_555 1_555
C5A N1A 1_555 1_555
C8F N3F 1_555 1_555
C9F N2F 1_555 1_555
C13F N2F 1_555 1_555
C15A C16A 1_555 1_555
C18A N5A 1_555 1_555
N3F N4F 1_555 1_555

#END
