
#######################################################################
#
#                 Cambridge Crystallographic Data Centre
#                                CCDC 
#
#######################################################################
#
# If this CIF has been generated from an entry in the Cambridge 
# Structural Database, then it will include bibliographic, chemical, 
# crystal, experimental, refinement or atomic coordinate data resulting 
# from the CCDC's data processing and validation procedures.
#
#######################################################################

data_UQIDUU
_symmetry_cell_setting           orthorhombic
_symmetry_space_group_name_H-M   'P n m a'
_symmetry_Int_Tables_number      62
_space_group_name_Hall           '-P 2ac 2n'
loop_
_symmetry_equiv_pos_site_id
_symmetry_equiv_pos_as_xyz
1 x,y,z
2 1/2-x,-y,1/2+z
3 -x,1/2+y,-z
4 1/2+x,1/2-y,1/2-z
5 -x,-y,-z
6 1/2+x,y,1/2-z
7 x,1/2-y,z
8 1/2-x,1/2+y,1/2+z
_cell_length_a                   7.786(3)
_cell_length_b                   17.253(6)
_cell_length_c                   18.478(6)
_cell_angle_alpha                90
_cell_angle_beta                 90
_cell_angle_gamma                90
_cell_volume                     2482.18
loop_
_atom_site_label
_atom_site_type_symbol
_atom_site_fract_x
_atom_site_fract_y
_atom_site_fract_z
Ni1 Ni 0.5000 0.0000 0.5000
O1 O 0.3036(3) 0.2500 0.32658(12)
O2 O 0.3863(2) 0.10075(9) 0.54000(9)
N1 N 0.3858(3) 0.02055(11) 0.39904(11)
C1 C 0.2714(4) 0.2500 0.58783(18)
H1 H 0.3626 0.2500 0.5553
C2 C 0.2038(3) 0.18028(14) 0.61190(13)
O3 O 0.6978(3) 0.06792(11) 0.46298(11)
C3 C 0.2690(4) 0.10255(15) 0.58626(14)
C4 C 0.2876(3) 0.10939(14) 0.30899(13)
O4 O 0.1983(3) 0.04425(10) 0.61354(10)
C5 C 0.2571(3) 0.18868(15) 0.28446(14)
C6 C 0.3593(3) 0.09294(14) 0.37535(13)
H2 H 0.3909 0.1340 0.4051
N2 N 0.1892(3) 0.20890(11) 0.22452(12)
C7 C 0.2720(3) -0.02542(15) 0.28719(14)
H3 H 0.2437 -0.0674 0.2579
C8 C 0.3419(3) -0.03716(15) 0.35525(15)
H4 H 0.3588 -0.0878 0.3710
C9 C 0.2455(3) 0.04871(14) 0.26371(14)
H5 H 0.1999 0.0581 0.2180
C10 C 0.0695(4) 0.18100(15) 0.66115(15)
H6 H 0.0240 0.1344 0.6776
C11 C 0.0024(6) 0.2500 0.6860(2)
H7 H -0.0874 0.2500 0.7192
C12 C 0.9519(4) 0.1405(2) 0.43942(19)
H8 H 1.0048 0.0932 0.4237
H9 H 1.0338 0.1707 0.4662
H10 H 0.9138 0.1695 0.3980
C13 C 0.8071(5) 0.1229(2) 0.4850(2)
H11 H 0.8510 0.1077 0.5321
H12 H 0.7422 0.1703 0.4918
H13 H 0.748(3) 0.0339(17) 0.4303(14)
Ni1B Ni 0.5000 0.5000 0.5000
O2F O 0.3863(2) 0.39925(9) 0.54000(9)
O2D O 0.6137(2) -0.10075(9) 0.46000(9)
N1F N 0.3858(3) 0.47945(11) 0.39904(11)
N1D N 0.6142(3) -0.02055(11) 0.60096(11)
C2F C 0.2038(3) 0.31972(14) 0.61190(13)
O3D O 0.3022(3) -0.06792(11) 0.53702(11)
C3F C 0.2690(4) 0.39745(15) 0.58626(14)
C4F C 0.2876(3) 0.39061(14) 0.30899(13)
O4F O 0.1983(3) 0.45575(10) 0.61354(10)
C5F C 0.2571(3) 0.31132(15) 0.28446(14)
C6F C 0.3593(3) 0.40706(14) 0.37535(13)
H2F H 0.3909 0.3660 0.4051
N2F N 0.1892(3) 0.29110(11) 0.22452(12)
C7F C 0.2720(3) 0.52542(15) 0.28719(14)
H3F H 0.2437 0.5674 0.2579
C8F C 0.3419(3) 0.53716(15) 0.35525(15)
H4F H 0.3588 0.5878 0.3710
C9F C 0.2455(3) 0.45129(14) 0.26371(14)
H5F H 0.1999 0.4419 0.2180
C10F C 0.0695(4) 0.31900(15) 0.66115(15)
H6F H 0.0240 0.3656 0.6776
C12D C 0.0481(4) -0.1405(2) 0.56058(19)
H8D H -0.0048 -0.0932 0.5763
H9D H -0.0338 -0.1707 0.5338
H10D H 0.0862 -0.1695 0.6020
C13D C 0.1929(5) -0.1229(2) 0.5150(2)
H11D H 0.1490 -0.1077 0.4679
H12D H 0.2578 -0.1703 0.5082
H13D H 0.252(3) -0.0339(17) 0.5697(14)
loop_
_geom_bond_atom_site_label_1
_geom_bond_atom_site_label_2
_geom_bond_site_symmetry_1
_geom_bond_site_symmetry_2
Ni1 O2 1_555 1_555
O1 C5 1_555 1_555
O2 C3 1_555 1_555
N1 Ni1 1_555 1_555
C1 H1 1_555 1_555
C2 C1 1_555 1_555
O3 Ni1 1_555 1_555
C3 C2 1_555 1_555
C4 C5 1_555 1_555
O4 C3 1_555 1_555
C5 N2 1_555 1_555
C6 N1 1_555 1_555
H2 C6 1_555 1_555
N2 N2F 1_555 1_555
C7 H3 1_555 1_555
C8 N1 1_555 1_555
H4 C8 1_555 1_555
C9 C4 1_555 1_555
H5 C9 1_555 1_555
C10 C2 1_555 1_555
H6 C10 1_555 1_555
C11 C10 1_555 1_555
H7 C11 1_555 1_555
C12 H8 1_555 1_555
H9 C12 1_555 1_555
H10 C12 1_555 1_555
C13 O3 1_555 1_555
H11 C13 1_555 1_555
H12 C13 1_555 1_555
H13 O3 1_555 1_555
Ni1B O2F 1_555 1_555
O2F C3F 1_555 1_555
O2D Ni1 1_555 1_555
N1F Ni1B 1_555 1_555
N1D Ni1 1_555 1_555
C2F C1 1_555 1_555
O3D Ni1 1_555 1_555
C3F C2F 1_555 1_555
C4F C5F 1_555 1_555
O4F C3F 1_555 1_555
C5F O1 1_555 1_555
C6F N1F 1_555 1_555
H2F C6F 1_555 1_555
N2F C5F 1_555 1_555
C7F H3F 1_555 1_555
C8F N1F 1_555 1_555
H4F C8F 1_555 1_555
C9F C4F 1_555 1_555
H5F C9F 1_555 1_555
C10F C11 1_555 1_555
H6F C10F 1_555 1_555
C12D H8D 1_555 1_555
H9D C12D 1_555 1_555
H10D C12D 1_555 1_555
C13D O3D 1_555 1_555
H11D C13D 1_555 1_555
H12D C13D 1_555 1_555
H13D O3D 1_555 1_555
C4 C6 1_555 1_555
C7 C8 1_555 1_555
C7 C9 1_555 1_555
C12 C13 1_555 1_555
C2F C10F 1_555 1_555
C4F C6F 1_555 1_555
C7F C8F 1_555 1_555
C7F C9F 1_555 1_555
C12D C13D 1_555 1_555

#END
