
#######################################################################
#
#                 Cambridge Crystallographic Data Centre
#                                CCDC 
#
#######################################################################
#
# If this CIF has been generated from an entry in the Cambridge 
# Structural Database, then it will include bibliographic, chemical, 
# crystal, experimental, refinement or atomic coordinate data resulting 
# from the CCDC's data processing and validation procedures.
#
#######################################################################

data_UQIFIK
_symmetry_cell_setting           triclinic
_symmetry_space_group_name_H-M   'P -1'
_symmetry_Int_Tables_number      2
_space_group_name_Hall           '-P 1'
loop_
_symmetry_equiv_pos_site_id
_symmetry_equiv_pos_as_xyz
1 x,y,z
2 -x,-y,-z
_cell_length_a                   8.4085(11)
_cell_length_b                   11.1273(14)
_cell_length_c                   14.5758(18)
_cell_angle_alpha                78.528(2)
_cell_angle_beta                 75.425(2)
_cell_angle_gamma                78.143(2)
_cell_volume                     1276.03
loop_
_atom_site_label
_atom_site_type_symbol
_atom_site_fract_x
_atom_site_fract_y
_atom_site_fract_z
Mn1 Mn 0.32188(5) 0.54468(4) -0.26836(3)
O1 O 0.5854(3) 0.4669(2) -0.36903(16)
O2 O 0.5489(3) 0.4453(2) -0.21317(16)
N1 N -0.3137(3) 0.7791(2) 0.07637(17)
H1 H -0.2916 0.7835 0.1300
O3 O 1.3321(2) 0.65155(19) -0.43115(15)
C1 C 0.6380(4) 0.4248(3) -0.2933(2)
N2 N 0.2088(3) 0.5898(2) -0.11720(18)
N3 N 0.0440(3) 0.6215(2) -0.25862(18)
O4 O 1.3781(3) 0.7396(2) -0.32014(16)
C2 C -0.2172(4) 0.7041(3) -0.1598(2)
F1 F -0.9964(3) 1.0726(2) 0.28551(17)
C3 C -0.2074(4) 0.7289(3) 0.0014(2)
O5 O 1.3207(3) 0.3757(2) -0.43586(17)
C4 C 1.1737(4) 0.2190(3) -0.3371(2)
H2 H 1.1106 0.2060 -0.2714
H3 H 1.2597 0.1468 -0.3462
N4 N -0.4564(3) 0.8000(2) -0.03667(19)
O6 O 1.2537(3) 0.3755(2) -0.27795(17)
C5 C -0.6014(4) 0.8858(3) 0.1120(2)
C6 C 0.0565(4) 0.6598(3) 0.0623(2)
H4 H 0.0062 0.6820 0.1224
C7 C -0.4608(4) 0.8206(3) 0.0500(3)
C8 C -0.8651(5) 1.0105(3) 0.2279(3)
C9 C 0.8093(4) 0.3458(3) -0.2987(2)
H5 H 0.8701 0.3794 -0.2641
H6 H 0.7957 0.2624 -0.2660
C10 C -0.0359(4) 0.6767(3) -0.0088(2)
C11 C -0.2971(4) 0.7116(3) -0.2345(2)
H7 H -0.4109 0.7404 -0.2265
C12 C -0.0456(3) 0.6556(3) -0.1741(2)
C13 C 0.0449(3) 0.6406(3) -0.0984(2)
C14 C 1.4943(4) 0.9411(3) -0.4625(2)
H8 H 1.6047 0.8920 -0.4659
H9 H 1.4559 0.9648 -0.3990
C15 C 0.2933(4) 0.5753(3) -0.0493(2)
H10 H 0.4054 0.5404 -0.0623
C16 C -0.2940(4) 0.7417(3) -0.0684(2)
C17 C 1.3786(4) 0.8622(3) -0.4760(2)
H11 H 1.4166 0.8402 -0.5400
H12 H 1.2685 0.9117 -0.4722
C18 C 1.0575(4) 0.2280(3) -0.4042(2)
H13 H 1.0114 0.1516 -0.3899
H14 H 1.1230 0.2336 -0.4696
C19 C 0.9140(4) 0.3370(3) -0.3993(2)
H15 H 0.9589 0.4135 -0.4246
H16 H 0.8426 0.3295 -0.4401
C20 C -0.5846(5) 0.9134(3) 0.1979(3)
H17 H -0.4830 0.8890 0.2161
C21 C 1.3646(3) 0.7443(3) -0.4046(2)
C22 C -0.0357(4) 0.6326(3) -0.3289(2)
H18 H 0.0254 0.6103 -0.3875
C23 C -0.8879(4) 0.9857(3) 0.1438(3)
H19 H -0.9905 1.0103 0.1269
C24 C 0.2222(4) 0.6101(3) 0.0411(2)
H20 H 0.2866 0.5995 0.0864
C25 C -0.2061(4) 0.6760(3) -0.3190(2)
H21 H -0.2570 0.6806 -0.3696
C26 C -0.7543(4) 0.9233(3) 0.0853(3)
H22 H -0.7664 0.9061 0.0277
C27 C 1.2560(4) 0.3323(3) -0.3520(2)
C28 C -0.7175(5) 0.9768(3) 0.2561(3)
H23 H -0.7066 0.9959 0.3132
Mn2 Mn 1.5000 0.5000 -0.5000
Mn1_2 Mn 1.32188(5) 0.54468(4) -0.26836(3)
Mn1A Mn 1.67812(5) 1.45532(4) -0.73164(3)
Mn1_3 Mn 2.32188(5) 0.54468(4) -0.26836(3)
O1_2 O 1.5854(3) 0.4669(2) -0.36903(16)
O1A O 1.4146(3) 0.5331(2) -0.63097(16)
O2_2 O 1.5489(3) 0.4453(2) -0.21317(16)
N1_2 N 0.6863(3) 0.7791(2) 0.07637(17)
H1_2 H 0.7084 0.7835 0.1300
O3A O 1.6679(2) 1.34845(19) -0.56885(15)
O3_2 O 0.3321(2) 0.65155(19) -0.43115(15)
O3A_2 O 1.6679(2) 0.34845(19) -0.56885(15)
C1_2 C 1.6380(4) 0.4248(3) -0.2933(2)
N2_2 N 1.2088(3) 0.5898(2) -0.11720(18)
N3_2 N 1.0440(3) 0.6215(2) -0.25862(18)
O4A O 1.6219(3) 1.2604(2) -0.67986(16)
O4_2 O 0.3781(3) 0.7396(2) -0.32014(16)
C2_2 C 0.7828(4) 0.7041(3) -0.1598(2)
F1_2 F 0.0036(3) 1.0726(2) 0.28551(17)
C3_2 C 0.7926(4) 0.7289(3) 0.0014(2)
O5_2 O 2.3207(3) 0.3757(2) -0.43586(17)
O5A O 1.6793(3) 0.6243(2) -0.56414(17)
C4_2 C 2.1737(4) 0.2190(3) -0.3371(2)
H2_2 H 2.1106 0.2060 -0.2714
H3_2 H 2.2597 0.1468 -0.3462
N4_2 N 0.5436(3) 0.8000(2) -0.03667(19)
O6_2 O 2.2537(3) 0.3755(2) -0.27795(17)
O6_3 O 0.2537(3) 0.3755(2) -0.27795(17)
C5_2 C 0.3986(4) 0.8858(3) 0.1120(2)
C6_2 C 1.0565(4) 0.6598(3) 0.0623(2)
H4_2 H 1.0062 0.6820 0.1224
C7_2 C 0.5392(4) 0.8206(3) 0.0500(3)
C8_2 C 0.1349(5) 1.0105(3) 0.2279(3)
C9_2 C 1.8093(4) 0.3458(3) -0.2987(2)
H5_2 H 1.8701 0.3794 -0.2641
H6_2 H 1.7957 0.2624 -0.2660
C10_2 C 0.9641(4) 0.6767(3) -0.0088(2)
C11_2 C 0.7029(4) 0.7116(3) -0.2345(2)
H7_2 H 0.5891 0.7404 -0.2265
C12_2 C 0.9544(3) 0.6556(3) -0.1741(2)
C13_2 C 1.0449(3) 0.6406(3) -0.0984(2)
C14A C 1.5057(4) 1.0589(3) -0.5375(2)
H8A H 1.3953 1.1080 -0.5341
H9A H 1.5441 1.0352 -0.6010
C15_2 C 1.2933(4) 0.5753(3) -0.0493(2)
H10_2 H 1.4054 0.5404 -0.0623
C16_2 C 0.7060(4) 0.7417(3) -0.0684(2)
C17A C 1.6214(4) 1.1378(3) -0.5240(2)
H11A H 1.5834 1.1598 -0.4600
H12A H 1.7315 1.0883 -0.5278
C18_2 C 2.0575(4) 0.2280(3) -0.4042(2)
H13_2 H 2.0114 0.1516 -0.3899
H14_2 H 2.1230 0.2336 -0.4696
C19_2 C 1.9140(4) 0.3370(3) -0.3993(2)
H15_2 H 1.9589 0.4135 -0.4246
H16_2 H 1.8426 0.3295 -0.4401
C20_2 C 0.4154(5) 0.9134(3) 0.1979(3)
H17_2 H 0.5170 0.8890 0.2161
C21A C 1.6354(3) 1.2557(3) -0.5954(2)
C22_2 C 0.9643(4) 0.6326(3) -0.3289(2)
H18_2 H 1.0254 0.6103 -0.3875
C23_2 C 0.1121(4) 0.9857(3) 0.1438(3)
H19_2 H 0.0095 1.0103 0.1269
C24_2 C 1.2222(4) 0.6101(3) 0.0411(2)
H20_2 H 1.2866 0.5995 0.0864
C25_2 C 0.7939(4) 0.6760(3) -0.3190(2)
H21_2 H 0.7430 0.6806 -0.3696
C26_2 C 0.2457(4) 0.9233(3) 0.0853(3)
H22_2 H 0.2336 0.9061 0.0277
C27_2 C 2.2560(4) 0.3323(3) -0.3520(2)
C28_2 C 0.2825(5) 0.9768(3) 0.2561(3)
H23_2 H 0.2934 0.9959 0.3132
Mn2_2 Mn 0.5000 0.5000 -0.5000
Mn2_3 Mn 1.5000 1.5000 -0.5000
Mn2_4 Mn 2.5000 0.5000 -0.5000
O7 O 1.2872(4) 0.9028(4) -0.1641(3)
H24 H 1.308(7) 0.862(5) -0.213(3)
H25 H 1.380(5) 0.872(5) -0.142(4)
loop_
_geom_bond_atom_site_label_1
_geom_bond_atom_site_label_2
_geom_bond_site_symmetry_1
_geom_bond_site_symmetry_2
Mn1 O1 1_555 1_555
O1 C1 1_555 1_555
O2 Mn1 1_555 1_555
N1 H1 1_555 1_555
O3 C21 1_555 1_555
C1 O2 1_555 1_555
N2 Mn1 1_555 1_555
N3 Mn1 1_555 1_555
O4 C21 1_555 1_555
C2 C11 1_555 1_555
F1 C8 1_555 1_555
C3 N1 1_555 1_555
O5 C27 1_555 1_555
C4 H2 1_555 1_555
H3 C4 1_555 1_555
N4 C7 1_555 1_555
O6 C27 1_555 1_555
C5 C7 1_555 1_555
C6 H4 1_555 1_555
C7 N1 1_555 1_555
C8 C23 1_555 1_555
C9 C1 1_555 1_555
H5 C9 1_555 1_555
H6 C9 1_555 1_555
C10 C3 1_555 1_555
C11 H7 1_555 1_555
C12 N3 1_555 1_555
C13 N2 1_555 1_555
C14 H8 1_555 1_555
H9 C14 1_555 1_555
C15 N2 1_555 1_555
H10 C15 1_555 1_555
C16 C2 1_555 1_555
C17 C14 1_555 1_555
H11 C17 1_555 1_555
H12 C17 1_555 1_555
C18 C4 1_555 1_555
H13 C18 1_555 1_555
H14 C18 1_555 1_555
C19 C9 1_555 1_555
H15 C19 1_555 1_555
H16 C19 1_555 1_555
C20 C5 1_555 1_555
H17 C20 1_555 1_555
C21 C17 1_555 1_555
C22 N3 1_555 1_555
H18 C22 1_555 1_555
C23 H19 1_555 1_555
C24 C6 1_555 1_555
H20 C24 1_555 1_555
C25 C11 1_555 1_555
H21 C25 1_555 1_555
C26 C5 1_555 1_555
H22 C26 1_555 1_555
C27 C4 1_555 1_555
C28 C8 1_555 1_555
H23 C28 1_555 1_555
Mn2 O3 1_555 1_555
O7 H24 1_555 1_555
H25 O7 1_555 1_555
Mn1_2 O3 1_555 1_555
Mn1A O3A 1_555 1_555
Mn1_3 O6_2 1_555 1_555
O1_2 Mn2 1_555 1_555
O1A Mn2 1_555 1_555
O2_2 Mn1_2 1_555 1_555
N1_2 H1_2 1_555 1_555
O3A C21A 1_555 1_555
O3_2 Mn1 1_555 1_555
O3A_2 Mn2 1_555 1_555
C1_2 O1_2 1_555 1_555
N2_2 Mn1_2 1_555 1_555
N3_2 Mn1_2 1_555 1_555
O4A Mn1A 1_555 1_555
O4_2 Mn1 1_555 1_555
C2_2 C11_2 1_555 1_555
F1_2 C8_2 1_555 1_555
C3_2 N1_2 1_555 1_555
O5_2 C27_2 1_555 1_555
O5A Mn2 1_555 1_555
C4_2 H2_2 1_555 1_555
H3_2 C4_2 1_555 1_555
N4_2 C7_2 1_555 1_555
O6_2 C27_2 1_555 1_555
O6_3 Mn1 1_555 1_555
C5_2 C7_2 1_555 1_555
C6_2 H4_2 1_555 1_555
C7_2 N1_2 1_555 1_555
C8_2 C23_2 1_555 1_555
C9_2 C1_2 1_555 1_555
H5_2 C9_2 1_555 1_555
H6_2 C9_2 1_555 1_555
C10_2 C3_2 1_555 1_555
C11_2 H7_2 1_555 1_555
C12_2 N3_2 1_555 1_555
C13_2 N2_2 1_555 1_555
C14A C14 1_555 1_555
H8A C14A 1_555 1_555
H9A C14A 1_555 1_555
C15_2 N2_2 1_555 1_555
H10_2 C15_2 1_555 1_555
C16_2 C2_2 1_555 1_555
C17A C14A 1_555 1_555
H11A C17A 1_555 1_555
H12A C17A 1_555 1_555
C18_2 C4_2 1_555 1_555
H13_2 C18_2 1_555 1_555
H14_2 C18_2 1_555 1_555
C19_2 C9_2 1_555 1_555
H15_2 C19_2 1_555 1_555
H16_2 C19_2 1_555 1_555
C20_2 C5_2 1_555 1_555
H17_2 C20_2 1_555 1_555
C21A O4A 1_555 1_555
C22_2 N3_2 1_555 1_555
H18_2 C22_2 1_555 1_555
C23_2 H19_2 1_555 1_555
C24_2 C6_2 1_555 1_555
H20_2 C24_2 1_555 1_555
C25_2 C11_2 1_555 1_555
H21_2 C25_2 1_555 1_555
C26_2 C5_2 1_555 1_555
H22_2 C26_2 1_555 1_555
C27_2 C4_2 1_555 1_555
C28_2 C8_2 1_555 1_555
H23_2 C28_2 1_555 1_555
Mn2_2 O1 1_555 1_555
Mn2_3 O3A 1_555 1_555
Mn2_4 O5_2 1_555 1_555
O4 Mn1_2 1_555 1_555
C2 C12 1_555 1_555
C3 C16 1_555 1_555
O5 Mn2 1_555 1_555
N4 C16 1_555 1_555
O6 Mn1_2 1_555 1_555
C6 C10 1_555 1_555
C10 C13 1_555 1_555
C12 C13 1_555 1_555
C15 C24 1_555 1_555
C18 C19 1_555 1_555
C20 C28 1_555 1_555
C22 C25 1_555 1_555
C23 C26 1_555 1_555
Mn1_2 O1_2 1_555 1_555
O2_2 C1_2 1_555 1_555
O3_2 Mn2_2 1_555 1_555
C2_2 C12_2 1_555 1_555
C3_2 C16_2 1_555 1_555
N4_2 C16_2 1_555 1_555
C6_2 C10_2 1_555 1_555
C10_2 C13_2 1_555 1_555
C12_2 C13_2 1_555 1_555
C15_2 C24_2 1_555 1_555
C17A C21A 1_555 1_555
C18_2 C19_2 1_555 1_555
C20_2 C28_2 1_555 1_555
C22_2 C25_2 1_555 1_555
C23_2 C26_2 1_555 1_555

#END
