
#######################################################################
#
#                 Cambridge Crystallographic Data Centre
#                                CCDC 
#
#######################################################################
#
# If this CIF has been generated from an entry in the Cambridge 
# Structural Database, then it will include bibliographic, chemical, 
# crystal, experimental, refinement or atomic coordinate data resulting 
# from the CCDC's data processing and validation procedures.
#
#######################################################################

data_UQIFAC
_symmetry_cell_setting           monoclinic
_symmetry_space_group_name_H-M   'P 21/c'
_symmetry_Int_Tables_number      14
_space_group_name_Hall           '-P 2ybc'
loop_
_symmetry_equiv_pos_site_id
_symmetry_equiv_pos_as_xyz
1 x,y,z
2 -x,1/2+y,1/2-z
3 -x,-y,-z
4 x,1/2-y,1/2+z
_cell_length_a                   6.4367(14)
_cell_length_b                   9.495(2)
_cell_length_c                   13.907(3)
_cell_angle_alpha                90
_cell_angle_beta                 117.405(8)
_cell_angle_gamma                90
_cell_volume                     754.562
loop_
_atom_site_label
_atom_site_type_symbol
_atom_site_fract_x
_atom_site_fract_y
_atom_site_fract_z
C1 C 0.2277(7) 0.6119(5) 0.6208(3)
C2 C 0.1083(7) 0.4822(4) 0.5521(3)
C3 C 0.2880(8) 0.3983(4) 0.5310(3)
Cd1 Cd 0.41505(6) 0.88504(3) 0.71081(2)
H1 H 0.809(9) 0.852(5) 0.693(4)
H2 H 0.148(11) 0.999(7) 0.800(5)
H4 H 0.075(10) 0.428(6) 0.593(4)
O1 O 0.6935(8) 0.8268(5) 0.6647(4)
H6 H 0.6608 0.7511 0.6327
O2 O 0.2602(6) 1.0402(4) 0.5624(3)
H7 H 0.1190 1.0173 0.5210
H8 H 0.2649 1.1240 0.5847
O3 O 0.1111(6) 0.9737(4) 0.7412(3)
H9 H 0.0399 1.0344 0.6960
O4 O 0.1720(6) 0.7314(3) 0.5804(2)
O5 O 0.3791(6) 0.5926(3) 0.7164(2)
O6 O 0.4351(5) 0.3248(3) 0.6103(2)
O7 O 0.2838(6) 0.4038(3) 0.4413(2)
C1B C -0.2277(7) 0.3881(5) 0.3792(3)
C2B C -0.1083(7) 0.5178(4) 0.4479(3)
C3B C -0.2880(8) 0.6017(4) 0.4690(3)
Cd1B Cd -0.41505(6) 0.11496(3) 0.28919(2)
Cd1A Cd 0.58495(6) 0.38504(3) 0.78919(2)
Cd1C Cd -0.58495(6) 0.61496(3) 0.21081(2)
H1B H -0.809(9) 0.148(5) 0.307(4)
H2B H -0.148(11) 0.001(7) 0.200(5)
H4B H -0.075(10) 0.572(6) 0.407(4)
O1B O -0.6935(8) 0.1732(5) 0.3353(4)
H6B H -0.6608 0.2489 0.3673
O2B O -0.2602(6) -0.0402(4) 0.4376(3)
H7B H -0.1190 -0.0173 0.4790
H8B H -0.2649 -0.1240 0.4153
O3B O -0.1111(6) 0.0263(4) 0.2588(3)
H9B H -0.0399 -0.0344 0.3040
O4B O -0.1720(6) 0.2686(3) 0.4196(2)
O5B O -0.3791(6) 0.4074(3) 0.2836(2)
O5A O 0.6209(6) 1.0926(3) 0.7836(2)
O5C O -0.6209(6) -0.0926(3) 0.2164(2)
O6B O -0.4351(5) 0.6752(3) 0.3897(2)
O6A O 0.5649(5) 0.8248(3) 0.8897(2)
O6C O -0.5649(5) 0.1752(3) 0.1103(2)
O7B O -0.2838(6) 0.5962(3) 0.5587(2)
H3 H 0.149(12) 0.698(7) 0.925(5)
H5 H 0.252(15) 0.721(10) 0.872(7)
O8 O 0.1683(10) 0.6779(6) 0.8879(5)
loop_
_geom_bond_atom_site_label_1
_geom_bond_atom_site_label_2
_geom_bond_site_symmetry_1
_geom_bond_site_symmetry_2
C1 C2 1_555 1_555
C2 C3 1_555 1_555
C3 O6 1_555 1_555
Cd1 O1 1_555 1_555
H1 O1 1_555 1_555
H2 O3 1_555 1_555
H3 O8 1_555 1_555
H4 C2 1_555 1_555
H5 O8 1_555 1_555
O1 H6 1_555 1_555
O2 Cd1 1_555 1_555
H7 O2 1_555 1_555
H8 O2 1_555 1_555
O3 Cd1 1_555 1_555
H9 O3 1_555 1_555
O4 C1 1_555 1_555
O5 C1 1_555 1_555
O6 Cd1A 1_555 1_555
O7 C3 1_555 1_555
C1B C2B 1_555 1_555
C2B C2 1_555 1_555
C3B C2B 1_555 1_555
Cd1B O1B 1_555 1_555
Cd1A O5 1_555 1_555
Cd1C O5B 1_555 1_555
H1B O1B 1_555 1_555
H2B O3B 1_555 1_555
H4B C2B 1_555 1_555
O1B H6B 1_555 1_555
O2B Cd1B 1_555 1_555
H7B O2B 1_555 1_555
H8B O2B 1_555 1_555
O3B Cd1B 1_555 1_555
H9B O3B 1_555 1_555
O4B C1B 1_555 1_555
O5B C1B 1_555 1_555
O5A Cd1 1_555 1_555
O5C Cd1B 1_555 1_555
O6B C3B 1_555 1_555
O6A Cd1 1_555 1_555
O6C Cd1B 1_555 1_555
O7B C3B 1_555 1_555
Cd1 O4 1_555 1_555
Cd1B O4B 1_555 1_555
Cd1C O6B 1_555 1_555

#END
