
#######################################################################
#
#                 Cambridge Crystallographic Data Centre
#                                CCDC 
#
#######################################################################
#
# If this CIF has been generated from an entry in the Cambridge 
# Structural Database, then it will include bibliographic, chemical, 
# crystal, experimental, refinement or atomic coordinate data resulting 
# from the CCDC's data processing and validation procedures.
#
#######################################################################

data_UQOMOD
_symmetry_cell_setting           monoclinic
_symmetry_space_group_name_H-M   'C c'
_symmetry_Int_Tables_number      9
_space_group_name_Hall           'C -2yc'
loop_
_symmetry_equiv_pos_site_id
_symmetry_equiv_pos_as_xyz
1 x,y,z
2 x,-y,1/2+z
3 1/2+x,1/2+y,z
4 1/2+x,1/2-y,1/2+z
_cell_length_a                   31.0114(6)
_cell_length_b                   10.8126(2)
_cell_length_c                   16.6208(3)
_cell_angle_alpha                90
_cell_angle_beta                 110.982(2)
_cell_angle_gamma                90
_cell_volume                     5203.64
loop_
_atom_site_label
_atom_site_type_symbol
_atom_site_fract_x
_atom_site_fract_y
_atom_site_fract_z
Cu1 Cu 0.174502(11) 0.16725(3) 0.335002(19)
Cu4 Cu 0.172850(13) 0.43565(3) 0.61039(2)
S5 S 0.26752(3) -0.08469(9) 0.55475(5)
S6 S 0.24533(3) 0.46341(8) 0.54809(5)
N1 N 0.13307(8) 0.0381(2) 0.26073(15)
N2 N 0.09981(8) 0.0629(2) 0.18362(14)
N3 N 0.12711(8) 0.2950(2) 0.27343(14)
N4 N 0.09653(8) 0.2819(2) 0.19227(15)
N5 N 0.20854(9) 0.3515(2) 0.72176(15)
N6 N 0.22403(8) 0.2333(2) 0.72689(15)
N7 N 0.15234(8) 0.2683(2) 0.55878(15)
N8 N 0.17686(8) 0.1638(2) 0.58795(15)
N21 N 0.21226(9) 0.0400(2) 0.40969(16)
N22 N 0.20815(9) 0.2952(2) 0.41518(16)
C1 C 0.12650(11) -0.0784(3) 0.2780(2)
H1 H 0.1439 -0.1204 0.3279
C2 C 0.09003(12) -0.1287(3) 0.2110(2)
H2 H 0.0790 -0.2093 0.2070
C3 C 0.07366(11) -0.0368(3) 0.1524(2)
H3 H 0.0489 -0.0422 0.1003
C4 C 0.10040(10) 0.1776(3) 0.14065(18)
H4 H 0.0750 0.1791 0.0857
H5 H 0.1290 0.1840 0.1295
C5 C 0.06897(12) 0.3808(3) 0.1687(2)
H6 H 0.0457 0.3930 0.1154
C6 C 0.08117(12) 0.4603(3) 0.2365(3)
H7 H 0.0681 0.5367 0.2395
C7 C 0.11725(11) 0.4030(3) 0.3003(2)
H8 H 0.1326 0.4359 0.3548
C8 C 0.21624(11) 0.3842(3) 0.8026(2)
H9 H 0.2088 0.4611 0.8189
C9 C 0.23655(13) 0.2907(3) 0.8591(2)
H10 H 0.2450 0.2917 0.9188
C10 C 0.24172(12) 0.1961(3) 0.8093(2)
H11 H 0.2551 0.1196 0.8289
C11 C 0.22388(10) 0.1710(3) 0.64997(19)
H12 H 0.2364 0.0883 0.6644
H13 H 0.2431 0.2159 0.6250
C12 C 0.15448(12) 0.0645(3) 0.5437(2)
H14 H 0.1650 -0.0168 0.5517
C13 C 0.11426(12) 0.1040(3) 0.4857(2)
H15 H 0.0915 0.0561 0.4464
C14 C 0.11381(11) 0.2318(3) 0.4967(2)
H16 H 0.0899 0.2841 0.4651
C33 C 0.23565(10) -0.0111(3) 0.47070(18)
C34 C 0.22389(10) 0.3637(3) 0.46990(19)
N23 N 0.19246(10) 0.4065(2) 0.16818(17)
N24 N 0.12501(10) 0.5147(3) 0.51590(19)
S7 S 0.08860(4) 0.71958(9) 0.41434(6)
C35 C 0.20793(10) 0.3131(3) 0.19585(18)
C36 C 0.11015(11) 0.6021(3) 0.4734(2)
S8 S 0.22937(3) 0.17952(7) 0.23768(5)
Cu4A Cu 0.172850(13) 0.56435(3) 0.11039(2)
N23A N 0.19246(10) 0.5935(2) 0.66818(17)
Cu2 Cu 0.430888(12) 1.03609(3) 0.067094(19)
Cu3 Cu 0.423021(11) 0.52360(3) 0.013356(19)
S1 S 0.47623(3) 0.67644(6) -0.04314(5)
S2 S 0.50754(3) 1.15547(6) 0.05247(5)
S3 S 0.34191(4) 1.01388(9) -0.22392(6)
S4 S 0.49979(5) 0.53753(10) 0.31094(6)
N9 N 0.37875(8) 0.4861(2) -0.10530(15)
N10 N 0.34582(7) 0.5672(2) -0.15303(14)
N11 N 0.37834(8) 0.6523(2) 0.02343(15)
N12 N 0.34794(8) 0.7129(2) -0.04495(15)
N13 N 0.40500(8) 1.1849(2) 0.10457(14)
N14 N 0.42449(8) 1.2378(2) 0.18420(14)
N15 N 0.46102(8) 0.9877(2) 0.19111(14)
N16 N 0.47010(8) 1.0695(2) 0.25730(14)
N17 N 0.45177(9) 0.8802(2) 0.03364(15)
N18 N 0.45805(9) 1.3752(2) 0.00916(17)
N19 N 0.38933(10) 1.0619(2) -0.05033(17)
N20 N 0.45968(9) 0.5448(2) 0.13439(18)
C15 C 0.36935(11) 0.3801(3) -0.1496(2)
H17 H 0.3861 0.3074 -0.1321
C16 C 0.33170(11) 0.3924(3) -0.2245(2)
H18 H 0.3186 0.3320 -0.2659
C17 C 0.31746(10) 0.5130(3) -0.22526(19)
H19 H 0.2927 0.5502 -0.2680
C18 C 0.34978(10) 0.6964(2) -0.12933(18)
H20 H 0.3787 0.7288 -0.1303
H21 H 0.3248 0.7424 -0.1709
C19 C 0.32464(11) 0.7985(3) -0.0182(2)
H22 H 0.3025 0.8523 -0.0533
C20 C 0.33918(12) 0.7923(3) 0.0689(2)
H23 H 0.3292 0.8400 0.1054
C21 C 0.37218(10) 0.6997(3) 0.0917(2)
H24 H 0.3880 0.6740 0.1481
C22 C 0.36636(10) 1.2471(3) 0.0661(2)
H25 H 0.3457 1.2304 0.0108
C23 C 0.36049(12) 1.3397(3) 0.1181(2)
H26 H 0.3363 1.3959 0.1052
C24 C 0.39809(12) 1.3311(3) 0.1931(2)
H27 H 0.4042 1.3811 0.2415
C25 C 0.46947(10) 1.2001(2) 0.23949(18)
H28 H 0.4783 1.2461 0.2931
H29 H 0.4917 1.2183 0.2122
C26 C 0.48209(12) 1.0088(3) 0.3331(2)
H30 H 0.4896 1.0444 0.3874
C27 C 0.48107(12) 0.8874(3) 0.3156(2)
H31 H 0.4881 0.8229 0.3552
C28 C 0.46755(11) 0.8770(3) 0.22702(19)
H32 H 0.4636 0.8027 0.1971
C29 C 0.46190(10) 0.7959(3) 0.00228(17)
C30 C 0.47866(10) 1.2845(2) 0.02659(17)
C31 C 0.37007(11) 1.0416(3) -0.1226(2)
C32 C 0.47716(11) 0.5421(3) 0.2073(2)
Cu3_2 Cu 0.423021(11) 1.52360(3) 0.013356(19)
N18_2 N 0.45805(9) 0.3752(2) 0.00916(17)
loop_
_geom_bond_atom_site_label_1
_geom_bond_atom_site_label_2
_geom_bond_site_symmetry_1
_geom_bond_site_symmetry_2
Cu1 N1 1_555 1_555
Cu2 S2 1_555 1_555
Cu3 S1 1_555 1_555
Cu4 S6 1_555 1_555
S1 C29 1_555 1_555
S2 C30 1_555 1_555
S3 C31 1_555 1_555
S4 C32 1_555 1_555
S5 C33 1_555 1_555
S6 C34 1_555 1_555
N1 N2 1_555 1_555
N2 C3 1_555 1_555
N3 Cu1 1_555 1_555
N4 N3 1_555 1_555
N5 Cu4 1_555 1_555
N6 N5 1_555 1_555
N7 Cu4 1_555 1_555
N8 N7 1_555 1_555
N9 Cu3 1_555 1_555
N10 N9 1_555 1_555
N11 Cu3 1_555 1_555
N12 N11 1_555 1_555
N13 Cu2 1_555 1_555
N14 N13 1_555 1_555
N15 Cu2 1_555 1_555
N16 N15 1_555 1_555
N17 Cu2 1_555 1_555
N18 C30 1_555 1_555
N19 Cu2 1_555 1_555
N20 Cu3 1_555 1_555
N21 Cu1 1_555 1_555
N22 Cu1 1_555 1_555
C1 N1 1_555 1_555
H1 C1 1_555 1_555
C2 C1 1_555 1_555
H2 C2 1_555 1_555
C3 C2 1_555 1_555
H3 C3 1_555 1_555
C4 N2 1_555 1_555
H4 C4 1_555 1_555
H5 C4 1_555 1_555
C5 N4 1_555 1_555
H6 C5 1_555 1_555
C6 C5 1_555 1_555
H7 C6 1_555 1_555
C7 N3 1_555 1_555
H8 C7 1_555 1_555
C8 N5 1_555 1_555
H9 C8 1_555 1_555
C9 C8 1_555 1_555
H10 C9 1_555 1_555
C10 N6 1_555 1_555
H11 C10 1_555 1_555
C11 N6 1_555 1_555
H12 C11 1_555 1_555
H13 C11 1_555 1_555
C12 N8 1_555 1_555
H14 C12 1_555 1_555
C13 C12 1_555 1_555
H15 C13 1_555 1_555
C14 N7 1_555 1_555
H16 C14 1_555 1_555
C15 N9 1_555 1_555
H17 C15 1_555 1_555
C16 C15 1_555 1_555
H18 C16 1_555 1_555
C17 N10 1_555 1_555
H19 C17 1_555 1_555
C18 N10 1_555 1_555
H20 C18 1_555 1_555
H21 C18 1_555 1_555
C19 N12 1_555 1_555
H22 C19 1_555 1_555
C20 C19 1_555 1_555
H23 C20 1_555 1_555
C21 N11 1_555 1_555
H24 C21 1_555 1_555
C22 N13 1_555 1_555
H25 C22 1_555 1_555
C23 C22 1_555 1_555
H26 C23 1_555 1_555
C24 N14 1_555 1_555
H27 C24 1_555 1_555
C25 N14 1_555 1_555
H28 C25 1_555 1_555
H29 C25 1_555 1_555
C26 N16 1_555 1_555
H30 C26 1_555 1_555
C27 C26 1_555 1_555
H31 C27 1_555 1_555
C28 N15 1_555 1_555
H32 C28 1_555 1_555
C29 N17 1_555 1_555
C31 N19 1_555 1_555
C32 N20 1_555 1_555
C33 N21 1_555 1_555
C34 N22 1_555 1_555
N23 C35 1_555 1_555
N24 Cu4 1_555 1_555
S7 C36 1_555 1_555
C35 S8 1_555 1_555
C36 N24 1_555 1_555
S8 Cu1 1_555 1_555
Cu3_2 N18 1_555 1_555
Cu4A N23 1_555 1_555
N18_2 Cu3 1_555 1_555
N23A Cu4 1_555 1_555
N4 C4 1_555 1_555
N8 C11 1_555 1_555
N12 C18 1_555 1_555
N16 C25 1_555 1_555
C6 C7 1_555 1_555
C9 C10 1_555 1_555
C13 C14 1_555 1_555
C16 C17 1_555 1_555
C20 C21 1_555 1_555
C23 C24 1_555 1_555
C27 C28 1_555 1_555

#END
