
#######################################################################
#
#                 Cambridge Crystallographic Data Centre
#                                CCDC 
#
#######################################################################
#
# If this CIF has been generated from an entry in the Cambridge 
# Structural Database, then it will include bibliographic, chemical, 
# crystal, experimental, refinement or atomic coordinate data resulting 
# from the CCDC's data processing and validation procedures.
#
#######################################################################

data_UQOMIX
_symmetry_cell_setting           triclinic
_symmetry_space_group_name_H-M   'P -1'
_symmetry_Int_Tables_number      2
_space_group_name_Hall           '-P 1'
loop_
_symmetry_equiv_pos_site_id
_symmetry_equiv_pos_as_xyz
1 x,y,z
2 -x,-y,-z
_cell_length_a                   10.4463(3)
_cell_length_b                   10.5482(3)
_cell_length_c                   14.6272(6)
_cell_angle_alpha                76.826(3)
_cell_angle_beta                 76.590(3)
_cell_angle_gamma                86.312(2)
_cell_volume                     1526.45
loop_
_atom_site_label
_atom_site_type_symbol
_atom_site_fract_x
_atom_site_fract_y
_atom_site_fract_z
Cu1 Cu -0.03485(3) 0.66215(3) 0.14311(2)
Cu2 Cu -0.67392(3) 1.30630(3) 0.33238(2)
Cu3 Cu -0.56929(3) 0.84349(3) 0.21509(3)
N1 N -0.0075(2) 0.4852(2) 0.21592(17)
N2 N -0.2102(2) 0.7359(2) 0.23010(18)
N3 N 0.0809(2) 0.7354(2) 0.20596(17)
N4 N -0.5777(2) 1.2014(2) 0.24298(17)
N5 N -0.6374(2) 0.4669(2) 0.23305(16)
S1 S 0.07917(9) 0.23640(7) 0.28828(7)
S2 S -0.45870(7) 0.77341(9) 0.34226(6)
S3 S 0.20899(6) 0.88171(7) 0.29358(6)
S4 S -0.49459(7) 1.04392(6) 0.11096(5)
S5 S -0.55189(7) 0.70441(6) 0.11027(5)
C1 C 0.0285(3) 0.3830(3) 0.24610(19)
C2 C -0.3118(3) 0.7508(2) 0.2759(2)
C3 C 0.1357(2) 0.7950(2) 0.24140(19)
C4 C -0.5421(2) 1.1360(2) 0.18946(19)
C5 C -0.6016(2) 0.5650(2) 0.18390(18)
N6 N -0.1430(2) 0.5897(2) 0.07006(16)
N7 N -0.1997(2) 0.6667(2) 0.00205(16)
N8 N 0.0215(2) 0.8050(2) 0.02365(16)
N9 N -0.0549(2) 0.8445(2) -0.04106(17)
N10 N -0.7676(2) 1.4138(2) 0.42504(16)
N11 N -0.8476(2) 1.3627(2) 0.51130(16)
N12 N -0.7087(2) 1.14551(19) 0.43851(16)
N13 N -0.8020(2) 1.1377(2) 0.52067(17)
C6 C -0.1744(3) 0.4695(3) 0.0715(2)
H1 H -0.1474 0.3951 0.1106
C7 C -0.2520(3) 0.4692(3) 0.0075(2)
H2 H -0.2873 0.3970 -0.0037
C8 C -0.2666(3) 0.5963(3) -0.0361(2)
H3 H -0.3139 0.6280 -0.0833
C9 C -0.1905(3) 0.8065(3) -0.0146(2)
H4 H -0.2343 0.8476 -0.0657
H5 H -0.2343 0.8354 0.0434
C10 C 0.0137(3) 0.9190(3) -0.1222(2)
H6 H -0.0177 0.9574 -0.1767
C11 C 0.1378(3) 0.9281(3) -0.1103(2)
H7 H 0.2075 0.9737 -0.1546
C12 C 0.1390(3) 0.8561(2) -0.0194(2)
H8 H 0.2119 0.8447 0.0081
C13 C -0.7471(3) 1.5353(3) 0.4279(2)
H9 H -0.6940 1.5938 0.3786
C14 C -0.8154(4) 1.5635(3) 0.5139(2)
H10 H -0.8180 1.6423 0.5326
C15 C -0.8774(4) 1.4528(3) 0.5651(2)
H11 H -0.9312 1.4409 0.6267
C16 C -0.9026(3) 1.2370(3) 0.5274(2)
H12 H -0.9544 1.2376 0.4802
H13 H -0.9609 1.2171 0.5908
C17 C -0.7939(4) 1.0220(3) 0.5812(2)
H14 H -0.8480 0.9938 0.6419
C18 C -0.6933(4) 0.9546(3) 0.5381(3)
H15 H -0.6646 0.8711 0.5624
C19 C -0.6413(3) 1.0348(3) 0.4501(2)
H16 H -0.5689 1.0140 0.4052
O1 O -0.4638(2) 1.3369(2) 0.38070(19)
H17 H -0.4729 1.3774 0.4235
C20 C -0.3578(4) 1.3892(4) 0.3043(4)
H18 H -0.3605 1.4825 0.2936
H19 H -0.3649 1.3635 0.2468
H20 H -0.2761 1.3571 0.3208
Cu2_2 Cu -0.67392(3) 0.30630(3) 0.33238(2)
Cu3_2 Cu 0.43071(3) 0.84349(3) 0.21509(3)
N5_2 N -0.6374(2) 1.4669(2) 0.23305(16)
S3_2 S -0.79101(6) 0.88171(7) 0.29358(6)
loop_
_geom_bond_atom_site_label_1
_geom_bond_atom_site_label_2
_geom_bond_site_symmetry_1
_geom_bond_site_symmetry_2
Cu1 N1 1_555 1_555
Cu2 N4 1_555 1_555
Cu3 S2 1_555 1_555
N1 C1 1_555 1_555
N2 Cu1 1_555 1_555
N3 Cu1 1_555 1_555
N4 C4 1_555 1_555
N5 C5 1_555 1_555
S1 C1 1_555 1_555
S2 C2 1_555 1_555
S3 C3 1_555 1_555
S4 Cu3 1_555 1_555
S5 Cu3 1_555 1_555
C2 N2 1_555 1_555
C3 N3 1_555 1_555
C4 S4 1_555 1_555
C5 S5 1_555 1_555
N6 Cu1 1_555 1_555
N7 N6 1_555 1_555
N8 Cu1 1_555 1_555
N9 N8 1_555 1_555
N10 Cu2 1_555 1_555
N11 N10 1_555 1_555
N12 Cu2 1_555 1_555
N13 N12 1_555 1_555
C6 N6 1_555 1_555
H1 C6 1_555 1_555
C7 C6 1_555 1_555
H2 C7 1_555 1_555
C8 N7 1_555 1_555
H3 C8 1_555 1_555
C9 N7 1_555 1_555
H4 C9 1_555 1_555
H5 C9 1_555 1_555
C10 N9 1_555 1_555
H6 C10 1_555 1_555
C11 C10 1_555 1_555
H7 C11 1_555 1_555
C12 N8 1_555 1_555
H8 C12 1_555 1_555
C13 N10 1_555 1_555
H9 C13 1_555 1_555
C14 C13 1_555 1_555
H10 C14 1_555 1_555
C15 N11 1_555 1_555
H11 C15 1_555 1_555
C16 N11 1_555 1_555
H12 C16 1_555 1_555
H13 C16 1_555 1_555
C17 N13 1_555 1_555
H14 C17 1_555 1_555
C18 C17 1_555 1_555
H15 C18 1_555 1_555
C19 N12 1_555 1_555
H16 C19 1_555 1_555
O1 Cu2 1_555 1_555
H17 O1 1_555 1_555
C20 O1 1_555 1_555
H18 C20 1_555 1_555
H19 C20 1_555 1_555
H20 C20 1_555 1_555
Cu2_2 N5 1_555 1_555
Cu3_2 S3 1_555 1_555
N5_2 Cu2 1_555 1_555
S3_2 Cu3 1_555 1_555
N9 C9 1_555 1_555
N13 C16 1_555 1_555
C7 C8 1_555 1_555
C11 C12 1_555 1_555
C14 C15 1_555 1_555
C18 C19 1_555 1_555

#END
