
#######################################################################
#
#                 Cambridge Crystallographic Data Centre
#                                CCDC 
#
#######################################################################
#
# If this CIF has been generated from an entry in the Cambridge 
# Structural Database, then it will include bibliographic, chemical, 
# crystal, experimental, refinement or atomic coordinate data resulting 
# from the CCDC's data processing and validation procedures.
#
#######################################################################

data_UQOQAT
_symmetry_cell_setting           triclinic
_symmetry_space_group_name_H-M   'P -1'
_symmetry_Int_Tables_number      2
_space_group_name_Hall           '-P 1'
loop_
_symmetry_equiv_pos_site_id
_symmetry_equiv_pos_as_xyz
1 x,y,z
2 -x,-y,-z
_cell_length_a                   6.813(3)
_cell_length_b                   9.970(14)
_cell_length_c                   11.580(15)
_cell_angle_alpha                75.07(12)
_cell_angle_beta                 82.84(8)
_cell_angle_gamma                74.75(9)
_cell_volume                     731.896
loop_
_atom_site_label
_atom_site_type_symbol
_atom_site_fract_x
_atom_site_fract_y
_atom_site_fract_z
U1 U 0.31465(2) 0.265308(19) 1.130584(17)
S1 S 0.76914(17) 0.39849(13) 1.11197(11)
O1 O 0.6556(5) 0.2906(4) 1.1077(3)
O2 O 0.6768(5) 0.5354(4) 1.0304(4)
O3 O 0.9816(5) 0.3468(4) 1.0633(3)
O4 O 0.7630(6) 0.4156(4) 1.2325(4)
O5 O 0.3749(5) 0.1528(4) 1.0289(3)
O6 O 0.2552(6) 0.3683(4) 1.2400(4)
O7 O 0.1344(5) 0.1039(4) 1.2513(3)
N1 N 0.5274(6) 0.0567(5) 1.2847(4)
N2 N 0.1779(7) -0.0246(5) 1.2230(4)
C1 C 0.0331(8) -0.0514(6) 1.1682(5)
H1 H -0.0869 0.0179 1.1489
C2 C 0.0657(9) -0.1831(7) 1.1412(5)
H2 H -0.0337 -0.2039 1.1052
C3 C 0.2466(10) -0.2835(6) 1.1681(5)
H3 H 0.2691 -0.3724 1.1505
C4 C 0.3954(9) -0.2518(6) 1.2215(5)
H4 H 0.5180 -0.3190 1.2385
C5 C 0.3610(8) -0.1197(5) 1.2494(5)
C6 C 0.5095(8) -0.0812(6) 1.3114(5)
C7 C 0.6239(9) -0.1881(7) 1.3969(5)
H5 H 0.6137 -0.2821 1.4104
C8 C 0.7523(9) -0.1536(7) 1.4616(6)
H6 H 0.8312 -0.2237 1.5186
C9 C 0.7610(8) -0.0114(7) 1.4396(5)
H7 H 0.8409 0.0161 1.4845
C10 C 0.6501(8) 0.0879(6) 1.3508(5)
H8 H 0.6607 0.1820 1.3355
U1A U 0.68535(2) 0.734692(19) 0.869416(17)
U1_2 U 1.31465(2) 0.265308(19) 1.130584(17)
O2A O 0.3232(5) 0.4646(4) 0.9696(4)
O3_2 O -0.0184(5) 0.3468(4) 1.0633(3)
O8 O 0.3789(16) 0.5519(11) 0.5336(9)
O9? O 0.975(2) 0.4865(15) 0.5719(12)
O10? O 0.2513(17) 0.6192(12) 0.5227(10)
loop_
_geom_bond_atom_site_label_1
_geom_bond_atom_site_label_2
_geom_bond_site_symmetry_1
_geom_bond_site_symmetry_2
U1 O1 1_555 1_555
S1 O1 1_555 1_555
O2 S1 1_555 1_555
O3 S1 1_555 1_555
O4 S1 1_555 1_555
O5 U1 1_555 1_555
O6 U1 1_555 1_555
O7 U1 1_555 1_555
N1 U1 1_555 1_555
N2 O7 1_555 1_555
C1 N2 1_555 1_555
H1 C1 1_555 1_555
C2 C1 1_555 1_555
H2 C2 1_555 1_555
C3 C2 1_555 1_555
H3 C3 1_555 1_555
C4 C3 1_555 1_555
H4 C4 1_555 1_555
C5 N2 1_555 1_555
C6 N1 1_555 1_555
C7 C6 1_555 1_555
H5 C7 1_555 1_555
C8 C7 1_555 1_555
H6 C8 1_555 1_555
C9 C8 1_555 1_555
H7 C9 1_555 1_555
C10 N1 1_555 1_555
H8 C10 1_555 1_555
U1A O2 1_555 1_555
U1_2 O3 1_555 1_555
O2A U1 1_555 1_555
O3_2 U1 1_555 1_555
C4 C5 1_555 1_555
C5 C6 1_555 1_555
C9 C10 1_555 1_555

#END
