
#######################################################################
#
#                 Cambridge Crystallographic Data Centre
#                                CCDC 
#
#######################################################################
#
# If this CIF has been generated from an entry in the Cambridge 
# Structural Database, then it will include bibliographic, chemical, 
# crystal, experimental, refinement or atomic coordinate data resulting 
# from the CCDC's data processing and validation procedures.
#
#######################################################################

data_UQOROI
_symmetry_cell_setting           monoclinic
_symmetry_space_group_name_H-M   'C 2/c'
_symmetry_Int_Tables_number      15
_space_group_name_Hall           '-C 2yn'
loop_
_symmetry_equiv_pos_site_id
_symmetry_equiv_pos_as_xyz
1 x,y,z
2 -x,y,1/2-z
3 1/2+x,1/2+y,z
4 1/2-x,1/2+y,1/2-z
5 -x,-y,-z
6 x,-y,1/2+z
7 1/2-x,1/2-y,-z
8 1/2+x,1/2-y,1/2+z
_cell_length_a                   12.334(3)
_cell_length_b                   7.8400(16)
_cell_length_c                   15.597(4)
_cell_angle_alpha                90
_cell_angle_beta                 101.620(5)
_cell_angle_gamma                90
_cell_volume                     1477.3
loop_
_atom_site_label
_atom_site_type_symbol
_atom_site_fract_x
_atom_site_fract_y
_atom_site_fract_z
Zn1 Zn 0.55628(3) 0.17250(4) 0.664715(17)
Cl1 Cl 0.72888(6) 0.16689(10) 0.64551(5)
O1 O 0.5000 0.3036(3) 0.7500
H1 H 0.5000 0.4080(14) 0.7500
N1 N 0.46320(18) 0.2508(3) 0.54634(13)
N2 N 0.5000 0.3278(3) 0.2500
N3 N 0.48388(19) 0.0570(3) 0.28973(13)
C1 C 0.3807(2) 0.3635(3) 0.54393(17)
H2 H 0.3593 0.3922 0.5959
C2 C 0.3268(2) 0.4380(4) 0.46739(17)
H3 H 0.2712 0.5177 0.4682
C3 C 0.3556(2) 0.3938(3) 0.38938(17)
H4 H 0.3197 0.4426 0.3370
C4 C 0.4398(2) 0.2742(3) 0.39067(15)
C5 C 0.4917(2) 0.2088(3) 0.47028(16)
H5 H 0.5494 0.1318 0.4715
C6 C 0.4747(2) 0.2209(3) 0.31004(15)
Zn1A Zn 0.44372(3) 0.17250(4) -0.164715(17)
Zn1A_2 Zn 0.44372(3) 0.17250(4) 0.835285(17)
Zn1D Zn 0.44372(3) -0.17250(4) 0.335285(17)
Zn1E Zn 0.55628(3) -0.17250(4) 0.164715(17)
Cl1A Cl 0.27112(6) 0.16689(10) -0.14551(5)
O1_2 O 0.5000 0.3036(3) -0.2500
N1A N 0.53680(18) 0.2508(3) -0.04634(13)
N3A N 0.51612(19) 0.0570(3) 0.21027(13)
N3D N 0.51612(19) -0.0570(3) 0.71027(13)
N3E N 0.48388(19) -0.0570(3) -0.21027(13)
C1A C 0.6193(2) 0.3635(3) -0.04393(17)
H2A H 0.6407 0.3922 -0.0959
C2A C 0.6732(2) 0.4380(4) 0.03261(17)
H3A H 0.7288 0.5177 0.0318
C3A C 0.6444(2) 0.3938(3) 0.11062(17)
H4A H 0.6803 0.4426 0.1630
C4A C 0.5602(2) 0.2742(3) 0.10933(15)
C5A C 0.5083(2) 0.2088(3) 0.02972(16)
H5A H 0.4506 0.1318 0.0285
C6A C 0.5253(2) 0.2209(3) 0.18996(15)
loop_
_geom_bond_atom_site_label_1
_geom_bond_atom_site_label_2
_geom_bond_site_symmetry_1
_geom_bond_site_symmetry_2
Zn1 Cl1 1_555 1_555
O1 Zn1 1_555 1_555
H1 O1 1_555 1_555
N1 Zn1 1_555 1_555
N2 C6 1_555 1_555
N3 C6 1_555 1_555
C1 N1 1_555 1_555
H2 C1 1_555 1_555
C2 C1 1_555 1_555
H3 C2 1_555 1_555
C3 C2 1_555 1_555
H4 C3 1_555 1_555
C4 C3 1_555 1_555
C5 N1 1_555 1_555
H5 C5 1_555 1_555
C6 C4 1_555 1_555
Zn1A Cl1A 1_555 1_555
Zn1A_2 O1 1_555 1_555
Zn1D N3 1_555 1_555
Zn1E N3A 1_555 1_555
O1_2 Zn1A 1_555 1_555
N1A Zn1A 1_555 1_555
N3A N3 1_555 1_555
N3D Zn1 1_555 1_555
N3E Zn1A 1_555 1_555
C1A N1A 1_555 1_555
H2A C1A 1_555 1_555
C2A C1A 1_555 1_555
H3A C2A 1_555 1_555
C3A C2A 1_555 1_555
H4A C3A 1_555 1_555
C4A C3A 1_555 1_555
C5A N1A 1_555 1_555
H5A C5A 1_555 1_555
C6A N2 1_555 1_555
C4 C5 1_555 1_555
N3A C6A 1_555 1_555
C4A C5A 1_555 1_555
C4A C6A 1_555 1_555

#END
