
#######################################################################
#
#                 Cambridge Crystallographic Data Centre
#                                CCDC 
#
#######################################################################
#
# If this CIF has been generated from an entry in the Cambridge 
# Structural Database, then it will include bibliographic, chemical, 
# crystal, experimental, refinement or atomic coordinate data resulting 
# from the CCDC's data processing and validation procedures.
#
#######################################################################

data_UQOSEZ
_symmetry_cell_setting           monoclinic
_symmetry_space_group_name_H-M   'P 21/n'
_symmetry_Int_Tables_number      14
_space_group_name_Hall           '-P 2yn'
loop_
_symmetry_equiv_pos_site_id
_symmetry_equiv_pos_as_xyz
1 x,y,z
2 1/2-x,1/2+y,1/2-z
3 -x,-y,-z
4 1/2+x,1/2-y,1/2+z
_cell_length_a                   13.2947(13)
_cell_length_b                   17.4730(18)
_cell_length_c                   16.5991(18)
_cell_angle_alpha                90
_cell_angle_beta                 95.015(3)
_cell_angle_gamma                90
_cell_volume                     3841.18
loop_
_atom_site_label
_atom_site_type_symbol
_atom_site_fract_x
_atom_site_fract_y
_atom_site_fract_z
Zn1 Zn 0.74203(3) 0.36087(2) 0.72624(2)
S1 S 0.56604(6) 0.50261(5) 0.71165(5)
O1 O 0.64554(17) 0.45221(15) 0.74868(15)
O2 O 0.53488(17) 0.55440(15) 0.77542(14)
O3 O 0.47771(17) 0.45585(15) 0.68164(15)
O4 O 0.6007(2) 0.54669(17) 0.64522(16)
O5 O 0.83955(19) 0.44036(15) 0.68099(17)
H1 H 0.827(2) 0.4858(9) 0.672(3)
H2 H 0.9009(9) 0.437(2) 0.690(3)
O6 O 0.85406(16) 0.27241(14) 0.71692(14)
H3 H 0.861(2) 0.249(2) 0.6753(14)
H4 H 0.9111(13) 0.285(2) 0.7353(19)
O7 O 0.63641(18) 0.28166(16) 0.77509(16)
H5 H 0.5780(12) 0.2938(19) 0.780(3)
H6 H 0.638(3) 0.2357(7) 0.767(3)
N1 N 0.80897(19) 0.37155(15) 0.84621(16)
N2 N 0.86803(19) 0.59452(16) 0.94551(15)
N3 N 0.89924(19) 0.54237(16) 1.06980(16)
N4 N 0.9027(2) 0.61949(15) 1.07414(15)
H21 H 0.9155 0.6458 1.1191
N5 N 0.8223(2) 0.83126(17) 0.89053(16)
C1 C 0.8257(2) 0.30995(19) 0.8940(2)
H23 H 0.8134 0.2605 0.8714
C2 C 0.8602(2) 0.3159(2) 0.9746(2)
H24 H 0.8709 0.2713 1.0069
C3 C 0.8790(2) 0.3878(2) 1.00785(19)
H25 H 0.9023 0.3931 1.0633
C4 C 0.8633(2) 0.45215(18) 0.95895(18)
C5 C 0.8283(2) 0.44082(18) 0.87834(18)
H26 H 0.8176 0.4844 0.8445
C6 C 0.8779(2) 0.52962(19) 0.99122(18)
C7 C 0.8837(2) 0.65043(19) 1.00010(18)
C8 C 0.8778(2) 0.73240(19) 0.98435(18)
C9 C 0.9069(3) 0.7874(2) 1.04257(19)
H27 H 0.9373 0.7726 1.0942
C10 C 0.8908(3) 0.8636(2) 1.0239(2)
H28 H 0.9089 0.9020 1.0631
C11 C 0.8480(3) 0.8838(2) 0.9477(2)
H29 H 0.8365 0.9363 0.9356
C12 C 0.8366(2) 0.75779(19) 0.90913(19)
H30 H 0.8176 0.7206 0.8689
Zn1A Zn 0.75797(3) 0.86087(2) 0.77376(2)
N5A N 0.6777(2) 0.33126(17) 0.60947(16)
Zn2 Zn 0.25132(3) 0.62047(2) 0.76061(2)
O8 O 0.20157(17) 0.72906(13) 0.79986(15)
H7 H 0.1507(15) 0.7513(17) 0.781(2)
H8 H 0.2420(19) 0.7617(14) 0.818(2)
O9 O 0.39105(16) 0.66262(13) 0.73084(14)
H9 H 0.414(2) 0.7064(8) 0.736(2)
H10 H 0.4368(18) 0.6333(13) 0.745(2)
O10 O 0.29578(17) 0.51336(13) 0.72018(15)
H11 H 0.3519(13) 0.4994(17) 0.709(2)
H12 H 0.264(2) 0.4749(12) 0.730(2)
O11 O 0.11525(17) 0.57003(14) 0.79196(15)
H13 H 0.0539(12) 0.5867(17) 0.780(2)
H14 H 0.107(2) 0.5245(7) 0.800(2)
N6 N 0.32029(19) 0.59705(16) 0.88195(15)
N7 N 0.36115(19) 0.36591(14) 0.95239(15)
N8 N 0.38926(19) 0.39539(15) 1.08114(15)
H22 H 0.3987 0.4231 1.1255
N9 N 0.39007(19) 0.31771(15) 1.07845(15)
N10 N 0.3211(2) 0.14083(16) 0.85760(16)
C13 C 0.3524(2) 0.65232(19) 0.93489(19)
H31 H 0.3501 0.7040 0.9169
C14 C 0.3885(2) 0.63752(18) 1.0139(2)
H32 H 0.4084 0.6783 1.0497
C15 C 0.3951(2) 0.56246(18) 1.04015(18)
H33 H 0.4189 0.5506 1.0943
C16 C 0.3660(2) 0.50476(17) 0.98534(18)
C17 C 0.3281(2) 0.52480(18) 0.90759(18)
H34 H 0.3068 0.4851 0.8709
C18 C 0.3719(2) 0.42355(17) 1.00607(17)
C19 C 0.3735(2) 0.30263(17) 0.99988(17)
C20 C 0.3707(2) 0.22484(18) 0.96823(18)
C21 C 0.4147(3) 0.1641(2) 1.0120(2)
H35 H 0.4475 0.1720 1.0646
C22 C 0.4101(3) 0.0922(2) 0.9781(2)
H36 H 0.4381 0.0495 1.0077
C23 C 0.3647(3) 0.0826(2) 0.9008(2)
H37 H 0.3641 0.0331 0.8772
C24 C 0.3233(2) 0.20999(18) 0.89177(18)
H38 H 0.2910 0.2511 0.8624
Zn2A Zn 0.24868(3) 0.12047(2) 0.73939(2)
N10A N 0.1789(2) 0.64083(16) 0.64240(16)
S2 S 0.10378(6) 0.36433(4) 0.71760(5)
O12 O 0.1930(2) 0.39461(17) 0.76486(16)
O13 O 0.0385(2) 0.42506(16) 0.6840(2)
O14 O 0.1358(2) 0.31685(15) 0.65163(15)
O15 O 0.04863(16) 0.31493(13) 0.77296(13)
O16 O 0.4388(2) 0.33471(17) 0.78537(17)
H15 H 0.439(4) 0.3730(14) 0.7562(19)
H16 H 0.424(3) 0.350(2) 0.8296(12)
O17 O 0.7107(5) 0.1439(4) 0.0043(4)
O19 O 0.7037(2) 0.0934(3) 0.8496(2)
H17 H 0.7633(13) 0.084(3) 0.847(4)
H18 H 0.696(4) 0.1398(8) 0.847(4)
O20 O 0.5814(3) 0.1323(2) 0.7208(2)
H19 H 0.626(3) 0.112(3) 0.752(2)
H20 H 0.600(4) 0.123(3) 0.6752(12)
O21 O 0.3816(8) 0.4406(6) 0.5257(6)
O18? O 0.6835(5) 0.1051(4) 0.0088(4)
O22? O 0.3898(8) 0.4099(6) 0.5247(6)
O23? O 0.3168(7) 0.3970(6) 0.5399(6)
loop_
_geom_bond_atom_site_label_1
_geom_bond_atom_site_label_2
_geom_bond_site_symmetry_1
_geom_bond_site_symmetry_2
Zn1 O1 1_555 1_555
Zn2 O8 1_555 1_555
S1 O1 1_555 1_555
S2 O12 1_555 1_555
O2 S1 1_555 1_555
O3 S1 1_555 1_555
O4 S1 1_555 1_555
O5 Zn1 1_555 1_555
H1 O5 1_555 1_555
H2 O5 1_555 1_555
O6 Zn1 1_555 1_555
H3 O6 1_555 1_555
H4 O6 1_555 1_555
O7 Zn1 1_555 1_555
H5 O7 1_555 1_555
H6 O7 1_555 1_555
O8 H7 1_555 1_555
H8 O8 1_555 1_555
O9 Zn2 1_555 1_555
H9 O9 1_555 1_555
H10 O9 1_555 1_555
O10 Zn2 1_555 1_555
H11 O10 1_555 1_555
H12 O10 1_555 1_555
O11 Zn2 1_555 1_555
H13 O11 1_555 1_555
H14 O11 1_555 1_555
O13 S2 1_555 1_555
O14 S2 1_555 1_555
O15 S2 1_555 1_555
O16 H15 1_555 1_555
H16 O16 1_555 1_555
O19 H17 1_555 1_555
H18 O19 1_555 1_555
O20 H19 1_555 1_555
H20 O20 1_555 1_555
N1 Zn1 1_555 1_555
N2 C6 1_555 1_555
N3 N4 1_555 1_555
N4 H21 1_555 1_555
N5 C11 1_555 1_555
N6 Zn2 1_555 1_555
N7 C18 1_555 1_555
N8 H22 1_555 1_555
N9 N8 1_555 1_555
N10 C23 1_555 1_555
C1 N1 1_555 1_555
H23 C1 1_555 1_555
C2 C1 1_555 1_555
H24 C2 1_555 1_555
C3 C2 1_555 1_555
H25 C3 1_555 1_555
C4 C3 1_555 1_555
C5 N1 1_555 1_555
H26 C5 1_555 1_555
C6 N3 1_555 1_555
C7 N2 1_555 1_555
C8 C7 1_555 1_555
C9 C8 1_555 1_555
H27 C9 1_555 1_555
C10 C9 1_555 1_555
H28 C10 1_555 1_555
C11 C10 1_555 1_555
H29 C11 1_555 1_555
C12 N5 1_555 1_555
H30 C12 1_555 1_555
C13 N6 1_555 1_555
H31 C13 1_555 1_555
C14 C13 1_555 1_555
H32 C14 1_555 1_555
C15 C14 1_555 1_555
H33 C15 1_555 1_555
C16 C15 1_555 1_555
C17 N6 1_555 1_555
H34 C17 1_555 1_555
C18 N8 1_555 1_555
C19 N7 1_555 1_555
C20 C19 1_555 1_555
C21 C20 1_555 1_555
H35 C21 1_555 1_555
C22 C21 1_555 1_555
H36 C22 1_555 1_555
C23 C22 1_555 1_555
H37 C23 1_555 1_555
C24 N10 1_555 1_555
H38 C24 1_555 1_555
Zn1A N5 1_555 1_555
Zn2A N10 1_555 1_555
N5A Zn1 1_555 1_555
N10A Zn2 1_555 1_555
N4 C7 1_555 1_555
N9 C19 1_555 1_555
C4 C5 1_555 1_555
C4 C6 1_555 1_555
C8 C12 1_555 1_555
C16 C17 1_555 1_555
C16 C18 1_555 1_555
C20 C24 1_555 1_555

#END
