
#######################################################################
#
#                 Cambridge Crystallographic Data Centre
#                                CCDC 
#
#######################################################################
#
# If this CIF has been generated from an entry in the Cambridge 
# Structural Database, then it will include bibliographic, chemical, 
# crystal, experimental, refinement or atomic coordinate data resulting 
# from the CCDC's data processing and validation procedures.
#
#######################################################################

data_UQOSID
_symmetry_cell_setting           monoclinic
_symmetry_space_group_name_H-M   'P 21/n'
_symmetry_Int_Tables_number      14
_space_group_name_Hall           '-P 2yn'
loop_
_symmetry_equiv_pos_site_id
_symmetry_equiv_pos_as_xyz
1 x,y,z
2 1/2-x,1/2+y,1/2-z
3 -x,-y,-z
4 1/2+x,1/2-y,1/2+z
_cell_length_a                   7.293(7)
_cell_length_b                   15.308(13)
_cell_length_c                   13.087(9)
_cell_angle_alpha                90
_cell_angle_beta                 101.46(3)
_cell_angle_gamma                90
_cell_volume                     1431.92
loop_
_atom_site_label
_atom_site_type_symbol
_atom_site_fract_x
_atom_site_fract_y
_atom_site_fract_z
Zn1 Zn 0.71824(7) 0.41009(3) 0.59876(4)
Zn2 Zn 0.93322(7) 0.47476(3) 0.23300(4)
S1 S 0.65399(15) 0.49901(7) 0.38304(8)
O1 O 0.7843(4) 0.46679(19) 0.4767(2)
O2 O 0.7687(5) 0.5342(2) 0.3114(3)
O3 O 0.5504(4) 0.57471(19) 0.4145(2)
O4 O 0.5298(5) 0.4310(2) 0.3367(3)
O5 O 0.8532(4) 0.4484(2) 0.7317(2)
H1 H 0.779(6) 0.451(3) 0.771(3)
N1 N 0.7350(5) 0.2823(2) 0.5647(3)
N2 N 1.0018(5) -0.3557(2) 0.6998(3)
N3 N 0.6885(5) -0.0341(2) 0.4173(3)
N4 N 0.7298(5) -0.1201(2) 0.4389(3)
N5 N 0.8255(5) -0.0426(2) 0.5850(3)
C1 C 0.8213(7) 0.2250(3) 0.6362(4)
H2 H 0.8794 0.2460 0.7013
C2 C 0.8273(7) 0.1381(3) 0.6178(4)
H3 H 0.8903 0.1009 0.6692
C3 C 0.7391(6) 0.1043(3) 0.5216(3)
C4 C 0.6518(6) 0.1628(3) 0.4477(4)
H4 H 0.5924 0.1434 0.3821
C5 C 0.6534(6) 0.2502(3) 0.4721(4)
H5 H 0.5945 0.2889 0.4213
C6 C 0.8904(7) -0.3570(3) 0.6050(4)
H6 H 0.8539 -0.4109 0.5747
C7 C 0.8279(7) -0.2825(3) 0.5504(4)
H7 H 0.7520 -0.2864 0.4845
C8 C 0.8781(6) -0.2023(3) 0.5939(3)
C9 C 0.9968(7) -0.2008(3) 0.6909(3)
H8 H 1.0371 -0.1478 0.7223
C10 C 1.0538(7) -0.2774(3) 0.7400(3)
H9 H 1.1333 -0.2750 0.8050
C11 C 0.7475(6) 0.0098(3) 0.5063(3)
C12 C 0.8123(6) -0.1220(3) 0.5389(3)
Zn1B Zn 0.28176(7) 0.58991(3) 0.40124(4)
Zn2B Zn 0.06678(7) 0.52524(3) 0.76700(4)
Zn2_2 Zn -0.06678(7) 0.47476(3) 0.23300(4)
Zn2_3 Zn -0.06678(7) 1.47476(3) 0.23300(4)
Zn2A Zn 0.56678(7) -0.02524(3) 0.26700(4)
Zn2B_2 Zn 1.06678(7) -0.47476(3) 0.76700(4)
Zn2B_3 Zn 1.06678(7) 0.52524(3) 0.76700(4)
Zn2C Zn 0.43322(7) 1.02524(3) 0.73300(4)
S1B S 0.34601(15) 0.50099(7) 0.61696(8)
O1B O 0.2157(4) 0.53321(19) 0.5233(2)
O2B O 0.2313(5) 0.4658(2) 0.6886(3)
O3B O 0.4496(4) 0.42529(19) 0.5855(2)
O4B O 0.4702(5) 0.5690(2) 0.6633(3)
O5B O 0.1468(4) 0.5516(2) 0.2683(2)
O5_2 O -0.1468(4) 0.4484(2) 0.7317(2)
O5B_2 O 1.1468(4) 0.5516(2) 0.2683(2)
H1B H 0.221(6) 0.549(3) 0.229(3)
N1B N 0.2650(5) 0.7177(2) 0.4353(3)
N2B N -0.0018(5) 1.3557(2) 0.3002(3)
N2_2 N 0.0018(5) 0.6443(2) 0.6998(3)
N2B_2 N 0.9982(5) 0.3557(2) 0.3002(3)
N3B N 0.3115(5) 1.0341(2) 0.5827(3)
N3A N 0.8115(5) 0.4659(2) 0.0827(3)
N3C N 0.1885(5) 0.5341(2) 0.9173(3)
N4B N 0.2702(5) 1.1201(2) 0.5611(3)
N5B N 0.1745(5) 1.0426(2) 0.4150(3)
C1B C 0.1787(7) 0.7750(3) 0.3638(4)
H2B H 0.1206 0.7540 0.2987
C2B C 0.1727(7) 0.8619(3) 0.3822(4)
H3B H 0.1097 0.8991 0.3308
C3B C 0.2609(6) 0.8957(3) 0.4784(3)
C4B C 0.3482(6) 0.8372(3) 0.5523(4)
H4B H 0.4076 0.8566 0.6179
C5B C 0.3466(6) 0.7498(3) 0.5279(4)
H5B H 0.4055 0.7111 0.5787
C6B C 0.1096(7) 1.3570(3) 0.3950(4)
H6B H 0.1461 1.4109 0.4253
C7B C 0.1721(7) 1.2825(3) 0.4496(4)
H7B H 0.2480 1.2864 0.5155
C8B C 0.1219(6) 1.2023(3) 0.4061(3)
C9B C 0.0032(7) 1.2008(3) 0.3091(3)
H8B H -0.0371 1.1478 0.2777
C10B C -0.0538(7) 1.2774(3) 0.2600(3)
H9B H -0.1333 1.2750 0.1950
C11B C 0.2525(6) 0.9902(3) 0.4937(3)
C12B C 0.1877(6) 1.1220(3) 0.4611(3)
loop_
_geom_bond_atom_site_label_1
_geom_bond_atom_site_label_2
_geom_bond_site_symmetry_1
_geom_bond_site_symmetry_2
Zn1 O1 1_555 1_555
Zn2 O2 1_555 1_555
S1 O1 1_555 1_555
O2 S1 1_555 1_555
O3 S1 1_555 1_555
O4 S1 1_555 1_555
O5 Zn1 1_555 1_555
H1 O5 1_555 1_555
N1 Zn1 1_555 1_555
N2 C6 1_555 1_555
N3 N4 1_555 1_555
N4 C12 1_555 1_555
N5 C11 1_555 1_555
C1 N1 1_555 1_555
H2 C1 1_555 1_555
C2 C1 1_555 1_555
H3 C2 1_555 1_555
C3 C2 1_555 1_555
C4 C3 1_555 1_555
H4 C4 1_555 1_555
C5 N1 1_555 1_555
H5 C5 1_555 1_555
C6 H6 1_555 1_555
C7 C6 1_555 1_555
H7 C7 1_555 1_555
C8 C7 1_555 1_555
C9 C8 1_555 1_555
H8 C9 1_555 1_555
C10 N2 1_555 1_555
H9 C10 1_555 1_555
C11 N3 1_555 1_555
C12 N5 1_555 1_555
Zn1B O3 1_555 1_555
Zn2B O2B 1_555 1_555
Zn2_2 O5B 1_555 1_555
Zn2_3 N2B 1_555 1_555
Zn2A N3 1_555 1_555
Zn2B_2 N2 1_555 1_555
Zn2B_3 O5 1_555 1_555
Zn2C N3B 1_555 1_555
S1B O1B 1_555 1_555
O1B Zn1B 1_555 1_555
O2B S1B 1_555 1_555
O3B Zn1 1_555 1_555
O4B S1B 1_555 1_555
O5B Zn1B 1_555 1_555
O5_2 Zn2B 1_555 1_555
O5B_2 Zn2 1_555 1_555
H1B O5B 1_555 1_555
N1B Zn1B 1_555 1_555
N2B C6B 1_555 1_555
N2_2 Zn2B 1_555 1_555
N2B_2 Zn2 1_555 1_555
N3B N4B 1_555 1_555
N3A Zn2 1_555 1_555
N3C Zn2B 1_555 1_555
N4B C12B 1_555 1_555
N5B C11B 1_555 1_555
C1B N1B 1_555 1_555
H2B C1B 1_555 1_555
C2B C1B 1_555 1_555
H3B C2B 1_555 1_555
C3B C2B 1_555 1_555
C4B C3B 1_555 1_555
H4B C4B 1_555 1_555
C5B N1B 1_555 1_555
H5B C5B 1_555 1_555
C6B H6B 1_555 1_555
C7B C6B 1_555 1_555
H7B C7B 1_555 1_555
C8B C7B 1_555 1_555
C9B C8B 1_555 1_555
H8B C9B 1_555 1_555
C10B N2B 1_555 1_555
H9B C10B 1_555 1_555
C11B N3B 1_555 1_555
C12B N5B 1_555 1_555
C3 C11 1_555 1_555
C4 C5 1_555 1_555
C8 C12 1_555 1_555
C9 C10 1_555 1_555
S1B O3B 1_555 1_555
C3B C11B 1_555 1_555
C4B C5B 1_555 1_555
C8B C12B 1_555 1_555
C9B C10B 1_555 1_555

#END
