
#######################################################################
#
#                 Cambridge Crystallographic Data Centre
#                                CCDC 
#
#######################################################################
#
# If this CIF has been generated from an entry in the Cambridge 
# Structural Database, then it will include bibliographic, chemical, 
# crystal, experimental, refinement or atomic coordinate data resulting 
# from the CCDC's data processing and validation procedures.
#
#######################################################################

data_UQOSOJ
_symmetry_cell_setting           orthorhombic
_symmetry_space_group_name_H-M   'P b c a'
_symmetry_Int_Tables_number      61
_space_group_name_Hall           '-P 2ac 2ab'
loop_
_symmetry_equiv_pos_site_id
_symmetry_equiv_pos_as_xyz
1 x,y,z
2 1/2-x,-y,1/2+z
3 1/2+x,1/2-y,-z
4 -x,1/2+y,1/2-z
5 -x,-y,-z
6 1/2+x,y,1/2-z
7 1/2-x,1/2+y,z
8 x,1/2-y,1/2+z
_cell_length_a                   14.900(3)
_cell_length_b                   7.6852(14)
_cell_length_c                   23.142(5)
_cell_angle_alpha                90
_cell_angle_beta                 90
_cell_angle_gamma                90
_cell_volume                     2649.98
loop_
_atom_site_label
_atom_site_type_symbol
_atom_site_fract_x
_atom_site_fract_y
_atom_site_fract_z
Zn1 Zn 0.56586(3) 0.09418(5) 0.370418(17)
Cl1 Cl 0.61077(8) -0.16939(13) 0.34446(5)
N1 N 0.39598(18) -0.2424(4) 0.19587(12)
N2 N 0.13770(18) 0.3239(4) 0.56065(13)
N3 N 0.43487(18) 0.1175(4) 0.37985(13)
N4 N 0.40183(19) 0.1906(4) 0.42931(12)
N5 N 0.28825(18) 0.0602(4) 0.38133(12)
C1 C 0.3416(3) -0.2972(5) 0.23812(18)
H1 H 0.3106 -0.4026 0.2328
C2 C 0.3286(3) -0.2082(6) 0.28846(17)
H2 H 0.2895 -0.2520 0.3168
C3 C 0.3736(2) -0.0531(5) 0.29752(14)
C4 C 0.4269(2) 0.0084(5) 0.25284(15)
H3 H 0.4565 0.1158 0.2563
C5 C 0.4361(2) -0.0896(5) 0.20319(16)
H4 H 0.4724 -0.0462 0.1732
C6 C 0.2271(2) 0.3403(5) 0.56558(16)
H5 H 0.2506 0.3908 0.5993
C7 C 0.2854(2) 0.2867(4) 0.52351(15)
H6 H 0.3475 0.3002 0.5288
C8 C 0.2531(2) 0.2129(4) 0.47330(14)
C9 C 0.1603(2) 0.1966(5) 0.46761(16)
H7 H 0.1352 0.1480 0.4340
C10 C 0.1058(2) 0.2530(5) 0.51198(16)
H8 H 0.0434 0.2410 0.5079
C11 C 0.3650(2) 0.0408(5) 0.35270(14)
C12 C 0.3144(2) 0.1543(4) 0.42769(14)
Zn1B Zn 0.06586(3) 0.40582(5) 0.629582(17)
Zn1C Zn 0.43414(3) -0.40582(5) 0.129582(17)
N1C N 0.60402(18) 0.2576(4) 0.30413(12)
N2B N 0.63770(18) 0.1761(4) 0.43935(13)
loop_
_geom_bond_atom_site_label_1
_geom_bond_atom_site_label_2
_geom_bond_site_symmetry_1
_geom_bond_site_symmetry_2
Zn1 Cl1 1_555 1_555
N1 C1 1_555 1_555
N2 C6 1_555 1_555
N3 Zn1 1_555 1_555
N4 N3 1_555 1_555
N5 C11 1_555 1_555
C1 H1 1_555 1_555
C2 C1 1_555 1_555
H2 C2 1_555 1_555
C3 C2 1_555 1_555
C4 C3 1_555 1_555
H3 C4 1_555 1_555
C5 N1 1_555 1_555
H4 C5 1_555 1_555
C6 H5 1_555 1_555
C7 C6 1_555 1_555
H6 C7 1_555 1_555
C8 C7 1_555 1_555
C9 C8 1_555 1_555
H7 C9 1_555 1_555
C10 N2 1_555 1_555
H8 C10 1_555 1_555
C11 N3 1_555 1_555
C12 N4 1_555 1_555
Zn1B N2 1_555 1_555
Zn1C N1 1_555 1_555
N1C Zn1 1_555 1_555
N2B Zn1 1_555 1_555
N5 C12 1_555 1_555
C3 C11 1_555 1_555
C4 C5 1_555 1_555
C8 C12 1_555 1_555
C9 C10 1_555 1_555

#END
