
#######################################################################
#
#                 Cambridge Crystallographic Data Centre
#                                CCDC 
#
#######################################################################
#
# If this CIF has been generated from an entry in the Cambridge 
# Structural Database, then it will include bibliographic, chemical, 
# crystal, experimental, refinement or atomic coordinate data resulting 
# from the CCDC's data processing and validation procedures.
#
#######################################################################

data_UQOTEA
_symmetry_cell_setting           monoclinic
_symmetry_space_group_name_H-M   'P 21/n'
_symmetry_Int_Tables_number      14
_space_group_name_Hall           '-P 2yn'
loop_
_symmetry_equiv_pos_site_id
_symmetry_equiv_pos_as_xyz
1 x,y,z
2 1/2-x,1/2+y,1/2-z
3 -x,-y,-z
4 1/2+x,1/2-y,1/2+z
_cell_length_a                   9.4515(9)
_cell_length_b                   25.829(5)
_cell_length_c                   20.192(7)
_cell_angle_alpha                90
_cell_angle_beta                 94.017(8)
_cell_angle_gamma                90
_cell_volume                     4917.22
loop_
_atom_site_label
_atom_site_type_symbol
_atom_site_fract_x
_atom_site_fract_y
_atom_site_fract_z
Ag1 Ag 0.45936(3) 0.572172(13) 0.506156(15)
Ag2 Ag 0.47599(3) 0.586801(13) 0.352682(16)
Ag3 Ag 0.52886(3) 0.446748(13) 0.334580(14)
Ag4 Ag 0.55286(3) 0.458391(13) 0.182057(14)
Ag5 Ag 0.46941(3) 0.558830(12) -0.021388(14)
I1 I 0.67339(2) 0.519123(9) 0.433851(11)
I2 I 0.24304(2) 0.613948(9) 0.423222(12)
I3 I 0.34798(2) 0.517435(9) 0.250991(11)
I4 I 0.76508(2) 0.417385(9) 0.267845(11)
I5 I 0.65819(2) 0.537370(9) 0.092212(11)
S1 S 0.61753(9) 0.61601(3) 0.60064(4)
S2 S 0.23599(9) 0.59790(3) 0.00418(4)
S3 S 0.38620(9) 0.39898(3) 0.10876(4)
S4 S 0.64009(9) 0.65130(4) 0.30665(5)
N1 N 0.8107(3) 0.53565(13) 0.60630(15)
H1 H 0.755(5) 0.5118(16) 0.622(2)
N2 N 0.8898(3) 0.60495(12) 0.56312(14)
N3 N 0.3671(4) 0.62495(13) 0.12557(16)
H2 H 0.425(5) 0.6041(19) 0.124(2)
N4 N 0.1806(3) 0.67009(11) 0.09809(14)
N5 N 0.1987(3) 0.47931(11) 0.07714(14)
H3 H 0.260(4) 0.4988(17) 0.055(2)
N6 N 0.1084(3) 0.41793(11) 0.13242(13)
N7 N 0.7985(3) 0.56565(12) 0.27597(15)
H4 H 0.726(5) 0.540(2) 0.282(2)
N8 N 0.9014(3) 0.63839(11) 0.26022(15)
C1 C 0.7748(3) 0.58445(14) 0.58985(16)
C2 C 0.9468(4) 0.52453(16) 0.58947(19)
H5 H 0.9952 0.4924 0.5954
C3 C 0.9975(4) 0.56825(16) 0.56296(18)
H6 H 1.0890 0.5730 0.5473
C4 C 0.9017(4) 0.65723(14) 0.53806(17)
C5 C 0.9832(4) 0.69271(18) 0.5759(2)
H7 H 1.0299 0.6830 0.6172
C6 C 0.9945(5) 0.74278(19) 0.5516(3)
H8 H 1.0474 0.7679 0.5772
C7 C 0.9298(5) 0.75639(18) 0.4908(3)
H9 H 0.9396 0.7906 0.4746
C8 C 0.8503(5) 0.72030(18) 0.4530(2)
H10 H 0.8064 0.7298 0.4110
C9 C 0.8351(4) 0.67010(16) 0.4770(2)
H11 H 0.7802 0.6452 0.4520
C10 C 0.2630(4) 0.63103(13) 0.07708(16)
C11 C 0.3529(4) 0.65942(15) 0.17668(18)
H12 H 0.4132 0.6623 0.2162
C12 C 0.2373(4) 0.68821(14) 0.15988(17)
H13 H 0.2009 0.7156 0.1851
C13 C 0.0586(4) 0.69194(14) 0.06167(17)
C14 C 0.0643(4) 0.74300(15) 0.0430(2)
H14 H 0.1465 0.7632 0.0542
C15 C -0.0536(5) 0.76476(18) 0.0070(2)
H15 H -0.0514 0.8000 -0.0064
C16 C -0.1718(5) 0.7352(2) -0.0088(2)
H16 H -0.2504 0.7499 -0.0340
C17 C -0.1774(4) 0.68410(18) 0.0117(2)
H17 H -0.2607 0.6643 0.0015
C18 C -0.0623(4) 0.66170(15) 0.0471(2)
H18 H -0.0653 0.6266 0.0610
C19 C 0.2295(3) 0.43332(13) 0.10561(16)
C20 C 0.0599(4) 0.49333(14) 0.08545(17)
H19 H 0.0135 0.5241 0.0698
C21 C 0.0031(4) 0.45488(14) 0.12001(17)
H20 H -0.0912 0.4533 0.1334
C22 C 0.0881(3) 0.37064(13) 0.16870(16)
C23 C -0.0105(4) 0.33514(15) 0.1429(2)
H21 H -0.0595 0.3406 0.1008
C24 C -0.0364(5) 0.29118(16) 0.1801(2)
H22 H -0.1044 0.2665 0.1636
C25 C 0.0364(4) 0.28341(16) 0.2409(2)
H23 H 0.0181 0.2533 0.2659
C26 C 0.1359(4) 0.31898(15) 0.26580(18)
H24 H 0.1862 0.3130 0.3075
C27 C 0.1624(4) 0.36333(14) 0.22984(17)
H25 H 0.2299 0.3881 0.2467
C28 C 0.7804(4) 0.61735(13) 0.28006(16)
C29 C 0.9307(4) 0.55412(15) 0.2547(2)
H26 H 0.9684 0.5205 0.2481
C30 C 0.9958(4) 0.59938(15) 0.2450(2)
H27 H 1.0884 0.6040 0.2305
C31 C 0.9304(4) 0.69310(13) 0.25684(18)
C32 C 1.0279(4) 0.71441(15) 0.3031(2)
H28 H 1.0735 0.6936 0.3370
C33 C 1.0584(5) 0.76731(16) 0.2993(2)
H29 H 1.1262 0.7826 0.3303
C34 C 0.9896(5) 0.79730(16) 0.2502(2)
H30 H 1.0096 0.8333 0.2480
C35 C 0.8923(5) 0.77540(17) 0.2045(2)
H31 H 0.8454 0.7964 0.1712
C36 C 0.8619(4) 0.72229(16) 0.2069(2)
H32 H 0.7962 0.7068 0.1750
Ag1B Ag 0.54064(3) 0.427828(13) 0.493844(15)
Ag3B Ag 0.47114(3) 0.553252(13) 0.665420(14)
Ag5B Ag 0.53059(3) 0.441170(12) 0.021388(14)
I1B I 0.32661(2) 0.480877(9) 0.566149(11)
I5B I 0.34181(2) 0.462630(9) -0.092212(11)
S1B S 0.38247(9) 0.38399(3) 0.39936(4)
S3B S 0.61380(9) 0.60102(3) -0.10876(4)
loop_
_geom_bond_atom_site_label_1
_geom_bond_atom_site_label_2
_geom_bond_site_symmetry_1
_geom_bond_site_symmetry_2
Ag1 I1 1_555 1_555
Ag2 I1 1_555 1_555
Ag3 I1 1_555 1_555
Ag4 I3 1_555 1_555
Ag5 I5 1_555 1_555
I1 Ag1B 1_555 1_555
I2 Ag1 1_555 1_555
I3 Ag2 1_555 1_555
I4 Ag3 1_555 1_555
I5 Ag4 1_555 1_555
S1 Ag1 1_555 1_555
S2 Ag5 1_555 1_555
S3 Ag4 1_555 1_555
S4 Ag2 1_555 1_555
N1 H1 1_555 1_555
N2 C1 1_555 1_555
N3 H2 1_555 1_555
N4 C10 1_555 1_555
N5 H3 1_555 1_555
N6 C19 1_555 1_555
N7 H4 1_555 1_555
N8 C28 1_555 1_555
C1 S1 1_555 1_555
C2 N1 1_555 1_555
H5 C2 1_555 1_555
C3 N2 1_555 1_555
H6 C3 1_555 1_555
C4 N2 1_555 1_555
C5 C4 1_555 1_555
H7 C5 1_555 1_555
C6 C5 1_555 1_555
H8 C6 1_555 1_555
C7 C6 1_555 1_555
H9 C7 1_555 1_555
C8 C7 1_555 1_555
H10 C8 1_555 1_555
C9 C4 1_555 1_555
H11 C9 1_555 1_555
C10 S2 1_555 1_555
C11 N3 1_555 1_555
H12 C11 1_555 1_555
C12 N4 1_555 1_555
H13 C12 1_555 1_555
C13 N4 1_555 1_555
C14 C13 1_555 1_555
H14 C14 1_555 1_555
C15 C14 1_555 1_555
H15 C15 1_555 1_555
C16 C15 1_555 1_555
H16 C16 1_555 1_555
C17 C16 1_555 1_555
H17 C17 1_555 1_555
C18 C13 1_555 1_555
H18 C18 1_555 1_555
C19 S3 1_555 1_555
C20 N5 1_555 1_555
H19 C20 1_555 1_555
C21 N6 1_555 1_555
H20 C21 1_555 1_555
C22 N6 1_555 1_555
C23 C22 1_555 1_555
H21 C23 1_555 1_555
C24 C23 1_555 1_555
H22 C24 1_555 1_555
C25 C24 1_555 1_555
H23 C25 1_555 1_555
C26 C25 1_555 1_555
H24 C26 1_555 1_555
C27 C22 1_555 1_555
H25 C27 1_555 1_555
C28 S4 1_555 1_555
C29 N7 1_555 1_555
H26 C29 1_555 1_555
C30 N8 1_555 1_555
H27 C30 1_555 1_555
C31 N8 1_555 1_555
C32 C31 1_555 1_555
H28 C32 1_555 1_555
C33 C32 1_555 1_555
H29 C33 1_555 1_555
C34 C33 1_555 1_555
H30 C34 1_555 1_555
C35 C34 1_555 1_555
H31 C35 1_555 1_555
C36 C31 1_555 1_555
H32 C36 1_555 1_555
Ag1B I1B 1_555 1_555
Ag3B S1 1_555 1_555
Ag5B I5 1_555 1_555
I1B Ag1 1_555 1_555
I5B Ag5 1_555 1_555
S1B Ag3 1_555 1_555
S3B Ag5 1_555 1_555
Ag2 I2 1_555 1_555
Ag3 I3 1_555 1_555
Ag4 I4 1_555 1_555
S3 Ag5B 1_555 1_555
N1 C1 1_555 1_555
N3 C10 1_555 1_555
N5 C19 1_555 1_555
N7 C28 1_555 1_555
C2 C3 1_555 1_555
C8 C9 1_555 1_555
C11 C12 1_555 1_555
C17 C18 1_555 1_555
C20 C21 1_555 1_555
C26 C27 1_555 1_555
C29 C30 1_555 1_555
C35 C36 1_555 1_555
Ag1B S1B 1_555 1_555
Ag3B I1B 1_555 1_555
Ag5B I5B 1_555 1_555

#END
