
#######################################################################
#
#                 Cambridge Crystallographic Data Centre
#                                CCDC 
#
#######################################################################
#
# If this CIF has been generated from an entry in the Cambridge 
# Structural Database, then it will include bibliographic, chemical, 
# crystal, experimental, refinement or atomic coordinate data resulting 
# from the CCDC's data processing and validation procedures.
#
#######################################################################

data_UQOYOP
_symmetry_cell_setting           monoclinic
_symmetry_space_group_name_H-M   'C 2/c'
_symmetry_Int_Tables_number      15
_space_group_name_Hall           '-C 2yn'
loop_
_symmetry_equiv_pos_site_id
_symmetry_equiv_pos_as_xyz
1 x,y,z
2 -x,y,1/2-z
3 1/2+x,1/2+y,z
4 1/2-x,1/2+y,1/2-z
5 -x,-y,-z
6 x,-y,1/2+z
7 1/2-x,1/2-y,-z
8 1/2+x,1/2-y,1/2+z
_cell_length_a                   18.587(3)
_cell_length_b                   20.070(3)
_cell_length_c                   8.7957(13)
_cell_angle_alpha                90
_cell_angle_beta                 100.611(2)
_cell_angle_gamma                90
_cell_volume                     3225.05
loop_
_atom_site_label
_atom_site_type_symbol
_atom_site_fract_x
_atom_site_fract_y
_atom_site_fract_z
C14 C 0.7947(11) 0.2426(10) 0.112(2)
N5 N 0.7366(10) 0.2192(9) 0.019(2)
N6 N 0.8434(11) 0.2280(10) 0.198(2)
C14F C 0.7053(11) 0.2574(10) -0.112(2)
N5F N 0.7634(10) 0.2808(9) -0.019(2)
N6F N 0.6566(11) 0.2720(10) -0.198(2)
Zn1 Zn 0.5000 -0.17594(3) 0.7500
N1 N 0.4981(2) -0.16813(17) 0.5039(4)
N2 N 0.5000 -0.1238(3) 0.2500
N3 N 0.41156(18) -0.10049(16) 0.7156(4)
N4 N 0.08095(17) 0.24550(15) 0.7734(4)
C1 C 0.4985(3) -0.1527(2) 0.3819(5)
C2 C 0.4175(3) -0.0423(2) 0.6461(6)
H1 H 0.4595 -0.0347 0.6051
C3 C 0.3655(3) 0.0076(3) 0.6310(7)
H2 H 0.3737 0.0480 0.5850
C4 C 0.3025(3) -0.0027(3) 0.6837(6)
C5 C 0.2944(3) -0.0643(3) 0.7525(6)
H3 H 0.2514 -0.0743 0.7875
C6 C 0.3500(2) -0.1097(2) 0.7681(5)
H4 H 0.3442 -0.1495 0.8186
C7 C 0.2432(4) 0.0510(4) 0.6658(8)
H5 H 0.2504 0.0812 0.5839
H6 H 0.1959 0.0298 0.6341
C8 C 0.2418(4) 0.0891(3) 0.8034(7)
H7 H 0.2895 0.1096 0.8349
H8 H 0.2349 0.0585 0.8848
C9 C 0.0812(3) 0.2039(2) 0.6575(5)
H9 H 0.0461 0.2096 0.5685
C10 C 0.1307(3) 0.1525(3) 0.6610(6)
H10 H 0.1284 0.1242 0.5763
C11 C 0.1842(3) 0.1432(3) 0.7927(6)
C12 C 0.1828(3) 0.1847(2) 0.9141(6)
H11 H 0.2166 0.1792 1.0055
C13 C 0.1312(2) 0.2351(2) 0.9019(5)
H12 H 0.1313 0.2629 0.9864
Zn1_2 Zn 0.5000 -0.17594(3) -0.2500
Zn1B Zn 0.0000 0.32406(3) 0.7500
Zn1B_2 Zn 1.0000 0.32406(3) 0.7500
N1A N 0.5019(2) -0.16813(17) -0.0039(4)
N1A_2 N 0.5019(2) -0.16813(17) 0.9961(4)
N3A N 0.58844(18) -0.10049(16) 0.7844(4)
N4A N 0.91905(17) 0.24550(15) 0.7266(4)
N4B N 0.58095(17) -0.25450(15) 0.7734(4)
N4C N 0.41905(17) -0.25450(15) 0.7266(4)
C1A C 0.5015(3) -0.1527(2) 0.1181(5)
C2A C 0.5825(3) -0.0423(2) 0.8539(6)
H1A H 0.5405 -0.0347 0.8949
C3A C 0.6345(3) 0.0076(3) 0.8690(7)
H2A H 0.6263 0.0480 0.9150
C4A C 0.6975(3) -0.0027(3) 0.8163(6)
C5A C 0.7056(3) -0.0643(3) 0.7475(6)
H3A H 0.7486 -0.0743 0.7125
C6A C 0.6500(2) -0.1097(2) 0.7319(5)
H4A H 0.6558 -0.1495 0.6814
C7A C 0.7568(4) 0.0510(4) 0.8342(8)
H5A H 0.7496 0.0812 0.9161
H6A H 0.8041 0.0298 0.8659
C8A C 0.7582(4) 0.0891(3) 0.6966(7)
H7A H 0.7105 0.1096 0.6651
H8A H 0.7651 0.0585 0.6152
C9A C 0.9188(3) 0.2039(2) 0.8425(5)
H9A H 0.9539 0.2096 0.9315
C10A C 0.8693(3) 0.1525(3) 0.8390(6)
H10A H 0.8716 0.1242 0.9237
C11A C 0.8158(3) 0.1432(3) 0.7073(6)
C12A C 0.8172(3) 0.1847(2) 0.5859(6)
H11A H 0.7834 0.1792 0.4945
C13A C 0.8688(2) 0.2351(2) 0.5981(5)
H12A H 0.8687 0.2629 0.5136
loop_
_geom_bond_atom_site_label_1
_geom_bond_atom_site_label_2
_geom_bond_site_symmetry_1
_geom_bond_site_symmetry_2
Zn1 N1 1_555 1_555
N1 C1 1_555 1_555
N2 C1 1_555 1_555
N3 Zn1 1_555 1_555
N4 C9 1_555 1_555
C2 N3 1_555 1_555
H1 C2 1_555 1_555
C3 C2 1_555 1_555
H2 C3 1_555 1_555
C4 C3 1_555 1_555
C5 C4 1_555 1_555
H3 C5 1_555 1_555
C6 N3 1_555 1_555
H4 C6 1_555 1_555
C7 C4 1_555 1_555
H5 C7 1_555 1_555
H6 C7 1_555 1_555
C8 C7 1_555 1_555
H7 C8 1_555 1_555
H8 C8 1_555 1_555
C9 H9 1_555 1_555
C10 C9 1_555 1_555
H10 C10 1_555 1_555
C11 C8 1_555 1_555
C12 C11 1_555 1_555
H11 C12 1_555 1_555
C13 N4 1_555 1_555
H12 C13 1_555 1_555
C14 N5 1_555 1_555
N5 C14F 1_555 1_555
N6 C14 1_555 1_555
Zn1_2 N1A 1_555 1_555
Zn1B N4 1_555 1_555
Zn1B_2 N4A 1_555 1_555
N1A C1A 1_555 1_555
N1A_2 Zn1 1_555 1_555
N3A Zn1 1_555 1_555
N4A C9A 1_555 1_555
N4B Zn1 1_555 1_555
N4C Zn1 1_555 1_555
C1A N2 1_555 1_555
C2A N3A 1_555 1_555
H1A C2A 1_555 1_555
C3A C2A 1_555 1_555
H2A C3A 1_555 1_555
C4A C3A 1_555 1_555
C5A C4A 1_555 1_555
H3A C5A 1_555 1_555
C6A N3A 1_555 1_555
H4A C6A 1_555 1_555
C7A C4A 1_555 1_555
H5A C7A 1_555 1_555
H6A C7A 1_555 1_555
C8A C7A 1_555 1_555
H7A C8A 1_555 1_555
H8A C8A 1_555 1_555
C9A H9A 1_555 1_555
C10A C9A 1_555 1_555
H10A C10A 1_555 1_555
C11A C8A 1_555 1_555
C12A C11A 1_555 1_555
H11A C12A 1_555 1_555
C13A N4A 1_555 1_555
H12A C13A 1_555 1_555
C14F N5F 1_555 1_555
N5F C14 1_555 1_555
N6F C14F 1_555 1_555
C5 C6 1_555 1_555
C10 C11 1_555 1_555
C12 C13 1_555 1_555
N5 N5F 1_555 1_555
C5A C6A 1_555 1_555
C10A C11A 1_555 1_555
C12A C13A 1_555 1_555

#END
