
#######################################################################
#
#                 Cambridge Crystallographic Data Centre
#                                CCDC 
#
#######################################################################
#
# If this CIF has been generated from an entry in the Cambridge 
# Structural Database, then it will include bibliographic, chemical, 
# crystal, experimental, refinement or atomic coordinate data resulting 
# from the CCDC's data processing and validation procedures.
#
#######################################################################

data_UQUFUI
_symmetry_cell_setting           monoclinic
_symmetry_space_group_name_H-M   'C 2/c'
_symmetry_Int_Tables_number      15
_space_group_name_Hall           '-C 2yn'
loop_
_symmetry_equiv_pos_site_id
_symmetry_equiv_pos_as_xyz
1 x,y,z
2 -x,y,1/2-z
3 1/2+x,1/2+y,z
4 1/2-x,1/2+y,1/2-z
5 -x,-y,-z
6 x,-y,1/2+z
7 1/2-x,1/2-y,-z
8 1/2+x,1/2-y,1/2+z
_cell_length_a                   12.599(4)
_cell_length_b                   15.280(4)
_cell_length_c                   11.233(3)
_cell_angle_alpha                90
_cell_angle_beta                 91.936(4)
_cell_angle_gamma                90
_cell_volume                     2161.26
loop_
_atom_site_label
_atom_site_type_symbol
_atom_site_fract_x
_atom_site_fract_y
_atom_site_fract_z
Cu1 Cu 1.0000 1.09184(2) 0.7500
Cl1 Cl 0.98903(4) 1.18252(3) 0.59365(5)
N1 N 0.89293(14) 1.01051(11) 0.81368(14)
N2 N 0.75910(13) 0.96997(11) 0.92601(15)
C1 C 0.83320(16) 1.03097(13) 0.90401(18)
H1 H 0.8414 1.0822 0.9480
C2 C 0.85403(16) 0.92994(13) 0.77153(18)
C3 C 0.88572(16) 0.87841(13) 0.67670(17)
H2 H 0.9422 0.8949 0.6304
C4 C 0.83018(17) 0.80212(13) 0.65424(19)
H3 H 0.8493 0.7666 0.5913
C5 C 0.74523(17) 0.77700(13) 0.72469(19)
H4 H 0.7089 0.7255 0.7064
C6 C 0.71401(17) 0.82661(13) 0.82038(19)
H5 H 0.6584 0.8095 0.8676
C7 C 0.77056(16) 0.90357(13) 0.84203(17)
C8 C 0.68519(16) 0.97360(13) 1.02045(18)
C9 C 0.66932(17) 0.89992(14) 1.08940(19)
H6 H 0.7071 0.8488 1.0756
C10 C 0.59681(17) 0.90309(14) 1.17892(19)
H7 H 0.5857 0.8533 1.2245
C11 C 0.53980(16) 0.97924(13) 1.20262(17)
C12 C 0.55967(16) 1.05353(13) 1.13412(18)
H8 H 0.5247 1.1056 1.1502
C13 C 0.63069(16) 1.05066(13) 1.04257(18)
H9 H 0.6418 1.1000 0.9962
Cu1_2 Cu 0.0000 1.09184(2) 1.7500
Cl1A Cl 1.01097(4) 1.18252(3) 0.90635(5)
N1A N 0.10707(14) 1.01051(11) 1.68632(14)
N1A_2 N 1.10707(14) 1.01051(11) 0.68632(14)
N2A N 0.24090(13) 0.96997(11) 1.57399(15)
C1A C 0.16680(16) 1.03097(13) 1.59599(18)
H1A H 0.1586 1.0822 1.5520
C2A C 0.14597(16) 0.92994(13) 1.72847(18)
C3A C 0.11428(16) 0.87841(13) 1.82330(17)
H2A H 0.0578 0.8949 1.8696
C4A C 0.16982(17) 0.80212(13) 1.84576(19)
H3A H 0.1507 0.7666 1.9087
C5A C 0.25477(17) 0.77700(13) 1.77531(19)
H4A H 0.2911 0.7255 1.7936
C6A C 0.28599(17) 0.82661(13) 1.67962(19)
H5A H 0.3416 0.8095 1.6324
C7A C 0.22944(16) 0.90357(13) 1.65797(17)
C8A C 0.31481(16) 0.97360(13) 1.47955(18)
C9A C 0.33068(17) 0.89992(14) 1.41060(19)
H6A H 0.2929 0.8488 1.4244
C10A C 0.40319(17) 0.90309(14) 1.32108(19)
H7A H 0.4143 0.8533 1.2755
C11A C 0.46020(16) 0.97924(13) 1.29738(17)
C12A C 0.44033(16) 1.05353(13) 1.36588(18)
H8A H 0.4753 1.1056 1.3498
C13A C 0.36931(16) 1.05066(13) 1.45743(18)
H9A H 0.3582 1.1000 1.5038
loop_
_geom_bond_atom_site_label_1
_geom_bond_atom_site_label_2
_geom_bond_site_symmetry_1
_geom_bond_site_symmetry_2
Cu1 Cl1 1_555 1_555
N1 Cu1 1_555 1_555
N2 C1 1_555 1_555
C1 N1 1_555 1_555
H1 C1 1_555 1_555
C2 N1 1_555 1_555
C3 C2 1_555 1_555
H2 C3 1_555 1_555
C4 C3 1_555 1_555
H3 C4 1_555 1_555
C5 C4 1_555 1_555
H4 C5 1_555 1_555
C6 C5 1_555 1_555
H5 C6 1_555 1_555
C7 N2 1_555 1_555
C8 N2 1_555 1_555
C9 C8 1_555 1_555
H6 C9 1_555 1_555
C10 C9 1_555 1_555
H7 C10 1_555 1_555
C11 C10 1_555 1_555
C12 C11 1_555 1_555
H8 C12 1_555 1_555
C13 C8 1_555 1_555
H9 C13 1_555 1_555
Cu1_2 N1A 1_555 1_555
Cl1A Cu1 1_555 1_555
N1A C1A 1_555 1_555
N1A_2 Cu1 1_555 1_555
N2A C1A 1_555 1_555
C1A H1A 1_555 1_555
C2A N1A 1_555 1_555
C3A C2A 1_555 1_555
H2A C3A 1_555 1_555
C4A C3A 1_555 1_555
H3A C4A 1_555 1_555
C5A C4A 1_555 1_555
H4A C5A 1_555 1_555
C6A C5A 1_555 1_555
H5A C6A 1_555 1_555
C7A N2A 1_555 1_555
C8A N2A 1_555 1_555
C9A C8A 1_555 1_555
H6A C9A 1_555 1_555
C10A C9A 1_555 1_555
H7A C10A 1_555 1_555
C11A C11 1_555 1_555
C12A C11A 1_555 1_555
H8A C12A 1_555 1_555
C13A C8A 1_555 1_555
H9A C13A 1_555 1_555
C2 C7 1_555 1_555
C6 C7 1_555 1_555
C12 C13 1_555 1_555
C2A C7A 1_555 1_555
C6A C7A 1_555 1_555
C10A C11A 1_555 1_555
C12A C13A 1_555 1_555

#END
