
#######################################################################
#
#                 Cambridge Crystallographic Data Centre
#                                CCDC 
#
#######################################################################
#
# If this CIF has been generated from an entry in the Cambridge 
# Structural Database, then it will include bibliographic, chemical, 
# crystal, experimental, refinement or atomic coordinate data resulting 
# from the CCDC's data processing and validation procedures.
#
#######################################################################

data_UQUGAP
_symmetry_cell_setting           monoclinic
_symmetry_space_group_name_H-M   'C 2/c'
_symmetry_Int_Tables_number      15
_space_group_name_Hall           '-C 2yn'
loop_
_symmetry_equiv_pos_site_id
_symmetry_equiv_pos_as_xyz
1 x,y,z
2 -x,y,1/2-z
3 1/2+x,1/2+y,z
4 1/2-x,1/2+y,1/2-z
5 -x,-y,-z
6 x,-y,1/2+z
7 1/2-x,1/2-y,-z
8 1/2+x,1/2-y,1/2+z
_cell_length_a                   21.750(4)
_cell_length_b                   11.618(2)
_cell_length_c                   11.028(2)
_cell_angle_alpha                90
_cell_angle_beta                 93.24(3)
_cell_angle_gamma                90
_cell_volume                     2782.23
loop_
_atom_site_label
_atom_site_type_symbol
_atom_site_fract_x
_atom_site_fract_y
_atom_site_fract_z
Mn1 Mn 0.0000 0.04840(2) 0.2500
S1 S 0.14740(2) 0.20715(5) -0.05268(4)
N1 N 0.0000 -0.14607(14) 0.2500
N2 N 0.0000 -0.75618(14) 0.2500
O1 O 0.06150(6) 0.05814(10) 0.41324(10)
O2 O 0.15201(6) 0.11457(15) 0.27247(12)
O3 O 0.07976(5) 0.05427(8) 0.13627(10)
C1 C 0.16178(7) 0.34725(17) 0.00465(15)
C2 C 0.14383(8) 0.43759(18) -0.07231(16)
H1 H 0.1245 0.4218 -0.1478
C3 C 0.15447(9) 0.55104(18) -0.03766(18)
H2 H 0.1416 0.6102 -0.0900
C4 C 0.18407(9) 0.57787(19) 0.07401(17)
C5 C 0.20159(9) 0.4866(2) 0.14879(17)
H3 H 0.2217 0.5025 0.2236
C6 C 0.19070(8) 0.3737(2) 0.11752(16)
H4 H 0.2025 0.3151 0.1713
C7 C 0.19602(12) 0.7009(2) 0.1120(2)
H5 H 0.1808 0.7517 0.0485
H6 H 0.2395 0.7125 0.1269
H7 H 0.1753 0.7168 0.1848
C8 C 0.17674(8) 0.11137(18) 0.06561(16)
H8 H 0.1857 0.0375 0.0295
H9 H 0.2152 0.1423 0.1004
C9 C 0.13315(7) 0.09210(14) 0.16781(14)
C10 C -0.02740(9) -0.20527(13) 0.33381(16)
H10 H -0.0469 -0.1649 0.3935
C11 C -0.02857(9) -0.32390(13) 0.33721(15)
H11 H -0.0486 -0.3616 0.3981
C12 C 0.0000 -0.38670(15) 0.2500
C13 C 0.0000 -0.51414(16) 0.2500
C14 C 0.02495(7) -0.57707(13) 0.15769(14)
H12 H 0.0426 -0.5393 0.0939
C15 C 0.02350(8) -0.69595(13) 0.16070(14)
H13 H 0.0398 -0.7361 0.0970
H14 H 0.0956(8) 0.0744(18) 0.3876(19)
H15 H 0.0694(9) 0.0118(17) 0.4691(17)
Mn1_2 Mn 0.0000 -0.95160(2) 0.2500
S1A S -0.14740(2) 0.20715(5) 0.55268(4)
N2_2 N 0.0000 0.24382(14) 0.2500
O1A O -0.06150(6) 0.05814(10) 0.08676(10)
O2A O -0.15201(6) 0.11457(15) 0.22753(12)
O3A O -0.07976(5) 0.05427(8) 0.36373(10)
C1A C -0.16178(7) 0.34725(17) 0.49535(15)
C2A C -0.14383(8) 0.43759(18) 0.57231(16)
H1A H -0.1245 0.4218 0.6478
C3A C -0.15447(9) 0.55104(18) 0.53766(18)
H2A H -0.1416 0.6102 0.5900
C4A C -0.18407(9) 0.57787(19) 0.42599(17)
C5A C -0.20159(9) 0.4866(2) 0.35121(17)
H3A H -0.2217 0.5025 0.2764
C6A C -0.19070(8) 0.3737(2) 0.38248(16)
H4A H -0.2025 0.3151 0.3287
C7A C -0.19602(12) 0.7009(2) 0.3880(2)
H5A H -0.1808 0.7517 0.4515
H6A H -0.2395 0.7125 0.3731
H7A H -0.1753 0.7168 0.3152
C8A C -0.17674(8) 0.11137(18) 0.43439(16)
H8A H -0.1857 0.0375 0.4705
H9A H -0.2152 0.1423 0.3996
C9A C -0.13315(7) 0.09210(14) 0.33219(14)
C10A C 0.02740(9) -0.20527(13) 0.16619(16)
H10A H 0.0469 -0.1649 0.1065
C11A C 0.02857(9) -0.32390(13) 0.16279(15)
H11A H 0.0486 -0.3616 0.1019
C14A C -0.02495(7) -0.57707(13) 0.34231(14)
H12A H -0.0426 -0.5393 0.4061
C15A C -0.02350(8) -0.69595(13) 0.33930(14)
H13A H -0.0398 -0.7361 0.4030
H14A H -0.0956(8) 0.0744(18) 0.1124(19)
H15A H -0.0694(9) 0.0118(17) 0.0309(17)
loop_
_geom_bond_atom_site_label_1
_geom_bond_atom_site_label_2
_geom_bond_site_symmetry_1
_geom_bond_site_symmetry_2
Mn1 N1 1_555 1_555
S1 C1 1_555 1_555
N1 C10 1_555 1_555
N2 C15 1_555 1_555
O1 Mn1 1_555 1_555
O2 C9 1_555 1_555
O3 Mn1 1_555 1_555
C1 C2 1_555 1_555
C2 H1 1_555 1_555
C3 C2 1_555 1_555
H2 C3 1_555 1_555
C4 C3 1_555 1_555
C5 C4 1_555 1_555
H3 C5 1_555 1_555
C6 C1 1_555 1_555
H4 C6 1_555 1_555
C7 C4 1_555 1_555
H5 C7 1_555 1_555
H6 C7 1_555 1_555
H7 C7 1_555 1_555
C8 S1 1_555 1_555
H8 C8 1_555 1_555
H9 C8 1_555 1_555
C9 O3 1_555 1_555
C10 H10 1_555 1_555
C11 C10 1_555 1_555
H11 C11 1_555 1_555
C12 C11 1_555 1_555
C13 C12 1_555 1_555
C14 C13 1_555 1_555
H12 C14 1_555 1_555
C15 C14 1_555 1_555
H13 C15 1_555 1_555
H14 O1 1_555 1_555
H15 O1 1_555 1_555
Mn1_2 N2 1_555 1_555
S1A C1A 1_555 1_555
N2_2 Mn1 1_555 1_555
O1A Mn1 1_555 1_555
O2A C9A 1_555 1_555
O3A Mn1 1_555 1_555
C1A C2A 1_555 1_555
C2A H1A 1_555 1_555
C3A C2A 1_555 1_555
H2A C3A 1_555 1_555
C4A C3A 1_555 1_555
C5A C4A 1_555 1_555
H3A C5A 1_555 1_555
C6A C1A 1_555 1_555
H4A C6A 1_555 1_555
C7A C4A 1_555 1_555
H5A C7A 1_555 1_555
H6A C7A 1_555 1_555
H7A C7A 1_555 1_555
C8A S1A 1_555 1_555
H8A C8A 1_555 1_555
H9A C8A 1_555 1_555
C9A O3A 1_555 1_555
C10A N1 1_555 1_555
H10A C10A 1_555 1_555
C11A C12 1_555 1_555
H11A C11A 1_555 1_555
C14A C13 1_555 1_555
H12A C14A 1_555 1_555
C15A N2 1_555 1_555
H13A C15A 1_555 1_555
H14A O1A 1_555 1_555
H15A O1A 1_555 1_555
C5 C6 1_555 1_555
C8 C9 1_555 1_555
C5A C6A 1_555 1_555
C8A C9A 1_555 1_555
C10A C11A 1_555 1_555
C14A C15A 1_555 1_555

#END
