
#######################################################################
#
#                 Cambridge Crystallographic Data Centre
#                                CCDC 
#
#######################################################################
#
# If this CIF has been generated from an entry in the Cambridge 
# Structural Database, then it will include bibliographic, chemical, 
# crystal, experimental, refinement or atomic coordinate data resulting 
# from the CCDC's data processing and validation procedures.
#
#######################################################################

data_UQUGIX
_symmetry_cell_setting           monoclinic
_symmetry_space_group_name_H-M   'P 21/c'
_symmetry_Int_Tables_number      14
_space_group_name_Hall           '-P 2ybc'
loop_
_symmetry_equiv_pos_site_id
_symmetry_equiv_pos_as_xyz
1 x,y,z
2 -x,1/2+y,1/2-z
3 -x,-y,-z
4 x,1/2-y,1/2+z
_cell_length_a                   7.654(2)
_cell_length_b                   11.253(3)
_cell_length_c                   16.126(4)
_cell_angle_alpha                90
_cell_angle_beta                 99.634(6)
_cell_angle_gamma                90
_cell_volume                     1369.35
loop_
_atom_site_label
_atom_site_type_symbol
_atom_site_fract_x
_atom_site_fract_y
_atom_site_fract_z
Cu1 Cu 0.5000 0.0000 0.0000
O1 O 0.4795(5) 0.2295(2) -0.12878(17)
O2 O 0.4927(3) 0.1749(2) 0.00527(13)
O3 O 0.1848(4) -0.0053(3) 0.0096(3)
O4 O 0.5645(4) 0.00298(18) 0.12299(16)
H1 H 0.5557 -0.0669 0.1362
H2 H 0.5186 0.0562 0.1466
C1 C 0.4872(4) 0.2499(3) -0.0530(2)
C2 C 0.4925(4) 0.3790(3) -0.0259(2)
C3 C 0.3590(5) 0.4308(3) 0.0086(3)
C4 C 0.6337(5) 0.4519(4) -0.0345(3)
C5 C 0.1002(7) 0.0757(7) 0.0515(6)
H5 H 0.1186 0.0516 0.1101
H6 H 0.1612 0.1508 0.0492
C6 C 0.0753(7) -0.0976(6) -0.0285(6)
H7 H 0.1210 -0.1224 -0.0784
H8 H 0.0881 -0.1645 0.0099
F1 F 0.2156(4) 0.3659(2) 0.0169(3)
F2 F 0.7708(4) 0.4067(2) -0.0662(2)
Cu1_2 Cu 0.5000 1.0000 0.0000
Cu1_3 Cu -0.5000 0.0000 0.0000
O1B O 0.5205(5) 0.7705(2) 0.12878(17)
O2B O 0.5073(3) 0.8251(2) -0.00527(13)
O2B_2 O 0.5073(3) -0.1749(2) -0.00527(13)
O3B O -0.1848(4) 0.0053(3) -0.0096(3)
O3B_2 O 0.8152(4) 0.0053(3) -0.0096(3)
O4B O 0.4355(4) -0.00298(18) -0.12299(16)
H1B H 0.4443 0.0669 -0.1362
H2B H 0.4814 -0.0562 -0.1466
C1B C 0.5128(4) 0.7501(3) 0.0530(2)
C2B C 0.5075(4) 0.6210(3) 0.0259(2)
C3B C 0.6410(5) 0.5692(3) -0.0086(3)
C4B C 0.3663(5) 0.5481(4) 0.0345(3)
C5B C -0.1002(7) -0.0757(7) -0.0515(6)
H5B H -0.1186 -0.0516 -0.1101
H6B H -0.1612 -0.1508 -0.0492
C6B C -0.0753(7) 0.0976(6) 0.0285(6)
H7B H -0.1210 0.1224 0.0784
H8B H -0.0881 0.1645 -0.0099
F1B F 0.7844(4) 0.6341(2) -0.0169(3)
F2B F 0.2292(4) 0.5933(2) 0.0662(2)
O5 O -0.0024(8) 0.7388(5) 0.2701(5)
O6 O 0.2054(7) 0.9379(4) 0.3007(4)
C7 C 0.1634(10) 0.7455(7) 0.2473(5)
H9 H 0.1508 0.7722 0.1894
H10 H 0.2155 0.6667 0.2503
C8 C 0.2799(8) 0.8240(5) 0.2992(4)
H11 H 0.3044 0.7925 0.3560
H12 H 0.3912 0.8293 0.2782
C9 C 0.0421(9) 0.9318(7) 0.3302(6)
H13 H -0.0091 1.0105 0.3307
H14 H 0.0606 0.9009 0.3872
C10 C -0.0808(8) 0.8519(9) 0.2736(5)
H15 H -0.1918 0.8443 0.2946
H16 H -0.1058 0.8859 0.2176
O7 O 0.4024(5) 0.1145(4) 0.2350(2)
H3 H 0.3248 0.0770 0.2530
H4 H 0.4640 0.1633 0.2643
loop_
_geom_bond_atom_site_label_1
_geom_bond_atom_site_label_2
_geom_bond_site_symmetry_1
_geom_bond_site_symmetry_2
Cu1 O2 1_555 1_555
O1 C1 1_555 1_555
O2 C1 1_555 1_555
O3 Cu1 1_555 1_555
O4 Cu1 1_555 1_555
H1 O4 1_555 1_555
H2 O4 1_555 1_555
O5 C7 1_555 1_555
O6 C8 1_555 1_555
O7 H3 1_555 1_555
H4 O7 1_555 1_555
C1 C2 1_555 1_555
C2 C3 1_555 1_555
C3 F1 1_555 1_555
C4 C2 1_555 1_555
C5 O3 1_555 1_555
H5 C5 1_555 1_555
H6 C5 1_555 1_555
C6 O3 1_555 1_555
H7 C6 1_555 1_555
H8 C6 1_555 1_555
C7 H9 1_555 1_555
H10 C7 1_555 1_555
C8 C7 1_555 1_555
H11 C8 1_555 1_555
H12 C8 1_555 1_555
C9 O6 1_555 1_555
H13 C9 1_555 1_555
H14 C9 1_555 1_555
C10 O5 1_555 1_555
H15 C10 1_555 1_555
H16 C10 1_555 1_555
F2 C4 1_555 1_555
Cu1_2 O2B 1_555 1_555
Cu1_3 O3B 1_555 1_555
O1B C1B 1_555 1_555
O2B C1B 1_555 1_555
O2B_2 Cu1 1_555 1_555
O3B C5B 1_555 1_555
O3B_2 Cu1 1_555 1_555
O4B Cu1 1_555 1_555
H1B O4B 1_555 1_555
H2B O4B 1_555 1_555
C1B C2B 1_555 1_555
C2B C3B 1_555 1_555
C3B C4 1_555 1_555
C4B C3 1_555 1_555
C5B C6 1_555 1_555
H5B C5B 1_555 1_555
H6B C5B 1_555 1_555
C6B C5 1_555 1_555
H7B C6B 1_555 1_555
H8B C6B 1_555 1_555
F1B C3B 1_555 1_555
F2B C4B 1_555 1_555
C9 C10 1_555 1_555
O3B C6B 1_555 1_555
C2B C4B 1_555 1_555

#END
