
#######################################################################
#
#                 Cambridge Crystallographic Data Centre
#                                CCDC 
#
#######################################################################
#
# If this CIF has been generated from an entry in the Cambridge 
# Structural Database, then it will include bibliographic, chemical, 
# crystal, experimental, refinement or atomic coordinate data resulting 
# from the CCDC's data processing and validation procedures.
#
#######################################################################

data_UQUHAQ
_symmetry_cell_setting           monoclinic
_symmetry_space_group_name_H-M   'P 21/c'
_symmetry_Int_Tables_number      14
_space_group_name_Hall           '-P 2ybc'
loop_
_symmetry_equiv_pos_site_id
_symmetry_equiv_pos_as_xyz
1 x,y,z
2 -x,1/2+y,1/2-z
3 -x,-y,-z
4 x,1/2-y,1/2+z
_cell_length_a                   7.8169(4)
_cell_length_b                   7.0077(3)
_cell_length_c                   15.6586(7)
_cell_angle_alpha                90
_cell_angle_beta                 98.971(4)
_cell_angle_gamma                90
_cell_volume                     847.262
loop_
_atom_site_label
_atom_site_type_symbol
_atom_site_fract_x
_atom_site_fract_y
_atom_site_fract_z
Ni1 Ni 0.30005(2) 0.25657(3) 0.649349(11)
N1 N 0.41659(17) 0.10169(18) 0.55756(8)
C1 C 0.3337(2) 0.0453(2) 0.48084(10)
H1 H 0.2169 0.0747 0.4654
C2 C 0.5831(2) 0.0558(2) 0.57642(10)
H2 H 0.6452 0.0925 0.6294
N2 N 0.12229(17) 0.39364(18) 0.55394(8)
C3 C -0.0463(2) 0.3831(2) 0.55924(11)
H3 H -0.0827 0.3027 0.6001
C4 C 0.1684(2) 0.5112(2) 0.49450(10)
H4 H 0.2847 0.5224 0.4891
O1 O 0.11734(15) 0.04433(16) 0.65066(8)
O2 O 0.0548(2) -0.25397(17) 0.67969(12)
C5 C 0.1545(2) -0.1280(2) 0.66185(12)
H5 H 0.2693 -0.1604 0.6602
O3 O 0.46637(15) 0.11818(18) 0.74213(8)
O4 O 0.51992(15) -0.03704(17) 0.86756(7)
C6 C 0.4364(2) 0.0746(2) 0.81445(11)
H6 H 0.3479 0.1347 0.8375
O5 O 0.18980(15) 0.40396(16) 0.73925(7)
H7 H 0.1126 0.3547 0.7617
H8 H 0.1500 0.5093 0.7246
Ni1B Ni 0.69995(2) -0.25657(3) 0.350651(11)
Ni1A Ni 0.69995(2) -0.24343(3) 0.850651(11)
Ni1B_2 Ni -0.30005(2) 0.74343(3) 0.350651(11)
Ni1A_2 Ni 0.69995(2) 0.75657(3) 0.850651(11)
N1B N 0.58341(17) -0.10169(18) 0.44244(8)
C1B C 0.6663(2) -0.0453(2) 0.51916(10)
H1B H 0.7831 -0.0747 0.5346
C2B C 0.4169(2) -0.0558(2) 0.42358(10)
H2B H 0.3548 -0.0925 0.3706
N2B N -0.12229(17) 0.60636(18) 0.44606(8)
N2B_2 N 0.87771(17) -0.39364(18) 0.44606(8)
C3B C 0.0463(2) 0.6169(2) 0.44076(11)
H3B H 0.0827 0.6973 0.3999
C4B C -0.1684(2) 0.4888(2) 0.50550(10)
H4B H -0.2847 0.4776 0.5109
O1B O 0.88266(15) -0.04433(16) 0.34934(8)
O2B O 0.9452(2) 0.25397(17) 0.32031(12)
C5B C 0.8455(2) 0.1280(2) 0.33815(12)
H5B H 0.7307 0.1604 0.3398
O3A O 0.53363(15) 0.61818(18) 0.75787(8)
O3B O 0.53363(15) -0.11818(18) 0.25787(8)
O4A O 0.48008(15) 0.46296(17) 0.63244(7)
O4C O 0.51992(15) -0.46296(17) 0.36756(7)
C6A C 0.5636(2) 0.5746(2) 0.68555(11)
H6A H 0.6521 0.6347 0.6625
O5B O 0.81020(15) -0.40396(16) 0.26075(7)
H7B H 0.8874 -0.3547 0.2383
H8B H 0.8500 -0.5093 0.2754
loop_
_geom_bond_atom_site_label_1
_geom_bond_atom_site_label_2
_geom_bond_site_symmetry_1
_geom_bond_site_symmetry_2
Ni1 N1 1_555 1_555
N1 C1 1_555 1_555
C1 H1 1_555 1_555
C2 N1 1_555 1_555
H2 C2 1_555 1_555
N2 Ni1 1_555 1_555
C3 N2 1_555 1_555
H3 C3 1_555 1_555
C4 N2 1_555 1_555
H4 C4 1_555 1_555
O1 Ni1 1_555 1_555
O2 C5 1_555 1_555
C5 O1 1_555 1_555
H5 C5 1_555 1_555
O3 Ni1 1_555 1_555
O4 C6 1_555 1_555
C6 O3 1_555 1_555
H6 C6 1_555 1_555
O5 Ni1 1_555 1_555
H7 O5 1_555 1_555
H8 O5 1_555 1_555
Ni1B N1B 1_555 1_555
Ni1A O4 1_555 1_555
Ni1B_2 N2B 1_555 1_555
Ni1A_2 O3A 1_555 1_555
N1B C1B 1_555 1_555
C1B C2 1_555 1_555
H1B C1B 1_555 1_555
C2B C1 1_555 1_555
H2B C2B 1_555 1_555
N2B C3B 1_555 1_555
N2B_2 Ni1B 1_555 1_555
C3B C4 1_555 1_555
H3B C3B 1_555 1_555
C4B C3 1_555 1_555
H4B C4B 1_555 1_555
O1B Ni1B 1_555 1_555
O2B C5B 1_555 1_555
C5B O1B 1_555 1_555
H5B C5B 1_555 1_555
O3A C6A 1_555 1_555
O3B Ni1B 1_555 1_555
O4A Ni1 1_555 1_555
O4C Ni1B 1_555 1_555
C6A O4A 1_555 1_555
H6A C6A 1_555 1_555
O5B Ni1B 1_555 1_555
H7B O5B 1_555 1_555
H8B O5B 1_555 1_555
N1B C2B 1_555 1_555
N2B C4B 1_555 1_555

#END
