
#######################################################################
#
#                 Cambridge Crystallographic Data Centre
#                                CCDC 
#
#######################################################################
#
# If this CIF has been generated from an entry in the Cambridge 
# Structural Database, then it will include bibliographic, chemical, 
# crystal, experimental, refinement or atomic coordinate data resulting 
# from the CCDC's data processing and validation procedures.
#
#######################################################################

data_UQULAU
_symmetry_cell_setting           monoclinic
_symmetry_space_group_name_H-M   'P c'
_symmetry_Int_Tables_number      7
_space_group_name_Hall           'P -2yc'
loop_
_symmetry_equiv_pos_site_id
_symmetry_equiv_pos_as_xyz
1 x,y,z
2 x,-y,1/2+z
_cell_length_a                   12.0201(3)
_cell_length_b                   20.7463(5)
_cell_length_c                   17.6353(3)
_cell_angle_alpha                90
_cell_angle_beta                 132.806(1)
_cell_angle_gamma                90
_cell_volume                     3226.46
loop_
_atom_site_label
_atom_site_type_symbol
_atom_site_fract_x
_atom_site_fract_y
_atom_site_fract_z
Co1 Co -0.18916(3) -0.826639(16) 0.11759(2)
Co2 Co -0.05072(3) -0.673840(16) 0.11470(2)
O1 O -0.2061(3) -0.73886(10) -0.11757(16)
O2 O -0.2231(2) -0.74854(9) 0.02265(14)
H1 H -0.2192 -0.7514 -0.0237
H2 H -0.3310 -0.7452 -0.0271
O3 O -0.0600(2) -0.66001(9) -0.00587(15)
O4 O -0.5154(3) -0.55673(13) -0.4035(2)
H3 H -0.5666 -0.5795 -0.3991
O5 O -0.0446(3) -0.68089(9) 0.23185(16)
O6 O -0.1817(2) -0.76186(9) 0.21450(15)
O7 O 0.3178(3) -0.64086(13) 0.6193(2)
H4 H 0.3607 -0.6744 0.6511
O8 O 0.0395(2) -0.82268(9) 0.21983(16)
O9 O 0.1188(2) -0.74459(9) 0.17905(16)
O10 O 0.5482(3) -0.90783(12) 0.2854(2)
H5 H 0.5553 -0.8806 0.2552
O11 O -0.5180(2) -0.75975(10) -0.10005(17)
O12 O -0.4217(2) -0.83275(9) 0.02313(15)
O13 O -0.8771(3) -0.92293(10) -0.04898(17)
H6 H -0.8920 -0.8923 -0.0273
N1 N -0.1695(3) -0.90216(11) 0.20915(18)
N2 N 0.1235(3) -0.60113(12) 0.19921(18)
C1 C -0.1645(4) -0.64664(14) -0.1779(2)
C2 C -0.1469(5) -0.68941(16) -0.2403(3)
H7 H -0.0437 -0.7055 -0.1955
H8 H -0.2148 -0.7261 -0.2682
C3 C -0.3278(4) -0.62070(15) -0.2504(2)
H9 H -0.3981 -0.6564 -0.2782
H10 H -0.3396 -0.5933 -0.2117
C4 C -0.0565(4) -0.58952(15) -0.1341(2)
H11 H 0.0472 -0.6049 -0.0889
H12 H -0.0659 -0.5625 -0.0938
C5 C -0.3645(4) -0.58258(16) -0.3382(3)
C6 C -0.3459(6) -0.62580(18) -0.3992(3)
H13 H -0.4150 -0.6620 -0.4278
H14 H -0.3701 -0.6017 -0.4559
C7 C -0.1839(6) -0.65009(18) -0.3284(3)
H15 H -0.1722 -0.6774 -0.3680
C8 C -0.0745(5) -0.59261(18) -0.2831(3)
H16 H 0.0293 -0.6080 -0.2378
H17 H -0.0955 -0.5680 -0.3384
C9 C -0.0944(4) -0.55008(16) -0.2228(3)
H18 H -0.0251 -0.5133 -0.1942
C10 C -0.2565(5) -0.52564(16) -0.2942(3)
H19 H -0.2794 -0.5008 -0.3500
H20 H -0.2687 -0.4978 -0.2561
C11 C -0.1398(3) -0.68428(14) -0.0934(2)
C12 C -0.0568(3) -0.68948(13) 0.3591(2)
C13 C 0.1157(4) -0.68060(15) 0.4456(2)
H21 H 0.1655 -0.7220 0.4630
H22 H 0.1511 -0.6525 0.4218
C14 C -0.1329(4) -0.62352(14) 0.3347(2)
H23 H -0.1015 -0.5946 0.3090
H24 H -0.2421 -0.6284 0.2812
C15 C -0.1095(4) -0.73446(15) 0.3991(3)
H25 H -0.2186 -0.7401 0.3461
H26 H -0.0624 -0.7764 0.4154
C16 C 0.1570(4) -0.65150(17) 0.5415(2)
C17 C 0.0811(5) -0.58674(16) 0.5150(3)
H27 H 0.1153 -0.5580 0.4910
H28 H 0.1086 -0.5679 0.5762
C18 C -0.0896(4) -0.59461(16) 0.4315(3)
H29 H -0.1384 -0.5525 0.4148
C19 C -0.1445(5) -0.64023(18) 0.4689(3)
H30 H -0.1213 -0.6220 0.5289
H31 H -0.2535 -0.6459 0.4148
C20 C -0.0654(4) -0.70500(17) 0.4965(3)
H32 H -0.0985 -0.7339 0.5219
C21 C 0.1039(5) -0.69680(18) 0.5792(3)
H33 H 0.1530 -0.7384 0.5962
H34 H 0.1316 -0.6793 0.6412
C22 C -0.0982(3) -0.71336(13) 0.2607(2)
C23 C 0.3031(3) -0.81885(13) 0.3131(2)
C24 C 0.3128(4) -0.87058(18) 0.3799(3)
H35 H 0.2862 -0.8518 0.4162
H36 H 0.2417 -0.9051 0.3362
C25 C 0.4151(4) -0.76443(16) 0.3829(3)
H37 H 0.3882 -0.7442 0.4182
H38 H 0.4111 -0.7320 0.3415
C26 C 0.3478(3) -0.85009(15) 0.2583(2)
H39 H 0.2772 -0.8845 0.2138
H40 H 0.3420 -0.8183 0.2155
C27 C 0.5082(4) -0.87722(16) 0.3367(3)
C28 C 0.5163(4) -0.92747(17) 0.4023(3)
H41 H 0.4474 -0.9626 0.3589
H42 H 0.6183 -0.9449 0.4523
C29 C 0.4742(4) -0.8976(2) 0.4580(3)
H43 H 0.4797 -0.9306 0.5002
C30 C 0.5839(5) -0.8432(2) 0.5278(3)
H44 H 0.5570 -0.8242 0.5637
H45 H 0.6862 -0.8601 0.5790
C31 C 0.5765(4) -0.79274(18) 0.4627(3)
H46 H 0.6481 -0.7581 0.5078
C32 C 0.6190(4) -0.82253(16) 0.4058(3)
H47 H 0.6142 -0.7900 0.3642
H48 H 0.7218 -0.8391 0.4554
C33 C 0.1416(3) -0.79277(13) 0.2320(2)
C34 C -0.6859(3) -0.84038(13) -0.1254(2)
C35 C -0.6842(4) -0.89964(15) -0.1771(2)
H49 H -0.6704 -0.8860 -0.2229
H50 H -0.6003 -0.9276 -0.1247
C36 C -0.7108(3) -0.86335(14) -0.0550(2)
H51 H -0.6275 -0.8910 -0.0014
H52 H -0.7123 -0.8264 -0.0220
C37 C -0.8186(3) -0.79611(15) -0.2094(2)
H53 H -0.8209 -0.7587 -0.1774
H54 H -0.8050 -0.7812 -0.2547
C38 C -0.8593(3) -0.90004(14) -0.1166(2)
C39 C -0.8548(4) -0.95843(15) -0.1668(3)
H55 H -0.7716 -0.9865 -0.1138
H56 H -0.9485 -0.9826 -0.2056
C40 C -0.8339(4) -0.93638(16) -0.2387(2)
H57 H -0.8317 -0.9742 -0.2710
C41 C -0.9649(4) -0.89244(17) -0.3230(2)
H58 H -1.0601 -0.9157 -0.3634
H59 H -0.9515 -0.8788 -0.3689
C42 C -0.9686(4) -0.83328(16) -0.2722(3)
H60 H -1.0530 -0.8051 -0.3258
C43 C -0.9907(4) -0.85626(16) -0.2007(2)
H61 H -0.9953 -0.8194 -0.1691
H62 H -1.0856 -0.8796 -0.2404
C44 C -0.5320(3) -0.80707(14) -0.0634(2)
C45 C -0.1753(3) -0.98457(13) 0.3330(2)
C46 C -0.2750(4) -0.99210(14) 0.2260(2)
H63 H -0.3459 -1.0253 0.1937
C47 C -0.2686(4) -0.95060(14) 0.1684(2)
H64 H -0.3370 -0.9566 0.0972
C48 C -0.0689(3) -0.89626(14) 0.3128(2)
H65 H 0.0045 -0.8642 0.3435
C49 C -0.0695(4) -0.93522(14) 0.3752(2)
H66 H 0.0014 -0.9286 0.4463
C50 C 0.3717(3) -0.51750(14) 0.3291(2)
C51 C 0.3417(4) -0.55068(19) 0.2489(3)
H67 H 0.4045 -0.5450 0.2362
C52 C 0.2213(4) -0.59158(18) 0.1883(3)
H68 H 0.2068 -0.6140 0.1366
C53 C 0.1483(4) -0.56755(15) 0.2740(2)
H69 H 0.0808 -0.5727 0.2828
C54 C 0.2680(4) -0.52567(16) 0.3389(3)
H70 H 0.2789 -0.5030 0.3891
C55 C -0.0705(4) -1.02541(15) 0.5048(2)
H85 H 0.0118 -0.9977 0.5379
C56 C -0.2990(4) -1.06946(16) 0.3552(2)
H86 H -0.3772 -1.0723 0.2838
N3 N -0.1940(3) -1.10683(11) 0.52111(18)
C57 C -0.0812(4) -1.06511(14) 0.5621(2)
H87 H -0.0052 -1.0627 0.6338
C58 C -0.3012(4) -1.10823(15) 0.4178(2)
H88 H -0.3815 -1.1369 0.3864
C59 C -0.1825(3) -1.02674(13) 0.3976(2)
C60 C 0.5066(3) -0.47539(14) 0.4004(2)
C61 C 0.6427(4) -0.48925(15) 0.4272(2)
H89 H 0.6503 -0.5255 0.3999
C62 C 0.7661(4) -0.44965(14) 0.4940(2)
H90 H 0.8556 -0.4600 0.5103
C63 C 0.6358(4) -0.38428(14) 0.5135(2)
H91 H 0.6332 -0.3488 0.5445
N4 N 0.7640(3) -0.39671(12) 0.53679(19)
C64 C 0.5057(4) -0.42078(15) 0.4461(3)
H92 H 0.4180 -0.4090 0.4312
Co1A Co -0.18916(3) -1.173361(16) 0.61759(2)
Co2A Co 0.94928(3) -0.326160(16) 0.61470(2)
N3A N -0.1940(3) -0.89317(11) 0.02111(18)
N4A N -0.2360(3) -0.60329(12) 0.03679(19)
O14 O -0.6463(7) -0.5698(2) 0.0516(5)
H71 H -0.6071 -0.5326 0.0650
H72 H -0.7227 -0.5627 0.0445
O15 O 0.2700(5) -0.8634(2) 0.5795(3)
H73 H 0.2757 -0.9038 0.5895
H74 H 0.3270 -0.8337 0.6229
O16 O -0.9266(4) -0.80714(16) 0.0099(2)
H75 H -0.9120 -0.7873 0.0579
H76 H -1.0151 -0.7979 -0.0406
O17 O 0.3392(4) -0.99676(14) 0.6252(3)
H77 H 0.2746 -1.0206 0.5731
H78 H 0.3925 -1.0296 0.6606
O18 O -0.6353(11) -0.7012(3) 0.1063(9)
H79 H -0.6073 -0.6639 0.1051
H80 H -0.5697 -0.7312 0.1379
O19 O -0.4278(3) -0.80967(14) 0.1829(2)
H81 H -0.4551 -0.8186 0.1252
H82 H -0.3455 -0.7887 0.2167
O20 O 0.4710(3) -0.76040(14) 0.7329(2)
H83 H 0.5634 -0.7586 0.7672
H84 H 0.4667 -0.7583 0.7793
loop_
_geom_bond_atom_site_label_1
_geom_bond_atom_site_label_2
_geom_bond_site_symmetry_1
_geom_bond_site_symmetry_2
Co1 O2 1_555 1_555
Co2 O2 1_555 1_555
O1 C11 1_555 1_555
O2 H1 1_555 1_555
H2 O2 1_555 1_555
O3 Co2 1_555 1_555
O4 H3 1_555 1_555
O5 Co2 1_555 1_555
O6 Co1 1_555 1_555
O7 H4 1_555 1_555
O8 Co1 1_555 1_555
O9 Co2 1_555 1_555
O10 H5 1_555 1_555
O11 C44 1_555 1_555
O12 Co1 1_555 1_555
O13 H6 1_555 1_555
N1 Co1 1_555 1_555
N2 Co2 1_555 1_555
C1 C2 1_555 1_555
C2 H7 1_555 1_555
H8 C2 1_555 1_555
C3 C1 1_555 1_555
H9 C3 1_555 1_555
H10 C3 1_555 1_555
C4 C1 1_555 1_555
H11 C4 1_555 1_555
H12 C4 1_555 1_555
C5 O4 1_555 1_555
C6 C5 1_555 1_555
H13 C6 1_555 1_555
H14 C6 1_555 1_555
C7 C2 1_555 1_555
H15 C7 1_555 1_555
C8 C7 1_555 1_555
H16 C8 1_555 1_555
H17 C8 1_555 1_555
C9 C4 1_555 1_555
H18 C9 1_555 1_555
C10 C5 1_555 1_555
H19 C10 1_555 1_555
H20 C10 1_555 1_555
C11 O3 1_555 1_555
C12 C13 1_555 1_555
C13 H21 1_555 1_555
H22 C13 1_555 1_555
C14 C12 1_555 1_555
H23 C14 1_555 1_555
H24 C14 1_555 1_555
C15 C12 1_555 1_555
H25 C15 1_555 1_555
H26 C15 1_555 1_555
C16 O7 1_555 1_555
C17 C16 1_555 1_555
H27 C17 1_555 1_555
H28 C17 1_555 1_555
C18 C14 1_555 1_555
H29 C18 1_555 1_555
C19 C18 1_555 1_555
H30 C19 1_555 1_555
H31 C19 1_555 1_555
C20 C15 1_555 1_555
H32 C20 1_555 1_555
C21 C16 1_555 1_555
H33 C21 1_555 1_555
H34 C21 1_555 1_555
C22 O5 1_555 1_555
C23 C24 1_555 1_555
C24 H35 1_555 1_555
H36 C24 1_555 1_555
C25 C23 1_555 1_555
H37 C25 1_555 1_555
H38 C25 1_555 1_555
C26 C23 1_555 1_555
H39 C26 1_555 1_555
H40 C26 1_555 1_555
C27 O10 1_555 1_555
C28 C27 1_555 1_555
H41 C28 1_555 1_555
H42 C28 1_555 1_555
C29 C24 1_555 1_555
H43 C29 1_555 1_555
C30 C29 1_555 1_555
H44 C30 1_555 1_555
H45 C30 1_555 1_555
C31 C25 1_555 1_555
H46 C31 1_555 1_555
C32 C27 1_555 1_555
H47 C32 1_555 1_555
H48 C32 1_555 1_555
C33 O8 1_555 1_555
C34 C35 1_555 1_555
C35 H49 1_555 1_555
H50 C35 1_555 1_555
C36 C34 1_555 1_555
H51 C36 1_555 1_555
H52 C36 1_555 1_555
C37 C34 1_555 1_555
H53 C37 1_555 1_555
H54 C37 1_555 1_555
C38 O13 1_555 1_555
C39 C38 1_555 1_555
H55 C39 1_555 1_555
H56 C39 1_555 1_555
C40 C35 1_555 1_555
H57 C40 1_555 1_555
C41 C40 1_555 1_555
H58 C41 1_555 1_555
H59 C41 1_555 1_555
C42 C37 1_555 1_555
H60 C42 1_555 1_555
C43 C38 1_555 1_555
H61 C43 1_555 1_555
H62 C43 1_555 1_555
C44 O12 1_555 1_555
C45 C46 1_555 1_555
C46 H63 1_555 1_555
C47 N1 1_555 1_555
H64 C47 1_555 1_555
C48 N1 1_555 1_555
H65 C48 1_555 1_555
C49 C45 1_555 1_555
H66 C49 1_555 1_555
C50 C51 1_555 1_555
C51 H67 1_555 1_555
C52 N2 1_555 1_555
H68 C52 1_555 1_555
C53 N2 1_555 1_555
H69 C53 1_555 1_555
C54 C50 1_555 1_555
H70 C54 1_555 1_555
O14 H71 1_555 1_555
H72 O14 1_555 1_555
O15 H73 1_555 1_555
H74 O15 1_555 1_555
O16 H75 1_555 1_555
H76 O16 1_555 1_555
O17 H77 1_555 1_555
H78 O17 1_555 1_555
O18 H79 1_555 1_555
H80 O18 1_555 1_555
O19 H81 1_555 1_555
H82 O19 1_555 1_555
O20 H83 1_555 1_555
H84 O20 1_555 1_555
C55 H85 1_555 1_555
C56 H86 1_555 1_555
N3 C57 1_555 1_555
C57 C55 1_555 1_555
H87 C57 1_555 1_555
C58 C56 1_555 1_555
H88 C58 1_555 1_555
C59 C45 1_555 1_555
C60 C50 1_555 1_555
C61 C60 1_555 1_555
H89 C61 1_555 1_555
C62 C61 1_555 1_555
H90 C62 1_555 1_555
C63 H91 1_555 1_555
N4 C62 1_555 1_555
C64 C60 1_555 1_555
H92 C64 1_555 1_555
Co1A N3 1_555 1_555
Co2A N4 1_555 1_555
N3A Co1 1_555 1_555
N4A Co2 1_555 1_555
O6 C22 1_555 1_555
O9 C33 1_555 1_555
C1 C11 1_555 1_555
C3 C5 1_555 1_555
C6 C7 1_555 1_555
C8 C9 1_555 1_555
C9 C10 1_555 1_555
C12 C22 1_555 1_555
C13 C16 1_555 1_555
C17 C18 1_555 1_555
C19 C20 1_555 1_555
C20 C21 1_555 1_555
C23 C33 1_555 1_555
C26 C27 1_555 1_555
C28 C29 1_555 1_555
C30 C31 1_555 1_555
C31 C32 1_555 1_555
C34 C44 1_555 1_555
C36 C38 1_555 1_555
C39 C40 1_555 1_555
C41 C42 1_555 1_555
C42 C43 1_555 1_555
C46 C47 1_555 1_555
C48 C49 1_555 1_555
C51 C52 1_555 1_555
C53 C54 1_555 1_555
C55 C59 1_555 1_555
C56 C59 1_555 1_555
N3 C58 1_555 1_555
C63 N4 1_555 1_555
C63 C64 1_555 1_555

#END
