
#######################################################################
#
#                 Cambridge Crystallographic Data Centre
#                                CCDC 
#
#######################################################################
#
# If this CIF has been generated from an entry in the Cambridge 
# Structural Database, then it will include bibliographic, chemical, 
# crystal, experimental, refinement or atomic coordinate data resulting 
# from the CCDC's data processing and validation procedures.
#
#######################################################################

data_UQUQON
_symmetry_cell_setting           monoclinic
_symmetry_space_group_name_H-M   'P 21/n'
_symmetry_Int_Tables_number      14
_space_group_name_Hall           '-P 2yn'
loop_
_symmetry_equiv_pos_site_id
_symmetry_equiv_pos_as_xyz
1 x,y,z
2 1/2-x,1/2+y,1/2-z
3 -x,-y,-z
4 1/2+x,1/2-y,1/2+z
_cell_length_a                   15.5535(3)
_cell_length_b                   6.61183(16)
_cell_length_c                   20.1828(4)
_cell_angle_alpha                90
_cell_angle_beta                 94.3750(18)
_cell_angle_gamma                90
_cell_volume                     2069.49
loop_
_atom_site_label
_atom_site_type_symbol
_atom_site_fract_x
_atom_site_fract_y
_atom_site_fract_z
Ca1 Ca 0.45197(2) 0.25532(5) 0.033347(19)
O1 O 0.39727(11) 0.2332(3) -0.08057(9)
O2 O 0.36276(12) 0.5693(3) 0.16770(10)
O3 O 0.33262(10) 0.2999(3) 0.10426(9)
O4 O 0.59059(9) 0.0795(2) -0.02003(7)
O5 O 0.58487(8) 0.4064(2) -0.00286(7)
O6 O 0.54914(11) 0.1360(2) 0.12874(8)
O7 O 0.51357(9) 0.4557(2) 0.13481(7)
C1 C 0.1629(2) 0.2997(6) 0.14566(18)
H1 H 0.1815 0.1822 0.1258
C2 C 0.0778(2) 0.3155(8) 0.1610(2)
H2 H 0.0396 0.2089 0.1522
C3 C 0.0512(3) 0.4885(8) 0.1889(2)
H3 H -0.0059 0.5006 0.1990
C4 C 0.1074(3) 0.6473(9) 0.2026(3)
H4 H 0.0881 0.7654 0.2216
C5 C 0.1927(2) 0.6303(6) 0.18807(18)
H5 H 0.2312 0.7358 0.1975
C6 C 0.21971(16) 0.4540(4) 0.15927(12)
C7 C 0.31009(15) 0.4324(4) 0.14106(12)
C8 C 0.76481(14) 0.4308(4) 0.02152(12)
H6 H 0.7323 0.5391 0.0351
C9 C 0.85412(16) 0.4419(5) 0.02713(15)
H7 H 0.8813 0.5579 0.0444
C10 C 0.90217(16) 0.2842(5) 0.00760(17)
H8 H 0.962 0.2931 0.0110
C11 C 0.86257(17) 0.1122(5) -0.01702(18)
H9 H 0.8957 0.0043 -0.0301
C12 C 0.77321(15) 0.0979(4) -0.02254(14)
H10 H 0.7466 -0.0201 -0.0386
C13 C 0.72419(13) 0.2590(3) -0.00417(11)
C14 C 0.62723(12) 0.2463(3) -0.01012(9)
C15 C 0.59799(16) 0.4938(4) 0.26173(12)
H11 H 0.5636 0.6006 0.2455
C16 C 0.64396(19) 0.5095(5) 0.32353(14)
H12 H 0.6395 0.626 0.3489
C17 C 0.69539(17) 0.3548(6) 0.34678(14)
H13 H 0.7262 0.3663 0.3879
C18 C 0.70210(18) 0.1819(6) 0.31004(15)
H14 H 0.7377 0.0771 0.3261
C19 C 0.65589(15) 0.1632(5) 0.24906(12)
H15 H 0.6600 0.0453 0.2244
C20 C 0.60356(13) 0.3198(4) 0.22475(10)
C21 C 0.55280(13) 0.3005(3) 0.15892(10)
H16 H 0.4060(18) 0.139(5) -0.1002(14)
H17 H 0.4184(19) 0.325(5) -0.1072(15)
H18 H 0.420(2) 0.543(5) 0.1603(16)
Ca1B Ca 0.54803(2) -0.25532(5) -0.033347(19)
Ca1B_2 Ca 0.54803(2) 0.74468(5) -0.033347(19)
O4B O 0.40941(9) -0.0795(2) 0.02003(7)
O5B O 0.41513(8) 0.5936(2) 0.00286(7)
loop_
_geom_bond_atom_site_label_1
_geom_bond_atom_site_label_2
_geom_bond_site_symmetry_1
_geom_bond_site_symmetry_2
Ca1 O1 1_555 1_555
O1 H16 1_555 1_555
O2 C7 1_555 1_555
O3 Ca1 1_555 1_555
O4 Ca1 1_555 1_555
O5 Ca1 1_555 1_555
O6 Ca1 1_555 1_555
O7 Ca1 1_555 1_555
C1 H1 1_555 1_555
C2 C1 1_555 1_555
H2 C2 1_555 1_555
C3 C2 1_555 1_555
H3 C3 1_555 1_555
C4 C3 1_555 1_555
H4 C4 1_555 1_555
C5 C4 1_555 1_555
H5 C5 1_555 1_555
C6 C1 1_555 1_555
C7 O3 1_555 1_555
C8 H6 1_555 1_555
C9 C8 1_555 1_555
H7 C9 1_555 1_555
C10 C9 1_555 1_555
H8 C10 1_555 1_555
C11 C10 1_555 1_555
H9 C11 1_555 1_555
C12 C11 1_555 1_555
H10 C12 1_555 1_555
C13 C8 1_555 1_555
C14 O4 1_555 1_555
C15 H11 1_555 1_555
C16 C15 1_555 1_555
H12 C16 1_555 1_555
C17 C16 1_555 1_555
H13 C17 1_555 1_555
C18 C17 1_555 1_555
H14 C18 1_555 1_555
C19 C18 1_555 1_555
H15 C19 1_555 1_555
C20 C15 1_555 1_555
C21 O6 1_555 1_555
H17 O1 1_555 1_555
H18 O2 1_555 1_555
Ca1B O4 1_555 1_555
Ca1B_2 O5 1_555 1_555
O4B Ca1 1_555 1_555
O5B Ca1 1_555 1_555
O5 C14 1_555 1_555
O7 C21 1_555 1_555
C5 C6 1_555 1_555
C6 C7 1_555 1_555
C12 C13 1_555 1_555
C13 C14 1_555 1_555
C19 C20 1_555 1_555
C20 C21 1_555 1_555
Ca1B O4B 1_555 1_555
Ca1B_2 O5B 1_555 1_555

#END
