
#######################################################################
#
#                 Cambridge Crystallographic Data Centre
#                                CCDC 
#
#######################################################################
#
# If this CIF has been generated from an entry in the Cambridge 
# Structural Database, then it will include bibliographic, chemical, 
# crystal, experimental, refinement or atomic coordinate data resulting 
# from the CCDC's data processing and validation procedures.
#
#######################################################################

data_UQUTAC
_symmetry_cell_setting           triclinic
_symmetry_space_group_name_H-M   'P -1'
_symmetry_Int_Tables_number      2
_space_group_name_Hall           '-P 1'
loop_
_symmetry_equiv_pos_site_id
_symmetry_equiv_pos_as_xyz
1 x,y,z
2 -x,-y,-z
_cell_length_a                   7.7120(5)
_cell_length_b                   9.2713(6)
_cell_length_c                   13.2452(9)
_cell_angle_alpha                75.5290(10)
_cell_angle_beta                 76.2160(10)
_cell_angle_gamma                78.1170(10)
_cell_volume                     879.727
loop_
_atom_site_label
_atom_site_type_symbol
_atom_site_fract_x
_atom_site_fract_y
_atom_site_fract_z
Yb1 Yb -1.54822(5) 0.44473(4) 1.29969(3)
Cu1 Cu -0.50000 0.00000 1.00000
O1 O -1.6110(8) 0.3995(7) 1.1450(5)
O2 O -1.3316(9) 0.4451(8) 1.3877(6)
O3 O -1.3630(10) 0.5804(7) 1.1579(6)
O4 O -1.8540(8) 0.5219(7) 1.2891(5)
O5 O -1.6911(8) 0.3957(6) 1.4751(4)
O6 O -1.8886(10) 0.2765(7) 1.6052(5)
O7 O -1.4698(8) -0.1486(6) 1.1946(5)
O8 O -1.6197(8) -0.3112(6) 1.3232(5)
O9 O -1.3050(9) 0.2663(9) 1.2453(7)
O10 O -1.0479(9) 0.3213(9) 1.2602(7)
O11 O -0.5522(8) -0.1832(6) 0.9752(5)
O12 O -0.7589(9) -0.3353(7) 1.0259(5)
N1 N -1.6426(9) 0.1903(7) 1.3626(5)
N2 N -0.7584(9) 0.0225(8) 1.0715(5)
C1 C -1.7354(11) 0.1579(9) 1.4626(7)
C2 C -1.7878(14) 0.0187(10) 1.5096(7)
C3 C -1.7363(14) -0.0958(10) 1.4529(8)
C4 C -1.6381(11) -0.0647(9) 1.3490(7)
C5 C -1.5969(11) 0.0796(8) 1.3073(6)
C6 C -1.7773(12) 0.2844(10) 1.5206(7)
C7 C -1.5715(11) -0.1839(9) 1.2832(7)
C8 C -0.8560(12) 0.1326(10) 1.1204(7)
C9 C -1.0322(11) 0.1248(9) 1.1753(7)
C10 C -1.1051(11) -0.0033(9) 1.1840(7)
C11 C -1.0035(11) -0.1185(9) 1.1363(7)
C12 C -0.8297(11) -0.1007(9) 1.0802(6)
C13 C -1.1376(12) 0.2519(11) 1.2280(8)
C14 C -0.7085(11) -0.2177(9) 1.0241(6)
H1 H -1.66390 0.46790 1.10640
H2 H -1.53470 0.35050 1.10650
H3 H -1.21830 0.42440 1.35540
H4 H -1.33500 0.50930 1.42170
H5 H -1.85660 0.00190 1.57820
H6 H -1.36350 0.66880 1.16450
H7 H -1.28010 0.56360 1.10850
H8 H -1.76680 -0.19130 1.48370
H9 H -1.91280 0.47130 1.27160
H10 H -1.92920 0.58020 1.32070
H11 H -1.53430 0.10130 1.23730
H12 H -0.80400 0.21600 1.11730
H13 H -1.22200 -0.01180 1.22180
H14 H -1.05020 -0.20550 1.14160
Yb1A Yb 0.54822(5) -0.44473(4) 0.70031(3)
Yb1_2 Yb -1.54822(5) -0.55527(4) 1.29969(3)
Yb1_3 Yb -1.54822(5) 1.44473(4) 1.29969(3)
O1A O 0.6110(8) -0.3995(7) 0.8550(5)
O2A O 0.3316(9) -0.4451(8) 0.6123(6)
O3A O 0.3630(10) -0.5804(7) 0.8421(6)
O4A O 0.8540(8) -0.5219(7) 0.7109(5)
O5_2 O -1.6911(8) 1.3957(6) 1.4751(4)
O5A O 0.6911(8) -0.3957(6) 0.5249(4)
O6_2 O -1.8886(10) 1.2765(7) 1.6052(5)
O7_2 O -1.4698(8) 0.8514(6) 1.1946(5)
O8_2 O -1.6197(8) 0.6888(6) 1.3232(5)
O8A O 0.6197(8) -0.6888(6) 0.6768(5)
O9A O 0.3050(9) -0.2663(9) 0.7547(7)
O10A O 0.0479(9) -0.3213(9) 0.7398(7)
O11A O -0.4478(8) 0.1832(6) 1.0248(5)
O12A O -0.2411(9) 0.3353(7) 0.9741(5)
N1_2 N -1.6426(9) 1.1903(7) 1.3626(5)
N1A N 0.6426(9) -0.1903(7) 0.6374(5)
N2A N -0.2416(9) -0.0225(8) 0.9285(5)
C1_2 C -1.7354(11) 1.1579(9) 1.4626(7)
C2_2 C -1.7878(14) 1.0187(10) 1.5096(7)
C3_2 C -1.7363(14) 0.9042(10) 1.4529(8)
C4_2 C -1.6381(11) 0.9353(9) 1.3490(7)
C5_2 C -1.5969(11) 1.0796(8) 1.3073(6)
C6_2 C -1.7773(12) 1.2844(10) 1.5206(7)
C7_2 C -1.5715(11) 0.8161(9) 1.2832(7)
C8A C -0.1440(12) -0.1326(10) 0.8796(7)
C9A C 0.0322(11) -0.1248(9) 0.8247(7)
C10A C 0.1051(11) 0.0033(9) 0.8160(7)
C11A C 0.0035(11) 0.1185(9) 0.8637(7)
C12A C -0.1703(11) 0.1007(9) 0.9198(6)
C13A C 0.1376(12) -0.2519(11) 0.7720(8)
C14A C -0.2915(11) 0.2177(9) 0.9759(6)
H1A H 0.66390 -0.46790 0.89360
H2A H 0.53470 -0.35050 0.89350
H3A H 0.21830 -0.42440 0.64460
H4A H 0.33500 -0.50930 0.57830
H5_2 H -1.85660 1.00190 1.57820
H6A H 0.36350 -0.66880 0.83550
H7A H 0.28010 -0.56360 0.89150
H8_2 H -1.76680 0.80870 1.48370
H9A H 0.91280 -0.47130 0.72840
H10A H 0.92920 -0.58020 0.67930
H11_2 H -1.53430 1.10130 1.23730
H12A H -0.19600 -0.21600 0.88270
H13A H 0.22200 0.01180 0.77820
H14A H 0.05020 0.20550 0.85840
O13 O 0.035(3) 0.497(2) 0.9652(15)
H15 H 0.01660 0.56250 0.90790
H16 H -0.04850 0.44950 0.96530
loop_
_geom_bond_atom_site_label_1
_geom_bond_atom_site_label_2
_geom_bond_site_symmetry_1
_geom_bond_site_symmetry_2
Yb1 O1 1_555 1_555
Cu1 O11 1_555 1_555
O1 H1 1_555 1_555
O2 Yb1 1_555 1_555
O3 Yb1 1_555 1_555
O4 Yb1 1_555 1_555
O5 Yb1 1_555 1_555
O6 C6 1_555 1_555
O7 C7 1_555 1_555
O8 C7 1_555 1_555
O9 Yb1 1_555 1_555
O10 C13 1_555 1_555
O11 C14 1_555 1_555
O12 C14 1_555 1_555
N1 Yb1 1_555 1_555
N2 Cu1 1_555 1_555
C1 N1 1_555 1_555
C2 C1 1_555 1_555
C3 C2 1_555 1_555
C4 C3 1_555 1_555
C5 N1 1_555 1_555
C6 O5 1_555 1_555
C7 C4 1_555 1_555
C8 N2 1_555 1_555
C9 C8 1_555 1_555
C10 C9 1_555 1_555
C11 C10 1_555 1_555
C12 N2 1_555 1_555
C13 O9 1_555 1_555
C14 C12 1_555 1_555
O13 H15 1_555 1_555
H2 O1 1_555 1_555
H3 O2 1_555 1_555
H4 O2 1_555 1_555
H5 C2 1_555 1_555
H6 O3 1_555 1_555
H7 O3 1_555 1_555
H8 C3 1_555 1_555
H9 O4 1_555 1_555
H10 O4 1_555 1_555
H11 C5 1_555 1_555
H12 C8 1_555 1_555
H13 C10 1_555 1_555
H14 C11 1_555 1_555
H16 O13 1_555 1_555
Yb1A O1A 1_555 1_555
Yb1_2 O8 1_555 1_555
Yb1_3 O5_2 1_555 1_555
O1A H1A 1_555 1_555
O2A Yb1A 1_555 1_555
O3A Yb1A 1_555 1_555
O4A Yb1A 1_555 1_555
O5_2 C6_2 1_555 1_555
O5A Yb1A 1_555 1_555
O6_2 C6_2 1_555 1_555
O7_2 C7_2 1_555 1_555
O8_2 Yb1 1_555 1_555
O8A Yb1A 1_555 1_555
O9A Yb1A 1_555 1_555
O10A C13A 1_555 1_555
O11A Cu1 1_555 1_555
O12A C14A 1_555 1_555
N1_2 Yb1_3 1_555 1_555
N1A Yb1A 1_555 1_555
N2A Cu1 1_555 1_555
C1_2 N1_2 1_555 1_555
C2_2 C1_2 1_555 1_555
C3_2 C2_2 1_555 1_555
C4_2 C3_2 1_555 1_555
C5_2 N1_2 1_555 1_555
C6_2 C1_2 1_555 1_555
C7_2 O8_2 1_555 1_555
C8A N2A 1_555 1_555
C9A C8A 1_555 1_555
C10A C9A 1_555 1_555
C11A C10A 1_555 1_555
C12A N2A 1_555 1_555
C13A O9A 1_555 1_555
C14A O11A 1_555 1_555
H2A O1A 1_555 1_555
H3A O2A 1_555 1_555
H4A O2A 1_555 1_555
H5_2 C2_2 1_555 1_555
H6A O3A 1_555 1_555
H7A O3A 1_555 1_555
H8_2 C3_2 1_555 1_555
H9A O4A 1_555 1_555
H10A O4A 1_555 1_555
H11_2 C5_2 1_555 1_555
H12A C8A 1_555 1_555
H13A C10A 1_555 1_555
H14A C11A 1_555 1_555
C1 C6 1_555 1_555
C4 C5 1_555 1_555
C9 C13 1_555 1_555
C11 C12 1_555 1_555
C4_2 C5_2 1_555 1_555
C4_2 C7_2 1_555 1_555
C9A C13A 1_555 1_555
C11A C12A 1_555 1_555
C12A C14A 1_555 1_555

#END
