
#######################################################################
#
#                 Cambridge Crystallographic Data Centre
#                                CCDC 
#
#######################################################################
#
# If this CIF has been generated from an entry in the Cambridge 
# Structural Database, then it will include bibliographic, chemical, 
# crystal, experimental, refinement or atomic coordinate data resulting 
# from the CCDC's data processing and validation procedures.
#
#######################################################################

data_UQUWUZ
_symmetry_cell_setting           orthorhombic
_symmetry_space_group_name_H-M   'P 21 21 21'
_symmetry_Int_Tables_number      19
_space_group_name_Hall           'P 2ac 2ab'
loop_
_symmetry_equiv_pos_site_id
_symmetry_equiv_pos_as_xyz
1 x,y,z
2 1/2-x,-y,1/2+z
3 -x,1/2+y,1/2-z
4 1/2+x,1/2-y,-z
_cell_length_a                   6.9718(4)
_cell_length_b                   11.8902(6)
_cell_length_c                   24.7024(13)
_cell_angle_alpha                90
_cell_angle_beta                 90
_cell_angle_gamma                90
_cell_volume                     2047.73
loop_
_atom_site_label
_atom_site_type_symbol
_atom_site_fract_x
_atom_site_fract_y
_atom_site_fract_z
Cu1 Cu 0.03097(7) 0.92990(4) 1.007152(16)
S1 S 0.1487(2) 0.72711(14) 0.75829(5)
C1 C 0.0206(6) 1.1839(3) 0.96479(14)
C2 C 0.0198(7) 1.1840(3) 0.90774(15)
H1 H 0.0161 1.1176 0.8879
C3 C 0.0246(7) 1.2888(4) 0.88271(16)
H2 H 0.0244 1.2923 0.8451
C4 C 0.0297(7) 1.3874(4) 0.91190(17)
H3 H 0.0311 1.4552 0.8932
C5 C 0.0329(7) 1.3900(3) 0.96696(16)
H4 H 0.0390 1.4573 0.9861
C6 C 0.0265(5) 1.2874(3) 0.99268(14)
C7 C 0.0303(6) 1.1451(3) 1.04985(14)
C8 C 0.0452(6) 1.0774(3) 1.09845(13)
C9 C 0.0441(7) 1.1167(4) 1.15117(15)
H5 H 0.0334 1.1933 1.1584
C10 C 0.0590(8) 1.0405(4) 1.19261(16)
H6 H 0.0574 1.0646 1.2284
C11 C 0.0767(6) 0.9258(4) 1.18046(17)
H7 H 0.0878 0.8729 1.2080
C12 C 0.0774(6) 0.8931(4) 1.12754(16)
H8 H 0.0885 0.8169 1.1196
C13 C 0.1548(5) 0.7221(3) 0.97297(14)
C14 C 0.0420(6) 0.7667(3) 0.92357(13)
H9 H -0.0844 0.7307 0.9240
C15 C 0.1402(6) 0.7342(3) 0.87040(15)
H10 H 0.2677 0.7667 0.8697
H11 H 0.1543 0.6530 0.8692
C16 C 0.0311(7) 0.7726(4) 0.81999(15)
H12 H 0.0217 0.8540 0.8201
H13 H -0.0980 0.7423 0.8210
C17 C 0.0818(9) 0.5877(5) 0.7533(2)
H14 H 0.0984 0.5516 0.7878
H15 H 0.1602 0.5508 0.7268
H16 H -0.0504 0.5831 0.7427
N1 N 0.0205(4) 1.0973(2) 1.00175(11)
N2 N 0.0307(5) 1.2578(2) 1.04683(12)
H17 H 0.0330 1.3035 1.0738
N3 N 0.0626(5) 0.9665(3) 1.08662(12)
N4 N 0.0118(5) 0.8879(2) 0.92955(11)
H18 H -0.1048 0.9066 0.9167
H19 H 0.1005 0.9257 0.9103
O1 O 0.1548(4) 0.7856(2) 1.01441(10)
O2 O 0.2326(4) 0.6305(2) 0.96999(10)
Cu1C Cu 0.53097(7) 0.57010(4) 0.992848(16)
O2C O -0.2674(4) 0.8695(2) 1.03001(10)
Cl1 Cl 0.50122(15) 0.99416(8) 0.86259(4)
O3 O 0.5967(8) 1.0975(4) 0.8603(2)
O4 O 0.4179(8) 0.9815(5) 0.91477(17)
O5 O 0.6217(8) 0.9044(4) 0.8494(3)
O6 O 0.3501(8) 0.9903(5) 0.8275(2)
loop_
_geom_bond_atom_site_label_1
_geom_bond_atom_site_label_2
_geom_bond_site_symmetry_1
_geom_bond_site_symmetry_2
Cu1 N1 1_555 1_555
S1 C16 1_555 1_555
C1 C2 1_555 1_555
C2 H1 1_555 1_555
C3 C2 1_555 1_555
H2 C3 1_555 1_555
C4 C3 1_555 1_555
H3 C4 1_555 1_555
C5 C4 1_555 1_555
H4 C5 1_555 1_555
C6 C1 1_555 1_555
C7 C8 1_555 1_555
C8 C9 1_555 1_555
C9 H5 1_555 1_555
C10 C9 1_555 1_555
H6 C10 1_555 1_555
C11 C10 1_555 1_555
H7 C11 1_555 1_555
C12 C11 1_555 1_555
H8 C12 1_555 1_555
C13 C14 1_555 1_555
C14 H9 1_555 1_555
C15 C14 1_555 1_555
H10 C15 1_555 1_555
H11 C15 1_555 1_555
C16 C15 1_555 1_555
H12 C16 1_555 1_555
H13 C16 1_555 1_555
C17 S1 1_555 1_555
H14 C17 1_555 1_555
H15 C17 1_555 1_555
H16 C17 1_555 1_555
N1 C1 1_555 1_555
N2 C6 1_555 1_555
H17 N2 1_555 1_555
N3 Cu1 1_555 1_555
N4 Cu1 1_555 1_555
H18 N4 1_555 1_555
H19 N4 1_555 1_555
O1 Cu1 1_555 1_555
O2 C13 1_555 1_555
Cl1 O3 1_555 1_555
O4 Cl1 1_555 1_555
O5 Cl1 1_555 1_555
O6 Cl1 1_555 1_555
Cu1C O2 1_555 1_555
O2C Cu1 1_555 1_555
C5 C6 1_555 1_555
C7 N1 1_555 1_555
C7 N2 1_555 1_555
C8 N3 1_555 1_555
C12 N3 1_555 1_555
C13 O1 1_555 1_555
C14 N4 1_555 1_555

#END
