
#######################################################################
#
#                 Cambridge Crystallographic Data Centre
#                                CCDC 
#
#######################################################################
#
# If this CIF has been generated from an entry in the Cambridge 
# Structural Database, then it will include bibliographic, chemical, 
# crystal, experimental, refinement or atomic coordinate data resulting 
# from the CCDC's data processing and validation procedures.
#
#######################################################################

data_UQUZUC
_symmetry_cell_setting           triclinic
_symmetry_space_group_name_H-M   'P -1'
_symmetry_Int_Tables_number      2
_space_group_name_Hall           '-P 1'
loop_
_symmetry_equiv_pos_site_id
_symmetry_equiv_pos_as_xyz
1 x,y,z
2 -x,-y,-z
_cell_length_a                   9.5444(19)
_cell_length_b                   10.667(2)
_cell_length_c                   11.222(2)
_cell_angle_alpha                64.63(3)
_cell_angle_beta                 79.50(3)
_cell_angle_gamma                87.50(3)
_cell_volume                     1014.28
loop_
_atom_site_label
_atom_site_type_symbol
_atom_site_fract_x
_atom_site_fract_y
_atom_site_fract_z
Pr1 Pr 0.194718(10) 0.107410(10) 0.725374(9)
O1 O 0.17790(15) 0.14537(16) 0.92701(14)
N1 N 0.43859(18) 0.13489(18) 0.79437(16)
O2 O 0.94311(15) 0.15185(18) 0.73503(16)
N2 N 0.36969(19) 0.25158(18) 0.49260(17)
C1 C 0.5686(2) 0.1198(2) 0.7350(2)
H1 H 0.5761 0.0949 0.6642
O3 O 0.0720(2) -0.1109(2) 0.89507(19)
O4 O 0.19850(19) 0.35430(16) 0.63801(16)
O5 O 0.1175(2) 0.0591(2) 0.5508(2)
C2 C 0.8356(2) 0.1232(2) 0.7005(2)
O6 O 0.83952(17) 0.0841(2) 0.60974(18)
C3 C 0.4287(2) 0.1698(2) 0.89743(19)
C4 C 0.2795(2) 0.1837(2) 0.9634(2)
O7 O 0.2580(2) 0.57179(18) 0.49073(19)
C5 C 0.5464(2) 0.1908(2) 0.9421(2)
H2 H 0.5361 0.2152 1.0133
C6 C 0.6928(2) 0.1394(2) 0.7731(2)
C7 C 0.3728(2) 0.3897(2) 0.4479(2)
O8 O 0.26769(19) 0.2280(2) 1.0488(2)
C8 C 0.2689(3) 0.4449(2) 0.5310(2)
C9 C 0.6802(2) 0.1750(2) 0.8796(2)
H3 H 0.7611 0.1882 0.9088
C10 C 0.4576(2) 0.1982(2) 0.4206(2)
H4 H 0.4542 0.1025 0.4494
C14 C 0.5533(2) 0.2772(2) 0.3059(2)
C15 C 0.6545(2) 0.2095(2) 0.2339(2)
C16 C 0.5552(3) 0.4201(3) 0.2616(3)
H10 H 0.6176 0.4769 0.1845
C17 C 0.4634(3) 0.4765(2) 0.3334(3)
H11 H 0.4624 0.5722 0.3051
O9 O 0.7309(2) 0.28565(18) 0.12655(17)
O10 O 0.65553(16) 0.07807(15) 0.28965(15)
H12 H 0.002(4) -0.129(3) 0.946(3)
H13 H 0.025(4) 0.069(3) 0.564(3)
H14 H 0.149(4) 0.034(4) 0.501(4)
H15 H 0.111(4) -0.174(3) 0.904(3)
Pr1_2 Pr 1.194718(10) 0.107410(10) 0.725374(9)
Pr1A Pr 0.805282(10) -0.107410(10) 0.274626(9)
O2_2 O -0.05689(15) 0.15185(18) 0.73503(16)
O10A O 0.34447(16) -0.07807(15) 0.71035(15)
N3 N 0.0958(3) 0.3420(3) 0.1892(2)
H5 H 0.1334 0.2930 0.1485
C11 C -0.0147(3) 0.3044(3) 0.2871(3)
H6 H -0.0651 0.2196 0.3246
C12 C 0.0534(4) 0.5118(3) 0.2475(4)
H7 H 0.0578 0.5961 0.2529
N4 N -0.0426(3) 0.4050(2) 0.3233(2)
H8 H -0.1110 0.4039 0.3854
C13 C 0.1408(4) 0.4721(3) 0.1631(4)
H9 H 0.2177 0.5237 0.0987
loop_
_geom_bond_atom_site_label_1
_geom_bond_atom_site_label_2
_geom_bond_site_symmetry_1
_geom_bond_site_symmetry_2
Pr1 O1 1_555 1_555
O1 C4 1_555 1_555
N1 Pr1 1_555 1_555
O2 C2 1_555 1_555
N2 Pr1 1_555 1_555
C1 N1 1_555 1_555
H1 C1 1_555 1_555
O3 Pr1 1_555 1_555
O4 Pr1 1_555 1_555
O5 Pr1 1_555 1_555
C2 O6 1_555 1_555
C3 N1 1_555 1_555
C4 C3 1_555 1_555
O7 C8 1_555 1_555
C5 C3 1_555 1_555
H2 C5 1_555 1_555
C6 C1 1_555 1_555
C7 N2 1_555 1_555
O8 C4 1_555 1_555
C8 O4 1_555 1_555
C9 C5 1_555 1_555
H3 C9 1_555 1_555
C10 N2 1_555 1_555
H4 C10 1_555 1_555
N3 H5 1_555 1_555
C11 N3 1_555 1_555
H6 C11 1_555 1_555
C12 H7 1_555 1_555
N4 C11 1_555 1_555
H8 N4 1_555 1_555
C13 N3 1_555 1_555
H9 C13 1_555 1_555
C14 C10 1_555 1_555
C15 C14 1_555 1_555
C16 C14 1_555 1_555
H10 C16 1_555 1_555
C17 C7 1_555 1_555
H11 C17 1_555 1_555
O9 C15 1_555 1_555
O10 C15 1_555 1_555
H12 O3 1_555 1_555
H13 O5 1_555 1_555
H14 O5 1_555 1_555
H15 O3 1_555 1_555
Pr1_2 O2 1_555 1_555
Pr1A O10 1_555 1_555
O2_2 Pr1 1_555 1_555
O10A Pr1 1_555 1_555
C2 C6 1_555 1_555
C6 C9 1_555 1_555
C7 C8 1_555 1_555
C12 N4 1_555 1_555
C12 C13 1_555 1_555
C16 C17 1_555 1_555

#END
