
#######################################################################
#
#                 Cambridge Crystallographic Data Centre
#                                CCDC 
#
#######################################################################
#
# If this CIF has been generated from an entry in the Cambridge 
# Structural Database, then it will include bibliographic, chemical, 
# crystal, experimental, refinement or atomic coordinate data resulting 
# from the CCDC's data processing and validation procedures.
#
#######################################################################

data_URACEW
_symmetry_cell_setting           trigonal
_symmetry_space_group_name_H-M   'P 31'
_symmetry_Int_Tables_number      144
_space_group_name_Hall           'P 31'
loop_
_symmetry_equiv_pos_site_id
_symmetry_equiv_pos_as_xyz
1 x,y,z
2 -y,x-y,1/3+z
3 -x+y,-x,2/3+z
_cell_length_a                   9.7894(19)
_cell_length_b                   9.7894(19)
_cell_length_c                   10.483(2)
_cell_angle_alpha                90
_cell_angle_beta                 90
_cell_angle_gamma                120
_cell_volume                     870.018
loop_
_atom_site_label
_atom_site_type_symbol
_atom_site_fract_x
_atom_site_fract_y
_atom_site_fract_z
Cu1 Cu 0.44797(7) 0.33783(7) 0.62232(6)
O1 O 0.6474(5) 0.5593(5) 0.3892(5)
N1 N -0.3953(6) -0.0278(5) 0.1055(5)
C1 C 0.6055(6) 0.4173(6) 0.3901(5)
O2 O 0.6941(4) 0.3626(5) 0.3546(4)
N2 N -0.3899(5) -0.0886(6) 0.3067(5)
C2 C 0.4448(6) 0.2963(6) 0.4352(5)
H1 H 0.4069 0.1847 0.4093
C3 C 0.3305(6) 0.3354(6) 0.4620(5)
H2 H 0.3597 0.4436 0.4320
C4 C 0.1578(6) 0.2269(6) 0.4662(5)
C5 C 0.0875(7) 0.0622(7) 0.4627(6)
H3 H 0.1519 0.0150 0.4631
C6 C -0.0749(7) -0.0321(7) 0.4588(6)
H4 H -0.1213 -0.1436 0.4558
C7 C 0.0604(6) 0.2919(7) 0.4678(6)
H5 H 0.1061 0.4034 0.4692
C8 C -0.1017(7) 0.1980(7) 0.4675(6)
H6 H -0.1662 0.2449 0.4731
C9 C -0.1707(6) 0.0355(7) 0.4591(6)
C10 C -0.3482(7) -0.0695(9) 0.4438(6)
H7 H -0.3824 -0.1740 0.4824
H8 H -0.4031 -0.0216 0.4884
C11 C -0.3627(7) 0.0271(7) 0.2233(6)
H9 H -0.3250 0.1340 0.2462
C12 C -0.4460(7) -0.2242(7) 0.2378(6)
H10 H -0.4761 -0.3261 0.2701
C13 C -0.4504(7) -0.1860(7) 0.1143(6)
H11 H -0.4863 -0.2579 0.0448
Cu1B Cu 0.88986(10) 0.55203(7) 0.28899(6)
Cu1A Cu -0.33783(7) 0.11014(10) -0.04435(6)
O1A O 0.4407(5) 0.0881(7) 0.7225(5)
N1B N 0.3675(8) 0.3953(6) 0.7722(5)
O2A O 0.6374(5) 0.3315(6) 0.6879(4)
loop_
_geom_bond_atom_site_label_1
_geom_bond_atom_site_label_2
_geom_bond_site_symmetry_1
_geom_bond_site_symmetry_2
Cu1 C2 1_555 1_555
O1 C1 1_555 1_555
N1 C11 1_555 1_555
C1 O2 1_555 1_555
O2 Cu1B 1_555 1_555
N2 C10 1_555 1_555
C2 C1 1_555 1_555
H1 C2 1_555 1_555
C3 Cu1 1_555 1_555
H2 C3 1_555 1_555
C4 C3 1_555 1_555
C5 C4 1_555 1_555
H3 C5 1_555 1_555
C6 C5 1_555 1_555
H4 C6 1_555 1_555
C7 C4 1_555 1_555
H5 C7 1_555 1_555
C8 C7 1_555 1_555
H6 C8 1_555 1_555
C9 C6 1_555 1_555
C10 C9 1_555 1_555
H7 C10 1_555 1_555
H8 C10 1_555 1_555
C11 N2 1_555 1_555
H9 C11 1_555 1_555
C12 N2 1_555 1_555
H10 C12 1_555 1_555
C13 N1 1_555 1_555
H11 C13 1_555 1_555
Cu1B O1 1_555 1_555
Cu1A N1 1_555 1_555
O1A Cu1 1_555 1_555
N1B Cu1 1_555 1_555
O2A Cu1 1_555 1_555
C2 C3 1_555 1_555
C8 C9 1_555 1_555
C12 C13 1_555 1_555

#END
