
#######################################################################
#
#                 Cambridge Crystallographic Data Centre
#                                CCDC 
#
#######################################################################
#
# If this CIF has been generated from an entry in the Cambridge 
# Structural Database, then it will include bibliographic, chemical, 
# crystal, experimental, refinement or atomic coordinate data resulting 
# from the CCDC's data processing and validation procedures.
#
#######################################################################

data_URIPIV
_symmetry_cell_setting           orthorhombic
_symmetry_space_group_name_H-M   'P n a 21'
_symmetry_Int_Tables_number      33
_space_group_name_Hall           'P 2c -2n'
loop_
_symmetry_equiv_pos_site_id
_symmetry_equiv_pos_as_xyz
1 x,y,z
2 -x,-y,1/2+z
3 1/2+x,1/2-y,z
4 1/2-x,1/2+y,1/2+z
_cell_length_a                   7.490(2)
_cell_length_b                   12.207(4)
_cell_length_c                   18.707(6)
_cell_angle_alpha                90
_cell_angle_beta                 90
_cell_angle_gamma                90
_cell_volume                     1710.39
loop_
_atom_site_label
_atom_site_type_symbol
_atom_site_fract_x
_atom_site_fract_y
_atom_site_fract_z
Cu1 Cu 0.26446(7) 0.45749(5) 1.07690(6)
N1 N 0.2809(6) 0.5466(4) 0.9848(3)
N2 N 0.2720(6) 0.8655(4) 0.6677(3)
N3 N 0.5001(8) 0.5403(4) 1.1239(3)
N4 N 0.7802(9) 0.6410(6) 1.1231(7)
N5 N 1.0737(7) 0.5575(4) 1.1113(3)
N6 N 0.3814(8) 0.3305(4) 1.0297(3)
N7 N 0.4508(11) 0.1411(5) 1.0067(4)
N8 N 0.2675(11) -0.0025(9) 0.9485(6)
C1 C 0.2649(9) 0.5032(6) 0.9215(4)
H1 H 0.2512 0.4277 0.9181
C2 C 0.2675(9) 0.5638(6) 0.8594(4)
H2 H 0.2530 0.5288 0.8156
C3 C 0.2907(7) 0.6738(5) 0.8613(3)
C4 C 0.3054(9) 0.7205(5) 0.9288(3)
H3 H 0.3193 0.7959 0.9334
C5 C 0.2995(8) 0.6560(5) 0.9882(4)
H4 H 0.3088 0.6890 1.0329
C6 C 0.2898(7) 0.7419(4) 0.7940(3)
C7 C 0.3163(8) 0.6924(5) 0.7272(3)
H5 H 0.3386 0.6176 0.7238
C8 C 0.3087(9) 0.7567(5) 0.6668(3)
H6 H 0.3299 0.7236 0.6228
C9 C 0.2544(7) 0.9116(5) 0.7311(4)
H7 H 0.2378 0.9870 0.7329
C10 C 0.2590(7) 0.8552(5) 0.7953(4)
H8 H 0.2420 0.8917 0.8384
C11 C 0.6318(10) 0.5800(5) 1.1222(4)
C12 C 0.9337(10) 0.5895(5) 1.1173(4)
C13 C 0.4043(9) 0.2421(6) 1.0152(4)
C14 C 0.3465(12) 0.0723(7) 0.9744(5)
Cu1_2 Cu 1.26446(7) 0.45749(5) 1.07690(6)
Cu1C Cu 0.23554(7) 0.95749(5) 0.57690(6)
N2C N 0.2280(6) 0.3655(4) 1.1677(3)
N5_2 N 0.0737(7) 0.5575(4) 1.1113(3)
loop_
_geom_bond_atom_site_label_1
_geom_bond_atom_site_label_2
_geom_bond_site_symmetry_1
_geom_bond_site_symmetry_2
Cu1 N1 1_555 1_555
N1 C1 1_555 1_555
N2 C8 1_555 1_555
N3 Cu1 1_555 1_555
N4 C11 1_555 1_555
N5 C12 1_555 1_555
N6 Cu1 1_555 1_555
N7 C13 1_555 1_555
N8 C14 1_555 1_555
C1 H1 1_555 1_555
C2 C1 1_555 1_555
H2 C2 1_555 1_555
C3 C2 1_555 1_555
C4 C3 1_555 1_555
H3 C4 1_555 1_555
C5 N1 1_555 1_555
H4 C5 1_555 1_555
C6 C3 1_555 1_555
C7 C6 1_555 1_555
H5 C7 1_555 1_555
C8 C7 1_555 1_555
H6 C8 1_555 1_555
C9 N2 1_555 1_555
H7 C9 1_555 1_555
C10 C6 1_555 1_555
H8 C10 1_555 1_555
C11 N3 1_555 1_555
C12 N4 1_555 1_555
C13 N6 1_555 1_555
C14 N7 1_555 1_555
Cu1_2 N5 1_555 1_555
Cu1C N2 1_555 1_555
N2C Cu1 1_555 1_555
N5_2 Cu1 1_555 1_555
C4 C5 1_555 1_555
C9 C10 1_555 1_555

#END
