
#######################################################################
#
#                 Cambridge Crystallographic Data Centre
#                                CCDC 
#
#######################################################################
#
# If this CIF has been generated from an entry in the Cambridge 
# Structural Database, then it will include bibliographic, chemical, 
# crystal, experimental, refinement or atomic coordinate data resulting 
# from the CCDC's data processing and validation procedures.
#
#######################################################################

data_URIWEY
_symmetry_cell_setting           monoclinic
_symmetry_space_group_name_H-M   'P 21/n'
_symmetry_Int_Tables_number      14
_space_group_name_Hall           '-P 2yn'
loop_
_symmetry_equiv_pos_site_id
_symmetry_equiv_pos_as_xyz
1 x,y,z
2 1/2-x,1/2+y,1/2-z
3 -x,-y,-z
4 1/2+x,1/2-y,1/2+z
_cell_length_a                   10.418(4)
_cell_length_b                   8.526(3)
_cell_length_c                   14.319(5)
_cell_angle_alpha                90
_cell_angle_beta                 105.700(5)
_cell_angle_gamma                90
_cell_volume                     1224.42
loop_
_atom_site_label
_atom_site_type_symbol
_atom_site_fract_x
_atom_site_fract_y
_atom_site_fract_z
Ag1 Ag 0.254940(16) 0.004630(17) -0.105150(14)
C1 C 0.50398(18) 0.2211(3) -0.01802(15)
H1 H 0.5136 0.1915 -0.0783
C2 C 0.17566(19) 0.3594(2) -0.08729(14)
C3 C -0.04346(19) 0.3744(2) -0.11840(14)
C4 C -0.00245(19) 0.2171(2) -0.10959(15)
C5 C -0.0963(2) 0.0958(3) -0.12108(18)
H2 H -0.0703 -0.0089 -0.1146
C6 C -0.2295(2) 0.1386(3) -0.14247(18)
H3 H -0.2941 0.0609 -0.1500
C7 C -0.2691(2) 0.2970(3) -0.15313(17)
H4 H -0.3595 0.3208 -0.1691
C8 C -0.1780(2) 0.4177(3) -0.14062(16)
H5 H -0.2044 0.5223 -0.1466
C9 C 0.5257(2) 0.2438(3) 0.13202(16)
H6 H 0.5581 0.2292 0.1986
C10 C 0.0788(2) 0.6333(2) -0.11349(15)
H7 H -0.0049 0.6790 -0.1099
H8 H 0.1488 0.6758 -0.0604
C11 C 0.10552(19) 0.6819(2) -0.21002(15)
C12 C 0.31659(19) 0.4129(2) -0.07633(16)
H9 H 0.3367 0.4035 -0.1384
H10 H 0.3242 0.5227 -0.0580
N1 N 0.57802(17) 0.1682(2) 0.06667(13)
N2 N 0.13671(16) 0.21095(19) -0.09033(13)
N3 N 0.07282(17) 0.4628(2) -0.10122(12)
N4 N 0.41385(16) 0.32287(19) -0.00403(12)
N5 N 0.42595(19) 0.3391(2) 0.09337(13)
O1 O 0.1190(2) 0.5762(2) -0.26587(13)
O2 O 0.10848(16) 0.82747(18) -0.22378(11)
Ag1B Ag 0.745060(16) -0.004630(17) 0.105150(14)
Ag1A Ag 0.245060(16) 0.504630(17) -0.394850(14)
Ag1_2 Ag 0.254940(16) 1.004630(17) -0.105150(14)
N1B N 0.42198(17) -0.1682(2) -0.06667(13)
O1A O 0.3810(2) 0.0762(2) -0.23413(13)
O2_2 O 0.10848(16) -0.17253(18) -0.22378(11)
loop_
_geom_bond_atom_site_label_1
_geom_bond_atom_site_label_2
_geom_bond_site_symmetry_1
_geom_bond_site_symmetry_2
Ag1 N2 1_555 1_555
C1 H1 1_555 1_555
C2 C12 1_555 1_555
C3 C4 1_555 1_555
C4 C5 1_555 1_555
C5 H2 1_555 1_555
C6 C5 1_555 1_555
H3 C6 1_555 1_555
C7 C6 1_555 1_555
H4 C7 1_555 1_555
C8 C3 1_555 1_555
H5 C8 1_555 1_555
C9 H6 1_555 1_555
C10 H7 1_555 1_555
H8 C10 1_555 1_555
C11 C10 1_555 1_555
C12 H9 1_555 1_555
H10 C12 1_555 1_555
N1 C1 1_555 1_555
N2 C2 1_555 1_555
N3 C2 1_555 1_555
N4 C1 1_555 1_555
N5 C9 1_555 1_555
O1 C11 1_555 1_555
O2 C11 1_555 1_555
Ag1B N1 1_555 1_555
Ag1A O1 1_555 1_555
Ag1_2 O2 1_555 1_555
N1B Ag1 1_555 1_555
O1A Ag1 1_555 1_555
O2_2 Ag1 1_555 1_555
C3 N3 1_555 1_555
C4 N2 1_555 1_555
C7 C8 1_555 1_555
C9 N1 1_555 1_555
C10 N3 1_555 1_555
C12 N4 1_555 1_555
N4 N5 1_555 1_555

#END
