
#######################################################################
#
#                 Cambridge Crystallographic Data Centre
#                                CCDC 
#
#######################################################################
#
# If this CIF has been generated from an entry in the Cambridge 
# Structural Database, then it will include bibliographic, chemical, 
# crystal, experimental, refinement or atomic coordinate data resulting 
# from the CCDC's data processing and validation procedures.
#
#######################################################################

data_URIZOL
_symmetry_cell_setting           monoclinic
_symmetry_space_group_name_H-M   'P 21/n'
_symmetry_Int_Tables_number      14
_space_group_name_Hall           '-P 2yn'
loop_
_symmetry_equiv_pos_site_id
_symmetry_equiv_pos_as_xyz
1 x,y,z
2 1/2-x,1/2+y,1/2-z
3 -x,-y,-z
4 1/2+x,1/2-y,1/2+z
_cell_length_a                   8.2150(4)
_cell_length_b                   8.5279(4)
_cell_length_c                   42.049(2)
_cell_angle_alpha                90
_cell_angle_beta                 92.8130(10)
_cell_angle_gamma                90
_cell_volume                     2942.26
loop_
_atom_site_label
_atom_site_type_symbol
_atom_site_fract_x
_atom_site_fract_y
_atom_site_fract_z
Br1 Br 0.44733(9) 0.14687(10) 0.032628(19)
Cu1 Cu 0.70962(11) 0.02156(11) 0.00683(2)
N1 N 0.7346(7) -0.1694(7) 0.03372(14)
C1 C 0.8239(9) -0.2845(10) 0.02209(19)
H1 H 0.8745 -0.2681 0.0031
Br2 Br 0.90508(9) 0.16053(10) 0.042925(18)
N2 N 0.5968(8) -0.3438(8) 0.10650(15)
H2 H 0.5228 -0.2746 0.1094
C2 C 0.8436(9) -0.4255(9) 0.03712(18)
H3 H 0.9078 -0.5028 0.0284
N3 N 0.5241(8) -0.4401(8) 0.15443(15)
H4 H 0.4346 -0.3886 0.1515
C3 C 0.7682(9) -0.4534(10) 0.06526(18)
H5 H 0.7779 -0.5504 0.0753
N4 N 0.9991(8) -0.1012(8) 0.15328(15)
H6 H 0.9319 -0.0383 0.1435
C4 C 0.6778(9) -0.3343(10) 0.07829(18)
N5 N 1.0798(8) -0.1565(9) 0.10366(15)
H7 H 1.0149 -0.0810 0.0982
C5 C 0.6644(9) -0.1929(10) 0.06137(18)
H8 H 0.6040 -0.1118 0.0697
O1 O 0.7316(6) -0.5550(6) 0.12891(12)
N6 N 1.2657(7) -0.1812(7) 0.02744(15)
C6 C 0.6231(9) -0.4520(9) 0.12998(19)
C7 C 0.5613(9) -0.5110(10) 0.18600(19)
C8 C 0.5468(11) -0.6895(10) 0.1842(2)
H9 H 0.4449 -0.7173 0.1735
H10 H 0.5516 -0.7323 0.2053
H11 H 0.6349 -0.7309 0.1726
O2 O 1.1771(6) -0.3038(7) 0.14598(12)
C9 C 0.4322(10) -0.4477(12) 0.2076(2)
H12 H 0.4375 -0.3352 0.2081
H13 H 0.4519 -0.4881 0.2288
H14 H 0.3260 -0.4800 0.1996
C10 C 0.7300(10) -0.4531(10) 0.19934(19)
C11 C 0.8115(10) -0.5351(11) 0.22386(19)
H15 H 0.7684 -0.6281 0.2314
C12 C 0.9581(10) -0.4771(11) 0.23716(19)
H16 H 1.0127 -0.5318 0.2536
C13 C 1.0235(10) -0.3385(11) 0.22610(19)
H17 H 1.1209 -0.3006 0.2353
C14 C 0.9448(9) -0.2557(10) 0.20137(18)
C15 C 0.7969(10) -0.3149(10) 0.18884(18)
H18 H 0.7410 -0.2591 0.1727
C16 C 1.0064(10) -0.0996(10) 0.18863(18)
C17 C 0.8901(10) 0.0323(11) 0.1976(2)
H19 H 0.9291 0.1305 0.1898
H20 H 0.8853 0.0372 0.2203
H21 H 0.7832 0.0117 0.1883
C18 C 1.1795(10) -0.0561(10) 0.20051(19)
H22 H 1.2547 -0.1332 0.1934
H23 H 1.1852 -0.0526 0.2234
H24 H 1.2073 0.0449 0.1923
C19 C 1.0909(9) -0.1948(9) 0.13562(19)
C20 C 1.1631(9) -0.2277(10) 0.07926(18)
C21 C 1.2072(10) -0.3842(10) 0.07742(19)
H25 H 1.1872 -0.4531 0.0939
C22 C 1.2813(10) -0.4357(11) 0.05063(19)
H26 H 1.3143 -0.5397 0.0492
C23 C 1.3070(9) -0.3323(10) 0.02574(19)
H27 H 1.3541 -0.3693 0.0075
C24 C 1.1985(9) -0.1322(10) 0.05381(18)
H28 H 1.1734 -0.0262 0.0553
Br1B Br 0.55267(9) -0.14687(10) -0.032628(19)
Cu1B Cu 0.29038(11) -0.02156(11) -0.00683(2)
Cu1B_2 Cu 1.29038(11) -0.02156(11) -0.00683(2)
N6B N 0.7343(7) 0.1812(7) -0.02744(15)
O3 O 1.231(2) 0.153(2) 0.1301(5)
H29 H 1.1316 0.1607 0.1296
C25 C 1.291(4) 0.236(3) 0.1048(7)
H36 H 1.3440 0.3295 0.1126
H37 H 1.2018 0.2640 0.0901
H38 H 1.3669 0.1721 0.0940
H30 H 1.1043 -0.5123 0.1566
H31 H 0.9858 -0.5770 0.1377
O5 O 1.0647(8) -0.6150(8) 0.15075(19)
H32 H 0.7614 -0.7741 0.1172
H33 H 0.8021 -0.8674 0.0957
O6 O 0.7667(7) -0.8769(7) 0.11647(13)
H34 H 0.5828 0.0017 0.1267
H35 H 0.4021 0.0156 0.1306
O4 O 0.4852(8) -0.0559(8) 0.13129(18)
O7? O 1.224(2) 0.1685(18) 0.1107(4)
loop_
_geom_bond_atom_site_label_1
_geom_bond_atom_site_label_2
_geom_bond_site_symmetry_1
_geom_bond_site_symmetry_2
Br1 Cu1 1_555 1_555
Cu1 N1 1_555 1_555
N1 C1 1_555 1_555
C1 H1 1_555 1_555
Br2 Cu1 1_555 1_555
N2 H2 1_555 1_555
C2 C1 1_555 1_555
H3 C2 1_555 1_555
N3 H4 1_555 1_555
C3 C2 1_555 1_555
H5 C3 1_555 1_555
N4 H6 1_555 1_555
C4 N2 1_555 1_555
N5 H7 1_555 1_555
C5 N1 1_555 1_555
H8 C5 1_555 1_555
O1 C6 1_555 1_555
N6 C23 1_555 1_555
C6 N2 1_555 1_555
C7 N3 1_555 1_555
C8 C7 1_555 1_555
H9 C8 1_555 1_555
H10 C8 1_555 1_555
H11 C8 1_555 1_555
O2 C19 1_555 1_555
C9 C7 1_555 1_555
H12 C9 1_555 1_555
H13 C9 1_555 1_555
H14 C9 1_555 1_555
C10 C7 1_555 1_555
C11 C10 1_555 1_555
H15 C11 1_555 1_555
C12 C11 1_555 1_555
H16 C12 1_555 1_555
C13 C12 1_555 1_555
H17 C13 1_555 1_555
C14 C13 1_555 1_555
C15 C10 1_555 1_555
H18 C15 1_555 1_555
C16 N4 1_555 1_555
C17 C16 1_555 1_555
H19 C17 1_555 1_555
H20 C17 1_555 1_555
H21 C17 1_555 1_555
C18 C16 1_555 1_555
H22 C18 1_555 1_555
H23 C18 1_555 1_555
H24 C18 1_555 1_555
C19 N4 1_555 1_555
C20 N5 1_555 1_555
C21 C20 1_555 1_555
H25 C21 1_555 1_555
C22 C21 1_555 1_555
H26 C22 1_555 1_555
C23 C22 1_555 1_555
H27 C23 1_555 1_555
C24 N6 1_555 1_555
H28 C24 1_555 1_555
O3 H29 1_555 1_555
H30 O5 1_555 1_555
H31 O5 1_555 1_555
H32 O6 1_555 1_555
H33 O6 1_555 1_555
H34 O4 1_555 1_555
H35 O4 1_555 1_555
C25 O3 1_555 1_555
H36 C25 1_555 1_555
H37 C25 1_555 1_555
H38 C25 1_555 1_555
Br1B Cu1 1_555 1_555
Cu1B Br1 1_555 1_555
Cu1B_2 N6 1_555 1_555
N6B Cu1 1_555 1_555
N3 C6 1_555 1_555
C3 C4 1_555 1_555
C4 C5 1_555 1_555
N5 C19 1_555 1_555
C14 C15 1_555 1_555
C14 C16 1_555 1_555
C20 C24 1_555 1_555
Br1B Cu1B 1_555 1_555

#END
