
#######################################################################
#
#                 Cambridge Crystallographic Data Centre
#                                CCDC 
#
#######################################################################
#
# If this CIF has been generated from an entry in the Cambridge 
# Structural Database, then it will include bibliographic, chemical, 
# crystal, experimental, refinement or atomic coordinate data resulting 
# from the CCDC's data processing and validation procedures.
#
#######################################################################

data_UROZAD
_symmetry_cell_setting           triclinic
_symmetry_space_group_name_H-M   'P -1'
_symmetry_Int_Tables_number      2
_space_group_name_Hall           '-P 1'
loop_
_symmetry_equiv_pos_site_id
_symmetry_equiv_pos_as_xyz
1 x,y,z
2 -x,-y,-z
_cell_length_a                   9.7891(15)
_cell_length_b                   11.664(2)
_cell_length_c                   12.503(2)
_cell_angle_alpha                65.839(10)
_cell_angle_beta                 77.987(10)
_cell_angle_gamma                80.634(10)
_cell_volume                     1269.19
loop_
_atom_site_label
_atom_site_type_symbol
_atom_site_fract_x
_atom_site_fract_y
_atom_site_fract_z
Sb1 Sb 0.72125(4) 0.82917(3) 0.32369(3)
F1 F 0.9151(3) 0.7826(3) 0.2845(3)
F2 F 0.7731(3) 1.0046(3) 0.2597(3)
F3 F 0.7640(4) 0.8129(3) 0.4753(3)
P1 P 0.85445(13) 0.86803(12) 0.01053(11)
P2 P 0.77170(13) 0.49001(12) 0.51589(11)
O1 O 0.7414(4) 0.8682(3) 0.1128(3)
O2 O 0.7256(4) 0.6048(3) 0.4142(3)
C1 C 0.9593(5) 0.9999(5) -0.0461(5)
H1 H 1.0265 0.9974 -0.1164
H2 H 0.8976 1.0792 -0.0721
C2 C 0.7736(5) 0.8751(4) -0.1098(4)
C3 C 0.6291(6) 0.9047(5) -0.1039(5)
H3 H 0.5768 0.9270 -0.0411
C4 C 0.5609(7) 0.9015(6) -0.1907(5)
H4 H 0.4620 0.9184 -0.1852
C5 C 0.6375(7) 0.8741(6) -0.2832(5)
H5 H 0.5916 0.8745 -0.3433
C6 C 0.7809(7) 0.8456(5) -0.2904(5)
H6 H 0.8325 0.8248 -0.3543
C7 C 0.8502(6) 0.8472(5) -0.2048(5)
H7 H 0.9491 0.8294 -0.2108
C8 C 0.9713(5) 0.7263(5) 0.0454(4)
C9 C 1.1059(6) 0.7254(5) -0.0197(5)
H8 H 1.1391 0.8011 -0.0803
C10 C 1.1906(6) 0.6126(6) 0.0052(5)
H9 H 1.2831 0.6115 -0.0371
C11 C 1.1404(6) 0.5017(5) 0.0914(5)
H10 H 1.1980 0.4246 0.1071
C12 C 1.0075(6) 0.5033(5) 0.1543(5)
H11 H 0.9737 0.4271 0.2135
C13 C 0.9230(6) 0.6143(5) 0.1322(4)
H12 H 0.8314 0.6146 0.1764
C14 C 0.9396(5) 0.4978(5) 0.5501(4)
H13 H 0.9355 0.5738 0.5676
H14 H 0.9580 0.4231 0.6224
C15 C 0.7855(5) 0.3510(5) 0.4846(4)
C16 C 0.7125(6) 0.3539(5) 0.3991(5)
H15 H 0.6569 0.4280 0.3586
C17 C 0.7218(7) 0.2474(6) 0.3735(5)
H16 H 0.6716 0.2486 0.3156
C18 C 0.8033(6) 0.1398(6) 0.4315(5)
H17 H 0.8085 0.0671 0.4141
C19 C 0.8776(6) 0.1383(5) 0.5152(5)
H18 H 0.9353 0.0651 0.5541
C20 C 0.8677(6) 0.2432(5) 0.5419(5)
H19 H 0.9177 0.2415 0.6001
C21 C 0.6525(5) 0.4654(5) 0.6530(5)
C22 C 0.5851(6) 0.3553(5) 0.7143(5)
H20 H 0.6000 0.2916 0.6832
C23 C 0.4963(6) 0.3382(5) 0.8205(5)
H21 H 0.4494 0.2633 0.8618
C24 C 0.4759(6) 0.4305(6) 0.8665(5)
H22 H 0.4165 0.4181 0.9401
C25 C 0.5419(6) 0.5408(5) 0.8054(5)
H23 H 0.5267 0.6045 0.8365
C26 C 0.6303(6) 0.5583(5) 0.6985(5)
H24 H 0.6755 0.6340 0.6565
Sb1A Sb 1.27875(4) 1.17083(3) -0.32369(3)
Sb1A_2 Sb 1.27875(4) 0.17083(3) 0.67631(3)
F1A F 1.0849(3) 0.2174(3) 0.7155(3)
F2A F 1.2269(3) -0.0046(3) 0.7403(3)
F3A F 1.2360(4) 0.1871(3) 0.5247(3)
P1A P 1.14555(13) 1.13197(12) -0.01053(11)
P2A P 1.22830(13) 0.50999(12) 0.48411(11)
O1A O 1.2586(4) 1.1318(3) -0.1128(3)
O1A_2 O 1.2586(4) 0.1318(3) 0.8872(3)
O2A O 1.2744(4) 0.3952(3) 0.5858(3)
C1A C 1.0407(5) 1.0001(5) 0.0461(5)
H1A H 0.9735 1.0026 0.1164
H2A H 1.1024 0.9208 0.0721
C2A C 1.2264(5) 1.1249(4) 0.1098(4)
C3A C 1.3709(6) 1.0953(5) 0.1039(5)
H3A H 1.4232 1.0730 0.0411
C4A C 1.4391(7) 1.0985(6) 0.1907(5)
H4A H 1.5380 1.0816 0.1852
C5A C 1.3625(7) 1.1259(6) 0.2832(5)
H5A H 1.4084 1.1255 0.3433
C6A C 1.2191(7) 1.1544(5) 0.2904(5)
H6A H 1.1675 1.1752 0.3543
C7A C 1.1498(6) 1.1528(5) 0.2048(5)
H7A H 1.0509 1.1706 0.2108
C8A C 1.0287(5) 1.2737(5) -0.0454(4)
C9A C 0.8941(6) 1.2746(5) 0.0197(5)
H8A H 0.8609 1.1989 0.0803
C10A C 0.8094(6) 1.3874(6) -0.0052(5)
H9A H 0.7169 1.3885 0.0371
C11A C 0.8596(6) 1.4983(5) -0.0914(5)
H10A H 0.8020 1.5754 -0.1071
C12A C 0.9925(6) 1.4967(5) -0.1543(5)
H11A H 1.0263 1.5729 -0.2135
C13A C 1.0770(6) 1.3857(5) -0.1322(4)
H12A H 1.1686 1.3854 -0.1764
C14A C 1.0604(5) 0.5022(5) 0.4499(4)
H13A H 1.0645 0.4262 0.4324
H14A H 1.0420 0.5769 0.3776
C15A C 1.2145(5) 0.6490(5) 0.5154(4)
C16A C 1.2875(6) 0.6461(5) 0.6009(5)
H15A H 1.3431 0.5720 0.6414
C17A C 1.2782(7) 0.7526(6) 0.6265(5)
H16A H 1.3284 0.7514 0.6844
C18A C 1.1967(6) 0.8602(6) 0.5685(5)
H17A H 1.1915 0.9329 0.5859
C19A C 1.1224(6) 0.8617(5) 0.4848(5)
H18A H 1.0647 0.9349 0.4459
C20A C 1.1323(6) 0.7568(5) 0.4581(5)
H19A H 1.0823 0.7585 0.3999
C21A C 1.3475(5) 0.5346(5) 0.3470(5)
C22A C 1.4149(6) 0.6447(5) 0.2857(5)
H20A H 1.4000 0.7084 0.3168
C23A C 1.5037(6) 0.6618(5) 0.1795(5)
H21A H 1.5506 0.7367 0.1382
C24A C 1.5241(6) 0.5695(6) 0.1335(5)
H22A H 1.5835 0.5819 0.0599
C25A C 1.4581(6) 0.4592(5) 0.1946(5)
H23A H 1.4733 0.3955 0.1635
C26A C 1.3697(6) 0.4417(5) 0.3015(5)
H24A H 1.3245 0.3660 0.3435
loop_
_geom_bond_atom_site_label_1
_geom_bond_atom_site_label_2
_geom_bond_site_symmetry_1
_geom_bond_site_symmetry_2
Sb1 F1 1_555 1_555
F2 Sb1 1_555 1_555
F3 Sb1 1_555 1_555
P1 O1 1_555 1_555
P2 O2 1_555 1_555
O1 Sb1 1_555 1_555
O2 Sb1 1_555 1_555
C1 P1 1_555 1_555
H1 C1 1_555 1_555
H2 C1 1_555 1_555
C2 P1 1_555 1_555
C3 C2 1_555 1_555
H3 C3 1_555 1_555
C4 C3 1_555 1_555
H4 C4 1_555 1_555
C5 C4 1_555 1_555
H5 C5 1_555 1_555
C6 C5 1_555 1_555
H6 C6 1_555 1_555
C7 C2 1_555 1_555
H7 C7 1_555 1_555
C8 P1 1_555 1_555
C9 C8 1_555 1_555
H8 C9 1_555 1_555
C10 C9 1_555 1_555
H9 C10 1_555 1_555
C11 C10 1_555 1_555
H10 C11 1_555 1_555
C12 C11 1_555 1_555
H11 C12 1_555 1_555
C13 C8 1_555 1_555
H12 C13 1_555 1_555
C14 P2 1_555 1_555
H13 C14 1_555 1_555
H14 C14 1_555 1_555
C15 P2 1_555 1_555
C16 C15 1_555 1_555
H15 C16 1_555 1_555
C17 C16 1_555 1_555
H16 C17 1_555 1_555
C18 C17 1_555 1_555
H17 C18 1_555 1_555
C19 C18 1_555 1_555
H18 C19 1_555 1_555
C20 C15 1_555 1_555
H19 C20 1_555 1_555
C21 P2 1_555 1_555
C22 C21 1_555 1_555
H20 C22 1_555 1_555
C23 C22 1_555 1_555
H21 C23 1_555 1_555
C24 C23 1_555 1_555
H22 C24 1_555 1_555
C25 C24 1_555 1_555
H23 C25 1_555 1_555
C26 C21 1_555 1_555
H24 C26 1_555 1_555
Sb1A O1A 1_555 1_555
Sb1A_2 F1A 1_555 1_555
F2A Sb1A_2 1_555 1_555
F3A Sb1A_2 1_555 1_555
P1A O1A 1_555 1_555
P2A O2A 1_555 1_555
O1A_2 Sb1A_2 1_555 1_555
O2A Sb1A_2 1_555 1_555
C1A C1 1_555 1_555
H1A C1A 1_555 1_555
H2A C1A 1_555 1_555
C2A P1A 1_555 1_555
C3A C2A 1_555 1_555
H3A C3A 1_555 1_555
C4A C3A 1_555 1_555
H4A C4A 1_555 1_555
C5A C4A 1_555 1_555
H5A C5A 1_555 1_555
C6A C5A 1_555 1_555
H6A C6A 1_555 1_555
C7A C2A 1_555 1_555
H7A C7A 1_555 1_555
C8A P1A 1_555 1_555
C9A C8A 1_555 1_555
H8A C9A 1_555 1_555
C10A C9A 1_555 1_555
H9A C10A 1_555 1_555
C11A C10A 1_555 1_555
H10A C11A 1_555 1_555
C12A C11A 1_555 1_555
H11A C12A 1_555 1_555
C13A C8A 1_555 1_555
H12A C13A 1_555 1_555
C14A C14 1_555 1_555
H13A C14A 1_555 1_555
H14A C14A 1_555 1_555
C15A P2A 1_555 1_555
C16A C15A 1_555 1_555
H15A C16A 1_555 1_555
C17A C16A 1_555 1_555
H16A C17A 1_555 1_555
C18A C17A 1_555 1_555
H17A C18A 1_555 1_555
C19A C18A 1_555 1_555
H18A C19A 1_555 1_555
C20A C15A 1_555 1_555
H19A C20A 1_555 1_555
C21A P2A 1_555 1_555
C22A C21A 1_555 1_555
H20A C22A 1_555 1_555
C23A C22A 1_555 1_555
H21A C23A 1_555 1_555
C24A C23A 1_555 1_555
H22A C24A 1_555 1_555
C25A C24A 1_555 1_555
H23A C25A 1_555 1_555
C26A C21A 1_555 1_555
H24A C26A 1_555 1_555
C6 C7 1_555 1_555
C12 C13 1_555 1_555
C19 C20 1_555 1_555
C25 C26 1_555 1_555
P1A C1A 1_555 1_555
P2A C14A 1_555 1_555
C6A C7A 1_555 1_555
C12A C13A 1_555 1_555
C19A C20A 1_555 1_555
C25A C26A 1_555 1_555

#END
