
#######################################################################
#
#                 Cambridge Crystallographic Data Centre
#                                CCDC 
#
#######################################################################
#
# If this CIF has been generated from an entry in the Cambridge 
# Structural Database, then it will include bibliographic, chemical, 
# crystal, experimental, refinement or atomic coordinate data resulting 
# from the CCDC's data processing and validation procedures.
#
#######################################################################

data_URUJOH
_symmetry_cell_setting           triclinic
_symmetry_space_group_name_H-M   'P -1'
_symmetry_Int_Tables_number      2
_space_group_name_Hall           '-P 1'
loop_
_symmetry_equiv_pos_site_id
_symmetry_equiv_pos_as_xyz
1 x,y,z
2 -x,-y,-z
_cell_length_a                   9.0115(10)
_cell_length_b                   9.7389(11)
_cell_length_c                   12.4987(14)
_cell_angle_alpha                87.499(2)
_cell_angle_beta                 87.862(2)
_cell_angle_gamma                74.337(2)
_cell_volume                     1054.8
loop_
_atom_site_label
_atom_site_type_symbol
_atom_site_fract_x
_atom_site_fract_y
_atom_site_fract_z
Sn1 Sn 0.64870(4) 0.67844(4) 0.76373(3)
S1 S 1.0147(2) 0.5780(2) 0.85739(14)
Cl1 Cl 0.84426(18) 0.3196(2) 0.45824(14)
Cl2 Cl 0.15478(17) 1.05897(18) 0.92858(13)
O1 O 0.7195(4) 0.5197(4) 0.6316(3)
O2 O 0.5655(4) 0.3343(4) 0.3288(3)
O3 O 0.4344(4) 0.8412(4) 0.8476(3)
O4 O 0.2801(4) 1.2068(4) 1.0914(3)
O5 O 0.9078(5) 0.5994(5) 0.7662(3)
C1 C 0.6216(6) 0.5045(6) 0.5673(4)
C2 C 0.5426(6) 0.4073(6) 0.4104(4)
C3 C 0.6558(6) 0.4175(6) 0.4798(5)
C4 C 0.4568(6) 0.9192(6) 0.9176(4)
C5 C 0.3773(6) 1.1083(5) 1.0447(4)
C6 C 0.3438(6) 1.0272(6) 0.9666(4)
C7 C 0.6103(8) 0.5233(6) 0.8782(5)
H1 H 0.6838 0.5144 0.9346
H2 H 0.5084 0.5608 0.9103
C8 C 0.6208(9) 0.3742(8) 0.8419(6)
H3 H 0.5717 0.3257 0.8962
H4 H 0.5637 0.3819 0.7766
C9 C 0.7810(9) 0.2856(8) 0.8218(7)
H5 H 0.8354 0.2686 0.8887
H6 H 0.8340 0.3377 0.7729
C10 C 0.7854(12) 0.1455(8) 0.7754(7)
H7 H 0.7626 0.0823 0.8308
H8 H 0.8861 0.1042 0.7449
H9 H 0.7102 0.1601 0.7206
C11 C 0.6733(8) 0.8500(6) 0.6614(5)
H10 H 0.5761 0.9234 0.6634
H11 H 0.7497 0.8895 0.6918
C12 C 0.7180(9) 0.8229(7) 0.5471(6)
H12 H 0.6367 0.7942 0.5129
H13 H 0.8107 0.7442 0.5433
C13 C 0.7469(10) 0.9508(8) 0.4855(6)
H14 H 0.8289 0.9791 0.5191
H15 H 0.6545 1.0297 0.4895
C14 C 0.7911(13) 0.9219(11) 0.3690(7)
H16 H 0.8909 0.8548 0.3642
H17 H 0.7941 1.0094 0.3316
H18 H 0.7164 0.8832 0.3374
C15 C 1.1738(9) 0.4378(9) 0.8135(8)
H19 H 1.1459 0.3493 0.8179
H20 H 1.2601 0.4308 0.8582
H21 H 1.2014 0.4577 0.7406
C16 C 1.0999(9) 0.7197(8) 0.8468(7)
H22 H 1.1420 0.7255 0.7756
H23 H 1.1808 0.7041 0.8975
H24 H 1.0236 0.8073 0.8615
Sn1A Sn 0.35130(4) 0.32156(4) 0.23627(3)
Sn1A_2 Sn 0.35130(4) 1.32156(4) 1.23627(3)
S1A S -0.0147(2) 0.4220(2) 0.14261(14)
Cl1A Cl 0.15574(18) 0.6804(2) 0.54176(14)
Cl2A Cl 0.84522(17) 0.94103(18) 1.07142(13)
O1A O 0.2805(4) 0.4803(4) 0.3684(3)
O2A O 0.4345(4) 0.6657(4) 0.6712(3)
O3A O 0.5656(4) 1.1588(4) 1.1524(3)
O3A_2 O 0.5656(4) 0.1588(4) 0.1524(3)
O4A O 0.7199(4) 0.7932(4) 0.9086(3)
O4_2 O 0.2801(4) 0.2068(4) 0.0914(3)
O5A O 0.0922(5) 0.4006(5) 0.2338(3)
C1A C 0.3784(6) 0.4955(6) 0.4327(4)
C2A C 0.4574(6) 0.5927(6) 0.5896(4)
C3A C 0.3442(6) 0.5825(6) 0.5202(5)
C4A C 0.5432(6) 1.0808(6) 1.0824(4)
C5A C 0.6227(6) 0.8917(5) 0.9553(4)
C6A C 0.6562(6) 0.9728(6) 1.0334(4)
C7A C 0.3897(8) 0.4767(6) 0.1218(5)
H1A H 0.3162 0.4856 0.0654
H2A H 0.4916 0.4392 0.0897
C8A C 0.3792(9) 0.6258(8) 0.1581(6)
H3A H 0.4283 0.6743 0.1038
H4A H 0.4363 0.6181 0.2234
C9A C 0.2190(9) 0.7144(8) 0.1782(7)
H5A H 0.1646 0.7314 0.1113
H6A H 0.1660 0.6623 0.2271
C10A C 0.2146(12) 0.8545(8) 0.2246(7)
H7A H 0.2374 0.9177 0.1692
H8A H 0.1139 0.8958 0.2551
H9A H 0.2898 0.8399 0.2794
C11A C 0.3267(8) 0.1500(6) 0.3386(5)
H10A H 0.4239 0.0766 0.3366
H11A H 0.2503 0.1105 0.3082
C12A C 0.2820(9) 0.1771(7) 0.4529(6)
H12A H 0.3633 0.2058 0.4871
H13A H 0.1893 0.2558 0.4567
C13A C 0.2531(10) 0.0492(8) 0.5145(6)
H14A H 0.1711 0.0209 0.4809
H15A H 0.3455 -0.0297 0.5105
C14A C 0.2089(13) 0.0781(11) 0.6310(7)
H16A H 0.1091 0.1452 0.6358
H17A H 0.2059 -0.0094 0.6684
H18A H 0.2836 0.1168 0.6626
C15A C -0.1738(9) 0.5622(9) 0.1865(8)
H19A H -0.1459 0.6507 0.1821
H20A H -0.2601 0.5692 0.1418
H21A H -0.2014 0.5423 0.2594
C16A C -0.0999(9) 0.2803(8) 0.1532(7)
H22A H -0.1420 0.2745 0.2244
H23A H -0.1808 0.2959 0.1025
H24A H -0.0236 0.1927 0.1385
loop_
_geom_bond_atom_site_label_1
_geom_bond_atom_site_label_2
_geom_bond_site_symmetry_1
_geom_bond_site_symmetry_2
Sn1 O1 1_555 1_555
S1 O5 1_555 1_555
Cl1 C3 1_555 1_555
Cl2 C6 1_555 1_555
O1 C1 1_555 1_555
O2 C2 1_555 1_555
O3 Sn1 1_555 1_555
O4 C5 1_555 1_555
O5 Sn1 1_555 1_555
C1 C3 1_555 1_555
C2 C3 1_555 1_555
C4 O3 1_555 1_555
C5 C6 1_555 1_555
C6 C4 1_555 1_555
C7 Sn1 1_555 1_555
H1 C7 1_555 1_555
H2 C7 1_555 1_555
C8 C7 1_555 1_555
H3 C8 1_555 1_555
H4 C8 1_555 1_555
C9 C8 1_555 1_555
H5 C9 1_555 1_555
H6 C9 1_555 1_555
C10 C9 1_555 1_555
H7 C10 1_555 1_555
H8 C10 1_555 1_555
H9 C10 1_555 1_555
C11 Sn1 1_555 1_555
H10 C11 1_555 1_555
H11 C11 1_555 1_555
C12 C11 1_555 1_555
H12 C12 1_555 1_555
H13 C12 1_555 1_555
C13 C12 1_555 1_555
H14 C13 1_555 1_555
H15 C13 1_555 1_555
C14 C13 1_555 1_555
H16 C14 1_555 1_555
H17 C14 1_555 1_555
H18 C14 1_555 1_555
C15 S1 1_555 1_555
H19 C15 1_555 1_555
H20 C15 1_555 1_555
H21 C15 1_555 1_555
C16 S1 1_555 1_555
H22 C16 1_555 1_555
H23 C16 1_555 1_555
H24 C16 1_555 1_555
Sn1A O2 1_555 1_555
Sn1A_2 O4 1_555 1_555
S1A O5A 1_555 1_555
Cl1A C3A 1_555 1_555
Cl2A C6A 1_555 1_555
O1A Sn1A 1_555 1_555
O2A Sn1 1_555 1_555
O3A Sn1A_2 1_555 1_555
O3A_2 Sn1A 1_555 1_555
O4A Sn1 1_555 1_555
O4_2 Sn1A 1_555 1_555
O5A Sn1A 1_555 1_555
C1A C2 1_555 1_555
C2A C1 1_555 1_555
C3A C1A 1_555 1_555
C4A C5 1_555 1_555
C5A C4 1_555 1_555
C6A C4A 1_555 1_555
C7A Sn1A 1_555 1_555
H1A C7A 1_555 1_555
H2A C7A 1_555 1_555
C8A C7A 1_555 1_555
H3A C8A 1_555 1_555
H4A C8A 1_555 1_555
C9A C8A 1_555 1_555
H5A C9A 1_555 1_555
H6A C9A 1_555 1_555
C10A C9A 1_555 1_555
H7A C10A 1_555 1_555
H8A C10A 1_555 1_555
H9A C10A 1_555 1_555
C11A Sn1A 1_555 1_555
H10A C11A 1_555 1_555
H11A C11A 1_555 1_555
C12A C11A 1_555 1_555
H12A C12A 1_555 1_555
H13A C12A 1_555 1_555
C13A C12A 1_555 1_555
H14A C13A 1_555 1_555
H15A C13A 1_555 1_555
C14A C13A 1_555 1_555
H16A C14A 1_555 1_555
H17A C14A 1_555 1_555
H18A C14A 1_555 1_555
C15A S1A 1_555 1_555
H19A C15A 1_555 1_555
H20A C15A 1_555 1_555
H21A C15A 1_555 1_555
C16A S1A 1_555 1_555
H22A C16A 1_555 1_555
H23A C16A 1_555 1_555
H24A C16A 1_555 1_555
O1A C1A 1_555 1_555
O2A C2A 1_555 1_555
O3A C4A 1_555 1_555
O4A C5A 1_555 1_555
C2A C3A 1_555 1_555
C5A C6A 1_555 1_555

#END
