
#######################################################################
#
#                 Cambridge Crystallographic Data Centre
#                                CCDC 
#
#######################################################################
#
# If this CIF has been generated from an entry in the Cambridge 
# Structural Database, then it will include bibliographic, chemical, 
# crystal, experimental, refinement or atomic coordinate data resulting 
# from the CCDC's data processing and validation procedures.
#
#######################################################################

data_URUJUN
_symmetry_cell_setting           orthorhombic
_symmetry_space_group_name_H-M   'P 21 21 21'
_symmetry_Int_Tables_number      19
_space_group_name_Hall           'P 2ac 2ab'
loop_
_symmetry_equiv_pos_site_id
_symmetry_equiv_pos_as_xyz
1 x,y,z
2 1/2-x,-y,1/2+z
3 -x,1/2+y,1/2-z
4 1/2+x,1/2-y,-z
_cell_length_a                   8.8942(17)
_cell_length_b                   15.982(3)
_cell_length_c                   17.698(3)
_cell_angle_alpha                90
_cell_angle_beta                 90
_cell_angle_gamma                90
_cell_volume                     2515.72
loop_
_atom_site_label
_atom_site_type_symbol
_atom_site_fract_x
_atom_site_fract_y
_atom_site_fract_z
Sn1 Sn 0.88177(3) 0.872035(17) 0.712454(15)
Cl1 Cl 1.34785(13) 1.07512(7) 0.78438(8)
Cl2 Cl 0.70340(13) 1.17351(7) 0.65839(7)
O1 O 0.6660(3) 0.86892(18) 0.65233(15)
O2 O 0.8443(3) 1.00478(17) 0.66573(15)
O3 O 0.9453(3) 1.28602(17) 0.72185(17)
O4 O 1.2166(3) 1.24470(18) 0.76532(18)
C1 C 0.8824(5) 1.1481(2) 0.6905(2)
C2 C 0.9769(5) 1.2096(2) 0.7170(2)
C3 C 1.1328(5) 1.1848(3) 0.7443(2)
C4 C 1.1736(5) 1.1013(3) 0.7470(2)
C5 C 0.9239(5) 1.0637(3) 0.6902(2)
C6 C 0.8006(5) 0.9183(3) 0.8192(3)
C7 C 1.0748(5) 1.0389(3) 0.7255(2)
C8 C 1.0178(6) 0.7480(3) 0.5949(3)
H1 H 0.9835 0.7069 0.6278
C9 C 0.9934(5) 0.8325(3) 0.6119(2)
C10 C 1.0497(5) 0.8907(3) 0.5625(3)
H2 H 1.0379 0.9473 0.5734
C11 C 0.7331(6) 0.9951(3) 0.8269(3)
H3 H 0.7148 1.0270 0.7839
C12 C 0.8221(7) 0.8729(4) 0.8831(3)
H4 H 0.8653 0.8200 0.8797
S1 S 0.51520(14) 0.89522(9) 0.68517(7)
O5 O 1.0961(3) 0.96173(16) 0.73273(16)
C13 C 1.1232(6) 0.8679(3) 0.4972(3)
H5 H 1.1592 0.9088 0.4645
C14 C 1.0916(6) 0.7255(3) 0.5302(3)
H6 H 1.1069 0.6691 0.5197
C15 C 1.1435(6) 0.7849(4) 0.4804(3)
H7 H 1.1916 0.7690 0.4360
C16 C 0.6914(7) 1.0264(4) 0.8966(4)
H8 H 0.6460 1.0786 0.9006
C17 C 0.3994(7) 0.8064(5) 0.6707(4)
H9 H 0.4084 0.7881 0.6193
H10 H 0.2967 0.8209 0.6811
H11 H 0.4304 0.7623 0.7040
C18 C 0.7182(8) 0.9794(5) 0.9596(3)
H12 H 0.6927 1.0001 1.0070
C19 C 0.4381(7) 0.9612(4) 0.6149(4)
H13 H 0.4963 1.0117 0.6117
H14 H 0.3362 0.9748 0.6278
H15 H 0.4401 0.9330 0.5670
C20 C 0.7810(9) 0.9035(5) 0.9533(3)
H16 H 0.7971 0.8713 0.9963
Sn1B Sn 1.11823(3) 1.372035(17) 0.787546(15)
O3B O 1.0547(3) 0.78602(17) 0.77815(17)
O4B O 0.7834(3) 0.74470(18) 0.73468(18)
S2 S 0.3238(2) 0.84776(13) 1.00214(13)
O6 O 0.3607(8) 0.9093(4) 1.0569(3)
C21 C 0.3031(15) 0.8962(5) 0.9169(4)
H17 H 0.2406 0.9448 0.9228
H18 H 0.2570 0.8584 0.8817
H19 H 0.3999 0.9128 0.8982
C22 C 0.1413(10) 0.8177(6) 1.0194(7)
H20 H 0.1309 0.8024 1.0716
H21 H 0.1165 0.7706 0.9882
H22 H 0.0747 0.8633 1.0082
loop_
_geom_bond_atom_site_label_1
_geom_bond_atom_site_label_2
_geom_bond_site_symmetry_1
_geom_bond_site_symmetry_2
Sn1 O1 1_555 1_555
Cl1 C4 1_555 1_555
Cl2 C1 1_555 1_555
O1 S1 1_555 1_555
O2 Sn1 1_555 1_555
O3 C2 1_555 1_555
O4 C3 1_555 1_555
C1 C2 1_555 1_555
C2 C3 1_555 1_555
C3 C4 1_555 1_555
C4 C7 1_555 1_555
C5 O2 1_555 1_555
C6 Sn1 1_555 1_555
C7 C5 1_555 1_555
C8 H1 1_555 1_555
C9 Sn1 1_555 1_555
C10 C9 1_555 1_555
H2 C10 1_555 1_555
C11 C6 1_555 1_555
H3 C11 1_555 1_555
C12 C6 1_555 1_555
H4 C12 1_555 1_555
S1 C17 1_555 1_555
O5 Sn1 1_555 1_555
C13 C10 1_555 1_555
H5 C13 1_555 1_555
C14 C8 1_555 1_555
H6 C14 1_555 1_555
C15 C13 1_555 1_555
H7 C15 1_555 1_555
C16 C11 1_555 1_555
H8 C16 1_555 1_555
C17 H9 1_555 1_555
H10 C17 1_555 1_555
H11 C17 1_555 1_555
C18 C16 1_555 1_555
H12 C18 1_555 1_555
C19 S1 1_555 1_555
H13 C19 1_555 1_555
H14 C19 1_555 1_555
H15 C19 1_555 1_555
C20 C12 1_555 1_555
H16 C20 1_555 1_555
S2 O6 1_555 1_555
C21 S2 1_555 1_555
H17 C21 1_555 1_555
H18 C21 1_555 1_555
H19 C21 1_555 1_555
C22 S2 1_555 1_555
H20 C22 1_555 1_555
H21 C22 1_555 1_555
H22 C22 1_555 1_555
Sn1B O3 1_555 1_555
O3B Sn1 1_555 1_555
O4B Sn1 1_555 1_555
O4 Sn1B 1_555 1_555
C1 C5 1_555 1_555
C7 O5 1_555 1_555
C8 C9 1_555 1_555
C14 C15 1_555 1_555
C18 C20 1_555 1_555

#END
