
#######################################################################
#
#                 Cambridge Crystallographic Data Centre
#                                CCDC 
#
#######################################################################
#
# If this CIF has been generated from an entry in the Cambridge 
# Structural Database, then it will include bibliographic, chemical, 
# crystal, experimental, refinement or atomic coordinate data resulting 
# from the CCDC's data processing and validation procedures.
#
#######################################################################

data_USATEO
_symmetry_cell_setting           tetragonal
_symmetry_space_group_name_H-M   'P 43'
_symmetry_Int_Tables_number      78
_space_group_name_Hall           'P 4cw'
loop_
_symmetry_equiv_pos_site_id
_symmetry_equiv_pos_as_xyz
1 x,y,z
2 -y,x,3/4+z
3 -x,-y,1/2+z
4 y,-x,1/4+z
_cell_length_a                   11.5093(2)
_cell_length_b                   11.5093(2)
_cell_length_c                   41.8662(11)
_cell_angle_alpha                90
_cell_angle_beta                 90
_cell_angle_gamma                90
_cell_volume                     5545.76
loop_
_atom_site_label
_atom_site_type_symbol
_atom_site_fract_x
_atom_site_fract_y
_atom_site_fract_z
Sr1 Sr 0.71482(9) 0.74946(9) 0.84537(5)
Cu1 Cu 1.12993(11) 1.10288(11) 0.88112(2)
Cu2 Cu 1.37138(11) 1.16593(11) 0.80833(2)
Cu3 Cu 0.29859(11) 1.40453(11) 0.88138(3)
Cu4 Cu 0.06954(11) 0.33321(11) 0.80577(3)
O1 O 0.9624(7) 0.9857(7) 0.87126(18)
O2 O 0.9017(7) 0.8700(8) 0.8317(2)
O3 O 1.3411(8) 1.1312(8) 0.76252(17)
O4 O 1.2184(7) 1.0503(8) 0.72874(18)
O5 O 0.4923(7) 0.9998(7) 0.81877(16)
O6 O 0.6032(8) 0.9376(8) 0.8592(2)
O7 O 0.3291(7) 1.3769(7) 0.92793(17)
O8 O 0.4120(9) 1.2487(8) 0.9604(2)
O9 O 0.4647(7) 0.5256(7) 0.87272(17)
O10 O 0.5251(8) 0.6436(8) 0.8336(2)
O11 O 0.1092(7) 0.3610(8) 0.75932(17)
O12 O 0.2380(7) 0.4421(8) 0.72808(18)
O13 O 1.0971(8) 0.1395(8) 0.92681(17)
O14 O 1.0159(9) 0.2743(8) 0.95909(19)
O15 O 0.9502(7) 0.5019(7) 0.81341(18)
O16 O 0.8352(8) 0.5693(7) 0.8515(2)
O17 O 0.8252(10) 0.8146(10) 0.8978(3)
H1 H 0.8976 0.8020 0.8997
H2 H 0.7878 0.8474 0.9128
O18 O 0.6284(10) 0.6694(10) 0.8990(2)
H3 H 0.6099 0.5981 0.9007
H4 H 0.6182 0.7152 0.9147
O19 O 0.7617(12) 0.6463(12) 0.7881(3)
H5 H 0.8308 0.6247 0.7841
H6 H 0.7085 0.6352 0.7743
O20 O 0.6401(9) 0.8418(9) 0.7913(2)
H7 H 0.6554 0.8099 0.7735
H8 H 0.5999 0.9037 0.7919
N1 N 1.1409(7) 1.0636(7) 0.83558(19)
N2 N 1.2134(7) 1.0966(8) 0.81244(17)
N3 N 1.2270(7) 0.9721(7) 0.89464(19)
N4 N 0.4049(8) 1.1749(7) 0.8548(2)
N5 N 0.3683(7) 1.2490(8) 0.8782(2)
N6 N 1.5033(8) 1.2645(8) 0.7963(2)
N7 N 0.2915(7) 0.4397(8) 0.8355(2)
N8 N 0.2234(7) 0.4003(8) 0.81133(18)
N9 N 0.1993(8) 1.5387(8) 0.8927(2)
N10 N 1.0600(7) 0.2591(8) 0.8759(2)
N11 N 1.0283(8) 0.3294(8) 0.85171(19)
N12 N -0.0622(8) 0.2378(8) 0.7928(2)
C1 C 1.3512(11) 0.8196(11) 0.8948(3)
H9 H 1.4001 0.7595 0.8885
N13 N 1.6289(9) 1.3589(9) 0.7668(2)
H10 H 1.6642 1.3864 0.7504
N14 N 0.0810(9) 1.6909(9) 0.8926(3)
H11 H 0.0379 1.7481 0.8868
N15 N -0.1811(8) 0.1366(9) 0.7631(2)
H12 H -0.2109 0.1074 0.7460
C2 C 1.0585(9) 0.9950(9) 0.8225(2)
C3 C 1.0790(10) 0.9837(10) 0.7901(3)
H13 H 1.0358 0.9412 0.7754
C4 C 1.1777(9) 1.0492(10) 0.7842(3)
C5 C 0.9654(10) 0.9457(9) 0.8432(3)
C6 C 1.2480(10) 1.0774(11) 0.7565(3)
C7 C 1.2830(10) 0.8910(10) 0.8760(3)
H14 H 1.2759 0.8850 0.8540
N16 N 1.3286(10) 0.8600(10) 0.9255(3)
H15 H 1.3573 0.8309 0.9427
C8 C 1.2598(11) 0.9456(10) 0.9245(3)
H16 H 1.2347 0.9857 0.9425
C9 C 0.4738(10) 1.0932(11) 0.8682(3)
C10 C 0.4777(10) 1.1128(9) 0.9005(2)
H17 H 0.5170 1.0693 0.9158
C11 C 0.4103(10) 1.2114(9) 0.9056(2)
C12 C 0.5270(10) 1.0045(10) 0.8476(3)
C13 C 0.3829(11) 1.2832(11) 0.9340(2)
C14 C 1.5384(10) 1.2878(10) 0.7674(2)
H18 H 1.5035 1.2578 0.7491
C15 C 1.6551(12) 1.3782(11) 0.7977(3)
H19 H 1.7169 1.4226 0.8052
C16 C 1.5762(10) 1.3221(10) 0.8160(3)
H20 H 1.5728 1.3231 0.8382
C17 C 0.3740(9) 0.5121(9) 0.8228(3)
C18 C 0.3614(11) 0.5193(11) 0.7904(3)
H21 H 0.4064 0.5614 0.7761
C19 C 0.2687(9) 0.4513(9) 0.7841(3)
C20 C 0.4612(9) 0.5628(10) 0.8467(3)
C21 C 0.2061(10) 0.4185(11) 0.7547(2)
C22 C 0.1450(10) 1.6165(11) 0.8737(3)
H22 H 0.1500 1.6194 0.8516
C23 C 0.1041(12) 1.6593(12) 0.9232(3)
H23 H 0.0739 1.6949 0.9413
C24 C 0.1735(12) 1.5735(12) 0.9231(3)
H24 H 0.2031 1.5388 0.9414
C25 C 1.0149(11) 0.3049(11) 0.9025(3)
C26 C 0.9474(10) 0.3969(9) 0.8958(3)
H25 H 0.9034 0.4408 0.9100
C27 C 0.9574(10) 0.4120(10) 0.8634(3)
C28 C 1.0443(12) 0.2336(11) 0.9326(3)
C29 C 0.9114(10) 0.5003(10) 0.8421(3)
C30 C -0.0844(12) 0.2041(12) 0.7642(4)
H26 H -0.0398 0.2236 0.7465
C31 C -0.2160(12) 0.1212(12) 0.7921(3)
H27 H -0.2795 0.0770 0.7985
C32 C -0.1431(9) 0.1813(9) 0.8117(3)
H28 H -0.1470 0.1840 0.8339
Cu1_2 Cu 1.12993(11) 0.10288(11) 0.88112(2)
Cu2_2 Cu 0.37138(11) 1.16593(11) 0.80833(2)
Cu3_2 Cu 0.29859(11) 0.40453(11) 0.88138(3)
Cu4_2 Cu 1.06954(11) 0.33321(11) 0.80577(3)
O5_2 O 1.4923(7) 0.9998(7) 0.81877(16)
O9_2 O 0.4647(7) 1.5256(7) 0.87272(17)
O13_2 O 1.0971(8) 1.1395(8) 0.92681(17)
O15_2 O -0.0498(7) 0.5019(7) 0.81341(18)
N4_2 N 1.4049(8) 1.1749(7) 0.8548(2)
N7_2 N 0.2915(7) 1.4397(8) 0.8355(2)
N10_2 N 1.0600(7) 1.2591(8) 0.8759(2)
N11_2 N 0.0283(8) 0.3294(8) 0.85171(19)
Sr2 Sr 0.73039(17) 0.0130(2) 0.97394(7)
O21 O 0.6240(12) -0.1105(11) 0.9370(3)
H29 H 0.5824 -0.1660 0.9440
H30 H 0.6280 -0.0975 0.9170
O22 O 0.9375(9) -0.0337(9) 0.9558(2)
H31 H 0.9862 -0.0608 0.9691
H32 H 0.9578 -0.0213 0.9365
O23 O 0.8567(12) 0.1576(13) 1.0030(3)
H33 H 0.8622 0.1570 1.0232
H34 H 0.8928 0.2086 0.9922
O24 O 0.5270(9) 0.0686(10) 0.9855(3)
H35 H 0.5003 0.0596 1.0043
H36 H 0.4843 0.0975 0.9710
O25 O 0.7487(12) -0.1925(14) 0.9947(4)
H37 H 0.7412 -0.2068 1.0146
H38 H 0.7639 -0.2473 0.9818
O26 O 0.7214(13) 0.2077(15) 0.9469(4)
H39 H 0.7065 0.2652 0.9590
H40 H 0.7312 0.2125 0.9268
O27 O 0.6878(14) 0.4197(14) 0.9856(3)
H41 H 0.6143 0.4155 0.9841
H42 H 0.7250 0.3675 0.9957
O28 O 0.9558(13) 0.4985(11) 0.9810(3)
H43 H 0.8853 0.4770 0.9822
H44 H 1.0088 0.4584 0.9899
O29 O 0.5080(11) 0.5419(11) 0.9587(3)
H45 H 0.5274 0.4824 0.9695
H46 H 0.4369 0.5543 0.9544
O30 O 0.3587(10) 0.8031(9) 0.7964(3)
H47 H 0.3252 0.7465 0.8056
H48 H 0.3276 0.8346 0.7802
O31 O 0.8102(13) 0.6403(14) 0.9494(4)
H49 H 0.8344 0.6068 0.9663
H50 H 0.7477 0.6177 0.9406
O32? O 0.7049(12) -0.0004(16) 1.0385(3)
H51? H 0.7153 0.0680 1.0314
H52? H 0.6897 -0.0702 1.0436
loop_
_geom_bond_atom_site_label_1
_geom_bond_atom_site_label_2
_geom_bond_site_symmetry_1
_geom_bond_site_symmetry_2
Sr1 O2 1_555 1_555
Cu1 O1 1_555 1_555
Cu2 O3 1_555 1_555
Cu3 O7 1_555 1_555
Cu4 O11 1_555 1_555
O1 C5 1_555 1_555
O2 C5 1_555 1_555
O3 C6 1_555 1_555
O4 C6 1_555 1_555
O5 C12 1_555 1_555
O6 Sr1 1_555 1_555
O7 C13 1_555 1_555
O8 C13 1_555 1_555
O9 C20 1_555 1_555
O10 Sr1 1_555 1_555
O11 C21 1_555 1_555
O12 C21 1_555 1_555
O13 C28 1_555 1_555
O14 C28 1_555 1_555
O15 C29 1_555 1_555
O16 Sr1 1_555 1_555
O17 Sr1 1_555 1_555
H1 O17 1_555 1_555
H2 O17 1_555 1_555
O18 Sr1 1_555 1_555
H3 O18 1_555 1_555
H4 O18 1_555 1_555
O19 Sr1 1_555 1_555
H5 O19 1_555 1_555
H6 O19 1_555 1_555
O20 Sr1 1_555 1_555
H7 O20 1_555 1_555
H8 O20 1_555 1_555
N1 Cu1 1_555 1_555
N2 Cu2 1_555 1_555
N3 Cu1 1_555 1_555
N4 N5 1_555 1_555
N5 Cu3 1_555 1_555
N6 Cu2 1_555 1_555
N7 N8 1_555 1_555
N8 Cu4 1_555 1_555
N9 Cu3 1_555 1_555
N10 N11 1_555 1_555
N11 C27 1_555 1_555
N12 Cu4 1_555 1_555
C1 H9 1_555 1_555
N13 H10 1_555 1_555
N14 H11 1_555 1_555
N15 H12 1_555 1_555
C2 N1 1_555 1_555
C3 C2 1_555 1_555
H13 C3 1_555 1_555
C4 N2 1_555 1_555
C5 C2 1_555 1_555
C6 C4 1_555 1_555
C7 N3 1_555 1_555
H14 C7 1_555 1_555
N16 C1 1_555 1_555
H15 N16 1_555 1_555
C8 N3 1_555 1_555
H16 C8 1_555 1_555
C9 N4 1_555 1_555
C10 C9 1_555 1_555
H17 C10 1_555 1_555
C11 N5 1_555 1_555
C12 O6 1_555 1_555
C13 C11 1_555 1_555
C14 N6 1_555 1_555
H18 C14 1_555 1_555
C15 N13 1_555 1_555
H19 C15 1_555 1_555
C16 N6 1_555 1_555
H20 C16 1_555 1_555
C17 N7 1_555 1_555
C18 C17 1_555 1_555
H21 C18 1_555 1_555
C19 N8 1_555 1_555
C20 O10 1_555 1_555
C21 C19 1_555 1_555
C22 N9 1_555 1_555
H22 C22 1_555 1_555
C23 N14 1_555 1_555
H23 C23 1_555 1_555
C24 N9 1_555 1_555
H24 C24 1_555 1_555
C25 N10 1_555 1_555
C26 C25 1_555 1_555
H25 C26 1_555 1_555
C27 C26 1_555 1_555
C28 C25 1_555 1_555
C29 O16 1_555 1_555
C30 N12 1_555 1_555
H26 C30 1_555 1_555
C31 N15 1_555 1_555
H27 C31 1_555 1_555
C32 N12 1_555 1_555
H28 C32 1_555 1_555
Sr2 O21 1_555 1_555
O21 H29 1_555 1_555
H30 O21 1_555 1_555
O22 Sr2 1_555 1_555
H31 O22 1_555 1_555
H32 O22 1_555 1_555
O23 Sr2 1_555 1_555
H33 O23 1_555 1_555
H34 O23 1_555 1_555
O24 Sr2 1_555 1_555
H35 O24 1_555 1_555
H36 O24 1_555 1_555
O25 Sr2 1_555 1_555
H37 O25 1_555 1_555
H38 O25 1_555 1_555
O26 Sr2 1_555 1_555
H39 O26 1_555 1_555
H40 O26 1_555 1_555
O27 H41 1_555 1_555
H42 O27 1_555 1_555
O28 H43 1_555 1_555
H44 O28 1_555 1_555
O29 H45 1_555 1_555
H46 O29 1_555 1_555
O30 H47 1_555 1_555
H48 O30 1_555 1_555
O31 H49 1_555 1_555
H50 O31 1_555 1_555
Cu1_2 O13 1_555 1_555
Cu2_2 O5 1_555 1_555
Cu3_2 O9 1_555 1_555
Cu4_2 O15 1_555 1_555
O5_2 Cu2 1_555 1_555
O9_2 Cu3 1_555 1_555
O13_2 Cu1 1_555 1_555
O15_2 Cu4 1_555 1_555
N4_2 Cu2 1_555 1_555
N7_2 Cu3 1_555 1_555
N10_2 Cu1 1_555 1_555
N11_2 Cu4 1_555 1_555
N1 N2 1_555 1_555
N4 Cu2_2 1_555 1_555
N7 Cu3_2 1_555 1_555
N10 Cu1_2 1_555 1_555
N11 Cu4_2 1_555 1_555
C1 C7 1_555 1_555
N13 C14 1_555 1_555
N14 C22 1_555 1_555
N15 C30 1_555 1_555
C3 C4 1_555 1_555
N16 C8 1_555 1_555
C9 C12 1_555 1_555
C10 C11 1_555 1_555
C15 C16 1_555 1_555
C17 C20 1_555 1_555
C18 C19 1_555 1_555
C23 C24 1_555 1_555
C27 C29 1_555 1_555
C31 C32 1_555 1_555

#END
