
#######################################################################
#
#                 Cambridge Crystallographic Data Centre
#                                CCDC 
#
#######################################################################
#
# If this CIF has been generated from an entry in the Cambridge 
# Structural Database, then it will include bibliographic, chemical, 
# crystal, experimental, refinement or atomic coordinate data resulting 
# from the CCDC's data processing and validation procedures.
#
#######################################################################

data_USAWUH
_symmetry_cell_setting           triclinic
_symmetry_space_group_name_H-M   'P -1'
_symmetry_Int_Tables_number      2
_space_group_name_Hall           '-P 1'
loop_
_symmetry_equiv_pos_site_id
_symmetry_equiv_pos_as_xyz
1 x,y,z
2 -x,-y,-z
_cell_length_a                   7.7215(10)
_cell_length_b                   9.2893(12)
_cell_length_c                   9.7711(12)
_cell_angle_alpha                104.6280(10)
_cell_angle_beta                 92.464(2)
_cell_angle_gamma                103.546(2)
_cell_volume                     655.375
loop_
_atom_site_label
_atom_site_type_symbol
_atom_site_fract_x
_atom_site_fract_y
_atom_site_fract_z
Cd1 Cd 0.94887(4) 0.83825(3) -0.16213(3)
Cd2 Cd 1.5000 1.0000 0.0000
P1 P 1.14743(14) 0.78393(11) 0.07999(11)
O1 O 1.0530(4) 0.6588(3) -0.0523(3)
O2 O 1.0643(4) 0.9187(3) 0.0885(4)
O3 O 1.3490(4) 0.8273(4) 0.0898(3)
O4 O 0.3674(4) 0.2440(4) 0.1493(4)
O5 O 0.2435(5) 0.3833(4) 0.3124(4)
O6 O 1.0700(4) 0.8894(4) -0.3649(3)
O7 O 1.2735(4) 0.9323(4) -0.1860(3)
N1 N 0.9144(4) 0.6062(4) 0.2221(3)
H1 H 0.9055 0.5243 0.1471
C1 C 1.0982(5) 0.7103(5) 0.2352(4)
H2 H 1.1113 0.7960 0.3175
H3 H 1.1851 0.6556 0.2506
C2 C 0.7677(6) 0.6797(5) 0.1963(5)
H4 H 0.7852 0.7180 0.1141
H5 H 0.7698 0.7647 0.2768
C3 C 0.5881(6) 0.5623(6) 0.1734(6)
H6 H 0.5850 0.4822 0.0884
H7 H 0.4942 0.6104 0.1587
C4 C 0.5509(6) 0.4894(5) 0.2964(5)
H8 H 0.5360 0.5661 0.3785
C5 C 0.7094(6) 0.4281(5) 0.3311(5)
H9 H 0.7125 0.3407 0.2547
H10 H 0.6929 0.3943 0.4158
C6 C 0.8874(5) 0.5484(5) 0.3526(4)
H11 H 0.8886 0.6329 0.4333
H12 H 0.9837 0.5043 0.3710
C7 C 0.3764(6) 0.3634(5) 0.2506(5)
C8 C 1.2307(5) 0.9294(4) -0.3130(4)
C9 C 1.3718(5) 0.9694(4) -0.4077(4)
C10 C 1.5362(6) 0.9333(5) -0.3933(5)
H13 H 1.5944 0.9849 -0.2989
C11 C 1.3353(6) 1.0347(5) -0.5159(4)
H14 H 1.3063 1.1303 -0.4749
Cd1A Cd 2.05113(4) 1.16175(3) 0.16213(3)
Cd1A_2 Cd 1.05113(4) 1.16175(3) 0.16213(3)
Cd1A_3 Cd 0.05113(4) 0.16175(3) 0.16213(3)
Cd1A_4 Cd 2.05113(4) 1.16175(3) -0.83787(3)
Cd1_2 Cd 1.94887(4) 0.83825(3) -0.16213(3)
Cd1_3 Cd 2.94887(4) 1.83825(3) -0.16213(3)
Cd2_2 Cd 1.5000 1.0000 -1.0000
P1A P 1.85257(14) 1.21607(11) -0.07999(11)
O1A O 1.9470(4) 1.3412(3) 0.0523(3)
O2A O 1.9357(4) 1.0813(3) -0.0885(4)
O2A_2 O 0.9357(4) 1.0813(3) -0.0885(4)
O2_2 O 2.0643(4) 0.9187(3) 0.0885(4)
O3A O 1.6510(4) 1.1727(4) -0.0898(3)
O4A O 2.6326(4) 1.7560(4) -0.1493(4)
O4A_2 O 0.6326(4) 0.7560(4) -0.1493(4)
O4_2 O 2.3674(4) 1.2440(4) 0.1493(4)
O5A O 2.7565(5) 1.6167(4) -0.3124(4)
O5A_2 O 0.7565(5) 0.6167(4) -0.3124(4)
O5_2 O 2.2435(5) 1.3833(4) 0.3124(4)
O6A O 1.9300(4) 1.1106(4) -0.6351(3)
O6A_2 O 1.9300(4) 1.1106(4) 0.3649(3)
O7A O 1.7265(4) 1.0677(4) -0.8140(3)
O7A_2 O 1.7265(4) 1.0677(4) 0.1860(3)
N1A N 2.0856(4) 1.3938(4) -0.2221(3)
H1A H 2.0945 1.4757 -0.1471
C1A C 1.9018(5) 1.2897(5) -0.2352(4)
H2A H 1.8887 1.2040 -0.3175
H3A H 1.8149 1.3444 -0.2506
C2A C 2.2323(6) 1.3203(5) -0.1963(5)
H4A H 2.2148 1.2820 -0.1141
H5A H 2.2302 1.2353 -0.2768
C3A C 2.4119(6) 1.4377(6) -0.1734(6)
H6A H 2.4150 1.5178 -0.0884
H7A H 2.5058 1.3896 -0.1587
C4A C 2.4491(6) 1.5106(5) -0.2964(5)
H8A H 2.4640 1.4339 -0.3785
C5A C 2.2906(6) 1.5719(5) -0.3311(5)
H9A H 2.2875 1.6593 -0.2547
H10A H 2.3071 1.6057 -0.4158
C6A C 2.1126(5) 1.4516(5) -0.3526(4)
H11A H 2.1114 1.3671 -0.4333
H12A H 2.0163 1.4957 -0.3710
C7A C 2.6236(6) 1.6366(5) -0.2506(5)
C8A C 1.7693(5) 1.0706(4) -0.6870(4)
C9A C 1.6282(5) 1.0306(4) -0.5923(4)
C10A C 1.4638(6) 1.0667(5) -0.6067(5)
H13A H 1.4056 1.0151 -0.7011
C11A C 1.6647(6) 0.9653(5) -0.4841(4)
H14A H 1.6937 0.8697 -0.5251
loop_
_geom_bond_atom_site_label_1
_geom_bond_atom_site_label_2
_geom_bond_site_symmetry_1
_geom_bond_site_symmetry_2
Cd1 O1 1_555 1_555
Cd2 O3 1_555 1_555
P1 O1 1_555 1_555
O2 Cd1 1_555 1_555
O3 P1 1_555 1_555
O4 C7 1_555 1_555
O5 C7 1_555 1_555
O6 Cd1 1_555 1_555
O7 Cd1 1_555 1_555
N1 H1 1_555 1_555
C1 P1 1_555 1_555
H2 C1 1_555 1_555
H3 C1 1_555 1_555
C2 N1 1_555 1_555
H4 C2 1_555 1_555
H5 C2 1_555 1_555
C3 C2 1_555 1_555
H6 C3 1_555 1_555
H7 C3 1_555 1_555
C4 C3 1_555 1_555
H8 C4 1_555 1_555
C5 C4 1_555 1_555
H9 C5 1_555 1_555
H10 C5 1_555 1_555
C6 N1 1_555 1_555
H11 C6 1_555 1_555
H12 C6 1_555 1_555
C7 C4 1_555 1_555
C8 O6 1_555 1_555
C9 C8 1_555 1_555
C10 C9 1_555 1_555
H13 C10 1_555 1_555
C11 C9 1_555 1_555
H14 C11 1_555 1_555
Cd1A O1A 1_555 1_555
Cd1A_2 O2 1_555 1_555
Cd1A_3 O4 1_555 1_555
Cd1A_4 O6A 1_555 1_555
Cd1_2 O2A 1_555 1_555
Cd1_3 O4A 1_555 1_555
Cd2_2 O7A 1_555 1_555
P1A O1A 1_555 1_555
O2A Cd1A 1_555 1_555
O2A_2 Cd1 1_555 1_555
O2_2 Cd1A 1_555 1_555
O3A Cd2 1_555 1_555
O4A C7A 1_555 1_555
O4A_2 Cd1 1_555 1_555
O4_2 Cd1A 1_555 1_555
O5A Cd1_3 1_555 1_555
O5A_2 Cd1 1_555 1_555
O5_2 Cd1A 1_555 1_555
O6A C8A 1_555 1_555
O6A_2 Cd1A 1_555 1_555
O7A Cd1A_4 1_555 1_555
O7A_2 Cd2 1_555 1_555
N1A H1A 1_555 1_555
C1A P1A 1_555 1_555
H2A C1A 1_555 1_555
H3A C1A 1_555 1_555
C2A N1A 1_555 1_555
H4A C2A 1_555 1_555
H5A C2A 1_555 1_555
C3A C2A 1_555 1_555
H6A C3A 1_555 1_555
H7A C3A 1_555 1_555
C4A C3A 1_555 1_555
H8A C4A 1_555 1_555
C5A C4A 1_555 1_555
H9A C5A 1_555 1_555
H10A C5A 1_555 1_555
C6A N1A 1_555 1_555
H11A C6A 1_555 1_555
H12A C6A 1_555 1_555
C7A O5A 1_555 1_555
C8A O7A 1_555 1_555
C9A C8A 1_555 1_555
C10A C11 1_555 1_555
H13A C10A 1_555 1_555
C11A C10 1_555 1_555
H14A C11A 1_555 1_555
Cd2 O7 1_555 1_555
P1 O2 1_555 1_555
O5 Cd1A_3 1_555 1_555
O7 C8 1_555 1_555
N1 C1 1_555 1_555
C5 C6 1_555 1_555
Cd1A O7A_2 1_555 1_555
Cd1A_2 O2A_2 1_555 1_555
Cd1_2 O2_2 1_555 1_555
P1A O2A 1_555 1_555
P1A O3A 1_555 1_555
N1A C1A 1_555 1_555
C4A C7A 1_555 1_555
C5A C6A 1_555 1_555
C9A C10A 1_555 1_555
C9A C11A 1_555 1_555

#END
