
#######################################################################
#
#                 Cambridge Crystallographic Data Centre
#                                CCDC 
#
#######################################################################
#
# If this CIF has been generated from an entry in the Cambridge 
# Structural Database, then it will include bibliographic, chemical, 
# crystal, experimental, refinement or atomic coordinate data resulting 
# from the CCDC's data processing and validation procedures.
#
#######################################################################

data_USEBEA
_symmetry_cell_setting           monoclinic
_symmetry_space_group_name_H-M   'C 2'
_symmetry_Int_Tables_number      5
_space_group_name_Hall           'C 2y'
loop_
_symmetry_equiv_pos_site_id
_symmetry_equiv_pos_as_xyz
1 x,y,z
2 1/2+x,1/2+y,z
3 -x,y,-z
4 1/2-x,1/2+y,-z
_cell_length_a                   6.7001
_cell_length_b                   21.0
_cell_length_c                   6.6679
_cell_angle_alpha                90
_cell_angle_beta                 109.7634
_cell_angle_gamma                90
_cell_volume                     882.925
loop_
_atom_site_label
_atom_site_type_symbol
_atom_site_fract_x
_atom_site_fract_y
_atom_site_fract_z
N1 N 0.75678 0.47309 0.77657
C1 C 0.75783 0.54646 0.77693
C2 C 0.72113 0.58134 0.94193
C3 C 0.79553 0.58128 0.61215
H1 H 0.64269 0.45709 0.81712
H2 H 0.74084 0.45701 0.63829
H3 H 0.69137 0.55390 1.07192
H4 H 0.82447 0.55383 0.48210
N2 N 0.76084 0.75914 0.77795
C4 C 0.75979 0.68577 0.77760
C5 C 0.79649 0.65089 0.61258
C6 C 0.72211 0.65095 0.94238
H5 H 0.87493 0.77514 0.73741
H6 H 0.77687 0.77525 0.91636
H7 H 0.82625 0.67834 0.48261
H8 H 0.69324 0.67843 1.07255
Cd1 Cd 0.50000 0.81783 0.50000
Cl1 Cl 0.75000 0.909 0.75000
Cd2 Cd 1.00000 0.40994 1.00000
Cl2 Cl 0.25000 0.817 0.75000
N1B N 0.24322 0.47309 0.22343
N1B_2 N 1.24322 0.47309 1.22343
C1B C 0.24217 0.54646 0.22307
C2B C 0.27887 0.58134 0.05807
C3B C 0.20447 0.58128 0.38785
H1B H 0.35731 0.45709 0.18288
H1B_2 H 1.35731 0.45709 1.18288
H2B H 0.25916 0.45701 0.36171
H2B_2 H 1.25916 0.45701 1.36171
H3B H 0.30863 0.55390 -0.07192
H4B H 0.17553 0.55383 0.51790
N2B N 0.23916 0.75914 0.22205
C4B C 0.24021 0.68577 0.22240
C5B C 0.20351 0.65089 0.38742
C6B C 0.27789 0.65095 0.05762
H5B H 0.12507 0.77514 0.26259
H6B H 0.22313 0.77525 0.08364
H7B H 0.17375 0.67834 0.51739
H8B H 0.30676 0.67843 -0.07255
Cl1B Cl 0.25000 0.909 0.25000
Cl1A Cl 1.25000 0.409 0.75000
Cl1C Cl 0.75000 0.409 1.25000
Cd2A Cd 0.50000 0.90994 1.00000
Cd2A_2 Cd 0.50000 0.90994 0.00000
Cd2_2 Cd 0.00000 0.40994 0.00000
Cl2B Cl 0.75000 0.817 0.25000
Cl2A Cl 0.75000 0.317 0.75000
Cl2C Cl 1.25000 0.317 1.25000
loop_
_geom_bond_atom_site_label_1
_geom_bond_atom_site_label_2
_geom_bond_site_symmetry_1
_geom_bond_site_symmetry_2
N1 C1 1_555 1_555
C1 C2 1_555 1_555
C2 H3 1_555 1_555
C3 C1 1_555 1_555
H1 N1 1_555 1_555
H2 N1 1_555 1_555
H4 C3 1_555 1_555
N2 C4 1_555 1_555
C4 C5 1_555 1_555
C5 C3 1_555 1_555
C6 C2 1_555 1_555
H5 N2 1_555 1_555
H6 N2 1_555 1_555
H7 C5 1_555 1_555
H8 C6 1_555 1_555
Cd1 N2 1_555 1_555
Cl1 Cd1 1_555 1_555
Cd2 N1 1_555 1_555
Cl2 Cd1 1_555 1_555
N1B C1B 1_555 1_555
N1B_2 Cd2 1_555 1_555
C1B C2B 1_555 1_555
C2B H3B 1_555 1_555
C3B C1B 1_555 1_555
H1B N1B 1_555 1_555
H1B_2 N1B_2 1_555 1_555
H2B N1B 1_555 1_555
H2B_2 N1B_2 1_555 1_555
H4B C3B 1_555 1_555
N2B Cd1 1_555 1_555
C4B N2B 1_555 1_555
C5B C3B 1_555 1_555
C6B C2B 1_555 1_555
H5B N2B 1_555 1_555
H6B N2B 1_555 1_555
H7B C5B 1_555 1_555
H8B C6B 1_555 1_555
Cl1B Cd1 1_555 1_555
Cl1A Cd2 1_555 1_555
Cl1C Cd2 1_555 1_555
Cd2A Cl1 1_555 1_555
Cd2A_2 Cl1B 1_555 1_555
Cd2_2 N1B 1_555 1_555
Cl2B Cd1 1_555 1_555
Cl2A Cd2 1_555 1_555
Cl2C Cd2 1_555 1_555
C4 C6 1_555 1_555
Cl2 Cd2A 1_555 1_555
C4B C5B 1_555 1_555
C4B C6B 1_555 1_555
Cd2A_2 Cl2B 1_555 1_555

#END
