
#######################################################################
#
#                 Cambridge Crystallographic Data Centre
#                                CCDC 
#
#######################################################################
#
# If this CIF has been generated from an entry in the Cambridge 
# Structural Database, then it will include bibliographic, chemical, 
# crystal, experimental, refinement or atomic coordinate data resulting 
# from the CCDC's data processing and validation procedures.
#
#######################################################################

data_USEDUS
_symmetry_cell_setting           triclinic
_symmetry_space_group_name_H-M   'P -1'
_symmetry_Int_Tables_number      2
_space_group_name_Hall           '-P 1'
loop_
_symmetry_equiv_pos_site_id
_symmetry_equiv_pos_as_xyz
1 x,y,z
2 -x,-y,-z
_cell_length_a                   12.400(2)
_cell_length_b                   13.722(2)
_cell_length_c                   17.556(3)
_cell_angle_alpha                77.925(2)
_cell_angle_beta                 80.552(2)
_cell_angle_gamma                73.759(2)
_cell_volume                     2786.73
loop_
_atom_site_label
_atom_site_type_symbol
_atom_site_fract_x
_atom_site_fract_y
_atom_site_fract_z
Cu1 Cu 0.07678(5) 0.16410(4) 0.80713(3)
Cu2 Cu 0.5000 0.5000 1.0000
Cu3 Cu -0.5000 0.5000 0.5000
O1 O -0.3936(2) 0.4030(2) 0.56415(15)
O2 O -0.4871(2) 0.2989(2) 0.53826(17)
O3 O -0.0389(2) 0.1107(2) 0.77942(15)
O4 O -0.0865(2) 0.2785(2) 0.73005(17)
O5 O 0.2562(3) 0.0395(2) 0.86693(17)
O6 O 0.1941(2) 0.2099(2) 0.83972(16)
O7 O 0.5351(2) 0.3538(2) 0.99311(16)
O8 O 0.3835(2) 0.4299(2) 0.93015(17)
O9 O -0.0366(3) 0.5240(3) 0.22202(19)
O10 O 0.7572(3) 0.3182(2) 0.14612(18)
O11 O 0.3216(3) 0.0775(3) 0.43429(18)
O12 O 0.2723(3) 0.3524(3) 1.37924(19)
N1 N -0.3815(3) 0.4932(3) 0.4059(2)
N2 N -0.1478(3) 0.5069(3) 0.1396(2)
H1 H -0.2140 0.5046 0.1312
N3 N 0.1667(3) 0.1510(3) 0.70206(19)
N4 N 0.9816(3) 0.1812(3) -0.0895(2)
N5 N 0.7344(3) 0.1560(3) 0.17182(19)
H2 H 0.7479 0.1008 0.1571
N6 N 0.4496(3) 0.1568(3) 0.45639(18)
H3 H 0.4575 0.1914 0.4840
N7 N 0.4110(3) 0.4779(3) 1.1059(2)
N8 N 0.1449(3) 0.5065(3) 1.35800(19)
H4 H 0.1282 0.5673 1.3317
C1 C -0.2415(4) 0.0851(4) 0.7453(3)
H5 H -0.2023 0.0344 0.7822
C2 C -0.3352(4) 0.0711(4) 0.7201(3)
H6 H -0.3603 0.0123 0.7413
C3 C -0.3911(4) 0.1441(4) 0.6635(3)
H7 H -0.4524 0.1333 0.6453
C4 C -0.2643(4) 0.2484(3) 0.6614(2)
H8 H -0.2420 0.3093 0.6429
C5 C -0.2056(4) 0.1739(3) 0.7163(2)
C6 C -0.3566(4) 0.2339(4) 0.6332(2)
C7 C -0.4167(4) 0.3163(4) 0.5741(3)
C8 C -0.1047(4) 0.1914(4) 0.7428(2)
C9 C 0.3735(4) 0.2370(3) 0.9034(2)
H9 H 0.3105 0.2924 0.8960
C10 C 0.4663(4) 0.2502(3) 0.9301(2)
C11 C 0.5611(4) 0.1695(4) 0.9389(3)
H10 H 0.6240 0.1786 0.9563
C12 C 0.5632(4) 0.0748(4) 0.9220(3)
H11 H 0.6279 0.0207 0.9265
C13 C 0.4678(4) 0.0612(4) 0.8983(3)
H12 H 0.4679 -0.0033 0.8895
C14 C 0.3726(4) 0.1419(4) 0.8874(2)
C15 C 0.2691(4) 0.1277(4) 0.8643(2)
C16 C 0.4595(4) 0.3523(4) 0.9522(3)
C17 C -0.2735(4) 0.4831(4) 0.4143(3)
H13 H -0.2530 0.4718 0.4646
C18 C -0.1908(4) 0.4888(4) 0.3511(3)
H14 H -0.1168 0.4825 0.3594
C19 C -0.2186(4) 0.5038(3) 0.2765(3)
C20 C -0.3289(4) 0.5120(4) 0.2672(3)
H15 H -0.3504 0.5200 0.2175
C21 C -0.4075(4) 0.5081(4) 0.3329(3)
H16 H -0.4824 0.5163 0.3258
C22 C -0.1248(4) 0.5127(4) 0.2100(3)
C23 C -0.1143(4) 0.5454(3) -0.0007(3)
H17 H -0.1910 0.5771 -0.0015
C24 C 0.0441(4) 0.4608(3) 0.0709(3)
H18 H 0.0743 0.4354 0.1185
C25 C -0.0714(4) 0.5051(3) 0.0698(3)
C26 C 0.2910(4) 0.1359(4) 0.5557(2)
C27 C 0.2300(4) 0.0663(4) 0.5911(2)
H19 H 0.2300 0.0124 0.5665
C28 C 0.1681(4) 0.0764(3) 0.6637(2)
H20 H 0.1259 0.0292 0.6866
C29 C 0.2264(4) 0.2191(3) 0.6677(2)
H21 H 0.2261 0.2717 0.6937
C30 C 0.2890(4) 0.2141(4) 0.5944(3)
H22 H 0.3290 0.2631 0.5718
C31 C 0.3556(4) 0.1219(4) 0.4759(3)
C32 C 0.5208(4) 0.1555(3) 0.3846(2)
C33 C 0.5122(4) 0.1006(4) 0.3295(3)
H23 H 0.4595 0.0615 0.3392
C34 C 0.5827(4) 0.1040(4) 0.2597(3)
H24 H 0.5750 0.0685 0.2220
C35 C 0.6639(4) 0.1587(3) 0.2446(2)
C36 C 0.6739(4) 0.2126(3) 0.3003(2)
H25 H 0.7278 0.2503 0.2910
C37 C 0.6026(4) 0.2098(3) 0.3703(2)
H26 H 0.6101 0.2451 0.4081
C38 C 0.7753(4) 0.2338(4) 0.1283(3)
C39 C 0.9100(4) 0.2774(3) 0.0135(2)
H27 H 0.9079 0.3348 0.0346
C40 C 0.8522(4) 0.1273(3) 0.0171(2)
H28 H 0.8111 0.0796 0.0406
C41 C 0.9197(4) 0.1166(3) -0.0529(2)
H29 H 0.9220 0.0607 -0.0760
C42 C 0.8470(3) 0.2105(3) 0.0519(2)
C43 C 0.9761(4) 0.2606(4) -0.0556(3)
H30 H 1.0189 0.3069 -0.0798
C44 C 0.4615(4) 0.4174(4) 1.1667(3)
H31 H 0.5373 0.3827 1.1584
C45 C 0.4056(4) 0.4043(4) 1.2415(3)
H32 H 0.4437 0.3610 1.2823
C46 C 0.2938(4) 0.4553(4) 1.2559(3)
C47 C 0.2406(4) 0.5181(3) 1.1932(3)
H33 H 0.1648 0.5535 1.2003
C48 C 0.3020(4) 0.5275(4) 1.1195(2)
H34 H 0.2658 0.5703 1.0778
C49 C 0.2361(4) 0.4334(4) 1.3375(3)
C50 C 0.0726(4) 0.5015(4) 1.4304(2)
C51 C 0.0668(4) 0.4086(4) 1.4787(3)
H35 H 0.1117 0.3467 1.4650
C52 C 0.0069(4) 0.5912(4) 1.4521(3)
H36 H 0.0112 0.6536 1.4201
Cu1A Cu 0.92322(5) 0.83590(4) 1.19287(3)
Cu1_2 Cu 1.07678(5) 0.16410(4) -0.19287(3)
Cu1_3 Cu -0.92322(5) 0.16410(4) 1.80713(3)
Cu2_2 Cu -0.5000 0.5000 2.0000
Cu3_2 Cu 0.5000 0.5000 -0.5000
Cu3_3 Cu 1.5000 0.5000 1.5000
O1A O 1.3936(2) 0.5970(2) 1.43585(15)
O1A_2 O -0.6064(2) 0.5970(2) 0.43585(15)
O2A O 1.4871(2) 0.7011(2) 1.46174(17)
O2A_2 O -0.5129(2) 0.7011(2) 0.46174(17)
O3A O 1.0389(2) 0.8893(2) 1.22058(15)
O4A O 1.0865(2) 0.7215(2) 1.26995(17)
O5A O 0.7438(3) 0.9605(2) 1.13307(17)
O6A O 0.8059(2) 0.7901(2) 1.16028(16)
O7A O 0.4649(2) 0.6462(2) 1.00689(16)
O8A O 0.6165(2) 0.5701(2) 1.06985(17)
O9A O 0.0366(3) 0.4760(3) -0.22202(19)
O10_2 O -0.2428(3) 0.3182(2) 1.14612(18)
O11_2 O -0.6784(3) 0.0775(3) 1.43429(18)
O12A O -0.2723(3) 0.6476(3) 1.62076(19)
N1A N 0.3815(3) 0.5068(3) -0.4059(2)
N1A_2 N -0.6185(3) 0.5068(3) 0.5941(2)
N2A N 0.1478(3) 0.4931(3) -0.1396(2)
H1A H 0.2140 0.4954 -0.1312
N3_2 N -0.8333(3) 0.1510(3) 1.70206(19)
N3A N 0.8333(3) 0.8490(3) 1.29794(19)
N4_2 N -0.0184(3) 0.1812(3) 0.9105(2)
N4A N 1.0184(3) 0.8188(3) 1.0895(2)
N5_2 N -0.2656(3) 0.1560(3) 1.17182(19)
H2_2 H -0.2521 0.1008 1.1571
N6_2 N -0.5504(3) 0.1568(3) 1.45639(18)
H3_2 H -0.5425 0.1914 1.4840
N7A N -0.4110(3) 0.5221(3) 1.8941(2)
N7A_2 N 0.5890(3) 0.5221(3) 0.8941(2)
N8A N -0.1449(3) 0.4935(3) 1.64200(19)
H4A H -0.1282 0.4327 1.6683
C1A C 1.2415(4) 0.9149(4) 1.2547(3)
H5A H 1.2023 0.9656 1.2178
C2A C 1.3352(4) 0.9289(4) 1.2799(3)
H6A H 1.3603 0.9877 1.2587
C3A C 1.3911(4) 0.8559(4) 1.3365(3)
H7A H 1.4524 0.8667 1.3547
C4A C 1.2643(4) 0.7516(3) 1.3386(2)
H8A H 1.2420 0.6907 1.3571
C5A C 1.2056(4) 0.8261(3) 1.2837(2)
C6A C 1.3566(4) 0.7661(4) 1.3668(2)
C7A C 1.4167(4) 0.6837(4) 1.4259(3)
C8A C 1.1047(4) 0.8086(4) 1.2572(2)
C9A C 0.6265(4) 0.7630(3) 1.0966(2)
H9A H 0.6895 0.7076 1.1040
C10A C 0.5337(4) 0.7498(3) 1.0699(2)
C11A C 0.4389(4) 0.8305(4) 1.0611(3)
H10A H 0.3760 0.8214 1.0437
C12A C 0.4368(4) 0.9252(4) 1.0780(3)
H11A H 0.3721 0.9793 1.0735
C13A C 0.5322(4) 0.9388(4) 1.1017(3)
H12A H 0.5321 1.0033 1.1105
C14A C 0.6274(4) 0.8581(4) 1.1126(2)
C15A C 0.7309(4) 0.8723(4) 1.1357(2)
C16A C 0.5405(4) 0.6477(4) 1.0478(3)
C17A C 0.2735(4) 0.5169(4) -0.4143(3)
H13A H 0.2530 0.5282 -0.4646
C18A C 0.1908(4) 0.5112(4) -0.3511(3)
H14A H 0.1168 0.5175 -0.3594
C19A C 0.2186(4) 0.4962(3) -0.2765(3)
C20A C 0.3289(4) 0.4880(4) -0.2672(3)
H15A H 0.3504 0.4800 -0.2175
C21A C 0.4075(4) 0.4919(4) -0.3329(3)
H16A H 0.4824 0.4837 -0.3258
C22A C 0.1248(4) 0.4873(4) -0.2100(3)
C23A C 0.1143(4) 0.4546(3) 0.0007(3)
H17A H 0.1910 0.4229 0.0015
C24A C -0.0441(4) 0.5392(3) -0.0709(3)
H18A H -0.0743 0.5646 -0.1185
C25A C 0.0714(4) 0.4949(3) -0.0698(3)
C26_2 C -0.7090(4) 0.1359(4) 1.5557(2)
C27_2 C -0.7700(4) 0.0663(4) 1.5911(2)
H19_2 H -0.7700 0.0124 1.5665
C28_2 C -0.8319(4) 0.0764(3) 1.6637(2)
H20_2 H -0.8741 0.0292 1.6866
C29_2 C -0.7736(4) 0.2191(3) 1.6677(2)
H21_2 H -0.7739 0.2717 1.6937
C30_2 C -0.7110(4) 0.2141(4) 1.5944(3)
H22_2 H -0.6710 0.2631 1.5718
C31_2 C -0.6444(4) 0.1219(4) 1.4759(3)
C32_2 C -0.4792(4) 0.1555(3) 1.3846(2)
C33_2 C -0.4878(4) 0.1006(4) 1.3295(3)
H23_2 H -0.5405 0.0615 1.3392
C34_2 C -0.4173(4) 0.1040(4) 1.2597(3)
H24_2 H -0.4250 0.0685 1.2220
C35_2 C -0.3361(4) 0.1587(3) 1.2446(2)
C36_2 C -0.3261(4) 0.2126(3) 1.3003(2)
H25_2 H -0.2722 0.2503 1.2910
C37_2 C -0.3974(4) 0.2098(3) 1.3703(2)
H26_2 H -0.3899 0.2451 1.4081
C38_2 C -0.2247(4) 0.2338(4) 1.1283(3)
C39_2 C -0.0900(4) 0.2774(3) 1.0135(2)
H27_2 H -0.0921 0.3348 1.0346
C40_2 C -0.1478(4) 0.1273(3) 1.0171(2)
H28_2 H -0.1889 0.0796 1.0406
C41_2 C -0.0803(4) 0.1166(3) 0.9471(2)
H29_2 H -0.0780 0.0607 0.9240
C42_2 C -0.1530(3) 0.2105(3) 1.0519(2)
C43_2 C -0.0239(4) 0.2606(4) 0.9444(3)
H30_2 H 0.0189 0.3069 0.9202
C44A C -0.4615(4) 0.5826(4) 1.8333(3)
H31A H -0.5373 0.6173 1.8416
C45A C -0.4056(4) 0.5957(4) 1.7585(3)
H32A H -0.4437 0.6390 1.7177
C46A C -0.2938(4) 0.5447(4) 1.7441(3)
C47A C -0.2406(4) 0.4819(3) 1.8068(3)
H33A H -0.1648 0.4465 1.7997
C48A C -0.3020(4) 0.4725(4) 1.8805(2)
H34A H -0.2658 0.4297 1.9222
C49A C -0.2361(4) 0.5666(4) 1.6625(3)
C50A C -0.0726(4) 0.4985(4) 1.5696(2)
C51A C -0.0668(4) 0.5914(4) 1.5213(3)
H35A H -0.1117 0.6533 1.5350
C52A C -0.0069(4) 0.4088(4) 1.5479(3)
H36A H -0.0112 0.3464 1.5799
O13 O -0.0438(4) 0.1595(4) 0.2943(2)
N9 N 0.2803(5) 0.2203(4) 0.0973(3)
N10 N 0.1009(4) 0.1088(3) 0.3679(2)
H37 H 0.1736 0.1100 0.3661
C53 C 0.3005(5) 0.2283(4) 0.1670(4)
H38 H 0.3660 0.2467 0.1706
C54 C 0.2287(5) 0.2105(4) 0.2358(3)
H39 H 0.2462 0.2174 0.2836
C55 C 0.1319(5) 0.1827(4) 0.2316(3)
C56 C 0.1098(5) 0.1766(4) 0.1590(4)
H40 H 0.0439 0.1600 0.1537
C57 C 0.1864(6) 0.1952(5) 0.0928(4)
H41 H 0.1706 0.1897 0.0441
C58 C 0.0540(5) 0.1523(5) 0.3010(4)
C59 C 0.0471(5) 0.0552(5) 0.4350(3)
C60 C 0.1058(4) -0.0423(5) 0.4664(3)
H42 H 0.1775 -0.0706 0.4429
C61 C -0.0602(4) 0.0984(4) 0.4680(3)
H43 H -0.1007 0.1636 0.4465
O13A O 0.0438(4) -0.1595(4) 0.7057(2)
N9A N -0.2803(5) -0.2203(4) 0.9027(3)
N10A N -0.1009(4) -0.1088(3) 0.6321(2)
H37A H -0.1736 -0.1100 0.6339
C53A C -0.3005(5) -0.2283(4) 0.8330(4)
H38A H -0.3660 -0.2467 0.8294
C54A C -0.2287(5) -0.2105(4) 0.7642(3)
H39A H -0.2462 -0.2174 0.7164
C55A C -0.1319(5) -0.1827(4) 0.7684(3)
C56A C -0.1098(5) -0.1766(4) 0.8410(4)
H40A H -0.0439 -0.1600 0.8463
C57A C -0.1864(6) -0.1952(5) 0.9072(4)
H41A H -0.1706 -0.1897 0.9559
C58A C -0.0540(5) -0.1523(5) 0.6990(4)
C59A C -0.0471(5) -0.0552(5) 0.5650(3)
C60A C -0.1058(4) 0.0423(5) 0.5336(3)
H42A H -0.1775 0.0706 0.5571
C61A C 0.0602(4) -0.0984(4) 0.5320(3)
H43A H 0.1007 -0.1636 0.5535
loop_
_geom_bond_atom_site_label_1
_geom_bond_atom_site_label_2
_geom_bond_site_symmetry_1
_geom_bond_site_symmetry_2
Cu1 O3 1_555 1_555
Cu2 O7 1_555 1_555
Cu3 O1 1_555 1_555
O1 C7 1_555 1_555
O2 Cu3 1_555 1_555
O3 C8 1_555 1_555
O4 Cu1 1_555 1_555
O5 Cu1 1_555 1_555
O6 Cu1 1_555 1_555
O7 C16 1_555 1_555
O8 Cu2 1_555 1_555
O9 C22 1_555 1_555
O10 C38 1_555 1_555
O11 C31 1_555 1_555
O12 C49 1_555 1_555
N1 Cu3 1_555 1_555
N2 H1 1_555 1_555
N3 Cu1 1_555 1_555
N4 C41 1_555 1_555
N5 H2 1_555 1_555
N6 H3 1_555 1_555
N7 Cu2 1_555 1_555
N8 H4 1_555 1_555
C1 H5 1_555 1_555
C2 C1 1_555 1_555
H6 C2 1_555 1_555
C3 C2 1_555 1_555
H7 C3 1_555 1_555
C4 H8 1_555 1_555
C5 C1 1_555 1_555
C6 C3 1_555 1_555
C7 O2 1_555 1_555
C8 O4 1_555 1_555
C9 H9 1_555 1_555
C10 C9 1_555 1_555
C11 C10 1_555 1_555
H10 C11 1_555 1_555
C12 C11 1_555 1_555
H11 C12 1_555 1_555
C13 C12 1_555 1_555
H12 C13 1_555 1_555
C14 C9 1_555 1_555
C15 O5 1_555 1_555
C16 O8 1_555 1_555
C17 N1 1_555 1_555
H13 C17 1_555 1_555
C18 C17 1_555 1_555
H14 C18 1_555 1_555
C19 C18 1_555 1_555
C20 C19 1_555 1_555
H15 C20 1_555 1_555
C21 N1 1_555 1_555
H16 C21 1_555 1_555
C22 N2 1_555 1_555
C23 H17 1_555 1_555
C24 H18 1_555 1_555
C25 N2 1_555 1_555
C26 C27 1_555 1_555
C27 H19 1_555 1_555
C28 N3 1_555 1_555
H20 C28 1_555 1_555
C29 N3 1_555 1_555
H21 C29 1_555 1_555
C30 C26 1_555 1_555
H22 C30 1_555 1_555
C31 N6 1_555 1_555
C32 N6 1_555 1_555
C33 C32 1_555 1_555
H23 C33 1_555 1_555
C34 C33 1_555 1_555
H24 C34 1_555 1_555
C35 N5 1_555 1_555
C36 C35 1_555 1_555
H25 C36 1_555 1_555
C37 C32 1_555 1_555
H26 C37 1_555 1_555
C38 N5 1_555 1_555
C39 H27 1_555 1_555
C40 H28 1_555 1_555
C41 C40 1_555 1_555
H29 C41 1_555 1_555
C42 C38 1_555 1_555
C43 N4 1_555 1_555
H30 C43 1_555 1_555
C44 N7 1_555 1_555
H31 C44 1_555 1_555
C45 C44 1_555 1_555
H32 C45 1_555 1_555
C46 C45 1_555 1_555
C47 C46 1_555 1_555
H33 C47 1_555 1_555
C48 N7 1_555 1_555
H34 C48 1_555 1_555
C49 N8 1_555 1_555
C50 N8 1_555 1_555
C51 C50 1_555 1_555
H35 C51 1_555 1_555
C52 C50 1_555 1_555
H36 C52 1_555 1_555
O13 C58 1_555 1_555
N9 C53 1_555 1_555
N10 H37 1_555 1_555
C53 H38 1_555 1_555
C54 C53 1_555 1_555
H39 C54 1_555 1_555
C55 C54 1_555 1_555
C56 C55 1_555 1_555
H40 C56 1_555 1_555
C57 N9 1_555 1_555
H41 C57 1_555 1_555
C58 N10 1_555 1_555
C59 N10 1_555 1_555
C60 C59 1_555 1_555
H42 C60 1_555 1_555
C61 C59 1_555 1_555
H43 C61 1_555 1_555
Cu1A O3A 1_555 1_555
Cu1_2 N4 1_555 1_555
Cu1_3 N3_2 1_555 1_555
Cu2_2 N7A 1_555 1_555
Cu3_2 N1A 1_555 1_555
Cu3_3 O1A 1_555 1_555
O1A C7A 1_555 1_555
O1A_2 Cu3 1_555 1_555
O2A Cu3_3 1_555 1_555
O2A_2 Cu3 1_555 1_555
O3A C8A 1_555 1_555
O4A Cu1A 1_555 1_555
O5A Cu1A 1_555 1_555
O6A Cu1A 1_555 1_555
O7A Cu2 1_555 1_555
O8A Cu2 1_555 1_555
O9A C22A 1_555 1_555
O10_2 C38_2 1_555 1_555
O11_2 C31_2 1_555 1_555
O12A C49A 1_555 1_555
N1A C17A 1_555 1_555
N1A_2 Cu3 1_555 1_555
N2A H1A 1_555 1_555
N3_2 C28_2 1_555 1_555
N3A Cu1A 1_555 1_555
N4_2 Cu1 1_555 1_555
N4A Cu1A 1_555 1_555
N5_2 H2_2 1_555 1_555
N6_2 H3_2 1_555 1_555
N7A C44A 1_555 1_555
N7A_2 Cu2 1_555 1_555
N8A H4A 1_555 1_555
C1A H5A 1_555 1_555
C2A C1A 1_555 1_555
H6A C2A 1_555 1_555
C3A C2A 1_555 1_555
H7A C3A 1_555 1_555
C4A H8A 1_555 1_555
C5A C1A 1_555 1_555
C6A C3A 1_555 1_555
C7A O2A 1_555 1_555
C8A O4A 1_555 1_555
C9A H9A 1_555 1_555
C10A C9A 1_555 1_555
C11A C10A 1_555 1_555
H10A C11A 1_555 1_555
C12A C11A 1_555 1_555
H11A C12A 1_555 1_555
C13A C12A 1_555 1_555
H12A C13A 1_555 1_555
C14A C9A 1_555 1_555
C15A O5A 1_555 1_555
C16A O7A 1_555 1_555
C17A H13A 1_555 1_555
C18A C17A 1_555 1_555
H14A C18A 1_555 1_555
C19A C18A 1_555 1_555
C20A C19A 1_555 1_555
H15A C20A 1_555 1_555
C21A N1A 1_555 1_555
H16A C21A 1_555 1_555
C22A N2A 1_555 1_555
C23A C24 1_555 1_555
H17A C23A 1_555 1_555
C24A C23 1_555 1_555
H18A C24A 1_555 1_555
C25A N2A 1_555 1_555
C26_2 C27_2 1_555 1_555
C27_2 H19_2 1_555 1_555
C28_2 C27_2 1_555 1_555
H20_2 C28_2 1_555 1_555
C29_2 N3_2 1_555 1_555
H21_2 C29_2 1_555 1_555
C30_2 C26_2 1_555 1_555
H22_2 C30_2 1_555 1_555
C31_2 N6_2 1_555 1_555
C32_2 N6_2 1_555 1_555
C33_2 C32_2 1_555 1_555
H23_2 C33_2 1_555 1_555
C34_2 C33_2 1_555 1_555
H24_2 C34_2 1_555 1_555
C35_2 N5_2 1_555 1_555
C36_2 C35_2 1_555 1_555
H25_2 C36_2 1_555 1_555
C37_2 C32_2 1_555 1_555
H26_2 C37_2 1_555 1_555
C38_2 N5_2 1_555 1_555
C39_2 H27_2 1_555 1_555
C40_2 H28_2 1_555 1_555
C41_2 N4_2 1_555 1_555
H29_2 C41_2 1_555 1_555
C42_2 C38_2 1_555 1_555
C43_2 N4_2 1_555 1_555
H30_2 C43_2 1_555 1_555
C44A H31A 1_555 1_555
C45A C44A 1_555 1_555
H32A C45A 1_555 1_555
C46A C45A 1_555 1_555
C47A C46A 1_555 1_555
H33A C47A 1_555 1_555
C48A N7A 1_555 1_555
H34A C48A 1_555 1_555
C49A N8A 1_555 1_555
C50A N8A 1_555 1_555
C51A C52 1_555 1_555
H35A C51A 1_555 1_555
C52A C51 1_555 1_555
H36A C52A 1_555 1_555
O13A C58A 1_555 1_555
N9A C53A 1_555 1_555
N10A H37A 1_555 1_555
C53A H38A 1_555 1_555
C54A C53A 1_555 1_555
H39A C54A 1_555 1_555
C55A C54A 1_555 1_555
C56A C55A 1_555 1_555
H40A C56A 1_555 1_555
C57A N9A 1_555 1_555
H41A C57A 1_555 1_555
C58A N10A 1_555 1_555
C59A N10A 1_555 1_555
C60A C61 1_555 1_555
H42A C60A 1_555 1_555
C61A C60 1_555 1_555
H43A C61A 1_555 1_555
O6 C15 1_555 1_555
C4 C5 1_555 1_555
C4 C6 1_555 1_555
C5 C8 1_555 1_555
C6 C7 1_555 1_555
C10 C16 1_555 1_555
C13 C14 1_555 1_555
C14 C15 1_555 1_555
C19 C22 1_555 1_555
C20 C21 1_555 1_555
C23 C25 1_555 1_555
C24 C25 1_555 1_555
C26 C31 1_555 1_555
C27 C28 1_555 1_555
C29 C30 1_555 1_555
C34 C35 1_555 1_555
C36 C37 1_555 1_555
C39 C42 1_555 1_555
C39 C43 1_555 1_555
C40 C42 1_555 1_555
C46 C49 1_555 1_555
C47 C48 1_555 1_555
C55 C58 1_555 1_555
C56 C57 1_555 1_555
O6A C15A 1_555 1_555
O8A C16A 1_555 1_555
C4A C5A 1_555 1_555
C4A C6A 1_555 1_555
C5A C8A 1_555 1_555
C6A C7A 1_555 1_555
C10A C16A 1_555 1_555
C13A C14A 1_555 1_555
C14A C15A 1_555 1_555
C19A C22A 1_555 1_555
C20A C21A 1_555 1_555
C23A C25A 1_555 1_555
C24A C25A 1_555 1_555
C26_2 C31_2 1_555 1_555
C29_2 C30_2 1_555 1_555
C34_2 C35_2 1_555 1_555
C36_2 C37_2 1_555 1_555
C39_2 C42_2 1_555 1_555
C39_2 C43_2 1_555 1_555
C40_2 C41_2 1_555 1_555
C40_2 C42_2 1_555 1_555
C46A C49A 1_555 1_555
C47A C48A 1_555 1_555
C50A C51A 1_555 1_555
C50A C52A 1_555 1_555
C55A C58A 1_555 1_555
C56A C57A 1_555 1_555
C59A C60A 1_555 1_555
C59A C61A 1_555 1_555

#END
