
#######################################################################
#
#                 Cambridge Crystallographic Data Centre
#                                CCDC 
#
#######################################################################
#
# If this CIF has been generated from an entry in the Cambridge 
# Structural Database, then it will include bibliographic, chemical, 
# crystal, experimental, refinement or atomic coordinate data resulting 
# from the CCDC's data processing and validation procedures.
#
#######################################################################

data_USEDOM
_symmetry_cell_setting           triclinic
_symmetry_space_group_name_H-M   'P -1'
_symmetry_Int_Tables_number      2
_space_group_name_Hall           '-P 1'
loop_
_symmetry_equiv_pos_site_id
_symmetry_equiv_pos_as_xyz
1 x,y,z
2 -x,-y,-z
_cell_length_a                   10.0670(10)
_cell_length_b                   10.4787(11)
_cell_length_c                   14.271(2)
_cell_angle_alpha                106.793(2)
_cell_angle_beta                 104.070(2)
_cell_angle_gamma                104.9350(10)
_cell_volume                     1307.91
loop_
_atom_site_label
_atom_site_type_symbol
_atom_site_fract_x
_atom_site_fract_y
_atom_site_fract_z
Co1 Co 0.10483(3) 0.36100(3) -0.05577(2)
O1 O 0.17713(17) 0.56134(17) 0.04726(13)
O2 O 0.11130(16) 0.74938(17) 0.09731(13)
O3 O 0.68469(17) 0.63089(17) 0.05920(14)
O4 O 0.85761(16) 0.84013(18) 0.14464(13)
O5 O 0.3597(2) 0.1949(2) 0.39201(15)
O6 O -0.1259(2) -0.3553(3) 0.56669(18)
N1 N 0.1152(3) -0.2843(3) 0.58020(18)
H1 H 0.1947 -0.3078 0.5991
N2 N 0.1326(3) 0.0261(2) 0.31881(17)
N3 N 0.0701(2) -0.5615(2) 0.81871(15)
N4 N 0.1445(2) 0.2934(2) 0.07502(15)
C1 C 0.7244(2) 0.7616(2) 0.10985(17)
C2 C 0.6102(3) 0.8241(3) 0.1284(2)
C3 C 0.6462(3) 0.9687(3) 0.1730(3)
H2 H 0.7426 1.0291 0.1939
C4 C 0.5392(4) 1.0247(3) 0.1868(5)
H3 H 0.5637 1.1227 0.2171
C5 C 0.3949(3) 0.9346(3) 0.1557(3)
H4 H 0.3229 0.9728 0.1641
C6 C 0.3584(2) 0.7898(2) 0.1126(2)
C7 C 0.4674(2) 0.7341(2) 0.09818(18)
H5 H 0.4435 0.6361 0.0681
C8 C 0.2044(2) 0.6923(2) 0.08208(16)
C9 C 0.2719(3) 0.3513(3) 0.1530(2)
H6 H 0.3435 0.4281 0.1533
C10 C 0.3045(3) 0.3041(3) 0.2338(2)
H7 H 0.3956 0.3489 0.2865
C11 C 0.2016(3) 0.1907(3) 0.23597(18)
C12 C 0.0693(3) 0.1323(3) 0.1566(2)
H8 H -0.0046 0.0565 0.1552
C13 C 0.0454(3) 0.1854(3) 0.0789(2)
H9 H -0.0454 0.1430 0.0260
C14 C 0.2387(3) 0.1379(3) 0.32289(19)
C15 C 0.1337(3) -0.0458(3) 0.38895(19)
C16 C 0.2602(4) -0.0467(4) 0.4543(3)
C17 C 0.2493(4) -0.1249(4) 0.5166(3)
C18 C 0.1156(3) -0.2025(3) 0.5159(2)
C19 C -0.0112(3) -0.2009(3) 0.4516(2)
H10 H -0.1023 -0.2518 0.4507
C20 C -0.0003(3) -0.1227(3) 0.38877(19)
H11 H -0.0853 -0.1218 0.3454
C21 C 0.1840(3) -0.4722(3) 0.8102(2)
H12 H 0.2776 -0.4548 0.8534
C22 C 0.1696(3) -0.4048(3) 0.7406(2)
H13 H 0.2523 -0.3452 0.7365
C23 C 0.0320(3) -0.4258(3) 0.67684(19)
C24 C -0.0004(3) -0.3518(3) 0.6022(2)
C25 C -0.0860(3) -0.5195(3) 0.6840(2)
H14 H -0.1807 -0.5380 0.6420
C26 C -0.0621(3) -0.5856(3) 0.75417(19)
H15 H -0.1427 -0.6506 0.7565
H16 H 0.351(4) 0.004(3) 0.462(3)
H17 H 0.326(4) -0.131(4) 0.551(3)
H18 H 0.055(3) -0.005(3) 0.274(2)
Co1A Co -0.10483(3) 0.63900(3) 0.05577(2)
Co1_2 Co -0.89517(3) 0.36100(3) -0.05577(2)
Co1_3 Co 0.10483(3) -0.63900(3) 0.94423(2)
Co1A_2 Co -0.10483(3) 1.63900(3) -0.94423(2)
Co1A_3 Co 0.89517(3) 0.63900(3) 0.05577(2)
O1A O -0.17713(17) 0.43866(17) -0.04726(13)
O2A O -0.11130(16) 0.25062(17) -0.09731(13)
O3A O -0.68469(17) 0.36911(17) -0.05920(14)
O3_2 O -0.31531(17) 0.63089(17) 0.05920(14)
O3A_2 O 0.31531(17) 0.36911(17) -0.05920(14)
O4A O -0.85761(16) 0.15987(18) -0.14464(13)
O4_2 O -0.14239(16) 0.84013(18) 0.14464(13)
O4A_2 O 0.14239(16) 0.15987(18) -0.14464(13)
O5A O -0.3597(2) 0.8051(2) -0.39201(15)
O6A O 0.1259(2) 1.3553(3) -0.56669(18)
N1A N -0.1152(3) 1.2843(3) -0.58020(18)
H1A H -0.1947 1.3078 -0.5991
N2A N -0.1326(3) 0.9739(2) -0.31881(17)
N3A N -0.0701(2) 1.5615(2) -0.81871(15)
N3_2 N 0.0701(2) 0.4385(2) -0.18129(15)
N3A_2 N -0.0701(2) 0.5615(2) 0.18129(15)
N4A N -0.1445(2) 0.7066(2) -0.07502(15)
C1A C -0.7244(2) 0.2384(2) -0.10985(17)
C2A C -0.6102(3) 0.1759(3) -0.1284(2)
C3A C -0.6462(3) 0.0313(3) -0.1730(3)
H2A H -0.7426 -0.0291 -0.1939
C4A C -0.5392(4) -0.0247(3) -0.1868(5)
H3A H -0.5637 -0.1227 -0.2171
C5A C -0.3949(3) 0.0654(3) -0.1557(3)
H4A H -0.3229 0.0272 -0.1641
C6A C -0.3584(2) 0.2102(2) -0.1126(2)
C7A C -0.4674(2) 0.2659(2) -0.09818(18)
H5A H -0.4435 0.3639 -0.0681
C8A C -0.2044(2) 0.3077(2) -0.08208(16)
C9A C -0.2719(3) 0.6487(3) -0.1530(2)
H6A H -0.3435 0.5719 -0.1533
C10A C -0.3045(3) 0.6959(3) -0.2338(2)
H7A H -0.3956 0.6511 -0.2865
C11A C -0.2016(3) 0.8093(3) -0.23597(18)
C12A C -0.0693(3) 0.8677(3) -0.1566(2)
H8A H 0.0046 0.9435 -0.1552
C13A C -0.0454(3) 0.8146(3) -0.0789(2)
H9A H 0.0454 0.8570 -0.0260
C14A C -0.2387(3) 0.8621(3) -0.32289(19)
C15A C -0.1337(3) 1.0458(3) -0.38895(19)
C16A C -0.2602(4) 1.0467(4) -0.4543(3)
C17A C -0.2493(4) 1.1249(4) -0.5166(3)
C18A C -0.1156(3) 1.2025(3) -0.5159(2)
C19A C 0.0112(3) 1.2009(3) -0.4516(2)
H10A H 0.1023 1.2518 -0.4507
C20A C 0.0003(3) 1.1227(3) -0.38877(19)
H11A H 0.0853 1.1218 -0.3454
C21A C -0.1840(3) 1.4722(3) -0.8102(2)
H12A H -0.2776 1.4548 -0.8534
C22A C -0.1696(3) 1.4048(3) -0.7406(2)
H13A H -0.2523 1.3452 -0.7365
C23A C -0.0320(3) 1.4258(3) -0.67684(19)
C24A C 0.0004(3) 1.3518(3) -0.6022(2)
C25A C 0.0860(3) 1.5195(3) -0.6840(2)
H14A H 0.1807 1.5380 -0.6420
C26A C 0.0621(3) 1.5856(3) -0.75417(19)
H15A H 0.1427 1.6506 -0.7565
H16A H -0.351(4) 0.996(3) -0.462(3)
H17A H -0.326(4) 1.131(4) -0.551(3)
H18A H -0.055(3) 1.005(3) -0.274(2)
O7 O 0.6368(3) 0.3757(4) 0.4129(3)
H19 H 0.545(7) 0.341(6) 0.434(4)
H20 H 0.663(5) 0.472(5) 0.461(4)
O8 O 0.5451(14) 0.6635(14) 0.3838(11)
loop_
_geom_bond_atom_site_label_1
_geom_bond_atom_site_label_2
_geom_bond_site_symmetry_1
_geom_bond_site_symmetry_2
Co1 O1 1_555 1_555
O1 C8 1_555 1_555
O2 C8 1_555 1_555
O3 C1 1_555 1_555
O4 C1 1_555 1_555
O5 C14 1_555 1_555
O6 C24 1_555 1_555
N1 H1 1_555 1_555
N2 C14 1_555 1_555
N3 C21 1_555 1_555
N4 Co1 1_555 1_555
C1 C2 1_555 1_555
C2 C3 1_555 1_555
C3 H2 1_555 1_555
C4 C3 1_555 1_555
H3 C4 1_555 1_555
C5 C4 1_555 1_555
H4 C5 1_555 1_555
C6 C5 1_555 1_555
C7 C2 1_555 1_555
H5 C7 1_555 1_555
C8 C6 1_555 1_555
C9 N4 1_555 1_555
H6 C9 1_555 1_555
C10 C9 1_555 1_555
H7 C10 1_555 1_555
C11 C10 1_555 1_555
C12 C11 1_555 1_555
H8 C12 1_555 1_555
C13 N4 1_555 1_555
H9 C13 1_555 1_555
C14 C11 1_555 1_555
C15 N2 1_555 1_555
C16 C15 1_555 1_555
C17 C16 1_555 1_555
C18 N1 1_555 1_555
C19 C18 1_555 1_555
H10 C19 1_555 1_555
C20 C15 1_555 1_555
H11 C20 1_555 1_555
C21 H12 1_555 1_555
C22 C21 1_555 1_555
H13 C22 1_555 1_555
C23 C22 1_555 1_555
C24 N1 1_555 1_555
C25 C23 1_555 1_555
H14 C25 1_555 1_555
C26 N3 1_555 1_555
H15 C26 1_555 1_555
O7 H19 1_555 1_555
H16 C16 1_555 1_555
H17 C17 1_555 1_555
H18 N2 1_555 1_555
H20 O7 1_555 1_555
Co1A O2 1_555 1_555
Co1_2 O3A 1_555 1_555
Co1_3 N3 1_555 1_555
Co1A_2 N3A 1_555 1_555
Co1A_3 O3 1_555 1_555
O1A Co1A 1_555 1_555
O2A Co1 1_555 1_555
O3A C1A 1_555 1_555
O3_2 Co1A 1_555 1_555
O3A_2 Co1 1_555 1_555
O4A Co1_2 1_555 1_555
O4_2 Co1A 1_555 1_555
O4A_2 Co1 1_555 1_555
O5A C14A 1_555 1_555
O6A C24A 1_555 1_555
N1A H1A 1_555 1_555
N2A C14A 1_555 1_555
N3A C21A 1_555 1_555
N3_2 Co1 1_555 1_555
N3A_2 Co1A 1_555 1_555
N4A Co1A 1_555 1_555
C1A O4A 1_555 1_555
C2A C1A 1_555 1_555
C3A C2A 1_555 1_555
H2A C3A 1_555 1_555
C4A C3A 1_555 1_555
H3A C4A 1_555 1_555
C5A C4A 1_555 1_555
H4A C5A 1_555 1_555
C6A C5A 1_555 1_555
C7A C2A 1_555 1_555
H5A C7A 1_555 1_555
C8A O1A 1_555 1_555
C9A N4A 1_555 1_555
H6A C9A 1_555 1_555
C10A C9A 1_555 1_555
H7A C10A 1_555 1_555
C11A C10A 1_555 1_555
C12A C11A 1_555 1_555
H8A C12A 1_555 1_555
C13A N4A 1_555 1_555
H9A C13A 1_555 1_555
C14A C11A 1_555 1_555
C15A N2A 1_555 1_555
C16A C15A 1_555 1_555
C17A C16A 1_555 1_555
C18A N1A 1_555 1_555
C19A C18A 1_555 1_555
H10A C19A 1_555 1_555
C20A C15A 1_555 1_555
H11A C20A 1_555 1_555
C21A H12A 1_555 1_555
C22A C21A 1_555 1_555
H13A C22A 1_555 1_555
C23A C22A 1_555 1_555
C24A N1A 1_555 1_555
C25A C23A 1_555 1_555
H14A C25A 1_555 1_555
C26A N3A 1_555 1_555
H15A C26A 1_555 1_555
H16A C16A 1_555 1_555
H17A C17A 1_555 1_555
H18A N2A 1_555 1_555
O4 Co1A_3 1_555 1_555
C6 C7 1_555 1_555
C12 C13 1_555 1_555
C17 C18 1_555 1_555
C19 C20 1_555 1_555
C23 C24 1_555 1_555
C25 C26 1_555 1_555
O2A C8A 1_555 1_555
C6A C7A 1_555 1_555
C6A C8A 1_555 1_555
C12A C13A 1_555 1_555
C17A C18A 1_555 1_555
C19A C20A 1_555 1_555
C23A C24A 1_555 1_555
C25A C26A 1_555 1_555

#END
