
#######################################################################
#
#                 Cambridge Crystallographic Data Centre
#                                CCDC 
#
#######################################################################
#
# If this CIF has been generated from an entry in the Cambridge 
# Structural Database, then it will include bibliographic, chemical, 
# crystal, experimental, refinement or atomic coordinate data resulting 
# from the CCDC's data processing and validation procedures.
#
#######################################################################

data_USEFAA
_symmetry_cell_setting           triclinic
_symmetry_space_group_name_H-M   'P -1'
_symmetry_Int_Tables_number      2
_space_group_name_Hall           '-P 1'
loop_
_symmetry_equiv_pos_site_id
_symmetry_equiv_pos_as_xyz
1 x,y,z
2 -x,-y,-z
_cell_length_a                   8.601(5)
_cell_length_b                   10.064(5)
_cell_length_c                   13.771(5)
_cell_angle_alpha                98.444(5)
_cell_angle_beta                 98.080(5)
_cell_angle_gamma                99.451(5)
_cell_volume                     1146.42
loop_
_atom_site_label
_atom_site_type_symbol
_atom_site_fract_x
_atom_site_fract_y
_atom_site_fract_z
Co1 Co -0.34897(3) 0.38209(2) 0.045835(16)
N1 N 0.69170(18) 1.38127(14) 0.89555(11)
N2 N -0.39324(18) 0.39568(15) 0.19682(11)
N3 N -0.0848(2) 0.68255(17) 0.42608(12)
N4 N 0.4126(2) 1.08460(17) 0.65939(12)
O1 O -0.22522(15) 0.57796(12) 0.08587(9)
O2 O -0.40842(15) 0.66579(12) -0.00017(10)
O3 O -0.34991(15) 1.16604(12) 0.03066(10)
O4 O -0.1683(2) 0.55337(19) 0.53736(11)
O5 O 0.4549(2) 1.24158(16) 0.55773(11)
O6 O -0.12292(16) 1.30147(12) 0.09542(11)
C1 C 0.5899(2) 1.29797(17) 0.82010(13)
H1 H 0.5051 1.2390 0.8353
C2 C 0.6038(2) 1.29458(18) 0.72092(14)
C3 C 0.7279(2) 1.3849(2) 0.69813(14)
H2 H 0.7392 1.3875 0.6322
C4 C 0.8342(2) 1.47057(19) 0.77490(15)
H3 H 0.9189 1.5313 0.7614
C5 C 0.8136(2) 1.46539(18) 0.87202(14)
H4 H 0.8872 1.5225 0.9233
C6 C -0.2767(2) 0.67678(16) 0.05475(12)
C7 C -0.1718(2) 0.81627(16) 0.08580(12)
C8 C -0.0186(2) 0.83364(18) 0.14017(14)
H5 H 0.0208 0.7579 0.1571
C9 C 0.0755(2) 0.96245(19) 0.16922(15)
H6 H 0.1780 0.9730 0.2051
C10 C 0.0170(2) 1.07640(18) 0.14491(14)
H7 H 0.0807 1.1630 0.1644
C11 C -0.1357(2) 1.06100(17) 0.09183(13)
C12 C -0.2292(2) 0.93048(17) 0.06175(13)
H8 H -0.3313 0.9198 0.0251
C13 C -0.2037(2) 1.18388(17) 0.07100(13)
C14 C -0.5213(2) 0.3230(2) 0.22202(15)
H9 H -0.5996 0.2694 0.1717
C15 C -0.5419(3) 0.3241(2) 0.31990(16)
H10 H -0.6314 0.2706 0.3348
C16 C -0.4289(3) 0.4050(2) 0.39477(15)
H11 H -0.4397 0.4056 0.4611
C17 C -0.2987(2) 0.48581(19) 0.37029(14)
C18 C -0.2846(2) 0.47591(19) 0.27077(13)
H12 H -0.1953 0.5275 0.2542
C19 C -0.1784(3) 0.5766(2) 0.45305(14)
C20 C 0.0391(2) 0.7821(2) 0.48749(14)
C21 C 0.0856(3) 0.7855(2) 0.58877(15)
H13 H 0.0343 0.7199 0.6205
C22 C 0.2082(3) 0.8869(2) 0.64196(15)
H14 H 0.2385 0.8888 0.7098
C23 C 0.2875(2) 0.9861(2) 0.59719(14)
C24 C 0.2408(3) 0.9826(2) 0.49615(15)
H15 H 0.2920 1.0483 0.4644
C25 C 0.1184(3) 0.8813(2) 0.44305(15)
H16 H 0.0881 0.8797 0.3753
C26 C 0.4837(2) 1.2041(2) 0.63727(14)
Co1A Co -0.65103(3) 0.61791(2) -0.045835(16)
Co1_2 Co -0.34897(3) 1.38209(2) 0.045835(16)
Co1_3 Co 0.65103(3) 1.38209(2) 1.045835(16)
Co1A_2 Co -1.65103(3) -0.38209(2) -1.045835(16)
Co1A_3 Co -0.65103(3) -0.38209(2) -0.045835(16)
N1A N -1.69170(18) -0.38127(14) -0.89555(11)
N1_2 N -0.30830(18) 0.38127(14) -0.10445(11)
N1A_2 N -0.69170(18) 0.61873(14) 0.10445(11)
N2A N -0.60676(18) 0.60432(15) -0.19682(11)
N3A N -0.9152(2) 0.31745(17) -0.42608(12)
N4A N -1.4126(2) -0.08460(17) -0.65939(12)
O1A O -0.77478(15) 0.42204(12) -0.08587(9)
O2A O -0.59158(15) 0.33421(12) 0.00017(10)
O3A O -0.65009(15) -0.16604(12) -0.03066(10)
O3_2 O -0.34991(15) 0.16604(12) 0.03066(10)
O3A_2 O -0.65009(15) 0.83396(12) -0.03066(10)
O4A O -0.8317(2) 0.44663(19) -0.53736(11)
O5A O -1.4549(2) -0.24158(16) -0.55773(11)
O6A O -0.87708(16) -0.30147(12) -0.09542(11)
O6_2 O -0.12292(16) 0.30147(12) 0.09542(11)
O6A_2 O -0.87708(16) 0.69853(12) -0.09542(11)
C1A C -1.5899(2) -0.29797(17) -0.82010(13)
H1A H -1.5051 -0.2390 -0.8353
C2A C -1.6038(2) -0.29458(18) -0.72092(14)
C3A C -1.7279(2) -0.3849(2) -0.69813(14)
H2A H -1.7392 -0.3875 -0.6322
C4A C -1.8342(2) -0.47057(19) -0.77490(15)
H3A H -1.9189 -0.5313 -0.7614
C5A C -1.8136(2) -0.46539(18) -0.87202(14)
H4A H -1.8872 -0.5225 -0.9233
C6A C -0.7233(2) 0.32322(16) -0.05475(12)
C7A C -0.8282(2) 0.18373(16) -0.08580(12)
C8A C -0.9814(2) 0.16636(18) -0.14017(14)
H5A H -1.0208 0.2421 -0.1571
C9A C -1.0755(2) 0.03755(19) -0.16922(15)
H6A H -1.1780 0.0270 -0.2051
C10A C -1.0170(2) -0.07640(18) -0.14491(14)
H7A H -1.0807 -0.1630 -0.1644
C11A C -0.8643(2) -0.06100(17) -0.09183(13)
C12A C -0.7708(2) 0.06952(17) -0.06175(13)
H8A H -0.6687 0.0802 -0.0251
C13A C -0.7963(2) -0.18388(17) -0.07100(13)
C14A C -0.4787(2) 0.6770(2) -0.22202(15)
H9A H -0.4004 0.7306 -0.1717
C15A C -0.4581(3) 0.6759(2) -0.31990(16)
H10A H -0.3686 0.7294 -0.3348
C16A C -0.5711(3) 0.5950(2) -0.39477(15)
H11A H -0.5603 0.5944 -0.4611
C17A C -0.7013(2) 0.51419(19) -0.37029(14)
C18A C -0.7154(2) 0.52409(19) -0.27077(13)
H12A H -0.8047 0.4725 -0.2542
C19A C -0.8216(3) 0.4234(2) -0.45305(14)
C20A C -1.0391(2) 0.2179(2) -0.48749(14)
C21A C -1.0856(3) 0.2145(2) -0.58877(15)
H13A H -1.0343 0.2801 -0.6205
C22A C -1.2082(3) 0.1131(2) -0.64196(15)
H14A H -1.2385 0.1112 -0.7098
C23A C -1.2875(2) 0.0139(2) -0.59719(14)
C24A C -1.2408(3) 0.0174(2) -0.49615(15)
H15A H -1.2920 -0.0483 -0.4644
C25A C -1.1184(3) 0.1187(2) -0.44305(15)
H16A H -1.0881 0.1203 -0.3753
C26A C -1.4837(2) -0.2041(2) -0.63727(14)
O7 O -0.46581(19) 0.99102(16) -0.15570(12)
loop_
_geom_bond_atom_site_label_1
_geom_bond_atom_site_label_2
_geom_bond_site_symmetry_1
_geom_bond_site_symmetry_2
Co1 N2 1_555 1_555
N1 C1 1_555 1_555
N2 C14 1_555 1_555
N3 C19 1_555 1_555
N4 C23 1_555 1_555
O1 Co1 1_555 1_555
O2 C6 1_555 1_555
O3 C13 1_555 1_555
O4 C19 1_555 1_555
O5 C26 1_555 1_555
O6 C13 1_555 1_555
C1 H1 1_555 1_555
C2 C1 1_555 1_555
C3 C2 1_555 1_555
H2 C3 1_555 1_555
C4 C3 1_555 1_555
H3 C4 1_555 1_555
C5 N1 1_555 1_555
H4 C5 1_555 1_555
C6 O1 1_555 1_555
C7 C6 1_555 1_555
C8 C7 1_555 1_555
H5 C8 1_555 1_555
C9 C8 1_555 1_555
H6 C9 1_555 1_555
C10 C9 1_555 1_555
H7 C10 1_555 1_555
C11 C10 1_555 1_555
C12 C7 1_555 1_555
H8 C12 1_555 1_555
C13 C11 1_555 1_555
C14 H9 1_555 1_555
C15 C14 1_555 1_555
H10 C15 1_555 1_555
C16 C15 1_555 1_555
H11 C16 1_555 1_555
C17 C16 1_555 1_555
C18 N2 1_555 1_555
H12 C18 1_555 1_555
C19 C17 1_555 1_555
C20 N3 1_555 1_555
C21 C20 1_555 1_555
H13 C21 1_555 1_555
C22 C21 1_555 1_555
H14 C22 1_555 1_555
C23 C22 1_555 1_555
C24 C23 1_555 1_555
H15 C24 1_555 1_555
C25 C20 1_555 1_555
H16 C25 1_555 1_555
C26 N4 1_555 1_555
Co1A O2 1_555 1_555
Co1_2 O3 1_555 1_555
Co1_3 N1 1_555 1_555
Co1A_2 N1A 1_555 1_555
Co1A_3 O3A 1_555 1_555
N1A C1A 1_555 1_555
N1_2 Co1 1_555 1_555
N1A_2 Co1A 1_555 1_555
N2A Co1A 1_555 1_555
N3A C19A 1_555 1_555
N4A C23A 1_555 1_555
O1A Co1A 1_555 1_555
O2A Co1 1_555 1_555
O3A C13A 1_555 1_555
O3_2 Co1 1_555 1_555
O3A_2 Co1A 1_555 1_555
O4A C19A 1_555 1_555
O5A C26A 1_555 1_555
O6A Co1A_3 1_555 1_555
O6_2 Co1 1_555 1_555
O6A_2 Co1A 1_555 1_555
C1A H1A 1_555 1_555
C2A C1A 1_555 1_555
C3A C2A 1_555 1_555
H2A C3A 1_555 1_555
C4A C3A 1_555 1_555
H3A C4A 1_555 1_555
C5A N1A 1_555 1_555
H4A C5A 1_555 1_555
C6A O1A 1_555 1_555
C7A C6A 1_555 1_555
C8A C7A 1_555 1_555
H5A C8A 1_555 1_555
C9A C8A 1_555 1_555
H6A C9A 1_555 1_555
C10A C9A 1_555 1_555
H7A C10A 1_555 1_555
C11A C10A 1_555 1_555
C12A C7A 1_555 1_555
H8A C12A 1_555 1_555
C13A O6A 1_555 1_555
C14A N2A 1_555 1_555
H9A C14A 1_555 1_555
C15A C14A 1_555 1_555
H10A C15A 1_555 1_555
C16A C15A 1_555 1_555
H11A C16A 1_555 1_555
C17A C16A 1_555 1_555
C18A N2A 1_555 1_555
H12A C18A 1_555 1_555
C19A C17A 1_555 1_555
C20A N3A 1_555 1_555
C21A C20A 1_555 1_555
H13A C21A 1_555 1_555
C22A C21A 1_555 1_555
H14A C22A 1_555 1_555
C23A C22A 1_555 1_555
C24A C23A 1_555 1_555
H15A C24A 1_555 1_555
C25A C20A 1_555 1_555
H16A C25A 1_555 1_555
C26A N4A 1_555 1_555
O6 Co1_2 1_555 1_555
C2 C26 1_555 1_555
C4 C5 1_555 1_555
C11 C12 1_555 1_555
C17 C18 1_555 1_555
C24 C25 1_555 1_555
O2A C6A 1_555 1_555
C2A C26A 1_555 1_555
C4A C5A 1_555 1_555
C11A C12A 1_555 1_555
C11A C13A 1_555 1_555
C17A C18A 1_555 1_555
C24A C25A 1_555 1_555

#END
