
#######################################################################
#
#                 Cambridge Crystallographic Data Centre
#                                CCDC 
#
#######################################################################
#
# If this CIF has been generated from an entry in the Cambridge 
# Structural Database, then it will include bibliographic, chemical, 
# crystal, experimental, refinement or atomic coordinate data resulting 
# from the CCDC's data processing and validation procedures.
#
#######################################################################

data_USIBOO
_symmetry_cell_setting           monoclinic
_symmetry_space_group_name_H-M   'C 2/c'
_symmetry_Int_Tables_number      15
_space_group_name_Hall           '-C 2yn'
loop_
_symmetry_equiv_pos_site_id
_symmetry_equiv_pos_as_xyz
1 x,y,z
2 -x,y,1/2-z
3 1/2+x,1/2+y,z
4 1/2-x,1/2+y,1/2-z
5 -x,-y,-z
6 x,-y,1/2+z
7 1/2-x,1/2-y,-z
8 1/2+x,1/2-y,1/2+z
_cell_length_a                   20.277(2)
_cell_length_b                   12.1387(15)
_cell_length_c                   13.7788(13)
_cell_angle_alpha                90
_cell_angle_beta                 115.050(7)
_cell_angle_gamma                90
_cell_volume                     3072.46
loop_
_atom_site_label
_atom_site_type_symbol
_atom_site_fract_x
_atom_site_fract_y
_atom_site_fract_z
C1 C 0.65173(10) 0.44096(16) 0.44996(14)
C2 C 0.70516(10) 0.45316(16) 0.56646(14)
C3 C 0.76906(11) 0.39197(17) 0.60740(15)
H1 H 0.7791 0.3430 0.5625
C4 C 0.81837(11) 0.40247(17) 0.71415(16)
H2 H 0.8616 0.3611 0.7414
C5 C 0.80306(11) 0.47441(15) 0.77971(15)
C6 C 0.73930(12) 0.53591(18) 0.74093(16)
H3 H 0.7293 0.5845 0.7862
C7 C 0.69052(12) 0.52447(16) 0.63424(16)
H4 H 0.6471 0.5653 0.6073
C8 C 0.8152(2) 0.3049(3) 0.9463(2)
H5 H 0.8226 0.2690 1.0130
H6 H 0.8310 0.2564 0.9043
H7 H 0.7639 0.3217 0.9062
C9 C 0.85828(14) 0.40899(19) 0.96982(17)
C10 C 0.89903(11) 0.56821(16) 0.94594(14)
C11 C 0.91434(10) 0.66778(15) 0.89844(14)
C12 C 0.90366(15) 0.6743(2) 0.79175(17)
H8 H 0.8843 0.6142 0.7453
C13 C 0.92198(14) 0.7700(2) 0.75566(17)
H9 H 0.9135 0.7736 0.6832
C14 C 0.96251(13) 0.85063(17) 0.91972(16)
H10 H 0.9843 0.9104 0.9655
C15 C 0.94384(13) 0.75926(17) 0.96175(16)
H11 H 0.9512 0.7591 1.0338
Cd1 Cd 0.5000 0.499513(15) 0.2500
N1 N 0.85300(9) 0.48372(13) 0.89171(13)
N2 N 0.90395(11) 0.44410(16) 1.06428(14)
N3 N 0.93002(10) 0.54561(15) 1.04961(13)
N4 N 0.95120(10) 0.85872(14) 0.81702(13)
O1 O 0.59597(8) 0.50241(11) 0.41617(11)
O2 O 0.66652(8) 0.37046(13) 0.39561(11)
O3 O 0.56044(9) 0.35687(13) 0.20400(12)
H12 H 0.5447(16) 0.2965(18) 0.212(2)
H13 H 0.5969(11) 0.362(2) 0.2609(15)
C1A C 0.34827(10) 0.44096(16) 0.05004(14)
C2A C 0.29484(10) 0.45316(16) -0.06646(14)
C3A C 0.23094(11) 0.39197(17) -0.10740(15)
H1A H 0.2209 0.3430 -0.0625
C4A C 0.18163(11) 0.40247(17) -0.21415(16)
H2A H 0.1384 0.3611 -0.2414
C5A C 0.19694(11) 0.47441(15) -0.27971(15)
C6A C 0.26070(12) 0.53591(18) -0.24093(16)
H3A H 0.2707 0.5845 -0.2862
C7A C 0.30948(12) 0.52447(16) -0.13424(16)
H4A H 0.3529 0.5653 -0.1073
C8A C 0.1848(2) 0.3049(3) -0.4463(2)
H5A H 0.1774 0.2690 -0.5130
H6A H 0.1690 0.2564 -0.4043
H7A H 0.2361 0.3217 -0.4062
C9A C 0.14172(14) 0.40899(19) -0.46982(17)
C10A C 0.10097(11) 0.56821(16) -0.44594(14)
C11A C 0.08566(10) 0.66778(15) -0.39844(14)
C12A C 0.09634(15) 0.6743(2) -0.29175(17)
H8A H 0.1157 0.6142 -0.2453
C13A C 0.07802(14) 0.7700(2) -0.25566(17)
H9A H 0.0865 0.7736 -0.1832
C14A C 0.03749(13) 0.85063(17) -0.41972(16)
H10A H 0.0157 0.9104 -0.4655
C15A C 0.05616(13) 0.75926(17) -0.46175(16)
H11A H 0.0488 0.7591 -0.5338
Cd1F Cd 0.0000 1.000487(15) -0.2500
Cd1F_2 Cd 1.0000 1.000487(15) 0.7500
N1A N 0.14700(9) 0.48372(13) -0.39171(13)
N2A N 0.09605(11) 0.44410(16) -0.56428(14)
N3A N 0.06998(10) 0.54561(15) -0.54961(13)
N4A N 0.04880(10) 0.85872(14) -0.31702(13)
N4F N 0.54880(10) 0.64128(14) 0.18298(13)
N4G N 0.45120(10) 0.64128(14) 0.31702(13)
O1A O 0.40403(8) 0.50241(11) 0.08383(11)
O2A O 0.33348(8) 0.37046(13) 0.10439(11)
O3A O 0.43956(9) 0.35687(13) 0.29600(12)
H12A H 0.4553(16) 0.2965(18) 0.288(2)
H13A H 0.4031(11) 0.362(2) 0.2391(15)
O4 O 0.5000 0.16105(17) 0.2500
H14 H 0.4820(14) 0.1217(19) 0.1980(15)
H14A H 0.5180(14) 0.1217(19) 0.3020(15)
loop_
_geom_bond_atom_site_label_1
_geom_bond_atom_site_label_2
_geom_bond_site_symmetry_1
_geom_bond_site_symmetry_2
C1 C2 1_555 1_555
C2 C3 1_555 1_555
C3 H1 1_555 1_555
C4 C3 1_555 1_555
H2 C4 1_555 1_555
C5 C4 1_555 1_555
C6 C5 1_555 1_555
H3 C6 1_555 1_555
C7 C2 1_555 1_555
H4 C7 1_555 1_555
C8 H5 1_555 1_555
H6 C8 1_555 1_555
H7 C8 1_555 1_555
C9 C8 1_555 1_555
C10 C11 1_555 1_555
C11 C12 1_555 1_555
C12 H8 1_555 1_555
C13 C12 1_555 1_555
H9 C13 1_555 1_555
C14 H10 1_555 1_555
C15 C11 1_555 1_555
H11 C15 1_555 1_555
Cd1 O1 1_555 1_555
N1 C5 1_555 1_555
N2 C9 1_555 1_555
N3 C10 1_555 1_555
N4 C13 1_555 1_555
O1 C1 1_555 1_555
O2 C1 1_555 1_555
O3 Cd1 1_555 1_555
O4 H14 1_555 1_555
H12 O3 1_555 1_555
H13 O3 1_555 1_555
C1A C2A 1_555 1_555
C2A C3A 1_555 1_555
C3A H1A 1_555 1_555
C4A C3A 1_555 1_555
H2A C4A 1_555 1_555
C5A C4A 1_555 1_555
C6A C5A 1_555 1_555
H3A C6A 1_555 1_555
C7A C2A 1_555 1_555
H4A C7A 1_555 1_555
C8A H5A 1_555 1_555
H6A C8A 1_555 1_555
H7A C8A 1_555 1_555
C9A C8A 1_555 1_555
C10A C11A 1_555 1_555
C11A C12A 1_555 1_555
C12A H8A 1_555 1_555
C13A C12A 1_555 1_555
H9A C13A 1_555 1_555
C14A H10A 1_555 1_555
C15A C11A 1_555 1_555
H11A C15A 1_555 1_555
Cd1F N4A 1_555 1_555
Cd1F_2 N4 1_555 1_555
N1A C5A 1_555 1_555
N2A C9A 1_555 1_555
N3A C10A 1_555 1_555
N4A C13A 1_555 1_555
N4F Cd1 1_555 1_555
N4G Cd1 1_555 1_555
O1A Cd1 1_555 1_555
O2A C1A 1_555 1_555
O3A Cd1 1_555 1_555
H12A O3A 1_555 1_555
H13A O3A 1_555 1_555
H14A O4 1_555 1_555
C6 C7 1_555 1_555
C9 N1 1_555 1_555
C10 N1 1_555 1_555
C14 C15 1_555 1_555
C14 N4 1_555 1_555
N2 N3 1_555 1_555
C1A O1A 1_555 1_555
C6A C7A 1_555 1_555
C9A N1A 1_555 1_555
C10A N1A 1_555 1_555
C14A C15A 1_555 1_555
C14A N4A 1_555 1_555
N2A N3A 1_555 1_555

#END
