
#######################################################################
#
#                 Cambridge Crystallographic Data Centre
#                                CCDC 
#
#######################################################################
#
# If this CIF has been generated from an entry in the Cambridge 
# Structural Database, then it will include bibliographic, chemical, 
# crystal, experimental, refinement or atomic coordinate data resulting 
# from the CCDC's data processing and validation procedures.
#
#######################################################################

data_USICAB
_symmetry_cell_setting           monoclinic
_symmetry_space_group_name_H-M   'P c'
_symmetry_Int_Tables_number      7
_space_group_name_Hall           'P -2yc'
loop_
_symmetry_equiv_pos_site_id
_symmetry_equiv_pos_as_xyz
1 x,y,z
2 x,-y,1/2+z
_cell_length_a                   7.1497(6)
_cell_length_b                   14.2358(8)
_cell_length_c                   13.8564(11)
_cell_angle_alpha                90
_cell_angle_beta                 97.792(6)
_cell_angle_gamma                90
_cell_volume                     1397.31
loop_
_atom_site_label
_atom_site_type_symbol
_atom_site_fract_x
_atom_site_fract_y
_atom_site_fract_z
C1 C 1.3358(5) -0.6468(2) -0.1028(2)
C2 C 1.1907(4) -0.5776(2) -0.1495(2)
C3 C 1.2491(4) -0.4893(2) -0.1738(2)
H1 H 1.3797 -0.4743 -0.1640
C4 C 1.1197(4) -0.4227(2) -0.2122(3)
H2 H 1.1599 -0.3614 -0.2270
C5 C 0.9307(4) -0.4468(2) -0.2287(2)
C6 C 0.8696(4) -0.5363(2) -0.2087(2)
H3 H 0.7400 -0.5526 -0.2230
C7 C 1.0000(4) -0.6011(2) -0.1677(2)
H4 H 0.9597 -0.6621 -0.1518
C8 C 0.8373(5) -0.4070(3) -0.4436(3)
H5 H 0.9617 -0.3800 -0.4485
H6 H 0.7555 -0.3991 -0.5058
H7 H 0.8508 -0.4741 -0.4282
C9 C 0.7522(4) -0.3585(2) -0.3655(2)
C10 C 0.6983(4) -0.3111(2) -0.2218(2)
C11 C 0.7100(5) -0.2965(3) -0.1169(3)
C12 C 0.7240(6) -0.3704(3) -0.0508(3)
H8 H 0.7249 -0.4327 -0.0752
C13 C 0.7335(8) -0.2693(4) 0.0779(4)
H9 H 0.7461 -0.2590 0.1462
C14 C 0.7132(6) -0.1919(4) 0.0173(3)
H10 H 0.7075 -0.1305 0.0435
C15 C 0.7011(6) -0.2054(3) -0.0822(4)
H11 H 0.6872 -0.1536 -0.1258
C16 C -0.3113(4) 0.1259(2) -0.1083(2)
C17 C -0.1838(4) 0.0788(2) -0.1707(2)
C18 C 0.0107(4) 0.0831(2) -0.1443(2)
H12 H 0.0616 0.1112 -0.0843
C19 C 0.1306(4) 0.0466(2) -0.2055(2)
H13 H 0.2634 0.0483 -0.1871
C20 C 0.0547(4) 0.0078(2) -0.2934(2)
C21 C -0.1390(4) -0.0020(2) -0.3194(2)
H14 H -0.1893 -0.0327 -0.3781
C22 C -0.2565(4) 0.0345(2) -0.2569(2)
H15 H -0.3894 0.0290 -0.2735
C23 C 0.1567(5) -0.1954(2) -0.3339(3)
H16 H 0.2031 -0.2520 -0.3632
H17 H 0.0187 -0.1931 -0.3479
H18 H 0.1946 -0.1968 -0.2632
C24 C 0.2378(4) -0.11120(19) -0.3752(2)
C25 C 0.2830(4) 0.0343(2) -0.4154(2)
C26 C 0.2593(4) 0.1366(2) -0.4299(2)
C27 C 0.2809(6) 0.2025(2) -0.3561(3)
H19 H 0.3085 0.1842 -0.2898
C28 C 0.2608(9) 0.2967(3) -0.3823(4)
H20 H 0.2746 0.3442 -0.3336
C29 C 0.2209(6) 0.3204(3) -0.4789(3)
H21 H 0.2068 0.3851 -0.4952
C30 C 0.2197(5) 0.1679(2) -0.5256(3)
H22 H 0.2054 0.1221 -0.5759
N1 N 0.6307(4) -0.28792(16) -0.3775(2)
N2 N 0.5973(4) -0.25771(19) -0.2858(2)
N3 N 0.7966(4) -0.37633(18) -0.26924(19)
N4 N 0.7365(6) -0.3578(3) 0.0460(2)
N5 N 0.3642(3) -0.10970(16) -0.43614(18)
N6 N 0.3939(3) -0.01666(16) -0.46189(18)
N7 N 0.1835(3) -0.02142(17) -0.35945(18)
N8 N 0.2006(5) 0.2575(3) -0.5514(3)
O1 O 1.2761(4) -0.70998(14) -0.0497(2)
O2 O 1.5031(3) -0.63748(19) -0.1144(2)
O3 O -0.2434(3) 0.15627(18) -0.02576(18)
O4 O -0.4818(3) 0.13743(17) -0.14096(18)
Zn1 Zn 0.50279(3) -0.215050(18) -0.49783(2)
O1A O 0.2761(4) -0.29002(14) -0.5497(2)
O3A O 0.7566(3) -0.15627(18) -0.52576(18)
O4A O 0.5182(3) -0.13743(17) -0.64096(18)
Zn1A Zn 1.50279(3) -0.784950(18) 0.00217(2)
Zn1A_2 Zn -0.49721(3) 0.215050(18) 0.00217(2)
loop_
_geom_bond_atom_site_label_1
_geom_bond_atom_site_label_2
_geom_bond_site_symmetry_1
_geom_bond_site_symmetry_2
C1 C2 1_555 1_555
C2 C3 1_555 1_555
C3 H1 1_555 1_555
C4 C3 1_555 1_555
H2 C4 1_555 1_555
C5 C4 1_555 1_555
C6 C5 1_555 1_555
H3 C6 1_555 1_555
C7 C2 1_555 1_555
H4 C7 1_555 1_555
C8 H5 1_555 1_555
H6 C8 1_555 1_555
H7 C8 1_555 1_555
C9 C8 1_555 1_555
C10 C11 1_555 1_555
C11 C12 1_555 1_555
C12 H8 1_555 1_555
C13 H9 1_555 1_555
C14 C13 1_555 1_555
H10 C14 1_555 1_555
C15 C11 1_555 1_555
H11 C15 1_555 1_555
C16 C17 1_555 1_555
C17 C18 1_555 1_555
C18 H12 1_555 1_555
C19 C18 1_555 1_555
H13 C19 1_555 1_555
C20 C19 1_555 1_555
C21 C20 1_555 1_555
H14 C21 1_555 1_555
C22 C17 1_555 1_555
H15 C22 1_555 1_555
C23 H16 1_555 1_555
H17 C23 1_555 1_555
H18 C23 1_555 1_555
C24 C23 1_555 1_555
C25 C26 1_555 1_555
C26 C27 1_555 1_555
C27 H19 1_555 1_555
C28 C27 1_555 1_555
H20 C28 1_555 1_555
C29 C28 1_555 1_555
H21 C29 1_555 1_555
C30 C26 1_555 1_555
H22 C30 1_555 1_555
N1 C9 1_555 1_555
N2 C10 1_555 1_555
N3 C5 1_555 1_555
N4 C12 1_555 1_555
N5 C24 1_555 1_555
N6 C25 1_555 1_555
N7 C20 1_555 1_555
N8 C29 1_555 1_555
O1 C1 1_555 1_555
O2 C1 1_555 1_555
O3 C16 1_555 1_555
O4 C16 1_555 1_555
Zn1 N1 1_555 1_555
O1A Zn1 1_555 1_555
O3A Zn1 1_555 1_555
O4A Zn1 1_555 1_555
Zn1A O1 1_555 1_555
Zn1A_2 O3 1_555 1_555
C6 C7 1_555 1_555
C9 N3 1_555 1_555
C10 N3 1_555 1_555
C13 N4 1_555 1_555
C14 C15 1_555 1_555
C21 C22 1_555 1_555
C24 N7 1_555 1_555
C25 N7 1_555 1_555
C30 N8 1_555 1_555
N1 N2 1_555 1_555
N5 N6 1_555 1_555
N5 Zn1 1_555 1_555
O4 Zn1A_2 1_555 1_555

#END
