
#######################################################################
#
#                 Cambridge Crystallographic Data Centre
#                                CCDC 
#
#######################################################################
#
# If this CIF has been generated from an entry in the Cambridge 
# Structural Database, then it will include bibliographic, chemical, 
# crystal, experimental, refinement or atomic coordinate data resulting 
# from the CCDC's data processing and validation procedures.
#
#######################################################################

data_USICEF
_symmetry_cell_setting           monoclinic
_symmetry_space_group_name_H-M   'P c'
_symmetry_Int_Tables_number      7
_space_group_name_Hall           'P -2yc'
loop_
_symmetry_equiv_pos_site_id
_symmetry_equiv_pos_as_xyz
1 x,y,z
2 x,-y,1/2+z
_cell_length_a                   7.0375(5)
_cell_length_b                   14.1801(14)
_cell_length_c                   13.9501(10)
_cell_angle_alpha                90
_cell_angle_beta                 96.739(6)
_cell_angle_gamma                90
_cell_volume                     1382.5
loop_
_atom_site_label
_atom_site_type_symbol
_atom_site_fract_x
_atom_site_fract_y
_atom_site_fract_z
C1 C 0.3149(6) -0.6508(2) -0.0893(3)
C2 C 0.1777(5) -0.5804(3) -0.1421(3)
C3 C 0.2423(6) -0.4912(3) -0.1626(3)
H1 H 0.3740 -0.4761 -0.1480
C4 C 0.1160(6) -0.4239(3) -0.2041(3)
H2 H 0.1592 -0.3621 -0.2163
C5 C -0.0742(6) -0.4481(3) -0.2276(3)
C6 C -0.1409(6) -0.5372(3) -0.2104(4)
H3 H -0.2713 -0.5531 -0.2287
C7 C -0.0143(6) -0.6035(3) -0.1660(3)
H4 H -0.0588 -0.6646 -0.1519
C8 C -0.1808(9) -0.4212(4) -0.4413(4)
H5 H -0.0505 -0.4001 -0.4483
H6 H -0.2618 -0.4133 -0.5029
H7 H -0.1785 -0.4878 -0.4226
C9 C -0.2578(6) -0.3649(3) -0.3671(3)
C10 C -0.2933(6) -0.3058(3) -0.2248(3)
C11 C -0.2732(7) -0.2853(3) -0.1200(4)
C12 C -0.2528(8) -0.3546(4) -0.0516(4)
H8 H -0.2529 -0.4185 -0.0722
C13 C -0.2352(8) -0.2467(5) 0.0699(4)
H9 H -0.2189 -0.2326 0.1369
C14 C -0.2602(8) -0.1726(5) 0.0062(5)
H10 H -0.2646 -0.1094 0.0287
C15 C -0.2786(7) -0.1925(4) -0.0914(4)
H11 H -0.2946 -0.1432 -0.1378
C16 C -1.2995(5) 0.1267(3) -0.0976(3)
C17 C -1.1743(5) 0.0785(2) -0.1614(3)
C18 C -0.9767(5) 0.0795(3) -0.1362(3)
H12 H -0.9249 0.1052 -0.0759
C19 C -0.8555(5) 0.0434(3) -0.1981(3)
H13 H -0.7210 0.0432 -0.1802
C20 C -0.9335(5) 0.0073(2) -0.2872(3)
C21 C -1.1305(5) 0.0010(3) -0.3118(3)
H14 H -1.1821 -0.0275 -0.3708
C22 C -1.2494(5) 0.0371(3) -0.2487(3)
H15 H -1.3842 0.0337 -0.2649
C23 C -0.8405(6) -0.1963(3) -0.3307(3)
H16 H -0.7911 -0.2535 -0.3585
H17 H -0.9800 -0.1940 -0.3460
H18 H -0.8072 -0.1968 -0.2605
C24 C -0.7544(5) -0.1119(2) -0.3721(3)
C25 C -0.7021(5) 0.0344(2) -0.4096(3)
C26 C -0.7187(5) 0.1375(3) -0.4215(3)
C27 C -0.6942(6) 0.2018(3) -0.3466(3)
H19 H -0.6694 0.1808 -0.2817
C28 C -0.7064(9) 0.2972(4) -0.3675(4)
H20 H -0.6901 0.3432 -0.3176
C29 C -0.7436(8) 0.3235(3) -0.4643(4)
H21 H -0.7535 0.3889 -0.4789
C30 C -0.7538(6) 0.1718(3) -0.5154(4)
H22 H -0.7700 0.1272 -0.5665
Co1 Co -0.49999(4) -0.22082(3) -0.50001(3)
N1 N -0.3771(5) -0.2928(2) -0.3782(3)
N2 N -0.3969(5) -0.2540(3) -0.2900(3)
N3 N -0.2062(5) -0.3771(2) -0.2700(3)
N4 N -0.2325(7) -0.3364(4) 0.0441(3)
N5 N -0.6277(4) -0.1105(2) -0.4331(2)
N6 N -0.5930(4) -0.0178(2) -0.4581(2)
N7 N -0.8047(4) -0.0219(2) -0.3539(2)
N8 N -0.7660(7) 0.2623(3) -0.5379(3)
O1 O 0.2448(4) -0.7130(2) -0.0417(3)
O2 O 0.4877(4) -0.6450(2) -0.0983(2)
O3 O -1.2320(4) 0.1514(2) -0.0146(2)
O4 O -1.4699(4) 0.1438(2) -0.1296(2)
Co1A Co 0.50001(4) -0.77918(3) -0.00001(3)
Co1A_2 Co -1.49999(4) 0.22082(3) -0.00001(3)
O1A O -0.7552(4) -0.2870(2) -0.5417(3)
O3A O -0.2320(4) -0.1514(2) -0.5146(2)
O4A O -0.4699(4) -0.1438(2) -0.6296(2)
loop_
_geom_bond_atom_site_label_1
_geom_bond_atom_site_label_2
_geom_bond_site_symmetry_1
_geom_bond_site_symmetry_2
C1 C2 1_555 1_555
C2 C3 1_555 1_555
C3 H1 1_555 1_555
C4 C3 1_555 1_555
H2 C4 1_555 1_555
C5 C4 1_555 1_555
C6 C5 1_555 1_555
H3 C6 1_555 1_555
C7 C2 1_555 1_555
H4 C7 1_555 1_555
C8 H5 1_555 1_555
H6 C8 1_555 1_555
H7 C8 1_555 1_555
C9 C8 1_555 1_555
C10 C11 1_555 1_555
C11 C12 1_555 1_555
C12 H8 1_555 1_555
C13 H9 1_555 1_555
C14 C13 1_555 1_555
H10 C14 1_555 1_555
C15 C11 1_555 1_555
H11 C15 1_555 1_555
C16 C17 1_555 1_555
C17 C18 1_555 1_555
C18 H12 1_555 1_555
C19 C18 1_555 1_555
H13 C19 1_555 1_555
C20 C19 1_555 1_555
C21 C20 1_555 1_555
H14 C21 1_555 1_555
C22 C17 1_555 1_555
H15 C22 1_555 1_555
C23 H16 1_555 1_555
H17 C23 1_555 1_555
H18 C23 1_555 1_555
C24 C23 1_555 1_555
C25 C26 1_555 1_555
C26 C27 1_555 1_555
C27 H19 1_555 1_555
C28 C27 1_555 1_555
H20 C28 1_555 1_555
C29 C28 1_555 1_555
H21 C29 1_555 1_555
C30 C26 1_555 1_555
H22 C30 1_555 1_555
Co1 N1 1_555 1_555
N1 C9 1_555 1_555
N2 C10 1_555 1_555
N3 C5 1_555 1_555
N4 C12 1_555 1_555
N5 C24 1_555 1_555
N6 C25 1_555 1_555
N7 C20 1_555 1_555
N8 C29 1_555 1_555
O1 C1 1_555 1_555
O2 C1 1_555 1_555
O3 C16 1_555 1_555
O4 C16 1_555 1_555
Co1A O1 1_555 1_555
Co1A_2 O3 1_555 1_555
O1A Co1 1_555 1_555
O3A Co1 1_555 1_555
O4A Co1 1_555 1_555
C6 C7 1_555 1_555
C9 N3 1_555 1_555
C10 N3 1_555 1_555
C13 N4 1_555 1_555
C14 C15 1_555 1_555
C21 C22 1_555 1_555
C24 N7 1_555 1_555
C25 N7 1_555 1_555
C30 N8 1_555 1_555
Co1 N5 1_555 1_555
N1 N2 1_555 1_555
N5 N6 1_555 1_555
O4 Co1A_2 1_555 1_555

#END
