
#######################################################################
#
#                 Cambridge Crystallographic Data Centre
#                                CCDC 
#
#######################################################################
#
# If this CIF has been generated from an entry in the Cambridge 
# Structural Database, then it will include bibliographic, chemical, 
# crystal, experimental, refinement or atomic coordinate data resulting 
# from the CCDC's data processing and validation procedures.
#
#######################################################################

data_USIHIO
_symmetry_cell_setting           orthorhombic
_symmetry_space_group_name_H-M   'P c c a'
_symmetry_Int_Tables_number      54
_space_group_name_Hall           '-P 2a 2ac'
loop_
_symmetry_equiv_pos_site_id
_symmetry_equiv_pos_as_xyz
1 x,y,z
2 1/2-x,-y,z
3 -x,y,1/2-z
4 1/2+x,-y,1/2-z
5 -x,-y,-z
6 1/2+x,y,-z
7 x,-y,1/2+z
8 1/2-x,y,1/2+z
_cell_length_a                   18.4310(6)
_cell_length_b                   8.4494(2)
_cell_length_c                   16.8376(5)
_cell_angle_alpha                90
_cell_angle_beta                 90
_cell_angle_gamma                90
_cell_volume                     2622.13
loop_
_atom_site_label
_atom_site_type_symbol
_atom_site_fract_x
_atom_site_fract_y
_atom_site_fract_z
H1 H 0.6468(19) 0.020(3) 0.951(3)
Ag1 Ag 0.49083(3) 0.32036(5) 1.00251(2)
O1 O 0.57527(17) 0.1079(4) 1.02201(18)
O2 O 0.5556(3) 0.3562(5) 0.8908(3)
O3 O 0.5641(2) 0.6157(4) 0.8845(2)
N1 N 0.67562(18) -0.0577(4) 0.9463(2)
F1 F 0.5997(4) 0.3359(6) 0.7451(3)
F2 F 0.5951(4) 0.5759(6) 0.7314(3)
F3 F 0.6784(3) 0.4769(11) 0.7894(4)
C1 C 0.7230(2) -0.0666(7) 0.7265(3)
H2 H 0.7485 -0.1669 0.7240
H3 H 0.6924 -0.0585 0.6798
C2 C 0.6756(2) -0.0620(6) 0.8013(2)
H4 H 0.6468 0.0341 0.8014
H5 H 0.6426 -0.1514 0.8010
C3 C 0.72230(19) -0.0678(5) 0.8764(2)
H6 H 0.7484 -0.1687 0.8777
C4 C 0.6671(2) -0.1631(5) 1.0039(2)
C5 C 0.7149(4) -0.3076(7) 1.0053(3)
H7 H 0.7476 -0.3046 0.9610
H8 H 0.6854 -0.4010 1.0021
H9 H 0.7422 -0.3094 1.0539
C6 C 0.6154(2) -0.1408(5) 1.0636(2)
H10 H 0.6088 -0.2219 1.1003
C7 C 0.5727(2) -0.0030(5) 1.0718(2)
C8 C 0.5240(3) 0.0143(6) 1.1434(3)
H11 H 0.4992 0.1140 1.1409
H12 H 0.5528 0.0099 1.1909
H13 H 0.4891 -0.0701 1.1439
C9 C 0.6113(3) 0.4647(7) 0.7811(4)
C10 C 0.5719(2) 0.4812(5) 0.8608(3)
H1A H 0.8532(19) -0.020(3) 0.951(3)
Ag1A Ag 1.00917(3) -0.32036(5) 1.00251(2)
Ag1D Ag 0.50917(3) 0.67964(5) 0.99749(2)
Ag1E Ag 0.99083(3) -0.67964(5) 0.99749(2)
O1A O 0.92473(17) -0.1079(4) 1.02201(18)
O2D O 0.4444(3) 0.6438(5) 1.1092(3)
O2A O 0.9444(3) -0.3562(5) 0.8908(3)
O3D O 0.4359(2) 0.3843(4) 1.1155(2)
O3E O 1.0641(2) -0.3843(4) 1.1155(2)
N1A N 0.82438(18) 0.0577(4) 0.9463(2)
F1D F 0.4003(4) 0.6641(6) 1.2549(3)
F2D F 0.4049(4) 0.4241(6) 1.2686(3)
F3D F 0.3216(3) 0.5231(11) 1.2106(4)
C1A C 0.7770(2) 0.0666(7) 0.7265(3)
H2A H 0.7515 0.1669 0.7240
H3A H 0.8076 0.0585 0.6798
C2A C 0.8244(2) 0.0620(6) 0.8013(2)
H4A H 0.8532 -0.0341 0.8014
H5A H 0.8574 0.1514 0.8010
C3A C 0.77770(19) 0.0678(5) 0.8764(2)
H6A H 0.7516 0.1687 0.8777
C4A C 0.8329(2) 0.1631(5) 1.0039(2)
C5A C 0.7851(4) 0.3076(7) 1.0053(3)
H7A H 0.7524 0.3046 0.9610
H8A H 0.8146 0.4010 1.0021
H9A H 0.7578 0.3094 1.0539
C6A C 0.8846(2) 0.1408(5) 1.0636(2)
H10A H 0.8912 0.2219 1.1003
C7A C 0.9273(2) 0.0030(5) 1.0718(2)
C8A C 0.9760(3) -0.0143(6) 1.1434(3)
H11A H 1.0008 -0.1140 1.1409
H12A H 0.9472 -0.0099 1.1909
H13A H 1.0109 0.0701 1.1439
C9D C 0.3887(3) 0.5353(7) 1.2189(4)
C10D C 0.4281(2) 0.5188(5) 1.1392(3)
loop_
_geom_bond_atom_site_label_1
_geom_bond_atom_site_label_2
_geom_bond_site_symmetry_1
_geom_bond_site_symmetry_2
H1 N1 1_555 1_555
Ag1 O1 1_555 1_555
O1 C7 1_555 1_555
O2 Ag1 1_555 1_555
O3 C10 1_555 1_555
N1 C3 1_555 1_555
F1 C9 1_555 1_555
F2 C9 1_555 1_555
F3 C9 1_555 1_555
C1 H2 1_555 1_555
H3 C1 1_555 1_555
C2 C1 1_555 1_555
H4 C2 1_555 1_555
H5 C2 1_555 1_555
C3 C2 1_555 1_555
H6 C3 1_555 1_555
C4 N1 1_555 1_555
C5 C4 1_555 1_555
H7 C5 1_555 1_555
H8 C5 1_555 1_555
H9 C5 1_555 1_555
C6 C4 1_555 1_555
H10 C6 1_555 1_555
C7 C6 1_555 1_555
C8 C7 1_555 1_555
H11 C8 1_555 1_555
H12 C8 1_555 1_555
H13 C8 1_555 1_555
C9 C10 1_555 1_555
C10 O2 1_555 1_555
H1A N1A 1_555 1_555
Ag1A Ag1E 1_555 1_555
Ag1D Ag1 1_555 1_555
O1A Ag1A 1_555 1_555
O2D Ag1D 1_555 1_555
O2A Ag1A 1_555 1_555
O3D Ag1 1_555 1_555
O3E Ag1A 1_555 1_555
N1A C3A 1_555 1_555
F1D C9D 1_555 1_555
F2D C9D 1_555 1_555
F3D C9D 1_555 1_555
C1A C1 1_555 1_555
H2A C1A 1_555 1_555
H3A C1A 1_555 1_555
C2A C1A 1_555 1_555
H4A C2A 1_555 1_555
H5A C2A 1_555 1_555
C3A C3 1_555 1_555
H6A C3A 1_555 1_555
C4A N1A 1_555 1_555
C5A C4A 1_555 1_555
H7A C5A 1_555 1_555
H8A C5A 1_555 1_555
H9A C5A 1_555 1_555
C6A C4A 1_555 1_555
H10A C6A 1_555 1_555
C7A O1A 1_555 1_555
C8A C7A 1_555 1_555
H11A C8A 1_555 1_555
H12A C8A 1_555 1_555
H13A C8A 1_555 1_555
C9D C10D 1_555 1_555
C10D O2D 1_555 1_555
O3 Ag1D 1_555 1_555
O3D C10D 1_555 1_555
C2A C3A 1_555 1_555
C6A C7A 1_555 1_555

#END
