
#######################################################################
#
#                 Cambridge Crystallographic Data Centre
#                                CCDC 
#
#######################################################################
#
# If this CIF has been generated from an entry in the Cambridge 
# Structural Database, then it will include bibliographic, chemical, 
# crystal, experimental, refinement or atomic coordinate data resulting 
# from the CCDC's data processing and validation procedures.
#
#######################################################################

data_USIHOU
_symmetry_cell_setting           monoclinic
_symmetry_space_group_name_H-M   'C 2/c'
_symmetry_Int_Tables_number      15
_space_group_name_Hall           '-C 2yn'
loop_
_symmetry_equiv_pos_site_id
_symmetry_equiv_pos_as_xyz
1 x,y,z
2 -x,y,1/2-z
3 1/2+x,1/2+y,z
4 1/2-x,1/2+y,1/2-z
5 -x,-y,-z
6 x,-y,1/2+z
7 1/2-x,1/2-y,-z
8 1/2+x,1/2-y,1/2+z
_cell_length_a                   9.0998(6)
_cell_length_b                   15.3611(12)
_cell_length_c                   17.2062(13)
_cell_angle_alpha                90
_cell_angle_beta                 104.624(5)
_cell_angle_gamma                90
_cell_volume                     2327.22
loop_
_atom_site_label
_atom_site_type_symbol
_atom_site_fract_x
_atom_site_fract_y
_atom_site_fract_z
Hg1 Hg 0.18749(2) -0.041978(16) 0.476458(13)
Cl1 Cl -0.08731(15) -0.10477(9) 0.51272(9)
Cl2 Cl 0.1773(2) -0.13648(12) 0.36555(9)
O1 O 0.5907(4) -0.0335(3) 0.5863(3)
N1 N 0.4280(5) 0.0583(3) 0.6651(2)
H1 H 0.499(5) 0.056(4) 0.641(3)
C1 C 0.4262(7) 0.2975(3) 0.7166(3)
H2 H 0.3399 0.2985 0.7401
H3 H 0.4220 0.3492 0.6838
C2 C 0.4178(7) 0.2172(4) 0.6646(3)
H4 H 0.5006 0.2180 0.6385
H5 H 0.3230 0.2174 0.6232
C3 C 0.4276(5) 0.1345(3) 0.7154(3)
H6 H 0.3388 0.1318 0.7378
C4 C 0.3334(5) -0.0076(3) 0.6521(3)
C5 C 0.2026(6) -0.0092(4) 0.6899(3)
H7 H 0.2396 -0.0176 0.7468
H8 H 0.1354 -0.0560 0.6675
H9 H 0.1487 0.0451 0.6798
C6 C 0.3530(6) -0.0782(3) 0.6018(3)
H10 H 0.3199 -0.1327 0.6218
C7 C 0.4948(6) -0.0922(3) 0.5795(3)
C8 C 0.5229(7) -0.1793(4) 0.5475(4)
H11 H 0.6146 -0.1773 0.5296
H12 H 0.4392 -0.1943 0.5032
H13 H 0.5330 -0.2222 0.5891
Hg1D Hg -0.18749(2) 0.041978(16) 0.523542(13)
Hg1A Hg 0.81251(2) -0.041978(16) 1.023542(13)
Cl1D Cl 0.08731(15) 0.10477(9) 0.48728(9)
Cl2D Cl -0.1773(2) 0.13648(12) 0.63445(9)
O1A O 0.4093(4) -0.0335(3) 0.9137(3)
N1A N 0.5720(5) 0.0583(3) 0.8349(2)
H1A H 0.501(5) 0.056(4) 0.859(3)
C1A C 0.5738(7) 0.2975(3) 0.7834(3)
H2A H 0.6601 0.2985 0.7599
H3A H 0.5780 0.3492 0.8162
C2A C 0.5822(7) 0.2172(4) 0.8354(3)
H4A H 0.4994 0.2180 0.8615
H5A H 0.6770 0.2174 0.8768
C3A C 0.5724(5) 0.1345(3) 0.7846(3)
H6A H 0.6612 0.1318 0.7622
C4A C 0.6666(5) -0.0076(3) 0.8479(3)
C5A C 0.7974(6) -0.0092(4) 0.8101(3)
H7A H 0.7604 -0.0176 0.7532
H8A H 0.8646 -0.0560 0.8325
H9A H 0.8513 0.0451 0.8202
C6A C 0.6470(6) -0.0782(3) 0.8982(3)
C6D C -0.3530(6) 0.0782(3) 0.3982(3)
H10A H 0.6801 -0.1327 0.8782
H10D H -0.3199 0.1327 0.3782
C7A C 0.5052(6) -0.0922(3) 0.9205(3)
C8A C 0.4771(7) -0.1793(4) 0.9525(4)
H11A H 0.3854 -0.1773 0.9704
H12A H 0.5608 -0.1943 0.9968
H13A H 0.4670 -0.2222 0.9109
loop_
_geom_bond_atom_site_label_1
_geom_bond_atom_site_label_2
_geom_bond_site_symmetry_1
_geom_bond_site_symmetry_2
Hg1 Cl1 1_555 1_555
Cl1 Hg1D 1_555 1_555
Cl2 Hg1 1_555 1_555
O1 C7 1_555 1_555
N1 H1 1_555 1_555
C1 H2 1_555 1_555
H3 C1 1_555 1_555
C2 C1 1_555 1_555
H4 C2 1_555 1_555
H5 C2 1_555 1_555
C3 N1 1_555 1_555
H6 C3 1_555 1_555
C4 N1 1_555 1_555
C5 C4 1_555 1_555
H7 C5 1_555 1_555
H8 C5 1_555 1_555
H9 C5 1_555 1_555
C6 Hg1 1_555 1_555
H10 C6 1_555 1_555
C7 C6 1_555 1_555
C8 C7 1_555 1_555
H11 C8 1_555 1_555
H12 C8 1_555 1_555
H13 C8 1_555 1_555
Hg1D Cl1D 1_555 1_555
Hg1A C6A 1_555 1_555
Cl1D Hg1 1_555 1_555
Cl2D Hg1D 1_555 1_555
O1A C7A 1_555 1_555
N1A H1A 1_555 1_555
C1A C1 1_555 1_555
H2A C1A 1_555 1_555
H3A C1A 1_555 1_555
C2A C1A 1_555 1_555
H4A C2A 1_555 1_555
H5A C2A 1_555 1_555
C3A C3 1_555 1_555
H6A C3A 1_555 1_555
C4A N1A 1_555 1_555
C5A C4A 1_555 1_555
H7A C5A 1_555 1_555
H8A C5A 1_555 1_555
H9A C5A 1_555 1_555
C6A C4A 1_555 1_555
C6D Hg1D 1_555 1_555
H10A C6A 1_555 1_555
H10D C6D 1_555 1_555
C7A C6A 1_555 1_555
C8A C7A 1_555 1_555
H11A C8A 1_555 1_555
H12A C8A 1_555 1_555
H13A C8A 1_555 1_555
C2 C3 1_555 1_555
C4 C6 1_555 1_555
N1A C3A 1_555 1_555
C2A C3A 1_555 1_555

#END
