
#######################################################################
#
#                 Cambridge Crystallographic Data Centre
#                                CCDC 
#
#######################################################################
#
# If this CIF has been generated from an entry in the Cambridge 
# Structural Database, then it will include bibliographic, chemical, 
# crystal, experimental, refinement or atomic coordinate data resulting 
# from the CCDC's data processing and validation procedures.
#
#######################################################################

data_USISEV
_symmetry_cell_setting           monoclinic
_symmetry_space_group_name_H-M   'C 2/c'
_symmetry_Int_Tables_number      15
_space_group_name_Hall           '-C 2yn'
loop_
_symmetry_equiv_pos_site_id
_symmetry_equiv_pos_as_xyz
1 x,y,z
2 -x,y,1/2-z
3 1/2+x,1/2+y,z
4 1/2-x,1/2+y,1/2-z
5 -x,-y,-z
6 x,-y,1/2+z
7 1/2-x,1/2-y,-z
8 1/2+x,1/2-y,1/2+z
_cell_length_a                   36.876(5)
_cell_length_b                   36.814(5)
_cell_length_c                   22.468(3)
_cell_angle_alpha                90
_cell_angle_beta                 92.009(2)
_cell_angle_gamma                90
_cell_volume                     30482.8
loop_
_atom_site_label
_atom_site_type_symbol
_atom_site_fract_x
_atom_site_fract_y
_atom_site_fract_z
Ir1 Ir -0.349700(17) 0.320440(17) -0.31918(3)
Ir2 Ir -0.104710(19) 0.37374(2) -0.27882(3)
Ir3 Ir -0.18331(2) 0.60139(2) -0.40569(3)
Ir4 Ir -0.381610(18) 0.553540(19) -0.17771(3)
Ag1 Ag -0.20550(11) 0.45604(9) -0.57131(16)
N1 N -0.1499(4) 0.3388(3) -0.2803(6)
N2 N -0.1428(4) 0.5608(4) -0.3940(6)
N3 N -0.3450(3) 0.5873(3) -0.2170(5)
N4 N -0.3790(3) 0.3646(3) -0.2886(6)
N5 N -0.2396(9) 0.5182(10) -0.6456(13)
O1 O -0.3088(2) 0.3595(2) -0.3128(5)
O2 O -0.3361(3) 0.3126(3) -0.2311(5)
O3 O -0.2743(4) 0.3399(3) -0.0847(5)
H1 H -0.2643 0.3564 -0.1041
O4 O -0.1885(4) 0.3428(4) -0.1017(6)
O5 O -0.1450(3) 0.4130(3) -0.2900(5)
O6 O -0.1092(3) 0.3708(3) -0.3691(6)
O7 O -0.1502(4) 0.4091(4) -0.5268(6)
H2 H -0.1610 0.4278 -0.5397
O8 O -0.1468(6) 0.4888(5) -0.5586(8)
O9 O -0.2147(3) 0.5628(3) -0.3636(4)
O10 O -0.1668(3) 0.6156(3) -0.3208(5)
O11 O -0.1738(4) 0.5940(3) -0.1449(6)
H3 H -0.1603 0.5974 -0.1146
O12 O -0.2483(4) 0.5936(4) -0.0873(6)
O13 O -0.3483(3) 0.5141(3) -0.2108(4)
O14 O -0.4061(3) 0.5528(3) -0.2615(6)
O15 O -0.4013(3) 0.5162(3) -0.4283(6)
H4 H -0.4042 0.5370 -0.4428
O16 O -0.3973(4) 0.4332(4) -0.4520(5)
O17 O -0.2160(9) 0.4937(9) -0.6564(12)
O18 O -0.2582(7) 0.5195(8) -0.6073(16)
O19 O -0.2439(7) 0.5447(6) -0.6789(10)
O37 O -0.2268(7) 0.4826(12) -0.4885(18)
C1 C -0.2555(4) 0.3892(4) -0.2855(7)
H5 H -0.2332 0.3799 -0.3024
H6 H -0.2498 0.4008 -0.2471
H7 H -0.2667 0.4071 -0.3128
C2 C -0.2806(4) 0.3594(4) -0.2772(6)
C3 C -0.2740(4) 0.3349(4) -0.2291(6)
C4 C -0.3041(4) 0.3149(4) -0.2070(8)
C5 C -0.2997(4) 0.2938(4) -0.1494(7)
H8 H -0.2972 0.2677 -0.1589
H9 H -0.3220 0.2969 -0.1266
C6 C -0.2656(5) 0.3060(5) -0.1086(7)
C7 C -0.2353(4) 0.3054(4) -0.1477(6)
H10 H -0.2337 0.2805 -0.1655
C8 C -0.2379(5) 0.3336(5) -0.1995(8)
H11 H -0.2331 0.3581 -0.1817
C9 C -0.1767(4) 0.3457(4) -0.2444(6)
H12 H -0.1739 0.3660 -0.2184
C10 C -0.2084(4) 0.3260(4) -0.2413(6)
C11 C -0.2109(6) 0.2954(5) -0.2824(9)
H13 H -0.2316 0.2801 -0.2832
C12 C -0.1841(5) 0.2890(5) -0.3186(7)
H14 H -0.1861 0.2695 -0.3462
C13 C -0.1534(4) 0.3101(4) -0.3167(7)
H15 H -0.1341 0.3043 -0.3419
C14 C -0.2657(5) 0.2779(4) -0.0573(7)
H16 H -0.2509 0.2870 -0.0234
H17 H -0.2556 0.2549 -0.0710
H18 H -0.2906 0.2740 -0.0450
C15 C -0.1991(5) 0.3132(6) -0.1124(8)
C16 C -0.1782(8) 0.2796(7) -0.0929(12)
H19 H -0.1712 0.2659 -0.1281
H20 H -0.1935 0.2644 -0.0683
H21 H -0.1564 0.2868 -0.0697
C17 C -0.1812(5) 0.4593(5) -0.3296(9)
H22 H -0.1954 0.4530 -0.2950
H23 H -0.1969 0.4583 -0.3657
H24 H -0.1714 0.4839 -0.3246
C18 C -0.1505(4) 0.4327(5) -0.3348(8)
C19 C -0.1307(4) 0.4306(4) -0.3891(7)
C20 C -0.1139(5) 0.3988(5) -0.4053(8)
C21 C -0.0986(6) 0.3915(5) -0.4640(8)
H25 H -0.1047 0.3663 -0.4760
H26 H -0.0718 0.3932 -0.4602
C22 C -0.1124(6) 0.4177(6) -0.5136(8)
C23 C -0.1098(5) 0.4567(5) -0.4873(9)
H27 H -0.0843 0.4602 -0.4718
C24 C -0.1342(5) 0.4617(5) -0.4357(7)
H28 H -0.1598 0.4618 -0.4519
C25 C -0.1504(5) 0.5267(5) -0.4153(7)
H29 H -0.1729 0.5226 -0.4360
C26 C -0.1268(4) 0.4985(5) -0.4079(7)
C27 C -0.0924(5) 0.5045(5) -0.3793(7)
H30 H -0.0746 0.4860 -0.3747
C28 C -0.0867(5) 0.5412(6) -0.3578(8)
H31 H -0.0647 0.5466 -0.3364
C29 C -0.1105(5) 0.5671(5) -0.3666(8)
H32 H -0.1048 0.5910 -0.3533
C30 C -0.0879(7) 0.4124(5) -0.5688(9)
H33 H -0.0915 0.3879 -0.5850
H34 H -0.0624 0.4157 -0.5564
H35 H -0.0946 0.4303 -0.5995
C31 C -0.1164(7) 0.4836(6) -0.5351(9)
C32 C -0.0880(9) 0.5063(8) -0.5544(16)
H36 H -0.0906 0.5099 -0.5976
H37 H -0.0646 0.4948 -0.5447
H38 H -0.0892 0.5299 -0.5343
C33 C -0.2507(5) 0.5333(4) -0.2940(7)
H39 H -0.2651 0.5408 -0.2603
H40 H -0.2353 0.5126 -0.2823
H41 H -0.2670 0.5262 -0.3274
C34 C -0.2268(4) 0.5649(4) -0.3130(8)
C35 C -0.2177(4) 0.5939(4) -0.2690(7)
C36 C -0.1870(4) 0.6149(5) -0.2747(8)
C37 C -0.1732(5) 0.6377(4) -0.2253(7)
H42 H -0.1794 0.6634 -0.2342
H43 H -0.1464 0.6358 -0.2228
C38 C -0.1882(5) 0.6276(4) -0.1650(8)
C39 C -0.2292(4) 0.6267(4) -0.1712(7)
H44 H -0.2376 0.6501 -0.1897
C40 C -0.2414(4) 0.5952(4) -0.2133(6)
H45 H -0.2389 0.5717 -0.1913
C41 C -0.3079(4) 0.5817(4) -0.2055(7)
H46 H -0.3009 0.5628 -0.1785
C42 C -0.2809(5) 0.6014(4) -0.2302(7)
C43 C -0.2908(5) 0.6273(4) -0.2728(8)
H47 H -0.2727 0.6388 -0.2951
C44 C -0.3262(4) 0.6361(4) -0.2825(7)
H48 H -0.3332 0.6565 -0.3062
C45 C -0.3528(5) 0.6135(4) -0.2558(7)
H49 H -0.3776 0.6176 -0.2666
C46 C -0.1770(6) 0.6581(5) -0.1194(9)
H50 H -0.1902 0.6548 -0.0827
H51 H -0.1830 0.6820 -0.1366
H52 H -0.1509 0.6568 -0.1104
C47 C -0.2459(5) 0.6232(4) -0.1139(7)
C48 C -0.2653(6) 0.6551(5) -0.0878(10)
H53 H -0.2895 0.6575 -0.1071
H54 H -0.2514 0.6773 -0.0942
H55 H -0.2679 0.6513 -0.0449
C49 C -0.3252(4) 0.4681(5) -0.2667(8)
H56 H -0.3055 0.4720 -0.2370
H57 H -0.3162 0.4723 -0.3066
H58 H -0.3341 0.4431 -0.2637
C50 C -0.3545(4) 0.4932(4) -0.2560(6)
C51 C -0.3852(5) 0.4955(5) -0.2943(8)
C52 C -0.4090(4) 0.5244(5) -0.2956(8)
C53 C -0.4377(4) 0.5287(5) -0.3432(8)
H59 H -0.4394 0.5547 -0.3543
H60 H -0.4613 0.5216 -0.3269
C54 C -0.4315(5) 0.5063(4) -0.3993(8)
C55 C -0.4277(5) 0.4657(4) -0.3788(6)
H61 H -0.4493 0.4594 -0.3552
C56 C -0.3924(4) 0.4632(4) -0.3359(6)
H62 H -0.3710 0.4607 -0.3617
C57 C -0.3781(4) 0.3956(4) -0.3187(6)
H63 H -0.3646 0.3964 -0.3539
C58 C -0.3961(4) 0.4271(4) -0.3011(7)
C59 C -0.4166(4) 0.4242(5) -0.2507(7)
H64 H -0.4296 0.4445 -0.2368
C60 C -0.4178(5) 0.3924(5) -0.2219(8)
H65 H -0.4315 0.3908 -0.1869
C61 C -0.4008(5) 0.3633(5) -0.2406(7)
H66 H -0.4037 0.3410 -0.2202
C62 C -0.4674(4) 0.5078(5) -0.4405(8)
H67 H -0.4724 0.5330 -0.4522
H68 H -0.4878 0.4983 -0.4185
H69 H -0.4641 0.4930 -0.4762
C63 C -0.4253(5) 0.4390(4) -0.4289(7)
C64 C -0.4597(6) 0.4229(6) -0.4491(11)
H70 H -0.4554 0.3986 -0.4650
H71 H -0.4710 0.4382 -0.4804
H72 H -0.4759 0.4212 -0.4156
C65 C -0.3279(5) 0.2768(4) -0.3717(8)
C66 C -0.3592(5) 0.2636(5) -0.3367(7)
C67 C -0.3912(5) 0.2838(5) -0.3512(9)
C68 C -0.3796(5) 0.3093(4) -0.4006(8)
C69 C -0.3441(5) 0.3044(5) -0.4094(8)
C70 C -0.2923(5) 0.2613(5) -0.3675(8)
H73 H -0.2860 0.2515 -0.4064
H74 H -0.2918 0.2417 -0.3381
H75 H -0.2747 0.2800 -0.3553
C71 C -0.3587(5) 0.2369(6) -0.2909(9)
H76 H -0.3728 0.2456 -0.2575
H77 H -0.3336 0.2323 -0.2771
H78 H -0.3695 0.2143 -0.3065
C72 C -0.4258(6) 0.2796(7) -0.3364(12)
H79 H -0.4373 0.2611 -0.3621
H80 H -0.4387 0.3027 -0.3417
H81 H -0.4267 0.2719 -0.2947
C73 C -0.4066(5) 0.3351(5) -0.4318(10)
H82 H -0.3941 0.3494 -0.4617
H83 H -0.4168 0.3515 -0.4024
H84 H -0.4261 0.3211 -0.4514
C74 C -0.3212(6) 0.3252(5) -0.4526(9)
H85 H -0.3228 0.3134 -0.4917
H86 H -0.2959 0.3255 -0.4378
H87 H -0.3302 0.3502 -0.4562
C75 C -0.0596(7) 0.3403(6) -0.2484(10)
C76 C -0.0474(6) 0.3743(9) -0.2774(10)
C77 C -0.0587(6) 0.4027(8) -0.2465(11)
C78 C -0.0786(5) 0.3907(7) -0.1955(9)
C79 C -0.0804(5) 0.3525(8) -0.1977(10)
C80 C -0.0537(12) 0.3062(11) -0.262(2)
H88 H -0.0314 0.2979 -0.2413
H89 H -0.0512 0.3040 -0.3051
H90 H -0.0742 0.2914 -0.2497
C81 C -0.0262(7) 0.3781(15) -0.3295(16)
H91 H -0.0384 0.3949 -0.3575
H92 H -0.0236 0.3543 -0.3485
H93 H -0.0021 0.3876 -0.3181
C82 C -0.0533(9) 0.4423(7) -0.2604(18)
H94 H -0.0448 0.4448 -0.3011
H95 H -0.0351 0.4526 -0.2322
H96 H -0.0763 0.4553 -0.2570
C83 C -0.0966(9) 0.4156(11) -0.1506(16)
H97 H -0.1194 0.4251 -0.1682
H98 H -0.0803 0.4358 -0.1403
H99 H -0.1017 0.4018 -0.1145
C84 C -0.0956(8) 0.3307(9) -0.1547(12)
H100 H -0.0762 0.3193 -0.1303
H101 H -0.1105 0.3118 -0.1743
H102 H -0.1108 0.3455 -0.1294
C85 C -0.2201(5) 0.6423(5) -0.4428(8)
C86 C -0.1837(6) 0.6558(6) -0.4404(9)
C87 C -0.1610(6) 0.6333(6) -0.4754(12)
C88 C -0.1848(7) 0.6060(7) -0.4983(11)
C89 C -0.2216(10) 0.6104(8) -0.4833(11)
C90 C -0.2544(6) 0.6564(8) -0.4153(12)
H103 H -0.2480 0.6754 -0.3863
H104 H -0.2665 0.6364 -0.3951
H105 H -0.2706 0.6664 -0.4465
C91 C -0.1743(11) 0.6884(7) -0.3996(16)
H106 H -0.1910 0.6890 -0.3666
H107 H -0.1766 0.7110 -0.4225
H108 H -0.1494 0.6859 -0.3837
C92 C -0.1223(8) 0.6383(10) -0.4884(14)
H109 H -0.1196 0.6394 -0.5316
H110 H -0.1082 0.6178 -0.4720
H111 H -0.1134 0.6610 -0.4703
C93 C -0.1776(10) 0.5754(8) -0.5441(11)
H112 H -0.1973 0.5750 -0.5745
H113 H -0.1764 0.5519 -0.5236
H114 H -0.1545 0.5800 -0.5631
C94 C -0.2525(7) 0.5862(8) -0.4963(11)
H115 H -0.2511 0.5767 -0.5370
H116 H -0.2752 0.5997 -0.4926
H117 H -0.2519 0.5659 -0.4681
C95 C -0.4141(5) 0.5255(6) -0.1146(9)
C96 C -0.3778(5) 0.5365(5) -0.0859(9)
C97 C -0.3776(4) 0.5754(5) -0.0914(8)
C98 C -0.4117(5) 0.5895(5) -0.1236(9)
C99 C -0.4323(5) 0.5577(6) -0.1320(9)
C100 C -0.4279(7) 0.4888(6) -0.1161(10)
H118 H -0.4362 0.4821 -0.0766
H119 H -0.4086 0.4722 -0.1275
H120 H -0.4482 0.4872 -0.1452
C101 C -0.3507(6) 0.5132(6) -0.0606(9)
H121 H -0.3309 0.5279 -0.0432
H122 H -0.3414 0.4974 -0.0916
H123 H -0.3613 0.4984 -0.0294
C102 C -0.3474(6) 0.5985(6) -0.0670(10)
H124 H -0.3248 0.5845 -0.0657
H125 H -0.3530 0.6064 -0.0267
H126 H -0.3447 0.6198 -0.0926
C103 C -0.4201(7) 0.6293(6) -0.1316(12)
H127 H -0.4403 0.6322 -0.1609
H128 H -0.3987 0.6419 -0.1458
H129 H -0.4269 0.6397 -0.0935
C104 C -0.4680(6) 0.5611(7) -0.1665(11)
H130 H -0.4785 0.5369 -0.1731
H131 H -0.4640 0.5727 -0.2050
H132 H -0.4848 0.5759 -0.1438
Ag1E Ag -0.20550(11) 0.54396(9) -0.07131(16)
O12E O -0.2483(4) 0.4064(4) -0.5873(6)
Ag2 Ag -0.16203(6) 0.21308(6) -0.26950(10)
N6 N -0.2378(5) 0.2132(4) -0.2338(9)
N7 N -0.1329(10) 0.2083(7) -0.3880(14)
N8 N -0.1083(17) 0.2164(18) -0.183(3)
O20 O -0.2285(3) 0.2070(3) -0.2886(7)
O21 O -0.2138(4) 0.2164(4) -0.1921(7)
O22 O -0.2696(5) 0.2133(4) -0.2220(7)
O23 O -0.1529(9) 0.1874(9) -0.3614(18)
O24 O -0.1232(10) 0.2345(7) -0.3620(14)
O25 O -0.1196(7) 0.2010(5) -0.4351(11)
O26 O -0.1218(9) 0.2417(9) -0.1936(15)
O27 O -0.1021(9) 0.1880(9) -0.2211(17)
O28 O -0.0701(16) 0.2261(15) -0.165(3)
Ag3 Ag -0.5000 0.62508(11) -0.7500
N9 N -0.5000 0.5456(6) -0.7500
N10 N -0.487(2) 0.668(3) -0.632(2)
O29 O -0.4983(4) 0.5633(4) -0.7022(6)
O30 O -0.5000 0.5103(9) -0.7500
O31 O -0.5119(10) 0.6458(11) -0.6494(18)
O32 O -0.4767(12) 0.6771(12) -0.684(2)
O33 O -0.4827(15) 0.6795(15) -0.579(2)
N10A N -0.513(2) 0.668(3) -0.868(2)
O29A O -0.5017(4) 0.5633(4) -0.7978(6)
O31A O -0.4881(10) 0.6458(11) -0.8506(18)
O32A O -0.5233(12) 0.6771(12) -0.816(2)
O33A O -0.5173(15) 0.6795(15) -0.921(2)
N11 N -0.7091(7) 0.8735(9) -0.4356(14)
O34 O -0.6841(6) 0.8615(6) -0.4680(11)
O35 O -0.7332(11) 0.8508(12) -0.420(2)
O36 O -0.707(2) 0.9048(14) -0.414(5)
O38 O -0.4097(10) 0.5853(11) -0.4780(19)
C105 C -0.4191(12) 0.6012(12) -0.535(2)
O39 O -0.7233(7) 0.5334(6) -0.5861(15)
C106 C -0.7036(9) 0.5668(9) -0.5618(15)
O40 O -0.2926(5) 0.4035(4) -0.1457(6)
C107 C -0.3276(8) 0.4098(9) -0.1273(18)
O41 O -0.2277(10) 0.2814(10) -0.4871(18)
C108 C -0.1906(11) 0.2770(13) -0.469(2)
O42 O -0.1243(10) 0.4436(7) -0.7106(11)
C109 C -0.1432(13) 0.4755(11) -0.7223(15)
O43 O -0.3281(5) 0.5214(6) -0.4041(8)
C110 C -0.3267(8) 0.5575(7) -0.3919(19)
O44 O -0.9639(3) 0.4788(4) -0.4974(6)
O45 O -0.4012(11) 0.7277(11) -0.627(2)
O46 O -0.0344(7) 0.4682(7) -0.7034(11)
O47 O -0.1185(5) 0.2607(4) -0.4709(9)
O48 O -0.0274(8) 0.1177(8) -0.0842(18)
loop_
_geom_bond_atom_site_label_1
_geom_bond_atom_site_label_2
_geom_bond_site_symmetry_1
_geom_bond_site_symmetry_2
Ir1 N4 1_555 1_555
Ir2 N1 1_555 1_555
Ir3 N2 1_555 1_555
Ir4 N3 1_555 1_555
Ag1 O8 1_555 1_555
Ag2 O20 1_555 1_555
Ag3 O29 1_555 1_555
N1 C9 1_555 1_555
N2 C25 1_555 1_555
N3 C41 1_555 1_555
N4 C57 1_555 1_555
N5 O17 1_555 1_555
N6 O20 1_555 1_555
N7 O23 1_555 1_555
N8 O26 1_555 1_555
N9 O29 1_555 1_555
N10 O31 1_555 1_555
N11 O34 1_555 1_555
O1 Ir1 1_555 1_555
O2 Ir1 1_555 1_555
O3 H1 1_555 1_555
O4 C15 1_555 1_555
O5 Ir2 1_555 1_555
O6 Ir2 1_555 1_555
O7 H2 1_555 1_555
O8 C31 1_555 1_555
O9 Ir3 1_555 1_555
O10 Ir3 1_555 1_555
O11 H3 1_555 1_555
O12 C47 1_555 1_555
O13 Ir4 1_555 1_555
O14 Ir4 1_555 1_555
O15 H4 1_555 1_555
O16 C63 1_555 1_555
O17 Ag1 1_555 1_555
O18 N5 1_555 1_555
O19 N5 1_555 1_555
O21 Ag2 1_555 1_555
O22 N6 1_555 1_555
O23 Ag2 1_555 1_555
O24 Ag2 1_555 1_555
O25 N7 1_555 1_555
O26 Ag2 1_555 1_555
O27 Ag2 1_555 1_555
O28 N8 1_555 1_555
O30 N9 1_555 1_555
O31 Ag3 1_555 1_555
O32 Ag3 1_555 1_555
O33 N10 1_555 1_555
O35 N11 1_555 1_555
O36 N11 1_555 1_555
O37 Ag1 1_555 1_555
C1 H5 1_555 1_555
H6 C1 1_555 1_555
H7 C1 1_555 1_555
C2 O1 1_555 1_555
C3 C2 1_555 1_555
C4 O2 1_555 1_555
C5 C4 1_555 1_555
H8 C5 1_555 1_555
H9 C5 1_555 1_555
C6 O3 1_555 1_555
C7 C6 1_555 1_555
H10 C7 1_555 1_555
C8 C3 1_555 1_555
H11 C8 1_555 1_555
C9 H12 1_555 1_555
C10 C8 1_555 1_555
C11 C10 1_555 1_555
H13 C11 1_555 1_555
C12 C11 1_555 1_555
H14 C12 1_555 1_555
C13 N1 1_555 1_555
H15 C13 1_555 1_555
C14 C6 1_555 1_555
H16 C14 1_555 1_555
H17 C14 1_555 1_555
H18 C14 1_555 1_555
C15 C7 1_555 1_555
C16 C15 1_555 1_555
H19 C16 1_555 1_555
H20 C16 1_555 1_555
H21 C16 1_555 1_555
C17 H22 1_555 1_555
H23 C17 1_555 1_555
H24 C17 1_555 1_555
C18 O5 1_555 1_555
C19 C18 1_555 1_555
C20 O6 1_555 1_555
C21 C20 1_555 1_555
H25 C21 1_555 1_555
H26 C21 1_555 1_555
C22 O7 1_555 1_555
C23 C22 1_555 1_555
H27 C23 1_555 1_555
C24 C19 1_555 1_555
H28 C24 1_555 1_555
C25 H29 1_555 1_555
C26 C24 1_555 1_555
C27 C26 1_555 1_555
H30 C27 1_555 1_555
C28 C27 1_555 1_555
H31 C28 1_555 1_555
C29 N2 1_555 1_555
H32 C29 1_555 1_555
C30 C22 1_555 1_555
H33 C30 1_555 1_555
H34 C30 1_555 1_555
H35 C30 1_555 1_555
C31 C23 1_555 1_555
C32 C31 1_555 1_555
H36 C32 1_555 1_555
H37 C32 1_555 1_555
H38 C32 1_555 1_555
C33 H39 1_555 1_555
H40 C33 1_555 1_555
H41 C33 1_555 1_555
C34 O9 1_555 1_555
C35 C34 1_555 1_555
C36 O10 1_555 1_555
C37 C36 1_555 1_555
H42 C37 1_555 1_555
H43 C37 1_555 1_555
C38 O11 1_555 1_555
C39 C38 1_555 1_555
H44 C39 1_555 1_555
C40 C35 1_555 1_555
H45 C40 1_555 1_555
C41 H46 1_555 1_555
C42 C40 1_555 1_555
C43 C42 1_555 1_555
H47 C43 1_555 1_555
C44 C43 1_555 1_555
H48 C44 1_555 1_555
C45 N3 1_555 1_555
H49 C45 1_555 1_555
C46 C38 1_555 1_555
H50 C46 1_555 1_555
H51 C46 1_555 1_555
H52 C46 1_555 1_555
C47 C39 1_555 1_555
C48 C47 1_555 1_555
H53 C48 1_555 1_555
H54 C48 1_555 1_555
H55 C48 1_555 1_555
C49 H56 1_555 1_555
H57 C49 1_555 1_555
H58 C49 1_555 1_555
C50 O13 1_555 1_555
C51 C50 1_555 1_555
C52 O14 1_555 1_555
C53 C52 1_555 1_555
H59 C53 1_555 1_555
H60 C53 1_555 1_555
C54 O15 1_555 1_555
C55 C54 1_555 1_555
H61 C55 1_555 1_555
C56 C51 1_555 1_555
H62 C56 1_555 1_555
C57 H63 1_555 1_555
C58 C56 1_555 1_555
C59 C58 1_555 1_555
H64 C59 1_555 1_555
C60 C59 1_555 1_555
H65 C60 1_555 1_555
C61 N4 1_555 1_555
H66 C61 1_555 1_555
C62 C54 1_555 1_555
H67 C62 1_555 1_555
H68 C62 1_555 1_555
H69 C62 1_555 1_555
C63 C55 1_555 1_555
C64 C63 1_555 1_555
H70 C64 1_555 1_555
H71 C64 1_555 1_555
H72 C64 1_555 1_555
C65 Ir1 1_555 1_555
C66 Ir1 1_555 1_555
C67 Ir1 1_555 1_555
C68 Ir1 1_555 1_555
C69 Ir1 1_555 1_555
C70 C65 1_555 1_555
H73 C70 1_555 1_555
H74 C70 1_555 1_555
H75 C70 1_555 1_555
C71 C66 1_555 1_555
H76 C71 1_555 1_555
H77 C71 1_555 1_555
H78 C71 1_555 1_555
C72 C67 1_555 1_555
H79 C72 1_555 1_555
H80 C72 1_555 1_555
H81 C72 1_555 1_555
C73 C68 1_555 1_555
H82 C73 1_555 1_555
H83 C73 1_555 1_555
H84 C73 1_555 1_555
C74 C69 1_555 1_555
H85 C74 1_555 1_555
H86 C74 1_555 1_555
H87 C74 1_555 1_555
C75 Ir2 1_555 1_555
C76 Ir2 1_555 1_555
C77 Ir2 1_555 1_555
C78 Ir2 1_555 1_555
C79 Ir2 1_555 1_555
C80 C75 1_555 1_555
H88 C80 1_555 1_555
H89 C80 1_555 1_555
H90 C80 1_555 1_555
C81 C76 1_555 1_555
H91 C81 1_555 1_555
H92 C81 1_555 1_555
H93 C81 1_555 1_555
C82 C77 1_555 1_555
H94 C82 1_555 1_555
H95 C82 1_555 1_555
H96 C82 1_555 1_555
C83 C78 1_555 1_555
H97 C83 1_555 1_555
H98 C83 1_555 1_555
H99 C83 1_555 1_555
C84 C79 1_555 1_555
H100 C84 1_555 1_555
H101 C84 1_555 1_555
H102 C84 1_555 1_555
C85 Ir3 1_555 1_555
C86 Ir3 1_555 1_555
C87 Ir3 1_555 1_555
C88 Ir3 1_555 1_555
C89 Ir3 1_555 1_555
C90 C85 1_555 1_555
H103 C90 1_555 1_555
H104 C90 1_555 1_555
H105 C90 1_555 1_555
C91 C86 1_555 1_555
H106 C91 1_555 1_555
H107 C91 1_555 1_555
H108 C91 1_555 1_555
C92 C87 1_555 1_555
H109 C92 1_555 1_555
H110 C92 1_555 1_555
H111 C92 1_555 1_555
C93 C88 1_555 1_555
H112 C93 1_555 1_555
H113 C93 1_555 1_555
H114 C93 1_555 1_555
C94 C89 1_555 1_555
H115 C94 1_555 1_555
H116 C94 1_555 1_555
H117 C94 1_555 1_555
C95 Ir4 1_555 1_555
C96 Ir4 1_555 1_555
C97 Ir4 1_555 1_555
C98 Ir4 1_555 1_555
C99 Ir4 1_555 1_555
C100 C95 1_555 1_555
H118 C100 1_555 1_555
H119 C100 1_555 1_555
H120 C100 1_555 1_555
C101 C96 1_555 1_555
H121 C101 1_555 1_555
H122 C101 1_555 1_555
H123 C101 1_555 1_555
C102 C97 1_555 1_555
H124 C102 1_555 1_555
H125 C102 1_555 1_555
H126 C102 1_555 1_555
C103 C98 1_555 1_555
H127 C103 1_555 1_555
H128 C103 1_555 1_555
H129 C103 1_555 1_555
C104 C99 1_555 1_555
H130 C104 1_555 1_555
H131 C104 1_555 1_555
H132 C104 1_555 1_555
O38 C105 1_555 1_555
O39 C106 1_555 1_555
O40 C107 1_555 1_555
O41 C108 1_555 1_555
O42 C109 1_555 1_555
O43 C110 1_555 1_555
Ag1E O12 1_555 1_555
N10A O31A 1_555 1_555
O12E Ag1 1_555 1_555
O29A Ag3 1_555 1_555
O31A Ag3 1_555 1_555
O32A Ag3 1_555 1_555
O33A N10A 1_555 1_555
N6 O21 1_555 1_555
N7 O24 1_555 1_555
N8 O27 1_555 1_555
N9 O29A 1_555 1_555
N10 O32 1_555 1_555
C1 C2 1_555 1_555
C3 C4 1_555 1_555
C5 C6 1_555 1_555
C7 C8 1_555 1_555
C9 C10 1_555 1_555
C12 C13 1_555 1_555
C17 C18 1_555 1_555
C19 C20 1_555 1_555
C21 C22 1_555 1_555
C23 C24 1_555 1_555
C25 C26 1_555 1_555
C28 C29 1_555 1_555
C33 C34 1_555 1_555
C35 C36 1_555 1_555
C37 C38 1_555 1_555
C39 C40 1_555 1_555
C41 C42 1_555 1_555
C44 C45 1_555 1_555
C49 C50 1_555 1_555
C51 C52 1_555 1_555
C53 C54 1_555 1_555
C55 C56 1_555 1_555
C57 C58 1_555 1_555
C60 C61 1_555 1_555
C65 C66 1_555 1_555
C65 C69 1_555 1_555
C66 C67 1_555 1_555
C67 C68 1_555 1_555
C68 C69 1_555 1_555
C75 C76 1_555 1_555
C75 C79 1_555 1_555
C76 C77 1_555 1_555
C77 C78 1_555 1_555
C78 C79 1_555 1_555
C85 C86 1_555 1_555
C85 C89 1_555 1_555
C86 C87 1_555 1_555
C87 C88 1_555 1_555
C88 C89 1_555 1_555
C95 C96 1_555 1_555
C95 C99 1_555 1_555
C96 C97 1_555 1_555
C97 C98 1_555 1_555
C98 C99 1_555 1_555
N10A O32A 1_555 1_555

#END
