
#######################################################################
#
#                 Cambridge Crystallographic Data Centre
#                                CCDC 
#
#######################################################################
#
# If this CIF has been generated from an entry in the Cambridge 
# Structural Database, then it will include bibliographic, chemical, 
# crystal, experimental, refinement or atomic coordinate data resulting 
# from the CCDC's data processing and validation procedures.
#
#######################################################################

data_USIWAV
_symmetry_cell_setting           monoclinic
_symmetry_space_group_name_H-M   'C 2/c'
_symmetry_Int_Tables_number      15
_space_group_name_Hall           '-C 2yn'
loop_
_symmetry_equiv_pos_site_id
_symmetry_equiv_pos_as_xyz
1 x,y,z
2 -x,y,1/2-z
3 1/2+x,1/2+y,z
4 1/2-x,1/2+y,1/2-z
5 -x,-y,-z
6 x,-y,1/2+z
7 1/2-x,1/2-y,-z
8 1/2+x,1/2-y,1/2+z
_cell_length_a                   24.2047(1)
_cell_length_b                   9.3475(2)
_cell_length_c                   16.9878(3)
_cell_angle_alpha                90
_cell_angle_beta                 119.326(1)
_cell_angle_gamma                90
_cell_volume                     3350.99
loop_
_atom_site_label
_atom_site_type_symbol
_atom_site_fract_x
_atom_site_fract_y
_atom_site_fract_z
Dy1 Dy 0.007641(11) 0.69397(3) 0.435789(15)
Cu1 Cu 0.15824(4) 0.94872(12) 1.02652(6)
C1 C 0.0694(3) 0.7153(6) 0.7439(4)
O1 O 0.06657(18) 0.7312(4) 0.3555(2)
C2 C 0.1181(3) 0.7123(8) 0.9042(4)
H1 H 0.1316 0.6596 0.9570
N1 N 0.1272(3) 0.8524(6) 0.9118(3)
O2 O -0.06104(18) 0.8789(4) 0.4396(3)
C3 C -0.2273(3) 0.5452(8) 0.1711(5)
H2 H -0.2241 0.5873 0.1238
C4 C 0.0363(3) 0.7458(5) 0.2718(3)
N2 N -0.2809(2) 0.4776(6) 0.1523(3)
O3 O 0.05850(18) 0.7619(4) 0.2191(3)
C5 C -0.1789(3) 0.4908(6) 0.3281(4)
C6 C 0.0800(4) 0.8607(7) 0.7516(4)
H3 H 0.0676 0.9156 0.7000
C7 C 0.0898(3) 0.6393(7) 0.8231(4)
H4 H 0.0845 0.5406 0.8219
C8 C 0.1089(4) 0.9254(7) 0.8350(5)
H5 H 0.1160 1.0235 0.8382
C9 C -0.2348(3) 0.4245(9) 0.3100(5)
H6 H -0.2391 0.3820 0.3562
C10 C -0.1763(3) 0.5557(8) 0.2570(4)
H7 H -0.1404 0.6063 0.2671
C11 C -0.2846(3) 0.4222(10) 0.2217(5)
H8 H -0.3225 0.3796 0.2105
O4 O 0.0317(2) 0.7118(4) 0.5869(3)
O5 O 0.01472(19) 0.5184(4) 0.6501(3)
C12 C 0.0357(3) 0.6429(6) 0.6529(4)
C13 C -0.0352(2) 0.9874(6) 0.4865(3)
O6 O -0.07805(19) 0.5789(5) 0.4342(3)
C14 C -0.1199(2) 0.4886(6) 0.4195(3)
O7 O -0.11458(19) 0.3929(5) 0.4746(3)
O9 O -0.06046(17) 1.0777(4) 0.5138(3)
Dy1A Dy -0.007641(11) 0.69397(3) 0.064211(15)
Dy1D Dy -0.007641(11) 0.30603(3) 0.564211(15)
Dy1D_2 Dy -0.007641(11) 1.30603(3) 0.564211(15)
Cu1D Cu -0.15824(4) 0.05128(12) -0.02652(6)
Cu1B Cu -0.34176(4) 0.44872(12) 0.02652(6)
Cu1A Cu -0.15824(4) 0.94872(12) 0.47348(6)
Cu1E Cu 0.15824(4) 1.05128(12) 0.52652(6)
Cu1F Cu 0.34176(4) 0.55128(12) 0.97348(6)
C1D C -0.0694(3) 0.2847(6) 0.2561(4)
O1A O -0.06657(18) 0.7312(4) 0.1445(2)
C2D C -0.1181(3) 0.2877(8) 0.0958(4)
H1D H -0.1316 0.3404 0.0430
N1D N -0.1272(3) 0.1476(6) 0.0882(3)
O2D O 0.06104(18) 1.1211(4) 0.5604(3)
O2A O 0.06104(18) 0.8789(4) 0.0604(3)
C3D C 0.2273(3) 0.4548(8) 0.8289(5)
H2D H 0.2241 0.4127 0.8762
C4A C -0.0363(3) 0.7458(5) 0.2282(3)
N2D N 0.2809(2) 0.5224(6) 0.8477(3)
N2B N 0.2191(2) 0.9776(6) 1.1523(3)
N2F N -0.2191(2) 0.0224(6) -0.1523(3)
O3A O -0.05850(18) 0.7619(4) 0.2809(3)
C5D C 0.1789(3) 0.5092(6) 0.6719(4)
C6D C -0.0800(4) 0.1393(7) 0.2484(4)
H3D H -0.0676 0.0844 0.3000
C7D C -0.0898(3) 0.3607(7) 0.1769(4)
H4D H -0.0845 0.4594 0.1781
C8D C -0.1089(4) 0.0746(7) 0.1650(5)
H5D H -0.1160 -0.0235 0.1618
C9D C 0.2348(3) 0.5755(9) 0.6900(5)
H6D H 0.2391 0.6180 0.6438
C10D C 0.1763(3) 0.4443(8) 0.7430(4)
H7D H 0.1404 0.3937 0.7329
C11D C 0.2846(3) 0.5778(10) 0.7783(5)
H8D H 0.3225 0.6204 0.7895
O4D O -0.0317(2) 0.2882(4) 0.4131(3)
O4A O -0.0317(2) 0.7118(4) -0.0869(3)
O5D O -0.01472(19) 0.4816(4) 0.3499(3)
O5E O 0.01472(19) 0.4816(4) 0.1501(3)
C12D C -0.0357(3) 0.3571(6) 0.3471(4)
C13D C 0.0352(2) 1.0126(6) 0.5135(3)
O6D O 0.07805(19) 0.4211(5) 0.5658(3)
O6A O 0.07805(19) 0.5789(5) 0.0658(3)
C14D C 0.1199(2) 0.5114(6) 0.5805(3)
O7D O 0.11458(19) 0.6071(5) 0.5254(3)
O7E O -0.11458(19) 0.6071(5) -0.0254(3)
O9D O 0.06046(17) 0.9223(4) 0.4862(3)
O9A O 0.06046(17) 1.0777(4) 0.9862(3)
O9E O -0.06046(17) 0.9223(4) 0.0138(3)
O9E_2 O -0.06046(17) -0.0777(4) 0.0138(3)
O8 O 0.1905(3) 1.1928(8) 0.9751(5)
loop_
_geom_bond_atom_site_label_1
_geom_bond_atom_site_label_2
_geom_bond_site_symmetry_1
_geom_bond_site_symmetry_2
Dy1 O1 1_555 1_555
Cu1 N1 1_555 1_555
C1 C6 1_555 1_555
O1 C4 1_555 1_555
C2 H1 1_555 1_555
N1 C2 1_555 1_555
O2 Dy1 1_555 1_555
C3 H2 1_555 1_555
C4 O3 1_555 1_555
N2 C3 1_555 1_555
O3 Dy1A 1_555 1_555
C5 C9 1_555 1_555
C6 H3 1_555 1_555
C7 C1 1_555 1_555
H4 C7 1_555 1_555
C8 N1 1_555 1_555
H5 C8 1_555 1_555
C9 H6 1_555 1_555
C10 C3 1_555 1_555
H7 C10 1_555 1_555
C11 N2 1_555 1_555
H8 C11 1_555 1_555
O4 Dy1 1_555 1_555
O5 C12 1_555 1_555
C12 C1 1_555 1_555
C13 O2 1_555 1_555
O6 Dy1 1_555 1_555
C14 C5 1_555 1_555
O7 C14 1_555 1_555
O9 C13 1_555 1_555
Dy1A O1A 1_555 1_555
Dy1D O5 1_555 1_555
Dy1D_2 O9 1_555 1_555
Cu1D N1D 1_555 1_555
Cu1B N2 1_555 1_555
Cu1A O9 1_555 1_555
Cu1E O9D 1_555 1_555
Cu1F N2D 1_555 1_555
C1D C6D 1_555 1_555
O1A C4A 1_555 1_555
C2D H1D 1_555 1_555
N1D C2D 1_555 1_555
O2D Dy1D_2 1_555 1_555
O2A Dy1A 1_555 1_555
C3D H2D 1_555 1_555
C4A C4 1_555 1_555
N2D C3D 1_555 1_555
N2B Cu1 1_555 1_555
N2F Cu1D 1_555 1_555
O3A Dy1 1_555 1_555
C5D C9D 1_555 1_555
C6D H3D 1_555 1_555
C7D C1D 1_555 1_555
H4D C7D 1_555 1_555
C8D N1D 1_555 1_555
H5D C8D 1_555 1_555
C9D H6D 1_555 1_555
C10D C3D 1_555 1_555
H7D C10D 1_555 1_555
C11D N2D 1_555 1_555
H8D C11D 1_555 1_555
O4D Dy1D 1_555 1_555
O4A Dy1A 1_555 1_555
O5D Dy1 1_555 1_555
O5E Dy1A 1_555 1_555
C12D C1D 1_555 1_555
C13D C13 1_555 1_555
O6D Dy1D 1_555 1_555
O6A Dy1A 1_555 1_555
C14D C5D 1_555 1_555
O7D Dy1 1_555 1_555
O7E Dy1A 1_555 1_555
O9D Dy1 1_555 1_555
O9A Cu1 1_555 1_555
O9E Dy1A 1_555 1_555
O9E_2 Cu1D 1_555 1_555
C2 C7 1_555 1_555
C5 C10 1_555 1_555
C6 C8 1_555 1_555
C9 C11 1_555 1_555
O4 C12 1_555 1_555
O6 C14 1_555 1_555
O7 Dy1D 1_555 1_555
C2D C7D 1_555 1_555
O2D C13D 1_555 1_555
C4A O3A 1_555 1_555
C5D C10D 1_555 1_555
C6D C8D 1_555 1_555
C9D C11D 1_555 1_555
O4D C12D 1_555 1_555
O5D C12D 1_555 1_555
C13D O9D 1_555 1_555
O6D C14D 1_555 1_555
C14D O7D 1_555 1_555

#END
