
#######################################################################
#
#                 Cambridge Crystallographic Data Centre
#                                CCDC 
#
#######################################################################
#
# If this CIF has been generated from an entry in the Cambridge 
# Structural Database, then it will include bibliographic, chemical, 
# crystal, experimental, refinement or atomic coordinate data resulting 
# from the CCDC's data processing and validation procedures.
#
#######################################################################

data_USUBUG
_symmetry_cell_setting           monoclinic
_symmetry_space_group_name_H-M   'C c'
_symmetry_Int_Tables_number      9
_space_group_name_Hall           'C -2yc'
loop_
_symmetry_equiv_pos_site_id
_symmetry_equiv_pos_as_xyz
1 x,y,z
2 x,-y,1/2+z
3 1/2+x,1/2+y,z
4 1/2+x,1/2-y,1/2+z
_cell_length_a                   13.459(2)
_cell_length_b                   15.118(2)
_cell_length_c                   8.959(2)
_cell_angle_alpha                90
_cell_angle_beta                 131.571(2)
_cell_angle_gamma                90
_cell_volume                     1363.79
loop_
_atom_site_label
_atom_site_type_symbol
_atom_site_fract_x
_atom_site_fract_y
_atom_site_fract_z
C1 C 0.9257(8) 0.2723(5) 0.8566(14)
C2 C 0.7503(7) 0.0003(4) 0.9676(11)
N1 N 0.8593(10) 0.3375(7) 0.7170(18)
H1 H 0.7791 0.3288 0.6075
H2 H 0.8975 0.3874 0.7382
N2 N 1.0560(6) 0.2741(4) 1.0210(10)
N3 N 1.0847(7) 0.1914(5) 1.0977(15)
N4 N 0.9789(11) 0.1458(5) 0.995(2)
N5 N 0.8756(6) 0.1939(4) 0.8375(11)
N6 N 0.8800(8) -0.0100(7) 1.0766(18)
H3 H 0.9218 -0.0513 1.1647
H4 H 0.9222 0.0246 1.0590
N7 N 0.6782(6) 0.0610(5) 0.8263(12)
N8 N 0.5505(9) 0.0533(6) 0.7571(16)
N9 N 0.5495(8) -0.0126(6) 0.8445(15)
N10 N 0.6734(7) -0.0482(5) 0.9793(11)
Zn1 Zn 0.69885(6) 0.13717(3) 0.66665(7)
N2C N 0.5560(6) 0.2259(4) 0.5210(10)
N10A N 0.6734(7) 0.0482(5) 0.4793(11)
Zn1A Zn 0.69885(6) -0.13717(3) 1.16665(7)
Zn1C Zn 1.19885(6) 0.36283(3) 1.16665(7)
C3 C 0.666(2) 0.2086(13) 0.205(3)
H5 H 0.7006 0.1630 0.1752
H6 H 0.5712 0.2046 0.1138
H7 H 0.7019 0.2014 0.3391
O1 O 0.5993(16) 0.3560(8) 0.260(2)
N11 N 0.706(2) 0.2980(7) 0.184(3)
C4 C 0.716(2) 0.4517(9) 0.219(3)
H8 H 0.6755 0.4921 0.2486
H9 H 0.6869 0.4656 0.0913
H10 H 0.8106 0.4568 0.3198
C5 C 0.679(2) 0.3678(12) 0.217(3)
C6 C 0.794(2) 0.2921(17) 0.146(4)
H11 H 0.8031 0.2314 0.1256
H12 H 0.8794 0.3154 0.2577
H13 H 0.7581 0.3257 0.0284
loop_
_geom_bond_atom_site_label_1
_geom_bond_atom_site_label_2
_geom_bond_site_symmetry_1
_geom_bond_site_symmetry_2
C1 N1 1_555 1_555
C2 N6 1_555 1_555
N1 H1 1_555 1_555
H2 N1 1_555 1_555
N2 C1 1_555 1_555
N3 N2 1_555 1_555
N4 N3 1_555 1_555
N5 C1 1_555 1_555
N6 H3 1_555 1_555
H4 N6 1_555 1_555
N7 C2 1_555 1_555
N8 N7 1_555 1_555
N9 N8 1_555 1_555
N10 C2 1_555 1_555
Zn1 N5 1_555 1_555
C3 H5 1_555 1_555
H6 C3 1_555 1_555
H7 C3 1_555 1_555
O1 C5 1_555 1_555
N11 C3 1_555 1_555
C4 H8 1_555 1_555
H9 C4 1_555 1_555
H10 C4 1_555 1_555
C5 N11 1_555 1_555
C6 N11 1_555 1_555
H11 C6 1_555 1_555
H12 C6 1_555 1_555
H13 C6 1_555 1_555
N2C Zn1 1_555 1_555
N10A Zn1 1_555 1_555
Zn1A N10 1_555 1_555
Zn1C N2 1_555 1_555
N4 N5 1_555 1_555
N7 Zn1 1_555 1_555
N9 N10 1_555 1_555
C4 C5 1_555 1_555

#END
