
#######################################################################
#
#                 Cambridge Crystallographic Data Centre
#                                CCDC 
#
#######################################################################
#
# If this CIF has been generated from an entry in the Cambridge 
# Structural Database, then it will include bibliographic, chemical, 
# crystal, experimental, refinement or atomic coordinate data resulting 
# from the CCDC's data processing and validation procedures.
#
#######################################################################

data_USUZEO
_symmetry_cell_setting           monoclinic
_symmetry_space_group_name_H-M   'P 21/c'
_symmetry_Int_Tables_number      14
_space_group_name_Hall           '-P 2ybc'
loop_
_symmetry_equiv_pos_site_id
_symmetry_equiv_pos_as_xyz
1 x,y,z
2 -x,1/2+y,1/2-z
3 -x,-y,-z
4 x,1/2-y,1/2+z
_cell_length_a                   16.0531(9)
_cell_length_b                   8.9781(4)
_cell_length_c                   19.1000(11)
_cell_angle_alpha                90
_cell_angle_beta                 105.934(4)
_cell_angle_gamma                90
_cell_volume                     2647.05
loop_
_atom_site_label
_atom_site_type_symbol
_atom_site_fract_x
_atom_site_fract_y
_atom_site_fract_z
C1 C 0.1483(2) 0.2106(4) -0.1282(2)
C2 C 0.0835(2) 0.1015(5) -0.1230(2)
H1 H 0.0751 0.0615 -0.0794
C3 C 0.0350(3) 0.0657(5) -0.1948(3)
H2 H -0.0121 -0.0023 -0.2076
C4 C 0.0684(3) 0.1484(5) -0.2448(3)
H3 H 0.0477 0.1438 -0.2964
C5 C 0.1378(2) 0.2387(5) -0.2047(2)
H4 H 0.1712 0.3055 -0.2245
C6 C 0.2737(2) -0.0403(4) -0.2097(2)
C7 C 0.2868(3) -0.0679(4) -0.1334(2)
H5 H 0.3310 -0.0256 -0.0949
C8 C 0.2216(3) -0.1701(5) -0.1254(3)
H6 H 0.2146 -0.2067 -0.0807
C9 C 0.1691(3) -0.2073(5) -0.1965(3)
H7 H 0.1213 -0.2739 -0.2075
C10 C 0.2008(3) -0.1272(4) -0.2481(3)
H8 H 0.1776 -0.1309 -0.2995
C11 C 0.3268(2) 0.0599(4) -0.2426(2)
C12 C 0.4139(2) 0.0867(5) -0.2087(2)
H9 H 0.4413 0.0412 -0.1633
C13 C 0.4604(2) 0.1808(6) -0.2420(3)
H10 H 0.5201 0.1995 -0.2197
C14 C 0.4190(2) 0.2469(5) -0.3077(2)
H11 H 0.4510 0.3111 -0.3303
C15 C 0.2902(3) 0.1314(4) -0.3079(2)
H12 H 0.2304 0.1154 -0.3309
C16 C 0.3166(3) 0.3605(4) -0.0767(3)
C17 C 0.3975(2) 0.3006(5) -0.0426(3)
H13 H 0.4031 0.2246 -0.0070
C18 C 0.4705(3) 0.3532(6) -0.0613(4)
H14 H 0.5260 0.3139 -0.0377
C19 C 0.4626(3) 0.4606(6) -0.1131(4)
H15 H 0.5125 0.4942 -0.1260
C20 C 0.3825(3) 0.5211(6) -0.1472(4)
H16 H 0.3777 0.5964 -0.1830
C21 C 0.3091(3) 0.4718(5) -0.1290(3)
H17 H 0.2540 0.5138 -0.1520
C22 C 0.1665(2) 0.4639(4) -0.0327(2)
C23 C 0.2110(3) 0.5594(5) 0.0228(2)
H18 H 0.2698 0.5402 0.0479
C24 C 0.1688(3) 0.6830(5) 0.0412(3)
H19 H 0.1986 0.7472 0.0795
C25 C 0.0832(3) 0.7126(5) 0.0037(3)
H20 H 0.0548 0.7976 0.0158
C26 C 0.0397(3) 0.6193(5) -0.0509(3)
H21 H -0.0189 0.6399 -0.0762
C27 C 0.0805(3) 0.4937(5) -0.0698(2)
H22 H 0.0499 0.4294 -0.1077
Fe1 Fe 0.16419(3) 0.01824(6) -0.17957(3)
N1 N 0.3347(2) 0.2227(4) -0.34064(19)
P1 P 0.22119(6) 0.29647(11) -0.05136(6)
Hg1 Hg 0.254946(8) 0.131822(16) 0.054495(8)
Br1 Br 0.36800(3) -0.07816(5) 0.07332(3)
Br2 Br 0.13011(3) 0.07200(5) 0.11138(3)
N1C N 0.3347(2) 0.2773(4) 0.15936(19)
Hg1C Hg 0.254946(8) 0.368178(16) -0.445505(8)
loop_
_geom_bond_atom_site_label_1
_geom_bond_atom_site_label_2
_geom_bond_site_symmetry_1
_geom_bond_site_symmetry_2
C1 C2 1_555 1_555
C2 H1 1_555 1_555
C3 C2 1_555 1_555
H2 C3 1_555 1_555
C4 C3 1_555 1_555
H3 C4 1_555 1_555
C5 C1 1_555 1_555
H4 C5 1_555 1_555
C6 C7 1_555 1_555
C7 H5 1_555 1_555
C8 C7 1_555 1_555
H6 C8 1_555 1_555
C9 C8 1_555 1_555
H7 C9 1_555 1_555
C10 C6 1_555 1_555
H8 C10 1_555 1_555
C11 C6 1_555 1_555
C12 C11 1_555 1_555
H9 C12 1_555 1_555
C13 C12 1_555 1_555
H10 C13 1_555 1_555
C14 C13 1_555 1_555
H11 C14 1_555 1_555
C15 C11 1_555 1_555
H12 C15 1_555 1_555
C16 C17 1_555 1_555
C17 H13 1_555 1_555
C18 C17 1_555 1_555
H14 C18 1_555 1_555
C19 C18 1_555 1_555
H15 C19 1_555 1_555
C20 C19 1_555 1_555
H16 C20 1_555 1_555
C21 C16 1_555 1_555
H17 C21 1_555 1_555
C22 C23 1_555 1_555
C23 H18 1_555 1_555
C24 C23 1_555 1_555
H19 C24 1_555 1_555
C25 C24 1_555 1_555
H20 C25 1_555 1_555
C26 C25 1_555 1_555
H21 C26 1_555 1_555
C27 C22 1_555 1_555
H22 C27 1_555 1_555
Fe1 C1 1_555 1_555
N1 C14 1_555 1_555
P1 C1 1_555 1_555
Hg1 P1 1_555 1_555
Br1 Hg1 1_555 1_555
Br2 Hg1 1_555 1_555
N1C Hg1 1_555 1_555
Hg1C N1 1_555 1_555
C2 Fe1 1_555 1_555
C3 Fe1 1_555 1_555
C4 C5 1_555 1_555
C4 Fe1 1_555 1_555
C5 Fe1 1_555 1_555
C6 Fe1 1_555 1_555
C7 Fe1 1_555 1_555
C8 Fe1 1_555 1_555
C9 C10 1_555 1_555
C9 Fe1 1_555 1_555
C10 Fe1 1_555 1_555
C15 N1 1_555 1_555
C16 P1 1_555 1_555
C20 C21 1_555 1_555
C22 P1 1_555 1_555
C26 C27 1_555 1_555

#END
