
#######################################################################
#
#                 Cambridge Crystallographic Data Centre
#                                CCDC 
#
#######################################################################
#
# If this CIF has been generated from an entry in the Cambridge 
# Structural Database, then it will include bibliographic, chemical, 
# crystal, experimental, refinement or atomic coordinate data resulting 
# from the CCDC's data processing and validation procedures.
#
#######################################################################

data_USUZAK
_symmetry_cell_setting           monoclinic
_symmetry_space_group_name_H-M   'P 21/c'
_symmetry_Int_Tables_number      14
_space_group_name_Hall           '-P 2ybc'
loop_
_symmetry_equiv_pos_site_id
_symmetry_equiv_pos_as_xyz
1 x,y,z
2 -x,1/2+y,1/2-z
3 -x,-y,-z
4 x,1/2-y,1/2+z
_cell_length_a                   15.3284(10)
_cell_length_b                   9.0578(6)
_cell_length_c                   18.4976(10)
_cell_angle_alpha                90
_cell_angle_beta                 96.220(5)
_cell_angle_gamma                90
_cell_volume                     2553.12
loop_
_atom_site_label
_atom_site_type_symbol
_atom_site_fract_x
_atom_site_fract_y
_atom_site_fract_z
C1 C 0.6518(3) 0.3105(5) 0.1737(3)
C2 C 0.6360(3) 0.2789(5) 0.2476(3)
H1 H 0.6677 0.2105 0.2793
C3 C 0.5646(3) 0.3682(6) 0.2647(3)
H2 H 0.5405 0.3699 0.3099
C4 C 0.5351(3) 0.4552(6) 0.2021(3)
H3 H 0.4882 0.5243 0.1987
C5 C 0.5880(3) 0.4205(5) 0.1458(3)
H4 H 0.5826 0.4621 0.0984
C6 C 0.7728(3) 0.5575(5) 0.3084(3)
C7 C 0.6960(3) 0.6392(5) 0.3218(3)
H5 H 0.6690 0.6395 0.3657
C8 C 0.6677(4) 0.7204(5) 0.2570(3)
H6 H 0.6187 0.7851 0.2506
C9 C 0.7257(3) 0.6875(5) 0.2036(3)
H7 H 0.7217 0.7260 0.1556
C10 C 0.7902(3) 0.5870(5) 0.2350(3)
H8 H 0.8368 0.5463 0.2115
C11 C 0.8266(3) 0.4614(5) 0.3618(3)
C12 C 0.9182(3) 0.4716(5) 0.3706(3)
H9 H 0.9474 0.5384 0.3418
C13 C 0.9661(3) 0.3825(6) 0.4221(3)
H10 H 1.0283 0.3881 0.4285
C14 C 0.9224(3) 0.2859(6) 0.4638(3)
H11 H 0.9553 0.2249 0.4985
C15 C 0.7874(3) 0.3632(5) 0.4057(3)
H12 H 0.7252 0.3561 0.4003
C16 C 0.8177(3) 0.1614(5) 0.1879(3)
C17 C 0.8983(3) 0.2371(6) 0.1954(3)
H13 H 0.9086 0.3146 0.1628
C18 C 0.9625(4) 0.1979(6) 0.2504(3)
H14 H 1.0172 0.2482 0.2552
C19 C 0.9479(4) 0.0872(6) 0.2983(3)
H15 H 0.9919 0.0631 0.3367
C20 C 0.8683(4) 0.0094(7) 0.2909(4)
H16 H 0.8584 -0.0683 0.3235
C21 C 0.8044(4) 0.0474(6) 0.2355(3)
H17 H 0.7506 -0.0055 0.2299
C22 C 0.6739(3) 0.0536(5) 0.0866(3)
C23 C 0.7206(3) -0.0476(5) 0.0486(3)
H18 H 0.7808 -0.0306 0.0438
C24 C 0.6788(4) -0.1743(5) 0.0174(3)
H19 H 0.7106 -0.2415 -0.0093
C25 C 0.5917(4) -0.2010(6) 0.0256(3)
H20 H 0.5634 -0.2864 0.0044
C26 C 0.5453(4) -0.1022(5) 0.0650(3)
H21 H 0.4857 -0.1212 0.0714
C27 C 0.5867(3) 0.0244(6) 0.0950(3)
H22 H 0.5547 0.0915 0.1215
N1 N 0.8335(3) 0.2767(4) 0.4558(2)
P1 P 0.72930(8) 0.22385(13) 0.12052(7)
Fe1 Fe 0.66555(4) 0.49836(7) 0.23567(4)
Zn1 Zn 0.76751(4) 0.37082(6) 0.01646(3)
Br1 Br 0.86789(3) 0.56797(5) 0.04437(3)
Br2 Br 0.63298(3) 0.41838(5) -0.05695(3)
N1C N 0.8335(3) 0.2233(4) -0.0442(2)
Zn1C Zn 0.76751(4) 0.12918(6) 0.51646(3)
loop_
_geom_bond_atom_site_label_1
_geom_bond_atom_site_label_2
_geom_bond_site_symmetry_1
_geom_bond_site_symmetry_2
C1 C2 1_555 1_555
C2 H1 1_555 1_555
C3 C2 1_555 1_555
H2 C3 1_555 1_555
C4 C3 1_555 1_555
H3 C4 1_555 1_555
C5 C1 1_555 1_555
H4 C5 1_555 1_555
C6 C7 1_555 1_555
C7 H5 1_555 1_555
C8 C7 1_555 1_555
H6 C8 1_555 1_555
C9 C8 1_555 1_555
H7 C9 1_555 1_555
C10 C6 1_555 1_555
H8 C10 1_555 1_555
C11 C6 1_555 1_555
C12 C11 1_555 1_555
H9 C12 1_555 1_555
C13 C12 1_555 1_555
H10 C13 1_555 1_555
C14 C13 1_555 1_555
H11 C14 1_555 1_555
C15 C11 1_555 1_555
H12 C15 1_555 1_555
C16 C17 1_555 1_555
C17 H13 1_555 1_555
C18 C17 1_555 1_555
H14 C18 1_555 1_555
C19 C18 1_555 1_555
H15 C19 1_555 1_555
C20 C19 1_555 1_555
H16 C20 1_555 1_555
C21 C16 1_555 1_555
H17 C21 1_555 1_555
C22 C23 1_555 1_555
C23 H18 1_555 1_555
C24 C23 1_555 1_555
H19 C24 1_555 1_555
C25 C24 1_555 1_555
H20 C25 1_555 1_555
C26 C25 1_555 1_555
H21 C26 1_555 1_555
C27 C22 1_555 1_555
H22 C27 1_555 1_555
N1 C14 1_555 1_555
P1 C1 1_555 1_555
Fe1 C1 1_555 1_555
Zn1 P1 1_555 1_555
Br1 Zn1 1_555 1_555
Br2 Zn1 1_555 1_555
N1C Zn1 1_555 1_555
Zn1C N1 1_555 1_555
C2 Fe1 1_555 1_555
C3 Fe1 1_555 1_555
C4 C5 1_555 1_555
C4 Fe1 1_555 1_555
C5 Fe1 1_555 1_555
C6 Fe1 1_555 1_555
C7 Fe1 1_555 1_555
C8 Fe1 1_555 1_555
C9 C10 1_555 1_555
C9 Fe1 1_555 1_555
C10 Fe1 1_555 1_555
C15 N1 1_555 1_555
C16 P1 1_555 1_555
C20 C21 1_555 1_555
C22 P1 1_555 1_555
C26 C27 1_555 1_555

#END
