
#######################################################################
#
#                 Cambridge Crystallographic Data Centre
#                                CCDC 
#
#######################################################################
#
# If this CIF has been generated from an entry in the Cambridge 
# Structural Database, then it will include bibliographic, chemical, 
# crystal, experimental, refinement or atomic coordinate data resulting 
# from the CCDC's data processing and validation procedures.
#
#######################################################################

data_UTEFUV
_symmetry_cell_setting           triclinic
_symmetry_space_group_name_H-M   'P -1'
_symmetry_Int_Tables_number      2
_space_group_name_Hall           '-P 1'
loop_
_symmetry_equiv_pos_site_id
_symmetry_equiv_pos_as_xyz
1 x,y,z
2 -x,-y,-z
_cell_length_a                   8.5268(10)
_cell_length_b                   8.921(2)
_cell_length_c                   10.1561(12)
_cell_angle_alpha                104.645(2)
_cell_angle_beta                 113.4870(10)
_cell_angle_gamma                94.976(2)
_cell_volume                     670.046
loop_
_atom_site_label
_atom_site_type_symbol
_atom_site_fract_x
_atom_site_fract_y
_atom_site_fract_z
Co1 Co 0.99342(6) 0.95169(5) 0.33245(5)
Co2 Co 1.0000 1.0000 0.0000
C1 C 0.8196(4) 0.6967(4) 0.0182(4)
C2 C 0.7198(4) 0.5264(4) -0.0475(4)
C3 C 0.6494(4) 0.4375(4) -0.1999(4)
H1 H 0.6601 0.4828 -0.2698
C4 C 0.5637(4) 0.2819(4) -0.2464(4)
H2 H 0.5177 0.2212 -0.3477
C5 C 0.5465(4) 0.2169(4) -0.1431(4)
H3 H 0.4865 0.1127 -0.1747
C6 C 0.6998(4) 0.4542(4) 0.0511(4)
H4 H 0.7460 0.5120 0.1532
C7 C 0.6182(4) 0.2285(4) 0.1191(4)
H5 H 0.5035 0.1639 0.0853
H6 H 0.6454 0.3098 0.2136
C8 C 0.7557(4) 0.1244(4) 0.1447(4)
N1 N 0.6161(3) 0.3035(3) 0.0048(3)
N2 N 0.8532(4) 0.8788(3) 0.4516(3)
N3 N 0.8227(4) 0.7410(4) 0.4408(3)
N4 N 0.7883(5) 0.6080(4) 0.4277(4)
N5 N 1.1374(4) 1.0293(4) 0.2297(3)
N6 N 1.2909(4) 1.0884(4) 0.2937(3)
N7 N 1.4379(5) 1.1440(6) 0.3541(5)
O1 O 0.8810(3) 0.7527(3) -0.0565(3)
O2 O 0.8297(3) 0.7662(3) 0.1459(3)
O3 O 0.7892(3) 0.0700(3) 0.0361(3)
O4 O 0.8135(3) 0.1013(3) 0.2705(3)
O5 O 1.1625(4) 0.7940(3) 0.4042(3)
H7 H 1.216(5) 0.826(4) 0.500(2)
H8 H 1.127(6) 0.695(2) 0.375(4)
Co1A Co 1.00658(6) 1.04831(5) -0.33245(5)
Co1A_2 Co 1.00658(6) 1.04831(5) 0.66755(5)
Co1_2 Co 0.99342(6) -0.04831(5) 0.33245(5)
Co1_3 Co 0.99342(6) 1.95169(5) 0.33245(5)
Co2_2 Co 1.0000 0.0000 0.0000
Co2_3 Co 1.0000 2.0000 0.0000
C1_2 C 0.8196(4) 1.6967(4) 0.0182(4)
C2_2 C 0.7198(4) 1.5264(4) -0.0475(4)
C3_2 C 0.6494(4) 1.4375(4) -0.1999(4)
H1_2 H 0.6601 1.4828 -0.2698
C4_2 C 0.5637(4) 1.2819(4) -0.2464(4)
H2_2 H 0.5177 1.2212 -0.3477
C5_2 C 0.5465(4) 1.2169(4) -0.1431(4)
H3_2 H 0.4865 1.1127 -0.1747
C6_2 C 0.6998(4) 1.4542(4) 0.0511(4)
H4_2 H 0.7460 1.5120 0.1532
C7_2 C 0.6182(4) 1.2285(4) 0.1191(4)
H5_2 H 0.5035 1.1639 0.0853
H6_2 H 0.6454 1.3098 0.2136
C8_2 C 0.7557(4) 1.1244(4) 0.1447(4)
N1_2 N 0.6161(3) 1.3035(3) 0.0048(3)
N2A N 1.1468(4) 1.1212(3) 0.5484(3)
N2A_2 N 1.1468(4) 1.1212(3) -0.4516(3)
N2_2 N 0.8532(4) 0.8788(3) -0.5484(3)
N3A N 1.1773(4) 1.2590(4) 0.5592(3)
N4A N 1.2117(5) 1.3920(4) 0.5723(4)
N5A N 0.8626(4) 0.9707(4) -0.2297(3)
N6A N 0.7091(4) 0.9116(4) -0.2937(3)
N7A N 0.5621(5) 0.8560(6) -0.3541(5)
O1_2 O 0.8810(3) 1.7527(3) -0.0565(3)
O1A O 1.1190(3) 1.2473(3) 0.0565(3)
O2_2 O 0.8297(3) 1.7662(3) 0.1459(3)
O2A O 1.1703(3) 1.2338(3) -0.1459(3)
O3_2 O 0.7892(3) 1.0700(3) 0.0361(3)
O3A O 1.2108(3) 0.9300(3) -0.0361(3)
O4_2 O 0.8135(3) 1.1013(3) 0.2705(3)
O4A O 1.1865(3) 0.8987(3) -0.2705(3)
O5A O 0.8375(4) 1.2060(3) -0.4042(3)
H7A H 0.784(5) 1.174(4) -0.500(2)
H8A H 0.873(6) 1.305(2) -0.375(4)
O6 O 1.0446(4) 0.4540(4) 0.2829(4)
H9 H 1.077(9) 0.403(8) 0.219(5)
H10 H 1.092(8) 0.428(7) 0.362(4)
loop_
_geom_bond_atom_site_label_1
_geom_bond_atom_site_label_2
_geom_bond_site_symmetry_1
_geom_bond_site_symmetry_2
Co1 N2 1_555 1_555
Co2 N5 1_555 1_555
C1 C2 1_555 1_555
C2 C3 1_555 1_555
C3 H1 1_555 1_555
C4 C3 1_555 1_555
H2 C4 1_555 1_555
C5 C4 1_555 1_555
H3 C5 1_555 1_555
C6 C2 1_555 1_555
H4 C6 1_555 1_555
C7 H5 1_555 1_555
H6 C7 1_555 1_555
C8 C7 1_555 1_555
N1 C5 1_555 1_555
N2 N3 1_555 1_555
N3 N4 1_555 1_555
N5 Co1 1_555 1_555
N6 N5 1_555 1_555
N7 N6 1_555 1_555
O1 Co2 1_555 1_555
O2 Co1 1_555 1_555
O3 C8 1_555 1_555
O4 C8 1_555 1_555
O5 Co1 1_555 1_555
H7 O5 1_555 1_555
H8 O5 1_555 1_555
O6 H9 1_555 1_555
H10 O6 1_555 1_555
Co1A N2A_2 1_555 1_555
Co1A_2 N2 1_555 1_555
Co1_2 O4 1_555 1_555
Co1_3 O2_2 1_555 1_555
Co2_2 O3 1_555 1_555
Co2_3 O1_2 1_555 1_555
C1_2 C2_2 1_555 1_555
C2_2 C3_2 1_555 1_555
C3_2 H1_2 1_555 1_555
C4_2 C3_2 1_555 1_555
H2_2 C4_2 1_555 1_555
C5_2 C4_2 1_555 1_555
H3_2 C5_2 1_555 1_555
C6_2 C2_2 1_555 1_555
H4_2 C6_2 1_555 1_555
C7_2 H5_2 1_555 1_555
H6_2 C7_2 1_555 1_555
C8_2 C7_2 1_555 1_555
N1_2 C5_2 1_555 1_555
N2A Co1 1_555 1_555
N2_2 Co1A 1_555 1_555
N3A N2A 1_555 1_555
N4A N3A 1_555 1_555
N5A Co2 1_555 1_555
N6A N5A 1_555 1_555
N7A N6A 1_555 1_555
O1_2 C1_2 1_555 1_555
O1A Co2 1_555 1_555
O2_2 C1_2 1_555 1_555
O2A Co1A 1_555 1_555
O3_2 Co2 1_555 1_555
O3A Co2 1_555 1_555
O4_2 Co1 1_555 1_555
O4A Co1A 1_555 1_555
O5A Co1A 1_555 1_555
H7A O5A 1_555 1_555
H8A O5A 1_555 1_555
C1 O1 1_555 1_555
C1 O2 1_555 1_555
C6 N1 1_555 1_555
C7 N1 1_555 1_555
Co1A N5A 1_555 1_555
Co1A_2 N2A 1_555 1_555
C6_2 N1_2 1_555 1_555
C7_2 N1_2 1_555 1_555
C8_2 O3_2 1_555 1_555
C8_2 O4_2 1_555 1_555

#END
