
#######################################################################
#
#                 Cambridge Crystallographic Data Centre
#                                CCDC 
#
#######################################################################
#
# If this CIF has been generated from an entry in the Cambridge 
# Structural Database, then it will include bibliographic, chemical, 
# crystal, experimental, refinement or atomic coordinate data resulting 
# from the CCDC's data processing and validation procedures.
#
#######################################################################

data_UTEXUN
_symmetry_cell_setting           monoclinic
_symmetry_space_group_name_H-M   'C 2/c'
_symmetry_Int_Tables_number      15
_space_group_name_Hall           '-C 2yn'
loop_
_symmetry_equiv_pos_site_id
_symmetry_equiv_pos_as_xyz
1 x,y,z
2 -x,y,1/2-z
3 1/2+x,1/2+y,z
4 1/2-x,1/2+y,1/2-z
5 -x,-y,-z
6 x,-y,1/2+z
7 1/2-x,1/2-y,-z
8 1/2+x,1/2-y,1/2+z
_cell_length_a                   22.407(5)
_cell_length_b                   10.811(2)
_cell_length_c                   9.0303(18)
_cell_angle_alpha                90
_cell_angle_beta                 90.06(3)
_cell_angle_gamma                90
_cell_volume                     2187.52
loop_
_atom_site_label
_atom_site_type_symbol
_atom_site_fract_x
_atom_site_fract_y
_atom_site_fract_z
Sr1 Sr 0.00000 0.06411(8) 0.75000
Sr2 Sr 0.16930(3) -0.15453(6) 0.57947(7)
N1 N 0.00000 0.3180(7) 0.75000
N2 N 0.1717(2) -0.2601(5) 0.8370(6)
O1 O 0.0840(2) -0.1026(5) 0.7602(5)
O2 O 0.0543(3) -0.0847(5) 0.9944(6)
O3 O 0.0792(2) 0.1878(4) 0.9047(5)
O4 O 0.2902(2) -0.4717(4) 0.7764(5)
O5 O 0.1171(2) 0.3564(5) 1.0062(6)
O6 O 0.2561(2) -0.3166(4) 0.6371(5)
C1 C 0.0873(3) -0.1292(6) 0.8961(8)
C2 C 0.0381(3) 0.3817(7) 0.8352(8)
C3 C 0.0396(4) 0.5092(7) 0.8390(8)
H1 H 0.0666 0.5507 0.8996
C4 C 0.00000 0.5737(10) 0.75000
H2 H 0.000 0.6597 0.750
C5 C 0.0817(3) 0.3045(6) 0.9249(7)
C6 C 0.2563(3) -0.3818(7) 0.7524(7)
C7 C 0.1334(3) -0.2239(6) 0.9435(8)
C8 C 0.1346(3) -0.2722(7) 1.0824(8)
H3 H 0.1088 -0.2413 1.1541
C9 C 0.1733(3) -0.3661(7) 1.1181(8)
H4 H 0.1729 -0.4029 1.2112
C10 C 0.2128(3) -0.4032(6) 1.0099(7)
H5 H 0.2403 -0.4656 1.0295
C11 C 0.2114(3) -0.3477(6) 0.8728(7)
Sr1D Sr 0.00000 -0.06411(8) 1.25000
Sr2D Sr -0.16930(3) 0.15453(6) 1.42053(7)
Sr2E Sr 0.16930(3) 0.15453(6) 1.07947(7)
Sr2C Sr 0.33070(3) -0.65453(6) 0.92053(7)
Sr2F Sr 0.33070(3) -0.34547(6) 0.42053(7)
Sr2D_2 Sr -0.16930(3) 0.15453(6) 0.42053(7)
Sr2G Sr -0.33070(3) 0.65453(6) 1.07947(7)
Sr2B Sr -0.33070(3) 0.34547(6) 1.57947(7)
N2D N -0.1717(2) 0.2601(5) 1.1630(6)
O1D O -0.0840(2) 0.1026(5) 1.2398(5)
O1A O -0.0840(2) -0.1026(5) 0.7398(5)
O2D O -0.0543(3) 0.0847(5) 1.0056(6)
O2E O 0.0543(3) 0.0847(5) 0.4944(6)
O3A O -0.0792(2) 0.1878(4) 0.5953(5)
O3E O 0.0792(2) -0.1878(4) 0.4047(5)
O3A_2 O -0.0792(2) 0.1878(4) 1.5953(5)
O4D O -0.2902(2) 0.4717(4) 1.2236(5)
O4C O 0.2098(2) 0.0283(4) 0.7236(5)
O4G O -0.2098(2) -0.0283(4) 1.2764(5)
O5A O -0.1171(2) 0.3564(5) 0.4938(6)
O5E O 0.1171(2) -0.3564(5) 0.5062(6)
O5A_2 O -0.1171(2) 0.3564(5) 1.4938(6)
O6D O -0.2561(2) 0.3166(4) 1.3629(5)
O6F O 0.2439(2) -0.1834(4) 0.3629(5)
O6B O -0.2439(2) 0.1834(4) 1.6371(5)
C1D C -0.0873(3) 0.1292(6) 1.1039(8)
C2A C -0.0381(3) 0.3817(7) 0.6648(8)
C3A C -0.0396(4) 0.5092(7) 0.6610(8)
H1A H -0.0666 0.5507 0.6004
C5A C -0.0817(3) 0.3045(6) 0.5751(7)
C6D C -0.2563(3) 0.3818(7) 1.2476(7)
C7D C -0.1334(3) 0.2239(6) 1.0565(8)
C8D C -0.1346(3) 0.2722(7) 0.9176(8)
H3D H -0.1088 0.2413 0.8459
C9D C -0.1733(3) 0.3661(7) 0.8819(8)
H4D H -0.1729 0.4029 0.7888
C10D C -0.2128(3) 0.4032(6) 0.9901(7)
H5D H -0.2403 0.4656 0.9705
C11D C -0.2114(3) 0.3477(6) 1.1272(7)
loop_
_geom_bond_atom_site_label_1
_geom_bond_atom_site_label_2
_geom_bond_site_symmetry_1
_geom_bond_site_symmetry_2
Sr1 N1 1_555 1_555
Sr2 N2 1_555 1_555
N1 C2 1_555 1_555
N2 C7 1_555 1_555
O1 Sr1 1_555 1_555
O2 C1 1_555 1_555
O3 Sr1 1_555 1_555
O4 C6 1_555 1_555
O5 C5 1_555 1_555
O6 Sr2 1_555 1_555
C1 O1 1_555 1_555
C2 C3 1_555 1_555
C3 H1 1_555 1_555
C4 C3 1_555 1_555
H2 C4 1_555 1_555
C5 O3 1_555 1_555
C6 O6 1_555 1_555
C7 C1 1_555 1_555
C8 C7 1_555 1_555
H3 C8 1_555 1_555
C9 C8 1_555 1_555
H4 C9 1_555 1_555
C10 C9 1_555 1_555
H5 C10 1_555 1_555
C11 N2 1_555 1_555
Sr1D O2 1_555 1_555
Sr2D N2D 1_555 1_555
Sr2E O3 1_555 1_555
Sr2C O4 1_555 1_555
Sr2F O6 1_555 1_555
Sr2D_2 O3A 1_555 1_555
Sr2G O4D 1_555 1_555
Sr2B O6D 1_555 1_555
N2D C7D 1_555 1_555
O1D Sr1D 1_555 1_555
O1A Sr1 1_555 1_555
O2D Sr1 1_555 1_555
O2E Sr1 1_555 1_555
O3A Sr1 1_555 1_555
O3E Sr2 1_555 1_555
O3A_2 Sr2D 1_555 1_555
O4D C6D 1_555 1_555
O4C Sr2 1_555 1_555
O4G Sr2D 1_555 1_555
O5A Sr2D_2 1_555 1_555
O5E Sr2 1_555 1_555
O5A_2 Sr2D 1_555 1_555
O6D Sr2D 1_555 1_555
O6F Sr2 1_555 1_555
O6B Sr2D 1_555 1_555
C1D O1D 1_555 1_555
C2A N1 1_555 1_555
C3A C4 1_555 1_555
H1A C3A 1_555 1_555
C5A O3A 1_555 1_555
C6D O6D 1_555 1_555
C7D C1D 1_555 1_555
C8D C7D 1_555 1_555
H3D C8D 1_555 1_555
C9D C8D 1_555 1_555
H4D C9D 1_555 1_555
C10D C9D 1_555 1_555
H5D C10D 1_555 1_555
C11D N2D 1_555 1_555
Sr2 O1 1_555 1_555
O5 Sr2E 1_555 1_555
C2 C5 1_555 1_555
C6 C11 1_555 1_555
C10 C11 1_555 1_555
Sr2D O1D 1_555 1_555
Sr2F O6F 1_555 1_555
Sr2B O6B 1_555 1_555
O2D C1D 1_555 1_555
O5A C5A 1_555 1_555
C2A C3A 1_555 1_555
C2A C5A 1_555 1_555
C6D C11D 1_555 1_555
C10D C11D 1_555 1_555

#END
