
#######################################################################
#
#                 Cambridge Crystallographic Data Centre
#                                CCDC 
#
#######################################################################
#
# If this CIF has been generated from an entry in the Cambridge 
# Structural Database, then it will include bibliographic, chemical, 
# crystal, experimental, refinement or atomic coordinate data resulting 
# from the CCDC's data processing and validation procedures.
#
#######################################################################

data_UTEXEX
_symmetry_cell_setting           cubic
_symmetry_space_group_name_H-M   'P n -3 n'
_symmetry_Int_Tables_number      222
_space_group_name_Hall           '-P 4a 2bc 3'
loop_
_symmetry_equiv_pos_site_id
_symmetry_equiv_pos_as_xyz
1 x,y,z
2 1/2-y,x,z
3 x,1/2-y,1/2-z
4 z,x,y
5 1/2-x,1/2-y,z
6 y,x,1/2-z
7 1/2-x,z,y
8 y,1/2-x,z
9 1/2-x,y,1/2-z
10 1/2-z,1/2-x,y
11 1/2-y,1/2-x,1/2-z
12 x,1/2-z,y
13 z,1/2-x,1/2-y
14 1/2-x,1/2-z,1/2-y
15 1/2-z,x,1/2-y
16 x,z,1/2-y
17 y,z,x
18 z,1/2-y,x
19 1/2-z,y,x
20 z,y,1/2-x
21 y,1/2-z,1/2-x
22 1/2-z,1/2-y,1/2-x
23 1/2-y,z,1/2-x
24 1/2-y,1/2-z,x
25 -x,-y,-z
26 1/2+y,-x,-z
27 -x,1/2+y,1/2+z
28 -z,-x,-y
29 1/2+x,1/2+y,-z
30 -y,-x,1/2+z
31 1/2+x,-z,-y
32 -y,1/2+x,-z
33 1/2+x,-y,1/2+z
34 1/2+z,1/2+x,-y
35 1/2+y,1/2+x,1/2+z
36 -x,1/2+z,-y
37 -z,1/2+x,1/2+y
38 1/2+x,1/2+z,1/2+y
39 1/2+z,-x,1/2+y
40 -x,-z,1/2+y
41 -y,-z,-x
42 -z,1/2+y,-x
43 1/2+z,-y,-x
44 -z,-y,1/2+x
45 -y,1/2+z,1/2+x
46 1/2+z,1/2+y,1/2+x
47 1/2+y,-z,1/2+x
48 1/2+y,1/2+z,-x
_cell_length_a                   18.5474(14)
_cell_length_b                   18.5474(14)
_cell_length_c                   18.5474(14)
_cell_angle_alpha                90
_cell_angle_beta                 90
_cell_angle_gamma                90
_cell_volume                     6380.42
loop_
_atom_site_label
_atom_site_type_symbol
_atom_site_fract_x
_atom_site_fract_y
_atom_site_fract_z
Zn1 Zn -0.25 -0.8300(27) 0.25000
O1 O -0.25 -0.8200(95) 0.25000
Zn2 Zn -0.25 -1.00000 0.25000
C1 C -0.002910 -0.929740 0.099450
C2 C 0.044040 -0.985290 0.117550
H1 H 0.033190 -1.016180 0.156930
C3 C -0.068440 -0.918960 0.140680
C4 C -0.102000 -0.854800 0.152290
H2 H -0.086610 -0.809180 0.134810
N1 N -0.161440 -0.867420 0.193320
C5 C -0.107160 -0.97123 0.174540
H3 H -0.096000 -1.021210 0.175330
N2 N -0.164630 -0.939370 0.207070
Zn1F Zn -0.25 -0.75000 0.1700(27)
Zn1M Zn -0.25 -0.75000 0.3300(27)
O1F O -0.25 -0.75000 0.1800(95)
O1M O -0.25 -0.75000 0.3200(95)
C1C C 0.099450 -1.002910 0.070260
C2P C 0.014710 -0.882450 0.044040
N1H N -0.338560 -0.867420 0.306680
N2H N -0.335370 -0.939370 0.292930
N2QA N -0.207070 -1.060630 0.335370
N2PA N -0.292930 -1.060630 0.164630
loop_
_geom_bond_atom_site_label_1
_geom_bond_atom_site_label_2
_geom_bond_site_symmetry_1
_geom_bond_site_symmetry_2
Zn1 O1 1_555 1_555
O1 Zn1F 1_555 1_555
Zn2 N2 1_555 1_555
C1 C2 1_555 1_555
C2 H1 1_555 1_555
C3 C1 1_555 1_555
C4 C3 1_555 1_555
H2 C4 1_555 1_555
N1 Zn1 1_555 1_555
C5 C3 1_555 1_555
H3 C5 1_555 1_555
N2 N1 1_555 1_555
Zn1F Zn1 1_555 1_555
Zn1M Zn1 1_555 1_555
O1F Zn1 1_555 1_555
O1M Zn1 1_555 1_555
C1C C2 1_555 1_555
C2P C1 1_555 1_555
N1H Zn1 1_555 1_555
N2H Zn2 1_555 1_555
N2QA Zn2 1_555 1_555
N2PA Zn2 1_555 1_555
O1 Zn1M 1_555 1_555
C4 N1 1_555 1_555
C5 N2 1_555 1_555
Zn1F O1F 1_555 1_555
Zn1M O1M 1_555 1_555
N1H N2H 1_555 1_555

#END
