
#######################################################################
#
#                 Cambridge Crystallographic Data Centre
#                                CCDC 
#
#######################################################################
#
# If this CIF has been generated from an entry in the Cambridge 
# Structural Database, then it will include bibliographic, chemical, 
# crystal, experimental, refinement or atomic coordinate data resulting 
# from the CCDC's data processing and validation procedures.
#
#######################################################################

data_UTEYIC
_symmetry_cell_setting           monoclinic
_symmetry_space_group_name_H-M   'P 21/c'
_symmetry_Int_Tables_number      14
_space_group_name_Hall           '-P 2ybc'
loop_
_symmetry_equiv_pos_site_id
_symmetry_equiv_pos_as_xyz
1 x,y,z
2 -x,1/2+y,1/2-z
3 -x,-y,-z
4 x,1/2-y,1/2+z
_cell_length_a                   10.093(3)
_cell_length_b                   20.139(5)
_cell_length_c                   9.676(2)
_cell_angle_alpha                90
_cell_angle_beta                 102.269(3)
_cell_angle_gamma                90
_cell_volume                     1921.85
loop_
_atom_site_label
_atom_site_type_symbol
_atom_site_fract_x
_atom_site_fract_y
_atom_site_fract_z
Co1 Co 0.84084(5) 0.05914(2) 1.07116(6)
Br1 Br 1.38667(6) 0.26292(3) 1.45498(7)
O1 O 1.0340(3) 0.09182(13) 1.1526(3)
O2 O 1.1497(3) 0.01217(15) 1.0747(3)
O3 O 1.6291(3) 0.06051(14) 1.0552(3)
O4 O 1.7462(3) 0.13115(14) 1.2056(3)
N1 N 0.8246(3) 0.13002(17) 0.9054(4)
N2 N 0.8857(4) 0.19033(16) 0.7387(4)
N3 N 1.0591(4) 0.08498(17) 0.5991(4)
N4 N 1.1445(4) 0.01455(16) 0.7679(4)
C1 C 1.2714(4) 0.10332(17) 1.1882(4)
C2 C 1.3914(4) 0.08547(18) 1.1492(4)
H1 H 1.3924 0.0497 1.0887
C3 C 1.5096(4) 0.12073(18) 1.2002(4)
C4 C 1.5090(4) 0.17304(19) 1.2935(4)
H2 H 1.5884 0.1962 1.3302
C5 C 1.3894(4) 0.1901(2) 1.3310(4)
C6 C 1.2701(4) 0.15678(18) 1.2790(4)
H3 H 1.1900 0.1698 1.3042
C7 C 1.1425(4) 0.06623(18) 1.1337(4)
C8 C 1.6367(4) 0.10332(19) 1.1506(4)
C9 C 0.9270(5) 0.15226(19) 0.8539(4)
H4 H 1.0174 0.1427 0.8927
C10 C 0.7129(5) 0.1556(3) 0.8180(5)
H5 H 0.6242 0.1486 0.8276
C11 C 0.7487(5) 0.1925(3) 0.7155(5)
H6 H 0.6906 0.2151 0.6432
C12 C 0.9736(5) 0.2224(2) 0.6584(5)
H7 H 1.0669 0.2175 0.7092
H8 H 0.9531 0.2695 0.6521
C13 C 0.9605(5) 0.1949(2) 0.5099(5)
H9 H 0.8787 0.2131 0.4509
H10 H 1.0366 0.2109 0.4729
C14 C 0.9550(5) 0.1199(2) 0.4953(5)
H11 H 0.8664 0.1047 0.5053
H12 H 0.9655 0.1082 0.4010
C15 C 1.0344(5) 0.0369(2) 0.6853(4)
H13 H 0.9480 0.0211 0.6862
C16 C 1.2481(5) 0.0512(3) 0.7332(6)
H14 H 1.3398 0.0468 0.7742
C17 C 1.1943(6) 0.0946(3) 0.6296(6)
H15 H 1.2418 0.1254 0.5872
Co1B Co 1.15916(5) -0.05914(2) 0.92884(6)
Co1_2 Co 1.84084(5) 0.05914(2) 1.07116(6)
O2B O 0.8503(3) -0.01217(15) 0.9253(3)
O3_2 O 0.6291(3) 0.06051(14) 1.0552(3)
O4_2 O 0.7462(3) 0.13115(14) 1.2056(3)
N4B N 0.8555(4) -0.01455(16) 1.2321(4)
loop_
_geom_bond_atom_site_label_1
_geom_bond_atom_site_label_2
_geom_bond_site_symmetry_1
_geom_bond_site_symmetry_2
Co1 O1 1_555 1_555
Br1 C5 1_555 1_555
O1 C7 1_555 1_555
O2 C7 1_555 1_555
O3 C8 1_555 1_555
O4 C8 1_555 1_555
N1 Co1 1_555 1_555
N2 C9 1_555 1_555
N3 C14 1_555 1_555
N4 C15 1_555 1_555
C1 C2 1_555 1_555
C2 H1 1_555 1_555
C3 C2 1_555 1_555
C4 C3 1_555 1_555
H2 C4 1_555 1_555
C5 C4 1_555 1_555
C6 C1 1_555 1_555
H3 C6 1_555 1_555
C7 C1 1_555 1_555
C8 C3 1_555 1_555
C9 N1 1_555 1_555
H4 C9 1_555 1_555
C10 N1 1_555 1_555
H5 C10 1_555 1_555
C11 N2 1_555 1_555
H6 C11 1_555 1_555
C12 N2 1_555 1_555
H7 C12 1_555 1_555
H8 C12 1_555 1_555
C13 C12 1_555 1_555
H9 C13 1_555 1_555
H10 C13 1_555 1_555
C14 C13 1_555 1_555
H11 C14 1_555 1_555
H12 C14 1_555 1_555
C15 N3 1_555 1_555
H13 C15 1_555 1_555
C16 N4 1_555 1_555
H14 C16 1_555 1_555
C17 N3 1_555 1_555
H15 C17 1_555 1_555
Co1B O2 1_555 1_555
Co1_2 O3 1_555 1_555
O2B Co1 1_555 1_555
O3_2 Co1 1_555 1_555
O4_2 Co1 1_555 1_555
N4B Co1 1_555 1_555
O4 Co1_2 1_555 1_555
N4 Co1B 1_555 1_555
C5 C6 1_555 1_555
C10 C11 1_555 1_555
C16 C17 1_555 1_555

#END
