
#######################################################################
#
#                 Cambridge Crystallographic Data Centre
#                                CCDC 
#
#######################################################################
#
# If this CIF has been generated from an entry in the Cambridge 
# Structural Database, then it will include bibliographic, chemical, 
# crystal, experimental, refinement or atomic coordinate data resulting 
# from the CCDC's data processing and validation procedures.
#
#######################################################################

data_UTEZAV
_symmetry_cell_setting           orthorhombic
_symmetry_space_group_name_H-M   'P b c a'
_symmetry_Int_Tables_number      61
_space_group_name_Hall           '-P 2ac 2ab'
loop_
_symmetry_equiv_pos_site_id
_symmetry_equiv_pos_as_xyz
1 x,y,z
2 1/2-x,-y,1/2+z
3 -x,1/2+y,1/2-z
4 1/2+x,1/2-y,-z
5 -x,-y,-z
6 1/2+x,y,1/2-z
7 x,1/2-y,1/2+z
8 1/2-x,1/2+y,z
_cell_length_a                   10.1385(10)
_cell_length_b                   17.0608(17)
_cell_length_c                   21.875(2)
_cell_angle_alpha                90
_cell_angle_beta                 90
_cell_angle_gamma                90
_cell_volume                     3783.74
loop_
_atom_site_label
_atom_site_type_symbol
_atom_site_fract_x
_atom_site_fract_y
_atom_site_fract_z
Ni1 Ni 0.84985(3) 0.09538(3) 0.471803(18)
O1 O 0.64285(19) 0.10254(14) 0.48345(9)
O2 O 0.72474(19) 0.05819(15) 0.39704(10)
O3 O 0.0301(2) 0.08452(14) 0.43220(10)
O4 O 0.1499(2) 0.02309(13) 0.50361(10)
N1 N 0.8993(3) 0.13594(17) 0.55768(13)
N2 N 0.9782(3) 0.15286(19) 0.65028(13)
N3 N 0.8481(3) 0.29132(17) 0.93590(13)
N4 N 0.9243(3) 0.17966(18) 0.89971(13)
Br1 Br 0.33302(4) 0.09056(4) 0.228140(17)
C1 C 0.4923(3) 0.07694(19) 0.40235(14)
C2 C 0.3819(3) 0.06892(19) 0.43909(15)
H1 H 0.3916 0.0645 0.4812
C3 C 0.2561(3) 0.06749(19) 0.41333(14)
C4 C 0.2416(3) 0.0758(2) 0.35048(15)
H2 H 0.1581 0.0769 0.3329
C5 C 0.3530(3) 0.0823(2) 0.31449(14)
C6 C 0.4779(3) 0.0823(2) 0.33913(15)
H3 H 0.5516 0.0859 0.3140
C7 C 0.6284(3) 0.07879(19) 0.42918(14)
C8 C 0.1357(3) 0.05703(19) 0.45358(15)
C9 C 0.8543(4) 0.2054(2) 0.58080(18)
H4 H 0.7987 0.2399 0.5603
C10 C 0.9023(4) 0.2166(3) 0.63760(18)
H5 H 0.8866 0.2593 0.6630
C11 C 0.9740(3) 0.1060(2) 0.60087(15)
H6 H 1.0184 0.0585 0.5977
C12 C 1.0613(4) 0.1424(3) 0.70416(17)
H7 H 1.1221 0.1861 0.7069
H8 H 1.1131 0.0950 0.6991
C13 C 0.9849(4) 0.1367(3) 0.76339(16)
H9 H 0.9341 0.0885 0.7640
H10 H 0.9241 0.1804 0.7666
C14 C 1.0804(4) 0.1378(3) 0.81717(17)
H11 H 1.1496 0.0997 0.8096
H12 H 1.1214 0.1891 0.8193
C15 C 1.0177(5) 0.1199(2) 0.87848(18)
H13 H 0.9719 0.0701 0.8756
H14 H 1.0869 0.1142 0.9087
C16 C 0.9517(4) 0.2544(2) 0.91402(16)
H15 H 1.0342 0.2774 0.9090
C17 C 0.7489(4) 0.2365(2) 0.93556(19)
H16 H 0.6627 0.2455 0.9482
C18 C 0.7951(4) 0.1676(2) 0.91415(19)
H17 H 0.7482 0.1210 0.9101
Ni1_2 Ni -0.15015(3) 0.09538(3) 0.471803(18)
Ni1D Ni 0.15015(3) -0.09538(3) 0.528197(18)
Ni1F Ni 0.84985(3) 0.40462(3) 0.971803(18)
O3_2 O 1.0301(2) 0.08452(14) 0.43220(10)
O4D O 0.8501(2) -0.02309(13) 0.49639(10)
N3F N 0.8481(3) 0.20868(17) 0.43590(13)
loop_
_geom_bond_atom_site_label_1
_geom_bond_atom_site_label_2
_geom_bond_site_symmetry_1
_geom_bond_site_symmetry_2
Ni1 O1 1_555 1_555
O1 C7 1_555 1_555
O2 Ni1 1_555 1_555
O3 C8 1_555 1_555
O4 C8 1_555 1_555
N1 Ni1 1_555 1_555
N2 C10 1_555 1_555
N3 C16 1_555 1_555
N4 C15 1_555 1_555
Br1 C5 1_555 1_555
C1 C2 1_555 1_555
C2 H1 1_555 1_555
C3 C2 1_555 1_555
C4 C3 1_555 1_555
H2 C4 1_555 1_555
C5 C4 1_555 1_555
C6 C1 1_555 1_555
H3 C6 1_555 1_555
C7 O2 1_555 1_555
C8 C3 1_555 1_555
C9 N1 1_555 1_555
H4 C9 1_555 1_555
C10 C9 1_555 1_555
H5 C10 1_555 1_555
C11 N1 1_555 1_555
H6 C11 1_555 1_555
C12 N2 1_555 1_555
H7 C12 1_555 1_555
H8 C12 1_555 1_555
C13 C12 1_555 1_555
H9 C13 1_555 1_555
H10 C13 1_555 1_555
C14 C13 1_555 1_555
H11 C14 1_555 1_555
H12 C14 1_555 1_555
C15 C14 1_555 1_555
H13 C15 1_555 1_555
H14 C15 1_555 1_555
C16 N4 1_555 1_555
H15 C16 1_555 1_555
C17 N3 1_555 1_555
H16 C17 1_555 1_555
C18 N4 1_555 1_555
H17 C18 1_555 1_555
Ni1_2 O3 1_555 1_555
Ni1D O4 1_555 1_555
Ni1F N3 1_555 1_555
O3_2 Ni1 1_555 1_555
O4D Ni1 1_555 1_555
N3F Ni1 1_555 1_555
N2 C11 1_555 1_555
C1 C7 1_555 1_555
C5 C6 1_555 1_555
C17 C18 1_555 1_555

#END
