
#######################################################################
#
#                 Cambridge Crystallographic Data Centre
#                                CCDC 
#
#######################################################################
#
# If this CIF has been generated from an entry in the Cambridge 
# Structural Database, then it will include bibliographic, chemical, 
# crystal, experimental, refinement or atomic coordinate data resulting 
# from the CCDC's data processing and validation procedures.
#
#######################################################################

data_UTIHIP
_symmetry_cell_setting           monoclinic
_symmetry_space_group_name_H-M   'P 21/c'
_symmetry_Int_Tables_number      14
_space_group_name_Hall           '-P 2ybc'
loop_
_symmetry_equiv_pos_site_id
_symmetry_equiv_pos_as_xyz
1 x,y,z
2 -x,1/2+y,1/2-z
3 -x,-y,-z
4 x,1/2-y,1/2+z
_cell_length_a                   3.608(2)
_cell_length_b                   7.065(5)
_cell_length_c                   26.342(4)
_cell_angle_alpha                90
_cell_angle_beta                 92.093(6)
_cell_angle_gamma                90
_cell_volume                     671.023
loop_
_atom_site_label
_atom_site_type_symbol
_atom_site_fract_x
_atom_site_fract_y
_atom_site_fract_z
Co1 Co -1.5000 0.5000 0.0000
Cl1 Cl -2.0214(4) 0.2961(2) -0.03364(5)
N1 N -1.7551(16) 1.0980(9) -0.2353(2)
N2 N -1.5266(12) 0.6611(7) -0.06974(17)
C1 C -1.6950(17) 0.9986(11) -0.2015(2)
C2 C -1.6302(16) 0.8791(9) -0.1569(2)
C3 C -1.6895(16) 0.6865(9) -0.1590(2)
H1 H -1.7634 0.6275 -0.1892
C4 C -1.6358(15) 0.5844(9) -0.1149(2)
H2 H -1.6771 0.4545 -0.1162
C5 C -1.4596(16) 0.8498(8) -0.0690(2)
H3 H -1.3771 0.9052 -0.0387
C6 C -1.5085(16) 0.9641(8) -0.1116(2)
H4 H -1.4613 1.0934 -0.1099
Co1_2 Co -2.5000 0.5000 0.0000
Cl1_2 Cl -1.0214(4) 0.2961(2) -0.03364(5)
Cl1B Cl -1.9786(4) 0.7039(2) 0.03364(5)
Cl1B_2 Cl -0.9786(4) 0.7039(2) 0.03364(5)
N1B N -1.2449(16) -0.0980(9) 0.2353(2)
N2B N -1.4734(12) 0.3389(7) 0.06974(17)
C1B C -1.3050(17) 0.0014(11) 0.2015(2)
C2B C -1.3698(16) 0.1209(9) 0.1569(2)
C3B C -1.3105(16) 0.3135(9) 0.1590(2)
H1B H -1.2366 0.3725 0.1892
C4B C -1.3642(15) 0.4156(9) 0.1149(2)
H2B H -1.3229 0.5455 0.1162
C5B C -1.5404(16) 0.1502(8) 0.0690(2)
H3B H -1.6229 0.0948 0.0387
C6B C -1.4915(16) 0.0359(8) 0.1116(2)
H4B H -1.5387 -0.0934 0.1099
loop_
_geom_bond_atom_site_label_1
_geom_bond_atom_site_label_2
_geom_bond_site_symmetry_1
_geom_bond_site_symmetry_2
Co1 Cl1 1_555 1_555
Cl1 Co1_2 1_555 1_555
N1 C1 1_555 1_555
N2 Co1 1_555 1_555
C1 C2 1_555 1_555
C2 C3 1_555 1_555
C3 H1 1_555 1_555
C4 N2 1_555 1_555
H2 C4 1_555 1_555
C5 N2 1_555 1_555
H3 C5 1_555 1_555
C6 C2 1_555 1_555
H4 C6 1_555 1_555
Co1_2 Cl1B 1_555 1_555
Cl1_2 Co1 1_555 1_555
Cl1B Co1 1_555 1_555
Cl1B_2 Co1 1_555 1_555
N1B C1B 1_555 1_555
N2B Co1 1_555 1_555
C1B C2B 1_555 1_555
C2B C3B 1_555 1_555
C3B H1B 1_555 1_555
C4B N2B 1_555 1_555
H2B C4B 1_555 1_555
C5B N2B 1_555 1_555
H3B C5B 1_555 1_555
C6B C2B 1_555 1_555
H4B C6B 1_555 1_555
C3 C4 1_555 1_555
C5 C6 1_555 1_555
C3B C4B 1_555 1_555
C5B C6B 1_555 1_555

#END
