
#######################################################################
#
#                 Cambridge Crystallographic Data Centre
#                                CCDC 
#
#######################################################################
#
# If this CIF has been generated from an entry in the Cambridge 
# Structural Database, then it will include bibliographic, chemical, 
# crystal, experimental, refinement or atomic coordinate data resulting 
# from the CCDC's data processing and validation procedures.
#
#######################################################################

data_UTIHAH
_symmetry_cell_setting           monoclinic
_symmetry_space_group_name_H-M   'P 21/c'
_symmetry_Int_Tables_number      14
_space_group_name_Hall           '-P 2ybc'
loop_
_symmetry_equiv_pos_site_id
_symmetry_equiv_pos_as_xyz
1 x,y,z
2 -x,1/2+y,1/2-z
3 -x,-y,-z
4 x,1/2-y,1/2+z
_cell_length_a                   3.710(2)
_cell_length_b                   13.420(4)
_cell_length_c                   12.987(2)
_cell_angle_alpha                90
_cell_angle_beta                 97.48
_cell_angle_gamma                90
_cell_volume                     641.097
loop_
_atom_site_label
_atom_site_type_symbol
_atom_site_fract_x
_atom_site_fract_y
_atom_site_fract_z
Cu1 Cu 1.5000 1.5000 0.5000
Cl1 Cl 0.8333(2) 1.54535(7) 0.37119(7)
N1 N 1.5176(8) 1.6413(2) 0.5546(2)
N2 N 1.0707(10) 1.9413(3) 0.3917(3)
C1 C 1.3890(10) 1.7152(3) 0.4916(3)
H1 H 1.3141 1.7012 0.4220
C2 C 1.3631(10) 1.8129(3) 0.5268(3)
C3 C 1.4841(10) 1.8350(3) 0.6301(3)
H2 H 1.4718 1.8996 0.6554
C4 C 1.6228(10) 1.7584(3) 0.6942(3)
H3 H 1.7095 1.7711 0.7634
C5 C 1.6327(10) 1.6623(3) 0.6550(3)
H4 H 1.7214 1.6109 0.6993
C6 C 1.2057(10) 1.8868(3) 0.4520(3)
Cu1_2 Cu 0.5000 1.5000 0.5000
Cl1_2 Cl 1.8333(2) 1.54535(7) 0.37119(7)
Cl1B Cl 1.1667(2) 1.45465(7) 0.62881(7)
Cl1B_2 Cl 2.1667(2) 1.45465(7) 0.62881(7)
N1B N 1.4824(8) 1.3587(2) 0.4454(2)
N2B N 1.9293(10) 1.0587(3) 0.6083(3)
C1B C 1.6110(10) 1.2848(3) 0.5084(3)
H1B H 1.6859 1.2988 0.5780
C2B C 1.6369(10) 1.1871(3) 0.4732(3)
C3B C 1.5159(10) 1.1650(3) 0.3699(3)
H2B H 1.5282 1.1004 0.3446
C4B C 1.3772(10) 1.2416(3) 0.3058(3)
H3B H 1.2905 1.2289 0.2366
C5B C 1.3673(10) 1.3377(3) 0.3450(3)
H4B H 1.2786 1.3891 0.3007
C6B C 1.7943(10) 1.1132(3) 0.5480(3)
loop_
_geom_bond_atom_site_label_1
_geom_bond_atom_site_label_2
_geom_bond_site_symmetry_1
_geom_bond_site_symmetry_2
Cu1 Cl1 1_555 1_555
Cl1 Cu1_2 1_555 1_555
N1 Cu1 1_555 1_555
N2 C6 1_555 1_555
C1 N1 1_555 1_555
H1 C1 1_555 1_555
C2 C1 1_555 1_555
C3 C2 1_555 1_555
H2 C3 1_555 1_555
C4 C3 1_555 1_555
H3 C4 1_555 1_555
C5 N1 1_555 1_555
H4 C5 1_555 1_555
C6 C2 1_555 1_555
Cu1_2 Cl1B 1_555 1_555
Cl1_2 Cu1 1_555 1_555
Cl1B Cu1 1_555 1_555
Cl1B_2 Cu1 1_555 1_555
N1B Cu1 1_555 1_555
N2B C6B 1_555 1_555
C1B N1B 1_555 1_555
H1B C1B 1_555 1_555
C2B C1B 1_555 1_555
C3B C2B 1_555 1_555
H2B C3B 1_555 1_555
C4B C3B 1_555 1_555
H3B C4B 1_555 1_555
C5B N1B 1_555 1_555
H4B C5B 1_555 1_555
C6B C2B 1_555 1_555
C4 C5 1_555 1_555
C4B C5B 1_555 1_555

#END
