
#######################################################################
#
#                 Cambridge Crystallographic Data Centre
#                                CCDC 
#
#######################################################################
#
# If this CIF has been generated from an entry in the Cambridge 
# Structural Database, then it will include bibliographic, chemical, 
# crystal, experimental, refinement or atomic coordinate data resulting 
# from the CCDC's data processing and validation procedures.
#
#######################################################################

data_UTIKOY
_symmetry_cell_setting           monoclinic
_symmetry_space_group_name_H-M   'C 2/c'
_symmetry_Int_Tables_number      15
_space_group_name_Hall           '-C 2yn'
loop_
_symmetry_equiv_pos_site_id
_symmetry_equiv_pos_as_xyz
1 x,y,z
2 -x,y,1/2-z
3 1/2+x,1/2+y,z
4 1/2-x,1/2+y,1/2-z
5 -x,-y,-z
6 x,-y,1/2+z
7 1/2-x,1/2-y,-z
8 1/2+x,1/2-y,1/2+z
_cell_length_a                   28.090(3)
_cell_length_b                   9.0958(9)
_cell_length_c                   17.5746(17)
_cell_angle_alpha                90
_cell_angle_beta                 126.863(1)
_cell_angle_gamma                90
_cell_volume                     3592.59
loop_
_atom_site_label
_atom_site_type_symbol
_atom_site_fract_x
_atom_site_fract_y
_atom_site_fract_z
Ce1 Ce 0.247434(8) 0.639230(19) 0.615311(12)
P1 P 0.37940(4) 0.74999(10) 0.63060(6)
P2 P 0.27010(4) 1.04713(9) 0.56991(6)
O1 O 0.34489(11) 0.6550(2) 0.65124(16)
O2 O 0.34583(10) 0.8302(2) 0.53759(15)
O3 O 0.43225(11) 0.6626(3) 0.64590(17)
H1 H 0.4319 0.6745 0.5974
O4 O 0.25496(11) 0.8925(2) 0.57506(17)
O5 O 0.26599(11) 1.0843(3) 0.48227(15)
O6 O 0.23067(11) 1.1558(2) 0.57975(17)
H2 H 0.2322 1.2403 0.5603
O7 O 0.30790(10) 0.7864(3) 0.76756(15)
O8 O 0.30833(10) 0.9638(3) 0.85595(16)
O9 O 0.18810(11) 0.7768(3) 0.66103(17)
O10 O 0.19019(11) 0.9469(3) 0.75491(16)
N1 N 0.38177(12) 0.9702(3) 0.74589(18)
H7 H 0.3551 0.9062 0.7411
C1 C 0.41936(15) 0.8821(4) 0.7276(2)
H8 H 0.4395 0.9496 0.7137
H9 H 0.4491 0.8298 0.7849
C2 C 0.34566(16) 1.0900(4) 0.6746(3)
H10 H 0.3435 1.1718 0.7072
H11 H 0.3674 1.1227 0.6515
C3 C 0.42082(17) 1.0313(4) 0.8478(2)
H12 H 0.3964 1.0869 0.8588
H13 H 0.4375 0.9496 0.8916
C4 C 0.47014(16) 1.1275(4) 0.8672(2)
C5 C 0.52756(17) 1.0723(5) 0.9159(2)
H14 H 0.5351 0.9750 0.9362
C6 C 0.57369(18) 1.1601(5) 0.9346(3)
H15 H 0.6121 1.1224 0.9688
C7 C 0.56288(19) 1.3022(5) 0.9031(3)
H16 H 0.5938 1.3607 0.9146
C8 C 0.50576(19) 1.3592(4) 0.8538(3)
H17 H 0.4981 1.4554 0.8314
C9 C 0.46055(18) 1.2730(4) 0.8380(3)
H18 H 0.4227 1.3130 0.8071
C10 C 0.28269(16) 0.8711(4) 0.7905(2)
C11 C 0.21403(16) 0.8642(4) 0.7299(2)
Ce1F Ce 0.252566(8) 0.860770(19) 0.384689(12)
Ce1C Ce 0.252566(8) 1.139230(19) 0.884689(12)
O2F O 0.15417(10) 0.6698(2) 0.46241(15)
O5F O 0.23401(11) 0.4157(3) 0.51773(15)
O8C O 0.19167(10) 0.4638(3) 0.64405(16)
O10C O 0.30981(11) 0.4469(3) 0.74509(16)
O11 O 0.43781(19) 0.6829(4) 0.5057(3)
H3 H 0.4662 0.6583 0.5035
H4 H 0.4105 0.7244 0.4537
O12 O 0.07300(18) 0.1096(4) 0.6034(3)
H5 H 0.0493 0.0651 0.6105
H6 H 0.0934 0.1721 0.6480
loop_
_geom_bond_atom_site_label_1
_geom_bond_atom_site_label_2
_geom_bond_site_symmetry_1
_geom_bond_site_symmetry_2
Ce1 O1 1_555 1_555
P1 O1 1_555 1_555
P2 O4 1_555 1_555
O2 P1 1_555 1_555
O3 P1 1_555 1_555
H1 O3 1_555 1_555
O4 Ce1 1_555 1_555
O5 P2 1_555 1_555
O6 P2 1_555 1_555
H2 O6 1_555 1_555
O7 Ce1 1_555 1_555
O8 C10 1_555 1_555
O9 Ce1 1_555 1_555
O10 C11 1_555 1_555
O11 H3 1_555 1_555
H4 O11 1_555 1_555
O12 H5 1_555 1_555
H6 O12 1_555 1_555
N1 H7 1_555 1_555
C1 P1 1_555 1_555
H8 C1 1_555 1_555
H9 C1 1_555 1_555
C2 P2 1_555 1_555
H10 C2 1_555 1_555
H11 C2 1_555 1_555
C3 N1 1_555 1_555
H12 C3 1_555 1_555
H13 C3 1_555 1_555
C4 C3 1_555 1_555
C5 C4 1_555 1_555
H14 C5 1_555 1_555
C6 C5 1_555 1_555
H15 C6 1_555 1_555
C7 C6 1_555 1_555
H16 C7 1_555 1_555
C8 C7 1_555 1_555
H17 C8 1_555 1_555
C9 C4 1_555 1_555
H18 C9 1_555 1_555
C10 O7 1_555 1_555
C11 O9 1_555 1_555
Ce1F O2 1_555 1_555
Ce1C O8 1_555 1_555
O2F Ce1 1_555 1_555
O5F Ce1 1_555 1_555
O8C Ce1 1_555 1_555
O10C Ce1 1_555 1_555
O5 Ce1F 1_555 1_555
O10 Ce1C 1_555 1_555
N1 C1 1_555 1_555
N1 C2 1_555 1_555
C8 C9 1_555 1_555
C10 C11 1_555 1_555

#END
