
#######################################################################
#
#                 Cambridge Crystallographic Data Centre
#                                CCDC 
#
#######################################################################
#
# If this CIF has been generated from an entry in the Cambridge 
# Structural Database, then it will include bibliographic, chemical, 
# crystal, experimental, refinement or atomic coordinate data resulting 
# from the CCDC's data processing and validation procedures.
#
#######################################################################

data_UTILOZ
_symmetry_cell_setting           monoclinic
_symmetry_space_group_name_H-M   'C 2/c'
_symmetry_Int_Tables_number      15
_space_group_name_Hall           '-C 2yn'
loop_
_symmetry_equiv_pos_site_id
_symmetry_equiv_pos_as_xyz
1 x,y,z
2 -x,y,1/2-z
3 1/2+x,1/2+y,z
4 1/2-x,1/2+y,1/2-z
5 -x,-y,-z
6 x,-y,1/2+z
7 1/2-x,1/2-y,-z
8 1/2+x,1/2-y,1/2+z
_cell_length_a                   28.425(17)
_cell_length_b                   8.924(5)
_cell_length_c                   17.391(10)
_cell_angle_alpha                90
_cell_angle_beta                 126.617(7)
_cell_angle_gamma                90
_cell_volume                     3540.83
loop_
_atom_site_label
_atom_site_type_symbol
_atom_site_fract_x
_atom_site_fract_y
_atom_site_fract_z
Gd1 Gd 0.247790(16) 0.63886(4) 0.61962(3)
P1 P 0.37277(9) 0.7443(2) 0.62380(14)
P2 P 0.26772(9) 1.0447(2) 0.56905(14)
O1 O 0.3382(2) 0.6520(5) 0.6458(4)
O2 O 0.3404(2) 0.8287(6) 0.5311(4)
O3 O 0.4232(2) 0.6508(6) 0.6373(4)
H1 H 0.4228 0.6627 0.5888
O4 O 0.2544(2) 0.8924(5) 0.5838(4)
O5 O 0.2607(2) 1.0717(6) 0.4773(4)
O6 O 0.2307(2) 1.1623(6) 0.5799(4)
H2 H 0.2323 1.2468 0.5604
O7 O 0.3078(2) 0.7768(6) 0.7717(3)
O8 O 0.3084(2) 0.9604(6) 0.8598(4)
O9 O 0.1905(2) 0.7688(6) 0.6637(4)
O10 O 0.1917(2) 0.9495(6) 0.7555(4)
N1 N 0.3787(3) 0.9675(7) 0.7433(4)
H7 H 0.3520 0.9035 0.7385
C1 C 0.4145(3) 0.8758(9) 0.7229(6)
H8 H 0.4347 0.9433 0.7089
H9 H 0.4442 0.8235 0.7801
C2 C 0.3434(3) 1.0911(9) 0.6706(6)
H10 H 0.3413 1.1729 0.7033
H11 H 0.3652 1.1238 0.6475
C3 C 0.4177(4) 1.0303(10) 0.8457(6)
H12 H 0.3932 1.0859 0.8567
H13 H 0.4343 0.9487 0.8894
C4 C 0.4678(3) 1.1222(10) 0.8654(6)
C5 C 0.5227(4) 1.0609(11) 0.9130(6)
H14 H 0.5284 0.9610 0.9318
C6 C 0.5702(4) 1.1458(11) 0.9338(6)
H15 H 0.6075 1.1040 0.9679
C7 C 0.5611(4) 1.2934(11) 0.9029(7)
H16 H 0.5923 1.3508 0.9156
C8 C 0.5069(4) 1.3536(11) 0.8545(7)
H17 H 0.5012 1.4519 0.8328
C9 C 0.4598(4) 1.2735(10) 0.8365(6)
H18 H 0.4232 1.3186 0.8056
C10 C 0.2833(3) 0.8652(8) 0.7939(5)
C11 C 0.2164(3) 0.8602(9) 0.7333(5)
Gd1F Gd 0.252210(16) 0.86114(4) 0.38038(3)
Gd1C Gd 0.252210(16) 1.13886(4) 0.88038(3)
O2F O 0.1596(2) 0.6713(6) 0.4689(4)
O5F O 0.2393(2) 0.4283(6) 0.5227(4)
O8C O 0.1916(2) 0.4604(6) 0.6402(4)
O10C O 0.3083(2) 0.4495(6) 0.7445(4)
O11 O 0.4295(4) 0.6739(8) 0.4962(5)
H3 H 0.4578 0.6493 0.4940
H4 H 0.4022 0.7155 0.4441
O12 O 0.0745(4) 0.1078(9) 0.6049(6)
H5 H 0.0508 0.0633 0.6121
H6 H 0.0949 0.1703 0.6496
loop_
_geom_bond_atom_site_label_1
_geom_bond_atom_site_label_2
_geom_bond_site_symmetry_1
_geom_bond_site_symmetry_2
Gd1 O1 1_555 1_555
P1 O1 1_555 1_555
P2 O4 1_555 1_555
O2 P1 1_555 1_555
O3 P1 1_555 1_555
H1 O3 1_555 1_555
O4 Gd1 1_555 1_555
O5 P2 1_555 1_555
O6 P2 1_555 1_555
H2 O6 1_555 1_555
O7 Gd1 1_555 1_555
O8 C10 1_555 1_555
O9 Gd1 1_555 1_555
O10 C11 1_555 1_555
O11 H3 1_555 1_555
H4 O11 1_555 1_555
O12 H5 1_555 1_555
H6 O12 1_555 1_555
N1 H7 1_555 1_555
C1 P1 1_555 1_555
H8 C1 1_555 1_555
H9 C1 1_555 1_555
C2 P2 1_555 1_555
H10 C2 1_555 1_555
H11 C2 1_555 1_555
C3 N1 1_555 1_555
H12 C3 1_555 1_555
H13 C3 1_555 1_555
C4 C3 1_555 1_555
C5 C4 1_555 1_555
H14 C5 1_555 1_555
C6 C5 1_555 1_555
H15 C6 1_555 1_555
C7 C6 1_555 1_555
H16 C7 1_555 1_555
C8 C7 1_555 1_555
H17 C8 1_555 1_555
C9 C4 1_555 1_555
H18 C9 1_555 1_555
C10 O7 1_555 1_555
C11 O9 1_555 1_555
Gd1F O2 1_555 1_555
Gd1C O8 1_555 1_555
O2F Gd1 1_555 1_555
O5F Gd1 1_555 1_555
O8C Gd1 1_555 1_555
O10C Gd1 1_555 1_555
O5 Gd1F 1_555 1_555
O10 Gd1C 1_555 1_555
N1 C1 1_555 1_555
N1 C2 1_555 1_555
C8 C9 1_555 1_555
C10 C11 1_555 1_555

#END
