
#######################################################################
#
#                 Cambridge Crystallographic Data Centre
#                                CCDC 
#
#######################################################################
#
# If this CIF has been generated from an entry in the Cambridge 
# Structural Database, then it will include bibliographic, chemical, 
# crystal, experimental, refinement or atomic coordinate data resulting 
# from the CCDC's data processing and validation procedures.
#
#######################################################################

data_UTILIT
_symmetry_cell_setting           monoclinic
_symmetry_space_group_name_H-M   'C 2/c'
_symmetry_Int_Tables_number      15
_space_group_name_Hall           '-C 2yn'
loop_
_symmetry_equiv_pos_site_id
_symmetry_equiv_pos_as_xyz
1 x,y,z
2 -x,y,1/2-z
3 1/2+x,1/2+y,z
4 1/2-x,1/2+y,1/2-z
5 -x,-y,-z
6 x,-y,1/2+z
7 1/2-x,1/2-y,-z
8 1/2+x,1/2-y,1/2+z
_cell_length_a                   28.298(3)
_cell_length_b                   8.9336(9)
_cell_length_c                   17.3809(18)
_cell_angle_alpha                90
_cell_angle_beta                 126.592(1)
_cell_angle_gamma                90
_cell_volume                     3527.9
loop_
_atom_site_label
_atom_site_type_symbol
_atom_site_fract_x
_atom_site_fract_y
_atom_site_fract_z
Eu1 Eu 0.247646(10) 0.63889(2) 0.619041(15)
P1 P 0.37353(5) 0.74473(13) 0.62457(8)
P2 P 0.26804(5) 1.04507(13) 0.56955(8)
O1 O 0.33888(14) 0.6516(3) 0.6460(2)
O2 O 0.34085(14) 0.8292(3) 0.5318(2)
O3 O 0.42458(15) 0.6519(4) 0.6384(2)
H1 H 0.4242 0.6638 0.5900
O4 O 0.25432(14) 0.8916(3) 0.5830(2)
O5 O 0.26168(14) 1.0740(3) 0.4781(2)
O6 O 0.23016(15) 1.1607(3) 0.5793(2)
H2 H 0.2317 1.2452 0.5598
O7 O 0.30799(14) 0.7775(3) 0.7713(2)
O8 O 0.30833(14) 0.9610(4) 0.8594(2)
O9 O 0.18993(15) 0.7708(4) 0.6632(2)
O10 O 0.19172(14) 0.9492(4) 0.7558(2)
N1 N 0.37905(17) 0.9684(4) 0.7436(3)
H7 H 0.3524 0.9044 0.7388
C1 C 0.4150(2) 0.8770(5) 0.7233(3)
H8 H 0.4352 0.9445 0.7094
H9 H 0.4448 0.8247 0.7806
C2 C 0.3435(2) 1.0893(5) 0.6708(4)
H10 H 0.3414 1.1711 0.7034
H11 H 0.3652 1.1220 0.6477
C3 C 0.4175(2) 1.0299(6) 0.8453(3)
H12 H 0.3931 1.0855 0.8563
H13 H 0.4342 0.9482 0.8891
C4 C 0.4680(2) 1.1227(5) 0.8655(3)
C5 C 0.5242(2) 1.0623(6) 0.9143(3)
H14 H 0.5305 0.9633 0.9347
C6 C 0.5708(2) 1.1470(7) 0.9331(4)
H15 H 0.6082 1.1052 0.9662
C7 C 0.5618(2) 1.2931(7) 0.9031(4)
H16 H 0.5931 1.3504 0.9158
C8 C 0.5063(2) 1.3550(6) 0.8540(4)
H17 H 0.5003 1.4533 0.8324
C9 C 0.4595(2) 1.2723(6) 0.8367(4)
H18 H 0.4226 1.3161 0.8060
C10 C 0.2831(2) 0.8662(5) 0.7938(3)
C11 C 0.2156(2) 0.8609(5) 0.7319(3)
Eu1F Eu 0.252354(10) 0.86111(2) 0.380959(15)
Eu1C Eu 0.252354(10) 1.13889(2) 0.880959(15)
O2F O 0.15915(14) 0.6708(3) 0.4682(2)
O5F O 0.23832(14) 0.4260(3) 0.5219(2)
O8C O 0.19167(14) 0.4610(4) 0.6406(2)
O10C O 0.30828(14) 0.4492(4) 0.7442(2)
O11 O 0.4305(2) 0.6746(5) 0.4975(3)
H3 H 0.4589 0.6500 0.4953
H4 H 0.4032 0.7161 0.4454
O12 O 0.0749(2) 0.1067(5) 0.6055(3)
H5 H 0.0512 0.0622 0.6126
H6 H 0.0953 0.1692 0.6501
loop_
_geom_bond_atom_site_label_1
_geom_bond_atom_site_label_2
_geom_bond_site_symmetry_1
_geom_bond_site_symmetry_2
Eu1 O1 1_555 1_555
P1 O1 1_555 1_555
P2 O4 1_555 1_555
O2 P1 1_555 1_555
O3 P1 1_555 1_555
H1 O3 1_555 1_555
O4 Eu1 1_555 1_555
O5 P2 1_555 1_555
O6 P2 1_555 1_555
H2 O6 1_555 1_555
O7 Eu1 1_555 1_555
O8 C10 1_555 1_555
O9 Eu1 1_555 1_555
O10 C11 1_555 1_555
O11 H3 1_555 1_555
H4 O11 1_555 1_555
O12 H5 1_555 1_555
H6 O12 1_555 1_555
N1 H7 1_555 1_555
C1 P1 1_555 1_555
H8 C1 1_555 1_555
H9 C1 1_555 1_555
C2 P2 1_555 1_555
H10 C2 1_555 1_555
H11 C2 1_555 1_555
C3 N1 1_555 1_555
H12 C3 1_555 1_555
H13 C3 1_555 1_555
C4 C3 1_555 1_555
C5 C4 1_555 1_555
H14 C5 1_555 1_555
C6 C5 1_555 1_555
H15 C6 1_555 1_555
C7 C6 1_555 1_555
H16 C7 1_555 1_555
C8 C7 1_555 1_555
H17 C8 1_555 1_555
C9 C4 1_555 1_555
H18 C9 1_555 1_555
C10 O7 1_555 1_555
C11 O9 1_555 1_555
Eu1F O2 1_555 1_555
Eu1C O8 1_555 1_555
O2F Eu1 1_555 1_555
O5F Eu1 1_555 1_555
O8C Eu1 1_555 1_555
O10C Eu1 1_555 1_555
O5 Eu1F 1_555 1_555
O10 Eu1C 1_555 1_555
N1 C1 1_555 1_555
N1 C2 1_555 1_555
C8 C9 1_555 1_555
C10 C11 1_555 1_555

#END
