
#######################################################################
#
#                 Cambridge Crystallographic Data Centre
#                                CCDC 
#
#######################################################################
#
# If this CIF has been generated from an entry in the Cambridge 
# Structural Database, then it will include bibliographic, chemical, 
# crystal, experimental, refinement or atomic coordinate data resulting 
# from the CCDC's data processing and validation procedures.
#
#######################################################################

data_UTINOB
_symmetry_cell_setting           triclinic
_symmetry_space_group_name_H-M   'P -1'
_symmetry_Int_Tables_number      2
_space_group_name_Hall           '-P 1'
loop_
_symmetry_equiv_pos_site_id
_symmetry_equiv_pos_as_xyz
1 x,y,z
2 -x,-y,-z
_cell_length_a                   10.1145(5)
_cell_length_b                   12.3815(6)
_cell_length_c                   13.7981(6)
_cell_angle_alpha                100.475(1)
_cell_angle_beta                 107.983(1)
_cell_angle_gamma                109.231(1)
_cell_volume                     1472.5
loop_
_atom_site_label
_atom_site_type_symbol
_atom_site_fract_x
_atom_site_fract_y
_atom_site_fract_z
Ni1 Ni 0.33230(5) 0.76344(4) 0.54465(3)
Zn1 Zn 0.08150(4) 0.54954(3) 0.12315(3)
Zn2 Zn -0.78385(4) 0.74730(3) 0.00559(3)
O1 O 0.2927(3) 0.6841(2) 0.24516(17)
O2 O 0.0343(3) 0.5509(2) 0.26031(17)
O3 O -0.5648(2) 0.8341(2) 0.0600(2)
O4 O -0.5450(3) 0.6611(2) 0.0143(2)
O5 O -0.0197(3) 0.6758(2) 0.1166(2)
O6 O 0.1485(2) 0.83388(19) 0.09968(18)
O7 O 0.0930(3) 1.2179(2) 0.1647(3)
O8 O -0.1396(3) 1.2140(2) 0.12596(19)
O9 O 0.1302(2) 0.57729(17) -0.00923(16)
H1 H 0.1982 0.5541 -0.0160
O10 O 0.1836(3) 0.4314(2) 0.1405(2)
H2 H 0.1398 0.3647 0.1495
H3 H 0.2758 0.4493 0.1484
N1 N 0.3982(3) 0.7798(2) 0.4304(2)
N2 N 0.1368(3) 0.6693(3) 0.4378(2)
N3 N 0.2718(4) 0.7051(3) 0.6483(2)
N4 N 0.5101(3) 0.8875(3) 0.6520(2)
C1 C 0.2897(4) 0.7024(3) 0.3358(3)
C2 C 0.1395(4) 0.6314(3) 0.3427(3)
C3 C -0.0002(4) 0.6457(3) 0.4529(3)
C4 C -0.1343(5) 0.6303(4) 0.3727(3)
H6 H -0.1375 0.6286 0.3043
C5 C -0.2631(5) 0.6174(4) 0.3934(4)
H7 H -0.3514 0.6089 0.3392
C6 C -0.2618(6) 0.6169(5) 0.4935(4)
H8 H -0.3491 0.6080 0.5066
C7 C -0.1319(5) 0.6298(4) 0.5738(4)
H9 H -0.1322 0.6274 0.6407
C8 C 0.0014(5) 0.6465(3) 0.5557(3)
C9 C 0.1356(5) 0.6599(3) 0.6427(3)
H10 H 0.1216 0.6334 0.6992
C10 C 0.3950(5) 0.7023(4) 0.7375(3)
H11 H 0.4501 0.6636 0.7087
H12 H 0.3511 0.6548 0.7773
C11 C 0.5050(5) 0.8279(4) 0.8126(3)
H13 H 0.4779 0.8451 0.8735
H14 H 0.6072 0.8309 0.8397
C12 C 0.5046(5) 0.9234(4) 0.7588(3)
H15 H 0.4132 0.9370 0.7503
H16 H 0.5921 0.9984 0.8038
C13 C 0.6227(4) 0.9555(3) 0.6375(3)
H17 H 0.6964 1.0212 0.6964
C14 C 0.6490(4) 0.9422(3) 0.5400(3)
C15 C 0.7910(4) 1.0233(4) 0.5481(3)
H18 H 0.8590 1.0808 0.6141
C16 C 0.8319(4) 1.0204(4) 0.4637(3)
H19 H 0.9256 1.0755 0.4708
C17 C 0.7312(5) 0.9336(4) 0.3667(3)
H20 H 0.7590 0.9289 0.3084
C18 C 0.5907(4) 0.8539(4) 0.3542(3)
H21 H 0.5253 0.7971 0.2872
C19 C 0.5435(4) 0.8559(3) 0.4390(3)
C20 C -0.3208(3) 0.8436(3) 0.0839(2)
C21 C -0.2247(3) 0.7845(3) 0.0921(2)
H22 H -0.2627 0.7024 0.0835
C22 C -0.0717(3) 0.8477(3) 0.1133(2)
C23 C -0.0144(3) 0.9707(3) 0.1291(2)
H23 H 0.0877 1.0129 0.1425
C24 C -0.1092(3) 1.0313(3) 0.1248(2)
C25 C -0.2619(3) 0.9673(3) 0.1008(2)
H24 H -0.3260 1.0073 0.0960
C26 C -0.4885(4) 0.7727(3) 0.0509(3)
C27 C 0.0254(3) 0.7793(3) 0.1103(2)
C28 C -0.0451(4) 1.1644(3) 0.1399(3)
Zn1A Zn -0.08150(4) 0.45046(3) -0.12315(3)
Zn2_2 Zn 0.21615(4) 0.74730(3) 0.00559(3)
Zn2A Zn -0.21615(4) 1.25270(3) -0.00559(3)
O6_2 O -0.8515(2) 0.83388(19) 0.09968(18)
O8A O -0.8604(3) 0.7860(2) -0.12596(19)
O9A O -0.1302(2) 0.42271(17) 0.00923(16)
O9_2 O -0.8698(2) 0.57729(17) -0.00923(16)
H1A H -0.1982 0.4459 0.0160
H1_2 H -0.8018 0.5541 -0.0160
O11 O 0.4667(4) 0.4916(3) 0.1251(3)
H4 H 0.4238 0.4233 0.0724
H5 H 0.4374 0.5463 0.1062
loop_
_geom_bond_atom_site_label_1
_geom_bond_atom_site_label_2
_geom_bond_site_symmetry_1
_geom_bond_site_symmetry_2
Ni1 N1 1_555 1_555
Zn1 O1 1_555 1_555
Zn2 O3 1_555 1_555
O1 C1 1_555 1_555
O2 Zn1 1_555 1_555
O3 C26 1_555 1_555
O4 C26 1_555 1_555
O5 Zn1 1_555 1_555
O6 C27 1_555 1_555
O7 C28 1_555 1_555
O8 C28 1_555 1_555
O9 Zn1 1_555 1_555
H1 O9 1_555 1_555
O10 Zn1 1_555 1_555
H2 O10 1_555 1_555
H3 O10 1_555 1_555
O11 H4 1_555 1_555
H5 O11 1_555 1_555
N1 C1 1_555 1_555
N2 Ni1 1_555 1_555
N3 Ni1 1_555 1_555
N4 Ni1 1_555 1_555
C1 C2 1_555 1_555
C2 O2 1_555 1_555
C3 N2 1_555 1_555
C4 C3 1_555 1_555
H6 C4 1_555 1_555
C5 C4 1_555 1_555
H7 C5 1_555 1_555
C6 C5 1_555 1_555
H8 C6 1_555 1_555
C7 C6 1_555 1_555
H9 C7 1_555 1_555
C8 C3 1_555 1_555
C9 N3 1_555 1_555
H10 C9 1_555 1_555
C10 N3 1_555 1_555
H11 C10 1_555 1_555
H12 C10 1_555 1_555
C11 C10 1_555 1_555
H13 C11 1_555 1_555
H14 C11 1_555 1_555
C12 N4 1_555 1_555
H15 C12 1_555 1_555
H16 C12 1_555 1_555
C13 N4 1_555 1_555
H17 C13 1_555 1_555
C14 C13 1_555 1_555
C15 C14 1_555 1_555
H18 C15 1_555 1_555
C16 C15 1_555 1_555
H19 C16 1_555 1_555
C17 C16 1_555 1_555
H20 C17 1_555 1_555
C18 C17 1_555 1_555
H21 C18 1_555 1_555
C19 N1 1_555 1_555
C20 C21 1_555 1_555
C21 H22 1_555 1_555
C22 C21 1_555 1_555
C23 C22 1_555 1_555
H23 C23 1_555 1_555
C24 C23 1_555 1_555
C25 C20 1_555 1_555
H24 C25 1_555 1_555
C26 C20 1_555 1_555
C27 O5 1_555 1_555
C28 C24 1_555 1_555
Zn1A O9 1_555 1_555
Zn2_2 O6 1_555 1_555
Zn2A O8 1_555 1_555
O6_2 Zn2 1_555 1_555
O8A Zn2 1_555 1_555
O9A Zn1 1_555 1_555
O9_2 Zn2 1_555 1_555
H1A O9A 1_555 1_555
H1_2 O9_2 1_555 1_555
O9 Zn2_2 1_555 1_555
N2 C2 1_555 1_555
C7 C8 1_555 1_555
C8 C9 1_555 1_555
C11 C12 1_555 1_555
C14 C19 1_555 1_555
C18 C19 1_555 1_555
C22 C27 1_555 1_555
C24 C25 1_555 1_555
Zn1A O9A 1_555 1_555

#END
