
#######################################################################
#
#                 Cambridge Crystallographic Data Centre
#                                CCDC 
#
#######################################################################
#
# If this CIF has been generated from an entry in the Cambridge 
# Structural Database, then it will include bibliographic, chemical, 
# crystal, experimental, refinement or atomic coordinate data resulting 
# from the CCDC's data processing and validation procedures.
#
#######################################################################

data_UTIPAP
_symmetry_cell_setting           triclinic
_symmetry_space_group_name_H-M   'P -1'
_symmetry_Int_Tables_number      2
_space_group_name_Hall           '-P 1'
loop_
_symmetry_equiv_pos_site_id
_symmetry_equiv_pos_as_xyz
1 x,y,z
2 -x,-y,-z
_cell_length_a                   9.7772(6)
_cell_length_b                   12.0096(7)
_cell_length_c                   14.0441(9)
_cell_angle_alpha                88.669(1)
_cell_angle_beta                 82.844(1)
_cell_angle_gamma                71.658(1)
_cell_volume                     1552.87
loop_
_atom_site_label
_atom_site_type_symbol
_atom_site_fract_x
_atom_site_fract_y
_atom_site_fract_z
Ni1 Ni 1.0000 0.0000 0.0000
Ni2 Ni 1.79320(4) 0.23358(3) 0.17967(3)
Ni3 Ni 1.78599(5) 0.26286(4) 0.55230(3)
O1 O 1.9205(2) 0.15518(18) 0.28484(14)
O2 O 1.6463(2) 0.29219(18) 0.30142(14)
O3 O 1.1929(2) -0.06514(17) 0.05688(14)
O4 O 1.2077(2) 0.09801(18) 0.12120(17)
O5 O 1.6976(2) 0.10959(17) 0.16894(15)
O6 O 1.8885(2) -0.04774(16) 0.12103(14)
O7 O 1.8034(2) -0.43337(19) 0.0966(2)
O8 O 1.5772(3) -0.4359(2) 0.1063(3)
O9 O 0.95741(19) 0.16878(16) 0.06604(13)
H1 H 1.0393 0.1414 0.0868
H2 H 0.9501 0.2255 0.0276
O10 O 1.6602(2) 0.33655(19) 0.08845(16)
H3 H 1.6356 0.4110 0.0899
H4 H 1.5916 0.3064 0.0908
O11 O 1.8738(2) 0.37180(18) 0.20189(15)
H5 H 1.8398 0.4275 0.1643
H6 H 1.9613 0.3601 0.2116
N1 N 1.9224(3) 0.1782(2) 0.44930(18)
N2 N 1.6458(3) 0.2933(2) 0.46686(17)
N3 N 1.6621(4) 0.3814(2) 0.63743(19)
N4 N 1.9087(3) 0.2038(3) 0.64684(19)
C1 C 1.8641(3) 0.1947(3) 0.3670(2)
C2 C 1.7053(3) 0.2671(3) 0.3765(2)
C3 C 1.4939(3) 0.3306(3) 0.4918(2)
C4 C 1.3996(4) 0.3032(3) 0.4368(3)
H10 H 1.4365 0.2620 0.3791
C5 C 1.2523(4) 0.3362(3) 0.4663(3)
H11 H 1.1913 0.3158 0.4291
C6 C 1.1945(5) 0.3995(4) 0.5512(3)
H12 H 1.0950 0.4224 0.5707
C7 C 1.2852(5) 0.4278(4) 0.6058(3)
H13 H 1.2462 0.4714 0.6622
C8 C 1.4354(4) 0.3929(3) 0.5791(2)
C9 C 1.5244(5) 0.4265(3) 0.6399(2)
H14 H 1.4778 0.4861 0.6850
C10 C 1.7367(5) 0.4358(4) 0.6983(3)
H15 H 1.6683 0.5074 0.7277
H16 H 1.8137 0.4564 0.6590
C11 C 1.8003(5) 0.3530(4) 0.7761(3)
H17 H 1.8868 0.3683 0.7913
H18 H 1.7306 0.3685 0.8336
C12 C 1.8388(5) 0.2254(4) 0.7473(2)
H19 H 1.9042 0.1775 0.7897
H20 H 1.7514 0.2025 0.7544
C13 C 2.0376(4) 0.1321(3) 0.6329(2)
H21 H 2.0815 0.1044 0.6876
C14 C 2.1228(4) 0.0895(3) 0.5424(2)
C15 C 2.2667(4) 0.0191(3) 0.5471(3)
H22 H 2.3006 0.0052 0.6066
C16 C 2.3581(4) -0.0296(3) 0.4669(3)
H23 H 2.4528 -0.0766 0.4715
C17 C 2.3075(4) -0.0078(3) 0.3794(3)
H24 H 2.3696 -0.0395 0.3242
C18 C 2.1660(4) 0.0603(3) 0.3713(3)
H25 H 2.1347 0.0729 0.3110
C19 C 2.0691(3) 0.1107(3) 0.4529(2)
C20 C 1.4150(3) -0.0710(2) 0.1098(2)
C21 C 1.5067(3) -0.0084(2) 0.1278(2)
H26 H 1.4700 0.0727 0.1355
C22 C 1.6522(3) -0.0652(2) 0.13437(19)
C23 C 1.7048(3) -0.1867(2) 0.1265(2)
H27 H 1.8021 -0.2254 0.1317
C24 C 1.6141(3) -0.2512(2) 0.1110(2)
C25 C 1.4697(3) -0.1922(2) 0.1012(2)
H28 H 1.4088 -0.2346 0.0888
C26 C 1.2601(3) -0.0083(2) 0.0955(2)
C27 C 1.7549(3) 0.0039(2) 0.14247(19)
C28 C 1.6685(4) -0.3836(3) 0.1036(3)
Ni1_2 Ni 2.0000 0.0000 0.0000
Ni1_3 Ni 0.0000 0.0000 0.0000
Ni2A Ni 0.20680(4) -0.23358(3) -0.17967(3)
Ni2_2 Ni 0.79320(4) 0.23358(3) 0.17967(3)
Ni2A_2 Ni 1.20680(4) -0.23358(3) -0.17967(3)
Ni3A Ni 0.21401(5) -0.26286(4) -0.55230(3)
O1A O 0.0795(2) -0.15518(18) -0.28484(14)
O2A O 0.3537(2) -0.29219(18) -0.30142(14)
O3A O 0.8071(2) 0.06514(17) -0.05688(14)
O4A O 0.7923(2) -0.09801(18) -0.12120(17)
O5A O 0.3024(2) -0.10959(17) -0.16894(15)
O6A O 0.1115(2) 0.04774(16) -0.12103(14)
O6_2 O 0.8885(2) -0.04774(16) 0.12103(14)
O6A_2 O 1.1115(2) 0.04774(16) -0.12103(14)
O7A O 0.1966(2) 0.43337(19) -0.0966(2)
O8A O 0.4228(3) 0.4359(2) -0.1063(3)
O9A O 1.04259(19) -0.16878(16) -0.06604(13)
O9_2 O 1.95741(19) 0.16878(16) 0.06604(13)
O9A_2 O 0.04259(19) -0.16878(16) -0.06604(13)
H1A H 0.9607 -0.1414 -0.0868
H1_2 H 2.0393 0.1414 0.0868
H1A_2 H -0.0393 -0.1414 -0.0868
H2A H 1.0499 -0.2255 -0.0276
H2_2 H 1.9501 0.2255 0.0276
H2A_2 H 0.0499 -0.2255 -0.0276
O10A O 0.3398(2) -0.33655(19) -0.08845(16)
H3A H 0.3644 -0.4110 -0.0899
H4A H 0.4084 -0.3064 -0.0908
O11A O 0.1262(2) -0.37180(18) -0.20189(15)
H5A H 0.1602 -0.4275 -0.1643
H6A H 0.0387 -0.3601 -0.2116
N1A N 0.0776(3) -0.1782(2) -0.44930(18)
N2A N 0.3542(3) -0.2933(2) -0.46686(17)
N3A N 0.3379(4) -0.3814(2) -0.63743(19)
N4A N 0.0913(3) -0.2038(3) -0.64684(19)
C1A C 0.1359(3) -0.1947(3) -0.3670(2)
C2A C 0.2947(3) -0.2671(3) -0.3765(2)
C3A C 0.5061(3) -0.3306(3) -0.4918(2)
C4A C 0.6004(4) -0.3032(3) -0.4368(3)
H10A H 0.5635 -0.2620 -0.3791
C5A C 0.7477(4) -0.3362(3) -0.4663(3)
H11A H 0.8087 -0.3158 -0.4291
C6A C 0.8055(5) -0.3995(4) -0.5512(3)
H12A H 0.9050 -0.4224 -0.5707
C7A C 0.7148(5) -0.4278(4) -0.6058(3)
H13A H 0.7538 -0.4714 -0.6622
C8A C 0.5646(4) -0.3929(3) -0.5791(2)
C9A C 0.4756(5) -0.4265(3) -0.6399(2)
H14A H 0.5222 -0.4861 -0.6850
C10A C 0.2633(5) -0.4358(4) -0.6983(3)
H15A H 0.3317 -0.5074 -0.7277
H16A H 0.1863 -0.4564 -0.6590
C11A C 0.1997(5) -0.3530(4) -0.7761(3)
H17A H 0.1132 -0.3683 -0.7913
H18A H 0.2694 -0.3685 -0.8336
C12A C 0.1612(5) -0.2254(4) -0.7473(2)
H19A H 0.0958 -0.1775 -0.7897
H20A H 0.2486 -0.2025 -0.7544
C13A C -0.0376(4) -0.1321(3) -0.6329(2)
H21A H -0.0815 -0.1044 -0.6876
C14A C -0.1228(4) -0.0895(3) -0.5424(2)
C15A C -0.2667(4) -0.0191(3) -0.5471(3)
H22A H -0.3006 -0.0052 -0.6066
C16A C -0.3581(4) 0.0296(3) -0.4669(3)
H23A H -0.4528 0.0766 -0.4715
C17A C -0.3075(4) 0.0078(3) -0.3794(3)
H24A H -0.3696 0.0395 -0.3242
C18A C -0.1660(4) -0.0603(3) -0.3713(3)
H25A H -0.1347 -0.0729 -0.3110
C19A C -0.0691(3) -0.1107(3) -0.4529(2)
C20A C 0.5850(3) 0.0710(2) -0.1098(2)
C21A C 0.4933(3) 0.0084(2) -0.1278(2)
H26A H 0.5300 -0.0727 -0.1355
C22A C 0.3478(3) 0.0652(2) -0.13437(19)
C23A C 0.2952(3) 0.1867(2) -0.1265(2)
H27A H 0.1979 0.2254 -0.1317
C24A C 0.3859(3) 0.2512(2) -0.1110(2)
C25A C 0.5303(3) 0.1922(2) -0.1012(2)
H28A H 0.5912 0.2346 -0.0888
C26A C 0.7399(3) 0.0083(2) -0.0955(2)
C27A C 0.2451(3) -0.0039(2) -0.14247(19)
C28A C 0.3315(4) 0.3836(3) -0.1036(3)
O12 O 0.9550(2) 0.36628(19) 0.96669(16)
H7 H 0.8926 0.4164 1.0048
H8 H 1.0352 0.3792 0.9501
O13 O 0.1693(4) 0.3044(3) 0.2195(3)
H9 H 0.1786 0.2344 0.2144
C29 C 0.2713(18) 0.3375(7) 0.1409(6)
H29 H 0.2415 0.4212 0.1346
H30 H 0.2680 0.3017 0.0812
H31 H 0.3686 0.3103 0.1575
loop_
_geom_bond_atom_site_label_1
_geom_bond_atom_site_label_2
_geom_bond_site_symmetry_1
_geom_bond_site_symmetry_2
Ni1 O3 1_555 1_555
Ni2 O1 1_555 1_555
Ni3 N1 1_555 1_555
O1 C1 1_555 1_555
O2 Ni2 1_555 1_555
O3 C26 1_555 1_555
O4 C26 1_555 1_555
O5 Ni2 1_555 1_555
O6 C27 1_555 1_555
O7 C28 1_555 1_555
O8 C28 1_555 1_555
O9 Ni1 1_555 1_555
H1 O9 1_555 1_555
H2 O9 1_555 1_555
O10 Ni2 1_555 1_555
H3 O10 1_555 1_555
H4 O10 1_555 1_555
O11 Ni2 1_555 1_555
H5 O11 1_555 1_555
H6 O11 1_555 1_555
O12 H7 1_555 1_555
H8 O12 1_555 1_555
O13 H9 1_555 1_555
N1 C1 1_555 1_555
N2 Ni3 1_555 1_555
N3 Ni3 1_555 1_555
N4 Ni3 1_555 1_555
C1 C2 1_555 1_555
C2 O2 1_555 1_555
C3 N2 1_555 1_555
C4 C3 1_555 1_555
H10 C4 1_555 1_555
C5 C4 1_555 1_555
H11 C5 1_555 1_555
C6 C5 1_555 1_555
H12 C6 1_555 1_555
C7 C6 1_555 1_555
H13 C7 1_555 1_555
C8 C3 1_555 1_555
C9 N3 1_555 1_555
H14 C9 1_555 1_555
C10 N3 1_555 1_555
H15 C10 1_555 1_555
H16 C10 1_555 1_555
C11 C10 1_555 1_555
H17 C11 1_555 1_555
H18 C11 1_555 1_555
C12 N4 1_555 1_555
H19 C12 1_555 1_555
H20 C12 1_555 1_555
C13 N4 1_555 1_555
H21 C13 1_555 1_555
C14 C13 1_555 1_555
C15 C14 1_555 1_555
H22 C15 1_555 1_555
C16 C15 1_555 1_555
H23 C16 1_555 1_555
C17 C16 1_555 1_555
H24 C17 1_555 1_555
C18 C17 1_555 1_555
H25 C18 1_555 1_555
C19 N1 1_555 1_555
C20 C21 1_555 1_555
C21 H26 1_555 1_555
C22 C21 1_555 1_555
C23 C22 1_555 1_555
H27 C23 1_555 1_555
C24 C23 1_555 1_555
C25 C20 1_555 1_555
H28 C25 1_555 1_555
C26 C20 1_555 1_555
C27 O5 1_555 1_555
C28 C24 1_555 1_555
C29 O13 1_555 1_555
H29 C29 1_555 1_555
H30 C29 1_555 1_555
H31 C29 1_555 1_555
Ni1_2 O6 1_555 1_555
Ni1_3 O6A 1_555 1_555
Ni2A O1A 1_555 1_555
Ni2_2 O9 1_555 1_555
Ni2A_2 O9A 1_555 1_555
Ni3A N1A 1_555 1_555
O1A C1A 1_555 1_555
O2A Ni2A 1_555 1_555
O3A Ni1 1_555 1_555
O4A C26A 1_555 1_555
O5A Ni2A 1_555 1_555
O6A C27A 1_555 1_555
O6_2 Ni1 1_555 1_555
O6A_2 Ni1 1_555 1_555
O7A C28A 1_555 1_555
O8A C28A 1_555 1_555
O9A Ni1 1_555 1_555
O9_2 Ni2 1_555 1_555
O9A_2 Ni1_3 1_555 1_555
H1A O9A 1_555 1_555
H1_2 O9_2 1_555 1_555
H1A_2 O9A_2 1_555 1_555
H2A O9A 1_555 1_555
H2_2 O9_2 1_555 1_555
H2A_2 O9A_2 1_555 1_555
O10A Ni2A 1_555 1_555
H3A O10A 1_555 1_555
H4A O10A 1_555 1_555
O11A Ni2A 1_555 1_555
H5A O11A 1_555 1_555
H6A O11A 1_555 1_555
N1A C1A 1_555 1_555
N2A Ni3A 1_555 1_555
N3A Ni3A 1_555 1_555
N4A Ni3A 1_555 1_555
C1A C2A 1_555 1_555
C2A O2A 1_555 1_555
C3A N2A 1_555 1_555
C4A C3A 1_555 1_555
H10A C4A 1_555 1_555
C5A C4A 1_555 1_555
H11A C5A 1_555 1_555
C6A C5A 1_555 1_555
H12A C6A 1_555 1_555
C7A C6A 1_555 1_555
H13A C7A 1_555 1_555
C8A C3A 1_555 1_555
C9A N3A 1_555 1_555
H14A C9A 1_555 1_555
C10A N3A 1_555 1_555
H15A C10A 1_555 1_555
H16A C10A 1_555 1_555
C11A C10A 1_555 1_555
H17A C11A 1_555 1_555
H18A C11A 1_555 1_555
C12A N4A 1_555 1_555
H19A C12A 1_555 1_555
H20A C12A 1_555 1_555
C13A N4A 1_555 1_555
H21A C13A 1_555 1_555
C14A C13A 1_555 1_555
C15A C14A 1_555 1_555
H22A C15A 1_555 1_555
C16A C15A 1_555 1_555
H23A C16A 1_555 1_555
C17A C16A 1_555 1_555
H24A C17A 1_555 1_555
C18A C17A 1_555 1_555
H25A C18A 1_555 1_555
C19A N1A 1_555 1_555
C20A C21A 1_555 1_555
C21A H26A 1_555 1_555
C22A C21A 1_555 1_555
C23A C22A 1_555 1_555
H27A C23A 1_555 1_555
C24A C23A 1_555 1_555
C25A C20A 1_555 1_555
H28A C25A 1_555 1_555
C26A O3A 1_555 1_555
C27A O5A 1_555 1_555
C28A C24A 1_555 1_555
N2 C2 1_555 1_555
C7 C8 1_555 1_555
C8 C9 1_555 1_555
C11 C12 1_555 1_555
C14 C19 1_555 1_555
C18 C19 1_555 1_555
C22 C27 1_555 1_555
C24 C25 1_555 1_555
Ni1_2 O9_2 1_555 1_555
Ni2A O9A_2 1_555 1_555
N2A C2A 1_555 1_555
C7A C8A 1_555 1_555
C8A C9A 1_555 1_555
C11A C12A 1_555 1_555
C14A C19A 1_555 1_555
C18A C19A 1_555 1_555
C20A C26A 1_555 1_555
C22A C27A 1_555 1_555
C24A C25A 1_555 1_555

#END
