
#######################################################################
#
#                 Cambridge Crystallographic Data Centre
#                                CCDC 
#
#######################################################################
#
# If this CIF has been generated from an entry in the Cambridge 
# Structural Database, then it will include bibliographic, chemical, 
# crystal, experimental, refinement or atomic coordinate data resulting 
# from the CCDC's data processing and validation procedures.
#
#######################################################################

data_UTIPET
_symmetry_cell_setting           monoclinic
_symmetry_space_group_name_H-M   'P 21'
_symmetry_Int_Tables_number      4
_space_group_name_Hall           'P 2yb'
loop_
_symmetry_equiv_pos_site_id
_symmetry_equiv_pos_as_xyz
1 x,y,z
2 -x,1/2+y,-z
_cell_length_a                   18.4200(7)
_cell_length_b                   14.3984(6)
_cell_length_c                   18.8098(8)
_cell_angle_alpha                90
_cell_angle_beta                 97.430(1)
_cell_angle_gamma                90
_cell_volume                     4946.82
loop_
_atom_site_label
_atom_site_type_symbol
_atom_site_fract_x
_atom_site_fract_y
_atom_site_fract_z
Cd1 Cd 0.52843(2) 0.03125(3) 0.653039(19)
Cd2 Cd 0.38395(2) 0.08320(3) 0.78137(2)
Cd3 Cd 0.12150(2) 0.47190(3) 0.71122(2)
Cd4 Cd -0.02563(2) 0.52218(3) 0.85955(2)
Ni1 Ni 0.73507(4) 0.14091(8) 0.88264(4)
Ni2 Ni 0.58183(4) -0.01101(6) 1.01360(4)
Ni3 Ni -0.22093(4) 0.36755(8) 0.63708(4)
Ni4 Ni -0.08414(4) 0.53490(7) 0.48218(4)
O1 O 0.5866(2) 0.1615(3) 0.7136(2)
O2 O 0.6041(2) -0.0151(4) 0.7514(2)
O3 O 0.4710(2) 0.1444(3) 0.8675(2)
O4 O 0.4546(2) -0.0369(3) 0.8348(2)
O5 O -0.0780(2) 0.3796(3) 0.8114(2)
O6 O -0.1062(3) 0.5501(3) 0.7602(3)
O7 O 0.0308(2) 0.3963(3) 0.6360(2)
O8 O 0.0404(2) 0.5789(3) 0.6621(2)
O9 O 0.4676(2) 0.1451(3) 0.5911(2)
O10 O 0.4262(2) 0.1665(4) 0.6959(2)
O11 O 0.2128(2) 0.3739(3) 0.6925(2)
O12 O 0.1907(2) 0.4808(4) 0.6100(2)
O13 O 0.3659(3) 0.5122(4) 0.4224(3)
O14 O 0.4665(2) 0.4310(4) 0.4388(2)
O15 O 0.4394(2) -0.0644(4) 0.6795(3)
O16 O 0.3306(2) -0.0239(3) 0.7100(3)
O17 O 0.1665(3) -0.2803(4) 0.7722(3)
O18 O 0.2021(3) -0.4259(4) 0.7635(3)
O19 O 0.4419(3) -0.4908(4) 0.6653(3)
O20 O 0.4830(3) -0.3745(5) 0.6054(4)
H1 H 0.5093 -0.4150 0.5918
O21 O 0.2907(3) 0.0465(5) 0.8644(3)
O22 O 0.2919(2) 0.1758(3) 0.8034(3)
O23 O 0.0851(3) 0.4069(4) 0.8063(3)
O24 O 0.0488(2) 0.4159(4) 0.9133(2)
O25 O 0.0338(3) 0.1275(4) 1.0520(3)
O26 O 0.1155(3) 0.0221(5) 1.0495(3)
O27 O 0.0397(3) 0.6424(4) 0.8186(2)
H2 H 0.0410 0.6807 0.8543
H3 H 0.0805 0.6262 0.8030
N1 N 0.6747(3) 0.2036(4) 0.8092(3)
N2 N 0.6948(3) 0.0302(5) 0.8422(3)
N3 N 0.7714(3) 0.0808(7) 0.9694(3)
N4 N 0.7953(3) 0.2448(7) 0.9060(3)
N5 N 0.5551(3) 0.1006(4) 0.9652(3)
N6 N 0.5491(3) -0.0710(4) 0.9266(3)
N7 N 0.6216(4) -0.1178(5) 1.0591(3)
N8 N 0.5856(3) 0.0481(5) 1.1048(3)
N9 N -0.1575(3) 0.3204(4) 0.7147(3)
N10 N -0.1857(3) 0.4868(5) 0.6666(3)
N11 N -0.2602(3) 0.4073(7) 0.5459(3)
N12 N -0.2762(3) 0.2569(7) 0.6244(3)
N13 N -0.0549(3) 0.4280(4) 0.5372(3)
N14 N -0.0515(3) 0.6028(4) 0.5672(3)
N15 N -0.1259(4) 0.6378(6) 0.4321(3)
N16 N -0.0918(4) 0.4641(6) 0.3956(3)
C1 C 0.6314(3) 0.1440(5) 0.7674(3)
C2 C 0.6427(3) 0.0437(5) 0.7879(3)
C3 C 0.7204(4) -0.0612(7) 0.8597(4)
C4 C 0.7118(4) -0.1354(7) 0.8142(5)
H4 H 0.6890 -0.1262 0.7677
C5 C 0.7354(5) -0.2222(7) 0.8340(6)
H5 H 0.7275 -0.2704 0.8010
C6 C 0.7691(6) -0.2400(10) 0.8987(7)
H6 H 0.7843 -0.2998 0.9121
C7 C 0.7810(6) -0.1670(9) 0.9455(6)
H7 H 0.8051 -0.1787 0.9912
C8 C 0.7591(5) -0.0768(8) 0.9286(4)
C9 C 0.7753(5) -0.0078(10) 0.9802(5)
H8 H 0.7903 -0.0274 1.0269
C10 C 0.7871(5) 0.1470(9) 1.0323(4)
H9 H 0.7928 0.1119 1.0767
H10 H 0.7459 0.1889 1.0331
C11 C 0.8577(5) 0.2042(8) 1.0270(5)
H11 H 0.8557 0.2615 1.0539
H12 H 0.8999 0.1692 1.0484
C12 C 0.8668(4) 0.2274(9) 0.9490(5)
H13 H 0.8975 0.2821 0.9479
H14 H 0.8910 0.1762 0.9282
C13 C 0.7850(4) 0.3274(8) 0.8834(5)
H15 H 0.8203 0.3712 0.9000
C14 C 0.7225(4) 0.3600(6) 0.8335(4)
C15 C 0.7182(5) 0.4559(7) 0.8183(5)
H16 H 0.7549 0.4945 0.8403
C16 C 0.6636(6) 0.4943(7) 0.7736(6)
H17 H 0.6628 0.5577 0.7639
C17 C 0.6100(5) 0.4375(6) 0.7434(5)
H18 H 0.5709 0.4633 0.7137
C18 C 0.6109(4) 0.3430(6) 0.7547(4)
H19 H 0.5721 0.3071 0.7332
C19 C 0.6681(4) 0.3004(5) 0.7974(4)
C20 C 0.5075(3) 0.0856(5) 0.9058(3)
C21 C 0.5003(3) -0.0163(5) 0.8852(3)
C22 C 0.5570(3) -0.1637(5) 0.9088(3)
C23 C 0.5400(4) -0.1975(6) 0.8384(4)
H20 H 0.5209 -0.1576 0.8018
C24 C 0.5516(5) -0.2902(6) 0.8236(5)
H21 H 0.5399 -0.3114 0.7768
C25 C 0.5798(5) -0.3520(6) 0.8757(5)
H22 H 0.5869 -0.4140 0.8646
C26 C 0.5971(5) -0.3203(5) 0.9448(5)
H23 H 0.6151 -0.3617 0.9808
C27 C 0.5881(4) -0.2262(5) 0.9621(4)
C28 C 0.6192(5) -0.1993(6) 1.0331(4)
H24 H 0.6397 -0.2464 1.0631
C29 C 0.6673(5) -0.1055(7) 1.1326(5)
H25 H 0.6952 -0.1616 1.1451
H26 H 0.7016 -0.0548 1.1304
C30 C 0.6204(5) -0.0860(6) 1.1868(4)
H27 H 0.6503 -0.0653 1.2302
H28 H 0.5959 -0.1428 1.1980
C31 C 0.5630(5) -0.0119(7) 1.1631(4)
H29 H 0.5168 -0.0419 1.1461
H30 H 0.5556 0.0266 1.2039
C32 C 0.5938(4) 0.1359(6) 1.1158(4)
H31 H 0.5935 0.1568 1.1625
C33 C 0.6037(4) 0.2066(5) 1.0610(4)
C34 C 0.6289(4) 0.2949(6) 1.0830(4)
H32 H 0.6452 0.3049 1.1312
C35 C 0.6304(4) 0.3668(5) 1.0363(4)
H33 H 0.6477 0.4250 1.0517
C36 C 0.6052(4) 0.3499(5) 0.9649(4)
H34 H 0.6061 0.3982 0.9322
C37 C 0.5788(4) 0.2646(5) 0.9403(4)
H35 H 0.5619 0.2565 0.8920
C38 C 0.5775(3) 0.1901(5) 0.9880(3)
C39 C -0.1211(3) 0.3859(5) 0.7542(3)
C40 C -0.1379(3) 0.4842(5) 0.7262(3)
C41 C -0.2140(3) 0.5722(7) 0.6391(4)
C42 C -0.2080(4) 0.6539(7) 0.6779(6)
H36 H -0.1838 0.6537 0.7245
C43 C -0.2379(5) 0.7379(9) 0.6481(7)
H37 H -0.2350 0.7925 0.6747
C44 C -0.2716(6) 0.7357(10) 0.5782(7)
H38 H -0.2912 0.7905 0.5577
C45 C -0.2772(6) 0.6586(9) 0.5391(6)
H39 H -0.2987 0.6610 0.4916
C46 C -0.2509(4) 0.5733(9) 0.5684(5)
C47 C -0.2650(4) 0.4912(12) 0.5254(5)
H40 H -0.2792 0.5008 0.4767
C48 C -0.2777(4) 0.3344(10) 0.4915(4)
H41 H -0.2367 0.2919 0.4930
H42 H -0.2851 0.3626 0.4443
C49 C -0.3458(4) 0.2807(10) 0.5036(4)
H43 H -0.3449 0.2201 0.4811
H44 H -0.3888 0.3135 0.4814
C50 C -0.3502(4) 0.2687(8) 0.5830(4)
H45 H -0.3738 0.3227 0.6007
H46 H -0.3800 0.2148 0.5901
C51 C -0.2587(5) 0.1767(7) 0.6538(5)
H47 H -0.2918 0.1282 0.6434
C52 C -0.1944(4) 0.1571(6) 0.6996(4)
C53 C -0.1802(6) 0.0624(6) 0.7185(6)
H48 H -0.2140 0.0178 0.7000
C54 C -0.1201(6) 0.0342(7) 0.7620(6)
H49 H -0.1133 -0.0282 0.7739
C55 C -0.0695(5) 0.0995(6) 0.7884(5)
H50 H -0.0270 0.0812 0.8171
C56 C -0.0815(5) 0.1926(6) 0.7725(4)
H51 H -0.0465 0.2356 0.7913
C57 C -0.1434(4) 0.2245(5) 0.7297(4)
C58 C -0.0074(3) 0.4494(4) 0.5948(3)
C59 C -0.0038(3) 0.5525(4) 0.6111(3)
C60 C -0.0628(3) 0.6972(5) 0.5801(4)
C61 C -0.0473(4) 0.7374(5) 0.6479(4)
H52 H -0.0272 0.7008 0.6862
C62 C -0.0609(4) 0.8296(6) 0.6598(4)
H53 H -0.0522 0.8538 0.7059
C63 C -0.0878(5) 0.8866(6) 0.6028(5)
H54 H -0.0946 0.9497 0.6103
C64 C -0.1040(4) 0.8499(5) 0.5360(4)
H55 H -0.1230 0.8882 0.4983
C65 C -0.0928(4) 0.7566(5) 0.5229(4)
C66 C -0.1226(5) 0.7229(7) 0.4540(4)
H56 H -0.1420 0.7674 0.4210
C67 C -0.1771(5) 0.6131(9) 0.3621(5)
H57 H -0.2094 0.5624 0.3710
H58 H -0.2069 0.6664 0.3458
C68 C -0.1309(6) 0.5858(8) 0.3068(4)
H59 H -0.1621 0.5605 0.2660
H60 H -0.1075 0.6410 0.2908
C69 C -0.0742(5) 0.5175(10) 0.3312(4)
H61 H -0.0278 0.5491 0.3431
H62 H -0.0692 0.4744 0.2925
C70 C -0.0998(4) 0.3749(7) 0.3909(4)
H63 H -0.1056 0.3496 0.3451
C71 C -0.1006(4) 0.3130(6) 0.4480(4)
C72 C -0.1224(4) 0.2198(6) 0.4332(5)
H64 H -0.1384 0.2033 0.3860
C73 C -0.1209(4) 0.1537(6) 0.4845(5)
H65 H -0.1369 0.0935 0.4733
C74 C -0.0953(4) 0.1778(5) 0.5529(4)
H66 H -0.0940 0.1327 0.5884
C75 C -0.0714(4) 0.2656(5) 0.5720(4)
H67 H -0.0527 0.2782 0.6193
C76 C -0.0753(3) 0.3367(5) 0.5201(3)
C77 C 0.3933(3) 0.2758(4) 0.6039(3)
C78 C 0.4160(3) 0.3229(4) 0.5451(3)
H68 H 0.4558 0.3012 0.5241
C79 C 0.3789(3) 0.4015(4) 0.5184(3)
C80 C 0.3169(3) 0.4308(4) 0.5472(3)
H69 H 0.2904 0.4816 0.5274
C81 C 0.2945(3) 0.3847(4) 0.6052(3)
C82 C 0.3335(3) 0.3078(4) 0.6340(3)
H70 H 0.3192 0.2777 0.6736
C83 C 0.4314(3) 0.1896(4) 0.6330(3)
C84 C 0.4039(4) 0.4525(4) 0.4556(3)
C85 C 0.2276(3) 0.4166(5) 0.6375(3)
C86 C 0.3565(3) -0.1835(4) 0.6935(3)
C87 C 0.2928(3) -0.2133(4) 0.7192(3)
H71 H 0.2603 -0.1699 0.7335
C88 C 0.2776(3) -0.3071(4) 0.7236(3)
C89 C 0.3255(3) -0.3710(5) 0.6990(3)
H72 H 0.3151 -0.4341 0.7007
C90 C 0.3884(3) -0.3417(4) 0.6720(3)
C91 C 0.4035(3) -0.2479(4) 0.6700(3)
H73 H 0.4458 -0.2279 0.6526
C92 C 0.3769(3) -0.0825(4) 0.6931(3)
C93 C 0.2091(3) -0.3405(5) 0.7555(3)
C94 C 0.4397(3) -0.4112(5) 0.6478(3)
C95 C 0.1987(3) 0.1601(5) 0.8784(3)
C96 C 0.1668(3) 0.2431(4) 0.8541(3)
H74 H 0.1840 0.2749 0.8166
C97 C 0.1085(3) 0.2789(4) 0.8862(3)
C98 C 0.0822(3) 0.2283(4) 0.9405(3)
H75 H 0.0431 0.2518 0.9615
C99 C 0.1123(3) 0.1445(5) 0.9640(3)
C100 C 0.1724(3) 0.1098(5) 0.9328(3)
H76 H 0.1942 0.0539 0.9484
C101 C 0.2654(3) 0.1244(5) 0.8465(3)
C102 C 0.0786(3) 0.3741(4) 0.8667(3)
C103 C 0.0862(3) 0.0938(5) 1.0261(3)
Cd1A Cd 0.47157(2) 0.53125(3) 0.346961(19)
Cd3_2 Cd 0.12150(2) -0.52810(3) 0.71122(2)
Cd4A Cd 0.02563(2) 0.02218(3) 1.14045(2)
O13A O 0.6341(3) 0.0122(4) 0.5776(3)
O14A O 0.5335(2) -0.0690(4) 0.5612(2)
O18_2 O 0.2021(3) 0.5741(4) 0.7635(3)
O25A O -0.0338(3) 0.6275(4) 0.9480(3)
O26A O -0.1155(3) 0.5221(5) 0.9505(3)
O28 O 0.5658(4) 0.5277(7) 0.5391(4)
O29 O 0.8316(5) 0.3992(6) 0.1679(5)
O30 O 0.0173(18) 0.902(2) 0.9047(12)
O31? O -0.0042(14) 0.8283(17) 0.8435(7)
loop_
_geom_bond_atom_site_label_1
_geom_bond_atom_site_label_2
_geom_bond_site_symmetry_1
_geom_bond_site_symmetry_2
Cd1 O1 1_555 1_555
Cd2 O3 1_555 1_555
Cd3 O7 1_555 1_555
Cd4 O5 1_555 1_555
Ni1 N1 1_555 1_555
Ni2 N5 1_555 1_555
Ni3 N9 1_555 1_555
Ni4 N13 1_555 1_555
O1 C1 1_555 1_555
O2 Cd1 1_555 1_555
O3 C20 1_555 1_555
O4 Cd2 1_555 1_555
O5 C39 1_555 1_555
O6 Cd4 1_555 1_555
O7 C58 1_555 1_555
O8 Cd3 1_555 1_555
O9 Cd1 1_555 1_555
O10 Cd2 1_555 1_555
O11 Cd3 1_555 1_555
O12 Cd3 1_555 1_555
O13 C84 1_555 1_555
O14 C84 1_555 1_555
O15 Cd1 1_555 1_555
O16 Cd2 1_555 1_555
O17 C93 1_555 1_555
O18 C93 1_555 1_555
O19 C94 1_555 1_555
O20 H1 1_555 1_555
O21 Cd2 1_555 1_555
O22 Cd2 1_555 1_555
O23 Cd3 1_555 1_555
O24 Cd4 1_555 1_555
O25 C103 1_555 1_555
O26 C103 1_555 1_555
O27 Cd4 1_555 1_555
H2 O27 1_555 1_555
H3 O27 1_555 1_555
N1 C1 1_555 1_555
N2 Ni1 1_555 1_555
N3 Ni1 1_555 1_555
N4 Ni1 1_555 1_555
N5 C20 1_555 1_555
N6 Ni2 1_555 1_555
N7 Ni2 1_555 1_555
N8 Ni2 1_555 1_555
N9 C39 1_555 1_555
N10 Ni3 1_555 1_555
N11 Ni3 1_555 1_555
N12 Ni3 1_555 1_555
N13 C58 1_555 1_555
N14 Ni4 1_555 1_555
N15 Ni4 1_555 1_555
N16 Ni4 1_555 1_555
C1 C2 1_555 1_555
C2 O2 1_555 1_555
C3 N2 1_555 1_555
C4 C3 1_555 1_555
H4 C4 1_555 1_555
C5 C4 1_555 1_555
H5 C5 1_555 1_555
C6 C5 1_555 1_555
H6 C6 1_555 1_555
C7 C6 1_555 1_555
H7 C7 1_555 1_555
C8 C3 1_555 1_555
C9 N3 1_555 1_555
H8 C9 1_555 1_555
C10 N3 1_555 1_555
H9 C10 1_555 1_555
H10 C10 1_555 1_555
C11 C10 1_555 1_555
H11 C11 1_555 1_555
H12 C11 1_555 1_555
C12 N4 1_555 1_555
H13 C12 1_555 1_555
H14 C12 1_555 1_555
C13 N4 1_555 1_555
H15 C13 1_555 1_555
C14 C13 1_555 1_555
C15 C14 1_555 1_555
H16 C15 1_555 1_555
C16 C15 1_555 1_555
H17 C16 1_555 1_555
C17 C16 1_555 1_555
H18 C17 1_555 1_555
C18 C17 1_555 1_555
H19 C18 1_555 1_555
C19 N1 1_555 1_555
C20 C21 1_555 1_555
C21 O4 1_555 1_555
C22 N6 1_555 1_555
C23 C22 1_555 1_555
H20 C23 1_555 1_555
C24 C23 1_555 1_555
H21 C24 1_555 1_555
C25 C24 1_555 1_555
H22 C25 1_555 1_555
C26 C25 1_555 1_555
H23 C26 1_555 1_555
C27 C22 1_555 1_555
C28 N7 1_555 1_555
H24 C28 1_555 1_555
C29 N7 1_555 1_555
H25 C29 1_555 1_555
H26 C29 1_555 1_555
C30 C29 1_555 1_555
H27 C30 1_555 1_555
H28 C30 1_555 1_555
C31 N8 1_555 1_555
H29 C31 1_555 1_555
H30 C31 1_555 1_555
C32 N8 1_555 1_555
H31 C32 1_555 1_555
C33 C32 1_555 1_555
C34 C33 1_555 1_555
H32 C34 1_555 1_555
C35 C34 1_555 1_555
H33 C35 1_555 1_555
C36 C35 1_555 1_555
H34 C36 1_555 1_555
C37 C36 1_555 1_555
H35 C37 1_555 1_555
C38 N5 1_555 1_555
C39 C40 1_555 1_555
C40 O6 1_555 1_555
C41 N10 1_555 1_555
C42 C41 1_555 1_555
H36 C42 1_555 1_555
C43 C42 1_555 1_555
H37 C43 1_555 1_555
C44 C43 1_555 1_555
H38 C44 1_555 1_555
C45 C44 1_555 1_555
H39 C45 1_555 1_555
C46 C41 1_555 1_555
C47 N11 1_555 1_555
H40 C47 1_555 1_555
C48 N11 1_555 1_555
H41 C48 1_555 1_555
H42 C48 1_555 1_555
C49 C48 1_555 1_555
H43 C49 1_555 1_555
H44 C49 1_555 1_555
C50 N12 1_555 1_555
H45 C50 1_555 1_555
H46 C50 1_555 1_555
C51 N12 1_555 1_555
H47 C51 1_555 1_555
C52 C51 1_555 1_555
C53 C52 1_555 1_555
H48 C53 1_555 1_555
C54 C53 1_555 1_555
H49 C54 1_555 1_555
C55 C54 1_555 1_555
H50 C55 1_555 1_555
C56 C55 1_555 1_555
H51 C56 1_555 1_555
C57 N9 1_555 1_555
C58 C59 1_555 1_555
C59 O8 1_555 1_555
C60 N14 1_555 1_555
C61 C60 1_555 1_555
H52 C61 1_555 1_555
C62 C61 1_555 1_555
H53 C62 1_555 1_555
C63 C62 1_555 1_555
H54 C63 1_555 1_555
C64 C63 1_555 1_555
H55 C64 1_555 1_555
C65 C60 1_555 1_555
C66 N15 1_555 1_555
H56 C66 1_555 1_555
C67 N15 1_555 1_555
H57 C67 1_555 1_555
H58 C67 1_555 1_555
C68 C67 1_555 1_555
H59 C68 1_555 1_555
H60 C68 1_555 1_555
C69 N16 1_555 1_555
H61 C69 1_555 1_555
H62 C69 1_555 1_555
C70 N16 1_555 1_555
H63 C70 1_555 1_555
C71 C70 1_555 1_555
C72 C71 1_555 1_555
H64 C72 1_555 1_555
C73 C72 1_555 1_555
H65 C73 1_555 1_555
C74 C73 1_555 1_555
H66 C74 1_555 1_555
C75 C74 1_555 1_555
H67 C75 1_555 1_555
C76 N13 1_555 1_555
C77 C78 1_555 1_555
C78 H68 1_555 1_555
C79 C78 1_555 1_555
C80 C79 1_555 1_555
H69 C80 1_555 1_555
C81 C80 1_555 1_555
C82 C77 1_555 1_555
H70 C82 1_555 1_555
C83 O9 1_555 1_555
C84 C79 1_555 1_555
C85 O11 1_555 1_555
C86 C87 1_555 1_555
C87 H71 1_555 1_555
C88 C87 1_555 1_555
C89 C88 1_555 1_555
H72 C89 1_555 1_555
C90 C89 1_555 1_555
C91 C86 1_555 1_555
H73 C91 1_555 1_555
C92 O15 1_555 1_555
C93 C88 1_555 1_555
C94 O20 1_555 1_555
C95 C96 1_555 1_555
C96 H74 1_555 1_555
C97 C96 1_555 1_555
C98 C97 1_555 1_555
H75 C98 1_555 1_555
C99 C98 1_555 1_555
C100 C95 1_555 1_555
H76 C100 1_555 1_555
C101 O21 1_555 1_555
C102 O23 1_555 1_555
C103 C99 1_555 1_555
Cd1A O13 1_555 1_555
Cd3_2 O18 1_555 1_555
Cd4A O25 1_555 1_555
O13A Cd1 1_555 1_555
O14A Cd1 1_555 1_555
O18_2 Cd3 1_555 1_555
O25A Cd4 1_555 1_555
O26A Cd4 1_555 1_555
O10 C83 1_555 1_555
O12 C85 1_555 1_555
O14 Cd1A 1_555 1_555
O16 C92 1_555 1_555
O22 C101 1_555 1_555
O24 C102 1_555 1_555
O26 Cd4A 1_555 1_555
N2 C2 1_555 1_555
N6 C21 1_555 1_555
N10 C40 1_555 1_555
N14 C59 1_555 1_555
C7 C8 1_555 1_555
C8 C9 1_555 1_555
C11 C12 1_555 1_555
C14 C19 1_555 1_555
C18 C19 1_555 1_555
C26 C27 1_555 1_555
C27 C28 1_555 1_555
C30 C31 1_555 1_555
C33 C38 1_555 1_555
C37 C38 1_555 1_555
C45 C46 1_555 1_555
C46 C47 1_555 1_555
C49 C50 1_555 1_555
C52 C57 1_555 1_555
C56 C57 1_555 1_555
C64 C65 1_555 1_555
C65 C66 1_555 1_555
C68 C69 1_555 1_555
C71 C76 1_555 1_555
C75 C76 1_555 1_555
C77 C83 1_555 1_555
C81 C82 1_555 1_555
C81 C85 1_555 1_555
C86 C92 1_555 1_555
C90 C91 1_555 1_555
C90 C94 1_555 1_555
C95 C101 1_555 1_555
C97 C102 1_555 1_555
C99 C100 1_555 1_555

#END
