
#######################################################################
#
#                 Cambridge Crystallographic Data Centre
#                                CCDC 
#
#######################################################################
#
# If this CIF has been generated from an entry in the Cambridge 
# Structural Database, then it will include bibliographic, chemical, 
# crystal, experimental, refinement or atomic coordinate data resulting 
# from the CCDC's data processing and validation procedures.
#
#######################################################################

data_UTIPOD
_symmetry_cell_setting           triclinic
_symmetry_space_group_name_H-M   'P -1'
_symmetry_Int_Tables_number      2
_space_group_name_Hall           '-P 1'
loop_
_symmetry_equiv_pos_site_id
_symmetry_equiv_pos_as_xyz
1 x,y,z
2 -x,-y,-z
_cell_length_a                   10.1376(6)
_cell_length_b                   12.3611(8)
_cell_length_c                   13.8352(8)
_cell_angle_alpha                100.522(1)
_cell_angle_beta                 107.486(1)
_cell_angle_gamma                109.188(1)
_cell_volume                     1483.6
loop_
_atom_site_label
_atom_site_type_symbol
_atom_site_fract_x
_atom_site_fract_y
_atom_site_fract_z
Cu1 Cu 0.16932(4) 0.23395(3) -0.04447(3)
Zn1 Zn 0.41887(3) 0.44846(3) 0.37712(2)
Zn2 Zn 1.28280(3) 0.25279(3) 0.49456(3)
O1 O 0.2089(2) 0.31161(19) 0.25692(15)
O2 O 0.4649(2) 0.44512(18) 0.24109(15)
O3 O 1.0649(2) 0.16498(18) 0.44321(18)
O4 O 1.0442(2) 0.33795(19) 0.48701(19)
O5 O 0.6390(2) -0.21652(18) 0.37373(16)
O6 O 0.4077(3) -0.21990(19) 0.3330(2)
O7 O 0.3530(2) 0.16531(17) 0.40252(16)
O8 O 0.5225(2) 0.32458(17) 0.38705(17)
O9 O 0.36921(19) 0.42288(15) 0.50889(13)
H1 H 0.3019 0.4476 0.5140
O10 O 0.3156(2) 0.5656(2) 0.3573(2)
H2 H 0.3615 0.6321 0.3488
H3 H 0.2263 0.5500 0.3549
N1 N 0.0984(3) 0.2229(2) 0.07220(18)
N2 N 0.3686(3) 0.3259(2) 0.06545(18)
N3 N 0.2347(3) 0.2973(2) -0.15081(19)
N4 N -0.0125(3) 0.1055(2) -0.15216(19)
C1 C 0.2105(3) 0.2962(3) 0.1661(2)
C2 C 0.3623(3) 0.3642(3) 0.1590(2)
C3 C 0.5059(3) 0.3555(3) 0.0501(2)
C4 C 0.6411(4) 0.3732(3) 0.1295(3)
H6 H 0.6442 0.3724 0.1972
C5 C 0.7702(4) 0.3917(4) 0.1088(3)
H7 H 0.8589 0.4019 0.1624
C6 C 0.7698(5) 0.3954(4) 0.0100(4)
H8 H 0.8575 0.4082 -0.0032
C7 C 0.6389(5) 0.3801(4) -0.0689(3)
H9 H 0.6392 0.3844 -0.1352
C8 C 0.5045(4) 0.3582(3) -0.0517(3)
C9 C 0.3715(4) 0.3418(3) -0.1417(2)
H10 H 0.3887 0.3664 -0.1981
C10 C 0.1167(5) 0.2927(4) -0.2470(3)
H11 H 0.1643 0.3228 -0.2935
H12 H 0.0716 0.3463 -0.2258
C11 C -0.0060(5) 0.1705(5) -0.3084(3)
H13 H -0.1022 0.1773 -0.3234
H14 H 0.0019 0.1455 -0.3763
C12 C -0.0111(5) 0.0729(4) -0.2595(3)
H15 H -0.1013 0.0006 -0.3049
H16 H 0.0764 0.0550 -0.2551
C13 C -0.1250(4) 0.0415(3) -0.1350(3)
H17 H -0.2010 -0.0234 -0.1928
C14 C -0.1489(3) 0.0577(3) -0.0357(2)
C15 C -0.2891(4) -0.0233(3) -0.0428(3)
H18 H -0.3559 -0.0813 -0.1080
C16 C -0.3308(4) -0.0201(3) 0.0411(3)
H19 H -0.4224 -0.0770 0.0348
C17 C -0.2338(4) 0.0699(4) 0.1369(3)
H20 H -0.2631 0.0762 0.1945
C18 C -0.0946(4) 0.1501(3) 0.1477(3)
H21 H -0.0312 0.2089 0.2132
C19 C -0.0454(3) 0.1459(3) 0.0635(2)
C20 C 0.8219(3) 0.1556(2) 0.4190(2)
C21 C 0.7627(3) 0.0314(2) 0.4010(2)
H22 H 0.8265 -0.0086 0.4057
C22 C 0.6097(3) -0.0332(2) 0.3762(2)
C23 C 0.5159(3) 0.0286(2) 0.3722(2)
H23 H 0.4139 -0.0134 0.3579
C24 C 0.5736(3) 0.1517(2) 0.3895(2)
C25 C 0.7262(3) 0.2148(2) 0.4111(2)
H24 H 0.7642 0.2971 0.4204
C26 C 0.9881(3) 0.2260(3) 0.4511(2)
C27 C 0.5454(3) -0.1663(3) 0.3596(2)
C28 C 0.4764(3) 0.2203(2) 0.3924(2)
Zn1A Zn 0.58113(3) 0.55154(3) 0.62288(2)
Zn2A Zn 0.71720(3) -0.25279(3) 0.50544(3)
Zn2_2 Zn 0.28280(3) 0.25279(3) 0.49456(3)
O5A O 1.3610(2) 0.21652(18) 0.62627(16)
O7_2 O 1.3530(2) 0.16531(17) 0.40252(16)
O9A O 0.63079(19) 0.57712(15) 0.49111(13)
O9_2 O 1.36921(19) 0.42288(15) 0.50889(13)
H1A H 0.6981 0.5524 0.4860
H1_2 H 1.3019 0.4476 0.5140
O11 O 0.0366(3) 0.5072(2) 0.3754(2)
H4 H 0.0338 0.4496 0.4011
H5 H 0.0116 0.5599 0.4041
loop_
_geom_bond_atom_site_label_1
_geom_bond_atom_site_label_2
_geom_bond_site_symmetry_1
_geom_bond_site_symmetry_2
Cu1 N1 1_555 1_555
Zn1 O1 1_555 1_555
Zn2 O3 1_555 1_555
O1 C1 1_555 1_555
O2 Zn1 1_555 1_555
O3 C26 1_555 1_555
O4 C26 1_555 1_555
O5 C27 1_555 1_555
O6 C27 1_555 1_555
O7 C28 1_555 1_555
O8 Zn1 1_555 1_555
O9 Zn1 1_555 1_555
H1 O9 1_555 1_555
O10 Zn1 1_555 1_555
H2 O10 1_555 1_555
H3 O10 1_555 1_555
O11 H4 1_555 1_555
H5 O11 1_555 1_555
N1 C1 1_555 1_555
N2 Cu1 1_555 1_555
N3 Cu1 1_555 1_555
N4 Cu1 1_555 1_555
C1 C2 1_555 1_555
C2 O2 1_555 1_555
C3 N2 1_555 1_555
C4 C3 1_555 1_555
H6 C4 1_555 1_555
C5 C4 1_555 1_555
H7 C5 1_555 1_555
C6 C5 1_555 1_555
H8 C6 1_555 1_555
C7 C6 1_555 1_555
H9 C7 1_555 1_555
C8 C3 1_555 1_555
C9 N3 1_555 1_555
H10 C9 1_555 1_555
C10 N3 1_555 1_555
H11 C10 1_555 1_555
H12 C10 1_555 1_555
C11 C10 1_555 1_555
H13 C11 1_555 1_555
H14 C11 1_555 1_555
C12 N4 1_555 1_555
H15 C12 1_555 1_555
H16 C12 1_555 1_555
C13 N4 1_555 1_555
H17 C13 1_555 1_555
C14 C13 1_555 1_555
C15 C14 1_555 1_555
H18 C15 1_555 1_555
C16 C15 1_555 1_555
H19 C16 1_555 1_555
C17 C16 1_555 1_555
H20 C17 1_555 1_555
C18 C17 1_555 1_555
H21 C18 1_555 1_555
C19 N1 1_555 1_555
C20 C21 1_555 1_555
C21 H22 1_555 1_555
C22 C21 1_555 1_555
C23 C22 1_555 1_555
H23 C23 1_555 1_555
C24 C23 1_555 1_555
C25 C20 1_555 1_555
H24 C25 1_555 1_555
C26 C20 1_555 1_555
C27 C22 1_555 1_555
C28 O8 1_555 1_555
Zn1A O9 1_555 1_555
Zn2A O5 1_555 1_555
Zn2_2 O7 1_555 1_555
O5A Zn2 1_555 1_555
O7_2 Zn2 1_555 1_555
O9A Zn1 1_555 1_555
O9_2 Zn2 1_555 1_555
H1A O9A 1_555 1_555
H1_2 O9_2 1_555 1_555
O9 Zn2_2 1_555 1_555
N2 C2 1_555 1_555
C7 C8 1_555 1_555
C8 C9 1_555 1_555
C11 C12 1_555 1_555
C14 C19 1_555 1_555
C18 C19 1_555 1_555
C24 C25 1_555 1_555
C24 C28 1_555 1_555
Zn1A O9A 1_555 1_555

#END
