
#######################################################################
#
#                 Cambridge Crystallographic Data Centre
#                                CCDC 
#
#######################################################################
#
# If this CIF has been generated from an entry in the Cambridge 
# Structural Database, then it will include bibliographic, chemical, 
# crystal, experimental, refinement or atomic coordinate data resulting 
# from the CCDC's data processing and validation procedures.
#
#######################################################################

data_UTIZIH
_symmetry_cell_setting           monoclinic
_symmetry_space_group_name_H-M   'C 2/c'
_symmetry_Int_Tables_number      15
_space_group_name_Hall           '-C 2yn'
loop_
_symmetry_equiv_pos_site_id
_symmetry_equiv_pos_as_xyz
1 x,y,z
2 -x,y,1/2-z
3 1/2+x,1/2+y,z
4 1/2-x,1/2+y,1/2-z
5 -x,-y,-z
6 x,-y,1/2+z
7 1/2-x,1/2-y,-z
8 1/2+x,1/2-y,1/2+z
_cell_length_a                   24.203(3)
_cell_length_b                   20.873(3)
_cell_length_c                   15.403(8)
_cell_angle_alpha                90
_cell_angle_beta                 127.712(8)
_cell_angle_gamma                90
_cell_volume                     6155.85
loop_
_atom_site_label
_atom_site_type_symbol
_atom_site_fract_x
_atom_site_fract_y
_atom_site_fract_z
Hg1 Hg 0.216341(13) 0.526888(16) 0.422137(19)
Cl1 Cl 0.19944(10) 0.63707(10) 0.34953(13)
Cl2 Cl 0.27438(9) 0.52285(10) 0.61981(12)
Cl3 Cl 0.26532(8) 0.45831(10) 0.35377(13)
Cl4 Cl 0.09402(7) 0.48235(8) 0.33375(11)
Hg2 Hg 0.48435(3) 0.28792(4) 1.27083(4)
Cl5 Cl 0.5000 0.1738(2) 1.2500
Cl6 Cl 0.46310(15) 0.26262(17) 1.4053(2)
Cl7 Cl 0.39540(11) 0.34738(15) 1.1353(2)
Hg2A Hg 0.51565(3) 0.28792(4) 1.22917(4)
Cl6A Cl 0.53690(15) 0.26262(17) 1.0947(2)
Cl7A Cl 0.60460(11) 0.34738(15) 1.3647(2)
O7 O 0.0783(2) 0.0244(2) 0.3267(3)
H18 H 0.083(3) 0.0702(3) 0.334(4)
O8 O 0.2196(3) 0.3976(3) 0.6679(4)
H19 H 0.237(4) 0.4398(14) 0.697(7)
Pr1 Pr 0.119934(14) 0.243613(16) 0.38460(2)
O1 O 0.06429(18) 0.1820(2) 0.2138(3)
O2 O -0.05001(18) 0.1613(2) 0.1097(3)
O3 O 0.21269(19) 0.2482(2) 0.3661(3)
O4 O 0.32027(19) 0.2610(2) 0.4182(3)
O5 O 0.03675(18) 0.3049(2) 0.3893(3)
O6 O -0.07726(19) 0.3225(2) 0.2578(3)
N1 N 0.0278(4) 0.0479(3) -0.0767(5)
H1 H 0.0318 0.0269 -0.1206
N2 N 0.1764(3) 0.2988(3) 0.0220(4)
H2 H 0.1601 0.3076 -0.0443
N3 N -0.0289(3) 0.4474(3) 0.5661(4)
H3 H -0.0309 0.4692 0.6114
C1 C 0.0798(3) 0.0976(4) 0.0892(5)
H4 H 0.1204 0.1090 0.1575
C2 C 0.0833(4) 0.0631(5) 0.0173(6)
H5 H 0.1266 0.0507 0.0371
C3 C -0.0357(4) 0.0626(4) -0.1105(6)
H6 H -0.0748 0.0506 -0.1800
C4 C -0.0427(4) 0.0957(4) -0.0414(5)
H7 H -0.0869 0.1051 -0.0624
C5 C 0.0155(3) 0.1151(3) 0.0590(4)
C6 C 0.0093(3) 0.1564(3) 0.1338(4)
C7 C 0.2707(3) 0.2956(4) 0.2080(4)
H8 H 0.3178 0.3026 0.2645
C8 C 0.2432(3) 0.3088(4) 0.1007(5)
H9 H 0.2717 0.3246 0.0842
C9 C 0.1332(3) 0.2759(4) 0.0394(5)
H10 H 0.0863 0.2701 -0.0191
C10 C 0.1575(3) 0.2608(4) 0.1436(4)
H11 H 0.1278 0.2433 0.1565
C11 C 0.2277(3) 0.2721(3) 0.2304(4)
C12 C 0.2551(3) 0.2591(3) 0.3466(4)
C13 C -0.0829(3) 0.4075(4) 0.3889(5)
H12 H -0.1220 0.4040 0.3158
C14 C -0.0853(4) 0.4448(4) 0.4623(6)
H13 H -0.1255 0.4671 0.4387
C15 C 0.0292(4) 0.4188(4) 0.6031(5)
H14 H 0.0675 0.4232 0.6766
C16 C 0.0351(3) 0.3819(4) 0.5347(4)
H15 H 0.0768 0.3612 0.5614
C17 C -0.0219(3) 0.3763(3) 0.4265(4)
C18 C -0.0194(3) 0.3320(3) 0.3521(4)
O9 O 0.18504(18) 0.1383(2) 0.4504(3)
H16 H 0.2254 0.1439 0.4730
O10 O 0.17367(17) 0.3549(2) 0.4670(3)
H17 H 0.1840 0.3575 0.5284
Pr1A Pr -0.119934(14) 0.243613(16) 0.11540(2)
Pr1F Pr 0.380066(14) 0.256387(16) 0.61540(2)
O1A O -0.06429(18) 0.1820(2) 0.2862(3)
O2A O 0.05001(18) 0.1613(2) 0.3903(3)
O3F O 0.28731(19) 0.2518(2) 0.6339(3)
O3A O -0.21269(19) 0.2482(2) 0.1339(3)
O4F O 0.17973(19) 0.2390(2) 0.5818(3)
O4G O -0.17973(19) 0.2390(2) -0.0818(3)
O5A O -0.03675(18) 0.3049(2) 0.1107(3)
O6A O 0.07726(19) 0.3225(2) 0.2422(3)
N1A N -0.0278(4) 0.0479(3) 0.5767(5)
H1A H -0.0318 0.0269 0.6206
N2F N 0.3236(3) 0.2012(3) 0.9780(4)
H2F H 0.3399 0.1924 1.0443
N3A N 0.0289(3) 0.4474(3) -0.0661(4)
H3A H 0.0309 0.4692 -0.1114
C1A C -0.0798(3) 0.0976(4) 0.4108(5)
H4A H -0.1204 0.1090 0.3425
C2A C -0.0833(4) 0.0631(5) 0.4827(6)
H5A H -0.1266 0.0507 0.4629
C3A C 0.0357(4) 0.0626(4) 0.6105(6)
H6A H 0.0748 0.0506 0.6800
C4A C 0.0427(4) 0.0957(4) 0.5414(5)
H7A H 0.0869 0.1051 0.5624
C5A C -0.0155(3) 0.1151(3) 0.4410(4)
C6A C -0.0093(3) 0.1564(3) 0.3662(4)
C7F C 0.2293(3) 0.2044(4) 0.7920(4)
H8F H 0.1822 0.1974 0.7355
C8F C 0.2568(3) 0.1912(4) 0.8993(5)
H9F H 0.2283 0.1754 0.9158
C9F C 0.3668(3) 0.2241(4) 0.9606(5)
H10F H 0.4137 0.2299 1.0191
C10F C 0.3425(3) 0.2392(4) 0.8564(4)
H11F H 0.3722 0.2567 0.8435
C11F C 0.2723(3) 0.2279(3) 0.7696(4)
C12F C 0.2449(3) 0.2409(3) 0.6534(4)
C13A C 0.0829(3) 0.4075(4) 0.1111(5)
H12A H 0.1220 0.4040 0.1842
C14A C 0.0853(4) 0.4448(4) 0.0377(6)
H13A H 0.1255 0.4671 0.0613
C15A C -0.0292(4) 0.4188(4) -0.1031(5)
H14A H -0.0675 0.4232 -0.1766
C16A C -0.0351(3) 0.3819(4) -0.0347(4)
H15A H -0.0768 0.3612 -0.0614
C17A C 0.0219(3) 0.3763(3) 0.0735(4)
C18A C 0.0194(3) 0.3320(3) 0.1479(4)
O9A O -0.18504(18) 0.1383(2) 0.0496(3)
H16A H -0.2254 0.1439 0.0270
O10A O -0.17367(17) 0.3549(2) 0.0330(3)
H17A H -0.1840 0.3575 -0.0284
loop_
_geom_bond_atom_site_label_1
_geom_bond_atom_site_label_2
_geom_bond_site_symmetry_1
_geom_bond_site_symmetry_2
Pr1 O1 1_555 1_555
Hg1 Cl1 1_555 1_555
Hg2 Cl5 1_555 1_555
Cl2 Hg1 1_555 1_555
Cl3 Hg1 1_555 1_555
Cl4 Hg1 1_555 1_555
Cl5 Hg2A 1_555 1_555
Cl6 Hg2 1_555 1_555
Cl7 Hg2 1_555 1_555
O1 C6 1_555 1_555
O2 C6 1_555 1_555
O3 Pr1 1_555 1_555
O4 C12 1_555 1_555
O5 Pr1 1_555 1_555
O6 C18 1_555 1_555
N1 H1 1_555 1_555
N2 H2 1_555 1_555
N3 H3 1_555 1_555
C1 H4 1_555 1_555
C2 N1 1_555 1_555
H5 C2 1_555 1_555
C3 N1 1_555 1_555
H6 C3 1_555 1_555
C4 C3 1_555 1_555
H7 C4 1_555 1_555
C5 C1 1_555 1_555
C6 C5 1_555 1_555
C7 H8 1_555 1_555
C8 N2 1_555 1_555
H9 C8 1_555 1_555
C9 N2 1_555 1_555
H10 C9 1_555 1_555
C10 C9 1_555 1_555
H11 C10 1_555 1_555
C11 C7 1_555 1_555
C12 O3 1_555 1_555
C13 H12 1_555 1_555
C14 N3 1_555 1_555
H13 C14 1_555 1_555
C15 N3 1_555 1_555
H14 C15 1_555 1_555
C16 C15 1_555 1_555
H15 C16 1_555 1_555
C17 C13 1_555 1_555
C18 O5 1_555 1_555
O7 H18 1_555 1_555
O8 H19 1_555 1_555
O9 Pr1 1_555 1_555
H16 O9 1_555 1_555
O10 Pr1 1_555 1_555
H17 O10 1_555 1_555
Pr1A O2 1_555 1_555
Pr1F O4 1_555 1_555
Hg2A Hg2 1_555 1_555
Cl6A Hg2A 1_555 1_555
Cl7A Hg2 1_555 1_555
O1A Pr1A 1_555 1_555
O2A Pr1 1_555 1_555
O3F Pr1F 1_555 1_555
O3A Pr1A 1_555 1_555
O4F Pr1 1_555 1_555
O4G Pr1A 1_555 1_555
O5A Pr1A 1_555 1_555
O6A Pr1 1_555 1_555
N1A H1A 1_555 1_555
N2F H2F 1_555 1_555
N3A H3A 1_555 1_555
C1A H4A 1_555 1_555
C2A N1A 1_555 1_555
H5A C2A 1_555 1_555
C3A N1A 1_555 1_555
H6A C3A 1_555 1_555
C4A C3A 1_555 1_555
H7A C4A 1_555 1_555
C5A C1A 1_555 1_555
C6A O1A 1_555 1_555
C7F H8F 1_555 1_555
C8F N2F 1_555 1_555
H9F C8F 1_555 1_555
C9F N2F 1_555 1_555
H10F C9F 1_555 1_555
C10F C9F 1_555 1_555
H11F C10F 1_555 1_555
C11F C7F 1_555 1_555
C12F O3F 1_555 1_555
C13A H12A 1_555 1_555
C14A N3A 1_555 1_555
H13A C14A 1_555 1_555
C15A N3A 1_555 1_555
H14A C15A 1_555 1_555
C16A C15A 1_555 1_555
H15A C16A 1_555 1_555
C17A C13A 1_555 1_555
C18A O5A 1_555 1_555
O9A Pr1A 1_555 1_555
H16A O9A 1_555 1_555
O10A Pr1A 1_555 1_555
H17A O10A 1_555 1_555
Cl7 Hg2A 1_555 1_555
O6 Pr1A 1_555 1_555
C1 C2 1_555 1_555
C4 C5 1_555 1_555
C7 C8 1_555 1_555
C10 C11 1_555 1_555
C11 C12 1_555 1_555
C13 C14 1_555 1_555
C16 C17 1_555 1_555
C17 C18 1_555 1_555
Hg2A Cl7A 1_555 1_555
O2A C6A 1_555 1_555
O4F C12F 1_555 1_555
O6A C18A 1_555 1_555
C1A C2A 1_555 1_555
C4A C5A 1_555 1_555
C5A C6A 1_555 1_555
C7F C8F 1_555 1_555
C10F C11F 1_555 1_555
C11F C12F 1_555 1_555
C13A C14A 1_555 1_555
C16A C17A 1_555 1_555
C17A C18A 1_555 1_555

#END
