
#######################################################################
#
#                 Cambridge Crystallographic Data Centre
#                                CCDC 
#
#######################################################################
#
# If this CIF has been generated from an entry in the Cambridge 
# Structural Database, then it will include bibliographic, chemical, 
# crystal, experimental, refinement or atomic coordinate data resulting 
# from the CCDC's data processing and validation procedures.
#
#######################################################################

data_UTIZUT
_symmetry_cell_setting           orthorhombic
_symmetry_space_group_name_H-M   'P n a 21'
_symmetry_Int_Tables_number      33
_space_group_name_Hall           'P 2c -2n'
loop_
_symmetry_equiv_pos_site_id
_symmetry_equiv_pos_as_xyz
1 x,y,z
2 -x,-y,1/2+z
3 1/2+x,1/2-y,z
4 1/2-x,1/2+y,1/2+z
_cell_length_a                   29.1698(11)
_cell_length_b                   10.0178(4)
_cell_length_c                   24.1246(9)
_cell_angle_alpha                90
_cell_angle_beta                 90
_cell_angle_gamma                90
_cell_volume                     7049.62
loop_
_atom_site_label
_atom_site_type_symbol
_atom_site_fract_x
_atom_site_fract_y
_atom_site_fract_z
C1 C 0.9329(3) 0.7437(9) 0.1086(4)
C2 C 0.9805(3) 0.7533(10) 0.1161(4)
H1 H 0.9992 0.7710 0.0857
C3 C 0.9998(3) 0.7372(9) 0.1671(4)
C4 C 0.9724(3) 0.7116(11) 0.2128(5)
H2 H 0.9852 0.7021 0.2479
C5 C 0.9245(4) 0.7001(11) 0.2052(5)
H3 H 0.9057 0.6809 0.2353
C6 C 0.9060(3) 0.7169(10) 0.1545(5)
H4 H 0.8744 0.7103 0.1503
C7 C 1.0504(3) 0.7493(10) 0.1746(5)
C8 C 0.9142(4) 0.7582(10) 0.0518(5)
C9 C 0.8896(4) 0.0001(11) -0.1535(4)
H5 H 0.8701 -0.0563 -0.1731
C10 C 0.9069(3) 0.1129(11) -0.1724(4)
H6 H 0.9028 0.1489 -0.2076
C11 C 0.9311(3) 0.0823(10) -0.0862(5)
C12 C 0.9593(4) 0.2952(9) -0.1356(5)
H7 H 0.9826 0.2979 -0.1069
H8 H 0.9748 0.2949 -0.1712
C13 C 0.9540(4) 0.1014(12) -0.0339(5)
H9 H 0.9371 0.1643 -0.0119
H10 H 0.9844 0.1349 -0.0402
H11 H 0.9557 0.0177 -0.0146
C14 C 0.8890(3) 0.5841(10) -0.1561(5)
H12 H 0.8698 0.6413 -0.1757
C15 C 0.9067(3) 0.4696(10) -0.1758(4)
H13 H 0.9033 0.4342 -0.2112
C16 C 0.9288(3) 0.5008(10) -0.0883(5)
C17 C 0.9510(4) 0.4834(11) -0.0347(4)
H14 H 0.9669 0.5639 -0.0249
H15 H 0.9725 0.4110 -0.0368
H16 H 0.9283 0.4637 -0.0071
C18 C 0.7871(3) 0.9296(10) -0.0862(5)
H17 H 0.8010 1.0084 -0.0977
C19 C 0.7416(3) 0.9076(10) -0.0852(5)
H18 H 0.7186 0.9674 -0.0950
C20 C 0.7776(3) 0.7285(9) -0.0564(5)
C21 C 0.7875(3) 0.5905(10) -0.0355(6)
H19 H 0.8193 0.5701 -0.0414
H20 H 0.7689 0.5272 -0.0551
H21 H 0.7808 0.5859 0.0034
C22 C 0.6910(3) 0.7155(10) -0.0589(5)
H22 H 0.6671 0.7783 -0.0688
H23 H 0.6887 0.6397 -0.0837
C23 C 0.6788(3) 0.5448(11) 0.0135(5)
H24 H 0.6781 0.4698 -0.0092
C24 C 0.6752(3) 0.5458(11) 0.0691(5)
H25 H 0.6730 0.4709 0.0918
C25 C 0.6800(3) 0.7528(10) 0.0432(5)
C26 C 0.6819(4) 0.8992(11) 0.0400(5)
H26 H 0.6663 0.9369 0.0713
H27 H 0.6673 0.9286 0.0065
H28 H 0.7133 0.9277 0.0401
C27 C 0.6759(3) 0.9686(10) 0.2088(4)
C28 C 0.6924(3) 1.0999(9) 0.2298(4)
C29 C 0.6709(3) 1.2148(9) 0.2132(4)
H29 H 0.6462 1.2100 0.1889
C30 C 0.6860(3) 1.3401(10) 0.2326(4)
C31 C 0.7231(3) 1.3438(10) 0.2690(4)
H30 H 0.7338 1.4256 0.2818
C32 C 0.7442(4) 1.2275(11) 0.2863(5)
H31 H 0.7685 1.2311 0.3111
C33 C 0.7288(3) 1.1045(10) 0.2664(4)
H32 H 0.7430 1.0260 0.2777
C34 C 0.6636(3) 1.4668(10) 0.2132(4)
Cd1 Cd 0.88585(2) 0.79207(7) -0.05378(3)
Cd2 Cd 0.64435(2) 0.72554(6) 0.17338(3)
N1 N 0.9035(2) 0.6039(8) -0.1027(3)
N2 N 0.9312(2) 0.4154(8) -0.1315(3)
N3 N 0.9049(3) -0.0209(9) -0.1006(3)
N4 N 0.9321(3) 0.1668(8) -0.1298(3)
N5 N 0.8102(2) 0.8164(8) -0.0675(4)
N6 N 0.7361(2) 0.7802(8) -0.0669(3)
N7 N 0.6834(2) 0.6706(9) -0.0030(4)
N8 N 0.6753(3) 0.6793(8) 0.0872(4)
O1 O 0.9394(2) 0.7959(8) 0.0135(3)
O2 O 0.8713(2) 0.7353(10) 0.0424(4)
O3 O 1.0742(2) 0.7765(7) 0.1317(3)
O4 O 1.0685(2) 0.7331(8) 0.2216(3)
O5 O 0.6930(3) 0.8636(8) 0.2268(4)
O6 O 0.6457(3) 0.9666(7) 0.1729(4)
O7 O 0.6252(2) 1.4582(8) 0.1903(4)
O8 O 0.6849(3) 1.5715(8) 0.2190(4)
Cd1_2 Cd 0.88585(2) -0.20793(7) -0.05378(3)
Cd2B Cd 1.14435(2) 0.77446(6) 0.17338(3)
Cd2_2 Cd 0.64435(2) 1.72554(6) 0.17338(3)
N3_2 N 0.9049(3) 0.9791(9) -0.1006(3)
O3B O 0.5742(2) 0.7235(7) 0.1317(3)
O4B O 0.5685(2) 0.7669(8) 0.2216(3)
O8_2 O 0.6849(3) 0.5715(8) 0.2190(4)
C35 C 0.0513(3) -0.0894(9) -0.1383(4)
C36 C 0.0722(3) -0.2058(9) -0.1235(5)
H33 H 0.0990 -0.2023 -0.1025
C37 C 0.0546(3) -0.3302(10) -0.1390(5)
C38 C 0.0165(3) -0.3323(11) -0.1733(5)
H34 H 0.0047 -0.4136 -0.1853
C39 C -0.0045(4) -0.2130(11) -0.1902(5)
H35 H -0.0300 -0.2150 -0.2134
C40 C 0.0131(3) -0.0921(10) -0.1721(5)
H36 H -0.0008 -0.0127 -0.1828
C41 C 0.0762(4) -0.4542(11) -0.1193(5)
C42 C 0.0714(4) 0.0430(11) -0.1176(6)
C43 C 0.0666(4) 0.4536(12) 0.0261(6)
H37 H 0.0713 0.5294 0.0046
C44 C 0.0601(4) 0.4584(11) 0.0781(5)
H38 H 0.0576 0.5341 0.1002
C45 C 0.0621(3) 0.2520(13) 0.0475(5)
C46 C 0.0619(4) 0.0988(11) 0.0476(7)
H39 H 0.0308 0.0672 0.0488
H40 H 0.0781 0.0669 0.0796
H41 H 0.0765 0.0664 0.0146
C47 C 0.0511(3) 0.2728(11) 0.1513(5)
H42 H 0.0749 0.2078 0.1590
H43 H 0.0547 0.3460 0.1772
C48 C -0.2579(3) 0.2456(9) -0.0673(4)
C49 C -0.2376(3) 0.2328(9) -0.0160(4)
H44 H -0.2556 0.2147 0.0149
C50 C -0.1905(3) 0.2468(10) -0.0100(5)
C51 C -0.1642(3) 0.2781(9) -0.0555(5)
H45 H -0.1328 0.2911 -0.0514
C52 C -0.1839(3) 0.2902(10) -0.1071(5)
H46 H -0.1660 0.3088 -0.1380
C53 C -0.2317(4) 0.2741(10) -0.1122(4)
H47 H -0.2454 0.2830 -0.1468
C54 C -0.3093(3) 0.2272(9) -0.0725(4)
C55 C -0.1693(3) 0.2330(11) 0.0469(5)
C56 C -0.1480(3) 0.4075(10) 0.2556(4)
H48 H -0.1296 0.3505 0.2763
C57 C -0.1658(3) 0.5251(10) 0.2743(4)
H49 H -0.1621 0.5627 0.3092
C58 C -0.1875(3) 0.4879(10) 0.1871(4)
C59 C -0.2096(3) 0.5063(13) 0.1321(4)
H50 H -0.2133 0.4210 0.1145
H51 H -0.2390 0.5474 0.1369
H52 H -0.1906 0.5623 0.1094
C60 C -0.2184(3) 0.6987(9) 0.2332(5)
H53 H -0.2351 0.6994 0.2680
H54 H -0.2407 0.6978 0.2034
C61 C -0.1490(3) 0.9884(11) 0.2543(4)
H55 H -0.1296 1.0435 0.2747
C62 C -0.1669(3) 0.8721(10) 0.2719(4)
H56 H -0.1632 0.8347 0.3069
C63 C -0.1894(3) 0.9070(10) 0.1865(4)
C64 C -0.2133(4) 0.8892(11) 0.1315(4)
H57 H -0.1939 0.8395 0.1069
H58 H -0.2415 0.8417 0.1371
H59 H -0.2197 0.9752 0.1157
C65 C -0.0444(4) 0.0625(11) 0.1803(5)
H60 H -0.0585 -0.0161 0.1917
C66 C 0.0015(4) 0.0786(10) 0.1761(5)
H61 H 0.0243 0.0156 0.1823
C67 C -0.0360(3) 0.2637(9) 0.1535(5)
C68 C -0.0451(4) 0.4029(11) 0.1348(6)
H62 H -0.0233 0.4275 0.1069
H63 H -0.0425 0.4626 0.1658
H64 H -0.0755 0.4085 0.1198
Cd3 Cd 0.09854(2) 0.28889(8) -0.08110(3)
Cd4 Cd -0.14308(2) 0.19887(6) 0.15370(3)
N9 N 0.0662(3) 0.3261(11) 0.0041(4)
N10 N 0.0575(3) 0.3237(10) 0.0951(5)
N11 N 0.0066(2) 0.2107(7) 0.1605(4)
N12 N -0.1615(3) 0.3848(8) 0.2007(4)
N13 N -0.1906(2) 0.5764(7) 0.2302(3)
N14 N -0.1641(3) 1.0131(8) 0.2001(4)
N15 N -0.1912(3) 0.8192(8) 0.2293(4)
N16 N -0.0670(3) 0.1731(8) 0.1660(4)
O9 O 0.0488(3) 0.1447(8) -0.1264(5)
O10 O 0.1088(3) 0.0426(9) -0.0930(5)
O11 O 0.1130(3) -0.4510(8) -0.0937(4)
O12 O 0.0549(3) -0.5634(8) -0.1279(5)
O13 O -0.3331(2) 0.2237(8) -0.0307(3)
O14 O -0.3249(2) 0.2101(7) -0.1209(3)
O15 O -0.1949(3) 0.1904(8) 0.0862(3)
O16 O -0.1295(3) 0.2598(10) 0.0555(4)
Cd3_2 Cd 0.09854(2) -0.71111(8) -0.08110(3)
Cd4_2 Cd -0.14308(2) 1.19887(6) 0.15370(3)
N14_2 N -0.1641(3) 0.0131(8) 0.2001(4)
O12_2 O 0.0549(3) 0.4366(8) -0.1279(5)
O13B O 0.1669(2) 0.2763(8) -0.0307(3)
O14B O 0.1751(2) 0.2899(7) -0.1209(3)
Cd3B Cd -0.40146(2) 0.21111(8) -0.08110(3)
loop_
_geom_bond_atom_site_label_1
_geom_bond_atom_site_label_2
_geom_bond_site_symmetry_1
_geom_bond_site_symmetry_2
C1 C2 1_555 1_555
C2 H1 1_555 1_555
C3 C2 1_555 1_555
C4 C3 1_555 1_555
H2 C4 1_555 1_555
C5 C4 1_555 1_555
H3 C5 1_555 1_555
C6 C1 1_555 1_555
H4 C6 1_555 1_555
C7 C3 1_555 1_555
C8 C1 1_555 1_555
C9 H5 1_555 1_555
C10 C9 1_555 1_555
H6 C10 1_555 1_555
C11 C13 1_555 1_555
C12 H7 1_555 1_555
H8 C12 1_555 1_555
C13 H9 1_555 1_555
H10 C13 1_555 1_555
H11 C13 1_555 1_555
C14 H12 1_555 1_555
C15 C14 1_555 1_555
H13 C15 1_555 1_555
C16 C17 1_555 1_555
C17 H14 1_555 1_555
H15 C17 1_555 1_555
H16 C17 1_555 1_555
C18 H17 1_555 1_555
C19 C18 1_555 1_555
H18 C19 1_555 1_555
C20 C21 1_555 1_555
C21 H19 1_555 1_555
H20 C21 1_555 1_555
H21 C21 1_555 1_555
C22 H22 1_555 1_555
H23 C22 1_555 1_555
C23 H24 1_555 1_555
C24 C23 1_555 1_555
H25 C24 1_555 1_555
C25 C26 1_555 1_555
C26 H26 1_555 1_555
H27 C26 1_555 1_555
H28 C26 1_555 1_555
C27 C28 1_555 1_555
C28 C29 1_555 1_555
C29 H29 1_555 1_555
C30 C29 1_555 1_555
C31 C30 1_555 1_555
H30 C31 1_555 1_555
C32 C31 1_555 1_555
H31 C32 1_555 1_555
C33 C28 1_555 1_555
H32 C33 1_555 1_555
C34 C30 1_555 1_555
C35 C36 1_555 1_555
C36 H33 1_555 1_555
C37 C36 1_555 1_555
C38 C37 1_555 1_555
H34 C38 1_555 1_555
C39 C38 1_555 1_555
H35 C39 1_555 1_555
C40 C35 1_555 1_555
H36 C40 1_555 1_555
C41 C37 1_555 1_555
C42 C35 1_555 1_555
C43 H37 1_555 1_555
C44 C43 1_555 1_555
H38 C44 1_555 1_555
C45 C46 1_555 1_555
C46 H39 1_555 1_555
H40 C46 1_555 1_555
H41 C46 1_555 1_555
C47 H42 1_555 1_555
H43 C47 1_555 1_555
C48 C49 1_555 1_555
C49 H44 1_555 1_555
C50 C49 1_555 1_555
C51 C50 1_555 1_555
H45 C51 1_555 1_555
C52 C51 1_555 1_555
H46 C52 1_555 1_555
C53 C48 1_555 1_555
H47 C53 1_555 1_555
C54 C48 1_555 1_555
C55 C50 1_555 1_555
C56 H48 1_555 1_555
C57 C56 1_555 1_555
H49 C57 1_555 1_555
C58 C59 1_555 1_555
C59 H50 1_555 1_555
H51 C59 1_555 1_555
H52 C59 1_555 1_555
C60 H53 1_555 1_555
H54 C60 1_555 1_555
C61 H55 1_555 1_555
C62 C61 1_555 1_555
H56 C62 1_555 1_555
C63 C64 1_555 1_555
C64 H57 1_555 1_555
H58 C64 1_555 1_555
H59 C64 1_555 1_555
C65 H60 1_555 1_555
C66 C65 1_555 1_555
H61 C66 1_555 1_555
C67 C68 1_555 1_555
C68 H62 1_555 1_555
H63 C68 1_555 1_555
H64 C68 1_555 1_555
Cd1 N1 1_555 1_555
Cd2 N8 1_555 1_555
Cd3 N9 1_555 1_555
Cd4 N12 1_555 1_555
N1 C14 1_555 1_555
N2 C12 1_555 1_555
N3 C9 1_555 1_555
N4 C10 1_555 1_555
N5 C18 1_555 1_555
N6 C19 1_555 1_555
N7 C22 1_555 1_555
N8 C24 1_555 1_555
N9 C43 1_555 1_555
N10 C44 1_555 1_555
N11 C47 1_555 1_555
N12 C56 1_555 1_555
N13 C57 1_555 1_555
N14 C61 1_555 1_555
N15 C60 1_555 1_555
N16 C65 1_555 1_555
O1 C8 1_555 1_555
O2 C8 1_555 1_555
O3 C7 1_555 1_555
O4 C7 1_555 1_555
O5 C27 1_555 1_555
O6 C27 1_555 1_555
O7 C34 1_555 1_555
O8 C34 1_555 1_555
O9 C42 1_555 1_555
O10 C42 1_555 1_555
O11 C41 1_555 1_555
O12 C41 1_555 1_555
O13 C54 1_555 1_555
O14 C54 1_555 1_555
O15 C55 1_555 1_555
O16 C55 1_555 1_555
Cd1_2 N3 1_555 1_555
Cd2B O3 1_555 1_555
Cd2_2 O8 1_555 1_555
Cd3_2 O12 1_555 1_555
Cd4_2 N14 1_555 1_555
N3_2 Cd1 1_555 1_555
N14_2 Cd4 1_555 1_555
O3B Cd2 1_555 1_555
O4B Cd2 1_555 1_555
O8_2 Cd2 1_555 1_555
O12_2 Cd3 1_555 1_555
O13B Cd3 1_555 1_555
O14B Cd3 1_555 1_555
Cd3B O13 1_555 1_555
C5 C6 1_555 1_555
C11 N3 1_555 1_555
C11 N4 1_555 1_555
C12 N4 1_555 1_555
C15 N2 1_555 1_555
C16 N1 1_555 1_555
C16 N2 1_555 1_555
C20 N5 1_555 1_555
C20 N6 1_555 1_555
C22 N6 1_555 1_555
C23 N7 1_555 1_555
C25 N7 1_555 1_555
C25 N8 1_555 1_555
C32 C33 1_555 1_555
C39 C40 1_555 1_555
C45 N9 1_555 1_555
C45 N10 1_555 1_555
C47 N10 1_555 1_555
C52 C53 1_555 1_555
C58 N12 1_555 1_555
C58 N13 1_555 1_555
C60 N13 1_555 1_555
C62 N15 1_555 1_555
C63 N14 1_555 1_555
C63 N15 1_555 1_555
C66 N11 1_555 1_555
C67 N11 1_555 1_555
C67 N16 1_555 1_555
Cd1 N5 1_555 1_555
Cd1 O1 1_555 1_555
Cd1 O2 1_555 1_555
Cd2 O5 1_555 1_555
Cd2 O6 1_555 1_555
Cd3 O9 1_555 1_555
Cd3 O10 1_555 1_555
Cd4 O15 1_555 1_555
Cd4 O16 1_555 1_555
Cd4 N16 1_555 1_555
O4 Cd2B 1_555 1_555
O14 Cd3B 1_555 1_555

#END
