
#######################################################################
#
#                 Cambridge Crystallographic Data Centre
#                                CCDC 
#
#######################################################################
#
# If this CIF has been generated from an entry in the Cambridge 
# Structural Database, then it will include bibliographic, chemical, 
# crystal, experimental, refinement or atomic coordinate data resulting 
# from the CCDC's data processing and validation procedures.
#
#######################################################################

data_UTIZON
_symmetry_cell_setting           monoclinic
_symmetry_space_group_name_H-M   'C 2/c'
_symmetry_Int_Tables_number      15
_space_group_name_Hall           '-C 2yn'
loop_
_symmetry_equiv_pos_site_id
_symmetry_equiv_pos_as_xyz
1 x,y,z
2 -x,y,1/2-z
3 1/2+x,1/2+y,z
4 1/2-x,1/2+y,1/2-z
5 -x,-y,-z
6 x,-y,1/2+z
7 1/2-x,1/2-y,-z
8 1/2+x,1/2-y,1/2+z
_cell_length_a                   25.471(5)
_cell_length_b                   10.246(2)
_cell_length_c                   9.7147(19)
_cell_angle_alpha                90
_cell_angle_beta                 99.33(3)
_cell_angle_gamma                90
_cell_volume                     2501.76
loop_
_atom_site_label
_atom_site_type_symbol
_atom_site_fract_x
_atom_site_fract_y
_atom_site_fract_z
Mn1 Mn 0.121189(9) 0.09982(2) -0.00872(2)
Cl1 Cl 0.039170(16) 0.16551(4) 0.08364(4)
O1 O 0.14925(4) 0.00467(13) 0.18602(12)
O2 O 0.18989(5) -0.05436(13) 0.39689(12)
N1 N 0.28576(5) -0.06335(14) 0.32020(14)
N2 N 0.39706(5) -0.22483(14) 0.66590(14)
O3 O 0.07720(6) -0.06069(16) -0.10925(15)
H1 H 0.0500 -0.0730 -0.0924
H2 H 0.0787 -0.0829 -0.1750
N3 N 0.33230(5) -0.21742(14) 0.41535(14)
C1 C 0.39845(7) 0.00861(19) 0.6874(2)
H3 H 0.3867 0.0895 0.6513
N4 N 0.29610(6) -0.18842(14) 0.30677(14)
C2 C 0.38062(6) -0.10545(16) 0.62022(17)
C3 C 0.34192(6) -0.10707(16) 0.49022(17)
N5 N 0.31293(5) -0.00770(14) 0.43317(15)
C4 C 0.24330(6) 0.00082(18) 0.22613(18)
H4 H 0.2417 -0.0346 0.1329
H5 H 0.2510 0.0934 0.2224
C5 C 0.45024(8) -0.1224(2) 0.8606(2)
H6 H 0.4735 -0.1308 0.9444
C6 C 0.43431(8) -0.0010(2) 0.8103(2)
H7 H 0.4475 0.0737 0.8582
C7 C 0.43147(8) -0.2315(2) 0.78568(19)
H8 H 0.4431 -0.3131 0.8196
C8 C 0.18943(6) -0.01821(16) 0.27389(16)
Mn1E Mn 0.121189(9) -0.09982(2) 0.49128(2)
Mn1C Mn 0.378811(9) -0.40018(2) 0.50872(2)
O2E O 0.18989(5) 0.05436(13) -0.10311(12)
N2C N 0.10294(5) 0.27517(14) -0.16590(14)
N3C N 0.16770(5) 0.28258(14) 0.08465(14)
loop_
_geom_bond_atom_site_label_1
_geom_bond_atom_site_label_2
_geom_bond_site_symmetry_1
_geom_bond_site_symmetry_2
Mn1 Cl1 1_555 1_555
O1 Mn1 1_555 1_555
O2 C8 1_555 1_555
N1 N4 1_555 1_555
N2 C2 1_555 1_555
O3 Mn1 1_555 1_555
H1 O3 1_555 1_555
H2 O3 1_555 1_555
N3 N4 1_555 1_555
C1 H3 1_555 1_555
C2 C1 1_555 1_555
C3 N3 1_555 1_555
N5 N1 1_555 1_555
C4 N1 1_555 1_555
H4 C4 1_555 1_555
H5 C4 1_555 1_555
C5 H6 1_555 1_555
C6 C1 1_555 1_555
H7 C6 1_555 1_555
C7 N2 1_555 1_555
H8 C7 1_555 1_555
C8 O1 1_555 1_555
Mn1E O2 1_555 1_555
Mn1C N2 1_555 1_555
O2E Mn1 1_555 1_555
N2C Mn1 1_555 1_555
N3C Mn1 1_555 1_555
N3 Mn1C 1_555 1_555
C2 C3 1_555 1_555
C3 N5 1_555 1_555
C4 C8 1_555 1_555
C5 C6 1_555 1_555
C5 C7 1_555 1_555

#END
