
#######################################################################
#
#                 Cambridge Crystallographic Data Centre
#                                CCDC 
#
#######################################################################
#
# If this CIF has been generated from an entry in the Cambridge 
# Structural Database, then it will include bibliographic, chemical, 
# crystal, experimental, refinement or atomic coordinate data resulting 
# from the CCDC's data processing and validation procedures.
#
#######################################################################

data_UTOBAH
_symmetry_cell_setting           monoclinic
_symmetry_space_group_name_H-M   'P 21/n'
_symmetry_Int_Tables_number      14
_space_group_name_Hall           '-P 2yn'
loop_
_symmetry_equiv_pos_site_id
_symmetry_equiv_pos_as_xyz
1 x,y,z
2 1/2-x,1/2+y,1/2-z
3 -x,-y,-z
4 1/2+x,1/2-y,1/2+z
_cell_length_a                   9.3613(4)
_cell_length_b                   15.8661(7)
_cell_length_c                   10.1425(4)
_cell_angle_alpha                90
_cell_angle_beta                 101.6460(10)
_cell_angle_gamma                90
_cell_volume                     1475.43
loop_
_atom_site_label
_atom_site_type_symbol
_atom_site_fract_x
_atom_site_fract_y
_atom_site_fract_z
Cd1 Cd 0.35923(2) 0.057536(12) 0.60323(2)
O1 O 0.3560(3) 0.06740(12) 0.8403(2)
C1 C 0.2271(3) -0.03006(16) 0.9522(3)
C2 C 0.2835(3) -0.00041(17) 0.8317(3)
C3 C 0.2894(3) -0.00311(15) 1.0806(3)
H1 H 0.3711 0.0316 1.0938
O2 O 0.2551(3) -0.04294(14) 0.7249(2)
N1 N -0.0396(2) 0.22376(14) 0.5012(3)
N2 N 0.1689(3) 0.15681(14) 0.5607(3)
C4 C 0.0488(3) -0.10821(17) 1.0418(3)
H2 H -0.0311 -0.1443 1.0288
C5 C 0.0291(3) 0.14912(17) 0.5060(3)
H3 H -0.0160 0.0987 0.4748
C6 C -0.1913(3) 0.24089(19) 0.4421(3)
H4 H -0.2202 0.2070 0.3615
H5 H -0.2015 0.2997 0.4158
C7 C 0.1086(3) -0.07947(17) 1.1697(3)
H6 H 0.0671 -0.0949 1.2421
C8 C 0.2307(3) -0.02754(16) 1.1902(3)
C9 C 0.1069(3) -0.08360(17) 0.9341(3)
H7 H 0.0656 -0.1028 0.8482
C10 C 0.1882(3) 0.24076(19) 0.5910(3)
H8 H 0.2767 0.2652 0.6309
C11 C 0.0618(3) 0.28303(18) 0.5551(4)
H9 H 0.0465 0.3404 0.5648
N3 N -0.2881(2) 0.22284(13) 0.5337(2)
C12 C -0.4007(3) 0.16916(16) 0.5045(3)
H10 H -0.4258 0.1397 0.4238
C13 C -0.2868(3) 0.25388(19) 0.6613(3)
H11 H -0.2217 0.2926 0.7091
O3 O 0.4231(3) 0.03357(14) 1.3520(2)
C14 C 0.2966(3) 0.00149(16) 1.3300(3)
C15 C -0.3997(3) 0.21617(19) 0.7020(3)
H12 H -0.4252 0.2249 0.7850
O4 O 0.2244(3) -0.00778(14) 1.4198(2)
N4 N -0.4712(3) 0.16326(15) 0.6038(3)
Cd1B Cd 0.64077(2) -0.057536(12) 1.39677(2)
Cd1_2 Cd 0.35923(2) 0.057536(12) 1.60323(2)
Cd1_3 Cd -0.64077(2) 0.057536(12) 0.60323(2)
O3B O 0.5769(3) -0.03357(14) 0.6480(2)
O4_2 O 0.2244(3) -0.00778(14) 0.4198(2)
N4_2 N 0.5288(3) 0.16326(15) 0.6038(3)
loop_
_geom_bond_atom_site_label_1
_geom_bond_atom_site_label_2
_geom_bond_site_symmetry_1
_geom_bond_site_symmetry_2
Cd1 O1 1_555 1_555
O1 C2 1_555 1_555
C1 C2 1_555 1_555
C2 O2 1_555 1_555
C3 C1 1_555 1_555
H1 C3 1_555 1_555
O2 Cd1 1_555 1_555
N1 C5 1_555 1_555
N2 Cd1 1_555 1_555
C4 H2 1_555 1_555
C5 N2 1_555 1_555
H3 C5 1_555 1_555
C6 N1 1_555 1_555
H4 C6 1_555 1_555
H5 C6 1_555 1_555
C7 C4 1_555 1_555
H6 C7 1_555 1_555
C8 C3 1_555 1_555
C9 C1 1_555 1_555
H7 C9 1_555 1_555
C10 N2 1_555 1_555
H8 C10 1_555 1_555
C11 N1 1_555 1_555
H9 C11 1_555 1_555
N3 C6 1_555 1_555
C12 N3 1_555 1_555
H10 C12 1_555 1_555
C13 N3 1_555 1_555
H11 C13 1_555 1_555
O3 C14 1_555 1_555
C14 C8 1_555 1_555
C15 C13 1_555 1_555
H12 C15 1_555 1_555
O4 C14 1_555 1_555
N4 C12 1_555 1_555
Cd1B O3 1_555 1_555
Cd1_2 O4 1_555 1_555
Cd1_3 N4 1_555 1_555
O3B Cd1 1_555 1_555
O4_2 Cd1 1_555 1_555
N4_2 Cd1 1_555 1_555
C4 C9 1_555 1_555
C7 C8 1_555 1_555
C10 C11 1_555 1_555
C15 N4 1_555 1_555

#END
