
#######################################################################
#
#                 Cambridge Crystallographic Data Centre
#                                CCDC 
#
#######################################################################
#
# If this CIF has been generated from an entry in the Cambridge 
# Structural Database, then it will include bibliographic, chemical, 
# crystal, experimental, refinement or atomic coordinate data resulting 
# from the CCDC's data processing and validation procedures.
#
#######################################################################

data_UTOBUB
_symmetry_cell_setting           triclinic
_symmetry_space_group_name_H-M   'P -1'
_symmetry_Int_Tables_number      2
_space_group_name_Hall           '-P 1'
loop_
_symmetry_equiv_pos_site_id
_symmetry_equiv_pos_as_xyz
1 x,y,z
2 -x,-y,-z
_cell_length_a                   13.281(7)
_cell_length_b                   13.330(7)
_cell_length_c                   20.654(11)
_cell_angle_alpha                103.028(5)
_cell_angle_beta                 96.824(5)
_cell_angle_gamma                101.916(5)
_cell_volume                     3432.77
loop_
_atom_site_label
_atom_site_type_symbol
_atom_site_fract_x
_atom_site_fract_y
_atom_site_fract_z
Cu1 Cu 0.82860(4) 0.53367(4) 0.52918(2)
Cu2 Cu 0.47032(4) 0.00322(4) 0.11896(2)
Cu3 Cu 0.65349(5) 0.30658(5) 0.30468(3)
P1 P 0.83793(8) 0.70847(8) 0.54713(5)
P2 P 0.78631(8) 0.45182(8) 0.60993(5)
P3 P 0.52447(9) -0.13250(9) 0.15152(6)
P4 P 0.29616(8) -0.01037(8) 0.11844(5)
N1 N 0.7381(3) 0.4450(3) 0.44242(18)
N2 N 0.5484(3) 0.1402(3) 0.18244(18)
C1 C 0.7077(3) 0.3910(3) 0.38893(19)
C2 C 0.5935(3) 0.2129(3) 0.22541(18)
C3 C 0.9630(3) 0.5102(3) 0.50948(18)
N3 N 1.0370(3) 0.4898(3) 0.49052(18)
C4 C 0.4940(3) 0.0000(3) 0.02714(16)
N4 N 0.5060(3) 0.0000(3) -0.02714(16)
C5 C 0.8552(3) 0.7604(3) 0.47274(18)
C6 C 0.8462(4) 0.6876(3) 0.4115(2)
H1 H 0.8308 0.6152 0.4084
C7 C 0.8606(5) 0.7242(4) 0.3550(2)
H2 H 0.8575 0.6761 0.3141
C8 C 0.8793(4) 0.8308(4) 0.3584(2)
H3 H 0.8850 0.8540 0.3194
C9 C 0.8896(4) 0.9027(3) 0.4193(2)
H4 H 0.9036 0.9750 0.4218
C10 C 0.8792(3) 0.8677(3) 0.4768(2)
H5 H 0.8884 0.9166 0.5183
C11 C 0.7232(3) 0.7471(3) 0.57314(18)
C12 C 0.6966(3) 0.7325(3) 0.63425(19)
H6 H 0.7406 0.7074 0.6619
C13 C 0.6066(3) 0.7545(3) 0.6546(2)
H7 H 0.5898 0.7427 0.6951
C14 C 0.5420(3) 0.7936(4) 0.6155(2)
H8 H 0.4833 0.8116 0.6306
C15 C 0.5633(3) 0.8063(4) 0.5543(2)
H9 H 0.5170 0.8288 0.5266
C16 C 0.6557(3) 0.7850(3) 0.5334(2)
H10 H 0.6716 0.7965 0.4926
C17 C 0.9443(3) 0.7954(3) 0.61131(18)
C18 C 1.0443(3) 0.7740(3) 0.6092(2)
H11 H 1.0527 0.7190 0.5751
C19 C 1.1302(3) 0.8349(3) 0.6578(2)
H12 H 1.1954 0.8203 0.6561
C20 C 1.1186(4) 0.9158(4) 0.7080(2)
H13 H 1.1761 0.9567 0.7401
C21 C 1.0225(4) 0.9367(4) 0.7110(2)
H14 H 1.0152 0.9907 0.7461
C22 C 0.9358(3) 0.8790(3) 0.66286(19)
H15 H 0.8717 0.8964 0.6651
C23 C 0.7698(3) 0.3087(3) 0.57901(18)
C24 C 0.8534(3) 0.2740(3) 0.5571(2)
H16 H 0.9162 0.3225 0.5601
C25 C 0.8439(4) 0.1664(3) 0.5305(2)
H17 H 0.9008 0.1437 0.5155
C26 C 0.7541(3) 0.0940(3) 0.5259(2)
H18 H 0.7495 0.0222 0.5085
C27 C 0.6705(3) 0.1271(3) 0.5468(2)
H19 H 0.6078 0.0776 0.5426
C28 C 0.6777(3) 0.2342(3) 0.5746(2)
H20 H 0.6207 0.2558 0.5901
C29 C 0.8848(3) 0.4826(3) 0.68529(19)
C30 C 0.8839(4) 0.4211(4) 0.7311(2)
H21 H 0.8293 0.3617 0.7249
C31 C 0.9635(5) 0.4474(4) 0.7859(2)
H22 H 0.9616 0.4065 0.8170
C32 C 1.0455(5) 0.5338(4) 0.7946(3)
H23 H 1.0992 0.5512 0.8315
C33 C 1.0484(4) 0.5940(4) 0.7495(2)
H24 H 1.1042 0.6523 0.7553
C34 C 0.9688(4) 0.5688(4) 0.6953(2)
H25 H 0.9714 0.6104 0.6646
C35 C 0.6642(3) 0.4644(3) 0.6389(2)
C36 C 0.6536(3) 0.4897(4) 0.7067(2)
H26 H 0.7103 0.4986 0.7403
C37 C 0.5582(4) 0.5015(4) 0.7236(3)
H27 H 0.5510 0.5194 0.7688
C38 C 0.4734(4) 0.4866(3) 0.6734(3)
H28 H 0.4092 0.4934 0.6850
C39 C 0.4831(4) 0.4623(3) 0.6075(2)
H29 H 0.4257 0.4521 0.5741
C40 C 0.5783(3) 0.4526(3) 0.5902(2)
H30 H 0.5851 0.4379 0.5449
C41 C 0.5421(3) -0.1286(3) 0.2413(2)
C42 C 0.5784(4) -0.0302(4) 0.2868(2)
H31 H 0.5891 0.0305 0.2709
C43 C 0.5992(4) -0.0204(4) 0.3553(2)
H32 H 0.6240 0.0467 0.3849
C44 C 0.5839(4) -0.1068(4) 0.3799(2)
H33 H 0.5979 -0.0997 0.4261
C45 C 0.5474(4) -0.2057(4) 0.3356(2)
H34 H 0.5365 -0.2655 0.3523
C46 C 0.5267(4) -0.2174(4) 0.2665(2)
H35 H 0.5025 -0.2848 0.2372
C47 C 0.6527(4) -0.1486(4) 0.1322(2)
C48 C 0.6955(4) -0.2281(5) 0.1488(3)
H36 H 0.6584 -0.2764 0.1688
C49 C 0.7925(5) -0.2344(6) 0.1355(3)
H37 H 0.8209 -0.2875 0.1470
C50 C 0.8474(5) -0.1678(6) 0.1068(3)
H38 H 0.9114 -0.1771 0.0961
C51 C 0.8104(4) -0.0855(6) 0.0929(3)
H39 H 0.8507 -0.0355 0.0756
C52 C 0.7106(4) -0.0780(5) 0.1053(2)
H40 H 0.6836 -0.0235 0.0948
C53 C 0.4389(4) -0.2627(4) 0.1107(2)
C54 C 0.4558(5) -0.3237(5) 0.0528(3)
H41 H 0.5165 -0.3014 0.0363
C55 C 0.3859(6) -0.4181(6) 0.0173(4)
H42 H 0.3992 -0.4591 -0.0221
C56 C 0.2949(6) -0.4497(5) 0.0425(4)
H43 H 0.2483 -0.5142 0.0208
C57 C 0.2741(5) -0.3878(5) 0.0977(4)
H44 H 0.2117 -0.4075 0.1130
C58 C 0.3464(4) -0.2943(4) 0.1319(3)
H45 H 0.3316 -0.2518 0.1702
C59 C 0.2430(3) -0.0597(3) 0.18584(18)
C60 C 0.3009(3) -0.0200(3) 0.24972(19)
H46 H 0.3643 0.0295 0.2565
C61 C 0.2671(4) -0.0516(4) 0.3035(2)
H47 H 0.3078 -0.0242 0.3462
C62 C 0.1730(4) -0.1240(4) 0.2947(2)
H48 H 0.1502 -0.1460 0.3313
C63 C 0.1145(4) -0.1626(4) 0.2329(2)
H49 H 0.0503 -0.2104 0.2272
C64 C 0.1477(3) -0.1326(3) 0.1775(2)
H50 H 0.1066 -0.1610 0.1349
C65 C 0.2630(3) 0.1175(3) 0.12891(19)
C66 C 0.2006(3) 0.1548(3) 0.1740(2)
H51 H 0.1734 0.1136 0.2016
C67 C 0.1791(4) 0.2531(4) 0.1777(2)
H52 H 0.1370 0.2773 0.2076
C68 C 0.2197(4) 0.3155(4) 0.1371(3)
H53 H 0.2061 0.3819 0.1401
C69 C 0.2793(5) 0.2786(4) 0.0932(3)
H54 H 0.3045 0.3195 0.0650
C70 C 0.3038(4) 0.1824(4) 0.0891(2)
H55 H 0.3476 0.1605 0.0598
C71 C 0.2079(3) -0.0889(3) 0.04174(19)
C72 C 0.1049(3) -0.0830(3) 0.0275(2)
H56 H 0.0799 -0.0361 0.0584
C73 C 0.0383(4) -0.1440(4) -0.0305(2)
H57 H -0.0311 -0.1407 -0.0385
C74 C 0.0789(4) -0.2106(5) -0.0766(3)
H58 H 0.0360 -0.2517 -0.1167
C75 C 0.1811(5) -0.2173(5) -0.0643(3)
H59 H 0.2072 -0.2620 -0.0960
C76 C 0.2444(4) -0.1571(4) -0.0047(3)
H60 H 0.3130 -0.1628 0.0042
Cu1A Cu 1.17140(4) 0.46633(4) 0.47082(2)
Cu2A Cu 0.52968(4) -0.00322(4) -0.11896(2)
loop_
_geom_bond_atom_site_label_1
_geom_bond_atom_site_label_2
_geom_bond_site_symmetry_1
_geom_bond_site_symmetry_2
Cu1 P1 1_555 1_555
Cu2 P3 1_555 1_555
Cu3 C1 1_555 1_555
P1 C5 1_555 1_555
P2 Cu1 1_555 1_555
P3 C41 1_555 1_555
P4 Cu2 1_555 1_555
N1 Cu1 1_555 1_555
N2 Cu2 1_555 1_555
C1 N1 1_555 1_555
C2 Cu3 1_555 1_555
C3 Cu1 1_555 1_555
N3 C3 1_555 1_555
C4 Cu2 1_555 1_555
N4 C4 1_555 1_555
C5 C6 1_555 1_555
C6 H1 1_555 1_555
C7 C6 1_555 1_555
H2 C7 1_555 1_555
C8 C7 1_555 1_555
H3 C8 1_555 1_555
C9 C8 1_555 1_555
H4 C9 1_555 1_555
C10 C5 1_555 1_555
H5 C10 1_555 1_555
C11 P1 1_555 1_555
C12 C11 1_555 1_555
H6 C12 1_555 1_555
C13 C12 1_555 1_555
H7 C13 1_555 1_555
C14 C13 1_555 1_555
H8 C14 1_555 1_555
C15 C14 1_555 1_555
H9 C15 1_555 1_555
C16 C11 1_555 1_555
H10 C16 1_555 1_555
C17 P1 1_555 1_555
C18 C17 1_555 1_555
H11 C18 1_555 1_555
C19 C18 1_555 1_555
H12 C19 1_555 1_555
C20 C19 1_555 1_555
H13 C20 1_555 1_555
C21 C20 1_555 1_555
H14 C21 1_555 1_555
C22 C17 1_555 1_555
H15 C22 1_555 1_555
C23 P2 1_555 1_555
C24 C23 1_555 1_555
H16 C24 1_555 1_555
C25 C24 1_555 1_555
H17 C25 1_555 1_555
C26 C25 1_555 1_555
H18 C26 1_555 1_555
C27 C26 1_555 1_555
H19 C27 1_555 1_555
C28 C23 1_555 1_555
H20 C28 1_555 1_555
C29 P2 1_555 1_555
C30 C29 1_555 1_555
H21 C30 1_555 1_555
C31 C30 1_555 1_555
H22 C31 1_555 1_555
C32 C31 1_555 1_555
H23 C32 1_555 1_555
C33 C32 1_555 1_555
H24 C33 1_555 1_555
C34 C29 1_555 1_555
H25 C34 1_555 1_555
C35 P2 1_555 1_555
C36 C35 1_555 1_555
H26 C36 1_555 1_555
C37 C36 1_555 1_555
H27 C37 1_555 1_555
C38 C37 1_555 1_555
H28 C38 1_555 1_555
C39 C38 1_555 1_555
H29 C39 1_555 1_555
C40 C35 1_555 1_555
H30 C40 1_555 1_555
C41 C42 1_555 1_555
C42 H31 1_555 1_555
C43 C42 1_555 1_555
H32 C43 1_555 1_555
C44 C43 1_555 1_555
H33 C44 1_555 1_555
C45 C44 1_555 1_555
H34 C45 1_555 1_555
C46 C41 1_555 1_555
H35 C46 1_555 1_555
C47 P3 1_555 1_555
C48 C47 1_555 1_555
H36 C48 1_555 1_555
C49 C48 1_555 1_555
H37 C49 1_555 1_555
C50 C49 1_555 1_555
H38 C50 1_555 1_555
C51 C50 1_555 1_555
H39 C51 1_555 1_555
C52 C47 1_555 1_555
H40 C52 1_555 1_555
C53 P3 1_555 1_555
C54 C53 1_555 1_555
H41 C54 1_555 1_555
C55 C54 1_555 1_555
H42 C55 1_555 1_555
C56 C55 1_555 1_555
H43 C56 1_555 1_555
C57 C56 1_555 1_555
H44 C57 1_555 1_555
C58 C53 1_555 1_555
H45 C58 1_555 1_555
C59 P4 1_555 1_555
C60 C59 1_555 1_555
H46 C60 1_555 1_555
C61 C60 1_555 1_555
H47 C61 1_555 1_555
C62 C61 1_555 1_555
H48 C62 1_555 1_555
C63 C62 1_555 1_555
H49 C63 1_555 1_555
C64 C59 1_555 1_555
H50 C64 1_555 1_555
C65 P4 1_555 1_555
C66 C65 1_555 1_555
H51 C66 1_555 1_555
C67 C66 1_555 1_555
H52 C67 1_555 1_555
C68 C67 1_555 1_555
H53 C68 1_555 1_555
C69 C68 1_555 1_555
H54 C69 1_555 1_555
C70 C65 1_555 1_555
H55 C70 1_555 1_555
C71 P4 1_555 1_555
C72 C71 1_555 1_555
H56 C72 1_555 1_555
C73 C72 1_555 1_555
H57 C73 1_555 1_555
C74 C73 1_555 1_555
H58 C74 1_555 1_555
C75 C74 1_555 1_555
H59 C75 1_555 1_555
C76 C71 1_555 1_555
H60 C76 1_555 1_555
Cu1A N3 1_555 1_555
Cu2A N4 1_555 1_555
N2 C2 1_555 1_555
C9 C10 1_555 1_555
C15 C16 1_555 1_555
C21 C22 1_555 1_555
C27 C28 1_555 1_555
C33 C34 1_555 1_555
C39 C40 1_555 1_555
C45 C46 1_555 1_555
C51 C52 1_555 1_555
C57 C58 1_555 1_555
C63 C64 1_555 1_555
C69 C70 1_555 1_555
C75 C76 1_555 1_555

#END
