
#######################################################################
#
#                 Cambridge Crystallographic Data Centre
#                                CCDC 
#
#######################################################################
#
# If this CIF has been generated from an entry in the Cambridge 
# Structural Database, then it will include bibliographic, chemical, 
# crystal, experimental, refinement or atomic coordinate data resulting 
# from the CCDC's data processing and validation procedures.
#
#######################################################################

data_UTOGIU
_symmetry_cell_setting           triclinic
_symmetry_space_group_name_H-M   'P -1'
_symmetry_Int_Tables_number      2
_space_group_name_Hall           '-P 1'
loop_
_symmetry_equiv_pos_site_id
_symmetry_equiv_pos_as_xyz
1 x,y,z
2 -x,-y,-z
_cell_length_a                   7.6055(6)
_cell_length_b                   9.7027(11)
_cell_length_c                   10.3144(10)
_cell_angle_alpha                74.431(9)
_cell_angle_beta                 81.609(7)
_cell_angle_gamma                87.720(8)
_cell_volume                     725.363
loop_
_atom_site_label
_atom_site_type_symbol
_atom_site_fract_x
_atom_site_fract_y
_atom_site_fract_z
Cd1 Cd 0.37119(4) 0.60250(3) 0.34830(3)
Cl1 Cl 0.10727(13) 0.49171(10) 0.30891(11)
Cl2 Cl 0.41293(13) 0.62093(9) 0.58398(10)
N1 N 0.2477(4) 0.8391(3) 0.3168(3)
N2 N 0.3564(4) 0.9476(3) 0.2763(3)
N3 N 0.2578(4) 1.0677(3) 0.2711(3)
N4 N 0.3531(4) 1.2614(3) 0.0745(3)
N5 N 0.4535(4) 1.3280(3) -0.1440(3)
C1 C 0.0746(5) 0.8865(4) 0.3398(4)
C2 C 0.0805(5) 1.0354(4) 0.3106(4)
C3 C -0.0701(5) 1.1177(4) 0.3322(4)
H1 H -0.0656 1.2167 0.3151
C4 C -0.2255(5) 1.0418(4) 0.3806(4)
H2 H -0.3299 1.0915 0.3969
C5 C -0.2333(5) 0.8923(4) 0.4064(4)
H3 H -0.3426 0.8466 0.4374
C6 C -0.0851(5) 0.8122(4) 0.3874(4)
H4 H -0.0904 0.7132 0.4052
C7 C 0.3445(5) 1.2069(4) 0.2205(4)
H5 H 0.2797 1.2742 0.2643
H6 H 0.4640 1.1987 0.2442
C8 C 0.2094(5) 1.3085(4) 0.0082(4)
H7 H 0.0919 1.3119 0.0479
C9 C 0.2719(5) 1.3492(4) -0.1261(4)
H8 H 0.2035 1.3856 -0.1954
C10 C 0.4998(5) 1.2744(4) -0.0210(4)
C11 C 0.6844(5) 1.2391(4) 0.0090(4)
H9 H 0.7009 1.2715 0.0876
H10 H 0.7665 1.2922 -0.0674
C12 C 0.7329(6) 1.0793(4) 0.0370(4)
H11 H 0.7140 1.0451 -0.0389
H12 H 0.6593 1.0264 0.1173
H13 H 0.8555 1.0668 0.0502
Cd1A Cd 0.62881(4) 0.39750(3) 0.65170(3)
Cd1A_2 Cd 0.62881(4) 1.39750(3) -0.34830(3)
Cl2A Cl 0.58707(13) 0.37907(9) 0.41602(10)
N5A N 0.5465(4) 0.6720(3) 0.1440(3)
loop_
_geom_bond_atom_site_label_1
_geom_bond_atom_site_label_2
_geom_bond_site_symmetry_1
_geom_bond_site_symmetry_2
Cd1 Cl1 1_555 1_555
Cl2 Cd1 1_555 1_555
N1 Cd1 1_555 1_555
N2 N1 1_555 1_555
N3 N2 1_555 1_555
N4 C7 1_555 1_555
N5 C9 1_555 1_555
C1 N1 1_555 1_555
C2 N3 1_555 1_555
C3 C2 1_555 1_555
H1 C3 1_555 1_555
C4 C3 1_555 1_555
H2 C4 1_555 1_555
C5 C4 1_555 1_555
H3 C5 1_555 1_555
C6 C1 1_555 1_555
H4 C6 1_555 1_555
C7 N3 1_555 1_555
H5 C7 1_555 1_555
H6 C7 1_555 1_555
C8 N4 1_555 1_555
H7 C8 1_555 1_555
C9 C8 1_555 1_555
H8 C9 1_555 1_555
C10 N4 1_555 1_555
C11 C10 1_555 1_555
H9 C11 1_555 1_555
H10 C11 1_555 1_555
C12 C11 1_555 1_555
H11 C12 1_555 1_555
H12 C12 1_555 1_555
H13 C12 1_555 1_555
Cd1A Cl2 1_555 1_555
Cd1A_2 N5 1_555 1_555
Cl2A Cd1 1_555 1_555
N5A Cd1 1_555 1_555
N5 C10 1_555 1_555
C1 C2 1_555 1_555
C5 C6 1_555 1_555
Cd1A Cl2A 1_555 1_555

#END
