
#######################################################################
#
#                 Cambridge Crystallographic Data Centre
#                                CCDC 
#
#######################################################################
#
# If this CIF has been generated from an entry in the Cambridge 
# Structural Database, then it will include bibliographic, chemical, 
# crystal, experimental, refinement or atomic coordinate data resulting 
# from the CCDC's data processing and validation procedures.
#
#######################################################################

data_UTOJIX
_symmetry_cell_setting           monoclinic
_symmetry_space_group_name_H-M   'C 2'
_symmetry_Int_Tables_number      5
_space_group_name_Hall           'C 2y'
loop_
_symmetry_equiv_pos_site_id
_symmetry_equiv_pos_as_xyz
1 x,y,z
2 -x,y,-z
3 1/2+x,1/2+y,z
4 1/2-x,1/2+y,-z
_cell_length_a                   15.915(2)
_cell_length_b                   14.662(4)
_cell_length_c                   14.820(2)
_cell_angle_alpha                90
_cell_angle_beta                 116.14
_cell_angle_gamma                90
_cell_volume                     3104.48
loop_
_atom_site_label
_atom_site_type_symbol
_atom_site_fract_x
_atom_site_fract_y
_atom_site_fract_z
Nd1 Nd 0.2168(1) 0.9406(1) 0.8241(1)
Zn1 Zn 0.0000 0.8026(1) 0.5000
Zn2 Zn 0.2889(1) 0.7700(1) 1.1363(1)
O1 O 0.0832(4) 0.8426(4) 0.6789(4)
O2 O 0.1776(5) 0.7772(5) 0.8194(4)
O3 O -0.1419(4) 0.8059(5) 0.4730(5)
O4 O -0.2450(5) 0.7537(7) 0.5242(6)
O5 O 0.2283(4) 0.8852(4) 0.9982(4)
O6 O 0.2739(5) 1.0241(4) 0.9898(4)
O7 O 0.0334(5) 0.7893(6) 1.1420(6)
O8 O 0.1681(5) 0.7341(5) 1.1512(6)
O9 O 0.3343(4) 0.6158(5) 1.1986(4)
O10 O 0.3664(5) 0.5369(4) 1.3350(4)
O11 O 0.5635(6) 0.8074(13) 1.1910(6)
O12 O 0.4083(4) 0.8155(6) 1.1226(4)
O13 O 0.3400(5) 1.0499(5) 0.8253(6)
O14 O 0.2689(4) 0.8810(5) 0.7018(4)
O15 O 0.3708(4) 0.8707(6) 0.9294(4)
O16 O 0.0609(4) 0.9521(6) 0.8324(5)
O17 O 0.0000 0.9445(9) 0.5000
O18 O 0.2569(7) 0.6994(6) 1.0075(5)
N1 N 0.2505(5) 0.8989(5) 1.1875(5)
N2 N 0.4013(5) 0.7737(5) 1.2955(5)
C1 C 0.1140(6) 0.7735(6) 0.7315(5)
C2 C -0.1649(6) 0.7583(7) 0.5306(6)
C3 C 0.2574(6) 0.9620(6) 1.0372(6)
C4 C 0.2783(7) 0.9777(6) 1.1467(6)
C5 C 0.2971(7) 0.8973(7) 1.2987(6)
C6 C 0.1490(7) 0.8953(7) 1.1509(7)
C7 C 0.1136(6) 0.7978(8) 1.1484(7)
C8 C 0.3621(5) 0.6119(7) 1.2921(6)
C9 C 0.3862(7) 0.6976(6) 1.3538(6)
C10 C 0.3986(7) 0.8633(7) 1.3365(6)
C11 C 0.4905(6) 0.7604(8) 1.2909(6)
C12 C 0.4872(6) 0.7969(10) 1.1961(7)
C13 C 0.0794(6) 0.6793(6) 0.6861(6)
N3 N -0.0092(5) 0.6883(5) 0.5923(5)
C14 C -0.0879(6) 0.7087(7) 0.6157(6)
C15 C -0.0284(6) 0.6067(6) 0.5305(6)
Nd1A Nd -0.2168(1) 0.9406(1) 0.1759(1)
Nd1C Nd 0.2832(1) 0.4406(1) 1.1759(1)
Nd1C_2 Nd 0.2832(1) 1.4406(1) 1.1759(1)
Zn2C Zn 0.2111(1) 1.2700(1) 0.8637(1)
O1A O -0.0832(4) 0.8426(4) 0.3211(4)
O2A O -0.1776(5) 0.7772(5) 0.1806(4)
O3A O 0.1419(4) 0.8059(5) 0.5270(5)
O4A O 0.2450(5) 0.7537(7) 0.4758(6)
O5C O 0.2717(4) 1.3852(4) 1.0018(4)
O5A O -0.2283(4) 0.8852(4) 0.0018(4)
O6C O 0.2261(5) 1.5241(4) 1.0102(4)
O6A O -0.2739(5) 1.0241(4) 0.0102(4)
O7C O 0.4666(5) 1.2893(6) 0.8580(6)
O8C O 0.3319(5) 1.2341(5) 0.8488(6)
O9C O 0.1657(4) 1.1158(5) 0.8014(4)
O9B O -0.1657(4) 1.1158(5) 0.1986(4)
O10C O 0.1336(5) 1.0369(4) 0.6650(4)
O10B O -0.1336(5) 1.0369(4) 0.3350(4)
O11C O -0.0635(6) 1.3074(13) 0.8090(6)
O12C O 0.0917(4) 1.3155(6) 0.8774(4)
O13A O -0.3400(5) 1.0499(5) 0.1747(6)
O14A O -0.2689(4) 0.8810(5) 0.2982(4)
O15A O -0.3708(4) 0.8707(6) 0.0706(4)
O16A O -0.0609(4) 0.9521(6) 0.1676(5)
O18C O 0.2431(7) 1.1994(6) 0.9925(5)
N1C N 0.2495(5) 1.3989(5) 0.8125(5)
N2C N 0.0987(5) 1.2737(5) 0.7045(5)
C1A C -0.1140(6) 0.7735(6) 0.2685(5)
C2A C 0.1649(6) 0.7583(7) 0.4694(6)
C3C C 0.2426(6) 1.4620(6) 0.9628(6)
C4C C 0.2217(7) 1.4777(6) 0.8533(6)
C5C C 0.2029(7) 1.3973(7) 0.7013(6)
C6C C 0.3510(7) 1.3953(7) 0.8491(7)
C7C C 0.3864(6) 1.2978(8) 0.8516(7)
C8C C 0.1379(5) 1.1119(7) 0.7079(6)
C9C C 0.1138(7) 1.1976(6) 0.6462(6)
C10C C 0.1014(7) 1.3633(7) 0.6635(6)
C11C C 0.0095(6) 1.2604(8) 0.7091(6)
C12C C 0.0128(6) 1.2969(10) 0.8039(7)
C13A C -0.0794(6) 0.6793(6) 0.3139(6)
N3A N 0.0092(5) 0.6883(5) 0.4077(5)
C14A C 0.0879(6) 0.7087(7) 0.3843(6)
C15A C 0.0284(6) 0.6067(6) 0.4695(6)
O19 O -0.0918(10) 1.0000(20) 0.6563(10)
O20 O -0.1898(14) 1.1321(14) 0.7240(30)
O21 O -0.2247(12) 1.0535(11) 0.4707(12)
O22 O 0.0573(9) 1.0982(11) 0.9527(10)
O23 O -0.3517(7) 0.9165(7) 0.4623(7)
O24 O 0.5288(6) 1.1011(10) 0.8867(10)
loop_
_geom_bond_atom_site_label_1
_geom_bond_atom_site_label_2
_geom_bond_site_symmetry_1
_geom_bond_site_symmetry_2
Nd1 O1 1_555 1_555
Zn1 O1 1_555 1_555
Zn2 O8 1_555 1_555
O1 C1 1_555 1_555
O2 Nd1 1_555 1_555
O3 Zn1 1_555 1_555
O4 C2 1_555 1_555
O5 Nd1 1_555 1_555
O6 Nd1 1_555 1_555
O7 C7 1_555 1_555
O8 C7 1_555 1_555
O9 Zn2 1_555 1_555
O10 C8 1_555 1_555
O11 C12 1_555 1_555
O12 Zn2 1_555 1_555
O13 Nd1 1_555 1_555
O14 Nd1 1_555 1_555
O15 Nd1 1_555 1_555
O16 Nd1 1_555 1_555
O17 Zn1 1_555 1_555
O18 Zn2 1_555 1_555
N1 Zn2 1_555 1_555
N2 Zn2 1_555 1_555
C1 O2 1_555 1_555
C2 O3 1_555 1_555
C3 O5 1_555 1_555
C4 N1 1_555 1_555
C5 N1 1_555 1_555
C6 N1 1_555 1_555
C7 C6 1_555 1_555
C8 O9 1_555 1_555
C9 N2 1_555 1_555
C10 N2 1_555 1_555
C11 N2 1_555 1_555
C12 O12 1_555 1_555
C13 C1 1_555 1_555
N3 Zn1 1_555 1_555
C14 C2 1_555 1_555
C15 N3 1_555 1_555
Nd1A O1A 1_555 1_555
Nd1C O9 1_555 1_555
Nd1C_2 O5C 1_555 1_555
Zn2C O8C 1_555 1_555
O1A Zn1 1_555 1_555
O2A Nd1A 1_555 1_555
O3A Zn1 1_555 1_555
O4A C2A 1_555 1_555
O5C C3C 1_555 1_555
O5A Nd1A 1_555 1_555
O6C Nd1C_2 1_555 1_555
O6A Nd1A 1_555 1_555
O7C C7C 1_555 1_555
O8C C7C 1_555 1_555
O9C Nd1 1_555 1_555
O9B Nd1A 1_555 1_555
O10C Nd1 1_555 1_555
O10B Nd1A 1_555 1_555
O11C C12C 1_555 1_555
O12C Zn2C 1_555 1_555
O13A Nd1A 1_555 1_555
O14A Nd1A 1_555 1_555
O15A Nd1A 1_555 1_555
O16A Nd1A 1_555 1_555
O18C Zn2C 1_555 1_555
N1C Zn2C 1_555 1_555
N2C Zn2C 1_555 1_555
C1A O1A 1_555 1_555
C2A O3A 1_555 1_555
C3C O6C 1_555 1_555
C4C N1C 1_555 1_555
C5C N1C 1_555 1_555
C6C N1C 1_555 1_555
C7C C6C 1_555 1_555
C8C O9C 1_555 1_555
C9C N2C 1_555 1_555
C10C N2C 1_555 1_555
C11C N2C 1_555 1_555
C12C O12C 1_555 1_555
C13A C1A 1_555 1_555
N3A Zn1 1_555 1_555
C14A C2A 1_555 1_555
C15A C15 1_555 1_555
O6 C3 1_555 1_555
O10 Nd1C 1_555 1_555
C3 C4 1_555 1_555
C5 C10 1_555 1_555
C8 C9 1_555 1_555
C11 C12 1_555 1_555
C13 N3 1_555 1_555
N3 C14 1_555 1_555
Zn2C O9C 1_555 1_555
O2A C1A 1_555 1_555
O10C C8C 1_555 1_555
C3C C4C 1_555 1_555
C5C C10C 1_555 1_555
C8C C9C 1_555 1_555
C11C C12C 1_555 1_555
C13A N3A 1_555 1_555
N3A C14A 1_555 1_555
N3A C15A 1_555 1_555

#END
