
#######################################################################
#
#                 Cambridge Crystallographic Data Centre
#                                CCDC 
#
#######################################################################
#
# If this CIF has been generated from an entry in the Cambridge 
# Structural Database, then it will include bibliographic, chemical, 
# crystal, experimental, refinement or atomic coordinate data resulting 
# from the CCDC's data processing and validation procedures.
#
#######################################################################

data_UTOKAQ
_symmetry_cell_setting           monoclinic
_symmetry_space_group_name_H-M   'P 21/n'
_symmetry_Int_Tables_number      14
_space_group_name_Hall           '-P 2yn'
loop_
_symmetry_equiv_pos_site_id
_symmetry_equiv_pos_as_xyz
1 x,y,z
2 1/2-x,1/2+y,1/2-z
3 -x,-y,-z
4 1/2+x,1/2-y,1/2+z
_cell_length_a                   7.6298(6)
_cell_length_b                   9.1458(7)
_cell_length_c                   14.4573(11)
_cell_angle_alpha                90
_cell_angle_beta                 112.6(1)
_cell_angle_gamma                90
_cell_volume                     931.371
loop_
_atom_site_label
_atom_site_type_symbol
_atom_site_fract_x
_atom_site_fract_y
_atom_site_fract_z
P1 P 0.2241(5) 0.7697(5) 0.6009(3)
P2 P 0.5371(6) 0.9157(5) 0.7790(3)
Na1 Na 0.0381(8) 1.0536(6) 0.6249(3)
O1 O 0.5381(13) 0.6382(6) 0.7270(6)
O2 O 0.1713(11) 0.8948(9) 0.5274(6)
O3 O 0.0997(13) 0.7938(7) 0.6595(7)
O4 O 0.1811(7) 0.6212(7) 0.5443(5)
O5 O 0.7524(8) 0.9514(9) 0.8125(4)
O6 O 0.4816(13) 0.8404(9) 0.8574(6)
O7 O 0.4112(10) 1.0442(7) 0.7326(7)
N1 N 0.6297(6) 0.6239(6) 0.3805(4)
C1 C 0.6794(8) 0.7444(6) 0.4550(4)
C2 C 0.5330(7) 0.7424(5) 0.5050(6)
C3 C 0.6030(7) 0.7991(5) 0.6139(5)
C4 C 0.4861(7) 0.7749(6) 0.6785(5)
Na1A Na 0.4619(8) 0.5536(6) 0.8751(3)
Na1B Na -0.0381(8) 0.9464(6) 0.3751(3)
O1A O -0.0381(13) 1.1382(6) 0.7730(6)
O2B O -0.1713(11) 1.1052(9) 0.4726(6)
O6A O 0.0184(13) 1.3404(9) 0.6426(6)
loop_
_geom_bond_atom_site_label_1
_geom_bond_atom_site_label_2
_geom_bond_site_symmetry_1
_geom_bond_site_symmetry_2
P1 O2 1_555 1_555
P2 O5 1_555 1_555
Na1 O2 1_555 1_555
O1 C4 1_555 1_555
O2 Na1B 1_555 1_555
O3 P1 1_555 1_555
O4 P1 1_555 1_555
O6 P2 1_555 1_555
O7 P2 1_555 1_555
N1 C1 1_555 1_555
C1 C2 1_555 1_555
C2 C3 1_555 1_555
C3 C4 1_555 1_555
C4 P1 1_555 1_555
Na1A O1 1_555 1_555
Na1B O2B 1_555 1_555
O1A Na1 1_555 1_555
O2B Na1 1_555 1_555
O6A Na1 1_555 1_555
P2 C4 1_555 1_555
Na1 O3 1_555 1_555
Na1 O7 1_555 1_555
O6 Na1A 1_555 1_555

#END
