
#######################################################################
#
#                 Cambridge Crystallographic Data Centre
#                                CCDC 
#
#######################################################################
#
# If this CIF has been generated from an entry in the Cambridge 
# Structural Database, then it will include bibliographic, chemical, 
# crystal, experimental, refinement or atomic coordinate data resulting 
# from the CCDC's data processing and validation procedures.
#
#######################################################################

data_UTONEX
_symmetry_cell_setting           triclinic
_symmetry_space_group_name_H-M   'P -1'
_symmetry_Int_Tables_number      2
_space_group_name_Hall           '-P 1'
loop_
_symmetry_equiv_pos_site_id
_symmetry_equiv_pos_as_xyz
1 x,y,z
2 -x,-y,-z
_cell_length_a                   9.864(1)
_cell_length_b                   7.054(1)
_cell_length_c                   5.784(1)
_cell_angle_alpha                90.862(9)
_cell_angle_beta                 92.439(6)
_cell_angle_gamma                91.594(8)
_cell_volume                     401.881
loop_
_atom_site_label
_atom_site_type_symbol
_atom_site_fract_x
_atom_site_fract_y
_atom_site_fract_z
Pr1 Pr 0.611(1) 0.263(1) 0.440(1)
O1 O 0.593(3) -0.095(3) 0.333(5)
O2 O 0.590(3) -0.407(3) 0.291(4)
O3 O 0.614(2) -0.276(4) -0.215(4)
O4 O 0.759(3) -0.466(3) -0.355(4)
O5 O 1.226(2) -0.260(5) -0.126(3)
O6 O 1.271(2) -0.184(4) 0.239(3)
C1 C 0.788(2) -0.228(7) 0.192(3)
C2 C 0.882(2) -0.190(7) 0.369(4)
C3 C 1.007(2) -0.149(6) 0.314(5)
C4 C 1.055(2) -0.226(7) 0.114(4)
C5 C 0.969(2) -0.282(7) -0.071(4)
C6 C 0.832(2) -0.287(6) -0.030(3)
C7 C 0.647(2) -0.240(2) 0.246(6)
C8 C 0.738(2) -0.330(5) -0.220(5)
C9 C 1.189(2) -0.202(6) 0.071(3)
Pr1A Pr 0.389(1) -0.263(1) 0.560(1)
Pr1_2 Pr 0.611(1) -0.737(1) 0.440(1)
Pr1A_2 Pr 0.389(1) -0.263(1) -0.440(1)
Pr1_3 Pr 0.611(1) -0.737(1) -0.560(1)
Pr1A_3 Pr 1.389(1) -0.263(1) -0.440(1)
Pr1A_4 Pr 1.389(1) -0.263(1) 0.560(1)
O1A O 0.407(3) 0.095(3) 0.667(5)
O2_2 O 0.590(3) 0.593(3) 0.291(4)
O2A O 0.410(3) 0.407(3) 0.709(4)
O3A O 0.386(2) 0.276(4) 0.215(4)
O4_2 O 0.759(3) 0.534(3) 0.645(4)
O5A O 0.774(2) 0.260(5) 0.126(3)
O6A O 0.729(2) 0.184(4) 0.761(3)
loop_
_geom_bond_atom_site_label_1
_geom_bond_atom_site_label_2
_geom_bond_site_symmetry_1
_geom_bond_site_symmetry_2
Pr1 O1 1_555 1_555
O1 C7 1_555 1_555
O2 C7 1_555 1_555
O3 C8 1_555 1_555
O4 C8 1_555 1_555
O5 C9 1_555 1_555
O6 C9 1_555 1_555
C1 C2 1_555 1_555
C2 C3 1_555 1_555
C3 C4 1_555 1_555
C4 C5 1_555 1_555
C5 C6 1_555 1_555
C6 C1 1_555 1_555
C7 C1 1_555 1_555
C8 C6 1_555 1_555
C9 C4 1_555 1_555
Pr1A O1 1_555 1_555
Pr1_2 O2 1_555 1_555
Pr1A_2 O3 1_555 1_555
Pr1_3 O4 1_555 1_555
Pr1A_3 O5 1_555 1_555
Pr1A_4 O6 1_555 1_555
O1A Pr1 1_555 1_555
O2_2 Pr1 1_555 1_555
O2A Pr1 1_555 1_555
O3A Pr1 1_555 1_555
O4_2 Pr1 1_555 1_555
O5A Pr1 1_555 1_555
O6A Pr1 1_555 1_555
O2 Pr1A 1_555 1_555
Pr1A O1A 1_555 1_555

#END
