
#######################################################################
#
#                 Cambridge Crystallographic Data Centre
#                                CCDC 
#
#######################################################################
#
# If this CIF has been generated from an entry in the Cambridge 
# Structural Database, then it will include bibliographic, chemical, 
# crystal, experimental, refinement or atomic coordinate data resulting 
# from the CCDC's data processing and validation procedures.
#
#######################################################################

data_UTONAT
_symmetry_cell_setting           monoclinic
_symmetry_space_group_name_H-M   'P 21'
_symmetry_Int_Tables_number      4
_space_group_name_Hall           'P 2yb'
loop_
_symmetry_equiv_pos_site_id
_symmetry_equiv_pos_as_xyz
1 x,y,z
2 -x,1/2+y,-z
_cell_length_a                   10.278(1)
_cell_length_b                   7.061(1)
_cell_length_c                   6.233(1)
_cell_angle_alpha                90
_cell_angle_beta                 93.667(4)
_cell_angle_gamma                90
_cell_volume                     451.421
loop_
_atom_site_label
_atom_site_type_symbol
_atom_site_fract_x
_atom_site_fract_y
_atom_site_fract_z
Pr1 Pr 0.386(1) 0.250 0.939(1)
O1 O 0.400(4) -0.084(3) 0.847(11)
O2 O 0.400(4) -0.393(3) 0.846(11)
O3 O 0.322(4) 0.062(3) 0.276(5)
O4 O 0.422(2) -0.205(4) 0.310(4)
O5 O -0.230(2) -0.284(5) 0.401(3)
O6 O -0.129(2) -0.180(4) 0.118(3)
O7 O 0.287(4) 0.451(5) 1.219(5)
C1 C 0.218(2) -0.233(9) 0.671(3)
C2 C 0.216(2) -0.184(6) 0.454(3)
C3 C 0.099(2) -0.176(6) 0.340(4)
C4 C -0.006(2) -0.229(8) 0.441(2)
C5 C -0.007(2) -0.181(7) 0.656(3)
C6 C 0.107(2) -0.200(8) 0.775(4)
C7 C 0.342(2) -0.237(2) 0.791(6)
C8 C -0.125(2) -0.241(9) 0.312(4)
C9 C 0.330(2) -0.101(3) 0.363(6)
Pr1A Pr 0.614(1) -0.250 1.061(1)
Pr1_2 Pr 0.386(1) -0.750 0.939(1)
Pr1_3 Pr 0.386(1) 0.250 -0.061(1)
Pr1A_2 Pr 0.614(1) -0.250 0.061(1)
Pr1A_3 Pr -0.386(1) -0.250 0.061(1)
O1A O 0.600(4) 0.416(3) 1.153(11)
O2_2 O 0.400(4) 0.607(3) 0.846(11)
O2A O 0.600(4) 0.107(3) 1.154(11)
O3_2 O 0.322(4) 0.062(3) 1.276(5)
O4A O 0.578(2) 0.295(4) 0.690(4)
O5A O 0.230(2) 0.216(5) 0.599(3)
O6A O 0.129(2) 0.320(4) 0.882(3)
loop_
_geom_bond_atom_site_label_1
_geom_bond_atom_site_label_2
_geom_bond_site_symmetry_1
_geom_bond_site_symmetry_2
Pr1 O1 1_555 1_555
O1 C7 1_555 1_555
O2 C7 1_555 1_555
O3 C9 1_555 1_555
O4 C9 1_555 1_555
O5 C8 1_555 1_555
O6 C8 1_555 1_555
O7 Pr1 1_555 1_555
C1 C2 1_555 1_555
C2 C3 1_555 1_555
C3 C4 1_555 1_555
C4 C5 1_555 1_555
C5 C6 1_555 1_555
C6 C1 1_555 1_555
C7 C1 1_555 1_555
C8 C4 1_555 1_555
C9 C2 1_555 1_555
Pr1A O1 1_555 1_555
Pr1_2 O2 1_555 1_555
Pr1_3 O3 1_555 1_555
Pr1A_2 O4 1_555 1_555
Pr1A_3 O5 1_555 1_555
O1A Pr1 1_555 1_555
O2_2 Pr1 1_555 1_555
O2A Pr1 1_555 1_555
O3_2 Pr1 1_555 1_555
O4A Pr1 1_555 1_555
O5A Pr1 1_555 1_555
O6A Pr1 1_555 1_555
O2 Pr1A 1_555 1_555
O6 Pr1A_3 1_555 1_555
Pr1A O2A 1_555 1_555

#END
