
#######################################################################
#
#                 Cambridge Crystallographic Data Centre
#                                CCDC 
#
#######################################################################
#
# If this CIF has been generated from an entry in the Cambridge 
# Structural Database, then it will include bibliographic, chemical, 
# crystal, experimental, refinement or atomic coordinate data resulting 
# from the CCDC's data processing and validation procedures.
#
#######################################################################

data_UTOSIG
_symmetry_cell_setting           orthorhombic
_symmetry_space_group_name_H-M   'P c a 21'
_symmetry_Int_Tables_number      29
_space_group_name_Hall           'P 2c -2ac'
loop_
_symmetry_equiv_pos_site_id
_symmetry_equiv_pos_as_xyz
1 x,y,z
2 -x,-y,1/2+z
3 1/2+x,-y,z
4 1/2-x,y,1/2+z
_cell_length_a                   10.8336(17)
_cell_length_b                   12.1408(19)
_cell_length_c                   21.585(3)
_cell_angle_alpha                90
_cell_angle_beta                 90
_cell_angle_gamma                90
_cell_volume                     2839.04
loop_
_atom_site_label
_atom_site_type_symbol
_atom_site_fract_x
_atom_site_fract_y
_atom_site_fract_z
Cu1 Cu 0.87713(6) 0.71662(6) 0.78265(4)
S1 S 0.36544(14) 0.48883(15) 0.94110(8)
O1 O 0.7050(4) 0.6851(4) 0.8001(2)
O2 O 0.6127(5) 0.8316(5) 0.7570(3)
O3 O 0.3963(4) 0.5558(4) 0.9955(2)
O4 O 0.4573(4) 0.4063(4) 0.9284(2)
O5 O 0.2388(4) 0.4511(4) 0.9442(3)
O6 O 0.0525(4) 0.6869(4) 0.7947(2)
O7 O 0.1512(4) 0.8013(4) 0.7304(2)
O8 O 0.9108(5) 0.8483(5) 0.7032(2)
H1 H 0.871(6) 0.829(7) 0.735(2)
H2 H 0.9883(19) 0.851(7) 0.706(3)
N1 N 0.8892(5) 0.8269(5) 0.8513(3)
N2 N 0.6250(5) 1.6035(5) 1.2140(3)
N3 N 0.7058(5) 1.3163(5) 1.0433(2)
H3 H 0.731(7) 1.374(6) 1.028(4)
N4 N 0.8288(5) 1.1083(5) 1.0222(3)
C1 C 0.6106(5) 0.7443(6) 0.7876(4)
C2 C 0.4882(6) 0.7016(5) 0.8106(3)
C3 C 0.4863(6) 0.6226(6) 0.8582(3)
H4 H 0.5606 0.5974 0.8769
C4 C 0.3721(6) 0.5827(6) 0.8771(3)
C5 C 0.2654(6) 0.6146(6) 0.8485(3)
H5 H 0.1891 0.5828 0.8607
C6 C 0.2676(6) 0.6929(6) 0.8019(3)
C7 C 0.3826(5) 0.7366(5) 0.7838(5)
H6 H 0.3858 0.7914 0.7525
C8 C 0.1488(5) 0.7297(5) 0.7727(3)
C9 C 0.9710(6) 0.9077(6) 0.8498(3)
H7 H 1.0197 0.9156 0.8134
C10 C 0.8210(7) 0.8185(6) 0.9032(3)
H8 H 0.7609 0.7616 0.9054
C11 C 0.9902(7) 0.9817(6) 0.8979(3)
H9 H 1.0501 1.0384 0.8938
C12 C 0.9222(6) 0.9724(5) 0.9512(3)
C13 C 0.5490(8) 1.5177(6) 1.2135(3)
H10 H 0.4972 1.5061 1.2483
C14 C 0.5417(8) 1.4447(6) 1.1646(3)
H11 H 0.4851 1.3849 1.1664
C15 C 0.6147(6) 1.4578(7) 1.1141(3)
C16 C 0.5958(6) 1.3852(6) 1.0581(3)
H12 H 0.5241 1.3364 1.0655
H13 H 0.5762 1.4321 1.0218
C17 C 0.8573(7) 1.1759(7) 1.0762(3)
H14 H 0.9260 1.2267 1.0660
H15 H 0.8846 1.1279 1.1106
C18 C 0.7461(7) 1.2422(6) 1.0966(3)
H16 H 0.7675 1.2875 1.1331
H17 H 0.6779 1.1920 1.1082
C19 C 0.7899(7) 1.1776(6) 0.9711(3)
H18 H 0.7711 1.1310 0.9347
H19 H 0.8578 1.2281 0.9597
C20 C 0.6775(6) 1.2436(6) 0.9882(3)
H20 H 0.6085 1.1934 0.9984
H21 H 0.6521 1.2898 0.9526
C21 C 0.9429(6) 1.0444(7) 1.0058(3)
H22 H 1.0110 1.0963 0.9968
H23 H 0.9678 0.9986 1.0416
C22 C 0.8335(7) 0.8880(7) 0.9535(3)
H24 H 0.7829 0.8789 0.9891
C23 C 0.6942(10) 1.5451(9) 1.1154(5)
H25 H 0.7483 1.5582 1.0815
C24 C 0.6958(9) 1.6133(9) 1.1654(5)
H26 H 0.7528 1.6727 1.1649
Cu1_2 Cu -0.12287(6) 0.71662(6) 0.78265(4)
Cu1C Cu 0.62287(6) 1.71662(6) 1.28265(4)
O6_2 O 1.0525(4) 0.6869(4) 0.7947(2)
N2C N 0.8750(5) 0.6035(5) 0.7140(3)
O9 O 0.5511(7) 0.8339(8) 0.6271(3)
H27 H 0.564(3) 0.821(6) 0.6654(13)
H28 H 0.6201 0.8619 0.6161
O10 O 0.7732(6) 1.0018(5) 0.7550(4)
H29 H 0.7357 1.0619 0.7475
H30 H 0.755(10) 0.955(5) 0.726(3)
O11 O 0.1052(11) 0.2973(10) 0.9990(5)
O12 O 0.7915(10) 0.9126(13) 0.5892(5)
O13? O 0.7859(12) 0.8288(13) 0.5898(5)
loop_
_geom_bond_atom_site_label_1
_geom_bond_atom_site_label_2
_geom_bond_site_symmetry_1
_geom_bond_site_symmetry_2
Cu1 O1 1_555 1_555
S1 O3 1_555 1_555
O1 C1 1_555 1_555
O2 C1 1_555 1_555
O4 S1 1_555 1_555
O5 S1 1_555 1_555
O6 C8 1_555 1_555
O7 C8 1_555 1_555
O8 Cu1 1_555 1_555
H1 O8 1_555 1_555
H2 O8 1_555 1_555
N1 Cu1 1_555 1_555
N2 C13 1_555 1_555
N3 H3 1_555 1_555
N4 C17 1_555 1_555
C1 C2 1_555 1_555
C2 C3 1_555 1_555
C3 H4 1_555 1_555
C4 S1 1_555 1_555
C5 C4 1_555 1_555
H5 C5 1_555 1_555
C6 C5 1_555 1_555
C7 C2 1_555 1_555
H6 C7 1_555 1_555
C8 C6 1_555 1_555
C9 N1 1_555 1_555
H7 C9 1_555 1_555
C10 N1 1_555 1_555
H8 C10 1_555 1_555
C11 C9 1_555 1_555
H9 C11 1_555 1_555
C12 C11 1_555 1_555
C13 H10 1_555 1_555
C14 C13 1_555 1_555
H11 C14 1_555 1_555
C15 C14 1_555 1_555
C16 N3 1_555 1_555
H12 C16 1_555 1_555
H13 C16 1_555 1_555
C17 H14 1_555 1_555
H15 C17 1_555 1_555
C18 N3 1_555 1_555
H16 C18 1_555 1_555
H17 C18 1_555 1_555
C19 N4 1_555 1_555
H18 C19 1_555 1_555
H19 C19 1_555 1_555
C20 N3 1_555 1_555
H20 C20 1_555 1_555
H21 C20 1_555 1_555
C21 N4 1_555 1_555
H22 C21 1_555 1_555
H23 C21 1_555 1_555
C22 C10 1_555 1_555
H24 C22 1_555 1_555
C23 C15 1_555 1_555
H25 C23 1_555 1_555
C24 N2 1_555 1_555
H26 C24 1_555 1_555
O9 H27 1_555 1_555
H28 O9 1_555 1_555
O10 H29 1_555 1_555
H30 O10 1_555 1_555
Cu1_2 O6 1_555 1_555
Cu1C N2 1_555 1_555
O6_2 Cu1 1_555 1_555
N2C Cu1 1_555 1_555
C3 C4 1_555 1_555
C6 C7 1_555 1_555
C12 C21 1_555 1_555
C12 C22 1_555 1_555
C15 C16 1_555 1_555
C17 C18 1_555 1_555
C19 C20 1_555 1_555
C23 C24 1_555 1_555

#END
