
#######################################################################
#
#                 Cambridge Crystallographic Data Centre
#                                CCDC 
#
#######################################################################
#
# If this CIF has been generated from an entry in the Cambridge 
# Structural Database, then it will include bibliographic, chemical, 
# crystal, experimental, refinement or atomic coordinate data resulting 
# from the CCDC's data processing and validation procedures.
#
#######################################################################

data_UTOSEC
_symmetry_cell_setting           monoclinic
_symmetry_space_group_name_H-M   'P 21/n'
_symmetry_Int_Tables_number      14
_space_group_name_Hall           '-P 2yn'
loop_
_symmetry_equiv_pos_site_id
_symmetry_equiv_pos_as_xyz
1 x,y,z
2 1/2-x,1/2+y,1/2-z
3 -x,-y,-z
4 1/2+x,1/2-y,1/2+z
_cell_length_a                   9.993(8)
_cell_length_b                   13.395(9)
_cell_length_c                   10.502(6)
_cell_angle_alpha                90
_cell_angle_beta                 106.04(6)
_cell_angle_gamma                90
_cell_volume                     1351.03
loop_
_atom_site_label
_atom_site_type_symbol
_atom_site_fract_x
_atom_site_fract_y
_atom_site_fract_z
Cu1 Cu 0.49936(11) 0.03899(3) 0.25157(7)
N1 N 0.6659(6) 0.0416(3) 0.4110(5)
N2 N 0.6594(8) -0.0052(3) 0.5044(6)
N3 N 0.6593(8) -0.0508(3) 0.5971(6)
N4 N 0.3293(7) 0.0360(3) 0.0955(5)
N5 N 0.3404(8) -0.0010(3) -0.0033(6)
N6 N 0.3449(8) -0.0378(3) -0.1002(6)
N7 N 0.4929(7) -0.1123(2) 0.2607(6)
N8 N 0.5019(7) -0.8097(2) 0.2421(5)
C1 C 0.6115(8) -0.1660(3) 0.2792(8)
H1 H 0.6936 -0.1329 0.2802
C2 C 0.6147(8) -0.2678(3) 0.2966(9)
H2 H 0.6979 -0.3027 0.3091
C3 C 0.4905(8) -0.3191(3) 0.2953(6)
C4 C 0.3720(7) -0.2636(4) 0.2690(7)
H3 H 0.2868 -0.2947 0.2608
C5 C 0.3774(8) -0.1613(4) 0.2544(7)
H4 H 0.2949 -0.1253 0.2394
C6 C 0.5450(9) -0.7525(3) 0.3477(6)
H5 H 0.5728 -0.7828 0.4305
C7 C 0.5508(8) -0.6494(3) 0.3413(6)
H6 H 0.5853 -0.6128 0.4186
C8 C 0.5066(8) -0.6011(3) 0.2230(6)
C9 C 0.4653(8) -0.6609(3) 0.1118(6)
H7 H 0.4376 -0.6318 0.0282
C10 C 0.4650(9) -0.7629(3) 0.1237(6)
H8 H 0.4382 -0.8014 0.0471
C11 C 0.4901(8) -0.4302(3) 0.3208(7)
H9 H 0.4009 -0.4495 0.333
H10 H 0.5618 -0.4461 0.4014
C12 C 0.5163(9) -0.4889(3) 0.2054(6)
H11 H 0.4486 -0.469 0.124
H12 H 0.6082 -0.4726 0.1973
Cu1B Cu 0.50064(11) -0.03899(3) 0.74843(7)
Cu1B_2 Cu 0.50064(11) -0.03899(3) -0.25157(7)
Cu1_2 Cu 0.49936(11) -0.96101(3) 0.25157(7)
N3B N 0.3407(8) 0.0508(3) 0.4029(6)
N6B N 0.6551(8) 0.0378(3) 0.1002(6)
N8_2 N 0.5019(7) 0.1903(2) 0.2421(5)
loop_
_geom_bond_atom_site_label_1
_geom_bond_atom_site_label_2
_geom_bond_site_symmetry_1
_geom_bond_site_symmetry_2
Cu1 N1 1_555 1_555
N1 N2 1_555 1_555
N2 N3 1_555 1_555
N3 Cu1B 1_555 1_555
N4 Cu1 1_555 1_555
N5 N4 1_555 1_555
N6 N5 1_555 1_555
N7 Cu1 1_555 1_555
N8 C6 1_555 1_555
C1 N7 1_555 1_555
H1 C1 1_555 1_555
C2 C1 1_555 1_555
H2 C2 1_555 1_555
C3 C2 1_555 1_555
C4 C3 1_555 1_555
H3 C4 1_555 1_555
C5 N7 1_555 1_555
H4 C5 1_555 1_555
C6 H5 1_555 1_555
C7 C6 1_555 1_555
H6 C7 1_555 1_555
C8 C7 1_555 1_555
C9 C8 1_555 1_555
H7 C9 1_555 1_555
C10 N8 1_555 1_555
H8 C10 1_555 1_555
C11 C3 1_555 1_555
H9 C11 1_555 1_555
H10 C11 1_555 1_555
C12 C8 1_555 1_555
H11 C12 1_555 1_555
H12 C12 1_555 1_555
Cu1B_2 N6 1_555 1_555
Cu1_2 N8 1_555 1_555
N3B Cu1 1_555 1_555
N6B Cu1 1_555 1_555
N8_2 Cu1 1_555 1_555
C4 C5 1_555 1_555
C9 C10 1_555 1_555
C11 C12 1_555 1_555

#END
