
#######################################################################
#
#                 Cambridge Crystallographic Data Centre
#                                CCDC 
#
#######################################################################
#
# If this CIF has been generated from an entry in the Cambridge 
# Structural Database, then it will include bibliographic, chemical, 
# crystal, experimental, refinement or atomic coordinate data resulting 
# from the CCDC's data processing and validation procedures.
#
#######################################################################

data_UTOSOM
_symmetry_cell_setting           monoclinic
_symmetry_space_group_name_H-M   'C 2/c'
_symmetry_Int_Tables_number      15
_space_group_name_Hall           '-C 2yn'
loop_
_symmetry_equiv_pos_site_id
_symmetry_equiv_pos_as_xyz
1 x,y,z
2 -x,y,1/2-z
3 1/2+x,1/2+y,z
4 1/2-x,1/2+y,1/2-z
5 -x,-y,-z
6 x,-y,1/2+z
7 1/2-x,1/2-y,-z
8 1/2+x,1/2-y,1/2+z
_cell_length_a                   25.503(2)
_cell_length_b                   10.0788(8)
_cell_length_c                   24.478(2)
_cell_angle_alpha                90
_cell_angle_beta                 98.660(1)
_cell_angle_gamma                90
_cell_volume                     6220.08
loop_
_atom_site_label
_atom_site_type_symbol
_atom_site_fract_x
_atom_site_fract_y
_atom_site_fract_z
Cu1 Cu 0.464611(14) 0.64824(4) 0.040806(15)
S1 S 0.35154(3) 0.20574(9) 0.21201(3)
O1 O 0.36530(14) 0.1071(4) 0.25445(12)
O2 O 0.29743(10) 0.1893(3) 0.18531(11)
O3 O 0.36298(12) 0.3399(3) 0.23001(12)
O4 O 0.44070(8) 0.4751(2) 0.06468(9)
O5 O 0.46527(10) -0.1494(2) 0.04982(10)
O6 O 0.43106(12) -0.2171(2) 0.12225(11)
O7 O 0.49754(9) 0.3378(2) 0.03201(9)
N1 N 0.39344(11) 0.6622(3) -0.00688(11)
N2 N 0.23641(10) 0.7332(3) -0.16072(11)
N3 N 0.18446(11) 0.8945(3) -0.25062(11)
H1 H 0.1588(16) 0.907(4) -0.2370(15)
N4 N 0.03501(11) 0.8744(3) -0.40999(11)
C1 C 0.38708(13) 0.7098(3) -0.05856(13)
H2 H 0.4175 0.7412 -0.0727
C2 C 0.34950(14) 0.6205(4) 0.01248(15)
H3 H 0.3530 0.5874 0.0492
C3 C 0.29991(15) 0.6238(4) -0.01837(15)
H4 H 0.2701 0.5938 -0.0028
C4 C 0.33863(13) 0.7156(3) -0.09236(14)
H5 H 0.3363 0.7497 -0.1288
C5 C 0.29333(14) 0.6712(3) -0.07274(14)
C6 C 0.24002(14) 0.6644(4) -0.10761(15)
H6 H 0.2135 0.7031 -0.0866
H7 H 0.2306 0.5700 -0.1147
C7 C 0.23133(14) 0.8767(3) -0.15466(14)
H8 H 0.1983 0.8968 -0.1395
H9 H 0.2617 0.9105 -0.1283
C8 C 0.23000(12) 0.9457(3) -0.20981(13)
H10 H 0.2638 0.9296 -0.2241
H11 H 0.2261 1.0425 -0.2050
C9 C 0.19067(13) 0.6839(3) -0.19814(14)
H12 H 0.1934 0.5865 -0.2017
H13 H 0.1579 0.7037 -0.1826
C10 C 0.18753(13) 0.7474(3) -0.25453(14)
H14 H 0.1558 0.7138 -0.2789
H15 H 0.2192 0.7225 -0.2711
C11 C 0.18289(12) 0.9592(4) -0.30648(13)
H16 H 0.2131 0.9268 -0.3239
H17 H 0.1866 1.0564 -0.3018
C12 C 0.13176(12) 0.9286(3) -0.34345(13)
C13 C 0.12927(15) 0.8517(4) -0.39067(15)
H18 H 0.1608 0.8160 -0.4011
C14 C 0.08445(13) 0.9785(3) -0.33066(14)
H19 H 0.0843 1.0328 -0.2990
C15 C 0.08113(15) 0.8275(4) -0.42225(15)
H20 H 0.0803 0.7747 -0.4545
C16 C 0.03789(12) 0.9488(3) -0.36405(13)
H21 H 0.0058 0.9826 -0.3542
C17 C 0.40438(12) 0.0424(3) 0.14910(13)
H22 H 0.3927 -0.0284 0.1699
C18 C 0.44437(13) -0.1277(3) 0.09286(13)
C19 C 0.43409(12) 0.0153(3) 0.10690(12)
C20 C 0.44027(12) 0.2501(3) 0.09016(12)
C21 C 0.40921(12) 0.2769(3) 0.13095(13)
H23 H 0.4000 0.3656 0.1384
C22 C 0.39181(12) 0.1721(3) 0.16069(13)
C23 C 0.46125(12) 0.3623(3) 0.05935(13)
C24 C 0.45263(12) 0.1199(3) 0.07838(13)
H24 H 0.4740 0.1025 0.0506
Cu1_2 Cu 0.464611(14) 1.64824(4) 0.040806(15)
Cu1_3 Cu 0.464611(14) -0.35176(4) 0.040806(15)
Cu1D Cu 0.535389(14) 0.35176(4) -0.040806(15)
Cu1G Cu -0.035389(14) 0.85176(4) -0.459194(15)
Cu1D_2 Cu 0.535389(14) 1.35176(4) -0.040806(15)
Cu1G_2 Cu 0.964611(14) 0.85176(4) 0.540806(15)
S1_2 S 0.35154(3) 1.20574(9) 0.21201(3)
O1_2 O 0.36530(14) 1.1071(4) 0.25445(12)
O2_2 O 0.29743(10) 1.1893(3) 0.18531(11)
O3_2 O 0.36298(12) 1.3399(3) 0.23001(12)
O4_2 O 0.44070(8) 1.4751(2) 0.06468(9)
O5_2 O 0.46527(10) 0.8506(2) 0.04982(10)
O5_3 O 0.46527(10) 1.8506(2) 0.04982(10)
O6_2 O 0.43106(12) 0.7829(2) 0.12225(11)
O7_2 O 0.49754(9) 1.3378(2) 0.03201(9)
O7D O 0.50246(9) 0.6622(2) -0.03201(9)
O7D_2 O 0.50246(9) 1.6622(2) -0.03201(9)
N1G N 0.89344(11) 0.8378(3) 0.49312(11)
N1_2 N 0.39344(11) 1.6622(3) -0.00688(11)
N2G N 0.73641(10) 0.7668(3) 0.33928(11)
N3G N 0.68446(11) 0.6055(3) 0.24938(11)
H1G H 0.6588(16) 0.593(4) 0.2630(15)
N4G N 0.53501(11) 0.6256(3) 0.09001(11)
N4G_2 N 0.53501(11) 1.6256(3) 0.09001(11)
C1G C 0.88708(13) 0.7902(3) 0.44144(13)
H2G H 0.9175 0.7588 0.4273
C2G C 0.84950(14) 0.8795(4) 0.51248(15)
H3G H 0.8530 0.9126 0.5492
C3G C 0.79991(15) 0.8762(4) 0.48163(15)
H4G H 0.7701 0.9062 0.4972
C4G C 0.83863(13) 0.7844(3) 0.40764(14)
H5G H 0.8363 0.7503 0.3712
C5G C 0.79333(14) 0.8288(3) 0.42726(14)
C6G C 0.74002(14) 0.8356(4) 0.39239(15)
H6G H 0.7135 0.7969 0.4134
H7G H 0.7306 0.9300 0.3853
C7G C 0.73133(14) 0.6233(3) 0.34534(14)
H8G H 0.6983 0.6032 0.3605
H9G H 0.7617 0.5895 0.3717
C8G C 0.73000(12) 0.5543(3) 0.29019(13)
H10G H 0.7638 0.5704 0.2759
H11G H 0.7261 0.4575 0.2950
C9G C 0.69067(13) 0.8161(3) 0.30186(14)
H12G H 0.6934 0.9135 0.2983
H13G H 0.6579 0.7963 0.3174
C10G C 0.68753(13) 0.7526(3) 0.24547(14)
H14G H 0.6558 0.7862 0.2211
H15G H 0.7192 0.7775 0.2289
C11G C 0.68289(12) 0.5408(4) 0.19352(13)
H16G H 0.7131 0.5732 0.1761
H17G H 0.6866 0.4436 0.1982
C12G C 0.63176(12) 0.5714(3) 0.15655(13)
C13G C 0.62927(15) 0.6483(4) 0.10933(15)
H18G H 0.6608 0.6840 0.0989
C14G C 0.58445(13) 0.5215(3) 0.16934(14)
H19G H 0.5843 0.4672 0.2010
C15G C 0.58113(15) 0.6725(4) 0.07775(15)
H20G H 0.5803 0.7253 0.0455
C16G C 0.53789(12) 0.5512(3) 0.13595(13)
H21G H 0.5058 0.5174 0.1458
C17_2 C 0.40438(12) 1.0424(3) 0.14910(13)
H22_2 H 0.3927 0.9716 0.1699
C18_2 C 0.44437(13) 0.8723(3) 0.09286(13)
C19_2 C 0.43409(12) 1.0153(3) 0.10690(12)
C20_2 C 0.44027(12) 1.2501(3) 0.09016(12)
C21_2 C 0.40921(12) 1.2769(3) 0.13095(13)
H23_2 H 0.4000 1.3656 0.1384
C22_2 C 0.39181(12) 1.1721(3) 0.16069(13)
C23_2 C 0.46125(12) 1.3623(3) 0.05935(13)
C24_2 C 0.45263(12) 1.1199(3) 0.07838(13)
H24_2 H 0.4740 1.1025 0.0506
O8 O 0.5000 0.4413(5) 0.2500
H25 H 0.4719(12) 0.452(5) 0.2316(19)
H25A H 0.5281(12) 0.452(5) 0.2684(19)
O9 O 0.41659(15) -0.3830(5) 0.2086(2)
H26 H 0.4210(10) -0.310(3) 0.1936(19)
H27 H 0.4409 -0.4331 0.2226
O10 O 0.2569(2) 0.2009(7) 0.07300(19)
H28 H 0.2737(18) 0.227(4) 0.0450(11)
H29 H 0.2657 0.2502 0.1036
O11 O 0.4087(3) 0.0204(4) -0.04308(18)
H30 H 0.428(3) -0.025(8) -0.018(3)
H31 H 0.417(4) 0.001(9) -0.0746(17)
O12 O 0.7013(2) 1.0875(6) 0.5161(2)
H32 H 0.7141 1.1223 0.4893
H33 H 0.6709 1.0694 0.5245
O13 O 0.5256(3) -0.1669(7) 0.2131(3)
O14 O 0.4062(4) 0.0250(8) -0.1529(3)
O15 O 0.5226(5) 0.0299(18) 0.2240(5)
O16? O 0.3518(5) 0.0325(10) -0.1469(4)
O17? O 0.5246(4) 0.2064(13) 0.2097(6)
loop_
_geom_bond_atom_site_label_1
_geom_bond_atom_site_label_2
_geom_bond_site_symmetry_1
_geom_bond_site_symmetry_2
Cu1 O4 1_555 1_555
S1 O1 1_555 1_555
O2 S1 1_555 1_555
O3 S1 1_555 1_555
O4 C23 1_555 1_555
O5 C18 1_555 1_555
O6 C18 1_555 1_555
O7 C23 1_555 1_555
N1 Cu1 1_555 1_555
N2 C6 1_555 1_555
N3 H1 1_555 1_555
N4 C15 1_555 1_555
C1 N1 1_555 1_555
H2 C1 1_555 1_555
C2 N1 1_555 1_555
H3 C2 1_555 1_555
C3 C2 1_555 1_555
H4 C3 1_555 1_555
C4 C1 1_555 1_555
H5 C4 1_555 1_555
C5 C3 1_555 1_555
C6 C5 1_555 1_555
H6 C6 1_555 1_555
H7 C6 1_555 1_555
C7 N2 1_555 1_555
H8 C7 1_555 1_555
H9 C7 1_555 1_555
C8 N3 1_555 1_555
H10 C8 1_555 1_555
H11 C8 1_555 1_555
C9 N2 1_555 1_555
H12 C9 1_555 1_555
H13 C9 1_555 1_555
C10 N3 1_555 1_555
H14 C10 1_555 1_555
H15 C10 1_555 1_555
C11 N3 1_555 1_555
H16 C11 1_555 1_555
H17 C11 1_555 1_555
C12 C11 1_555 1_555
C13 C12 1_555 1_555
H18 C13 1_555 1_555
C14 C12 1_555 1_555
H19 C14 1_555 1_555
C15 C13 1_555 1_555
H20 C15 1_555 1_555
C16 N4 1_555 1_555
H21 C16 1_555 1_555
C17 H22 1_555 1_555
C18 C19 1_555 1_555
C19 C17 1_555 1_555
C20 C21 1_555 1_555
C21 H23 1_555 1_555
C22 S1 1_555 1_555
C23 C20 1_555 1_555
C24 C19 1_555 1_555
H24 C24 1_555 1_555
O8 H25 1_555 1_555
O9 H26 1_555 1_555
H27 O9 1_555 1_555
O10 H28 1_555 1_555
H29 O10 1_555 1_555
O11 H30 1_555 1_555
H31 O11 1_555 1_555
O12 H32 1_555 1_555
H33 O12 1_555 1_555
Cu1_2 O4_2 1_555 1_555
Cu1_3 O5 1_555 1_555
Cu1D O7 1_555 1_555
Cu1G N4 1_555 1_555
Cu1D_2 O7_2 1_555 1_555
Cu1G_2 N1G 1_555 1_555
S1_2 O1_2 1_555 1_555
O2_2 S1_2 1_555 1_555
O3_2 S1_2 1_555 1_555
O4_2 C23_2 1_555 1_555
O5_2 Cu1 1_555 1_555
O5_3 Cu1_2 1_555 1_555
O6_2 C18_2 1_555 1_555
O7_2 C23_2 1_555 1_555
O7D Cu1 1_555 1_555
O7D_2 Cu1_2 1_555 1_555
N1G C1G 1_555 1_555
N1_2 Cu1_2 1_555 1_555
N2G C6G 1_555 1_555
N3G H1G 1_555 1_555
N4G Cu1 1_555 1_555
N4G_2 Cu1_2 1_555 1_555
C1G H2G 1_555 1_555
C2G N1G 1_555 1_555
H3G C2G 1_555 1_555
C3G C2G 1_555 1_555
H4G C3G 1_555 1_555
C4G C1G 1_555 1_555
H5G C4G 1_555 1_555
C5G C3G 1_555 1_555
C6G C5G 1_555 1_555
H6G C6G 1_555 1_555
H7G C6G 1_555 1_555
C7G N2G 1_555 1_555
H8G C7G 1_555 1_555
H9G C7G 1_555 1_555
C8G N3G 1_555 1_555
H10G C8G 1_555 1_555
H11G C8G 1_555 1_555
C9G N2G 1_555 1_555
H12G C9G 1_555 1_555
H13G C9G 1_555 1_555
C10G N3G 1_555 1_555
H14G C10G 1_555 1_555
H15G C10G 1_555 1_555
C11G N3G 1_555 1_555
H16G C11G 1_555 1_555
H17G C11G 1_555 1_555
C12G C11G 1_555 1_555
C13G C12G 1_555 1_555
H18G C13G 1_555 1_555
C14G C12G 1_555 1_555
H19G C14G 1_555 1_555
C15G N4G 1_555 1_555
H20G C15G 1_555 1_555
C16G N4G 1_555 1_555
H21G C16G 1_555 1_555
C17_2 H22_2 1_555 1_555
C18_2 O5_2 1_555 1_555
C19_2 C17_2 1_555 1_555
C20_2 C21_2 1_555 1_555
C21_2 H23_2 1_555 1_555
C22_2 S1_2 1_555 1_555
C23_2 C20_2 1_555 1_555
C24_2 C19_2 1_555 1_555
H24_2 C24_2 1_555 1_555
H25A O8 1_555 1_555
C4 C5 1_555 1_555
C7 C8 1_555 1_555
C9 C10 1_555 1_555
C14 C16 1_555 1_555
C17 C22 1_555 1_555
C20 C24 1_555 1_555
C21 C22 1_555 1_555
C4G C5G 1_555 1_555
C7G C8G 1_555 1_555
C9G C10G 1_555 1_555
C13G C15G 1_555 1_555
C14G C16G 1_555 1_555
C17_2 C22_2 1_555 1_555
C18_2 C19_2 1_555 1_555
C20_2 C24_2 1_555 1_555
C21_2 C22_2 1_555 1_555

#END
