
#######################################################################
#
#                 Cambridge Crystallographic Data Centre
#                                CCDC 
#
#######################################################################
#
# If this CIF has been generated from an entry in the Cambridge 
# Structural Database, then it will include bibliographic, chemical, 
# crystal, experimental, refinement or atomic coordinate data resulting 
# from the CCDC's data processing and validation procedures.
#
#######################################################################

data_UTOTON
_symmetry_cell_setting           monoclinic
_symmetry_space_group_name_H-M   'P 21/m'
_symmetry_Int_Tables_number      11
_space_group_name_Hall           '-P 2yb'
loop_
_symmetry_equiv_pos_site_id
_symmetry_equiv_pos_as_xyz
1 x,y,z
2 -x,1/2+y,-z
3 -x,-y,-z
4 x,1/2-y,z
_cell_length_a                   10.0134(2)
_cell_length_b                   6.5861(2)
_cell_length_c                   11.4842(3)
_cell_angle_alpha                90
_cell_angle_beta                 90.144(2)
_cell_angle_gamma                90
_cell_volume                     757.372
loop_
_atom_site_label
_atom_site_type_symbol
_atom_site_fract_x
_atom_site_fract_y
_atom_site_fract_z
Cu1 Cu 0.99118(9) 1.2500 0.72874(8)
Cu2 Cu 1.0000 1.0000 1.0000
O1 O 1.1624(6) 1.2500 0.6572(6)
O2 O 1.7923(5) 1.2500 0.7446(5)
O3 O 1.0413(6) 1.2500 0.9159(5)
O4 O 1.8628(6) 1.2500 0.5646(6)
O5 O 1.2916(6) 1.2500 0.8151(6)
O6 O 1.5497(8) 1.2500 0.2441(6)
O7 O 1.3382(8) 1.2500 0.2729(7)
O8 O 0.7556(8) 1.0449(17) 0.9768(7)
N1 N 0.9945(5) 0.9174(9) 0.7420(4)
N2 N 0.9942(5) 0.8486(8) 0.8500(4)
N3 N 1.4537(9) 1.2500 0.3059(7)
C1 C 1.3903(8) 1.2500 0.6262(7)
C2 C 1.5201(8) 1.2500 0.6695(7)
H1 H 1.5344 1.2500 0.7496
C3 C 1.6288(8) 1.2500 0.5942(7)
C4 C 1.6080(8) 1.2500 0.4749(7)
H2 H 1.6794 1.2500 0.4233
C5 C 1.4782(8) 1.2500 0.4353(7)
C6 C 1.3700(8) 1.2500 0.5072(8)
H3 H 1.2839 1.2500 0.4766
C7 C 1.2729(8) 1.2500 0.7088(8)
C8 C 1.7708(8) 1.2500 0.6368(7)
C9 C 0.9970(9) 0.7500 0.6767(8)
H4 H 1.0002 0.7500 0.5958
Cu1_2 Cu 1.99118(9) 1.2500 0.72874(8)
Cu1_3 Cu 0.99118(9) 0.2500 0.72874(8)
Cu2A Cu 1.0000 1.5000 1.0000
Cu2A_2 Cu 1.0000 0.5000 1.0000
O2_2 O 0.7923(5) 1.2500 0.7446(5)
O3A O 0.9587(6) 0.7500 1.0841(5)
O4_2 O 0.8628(6) 1.2500 0.5646(6)
O8B O 1.2444(8) 0.9551(17) 1.0232(7)
N1C N 0.9945(5) 0.5826(9) 0.7420(4)
N1C_2 N 0.9945(5) 1.5826(9) 0.7420(4)
N2C N 0.9942(5) 0.6514(8) 0.8500(4)
N2B N 1.0058(5) 1.1514(8) 1.1500(4)
O9 O 1.475(3) 1.2500 0.987(2)
loop_
_geom_bond_atom_site_label_1
_geom_bond_atom_site_label_2
_geom_bond_site_symmetry_1
_geom_bond_site_symmetry_2
Cu1 O1 1_555 1_555
Cu2 O3 1_555 1_555
O1 C7 1_555 1_555
O2 C8 1_555 1_555
O3 Cu1 1_555 1_555
O4 C8 1_555 1_555
O5 C7 1_555 1_555
O6 N3 1_555 1_555
O7 N3 1_555 1_555
O8 Cu2 1_555 1_555
N1 Cu1 1_555 1_555
N2 Cu2 1_555 1_555
N3 C5 1_555 1_555
C1 C2 1_555 1_555
C2 H1 1_555 1_555
C3 C2 1_555 1_555
C4 C3 1_555 1_555
H2 C4 1_555 1_555
C5 C4 1_555 1_555
C6 C1 1_555 1_555
H3 C6 1_555 1_555
C7 C1 1_555 1_555
C8 C3 1_555 1_555
C9 N1 1_555 1_555
H4 C9 1_555 1_555
Cu1_2 O2 1_555 1_555
Cu1_3 N1C 1_555 1_555
Cu2A O3 1_555 1_555
Cu2A_2 O3A 1_555 1_555
O2_2 Cu1 1_555 1_555
O3A Cu2 1_555 1_555
O4_2 Cu1 1_555 1_555
O8B Cu2 1_555 1_555
N1C C9 1_555 1_555
N1C_2 Cu1 1_555 1_555
N2C N2 1_555 1_555
N2B Cu2 1_555 1_555
O4 Cu1_2 1_555 1_555
N1 N2 1_555 1_555
C5 C6 1_555 1_555
Cu2A_2 N2C 1_555 1_555
N1C N2C 1_555 1_555

#END
