
#######################################################################
#
#                 Cambridge Crystallographic Data Centre
#                                CCDC 
#
#######################################################################
#
# If this CIF has been generated from an entry in the Cambridge 
# Structural Database, then it will include bibliographic, chemical, 
# crystal, experimental, refinement or atomic coordinate data resulting 
# from the CCDC's data processing and validation procedures.
#
#######################################################################

data_UTOTUT
_symmetry_cell_setting           orthorhombic
_symmetry_space_group_name_H-M   'P 21 21 21'
_symmetry_Int_Tables_number      19
_space_group_name_Hall           'P 2ac 2ab'
loop_
_symmetry_equiv_pos_site_id
_symmetry_equiv_pos_as_xyz
1 x,y,z
2 1/2-x,-y,1/2+z
3 -x,1/2+y,1/2-z
4 1/2+x,1/2-y,-z
_cell_length_a                   6.4094(15)
_cell_length_b                   14.857(4)
_cell_length_c                   16.066(5)
_cell_angle_alpha                90
_cell_angle_beta                 90
_cell_angle_gamma                90
_cell_volume                     1529.88
loop_
_atom_site_label
_atom_site_type_symbol
_atom_site_fract_x
_atom_site_fract_y
_atom_site_fract_z
Cu1 Cu 0.2423(2) 0.40816(5) 0.36393(5)
Cu2 Cu -0.01037(19) 0.24296(7) 0.49449(8)
O1 O 0.2425(13) 0.3818(3) 0.2475(3)
O2 O 0.2627(13) 0.5175(3) -0.0328(3)
O3 O 0.2451(12) 0.2737(3) 0.4366(3)
O4 O 0.2807(13) 0.4285(4) -0.1422(4)
O5 O -0.0750(14) 0.1273(5) 0.4089(5)
O6 O 0.2780(14) 0.2342(4) 0.2669(4)
O7 O 0.2693(16) 0.1039(4) -0.1078(4)
O8 O 0.2593(16) 0.0433(3) 0.0142(4)
N1 N -0.0842(10) 0.3947(5) 0.3695(5)
N2 N -0.4330(12) 0.3951(5) 0.3704(5)
N3 N -0.3589(12) 0.3378(5) 0.4282(5)
N4 N -0.1571(12) 0.3353(5) 0.4253(5)
N5 N -0.2560(19) 0.4953(4) 0.2766(4)
H1 H -0.1407 0.5172 0.2581
H2 H -0.3730 0.5149 0.2577
N6 N 0.2694(16) 0.1081(4) -0.0325(4)
C1 C 0.2609(18) 0.2911(5) 0.1276(5)
C2 C 0.2649(18) 0.3670(5) 0.0765(4)
H3 H 0.2651 0.4240 0.1004
C3 C 0.2686(15) 0.3587(4) -0.0103(5)
C4 C 0.2670(16) 0.2719(5) -0.0462(4)
H4 H 0.2654 0.2643 -0.1036
C5 C 0.2680(15) 0.1991(4) 0.0069(5)
C6 C 0.2643(16) 0.2058(5) 0.0927(4)
H5 H 0.2642 0.1547 0.1261
C7 C 0.2627(18) 0.3019(5) 0.2220(5)
C8 C 0.2716(18) 0.4389(5) -0.0666(5)
C9 C -0.2532(18) 0.4304(4) 0.3353(4)
Cu1A Cu 0.2577(2) 0.59184(5) -0.13607(5)
Cu1_2 Cu -0.7577(2) 0.40816(5) 0.36393(5)
Cu2C Cu 0.48963(19) 0.25704(7) 0.50551(8)
Cu2C_2 Cu -0.51037(19) 0.25704(7) 0.50551(8)
O2A O 0.2373(13) 0.4825(3) 0.4672(3)
O3C O -0.2549(12) 0.2263(3) 0.5634(3)
O4A O 0.2193(13) 0.5715(4) 0.3578(4)
N2_2 N 0.5670(12) 0.3951(5) 0.3704(5)
N3C N 0.1411(12) 0.1622(5) 0.5718(5)
O9 O -0.303(3) 0.1731(14) 0.2742(7)
O10 O -0.504(6) 0.0958(14) 0.369(3)
loop_
_geom_bond_atom_site_label_1
_geom_bond_atom_site_label_2
_geom_bond_site_symmetry_1
_geom_bond_site_symmetry_2
Cu1 O1 1_555 1_555
Cu2 O3 1_555 1_555
O1 C7 1_555 1_555
O2 C8 1_555 1_555
O3 Cu1 1_555 1_555
O4 C8 1_555 1_555
O5 Cu2 1_555 1_555
O6 C7 1_555 1_555
O7 N6 1_555 1_555
O8 N6 1_555 1_555
N1 Cu1 1_555 1_555
N2 N3 1_555 1_555
N3 N4 1_555 1_555
N4 Cu2 1_555 1_555
N5 H1 1_555 1_555
H2 N5 1_555 1_555
N6 C5 1_555 1_555
C1 C2 1_555 1_555
C2 H3 1_555 1_555
C3 C2 1_555 1_555
C4 C3 1_555 1_555
H4 C4 1_555 1_555
C5 C4 1_555 1_555
C6 C1 1_555 1_555
H5 C6 1_555 1_555
C7 C1 1_555 1_555
C8 C3 1_555 1_555
C9 N1 1_555 1_555
Cu1A O2 1_555 1_555
Cu1_2 N2 1_555 1_555
Cu2C O3 1_555 1_555
Cu2C_2 N3 1_555 1_555
O2A Cu1 1_555 1_555
O3C Cu2 1_555 1_555
O4A Cu1 1_555 1_555
N2_2 Cu1 1_555 1_555
N3C Cu2 1_555 1_555
O4 Cu1A 1_555 1_555
N1 N4 1_555 1_555
N2 C9 1_555 1_555
N5 C9 1_555 1_555
C5 C6 1_555 1_555
Cu2C_2 O3C 1_555 1_555

#END
