
#######################################################################
#
#                 Cambridge Crystallographic Data Centre
#                                CCDC 
#
#######################################################################
#
# If this CIF has been generated from an entry in the Cambridge 
# Structural Database, then it will include bibliographic, chemical, 
# crystal, experimental, refinement or atomic coordinate data resulting 
# from the CCDC's data processing and validation procedures.
#
#######################################################################

data_UTUGUM
_symmetry_cell_setting           monoclinic
_symmetry_space_group_name_H-M   'P 21/c'
_symmetry_Int_Tables_number      14
_space_group_name_Hall           '-P 2ybc'
loop_
_symmetry_equiv_pos_site_id
_symmetry_equiv_pos_as_xyz
1 x,y,z
2 -x,1/2+y,1/2-z
3 -x,-y,-z
4 x,1/2-y,1/2+z
_cell_length_a                   17.3360(7)
_cell_length_b                   7.4561(3)
_cell_length_c                   9.5731(4)
_cell_angle_alpha                90
_cell_angle_beta                 96.4347(18)
_cell_angle_gamma                90
_cell_volume                     1229.61
loop_
_atom_site_label
_atom_site_type_symbol
_atom_site_fract_x
_atom_site_fract_y
_atom_site_fract_z
Mg1 Mg 0.0945(3) 0.5144(5) 0.7184(4)
O1 O 0.2116(4) 0.5739(9) 0.7155(8)
O2 O 0.1464(4) 0.7112(10) 0.8579(8)
O3 O 0.0623(6) 0.7213(9) 0.5754(8)
O4 O -0.0229(4) 0.5086(11) 0.7513(9)
O5 O 0.8868(6) 0.6959(9) 1.1328(6)
O6 O 0.9159(5) 0.8279(9) 0.9479(8)
C1 C 0.2147(4) 0.6864(18) 0.8183(14)
C2 C 0.2915(4) 0.7809(13) 0.8744(13)
C3 C 0.3607(4) 0.6842(15) 0.8164(13)
C4 C 0.4369(4) 0.7685(13) 0.8898(13)
C5 C 0.5102(4) 0.6737(14) 0.8504(13)
C6 C 0.5826(4) 0.7568(14) 0.9360(12)
C7 C 0.6570(4) 0.6591(14) 0.8996(14)
C8 C 0.7319(4) 0.7446(14) 0.9724(13)
C9 C 0.7964(4) 0.6296(15) 0.9169(14)
C10 C 0.8695(6) 0.7170(16) 0.9977(7)
Mg1B Mg 0.9055(3) 0.4856(5) 1.2816(4)
Mg1A Mg 0.9055(3) 1.0144(5) 0.7816(4)
O5B O 0.1132(6) 0.3041(9) 0.8672(6)
O6A O 0.0841(5) 0.3279(9) 0.5521(8)
loop_
_geom_bond_atom_site_label_1
_geom_bond_atom_site_label_2
_geom_bond_site_symmetry_1
_geom_bond_site_symmetry_2
Mg1 O1 1_555 1_555
O1 C1 1_555 1_555
O2 Mg1 1_555 1_555
O3 Mg1 1_555 1_555
O4 Mg1 1_555 1_555
O5 C10 1_555 1_555
O6 C10 1_555 1_555
C1 O2 1_555 1_555
C2 C1 1_555 1_555
C3 C2 1_555 1_555
C4 C3 1_555 1_555
C5 C4 1_555 1_555
C6 C5 1_555 1_555
C7 C6 1_555 1_555
C8 C7 1_555 1_555
C9 C8 1_555 1_555
C10 C9 1_555 1_555
Mg1B O5 1_555 1_555
Mg1A O6 1_555 1_555
O5B Mg1 1_555 1_555
O6A Mg1 1_555 1_555

#END
