
#######################################################################
#
#                 Cambridge Crystallographic Data Centre
#                                CCDC 
#
#######################################################################
#
# If this CIF has been generated from an entry in the Cambridge 
# Structural Database, then it will include bibliographic, chemical, 
# crystal, experimental, refinement or atomic coordinate data resulting 
# from the CCDC's data processing and validation procedures.
#
#######################################################################

data_UTUMEC
_symmetry_cell_setting           monoclinic
_symmetry_space_group_name_H-M   'P 21/c'
_symmetry_Int_Tables_number      14
_space_group_name_Hall           '-P 2ybc'
loop_
_symmetry_equiv_pos_site_id
_symmetry_equiv_pos_as_xyz
1 x,y,z
2 -x,1/2+y,1/2-z
3 -x,-y,-z
4 x,1/2-y,1/2+z
_cell_length_a                   9.660(5)
_cell_length_b                   21.858(11)
_cell_length_c                   18.050(7)
_cell_angle_alpha                90
_cell_angle_beta                 121.60(2)
_cell_angle_gamma                90
_cell_volume                     3246.12
loop_
_atom_site_label
_atom_site_type_symbol
_atom_site_fract_x
_atom_site_fract_y
_atom_site_fract_z
Ni1 Ni -0.73235(7) -0.36181(2) 0.04608(3)
Ni2 Ni -0.60220(7) -0.12883(2) 0.09304(3)
C1 C -0.8399(5) -0.30629(18) 0.2395(3)
C2 C -1.0036(6) -0.3215(2) 0.1981(3)
H1 H -1.0498 -0.3450 0.1477
C3 C -1.0994(6) -0.3028(2) 0.2297(3)
H2 H -1.2084 -0.3139 0.2015
C4 C -1.0308(5) -0.2673(2) 0.3037(3)
H3 H -1.0931 -0.2556 0.3268
C5 C -0.8701(5) -0.24876(18) 0.3441(3)
C6 C -0.7710(5) -0.26767(18) 0.3131(3)
C7 C -0.5960(5) -0.25028(18) 0.3606(3)
C8 C -0.5270(5) -0.21161(19) 0.3265(3)
C9 C -0.3610(6) -0.2016(2) 0.3728(3)
H4 H -0.3159 -0.1786 0.3473
C10 C -0.2594(6) -0.2246(3) 0.4559(3)
H5 H -0.1482 -0.2171 0.4860
C11 C -0.3276(6) -0.2588(2) 0.4926(3)
H6 H -0.2629 -0.2728 0.5495
C12 C -0.4922(5) -0.27266(19) 0.4455(3)
C13 C -0.7427(5) -0.33132(19) 0.2018(3)
C14 C -0.8076(5) -0.20782(18) 0.4220(3)
C15 C -0.6250(6) -0.17943(19) 0.2390(3)
C16 C -0.5534(5) -0.31048(19) 0.4924(3)
C17 C -1.0637(6) -0.4050(2) -0.0947(3)
H7 H -1.0941 -0.3646 -0.0950
C18 C -1.1807(7) -0.4456(2) -0.1528(3)
H8 H -1.2869 -0.4329 -0.1914
C19 C -1.1334(8) -0.5055(3) -0.1510(3)
H9 H -1.2083 -0.5344 -0.1882
C20 C -0.9748(7) -0.5219(2) -0.0938(4)
H10 H -0.9420 -0.5620 -0.0926
C21 C -0.8631(6) -0.47896(19) -0.0378(3)
C22 C -0.6922(6) -0.4917(2) 0.0285(3)
C23 C -0.6183(7) -0.5480(2) 0.0377(4)
H11 H -0.6754 -0.5796 -0.0009
C24 C -0.4606(8) -0.5567(3) 0.1040(5)
H12 H -0.4098 -0.5943 0.1110
C25 C -0.3793(8) -0.5096(3) 0.1597(4)
H13 H -0.2729 -0.5149 0.2058
C26 C -0.4566(7) -0.4538(3) 0.1469(4)
H14 H -0.4002 -0.4215 0.1844
C27 C -0.7945(6) -0.0165(2) 0.0867(3)
H15 H -0.8747 -0.0440 0.0786
C28 C -0.8209(7) 0.0458(2) 0.0899(4)
H16 H -0.9168 0.0599 0.0842
C29 C -0.7016(7) 0.0858(2) 0.1017(4)
H17 H -0.7167 0.1277 0.1034
C30 C -0.5604(7) 0.0643(2) 0.1108(3)
H18 H -0.4792 0.0913 0.1189
C31 C -0.5402(5) 0.0021(2) 0.1078(3)
C32 C -0.3872(6) -0.0261(2) 0.1233(3)
C33 C -0.2574(6) 0.0075(2) 0.1319(3)
H19 H -0.2654 0.0496 0.1230
C34 C -0.1163(7) -0.0233(3) 0.1539(4)
H20 H -0.0282 -0.0018 0.1596
C35 C -0.1040(7) -0.0854(3) 0.1677(4)
H21 H -0.0083 -0.1063 0.1838
C36 C -0.2405(6) -0.1161(2) 0.1565(3)
H22 H -0.2344 -0.1581 0.1656
N1 N -0.9103(5) -0.42067(16) -0.0385(2)
N2 N -0.6104(5) -0.44510(17) 0.0821(2)
N3 N -0.6578(4) -0.03802(17) 0.0949(2)
N4 N -0.3793(4) -0.08737(17) 0.1333(2)
O1 O -0.8246(4) -0.35038(14) 0.12419(18)
O2 O -0.5922(4) -0.33291(16) 0.2485(2)
O3 O -0.8594(4) -0.21697(13) 0.47344(18)
O4 O -0.7123(4) -0.16425(13) 0.4358(2)
O5 O -0.7751(4) -0.17875(17) 0.1998(2)
O6 O -0.5397(4) -0.15369(16) 0.2129(2)
O7 O -0.5154(4) -0.29289(13) 0.56790(19)
O8 O -0.6298(4) -0.35953(13) 0.46254(19)
O9 O -0.5190(4) -0.31752(14) 0.12938(19)
H23 H -0.5259 -0.3239 0.1738
H24 H -0.5174 -0.2823 0.1098
O10 O -0.8380(4) -0.16121(14) 0.0402(2)
H25 H -0.8504 -0.1643 0.0833
H26 H -0.8535 -0.1928 0.0094
Ni1C Ni -0.73235(7) -0.13819(2) 0.54608(3)
Ni2C Ni -0.60220(7) -0.37117(2) 0.59304(3)
O3C O -0.8594(4) -0.28303(13) -0.02656(18)
O4C O -0.7123(4) -0.33575(13) -0.0642(2)
O7C O -0.5154(4) -0.20711(13) 0.06790(19)
O8C O -0.6298(4) -0.14047(13) -0.03746(19)
loop_
_geom_bond_atom_site_label_1
_geom_bond_atom_site_label_2
_geom_bond_site_symmetry_1
_geom_bond_site_symmetry_2
Ni1 N1 1_555 1_555
Ni2 N3 1_555 1_555
C1 C2 1_555 1_555
C2 H1 1_555 1_555
C3 C2 1_555 1_555
H2 C3 1_555 1_555
C4 C3 1_555 1_555
H3 C4 1_555 1_555
C5 C4 1_555 1_555
C6 C1 1_555 1_555
C7 C6 1_555 1_555
C8 C7 1_555 1_555
C9 C8 1_555 1_555
H4 C9 1_555 1_555
C10 C9 1_555 1_555
H5 C10 1_555 1_555
C11 C10 1_555 1_555
H6 C11 1_555 1_555
C12 C7 1_555 1_555
C13 C1 1_555 1_555
C14 C5 1_555 1_555
C15 C8 1_555 1_555
C16 C12 1_555 1_555
C17 H7 1_555 1_555
C18 C17 1_555 1_555
H8 C18 1_555 1_555
C19 C18 1_555 1_555
H9 C19 1_555 1_555
C20 C19 1_555 1_555
H10 C20 1_555 1_555
C21 C20 1_555 1_555
C22 C21 1_555 1_555
C23 C22 1_555 1_555
H11 C23 1_555 1_555
C24 C23 1_555 1_555
H12 C24 1_555 1_555
C25 C24 1_555 1_555
H13 C25 1_555 1_555
C26 C25 1_555 1_555
H14 C26 1_555 1_555
C27 H15 1_555 1_555
C28 C27 1_555 1_555
H16 C28 1_555 1_555
C29 C28 1_555 1_555
H17 C29 1_555 1_555
C30 C29 1_555 1_555
H18 C30 1_555 1_555
C31 C30 1_555 1_555
C32 C31 1_555 1_555
C33 C32 1_555 1_555
H19 C33 1_555 1_555
C34 C33 1_555 1_555
H20 C34 1_555 1_555
C35 C34 1_555 1_555
H21 C35 1_555 1_555
C36 C35 1_555 1_555
H22 C36 1_555 1_555
N1 C17 1_555 1_555
N2 Ni1 1_555 1_555
N3 C27 1_555 1_555
N4 Ni2 1_555 1_555
O1 Ni1 1_555 1_555
O2 C13 1_555 1_555
O3 C14 1_555 1_555
O4 C14 1_555 1_555
O5 C15 1_555 1_555
O6 Ni2 1_555 1_555
O7 C16 1_555 1_555
O8 C16 1_555 1_555
O9 Ni1 1_555 1_555
H23 O9 1_555 1_555
H24 O9 1_555 1_555
O10 Ni2 1_555 1_555
H25 O10 1_555 1_555
H26 O10 1_555 1_555
Ni1C O3 1_555 1_555
Ni2C O7 1_555 1_555
O3C Ni1 1_555 1_555
O4C Ni1 1_555 1_555
O7C Ni2 1_555 1_555
O8C Ni2 1_555 1_555
C5 C6 1_555 1_555
C11 C12 1_555 1_555
C13 O1 1_555 1_555
C15 O6 1_555 1_555
C21 N1 1_555 1_555
C22 N2 1_555 1_555
C26 N2 1_555 1_555
C31 N3 1_555 1_555
C32 N4 1_555 1_555
C36 N4 1_555 1_555
O4 Ni1C 1_555 1_555
O8 Ni2C 1_555 1_555

#END
