
#######################################################################
#
#                 Cambridge Crystallographic Data Centre
#                                CCDC 
#
#######################################################################
#
# If this CIF has been generated from an entry in the Cambridge 
# Structural Database, then it will include bibliographic, chemical, 
# crystal, experimental, refinement or atomic coordinate data resulting 
# from the CCDC's data processing and validation procedures.
#
#######################################################################

data_UTUNUT
_symmetry_cell_setting           monoclinic
_symmetry_space_group_name_H-M   'P 21'
_symmetry_Int_Tables_number      4
_space_group_name_Hall           'P 2yb'
loop_
_symmetry_equiv_pos_site_id
_symmetry_equiv_pos_as_xyz
1 x,y,z
2 -x,1/2+y,-z
_cell_length_a                   11.8003(4)
_cell_length_b                   7.1674(2)
_cell_length_c                   15.7364(5)
_cell_angle_alpha                90
_cell_angle_beta                 99.998(2)
_cell_angle_gamma                90
_cell_volume                     1310.73
loop_
_atom_site_label
_atom_site_type_symbol
_atom_site_fract_x
_atom_site_fract_y
_atom_site_fract_z
Sr1 Sr 0.44006(4) 0.33803(10) 0.01692(3)
Sr2 Sr -0.06841(4) 0.33502(10) -0.01731(3)
O1 O 0.2700(3) 0.3223(8) 0.0945(2)
O2 O 0.1047(3) 0.1649(6) 0.0804(3)
O3 O 0.3562(4) 0.0077(6) -0.0356(3)
H1 H 0.385(5) -0.104(4) -0.039(4)
H2 H 0.333(6) -0.005(9) 0.015(2)
O4 O 0.2746(3) 0.8238(8) 0.0981(3)
O5 O 0.1252(4) 0.5045(7) -0.0358(3)
H3 H 0.168(4) 0.481(12) 0.0144(18)
H4 H 0.178(4) 0.501(11) -0.069(3)
O6 O 0.4328(4) 0.6664(6) 0.0808(3)
O7 O 0.4563(4) 0.5880(6) -0.1106(3)
O8 O 0.2987(4) 0.4164(7) -0.1224(3)
O9 O 0.0065(4) 0.5835(7) 0.1098(3)
O10 O -0.1455(4) 0.4119(6) 0.1241(3)
C1 C 0.1887(5) 0.2442(9) 0.1265(4)
C2 C 0.1921(5) 0.2527(9) 0.2208(4)
C3 C 0.1029(5) 0.1794(9) 0.2586(4)
H5 H 0.0397 0.1204 0.2231
C4 C 0.1047(6) 0.1910(10) 0.3469(5)
H6 H 0.0436 0.1399 0.3717
C5 C 0.1968(6) 0.2782(10) 0.3988(5)
H7 H 0.1989 0.2865 0.4593
C6 C 0.2853(5) 0.3527(13) 0.3629(4)
H8 H 0.3475 0.4130 0.3989
C7 C 0.2844(5) 0.3408(13) 0.2755(4)
H9 H 0.3462 0.3922 0.2518
C8 C 0.3695(5) 0.7455(9) 0.1281(4)
C9 C 0.4141(5) 0.7530(10) 0.2230(4)
C10 C 0.5208(6) 0.6762(10) 0.2574(5)
H10 H 0.5650 0.6165 0.2203
C11 C 0.5632(6) 0.6858(10) 0.3451(5)
H11 H 0.6360 0.6336 0.3682
C12 C 0.4966(6) 0.7739(10) 0.3995(5)
H12 H 0.5247 0.7801 0.4598
C13 C 0.3903(5) 0.8520(14) 0.3660(4)
H13 H 0.3464 0.9131 0.4030
C14 C 0.3490(5) 0.8396(13) 0.2781(4)
H14 H 0.2758 0.8906 0.2550
C15 C 0.3634(5) 0.5245(9) -0.1545(4)
C16 C 0.3340(5) 0.5742(9) -0.2483(4)
C17 C 0.4118(5) 0.6776(9) -0.2870(4)
H15 H 0.4805 0.7238 -0.2530
C18 C 0.3886(6) 0.7124(10) -0.3745(5)
H16 H 0.4423 0.7803 -0.4010
C19 C 0.2864(6) 0.6482(10) -0.4245(5)
H17 H 0.2702 0.6739 -0.4846
C20 C 0.2090(6) 0.5470(10) -0.3862(5)
H18 H 0.1395 0.5034 -0.4199
C21 C 0.2332(6) 0.5095(10) -0.2982(4)
H19 H 0.1803 0.4389 -0.2722
C22 C -0.0650(5) 0.5210(9) 0.1544(4)
C23 C -0.0497(5) 0.5738(9) 0.2485(4)
C24 C -0.1269(5) 0.5090(10) 0.2995(4)
H20 H -0.1912 0.4358 0.2745
C25 C -0.1099(6) 0.5513(10) 0.3870(5)
H21 H -0.1619 0.5058 0.4219
C26 C -0.0158(6) 0.6611(10) 0.4236(5)
H22 H -0.0048 0.6941 0.4829
C27 C 0.0617(6) 0.7213(10) 0.3718(5)
H23 H 0.1272 0.7918 0.3970
C28 C 0.0452(5) 0.6808(9) 0.2852(4)
H24 H 0.0980 0.7251 0.2506
Sr1A Sr 0.55994(4) -0.16197(10) -0.01692(3)
Sr1A_2 Sr 0.55994(4) 0.83803(10) -0.01692(3)
Sr2A Sr 0.06841(4) -0.16498(10) 0.01731(3)
Sr2A_2 Sr 0.06841(4) 0.83502(10) 0.01731(3)
O2A O -0.1047(3) 0.6649(6) -0.0804(3)
O3A O 0.6438(4) 0.5077(6) 0.0356(3)
H1A H 0.615(5) 0.396(4) 0.039(4)
H2A H 0.667(6) 0.495(9) -0.015(2)
O4A O -0.2746(3) 0.3238(8) -0.0981(3)
O5A O -0.1252(4) 0.0045(7) 0.0358(3)
H3A H -0.168(4) -0.019(12) -0.0144(18)
H4A H -0.178(4) 0.001(11) 0.069(3)
O6A O 0.5672(4) 0.1664(6) -0.0808(3)
O7A O 0.5437(4) 0.0880(6) 0.1106(3)
O9A O -0.0065(4) 0.0835(7) -0.1098(3)
loop_
_geom_bond_atom_site_label_1
_geom_bond_atom_site_label_2
_geom_bond_site_symmetry_1
_geom_bond_site_symmetry_2
Sr1 O1 1_555 1_555
Sr2 O2 1_555 1_555
O1 C1 1_555 1_555
O2 C1 1_555 1_555
O3 Sr1 1_555 1_555
H1 O3 1_555 1_555
H2 O3 1_555 1_555
O4 C8 1_555 1_555
O5 Sr2 1_555 1_555
H3 O5 1_555 1_555
H4 O5 1_555 1_555
O6 Sr1 1_555 1_555
O7 Sr1 1_555 1_555
O8 Sr1 1_555 1_555
O9 Sr2 1_555 1_555
O10 Sr2 1_555 1_555
C1 C2 1_555 1_555
C2 C3 1_555 1_555
C3 H5 1_555 1_555
C4 C3 1_555 1_555
H6 C4 1_555 1_555
C5 C4 1_555 1_555
H7 C5 1_555 1_555
C6 C5 1_555 1_555
H8 C6 1_555 1_555
C7 C2 1_555 1_555
H9 C7 1_555 1_555
C8 O6 1_555 1_555
C9 C8 1_555 1_555
C10 C9 1_555 1_555
H10 C10 1_555 1_555
C11 C10 1_555 1_555
H11 C11 1_555 1_555
C12 C11 1_555 1_555
H12 C12 1_555 1_555
C13 C12 1_555 1_555
H13 C13 1_555 1_555
C14 C9 1_555 1_555
H14 C14 1_555 1_555
C15 O7 1_555 1_555
C16 C15 1_555 1_555
C17 C16 1_555 1_555
H15 C17 1_555 1_555
C18 C17 1_555 1_555
H16 C18 1_555 1_555
C19 C18 1_555 1_555
H17 C19 1_555 1_555
C20 C19 1_555 1_555
H18 C20 1_555 1_555
C21 C16 1_555 1_555
H19 C21 1_555 1_555
C22 O9 1_555 1_555
C23 C22 1_555 1_555
C24 C23 1_555 1_555
H20 C24 1_555 1_555
C25 C24 1_555 1_555
H21 C25 1_555 1_555
C26 C25 1_555 1_555
H22 C26 1_555 1_555
C27 C26 1_555 1_555
H23 C27 1_555 1_555
C28 C23 1_555 1_555
H24 C28 1_555 1_555
Sr1A O3 1_555 1_555
Sr1A_2 O6 1_555 1_555
Sr2A O2 1_555 1_555
Sr2A_2 O4 1_555 1_555
O2A Sr2 1_555 1_555
O3A Sr1 1_555 1_555
H1A O3A 1_555 1_555
H2A O3A 1_555 1_555
O4A Sr2 1_555 1_555
O5A Sr2 1_555 1_555
H3A O5A 1_555 1_555
H4A O5A 1_555 1_555
O6A Sr1 1_555 1_555
O7A Sr1 1_555 1_555
O9A Sr2 1_555 1_555
O5 Sr2A_2 1_555 1_555
O7 Sr1A_2 1_555 1_555
O8 C15 1_555 1_555
O9 Sr2A_2 1_555 1_555
O10 C22 1_555 1_555
C6 C7 1_555 1_555
C13 C14 1_555 1_555
C20 C21 1_555 1_555
C27 C28 1_555 1_555
Sr1A O6A 1_555 1_555
Sr1A O7A 1_555 1_555
Sr1A_2 O3A 1_555 1_555
Sr2A O5A 1_555 1_555
Sr2A O9A 1_555 1_555
Sr2A_2 O2A 1_555 1_555

#END
