
#######################################################################
#
#                 Cambridge Crystallographic Data Centre
#                                CCDC 
#
#######################################################################
#
# If this CIF has been generated from an entry in the Cambridge 
# Structural Database, then it will include bibliographic, chemical, 
# crystal, experimental, refinement or atomic coordinate data resulting 
# from the CCDC's data processing and validation procedures.
#
#######################################################################

data_UTUNON
_symmetry_cell_setting           monoclinic
_symmetry_space_group_name_H-M   'P 21/n'
_symmetry_Int_Tables_number      14
_space_group_name_Hall           '-P 2yn'
loop_
_symmetry_equiv_pos_site_id
_symmetry_equiv_pos_as_xyz
1 x,y,z
2 1/2-x,1/2+y,1/2-z
3 -x,-y,-z
4 1/2+x,1/2-y,1/2+z
_cell_length_a                   8.8802(16)
_cell_length_b                   10.4210(18)
_cell_length_c                   35.019(6)
_cell_angle_alpha                90
_cell_angle_beta                 97.228(3)
_cell_angle_gamma                90
_cell_volume                     3214.93
loop_
_atom_site_label
_atom_site_type_symbol
_atom_site_fract_x
_atom_site_fract_y
_atom_site_fract_z
Mg1 Mg 0.0264(2) 0.90622(19) 0.80652(6)
Mg2 Mg 0.5182(2) 1.07984(19) 0.80354(5)
O1 O 0.1966(5) 0.8672(4) 0.84947(11)
O2 O 0.3784(6) 1.0069(4) 0.83975(13)
O3 O 0.1746(5) 0.8387(4) 0.76704(12)
H1 H 0.235(6) 0.777(4) 0.7763(15)
H2 H 0.135(7) 0.801(5) 0.7451(11)
O4 O 0.0421(6) 0.5270(5) 0.81297(13)
O5 O -0.1245(5) 0.9410(4) 0.75827(11)
H3 H -0.193(6) 1.004(5) 0.7546(17)
H4 H -0.094(7) 0.944(6) 0.7351(10)
O6 O -0.0645(5) 0.7221(4) 0.80999(11)
O7 O 0.1015(5) 1.0946(4) 0.80425(14)
H5 H 0.185(4) 1.142(5) 0.806(2)
H6 H 0.036(5) 1.149(5) 0.7931(19)
O8 O -0.3095(5) 1.1211(4) 0.84509(12)
O9 O 0.5956(5) 0.8883(4) 0.79768(12)
H7 H 0.569(6) 0.822(4) 0.8099(17)
H8 H 0.687(3) 0.902(6) 0.8069(17)
O10 O -0.1349(5) 0.9710(4) 0.83912(12)
O11 O 0.3623(5) 1.0479(4) 0.75568(12)
H9 H 0.363(8) 1.040(6) 0.7306(7)
H10 H 0.330(8) 0.970(3) 0.7599(16)
O12 O 0.4249(5) 1.2583(4) 0.80682(12)
O13 O 0.6628(5) 1.1432(4) 0.76401(12)
H11 H 0.732(6) 1.202(5) 0.7703(15)
H12 H 0.646(7) 1.154(6) 0.7393(6)
O14 O 0.5095(5) 1.4603(4) 0.80847(12)
C1 C 0.3927(8) 0.9007(6) 0.90040(18)
C2 C 0.5240(8) 0.9700(7) 0.91528(19)
H17 H 0.5665 1.0318 0.8998
C3 C 0.5898(7) 0.9471(7) 0.95245(18)
H18 H 0.6762 0.9953 0.9628
C4 C 0.5314(8) 0.8546(7) 0.97499(18)
H19 H 0.5784 0.8392 1.0005
C5 C 0.4040(8) 0.7844(7) 0.96026(19)
H20 H 0.3643 0.7212 0.9758
C6 C 0.3342(7) 0.8057(6) 0.92300(17)
H21 H 0.2480 0.7568 0.9129
C7 C 0.3199(7) 0.9257(5) 0.86011(17)
C8 C -0.0255(7) 0.6144(6) 0.87069(18)
C9 C -0.1220(8) 0.6986(6) 0.88694(18)
H22 H -0.1783 0.7608 0.8712
C10 C -0.1364(9) 0.6918(7) 0.92656(18)
H23 H -0.2047 0.7470 0.9375
C11 C -0.0497(8) 0.6036(6) 0.94935(18)
H24 H -0.0552 0.5996 0.9762
C12 C 0.0475(9) 0.5191(7) 0.9321(2)
H25 H 0.1072 0.4584 0.9476
C13 C 0.0560(9) 0.5244(7) 0.8934(2)
H26 H 0.1189 0.4653 0.8822
C14 C -0.0118(7) 0.6215(6) 0.82860(17)
C15 C -0.1099(7) 1.0972(6) 0.89684(17)
C16 C -0.1672(8) 1.1970(6) 0.91667(18)
H27 H -0.2484 1.2479 0.9046
C17 C -0.1046(7) 1.2223(7) 0.95454(18)
H28 H -0.1441 1.2903 0.9684
C18 C 0.0143(8) 1.1492(6) 0.97200(18)
H29 H 0.0562 1.1665 0.9978
C19 C 0.0725(8) 1.0497(7) 0.95152(19)
H30 H 0.1553 0.9999 0.9633
C20 C 0.0095(8) 1.0235(6) 0.91407(18)
H31 H 0.0482 0.9551 0.9002
C21 C -0.1897(7) 1.0604(5) 0.85760(16)
C22 C 0.4579(7) 1.3714(6) 0.86814(16)
C23 C 0.5405(8) 1.4675(7) 0.88913(19)
H32 H 0.6020 1.5251 0.8768
C24 C 0.5315(9) 1.4778(7) 0.9286(2)
H33 H 0.5859 1.5436 0.9432
C25 C 0.4436(9) 1.3926(7) 0.94640(19)
H34 H 0.4361 1.3999 0.9731
C26 C 0.3656(8) 1.2949(6) 0.92442(19)
H35 H 0.3082 1.2343 0.9368
C27 C 0.3704(7) 1.2852(6) 0.88593(18)
H36 H 0.3144 1.2202 0.8714
C28 C 0.4637(7) 1.3644(6) 0.82543(16)
Mg2_2 Mg -0.4818(2) 1.07984(19) 0.80354(5)
O8_2 O 0.6905(5) 1.1211(4) 0.84509(12)
O15 O 0.4023(5) 0.7002(4) 0.81413(12)
H13 H 0.371(8) 0.624(3) 0.8063(16)
H14 H 0.361(7) 0.708(6) 0.8348(12)
O16 O 0.5769(5) 0.8007(4) 0.71963(12)
H15 H 0.573(8) 0.835(5) 0.7422(8)
H16 H 0.544(8) 0.867(4) 0.7051(13)
loop_
_geom_bond_atom_site_label_1
_geom_bond_atom_site_label_2
_geom_bond_site_symmetry_1
_geom_bond_site_symmetry_2
Mg1 O1 1_555 1_555
Mg2 O2 1_555 1_555
O1 C7 1_555 1_555
O2 C7 1_555 1_555
O3 Mg1 1_555 1_555
H1 O3 1_555 1_555
H2 O3 1_555 1_555
O4 C14 1_555 1_555
O5 Mg1 1_555 1_555
H3 O5 1_555 1_555
H4 O5 1_555 1_555
O6 Mg1 1_555 1_555
O7 Mg1 1_555 1_555
H5 O7 1_555 1_555
H6 O7 1_555 1_555
O8 C21 1_555 1_555
O9 Mg2 1_555 1_555
H7 O9 1_555 1_555
H8 O9 1_555 1_555
O10 Mg1 1_555 1_555
O11 Mg2 1_555 1_555
H9 O11 1_555 1_555
H10 O11 1_555 1_555
O12 Mg2 1_555 1_555
O13 Mg2 1_555 1_555
H11 O13 1_555 1_555
H12 O13 1_555 1_555
O14 C28 1_555 1_555
O15 H13 1_555 1_555
H14 O15 1_555 1_555
O16 H15 1_555 1_555
H16 O16 1_555 1_555
C1 C2 1_555 1_555
C2 H17 1_555 1_555
C3 C2 1_555 1_555
H18 C3 1_555 1_555
C4 C3 1_555 1_555
H19 C4 1_555 1_555
C5 C4 1_555 1_555
H20 C5 1_555 1_555
C6 C1 1_555 1_555
H21 C6 1_555 1_555
C7 C1 1_555 1_555
C8 C9 1_555 1_555
C9 H22 1_555 1_555
C10 C9 1_555 1_555
H23 C10 1_555 1_555
C11 C10 1_555 1_555
H24 C11 1_555 1_555
C12 C11 1_555 1_555
H25 C12 1_555 1_555
C13 C8 1_555 1_555
H26 C13 1_555 1_555
C14 O6 1_555 1_555
C15 C16 1_555 1_555
C16 H27 1_555 1_555
C17 C16 1_555 1_555
H28 C17 1_555 1_555
C18 C17 1_555 1_555
H29 C18 1_555 1_555
C19 C18 1_555 1_555
H30 C19 1_555 1_555
C20 C15 1_555 1_555
H31 C20 1_555 1_555
C21 O10 1_555 1_555
C22 C23 1_555 1_555
C23 H32 1_555 1_555
C24 C23 1_555 1_555
H33 C24 1_555 1_555
C25 C24 1_555 1_555
H34 C25 1_555 1_555
C26 C25 1_555 1_555
H35 C26 1_555 1_555
C27 C22 1_555 1_555
H36 C27 1_555 1_555
C28 O12 1_555 1_555
Mg2_2 O8 1_555 1_555
O8_2 Mg2 1_555 1_555
C5 C6 1_555 1_555
C8 C14 1_555 1_555
C12 C13 1_555 1_555
C15 C21 1_555 1_555
C19 C20 1_555 1_555
C22 C28 1_555 1_555
C26 C27 1_555 1_555

#END
