
#######################################################################
#
#                 Cambridge Crystallographic Data Centre
#                                CCDC 
#
#######################################################################
#
# If this CIF has been generated from an entry in the Cambridge 
# Structural Database, then it will include bibliographic, chemical, 
# crystal, experimental, refinement or atomic coordinate data resulting 
# from the CCDC's data processing and validation procedures.
#
#######################################################################

data_UTUNED
_symmetry_cell_setting           monoclinic
_symmetry_space_group_name_H-M   'P 21/c'
_symmetry_Int_Tables_number      14
_space_group_name_Hall           '-P 2ybc'
loop_
_symmetry_equiv_pos_site_id
_symmetry_equiv_pos_as_xyz
1 x,y,z
2 -x,1/2+y,1/2-z
3 -x,-y,-z
4 x,1/2-y,1/2+z
_cell_length_a                   7.1616(14)
_cell_length_b                   22.672(5)
_cell_length_c                   9.7384(19)
_cell_angle_alpha                90
_cell_angle_beta                 104.99(3)
_cell_angle_gamma                90
_cell_volume                     1527.4
loop_
_atom_site_label
_atom_site_type_symbol
_atom_site_fract_x
_atom_site_fract_y
_atom_site_fract_z
Cd1 Cd 0.28229(2) 0.446312(8) 0.472786(19)
S1 S 0.46896(9) 0.34458(3) -0.26693(6)
O1 O 0.1339(3) 0.52565(10) 0.3368(3)
O2 O 0.5364(3) 0.46483(11) 0.3814(2)
O3 O 0.7469(3) 0.51998(8) 0.3097(2)
O4 O 1.1778(3) 0.13900(10) -0.1550(3)
O5 O 0.9739(3) 0.09697(9) -0.0495(2)
O6 O 0.5272(3) 0.38229(8) -0.3703(2)
O7 O 0.2731(3) 0.32338(9) -0.2997(2)
C1 C 0.3960(4) 0.37467(13) -0.0136(3)
H1 H 0.2910 0.3491 -0.0393
C2 C 0.4342(4) 0.40506(13) 0.1145(3)
H2 H 0.3544 0.3996 0.1751
C3 C 0.5893(4) 0.44329(10) 0.1532(3)
C4 C 0.7115(5) 0.45095(12) 0.0625(4)
H3 H 0.8167 0.4764 0.0883
C5 C 0.6753(4) 0.42063(14) -0.0658(3)
H4 H 0.7562 0.4255 -0.1258
C6 C 0.5179(4) 0.38311(11) -0.1034(3)
C7 C 0.6306(4) 0.28337(11) -0.2323(3)
C8 C 0.8104(4) 0.28737(12) -0.2608(3)
H5 H 0.8467 0.3213 -0.3011
C9 C 0.9346(4) 0.23948(13) -0.2277(4)
H6 H 1.0542 0.2407 -0.2486
C10 C 0.8812(4) 0.18942(11) -0.1633(3)
C11 C 0.7003(4) 0.18673(12) -0.1344(3)
H7 H 0.6653 0.1534 -0.0911
C12 C 0.5719(4) 0.23403(12) -0.1704(3)
H8 H 0.4501 0.2325 -0.1532
C13 C 0.6270(4) 0.47770(11) 0.2900(3)
C14 C 1.0194(4) 0.13843(11) -0.1204(3)
H9 H 0.177(6) 0.5504(19) 0.401(4)
H10 H 0.0121(16) 0.5235(17) 0.322(4)
Cd1B Cd 0.71771(2) 0.553688(8) 0.527214(19)
Cd1C Cd 1.28229(2) 0.053688(8) -0.027214(19)
Cd1_2 Cd 0.28229(2) 0.446312(8) -0.527214(19)
O2B O 0.4636(3) 0.53517(11) 0.6186(2)
O3B O 0.2531(3) 0.48002(8) 0.6903(2)
O4C O 0.1778(3) 0.36100(10) 0.3450(3)
O5C O -0.0261(3) 0.40303(9) 0.4505(2)
O6_2 O 0.5272(3) 0.38229(8) 0.6297(2)
loop_
_geom_bond_atom_site_label_1
_geom_bond_atom_site_label_2
_geom_bond_site_symmetry_1
_geom_bond_site_symmetry_2
Cd1 O1 1_555 1_555
S1 O6 1_555 1_555
O1 H9 1_555 1_555
O2 Cd1 1_555 1_555
O3 C13 1_555 1_555
O4 C14 1_555 1_555
O5 C14 1_555 1_555
O6 Cd1_2 1_555 1_555
O7 S1 1_555 1_555
C1 H1 1_555 1_555
C2 C1 1_555 1_555
H2 C2 1_555 1_555
C3 C2 1_555 1_555
C4 C3 1_555 1_555
H3 C4 1_555 1_555
C5 C4 1_555 1_555
H4 C5 1_555 1_555
C6 S1 1_555 1_555
C7 S1 1_555 1_555
C8 C7 1_555 1_555
H5 C8 1_555 1_555
C9 C8 1_555 1_555
H6 C9 1_555 1_555
C10 C9 1_555 1_555
C11 C10 1_555 1_555
H7 C11 1_555 1_555
C12 C7 1_555 1_555
H8 C12 1_555 1_555
C13 O2 1_555 1_555
C14 C10 1_555 1_555
H10 O1 1_555 1_555
Cd1B O2 1_555 1_555
Cd1C O4 1_555 1_555
O2B Cd1 1_555 1_555
O3B Cd1 1_555 1_555
O4C Cd1 1_555 1_555
O5C Cd1 1_555 1_555
O6_2 Cd1 1_555 1_555
O3 Cd1B 1_555 1_555
O5 Cd1C 1_555 1_555
C1 C6 1_555 1_555
C3 C13 1_555 1_555
C5 C6 1_555 1_555
C11 C12 1_555 1_555
Cd1B O2B 1_555 1_555

#END
