
#######################################################################
#
#                 Cambridge Crystallographic Data Centre
#                                CCDC 
#
#######################################################################
#
# If this CIF has been generated from an entry in the Cambridge 
# Structural Database, then it will include bibliographic, chemical, 
# crystal, experimental, refinement or atomic coordinate data resulting 
# from the CCDC's data processing and validation procedures.
#
#######################################################################

data_UTUPEF
_symmetry_cell_setting           monoclinic
_symmetry_space_group_name_H-M   'P 21/a'
_symmetry_Int_Tables_number      14
_space_group_name_Hall           '-P 2yab'
loop_
_symmetry_equiv_pos_site_id
_symmetry_equiv_pos_as_xyz
1 x,y,z
2 1/2-x,1/2+y,-z
3 -x,-y,-z
4 1/2+x,1/2-y,z
_cell_length_a                   7.2810(5)
_cell_length_b                   6.6002(4)
_cell_length_c                   14.6587(9)
_cell_angle_alpha                90
_cell_angle_beta                 99.973(3)
_cell_angle_gamma                90
_cell_volume                     693.795
loop_
_atom_site_label
_atom_site_type_symbol
_atom_site_fract_x
_atom_site_fract_y
_atom_site_fract_z
Mg1 Mg 0.5000 0.0000 0.0000
F1 F 1.16732(13) 0.31433(13) 0.49190(5)
O1 O 0.71138(12) 0.09651(11) 0.10079(6)
O2 O 0.79068(12) 0.41384(12) 0.07295(6)
O3 O 0.51367(15) -0.28138(13) 0.06608(6)
C1 C 0.89488(18) 0.27561(18) 0.22340(8)
C2 C 0.93410(19) 0.10109(19) 0.27640(9)
H1 H 0.8964 -0.0273 0.2504
C3 C 1.02806(19) 0.1134(2) 0.36722(9)
H2 H 1.0577 -0.0050 0.4036
C4 C 1.0764(2) 0.3014(2) 0.40242(9)
C5 C 1.0399(2) 0.4774(2) 0.35272(9)
H3 H 1.0756 0.6052 0.3800
C6 C 0.94932(19) 0.4634(2) 0.26167(9)
H4 H 0.9244 0.5826 0.2253
C7 C 0.79199(17) 0.25921(18) 0.12598(8)
H5 H 0.419(3) -0.353(3) 0.0455(13)
H6 H 0.605(2) -0.366(2) 0.0722(10)
Mg1A Mg 0.0000 -0.5000 0.0000
Mg1A_2 Mg 1.0000 0.5000 0.0000
F1B F -0.16732(13) -0.31433(13) -0.49190(5)
O1B O 0.28862(12) -0.09651(11) -0.10079(6)
O2B O 0.20932(12) -0.41384(12) -0.07295(6)
O2A O 0.70932(12) -0.08616(12) -0.07295(6)
O2C O 0.29068(12) 0.08616(12) 0.07295(6)
O3B O 0.48633(15) 0.28138(13) -0.06608(6)
C1B C 0.10512(18) -0.27561(18) -0.22340(8)
C2B C 0.06590(19) -0.10109(19) -0.27640(9)
H1B H 0.1036 0.0273 -0.2504
C3B C -0.02806(19) -0.1134(2) -0.36722(9)
H2B H -0.0577 0.0050 -0.4036
C4B C -0.0764(2) -0.3014(2) -0.40242(9)
C5B C -0.0399(2) -0.4774(2) -0.35272(9)
H3B H -0.0756 -0.6052 -0.3800
C6B C 0.05068(19) -0.4634(2) -0.26167(9)
H4B H 0.0756 -0.5826 -0.2253
C7B C 0.20801(17) -0.25921(18) -0.12598(8)
H5B H 0.581(3) 0.353(3) -0.0455(13)
H6B H 0.395(2) 0.366(2) -0.0722(10)
loop_
_geom_bond_atom_site_label_1
_geom_bond_atom_site_label_2
_geom_bond_site_symmetry_1
_geom_bond_site_symmetry_2
Mg1 O1 1_555 1_555
F1 C4 1_555 1_555
O1 C7 1_555 1_555
O2 C7 1_555 1_555
O3 Mg1 1_555 1_555
C1 C2 1_555 1_555
C2 H1 1_555 1_555
C3 C2 1_555 1_555
H2 C3 1_555 1_555
C4 C3 1_555 1_555
C5 C4 1_555 1_555
H3 C5 1_555 1_555
C6 C1 1_555 1_555
H4 C6 1_555 1_555
C7 C1 1_555 1_555
H5 O3 1_555 1_555
H6 O3 1_555 1_555
Mg1A O2B 1_555 1_555
Mg1A_2 O2 1_555 1_555
F1B C4B 1_555 1_555
O1B Mg1 1_555 1_555
O2B C7B 1_555 1_555
O2A Mg1 1_555 1_555
O2C Mg1 1_555 1_555
O3B Mg1 1_555 1_555
C1B C2B 1_555 1_555
C2B H1B 1_555 1_555
C3B C2B 1_555 1_555
H2B C3B 1_555 1_555
C4B C3B 1_555 1_555
C5B C4B 1_555 1_555
H3B C5B 1_555 1_555
C6B C1B 1_555 1_555
H4B C6B 1_555 1_555
C7B O1B 1_555 1_555
H5B O3B 1_555 1_555
H6B O3B 1_555 1_555
C5 C6 1_555 1_555
C1B C7B 1_555 1_555
C5B C6B 1_555 1_555

#END
