
#######################################################################
#
#                 Cambridge Crystallographic Data Centre
#                                CCDC 
#
#######################################################################
#
# If this CIF has been generated from an entry in the Cambridge 
# Structural Database, then it will include bibliographic, chemical, 
# crystal, experimental, refinement or atomic coordinate data resulting 
# from the CCDC's data processing and validation procedures.
#
#######################################################################

data_UTUPUV
_symmetry_cell_setting           monoclinic
_symmetry_space_group_name_H-M   'C 2/c'
_symmetry_Int_Tables_number      15
_space_group_name_Hall           '-C 2yn'
loop_
_symmetry_equiv_pos_site_id
_symmetry_equiv_pos_as_xyz
1 x,y,z
2 -x,y,1/2-z
3 1/2+x,1/2+y,z
4 1/2-x,1/2+y,1/2-z
5 -x,-y,-z
6 x,-y,1/2+z
7 1/2-x,1/2-y,-z
8 1/2+x,1/2-y,1/2+z
_cell_length_a                   39.8060(18)
_cell_length_b                   10.3870(5)
_cell_length_c                   8.8480(4)
_cell_angle_alpha                90
_cell_angle_beta                 91.039(2)
_cell_angle_gamma                90
_cell_volume                     3657.74
loop_
_atom_site_label
_atom_site_type_symbol
_atom_site_fract_x
_atom_site_fract_y
_atom_site_fract_z
Mg1 Mg 0.20061(3) 0.08769(11) -0.01047(12)
Cl1 Cl 0.03417(2) 0.42383(11) -0.13835(13)
Cl2 Cl 0.01476(3) 0.19271(12) 0.46432(13)
O1 O 0.24239(6) 0.0542(2) -0.1359(3)
H1 H 0.2415(10) 0.007(4) -0.195(4)
H2 H 0.2638(9) 0.043(3) -0.081(4)
O2 O 0.16395(5) 0.1269(2) 0.1397(2)
O3 O 0.19835(5) 0.2713(2) -0.1003(2)
O4 O 0.16973(5) -0.0225(2) 0.3195(2)
O5 O 0.19911(6) 0.4709(2) -0.0101(3)
C1 C 0.18365(9) 0.3757(4) -0.0631(4)
C2 C 0.11911(8) 0.0993(3) 0.3075(3)
C3 C 0.10044(9) 0.1971(3) 0.2393(4)
H3 H 0.1100 0.2457 0.1600
C4 C 0.09375(9) 0.3086(4) -0.1875(4)
H4 H 0.0814 0.2482 -0.2472
C5 C 0.10477(8) 0.0301(4) 0.4253(4)
H5 H 0.1173 -0.0365 0.4737
C6 C 0.05479(9) 0.1555(4) 0.4025(4)
C7 C 0.15346(8) 0.0657(3) 0.2529(3)
C8 C 0.12831(8) 0.2974(3) -0.1705(4)
H6 H 0.1397 0.2288 -0.2185
C9 C 0.07250(9) 0.0574(4) 0.4726(4)
H7 H 0.0628 0.0093 0.5519
C10 C 0.14640(8) 0.3861(3) -0.0835(4)
C11 C 0.12930(9) 0.4844(4) -0.0120(4)
H8 H 0.1414 0.5447 0.0485
C12 C 0.09466(9) 0.4956(4) -0.0278(4)
H9 H 0.0831 0.5628 0.0222
C13 C 0.07733(8) 0.4089(4) -0.1163(4)
C14 C 0.06814(9) 0.2249(4) 0.2850(4)
H10 H 0.0554 0.2907 0.2362
O6 O 0.23586(6) 0.1526(3) 0.1585(3)
H11 H 0.2550(9) 0.175(4) 0.140(4)
H12 H 0.2277(9) 0.206(4) 0.215(4)
O7 O 0.20408(7) -0.1031(3) 0.0680(3)
H13 H 0.1942(9) -0.111(4) 0.151(4)
H14 H 0.2042(10) -0.161(4) 0.020(5)
Mg1E Mg 0.20061(3) -0.08769(11) 0.48953(12)
O4E O 0.16973(5) 0.0225(2) -0.1805(2)
O8 O 0.27453(12) 0.7965(5) 0.0931(5)
H15 H 0.2540(17) 0.825(7) 0.086(7)
H16 H 0.2947(10) 0.851(4) 0.107(4)
H17? H 0.3263(18) 0.794(7) 0.189(8)
O9? O 0.30656(13) 0.7986(5) 0.1391(6)
loop_
_geom_bond_atom_site_label_1
_geom_bond_atom_site_label_2
_geom_bond_site_symmetry_1
_geom_bond_site_symmetry_2
Mg1 O1 1_555 1_555
Cl1 C13 1_555 1_555
Cl2 C6 1_555 1_555
O1 H1 1_555 1_555
H2 O1 1_555 1_555
O2 Mg1 1_555 1_555
O3 Mg1 1_555 1_555
O4 C7 1_555 1_555
O5 C1 1_555 1_555
C1 O3 1_555 1_555
C2 C3 1_555 1_555
C3 H3 1_555 1_555
C4 H4 1_555 1_555
C5 C2 1_555 1_555
H5 C5 1_555 1_555
C6 C9 1_555 1_555
C7 O2 1_555 1_555
C8 C4 1_555 1_555
H6 C8 1_555 1_555
C9 C5 1_555 1_555
H7 C9 1_555 1_555
C10 C1 1_555 1_555
C11 C10 1_555 1_555
H8 C11 1_555 1_555
C12 C11 1_555 1_555
H9 C12 1_555 1_555
C13 C4 1_555 1_555
C14 C3 1_555 1_555
H10 C14 1_555 1_555
O6 Mg1 1_555 1_555
H11 O6 1_555 1_555
H12 O6 1_555 1_555
O7 Mg1 1_555 1_555
H13 O7 1_555 1_555
H14 O7 1_555 1_555
O8 H15 1_555 1_555
H16 O8 1_555 1_555
Mg1E O4 1_555 1_555
O4E Mg1 1_555 1_555
C2 C7 1_555 1_555
C6 C14 1_555 1_555
C8 C10 1_555 1_555
C12 C13 1_555 1_555

#END
