
#######################################################################
#
#                 Cambridge Crystallographic Data Centre
#                                CCDC 
#
#######################################################################
#
# If this CIF has been generated from an entry in the Cambridge 
# Structural Database, then it will include bibliographic, chemical, 
# crystal, experimental, refinement or atomic coordinate data resulting 
# from the CCDC's data processing and validation procedures.
#
#######################################################################

data_UTUPOP
_symmetry_cell_setting           monoclinic
_symmetry_space_group_name_H-M   'P 21/a'
_symmetry_Int_Tables_number      14
_space_group_name_Hall           '-P 2yab'
loop_
_symmetry_equiv_pos_site_id
_symmetry_equiv_pos_as_xyz
1 x,y,z
2 1/2-x,1/2+y,-z
3 -x,-y,-z
4 1/2+x,1/2-y,z
_cell_length_a                   10.3942(5)
_cell_length_b                   7.7929(5)
_cell_length_c                   16.1632(10)
_cell_angle_alpha                90
_cell_angle_beta                 103.679(4)
_cell_angle_gamma                90
_cell_volume                     1272.1
loop_
_atom_site_label
_atom_site_type_symbol
_atom_site_fract_x
_atom_site_fract_y
_atom_site_fract_z
Ba1 Ba 0.21114(2) 0.46947(3) 0.027727(15)
F1 F -0.1292(3) 0.6206(5) -0.50534(16)
F2 F 0.4395(3) 0.4120(5) -0.43892(17)
O1 O 0.1637(3) 0.6973(4) -0.11876(18)
O2 O -0.0119(3) 0.5454(4) -0.1058(2)
O3 O 0.3554(2) 0.3070(4) -0.07104(17)
O4 O 0.5771(3) 0.3200(4) -0.03894(18)
C1 C 0.0011(4) 0.6312(6) -0.2447(3)
C2 C -0.1175(5) 0.5483(6) -0.2838(3)
H1 H -0.1677 0.4935 -0.2493
C3 C -0.1632(5) 0.5448(6) -0.3717(3)
H2 H -0.2437 0.4891 -0.3980
C4 C -0.0869(5) 0.6253(7) -0.4194(3)
C5 C 0.0311(4) 0.7049(7) -0.3849(3)
H3 H 0.0817 0.7560 -0.4202
C6 C 0.0747(4) 0.7089(6) -0.2965(3)
H4 H 0.1556 0.7650 -0.2711
C7 C 0.0534(4) 0.6274(6) -0.1500(3)
C8 C 0.4623(4) 0.3638(6) -0.1825(3)
C9 C 0.3513(4) 0.4398(6) -0.2363(3)
H5 H 0.2800 0.4782 -0.2136
C10 C 0.3451(5) 0.4593(6) -0.3225(3)
H6 H 0.2714 0.5141 -0.3589
C11 C 0.4473(5) 0.3979(7) -0.3538(3)
C12 C 0.5598(4) 0.3249(7) -0.3032(3)
H7 H 0.6303 0.2867 -0.3268
C13 C 0.5665(4) 0.3090(6) -0.2167(3)
H8 H 0.6431 0.2602 -0.1803
C14 C 0.4653(4) 0.3287(6) -0.0908(3)
Ba1A Ba 0.28886(2) 0.96947(3) -0.027727(15)
Ba1B Ba -0.21114(2) 0.53053(3) -0.027727(15)
Ba1A_2 Ba 0.28886(2) -0.03053(3) -0.027727(15)
Ba1B_2 Ba 0.78886(2) 0.53053(3) -0.027727(15)
Ba1C Ba 0.71114(2) 0.03053(3) 0.027727(15)
O1A O 0.3363(3) 0.1973(4) 0.11876(18)
O2B O 0.0119(3) 0.4546(4) 0.1058(2)
O3A O 0.1446(2) 0.8070(4) 0.07104(17)
O4B O 0.4229(3) 0.6800(4) 0.03894(18)
O4C O 0.0771(3) 0.1800(4) -0.03894(18)
loop_
_geom_bond_atom_site_label_1
_geom_bond_atom_site_label_2
_geom_bond_site_symmetry_1
_geom_bond_site_symmetry_2
Ba1 O1 1_555 1_555
F1 C4 1_555 1_555
F2 C11 1_555 1_555
O1 C7 1_555 1_555
O2 Ba1 1_555 1_555
O3 Ba1 1_555 1_555
O4 C14 1_555 1_555
C1 C2 1_555 1_555
C2 H1 1_555 1_555
C3 C2 1_555 1_555
H2 C3 1_555 1_555
C4 C3 1_555 1_555
C5 C4 1_555 1_555
H3 C5 1_555 1_555
C6 C1 1_555 1_555
H4 C6 1_555 1_555
C7 O2 1_555 1_555
C8 C9 1_555 1_555
C9 H5 1_555 1_555
C10 C9 1_555 1_555
H6 C10 1_555 1_555
C11 C10 1_555 1_555
C12 C11 1_555 1_555
H7 C12 1_555 1_555
C13 C8 1_555 1_555
H8 C13 1_555 1_555
C14 O3 1_555 1_555
Ba1A O1 1_555 1_555
Ba1B O2 1_555 1_555
Ba1A_2 O3 1_555 1_555
Ba1B_2 O4 1_555 1_555
Ba1C O4 1_555 1_555
O1A Ba1 1_555 1_555
O2B Ba1 1_555 1_555
O3A Ba1 1_555 1_555
O4B Ba1 1_555 1_555
O4C Ba1 1_555 1_555
C1 C7 1_555 1_555
C5 C6 1_555 1_555
C8 C14 1_555 1_555
C12 C13 1_555 1_555
Ba1A O3A 1_555 1_555
Ba1A O4B 1_555 1_555
Ba1B O2B 1_555 1_555
Ba1A_2 O1A 1_555 1_555
Ba1A_2 O4C 1_555 1_555

#END
