
#######################################################################
#
#                 Cambridge Crystallographic Data Centre
#                                CCDC 
#
#######################################################################
#
# If this CIF has been generated from an entry in the Cambridge 
# Structural Database, then it will include bibliographic, chemical, 
# crystal, experimental, refinement or atomic coordinate data resulting 
# from the CCDC's data processing and validation procedures.
#
#######################################################################

data_UTUQAC
_symmetry_cell_setting           monoclinic
_symmetry_space_group_name_H-M   'P 21/a'
_symmetry_Int_Tables_number      14
_space_group_name_Hall           '-P 2yab'
loop_
_symmetry_equiv_pos_site_id
_symmetry_equiv_pos_as_xyz
1 x,y,z
2 1/2-x,1/2+y,-z
3 -x,-y,-z
4 1/2+x,1/2-y,z
_cell_length_a                   6.5797(9)
_cell_length_b                   34.867(5)
_cell_length_c                   7.1797(11)
_cell_angle_alpha                90
_cell_angle_beta                 93.184(5)
_cell_angle_gamma                90
_cell_volume                     1644.58
loop_
_atom_site_label
_atom_site_type_symbol
_atom_site_fract_x
_atom_site_fract_y
_atom_site_fract_z
Ca1 Ca 0.27975(14) 0.22777(2) 0.75933(15)
Cl1 Cl 0.7871(2) 0.01949(3) 0.6328(2)
O1 O 0.6155(5) 0.20844(9) 0.7102(5)
O2 O 0.9452(5) 0.20999(9) 0.6696(5)
O3 O 0.2744(5) 0.17306(9) 0.9599(5)
H1 H 0.3632 0.1672 1.0526
H2 H 0.1209 0.1699 0.9864
O5 O 0.2794(6) 0.20355(11) 0.4457(6)
H3 H 0.1802 0.1984 0.3644
H4 H 0.3780 0.2092 0.3970
O7 O 0.5250(5) 0.25130(8) 1.0130(5)
H5 H 0.5579 0.2318 1.0974
H6 H 0.4945 0.2699 1.0750
C1 C 0.7849(7) 0.14845(12) 0.6719(7)
C2 C 0.6090(8) 0.12762(13) 0.7031(7)
H7 H 0.4877 0.1408 0.7303
C3 C 0.6099(8) 0.08781(13) 0.6946(7)
H8 H 0.4908 0.0736 0.7182
C4 C 0.7885(8) 0.06899(13) 0.6508(7)
C5 C 0.9646(8) 0.08919(13) 0.6218(8)
H9 H 1.0860 0.0760 0.5956
C6 C 0.9624(8) 0.12892(13) 0.6315(7)
H10 H 1.0828 0.1430 0.6105
C7 C 0.7820(7) 0.19140(12) 0.6829(7)
Ca1C Ca 0.77975(14) 0.27223(2) 0.75933(15)
Ca1_2 Ca 1.27975(14) 0.22777(2) 0.75933(15)
O1C O 0.1155(5) 0.29156(9) 0.7102(5)
O2_2 O -0.0548(5) 0.20999(9) 0.6696(5)
O2C O 0.4452(5) 0.29001(9) 0.6696(5)
O7C O 0.0250(5) 0.24870(8) 1.0130(5)
H5C H 0.0579 0.2682 1.0974
H6C H -0.0055 0.2301 1.0750
Cl2 Cl 0.7131(2) -0.00699(3) 0.1476(2)
O4 O 0.9451(5) 0.18063(9) 0.1798(5)
O6 O 0.6089(5) 0.18421(9) 0.2029(5)
C8 C 0.7561(8) 0.12224(13) 0.1815(8)
C9 C 0.5752(7) 0.10346(13) 0.2165(7)
H11 H 0.4600 0.1181 0.2475
C10 C 0.5603(8) 0.06373(13) 0.2068(8)
H12 H 0.4370 0.0511 0.2325
C11 C 0.7297(8) 0.04283(13) 0.1586(8)
C12 C 0.9093(8) 0.06060(13) 0.1238(8)
H13 H 1.0239 0.0458 0.0927
C13 C 0.9234(8) 0.10019(13) 0.1339(7)
H14 H 1.0477 0.1125 0.1084
C14 C 0.7715(8) 0.16513(13) 0.1895(7)
loop_
_geom_bond_atom_site_label_1
_geom_bond_atom_site_label_2
_geom_bond_site_symmetry_1
_geom_bond_site_symmetry_2
Ca1 O1 1_555 1_555
Cl1 C4 1_555 1_555
Cl2 C11 1_555 1_555
O1 C7 1_555 1_555
O2 C7 1_555 1_555
O3 Ca1 1_555 1_555
H1 O3 1_555 1_555
H2 O3 1_555 1_555
O4 C14 1_555 1_555
O5 Ca1 1_555 1_555
H3 O5 1_555 1_555
H4 O5 1_555 1_555
O6 C14 1_555 1_555
O7 Ca1 1_555 1_555
H5 O7 1_555 1_555
H6 O7 1_555 1_555
C1 C2 1_555 1_555
C2 H7 1_555 1_555
C3 C2 1_555 1_555
H8 C3 1_555 1_555
C4 C3 1_555 1_555
C5 C4 1_555 1_555
H9 C5 1_555 1_555
C6 C1 1_555 1_555
H10 C6 1_555 1_555
C7 C1 1_555 1_555
C8 C9 1_555 1_555
C9 H11 1_555 1_555
C10 C9 1_555 1_555
H12 C10 1_555 1_555
C11 C10 1_555 1_555
C12 C11 1_555 1_555
H13 C12 1_555 1_555
C13 C8 1_555 1_555
H14 C13 1_555 1_555
C14 C8 1_555 1_555
Ca1C O1 1_555 1_555
Ca1_2 O2 1_555 1_555
O1C Ca1 1_555 1_555
O2_2 Ca1 1_555 1_555
O2C Ca1 1_555 1_555
O7C Ca1 1_555 1_555
H5C O7C 1_555 1_555
H6C O7C 1_555 1_555
O2 Ca1C 1_555 1_555
O7 Ca1C 1_555 1_555
C5 C6 1_555 1_555
C12 C13 1_555 1_555
Ca1C O2C 1_555 1_555

#END
