
#######################################################################
#
#                 Cambridge Crystallographic Data Centre
#                                CCDC 
#
#######################################################################
#
# If this CIF has been generated from an entry in the Cambridge 
# Structural Database, then it will include bibliographic, chemical, 
# crystal, experimental, refinement or atomic coordinate data resulting 
# from the CCDC's data processing and validation procedures.
#
#######################################################################

data_UTUQIK
_symmetry_cell_setting           triclinic
_symmetry_space_group_name_H-M   'P -1'
_symmetry_Int_Tables_number      2
_space_group_name_Hall           '-P 1'
loop_
_symmetry_equiv_pos_site_id
_symmetry_equiv_pos_as_xyz
1 x,y,z
2 -x,-y,-z
_cell_length_a                   7.0487(5)
_cell_length_b                   7.6124(5)
_cell_length_c                   17.3085(14)
_cell_angle_alpha                80.425(6)
_cell_angle_beta                 89.215(6)
_cell_angle_gamma                82.281(6)
_cell_volume                     907.459
loop_
_atom_site_label
_atom_site_type_symbol
_atom_site_fract_x
_atom_site_fract_y
_atom_site_fract_z
Ba1 Ba 0.74920(7) 0.01114(6) 0.449645(17)
Cl2 Cl 0.7626(2) -0.1099(2) 0.99449(9)
O3 O 0.6032(7) -0.0736(6) 0.6094(3)
O4 O 0.8948(7) -0.0018(6) 0.6067(3)
O5 O 0.4869(6) 0.2770(6) 0.5053(3)
H1 H 0.414(7) 0.360(5) 0.477(3)
H2 H 0.563(7) 0.333(6) 0.526(3)
O6 O 0.7616(8) -0.2227(6) 0.3385(3)
H3 H 0.841(8) -0.319(6) 0.331(4)
H4 H 0.703(8) -0.272(8) 0.380(3)
O7 O 1.0287(7) -0.2854(6) 0.5099(3)
H5 H 1.023(10) -0.360(6) 0.478(3)
H6 H 1.004(10) -0.352(7) 0.5540(18)
O8 O 0.7394(8) 0.3130(6) 0.3335(3)
H7 H 0.836(6) 0.376(8) 0.338(4)
H8 H 0.652(7) 0.391(7) 0.353(4)
C8 C 0.7538(15) -0.0521(11) 0.6436(3)
C9 C 0.7553(11) -0.0631(8) 0.7306(3)
C10 C 0.9157(9) -0.0370(7) 0.7700(4)
H13 H 1.0264 -0.0095 0.7410
C11 C 0.9189(9) -0.0500(8) 0.8513(4)
H14 H 1.0282 -0.0268 0.8774
C12 C 0.7592(10) -0.0976(7) 0.8933(3)
C13 C 0.5959(9) -0.1234(8) 0.8555(4)
H15 H 0.4854 -0.1516 0.8845
C14 C 0.5968(9) -0.1074(8) 0.7744(4)
H16 H 0.4860 -0.1272 0.7482
Ba1A Ba 0.25080(7) -0.01114(6) 0.550355(17)
Ba1A_2 Ba 1.25080(7) -0.01114(6) 0.550355(17)
O3A O 0.3968(7) 0.0736(6) 0.3906(3)
O4A O 1.1052(7) 0.0018(6) 0.3933(3)
O5A O 0.5131(6) -0.2770(6) 0.4947(3)
H1A H 0.586(7) -0.360(5) 0.523(3)
H2A H 0.437(7) -0.333(6) 0.474(3)
O7A O 0.9713(7) 0.2854(6) 0.4901(3)
H5A H 0.977(10) 0.360(6) 0.522(3)
H6A H 0.996(10) 0.352(7) 0.4460(18)
Cl1 Cl 0.7486(3) -0.6211(2) 1.01099(9)
O1 O 0.8964(8) -0.5460(6) 0.6245(3)
O2 O 0.5779(8) -0.5549(6) 0.6284(3)
C1 C 0.7373(13) -0.5572(9) 0.6610(3)
C2 C 0.7428(10) -0.5746(7) 0.7493(3)
C3 C 0.9011(10) -0.5394(8) 0.7883(4)
H9 H 1.0092 -0.5053 0.7590
C4 C 0.9039(9) -0.5528(8) 0.8673(4)
H10 H 1.0115 -0.5265 0.8936
C5 C 0.7467(9) -0.6055(7) 0.9085(3)
C6 C 0.5867(9) -0.6415(8) 0.8732(4)
H11 H 0.4794 -0.6753 0.9031
C7 C 0.5872(9) -0.6269(7) 0.7922(4)
H12 H 0.4794 -0.6532 0.7661
loop_
_geom_bond_atom_site_label_1
_geom_bond_atom_site_label_2
_geom_bond_site_symmetry_1
_geom_bond_site_symmetry_2
Ba1 O3 1_555 1_555
Cl1 C5 1_555 1_555
Cl2 C12 1_555 1_555
O1 C1 1_555 1_555
O2 C1 1_555 1_555
O3 C8 1_555 1_555
O4 Ba1 1_555 1_555
O5 Ba1 1_555 1_555
H1 O5 1_555 1_555
H2 O5 1_555 1_555
O6 Ba1 1_555 1_555
H3 O6 1_555 1_555
H4 O6 1_555 1_555
O7 Ba1 1_555 1_555
H5 O7 1_555 1_555
H6 O7 1_555 1_555
O8 Ba1 1_555 1_555
H7 O8 1_555 1_555
H8 O8 1_555 1_555
C1 C2 1_555 1_555
C2 C3 1_555 1_555
C3 H9 1_555 1_555
C4 C3 1_555 1_555
H10 C4 1_555 1_555
C5 C4 1_555 1_555
C6 C5 1_555 1_555
H11 C6 1_555 1_555
C7 C2 1_555 1_555
H12 C7 1_555 1_555
C8 O4 1_555 1_555
C9 C8 1_555 1_555
C10 C9 1_555 1_555
H13 C10 1_555 1_555
C11 C10 1_555 1_555
H14 C11 1_555 1_555
C12 C11 1_555 1_555
C13 C12 1_555 1_555
H15 C13 1_555 1_555
C14 C9 1_555 1_555
H16 C14 1_555 1_555
Ba1A O3 1_555 1_555
Ba1A_2 O4 1_555 1_555
O3A Ba1 1_555 1_555
O4A Ba1 1_555 1_555
O5A Ba1 1_555 1_555
H1A O5A 1_555 1_555
H2A O5A 1_555 1_555
O7A Ba1 1_555 1_555
H5A O7A 1_555 1_555
H6A O7A 1_555 1_555
O5 Ba1A 1_555 1_555
O7 Ba1A_2 1_555 1_555
C6 C7 1_555 1_555
C13 C14 1_555 1_555
Ba1A O3A 1_555 1_555
Ba1A O5A 1_555 1_555
Ba1A_2 O4A 1_555 1_555
Ba1A_2 O7A 1_555 1_555

#END
