
#######################################################################
#
#                 Cambridge Crystallographic Data Centre
#                                CCDC 
#
#######################################################################
#
# If this CIF has been generated from an entry in the Cambridge 
# Structural Database, then it will include bibliographic, chemical, 
# crystal, experimental, refinement or atomic coordinate data resulting 
# from the CCDC's data processing and validation procedures.
#
#######################################################################

data_UTUQEG
_symmetry_cell_setting           triclinic
_symmetry_space_group_name_H-M   'P -1'
_symmetry_Int_Tables_number      2
_space_group_name_Hall           '-P 1'
loop_
_symmetry_equiv_pos_site_id
_symmetry_equiv_pos_as_xyz
1 x,y,z
2 -x,-y,-z
_cell_length_a                   6.7800(2)
_cell_length_b                   7.5071(2)
_cell_length_c                   17.5087(5)
_cell_angle_alpha                81.9304(14)
_cell_angle_beta                 89.7850(15)
_cell_angle_gamma                83.9229(16)
_cell_volume                     877.322
loop_
_atom_site_label
_atom_site_type_symbol
_atom_site_fract_x
_atom_site_fract_y
_atom_site_fract_z
O1 O 0.9069(5) 0.0014(5) 0.6000(2)
O2 O 0.5990(5) -0.0677(5) 0.6015(2)
O3 O 0.7457(6) -0.2045(5) 0.3472(2)
O4 O 0.5046(6) 0.2705(5) 0.5045(2)
O5 O 0.9982(6) -0.2760(5) 0.5054(2)
O6 O 0.7487(6) 0.2968(5) 0.3454(2)
C1 C 0.7545(7) -0.0434(6) 0.6360(3)
Sr1 Sr 0.74844(6) 0.01273(6) 0.45307(2)
Cl1 Cl 0.7593(2) -0.1158(2) 0.98228(8)
C3 C 0.9281(8) -0.0558(8) 0.8425(3)
H1 H 1.0439 -0.0383 0.8696
C5 C 0.5897(8) -0.1269(8) 0.8440(3)
H3 H 0.4756 -0.1581 0.8724
C7 C 0.7571(7) -0.0645(6) 0.7225(3)
C11 C 0.7598(8) -0.0981(8) 0.8818(3)
C12 C 0.9266(7) -0.0390(7) 0.7626(3)
H7 H 1.0424 -0.0098 0.7349
C13 C 0.5885(7) -0.1093(7) 0.7641(3)
H8 H 0.4723 -0.1278 0.7374
H9 H 0.827(12) -0.313(11) 0.349(4)
H10 H 0.453(10) 0.340(9) 0.474(4)
H11 H 1.034(12) -0.342(11) 0.475(5)
H12 H 0.962(13) -0.352(12) 0.539(5)
H13 H 0.651(14) -0.254(12) 0.348(5)
H14 H 0.649(17) 0.385(15) 0.351(6)
H15 H 0.850(17) 0.350(14) 0.347(6)
H16 H 0.547(14) 0.333(13) 0.537(6)
O1A O 1.0931(5) -0.0014(5) 0.4000(2)
O2A O 0.4010(5) 0.0677(5) 0.3985(2)
O4A O 0.4954(6) -0.2705(5) 0.4955(2)
O5A O 1.0018(6) 0.2760(5) 0.4946(2)
Sr1A Sr 1.25156(6) -0.01273(6) 0.54693(2)
Sr1A_2 Sr 0.25156(6) -0.01273(6) 0.54693(2)
H10A H 0.547(10) -0.340(9) 0.526(4)
H11A H 0.966(12) 0.342(11) 0.525(5)
H12A H 1.038(13) 0.352(12) 0.461(5)
H16A H 0.453(14) -0.333(13) 0.463(6)
Cl2 Cl 0.7401(2) -0.6350(2) 1.00942(8)
O7 O 0.5867(5) -0.5498(5) 0.6280(2)
O8 O 0.9143(5) -0.5327(5) 0.6295(2)
C2 C 0.7492(7) -0.5750(6) 0.7498(3)
C4 C 0.5771(8) -0.6426(8) 0.8700(3)
H2 H 0.4620 -0.6763 0.8971
C6 C 0.7452(9) -0.6134(7) 0.9094(3)
C8 C 0.9155(8) -0.5474(7) 0.7913(3)
H4 H 1.0315 -0.5151 0.7645
C9 C 0.5815(8) -0.6215(7) 0.7904(3)
H5 H 0.4667 -0.6392 0.7626
C10 C 0.9142(8) -0.5664(8) 0.8712(3)
H6 H 1.0281 -0.5474 0.8992
C14 C 0.7495(7) -0.5511(6) 0.6631(3)
loop_
_geom_bond_atom_site_label_1
_geom_bond_atom_site_label_2
_geom_bond_site_symmetry_1
_geom_bond_site_symmetry_2
O1 C1 1_555 1_555
O2 C1 1_555 1_555
O3 Sr1 1_555 1_555
O4 Sr1 1_555 1_555
O5 Sr1 1_555 1_555
O6 Sr1 1_555 1_555
C1 C7 1_555 1_555
Sr1 O1 1_555 1_555
Cl1 C11 1_555 1_555
Cl2 C6 1_555 1_555
O7 C14 1_555 1_555
O8 C14 1_555 1_555
C2 C8 1_555 1_555
C3 H1 1_555 1_555
C4 H2 1_555 1_555
C5 H3 1_555 1_555
C6 C4 1_555 1_555
C7 C12 1_555 1_555
C8 H4 1_555 1_555
C9 C2 1_555 1_555
H5 C9 1_555 1_555
C10 C6 1_555 1_555
H6 C10 1_555 1_555
C11 C3 1_555 1_555
C12 C3 1_555 1_555
H7 C12 1_555 1_555
C13 C5 1_555 1_555
H8 C13 1_555 1_555
C14 C2 1_555 1_555
H9 O3 1_555 1_555
H10 O4 1_555 1_555
H11 O5 1_555 1_555
H12 O5 1_555 1_555
H13 O3 1_555 1_555
H14 O6 1_555 1_555
H15 O6 1_555 1_555
H16 O4 1_555 1_555
O1A Sr1 1_555 1_555
O2A Sr1 1_555 1_555
O4A Sr1 1_555 1_555
O5A Sr1 1_555 1_555
Sr1A O1 1_555 1_555
Sr1A_2 O2 1_555 1_555
H10A O4A 1_555 1_555
H11A O5A 1_555 1_555
H12A O5A 1_555 1_555
H16A O4A 1_555 1_555
O2 Sr1 1_555 1_555
O4 Sr1A_2 1_555 1_555
O5 Sr1A 1_555 1_555
C4 C9 1_555 1_555
C5 C11 1_555 1_555
C7 C13 1_555 1_555
C8 C10 1_555 1_555
O1A Sr1A 1_555 1_555
O2A Sr1A_2 1_555 1_555
O4A Sr1A_2 1_555 1_555
O5A Sr1A 1_555 1_555

#END
