
#######################################################################
#
#                 Cambridge Crystallographic Data Centre
#                                CCDC 
#
#######################################################################
#
# If this CIF has been generated from an entry in the Cambridge 
# Structural Database, then it will include bibliographic, chemical, 
# crystal, experimental, refinement or atomic coordinate data resulting 
# from the CCDC's data processing and validation procedures.
#
#######################################################################

data_UTUQUW
_symmetry_cell_setting           monoclinic
_symmetry_space_group_name_H-M   'C 2/c'
_symmetry_Int_Tables_number      15
_space_group_name_Hall           '-C 2yn'
loop_
_symmetry_equiv_pos_site_id
_symmetry_equiv_pos_as_xyz
1 x,y,z
2 -x,y,1/2-z
3 1/2+x,1/2+y,z
4 1/2-x,1/2+y,1/2-z
5 -x,-y,-z
6 x,-y,1/2+z
7 1/2-x,1/2-y,-z
8 1/2+x,1/2-y,1/2+z
_cell_length_a                   33.755(2)
_cell_length_b                   12.908(2)
_cell_length_c                   7.542(2)
_cell_angle_alpha                90
_cell_angle_beta                 96.02(2)
_cell_angle_gamma                90
_cell_volume                     3268
loop_
_atom_site_label
_atom_site_type_symbol
_atom_site_fract_x
_atom_site_fract_y
_atom_site_fract_z
Ba1 Ba 0.262865(7) 0.092762(17) 0.11248(3)
O1 O 0.33703(9) 0.0340(2) 0.2548(5)
O2 O 0.31300(8) -0.1140(2) 0.3460(4)
O3 O 0.19818(11) 0.1880(3) 0.2532(5)
H1 H 0.1791(12) 0.171(4) 0.318(7)
H2 H 0.1899(15) 0.250(2) 0.218(7)
O4 O 0.28792(8) 0.29027(19) 0.1568(3)
O5 O 0.27025(11) 0.1210(3) 0.4922(4)
H3 H 0.2932(8) 0.125(5) 0.447(6)
H4 H 0.2806(14) 0.139(5) 0.599(3)
O6 O 0.28246(8) 0.4579(2) 0.2089(3)
N1 N 0.50027(16) -0.1881(6) 0.5322(10)
H5 H 0.5229(15) -0.178(6) 0.489(12)
H6 H 0.502(3) -0.252(3) 0.572(12)
N2 N 0.44675(15) 0.3752(5) 0.6862(7)
H7 H 0.449(2) 0.422(4) 0.772(6)
H8 H 0.449(2) 0.318(3) 0.750(7)
C1 C 0.34177(12) -0.0537(3) 0.3228(5)
C2 C 0.38323(12) -0.0904(3) 0.3780(5)
C3 C 0.41529(13) -0.0336(4) 0.3306(6)
H9 H 0.4107 0.0281 0.2631
C4 C 0.45351(15) -0.0653(5) 0.3797(8)
H10 H 0.4751 -0.0256 0.3455
C5 C 0.46103(15) -0.1553(5) 0.4793(7)
C6 C 0.42903(16) -0.2116(5) 0.5299(7)
H11 H 0.4336 -0.2722 0.6007
C7 C 0.39050(13) -0.1798(4) 0.4777(6)
H12 H 0.3688 -0.2197 0.5105
C8 C 0.30029(11) 0.3726(3) 0.2330(4)
C9 C 0.33828(10) 0.3705(3) 0.3561(4)
C10 C 0.35954(11) 0.2797(3) 0.3928(5)
H13 H 0.3500 0.2164 0.3396
C11 C 0.39450(13) 0.2805(4) 0.5063(6)
H14 H 0.4083 0.2174 0.5326
C12 C 0.40977(13) 0.3718(4) 0.5822(6)
C13 C 0.38858(12) 0.4626(4) 0.5474(5)
H15 H 0.3983 0.5258 0.5999
C14 C 0.35345(12) 0.4613(3) 0.4364(5)
H16 H 0.3392 0.5242 0.4141
Ba1E Ba 0.262865(7) -0.092762(17) 0.61248(3)
Ba1F Ba 0.237135(7) 0.407238(17) -0.11248(3)
Ba1C Ba 0.237135(7) 0.592762(17) 0.38752(3)
O2E O 0.31300(8) 0.1140(2) -0.1540(4)
O4F O 0.21208(8) 0.20973(19) -0.1568(3)
O5E O 0.27025(11) -0.1210(3) -0.0078(4)
H3E H 0.2932(8) -0.125(5) -0.053(6)
H4E H 0.2806(14) -0.139(5) 0.099(3)
O6C O 0.21754(8) -0.0421(2) 0.2911(3)
O6F O 0.21754(8) 0.0421(2) -0.2089(3)
O8 O 0.4990(6) 0.4421(16) 0.081(3)
O7? O 0.5071(6) 0.4780(15) 0.039(2)
O9? O 0.5182(10) 0.412(3) 0.154(5)
loop_
_geom_bond_atom_site_label_1
_geom_bond_atom_site_label_2
_geom_bond_site_symmetry_1
_geom_bond_site_symmetry_2
Ba1 O1 1_555 1_555
O1 C1 1_555 1_555
O2 C1 1_555 1_555
O3 Ba1 1_555 1_555
H1 O3 1_555 1_555
H2 O3 1_555 1_555
O4 Ba1 1_555 1_555
O5 Ba1 1_555 1_555
H3 O5 1_555 1_555
H4 O5 1_555 1_555
O6 C8 1_555 1_555
N1 H5 1_555 1_555
H6 N1 1_555 1_555
N2 H7 1_555 1_555
H8 N2 1_555 1_555
C1 C2 1_555 1_555
C2 C3 1_555 1_555
C3 H9 1_555 1_555
C4 C3 1_555 1_555
H10 C4 1_555 1_555
C5 N1 1_555 1_555
C6 C5 1_555 1_555
H11 C6 1_555 1_555
C7 C2 1_555 1_555
H12 C7 1_555 1_555
C8 O4 1_555 1_555
C9 C8 1_555 1_555
C10 C9 1_555 1_555
H13 C10 1_555 1_555
C11 C10 1_555 1_555
H14 C11 1_555 1_555
C12 N2 1_555 1_555
C13 C12 1_555 1_555
H15 C13 1_555 1_555
C14 C9 1_555 1_555
H16 C14 1_555 1_555
Ba1E O2 1_555 1_555
Ba1F O4 1_555 1_555
Ba1C O6 1_555 1_555
O2E Ba1 1_555 1_555
O4F Ba1 1_555 1_555
O5E Ba1 1_555 1_555
H3E O5E 1_555 1_555
H4E O5E 1_555 1_555
O6C Ba1 1_555 1_555
O6F Ba1 1_555 1_555
O5 Ba1E 1_555 1_555
O6 Ba1F 1_555 1_555
C4 C5 1_555 1_555
C6 C7 1_555 1_555
C11 C12 1_555 1_555
C13 C14 1_555 1_555
Ba1E O6C 1_555 1_555
Ba1F O4F 1_555 1_555

#END
