
#######################################################################
#
#                 Cambridge Crystallographic Data Centre
#                                CCDC 
#
#######################################################################
#
# If this CIF has been generated from an entry in the Cambridge 
# Structural Database, then it will include bibliographic, chemical, 
# crystal, experimental, refinement or atomic coordinate data resulting 
# from the CCDC's data processing and validation procedures.
#
#######################################################################

data_UTURUX
_symmetry_cell_setting           triclinic
_symmetry_space_group_name_H-M   'P -1'
_symmetry_Int_Tables_number      2
_space_group_name_Hall           '-P 1'
loop_
_symmetry_equiv_pos_site_id
_symmetry_equiv_pos_as_xyz
1 x,y,z
2 -x,-y,-z
_cell_length_a                   9.2329(2)
_cell_length_b                   10.0390(3)
_cell_length_c                   15.6860(5)
_cell_angle_alpha                101.056(1)
_cell_angle_beta                 98.483(2)
_cell_angle_gamma                99.498(2)
_cell_volume                     1383.06
loop_
_atom_site_label
_atom_site_type_symbol
_atom_site_fract_x
_atom_site_fract_y
_atom_site_fract_z
Ba1 Ba 0.492670(16) 0.267175(18) 0.098205(11)
Ba2 Ba 0.261830(16) -0.145990(17) 0.100200(11)
O1 O 0.5744(2) 0.2853(2) 0.27151(13)
O2 O 0.3978(2) 0.0963(2) 0.21644(12)
O3 O 0.6127(3) 0.3812(2) -0.03214(16)
O4 O 0.6458(3) 0.3889(3) 0.43746(16)
O5 O 0.3871(3) -0.2794(2) 0.22960(14)
O6 O 0.25903(19) 0.0636(2) -0.00617(12)
O7 O 0.45639(19) 0.0833(2) -0.07158(12)
O8 O -0.0063(2) 0.0131(2) -0.09730(14)
O9 O 0.77382(19) 0.2527(2) 0.08783(12)
O10 O 0.97681(19) 0.2945(2) 0.02905(13)
O11 O 1.2330(2) 0.3677(2) 0.12302(14)
O12 O 0.58682(19) 0.5560(2) 0.15834(13)
O13 O 0.7728(2) 0.6168(2) 0.08839(13)
O14 O 1.0402(2) 0.7036(2) 0.17246(15)
C1 C 0.4664(3) 0.1752(3) 0.37369(18)
C2 C 0.5460(3) 0.2789(3) 0.4466(2)
C3 C 0.5234(3) 0.2725(3) 0.5317(2)
H1 H 0.5771 0.3431 0.5807
C4 C 0.4232(3) 0.1638(3) 0.5449(2)
H2 H 0.4075 0.1604 0.6030
C5 C 0.3454(3) 0.0598(3) 0.4742(2)
H3 H 0.2768 -0.0152 0.4836
C6 C 0.3680(3) 0.0658(3) 0.39016(19)
H4 H 0.3152 -0.0067 0.3419
C7 C 0.4805(3) 0.1848(3) 0.28192(19)
C8 C 0.2156(3) 0.0267(3) -0.16345(18)
C9 C 0.0599(3) 0.0013(3) -0.16999(18)
C10 C -0.0329(3) -0.0383(3) -0.25233(19)
H5 H -0.1382 -0.0585 -0.2564
C11 C 0.0270(3) -0.0487(3) -0.3287(2)
H6 H -0.0372 -0.0757 -0.3848
C12 C 0.1811(3) -0.0196(3) -0.32326(19)
H7 H 0.2222 -0.0252 -0.3756
C13 C 0.2739(3) 0.0175(3) -0.24149(19)
H8 H 0.3791 0.0372 -0.2380
C14 C 0.3170(3) 0.0600(3) -0.07619(18)
C15 C 1.0082(3) 0.3413(3) 0.18566(18)
C16 C 1.1653(3) 0.3731(3) 0.19545(19)
C17 C 1.2533(3) 0.4097(3) 0.2797(2)
H9 H 1.3590 0.4317 0.2865
C18 C 1.1869(3) 0.4142(3) 0.3534(2)
H10 H 1.2477 0.4378 0.4107
C19 C 1.0331(3) 0.3847(3) 0.34468(19)
H11 H 0.9882 0.3896 0.3956
C20 C 0.9451(3) 0.3481(3) 0.26124(19)
H12 H 0.8394 0.3272 0.2554
C21 C 0.9131(3) 0.2943(3) 0.09584(18)
C22 C 0.8302(3) 0.6488(3) 0.24463(19)
C23 C 0.9838(3) 0.6954(3) 0.24833(19)
C24 C 1.0822(3) 0.7321(3) 0.32873(19)
H13 H 1.1858 0.7630 0.3307
C25 C 1.0295(3) 0.7238(3) 0.4058(2)
H14 H 1.0974 0.7487 0.4606
C26 C 0.8775(3) 0.6793(3) 0.4040(2)
H15 H 0.8415 0.6742 0.4572
C27 C 0.7806(3) 0.6428(3) 0.32406(19)
H16 H 0.6771 0.6127 0.3228
C28 C 0.7235(3) 0.6058(3) 0.15885(19)
H17 H 0.645(4) 0.378(4) 0.384(3)
H18 H 0.064(4) 0.044(4) -0.057(2)
H19 H 1.158(4) 0.348(4) 0.079(3)
H20 H 0.975(4) 0.672(4) 0.138(2)
H21 H 0.662(3) 0.446(3) -0.003(2)
H22 H 0.556(5) 0.406(4) -0.073(3)
H23 H 0.321(4) -0.341(4) 0.234(2)
H24 H 0.446(4) -0.322(4) 0.216(3)
Ba1_2 Ba 1.492670(16) 0.267175(18) 0.098205(11)
Ba2A Ba 0.738170(16) 0.145990(17) -0.100200(11)
Ba2A_2 Ba -0.261830(16) 0.145990(17) -0.100200(11)
Ba2_2 Ba 1.261830(16) 0.854010(17) 0.100200(11)
O3A O 0.3873(3) -0.3812(2) 0.03214(16)
O7A O 0.54361(19) -0.0833(2) 0.07158(12)
O8A O 0.0063(2) -0.0131(2) 0.09730(14)
O9A O 0.22618(19) -0.2527(2) -0.08783(12)
O10A O 0.02319(19) -0.2945(2) -0.02905(13)
O11_2 O 0.2330(2) 0.3677(2) 0.12302(14)
O14_2 O 0.0402(2) -0.2964(2) 0.17246(15)
H18A H -0.064(4) -0.044(4) 0.057(2)
H19_2 H 0.158(4) 0.348(4) 0.079(3)
H20_2 H -0.025(4) -0.328(4) 0.138(2)
H21A H 0.338(3) -0.446(3) 0.003(2)
H22A H 0.444(5) -0.406(4) 0.073(3)
loop_
_geom_bond_atom_site_label_1
_geom_bond_atom_site_label_2
_geom_bond_site_symmetry_1
_geom_bond_site_symmetry_2
Ba1 O1 1_555 1_555
Ba2 O2 1_555 1_555
O1 C7 1_555 1_555
O2 Ba1 1_555 1_555
O3 Ba1 1_555 1_555
O4 C2 1_555 1_555
O5 Ba2 1_555 1_555
O6 Ba1 1_555 1_555
O7 Ba1 1_555 1_555
O8 C9 1_555 1_555
O9 Ba1 1_555 1_555
O10 C21 1_555 1_555
O11 C16 1_555 1_555
O12 Ba1 1_555 1_555
O13 C28 1_555 1_555
O14 C23 1_555 1_555
C1 C2 1_555 1_555
C2 C3 1_555 1_555
C3 H1 1_555 1_555
C4 C3 1_555 1_555
H2 C4 1_555 1_555
C5 C4 1_555 1_555
H3 C5 1_555 1_555
C6 C1 1_555 1_555
H4 C6 1_555 1_555
C7 O2 1_555 1_555
C8 C9 1_555 1_555
C9 C10 1_555 1_555
C10 H5 1_555 1_555
C11 C10 1_555 1_555
H6 C11 1_555 1_555
C12 C11 1_555 1_555
H7 C12 1_555 1_555
C13 C8 1_555 1_555
H8 C13 1_555 1_555
C14 O6 1_555 1_555
C15 C16 1_555 1_555
C16 C17 1_555 1_555
C17 H9 1_555 1_555
C18 C17 1_555 1_555
H10 C18 1_555 1_555
C19 C18 1_555 1_555
H11 C19 1_555 1_555
C20 C15 1_555 1_555
H12 C20 1_555 1_555
C21 O9 1_555 1_555
C22 C23 1_555 1_555
C23 C24 1_555 1_555
C24 H13 1_555 1_555
C25 C24 1_555 1_555
H14 C25 1_555 1_555
C26 C25 1_555 1_555
H15 C26 1_555 1_555
C27 C22 1_555 1_555
H16 C27 1_555 1_555
C28 O12 1_555 1_555
H17 O4 1_555 1_555
H18 O8 1_555 1_555
H19 O11 1_555 1_555
H20 O14 1_555 1_555
H21 O3 1_555 1_555
H22 O3 1_555 1_555
H23 O5 1_555 1_555
H24 O5 1_555 1_555
Ba1_2 O11 1_555 1_555
Ba2A O3 1_555 1_555
Ba2A_2 O8 1_555 1_555
Ba2_2 O14 1_555 1_555
O3A Ba2 1_555 1_555
O7A Ba2 1_555 1_555
O8A Ba2 1_555 1_555
O9A Ba2 1_555 1_555
O10A Ba2 1_555 1_555
O11_2 Ba1 1_555 1_555
O14_2 Ba2 1_555 1_555
H18A O8A 1_555 1_555
H19_2 O11_2 1_555 1_555
H20_2 O14_2 1_555 1_555
H21A O3A 1_555 1_555
H22A O3A 1_555 1_555
Ba2 O6 1_555 1_555
O7 C14 1_555 1_555
O7 Ba2A 1_555 1_555
O9 Ba2A 1_555 1_555
O10 Ba2A 1_555 1_555
C1 C7 1_555 1_555
C5 C6 1_555 1_555
C8 C14 1_555 1_555
C12 C13 1_555 1_555
C15 C21 1_555 1_555
C19 C20 1_555 1_555
C22 C28 1_555 1_555
C26 C27 1_555 1_555

#END
