
#######################################################################
#
#                 Cambridge Crystallographic Data Centre
#                                CCDC 
#
#######################################################################
#
# If this CIF has been generated from an entry in the Cambridge 
# Structural Database, then it will include bibliographic, chemical, 
# crystal, experimental, refinement or atomic coordinate data resulting 
# from the CCDC's data processing and validation procedures.
#
#######################################################################

data_UTUROR
_symmetry_cell_setting           monoclinic
_symmetry_space_group_name_H-M   'P 21/n'
_symmetry_Int_Tables_number      14
_space_group_name_Hall           '-P 2yn'
loop_
_symmetry_equiv_pos_site_id
_symmetry_equiv_pos_as_xyz
1 x,y,z
2 1/2-x,1/2+y,1/2-z
3 -x,-y,-z
4 1/2+x,1/2-y,1/2+z
_cell_length_a                   6.5280(2)
_cell_length_b                   10.6570(3)
_cell_length_c                   28.3021(5)
_cell_angle_alpha                90
_cell_angle_beta                 91.156(1)
_cell_angle_gamma                90
_cell_volume                     1968.55
loop_
_atom_site_label
_atom_site_type_symbol
_atom_site_fract_x
_atom_site_fract_y
_atom_site_fract_z
Ba1 Ba -0.02058(3) -0.263789(15) 0.212838(6)
C1 C -0.1709(5) -0.2451(3) 0.32000(10)
C2 C 0.1765(5) 0.1150(3) 0.14834(10)
C3 C 0.1805(5) 0.2389(3) 0.13331(10)
H1 H 0.1804 0.3047 0.1560
C4 C 0.1848(5) 0.2677(3) 0.08533(10)
H2 H 0.1873 0.3521 0.0746
C5 C -0.2032(5) -0.1033(3) 0.39083(10)
H3 H -0.2114 -0.0339 0.3698
C6 C -0.1822(5) -0.3076(3) 0.45212(10)
H4 H -0.1760 -0.3766 0.4734
C7 C 0.1758(5) 0.0182(3) 0.11538(10)
H5 H 0.1708 -0.0666 0.1257
C8 C -0.1974(5) -0.1864(3) 0.46873(10)
C9 C -0.1842(5) -0.2243(3) 0.37281(10)
C10 C 0.1852(5) 0.1678(3) 0.05388(10)
C11 C -0.1760(5) -0.3264(3) 0.40368(10)
H6 H -0.1660 -0.4092 0.3915
C12 C -0.2101(5) -0.0834(3) 0.43923(11)
H7 H -0.2232 -0.0011 0.4517
C13 C 0.1724(5) 0.0843(3) 0.20069(10)
C14 C 0.1824(5) 0.0448(3) 0.06759(10)
H8 H 0.1849 -0.0207 0.0449
O1 O 0.1611(3) -0.03021(19) 0.21218(7)
O2 O 0.0612(4) -0.5168(2) 0.20966(8)
O3 O -0.3940(4) -0.3961(2) 0.20472(8)
O4 O -0.1813(3) -0.14986(19) 0.29323(7)
O5 O 0.3157(4) -0.2796(2) 0.15092(9)
O6 O -0.3435(4) -0.1052(2) 0.17664(9)
O7 O -0.1499(5) -0.2729(3) 0.11677(9)
O8 O -0.1460(3) -0.35358(19) 0.30477(7)
O9 O -0.1981(4) -0.2574(2) 0.54636(8)
O10 O 0.1579(4) 0.3036(2) -0.01042(8)
O11 O -0.2125(4) -0.0582(2) 0.53496(7)
O12 O 0.2328(4) 0.1095(2) -0.02422(8)
O13 O 0.1811(3) 0.17405(19) 0.22962(7)
N1 N -0.2033(4) -0.1650(3) 0.52017(9)
N2 N 0.1931(4) 0.1954(3) 0.00298(9)
H9 H 0.144(5) -0.534(3) 0.2267(12)
H10 H -0.040(6) -0.577(4) 0.2112(12)
H11 H -0.475(6) -0.376(4) 0.2243(14)
H12 H -0.381(5) -0.468(4) 0.2044(12)
H13 H 0.408(5) -0.329(3) 0.1597(11)
H14 H 0.306(7) -0.285(4) 0.1236(15)
H15 H -0.354(6) -0.031(4) 0.1815(13)
H16 H -0.470(6) -0.134(4) 0.1729(13)
H17 H -0.215(7) -0.207(4) 0.1189(14)
H18 H -0.137(8) -0.283(4) 0.0875(18)
Ba1A Ba 0.52058(3) 0.236211(15) 0.287162(6)
O13A O 0.3189(3) -0.32595(19) 0.27038(7)
loop_
_geom_bond_atom_site_label_1
_geom_bond_atom_site_label_2
_geom_bond_site_symmetry_1
_geom_bond_site_symmetry_2
Ba1 O1 1_555 1_555
C1 C9 1_555 1_555
C2 C3 1_555 1_555
C3 H1 1_555 1_555
C4 C3 1_555 1_555
H2 C4 1_555 1_555
C5 H3 1_555 1_555
C6 H4 1_555 1_555
C7 C2 1_555 1_555
H5 C7 1_555 1_555
C8 C6 1_555 1_555
C9 C5 1_555 1_555
C10 C4 1_555 1_555
C11 C6 1_555 1_555
H6 C11 1_555 1_555
C12 C5 1_555 1_555
H7 C12 1_555 1_555
C13 C2 1_555 1_555
C14 C7 1_555 1_555
H8 C14 1_555 1_555
O1 C13 1_555 1_555
O2 Ba1 1_555 1_555
O3 Ba1 1_555 1_555
O4 Ba1 1_555 1_555
O5 Ba1 1_555 1_555
O6 Ba1 1_555 1_555
O7 Ba1 1_555 1_555
O8 Ba1 1_555 1_555
O9 N1 1_555 1_555
O10 N2 1_555 1_555
O11 N1 1_555 1_555
O12 N2 1_555 1_555
O13 C13 1_555 1_555
N1 C8 1_555 1_555
N2 C10 1_555 1_555
H9 O2 1_555 1_555
H10 O2 1_555 1_555
H11 O3 1_555 1_555
H12 O3 1_555 1_555
H13 O5 1_555 1_555
H14 O5 1_555 1_555
H15 O6 1_555 1_555
H16 O6 1_555 1_555
H17 O7 1_555 1_555
H18 O7 1_555 1_555
Ba1A O13 1_555 1_555
O13A Ba1 1_555 1_555
C1 O4 1_555 1_555
C1 O8 1_555 1_555
C8 C12 1_555 1_555
C9 C11 1_555 1_555
C10 C14 1_555 1_555

#END
