
#######################################################################
#
#                 Cambridge Crystallographic Data Centre
#                                CCDC 
#
#######################################################################
#
# If this CIF has been generated from an entry in the Cambridge 
# Structural Database, then it will include bibliographic, chemical, 
# crystal, experimental, refinement or atomic coordinate data resulting 
# from the CCDC's data processing and validation procedures.
#
#######################################################################

data_UTUSIM
_symmetry_cell_setting           monoclinic
_symmetry_space_group_name_H-M   'P 21/m'
_symmetry_Int_Tables_number      11
_space_group_name_Hall           '-P 2yb'
loop_
_symmetry_equiv_pos_site_id
_symmetry_equiv_pos_as_xyz
1 x,y,z
2 -x,1/2+y,-z
3 -x,-y,-z
4 x,1/2-y,z
_cell_length_a                   4.0818(3)
_cell_length_b                   31.856(2)
_cell_length_c                   6.800(4)
_cell_angle_alpha                90
_cell_angle_beta                 94.378(3)
_cell_angle_gamma                90
_cell_volume                     881.623
loop_
_atom_site_label
_atom_site_type_symbol
_atom_site_fract_x
_atom_site_fract_y
_atom_site_fract_z
Sr1 Sr 0.3015(2) 0.7500 0.22501(12)
O1 O 0.2777(11) 0.67840(14) 0.0429(6)
O2 O -0.0279(12) 0.68488(14) -0.2429(6)
O3 O 0.7700(16) 0.7500 -0.0150(8)
H1 H 0.8189 0.7213 -0.0804
O4 O -0.1675(12) 0.61607(15) 0.1457(7)
O5 O 0.3368(16) 0.7500 0.6035(9)
H2 H 0.2403 0.7287 0.6725
O6 O 0.0141(14) 0.55418(16) 0.2269(7)
O7 O -0.1933(11) 0.80037(14) 0.3538(6)
H3 H -0.1975 0.8236 0.2935
H4 H -0.1471 0.8068 0.4447
N1 N 0.0000(14) 0.58517(16) 0.1166(8)
C1 C 0.2278(16) 0.6193(2) -0.1716(9)
C2 C 0.3822(16) 0.6139(2) -0.3478(9)
H5 H 0.4124 0.6375 -0.4296
C3 C 0.4913(17) 0.5749(2) -0.4052(10)
H6 H 0.5994 0.5721 -0.5234
C4 C 0.4417(18) 0.5397(2) -0.2888(10)
H7 H 0.5165 0.5129 -0.3277
C5 C 0.2837(17) 0.5437(2) -0.1165(10)
H8 H 0.2460 0.5199 -0.0376
C6 C 0.1815(16) 0.5832(2) -0.0614(9)
C7 C 0.1501(16) 0.6639(2) -0.1152(9)
Sr1_2 Sr 1.3015(2) 0.7500 0.22501(12)
Sr1_3 Sr -0.6985(2) 0.7500 0.22501(12)
O1C O 0.2777(11) 0.82160(14) 0.0429(6)
O2C O -0.0279(12) 0.81512(14) -0.2429(6)
O3_2 O -0.2300(16) 0.7500 -0.0150(8)
H1C H 0.8189 0.7787 -0.0804
H1_2 H -0.1811 0.7213 -0.0804
H1C_2 H -0.1811 0.7787 -0.0804
O4C O -0.1675(12) 0.88393(15) 0.1457(7)
H2C H 0.2403 0.7713 0.6725
O6C O 0.0141(14) 0.94582(16) 0.2269(7)
O7_2 O 0.8067(11) 0.80037(14) 0.3538(6)
O7C O -0.1933(11) 0.69963(14) 0.3538(6)
O7C_2 O 0.8067(11) 0.69963(14) 0.3538(6)
H3_2 H 0.8025 0.8236 0.2935
H3C H -0.1975 0.6764 0.2935
H3C_2 H 0.8025 0.6764 0.2935
H4_2 H 0.8529 0.8068 0.4447
H4C H -0.1471 0.6932 0.4447
H4C_2 H 0.8529 0.6932 0.4447
N1C N 0.0000(14) 0.91483(16) 0.1166(8)
C1C C 0.2278(16) 0.8807(2) -0.1716(9)
C2C C 0.3822(16) 0.8861(2) -0.3478(9)
H5C H 0.4124 0.8625 -0.4296
C3C C 0.4913(17) 0.9251(2) -0.4052(10)
H6C H 0.5994 0.9279 -0.5234
C4C C 0.4417(18) 0.9603(2) -0.2888(10)
H7C H 0.5165 0.9871 -0.3277
C5C C 0.2837(17) 0.9563(2) -0.1165(10)
H8C H 0.2460 0.9801 -0.0376
C6C C 0.1815(16) 0.9168(2) -0.0614(9)
C7C C 0.1501(16) 0.8361(2) -0.1152(9)
loop_
_geom_bond_atom_site_label_1
_geom_bond_atom_site_label_2
_geom_bond_site_symmetry_1
_geom_bond_site_symmetry_2
Sr1 O1 1_555 1_555
O1 C7 1_555 1_555
O2 C7 1_555 1_555
O3 Sr1 1_555 1_555
H1 O3 1_555 1_555
O4 N1 1_555 1_555
O5 Sr1 1_555 1_555
H2 O5 1_555 1_555
O6 N1 1_555 1_555
O7 Sr1 1_555 1_555
H3 O7 1_555 1_555
H4 O7 1_555 1_555
N1 C6 1_555 1_555
C1 C2 1_555 1_555
C2 H5 1_555 1_555
C3 C2 1_555 1_555
H6 C3 1_555 1_555
C4 C3 1_555 1_555
H7 C4 1_555 1_555
C5 C4 1_555 1_555
H8 C5 1_555 1_555
C6 C1 1_555 1_555
C7 C1 1_555 1_555
Sr1_2 O3 1_555 1_555
Sr1_3 O7 1_555 1_555
O1C Sr1 1_555 1_555
O2C C7C 1_555 1_555
O3_2 Sr1 1_555 1_555
H1C O3 1_555 1_555
H1_2 O3_2 1_555 1_555
H1C_2 O3_2 1_555 1_555
O4C N1C 1_555 1_555
H2C O5 1_555 1_555
O6C N1C 1_555 1_555
O7_2 Sr1 1_555 1_555
O7C Sr1 1_555 1_555
O7C_2 Sr1 1_555 1_555
H3_2 O7_2 1_555 1_555
H3C O7C 1_555 1_555
H3C_2 O7C_2 1_555 1_555
H4_2 O7_2 1_555 1_555
H4C O7C 1_555 1_555
H4C_2 O7C_2 1_555 1_555
N1C C6C 1_555 1_555
C1C C2C 1_555 1_555
C2C H5C 1_555 1_555
C3C C2C 1_555 1_555
H6C C3C 1_555 1_555
C4C C3C 1_555 1_555
H7C C4C 1_555 1_555
C5C C4C 1_555 1_555
H8C C5C 1_555 1_555
C6C C1C 1_555 1_555
C7C O1C 1_555 1_555
C5 C6 1_555 1_555
Sr1_2 O7_2 1_555 1_555
Sr1_2 O7C_2 1_555 1_555
Sr1_3 O3_2 1_555 1_555
Sr1_3 O7C 1_555 1_555
C1C C7C 1_555 1_555
C5C C6C 1_555 1_555

#END
