
#######################################################################
#
#                 Cambridge Crystallographic Data Centre
#                                CCDC 
#
#######################################################################
#
# If this CIF has been generated from an entry in the Cambridge 
# Structural Database, then it will include bibliographic, chemical, 
# crystal, experimental, refinement or atomic coordinate data resulting 
# from the CCDC's data processing and validation procedures.
#
#######################################################################

data_UTUSUY
_symmetry_cell_setting           monoclinic
_symmetry_space_group_name_H-M   'P 21/n'
_symmetry_Int_Tables_number      14
_space_group_name_Hall           '-P 2yn'
loop_
_symmetry_equiv_pos_site_id
_symmetry_equiv_pos_as_xyz
1 x,y,z
2 1/2-x,1/2+y,1/2-z
3 -x,-y,-z
4 1/2+x,1/2-y,1/2+z
_cell_length_a                   14.9499(6)
_cell_length_b                   8.8062(4)
_cell_length_c                   22.3285(9)
_cell_angle_alpha                90
_cell_angle_beta                 104.359(3)
_cell_angle_gamma                90
_cell_volume                     2847.76
loop_
_atom_site_label
_atom_site_type_symbol
_atom_site_fract_x
_atom_site_fract_y
_atom_site_fract_z
Ca1 Ca 0.59329(4) 0.77525(6) 0.46245(2)
Ca2 Ca 0.42696(4) 1.09539(6) 0.37891(2)
O1 O 0.42991(12) 0.8323(2) 0.39818(8)
O2 O 0.49014(12) 0.6034(2) 0.39571(8)
O3 O 0.55147(16) 1.1770(3) 0.33841(10)
O4 O 0.39487(14) 0.3776(2) 0.34558(9)
O5 O 0.60735(13) 0.8791(2) 0.35671(9)
O6 O 0.72186(13) 0.7437(2) 0.41343(8)
O7 O 0.87931(14) 0.7462(2) 0.38846(9)
O8 O 0.69130(12) 0.8327(2) 0.55965(8)
O9 O 0.73692(12) 0.9089(2) 0.65701(8)
O10 O 0.90552(15) 0.8784(2) 0.71845(9)
O11 O 0.57513(12) 1.0396(2) 0.46375(8)
O12 O 0.51381(12) 1.2666(2) 0.46746(8)
O13 O 0.61994(14) 1.5029(2) 0.49670(9)
N1 N 0.08439(19) 0.4701(3) 0.23351(12)
N2 N 0.9069(2) 0.9652(3) 0.19760(15)
N3 N 1.13032(18) 0.7637(3) 0.60845(15)
N4 N 0.93970(19) 1.4209(3) 0.58041(13)
C1 C 0.33131(19) 0.6310(3) 0.34799(12)
C2 C 0.32200(18) 0.4776(3) 0.32945(12)
C3 C 0.23974(18) 0.4244(3) 0.29332(12)
H1 H 0.2348 0.3218 0.2797
C4 C 0.16404(18) 0.5203(3) 0.27665(12)
C5 C 0.17003(19) 0.6692(3) 0.29771(12)
H2 H 0.1174 0.7335 0.2880
C6 C 0.25315(19) 0.7227(3) 0.33278(12)
H3 H 0.2572 0.8248 0.3469
C7 C 0.4211(2) 0.6940(3) 0.38208(12)
C8 C 0.74494(19) 0.8623(3) 0.32193(13)
C9 C 0.8384(2) 0.8211(3) 0.33546(13)
C10 C 0.8915(2) 0.8574(3) 0.29430(13)
H4 H 0.9550 0.8305 0.3039
C11 C 0.8524(2) 0.9326(3) 0.23951(13)
C12 C 0.7592(2) 0.9702(3) 0.22464(13)
H5 H 0.7317 1.0188 0.1865
C13 C 0.7072(2) 0.9358(3) 0.26610(13)
H6 H 0.6437 0.9631 0.2562
C14 C 0.6874(2) 0.8275(3) 0.36560(13)
C15 C 0.85351(18) 0.8404(3) 0.60744(12)
C16 C 0.9235(2) 0.8445(3) 0.66295(13)
C17 C 1.01392(19) 0.8130(3) 0.66333(13)
H7 H 1.0591 0.8065 0.7016
C18 C 1.0399(2) 0.7905(3) 0.60806(13)
C19 C 0.9716(2) 0.7941(3) 0.55173(13)
H8 H 0.9883 0.7819 0.5136
C20 C 0.88102(19) 0.8155(3) 0.55235(13)
H9 H 0.8352 0.8133 0.5143
C21 C 0.75597(19) 0.8616(3) 0.60750(13)
C22 C 0.67776(18) 1.2461(3) 0.49784(12)
C23 C 0.69181(18) 1.4019(3) 0.50964(12)
C24 C 0.77803(19) 1.4609(3) 0.53560(12)
H10 H 0.7852 1.5671 0.5426
C25 C 0.85506(19) 1.3654(3) 0.55165(13)
C26 C 0.84255(19) 1.2094(3) 0.53833(13)
H11 H 0.8941 1.1427 0.5477
C27 C 0.75631(19) 1.1533(3) 0.51196(12)
H12 H 0.7495 1.0479 0.5029
C28 C 0.58567(19) 1.1791(3) 0.47578(12)
H13 H 0.437(2) 0.428(4) 0.3670(15)
H14 H 0.036(2) 0.512(4) 0.2407(14)
H15 H 0.0784(18) 0.376(3) 0.2319(12)
H16 H 0.833(2) 0.726(4) 0.4064(16)
H17 H 0.880(2) 1.030(4) 0.1683(16)
H18 H 0.959(2) 0.994(3) 0.2157(13)
H19 H 0.849(2) 0.895(4) 0.7121(13)
H20 H 1.149(2) 0.762(4) 0.5736(16)
H21 H 1.168(2) 0.774(4) 0.6450(15)
H22 H 0.572(2) 1.451(4) 0.4811(15)
H23 H 0.993(2) 1.364(4) 0.5877(16)
H24 H 0.9461(19) 1.516(4) 0.5830(13)
H25 H 0.573(3) 1.265(5) 0.3319(17)
H26 H 0.587(3) 1.116(5) 0.3412(19)
Ca1B Ca 0.40671(4) 1.22475(6) 0.53755(2)
Ca1_2 Ca 0.59329(4) 1.77525(6) 0.46245(2)
Ca2_2 Ca 0.42696(4) 0.09539(6) 0.37891(2)
Ca2B Ca 0.57304(4) 0.90461(6) 0.62109(2)
Ca2A Ca 0.07304(4) 0.59539(6) 0.12109(2)
O4_2 O 0.39487(14) 1.3776(2) 0.34558(9)
O8B O 0.30870(12) 1.1673(2) 0.44035(8)
O9B O 0.26308(12) 1.0911(2) 0.34299(8)
O12B O 0.48619(12) 0.7334(2) 0.53254(8)
O13_2 O 0.61994(14) 0.5029(2) 0.49670(9)
N1A N 0.41561(19) 0.9701(3) 0.26649(12)
H13_2 H 0.437(2) 1.428(4) 0.3670(15)
H14A H 0.464(2) 1.012(4) 0.2593(14)
H15A H 0.4216(18) 0.876(3) 0.2681(12)
H22_2 H 0.572(2) 0.451(4) 0.4811(15)
loop_
_geom_bond_atom_site_label_1
_geom_bond_atom_site_label_2
_geom_bond_site_symmetry_1
_geom_bond_site_symmetry_2
Ca1 O1 1_555 1_555
Ca2 O1 1_555 1_555
O1 C7 1_555 1_555
O2 Ca1 1_555 1_555
O3 Ca2 1_555 1_555
O4 C2 1_555 1_555
O5 Ca1 1_555 1_555
O6 Ca1 1_555 1_555
O7 C9 1_555 1_555
O8 Ca1 1_555 1_555
O9 C21 1_555 1_555
O10 C16 1_555 1_555
O11 Ca1 1_555 1_555
O12 Ca2 1_555 1_555
O13 C23 1_555 1_555
N1 C4 1_555 1_555
N2 C11 1_555 1_555
N3 C18 1_555 1_555
N4 C25 1_555 1_555
C1 C2 1_555 1_555
C2 C3 1_555 1_555
C3 H1 1_555 1_555
C4 C3 1_555 1_555
C5 C4 1_555 1_555
H2 C5 1_555 1_555
C6 C1 1_555 1_555
H3 C6 1_555 1_555
C7 O2 1_555 1_555
C8 C9 1_555 1_555
C9 C10 1_555 1_555
C10 H4 1_555 1_555
C11 C10 1_555 1_555
C12 C11 1_555 1_555
H5 C12 1_555 1_555
C13 C8 1_555 1_555
H6 C13 1_555 1_555
C14 O5 1_555 1_555
C15 C16 1_555 1_555
C16 C17 1_555 1_555
C17 H7 1_555 1_555
C18 C17 1_555 1_555
C19 C18 1_555 1_555
H8 C19 1_555 1_555
C20 C15 1_555 1_555
H9 C20 1_555 1_555
C21 O8 1_555 1_555
C22 C23 1_555 1_555
C23 C24 1_555 1_555
C24 H10 1_555 1_555
C25 C24 1_555 1_555
C26 C25 1_555 1_555
H11 C26 1_555 1_555
C27 C22 1_555 1_555
H12 C27 1_555 1_555
C28 O11 1_555 1_555
H13 O4 1_555 1_555
H14 N1 1_555 1_555
H15 N1 1_555 1_555
H16 O7 1_555 1_555
H17 N2 1_555 1_555
H18 N2 1_555 1_555
H19 O10 1_555 1_555
H20 N3 1_555 1_555
H21 N3 1_555 1_555
H22 O13 1_555 1_555
H23 N4 1_555 1_555
H24 N4 1_555 1_555
H25 O3 1_555 1_555
H26 O3 1_555 1_555
Ca1B O12 1_555 1_555
Ca1_2 O13 1_555 1_555
Ca2_2 O4 1_555 1_555
Ca2B O8 1_555 1_555
Ca2A N1 1_555 1_555
O4_2 Ca2 1_555 1_555
O8B Ca2 1_555 1_555
O9B Ca2 1_555 1_555
O12B Ca1 1_555 1_555
O13_2 Ca1 1_555 1_555
N1A Ca2 1_555 1_555
H13_2 O4_2 1_555 1_555
H14A N1A 1_555 1_555
H15A N1A 1_555 1_555
H22_2 O13_2 1_555 1_555
Ca2 O11 1_555 1_555
O6 C14 1_555 1_555
O9 Ca2B 1_555 1_555
O12 C28 1_555 1_555
C1 C7 1_555 1_555
C5 C6 1_555 1_555
C8 C14 1_555 1_555
C12 C13 1_555 1_555
C15 C21 1_555 1_555
C19 C20 1_555 1_555
C22 C28 1_555 1_555
C26 C27 1_555 1_555
Ca1B O8B 1_555 1_555
Ca2B O12B 1_555 1_555

#END
