
#######################################################################
#
#                 Cambridge Crystallographic Data Centre
#                                CCDC 
#
#######################################################################
#
# If this CIF has been generated from an entry in the Cambridge 
# Structural Database, then it will include bibliographic, chemical, 
# crystal, experimental, refinement or atomic coordinate data resulting 
# from the CCDC's data processing and validation procedures.
#
#######################################################################

data_UTUTEJ
_symmetry_cell_setting           monoclinic
_symmetry_space_group_name_H-M   'P 21'
_symmetry_Int_Tables_number      4
_space_group_name_Hall           'P 2yb'
loop_
_symmetry_equiv_pos_site_id
_symmetry_equiv_pos_as_xyz
1 x,y,z
2 -x,1/2+y,-z
_cell_length_a                   13.0200(4)
_cell_length_b                   4.3220(1)
_cell_length_c                   15.3326(5)
_cell_angle_alpha                90
_cell_angle_beta                 104.740(1)
_cell_angle_gamma                90
_cell_volume                     834.408
loop_
_atom_site_label
_atom_site_type_symbol
_atom_site_fract_x
_atom_site_fract_y
_atom_site_fract_z
Ba1 Ba 0.472351(13) 0.26449(7) 0.221687(11)
O1 O 0.60828(14) -0.2332(12) 0.30376(12)
H1 H 0.6664(18) -0.160(8) 0.294(2)
H2 H 0.615(2) -0.168(8) 0.3589(13)
O2 O 0.36101(15) 0.7860(11) 0.26516(13)
O3 O 0.66348(17) 0.2269(10) 0.18192(15)
O4 O 0.48326(16) 0.7462(12) 0.09622(13)
H3 H 0.5418(15) 0.751(16) 0.0797(19)
H4 H 0.4378(18) 0.691(9) 0.0475(16)
C1 C 0.2981(2) 0.8100(13) 0.3981(2)
O5 O 0.43724(18) 0.4838(6) 0.38136(16)
O6 O 0.2842(2) 0.1948(6) 0.08573(18)
H5 H 0.289(3) 0.258(11) 0.0356(17)
H6 H 0.250(3) 0.022(6) 0.075(3)
C2 C 0.3699(3) 0.6898(7) 0.3458(2)
C3 C 0.2337(2) 0.8145(12) 0.5333(2)
H7 H 0.2391 0.7413 0.5927
O7 O 0.3772(2) 0.4941(6) 0.52654(17)
C4 C 0.3036(2) 0.7066(9) 0.4860(2)
H8 H 0.407(3) 0.455(10) 0.495(3)
C5 C 0.2185(3) 1.0273(8) 0.3609(2)
H9 H 0.2136 1.1027 0.3017
C6 C 0.1553(3) 1.0292(8) 0.4950(2)
C7 C 0.8211(2) 0.2707(17) 0.13262(18)
O8 O 0.66704(18) -0.0162(6) 0.05506(16)
N1 N 0.0832(2) 1.1301(8) 0.5410(2)
H10 H 0.101(3) 1.107(9) 0.596(3)
H11 H 0.047(3) 1.323(12) 0.521(3)
C8 C 0.8680(3) 0.4779(8) 0.2021(2)
C9 C 0.7117(3) 0.1525(8) 0.1221(2)
C10 C 0.1476(3) 1.1347(8) 0.4066(2)
H12 H 0.0940 1.2784 0.3789
C11 C 0.9869(2) 0.2715(17) 0.08736(18)
H13 H 1.0277 0.1993 0.0482
O9 O 0.8117(2) 0.5801(6) 0.26064(17)
H14 H 0.758(3) 0.479(10) 0.247(3)
C12 C 1.0317(3) 0.4820(8) 0.1569(2)
C13 C 0.9708(3) 0.5834(8) 0.2139(2)
H15 H 1.0000 0.7254 0.2610
C14 C 0.8842(3) 0.1705(7) 0.0761(2)
H16 H 0.8550 0.0293 0.0287
N2 N 1.1336(2) 0.5904(8) 0.1655(2)
H17 H 1.164(3) 0.694(9) 0.219(2)
H18 H 1.174(3) 0.473(10) 0.141(3)
Ba1_2 Ba 0.472351(13) -0.73551(7) 0.221687(11)
Ba1_3 Ba 0.472351(13) 1.26449(7) 0.221687(11)
O1_2 O 0.60828(14) 0.7668(12) 0.30376(12)
H1_2 H 0.6664(18) 0.840(8) 0.294(2)
H2_2 H 0.615(2) 0.832(8) 0.3589(13)
O2_2 O 0.36101(15) -0.2140(11) 0.26516(13)
O4_2 O 0.48326(16) -0.2538(12) 0.09622(13)
H3_2 H 0.5418(15) -0.249(16) 0.0797(19)
H4_2 H 0.4378(18) -0.309(9) 0.0475(16)
loop_
_geom_bond_atom_site_label_1
_geom_bond_atom_site_label_2
_geom_bond_site_symmetry_1
_geom_bond_site_symmetry_2
Ba1 O1 1_555 1_555
O1 H1 1_555 1_555
H2 O1 1_555 1_555
O2 Ba1 1_555 1_555
O3 Ba1 1_555 1_555
O4 Ba1 1_555 1_555
H3 O4 1_555 1_555
H4 O4 1_555 1_555
C1 C2 1_555 1_555
O5 Ba1 1_555 1_555
O6 Ba1 1_555 1_555
H5 O6 1_555 1_555
H6 O6 1_555 1_555
C2 O2 1_555 1_555
C3 H7 1_555 1_555
O7 C4 1_555 1_555
C4 C1 1_555 1_555
H8 O7 1_555 1_555
C5 C1 1_555 1_555
H9 C5 1_555 1_555
C6 C3 1_555 1_555
C7 C8 1_555 1_555
O8 C9 1_555 1_555
N1 C6 1_555 1_555
H10 N1 1_555 1_555
H11 N1 1_555 1_555
C8 O9 1_555 1_555
C9 O3 1_555 1_555
C10 C5 1_555 1_555
H12 C10 1_555 1_555
C11 H13 1_555 1_555
O9 H14 1_555 1_555
C12 C11 1_555 1_555
C13 C8 1_555 1_555
H15 C13 1_555 1_555
C14 C7 1_555 1_555
H16 C14 1_555 1_555
N2 C12 1_555 1_555
H17 N2 1_555 1_555
H18 N2 1_555 1_555
Ba1_2 O1 1_555 1_555
Ba1_3 O2 1_555 1_555
O1_2 Ba1 1_555 1_555
H1_2 O1_2 1_555 1_555
H2_2 O1_2 1_555 1_555
O2_2 Ba1 1_555 1_555
O4_2 Ba1 1_555 1_555
H3_2 O4_2 1_555 1_555
H4_2 O4_2 1_555 1_555
O4 Ba1_3 1_555 1_555
O5 C2 1_555 1_555
C3 C4 1_555 1_555
C6 C10 1_555 1_555
C7 C9 1_555 1_555
C11 C14 1_555 1_555
C12 C13 1_555 1_555
Ba1_2 O2_2 1_555 1_555
Ba1_2 O4_2 1_555 1_555
Ba1_3 O1_2 1_555 1_555

#END
