
#######################################################################
#
#                 Cambridge Crystallographic Data Centre
#                                CCDC 
#
#######################################################################
#
# If this CIF has been generated from an entry in the Cambridge 
# Structural Database, then it will include bibliographic, chemical, 
# crystal, experimental, refinement or atomic coordinate data resulting 
# from the CCDC's data processing and validation procedures.
#
#######################################################################

data_UTUTAF
_symmetry_cell_setting           monoclinic
_symmetry_space_group_name_H-M   'P 21/n'
_symmetry_Int_Tables_number      14
_space_group_name_Hall           '-P 2yn'
loop_
_symmetry_equiv_pos_site_id
_symmetry_equiv_pos_as_xyz
1 x,y,z
2 1/2-x,1/2+y,1/2-z
3 -x,-y,-z
4 1/2+x,1/2-y,1/2+z
_cell_length_a                   15.146(1)
_cell_length_b                   9.0220(6)
_cell_length_c                   22.492(1)
_cell_angle_alpha                90
_cell_angle_beta                 105.794(1)
_cell_angle_gamma                90
_cell_volume                     2957.43
loop_
_atom_site_label
_atom_site_type_symbol
_atom_site_fract_x
_atom_site_fract_y
_atom_site_fract_z
Sr1 Sr 0.57780(2) 0.59439(4) 0.126320(17)
Sr2 Sr 0.40178(2) 0.27307(4) 0.037800(17)
O1 O 0.29855(17) 0.3340(3) -0.06522(12)
O2 O 0.24573(17) 0.4134(3) -0.16178(12)
O3 O 0.0773(2) 0.3757(3) -0.22024(13)
O4 O 0.38410(18) 0.3916(3) 0.14265(13)
O5 O 0.27102(18) 0.2461(3) 0.09145(12)
O6 O 0.1167(2) 0.2527(3) 0.11727(14)
O7 O 0.48411(17) 0.7683(3) 0.03239(12)
O8 O 0.42413(17) 0.5450(3) 0.03350(12)
O9 O 0.37958(19) 0.9964(3) 0.00180(14)
O10 O 0.51321(17) 0.0983(3) 0.11041(12)
O11 O 0.57228(17) 0.3229(3) 0.10721(12)
O12 O 0.61086(19) -0.1200(3) 0.15788(13)
O13 O 0.4437(2) 0.6834(4) 0.16365(15)
N1 N -0.1349(3) 0.2588(5) -0.1056(2)
N2 N 0.1032(3) 0.4701(4) 0.3083(2)
N3 N 0.0595(3) 0.9207(5) -0.0837(2)
N4 N 0.9261(2) -0.0358(4) 0.26198(16)
C1 C 0.1365(3) 0.3401(4) -0.10977(18)
C2 C 0.0633(3) 0.3425(4) -0.16431(18)
C3 C -0.0257(3) 0.3105(4) -0.16282(19)
H1 H -0.0732 0.3054 -0.2004
C4 C -0.0463(3) 0.2861(4) -0.10742(19)
C5 C 0.0251(3) 0.2884(4) -0.0520(2)
H2 H 0.0122 0.2731 -0.0134
C6 C 0.1144(3) 0.3132(4) -0.05453(19)
H3 H 0.1624 0.3117 -0.0171
C7 C 0.2316(3) 0.3637(4) -0.11195(19)
C8 C 0.2530(3) 0.3699(4) 0.18093(18)
C9 C 0.1599(3) 0.3287(4) 0.16941(19)
C10 C 0.1116(3) 0.3636(4) 0.21126(19)
H4 H 0.0490 0.3354 0.2030
C11 C 0.1532(3) 0.4397(4) 0.26538(19)
C12 C 0.2454(3) 0.4788(4) 0.27779(19)
H5 H 0.2750 0.5287 0.3151
C13 C 0.2935(3) 0.4445(4) 0.23536(18)
H6 H 0.3560 0.4730 0.2438
C14 C 0.3062(3) 0.3351(4) 0.13630(19)
C15 C 0.3203(3) 0.7466(4) -0.00114(18)
C16 C 0.3067(3) 0.8993(4) -0.01254(17)
C17 C 0.2208(3) 0.9585(4) -0.03881(18)
H7 H 0.2138 1.0623 -0.0455
C18 C 0.1441(3) 0.8652(4) -0.05560(19)
C19 C 0.1561(3) 0.7127(4) -0.04326(18)
H8 H 0.1047 0.6480 -0.0533
C20 C 0.2425(3) 0.6572(4) -0.01667(17)
H9 H 0.2493 0.5539 -0.0086
C21 C 0.4130(3) 0.6818(4) 0.02204(17)
C22 C 0.6722(3) 0.1283(4) 0.15656(18)
C23 C 0.6832(3) -0.0231(4) 0.17336(17)
C24 C 0.7680(3) -0.0769(4) 0.20637(17)
H10 H 0.7745 -0.1784 0.2180
C25 C 0.8432(3) 0.0159(4) 0.22254(17)
C26 C 0.8347(3) 0.1653(4) 0.20387(18)
H11 H 0.8867 0.2288 0.2133
C27 C 0.7500(3) 0.2179(4) 0.17172(18)
H12 H 0.7444 0.3190 0.1594
C28 C 0.5816(3) 0.1875(4) 0.12305(18)
H13 H 0.159(3) 0.235(5) 0.098(2)
H14 H 0.055(3) 1.013(5) -0.088(2)
H15 H 0.132(3) 0.525(5) 0.337(2)
H16 H 0.971(3) 0.007(5) 0.2554(19)
H17 H 0.933(3) -0.136(6) 0.260(2)
H18 H 0.048(3) 0.503(5) 0.291(2)
H19 H 0.018(3) 0.865(5) -0.089(2)
H20 H -0.138(3) 0.248(5) -0.065(2)
H21 H 0.423(4) 0.947(7) 0.019(3)
H22 H 0.409(3) 0.630(5) 0.157(2)
H23 H 0.420(3) 0.773(6) 0.167(2)
H24 H 0.573(3) -0.064(6) 0.137(2)
H25 H 0.136(3) 0.397(5) -0.214(2)
H26 H -0.172(3) 0.262(5) -0.139(2)
Sr1B Sr 0.42220(2) 0.40561(4) -0.126320(17)
Sr1_2 Sr 0.57780(2) -0.40561(4) 0.126320(17)
Sr1A Sr 0.92220(2) 0.09439(4) 0.373680(17)
Sr2B Sr 0.59822(2) 0.72693(4) -0.037800(17)
Sr2_2 Sr 0.40178(2) 1.27307(4) 0.037800(17)
O1B O 0.70145(17) 0.6660(3) 0.06522(12)
O2B O 0.75427(17) 0.5866(3) 0.16178(12)
O7B O 0.51589(17) 0.2317(3) -0.03239(12)
O9_2 O 0.37958(19) -0.0036(3) 0.00180(14)
O12_2 O 0.61086(19) 0.8800(3) 0.15788(13)
N4A N 0.5739(2) 0.4642(4) 0.23802(16)
H16A H 0.529(3) 0.507(5) 0.2446(19)
H17A H 0.567(3) 0.364(6) 0.240(2)
H21_2 H 0.423(4) -0.053(7) 0.019(3)
H24_2 H 0.573(3) 0.936(6) 0.137(2)
loop_
_geom_bond_atom_site_label_1
_geom_bond_atom_site_label_2
_geom_bond_site_symmetry_1
_geom_bond_site_symmetry_2
Sr1 O7 1_555 1_555
Sr2 O1 1_555 1_555
O1 C7 1_555 1_555
O2 C7 1_555 1_555
O3 C2 1_555 1_555
O4 Sr2 1_555 1_555
O5 Sr2 1_555 1_555
O6 C9 1_555 1_555
O7 C21 1_555 1_555
O8 Sr1 1_555 1_555
O9 C16 1_555 1_555
O10 Sr2 1_555 1_555
O11 Sr1 1_555 1_555
O12 C23 1_555 1_555
O13 Sr1 1_555 1_555
N1 C4 1_555 1_555
N2 C11 1_555 1_555
N3 C18 1_555 1_555
N4 C25 1_555 1_555
C1 C2 1_555 1_555
C2 C3 1_555 1_555
C3 H1 1_555 1_555
C4 C3 1_555 1_555
C5 C4 1_555 1_555
H2 C5 1_555 1_555
C6 C1 1_555 1_555
H3 C6 1_555 1_555
C7 C1 1_555 1_555
C8 C9 1_555 1_555
C9 C10 1_555 1_555
C10 H4 1_555 1_555
C11 C10 1_555 1_555
C12 C11 1_555 1_555
H5 C12 1_555 1_555
C13 C8 1_555 1_555
H6 C13 1_555 1_555
C14 O4 1_555 1_555
C15 C16 1_555 1_555
C16 C17 1_555 1_555
C17 H7 1_555 1_555
C18 C17 1_555 1_555
C19 C18 1_555 1_555
H8 C19 1_555 1_555
C20 C15 1_555 1_555
H9 C20 1_555 1_555
C21 O8 1_555 1_555
C22 C23 1_555 1_555
C23 C24 1_555 1_555
C24 H10 1_555 1_555
C25 C24 1_555 1_555
C26 C25 1_555 1_555
H11 C26 1_555 1_555
C27 C22 1_555 1_555
H12 C27 1_555 1_555
C28 O10 1_555 1_555
H13 O6 1_555 1_555
H14 N3 1_555 1_555
H15 N2 1_555 1_555
H16 N4 1_555 1_555
H17 N4 1_555 1_555
H18 N2 1_555 1_555
H19 N3 1_555 1_555
H20 N1 1_555 1_555
H21 O9 1_555 1_555
H22 O13 1_555 1_555
H23 O13 1_555 1_555
H24 O12 1_555 1_555
H25 O3 1_555 1_555
H26 N1 1_555 1_555
Sr1B O1 1_555 1_555
Sr1_2 O12 1_555 1_555
Sr1A N4 1_555 1_555
Sr2B O7 1_555 1_555
Sr2_2 O9 1_555 1_555
O1B Sr1 1_555 1_555
O2B Sr1 1_555 1_555
O7B Sr2 1_555 1_555
O9_2 Sr2 1_555 1_555
O12_2 Sr1 1_555 1_555
N4A Sr1 1_555 1_555
H16A N4A 1_555 1_555
H17A N4A 1_555 1_555
H21_2 O9_2 1_555 1_555
H24_2 O12_2 1_555 1_555
Sr2 O8 1_555 1_555
Sr2 O11 1_555 1_555
O2 Sr1B 1_555 1_555
O5 C14 1_555 1_555
O11 C28 1_555 1_555
C5 C6 1_555 1_555
C8 C14 1_555 1_555
C12 C13 1_555 1_555
C15 C21 1_555 1_555
C19 C20 1_555 1_555
C22 C28 1_555 1_555
C26 C27 1_555 1_555
Sr1B O7B 1_555 1_555
Sr2B O1B 1_555 1_555

#END
