
#######################################################################
#
#                 Cambridge Crystallographic Data Centre
#                                CCDC 
#
#######################################################################
#
# If this CIF has been generated from an entry in the Cambridge 
# Structural Database, then it will include bibliographic, chemical, 
# crystal, experimental, refinement or atomic coordinate data resulting 
# from the CCDC's data processing and validation procedures.
#
#######################################################################

data_UVAMUA
_symmetry_cell_setting           monoclinic
_symmetry_space_group_name_H-M   'C 2/c'
_symmetry_Int_Tables_number      15
_space_group_name_Hall           '-C 2yn'
loop_
_symmetry_equiv_pos_site_id
_symmetry_equiv_pos_as_xyz
1 x,y,z
2 -x,y,1/2-z
3 1/2+x,1/2+y,z
4 1/2-x,1/2+y,1/2-z
5 -x,-y,-z
6 x,-y,1/2+z
7 1/2-x,1/2-y,-z
8 1/2+x,1/2-y,1/2+z
_cell_length_a                   27.266(4)
_cell_length_b                   7.5708(11)
_cell_length_c                   21.833(3)
_cell_angle_alpha                90
_cell_angle_beta                 126.510(5)
_cell_angle_gamma                90
_cell_volume                     3622.42
loop_
_atom_site_label
_atom_site_type_symbol
_atom_site_fract_x
_atom_site_fract_y
_atom_site_fract_z
C1 C 0.89470(14) 0.4598(4) 0.13146(18)
C2 C 0.92144(14) 0.6140(4) 0.17216(18)
H1 H 0.9506 0.6715 0.1701
C3 C 0.90454(16) 0.6822(4) 0.2159(2)
C4 C 0.86321(14) 0.5981(5) 0.22211(19)
H2 H 0.8536 0.6424 0.2535
C5 C 0.83602(14) 0.4443(4) 0.18002(18)
C6 C 0.85061(14) 0.3779(5) 0.13427(18)
H3 H 0.8309 0.2775 0.1051
C7 C 0.91713(15) 0.3728(4) 0.09022(19)
C8 C 0.95371(19) 1.1235(5) 0.2790(2)
H4 H 0.9581 1.2427 0.2730
C9 C 0.92872(19) 1.0030(5) 0.2234(2)
H5 H 0.9133 1.0219 0.1728
C10 C 0.95671(17) 0.8798(5) 0.3293(2)
H6 H 0.9635 0.7949 0.3644
C11 C 0.7561(2) 0.2074(7) 0.2353(3)
H7 H 0.7524 0.1498 0.2699
C12 C 0.73606(18) 0.3071(5) 0.1323(2)
H8 H 0.7160 0.3352 0.0812
C13 C 0.8065(2) 0.2891(6) 0.2533(3)
H9 H 0.8431 0.3009 0.3017
C14 C 0.79654(15) 1.2188(5) 0.4918(2)
C15 C 0.76056(17) 1.3685(5) 0.4613(2)
H10 H 0.7669 1.4492 0.4345
C16 C 0.78472(16) 1.1012(5) 0.5295(2)
H11 H 0.8078 0.9985 0.5495
C17 C 0.84730(17) 1.1811(4) 0.4875(2)
H12 H 0.8677 1.0747 0.5087
C18 C 0.86711(17) 1.2800(5) 0.4574(2)
H13 H 0.8469 1.3850 0.4336
C19 C 0.92072(15) 1.2302(5) 0.4599(2)
Cd1 Cd 1.023800(10) 1.19197(3) 0.458804(13)
N1 N 0.97171(12) 1.0463(4) 0.34565(15)
N2 N 0.93027(13) 0.8473(4) 0.25550(17)
N3 N 0.71128(16) 0.2201(5) 0.1595(2)
N4 N 0.79421(13) 0.3505(4) 0.18795(17)
O1 O 0.96332(11) 0.4350(3) 0.09927(14)
O2 O 0.89074(13) 0.2350(4) 0.05266(17)
O3 O 0.93885(12) 1.3411(3) 0.43450(16)
O4 O 0.94716(12) 1.0851(3) 0.48490(16)
O5 O 1.08405(14) 1.3116(4) 0.57648(15)
H14 H 1.0757(18) 1.411(5) 0.573(2)
H15 H 1.114(2) 1.296(5) 0.588(3)
C1A C 1.10530(14) 1.4598(4) 0.36854(18)
C2A C 1.07856(14) 1.6140(4) 0.32784(18)
H1A H 1.0494 1.6715 0.3299
C3A C 1.09546(16) 1.6822(4) 0.2841(2)
C4A C 1.13679(14) 1.5981(5) 0.27789(19)
H2A H 1.1464 1.6424 0.2465
C5A C 1.16398(14) 1.4443(4) 0.31998(18)
C6A C 1.14939(14) 1.3779(5) 0.36573(18)
H3A H 1.1691 1.2775 0.3949
C7A C 1.08287(15) 1.3728(4) 0.40978(19)
C8A C 1.04629(19) 2.1235(5) 0.2210(2)
H4A H 1.0419 2.2427 0.2270
C9A C 1.07128(19) 2.0030(5) 0.2766(2)
H5A H 1.0867 2.0219 0.3272
C10A C 1.04329(17) 1.8798(5) 0.1707(2)
H6A H 1.0365 1.7949 0.1356
C11A C 1.2439(2) 1.2074(7) 0.2647(3)
H7A H 1.2476 1.1498 0.2301
C12A C 1.26394(18) 1.3071(5) 0.3677(2)
H8A H 1.2840 1.3352 0.4188
C13A C 1.1935(2) 1.2891(6) 0.2467(3)
H9A H 1.1569 1.3009 0.1983
C14F C 0.70346(15) 1.2812(5) 0.5082(2)
C15F C 0.73944(17) 1.1315(5) 0.5387(2)
H10F H 0.7331 1.0508 0.5655
C16F C 0.71528(16) 1.3988(5) 0.4705(2)
H11F H 0.6922 1.5015 0.4505
C17F C 0.65270(17) 1.3189(4) 0.5125(2)
H12F H 0.6323 1.4253 0.4913
C18F C 0.63289(17) 1.2200(5) 0.5426(2)
H13F H 0.6531 1.1150 0.5664
C19F C 0.57928(15) 1.2698(5) 0.5401(2)
Cd1A Cd 0.976200(10) 2.19197(3) 0.041196(13)
Cd1A_2 Cd 0.976200(10) 0.19197(3) 0.041196(13)
Cd1D Cd 0.976200(10) 0.80803(3) 0.541196(13)
Cd1F Cd 0.476200(10) 1.30803(3) 0.541196(13)
Cd1B Cd 0.523800(10) 1.69197(3) 0.458804(13)
N1A N 1.02829(12) 2.0463(4) 0.15435(15)
N2A N 1.06973(13) 1.8473(4) 0.24450(17)
N3A N 1.28872(16) 1.2201(5) 0.3405(2)
N4A N 1.20579(13) 1.3505(4) 0.31205(17)
O1A O 1.03668(11) 1.4350(3) 0.40073(14)
O1_2 O 0.96332(11) 2.4350(3) 0.09927(14)
O2A O 1.10926(13) 1.2350(4) 0.44734(17)
O2_2 O 0.89074(13) 2.2350(4) 0.05266(17)
O3F O 0.56115(12) 1.1589(3) 0.56550(16)
O3A O 1.06115(12) 2.3411(3) 0.06550(16)
O4F O 0.55284(12) 1.4149(3) 0.51510(16)
O4D O 1.05284(12) 0.9149(3) 0.51510(16)
O4A O 1.05284(12) 2.0851(3) 0.01510(16)
O4E O 0.94716(12) 1.9149(3) -0.01510(16)
O5A O 0.91595(14) 2.3116(4) -0.07648(15)
H14A H 0.9243(18) 2.411(5) -0.073(2)
H15A H 0.886(2) 2.296(5) -0.088(3)
loop_
_geom_bond_atom_site_label_1
_geom_bond_atom_site_label_2
_geom_bond_site_symmetry_1
_geom_bond_site_symmetry_2
C1 C2 1_555 1_555
C2 H1 1_555 1_555
C3 C2 1_555 1_555
C4 C3 1_555 1_555
H2 C4 1_555 1_555
C5 C4 1_555 1_555
C6 C1 1_555 1_555
H3 C6 1_555 1_555
C7 C1 1_555 1_555
C8 H4 1_555 1_555
C9 C8 1_555 1_555
H5 C9 1_555 1_555
C10 H6 1_555 1_555
C11 H7 1_555 1_555
C12 H8 1_555 1_555
C13 C11 1_555 1_555
H9 C13 1_555 1_555
C14 C15 1_555 1_555
C15 H10 1_555 1_555
C16 C14 1_555 1_555
H11 C16 1_555 1_555
C17 C14 1_555 1_555
H12 C17 1_555 1_555
C18 C17 1_555 1_555
H13 C18 1_555 1_555
C19 C18 1_555 1_555
Cd1 N1 1_555 1_555
N1 C8 1_555 1_555
N2 C3 1_555 1_555
N3 C11 1_555 1_555
N4 C5 1_555 1_555
O1 C7 1_555 1_555
O2 C7 1_555 1_555
O3 C19 1_555 1_555
O4 C19 1_555 1_555
O5 Cd1 1_555 1_555
H14 O5 1_555 1_555
H15 O5 1_555 1_555
C1A C2A 1_555 1_555
C2A H1A 1_555 1_555
C3A C2A 1_555 1_555
C4A C3A 1_555 1_555
H2A C4A 1_555 1_555
C5A C4A 1_555 1_555
C6A C1A 1_555 1_555
H3A C6A 1_555 1_555
C7A C1A 1_555 1_555
C8A H4A 1_555 1_555
C9A C8A 1_555 1_555
H5A C9A 1_555 1_555
C10A H6A 1_555 1_555
C11A H7A 1_555 1_555
C12A H8A 1_555 1_555
C13A C11A 1_555 1_555
H9A C13A 1_555 1_555
C14F C15F 1_555 1_555
C15F C16 1_555 1_555
H10F C15F 1_555 1_555
C16F C15 1_555 1_555
H11F C16F 1_555 1_555
C17F C14F 1_555 1_555
H12F C17F 1_555 1_555
C18F C17F 1_555 1_555
H13F C18F 1_555 1_555
C19F C18F 1_555 1_555
Cd1A N1A 1_555 1_555
Cd1A_2 O1 1_555 1_555
Cd1D O4 1_555 1_555
Cd1F O3F 1_555 1_555
Cd1B O4F 1_555 1_555
N1A C8A 1_555 1_555
N2A C3A 1_555 1_555
N3A C11A 1_555 1_555
N4A C5A 1_555 1_555
O1A Cd1 1_555 1_555
O1_2 Cd1A 1_555 1_555
O2A Cd1 1_555 1_555
O2_2 Cd1A 1_555 1_555
O3F C19F 1_555 1_555
O3A Cd1A 1_555 1_555
O4F C19F 1_555 1_555
O4D Cd1 1_555 1_555
O4A Cd1A 1_555 1_555
O4E Cd1A 1_555 1_555
O5A Cd1A 1_555 1_555
H14A O5A 1_555 1_555
H15A O5A 1_555 1_555
C5 C6 1_555 1_555
C9 N2 1_555 1_555
C10 N1 1_555 1_555
C10 N2 1_555 1_555
C12 N3 1_555 1_555
C12 N4 1_555 1_555
C13 N4 1_555 1_555
Cd1 O3 1_555 1_555
Cd1 O4 1_555 1_555
O2 Cd1A_2 1_555 1_555
C5A C6A 1_555 1_555
C7A O1A 1_555 1_555
C7A O2A 1_555 1_555
C9A N2A 1_555 1_555
C10A N1A 1_555 1_555
C10A N2A 1_555 1_555
C12A N3A 1_555 1_555
C12A N4A 1_555 1_555
C13A N4A 1_555 1_555
C14F C16F 1_555 1_555
Cd1D O4D 1_555 1_555
Cd1F O4F 1_555 1_555

#END
