
#######################################################################
#
#                 Cambridge Crystallographic Data Centre
#                                CCDC 
#
#######################################################################
#
# If this CIF has been generated from an entry in the Cambridge 
# Structural Database, then it will include bibliographic, chemical, 
# crystal, experimental, refinement or atomic coordinate data resulting 
# from the CCDC's data processing and validation procedures.
#
#######################################################################

data_UVAMOU
_symmetry_cell_setting           monoclinic
_symmetry_space_group_name_H-M   'P 21/n'
_symmetry_Int_Tables_number      14
_space_group_name_Hall           '-P 2yn'
loop_
_symmetry_equiv_pos_site_id
_symmetry_equiv_pos_as_xyz
1 x,y,z
2 1/2-x,1/2+y,1/2-z
3 -x,-y,-z
4 1/2+x,1/2-y,1/2+z
_cell_length_a                   6.0110(8)
_cell_length_b                   17.257(2)
_cell_length_c                   14.755(2)
_cell_angle_alpha                90
_cell_angle_beta                 90.591(3)
_cell_angle_gamma                90
_cell_volume                     1530.48
loop_
_atom_site_label
_atom_site_type_symbol
_atom_site_fract_x
_atom_site_fract_y
_atom_site_fract_z
C1 C 1.0182(6) 0.9730(2) 0.6406(3)
C2 C 1.1195(6) 0.9344(2) 0.5704(3)
H1 H 1.2512 0.9533 0.5463
C3 C 1.0252(6) 0.8681(2) 0.5362(3)
C4 C 0.8304(6) 0.8389(2) 0.5708(3)
H2 H 0.7659 0.7945 0.5464
C5 C 0.7324(6) 0.8773(2) 0.6429(3)
C6 C 0.8221(6) 0.9448(2) 0.6772(3)
H3 H 0.7526 0.9710 0.7241
C7 C 1.1348(6) 1.0420(2) 0.6826(3)
C8 C 1.1079(7) 0.7523(2) 0.4396(3)
H4 H 1.0165 0.7159 0.4671
C9 C 1.2411(7) 0.7407(2) 0.3682(3)
H5 H 1.2554 0.6940 0.3374
C10 C 1.2818(7) 0.8584(2) 0.4067(3)
H6 H 1.3290 0.9097 0.4090
C11 C 0.4077(6) 0.8791(2) 0.7473(3)
H7 H 0.4232 0.9289 0.7706
C12 C 0.2529(7) 0.8263(2) 0.7694(3)
H8 H 0.1410 0.8343 0.8115
C13 C 0.4575(6) 0.7720(2) 0.6713(3)
H9 H 0.5187 0.7358 0.6322
C14 C -0.3125(8) 0.5412(2) 0.5388(3)
H10 H -0.2249 0.5402 0.4832
C15 C -0.3473(7) 0.4575(2) 0.5604(3)
H11 H -0.4221 0.4531 0.6181
H12 H -0.2041 0.4320 0.5660
C16 C -0.5141(8) 0.5829(2) 0.5127(3)
H13 H -0.4729 0.6340 0.4911
H14 H -0.6051 0.5899 0.5660
C17 C -0.1635(7) 0.5831(2) 0.6063(3)
Cd1 Cd 0.09308(4) 0.648586(15) 0.73839(2)
N1 N 1.3528(5) 0.80749(18) 0.3474(2)
N2 N 1.1332(5) 0.82763(18) 0.4636(2)
N3 N 0.2828(5) 0.75915(17) 0.7215(2)
N4 N 0.5379(5) 0.84454(17) 0.6833(2)
O1 O 1.3143(5) 1.06254(17) 0.6465(2)
O2 O 1.0590(5) 1.07380(17) 0.7502(2)
O3 O -0.1517(5) 0.65560(14) 0.6053(2)
O4 O -0.0470(4) 0.54477(16) 0.6613(2)
C1B C -2.0182(6) 0.0270(2) 0.3594(3)
C2B C -2.1195(6) 0.0656(2) 0.4296(3)
H1B H -2.2512 0.0467 0.4537
C3B C -2.0252(6) 0.1319(2) 0.4638(3)
C4B C -1.8304(6) 0.1611(2) 0.4292(3)
H2B H -1.7659 0.2055 0.4536
C5B C -1.7324(6) 0.1227(2) 0.3571(3)
C6B C -1.8221(6) 0.0552(2) 0.3228(3)
H3B H -1.7526 0.0290 0.2759
C7B C -2.1348(6) -0.0420(2) 0.3174(3)
C8B C -2.1079(7) 0.2477(2) 0.5604(3)
H4B H -2.0165 0.2841 0.5329
C9B C -2.2411(7) 0.2593(2) 0.6318(3)
H5B H -2.2554 0.3060 0.6626
C10B C -2.2818(7) 0.1416(2) 0.5933(3)
H6B H -2.3290 0.0903 0.5910
C11B C -1.4077(6) 0.1209(2) 0.2527(3)
H7B H -1.4232 0.0711 0.2294
C12B C -1.2529(7) 0.1737(2) 0.2306(3)
H8B H -1.1410 0.1657 0.1885
C13B C -1.4575(6) 0.2280(2) 0.3287(3)
H9B H -1.5187 0.2642 0.3678
C14B C -0.6875(8) 0.4588(2) 0.4612(3)
H10B H -0.7751 0.4598 0.5168
C15B C -0.6527(7) 0.5425(2) 0.4396(3)
H11B H -0.5779 0.5469 0.3819
H12B H -0.7959 0.5680 0.4340
C16B C -0.4859(8) 0.4171(2) 0.4873(3)
H13B H -0.5271 0.3660 0.5089
H14B H -0.3949 0.4101 0.4340
C17B C -0.8365(7) 0.4169(2) 0.3937(3)
Cd1B Cd -1.09308(4) 0.351414(15) 0.26161(2)
Cd1A Cd -2.59308(4) 0.148586(15) 0.76161(2)
Cd1A_2 Cd 1.40692(4) 1.148586(15) 0.76161(2)
Cd1C Cd -2.40692(4) -0.148586(15) 0.23839(2)
Cd1C_2 Cd 1.59308(4) 0.851414(15) 0.23839(2)
N1B N -2.3528(5) 0.19251(18) 0.6526(2)
N1A N -0.8528(5) 0.30749(18) 0.1526(2)
N1C N -0.1472(5) 0.69251(18) 0.8474(2)
N2B N -2.1332(5) 0.17237(18) 0.5364(2)
N3B N -1.2828(5) 0.24085(17) 0.2785(2)
N4B N -1.5379(5) 0.15546(17) 0.3167(2)
O1B O -2.3143(5) -0.06254(17) 0.3535(2)
O1A O 0.1857(5) 0.56254(17) 0.8535(2)
O1C O -1.1857(5) 0.43746(17) 0.1465(2)
O2B O -2.0590(5) -0.07380(17) 0.2498(2)
O2A O 0.4410(5) 0.57380(17) 0.7498(2)
O2C O -1.4410(5) 0.42620(17) 0.2502(2)
O3B O -0.8483(5) 0.34440(14) 0.3947(2)
O4B O -0.9530(4) 0.45523(16) 0.3387(2)
loop_
_geom_bond_atom_site_label_1
_geom_bond_atom_site_label_2
_geom_bond_site_symmetry_1
_geom_bond_site_symmetry_2
C1 C2 1_555 1_555
C2 H1 1_555 1_555
C3 C2 1_555 1_555
C4 C3 1_555 1_555
H2 C4 1_555 1_555
C5 C4 1_555 1_555
C6 C1 1_555 1_555
H3 C6 1_555 1_555
C7 C1 1_555 1_555
C8 H4 1_555 1_555
C9 C8 1_555 1_555
H5 C9 1_555 1_555
C10 H6 1_555 1_555
C11 H7 1_555 1_555
C12 C11 1_555 1_555
H8 C12 1_555 1_555
C13 H9 1_555 1_555
C14 H10 1_555 1_555
C15 C14 1_555 1_555
H11 C15 1_555 1_555
H12 C15 1_555 1_555
C16 C14 1_555 1_555
H13 C16 1_555 1_555
H14 C16 1_555 1_555
C17 C14 1_555 1_555
Cd1 N3 1_555 1_555
N1 C9 1_555 1_555
N2 C3 1_555 1_555
N3 C12 1_555 1_555
N4 C5 1_555 1_555
O1 C7 1_555 1_555
O2 C7 1_555 1_555
O3 C17 1_555 1_555
O4 C17 1_555 1_555
C1B C2B 1_555 1_555
C2B H1B 1_555 1_555
C3B C2B 1_555 1_555
C4B C3B 1_555 1_555
H2B C4B 1_555 1_555
C5B C4B 1_555 1_555
C6B C1B 1_555 1_555
H3B C6B 1_555 1_555
C7B C1B 1_555 1_555
C8B H4B 1_555 1_555
C9B C8B 1_555 1_555
H5B C9B 1_555 1_555
C10B H6B 1_555 1_555
C11B H7B 1_555 1_555
C12B C11B 1_555 1_555
H8B C12B 1_555 1_555
C13B H9B 1_555 1_555
C14B H10B 1_555 1_555
C15B C16 1_555 1_555
H11B C15B 1_555 1_555
H12B C15B 1_555 1_555
C16B C15 1_555 1_555
H13B C16B 1_555 1_555
H14B C16B 1_555 1_555
C17B C14B 1_555 1_555
Cd1B N1A 1_555 1_555
Cd1A N1B 1_555 1_555
Cd1A_2 O1 1_555 1_555
Cd1C O1B 1_555 1_555
Cd1C_2 N1 1_555 1_555
N1B C9B 1_555 1_555
N1C Cd1 1_555 1_555
N2B C3B 1_555 1_555
N3B C12B 1_555 1_555
N4B C5B 1_555 1_555
O1B C7B 1_555 1_555
O1A Cd1 1_555 1_555
O1C Cd1B 1_555 1_555
O2B C7B 1_555 1_555
O2A Cd1 1_555 1_555
O2C Cd1B 1_555 1_555
O3B C17B 1_555 1_555
O4B C17B 1_555 1_555
C5 C6 1_555 1_555
C8 N2 1_555 1_555
C10 N1 1_555 1_555
C10 N2 1_555 1_555
C11 N4 1_555 1_555
C13 N3 1_555 1_555
C13 N4 1_555 1_555
Cd1 O3 1_555 1_555
Cd1 O4 1_555 1_555
O2 Cd1A_2 1_555 1_555
C5B C6B 1_555 1_555
C8B N2B 1_555 1_555
C10B N1B 1_555 1_555
C10B N2B 1_555 1_555
C11B N4B 1_555 1_555
C13B N3B 1_555 1_555
C13B N4B 1_555 1_555
C14B C15B 1_555 1_555
C14B C16B 1_555 1_555
Cd1B N3B 1_555 1_555
Cd1B O3B 1_555 1_555
Cd1B O4B 1_555 1_555
Cd1C O2B 1_555 1_555

#END
