
#######################################################################
#
#                 Cambridge Crystallographic Data Centre
#                                CCDC 
#
#######################################################################
#
# If this CIF has been generated from an entry in the Cambridge 
# Structural Database, then it will include bibliographic, chemical, 
# crystal, experimental, refinement or atomic coordinate data resulting 
# from the CCDC's data processing and validation procedures.
#
#######################################################################

data_UVAPAJ
_symmetry_cell_setting           triclinic
_symmetry_space_group_name_H-M   'P -1'
_symmetry_Int_Tables_number      2
_space_group_name_Hall           '-P 1'
loop_
_symmetry_equiv_pos_site_id
_symmetry_equiv_pos_as_xyz
1 x,y,z
2 -x,-y,-z
_cell_length_a                   9.272(2)
_cell_length_b                   10.852(3)
_cell_length_c                   11.186(3)
_cell_angle_alpha                87.315(6)
_cell_angle_beta                 72.896(6)
_cell_angle_gamma                69.683(6)
_cell_volume                     1006.91
loop_
_atom_site_label
_atom_site_type_symbol
_atom_site_fract_x
_atom_site_fract_y
_atom_site_fract_z
C1 C 0.6996(6) 0.5594(5) 0.8890(5)
H1 H 0.6239 0.6215 0.9548
C2 C 0.8326(7) 0.4585(6) 0.7057(5)
H2 H 0.8656 0.4381 0.6180
C3 C 0.9028(7) 0.3846(6) 0.7870(5)
H3 H 0.9926 0.3047 0.7680
C4 C 0.8579(7) 0.4151(6) 1.0183(5)
C5 C 1.0025(7) 0.3186(6) 1.0150(6)
H4 H 1.0749 0.2710 0.9392
C6 C 1.0375(8) 0.2942(6) 1.1287(6)
H5 H 1.1348 0.2277 1.1323
C7 C 0.9306(7) 0.3666(6) 1.2346(6)
H6 H 0.9515 0.3508 1.3132
C8 C 0.7912(7) 0.4634(6) 1.2250(6)
C9 C 0.7214(7) 0.5749(6) 1.4301(5)
H7 H 0.8283 0.5454 1.4357
C10 C 0.5175(7) 0.6090(6) 1.3577(6)
H8 H 0.4533 0.6087 1.3054
C11 C 0.4660(7) 0.6711(6) 1.4694(6)
H9 H 0.3572 0.7225 1.5110
C12 C 0.3310(7) 0.8515(6) 0.8698(6)
C13 C 0.1606(7) 0.9300(6) 0.9365(6)
C14 C 0.1097(7) 0.9478(6) 1.0658(6)
H10 H 0.1852 0.9113 1.1112
C15 C 0.0491(7) 0.9821(6) 0.8695(6)
H11 H 0.0820 0.9696 0.7808
C16 C 0.8365(7) 0.8133(6) 0.5775(6)
C17 C 0.9191(7) 0.9107(6) 0.5377(5)
C18 C 1.0697(7) 0.8731(6) 0.4484(6)
H12 H 1.1182 0.7855 0.4122
C19 C 0.8510(7) 1.0397(6) 0.5881(5)
H13 H 0.7479 1.0679 0.6487
N1 N 0.7057(6) 0.5680(5) 0.7678(4)
N2 N 0.8177(6) 0.4487(5) 0.9037(4)
N3 N 0.7530(6) 0.4883(5) 1.1176(4)
N4 N 0.6807(6) 0.5447(5) 1.3312(4)
N5 N 0.5953(5) 0.6500(5) 1.5170(4)
O1 O 0.3624(5) 0.8114(5) 0.7565(4)
O2 O 0.4382(5) 0.8294(5) 0.9221(4)
O3 O 0.6902(5) 0.8578(4) 0.6525(4)
O4 O 0.9071(5) 0.6960(4) 0.5390(4)
Zn1 Zn 0.59311(8) 0.72132(7) 0.68154(6)
C1A C -0.6996(6) 1.4406(5) 1.1110(5)
H1A H -0.6239 1.3785 1.0452
C2A C -0.8326(7) 1.5415(6) 1.2943(5)
H2A H -0.8656 1.5619 1.3820
C3A C -0.9028(7) 1.6154(6) 1.2130(5)
H3A H -0.9926 1.6953 1.2320
C4A C -0.8579(7) 1.5849(6) 0.9817(5)
C5A C -1.0025(7) 1.6814(6) 0.9850(6)
H4A H -1.0749 1.7290 1.0608
C6A C -1.0375(8) 1.7058(6) 0.8713(6)
H5A H -1.1348 1.7723 0.8677
C7A C -0.9306(7) 1.6334(6) 0.7654(6)
H6A H -0.9515 1.6492 0.6868
C8A C -0.7912(7) 1.5366(6) 0.7750(6)
C9A C -0.7214(7) 1.4251(6) 0.5699(5)
H7A H -0.8283 1.4546 0.5643
C10A C -0.5175(7) 1.3910(6) 0.6423(6)
H8A H -0.4533 1.3913 0.6946
C11A C -0.4660(7) 1.3289(6) 0.5306(6)
H9A H -0.3572 1.2775 0.4890
C12A C -0.3310(7) 1.1485(6) 1.1302(6)
C13A C -0.1606(7) 1.0700(6) 1.0635(6)
C14A C -0.1097(7) 1.0522(6) 0.9342(6)
H10A H -0.1852 1.0887 0.8888
C15A C -0.0491(7) 1.0179(6) 1.1305(6)
H11A H -0.0820 1.0304 1.2192
C16A C 1.1635(7) 1.1867(6) 0.4225(6)
C17A C 1.0809(7) 1.0893(6) 0.4623(5)
C18A C 0.9303(7) 1.1269(6) 0.5516(6)
H12A H 0.8818 1.2145 0.5878
C19A C 1.1490(7) 0.9603(6) 0.4119(5)
H13A H 1.2521 0.9321 0.3513
N1A N -0.7057(6) 1.4320(5) 1.2322(4)
N2A N -0.8177(6) 1.5513(5) 1.0963(4)
N3A N -0.7530(6) 1.5117(5) 0.8824(4)
N4A N -0.6807(6) 1.4553(5) 0.6688(4)
N5A N -0.5953(5) 1.3500(5) 0.4830(4)
N5_2 N 0.5953(5) 0.6500(5) 0.5170(4)
N5A_2 N -0.5953(5) 1.3500(5) 1.4830(4)
O1A O -0.3624(5) 1.1886(5) 1.2435(4)
O2A O -0.4382(5) 1.1706(5) 1.0779(4)
O3A O 1.3098(5) 1.1422(4) 0.3475(4)
O3A_2 O -0.6902(5) 1.1422(4) 1.3475(4)
O4A O 1.0929(5) 1.3040(4) 0.4610(4)
Zn1A Zn -0.59311(8) 1.27868(7) 1.31846(6)
Zn1_2 Zn 0.59311(8) 0.72132(7) 1.68154(6)
Zn1A_2 Zn -0.59311(8) 1.27868(7) 0.31846(6)
Zn1A_3 Zn 1.40689(8) 1.27868(7) 0.31846(6)
O5 O 0.4877(6) 0.9045(5) 0.1388(5)
H16 H 0.5871 0.9018 0.0607
H17 H 0.4174 0.9051 0.0786
O6 O 0.2760(6) 0.1743(5) 0.7342(5)
H14 H 0.3335 0.1537 0.7734
H15 H 0.3166 0.0981 0.6792
loop_
_geom_bond_atom_site_label_1
_geom_bond_atom_site_label_2
_geom_bond_site_symmetry_1
_geom_bond_site_symmetry_2
C1 H1 1_555 1_555
C2 H2 1_555 1_555
C3 C2 1_555 1_555
H3 C3 1_555 1_555
C4 C5 1_555 1_555
C5 H4 1_555 1_555
C6 C5 1_555 1_555
H5 C6 1_555 1_555
C7 C6 1_555 1_555
H6 C7 1_555 1_555
C8 C7 1_555 1_555
C9 H7 1_555 1_555
C10 H8 1_555 1_555
C11 C10 1_555 1_555
H9 C11 1_555 1_555
C12 C13 1_555 1_555
C13 C14 1_555 1_555
C14 H10 1_555 1_555
C15 C13 1_555 1_555
H11 C15 1_555 1_555
C16 C17 1_555 1_555
C17 C18 1_555 1_555
C18 H12 1_555 1_555
C19 C17 1_555 1_555
H13 C19 1_555 1_555
N1 C1 1_555 1_555
N2 C1 1_555 1_555
N3 C4 1_555 1_555
N4 C8 1_555 1_555
N5 C9 1_555 1_555
O1 C12 1_555 1_555
O2 C12 1_555 1_555
O3 C16 1_555 1_555
O4 C16 1_555 1_555
O5 H16 1_555 1_555
O6 H14 1_555 1_555
H15 O6 1_555 1_555
Zn1 N1 1_555 1_555
H17 O5 1_555 1_555
C1A H1A 1_555 1_555
C2A H2A 1_555 1_555
C3A C2A 1_555 1_555
H3A C3A 1_555 1_555
C4A C5A 1_555 1_555
C5A H4A 1_555 1_555
C6A C5A 1_555 1_555
H5A C6A 1_555 1_555
C7A C6A 1_555 1_555
H6A C7A 1_555 1_555
C8A C7A 1_555 1_555
C9A H7A 1_555 1_555
C10A H8A 1_555 1_555
C11A C10A 1_555 1_555
H9A C11A 1_555 1_555
C12A C13A 1_555 1_555
C13A C14A 1_555 1_555
C14A C15 1_555 1_555
H10A C14A 1_555 1_555
C15A C14 1_555 1_555
H11A C15A 1_555 1_555
C16A C17A 1_555 1_555
C17A C18A 1_555 1_555
C18A C19 1_555 1_555
H12A C18A 1_555 1_555
C19A C18 1_555 1_555
H13A C19A 1_555 1_555
N1A C1A 1_555 1_555
N2A C1A 1_555 1_555
N3A C4A 1_555 1_555
N4A C8A 1_555 1_555
N5A C9A 1_555 1_555
N5_2 Zn1 1_555 1_555
N5A_2 Zn1A 1_555 1_555
O1A C12A 1_555 1_555
O2A C12A 1_555 1_555
O3A C16A 1_555 1_555
O3A_2 Zn1A 1_555 1_555
O4A C16A 1_555 1_555
Zn1A N1A 1_555 1_555
Zn1_2 N5 1_555 1_555
Zn1A_2 N5A 1_555 1_555
Zn1A_3 O3A 1_555 1_555
C2 N1 1_555 1_555
C3 N2 1_555 1_555
C4 N2 1_555 1_555
C8 N3 1_555 1_555
C9 N4 1_555 1_555
C10 N4 1_555 1_555
C11 N5 1_555 1_555
O1 Zn1 1_555 1_555
O3 Zn1 1_555 1_555
C2A N1A 1_555 1_555
C3A N2A 1_555 1_555
C4A N2A 1_555 1_555
C8A N3A 1_555 1_555
C9A N4A 1_555 1_555
C10A N4A 1_555 1_555
C11A N5A 1_555 1_555
C13A C15A 1_555 1_555
C17A C19A 1_555 1_555
O1A Zn1A 1_555 1_555

#END
