
#######################################################################
#
#                 Cambridge Crystallographic Data Centre
#                                CCDC 
#
#######################################################################
#
# If this CIF has been generated from an entry in the Cambridge 
# Structural Database, then it will include bibliographic, chemical, 
# crystal, experimental, refinement or atomic coordinate data resulting 
# from the CCDC's data processing and validation procedures.
#
#######################################################################

data_UVAPEN
_symmetry_cell_setting           triclinic
_symmetry_space_group_name_H-M   'P -1'
_symmetry_Int_Tables_number      2
_space_group_name_Hall           '-P 1'
loop_
_symmetry_equiv_pos_site_id
_symmetry_equiv_pos_as_xyz
1 x,y,z
2 -x,-y,-z
_cell_length_a                   6.5769(11)
_cell_length_b                   10.8765(18)
_cell_length_c                   15.686(3)
_cell_angle_alpha                98.094(5)
_cell_angle_beta                 101.276(3)
_cell_angle_gamma                96.389(4)
_cell_volume                     1078.26
loop_
_atom_site_label
_atom_site_type_symbol
_atom_site_fract_x
_atom_site_fract_y
_atom_site_fract_z
N1 N 0.7706(5) 0.6170(3) 0.21870(19)
C1 C 0.6060(6) 0.6495(3) 0.2569(3)
C2 C 0.4831(6) 0.5457(4) 0.2643(3)
C3 C 0.7436(6) 0.4939(3) 0.2023(2)
H1 H 0.8317 0.4450 0.1750
N2 N 0.5709(5) 0.4457(3) 0.2298(2)
C4 C 0.4927(6) 0.3169(3) 0.2198(2)
N3 N 0.6099(5) 0.2388(3) 0.1869(2)
C5 C 0.3071(6) 0.2796(4) 0.2446(3)
H2 H 0.2277 0.3393 0.2671
H3 H 0.5835 0.7332 0.2753
H4 H 0.3614 0.5420 0.2887
C6 C 0.2421(7) 0.1523(4) 0.2352(3)
H5 H 0.1172 0.1228 0.2524
C7 C 0.3593(6) 0.0679(4) 0.2008(3)
H6 H 0.3169 -0.0201 0.1927
C8 C 0.5400(6) 0.1170(3) 0.1788(3)
C9 C 0.7373(6) -0.0604(3) 0.1885(3)
H7 H 0.7021 -0.0786 0.2418
C10 C 0.8646(6) -0.0675(3) 0.0720(3)
H8 H 0.9379 -0.0939 0.0278
C11 C 0.7526(6) 0.0305(3) 0.0723(3)
H9 H 0.7342 0.0851 0.0300
C12 C 1.1715(6) -0.1299(3) 0.3519(2)
C13 C 1.3437(6) -0.0632(4) 0.4279(3)
C14 C 1.5489(7) -0.0843(4) 0.4358(3)
H10 H 1.5848 -0.1420 0.3918
H11 H 1.1565 0.0402 0.4884
C15 C 1.2962(6) 0.0228(4) 0.4930(3)
C16 C 1.2430(6) -0.3329(4) 0.0762(2)
C17 C 1.3727(6) -0.4201(3) 0.0353(2)
C18 C 1.3333(6) -0.5494(3) 0.0327(2)
H12 H 1.2189 -0.5840 0.0548
C19 C 1.5400(6) -0.3721(3) 0.0019(2)
H13 H 1.5679 -0.2843 0.0028
N4 N 0.6716(5) 0.0335(3) 0.1471(2)
N5 N 0.8559(5) -0.1230(3) 0.1458(2)
O1 O 1.1076(4) -0.3845(2) 0.11380(17)
O2 O 0.9865(4) -0.1192(3) 0.35434(18)
O3 O 1.2297(4) -0.1928(2) 0.28930(17)
O4 O 1.2753(5) -0.2193(2) 0.07515(19)
Zn1 Zn 0.99657(7) -0.26526(4) 0.18932(3)
N1A N 2.2294(5) -1.6170(3) -0.21870(19)
N1_2 N 0.7706(5) -0.3830(3) 0.21870(19)
N1A_2 N 2.2294(5) -0.6170(3) -0.21870(19)
C1A C 2.3940(6) -1.6495(3) -0.2569(3)
C2A C 2.5169(6) -1.5457(4) -0.2643(3)
C3A C 2.2564(6) -1.4939(3) -0.2023(2)
H1A H 2.1683 -1.4450 -0.1750
N2A N 2.4291(5) -1.4457(3) -0.2298(2)
C4A C 2.5073(6) -1.3169(3) -0.2198(2)
N3A N 2.3901(5) -1.2388(3) -0.1869(2)
C5A C 2.6929(6) -1.2796(4) -0.2446(3)
H2A H 2.7723 -1.3393 -0.2671
H3A H 2.4165 -1.7332 -0.2753
H4A H 2.6386 -1.5420 -0.2887
C6A C 2.7579(7) -1.1523(4) -0.2352(3)
H5A H 2.8828 -1.1228 -0.2524
C7A C 2.6407(6) -1.0679(4) -0.2008(3)
H6A H 2.6831 -0.9799 -0.1927
C8A C 2.4600(6) -1.1170(3) -0.1788(3)
C9A C 2.2627(6) -0.9396(3) -0.1885(3)
H7A H 2.2979 -0.9214 -0.2418
C10A C 2.1354(6) -0.9325(3) -0.0720(3)
H8A H 2.0621 -0.9061 -0.0278
C11A C 2.2474(6) -1.0305(3) -0.0723(3)
H9A H 2.2658 -1.0851 -0.0300
C12A C 1.8285(6) 0.1299(3) 0.6481(2)
C13A C 1.6563(6) 0.0632(4) 0.5721(3)
C14A C 1.4511(7) 0.0843(4) 0.5642(3)
H10A H 1.4152 0.1420 0.6082
H11A H 1.8435 -0.0402 0.5116
C15A C 1.7038(6) -0.0228(4) 0.5070(3)
C16A C 1.7570(6) -0.6671(4) -0.0762(2)
C17A C 1.6273(6) -0.5799(3) -0.0353(2)
C18A C 1.6667(6) -0.4506(3) -0.0327(2)
H12A H 1.7811 -0.4160 -0.0548
C19A C 1.4600(6) -0.6279(3) -0.0019(2)
H13A H 1.4321 -0.7157 -0.0028
N4A N 2.3284(5) -1.0335(3) -0.1471(2)
N5A N 2.1441(5) -0.8770(3) -0.1458(2)
O1A O 1.8924(4) -0.6155(2) -0.11380(17)
O2A O 2.0135(4) 0.1192(3) 0.64566(18)
O3A O 1.7703(4) 0.1928(2) 0.71070(17)
O3A_2 O 1.7703(4) -0.8072(2) -0.28930(17)
O4A O 1.7247(5) -0.7807(2) -0.07515(19)
Zn1A Zn 2.00343(7) -0.73474(4) -0.18932(3)
Zn1_2 Zn 0.99657(7) 0.73474(4) 0.18932(3)
Zn1A_2 Zn 2.00343(7) -1.73474(4) -0.18932(3)
Zn1A_3 Zn 2.00343(7) 0.26526(4) 0.81068(3)
C20 C 0.3658(12) 0.6469(7) 0.5368(5)
H14 H 0.3679 0.5920 0.5813
H15 H 0.4401 0.7304 0.5647
H16 H 0.4350 0.6116 0.4909
C21 C 0.0641(17) 0.7382(7) 0.5556(6)
H17 H -0.0789 0.7436 0.5252
H18 H 0.1466 0.8221 0.5699
H19 H 0.0600 0.7045 0.6101
C22 C 0.0603(10) 0.5839(6) 0.4207(4)
H20 H -0.0787 0.5972 0.3976
N6 N 0.1594(9) 0.6563(5) 0.4991(3)
O5 O 0.1322(7) 0.5023(4) 0.3760(3)
loop_
_geom_bond_atom_site_label_1
_geom_bond_atom_site_label_2
_geom_bond_site_symmetry_1
_geom_bond_site_symmetry_2
N1 C1 1_555 1_555
C1 C2 1_555 1_555
C2 N2 1_555 1_555
C3 N1 1_555 1_555
H1 C3 1_555 1_555
N2 C3 1_555 1_555
C4 N2 1_555 1_555
N3 C4 1_555 1_555
C5 C4 1_555 1_555
H2 C5 1_555 1_555
H3 C1 1_555 1_555
H4 C2 1_555 1_555
C6 C5 1_555 1_555
H5 C6 1_555 1_555
C7 C6 1_555 1_555
H6 C7 1_555 1_555
C8 N3 1_555 1_555
C9 H7 1_555 1_555
C10 H8 1_555 1_555
C11 C10 1_555 1_555
H9 C11 1_555 1_555
C12 C13 1_555 1_555
C13 C14 1_555 1_555
C14 H10 1_555 1_555
H11 C15 1_555 1_555
C15 C13 1_555 1_555
C16 C17 1_555 1_555
C17 C18 1_555 1_555
C18 H12 1_555 1_555
C19 C17 1_555 1_555
H13 C19 1_555 1_555
N4 C8 1_555 1_555
N5 C9 1_555 1_555
O1 C16 1_555 1_555
O2 C12 1_555 1_555
O3 C12 1_555 1_555
O4 C16 1_555 1_555
Zn1 N5 1_555 1_555
C20 H14 1_555 1_555
H15 C20 1_555 1_555
H16 C20 1_555 1_555
C21 H17 1_555 1_555
H18 C21 1_555 1_555
H19 C21 1_555 1_555
C22 H20 1_555 1_555
N6 C20 1_555 1_555
O5 C22 1_555 1_555
N1A C1A 1_555 1_555
N1_2 Zn1 1_555 1_555
N1A_2 Zn1A 1_555 1_555
C1A C2A 1_555 1_555
C2A N2A 1_555 1_555
C3A N1A 1_555 1_555
H1A C3A 1_555 1_555
N2A C3A 1_555 1_555
C4A N2A 1_555 1_555
N3A C4A 1_555 1_555
C5A C4A 1_555 1_555
H2A C5A 1_555 1_555
H3A C1A 1_555 1_555
H4A C2A 1_555 1_555
C6A C5A 1_555 1_555
H5A C6A 1_555 1_555
C7A C6A 1_555 1_555
H6A C7A 1_555 1_555
C8A N3A 1_555 1_555
C9A H7A 1_555 1_555
C10A H8A 1_555 1_555
C11A C10A 1_555 1_555
H9A C11A 1_555 1_555
C12A C13A 1_555 1_555
C13A C14A 1_555 1_555
C14A C15 1_555 1_555
H10A C14A 1_555 1_555
H11A C15A 1_555 1_555
C15A C14 1_555 1_555
C16A C17A 1_555 1_555
C17A C18A 1_555 1_555
C18A C19 1_555 1_555
H12A C18A 1_555 1_555
C19A C18 1_555 1_555
H13A C19A 1_555 1_555
N4A C8A 1_555 1_555
N5A C9A 1_555 1_555
O1A C16A 1_555 1_555
O2A C12A 1_555 1_555
O3A C12A 1_555 1_555
O3A_2 Zn1A 1_555 1_555
O4A C16A 1_555 1_555
Zn1A N5A 1_555 1_555
Zn1_2 N1 1_555 1_555
Zn1A_2 N1A 1_555 1_555
Zn1A_3 O3A 1_555 1_555
C7 C8 1_555 1_555
C9 N4 1_555 1_555
C10 N5 1_555 1_555
C11 N4 1_555 1_555
O1 Zn1 1_555 1_555
O3 Zn1 1_555 1_555
C21 N6 1_555 1_555
C22 N6 1_555 1_555
C7A C8A 1_555 1_555
C9A N4A 1_555 1_555
C10A N5A 1_555 1_555
C11A N4A 1_555 1_555
C13A C15A 1_555 1_555
C17A C19A 1_555 1_555
O1A Zn1A 1_555 1_555

#END
