
#######################################################################
#
#                 Cambridge Crystallographic Data Centre
#                                CCDC 
#
#######################################################################
#
# If this CIF has been generated from an entry in the Cambridge 
# Structural Database, then it will include bibliographic, chemical, 
# crystal, experimental, refinement or atomic coordinate data resulting 
# from the CCDC's data processing and validation procedures.
#
#######################################################################

data_UVAQAK
_symmetry_cell_setting           monoclinic
_symmetry_space_group_name_H-M   'P 21/n'
_symmetry_Int_Tables_number      14
_space_group_name_Hall           '-P 2yn'
loop_
_symmetry_equiv_pos_site_id
_symmetry_equiv_pos_as_xyz
1 x,y,z
2 1/2-x,1/2+y,1/2-z
3 -x,-y,-z
4 1/2+x,1/2-y,1/2+z
_cell_length_a                   10.3077(12)
_cell_length_b                   12.4577(10)
_cell_length_c                   11.7642(12)
_cell_angle_alpha                90
_cell_angle_beta                 112.060(12)
_cell_angle_gamma                90
_cell_volume                     1400.05
loop_
_atom_site_label
_atom_site_type_symbol
_atom_site_fract_x
_atom_site_fract_y
_atom_site_fract_z
Mo1 Mo 0.09446(2) 0.133294(16) 0.251523(17)
N1 N -0.0785(2) 0.11436(15) 0.06679(17)
N2 N -0.1801(2) 0.03743(16) 0.05972(17)
N3 N -0.4181(2) -0.24451(18) 0.22051(18)
O1 O -0.0418(2) 0.02434(14) 0.26619(14)
O2 O 0.1258(2) 0.26217(14) 0.17529(15)
O3 O 0.1983(2) 0.04702(16) 0.21464(17)
O4 O 0.1769(2) 0.15706(15) 0.40407(16)
C1 C -0.1497(3) -0.0042(2) 0.1674(2)
C2 C -0.2413(3) -0.0887(2) 0.1836(2)
C3 C -0.2153(3) -0.13239(19) 0.2979(2)
H1 H -0.1376 -0.1107 0.3652
C4 C -0.3053(3) -0.2084(2) 0.3112(2)
H2 H -0.2859 -0.2363 0.3891
C5 C -0.4400(4) -0.2033(3) 0.1089(2)
H3 H -0.5166 -0.2281 0.0426
C6 C -0.3564(4) -0.1269(3) 0.0872(3)
H4 H -0.3770 -0.1011 0.0082
C7 C -0.0891(3) 0.15927(19) -0.0354(2)
H5 H -0.1606 0.1370 -0.1071
C8 C 0.0043(3) 0.2419(2) -0.0435(2)
C9 C 0.1061(3) 0.2898(2) 0.0585(2)
C10 C 0.1884(5) 0.3718(3) 0.0430(3)
H6 H 0.2557 0.4038 0.1112
C11 C 0.1711(5) 0.4062(4) -0.0728(4)
H7 H 0.2271 0.4612 -0.0825
C12 C 0.0723(5) 0.3602(3) -0.1741(3)
H8 H 0.0613 0.3840 -0.2522
C13 C -0.0106(3) 0.2790(2) -0.1604(2)
H9 H -0.0777 0.2481 -0.2295
Mo1A Mo -0.59446(2) -0.366706(16) 0.248477(17)
N3A N -0.0819(2) 0.25549(18) 0.27949(18)
loop_
_geom_bond_atom_site_label_1
_geom_bond_atom_site_label_2
_geom_bond_site_symmetry_1
_geom_bond_site_symmetry_2
Mo1 N1 1_555 1_555
N1 N2 1_555 1_555
N2 C1 1_555 1_555
N3 C4 1_555 1_555
O1 Mo1 1_555 1_555
O2 Mo1 1_555 1_555
O3 Mo1 1_555 1_555
O4 Mo1 1_555 1_555
C1 O1 1_555 1_555
C2 C1 1_555 1_555
C3 C2 1_555 1_555
H1 C3 1_555 1_555
C4 C3 1_555 1_555
H2 C4 1_555 1_555
C5 N3 1_555 1_555
H3 C5 1_555 1_555
C6 C2 1_555 1_555
H4 C6 1_555 1_555
C7 N1 1_555 1_555
H5 C7 1_555 1_555
C8 C7 1_555 1_555
C9 O2 1_555 1_555
C10 C9 1_555 1_555
H6 C10 1_555 1_555
C11 C10 1_555 1_555
H7 C11 1_555 1_555
C12 C11 1_555 1_555
H8 C12 1_555 1_555
C13 C8 1_555 1_555
H9 C13 1_555 1_555
Mo1A N3 1_555 1_555
N3A Mo1 1_555 1_555
C5 C6 1_555 1_555
C8 C9 1_555 1_555
C12 C13 1_555 1_555

#END
