
#######################################################################
#
#                 Cambridge Crystallographic Data Centre
#                                CCDC 
#
#######################################################################
#
# If this CIF has been generated from an entry in the Cambridge 
# Structural Database, then it will include bibliographic, chemical, 
# crystal, experimental, refinement or atomic coordinate data resulting 
# from the CCDC's data processing and validation procedures.
#
#######################################################################

data_UVAREP
_symmetry_cell_setting           triclinic
_symmetry_space_group_name_H-M   'P -1'
_symmetry_Int_Tables_number      2
_space_group_name_Hall           '-P 1'
loop_
_symmetry_equiv_pos_site_id
_symmetry_equiv_pos_as_xyz
1 x,y,z
2 -x,-y,-z
_cell_length_a                   7.7354(6)
_cell_length_b                   11.3208(9)
_cell_length_c                   11.4353(9)
_cell_angle_alpha                69.0010(10)
_cell_angle_beta                 89.6720(10)
_cell_angle_gamma                72.8440(10)
_cell_volume                     887.667
loop_
_atom_site_label
_atom_site_type_symbol
_atom_site_fract_x
_atom_site_fract_y
_atom_site_fract_z
Zn1 Zn 0.27074(4) 0.34718(3) -0.02442(3)
O1 O 0.4689(3) 0.3740(2) -0.14268(19)
O2 O 0.7278(3) 0.3877(2) -0.22161(19)
O3 O 0.7498(3) 0.45972(19) 0.02057(19)
O4 O 1.0427(3) 0.3513(2) 0.0969(2)
O5 O 0.9888(4) -0.2142(2) 0.3717(2)
H1 H 0.892(4) -0.213(4) 0.331(3)
O6 O 1.1952(3) -0.1108(2) 0.3406(2)
O7 O 0.7508(3) -0.2169(2) 0.2342(2)
O8 O 0.7326(3) -0.1667(2) 0.0272(2)
O9 O 0.0599(3) 0.4531(2) -0.1800(2)
H2 H -0.009(4) 0.418(3) -0.201(3)
H3 H 0.002(4) 0.526(2) -0.175(3)
N1 N 0.4237(3) 0.2515(2) 0.1542(2)
N2 N 0.5597(3) 0.4395(2) 0.4081(2)
H4 H 0.477(4) 0.496(3) 0.342(2)
C1 C 0.5013(4) 0.3179(3) 0.2023(3)
H5 H 0.4871 0.4086 0.1535
C2 C 0.6014(4) 0.2604(3) 0.3201(3)
C3 C 0.6251(4) 0.1270(3) 0.3899(3)
H6 H 0.6948 0.0840 0.4703
C4 C 0.5460(5) 0.0576(3) 0.3410(3)
H7 H 0.5601 -0.0337 0.3874
C5 C 0.4461(4) 0.1230(3) 0.2237(3)
H8 H 0.3910 0.0750 0.1908
C6 C 0.6916(4) 0.3398(3) 0.3648(3)
H9 H 0.7521 0.3876 0.2953
H10 H 0.7868 0.2779 0.4353
C7 C 0.4672(4) 0.3758(3) 0.5175(3)
H11 H 0.5597 0.3119 0.5889
H12 H 0.3974 0.3259 0.4933
C8 C 0.6601(4) 0.5192(3) 0.4423(3)
H13 H 0.7182 0.5628 0.3689
H14 H 0.7574 0.4591 0.5120
C9 C 0.7473(4) 0.2162(3) -0.0222(3)
C10 C 0.7273(4) 0.0927(3) -0.0021(3)
H15 H 0.6514 0.0846 -0.0619
C11 C 0.8163(4) -0.0202(3) 0.1041(3)
C12 C 0.9377(4) -0.0089(3) 0.1872(3)
C13 C 0.9637(4) 0.1133(3) 0.1624(3)
H16 H 1.0515 0.1193 0.2159
C14 C 0.8658(4) 0.2274(3) 0.0620(3)
C15 C 0.8873(4) 0.3569(3) 0.0570(3)
C16 C 0.7650(4) -0.1449(3) 0.1233(3)
C17 C 0.6402(4) 0.3349(3) -0.1359(3)
C18 C 1.0514(5) -0.1178(3) 0.3053(3)
Zn1A Zn 0.72926(4) -0.34718(3) 0.02442(3)
Zn1_2 Zn 0.27074(4) -0.65282(3) -0.02442(3)
Zn1_3 Zn 1.27074(4) 0.34718(3) -0.02442(3)
Zn1A_2 Zn -0.27074(4) -0.34718(3) 0.02442(3)
Zn1A_3 Zn 0.72926(4) 0.65282(3) 0.02442(3)
Zn1A_4 Zn 0.72926(4) 0.65282(3) 1.02442(3)
O1A O 0.5311(3) -0.3740(2) 0.14268(19)
O2A O 0.2722(3) -0.3877(2) 0.22161(19)
O3A O 0.2502(3) -0.45972(19) -0.02057(19)
O3_2 O 0.7498(3) -0.54028(19) 0.02057(19)
O3A_2 O 0.2502(3) 0.54028(19) -0.02057(19)
O4A O -0.0427(3) -0.3513(2) -0.0969(2)
O4_2 O 0.0427(3) 0.3513(2) 0.0969(2)
O4A_2 O 0.9573(3) -0.3513(2) -0.0969(2)
O5A O 0.0112(4) 0.2142(2) -0.3717(2)
H1A H 0.108(4) 0.213(4) -0.331(3)
O6A O -0.1952(3) 0.1108(2) -0.3406(2)
O7A O 0.2492(3) 0.2169(2) -0.2342(2)
O8A O 0.2674(3) 0.1667(2) -0.0272(2)
O9A O 0.9401(3) -0.4531(2) 0.1800(2)
H2A H 1.009(4) -0.418(3) 0.201(3)
H3A H 0.998(4) -0.526(2) 0.175(3)
N1A N 0.5763(3) 0.7485(2) 0.8458(2)
N1A_2 N 0.5763(3) -0.2515(2) -0.1542(2)
N2A N 0.4403(3) 0.5605(2) 0.5919(2)
H4A H 0.523(4) 0.504(3) 0.658(2)
C1A C 0.4987(4) 0.6821(3) 0.7977(3)
H5A H 0.5129 0.5914 0.8465
C2A C 0.3986(4) 0.7396(3) 0.6799(3)
C3A C 0.3749(4) 0.8730(3) 0.6101(3)
H6A H 0.3052 0.9160 0.5297
C4A C 0.4540(5) 0.9424(3) 0.6590(3)
H7A H 0.4399 1.0337 0.6126
C5A C 0.5539(4) 0.8770(3) 0.7763(3)
H8A H 0.6090 0.9250 0.8092
C6A C 0.3084(4) 0.6602(3) 0.6352(3)
H9A H 0.2479 0.6124 0.7047
H10A H 0.2132 0.7221 0.5647
C7A C 0.5328(4) 0.6242(3) 0.4825(3)
H11A H 0.4403 0.6881 0.4111
H12A H 0.6026 0.6741 0.5067
C8A C 0.3399(4) 0.4808(3) 0.5577(3)
H13A H 0.2818 0.4372 0.6311
H14A H 0.2426 0.5409 0.4880
C9A C 0.2527(4) -0.2162(3) 0.0222(3)
C10A C 0.2727(4) -0.0927(3) 0.0021(3)
H15A H 0.3486 -0.0846 0.0619
C11A C 0.1837(4) 0.0202(3) -0.1041(3)
C12A C 0.0623(4) 0.0089(3) -0.1872(3)
C13A C 0.0363(4) -0.1133(3) -0.1624(3)
H16A H -0.0515 -0.1193 -0.2159
C14A C 0.1342(4) -0.2274(3) -0.0620(3)
C15A C 0.1127(4) -0.3569(3) -0.0570(3)
C16A C 0.2350(4) 0.1449(3) -0.1233(3)
C17A C 0.3598(4) -0.3349(3) 0.1359(3)
C18A C -0.0514(5) 0.1178(3) -0.3053(3)
O10 O 0.817(3) -0.242(2) 0.5979(17)
loop_
_geom_bond_atom_site_label_1
_geom_bond_atom_site_label_2
_geom_bond_site_symmetry_1
_geom_bond_site_symmetry_2
Zn1 O1 1_555 1_555
O1 C17 1_555 1_555
O2 C17 1_555 1_555
O3 C15 1_555 1_555
O4 C15 1_555 1_555
O5 H1 1_555 1_555
O6 C18 1_555 1_555
O7 C16 1_555 1_555
O8 C16 1_555 1_555
O9 Zn1 1_555 1_555
H2 O9 1_555 1_555
H3 O9 1_555 1_555
N1 Zn1 1_555 1_555
N2 H4 1_555 1_555
C1 N1 1_555 1_555
H5 C1 1_555 1_555
C2 C1 1_555 1_555
C3 C2 1_555 1_555
H6 C3 1_555 1_555
C4 C3 1_555 1_555
H7 C4 1_555 1_555
C5 N1 1_555 1_555
H8 C5 1_555 1_555
C6 N2 1_555 1_555
H9 C6 1_555 1_555
H10 C6 1_555 1_555
C7 N2 1_555 1_555
H11 C7 1_555 1_555
H12 C7 1_555 1_555
C8 N2 1_555 1_555
H13 C8 1_555 1_555
H14 C8 1_555 1_555
C9 C10 1_555 1_555
C10 H15 1_555 1_555
C11 C10 1_555 1_555
C12 C11 1_555 1_555
C13 C12 1_555 1_555
H16 C13 1_555 1_555
C14 C9 1_555 1_555
C15 C14 1_555 1_555
C16 C11 1_555 1_555
C17 C9 1_555 1_555
C18 O5 1_555 1_555
Zn1A O8 1_555 1_555
Zn1_2 O3A 1_555 1_555
Zn1_3 O4 1_555 1_555
Zn1A_2 O4A 1_555 1_555
Zn1A_3 O3 1_555 1_555
Zn1A_4 N1A 1_555 1_555
O1A Zn1A 1_555 1_555
O2A C17A 1_555 1_555
O3A C15A 1_555 1_555
O3_2 Zn1A 1_555 1_555
O3A_2 Zn1 1_555 1_555
O4A C15A 1_555 1_555
O4_2 Zn1 1_555 1_555
O4A_2 Zn1A 1_555 1_555
O5A H1A 1_555 1_555
O6A C18A 1_555 1_555
O7A C16A 1_555 1_555
O8A Zn1 1_555 1_555
O9A Zn1A 1_555 1_555
H2A O9A 1_555 1_555
H3A O9A 1_555 1_555
N1A C1A 1_555 1_555
N1A_2 Zn1A 1_555 1_555
N2A H4A 1_555 1_555
C1A H5A 1_555 1_555
C2A C1A 1_555 1_555
C3A C2A 1_555 1_555
H6A C3A 1_555 1_555
C4A C3A 1_555 1_555
H7A C4A 1_555 1_555
C5A N1A 1_555 1_555
H8A C5A 1_555 1_555
C6A N2A 1_555 1_555
H9A C6A 1_555 1_555
H10A C6A 1_555 1_555
C7A C8 1_555 1_555
H11A C7A 1_555 1_555
H12A C7A 1_555 1_555
C8A C7 1_555 1_555
H13A C8A 1_555 1_555
H14A C8A 1_555 1_555
C9A C10A 1_555 1_555
C10A H15A 1_555 1_555
C11A C10A 1_555 1_555
C12A C11A 1_555 1_555
C13A C12A 1_555 1_555
H16A C13A 1_555 1_555
C14A C9A 1_555 1_555
C15A C14A 1_555 1_555
C16A O8A 1_555 1_555
C17A O1A 1_555 1_555
C18A O5A 1_555 1_555
C2 C6 1_555 1_555
C4 C5 1_555 1_555
C12 C18 1_555 1_555
C13 C14 1_555 1_555
N2A C7A 1_555 1_555
N2A C8A 1_555 1_555
C2A C6A 1_555 1_555
C4A C5A 1_555 1_555
C9A C17A 1_555 1_555
C11A C16A 1_555 1_555
C12A C18A 1_555 1_555
C13A C14A 1_555 1_555

#END
