
#######################################################################
#
#                 Cambridge Crystallographic Data Centre
#                                CCDC 
#
#######################################################################
#
# If this CIF has been generated from an entry in the Cambridge 
# Structural Database, then it will include bibliographic, chemical, 
# crystal, experimental, refinement or atomic coordinate data resulting 
# from the CCDC's data processing and validation procedures.
#
#######################################################################

data_UVAROZ
_symmetry_cell_setting           monoclinic
_symmetry_space_group_name_H-M   'C c'
_symmetry_Int_Tables_number      9
_space_group_name_Hall           'C -2yc'
loop_
_symmetry_equiv_pos_site_id
_symmetry_equiv_pos_as_xyz
1 x,y,z
2 x,-y,1/2+z
3 1/2+x,1/2+y,z
4 1/2+x,1/2-y,1/2+z
_cell_length_a                   13.187(8)
_cell_length_b                   24.889(18)
_cell_length_c                   8.666(5)
_cell_angle_alpha                90
_cell_angle_beta                 102.644(11)
_cell_angle_gamma                90
_cell_volume                     2775.3
loop_
_atom_site_label
_atom_site_type_symbol
_atom_site_fract_x
_atom_site_fract_y
_atom_site_fract_z
Zn1 Zn 0.51229(11) 0.41180(4) 1.20155(14)
O1 O 0.4471(7) 0.3801(3) 0.9957(10)
O2 O 0.4149(8) 0.3064(3) 1.1256(10)
O3 O -0.3968(6) 0.5276(3) 1.6450(11)
O4 O -0.3240(7) 0.6083(3) 1.6657(10)
N1 N 0.0568(8) 0.1230(4) -0.0836(11)
N2 N 0.3823(8) 0.4506(4) 1.2557(10)
C1 C 0.4141(10) 0.3325(5) 0.9985(15)
C2 C 0.3646(11) 0.3071(5) 0.8434(15)
C3 C 0.3283(10) 0.2553(5) 0.8372(14)
H1 H 0.3354 0.2350 0.9317
C4 C 0.2811(10) 0.2327(5) 0.6925(15)
H2 H 0.2511 0.1979 0.6890
C5 C 0.2777(11) 0.2609(5) 0.5525(15)
C6 C 0.3160(11) 0.3127(5) 0.5610(16)
H3 H 0.3124 0.3329 0.4669
C7 C 0.3606(10) 0.3359(5) 0.7102(15)
H4 H 0.3875 0.3714 0.7162
C8 C 0.2328(11) 0.2396(5) 0.3991(16)
H5 H 0.2421 0.2600 0.3106
C9 C 0.1786(10) 0.1934(5) 0.3682(14)
H6 H 0.1665 0.1739 0.4567
C10 C 0.1365(10) 0.1704(5) 0.2119(16)
C11 C 0.0971(10) 0.1187(5) 0.2012(13)
H7 H 0.0962 0.0983 0.2934
C12 C 0.0578(9) 0.0972(4) 0.0473(14)
H8 H 0.0306 0.0618 0.0399
C13 C 0.0944(11) 0.1744(5) -0.0729(17)
H9 H 0.0915 0.1944 -0.1671
C14 C 0.1360(11) 0.1977(5) 0.0693(16)
H10 H 0.1649 0.2327 0.0722
C15 C -0.3246(11) 0.5593(5) 1.6268(18)
C16 C -0.2316(10) 0.5386(5) 1.5752(14)
C17 C -0.2222(11) 0.4843(5) 1.5397(15)
H11 H -0.2751 0.4596 1.5509
C18 C -0.1348(10) 0.4662(5) 1.4878(14)
H12 H -0.1289 0.4292 1.4638
C19 C -0.0571(11) 0.5014(5) 1.4710(13)
C20 C -0.0695(10) 0.5554(4) 1.5053(14)
H13 H -0.0170 0.5801 1.4929
C21 C -0.1529(10) 0.5741(5) 1.5553(15)
H14 H -0.1582 0.6113 1.5770
C22 C 0.0324(10) 0.4806(5) 1.4146(13)
H15 H 0.0327 0.4433 1.3916
C23 C 0.1131(11) 0.5093(5) 1.3927(15)
H16 H 0.1114 0.5468 1.4125
C24 C 0.2054(10) 0.4885(5) 1.3406(13)
C25 C 0.2088(10) 0.4359(4) 1.2872(14)
H17 H 0.1519 0.4119 1.2806
C26 C 0.2994(11) 0.4205(5) 1.2443(14)
H18 H 0.3019 0.3853 1.2031
C27 C 0.3818(10) 0.5011(4) 1.3099(13)
H19 H 0.4415 0.5233 1.3216
C28 C 0.2908(10) 0.5197(5) 1.3487(12)
H20 H 0.2884 0.5559 1.3822
Zn1A Zn -0.48771(11) 0.58820(4) 1.70155(14)
Zn1C Zn 0.01229(11) 0.08820(4) -0.29845(14)
O3A O 0.6032(6) 0.4724(3) 1.1450(11)
O4A O 0.6760(7) 0.3917(3) 1.1657(10)
N1C N 0.5568(8) 0.3770(4) 1.4164(11)
O5 O 0.1296(9) 0.3446(4) 0.9596(15)
C29 C -0.0363(14) 0.3049(7) 0.869(3)
H21 H -0.0589 0.3213 0.9591
H22 H -0.0226 0.2666 0.8907
H23 H -0.0910 0.3090 0.7735
C30 C 0.0610(13) 0.3319(6) 0.847(3)
C31 C 0.0758(19) 0.3437(10) 0.686(2)
H24 H 0.0313 0.3739 0.6417
H25 H 0.0572 0.3120 0.6191
H26 H 0.1487 0.3530 0.6916
loop_
_geom_bond_atom_site_label_1
_geom_bond_atom_site_label_2
_geom_bond_site_symmetry_1
_geom_bond_site_symmetry_2
Zn1 O1 1_555 1_555
O1 C1 1_555 1_555
O2 C1 1_555 1_555
O3 C15 1_555 1_555
O4 C15 1_555 1_555
O5 C30 1_555 1_555
N1 C12 1_555 1_555
N2 Zn1 1_555 1_555
C1 C2 1_555 1_555
C2 C3 1_555 1_555
C3 H1 1_555 1_555
C4 C3 1_555 1_555
H2 C4 1_555 1_555
C5 C4 1_555 1_555
C6 C5 1_555 1_555
H3 C6 1_555 1_555
C7 C2 1_555 1_555
H4 C7 1_555 1_555
C8 C5 1_555 1_555
H5 C8 1_555 1_555
C9 C8 1_555 1_555
H6 C9 1_555 1_555
C10 C9 1_555 1_555
C11 C10 1_555 1_555
H7 C11 1_555 1_555
C12 C11 1_555 1_555
H8 C12 1_555 1_555
C13 N1 1_555 1_555
H9 C13 1_555 1_555
C14 C10 1_555 1_555
H10 C14 1_555 1_555
C15 C16 1_555 1_555
C16 C17 1_555 1_555
C17 H11 1_555 1_555
C18 C17 1_555 1_555
H12 C18 1_555 1_555
C19 C18 1_555 1_555
C20 C19 1_555 1_555
H13 C20 1_555 1_555
C21 C16 1_555 1_555
H14 C21 1_555 1_555
C22 C19 1_555 1_555
H15 C22 1_555 1_555
C23 C22 1_555 1_555
H16 C23 1_555 1_555
C24 C23 1_555 1_555
C25 C24 1_555 1_555
H17 C25 1_555 1_555
C26 N2 1_555 1_555
H18 C26 1_555 1_555
C27 N2 1_555 1_555
H19 C27 1_555 1_555
C28 C24 1_555 1_555
H20 C28 1_555 1_555
C29 H21 1_555 1_555
H22 C29 1_555 1_555
H23 C29 1_555 1_555
C30 C29 1_555 1_555
C31 C30 1_555 1_555
H24 C31 1_555 1_555
H25 C31 1_555 1_555
H26 C31 1_555 1_555
Zn1A O3 1_555 1_555
Zn1C N1 1_555 1_555
O3A Zn1 1_555 1_555
O4A Zn1 1_555 1_555
N1C Zn1 1_555 1_555
O4 Zn1A 1_555 1_555
C6 C7 1_555 1_555
C13 C14 1_555 1_555
C20 C21 1_555 1_555
C25 C26 1_555 1_555
C27 C28 1_555 1_555

#END
