
#######################################################################
#
#                 Cambridge Crystallographic Data Centre
#                                CCDC 
#
#######################################################################
#
# If this CIF has been generated from an entry in the Cambridge 
# Structural Database, then it will include bibliographic, chemical, 
# crystal, experimental, refinement or atomic coordinate data resulting 
# from the CCDC's data processing and validation procedures.
#
#######################################################################

data_UVARAL
_symmetry_cell_setting           monoclinic
_symmetry_space_group_name_H-M   'P 21/n'
_symmetry_Int_Tables_number      14
_space_group_name_Hall           '-P 2yn'
loop_
_symmetry_equiv_pos_site_id
_symmetry_equiv_pos_as_xyz
1 x,y,z
2 1/2-x,1/2+y,1/2-z
3 -x,-y,-z
4 1/2+x,1/2-y,1/2+z
_cell_length_a                   9.9681(6)
_cell_length_b                   13.4652(8)
_cell_length_c                   14.4896(9)
_cell_angle_alpha                90
_cell_angle_beta                 97.6550(10)
_cell_angle_gamma                90
_cell_volume                     1927.5
loop_
_atom_site_label
_atom_site_type_symbol
_atom_site_fract_x
_atom_site_fract_y
_atom_site_fract_z
Zn1 Zn 0.22012(3) 0.96785(2) 0.333003(19)
O1 O 0.32776(19) 0.91071(13) 0.24309(12)
O2 O 0.58002(19) 0.87975(15) -0.10367(13)
O3 O 0.3584(2) 0.90441(16) -0.10558(14)
H1 H 0.370(4) 0.946(2) -0.1495(19)
O4 O 0.29756(19) 0.75831(13) 0.29663(13)
O5 O 0.50491(19) 0.66392(15) -0.15224(13)
O6 O 0.66952(19) 0.59249(13) -0.05610(13)
O7 O 0.4142(2) 0.53743(12) 0.25516(13)
O8 O 0.55323(18) 0.65132(13) 0.32486(12)
N1 N 0.3496(2) 1.07549(16) 0.38967(15)
N2 N 0.5459(2) 1.39734(15) 0.51559(15)
H2 H 0.511(3) 1.386(2) 0.5675(15)
C1 C 0.3758(3) 1.09416(19) 0.48171(18)
H3 H 0.3315 1.0556 0.5234
C2 C 0.4650(3) 1.16751(19) 0.51752(19)
H4 H 0.4807 1.1795 0.5827
C3 C 0.5314(3) 1.22349(18) 0.45678(18)
C4 C 0.5058(3) 1.2032(2) 0.36287(18)
H5 H 0.5507 1.2396 0.3199
C5 C 0.4143(3) 1.12951(19) 0.33181(19)
H6 H 0.3965 1.1167 0.2669
C6 C 0.6395(3) 1.48380(19) 0.53517(19)
H7 H 0.6844 1.4977 0.4796
H8 H 0.7105 1.4670 0.5873
C7 C 0.3396(2) 0.81540(19) 0.24117(17)
C8 C 0.4089(2) 0.77495(18) 0.16279(17)
C9 C 0.4658(2) 0.68001(18) 0.16736(17)
C10 C 0.5196(2) 0.64215(19) 0.09102(18)
H9 H 0.5579 0.5774 0.0942
C11 C 0.5183(2) 0.69783(18) 0.00978(18)
C12 C 0.4651(2) 0.79395(19) 0.00638(17)
C13 C 0.4119(2) 0.83113(19) 0.08271(18)
H10 H 0.3765 0.8967 0.0803
C14 C 0.4755(2) 0.86266(18) -0.07437(17)
C15 C 0.5664(3) 0.64988(18) -0.07385(18)
C16 C 0.4772(2) 0.61928(18) 0.25553(18)
C17 C 0.6247(3) 1.30700(19) 0.49153(19)
H11 H 0.6816 1.3249 0.4430
H12 H 0.6853 1.2849 0.5475
C18 C 0.4357(3) 1.42450(19) 0.43995(18)
H13 H 0.3713 1.3684 0.4288
H14 H 0.4749 1.4368 0.3817
Zn1B Zn 0.77988(3) 2.03215(2) 0.666997(19)
Zn1A Zn 0.27988(3) 0.46785(2) 0.166997(19)
Zn1A_2 Zn 0.27988(3) 2.46785(2) 1.166997(19)
Zn1C Zn 0.72012(3) 0.53215(2) -0.166997(19)
Zn1C_2 Zn 0.72012(3) 2.53215(2) 0.833003(19)
O1B O 0.67224(19) 2.08929(13) 0.75691(12)
O2B O 0.41998(19) 2.12025(15) 1.10367(13)
O3B O 0.6416(2) 2.09559(16) 1.10558(14)
H1B H 0.630(4) 2.054(2) 1.1495(19)
O4B O 0.70244(19) 2.24169(13) 0.70337(13)
O5B O 0.49509(19) 2.33608(15) 1.15224(13)
O6B O 0.33048(19) 2.40751(13) 1.05610(13)
O6A O 0.83048(19) 2.09249(13) 0.55610(13)
O6C O 0.16952(19) 0.90751(13) 0.44390(13)
O7B O 0.5858(2) 2.46257(12) 0.74484(13)
O7A O 0.0858(2) 1.03743(12) 0.24484(13)
O7C O 0.9142(2) 1.96257(12) 0.75516(13)
O8B O 0.44677(18) 2.34868(13) 0.67514(12)
N1B N 0.6504(2) 1.92451(16) 0.61033(15)
N2B N 0.4541(2) 1.60266(15) 0.48441(15)
H2B H 0.489(3) 1.614(2) 0.4325(15)
C1B C 0.6242(3) 1.90584(19) 0.51829(18)
H3B H 0.6685 1.9444 0.4766
C2B C 0.5350(3) 1.83249(19) 0.48248(19)
H4B H 0.5193 1.8205 0.4173
C3B C 0.4686(3) 1.77651(18) 0.54322(18)
C4B C 0.4942(3) 1.7968(2) 0.63713(18)
H5B H 0.4493 1.7604 0.6801
C5B C 0.5857(3) 1.87049(19) 0.66819(19)
H6B H 0.6035 1.8833 0.7331
C6B C 0.3605(3) 1.51620(19) 0.46483(19)
H7B H 0.3156 1.5023 0.5204
H8B H 0.2895 1.5330 0.4127
C7B C 0.6604(2) 2.18460(19) 0.75883(17)
C8B C 0.5911(2) 2.22505(18) 0.83721(17)
C9B C 0.5342(2) 2.31999(18) 0.83264(17)
C10B C 0.4804(2) 2.35785(19) 0.90898(18)
H9B H 0.4421 2.4226 0.9058
C11B C 0.4817(2) 2.30217(18) 0.99022(18)
C12B C 0.5349(2) 2.20605(19) 0.99362(17)
C13B C 0.5881(2) 2.16887(19) 0.91729(18)
H10B H 0.6235 2.1033 0.9197
C14B C 0.5245(2) 2.13734(18) 1.07437(17)
C15B C 0.4336(3) 2.35012(18) 1.07385(18)
C16B C 0.5228(2) 2.38072(18) 0.74447(18)
C17B C 0.3753(3) 1.69300(19) 0.50847(19)
H11B H 0.3184 1.6751 0.5570
H12B H 0.3147 1.7151 0.4525
C18B C 0.5643(3) 1.57550(19) 0.56005(18)
H13B H 0.6287 1.6316 0.5712
H14B H 0.5251 1.5632 0.6183
O9 O 0.3909(2) 1.02096(15) -0.24154(16)
H15 H 0.463(2) 1.045(2) -0.241(3)
H16 H 0.358(3) 1.0761(17) -0.249(2)
O10 O 0.2391(2) 0.69580(18) -0.2244(2)
H17 H 0.309(3) 0.694(3) -0.188(2)
H18 H 0.211(4) 0.731(3) -0.187(2)
loop_
_geom_bond_atom_site_label_1
_geom_bond_atom_site_label_2
_geom_bond_site_symmetry_1
_geom_bond_site_symmetry_2
Zn1 O1 1_555 1_555
O1 C7 1_555 1_555
O2 C14 1_555 1_555
O3 H1 1_555 1_555
O4 C7 1_555 1_555
O5 C15 1_555 1_555
O6 C15 1_555 1_555
O7 C16 1_555 1_555
O8 C16 1_555 1_555
N1 Zn1 1_555 1_555
N2 H2 1_555 1_555
C1 N1 1_555 1_555
H3 C1 1_555 1_555
C2 C1 1_555 1_555
H4 C2 1_555 1_555
C3 C2 1_555 1_555
C4 C3 1_555 1_555
H5 C4 1_555 1_555
C5 N1 1_555 1_555
H6 C5 1_555 1_555
C6 N2 1_555 1_555
H7 C6 1_555 1_555
H8 C6 1_555 1_555
C7 C8 1_555 1_555
C8 C9 1_555 1_555
C9 C10 1_555 1_555
C10 H9 1_555 1_555
C11 C10 1_555 1_555
C12 C11 1_555 1_555
C13 C8 1_555 1_555
H10 C13 1_555 1_555
C14 O3 1_555 1_555
C15 C11 1_555 1_555
C16 C9 1_555 1_555
C17 N2 1_555 1_555
H11 C17 1_555 1_555
H12 C17 1_555 1_555
C18 N2 1_555 1_555
H13 C18 1_555 1_555
H14 C18 1_555 1_555
O9 H15 1_555 1_555
H16 O9 1_555 1_555
O10 H17 1_555 1_555
H18 O10 1_555 1_555
Zn1B O1B 1_555 1_555
Zn1A O7 1_555 1_555
Zn1A_2 O6B 1_555 1_555
Zn1C O6 1_555 1_555
Zn1C_2 O7B 1_555 1_555
O1B C7B 1_555 1_555
O2B C14B 1_555 1_555
O3B H1B 1_555 1_555
O4B C7B 1_555 1_555
O5B C15B 1_555 1_555
O6B C15B 1_555 1_555
O6A Zn1B 1_555 1_555
O6C Zn1 1_555 1_555
O7B C16B 1_555 1_555
O7A Zn1 1_555 1_555
O7C Zn1B 1_555 1_555
O8B C16B 1_555 1_555
N1B Zn1B 1_555 1_555
N2B H2B 1_555 1_555
C1B N1B 1_555 1_555
H3B C1B 1_555 1_555
C2B C1B 1_555 1_555
H4B C2B 1_555 1_555
C3B C2B 1_555 1_555
C4B C3B 1_555 1_555
H5B C4B 1_555 1_555
C5B N1B 1_555 1_555
H6B C5B 1_555 1_555
C6B C18 1_555 1_555
H7B C6B 1_555 1_555
H8B C6B 1_555 1_555
C7B C8B 1_555 1_555
C8B C9B 1_555 1_555
C9B C10B 1_555 1_555
C10B H9B 1_555 1_555
C11B C10B 1_555 1_555
C12B C11B 1_555 1_555
C13B C8B 1_555 1_555
H10B C13B 1_555 1_555
C14B O3B 1_555 1_555
C15B C11B 1_555 1_555
C16B C9B 1_555 1_555
C17B N2B 1_555 1_555
H11B C17B 1_555 1_555
H12B C17B 1_555 1_555
C18B C6 1_555 1_555
H13B C18B 1_555 1_555
H14B C18B 1_555 1_555
C3 C17 1_555 1_555
C4 C5 1_555 1_555
C12 C13 1_555 1_555
C12 C14 1_555 1_555
N2B C6B 1_555 1_555
N2B C18B 1_555 1_555
C3B C17B 1_555 1_555
C4B C5B 1_555 1_555
C12B C13B 1_555 1_555
C12B C14B 1_555 1_555

#END
