
#######################################################################
#
#                 Cambridge Crystallographic Data Centre
#                                CCDC 
#
#######################################################################
#
# If this CIF has been generated from an entry in the Cambridge 
# Structural Database, then it will include bibliographic, chemical, 
# crystal, experimental, refinement or atomic coordinate data resulting 
# from the CCDC's data processing and validation procedures.
#
#######################################################################

data_UVARIT
_symmetry_cell_setting           monoclinic
_symmetry_space_group_name_H-M   'C c'
_symmetry_Int_Tables_number      9
_space_group_name_Hall           'C -2yc'
loop_
_symmetry_equiv_pos_site_id
_symmetry_equiv_pos_as_xyz
1 x,y,z
2 x,-y,1/2+z
3 1/2+x,1/2+y,z
4 1/2+x,1/2-y,1/2+z
_cell_length_a                   13.488(6)
_cell_length_b                   24.834(13)
_cell_length_c                   8.409(4)
_cell_angle_alpha                90
_cell_angle_beta                 98.917(8)
_cell_angle_gamma                90
_cell_volume                     2782.64
loop_
_atom_site_label
_atom_site_type_symbol
_atom_site_fract_x
_atom_site_fract_y
_atom_site_fract_z
Zn1 Zn 0.20896(5) 0.59120(2) 0.52189(7)
O1 O 0.1490(3) 0.61908(17) 0.3108(5)
O2 O 0.1153(3) 0.69194(16) 0.4460(5)
O3 O 0.3027(3) 0.52909(16) 0.4750(5)
O4 O 0.3692(3) 0.61070(16) 0.4846(4)
N1 N -0.2510(3) 0.8723(2) -0.7593(6)
N2 N 1.0829(4) 0.4484(2) 0.0772(6)
C1 C 0.1140(4) 0.6672(3) 0.3183(7)
C2 C 0.0656(4) 0.6911(2) 0.1619(7)
C3 C 0.0641(4) 0.6637(3) 0.0171(7)
H1 H 0.0951 0.6293 0.0164
C4 C 0.0179(4) 0.6862(3) -0.1248(8)
H2 H 0.0172 0.6668 -0.2223
C5 C -0.0275(4) 0.7362(3) -0.1298(7)
C6 C -0.0258(4) 0.7640(2) 0.0168(6)
H3 H -0.0562 0.7985 0.0171
C7 C 0.0197(4) 0.7415(2) 0.1600(7)
H4 H 0.0198 0.7605 0.2580
C8 C -0.0761(4) 0.7578(3) -0.2850(7)
H5 H -0.0739 0.7360 -0.3773
C9 C -0.1226(4) 0.8047(3) -0.3083(8)
H6 H -0.1272 0.8258 -0.2156
C10 C -0.1679(4) 0.8269(3) -0.4645(8)
C11 C -0.1959(4) 0.8801(2) -0.4772(6)
H7 H -0.1872 0.9022 -0.3840
C12 C -0.2367(4) 0.9017(2) -0.6250(6)
H8 H -0.2550 0.9387 -0.6307
C13 C -0.2236(4) 0.8201(2) -0.7471(8)
H9 H -0.2332 0.7988 -0.8420
C14 C -0.1829(4) 0.7963(2) -0.6057(8)
H10 H -0.1649 0.7592 -0.6033
C15 C 0.3746(4) 0.5613(2) 0.4614(7)
C16 C 0.4691(4) 0.5395(3) 0.4076(6)
C17 C 0.4790(5) 0.4858(3) 0.3718(8)
H11 H 0.4262 0.4613 0.3819
C18 C 0.5675(4) 0.4673(3) 0.3203(8)
H12 H 0.5749 0.4301 0.2993
C19 C 0.6434(5) 0.5026(2) 0.2999(7)
C20 C 0.6322(4) 0.5568(2) 0.3379(7)
H13 H 0.6848 0.5814 0.3279
C21 C 0.5471(4) 0.5750(3) 0.3890(7)
H14 H 0.5407 0.6121 0.4123
C22 C 0.7341(4) 0.4821(2) 0.2426(7)
H15 H 0.7343 0.4450 0.2148
C23 C 0.8147(4) 0.5099(2) 0.2262(7)
H16 H 0.8143 0.5471 0.2522
C24 C 0.9056(4) 0.4887(3) 0.1712(7)
C25 C 0.9085(5) 0.4371(3) 0.1076(7)
H17 H 0.8505 0.4149 0.0957
C26 C 0.9984(4) 0.4183(2) 0.0611(6)
H18 H 0.9996 0.3832 0.0167
C27 C 1.0785(4) 0.4986(2) 0.1365(6)
H19 H 1.1371 0.5204 0.1489
C28 C 0.9916(4) 0.5194(2) 0.1801(7)
H20 H 0.9910 0.5556 0.2168
Zn1A Zn 1.20896(5) 0.40880(2) 0.02189(7)
Zn1C Zn -0.29104(5) 0.90880(2) -0.97811(7)
N1C N 0.2490(3) 0.6277(2) 0.7407(6)
N2A N 0.0829(4) 0.5516(2) 0.5772(6)
O5 O 0.8241(4) 0.3456(2) 0.8163(9)
N3 N 0.7306(4) 0.3257(2) 0.5748(10)
C29 C 0.8136(6) 0.3410(3) 0.6697(15)
H21 H 0.8701 0.3491 0.6193
C30 C 0.6397(5) 0.3112(3) 0.6380(13)
H22 H 0.5868 0.3375 0.6014
H23 H 0.6533 0.3111 0.7559
H24 H 0.6176 0.2753 0.5992
C31 C 0.7278(6) 0.3212(3) 0.3981(12)
H25 H 0.7928 0.3320 0.3702
H26 H 0.6751 0.3447 0.3428
H27 H 0.7135 0.2838 0.3646
O6 O 0.7194(19) 0.3328(11) 0.049(4)
loop_
_geom_bond_atom_site_label_1
_geom_bond_atom_site_label_2
_geom_bond_site_symmetry_1
_geom_bond_site_symmetry_2
Zn1 O1 1_555 1_555
O1 C1 1_555 1_555
O2 C1 1_555 1_555
O3 Zn1 1_555 1_555
O4 Zn1 1_555 1_555
N1 C12 1_555 1_555
N2 C26 1_555 1_555
C1 C2 1_555 1_555
C2 C3 1_555 1_555
C3 H1 1_555 1_555
C4 C3 1_555 1_555
H2 C4 1_555 1_555
C5 C4 1_555 1_555
C6 C5 1_555 1_555
H3 C6 1_555 1_555
C7 C2 1_555 1_555
H4 C7 1_555 1_555
C8 C5 1_555 1_555
H5 C8 1_555 1_555
C9 C8 1_555 1_555
H6 C9 1_555 1_555
C10 C9 1_555 1_555
C11 C10 1_555 1_555
H7 C11 1_555 1_555
C12 C11 1_555 1_555
H8 C12 1_555 1_555
C13 N1 1_555 1_555
H9 C13 1_555 1_555
C14 C10 1_555 1_555
H10 C14 1_555 1_555
C15 O3 1_555 1_555
C16 C15 1_555 1_555
C17 C16 1_555 1_555
H11 C17 1_555 1_555
C18 C17 1_555 1_555
H12 C18 1_555 1_555
C19 C18 1_555 1_555
C20 C19 1_555 1_555
H13 C20 1_555 1_555
C21 C16 1_555 1_555
H14 C21 1_555 1_555
C22 C19 1_555 1_555
H15 C22 1_555 1_555
C23 C22 1_555 1_555
H16 C23 1_555 1_555
C24 C23 1_555 1_555
C25 C24 1_555 1_555
H17 C25 1_555 1_555
C26 C25 1_555 1_555
H18 C26 1_555 1_555
C27 N2 1_555 1_555
H19 C27 1_555 1_555
C28 C24 1_555 1_555
H20 C28 1_555 1_555
O5 C29 1_555 1_555
N3 C29 1_555 1_555
C29 H21 1_555 1_555
C30 N3 1_555 1_555
H22 C30 1_555 1_555
H23 C30 1_555 1_555
H24 C30 1_555 1_555
C31 N3 1_555 1_555
H25 C31 1_555 1_555
H26 C31 1_555 1_555
H27 C31 1_555 1_555
Zn1A N2 1_555 1_555
Zn1C N1 1_555 1_555
N1C Zn1 1_555 1_555
N2A Zn1 1_555 1_555
O4 C15 1_555 1_555
C6 C7 1_555 1_555
C13 C14 1_555 1_555
C20 C21 1_555 1_555
C27 C28 1_555 1_555

#END
