
#######################################################################
#
#                 Cambridge Crystallographic Data Centre
#                                CCDC 
#
#######################################################################
#
# If this CIF has been generated from an entry in the Cambridge 
# Structural Database, then it will include bibliographic, chemical, 
# crystal, experimental, refinement or atomic coordinate data resulting 
# from the CCDC's data processing and validation procedures.
#
#######################################################################

data_UVASAM01
_symmetry_cell_setting           monoclinic
_symmetry_space_group_name_H-M   'C c'
_symmetry_Int_Tables_number      9
_space_group_name_Hall           'C -2yc'
loop_
_symmetry_equiv_pos_site_id
_symmetry_equiv_pos_as_xyz
1 x,y,z
2 x,-y,1/2+z
3 1/2+x,1/2+y,z
4 1/2+x,1/2-y,1/2+z
_cell_length_a                   13.4836(11)
_cell_length_b                   24.964(2)
_cell_length_c                   8.3985(7)
_cell_angle_alpha                90
_cell_angle_beta                 98.878(3)
_cell_angle_gamma                90
_cell_volume                     2793.1
loop_
_atom_site_label
_atom_site_type_symbol
_atom_site_fract_x
_atom_site_fract_y
_atom_site_fract_z
Zn1 Zn 0.70009(5) 0.09117(2) 0.30357(7)
O1 O 0.6055(3) 0.02981(18) 0.3472(5)
O2 O 0.5413(3) 0.11045(19) 0.3428(5)
O3 O 0.7617(4) 0.1191(2) 0.5146(6)
O4 O 0.7958(4) 0.1911(2) 0.3788(6)
N1 N -0.1739(4) -0.0525(2) 0.7467(6)
N2 N 1.1590(4) 0.3724(2) 1.5839(6)
C1 C 0.5323(5) 0.0612(3) 0.3667(8)
C2 C 0.4395(5) 0.0398(3) 0.4183(8)
C3 C 0.4289(5) -0.0146(3) 0.4472(10)
H1 H 0.4799 -0.0392 0.4301
C4 C 0.3411(6) -0.0326(3) 0.5023(10)
H2 H 0.3347 -0.0695 0.5267
C5 C 0.2644(6) 0.0022(3) 0.5215(9)
C6 C 0.2775(5) 0.0569(3) 0.4907(9)
H3 H 0.2263 0.0816 0.5058
C7 C 0.3635(5) 0.0750(3) 0.4390(9)
H4 H 0.3706 0.1121 0.4174
C8 C 0.1738(6) -0.0177(3) 0.5798(9)
H5 H 0.1740 -0.0545 0.6090
C9 C 0.0924(5) 0.0097(3) 0.5962(9)
H6 H 0.0923 0.0467 0.5692
C10 C 0.0026(5) -0.0110(3) 0.6516(8)
C11 C -0.0018(5) -0.0632(3) 0.7157(9)
H7 H 0.0558 -0.0856 0.7277
C12 C -0.0894(5) -0.0813(3) 0.7606(8)
H8 H -0.0901 -0.1164 0.8040
C13 C -0.1694(5) -0.0024(3) 0.6903(8)
H9 H -0.2279 0.0193 0.6821
C14 C -0.0832(5) 0.0195(3) 0.6433(8)
H10 H -0.0837 0.0554 0.6056
C15 C 0.7970(5) 0.1658(3) 0.5082(9)
C16 C 0.8458(5) 0.1904(3) 0.6633(8)
C17 C 0.8903(5) 0.2408(3) 0.6660(9)
H11 H 0.8891 0.2600 0.5680
C18 C 0.9358(5) 0.2631(3) 0.8074(8)
H12 H 0.9672 0.2971 0.8057
C19 C 0.9368(5) 0.2368(3) 0.9535(9)
C20 C 0.8900(6) 0.1872(3) 0.9522(9)
H13 H 0.8885 0.1690 1.0511
C21 C 0.8457(5) 0.1640(3) 0.8100(9)
H14 H 0.8148 0.1298 0.8116
C22 C 0.9845(5) 0.2579(3) 1.1115(9)
H15 H 0.9815 0.2365 1.2042
C23 C 1.0309(5) 0.3045(3) 1.1319(9)
H16 H 1.0361 0.3252 1.0386
C24 C 1.0758(5) 0.3268(3) 1.2915(9)
C25 C 1.1027(5) 0.3804(3) 1.3010(8)
H17 H 1.0930 0.4025 1.2079
C26 C 1.1440(5) 0.4008(2) 1.4497(7)
H18 H 1.1628 0.4375 1.4556
C27 C 1.1332(5) 0.3204(3) 1.5751(8)
H19 H 1.1446 0.2992 1.6701
C28 C 1.0903(5) 0.2968(3) 1.4318(9)
H20 H 1.0709 0.2602 1.4297
Zn1A Zn -0.29991(5) -0.09117(2) 0.80357(7)
Zn1C Zn 1.20009(5) 0.40883(2) 1.80357(7)
N1A N 0.8261(4) 0.0525(2) 0.2467(6)
N2C N 0.6590(4) 0.1276(2) 0.0839(6)
O5 O 0.5846(5) 0.3451(3) 0.0164(11)
N3 N 0.6782(5) 0.3257(3) 0.2603(10)
C29 C 0.5965(8) 0.3420(4) 0.1648(14)
H21 H 0.5413 0.3525 0.2157
C30 C 0.7703(7) 0.3115(4) 0.1977(15)
H22 H 0.7562 0.3092 0.0799
H23 H 0.7948 0.2768 0.2420
H24 H 0.8215 0.3390 0.2295
C31 C 0.6825(9) 0.3213(4) 0.4359(14)
H25 H 0.6168 0.3303 0.4647
H26 H 0.7332 0.3461 0.4899
H27 H 0.7003 0.2845 0.4701
loop_
_geom_bond_atom_site_label_1
_geom_bond_atom_site_label_2
_geom_bond_site_symmetry_1
_geom_bond_site_symmetry_2
Zn1 O1 1_555 1_555
O1 C1 1_555 1_555
O2 Zn1 1_555 1_555
O3 Zn1 1_555 1_555
O4 C15 1_555 1_555
N1 C12 1_555 1_555
N2 C26 1_555 1_555
C1 O2 1_555 1_555
C2 C1 1_555 1_555
C3 C2 1_555 1_555
H1 C3 1_555 1_555
C4 C3 1_555 1_555
H2 C4 1_555 1_555
C5 C4 1_555 1_555
C6 C5 1_555 1_555
H3 C6 1_555 1_555
C7 C2 1_555 1_555
H4 C7 1_555 1_555
C8 C5 1_555 1_555
H5 C8 1_555 1_555
C9 C8 1_555 1_555
H6 C9 1_555 1_555
C10 C9 1_555 1_555
C11 C10 1_555 1_555
H7 C11 1_555 1_555
C12 C11 1_555 1_555
H8 C12 1_555 1_555
C13 N1 1_555 1_555
H9 C13 1_555 1_555
C14 C10 1_555 1_555
H10 C14 1_555 1_555
C15 O3 1_555 1_555
C16 C15 1_555 1_555
C17 C16 1_555 1_555
H11 C17 1_555 1_555
C18 C17 1_555 1_555
H12 C18 1_555 1_555
C19 C18 1_555 1_555
C20 C19 1_555 1_555
H13 C20 1_555 1_555
C21 C16 1_555 1_555
H14 C21 1_555 1_555
C22 C19 1_555 1_555
H15 C22 1_555 1_555
C23 C22 1_555 1_555
H16 C23 1_555 1_555
C24 C23 1_555 1_555
C25 C24 1_555 1_555
H17 C25 1_555 1_555
C26 C25 1_555 1_555
H18 C26 1_555 1_555
C27 N2 1_555 1_555
H19 C27 1_555 1_555
C28 C24 1_555 1_555
H20 C28 1_555 1_555
O5 C29 1_555 1_555
N3 C29 1_555 1_555
C29 H21 1_555 1_555
C30 N3 1_555 1_555
H22 C30 1_555 1_555
H23 C30 1_555 1_555
H24 C30 1_555 1_555
C31 N3 1_555 1_555
H25 C31 1_555 1_555
H26 C31 1_555 1_555
H27 C31 1_555 1_555
Zn1A N1 1_555 1_555
Zn1C N2 1_555 1_555
N1A Zn1 1_555 1_555
N2C Zn1 1_555 1_555
C6 C7 1_555 1_555
C13 C14 1_555 1_555
C20 C21 1_555 1_555
C27 C28 1_555 1_555

#END
