
#######################################################################
#
#                 Cambridge Crystallographic Data Centre
#                                CCDC 
#
#######################################################################
#
# If this CIF has been generated from an entry in the Cambridge 
# Structural Database, then it will include bibliographic, chemical, 
# crystal, experimental, refinement or atomic coordinate data resulting 
# from the CCDC's data processing and validation procedures.
#
#######################################################################

data_UVENOZ
_symmetry_cell_setting           monoclinic
_symmetry_space_group_name_H-M   'P 21/c'
_symmetry_Int_Tables_number      14
_space_group_name_Hall           '-P 2ybc'
loop_
_symmetry_equiv_pos_site_id
_symmetry_equiv_pos_as_xyz
1 x,y,z
2 -x,1/2+y,1/2-z
3 -x,-y,-z
4 x,1/2-y,1/2+z
_cell_length_a                   10.395(4)
_cell_length_b                   16.766(5)
_cell_length_c                   9.492(3)
_cell_angle_alpha                90
_cell_angle_beta                 102.088(4)
_cell_angle_gamma                90
_cell_volume                     1617.61
loop_
_atom_site_label
_atom_site_type_symbol
_atom_site_fract_x
_atom_site_fract_y
_atom_site_fract_z
Zn1 Zn 0.76583(3) 0.05468(2) 0.00144(4)
O1 O 0.7787(2) 0.01824(14) -0.1905(2)
O2 O 0.7427(2) -0.05052(12) 0.0825(2)
O3 O 0.6463(3) 0.00057(14) 0.2511(3)
N1 N 0.9124(3) -0.31679(16) 0.2862(3)
N2 N 0.5067(2) -0.27157(15) 0.4488(3)
O5 O 0.8930(3) 0.12908(16) -0.1995(3)
C1 C 0.6087(3) -0.24147(18) 0.3829(3)
C2 C 0.6036(3) -0.16353(18) 0.3328(3)
H1 H 0.5379 -0.1289 0.3480
N3 N 1.0801(3) -0.39708(15) 0.3599(3)
N4 N 0.3622(2) -0.35472(15) 0.5047(3)
C3 C 0.6991(3) -0.13821(18) 0.2591(3)
C4 C 1.0902(3) -0.3645(2) 0.2293(4)
H2 H 1.1573 -0.3751 0.1809
C5 C 0.7083(3) -0.29376(18) 0.3662(3)
H3 H 0.7106 -0.3458 0.4008
C6 C 0.8007(3) -0.18918(18) 0.2413(3)
H4 H 0.8650 -0.1720 0.1935
C7 C 0.8463(3) 0.0661(2) -0.2533(4)
C8 C 0.4389(3) -0.22944(19) 0.5351(3)
H5 H 0.4514 -0.1765 0.5639
C9 C 0.8039(3) -0.26590(19) 0.2963(3)
C10 C 0.4580(3) -0.34614(18) 0.4327(3)
H6 H 0.4871 -0.3860 0.3789
C11 C 0.6941(3) -0.05541(18) 0.1955(3)
C12 C 0.8647(5) 0.0400(3) -0.3996(4)
H7 H 0.8217 -0.0104 -0.4238
H8 H 0.9569 0.0346 -0.3981
H9 H 0.8271 0.0791 -0.4701
C13 C 0.3495(3) -0.28197(19) 0.5693(4)
H10 H 0.2896 -0.2706 0.6269
C14 C 0.9881(3) -0.3150(2) 0.1826(4)
H11 H 0.9717 -0.2856 0.0976
C15 C 0.9723(3) -0.36672(19) 0.3905(3)
H12 H 0.9416 -0.3783 0.4734
Zn1A Zn 0.23417(3) -0.44532(2) 0.49856(4)
Zn1A_2 Zn 1.23417(3) -0.44532(2) 0.49856(4)
N3A N 0.9199(3) 0.10292(15) 0.1401(3)
N4A N 0.6378(2) 0.14528(15) -0.0047(3)
O4 O 0.5631(3) -0.06297(18) -0.3601(4)
H13 H 0.628(5) -0.036(3) -0.304(5)
H14 H 0.503(6) -0.031(3) -0.367(6)
loop_
_geom_bond_atom_site_label_1
_geom_bond_atom_site_label_2
_geom_bond_site_symmetry_1
_geom_bond_site_symmetry_2
Zn1 O1 1_555 1_555
O1 C7 1_555 1_555
O2 Zn1 1_555 1_555
O3 C11 1_555 1_555
N1 C9 1_555 1_555
N2 C1 1_555 1_555
O4 H13 1_555 1_555
O5 C7 1_555 1_555
C1 C2 1_555 1_555
C2 H1 1_555 1_555
N3 C4 1_555 1_555
N4 C10 1_555 1_555
C3 C2 1_555 1_555
C4 H2 1_555 1_555
C5 C1 1_555 1_555
H3 C5 1_555 1_555
C6 C3 1_555 1_555
H4 C6 1_555 1_555
C7 C12 1_555 1_555
C8 N2 1_555 1_555
H5 C8 1_555 1_555
C9 C5 1_555 1_555
C10 N2 1_555 1_555
H6 C10 1_555 1_555
C11 O2 1_555 1_555
C12 H7 1_555 1_555
H8 C12 1_555 1_555
H9 C12 1_555 1_555
C13 N4 1_555 1_555
H10 C13 1_555 1_555
C14 N1 1_555 1_555
H11 C14 1_555 1_555
C15 N1 1_555 1_555
H12 C15 1_555 1_555
H14 O4 1_555 1_555
Zn1A N4 1_555 1_555
Zn1A_2 N3 1_555 1_555
N3A Zn1 1_555 1_555
N4A Zn1 1_555 1_555
N3 C15 1_555 1_555
C3 C11 1_555 1_555
C4 C14 1_555 1_555
C6 C9 1_555 1_555
C8 C13 1_555 1_555

#END
