
#######################################################################
#
#                 Cambridge Crystallographic Data Centre
#                                CCDC 
#
#######################################################################
#
# If this CIF has been generated from an entry in the Cambridge 
# Structural Database, then it will include bibliographic, chemical, 
# crystal, experimental, refinement or atomic coordinate data resulting 
# from the CCDC's data processing and validation procedures.
#
#######################################################################

data_UVENIT
_symmetry_cell_setting           monoclinic
_symmetry_space_group_name_H-M   'P 21/c'
_symmetry_Int_Tables_number      14
_space_group_name_Hall           '-P 2ybc'
loop_
_symmetry_equiv_pos_site_id
_symmetry_equiv_pos_as_xyz
1 x,y,z
2 -x,1/2+y,1/2-z
3 -x,-y,-z
4 x,1/2-y,1/2+z
_cell_length_a                   10.719(7)
_cell_length_b                   17.883(5)
_cell_length_c                   8.208(3)
_cell_angle_alpha                90
_cell_angle_beta                 105.072(5)
_cell_angle_gamma                90
_cell_volume                     1519.25
loop_
_atom_site_label
_atom_site_type_symbol
_atom_site_fract_x
_atom_site_fract_y
_atom_site_fract_z
I1 I 0.15050(3) 0.074373(19) 0.87923(5)
Cd1 Cd 0.26191(3) 0.028735(17) 0.63152(5)
N1 N 0.4733(4) 0.0583(2) 0.7052(6)
N2 N 0.6564(3) 0.1148(2) 0.8205(5)
N3 N 1.1947(3) 0.1110(2) 1.4166(5)
N4 N 1.0586(3) 0.17853(19) 1.2254(5)
O1 O 0.6647(3) 0.3983(2) 0.8294(5)
O2 O 0.8530(3) 0.42785(16) 0.9965(5)
C1 C 0.5732(4) 0.0109(3) 0.7026(6)
H1 H 0.5636 -0.0375 0.6595
C2 C 0.6864(4) 0.0442(2) 0.7711(6)
H2 H 0.7684 0.0243 0.7831
C3 C 0.5263(4) 0.1194(3) 0.7763(7)
H3 H 0.4802 0.1613 0.7945
C4 C 0.7435(4) 0.1702(2) 0.9074(6)
C5 C 0.8581(4) 0.1477(2) 1.0213(6)
H4 H 0.8771 0.0972 1.0401
C6 C 0.9426(4) 0.2014(2) 1.1055(6)
C7 C 0.9146(4) 0.2774(2) 1.0778(6)
H5 H 0.9716 0.3133 1.1364
C8 C 0.8009(4) 0.2988(2) 0.9622(6)
C9 C 0.7156(4) 0.2446(2) 0.8767(6)
H6 H 0.6398 0.2588 0.7986
C10 C 0.7698(4) 0.3799(2) 0.9272(7)
C11 C 1.2563(5) 0.1746(3) 1.3822(7)
H7 H 1.3420 0.1868 1.4323
C12 C 1.1740(4) 0.2164(3) 1.2653(7)
H8 H 1.1918 0.2618 1.2206
C13 C 1.0767(4) 0.1155(2) 1.3170(6)
H9 H 1.0134 0.0793 1.3111
Cd1_2 Cd 1.26191(3) 0.028735(17) 1.63152(5)
Cd1A Cd 0.73809(3) 0.528735(17) 0.86848(5)
N3_2 N 0.1947(3) 0.1110(2) 0.4166(5)
O1A O 0.3353(3) -0.1017(2) 0.6706(5)
O2A O 0.1470(3) -0.07215(16) 0.5035(5)
C10A C 0.2302(4) -0.1201(2) 0.5728(7)
O3 O 0.4517(5) 0.3167(3) 0.6065(7)
H10 H 0.509(6) 0.351(3) 0.646(10)
H11 H 0.380(6) 0.340(5) 0.57(3)
loop_
_geom_bond_atom_site_label_1
_geom_bond_atom_site_label_2
_geom_bond_site_symmetry_1
_geom_bond_site_symmetry_2
I1 Cd1 1_555 1_555
Cd1 N1 1_555 1_555
N1 C1 1_555 1_555
N2 C2 1_555 1_555
N3 C11 1_555 1_555
N4 C6 1_555 1_555
O1 C10 1_555 1_555
O2 C10 1_555 1_555
C1 H1 1_555 1_555
C2 C1 1_555 1_555
H2 C2 1_555 1_555
C3 N1 1_555 1_555
H3 C3 1_555 1_555
C4 N2 1_555 1_555
C5 C4 1_555 1_555
H4 C5 1_555 1_555
C6 C5 1_555 1_555
C7 C6 1_555 1_555
H5 C7 1_555 1_555
C8 C7 1_555 1_555
C9 C4 1_555 1_555
H6 C9 1_555 1_555
C10 C8 1_555 1_555
C11 H7 1_555 1_555
C12 N4 1_555 1_555
H8 C12 1_555 1_555
C13 N3 1_555 1_555
H9 C13 1_555 1_555
O3 H10 1_555 1_555
H11 O3 1_555 1_555
Cd1_2 N3 1_555 1_555
Cd1A O1 1_555 1_555
N3_2 Cd1 1_555 1_555
O1A Cd1 1_555 1_555
O2A Cd1 1_555 1_555
C10A O1A 1_555 1_555
N2 C3 1_555 1_555
N4 C13 1_555 1_555
O2 Cd1A 1_555 1_555
C8 C9 1_555 1_555
C11 C12 1_555 1_555
O2A C10A 1_555 1_555

#END
