
#######################################################################
#
#                 Cambridge Crystallographic Data Centre
#                                CCDC 
#
#######################################################################
#
# If this CIF has been generated from an entry in the Cambridge 
# Structural Database, then it will include bibliographic, chemical, 
# crystal, experimental, refinement or atomic coordinate data resulting 
# from the CCDC's data processing and validation procedures.
#
#######################################################################

data_UVENUF
_symmetry_cell_setting           monoclinic
_symmetry_space_group_name_H-M   'P 21/n'
_symmetry_Int_Tables_number      14
_space_group_name_Hall           '-P 2yn'
loop_
_symmetry_equiv_pos_site_id
_symmetry_equiv_pos_as_xyz
1 x,y,z
2 1/2-x,1/2+y,1/2-z
3 -x,-y,-z
4 1/2+x,1/2-y,1/2+z
_cell_length_a                   11.818(5)
_cell_length_b                   7.566(4)
_cell_length_c                   16.475(4)
_cell_angle_alpha                90
_cell_angle_beta                 93.607(5)
_cell_angle_gamma                90
_cell_volume                     1470.19
loop_
_atom_site_label
_atom_site_type_symbol
_atom_site_fract_x
_atom_site_fract_y
_atom_site_fract_z
Zn1 Zn -0.06783(4) 0.02092(7) 0.70797(3)
O1 O -0.2451(3) 0.0739(5) 0.84261(19)
C1 C -0.0510(3) 0.3086(6) 1.1043(2)
H1 H -0.0299 0.3486 1.1564
O2 O -0.0618(3) 0.0996(5) 0.81986(18)
O3 O -0.0291(3) -0.1831(4) 0.57551(19)
C2 C -0.1654(3) 0.2767(5) 1.0801(2)
O4 O -0.0340(3) -0.2321(4) 0.70870(18)
C3 C -0.1990(3) 0.2152(5) 1.0025(2)
H2 H -0.2750 0.1939 0.9878
N1 N 0.3090(3) 0.3816(5) 1.1339(2)
C4 C 0.1987(3) 0.3604(6) 1.1409(2)
H3 H 0.1618 0.3785 1.1884
N2 N -0.2487(3) 0.3052(5) 1.1374(2)
N3 N -0.4117(3) 0.3759(5) 1.1871(2)
C5 C 0.0293(3) 0.2786(5) 1.0480(2)
C6 C -0.0036(3) 0.2157(6) 0.9704(2)
H4 H 0.0510 0.1930 0.9335
N4 N 0.1469(3) 0.3082(5) 1.0680(2)
C7 C -0.2369(3) 0.2694(6) 1.2206(2)
H5 H -0.1733 0.2251 1.2498
C8 C -0.0205(3) -0.2838(5) 0.6356(2)
C9 C 0.3299(3) 0.3378(6) 1.0545(2)
H6 H 0.4005 0.3394 1.0325
C10 C -0.1168(3) 0.1868(5) 0.9480(2)
C11 C -0.3558(3) 0.3684(5) 1.1214(2)
H7 H -0.3853 0.4019 1.0700
C12 C -0.3377(3) 0.3128(6) 1.2497(2)
H8 H -0.3551 0.3020 1.3037
C13 C 0.2309(4) 0.2925(6) 1.0141(2)
H9 H 0.2213 0.2572 0.9600
C14 C -0.1476(3) 0.1144(6) 0.8623(2)
C15 C 0.0122(5) -0.4756(6) 0.6262(3)
H10 H 0.0148 -0.5327 0.6783
H11 H 0.0855 -0.4825 0.6043
H12 H -0.0428 -0.5334 0.5899
Zn1C Zn -0.56783(4) 0.47908(7) 1.20797(3)
Zn1C_2 Zn 0.43217(4) 0.47908(7) 1.20797(3)
N1C N -0.1910(3) 0.1184(5) 0.6339(2)
N3C N 0.0883(3) 0.1241(5) 0.6871(2)
loop_
_geom_bond_atom_site_label_1
_geom_bond_atom_site_label_2
_geom_bond_site_symmetry_1
_geom_bond_site_symmetry_2
Zn1 O2 1_555 1_555
O1 C14 1_555 1_555
C1 H1 1_555 1_555
O2 C14 1_555 1_555
O3 C8 1_555 1_555
C2 C1 1_555 1_555
O4 Zn1 1_555 1_555
C3 C2 1_555 1_555
H2 C3 1_555 1_555
N1 C4 1_555 1_555
C4 H3 1_555 1_555
N2 C2 1_555 1_555
N3 C11 1_555 1_555
C5 C1 1_555 1_555
C6 C5 1_555 1_555
H4 C6 1_555 1_555
N4 C4 1_555 1_555
C7 N2 1_555 1_555
H5 C7 1_555 1_555
C8 O4 1_555 1_555
C9 N1 1_555 1_555
H6 C9 1_555 1_555
C10 C3 1_555 1_555
C11 N2 1_555 1_555
H7 C11 1_555 1_555
C12 N3 1_555 1_555
H8 C12 1_555 1_555
C13 N4 1_555 1_555
H9 C13 1_555 1_555
C14 C10 1_555 1_555
C15 C8 1_555 1_555
H10 C15 1_555 1_555
H11 C15 1_555 1_555
H12 C15 1_555 1_555
Zn1C N3 1_555 1_555
Zn1C_2 N1 1_555 1_555
N1C Zn1 1_555 1_555
N3C Zn1 1_555 1_555
C5 N4 1_555 1_555
C6 C10 1_555 1_555
C7 C12 1_555 1_555
C9 C13 1_555 1_555

#END
