
#######################################################################
#
#                 Cambridge Crystallographic Data Centre
#                                CCDC 
#
#######################################################################
#
# If this CIF has been generated from an entry in the Cambridge 
# Structural Database, then it will include bibliographic, chemical, 
# crystal, experimental, refinement or atomic coordinate data resulting 
# from the CCDC's data processing and validation procedures.
#
#######################################################################

data_UVEPOB
_symmetry_cell_setting           triclinic
_symmetry_space_group_name_H-M   'P -1'
_symmetry_Int_Tables_number      2
_space_group_name_Hall           '-P 1'
loop_
_symmetry_equiv_pos_site_id
_symmetry_equiv_pos_as_xyz
1 x,y,z
2 -x,-y,-z
_cell_length_a                   7.171(4)
_cell_length_b                   9.352(3)
_cell_length_c                   9.550(3)
_cell_angle_alpha                92.794(5)
_cell_angle_beta                 92.096(5)
_cell_angle_gamma                91.414(4)
_cell_volume                     639.04
loop_
_atom_site_label
_atom_site_type_symbol
_atom_site_fract_x
_atom_site_fract_y
_atom_site_fract_z
Co1 Co 0.0000 0.5000 0.0000
Co2 Co 0.5000 0.5000 0.0000
O1 O 0.3962(8) 1.3922(6) 0.1804(6)
O2 O 0.1075(8) 1.3165(6) 0.1044(6)
O3 O 0.2448(8) 0.5769(6) -0.0509(6)
N1 N 0.4491(10) 1.3125(7) 0.8670(8)
N2 N 0.3718(10) 1.1768(7) 0.6754(7)
N3 N 0.0304(11) 0.6331(7) 0.1927(8)
N4 N 0.1189(10) 0.8235(7) 0.3253(7)
C1 C 0.2521(11) 1.3157(8) 0.1832(9)
C2 C 0.1729(11) 1.0688(8) 0.2615(9)
H1 H 0.1207 1.0457 0.1725
C3 C 0.1786(12) 0.9668(8) 0.3625(8)
C4 C 0.2467(10) 1.0004(8) 0.4984(8)
H2 H 0.2480 0.9312 0.5652
C5 C 0.3135(10) 1.1408(8) 0.5335(8)
C6 C 0.3195(11) 1.2406(9) 0.4324(9)
H3 H 0.3720 1.3312 0.4546
C7 C 0.2464(11) 1.2064(9) 0.2951(8)
C8 C 0.3875(12) 1.0861(8) 0.7843(8)
H4 H 0.3679 0.9873 0.7791
C9 C 0.4369(12) 1.1689(9) 0.9004(9)
H5 H 0.4595 1.1353 0.9893
C10 C 0.4058(11) 1.3136(9) 0.7337(9)
H6 H 0.3986 1.3962 0.6836
C11 C 0.0672(12) 0.7694(10) 0.1961(10)
H7 H 0.0588 0.8242 0.1175
C12 C 0.0522(11) 0.5929(9) 0.3286(9)
H8 H 0.0300 0.5013 0.3591
C13 C 0.1114(12) 0.7082(8) 0.4109(9)
H9 H 0.1414 0.7098 0.5066
H12 H 0.268(7) 0.501(8) -0.138(7)
Co1_2 Co 0.0000 1.5000 0.0000
Co2_2 Co 0.5000 1.5000 0.0000
Co2_3 Co 0.5000 1.5000 1.0000
Co2_4 Co -0.5000 0.5000 0.0000
Co2_5 Co -0.5000 0.5000 -1.0000
O1A O -0.3962(8) 0.6078(6) -0.1804(6)
O1A_2 O 0.6038(8) 0.6078(6) -0.1804(6)
O1_2 O 0.3962(8) 0.3922(6) 0.1804(6)
O2A O -0.1075(8) 0.6835(6) -0.1044(6)
O2_2 O 0.1075(8) 0.3165(6) 0.1044(6)
O3A O -0.2448(8) 0.4231(6) 0.0509(6)
O3A_2 O 0.7552(8) 0.4231(6) 0.0509(6)
N1A N -0.4491(10) 0.6875(7) -0.8670(8)
N1A_2 N 0.5509(10) 0.6875(7) 0.1330(8)
N1_2 N 0.4491(10) 0.3125(7) -0.1330(8)
N2A N -0.3718(10) 0.8232(7) -0.6754(7)
N3A N -0.0304(11) 1.3669(7) -0.1927(8)
N3A_2 N -0.0304(11) 0.3669(7) -0.1927(8)
N4A N -0.1189(10) 1.1765(7) -0.3253(7)
C1A C -0.2521(11) 0.6843(8) -0.1832(9)
C2A C -0.1729(11) 0.9312(8) -0.2615(9)
H1A H -0.1207 0.9543 -0.1725
C3A C -0.1786(12) 1.0332(8) -0.3625(8)
C4A C -0.2467(10) 0.9996(8) -0.4984(8)
H2A H -0.2480 1.0688 -0.5652
C5A C -0.3135(10) 0.8592(8) -0.5335(8)
C6A C -0.3195(11) 0.7594(9) -0.4324(9)
H3A H -0.3720 0.6688 -0.4546
C7A C -0.2464(11) 0.7936(9) -0.2951(8)
C8A C -0.3875(12) 0.9139(8) -0.7843(8)
H4A H -0.3679 1.0127 -0.7791
C9A C -0.4369(12) 0.8311(9) -0.9004(9)
H5A H -0.4595 0.8647 -0.9893
C10A C -0.4058(11) 0.6864(9) -0.7337(9)
H6A H -0.3986 0.6038 -0.6836
C11A C -0.0672(12) 1.2306(10) -0.1961(10)
H7A H -0.0588 1.1758 -0.1175
C12A C -0.0522(11) 1.4071(9) -0.3286(9)
H8A H -0.0300 1.4987 -0.3591
C13A C -0.1114(12) 1.2918(8) -0.4109(9)
H9A H -0.1414 1.2902 -0.5066
H12A H -0.268(7) 0.499(8) 0.138(7)
H12A_2 H 0.732(7) 0.499(8) 0.138(7)
O4 O 0.2612(11) 0.7442(8) -0.2706(8)
H10 H 0.25(2) 0.830(5) -0.238(12)
H11 H 0.246(18) 0.702(10) -0.195(7)
loop_
_geom_bond_atom_site_label_1
_geom_bond_atom_site_label_2
_geom_bond_site_symmetry_1
_geom_bond_site_symmetry_2
Co1 O3 1_555 1_555
Co2 O3 1_555 1_555
O1 C1 1_555 1_555
O2 C1 1_555 1_555
O3 H12 1_555 1_555
O4 H10 1_555 1_555
N1 C9 1_555 1_555
N2 C5 1_555 1_555
N3 Co1 1_555 1_555
N4 C3 1_555 1_555
C1 C7 1_555 1_555
C2 H1 1_555 1_555
C3 C2 1_555 1_555
C4 C3 1_555 1_555
H2 C4 1_555 1_555
C5 C4 1_555 1_555
C6 C5 1_555 1_555
H3 C6 1_555 1_555
C7 C2 1_555 1_555
C8 N2 1_555 1_555
H4 C8 1_555 1_555
C9 C8 1_555 1_555
H5 C9 1_555 1_555
C10 N1 1_555 1_555
H6 C10 1_555 1_555
C11 N3 1_555 1_555
H7 C11 1_555 1_555
C12 N3 1_555 1_555
H8 C12 1_555 1_555
C13 N4 1_555 1_555
H9 C13 1_555 1_555
H11 O4 1_555 1_555
Co1_2 O2 1_555 1_555
Co2_2 O1 1_555 1_555
Co2_3 N1 1_555 1_555
Co2_4 O1A 1_555 1_555
Co2_5 N1A 1_555 1_555
O1A C1A 1_555 1_555
O1A_2 Co2 1_555 1_555
O1_2 Co2 1_555 1_555
O2A Co1 1_555 1_555
O2_2 Co1 1_555 1_555
O3A Co1 1_555 1_555
O3A_2 Co2 1_555 1_555
N1A C9A 1_555 1_555
N1A_2 Co2 1_555 1_555
N1_2 Co2 1_555 1_555
N2A C5A 1_555 1_555
N3A Co1_2 1_555 1_555
N3A_2 Co1 1_555 1_555
N4A C3A 1_555 1_555
C1A O2A 1_555 1_555
C2A H1A 1_555 1_555
C3A C2A 1_555 1_555
C4A C3A 1_555 1_555
H2A C4A 1_555 1_555
C5A C4A 1_555 1_555
C6A C5A 1_555 1_555
H3A C6A 1_555 1_555
C7A C1A 1_555 1_555
C8A N2A 1_555 1_555
H4A C8A 1_555 1_555
C9A C8A 1_555 1_555
H5A C9A 1_555 1_555
C10A N1A 1_555 1_555
H6A C10A 1_555 1_555
C11A N3A 1_555 1_555
H7A C11A 1_555 1_555
C12A N3A 1_555 1_555
H8A C12A 1_555 1_555
C13A N4A 1_555 1_555
H9A C13A 1_555 1_555
H12A O3A 1_555 1_555
H12A_2 O3A_2 1_555 1_555
N2 C10 1_555 1_555
N4 C11 1_555 1_555
C6 C7 1_555 1_555
C12 C13 1_555 1_555
Co2_4 O3A 1_555 1_555
N2A C10A 1_555 1_555
N4A C11A 1_555 1_555
C2A C7A 1_555 1_555
C6A C7A 1_555 1_555
C12A C13A 1_555 1_555

#END
