
#######################################################################
#
#                 Cambridge Crystallographic Data Centre
#                                CCDC 
#
#######################################################################
#
# If this CIF has been generated from an entry in the Cambridge 
# Structural Database, then it will include bibliographic, chemical, 
# crystal, experimental, refinement or atomic coordinate data resulting 
# from the CCDC's data processing and validation procedures.
#
#######################################################################

data_UVEPAN
_symmetry_cell_setting           monoclinic
_symmetry_space_group_name_H-M   'C 2/c'
_symmetry_Int_Tables_number      15
_space_group_name_Hall           '-C 2yn'
loop_
_symmetry_equiv_pos_site_id
_symmetry_equiv_pos_as_xyz
1 x,y,z
2 -x,y,1/2-z
3 1/2+x,1/2+y,z
4 1/2-x,1/2+y,1/2-z
5 -x,-y,-z
6 x,-y,1/2+z
7 1/2-x,1/2-y,-z
8 1/2+x,1/2-y,1/2+z
_cell_length_a                   12.392(5)
_cell_length_b                   13.697(6)
_cell_length_c                   7.612(6)
_cell_angle_alpha                90
_cell_angle_beta                 93.127(6)
_cell_angle_gamma                90
_cell_volume                     1290.09
loop_
_atom_site_label
_atom_site_type_symbol
_atom_site_fract_x
_atom_site_fract_y
_atom_site_fract_z
Zn1 Zn 0.0000 0.0000 0.5000
O1 O 0.0000 -0.08669(18) 0.7500
O2 O 0.03740(14) 0.13401(13) 0.6189(2)
N1 N -0.33712(17) 0.52110(16) 0.9696(3)
C1 C 0.0000 0.2855(3) 0.7500
C2 C -0.2788(2) 0.60731(19) 0.9684(3)
H1 H -0.3053 0.6684 0.9975
N2 N -0.17217(17) 0.49024(15) 0.8883(3)
C3 C -0.2708(2) 0.4525(2) 0.9205(3)
H2 H -0.2890 0.3868 0.9092
O3 O -0.08707(17) -0.22647(16) 0.7475(3)
C4 C 0.0000 0.4890(3) 0.7500
H3 H 0.0000 0.5569 0.7500
C5 C -0.08324(19) 0.43723(19) 0.8234(3)
C6 C -0.08055(19) 0.33589(19) 0.8328(3)
H4 H -0.1319 0.3022 0.8935
N3 N 0.0000 -0.1827(2) 0.7500
C7 C -0.1776(2) 0.58932(19) 0.9184(3)
H5 H -0.1227 0.6347 0.9066
C8 C 0.0000 0.1755(3) 0.7500
Zn1B Zn 0.5000 0.5000 0.5000
Zn1C Zn -0.5000 0.5000 1.0000
Zn1A Zn 0.0000 0.0000 1.0000
O1D O 0.0000 0.08669(18) 0.2500
O2A O -0.03740(14) 0.13401(13) 0.8811(2)
O2D O -0.03740(14) -0.13401(13) 0.3811(2)
N1A N 0.33712(17) 0.52110(16) 0.5304(3)
N1C N -0.16288(17) 0.02110(16) 0.5304(3)
N1G N 0.16288(17) -0.02110(16) 0.4696(3)
C2A C 0.2788(2) 0.60731(19) 0.5316(3)
H1A H 0.3053 0.6684 0.5025
N2A N 0.17217(17) 0.49024(15) 0.6117(3)
C3A C 0.2708(2) 0.4525(2) 0.5795(3)
H2A H 0.2890 0.3868 0.5908
O3A O 0.08707(17) -0.22647(16) 0.7525(3)
C5A C 0.08324(19) 0.43723(19) 0.6766(3)
C6A C 0.08055(19) 0.33589(19) 0.6672(3)
H4A H 0.1319 0.3022 0.6065
C7A C 0.1776(2) 0.58932(19) 0.5816(3)
H5A H 0.1227 0.6347 0.5934
loop_
_geom_bond_atom_site_label_1
_geom_bond_atom_site_label_2
_geom_bond_site_symmetry_1
_geom_bond_site_symmetry_2
Zn1 O1 1_555 1_555
O1 N3 1_555 1_555
O2 Zn1 1_555 1_555
N1 C2 1_555 1_555
C1 C6 1_555 1_555
C2 H1 1_555 1_555
N2 C3 1_555 1_555
C3 N1 1_555 1_555
H2 C3 1_555 1_555
O3 N3 1_555 1_555
C4 H3 1_555 1_555
C5 N2 1_555 1_555
C6 C5 1_555 1_555
H4 C6 1_555 1_555
N3 O3A 1_555 1_555
C7 C2 1_555 1_555
H5 C7 1_555 1_555
C8 O2 1_555 1_555
Zn1B N1A 1_555 1_555
Zn1C N1 1_555 1_555
Zn1A O1 1_555 1_555
O1D Zn1 1_555 1_555
O2A C8 1_555 1_555
O2D Zn1 1_555 1_555
N1A C2A 1_555 1_555
N1C Zn1 1_555 1_555
N1G Zn1 1_555 1_555
C2A H1A 1_555 1_555
N2A C3A 1_555 1_555
C3A N1A 1_555 1_555
H2A C3A 1_555 1_555
C5A C4 1_555 1_555
C6A C1 1_555 1_555
H4A C6A 1_555 1_555
C7A C2A 1_555 1_555
H5A C7A 1_555 1_555
C1 C8 1_555 1_555
N2 C7 1_555 1_555
C4 C5 1_555 1_555
Zn1A O2A 1_555 1_555
N2A C5A 1_555 1_555
N2A C7A 1_555 1_555
C5A C6A 1_555 1_555

#END
