
#######################################################################
#
#                 Cambridge Crystallographic Data Centre
#                                CCDC 
#
#######################################################################
#
# If this CIF has been generated from an entry in the Cambridge 
# Structural Database, then it will include bibliographic, chemical, 
# crystal, experimental, refinement or atomic coordinate data resulting 
# from the CCDC's data processing and validation procedures.
#
#######################################################################

data_UVEPER
_symmetry_cell_setting           orthorhombic
_symmetry_space_group_name_H-M   'P n a 21'
_symmetry_Int_Tables_number      33
_space_group_name_Hall           'P 2c -2n'
loop_
_symmetry_equiv_pos_site_id
_symmetry_equiv_pos_as_xyz
1 x,y,z
2 -x,-y,1/2+z
3 1/2-x,1/2+y,1/2+z
4 1/2+x,1/2-y,z
_cell_length_a                   6.673(4)
_cell_length_b                   14.874(3)
_cell_length_c                   12.472(4)
_cell_angle_alpha                90
_cell_angle_beta                 90
_cell_angle_gamma                90
_cell_volume                     1237.9
loop_
_atom_site_label
_atom_site_type_symbol
_atom_site_fract_x
_atom_site_fract_y
_atom_site_fract_z
Cu1 Cu 0.26589(13) 0.76059(6) 1.02574(16)
O1 O -0.1248(8) 0.4258(4) 1.5706(5)
O2 O 0.1659(8) 0.4271(3) 1.4797(4)
N1 N 0.1904(9) 0.7833(4) 1.1708(5)
N2 N 0.1128(10) 0.7557(4) 1.3385(5)
N3 N -0.1664(10) 0.7740(5) 1.8828(5)
N4 N -0.0836(10) 0.7523(4) 1.7127(5)
C1 C 0.1681(11) 0.8635(5) 1.2221(6)
H1 H 0.1834 0.9198 1.1906
C2 C 0.1203(12) 0.8485(5) 1.3260(6)
H2 H 0.0970 0.8916 1.3786
C3 C 0.1558(11) 0.7195(5) 1.2417(6)
H3 H 0.1604 0.6582 1.2272
C4 C -0.1283(11) 0.7128(5) 1.8089(5)
H4 H -0.1314 0.6511 1.8206
C5 C -0.1435(12) 0.8561(5) 1.8345(6)
H5 H -0.1610 0.9113 1.8685
C6 C -0.0914(12) 0.8453(5) 1.7291(6)
H6 H -0.0664 0.8902 1.6791
C7 C -0.0375(12) 0.7059(5) 1.6175(7)
C8 C 0.0158(9) 0.7541(3) 1.5264(18)
H7 H 0.0170 0.8166 1.5273
C9 C 0.0678(12) 0.7070(5) 1.4331(6)
C10 C 0.0782(11) 0.6128(5) 1.4331(6)
H8 H 0.1237 0.5819 1.3730
C11 C 0.0185(9) 0.5659(4) 1.5259(11)
C12 C -0.0443(12) 0.6121(5) 1.6145(6)
H9 H -0.0922 0.5806 1.6736
C13 C 0.0184(9) 0.4644(4) 1.5226(10)
Cu1C Cu -0.23411(13) 0.73941(6) 2.02574(16)
N3C N 0.3336(10) 0.7260(5) 0.8828(5)
O3 O 1.0183(8) 0.9799(3) 0.5315(8)
H10 H 0.922(13) 1.018(5) 0.519(10)
H11 H 1.10(3) 1.017(10) 0.572(13)
loop_
_geom_bond_atom_site_label_1
_geom_bond_atom_site_label_2
_geom_bond_site_symmetry_1
_geom_bond_site_symmetry_2
Cu1 N1 1_555 1_555
O1 C13 1_555 1_555
O2 C13 1_555 1_555
N1 C1 1_555 1_555
N2 C2 1_555 1_555
N3 C4 1_555 1_555
N4 C4 1_555 1_555
C1 H1 1_555 1_555
C2 C1 1_555 1_555
H2 C2 1_555 1_555
C3 N1 1_555 1_555
H3 C3 1_555 1_555
C4 H4 1_555 1_555
C5 N3 1_555 1_555
H5 C5 1_555 1_555
C6 N4 1_555 1_555
H6 C6 1_555 1_555
C7 N4 1_555 1_555
C8 C7 1_555 1_555
H7 C8 1_555 1_555
C9 N2 1_555 1_555
C10 C9 1_555 1_555
H8 C10 1_555 1_555
C11 C10 1_555 1_555
C12 C7 1_555 1_555
H9 C12 1_555 1_555
C13 C11 1_555 1_555
O3 H10 1_555 1_555
H11 O3 1_555 1_555
Cu1C N3 1_555 1_555
N3C Cu1 1_555 1_555
N2 C3 1_555 1_555
C5 C6 1_555 1_555
C8 C9 1_555 1_555
C11 C12 1_555 1_555

#END
