
#######################################################################
#
#                 Cambridge Crystallographic Data Centre
#                                CCDC 
#
#######################################################################
#
# If this CIF has been generated from an entry in the Cambridge 
# Structural Database, then it will include bibliographic, chemical, 
# crystal, experimental, refinement or atomic coordinate data resulting 
# from the CCDC's data processing and validation procedures.
#
#######################################################################

data_UVEPUH
_symmetry_cell_setting           monoclinic
_symmetry_space_group_name_H-M   'P 21/c'
_symmetry_Int_Tables_number      14
_space_group_name_Hall           '-P 2ybc'
loop_
_symmetry_equiv_pos_site_id
_symmetry_equiv_pos_as_xyz
1 x,y,z
2 -x,1/2+y,1/2-z
3 -x,-y,-z
4 x,1/2-y,1/2+z
_cell_length_a                   14.423(3)
_cell_length_b                   13.523(3)
_cell_length_c                   14.776(4)
_cell_angle_alpha                90
_cell_angle_beta                 100.451(4)
_cell_angle_gamma                90
_cell_volume                     2834.13
loop_
_atom_site_label
_atom_site_type_symbol
_atom_site_fract_x
_atom_site_fract_y
_atom_site_fract_z
Pb1 Pb 0.77459(3) 0.22136(3) 0.80398(3)
Pb2 Pb 1.30260(3) 0.71795(3) 0.96838(3)
O1 O 0.7003(5) 0.3837(5) 0.8451(6)
O2 O 0.8526(5) 0.3889(6) 0.8422(6)
O3 O 1.2219(7) 0.5796(6) 0.8627(9)
O4 O 1.3703(6) 0.5541(6) 0.9218(7)
O5 O 1.3106(8) 0.9137(8) 1.0141(8)
O6 O 1.2736(7) 0.9868(7) 0.8851(10)
O7 O 1.2175(7) 1.0383(8) 0.9978(10)
O8 O 0.7316(6) 0.2876(6) 0.6681(5)
N1 N 0.9460(7) 0.2022(7) 0.7763(7)
N2 N 1.0999(7) 0.2244(6) 0.8018(7)
N3 N 1.4383(6) 0.2121(6) 0.8059(6)
N4 N 1.5831(7) 0.1809(8) 0.7888(7)
N5 N 0.9550(6) 0.7362(7) 0.9478(7)
N6 N 1.1081(7) 0.7693(8) 0.9736(9)
N7 N 0.4704(7) 0.7558(8) 0.9536(7)
N8 N 0.6157(6) 0.7288(6) 0.9333(7)
N9 N 1.2697(9) 0.9804(9) 0.9685(9)
C1 C 0.9906(8) 0.1109(10) 0.7893(10)
H1 H 0.9599 0.0504 0.7890
C2 C 1.0847(8) 0.1228(9) 0.8024(9)
H2 H 1.1302 0.0733 0.8102
C3 C 1.0135(8) 0.2651(9) 0.7851(9)
H3 H 1.0036 0.3329 0.7803
C4 C 1.1882(7) 0.2733(8) 0.8118(9)
C5 C 1.2684(7) 0.2207(7) 0.8028(9)
H4 H 1.2633 0.1541 0.7869
C6 C 1.3563(7) 0.2659(8) 0.8172(8)
C7 C 1.3624(7) 0.3653(8) 0.8399(8)
H5 H 1.4209 0.3964 0.8502
C8 C 1.2829(8) 0.4187(9) 0.8476(8)
C9 C 1.1961(8) 0.3746(8) 0.8345(7)
H6 H 1.1429 0.4111 0.8405
C10 C 1.4490(8) 0.1100(9) 0.8123(8)
H7 H 1.4042 0.0633 0.8213
C11 C 1.5401(8) 0.0935(9) 0.8023(8)
H8 H 1.5687 0.0317 0.8044
C12 C 1.5201(9) 0.2518(10) 0.7941(9)
H9 H 1.5314 0.3192 0.7902
C13 C 0.7792(7) 0.4280(7) 0.8560(7)
C14 C 0.7828(7) 0.5350(7) 0.8883(7)
C15 C 0.8672(7) 0.5857(8) 0.9048(8)
H10 H 0.9226 0.5545 0.8968
C16 C 0.8689(7) 0.6811(8) 0.9329(7)
C17 C 0.7868(7) 0.7287(6) 0.9429(7)
H11 H 0.7887 0.7942 0.9621
C18 C 0.7016(7) 0.6787(8) 0.9242(7)
C19 C 0.6982(8) 0.5828(8) 0.8960(7)
H12 H 0.6410 0.5495 0.8821
C20 C 0.9657(9) 0.8362(11) 0.9497(12)
H13 H 0.9182 0.8835 0.9407
C21 C 1.0431(9) 0.7000(10) 0.9651(9)
H14 H 1.0568 0.6328 0.9705
C22 C 1.0604(10) 0.8525(11) 0.9675(12)
H15 H 1.0879 0.9149 0.9746
C23 C 0.5126(8) 0.8443(9) 0.9416(9)
H16 H 0.4836 0.9057 0.9424
C24 C 0.6004(8) 0.8308(8) 0.9287(9)
H17 H 0.6430 0.8794 0.9187
C25 C 0.5367(7) 0.6896(8) 0.9484(7)
H18 H 0.5282 0.6220 0.9549
C26 C 1.2920(10) 0.5242(9) 0.8782(10)
H19 H 0.711(12) 0.347(5) 0.665(11)
Pb1_2 Pb 1.77459(3) 0.22136(3) 0.80398(3)
Pb2A Pb 0.69740(3) 0.21795(3) 0.53162(3)
Pb2_2 Pb 0.30260(3) 0.71795(3) 0.96838(3)
O8A O 1.2684(6) 0.7876(6) 0.8319(5)
N4_2 N 0.5831(7) 0.1809(8) 0.7888(7)
N7_2 N 1.4704(7) 0.7558(8) 0.9536(7)
H19A H 1.289(12) 0.847(5) 0.835(11)
loop_
_geom_bond_atom_site_label_1
_geom_bond_atom_site_label_2
_geom_bond_site_symmetry_1
_geom_bond_site_symmetry_2
Pb1 O1 1_555 1_555
Pb2 O3 1_555 1_555
O1 C13 1_555 1_555
O2 Pb1 1_555 1_555
O3 C26 1_555 1_555
O4 Pb2 1_555 1_555
O5 Pb2 1_555 1_555
O6 N9 1_555 1_555
O7 N9 1_555 1_555
O8 Pb1 1_555 1_555
N1 Pb1 1_555 1_555
N2 C2 1_555 1_555
N3 C6 1_555 1_555
N4 C11 1_555 1_555
N5 C16 1_555 1_555
N6 C21 1_555 1_555
N7 C23 1_555 1_555
N8 C18 1_555 1_555
N9 O5 1_555 1_555
C1 N1 1_555 1_555
H1 C1 1_555 1_555
C2 C1 1_555 1_555
H2 C2 1_555 1_555
C3 N1 1_555 1_555
H3 C3 1_555 1_555
C4 N2 1_555 1_555
C5 C4 1_555 1_555
H4 C5 1_555 1_555
C6 C5 1_555 1_555
C7 C6 1_555 1_555
H5 C7 1_555 1_555
C8 C7 1_555 1_555
C9 C4 1_555 1_555
H6 C9 1_555 1_555
C10 N3 1_555 1_555
H7 C10 1_555 1_555
C11 C10 1_555 1_555
H8 C11 1_555 1_555
C12 N3 1_555 1_555
H9 C12 1_555 1_555
C13 O2 1_555 1_555
C14 C13 1_555 1_555
C15 C14 1_555 1_555
H10 C15 1_555 1_555
C16 C15 1_555 1_555
C17 C16 1_555 1_555
H11 C17 1_555 1_555
C18 C17 1_555 1_555
C19 C14 1_555 1_555
H12 C19 1_555 1_555
C20 N5 1_555 1_555
H13 C20 1_555 1_555
C21 N5 1_555 1_555
H14 C21 1_555 1_555
C22 N6 1_555 1_555
H15 C22 1_555 1_555
C23 H16 1_555 1_555
C24 N8 1_555 1_555
H17 C24 1_555 1_555
C25 N7 1_555 1_555
H18 C25 1_555 1_555
C26 O4 1_555 1_555
H19 O8 1_555 1_555
Pb1_2 N4 1_555 1_555
Pb2A O8 1_555 1_555
Pb2_2 N7 1_555 1_555
O8A Pb2 1_555 1_555
N4_2 Pb1 1_555 1_555
N7_2 Pb2 1_555 1_555
H19A O8A 1_555 1_555
N2 C3 1_555 1_555
N4 C12 1_555 1_555
N8 C25 1_555 1_555
C8 C9 1_555 1_555
C8 C26 1_555 1_555
C18 C19 1_555 1_555
C20 C22 1_555 1_555
C23 C24 1_555 1_555

#END
