
#######################################################################
#
#                 Cambridge Crystallographic Data Centre
#                                CCDC 
#
#######################################################################
#
# If this CIF has been generated from an entry in the Cambridge 
# Structural Database, then it will include bibliographic, chemical, 
# crystal, experimental, refinement or atomic coordinate data resulting 
# from the CCDC's data processing and validation procedures.
#
#######################################################################

data_UVEPIV
_symmetry_cell_setting           triclinic
_symmetry_space_group_name_H-M   'P -1'
_symmetry_Int_Tables_number      2
_space_group_name_Hall           '-P 1'
loop_
_symmetry_equiv_pos_site_id
_symmetry_equiv_pos_as_xyz
1 x,y,z
2 -x,-y,-z
_cell_length_a                   10.619(4)
_cell_length_b                   11.171(5)
_cell_length_c                   13.429(4)
_cell_angle_alpha                70.495(5)
_cell_angle_beta                 67.445(5)
_cell_angle_gamma                88.465(3)
_cell_volume                     1377.32
loop_
_atom_site_label
_atom_site_type_symbol
_atom_site_fract_x
_atom_site_fract_y
_atom_site_fract_z
Ni1 Ni 0.0000 1.0000 1.0000
Ni2 Ni 0.5000 0.5000 0.5000
O1 O -0.0459(3) 0.8336(3) 0.9753(3)
O2 O 0.6851(3) 0.5108(3) 0.3654(2)
O6 O 0.7892(3) 0.4774(3) 1.0619(2)
O7 O 0.7156(4) 0.6264(3) 1.1399(3)
O8 O 0.1112(3) 1.1378(3) 0.2018(2)
O9 O -0.0302(3) 1.2206(3) 0.3286(3)
N1 N 0.1866(4) 0.9316(3) 1.0000(3)
N2 N 0.3686(4) 0.8244(3) 0.9845(3)
N3 N 0.6234(3) 0.5893(3) 0.7344(3)
N4 N 0.5930(3) 0.5381(3) 0.6001(3)
N5 N 0.0832(3) 1.0934(3) 0.8242(3)
N6 N 0.1539(4) 1.1261(3) 0.6392(3)
N7 N 0.4041(3) 0.8847(3) 0.3977(3)
N8 N 0.4847(3) 0.6974(3) 0.4256(3)
C1 C 0.2532(5) 0.9609(5) 1.0605(4)
H1 H 0.2260 1.0169 1.1008
C2 C 0.3639(5) 0.8960(5) 1.0526(4)
H2 H 0.4252 0.8988 1.0863
C3 C 0.2577(4) 0.8496(4) 0.9555(3)
H3 H 0.2354 0.8136 0.9103
C4 C 0.4704(4) 0.7431(4) 0.9545(3)
C5 C 0.4972(4) 0.7113(4) 0.8562(3)
H4 H 0.4499 0.7439 0.8091
C6 C 0.5970(4) 0.6294(4) 0.8308(3)
C7 C 0.6689(4) 0.5825(4) 0.9006(3)
H5 H 0.7342 0.5272 0.8838
C8 C 0.6427(4) 0.6188(4) 0.9960(3)
C9 C 0.5435(4) 0.6977(4) 1.0226(3)
H6 H 0.5254 0.7208 1.0868
C10 C 0.7219(4) 0.5701(4) 1.0712(3)
C11 C 0.5415(4) 0.5931(4) 0.6787(3)
H7 H 0.4595 0.6294 0.6931
C12 C 0.7134(4) 0.4966(4) 0.6076(3)
H8 H 0.7718 0.4540 0.5627
C13 C 0.7338(4) 0.5268(4) 0.6894(3)
H9 H 0.8073 0.5093 0.7114
C14 C 0.0619(5) 1.2161(4) 0.7684(3)
H10 H 0.0244 1.2746 0.8041
C15 C 0.1036(5) 1.2382(4) 0.6551(4)
H11 H 0.0996 1.3126 0.5990
C16 C 0.1380(4) 1.0433(4) 0.7444(3)
H12 H 0.1631 0.9608 0.7581
C17 C 0.1896(4) 1.0965(4) 0.5372(3)
C18 C 0.2870(4) 1.0126(4) 0.5143(3)
H13 H 0.3342 0.9806 0.5615
C19 C 0.3116(4) 0.9779(4) 0.4185(3)
C20 C 0.2460(4) 1.0287(4) 0.3454(3)
H14 H 0.2658 1.0063 0.2806
C21 C 0.1507(4) 1.1133(4) 0.3685(3)
C22 C 0.1215(4) 1.1464(4) 0.4658(3)
H15 H 0.0563 1.2019 0.4826
C23 C 0.0705(4) 1.1632(4) 0.2931(3)
C24 C 0.5039(4) 0.8900(4) 0.2941(4)
H16 H 0.5322 0.9591 0.2251
C25 C 0.5532(4) 0.7756(4) 0.3116(3)
H17 H 0.6226 0.7526 0.2558
C26 C 0.3972(4) 0.7663(4) 0.4752(3)
H18 H 0.3384 0.7382 0.5527
H19 H -0.100(6) 0.777(6) 1.031(4)
H20 H -0.059(6) 0.829(6) 0.920(3)
H21 H 0.761(3) 0.502(5) 0.366(4)
H22 H 0.697(6) 0.546(6) 0.297(2)
Ni2_2 Ni -0.5000 1.5000 1.5000
O1A O 0.0459(3) 1.1664(3) 1.0247(3)
O2A O 0.3149(3) 0.4892(3) 0.6346(2)
O6A O -0.7892(3) 1.5226(3) 0.9381(2)
O7A O -0.7156(4) 1.3736(3) 0.8601(3)
O8A O -0.1112(3) 0.8622(3) 1.7982(2)
O9A O 0.0302(3) 0.7794(3) 1.6714(3)
N1A N -0.1866(4) 1.0684(3) 1.0000(3)
N2A N -0.3686(4) 1.1756(3) 1.0155(3)
N3A N -0.6234(3) 1.4107(3) 1.2656(3)
N4A N -0.5930(3) 1.4619(3) 1.3999(3)
N4A_2 N 0.4070(3) 0.4619(3) 0.3999(3)
N5A N -0.0832(3) 0.9066(3) 1.1758(3)
N6A N -0.1539(4) 0.8739(3) 1.3608(3)
N7A N -0.4041(3) 1.1153(3) 1.6023(3)
N8A N -0.4847(3) 1.3026(3) 1.5744(3)
N8A_2 N 0.5153(3) 0.3026(3) 0.5744(3)
C1A C -0.2532(5) 1.0391(5) 0.9395(4)
H1A H -0.2260 0.9831 0.8992
C2A C -0.3639(5) 1.1040(5) 0.9474(4)
H2A H -0.4252 1.1012 0.9137
C3A C -0.2577(4) 1.1504(4) 1.0445(3)
H3A H -0.2354 1.1864 1.0897
C4A C -0.4704(4) 1.2569(4) 1.0455(3)
C5A C -0.4972(4) 1.2887(4) 1.1438(3)
H4A H -0.4499 1.2561 1.1909
C6A C -0.5970(4) 1.3706(4) 1.1692(3)
C7A C -0.6689(4) 1.4175(4) 1.0994(3)
H5A H -0.7342 1.4728 1.1162
C8A C -0.6427(4) 1.3812(4) 1.0040(3)
C9A C -0.5435(4) 1.3023(4) 0.9774(3)
H6A H -0.5254 1.2792 0.9132
C10A C -0.7219(4) 1.4299(4) 0.9288(3)
C11A C -0.5415(4) 1.4069(4) 1.3213(3)
H7A H -0.4595 1.3706 1.3069
C12A C -0.7134(4) 1.5034(4) 1.3924(3)
H8A H -0.7718 1.5460 1.4373
C13A C -0.7338(4) 1.4732(4) 1.3106(3)
H9A H -0.8073 1.4907 1.2886
C14A C -0.0619(5) 0.7839(4) 1.2316(3)
H10A H -0.0244 0.7254 1.1959
C15A C -0.1036(5) 0.7618(4) 1.3449(4)
H11A H -0.0996 0.6874 1.4010
C16A C -0.1380(4) 0.9567(4) 1.2556(3)
H12A H -0.1631 1.0392 1.2419
C17A C -0.1896(4) 0.9035(4) 1.4628(3)
C18A C -0.2870(4) 0.9874(4) 1.4857(3)
H13A H -0.3342 1.0194 1.4385
C19A C -0.3116(4) 1.0221(4) 1.5815(3)
C20A C -0.2460(4) 0.9713(4) 1.6546(3)
H14A H -0.2658 0.9937 1.7194
C21A C -0.1507(4) 0.8867(4) 1.6315(3)
C22A C -0.1215(4) 0.8536(4) 1.5342(3)
H15A H -0.0563 0.7981 1.5174
C23A C -0.0705(4) 0.8368(4) 1.7069(3)
C24A C -0.5039(4) 1.1100(4) 1.7059(4)
H16A H -0.5322 1.0409 1.7749
C25A C -0.5532(4) 1.2244(4) 1.6884(3)
H17A H -0.6226 1.2474 1.7442
C26A C -0.3972(4) 1.2337(4) 1.5248(3)
H18A H -0.3384 1.2618 1.4473
H19A H 0.100(6) 1.223(6) 0.969(4)
H20A H 0.059(6) 1.171(6) 1.080(3)
H21A H 0.239(3) 0.498(5) 0.634(4)
H22A H 0.303(6) 0.454(6) 0.703(2)
O3 O 0.2361(3) 0.7457(3) 0.7524(2)
H27 H 0.214(4) 0.681(3) 0.810(3)
H28 H 0.171(5) 0.751(6) 0.733(5)
O4 O -0.0079(4) 0.4426(4) 0.8799(3)
H25 H -0.071(5) 0.447(6) 0.939(3)
H26 H 0.060(5) 0.455(9) 0.893(7)
O5 O 0.0604(4) 0.5462(4) 0.6496(3)
H23 H 0.034(6) 0.511(5) 0.7197(19)
H24 H 0.049(9) 0.622(2) 0.641(5)
loop_
_geom_bond_atom_site_label_1
_geom_bond_atom_site_label_2
_geom_bond_site_symmetry_1
_geom_bond_site_symmetry_2
Ni1 O1 1_555 1_555
Ni2 O2 1_555 1_555
O1 H19 1_555 1_555
O2 H21 1_555 1_555
O3 H27 1_555 1_555
O4 H25 1_555 1_555
O5 H23 1_555 1_555
O6 C10 1_555 1_555
O7 C10 1_555 1_555
O8 C23 1_555 1_555
O9 C23 1_555 1_555
N1 Ni1 1_555 1_555
N2 C2 1_555 1_555
N3 C6 1_555 1_555
N4 Ni2 1_555 1_555
N5 Ni1 1_555 1_555
N6 C15 1_555 1_555
N7 C19 1_555 1_555
N8 Ni2 1_555 1_555
C1 N1 1_555 1_555
H1 C1 1_555 1_555
C2 C1 1_555 1_555
H2 C2 1_555 1_555
C3 N1 1_555 1_555
H3 C3 1_555 1_555
C4 N2 1_555 1_555
C5 C4 1_555 1_555
H4 C5 1_555 1_555
C6 C5 1_555 1_555
C7 C6 1_555 1_555
H5 C7 1_555 1_555
C8 C7 1_555 1_555
C9 C4 1_555 1_555
H6 C9 1_555 1_555
C10 C8 1_555 1_555
C11 N3 1_555 1_555
H7 C11 1_555 1_555
C12 N4 1_555 1_555
H8 C12 1_555 1_555
C13 N3 1_555 1_555
H9 C13 1_555 1_555
C14 N5 1_555 1_555
H10 C14 1_555 1_555
C15 C14 1_555 1_555
H11 C15 1_555 1_555
C16 N5 1_555 1_555
H12 C16 1_555 1_555
C17 N6 1_555 1_555
C18 C17 1_555 1_555
H13 C18 1_555 1_555
C19 C18 1_555 1_555
C20 C19 1_555 1_555
H14 C20 1_555 1_555
C21 C20 1_555 1_555
C22 C17 1_555 1_555
H15 C22 1_555 1_555
C23 C21 1_555 1_555
C24 N7 1_555 1_555
H16 C24 1_555 1_555
C25 N8 1_555 1_555
H17 C25 1_555 1_555
C26 N7 1_555 1_555
H18 C26 1_555 1_555
H20 O1 1_555 1_555
H22 O2 1_555 1_555
H24 O5 1_555 1_555
H26 O4 1_555 1_555
H28 O3 1_555 1_555
Ni2_2 N4A 1_555 1_555
O1A Ni1 1_555 1_555
O2A Ni2 1_555 1_555
O6A C10A 1_555 1_555
O7A C10A 1_555 1_555
O8A C23A 1_555 1_555
O9A C23A 1_555 1_555
N1A Ni1 1_555 1_555
N2A C2A 1_555 1_555
N3A C6A 1_555 1_555
N4A C11A 1_555 1_555
N4A_2 Ni2 1_555 1_555
N5A Ni1 1_555 1_555
N6A C15A 1_555 1_555
N7A C19A 1_555 1_555
N8A Ni2_2 1_555 1_555
N8A_2 Ni2 1_555 1_555
C1A N1A 1_555 1_555
H1A C1A 1_555 1_555
C2A C1A 1_555 1_555
H2A C2A 1_555 1_555
C3A N1A 1_555 1_555
H3A C3A 1_555 1_555
C4A N2A 1_555 1_555
C5A C4A 1_555 1_555
H4A C5A 1_555 1_555
C6A C5A 1_555 1_555
C7A C6A 1_555 1_555
H5A C7A 1_555 1_555
C8A C7A 1_555 1_555
C9A C4A 1_555 1_555
H6A C9A 1_555 1_555
C10A C8A 1_555 1_555
C11A N3A 1_555 1_555
H7A C11A 1_555 1_555
C12A N4A 1_555 1_555
H8A C12A 1_555 1_555
C13A N3A 1_555 1_555
H9A C13A 1_555 1_555
C14A N5A 1_555 1_555
H10A C14A 1_555 1_555
C15A C14A 1_555 1_555
H11A C15A 1_555 1_555
C16A N5A 1_555 1_555
H12A C16A 1_555 1_555
C17A N6A 1_555 1_555
C18A C17A 1_555 1_555
H13A C18A 1_555 1_555
C19A C18A 1_555 1_555
C20A C19A 1_555 1_555
H14A C20A 1_555 1_555
C21A C20A 1_555 1_555
C22A C17A 1_555 1_555
H15A C22A 1_555 1_555
C23A C21A 1_555 1_555
C24A N7A 1_555 1_555
H16A C24A 1_555 1_555
C25A N8A 1_555 1_555
H17A C25A 1_555 1_555
C26A N7A 1_555 1_555
H18A C26A 1_555 1_555
H19A O1A 1_555 1_555
H20A O1A 1_555 1_555
H21A O2A 1_555 1_555
H22A O2A 1_555 1_555
N2 C3 1_555 1_555
N4 C11 1_555 1_555
N6 C16 1_555 1_555
N8 C26 1_555 1_555
C8 C9 1_555 1_555
C12 C13 1_555 1_555
C21 C22 1_555 1_555
C24 C25 1_555 1_555
N2A C3A 1_555 1_555
N6A C16A 1_555 1_555
N8A C26A 1_555 1_555
C8A C9A 1_555 1_555
C12A C13A 1_555 1_555
C21A C22A 1_555 1_555
C24A C25A 1_555 1_555

#END
