
#######################################################################
#
#                 Cambridge Crystallographic Data Centre
#                                CCDC 
#
#######################################################################
#
# If this CIF has been generated from an entry in the Cambridge 
# Structural Database, then it will include bibliographic, chemical, 
# crystal, experimental, refinement or atomic coordinate data resulting 
# from the CCDC's data processing and validation procedures.
#
#######################################################################

data_UVEQIW
_symmetry_cell_setting           orthorhombic
_symmetry_space_group_name_H-M   'P n a m'
_symmetry_Int_Tables_number      62
_space_group_name_Hall           '-P 2c 2n'
loop_
_symmetry_equiv_pos_site_id
_symmetry_equiv_pos_as_xyz
1 x,y,z
2 -x,-y,1/2+z
3 1/2+x,1/2-y,1/2-z
4 1/2-x,1/2+y,-z
5 -x,-y,-z
6 x,y,1/2-z
7 1/2-x,1/2+y,1/2+z
8 1/2+x,1/2-y,z
_cell_length_a                   12.71226(38)
_cell_length_b                   9.99610(30)
_cell_length_c                   7.62678(23)
_cell_angle_alpha                90
_cell_angle_beta                 90
_cell_angle_gamma                90
_cell_volume                     969.158
loop_
_atom_site_label
_atom_site_type_symbol
_atom_site_fract_x
_atom_site_fract_y
_atom_site_fract_z
O1 O 0.32799(61) 0.50518(90) 0.25000
Mn1 Mn 0.23137(18) 0.69412(25) 0.25000
I1 I 0.11085(10) 0.93153(15) 0.25000
C1 C 0.53342 0.85027 0.75000
C2 C 0.43166 0.80557 0.75000
C3 C 0.37492 0.78065 0.59477
C4 C 0.59015 0.87519 0.59477
N1 N 0.33505 0.76314 0.46297
N2 N 0.63006 0.89270 0.46297
Mn1_2 Mn 0.23137(18) 0.69412(25) 1.25000
Mn1B Mn 0.73137(18) 0.80588(25) 0.25000
Mn1B_2 Mn 0.73137(18) 0.80588(25) 1.25000
C3E C 0.37492 0.78065 0.90523
C4E C 0.59015 0.87519 0.90523
N1E N 0.33505 0.76314 1.03703
N1E_2 N 0.33505 0.76314 0.03703
N2E N 0.63006 0.89270 1.03703
N2B N 0.13006 0.60730 0.03703
N2G N 0.13006 0.60730 0.46297
loop_
_geom_bond_atom_site_label_1
_geom_bond_atom_site_label_2
_geom_bond_site_symmetry_1
_geom_bond_site_symmetry_2
O1 Mn1 1_555 1_555
Mn1 I1 1_555 1_555
C1 C2 1_555 1_555
C2 C3 1_555 1_555
C3 N1 1_555 1_555
C4 C1 1_555 1_555
N1 Mn1 1_555 1_555
N2 C4 1_555 1_555
Mn1_2 N1E 1_555 1_555
Mn1B N2 1_555 1_555
Mn1B_2 N2E 1_555 1_555
C3E C2 1_555 1_555
C4E C1 1_555 1_555
N1E C3E 1_555 1_555
N1E_2 Mn1 1_555 1_555
N2E C4E 1_555 1_555
N2B Mn1 1_555 1_555
N2G Mn1 1_555 1_555

#END
