
#######################################################################
#
#                 Cambridge Crystallographic Data Centre
#                                CCDC 
#
#######################################################################
#
# If this CIF has been generated from an entry in the Cambridge 
# Structural Database, then it will include bibliographic, chemical, 
# crystal, experimental, refinement or atomic coordinate data resulting 
# from the CCDC's data processing and validation procedures.
#
#######################################################################

data_UVIKOA
_symmetry_cell_setting           triclinic
_symmetry_space_group_name_H-M   'P -1'
_symmetry_Int_Tables_number      2
_space_group_name_Hall           '-P 1'
loop_
_symmetry_equiv_pos_site_id
_symmetry_equiv_pos_as_xyz
1 x,y,z
2 -x,-y,-z
_cell_length_a                   9.1296(8)
_cell_length_b                   10.2260(9)
_cell_length_c                   13.0963(11)
_cell_angle_alpha                103.408(1)
_cell_angle_beta                 90.242(1)
_cell_angle_gamma                99.456(1)
_cell_volume                     1172.03
loop_
_atom_site_label
_atom_site_type_symbol
_atom_site_fract_x
_atom_site_fract_y
_atom_site_fract_z
O1 O 0.4983(9) 0.2065(8) 0.9872(5)
H1 H 0.5501 0.2645 1.0327
Pb1 Pb 0.37734(3) 0.35716(3) 0.86606(2)
Pb2 Pb 0.63519(3) 0.11527(3) 0.63477(2)
O2 O 0.6212(6) 0.5007(6) 0.9309(4)
O3 O 0.6306(6) 0.3251(6) 0.8020(4)
O4 O 1.3847(6) 0.1345(6) 0.7156(4)
O5 O 1.3865(6) -0.0224(6) 0.5716(4)
O6 O 0.3342(8) 0.5920(7) 0.8596(5)
O7 O 0.3845(7) 0.4613(7) 0.7105(5)
O8 O -0.3522(8) 0.9589(8) 0.7544(5)
O9 O -0.3096(8) 0.8654(7) 0.5905(6)
O10 O 0.5310(8) 0.3025(7) 0.5528(5)
H2 H 0.4889 0.3494 0.5990
H3 H 0.4670 0.2535 0.5105
H6 H 0.4439 0.1409 0.9997
C1 C 0.6943(9) 0.4180(8) 0.8728(6)
C2 C 0.8604(8) 0.4382(9) 0.8977(6)
H7 H 0.9052 0.5282 0.8905
H8 H 0.8759 0.4353 0.9704
C3 C 0.9389(9) 0.3338(9) 0.8289(6)
C4 C 0.9813(10) 0.3450(9) 0.7306(7)
H9 H 0.9631 0.4202 0.7072
C5 C 1.0498(10) 0.2492(10) 0.6648(6)
H10 H 1.0783 0.2614 0.5991
C6 C 1.0759(9) 0.1361(9) 0.6966(7)
C7 C 1.0327(10) 0.1242(9) 0.7968(7)
H11 H 1.0507 0.0496 0.8212
C8 C 0.9645(9) 0.2208(10) 0.8591(7)
H12 H 0.9345 0.2089 0.9246
C9 C 1.1483(9) 0.0271(10) 0.6250(7)
H13 H 1.1070 -0.0611 0.6378
H14 H 1.1228 0.0248 0.5526
C10 C 1.3151(9) 0.0483(8) 0.6394(6)
C11 C 0.3521(9) 0.5714(10) 0.7613(8)
C12 C 0.3266(9) 0.6803(10) 0.7068(8)
H15 H 0.3562 0.6563 0.6347
H16 H 0.3878 0.7660 0.7416
C13 C 0.1655(9) 0.6976(9) 0.7076(7)
C14 C 0.0739(10) 0.6513(9) 0.6176(7)
H17 H 0.1134 0.6129 0.5545
C15 C -0.0755(11) 0.6611(9) 0.6199(7)
H18 H -0.1342 0.6304 0.5581
C16 C -0.1386(10) 0.7151(10) 0.7115(8)
C17 C -0.0465(10) 0.7637(10) 0.8031(8)
H19 H -0.0872 0.8026 0.8656
C18 C 0.1038(10) 0.7552(10) 0.8028(7)
H20 H 0.1630 0.7870 0.8644
C19 C -0.3018(10) 0.7294(11) 0.7168(9)
H21 H -0.3613 0.6508 0.6700
H22 H -0.3340 0.7327 0.7877
C20 C -0.3249(9) 0.8588(12) 0.6851(10)
Pb1A Pb 0.62266(3) 0.64284(3) 1.13394(2)
Pb1_2 Pb 1.37734(3) 0.35716(3) 0.86606(2)
Pb2_2 Pb 1.63519(3) 0.11527(3) 0.63477(2)
Pb2A Pb 1.36481(3) -0.11527(3) 0.36523(2)
Pb2_3 Pb -0.36481(3) 1.11527(3) 0.63477(2)
O2A O 0.3788(6) 0.4993(6) 1.0691(4)
O4_2 O 0.3847(6) 0.1345(6) 0.7156(4)
O5_2 O 0.3865(6) -0.0224(6) 0.5716(4)
O5A O 0.6135(6) 0.0224(6) 0.4284(4)
O8_2 O 0.6478(8) -0.0411(8) 0.7544(5)
O9_2 O 0.6904(8) -0.1346(7) 0.5905(6)
O11 O 0.7055(10) 0.0170(9) 0.9672(6)
H4 H 0.6469 0.0708 0.9729
H5 H 0.6889 -0.0010 0.9035
loop_
_geom_bond_atom_site_label_1
_geom_bond_atom_site_label_2
_geom_bond_site_symmetry_1
_geom_bond_site_symmetry_2
O1 H1 1_555 1_555
Pb1 O1 1_555 1_555
Pb2 O3 1_555 1_555
O2 Pb1 1_555 1_555
O3 Pb1 1_555 1_555
O4 C10 1_555 1_555
O5 C10 1_555 1_555
O6 Pb1 1_555 1_555
O7 Pb1 1_555 1_555
O8 C20 1_555 1_555
O9 C20 1_555 1_555
O10 Pb2 1_555 1_555
H2 O10 1_555 1_555
H3 O10 1_555 1_555
O11 H4 1_555 1_555
H5 O11 1_555 1_555
H6 O1 1_555 1_555
C1 O2 1_555 1_555
C2 C1 1_555 1_555
H7 C2 1_555 1_555
H8 C2 1_555 1_555
C3 C2 1_555 1_555
C4 C3 1_555 1_555
H9 C4 1_555 1_555
C5 C4 1_555 1_555
H10 C5 1_555 1_555
C6 C5 1_555 1_555
C7 C6 1_555 1_555
H11 C7 1_555 1_555
C8 C3 1_555 1_555
H12 C8 1_555 1_555
C9 C6 1_555 1_555
H13 C9 1_555 1_555
H14 C9 1_555 1_555
C10 C9 1_555 1_555
C11 O6 1_555 1_555
C12 C11 1_555 1_555
H15 C12 1_555 1_555
H16 C12 1_555 1_555
C13 C12 1_555 1_555
C14 C13 1_555 1_555
H17 C14 1_555 1_555
C15 C14 1_555 1_555
H18 C15 1_555 1_555
C16 C15 1_555 1_555
C17 C16 1_555 1_555
H19 C17 1_555 1_555
C18 C13 1_555 1_555
H20 C18 1_555 1_555
C19 C16 1_555 1_555
H21 C19 1_555 1_555
H22 C19 1_555 1_555
C20 C19 1_555 1_555
Pb1A O2 1_555 1_555
Pb1_2 O4 1_555 1_555
Pb2_2 O4 1_555 1_555
Pb2A O5 1_555 1_555
Pb2_3 O8 1_555 1_555
O2A Pb1 1_555 1_555
O4_2 Pb1 1_555 1_555
O5_2 Pb2 1_555 1_555
O5A Pb2 1_555 1_555
O8_2 Pb2 1_555 1_555
O9_2 Pb2 1_555 1_555
Pb2 O4_2 1_555 1_555
O3 C1 1_555 1_555
O5 Pb2_2 1_555 1_555
O7 C11 1_555 1_555
O9 Pb2_3 1_555 1_555
C7 C8 1_555 1_555
C17 C18 1_555 1_555
Pb1A O2A 1_555 1_555

#END
