
#######################################################################
#
#                 Cambridge Crystallographic Data Centre
#                                CCDC 
#
#######################################################################
#
# If this CIF has been generated from an entry in the Cambridge 
# Structural Database, then it will include bibliographic, chemical, 
# crystal, experimental, refinement or atomic coordinate data resulting 
# from the CCDC's data processing and validation procedures.
#
#######################################################################

data_UVIKIU
_symmetry_cell_setting           monoclinic
_symmetry_space_group_name_H-M   'P 21'
_symmetry_Int_Tables_number      4
_space_group_name_Hall           'P 2yb'
loop_
_symmetry_equiv_pos_site_id
_symmetry_equiv_pos_as_xyz
1 x,y,z
2 -x,1/2+y,-z
_cell_length_a                   6.9718(5)
_cell_length_b                   18.1744(13)
_cell_length_c                   8.9804(7)
_cell_angle_alpha                90
_cell_angle_beta                 96.357(1)
_cell_angle_gamma                90
_cell_volume                     1130.89
loop_
_atom_site_label
_atom_site_type_symbol
_atom_site_fract_x
_atom_site_fract_y
_atom_site_fract_z
Pb1 Pb 0.45494(6) 0.03863(2) 0.80123(5)
Pb2 Pb -0.00020(6) 0.08212(3) 1.07360(5)
O1 O 0.0827(12) 0.0598(5) 0.8103(10)
O2 O -0.1981(12) 0.1080(5) 0.8321(10)
O3 O 0.6429(11) 0.0069(5) 0.0368(10)
O4 O 0.3341(11) -0.0118(5) 0.0369(10)
O5 O 0.8952(13) -0.2979(5) -0.0288(12)
O6 O 0.6115(14) -0.3509(5) -0.0193(12)
O7 O 0.6948(14) -0.0550(6) 0.7026(13)
O8 O 0.4084(14) -0.0921(5) 0.7452(11)
O9 O -0.2474(14) 0.1580(5) 1.1753(12)
C1 C -0.0683(15) 0.0887(7) 0.7507(13)
C2 C -0.1058(19) 0.1012(8) 0.5845(13)
H1 H -0.1198 0.1536 0.5658
H2 H -0.2267 0.0778 0.5473
C3 C 0.0559(17) 0.0711(7) 0.4969(14)
C4 C 0.1978(18) 0.1169(6) 0.4573(13)
H3 H 0.1916 0.1668 0.4786
C5 C 0.3502(16) 0.0905(8) 0.3864(13)
H4 H 0.4443 0.1229 0.3603
C6 C 0.3639(19) 0.0163(6) 0.3538(14)
C7 C 0.2212(19) -0.0300(7) 0.3951(15)
H5 H 0.2288 -0.0802 0.3772
C8 C 0.0685(19) -0.0026(8) 0.4622(16)
H6 H -0.0287 -0.0344 0.4847
C9 C 0.529(2) -0.0129(8) 0.2742(15)
H7 H 0.6461 0.0128 0.3118
H8 H 0.5471 -0.0647 0.2985
C10 C 0.4988(15) -0.0049(7) 0.1101(12)
C11 C 0.724(2) -0.2954(6) -0.0087(14)
C12 C 0.639(2) -0.2212(7) 0.0303(14)
H9 H 0.7157 -0.1818 -0.0061
H10 H 0.5089 -0.2170 -0.0193
C13 C 0.6359(18) -0.2132(6) 0.1938(14)
C14 C 0.471(2) -0.2276(8) 0.2666(17)
H11 H 0.3595 -0.2443 0.2099
C15 C 0.468(2) -0.2181(8) 0.4158(15)
H12 H 0.3547 -0.2270 0.4591
C16 C 0.631(2) -0.1954(6) 0.5034(14)
C17 C 0.797(2) -0.1825(7) 0.4369(14)
H13 H 0.9081 -0.1671 0.4950
C18 C 0.7981(19) -0.1923(7) 0.2870(15)
H14 H 0.9128 -0.1846 0.2454
C19 C 0.626(2) -0.1831(7) 0.6716(15)
H15 H 0.5324 -0.2164 0.7075
H16 H 0.7515 -0.1950 0.7236
C20 C 0.575(2) -0.1055(7) 0.7088(15)
H17 H -0.358(8) 0.145(6) 1.148(18)
H18 H -0.242(17) 0.2032(14) 1.181(17)
Pb1_2 Pb -0.54506(6) 0.03863(2) 0.80123(5)
Pb1_3 Pb 0.45494(6) 0.03863(2) -0.19877(5)
Pb2A Pb 1.00020(6) -0.41788(3) -0.07360(5)
O2_2 O 0.8019(12) 0.1080(5) 0.8321(10)
O3_2 O 0.6429(11) 0.0069(5) 1.0368(10)
O4_2 O 0.3341(11) -0.0118(5) 1.0369(10)
O5A O 0.1048(13) 0.2021(5) 1.0288(12)
O10 O 0.8564(18) 0.2969(7) 0.2288(18)
H19 H 0.754(12) 0.319(7) 0.230(14)
H20 H 0.904(19) 0.307(9) 0.151(10)
O11 O 1.003(2) 0.4014(9) 0.030(2)
H21 H 0.890(6) 0.409(8) 0.045(15)
H22 H 1.078(13) 0.423(8) 0.092(13)
loop_
_geom_bond_atom_site_label_1
_geom_bond_atom_site_label_2
_geom_bond_site_symmetry_1
_geom_bond_site_symmetry_2
Pb1 O1 1_555 1_555
Pb2 O1 1_555 1_555
O1 C1 1_555 1_555
O2 Pb2 1_555 1_555
O3 C10 1_555 1_555
O4 C10 1_555 1_555
O5 C11 1_555 1_555
O6 C11 1_555 1_555
O7 Pb1 1_555 1_555
O8 Pb1 1_555 1_555
O9 Pb2 1_555 1_555
O10 H19 1_555 1_555
O11 H21 1_555 1_555
C1 O2 1_555 1_555
C2 C1 1_555 1_555
H1 C2 1_555 1_555
H2 C2 1_555 1_555
C3 C2 1_555 1_555
C4 C3 1_555 1_555
H3 C4 1_555 1_555
C5 C4 1_555 1_555
H4 C5 1_555 1_555
C6 C5 1_555 1_555
C7 C6 1_555 1_555
H5 C7 1_555 1_555
C8 C3 1_555 1_555
H6 C8 1_555 1_555
C9 C6 1_555 1_555
H7 C9 1_555 1_555
H8 C9 1_555 1_555
C10 C9 1_555 1_555
C11 C12 1_555 1_555
C12 H9 1_555 1_555
H10 C12 1_555 1_555
C13 C12 1_555 1_555
C14 C13 1_555 1_555
H11 C14 1_555 1_555
C15 C14 1_555 1_555
H12 C15 1_555 1_555
C16 C15 1_555 1_555
C17 C16 1_555 1_555
H13 C17 1_555 1_555
C18 C13 1_555 1_555
H14 C18 1_555 1_555
C19 C16 1_555 1_555
H15 C19 1_555 1_555
H16 C19 1_555 1_555
C20 O7 1_555 1_555
H17 O9 1_555 1_555
H18 O9 1_555 1_555
H20 O10 1_555 1_555
H22 O11 1_555 1_555
Pb1_2 O2 1_555 1_555
Pb1_3 O3 1_555 1_555
Pb2A O5 1_555 1_555
O2_2 Pb1 1_555 1_555
O3_2 Pb1 1_555 1_555
O4_2 Pb1 1_555 1_555
O5A Pb2 1_555 1_555
O4 Pb1_3 1_555 1_555
O8 C20 1_555 1_555
C7 C8 1_555 1_555
C17 C18 1_555 1_555
C19 C20 1_555 1_555

#END
