
#######################################################################
#
#                 Cambridge Crystallographic Data Centre
#                                CCDC 
#
#######################################################################
#
# If this CIF has been generated from an entry in the Cambridge 
# Structural Database, then it will include bibliographic, chemical, 
# crystal, experimental, refinement or atomic coordinate data resulting 
# from the CCDC's data processing and validation procedures.
#
#######################################################################

data_UVIMUI
_symmetry_cell_setting           monoclinic
_symmetry_space_group_name_H-M   'P 21/c'
_symmetry_Int_Tables_number      14
_space_group_name_Hall           '-P 2ybc'
loop_
_symmetry_equiv_pos_site_id
_symmetry_equiv_pos_as_xyz
1 x,y,z
2 -x,1/2+y,1/2-z
3 -x,-y,-z
4 x,1/2-y,1/2+z
_cell_length_a                   7.2995(7)
_cell_length_b                   11.8735(12)
_cell_length_c                   13.8868(14)
_cell_angle_alpha                90
_cell_angle_beta                 101.268(2)
_cell_angle_gamma                90
_cell_volume                     1180.38
loop_
_atom_site_label
_atom_site_type_symbol
_atom_site_fract_x
_atom_site_fract_y
_atom_site_fract_z
Ni1 Ni 0.5000 1.0000 0.5000
C1 C 0.9298(2) 0.57680(14) 0.42779(13)
H1 H 0.8826 0.6282 0.3786
C2 C 0.9363(2) 0.60560(13) 0.52525(13)
C3 C 1.0076(3) 0.52707(15) 0.59746(14)
H2 H 1.0132 0.5446 0.6632
C4 C 0.8593(2) 0.71327(13) 0.54967(12)
C5 C 0.7582(2) 0.79336(13) 0.49142(12)
H3 H 0.7355 0.7936 0.4231
C6 C 0.7597(2) 0.84248(14) 0.63963(13)
H4 H 0.7393 0.8821 0.6944
C7 C 0.5331(2) 1.08323(14) 0.93644(12)
H5 H 0.5554 1.1397 0.8937
C8 C 0.4522(2) 0.98239(13) 0.89838(12)
C9 C 0.4194(2) 0.89917(14) 0.96371(12)
H6 H 0.3651 0.8313 0.9398
C10 C 0.4078(2) 0.96550(14) 0.79226(12)
C11 C 0.4595(2) 1.02516(15) 0.71811(13)
H7 H 0.5299 1.0910 0.7266
C12 C 0.2995(2) 0.88573(15) 0.64970(13)
H8 H 0.2376 0.8355 0.6030
C13 C 0.8344(2) 1.12802(14) 0.62044(13)
H9 H 0.9151 1.0729 0.6058
N1 N 0.69486(19) 0.87335(11) 0.54846(10)
N2 N 0.8588(2) 0.74700(12) 0.64405(11)
H10 H 0.9126 0.7129 0.6967
N3 N 0.3930(2) 0.97456(12) 0.62870(10)
N4 N 0.3047(2) 0.87651(12) 0.74669(11)
H11 H 0.2530 0.8244 0.7752
O1 O 0.67127(16) 1.12581(10) 0.57414(9)
O2 O 0.89928(19) 1.19778(11) 0.68493(10)
Ni1_2 Ni 0.5000 1.0000 1.5000
Ni1_3 Ni 1.5000 0.0000 0.5000
C1B C 1.0702(2) 0.42320(14) 0.57221(13)
H1B H 1.1174 0.3718 0.6214
C2B C 1.0637(2) 0.39440(13) 0.47475(13)
C3B C 0.9924(3) 0.47293(15) 0.40254(14)
H2B H 0.9868 0.4554 0.3368
C4B C 1.1407(2) 0.28673(13) 0.45033(12)
C5B C 1.2418(2) 0.20664(13) 0.50858(12)
H3B H 1.2645 0.2064 0.5769
C6B C 1.2403(2) 0.15752(14) 0.36037(13)
H4B H 1.2607 0.1179 0.3056
C7B C 0.4669(2) 0.91677(14) 1.06356(12)
H5B H 0.4446 0.8603 1.1063
C8B C 0.5478(2) 1.01761(13) 1.10162(12)
C9B C 0.5806(2) 1.10083(14) 1.03629(12)
H6B H 0.6349 1.1687 1.0602
C10B C 0.5922(2) 1.03450(14) 1.20774(12)
C11B C 0.5405(2) 0.97484(15) 1.28189(13)
H7B H 0.4701 0.9090 1.2734
C12B C 0.7005(2) 1.11427(15) 1.35030(13)
H8B H 0.7624 1.1645 1.3970
C13B C 0.1656(2) 0.87198(14) 0.37956(13)
H9B H 0.0849 0.9271 0.3942
N1B N 1.30514(19) 0.12665(11) 0.45154(10)
N1B_2 N 0.30514(19) 1.12665(11) 0.45154(10)
N2B N 1.1412(2) 0.25300(12) 0.35595(11)
H10B H 1.0874 0.2871 0.3033
N3B N 0.6070(2) 1.02544(12) 1.37130(10)
N3B_2 N 0.6070(2) 1.02544(12) 0.37130(10)
N4B N 0.6953(2) 1.12349(12) 1.25331(11)
H11B H 0.7470 1.1756 1.2248
O1B O 0.32873(16) 0.87419(10) 0.42586(9)
O2B O 0.10072(19) 0.80222(11) 0.31507(10)
loop_
_geom_bond_atom_site_label_1
_geom_bond_atom_site_label_2
_geom_bond_site_symmetry_1
_geom_bond_site_symmetry_2
Ni1 N1 1_555 1_555
C1 H1 1_555 1_555
C2 C1 1_555 1_555
C3 C2 1_555 1_555
H2 C3 1_555 1_555
C4 C2 1_555 1_555
C5 C4 1_555 1_555
H3 C5 1_555 1_555
C6 H4 1_555 1_555
C7 H5 1_555 1_555
C8 C7 1_555 1_555
C9 C8 1_555 1_555
H6 C9 1_555 1_555
C10 C8 1_555 1_555
C11 C10 1_555 1_555
H7 C11 1_555 1_555
C12 H8 1_555 1_555
C13 H9 1_555 1_555
N1 C5 1_555 1_555
N2 C4 1_555 1_555
H10 N2 1_555 1_555
N3 Ni1 1_555 1_555
N4 C10 1_555 1_555
H11 N4 1_555 1_555
O1 Ni1 1_555 1_555
O2 C13 1_555 1_555
Ni1_2 N3B 1_555 1_555
Ni1_3 N1B 1_555 1_555
C1B C3 1_555 1_555
H1B C1B 1_555 1_555
C2B C1B 1_555 1_555
C3B C1 1_555 1_555
H2B C3B 1_555 1_555
C4B C2B 1_555 1_555
C5B C4B 1_555 1_555
H3B C5B 1_555 1_555
C6B H4B 1_555 1_555
C7B C9 1_555 1_555
H5B C7B 1_555 1_555
C8B C7B 1_555 1_555
C9B C7 1_555 1_555
H6B C9B 1_555 1_555
C10B C8B 1_555 1_555
C11B C10B 1_555 1_555
H7B C11B 1_555 1_555
C12B H8B 1_555 1_555
C13B H9B 1_555 1_555
N1B C5B 1_555 1_555
N1B_2 Ni1 1_555 1_555
N2B C4B 1_555 1_555
H10B N2B 1_555 1_555
N3B C11B 1_555 1_555
N3B_2 Ni1 1_555 1_555
N4B C10B 1_555 1_555
H11B N4B 1_555 1_555
O1B Ni1 1_555 1_555
O2B C13B 1_555 1_555
C6 N1 1_555 1_555
C6 N2 1_555 1_555
C11 N3 1_555 1_555
C12 N3 1_555 1_555
C12 N4 1_555 1_555
C13 O1 1_555 1_555
C2B C3B 1_555 1_555
C6B N1B 1_555 1_555
C6B N2B 1_555 1_555
C8B C9B 1_555 1_555
C12B N3B 1_555 1_555
C12B N4B 1_555 1_555
C13B O1B 1_555 1_555

#END
