
#######################################################################
#
#                 Cambridge Crystallographic Data Centre
#                                CCDC 
#
#######################################################################
#
# If this CIF has been generated from an entry in the Cambridge 
# Structural Database, then it will include bibliographic, chemical, 
# crystal, experimental, refinement or atomic coordinate data resulting 
# from the CCDC's data processing and validation procedures.
#
#######################################################################

data_UVIMOC
_symmetry_cell_setting           monoclinic
_symmetry_space_group_name_H-M   'P 21/c'
_symmetry_Int_Tables_number      14
_space_group_name_Hall           '-P 2ybc'
loop_
_symmetry_equiv_pos_site_id
_symmetry_equiv_pos_as_xyz
1 x,y,z
2 -x,1/2+y,1/2-z
3 -x,-y,-z
4 x,1/2-y,1/2+z
_cell_length_a                   7.3056(12)
_cell_length_b                   11.9291(19)
_cell_length_c                   13.974(2)
_cell_angle_alpha                90
_cell_angle_beta                 101.169(3)
_cell_angle_gamma                90
_cell_volume                     1194.76
loop_
_atom_site_label
_atom_site_type_symbol
_atom_site_fract_x
_atom_site_fract_y
_atom_site_fract_z
Co1 Co 0.0000 1.0000 0.0000
C1 C 0.2630(4) 0.8409(2) 0.13931(19)
H1 H 0.2435 0.8804 0.1938
C2 C 0.3607(3) 0.7118(2) 0.04968(17)
C3 C 0.2607(4) 0.7921(2) -0.00712(18)
H2 H 0.2382 0.7926 -0.0749
C4 C 0.4373(3) 0.6051(2) 0.02568(18)
C5 C 0.4309(4) 0.5763(2) -0.07127(19)
H3 H 0.3840 0.6275 -0.1200
C6 C 0.4925(4) 0.4737(2) -0.09658(19)
H4 H 0.4871 0.4568 -0.1620
C7 C -0.1999(4) 0.8869(2) 0.15229(18)
H5 H -0.2617 0.8370 0.1060
C8 C -0.0910(4) 0.9656(2) 0.29409(18)
C9 C -0.0408(4) 1.0249(2) 0.22015(17)
H6 H 0.0293 1.0904 0.2284
C10 C -0.0476(4) 0.9820(2) 0.39919(18)
C11 C -0.0791(3) 0.8998(2) 0.46405(17)
H7 H -0.1322 0.8319 0.4406
C12 C -0.0326(4) 0.9179(2) 0.56268(17)
H8 H -0.0552 0.8619 0.6051
C13 C 0.3367(4) 1.1291(2) 0.12191(19)
H9 H 0.4188 1.0743 0.1086
N1 N 0.1981(3) 0.87187(17) 0.04905(14)
N2 N 0.3604(3) 0.74590(18) 0.14363(15)
H10 H 0.4137 0.7119 0.1959
N3 N -0.1075(3) 0.97503(17) 0.13139(15)
N4 N -0.1945(3) 0.87742(18) 0.24883(14)
H11 H -0.2464 0.8256 0.2771
O1 O 0.1754(3) 1.12593(14) 0.07419(12)
O2 O 0.3986(3) 1.19855(16) 0.18577(13)
Co1_2 Co 0.0000 1.0000 1.0000
Co1_3 Co 1.0000 0.0000 0.0000
C1B C 0.7370(4) 0.1591(2) -0.13931(19)
H1B H 0.7565 0.1196 -0.1938
C2B C 0.6393(3) 0.2882(2) -0.04968(17)
C3B C 0.7393(4) 0.2079(2) 0.00712(18)
H2B H 0.7618 0.2074 0.0749
C4B C 0.5627(3) 0.3949(2) -0.02568(18)
C5B C 0.5691(4) 0.4237(2) 0.07127(19)
H3B H 0.6160 0.3725 0.1200
C6B C 0.5075(4) 0.5263(2) 0.09658(19)
H4B H 0.5129 0.5432 0.1620
C7B C 0.1999(4) 1.1131(2) 0.84771(18)
H5B H 0.2617 1.1630 0.8940
C8B C 0.0910(4) 1.0344(2) 0.70591(18)
C9B C 0.0408(4) 0.9751(2) 0.77985(17)
H6B H -0.0293 0.9096 0.7716
C10B C 0.0476(4) 1.0180(2) 0.60081(18)
C11B C 0.0791(3) 1.1002(2) 0.53595(17)
H7B H 0.1322 1.1681 0.5594
C12B C 0.0326(4) 1.0821(2) 0.43732(17)
H8B H 0.0552 1.1381 0.3949
C13B C -0.3367(4) 0.8709(2) -0.12191(19)
H9B H -0.4188 0.9257 -0.1086
N1B N 0.8019(3) 0.12813(17) -0.04905(14)
N1B_2 N -0.1981(3) 1.12813(17) -0.04905(14)
N2B N 0.6396(3) 0.25410(18) -0.14363(15)
H10B H 0.5863 0.2881 -0.1959
N3B N 0.1075(3) 1.02497(17) 0.86861(15)
N3B_2 N 0.1075(3) 1.02497(17) -0.13139(15)
N4B N 0.1945(3) 1.12258(18) 0.75117(14)
H11B H 0.2464 1.1744 0.7229
O1B O -0.1754(3) 0.87407(14) -0.07419(12)
O2B O -0.3986(3) 0.80145(16) -0.18577(13)
loop_
_geom_bond_atom_site_label_1
_geom_bond_atom_site_label_2
_geom_bond_site_symmetry_1
_geom_bond_site_symmetry_2
Co1 N1 1_555 1_555
C1 H1 1_555 1_555
C2 C3 1_555 1_555
C3 H2 1_555 1_555
C4 C2 1_555 1_555
C5 C4 1_555 1_555
H3 C5 1_555 1_555
C6 C5 1_555 1_555
H4 C6 1_555 1_555
C7 H5 1_555 1_555
C8 C9 1_555 1_555
C9 H6 1_555 1_555
C10 C8 1_555 1_555
C11 C10 1_555 1_555
H7 C11 1_555 1_555
C12 C11 1_555 1_555
H8 C12 1_555 1_555
C13 H9 1_555 1_555
N1 C1 1_555 1_555
N2 C1 1_555 1_555
H10 N2 1_555 1_555
N3 Co1 1_555 1_555
N4 C7 1_555 1_555
H11 N4 1_555 1_555
O1 Co1 1_555 1_555
O2 C13 1_555 1_555
Co1_2 N3B 1_555 1_555
Co1_3 N1B 1_555 1_555
C1B H1B 1_555 1_555
C2B C3B 1_555 1_555
C3B H2B 1_555 1_555
C4B C6 1_555 1_555
C5B C4B 1_555 1_555
H3B C5B 1_555 1_555
C6B C4 1_555 1_555
H4B C6B 1_555 1_555
C7B H5B 1_555 1_555
C8B C9B 1_555 1_555
C9B H6B 1_555 1_555
C10B C12 1_555 1_555
C11B C10B 1_555 1_555
H7B C11B 1_555 1_555
C12B C10 1_555 1_555
H8B C12B 1_555 1_555
C13B H9B 1_555 1_555
N1B C1B 1_555 1_555
N1B_2 Co1 1_555 1_555
N2B C1B 1_555 1_555
H10B N2B 1_555 1_555
N3B C7B 1_555 1_555
N3B_2 Co1 1_555 1_555
N4B C7B 1_555 1_555
H11B N4B 1_555 1_555
O1B Co1 1_555 1_555
O2B C13B 1_555 1_555
C2 N2 1_555 1_555
C3 N1 1_555 1_555
C7 N3 1_555 1_555
C8 N4 1_555 1_555
C9 N3 1_555 1_555
C13 O1 1_555 1_555
C2B C4B 1_555 1_555
C2B N2B 1_555 1_555
C3B N1B 1_555 1_555
C5B C6B 1_555 1_555
C8B C10B 1_555 1_555
C8B N4B 1_555 1_555
C9B N3B 1_555 1_555
C11B C12B 1_555 1_555
C13B O1B 1_555 1_555

#END
