
#######################################################################
#
#                 Cambridge Crystallographic Data Centre
#                                CCDC 
#
#######################################################################
#
# If this CIF has been generated from an entry in the Cambridge 
# Structural Database, then it will include bibliographic, chemical, 
# crystal, experimental, refinement or atomic coordinate data resulting 
# from the CCDC's data processing and validation procedures.
#
#######################################################################

data_UVINIX
_symmetry_cell_setting           monoclinic
_symmetry_space_group_name_H-M   'C 2/c'
_symmetry_Int_Tables_number      15
_space_group_name_Hall           '-C 2yn'
loop_
_symmetry_equiv_pos_site_id
_symmetry_equiv_pos_as_xyz
1 x,y,z
2 -x,y,1/2-z
3 1/2+x,1/2+y,z
4 1/2-x,1/2+y,1/2-z
5 -x,-y,-z
6 x,-y,1/2+z
7 1/2-x,1/2-y,-z
8 1/2+x,1/2-y,1/2+z
_cell_length_a                   12.692(8)
_cell_length_b                   8.213(4)
_cell_length_c                   11.990(6)
_cell_angle_alpha                90
_cell_angle_beta                 118.75(2)
_cell_angle_gamma                90
_cell_volume                     1095.76
loop_
_atom_site_label
_atom_site_type_symbol
_atom_site_fract_x
_atom_site_fract_y
_atom_site_fract_z
Ag1 Ag 0.5000 0.89627(3) 0.7500
Ag2 Ag 0.7500 1.2500 0.5000
N1 N 0.6107(2) 0.9137(3) 0.6653(2)
N2 N 0.7003(2) 1.0537(3) 0.5738(2)
C1 C 0.5559(2) 0.6547(3) 0.5370(2)
C2 C 0.5154(2) 0.5940(3) 0.4136(2)
H1 H 0.5259 0.6579 0.3536
C3 C 0.4607(2) 0.4435(3) 0.3775(2)
H2 H 0.4339 0.4061 0.2931
C4 C 0.6638(2) 1.0532(3) 0.6613(2)
H3 H 0.6743 1.1431 0.7155
C5 C 0.6680(2) 0.9030(3) 0.5168(3)
H4 H 0.6824 0.8650 0.4505
C6 C 0.6115(2) 0.8165(3) 0.5711(2)
Ag1D Ag 0.5000 0.10373(3) 0.2500
Ag2B Ag 0.2500 -0.2500 0.5000
N1D N 0.3893(2) 0.0863(3) 0.3347(2)
N1A N 0.3893(2) 0.9137(3) 0.8347(2)
N2D N 0.2997(2) -0.0537(3) 0.4262(2)
N2F N 0.7997(2) 1.4463(3) 0.4262(2)
C1D C 0.4441(2) 0.3453(3) 0.4630(2)
C2D C 0.4846(2) 0.4060(3) 0.5864(2)
H1D H 0.4741 0.3421 0.6464
C3D C 0.5393(2) 0.5565(3) 0.6225(2)
H2D H 0.5661 0.5939 0.7069
C4D C 0.3362(2) -0.0532(3) 0.3387(2)
H3D H 0.3257 -0.1431 0.2845
C5D C 0.3320(2) 0.0970(3) 0.4832(3)
H4D H 0.3176 0.1350 0.5495
C6D C 0.3885(2) 0.1835(3) 0.4289(2)
loop_
_geom_bond_atom_site_label_1
_geom_bond_atom_site_label_2
_geom_bond_site_symmetry_1
_geom_bond_site_symmetry_2
Ag1 N1 1_555 1_555
Ag2 N2 1_555 1_555
N1 C4 1_555 1_555
N2 C4 1_555 1_555
C1 C2 1_555 1_555
C2 H1 1_555 1_555
C3 C2 1_555 1_555
H2 C3 1_555 1_555
C4 H3 1_555 1_555
C5 N2 1_555 1_555
H4 C5 1_555 1_555
C6 N1 1_555 1_555
Ag1D N1D 1_555 1_555
Ag2B N2D 1_555 1_555
N1D C4D 1_555 1_555
N1A Ag1 1_555 1_555
N2D C4D 1_555 1_555
N2F Ag2 1_555 1_555
C1D C3 1_555 1_555
C2D C1D 1_555 1_555
H1D C2D 1_555 1_555
C3D C1 1_555 1_555
H2D C3D 1_555 1_555
C4D H3D 1_555 1_555
C5D N2D 1_555 1_555
H4D C5D 1_555 1_555
C6D N1D 1_555 1_555
C1 C6 1_555 1_555
C5 C6 1_555 1_555
C1D C6D 1_555 1_555
C2D C3D 1_555 1_555
C5D C6D 1_555 1_555

#END
