
#######################################################################
#
#                 Cambridge Crystallographic Data Centre
#                                CCDC 
#
#######################################################################
#
# If this CIF has been generated from an entry in the Cambridge 
# Structural Database, then it will include bibliographic, chemical, 
# crystal, experimental, refinement or atomic coordinate data resulting 
# from the CCDC's data processing and validation procedures.
#
#######################################################################

data_UVIROH
_symmetry_cell_setting           monoclinic
_symmetry_space_group_name_H-M   'C 2/c'
_symmetry_Int_Tables_number      15
_space_group_name_Hall           '-C 2yn'
loop_
_symmetry_equiv_pos_site_id
_symmetry_equiv_pos_as_xyz
1 x,y,z
2 -x,y,1/2-z
3 1/2+x,1/2+y,z
4 1/2-x,1/2+y,1/2-z
5 -x,-y,-z
6 x,-y,1/2+z
7 1/2-x,1/2-y,-z
8 1/2+x,1/2-y,1/2+z
_cell_length_a                   25.981(3)
_cell_length_b                   11.2127(11)
_cell_length_c                   11.0879(11)
_cell_angle_alpha                90
_cell_angle_beta                 93.681(2)
_cell_angle_gamma                90
_cell_volume                     3223.43
loop_
_atom_site_label
_atom_site_type_symbol
_atom_site_fract_x
_atom_site_fract_y
_atom_site_fract_z
Cu1 Cu 1.0000 0.65777(4) 0.2500
Cu2 Cu 0.7500 0.7500 0.5000
Br1 Br 0.946133(14) 1.12411(3) 0.08268(3)
Br2 Br 1.174172(16) 0.24176(4) 0.00034(3)
O1 O 0.80813(7) 0.78128(18) 0.39972(18)
O2 O 0.78668(9) 0.9639(2) 0.3316(2)
O3 O 1.05442(7) 0.53705(17) 0.24483(16)
O4 O 1.07362(8) 0.50782(19) 0.44236(17)
O5 O 1.00703(8) 0.66599(18) 0.03630(18)
H1 H 1.0329 0.6243 0.0191
H2 H 0.9783 0.6297 0.0327
O6 O 0.75118(10) 0.5423(2) 0.4225(2)
H3 H 0.7424 0.5053 0.4848
H4 H 0.7434 0.5095 0.3547
N1 N 0.94358(8) 0.78734(19) 0.2243(2)
N2 N 1.19761(8) 0.2954(2) 0.3655(2)
C1 C 0.81578(11) 0.8772(3) 0.3425(3)
C2 C 0.86560(10) 0.8808(2) 0.2785(2)
C3 C 0.87835(11) 0.9834(3) 0.2179(3)
H5 H 0.8570 1.0499 0.2169
C4 C 0.92361(11) 0.9847(2) 0.1590(3)
C5 C 0.95458(11) 0.8851(2) 0.1609(3)
H6 H 0.9839 0.8855 0.1171
C6 C 0.89987(10) 0.7855(2) 0.2815(2)
H7 H 0.8921 0.7177 0.3252
C7 C 1.08016(10) 0.4911(2) 0.3335(2)
C8 C 1.12300(10) 0.4088(2) 0.3010(2)
C9 C 1.12761(11) 0.3733(3) 0.1829(3)
H8 H 1.1047 0.4002 0.1209
C10 C 1.16739(11) 0.2965(3) 0.1600(3)
C11 C 1.20207(11) 0.2594(2) 0.2516(2)
H9 H 1.2289 0.2087 0.2341
C12 C 1.15868(10) 0.3682(2) 0.3897(2)
H10 H 1.1555 0.3923 0.4691
Cu2B Cu 1.2500 0.2500 0.5000
Cu2C Cu 0.7500 0.2500 0.0000
Cu2A Cu 1.2500 0.7500 0.0000
Br1A Br 1.053867(14) 1.12411(3) 0.41732(3)
Br2A Br 0.825828(16) 0.24176(4) 0.49966(3)
O1A O 1.19187(7) 0.78128(18) 0.10028(18)
O1F O 0.69187(7) 0.71872(18) 0.60028(18)
O2A O 1.21332(9) 0.9639(2) 0.1684(2)
O3A O 0.94558(7) 0.53705(17) 0.25517(16)
O4A O 0.92638(8) 0.50782(19) 0.05764(17)
O5A O 0.99297(8) 0.66599(18) 0.46370(18)
H1A H 0.9671 0.6243 0.4809
H2A H 1.0217 0.6297 0.4673
O6F O 0.74882(10) 0.9577(2) 0.5775(2)
H3F H 0.7576 0.9947 0.5152
H4F H 0.7566 0.9905 0.6453
N1A N 1.05642(8) 0.78734(19) 0.2757(2)
N2A N 0.80239(8) 0.2954(2) 0.1345(2)
N2B N 0.69761(8) 0.7954(2) 0.3655(2)
N2D N 0.80239(8) 0.7046(2) 0.6345(2)
C1A C 1.18422(11) 0.8772(3) 0.1575(3)
C2A C 1.13440(10) 0.8808(2) 0.2215(2)
C3A C 1.12165(11) 0.9834(3) 0.2821(3)
H5A H 1.1430 1.0499 0.2831
C4A C 1.07639(11) 0.9847(2) 0.3410(3)
C5A C 1.04542(11) 0.8851(2) 0.3391(3)
H6A H 1.0161 0.8855 0.3829
C6A C 1.10013(10) 0.7855(2) 0.2185(2)
H7A H 1.1079 0.7177 0.1748
C7A C 0.91984(10) 0.4911(2) 0.1665(2)
C8A C 0.87700(10) 0.4088(2) 0.1990(2)
C9A C 0.87239(11) 0.3733(3) 0.3171(3)
H8A H 0.8953 0.4002 0.3791
C10A C 0.83261(11) 0.2965(3) 0.3400(3)
C11A C 0.79793(11) 0.2594(2) 0.2484(2)
H9A H 0.7711 0.2087 0.2659
C12A C 0.84132(10) 0.3682(2) 0.1103(2)
H10A H 0.8445 0.3923 0.0309
loop_
_geom_bond_atom_site_label_1
_geom_bond_atom_site_label_2
_geom_bond_site_symmetry_1
_geom_bond_site_symmetry_2
Cu1 O3 1_555 1_555
Cu2 O1 1_555 1_555
Br1 C4 1_555 1_555
Br2 C10 1_555 1_555
O1 C1 1_555 1_555
O2 C1 1_555 1_555
O3 C7 1_555 1_555
O4 C7 1_555 1_555
O5 Cu1 1_555 1_555
H1 O5 1_555 1_555
H2 O5 1_555 1_555
O6 Cu2 1_555 1_555
H3 O6 1_555 1_555
H4 O6 1_555 1_555
N1 Cu1 1_555 1_555
N2 C11 1_555 1_555
C1 C2 1_555 1_555
C2 C3 1_555 1_555
C3 H5 1_555 1_555
C4 C3 1_555 1_555
C5 N1 1_555 1_555
H6 C5 1_555 1_555
C6 N1 1_555 1_555
H7 C6 1_555 1_555
C7 C8 1_555 1_555
C8 C9 1_555 1_555
C9 H8 1_555 1_555
C10 C9 1_555 1_555
C11 C10 1_555 1_555
H9 C11 1_555 1_555
C12 N2 1_555 1_555
H10 C12 1_555 1_555
Cu2B N2 1_555 1_555
Cu2C N2A 1_555 1_555
Cu2A O1A 1_555 1_555
Br1A C4A 1_555 1_555
Br2A C10A 1_555 1_555
O1A C1A 1_555 1_555
O1F Cu2 1_555 1_555
O2A C1A 1_555 1_555
O3A Cu1 1_555 1_555
O4A C7A 1_555 1_555
O5A Cu1 1_555 1_555
H1A O5A 1_555 1_555
H2A O5A 1_555 1_555
O6F Cu2 1_555 1_555
H3F O6F 1_555 1_555
H4F O6F 1_555 1_555
N1A Cu1 1_555 1_555
N2A C11A 1_555 1_555
N2B Cu2 1_555 1_555
N2D Cu2 1_555 1_555
C1A C2A 1_555 1_555
C2A C3A 1_555 1_555
C3A H5A 1_555 1_555
C4A C3A 1_555 1_555
C5A N1A 1_555 1_555
H6A C5A 1_555 1_555
C6A N1A 1_555 1_555
H7A C6A 1_555 1_555
C7A O3A 1_555 1_555
C8A C7A 1_555 1_555
C9A C8A 1_555 1_555
H8A C9A 1_555 1_555
C10A C9A 1_555 1_555
C11A C10A 1_555 1_555
H9A C11A 1_555 1_555
C12A N2A 1_555 1_555
H10A C12A 1_555 1_555
C2 C6 1_555 1_555
C4 C5 1_555 1_555
C8 C12 1_555 1_555
C2A C6A 1_555 1_555
C4A C5A 1_555 1_555
C8A C12A 1_555 1_555

#END
