
#######################################################################
#
#                 Cambridge Crystallographic Data Centre
#                                CCDC 
#
#######################################################################
#
# If this CIF has been generated from an entry in the Cambridge 
# Structural Database, then it will include bibliographic, chemical, 
# crystal, experimental, refinement or atomic coordinate data resulting 
# from the CCDC's data processing and validation procedures.
#
#######################################################################

data_UVOCEO
_symmetry_cell_setting           tetragonal
_symmetry_space_group_name_H-M   'P 43'
_symmetry_Int_Tables_number      78
_space_group_name_Hall           'P 4cw'
loop_
_symmetry_equiv_pos_site_id
_symmetry_equiv_pos_as_xyz
1 x,y,z
2 -y,x,3/4+z
3 -x,-y,1/2+z
4 y,-x,1/4+z
_cell_length_a                   8.42430(10)
_cell_length_b                   8.42430(10)
_cell_length_c                   25.6975(9)
_cell_angle_alpha                90
_cell_angle_beta                 90
_cell_angle_gamma                90
_cell_volume                     1823.72
loop_
_atom_site_label
_atom_site_type_symbol
_atom_site_fract_x
_atom_site_fract_y
_atom_site_fract_z
Zn1 Zn 0.13367(7) 0.28865(6) 0.22997(3)
O1 O 0.0108(5) 0.3604(4) 0.29281(14)
O2 O -0.1383(4) 0.4001(4) 0.22471(16)
O3 O -0.6869(7) 0.7693(6) 0.39686(18)
O4 O -0.4988(6) 0.7690(5) 0.45486(19)
N1 N 0.0322(5) 0.0729(5) 0.21115(18)
N2 N 0.3322(5) 0.1989(6) 0.26715(17)
N3 N -0.6359(8) 0.6390(7) 0.3017(3)
H1 H -0.7069 0.6858 0.3202
H2 H -0.6574 0.6106 0.2703
C1 C -0.1159(7) 0.4141(6) 0.2713(2)
C2 C -0.2307(7) 0.4956(6) 0.3073(2)
C3 C -0.1873(7) 0.5372(6) 0.3570(2)
H3 H -0.0863 0.5133 0.3693
C4 C -0.2944(9) 0.6144(7) 0.3883(2)
H4 H -0.2636 0.6425 0.4218
C5 C -0.4462(8) 0.6519(7) 0.3720(3)
C6 C -0.4836(6) 0.6087(6) 0.3228(3)
C7 C -0.3820(6) 0.5343(5) 0.2872(3)
H5 H -0.4118 0.5122 0.2531
C8 C -0.5454(10) 0.7367(8) 0.4115(3)
C9 C 0.4413(8) 0.1131(8) 0.2414(3)
H6 H 0.4324 0.1058 0.2054
C10 C 0.5621(9) 0.0377(9) 0.2644(4)
H7 H 0.6341 -0.0211 0.2449
C11 C 0.5773(9) 0.0489(9) 0.3167(4)
H8 H 0.6596 -0.0033 0.3337
C12 C 0.4739(9) 0.1348(9) 0.3435(3)
H9 H 0.4838 0.1441 0.3794
C13 C 0.3527(7) 0.2094(8) 0.3182(2)
H10 H 0.2817 0.2701 0.3374
C14 C -0.0490(7) 0.0512(8) 0.1669(3)
H11 H -0.0489 0.1324 0.1424
C15 C -0.1310(8) -0.0826(10) 0.1560(3)
H12 H -0.1881 -0.0925 0.1252
C16 C -0.1274(10) -0.2025(9) 0.1915(4)
H13 H -0.1851 -0.2950 0.1857
C17 C -0.0399(8) -0.1867(7) 0.2351(4)
H14 H -0.0323 -0.2709 0.2583
C18 C 0.0372(7) -0.0488(8) 0.2452(3)
H15 H 0.0941 -0.0380 0.2760
Zn1C Zn -0.71135(6) 0.86633(7) 0.47997(3)
O3A O 0.2307(6) 0.3131(7) 0.14686(18)
O4A O 0.2310(5) 0.5012(6) 0.20486(19)
loop_
_geom_bond_atom_site_label_1
_geom_bond_atom_site_label_2
_geom_bond_site_symmetry_1
_geom_bond_site_symmetry_2
Zn1 O1 1_555 1_555
O1 C1 1_555 1_555
O2 Zn1 1_555 1_555
O3 C8 1_555 1_555
O4 C8 1_555 1_555
N1 Zn1 1_555 1_555
N2 Zn1 1_555 1_555
N3 H1 1_555 1_555
H2 N3 1_555 1_555
C1 O2 1_555 1_555
C2 C1 1_555 1_555
C3 C2 1_555 1_555
H3 C3 1_555 1_555
C4 C3 1_555 1_555
H4 C4 1_555 1_555
C5 C4 1_555 1_555
C6 N3 1_555 1_555
C7 C2 1_555 1_555
H5 C7 1_555 1_555
C8 C5 1_555 1_555
C9 N2 1_555 1_555
H6 C9 1_555 1_555
C10 C9 1_555 1_555
H7 C10 1_555 1_555
C11 C10 1_555 1_555
H8 C11 1_555 1_555
C12 C11 1_555 1_555
H9 C12 1_555 1_555
C13 N2 1_555 1_555
H10 C13 1_555 1_555
C14 N1 1_555 1_555
H11 C14 1_555 1_555
C15 C14 1_555 1_555
H12 C15 1_555 1_555
C16 C15 1_555 1_555
H13 C16 1_555 1_555
C17 C16 1_555 1_555
H14 C17 1_555 1_555
C18 N1 1_555 1_555
H15 C18 1_555 1_555
Zn1C O3 1_555 1_555
O3A Zn1 1_555 1_555
O4A Zn1 1_555 1_555
O4 Zn1C 1_555 1_555
C5 C6 1_555 1_555
C6 C7 1_555 1_555
C12 C13 1_555 1_555
C17 C18 1_555 1_555

#END
