
#######################################################################
#
#                 Cambridge Crystallographic Data Centre
#                                CCDC 
#
#######################################################################
#
# If this CIF has been generated from an entry in the Cambridge 
# Structural Database, then it will include bibliographic, chemical, 
# crystal, experimental, refinement or atomic coordinate data resulting 
# from the CCDC's data processing and validation procedures.
#
#######################################################################

data_UVOCIS
_symmetry_cell_setting           monoclinic
_symmetry_space_group_name_H-M   'C 2/c'
_symmetry_Int_Tables_number      15
_space_group_name_Hall           '-C 2yn'
loop_
_symmetry_equiv_pos_site_id
_symmetry_equiv_pos_as_xyz
1 x,y,z
2 -x,y,1/2-z
3 1/2+x,1/2+y,z
4 1/2-x,1/2+y,1/2-z
5 -x,-y,-z
6 x,-y,1/2+z
7 1/2-x,1/2-y,-z
8 1/2+x,1/2-y,1/2+z
_cell_length_a                   23.2351(11)
_cell_length_b                   11.7216(4)
_cell_length_c                   13.7825(7)
_cell_angle_alpha                90
_cell_angle_beta                 115.285(6)
_cell_angle_gamma                90
_cell_volume                     3394.07
loop_
_atom_site_label
_atom_site_type_symbol
_atom_site_fract_x
_atom_site_fract_y
_atom_site_fract_z
Cu1 Cu 0.123259(12) 0.23927(2) 0.19814(2)
O1 O 0.18310(7) 0.33307(14) 0.17023(13)
O2 O 0.13043(8) 0.24125(14) 0.01890(16)
O3 O 0.34074(8) 0.70357(15) 0.06576(14)
O4 O 0.30760(7) 0.66024(14) 0.18977(13)
N1 N 0.05454(8) 0.35484(16) 0.15302(15)
N2 N 0.06390(8) 0.11088(15) 0.17010(15)
N3 N -0.02877(9) 0.22293(16) 0.11721(16)
H3 H -0.0689 0.2184 0.1003
C1 C 0.07216(12) 0.4660(2) 0.1588(2)
H4 H 0.1148 0.4822 0.1773
C2 C 0.03169(13) 0.5539(2) 0.1394(2)
H5 H 0.0461 0.6286 0.1442
C3 C -0.03173(13) 0.5317(2) 0.1121(2)
H6 H -0.0607 0.5911 0.0986
C4 C -0.05123(12) 0.4207(2) 0.10525(19)
H7 H -0.0937 0.4038 0.0873
C5 C -0.00720(10) 0.33308(19) 0.12533(18)
C6 C 0.00039(10) 0.11822(19) 0.13045(17)
C7 C -0.03740(12) 0.0209(2) 0.1029(2)
H8 H -0.0814 0.0280 0.0761
C8 C -0.01125(13) -0.0835(2) 0.1145(2)
H9 H -0.0366 -0.1485 0.0963
C9 C 0.05470(12) -0.0920(2) 0.1544(2)
H10 H 0.0745 -0.1628 0.1633
C10 C 0.08888(12) 0.0044(2) 0.1794(2)
H11 H 0.1328 -0.0019 0.2051
C11 C 0.16975(10) 0.31292(19) 0.0718(2)
C12 C 0.20251(10) 0.38632(18) 0.02202(18)
C13 C 0.19719(11) 0.3640(2) -0.07991(19)
H12 H 0.1738 0.3015 -0.1181
C14 C 0.22669(13) 0.4348(2) -0.1248(2)
H13 H 0.2230 0.4199 -0.1935
C15 C 0.26152(12) 0.5271(2) -0.0687(2)
H14 H 0.2812 0.5743 -0.0997
C16 C 0.26739(10) 0.54976(19) 0.03310(18)
C17 C 0.23776(10) 0.47899(18) 0.07762(18)
H15 H 0.2416 0.4940 0.1464
C18 C 0.30793(10) 0.64609(19) 0.09891(19)
Cu1C Cu 0.376741(12) 0.73927(2) 0.30186(2)
O4C O 0.19240(7) 0.16024(14) 0.31023(13)
O5 O 0.17288(13) 0.2579(3) 0.6570(3)
H1 H 0.170(3) 0.262(4) 0.5939(18)
H2 H 0.2118(9) 0.244(4) 0.697(4)
loop_
_geom_bond_atom_site_label_1
_geom_bond_atom_site_label_2
_geom_bond_site_symmetry_1
_geom_bond_site_symmetry_2
Cu1 O1 1_555 1_555
O1 C11 1_555 1_555
O2 Cu1 1_555 1_555
O3 C18 1_555 1_555
O4 C18 1_555 1_555
O5 H1 1_555 1_555
H2 O5 1_555 1_555
N1 Cu1 1_555 1_555
N2 Cu1 1_555 1_555
N3 H3 1_555 1_555
C1 N1 1_555 1_555
H4 C1 1_555 1_555
C2 C1 1_555 1_555
H5 C2 1_555 1_555
C3 C2 1_555 1_555
H6 C3 1_555 1_555
C4 C3 1_555 1_555
H7 C4 1_555 1_555
C5 N1 1_555 1_555
C6 N2 1_555 1_555
C7 C6 1_555 1_555
H8 C7 1_555 1_555
C8 C7 1_555 1_555
H9 C8 1_555 1_555
C9 C8 1_555 1_555
H10 C9 1_555 1_555
C10 N2 1_555 1_555
H11 C10 1_555 1_555
C11 O2 1_555 1_555
C12 C11 1_555 1_555
C13 C12 1_555 1_555
H12 C13 1_555 1_555
C14 C13 1_555 1_555
H13 C14 1_555 1_555
C15 C14 1_555 1_555
H14 C15 1_555 1_555
C16 C15 1_555 1_555
C17 C12 1_555 1_555
H15 C17 1_555 1_555
C18 C16 1_555 1_555
Cu1C O4 1_555 1_555
O4C Cu1 1_555 1_555
N3 C5 1_555 1_555
N3 C6 1_555 1_555
C4 C5 1_555 1_555
C9 C10 1_555 1_555
C16 C17 1_555 1_555

#END
