
#######################################################################
#
#                 Cambridge Crystallographic Data Centre
#                                CCDC 
#
#######################################################################
#
# If this CIF has been generated from an entry in the Cambridge 
# Structural Database, then it will include bibliographic, chemical, 
# crystal, experimental, refinement or atomic coordinate data resulting 
# from the CCDC's data processing and validation procedures.
#
#######################################################################

data_UVODAL
_symmetry_cell_setting           triclinic
_symmetry_space_group_name_H-M   'P -1'
_symmetry_Int_Tables_number      2
_space_group_name_Hall           '-P 1'
loop_
_symmetry_equiv_pos_site_id
_symmetry_equiv_pos_as_xyz
1 x,y,z
2 -x,-y,-z
_cell_length_a                   9.871(2)
_cell_length_b                   10.364(2)
_cell_length_c                   18.078(4)
_cell_angle_alpha                98.39(3)
_cell_angle_beta                 97.85(3)
_cell_angle_gamma                94.05(3)
_cell_volume                     1804.74
loop_
_atom_site_label
_atom_site_type_symbol
_atom_site_fract_x
_atom_site_fract_y
_atom_site_fract_z
Hg1 Hg 0.89148(2) 0.62232(2) 0.955548(10)
S1 S 0.67247(15) 0.67404(19) 0.98267(8)
S2 S 1.05378(14) 0.49835(15) 0.89525(7)
N1 N 0.3033(5) 0.5693(5) 0.6816(2)
N2 N 0.7996(5) 0.1770(4) 0.5987(2)
N3 N 1.0638(5) 0.7776(4) 1.0276(2)
N4 N 1.2681(4) 0.8288(5) 1.1002(2)
C1 C 0.5705(5) 0.6414(6) 0.8923(3)
C2 C 0.4469(6) 0.5712(7) 0.8845(3)
H1 H 0.4193 0.5374 0.9261
C3 C 0.3607(6) 0.5485(7) 0.8158(3)
H2 H 0.2751 0.4998 0.8113
C4 C 0.3990(5) 0.5966(5) 0.7548(3)
C5 C 0.5226(6) 0.6670(6) 0.7610(3)
H3 H 0.5502 0.7005 0.7193
C6 C 0.6070(6) 0.6883(6) 0.8304(3)
H4 H 0.6926 0.7370 0.8349
C7 C 0.3591(7) 0.6249(7) 0.6191(3)
H5 H 0.3756 0.7193 0.6325
H6 H 0.2932 0.6032 0.5731
H7 H 0.4446 0.5883 0.6110
C8 C 0.2785(9) 0.4242(7) 0.6576(4)
H8 H 0.3651 0.3881 0.6518
H9 H 0.2173 0.4052 0.6098
H10 H 0.2368 0.3853 0.6957
C9 C 0.1710(7) 0.6281(9) 0.6914(5)
H11 H 0.1892 0.7221 0.7067
H12 H 0.1295 0.5904 0.7299
H13 H 0.1089 0.6099 0.6439
C10 C 0.9631(5) 0.3954(5) 0.8150(3)
C11 C 0.8351(6) 0.4184(5) 0.7797(3)
H14 H 0.7865 0.4839 0.8029
C12 C 0.7786(6) 0.3459(5) 0.7110(3)
H15 H 0.6918 0.3615 0.6873
C13 C 0.8510(6) 0.2496(5) 0.6768(3)
C14 C 0.9749(6) 0.2196(6) 0.7131(3)
H16 H 1.0209 0.1508 0.6912
C15 C 1.0291(5) 0.2923(5) 0.7816(3)
H17 H 1.1129 0.2722 0.8067
C16 C 0.9012(7) 0.2030(7) 0.5473(3)
H18 H 0.9891 0.1749 0.5664
H19 H 0.9116 0.2960 0.5449
H20 H 0.8688 0.1549 0.4970
C17 C 0.6639(6) 0.2236(6) 0.5651(3)
H21 H 0.6766 0.3168 0.5635
H22 H 0.5940 0.2069 0.5962
H23 H 0.6353 0.1767 0.5142
C18 C 0.7763(8) 0.0337(6) 0.6000(4)
H24 H 0.8610 0.0018 0.6209
H25 H 0.7468 -0.0118 0.5489
H26 H 0.7059 0.0179 0.6310
C19 C 1.1933(6) 0.7516(6) 1.0406(3)
H27 H 1.2298 0.6846 1.0106
C20 C 1.0527(6) 0.8836(6) 1.0830(3)
C21 C 0.9400(6) 0.9534(6) 1.0974(3)
H28 H 0.8543 0.9321 1.0666
C22 C 0.9575(8) 1.0523(7) 1.1568(4)
H29 H 0.8836 1.1010 1.1671
C23 C 1.0852(8) 1.0824(7) 1.2029(4)
H30 H 1.0944 1.1506 1.2442
C24 C 1.1977(7) 1.0158(6) 1.1901(3)
H31 H 1.2829 1.0376 1.2213
C25 C 1.1799(6) 0.9148(6) 1.1287(3)
C26 C 1.4165(6) 0.8296(6) 1.1220(3)
H32 H 1.4469 0.7469 1.0992
H33 H 1.4377 0.8365 1.1770
C27 C 1.4936(6) 0.9426(6) 1.0966(3)
H34 H 1.5923 0.9339 1.1068
H35 H 1.4757 1.0247 1.1265
C28 C 1.4542(5) 0.9500(6) 1.0132(3)
H36 H 1.4592 0.8639 0.9835
H37 H 1.3591 0.9721 1.0043
Hg1A Hg 1.10852(2) 0.37768(2) 1.044452(10)
Hg1A_2 Hg 2.10852(2) 1.37768(2) 1.044452(10)
S1A S 1.32753(15) 0.32596(19) 1.01733(8)
S2A S 0.94622(14) 0.50165(15) 1.10475(7)
N1A N 1.6967(5) 0.4307(5) 1.3184(2)
N2A N 1.2004(5) 0.8230(4) 1.4013(2)
N3A N 1.9362(5) 1.2224(4) 0.9724(2)
N3A_2 N 0.9362(5) 0.2224(4) 0.9724(2)
N4A N 1.7319(4) 1.1712(5) 0.8998(2)
C1A C 1.4295(5) 0.3586(6) 1.1077(3)
C2A C 1.5531(6) 0.4288(7) 1.1155(3)
H1A H 1.5807 0.4626 1.0739
C3A C 1.6393(6) 0.4515(7) 1.1842(3)
H2A H 1.7249 0.5002 1.1887
C4A C 1.6010(5) 0.4034(5) 1.2452(3)
C5A C 1.4774(6) 0.3330(6) 1.2390(3)
H3A H 1.4498 0.2995 1.2807
C6A C 1.3930(6) 0.3117(6) 1.1696(3)
H4A H 1.3074 0.2630 1.1651
C7A C 1.6409(7) 0.3751(7) 1.3809(3)
H5A H 1.6244 0.2807 1.3675
H6A H 1.7068 0.3968 1.4269
H7A H 1.5554 0.4117 1.3890
C8A C 1.7215(9) 0.5758(7) 1.3424(4)
H8A H 1.6349 0.6119 1.3482
H9A H 1.7827 0.5948 1.3902
H10A H 1.7632 0.6147 1.3043
C9A C 1.8290(7) 0.3719(9) 1.3086(5)
H11A H 1.8108 0.2779 1.2933
H12A H 1.8705 0.4096 1.2701
H13A H 1.8911 0.3901 1.3561
C10A C 1.0369(5) 0.6046(5) 1.1850(3)
C11A C 1.1649(6) 0.5816(5) 1.2203(3)
H14A H 1.2135 0.5161 1.1971
C12A C 1.2214(6) 0.6541(5) 1.2890(3)
H15A H 1.3082 0.6385 1.3127
C13A C 1.1490(6) 0.7504(5) 1.3232(3)
C14A C 1.0251(6) 0.7804(6) 1.2869(3)
H16A H 0.9791 0.8492 1.3088
C15A C 0.9709(5) 0.7077(5) 1.2184(3)
H17A H 0.8871 0.7278 1.1933
C16A C 1.0988(7) 0.7970(7) 1.4527(3)
H18A H 1.0109 0.8251 1.4336
H19A H 1.0884 0.7040 1.4551
H20A H 1.1312 0.8451 1.5030
C17A C 1.3361(6) 0.7764(6) 1.4349(3)
H21A H 1.3234 0.6832 1.4365
H22A H 1.4060 0.7931 1.4038
H23A H 1.3647 0.8233 1.4858
C18A C 1.2237(8) 0.9663(6) 1.4000(4)
H24A H 1.1390 0.9982 1.3791
H25A H 1.2532 1.0118 1.4511
H26A H 1.2941 0.9821 1.3690
C19A C 1.8067(6) 1.2484(6) 0.9594(3)
H27A H 1.7702 1.3154 0.9894
C20A C 1.9473(6) 1.1164(6) 0.9170(3)
C21A C 2.0600(6) 1.0466(6) 0.9026(3)
H28A H 2.1457 1.0679 0.9334
C22A C 2.0425(8) 0.9477(7) 0.8432(4)
H29A H 2.1164 0.8990 0.8329
C23A C 1.9148(8) 0.9176(7) 0.7971(4)
H30A H 1.9056 0.8494 0.7558
C24A C 1.8023(7) 0.9842(6) 0.8099(3)
H31A H 1.7171 0.9624 0.7787
C25A C 1.8201(6) 1.0852(6) 0.8713(3)
C26A C 1.5835(6) 1.1704(6) 0.8780(3)
H32A H 1.5531 1.2531 0.9008
H33A H 1.5623 1.1635 0.8230
C27A C 1.5064(6) 1.0574(6) 0.9034(3)
H34A H 1.4077 1.0661 0.8932
H35A H 1.5243 0.9753 0.8735
C28A C 1.5458(5) 1.0500(6) 0.9868(3)
H36A H 1.5408 1.1361 1.0165
H37A H 1.6409 1.0279 0.9957
P1 P 0.66344(16) -0.04237(16) 0.33206(9)
F1 F 0.5833(6) 0.0458(5) 0.2822(3)
F2 F 0.6100(6) 0.0288(6) 0.4031(2)
F3 F 0.7913(6) 0.0564(6) 0.3513(3)
F4 F 0.7485(6) -0.1317(5) 0.3809(3)
F5 F 0.7157(4) -0.1148(5) 0.2598(2)
F6 F 0.5362(5) -0.1442(6) 0.3137(3)
P2 P 0.78142(18) 0.65473(16) 0.58181(9)
F7 F 0.6997(4) 0.7605(4) 0.6268(3)
F8 F 0.8535(6) 0.6172(6) 0.6567(3)
F9 F 0.9050(6) 0.7586(5) 0.5891(4)
F10 F 0.8606(5) 0.5474(5) 0.5363(3)
F11 F 0.7127(10) 0.6943(8) 0.5099(3)
F12 F 0.6641(5) 0.5488(5) 0.5824(4)
loop_
_geom_bond_atom_site_label_1
_geom_bond_atom_site_label_2
_geom_bond_site_symmetry_1
_geom_bond_site_symmetry_2
Hg1 S1 1_555 1_555
S1 C1 1_555 1_555
S2 Hg1 1_555 1_555
N1 C4 1_555 1_555
N2 C13 1_555 1_555
N3 Hg1 1_555 1_555
N4 C19 1_555 1_555
C1 C2 1_555 1_555
C2 H1 1_555 1_555
C3 C2 1_555 1_555
H2 C3 1_555 1_555
C4 C3 1_555 1_555
C5 C4 1_555 1_555
H3 C5 1_555 1_555
C6 C1 1_555 1_555
H4 C6 1_555 1_555
C7 N1 1_555 1_555
H5 C7 1_555 1_555
H6 C7 1_555 1_555
H7 C7 1_555 1_555
C8 N1 1_555 1_555
H8 C8 1_555 1_555
H9 C8 1_555 1_555
H10 C8 1_555 1_555
C9 N1 1_555 1_555
H11 C9 1_555 1_555
H12 C9 1_555 1_555
H13 C9 1_555 1_555
C10 S2 1_555 1_555
C11 C10 1_555 1_555
H14 C11 1_555 1_555
C12 C11 1_555 1_555
H15 C12 1_555 1_555
C13 C12 1_555 1_555
C14 C13 1_555 1_555
H16 C14 1_555 1_555
C15 C10 1_555 1_555
H17 C15 1_555 1_555
C16 N2 1_555 1_555
H18 C16 1_555 1_555
H19 C16 1_555 1_555
H20 C16 1_555 1_555
C17 N2 1_555 1_555
H21 C17 1_555 1_555
H22 C17 1_555 1_555
H23 C17 1_555 1_555
C18 N2 1_555 1_555
H24 C18 1_555 1_555
H25 C18 1_555 1_555
H26 C18 1_555 1_555
C19 N3 1_555 1_555
H27 C19 1_555 1_555
C20 N3 1_555 1_555
C21 C20 1_555 1_555
H28 C21 1_555 1_555
C22 C21 1_555 1_555
H29 C22 1_555 1_555
C23 C22 1_555 1_555
H30 C23 1_555 1_555
C24 C23 1_555 1_555
H31 C24 1_555 1_555
C25 N4 1_555 1_555
C26 N4 1_555 1_555
H32 C26 1_555 1_555
H33 C26 1_555 1_555
C27 C26 1_555 1_555
H34 C27 1_555 1_555
H35 C27 1_555 1_555
C28 C27 1_555 1_555
H36 C28 1_555 1_555
H37 C28 1_555 1_555
P1 F1 1_555 1_555
F2 P1 1_555 1_555
F3 P1 1_555 1_555
F4 P1 1_555 1_555
F5 P1 1_555 1_555
F6 P1 1_555 1_555
P2 F7 1_555 1_555
F8 P2 1_555 1_555
F9 P2 1_555 1_555
F10 P2 1_555 1_555
F11 P2 1_555 1_555
F12 P2 1_555 1_555
Hg1A S2 1_555 1_555
Hg1A_2 N3A 1_555 1_555
S1A Hg1A 1_555 1_555
S2A Hg1 1_555 1_555
N1A C4A 1_555 1_555
N2A C13A 1_555 1_555
N3A C19A 1_555 1_555
N3A_2 Hg1A 1_555 1_555
N4A C19A 1_555 1_555
C1A S1A 1_555 1_555
C2A C1A 1_555 1_555
H1A C2A 1_555 1_555
C3A C2A 1_555 1_555
H2A C3A 1_555 1_555
C4A C3A 1_555 1_555
C5A C4A 1_555 1_555
H3A C5A 1_555 1_555
C6A C1A 1_555 1_555
H4A C6A 1_555 1_555
C7A N1A 1_555 1_555
H5A C7A 1_555 1_555
H6A C7A 1_555 1_555
H7A C7A 1_555 1_555
C8A N1A 1_555 1_555
H8A C8A 1_555 1_555
H9A C8A 1_555 1_555
H10A C8A 1_555 1_555
C9A N1A 1_555 1_555
H11A C9A 1_555 1_555
H12A C9A 1_555 1_555
H13A C9A 1_555 1_555
C10A S2A 1_555 1_555
C11A C10A 1_555 1_555
H14A C11A 1_555 1_555
C12A C11A 1_555 1_555
H15A C12A 1_555 1_555
C13A C12A 1_555 1_555
C14A C13A 1_555 1_555
H16A C14A 1_555 1_555
C15A C10A 1_555 1_555
H17A C15A 1_555 1_555
C16A N2A 1_555 1_555
H18A C16A 1_555 1_555
H19A C16A 1_555 1_555
H20A C16A 1_555 1_555
C17A N2A 1_555 1_555
H21A C17A 1_555 1_555
H22A C17A 1_555 1_555
H23A C17A 1_555 1_555
C18A N2A 1_555 1_555
H24A C18A 1_555 1_555
H25A C18A 1_555 1_555
H26A C18A 1_555 1_555
C19A H27A 1_555 1_555
C20A N3A 1_555 1_555
C21A C20A 1_555 1_555
H28A C21A 1_555 1_555
C22A C21A 1_555 1_555
H29A C22A 1_555 1_555
C23A C22A 1_555 1_555
H30A C23A 1_555 1_555
C24A C23A 1_555 1_555
H31A C24A 1_555 1_555
C25A N4A 1_555 1_555
C26A N4A 1_555 1_555
H32A C26A 1_555 1_555
H33A C26A 1_555 1_555
C27A C26A 1_555 1_555
H34A C27A 1_555 1_555
H35A C27A 1_555 1_555
C28A C28 1_555 1_555
H36A C28A 1_555 1_555
H37A C28A 1_555 1_555
C5 C6 1_555 1_555
C14 C15 1_555 1_555
C20 C25 1_555 1_555
C24 C25 1_555 1_555
Hg1A S2A 1_555 1_555
C5A C6A 1_555 1_555
C14A C15A 1_555 1_555
C20A C25A 1_555 1_555
C24A C25A 1_555 1_555
C27A C28A 1_555 1_555

#END
