
#######################################################################
#
#                 Cambridge Crystallographic Data Centre
#                                CCDC 
#
#######################################################################
#
# If this CIF has been generated from an entry in the Cambridge 
# Structural Database, then it will include bibliographic, chemical, 
# crystal, experimental, refinement or atomic coordinate data resulting 
# from the CCDC's data processing and validation procedures.
#
#######################################################################

data_UWABUQ
_symmetry_cell_setting           triclinic
_symmetry_space_group_name_H-M   'P -1'
_symmetry_Int_Tables_number      2
_space_group_name_Hall           '-P 1'
loop_
_symmetry_equiv_pos_site_id
_symmetry_equiv_pos_as_xyz
1 x,y,z
2 -x,-y,-z
_cell_length_a                   9.3090(9)
_cell_length_b                   9.5145(9)
_cell_length_c                   10.4360(11)
_cell_angle_alpha                113.930(8)
_cell_angle_beta                 110.170(8)
_cell_angle_gamma                93.540(8)
_cell_volume                     770.851
loop_
_atom_site_label
_atom_site_type_symbol
_atom_site_fract_x
_atom_site_fract_y
_atom_site_fract_z
Co1 Co 0.0000 0.5000 0.0000
Co2 Co 0.5000 1.0000 0.5000
N1 N 0.1527(8) 0.3380(9) -0.0118(8)
C1 C 0.3050(10) 0.3836(12) 0.0762(12)
H1 H 0.3504 0.4906 0.1417
C2 C 0.4009(11) 0.2727(16) 0.0730(14)
H2 H 0.5063 0.3069 0.1410
C3 C 0.3390(14) 0.1148(13) -0.0300(13)
C4 C 0.1847(13) 0.0740(13) -0.1192(14)
H3 H 0.1381 -0.0314 -0.1903
C5 C 0.0951(12) 0.1801(10) -0.1093(11)
H4 H -0.0119 0.1441 -0.1721
C6 C 0.4300(12) -0.0171(14) -0.0503(11)
H5 H 0.3848 -0.1178 -0.1325
N2 N 0.6574(8) 0.8460(8) 0.5138(8)
C7 C 0.7080(10) 0.8081(11) 0.6287(10)
H6 H 0.6710 0.8493 0.7053
C8 C 0.8087(11) 0.7144(12) 0.6416(11)
H7 H 0.8388 0.6950 0.7265
C9 C 0.8682(9) 0.6469(10) 0.5348(10)
C10 C 0.8170(10) 0.6805(11) 0.4101(11)
H8 H 0.8509 0.6355 0.3316
C11 C 0.7148(10) 0.7818(11) 0.4027(10)
H9 H 0.6850 0.8062 0.3209
C12 C 0.9759(10) 0.5437(11) 0.5502(11)
H10 H 1.0142 0.5407 0.6438
S1 S 0.3083(3) 0.8271(3) 0.5399(2)
C13 C 0.1983(9) 0.7039(9) 0.3610(9)
N3 N 0.1185(8) 0.6166(8) 0.2338(8)
S2 S 0.8113(2) 1.3223(3) 1.0390(2)
C14 C 0.6859(9) 1.2074(9) 0.8627(9)
N4 N 0.5995(7) 1.1271(8) 0.7361(7)
Co1_2 Co 1.0000 -0.5000 0.0000
Co1_3 Co 1.0000 1.5000 1.0000
Co2_2 Co -0.5000 0.0000 -0.5000
Co2_3 Co 1.5000 0.0000 0.5000
N1A N 0.8473(8) -0.3380(9) 0.0118(8)
N1A_2 N -0.1527(8) 0.6620(9) 0.0118(8)
C1A C 0.6950(10) -0.3836(12) -0.0762(12)
H1A H 0.6496 -0.4906 -0.1417
C2A C 0.5991(11) -0.2727(16) -0.0730(14)
H2A H 0.4937 -0.3069 -0.1410
C3A C 0.6610(14) -0.1148(13) 0.0300(13)
C4A C 0.8153(13) -0.0740(13) 0.1192(14)
H3A H 0.8619 0.0314 0.1903
C5A C 0.9049(12) -0.1801(10) 0.1093(11)
H4A H 1.0119 -0.1441 0.1721
C6A C 0.5700(12) 0.0171(14) 0.0503(11)
H5A H 0.6152 0.1178 0.1325
N2A N 1.3426(8) 0.1540(8) 0.4862(8)
N2A_2 N 0.3426(8) 1.1540(8) 0.4862(8)
C7A C 1.2920(10) 0.1919(11) 0.3713(10)
H6A H 1.3290 0.1507 0.2947
C8A C 1.1913(11) 0.2856(12) 0.3584(11)
H7A H 1.1612 0.3050 0.2735
C9A C 1.1318(9) 0.3531(10) 0.4652(10)
C10A C 1.1830(10) 0.3195(11) 0.5899(11)
H8A H 1.1491 0.3645 0.6684
C11A C 1.2852(10) 0.2182(11) 0.5973(10)
H9A H 1.3150 0.1938 0.6791
C12A C 1.0241(10) 0.4563(11) 0.4498(11)
H10A H 0.9858 0.4593 0.3562
S1A S -0.3083(3) 0.1729(3) -0.5399(2)
S1A_2 S 0.6917(3) 1.1729(3) 0.4601(2)
C13A C -0.1983(9) 0.2961(9) -0.3610(9)
N3A N -0.1185(8) 0.3834(8) -0.2338(8)
S2A S 0.1887(2) 0.6777(3) -0.0390(2)
S2_2 S -0.1887(2) 0.3223(3) 0.0390(2)
C14A C 0.3141(9) 0.7926(9) 0.1373(9)
N4A N 0.4005(7) 0.8729(8) 0.2639(7)
loop_
_geom_bond_atom_site_label_1
_geom_bond_atom_site_label_2
_geom_bond_site_symmetry_1
_geom_bond_site_symmetry_2
Co1 N1 1_555 1_555
Co2 N2 1_555 1_555
N1 C1 1_555 1_555
C1 H1 1_555 1_555
C2 C1 1_555 1_555
H2 C2 1_555 1_555
C3 C2 1_555 1_555
C4 C3 1_555 1_555
H3 C4 1_555 1_555
C5 N1 1_555 1_555
H4 C5 1_555 1_555
C6 C3 1_555 1_555
H5 C6 1_555 1_555
N2 C7 1_555 1_555
C7 H6 1_555 1_555
C8 C7 1_555 1_555
H7 C8 1_555 1_555
C9 C8 1_555 1_555
C10 C9 1_555 1_555
H8 C10 1_555 1_555
C11 N2 1_555 1_555
H9 C11 1_555 1_555
C12 C9 1_555 1_555
H10 C12 1_555 1_555
S1 Co2 1_555 1_555
C13 S1 1_555 1_555
N3 Co1 1_555 1_555
S2 C14 1_555 1_555
C14 N4 1_555 1_555
N4 Co2 1_555 1_555
Co1_2 N1A 1_555 1_555
Co1_3 S2 1_555 1_555
Co2_2 S1A 1_555 1_555
Co2_3 N2A 1_555 1_555
N1A C1A 1_555 1_555
N1A_2 Co1 1_555 1_555
C1A H1A 1_555 1_555
C2A C1A 1_555 1_555
H2A C2A 1_555 1_555
C3A C2A 1_555 1_555
C4A C3A 1_555 1_555
H3A C4A 1_555 1_555
C5A N1A 1_555 1_555
H4A C5A 1_555 1_555
C6A C6 1_555 1_555
H5A C6A 1_555 1_555
N2A C7A 1_555 1_555
N2A_2 Co2 1_555 1_555
C7A H6A 1_555 1_555
C8A C7A 1_555 1_555
H7A C8A 1_555 1_555
C9A C8A 1_555 1_555
C10A C9A 1_555 1_555
H8A C10A 1_555 1_555
C11A N2A 1_555 1_555
H9A C11A 1_555 1_555
C12A C12 1_555 1_555
H10A C12A 1_555 1_555
S1A C13A 1_555 1_555
S1A_2 Co2 1_555 1_555
C13A N3A 1_555 1_555
N3A Co1 1_555 1_555
S2A Co1 1_555 1_555
S2_2 Co1 1_555 1_555
C14A S2A 1_555 1_555
N4A Co2 1_555 1_555
C4 C5 1_555 1_555
C10 C11 1_555 1_555
C13 N3 1_555 1_555
C3A C6A 1_555 1_555
C4A C5A 1_555 1_555
C9A C12A 1_555 1_555
C10A C11A 1_555 1_555
C14A N4A 1_555 1_555

#END
