
#######################################################################
#
#                 Cambridge Crystallographic Data Centre
#                                CCDC 
#
#######################################################################
#
# If this CIF has been generated from an entry in the Cambridge 
# Structural Database, then it will include bibliographic, chemical, 
# crystal, experimental, refinement or atomic coordinate data resulting 
# from the CCDC's data processing and validation procedures.
#
#######################################################################

data_UWAZOI
_symmetry_cell_setting           trigonal
_symmetry_space_group_name_H-M   'P -3'
_symmetry_Int_Tables_number      147
_space_group_name_Hall           '-P 3'
loop_
_symmetry_equiv_pos_site_id
_symmetry_equiv_pos_as_xyz
1 x,y,z
2 -y,x-y,z
3 -x+y,-x,z
4 -x,-y,-z
5 y,-x+y,-z
6 x-y,x,-z
_cell_length_a                   11.621(2)
_cell_length_b                   11.621(2)
_cell_length_c                   7.553(2)
_cell_angle_alpha                90
_cell_angle_beta                 90
_cell_angle_gamma                120
_cell_volume                     883.359
loop_
_atom_site_label
_atom_site_type_symbol
_atom_site_fract_x
_atom_site_fract_y
_atom_site_fract_z
Fe1 Fe 0.0000 0.0000 0.0000
N1 N -0.29999(9) 0.05956(10) -0.21320(13)
N2 N -0.19048(9) 0.09397(9) -0.11863(14)
N3 N -0.14678(9) 0.01354(10) -0.16724(14)
C1 C -0.37899(11) 0.12343(12) -0.17620(17)
H1 H -0.3970 0.1557 -0.2883
H2 H -0.3279 0.2011 -0.0980
C2 C -0.51039(10) 0.02639(11) -0.08726(16)
H3 H -0.5619 0.0718 -0.0652
H4 H -0.5629 -0.0491 -0.1681
C3 C -0.22943(11) -0.07183(12) -0.29166(17)
H5 H -0.2203 -0.1400 -0.3479
C4 C -0.32798(12) -0.04292(12) -0.32207(17)
H6 H -0.4003 -0.0856 -0.4023
Fe1_2 Fe -1.0000 0.0000 0.0000
Fe1_3 Fe 0.0000 -1.0000 0.0000
Fe1_4 Fe 1.0000 1.0000 0.0000
N1C N -0.70001(9) -0.05956(10) 0.21320(13)
N1A N -0.05956(10) -0.35955(13) -0.21320(13)
N1D N 0.05956(10) -0.64045(13) 0.21320(13)
N1B N 0.35955(13) 0.29999(9) -0.21320(13)
N1E N 0.64045(13) 0.70001(9) 0.21320(13)
N2C N -0.80952(9) -0.09397(9) 0.11863(14)
N2A N -0.09397(9) -0.28445(13) -0.11863(14)
N2D N 0.09397(9) -0.71555(13) 0.11863(14)
N2B N 0.28445(13) 0.19048(9) -0.11863(14)
N2E N 0.71555(13) 0.80952(9) 0.11863(14)
N3C N -0.85322(9) -0.01354(10) 0.16724(14)
N3A N -0.01354(10) -0.16032(13) -0.16724(14)
N3D N 0.01354(10) -0.83968(13) 0.16724(14)
N3B N 0.16032(13) 0.14678(9) -0.16724(14)
N3E N 0.83968(13) 0.85322(9) 0.16724(14)
N3C_2 N 0.14678(9) -0.01354(10) 0.16724(14)
N3D_2 N 0.01354(10) 0.16032(13) 0.16724(14)
N3E_2 N -0.16032(13) -0.14678(9) 0.16724(14)
C1C C -0.62101(11) -0.12343(12) 0.17620(17)
C1A C -0.12343(12) -0.50242(16) -0.17620(17)
C1D C 0.12343(12) -0.49758(16) 0.17620(17)
C1B C 0.50242(16) 0.37899(11) -0.17620(17)
C1E C 0.49758(16) 0.62101(11) 0.17620(17)
H1C H -0.6030 -0.1557 0.2883
H1A H -0.1557 -0.5527 -0.2883
H1D H 0.1557 -0.4473 0.2883
H1B H 0.5527 0.3970 -0.2883
H1E H 0.4473 0.6030 0.2883
H2C H -0.6721 -0.2011 0.0980
H2A H -0.2011 -0.5290 -0.0980
H2D H 0.2011 -0.4710 0.0980
H2B H 0.5290 0.3279 -0.0980
H2E H 0.4710 0.6721 0.0980
C2C C -0.48961(10) -0.02639(11) 0.08726(16)
C2A C -0.02639(11) -0.53678(15) -0.08726(16)
C2D C 0.02639(11) -0.46322(15) 0.08726(16)
C2B C 0.53678(15) 0.51039(10) -0.08726(16)
C2E C 0.46322(15) 0.48961(10) 0.08726(16)
H3C H -0.4381 -0.0718 0.0652
H3A H -0.0718 -0.6337 -0.0652
H3D H 0.0718 -0.3663 0.0652
H3B H 0.6337 0.5619 -0.0652
H3E H 0.3663 0.4381 0.0652
H4C H -0.4371 0.0491 0.1681
H4A H 0.0491 -0.5138 -0.1681
H4D H -0.0491 -0.4862 0.1681
H4B H 0.5138 0.5629 -0.1681
H4E H 0.4862 0.4371 0.1681
C3C C -0.77057(11) 0.07183(12) 0.29166(17)
C3A C 0.07183(12) -0.15760(16) -0.29166(17)
C3D C -0.07183(12) -0.84240(16) 0.29166(17)
C3B C 0.15760(16) 0.22943(11) -0.29166(17)
C3E C 0.84240(16) 0.77057(11) 0.29166(17)
H5C H -0.7797 0.1400 0.3479
H5A H 0.1400 -0.0803 -0.3479
H5D H -0.1400 -0.9197 0.3479
H5B H 0.0803 0.2203 -0.3479
H5E H 0.9197 0.7797 0.3479
C4C C -0.67202(12) 0.04292(12) 0.32207(17)
C4A C 0.04292(12) -0.28506(17) -0.32207(17)
C4D C -0.04292(12) -0.71494(17) 0.32207(17)
C4B C 0.28506(17) 0.32798(12) -0.32207(17)
C4E C 0.71494(17) 0.67202(12) 0.32207(17)
H6C H -0.5997 0.0856 0.4023
H6A H 0.0856 -0.3147 -0.4023
H6D H -0.0856 -0.6853 0.4023
H6B H 0.3147 0.4003 -0.4023
H6E H 0.6853 0.5997 0.4023
B1 B 0.3333 -0.3333 -0.3510(3)
F1 F 0.3333 -0.3333 -0.16683(17)
F2 F 0.21447(8) -0.43900(8) -0.41317(11)
F2A F 0.43900(8) -0.34653(11) -0.41317(11)
F2B F 0.34653(11) -0.21447(8) -0.41317(11)
loop_
_geom_bond_atom_site_label_1
_geom_bond_atom_site_label_2
_geom_bond_site_symmetry_1
_geom_bond_site_symmetry_2
Fe1 N3 1_555 1_555
N1 N2 1_555 1_555
N2 N3 1_555 1_555
N3 C3 1_555 1_555
C1 N1 1_555 1_555
H1 C1 1_555 1_555
H2 C1 1_555 1_555
C2 C1 1_555 1_555
H3 C2 1_555 1_555
H4 C2 1_555 1_555
C3 H5 1_555 1_555
C4 N1 1_555 1_555
H6 C4 1_555 1_555
B1 F1 1_555 1_555
F2 B1 1_555 1_555
Fe1_2 N3C 1_555 1_555
Fe1_3 N3D 1_555 1_555
Fe1_4 N3E 1_555 1_555
N1C N2C 1_555 1_555
N1A N2A 1_555 1_555
N1D N2D 1_555 1_555
N1B N2B 1_555 1_555
N1E N2E 1_555 1_555
N2C N3C 1_555 1_555
N2A N3A 1_555 1_555
N2D N3D 1_555 1_555
N2B N3B 1_555 1_555
N2E N3E 1_555 1_555
N3C C3C 1_555 1_555
N3A Fe1 1_555 1_555
N3D C3D 1_555 1_555
N3B Fe1 1_555 1_555
N3E C3E 1_555 1_555
N3C_2 Fe1 1_555 1_555
N3D_2 Fe1 1_555 1_555
N3E_2 Fe1 1_555 1_555
C1C N1C 1_555 1_555
C1A N1A 1_555 1_555
C1D N1D 1_555 1_555
C1B N1B 1_555 1_555
C1E N1E 1_555 1_555
H1C C1C 1_555 1_555
H1A C1A 1_555 1_555
H1D C1D 1_555 1_555
H1B C1B 1_555 1_555
H1E C1E 1_555 1_555
H2C C1C 1_555 1_555
H2A C1A 1_555 1_555
H2D C1D 1_555 1_555
H2B C1B 1_555 1_555
H2E C1E 1_555 1_555
C2C C2 1_555 1_555
C2A C1A 1_555 1_555
C2D C1D 1_555 1_555
C2B C1B 1_555 1_555
C2E C1E 1_555 1_555
H3C C2C 1_555 1_555
H3A C2A 1_555 1_555
H3D C2D 1_555 1_555
H3B C2B 1_555 1_555
H3E C2E 1_555 1_555
H4C C2C 1_555 1_555
H4A C2A 1_555 1_555
H4D C2D 1_555 1_555
H4B C2B 1_555 1_555
H4E C2E 1_555 1_555
C3C H5C 1_555 1_555
C3A N3A 1_555 1_555
C3D H5D 1_555 1_555
C3B N3B 1_555 1_555
C3E H5E 1_555 1_555
H5A C3A 1_555 1_555
H5B C3B 1_555 1_555
C4C N1C 1_555 1_555
C4A N1A 1_555 1_555
C4D N1D 1_555 1_555
C4B N1B 1_555 1_555
C4E N1E 1_555 1_555
H6C C4C 1_555 1_555
H6A C4A 1_555 1_555
H6D C4D 1_555 1_555
H6B C4B 1_555 1_555
H6E C4E 1_555 1_555
F2A B1 1_555 1_555
F2B B1 1_555 1_555
C3 C4 1_555 1_555
C1C C2C 1_555 1_555
C2A C2D 1_555 1_555
C2B C2E 1_555 1_555
C3C C4C 1_555 1_555
C3A C4A 1_555 1_555
C3D C4D 1_555 1_555
C3B C4B 1_555 1_555
C3E C4E 1_555 1_555

#END
