
#######################################################################
#
#                 Cambridge Crystallographic Data Centre
#                                CCDC 
#
#######################################################################
#
# If this CIF has been generated from an entry in the Cambridge 
# Structural Database, then it will include bibliographic, chemical, 
# crystal, experimental, refinement or atomic coordinate data resulting 
# from the CCDC's data processing and validation procedures.
#
#######################################################################

data_UWAZOI01
_symmetry_cell_setting           trigonal
_symmetry_space_group_name_H-M   'P -3'
_symmetry_Int_Tables_number      147
_space_group_name_Hall           '-P 3'
loop_
_symmetry_equiv_pos_site_id
_symmetry_equiv_pos_as_xyz
1 x,y,z
2 -y,x-y,z
3 -x+y,-x,z
4 -x,-y,-z
5 y,-x+y,-z
6 x-y,x,-z
_cell_length_a                   11.692(2)
_cell_length_b                   11.692(2)
_cell_length_c                   7.654(2)
_cell_angle_alpha                90
_cell_angle_beta                 90
_cell_angle_gamma                120
_cell_volume                     906.143
loop_
_atom_site_label
_atom_site_type_symbol
_atom_site_fract_x
_atom_site_fract_y
_atom_site_fract_z
Fe1 Fe 0.0000 0.0000 0.0000
N1 N -0.29908(9) 0.05854(10) -0.20897(15)
N2 N -0.19196(9) 0.09184(10) -0.11417(15)
N3 N -0.14628(9) 0.01432(10) -0.16434(15)
C1 C -0.37897(12) 0.12113(14) -0.1716(2)
H1 H -0.3961 0.1531 -0.2798
H2 H -0.3296 0.1964 -0.0953
C2 C -0.50795(12) 0.02646(13) -0.08639(19)
H3 H -0.5583 0.0708 -0.0680
H4 H -0.5581 -0.0471 -0.1650
C3 C -0.22632(13) -0.06747(14) -0.2894(2)
H5 H -0.2163 -0.1322 -0.3463
C4 C -0.32401(14) -0.03949(16) -0.3185(2)
H6 H -0.3933 -0.0800 -0.3977
Fe1_2 Fe -1.0000 0.0000 0.0000
Fe1_3 Fe 1.0000 0.0000 0.0000
Fe1_4 Fe 0.0000 1.0000 0.0000
N1C N -0.70092(9) -0.05854(10) 0.20897(15)
N1C_2 N 0.29908(9) -0.05854(10) 0.20897(15)
N1_2 N 0.70092(9) 0.05854(10) -0.20897(15)
N1D N 0.05854(10) 0.35762(13) 0.20897(15)
N1A N -0.05854(10) 0.64238(13) -0.20897(15)
N2C N -0.80804(9) -0.09184(10) 0.11417(15)
N2C_2 N 0.19196(9) -0.09184(10) 0.11417(15)
N2_2 N 0.80804(9) 0.09184(10) -0.11417(15)
N2D N 0.09184(10) 0.28380(13) 0.11417(15)
N2A N -0.09184(10) 0.71620(13) -0.11417(15)
N3C N -0.85372(9) -0.01432(10) 0.16434(15)
N3C_2 N 0.14628(9) -0.01432(10) 0.16434(15)
N3_2 N 0.85372(9) 0.01432(10) -0.16434(15)
N3D N 0.01432(10) 0.16060(13) 0.16434(15)
N3A N -0.01432(10) 0.83940(13) -0.16434(15)
N3E N -0.16060(13) -0.14628(9) 0.16434(15)
N3A_2 N -0.01432(10) -0.16060(13) -0.16434(15)
N3B N 0.16060(13) 0.14628(9) -0.16434(15)
C1C C -0.62103(12) -0.12113(14) 0.1716(2)
C1C_2 C 0.37897(12) -0.12113(14) 0.1716(2)
C1_2 C 0.62103(12) 0.12113(14) -0.1716(2)
C1D C 0.12113(14) 0.50010(18) 0.1716(2)
C1A C -0.12113(14) 0.49990(18) -0.1716(2)
H1C H -0.6039 -0.1531 0.2798
H1C_2 H 0.3961 -0.1531 0.2798
H1_2 H 0.6039 0.1531 -0.2798
H1D H 0.1531 0.5492 0.2798
H1A H -0.1531 0.4508 -0.2798
H2C H -0.6704 -0.1964 0.0953
H2C_2 H 0.3296 -0.1964 0.0953
H2_2 H 0.6704 0.1964 -0.0953
H2D H 0.1964 0.5260 0.0953
H2A H -0.1964 0.4740 -0.0953
C2C C -0.49205(12) -0.02646(13) 0.08639(19)
C2C_2 C 0.50795(12) -0.02646(13) 0.08639(19)
C2_2 C 0.49205(12) 0.02646(13) -0.08639(19)
C2D C 0.02646(13) 0.53441(18) 0.08639(19)
C2A C -0.02646(13) 0.46559(18) -0.08639(19)
H3C H -0.4417 -0.0708 0.0680
H3C_2 H 0.5583 -0.0708 0.0680
H3_2 H 0.4417 0.0708 -0.0680
H3D H 0.0708 0.6291 0.0680
H3A H -0.0708 0.3709 -0.0680
H4C H -0.4419 0.0471 0.1650
H4C_2 H 0.5581 0.0471 0.1650
H4_2 H 0.4419 -0.0471 -0.1650
H4D H -0.0471 0.5110 0.1650
H4A H 0.0471 0.4890 -0.1650
C3C C -0.77368(13) 0.06747(14) 0.2894(2)
C3C_2 C 0.22632(13) 0.06747(14) 0.2894(2)
C3_2 C 0.77368(13) -0.06747(14) -0.2894(2)
C3D C -0.06747(14) 0.15885(19) 0.2894(2)
C3A C 0.06747(14) 0.84115(19) -0.2894(2)
H5C H -0.7837 0.1322 0.3463
H5C_2 H 0.2163 0.1322 0.3463
H5_2 H 0.7837 -0.1322 -0.3463
H5D H -0.1322 0.0841 0.3463
H5A H 0.1322 0.9159 -0.3463
C4C C -0.67599(14) 0.03949(16) 0.3185(2)
C4C_2 C 0.32401(14) 0.03949(16) 0.3185(2)
C4_2 C 0.67599(14) -0.03949(16) -0.3185(2)
C4D C -0.03949(16) 0.28452(21) 0.3185(2)
C4A C 0.03949(16) 0.71548(21) -0.3185(2)
H6C H -0.6067 0.0800 0.3977
H6C_2 H 0.3933 0.0800 0.3977
H6_2 H 0.6067 -0.0800 -0.3977
H6D H -0.0800 0.3133 0.3977
H6A H 0.0800 0.6867 -0.3977
B1 B 0.3333 -0.3333 -0.3619(4)
F1 F 0.3333 -0.3333 -0.1842(2)
F2 F 0.21626(11) -0.43585(11) -0.42112(16)
F2A F 0.43585(11) -0.34789(16) -0.42112(16)
F2B F 0.34789(16) -0.21626(11) -0.42112(16)
loop_
_geom_bond_atom_site_label_1
_geom_bond_atom_site_label_2
_geom_bond_site_symmetry_1
_geom_bond_site_symmetry_2
Fe1 N3 1_555 1_555
N1 N2 1_555 1_555
N2 N3 1_555 1_555
N3 C3 1_555 1_555
C1 N1 1_555 1_555
H1 C1 1_555 1_555
H2 C1 1_555 1_555
C2 C1 1_555 1_555
H3 C2 1_555 1_555
H4 C2 1_555 1_555
C3 H5 1_555 1_555
C4 N1 1_555 1_555
H6 C4 1_555 1_555
B1 F1 1_555 1_555
F2 B1 1_555 1_555
Fe1_2 N3C 1_555 1_555
Fe1_3 N3_2 1_555 1_555
Fe1_4 N3A 1_555 1_555
N1C N2C 1_555 1_555
N1C_2 N2C_2 1_555 1_555
N1_2 N2_2 1_555 1_555
N1D N2D 1_555 1_555
N1A N2A 1_555 1_555
N2C N3C 1_555 1_555
N2C_2 N3C_2 1_555 1_555
N2_2 N3_2 1_555 1_555
N2D N3D 1_555 1_555
N2A N3A 1_555 1_555
N3C C3C 1_555 1_555
N3C_2 Fe1 1_555 1_555
N3_2 C3_2 1_555 1_555
N3D Fe1 1_555 1_555
N3A C3A 1_555 1_555
N3E Fe1 1_555 1_555
N3A_2 Fe1 1_555 1_555
N3B Fe1 1_555 1_555
C1C N1C 1_555 1_555
C1C_2 N1C_2 1_555 1_555
C1_2 N1_2 1_555 1_555
C1D N1D 1_555 1_555
C1A N1A 1_555 1_555
H1C C1C 1_555 1_555
H1C_2 C1C_2 1_555 1_555
H1_2 C1_2 1_555 1_555
H1D C1D 1_555 1_555
H1A C1A 1_555 1_555
H2C C1C 1_555 1_555
H2C_2 C1C_2 1_555 1_555
H2_2 C1_2 1_555 1_555
H2D C1D 1_555 1_555
H2A C1A 1_555 1_555
C2C C2 1_555 1_555
C2C_2 C1C_2 1_555 1_555
C2_2 C1_2 1_555 1_555
C2D C1D 1_555 1_555
C2A C1A 1_555 1_555
H3C C2C 1_555 1_555
H3C_2 C2C_2 1_555 1_555
H3_2 C2_2 1_555 1_555
H3D C2D 1_555 1_555
H3A C2A 1_555 1_555
H4C C2C 1_555 1_555
H4C_2 C2C_2 1_555 1_555
H4_2 C2_2 1_555 1_555
H4D C2D 1_555 1_555
H4A C2A 1_555 1_555
C3C H5C 1_555 1_555
C3C_2 N3C_2 1_555 1_555
C3_2 H5_2 1_555 1_555
C3D N3D 1_555 1_555
C3A H5A 1_555 1_555
H5C_2 C3C_2 1_555 1_555
H5D C3D 1_555 1_555
C4C N1C 1_555 1_555
C4C_2 N1C_2 1_555 1_555
C4_2 N1_2 1_555 1_555
C4D N1D 1_555 1_555
C4A N1A 1_555 1_555
H6C C4C 1_555 1_555
H6C_2 C4C_2 1_555 1_555
H6_2 C4_2 1_555 1_555
H6D C4D 1_555 1_555
H6A C4A 1_555 1_555
F2A B1 1_555 1_555
F2B B1 1_555 1_555
C3 C4 1_555 1_555
C1C C2C 1_555 1_555
C2C_2 C2_2 1_555 1_555
C2D C2A 1_555 1_555
C3C C4C 1_555 1_555
C3C_2 C4C_2 1_555 1_555
C3_2 C4_2 1_555 1_555
C3D C4D 1_555 1_555
C3A C4A 1_555 1_555

#END
