
#######################################################################
#
#                 Cambridge Crystallographic Data Centre
#                                CCDC 
#
#######################################################################
#
# If this CIF has been generated from an entry in the Cambridge 
# Structural Database, then it will include bibliographic, chemical, 
# crystal, experimental, refinement or atomic coordinate data resulting 
# from the CCDC's data processing and validation procedures.
#
#######################################################################

data_UWAZOI02
_symmetry_cell_setting           triclinic
_symmetry_space_group_name_H-M   'P -1'
_symmetry_Int_Tables_number      2
_space_group_name_Hall           '-P 1'
loop_
_symmetry_equiv_pos_site_id
_symmetry_equiv_pos_as_xyz
1 x,y,z
2 -x,-y,-z
_cell_length_a                   11.2934(14)
_cell_length_b                   11.3251(15)
_cell_length_c                   15.3223(16)
_cell_angle_alpha                89.905(9)
_cell_angle_beta                 91.524(9)
_cell_angle_gamma                119.876(13)
_cell_volume                     1698.52
loop_
_atom_site_label
_atom_site_type_symbol
_atom_site_fract_x
_atom_site_fract_y
_atom_site_fract_z
Fe1 Fe 0.02349(10) 0.02327(9) 0.25022(5)
N1 N 0.8811(5) 0.8758(5) 0.1760(3)
N2 N 0.8331(5) 0.7481(5) 0.1966(3)
N3 N 0.7254(6) 0.6765(5) 0.1443(3)
N4 N 0.8766(5) 0.0140(5) 0.3248(3)
N5 N 0.7464(5) -0.0679(5) 0.3050(3)
N6 N 0.6758(6) -0.0360(5) 0.3577(3)
N7 N 0.0132(5) 0.1658(5) 0.1758(3)
N8 N -0.0674(6) 0.2137(5) 0.1971(3)
N9 N -0.0382(6) 0.3196(5) 0.1445(3)
N10 N 0.1670(5) 0.1695(5) 0.3244(3)
N11 N 0.2140(6) 0.2981(6) 0.3022(3)
N12 N 0.3203(6) 0.3722(5) 0.3551(3)
N13 N 0.1696(6) 0.0337(5) 0.1763(3)
N14 N 0.2995(6) 0.1130(5) 0.1990(3)
N15 N 0.3742(6) 0.0846(6) 0.1473(3)
N16 N 0.0357(5) 0.8822(5) 0.3232(3)
N17 N 0.1150(5) 0.8345(5) 0.3017(3)
N18 N 0.0853(6) 0.7269(5) 0.3524(3)
C1 C 0.8008(7) 0.8862(7) 0.1111(4)
H1 H 0.8127 0.9660 0.0858
C2 C 0.7004(7) 0.7570(6) 0.0909(4)
H2 H 0.6299 0.7300 0.0493
C3 C 0.8874(7) 0.0984(7) 0.3900(4)
H3 H 0.9682 0.1659 0.4163
C4 C 0.7595(7) 0.0674(6) 0.4105(4)
H4 H 0.7349 0.1095 0.4527
C5 C 0.0936(7) 0.2423(6) 0.1091(4)
H5 H 0.1589 0.2289 0.0822
C6 C 0.0621(7) 0.3419(6) 0.0884(4)
H6 H 0.1003 0.4086 0.0461
C7 C 0.2421(6) 0.1611(6) 0.3916(4)
H7 H 0.2281 0.0820 0.4190
C8 C 0.3420(7) 0.2904(7) 0.4116(4)
H8 H 0.4107 0.3176 0.4545
C9 C 0.1647(7) -0.0471(6) 0.1102(4)
H9 H 0.0854 -0.1143 0.0824
C10 C 0.2942(7) -0.0146(7) 0.0905(4)
H10 H 0.3211 -0.0529 0.0471
C11 C -0.0474(7) 0.8002(6) 0.3893(4)
H11 H -0.1143 0.8109 0.4162
C12 C -0.0145(7) 0.7014(7) 0.4080(4)
H12 H -0.0521 0.6331 0.4493
C13 C 0.6431(7) 0.5284(6) 0.1587(4)
H13 H 0.6965 0.4992 0.1937
H14 H 0.6214 0.4808 0.1029
C14 C 0.1496(7) 0.6439(7) 0.3363(4)
H15 H 0.1800 0.6244 0.3915
H16 H 0.2293 0.6949 0.3011
C15 C 0.0530(7) 0.5134(6) 0.2906(4)
H17 H -0.0235 0.4599 0.3277
H18 H 0.0990 0.4618 0.2806
C16 C -0.1014(7) 0.4022(7) 0.1589(4)
H19 H -0.1801 0.3531 0.1952
H20 H -0.1327 0.4197 0.1034
C17 C -0.0006(7) 0.5365(6) 0.2031(4)
H21 H -0.0450 0.5896 0.2127
H22 H 0.0755 0.5877 0.1652
C18 C 0.4048(7) 0.5185(6) 0.3411(4)
H23 H 0.4273 0.5655 0.3971
H24 H 0.3522 0.5494 0.3067
C19 C 0.5384(7) 0.5576(7) 0.2940(4)
H25 H 0.5902 0.6557 0.2877
H26 H 0.5933 0.5306 0.3293
C20 C 0.5108(7) 0.4903(7) 0.2048(4)
H27 H 0.4565 0.5180 0.1693
H28 H 0.4584 0.3923 0.2110
C21 C 0.5223(7) 0.1479(7) 0.1632(4)
H29 H 0.5542 0.2295 0.1988
H30 H 0.5681 0.1743 0.1080
C22 C 0.5584(7) 0.0498(6) 0.2095(4)
H31 H 0.6567 0.0948 0.2190
H32 H 0.5318 -0.0285 0.1717
C23 C 0.4892(7) -0.0003(7) 0.2983(4)
H33 H 0.5157 0.0778 0.3364
H34 H 0.3909 -0.0459 0.2890
C24 C 0.5278(7) -0.0989(6) 0.3436(4)
H35 H 0.4836 -0.1255 0.3993
H36 H 0.4950 -0.1804 0.3078
Fe1_2 Fe 0.02349(10) 1.02327(9) 0.25022(5)
Fe1_3 Fe 1.02349(10) 0.02327(9) 0.25022(5)
Fe1_4 Fe 1.02349(10) 1.02327(9) 0.25022(5)
N1_2 N -0.1189(5) -0.1242(5) 0.1760(3)
N4_2 N -0.1234(5) 0.0140(5) 0.3248(3)
N16_2 N 0.0357(5) -0.1178(5) 0.3232(3)
B1 B 0.3518(8) -0.3027(8) 0.0709(5)
F1 F 0.4581(4) -0.1763(4) 0.0443(2)
F2 F 0.2280(4) -0.3212(4) 0.0372(2)
F3 F 0.3744(4) -0.4048(4) 0.0365(2)
F4 F 0.3490(4) -0.3140(4) 0.1614(2)
B2 B 0.6978(7) 0.3559(7) 0.4297(4)
F5 F 0.5967(4) 0.2305(4) 0.4641(2)
F6 F 0.8260(4) 0.3764(4) 0.4559(2)
F7 F 0.6809(4) 0.4610(4) 0.4628(2)
F8 F 0.6875(4) 0.3550(4) 0.3388(2)
loop_
_geom_bond_atom_site_label_1
_geom_bond_atom_site_label_2
_geom_bond_site_symmetry_1
_geom_bond_site_symmetry_2
Fe1 N7 1_555 1_555
N1 N2 1_555 1_555
N2 N3 1_555 1_555
N3 C2 1_555 1_555
N4 N5 1_555 1_555
N5 N6 1_555 1_555
N6 C4 1_555 1_555
N7 N8 1_555 1_555
N8 N9 1_555 1_555
N9 C6 1_555 1_555
N10 Fe1 1_555 1_555
N11 N10 1_555 1_555
N12 N11 1_555 1_555
N13 Fe1 1_555 1_555
N14 N13 1_555 1_555
N15 N14 1_555 1_555
N16 N17 1_555 1_555
N17 N18 1_555 1_555
N18 C12 1_555 1_555
C1 N1 1_555 1_555
H1 C1 1_555 1_555
C2 C1 1_555 1_555
H2 C2 1_555 1_555
C3 N4 1_555 1_555
H3 C3 1_555 1_555
C4 C3 1_555 1_555
H4 C4 1_555 1_555
C5 N7 1_555 1_555
H5 C5 1_555 1_555
C6 C5 1_555 1_555
H6 C6 1_555 1_555
C7 N10 1_555 1_555
H7 C7 1_555 1_555
C8 N12 1_555 1_555
H8 C8 1_555 1_555
C9 N13 1_555 1_555
H9 C9 1_555 1_555
C10 N15 1_555 1_555
H10 C10 1_555 1_555
C11 N16 1_555 1_555
H11 C11 1_555 1_555
C12 C11 1_555 1_555
H12 C12 1_555 1_555
C13 N3 1_555 1_555
H13 C13 1_555 1_555
H14 C13 1_555 1_555
C14 N18 1_555 1_555
H15 C14 1_555 1_555
H16 C14 1_555 1_555
C15 C14 1_555 1_555
H17 C15 1_555 1_555
H18 C15 1_555 1_555
C16 N9 1_555 1_555
H19 C16 1_555 1_555
H20 C16 1_555 1_555
C17 C15 1_555 1_555
H21 C17 1_555 1_555
H22 C17 1_555 1_555
C18 N12 1_555 1_555
H23 C18 1_555 1_555
H24 C18 1_555 1_555
C19 C18 1_555 1_555
H25 C19 1_555 1_555
H26 C19 1_555 1_555
C20 C13 1_555 1_555
H27 C20 1_555 1_555
H28 C20 1_555 1_555
C21 N15 1_555 1_555
H29 C21 1_555 1_555
H30 C21 1_555 1_555
C22 C21 1_555 1_555
H31 C22 1_555 1_555
H32 C22 1_555 1_555
C23 C22 1_555 1_555
H33 C23 1_555 1_555
H34 C23 1_555 1_555
C24 N6 1_555 1_555
H35 C24 1_555 1_555
H36 C24 1_555 1_555
B1 F1 1_555 1_555
F2 B1 1_555 1_555
F3 B1 1_555 1_555
F4 B1 1_555 1_555
B2 F5 1_555 1_555
F6 B2 1_555 1_555
F7 B2 1_555 1_555
F8 B2 1_555 1_555
Fe1_2 N16 1_555 1_555
Fe1_3 N4 1_555 1_555
Fe1_4 N1 1_555 1_555
N1_2 Fe1 1_555 1_555
N4_2 Fe1 1_555 1_555
N16_2 Fe1 1_555 1_555
C7 C8 1_555 1_555
C9 C10 1_555 1_555
C16 C17 1_555 1_555
C19 C20 1_555 1_555
C23 C24 1_555 1_555

#END
