
#######################################################################
#
#                 Cambridge Crystallographic Data Centre
#                                CCDC 
#
#######################################################################
#
# If this CIF has been generated from an entry in the Cambridge 
# Structural Database, then it will include bibliographic, chemical, 
# crystal, experimental, refinement or atomic coordinate data resulting 
# from the CCDC's data processing and validation procedures.
#
#######################################################################

data_UWAZOI03
_symmetry_cell_setting           triclinic
_symmetry_space_group_name_H-M   'P -1'
_symmetry_Int_Tables_number      2
_space_group_name_Hall           '-P 1'
loop_
_symmetry_equiv_pos_site_id
_symmetry_equiv_pos_as_xyz
1 x,y,z
2 -x,-y,-z
_cell_length_a                   11.2880(13)
_cell_length_b                   11.3200(17)
_cell_length_c                   15.3266(19)
_cell_angle_alpha                88.679(11)
_cell_angle_beta                 91.515(10)
_cell_angle_gamma                119.898(14)
_cell_volume                     1697.09
loop_
_atom_site_label
_atom_site_type_symbol
_atom_site_fract_x
_atom_site_fract_y
_atom_site_fract_z
Fe1 Fe 0.02192(11) 0.02216(11) 0.25017(6)
N1 N 0.8800(6) 0.8757(6) 0.1759(3)
N2 N 0.8326(6) 0.7457(6) 0.1965(3)
N3 N 0.7248(6) 0.6750(6) 0.1442(4)
N4 N 0.8755(6) 0.0137(6) 0.3244(3)
N5 N 0.7448(6) -0.0692(6) 0.3050(3)
N6 N 0.6749(6) -0.0359(6) 0.3568(3)
N7 N 0.0126(6) 0.1653(6) 0.1762(3)
N8 N -0.0691(6) 0.2117(6) 0.1971(3)
N9 N -0.0394(6) 0.3192(6) 0.1447(3)
N10 N 0.1647(6) 0.1695(6) 0.3242(3)
N11 N 0.2125(6) 0.2972(6) 0.3023(3)
N12 N 0.3196(6) 0.3718(6) 0.3548(3)
N13 N 0.1685(6) 0.0333(6) 0.1762(3)
N14 N 0.2974(6) 0.1120(6) 0.1989(3)
N15 N 0.3725(6) 0.0826(6) 0.1472(3)
N16 N 0.0338(6) 0.8816(6) 0.3228(3)
N17 N 0.1137(6) 0.8332(6) 0.3013(3)
N18 N 0.0838(6) 0.7276(6) 0.3524(3)
C1 C 0.8004(8) 0.8851(8) 0.1113(4)
H1 H 0.8113 0.9650 0.0856
C2 C 0.7005(7) 0.7546(7) 0.0907(4)
H2 H 0.6314 0.7280 0.0486
C3 C 0.8842(7) 0.0961(8) 0.3898(4)
H3 H 0.9646 0.1626 0.4161
C4 C 0.7574(8) 0.0657(7) 0.4104(4)
H4 H 0.7320 0.1063 0.4526
C5 C 0.0917(8) 0.2404(8) 0.1093(4)
H5 H 0.1567 0.2269 0.0822
C6 C 0.0601(8) 0.3393(8) 0.0883(4)
H6 H 0.0983 0.4059 0.0449
C7 C 0.2407(7) 0.1613(7) 0.3918(4)
H7 H 0.2259 0.0815 0.4199
C8 C 0.3420(7) 0.2891(7) 0.4115(4)
H8 H 0.4108 0.3147 0.4538
C9 C 0.1638(7) -0.0478(7) 0.1102(4)
H9 H 0.0846 -0.1137 0.0826
C10 C 0.2915(7) -0.0175(8) 0.0913(4)
H10 H 0.3182 -0.0568 0.0491
C11 C -0.0466(7) 0.8013(7) 0.3889(4)
H11 H -0.1120 0.8134 0.4168
C12 C -0.0165(7) 0.7000(7) 0.4080(4)
H12 H -0.0558 0.6300 0.4492
C13 C 0.6410(7) 0.5270(7) 0.1585(4)
H13 H 0.6933 0.4953 0.1929
H14 H 0.6192 0.4817 0.1026
C14 C 0.1491(8) 0.6434(7) 0.3360(4)
H15 H 0.1795 0.6230 0.3912
H16 H 0.2287 0.6952 0.3001
C15 C 0.0509(7) 0.5111(7) 0.2907(4)
H17 H -0.0259 0.4569 0.3284
H18 H 0.0970 0.4598 0.2811
C16 C -0.1025(8) 0.4011(8) 0.1589(4)
H19 H -0.1820 0.3506 0.1951
H20 H -0.1329 0.4204 0.1033
C17 C -0.0022(7) 0.5356(7) 0.2034(4)
H21 H 0.0743 0.5887 0.1653
H22 H -0.0476 0.5877 0.2129
C18 C 0.4025(7) 0.5184(7) 0.3403(4)
H23 H 0.4233 0.5644 0.3960
H24 H 0.3510 0.5497 0.3048
C19 C 0.5372(7) 0.5559(7) 0.2945(4)
H25 H 0.5909 0.6540 0.2871
H26 H 0.5899 0.5267 0.3306
C20 C 0.5092(8) 0.4883(8) 0.2050(4)
H27 H 0.4571 0.3901 0.2126
H28 H 0.4547 0.5159 0.1694
C21 C 0.5207(7) 0.1464(7) 0.1635(4)
H29 H 0.5510 0.2263 0.1993
H30 H 0.5679 0.1757 0.1085
C22 C 0.5569(8) 0.0487(8) 0.2090(4)
H31 H 0.6553 0.0934 0.2173
H32 H 0.5296 -0.0293 0.1718
C23 C 0.4890(7) -0.0014(7) 0.2976(4)
H33 H 0.5157 0.0765 0.3347
H34 H 0.3906 -0.0470 0.2894
C24 C 0.5270(7) -0.0984(8) 0.3431(4)
H35 H 0.4823 -0.1259 0.3990
H36 H 0.4946 -0.1795 0.3081
Fe1_2 Fe 0.02192(11) 1.02216(11) 0.25017(6)
Fe1_3 Fe 1.02192(11) 0.02216(11) 0.25017(6)
Fe1_4 Fe 1.02192(11) 1.02216(11) 0.25017(6)
N1_2 N -0.1200(6) -0.1243(6) 0.1759(3)
N4_2 N -0.1245(6) 0.0137(6) 0.3244(3)
N16_2 N 0.0338(6) -0.1184(6) 0.3228(3)
B1 B 0.3510(10) -0.3047(10) 0.0704(5)
F1 F 0.4567(4) -0.1775(4) 0.0441(3)
F2 F 0.2265(4) -0.3228(5) 0.0374(3)
F3 F 0.3723(5) -0.4062(4) 0.0363(2)
F4 F 0.3475(5) -0.3160(5) 0.1607(2)
B2 B 0.6958(9) 0.3541(8) 0.4301(5)
F5 F 0.5953(4) 0.2306(4) 0.4643(2)
F6 F 0.8241(5) 0.3754(5) 0.4563(2)
F7 F 0.6788(5) 0.4601(5) 0.4627(3)
F8 F 0.6858(4) 0.3538(5) 0.3393(2)
loop_
_geom_bond_atom_site_label_1
_geom_bond_atom_site_label_2
_geom_bond_site_symmetry_1
_geom_bond_site_symmetry_2
Fe1 N7 1_555 1_555
N1 N2 1_555 1_555
N2 N3 1_555 1_555
N3 C2 1_555 1_555
N4 N5 1_555 1_555
N5 N6 1_555 1_555
N6 C4 1_555 1_555
N7 N8 1_555 1_555
N8 N9 1_555 1_555
N9 C6 1_555 1_555
N10 Fe1 1_555 1_555
N11 N10 1_555 1_555
N12 N11 1_555 1_555
N13 Fe1 1_555 1_555
N14 N13 1_555 1_555
N15 N14 1_555 1_555
N16 N17 1_555 1_555
N17 N18 1_555 1_555
N18 C12 1_555 1_555
C1 N1 1_555 1_555
H1 C1 1_555 1_555
C2 C1 1_555 1_555
H2 C2 1_555 1_555
C3 N4 1_555 1_555
H3 C3 1_555 1_555
C4 C3 1_555 1_555
H4 C4 1_555 1_555
C5 N7 1_555 1_555
H5 C5 1_555 1_555
C6 C5 1_555 1_555
H6 C6 1_555 1_555
C7 N10 1_555 1_555
H7 C7 1_555 1_555
C8 N12 1_555 1_555
H8 C8 1_555 1_555
C9 N13 1_555 1_555
H9 C9 1_555 1_555
C10 N15 1_555 1_555
H10 C10 1_555 1_555
C11 N16 1_555 1_555
H11 C11 1_555 1_555
C12 C11 1_555 1_555
H12 C12 1_555 1_555
C13 N3 1_555 1_555
H13 C13 1_555 1_555
H14 C13 1_555 1_555
C14 N18 1_555 1_555
H15 C14 1_555 1_555
H16 C14 1_555 1_555
C15 C14 1_555 1_555
H17 C15 1_555 1_555
H18 C15 1_555 1_555
C16 N9 1_555 1_555
H19 C16 1_555 1_555
H20 C16 1_555 1_555
C17 C15 1_555 1_555
H21 C17 1_555 1_555
H22 C17 1_555 1_555
C18 N12 1_555 1_555
H23 C18 1_555 1_555
H24 C18 1_555 1_555
C19 C18 1_555 1_555
H25 C19 1_555 1_555
H26 C19 1_555 1_555
C20 C13 1_555 1_555
H27 C20 1_555 1_555
H28 C20 1_555 1_555
C21 N15 1_555 1_555
H29 C21 1_555 1_555
H30 C21 1_555 1_555
C22 C21 1_555 1_555
H31 C22 1_555 1_555
H32 C22 1_555 1_555
C23 C22 1_555 1_555
H33 C23 1_555 1_555
H34 C23 1_555 1_555
C24 N6 1_555 1_555
H35 C24 1_555 1_555
H36 C24 1_555 1_555
B1 F1 1_555 1_555
F2 B1 1_555 1_555
F3 B1 1_555 1_555
F4 B1 1_555 1_555
B2 F5 1_555 1_555
F6 B2 1_555 1_555
F7 B2 1_555 1_555
F8 B2 1_555 1_555
Fe1_2 N16 1_555 1_555
Fe1_3 N4 1_555 1_555
Fe1_4 N1 1_555 1_555
N1_2 Fe1 1_555 1_555
N4_2 Fe1 1_555 1_555
N16_2 Fe1 1_555 1_555
C7 C8 1_555 1_555
C9 C10 1_555 1_555
C16 C17 1_555 1_555
C19 C20 1_555 1_555
C23 C24 1_555 1_555

#END
