
#######################################################################
#
#                 Cambridge Crystallographic Data Centre
#                                CCDC 
#
#######################################################################
#
# If this CIF has been generated from an entry in the Cambridge 
# Structural Database, then it will include bibliographic, chemical, 
# crystal, experimental, refinement or atomic coordinate data resulting 
# from the CCDC's data processing and validation procedures.
#
#######################################################################

data_UWEBII02
_symmetry_cell_setting           trigonal
_symmetry_space_group_name_H-M   'P -3'
_symmetry_Int_Tables_number      147
_space_group_name_Hall           '-P 3'
loop_
_symmetry_equiv_pos_site_id
_symmetry_equiv_pos_as_xyz
1 x,y,z
2 -y,x-y,z
3 -x+y,-x,z
4 -x,-y,-z
5 y,-x+y,-z
6 x-y,x,-z
_cell_length_a                   11.6194(8)
_cell_length_b                   11.6194(8)
_cell_length_c                   7.7550(4)
_cell_angle_alpha                90
_cell_angle_beta                 90
_cell_angle_gamma                120
_cell_volume                     906.734
loop_
_atom_site_label
_atom_site_type_symbol
_atom_site_fract_x
_atom_site_fract_y
_atom_site_fract_z
Zn1 Zn 0.0000 0.0000 0.0000
N1 N -0.29617(8) 0.06452(8) -0.20505(11)
N2 N -0.19007(8) 0.09461(8) -0.10819(12)
N3 N -0.14394(8) 0.01737(8) -0.16023(11)
C1 C -0.37701(10) 0.12661(10) -0.16653(15)
H1 H -0.3937 0.1614 -0.2745
H2 H -0.3274 0.2024 -0.0871
C2 C -0.50893(9) 0.02795(10) -0.08486(13)
H3 H -0.5597 -0.0462 -0.1663
H4 H -0.5613 0.0724 -0.0635
C3 C -0.22189(10) -0.06163(11) -0.28900(14)
H5 H -0.2104 -0.1266 -0.3486
C4 C -0.31965(10) -0.03205(11) -0.31855(14)
H6 H -0.3891 -0.0711 -0.4012
Zn1_2 Zn -1.0000 0.0000 0.0000
Zn1_3 Zn 0.0000 -1.0000 0.0000
Zn1_4 Zn 1.0000 1.0000 0.0000
N1C N -0.70383(8) -0.06452(8) 0.20505(11)
N1A N -0.06452(8) -0.36069(11) -0.20505(11)
N1D N 0.06452(8) -0.63931(11) 0.20505(11)
N1B N 0.36069(11) 0.29617(8) -0.20505(11)
N1E N 0.63931(11) 0.70383(8) 0.20505(11)
N2C N -0.80993(8) -0.09461(8) 0.10819(12)
N2A N -0.09461(8) -0.28468(11) -0.10819(12)
N2D N 0.09461(8) -0.71532(11) 0.10819(12)
N2B N 0.28468(11) 0.19007(8) -0.10819(12)
N2E N 0.71532(11) 0.80993(8) 0.10819(12)
N3C N -0.85606(8) -0.01737(8) 0.16023(11)
N3A N -0.01737(8) -0.16131(11) -0.16023(11)
N3D N 0.01737(8) -0.83869(11) 0.16023(11)
N3B N 0.16131(11) 0.14394(8) -0.16023(11)
N3E N 0.83869(11) 0.85606(8) 0.16023(11)
N3C_2 N 0.14394(8) -0.01737(8) 0.16023(11)
N3D_2 N 0.01737(8) 0.16131(11) 0.16023(11)
N3E_2 N -0.16131(11) -0.14394(8) 0.16023(11)
C1C C -0.62299(10) -0.12661(10) 0.16653(15)
C1A C -0.12661(10) -0.50362(14) -0.16653(15)
C1D C 0.12661(10) -0.49638(14) 0.16653(15)
C1B C 0.50362(14) 0.37701(10) -0.16653(15)
C1E C 0.49638(14) 0.62299(10) 0.16653(15)
H1C H -0.6063 -0.1614 0.2745
H1A H -0.1614 -0.5551 -0.2745
H1D H 0.1614 -0.4449 0.2745
H1B H 0.5551 0.3937 -0.2745
H1E H 0.4449 0.6063 0.2745
H2C H -0.6726 -0.2024 0.0871
H2A H -0.2024 -0.5298 -0.0871
H2D H 0.2024 -0.4702 0.0871
H2B H 0.5298 0.3274 -0.0871
H2E H 0.4702 0.6726 0.0871
C2C C -0.49107(9) -0.02795(10) 0.08486(13)
C2A C -0.02795(10) -0.53688(13) -0.08486(13)
C2D C 0.02795(10) -0.46312(13) 0.08486(13)
C2B C 0.53688(13) 0.50893(9) -0.08486(13)
C2E C 0.46312(13) 0.49107(9) 0.08486(13)
H3C H -0.4403 0.0462 0.1663
H3A H 0.0462 -0.5135 -0.1663
H3D H -0.0462 -0.4865 0.1663
H3B H 0.5135 0.5597 -0.1663
H3E H 0.4865 0.4403 0.1663
H4C H -0.4387 -0.0724 0.0635
H4A H -0.0724 -0.6337 -0.0635
H4D H 0.0724 -0.3663 0.0635
H4B H 0.6337 0.5613 -0.0635
H4E H 0.3663 0.4387 0.0635
C3C C -0.77811(10) 0.06163(11) 0.28900(14)
C3A C 0.06163(11) -0.16026(15) -0.28900(14)
C3D C -0.06163(11) -0.83974(15) 0.28900(14)
C3B C 0.16026(15) 0.22189(10) -0.28900(14)
C3E C 0.83974(15) 0.77811(10) 0.28900(14)
H5C H -0.7896 0.1266 0.3486
H5A H 0.1266 -0.0838 -0.3486
H5D H -0.1266 -0.9162 0.3486
H5B H 0.0838 0.2104 -0.3486
H5E H 0.9162 0.7896 0.3486
C4C C -0.68035(10) 0.03205(11) 0.31855(14)
C4A C 0.03205(11) -0.28760(15) -0.31855(14)
C4D C -0.03205(11) -0.71240(15) 0.31855(14)
C4B C 0.28760(15) 0.31965(10) -0.31855(14)
C4E C 0.71240(15) 0.68035(10) 0.31855(14)
H6C H -0.6109 0.0711 0.4012
H6A H 0.0711 -0.3180 -0.4012
H6D H -0.0711 -0.6820 0.4012
H6B H 0.3180 0.3891 -0.4012
H6E H 0.6820 0.6109 0.4012
Cl1 Cl 0.3333 -0.3333 -0.36060(6)
O1 O 0.3333 -0.3333 -0.17634(17)
O2 O 0.21047(9) -0.44273(10) -0.42243(12)
O2A O 0.44273(10) -0.34680(13) -0.42243(12)
O2B O 0.34680(13) -0.21047(9) -0.42243(12)
loop_
_geom_bond_atom_site_label_1
_geom_bond_atom_site_label_2
_geom_bond_site_symmetry_1
_geom_bond_site_symmetry_2
Zn1 N3 1_555 1_555
N1 N2 1_555 1_555
N2 N3 1_555 1_555
N3 C3 1_555 1_555
C1 N1 1_555 1_555
H1 C1 1_555 1_555
H2 C1 1_555 1_555
C2 C1 1_555 1_555
H3 C2 1_555 1_555
H4 C2 1_555 1_555
C3 H5 1_555 1_555
C4 N1 1_555 1_555
H6 C4 1_555 1_555
Cl1 O1 1_555 1_555
O2 Cl1 1_555 1_555
Zn1_2 N3C 1_555 1_555
Zn1_3 N3D 1_555 1_555
Zn1_4 N3E 1_555 1_555
N1C N2C 1_555 1_555
N1A N2A 1_555 1_555
N1D N2D 1_555 1_555
N1B N2B 1_555 1_555
N1E N2E 1_555 1_555
N2C N3C 1_555 1_555
N2A N3A 1_555 1_555
N2D N3D 1_555 1_555
N2B N3B 1_555 1_555
N2E N3E 1_555 1_555
N3C C3C 1_555 1_555
N3A Zn1 1_555 1_555
N3D C3D 1_555 1_555
N3B Zn1 1_555 1_555
N3E C3E 1_555 1_555
N3C_2 Zn1 1_555 1_555
N3D_2 Zn1 1_555 1_555
N3E_2 Zn1 1_555 1_555
C1C N1C 1_555 1_555
C1A N1A 1_555 1_555
C1D N1D 1_555 1_555
C1B N1B 1_555 1_555
C1E N1E 1_555 1_555
H1C C1C 1_555 1_555
H1A C1A 1_555 1_555
H1D C1D 1_555 1_555
H1B C1B 1_555 1_555
H1E C1E 1_555 1_555
H2C C1C 1_555 1_555
H2A C1A 1_555 1_555
H2D C1D 1_555 1_555
H2B C1B 1_555 1_555
H2E C1E 1_555 1_555
C2C C2 1_555 1_555
C2A C1A 1_555 1_555
C2D C1D 1_555 1_555
C2B C1B 1_555 1_555
C2E C1E 1_555 1_555
H3C C2C 1_555 1_555
H3A C2A 1_555 1_555
H3D C2D 1_555 1_555
H3B C2B 1_555 1_555
H3E C2E 1_555 1_555
H4C C2C 1_555 1_555
H4A C2A 1_555 1_555
H4D C2D 1_555 1_555
H4B C2B 1_555 1_555
H4E C2E 1_555 1_555
C3C H5C 1_555 1_555
C3A N3A 1_555 1_555
C3D H5D 1_555 1_555
C3B N3B 1_555 1_555
C3E H5E 1_555 1_555
H5A C3A 1_555 1_555
H5B C3B 1_555 1_555
C4C N1C 1_555 1_555
C4A N1A 1_555 1_555
C4D N1D 1_555 1_555
C4B N1B 1_555 1_555
C4E N1E 1_555 1_555
H6C C4C 1_555 1_555
H6A C4A 1_555 1_555
H6D C4D 1_555 1_555
H6B C4B 1_555 1_555
H6E C4E 1_555 1_555
O2A Cl1 1_555 1_555
O2B Cl1 1_555 1_555
C3 C4 1_555 1_555
C1C C2C 1_555 1_555
C2A C2D 1_555 1_555
C2B C2E 1_555 1_555
C3C C4C 1_555 1_555
C3A C4A 1_555 1_555
C3D C4D 1_555 1_555
C3B C4B 1_555 1_555
C3E C4E 1_555 1_555

#END
