
#######################################################################
#
#                 Cambridge Crystallographic Data Centre
#                                CCDC 
#
#######################################################################
#
# If this CIF has been generated from an entry in the Cambridge 
# Structural Database, then it will include bibliographic, chemical, 
# crystal, experimental, refinement or atomic coordinate data resulting 
# from the CCDC's data processing and validation procedures.
#
#######################################################################

data_UWEBII01
_symmetry_cell_setting           triclinic
_symmetry_space_group_name_H-M   'P -1'
_symmetry_Int_Tables_number      2
_space_group_name_Hall           '-P 1'
loop_
_symmetry_equiv_pos_site_id
_symmetry_equiv_pos_as_xyz
1 x,y,z
2 -x,-y,-z
_cell_length_a                   11.6164(10)
_cell_length_b                   11.6359(10)
_cell_length_c                   7.7230(13)
_cell_angle_alpha                92.332(12)
_cell_angle_beta                 86.479(11)
_cell_angle_gamma                120.081(9)
_cell_volume                     901.538
loop_
_atom_site_label
_atom_site_type_symbol
_atom_site_fract_x
_atom_site_fract_y
_atom_site_fract_z
Zn1 Zn 0.0000 0.0000 0.0000
N1 N -0.29523(12) 0.05457(12) -0.20815(18)
N2 N -0.18915(12) 0.09093(12) -0.11180(18)
N3 N -0.14162(12) 0.01181(12) -0.16141(18)
C1 C -0.37720(15) 0.11737(15) -0.1718(2)
H1 H -0.3915 0.1483 -0.2817
H2 H -0.3294 0.1958 -0.0951
C2 C -0.50928(15) 0.02259(15) -0.0865(2)
H3 H -0.5577 -0.0556 -0.1633
H4 H -0.5633 0.0665 -0.0675
C3 C -0.21995(16) -0.07481(15) -0.2888(2)
H5 H -0.2071 -0.1416 -0.3460
C4 C -0.31825(16) -0.04809(16) -0.3182(2)
H6 H -0.3873 -0.0913 -0.3976
N4 N 0.36396(12) 0.28747(12) -0.20190(18)
N5 N 0.28559(12) 0.18407(11) -0.10613(18)
N6 N 0.16294(12) 0.13845(12) -0.15891(18)
C5 C 0.50691(15) 0.36809(15) -0.1615(2)
H7 H 0.5629 0.3813 -0.2690
H8 H 0.5283 0.3196 -0.0785
C6 C 0.53955(15) 0.50451(14) -0.0827(2)
H9 H 0.6356 0.5556 -0.0598
H10 H 0.5222 0.5542 -0.1688
C7 C 0.16474(15) 0.21496(14) -0.2859(2)
H11 H 0.0902 0.2040 -0.3444
C8 C 0.29295(16) 0.31039(15) -0.3143(2)
H12 H 0.3266 0.3797 -0.3965
N7 N -0.06042(12) -0.36711(11) -0.20775(18)
N8 N -0.09262(12) -0.28841(11) -0.10974(19)
N9 N -0.01461(12) -0.16660(11) -0.16292(18)
C9 C -0.12313(16) -0.50852(14) -0.1700(2)
H13 H -0.1529 -0.5607 -0.2789
H14 H -0.2026 -0.5348 -0.0910
C10 C -0.02637(15) -0.53971(14) -0.0859(2)
H15 H 0.0501 -0.5186 -0.1685
H16 H -0.0718 -0.6359 -0.0616
C11 C 0.06610(15) -0.16935(14) -0.2912(2)
H17 H 0.1333 -0.0939 -0.3521
C12 C 0.03729(16) -0.29741(15) -0.3218(2)
H18 H 0.0784 -0.3289 -0.4060
Zn1_2 Zn -1.0000 0.0000 0.0000
Zn1_3 Zn 0.0000 -1.0000 0.0000
Zn1_4 Zn 1.0000 1.0000 0.0000
N1A N -0.70477(12) -0.05457(12) 0.20815(18)
N2A N -0.81085(12) -0.09093(12) 0.11180(18)
N3A N -0.85838(12) -0.01181(12) 0.16141(18)
N3A_2 N 0.14162(12) -0.01181(12) 0.16141(18)
C1A C -0.62280(15) -0.11737(15) 0.1718(2)
H1A H -0.6085 -0.1483 0.2817
H2A H -0.6706 -0.1958 0.0951
C2A C -0.49072(15) -0.02259(15) 0.0865(2)
H3A H -0.4423 0.0556 0.1633
H4A H -0.4367 -0.0665 0.0675
C3A C -0.78005(16) 0.07481(15) 0.2888(2)
H5A H -0.7929 0.1416 0.3460
C4A C -0.68175(16) 0.04809(16) 0.3182(2)
H6A H -0.6127 0.0913 0.3976
N4A N 0.63604(12) 0.71253(12) 0.20190(18)
N5A N 0.71441(12) 0.81593(11) 0.10613(18)
N6A N 0.83706(12) 0.86155(12) 0.15891(18)
N6A_2 N -0.16294(12) -0.13845(12) 0.15891(18)
C5A C 0.49309(15) 0.63191(15) 0.1615(2)
H7A H 0.4371 0.6187 0.2690
H8A H 0.4717 0.6804 0.0785
C6A C 0.46045(15) 0.49549(14) 0.0827(2)
H9A H 0.3644 0.4444 0.0598
H10A H 0.4778 0.4458 0.1688
C7A C 0.83526(15) 0.78504(14) 0.2859(2)
H11A H 0.9098 0.7960 0.3444
C8A C 0.70705(16) 0.68961(15) 0.3143(2)
H12A H 0.6734 0.6203 0.3965
N7A N 0.06042(12) -0.63289(11) 0.20775(18)
N8A N 0.09262(12) -0.71159(11) 0.10974(19)
N9A N 0.01461(12) -0.83340(11) 0.16292(18)
N9A_2 N 0.01461(12) 0.16660(11) 0.16292(18)
C9A C 0.12313(16) -0.49148(14) 0.1700(2)
H13A H 0.1529 -0.4393 0.2789
H14A H 0.2026 -0.4652 0.0910
C10A C 0.02637(15) -0.46029(14) 0.0859(2)
H15A H -0.0501 -0.4814 0.1685
H16A H 0.0718 -0.3641 0.0616
C11A C -0.06610(15) -0.83065(14) 0.2912(2)
H17A H -0.1333 -0.9061 0.3521
C12A C -0.03729(16) -0.70259(15) 0.3218(2)
H18A H -0.0784 -0.6711 0.4060
Cl1 Cl 0.33582(4) -0.34947(4) -0.36194(5)
O1 O 0.32957(12) -0.33755(12) -0.17712(16)
O2 O 0.35260(13) -0.23093(12) -0.43397(19)
O3 O 0.44667(12) -0.36728(12) -0.41399(18)
O4 O 0.21418(13) -0.46234(12) -0.42518(18)
loop_
_geom_bond_atom_site_label_1
_geom_bond_atom_site_label_2
_geom_bond_site_symmetry_1
_geom_bond_site_symmetry_2
Zn1 N3 1_555 1_555
N1 N2 1_555 1_555
N2 N3 1_555 1_555
N3 C3 1_555 1_555
C1 N1 1_555 1_555
H1 C1 1_555 1_555
H2 C1 1_555 1_555
C2 C1 1_555 1_555
H3 C2 1_555 1_555
H4 C2 1_555 1_555
C3 H5 1_555 1_555
C4 N1 1_555 1_555
H6 C4 1_555 1_555
N4 N5 1_555 1_555
N5 N6 1_555 1_555
N6 Zn1 1_555 1_555
C5 N4 1_555 1_555
H7 C5 1_555 1_555
H8 C5 1_555 1_555
C6 C5 1_555 1_555
H9 C6 1_555 1_555
H10 C6 1_555 1_555
C7 N6 1_555 1_555
H11 C7 1_555 1_555
C8 N4 1_555 1_555
H12 C8 1_555 1_555
N7 N8 1_555 1_555
N8 N9 1_555 1_555
N9 Zn1 1_555 1_555
C9 N7 1_555 1_555
H13 C9 1_555 1_555
H14 C9 1_555 1_555
C10 C9 1_555 1_555
H15 C10 1_555 1_555
H16 C10 1_555 1_555
C11 N9 1_555 1_555
H17 C11 1_555 1_555
C12 N7 1_555 1_555
H18 C12 1_555 1_555
Cl1 O1 1_555 1_555
O2 Cl1 1_555 1_555
O3 Cl1 1_555 1_555
O4 Cl1 1_555 1_555
Zn1_2 N3A 1_555 1_555
Zn1_3 N9A 1_555 1_555
Zn1_4 N6A 1_555 1_555
N1A N2A 1_555 1_555
N2A N3A 1_555 1_555
N3A C3A 1_555 1_555
N3A_2 Zn1 1_555 1_555
C1A N1A 1_555 1_555
H1A C1A 1_555 1_555
H2A C1A 1_555 1_555
C2A C2 1_555 1_555
H3A C2A 1_555 1_555
H4A C2A 1_555 1_555
C3A H5A 1_555 1_555
C4A N1A 1_555 1_555
H6A C4A 1_555 1_555
N4A N5A 1_555 1_555
N5A N6A 1_555 1_555
N6A C7A 1_555 1_555
N6A_2 Zn1 1_555 1_555
C5A N4A 1_555 1_555
H7A C5A 1_555 1_555
H8A C5A 1_555 1_555
C6A C6 1_555 1_555
H9A C6A 1_555 1_555
H10A C6A 1_555 1_555
C7A H11A 1_555 1_555
C8A N4A 1_555 1_555
H12A C8A 1_555 1_555
N7A N8A 1_555 1_555
N8A N9A 1_555 1_555
N9A C11A 1_555 1_555
N9A_2 Zn1 1_555 1_555
C9A N7A 1_555 1_555
H13A C9A 1_555 1_555
H14A C9A 1_555 1_555
C10A C10 1_555 1_555
H15A C10A 1_555 1_555
H16A C10A 1_555 1_555
C11A H17A 1_555 1_555
C12A N7A 1_555 1_555
H18A C12A 1_555 1_555
C3 C4 1_555 1_555
C7 C8 1_555 1_555
C11 C12 1_555 1_555
C1A C2A 1_555 1_555
C3A C4A 1_555 1_555
C5A C6A 1_555 1_555
C7A C8A 1_555 1_555
C9A C10A 1_555 1_555
C11A C12A 1_555 1_555

#END
