
#######################################################################
#
#                 Cambridge Crystallographic Data Centre
#                                CCDC 
#
#######################################################################
#
# If this CIF has been generated from an entry in the Cambridge 
# Structural Database, then it will include bibliographic, chemical, 
# crystal, experimental, refinement or atomic coordinate data resulting 
# from the CCDC's data processing and validation procedures.
#
#######################################################################

data_UWEBAA01
_symmetry_cell_setting           trigonal
_symmetry_space_group_name_H-M   'P -3'
_symmetry_Int_Tables_number      147
_space_group_name_Hall           '-P 3'
loop_
_symmetry_equiv_pos_site_id
_symmetry_equiv_pos_as_xyz
1 x,y,z
2 -y,x-y,z
3 -x+y,-x,z
4 -x,-y,-z
5 y,-x+y,-z
6 x-y,x,-z
_cell_length_a                   11.6275(6)
_cell_length_b                   11.6275(6)
_cell_length_c                   7.5830(5)
_cell_angle_alpha                90
_cell_angle_beta                 90
_cell_angle_gamma                120
_cell_volume                     887.86
loop_
_atom_site_label
_atom_site_type_symbol
_atom_site_fract_x
_atom_site_fract_y
_atom_site_fract_z
Zn1 Zn 0.0000 0.0000 0.0000
N1 N -0.29868(5) 0.05975(6) -0.21081(8)
N2 N -0.19029(5) 0.09360(6) -0.11525(9)
N3 N -0.14534(5) 0.01404(6) -0.16402(9)
C1 C -0.37874(6) 0.12283(7) -0.17471(12)
H1 H -0.3965 0.1549 -0.2867
H2 H -0.3282 0.2005 -0.0968
C2 C -0.50948(7) 0.02650(7) -0.08739(11)
H3 H -0.5612 0.0718 -0.0667
H4 H -0.5614 -0.0490 -0.1681
C3 C -0.22666(7) -0.06972(7) -0.28975(11)
H5 H -0.2167 -0.1369 -0.3469
C4 C -0.32503(7) -0.04147(8) -0.32043(11)
H6 H -0.3966 -0.0838 -0.4014
Zn1_2 Zn -1.0000 0.0000 0.0000
Zn1_3 Zn 0.0000 -1.0000 0.0000
Zn1_4 Zn 1.0000 1.0000 0.0000
N1C N -0.70132(5) -0.05975(6) 0.21081(8)
N1A N -0.05975(6) -0.35843(8) -0.21081(8)
N1D N 0.05975(6) -0.64157(8) 0.21081(8)
N1B N 0.35843(8) 0.29868(5) -0.21081(8)
N1E N 0.64157(8) 0.70132(5) 0.21081(8)
N2C N -0.80971(5) -0.09360(6) 0.11525(9)
N2A N -0.09360(6) -0.28389(8) -0.11525(9)
N2D N 0.09360(6) -0.71611(8) 0.11525(9)
N2B N 0.28389(8) 0.19029(5) -0.11525(9)
N2E N 0.71611(8) 0.80971(5) 0.11525(9)
N3C N -0.85466(5) -0.01404(6) 0.16402(9)
N3A N -0.01404(6) -0.15938(8) -0.16402(9)
N3D N 0.01404(6) -0.84062(8) 0.16402(9)
N3B N 0.15938(8) 0.14534(5) -0.16402(9)
N3E N 0.84062(8) 0.85466(5) 0.16402(9)
N3C_2 N 0.14534(5) -0.01404(6) 0.16402(9)
N3D_2 N 0.01404(6) 0.15938(8) 0.16402(9)
N3E_2 N -0.15938(8) -0.14534(5) 0.16402(9)
C1C C -0.62126(6) -0.12283(7) 0.17471(12)
C1A C -0.12283(7) -0.50157(9) -0.17471(12)
C1D C 0.12283(7) -0.49843(9) 0.17471(12)
C1B C 0.50157(9) 0.37874(6) -0.17471(12)
C1E C 0.49843(9) 0.62126(6) 0.17471(12)
H1C H -0.6035 -0.1549 0.2867
H1A H -0.1549 -0.5514 -0.2867
H1D H 0.1549 -0.4486 0.2867
H1B H 0.5514 0.3965 -0.2867
H1E H 0.4486 0.6035 0.2867
H2C H -0.6718 -0.2005 0.0968
H2A H -0.2005 -0.5287 -0.0968
H2D H 0.2005 -0.4713 0.0968
H2B H 0.5287 0.3282 -0.0968
H2E H 0.4713 0.6718 0.0968
C2C C -0.49052(7) -0.02650(7) 0.08739(11)
C2A C -0.02650(7) -0.53598(10) -0.08739(11)
C2D C 0.02650(7) -0.46402(10) 0.08739(11)
C2B C 0.53598(10) 0.50948(7) -0.08739(11)
C2E C 0.46402(10) 0.49052(7) 0.08739(11)
H3C H -0.4388 -0.0718 0.0667
H3A H -0.0718 -0.6330 -0.0667
H3D H 0.0718 -0.3670 0.0667
H3B H 0.6330 0.5612 -0.0667
H3E H 0.3670 0.4388 0.0667
H4C H -0.4386 0.0490 0.1681
H4A H 0.0490 -0.5124 -0.1681
H4D H -0.0490 -0.4876 0.1681
H4B H 0.5124 0.5614 -0.1681
H4E H 0.4876 0.4386 0.1681
C3C C -0.77334(7) 0.06972(7) 0.28975(11)
C3A C 0.06972(7) -0.15694(10) -0.28975(11)
C3D C -0.06972(7) -0.84306(10) 0.28975(11)
C3B C 0.15694(10) 0.22666(7) -0.28975(11)
C3E C 0.84306(10) 0.77334(7) 0.28975(11)
H5C H -0.7833 0.1369 0.3469
H5A H 0.1369 -0.0798 -0.3469
H5D H -0.1369 -0.9202 0.3469
H5B H 0.0798 0.2167 -0.3469
H5E H 0.9202 0.7833 0.3469
C4C C -0.67497(7) 0.04147(8) 0.32043(11)
C4A C 0.04147(8) -0.28356(11) -0.32043(11)
C4D C -0.04147(8) -0.71644(11) 0.32043(11)
C4B C 0.28356(11) 0.32503(7) -0.32043(11)
C4E C 0.71644(11) 0.67497(7) 0.32043(11)
H6C H -0.6034 0.0838 0.4014
H6A H 0.0838 -0.3128 -0.4014
H6D H -0.0838 -0.6872 0.4014
H6B H 0.3128 0.3966 -0.4014
H6E H 0.6872 0.6034 0.4014
B1 B 0.3333 -0.3333 -0.3539(2)
F1 F 0.3333 -0.3333 -0.17138(11)
F2 F 0.21450(5) -0.43834(5) -0.41546(7)
F2A F 0.43834(5) -0.34716(7) -0.41546(7)
F2B F 0.34716(7) -0.21450(5) -0.41546(7)
loop_
_geom_bond_atom_site_label_1
_geom_bond_atom_site_label_2
_geom_bond_site_symmetry_1
_geom_bond_site_symmetry_2
Zn1 N3 1_555 1_555
N1 N2 1_555 1_555
N2 N3 1_555 1_555
N3 C3 1_555 1_555
C1 N1 1_555 1_555
H1 C1 1_555 1_555
H2 C1 1_555 1_555
C2 C1 1_555 1_555
H3 C2 1_555 1_555
H4 C2 1_555 1_555
C3 H5 1_555 1_555
C4 N1 1_555 1_555
H6 C4 1_555 1_555
B1 F1 1_555 1_555
F2 B1 1_555 1_555
Zn1_2 N3C 1_555 1_555
Zn1_3 N3D 1_555 1_555
Zn1_4 N3E 1_555 1_555
N1C N2C 1_555 1_555
N1A N2A 1_555 1_555
N1D N2D 1_555 1_555
N1B N2B 1_555 1_555
N1E N2E 1_555 1_555
N2C N3C 1_555 1_555
N2A N3A 1_555 1_555
N2D N3D 1_555 1_555
N2B N3B 1_555 1_555
N2E N3E 1_555 1_555
N3C C3C 1_555 1_555
N3A Zn1 1_555 1_555
N3D C3D 1_555 1_555
N3B Zn1 1_555 1_555
N3E C3E 1_555 1_555
N3C_2 Zn1 1_555 1_555
N3D_2 Zn1 1_555 1_555
N3E_2 Zn1 1_555 1_555
C1C N1C 1_555 1_555
C1A N1A 1_555 1_555
C1D N1D 1_555 1_555
C1B N1B 1_555 1_555
C1E N1E 1_555 1_555
H1C C1C 1_555 1_555
H1A C1A 1_555 1_555
H1D C1D 1_555 1_555
H1B C1B 1_555 1_555
H1E C1E 1_555 1_555
H2C C1C 1_555 1_555
H2A C1A 1_555 1_555
H2D C1D 1_555 1_555
H2B C1B 1_555 1_555
H2E C1E 1_555 1_555
C2C C2 1_555 1_555
C2A C1A 1_555 1_555
C2D C1D 1_555 1_555
C2B C1B 1_555 1_555
C2E C1E 1_555 1_555
H3C C2C 1_555 1_555
H3A C2A 1_555 1_555
H3D C2D 1_555 1_555
H3B C2B 1_555 1_555
H3E C2E 1_555 1_555
H4C C2C 1_555 1_555
H4A C2A 1_555 1_555
H4D C2D 1_555 1_555
H4B C2B 1_555 1_555
H4E C2E 1_555 1_555
C3C H5C 1_555 1_555
C3A N3A 1_555 1_555
C3D H5D 1_555 1_555
C3B N3B 1_555 1_555
C3E H5E 1_555 1_555
H5A C3A 1_555 1_555
H5B C3B 1_555 1_555
C4C N1C 1_555 1_555
C4A N1A 1_555 1_555
C4D N1D 1_555 1_555
C4B N1B 1_555 1_555
C4E N1E 1_555 1_555
H6C C4C 1_555 1_555
H6A C4A 1_555 1_555
H6D C4D 1_555 1_555
H6B C4B 1_555 1_555
H6E C4E 1_555 1_555
F2A B1 1_555 1_555
F2B B1 1_555 1_555
C3 C4 1_555 1_555
C1C C2C 1_555 1_555
C2A C2D 1_555 1_555
C2B C2E 1_555 1_555
C3C C4C 1_555 1_555
C3A C4A 1_555 1_555
C3D C4D 1_555 1_555
C3B C4B 1_555 1_555
C3E C4E 1_555 1_555

#END
