
#######################################################################
#
#                 Cambridge Crystallographic Data Centre
#                                CCDC 
#
#######################################################################
#
# If this CIF has been generated from an entry in the Cambridge 
# Structural Database, then it will include bibliographic, chemical, 
# crystal, experimental, refinement or atomic coordinate data resulting 
# from the CCDC's data processing and validation procedures.
#
#######################################################################

data_UWEBAA02
_symmetry_cell_setting           trigonal
_symmetry_space_group_name_H-M   'P -3'
_symmetry_Int_Tables_number      147
_space_group_name_Hall           '-P 3'
loop_
_symmetry_equiv_pos_site_id
_symmetry_equiv_pos_as_xyz
1 x,y,z
2 -y,x-y,z
3 -x+y,-x,z
4 -x,-y,-z
5 y,-x+y,-z
6 x-y,x,-z
_cell_length_a                   11.5868(6)
_cell_length_b                   11.5868(6)
_cell_length_c                   7.5429(5)
_cell_angle_alpha                90
_cell_angle_beta                 90
_cell_angle_gamma                120
_cell_volume                     876.993
loop_
_atom_site_label
_atom_site_type_symbol
_atom_site_fract_x
_atom_site_fract_y
_atom_site_fract_z
Zn1 Zn 0.0000 1.0000 0.5000
N1 N 0.0604(4) 1.3594(4) 0.2864(6)
N2 N 0.0946(4) 1.2840(4) 0.3825(6)
N3 N 0.0133(4) 1.1592(4) 0.3341(6)
C1 C -0.0438(5) 1.2835(5) 0.1777(7)
H1 H -0.0872 1.3125 0.0972
C2 C 0.1240(5) 1.5029(5) 0.3230(7)
H2 H 0.1557 1.5531 0.2104
H3 H 0.2022 1.5301 0.4008
C3 C 0.0267(5) 1.5370(5) 0.4125(7)
H4 H -0.0490 1.5141 0.3314
H5 H 0.0722 1.6342 0.4348
C4 C -0.0720(5) 1.1569(5) 0.2099(7)
H6 H -0.1405 1.0791 0.1543
N1C N -0.0604(4) 1.6406(4) 0.7136(6)
N2C N -0.0946(4) 1.7160(4) 0.6175(6)
N3C N -0.0133(4) 1.8408(4) 0.6659(6)
C1C C 0.0438(5) 1.7165(5) 0.8223(7)
H1C H 0.0872 1.6875 0.9028
C2C C -0.1240(5) 1.4971(5) 0.6770(7)
H2C H -0.1557 1.4469 0.7896
H3C H -0.2022 1.4699 0.5992
C3C C -0.0267(5) 1.4630(5) 0.5875(7)
H4C H 0.0490 1.4859 0.6686
H5C H -0.0722 1.3658 0.5652
C4C C 0.0720(5) 1.8431(5) 0.7901(7)
H6C H 0.1405 1.9209 0.8457
N1A N -0.3594(4) 0.7010(6) 0.2864(6)
N2A N -0.2840(4) 0.8106(6) 0.3825(6)
N3A N -0.1592(4) 0.8541(6) 0.3341(6)
C1A C -0.2835(5) 0.6727(7) 0.1777(7)
H1A H -0.3125 0.6003 0.0972
C2A C -0.5029(5) 0.6211(7) 0.3230(7)
H2A H -0.5531 0.6026 0.2104
H3A H -0.5301 0.6721 0.4008
C3A C -0.5370(5) 0.4897(7) 0.4125(7)
H4A H -0.5141 0.4369 0.3314
H5A H -0.6342 0.4380 0.4348
C4A C -0.1569(5) 0.7711(7) 0.2099(7)
H6A H -0.0791 0.7804 0.1543
N1D N -0.6406(4) 0.2990(6) 0.7136(6)
N2D N -0.7160(4) 0.1894(6) 0.6175(6)
N3D N -0.8408(4) 0.1459(6) 0.6659(6)
C1D C -0.7165(5) 0.3273(7) 0.8223(7)
H1D H -0.6875 0.3997 0.9028
C2D C -0.4971(5) 0.3789(7) 0.6770(7)
H2D H -0.4469 0.3974 0.7896
H3D H -0.4699 0.3279 0.5992
C3D C -0.4630(5) 0.5103(7) 0.5875(7)
H4D H -0.4859 0.5631 0.6686
H5D H -0.3658 0.5620 0.5652
C4D C -0.8431(5) 0.2289(7) 0.7901(7)
H6D H -0.9209 0.2196 0.8457
N1B N -0.7010(6) 0.9396(4) 0.2864(6)
N2B N -0.8106(6) 0.9054(4) 0.3825(6)
N3B N -0.8541(6) 0.9867(4) 0.3341(6)
C1B C -0.6727(7) 1.0438(5) 0.1777(7)
H1B H -0.6003 1.0872 0.0972
C2B C -0.6211(7) 0.8760(5) 0.3230(7)
H2B H -0.6026 0.8443 0.2104
H3B H -0.6721 0.7978 0.4008
C3B C -0.4897(7) 0.9733(5) 0.4125(7)
H4B H -0.4369 1.0490 0.3314
H5B H -0.4380 0.9278 0.4348
C4B C -0.7711(7) 1.0720(5) 0.2099(7)
H6B H -0.7804 1.1405 0.1543
N1E N -0.2990(6) 1.0604(4) 0.7136(6)
N2E N -0.1894(6) 1.0946(4) 0.6175(6)
N3E N -0.1459(6) 1.0133(4) 0.6659(6)
C1E C -0.3273(7) 0.9562(5) 0.8223(7)
H1E H -0.3997 0.9128 0.9028
C2E C -0.3789(7) 1.1240(5) 0.6770(7)
H2E H -0.3974 1.1557 0.7896
H3E H -0.3279 1.2022 0.5992
C3E C -0.5103(7) 1.0267(5) 0.5875(7)
H4E H -0.5631 0.9510 0.6686
H5E H -0.5620 1.0722 0.5652
C4E C -0.2289(7) 0.9280(5) 0.7901(7)
H6E H -0.2196 0.8595 0.8457
Zn1_2 Zn -1.0000 0.0000 0.5000
Zn1_3 Zn -1.0000 1.0000 0.5000
Zn1_4 Zn 0.0000 2.0000 0.5000
N3B_2 N 0.1459(6) 0.9867(4) 0.3341(6)
N3C_2 N -0.0133(4) 0.8408(4) 0.6659(6)
N3D_2 N 0.1592(4) 1.1459(6) 0.6659(6)
F1 F -0.3333 1.3333 0.3365(7)
F2 F -0.3467(3) 1.2133(3) 0.0880(4)
B1 B -0.3333 1.3333 0.1526(16)
F2A F -0.2133(3) 1.4400(4) 0.0880(4)
F2B F -0.4400(4) 1.3467(3) 0.0880(4)
loop_
_geom_bond_atom_site_label_1
_geom_bond_atom_site_label_2
_geom_bond_site_symmetry_1
_geom_bond_site_symmetry_2
Zn1 N3 1_555 1_555
N1 N2 1_555 1_555
N2 N3 1_555 1_555
N3 C4 1_555 1_555
C1 N1 1_555 1_555
H1 C1 1_555 1_555
C2 N1 1_555 1_555
H2 C2 1_555 1_555
H3 C2 1_555 1_555
C3 C2 1_555 1_555
H4 C3 1_555 1_555
H5 C3 1_555 1_555
C4 C1 1_555 1_555
H6 C4 1_555 1_555
F1 B1 1_555 1_555
F2 B1 1_555 1_555
B1 F2A 1_555 1_555
N1C N2C 1_555 1_555
N2C N3C 1_555 1_555
N3C C4C 1_555 1_555
C1C N1C 1_555 1_555
H1C C1C 1_555 1_555
C2C N1C 1_555 1_555
H2C C2C 1_555 1_555
H3C C2C 1_555 1_555
C3C C3 1_555 1_555
H4C C3C 1_555 1_555
H5C C3C 1_555 1_555
C4C C1C 1_555 1_555
H6C C4C 1_555 1_555
N1A N2A 1_555 1_555
N2A N3A 1_555 1_555
N3A Zn1 1_555 1_555
C1A N1A 1_555 1_555
H1A C1A 1_555 1_555
C2A N1A 1_555 1_555
H2A C2A 1_555 1_555
H3A C2A 1_555 1_555
C3A C2A 1_555 1_555
H4A C3A 1_555 1_555
H5A C3A 1_555 1_555
C4A N3A 1_555 1_555
H6A C4A 1_555 1_555
N1D N2D 1_555 1_555
N2D N3D 1_555 1_555
N3D C4D 1_555 1_555
C1D N1D 1_555 1_555
H1D C1D 1_555 1_555
C2D N1D 1_555 1_555
H2D C2D 1_555 1_555
H3D C2D 1_555 1_555
C3D C3A 1_555 1_555
H4D C3D 1_555 1_555
H5D C3D 1_555 1_555
C4D C1D 1_555 1_555
H6D C4D 1_555 1_555
N1B N2B 1_555 1_555
N2B N3B 1_555 1_555
N3B C4B 1_555 1_555
C1B N1B 1_555 1_555
H1B C1B 1_555 1_555
C2B N1B 1_555 1_555
H2B C2B 1_555 1_555
H3B C2B 1_555 1_555
C3B C2B 1_555 1_555
H4B C3B 1_555 1_555
H5B C3B 1_555 1_555
C4B C1B 1_555 1_555
H6B C4B 1_555 1_555
N1E N2E 1_555 1_555
N2E N3E 1_555 1_555
N3E Zn1 1_555 1_555
C1E N1E 1_555 1_555
H1E C1E 1_555 1_555
C2E N1E 1_555 1_555
H2E C2E 1_555 1_555
H3E C2E 1_555 1_555
C3E C3B 1_555 1_555
H4E C3E 1_555 1_555
H5E C3E 1_555 1_555
C4E N3E 1_555 1_555
H6E C4E 1_555 1_555
Zn1_2 N3D 1_555 1_555
Zn1_3 N3B 1_555 1_555
Zn1_4 N3C 1_555 1_555
N3B_2 Zn1 1_555 1_555
N3C_2 Zn1 1_555 1_555
N3D_2 Zn1 1_555 1_555
F2B B1 1_555 1_555
C2C C3C 1_555 1_555
C1A C4A 1_555 1_555
C2D C3D 1_555 1_555
C1E C4E 1_555 1_555
C2E C3E 1_555 1_555

#END
