
#######################################################################
#
#                 Cambridge Crystallographic Data Centre
#                                CCDC 
#
#######################################################################
#
# If this CIF has been generated from an entry in the Cambridge 
# Structural Database, then it will include bibliographic, chemical, 
# crystal, experimental, refinement or atomic coordinate data resulting 
# from the CCDC's data processing and validation procedures.
#
#######################################################################

data_UWIGUD
_symmetry_cell_setting           monoclinic
_symmetry_space_group_name_H-M   'C 2/c'
_symmetry_Int_Tables_number      15
_space_group_name_Hall           '-C 2yn'
loop_
_symmetry_equiv_pos_site_id
_symmetry_equiv_pos_as_xyz
1 x,y,z
2 -x,y,1/2-z
3 1/2+x,1/2+y,z
4 1/2-x,1/2+y,1/2-z
5 -x,-y,-z
6 x,-y,1/2+z
7 1/2-x,1/2-y,-z
8 1/2+x,1/2-y,1/2+z
_cell_length_a                   12.624(3)
_cell_length_b                   13.526(3)
_cell_length_c                   11.363(2)
_cell_angle_alpha                90
_cell_angle_beta                 99.81(3)
_cell_angle_gamma                90
_cell_volume                     1911.89
loop_
_atom_site_label
_atom_site_type_symbol
_atom_site_fract_x
_atom_site_fract_y
_atom_site_fract_z
Sr1 Sr 0.0000 0.08346(5) 0.2500
O1 O 0.1733(3) 0.0629(2) 0.1508(4)
O2 O 0.0627(3) 0.1065(3) 0.4774(4)
H1 H 0.0812 0.0546 0.5072
H2 H 0.0295 0.1359 0.5206
O3 O 0.3159(3) 0.1237(3) 0.0869(4)
O4 O 0.4131(4) 0.2812(3) 0.0899(4)
H3 H 0.3791 0.2294 0.0878
O5 O 0.4010(4) 0.4316(3) 0.1617(4)
N1 N 0.1389(3) 0.2373(3) 0.2672(4)
N2 N 0.2323(4) 0.3751(3) 0.2779(4)
H4 H 0.2527 0.4344 0.2971
C1 C 0.2198(4) 0.2275(4) 0.2008(5)
C2 C 0.2784(4) 0.3134(4) 0.2061(5)
C3 C 0.1493(4) 0.3274(4) 0.3140(5)
C4 C 0.2360(4) 0.1324(4) 0.1426(5)
C5 C 0.3706(5) 0.3456(4) 0.1498(5)
C6 C 0.0838(5) 0.3717(4) 0.3982(6)
H5 H 0.0186 0.3332 0.3953
H6 H 0.0631 0.4381 0.3715
C7 C 0.1413(6) 0.3763(6) 0.5253(6)
H7 H 0.1644 0.3111 0.5517
H8 H 0.0935 0.4018 0.5752
H9 H 0.2028 0.4188 0.5302
Sr1B Sr -0.5000 0.58346(5) 0.2500
Sr1B_2 Sr 0.5000 0.58346(5) 0.2500
O1A O -0.1733(3) 0.0629(2) 0.3492(4)
O2A O -0.0627(3) 0.1065(3) 0.0226(4)
H1A H -0.0812 0.0546 -0.0072
H2A H -0.0295 0.1359 -0.0206
O3A O -0.3159(3) 0.1237(3) 0.4131(4)
O4A O -0.4131(4) 0.2812(3) 0.4101(4)
H3A H -0.3791 0.2294 0.4122
O5A O -0.4010(4) 0.4316(3) 0.3383(4)
O5B O -0.0990(4) -0.0684(3) 0.1617(4)
O5C O 0.0990(4) -0.0684(3) 0.3383(4)
N1A N -0.1389(3) 0.2373(3) 0.2328(4)
N2A N -0.2323(4) 0.3751(3) 0.2221(4)
H4A H -0.2527 0.4344 0.2029
C1A C -0.2198(4) 0.2275(4) 0.2992(5)
C2A C -0.2784(4) 0.3134(4) 0.2939(5)
C3A C -0.1493(4) 0.3274(4) 0.1860(5)
C4A C -0.2360(4) 0.1324(4) 0.3574(5)
C5A C -0.3706(5) 0.3456(4) 0.3502(5)
C6A C -0.0838(5) 0.3717(4) 0.1018(6)
H5A H -0.0186 0.3332 0.1047
H6A H -0.0631 0.4381 0.1285
C7A C -0.1413(6) 0.3763(6) -0.0253(6)
H7A H -0.1644 0.3111 -0.0517
H8A H -0.0935 0.4018 -0.0752
H9A H -0.2028 0.4188 -0.0302
loop_
_geom_bond_atom_site_label_1
_geom_bond_atom_site_label_2
_geom_bond_site_symmetry_1
_geom_bond_site_symmetry_2
Sr1 O1 1_555 1_555
O1 C4 1_555 1_555
O2 Sr1 1_555 1_555
H1 O2 1_555 1_555
H2 O2 1_555 1_555
O3 C4 1_555 1_555
O4 H3 1_555 1_555
O5 C5 1_555 1_555
N1 Sr1 1_555 1_555
N2 H4 1_555 1_555
C1 N1 1_555 1_555
C2 N2 1_555 1_555
C3 N1 1_555 1_555
C4 C1 1_555 1_555
C5 O4 1_555 1_555
C6 C3 1_555 1_555
H5 C6 1_555 1_555
H6 C6 1_555 1_555
C7 C6 1_555 1_555
H7 C7 1_555 1_555
H8 C7 1_555 1_555
H9 C7 1_555 1_555
Sr1B O5A 1_555 1_555
Sr1B_2 O5 1_555 1_555
O1A Sr1 1_555 1_555
O2A Sr1 1_555 1_555
H1A O2A 1_555 1_555
H2A O2A 1_555 1_555
O3A C4A 1_555 1_555
O4A H3A 1_555 1_555
O5A C5A 1_555 1_555
O5B Sr1 1_555 1_555
O5C Sr1 1_555 1_555
N1A Sr1 1_555 1_555
N2A H4A 1_555 1_555
C1A N1A 1_555 1_555
C2A N2A 1_555 1_555
C3A N1A 1_555 1_555
C4A O1A 1_555 1_555
C5A O4A 1_555 1_555
C6A C3A 1_555 1_555
H5A C6A 1_555 1_555
H6A C6A 1_555 1_555
C7A C6A 1_555 1_555
H7A C7A 1_555 1_555
H8A C7A 1_555 1_555
H9A C7A 1_555 1_555
N2 C3 1_555 1_555
C1 C2 1_555 1_555
C2 C5 1_555 1_555
N2A C3A 1_555 1_555
C1A C2A 1_555 1_555
C1A C4A 1_555 1_555
C2A C5A 1_555 1_555

#END
