
#######################################################################
#
#                 Cambridge Crystallographic Data Centre
#                                CCDC 
#
#######################################################################
#
# If this CIF has been generated from an entry in the Cambridge 
# Structural Database, then it will include bibliographic, chemical, 
# crystal, experimental, refinement or atomic coordinate data resulting 
# from the CCDC's data processing and validation procedures.
#
#######################################################################

data_UWIHUE
_symmetry_cell_setting           monoclinic
_symmetry_space_group_name_H-M   'C 2/m'
_symmetry_Int_Tables_number      12
_space_group_name_Hall           '-C 2y'
loop_
_symmetry_equiv_pos_site_id
_symmetry_equiv_pos_as_xyz
1 x,y,z
2 -x,y,-z
3 1/2+x,1/2+y,z
4 1/2-x,1/2+y,-z
5 -x,-y,-z
6 x,-y,z
7 1/2-x,1/2-y,-z
8 1/2+x,1/2-y,z
_cell_length_a                   12.551(2)
_cell_length_b                   24.127(4)
_cell_length_c                   18.151(3)
_cell_angle_alpha                90
_cell_angle_beta                 104.169(3)
_cell_angle_gamma                90
_cell_volume                     5329.24
loop_
_atom_site_label
_atom_site_type_symbol
_atom_site_fract_x
_atom_site_fract_y
_atom_site_fract_z
Ag1 Ag -0.5000 -0.17991(6) 0.5000
Ag3 Ag -0.5000 -0.13110(16) 1.0000
Ag4 Ag -0.5000 -0.24425(16) 1.0000
O15 O -0.4873(17) -0.1346(7) 0.8854(8)
O16 O -0.4802(10) -0.2251(6) 0.8853(6)
N1 N -0.4907(10) -0.1796(6) 0.6215(7)
C1 C -0.4893(11) -0.1341(6) 0.6570(8)
H1 H -0.4915 -0.1005 0.6295
C2 C -0.4848(16) -0.1313(7) 0.7326(10)
H2 H -0.4871 -0.0965 0.7565
C3 C -0.4771(13) -0.1777(9) 0.7725(9)
C4 C -0.4796(12) -0.2270(8) 0.7334(10)
H3 H -0.4790 -0.2615 0.7586
C5 C -0.4828(10) -0.2250(6) 0.6575(8)
H4 H -0.4790 -0.2587 0.6311
C6 C -0.4809(15) -0.1803(9) 0.8590(11)
Ag1_2 Ag -0.5000 -0.17991(6) 1.5000
Ag1_3 Ag -0.5000 -0.17991(6) -0.5000
Ag3_2 Ag -0.5000 -0.13110(16) 0.0000
Ag4_2 Ag -0.5000 -0.24425(16) 0.0000
O15A O -0.5127(17) -0.1346(7) 0.1146(8)
O15A_2 O -0.5127(17) -0.1346(7) 1.1146(8)
O15_2 O -0.4873(17) -0.1346(7) -0.1146(8)
O16A O -0.5198(10) -0.2251(6) 0.1147(6)
O16A_2 O -0.5198(10) -0.2251(6) 1.1147(6)
O16_2 O -0.4802(10) -0.2251(6) -0.1147(6)
N1A N -0.5093(10) -0.1796(6) 0.3785(7)
N1A_2 N -0.5093(10) -0.1796(6) 1.3785(7)
N1_2 N -0.4907(10) -0.1796(6) -0.3785(7)
N1_3 N -0.4907(10) -0.1796(6) 1.6215(7)
C1A C -0.5107(11) -0.1341(6) 0.3430(8)
C1A_2 C -0.5107(11) -0.1341(6) 1.3430(8)
C1_2 C -0.4893(11) -0.1341(6) -0.3430(8)
H1A H -0.5085 -0.1005 0.3705
H1A_2 H -0.5085 -0.1005 1.3705
H1_2 H -0.4915 -0.1005 -0.3705
C2A C -0.5152(16) -0.1313(7) 0.2674(10)
C2A_2 C -0.5152(16) -0.1313(7) 1.2674(10)
C2_2 C -0.4848(16) -0.1313(7) -0.2674(10)
H2A H -0.5129 -0.0965 0.2435
H2A_2 H -0.5129 -0.0965 1.2435
H2_2 H -0.4871 -0.0965 -0.2435
C3A C -0.5229(13) -0.1777(9) 0.2275(9)
C3A_2 C -0.5229(13) -0.1777(9) 1.2275(9)
C3_2 C -0.4771(13) -0.1777(9) -0.2275(9)
C4A C -0.5204(12) -0.2270(8) 0.2666(10)
C4A_2 C -0.5204(12) -0.2270(8) 1.2666(10)
C4_2 C -0.4796(12) -0.2270(8) -0.2666(10)
H3A H -0.5210 -0.2615 0.2414
H3A_2 H -0.5210 -0.2615 1.2414
H3_2 H -0.4790 -0.2615 -0.2414
C5A C -0.5172(10) -0.2250(6) 0.3425(8)
C5A_2 C -0.5172(10) -0.2250(6) 1.3425(8)
C5_2 C -0.4828(10) -0.2250(6) -0.3425(8)
H4A H -0.5210 -0.2587 0.3689
H4A_2 H -0.5210 -0.2587 1.3689
H4_2 H -0.4790 -0.2587 -0.3689
C6A C -0.5191(15) -0.1803(9) 0.1410(11)
C6A_2 C -0.5191(15) -0.1803(9) 1.1410(11)
C6_2 C -0.4809(15) -0.1803(9) -0.1410(11)
Ag2 Ag -0.2500 0.2500 0.5000
Ag5 Ag -0.26306(18) 0.30678(8) -0.00089(9)
O17 O -0.2868(11) 0.2908(6) 0.1112(6)
O18 O -0.2533(11) 0.2018(6) 0.1182(7)
N2 N -0.2619(11) 0.2477(6) 0.3808(7)
C7 C -0.2835(12) 0.2940(8) 0.3391(9)
H5 H -0.2961 0.3273 0.3635
C8 C -0.2884(13) 0.2956(8) 0.2624(9)
H6 H -0.3023 0.3291 0.2343
C9 C -0.2722(13) 0.2459(8) 0.2280(10)
C10 C -0.2512(13) 0.1964(7) 0.2678(9)
H7 H -0.2371 0.1625 0.2453
C11 C -0.2529(12) 0.2013(7) 0.3458(8)
H8 H -0.2469 0.1681 0.3746
C12 C -0.2713(12) 0.2439(7) 0.1449(8)
Ag2_2 Ag -0.2500 0.2500 -0.5000
Ag2_3 Ag -0.2500 0.2500 1.5000
Ag5F Ag -0.23694(18) 0.19322(8) 1.00089(9)
Ag5F_2 Ag -0.23694(18) 0.19322(8) 0.00089(9)
Ag5_2 Ag -0.26306(18) 0.30678(8) 0.99911(9)
O17F O -0.2132(11) 0.2092(6) 0.8888(6)
O17F_2 O -0.2132(11) 0.2092(6) -0.1112(6)
O17_2 O -0.2868(11) 0.2908(6) 1.1112(6)
O18F O -0.2467(11) 0.2982(6) 0.8818(7)
O18F_2 O -0.2467(11) 0.2982(6) -0.1182(7)
O18_2 O -0.2533(11) 0.2018(6) 1.1182(7)
N2F N -0.2381(11) 0.2523(6) 0.6192(7)
N2F_2 N -0.2381(11) 0.2523(6) -0.3808(7)
N2_2 N -0.2619(11) 0.2477(6) 1.3808(7)
N2_3 N -0.2619(11) 0.2477(6) -0.6192(7)
C7F C -0.2165(12) 0.2060(8) 0.6609(9)
C7F_2 C -0.2165(12) 0.2060(8) -0.3391(9)
C7_2 C -0.2835(12) 0.2940(8) 1.3391(9)
H5F H -0.2039 0.1727 0.6365
H5F_2 H -0.2039 0.1727 -0.3635
H5_2 H -0.2961 0.3273 1.3635
C8F C -0.2116(13) 0.2044(8) 0.7376(9)
C8F_2 C -0.2116(13) 0.2044(8) -0.2624(9)
C8_2 C -0.2884(13) 0.2956(8) 1.2624(9)
H6F H -0.1977 0.1709 0.7657
H6F_2 H -0.1977 0.1709 -0.2343
H6_2 H -0.3023 0.3291 1.2343
C9F C -0.2278(13) 0.2541(8) 0.7720(10)
C9F_2 C -0.2278(13) 0.2541(8) -0.2280(10)
C9_2 C -0.2722(13) 0.2459(8) 1.2280(10)
C10F C -0.2488(13) 0.3036(7) 0.7322(9)
C10F_2 C -0.2488(13) 0.3036(7) -0.2678(9)
C10_2 C -0.2512(13) 0.1964(7) 1.2678(9)
H7F H -0.2629 0.3375 0.7547
H7F_2 H -0.2629 0.3375 -0.2453
H7_2 H -0.2371 0.1625 1.2453
C11F C -0.2471(12) 0.2987(7) 0.6542(8)
C11F_2 C -0.2471(12) 0.2987(7) -0.3458(8)
C11_2 C -0.2529(12) 0.2013(7) 1.3458(8)
H8F H -0.2531 0.3319 0.6254
H8F_2 H -0.2531 0.3319 -0.3746
H8_2 H -0.2469 0.1681 1.3746
C12F C -0.2287(12) 0.2561(7) 0.8551(8)
C12F_2 C -0.2287(12) 0.2561(7) -0.1449(8)
C12_2 C -0.2713(12) 0.2439(7) 1.1449(8)
O19 O -0.245(2) 0.4113(11) -0.037(3)
O20 O -0.5000 0.543(4) 1.0000
W1 W -0.23332(5) -0.07196(3) 0.51970(4)
W2 W 0.00568(6) -0.07239(3) 0.66912(4)
W3 W -0.23823(7) 0.0000 0.35095(5)
W4 W 0.0000 -0.14335(4) 0.5000
Si1 Si 0.0000 0.0000 0.5000
O1 O -0.131(2) 0.0000 0.4722(16)
O2 O -0.0499(16) -0.0547(9) 0.5400(12)
O3 O -0.052(2) 0.0000 0.4141(15)
O4 O -0.1488(17) -0.1284(9) 0.4931(12)
O5 O 0.0274(16) -0.1316(9) 0.6053(11)
O6 O -0.2730(16) -0.0529(5) 0.4168(8)
O7 O -0.1374(17) -0.0749(9) 0.6170(12)
O8 O -0.355(2) 0.0000 0.2825(14)
O9 O -0.1555(13) 0.0537(7) 0.3175(9)
O10 O -0.0175(15) 0.0000 0.6979(11)
O11 O -0.278(3) 0.0000 0.5412(18)
O12 O -0.3445(11) -0.1070(6) 0.5295(7)
O13 O 0.0080(11) -0.1103(6) 0.7466(10)
O14 O 0.0000 -0.2129(8) 0.5000
W1A W 0.23332(5) -0.07196(3) 0.48030(4)
W1D W 0.23332(5) 0.07196(3) 0.48030(4)
W1E W -0.23332(5) 0.07196(3) 0.51970(4)
W2D W -0.00568(6) 0.07239(3) 0.33088(4)
W2E W 0.00568(6) 0.07239(3) 0.66912(4)
W2A W -0.00568(6) -0.07239(3) 0.33088(4)
W3A W 0.23823(7) 0.0000 0.64905(5)
W4D W 0.0000 0.14335(4) 0.5000
O1A O 0.131(2) 0.0000 0.5278(16)
O2D O 0.0499(16) 0.0547(9) 0.4600(12)
O2E O -0.0499(16) 0.0547(9) 0.5400(12)
O2A O 0.0499(16) -0.0547(9) 0.4600(12)
O3A O 0.052(2) 0.0000 0.5859(15)
O4A O 0.1488(17) -0.1284(9) 0.5069(12)
O4E O -0.1488(17) 0.1284(9) 0.4931(12)
O4D O 0.1488(17) 0.1284(9) 0.5069(12)
O5A O -0.0274(16) -0.1316(9) 0.3947(11)
O5E O 0.0274(16) 0.1316(9) 0.6053(11)
O5D O -0.0274(16) 0.1316(9) 0.3947(11)
O6E O -0.2730(16) 0.0529(5) 0.4168(8)
O6A O 0.2730(16) -0.0529(5) 0.5832(8)
O6D O 0.2730(16) 0.0529(5) 0.5832(8)
O7A O 0.1374(17) -0.0749(9) 0.3830(12)
O7D O 0.1374(17) 0.0749(9) 0.3830(12)
O7E O -0.1374(17) 0.0749(9) 0.6170(12)
O8A O 0.355(2) 0.0000 0.7175(14)
O9E O -0.1555(13) -0.0537(7) 0.3175(9)
O9D O 0.1555(13) -0.0537(7) 0.6825(9)
O9A O 0.1555(13) 0.0537(7) 0.6825(9)
O10A O 0.0175(15) 0.0000 0.3021(11)
O11A O 0.278(3) 0.0000 0.4588(18)
O12A O 0.3445(11) -0.1070(6) 0.4705(7)
O12D O 0.3445(11) 0.1070(6) 0.4705(7)
O12E O -0.3445(11) 0.1070(6) 0.5295(7)
O13D O -0.0080(11) 0.1103(6) 0.2534(10)
O13E O 0.0080(11) 0.1103(6) 0.7466(10)
O13A O -0.0080(11) -0.1103(6) 0.2534(10)
O14D O 0.0000 0.2129(8) 0.5000
O21? O -0.501(3) 0.0215(18) 0.868(2)
loop_
_geom_bond_atom_site_label_1
_geom_bond_atom_site_label_2
_geom_bond_site_symmetry_1
_geom_bond_site_symmetry_2
W1 O1 1_555 1_555
W2 O2 1_555 1_555
W3 O1 1_555 1_555
W4 O2 1_555 1_555
Ag1 N1 1_555 1_555
Ag2 N2 1_555 1_555
Ag3 O15 1_555 1_555
Ag4 O16 1_555 1_555
Ag5 O17 1_555 1_555
Si1 O1 1_555 1_555
O1 O3 1_555 1_555
O2 W1 1_555 1_555
O3 W3 1_555 1_555
O4 W1 1_555 1_555
O5 W2 1_555 1_555
O6 W1 1_555 1_555
O7 W1 1_555 1_555
O8 W3 1_555 1_555
O9 W3 1_555 1_555
O10 W2 1_555 1_555
O11 W1 1_555 1_555
O12 W1 1_555 1_555
O13 W2 1_555 1_555
O14 W4 1_555 1_555
O15 C6 1_555 1_555
O16 C6 1_555 1_555
O17 C12 1_555 1_555
O18 C12 1_555 1_555
N1 C1 1_555 1_555
N2 C7 1_555 1_555
C1 H1 1_555 1_555
C2 C1 1_555 1_555
H2 C2 1_555 1_555
C3 C2 1_555 1_555
C4 C3 1_555 1_555
H3 C4 1_555 1_555
C5 N1 1_555 1_555
H4 C5 1_555 1_555
C6 C3 1_555 1_555
C7 H5 1_555 1_555
C8 C7 1_555 1_555
H6 C8 1_555 1_555
C9 C8 1_555 1_555
C10 C9 1_555 1_555
H7 C10 1_555 1_555
C11 N2 1_555 1_555
H8 C11 1_555 1_555
C12 C9 1_555 1_555
W1A O1A 1_555 1_555
W1D O1A 1_555 1_555
W1E O1 1_555 1_555
W2D O9 1_555 1_555
W2E O10 1_555 1_555
W2A O2A 1_555 1_555
W3A O1A 1_555 1_555
W4D O2D 1_555 1_555
Ag1_2 N1A_2 1_555 1_555
Ag1_3 N1_2 1_555 1_555
Ag2_2 N2F_2 1_555 1_555
Ag2_3 N2_2 1_555 1_555
Ag3_2 O15A 1_555 1_555
Ag4_2 O16A 1_555 1_555
Ag5F O17F 1_555 1_555
Ag5F_2 O18 1_555 1_555
Ag5_2 O17_2 1_555 1_555
O1A Si1 1_555 1_555
O2D Si1 1_555 1_555
O2E Si1 1_555 1_555
O2A W4 1_555 1_555
O3A Si1 1_555 1_555
O4A W4 1_555 1_555
O4E W1E 1_555 1_555
O4D W1D 1_555 1_555
O5A W4 1_555 1_555
O5E W2E 1_555 1_555
O5D W2D 1_555 1_555
O6E W3 1_555 1_555
O6A W1A 1_555 1_555
O6D W1D 1_555 1_555
O7A W1A 1_555 1_555
O7D W1D 1_555 1_555
O7E W1E 1_555 1_555
O8A W3A 1_555 1_555
O9E W3 1_555 1_555
O9D W2 1_555 1_555
O9A W2E 1_555 1_555
O10A W2D 1_555 1_555
O11A W1A 1_555 1_555
O12A W1A 1_555 1_555
O12D W1D 1_555 1_555
O12E W1E 1_555 1_555
O13D W2D 1_555 1_555
O13E W2E 1_555 1_555
O13A W2A 1_555 1_555
O14D W4D 1_555 1_555
O15A C6A 1_555 1_555
O15A_2 Ag3 1_555 1_555
O15_2 Ag3_2 1_555 1_555
O16A C6A 1_555 1_555
O16A_2 Ag4 1_555 1_555
O16_2 Ag4_2 1_555 1_555
O17F C12F 1_555 1_555
O17F_2 Ag5F_2 1_555 1_555
O17_2 C12_2 1_555 1_555
O18F Ag5_2 1_555 1_555
O18F_2 Ag5 1_555 1_555
O18_2 Ag5F 1_555 1_555
N1A Ag1 1_555 1_555
N1A_2 C1A_2 1_555 1_555
N1_2 C1_2 1_555 1_555
N1_3 Ag1_2 1_555 1_555
N2F Ag2 1_555 1_555
N2F_2 C7F_2 1_555 1_555
N2_2 C7_2 1_555 1_555
N2_3 Ag2_2 1_555 1_555
C1A N1A 1_555 1_555
C1A_2 H1A_2 1_555 1_555
C1_2 H1_2 1_555 1_555
H1A C1A 1_555 1_555
C2A C1A 1_555 1_555
C2A_2 C1A_2 1_555 1_555
C2_2 C1_2 1_555 1_555
H2A C2A 1_555 1_555
H2A_2 C2A_2 1_555 1_555
H2_2 C2_2 1_555 1_555
C3A C2A 1_555 1_555
C3A_2 C2A_2 1_555 1_555
C3_2 C2_2 1_555 1_555
C4A C3A 1_555 1_555
C4A_2 C3A_2 1_555 1_555
C4_2 C3_2 1_555 1_555
H3A C4A 1_555 1_555
H3A_2 C4A_2 1_555 1_555
H3_2 C4_2 1_555 1_555
C5A N1A 1_555 1_555
C5A_2 N1A_2 1_555 1_555
C5_2 N1_2 1_555 1_555
H4A C5A 1_555 1_555
H4A_2 C5A_2 1_555 1_555
H4_2 C5_2 1_555 1_555
C6A C3A 1_555 1_555
C6A_2 O15A_2 1_555 1_555
C6_2 O15_2 1_555 1_555
C7F N2F 1_555 1_555
C7F_2 H5F_2 1_555 1_555
C7_2 H5_2 1_555 1_555
H5F C7F 1_555 1_555
C8F C7F 1_555 1_555
C8F_2 C7F_2 1_555 1_555
C8_2 C7_2 1_555 1_555
H6F C8F 1_555 1_555
H6F_2 C8F_2 1_555 1_555
H6_2 C8_2 1_555 1_555
C9F C8F 1_555 1_555
C9F_2 C8F_2 1_555 1_555
C9_2 C8_2 1_555 1_555
C10F C9F 1_555 1_555
C10F_2 C9F_2 1_555 1_555
C10_2 C9_2 1_555 1_555
H7F C10F 1_555 1_555
H7F_2 C10F_2 1_555 1_555
H7_2 C10_2 1_555 1_555
C11F N2F 1_555 1_555
C11F_2 N2F_2 1_555 1_555
C11_2 N2_2 1_555 1_555
H8F C11F 1_555 1_555
H8F_2 C11F_2 1_555 1_555
H8_2 C11_2 1_555 1_555
C12F O18F 1_555 1_555
C12F_2 O17F_2 1_555 1_555
C12_2 O18_2 1_555 1_555
W2 O7 1_555 1_555
W3 O6 1_555 1_555
W4 O4 1_555 1_555
W4 O5 1_555 1_555
Si1 O2 1_555 1_555
Si1 O3 1_555 1_555
Si1 O2A 1_555 1_555
O11 W1E 1_555 1_555
C4 C5 1_555 1_555
C10 C11 1_555 1_555
W1A O2A 1_555 1_555
W1A O4A 1_555 1_555
W1D O2D 1_555 1_555
W1D O11A 1_555 1_555
W1E O2E 1_555 1_555
W1E O6E 1_555 1_555
W2D O2D 1_555 1_555
W2D O7D 1_555 1_555
W2E O2E 1_555 1_555
W2E O7E 1_555 1_555
W2A O5A 1_555 1_555
W2A O7A 1_555 1_555
W2A O9E 1_555 1_555
W2A O10A 1_555 1_555
W3A O3A 1_555 1_555
W3A O6A 1_555 1_555
W3A O6D 1_555 1_555
W3A O9D 1_555 1_555
W3A O9A 1_555 1_555
W4D O2E 1_555 1_555
W4D O4E 1_555 1_555
W4D O4D 1_555 1_555
W4D O5E 1_555 1_555
W4D O5D 1_555 1_555
O1A O3A 1_555 1_555
O16A_2 C6A_2 1_555 1_555
O16_2 C6_2 1_555 1_555
O18F_2 C12F_2 1_555 1_555
C3A_2 C6A_2 1_555 1_555
C3_2 C6_2 1_555 1_555
C4A C5A 1_555 1_555
C4A_2 C5A_2 1_555 1_555
C4_2 C5_2 1_555 1_555
C9F C12F 1_555 1_555
C9F_2 C12F_2 1_555 1_555
C9_2 C12_2 1_555 1_555
C10F C11F 1_555 1_555
C10F_2 C11F_2 1_555 1_555
C10_2 C11_2 1_555 1_555

#END
