
#######################################################################
#
#                 Cambridge Crystallographic Data Centre
#                                CCDC 
#
#######################################################################
#
# If this CIF has been generated from an entry in the Cambridge 
# Structural Database, then it will include bibliographic, chemical, 
# crystal, experimental, refinement or atomic coordinate data resulting 
# from the CCDC's data processing and validation procedures.
#
#######################################################################

data_UWIKOB
_symmetry_cell_setting           orthorhombic
_symmetry_space_group_name_H-M   'F d d 2'
_symmetry_Int_Tables_number      43
_space_group_name_Hall           'F 2 -2d'
loop_
_symmetry_equiv_pos_site_id
_symmetry_equiv_pos_as_xyz
1 x,y,z
2 -x,-y,z
3 1/4+x,1/4-y,1/4+z
4 1/4-x,1/4+y,1/4+z
5 x,1/2+y,1/2+z
6 -x,1/2-y,1/2+z
7 1/4+x,3/4-y,3/4+z
8 1/4-x,3/4+y,3/4+z
9 1/2+x,y,1/2+z
10 1/2-x,-y,1/2+z
11 3/4+x,1/4-y,3/4+z
12 3/4-x,1/4+y,3/4+z
13 1/2+x,1/2+y,z
14 1/2-x,1/2-y,z
15 3/4+x,3/4-y,1/4+z
16 3/4-x,3/4+y,1/4+z
_cell_length_a                   20.60400(10)
_cell_length_b                   28.0885(6)
_cell_length_c                   9.69200(10)
_cell_angle_alpha                90
_cell_angle_beta                 90
_cell_angle_gamma                90
_cell_volume                     5609.1
loop_
_atom_site_label
_atom_site_type_symbol
_atom_site_fract_x
_atom_site_fract_y
_atom_site_fract_z
Ag1 Ag 1.025972(12) 0.052982(8) 0.172630(16)
N1 N 0.90581(12) 0.05120(7) 0.5229(2)
N2 N 0.92870(12) 0.03409(8) 0.4035(3)
N3 N 0.97343(12) 0.06389(9) 0.3587(3)
N4 N 0.93190(12) -0.03004(8) 0.9797(3)
C1 C 0.97862(12) 0.10136(9) 0.4496(3)
C2 C 1.01896(14) 0.14181(10) 0.4472(4)
H1 H 1.0483 0.1474 0.3761
C3 C 1.01216(16) 0.17235(10) 0.5562(4)
H2 H 1.0373 0.1999 0.5584
C4 C 0.96854(14) 0.16366(9) 0.6653(4)
H3 H 0.9668 0.1852 0.7381
C5 C 0.92865(13) 0.12473(9) 0.6683(3)
H4 H 0.8994 0.1194 0.7398
C6 C 0.93473(12) 0.09339(8) 0.5566(3)
C7 C 0.85610(14) 0.02497(10) 0.5989(3)
H5 H 0.8403 -0.0010 0.5423
H6 H 0.8198 0.0460 0.6181
C8 C 0.88213(12) 0.00527(9) 0.7332(3)
C9 C 0.86542(14) 0.02556(10) 0.8585(3)
H7 H 0.8371 0.0513 0.8617
C10 C 0.89129(14) 0.00706(10) 0.9786(3)
H8 H 0.8800 0.0210 1.0622
C11 C 0.94751(14) -0.04980(9) 0.8592(3)
H9 H 0.9756 -0.0757 0.8593
C12 C 0.92398(14) -0.03367(10) 0.7343(3)
H10 H 0.9359 -0.0485 0.6523
Ag1A Ag 0.974028(12) -0.052982(8) 1.172630(16)
N4A N 1.06810(12) 0.03004(8) -0.0203(3)
Cl1 Cl 0.93671(3) 0.16422(2) 0.06140(8)
O1 O 0.91816(19) 0.16798(12) 0.2024(3)
O2 O 0.99662(15) 0.13982(10) 0.0466(4)
O3 O 0.9441(2) 0.21034(10) 0.0011(5)
O4 O 0.88735(16) 0.14064(14) -0.0133(3)
loop_
_geom_bond_atom_site_label_1
_geom_bond_atom_site_label_2
_geom_bond_site_symmetry_1
_geom_bond_site_symmetry_2
Ag1 N3 1_555 1_555
N1 N2 1_555 1_555
N2 N3 1_555 1_555
N3 C1 1_555 1_555
N4 C10 1_555 1_555
C1 C2 1_555 1_555
C2 H1 1_555 1_555
C3 C2 1_555 1_555
H2 C3 1_555 1_555
C4 C3 1_555 1_555
H3 C4 1_555 1_555
C5 C4 1_555 1_555
H4 C5 1_555 1_555
C6 N1 1_555 1_555
C7 N1 1_555 1_555
H5 C7 1_555 1_555
H6 C7 1_555 1_555
C8 C7 1_555 1_555
C9 C8 1_555 1_555
H7 C9 1_555 1_555
C10 C9 1_555 1_555
H8 C10 1_555 1_555
C11 N4 1_555 1_555
H9 C11 1_555 1_555
C12 C8 1_555 1_555
H10 C12 1_555 1_555
Cl1 O1 1_555 1_555
O2 Cl1 1_555 1_555
O3 Cl1 1_555 1_555
O4 Cl1 1_555 1_555
Ag1A N4 1_555 1_555
N4A Ag1 1_555 1_555
C1 C6 1_555 1_555
C5 C6 1_555 1_555
C11 C12 1_555 1_555

#END
