
#######################################################################
#
#                 Cambridge Crystallographic Data Centre
#                                CCDC 
#
#######################################################################
#
# If this CIF has been generated from an entry in the Cambridge 
# Structural Database, then it will include bibliographic, chemical, 
# crystal, experimental, refinement or atomic coordinate data resulting 
# from the CCDC's data processing and validation procedures.
#
#######################################################################

data_UWILAO
_symmetry_cell_setting           monoclinic
_symmetry_space_group_name_H-M   'P 21/n'
_symmetry_Int_Tables_number      14
_space_group_name_Hall           '-P 2yn'
loop_
_symmetry_equiv_pos_site_id
_symmetry_equiv_pos_as_xyz
1 x,y,z
2 1/2-x,1/2+y,1/2-z
3 -x,-y,-z
4 1/2+x,1/2-y,1/2+z
_cell_length_a                   10.822(2)
_cell_length_b                   22.883(5)
_cell_length_c                   12.896(3)
_cell_angle_alpha                90
_cell_angle_beta                 105.11(3)
_cell_angle_gamma                90
_cell_volume                     3083.15
loop_
_atom_site_label
_atom_site_type_symbol
_atom_site_fract_x
_atom_site_fract_y
_atom_site_fract_z
Mn1 Mn 0.90101(7) 0.18881(3) 0.77004(6)
O1 O 0.8059(3) 0.18710(16) 0.6023(3)
N1 N 0.9932(4) 0.16389(17) 0.9447(3)
N2 N 1.0350(4) 0.26432(18) 0.7632(3)
N3 N 0.8141(4) 0.10253(18) 0.8012(3)
N4 N 1.0808(4) 0.14987(19) 0.7331(3)
O2 O 0.8535(4) 0.12077(18) 0.4921(4)
C1 C 1.0880(5) 0.3005(2) 0.4259(4)
H1 H 1.1358 0.3295 0.4038
C2 C 0.9108(5) 0.2737(2) 0.4971(4)
H2 H 0.8418 0.2850 0.5230
C3 C 0.8516(5) 0.08199(19) 0.9036(4)
C4 C 1.1211(4) 0.2416(2) 0.4224(3)
C5 C 0.9499(4) 0.1137(2) 0.9793(4)
C6 C 0.8450(7) 0.0136(2) 1.0464(5)
H3 H 0.8085 -0.0188 1.0702
O3 O 0.8473(6) 0.3882(2) 0.4848(5)
C7 C 1.1711(5) 0.1894(2) 0.7226(4)
C8 C 1.0849(5) 0.1935(2) 1.0149(4)
H4 H 1.1142 0.2283 0.9928
C9 C 0.9963(5) 0.0924(2) 1.0847(4)
C10 C 1.2322(5) 0.2922(3) 0.7185(4)
N5 N 0.9478(5) 0.3763(2) 0.4654(4)
C11 C 0.7971(5) 0.0317(2) 0.9368(4)
C12 C 1.0949(5) 0.1241(3) 1.1543(4)
H5 H 1.1306 0.1108 1.2238
C13 C 1.1451(5) 0.2503(2) 0.7361(4)
C14 C 1.2841(5) 0.1734(3) 0.6954(4)
C15 C 1.2125(6) 0.0743(3) 0.6911(5)
H6 H 1.2239 0.0346 0.6809
C16 C 0.9415(4) 0.2152(2) 0.4929(3)
C17 C 1.0460(5) 0.2000(2) 0.4551(3)
H7 H 1.0663 0.1607 0.4516
C18 C 1.1382(5) 0.1744(3) 1.1195(4)
H8 H 1.2029 0.1959 1.1653
C19 C 1.3706(5) 0.2181(4) 0.6818(5)
H9 H 1.4464 0.2078 0.6654
O4 O 1.0187(6) 0.4132(2) 0.4456(6)
C20 C 0.9833(5) 0.3147(2) 0.4627(4)
C21 C 1.3024(7) 0.1130(3) 0.6813(5)
H10 H 1.3768 0.1000 0.6652
C22 C 0.7007(6) 0.0033(2) 0.8604(5)
H11 H 0.6603 -0.0294 0.8794
C23 C 1.3449(6) 0.2735(3) 0.6919(5)
H12 H 1.4027 0.3015 0.6813
C24 C 1.0087(6) 0.3202(2) 0.7730(5)
H13 H 0.9345 0.3300 0.7927
C25 C 0.6666(6) 0.0238(3) 0.7587(5)
H14 H 0.6054 0.0040 0.7064
C26 C 0.9396(6) 0.0413(2) 1.1155(5)
H15 H 0.9692 0.0271 1.1851
C27 C 0.7221(6) 0.0738(3) 0.7319(4)
H16 H 0.6938 0.0880 0.6621
C28 C 1.0902(7) 0.3661(3) 0.7544(5)
H17 H 1.0680 0.4050 0.7594
C29 C 1.2009(6) 0.3515(3) 0.7293(5)
H18 H 1.2563 0.3808 0.7192
C30 C 1.1031(5) 0.0939(3) 0.7163(4)
H19 H 1.0417 0.0665 0.7219
C31 C 0.8613(5) 0.1703(3) 0.5317(4)
O5 O 1.2832(4) 0.1765(2) 0.4039(4)
C32 C 1.2331(5) 0.2248(2) 0.3805(4)
O6 O 1.2666(4) 0.26230(17) 0.3216(3)
Mn1C Mn 1.40101(7) 0.31119(3) 0.27004(6)
O6C O 0.7666(4) 0.23770(17) 0.8216(3)
O7 O 0.9870(8) 0.0392(3) 0.4023(5)
H20 H 0.9511 0.0081 0.4160
H21 H 0.9297 0.0653 0.4247
O8 O 1.2308(9) 0.0584(3) 0.4115(6)
H22 H 1.1538 0.0419 0.4138
H23 H 1.2342 0.0952 0.3955
O9 O 1.3492(6) -0.0323(2) 0.5455(5)
H24 H 1.3112 -0.0164 0.4833
H25 H 1.3284 -0.0651 0.5767
O10 O 0.5377(9) 0.1347(4) 0.5287(8)
H26 H 0.4851 0.1231 0.4583
H27 H 0.6067 0.1624 0.5387
loop_
_geom_bond_atom_site_label_1
_geom_bond_atom_site_label_2
_geom_bond_site_symmetry_1
_geom_bond_site_symmetry_2
Mn1 O1 1_555 1_555
O1 C31 1_555 1_555
N1 Mn1 1_555 1_555
N2 Mn1 1_555 1_555
N3 Mn1 1_555 1_555
N4 Mn1 1_555 1_555
O2 C31 1_555 1_555
C1 H1 1_555 1_555
C2 H2 1_555 1_555
C3 N3 1_555 1_555
C4 C1 1_555 1_555
C5 N1 1_555 1_555
C6 H3 1_555 1_555
O3 N5 1_555 1_555
C7 N4 1_555 1_555
C8 N1 1_555 1_555
H4 C8 1_555 1_555
C9 C5 1_555 1_555
C10 C13 1_555 1_555
N5 O4 1_555 1_555
C11 C3 1_555 1_555
C12 C9 1_555 1_555
H5 C12 1_555 1_555
C13 N2 1_555 1_555
C14 C7 1_555 1_555
C15 H6 1_555 1_555
C16 C2 1_555 1_555
C17 C4 1_555 1_555
H7 C17 1_555 1_555
C18 C8 1_555 1_555
H8 C18 1_555 1_555
C19 C14 1_555 1_555
H9 C19 1_555 1_555
C20 C1 1_555 1_555
C21 C14 1_555 1_555
H10 C21 1_555 1_555
C22 C11 1_555 1_555
H11 C22 1_555 1_555
C23 C10 1_555 1_555
H12 C23 1_555 1_555
C24 N2 1_555 1_555
H13 C24 1_555 1_555
C25 C22 1_555 1_555
H14 C25 1_555 1_555
C26 C6 1_555 1_555
H15 C26 1_555 1_555
C27 N3 1_555 1_555
H16 C27 1_555 1_555
C28 C24 1_555 1_555
H17 C28 1_555 1_555
C29 C10 1_555 1_555
H18 C29 1_555 1_555
C30 N4 1_555 1_555
H19 C30 1_555 1_555
C31 C16 1_555 1_555
O5 C32 1_555 1_555
C32 C4 1_555 1_555
O6 C32 1_555 1_555
O7 H20 1_555 1_555
H21 O7 1_555 1_555
O8 H22 1_555 1_555
H23 O8 1_555 1_555
O9 H24 1_555 1_555
H25 O9 1_555 1_555
O10 H26 1_555 1_555
H27 O10 1_555 1_555
Mn1C O6 1_555 1_555
O6C Mn1 1_555 1_555
C2 C20 1_555 1_555
C3 C5 1_555 1_555
C6 C11 1_555 1_555
C7 C13 1_555 1_555
C9 C26 1_555 1_555
N5 C20 1_555 1_555
C12 C18 1_555 1_555
C15 C21 1_555 1_555
C15 C30 1_555 1_555
C16 C17 1_555 1_555
C19 C23 1_555 1_555
C25 C27 1_555 1_555
C28 C29 1_555 1_555

#END
