
#######################################################################
#
#                 Cambridge Crystallographic Data Centre
#                                CCDC 
#
#######################################################################
#
# If this CIF has been generated from an entry in the Cambridge 
# Structural Database, then it will include bibliographic, chemical, 
# crystal, experimental, refinement or atomic coordinate data resulting 
# from the CCDC's data processing and validation procedures.
#
#######################################################################

data_UWIMET
_symmetry_cell_setting           monoclinic
_symmetry_space_group_name_H-M   'C 2/c'
_symmetry_Int_Tables_number      15
_space_group_name_Hall           '-C 2yn'
loop_
_symmetry_equiv_pos_site_id
_symmetry_equiv_pos_as_xyz
1 x,y,z
2 -x,y,1/2-z
3 1/2+x,1/2+y,z
4 1/2-x,1/2+y,1/2-z
5 -x,-y,-z
6 x,-y,1/2+z
7 1/2-x,1/2-y,-z
8 1/2+x,1/2-y,1/2+z
_cell_length_a                   20.940(2)
_cell_length_b                   3.5204(4)
_cell_length_c                   19.477(2)
_cell_angle_alpha                90
_cell_angle_beta                 122.017(2)
_cell_angle_gamma                90
_cell_volume                     1217.39
loop_
_atom_site_label
_atom_site_type_symbol
_atom_site_fract_x
_atom_site_fract_y
_atom_site_fract_z
Ag1 Ag 0.15695(2) 0.61925(10) 0.15764(2)
N1 N 0.0942(3) 0.4036(9) 0.0217(3)
C1 C 0.0182(3) 0.4225(11) -0.0210(3)
N2 N -0.0259(2) 0.3066(11) -0.0974(2)
C2 C 0.0079(4) 0.1768(13) -0.1348(4)
H1 H -0.0223 0.0983 -0.1897
C3 C 0.0850(4) 0.1529(12) -0.0963(5)
H2 H 0.1085 0.0610 -0.1235
C4 C 0.1270(3) 0.2688(14) -0.0161(3)
H3 H 0.1803 0.2516 0.0125
N3 N 0.1919(4) 0.3657(9) 0.3256(4)
O1 O 0.2239(2) 0.2471(14) 0.3957(2)
O2 O 0.1227(3) 0.3752(9) 0.2813(3)
O3 O 0.2322(2) 0.4886(13) 0.2978(2)
Ag1D Ag -0.15695(2) 0.38075(10) -0.15764(2)
Ag1C Ag 0.34305(2) 0.11925(10) 0.34236(2)
Ag1C_2 Ag 0.34305(2) 1.11925(10) 0.34236(2)
N1D N -0.0942(3) 0.5964(9) -0.0217(3)
C1D C -0.0182(3) 0.5775(11) 0.0210(3)
N2D N 0.0259(2) 0.6934(11) 0.0974(2)
C2D C -0.0079(4) 0.8232(13) 0.1348(4)
H1D H 0.0223 0.9017 0.1897
C3D C -0.0850(4) 0.8471(12) 0.0963(5)
H2D H -0.1085 0.9390 0.1235
C4D C -0.1270(3) 0.7312(14) 0.0161(3)
H3D H -0.1803 0.7484 -0.0125
N3C N 0.3081(4) 0.8657(9) 0.1744(4)
O1C O 0.2761(2) 0.7471(14) 0.1043(2)
O2C O 0.3773(3) 0.8752(9) 0.2187(3)
O3C O 0.2678(2) 0.9886(13) 0.2022(2)
O3D O -0.2322(2) 0.5114(13) -0.2978(2)
O3G O -0.2678(2) 0.0114(13) -0.2022(2)
loop_
_geom_bond_atom_site_label_1
_geom_bond_atom_site_label_2
_geom_bond_site_symmetry_1
_geom_bond_site_symmetry_2
Ag1 N1 1_555 1_555
N1 C1 1_555 1_555
C1 N2 1_555 1_555
N2 C2 1_555 1_555
C2 H1 1_555 1_555
C3 C2 1_555 1_555
H2 C3 1_555 1_555
C4 N1 1_555 1_555
H3 C4 1_555 1_555
N3 O1 1_555 1_555
O2 N3 1_555 1_555
O3 Ag1 1_555 1_555
Ag1D N2 1_555 1_555
Ag1C O3 1_555 1_555
Ag1C_2 O3C 1_555 1_555
N1D Ag1D 1_555 1_555
C1D C1 1_555 1_555
N2D Ag1 1_555 1_555
C2D N2D 1_555 1_555
H1D C2D 1_555 1_555
C3D C2D 1_555 1_555
H2D C3D 1_555 1_555
C4D N1D 1_555 1_555
H3D C4D 1_555 1_555
N3C O1C 1_555 1_555
O2C N3C 1_555 1_555
O3C Ag1 1_555 1_555
O3D Ag1D 1_555 1_555
O3G Ag1D 1_555 1_555
C3 C4 1_555 1_555
N3 O3 1_555 1_555
N1D C1D 1_555 1_555
C1D N2D 1_555 1_555
C3D C4D 1_555 1_555
N3C O3C 1_555 1_555

#END
