
#######################################################################
#
#                 Cambridge Crystallographic Data Centre
#                                CCDC 
#
#######################################################################
#
# If this CIF has been generated from an entry in the Cambridge 
# Structural Database, then it will include bibliographic, chemical, 
# crystal, experimental, refinement or atomic coordinate data resulting 
# from the CCDC's data processing and validation procedures.
#
#######################################################################

data_UWISID
_symmetry_cell_setting           monoclinic
_symmetry_space_group_name_H-M   'C 2/m'
_symmetry_Int_Tables_number      12
_space_group_name_Hall           '-C 2y'
loop_
_symmetry_equiv_pos_site_id
_symmetry_equiv_pos_as_xyz
1 x,y,z
2 1/2+x,1/2+y,z
3 -x,y,-z
4 1/2-x,1/2+y,-z
5 -x,-y,-z
6 1/2-x,1/2-y,-z
7 x,-y,z
8 1/2+x,1/2-y,z
_cell_length_a                   16.4654(4)
_cell_length_b                   16.4773(5)
_cell_length_c                   7.2954(2)
_cell_angle_alpha                90
_cell_angle_beta                 107.554(2)
_cell_angle_gamma                90
_cell_volume                     1887.11
loop_
_atom_site_label
_atom_site_type_symbol
_atom_site_fract_x
_atom_site_fract_y
_atom_site_fract_z
Pb1 Pb 0.382389(5) 0.5000 0.354258(11)
N1 N 0.28952(13) 0.5000 0.6222(3)
N2 N 0.5000 0.66738(15) 0.0000
N3 N 0.30898(10) 0.35830(11) 0.2733(2)
N4 N 0.22092(13) 0.5000 0.1619(3)
N5 N 0.36000(15) 0.5000 0.9748(3)
N6 N 0.13272(18) 0.5000 0.4914(4)
N7 N 0.52425(11) 0.59740(12) 0.3111(2)
C1 C 0.32484(15) 0.5000 0.8103(3)
C2 C 0.20609(17) 0.5000 0.5598(4)
C3 C 0.51237(11) 0.62693(11) 0.1605(2)
C4 C 0.35064(14) 0.29069(13) 0.3475(3)
C5 C 0.31125(18) 0.21527(14) 0.3331(4)
C6 C 0.22459(19) 0.21119(16) 0.2368(5)
C7 C 0.18135(15) 0.28064(16) 0.1597(4)
C8 C 0.22530(12) 0.35375(13) 0.1779(3)
C9 C 0.18196(11) 0.42966(13) 0.0937(3)
C10 C 0.10416(13) 0.42803(18) -0.0517(3)
C11 C 0.06566(19) 0.500000(7) -0.1255(5)
H2 H 0.4088 0.2951 0.4147
H3 H 0.3423 0.1694 0.3869
H4 H 0.1956 0.1619 0.2247
H5 H 0.1231 0.2783 0.0961
H6 H 0.0786 0.3787 -0.0980
H7 H 0.0144 0.5000 -0.2243
Pb1_2 Pb 0.382389(5) 0.5000 1.354258(11)
Pb1B Pb 0.617611(5) 0.5000 0.645742(11)
Pb1B_2 Pb 0.617611(5) 0.5000 -0.354258(11)
Pb1_3 Pb 0.382389(5) 0.5000 -0.645742(11)
N3F N 0.30898(10) 0.64170(11) 0.2733(2)
N5_2 N 0.36000(15) 0.5000 -0.0252(3)
N7B N 0.47575(11) 0.59740(12) -0.3111(2)
N7B_2 N 0.47575(11) 0.59740(12) 0.6889(2)
N7D N 0.47575(11) 0.40260(12) 0.6889(2)
N7F N 0.52425(11) 0.40260(12) 0.3111(2)
C3B C 0.48763(11) 0.62693(11) -0.1605(2)
C4F C 0.35064(14) 0.70931(13) 0.3475(3)
C5F C 0.31125(18) 0.78473(14) 0.3331(4)
C6F C 0.22459(19) 0.78881(16) 0.2368(5)
C7F C 0.18135(15) 0.71936(16) 0.1597(4)
C8F C 0.22530(12) 0.64625(13) 0.1779(3)
C9F C 0.18196(11) 0.57034(13) 0.0937(3)
C10F C 0.10416(13) 0.57197(18) -0.0517(3)
H2F H 0.4088 0.7049 0.4147
H3F H 0.3423 0.8306 0.3869
H4F H 0.1956 0.8381 0.2247
H5F H 0.1231 0.7217 0.0961
H6F H 0.0786 0.6213 -0.0980
O1 O 0.000000(10) 0.3738(4) -0.500000(10)
H1 H 0.0447 0.4057 -0.5028
H1B H -0.0447 0.4057 -0.4972
loop_
_geom_bond_atom_site_label_1
_geom_bond_atom_site_label_2
_geom_bond_site_symmetry_1
_geom_bond_site_symmetry_2
Pb1 N1 1_555 1_555
N1 C1 1_555 1_555
N2 C3 1_555 1_555
N3 Pb1 1_555 1_555
N4 Pb1 1_555 1_555
N5 C1 1_555 1_555
N6 C2 1_555 1_555
N7 Pb1 1_555 1_555
C2 N1 1_555 1_555
C3 N7 1_555 1_555
C4 N3 1_555 1_555
C5 C4 1_555 1_555
C6 C5 1_555 1_555
C7 C6 1_555 1_555
C8 N3 1_555 1_555
C9 N4 1_555 1_555
C10 C9 1_555 1_555
C11 C10 1_555 1_555
O1 H1 1_555 1_555
H2 C4 1_555 1_555
H3 C5 1_555 1_555
H4 C6 1_555 1_555
H5 C7 1_555 1_555
H6 C10 1_555 1_555
H7 C11 1_555 1_555
Pb1_2 N5 1_555 1_555
Pb1B N7 1_555 1_555
Pb1B_2 N7B 1_555 1_555
Pb1_3 N7B 1_555 1_555
N3F Pb1 1_555 1_555
N5_2 Pb1 1_555 1_555
N7B C3B 1_555 1_555
N7B_2 Pb1 1_555 1_555
N7D Pb1 1_555 1_555
N7F Pb1 1_555 1_555
C3B N2 1_555 1_555
C4F N3F 1_555 1_555
C5F C4F 1_555 1_555
C6F C5F 1_555 1_555
C7F C6F 1_555 1_555
C8F N3F 1_555 1_555
C9F N4 1_555 1_555
C10F C11 1_555 1_555
H1B O1 1_555 1_555
H2F C4F 1_555 1_555
H3F C5F 1_555 1_555
H4F C6F 1_555 1_555
H5F C7F 1_555 1_555
H6F C10F 1_555 1_555
C7 C8 1_555 1_555
C8 C9 1_555 1_555
Pb1B N7B_2 1_555 1_555
Pb1B N7D 1_555 1_555
Pb1B N7F 1_555 1_555
C7F C8F 1_555 1_555
C8F C9F 1_555 1_555
C9F C10F 1_555 1_555

#END
