
#######################################################################
#
#                 Cambridge Crystallographic Data Centre
#                                CCDC 
#
#######################################################################
#
# If this CIF has been generated from an entry in the Cambridge 
# Structural Database, then it will include bibliographic, chemical, 
# crystal, experimental, refinement or atomic coordinate data resulting 
# from the CCDC's data processing and validation procedures.
#
#######################################################################

data_UWOBOY
_symmetry_cell_setting           monoclinic
_symmetry_space_group_name_H-M   'P 21/c'
_symmetry_Int_Tables_number      14
_space_group_name_Hall           '-P 2ybc'
loop_
_symmetry_equiv_pos_site_id
_symmetry_equiv_pos_as_xyz
1 x,y,z
2 -x,1/2+y,1/2-z
3 -x,-y,-z
4 x,1/2-y,1/2+z
_cell_length_a                   11.4534(7)
_cell_length_b                   16.2945(10)
_cell_length_c                   22.1655(13)
_cell_angle_alpha                90
_cell_angle_beta                 90.6770(10)
_cell_angle_gamma                90
_cell_volume                     4136.4
loop_
_atom_site_label
_atom_site_type_symbol
_atom_site_fract_x
_atom_site_fract_y
_atom_site_fract_z
B1 B -0.0485(14) -0.1927(6) 0.5367(4)
H1 H -0.0546 -0.1882 0.5815
Cu1 Cu -0.02093(8) -0.20672(4) 0.39662(3)
Re1 Re -0.00465(2) 0.039930(14) 0.246000(10)
C1 C -0.0295(5) -0.0636(4) 0.3025(3)
C2 C 0.0271(6) 0.1449(4) 0.1928(3)
C3 C 0.0627(7) -0.3700(4) 0.4562(3)
H2 H 0.0802 -0.3986 0.4201
C4 C 0.0772(9) -0.4025(5) 0.5132(4)
H3 H 0.1098 -0.4542 0.5240
C5 C 0.0320(10) -0.3408(5) 0.5521(4)
H4 H 0.0234 -0.3446 0.5946
C6 C -0.2720(13) -0.1713(6) 0.5318(5)
H5 H -0.2843 -0.1674 0.5740
C7 C -0.3628(14) -0.1649(6) 0.4856(6)
H6 H -0.4446 -0.1572 0.4894
C8 C -0.2936(9) -0.1733(5) 0.4325(4)
H7 H -0.3247 -0.1707 0.3927
C9 C 0.1315(10) -0.0635(5) 0.4447(4)
H8 H 0.1620 -0.0469 0.4070
C10 C 0.1612(11) -0.0259(5) 0.5000(4)
H9 H 0.2141 0.0178 0.5076
C11 C 0.0952(13) -0.0679(5) 0.5393(4)
H10 H 0.0945 -0.0572 0.5815
N1 N -0.0340(5) -0.1197(3) 0.3341(2)
N2 N 0.0359(6) 0.2032(3) 0.1633(2)
N3 N 0.0210(7) -0.2933(3) 0.4577(3)
N4 N -0.1838(7) -0.1850(4) 0.4448(3)
N5 N 0.0570(7) -0.1243(3) 0.4512(3)
N6 N 0.0041(8) -0.2770(3) 0.5176(3)
N7 N -0.1680(8) -0.1836(4) 0.5057(3)
N8 N 0.0286(9) -0.1280(4) 0.5118(3)
Cl1 Cl -0.16347(17) 0.00509(11) 0.18411(9)
Cl2 Cl 0.11269(18) -0.04043(10) 0.18428(8)
Cl3 Cl -0.12578(17) 0.12139(11) 0.30403(8)
Cl4 Cl 0.15724(15) 0.07135(10) 0.30689(7)
Cu1A Cu 0.02093(8) 0.29328(4) 0.10338(3)
N2A N -0.0359(6) -0.2968(3) 0.3367(2)
C12 C 0.4183(8) -0.3850(5) 0.3494(4)
C13 C 0.4952(9) -0.5224(6) 0.3464(4)
C14 C 0.4715(10) -0.4504(6) 0.2209(5)
C15 C 0.6367(8) -0.4071(5) 0.3696(4)
C16 C 0.4343(10) -0.2908(6) 0.3431(5)
C17 C 0.5602(9) -0.4223(6) 0.2675(4)
C18 C 0.6265(9) -0.4189(6) 0.4377(4)
C19 C 0.5161(10) -0.4360(7) 0.1581(5)
C20 C 0.7358(9) -0.3960(6) 0.4697(4)
C21 C 0.3107(14) -0.2551(10) 0.3470(6)
C22 C 0.7313(10) -0.4102(7) 0.5390(5)
C23 C 0.4336(11) -0.4656(7) 0.1100(5)
C24 C 0.5950(11) -0.5830(8) 0.3329(5)
C25 C 0.5484(19) -0.6721(13) 0.3479(8)
C26 C 0.654(3) -0.738(2) 0.3525(12)
C27 C 0.3239(18) -0.1589(13) 0.3345(8)
N9 N 0.5288(6) -0.4344(5) 0.3327(3)
C28 C 0.2417(10) -0.7073(6) 0.2613(5)
C29 C 0.1459(8) -0.7102(5) 0.3017(4)
N10 N 0.3225(12) -0.7067(7) 0.2309(5)
C30 C 0.339(2) -0.3036(15) 0.5206(11)
C31 C 0.278(2) -0.2221(15) 0.5256(11)
N11 N 0.3750(18) -0.3569(13) 0.5185(9)
loop_
_geom_bond_atom_site_label_1
_geom_bond_atom_site_label_2
_geom_bond_site_symmetry_1
_geom_bond_site_symmetry_2
B1 H1 1_555 1_555
Cu1 N1 1_555 1_555
Re1 C1 1_555 1_555
C1 N1 1_555 1_555
C2 Re1 1_555 1_555
C3 H2 1_555 1_555
C4 C3 1_555 1_555
H3 C4 1_555 1_555
C5 C4 1_555 1_555
H4 C5 1_555 1_555
C6 H5 1_555 1_555
C7 C6 1_555 1_555
H6 C7 1_555 1_555
C8 C7 1_555 1_555
H7 C8 1_555 1_555
C9 H8 1_555 1_555
C10 C9 1_555 1_555
H9 C10 1_555 1_555
C11 C10 1_555 1_555
H10 C11 1_555 1_555
C12 C16 1_555 1_555
C13 C24 1_555 1_555
C14 C17 1_555 1_555
C15 C18 1_555 1_555
C16 C21 1_555 1_555
C17 N9 1_555 1_555
C18 C20 1_555 1_555
C19 C14 1_555 1_555
C20 C22 1_555 1_555
C21 C27 1_555 1_555
C23 C19 1_555 1_555
C24 C25 1_555 1_555
C25 C26 1_555 1_555
C28 C29 1_555 1_555
C30 C31 1_555 1_555
N2 C2 1_555 1_555
N3 Cu1 1_555 1_555
N4 Cu1 1_555 1_555
N5 Cu1 1_555 1_555
N6 B1 1_555 1_555
N7 B1 1_555 1_555
N8 B1 1_555 1_555
N9 C12 1_555 1_555
N10 C28 1_555 1_555
N11 C30 1_555 1_555
Cl1 Re1 1_555 1_555
Cl2 Re1 1_555 1_555
Cl3 Re1 1_555 1_555
Cl4 Re1 1_555 1_555
Cu1A N2 1_555 1_555
N2A Cu1 1_555 1_555
C3 N3 1_555 1_555
C5 N6 1_555 1_555
C6 N7 1_555 1_555
C8 N4 1_555 1_555
C9 N5 1_555 1_555
C11 N8 1_555 1_555
C13 N9 1_555 1_555
C15 N9 1_555 1_555
N3 N6 1_555 1_555
N4 N7 1_555 1_555
N5 N8 1_555 1_555

#END
