
#######################################################################
#
#                 Cambridge Crystallographic Data Centre
#                                CCDC 
#
#######################################################################
#
# If this CIF has been generated from an entry in the Cambridge 
# Structural Database, then it will include bibliographic, chemical, 
# crystal, experimental, refinement or atomic coordinate data resulting 
# from the CCDC's data processing and validation procedures.
#
#######################################################################

data_UWOSUV
_symmetry_cell_setting           triclinic
_symmetry_space_group_name_H-M   'P -1'
_symmetry_Int_Tables_number      2
_space_group_name_Hall           '-P 1'
loop_
_symmetry_equiv_pos_site_id
_symmetry_equiv_pos_as_xyz
1 x,y,z
2 -x,-y,-z
_cell_length_a                   7.186(5)
_cell_length_b                   10.847(5)
_cell_length_c                   12.141(5)
_cell_angle_alpha                114.115(5)
_cell_angle_beta                 97.896(5)
_cell_angle_gamma                101.700(5)
_cell_volume                     819.733
loop_
_atom_site_label
_atom_site_type_symbol
_atom_site_fract_x
_atom_site_fract_y
_atom_site_fract_z
I1 I -0.32314(9) 1.13398(7) -0.16921(6)
I2 I -0.10693(8) 1.08216(6) 0.16422(6)
I3 I -0.45948(9) 0.71229(7) -0.17619(6)
Cu1 Cu -0.21216(19) 0.96586(14) -0.08261(13)
Cu2 Cu -0.62652(19) 1.18127(14) -0.06455(12)
Cu3 Cu -0.22929(19) 1.24193(13) 0.07028(12)
S1 S -1.5244(4) 1.1996(3) -0.4497(3)
C1 C -0.8028(13) 1.3955(11) -0.1104(10)
N1 N -0.7309(11) 1.4794(9) 0.0088(8)
H1 H -0.6677 1.4517 0.0553
H2 H -0.7470 1.5621 0.0405
N2 N -1.0833(12) 1.3914(8) -0.3748(8)
N3 N -0.9659(12) 1.2008(9) -0.3664(8)
N4 N -1.7230(15) 1.3642(11) -0.5238(10)
C2 C -1.6363(17) 1.2942(13) -0.4948(11)
C3 C -1.0604(13) 1.5265(10) -0.2874(10)
H3 H -1.1166 1.5895 -0.3032
C4 C -1.1918(16) 1.3249(11) -0.5049(10)
H4 H -1.2571 1.3887 -0.5197
H5 H -1.1006 1.3076 -0.5576
N5 N -0.7762(13) 1.2635(9) -0.1599(8)
N6 N -0.9499(12) 1.5570(8) -0.1782(8)
C5 C -1.3429(15) 1.1872(12) -0.5400(11)
H6 H -1.4100 1.1479 -0.6271
H7 H -1.2752 1.1216 -0.5312
C6 C -0.8568(17) 1.1766(11) -0.2831(10)
H8 H -0.8330 1.0890 -0.3133
C7 C -0.8997(14) 1.4326(11) -0.1953(10)
C8 C -0.9782(13) 1.3313(10) -0.3153(9)
I2A I 0.10693(8) 0.91784(6) -0.16422(6)
I2A_2 I -0.89307(8) 0.91784(6) -0.16422(6)
I3A I -0.54052(9) 1.28771(7) 0.17619(6)
Cu1A Cu 0.21216(19) 1.03414(14) 0.08261(13)
Cu2A Cu -0.37348(19) 0.81873(14) 0.06455(12)
Cu3A Cu -0.77071(19) 0.75807(13) -0.07028(12)
Cu3A_2 Cu -0.77071(19) 1.75807(13) -0.07028(12)
N6A N -0.0501(12) 1.4430(8) 0.1782(8)
loop_
_geom_bond_atom_site_label_1
_geom_bond_atom_site_label_2
_geom_bond_site_symmetry_1
_geom_bond_site_symmetry_2
I1 Cu1 1_555 1_555
I2 Cu1 1_555 1_555
I3 Cu1 1_555 1_555
Cu1 I2A 1_555 1_555
Cu2 I1 1_555 1_555
Cu3 I1 1_555 1_555
S1 C2 1_555 1_555
C1 N1 1_555 1_555
N1 H1 1_555 1_555
H2 N1 1_555 1_555
N2 C3 1_555 1_555
N3 C6 1_555 1_555
N4 C2 1_555 1_555
C3 H3 1_555 1_555
C4 N2 1_555 1_555
H4 C4 1_555 1_555
H5 C4 1_555 1_555
N5 Cu2 1_555 1_555
N6 C3 1_555 1_555
C5 S1 1_555 1_555
H6 C5 1_555 1_555
H7 C5 1_555 1_555
C6 N5 1_555 1_555
H8 C6 1_555 1_555
C7 C1 1_555 1_555
C8 N2 1_555 1_555
I2A Cu1A 1_555 1_555
I2A_2 Cu2 1_555 1_555
I3A Cu2 1_555 1_555
Cu1A I2 1_555 1_555
Cu2A I2 1_555 1_555
Cu3A I3 1_555 1_555
Cu3A_2 N6 1_555 1_555
N6A Cu3 1_555 1_555
I2 Cu3 1_555 1_555
I3 Cu2A 1_555 1_555
Cu3 I3A 1_555 1_555
C1 N5 1_555 1_555
N3 C8 1_555 1_555
C4 C5 1_555 1_555
N6 C7 1_555 1_555
C7 C8 1_555 1_555
I2A_2 Cu3A 1_555 1_555

#END
