
#######################################################################
#
#                 Cambridge Crystallographic Data Centre
#                                CCDC 
#
#######################################################################
#
# If this CIF has been generated from an entry in the Cambridge 
# Structural Database, then it will include bibliographic, chemical, 
# crystal, experimental, refinement or atomic coordinate data resulting 
# from the CCDC's data processing and validation procedures.
#
#######################################################################

data_UWOTOQ
_symmetry_cell_setting           triclinic
_symmetry_space_group_name_H-M   'P -1'
_symmetry_Int_Tables_number      2
_space_group_name_Hall           '-P 1'
loop_
_symmetry_equiv_pos_site_id
_symmetry_equiv_pos_as_xyz
1 x,y,z
2 -x,-y,-z
_cell_length_a                   15.367(4)
_cell_length_b                   18.717(4)
_cell_length_c                   27.879(7)
_cell_angle_alpha                97.301(2)
_cell_angle_beta                 98.417(2)
_cell_angle_gamma                105.936(2)
_cell_volume                     7508.6
loop_
_atom_site_label
_atom_site_type_symbol
_atom_site_fract_x
_atom_site_fract_y
_atom_site_fract_z
C1 C 0.3280(8) 0.4411(6) 0.3976(5)
C2 C 0.3958(9) 0.4173(6) 0.4266(5)
C3 C 0.3890(9) 0.3919(7) 0.4751(5)
H1 H 0.3249 0.3669 0.4755
H2 H 0.4103 0.4358 0.5011
C4 C 0.4454(10) 0.3382(8) 0.4854(5)
H3 H 0.4430 0.3264 0.5182
H4 H 0.4204 0.2915 0.4618
C5 C 0.5437(10) 0.3757(7) 0.4815(5)
H5 H 0.5806 0.3437 0.4917
H6 H 0.5662 0.4229 0.5047
C6 C 0.5601(9) 0.3923(7) 0.4306(4)
H7 H 0.5674 0.3479 0.4116
H8 H 0.6171 0.4330 0.4345
C7 C 0.4784(9) 0.4154(6) 0.4009(5)
C8 C 0.4707(9) 0.4329(6) 0.3564(5)
C9 C 0.5281(5) 0.4327(4) 0.3198(3)
C10 C 0.6232(5) 0.4470(5) 0.3289(3)
H9 H 0.6555 0.4557 0.3610
C11 C 0.6701(4) 0.4483(5) 0.2898(4)
H10 H 0.7338 0.4579 0.2959
C12 C 0.6219(6) 0.4354(5) 0.2418(3)
H11 H 0.6533 0.4363 0.2156
C13 C 0.5268(6) 0.4211(5) 0.2327(2)
H12 H 0.4946 0.4124 0.2006
N1 N 0.4799(4) 0.4197(4) 0.2718(3)
C14 C 0.2456(5) 0.4459(5) 0.4083(4)
C15 C 0.2269(7) 0.4710(6) 0.4537(3)
H13 H 0.2720 0.4821 0.4819
C16 C 0.1407(8) 0.4793(6) 0.4568(3)
H14 H 0.1281 0.4961 0.4871
C17 C 0.0731(6) 0.4627(7) 0.4145(4)
H15 H 0.0155 0.4683 0.4166
C18 C 0.0918(6) 0.4377(7) 0.3692(4)
H16 H 0.0467 0.4265 0.3409
N2 N 0.1781(7) 0.4293(5) 0.3660(3)
C19 C 0.3756(6) 0.5685(3) 0.2875(2)
H17 H 0.3631 0.5317 0.2595
C20 C 0.3784(5) 0.5482(3) 0.3338(3)
C21 C 0.3972(6) 0.6032(4) 0.3755(2)
H18 H 0.3990 0.5896 0.4065
C22 C 0.4132(6) 0.6786(3) 0.3709(2)
H19 H 0.4258 0.7154 0.3989
C23 C 0.4104(6) 0.6989(3) 0.3246(3)
C24 C 0.3917(6) 0.6439(4) 0.2829(2)
H20 H 0.3898 0.6575 0.2519
C25 C 0.3107(10) 0.8064(6) 0.3283(5)
C26 C 0.3199(11) 0.8516(7) 0.3725(5)
C27 C 0.2311(14) 0.8689(9) 0.3878(7)
H21 H 0.1931 0.8782 0.3597
H22 H 0.1947 0.8267 0.4002
C28 C 0.266(3) 0.9384(17) 0.4275(9)
H23 H 0.2976 0.9815 0.4138
H24 H 0.2154 0.9494 0.4404
C29 C 0.3208(17) 0.9269(10) 0.4608(8)
H25 H 0.2921 0.8780 0.4688
H26 H 0.3283 0.9644 0.4898
C30 C 0.4312(11) 0.9286(7) 0.4502(5)
H27 H 0.4675 0.9797 0.4495
H28 H 0.4631 0.9094 0.4758
C31 C 0.4162(12) 0.8787(8) 0.4007(6)
C32 C 0.4747(8) 0.8530(6) 0.3797(4)
C33 C 0.5743(7) 0.8661(5) 0.3981(4)
C34 C 0.6216(12) 0.8799(6) 0.4464(3)
H29 H 0.5899 0.8819 0.4723
C35 C 0.7161(12) 0.8909(7) 0.4560(4)
H30 H 0.7477 0.9001 0.4884
C36 C 0.7634(7) 0.8880(7) 0.4173(6)
H31 H 0.8266 0.8953 0.4238
C37 C 0.7162(8) 0.8741(6) 0.3690(5)
H32 H 0.7478 0.8722 0.3431
N3 N 0.6216(8) 0.8632(5) 0.3593(3)
C38 C 0.2283(8) 0.7679(5) 0.2888(3)
C39 C 0.1365(9) 0.7410(7) 0.2932(5)
H33 H 0.1203 0.7459 0.3240
C40 C 0.0690(6) 0.7067(7) 0.2514(6)
H34 H 0.0076 0.6887 0.2544
C41 C 0.0932(6) 0.6994(5) 0.2054(5)
H35 H 0.0481 0.6765 0.1774
C42 C 0.1850(8) 0.7263(5) 0.2010(3)
H36 H 0.2012 0.7214 0.1701
N4 N 0.2525(5) 0.7606(4) 0.2427(4)
C43 C 0.2680(8) 0.2155(6) 0.3036(4)
H37 H 0.2482 0.1607 0.2982
H38 H 0.3156 0.2337 0.3330
C44 C 0.1512(7) 0.2334(5) 0.3744(3)
C45 C 0.0759(6) 0.2527(6) 0.3879(5)
H39 H 0.0341 0.2638 0.3645
C46 C 0.0631(7) 0.2555(6) 0.4364(5)
H40 H 0.0128 0.2684 0.4454
C47 C 0.1255(10) 0.2389(7) 0.4713(4)
H41 H 0.1170 0.2407 0.5038
C48 C 0.2008(8) 0.2196(6) 0.4578(4)
H42 H 0.2426 0.2085 0.4812
C49 C 0.2136(6) 0.2168(5) 0.4094(5)
H43 H 0.2639 0.2039 0.4003
C50 C 0.0679(6) 0.1792(6) 0.2686(4)
C51 C 0.0243(9) 0.1100(6) 0.2805(4)
H44 H 0.0460 0.0972 0.3101
C52 C -0.0517(9) 0.0600(5) 0.2481(6)
H45 H -0.0809 0.0138 0.2561
C53 C -0.0841(6) 0.0792(7) 0.2038(5)
H46 H -0.1349 0.0458 0.1821
C54 C -0.0405(8) 0.1484(8) 0.1919(4)
H47 H -0.0621 0.1612 0.1623
C55 C 0.0355(8) 0.1984(5) 0.2243(4)
H48 H 0.0647 0.2446 0.2164
C56 C 0.4240(4) 0.2270(4) 0.2516(3)
C57 C 0.4640(6) 0.2323(5) 0.2101(3)
H49 H 0.4318 0.2407 0.1814
C58 C 0.5519(6) 0.2252(5) 0.2113(4)
H50 H 0.5786 0.2287 0.1835
C59 C 0.5999(4) 0.2126(5) 0.2541(5)
H51 H 0.6587 0.2078 0.2549
C60 C 0.5600(6) 0.2072(5) 0.2957(4)
H52 H 0.5921 0.1988 0.3243
C61 C 0.4720(6) 0.2144(5) 0.2944(3)
H53 H 0.4453 0.2108 0.3222
C62 C 0.2355(5) 0.1848(4) 0.1944(3)
C63 C 0.1962(6) 0.1082(4) 0.1934(3)
H54 H 0.2094 0.0870 0.2210
C64 C 0.1372(6) 0.0632(4) 0.1512(4)
H55 H 0.1109 0.0120 0.1505
C65 C 0.1176(7) 0.0949(6) 0.1100(3)
H56 H 0.0781 0.0648 0.0818
C66 C 0.1569(8) 0.1715(6) 0.1110(3)
H57 H 0.1437 0.1927 0.0834
C67 C 0.2159(7) 0.2165(4) 0.1532(3)
H58 H 0.2422 0.2678 0.1539
C68 C 0.4838(7) 1.0033(5) 0.2685(5)
H59 H 0.4952 1.0522 0.2584
H60 H 0.4709 1.0084 0.3016
C69 C 0.2808(6) 0.9525(5) 0.2479(3)
C70 C 0.2874(5) 0.9952(5) 0.2936(3)
H61 H 0.3449 1.0204 0.3131
C71 C 0.2079(7) 1.0003(6) 0.3102(3)
H62 H 0.2123 1.0288 0.3408
C72 C 0.1219(6) 0.9627(6) 0.2811(5)
H63 H 0.0687 0.9660 0.2922
C73 C 0.1153(6) 0.9200(6) 0.2354(5)
H64 H 0.0577 0.8948 0.2159
C74 C 0.1948(8) 0.9149(5) 0.2188(3)
H65 H 0.1904 0.8864 0.1882
C75 C 0.3806(7) 0.9627(4) 0.1645(3)
C76 C 0.3699(7) 1.0327(4) 0.1588(3)
H66 H 0.3642 1.0648 0.1857
C77 C 0.3678(7) 1.0546(4) 0.1130(4)
H67 H 0.3607 1.1015 0.1092
C78 C 0.3763(8) 1.0066(6) 0.0728(3)
H68 H 0.3749 1.0213 0.0421
C79 C 0.3870(9) 0.9366(5) 0.0785(3)
H69 H 0.3927 0.9044 0.0516
C80 C 0.3891(8) 0.9146(4) 0.1243(3)
H70 H 0.3962 0.8678 0.1281
C81 C 0.6225(7) 0.9832(5) 0.2074(3)
C82 C 0.6125(8) 1.0426(5) 0.1840(4)
H71 H 0.5863 1.0773 0.1981
C83 C 0.6417(9) 1.0501(5) 0.1395(4)
H72 H 0.6350 1.0898 0.1239
C84 C 0.6809(8) 0.9982(6) 0.1184(3)
H73 H 0.7004 1.0032 0.0886
C85 C 0.6909(7) 0.9388(5) 0.1417(4)
H74 H 0.7171 0.9041 0.1276
C86 C 0.6617(7) 0.9313(4) 0.1862(4)
H75 H 0.6684 0.8916 0.2019
C87 C 0.6742(6) 1.0414(5) 0.3140(3)
C88 C 0.6563(6) 1.0525(5) 0.3614(4)
H76 H 0.5980 1.0298 0.3674
C89 C 0.7256(8) 1.0974(6) 0.3998(3)
H77 H 0.7137 1.1048 0.4315
C90 C 0.8128(7) 1.1313(6) 0.3907(4)
H78 H 0.8591 1.1614 0.4164
C91 C 0.8306(5) 1.1202(7) 0.3433(5)
H79 H 0.8889 1.1429 0.3373
C92 C 0.7613(7) 1.0753(7) 0.3050(3)
H80 H 0.7732 1.0679 0.2733
C93 C 0.0807(9) 0.4063(8) 0.2191(6)
C94 C 0.0264(6) 0.4191(5) 0.1706(3)
C95 C 0.0116(6) 0.3668(4) 0.1278(3)
H81 H 0.0303 0.3237 0.1289
C96 C -0.0312(6) 0.3789(4) 0.0834(3)
H82 H -0.0411 0.3439 0.0548
C97 C -0.0592(6) 0.4432(5) 0.0817(3)
C98 C -0.0444(6) 0.4955(4) 0.1244(4)
H83 H -0.0632 0.5386 0.1233
C99 C -0.0016(7) 0.4835(4) 0.1689(3)
H84 H 0.0083 0.5185 0.1975
C100 C -0.0990(9) 0.4541(7) 0.0333(4)
H85 H -0.1162 0.4130 0.0076
C101 C -0.1126(8) 0.5184(7) 0.0230(5)
H86 H -0.0939 0.5592 0.0489
C102 C -0.1543(6) 0.5320(5) -0.0251(2)
C103 C -0.1815(6) 0.5966(4) -0.0270(2)
H87 H -0.1741 0.6306 0.0018
C104 C -0.2198(5) 0.6105(3) -0.0719(3)
H88 H -0.2381 0.6538 -0.0731
C105 C -0.2309(5) 0.5597(4) -0.1149(2)
C106 C -0.2037(5) 0.4950(4) -0.1130(3)
H89 H -0.2110 0.4610 -0.1417
C107 C -0.1654(5) 0.4811(4) -0.0681(3)
H90 H -0.1471 0.4379 -0.0668
C108 C -0.2720(8) 0.5722(6) -0.1625(4)
C109 C 0.3878 0.7092 0.1402
C110 C 0.3831 0.6616 0.0940
C111 C 0.3544 0.6828 0.0498
H91 H 0.3403 0.7280 0.0499
C112 C 0.3469 0.6363 0.0054
H92 H 0.3277 0.6505 -0.0242
C113 C 0.3681 0.5687 0.0052
C114 C 0.3967 0.5475 0.0494
H93 H 0.4108 0.5023 0.0492
C115 C 0.4042 0.5939 0.0938
H94 H 0.4234 0.5797 0.1234
C116 C 0.3612 0.5240 -0.0469
H95 H 0.3527 0.5435 -0.0757
C117 C 0.3694 0.4504 -0.0462
H96 H 0.3651 0.4325 -0.0168
C118 C 0.3968 0.2624 -0.2156
C119 C 0.3833 0.3176 -0.1702
C120 C 0.3848 0.2875 -0.1271
H97 H 0.3862 0.2380 -0.1278
C121 C 0.3843 0.3313 -0.0831
H98 H 0.3853 0.3112 -0.0542
C122 C 0.3823 0.4053 -0.0821
C123 C 0.3808 0.4354 -0.1252
H99 H 0.3794 0.4849 -0.1246
C124 C 0.3813 0.3915 -0.1693
H100 H 0.3803 0.4117 -0.1981
N5 N 0.1236 0.3985 0.2479
N6 N -0.2962 0.5881 -0.1985
N7 N 0.3922 0.7437 0.1749
N8 N 0.4057 0.2218 -0.2470
P1 P 0.3571 0.4477 0.3371
P2 P 0.1711 0.2506 0.3116
P3 P 0.3146 0.2488 0.2497
P4 P 0.4225 0.7973 0.3186
P5 P 0.3850 0.9353 0.2264
P6 P 0.5850 0.9708 0.2678
Cu1 Cu 0.2001 0.3717 0.3046
Cu2 Cu 0.3407 0.3747 0.2577
Cu3 Cu 0.3839 0.8161 0.2345
Cu4 Cu 0.5543 0.8547 0.2877
N6A N 0.2962 0.4119 0.1985
N8A N 0.5943 0.7782 0.2470
Cu2A Cu -0.3407 0.6253 -0.2577
Cu4A Cu 0.4457 0.1453 -0.2877
loop_
_geom_bond_atom_site_label_1
_geom_bond_atom_site_label_2
_geom_bond_site_symmetry_1
_geom_bond_site_symmetry_2
C1 C2 1_555 1_555
C2 C3 1_555 1_555
C3 H1 1_555 1_555
H2 C3 1_555 1_555
C4 C3 1_555 1_555
H3 C4 1_555 1_555
H4 C4 1_555 1_555
C5 C4 1_555 1_555
H5 C5 1_555 1_555
H6 C5 1_555 1_555
C6 C5 1_555 1_555
H7 C6 1_555 1_555
H8 C6 1_555 1_555
C7 C2 1_555 1_555
C8 C7 1_555 1_555
C9 C8 1_555 1_555
C10 C9 1_555 1_555
H9 C10 1_555 1_555
C11 C10 1_555 1_555
H10 C11 1_555 1_555
C12 C11 1_555 1_555
H11 C12 1_555 1_555
C13 C12 1_555 1_555
H12 C13 1_555 1_555
N1 C9 1_555 1_555
C14 C1 1_555 1_555
C15 C14 1_555 1_555
H13 C15 1_555 1_555
C16 C15 1_555 1_555
H14 C16 1_555 1_555
C17 C16 1_555 1_555
H15 C17 1_555 1_555
C18 C17 1_555 1_555
H16 C18 1_555 1_555
N2 C14 1_555 1_555
C19 H17 1_555 1_555
C20 C19 1_555 1_555
C21 C20 1_555 1_555
H18 C21 1_555 1_555
C22 C21 1_555 1_555
H19 C22 1_555 1_555
C23 C22 1_555 1_555
C24 C19 1_555 1_555
H20 C24 1_555 1_555
C25 C26 1_555 1_555
C26 C27 1_555 1_555
C27 H21 1_555 1_555
H22 C27 1_555 1_555
C28 C27 1_555 1_555
H23 C28 1_555 1_555
H24 C28 1_555 1_555
C29 C28 1_555 1_555
H25 C29 1_555 1_555
H26 C29 1_555 1_555
C30 C29 1_555 1_555
H27 C30 1_555 1_555
H28 C30 1_555 1_555
C31 C26 1_555 1_555
C32 C31 1_555 1_555
C33 C32 1_555 1_555
C34 C33 1_555 1_555
H29 C34 1_555 1_555
C35 C34 1_555 1_555
H30 C35 1_555 1_555
C36 C35 1_555 1_555
H31 C36 1_555 1_555
C37 C36 1_555 1_555
H32 C37 1_555 1_555
N3 C33 1_555 1_555
C38 C25 1_555 1_555
C39 C38 1_555 1_555
H33 C39 1_555 1_555
C40 C39 1_555 1_555
H34 C40 1_555 1_555
C41 C40 1_555 1_555
H35 C41 1_555 1_555
C42 C41 1_555 1_555
H36 C42 1_555 1_555
N4 C38 1_555 1_555
C43 H37 1_555 1_555
H38 C43 1_555 1_555
C44 C45 1_555 1_555
C45 H39 1_555 1_555
C46 C45 1_555 1_555
H40 C46 1_555 1_555
C47 C46 1_555 1_555
H41 C47 1_555 1_555
C48 C47 1_555 1_555
H42 C48 1_555 1_555
C49 C44 1_555 1_555
H43 C49 1_555 1_555
C50 C51 1_555 1_555
C51 H44 1_555 1_555
C52 C51 1_555 1_555
H45 C52 1_555 1_555
C53 C52 1_555 1_555
H46 C53 1_555 1_555
C54 C53 1_555 1_555
H47 C54 1_555 1_555
C55 C50 1_555 1_555
H48 C55 1_555 1_555
C56 C57 1_555 1_555
C57 H49 1_555 1_555
C58 C57 1_555 1_555
H50 C58 1_555 1_555
C59 C58 1_555 1_555
H51 C59 1_555 1_555
C60 C59 1_555 1_555
H52 C60 1_555 1_555
C61 C56 1_555 1_555
H53 C61 1_555 1_555
C62 C63 1_555 1_555
C63 H54 1_555 1_555
C64 C63 1_555 1_555
H55 C64 1_555 1_555
C65 C64 1_555 1_555
H56 C65 1_555 1_555
C66 C65 1_555 1_555
H57 C66 1_555 1_555
C67 C62 1_555 1_555
H58 C67 1_555 1_555
C68 H59 1_555 1_555
H60 C68 1_555 1_555
C69 C70 1_555 1_555
C70 H61 1_555 1_555
C71 C70 1_555 1_555
H62 C71 1_555 1_555
C72 C71 1_555 1_555
H63 C72 1_555 1_555
C73 C72 1_555 1_555
H64 C73 1_555 1_555
C74 C69 1_555 1_555
H65 C74 1_555 1_555
C75 C76 1_555 1_555
C76 H66 1_555 1_555
C77 C76 1_555 1_555
H67 C77 1_555 1_555
C78 C77 1_555 1_555
H68 C78 1_555 1_555
C79 C78 1_555 1_555
H69 C79 1_555 1_555
C80 C75 1_555 1_555
H70 C80 1_555 1_555
C81 C82 1_555 1_555
C82 H71 1_555 1_555
C83 C82 1_555 1_555
H72 C83 1_555 1_555
C84 C83 1_555 1_555
H73 C84 1_555 1_555
C85 C84 1_555 1_555
H74 C85 1_555 1_555
C86 C81 1_555 1_555
H75 C86 1_555 1_555
C87 C88 1_555 1_555
C88 H76 1_555 1_555
C89 C88 1_555 1_555
H77 C89 1_555 1_555
C90 C89 1_555 1_555
H78 C90 1_555 1_555
C91 C90 1_555 1_555
H79 C91 1_555 1_555
C92 C87 1_555 1_555
H80 C92 1_555 1_555
C93 C94 1_555 1_555
C94 C95 1_555 1_555
C95 H81 1_555 1_555
C96 C95 1_555 1_555
H82 C96 1_555 1_555
C97 C96 1_555 1_555
C98 C97 1_555 1_555
H83 C98 1_555 1_555
C99 C94 1_555 1_555
H84 C99 1_555 1_555
C100 C97 1_555 1_555
H85 C100 1_555 1_555
C101 C100 1_555 1_555
H86 C101 1_555 1_555
C102 C101 1_555 1_555
C103 C102 1_555 1_555
H87 C103 1_555 1_555
C104 C103 1_555 1_555
H88 C104 1_555 1_555
C105 C104 1_555 1_555
C106 C105 1_555 1_555
H89 C106 1_555 1_555
C107 C102 1_555 1_555
H90 C107 1_555 1_555
C108 C105 1_555 1_555
C109 C110 1_555 1_555
C110 C111 1_555 1_555
C111 H91 1_555 1_555
C112 C111 1_555 1_555
H92 C112 1_555 1_555
C113 C112 1_555 1_555
C114 C113 1_555 1_555
H93 C114 1_555 1_555
C115 C110 1_555 1_555
H94 C115 1_555 1_555
C116 C113 1_555 1_555
H95 C116 1_555 1_555
C117 C116 1_555 1_555
H96 C117 1_555 1_555
C118 C119 1_555 1_555
C119 C120 1_555 1_555
C120 H97 1_555 1_555
C121 C120 1_555 1_555
H98 C121 1_555 1_555
C122 C117 1_555 1_555
C123 C122 1_555 1_555
H99 C123 1_555 1_555
C124 C119 1_555 1_555
H100 C124 1_555 1_555
N5 C93 1_555 1_555
N6 C108 1_555 1_555
N7 C109 1_555 1_555
N8 C118 1_555 1_555
P1 C1 1_555 1_555
P2 C43 1_555 1_555
P3 C43 1_555 1_555
P4 C23 1_555 1_555
P5 C68 1_555 1_555
P6 C68 1_555 1_555
Cu1 N2 1_555 1_555
Cu2 N1 1_555 1_555
Cu3 N4 1_555 1_555
Cu4 N3 1_555 1_555
N6A Cu2 1_555 1_555
N8A Cu4 1_555 1_555
Cu2A N6 1_555 1_555
Cu4A N8 1_555 1_555
C6 C7 1_555 1_555
C8 P1 1_555 1_555
C13 N1 1_555 1_555
C18 N2 1_555 1_555
C20 P1 1_555 1_555
C23 C24 1_555 1_555
C25 P4 1_555 1_555
C30 C31 1_555 1_555
C32 P4 1_555 1_555
C37 N3 1_555 1_555
C42 N4 1_555 1_555
C44 P2 1_555 1_555
C48 C49 1_555 1_555
C50 P2 1_555 1_555
C54 C55 1_555 1_555
C56 P3 1_555 1_555
C60 C61 1_555 1_555
C62 P3 1_555 1_555
C66 C67 1_555 1_555
C69 P5 1_555 1_555
C73 C74 1_555 1_555
C75 P5 1_555 1_555
C79 C80 1_555 1_555
C81 P6 1_555 1_555
C85 C86 1_555 1_555
C87 P6 1_555 1_555
C91 C92 1_555 1_555
C98 C99 1_555 1_555
C106 C107 1_555 1_555
C114 C115 1_555 1_555
C121 C122 1_555 1_555
C123 C124 1_555 1_555
N5 Cu1 1_555 1_555
N7 Cu3 1_555 1_555
P1 Cu1 1_555 1_555
P1 Cu2 1_555 1_555
P2 Cu1 1_555 1_555
P3 Cu2 1_555 1_555
P4 Cu3 1_555 1_555
P4 Cu4 1_555 1_555
P5 Cu3 1_555 1_555
P6 Cu4 1_555 1_555
Cu1 Cu2 1_555 1_555
Cu3 Cu4 1_555 1_555

#END
