
#######################################################################
#
#                 Cambridge Crystallographic Data Centre
#                                CCDC 
#
#######################################################################
#
# If this CIF has been generated from an entry in the Cambridge 
# Structural Database, then it will include bibliographic, chemical, 
# crystal, experimental, refinement or atomic coordinate data resulting 
# from the CCDC's data processing and validation procedures.
#
#######################################################################

data_UWOTAC
_symmetry_cell_setting           monoclinic
_symmetry_space_group_name_H-M   'C 2/c'
_symmetry_Int_Tables_number      15
_space_group_name_Hall           '-C 2yn'
loop_
_symmetry_equiv_pos_site_id
_symmetry_equiv_pos_as_xyz
1 x,y,z
2 -x,y,1/2-z
3 1/2+x,1/2+y,z
4 1/2-x,1/2+y,1/2-z
5 -x,-y,-z
6 x,-y,1/2+z
7 1/2-x,1/2-y,-z
8 1/2+x,1/2-y,1/2+z
_cell_length_a                   13.621(5)
_cell_length_b                   11.980(3)
_cell_length_c                   16.180(6)
_cell_angle_alpha                90
_cell_angle_beta                 92.867(5)
_cell_angle_gamma                90
_cell_volume                     2636.94
loop_
_atom_site_label
_atom_site_type_symbol
_atom_site_fract_x
_atom_site_fract_y
_atom_site_fract_z
Ag1 Ag 0.67888(2) 0.01501(3) 0.814049(18)
S1 S 0.90389(8) 0.23269(9) 0.40782(6)
N1 N 0.9816(2) 0.2314(3) 0.60160(18)
N2 N 0.9295(2) 0.0596(3) 0.66608(19)
N3 N 0.7727(3) 0.2730(3) 0.8151(2)
H1 H 0.7376 0.2443 0.8524
H2 H 0.7766 0.3443 0.8102
C1 C 0.8213(3) 0.2065(3) 0.7645(2)
N4 N 1.0603(3) 0.3448(4) 0.3335(2)
C2 C 1.0418(3) 0.1843(4) 0.5376(2)
H3 H 1.0853 0.1281 0.5623
H4 H 1.0821 0.2429 0.5156
C3 C 0.9298(3) 0.1707(3) 0.6567(2)
C4 C 0.8799(3) 0.2487(3) 0.7019(2)
N5 N 0.8988(2) 0.3558(3) 0.6744(2)
N6 N 0.8149(2) 0.0946(3) 0.77225(18)
C5 C 0.8704(3) 0.0284(3) 0.7246(3)
H5 H 0.8663 -0.0480 0.7341
C6 C 0.9607(3) 0.3400(3) 0.6142(2)
H6 H 0.9868 0.3979 0.5839
C7 C 0.9797(3) 0.1322(3) 0.4675(2)
H7 H 0.9371 0.0763 0.4903
H8 H 1.0226 0.0945 0.4305
C8 C 0.9973(3) 0.3003(4) 0.3636(2)
Ag1C Ag 0.82112(2) 0.51501(3) 0.685951(18)
Ag1G Ag 1.17888(2) 0.48499(3) 0.314049(18)
N4G N 0.5603(3) 0.1552(4) 0.8335(2)
N5C N 0.6012(2) -0.1442(3) 0.8256(2)
Cl1 Cl 0.70923(8) -0.01415(8) 0.53714(6)
O1 O 0.7539(2) 0.0844(3) 0.5056(2)
O2 O 0.6813(3) 0.0039(2) 0.6210(2)
O3 O 0.6228(3) -0.0408(3) 0.4870(2)
O4 O 0.7776(3) -0.1056(3) 0.5367(2)
loop_
_geom_bond_atom_site_label_1
_geom_bond_atom_site_label_2
_geom_bond_site_symmetry_1
_geom_bond_site_symmetry_2
Ag1 N6 1_555 1_555
Cl1 O1 1_555 1_555
S1 C7 1_555 1_555
N1 C2 1_555 1_555
N2 C3 1_555 1_555
N3 H1 1_555 1_555
H2 N3 1_555 1_555
C1 N3 1_555 1_555
N4 C8 1_555 1_555
C2 H3 1_555 1_555
H4 C2 1_555 1_555
C3 N1 1_555 1_555
C4 C1 1_555 1_555
N5 C4 1_555 1_555
N6 C1 1_555 1_555
C5 N2 1_555 1_555
H5 C5 1_555 1_555
C6 N1 1_555 1_555
H6 C6 1_555 1_555
C7 C2 1_555 1_555
H7 C7 1_555 1_555
H8 C7 1_555 1_555
C8 S1 1_555 1_555
O2 Cl1 1_555 1_555
O3 Cl1 1_555 1_555
O4 Cl1 1_555 1_555
Ag1C N5 1_555 1_555
Ag1G N4 1_555 1_555
N4G Ag1 1_555 1_555
N5C Ag1 1_555 1_555
C3 C4 1_555 1_555
N5 C6 1_555 1_555
N6 C5 1_555 1_555

#END
