
#######################################################################
#
#                 Cambridge Crystallographic Data Centre
#                                CCDC 
#
#######################################################################
#
# If this CIF has been generated from an entry in the Cambridge 
# Structural Database, then it will include bibliographic, chemical, 
# crystal, experimental, refinement or atomic coordinate data resulting 
# from the CCDC's data processing and validation procedures.
#
#######################################################################

data_UWOTIK
_symmetry_cell_setting           triclinic
_symmetry_space_group_name_H-M   'P -1'
_symmetry_Int_Tables_number      2
_space_group_name_Hall           '-P 1'
loop_
_symmetry_equiv_pos_site_id
_symmetry_equiv_pos_as_xyz
1 x,y,z
2 -x,-y,-z
_cell_length_a                   12.849(2)
_cell_length_b                   12.981(2)
_cell_length_c                   20.113(3)
_cell_angle_alpha                73.033(5)
_cell_angle_beta                 90.042(5)
_cell_angle_gamma                86.256(5)
_cell_volume                     3201.15
loop_
_atom_site_label
_atom_site_type_symbol
_atom_site_fract_x
_atom_site_fract_y
_atom_site_fract_z
Cu1 Cu 0.20444(3) 0.74843(3) 0.34228(2)
Cu2 Cu 0.22482(3) 0.56574(3) 0.30916(2)
P1 P 0.06706(6) 0.63187(7) 0.34641(4)
P2 P 0.29175(7) 0.84301(7) 0.24874(5)
P3 P 0.32000(7) 0.63505(7) 0.21433(5)
N1 N 0.0938(2) 0.8440(2) 0.37308(15)
N2 N 0.1403(2) 0.4438(3) 0.29822(16)
N3 N 0.6635(2) 0.5177(3) 0.61928(16)
N4 N 0.3138(2) 0.7129(3) 0.41945(16)
C1 C -0.0220(3) 0.7524(3) 0.32131(18)
C2 C -0.0882(3) 0.7485(3) 0.26918(18)
C3 C -0.1595(3) 0.8413(3) 0.2267(2)
H1 H -0.1308 0.9091 0.2253
H2 H -0.2273 0.8395 0.2481
C4 C -0.1714(4) 0.8329(4) 0.1525(2)
H3 H -0.2174 0.8925 0.1252
H4 H -0.1039 0.8373 0.1306
C5 C -0.2158(3) 0.7270(4) 0.1546(2)
H5 H -0.2287 0.7253 0.1074
H6 H -0.2821 0.7222 0.1780
C6 C -0.1425(3) 0.6295(4) 0.1923(2)
H7 H -0.1837 0.5679 0.2106
H8 H -0.0954 0.6125 0.1587
C7 C -0.0782(3) 0.6457(3) 0.25141(18)
C8 C -0.0021(3) 0.5736(3) 0.28863(18)
C9 C 0.0359(3) 0.4673(3) 0.28461(18)
C10 C -0.0262(3) 0.3897(3) 0.2713(2)
H9 H -0.0973 0.4053 0.2622
C11 C 0.0199(4) 0.2900(4) 0.2719(2)
H10 H -0.0203 0.2379 0.2635
C12 C 0.1261(4) 0.2679(3) 0.2852(2)
H11 H 0.1584 0.2016 0.2853
C13 C 0.1825(3) 0.3468(3) 0.2981(2)
H12 H 0.2537 0.3319 0.3074
C14 C -0.0066(3) 0.8397(3) 0.35156(18)
C15 C -0.0862(3) 0.9138(3) 0.3600(2)
H13 H -0.1544 0.9098 0.3458
C16 C -0.0619(4) 0.9930(3) 0.3899(2)
H14 H -0.1136 1.0433 0.3954
C17 C 0.0400(4) 0.9970(3) 0.4117(2)
H15 H 0.0574 1.0495 0.4320
C18 C 0.1154(3) 0.9211(3) 0.4025(2)
H16 H 0.1835 0.9236 0.4173
C19 C 0.0295(3) 0.5565(3) 0.43344(17)
C20 C -0.0737(3) 0.5268(3) 0.44522(18)
H17 H -0.1223 0.5447 0.4087
C21 C 0.1026(3) 0.5294(3) 0.48834(18)
H18 H 0.1707 0.5492 0.4803
C22 C 0.3872(3) 0.7519(3) 0.22170(18)
H19 H 0.4161 0.7891 0.1773
H20 H 0.4438 0.7283 0.2558
C23 C 0.2182(3) 0.9199(3) 0.17071(19)
C24 C 0.1120(3) 0.9493(3) 0.1764(2)
H21 H 0.0806 0.9288 0.2195
C25 C 0.0535(3) 1.0091(3) 0.1176(2)
H22 H -0.0165 1.0290 0.1216
C26 C 0.0997(3) 1.0385(3) 0.0537(2)
H23 H 0.0604 1.0771 0.0145
C27 C 0.2049(3) 1.0107(4) 0.0474(2)
H24 H 0.2355 1.0314 0.0040
C28 C 0.2640(3) 0.9525(3) 0.1052(2)
H25 H 0.3344 0.9348 0.1006
C29 C 0.3705(3) 0.9440(3) 0.2677(2)
C30 C 0.3330(3) 1.0520(3) 0.2483(2)
H26 H 0.2699 1.0732 0.2239
C31 C 0.3905(4) 1.1278(4) 0.2656(3)
H27 H 0.3656 1.1999 0.2525
C32 C 0.4842(4) 1.0976(4) 0.3021(3)
H28 H 0.5225 1.1492 0.3129
C33 C 0.5209(4) 0.9903(4) 0.3223(3)
H29 H 0.5836 0.9696 0.3473
C34 C 0.4642(3) 0.9132(3) 0.3054(2)
H30 H 0.4890 0.8411 0.3194
C35 C 0.2547(3) 0.6830(3) 0.12927(19)
C36 C 0.3869(3) 0.6995(3) 0.45412(18)
C37 C 0.1460(3) 0.6974(3) 0.1250(2)
H31 H 0.1072 0.6805 0.1653
C38 C 0.0954(3) 0.7373(4) 0.0601(2)
H32 H 0.0230 0.7468 0.0572
C39 C 0.1535(4) 0.7628(4) 0.0001(2)
H33 H 0.1197 0.7893 -0.0431
C40 C 0.2620(4) 0.7489(4) 0.0039(2)
H34 H 0.3005 0.7662 -0.0365
C41 C 0.3124(3) 0.7092(3) 0.0682(2)
H35 H 0.3848 0.6999 0.0708
C42 C 0.4215(3) 0.5381(3) 0.2027(2)
C43 C 0.3929(4) 0.4618(4) 0.1699(2)
H36 H 0.3256 0.4663 0.1516
C44 C 0.4637(4) 0.3809(4) 0.1646(3)
H37 H 0.4443 0.3316 0.1422
C45 C 0.5633(4) 0.3718(4) 0.1921(3)
H38 H 0.6106 0.3166 0.1882
C46 C 0.5880(3) 0.5532(3) 0.58910(19)
C47 C 0.5933(4) 0.4458(4) 0.2257(3)
H39 H 0.6604 0.4394 0.2446
C48 C 0.5223(3) 0.5294(3) 0.2311(2)
H40 H 0.5421 0.5788 0.2534
C49 C 0.4911(3) 0.5887(3) 0.5505(2)
H41 H 0.4331 0.5491 0.5645
C50 C 0.4817(3) 0.6763(3) 0.4955(2)
H42 H 0.5359 0.7220 0.4840
Cu1A Cu -0.20444(3) 0.25157(3) 0.65772(2)
Cu1A_2 Cu 0.79556(3) 0.25157(3) 0.65772(2)
Cu2A Cu -0.22482(3) 0.43426(3) 0.69084(2)
Cu2A_2 Cu 0.77518(3) 0.43426(3) 0.69084(2)
P1A P -0.06706(6) 0.36813(7) 0.65359(4)
P2A P -0.29175(7) 0.15699(7) 0.75126(5)
P3A P -0.32000(7) 0.36495(7) 0.78567(5)
N1A N -0.0938(2) 0.1560(2) 0.62692(15)
N2A N -0.1403(2) 0.5562(3) 0.70178(16)
N3A N 0.3365(2) 0.4823(3) 0.38072(16)
N3_2 N -0.3365(2) 0.5177(3) 0.61928(16)
N4A N 0.6862(2) 0.2871(3) 0.58055(16)
N4A_2 N -0.3138(2) 0.2871(3) 0.58055(16)
C1A C 0.0220(3) 0.2476(3) 0.67869(18)
C2A C 0.0882(3) 0.2515(3) 0.73082(18)
C3A C 0.1595(3) 0.1587(3) 0.7733(2)
H1A H 0.1308 0.0909 0.7747
H2A H 0.2273 0.1605 0.7519
C4A C 0.1714(4) 0.1671(4) 0.8475(2)
H3A H 0.2174 0.1075 0.8748
H4A H 0.1039 0.1627 0.8694
C5A C 0.2158(3) 0.2730(4) 0.8454(2)
H5A H 0.2287 0.2747 0.8926
H6A H 0.2821 0.2778 0.8220
C6A C 0.1425(3) 0.3705(4) 0.8077(2)
H7A H 0.1837 0.4321 0.7894
H8A H 0.0954 0.3875 0.8413
C7A C 0.0782(3) 0.3543(3) 0.74859(18)
C8A C 0.0021(3) 0.4264(3) 0.71137(18)
C9A C -0.0359(3) 0.5327(3) 0.71539(18)
C10A C 0.0262(3) 0.6103(3) 0.7287(2)
H9A H 0.0973 0.5947 0.7378
C11A C -0.0199(4) 0.7100(4) 0.7281(2)
H10A H 0.0203 0.7621 0.7365
C12A C -0.1261(4) 0.7321(3) 0.7148(2)
H11A H -0.1584 0.7984 0.7147
C13A C -0.1825(3) 0.6532(3) 0.7019(2)
H12A H -0.2537 0.6681 0.6926
C14A C 0.0066(3) 0.1603(3) 0.64844(18)
C15A C 0.0862(3) 0.0862(3) 0.6400(2)
H13A H 0.1544 0.0902 0.6542
C16A C 0.0619(4) 0.0070(3) 0.6101(2)
H14A H 0.1136 -0.0433 0.6046
C17A C -0.0400(4) 0.0030(3) 0.5883(2)
H15A H -0.0574 -0.0495 0.5680
C18A C -0.1154(3) 0.0789(3) 0.5975(2)
H16A H -0.1835 0.0764 0.5827
C19A C -0.0295(3) 0.4435(3) 0.56656(17)
C20A C 0.0737(3) 0.4732(3) 0.55478(18)
H17A H 0.1223 0.4553 0.5913
C21A C -0.1026(3) 0.4706(3) 0.51166(18)
H18A H -0.1707 0.4508 0.5197
C22A C -0.3872(3) 0.2481(3) 0.77830(18)
H19A H -0.4161 0.2109 0.8227
H20A H -0.4438 0.2717 0.7442
C23A C -0.2182(3) 0.0801(3) 0.82929(19)
C24A C -0.1120(3) 0.0507(3) 0.8236(2)
H21A H -0.0806 0.0712 0.7805
C25A C -0.0535(3) -0.0091(3) 0.8824(2)
H22A H 0.0165 -0.0290 0.8784
C26A C -0.0997(3) -0.0385(3) 0.9463(2)
H23A H -0.0604 -0.0771 0.9855
C27A C -0.2049(3) -0.0107(4) 0.9526(2)
H24A H -0.2355 -0.0314 0.9960
C28A C -0.2640(3) 0.0475(3) 0.8948(2)
H25A H -0.3344 0.0652 0.8994
C29A C -0.3705(3) 0.0560(3) 0.7323(2)
C30A C -0.3330(3) -0.0520(3) 0.7517(2)
H26A H -0.2699 -0.0732 0.7761
C31A C -0.3905(4) -0.1278(4) 0.7344(3)
H27A H -0.3656 -0.1999 0.7475
C32A C -0.4842(4) -0.0976(4) 0.6979(3)
H28A H -0.5225 -0.1492 0.6871
C33A C -0.5209(4) 0.0097(4) 0.6777(3)
H29A H -0.5836 0.0304 0.6527
C34A C -0.4642(3) 0.0868(3) 0.6946(2)
H30A H -0.4890 0.1589 0.6806
C35A C -0.2547(3) 0.3170(3) 0.87073(19)
C36A C 0.6131(3) 0.3005(3) 0.54588(18)
C37A C -0.1460(3) 0.3026(3) 0.8750(2)
H31A H -0.1072 0.3195 0.8347
C38A C -0.0954(3) 0.2627(4) 0.9399(2)
H32A H -0.0230 0.2532 0.9428
C39A C -0.1535(4) 0.2372(4) 0.9999(2)
H33A H -0.1197 0.2107 1.0431
C40A C -0.2620(4) 0.2511(4) 0.9961(2)
H34A H -0.3005 0.2338 1.0365
C41A C -0.3124(3) 0.2908(3) 0.9318(2)
H35A H -0.3848 0.3001 0.9292
C42A C -0.4215(3) 0.4619(3) 0.7973(2)
C43A C -0.3929(4) 0.5382(4) 0.8301(2)
H36A H -0.3256 0.5337 0.8484
C44A C -0.4637(4) 0.6191(4) 0.8354(3)
H37A H -0.4443 0.6684 0.8578
C45A C -0.5633(4) 0.6282(4) 0.8079(3)
H38A H -0.6106 0.6834 0.8118
C46A C 0.4120(3) 0.4468(3) 0.41090(19)
C47A C -0.5933(4) 0.5542(4) 0.7743(3)
H39A H -0.6604 0.5606 0.7554
C48A C -0.5223(3) 0.4706(3) 0.7689(2)
H40A H -0.5421 0.4212 0.7466
C49A C 0.5089(3) 0.4113(3) 0.4495(2)
H41A H 0.5669 0.4509 0.4355
C50A C 0.5183(3) 0.3237(3) 0.5045(2)
H42A H 0.4641 0.2780 0.5160
C51 C 0.0763(5) 0.3420(5) 0.0867(3)
H43 H 0.0271 0.3021 0.1192
H44 H 0.0502 0.3508 0.0399
Cl1 Cl 0.08641(11) 0.47080(11) 0.09925(7)
Cl2 Cl 0.19867(16) 0.26863(13) 0.09927(11)
C52 C 0.6919(4) 0.2279(5) 0.3825(3)
H45 H 0.7203 0.2016 0.3453
H46 H 0.6298 0.2743 0.3644
Cl5 Cl 0.65771(14) 0.11775(11) 0.45154(8)
Cl6 Cl 0.78403(12) 0.30305(16) 0.40871(8)
C53 C 0.8147(3) 0.7290(3) 0.5120(2)
H47 H 0.7945 0.6569 0.5354
H48 H 0.8117 0.7388 0.4623
Cl7 Cl 0.94435(8) 0.74113(8) 0.53720(5)
Cl8 Cl 0.72484(10) 0.82470(10) 0.53216(8)
C54 C 0.5527(5) 0.0416(5) 0.1260(3)
H49 H 0.5198 0.0175 0.1707
H50 H 0.6220 0.0620 0.1337
Cl3 Cl 0.47934(11) 0.15490(11) 0.07271(8)
Cl4 Cl 0.56310(9) -0.06615(10) 0.08788(8)
C55 C 0.3211(6) 0.5092(7) 0.9682(4)
H51 H 0.3548 0.5754 0.9471
H52 H 0.3082 0.5053 1.0163
Cl9 Cl 0.40436(16) 0.39957(16) 0.96514(10)
Cl10 Cl 0.20013(15) 0.51378(15) 0.92444(9)
B1 B 0.6574(3) 0.6481(4) 0.3741(2)
F1 F 0.54879(16) 0.64630(19) 0.36096(11)
F2 F 0.68070(17) 0.5774(2) 0.44090(12)
F3 F 0.6791(2) 0.7520(2) 0.37291(14)
F4 F 0.71320(19) 0.6146(2) 0.32519(13)
B2 B 0.7951(4) 0.1563(4) 0.2161(3)
F5 F 0.8968(2) 0.1197(3) 0.2084(2)
F6 F 0.7495(3) 0.0865(3) 0.27137(18)
F7 F 0.7949(6) 0.2579(6) 0.2344(3)
F8 F 0.7468(15) 0.1528(19) 0.1581(8)
F9? F 0.7284(9) 0.1784(8) 0.1582(6)
F10? F 0.7981(13) 0.2459(15) 0.2230(14)
loop_
_geom_bond_atom_site_label_1
_geom_bond_atom_site_label_2
_geom_bond_site_symmetry_1
_geom_bond_site_symmetry_2
Cu1 Cu2 1_555 1_555
Cu2 P1 1_555 1_555
P1 Cu1 1_555 1_555
P2 Cu1 1_555 1_555
P3 Cu2 1_555 1_555
N1 Cu1 1_555 1_555
N2 Cu2 1_555 1_555
N3 C46 1_555 1_555
N4 Cu1 1_555 1_555
C1 P1 1_555 1_555
C2 C1 1_555 1_555
C3 C2 1_555 1_555
H1 C3 1_555 1_555
H2 C3 1_555 1_555
C4 C3 1_555 1_555
H3 C4 1_555 1_555
H4 C4 1_555 1_555
C5 C4 1_555 1_555
H5 C5 1_555 1_555
H6 C5 1_555 1_555
C6 C5 1_555 1_555
H7 C6 1_555 1_555
H8 C6 1_555 1_555
C7 C2 1_555 1_555
C8 P1 1_555 1_555
C9 N2 1_555 1_555
C10 C9 1_555 1_555
H9 C10 1_555 1_555
C11 C10 1_555 1_555
H10 C11 1_555 1_555
C12 C11 1_555 1_555
H11 C12 1_555 1_555
C13 N2 1_555 1_555
H12 C13 1_555 1_555
C14 N1 1_555 1_555
C15 C14 1_555 1_555
H13 C15 1_555 1_555
C16 C15 1_555 1_555
H14 C16 1_555 1_555
C17 C16 1_555 1_555
H15 C17 1_555 1_555
C18 N1 1_555 1_555
H16 C18 1_555 1_555
C19 P1 1_555 1_555
C20 C19 1_555 1_555
H17 C20 1_555 1_555
C21 C19 1_555 1_555
H18 C21 1_555 1_555
C22 P2 1_555 1_555
H19 C22 1_555 1_555
H20 C22 1_555 1_555
C23 P2 1_555 1_555
C24 C23 1_555 1_555
H21 C24 1_555 1_555
C25 C24 1_555 1_555
H22 C25 1_555 1_555
C26 C25 1_555 1_555
H23 C26 1_555 1_555
C27 C26 1_555 1_555
H24 C27 1_555 1_555
C28 C23 1_555 1_555
H25 C28 1_555 1_555
C29 P2 1_555 1_555
C30 C29 1_555 1_555
H26 C30 1_555 1_555
C31 C30 1_555 1_555
H27 C31 1_555 1_555
C32 C31 1_555 1_555
H28 C32 1_555 1_555
C33 C32 1_555 1_555
H29 C33 1_555 1_555
C34 C29 1_555 1_555
H30 C34 1_555 1_555
C35 P3 1_555 1_555
C36 N4 1_555 1_555
C37 C35 1_555 1_555
H31 C37 1_555 1_555
C38 C37 1_555 1_555
H32 C38 1_555 1_555
C39 C38 1_555 1_555
H33 C39 1_555 1_555
C40 C39 1_555 1_555
H34 C40 1_555 1_555
C41 C35 1_555 1_555
H35 C41 1_555 1_555
C42 P3 1_555 1_555
C43 C42 1_555 1_555
H36 C43 1_555 1_555
C44 C43 1_555 1_555
H37 C44 1_555 1_555
C45 C44 1_555 1_555
H38 C45 1_555 1_555
C46 C49 1_555 1_555
C47 C45 1_555 1_555
H39 C47 1_555 1_555
C48 C42 1_555 1_555
H40 C48 1_555 1_555
C49 H41 1_555 1_555
C50 C36 1_555 1_555
H42 C50 1_555 1_555
C51 H43 1_555 1_555
H44 C51 1_555 1_555
C52 H45 1_555 1_555
H46 C52 1_555 1_555
C53 H47 1_555 1_555
H48 C53 1_555 1_555
C54 H49 1_555 1_555
H50 C54 1_555 1_555
C55 H51 1_555 1_555
H52 C55 1_555 1_555
B1 F1 1_555 1_555
B2 F5 1_555 1_555
F2 B1 1_555 1_555
F3 B1 1_555 1_555
F4 B1 1_555 1_555
F6 B2 1_555 1_555
F7 B2 1_555 1_555
F8 B2 1_555 1_555
Cl1 C51 1_555 1_555
Cl2 C51 1_555 1_555
Cl3 C54 1_555 1_555
Cl4 C54 1_555 1_555
Cl5 C52 1_555 1_555
Cl6 C52 1_555 1_555
Cl7 C53 1_555 1_555
Cl8 C53 1_555 1_555
Cl9 C55 1_555 1_555
Cl10 C55 1_555 1_555
Cu1A Cu2A 1_555 1_555
Cu1A_2 Cu2A_2 1_555 1_555
Cu2A P1A 1_555 1_555
Cu2A_2 N3 1_555 1_555
P1A Cu1A 1_555 1_555
P2A Cu1A 1_555 1_555
P3A Cu2A 1_555 1_555
N1A Cu1A 1_555 1_555
N2A Cu2A 1_555 1_555
N3A Cu2 1_555 1_555
N3_2 Cu2A 1_555 1_555
N4A Cu1A_2 1_555 1_555
N4A_2 Cu1A 1_555 1_555
C1A P1A 1_555 1_555
C2A C1A 1_555 1_555
C3A C2A 1_555 1_555
H1A C3A 1_555 1_555
H2A C3A 1_555 1_555
C4A C3A 1_555 1_555
H3A C4A 1_555 1_555
H4A C4A 1_555 1_555
C5A C4A 1_555 1_555
H5A C5A 1_555 1_555
H6A C5A 1_555 1_555
C6A C5A 1_555 1_555
H7A C6A 1_555 1_555
H8A C6A 1_555 1_555
C7A C2A 1_555 1_555
C8A P1A 1_555 1_555
C9A N2A 1_555 1_555
C10A C9A 1_555 1_555
H9A C10A 1_555 1_555
C11A C10A 1_555 1_555
H10A C11A 1_555 1_555
C12A C11A 1_555 1_555
H11A C12A 1_555 1_555
C13A N2A 1_555 1_555
H12A C13A 1_555 1_555
C14A N1A 1_555 1_555
C15A C14A 1_555 1_555
H13A C15A 1_555 1_555
C16A C15A 1_555 1_555
H14A C16A 1_555 1_555
C17A C16A 1_555 1_555
H15A C17A 1_555 1_555
C18A N1A 1_555 1_555
H16A C18A 1_555 1_555
C19A P1A 1_555 1_555
C20A C21 1_555 1_555
H17A C20A 1_555 1_555
C21A C20 1_555 1_555
H18A C21A 1_555 1_555
C22A P2A 1_555 1_555
H19A C22A 1_555 1_555
H20A C22A 1_555 1_555
C23A P2A 1_555 1_555
C24A C23A 1_555 1_555
H21A C24A 1_555 1_555
C25A C24A 1_555 1_555
H22A C25A 1_555 1_555
C26A C25A 1_555 1_555
H23A C26A 1_555 1_555
C27A C26A 1_555 1_555
H24A C27A 1_555 1_555
C28A C23A 1_555 1_555
H25A C28A 1_555 1_555
C29A P2A 1_555 1_555
C30A C29A 1_555 1_555
H26A C30A 1_555 1_555
C31A C30A 1_555 1_555
H27A C31A 1_555 1_555
C32A C31A 1_555 1_555
H28A C32A 1_555 1_555
C33A C32A 1_555 1_555
H29A C33A 1_555 1_555
C34A C29A 1_555 1_555
H30A C34A 1_555 1_555
C35A P3A 1_555 1_555
C36A N4A 1_555 1_555
C37A C35A 1_555 1_555
H31A C37A 1_555 1_555
C38A C37A 1_555 1_555
H32A C38A 1_555 1_555
C39A C38A 1_555 1_555
H33A C39A 1_555 1_555
C40A C39A 1_555 1_555
H34A C40A 1_555 1_555
C41A C35A 1_555 1_555
H35A C41A 1_555 1_555
C42A P3A 1_555 1_555
C43A C42A 1_555 1_555
H36A C43A 1_555 1_555
C44A C43A 1_555 1_555
H37A C44A 1_555 1_555
C45A C44A 1_555 1_555
H38A C45A 1_555 1_555
C46A N3A 1_555 1_555
C47A C45A 1_555 1_555
H39A C47A 1_555 1_555
C48A C42A 1_555 1_555
H40A C48A 1_555 1_555
C49A C46A 1_555 1_555
H41A C49A 1_555 1_555
C50A C36A 1_555 1_555
H42A C50A 1_555 1_555
P3 C22 1_555 1_555
C1 C14 1_555 1_555
C6 C7 1_555 1_555
C7 C8 1_555 1_555
C8 C9 1_555 1_555
C12 C13 1_555 1_555
C17 C18 1_555 1_555
C27 C28 1_555 1_555
C33 C34 1_555 1_555
C40 C41 1_555 1_555
C47 C48 1_555 1_555
C49 C50 1_555 1_555
P3A C22A 1_555 1_555
C1A C14A 1_555 1_555
C6A C7A 1_555 1_555
C7A C8A 1_555 1_555
C8A C9A 1_555 1_555
C12A C13A 1_555 1_555
C17A C18A 1_555 1_555
C19A C20A 1_555 1_555
C19A C21A 1_555 1_555
C27A C28A 1_555 1_555
C33A C34A 1_555 1_555
C40A C41A 1_555 1_555
C47A C48A 1_555 1_555
C49A C50A 1_555 1_555

#END
