
#######################################################################
#
#                 Cambridge Crystallographic Data Centre
#                                CCDC 
#
#######################################################################
#
# If this CIF has been generated from an entry in the Cambridge 
# Structural Database, then it will include bibliographic, chemical, 
# crystal, experimental, refinement or atomic coordinate data resulting 
# from the CCDC's data processing and validation procedures.
#
#######################################################################

data_UWOWAF
_symmetry_cell_setting           monoclinic
_symmetry_space_group_name_H-M   'C 2/c'
_symmetry_Int_Tables_number      15
_space_group_name_Hall           '-C 2yn'
loop_
_symmetry_equiv_pos_site_id
_symmetry_equiv_pos_as_xyz
1 x,y,z
2 -x,y,1/2-z
3 1/2+x,1/2+y,z
4 1/2-x,1/2+y,1/2-z
5 -x,-y,-z
6 x,-y,1/2+z
7 1/2-x,1/2-y,-z
8 1/2+x,1/2-y,1/2+z
_cell_length_a                   18.7201(9)
_cell_length_b                   15.0754(8)
_cell_length_c                   19.4250(10)
_cell_angle_alpha                90
_cell_angle_beta                 106.241(3)
_cell_angle_gamma                90
_cell_volume                     5263.22
loop_
_atom_site_label
_atom_site_type_symbol
_atom_site_fract_x
_atom_site_fract_y
_atom_site_fract_z
Mn1 Mn 0.2500 0.7500 0.5000
Mn2 Mn 0.15313(6) 0.82883(8) 0.32219(6)
S1 S 0.08119(12) 0.57928(17) 0.46582(13)
S2 S 0.38656(11) 0.77449(18) 0.25749(11)
S3 S 0.21687(13) 1.13427(13) 0.42996(13)
O1 O 0.1500(3) 0.7272(4) 0.4082(3)
O2 O 0.0479(3) 0.8011(5) 0.3580(4)
O3 O 0.2606(3) 0.7998(4) 0.3174(3)
O4 O 0.3184(3) 0.7622(4) 0.4287(3)
O5 O 0.1200(4) 0.7103(6) 0.2517(4)
O6 O 0.1857(3) 0.9468(4) 0.3843(3)
O7 O 0.0988(5) 0.9007(7) 0.2280(4)
O8 O 0.2260(4) 0.8880(4) 0.4939(4)
N1 N 0.1508(7) 0.5672(7) 0.2300(6)
C1 C 0.0808(5) 0.7402(6) 0.3957(5)
C2 C 0.0393(4) 0.6726(6) 0.4267(5)
C3 C -0.0346(5) 0.6764(7) 0.4248(6)
H1 H -0.0659 0.7236 0.4055
C4 C -0.0577(5) 0.6007(8) 0.4552(6)
H2 H -0.1061 0.5918 0.4575
C5 C 0.0001(5) 0.5407(7) 0.4815(5)
C6 C 0.3168(4) 0.7790(5) 0.3658(4)
C7 C 0.3867(4) 0.7721(6) 0.3449(4)
C8 C 0.4563(5) 0.7681(10) 0.3878(5)
H3 H 0.4676 0.7661 0.4375
C9 C 0.5109(6) 0.7670(8) 0.3504(6)
H4 H 0.5617 0.7657 0.3730
C10 C 0.4816(5) 0.7681(7) 0.2784(4)
C11 C 0.1637(8) 0.6509(10) 0.2384(7)
H5 H 0.2094 0.6705 0.2344
C12 C 0.2018(10) 0.5098(12) 0.2102(11)
H6 H 0.2459 0.5423 0.2102
H7 H 0.1793 0.4865 0.1632
H8 H 0.2146 0.4619 0.2439
C13 C 0.0809(9) 0.5306(13) 0.2356(10)
H9 H 0.0582 0.5714 0.2611
H10 H 0.0901 0.4752 0.2610
H11 H 0.0482 0.5209 0.1884
C14 C 0.2114(5) 0.9507(5) 0.4495(6)
C15 C 0.2294(5) 1.0411(5) 0.4812(5)
C16 C 0.2565(7) 1.0604(6) 0.5530(6)
H12 H 0.2667 1.0184 0.5895
C17 C 0.2670(7) 1.1539(6) 0.5638(6)
H13 H 0.2856 1.1787 0.6092
C18 C 0.2480(5) 1.2034(5) 0.5040(5)
N2 N 0.0471(8) 1.0021(7) 0.1428(6)
C19 C 0.1146(10) 1.0315(12) 0.1277(10)
H14 H 0.1461 1.0602 0.1693
H15 H 0.1024 1.0726 0.0883
H16 H 0.1401 0.9814 0.1153
C20 C 0.0577(9) 0.9452(7) 0.1887(6)
H17 H 0.0112 0.9320 0.1945
C21 C -0.0193(9) 1.0429(11) 0.1033(9)
H18 H -0.0590 1.0266 0.1231
H19 H -0.0310 1.0239 0.0542
H20 H -0.0132 1.1062 0.1055
Mn1B Mn -0.2500 0.2500 0.5000
Mn1A Mn 0.7500 0.7500 0.0000
Mn1_2 Mn 0.2500 1.7500 0.5000
Mn2D Mn -0.15313(6) 0.17117(8) 0.67781(6)
Mn2A Mn 0.84687(6) 0.82883(8) 0.17781(6)
Mn2F Mn 0.34687(6) 1.67117(8) 0.67781(6)
S1D S -0.08119(12) 0.42072(17) 0.53418(13)
S2A S 0.61344(11) 0.77449(18) 0.24251(11)
S3F S 0.28313(13) 1.36573(13) 0.57004(13)
O1D O -0.1500(3) 0.2728(4) 0.5918(3)
O1F O 0.3500(3) 0.7728(4) 0.5918(3)
O2D O -0.0479(3) 0.1989(5) 0.6420(4)
O3A O 0.7394(3) 0.7998(4) 0.1826(3)
O3D O -0.2606(3) 0.2002(4) 0.6826(3)
O4A O 0.6816(3) 0.7622(4) 0.0713(3)
O4F O 0.1816(3) 0.7378(4) 0.5713(3)
O5D O -0.1200(4) 0.2897(6) 0.7483(4)
O6F O 0.3143(3) 1.5532(4) 0.6157(3)
O6D O -0.1857(3) 0.0532(4) 0.6157(3)
O7D O -0.0988(5) 0.0993(7) 0.7720(4)
O8F O 0.2740(4) 1.6120(4) 0.5061(4)
O8F_2 O 0.2740(4) 0.6120(4) 0.5061(4)
N1D N -0.1508(7) 0.4328(7) 0.7700(6)
C1D C -0.0808(5) 0.2598(6) 0.6043(5)
C2D C -0.0393(4) 0.3274(6) 0.5733(5)
C3D C 0.0346(5) 0.3236(7) 0.5752(6)
H1D H 0.0659 0.2764 0.5945
C4D C 0.0577(5) 0.3993(8) 0.5448(6)
H2D H 0.1061 0.4082 0.5425
C5D C -0.0001(5) 0.4593(7) 0.5185(5)
C6A C 0.6832(4) 0.7790(5) 0.1342(4)
C7A C 0.6133(4) 0.7721(6) 0.1551(4)
C8A C 0.5437(5) 0.7681(10) 0.1122(5)
H3A H 0.5324 0.7661 0.0625
C9A C 0.4891(6) 0.7670(8) 0.1496(6)
H4A H 0.4383 0.7657 0.1270
C10A C 0.5184(5) 0.7681(7) 0.2216(4)
C11D C -0.1637(8) 0.3491(10) 0.7616(7)
H5D H -0.2094 0.3295 0.7656
C12D C -0.2018(10) 0.4902(12) 0.7898(11)
H6D H -0.2459 0.4577 0.7898
H7D H -0.1793 0.5135 0.8368
H8D H -0.2146 0.5381 0.7561
C13D C -0.0809(9) 0.4694(13) 0.7644(10)
H9D H -0.0582 0.4286 0.7389
H10D H -0.0901 0.5248 0.7390
H11D H -0.0482 0.4791 0.8116
C14F C 0.2886(5) 1.5493(5) 0.5505(6)
C15F C 0.2706(5) 1.4589(5) 0.5188(5)
C16F C 0.2435(7) 1.4396(6) 0.4470(6)
H12F H 0.2333 1.4816 0.4105
C17F C 0.2330(7) 1.3461(6) 0.4362(6)
H13F H 0.2144 1.3213 0.3908
C18F C 0.2520(5) 1.2966(5) 0.4960(5)
N2D N -0.0471(8) -0.0021(7) 0.8572(6)
C19D C -0.1146(10) -0.0315(12) 0.8723(10)
H14D H -0.1461 -0.0602 0.8307
H15D H -0.1024 -0.0726 0.9117
H16D H -0.1401 0.0186 0.8847
C20D C -0.0577(9) 0.0548(7) 0.8113(6)
H17D H -0.0112 0.0680 0.8055
C21D C 0.0193(9) -0.0429(11) 0.8967(9)
H18D H 0.0590 -0.0266 0.8769
H19D H 0.0310 -0.0239 0.9458
H20D H 0.0132 -0.1062 0.8945
loop_
_geom_bond_atom_site_label_1
_geom_bond_atom_site_label_2
_geom_bond_site_symmetry_1
_geom_bond_site_symmetry_2
Mn1 O1 1_555 1_555
Mn2 O1 1_555 1_555
S1 C2 1_555 1_555
S2 C7 1_555 1_555
S3 C15 1_555 1_555
O1 C1 1_555 1_555
O2 Mn2 1_555 1_555
O3 Mn2 1_555 1_555
O4 Mn1 1_555 1_555
O5 Mn2 1_555 1_555
O6 Mn2 1_555 1_555
O7 Mn2 1_555 1_555
O8 Mn1 1_555 1_555
N1 C11 1_555 1_555
C1 O2 1_555 1_555
C2 C1 1_555 1_555
C3 C2 1_555 1_555
H1 C3 1_555 1_555
C4 C3 1_555 1_555
H2 C4 1_555 1_555
C5 S1 1_555 1_555
C6 O3 1_555 1_555
C7 C6 1_555 1_555
C8 C7 1_555 1_555
H3 C8 1_555 1_555
C9 C8 1_555 1_555
H4 C9 1_555 1_555
C10 S2 1_555 1_555
C11 O5 1_555 1_555
H5 C11 1_555 1_555
C12 N1 1_555 1_555
H6 C12 1_555 1_555
H7 C12 1_555 1_555
H8 C12 1_555 1_555
C13 N1 1_555 1_555
H9 C13 1_555 1_555
H10 C13 1_555 1_555
H11 C13 1_555 1_555
C14 O6 1_555 1_555
C15 C14 1_555 1_555
C16 C15 1_555 1_555
H12 C16 1_555 1_555
C17 C16 1_555 1_555
H13 C17 1_555 1_555
C18 S3 1_555 1_555
N2 C19 1_555 1_555
C19 H14 1_555 1_555
H15 C19 1_555 1_555
H16 C19 1_555 1_555
C20 O7 1_555 1_555
H17 C20 1_555 1_555
C21 N2 1_555 1_555
H18 C21 1_555 1_555
H19 C21 1_555 1_555
H20 C21 1_555 1_555
Mn1B O1D 1_555 1_555
Mn1A O4A 1_555 1_555
Mn1_2 O8F 1_555 1_555
Mn2D O1D 1_555 1_555
Mn2A O3A 1_555 1_555
Mn2F O6F 1_555 1_555
S1D C2D 1_555 1_555
S2A C7A 1_555 1_555
S3F C15F 1_555 1_555
O1D C1D 1_555 1_555
O1F Mn1 1_555 1_555
O2D Mn2D 1_555 1_555
O3A C6A 1_555 1_555
O3D Mn2D 1_555 1_555
O4A C6A 1_555 1_555
O4F Mn1 1_555 1_555
O5D Mn2D 1_555 1_555
O6F C14F 1_555 1_555
O6D Mn2D 1_555 1_555
O7D Mn2D 1_555 1_555
O8F C14F 1_555 1_555
O8F_2 Mn1 1_555 1_555
N1D C11D 1_555 1_555
C1D O2D 1_555 1_555
C2D C1D 1_555 1_555
C3D C2D 1_555 1_555
H1D C3D 1_555 1_555
C4D C3D 1_555 1_555
H2D C4D 1_555 1_555
C5D C5 1_555 1_555
C6A C7A 1_555 1_555
C7A C8A 1_555 1_555
C8A H3A 1_555 1_555
C9A C8A 1_555 1_555
H4A C9A 1_555 1_555
C10A C10 1_555 1_555
C11D O5D 1_555 1_555
H5D C11D 1_555 1_555
C12D N1D 1_555 1_555
H6D C12D 1_555 1_555
H7D C12D 1_555 1_555
H8D C12D 1_555 1_555
C13D N1D 1_555 1_555
H9D C13D 1_555 1_555
H10D C13D 1_555 1_555
H11D C13D 1_555 1_555
C14F C15F 1_555 1_555
C15F C16F 1_555 1_555
C16F H12F 1_555 1_555
C17F C16F 1_555 1_555
H13F C17F 1_555 1_555
C18F C18 1_555 1_555
N2D C19D 1_555 1_555
C19D H14D 1_555 1_555
H15D C19D 1_555 1_555
H16D C19D 1_555 1_555
C20D O7D 1_555 1_555
H17D C20D 1_555 1_555
C21D N2D 1_555 1_555
H18D C21D 1_555 1_555
H19D C21D 1_555 1_555
H20D C21D 1_555 1_555
O4 C6 1_555 1_555
O8 C14 1_555 1_555
C4 C5 1_555 1_555
C9 C10 1_555 1_555
C17 C18 1_555 1_555
N2 C20 1_555 1_555
S1D C5D 1_555 1_555
S2A C10A 1_555 1_555
S3F C18F 1_555 1_555
C4D C5D 1_555 1_555
C9A C10A 1_555 1_555
C17F C18F 1_555 1_555
N2D C20D 1_555 1_555

#END
