
#######################################################################
#
#                 Cambridge Crystallographic Data Centre
#                                CCDC 
#
#######################################################################
#
# If this CIF has been generated from an entry in the Cambridge 
# Structural Database, then it will include bibliographic, chemical, 
# crystal, experimental, refinement or atomic coordinate data resulting 
# from the CCDC's data processing and validation procedures.
#
#######################################################################

data_UWOWEJ
_symmetry_cell_setting           monoclinic
_symmetry_space_group_name_H-M   'P 21/c'
_symmetry_Int_Tables_number      14
_space_group_name_Hall           '-P 2ybc'
loop_
_symmetry_equiv_pos_site_id
_symmetry_equiv_pos_as_xyz
1 x,y,z
2 -x,1/2+y,1/2-z
3 -x,-y,-z
4 x,1/2-y,1/2+z
_cell_length_a                   6.54720(10)
_cell_length_b                   22.5911(5)
_cell_length_c                   16.3206(3)
_cell_angle_alpha                90
_cell_angle_beta                 92.668(2)
_cell_angle_gamma                90
_cell_volume                     2411.34
loop_
_atom_site_label
_atom_site_type_symbol
_atom_site_fract_x
_atom_site_fract_y
_atom_site_fract_z
Co1 Co 0.78790(4) 0.042210(13) 0.751354(16)
S1 S 0.54370(7) 0.20602(2) 0.94721(3)
S2 S 0.02342(8) 0.30519(3) 1.03392(3)
O1 O 0.5207(2) 0.07117(6) 0.79447(8)
O2 O 0.7842(2) 0.12189(7) 0.84594(9)
O3 O 0.0469(2) 0.42813(6) 1.20445(8)
O4 O -0.2215(2) 0.38727(7) 1.13935(9)
O5 O 0.9173(2) -0.01248(7) 0.83722(9)
N1 N 0.4094(3) -0.04317(8) 0.58330(11)
O6 O 0.6674(2) -0.02029(7) 0.67458(9)
N2 N 1.1927(3) -0.05361(10) 0.90256(13)
C1 C 0.1091(3) 0.35110(9) 1.11253(12)
C2 C 0.2639(3) 0.27374(9) 1.02751(12)
C3 C 0.3119(3) 0.34259(9) 1.13238(12)
H1 H 0.3842 0.3635 1.1734
C4 C 0.4522(3) 0.15183(9) 0.88054(12)
C5 C 0.2440(3) 0.15144(10) 0.87415(13)
H2 H 0.1681 0.1256 0.8405
C6 C 0.5959(3) 0.11318(9) 0.83860(12)
C7 C 0.3996(3) 0.29855(9) 1.08374(12)
H3 H 0.5363 0.2875 1.0894
C8 C 0.1564(3) 0.19449(10) 0.92410(13)
H4 H 0.0161 0.2001 0.9266
C9 C 0.2983(3) 0.22713(9) 0.96848(12)
C10 C 0.4916(3) -0.01173(10) 0.64326(13)
H5 H 0.4148 0.0190 0.6640
C11 C -0.0330(3) 0.39094(9) 1.15347(12)
C12 C 0.5114(4) -0.09494(12) 0.55152(17)
H6 H 0.6564 -0.0911 0.5614
H7 H 0.4806 -0.0982 0.4936
H8 H 0.4644 -0.1298 0.5786
C13 C 1.1060(4) -0.01683(11) 0.84912(14)
H9 H 1.1896 0.0071 0.8187
C14 C 0.2005(4) -0.03254(13) 0.55241(16)
H10 H 0.1472 0.0017 0.5788
H11 H 0.1175 -0.0663 0.5638
H12 H 0.1991 -0.0260 0.4943
C15 C 1.0696(5) -0.09370(15) 0.9503(2)
H13 H 0.9282 -0.0827 0.9439
H14 H 1.1133 -0.0913 1.0072
H15 H 1.0866 -0.1335 0.9313
C18 C 1.4145(4) -0.06117(16) 0.9091(2)
H20 H 1.4781 -0.0317 0.8764
H21 H 1.4494 -0.0999 0.8899
H22 H 1.4617 -0.0569 0.9654
Co1C Co -0.21210(4) 0.457790(13) 1.251354(16)
O3C O 1.0469(2) 0.07187(6) 0.70445(8)
O4C O 0.7785(2) 0.11273(7) 0.63935(9)
N3 N 0.0166(4) 0.31560(10) 0.75932(14)
O7 O -0.2326(4) 0.38220(11) 0.78075(18)
C16 C -0.0537(6) 0.36894(14) 0.7772(2)
H16 H 0.0423 0.3986 0.7879
C17 C 0.2316(5) 0.30487(17) 0.7510(2)
H17 H 0.2549 0.2933 0.6956
H18 H 0.2762 0.2738 0.7878
H19 H 0.3071 0.3403 0.7640
C19 C -0.1244(5) 0.26757(15) 0.7421(2)
H23 H -0.2535 0.2765 0.7648
H24 H -0.0703 0.2318 0.7662
H25 H -0.1431 0.2625 0.6838
loop_
_geom_bond_atom_site_label_1
_geom_bond_atom_site_label_2
_geom_bond_site_symmetry_1
_geom_bond_site_symmetry_2
Co1 O1 1_555 1_555
S1 C4 1_555 1_555
S2 C1 1_555 1_555
O1 C6 1_555 1_555
O2 Co1 1_555 1_555
O3 C11 1_555 1_555
O4 C11 1_555 1_555
O5 Co1 1_555 1_555
N1 C10 1_555 1_555
O6 Co1 1_555 1_555
N2 C13 1_555 1_555
C1 C3 1_555 1_555
C2 S2 1_555 1_555
C3 H1 1_555 1_555
C4 C5 1_555 1_555
C5 H2 1_555 1_555
C6 O2 1_555 1_555
C7 C2 1_555 1_555
H3 C7 1_555 1_555
N3 C16 1_555 1_555
C8 C5 1_555 1_555
H4 C8 1_555 1_555
C9 S1 1_555 1_555
C10 O6 1_555 1_555
H5 C10 1_555 1_555
C11 C1 1_555 1_555
C12 N1 1_555 1_555
H6 C12 1_555 1_555
H7 C12 1_555 1_555
H8 C12 1_555 1_555
O7 C16 1_555 1_555
C13 O5 1_555 1_555
H9 C13 1_555 1_555
C14 N1 1_555 1_555
H10 C14 1_555 1_555
H11 C14 1_555 1_555
H12 C14 1_555 1_555
C15 N2 1_555 1_555
H13 C15 1_555 1_555
H14 C15 1_555 1_555
H15 C15 1_555 1_555
C16 H16 1_555 1_555
C17 N3 1_555 1_555
H17 C17 1_555 1_555
H18 C17 1_555 1_555
H19 C17 1_555 1_555
C18 N2 1_555 1_555
H20 C18 1_555 1_555
H21 C18 1_555 1_555
H22 C18 1_555 1_555
C19 N3 1_555 1_555
H23 C19 1_555 1_555
H24 C19 1_555 1_555
H25 C19 1_555 1_555
Co1C O3 1_555 1_555
O3C Co1 1_555 1_555
O4C Co1 1_555 1_555
O4 Co1C 1_555 1_555
C2 C9 1_555 1_555
C3 C7 1_555 1_555
C4 C6 1_555 1_555
C8 C9 1_555 1_555

#END
