
#######################################################################
#
#                 Cambridge Crystallographic Data Centre
#                                CCDC 
#
#######################################################################
#
# If this CIF has been generated from an entry in the Cambridge 
# Structural Database, then it will include bibliographic, chemical, 
# crystal, experimental, refinement or atomic coordinate data resulting 
# from the CCDC's data processing and validation procedures.
#
#######################################################################

data_UWUGEZ
_symmetry_cell_setting           orthorhombic
_symmetry_space_group_name_H-M   'P 21 21 21'
_symmetry_Int_Tables_number      19
_space_group_name_Hall           'P 2ac 2ab'
loop_
_symmetry_equiv_pos_site_id
_symmetry_equiv_pos_as_xyz
1 x,y,z
2 1/2-x,-y,1/2+z
3 -x,1/2+y,1/2-z
4 1/2+x,1/2-y,-z
_cell_length_a                   5.3113(9)
_cell_length_b                   18.042(3)
_cell_length_c                   22.823(4)
_cell_angle_alpha                90
_cell_angle_beta                 90
_cell_angle_gamma                90
_cell_volume                     2187.05
loop_
_atom_site_label
_atom_site_type_symbol
_atom_site_fract_x
_atom_site_fract_y
_atom_site_fract_z
C1 C 0.2946(7) 0.75547(19) 0.88079(14)
C2 C 0.2482(11) 0.82980(19) 0.90802(13)
H1 H 0.0877 0.8480 0.8937
H2 H 0.3770 0.8635 0.8940
C3 C 0.2447(8) 0.83383(16) 0.97440(12)
H3 H 0.3794 0.8036 0.9903
H4 H 0.0860 0.8147 0.9890
C4 C 0.2782(6) 0.91436(15) 0.99413(11)
H5 H 0.1638 0.9450 0.9708
C5 C 0.2043(6) 0.92367(16) 1.05899(12)
C6 C 0.4884(6) 1.08832(18) 1.00169(14)
C7 C 0.2795(8) 1.1311(2) 0.99090(17)
H6 H 0.1816 1.1227 0.9578
C8 C 0.2164(9) 1.1867(2) 1.02971(19)
H7 H 0.0781 1.2166 1.0217
C9 C 0.3522(8) 1.1989(2) 1.07981(18)
C10 C 0.2826(11) 1.2619(2) 1.1207(2)
H8 H 0.3708 1.3060 1.1092
H9 H 0.3286 1.2491 1.1601
H10 H 0.1045 1.2706 1.1188
H11 H 0.6628 0.9274 1.0030
C11 C 0.5578(9) 1.1551(2) 1.09032(16)
H12 H 0.6524 1.1628 1.1241
C12 C 0.6279(7) 1.0994(2) 1.05183(16)
H13 H 0.7674 1.0699 1.0597
C13 C 1.0424(7) 1.0331(2) 1.17287(16)
H14 H 1.1268 1.0301 1.1372
C14 C 1.0985(8) 1.0901(2) 1.21011(16)
H15 H 1.2202 1.1248 1.1999
C15 C 0.9742(9) 1.0959(2) 1.26268(16)
H16 H 1.0088 1.1345 1.2884
C16 C 0.7992(9) 1.0436(2) 1.27596(15)
H17 H 0.7118 1.0463 1.3112
C17 C 0.7507(8) 0.98655(17) 1.23730(12)
C18 C 0.5627(7) 0.92759(19) 1.24830(13)
C19 C 0.4043(8) 0.9267(2) 1.29595(15)
H18 H 0.4153 0.9629 1.3248
C20 C 0.2302(9) 0.8711(2) 1.29981(14)
H19 H 0.1221 0.8689 1.3318
C21 C 0.2151(8) 0.8191(2) 1.25701(15)
H20 H 0.0963 0.7813 1.2591
C22 C 0.3801(7) 0.8234(2) 1.21017(15)
H21 H 0.3702 0.7878 1.1808
Cu1 Cu 0.77154(7) 0.89304(2) 1.135740(14)
N1 N 0.5344(5) 0.93906(15) 0.98208(10)
N2 N 0.8713(5) 0.98148(15) 1.18579(11)
N3 N 0.5491(5) 0.87560(15) 1.20569(11)
O1 O 0.1919(5) 0.69950(12) 0.90419(9)
O2 O 0.4190(7) 0.75144(17) 0.83616(14)
O3 O 0.3649(4) 0.93263(14) 1.09607(9)
O4 O -0.0334(4) 0.92160(13) 1.06737(9)
O5 O 0.4142(5) 1.02406(15) 0.90267(10)
O6 O 0.8420(4) 1.02547(15) 0.94215(11)
S1 S 0.57871(16) 1.01833(5) 0.95175(4)
Cu1C Cu 0.27154(7) 0.60696(2) 0.864260(14)
Cu1_2 Cu -0.22846(7) 0.89304(2) 1.135740(14)
O1C O 0.6919(5) 0.80050(12) 1.09581(9)
O4_2 O 0.9666(4) 0.92160(13) 1.06737(9)
loop_
_geom_bond_atom_site_label_1
_geom_bond_atom_site_label_2
_geom_bond_site_symmetry_1
_geom_bond_site_symmetry_2
C1 C2 1_555 1_555
C2 H1 1_555 1_555
H2 C2 1_555 1_555
C3 C2 1_555 1_555
H3 C3 1_555 1_555
H4 C3 1_555 1_555
C4 C3 1_555 1_555
H5 C4 1_555 1_555
C5 C4 1_555 1_555
C6 C7 1_555 1_555
C7 H6 1_555 1_555
C8 C7 1_555 1_555
H7 C8 1_555 1_555
C9 C8 1_555 1_555
C10 C9 1_555 1_555
H8 C10 1_555 1_555
H9 C10 1_555 1_555
H10 C10 1_555 1_555
H11 N1 1_555 1_555
C11 C9 1_555 1_555
H12 C11 1_555 1_555
C12 C6 1_555 1_555
H13 C12 1_555 1_555
C13 H14 1_555 1_555
C14 C13 1_555 1_555
H15 C14 1_555 1_555
C15 C14 1_555 1_555
H16 C15 1_555 1_555
C16 C15 1_555 1_555
H17 C16 1_555 1_555
C17 C16 1_555 1_555
C18 C17 1_555 1_555
C19 C18 1_555 1_555
H18 C19 1_555 1_555
C20 C19 1_555 1_555
H19 C20 1_555 1_555
C21 C20 1_555 1_555
H20 C21 1_555 1_555
C22 C21 1_555 1_555
H21 C22 1_555 1_555
Cu1 N2 1_555 1_555
N1 C4 1_555 1_555
N2 C13 1_555 1_555
N3 C18 1_555 1_555
O1 C1 1_555 1_555
O2 C1 1_555 1_555
O3 C5 1_555 1_555
O4 C5 1_555 1_555
O5 S1 1_555 1_555
O6 S1 1_555 1_555
S1 C6 1_555 1_555
Cu1C O1 1_555 1_555
Cu1_2 O4 1_555 1_555
O1C Cu1 1_555 1_555
O4_2 Cu1 1_555 1_555
C11 C12 1_555 1_555
C17 N2 1_555 1_555
C22 N3 1_555 1_555
Cu1 N3 1_555 1_555
Cu1 O3 1_555 1_555
N1 S1 1_555 1_555

#END
