
#######################################################################
#
#                 Cambridge Crystallographic Data Centre
#                                CCDC 
#
#######################################################################
#
# If this CIF has been generated from an entry in the Cambridge 
# Structural Database, then it will include bibliographic, chemical, 
# crystal, experimental, refinement or atomic coordinate data resulting 
# from the CCDC's data processing and validation procedures.
#
#######################################################################

data_UXACEC
_symmetry_cell_setting           triclinic
_symmetry_space_group_name_H-M   'P -1'
_symmetry_Int_Tables_number      2
_space_group_name_Hall           '-P 1'
loop_
_symmetry_equiv_pos_site_id
_symmetry_equiv_pos_as_xyz
1 x,y,z
2 -x,-y,-z
_cell_length_a                   9.285(1)
_cell_length_b                   9.468(1)
_cell_length_c                   9.886(1)
_cell_angle_alpha                74.44(1)
_cell_angle_beta                 63.35(1)
_cell_angle_gamma                87.80(1)
_cell_volume                     744.89
loop_
_atom_site_label
_atom_site_type_symbol
_atom_site_fract_x
_atom_site_fract_y
_atom_site_fract_z
Y1 Y 0.56128(4) 0.61941(4) 0.14431(4)
O1 O 0.5860(4) 0.3546(3) 0.2184(3)
O2 O 0.4263(4) 0.4467(3) 0.4095(3)
O3 O 0.3489(4) 0.5052(4) 0.1409(4)
O4 O 0.1963(4) 0.4043(4) 0.0680(4)
O5 O 0.3772(4) 0.7543(4) 0.2910(4)
O6 O 0.2582(4) 0.8898(4) 0.1560(4)
O7 O 0.5111(4) 0.7869(3) -0.0538(4)
O8 O 0.7163(4) 0.8507(4) 0.0609(4)
O9 O 0.7292(4) 0.5957(4) 0.2719(4)
C1 C 0.4890(5) 0.3367(5) 0.3629(5)
C2 C 0.4507(6) 0.1905(5) 0.4786(5)
H1 H 0.3756 0.1815 0.5826
C3 C 0.5179(6) 0.0714(5) 0.4420(5)
H2 H 0.5912 0.0795 0.3377
C4 C 0.2133(5) 0.4574(5) 0.1658(5)
C5 C 0.0664(5) 0.4597(5) 0.3110(5)
H3 H -0.0336 0.4321 0.3208
C6 C 0.0706(5) 0.4995(5) 0.4290(5)
H4 H 0.1707 0.5282 0.4182
C7 C 0.2768(5) 0.8442(5) 0.2789(5)
C8 C 0.1716(6) 0.8920(5) 0.4210(6)
H5 H 0.1898 0.8603 0.5091
C9 C 0.0525(6) 0.9780(6) 0.4290(6)
H6 H 0.0353 1.0116 0.3404
H7 H 0.417(6) 0.837(7) 0.004(7)
H8 H 0.500(8) 0.763(8) -0.139(6)
H9 H 0.726(9) 0.927(6) -0.033(5)
H10 H 0.805(6) 0.876(8) 0.083(8)
H11 H 0.669(8) 0.556(8) 0.388(3)
H12 H 0.833(5) 0.649(7) 0.240(8)
C3A C 0.4821(6) -0.0714(5) 0.5580(5)
C2A C 0.5493(6) -0.1905(5) 0.5214(5)
C1A C 0.5110(5) -0.3367(5) 0.6371(5)
O1A O 0.4140(4) -0.3546(3) 0.7816(3)
O2A O 0.5737(4) -0.4467(3) 0.5905(3)
H1A H 0.6244 -0.1815 0.4174
H2A H 0.4088 -0.0795 0.6623
C6A C -0.0706(5) 0.5005(5) 0.5710(5)
C5A C -0.0664(5) 0.5403(5) 0.6890(5)
C4A C -0.2133(5) 0.5426(5) 0.8342(5)
O3A O -0.3489(4) 0.4948(4) 0.8591(4)
O4A O -0.1963(4) 0.5957(4) 0.9320(4)
H3A H 0.0336 0.5679 0.6792
H4A H -0.1707 0.4718 0.5818
C9A C -0.0525(6) 1.0220(6) 0.5710(6)
C8A C -0.1716(6) 1.1080(5) 0.5790(6)
C7A C -0.2768(5) 1.1558(5) 0.7211(5)
O5A O -0.3772(4) 1.2457(4) 0.7090(4)
O6A O -0.2582(4) 1.1102(4) 0.8440(4)
H5A H -0.1898 1.1397 0.4909
H6A H -0.0353 0.9884 0.6596
Y1A Y 0.43872(4) -0.61941(4) 0.85569(4)
O7A O 0.4889(4) -0.7869(3) 1.0538(4)
H7A H 0.583(6) -0.837(7) 0.996(7)
H8A H 0.500(8) -0.763(8) 1.139(6)
O8A O 0.2837(4) -0.8507(4) 0.9391(4)
H9A H 0.274(9) -0.927(6) 1.033(5)
H10A H 0.195(6) -0.876(8) 0.917(8)
O9A O 0.2708(4) -0.5957(4) 0.7281(4)
H11A H 0.331(8) -0.556(8) 0.612(3)
H12A H 0.167(5) -0.649(7) 0.760(8)
O4A_2 O 0.8037(4) 0.5957(4) -0.0680(4)
Y1A_2 Y 0.43872(4) 0.38059(4) -0.14431(4)
Y1A_3 Y -0.56128(4) 0.38059(4) 0.85569(4)
Y1_2 Y -0.43872(4) 0.61941(4) 1.14431(4)
Y1A_4 Y -0.56128(4) 1.38059(4) 0.85569(4)
O3A_2 O 0.6511(4) -0.5052(4) 0.8591(4)
O4_2 O 0.1963(4) -0.5957(4) 1.0680(4)
O5A_2 O 0.6228(4) -0.7543(4) 0.7090(4)
O10 O 0.8989(5) 0.2522(5) 0.1502(6)
H13 H 0.816(6) 0.315(7) 0.136(9)
H14 H 0.991(6) 0.326(6) 0.116(9)
O11 O 1.0212(5) 0.1876(5) -0.1295(5)
H15 H 0.935(6) 0.151(8) -0.149(8)
H16 H 0.953(7) 0.220(8) -0.033(6)
loop_
_geom_bond_atom_site_label_1
_geom_bond_atom_site_label_2
_geom_bond_site_symmetry_1
_geom_bond_site_symmetry_2
Y1 O1 1_555 1_555
O1 C1 1_555 1_555
O2 Y1 1_555 1_555
O3 Y1 1_555 1_555
O4 C4 1_555 1_555
O5 Y1 1_555 1_555
O6 C7 1_555 1_555
O7 Y1 1_555 1_555
O8 Y1 1_555 1_555
O9 Y1 1_555 1_555
C1 O2 1_555 1_555
C2 C1 1_555 1_555
H1 C2 1_555 1_555
C3 C2 1_555 1_555
H2 C3 1_555 1_555
C4 O3 1_555 1_555
C5 C4 1_555 1_555
H3 C5 1_555 1_555
C6 C5 1_555 1_555
H4 C6 1_555 1_555
C7 O5 1_555 1_555
C8 C7 1_555 1_555
H5 C8 1_555 1_555
C9 C8 1_555 1_555
H6 C9 1_555 1_555
H7 O7 1_555 1_555
H8 O7 1_555 1_555
H9 O8 1_555 1_555
H10 O8 1_555 1_555
H11 O9 1_555 1_555
H12 O9 1_555 1_555
O10 H13 1_555 1_555
H14 O10 1_555 1_555
O11 H15 1_555 1_555
H16 O11 1_555 1_555
C3A C3 1_555 1_555
C2A C3A 1_555 1_555
C1A C2A 1_555 1_555
O1A C1A 1_555 1_555
O2A C1A 1_555 1_555
H1A C2A 1_555 1_555
H2A C3A 1_555 1_555
C6A C6 1_555 1_555
C5A C6A 1_555 1_555
C4A C5A 1_555 1_555
O3A C4A 1_555 1_555
O4A C4A 1_555 1_555
H3A C5A 1_555 1_555
H4A C6A 1_555 1_555
C9A C9 1_555 1_555
C8A C9A 1_555 1_555
C7A C8A 1_555 1_555
O5A C7A 1_555 1_555
O6A C7A 1_555 1_555
H5A C8A 1_555 1_555
H6A C9A 1_555 1_555
Y1A O1A 1_555 1_555
O7A Y1A 1_555 1_555
H7A O7A 1_555 1_555
H8A O7A 1_555 1_555
O8A Y1A 1_555 1_555
H9A O8A 1_555 1_555
H10A O8A 1_555 1_555
O9A Y1A 1_555 1_555
H11A O9A 1_555 1_555
H12A O9A 1_555 1_555
O4A_2 Y1 1_555 1_555
Y1A_2 O4 1_555 1_555
Y1A_3 O3A 1_555 1_555
Y1_2 O4A 1_555 1_555
Y1A_4 O5A 1_555 1_555
O3A_2 Y1A 1_555 1_555
O4_2 Y1A 1_555 1_555
O5A_2 Y1A 1_555 1_555
O2A Y1A 1_555 1_555

#END
