
#######################################################################
#
#                 Cambridge Crystallographic Data Centre
#                                CCDC 
#
#######################################################################
#
# If this CIF has been generated from an entry in the Cambridge 
# Structural Database, then it will include bibliographic, chemical, 
# crystal, experimental, refinement or atomic coordinate data resulting 
# from the CCDC's data processing and validation procedures.
#
#######################################################################

data_UXEFUZ
_symmetry_cell_setting           monoclinic
_symmetry_space_group_name_H-M   'P 21/n'
_symmetry_Int_Tables_number      14
_space_group_name_Hall           '-P 2yn'
loop_
_symmetry_equiv_pos_site_id
_symmetry_equiv_pos_as_xyz
1 x,y,z
2 1/2-x,1/2+y,1/2-z
3 -x,-y,-z
4 1/2+x,1/2-y,1/2+z
_cell_length_a                   12.897(5)
_cell_length_b                   13.785(5)
_cell_length_c                   29.519(5)
_cell_angle_alpha                90
_cell_angle_beta                 95.998(5)
_cell_angle_gamma                90
_cell_volume                     5219.31
loop_
_atom_site_label
_atom_site_type_symbol
_atom_site_fract_x
_atom_site_fract_y
_atom_site_fract_z
C1 C 0.0503(4) 0.1287(4) 0.21308(17)
C2 C -0.0333(4) 0.0770(4) 0.18499(17)
C3 C -0.1277(4) 0.1222(4) 0.17172(19)
H1 H -0.1373 0.1857 0.1811
C4 C -0.2071(4) 0.0775(5) 0.1455(2)
H2 H -0.2687 0.1105 0.1365
C5 C -0.1943(4) -0.0189(5) 0.1326(2)
C6 C -0.1009(5) -0.0637(5) 0.1448(2)
H3 H -0.0917 -0.1275 0.1358
C7 C -0.0208(4) -0.0168(5) 0.1698(2)
H4 H 0.0427 -0.0483 0.1767
C8 C -0.4373(4) -0.0868(5) 0.07389(19)
C9 C -0.4467(4) -0.1874(5) 0.0769(2)
H5 H -0.3928 -0.2247 0.0912
C10 C -0.5187(5) -0.0334(5) 0.0536(2)
H6 H -0.5130 0.0338 0.0526
C11 C -0.6077(4) -0.0767(5) 0.03494(19)
H7 H -0.6615 -0.0394 0.0206
C12 C -0.6180(4) -0.1764(4) 0.03734(17)
C13 C -0.5390(4) -0.2305(5) 0.0580(2)
H8 H -0.5465 -0.2975 0.0596
C14 C -0.7194(4) -0.2237(5) 0.01665(18)
C15 C 0.4468(5) 0.8508(5) 0.4996(2)
C16 C 0.3529(4) 0.8833(5) 0.52354(19)
C17 C 0.2810(5) 0.9458(5) 0.5019(2)
H9 H 0.2920 0.9712 0.4736
C18 C 0.1934(5) 0.9711(5) 0.5217(2)
H10 H 0.1448 1.0130 0.5067
C19 C 0.1774(4) 0.9347(4) 0.56339(19)
C20 C 0.2496(4) 0.8734(5) 0.58679(19)
H11 H 0.2407 0.8510 0.6158
C21 C 0.3360(4) 0.8469(5) 0.5651(2)
H12 H 0.3836 0.8031 0.5793
C22 C -0.0151(4) 0.9916(4) 0.6379(2)
C23 C -0.1061(4) 1.0110(5) 0.6110(2)
H13 H -0.1137 0.9933 0.5805
C24 C -0.1875(4) 1.0579(5) 0.63025(19)
H14 H -0.2501 1.0699 0.6126
C25 C -0.1749(4) 1.0861(4) 0.67489(18)
C26 C -0.0832(4) 1.0642(4) 0.70090(18)
H15 H -0.0744 1.0830 0.7313
C27 C -0.0045(5) 1.0152(5) 0.6829(2)
H16 H 0.0557 0.9983 0.7013
C28 C -0.2600(5) 1.1424(4) 0.6949(2)
C29 C -0.0002(4) 0.3979(5) 0.30941(18)
H17 H -0.0483 0.3489 0.3130
C30 C -0.0091(5) 0.4912(4) 0.32211(19)
H18 H -0.0635 0.5177 0.3364
C31 C 0.1343(4) 0.4738(4) 0.29081(17)
H19 H 0.1970 0.4879 0.2793
C32 C 0.0978(5) 0.6424(4) 0.31718(19)
H20 H 0.0443 0.6799 0.2995
H21 H 0.1642 0.6576 0.3061
C33 C 0.1017(5) 0.6716(4) 0.3668(2)
C34 C 0.0276(6) 0.7343(5) 0.3816(3)
H22 H -0.0265 0.7565 0.3609
C35 C 0.0328(6) 0.7641(5) 0.4264(3)
H23 H -0.0178 0.8057 0.4357
C36 C 0.1111(5) 0.7330(6) 0.4567(3)
H24 H 0.1151 0.7534 0.4869
C37 C 0.1847(5) 0.6714(5) 0.4431(2)
H25 H 0.2378 0.6492 0.4644
C38 C 0.1819(4) 0.6412(4) 0.3981(2)
C39 C 0.2642(4) 0.5707(5) 0.3845(2)
H26 H 0.2401 0.5048 0.3884
H27 H 0.2724 0.5798 0.3525
C40 C 0.4158(4) 0.6663(5) 0.41689(19)
H28 H 0.3916 0.7250 0.4044
C41 C 0.5103(6) 0.5611(6) 0.4519(2)
H29 H 0.5659 0.5315 0.4693
C42 C 0.4251(6) 0.5144(5) 0.4330(2)
H30 H 0.4110 0.4484 0.4348
C43 C 0.5871(4) 0.8523(4) 0.38138(18)
H31 H 0.5148 0.8518 0.3803
C44 C 0.7492(4) 0.8342(5) 0.4037(2)
H32 H 0.8110 0.8192 0.4214
C45 C 0.7426(4) 0.8704(5) 0.3612(2)
H33 H 0.7980 0.8841 0.3445
C46 C 0.5950(5) 0.9186(4) 0.30327(17)
H34 H 0.5217 0.9014 0.2991
H35 H 0.6291 0.8868 0.2795
C47 C 0.6057(4) 1.0268(4) 0.29843(18)
C48 C 0.6818(5) 1.0625(5) 0.2729(2)
H36 H 0.7250 1.0193 0.2596
C49 C 0.6944(7) 1.1611(6) 0.2668(2)
H37 H 0.7461 1.1837 0.2498
C50 C 0.6310(7) 1.2251(5) 0.2857(3)
H38 H 0.6393 1.2914 0.2814
C51 C 0.5544(5) 1.1918(5) 0.3112(2)
H39 H 0.5108 1.2359 0.3237
C52 C 0.5421(4) 1.0933(4) 0.31838(18)
C53 C 0.4617(4) 1.0600(4) 0.34889(19)
H40 H 0.4398 0.9946 0.3403
H41 H 0.4936 1.0580 0.3801
C54 C 0.3033(4) 1.1378(4) 0.30955(19)
H42 H 0.3071 1.1058 0.2820
C55 C 0.3375(5) 1.1805(5) 0.37924(19)
H43 H 0.3675 1.1859 0.4092
C56 C 0.2538(5) 1.2280(5) 0.36047(18)
H44 H 0.2154 1.2728 0.3753
O1 O 0.1429(3) 0.1001(3) 0.21623(12)
O2 O 0.0231(3) 0.2036(3) 0.23483(13)
O3 O -0.7274(3) -0.3123(4) 0.01597(14)
O4 O -0.7913(3) -0.1678(3) 0.00040(14)
O5 O 0.4497(3) 0.8688(3) 0.45928(14)
O6 O 0.5192(3) 0.8061(4) 0.52311(14)
O7 O -0.3470(3) 1.1476(3) 0.67440(15)
O8 O -0.2338(3) 1.1809(3) 0.73352(13)
Co1 Co 0.14949(6) 0.26554(6) 0.26276(3)
Co2 Co 0.60121(6) 0.76112(7) 0.47285(3)
N1 N 0.5042(3) 0.6570(4) 0.44229(15)
N2 N -0.2747(4) -0.0777(4) 0.10856(18)
N3 N -0.3497(4) -0.0300(4) 0.09465(17)
N4 N 0.0782(4) 0.9499(4) 0.62093(18)
N5 N 0.0826(4) 0.9696(4) 0.58131(17)
N6 N 0.0921(3) 0.3873(3) 0.29010(13)
N7 N 0.0760(3) 0.5396(3) 0.31013(14)
N8 N 0.3635(4) 0.5830(4) 0.41058(16)
N9 N 0.6511(3) 0.8227(3) 0.41677(15)
N10 N 0.6401(3) 0.8833(3) 0.34723(14)
N11 N 0.3706(3) 1.1226(3) 0.34635(14)
N12 N 0.2333(4) 1.2003(3) 0.31562(14)
O4C O 0.7087(3) 0.6678(3) 0.50040(14)
O8C O 0.2662(3) 0.3191(3) 0.23352(13)
Co1_2 Co 0.14949(6) 1.26554(6) 0.26276(3)
Co1C Co -0.35051(6) 1.23446(6) 0.76276(3)
Co2C Co -0.89879(6) -0.26112(7) -0.02715(3)
N12_2 N 0.2333(4) 0.2003(3) 0.31562(14)
loop_
_geom_bond_atom_site_label_1
_geom_bond_atom_site_label_2
_geom_bond_site_symmetry_1
_geom_bond_site_symmetry_2
C1 C2 1_555 1_555
C2 C3 1_555 1_555
C3 H1 1_555 1_555
C4 C3 1_555 1_555
H2 C4 1_555 1_555
C5 C4 1_555 1_555
C6 C5 1_555 1_555
H3 C6 1_555 1_555
C7 C2 1_555 1_555
H4 C7 1_555 1_555
C8 C9 1_555 1_555
C9 H5 1_555 1_555
C10 C8 1_555 1_555
H6 C10 1_555 1_555
C11 C10 1_555 1_555
H7 C11 1_555 1_555
C12 C11 1_555 1_555
C13 C9 1_555 1_555
H8 C13 1_555 1_555
C14 C12 1_555 1_555
C15 C16 1_555 1_555
C16 C17 1_555 1_555
C17 H9 1_555 1_555
C18 C17 1_555 1_555
H10 C18 1_555 1_555
C19 C18 1_555 1_555
C20 C19 1_555 1_555
H11 C20 1_555 1_555
C21 C16 1_555 1_555
H12 C21 1_555 1_555
C22 C23 1_555 1_555
C23 H13 1_555 1_555
C24 C23 1_555 1_555
H14 C24 1_555 1_555
C25 C24 1_555 1_555
C26 C25 1_555 1_555
H15 C26 1_555 1_555
C27 C22 1_555 1_555
H16 C27 1_555 1_555
C28 C25 1_555 1_555
C29 H17 1_555 1_555
C30 C29 1_555 1_555
H18 C30 1_555 1_555
C31 H19 1_555 1_555
C32 H20 1_555 1_555
H21 C32 1_555 1_555
C33 C32 1_555 1_555
C34 C33 1_555 1_555
H22 C34 1_555 1_555
C35 C34 1_555 1_555
H23 C35 1_555 1_555
C36 C35 1_555 1_555
H24 C36 1_555 1_555
C37 C36 1_555 1_555
H25 C37 1_555 1_555
C38 C33 1_555 1_555
C39 C38 1_555 1_555
H26 C39 1_555 1_555
H27 C39 1_555 1_555
C40 H28 1_555 1_555
C41 H29 1_555 1_555
C42 C41 1_555 1_555
H30 C42 1_555 1_555
C43 H31 1_555 1_555
C44 H32 1_555 1_555
C45 C44 1_555 1_555
H33 C45 1_555 1_555
C46 H34 1_555 1_555
H35 C46 1_555 1_555
C47 C46 1_555 1_555
C48 C47 1_555 1_555
H36 C48 1_555 1_555
C49 C48 1_555 1_555
H37 C49 1_555 1_555
C50 C49 1_555 1_555
H38 C50 1_555 1_555
C51 C50 1_555 1_555
H39 C51 1_555 1_555
C52 C47 1_555 1_555
C53 C52 1_555 1_555
H40 C53 1_555 1_555
H41 C53 1_555 1_555
C54 H42 1_555 1_555
C55 H43 1_555 1_555
C56 C55 1_555 1_555
H44 C56 1_555 1_555
O1 C1 1_555 1_555
O2 C1 1_555 1_555
O3 C14 1_555 1_555
O4 C14 1_555 1_555
O5 C15 1_555 1_555
O6 C15 1_555 1_555
O7 C28 1_555 1_555
O8 C28 1_555 1_555
Co1 O2 1_555 1_555
Co2 O5 1_555 1_555
N1 C40 1_555 1_555
N2 C5 1_555 1_555
N3 C8 1_555 1_555
N4 C22 1_555 1_555
N5 C19 1_555 1_555
N6 C29 1_555 1_555
N7 C30 1_555 1_555
N8 C39 1_555 1_555
N9 C43 1_555 1_555
N10 C43 1_555 1_555
N11 C53 1_555 1_555
N12 C54 1_555 1_555
O4C Co2 1_555 1_555
O8C Co1 1_555 1_555
Co1_2 N12 1_555 1_555
Co1C O8 1_555 1_555
Co2C O4 1_555 1_555
N12_2 Co1 1_555 1_555
C6 C7 1_555 1_555
C12 C13 1_555 1_555
C20 C21 1_555 1_555
C26 C27 1_555 1_555
C31 N6 1_555 1_555
C31 N7 1_555 1_555
C32 N7 1_555 1_555
C37 C38 1_555 1_555
C40 N8 1_555 1_555
C41 N1 1_555 1_555
C42 N8 1_555 1_555
C44 N9 1_555 1_555
C45 N10 1_555 1_555
C46 N10 1_555 1_555
C51 C52 1_555 1_555
C54 N11 1_555 1_555
C55 N11 1_555 1_555
C56 N12 1_555 1_555
O6 Co2 1_555 1_555
Co1 N6 1_555 1_555
Co2 N1 1_555 1_555
Co2 N9 1_555 1_555
N2 N3 1_555 1_555
N4 N5 1_555 1_555

#END
