
#######################################################################
#
#                 Cambridge Crystallographic Data Centre
#                                CCDC 
#
#######################################################################
#
# If this CIF has been generated from an entry in the Cambridge 
# Structural Database, then it will include bibliographic, chemical, 
# crystal, experimental, refinement or atomic coordinate data resulting 
# from the CCDC's data processing and validation procedures.
#
#######################################################################

data_UXEHIP
_symmetry_cell_setting           orthorhombic
_symmetry_space_group_name_H-M   'P 21 21 21'
_symmetry_Int_Tables_number      19
_space_group_name_Hall           'P 2ac 2ab'
loop_
_symmetry_equiv_pos_site_id
_symmetry_equiv_pos_as_xyz
1 x,y,z
2 1/2-x,-y,1/2+z
3 -x,1/2+y,1/2-z
4 1/2+x,1/2-y,-z
_cell_length_a                   11.683(10)
_cell_length_b                   15.571(14)
_cell_length_c                   26.71(2)
_cell_angle_alpha                90
_cell_angle_beta                 90
_cell_angle_gamma                90
_cell_volume                     4858.98
loop_
_atom_site_label
_atom_site_type_symbol
_atom_site_fract_x
_atom_site_fract_y
_atom_site_fract_z
Zn1 Zn 0.52804(6) 0.56649(5) 0.70428(3)
N1 N 0.5937(5) 0.4545(4) 0.7154(2)
N2 N 0.6479(6) 0.3328(5) 0.7557(3)
N3 N 1.3481(4) 0.1488(4) 0.8078(2)
N4 N 1.2041(6) 0.2175(5) 0.8442(3)
O1 O 0.4194(3) 0.5911(3) 0.65102(16)
O2 O 0.5425(4) 0.5181(4) 0.60624(15)
O3 O 0.4965(4) 0.4751(3) 0.51659(14)
H1 H 0.5285 0.4729 0.5439
O4 O 0.0241(4) 0.3877(3) 0.26801(16)
O5 O 0.1520(5) 0.4904(4) 0.26333(17)
O6 O 0.2888(4) 0.5216(3) 0.33336(16)
H2 H 0.2575 0.5268 0.3060
C1 C 0.4506(7) 0.5577(5) 0.6105(3)
C2 C 0.2985(6) 0.6329(5) 0.5646(3)
H3 H 0.2822 0.6618 0.5942
C3 C 0.3847(6) 0.5762(5) 0.5639(3)
C4 C 0.4075(6) 0.5329(4) 0.5188(3)
C5 C 0.3480(6) 0.5443(4) 0.4749(2)
C6 C 0.2572(7) 0.6025(5) 0.4757(3)
C7 C 0.2332(6) 0.6500(5) 0.5227(3)
C8 C 0.1536(7) 0.7148(5) 0.5243(3)
H4 H 0.1436 0.7457 0.5538
C9 C 0.0877(7) 0.7349(5) 0.4827(3)
H5 H 0.0333 0.7784 0.4839
C10 C 0.1061(7) 0.6872(6) 0.4385(3)
H6 H 0.0621 0.6985 0.4102
C11 C 0.1883(7) 0.6245(5) 0.4368(3)
H7 H 0.1976 0.5948 0.4069
C12 C 0.1076(7) 0.4289(6) 0.2870(3)
C13 C 0.1047(7) 0.3402(5) 0.3636(2)
H8 H 0.0448 0.3092 0.3494
C14 C 0.1499(7) 0.4098(5) 0.3397(2)
C15 C 0.2416(7) 0.4531(5) 0.3587(3)
C16 C 0.2809(6) 0.4397(5) 0.4065(3)
C17 C 0.2375(7) 0.3680(5) 0.4314(3)
C18 C 0.1504(7) 0.3167(5) 0.4096(3)
C19 C 0.1019(7) 0.2480(5) 0.4353(3)
H9 H 0.0398 0.2197 0.4211
C20 C 0.1414(8) 0.2208(5) 0.4801(3)
H10 H 0.1073 0.1762 0.4978
C21 C 0.2401(8) 0.2659(6) 0.4983(3)
H11 H 0.2814 0.2417 0.5245
C22 C 0.2761(6) 0.3418(5) 0.4794(3)
H12 H 0.3257 0.3765 0.4976
C23 C 0.3712(6) 0.4924(4) 0.4284(2)
H13 H 0.3968 0.5321 0.4027
H14 H 0.4352 0.4547 0.4357
C24 C 0.5880(6) 0.4064(5) 0.7554(3)
H15 H 0.5438 0.4226 0.7828
C25 C 0.6668(7) 0.4045(6) 0.6865(3)
H16 H 0.6882 0.4169 0.6537
C26 C 0.7025(9) 0.3352(6) 0.7127(4)
H17 H 0.7568 0.2956 0.7020
C27 C 0.6585(7) 0.2694(5) 0.7940(3)
H18 H 0.6322 0.2144 0.7814
H19 H 0.6109 0.2851 0.8223
C28 C 0.7780(9) 0.2621(6) 0.8102(3)
C29 C 0.8350(7) 0.1853(6) 0.8139(3)
H20 H 0.7991 0.1365 0.8015
C30 C 0.9432(8) 0.1759(6) 0.8350(3)
H21 H 0.9748 0.1213 0.8381
C31 C 1.0038(8) 0.2462(7) 0.8512(3)
C32 C 0.9490(9) 0.3240(7) 0.8479(3)
H22 H 0.9862 0.3730 0.8593
C33 C 0.8404(9) 0.3313(6) 0.8282(3)
H23 H 0.8072 0.3856 0.8269
C34 C 1.1128(7) 0.2353(6) 0.8760(3)
H24 H 1.1301 0.2874 0.8945
H25 H 1.1061 0.1889 0.9001
C35 C 1.2381(7) 0.2678(6) 0.8040(4)
H26 H 1.2054 0.3193 0.7937
C36 C 1.3261(7) 0.2283(5) 0.7831(3)
H27 H 1.3678 0.2494 0.7562
C37 C 1.2720(6) 0.1532(6) 0.8441(3)
H28 H 1.2678 0.1112 0.8688
Zn1A Zn -0.02804(6) 0.43351(5) 0.20428(3)
Zn1B Zn 1.47196(6) 0.06649(5) 0.79572(3)
N3B N 0.6519(4) 0.6488(4) 0.6922(2)
O4A O 0.4759(4) 0.6123(3) 0.76801(16)
loop_
_geom_bond_atom_site_label_1
_geom_bond_atom_site_label_2
_geom_bond_site_symmetry_1
_geom_bond_site_symmetry_2
Zn1 N1 1_555 1_555
N1 C24 1_555 1_555
N2 C24 1_555 1_555
N3 C36 1_555 1_555
N4 C34 1_555 1_555
O1 Zn1 1_555 1_555
O2 C1 1_555 1_555
O3 H1 1_555 1_555
O4 C12 1_555 1_555
O5 C12 1_555 1_555
O6 H2 1_555 1_555
C1 O1 1_555 1_555
C2 H3 1_555 1_555
C3 C1 1_555 1_555
C4 O3 1_555 1_555
C5 C4 1_555 1_555
C6 C5 1_555 1_555
C7 C2 1_555 1_555
C8 C7 1_555 1_555
H4 C8 1_555 1_555
C9 C8 1_555 1_555
H5 C9 1_555 1_555
C10 C9 1_555 1_555
H6 C10 1_555 1_555
C11 C6 1_555 1_555
H7 C11 1_555 1_555
C12 C14 1_555 1_555
C13 H8 1_555 1_555
C14 C13 1_555 1_555
C15 O6 1_555 1_555
C16 C15 1_555 1_555
C17 C16 1_555 1_555
C18 C13 1_555 1_555
C19 C18 1_555 1_555
H9 C19 1_555 1_555
C20 C19 1_555 1_555
H10 C20 1_555 1_555
C21 C20 1_555 1_555
H11 C21 1_555 1_555
C22 C17 1_555 1_555
H12 C22 1_555 1_555
C23 C5 1_555 1_555
H13 C23 1_555 1_555
H14 C23 1_555 1_555
C24 H15 1_555 1_555
C25 N1 1_555 1_555
H16 C25 1_555 1_555
C26 N2 1_555 1_555
H17 C26 1_555 1_555
C27 N2 1_555 1_555
H18 C27 1_555 1_555
H19 C27 1_555 1_555
C28 C27 1_555 1_555
C29 C28 1_555 1_555
H20 C29 1_555 1_555
C30 C29 1_555 1_555
H21 C30 1_555 1_555
C31 C30 1_555 1_555
C32 C31 1_555 1_555
H22 C32 1_555 1_555
C33 C28 1_555 1_555
H23 C33 1_555 1_555
C34 C31 1_555 1_555
H24 C34 1_555 1_555
H25 C34 1_555 1_555
C35 N4 1_555 1_555
H26 C35 1_555 1_555
C36 C35 1_555 1_555
H27 C36 1_555 1_555
C37 N3 1_555 1_555
H28 C37 1_555 1_555
Zn1A O4 1_555 1_555
Zn1B N3 1_555 1_555
N3B Zn1 1_555 1_555
O4A Zn1 1_555 1_555
N4 C37 1_555 1_555
C2 C3 1_555 1_555
C3 C4 1_555 1_555
C6 C7 1_555 1_555
C10 C11 1_555 1_555
C14 C15 1_555 1_555
C16 C23 1_555 1_555
C17 C18 1_555 1_555
C21 C22 1_555 1_555
C25 C26 1_555 1_555
C32 C33 1_555 1_555

#END
