
#######################################################################
#
#                 Cambridge Crystallographic Data Centre
#                                CCDC 
#
#######################################################################
#
# If this CIF has been generated from an entry in the Cambridge 
# Structural Database, then it will include bibliographic, chemical, 
# crystal, experimental, refinement or atomic coordinate data resulting 
# from the CCDC's data processing and validation procedures.
#
#######################################################################

data_UXEHEL
_symmetry_cell_setting           monoclinic
_symmetry_space_group_name_H-M   'P 21/n'
_symmetry_Int_Tables_number      14
_space_group_name_Hall           '-P 2yn'
loop_
_symmetry_equiv_pos_site_id
_symmetry_equiv_pos_as_xyz
1 x,y,z
2 1/2-x,1/2+y,1/2-z
3 -x,-y,-z
4 1/2+x,1/2-y,1/2+z
_cell_length_a                   14.7035(14)
_cell_length_b                   17.1809(17)
_cell_length_c                   16.0916(16)
_cell_angle_alpha                90
_cell_angle_beta                 104.6000(10)
_cell_angle_gamma                90
_cell_volume                     3933.79
loop_
_atom_site_label
_atom_site_type_symbol
_atom_site_fract_x
_atom_site_fract_y
_atom_site_fract_z
Zn1 Zn 0.13596(3) 0.07762(3) -0.08670(3)
N1 N 0.2358(2) 0.0787(2) -0.1499(2)
N2 N 0.3754(2) 0.0713(2) -0.1751(3)
N3 N 0.4661(2) 0.5111(2) -0.3385(2)
N4 N 0.5685(2) 0.4180(2) -0.2990(2)
O1 O 0.16359(19) 0.01070(17) 0.01503(17)
O2 O 0.2812(2) 0.09136(17) 0.06520(17)
O3 O 0.38739(18) 0.07135(16) 0.21603(16)
H1 H 0.3649 0.0928 0.1699
O4 O 0.6321(2) 0.2482(2) 0.3756(2)
O5 O 0.5644(2) 0.33575(19) 0.4402(2)
O6 O 0.5726(2) 0.10878(17) 0.36072(19)
H2 H 0.6075 0.1458 0.3595
C1 C 0.2329(3) 0.0334(3) 0.0736(3)
C2 C 0.3549(3) -0.0301(2) 0.3018(2)
C3 C 0.3328(3) 0.0101(2) 0.2252(3)
C4 C 0.2564(3) -0.0108(2) 0.1564(2)
C5 C 0.2034(3) -0.0733(2) 0.1666(2)
H3 H 0.1524 -0.0871 0.1219
C6 C 0.2232(3) -0.1175(2) 0.2424(3)
C7 C 0.3009(3) -0.0963(2) 0.3104(3)
C8 C 0.3194(3) -0.1448(3) 0.3850(3)
H4 H 0.3703 -0.1335 0.4308
C9 C 0.2645(3) -0.2069(3) 0.3903(3)
H5 H 0.2788 -0.2373 0.4397
C10 C 0.1871(3) -0.2264(3) 0.3235(3)
H6 H 0.1498 -0.2690 0.3285
C11 C 0.1669(3) -0.1824(3) 0.2513(3)
H7 H 0.1152 -0.1950 0.2067
C12 C 0.4403(3) -0.0043(2) 0.3721(3)
H8 H 0.4483 -0.0401 0.4200
H9 H 0.4957 -0.0084 0.3500
C13 C 0.5710(3) 0.2693(3) 0.4117(3)
C14 C 0.4355(3) 0.0778(3) 0.4054(2)
C15 C 0.5027(3) 0.1314(3) 0.3967(2)
C16 C 0.5008(3) 0.2095(3) 0.4243(2)
C17 C 0.4309(3) 0.2315(3) 0.4609(2)
H10 H 0.4277 0.2830 0.4777
C18 C 0.3635(3) 0.1784(3) 0.4740(3)
C19 C 0.3666(3) 0.1008(3) 0.4472(2)
C20 C 0.2990(3) 0.0481(3) 0.4647(3)
H11 H 0.2997 -0.0036 0.4479
C21 C 0.2338(4) 0.0719(5) 0.5055(3)
H12 H 0.1908 0.0362 0.5165
C22 C 0.2299(4) 0.1492(5) 0.5314(4)
H13 H 0.1843 0.1647 0.5588
C23 C 0.2931(4) 0.2017(4) 0.5165(3)
H14 H 0.2907 0.2531 0.5340
C24 C 0.3266(3) 0.0877(3) -0.1176(3)
H15 H 0.3536 0.1036 -0.0616
C25 C 0.2273(4) 0.0547(3) -0.2323(3)
H16 H 0.1707 0.0436 -0.2717
C26 C 0.3127(4) 0.0493(4) -0.2482(4)
H17 H 0.3259 0.0336 -0.2992
C27 C 0.4777(3) 0.0759(3) -0.1609(3)
H18 H 0.4990 0.0315 -0.1881
H19 H 0.5064 0.0726 -0.0998
C28 C 0.5112(3) 0.1498(3) -0.1954(3)
C29 C 0.4653(4) 0.1813(3) -0.2718(4)
H20 H 0.4087 0.1596 -0.3021
C30 C 0.5011(4) 0.2448(3) -0.3054(3)
H21 H 0.4680 0.2648 -0.3581
C31 C 0.5837(3) 0.2792(3) -0.2634(3)
C32 C 0.6285(3) 0.2480(3) -0.1853(3)
H22 H 0.6845 0.2702 -0.1542
C33 C 0.5926(3) 0.1849(3) -0.1517(3)
H23 H 0.6243 0.1657 -0.0982
C34 C 0.6232(3) 0.3469(3) -0.3025(3)
H24 H 0.6882 0.3552 -0.2715
H25 H 0.6218 0.3351 -0.3617
C35 C 0.5042(3) 0.4495(3) -0.3636(3)
H26 H 0.4885 0.4302 -0.4193
C36 C 0.5734(3) 0.4623(3) -0.2289(3)
H27 H 0.6125 0.4545 -0.1743
C37 C 0.5106(3) 0.5196(3) -0.2534(3)
H28 H 0.4991 0.5592 -0.2180
Zn1A Zn 0.36404(3) 0.57762(3) -0.41330(3)
Zn1C Zn 0.63596(3) 0.42238(3) 0.41330(3)
N3A N 0.0339(2) 0.0111(2) -0.1615(2)
O5C O 0.0644(2) 0.16425(19) -0.0598(2)
N5 N 0.0866(7) 0.8671(6) 0.5277(7)
O7 O -0.0249(7) 0.9085(10) 0.4211(8)
C38 C 0.0575(8) 0.8910(8) 0.4490(7)
H29 H 0.0991 0.8948 0.4142
C39 C 0.0291(8) 0.8598(10) 0.5874(9)
H30 H 0.0229 0.9097 0.6123
H31 H 0.0578 0.8238 0.6319
H32 H -0.0320 0.8410 0.5578
C40 C 0.1856(8) 0.8508(10) 0.5674(9)
H33 H 0.2216 0.8581 0.5258
H34 H 0.1922 0.7980 0.5876
H35 H 0.2081 0.8855 0.6148
N6 N 0.3499(7) 0.8392(6) 0.8553(5)
O8 O 0.4403(10) 0.9052(6) 0.9572(6)
C41 C 0.3490(9) 0.8925(7) 0.9171(8)
H36 H 0.2966 0.9156 0.9293
C42 C 0.4444(8) 0.8122(10) 0.8513(9)
H37 H 0.4616 0.8370 0.8039
H38 H 0.4435 0.7568 0.8434
H39 H 0.4894 0.8254 0.9038
C43 C 0.2709(8) 0.8072(9) 0.7945(7)
H40 H 0.2147 0.8179 0.8125
H41 H 0.2787 0.7520 0.7908
H42 H 0.2661 0.8303 0.7392
C44? C 0.0203(10) 0.8965(13) 0.4804(11)
C45? C 0.1014(14) 0.7706(12) 0.5418(13)
C46? C 0.1180(16) 0.8928(14) 0.6200(11)
C47? C 0.3279(15) 0.8841(16) 0.9229(16)
C48? C 0.4843(14) 0.834(3) 0.934(2)
C49? C 0.344(2) 0.793(2) 0.8115(18)
H43? H 0.0134 0.9485 0.4936
H44? H 0.0471 0.7387 0.5194
H45? H 0.1292 0.7564 0.6005
H46? H 0.1463 0.7628 0.5084
H47? H 0.1653 0.9281 0.6111
H48? H 0.1464 0.8550 0.6626
H49? H 0.0710 0.9214 0.6393
H50? H 0.3487 0.9138 0.9723
H51? H 0.5092 0.8863 0.9427
H52? H 0.5174 0.8057 0.8995
H53? H 0.4919 0.8091 0.9884
H54? H 0.2862 0.8168 0.7803
H55? H 0.3317 0.7409 0.8268
H56? H 0.3878 0.7923 0.7764
N7? N 0.0734(9) 0.8525(12) 0.5377(10)
N8? N 0.3831(13) 0.8379(15) 0.8892(13)
O9? O -0.0203(10) 0.8730(17) 0.4111(12)
O10? O 0.2471(13) 0.8817(16) 0.8801(18)
loop_
_geom_bond_atom_site_label_1
_geom_bond_atom_site_label_2
_geom_bond_site_symmetry_1
_geom_bond_site_symmetry_2
Zn1 N1 1_555 1_555
N1 C24 1_555 1_555
N2 C24 1_555 1_555
N3 C35 1_555 1_555
N4 C34 1_555 1_555
N5 C38 1_555 1_555
N6 C41 1_555 1_555
O1 Zn1 1_555 1_555
O2 C1 1_555 1_555
O3 H1 1_555 1_555
O4 C13 1_555 1_555
O5 C13 1_555 1_555
O6 H2 1_555 1_555
O7 C38 1_555 1_555
O8 C41 1_555 1_555
C1 O1 1_555 1_555
C2 C3 1_555 1_555
C3 O3 1_555 1_555
C4 C1 1_555 1_555
C5 C4 1_555 1_555
H3 C5 1_555 1_555
C6 C5 1_555 1_555
C7 C2 1_555 1_555
C8 C7 1_555 1_555
H4 C8 1_555 1_555
C9 C8 1_555 1_555
H5 C9 1_555 1_555
C10 C9 1_555 1_555
H6 C10 1_555 1_555
C11 C6 1_555 1_555
H7 C11 1_555 1_555
C12 C2 1_555 1_555
H8 C12 1_555 1_555
H9 C12 1_555 1_555
C13 C16 1_555 1_555
C14 C12 1_555 1_555
C15 O6 1_555 1_555
C16 C15 1_555 1_555
C17 C16 1_555 1_555
H10 C17 1_555 1_555
C18 C17 1_555 1_555
C19 C14 1_555 1_555
C20 C19 1_555 1_555
H11 C20 1_555 1_555
C21 C20 1_555 1_555
H12 C21 1_555 1_555
C22 C21 1_555 1_555
H13 C22 1_555 1_555
C23 C18 1_555 1_555
H14 C23 1_555 1_555
C24 H15 1_555 1_555
C25 N1 1_555 1_555
H16 C25 1_555 1_555
C26 N2 1_555 1_555
H17 C26 1_555 1_555
C27 N2 1_555 1_555
H18 C27 1_555 1_555
H19 C27 1_555 1_555
C28 C27 1_555 1_555
C29 C28 1_555 1_555
H20 C29 1_555 1_555
C30 C29 1_555 1_555
H21 C30 1_555 1_555
C31 C30 1_555 1_555
C32 C31 1_555 1_555
H22 C32 1_555 1_555
C33 C28 1_555 1_555
H23 C33 1_555 1_555
C34 C31 1_555 1_555
H24 C34 1_555 1_555
H25 C34 1_555 1_555
C35 N4 1_555 1_555
H26 C35 1_555 1_555
C36 N4 1_555 1_555
H27 C36 1_555 1_555
C37 N3 1_555 1_555
H28 C37 1_555 1_555
C38 H29 1_555 1_555
C39 N5 1_555 1_555
H30 C39 1_555 1_555
H31 C39 1_555 1_555
H32 C39 1_555 1_555
C40 N5 1_555 1_555
H33 C40 1_555 1_555
H34 C40 1_555 1_555
H35 C40 1_555 1_555
C41 H36 1_555 1_555
C42 N6 1_555 1_555
H37 C42 1_555 1_555
H38 C42 1_555 1_555
H39 C42 1_555 1_555
C43 N6 1_555 1_555
H40 C43 1_555 1_555
H41 C43 1_555 1_555
H42 C43 1_555 1_555
Zn1A N3 1_555 1_555
Zn1C O5 1_555 1_555
N3A Zn1 1_555 1_555
O5C Zn1 1_555 1_555
C3 C4 1_555 1_555
C6 C7 1_555 1_555
C10 C11 1_555 1_555
C14 C15 1_555 1_555
C18 C19 1_555 1_555
C22 C23 1_555 1_555
C25 C26 1_555 1_555
C32 C33 1_555 1_555
C36 C37 1_555 1_555

#END
