
#######################################################################
#
#                 Cambridge Crystallographic Data Centre
#                                CCDC 
#
#######################################################################
#
# If this CIF has been generated from an entry in the Cambridge 
# Structural Database, then it will include bibliographic, chemical, 
# crystal, experimental, refinement or atomic coordinate data resulting 
# from the CCDC's data processing and validation procedures.
#
#######################################################################

data_UXEHAH
_symmetry_cell_setting           monoclinic
_symmetry_space_group_name_H-M   'P 21/c'
_symmetry_Int_Tables_number      14
_space_group_name_Hall           '-P 2ybc'
loop_
_symmetry_equiv_pos_site_id
_symmetry_equiv_pos_as_xyz
1 x,y,z
2 -x,1/2+y,1/2-z
3 -x,-y,-z
4 x,1/2-y,1/2+z
_cell_length_a                   11.3496(12)
_cell_length_b                   16.7326(19)
_cell_length_c                   17.710(2)
_cell_angle_alpha                90
_cell_angle_beta                 98.4990(10)
_cell_angle_gamma                90
_cell_volume                     3326.34
loop_
_atom_site_label
_atom_site_type_symbol
_atom_site_fract_x
_atom_site_fract_y
_atom_site_fract_z
Zn1 Zn -0.39950(3) 0.01299(3) 0.24289(2)
O1 O -0.3058(2) 0.10288(15) 0.29147(14)
O2 O -0.1685(2) 0.02125(17) 0.35458(14)
O3 O -0.0083(2) 0.07691(15) 0.45835(14)
H1 H -0.0448 0.0442 0.4293
O4 O 0.3516(2) 0.42230(17) 0.70596(14)
O5 O 0.5154(2) 0.43366(16) 0.65269(13)
O6 O 0.1975(2) 0.31637(18) 0.65959(14)
H2 H 0.2279 0.3546 0.6841
N1 N -0.3054(2) -0.06728(19) 0.19292(17)
N2 N -0.1639(2) -0.15573(19) 0.18136(17)
N3 N 0.5325(3) -0.03754(18) 0.32876(16)
N4 N 0.4124(3) -0.07886(19) 0.40817(17)
C1 C -0.2140(4) 0.0902(3) 0.3413(2)
C2 C -0.0119(3) 0.2141(2) 0.49046(19)
C3 C -0.0603(3) 0.1505(2) 0.4458(2)
C4 C -0.1614(3) 0.1593(2) 0.38813(19)
C5 C -0.2115(3) 0.2338(2) 0.3763(2)
H3 H -0.2755 0.2404 0.3375
C6 C -0.1694(3) 0.3007(2) 0.4209(2)
C7 C -0.0701(3) 0.2891(2) 0.4805(2)
C8 C -0.0367(3) 0.3554(3) 0.5290(2)
H4 H 0.0249 0.3496 0.5696
C9 C -0.0933(4) 0.4279(3) 0.5174(3)
H5 H -0.0697 0.4700 0.5506
C10 C -0.1864(4) 0.4400(3) 0.4565(3)
H6 H -0.2219 0.4899 0.4478
C11 C -0.2230(3) 0.3765(3) 0.4106(2)
H7 H -0.2858 0.3837 0.3711
C12 C 0.0952(3) 0.2007(2) 0.55262(18)
H8 H 0.1135 0.1441 0.5544
H9 H 0.0716 0.2149 0.6013
C13 C 0.4137(4) 0.4045(2) 0.6550(2)
C14 C 0.2103(3) 0.2466(2) 0.54461(19)
C15 C 0.2568(3) 0.3021(2) 0.5988(2)
C16 C 0.3647(3) 0.3446(2) 0.59497(19)
C17 C 0.4252(3) 0.3282(2) 0.5355(2)
H10 H 0.4953 0.3560 0.5321
C18 C 0.3856(3) 0.2712(2) 0.4794(2)
C19 C 0.2773(3) 0.2286(2) 0.48414(19)
C20 C 0.2435(3) 0.1687(2) 0.4292(2)
H11 H 0.1742 0.1397 0.4316
C21 C 0.3097(3) 0.1519(2) 0.3721(2)
H12 H 0.2847 0.1121 0.3367
C22 C 0.4145(3) 0.1945(3) 0.3670(2)
H13 H 0.4589 0.1832 0.3281
C23 C 0.4512(3) 0.2525(3) 0.4190(2)
H14 H 0.5208 0.2805 0.4151
C24 C -0.2453(3) -0.1299(2) 0.2244(2)
H15 H -0.2575 -0.1531 0.2704
C25 C -0.2585(4) -0.0526(3) 0.1273(2)
H16 H -0.2826 -0.0116 0.0930
C26 C -0.1721(4) -0.1065(3) 0.1195(2)
H17 H -0.1271 -0.1093 0.0798
C27 C -0.0709(3) -0.2156(2) 0.20548(19)
H18 H -0.0369 -0.2334 0.1612
H19 H -0.1067 -0.2616 0.2265
C28 C 0.0279(3) -0.1831(3) 0.2648(2)
C29 C 0.0320(3) -0.1044(3) 0.2874(2)
H20 H -0.0247 -0.0688 0.2638
C30 C 0.1196(3) -0.0769(3) 0.3451(2)
H21 H 0.1202 -0.0236 0.3601
C31 C 0.2061(3) -0.1289(3) 0.3803(2)
C32 C 0.2029(4) -0.2071(3) 0.3564(2)
H22 H 0.2615 -0.2421 0.3787
C33 C 0.1144(3) -0.2355(3) 0.2998(2)
H23 H 0.1131 -0.2890 0.2855
C34 C 0.3028(3) -0.0984(3) 0.4406(2)
H24 H 0.2749 -0.0510 0.4640
H25 H 0.3210 -0.1386 0.4800
C35 C 0.4217(3) -0.0504(2) 0.3383(2)
H26 H 0.3566 -0.0408 0.3009
C36 C 0.5981(3) -0.0603(2) 0.3972(2)
H27 H 0.6807 -0.0585 0.4082
C37 C 0.5251(3) -0.0856(2) 0.4463(2)
H28 H 0.5475 -0.1039 0.4959
Zn1_2 Zn 0.60050(3) 0.01299(3) 0.24289(2)
Zn1C Zn 0.60050(3) 0.48701(3) 0.74289(2)
O5C O -0.4846(2) 0.06634(16) 0.15269(13)
N3_2 N -0.4675(3) -0.03754(18) 0.32876(16)
loop_
_geom_bond_atom_site_label_1
_geom_bond_atom_site_label_2
_geom_bond_site_symmetry_1
_geom_bond_site_symmetry_2
Zn1 O1 1_555 1_555
O1 C1 1_555 1_555
O2 C1 1_555 1_555
O3 H1 1_555 1_555
O4 C13 1_555 1_555
O5 C13 1_555 1_555
O6 H2 1_555 1_555
N1 Zn1 1_555 1_555
N2 C24 1_555 1_555
N3 C35 1_555 1_555
N4 C34 1_555 1_555
C1 C4 1_555 1_555
C2 C3 1_555 1_555
C3 O3 1_555 1_555
C4 C3 1_555 1_555
C5 C4 1_555 1_555
H3 C5 1_555 1_555
C6 C5 1_555 1_555
C7 C2 1_555 1_555
C8 C7 1_555 1_555
H4 C8 1_555 1_555
C9 C8 1_555 1_555
H5 C9 1_555 1_555
C10 C9 1_555 1_555
H6 C10 1_555 1_555
C11 C6 1_555 1_555
H7 C11 1_555 1_555
C12 C2 1_555 1_555
H8 C12 1_555 1_555
H9 C12 1_555 1_555
C13 C16 1_555 1_555
C14 C12 1_555 1_555
C15 O6 1_555 1_555
C16 C15 1_555 1_555
C17 C16 1_555 1_555
H10 C17 1_555 1_555
C18 C17 1_555 1_555
C19 C14 1_555 1_555
C20 C19 1_555 1_555
H11 C20 1_555 1_555
C21 C20 1_555 1_555
H12 C21 1_555 1_555
C22 C21 1_555 1_555
H13 C22 1_555 1_555
C23 C18 1_555 1_555
H14 C23 1_555 1_555
C24 N1 1_555 1_555
H15 C24 1_555 1_555
C25 N1 1_555 1_555
H16 C25 1_555 1_555
C26 N2 1_555 1_555
H17 C26 1_555 1_555
C27 N2 1_555 1_555
H18 C27 1_555 1_555
H19 C27 1_555 1_555
C28 C27 1_555 1_555
C29 C28 1_555 1_555
H20 C29 1_555 1_555
C30 C29 1_555 1_555
H21 C30 1_555 1_555
C31 C30 1_555 1_555
C32 C31 1_555 1_555
H22 C32 1_555 1_555
C33 C28 1_555 1_555
H23 C33 1_555 1_555
C34 C31 1_555 1_555
H24 C34 1_555 1_555
H25 C34 1_555 1_555
C35 N4 1_555 1_555
H26 C35 1_555 1_555
C36 N3 1_555 1_555
H27 C36 1_555 1_555
C37 N4 1_555 1_555
H28 C37 1_555 1_555
Zn1_2 N3 1_555 1_555
Zn1C O5 1_555 1_555
O5C Zn1 1_555 1_555
N3_2 Zn1 1_555 1_555
C6 C7 1_555 1_555
C10 C11 1_555 1_555
C14 C15 1_555 1_555
C18 C19 1_555 1_555
C22 C23 1_555 1_555
C25 C26 1_555 1_555
C32 C33 1_555 1_555
C36 C37 1_555 1_555

#END
