
#######################################################################
#
#                 Cambridge Crystallographic Data Centre
#                                CCDC 
#
#######################################################################
#
# If this CIF has been generated from an entry in the Cambridge 
# Structural Database, then it will include bibliographic, chemical, 
# crystal, experimental, refinement or atomic coordinate data resulting 
# from the CCDC's data processing and validation procedures.
#
#######################################################################

data_UXEJUD
_symmetry_cell_setting           monoclinic
_symmetry_space_group_name_H-M   'P 21/n'
_symmetry_Int_Tables_number      14
_space_group_name_Hall           '-P 2yn'
loop_
_symmetry_equiv_pos_site_id
_symmetry_equiv_pos_as_xyz
1 x,y,z
2 1/2-x,1/2+y,1/2-z
3 -x,-y,-z
4 1/2+x,1/2-y,1/2+z
_cell_length_a                   8.7634(14)
_cell_length_b                   17.151(3)
_cell_length_c                   12.1511(19)
_cell_angle_alpha                90
_cell_angle_beta                 90.496(11)
_cell_angle_gamma                90
_cell_volume                     1826.25
loop_
_atom_site_label
_atom_site_type_symbol
_atom_site_fract_x
_atom_site_fract_y
_atom_site_fract_z
Cu1 Cu 0.97100(6) 0.08269(3) 0.68820(5)
Cu2 Cu 0.51436(6) 0.00825(3) 0.62923(5)
C1 C 1.1233(5) 0.0061(3) 0.8653(4)
C2 C 1.1727(6) -0.0484(3) 0.9397(4)
H1 H 1.2548 -0.0382 0.9865
C3 C 1.0964(6) -0.1200(3) 0.9435(5)
H2 H 1.1272 -0.1585 0.9928
C4 C 0.9765(6) -0.1323(3) 0.8739(5)
H3 H 0.9244 -0.1795 0.8754
C5 C 0.9320(5) -0.0749(3) 0.8011(4)
H4 H 0.8499 -0.0844 0.7540
C6 C 1.1928(5) 0.0834(3) 0.8520(4)
H5 H 1.2755 0.0994 0.8949
C7 C 1.1874(6) 0.2044(3) 0.7477(5)
H6 H 1.1914 0.2383 0.8116
H7 H 1.2890 0.2011 0.7170
C8 C 1.0837(13) 0.2348(5) 0.6680(8)
H8 H 1.0116 0.2674 0.7070
H9 H 1.1416 0.2690 0.6204
C9 C 1.0800(14) 0.1722(5) 0.4996(7)
H10 H 1.1767 0.1485 0.5163
H11 H 1.0964 0.2214 0.4638
H12 H 1.0223 0.1386 0.4517
C10 C 0.8560(9) 0.2199(5) 0.5702(12)
H13 H 0.7997 0.1859 0.5220
H14 H 0.8747 0.2685 0.5335
H15 H 0.7981 0.2292 0.6356
N1 N 1.0020(4) -0.0064(2) 0.7959(3)
N2 N 1.1348(4) 0.1269(2) 0.7797(3)
N3 N 0.9977(4) 0.1845(2) 0.5991(3)
N4 N 0.8092(4) 0.0322(2) 0.6014(3)
N5 N 0.8213(4) 0.0184(2) 0.5059(4)
N6 N 0.8229(5) 0.0029(3) 0.4139(4)
N7 N 0.5162(8) -0.0736(3) 0.7383(4)
N8 N 0.5448(5) -0.0699(3) 0.8336(4)
N9 N 0.5706(7) -0.0723(3) 0.9246(4)
N10 N 0.5142(5) 0.0983(3) 0.7301(4)
N11 N 0.6304(5) 0.1190(3) 0.7699(4)
N12 N 0.7461(6) 0.1382(4) 0.8089(5)
N13 N 0.4834(4) 0.0722(2) 0.4921(3)
N14 N 0.4952(4) 0.1413(3) 0.4796(4)
N15 N 0.5063(7) 0.2066(3) 0.4692(5)
Cu1B Cu 1.02900(6) -0.08269(3) 0.31180(5)
Cu2B Cu 0.48564(6) -0.00825(3) 0.37077(5)
N6B N 1.1771(5) -0.0029(3) 0.5861(4)
N13B N 0.5166(4) -0.0722(2) 0.5079(3)
loop_
_geom_bond_atom_site_label_1
_geom_bond_atom_site_label_2
_geom_bond_site_symmetry_1
_geom_bond_site_symmetry_2
Cu1 N1 1_555 1_555
Cu2 N4 1_555 1_555
C1 C2 1_555 1_555
C2 H1 1_555 1_555
C3 C2 1_555 1_555
H2 C3 1_555 1_555
C4 C3 1_555 1_555
H3 C4 1_555 1_555
C5 C4 1_555 1_555
H4 C5 1_555 1_555
C6 C1 1_555 1_555
H5 C6 1_555 1_555
C7 H6 1_555 1_555
H7 C7 1_555 1_555
C8 C7 1_555 1_555
H8 C8 1_555 1_555
H9 C8 1_555 1_555
C9 H10 1_555 1_555
H11 C9 1_555 1_555
H12 C9 1_555 1_555
C10 H13 1_555 1_555
H14 C10 1_555 1_555
H15 C10 1_555 1_555
N1 C1 1_555 1_555
N2 Cu1 1_555 1_555
N3 Cu1 1_555 1_555
N4 Cu1 1_555 1_555
N5 N4 1_555 1_555
N6 N5 1_555 1_555
N7 Cu2 1_555 1_555
N8 N7 1_555 1_555
N9 N8 1_555 1_555
N10 Cu2 1_555 1_555
N11 N10 1_555 1_555
N12 Cu1 1_555 1_555
N13 Cu2 1_555 1_555
N14 N13 1_555 1_555
N15 N14 1_555 1_555
Cu1B N6 1_555 1_555
Cu2B N13 1_555 1_555
N6B Cu1 1_555 1_555
N13B Cu2 1_555 1_555
C5 N1 1_555 1_555
C6 N2 1_555 1_555
C7 N2 1_555 1_555
C8 N3 1_555 1_555
C9 N3 1_555 1_555
C10 N3 1_555 1_555
N11 N12 1_555 1_555
Cu2B N13B 1_555 1_555

#END
