
#######################################################################
#
#                 Cambridge Crystallographic Data Centre
#                                CCDC 
#
#######################################################################
#
# If this CIF has been generated from an entry in the Cambridge 
# Structural Database, then it will include bibliographic, chemical, 
# crystal, experimental, refinement or atomic coordinate data resulting 
# from the CCDC's data processing and validation procedures.
#
#######################################################################

data_UXEQIY
_symmetry_cell_setting           monoclinic
_symmetry_space_group_name_H-M   'P 21/n'
_symmetry_Int_Tables_number      14
_space_group_name_Hall           '-P 2yn'
loop_
_symmetry_equiv_pos_site_id
_symmetry_equiv_pos_as_xyz
1 x,y,z
2 1/2-x,1/2+y,1/2-z
3 -x,-y,-z
4 1/2+x,1/2-y,1/2+z
_cell_length_a                   7.7765(18)
_cell_length_b                   7.2405(17)
_cell_length_c                   17.351(4)
_cell_angle_alpha                90
_cell_angle_beta                 91.649(3)
_cell_angle_gamma                90
_cell_volume                     976.556
loop_
_atom_site_label
_atom_site_type_symbol
_atom_site_fract_x
_atom_site_fract_y
_atom_site_fract_z
H1 H -0.055(19) 0.780(12) 0.189(8)
H2 H -0.196(3) 0.67(3) 0.207(15)
Gd1 Gd 0.14829(4) 0.48794(4) 0.25505(2)
C1 C 0.0298(9) 1.0777(10) 0.4277(4)
C2 C 0.0489(9) 0.8846(10) 0.4389(4)
C3 C -0.0181(4) 1.1887(4) 0.48898(18)
H3 H -0.0297 1.3153 0.4814
C4 C 0.0914(4) 0.7550(4) 0.37542(18)
C5 C 0.0580(4) 1.1799(4) 0.35366(18)
C6 C 0.5094(4) 0.6503(4) 0.35495(18)
C7 C 0.6394(4) 0.5871(4) 0.41535(18)
H4 H 0.6859 0.6943 0.4422
H5 H 0.7336 0.5262 0.3901
C8 C 0.5648(12) 0.4552(13) 0.4740(5)
H6 H 0.6581 0.4048 0.5058
H7 H 0.5096 0.3532 0.4468
O1 O 0.1408(6) 0.8182(7) 0.3113(3)
O2 O -0.0863(9) 0.6796(9) 0.2099(4)
O3 O 0.0768(7) 0.5861(7) 0.3866(3)
O4 O -0.0630(6) 1.2629(7) 0.3230(3)
O5 O 0.2124(6) 1.1986(6) 0.3295(3)
O6 O 0.4247(7) 0.5279(6) 0.3186(3)
O7 O 0.4950(7) 0.8177(7) 0.3418(3)
H1B H 0.055(19) 1.220(12) 0.811(8)
H2B H 0.196(3) 1.33(3) 0.793(15)
Gd1B Gd -0.14829(4) 1.51206(4) 0.74495(2)
Gd1A Gd 0.35171(4) 0.98794(4) 0.24495(2)
Gd1_2 Gd 0.14829(4) 1.48794(4) 0.25505(2)
Gd1C Gd -0.35171(4) 1.01206(4) 0.75505(2)
Gd1B_2 Gd -0.14829(4) 0.51206(4) 0.74495(2)
Gd1C_2 Gd 0.64829(4) 0.01206(4) 0.75505(2)
Gd1B_3 Gd 0.85171(4) 0.51206(4) 0.74495(2)
C1B C -0.0298(9) 0.9223(10) 0.5723(4)
C2B C -0.0489(9) 1.1154(10) 0.5611(4)
C3B C 0.0181(4) 0.8113(4) 0.51102(18)
H3B H 0.0297 0.6847 0.5186
C4B C -0.0914(4) 1.2450(4) 0.62458(18)
C5B C -0.0580(4) 0.8201(4) 0.64634(18)
C6B C 0.4906(4) 0.3497(4) 0.64505(18)
C7B C 0.3606(4) 0.4129(4) 0.58465(18)
H4B H 0.3141 0.3057 0.5578
H5B H 0.2664 0.4738 0.6099
C8B C 0.4352(12) 0.5448(13) 0.5260(5)
H6B H 0.3419 0.5952 0.4942
H7B H 0.4904 0.6468 0.5532
O1B O -0.1408(6) 1.1818(7) 0.6887(3)
O1A O 0.3592(6) 0.3182(7) 0.1887(3)
O1C O -0.3592(6) 1.6818(7) 0.8113(3)
O2B O 0.0863(9) 1.3204(9) 0.7901(4)
O3B O -0.0768(7) 1.4139(7) 0.6134(3)
O4B O 0.0630(6) 0.7371(7) 0.6770(3)
O4_2 O -0.0630(6) 0.2629(7) 0.3230(3)
O4B_2 O 0.0630(6) 1.7371(7) 0.6770(3)
O5B O -0.2124(6) 0.8014(6) 0.6705(3)
O5A O 0.2876(6) 0.6986(6) 0.1705(3)
O5_2 O 0.2124(6) 0.1986(6) 0.3295(3)
O5C O -0.2876(6) 1.3014(6) 0.8295(3)
O5B_2 O -0.2124(6) 1.8014(6) 0.6705(3)
O6B O 0.5753(7) 0.4721(6) 0.6814(3)
O6B_2 O -0.4247(7) 1.4721(6) 0.6814(3)
O7B O 0.5050(7) 0.1823(7) 0.6582(3)
O7A O 0.0050(7) 0.3177(7) 0.1582(3)
O7C O -0.0050(7) 1.6823(7) 0.8418(3)
loop_
_geom_bond_atom_site_label_1
_geom_bond_atom_site_label_2
_geom_bond_site_symmetry_1
_geom_bond_site_symmetry_2
H1 O2 1_555 1_555
H2 O2 1_555 1_555
Gd1 O1 1_555 1_555
C1 C2 1_555 1_555
C2 C4 1_555 1_555
C3 C1 1_555 1_555
H3 C3 1_555 1_555
C4 O1 1_555 1_555
C5 C1 1_555 1_555
C6 C7 1_555 1_555
C7 H4 1_555 1_555
H5 C7 1_555 1_555
C8 C7 1_555 1_555
H6 C8 1_555 1_555
H7 C8 1_555 1_555
O1 Gd1A 1_555 1_555
O2 Gd1 1_555 1_555
O3 Gd1 1_555 1_555
O4 C5 1_555 1_555
O5 C5 1_555 1_555
O6 Gd1 1_555 1_555
O7 C6 1_555 1_555
H1B O2B 1_555 1_555
H2B O2B 1_555 1_555
Gd1B O1B 1_555 1_555
Gd1A O5 1_555 1_555
Gd1_2 O4 1_555 1_555
Gd1C O1B 1_555 1_555
Gd1B_2 O4B 1_555 1_555
Gd1C_2 O7B 1_555 1_555
Gd1B_3 O6B 1_555 1_555
C1B C2B 1_555 1_555
C2B C3 1_555 1_555
C3B C2 1_555 1_555
H3B C3B 1_555 1_555
C4B C2B 1_555 1_555
C5B C1B 1_555 1_555
C6B C7B 1_555 1_555
C7B H4B 1_555 1_555
H5B C7B 1_555 1_555
C8B C8 1_555 1_555
H6B C8B 1_555 1_555
H7B C8B 1_555 1_555
O1B C4B 1_555 1_555
O1A Gd1 1_555 1_555
O1C Gd1B 1_555 1_555
O2B Gd1B 1_555 1_555
O3B Gd1B 1_555 1_555
O4B C5B 1_555 1_555
O4_2 Gd1 1_555 1_555
O4B_2 Gd1B 1_555 1_555
O5B Gd1C 1_555 1_555
O5A Gd1 1_555 1_555
O5_2 Gd1 1_555 1_555
O5C Gd1B 1_555 1_555
O5B_2 Gd1B 1_555 1_555
O6B C6B 1_555 1_555
O6B_2 Gd1B 1_555 1_555
O7B C6B 1_555 1_555
O7A Gd1 1_555 1_555
O7C Gd1B 1_555 1_555
C4 O3 1_555 1_555
C6 O6 1_555 1_555
O5 Gd1_2 1_555 1_555
O7 Gd1A 1_555 1_555
Gd1A O5A 1_555 1_555
Gd1C O5C 1_555 1_555
Gd1B_2 O5B 1_555 1_555
C1B C3B 1_555 1_555
C4B O3B 1_555 1_555
C5B O5B 1_555 1_555
C7B C8B 1_555 1_555

#END
