
#######################################################################
#
#                 Cambridge Crystallographic Data Centre
#                                CCDC 
#
#######################################################################
#
# If this CIF has been generated from an entry in the Cambridge 
# Structural Database, then it will include bibliographic, chemical, 
# crystal, experimental, refinement or atomic coordinate data resulting 
# from the CCDC's data processing and validation procedures.
#
#######################################################################

data_UXEQOE
_symmetry_cell_setting           orthorhombic
_symmetry_space_group_name_H-M   'P b c a'
_symmetry_Int_Tables_number      61
_space_group_name_Hall           '-P 2ac 2ab'
loop_
_symmetry_equiv_pos_site_id
_symmetry_equiv_pos_as_xyz
1 x,y,z
2 1/2-x,-y,1/2+z
3 -x,1/2+y,1/2-z
4 1/2+x,1/2-y,-z
5 -x,-y,-z
6 1/2+x,y,1/2-z
7 x,1/2-y,1/2+z
8 1/2-x,1/2+y,z
_cell_length_a                   14.1430(4)
_cell_length_b                   15.7178(4)
_cell_length_c                   16.0889(4)
_cell_angle_alpha                90
_cell_angle_beta                 90
_cell_angle_gamma                90
_cell_volume                     3576.51
loop_
_atom_site_label
_atom_site_type_symbol
_atom_site_fract_x
_atom_site_fract_y
_atom_site_fract_z
C1 C 1.1079(5) 1.3357(5) 1.0745(6)
Cd1 Cd 0.64538(3) 0.92967(2) 0.77869(2)
Cd2 Cd 0.87985(3) 1.01348(2) 0.68899(3)
Cd3 Cd 1.0000 1.0000 1.0000
O1 O 0.8072(3) 0.9755(2) 0.8080(2)
O2 O 0.9031(3) 1.0392(2) 0.8978(2)
N1 N 0.6670(3) 0.9548(3) 0.9145(3)
O3 O 1.0804(3) 1.1243(3) 0.9964(3)
C2 C 0.8252(4) 1.0031(3) 0.8802(4)
C3 C 0.7528(4) 0.9892(3) 0.9422(3)
N2 N 1.1290(4) 1.2524(3) 1.0420(4)
C4 C 1.0637(5) 1.1942(4) 1.0263(5)
H1 H 1.0012 1.2073 1.0388
C5 C 1.2249(5) 1.2384(4) 1.0185(6)
H2 H 1.2644 1.2401 1.0670
H3 H 1.2444 1.2820 0.9804
H4 H 1.2306 1.1838 0.9923
H5 H 1.0566 1.3187 1.1059
H6 H 1.1075 1.3638 1.0342
H7 H 1.1656 1.3353 1.1128
N3 N 0.6537(3) 0.9765(3) 1.0523(3)
C6 C 0.6118(4) 0.9484(3) 0.9825(3)
H8 H 0.5506 0.9267 0.9812
C7 C 0.7436(4) 1.0021(3) 1.0261(3)
C8 C 0.8060(4) 1.0364(3) 1.0925(4)
O4 O 0.7687(3) 1.0464(2) 1.1633(2)
O5 O 0.8910(3) 1.0582(3) 1.0799(3)
N4 N 0.6112(3) 0.7919(3) 0.7578(3)
C9 C 0.6565(4) 0.7259(3) 0.7237(3)
H9 H 0.7173 0.7294 0.7021
C10 C 0.5256(4) 0.7601(3) 0.7821(3)
O6 O 0.3684(3) 0.6336(2) 0.8025(3)
O7 O 0.4737(3) 0.8933(2) 0.8268(2)
O8 O 0.3755(3) 0.7841(2) 0.8414(3)
N5 N 0.6049(3) 0.6538(3) 0.7238(3)
C11 C 0.4460(4) 0.6125(3) 0.7677(4)
C12 C 0.5219(4) 0.6747(3) 0.7605(4)
C13 C 0.4536(4) 0.8166(3) 0.8198(4)
O9 O 0.4592(3) 0.5404(2) 0.7362(2)
H10 H 0.376(4) 0.6836(16) 0.823(3)
C1D C 0.8921(5) 0.6643(5) 0.9255(6)
Cd1D Cd 1.35462(3) 1.07033(2) 1.22131(2)
Cd1A Cd 0.85462(3) 1.07033(2) 1.27869(2)
Cd1B Cd 0.35462(3) 0.42967(2) 0.72131(2)
Cd1E Cd 1.14538(3) 0.92967(2) 0.72131(2)
Cd1B_2 Cd 0.35462(3) 1.42967(2) 0.72131(2)
Cd2D Cd 1.12015(3) 0.98652(2) 1.31101(3)
Cd2A Cd 0.62015(3) 0.98652(2) 1.18899(3)
Cd2E Cd 0.37985(3) 1.01348(2) 0.81101(3)
Cd2G Cd 0.62015(3) 0.51348(2) 0.68899(3)
Cd2E_2 Cd 1.37985(3) 1.01348(2) 0.81101(3)
Cd2G_2 Cd 0.62015(3) 1.51348(2) 0.68899(3)
O1D O 1.1928(3) 1.0245(2) 1.1920(2)
O2D O 1.0969(3) 0.9608(2) 1.1022(2)
N1D N 1.3330(3) 1.0452(3) 1.0855(3)
O3D O 0.9196(3) 0.8757(3) 1.0036(3)
C2D C 1.1748(4) 0.9969(3) 1.1198(4)
C3D C 1.2472(4) 1.0108(3) 1.0578(3)
N2D N 0.8710(4) 0.7476(3) 0.9580(4)
C4D C 0.9363(5) 0.8058(4) 0.9737(5)
H1D H 0.9988 0.7927 0.9612
C5D C 0.7751(5) 0.7616(4) 0.9815(6)
H2D H 0.7356 0.7599 0.9330
H3D H 0.7556 0.7180 1.0196
H4D H 0.7694 0.8162 1.0077
H5D H 0.9434 0.6813 0.8941
H6D H 0.8925 0.6362 0.9658
H7D H 0.8344 0.6647 0.8872
N3D N 1.3463(3) 1.0235(3) 0.9477(3)
N3A N 0.8463(3) 1.0235(3) 0.5523(3)
N3E N 1.1537(3) 0.9765(3) 1.4477(3)
C6D C 1.3882(4) 1.0516(3) 1.0175(3)
H8D H 1.4494 1.0733 1.0188
C7D C 1.2564(4) 0.9979(3) 0.9739(3)
C8D C 1.1940(4) 0.9636(3) 0.9075(4)
O4D O 1.2313(3) 0.9536(2) 0.8367(2)
O4A O 0.7313(3) 0.9536(2) 0.6633(2)
O4E O 1.2687(3) 1.0464(2) 1.3367(2)
O5D O 1.1090(3) 0.9418(3) 0.9201(3)
N4B N 0.3888(3) 1.2919(3) 0.7422(3)
N4D N 1.3888(3) 1.2081(3) 1.2422(3)
C9B C 0.3435(4) 1.2259(3) 0.7763(3)
H9B H 0.2827 1.2294 0.7979
C10B C 0.4744(4) 1.2601(3) 0.7179(3)
O6B O 0.6316(3) 1.1336(2) 0.6975(3)
O7B O 0.5263(3) 1.3933(2) 0.6732(2)
O7E O 0.9737(3) 0.8933(2) 0.6732(2)
O7D O 1.5263(3) 1.1067(2) 1.1732(2)
O7A O 1.0263(3) 1.1067(2) 1.3268(2)
O8B O 0.6245(3) 1.2841(2) 0.6586(3)
N5B N 0.3951(3) 1.1538(3) 0.7762(3)
N5G N 0.8951(3) 1.1538(3) 0.7238(3)
N5C N 1.1049(3) 0.8462(3) 1.2762(3)
C11B C 0.5540(4) 1.1125(3) 0.7323(4)
C12B C 0.4781(4) 1.1747(3) 0.7395(4)
C13B C 0.5464(4) 1.3166(3) 0.6802(4)
O9B O 0.5408(3) 1.0404(2) 0.7638(2)
O9G O 1.0408(3) 1.0404(2) 0.7362(2)
O9F O 1.4592(3) 0.9596(2) 1.2362(2)
O9C O 0.9592(3) 0.9596(2) 1.2638(2)
H10B H 0.624(4) 1.1836(16) 0.677(3)
loop_
_geom_bond_atom_site_label_1
_geom_bond_atom_site_label_2
_geom_bond_site_symmetry_1
_geom_bond_site_symmetry_2
C1 N2 1_555 1_555
Cd1 O1 1_555 1_555
Cd2 O1 1_555 1_555
Cd3 O2 1_555 1_555
O1 C2 1_555 1_555
O2 C2 1_555 1_555
N1 Cd1 1_555 1_555
O3 Cd3 1_555 1_555
C2 C3 1_555 1_555
C3 N1 1_555 1_555
N2 C4 1_555 1_555
C4 O3 1_555 1_555
H1 C4 1_555 1_555
C5 N2 1_555 1_555
H2 C5 1_555 1_555
H3 C5 1_555 1_555
H4 C5 1_555 1_555
H5 C1 1_555 1_555
H6 C1 1_555 1_555
H7 C1 1_555 1_555
N3 C6 1_555 1_555
C6 N1 1_555 1_555
H8 C6 1_555 1_555
C7 C3 1_555 1_555
C8 C7 1_555 1_555
O4 C8 1_555 1_555
O5 Cd3 1_555 1_555
N4 Cd1 1_555 1_555
C9 N4 1_555 1_555
H9 C9 1_555 1_555
C10 N4 1_555 1_555
O6 C11 1_555 1_555
O7 Cd1 1_555 1_555
O8 C13 1_555 1_555
N5 C9 1_555 1_555
C11 C12 1_555 1_555
C12 C10 1_555 1_555
C13 C10 1_555 1_555
O9 C11 1_555 1_555
H10 O6 1_555 1_555
C1D N2D 1_555 1_555
Cd1D O1D 1_555 1_555
Cd1A O4 1_555 1_555
Cd1B O9 1_555 1_555
Cd1E O4D 1_555 1_555
Cd1B_2 N4B 1_555 1_555
Cd2D O1D 1_555 1_555
Cd2A N3 1_555 1_555
Cd2E O7 1_555 1_555
Cd2G N5 1_555 1_555
Cd2E_2 N3D 1_555 1_555
Cd2G_2 O7B 1_555 1_555
O1D C2D 1_555 1_555
O2D Cd3 1_555 1_555
N1D Cd1D 1_555 1_555
O3D Cd3 1_555 1_555
C2D O2D 1_555 1_555
C3D N1D 1_555 1_555
N2D C4D 1_555 1_555
C4D O3D 1_555 1_555
H1D C4D 1_555 1_555
C5D N2D 1_555 1_555
H2D C5D 1_555 1_555
H3D C5D 1_555 1_555
H4D C5D 1_555 1_555
H5D C1D 1_555 1_555
H6D C1D 1_555 1_555
H7D C1D 1_555 1_555
N3D C6D 1_555 1_555
N3A Cd2 1_555 1_555
N3E Cd2D 1_555 1_555
C6D N1D 1_555 1_555
H8D C6D 1_555 1_555
C7D C3D 1_555 1_555
C8D C7D 1_555 1_555
O4D Cd2E_2 1_555 1_555
O4A Cd1 1_555 1_555
O4E Cd1D 1_555 1_555
O5D Cd3 1_555 1_555
N4B C9B 1_555 1_555
N4D Cd1D 1_555 1_555
C9B H9B 1_555 1_555
C10B N4B 1_555 1_555
O6B C11B 1_555 1_555
O7B Cd1B_2 1_555 1_555
O7E Cd2 1_555 1_555
O7D Cd1D 1_555 1_555
O7A Cd1A 1_555 1_555
O8B C13B 1_555 1_555
N5B Cd2E 1_555 1_555
N5G Cd2 1_555 1_555
N5C Cd2D 1_555 1_555
C11B C12B 1_555 1_555
C12B C10B 1_555 1_555
C13B C10B 1_555 1_555
O9B Cd1 1_555 1_555
O9G Cd2 1_555 1_555
O9F Cd1D 1_555 1_555
O9C Cd1A 1_555 1_555
H10B O6B 1_555 1_555
Cd2 O4A 1_555 1_555
N3 C7 1_555 1_555
C8 O5 1_555 1_555
O4 Cd2A 1_555 1_555
O7 C13 1_555 1_555
N5 C12 1_555 1_555
O9 Cd2G 1_555 1_555
Cd1E O7E 1_555 1_555
Cd1E O9G 1_555 1_555
Cd2D O4E 1_555 1_555
Cd2D O7A 1_555 1_555
Cd2D O9C 1_555 1_555
Cd2E O9B 1_555 1_555
C2D C3D 1_555 1_555
N3D C7D 1_555 1_555
C8D O4D 1_555 1_555
C8D O5D 1_555 1_555
C9B N5B 1_555 1_555
O7B C13B 1_555 1_555
N5B C12B 1_555 1_555
C11B O9B 1_555 1_555

#END
