
#######################################################################
#
#                 Cambridge Crystallographic Data Centre
#                                CCDC 
#
#######################################################################
#
# If this CIF has been generated from an entry in the Cambridge 
# Structural Database, then it will include bibliographic, chemical, 
# crystal, experimental, refinement or atomic coordinate data resulting 
# from the CCDC's data processing and validation procedures.
#
#######################################################################

data_UXEQAQ
_symmetry_cell_setting           orthorhombic
_symmetry_space_group_name_H-M   'P b c a'
_symmetry_Int_Tables_number      61
_space_group_name_Hall           '-P 2ac 2ab'
loop_
_symmetry_equiv_pos_site_id
_symmetry_equiv_pos_as_xyz
1 x,y,z
2 1/2-x,-y,1/2+z
3 -x,1/2+y,1/2-z
4 1/2+x,1/2-y,-z
5 -x,-y,-z
6 1/2+x,y,1/2-z
7 x,1/2-y,1/2+z
8 1/2-x,1/2+y,z
_cell_length_a                   15.022(6)
_cell_length_b                   15.146(6)
_cell_length_c                   19.269(7)
_cell_angle_alpha                90
_cell_angle_beta                 90
_cell_angle_gamma                90
_cell_volume                     4384.14
loop_
_atom_site_label
_atom_site_type_symbol
_atom_site_fract_x
_atom_site_fract_y
_atom_site_fract_z
Ni1 Ni 0.94956(4) 0.13105(4) 0.53656(3)
O1 O 0.9104(3) 0.0800(2) 0.62301(18)
O2 O 0.8479(3) -0.0330(3) 0.5676(2)
C1 C 0.7684(4) -0.1424(3) 0.7561(3)
C2 C 0.8367(4) -0.0276(3) 0.6897(3)
N1 N 0.7263(3) -0.2310(3) 0.7584(3)
C3 C 0.8674(4) 0.0076(4) 0.6204(3)
C4 C 0.7934(3) -0.1091(3) 0.6925(3)
H1 H 0.7817 -0.1404 0.6520
C5 C 0.7824(4) -0.0993(4) 0.8178(3)
H2 H 0.7636 -0.1224 0.8600
C6 C 0.8261(4) -0.0196(4) 0.8132(3)
O3 O 0.9001(4) 0.0846(3) 0.8781(2)
C7 C 0.8535(4) 0.0173(4) 0.7509(3)
H3 H 0.8828 0.0714 0.7502
N2 N 0.8419(5) 0.0289(4) 0.8773(3)
O4 O 0.7163(4) -0.2645(3) 0.8153(3)
O5 O 0.7051(4) -0.2643(3) 0.7039(3)
O6 O 0.7957(5) 0.0123(4) 0.9277(3)
O7 O 1.0000(2) 0.1864(2) 0.45483(18)
O8 O 1.0634(3) 0.0691(3) 0.5484(2)
C8 C 1.0464(3) 0.2881(3) 0.3415(3)
H4 H 1.0577 0.3113 0.3853
N3 N 0.8402(3) 0.1969(3) 0.5227(2)
C9 C 1.0044(3) 0.2078(3) 0.3343(3)
C10 C 0.9887(4) 0.1740(4) 0.2683(3)
H5 H 0.9611 0.1195 0.2629
O9 O 1.0223(3) 0.2295(3) 0.0916(2)
C11 C 1.0143(4) 0.2222(4) 0.2109(3)
N4 N 1.1155(4) 0.4204(4) 0.2916(4)
C12 C 1.0560(4) 0.3039(4) 0.2166(3)
H6 H 1.0726 0.3365 0.1778
N5 N 0.9991(4) 0.1861(4) 0.1415(3)
O10 O 1.1397(4) 0.4418(3) 0.3490(3)
C13 C 1.0713(4) 0.3334(4) 0.2828(3)
O11 O 1.1265(4) 0.4646(3) 0.2400(3)
O12 O 0.9668(5) 0.1132(4) 0.1374(3)
O13 O 0.9330(3) 0.0865(3) 0.38662(19)
C14 C 0.9764(4) 0.1547(4) 0.3963(3)
N6 N 0.7537(5) 0.3088(5) 0.5005(3)
C15 C 0.7543(5) 0.1694(5) 0.5264(3)
H7 H 0.7360 0.1122 0.5367
C16 C 0.8375(5) 0.2815(5) 0.5055(4)
H8 H 0.8872 0.3168 0.4979
C17 C 0.6999(5) 0.2375(6) 0.5130(4)
H9 H 0.6380 0.2364 0.5123
H10 H 0.740(6) 0.381(6) 0.496(4)
H11 H 1.090(5) 0.060(4) 0.509(2)
H12 H 1.048(5) 0.022(3) 0.571(3)
Ni1F Ni 0.94956(4) 0.36895(4) 0.03656(3)
O9F O 1.0223(3) 0.2705(3) 0.5916(2)
loop_
_geom_bond_atom_site_label_1
_geom_bond_atom_site_label_2
_geom_bond_site_symmetry_1
_geom_bond_site_symmetry_2
Ni1 O1 1_555 1_555
O1 C3 1_555 1_555
O2 C3 1_555 1_555
C1 N1 1_555 1_555
C2 C3 1_555 1_555
N1 O4 1_555 1_555
C4 C1 1_555 1_555
H1 C4 1_555 1_555
C5 C1 1_555 1_555
H2 C5 1_555 1_555
C6 C5 1_555 1_555
O3 N2 1_555 1_555
C7 C2 1_555 1_555
H3 C7 1_555 1_555
N2 C6 1_555 1_555
O5 N1 1_555 1_555
O6 N2 1_555 1_555
O7 Ni1 1_555 1_555
O8 Ni1 1_555 1_555
C8 H4 1_555 1_555
N3 Ni1 1_555 1_555
C9 C8 1_555 1_555
C10 C9 1_555 1_555
H5 C10 1_555 1_555
O9 N5 1_555 1_555
C11 C10 1_555 1_555
N4 O10 1_555 1_555
C12 C11 1_555 1_555
H6 C12 1_555 1_555
N5 C11 1_555 1_555
C13 C8 1_555 1_555
O11 N4 1_555 1_555
O12 N5 1_555 1_555
O13 C14 1_555 1_555
C14 O7 1_555 1_555
N6 C16 1_555 1_555
C15 N3 1_555 1_555
H7 C15 1_555 1_555
C16 N3 1_555 1_555
H8 C16 1_555 1_555
C17 N6 1_555 1_555
H9 C17 1_555 1_555
H10 N6 1_555 1_555
H11 O8 1_555 1_555
H12 O8 1_555 1_555
Ni1F O9 1_555 1_555
O9F Ni1 1_555 1_555
C2 C4 1_555 1_555
C6 C7 1_555 1_555
C9 C14 1_555 1_555
N4 C13 1_555 1_555
C12 C13 1_555 1_555
C15 C17 1_555 1_555

#END
