
#######################################################################
#
#                 Cambridge Crystallographic Data Centre
#                                CCDC 
#
#######################################################################
#
# If this CIF has been generated from an entry in the Cambridge 
# Structural Database, then it will include bibliographic, chemical, 
# crystal, experimental, refinement or atomic coordinate data resulting 
# from the CCDC's data processing and validation procedures.
#
#######################################################################

data_UXICEK
_symmetry_cell_setting           triclinic
_symmetry_space_group_name_H-M   'P -1'
_symmetry_Int_Tables_number      2
_space_group_name_Hall           '-P 1'
loop_
_symmetry_equiv_pos_site_id
_symmetry_equiv_pos_as_xyz
1 x,y,z
2 -x,-y,-z
_cell_length_a                   10.6700(6)
_cell_length_b                   10.9118(7)
_cell_length_c                   11.7075(7)
_cell_angle_alpha                106.238(3)
_cell_angle_beta                 94.151(3)
_cell_angle_gamma                91.344(3)
_cell_volume                     1303.92
loop_
_atom_site_label
_atom_site_type_symbol
_atom_site_fract_x
_atom_site_fract_y
_atom_site_fract_z
Mo1 Mo -0.01848(3) 0.82439(3) 0.71593(2)
Mo2 Mo -0.21475(3) 1.21124(3) 1.09201(3)
Mo3 Mo -0.23874(3) 1.02952(3) 0.81420(3)
Cr1 Cr 0.0000 1.0000 1.0000
Mn1 Mn 0.0000 0.5000 0.5000
Na1 Na -0.5000 1.0000 1.0000
O1 O -0.1837(2) 1.0059(2) 0.9953(2)
O2 O -0.0215(2) 1.0295(2) 0.8408(2)
O3 O 0.0022(2) 0.8167(2) 0.9126(2)
O4 O 0.1548(2) 0.8398(2) 0.7686(2)
O5 O -0.2089(2) 1.1981(2) 0.9248(2)
O6 O -0.1882(2) 0.8570(2) 0.7572(2)
O7 O -0.0120(3) 0.8885(3) 0.5999(2)
O8 O -0.0434(3) 0.6614(3) 0.6526(2)
O9 O -0.3710(2) 1.1801(3) 1.0977(2)
O10 O -0.1929(3) 1.3743(2) 1.1428(3)
O11 O -0.3942(2) 1.0013(3) 0.8289(2)
O12 O -0.2353(3) 1.0754(3) 0.6853(2)
O13 O 0.1513(2) 0.6186(3) 0.4666(2)
O14 O 0.3150(3) 0.5511(4) 0.5579(4)
O15 O -0.1430(3) 0.7379(3) 1.0666(3)
O16 O -0.3175(3) 0.8445(3) 1.0537(3)
C1 C 0.2678(4) 0.6208(4) 0.5001(4)
C2 C 0.3511(4) 0.7139(4) 0.4653(4)
H1 H 0.3145 0.7756 0.4343
C3 C 0.4753(4) 0.7118(4) 0.4772(4)
H2 H 0.5093 0.6517 0.5119
C4 C 0.5646(3) 0.7955(4) 0.4407(3)
C5 C 0.5301(4) 0.8892(4) 0.3852(3)
H3 H 0.4454 0.9036 0.3721
C6 C 0.7434(4) 0.9392(4) 0.3679(4)
H4 H 0.8048 0.9874 0.3452
C7 C 0.7758(3) 0.8478(4) 0.4188(3)
H5 H 0.8606 0.8314 0.4277
C8 C 0.6924(4) 0.7792(4) 0.4573(4)
H6 H 0.7202 0.7198 0.4958
C9 C -0.2594(4) 0.7543(4) 1.0758(3)
C10 C -0.3316(4) 0.6575(4) 1.1164(4)
H7 H -0.2886 0.5930 1.1377
C11 C -0.4546(4) 0.6608(4) 1.1231(3)
H8 H -0.4947 0.7271 1.1022
C12 C -0.5338(3) 0.5697(3) 1.1602(3)
C13 C -0.4891(4) 0.4667(4) 1.1979(4)
H9 H -0.4033 0.4539 1.2023
C14 C -0.6971(4) 0.4047(4) 1.2226(4)
H10 H -0.7534 0.3501 1.2439
C15 C -0.7388(3) 0.5023(3) 1.1865(3)
H11 H -0.8249 0.5140 1.1825
C16 C -0.6628(4) 0.5845(4) 1.1556(4)
H12 H -0.6962 0.6518 1.1310
N1 N 0.6198(4) 0.9606(4) 0.3499(4)
H13 H 0.5975 1.0185 0.3165
N2 N -0.5710(4) 0.3843(4) 1.2285(4)
H14 H -0.5434 0.3207 1.2510
O17 O 0.1268(3) 0.4400(3) 0.6260(2)
Mo1A Mo 0.01848(3) 1.17561(3) 1.28407(2)
Mo2A Mo 0.21475(3) 0.78876(3) 0.90799(3)
Mo3A Mo 0.23874(3) 0.97048(3) 1.18580(3)
Mn1_2 Mn 0.0000 1.5000 1.5000
Na1_2 Na 0.5000 1.0000 1.0000
O1A O 0.1837(2) 0.9941(2) 1.0047(2)
O2A O 0.0215(2) 0.9705(2) 1.1592(2)
O3A O -0.0022(2) 1.1833(2) 1.0874(2)
O4A O -0.1548(2) 1.1602(2) 1.2314(2)
O5A O 0.2089(2) 0.8019(2) 1.0752(2)
O6A O 0.1882(2) 1.1430(2) 1.2428(2)
O7A O 0.0120(3) 1.1115(3) 1.4001(2)
O8A O 0.0434(3) 1.3386(3) 1.3474(2)
O8A_2 O 0.0434(3) 0.3386(3) 0.3474(2)
O9A O 0.3710(2) 0.8199(3) 0.9023(2)
O9A_2 O -0.6290(2) 0.8199(3) 0.9023(2)
O10A O 0.1929(3) 0.6257(2) 0.8572(3)
O11A O 0.3942(2) 0.9987(3) 1.1711(2)
O11A_2 O -0.6058(2) 0.9987(3) 1.1711(2)
O12A O 0.2353(3) 0.9246(3) 1.3147(2)
O13A O -0.1513(2) 0.3814(3) 0.5334(2)
O14A O -0.3150(3) 0.4489(4) 0.4421(4)
O15A O -0.8570(3) 1.2621(3) 0.9334(3)
O16A O -0.6825(3) 1.1555(3) 0.9463(3)
C1A C -0.2678(4) 0.3792(4) 0.4999(4)
C2A C -0.3511(4) 0.2861(4) 0.5347(4)
H1A H -0.3145 0.2244 0.5657
C3A C -0.4753(4) 0.2882(4) 0.5228(4)
H2A H -0.5093 0.3483 0.4881
C4A C -0.5646(3) 0.2045(4) 0.5593(3)
C5A C -0.5301(4) 0.1108(4) 0.6148(3)
H3A H -0.4454 0.0964 0.6279
C6A C -0.7434(4) 0.0608(4) 0.6321(4)
H4A H -0.8048 0.0126 0.6548
C7A C -0.7758(3) 0.1522(4) 0.5812(3)
H5A H -0.8606 0.1686 0.5723
C8A C -0.6924(4) 0.2208(4) 0.5427(4)
H6A H -0.7202 0.2802 0.5042
C9A C -0.7406(4) 1.2457(4) 0.9242(3)
C10A C -0.6684(4) 1.3425(4) 0.8836(4)
H7A H -0.7114 1.4070 0.8623
C11A C -0.5454(4) 1.3392(4) 0.8769(3)
H8A H -0.5053 1.2729 0.8978
C12A C -0.4662(3) 1.4303(3) 0.8398(3)
C13A C -0.5109(4) 1.5333(4) 0.8021(4)
H9A H -0.5967 1.5461 0.7977
C14A C -0.3029(4) 1.5953(4) 0.7774(4)
H10A H -0.2466 1.6499 0.7561
C15A C -0.2612(3) 1.4977(3) 0.8135(3)
H11A H -0.1751 1.4860 0.8175
C16A C -0.3372(4) 1.4155(4) 0.8444(4)
H12A H -0.3038 1.3482 0.8690
N1A N -0.6198(4) 0.0394(4) 0.6501(4)
H13A H -0.5975 -0.0185 0.6835
N2A N -0.4290(4) 1.6157(4) 0.7715(4)
H14A H -0.4566 1.6793 0.7490
O17A O -0.1268(3) 0.5600(3) 0.3740(2)
O18 O 0.9845(4) 0.4480(4) 0.8563(5)
O19 O 1.0182(3) 0.7891(3) 0.3453(3)
loop_
_geom_bond_atom_site_label_1
_geom_bond_atom_site_label_2
_geom_bond_site_symmetry_1
_geom_bond_site_symmetry_2
Mo1 O2 1_555 1_555
Mo2 O1 1_555 1_555
Mo3 O1 1_555 1_555
Cr1 O1 1_555 1_555
Mn1 O8 1_555 1_555
Na1 O9 1_555 1_555
O2 Mo3 1_555 1_555
O3 Mo1 1_555 1_555
O4 Mo1 1_555 1_555
O5 Mo2 1_555 1_555
O6 Mo1 1_555 1_555
O7 Mo1 1_555 1_555
O8 Mo1 1_555 1_555
O9 Mo2 1_555 1_555
O10 Mo2 1_555 1_555
O11 Mo3 1_555 1_555
O12 Mo3 1_555 1_555
O13 Mn1 1_555 1_555
O14 C1 1_555 1_555
O15 C9 1_555 1_555
O16 Na1 1_555 1_555
C1 O13 1_555 1_555
C2 C1 1_555 1_555
H1 C2 1_555 1_555
C3 C2 1_555 1_555
H2 C3 1_555 1_555
C4 C3 1_555 1_555
C5 C4 1_555 1_555
H3 C5 1_555 1_555
C6 H4 1_555 1_555
C7 C6 1_555 1_555
H5 C7 1_555 1_555
C8 C4 1_555 1_555
H6 C8 1_555 1_555
C9 O16 1_555 1_555
C10 C9 1_555 1_555
H7 C10 1_555 1_555
C11 C10 1_555 1_555
H8 C11 1_555 1_555
C12 C11 1_555 1_555
C13 C12 1_555 1_555
H9 C13 1_555 1_555
C14 H10 1_555 1_555
C15 C14 1_555 1_555
H11 C15 1_555 1_555
C16 C12 1_555 1_555
H12 C16 1_555 1_555
N1 C5 1_555 1_555
H13 N1 1_555 1_555
N2 C13 1_555 1_555
H14 N2 1_555 1_555
O17 Mn1 1_555 1_555
Mo1A O2A 1_555 1_555
Mo2A O3 1_555 1_555
Mo3A O1A 1_555 1_555
Mn1_2 O8A 1_555 1_555
Na1_2 O9A 1_555 1_555
O1A Cr1 1_555 1_555
O2A Cr1 1_555 1_555
O3A Mo2 1_555 1_555
O4A Mo2 1_555 1_555
O5A Mo2A 1_555 1_555
O6A Mo1A 1_555 1_555
O7A Mo1A 1_555 1_555
O8A Mo1A 1_555 1_555
O8A_2 Mn1 1_555 1_555
O9A Mo2A 1_555 1_555
O9A_2 Na1 1_555 1_555
O10A Mo2A 1_555 1_555
O11A Mo3A 1_555 1_555
O11A_2 Na1 1_555 1_555
O12A Mo3A 1_555 1_555
O13A Mn1 1_555 1_555
O14A C1A 1_555 1_555
O15A C9A 1_555 1_555
O16A Na1 1_555 1_555
C1A O13A 1_555 1_555
C2A C1A 1_555 1_555
H1A C2A 1_555 1_555
C3A C2A 1_555 1_555
H2A C3A 1_555 1_555
C4A C3A 1_555 1_555
C5A C4A 1_555 1_555
H3A C5A 1_555 1_555
C6A H4A 1_555 1_555
C7A C6A 1_555 1_555
H5A C7A 1_555 1_555
C8A C4A 1_555 1_555
H6A C8A 1_555 1_555
C9A O16A 1_555 1_555
C10A C9A 1_555 1_555
H7A C10A 1_555 1_555
C11A C10A 1_555 1_555
H8A C11A 1_555 1_555
C12A C11A 1_555 1_555
C13A C12A 1_555 1_555
H9A C13A 1_555 1_555
C14A H10A 1_555 1_555
C15A C14A 1_555 1_555
H11A C15A 1_555 1_555
C16A C12A 1_555 1_555
H12A C16A 1_555 1_555
N1A C5A 1_555 1_555
H13A N1A 1_555 1_555
N2A C13A 1_555 1_555
H14A N2A 1_555 1_555
O17A Mn1 1_555 1_555
Mo3 O5 1_555 1_555
Mo3 O6 1_555 1_555
Cr1 O2 1_555 1_555
Cr1 O3 1_555 1_555
Cr1 O3A 1_555 1_555
Na1 O11 1_555 1_555
O4 Mo2A 1_555 1_555
C6 N1 1_555 1_555
C7 C8 1_555 1_555
C14 N2 1_555 1_555
C15 C16 1_555 1_555
Mo1A O3A 1_555 1_555
Mo1A O4A 1_555 1_555
Mo2A O1A 1_555 1_555
Mo3A O2A 1_555 1_555
Mo3A O5A 1_555 1_555
Mo3A O6A 1_555 1_555
Na1_2 O11A 1_555 1_555
C6A N1A 1_555 1_555
C7A C8A 1_555 1_555
C14A N2A 1_555 1_555
C15A C16A 1_555 1_555

#END
