
#######################################################################
#
#                 Cambridge Crystallographic Data Centre
#                                CCDC 
#
#######################################################################
#
# If this CIF has been generated from an entry in the Cambridge 
# Structural Database, then it will include bibliographic, chemical, 
# crystal, experimental, refinement or atomic coordinate data resulting 
# from the CCDC's data processing and validation procedures.
#
#######################################################################

data_UXIFEN
_symmetry_cell_setting           triclinic
_symmetry_space_group_name_H-M   'P -1'
_symmetry_Int_Tables_number      2
_space_group_name_Hall           '-P 1'
loop_
_symmetry_equiv_pos_site_id
_symmetry_equiv_pos_as_xyz
1 x,y,z
2 -x,-y,-z
_cell_length_a                   11.8366(4)
_cell_length_b                   12.0850(4)
_cell_length_c                   14.9182(5)
_cell_angle_alpha                100.066(2)
_cell_angle_beta                 108.711(2)
_cell_angle_gamma                94.059(2)
_cell_volume                     1971.59
loop_
_atom_site_label
_atom_site_type_symbol
_atom_site_fract_x
_atom_site_fract_y
_atom_site_fract_z
Cd1 Cd 0.00516(2) 0.21124(2) 0.31192(2)
C1 C 0.0263(3) 0.2359(3) 0.5383(3)
C2 C -0.0741(3) 0.1378(3) 0.4838(3)
C3 C -0.1324(3) 0.0783(3) 0.5308(3)
H1 H -0.1122 0.0981 0.5991
C4 C -0.2210(3) -0.0110(3) 0.4760(3)
H2 H -0.2608 -0.055 0.5067
C5 C -0.2514(3) -0.0360(3) 0.3763(3)
H3 H -0.3115 -0.0976 0.338
C6 C -0.1927(3) 0.0305(3) 0.3335(3)
C7 C -0.2266(3) 0.0183(3) 0.2256(3)
H4 H -0.2706 -0.0585 0.1929
H5 H -0.2809 0.0743 0.2042
C8 C -0.1538(3) 0.0616(3) 0.0995(3)
H6 H -0.2081 0.1206 0.0956
H7 H -0.1987 -0.0075 0.0512
C9 C -0.0458(4) 0.1025(3) 0.0748(3)
H8 H 0.016 0.0511 0.0902
H9 H -0.0703 0.102 0.0047
C10 C 0.1138(3) 0.2531(3) 0.1173(3)
H10 H 0.1699 0.1968 0.1332
H11 H 0.1502 0.3254 0.1644
C11 C -0.0511(3) -0.0617(3) 0.2083(3)
H12 H -0.0403 -0.0767 0.2735
H13 H 0.03 -0.0383 0.2067
C12 C -0.1028(4) -0.1736(3) 0.1351(3)
H14 H -0.0618 -0.2359 0.1605
H15 H -0.1897 -0.191 0.1243
C13 C 0.1016(4) 0.2713(3) 0.0177(3)
H16 H 0.1747 0.3187 0.0201
H17 H 0.0316 0.3116 -0.0062
C14 C -0.1459(4) 0.3781(3) 0.2098(3)
C15 C -0.0213(3) 0.4432(3) 0.2405(3)
C16 C -0.0009(4) 0.5294(3) 0.1941(3)
H18 H -0.0646 0.5467 0.143
C17 C 0.1123(4) 0.5890(4) 0.2233(3)
H19 H 0.1291 0.6456 0.1908
C18 C 0.2017(4) 0.5652(3) 0.3009(3)
H20 H 0.2797 0.608 0.3245
C19 C 0.1757(3) 0.4774(3) 0.3439(3)
C20 C 0.2727(3) 0.4469(3) 0.4245(3)
H21 H 0.3474 0.4997 0.4395
H22 H 0.289 0.3694 0.4027
C21 C 0.1868(3) 0.5539(3) 0.5460(3)
H23 H 0.1449 0.5365 0.5906
H24 H 0.1255 0.5686 0.4878
C22 C 0.2754(4) 0.6604(3) 0.5947(3)
H25 H 0.2333 0.7238 0.6131
H26 H 0.3371 0.6484 0.6539
C23 C 0.4294(3) 0.7731(3) 0.5694(3)
H27 H 0.4866 0.7558 0.6284
H28 H 0.4013 0.8462 0.5875
C24 C 0.4897(4) 0.7806(3) 0.4964(3)
H29 H 0.4315 0.7945 0.4362
H30 H 0.5568 0.8439 0.5219
C25 C 0.3490(3) 0.4337(3) 0.5982(3)
H31 H 0.4165 0.4937 0.6097
H32 H 0.3277 0.4421 0.6578
C26 C 0.3902(3) 0.3200(3) 0.5796(3)
H33 H 0.4348 0.3 0.6418
H34 H 0.3197 0.2611 0.545
N1 N -0.1038(3) 0.1145(2) 0.3875(2)
N2 N -0.1195(3) 0.0358(2) 0.1972(2)
N3 N 0.0652(3) 0.4152(2) 0.3121(2)
N4 N 0.2420(3) 0.4513(3) 0.5162(2)
O1 O 0.0645(2) 0.2884(2) 0.48447(19)
O2 O 0.0607(2) 0.2563(2) 0.6268(2)
O3 O 0.0029(2) 0.2146(2) 0.1291(2)
O4 O -0.0860(3) -0.1651(2) 0.0460(2)
O5 O -0.1588(2) 0.2926(2) 0.2452(2)
O6 O -0.2290(3) 0.4148(3) 0.1528(3)
O7 O 0.3301(2) 0.6855(2) 0.5274(2)
O8 O 0.4660(2) 0.3243(2) 0.5229(2)
Cl1 Cl 0.20419(8) 0.14949(8) 0.32939(7)
H35 H 0.181(4) 0.393(4) 0.501(3)
Cd1A Cd -0.00516(2) -0.21124(2) -0.31192(2)
Cd1A_2 Cd 0.99484(2) 0.78876(2) 0.68808(2)
C1A C -0.0263(3) -0.2359(3) -0.5383(3)
C2A C 0.0741(3) -0.1378(3) -0.4838(3)
C3A C 0.1324(3) -0.0783(3) -0.5308(3)
H1A H 0.1122 -0.0981 -0.5991
C4A C 0.2210(3) 0.0110(3) -0.4760(3)
H2A H 0.2608 0.055 -0.5067
C5A C 0.2514(3) 0.0360(3) -0.3763(3)
H3A H 0.3115 0.0976 -0.338
C6A C 0.1927(3) -0.0305(3) -0.3335(3)
C7A C 0.2266(3) -0.0183(3) -0.2256(3)
H4A H 0.2706 0.0585 -0.1929
H5A H 0.2809 -0.0743 -0.2042
C8A C 0.1538(3) -0.0616(3) -0.0995(3)
H6A H 0.2081 -0.1206 -0.0956
H7A H 0.1987 0.0075 -0.0512
C9A C 0.0458(4) -0.1025(3) -0.0748(3)
H8A H -0.016 -0.0511 -0.0902
H9A H 0.0703 -0.102 -0.0047
C10A C -0.1138(3) -0.2531(3) -0.1173(3)
H10A H -0.1699 -0.1968 -0.1332
H11A H -0.1502 -0.3254 -0.1644
C11A C 0.0511(3) 0.0617(3) -0.2083(3)
H12A H 0.0403 0.0767 -0.2735
H13A H -0.03 0.0383 -0.2067
C12A C 0.1028(4) 0.1736(3) -0.1351(3)
H14A H 0.0618 0.2359 -0.1605
H15A H 0.1897 0.191 -0.1243
C13A C -0.1016(4) -0.2713(3) -0.0177(3)
H16A H -0.1747 -0.3187 -0.0201
H17A H -0.0316 -0.3116 0.0062
C14A C 1.1459(4) 0.6219(3) 0.7902(3)
C15A C 1.0213(3) 0.5568(3) 0.7595(3)
C16A C 1.0009(4) 0.4706(3) 0.8059(3)
H18A H 1.0646 0.4533 0.857
C17A C 0.8877(4) 0.4110(4) 0.7767(3)
H19A H 0.8709 0.3544 0.8092
C18A C 0.7983(4) 0.4348(3) 0.6991(3)
H20A H 0.7203 0.392 0.6755
C19A C 0.8243(3) 0.5226(3) 0.6561(3)
C20A C 0.7273(3) 0.5531(3) 0.5755(3)
H21A H 0.6526 0.5003 0.5605
H22A H 0.711 0.6306 0.5973
C21A C 0.8132(3) 0.4461(3) 0.4540(3)
H23A H 0.8551 0.4635 0.4094
H24A H 0.8745 0.4314 0.5122
C22A C 0.7246(4) 0.3396(3) 0.4053(3)
H25A H 0.7667 0.2762 0.3869
H26A H 0.6629 0.3516 0.3461
C23A C 0.5706(3) 0.2269(3) 0.4306(3)
H27A H 0.5134 0.2442 0.3716
H28A H 0.5987 0.1538 0.4125
C24A C 0.5103(4) 0.2194(3) 0.5036(3)
H29A H 0.5685 0.2055 0.5638
H30A H 0.4432 0.1561 0.4781
C25A C 0.6510(3) 0.5663(3) 0.4018(3)
H31A H 0.5835 0.5063 0.3903
H32A H 0.6723 0.5579 0.3422
C26A C 0.6098(3) 0.6800(3) 0.4204(3)
H33A H 0.5652 0.7 0.3582
H34A H 0.6803 0.7389 0.455
N1A N 0.1038(3) -0.1145(2) -0.3875(2)
N2A N 0.1195(3) -0.0358(2) -0.1972(2)
N3A N 0.9348(3) 0.5848(2) 0.6879(2)
N3A_2 N -0.0652(3) -0.4152(2) -0.3121(2)
N4A N 0.7580(3) 0.5487(3) 0.4838(2)
O1A O -0.0645(2) -0.2884(2) -0.48447(19)
O2A O -0.0607(2) -0.2563(2) -0.6268(2)
O3A O -0.0029(2) -0.2146(2) -0.1291(2)
O4A O 0.0860(3) 0.1651(2) -0.0460(2)
O5A O 1.1588(2) 0.7074(2) 0.7548(2)
O5A_2 O 0.1588(2) -0.2926(2) -0.2452(2)
O6A O 1.2290(3) 0.5852(3) 0.8472(3)
O7A O 0.6699(2) 0.3145(2) 0.4726(2)
O8A O 0.5340(2) 0.6757(2) 0.4771(2)
Cl1A Cl -0.20419(8) -0.14949(8) -0.32939(7)
H35A H 0.819(4) 0.607(4) 0.499(3)
C27 C 0.5215(6) 0.2494(7) 0.1238(5)
H36 H 0.5857 0.2408 0.184
C28 C 0.4656(7) 0.3560(8) 0.1437(7)
H37 H 0.529 0.4213 0.1718
H38 H 0.4229 0.3479 0.1891
H39 H 0.4088 0.3677 0.0829
C29 C 0.4283(8) 0.1385(8) 0.0804(8)
H40 H 0.4707 0.0734 0.0692
H41 H 0.3694 0.1457 0.0189
H42 H 0.3867 0.127 0.1259
O9 O 0.5717(4) 0.2579(5) 0.0495(3)
H43 H 0.6191 0.3187 0.0655
C30 C 0.3275(5) 0.8610(5) 0.2418(4)
H44 H 0.2745 0.8615 0.2822
C31 C 0.4247(5) 0.9525(5) 0.2879(5)
H45 H 0.47 0.9425 0.3529
H46 H 0.3921 1.0248 0.2925
H47 H 0.4783 0.9527 0.2496
C32 C 0.2546(6) 0.8692(5) 0.1449(5)
H48 H 0.19 0.8049 0.1175
H49 H 0.305 0.8681 0.104
H50 H 0.2194 0.9402 0.1477
O10 O 0.3734(4) 0.7509(3) 0.2340(3)
H51 H 0.3154 0.6987 0.2068
O11 O -0.2657(3) -0.3621(3) 0.2231(2)
H52 H -0.254(4) -0.415(3) 0.190(3)
H53 H -0.323 -0.3232 0.1975
O12 O 0.5529(4) 0.7661(4) 0.1517(3)
H54 H 0.512(4) 0.738(5) 0.0917(17)
H55 H 0.492(3) 0.785(4) 0.175(3)
O13 O 0.2343(14) 0.5653(9) 0.0502(9)
H56 H 0.310(3) 0.566(4) 0.083(2)
H57 H 0.2255 0.6367 0.0495
loop_
_geom_bond_atom_site_label_1
_geom_bond_atom_site_label_2
_geom_bond_site_symmetry_1
_geom_bond_site_symmetry_2
Cd1 N1 1_555 1_555
C1 C2 1_555 1_555
C2 C3 1_555 1_555
C3 H1 1_555 1_555
C4 C3 1_555 1_555
H2 C4 1_555 1_555
C5 C4 1_555 1_555
H3 C5 1_555 1_555
C6 C5 1_555 1_555
C7 C6 1_555 1_555
H4 C7 1_555 1_555
H5 C7 1_555 1_555
C8 H6 1_555 1_555
H7 C8 1_555 1_555
C9 C8 1_555 1_555
H8 C9 1_555 1_555
H9 C9 1_555 1_555
C10 H10 1_555 1_555
H11 C10 1_555 1_555
C11 H12 1_555 1_555
H13 C11 1_555 1_555
C12 C11 1_555 1_555
H14 C12 1_555 1_555
H15 C12 1_555 1_555
C13 C10 1_555 1_555
H16 C13 1_555 1_555
H17 C13 1_555 1_555
C14 C15 1_555 1_555
C15 C16 1_555 1_555
C16 H18 1_555 1_555
C17 C16 1_555 1_555
H19 C17 1_555 1_555
C18 C17 1_555 1_555
H20 C18 1_555 1_555
C19 C18 1_555 1_555
C20 C19 1_555 1_555
H21 C20 1_555 1_555
H22 C20 1_555 1_555
C21 H23 1_555 1_555
H24 C21 1_555 1_555
C22 C21 1_555 1_555
H25 C22 1_555 1_555
H26 C22 1_555 1_555
C23 H27 1_555 1_555
H28 C23 1_555 1_555
C24 C23 1_555 1_555
H29 C24 1_555 1_555
H30 C24 1_555 1_555
C25 H31 1_555 1_555
H32 C25 1_555 1_555
C26 C25 1_555 1_555
H33 C26 1_555 1_555
H34 C26 1_555 1_555
N1 C2 1_555 1_555
N2 Cd1 1_555 1_555
N3 Cd1 1_555 1_555
N4 C20 1_555 1_555
O1 Cd1 1_555 1_555
O2 C1 1_555 1_555
O3 C9 1_555 1_555
O4 C12 1_555 1_555
O5 Cd1 1_555 1_555
O6 C14 1_555 1_555
O7 C22 1_555 1_555
O8 C26 1_555 1_555
Cl1 Cd1 1_555 1_555
H35 N4 1_555 1_555
C27 H36 1_555 1_555
C28 C27 1_555 1_555
H37 C28 1_555 1_555
H38 C28 1_555 1_555
H39 C28 1_555 1_555
C29 C27 1_555 1_555
H40 C29 1_555 1_555
H41 C29 1_555 1_555
H42 C29 1_555 1_555
O9 C27 1_555 1_555
H43 O9 1_555 1_555
C30 H44 1_555 1_555
C31 C30 1_555 1_555
H45 C31 1_555 1_555
H46 C31 1_555 1_555
H47 C31 1_555 1_555
C32 C30 1_555 1_555
H48 C32 1_555 1_555
H49 C32 1_555 1_555
H50 C32 1_555 1_555
O10 C30 1_555 1_555
H51 O10 1_555 1_555
O11 H52 1_555 1_555
H53 O11 1_555 1_555
O12 H54 1_555 1_555
H55 O12 1_555 1_555
O13 H56 1_555 1_555
H57 O13 1_555 1_555
Cd1A N1A 1_555 1_555
Cd1A_2 N3A 1_555 1_555
C1A C2A 1_555 1_555
C2A C3A 1_555 1_555
C3A H1A 1_555 1_555
C4A C3A 1_555 1_555
H2A C4A 1_555 1_555
C5A C4A 1_555 1_555
H3A C5A 1_555 1_555
C6A C5A 1_555 1_555
C7A C6A 1_555 1_555
H4A C7A 1_555 1_555
H5A C7A 1_555 1_555
C8A H6A 1_555 1_555
H7A C8A 1_555 1_555
C9A C8A 1_555 1_555
H8A C9A 1_555 1_555
H9A C9A 1_555 1_555
C10A H10A 1_555 1_555
H11A C10A 1_555 1_555
C11A H12A 1_555 1_555
H13A C11A 1_555 1_555
C12A C11A 1_555 1_555
H14A C12A 1_555 1_555
H15A C12A 1_555 1_555
C13A O4 1_555 1_555
H16A C13A 1_555 1_555
H17A C13A 1_555 1_555
C14A C15A 1_555 1_555
C15A C16A 1_555 1_555
C16A H18A 1_555 1_555
C17A C16A 1_555 1_555
H19A C17A 1_555 1_555
C18A C17A 1_555 1_555
H20A C18A 1_555 1_555
C19A C18A 1_555 1_555
C20A C19A 1_555 1_555
H21A C20A 1_555 1_555
H22A C20A 1_555 1_555
C21A H23A 1_555 1_555
H24A C21A 1_555 1_555
C22A C21A 1_555 1_555
H25A C22A 1_555 1_555
H26A C22A 1_555 1_555
C23A H27A 1_555 1_555
H28A C23A 1_555 1_555
C24A O8 1_555 1_555
H29A C24A 1_555 1_555
H30A C24A 1_555 1_555
C25A H31A 1_555 1_555
H32A C25A 1_555 1_555
C26A C25A 1_555 1_555
H33A C26A 1_555 1_555
H34A C26A 1_555 1_555
N1A C2A 1_555 1_555
N2A Cd1A 1_555 1_555
N3A C15A 1_555 1_555
N3A_2 Cd1A 1_555 1_555
N4A C20A 1_555 1_555
O1A Cd1A 1_555 1_555
O2A C1A 1_555 1_555
O3A C9A 1_555 1_555
O4A C13 1_555 1_555
O5A Cd1A_2 1_555 1_555
O5A_2 Cd1A 1_555 1_555
O6A C14A 1_555 1_555
O7A C22A 1_555 1_555
O8A C24 1_555 1_555
Cl1A Cd1A 1_555 1_555
H35A N4A 1_555 1_555
C1 O1 1_555 1_555
C6 N1 1_555 1_555
C7 N2 1_555 1_555
C8 N2 1_555 1_555
C10 O3 1_555 1_555
C11 N2 1_555 1_555
C14 O5 1_555 1_555
C15 N3 1_555 1_555
C19 N3 1_555 1_555
C21 N4 1_555 1_555
C23 O7 1_555 1_555
C25 N4 1_555 1_555
C1A O1A 1_555 1_555
C6A N1A 1_555 1_555
C7A N2A 1_555 1_555
C8A N2A 1_555 1_555
C10A C13A 1_555 1_555
C10A O3A 1_555 1_555
C11A N2A 1_555 1_555
C12A O4A 1_555 1_555
C14A O5A 1_555 1_555
C19A N3A 1_555 1_555
C21A N4A 1_555 1_555
C23A C24A 1_555 1_555
C23A O7A 1_555 1_555
C25A N4A 1_555 1_555
C26A O8A 1_555 1_555

#END
