
#######################################################################
#
#                 Cambridge Crystallographic Data Centre
#                                CCDC 
#
#######################################################################
#
# If this CIF has been generated from an entry in the Cambridge 
# Structural Database, then it will include bibliographic, chemical, 
# crystal, experimental, refinement or atomic coordinate data resulting 
# from the CCDC's data processing and validation procedures.
#
#######################################################################

data_UXIVUT
_symmetry_cell_setting           monoclinic
_symmetry_space_group_name_H-M   'C 2/c'
_symmetry_Int_Tables_number      15
_space_group_name_Hall           '-C 2yn'
loop_
_symmetry_equiv_pos_site_id
_symmetry_equiv_pos_as_xyz
1 x,y,z
2 -x,y,1/2-z
3 1/2+x,1/2+y,z
4 1/2-x,1/2+y,1/2-z
5 -x,-y,-z
6 x,-y,1/2+z
7 1/2-x,1/2-y,-z
8 1/2+x,1/2-y,1/2+z
_cell_length_a                   18.9180(13)
_cell_length_b                   7.3603(4)
_cell_length_c                   12.9038(7)
_cell_angle_alpha                90
_cell_angle_beta                 96.722(2)
_cell_angle_gamma                90
_cell_volume                     1784.4
loop_
_atom_site_label
_atom_site_type_symbol
_atom_site_fract_x
_atom_site_fract_y
_atom_site_fract_z
Cu1 Cu 0.5000 0.39714(5) 0.2500
O1 O 0.57565(7) 0.39038(19) 0.37037(12)
O2 O 0.58562(8) 0.0936(2) 0.34503(13)
O3 O 0.57491(8) 0.1409(3) 0.58512(13)
O4 O 0.66255(9) 0.0360(3) 0.70022(13)
H1 H 0.6293 -0.0031 0.7292
O5 O 0.5000 0.7156(3) 0.2500
H2 H 0.5202 0.7826 0.2086
N1 N 0.37017(9) 0.3107(3) 0.47876(14)
N2 N 0.42775(9) 0.3814(3) 0.34915(15)
N3 N 0.35640(10) 0.4239(3) 0.32096(15)
N4 N 0.35105(10) 0.2552(3) 0.57632(14)
H3 H 0.3731 0.1494 0.5941
H4 H 0.3643 0.3455 0.6215
C1 C 0.43437(11) 0.3155(3) 0.44404(17)
H5 H 0.4768 0.2779 0.4815
C2 C 0.32392(12) 0.3779(3) 0.40048(18)
H6 H 0.2752 0.3897 0.4031
C3 C 0.67978(10) 0.2461(3) 0.44987(15)
C4 C 0.69517(10) 0.1807(3) 0.55200(16)
C5 C 0.73490(11) 0.3158(3) 0.39994(16)
H7 H 0.7249 0.3614 0.3326
C6 C 0.60723(10) 0.2398(3) 0.38555(15)
C7 C 0.63763(11) 0.1173(3) 0.61311(17)
Cu1F Cu 1.0000 0.10286(5) 0.7500
O1F O 0.92435(7) 0.10962(19) 0.62963(12)
O1A O 0.42435(7) 0.39038(19) 0.12963(12)
O2F O 0.91438(8) 0.4064(2) 0.65497(13)
O3F O 0.92509(8) 0.3591(3) 0.41488(13)
O4F O 0.83745(9) 0.4640(3) 0.29978(13)
H1F H 0.8707 0.5031 0.2708
H2A H 0.4798 0.7826 0.2914
N1A N 0.62983(9) 0.3107(3) 0.02124(14)
N2A N 0.57225(9) 0.3814(3) 0.15085(15)
N3A N 0.64360(10) 0.4239(3) 0.17904(15)
N4A N 0.64895(10) 0.2552(3) -0.07632(14)
H3A H 0.6269 0.1494 -0.0941
H4A H 0.6357 0.3455 -0.1215
C1A C 0.56563(11) 0.3155(3) 0.05596(17)
H5A H 0.5232 0.2779 0.0185
C2A C 0.67608(12) 0.3779(3) 0.09952(18)
H6A H 0.7248 0.3897 0.0969
C3F C 0.82022(10) 0.2539(3) 0.55013(15)
C4F C 0.80483(10) 0.3193(3) 0.44800(16)
C5F C 0.76510(11) 0.1842(3) 0.60006(16)
H7F H 0.7751 0.1386 0.6674
C6F C 0.89277(10) 0.2602(3) 0.61445(15)
C7F C 0.86237(11) 0.3827(3) 0.38689(17)
loop_
_geom_bond_atom_site_label_1
_geom_bond_atom_site_label_2
_geom_bond_site_symmetry_1
_geom_bond_site_symmetry_2
Cu1 O1 1_555 1_555
O1 C6 1_555 1_555
O2 C6 1_555 1_555
O3 C7 1_555 1_555
O4 H1 1_555 1_555
O5 Cu1 1_555 1_555
H2 O5 1_555 1_555
N1 N4 1_555 1_555
N2 Cu1 1_555 1_555
N3 N2 1_555 1_555
N4 H3 1_555 1_555
H4 N4 1_555 1_555
C1 N1 1_555 1_555
H5 C1 1_555 1_555
C2 N1 1_555 1_555
H6 C2 1_555 1_555
C3 C4 1_555 1_555
C4 C7 1_555 1_555
C5 C3 1_555 1_555
H7 C5 1_555 1_555
C6 C3 1_555 1_555
C7 O4 1_555 1_555
Cu1F O1F 1_555 1_555
O1F C6F 1_555 1_555
O1A Cu1 1_555 1_555
O2F C6F 1_555 1_555
O3F C7F 1_555 1_555
O4F H1F 1_555 1_555
H2A O5 1_555 1_555
N1A N4A 1_555 1_555
N2A Cu1 1_555 1_555
N3A N2A 1_555 1_555
N4A H3A 1_555 1_555
H4A N4A 1_555 1_555
C1A N1A 1_555 1_555
H5A C1A 1_555 1_555
C2A N1A 1_555 1_555
H6A C2A 1_555 1_555
C3F C4F 1_555 1_555
C4F C5 1_555 1_555
C5F C4 1_555 1_555
H7F C5F 1_555 1_555
C6F C3F 1_555 1_555
C7F O4F 1_555 1_555
N2 C1 1_555 1_555
N3 C2 1_555 1_555
N2A C1A 1_555 1_555
N3A C2A 1_555 1_555
C3F C5F 1_555 1_555
C4F C7F 1_555 1_555

#END
