
#######################################################################
#
#                 Cambridge Crystallographic Data Centre
#                                CCDC 
#
#######################################################################
#
# If this CIF has been generated from an entry in the Cambridge 
# Structural Database, then it will include bibliographic, chemical, 
# crystal, experimental, refinement or atomic coordinate data resulting 
# from the CCDC's data processing and validation procedures.
#
#######################################################################

data_UXIWII
_symmetry_cell_setting           monoclinic
_symmetry_space_group_name_H-M   'P 21/c'
_symmetry_Int_Tables_number      14
_space_group_name_Hall           '-P 2ybc'
loop_
_symmetry_equiv_pos_site_id
_symmetry_equiv_pos_as_xyz
1 x,y,z
2 -x,1/2+y,1/2-z
3 -x,-y,-z
4 x,1/2-y,1/2+z
_cell_length_a                   10.1419(14)
_cell_length_b                   8.3005(11)
_cell_length_c                   24.505(3)
_cell_angle_alpha                90
_cell_angle_beta                 108.030(5)
_cell_angle_gamma                90
_cell_volume                     1961.6
loop_
_atom_site_label
_atom_site_type_symbol
_atom_site_fract_x
_atom_site_fract_y
_atom_site_fract_z
Cu1 Cu 0.44278(5) 1.03161(6) 0.562867(19)
Cu2 Cu 0.75889(5) 1.38353(6) 0.847390(19)
O1 O 0.7410(6) 1.2614(4) 0.72991(14)
O2 O 0.7582(3) 1.4914(4) 0.77707(11)
O3 O 0.4484(4) 1.3305(5) 0.64651(14)
O4 O 0.5489(3) 1.2307(3) 0.58399(11)
O5 O 0.6082(3) 1.8945(3) 0.51687(11)
O6 O 0.7855(4) 1.7622(4) 0.50128(13)
O7 O 0.9220(3) 1.9621(4) 0.61558(15)
O8 O 1.0735(3) 1.7619(4) 0.64794(12)
O9 O 0.7788(3) 1.6317(4) 0.88996(12)
H1 H 0.8052 1.6287 0.9264
H2 H 0.7155 1.6989 0.8738
N1 N 0.2326(4) 0.7910(4) 0.57514(15)
N2 N 0.3049(3) 0.8541(4) 0.54058(13)
N3 N 0.1530(4) 0.6863(5) 0.48983(18)
N4 N 0.0675(5) 0.5939(7) 0.4437(2)
H5 H 0.0985 0.6044 0.4132
H6 H -0.0086 0.6539 0.4408
N5 N 0.4521(3) 0.8975(4) 0.67768(13)
N6 N 0.5261(3) 0.9509(4) 0.64202(13)
N7 N 0.6701(3) 0.9211(4) 0.72744(14)
N8 N 0.7908(5) 0.9281(6) 0.7753(2)
H7 H 0.8518 1.0096 0.7864
H8 H 0.8320 0.8311 0.7783
C1 C 0.2543(5) 0.7892(5) 0.48954(18)
H9 H 0.2842 0.8113 0.4581
C2 C 0.1427(5) 0.6893(6) 0.5435(2)
H10 H 0.0809 0.6281 0.5561
C3 C 0.6562(4) 0.9641(5) 0.67294(16)
H11 H 0.7279 0.9979 0.6594
C4 C 0.5421(4) 0.8819(5) 0.72876(17)
H12 H 0.5209 0.8487 0.7613
C5 C 0.7414(4) 1.5035(5) 0.67932(15)
C6 C 0.6346(4) 1.4751(5) 0.62803(16)
C7 C 0.6231(4) 1.5746(5) 0.58127(16)
H13 H 0.5479 1.5625 0.5482
C8 C 0.7223(4) 1.6923(5) 0.58307(15)
C9 C 0.8376(4) 1.7072(5) 0.63185(16)
C10 C 0.8435(4) 1.6164(5) 0.68050(15)
H14 H 0.9166 1.6317 0.7141
C11 C 0.7490(5) 1.4084(5) 0.73274(17)
C12 C 0.5345(4) 1.3344(5) 0.62051(16)
C13 C 0.7072(4) 1.7911(5) 0.52966(16)
C14 C 0.9530(4) 1.8218(5) 0.63185(15)
Cu1_2 Cu 0.44278(5) 0.03161(6) 0.562867(19)
Cu1_3 Cu 0.44278(5) 2.03161(6) 0.562867(19)
Cu1B Cu 0.55722(5) 1.96839(6) 0.437133(19)
Cu1B_2 Cu 0.55722(5) 0.96839(6) 0.437133(19)
Cu1A Cu 0.55722(5) 1.53161(6) 0.937133(19)
Cu2_2 Cu 0.75889(5) 0.38353(6) 0.847390(19)
Cu2A Cu 1.24111(5) 1.88353(6) 0.652610(19)
Cu2A_2 Cu 0.24111(5) 0.88353(6) 0.652610(19)
Cu2A_3 Cu 1.24111(5) 0.88353(6) 0.652610(19)
O1_2 O 0.7410(6) 0.2614(4) 0.72991(14)
O2_2 O 0.7582(3) 0.4914(4) 0.77707(11)
O3_2 O 0.4484(4) 0.3305(5) 0.64651(14)
O4_2 O 0.5489(3) 0.2307(3) 0.58399(11)
O5_2 O 0.6082(3) 0.8945(3) 0.51687(11)
O5B O 0.3918(3) 1.1055(3) 0.48313(11)
O5_3 O 0.6082(3) -0.1055(3) 0.51687(11)
O5B_2 O 0.3918(3) 0.1055(3) 0.48313(11)
O6_2 O 0.7855(4) 0.7622(4) 0.50128(13)
O7_2 O 0.9220(3) 0.9621(4) 0.61558(15)
O8_2 O 1.0735(3) 0.7619(4) 0.64794(12)
O8A O 0.9265(3) 1.2619(4) 0.85206(12)
O8A_2 O 0.9265(3) 0.2619(4) 0.85206(12)
O9_2 O 0.7788(3) 0.6317(4) 0.88996(12)
H1_2 H 0.8052 0.6287 0.9264
H2_2 H 0.7155 0.6989 0.8738
N1A N 0.7674(4) 1.2910(4) 0.92486(15)
N1A_2 N 0.7674(4) 0.2910(4) 0.92486(15)
N2A N 0.6951(3) 1.3541(4) 0.95942(13)
N2_2 N 0.3049(3) -0.1459(4) 0.54058(13)
N3A N 0.8470(4) 1.1863(5) 1.01017(18)
N4A N 0.9325(5) 1.0939(7) 1.0563(2)
H5A H 0.9015 1.1044 1.0868
H6A H 1.0086 1.1539 1.0592
N5A N 0.5479(3) 1.3975(4) 0.82232(13)
N5A_2 N 0.5479(3) 0.3975(4) 0.82232(13)
N6A N 0.4739(3) 1.4509(4) 0.85798(13)
N6_2 N 0.5261(3) -0.0491(4) 0.64202(13)
N7A N 0.3299(3) 1.4211(4) 0.77256(14)
N8A N 0.2092(5) 1.4281(6) 0.7247(2)
H7A H 0.1482 1.5096 0.7136
H8A H 0.1680 1.3311 0.7217
C1A C 0.7457(5) 1.2892(5) 1.01046(18)
H9A H 0.7158 1.3113 1.0419
C2A C 0.8573(5) 1.1893(6) 0.9565(2)
H10A H 0.9191 1.1281 0.9439
C3A C 0.3438(4) 1.4641(5) 0.82706(16)
H11A H 0.2721 1.4979 0.8406
C4A C 0.4579(4) 1.3819(5) 0.77124(17)
H12A H 0.4791 1.3487 0.7387
C5_2 C 0.7414(4) 0.5035(5) 0.67932(15)
C6_2 C 0.6346(4) 0.4751(5) 0.62803(16)
C7_2 C 0.6231(4) 0.5746(5) 0.58127(16)
H13_2 H 0.5479 0.5625 0.5482
C8_2 C 0.7223(4) 0.6923(5) 0.58307(15)
C9_2 C 0.8376(4) 0.7072(5) 0.63185(16)
C10_2 C 0.8435(4) 0.6164(5) 0.68050(15)
H14_2 H 0.9166 0.6317 0.7141
C11_2 C 0.7490(5) 0.4084(5) 0.73274(17)
C12_2 C 0.5345(4) 0.3344(5) 0.62051(16)
C13_2 C 0.7072(4) 0.7911(5) 0.52966(16)
C14_2 C 0.9530(4) 0.8218(5) 0.63185(15)
O10 O 0.0345(5) 0.7489(6) 0.8304(3)
H3 H 0.0228 0.6664 0.8489
H4 H 0.1031 0.7476 0.8174
O11 O 0.0000 0.5000 0.0000
loop_
_geom_bond_atom_site_label_1
_geom_bond_atom_site_label_2
_geom_bond_site_symmetry_1
_geom_bond_site_symmetry_2
Cu1 O4 1_555 1_555
Cu2 O2 1_555 1_555
O1 C11 1_555 1_555
O2 C11 1_555 1_555
O3 C12 1_555 1_555
O4 C12 1_555 1_555
O5 C13 1_555 1_555
O6 C13 1_555 1_555
O7 C14 1_555 1_555
O8 C14 1_555 1_555
O9 Cu2 1_555 1_555
H1 O9 1_555 1_555
H2 O9 1_555 1_555
O10 H3 1_555 1_555
H4 O10 1_555 1_555
N1 N2 1_555 1_555
N2 Cu1 1_555 1_555
N3 N4 1_555 1_555
N4 H5 1_555 1_555
H6 N4 1_555 1_555
N5 N6 1_555 1_555
N6 Cu1 1_555 1_555
N7 N8 1_555 1_555
N8 H7 1_555 1_555
H8 N8 1_555 1_555
C1 N2 1_555 1_555
H9 C1 1_555 1_555
C2 N1 1_555 1_555
H10 C2 1_555 1_555
C3 N6 1_555 1_555
H11 C3 1_555 1_555
C4 N5 1_555 1_555
H12 C4 1_555 1_555
C5 C6 1_555 1_555
C6 C7 1_555 1_555
C7 H13 1_555 1_555
C8 C7 1_555 1_555
C9 C8 1_555 1_555
C10 C5 1_555 1_555
H14 C10 1_555 1_555
C11 C5 1_555 1_555
C12 C6 1_555 1_555
C13 C8 1_555 1_555
C14 C9 1_555 1_555
Cu1_2 O4_2 1_555 1_555
Cu1_3 O5 1_555 1_555
Cu1B O5 1_555 1_555
Cu1B_2 O5_2 1_555 1_555
Cu1A N2A 1_555 1_555
Cu2_2 O2_2 1_555 1_555
Cu2A O8 1_555 1_555
Cu2A_2 N1 1_555 1_555
Cu2A_3 O8_2 1_555 1_555
O1_2 C11_2 1_555 1_555
O2_2 C11_2 1_555 1_555
O3_2 C12_2 1_555 1_555
O4_2 C12_2 1_555 1_555
O5_2 Cu1 1_555 1_555
O5B Cu1 1_555 1_555
O5_3 Cu1_2 1_555 1_555
O5B_2 Cu1_2 1_555 1_555
O6_2 C13_2 1_555 1_555
O7_2 C14_2 1_555 1_555
O8_2 C14_2 1_555 1_555
O8A Cu2 1_555 1_555
O8A_2 Cu2_2 1_555 1_555
O9_2 Cu2_2 1_555 1_555
H1_2 O9_2 1_555 1_555
H2_2 O9_2 1_555 1_555
N1A Cu2 1_555 1_555
N1A_2 Cu2_2 1_555 1_555
N2A N1A 1_555 1_555
N2_2 Cu1_2 1_555 1_555
N3A N4A 1_555 1_555
N4A H5A 1_555 1_555
H6A N4A 1_555 1_555
N5A Cu2 1_555 1_555
N5A_2 Cu2_2 1_555 1_555
N6A Cu1A 1_555 1_555
N6_2 Cu1_2 1_555 1_555
N7A N8A 1_555 1_555
N8A H7A 1_555 1_555
H8A N8A 1_555 1_555
C1A N2A 1_555 1_555
H9A C1A 1_555 1_555
C2A N1A 1_555 1_555
H10A C2A 1_555 1_555
C3A N6A 1_555 1_555
H11A C3A 1_555 1_555
C4A N5A 1_555 1_555
H12A C4A 1_555 1_555
C5_2 C6_2 1_555 1_555
C6_2 C7_2 1_555 1_555
C7_2 H13_2 1_555 1_555
C8_2 C7_2 1_555 1_555
C9_2 C8_2 1_555 1_555
C10_2 C5_2 1_555 1_555
H14_2 C10_2 1_555 1_555
C11_2 C5_2 1_555 1_555
C12_2 C6_2 1_555 1_555
C13_2 O5_2 1_555 1_555
C14_2 C9_2 1_555 1_555
N3 C1 1_555 1_555
N3 C2 1_555 1_555
N5 Cu2A_2 1_555 1_555
N7 C3 1_555 1_555
N7 C4 1_555 1_555
C9 C10 1_555 1_555
Cu1B_2 O5B 1_555 1_555
N3A C1A 1_555 1_555
N3A C2A 1_555 1_555
N5A N6A 1_555 1_555
N7A C3A 1_555 1_555
N7A C4A 1_555 1_555
C8_2 C13_2 1_555 1_555
C9_2 C10_2 1_555 1_555

#END
