
#######################################################################
#
#                 Cambridge Crystallographic Data Centre
#                                CCDC 
#
#######################################################################
#
# If this CIF has been generated from an entry in the Cambridge 
# Structural Database, then it will include bibliographic, chemical, 
# crystal, experimental, refinement or atomic coordinate data resulting 
# from the CCDC's data processing and validation procedures.
#
#######################################################################

data_UXIWEE
_symmetry_cell_setting           triclinic
_symmetry_space_group_name_H-M   'P -1'
_symmetry_Int_Tables_number      2
_space_group_name_Hall           '-P 1'
loop_
_symmetry_equiv_pos_site_id
_symmetry_equiv_pos_as_xyz
1 x,y,z
2 -x,-y,-z
_cell_length_a                   7.067(4)
_cell_length_b                   7.563(4)
_cell_length_c                   9.867(5)
_cell_angle_alpha                69.266(7)
_cell_angle_beta                 88.868(8)
_cell_angle_gamma                75.042(7)
_cell_volume                     475.001
loop_
_atom_site_label
_atom_site_type_symbol
_atom_site_fract_x
_atom_site_fract_y
_atom_site_fract_z
Cu1 Cu 0.0000 0.5000 0.0000
O1 O 0.2213(2) 0.3505(2) 0.15703(15)
O2 O 0.2491(2) 0.0449(2) 0.16780(17)
O3 O 0.6671(2) 0.0905(2) 0.13233(16)
O4 O 0.8681(2) -0.1839(2) 0.28561(17)
H1 H 0.9227 -0.1835 0.2114
O5 O 0.0284(2) 0.7874(2) 0.04500(16)
H2 H -0.0630 0.8719 -0.0166
H3 H 0.1341 0.7984 0.0044
N1 N -0.1923(3) 0.4771(3) 0.14858(18)
N2 N -0.1437(3) 0.3651(3) 0.2944(2)
N3 N -0.4506(3) 0.5352(3) 0.26346(19)
N4 N -0.6425(3) 0.6053(3) 0.2997(2)
H4 H -0.6827 0.7372 0.2625
H5 H -0.7236 0.5488 0.2708
C1 C 0.4023(3) 0.0863(3) 0.3607(2)
C2 C 0.6004(3) -0.0224(3) 0.3810(2)
C3 C 0.3051(3) 0.1084(3) 0.4794(2)
H6 H 0.1746 0.1819 0.4658
C4 C 0.2831(3) 0.1660(3) 0.2156(2)
C5 C 0.7127(3) -0.0321(3) 0.2535(2)
C6 C -0.3016(3) 0.4046(4) 0.3597(2)
H7 H -0.3109 0.3502 0.4593
C7 C -0.3773(3) 0.5763(3) 0.1332(2)
H8 H -0.4468 0.6620 0.0455
Cu1_2 Cu 1.0000 -0.5000 1.0000
O1A O 0.7787(2) -0.3505(2) 0.84297(15)
O1A_2 O -0.2213(2) 0.6495(2) -0.15703(15)
O2A O 0.7509(2) -0.0449(2) 0.83220(17)
O3A O 0.3329(2) -0.0905(2) 0.86767(16)
O4A O 0.1319(2) 0.1839(2) 0.71439(17)
H1A H 0.0773 0.1835 0.7886
O5A O -0.0284(2) 0.2126(2) -0.04500(16)
H2A H 0.0630 0.1281 0.0166
H3A H -0.1341 0.2016 -0.0044
N1A N 0.1923(3) 0.5229(3) -0.14858(18)
N2A N 0.1437(3) 0.6349(3) -0.2944(2)
N3A N 0.4506(3) 0.4648(3) -0.26346(19)
N4A N 0.6425(3) 0.3947(3) -0.2997(2)
H4A H 0.6827 0.2628 -0.2625
H5A H 0.7236 0.4512 -0.2708
C1A C 0.5977(3) -0.0863(3) 0.6393(2)
C2A C 0.3996(3) 0.0224(3) 0.6190(2)
C3A C 0.6949(3) -0.1084(3) 0.5206(2)
H6A H 0.8254 -0.1819 0.5342
C4A C 0.7169(3) -0.1660(3) 0.7844(2)
C5A C 0.2873(3) 0.0321(3) 0.7465(2)
C6A C 0.3016(3) 0.5954(4) -0.3597(2)
H7A H 0.3109 0.6498 -0.4593
C7A C 0.3773(3) 0.4237(3) -0.1332(2)
H8A H 0.4468 0.3380 -0.0455
loop_
_geom_bond_atom_site_label_1
_geom_bond_atom_site_label_2
_geom_bond_site_symmetry_1
_geom_bond_site_symmetry_2
Cu1 O1 1_555 1_555
O1 C4 1_555 1_555
O2 C4 1_555 1_555
O3 C5 1_555 1_555
O4 H1 1_555 1_555
O5 Cu1 1_555 1_555
H2 O5 1_555 1_555
H3 O5 1_555 1_555
N1 Cu1 1_555 1_555
N2 N1 1_555 1_555
N3 N4 1_555 1_555
N4 H4 1_555 1_555
H5 N4 1_555 1_555
C1 C2 1_555 1_555
C2 C5 1_555 1_555
C3 C1 1_555 1_555
H6 C3 1_555 1_555
C4 C1 1_555 1_555
C5 O4 1_555 1_555
C6 N2 1_555 1_555
H7 C6 1_555 1_555
C7 N1 1_555 1_555
H8 C7 1_555 1_555
Cu1_2 O1A 1_555 1_555
O1A C4A 1_555 1_555
O1A_2 Cu1 1_555 1_555
O2A C4A 1_555 1_555
O3A C5A 1_555 1_555
O4A H1A 1_555 1_555
O5A Cu1 1_555 1_555
H2A O5A 1_555 1_555
H3A O5A 1_555 1_555
N1A Cu1 1_555 1_555
N2A N1A 1_555 1_555
N3A N4A 1_555 1_555
N4A H4A 1_555 1_555
H5A N4A 1_555 1_555
C1A C2A 1_555 1_555
C2A C3 1_555 1_555
C3A C2 1_555 1_555
H6A C3A 1_555 1_555
C4A C1A 1_555 1_555
C5A O4A 1_555 1_555
C6A N2A 1_555 1_555
H7A C6A 1_555 1_555
C7A N1A 1_555 1_555
H8A C7A 1_555 1_555
N3 C6 1_555 1_555
N3 C7 1_555 1_555
N3A C6A 1_555 1_555
N3A C7A 1_555 1_555
C1A C3A 1_555 1_555
C2A C5A 1_555 1_555

#END
