
#######################################################################
#
#                 Cambridge Crystallographic Data Centre
#                                CCDC 
#
#######################################################################
#
# If this CIF has been generated from an entry in the Cambridge 
# Structural Database, then it will include bibliographic, chemical, 
# crystal, experimental, refinement or atomic coordinate data resulting 
# from the CCDC's data processing and validation procedures.
#
#######################################################################

data_UXOWOU
_symmetry_cell_setting           tetragonal
_symmetry_space_group_name_H-M   'P 4/n b m'
_symmetry_Int_Tables_number      125
_space_group_name_Hall           '-P 4a 2b'
loop_
_symmetry_equiv_pos_site_id
_symmetry_equiv_pos_as_xyz
1 x,y,z
2 1/2-x,1/2-y,z
3 1/2-y,x,z
4 y,1/2-x,z
5 1/2-x,y,-z
6 x,1/2-y,-z
7 y,x,-z
8 1/2-y,1/2-x,-z
9 -x,-y,-z
10 1/2+x,1/2+y,-z
11 1/2+y,-x,-z
12 -y,1/2+x,-z
13 1/2+x,-y,z
14 -x,1/2+y,z
15 -y,-x,z
16 1/2+y,1/2+x,z
_cell_length_a                   9.7054(6)
_cell_length_b                   9.7054(6)
_cell_length_c                   6.6894(9)
_cell_angle_alpha                90
_cell_angle_beta                 90
_cell_angle_gamma                90
_cell_volume                     630.107
loop_
_atom_site_label
_atom_site_type_symbol
_atom_site_fract_x
_atom_site_fract_y
_atom_site_fract_z
Cu1 Cu 0.2500 0.2500 0.5000
N1 N 0.1014(2) 0.3986(2) 0.5000
C1 C 0.0867(2) 0.4857(3) 0.3464(3)
H1 H 0.1456 0.4783 0.2372
F1 F 0.2500 0.2500 0.1670(4)
H2 H 0.2500 0.2500 0.0000
Cu1_2 Cu 0.2500 0.2500 -0.5000
Cu1H Cu -0.2500 0.7500 0.5000
Cu1H_2 Cu 0.7500 -0.2500 0.5000
N1H N -0.1014(2) 0.6014(2) 0.5000
N1A N 0.3986(2) 0.1014(2) 0.5000
N1I N 0.6014(2) -0.1014(2) 0.5000
N1C N 0.3986(2) 0.3986(2) 0.5000
N1B N 0.1014(2) 0.1014(2) 0.5000
C1G C 0.0143(3) 0.4133(2) 0.6536(3)
C1H C -0.0867(2) 0.5143(3) 0.6536(3)
C1O C -0.0143(3) 0.5867(2) 0.3464(3)
C1F C 0.4857(3) 0.0867(2) 0.6536(3)
C1A C 0.4133(2) 0.0143(3) 0.3464(3)
C1N C 0.5143(3) -0.0867(2) 0.3464(3)
C1I C 0.5867(2) -0.0143(3) 0.6536(3)
H1G H 0.0217 0.3544 0.7628
H1H H -0.1456 0.5217 0.7628
H1O H -0.0217 0.6456 0.2372
H1F H 0.4783 0.1456 0.7628
H1A H 0.3544 0.0217 0.2372
H1N H 0.5217 -0.1456 0.2372
H1I H 0.6456 -0.0217 0.7628
F1D F 0.2500 0.2500 -0.1670(4)
F1D_2 F 0.2500 0.2500 0.8330(4)
Cl1 Cl 0.2500 0.7500 0.0000
O1 O 0.3375(4) 0.6625(4) 0.1077(10)
O1A O 0.1625(4) 0.8375(4) 0.1077(10)
O1D O 0.1625(4) 0.6625(4) -0.1077(10)
O1E O 0.3375(4) 0.8375(4) -0.1077(10)
loop_
_geom_bond_atom_site_label_1
_geom_bond_atom_site_label_2
_geom_bond_site_symmetry_1
_geom_bond_site_symmetry_2
Cu1 N1 1_555 1_555
N1 C1 1_555 1_555
C1 H1 1_555 1_555
Cl1 O1 1_555 1_555
F1 Cu1 1_555 1_555
H2 F1 1_555 1_555
Cu1_2 F1D 1_555 1_555
Cu1H N1H 1_555 1_555
Cu1H_2 N1I 1_555 1_555
N1H C1H 1_555 1_555
N1A Cu1 1_555 1_555
N1I C1N 1_555 1_555
N1C Cu1 1_555 1_555
N1B Cu1 1_555 1_555
C1G N1 1_555 1_555
C1H C1G 1_555 1_555
C1O C1 1_555 1_555
C1F N1A 1_555 1_555
C1A N1A 1_555 1_555
C1N C1A 1_555 1_555
C1I N1I 1_555 1_555
H1G C1G 1_555 1_555
H1H C1H 1_555 1_555
H1O C1O 1_555 1_555
H1F C1F 1_555 1_555
H1A C1A 1_555 1_555
H1N C1N 1_555 1_555
H1I C1I 1_555 1_555
O1A Cl1 1_555 1_555
O1D Cl1 1_555 1_555
O1E Cl1 1_555 1_555
F1D H2 1_555 1_555
F1D_2 Cu1 1_555 1_555
N1H C1O 1_555 1_555
C1F C1I 1_555 1_555

#END
