
#######################################################################
#
#                 Cambridge Crystallographic Data Centre
#                                CCDC 
#
#######################################################################
#
# If this CIF has been generated from an entry in the Cambridge 
# Structural Database, then it will include bibliographic, chemical, 
# crystal, experimental, refinement or atomic coordinate data resulting 
# from the CCDC's data processing and validation procedures.
#
#######################################################################

data_UXOWAG
_symmetry_cell_setting           monoclinic
_symmetry_space_group_name_H-M   'C 2/m'
_symmetry_Int_Tables_number      12
_space_group_name_Hall           '-C 2y'
loop_
_symmetry_equiv_pos_site_id
_symmetry_equiv_pos_as_xyz
1 x,y,z
2 -x,y,-z
3 1/2+x,1/2+y,z
4 1/2-x,1/2+y,-z
5 -x,-y,-z
6 x,-y,z
7 1/2-x,1/2-y,-z
8 1/2+x,1/2-y,z
_cell_length_a                   13.760(3)
_cell_length_b                   13.641(3)
_cell_length_c                   13.185(3)
_cell_angle_alpha                90
_cell_angle_beta                 108.94(3)
_cell_angle_gamma                90
_cell_volume                     2340.84
loop_
_atom_site_label
_atom_site_type_symbol
_atom_site_fract_x
_atom_site_fract_y
_atom_site_fract_z
C1 C 0.4163(3) 0.3296(3) 0.6535(3)
H1 H 0.4310 0.3894 0.6890
C2 C 0.3932(3) 0.3258(3) 0.5447(3)
H2 H 0.3911 0.3837 0.5068
C3 C 0.3735(4) 0.2412(3) 0.4916(3)
H3 H 0.3586 0.2393 0.4176
C4 C 0.3759(3) 0.1580(4) 0.5483(3)
H4 H 0.3629 0.0981 0.5129
C5 C 0.3974(3) 0.1612(3) 0.6577(3)
H5 H 0.3978 0.1037 0.6958
C6 C 0.3267(2) 0.2809(2) 1.0849(2)
H6 H 0.3783 0.3030 1.1454
C7 C 0.22631(19) 0.2798(2) 1.0851(2)
H7 H 0.2126 0.3010 1.1461
C8 C 0.42747(17) 0.44982(16) 0.92723(19)
H8 H 0.3758 0.4165 0.8753
C9 C 0.46591(18) 0.05047(16) 1.06826(18)
H9 H 0.4417 0.0839 1.1167
Cu1 Cu 0.5000 0.25016(3) 1.0000
N1 N 0.4177(2) 0.24714(15) 0.70907(19)
N2 N 0.35160(18) 0.25050(12) 0.9991(2)
N3 N 0.5000 0.3987(2) 1.0000
N4 N 0.5000 0.1013(2) 1.0000
O1 O 0.4391(2) 0.25038(13) 0.81363(17)
C1A C 0.5837(3) 0.3296(3) 1.3465(3)
C1F C 0.0837(3) 0.1704(3) 1.3465(3)
C1G C -0.0837(3) 0.1704(3) 0.6535(3)
H1A H 0.5690 0.3894 1.3110
H1F H 0.0690 0.1106 1.3110
H1G H -0.0690 0.1106 0.6890
C2A C 0.6068(3) 0.3258(3) 1.4553(3)
C2F C 0.1068(3) 0.1742(3) 1.4553(3)
C2G C -0.1068(3) 0.1742(3) 0.5447(3)
H2A H 0.6089 0.3837 1.4932
H2F H 0.1089 0.1163 1.4932
H2G H -0.1089 0.1163 0.5068
C3A C 0.6265(4) 0.2412(3) 1.5084(3)
C3F C 0.1265(4) 0.2588(3) 1.5084(3)
C3G C -0.1265(4) 0.2588(3) 0.4916(3)
H3A H 0.6414 0.2393 1.5824
H3F H 0.1414 0.2607 1.5824
H3G H -0.1414 0.2607 0.4176
C4A C 0.6241(3) 0.1580(4) 1.4517(3)
C4F C 0.1241(3) 0.3420(4) 1.4517(3)
C4G C -0.1241(3) 0.3420(4) 0.5483(3)
H4A H 0.6371 0.0981 1.4871
H4F H 0.1371 0.4019 1.4871
H4G H -0.1371 0.4019 0.5129
C5A C 0.6026(3) 0.1612(3) 1.3423(3)
C5F C 0.1026(3) 0.3388(3) 1.3423(3)
C5G C -0.1026(3) 0.3388(3) 0.6577(3)
H5A H 0.6022 0.1037 1.3042
H5F H 0.1022 0.3963 1.3042
H5G H -0.1022 0.3963 0.6958
C6F C 0.1733(2) 0.2191(2) 0.9151(2)
C6A C 0.6733(2) 0.2809(2) 0.9151(2)
C6G C 0.8267(2) 0.2191(2) 1.0849(2)
H6F H 0.1217 0.1970 0.8546
H6A H 0.6217 0.3030 0.8546
H6G H 0.8783 0.1970 1.1454
C7F C 0.27369(19) 0.2202(2) 0.9149(2)
C7A C 0.77369(19) 0.2798(2) 0.9149(2)
C7G C 0.72631(19) 0.2202(2) 1.0851(2)
H7F H 0.2874 0.1990 0.8539
H7A H 0.7874 0.3010 0.8539
H7G H 0.7126 0.1990 1.1461
C8A C 0.57253(17) 0.44982(16) 1.07277(19)
C8D C 0.57253(17) 0.55018(16) 1.07277(19)
C8E C 0.42747(17) 0.55018(16) 0.92723(19)
H8A H 0.6242 0.4165 1.1247
H8D H 0.6242 0.5835 1.1247
H8E H 0.3758 0.5835 0.8753
C9A C 0.53409(18) 0.05047(16) 0.93174(18)
C9D C 0.53409(18) -0.05047(16) 0.93174(18)
C9E C 0.46591(18) -0.05047(16) 1.06826(18)
H9A H 0.5583 0.0839 0.8833
H9D H 0.5583 -0.0839 0.8833
H9E H 0.4417 -0.0839 1.1167
Cu1F Cu 0.0000 0.24984(3) 1.0000
Cu1D Cu 0.5000 0.74984(3) 1.0000
Cu1D_2 Cu 0.5000 -0.25016(3) 1.0000
Cu1F_2 Cu 1.0000 0.24984(3) 1.0000
N1A N 0.5823(2) 0.24714(15) 1.29093(19)
N1F N 0.0823(2) 0.25286(15) 1.29093(19)
N1G N -0.0823(2) 0.25286(15) 0.70907(19)
N2F N 0.14840(18) 0.24950(12) 1.0009(2)
N2A N 0.64840(18) 0.25050(12) 1.0009(2)
N2G N 0.85160(18) 0.24950(12) 0.9991(2)
N2G_2 N -0.14840(18) 0.24950(12) 0.9991(2)
N3D N 0.5000 0.6013(2) 1.0000
N3F N 0.0000 0.1013(2) 1.0000
N4D N 0.5000 -0.1013(2) 1.0000
N4F N 0.0000 0.3987(2) 1.0000
O1A O 0.5609(2) 0.25038(13) 1.18637(17)
O1F O 0.0609(2) 0.24962(13) 1.18637(17)
O1G O -0.0609(2) 0.24962(13) 0.81363(17)
Cl1 Cl 0.32859(8) 0.0000 0.27800(8)
O2 O 0.3172(3) 0.0814(3) 0.2149(3)
O3 O 0.2489(3) 0.0000 0.3250(3)
O7 O 0.4263(3) 0.0000 0.3545(4)
O2E O 0.3172(3) -0.0814(3) 0.2149(3)
Cl2 Cl 0.17970(10) 0.0000 0.75813(9)
O4 O 0.2846(3) 0.0000 0.8227(4)
O5 O 0.1136(4) 0.0000 0.8207(4)
O6 O 0.1623(3) 0.0882(2) 0.6999(2)
O6E O 0.1623(3) -0.0882(2) 0.6999(2)
loop_
_geom_bond_atom_site_label_1
_geom_bond_atom_site_label_2
_geom_bond_site_symmetry_1
_geom_bond_site_symmetry_2
C1 H1 1_555 1_555
C2 C1 1_555 1_555
H2 C2 1_555 1_555
C3 C2 1_555 1_555
H3 C3 1_555 1_555
C4 C3 1_555 1_555
H4 C4 1_555 1_555
C5 C4 1_555 1_555
H5 C5 1_555 1_555
C6 H6 1_555 1_555
C7 C6 1_555 1_555
H7 C7 1_555 1_555
C8 H8 1_555 1_555
C9 H9 1_555 1_555
Cl1 O2 1_555 1_555
Cl2 O4 1_555 1_555
Cu1 N2 1_555 1_555
N1 C1 1_555 1_555
N2 C6 1_555 1_555
N3 C8 1_555 1_555
N4 C9 1_555 1_555
O1 Cu1 1_555 1_555
O3 Cl1 1_555 1_555
O5 Cl2 1_555 1_555
O6 Cl2 1_555 1_555
O7 Cl1 1_555 1_555
C1A H1A 1_555 1_555
C1F H1F 1_555 1_555
C1G H1G 1_555 1_555
C2A C1A 1_555 1_555
C2F C1F 1_555 1_555
C2G C1G 1_555 1_555
H2A C2A 1_555 1_555
H2F C2F 1_555 1_555
H2G C2G 1_555 1_555
C3A C2A 1_555 1_555
C3F C2F 1_555 1_555
C3G C2G 1_555 1_555
H3A C3A 1_555 1_555
H3F C3F 1_555 1_555
H3G C3G 1_555 1_555
C4A C3A 1_555 1_555
C4F C3F 1_555 1_555
C4G C3G 1_555 1_555
H4A C4A 1_555 1_555
H4F C4F 1_555 1_555
H4G C4G 1_555 1_555
C5A C4A 1_555 1_555
C5F C4F 1_555 1_555
C5G C4G 1_555 1_555
H5A C5A 1_555 1_555
H5F C5F 1_555 1_555
H5G C5G 1_555 1_555
C6F H6F 1_555 1_555
C6A H6A 1_555 1_555
C6G H6G 1_555 1_555
C7F N2 1_555 1_555
C7A C6A 1_555 1_555
C7G C6G 1_555 1_555
H7F C7F 1_555 1_555
H7A C7A 1_555 1_555
H7G C7G 1_555 1_555
C8A N3 1_555 1_555
C8D C8A 1_555 1_555
C8E C8 1_555 1_555
H8A C8A 1_555 1_555
H8D C8D 1_555 1_555
H8E C8E 1_555 1_555
C9A N4 1_555 1_555
C9D C9A 1_555 1_555
C9E C9 1_555 1_555
H9A C9A 1_555 1_555
H9D C9D 1_555 1_555
H9E C9E 1_555 1_555
Cu1F N2F 1_555 1_555
Cu1D N3D 1_555 1_555
Cu1D_2 N4D 1_555 1_555
Cu1F_2 N2G 1_555 1_555
N1A C1A 1_555 1_555
N1F C1F 1_555 1_555
N1G C1G 1_555 1_555
N2F C7 1_555 1_555
N2A Cu1 1_555 1_555
N2G C6G 1_555 1_555
N2G_2 Cu1F 1_555 1_555
N3D C8D 1_555 1_555
N3F Cu1F 1_555 1_555
N4D C9D 1_555 1_555
N4F Cu1F 1_555 1_555
O1A Cu1 1_555 1_555
O1F Cu1F 1_555 1_555
O1G Cu1F 1_555 1_555
O2E Cl1 1_555 1_555
O6E Cl2 1_555 1_555
C5 N1 1_555 1_555
Cu1 N3 1_555 1_555
Cu1 N4 1_555 1_555
N1 O1 1_555 1_555
C5A N1A 1_555 1_555
C5F N1F 1_555 1_555
C5G N1G 1_555 1_555
C6F C7F 1_555 1_555
C6F N2F 1_555 1_555
C6A N2A 1_555 1_555
C7A N2G 1_555 1_555
C7G N2A 1_555 1_555
C8E N3D 1_555 1_555
C9E N4D 1_555 1_555
N1A O1A 1_555 1_555
N1F O1F 1_555 1_555
N1G O1G 1_555 1_555

#END
