
#######################################################################
#
#                 Cambridge Crystallographic Data Centre
#                                CCDC 
#
#######################################################################
#
# If this CIF has been generated from an entry in the Cambridge 
# Structural Database, then it will include bibliographic, chemical, 
# crystal, experimental, refinement or atomic coordinate data resulting 
# from the CCDC's data processing and validation procedures.
#
#######################################################################

data_UXOWIO
_symmetry_cell_setting           tetragonal
_symmetry_space_group_name_H-M   'P 4/m m m'
_symmetry_Int_Tables_number      123
_space_group_name_Hall           '-P 4 2'
loop_
_symmetry_equiv_pos_site_id
_symmetry_equiv_pos_as_xyz
1 x,y,z
2 -x,-y,z
3 -y,x,z
4 y,-x,z
5 -x,y,-z
6 x,-y,-z
7 y,x,-z
8 -y,-x,-z
9 -x,-y,-z
10 x,y,-z
11 y,-x,-z
12 -y,x,-z
13 x,-y,z
14 -x,y,z
15 -y,-x,z
16 y,x,z
_cell_length_a                   6.8653(4)
_cell_length_b                   6.8653(4)
_cell_length_c                   6.9500(8)
_cell_angle_alpha                90
_cell_angle_beta                 90
_cell_angle_gamma                90
_cell_volume                     327.57
loop_
_atom_site_label
_atom_site_type_symbol
_atom_site_fract_x
_atom_site_fract_y
_atom_site_fract_z
Cu1 Cu 0.5000 0.5000 0.5000
F1 F 0.5000 0.5000 0.1643(3)
H1 H 0.5000 0.5000 0.0000
N1 N 0.7980(3) 0.5000 0.5000
C1 C 0.8989(3) 0.5000 0.3379(3)
H2 H 0.8328 0.5000 0.2211
Cu1_2 Cu -0.5000 0.5000 0.5000
Cu1_3 Cu 0.5000 0.5000 -0.5000
Cu1_4 Cu 1.5000 0.5000 0.5000
F1D F 0.5000 0.5000 -0.1643(3)
F1D_2 F 0.5000 0.5000 0.8357(3)
N1A N 1.2020(3) 0.5000 0.5000
N1A_2 N 0.2020(3) 0.5000 0.5000
N1_2 N -0.2020(3) 0.5000 0.5000
N1B N 0.5000 0.7980(3) 0.5000
N1C N 0.5000 0.2020(3) 0.5000
C1A C 1.1011(3) 0.5000 0.3379(3)
C1D C 1.1011(3) 0.5000 0.6621(3)
C1E C 0.8989(3) 0.5000 0.6621(3)
C1D_2 C 0.1011(3) 0.5000 0.6621(3)
C1E_2 C -0.1011(3) 0.5000 0.6621(3)
C1_2 C -0.1011(3) 0.5000 0.3379(3)
C1A_2 C 0.1011(3) 0.5000 0.3379(3)
H2A H 1.1672 0.5000 0.2211
H2D H 1.1672 0.5000 0.7789
H2E H 0.8328 0.5000 0.7789
H2D_2 H 0.1672 0.5000 0.7789
H2E_2 H -0.1672 0.5000 0.7789
H2_2 H -0.1672 0.5000 0.2211
H2A_2 H 0.1672 0.5000 0.2211
As1 As 0.0000 0.0000 0.0000
F2 F 0.1762(3) 0.1762(3) 0.0000
F3 F 0.0000 0.0000 -0.2455(6)
F2A F -0.1762(3) -0.1762(3) 0.0000
F2B F -0.1762(3) 0.1762(3) 0.0000
F2C F 0.1762(3) -0.1762(3) 0.0000
F3D F 0.0000 0.0000 0.2455(6)
loop_
_geom_bond_atom_site_label_1
_geom_bond_atom_site_label_2
_geom_bond_site_symmetry_1
_geom_bond_site_symmetry_2
Cu1 F1 1_555 1_555
F1 H1 1_555 1_555
H1 F1D 1_555 1_555
N1 Cu1 1_555 1_555
C1 N1 1_555 1_555
H2 C1 1_555 1_555
As1 F2 1_555 1_555
F3 As1 1_555 1_555
Cu1_2 N1_2 1_555 1_555
Cu1_3 F1D 1_555 1_555
Cu1_4 N1A 1_555 1_555
F1D_2 Cu1 1_555 1_555
N1A C1A 1_555 1_555
N1A_2 Cu1 1_555 1_555
N1_2 C1E_2 1_555 1_555
N1B Cu1 1_555 1_555
N1C Cu1 1_555 1_555
C1A C1 1_555 1_555
C1D N1A 1_555 1_555
C1E N1 1_555 1_555
C1D_2 N1A_2 1_555 1_555
C1E_2 C1D_2 1_555 1_555
C1_2 N1_2 1_555 1_555
C1A_2 N1A_2 1_555 1_555
H2A C1A 1_555 1_555
H2D C1D 1_555 1_555
H2E C1E 1_555 1_555
H2D_2 C1D_2 1_555 1_555
H2E_2 C1E_2 1_555 1_555
H2_2 C1_2 1_555 1_555
H2A_2 C1A_2 1_555 1_555
F2A As1 1_555 1_555
F2B As1 1_555 1_555
F2C As1 1_555 1_555
F3D As1 1_555 1_555
C1D C1E 1_555 1_555
C1_2 C1A_2 1_555 1_555

#END
