
#######################################################################
#
#                 Cambridge Crystallographic Data Centre
#                                CCDC 
#
#######################################################################
#
# If this CIF has been generated from an entry in the Cambridge 
# Structural Database, then it will include bibliographic, chemical, 
# crystal, experimental, refinement or atomic coordinate data resulting 
# from the CCDC's data processing and validation procedures.
#
#######################################################################

data_UXOWEK
_symmetry_cell_setting           orthorhombic
_symmetry_space_group_name_H-M   'P n a 21'
_symmetry_Int_Tables_number      33
_space_group_name_Hall           'P 2c -2n'
loop_
_symmetry_equiv_pos_site_id
_symmetry_equiv_pos_as_xyz
1 x,y,z
2 -x,-y,1/2+z
3 1/2+x,1/2-y,z
4 1/2-x,1/2+y,1/2+z
_cell_length_a                   15.7236(9)
_cell_length_b                   9.7063(6)
_cell_length_c                   9.8112(6)
_cell_angle_alpha                90
_cell_angle_beta                 90
_cell_angle_gamma                90
_cell_volume                     1497.37
loop_
_atom_site_label
_atom_site_type_symbol
_atom_site_fract_x
_atom_site_fract_y
_atom_site_fract_z
O1 O 0.45762(19) 0.7220(3) 0.1623(4)
Cr1 Cr 0.49776(4) 0.86712(8) 0.07241(7)
Cr2 Cr 0.50002(4) 0.63968(8) 0.31068(7)
O4 O 0.4758(2) 0.7315(4) 0.4436(4)
O5 O 0.4564(2) 0.4893(3) 0.3180(5)
O6 O 0.60195(18) 0.6295(3) 0.2985(4)
O7 O 0.4648(2) 1.0078(3) 0.1460(4)
O8 O 0.60047(19) 0.8622(3) 0.0710(4)
O9 O 0.4595(2) 0.8548(3) -0.0798(4)
O2 O 0.1071(2) 0.7569(3) 0.7013(5)
C1 C 0.1913(3) 0.6129(5) 0.4432(6)
H1 H 0.1509 0.6855 0.4393
C2 C 0.1915(3) 0.5154(5) 0.3422(6)
H2 H 0.1522 0.5230 0.2689
C3 C 0.3015(3) 0.4014(5) 0.4496(6)
H3 H 0.3404 0.3267 0.4555
C4 C 0.3016(3) 0.5043(5) 0.5499(6)
H4 H 0.3420 0.4995 0.6218
C5 C 0.3118(3) 0.6103(4) 0.9459(6)
H5 H 0.3531 0.6815 0.9490
C6 C 0.3110(3) 0.5089(5) 1.0473(6)
H6 H 0.3521 0.5128 1.1181
C7 C 0.1982(3) 0.4058(5) 0.9443(6)
H7 H 0.1572 0.3341 0.9406
C8 C 0.1979(3) 0.5044(5) 0.8437(6)
H8 H 0.1569 0.4991 0.7728
Cu1 Cu 0.25032(4) 0.75844(3) 0.69584(10)
N1 N 0.2462(3) 0.6091(5) 0.5470(5)
N2 N 0.2464(3) 0.4087(5) 0.3451(5)
N3 N 0.2542(3) 0.6076(5) 0.8439(5)
N4 N 0.2542(3) 0.4070(5) 1.0475(5)
O3 O 0.39379(19) 0.7503(4) 0.6886(5)
H9 H 0.418(3) 0.803(5) 0.737(5)
H10 H 0.425(3) 0.747(5) 0.623(4)
H11 H 0.078(3) 0.682(4) 0.692(6)
H12 H 0.080(3) 0.810(5) 0.742(5)
Cu1C Cu 0.24968(4) 0.25844(3) 0.19584(10)
Cu1C_2 Cu 0.24968(4) 0.25844(3) 1.19584(10)
N2C N 0.2536(3) 0.9087(5) 0.8451(5)
N4C N 0.2458(3) 0.9070(5) 0.5475(5)
loop_
_geom_bond_atom_site_label_1
_geom_bond_atom_site_label_2
_geom_bond_site_symmetry_1
_geom_bond_site_symmetry_2
O1 Cr1 1_555 1_555
O2 Cu1 1_555 1_555
Cr1 O7 1_555 1_555
C1 H1 1_555 1_555
C2 C1 1_555 1_555
H2 C2 1_555 1_555
C3 H3 1_555 1_555
C4 C3 1_555 1_555
H4 C4 1_555 1_555
C5 H5 1_555 1_555
C6 C5 1_555 1_555
H6 C6 1_555 1_555
C7 H7 1_555 1_555
C8 C7 1_555 1_555
H8 C8 1_555 1_555
Cr2 O1 1_555 1_555
Cu1 N1 1_555 1_555
N1 C1 1_555 1_555
N2 C2 1_555 1_555
N3 C5 1_555 1_555
N4 C6 1_555 1_555
O3 Cu1 1_555 1_555
H9 O3 1_555 1_555
H10 O3 1_555 1_555
H11 O2 1_555 1_555
H12 O2 1_555 1_555
O4 Cr2 1_555 1_555
O5 Cr2 1_555 1_555
O6 Cr2 1_555 1_555
O8 Cr1 1_555 1_555
O9 Cr1 1_555 1_555
Cu1C N2 1_555 1_555
Cu1C_2 N4 1_555 1_555
N2C Cu1 1_555 1_555
N4C Cu1 1_555 1_555
C3 N2 1_555 1_555
C4 N1 1_555 1_555
C7 N4 1_555 1_555
C8 N3 1_555 1_555
Cu1 N3 1_555 1_555

#END
