
#######################################################################
#
#                 Cambridge Crystallographic Data Centre
#                                CCDC 
#
#######################################################################
#
# If this CIF has been generated from an entry in the Cambridge 
# Structural Database, then it will include bibliographic, chemical, 
# crystal, experimental, refinement or atomic coordinate data resulting 
# from the CCDC's data processing and validation procedures.
#
#######################################################################

data_UXUPIN
_symmetry_cell_setting           tetragonal
_symmetry_space_group_name_H-M   'I 41/a c d'
_symmetry_Int_Tables_number      142
_space_group_name_Hall           '-I 4bd 2c'
loop_
_symmetry_equiv_pos_site_id
_symmetry_equiv_pos_as_xyz
1 x,y,z
2 1/4-y,3/4+x,1/4+z
3 1/2-x,-y,1/2+z
4 1/4+y,1/4-x,3/4+z
5 x,-y,1/2-z
6 1/4+y,3/4+x,3/4-z
7 1/2-x,y,-z
8 1/4-y,1/4-x,1/4-z
9 1/2+x,1/2+y,1/2+z
10 3/4-y,1/4+x,3/4+z
11 -x,1/2-y,z
12 3/4+y,3/4-x,1/4+z
13 1/2+x,1/2-y,-z
14 3/4+y,1/4+x,1/4-z
15 -x,1/2+y,1/2-z
16 3/4-y,3/4-x,3/4-z
17 -x,-y,-z
18 3/4+y,1/4-x,3/4-z
19 1/2+x,y,1/2-z
20 3/4-y,3/4+x,1/4-z
21 -x,y,1/2+z
22 3/4-y,1/4-x,1/4+z
23 1/2+x,-y,z
24 3/4+y,3/4+x,3/4+z
25 1/2-x,1/2-y,1/2-z
26 1/4+y,3/4-x,1/4-z
27 x,1/2+y,-z
28 1/4-y,1/4+x,3/4-z
29 1/2-x,1/2+y,z
30 1/4-y,3/4-x,3/4+z
31 x,1/2-y,1/2+z
32 1/4+y,1/4+x,1/4+z
_cell_length_a                   28.564(2)
_cell_length_b                   28.564(2)
_cell_length_c                   18.2725(13)
_cell_angle_alpha                90
_cell_angle_beta                 90
_cell_angle_gamma                90
_cell_volume                     14908.6
loop_
_atom_site_label
_atom_site_type_symbol
_atom_site_fract_x
_atom_site_fract_y
_atom_site_fract_z
Cu1 Cu 0.7500 0.25885(2) 1.0000
S1 S 0.68315(13) 0.27246(12) 0.82152(12)
F1 F 0.6084(6) 0.2786(5) 0.7541(9)
F2 F 0.6036(3) 0.2805(5) 0.8808(9)
F3 F 0.6234(7) 0.2123(4) 0.8289(6)
O1 O 0.70029(13) 0.25946(14) 0.89167(19)
O2 O 0.6888(6) 0.3242(3) 0.8125(7)
O3 O 0.7011(7) 0.2519(6) 0.7585(5)
N1 N 0.79169(12) 0.20820(11) 0.9566(2)
N2 N 0.94248(12) 0.04201(11) 0.7963(2)
C1 C 0.83758(16) 0.20679(16) 0.9730(3)
H1 H 0.8496 0.2287 1.0056
C2 C 0.86748(16) 0.17393(17) 0.9430(3)
H2 H 0.8990 0.1735 0.9559
C3 C 0.84967(15) 0.14130(15) 0.8930(3)
C4 C 0.80315(17) 0.14328(19) 0.8770(4)
H3 H 0.7903 0.1218 0.8444
C5 C 0.77472(16) 0.17689(17) 0.9086(4)
H4 H 0.7431 0.1778 0.8964
C6 C 0.90730(18) 0.06051(16) 0.7575(3)
H5 H 0.9035 0.0514 0.7090
C7 C 0.87648(18) 0.09263(16) 0.7870(3)
H6 H 0.8526 0.1051 0.7585
C8 C 0.88154(16) 0.10606(14) 0.8594(3)
C9 C 0.91700(19) 0.08636(17) 0.8987(3)
H7 H 0.9213 0.0948 0.9474
C10 C 0.94644(18) 0.05405(17) 0.8668(3)
H8 H 0.9697 0.0402 0.8951
C11 C 0.6217(6) 0.2602(6) 0.8196(8)
Cu1AA Cu 0.99115(2) 0.0000 0.7500
Cu1Y Cu 0.50885(2) 0.0000 1.2500
S1F S 0.81685(13) 0.27246(12) 1.17848(12)
F1F F 0.8916(6) 0.2786(5) 1.2459(9)
F2F F 0.8964(3) 0.2805(5) 1.1192(9)
F3F F 0.8766(7) 0.2123(4) 1.1711(6)
O1F O 0.79971(13) 0.25946(14) 1.10833(19)
O2F O 0.8112(6) 0.3242(3) 1.1875(7)
O3F O 0.7989(7) 0.2519(6) 1.2415(5)
N1F N 0.70831(12) 0.20820(11) 1.0434(2)
N2F N 0.55752(12) 0.04201(11) 1.2037(2)
N2Q N 0.79201(11) 0.30752(12) 0.9537(2)
N2U N 0.70799(11) 0.30752(12) 1.0463(2)
C1F C 0.66242(16) 0.20679(16) 1.0270(3)
H1F H 0.6504 0.2287 0.9944
C2F C 0.63252(16) 0.17393(17) 1.0570(3)
H2F H 0.6010 0.1735 1.0441
C3F C 0.65033(15) 0.14130(15) 1.1070(3)
C4F C 0.69685(17) 0.14328(19) 1.1230(4)
H3F H 0.7097 0.1218 1.1556
C5F C 0.72528(16) 0.17689(17) 1.0914(4)
H4F H 0.7569 0.1778 1.1036
C6F C 0.59270(18) 0.06051(16) 1.2425(3)
H5F H 0.5965 0.0514 1.2910
C7F C 0.62352(18) 0.09263(16) 1.2130(3)
H6F H 0.6474 0.1051 1.2415
C8F C 0.61846(16) 0.10606(14) 1.1406(3)
C9F C 0.58300(19) 0.08636(17) 1.1013(3)
H7F H 0.5787 0.0948 1.0526
C10F C 0.55356(18) 0.05405(17) 1.1332(3)
H8F H 0.5303 0.0402 1.1049
C11F C 0.8783(6) 0.2602(6) 1.1804(8)
loop_
_geom_bond_atom_site_label_1
_geom_bond_atom_site_label_2
_geom_bond_site_symmetry_1
_geom_bond_site_symmetry_2
Cu1 O1 1_555 1_555
S1 O1 1_555 1_555
F1 C11 1_555 1_555
F2 C11 1_555 1_555
F3 C11 1_555 1_555
O2 S1 1_555 1_555
O3 S1 1_555 1_555
N1 Cu1 1_555 1_555
N2 C6 1_555 1_555
C1 N1 1_555 1_555
H1 C1 1_555 1_555
C2 C1 1_555 1_555
H2 C2 1_555 1_555
C3 C2 1_555 1_555
C4 C3 1_555 1_555
H3 C4 1_555 1_555
C5 N1 1_555 1_555
H4 C5 1_555 1_555
C6 H5 1_555 1_555
C7 C6 1_555 1_555
H6 C7 1_555 1_555
C8 C3 1_555 1_555
C9 C8 1_555 1_555
H7 C9 1_555 1_555
C10 N2 1_555 1_555
H8 C10 1_555 1_555
C11 S1 1_555 1_555
Cu1AA N2 1_555 1_555
Cu1Y N2F 1_555 1_555
S1F O1F 1_555 1_555
F1F C11F 1_555 1_555
F2F C11F 1_555 1_555
F3F C11F 1_555 1_555
O1F Cu1 1_555 1_555
O2F S1F 1_555 1_555
O3F S1F 1_555 1_555
N1F Cu1 1_555 1_555
N2F C6F 1_555 1_555
N2Q Cu1 1_555 1_555
N2U Cu1 1_555 1_555
C1F N1F 1_555 1_555
H1F C1F 1_555 1_555
C2F C1F 1_555 1_555
H2F C2F 1_555 1_555
C3F C2F 1_555 1_555
C4F C3F 1_555 1_555
H3F C4F 1_555 1_555
C5F N1F 1_555 1_555
H4F C5F 1_555 1_555
C6F H5F 1_555 1_555
C7F C6F 1_555 1_555
H6F C7F 1_555 1_555
C8F C3F 1_555 1_555
C9F C8F 1_555 1_555
H7F C9F 1_555 1_555
C10F N2F 1_555 1_555
H8F C10F 1_555 1_555
C11F S1F 1_555 1_555
C4 C5 1_555 1_555
C7 C8 1_555 1_555
C9 C10 1_555 1_555
C4F C5F 1_555 1_555
C7F C8F 1_555 1_555
C9F C10F 1_555 1_555

#END
