
#######################################################################
#
#                 Cambridge Crystallographic Data Centre
#                                CCDC 
#
#######################################################################
#
# If this CIF has been generated from an entry in the Cambridge 
# Structural Database, then it will include bibliographic, chemical, 
# crystal, experimental, refinement or atomic coordinate data resulting 
# from the CCDC's data processing and validation procedures.
#
#######################################################################

data_UXUZIX
_symmetry_cell_setting           monoclinic
_symmetry_space_group_name_H-M   'C 2/c'
_symmetry_Int_Tables_number      15
_space_group_name_Hall           '-C 2yn'
loop_
_symmetry_equiv_pos_site_id
_symmetry_equiv_pos_as_xyz
1 x,y,z
2 -x,y,1/2-z
3 1/2+x,1/2+y,z
4 1/2-x,1/2+y,1/2-z
5 -x,-y,-z
6 x,-y,1/2+z
7 1/2-x,1/2-y,-z
8 1/2+x,1/2-y,1/2+z
_cell_length_a                   7.79870(10)
_cell_length_b                   30.8771(4)
_cell_length_c                   14.6120(2)
_cell_angle_alpha                90
_cell_angle_beta                 104.7010(10)
_cell_angle_gamma                90
_cell_volume                     3403.4
loop_
_atom_site_label
_atom_site_type_symbol
_atom_site_fract_x
_atom_site_fract_y
_atom_site_fract_z
Zn1 Zn 0.23113(6) 0.082103(14) 0.04434(3)
Zn2 Zn 0.55057(6) 0.166291(14) 0.05830(3)
O1 O 0.2497(4) 0.34142(8) -0.24666(19)
O2 O 0.1355(4) 0.28801(8) -0.34521(18)
O3 O 0.2788(4) -0.03955(9) 0.4560(2)
O4 O 0.2723(5) -0.09326(9) 0.3552(2)
O5 O 0.3995(4) 0.12623(9) 0.09795(18)
H1 H 0.379(5) 0.1369(13) 0.146(2)
N1 N 0.4266(4) 0.20902(10) -0.0472(2)
N2 N 0.2375(4) 0.03910(10) 0.1537(2)
N3 N -0.0076(4) 0.10889(10) 0.0012(2)
N4 N -0.2609(4) 0.14107(10) 0.0077(2)
C1 C 0.4602(5) 0.25140(13) -0.0347(3)
H2 H 0.5305 0.2606 0.0233
C2 C 0.3969(6) 0.28198(13) -0.1027(3)
H3 H 0.4244 0.3111 -0.0905
C3 C 0.2922(5) 0.26937(12) -0.1894(3)
C4 C 0.2560(5) 0.22570(12) -0.2021(3)
H4 H 0.1849 0.2158 -0.2593
C5 C 0.3242(5) 0.19694(13) -0.1310(3)
H5 H 0.2981 0.1677 -0.1416
C6 C 0.2219(5) 0.30286(13) -0.2652(3)
C7 C 0.2685(6) 0.05124(13) 0.2438(3)
H6 H 0.2815 0.0806 0.2582
C8 C 0.2823(6) 0.02201(13) 0.3168(3)
H7 H 0.3014 0.0317 0.3788
C9 C 0.2676(5) -0.02122(12) 0.2974(3)
C10 C 0.2382(6) -0.03386(14) 0.2051(3)
H8 H 0.2288 -0.0631 0.1895
C11 C 0.2227(6) -0.00308(13) 0.1357(3)
H9 H 0.2009 -0.0122 0.0731
C12 C 0.2747(5) -0.05482(14) 0.3748(3)
C13 C -0.1237(5) 0.11701(12) 0.0525(3)
H10 H -0.1099 0.1068 0.1138
C14 C -0.2299(6) 0.14895(14) -0.0788(3)
H11 H -0.3031 0.1649 -0.1273
C15 C -0.0752(5) 0.12978(14) -0.0823(3)
H12 H -0.0239 0.1307 -0.1332
Zn1E Zn 0.23113(6) -0.082103(14) 0.54434(3)
Zn2_2 Zn -0.44943(6) 0.166291(14) 0.05830(3)
Zn2G Zn 0.05057(6) 0.333709(14) -0.44170(3)
O2G O 0.6355(4) 0.21199(8) 0.15479(18)
O3E O 0.2788(4) 0.03955(9) -0.0440(2)
N4_2 N 0.7391(4) 0.14107(10) 0.0077(2)
loop_
_geom_bond_atom_site_label_1
_geom_bond_atom_site_label_2
_geom_bond_site_symmetry_1
_geom_bond_site_symmetry_2
Zn1 O5 1_555 1_555
Zn2 O5 1_555 1_555
O1 C6 1_555 1_555
O2 C6 1_555 1_555
O3 C12 1_555 1_555
O4 C12 1_555 1_555
O5 H1 1_555 1_555
N1 Zn2 1_555 1_555
N2 Zn1 1_555 1_555
N3 Zn1 1_555 1_555
N4 C13 1_555 1_555
C1 N1 1_555 1_555
H2 C1 1_555 1_555
C2 C1 1_555 1_555
H3 C2 1_555 1_555
C3 C2 1_555 1_555
C4 C3 1_555 1_555
H4 C4 1_555 1_555
C5 N1 1_555 1_555
H5 C5 1_555 1_555
C6 C3 1_555 1_555
C7 N2 1_555 1_555
H6 C7 1_555 1_555
C8 C7 1_555 1_555
H7 C8 1_555 1_555
C9 C8 1_555 1_555
C10 C9 1_555 1_555
H8 C10 1_555 1_555
C11 N2 1_555 1_555
H9 C11 1_555 1_555
C12 C9 1_555 1_555
C13 N3 1_555 1_555
H10 C13 1_555 1_555
C14 N4 1_555 1_555
H11 C14 1_555 1_555
C15 N3 1_555 1_555
H12 C15 1_555 1_555
Zn1E O3 1_555 1_555
Zn2_2 N4 1_555 1_555
Zn2G O2 1_555 1_555
O2G Zn2 1_555 1_555
O3E Zn1 1_555 1_555
N4_2 Zn2 1_555 1_555
C4 C5 1_555 1_555
C10 C11 1_555 1_555
C14 C15 1_555 1_555

#END
