
#######################################################################
#
#                 Cambridge Crystallographic Data Centre
#                                CCDC 
#
#######################################################################
#
# If this CIF has been generated from an entry in the Cambridge 
# Structural Database, then it will include bibliographic, chemical, 
# crystal, experimental, refinement or atomic coordinate data resulting 
# from the CCDC's data processing and validation procedures.
#
#######################################################################

data_UXUZET
_symmetry_cell_setting           orthorhombic
_symmetry_space_group_name_H-M   'P c a 21'
_symmetry_Int_Tables_number      29
_space_group_name_Hall           'P 2c -2ac'
loop_
_symmetry_equiv_pos_site_id
_symmetry_equiv_pos_as_xyz
1 x,y,z
2 -x,-y,1/2+z
3 1/2+x,-y,z
4 1/2-x,y,1/2+z
_cell_length_a                   12.0840(6)
_cell_length_b                   9.9231(4)
_cell_length_c                   14.3845(6)
_cell_angle_alpha                90
_cell_angle_beta                 90
_cell_angle_gamma                90
_cell_volume                     1724.86
loop_
_atom_site_label
_atom_site_type_symbol
_atom_site_fract_x
_atom_site_fract_y
_atom_site_fract_z
Zn1 Zn 0.77641(5) 1.19023(6) 0.29077(4)
Zn2 Zn 0.86971(5) 0.68583(6) 0.50946(4)
O1 O 0.3799(4) 0.8044(4) 0.7544(3)
O2 O 0.3942(4) 0.5846(5) 0.7743(4)
N1 N 0.8168(5) 0.8094(5) 0.4107(3)
N2 N 0.7783(4) 0.9995(5) 0.3373(3)
N3 N 0.8798(4) 1.4989(5) 0.4657(3)
N4 N 0.8428(4) 1.3121(4) 0.3847(3)
N5 N 0.8586(4) 1.2113(4) 0.1707(3)
N6 N 0.9909(4) 1.2508(4) 0.0670(3)
N7 N 0.7399(4) 0.6950(5) 0.6015(3)
C1 C 0.8448(5) 0.9367(6) 0.3948(4)
H1 H 0.9061 0.9775 0.4219
C2 C 0.7011(5) 0.9074(5) 0.3123(4)
H2 H 0.6417 0.9215 0.2723
C3 C 0.7268(6) 0.7899(6) 0.3567(4)
H3 H 0.6884 0.7092 0.3507
C4 C 0.8075(6) 1.4325(6) 0.4103(4)
H4 H 0.7398 1.4682 0.3920
C5 C 0.9661(6) 1.4137(6) 0.4725(4)
H5 H 1.0306 1.4304 0.5058
C6 C 0.9450(6) 1.2992(6) 0.4233(5)
H6 H 0.9920 1.2256 0.4171
C7 C 0.9640(5) 1.2448(6) 0.1552(4)
H7 H 1.0140 1.2623 0.2029
C8 C 0.8972(6) 1.2168(7) 0.0218(4)
H8 H 0.8897 1.2108 -0.0424
C9 C 0.8159(6) 1.1929(7) 0.0843(4)
H9 H 0.7435 1.1681 0.0706
C10 C 0.6745(5) 0.8047(6) 0.6051(4)
H10 H 0.6964 0.8808 0.5721
C11 C 0.5781(6) 0.8109(6) 0.6541(4)
H11 H 0.5371 0.8902 0.6549
C12 C 0.5413(5) 0.6992(6) 0.7026(4)
C13 C 0.6110(5) 0.5849(6) 0.7026(4)
H12 H 0.5921 0.5091 0.7372
C14 C 0.7075(5) 0.5865(6) 0.6509(4)
H13 H 0.7518 0.5098 0.6502
C15 C 0.4299(6) 0.6923(7) 0.7494(4)
Zn1A Zn 0.22359(5) 0.80977(6) 0.79077(4)
Zn2_2 Zn 0.86971(5) 1.68583(6) 0.50946(4)
Zn2A Zn 1.13029(5) 1.31417(6) 0.00946(4)
O1A O 0.6201(4) 1.1956(4) 0.2544(3)
N3_2 N 0.8798(4) 0.4989(5) 0.4657(3)
N6A N 1.0091(4) 0.7492(4) 0.5670(3)
loop_
_geom_bond_atom_site_label_1
_geom_bond_atom_site_label_2
_geom_bond_site_symmetry_1
_geom_bond_site_symmetry_2
Zn1 N2 1_555 1_555
Zn2 N1 1_555 1_555
O1 C15 1_555 1_555
O2 C15 1_555 1_555
N1 C1 1_555 1_555
N2 C1 1_555 1_555
N3 C4 1_555 1_555
N4 Zn1 1_555 1_555
N5 Zn1 1_555 1_555
N6 C7 1_555 1_555
N7 Zn2 1_555 1_555
C1 H1 1_555 1_555
C2 N2 1_555 1_555
H2 C2 1_555 1_555
C3 N1 1_555 1_555
H3 C3 1_555 1_555
C4 N4 1_555 1_555
H4 C4 1_555 1_555
C5 N3 1_555 1_555
H5 C5 1_555 1_555
C6 N4 1_555 1_555
H6 C6 1_555 1_555
C7 N5 1_555 1_555
H7 C7 1_555 1_555
C8 N6 1_555 1_555
H8 C8 1_555 1_555
C9 N5 1_555 1_555
H9 C9 1_555 1_555
C10 N7 1_555 1_555
H10 C10 1_555 1_555
C11 C10 1_555 1_555
H11 C11 1_555 1_555
C12 C11 1_555 1_555
C13 C12 1_555 1_555
H12 C13 1_555 1_555
C14 N7 1_555 1_555
H13 C14 1_555 1_555
C15 C12 1_555 1_555
Zn1A O1 1_555 1_555
Zn2_2 N3 1_555 1_555
Zn2A N6 1_555 1_555
O1A Zn1 1_555 1_555
N3_2 Zn2 1_555 1_555
N6A Zn2 1_555 1_555
C2 C3 1_555 1_555
C5 C6 1_555 1_555
C8 C9 1_555 1_555
C13 C14 1_555 1_555

#END
