
#######################################################################
#
#                 Cambridge Crystallographic Data Centre
#                                CCDC 
#
#######################################################################
#
# If this CIF has been generated from an entry in the Cambridge 
# Structural Database, then it will include bibliographic, chemical, 
# crystal, experimental, refinement or atomic coordinate data resulting 
# from the CCDC's data processing and validation procedures.
#
#######################################################################

data_UXUZAP
_symmetry_cell_setting           orthorhombic
_symmetry_space_group_name_H-M   'P n a 21'
_symmetry_Int_Tables_number      33
_space_group_name_Hall           'P 2c -2n'
loop_
_symmetry_equiv_pos_site_id
_symmetry_equiv_pos_as_xyz
1 x,y,z
2 -x,-y,1/2+z
3 1/2+x,1/2-y,z
4 1/2-x,1/2+y,1/2+z
_cell_length_a                   18.2006(9)
_cell_length_b                   10.4443(7)
_cell_length_c                   9.0541(6)
_cell_angle_alpha                90
_cell_angle_beta                 90
_cell_angle_gamma                90
_cell_volume                     1721.12
loop_
_atom_site_label
_atom_site_type_symbol
_atom_site_fract_x
_atom_site_fract_y
_atom_site_fract_z
Zn1 Zn 0.400306(16) -0.01884(3) -0.13211(8)
C1 C 0.5012(3) 0.0241(4) -0.3733(7)
H1 H 0.5298 -0.0384 -0.3278
N1 N 0.51899(15) 0.0740(3) -0.5050(4)
N2 N 0.45776(17) 0.2366(3) -0.6532(5)
C2 C 0.3990(2) 0.3106(4) -0.6469(8)
H2 H 0.3921 0.3645 -0.7274
N3 N 0.43990(15) 0.0699(3) -0.3117(3)
C3 C 0.3539(2) 0.2429(4) -0.4215(5)
N4 N 0.34835(18) 0.3186(3) -0.5411(4)
C4 C 0.41569(18) 0.1587(4) -0.4143(4)
C5 C 0.46365(17) 0.1618(4) -0.5310(5)
N5 N 0.30240(17) 0.2505(4) -0.3169(4)
H3 H 0.2664 0.3032 -0.3266
H4 H 0.3052 0.2026 -0.2398
O1 O 0.33716(14) 0.1063(3) -0.0379(3)
N6 N 0.16366(15) 0.3429(3) 0.2798(4)
O2 O 0.31265(15) -0.0402(3) 0.1333(4)
C6 C 0.3044(2) 0.0657(4) 0.0796(5)
C7 C 0.2569(2) 0.2892(4) 0.1072(5)
H5 H 0.2891 0.3155 0.0334
C8 C 0.2541(2) 0.1626(4) 0.1505(5)
C9 C 0.2111(2) 0.3760(4) 0.1758(5)
H6 H 0.2136 0.4615 0.1477
C10 C 0.1615(2) 0.2202(4) 0.3223(5)
H7 H 0.1288 0.1964 0.3961
C11 C 0.2063(2) 0.1273(4) 0.2604(5)
H8 H 0.2041 0.0429 0.2927
Zn1A Zn 0.599694(16) 0.01884(3) -0.63211(8)
Zn1C Zn 0.099694(16) 0.48116(3) 0.36789(8)
N1A N 0.48101(15) -0.0740(3) -0.0050(4)
N6C N 0.33634(15) -0.1571(3) -0.2202(4)
N7 N -0.0252(3) -0.1422(4) 0.3551(7)
O3 O 0.0825(3) -0.0644(6) 0.4370(8)
C12 C 0.0320(5) -0.0778(8) 0.3341(13)
H9 H 0.0390 -0.0383 0.2431
C13 C -0.0423(6) -0.2074(9) 0.4841(11)
H10 H -0.0042 -0.1939 0.5556
H11 H -0.0466 -0.2972 0.4634
H12 H -0.0881 -0.1761 0.5226
C14 C -0.0772(6) -0.1483(8) 0.2398(11)
H13 H -0.0600 -0.0989 0.1573
H14 H -0.1232 -0.1142 0.2735
H15 H -0.0837 -0.2358 0.2101
loop_
_geom_bond_atom_site_label_1
_geom_bond_atom_site_label_2
_geom_bond_site_symmetry_1
_geom_bond_site_symmetry_2
Zn1 N3 1_555 1_555
C1 H1 1_555 1_555
N1 C1 1_555 1_555
N2 C2 1_555 1_555
C2 H2 1_555 1_555
N3 C1 1_555 1_555
C3 N4 1_555 1_555
N4 C2 1_555 1_555
C4 N3 1_555 1_555
C5 N1 1_555 1_555
N5 C3 1_555 1_555
H3 N5 1_555 1_555
H4 N5 1_555 1_555
O1 Zn1 1_555 1_555
N6 C9 1_555 1_555
O2 C6 1_555 1_555
C6 O1 1_555 1_555
C7 H5 1_555 1_555
C8 C6 1_555 1_555
C9 C7 1_555 1_555
H6 C9 1_555 1_555
C10 N6 1_555 1_555
H7 C10 1_555 1_555
C11 C8 1_555 1_555
H8 C11 1_555 1_555
N7 C12 1_555 1_555
O3 C12 1_555 1_555
C12 H9 1_555 1_555
C13 N7 1_555 1_555
H10 C13 1_555 1_555
H11 C13 1_555 1_555
H12 C13 1_555 1_555
C14 N7 1_555 1_555
H13 C14 1_555 1_555
H14 C14 1_555 1_555
H15 C14 1_555 1_555
Zn1A N1 1_555 1_555
Zn1C N6 1_555 1_555
N1A Zn1 1_555 1_555
N6C Zn1 1_555 1_555
N2 C5 1_555 1_555
C3 C4 1_555 1_555
C4 C5 1_555 1_555
C7 C8 1_555 1_555
C10 C11 1_555 1_555

#END
