
#######################################################################
#
#                 Cambridge Crystallographic Data Centre
#                                CCDC 
#
#######################################################################
#
# If this CIF has been generated from an entry in the Cambridge 
# Structural Database, then it will include bibliographic, chemical, 
# crystal, experimental, refinement or atomic coordinate data resulting 
# from the CCDC's data processing and validation procedures.
#
#######################################################################

data_UYACUT
_symmetry_cell_setting           orthorhombic
_symmetry_space_group_name_H-M   'C m c 21'
_symmetry_Int_Tables_number      36
_space_group_name_Hall           'C 2n -2'
loop_
_symmetry_equiv_pos_site_id
_symmetry_equiv_pos_as_xyz
1 x,y,z
2 -x,-y,1/2+z
3 x,-y,1/2+z
4 -x,y,z
5 1/2+x,1/2+y,z
6 1/2-x,1/2-y,1/2+z
7 1/2+x,1/2-y,1/2+z
8 1/2-x,1/2+y,z
_cell_length_a                   21.7967(16)
_cell_length_b                   10.8375(8)
_cell_length_c                   6.2825(5)
_cell_angle_alpha                90
_cell_angle_beta                 90
_cell_angle_gamma                90
_cell_volume                     1484.06
loop_
_atom_site_label
_atom_site_type_symbol
_atom_site_fract_x
_atom_site_fract_y
_atom_site_fract_z
Bi1 Bi 0.5000 0.870448(8) 0.87697(6)
N1 N 0.5000 0.7507(3) 1.1747(5)
N2 N 0.5000 0.6405(3) 1.1396(6)
N3 N 0.5000 0.5365(4) 1.1149(8)
N4 N 0.43495(9) 0.9933(2) 1.0736(3)
N5 N 0.38534(9) 1.02106(18) 1.0004(3)
N6 N 0.33765(10) 1.0494(2) 0.9404(3)
N7 N 0.39967(10) 0.74430(19) 0.8050(3)
C1 C 0.35158(12) 0.7347(2) 0.9372(4)
H1 H 0.3543 0.7720 1.0737
C2 C 0.29817(10) 0.67274(19) 0.8832(9)
H2 H 0.2648 0.6681 0.9803
C3 C 0.29453(14) 0.6177(2) 0.6843(5)
H3 H 0.2587 0.5741 0.6427
C4 C 0.34389(16) 0.6274(2) 0.5477(5)
H4 H 0.3426 0.5908 0.4104
C5 C 0.39528(14) 0.6916(2) 0.6149(4)
H5 H 0.4291 0.6983 0.5202
Bi1A Bi 0.5000 1.129552(8) 1.37697(6)
Bi1A_2 Bi 0.5000 1.129552(8) 0.37697(6)
N4A N 0.56505(9) 1.0067(2) 0.5736(3)
N4B N 0.43495(9) 1.0067(2) 0.5736(3)
N4C N 0.56505(9) 0.9933(2) 1.0736(3)
N5A N 0.61466(9) 0.97894(18) 0.5004(3)
N6A N 0.66235(10) 0.9506(2) 0.4404(3)
N7C N 0.60033(10) 0.74430(19) 0.8050(3)
C1C C 0.64842(12) 0.7347(2) 0.9372(4)
H1C H 0.6457 0.7720 1.0737
C2C C 0.70183(10) 0.67274(19) 0.8832(9)
H2C H 0.7352 0.6681 0.9803
C3C C 0.70547(14) 0.6177(2) 0.6843(5)
H3C H 0.7413 0.5741 0.6427
C4C C 0.65611(16) 0.6274(2) 0.5477(5)
H4C H 0.6574 0.5908 0.4104
C5C C 0.60472(14) 0.6916(2) 0.6149(4)
H5C H 0.5709 0.6983 0.5202
loop_
_geom_bond_atom_site_label_1
_geom_bond_atom_site_label_2
_geom_bond_site_symmetry_1
_geom_bond_site_symmetry_2
Bi1 N1 1_555 1_555
N1 N2 1_555 1_555
N2 N3 1_555 1_555
N4 Bi1 1_555 1_555
N5 N4 1_555 1_555
N6 N5 1_555 1_555
N7 Bi1 1_555 1_555
C1 N7 1_555 1_555
H1 C1 1_555 1_555
C2 C1 1_555 1_555
H2 C2 1_555 1_555
C3 C2 1_555 1_555
H3 C3 1_555 1_555
C4 C3 1_555 1_555
H4 C4 1_555 1_555
C5 N7 1_555 1_555
H5 C5 1_555 1_555
Bi1A N4 1_555 1_555
Bi1A_2 N4A 1_555 1_555
N4A Bi1 1_555 1_555
N4B Bi1 1_555 1_555
N4C Bi1 1_555 1_555
N5A N4A 1_555 1_555
N6A N5A 1_555 1_555
N7C Bi1 1_555 1_555
C1C N7C 1_555 1_555
H1C C1C 1_555 1_555
C2C C1C 1_555 1_555
H2C C2C 1_555 1_555
C3C C2C 1_555 1_555
H3C C3C 1_555 1_555
C4C C3C 1_555 1_555
H4C C4C 1_555 1_555
C5C N7C 1_555 1_555
H5C C5C 1_555 1_555
C4 C5 1_555 1_555
Bi1A N4C 1_555 1_555
Bi1A_2 N4B 1_555 1_555
C4C C5C 1_555 1_555

#END
