
#######################################################################
#
#                 Cambridge Crystallographic Data Centre
#                                CCDC 
#
#######################################################################
#
# If this CIF has been generated from an entry in the Cambridge 
# Structural Database, then it will include bibliographic, chemical, 
# crystal, experimental, refinement or atomic coordinate data resulting 
# from the CCDC's data processing and validation procedures.
#
#######################################################################

data_UYASUJ
_symmetry_cell_setting           triclinic
_symmetry_space_group_name_H-M   'P -1'
_symmetry_Int_Tables_number      2
_space_group_name_Hall           '-P 1'
loop_
_symmetry_equiv_pos_site_id
_symmetry_equiv_pos_as_xyz
1 x,y,z
2 -x,-y,-z
_cell_length_a                   7.4502(6)
_cell_length_b                   10.2325(8)
_cell_length_c                   17.6490(15)
_cell_angle_alpha                85.944(7)
_cell_angle_beta                 82.190(7)
_cell_angle_gamma                70.351(7)
_cell_volume                     1254.91
loop_
_atom_site_label
_atom_site_type_symbol
_atom_site_fract_x
_atom_site_fract_y
_atom_site_fract_z
Zn1 Zn 1.00338(13) 0.96134(9) 0.27550(5)
Zn2 Zn 0.54110(14) 1.05949(10) 0.21138(5)
O1 O 0.8162(7) 0.8835(5) 0.3437(3)
O2 O 0.5295(8) 0.9433(7) 0.3010(3)
O3 O 0.2480(8) 0.8023(6) 0.3276(3)
O4 O 0.1078(7) 1.0170(5) 0.3664(3)
O5 O 1.3222(8) 1.2278(6) 0.2251(3)
O6 O 1.1558(7) 1.0962(5) 0.2037(3)
O7 O 0.7671(7) 1.1100(5) 0.2263(3)
O8 O 0.7311(9) 1.2547(6) 0.1252(3)
N1 N 1.0769(8) 0.8233(6) 0.1857(3)
N2 N 0.5926(9) 0.9318(6) 0.1236(3)
C1 C 0.5463(10) 0.8590(7) 0.4259(4)
C2 C 0.3576(10) 0.8663(7) 0.4359(4)
C3 C 0.2724(12) 0.8383(8) 0.5078(4)
H1 H 0.1410 0.8449 0.5148
C4 C 0.3791(12) 0.8009(8) 0.5686(4)
H2 H 0.3201 0.7820 0.6174
C5 C 0.5699(12) 0.7906(8) 0.5598(4)
H3 H 0.6419 0.7640 0.6021
C6 C 0.6573(11) 0.8195(8) 0.4884(5)
H4 H 0.7888 0.8129 0.4817
C7 C 0.6403(11) 0.8968(7) 0.3513(4)
C8 C 0.2327(10) 0.8985(8) 0.3722(4)
C9 C 0.9879(11) 1.3153(7) 0.2583(4)
C10 C 0.8093(11) 1.3277(7) 0.2380(4)
C11 C 0.6446(12) 1.4400(8) 0.2641(4)
H5 H 0.5241 1.4514 0.2474
C12 C 0.6601(13) 1.5320(8) 0.3137(5)
H6 H 0.5494 1.6060 0.3324
C13 C 0.8379(13) 1.5172(8) 0.3368(5)
H7 H 0.8471 1.5795 0.3723
C14 C 1.0026(12) 1.4113(8) 0.3079(4)
H8 H 1.1242 1.4045 0.3219
C15 C 1.1624(11) 1.2031(7) 0.2271(4)
C16 C 0.7713(10) 1.2244(7) 0.1913(4)
C17 C 0.5813(15) 0.8086(10) 0.1422(7)
H9 H 0.5178 0.7933 0.1907
C18 C 0.6620(18) 0.6979(10) 0.0911(7)
H10 H 0.6493 0.6098 0.1053
C19 C 0.7573(11) 0.7155(8) 0.0222(4)
C20 C 0.754(2) 0.8482(10) 0.0030(5)
H11 H 0.8070 0.8684 -0.0466
C21 C 0.674(2) 0.9522(9) 0.0543(5)
H12 H 0.6778 1.0425 0.0396
C22 C 0.8995(11) 0.5971(7) -0.0226(4)
H13 H 0.9071 0.6202 -0.0787
C23 C 1.1103(11) 0.5508(7) 0.0066(4)
H14 H 1.2103 0.5509 -0.0374
C24 C 1.1270(12) 0.6329(8) 0.0712(5)
C25 C 1.094(2) 0.6032(9) 0.1443(5)
H15 H 1.0879 0.5137 0.1595
C26 C 1.067(2) 0.6987(11) 0.1993(5)
H16 H 1.0402 0.6720 0.2511
C27 C 1.124(2) 0.8480(12) 0.1137(6)
H17 H 1.1413 0.9347 0.1001
C28 C 1.149(2) 0.7587(13) 0.0560(6)
H18 H 1.1834 0.7849 0.0048
Zn1_2 Zn 2.00338(13) 0.96134(9) 0.27550(5)
Zn1_3 Zn 0.00338(13) 0.96134(9) 0.27550(5)
Zn1A Zn 0.99662(13) 0.03866(9) -0.27550(5)
Zn2_2 Zn 1.54110(14) 1.05949(10) 0.21138(5)
Zn2A Zn 1.45890(14) -0.05949(10) -0.21138(5)
Zn2_3 Zn -0.45890(14) 1.05949(10) 0.21138(5)
O1_2 O 1.8162(7) 0.8835(5) 0.3437(3)
O2_2 O 1.5295(8) 0.9433(7) 0.3010(3)
O3_2 O 1.2480(8) 0.8023(6) 0.3276(3)
O3_3 O 2.2480(8) 0.8023(6) 0.3276(3)
O4_2 O 1.1078(7) 1.0170(5) 0.3664(3)
O4_3 O 2.1078(7) 1.0170(5) 0.3664(3)
O5_2 O 0.3222(8) 1.2278(6) 0.2251(3)
O6_2 O 0.1558(7) 1.0962(5) 0.2037(3)
O6_3 O 2.1558(7) 1.0962(5) 0.2037(3)
O7_2 O -0.2329(7) 1.1100(5) 0.2263(3)
O7_3 O 1.7671(7) 1.1100(5) 0.2263(3)
O8_2 O -0.2689(9) 1.2547(6) 0.1252(3)
N1A N 0.9231(8) 0.1767(6) -0.1857(3)
N1_2 N 2.0769(8) 0.8233(6) 0.1857(3)
N2A N 1.4074(9) 0.0682(6) -0.1236(3)
N2_2 N 1.5926(9) 0.9318(6) 0.1236(3)
C1_2 C 1.5463(10) 0.8590(7) 0.4259(4)
C2_2 C 1.3576(10) 0.8663(7) 0.4359(4)
C3_2 C 1.2724(12) 0.8383(8) 0.5078(4)
H1_2 H 1.1410 0.8449 0.5148
C4_2 C 1.3791(12) 0.8009(8) 0.5686(4)
H2_2 H 1.3201 0.7820 0.6174
C5_2 C 1.5699(12) 0.7906(8) 0.5598(4)
H3_2 H 1.6419 0.7640 0.6021
C6_2 C 1.6573(11) 0.8195(8) 0.4884(5)
H4_2 H 1.7888 0.8129 0.4817
C7_2 C 1.6403(11) 0.8968(7) 0.3513(4)
C8_2 C 1.2327(10) 0.8985(8) 0.3722(4)
C9_2 C -0.0121(11) 1.3153(7) 0.2583(4)
C10_2 C -0.1907(11) 1.3277(7) 0.2380(4)
C11_2 C -0.3554(12) 1.4400(8) 0.2641(4)
H5_2 H -0.4759 1.4514 0.2474
C12_2 C -0.3399(13) 1.5320(8) 0.3137(5)
H6_2 H -0.4506 1.6060 0.3324
C13_2 C -0.1621(13) 1.5172(8) 0.3368(5)
H7_2 H -0.1529 1.5795 0.3723
C14_2 C 0.0026(12) 1.4113(8) 0.3079(4)
H8_2 H 0.1242 1.4045 0.3219
C15_2 C 0.1624(11) 1.2031(7) 0.2271(4)
C16_2 C -0.2287(10) 1.2244(7) 0.1913(4)
C17A C 1.4187(15) 0.1914(10) -0.1422(7)
H9A H 1.4822 0.2067 -0.1907
C18A C 1.3380(18) 0.3021(10) -0.0911(7)
H10A H 1.3507 0.3902 -0.1053
C19A C 1.2427(11) 0.2845(8) -0.0222(4)
C20A C 1.246(2) 0.1518(10) -0.0030(5)
H11A H 1.1930 0.1316 0.0466
C21A C 1.326(2) 0.0478(9) -0.0543(5)
H12A H 1.3222 -0.0425 -0.0396
C22A C 1.1005(11) 0.4029(7) 0.0226(4)
H13A H 1.0929 0.3798 0.0787
C23A C 0.8897(11) 0.4492(7) -0.0066(4)
H14A H 0.7897 0.4491 0.0374
C24A C 0.8730(12) 0.3671(8) -0.0712(5)
C25A C 0.906(2) 0.3968(9) -0.1443(5)
H15A H 0.9121 0.4863 -0.1595
C26A C 0.933(2) 0.3013(11) -0.1993(5)
H16A H 0.9598 0.3280 -0.2511
C27A C 0.876(2) 0.1520(12) -0.1137(6)
H17A H 0.8587 0.0653 -0.1001
C28A C 0.851(2) 0.2413(13) -0.0560(6)
H18A H 0.8166 0.2151 -0.0048
loop_
_geom_bond_atom_site_label_1
_geom_bond_atom_site_label_2
_geom_bond_site_symmetry_1
_geom_bond_site_symmetry_2
Zn1 O1 1_555 1_555
Zn2 O2 1_555 1_555
O1 C7 1_555 1_555
O2 C7 1_555 1_555
O3 C8 1_555 1_555
O4 C8 1_555 1_555
O5 C15 1_555 1_555
O6 Zn1 1_555 1_555
O7 Zn1 1_555 1_555
O8 C16 1_555 1_555
N1 Zn1 1_555 1_555
N2 Zn2 1_555 1_555
C1 C2 1_555 1_555
C2 C3 1_555 1_555
C3 H1 1_555 1_555
C4 C3 1_555 1_555
H2 C4 1_555 1_555
C5 C4 1_555 1_555
H3 C5 1_555 1_555
C6 C1 1_555 1_555
H4 C6 1_555 1_555
C7 C1 1_555 1_555
C8 C2 1_555 1_555
C9 C10 1_555 1_555
C10 C11 1_555 1_555
C11 H5 1_555 1_555
C12 C11 1_555 1_555
H6 C12 1_555 1_555
C13 C12 1_555 1_555
H7 C13 1_555 1_555
C14 C9 1_555 1_555
H8 C14 1_555 1_555
C15 O6 1_555 1_555
C16 O7 1_555 1_555
C17 N2 1_555 1_555
H9 C17 1_555 1_555
C18 C17 1_555 1_555
H10 C18 1_555 1_555
C19 C18 1_555 1_555
C20 C19 1_555 1_555
H11 C20 1_555 1_555
C21 N2 1_555 1_555
H12 C21 1_555 1_555
C22 C19 1_555 1_555
H13 C22 1_555 1_555
C23 C22 1_555 1_555
H14 C23 1_555 1_555
C24 C23 1_555 1_555
C25 C24 1_555 1_555
H15 C25 1_555 1_555
C26 N1 1_555 1_555
H16 C26 1_555 1_555
C27 N1 1_555 1_555
H17 C27 1_555 1_555
C28 C24 1_555 1_555
H18 C28 1_555 1_555
Zn1_2 O1_2 1_555 1_555
Zn1_3 O3 1_555 1_555
Zn1A N1A 1_555 1_555
Zn2_2 O5 1_555 1_555
Zn2A N2A 1_555 1_555
Zn2_3 O7_2 1_555 1_555
O1_2 C7_2 1_555 1_555
O2_2 Zn2_2 1_555 1_555
O3_2 Zn1 1_555 1_555
O3_3 Zn1_2 1_555 1_555
O4_2 Zn1 1_555 1_555
O4_3 Zn1_2 1_555 1_555
O5_2 Zn2 1_555 1_555
O6_2 Zn1_3 1_555 1_555
O6_3 Zn1_2 1_555 1_555
O7_2 Zn1_3 1_555 1_555
O7_3 Zn1_2 1_555 1_555
O8_2 C16_2 1_555 1_555
N1A C26A 1_555 1_555
N1_2 Zn1_2 1_555 1_555
N2A C17A 1_555 1_555
N2_2 Zn2_2 1_555 1_555
C1_2 C2_2 1_555 1_555
C2_2 C3_2 1_555 1_555
C3_2 H1_2 1_555 1_555
C4_2 C3_2 1_555 1_555
H2_2 C4_2 1_555 1_555
C5_2 C4_2 1_555 1_555
H3_2 C5_2 1_555 1_555
C6_2 C1_2 1_555 1_555
H4_2 C6_2 1_555 1_555
C7_2 O2_2 1_555 1_555
C8_2 O3_2 1_555 1_555
C9_2 C10_2 1_555 1_555
C10_2 C11_2 1_555 1_555
C11_2 H5_2 1_555 1_555
C12_2 C11_2 1_555 1_555
H6_2 C12_2 1_555 1_555
C13_2 C12_2 1_555 1_555
H7_2 C13_2 1_555 1_555
C14_2 C9_2 1_555 1_555
H8_2 C14_2 1_555 1_555
C15_2 O5_2 1_555 1_555
C16_2 O7_2 1_555 1_555
C17A H9A 1_555 1_555
C18A C17A 1_555 1_555
H10A C18A 1_555 1_555
C19A C18A 1_555 1_555
C20A C19A 1_555 1_555
H11A C20A 1_555 1_555
C21A N2A 1_555 1_555
H12A C21A 1_555 1_555
C22A C23 1_555 1_555
H13A C22A 1_555 1_555
C23A C22 1_555 1_555
H14A C23A 1_555 1_555
C24A C23A 1_555 1_555
C25A C24A 1_555 1_555
H15A C25A 1_555 1_555
C26A C25A 1_555 1_555
H16A C26A 1_555 1_555
C27A N1A 1_555 1_555
H17A C27A 1_555 1_555
C28A C24A 1_555 1_555
H18A C28A 1_555 1_555
Zn2 O7 1_555 1_555
O4 Zn1_3 1_555 1_555
C5 C6 1_555 1_555
C9 C15 1_555 1_555
C10 C16 1_555 1_555
C13 C14 1_555 1_555
C20 C21 1_555 1_555
C25 C26 1_555 1_555
C27 C28 1_555 1_555
Zn2_2 O7_3 1_555 1_555
O4_2 C8_2 1_555 1_555
O6_2 C15_2 1_555 1_555
C1_2 C7_2 1_555 1_555
C2_2 C8_2 1_555 1_555
C5_2 C6_2 1_555 1_555
C9_2 C15_2 1_555 1_555
C10_2 C16_2 1_555 1_555
C13_2 C14_2 1_555 1_555
C19A C22A 1_555 1_555
C20A C21A 1_555 1_555
C22A C23A 1_555 1_555
C27A C28A 1_555 1_555

#END
