
#######################################################################
#
#                 Cambridge Crystallographic Data Centre
#                                CCDC 
#
#######################################################################
#
# If this CIF has been generated from an entry in the Cambridge 
# Structural Database, then it will include bibliographic, chemical, 
# crystal, experimental, refinement or atomic coordinate data resulting 
# from the CCDC's data processing and validation procedures.
#
#######################################################################

data_UYASIX
_symmetry_cell_setting           triclinic
_symmetry_space_group_name_H-M   'P -1'
_symmetry_Int_Tables_number      2
_space_group_name_Hall           '-P 1'
loop_
_symmetry_equiv_pos_site_id
_symmetry_equiv_pos_as_xyz
1 x,y,z
2 -x,-y,-z
_cell_length_a                   7.4590(13)
_cell_length_b                   10.2832(19)
_cell_length_c                   18.147(4)
_cell_angle_alpha                87.364(7)
_cell_angle_beta                 78.654(5)
_cell_angle_gamma                69.940(5)
_cell_volume                     1281.58
loop_
_atom_site_label
_atom_site_type_symbol
_atom_site_fract_x
_atom_site_fract_y
_atom_site_fract_z
Zn1 Zn 0.00256(15) 0.45533(12) 0.22290(6)
Zn2 Zn 0.64069(15) -0.53969(12) 0.71065(6)
N1 N 0.0575(11) 0.3159(8) 0.3109(4)
N2 N 0.5614(10) -0.4016(8) 0.6294(4)
O1 O 0.2705(9) 0.3780(8) 0.1541(4)
O2 O 0.4958(9) 0.4356(8) 0.1984(4)
O3 O 0.9161(9) 0.3024(8) 0.1705(4)
O4 O 0.8532(10) 0.5179(7) 0.1338(4)
O5 O 0.0909(8) 0.6004(6) 0.2729(4)
O6 O -0.0278(12) 0.7427(9) 0.3731(4)
O7 O -0.2833(9) 0.5794(7) 0.2977(3)
O8 O -0.5794(9) 0.7110(7) 0.2817(4)
C1 C 0.0108(14) 0.3494(11) 0.3837(6)
H1 H -0.0598 0.4414 0.3977
C2 C 0.0593(14) 0.2586(11) 0.4387(6)
H2 H 0.0232 0.2893 0.4886
C3 C 0.1634(14) 0.1187(10) 0.4210(5)
C4 C 0.2024(17) 0.0841(12) 0.3448(6)
H3 H 0.2660 -0.0080 0.3293
C5 C 0.1486(16) 0.1835(11) 0.2917(6)
H4 H 0.1772 0.1566 0.2413
C6 C 0.2279(15) 0.0224(11) 0.4784(6)
H5 H 0.1797 0.0534 0.5281
C7 C 0.3511(17) -0.1080(12) 0.4664(6)
H6 H 0.3954 -0.1389 0.4166
C8 C 0.4237(15) -0.2073(11) 0.5235(6)
C9 C 0.3604(16) -0.1815(12) 0.6010(6)
H7 H 0.2690 -0.0961 0.6183
C10 C 0.4299(15) -0.2791(11) 0.6519(5)
H8 H 0.3841 -0.2591 0.7030
C11 C 0.6229(14) -0.4268(11) 0.5560(6)
H9 H 0.7154 -0.5127 0.5402
C12 C 0.5601(16) -0.3364(11) 0.5030(6)
H10 H 0.6087 -0.3608 0.4524
C13 C 0.5741(13) 0.3545(10) 0.0729(5)
C14 C 0.7615(14) 0.3667(10) 0.0638(5)
C15 C 0.8800(15) 0.3402(12) -0.0072(6)
H11 H 1.0027 0.3480 -0.0144
C16 C 0.8188(17) 0.3029(13) -0.0664(6)
H12 H 0.9007 0.2852 -0.1133
C17 C 0.6397(18) 0.2912(12) -0.0577(6)
H13 H 0.6010 0.2642 -0.0985
C18 C 0.5142(14) 0.3195(11) 0.0115(6)
H14 H 0.3901 0.3148 0.0167
C19 C 0.4339(13) 0.3912(10) 0.1463(5)
C20 C 0.8464(12) 0.3963(11) 0.1279(5)
C21 C -0.3261(12) 0.8031(9) 0.2450(5)
C22 C -0.1594(12) 0.8158(9) 0.2631(5)
C23 C -0.1010(15) 0.9273(11) 0.2348(6)
H15 H 0.0073 0.9385 0.2479
C24 C -0.2037(18) 1.0211(12) 0.1876(7)
H16 H -0.1639 1.0943 0.1684
C25 C -0.3664(18) 1.0039(12) 0.1696(7)
H17 H -0.4343 1.0647 0.1369
C26 C -0.4281(15) 0.8985(11) 0.1993(6)
H18 H -0.5410 0.8912 0.1884
C27 C -0.4005(11) 0.6895(9) 0.2770(5)
C28 C -0.0304(14) 0.7140(12) 0.3090(6)
Zn1_2 Zn 1.00256(15) 0.45533(12) 0.22290(6)
Zn2A Zn 0.35931(15) 0.53969(12) 0.28935(6)
Zn2A_2 Zn -0.64069(15) 0.53969(12) 0.28935(6)
O2A O 0.5042(9) -0.4356(8) 0.8016(4)
O3_2 O -0.0839(9) 0.3024(8) 0.1705(4)
O4_2 O -0.1468(10) 0.5179(7) 0.1338(4)
O5A O 0.9091(8) -0.6004(6) 0.7271(4)
O8A O 0.5794(9) -0.7110(7) 0.7183(4)
loop_
_geom_bond_atom_site_label_1
_geom_bond_atom_site_label_2
_geom_bond_site_symmetry_1
_geom_bond_site_symmetry_2
Zn1 N1 1_555 1_555
Zn2 N2 1_555 1_555
N1 C1 1_555 1_555
N2 C10 1_555 1_555
O1 Zn1 1_555 1_555
O2 C19 1_555 1_555
O3 C20 1_555 1_555
O4 C20 1_555 1_555
O5 Zn1 1_555 1_555
O6 C28 1_555 1_555
O7 Zn1 1_555 1_555
O8 C27 1_555 1_555
C1 H1 1_555 1_555
C2 C1 1_555 1_555
H2 C2 1_555 1_555
C3 C2 1_555 1_555
C4 C3 1_555 1_555
H3 C4 1_555 1_555
C5 N1 1_555 1_555
H4 C5 1_555 1_555
C6 C3 1_555 1_555
H5 C6 1_555 1_555
C7 C6 1_555 1_555
H6 C7 1_555 1_555
C8 C7 1_555 1_555
C9 C8 1_555 1_555
H7 C9 1_555 1_555
C10 C9 1_555 1_555
H8 C10 1_555 1_555
C11 N2 1_555 1_555
H9 C11 1_555 1_555
C12 C8 1_555 1_555
H10 C12 1_555 1_555
C13 C14 1_555 1_555
C14 C15 1_555 1_555
C15 H11 1_555 1_555
C16 C15 1_555 1_555
H12 C16 1_555 1_555
C17 C16 1_555 1_555
H13 C17 1_555 1_555
C18 C13 1_555 1_555
H14 C18 1_555 1_555
C19 O1 1_555 1_555
C20 C14 1_555 1_555
C21 C22 1_555 1_555
C22 C23 1_555 1_555
C23 H15 1_555 1_555
C24 C23 1_555 1_555
H16 C24 1_555 1_555
C25 C24 1_555 1_555
H17 C25 1_555 1_555
C26 C21 1_555 1_555
H18 C26 1_555 1_555
C27 O7 1_555 1_555
C28 O5 1_555 1_555
Zn1_2 O3 1_555 1_555
Zn2A O2 1_555 1_555
Zn2A_2 O8 1_555 1_555
O2A Zn2 1_555 1_555
O3_2 Zn1 1_555 1_555
O4_2 Zn1 1_555 1_555
O5A Zn2 1_555 1_555
O8A Zn2 1_555 1_555
O4 Zn1_2 1_555 1_555
O5 Zn2A 1_555 1_555
C4 C5 1_555 1_555
C11 C12 1_555 1_555
C13 C19 1_555 1_555
C17 C18 1_555 1_555
C21 C27 1_555 1_555
C22 C28 1_555 1_555
C25 C26 1_555 1_555

#END
