
#######################################################################
#
#                 Cambridge Crystallographic Data Centre
#                                CCDC 
#
#######################################################################
#
# If this CIF has been generated from an entry in the Cambridge 
# Structural Database, then it will include bibliographic, chemical, 
# crystal, experimental, refinement or atomic coordinate data resulting 
# from the CCDC's data processing and validation procedures.
#
#######################################################################

data_UYATUK
_symmetry_cell_setting           monoclinic
_symmetry_space_group_name_H-M   'C 2'
_symmetry_Int_Tables_number      5
_space_group_name_Hall           'C 2y'
loop_
_symmetry_equiv_pos_site_id
_symmetry_equiv_pos_as_xyz
1 x,y,z
2 -x,y,-z
3 1/2+x,1/2+y,z
4 1/2-x,1/2+y,-z
_cell_length_a                   16.7458(7)
_cell_length_b                   10.5063(5)
_cell_length_c                   12.7529(6)
_cell_angle_alpha                90
_cell_angle_beta                 112.534(2)
_cell_angle_gamma                90
_cell_volume                     2072.4
loop_
_atom_site_label
_atom_site_type_symbol
_atom_site_fract_x
_atom_site_fract_y
_atom_site_fract_z
C20 C 0.5000 -0.0404(19) 0.5000
C21 C 0.5000 0.178(3) 0.5000
C22 C 0.454(3) 0.112(4) 0.440(3)
C22A C 0.546(3) 0.112(4) 0.560(3)
Cu1 Cu 0.5000 -0.12138(7) 1.0000
Cu2 Cu 0.5000 0.12572(7) 1.0000
O1 O 0.0354(3) 0.0446(5) 0.3568(4)
O2 O 0.0299(2) -0.0091(6) 0.1818(3)
O3 O 0.4061(3) -0.1016(5) 0.8449(4)
O4 O 0.4312(3) 0.1076(5) 0.8378(3)
O5 O 0.4123(3) -0.1035(5) 0.0644(4)
O6 O 0.3937(3) 0.1056(5) 0.0328(4)
O7 O 0.5000 -0.3249(8) 1.0000
H1 H 0.497(6) -0.384(10) 1.050(7)
O8 O 0.5000 0.3253(8) 1.0000
H2 H 0.492(7) 0.362(10) 1.038(7)
C1 C 0.1187(4) 0.0665(6) 0.3533(5)
H3 H 0.1222 0.1552 0.3269
C2 C 0.1184(3) -0.0282(5) 0.2640(5)
H4 H 0.1237 -0.1161 0.2961
C3 C -0.0221(3) -0.0004(10) 0.2503(4)
C4 C -0.0544(6) -0.1340(10) 0.2653(9)
H5 H -0.0052 -0.1927 0.2935
H6 H -0.0959 -0.1645 0.1920
H7 H -0.0826 -0.1297 0.3198
C5 C -0.0932(5) 0.0967(10) 0.1948(7)
H8 H -0.0677 0.1756 0.1807
H9 H -0.1237 0.1144 0.2452
H10 H -0.1341 0.0627 0.1226
C6 C 0.1888(4) 0.0449(6) 0.4684(5)
C7 C 0.1821(4) -0.0447(7) 0.5419(6)
H11 H 0.1317 -0.0960 0.5208
C8 C 0.2493(5) -0.0617(8) 0.6491(5)
H12 H 0.2446 -0.1245 0.7000
C9 C 0.3226(4) 0.0147(8) 0.6793(4)
C10 C 0.3291(5) 0.1058(7) 0.6057(6)
H13 H 0.3791 0.1581 0.6273
C11 C 0.2628(5) 0.1218(9) 0.4997(6)
H14 H 0.2676 0.1846 0.4489
C12 C 0.3931(3) 0.0040(9) 0.7971(4)
C13 C 0.1812(3) -0.0136(7) 0.2064(4)
C14 C 0.2147(4) -0.1251(9) 0.1810(7)
H15 H 0.1956 -0.2052 0.1972
C15 C 0.2762(4) -0.1203(9) 0.1320(6)
H16 H 0.2996 -0.1966 0.1156
C16 C 0.3031(3) -0.0020(9) 0.1072(4)
C17 C 0.2660(4) 0.1069(8) 0.1268(5)
H17 H 0.2822 0.1871 0.1066
C18 C 0.2052(4) 0.1014(7) 0.1759(5)
H18 H 0.1799 0.1777 0.1885
C19 C 0.3744(3) 0.0010(10) 0.0636(4)
Cu1_2 Cu 0.5000 -0.12138(7) 0.0000
Cu1_3 Cu 0.5000 -0.12138(7) 2.0000
Cu2_2 Cu 0.5000 0.12572(7) 0.0000
Cu2_3 Cu 0.5000 0.12572(7) 2.0000
O1A O 0.9646(3) 0.0446(5) 1.6432(4)
O2A O 0.9701(2) -0.0091(6) 1.8182(3)
O3A O 0.5939(3) -0.1016(5) 1.1551(4)
O4A O 0.5688(3) 0.1076(5) 1.1622(3)
O5A O 0.5877(3) -0.1035(5) 1.9356(4)
O5_2 O 0.4123(3) -0.1035(5) 1.0644(4)
O5A_2 O 0.5877(3) -0.1035(5) 0.9356(4)
O6A O 0.6063(3) 0.1056(5) 1.9672(4)
O6_2 O 0.3937(3) 0.1056(5) 1.0328(4)
O6A_2 O 0.6063(3) 0.1056(5) 0.9672(4)
H1A H 0.503(6) -0.384(10) 0.950(7)
H2A H 0.508(7) 0.362(10) 0.962(7)
C1A C 0.8813(4) 0.0665(6) 1.6467(5)
H3A H 0.8778 0.1552 1.6731
C2A C 0.8816(3) -0.0282(5) 1.7360(5)
H4A H 0.8763 -0.1161 1.7039
C3A C 1.0221(3) -0.0004(10) 1.7497(4)
C4A C 1.0544(6) -0.1340(10) 1.7347(9)
H5A H 1.0052 -0.1927 1.7065
H6A H 1.0959 -0.1645 1.8080
H7A H 1.0826 -0.1297 1.6802
C5A C 1.0932(5) 0.0967(10) 1.8052(7)
H8A H 1.0677 0.1756 1.8193
H9A H 1.1237 0.1144 1.7548
H10A H 1.1341 0.0627 1.8774
C6A C 0.8112(4) 0.0449(6) 1.5316(5)
C7A C 0.8179(4) -0.0447(7) 1.4581(6)
H11A H 0.8683 -0.0960 1.4792
C8A C 0.7507(5) -0.0617(8) 1.3509(5)
H12A H 0.7554 -0.1245 1.3000
C9A C 0.6774(4) 0.0147(8) 1.3207(4)
C10A C 0.6709(5) 0.1058(7) 1.3943(6)
H13A H 0.6209 0.1581 1.3727
C11A C 0.7372(5) 0.1218(9) 1.5003(6)
H14A H 0.7324 0.1846 1.5511
C12A C 0.6069(3) 0.0040(9) 1.2029(4)
C13A C 0.8188(3) -0.0136(7) 1.7936(4)
C14A C 0.7853(4) -0.1251(9) 1.8190(7)
H15A H 0.8044 -0.2052 1.8028
C15A C 0.7238(4) -0.1203(9) 1.8680(6)
H16A H 0.7004 -0.1966 1.8844
C16A C 0.6969(3) -0.0020(9) 1.8928(4)
C17A C 0.7340(4) 0.1069(8) 1.8732(5)
H17A H 0.7178 0.1871 1.8934
C18A C 0.7948(4) 0.1014(7) 1.8241(5)
H18A H 0.8201 0.1777 1.8115
C19A C 0.6256(3) 0.0010(10) 1.9364(4)
loop_
_geom_bond_atom_site_label_1
_geom_bond_atom_site_label_2
_geom_bond_site_symmetry_1
_geom_bond_site_symmetry_2
Cu1 Cu2 1_555 1_555
Cu2 O4 1_555 1_555
O1 C1 1_555 1_555
O2 C2 1_555 1_555
O3 Cu1 1_555 1_555
O4 C12 1_555 1_555
O5 C19 1_555 1_555
O6 C19 1_555 1_555
O7 Cu1 1_555 1_555
H1 O7 1_555 1_555
O8 Cu2 1_555 1_555
H2 O8 1_555 1_555
C1 H3 1_555 1_555
C2 C1 1_555 1_555
H4 C2 1_555 1_555
C3 O1 1_555 1_555
C4 C3 1_555 1_555
H5 C4 1_555 1_555
H6 C4 1_555 1_555
H7 C4 1_555 1_555
C5 C3 1_555 1_555
H8 C5 1_555 1_555
H9 C5 1_555 1_555
H10 C5 1_555 1_555
C6 C1 1_555 1_555
C7 C6 1_555 1_555
H11 C7 1_555 1_555
C8 C7 1_555 1_555
H12 C8 1_555 1_555
C9 C8 1_555 1_555
C10 C9 1_555 1_555
H13 C10 1_555 1_555
C11 C6 1_555 1_555
H14 C11 1_555 1_555
C12 O3 1_555 1_555
C13 C2 1_555 1_555
C14 C13 1_555 1_555
H15 C14 1_555 1_555
C15 C14 1_555 1_555
H16 C15 1_555 1_555
C16 C15 1_555 1_555
C17 C16 1_555 1_555
H17 C17 1_555 1_555
C18 C13 1_555 1_555
H18 C18 1_555 1_555
C19 C16 1_555 1_555
C20 C22 1_555 1_555
C21 C22 1_555 1_555
C22 C22A 1_555 1_555
Cu1_2 O5 1_555 1_555
Cu1_3 Cu2_3 1_555 1_555
Cu2_2 O6 1_555 1_555
Cu2_3 O6A 1_555 1_555
O1A C1A 1_555 1_555
O2A C2A 1_555 1_555
O3A Cu1 1_555 1_555
O4A Cu2 1_555 1_555
O5A Cu1_3 1_555 1_555
O5_2 Cu1 1_555 1_555
O5A_2 Cu1 1_555 1_555
O6A C19A 1_555 1_555
O6_2 Cu2 1_555 1_555
O6A_2 Cu2 1_555 1_555
H1A O7 1_555 1_555
H2A O8 1_555 1_555
C1A H3A 1_555 1_555
C2A C1A 1_555 1_555
H4A C2A 1_555 1_555
C3A O1A 1_555 1_555
C4A C3A 1_555 1_555
H5A C4A 1_555 1_555
H6A C4A 1_555 1_555
H7A C4A 1_555 1_555
C5A C3A 1_555 1_555
H8A C5A 1_555 1_555
H9A C5A 1_555 1_555
H10A C5A 1_555 1_555
C6A C1A 1_555 1_555
C7A C6A 1_555 1_555
H11A C7A 1_555 1_555
C8A C7A 1_555 1_555
H12A C8A 1_555 1_555
C9A C8A 1_555 1_555
C10A C9A 1_555 1_555
H13A C10A 1_555 1_555
C11A C6A 1_555 1_555
H14A C11A 1_555 1_555
C12A O3A 1_555 1_555
C13A C2A 1_555 1_555
C14A C13A 1_555 1_555
H15A C14A 1_555 1_555
C15A C14A 1_555 1_555
H16A C15A 1_555 1_555
C16A C15A 1_555 1_555
C17A C16A 1_555 1_555
H17A C17A 1_555 1_555
C18A C13A 1_555 1_555
H18A C18A 1_555 1_555
C19A O5A 1_555 1_555
C22A C20 1_555 1_555
O2 C3 1_555 1_555
C9 C12 1_555 1_555
C10 C11 1_555 1_555
C17 C18 1_555 1_555
C21 C22A 1_555 1_555
Cu1_2 Cu2_2 1_555 1_555
O2A C3A 1_555 1_555
O4A C12A 1_555 1_555
C9A C12A 1_555 1_555
C10A C11A 1_555 1_555
C16A C19A 1_555 1_555
C17A C18A 1_555 1_555

#END
