
#######################################################################
#
#                 Cambridge Crystallographic Data Centre
#                                CCDC 
#
#######################################################################
#
# If this CIF has been generated from an entry in the Cambridge 
# Structural Database, then it will include bibliographic, chemical, 
# crystal, experimental, refinement or atomic coordinate data resulting 
# from the CCDC's data processing and validation procedures.
#
#######################################################################

data_UYECUX
_symmetry_cell_setting           triclinic
_symmetry_space_group_name_H-M   'P -1'
_symmetry_Int_Tables_number      2
_space_group_name_Hall           '-P 1'
loop_
_symmetry_equiv_pos_site_id
_symmetry_equiv_pos_as_xyz
1 x,y,z
2 -x,-y,-z
_cell_length_a                   10.514(5)
_cell_length_b                   10.655(5)
_cell_length_c                   12.295(6)
_cell_angle_alpha                97.351(9)
_cell_angle_beta                 112.286(8)
_cell_angle_gamma                113.523(8)
_cell_volume                     1103.43
loop_
_atom_site_label
_atom_site_type_symbol
_atom_site_fract_x
_atom_site_fract_y
_atom_site_fract_z
Cr1 Cr 0.0000 0.5000 0.5000
Mo1 Mo 0.08126(6) 0.47837(6) 0.26227(5)
Mo2 Mo -0.16582(6) 0.18013(5) 0.28586(5)
Mo3 Mo 0.24759(6) 0.79947(6) 0.47866(5)
Na1 Na 0.0000 0.0000 0.5000
O1 O -0.0467(6) 0.4249(5) 0.1082(4)
O2 O 0.0330(5) 0.2948(5) 0.2913(4)
O3 O 0.2594(5) 0.5192(5) 0.2714(4)
O4 O 0.1883(5) 0.5673(4) 0.4738(4)
O5 O -0.1192(4) 0.4185(4) 0.3153(3)
O6 O -0.2913(5) 0.1216(5) 0.1303(4)
O7 O -0.1375(5) 0.0383(5) 0.3137(4)
O8 O -0.3235(5) 0.1608(4) 0.3410(4)
O9 O 0.2173(6) 0.9435(5) 0.4595(4)
O10 O 0.4247(5) 0.8402(5) 0.4862(4)
O11 O -0.0357(4) 0.3034(4) 0.4906(3)
O12 O 0.1051(5) 0.6723(4) 0.3060(4)
O13 O 0.1813(6) 0.2524(5) 0.6073(5)
O14 O 0.2903(6) 0.4462(6) 0.7762(5)
N1 N 0.6117(7) 0.2042(7) 0.9029(6)
C1 C 0.2829(8) 0.3381(8) 0.7171(7)
C2 C 0.4049(7) 0.2942(7) 0.7829(6)
C3 C 0.4535(8) 0.2240(8) 0.7179(6)
H3 H 0.4145 0.2057 0.6326
C4 C 0.5595(8) 0.1818(7) 0.7808(7)
H4 H 0.5953 0.1374 0.7384
C5 C 0.5694(9) 0.2736(8) 0.9680(7)
H5 H 0.6092 0.2892 1.0531
C6 C 0.4681(8) 0.3218(8) 0.9109(6)
H6 H 0.4413 0.3730 0.9572
Mo1A Mo -0.08126(6) 0.52163(6) 0.73773(5)
Mo2A Mo 0.16582(6) 0.81987(5) 0.71414(5)
Mo3A Mo -0.24759(6) 0.20053(6) 0.52134(5)
Na1_2 Na 0.0000 1.0000 0.5000
O1A O 0.0467(6) 0.5751(5) 0.8918(4)
O2A O -0.0330(5) 0.7052(5) 0.7087(4)
O3A O -0.2594(5) 0.4808(5) 0.7286(4)
O4A O -0.1883(5) 0.4327(4) 0.5262(4)
O5A O 0.1192(4) 0.5815(4) 0.6847(3)
O6A O 0.2913(5) 0.8784(5) 0.8697(4)
O7A O 0.1375(5) 0.9617(5) 0.6863(4)
O7A_2 O 0.1375(5) -0.0383(5) 0.6863(4)
O8A O 0.3235(5) 0.8392(4) 0.6590(4)
O9A O -0.2173(6) 0.0565(5) 0.5405(4)
O9_2 O 0.2173(6) -0.0565(5) 0.4595(4)
O10A O -0.4247(5) 0.1598(5) 0.5138(4)
O11A O 0.0357(4) 0.6966(4) 0.5094(3)
O12A O -0.1051(5) 0.3277(4) 0.6940(4)
O13A O -0.1813(6) -0.2524(5) 0.3927(5)
O14A O -0.2903(6) -0.4462(6) 0.2238(5)
N1A N -0.6117(7) -0.2042(7) 0.0971(6)
C1A C -0.2829(8) -0.3381(8) 0.2829(7)
C2A C -0.4049(7) -0.2942(7) 0.2171(6)
C3A C -0.4535(8) -0.2240(8) 0.2821(6)
H3A H -0.4145 -0.2057 0.3674
C4A C -0.5595(8) -0.1818(7) 0.2192(7)
H4A H -0.5953 -0.1374 0.2616
C5A C -0.5694(9) -0.2736(8) 0.0320(7)
H5A H -0.6092 -0.2892 -0.0531
C6A C -0.4681(8) -0.3218(8) 0.0891(6)
H6A H -0.4413 -0.3730 0.0428
O15 O 0.5371(6) 0.7909(6) 0.8022(5)
H1 H 0.4824 0.8258 0.7681
O16 O 0.7361(6) 1.0205(6) 0.8836(5)
N2 N 0.9481(7) 0.7457(7) 1.1219(5)
H2 H 0.9989 0.7145 1.1737
C7 C 0.6833(8) 0.8962(8) 0.8771(6)
C8 C 0.7806(8) 0.8405(7) 0.9620(6)
C9 C 0.7507(8) 0.6992(8) 0.9236(7)
H7 H 0.6725 0.6358 0.8441
C10 C 0.8407(9) 0.6554(8) 1.0071(7)
H8 H 0.8262 0.5623 0.9830
C11 C 0.9799(9) 0.8825(8) 1.1595(7)
H9 H 1.0567 0.9433 1.2400
C12 C 0.8969(8) 0.9337(8) 1.0771(6)
H10 H 0.9208 1.0301 1.1004
O17 O 0.4416(8) 0.5342(8) 0.5857(7)
O18 O 0.7229(9) 0.7826(9) 0.6380(8)
loop_
_geom_bond_atom_site_label_1
_geom_bond_atom_site_label_2
_geom_bond_site_symmetry_1
_geom_bond_site_symmetry_2
Cr1 O4 1_555 1_555
Mo1 O1 1_555 1_555
Mo2 O2 1_555 1_555
Mo3 O4 1_555 1_555
Na1 O7 1_555 1_555
O2 Mo1 1_555 1_555
O3 Mo1 1_555 1_555
O4 Mo1 1_555 1_555
O5 Cr1 1_555 1_555
O6 Mo2 1_555 1_555
O7 Mo2 1_555 1_555
O8 Mo2 1_555 1_555
O9 Mo3 1_555 1_555
O10 Mo3 1_555 1_555
O11 Cr1 1_555 1_555
O12 Mo1 1_555 1_555
O13 Na1 1_555 1_555
O14 C1 1_555 1_555
O15 H1 1_555 1_555
O16 C7 1_555 1_555
N1 C4 1_555 1_555
N2 H2 1_555 1_555
C1 O13 1_555 1_555
C2 C1 1_555 1_555
C3 C2 1_555 1_555
H3 C3 1_555 1_555
C4 C3 1_555 1_555
H4 C4 1_555 1_555
C5 N1 1_555 1_555
H5 C5 1_555 1_555
C6 C2 1_555 1_555
H6 C6 1_555 1_555
C7 O15 1_555 1_555
C8 C7 1_555 1_555
C9 C8 1_555 1_555
H7 C9 1_555 1_555
C10 N2 1_555 1_555
H8 C10 1_555 1_555
C11 N2 1_555 1_555
H9 C11 1_555 1_555
C12 C8 1_555 1_555
H10 C12 1_555 1_555
Mo1A O1A 1_555 1_555
Mo2A O2A 1_555 1_555
Mo3A O8 1_555 1_555
Na1_2 O9 1_555 1_555
O2A Mo1A 1_555 1_555
O3A Mo1A 1_555 1_555
O4A Cr1 1_555 1_555
O5A Cr1 1_555 1_555
O6A Mo2A 1_555 1_555
O7A Mo2A 1_555 1_555
O7A_2 Na1 1_555 1_555
O8A Mo3 1_555 1_555
O9A Na1 1_555 1_555
O9_2 Na1 1_555 1_555
O10A Mo3A 1_555 1_555
O11A Cr1 1_555 1_555
O12A Mo1A 1_555 1_555
O13A Na1 1_555 1_555
O14A C1A 1_555 1_555
N1A C4A 1_555 1_555
C1A O13A 1_555 1_555
C2A C1A 1_555 1_555
C3A C2A 1_555 1_555
H3A C3A 1_555 1_555
C4A C3A 1_555 1_555
H4A C4A 1_555 1_555
C5A N1A 1_555 1_555
H5A C5A 1_555 1_555
C6A C2A 1_555 1_555
H6A C6A 1_555 1_555
Mo1 O5 1_555 1_555
Mo2 O5 1_555 1_555
Mo2 O11 1_555 1_555
Mo3 O12 1_555 1_555
Mo3 O11A 1_555 1_555
O11 Mo3A 1_555 1_555
C5 C6 1_555 1_555
C9 C10 1_555 1_555
C11 C12 1_555 1_555
Mo1A O4A 1_555 1_555
Mo1A O5A 1_555 1_555
Mo2A O5A 1_555 1_555
Mo2A O8A 1_555 1_555
Mo2A O11A 1_555 1_555
Mo3A O4A 1_555 1_555
Mo3A O9A 1_555 1_555
Mo3A O12A 1_555 1_555
Na1_2 O7A 1_555 1_555
C5A C6A 1_555 1_555

#END
