
#######################################################################
#
#                 Cambridge Crystallographic Data Centre
#                                CCDC 
#
#######################################################################
#
# If this CIF has been generated from an entry in the Cambridge 
# Structural Database, then it will include bibliographic, chemical, 
# crystal, experimental, refinement or atomic coordinate data resulting 
# from the CCDC's data processing and validation procedures.
#
#######################################################################

data_UYEDIM
_symmetry_cell_setting           monoclinic
_symmetry_space_group_name_H-M   'P 21/c'
_symmetry_Int_Tables_number      14
_space_group_name_Hall           '-P 2ybc'
loop_
_symmetry_equiv_pos_site_id
_symmetry_equiv_pos_as_xyz
1 x,y,z
2 -x,1/2+y,1/2-z
3 -x,-y,-z
4 x,1/2-y,1/2+z
_cell_length_a                   10.8805(17)
_cell_length_b                   17.084(3)
_cell_length_c                   13.590(2)
_cell_angle_alpha                90
_cell_angle_beta                 107.703(3)
_cell_angle_gamma                90
_cell_volume                     2406.52
loop_
_atom_site_label
_atom_site_type_symbol
_atom_site_fract_x
_atom_site_fract_y
_atom_site_fract_z
Mo1 Mo 0.18859(5) 1.01297(4) 0.36483(5)
Mo2 Mo 0.31790(5) 0.84125(4) 0.45048(5)
Mo3 Mo 0.63008(6) 0.82585(4) 0.57583(5)
Cr1 Cr 0.5000 1.0000 0.5000
Cu1 Cu -0.00294(8) 0.75694(5) 0.44635(6)
O1 O 0.2302(4) 1.1115(3) 0.4425(4)
O2 O 0.1311(4) 1.0481(3) 0.2419(4)
O3 O 0.0563(4) 0.9904(3) 0.4034(4)
O4 O 0.2416(4) 0.9115(3) 0.3357(3)
O5 O 0.1903(4) 0.8252(3) 0.4962(4)
O6 O 0.3256(5) 0.7616(3) 0.3772(4)
O7 O 0.4535(4) 0.8180(3) 0.5753(4)
O8 O 0.6392(5) 0.7508(3) 0.4956(4)
O9 O 0.6979(5) 0.7926(3) 0.6974(4)
O10 O 0.5046(4) 0.8958(3) 0.4386(3)
O11 O 0.3338(4) 0.9654(3) 0.5135(3)
O12 O 0.3923(4) 1.0490(3) 0.3713(3)
O13 O 0.0899(4) 0.6608(3) 0.4383(3)
O14 O 0.1689(5) 0.5900(3) 0.3321(4)
O15 O -0.0882(5) 0.8601(3) 0.4394(4)
O16 O -0.1958(5) 0.6848(3) 0.4033(4)
N1 N -0.0060(5) 0.7663(3) 0.2973(4)
N2 N 0.0076(5) 0.7561(3) 0.0981(4)
C1 C 0.1104(6) 0.6457(5) 0.3524(5)
C2 C 0.0509(6) 0.7053(4) 0.2672(5)
C3 C 0.0569(6) 0.7001(4) 0.1688(5)
H1 H 0.0961 0.6566 0.1500
C4 C -0.0441(7) 0.8177(5) 0.1296(5)
H2 H -0.0754 0.8585 0.0836
C5 C -0.0529(7) 0.8230(5) 0.2296(5)
H3 H -0.0917 0.8665 0.2489
Mo1B Mo 0.81141(5) 0.98703(4) 0.63517(5)
Mo2B Mo 0.68210(5) 1.15875(4) 0.54952(5)
Mo3B Mo 0.36992(6) 1.17415(4) 0.42417(5)
Cu1B Cu 1.00294(8) 1.24306(5) 0.55365(6)
Cu1C Cu -0.00294(8) 0.74306(5) -0.05365(6)
Cu1C_2 Cu -0.00294(8) 0.74306(5) 0.94635(6)
O1B O 0.7698(4) 0.8885(3) 0.5575(4)
O2B O 0.8689(4) 0.9519(3) 0.7581(4)
O3B O 0.9437(4) 1.0096(3) 0.5966(4)
O4B O 0.7584(4) 1.0885(3) 0.6643(3)
O5B O 0.8097(4) 1.1748(3) 0.5038(4)
O6B O 0.6744(5) 1.2384(3) 0.6228(4)
O7B O 0.5465(4) 1.1820(3) 0.4247(4)
O8B O 0.3608(5) 1.2492(3) 0.5044(4)
O9B O 0.3021(5) 1.2074(3) 0.3026(4)
O10B O 0.4954(4) 1.1042(3) 0.5614(3)
O11B O 0.6662(4) 1.0346(3) 0.4865(3)
O12B O 0.6077(4) 0.9510(3) 0.6287(3)
O13C O 0.0899(4) 0.8392(3) 0.9383(3)
O13B O 0.9101(4) 1.3392(3) 0.5617(3)
O14C O 0.1689(5) 0.9100(3) 0.8321(4)
O15B O 1.0882(5) 1.1399(3) 0.5606(4)
O16B O 1.1958(5) 1.3152(3) 0.5967(4)
N1C N -0.0060(5) 0.7337(3) 0.7973(4)
N1B N 1.0060(5) 1.2337(3) 0.7027(4)
N2C N 0.0076(5) 0.7439(3) 0.5981(4)
N2A N 0.9924(5) 1.2561(3) 0.4019(4)
C1C C 0.1104(6) 0.8543(5) 0.8524(5)
C2C C 0.0509(6) 0.7947(4) 0.7672(5)
C3C C 0.0569(6) 0.7999(4) 0.6688(5)
H1C H 0.0961 0.8434 0.6500
C4C C -0.0441(7) 0.6823(5) 0.6296(5)
H2C H -0.0754 0.6415 0.5836
C5C C -0.0529(7) 0.6770(5) 0.7296(5)
H3C H -0.0917 0.6335 0.7489
O17 O 0.2501(8) 0.5096(4) 0.1769(5)
O18 O 0.4295(7) 0.0394(5) 0.1896(5)
O19 O 0.2015(8) 0.0374(5) 0.0896(5)
O20 O 0.2695(10) 0.0434(6) 0.9416(8)
O21 O 0.4843(12) 0.6099(8) 0.5386(15)
O22 O 0.5884(14) 0.1581(8) 0.2392(8)
O23 O 0.0000 0.0000 0.0000
O24 O 0.5744(10) 0.8692(6) 0.2691(7)
O25 O 0.2702(10) 0.8912(7) 0.1303(7)
loop_
_geom_bond_atom_site_label_1
_geom_bond_atom_site_label_2
_geom_bond_site_symmetry_1
_geom_bond_site_symmetry_2
Mo1 O1 1_555 1_555
Mo2 O4 1_555 1_555
Mo3 O7 1_555 1_555
Cr1 O10 1_555 1_555
Cu1 O5 1_555 1_555
O1 Mo3B 1_555 1_555
O2 Mo1 1_555 1_555
O3 Mo1 1_555 1_555
O4 Mo1 1_555 1_555
O5 Mo2 1_555 1_555
O6 Mo2 1_555 1_555
O7 Mo2 1_555 1_555
O8 Mo3 1_555 1_555
O9 Mo3 1_555 1_555
O10 Mo2 1_555 1_555
O11 Mo1 1_555 1_555
O12 Mo1 1_555 1_555
O13 Cu1 1_555 1_555
O14 C1 1_555 1_555
O15 Cu1 1_555 1_555
O16 Cu1 1_555 1_555
N1 Cu1 1_555 1_555
N2 C3 1_555 1_555
C1 O13 1_555 1_555
C2 N1 1_555 1_555
C3 C2 1_555 1_555
H1 C3 1_555 1_555
C4 N2 1_555 1_555
H2 C4 1_555 1_555
C5 N1 1_555 1_555
H3 C5 1_555 1_555
Mo1B O1B 1_555 1_555
Mo2B O4B 1_555 1_555
Mo3B O12 1_555 1_555
Cu1B O5B 1_555 1_555
Cu1C N2 1_555 1_555
Cu1C_2 O13C 1_555 1_555
O1B Mo3 1_555 1_555
O2B Mo1B 1_555 1_555
O3B Mo1B 1_555 1_555
O4B Mo1B 1_555 1_555
O5B Mo2B 1_555 1_555
O6B Mo2B 1_555 1_555
O7B Mo2B 1_555 1_555
O8B Mo3B 1_555 1_555
O9B Mo3B 1_555 1_555
O10B Cr1 1_555 1_555
O11B Cr1 1_555 1_555
O12B Mo3 1_555 1_555
O13C C1C 1_555 1_555
O13B Cu1B 1_555 1_555
O14C C1C 1_555 1_555
O15B Cu1B 1_555 1_555
O16B Cu1B 1_555 1_555
N1C Cu1C_2 1_555 1_555
N1B Cu1B 1_555 1_555
N2C Cu1 1_555 1_555
N2A Cu1B 1_555 1_555
C1C C2C 1_555 1_555
C2C N1C 1_555 1_555
C3C N2C 1_555 1_555
H1C C3C 1_555 1_555
C4C N2C 1_555 1_555
H2C C4C 1_555 1_555
C5C N1C 1_555 1_555
H3C C5C 1_555 1_555
Mo2 O11 1_555 1_555
Mo3 O10 1_555 1_555
Cr1 O11 1_555 1_555
Cr1 O12 1_555 1_555
Cr1 O12B 1_555 1_555
C1 C2 1_555 1_555
C4 C5 1_555 1_555
Mo1B O11B 1_555 1_555
Mo1B O12B 1_555 1_555
Mo2B O10B 1_555 1_555
Mo2B O11B 1_555 1_555
Mo3B O7B 1_555 1_555
Mo3B O10B 1_555 1_555
C2C C3C 1_555 1_555
C4C C5C 1_555 1_555

#END
