
#######################################################################
#
#                 Cambridge Crystallographic Data Centre
#                                CCDC 
#
#######################################################################
#
# If this CIF has been generated from an entry in the Cambridge 
# Structural Database, then it will include bibliographic, chemical, 
# crystal, experimental, refinement or atomic coordinate data resulting 
# from the CCDC's data processing and validation procedures.
#
#######################################################################

data_UYEDEI
_symmetry_cell_setting           monoclinic
_symmetry_space_group_name_H-M   'C 2/c'
_symmetry_Int_Tables_number      15
_space_group_name_Hall           '-C 2yn'
loop_
_symmetry_equiv_pos_site_id
_symmetry_equiv_pos_as_xyz
1 x,y,z
2 -x,y,1/2-z
3 1/2+x,1/2+y,z
4 1/2-x,1/2+y,1/2-z
5 -x,-y,-z
6 x,-y,1/2+z
7 1/2-x,1/2-y,-z
8 1/2+x,1/2-y,1/2+z
_cell_length_a                   22.084(3)
_cell_length_b                   9.4366(11)
_cell_length_c                   21.011(3)
_cell_angle_alpha                90
_cell_angle_beta                 98.517(2)
_cell_angle_gamma                90
_cell_volume                     4330.36
loop_
_atom_site_label
_atom_site_type_symbol
_atom_site_fract_x
_atom_site_fract_y
_atom_site_fract_z
Cr1 Cr 0.0000 1.0000 0.0000
Mo1 Mo -0.05258(2) 1.25889(5) -0.10169(2)
Mo2 Mo 0.14739(2) 0.91488(5) 0.01925(2)
Mo3 Mo 0.09353(2) 1.17188(5) -0.08270(2)
Na1 Na 0.0000 1.1089(4) -0.2500
O1 O -0.05113(18) 1.2577(4) -0.18292(18)
O2 O -0.08440(18) 1.4165(4) -0.0856(2)
O3 O -0.12263(16) 1.1303(4) -0.10183(16)
O4 O 0.17655(18) 0.7579(4) -0.00205(19)
O5 O 0.20870(17) 1.0189(4) 0.04852(18)
O6 O 0.12738(16) 0.9828(4) -0.06777(16)
O7 O 0.15638(18) 1.2708(4) -0.05396(19)
O8 O 0.08950(18) 1.1692(4) -0.16449(18)
O9 O 0.03202(16) 1.3091(4) -0.07069(17)
O10 O 0.00353(15) 1.0541(4) -0.08918(15)
O11 O 0.07990(15) 1.0983(4) 0.01927(16)
O12 O 0.05038(15) 0.8260(4) 0.00068(16)
N1 N 0.1284(3) 0.7297(8) -0.1441(3)
C1 C 0.0714(3) 0.8067(6) -0.3175(3)
C2 C 0.0958(3) 0.7272(6) -0.2566(3)
C3 C 0.1104(4) 0.5836(7) -0.2576(3)
H2 H 0.1065 0.5345 -0.2964
C4 C 0.1308(5) 0.5149(9) -0.2002(4)
H3 H 0.1374 0.4175 -0.1994
C5 C 0.1411(5) 0.5926(12) -0.1445(4)
H4 H 0.1573 0.5481 -0.1062
C6 C 0.1048(3) 0.7958(8) -0.1981(3)
H5 H 0.0940 0.8908 -0.1962
O13 O 0.0383(2) 0.9123(5) -0.3099(2)
O14 O 0.0863(2) 0.7607(5) -0.36868(19)
Mo1D Mo 0.05258(2) 0.74111(5) 0.10169(2)
Mo2D Mo -0.14739(2) 1.08512(5) -0.01925(2)
Mo3D Mo -0.09353(2) 0.82812(5) 0.08270(2)
Na1D Na 0.0000 0.8911(4) 0.2500
O1D O 0.05113(18) 0.7423(4) 0.18292(18)
O1A O 0.05113(18) 1.2577(4) -0.31708(18)
O2D O 0.08440(18) 0.5835(4) 0.0856(2)
O3D O 0.12263(16) 0.8697(4) 0.10183(16)
O4D O -0.17655(18) 1.2421(4) 0.00205(19)
O5D O -0.20870(17) 0.9811(4) -0.04852(18)
O6D O -0.12738(16) 1.0172(4) 0.06777(16)
O7D O -0.15638(18) 0.7292(4) 0.05396(19)
O8D O -0.08950(18) 0.8308(4) 0.16449(18)
O8A O -0.08950(18) 1.1692(4) -0.33551(18)
O9D O -0.03202(16) 0.6909(4) 0.07069(17)
O10D O -0.00353(15) 0.9459(4) 0.08918(15)
O11D O -0.07990(15) 0.9017(4) -0.01927(16)
O12D O -0.05038(15) 1.1740(4) -0.00068(16)
N1A N -0.1284(3) 0.7297(8) -0.3559(3)
C1A C -0.0714(3) 0.8067(6) -0.1825(3)
C2A C -0.0958(3) 0.7272(6) -0.2434(3)
C3A C -0.1104(4) 0.5836(7) -0.2424(3)
H2A H -0.1065 0.5345 -0.2036
C4A C -0.1308(5) 0.5149(9) -0.2998(4)
H3A H -0.1374 0.4175 -0.3006
C5A C -0.1411(5) 0.5926(12) -0.3555(4)
H4A H -0.1573 0.5481 -0.3938
C6A C -0.1048(3) 0.7958(8) -0.3019(3)
H5A H -0.0940 0.8908 -0.3038
O13A O -0.0383(2) 0.9123(5) -0.1901(2)
O14A O -0.0863(2) 0.7607(5) -0.13132(19)
N2 N 0.2827(2) 0.1874(7) 0.9135(2)
H1 H 0.2967 0.2542 0.9394
C7 C 0.2005(3) 0.1576(7) 0.7475(3)
C8 C 0.2321(3) 0.1170(7) 0.8128(3)
C9 C 0.2386(3) -0.0218(7) 0.8328(3)
H6 H 0.2236 -0.0949 0.8053
C10 C 0.2676(3) -0.0517(8) 0.8941(3)
H7 H 0.2720 -0.1451 0.9081
C11 C 0.2895(3) 0.0548(9) 0.9335(3)
H8 H 0.3094 0.0351 0.9748
C12 C 0.2551(3) 0.2220(8) 0.8549(3)
H9 H 0.2514 0.3166 0.8425
O15 O 0.1934(3) 0.2799(6) 0.7318(2)
O16 O 0.1813(2) 0.0486(5) 0.7120(2)
H10 H 0.1628 0.0762 0.6775
O17 O 0.0233(2) 0.6110(5) 0.9210(2)
loop_
_geom_bond_atom_site_label_1
_geom_bond_atom_site_label_2
_geom_bond_site_symmetry_1
_geom_bond_site_symmetry_2
Cr1 O10 1_555 1_555
Mo1 O1 1_555 1_555
Mo2 O4 1_555 1_555
Mo3 O6 1_555 1_555
Na1 O1 1_555 1_555
O2 Mo1 1_555 1_555
O3 Mo1 1_555 1_555
O5 Mo2 1_555 1_555
O6 Mo2 1_555 1_555
O7 Mo3 1_555 1_555
O8 Mo3 1_555 1_555
O9 Mo1 1_555 1_555
O10 Mo1 1_555 1_555
O11 Cr1 1_555 1_555
O12 Cr1 1_555 1_555
N1 C5 1_555 1_555
N2 H1 1_555 1_555
C1 C2 1_555 1_555
C2 C3 1_555 1_555
C3 H2 1_555 1_555
C4 C3 1_555 1_555
H3 C4 1_555 1_555
C5 C4 1_555 1_555
H4 C5 1_555 1_555
C6 N1 1_555 1_555
H5 C6 1_555 1_555
C7 C8 1_555 1_555
C8 C9 1_555 1_555
C9 H6 1_555 1_555
C10 C9 1_555 1_555
H7 C10 1_555 1_555
C11 N2 1_555 1_555
H8 C11 1_555 1_555
C12 N2 1_555 1_555
H9 C12 1_555 1_555
O13 Na1 1_555 1_555
O14 C1 1_555 1_555
O15 C7 1_555 1_555
O16 C7 1_555 1_555
H10 O16 1_555 1_555
Mo1D O12 1_555 1_555
Mo2D O3 1_555 1_555
Mo3D O6D 1_555 1_555
Na1D O1D 1_555 1_555
O1D Mo1D 1_555 1_555
O1A Na1 1_555 1_555
O2D Mo1D 1_555 1_555
O3D Mo2 1_555 1_555
O4D Mo2D 1_555 1_555
O5D Mo2D 1_555 1_555
O6D Mo2D 1_555 1_555
O7D Mo3D 1_555 1_555
O8D Mo3D 1_555 1_555
O8A Na1 1_555 1_555
O9D Mo1D 1_555 1_555
O10D Cr1 1_555 1_555
O11D Cr1 1_555 1_555
O12D Cr1 1_555 1_555
N1A C5A 1_555 1_555
C1A C2A 1_555 1_555
C2A C3A 1_555 1_555
C3A H2A 1_555 1_555
C4A C3A 1_555 1_555
H3A C4A 1_555 1_555
C5A C4A 1_555 1_555
H4A C5A 1_555 1_555
C6A N1A 1_555 1_555
H5A C6A 1_555 1_555
O13A Na1 1_555 1_555
O14A C1A 1_555 1_555
Mo1 O12D 1_555 1_555
Mo2 O11 1_555 1_555
Mo2 O12 1_555 1_555
Mo3 O9 1_555 1_555
Mo3 O10 1_555 1_555
Mo3 O11 1_555 1_555
Na1 O8 1_555 1_555
C1 O13 1_555 1_555
C2 C6 1_555 1_555
C8 C12 1_555 1_555
C10 C11 1_555 1_555
Mo1D O3D 1_555 1_555
Mo1D O10D 1_555 1_555
Mo2D O11D 1_555 1_555
Mo2D O12D 1_555 1_555
Mo3D O9D 1_555 1_555
Mo3D O10D 1_555 1_555
Mo3D O11D 1_555 1_555
Na1D O8D 1_555 1_555
C1A O13A 1_555 1_555
C2A C6A 1_555 1_555

#END
