
#######################################################################
#
#                 Cambridge Crystallographic Data Centre
#                                CCDC 
#
#######################################################################
#
# If this CIF has been generated from an entry in the Cambridge 
# Structural Database, then it will include bibliographic, chemical, 
# crystal, experimental, refinement or atomic coordinate data resulting 
# from the CCDC's data processing and validation procedures.
#
#######################################################################

data_UYEJOY
_symmetry_cell_setting           tetragonal
_symmetry_space_group_name_H-M   'P 42/n m c'
_symmetry_Int_Tables_number      137
_space_group_name_Hall           '-P 4ac 2a'
loop_
_symmetry_equiv_pos_site_id
_symmetry_equiv_pos_as_xyz
1 x,y,z
2 1/2-x,1/2-y,z
3 1/2-y,x,1/2+z
4 y,1/2-x,1/2+z
5 -x,1/2+y,-z
6 1/2+x,-y,-z
7 1/2+y,1/2+x,1/2-z
8 -y,-x,1/2-z
9 -x,-y,-z
10 1/2+x,1/2+y,-z
11 1/2+y,-x,1/2-z
12 -y,1/2+x,1/2-z
13 x,1/2-y,z
14 1/2-x,y,z
15 1/2-y,1/2-x,1/2+z
16 y,x,1/2+z
_cell_length_a                   16.5381(12)
_cell_length_b                   16.5381(12)
_cell_length_c                   6.7968(8)
_cell_angle_alpha                90
_cell_angle_beta                 90
_cell_angle_gamma                90
_cell_volume                     1858.98
loop_
_atom_site_label
_atom_site_type_symbol
_atom_site_fract_x
_atom_site_fract_y
_atom_site_fract_z
Ag1 Ag 0.43950(3) 0.56050(3) 0.2500
Br1 Br 0.2500 0.37798(14) -0.3295(3)
O1 O 0.4842(3) 0.5754(3) -0.1308(6)
O2 O 0.3758(4) 0.6242(4) -0.2500
N1 N 0.3224(3) 0.4954(3) 0.1809(7)
N2 N 0.2500 0.5583(9) 0.4271(14)
H1 H 0.2971 0.5689 0.4869
N3 N 0.4269(3) 0.5731(3) -0.2500
C1 C 0.2500 0.4242(5) -0.0644(12)
C2 C 0.3208(3) 0.4493(3) 0.0213(8)
H2 H 0.3696 0.4333 -0.0347
C3 C 0.2500 0.5151(7) 0.2610(12)
Ag1_2 Ag 0.43950(3) 0.56050(3) -0.7500
Ag1H Ag 0.56050(3) 0.43950(3) -0.2500
Ag1J Ag 0.06050(3) 0.56050(3) 0.2500
Ag1H_2 Ag 0.56050(3) 0.43950(3) 0.7500
Ag1_3 Ag 0.43950(3) 0.56050(3) 1.2500
Ag1K Ag 0.43950(3) 0.93950(3) 0.2500
Br1G Br 0.62202(14) 0.7500 0.8295(3)
O1G O 0.4246(3) 0.5158(3) -0.3692(6)
O1G_2 O 0.4246(3) 0.5158(3) 0.6308(6)
O1_2 O 0.4842(3) 0.5754(3) 0.8692(6)
O1O O 0.5754(3) 0.4842(3) 0.3692(6)
O1H O 0.5158(3) 0.4246(3) 0.1308(6)
O1_3 O 0.4842(3) 0.5754(3) -1.1308(6)
O1H_2 O 0.5158(3) 0.4246(3) -0.8692(6)
O1O_2 O 0.5754(3) 0.4842(3) -0.6308(6)
O2_2 O 0.3758(4) 0.6242(4) 0.7500
N1M N 0.1776(3) 0.4954(3) 0.1809(7)
N1G N 0.5046(3) 0.6776(3) 0.3191(7)
N1K N 0.5046(3) 0.8224(3) 0.3191(7)
N1G_2 N 0.5046(3) 0.6776(3) -0.6809(7)
N1_2 N 0.3224(3) 0.4954(3) -0.8191(7)
N2G N 0.4417(9) 0.7500 0.0729(14)
H1M H 0.2029 0.5689 0.4869
H1G H 0.4311 0.7029 0.0131
H1K H 0.4311 0.7971 0.0131
N3_2 N 0.4269(3) 0.5731(3) 0.7500
C1G C 0.5758(5) 0.7500 0.5644(12)
C2M C 0.1792(3) 0.4493(3) 0.0213(8)
C2G C 0.5507(3) 0.6792(3) 0.4787(8)
C2K C 0.5507(3) 0.8208(3) 0.4787(8)
H2M H 0.1304 0.4333 -0.0347
H2G H 0.5667 0.6304 0.5347
H2K H 0.5667 0.8696 0.5347
C3G C 0.4849(7) 0.7500 0.2390(12)
O3 O 0.2500 0.7500 -0.048(9)
Br2? Br 0.2500 0.33790(17) -0.2382(4)
loop_
_geom_bond_atom_site_label_1
_geom_bond_atom_site_label_2
_geom_bond_site_symmetry_1
_geom_bond_site_symmetry_2
Ag1 O1 1_555 1_555
Br1 C1 1_555 1_555
O1 N3 1_555 1_555
O2 N3 1_555 1_555
N1 Ag1 1_555 1_555
N2 H1 1_555 1_555
N3 O1G 1_555 1_555
C1 C2 1_555 1_555
C2 N1 1_555 1_555
H2 C2 1_555 1_555
C3 N1 1_555 1_555
Ag1_2 O1G 1_555 1_555
Ag1H O1 1_555 1_555
Ag1J N1M 1_555 1_555
Ag1H_2 O1G_2 1_555 1_555
Ag1_3 O1_2 1_555 1_555
Ag1K N1K 1_555 1_555
Br1G C1G 1_555 1_555
O1G Ag1H 1_555 1_555
O1G_2 Ag1 1_555 1_555
O1_2 Ag1H_2 1_555 1_555
O1O Ag1 1_555 1_555
O1H Ag1 1_555 1_555
O1_3 Ag1_2 1_555 1_555
O1H_2 Ag1_2 1_555 1_555
O1O_2 Ag1_2 1_555 1_555
O2_2 N3_2 1_555 1_555
N1M C3 1_555 1_555
N1G Ag1 1_555 1_555
N1K C2K 1_555 1_555
N1G_2 Ag1_2 1_555 1_555
N1_2 Ag1_2 1_555 1_555
N2G H1G 1_555 1_555
H1M N2 1_555 1_555
H1K N2G 1_555 1_555
N3_2 O1G_2 1_555 1_555
C1G C2G 1_555 1_555
C2M C1 1_555 1_555
C2G N1G 1_555 1_555
C2K C1G 1_555 1_555
H2M C2M 1_555 1_555
H2G C2G 1_555 1_555
H2K C2K 1_555 1_555
C3G N1G 1_555 1_555
N2 C3 1_555 1_555
Ag1H O1H 1_555 1_555
Ag1H O1O_2 1_555 1_555
Ag1H_2 O1O 1_555 1_555
O1_2 N3_2 1_555 1_555
N1M C2M 1_555 1_555
N1K C3G 1_555 1_555
N2G C3G 1_555 1_555

#END
