
#######################################################################
#
#                 Cambridge Crystallographic Data Centre
#                                CCDC 
#
#######################################################################
#
# If this CIF has been generated from an entry in the Cambridge 
# Structural Database, then it will include bibliographic, chemical, 
# crystal, experimental, refinement or atomic coordinate data resulting 
# from the CCDC's data processing and validation procedures.
#
#######################################################################

data_UYEJIS
_symmetry_cell_setting           tetragonal
_symmetry_space_group_name_H-M   'P 42/n m c'
_symmetry_Int_Tables_number      137
_space_group_name_Hall           '-P 4ac 2a'
loop_
_symmetry_equiv_pos_site_id
_symmetry_equiv_pos_as_xyz
1 x,y,z
2 1/2-x,1/2-y,z
3 1/2-y,x,1/2+z
4 y,1/2-x,1/2+z
5 -x,1/2+y,-z
6 1/2+x,-y,-z
7 1/2+y,1/2+x,1/2-z
8 -y,-x,1/2-z
9 -x,-y,-z
10 1/2+x,1/2+y,-z
11 1/2+y,-x,1/2-z
12 -y,1/2+x,1/2-z
13 x,1/2-y,z
14 1/2-x,y,z
15 1/2-y,1/2-x,1/2+z
16 y,x,1/2+z
_cell_length_a                   16.3565(8)
_cell_length_b                   16.3565(8)
_cell_length_c                   6.8124(5)
_cell_angle_alpha                90
_cell_angle_beta                 90
_cell_angle_gamma                90
_cell_volume                     1822.56
loop_
_atom_site_label
_atom_site_type_symbol
_atom_site_fract_x
_atom_site_fract_y
_atom_site_fract_z
Ag1 Ag 0.94082(3) 0.05918(3) 0.7500
Cl1 Cl 1.1633(4) 0.2500 1.2169(9)
O1 O 1.1262(3) -0.1262(3) 0.7500
O2 O 1.0786(3) -0.0175(3) 0.8687(7)
N1 N 1.0097(3) 0.1767(3) 0.8185(6)
N2 N 0.9438(9) 0.2500 0.5775(15)
H1 H 0.9284 0.2023 0.5190
N3 N 1.0751(3) -0.0751(3) 0.7500
C1 C 1.0824(5) 0.2500 1.0576(14)
C2 C 1.0569(3) 0.1783(3) 0.9766(8)
H2 H 1.0729 0.1292 1.0337
C3 C 0.9885(6) 0.2500 0.7390(13)
Ag1H Ag 1.05918(3) -0.05918(3) 1.2500
Ag1K Ag 0.94082(3) 0.44082(3) 0.7500
Ag1H_2 Ag 1.05918(3) -0.05918(3) 0.2500
Ag1_2 Ag 0.94082(3) 0.05918(3) 1.7500
Ag1J Ag 0.55918(3) 0.05918(3) 0.7500
Cl1G Cl 0.7500 -0.1633(4) 0.2831(9)
O1H O 0.8738(3) 0.1262(3) 1.2500
O2G O 1.0175(3) -0.0786(3) 0.6313(7)
O2H O 0.9214(3) 0.0175(3) 1.1313(7)
O2O O 0.9825(3) 0.0786(3) 1.3687(7)
O2O_2 O 0.9825(3) 0.0786(3) 0.3687(7)
O2G_2 O 1.0175(3) -0.0786(3) 1.6313(7)
N1L N 1.0097(3) 0.3233(3) 0.8185(6)
N1G N 0.8233(3) -0.0097(3) 0.6815(6)
N1J N 0.6767(3) -0.0097(3) 0.6815(6)
N1H N 0.9903(3) -0.1767(3) 1.1815(6)
N1O N 1.1767(3) 0.0097(3) 1.3185(6)
N2G N 0.7500 0.0562(9) 0.9225(15)
H1L H 0.9284 0.2977 0.5190
H1G H 0.7977 0.0716 0.9810
H1J H 0.7023 0.0716 0.9810
N3H N 0.9249(3) 0.0751(3) 1.2500
C1G C 0.7500 -0.0824(5) 0.4424(14)
C2L C 1.0569(3) 0.3217(3) 0.9766(8)
C2G C 0.8217(3) -0.0569(3) 0.5234(8)
C2J C 0.6783(3) -0.0569(3) 0.5234(8)
H2L H 1.0729 0.3708 1.0337
H2G H 0.8708 -0.0729 0.4663
H2J H 0.6292 -0.0729 0.4663
C3G C 0.7500 0.0115(6) 0.7610(13)
O3 O 1.2500 -0.2500 0.983(10)
Cl2? Cl 1.1228(4) 0.2500 1.3066(8)
loop_
_geom_bond_atom_site_label_1
_geom_bond_atom_site_label_2
_geom_bond_site_symmetry_1
_geom_bond_site_symmetry_2
Ag1 O2 1_555 1_555
Cl1 C1 1_555 1_555
O1 N3 1_555 1_555
O2 N3 1_555 1_555
N1 Ag1 1_555 1_555
N2 H1 1_555 1_555
N3 O2G 1_555 1_555
C1 C2 1_555 1_555
C2 N1 1_555 1_555
H2 C2 1_555 1_555
C3 N1 1_555 1_555
Ag1H O2 1_555 1_555
Ag1K N1L 1_555 1_555
Ag1H_2 O2G 1_555 1_555
Ag1_2 O2O 1_555 1_555
Ag1J N1J 1_555 1_555
Cl1G C1G 1_555 1_555
O1H N3H 1_555 1_555
O2G Ag1 1_555 1_555
O2H Ag1 1_555 1_555
O2O Ag1H 1_555 1_555
O2O_2 Ag1 1_555 1_555
O2G_2 Ag1H 1_555 1_555
N1L C3 1_555 1_555
N1G Ag1 1_555 1_555
N1J C2J 1_555 1_555
N1H Ag1H 1_555 1_555
N1O Ag1H 1_555 1_555
N2G H1G 1_555 1_555
H1L N2 1_555 1_555
H1J N2G 1_555 1_555
N3H O2H 1_555 1_555
C1G C2G 1_555 1_555
C2L C1 1_555 1_555
C2G N1G 1_555 1_555
C2J C1G 1_555 1_555
H2L C2L 1_555 1_555
H2G C2G 1_555 1_555
H2J C2J 1_555 1_555
C3G N1G 1_555 1_555
N2 C3 1_555 1_555
Ag1H O2H 1_555 1_555
Ag1H_2 O2O_2 1_555 1_555
Ag1_2 O2G_2 1_555 1_555
O2O N3H 1_555 1_555
N1L C2L 1_555 1_555
N1J C3G 1_555 1_555
N2G C3G 1_555 1_555

#END
