
#######################################################################
#
#                 Cambridge Crystallographic Data Centre
#                                CCDC 
#
#######################################################################
#
# If this CIF has been generated from an entry in the Cambridge 
# Structural Database, then it will include bibliographic, chemical, 
# crystal, experimental, refinement or atomic coordinate data resulting 
# from the CCDC's data processing and validation procedures.
#
#######################################################################

data_UYEKAL
_symmetry_cell_setting           orthorhombic
_symmetry_space_group_name_H-M   'I b c a'
_symmetry_Int_Tables_number      73
_space_group_name_Hall           '-I 2b 2c'
loop_
_symmetry_equiv_pos_site_id
_symmetry_equiv_pos_as_xyz
1 x,y,z
2 1/2-x,-y,1/2+z
3 -x,1/2+y,1/2-z
4 1/2+x,1/2-y,-z
5 1/2+x,1/2+y,1/2+z
6 -x,1/2-y,z
7 1/2-x,y,-z
8 x,-y,1/2-z
9 -x,-y,-z
10 1/2+x,y,1/2-z
11 x,1/2-y,1/2+z
12 1/2-x,1/2+y,z
13 1/2-x,1/2-y,1/2-z
14 x,1/2+y,-z
15 1/2+x,-y,z
16 -x,y,1/2+z
_cell_length_a                   7.1482(6)
_cell_length_b                   19.1748(16)
_cell_length_c                   26.606(2)
_cell_angle_alpha                90
_cell_angle_beta                 90
_cell_angle_gamma                90
_cell_volume                     3646.76
loop_
_atom_site_label
_atom_site_type_symbol
_atom_site_fract_x
_atom_site_fract_y
_atom_site_fract_z
Ag1 Ag 0.7500 0.06635(5) 0.0000
Ag2 Ag 0.5000 0.2500 0.17678(3)
Cl1 Cl 0.5228(5) -0.05226(10) 0.18685(8)
N1 N 0.5881(9) 0.1453(3) 0.1466(2)
N2 N 0.7464(11) 0.1926(3) 0.0798(2)
H1 H 0.7329 0.2333 0.0929
H2 H 0.8044 0.1880 0.0517
N3 N 0.6979(10) 0.0738(3) 0.0800(2)
C1 C 0.6778(11) 0.1370(4) 0.1029(2)
C2 C 0.6435(14) 0.0176(4) 0.1056(3)
H3 H 0.6568 -0.0261 0.0909
C3 C 0.5693(14) 0.0223(4) 0.1524(3)
C4 C 0.5378(14) 0.0881(4) 0.1719(3)
H4 H 0.4806 0.0926 0.2031
Cl2 Cl 0.0000 0.2500 0.20068(9)
O1 O 0.0869(8) 0.3021(3) 0.23239(19)
O2 O -0.1368(8) 0.2840(3) 0.16965(19)
Cl3 Cl 0.7500 -0.13408(16) 0.0000
O3 O 0.592(3) -0.1830(8) -0.0001(9)
O4 O 0.787(3) -0.1398(7) 0.0591(4)
O5 O 0.824(2) -0.0668(5) 0.0035(12)
O6 O 0.889(4) -0.1507(14) -0.0256(10)
Ag2_2 Ag -0.5000 0.2500 0.17678(3)
Ag2C Ag 1.0000 0.2500 -0.17678(3)
Ag2I Ag 0.0000 0.2500 0.32322(3)
Cl1F Cl 0.9772(5) -0.05226(10) -0.18685(8)
N1F N 0.9119(9) 0.1453(3) -0.1466(2)
N1E N 0.4119(9) 0.3547(3) 0.1466(2)
N2F N 0.7536(11) 0.1926(3) -0.0798(2)
H1F H 0.7671 0.2333 -0.0929
H2F H 0.6956 0.1880 -0.0517
N3F N 0.8021(10) 0.0738(3) -0.0800(2)
C1F C 0.8222(11) 0.1370(4) -0.1029(2)
C2F C 0.8565(14) 0.0176(4) -0.1056(3)
H3F H 0.8432 -0.0261 -0.0909
C3F C 0.9307(14) 0.0223(4) -0.1524(3)
C4F C 0.9622(14) 0.0881(4) -0.1719(3)
H4F H 1.0194 0.0926 -0.2031
O1E O -0.0869(8) 0.1979(3) 0.23239(19)
O1I O 0.5869(8) 0.3021(3) 0.26761(19)
O1L O 0.4131(8) 0.1979(3) 0.26761(19)
O2E O 0.1368(8) 0.2160(3) 0.16965(19)
O2_2 O 0.8632(8) 0.2840(3) 0.16965(19)
O3F O 0.908(3) -0.1830(8) 0.0001(9)
O4F O 0.713(3) -0.1398(7) -0.0591(4)
O5F O 0.676(2) -0.0668(5) -0.0035(12)
O6F O 0.611(4) -0.1507(14) 0.0256(10)
loop_
_geom_bond_atom_site_label_1
_geom_bond_atom_site_label_2
_geom_bond_site_symmetry_1
_geom_bond_site_symmetry_2
Ag1 N3 1_555 1_555
Ag2 N1 1_555 1_555
Cl1 C3 1_555 1_555
N1 C1 1_555 1_555
N2 H1 1_555 1_555
H2 N2 1_555 1_555
N3 C1 1_555 1_555
C1 N2 1_555 1_555
C2 N3 1_555 1_555
H3 C2 1_555 1_555
C3 C2 1_555 1_555
C4 N1 1_555 1_555
H4 C4 1_555 1_555
Cl2 O1 1_555 1_555
O1 Ag2I 1_555 1_555
O2 Cl2 1_555 1_555
Cl3 O3 1_555 1_555
O3 O6F 1_555 1_555
O4 Cl3 1_555 1_555
O5 Ag1 1_555 1_555
O6 Cl3 1_555 1_555
Ag2_2 O2 1_555 1_555
Ag2C N1F 1_555 1_555
Ag2I O1E 1_555 1_555
Cl1F C3F 1_555 1_555
N1F C1F 1_555 1_555
N1E Ag2 1_555 1_555
N2F H1F 1_555 1_555
H2F N2F 1_555 1_555
N3F Ag1 1_555 1_555
C1F N2F 1_555 1_555
C2F N3F 1_555 1_555
H3F C2F 1_555 1_555
C3F C2F 1_555 1_555
C4F N1F 1_555 1_555
H4F C4F 1_555 1_555
O1E Cl2 1_555 1_555
O1I Ag2 1_555 1_555
O1L Ag2 1_555 1_555
O2E Ag2 1_555 1_555
O2_2 Ag2 1_555 1_555
O3F Cl3 1_555 1_555
O4F Cl3 1_555 1_555
O5F Ag1 1_555 1_555
O6F Cl3 1_555 1_555
C3 C4 1_555 1_555
Cl2 O2E 1_555 1_555
Cl3 O5 1_555 1_555
Cl3 O5F 1_555 1_555
O4 O6F 1_555 1_555
O5 O5F 1_555 1_555
O6 O3F 1_555 1_555
O6 O4F 1_555 1_555
N3F C1F 1_555 1_555
C3F C4F 1_555 1_555

#END
