
#######################################################################
#
#                 Cambridge Crystallographic Data Centre
#                                CCDC 
#
#######################################################################
#
# If this CIF has been generated from an entry in the Cambridge 
# Structural Database, then it will include bibliographic, chemical, 
# crystal, experimental, refinement or atomic coordinate data resulting 
# from the CCDC's data processing and validation procedures.
#
#######################################################################

data_UYEMAN
_symmetry_cell_setting           monoclinic
_symmetry_space_group_name_H-M   'P 21/c'
_symmetry_Int_Tables_number      14
_space_group_name_Hall           '-P 2ybc'
loop_
_symmetry_equiv_pos_site_id
_symmetry_equiv_pos_as_xyz
1 x,y,z
2 -x,1/2+y,1/2-z
3 -x,-y,-z
4 x,1/2-y,1/2+z
_cell_length_a                   21.2699(9)
_cell_length_b                   6.8132(3)
_cell_length_c                   16.1372(7)
_cell_angle_alpha                90
_cell_angle_beta                 91.893(4)
_cell_angle_gamma                90
_cell_volume                     2337.26
loop_
_atom_site_label
_atom_site_type_symbol
_atom_site_fract_x
_atom_site_fract_y
_atom_site_fract_z
Cd1 Cd 0.027772(14) 0.24834(5) 0.486626(18)
O1 O 0.13582(14) 0.3383(4) 0.52574(17)
N1 N 0.09592(18) 0.1771(5) 0.3815(2)
N3 N -0.05502(18) 0.0534(5) 0.4434(2)
N4 N -0.1073(3) 0.1085(6) 0.4541(3)
N5 N -0.1592(2) 0.1571(8) 0.4633(4)
N6 N -0.0118(2) 0.4433(7) 0.5868(3)
N7 N -0.0373(2) 0.3990(6) 0.6305(3)
N8 N -0.0689(3) 0.3480(9) 0.6944(4)
C1 C 0.0743(2) 0.1302(7) 0.3054(3)
H1 H 0.0325 0.0922 0.2983
C2 C 0.1108(3) 0.1356(8) 0.2377(3)
H2 H 0.0941 0.1023 0.1856
C3 C 0.1722(3) 0.1906(7) 0.2477(3)
H3 H 0.1977 0.1981 0.2021
C4 C 0.1961(2) 0.2350(6) 0.3260(3)
H4 H 0.2381 0.2704 0.3342
C5 C 0.1568(2) 0.2261(6) 0.3916(2)
C6 C 0.1767(2) 0.2863(6) 0.4784(2)
C7 C 0.2428(2) 0.2880(6) 0.5062(2)
C8 C 0.2854(2) 0.1463(7) 0.4814(3)
H5 H 0.2726 0.0508 0.4433
C9 C 0.3464(3) 0.1467(8) 0.5130(3)
H6 H 0.3746 0.0518 0.4961
C10 C 0.3655(3) 0.2872(8) 0.5695(3)
H7 H 0.4065 0.2866 0.5912
C11 C 0.3239(3) 0.4286(8) 0.5937(3)
H8 H 0.3371 0.5243 0.6316
C12 C 0.2631(2) 0.4298(6) 0.5627(2)
H9 H 0.2353 0.5262 0.5795
Cd1B Cd -0.027772(14) -0.24834(5) 0.513374(18)
Cd1B_2 Cd -0.027772(14) 0.75166(5) 0.513374(18)
N3B N 0.05502(18) -0.0534(5) 0.5566(2)
N6B N 0.0118(2) 0.5567(7) 0.4132(3)
O2 O -0.4063(3) 0.3388(6) 0.5681(3)
N2 N -0.3267(3) 0.4337(7) 0.7567(3)
C13 C -0.2712(3) 0.3852(8) 0.7969(3)
H10 H -0.2678 0.4060 0.8538
C14 C -0.2206(3) 0.3084(7) 0.7587(4)
H11 H -0.1837 0.2788 0.7884
C15 C -0.2261(4) 0.2756(7) 0.6738(4)
H12 H -0.1923 0.2245 0.6456
C16 C -0.2815(4) 0.3189(7) 0.6315(4)
H13 H -0.2857 0.2928 0.5750
C17 C -0.3308(3) 0.4006(7) 0.6724(3)
C18 C -0.3900(3) 0.4470(9) 0.6253(3)
C19 C -0.4261(3) 0.6265(9) 0.6434(3)
C20 C -0.4869(4) 0.6476(12) 0.6085(4)
H14 H -0.5046 0.5478 0.5762
C21 C -0.5196(4) 0.8143(15) 0.6222(5)
H15 H -0.5601 0.8296 0.5997
C22 C -0.4923(4) 0.9605(12) 0.6695(4)
H16 H -0.5141 1.0758 0.6796
C23 C -0.4324(4) 0.9346(11) 0.7017(4)
H17 H -0.4138 1.0351 0.7329
C24 C -0.3997(3) 0.7701(8) 0.6898(3)
H18 H -0.3595 0.7553 0.7132
loop_
_geom_bond_atom_site_label_1
_geom_bond_atom_site_label_2
_geom_bond_site_symmetry_1
_geom_bond_site_symmetry_2
Cd1 O1 1_555 1_555
O1 C6 1_555 1_555
O2 C18 1_555 1_555
N1 Cd1 1_555 1_555
N2 C13 1_555 1_555
N3 Cd1 1_555 1_555
N4 N3 1_555 1_555
N5 N4 1_555 1_555
N6 Cd1 1_555 1_555
N7 N6 1_555 1_555
N8 N7 1_555 1_555
C1 N1 1_555 1_555
H1 C1 1_555 1_555
C2 C1 1_555 1_555
H2 C2 1_555 1_555
C3 C2 1_555 1_555
H3 C3 1_555 1_555
C4 C3 1_555 1_555
H4 C4 1_555 1_555
C5 N1 1_555 1_555
C6 C5 1_555 1_555
C7 C6 1_555 1_555
C8 C7 1_555 1_555
H5 C8 1_555 1_555
C9 C8 1_555 1_555
H6 C9 1_555 1_555
C10 C9 1_555 1_555
H7 C10 1_555 1_555
C11 C10 1_555 1_555
H8 C11 1_555 1_555
C12 C7 1_555 1_555
H9 C12 1_555 1_555
C13 H10 1_555 1_555
C14 C13 1_555 1_555
H11 C14 1_555 1_555
C15 C14 1_555 1_555
H12 C15 1_555 1_555
C16 C15 1_555 1_555
H13 C16 1_555 1_555
C17 N2 1_555 1_555
C18 C17 1_555 1_555
C19 C18 1_555 1_555
C20 C19 1_555 1_555
H14 C20 1_555 1_555
C21 C20 1_555 1_555
H15 C21 1_555 1_555
C22 C21 1_555 1_555
H16 C22 1_555 1_555
C23 C22 1_555 1_555
H17 C23 1_555 1_555
C24 C19 1_555 1_555
H18 C24 1_555 1_555
Cd1B N3 1_555 1_555
Cd1B_2 N6 1_555 1_555
N3B Cd1 1_555 1_555
N6B Cd1 1_555 1_555
C4 C5 1_555 1_555
C11 C12 1_555 1_555
C16 C17 1_555 1_555
C23 C24 1_555 1_555
Cd1B N3B 1_555 1_555
Cd1B_2 N6B 1_555 1_555

#END
