
#######################################################################
#
#                 Cambridge Crystallographic Data Centre
#                                CCDC 
#
#######################################################################
#
# If this CIF has been generated from an entry in the Cambridge 
# Structural Database, then it will include bibliographic, chemical, 
# crystal, experimental, refinement or atomic coordinate data resulting 
# from the CCDC's data processing and validation procedures.
#
#######################################################################

data_UYENOC
_symmetry_cell_setting           monoclinic
_symmetry_space_group_name_H-M   'P 21/c'
_symmetry_Int_Tables_number      14
_space_group_name_Hall           '-P 2ybc'
loop_
_symmetry_equiv_pos_site_id
_symmetry_equiv_pos_as_xyz
1 x,y,z
2 -x,1/2+y,1/2-z
3 -x,-y,-z
4 x,1/2-y,1/2+z
_cell_length_a                   7.820(2)
_cell_length_b                   8.043(2)
_cell_length_c                   8.502(2)
_cell_angle_alpha                90
_cell_angle_beta                 107.56(2)
_cell_angle_gamma                90
_cell_volume                     509.826
loop_
_atom_site_label
_atom_site_type_symbol
_atom_site_fract_x
_atom_site_fract_y
_atom_site_fract_z
Co1 Co 1.0000 0.0000 1.0000
Cl1 Cl 1.16421(5) 0.26536(4) 1.04798(4)
O1 O 1.10441(16) -0.04291(14) 1.25741(13)
O2 O 1.20574(12) -0.12232(13) 0.93895(12)
N1 N 1.36325(15) -0.15834(14) 1.04263(14)
C1 C 1.50630(18) -0.07132(17) 1.05173(17)
C2 C 1.3735(2) -0.3108(2) 1.1395(2)
H1 H 1.116(3) 0.035(3) 1.320(3)
H2 H 1.051(4) -0.104(4) 1.291(4)
H3 H 1.612(3) -0.107(2) 1.131(3)
H4 H 1.488(4) -0.319(3) 1.221(3)
H5 H 1.352(4) -0.398(3) 1.068(4)
H6 H 1.285(4) -0.298(3) 1.190(3)
Co1_2 Co 2.0000 0.0000 1.0000
Cl1B Cl 0.83579(5) -0.26536(4) 0.95202(4)
O1B O 0.89559(16) 0.04291(14) 0.74259(13)
O2B O 1.79426(12) 0.12232(13) 1.06105(12)
O2B_2 O 0.79426(12) 0.12232(13) 1.06105(12)
N1B N 1.63675(15) 0.15834(14) 0.95737(14)
C1B C 1.49370(18) 0.07132(17) 0.94827(17)
C2B C 1.6265(2) 0.3108(2) 0.8605(2)
H1B H 0.884(3) -0.035(3) 0.680(3)
H2B H 0.949(4) 0.104(4) 0.709(4)
H3B H 1.388(3) 0.107(2) 0.869(3)
H4B H 1.512(4) 0.319(3) 0.779(3)
H5B H 1.648(4) 0.398(3) 0.932(4)
H6B H 1.715(4) 0.298(3) 0.810(3)
loop_
_geom_bond_atom_site_label_1
_geom_bond_atom_site_label_2
_geom_bond_site_symmetry_1
_geom_bond_site_symmetry_2
Co1 Cl1 1_555 1_555
O1 Co1 1_555 1_555
O2 Co1 1_555 1_555
N1 O2 1_555 1_555
C1 N1 1_555 1_555
C2 N1 1_555 1_555
H1 O1 1_555 1_555
H2 O1 1_555 1_555
H3 C1 1_555 1_555
H4 C2 1_555 1_555
H5 C2 1_555 1_555
H6 C2 1_555 1_555
Co1_2 O2B 1_555 1_555
Cl1B Co1 1_555 1_555
O1B Co1 1_555 1_555
O2B N1B 1_555 1_555
O2B_2 Co1 1_555 1_555
N1B C1B 1_555 1_555
C1B C1 1_555 1_555
C2B N1B 1_555 1_555
H1B O1B 1_555 1_555
H2B O1B 1_555 1_555
H3B C1B 1_555 1_555
H4B C2B 1_555 1_555
H5B C2B 1_555 1_555
H6B C2B 1_555 1_555

#END
