
#######################################################################
#
#                 Cambridge Crystallographic Data Centre
#                                CCDC 
#
#######################################################################
#
# If this CIF has been generated from an entry in the Cambridge 
# Structural Database, then it will include bibliographic, chemical, 
# crystal, experimental, refinement or atomic coordinate data resulting 
# from the CCDC's data processing and validation procedures.
#
#######################################################################

data_UYEVOK
_symmetry_cell_setting           orthorhombic
_symmetry_space_group_name_H-M   'P b c n'
_symmetry_Int_Tables_number      60
_space_group_name_Hall           '-P 2n 2ab'
loop_
_symmetry_equiv_pos_site_id
_symmetry_equiv_pos_as_xyz
1 x,y,z
2 1/2-x,1/2-y,1/2+z
3 -x,y,1/2-z
4 1/2+x,1/2-y,-z
5 -x,-y,-z
6 1/2+x,1/2+y,1/2-z
7 x,-y,1/2+z
8 1/2-x,1/2+y,z
_cell_length_a                   14.3630(9)
_cell_length_b                   14.7715(11)
_cell_length_c                   15.4348(10)
_cell_angle_alpha                90
_cell_angle_beta                 90
_cell_angle_gamma                90
_cell_volume                     3274.69
loop_
_atom_site_label
_atom_site_type_symbol
_atom_site_fract_x
_atom_site_fract_y
_atom_site_fract_z
O1 O 0.38653(12) 0.20950(13) 0.78682(12)
C1 C 0.32268(18) 0.15735(19) 0.81276(19)
C2 C 0.25889(16) 0.12319(17) 0.74202(17)
C3 C 0.24698(17) 0.17136(18) 0.66623(19)
H1 H 0.2785 0.2257 0.6582
O2 O 0.05994(12) -0.11154(13) 0.64035(13)
O3 O 0.10570(12) -0.11022(13) 0.77910(13)
C4 C 0.10310(17) -0.07907(19) 0.70392(19)
C5 C 0.15504(16) 0.00754(18) 0.68879(18)
Cu1 Cu 0.03716(2) 0.20198(2) 0.34542(2)
N1 N -0.02865(13) 0.28906(16) 0.42074(13)
C6 C -0.0743(2) 0.1890(2) 0.5456(2)
H2 H -0.0482 0.1414 0.5110
H3 H -0.1383 0.1755 0.5580
H4 H -0.0402 0.1939 0.5989
O4 O 0.19332(14) 0.27713(13) 0.52689(13)
H5 H 0.1854 0.3016 0.4798
C7 C 0.16988(17) 0.1914(2) 0.52148(19)
O5 O 0.13530(13) 0.15696(13) 0.45735(13)
O6 O 0.30862(12) 0.13152(13) 0.88819(13)
C8 C -0.03876(19) 0.3806(2) 0.4024(2)
H6 H -0.0174 0.4093 0.3526
N2 N -0.10314(16) 0.3549(2) 0.52721(17)
C9 C 0.21022(16) 0.04261(17) 0.75435(18)
H7 H 0.2148 0.0122 0.8069
C10 C 0.18808(17) 0.13902(18) 0.60177(18)
C11 C 0.14482(17) 0.05564(18) 0.61258(18)
H8 H 0.1086 0.0320 0.5681
C12 C -0.06846(17) 0.2756(2) 0.4978(2)
C13 C 0.0285(2) 0.3738(2) 0.6653(2)
H9 H 0.0484 0.3744 0.6080
C14 C -0.09284(19) 0.3734(2) 0.7690(2)
H10 H -0.1559 0.3730 0.7827
C15 C -0.08412(19) 0.4210(2) 0.4676(2)
H11 H -0.0996 0.4820 0.4717
C16 C -0.06656(19) 0.3735(2) 0.6838(2)
C17 C -0.1401(2) 0.3715(3) 0.6138(2)
H12 H -0.1850 0.3246 0.6275
H13 H -0.1728 0.4290 0.6137
O1A O 0.11347(12) 0.29050(13) 0.28682(12)
O1C O -0.11347(12) 0.29050(13) 1.21318(12)
C1A C 0.17732(18) 0.34265(19) 0.31276(19)
C2A C 0.24111(16) 0.37681(17) 0.24202(17)
C3A C 0.25302(17) 0.32864(18) 0.16623(19)
H1A H 0.2215 0.2743 0.1582
O2A O 0.44006(12) 0.61154(13) 0.14035(13)
O2D O -0.05994(12) 0.11154(13) 0.35965(13)
O2F O 0.05994(12) 0.11154(13) 1.14035(13)
O3A O 0.39430(12) 0.61022(13) 0.27910(13)
O3F O 0.10570(12) 0.11022(13) 0.27910(13)
O3D O -0.10570(12) 0.11022(13) 1.22090(13)
C4A C 0.39690(17) 0.57907(19) 0.20392(19)
C5A C 0.34496(16) 0.49246(18) 0.18879(18)
Cu1B Cu -0.03716(2) 0.20198(2) 1.15458(2)
Cu1A Cu 0.46284(2) 0.29802(2) 0.84542(2)
Cu1D Cu -0.03716(2) -0.20198(2) 0.65458(2)
Cu1F Cu 0.03716(2) -0.20198(2) 0.84542(2)
Cu1E Cu 0.53716(2) 0.70198(2) 0.15458(2)
Cu1G Cu 0.46284(2) 0.70198(2) 0.34542(2)
Cu1A_2 Cu 0.46284(2) 0.29802(2) -0.15458(2)
N1B N 0.02865(13) 0.28906(16) 1.07926(13)
C6B C 0.0743(2) 0.1890(2) 0.9544(2)
H2B H 0.0482 0.1414 0.9890
H3B H 0.1383 0.1755 0.9420
H4B H 0.0402 0.1939 0.9011
O4A O 0.30668(14) 0.22287(13) 0.02689(13)
H5A H 0.3146 0.1984 -0.0202
C7A C 0.33012(17) 0.3086(2) 0.02148(19)
O5A O 0.36470(13) 0.34304(13) -0.04265(13)
O5B O -0.13530(13) 0.15696(13) 1.04265(13)
O6A O 0.19138(12) 0.36848(13) 0.38819(13)
C8B C 0.03876(19) 0.3806(2) 1.0976(2)
H6B H 0.0174 0.4093 1.1474
N2B N 0.10314(16) 0.3549(2) 0.97279(17)
C9A C 0.28978(16) 0.45739(17) 0.25435(18)
H7A H 0.2852 0.4878 0.3069
C10A C 0.31192(17) 0.36098(18) 0.10177(18)
C11A C 0.35518(17) 0.44436(18) 0.11258(18)
H8A H 0.3914 0.4680 0.0681
C12B C 0.06846(17) 0.2756(2) 1.0022(2)
C13B C -0.0285(2) 0.3738(2) 0.8347(2)
H9B H -0.0484 0.3744 0.8920
C14B C 0.09284(19) 0.3734(2) 0.7310(2)
H10B H 0.1559 0.3730 0.7173
C15B C 0.08412(19) 0.4210(2) 1.0324(2)
H11B H 0.0996 0.4820 1.0283
C16B C 0.06656(19) 0.3735(2) 0.8162(2)
C17B C 0.1401(2) 0.3715(3) 0.8862(2)
H12B H 0.1850 0.3246 0.8725
H13B H 0.1728 0.4290 0.8863
loop_
_geom_bond_atom_site_label_1
_geom_bond_atom_site_label_2
_geom_bond_site_symmetry_1
_geom_bond_site_symmetry_2
O1 C1 1_555 1_555
C1 C2 1_555 1_555
C2 C3 1_555 1_555
C3 H1 1_555 1_555
O2 C4 1_555 1_555
O3 C4 1_555 1_555
C4 C5 1_555 1_555
C5 C9 1_555 1_555
Cu1 N1 1_555 1_555
N1 C8 1_555 1_555
C6 H2 1_555 1_555
H3 C6 1_555 1_555
H4 C6 1_555 1_555
O4 H5 1_555 1_555
C7 O4 1_555 1_555
O5 Cu1 1_555 1_555
O6 C1 1_555 1_555
C8 H6 1_555 1_555
N2 C12 1_555 1_555
C9 C2 1_555 1_555
H7 C9 1_555 1_555
C10 C3 1_555 1_555
C11 C5 1_555 1_555
H8 C11 1_555 1_555
C12 N1 1_555 1_555
C13 H9 1_555 1_555
C14 H10 1_555 1_555
C15 C8 1_555 1_555
H11 C15 1_555 1_555
C16 C13 1_555 1_555
C17 N2 1_555 1_555
H12 C17 1_555 1_555
H13 C17 1_555 1_555
O1A Cu1 1_555 1_555
O1C Cu1B 1_555 1_555
C1A O1A 1_555 1_555
C2A C1A 1_555 1_555
C3A C2A 1_555 1_555
H1A C3A 1_555 1_555
O2A C4A 1_555 1_555
O2D Cu1 1_555 1_555
O2F Cu1B 1_555 1_555
O3A C4A 1_555 1_555
O3F Cu1 1_555 1_555
O3D Cu1B 1_555 1_555
C4A C5A 1_555 1_555
C5A C9A 1_555 1_555
Cu1B N1B 1_555 1_555
Cu1A O1 1_555 1_555
Cu1D O2 1_555 1_555
Cu1F O3 1_555 1_555
Cu1E O2A 1_555 1_555
Cu1G O3A 1_555 1_555
Cu1A_2 O5A 1_555 1_555
N1B C8B 1_555 1_555
C6B H2B 1_555 1_555
H3B C6B 1_555 1_555
H4B C6B 1_555 1_555
O4A H5A 1_555 1_555
C7A O4A 1_555 1_555
O5A C7A 1_555 1_555
O5B Cu1B 1_555 1_555
O6A C1A 1_555 1_555
C8B H6B 1_555 1_555
N2B C12B 1_555 1_555
C9A C2A 1_555 1_555
H7A C9A 1_555 1_555
C10A C3A 1_555 1_555
C11A C5A 1_555 1_555
H8A C11A 1_555 1_555
C12B N1B 1_555 1_555
C13B C14 1_555 1_555
H9B C13B 1_555 1_555
C14B C13 1_555 1_555
H10B C14B 1_555 1_555
C15B C8B 1_555 1_555
H11B C15B 1_555 1_555
C16B C13B 1_555 1_555
C17B N2B 1_555 1_555
H12B C17B 1_555 1_555
H13B C17B 1_555 1_555
C6 C12 1_555 1_555
C7 O5 1_555 1_555
C7 C10 1_555 1_555
N2 C15 1_555 1_555
C10 C11 1_555 1_555
C14 C16 1_555 1_555
C16 C17 1_555 1_555
C6B C12B 1_555 1_555
C7A C10A 1_555 1_555
N2B C15B 1_555 1_555
C10A C11A 1_555 1_555
C14B C16B 1_555 1_555
C16B C17B 1_555 1_555

#END
