
#######################################################################
#
#                 Cambridge Crystallographic Data Centre
#                                CCDC 
#
#######################################################################
#
# If this CIF has been generated from an entry in the Cambridge 
# Structural Database, then it will include bibliographic, chemical, 
# crystal, experimental, refinement or atomic coordinate data resulting 
# from the CCDC's data processing and validation procedures.
#
#######################################################################

data_UYEWIF
_symmetry_cell_setting           triclinic
_symmetry_space_group_name_H-M   'P -1'
_symmetry_Int_Tables_number      2
_space_group_name_Hall           '-P 1'
loop_
_symmetry_equiv_pos_site_id
_symmetry_equiv_pos_as_xyz
1 x,y,z
2 -x,-y,-z
_cell_length_a                   8.8053(18)
_cell_length_b                   8.8831(18)
_cell_length_c                   10.917(2)
_cell_angle_alpha                97.349(2)
_cell_angle_beta                 95.688(2)
_cell_angle_gamma                105.495(2)
_cell_volume                     808.139
loop_
_atom_site_label
_atom_site_type_symbol
_atom_site_fract_x
_atom_site_fract_y
_atom_site_fract_z
Cd1 Cd 1.00352(2) 0.46174(2) 0.128687(19)
N1 N 0.9743(3) 0.3586(3) 0.3026(2)
N2 N 0.8728(3) 0.3027(3) 0.4720(3)
O1 O 0.9370(3) 0.6853(3) 0.1888(3)
O2 O 0.9338(3) 0.7262(3) -0.0062(3)
O3 O 0.2574(3) 0.6066(3) 0.1540(2)
O4 O 0.2516(3) 0.6417(3) -0.0436(3)
C1 C 0.9065(3) 0.7571(4) 0.1020(4)
C2 C 0.8383(4) 0.8960(4) 0.1311(3)
H1 H 0.9287 0.9913 0.1553
C3 C 0.7367(4) 0.9226(4) 0.0191(4)
H2 H 0.7948 0.9243 -0.0520
H3 H 0.7171 1.0250 0.0375
C4 C 0.5774(4) 0.7942(4) -0.0149(3)
H4 H 0.5962 0.6935 -0.0429
H5 H 0.5140 0.8196 -0.0829
C5 C 0.4857(3) 0.7804(4) 0.0973(3)
H6 H 0.4715 0.8852 0.1224
C6 C 0.5870(4) 0.7497(4) 0.2068(3)
H7 H 0.6088 0.6489 0.1854
H8 H 0.5291 0.7439 0.2779
C7 C 0.7437(4) 0.8811(5) 0.2413(4)
H9 H 0.8069 0.8584 0.3108
H10 H 0.7218 0.9808 0.2674
C8 C 0.3190(3) 0.6661(4) 0.0661(3)
C9 C 0.8605(4) 0.3682(4) 0.3690(3)
H11 H 0.7810 0.4148 0.3473
C10 C 1.0644(4) 0.2828(4) 0.3661(4)
H12 H 1.1544 0.2590 0.3409
C11 C 1.0034(5) 0.2477(5) 0.4706(4)
H13 H 1.0424 0.1962 0.5301
C12 C 0.7664(5) 0.2888(5) 0.5678(4)
H14 H 0.7254 0.3801 0.5771
H15 H 0.8255 0.2869 0.6472
C13 C 0.6287(4) 0.1388(4) 0.5325(3)
C14 C 0.6332(5) 0.0016(5) 0.5760(4)
C15 C 0.4934(5) 0.1334(4) 0.4555(4)
F1 F 0.7619(3) -0.0013(4) 0.6503(3)
F2 F 0.4812(3) 0.2651(3) 0.4110(3)
Cd1A Cd -0.00352(2) -0.46174(2) 0.871313(19)
Cd1A_2 Cd 0.99648(2) 0.53826(2) -0.128687(19)
Cd1_2 Cd 0.00352(2) 0.46174(2) 0.128687(19)
Cd1A_3 Cd -0.00352(2) 0.53826(2) -0.128687(19)
Cd1A_4 Cd 1.99648(2) 0.53826(2) -0.128687(19)
Cd1_3 Cd 2.00352(2) 0.46174(2) 0.128687(19)
N1A N 0.0257(3) -0.3586(3) 0.6974(2)
N2A N 0.1272(3) -0.3027(3) 0.5280(3)
O1A O 1.0630(3) 0.3147(3) -0.1888(3)
O1A_2 O 0.0630(3) -0.6853(3) 0.8112(3)
O2A O 1.0662(3) 0.2738(3) 0.0062(3)
O2_2 O -0.0662(3) -0.2738(3) 0.9938(3)
O3A O 1.7426(3) 0.3934(3) -0.1540(2)
O3_2 O 1.2574(3) 0.6066(3) 0.1540(2)
O3A_2 O -0.2574(3) -0.6066(3) 0.8460(2)
O4A O 1.7484(3) 0.3583(3) 0.0436(3)
O4A_2 O 0.7484(3) 0.3583(3) 0.0436(3)
O4_2 O 0.2516(3) -0.3583(3) 0.9564(3)
C1A C 1.0935(3) 0.2429(4) -0.1020(4)
C2A C 1.1617(4) 0.1040(4) -0.1311(3)
H1A H 1.0713 0.0087 -0.1553
C3A C 1.2633(4) 0.0774(4) -0.0191(4)
H2A H 1.2052 0.0757 0.0520
H3A H 1.2829 -0.0250 -0.0375
C4A C 1.4226(4) 0.2058(4) 0.0149(3)
H4A H 1.4038 0.3065 0.0429
H5A H 1.4860 0.1804 0.0829
C5A C 1.5143(3) 0.2196(4) -0.0973(3)
H6A H 1.5285 0.1148 -0.1224
C6A C 1.4130(4) 0.2503(4) -0.2068(3)
H7A H 1.3912 0.3511 -0.1854
H8A H 1.4709 0.2561 -0.2779
C7A C 1.2563(4) 0.1189(5) -0.2413(4)
H9A H 1.1931 0.1416 -0.3108
H10A H 1.2782 0.0192 -0.2674
C8A C 1.6810(3) 0.3339(4) -0.0661(3)
C9A C 0.1395(4) -0.3682(4) 0.6310(3)
H11A H 0.2190 -0.4148 0.6527
C10A C -0.0644(4) -0.2828(4) 0.6339(4)
H12A H -0.1544 -0.2590 0.6591
C11A C -0.0034(5) -0.2477(5) 0.5294(4)
H13A H -0.0424 -0.1962 0.4699
C12A C 0.2336(5) -0.2888(5) 0.4322(4)
H14A H 0.2746 -0.3801 0.4229
H15A H 0.1745 -0.2869 0.3528
C13A C 0.3713(4) -0.1388(4) 0.4675(3)
C14A C 0.3668(5) -0.0016(5) 0.4240(4)
C15A C 0.5066(5) -0.1334(4) 0.5445(4)
F1A F 0.2381(3) 0.0013(4) 0.3497(3)
F2A F 0.5188(3) -0.2651(3) 0.5890(3)
loop_
_geom_bond_atom_site_label_1
_geom_bond_atom_site_label_2
_geom_bond_site_symmetry_1
_geom_bond_site_symmetry_2
Cd1 N1 1_555 1_555
N1 C9 1_555 1_555
N2 C9 1_555 1_555
O1 Cd1 1_555 1_555
O2 C1 1_555 1_555
O3 C8 1_555 1_555
O4 C8 1_555 1_555
C1 O1 1_555 1_555
C2 C1 1_555 1_555
H1 C2 1_555 1_555
C3 C2 1_555 1_555
H2 C3 1_555 1_555
H3 C3 1_555 1_555
C4 C3 1_555 1_555
H4 C4 1_555 1_555
H5 C4 1_555 1_555
C5 C4 1_555 1_555
H6 C5 1_555 1_555
C6 C5 1_555 1_555
H7 C6 1_555 1_555
H8 C6 1_555 1_555
C7 C2 1_555 1_555
H9 C7 1_555 1_555
H10 C7 1_555 1_555
C8 C5 1_555 1_555
C9 H11 1_555 1_555
C10 N1 1_555 1_555
H12 C10 1_555 1_555
C11 N2 1_555 1_555
H13 C11 1_555 1_555
C12 N2 1_555 1_555
H14 C12 1_555 1_555
H15 C12 1_555 1_555
C13 C12 1_555 1_555
C14 C13 1_555 1_555
C15 C13 1_555 1_555
F1 C14 1_555 1_555
F2 C15 1_555 1_555
Cd1A N1A 1_555 1_555
Cd1A_2 O2 1_555 1_555
Cd1_2 O3 1_555 1_555
Cd1A_3 O4 1_555 1_555
Cd1A_4 O3A 1_555 1_555
Cd1_3 O4A 1_555 1_555
N1A C9A 1_555 1_555
N2A C9A 1_555 1_555
O1A Cd1A_2 1_555 1_555
O1A_2 Cd1A 1_555 1_555
O2A Cd1 1_555 1_555
O2_2 Cd1A 1_555 1_555
O3A C8A 1_555 1_555
O3_2 Cd1 1_555 1_555
O3A_2 Cd1A 1_555 1_555
O4A C8A 1_555 1_555
O4A_2 Cd1 1_555 1_555
O4_2 Cd1A 1_555 1_555
C1A O1A 1_555 1_555
C2A C1A 1_555 1_555
H1A C2A 1_555 1_555
C3A C2A 1_555 1_555
H2A C3A 1_555 1_555
H3A C3A 1_555 1_555
C4A C3A 1_555 1_555
H4A C4A 1_555 1_555
H5A C4A 1_555 1_555
C5A C4A 1_555 1_555
H6A C5A 1_555 1_555
C6A C5A 1_555 1_555
H7A C6A 1_555 1_555
H8A C6A 1_555 1_555
C7A C2A 1_555 1_555
H9A C7A 1_555 1_555
H10A C7A 1_555 1_555
C8A C5A 1_555 1_555
C9A H11A 1_555 1_555
C10A N1A 1_555 1_555
H12A C10A 1_555 1_555
C11A N2A 1_555 1_555
H13A C11A 1_555 1_555
C12A N2A 1_555 1_555
H14A C12A 1_555 1_555
H15A C12A 1_555 1_555
C13A C12A 1_555 1_555
C14A C15 1_555 1_555
C15A C14 1_555 1_555
F1A C14A 1_555 1_555
F2A C15A 1_555 1_555
C6 C7 1_555 1_555
C10 C11 1_555 1_555
O2A C1A 1_555 1_555
C6A C7A 1_555 1_555
C10A C11A 1_555 1_555
C13A C14A 1_555 1_555
C13A C15A 1_555 1_555

#END
