
#######################################################################
#
#                 Cambridge Crystallographic Data Centre
#                                CCDC 
#
#######################################################################
#
# If this CIF has been generated from an entry in the Cambridge 
# Structural Database, then it will include bibliographic, chemical, 
# crystal, experimental, refinement or atomic coordinate data resulting 
# from the CCDC's data processing and validation procedures.
#
#######################################################################

data_UYEWOL
_symmetry_cell_setting           orthorhombic
_symmetry_space_group_name_H-M   'P b c a'
_symmetry_Int_Tables_number      61
_space_group_name_Hall           '-P 2ac 2ab'
loop_
_symmetry_equiv_pos_site_id
_symmetry_equiv_pos_as_xyz
1 x,y,z
2 1/2-x,-y,1/2+z
3 -x,1/2+y,1/2-z
4 1/2+x,1/2-y,-z
5 -x,-y,-z
6 1/2+x,y,1/2-z
7 x,1/2-y,1/2+z
8 1/2-x,1/2+y,z
_cell_length_a                   7.0282(14)
_cell_length_b                   18.045(4)
_cell_length_c                   19.155(4)
_cell_angle_alpha                90
_cell_angle_beta                 90
_cell_angle_gamma                90
_cell_volume                     2429.31
loop_
_atom_site_label
_atom_site_type_symbol
_atom_site_fract_x
_atom_site_fract_y
_atom_site_fract_z
Mn1 Mn 0.99265(5) 0.177130(18) 0.599337(16)
O1 O 0.9678(2) 0.21173(9) 0.45293(8)
O2 O 0.8650(2) 0.11708(9) 0.51611(7)
C1 C 0.9005(3) 0.14763(12) 0.45717(11)
C2 C 0.9273(3) 0.02674(12) 0.39697(11)
H1 H 0.9568 0.0051 0.4397
C3 C 0.8931(3) 0.01909(11) 0.27102(10)
C4 C 0.8337(3) 0.09248(12) 0.26597(11)
H2 H 0.8031 0.1136 0.2231
C5 C 0.8750(3) 0.10079(12) 0.39276(10)
C6 C 0.9345(3) -0.01438(12) 0.33542(11)
N1 N 0.9831(3) -0.08869(10) 0.32437(9)
N2 N 0.9213(3) -0.03594(10) 0.22174(9)
H3 H 0.9076 -0.0315 0.1773
C7 C 0.9742(3) -0.09759(13) 0.25614(12)
H4 H 1.0018 -0.1421 0.2339
C8 C 0.7315(3) 0.20866(11) 0.32509(11)
O3 O 0.7680(3) 0.25238(9) 0.27738(8)
C9 C 0.8219(3) 0.13291(11) 0.32746(10)
O4 O 0.6130(2) 0.22135(8) 0.37448(8)
O5 O 0.7207(2) 0.21869(9) 0.63725(8)
H5 H 0.6445 0.2440 0.6133
H6 H 0.7314 0.2358 0.6779
O6 O 1.2798(3) 0.15221(9) 0.55421(9)
H7 H 1.3339 0.1935 0.5583
H8 H 1.2804 0.1377 0.5125
Mn1D Mn 1.00735(5) -0.177130(18) 0.400663(16)
Mn1C Mn 0.49265(5) 0.322870(18) 0.400663(16)
N1D N 1.0169(3) 0.08869(10) 0.67563(9)
O4C O 1.1130(2) 0.27865(8) 0.62552(8)
O7 O 0.5635(3) 0.04146(9) 0.57629(9)
H9 H 0.6527 0.0582 0.5518
H10 H 0.4652 0.0677 0.5729
O8 O 0.3671(3) 0.10993(11) 0.41923(10)
H11 H 0.4516 0.1401 0.4068
H12 H 0.4097 0.0665 0.4200
loop_
_geom_bond_atom_site_label_1
_geom_bond_atom_site_label_2
_geom_bond_site_symmetry_1
_geom_bond_site_symmetry_2
Mn1 O2 1_555 1_555
O1 C1 1_555 1_555
O2 C1 1_555 1_555
C1 C5 1_555 1_555
C2 H1 1_555 1_555
C3 C4 1_555 1_555
C4 H2 1_555 1_555
C5 C2 1_555 1_555
C6 C2 1_555 1_555
N1 C6 1_555 1_555
N2 C3 1_555 1_555
H3 N2 1_555 1_555
C7 N1 1_555 1_555
H4 C7 1_555 1_555
C8 O3 1_555 1_555
C9 C4 1_555 1_555
O4 C8 1_555 1_555
O5 Mn1 1_555 1_555
H5 O5 1_555 1_555
H6 O5 1_555 1_555
O6 Mn1 1_555 1_555
H7 O6 1_555 1_555
H8 O6 1_555 1_555
O7 H9 1_555 1_555
H10 O7 1_555 1_555
O8 H11 1_555 1_555
H12 O8 1_555 1_555
Mn1D N1 1_555 1_555
Mn1C O4 1_555 1_555
N1D Mn1 1_555 1_555
O4C Mn1 1_555 1_555
C3 C6 1_555 1_555
C5 C9 1_555 1_555
N2 C7 1_555 1_555
C8 C9 1_555 1_555

#END
