
#######################################################################
#
#                 Cambridge Crystallographic Data Centre
#                                CCDC 
#
#######################################################################
#
# If this CIF has been generated from an entry in the Cambridge 
# Structural Database, then it will include bibliographic, chemical, 
# crystal, experimental, refinement or atomic coordinate data resulting 
# from the CCDC's data processing and validation procedures.
#
#######################################################################

data_UYIXIK
_symmetry_cell_setting           orthorhombic
_symmetry_space_group_name_H-M   'P n m a'
_symmetry_Int_Tables_number      62
_space_group_name_Hall           '-P 2ac 2n'
loop_
_symmetry_equiv_pos_site_id
_symmetry_equiv_pos_as_xyz
1 x,y,z
2 1/2-x,-y,1/2+z
3 -x,1/2+y,-z
4 1/2+x,1/2-y,1/2-z
5 -x,-y,-z
6 1/2+x,y,1/2-z
7 x,1/2-y,z
8 1/2-x,1/2+y,1/2+z
_cell_length_a                   7.0878(14)
_cell_length_b                   12.883(3)
_cell_length_c                   8.905(2)
_cell_angle_alpha                90
_cell_angle_beta                 90
_cell_angle_gamma                90
_cell_volume                     813.134
loop_
_atom_site_label
_atom_site_type_symbol
_atom_site_fract_x
_atom_site_fract_y
_atom_site_fract_z
Co1 Co 0.0000 0.5000 0.0000
N1 N -0.2667(2) 0.54690(12) 0.0836(2)
N2 N -0.3415(2) 0.50186(10) 0.1827(2)
N3 N -0.4204(2) 0.45671(12) 0.2783(2)
N4 N 0.1175(2) 0.65664(11) 0.0311(2)
C1 C 0.2945(3) 0.65931(14) 0.0841(2)
H1 H 0.3551 0.59664 0.1030
C2 C 0.3914(4) 0.7500 0.1118(3)
H2 H 0.5148 0.7500 0.1472
C3 C 0.0341(4) 0.7500 0.0041(3)
N5 N -0.1405(3) 0.7500 -0.0522(3)
H3 H -0.1927 0.6901 -0.0712
Co1A Co -0.5000 0.5000 0.5000
Co1A_2 Co 0.5000 0.5000 -0.5000
Co1B Co 0.0000 1.0000 0.0000
N1D N 0.2667(2) 0.45310(12) -0.0836(2)
N2D N 0.3415(2) 0.49814(10) -0.1827(2)
N3D N 0.4204(2) 0.54329(12) -0.2783(2)
N3A N -0.0796(2) 0.54329(12) -0.2217(2)
N3E N 0.0796(2) 0.45671(12) 0.2217(2)
N4F N 0.1175(2) 0.84336(11) 0.0311(2)
N4D N -0.1175(2) 0.34336(11) -0.0311(2)
C1F C 0.2945(3) 0.84069(14) 0.0841(2)
H1F H 0.3551 0.90336 0.1030
H3F H -0.1927 0.8099 -0.0712
loop_
_geom_bond_atom_site_label_1
_geom_bond_atom_site_label_2
_geom_bond_site_symmetry_1
_geom_bond_site_symmetry_2
Co1 N1 1_555 1_555
N1 N2 1_555 1_555
N2 N3 1_555 1_555
N3 Co1A 1_555 1_555
N4 Co1 1_555 1_555
C1 N4 1_555 1_555
H1 C1 1_555 1_555
C2 C1 1_555 1_555
H2 C2 1_555 1_555
C3 N4 1_555 1_555
N5 C3 1_555 1_555
H3 N5 1_555 1_555
Co1A_2 N3D 1_555 1_555
Co1B N4F 1_555 1_555
N1D Co1 1_555 1_555
N2D N1D 1_555 1_555
N3D N2D 1_555 1_555
N3A Co1 1_555 1_555
N3E Co1 1_555 1_555
N4F C3 1_555 1_555
N4D Co1 1_555 1_555
C1F C2 1_555 1_555
H1F C1F 1_555 1_555
H3F N5 1_555 1_555
N4F C1F 1_555 1_555

#END
