
#######################################################################
#
#                 Cambridge Crystallographic Data Centre
#                                CCDC 
#
#######################################################################
#
# If this CIF has been generated from an entry in the Cambridge 
# Structural Database, then it will include bibliographic, chemical, 
# crystal, experimental, refinement or atomic coordinate data resulting 
# from the CCDC's data processing and validation procedures.
#
#######################################################################

data_UYODIW
_symmetry_cell_setting           triclinic
_symmetry_space_group_name_H-M   'P -1'
_symmetry_Int_Tables_number      2
_space_group_name_Hall           '-P 1'
loop_
_symmetry_equiv_pos_site_id
_symmetry_equiv_pos_as_xyz
1 x,y,z
2 -x,-y,-z
_cell_length_a                   5.134
_cell_length_b                   7.650
_cell_length_c                   8.357
_cell_angle_alpha                64.55
_cell_angle_beta                 86.39
_cell_angle_gamma                75.49
_cell_volume                     286.543
loop_
_atom_site_label
_atom_site_type_symbol
_atom_site_fract_x
_atom_site_fract_y
_atom_site_fract_z
Cd1 Cd 0.5000 0.5000 0.5000
I1 I 0.32231(8) 0.37301(6) 0.85960(5)
N1 N 0.1100(10) 0.7845(7) 0.3895(7)
N2 N -0.2654(10) 0.7028(7) 0.5726(6)
H1 H -0.386(16) 0.784(11) 0.609(9)
H2 H -0.143(16) 0.626(12) 0.637(10)
N3 N -0.2785(11) 1.0204(7) 0.3323(7)
N4 N -0.0971(11) 1.0883(8) 0.2147(7)
H3 H -0.1260 1.2062 0.1290
C1 C -0.1434(11) 0.8344(8) 0.4368(7)
C2 C 0.1320(12) 0.9501(8) 0.2476(8)
H4 H 0.2849 0.9657 0.1822
Cd1_2 Cd -0.5000 0.5000 0.5000
Cd1_3 Cd 1.5000 0.5000 0.5000
I1A I 0.67769(8) 0.62699(6) 0.14040(5)
N1_2 N 1.1100(10) 0.7845(7) 0.3895(7)
N1A N 0.8900(10) 0.2155(7) 0.6105(7)
N2_2 N 0.7346(10) 0.7028(7) 0.5726(6)
N2A N 0.2654(10) 0.2972(7) 0.4274(6)
H1_2 H 0.614(16) 0.784(11) 0.609(9)
H1A H 0.386(16) 0.216(11) 0.391(9)
H2_2 H 0.857(16) 0.626(12) 0.637(10)
H2A H 0.143(16) 0.374(12) 0.363(10)
N3_2 N 0.7215(11) 1.0204(7) 0.3323(7)
N4_2 N 0.9029(11) 1.0883(8) 0.2147(7)
H3_2 H 0.8740 1.2062 0.1290
C1_2 C 0.8566(11) 0.8344(8) 0.4368(7)
C2_2 C 1.1320(12) 0.9501(8) 0.2476(8)
H4_2 H 1.2849 0.9657 0.1822
loop_
_geom_bond_atom_site_label_1
_geom_bond_atom_site_label_2
_geom_bond_site_symmetry_1
_geom_bond_site_symmetry_2
Cd1 I1 1_555 1_555
N1 Cd1 1_555 1_555
N2 H1 1_555 1_555
H2 N2 1_555 1_555
N3 N4 1_555 1_555
N4 H3 1_555 1_555
C1 N1 1_555 1_555
C2 N1 1_555 1_555
H4 C2 1_555 1_555
Cd1_2 N2 1_555 1_555
Cd1_3 N1_2 1_555 1_555
I1A Cd1 1_555 1_555
N1_2 C1_2 1_555 1_555
N1A Cd1 1_555 1_555
N2_2 Cd1 1_555 1_555
N2A Cd1 1_555 1_555
H1_2 N2_2 1_555 1_555
H1A N2A 1_555 1_555
H2_2 N2_2 1_555 1_555
H2A N2A 1_555 1_555
N3_2 N4_2 1_555 1_555
N4_2 H3_2 1_555 1_555
C1_2 N2_2 1_555 1_555
C2_2 N1_2 1_555 1_555
H4_2 C2_2 1_555 1_555
N2 C1 1_555 1_555
N3 C1 1_555 1_555
N4 C2 1_555 1_555
N3_2 C1_2 1_555 1_555
N4_2 C2_2 1_555 1_555

#END
