
#######################################################################
#
#                 Cambridge Crystallographic Data Centre
#                                CCDC 
#
#######################################################################
#
# If this CIF has been generated from an entry in the Cambridge 
# Structural Database, then it will include bibliographic, chemical, 
# crystal, experimental, refinement or atomic coordinate data resulting 
# from the CCDC's data processing and validation procedures.
#
#######################################################################

data_UYOFAQ
_symmetry_cell_setting           monoclinic
_symmetry_space_group_name_H-M   'C 2/c'
_symmetry_Int_Tables_number      15
_space_group_name_Hall           '-C 2yn'
loop_
_symmetry_equiv_pos_site_id
_symmetry_equiv_pos_as_xyz
1 x,y,z
2 -x,y,1/2-z
3 1/2+x,1/2+y,z
4 1/2-x,1/2+y,1/2-z
5 -x,-y,-z
6 x,-y,1/2+z
7 1/2-x,1/2-y,-z
8 1/2+x,1/2-y,1/2+z
_cell_length_a                   26.0719(17)
_cell_length_b                   11.6709(8)
_cell_length_c                   20.0343(13)
_cell_angle_alpha                90
_cell_angle_beta                 114.9450(10)
_cell_angle_gamma                90
_cell_volume                     5527.4
loop_
_atom_site_label
_atom_site_type_symbol
_atom_site_fract_x
_atom_site_fract_y
_atom_site_fract_z
Cd1 Cd 0.229712(11) 0.33904(2) 0.100000(14)
Cd2 Cd 0.442735(10) 0.56605(2) 0.294245(13)
O1 O 0.24511(12) 0.5334(2) 0.07830(16)
O2 O 0.17567(12) 0.3076(2) -0.02713(15)
H1 H 0.1721 0.2379 -0.0406
H2 H 0.1945 0.3367 -0.0488
O3 O 0.30359(11) 0.4075(2) 0.06777(14)
O4 O 0.27549(15) 0.3357(3) 0.22356(16)
H3 H 0.2685 0.2900 0.2517
H4 H 0.2924 0.3924 0.2504
O5 O 0.38281(11) 0.5847(2) 0.17578(13)
O7 O 0.45979(11) 0.5641(2) 0.15750(15)
O9 O 0.42549(11) 0.4482(2) -0.10294(14)
O11 O 0.34581(11) 0.4933(2) -0.19732(13)
O12 O 0.21824(13) 0.4086(3) -0.11285(16)
O13 O 0.30003(13) 0.3389(2) -0.10467(16)
C1 C 0.28560(15) 0.5085(3) 0.06186(18)
C2 C 0.30925(14) 0.6052(3) 0.03269(18)
H11 H 0.3038 0.6754 0.0558
C3 C 0.37273(14) 0.5983(3) 0.05266(17)
H12 H 0.3832 0.6746 0.0421
C4 C 0.38818(15) 0.5154(3) 0.00434(18)
H13 H 0.4285 0.5191 0.0178
H14 H 0.3789 0.4375 0.0122
C5 C 0.35527(14) 0.5480(3) -0.07701(18)
H15 H 0.3631 0.6296 -0.0794
C6 C 0.29151(15) 0.5413(3) -0.10041(18)
H16 H 0.2737 0.5729 -0.1503
C7 C 0.27500(15) 0.6221(3) -0.05137(19)
H17 H 0.2352 0.6110 -0.0633
H18 H 0.2797 0.7006 -0.0635
C8 C 0.40802(15) 0.5799(3) 0.13465(19)
C9 C 0.37606(16) 0.4897(3) -0.12908(18)
C10 C 0.26838(16) 0.4205(4) -0.10530(18)
C11 C 0.40636(16) 0.3102(3) 0.2404(2)
H19 H 0.3763 0.3499 0.2050
C12 C 0.40407(17) 0.1927(3) 0.2405(2)
H20 H 0.3726 0.1548 0.2062
C13 C 0.44853(15) 0.1305(3) 0.29159(19)
C14 C 0.49438(17) 0.1934(3) 0.3406(2)
H21 H 0.5259 0.1559 0.3751
C15 C 0.49300(17) 0.3111(3) 0.3379(2)
H22 H 0.5237 0.3513 0.3719
C16 C 0.44777(16) 0.0036(3) 0.29402(19)
C17 C 0.39849(17) -0.0581(3) 0.2587(2)
H23 H 0.3644 -0.0202 0.2330
C18 C 0.39992(18) -0.1766(3) 0.2614(2)
H24 H 0.3662 -0.2165 0.2374
C19 C 0.49517(17) -0.1768(3) 0.3313(2)
H25 H 0.5286 -0.2171 0.3565
C20 C 0.49736(17) -0.0593(3) 0.3312(2)
H26 H 0.5317 -0.0217 0.3558
C21 C 0.12922(19) 0.5202(4) 0.0802(3)
H27 H 0.1582 0.5740 0.0979
C22 C 0.0740(2) 0.5590(4) 0.0456(3)
H28 H 0.0667 0.6373 0.0405
C23 C 0.02970(17) 0.4817(4) 0.0187(2)
C24 C 0.04442(19) 0.3654(4) 0.0304(3)
H29 H 0.0164 0.3094 0.0151
C25 C 0.10027(18) 0.3346(4) 0.0646(3)
H30 H 0.1089 0.2570 0.0710
N1 N 0.44990(12) 0.3705(2) 0.28898(16)
N2 N 0.44725(13) -0.2361(3) 0.29685(16)
N3 N 0.14293(14) 0.4092(3) 0.0893(2)
Cd1F Cd 0.270288(11) 0.16096(2) -0.100000(14)
Cd1D Cd -0.229712(11) 0.66096(2) -0.100000(14)
Cd2F Cd 0.057265(10) -0.06605(2) -0.294245(13)
Cd2A Cd 0.557265(10) 0.56605(2) 0.205755(13)
Cd2E Cd 0.442735(10) 0.43395(2) -0.205755(13)
Cd2_2 Cd 0.442735(10) -0.43395(2) 0.294245(13)
Cd2G Cd -0.057265(10) -0.06605(2) -0.205755(13)
Cd2C Cd 0.057265(10) 0.06605(2) 0.205755(13)
Cd2_3 Cd 0.442735(10) 1.56605(2) 0.294245(13)
O1F O 0.25489(12) -0.0334(2) -0.07830(16)
O2F O 0.32433(12) 0.1924(2) 0.02713(15)
H1F H 0.3279 0.2621 0.0406
H2F H 0.3055 0.1633 0.0488
O3F O 0.19641(11) 0.0925(2) -0.06777(14)
O4F O 0.22451(15) 0.1643(3) -0.22356(16)
H3F H 0.2315 0.2100 -0.2517
H4F H 0.2076 0.1076 -0.2504
O5F O 0.11719(11) -0.0847(2) -0.17578(13)
O7F O 0.04021(11) -0.0641(2) -0.15750(15)
O7A O 0.54021(11) 0.5641(2) 0.34250(15)
O7G O -0.04021(11) -0.0641(2) -0.34250(15)
O9F O 0.07451(11) 0.0518(2) 0.10294(14)
O9E O 0.42549(11) 0.5518(2) 0.39706(14)
O9C O 0.07451(11) -0.0518(2) -0.39706(14)
O11F O 0.15419(11) 0.0067(2) 0.19732(13)
O12F O 0.28176(13) 0.0914(3) 0.11285(16)
O13F O 0.19997(13) 0.1611(2) 0.10467(16)
C1F C 0.21440(15) -0.0085(3) -0.06186(18)
C2F C 0.19075(14) -0.1052(3) -0.03269(18)
H11F H 0.1962 -0.1754 -0.0558
C3F C 0.12727(14) -0.0983(3) -0.05266(17)
H12F H 0.1168 -0.1746 -0.0421
C4F C 0.11182(15) -0.0154(3) -0.00434(18)
H13F H 0.0715 -0.0191 -0.0178
H14F H 0.1211 0.0625 -0.0122
C5F C 0.14473(14) -0.0480(3) 0.07701(18)
H15F H 0.1369 -0.1296 0.0794
C6F C 0.20849(15) -0.0413(3) 0.10041(18)
H16F H 0.2263 -0.0729 0.1503
C7F C 0.22500(15) -0.1221(3) 0.05137(19)
H17F H 0.2648 -0.1110 0.0633
H18F H 0.2203 -0.2006 0.0635
C8F C 0.09198(15) -0.0799(3) -0.13465(19)
C9F C 0.12394(16) 0.0103(3) 0.12908(18)
C10F C 0.23162(16) 0.0795(4) 0.10530(18)
C11_2 C 0.40636(16) 1.3102(3) 0.2404(2)
H19_2 H 0.3763 1.3499 0.2050
C12_2 C 0.40407(17) 1.1927(3) 0.2405(2)
H20_2 H 0.3726 1.1548 0.2062
C13_2 C 0.44853(15) 1.1305(3) 0.29159(19)
C14_2 C 0.49438(17) 1.1934(3) 0.3406(2)
H21_2 H 0.5259 1.1559 0.3751
C15_2 C 0.49300(17) 1.3111(3) 0.3379(2)
H22_2 H 0.5237 1.3513 0.3719
C16_2 C 0.44777(16) 1.0036(3) 0.29402(19)
C17_2 C 0.39849(17) 0.9419(3) 0.2587(2)
H23_2 H 0.3644 0.9798 0.2330
C18_2 C 0.39992(18) 0.8234(3) 0.2614(2)
H24_2 H 0.3662 0.7835 0.2374
C19_2 C 0.49517(17) 0.8232(3) 0.3313(2)
H25_2 H 0.5286 0.7829 0.3565
C20_2 C 0.49736(17) 0.9407(3) 0.3312(2)
H26_2 H 0.5317 0.9783 0.3558
C21D C -0.12922(19) 0.4798(4) -0.0802(3)
H27D H -0.1582 0.4260 -0.0979
C22D C -0.0740(2) 0.4410(4) -0.0456(3)
H28D H -0.0667 0.3627 -0.0405
C23D C -0.02970(17) 0.5183(4) -0.0187(2)
C24D C -0.04442(19) 0.6346(4) -0.0304(3)
H29D H -0.0164 0.6906 -0.0151
C25D C -0.10027(18) 0.6654(4) -0.0646(3)
H30D H -0.1089 0.7430 -0.0710
N1_2 N 0.44990(12) 1.3705(2) 0.28898(16)
N1F N 0.05010(12) 0.1295(2) -0.28898(16)
N2_2 N 0.44725(13) 0.7639(3) 0.29685(16)
N2F N 0.05275(13) -0.2639(3) -0.29685(16)
N3D N -0.14293(14) 0.5908(3) -0.0893(2)
N3F N 0.35707(14) 0.0908(3) -0.0893(2)
O6 O 0.26633(16) -0.3265(3) 0.21036(18)
H5 H 0.2882 -0.3736 0.2420
H6 H 0.2683 -0.3522 0.1718
O8 O -0.0096(6) 0.1394(13) -0.0156(8)
H7 H -0.0285 0.0833 -0.0413
H8 H 0.0173 0.1110 0.0220
O10 O 0.1356(4) 0.5715(12) -0.0756(7)
H9 H 0.1006 0.5551 -0.0931
H10 H 0.1407 0.6395 -0.0590
loop_
_geom_bond_atom_site_label_1
_geom_bond_atom_site_label_2
_geom_bond_site_symmetry_1
_geom_bond_site_symmetry_2
Cd1 O1 1_555 1_555
Cd2 O5 1_555 1_555
O1 C1 1_555 1_555
O2 Cd1 1_555 1_555
H1 O2 1_555 1_555
H2 O2 1_555 1_555
O3 Cd1 1_555 1_555
O4 Cd1 1_555 1_555
H3 O4 1_555 1_555
H4 O4 1_555 1_555
O5 C8 1_555 1_555
O6 H5 1_555 1_555
H6 O6 1_555 1_555
O7 C8 1_555 1_555
O8 H7 1_555 1_555
H8 O8 1_555 1_555
O9 C9 1_555 1_555
O10 H9 1_555 1_555
H10 O10 1_555 1_555
O11 C9 1_555 1_555
O12 C10 1_555 1_555
O13 C10 1_555 1_555
C1 O3 1_555 1_555
C2 C1 1_555 1_555
H11 C2 1_555 1_555
C3 C2 1_555 1_555
H12 C3 1_555 1_555
C4 C3 1_555 1_555
H13 C4 1_555 1_555
H14 C4 1_555 1_555
C5 C4 1_555 1_555
H15 C5 1_555 1_555
C6 C5 1_555 1_555
H16 C6 1_555 1_555
C7 C2 1_555 1_555
H17 C7 1_555 1_555
H18 C7 1_555 1_555
C8 C3 1_555 1_555
C9 C5 1_555 1_555
C10 C6 1_555 1_555
C11 H19 1_555 1_555
C12 C11 1_555 1_555
H20 C12 1_555 1_555
C13 C12 1_555 1_555
C14 C13 1_555 1_555
H21 C14 1_555 1_555
C15 C14 1_555 1_555
H22 C15 1_555 1_555
C16 C13 1_555 1_555
C17 C16 1_555 1_555
H23 C17 1_555 1_555
C18 C17 1_555 1_555
H24 C18 1_555 1_555
C19 H25 1_555 1_555
C20 C16 1_555 1_555
H26 C20 1_555 1_555
C21 H27 1_555 1_555
C22 C21 1_555 1_555
H28 C22 1_555 1_555
C23 C22 1_555 1_555
C24 C23 1_555 1_555
H29 C24 1_555 1_555
C25 C24 1_555 1_555
H30 C25 1_555 1_555
N1 Cd2 1_555 1_555
N2 C18 1_555 1_555
N3 Cd1 1_555 1_555
Cd1F O13 1_555 1_555
Cd1D N3D 1_555 1_555
Cd2F O5F 1_555 1_555
Cd2A O7 1_555 1_555
Cd2E O9 1_555 1_555
Cd2_2 N2 1_555 1_555
Cd2G O7F 1_555 1_555
Cd2C O9F 1_555 1_555
Cd2_3 N1_2 1_555 1_555
O1F Cd1F 1_555 1_555
O2F Cd1F 1_555 1_555
H1F O2F 1_555 1_555
H2F O2F 1_555 1_555
O3F Cd1F 1_555 1_555
O4F Cd1F 1_555 1_555
H3F O4F 1_555 1_555
H4F O4F 1_555 1_555
O5F C8F 1_555 1_555
O7F C8F 1_555 1_555
O7A Cd2 1_555 1_555
O7G Cd2F 1_555 1_555
O9F C9F 1_555 1_555
O9E Cd2 1_555 1_555
O9C Cd2F 1_555 1_555
O11F C9F 1_555 1_555
O12F C10F 1_555 1_555
O13F Cd1 1_555 1_555
C1F O1F 1_555 1_555
C2F C1F 1_555 1_555
H11F C2F 1_555 1_555
C3F C2F 1_555 1_555
H12F C3F 1_555 1_555
C4F C3F 1_555 1_555
H13F C4F 1_555 1_555
H14F C4F 1_555 1_555
C5F C4F 1_555 1_555
H15F C5F 1_555 1_555
C6F C5F 1_555 1_555
H16F C6F 1_555 1_555
C7F C2F 1_555 1_555
H17F C7F 1_555 1_555
H18F C7F 1_555 1_555
C8F C3F 1_555 1_555
C9F C5F 1_555 1_555
C10F O13F 1_555 1_555
C11_2 H19_2 1_555 1_555
C12_2 C11_2 1_555 1_555
H20_2 C12_2 1_555 1_555
C13_2 C12_2 1_555 1_555
C14_2 C13_2 1_555 1_555
H21_2 C14_2 1_555 1_555
C15_2 C14_2 1_555 1_555
H22_2 C15_2 1_555 1_555
C16_2 C13_2 1_555 1_555
C17_2 C16_2 1_555 1_555
H23_2 C17_2 1_555 1_555
C18_2 C17_2 1_555 1_555
H24_2 C18_2 1_555 1_555
C19_2 H25_2 1_555 1_555
C20_2 C16_2 1_555 1_555
H26_2 C20_2 1_555 1_555
C21D H27D 1_555 1_555
C22D C21D 1_555 1_555
H28D C22D 1_555 1_555
C23D C23 1_555 1_555
C24D C23D 1_555 1_555
H29D C24D 1_555 1_555
C25D C24D 1_555 1_555
H30D C25D 1_555 1_555
N1_2 C11_2 1_555 1_555
N1F Cd2F 1_555 1_555
N2_2 Cd2 1_555 1_555
N2F Cd2F 1_555 1_555
N3D C21D 1_555 1_555
N3F Cd1F 1_555 1_555
C6 C7 1_555 1_555
C11 N1 1_555 1_555
C15 N1 1_555 1_555
C19 C20 1_555 1_555
C19 N2 1_555 1_555
C21 N3 1_555 1_555
C25 N3 1_555 1_555
O3F C1F 1_555 1_555
C6F C7F 1_555 1_555
C6F C10F 1_555 1_555
C15_2 N1_2 1_555 1_555
C18_2 N2_2 1_555 1_555
C19_2 C20_2 1_555 1_555
C19_2 N2_2 1_555 1_555
C22D C23D 1_555 1_555
C25D N3D 1_555 1_555

#END
