
#######################################################################
#
#                 Cambridge Crystallographic Data Centre
#                                CCDC 
#
#######################################################################
#
# If this CIF has been generated from an entry in the Cambridge 
# Structural Database, then it will include bibliographic, chemical, 
# crystal, experimental, refinement or atomic coordinate data resulting 
# from the CCDC's data processing and validation procedures.
#
#######################################################################

data_UYOFEU
_symmetry_cell_setting           monoclinic
_symmetry_space_group_name_H-M   'C 2/c'
_symmetry_Int_Tables_number      15
_space_group_name_Hall           '-C 2yn'
loop_
_symmetry_equiv_pos_site_id
_symmetry_equiv_pos_as_xyz
1 x,y,z
2 -x,y,1/2-z
3 1/2+x,1/2+y,z
4 1/2-x,1/2+y,1/2-z
5 -x,-y,-z
6 x,-y,1/2+z
7 1/2-x,1/2-y,-z
8 1/2+x,1/2-y,1/2+z
_cell_length_a                   25.864(2)
_cell_length_b                   11.5847(10)
_cell_length_c                   19.8334(17)
_cell_angle_alpha                90
_cell_angle_beta                 114.2950(10)
_cell_angle_gamma                90
_cell_volume                     5416.33
loop_
_atom_site_label
_atom_site_type_symbol
_atom_site_fract_x
_atom_site_fract_y
_atom_site_fract_z
C1 C 0.49418(16) 0.3151(3) 0.8306(2)
H1 H 0.5279 0.2752 0.8557
C2 C 0.49608(15) 0.4333(3) 0.8307(2)
H2 H 0.5304 0.4712 0.8557
C3 C 0.44703(15) 0.4963(3) 0.79357(18)
C4 C 0.39705(16) 0.4325(3) 0.7576(2)
H3 H 0.3627 0.4701 0.7318
C5 C 0.39926(16) 0.3146(3) 0.7607(2)
H4 H 0.3656 0.2740 0.7363
C6 C 0.44704(14) 0.6238(3) 0.79163(18)
C7 C 0.49337(16) 0.6871(3) 0.8407(2)
H5 H 0.5250 0.6492 0.8748
C8 C 0.49169(16) 0.8041(3) 0.8381(2)
H6 H 0.5227 0.8441 0.8718
C9 C 0.40476(15) 0.8051(3) 0.7421(2)
H7 H 0.3746 0.8455 0.7070
C10 C 0.40186(15) 0.6875(3) 0.7412(2)
H8 H 0.3700 0.6500 0.7071
C11 C 0.62993(18) -0.5184(4) 1.0814(3)
H9 H 0.6592 -0.5721 1.0998
C12 C 0.57474(18) -0.5583(4) 1.0471(3)
H10 H 0.5675 -0.6372 1.0428
C13 C 0.53015(16) -0.4804(4) 1.0192(2)
C14 C 0.54476(16) -0.3646(4) 1.0306(2)
H11 H 0.5164 -0.3088 1.0151
C15 C 0.59995(17) -0.3313(4) 1.0641(2)
H12 H 0.6080 -0.2527 1.0697
C16 C 0.58604(13) 0.0698(3) 0.86230(17)
C17 C 0.62362(12) 0.0909(3) 0.94368(16)
H13 H 0.6128 0.1676 0.9543
C18 C 0.68712(13) 0.1008(3) 0.96044(17)
H14 H 0.6911 0.1698 0.9344
C19 C 0.72157(14) 0.1244(3) 1.04396(18)
H15 H 0.7616 0.1175 1.0549
H16 H 0.7148 0.2035 1.0541
C20 C 0.70829(14) 0.0445(3) 1.09700(17)
H17 H 0.7262 0.0801 1.1460
C21 C 0.64446(13) 0.0463(3) 1.07640(17)
H18 H 0.6351 0.1282 1.0772
C22 C 0.61088(13) 0.0084(3) 0.99580(17)
H19 H 0.5706 0.0092 0.9841
H20 H 0.6215 -0.0698 0.9892
C23 C 0.71201(14) 0.0012(3) 0.93328(17)
C24 C 0.73473(14) -0.0749(3) 1.10431(17)
C25 C 0.62565(14) -0.0107(3) 1.13153(17)
Mn1 Mn 0.444608(19) 0.05912(4) 0.79710(2)
Mn2 Mn 0.72784(2) -0.33910(4) 1.09923(3)
N1 N 0.44669(11) 0.2540(3) 0.79657(15)
N2 N 0.44823(12) 0.8661(3) 0.79020(15)
N3 N 0.64311(13) -0.4058(3) 1.08921(18)
O1 O 0.60836(10) 0.0715(2) 0.81707(12)
O2 O 0.53377(10) 0.0565(2) 0.84400(14)
O3 O 0.75365(11) 0.0253(2) 0.91739(15)
O4 O 0.69464(10) -0.0999(2) 0.92789(13)
O5 O 0.70519(12) -0.1621(2) 1.10403(15)
O6 O 0.78530(11) -0.0787(3) 1.11209(14)
O7 O 0.57559(10) -0.0513(2) 1.10832(13)
O8 O 0.65754(11) -0.0077(2) 1.19920(13)
O9 O 0.77008(13) -0.3401(3) 1.21672(14)
H21 H 0.7530 -0.2982 1.2340
O10 O 0.68123(12) -0.3102(3) 0.98013(14)
H22 H 0.6959 -0.3477 0.9576
H23 H 0.7895(19) -0.389(3) 1.248(2)
H24 H 0.684(2) -0.2394(16) 0.971(3)
C1_2 C 0.49418(16) -0.6849(3) 0.8306(2)
H1_2 H 0.5279 -0.7248 0.8557
C2_2 C 0.49608(15) -0.5667(3) 0.8307(2)
H2_2 H 0.5304 -0.5288 0.8557
C3_2 C 0.44703(15) -0.5037(3) 0.79357(18)
C4_2 C 0.39705(16) -0.5675(3) 0.7576(2)
H3_2 H 0.3627 -0.5299 0.7318
C5_2 C 0.39926(16) -0.6854(3) 0.7607(2)
H4_2 H 0.3656 -0.7260 0.7363
C6_2 C 0.44704(14) -0.3762(3) 0.79163(18)
C7_2 C 0.49337(16) -0.3129(3) 0.8407(2)
H5_2 H 0.5250 -0.3508 0.8748
C8_2 C 0.49169(16) -0.1959(3) 0.8381(2)
H6_2 H 0.5227 -0.1559 0.8718
C9_2 C 0.40476(15) -0.1949(3) 0.7421(2)
H7_2 H 0.3746 -0.1545 0.7070
C10_2 C 0.40186(15) -0.3125(3) 0.7412(2)
H8_2 H 0.3700 -0.3500 0.7071
C11D C 0.37007(18) -0.4816(4) 0.9186(3)
H9D H 0.3408 -0.4279 0.9002
C12D C 0.42526(18) -0.4417(4) 0.9529(3)
H10D H 0.4325 -0.3628 0.9572
C13D C 0.46985(16) -0.5196(4) 0.9808(2)
C14D C 0.45524(16) -0.6354(4) 0.9694(2)
H11D H 0.4836 -0.6912 0.9849
C15D C 0.40005(17) -0.6687(4) 0.9359(2)
H12D H 0.3920 -0.7473 0.9303
C16D C 0.41396(13) -0.0698(3) 1.13770(17)
C17D C 0.37638(12) -0.0909(3) 1.05632(16)
H13D H 0.3872 -0.1676 1.0457
C18D C 0.31288(13) -0.1008(3) 1.03956(17)
H14D H 0.3089 -0.1698 1.0656
C19D C 0.27843(14) -0.1244(3) 0.95604(18)
H15D H 0.2384 -0.1175 0.9451
H16D H 0.2852 -0.2035 0.9459
C20D C 0.29171(14) -0.0445(3) 0.90300(17)
H17D H 0.2738 -0.0801 0.8540
C21D C 0.35554(13) -0.0463(3) 0.92360(17)
H18D H 0.3649 -0.1282 0.9228
C22D C 0.38912(13) -0.0084(3) 1.00420(17)
H19D H 0.4294 -0.0092 1.0159
H20D H 0.3785 0.0698 1.0108
C23D C 0.28799(14) -0.0012(3) 1.06672(17)
C24D C 0.26527(14) 0.0749(3) 0.89569(17)
C25D C 0.37435(14) 0.0107(3) 0.86847(17)
Mn1_2 Mn 0.444608(19) -0.94088(4) 0.79710(2)
Mn1_3 Mn 0.444608(19) 1.05912(4) 0.79710(2)
Mn1A Mn 0.555392(19) 0.05912(4) 0.70290(2)
Mn1D Mn 0.555392(19) -0.05912(4) 1.20290(2)
Mn1E Mn 0.444608(19) -0.05912(4) 1.29710(2)
Mn2D Mn 0.27216(2) 0.33910(4) 0.90077(3)
Mn2F Mn 0.77216(2) -0.16090(4) 0.90077(3)
Mn2D_2 Mn 0.27216(2) -0.66090(4) 0.90077(3)
Mn2B Mn 0.22784(2) 0.16090(4) 1.09923(3)
N1_2 N 0.44669(11) -0.7460(3) 0.79657(15)
N2_2 N 0.44823(12) -0.1339(3) 0.79020(15)
N2_3 N 0.44823(12) -1.1339(3) 0.79020(15)
N3D N 0.35689(13) -0.5942(3) 0.91079(18)
N3D_2 N 0.35689(13) 0.4058(3) 0.91079(18)
O1D O 0.39164(10) -0.0715(2) 1.18293(12)
O1A O 0.39164(10) 0.0715(2) 0.68293(12)
O1A_2 O 0.39164(10) -0.9285(2) 0.68293(12)
O2D O 0.46623(10) -0.0565(2) 1.15600(14)
O2_2 O 0.53377(10) -0.9435(2) 0.84400(14)
O3D O 0.24635(11) -0.0253(2) 1.08261(15)
O3F O 0.74635(11) -0.5253(2) 1.08261(15)
O3B O 0.25365(11) 0.5253(2) 0.91739(15)
O4D O 0.30536(10) 0.0999(2) 1.07211(13)
O4F O 0.80536(10) -0.4001(2) 1.07211(13)
O4B O 0.19464(10) 0.4001(2) 0.92789(13)
O5D O 0.29481(12) 0.1621(2) 0.89597(15)
O6D O 0.21470(11) 0.0787(3) 0.88791(14)
O7D O 0.42441(10) 0.0513(2) 0.89168(13)
O7D_2 O 0.42441(10) -0.9487(2) 0.89168(13)
O8D O 0.34246(11) 0.0077(2) 0.80080(13)
O9D O 0.22992(13) 0.3401(3) 0.78328(14)
H21D H 0.2470 0.2982 0.7660
O10D O 0.31877(12) 0.3102(3) 1.01987(14)
H22D H 0.3041 0.3477 1.0424
H23D H 0.2105(19) 0.389(3) 0.752(2)
H24D H 0.316(2) 0.2394(16) 1.029(3)
O11 O 0.23578(16) 0.3261(3) 0.29037(19)
H25 H 0.2363(17) 0.364(3) 0.3276(14)
H26 H 0.2110(16) 0.362(3) 0.2541(14)
O12 O 0.5159(6) 0.8626(13) 0.5155(9)
O13 O 0.1362(3) 0.0830(8) 0.4278(4)
loop_
_geom_bond_atom_site_label_1
_geom_bond_atom_site_label_2
_geom_bond_site_symmetry_1
_geom_bond_site_symmetry_2
C1 H1 1_555 1_555
C2 C1 1_555 1_555
H2 C2 1_555 1_555
C3 C2 1_555 1_555
C4 C3 1_555 1_555
H3 C4 1_555 1_555
C5 C4 1_555 1_555
H4 C5 1_555 1_555
C6 C3 1_555 1_555
C7 C6 1_555 1_555
H5 C7 1_555 1_555
C8 C7 1_555 1_555
H6 C8 1_555 1_555
C9 H7 1_555 1_555
C10 C6 1_555 1_555
H8 C10 1_555 1_555
C11 H9 1_555 1_555
C12 C11 1_555 1_555
H10 C12 1_555 1_555
C13 C12 1_555 1_555
C14 C13 1_555 1_555
H11 C14 1_555 1_555
C15 C14 1_555 1_555
H12 C15 1_555 1_555
C16 C17 1_555 1_555
C17 H13 1_555 1_555
C18 C17 1_555 1_555
H14 C18 1_555 1_555
C19 C18 1_555 1_555
H15 C19 1_555 1_555
H16 C19 1_555 1_555
C20 C19 1_555 1_555
H17 C20 1_555 1_555
C21 C20 1_555 1_555
H18 C21 1_555 1_555
C22 C17 1_555 1_555
H19 C22 1_555 1_555
H20 C22 1_555 1_555
C23 C18 1_555 1_555
C24 C20 1_555 1_555
C25 C21 1_555 1_555
Mn1 N1 1_555 1_555
Mn2 N3 1_555 1_555
N1 C1 1_555 1_555
N2 C8 1_555 1_555
N3 C11 1_555 1_555
O1 C16 1_555 1_555
O2 C16 1_555 1_555
O3 C23 1_555 1_555
O4 C23 1_555 1_555
O5 C24 1_555 1_555
O6 C24 1_555 1_555
O7 C25 1_555 1_555
O8 C25 1_555 1_555
O9 Mn2 1_555 1_555
H21 O9 1_555 1_555
O10 Mn2 1_555 1_555
H22 O10 1_555 1_555
O11 H25 1_555 1_555
H23 O9 1_555 1_555
H24 O10 1_555 1_555
H26 O11 1_555 1_555
C1_2 H1_2 1_555 1_555
C2_2 C1_2 1_555 1_555
H2_2 C2_2 1_555 1_555
C3_2 C2_2 1_555 1_555
C4_2 C3_2 1_555 1_555
H3_2 C4_2 1_555 1_555
C5_2 C4_2 1_555 1_555
H4_2 C5_2 1_555 1_555
C6_2 C3_2 1_555 1_555
C7_2 C6_2 1_555 1_555
H5_2 C7_2 1_555 1_555
C8_2 C7_2 1_555 1_555
H6_2 C8_2 1_555 1_555
C9_2 H7_2 1_555 1_555
C10_2 C6_2 1_555 1_555
H8_2 C10_2 1_555 1_555
C11D H9D 1_555 1_555
C12D C11D 1_555 1_555
H10D C12D 1_555 1_555
C13D C13 1_555 1_555
C14D C13D 1_555 1_555
H11D C14D 1_555 1_555
C15D C14D 1_555 1_555
H12D C15D 1_555 1_555
C16D C17D 1_555 1_555
C17D H13D 1_555 1_555
C18D C17D 1_555 1_555
H14D C18D 1_555 1_555
C19D C18D 1_555 1_555
H15D C19D 1_555 1_555
H16D C19D 1_555 1_555
C20D C19D 1_555 1_555
H17D C20D 1_555 1_555
C21D C20D 1_555 1_555
H18D C21D 1_555 1_555
C22D C17D 1_555 1_555
H19D C22D 1_555 1_555
H20D C22D 1_555 1_555
C23D C18D 1_555 1_555
C24D C20D 1_555 1_555
C25D C21D 1_555 1_555
Mn1_2 N1_2 1_555 1_555
Mn1_3 N2 1_555 1_555
Mn1A O1 1_555 1_555
Mn1D O7 1_555 1_555
Mn1E O1D 1_555 1_555
Mn2D N3D_2 1_555 1_555
Mn2F O3 1_555 1_555
Mn2D_2 N3D 1_555 1_555
Mn2B O3D 1_555 1_555
N1_2 C1_2 1_555 1_555
N2_2 Mn1 1_555 1_555
N2_3 Mn1_2 1_555 1_555
N3D C11D 1_555 1_555
O1D C16D 1_555 1_555
O1A Mn1 1_555 1_555
O1A_2 Mn1_2 1_555 1_555
O2D C16D 1_555 1_555
O2_2 Mn1_2 1_555 1_555
O3D C23D 1_555 1_555
O3F Mn2 1_555 1_555
O3B Mn2D 1_555 1_555
O4D C23D 1_555 1_555
O4F Mn2 1_555 1_555
O4B Mn2D 1_555 1_555
O5D C24D 1_555 1_555
O6D C24D 1_555 1_555
O7D Mn1 1_555 1_555
O7D_2 Mn1_2 1_555 1_555
O8D C25D 1_555 1_555
O9D Mn2D 1_555 1_555
H21D O9D 1_555 1_555
O10D Mn2D 1_555 1_555
H22D O10D 1_555 1_555
H23D O9D 1_555 1_555
H24D O10D 1_555 1_555
C5 N1 1_555 1_555
C9 C10 1_555 1_555
C9 N2 1_555 1_555
C15 N3 1_555 1_555
C21 C22 1_555 1_555
Mn1 O2 1_555 1_555
Mn2 O5 1_555 1_555
O4 Mn2F 1_555 1_555
C5_2 N1_2 1_555 1_555
C8_2 N2_2 1_555 1_555
C9_2 C10_2 1_555 1_555
C9_2 N2_2 1_555 1_555
C12D C13D 1_555 1_555
C15D N3D 1_555 1_555
C21D C22D 1_555 1_555
C25D O7D 1_555 1_555
Mn1D O2D 1_555 1_555
Mn2D O5D 1_555 1_555
Mn2B O4D 1_555 1_555

#END
