
#######################################################################
#
#                 Cambridge Crystallographic Data Centre
#                                CCDC 
#
#######################################################################
#
# If this CIF has been generated from an entry in the Cambridge 
# Structural Database, then it will include bibliographic, chemical, 
# crystal, experimental, refinement or atomic coordinate data resulting 
# from the CCDC's data processing and validation procedures.
#
#######################################################################

data_UYOGEV
_symmetry_cell_setting           triclinic
_symmetry_space_group_name_H-M   'P -1'
_symmetry_Int_Tables_number      2
_space_group_name_Hall           '-P 1'
loop_
_symmetry_equiv_pos_site_id
_symmetry_equiv_pos_as_xyz
1 x,y,z
2 -x,-y,-z
_cell_length_a                   7.2085(14)
_cell_length_b                   8.3093(17)
_cell_length_c                   16.711(3)
_cell_angle_alpha                99.92(3)
_cell_angle_beta                 98.13(3)
_cell_angle_gamma                97.58(3)
_cell_volume                     963.459
loop_
_atom_site_label
_atom_site_type_symbol
_atom_site_fract_x
_atom_site_fract_y
_atom_site_fract_z
Pb1 Pb 0.31114(6) -0.40882(5) 0.28300(2)
O1 O 0.0338(11) -0.3038(8) 0.3166(5)
O2 O 0.2626(11) -0.0873(9) 0.3696(5)
N1 N 0.7444(17) -0.3255(15) 0.0242(7)
C1 C 0.4272(16) 0.7614(14) 0.5302(8)
H1 H 0.4913 0.8513 0.5137
C2 C 0.2486(14) 0.5040(11) 0.5022(6)
C3 C -0.0601(16) -0.0459(12) 0.3598(7)
H2 H -0.1512 -0.0695 0.3090
H3 H -0.1263 -0.0745 0.4033
C4 C 0.1604(15) 0.3605(13) 0.4403(6)
C5 C 0.4977(16) -0.2706(13) 0.1010(7)
C6 C 0.4210(16) 0.7663(14) 0.6126(8)
H4 H 0.4848 0.8601 0.6499
C7 C 0.2447(16) 0.5145(14) 0.5843(6)
H5 H 0.1791 0.4253 0.6010
C8 C 0.7883(17) -0.4234(15) 0.0777(8)
H6 H 0.8898 -0.4801 0.0712
C9 C 0.5957(17) -0.2463(15) 0.0370(7)
H7 H 0.5587 -0.1750 0.0027
C10 C 0.3368(16) -0.1801(13) 0.1180(7)
N2 N 0.3296(15) 0.6455(13) 0.6425(6)
N3 N 0.0576(14) 0.2075(10) 0.3198(5)
N4 N 0.3417(13) 0.6280(10) 0.4739(5)
N5 N 0.0167(12) 0.1292(10) 0.3794(6)
N6 N 0.5438(14) -0.3666(11) 0.1541(6)
N7 N 0.1152(13) -0.1007(11) 0.1782(6)
N8 N 0.0786(13) 0.2142(10) 0.4543(5)
N9 N 0.2345(14) -0.2101(11) 0.1753(6)
N10 N 0.1459(13) 0.3564(11) 0.3580(5)
C11 C 0.0965(16) -0.1518(13) 0.3500(6)
N11 N 0.2842(13) -0.0611(11) 0.0796(5)
C12 C 0.6924(18) -0.4449(16) 0.1413(8)
H8 H 0.7306 -0.5146 0.1762
N12 N 0.1466(12) -0.0182(10) 0.1191(5)
C13 C 0.0579(14) 0.1301(13) 0.1115(7)
H9 H -0.0672 0.1152 0.1268
H10 H 0.0429 0.1442 0.0546
C14 C 0.1767(17) 0.2814(13) 0.1656(7)
O3 O 0.3419(12) 0.2794(10) 0.1983(5)
O4 O 0.0936(8) 0.4070(7) 0.1777(4)
Pb1_2 Pb 0.31114(6) 0.59118(5) 0.28300(2)
N4_2 N 0.3417(13) -0.3720(10) 0.4739(5)
N10_2 N 0.1459(13) -0.6436(11) 0.3580(5)
O3_2 O 0.3419(12) -0.7206(10) 0.1983(5)
O4_2 O 0.0936(8) -0.5930(7) 0.1777(4)
O5 O 0.6662(8) -0.8788(7) 0.1923(4)
H11 H 0.7610 -0.8423 0.2303
H12 H 0.5845 -0.8144 0.1985
loop_
_geom_bond_atom_site_label_1
_geom_bond_atom_site_label_2
_geom_bond_site_symmetry_1
_geom_bond_site_symmetry_2
Pb1 O1 1_555 1_555
O1 C11 1_555 1_555
O2 Pb1 1_555 1_555
N1 C8 1_555 1_555
C1 H1 1_555 1_555
C2 C4 1_555 1_555
C3 H2 1_555 1_555
H3 C3 1_555 1_555
C4 N8 1_555 1_555
C5 C9 1_555 1_555
C6 C1 1_555 1_555
H4 C6 1_555 1_555
C7 C2 1_555 1_555
H5 C7 1_555 1_555
C8 H6 1_555 1_555
C9 N1 1_555 1_555
H7 C9 1_555 1_555
C10 C5 1_555 1_555
N2 C6 1_555 1_555
N3 N5 1_555 1_555
N4 C1 1_555 1_555
N5 C3 1_555 1_555
N6 Pb1 1_555 1_555
N7 N9 1_555 1_555
N8 N5 1_555 1_555
N9 Pb1 1_555 1_555
N10 C4 1_555 1_555
C11 O2 1_555 1_555
N11 C10 1_555 1_555
C12 C8 1_555 1_555
H8 C12 1_555 1_555
N12 N7 1_555 1_555
C13 N12 1_555 1_555
H9 C13 1_555 1_555
H10 C13 1_555 1_555
C14 C13 1_555 1_555
O3 C14 1_555 1_555
O4 C14 1_555 1_555
O5 H11 1_555 1_555
H12 O5 1_555 1_555
Pb1_2 N4 1_555 1_555
N4_2 Pb1 1_555 1_555
N10_2 Pb1 1_555 1_555
O3_2 Pb1 1_555 1_555
O4_2 Pb1 1_555 1_555
C2 N4 1_555 1_555
C3 C11 1_555 1_555
C5 N6 1_555 1_555
C7 N2 1_555 1_555
C10 N9 1_555 1_555
N3 N10 1_555 1_555
N6 C12 1_555 1_555
N10 Pb1_2 1_555 1_555
N11 N12 1_555 1_555
O3 Pb1_2 1_555 1_555
O4 Pb1_2 1_555 1_555

#END
