
#######################################################################
#
#                 Cambridge Crystallographic Data Centre
#                                CCDC 
#
#######################################################################
#
# If this CIF has been generated from an entry in the Cambridge 
# Structural Database, then it will include bibliographic, chemical, 
# crystal, experimental, refinement or atomic coordinate data resulting 
# from the CCDC's data processing and validation procedures.
#
#######################################################################

data_UYOGAR
_symmetry_cell_setting           orthorhombic
_symmetry_space_group_name_H-M   'P b c n'
_symmetry_Int_Tables_number      60
_space_group_name_Hall           '-P 2n 2ab'
loop_
_symmetry_equiv_pos_site_id
_symmetry_equiv_pos_as_xyz
1 x,y,z
2 1/2-x,1/2-y,1/2+z
3 -x,y,1/2-z
4 1/2+x,1/2-y,-z
5 -x,-y,-z
6 1/2+x,1/2+y,1/2-z
7 x,-y,1/2+z
8 1/2-x,1/2+y,z
_cell_length_a                   14.769(3)
_cell_length_b                   18.847(4)
_cell_length_c                   6.8941(14)
_cell_angle_alpha                90
_cell_angle_beta                 90
_cell_angle_gamma                90
_cell_volume                     1918.98
loop_
_atom_site_label
_atom_site_type_symbol
_atom_site_fract_x
_atom_site_fract_y
_atom_site_fract_z
Ca1 Ca 0.5000 0.43975(2) 0.2500
N1 N 0.88116(10) 0.41739(8) 0.5626(2)
N2 N 0.80061(10) 0.39829(8) 0.6287(2)
O1 O 0.58501(9) 0.48093(7) 0.5658(2)
C1 C 0.64950(12) 0.44106(8) 0.5310(3)
N3 N 1.04284(11) 0.28057(8) 0.4547(2)
N4 N 0.86985(10) 0.30161(8) 0.6093(2)
C2 C 0.92270(12) 0.35551(9) 0.5516(2)
C3 C 1.01577(11) 0.34669(9) 0.4873(2)
C4 C 1.07278(13) 0.40318(10) 0.4635(3)
H1 H 1.0514 0.4486 0.4904
C5 C 0.72803(12) 0.44632(9) 0.6715(3)
H2 H 0.7513 0.4945 0.6696
H3 H 0.7061 0.4368 0.8015
N5 N 0.79293(7) 0.33014(6) 0.65947(18)
O2 O 0.55393(7) 0.34844(6) 0.04004(18)
H4 H 0.5180 0.3149 0.0105
H5 H 0.6069 0.3336 0.0665
N6 N 1.15750(11) 0.39537(10) 0.4035(2)
C6 C 1.12704(15) 0.27328(11) 0.3945(3)
H6 H 1.1488 0.2279 0.3691
C7 C 1.18332(14) 0.32958(11) 0.3680(3)
H7 H 1.2419 0.3215 0.3236
O3 O 0.65210(9) 0.40029(8) 0.3919(2)
Ca1D Ca 0.5000 0.56025(2) -0.2500
Ca1D_2 Ca 0.5000 0.56025(2) 0.7500
N1B N 0.11884(10) 0.41739(8) -0.0626(2)
N2B N 0.19939(10) 0.39829(8) -0.1287(2)
O1B O 0.41499(9) 0.48093(7) -0.0658(2)
O1D O 0.41499(9) 0.51907(7) 0.4342(2)
O1F O 0.58501(9) 0.51907(7) 0.0658(2)
C1B C 0.35050(12) 0.44106(8) -0.0310(3)
N3B N -0.04284(11) 0.28057(8) 0.0453(2)
N4B N 0.13015(10) 0.30161(8) -0.1093(2)
C2B C 0.07730(12) 0.35551(9) -0.0516(2)
C3B C -0.01577(11) 0.34669(9) 0.0127(2)
C4B C -0.07278(13) 0.40318(10) 0.0365(3)
H1B H -0.0514 0.4486 0.0096
C5B C 0.27197(12) 0.44632(9) -0.1715(3)
H2B H 0.2487 0.4945 -0.1696
H3B H 0.2939 0.4368 -0.3015
N5B N 0.20707(7) 0.33014(6) -0.15947(18)
O2B O 0.44607(7) 0.34844(6) 0.45996(18)
H4B H 0.4820 0.3149 0.4895
H5B H 0.3931 0.3336 0.4335
N6B N -0.15750(11) 0.39537(10) 0.0965(2)
C6B C -0.12704(15) 0.27328(11) 0.1055(3)
H6B H -0.1488 0.2279 0.1309
C7B C -0.18332(14) 0.32958(11) 0.1320(3)
H7B H -0.2419 0.3215 0.1764
O3B O 0.34790(9) 0.40029(8) 0.1081(2)
loop_
_geom_bond_atom_site_label_1
_geom_bond_atom_site_label_2
_geom_bond_site_symmetry_1
_geom_bond_site_symmetry_2
Ca1 O1 1_555 1_555
N1 N2 1_555 1_555
N2 C5 1_555 1_555
O1 C1 1_555 1_555
C1 C5 1_555 1_555
N3 C3 1_555 1_555
N4 C2 1_555 1_555
C2 N1 1_555 1_555
C3 C2 1_555 1_555
C4 C3 1_555 1_555
H1 C4 1_555 1_555
C5 H2 1_555 1_555
H3 C5 1_555 1_555
N5 N2 1_555 1_555
O2 Ca1 1_555 1_555
H4 O2 1_555 1_555
H5 O2 1_555 1_555
N6 C4 1_555 1_555
C6 N3 1_555 1_555
H6 C6 1_555 1_555
C7 N6 1_555 1_555
H7 C7 1_555 1_555
O3 Ca1 1_555 1_555
Ca1D O1B 1_555 1_555
Ca1D_2 O1 1_555 1_555
N1B N2B 1_555 1_555
N2B C5B 1_555 1_555
O1B Ca1 1_555 1_555
O1D Ca1 1_555 1_555
O1F Ca1 1_555 1_555
C1B O1B 1_555 1_555
N3B C3B 1_555 1_555
N4B C2B 1_555 1_555
C2B N1B 1_555 1_555
C3B C2B 1_555 1_555
C4B C3B 1_555 1_555
H1B C4B 1_555 1_555
C5B C1B 1_555 1_555
H2B C5B 1_555 1_555
H3B C5B 1_555 1_555
N5B N2B 1_555 1_555
O2B Ca1 1_555 1_555
H4B O2B 1_555 1_555
H5B O2B 1_555 1_555
N6B C4B 1_555 1_555
C6B N3B 1_555 1_555
H6B C6B 1_555 1_555
C7B N6B 1_555 1_555
H7B C7B 1_555 1_555
O3B Ca1 1_555 1_555
C1 O3 1_555 1_555
N4 N5 1_555 1_555
C6 C7 1_555 1_555
Ca1D O1F 1_555 1_555
Ca1D_2 O1D 1_555 1_555
C1B O3B 1_555 1_555
N4B N5B 1_555 1_555
C6B C7B 1_555 1_555

#END
