
#######################################################################
#
#                 Cambridge Crystallographic Data Centre
#                                CCDC 
#
#######################################################################
#
# If this CIF has been generated from an entry in the Cambridge 
# Structural Database, then it will include bibliographic, chemical, 
# crystal, experimental, refinement or atomic coordinate data resulting 
# from the CCDC's data processing and validation procedures.
#
#######################################################################

data_UYOHOG
_symmetry_cell_setting           triclinic
_symmetry_space_group_name_H-M   'P -1'
_symmetry_Int_Tables_number      2
_space_group_name_Hall           '-P 1'
loop_
_symmetry_equiv_pos_site_id
_symmetry_equiv_pos_as_xyz
1 x,y,z
2 -x,-y,-z
_cell_length_a                   12.3701(15)
_cell_length_b                   12.4007(15)
_cell_length_c                   13.0916(16)
_cell_angle_alpha                108.230(2)
_cell_angle_beta                 98.100(2)
_cell_angle_gamma                117.600(2)
_cell_volume                     1589.92
loop_
_atom_site_label
_atom_site_type_symbol
_atom_site_fract_x
_atom_site_fract_y
_atom_site_fract_z
Mn1 Mn 0.95887(5) 1.04163(6) 0.39684(5)
Mn2 Mn 0.84280(5) 0.89641(6) 0.13378(5)
N1 N 0.7206(3) 0.7321(3) -0.0280(3)
N2 N 0.6516(3) 0.5730(4) -0.1995(3)
O1 O 0.8462(3) 0.7953(3) 0.2435(2)
O2 O 0.9335(2) 0.8604(3) 0.4272(2)
O3 O 0.0230(3) -0.0725(3) 0.1358(3)
O4 O 0.1046(3) 0.0467(3) 0.3239(3)
O5 O 0.7604(2) 0.9677(3) 0.3800(2)
O6 O 0.6928(3) 0.8962(3) 0.1903(2)
O7 O -0.0856(3) 0.0970(3) 0.1589(3)
O8 O -0.0344(3) 0.1901(3) 0.3481(2)
C1 C 0.8684(3) 0.7676(4) 0.3246(3)
C2 C 0.8146(3) 0.6237(4) 0.3000(3)
C3 C 0.8054(4) 0.5812(4) 0.3861(3)
H1 H 0.8373 0.6442 0.4617
C4 C 0.7493(4) 0.4459(4) 0.3611(4)
H2 H 0.7419 0.4190 0.4199
C5 C 0.7044(3) 0.3506(4) 0.2506(4)
C6 C 0.7164(4) 0.3937(4) 0.1657(4)
H3 H 0.6885 0.3310 0.0908
C7 C 0.7689(4) 0.5278(4) 0.1888(4)
H4 H 0.7734 0.5538 0.1293
C8 C 0.1159(4) 0.0011(4) 0.2277(4)
C9 C 0.2491(3) 0.0432(4) 0.2251(3)
C10 C 0.3508(4) 0.0970(4) 0.3228(4)
H5 H 0.3351 0.1019 0.3910
C11 C 0.4756(4) 0.1439(4) 0.3211(4)
H6 H 0.5426 0.1792 0.3881
C12 C 0.5024(4) 0.1388(4) 0.2203(4)
C13 C 0.4006(4) 0.0830(4) 0.1243(4)
H7 H 0.4164 0.0777 0.0561
C14 C 0.2747(4) 0.0337(4) 0.1237(4)
H8 H 0.2075 -0.0057 0.0557
C15 C 0.6412(4) 0.2011(4) 0.2237(4)
H9 H 0.6438 0.1536 0.1505
H10 H 0.6899 0.1918 0.2816
C16 C 0.6744(4) 0.9147(4) 0.2850(4)
C17 C 0.5371(3) 0.8680(4) 0.2800(3)
C18 C 0.5019(4) 0.8762(4) 0.3772(4)
H11 H 0.5641 0.9123 0.4476
C19 C 0.3756(4) 0.8310(4) 0.3691(4)
H12 H 0.3538 0.8362 0.4349
C20 C 0.2799(4) 0.7784(4) 0.2683(4)
C21 C 0.3156(4) 0.7709(4) 0.1712(4)
H13 H 0.2533 0.7351 0.1010
C22 C 0.4411(4) 0.8153(4) 0.1781(3)
H14 H 0.4627 0.8101 0.1122
C23 C -0.0473(4) 0.1945(4) 0.2522(4)
C24 C -0.0108(3) 0.3272(4) 0.2516(4)
C25 C 0.0311(4) 0.4383(4) 0.3520(4)
H15 H 0.0306 0.4285 0.4195
C26 C 0.0733(4) 0.5629(4) 0.3541(4)
H16 H 0.0983 0.6353 0.4224
C27 C 0.0794(4) 0.5826(4) 0.2559(4)
C28 C 0.0362(4) 0.4706(4) 0.1551(4)
H17 H 0.0384 0.4808 0.0879
C29 C -0.0098(4) 0.3445(4) 0.1520(4)
H18 H -0.0404 0.2708 0.0829
C30 C 0.1396(4) 0.7221(4) 0.2599(4)
H19 H 0.0922 0.7176 0.1914
H20 H 0.1345 0.7810 0.3254
C31 C 0.7501(4) 0.6911(4) -0.1191(4)
H21 H 0.8305 0.7393 -0.1262
C32 C 0.5956(4) 0.6346(5) -0.0531(4)
H22 H 0.5473 0.6357 -0.0048
C33 C 0.5521(5) 0.5363(6) -0.1581(5)
H23 H 0.4697 0.4581 -0.1952
C34 C 0.6510(5) 0.4964(5) -0.3099(4)
H24 H 0.6151 0.4037 -0.3215
H25 H 0.7396 0.5334 -0.3092
C35 C 0.4448(5) 0.3957(5) -0.4698(4)
H26 H 0.4059 0.3244 -0.4499
C36 C 0.5723(4) 0.4984(5) -0.4096(4)
C37 C 0.6258(4) 0.6017(5) -0.4400(4)
H27 H 0.7117 0.6722 -0.3993
Mn1A Mn 1.04113(5) 0.95837(6) 0.60316(5)
Mn1_2 Mn -0.04113(5) 0.04163(6) 0.39684(5)
Mn1A_2 Mn 2.04113(5) 1.95837(6) 0.60316(5)
Mn1_3 Mn 1.95887(5) 2.04163(6) 0.39684(5)
Mn2A Mn 1.15720(5) 1.10359(6) 0.86622(5)
Mn2_2 Mn -0.15720(5) -0.10359(6) 0.13378(5)
Mn2A_2 Mn 0.15720(5) 0.10359(6) -1.13378(5)
Mn2A_3 Mn 2.15720(5) 2.10359(6) 0.86622(5)
Mn2_3 Mn 1.84280(5) 1.89641(6) 0.13378(5)
N1A N 0.2794(3) 0.2679(3) -0.9720(3)
N1A_2 N 1.2794(3) 1.2679(3) 1.0280(3)
N2A N 0.3484(3) 0.4270(4) -0.8005(3)
O1A O 1.1538(3) 1.2047(3) 0.7565(2)
O2A O 1.0665(2) 1.1396(3) 0.5728(2)
O3A O 1.9770(3) 2.0725(3) 0.8642(3)
O3_2 O 1.0230(3) 0.9275(3) 0.1358(3)
O3A_2 O 0.9770(3) 1.0725(3) 0.8642(3)
O4A O 1.8954(3) 1.9533(3) 0.6761(3)
O4_2 O 1.1046(3) 1.0467(3) 0.3239(3)
O4A_2 O 0.8954(3) 0.9533(3) 0.6761(3)
O5_2 O 1.7604(2) 1.9677(3) 0.3800(2)
O5A O 1.2396(2) 1.0323(3) 0.6200(2)
O6_2 O 1.6928(3) 1.8962(3) 0.1903(2)
O6A O 1.3072(3) 1.1038(3) 0.8097(2)
O7_2 O 0.9144(3) 1.0970(3) 0.1589(3)
O7A O 1.0856(3) 0.9030(3) 0.8411(3)
O8_2 O 0.9656(3) 1.1901(3) 0.3481(2)
O8A O 1.0344(3) 0.8099(3) 0.6519(2)
C1A C 1.1316(3) 1.2324(4) 0.6754(3)
C2A C 1.1854(3) 1.3763(4) 0.7000(3)
C3A C 1.1946(4) 1.4188(4) 0.6139(3)
H1A H 1.1627 1.3558 0.5383
C4A C 1.2507(4) 1.5541(4) 0.6389(4)
H2A H 1.2581 1.5810 0.5801
C5A C 1.2956(3) 1.6494(4) 0.7494(4)
C6A C 1.2836(4) 1.6063(4) 0.8343(4)
H3A H 1.3115 1.6690 0.9092
C7A C 1.2311(4) 1.4722(4) 0.8112(4)
H4A H 1.2266 1.4462 0.8707
C8A C 1.8841(4) 1.9989(4) 0.7723(4)
C9A C 1.7509(3) 1.9568(4) 0.7749(3)
C10A C 1.6492(4) 1.9030(4) 0.6772(4)
H5A H 1.6649 1.8981 0.6090
C11A C 1.5244(4) 1.8561(4) 0.6789(4)
H6A H 1.4574 1.8208 0.6119
C12A C 1.4976(4) 1.8612(4) 0.7797(4)
C13A C 1.5994(4) 1.9170(4) 0.8757(4)
H7A H 1.5836 1.9223 0.9439
C14A C 1.7253(4) 1.9663(4) 0.8763(4)
H8A H 1.7925 2.0057 0.9443
C15A C 1.3588(4) 1.7989(4) 0.7763(4)
H9A H 1.3562 1.8464 0.8495
H10A H 1.3101 1.8082 0.7184
C16_2 C 1.6744(4) 1.9147(4) 0.2850(4)
C17_2 C 1.5371(3) 1.8680(4) 0.2800(3)
C18_2 C 1.5019(4) 1.8762(4) 0.3772(4)
H11_2 H 1.5641 1.9123 0.4476
C19_2 C 1.3756(4) 1.8310(4) 0.3691(4)
H12_2 H 1.3538 1.8362 0.4349
C20_2 C 1.2799(4) 1.7784(4) 0.2683(4)
C21_2 C 1.3156(4) 1.7709(4) 0.1712(4)
H13_2 H 1.2533 1.7351 0.1010
C22_2 C 1.4411(4) 1.8153(4) 0.1781(3)
H14_2 H 1.4627 1.8101 0.1122
C23_2 C 0.9527(4) 1.1945(4) 0.2522(4)
C24_2 C 0.9892(3) 1.3272(4) 0.2516(4)
C25_2 C 1.0311(4) 1.4383(4) 0.3520(4)
H15_2 H 1.0306 1.4285 0.4195
C26_2 C 1.0733(4) 1.5629(4) 0.3541(4)
H16_2 H 1.0983 1.6353 0.4224
C27_2 C 1.0794(4) 1.5826(4) 0.2559(4)
C28_2 C 1.0362(4) 1.4706(4) 0.1551(4)
H17_2 H 1.0384 1.4808 0.0879
C29_2 C 0.9902(4) 1.3445(4) 0.1520(4)
H18_2 H 0.9596 1.2708 0.0829
C30_2 C 1.1396(4) 1.7221(4) 0.2599(4)
H19_2 H 1.0922 1.7176 0.1914
H20_2 H 1.1345 1.7810 0.3254
C31A C 0.2499(4) 0.3089(4) -0.8809(4)
H21A H 0.1695 0.2607 -0.8738
C32A C 0.4044(4) 0.3654(5) -0.9469(4)
H22A H 0.4527 0.3643 -0.9952
C33A C 0.4479(5) 0.4637(6) -0.8419(5)
H23A H 0.5303 0.5419 -0.8048
C34A C 0.3490(5) 0.5036(5) -0.6901(4)
H24A H 0.3849 0.5963 -0.6785
H25A H 0.2604 0.4666 -0.6908
C35A C 0.5552(5) 0.6043(5) -0.5302(4)
H26A H 0.5941 0.6756 -0.5501
C36A C 0.4277(4) 0.5016(5) -0.5904(4)
C37A C 0.3742(4) 0.3983(5) -0.5600(4)
H27A H 0.2883 0.3278 -0.6007
loop_
_geom_bond_atom_site_label_1
_geom_bond_atom_site_label_2
_geom_bond_site_symmetry_1
_geom_bond_site_symmetry_2
Mn1 O2 1_555 1_555
Mn2 N1 1_555 1_555
N1 C31 1_555 1_555
N2 C31 1_555 1_555
O1 Mn2 1_555 1_555
O2 C1 1_555 1_555
O3 C8 1_555 1_555
O4 C8 1_555 1_555
O5 Mn1 1_555 1_555
O6 Mn2 1_555 1_555
O7 C23 1_555 1_555
O8 C23 1_555 1_555
C1 O1 1_555 1_555
C2 C1 1_555 1_555
C3 C2 1_555 1_555
H1 C3 1_555 1_555
C4 C3 1_555 1_555
H2 C4 1_555 1_555
C5 C4 1_555 1_555
C6 C5 1_555 1_555
H3 C6 1_555 1_555
C7 C2 1_555 1_555
H4 C7 1_555 1_555
C8 C9 1_555 1_555
C9 C10 1_555 1_555
C10 H5 1_555 1_555
C11 C10 1_555 1_555
H6 C11 1_555 1_555
C12 C11 1_555 1_555
C13 C12 1_555 1_555
H7 C13 1_555 1_555
C14 C9 1_555 1_555
H8 C14 1_555 1_555
C15 C5 1_555 1_555
H9 C15 1_555 1_555
H10 C15 1_555 1_555
C16 O5 1_555 1_555
C17 C16 1_555 1_555
C18 C17 1_555 1_555
H11 C18 1_555 1_555
C19 C18 1_555 1_555
H12 C19 1_555 1_555
C20 C19 1_555 1_555
C21 C20 1_555 1_555
H13 C21 1_555 1_555
C22 C17 1_555 1_555
H14 C22 1_555 1_555
C23 C24 1_555 1_555
C24 C25 1_555 1_555
C25 H15 1_555 1_555
C26 C25 1_555 1_555
H16 C26 1_555 1_555
C27 C26 1_555 1_555
C28 C27 1_555 1_555
H17 C28 1_555 1_555
C29 C24 1_555 1_555
H18 C29 1_555 1_555
C30 C20 1_555 1_555
H19 C30 1_555 1_555
H20 C30 1_555 1_555
C31 H21 1_555 1_555
C32 N1 1_555 1_555
H22 C32 1_555 1_555
C33 N2 1_555 1_555
H23 C33 1_555 1_555
C34 N2 1_555 1_555
H24 C34 1_555 1_555
H25 C34 1_555 1_555
C35 H26 1_555 1_555
C36 C34 1_555 1_555
C37 C36 1_555 1_555
H27 C37 1_555 1_555
Mn1A O2 1_555 1_555
Mn1_2 O4 1_555 1_555
Mn1A_2 O4A 1_555 1_555
Mn1_3 O5_2 1_555 1_555
Mn2A N1A_2 1_555 1_555
Mn2_2 O3 1_555 1_555
Mn2A_2 N1A 1_555 1_555
Mn2A_3 O3A 1_555 1_555
Mn2_3 O6_2 1_555 1_555
N1A C31A 1_555 1_555
N2A C31A 1_555 1_555
O1A Mn2A 1_555 1_555
O2A Mn1 1_555 1_555
O3A C8A 1_555 1_555
O3_2 Mn2 1_555 1_555
O3A_2 Mn2A 1_555 1_555
O4A C8A 1_555 1_555
O4_2 Mn1 1_555 1_555
O4A_2 Mn1A 1_555 1_555
O5_2 C16_2 1_555 1_555
O5A Mn1A 1_555 1_555
O6_2 C16_2 1_555 1_555
O6A Mn2A 1_555 1_555
O7_2 Mn2 1_555 1_555
O7A Mn2A 1_555 1_555
O8_2 Mn1 1_555 1_555
O8A Mn1A 1_555 1_555
C1A O1A 1_555 1_555
C2A C1A 1_555 1_555
C3A C2A 1_555 1_555
H1A C3A 1_555 1_555
C4A C3A 1_555 1_555
H2A C4A 1_555 1_555
C5A C4A 1_555 1_555
C6A C5A 1_555 1_555
H3A C6A 1_555 1_555
C7A C2A 1_555 1_555
H4A C7A 1_555 1_555
C8A C9A 1_555 1_555
C9A C10A 1_555 1_555
C10A H5A 1_555 1_555
C11A C10A 1_555 1_555
H6A C11A 1_555 1_555
C12A C11A 1_555 1_555
C13A C12A 1_555 1_555
H7A C13A 1_555 1_555
C14A C9A 1_555 1_555
H8A C14A 1_555 1_555
C15A C5A 1_555 1_555
H9A C15A 1_555 1_555
H10A C15A 1_555 1_555
C16_2 C17_2 1_555 1_555
C17_2 C18_2 1_555 1_555
C18_2 H11_2 1_555 1_555
C19_2 C18_2 1_555 1_555
H12_2 C19_2 1_555 1_555
C20_2 C19_2 1_555 1_555
C21_2 C20_2 1_555 1_555
H13_2 C21_2 1_555 1_555
C22_2 C17_2 1_555 1_555
H14_2 C22_2 1_555 1_555
C23_2 O7_2 1_555 1_555
C24_2 C23_2 1_555 1_555
C25_2 C24_2 1_555 1_555
H15_2 C25_2 1_555 1_555
C26_2 C25_2 1_555 1_555
H16_2 C26_2 1_555 1_555
C27_2 C26_2 1_555 1_555
C28_2 C27_2 1_555 1_555
H17_2 C28_2 1_555 1_555
C29_2 C24_2 1_555 1_555
H18_2 C29_2 1_555 1_555
C30_2 C20_2 1_555 1_555
H19_2 C30_2 1_555 1_555
H20_2 C30_2 1_555 1_555
C31A H21A 1_555 1_555
C32A N1A 1_555 1_555
H22A C32A 1_555 1_555
C33A N2A 1_555 1_555
H23A C33A 1_555 1_555
C34A N2A 1_555 1_555
H24A C34A 1_555 1_555
H25A C34A 1_555 1_555
C35A C37 1_555 1_555
H26A C35A 1_555 1_555
C36A C34A 1_555 1_555
C37A C35 1_555 1_555
H27A C37A 1_555 1_555
O6 C16 1_555 1_555
O7 Mn2_2 1_555 1_555
O8 Mn1_2 1_555 1_555
C6 C7 1_555 1_555
C12 C15 1_555 1_555
C13 C14 1_555 1_555
C21 C22 1_555 1_555
C27 C30 1_555 1_555
C28 C29 1_555 1_555
C32 C33 1_555 1_555
C35 C36 1_555 1_555
Mn1A O2A 1_555 1_555
O2A C1A 1_555 1_555
O8_2 C23_2 1_555 1_555
C6A C7A 1_555 1_555
C12A C15A 1_555 1_555
C13A C14A 1_555 1_555
C21_2 C22_2 1_555 1_555
C27_2 C30_2 1_555 1_555
C28_2 C29_2 1_555 1_555
C32A C33A 1_555 1_555
C35A C36A 1_555 1_555
C36A C37A 1_555 1_555

#END
