
#######################################################################
#
#                 Cambridge Crystallographic Data Centre
#                                CCDC 
#
#######################################################################
#
# If this CIF has been generated from an entry in the Cambridge 
# Structural Database, then it will include bibliographic, chemical, 
# crystal, experimental, refinement or atomic coordinate data resulting 
# from the CCDC's data processing and validation procedures.
#
#######################################################################

data_UYOHUM
_symmetry_cell_setting           triclinic
_symmetry_space_group_name_H-M   'P -1'
_symmetry_Int_Tables_number      2
_space_group_name_Hall           '-P 1'
loop_
_symmetry_equiv_pos_site_id
_symmetry_equiv_pos_as_xyz
1 x,y,z
2 -x,-y,-z
_cell_length_a                   8.9792(13)
_cell_length_b                   12.4503(17)
_cell_length_c                   14.096(2)
_cell_angle_alpha                84.466(2)
_cell_angle_beta                 81.596(2)
_cell_angle_gamma                74.138(2)
_cell_volume                     1496.92
loop_
_atom_site_label
_atom_site_type_symbol
_atom_site_fract_x
_atom_site_fract_y
_atom_site_fract_z
Cd1 Cd 0.5000 0.5000 0.0000
Cd2 Cd 1.65384(2) -0.434770(17) 0.452240(15)
Cd3 Cd 1.06431(2) 0.406180(17) 0.396450(15)
O1 O 0.6503(3) 0.6148(2) 0.0217(2)
H1 H 0.6344 0.6816 -0.0026
H2 H 0.7164 0.5952 0.0617
N1 N 1.0082(3) 0.2383(2) 0.36303(18)
N2 N 1.4969(3) -0.2953(2) 0.35736(19)
N3 N 1.2975(3) -0.0635(2) 0.06479(19)
N4 N 1.1949(3) 0.0226(2) 0.01902(19)
N5 N 1.1382(3) 0.03857(19) 0.17498(17)
N6 N 0.7171(3) 0.3546(2) 0.02597(19)
N7 N 0.2205(4) 0.4034(3) 0.2525(2)
N8 N 0.3106(3) 0.4459(2) 0.20743(18)
N9 N 0.4037(3) 0.4862(2) 0.1627(2)
N10 N 1.8591(5) -0.4449(5) 0.1648(3)
N11 N 1.8563(3) -0.4614(3) 0.2468(2)
N12 N 1.8560(3) -0.4792(2) 0.3306(2)
N13 N 1.7518(3) -0.3028(2) 0.5121(2)
N14 N 1.7274(3) -0.2032(2) 0.5052(2)
N15 N 1.7055(6) -0.1086(3) 0.4992(4)
N16 N 1.5379(3) -0.5714(2) 0.4202(2)
N17 N 1.5721(3) -0.6496(2) 0.3715(2)
N18 N 1.6032(5) -0.7254(3) 0.3264(3)
N19 N 1.8673(3) -0.5560(2) 0.53833(19)
N20 N 1.8758(3) -0.6333(2) 0.5985(2)
N21 N 1.8884(5) -0.7080(3) 0.6537(3)
C1 C 1.0790(3) 0.1876(2) 0.2832(2)
H8 H 1.1394 0.2232 0.2385
C2 C 0.9215(4) 0.1858(3) 0.4258(2)
H9 H 0.8700 0.2210 0.4811
C3 C 0.9048(4) 0.0815(3) 0.4123(2)
H10 H 0.8446 0.0472 0.4582
C4 C 0.9784(4) 0.0291(3) 0.3301(2)
H11 H 0.9696 -0.0412 0.3190
C5 C 1.0658(3) 0.0845(2) 0.2646(2)
C6 C 1.3611(4) -0.1057(2) 0.3188(2)
H12 H 1.3234 -0.0323 0.3370
C7 C 1.4377(4) -0.1887(3) 0.3803(2)
H13 H 1.4487 -0.1697 0.4407
C8 C 1.4780(4) -0.3210(3) 0.2714(2)
H14 H 1.5185 -0.3947 0.2547
C9 C 1.4018(4) -0.2442(3) 0.2058(2)
H15 H 1.3909 -0.2663 0.1466
C10 C 1.3414(3) -0.1337(2) 0.2290(2)
C11 C 1.2622(3) -0.0536(2) 0.1574(2)
C12 C 1.1011(4) 0.0828(2) 0.0857(2)
C13 C 0.9693(3) 0.1791(2) 0.0680(2)
C14 C 0.8262(4) 0.1918(3) 0.1214(2)
H16 H 0.8118 0.1413 0.1727
C15 C 0.7034(4) 0.2804(3) 0.0984(2)
H17 H 0.6068 0.2882 0.1354
C16 C 0.8571(4) 0.3428(3) -0.0250(3)
H18 H 0.8686 0.3948 -0.0756
C17 C 0.9851(4) 0.2577(3) -0.0063(3)
H19 H 1.0812 0.2530 -0.0431
Cd2A Cd -0.65384(2) 1.434770(17) -0.452240(15)
Cd2A_2 Cd 1.34616(2) -0.565230(17) 0.547760(15)
Cd2_2 Cd 0.65384(2) 0.565230(17) 0.452240(15)
Cd2A_3 Cd 1.34616(2) 0.434770(17) 0.547760(15)
Cd3A Cd -0.06431(2) 0.593820(17) -0.396450(15)
Cd3_2 Cd 0.06431(2) 0.406180(17) 0.396450(15)
Cd3_3 Cd 2.06431(2) -0.593820(17) 0.396450(15)
Cd3A_2 Cd 1.93569(2) -0.406180(17) 0.603550(15)
Cd3A_3 Cd 0.93569(2) 0.593820(17) -0.396450(15)
Cd3A_4 Cd 0.93569(2) 0.593820(17) 0.603550(15)
O1A O 0.3497(3) 0.3852(2) -0.0217(2)
H1A H 0.3656 0.3184 0.0026
H2A H 0.2836 0.4048 -0.0617
N1A N -0.0082(3) 0.7617(2) -0.36303(18)
N2A N -0.4969(3) 1.2953(2) -0.35736(19)
N3A N -0.2975(3) 1.0635(2) -0.06479(19)
N4A N -0.1949(3) 0.9774(2) -0.01902(19)
N5A N -0.1382(3) 0.96143(19) -0.17498(17)
N6A N 0.2829(3) 0.6454(2) -0.02597(19)
N7A N 0.7795(4) 0.5966(3) -0.2525(2)
N7_2 N 1.2205(4) 0.4034(3) 0.2525(2)
N7A_2 N -0.2205(4) 0.5966(3) -0.2525(2)
N8A N 0.6894(3) 0.5541(2) -0.20743(18)
N9A N 0.5963(3) 0.5138(2) -0.1627(2)
N10_2 N 0.8591(5) 0.5551(5) 0.1648(3)
N11_2 N 0.8563(3) 0.5386(3) 0.2468(2)
N12_2 N 0.8560(3) 0.5208(2) 0.3306(2)
N12A N -0.8560(3) 1.4792(2) -0.3306(2)
N12A_2 N 0.1440(3) 0.4792(2) -0.3306(2)
N13A N 1.2482(3) 0.3028(2) 0.4879(2)
N13A_2 N -0.7518(3) 1.3028(2) -0.5121(2)
N13_2 N -0.2482(3) 0.6972(2) -0.4879(2)
N14A N 1.2726(3) 0.2032(2) 0.4948(2)
N15A N 1.2945(6) 0.1086(3) 0.5008(4)
N16A N 1.4621(3) -0.4286(2) 0.5798(2)
N16A_2 N -0.5379(3) 1.5714(2) -0.4202(2)
N16_2 N -0.4621(3) 1.4286(2) -0.5798(2)
N17A N 1.4279(3) -0.3504(2) 0.6285(2)
N18A N 1.3968(5) -0.2746(3) 0.6736(3)
N19_2 N 0.8673(3) 0.4440(2) 0.53833(19)
N19A N 1.1327(3) 0.5560(2) 0.46167(19)
N19A_2 N -0.8673(3) 1.5560(2) -0.53833(19)
N19A_3 N 0.1327(3) 0.5560(2) -0.53833(19)
N19_3 N -0.1327(3) 0.4440(2) -0.46167(19)
N20_2 N 0.8758(3) 0.3667(2) 0.5985(2)
N21_2 N 0.8884(5) 0.2920(3) 0.6537(3)
C1A C -0.0790(3) 0.8124(2) -0.2832(2)
H8A H -0.1394 0.7768 -0.2385
C2A C 0.0785(4) 0.8142(3) -0.4258(2)
H9A H 0.1300 0.7790 -0.4811
C3A C 0.0952(4) 0.9185(3) -0.4123(2)
H10A H 0.1554 0.9528 -0.4582
C4A C 0.0216(4) 0.9709(3) -0.3301(2)
H11A H 0.0304 1.0412 -0.3190
C5A C -0.0658(3) 0.9155(2) -0.2646(2)
C6A C -0.3611(4) 1.1057(2) -0.3188(2)
H12A H -0.3234 1.0323 -0.3370
C7A C -0.4377(4) 1.1887(3) -0.3803(2)
H13A H -0.4487 1.1697 -0.4407
C8A C -0.4780(4) 1.3210(3) -0.2714(2)
H14A H -0.5185 1.3947 -0.2547
C9A C -0.4018(4) 1.2442(3) -0.2058(2)
H15A H -0.3909 1.2663 -0.1466
C10A C -0.3414(3) 1.1337(2) -0.2290(2)
C11A C -0.2622(3) 1.0536(2) -0.1574(2)
C12A C -0.1011(4) 0.9172(2) -0.0857(2)
C13A C 0.0307(3) 0.8209(2) -0.0680(2)
C14A C 0.1738(4) 0.8082(3) -0.1214(2)
H16A H 0.1882 0.8587 -0.1727
C15A C 0.2966(4) 0.7196(3) -0.0984(2)
H17A H 0.3932 0.7118 -0.1354
C16A C 0.1429(4) 0.6572(3) 0.0250(3)
H18A H 0.1314 0.6052 0.0756
C17A C 0.0149(4) 0.7423(3) 0.0063(3)
H19A H -0.0812 0.7470 0.0431
O2 O 0.2523(5) 0.0454(3) 0.8132(2)
H3 H 0.2573 0.0459 0.8707
C18 C 0.2189(6) 0.1519(4) 0.7742(4)
H20 H 0.1086 0.1853 0.7862
H21 H 0.2509 0.1514 0.7061
H22 H 0.2736 0.1943 0.8026
O3 O 0.5912(3) 0.8232(2) 0.9505(2)
H4 H 0.5875 0.8350 0.8904
H5 H 0.5088 0.8526 0.9869
O4 O 0.5340(4) 0.8820(3) 0.7626(2)
H6 H 0.4446 0.9287 0.7669
H7 H 0.5456 0.8267 0.7286
loop_
_geom_bond_atom_site_label_1
_geom_bond_atom_site_label_2
_geom_bond_site_symmetry_1
_geom_bond_site_symmetry_2
Cd1 O1 1_555 1_555
Cd2 N2 1_555 1_555
Cd3 N1 1_555 1_555
O1 H1 1_555 1_555
H2 O1 1_555 1_555
O2 H3 1_555 1_555
O3 H4 1_555 1_555
H5 O3 1_555 1_555
O4 H6 1_555 1_555
H7 O4 1_555 1_555
N1 C1 1_555 1_555
N2 C7 1_555 1_555
N3 N4 1_555 1_555
N4 C12 1_555 1_555
N5 C5 1_555 1_555
N6 Cd1 1_555 1_555
N7 N8 1_555 1_555
N8 N9 1_555 1_555
N9 Cd1 1_555 1_555
N10 N11 1_555 1_555
N11 N12 1_555 1_555
N12 Cd2 1_555 1_555
N13 Cd2 1_555 1_555
N14 N13 1_555 1_555
N15 N14 1_555 1_555
N16 Cd2 1_555 1_555
N17 N16 1_555 1_555
N18 N17 1_555 1_555
N19 Cd2 1_555 1_555
N20 N19 1_555 1_555
N21 N20 1_555 1_555
C1 H8 1_555 1_555
C2 N1 1_555 1_555
H9 C2 1_555 1_555
C3 C2 1_555 1_555
H10 C3 1_555 1_555
C4 C3 1_555 1_555
H11 C4 1_555 1_555
C5 C1 1_555 1_555
C6 H12 1_555 1_555
C7 C6 1_555 1_555
H13 C7 1_555 1_555
C8 N2 1_555 1_555
H14 C8 1_555 1_555
C9 C8 1_555 1_555
H15 C9 1_555 1_555
C10 C6 1_555 1_555
C11 N3 1_555 1_555
C12 N5 1_555 1_555
C13 C12 1_555 1_555
C14 C13 1_555 1_555
H16 C14 1_555 1_555
C15 N6 1_555 1_555
H17 C15 1_555 1_555
C16 N6 1_555 1_555
H18 C16 1_555 1_555
C17 C13 1_555 1_555
H19 C17 1_555 1_555
C18 O2 1_555 1_555
H20 C18 1_555 1_555
H21 C18 1_555 1_555
H22 C18 1_555 1_555
Cd2A N2A 1_555 1_555
Cd2A_2 N16 1_555 1_555
Cd2_2 N12_2 1_555 1_555
Cd2A_3 N13A 1_555 1_555
Cd3A N1A 1_555 1_555
Cd3_2 N7 1_555 1_555
Cd3_3 N12 1_555 1_555
Cd3A_2 N13 1_555 1_555
Cd3A_3 N7A 1_555 1_555
Cd3A_4 N19_2 1_555 1_555
O1A Cd1 1_555 1_555
H1A O1A 1_555 1_555
H2A O1A 1_555 1_555
N1A C1A 1_555 1_555
N2A C7A 1_555 1_555
N3A N4A 1_555 1_555
N4A C12A 1_555 1_555
N5A C5A 1_555 1_555
N6A Cd1 1_555 1_555
N7A N8A 1_555 1_555
N7_2 Cd3 1_555 1_555
N7A_2 Cd3A 1_555 1_555
N8A N9A 1_555 1_555
N9A Cd1 1_555 1_555
N10_2 N11_2 1_555 1_555
N11_2 N12_2 1_555 1_555
N12_2 Cd3 1_555 1_555
N12A Cd2A 1_555 1_555
N12A_2 Cd3A 1_555 1_555
N13A Cd3 1_555 1_555
N13A_2 Cd2A 1_555 1_555
N13_2 Cd3A 1_555 1_555
N14A N13A 1_555 1_555
N15A N14A 1_555 1_555
N16A Cd2 1_555 1_555
N16A_2 Cd2A 1_555 1_555
N16_2 Cd2A 1_555 1_555
N17A N16A 1_555 1_555
N18A N17A 1_555 1_555
N19_2 Cd3 1_555 1_555
N19A Cd3 1_555 1_555
N19A_2 Cd2A 1_555 1_555
N19A_3 Cd3A 1_555 1_555
N19_3 Cd3A 1_555 1_555
N20_2 N19_2 1_555 1_555
N21_2 N20_2 1_555 1_555
C1A H8A 1_555 1_555
C2A N1A 1_555 1_555
H9A C2A 1_555 1_555
C3A C2A 1_555 1_555
H10A C3A 1_555 1_555
C4A C3A 1_555 1_555
H11A C4A 1_555 1_555
C5A C1A 1_555 1_555
C6A H12A 1_555 1_555
C7A C6A 1_555 1_555
H13A C7A 1_555 1_555
C8A N2A 1_555 1_555
H14A C8A 1_555 1_555
C9A C8A 1_555 1_555
H15A C9A 1_555 1_555
C10A C6A 1_555 1_555
C11A N3A 1_555 1_555
C12A N5A 1_555 1_555
C13A C12A 1_555 1_555
C14A C13A 1_555 1_555
H16A C14A 1_555 1_555
C15A N6A 1_555 1_555
H17A C15A 1_555 1_555
C16A N6A 1_555 1_555
H18A C16A 1_555 1_555
C17A C13A 1_555 1_555
H19A C17A 1_555 1_555
N5 C11 1_555 1_555
N19 Cd3_3 1_555 1_555
N19 Cd3A_2 1_555 1_555
C4 C5 1_555 1_555
C9 C10 1_555 1_555
C10 C11 1_555 1_555
C14 C15 1_555 1_555
C16 C17 1_555 1_555
Cd2A_2 N16A 1_555 1_555
Cd2_2 N19_2 1_555 1_555
Cd2A_3 N19A 1_555 1_555
Cd3A_4 N19A 1_555 1_555
N5A C11A 1_555 1_555
C4A C5A 1_555 1_555
C9A C10A 1_555 1_555
C10A C11A 1_555 1_555
C14A C15A 1_555 1_555
C16A C17A 1_555 1_555

#END
