
#######################################################################
#
#                 Cambridge Crystallographic Data Centre
#                                CCDC 
#
#######################################################################
#
# If this CIF has been generated from an entry in the Cambridge 
# Structural Database, then it will include bibliographic, chemical, 
# crystal, experimental, refinement or atomic coordinate data resulting 
# from the CCDC's data processing and validation procedures.
#
#######################################################################

data_UYOJAU
_symmetry_cell_setting           monoclinic
_symmetry_space_group_name_H-M   'P 21/c'
_symmetry_Int_Tables_number      14
_space_group_name_Hall           '-P 2ybc'
loop_
_symmetry_equiv_pos_site_id
_symmetry_equiv_pos_as_xyz
1 x,y,z
2 -x,1/2+y,1/2-z
3 -x,-y,-z
4 x,1/2-y,1/2+z
_cell_length_a                   10.1083(4)
_cell_length_b                   21.4694(7)
_cell_length_c                   9.2806(3)
_cell_angle_alpha                90
_cell_angle_beta                 116.7700(10)
_cell_angle_gamma                90
_cell_volume                     1798.2
loop_
_atom_site_label
_atom_site_type_symbol
_atom_site_fract_x
_atom_site_fract_y
_atom_site_fract_z
Cd1 Cd 1.5000 0.5000 0.5000
N1 N 1.30338(18) 0.42922(8) 0.3803(2)
N2 N 0.82947(18) 0.33611(8) 0.31258(19)
N3 N 0.68141(18) 0.32107(8) 0.2326(2)
N4 N 0.76066(16) 0.34056(7) 0.05162(17)
N5 N 0.1961(2) 0.27890(10) -0.2526(2)
N6 N 0.65674(17) 0.41522(7) -0.34046(18)
N7 N 1.4350(2) 0.51665(10) 0.7039(2)
N8 N 1.3013(3) 0.51963(12) 0.8646(3)
N9 N 1.0743(4) 0.46443(14) 0.8190(4)
C1 C 1.1269(2) 0.36485(11) 0.4130(3)
H1 H 1.1032 0.3405 0.4810
C2 C 1.2620(2) 0.39374(12) 0.4709(3)
H2 H 1.3283 0.3883 0.5791
C3 C 1.2093(2) 0.43349(10) 0.2244(2)
H3 H 1.2384 0.4562 0.1582
C4 C 1.0708(2) 0.40620(9) 0.1551(2)
H4 H 1.0089 0.4105 0.0452
C5 C 1.0259(2) 0.37227(8) 0.2521(2)
C6 C 0.8753(2) 0.34837(8) 0.2041(2)
C7 C 0.6421(2) 0.32403(9) 0.0779(2)
C8 C 0.4899(2) 0.31014(9) -0.0460(2)
C9 C 0.4576(2) 0.26125(11) -0.1520(3)
H5 H 0.5327 0.2379 -0.1574
C10 C 0.3103(3) 0.24769(13) -0.2505(3)
H6 H 0.2896 0.2141 -0.3207
C11 C 0.2304(2) 0.32656(12) -0.1526(3)
H7 H 0.1530 0.3501 -0.1530
C12 C 0.3736(2) 0.34397(11) -0.0470(3)
H8 H 0.3910 0.3778 0.0218
C13 C 0.75616(19) 0.35287(8) -0.1028(2)
C14 C 0.66924(19) 0.40113(9) -0.1940(2)
H9 H 0.6172 0.4249 -0.1527
C15 C 0.7349(2) 0.38069(10) -0.3956(2)
H10 H 0.7279 0.3900 -0.4967
C16 C 0.8248(2) 0.33216(10) -0.3099(2)
H11 H 0.8776 0.3097 -0.3526
C17 C 0.8362(2) 0.31701(9) -0.1599(2)
H12 H 0.8952 0.2841 -0.1000
C18 C 1.3671(3) 0.51617(10) 0.7731(3)
C19 C 1.1792(4) 0.48879(12) 0.8319(4)
Cd1_2 Cd 0.5000 0.5000 -0.5000
N1B N 0.69662(18) 0.57078(8) -0.3803(2)
N1B_2 N 1.69662(18) 0.57078(8) 0.6197(2)
N2B N 1.17053(18) 0.66389(8) -0.31258(19)
N3B N 1.31859(18) 0.67893(8) -0.2326(2)
N4B N 1.23934(16) 0.65944(7) -0.05162(17)
N5B N 1.8039(2) 0.72110(10) 0.2526(2)
N6B N 1.34326(17) 0.58478(7) 0.34046(18)
N6_2 N 1.65674(17) 0.41522(7) 0.65954(18)
N7B N 1.5650(2) 0.48335(10) 0.2961(2)
N8B N 1.6987(3) 0.48037(12) 0.1354(3)
N9B N 1.9257(4) 0.53557(14) 0.1810(4)
C1B C 0.8731(2) 0.63515(11) -0.4130(3)
H1B H 0.8968 0.6595 -0.4810
C2B C 0.7380(2) 0.60626(12) -0.4709(3)
H2B H 0.6717 0.6117 -0.5791
C3B C 0.7907(2) 0.56651(10) -0.2244(2)
H3B H 0.7616 0.5438 -0.1582
C4B C 0.9292(2) 0.59380(9) -0.1551(2)
H4B H 0.9911 0.5895 -0.0452
C5B C 0.9741(2) 0.62773(8) -0.2521(2)
C6B C 1.1247(2) 0.65163(8) -0.2041(2)
C7B C 1.3579(2) 0.67597(9) -0.0779(2)
C8B C 1.5101(2) 0.68986(9) 0.0460(2)
C9B C 1.5424(2) 0.73875(11) 0.1520(3)
H5B H 1.4673 0.7621 0.1574
C10B C 1.6897(3) 0.75231(13) 0.2505(3)
H6B H 1.7104 0.7859 0.3207
C11B C 1.7696(2) 0.67344(12) 0.1526(3)
H7B H 1.8470 0.6499 0.1530
C12B C 1.6264(2) 0.65603(11) 0.0470(3)
H8B H 1.6090 0.6222 -0.0218
C13B C 1.24384(19) 0.64713(8) 0.1028(2)
C14B C 1.33076(19) 0.59887(9) 0.1940(2)
H9B H 1.3828 0.5751 0.1527
C15B C 1.2651(2) 0.61931(10) 0.3956(2)
H10B H 1.2721 0.6100 0.4967
C16B C 1.1752(2) 0.66784(10) 0.3099(2)
H11B H 1.1224 0.6903 0.3526
C17B C 1.1638(2) 0.68299(9) 0.1599(2)
H12B H 1.1048 0.7159 0.1000
C18B C 1.6329(3) 0.48383(10) 0.2269(3)
C19B C 1.8208(4) 0.51121(12) 0.1681(4)
loop_
_geom_bond_atom_site_label_1
_geom_bond_atom_site_label_2
_geom_bond_site_symmetry_1
_geom_bond_site_symmetry_2
Cd1 N1 1_555 1_555
N1 C2 1_555 1_555
N2 N3 1_555 1_555
N3 C7 1_555 1_555
N4 C6 1_555 1_555
N5 C10 1_555 1_555
N6 C14 1_555 1_555
N7 Cd1 1_555 1_555
N8 C18 1_555 1_555
N9 C19 1_555 1_555
C1 H1 1_555 1_555
C2 C1 1_555 1_555
H2 C2 1_555 1_555
C3 N1 1_555 1_555
H3 C3 1_555 1_555
C4 C3 1_555 1_555
H4 C4 1_555 1_555
C5 C1 1_555 1_555
C6 N2 1_555 1_555
C7 N4 1_555 1_555
C8 C7 1_555 1_555
C9 C8 1_555 1_555
H5 C9 1_555 1_555
C10 C9 1_555 1_555
H6 C10 1_555 1_555
C11 N5 1_555 1_555
H7 C11 1_555 1_555
C12 C8 1_555 1_555
H8 C12 1_555 1_555
C13 N4 1_555 1_555
C14 C13 1_555 1_555
H9 C14 1_555 1_555
C15 N6 1_555 1_555
H10 C15 1_555 1_555
C16 C15 1_555 1_555
H11 C16 1_555 1_555
C17 C13 1_555 1_555
H12 C17 1_555 1_555
C18 N7 1_555 1_555
C19 N8 1_555 1_555
Cd1_2 N6 1_555 1_555
N1B Cd1_2 1_555 1_555
N1B_2 Cd1 1_555 1_555
N2B N3B 1_555 1_555
N3B C7B 1_555 1_555
N4B C6B 1_555 1_555
N5B C10B 1_555 1_555
N6B Cd1 1_555 1_555
N6_2 Cd1 1_555 1_555
N7B Cd1 1_555 1_555
N8B C18B 1_555 1_555
N9B C19B 1_555 1_555
C1B H1B 1_555 1_555
C2B N1B 1_555 1_555
H2B C2B 1_555 1_555
C3B N1B 1_555 1_555
H3B C3B 1_555 1_555
C4B C3B 1_555 1_555
H4B C4B 1_555 1_555
C5B C1B 1_555 1_555
C6B N2B 1_555 1_555
C7B N4B 1_555 1_555
C8B C7B 1_555 1_555
C9B C8B 1_555 1_555
H5B C9B 1_555 1_555
C10B C9B 1_555 1_555
H6B C10B 1_555 1_555
C11B N5B 1_555 1_555
H7B C11B 1_555 1_555
C12B C8B 1_555 1_555
H8B C12B 1_555 1_555
C13B N4B 1_555 1_555
C14B N6B 1_555 1_555
H9B C14B 1_555 1_555
C15B N6B 1_555 1_555
H10B C15B 1_555 1_555
C16B C15B 1_555 1_555
H11B C16B 1_555 1_555
C17B C13B 1_555 1_555
H12B C17B 1_555 1_555
C18B N7B 1_555 1_555
C19B N8B 1_555 1_555
C4 C5 1_555 1_555
C5 C6 1_555 1_555
C11 C12 1_555 1_555
C16 C17 1_555 1_555
C1B C2B 1_555 1_555
C4B C5B 1_555 1_555
C5B C6B 1_555 1_555
C11B C12B 1_555 1_555
C13B C14B 1_555 1_555
C16B C17B 1_555 1_555

#END
