
#######################################################################
#
#                 Cambridge Crystallographic Data Centre
#                                CCDC 
#
#######################################################################
#
# If this CIF has been generated from an entry in the Cambridge 
# Structural Database, then it will include bibliographic, chemical, 
# crystal, experimental, refinement or atomic coordinate data resulting 
# from the CCDC's data processing and validation procedures.
#
#######################################################################

data_UYOJEY
_symmetry_cell_setting           orthorhombic
_symmetry_space_group_name_H-M   'C m c 21'
_symmetry_Int_Tables_number      36
_space_group_name_Hall           'C 2n -2'
loop_
_symmetry_equiv_pos_site_id
_symmetry_equiv_pos_as_xyz
1 x,y,z
2 -x,-y,1/2+z
3 x,-y,1/2+z
4 -x,y,z
5 1/2+x,1/2+y,z
6 1/2-x,1/2-y,1/2+z
7 1/2+x,1/2-y,1/2+z
8 1/2-x,1/2+y,z
_cell_length_a                   22.639(2)
_cell_length_b                   9.1848(8)
_cell_length_c                   17.4671(15)
_cell_angle_alpha                90
_cell_angle_beta                 90
_cell_angle_gamma                90
_cell_volume                     3632.02
loop_
_atom_site_label
_atom_site_type_symbol
_atom_site_fract_x
_atom_site_fract_y
_atom_site_fract_z
Cd1 Cd 1.0000 0.67761(2) 0.787473(13)
S1 S 1.0000 0.24242(17) 0.62039(9)
S2 S 1.0000 1.15766(12) 0.91728(8)
N1 N 0.92062(9) 0.6117(2) 0.86785(12)
N2 N 0.92567(10) 0.2603(2) 1.19395(13)
N3 N 0.83617(10) 0.0485(2) 0.95224(13)
N4 N 0.82135(10) 0.0573(2) 0.87517(13)
N5 N 0.83883(9) 0.2790(2) 0.91708(14)
N6 N 0.78650(12) 0.3408(3) 0.62778(15)
N7 N 1.0000 0.4455(3) 0.7390(2)
N8 N 1.0000 0.9103(4) 0.8264(2)
C1 C 0.90474(10) 0.4724(2) 0.87667(14)
H1 H 0.9294 0.3998 0.8578
C2 C 0.88483(13) 0.7151(3) 0.89811(17)
H2 H 0.8958 0.8123 0.8936
C3 C 0.83281(12) 0.6818(3) 0.93527(16)
H3 H 0.8093 0.7555 0.9553
C4 C 0.81588(10) 0.5367(3) 0.94258(14)
H4 H 0.7808 0.5109 0.9667
C5 C 0.85315(10) 0.4331(2) 0.91270(13)
C6 C 0.86497(14) 0.3441(3) 1.09101(17)
H5 H 0.8419 0.4185 1.0708
C7 C 0.89361(14) 0.3623(4) 1.16033(19)
H6 H 0.8901 0.4518 1.1848
C8 C 0.92753(12) 0.1311(3) 1.15918(17)
H7 H 0.9470 0.0553 1.1838
C9 C 0.90247(12) 0.1035(3) 1.08934(15)
H8 H 0.9063 0.0123 1.0668
C10 C 0.87107(11) 0.2138(2) 1.05226(15)
C11 C 0.84753(10) 0.1816(2) 0.97626(15)
C12 C 0.82335(12) 0.1936(3) 0.85526(18)
C13 C 0.81113(9) 0.2495(2) 0.77735(17)
C14 C 0.84608(15) 0.2097(4) 0.7174(2)
H9 H 0.8788 0.1504 0.7255
C15 C 0.83253(17) 0.2582(4) 0.6442(2)
H10 H 0.8574 0.2308 0.6043
C16 C 0.75403(15) 0.3811(4) 0.68680(18)
H11 H 0.7221 0.4420 0.6772
C17 C 0.76387(14) 0.3398(3) 0.76174(18)
H12 H 0.7392 0.3720 0.8008
C18 C 1.0000 0.3617(4) 0.6893(3)
C19 C 1.0000 1.0145(4) 0.8641(2)
Cd1A Cd 1.0000 0.32239(2) 1.287473(13)
N1C N 1.07938(9) 0.6117(2) 0.86785(12)
N2C N 1.07433(10) 0.2603(2) 1.19395(13)
N2A N 1.07433(10) 0.7397(2) 0.69395(13)
N2B N 0.92567(10) 0.7397(2) 0.69395(13)
N3C N 1.16383(10) 0.0485(2) 0.95224(13)
N4C N 1.17865(10) 0.0573(2) 0.87517(13)
N5C N 1.16117(9) 0.2790(2) 0.91708(14)
N6C N 1.21350(12) 0.3408(3) 0.62778(15)
C1C C 1.09526(10) 0.4724(2) 0.87667(14)
H1C H 1.0706 0.3998 0.8578
C2C C 1.11517(13) 0.7151(3) 0.89811(17)
H2C H 1.1042 0.8123 0.8936
C3C C 1.16719(12) 0.6818(3) 0.93527(16)
H3C H 1.1907 0.7555 0.9553
C4C C 1.18412(10) 0.5367(3) 0.94258(14)
H4C H 1.2192 0.5109 0.9667
C5C C 1.14685(10) 0.4331(2) 0.91270(13)
C6C C 1.13503(14) 0.3441(3) 1.09101(17)
H5C H 1.1581 0.4185 1.0708
C7C C 1.10639(14) 0.3623(4) 1.16033(19)
H6C H 1.1099 0.4518 1.1848
C8C C 1.07247(12) 0.1311(3) 1.15918(17)
H7C H 1.0530 0.0553 1.1838
C9C C 1.09753(12) 0.1035(3) 1.08934(15)
H8C H 1.0937 0.0123 1.0668
C10C C 1.12893(11) 0.2138(2) 1.05226(15)
C11C C 1.15247(10) 0.1816(2) 0.97626(15)
C12C C 1.17665(12) 0.1936(3) 0.85526(18)
C13C C 1.18887(9) 0.2495(2) 0.77735(17)
C14C C 1.15392(15) 0.2097(4) 0.7174(2)
H9C H 1.1212 0.1504 0.7255
C15C C 1.16747(17) 0.2582(4) 0.6442(2)
H10C H 1.1426 0.2308 0.6043
C16C C 1.24597(15) 0.3811(4) 0.68680(18)
H11C H 1.2779 0.4420 0.6772
C17C C 1.23613(14) 0.3398(3) 0.76174(18)
H12C H 1.2608 0.3720 0.8008
loop_
_geom_bond_atom_site_label_1
_geom_bond_atom_site_label_2
_geom_bond_site_symmetry_1
_geom_bond_site_symmetry_2
Cd1 N1 1_555 1_555
S1 C18 1_555 1_555
S2 C19 1_555 1_555
N1 C1 1_555 1_555
N2 C7 1_555 1_555
N3 N4 1_555 1_555
N4 C12 1_555 1_555
N5 C5 1_555 1_555
N6 C15 1_555 1_555
N7 Cd1 1_555 1_555
N8 Cd1 1_555 1_555
C1 H1 1_555 1_555
C2 N1 1_555 1_555
H2 C2 1_555 1_555
C3 C2 1_555 1_555
H3 C3 1_555 1_555
C4 C3 1_555 1_555
H4 C4 1_555 1_555
C5 C1 1_555 1_555
C6 H5 1_555 1_555
C7 C6 1_555 1_555
H6 C7 1_555 1_555
C8 N2 1_555 1_555
H7 C8 1_555 1_555
C9 C8 1_555 1_555
H8 C9 1_555 1_555
C10 C6 1_555 1_555
C11 N3 1_555 1_555
C12 N5 1_555 1_555
C13 C12 1_555 1_555
C14 C13 1_555 1_555
H9 C14 1_555 1_555
C15 C14 1_555 1_555
H10 C15 1_555 1_555
C16 N6 1_555 1_555
H11 C16 1_555 1_555
C17 C13 1_555 1_555
H12 C17 1_555 1_555
C18 N7 1_555 1_555
C19 N8 1_555 1_555
Cd1A N2 1_555 1_555
N1C Cd1 1_555 1_555
N2C Cd1A 1_555 1_555
N2A Cd1 1_555 1_555
N2B Cd1 1_555 1_555
N3C N4C 1_555 1_555
N4C C12C 1_555 1_555
N5C C5C 1_555 1_555
N6C C15C 1_555 1_555
C1C N1C 1_555 1_555
H1C C1C 1_555 1_555
C2C N1C 1_555 1_555
H2C C2C 1_555 1_555
C3C C2C 1_555 1_555
H3C C3C 1_555 1_555
C4C C3C 1_555 1_555
H4C C4C 1_555 1_555
C5C C1C 1_555 1_555
C6C H5C 1_555 1_555
C7C N2C 1_555 1_555
H6C C7C 1_555 1_555
C8C N2C 1_555 1_555
H7C C8C 1_555 1_555
C9C C8C 1_555 1_555
H8C C9C 1_555 1_555
C10C C6C 1_555 1_555
C11C N3C 1_555 1_555
C12C N5C 1_555 1_555
C13C C12C 1_555 1_555
C14C C13C 1_555 1_555
H9C C14C 1_555 1_555
C15C C14C 1_555 1_555
H10C C15C 1_555 1_555
C16C N6C 1_555 1_555
H11C C16C 1_555 1_555
C17C C13C 1_555 1_555
H12C C17C 1_555 1_555
N5 C11 1_555 1_555
C4 C5 1_555 1_555
C9 C10 1_555 1_555
C10 C11 1_555 1_555
C16 C17 1_555 1_555
N5C C11C 1_555 1_555
C4C C5C 1_555 1_555
C6C C7C 1_555 1_555
C9C C10C 1_555 1_555
C10C C11C 1_555 1_555
C16C C17C 1_555 1_555

#END
