
#######################################################################
#
#                 Cambridge Crystallographic Data Centre
#                                CCDC 
#
#######################################################################
#
# If this CIF has been generated from an entry in the Cambridge 
# Structural Database, then it will include bibliographic, chemical, 
# crystal, experimental, refinement or atomic coordinate data resulting 
# from the CCDC's data processing and validation procedures.
#
#######################################################################

data_UYOXOW
_symmetry_cell_setting           triclinic
_symmetry_space_group_name_H-M   'P -1'
_symmetry_Int_Tables_number      2
_space_group_name_Hall           '-P 1'
loop_
_symmetry_equiv_pos_site_id
_symmetry_equiv_pos_as_xyz
1 x,y,z
2 -x,-y,-z
_cell_length_a                   9.830(2)
_cell_length_b                   11.142(2)
_cell_length_c                   11.743(2)
_cell_angle_alpha                61.77(3)
_cell_angle_beta                 72.57(3)
_cell_angle_gamma                84.61(3)
_cell_volume                     1079.4
loop_
_atom_site_label
_atom_site_type_symbol
_atom_site_fract_x
_atom_site_fract_y
_atom_site_fract_z
Nd1 Nd 0.901466(18) 0.732122(17) 0.857796(17)
Mn1 Mn 1.0000 1.0000 0.5000
O1 O 0.8542(3) 0.8547(4) 0.5346(4)
O2 O 0.7165(3) 0.7368(3) 0.7467(3)
O3 O 0.1802(3) 0.7251(3) 0.8081(3)
O4 O 0.1060(3) 0.8289(3) 0.6285(3)
O5 O 0.4535(5) 0.9526(6) 0.1863(4)
O6 O 0.6775(5) 0.9482(6) 0.1615(4)
O7 O 1.0295(4) 0.4574(3) 0.1812(4)
O8 O 0.9505(4) 0.6580(4) 0.0623(3)
O9 O 1.0070(4) 1.0494(3) 0.1550(4)
O10 O 1.1167(3) 1.0110(3) 0.3058(3)
O11 O 1.2543(5) 0.5619(4) 0.5690(4)
O12 O 1.2522(6) 0.4032(4) 0.5162(5)
O13 O 0.7270(4) 0.5317(4) 1.0252(4)
O14 O 0.6889(4) 0.8082(4) 0.9820(4)
N1 N 0.5544(5) 0.9344(5) 0.2295(4)
N2 N 1.2263(5) 0.5165(4) 0.5025(4)
C1 C 0.6126(4) 0.8138(4) 0.5667(4)
C2 C 0.4722(4) 0.7869(4) 0.6504(4)
C3 C 0.3578(4) 0.8154(4) 0.5935(4)
C4 C 0.3869(4) 0.8671(4) 0.4545(4)
C5 C 0.5260(5) 0.8838(4) 0.3769(4)
C6 C 0.6403(4) 0.8623(4) 0.4287(4)
C7 C 0.7364(4) 0.7997(4) 0.6218(4)
C8 C 0.2064(4) 0.7887(4) 0.6831(4)
C9 C 1.0515(4) 0.6355(4) 0.2295(4)
C10 C 1.0311(4) 0.7723(4) 0.2011(4)
C11 C 1.0735(4) 0.8222(4) 0.2756(4)
C12 C 1.1337(5) 0.7367(4) 0.3766(4)
C13 C 1.1569(5) 0.6041(4) 0.3984(4)
C14 C 1.1175(5) 0.5515(4) 0.3272(4)
C15 C 1.0073(4) 0.5789(4) 0.1520(4)
C16 C 1.0619(4) 0.9712(4) 0.2410(4)
H1 H 0.7646 0.4544 1.0666
H2 H 0.6322 0.8685 0.9474
H5 H 0.6441 0.5419 1.0727
H6 H 0.6923 0.7861 1.0612
H9 H 0.3164 0.8657 0.4253
H10 H 1.1557 0.7712 0.4285
H11 H 1.1435 0.4651 0.3463
H12 H 0.9962 0.8369 0.1181
H13 H 0.4621 0.7678 0.7303
H14 H 0.7282 0.8658 0.3876
Nd1A Nd 1.098534(18) 1.267878(17) 0.142204(17)
Nd1_2 Nd -0.098534(18) 0.732122(17) 0.857796(17)
Nd1A_2 Nd 1.098534(18) 0.267878(17) 0.142204(17)
Nd1_3 Nd 0.901466(18) 0.732122(17) -0.142204(17)
Nd1A_3 Nd 2.098534(18) 1.267878(17) 0.142204(17)
Nd1_4 Nd 0.901466(18) 1.732122(17) 0.857796(17)
Nd1A_4 Nd 1.098534(18) 1.267878(17) 1.142204(17)
Mn1_2 Mn 0.0000 1.0000 0.5000
Mn1_3 Mn 2.0000 1.0000 0.5000
O1A O 1.1458(3) 1.1453(4) 0.4654(4)
O2A O 1.2835(3) 1.2632(3) 0.2533(3)
O3A O 1.8198(3) 1.2749(3) 0.1919(3)
O3_2 O 1.1802(3) 0.7251(3) 0.8081(3)
O3A_2 O 0.8198(3) 1.2749(3) 0.1919(3)
O4A O 1.8940(3) 1.1711(3) 0.3715(3)
O4_2 O 1.1060(3) 0.8289(3) 0.6285(3)
O4A_2 O 0.8940(3) 1.1711(3) 0.3715(3)
O5A O 1.5465(5) 1.0474(6) 0.8137(4)
O6A O 1.3225(5) 1.0518(6) 0.8385(4)
O7A O 0.9705(4) 1.5426(3) 0.8188(4)
O7A_2 O 0.9705(4) 0.5426(3) 0.8188(4)
O7_2 O 1.0295(4) 1.4574(3) 0.1812(4)
O8A O 1.0495(4) 1.3420(4) 0.9377(3)
O8_2 O 0.9505(4) 0.6580(4) 1.0623(3)
O8A_2 O 1.0495(4) 1.3420(4) -0.0623(3)
O9A O 0.9930(4) 0.9506(3) 0.8450(4)
O10A O 0.8833(3) 0.9890(3) 0.6942(3)
O11A O 0.7457(5) 1.4381(4) 0.4310(4)
O12A O 0.7478(6) 1.5968(4) 0.4838(5)
O13A O 1.2730(4) 1.4683(4) -0.0252(4)
O14A O 1.3111(4) 1.1918(4) 0.0180(4)
N1A N 1.4456(5) 1.0656(5) 0.7705(4)
N2A N 0.7737(5) 1.4835(4) 0.4975(4)
C1A C 1.3874(4) 1.1862(4) 0.4333(4)
C2A C 1.5278(4) 1.2131(4) 0.3496(4)
C3A C 1.6422(4) 1.1846(4) 0.4065(4)
C4A C 1.6131(4) 1.1329(4) 0.5455(4)
C5A C 1.4740(5) 1.1162(4) 0.6231(4)
C6A C 1.3597(4) 1.1377(4) 0.5713(4)
C7A C 1.2636(4) 1.2003(4) 0.3782(4)
C8A C 1.7936(4) 1.2113(4) 0.3169(4)
C9A C 0.9485(4) 1.3645(4) 0.7705(4)
C10A C 0.9689(4) 1.2277(4) 0.7989(4)
C11A C 0.9265(4) 1.1778(4) 0.7244(4)
C12A C 0.8663(5) 1.2633(4) 0.6234(4)
C13A C 0.8431(5) 1.3959(4) 0.6016(4)
C14A C 0.8825(5) 1.4485(4) 0.6728(4)
C15A C 0.9927(4) 1.4211(4) 0.8480(4)
C16A C 0.9381(4) 1.0288(4) 0.7590(4)
H1A H 1.2354 1.5456 -0.0666
H2A H 1.3678 1.1315 0.0526
H5A H 1.3559 1.4581 -0.0727
H6A H 1.3077 1.2139 -0.0612
H9A H 1.6836 1.1343 0.5747
H10A H 0.8443 1.2288 0.5715
H11A H 0.8565 1.5349 0.6537
H12A H 1.0038 1.1631 0.8819
H13A H 1.5379 1.2322 0.2697
H14A H 1.2718 1.1342 0.6124
O15 O 0.5615(5) 0.4740(5) 0.8555(5)
H3 H 0.6027 0.5514 0.8333
H7 H 0.5985 0.4001 0.9016
O16 O 0.4402(6) 0.3528(6) 0.7384(5)
H4 H 0.3687 0.3640 0.7126
H8 H 0.4804 0.3988 0.7595
O17 O 0.6666(9) 0.2414(7) 0.0290(7)
H15 H 0.7538 0.2093 0.0200
H16 H 0.6117 0.2164 -0.0057
loop_
_geom_bond_atom_site_label_1
_geom_bond_atom_site_label_2
_geom_bond_site_symmetry_1
_geom_bond_site_symmetry_2
Nd1 O2 1_555 1_555
Mn1 O1 1_555 1_555
O1 C7 1_555 1_555
O2 C7 1_555 1_555
O3 C8 1_555 1_555
O4 C8 1_555 1_555
O5 N1 1_555 1_555
O6 N1 1_555 1_555
O7 C15 1_555 1_555
O8 C15 1_555 1_555
O9 C16 1_555 1_555
O10 Mn1 1_555 1_555
O11 N2 1_555 1_555
O12 N2 1_555 1_555
O13 Nd1 1_555 1_555
O14 Nd1 1_555 1_555
O15 H3 1_555 1_555
O16 H4 1_555 1_555
O17 H15 1_555 1_555
N1 C5 1_555 1_555
N2 C13 1_555 1_555
C1 C2 1_555 1_555
C2 C3 1_555 1_555
C3 C4 1_555 1_555
C4 C5 1_555 1_555
C5 C6 1_555 1_555
C6 C1 1_555 1_555
C7 C1 1_555 1_555
C8 C3 1_555 1_555
C9 C10 1_555 1_555
C10 C11 1_555 1_555
C11 C12 1_555 1_555
C12 C13 1_555 1_555
C13 C14 1_555 1_555
C14 C9 1_555 1_555
C15 C9 1_555 1_555
C16 O10 1_555 1_555
H1 O13 1_555 1_555
H2 O14 1_555 1_555
H5 O13 1_555 1_555
H6 O14 1_555 1_555
H7 O15 1_555 1_555
H8 O16 1_555 1_555
H9 C4 1_555 1_555
H10 C12 1_555 1_555
H11 C14 1_555 1_555
H12 C10 1_555 1_555
H13 C2 1_555 1_555
H14 C6 1_555 1_555
H16 O17 1_555 1_555
Nd1A O9 1_555 1_555
Nd1_2 O3 1_555 1_555
Nd1A_2 O7 1_555 1_555
Nd1_3 O8 1_555 1_555
Nd1A_3 O3A 1_555 1_555
Nd1_4 O7A 1_555 1_555
Nd1A_4 O8A 1_555 1_555
Mn1_2 O4 1_555 1_555
Mn1_3 O4A 1_555 1_555
O1A Mn1 1_555 1_555
O2A Nd1A 1_555 1_555
O3A C8A 1_555 1_555
O3_2 Nd1 1_555 1_555
O3A_2 Nd1A 1_555 1_555
O4A Nd1A_3 1_555 1_555
O4_2 Nd1 1_555 1_555
O4A_2 Mn1 1_555 1_555
O5A N1A 1_555 1_555
O6A N1A 1_555 1_555
O7A C15A 1_555 1_555
O7A_2 Nd1 1_555 1_555
O7_2 Nd1A 1_555 1_555
O8A C15A 1_555 1_555
O8_2 Nd1 1_555 1_555
O8A_2 Nd1A 1_555 1_555
O9A Nd1 1_555 1_555
O10A Nd1 1_555 1_555
O11A N2A 1_555 1_555
O12A N2A 1_555 1_555
O13A Nd1A 1_555 1_555
O14A Nd1A 1_555 1_555
N1A C5A 1_555 1_555
N2A C13A 1_555 1_555
C1A C2A 1_555 1_555
C2A C3A 1_555 1_555
C3A C4A 1_555 1_555
C4A C5A 1_555 1_555
C5A C6A 1_555 1_555
C6A C1A 1_555 1_555
C7A O1A 1_555 1_555
C8A O4A 1_555 1_555
C9A C10A 1_555 1_555
C10A C11A 1_555 1_555
C11A C12A 1_555 1_555
C12A C13A 1_555 1_555
C13A C14A 1_555 1_555
C14A C9A 1_555 1_555
C15A C9A 1_555 1_555
C16A O9A 1_555 1_555
H1A O13A 1_555 1_555
H2A O14A 1_555 1_555
H5A O13A 1_555 1_555
H6A O14A 1_555 1_555
H9A C4A 1_555 1_555
H10A C12A 1_555 1_555
H11A C14A 1_555 1_555
H12A C10A 1_555 1_555
H13A C2A 1_555 1_555
H14A C6A 1_555 1_555
Mn1 O4_2 1_555 1_555
Mn1 O10A 1_555 1_555
O4 Nd1_2 1_555 1_555
O10 Nd1A 1_555 1_555
C11 C16 1_555 1_555
Nd1A O4A_2 1_555 1_555
O2A C7A 1_555 1_555
O10A C16A 1_555 1_555
C1A C7A 1_555 1_555
C3A C8A 1_555 1_555
C11A C16A 1_555 1_555

#END
