
#######################################################################
#
#                 Cambridge Crystallographic Data Centre
#                                CCDC 
#
#######################################################################
#
# If this CIF has been generated from an entry in the Cambridge 
# Structural Database, then it will include bibliographic, chemical, 
# crystal, experimental, refinement or atomic coordinate data resulting 
# from the CCDC's data processing and validation procedures.
#
#######################################################################

data_UYOXAL01
_symmetry_cell_setting           monoclinic
_symmetry_space_group_name_H-M   'P 21/c'
_symmetry_Int_Tables_number      14
_space_group_name_Hall           '-P 2ybc'
loop_
_symmetry_equiv_pos_site_id
_symmetry_equiv_pos_as_xyz
1 x,y,z
2 -x,1/2+y,1/2-z
3 -x,-y,-z
4 x,1/2-y,1/2+z
_cell_length_a                   5.603(3)
_cell_length_b                   16.986(6)
_cell_length_c                   9.415(7)
_cell_angle_alpha                90
_cell_angle_beta                 98.89(4)
_cell_angle_gamma                90
_cell_volume                     885.285
loop_
_atom_site_label
_atom_site_type_symbol
_atom_site_fract_x
_atom_site_fract_y
_atom_site_fract_z
U1 U -0.7304(1) 0.06778(4) 0.25863(8)
O1 O -0.448(2) 0.053(1) 0.362(1)
O2 O -1.010(2) 0.086(1) 0.153(1)
O3 O -0.642(3) -0.048(1) 0.131(1)
O4 O -0.537(3) 0.095(1) 0.048(2)
O5 O -0.079(3) 0.046(1) -0.352(2)
O6 O -0.104(2) -0.094(1) -0.476(2)
O7 O -0.666(3) 0.2055(9) 0.285(2)
C1 C -0.527(4) -0.040(1) 0.025(2)
C2 C 0.007(4) 0.042(2) -0.463(2)
O4B O -0.463(3) -0.095(1) -0.048(2)
U1B U -0.2696(1) -0.06778(4) -0.25863(8)
O1B O -0.552(2) -0.053(1) -0.362(1)
O2B O 0.010(2) -0.086(1) -0.153(1)
O3B O -0.358(3) 0.048(1) -0.131(1)
C1B C -0.473(4) 0.040(1) -0.025(2)
O5B O -0.921(3) -0.046(1) 0.352(2)
O6B O -0.896(2) 0.094(1) 0.476(2)
O7B O -0.334(3) -0.2055(9) -0.285(2)
C2B C -0.007(4) -0.042(2) -0.537(2)
O6B_2 O 0.104(2) 0.094(1) -0.524(2)
O5B_2 O 0.079(3) -0.046(1) -0.648(2)
U1_2 U 0.2696(1) 0.06778(4) -0.74137(8)
O8 O -0.309(3) 0.235(1) -0.022(2)
O9 O -0.946(3) -0.205(1) 0.254(2)
loop_
_geom_bond_atom_site_label_1
_geom_bond_atom_site_label_2
_geom_bond_site_symmetry_1
_geom_bond_site_symmetry_2
U1 O1 1_555 1_555
O2 U1 1_555 1_555
O3 U1 1_555 1_555
O4 U1 1_555 1_555
O5 C2 1_555 1_555
O6 U1B 1_555 1_555
O7 U1 1_555 1_555
C1 O3 1_555 1_555
C2 C2B 1_555 1_555
O4B C1 1_555 1_555
U1B O5 1_555 1_555
O1B U1B 1_555 1_555
O2B U1B 1_555 1_555
O3B U1B 1_555 1_555
C1B O4 1_555 1_555
O5B U1 1_555 1_555
O6B U1 1_555 1_555
O7B U1B 1_555 1_555
C2B O6 1_555 1_555
O6B_2 C2 1_555 1_555
O5B_2 C2B 1_555 1_555
U1_2 O6B_2 1_555 1_555
C1 C1B 1_555 1_555
O4B U1B 1_555 1_555
O3B C1B 1_555 1_555
O5B_2 U1_2 1_555 1_555

#END
