
#######################################################################
#
#                 Cambridge Crystallographic Data Centre
#                                CCDC 
#
#######################################################################
#
# If this CIF has been generated from an entry in the Cambridge 
# Structural Database, then it will include bibliographic, chemical, 
# crystal, experimental, refinement or atomic coordinate data resulting 
# from the CCDC's data processing and validation procedures.
#
#######################################################################

data_UYOXAL
_symmetry_cell_setting           monoclinic
_symmetry_space_group_name_H-M   'P 21/c'
_symmetry_Int_Tables_number      14
_space_group_name_Hall           '-P 2ybc'
loop_
_symmetry_equiv_pos_site_id
_symmetry_equiv_pos_as_xyz
1 x,y,z
2 -x,1/2+y,1/2-z
3 -x,-y,-z
4 x,1/2-y,1/2+z
_cell_length_a                   5.623(5)
_cell_length_b                   17.065(2)
_cell_length_c                   9.451(3)
_cell_angle_alpha                90
_cell_angle_beta                 98.74(1)
_cell_angle_gamma                90
_cell_volume                     896.354
loop_
_atom_site_label
_atom_site_type_symbol
_atom_site_fract_x
_atom_site_fract_y
_atom_site_fract_z
C1 C 0.45120 -0.04170 0.01050
C2 C 0.01980 -0.03960 0.46860
O1 O 0.49050 0.05160 0.38640
O2 O 0.05050 0.08710 0.13090
O3 O 0.36300 -0.04290 0.12610
O4 O 0.44500 -0.08810 -0.07800
O5 O 0.05310 -0.04300 0.35090
O6 O -0.02130 0.09180 0.43910
O7 O 0.32260 0.20870 0.29120
U1 U 0.27140 0.06730 0.25800
C1B C 0.54880 0.04170 -0.01050
U1B U 0.72860 -0.06730 -0.25800
O4B O 0.55500 0.08810 0.07800
C2B C -0.01980 0.03960 0.53140
O6B O 0.02130 -0.09180 0.56090
O3B O 0.63700 0.04290 -0.12610
O1B O 0.50950 -0.05160 -0.38640
O2B O 0.94950 -0.08710 -0.13090
O5B O 0.94690 0.04300 -0.35090
O6B_2 O 1.02130 -0.09180 -0.43910
O7B O 0.67740 -0.20870 -0.29120
O5B_2 O -0.05310 0.04300 0.64910
U1B_2 U -0.27140 -0.06730 0.74200
O8 O 0.67690 0.27610 0.48180
O9 O 0.96740 0.30180 0.23730
loop_
_geom_bond_atom_site_label_1
_geom_bond_atom_site_label_2
_geom_bond_site_symmetry_1
_geom_bond_site_symmetry_2
C1 O3 1_555 1_555
C2 O5 1_555 1_555
O1 U1 1_555 1_555
O2 U1 1_555 1_555
O3 U1 1_555 1_555
O4 C1 1_555 1_555
O5 U1 1_555 1_555
O6 U1 1_555 1_555
O7 U1 1_555 1_555
U1 O4B 1_555 1_555
C1B C1 1_555 1_555
U1B O4 1_555 1_555
O4B C1B 1_555 1_555
C2B C2 1_555 1_555
O6B C2 1_555 1_555
O3B C1B 1_555 1_555
O1B U1B 1_555 1_555
O2B U1B 1_555 1_555
O5B U1B 1_555 1_555
O6B_2 U1B 1_555 1_555
O7B U1B 1_555 1_555
O5B_2 C2B 1_555 1_555
U1B_2 O6B 1_555 1_555
O6 C2B 1_555 1_555
U1B O3B 1_555 1_555
O5B_2 U1B_2 1_555 1_555

#END
