
#######################################################################
#
#                 Cambridge Crystallographic Data Centre
#                                CCDC 
#
#######################################################################
#
# If this CIF has been generated from an entry in the Cambridge 
# Structural Database, then it will include bibliographic, chemical, 
# crystal, experimental, refinement or atomic coordinate data resulting 
# from the CCDC's data processing and validation procedures.
#
#######################################################################

data_UYOXIQ
_symmetry_cell_setting           triclinic
_symmetry_space_group_name_H-M   'P -1'
_symmetry_Int_Tables_number      2
_space_group_name_Hall           '-P 1'
loop_
_symmetry_equiv_pos_site_id
_symmetry_equiv_pos_as_xyz
1 x,y,z
2 -x,-y,-z
_cell_length_a                   9.786(2)
_cell_length_b                   11.081(2)
_cell_length_c                   11.696(2)
_cell_angle_alpha                118.23(3)
_cell_angle_beta                 102.05(3)
_cell_angle_gamma                95.28(3)
_cell_volume                     1065.7
loop_
_atom_site_label
_atom_site_type_symbol
_atom_site_fract_x
_atom_site_fract_y
_atom_site_fract_z
Eu1 Eu 0.597826(15) 1.089265(14) 0.357386(14)
Mn1 Mn -0.5000 1.0000 0.0000
O1 O 0.3969(2) 0.9577(3) 0.1314(2)
O2 O 0.3207(3) 1.0358(3) 0.3109(2)
O3 O -0.2209(3) 0.9830(3) 0.2459(2)
O4 O -0.3538(3) 0.8880(3) 0.0320(3)
O5 O -0.1740(4) 0.6076(4) -0.3357(3)
O6 O 0.0527(4) 0.6389(4) -0.3117(3)
O7 O 0.5284(3) 0.8642(2) 0.3204(3)
O8 O 0.4483(3) 0.7822(3) 0.4398(3)
O9 O 0.5057(3) 0.2938(3) 0.3471(3)
O10 O 0.6157(2) 0.1819(2) 0.1957(2)
O11 O 0.7522(4) 0.3688(3) -0.0701(3)
O12 O 0.7493(5) 0.5807(3) -0.0185(4)
O13 O 0.8062(3) 1.2856(3) 0.4775(3)
O14 O 0.7717(3) 1.0543(3) 0.5199(3)
N1 N -0.0499(4) 0.6628(4) -0.2672(3)
N2 N 0.7251(4) 0.4817(3) -0.0015(3)
C1 C 0.1441(3) 0.9100(3) 0.0965(3)
C2 C 0.0288(3) 0.9387(3) 0.1525(3)
C3 C -0.1112(3) 0.8811(3) 0.0675(3)
C4 C -0.1375(3) 0.7903(3) -0.0700(3)
C5 C -0.0230(4) 0.7606(3) -0.1218(3)
C6 C 0.1172(3) 0.8228(4) -0.0421(3)
C7 C 0.2952(3) 0.9725(3) 0.1863(3)
C8 C -0.2373(3) 0.9207(3) 0.1211(3)
C9 C 0.5495(3) 0.6359(3) 0.2725(3)
C10 C 0.5290(3) 0.5272(3) 0.3005(3)
C11 C 0.5712(3) 0.4026(3) 0.2267(3)
C12 C 0.6302(4) 0.3860(3) 0.1228(3)
C13 C 0.6545(4) 0.4974(3) 0.1021(3)
C14 C 0.6150(4) 0.6227(3) 0.1743(3)
C15 C 0.5051(3) 0.7717(3) 0.3507(3)
C16 C 0.5606(3) 0.2874(3) 0.2601(3)
H1 H 0.0438 0.9994 0.2466
H2 H -0.2226 0.7521 -0.1069
H3 H 0.1886 0.7964 -0.0699
H4 H 0.4887 0.5411 0.3679
H5 H 0.6583 0.2974 0.0665
H6 H 0.6460 0.7034 0.1669
H7 H 0.8251 1.3266 0.5637
H8 H 0.7231 1.0152 0.5446
H10 H 0.8468 1.3239 0.4417
H11 H 0.8560 1.0905 0.5396
Eu1A Eu -1.597826(15) 0.910735(14) -0.357386(14)
Eu1_2 Eu -1.402174(15) 1.089265(14) -0.642614(14)
Eu1_3 Eu -0.402174(15) 1.089265(14) 0.357386(14)
Eu1_4 Eu 0.597826(15) 0.089265(14) 0.357386(14)
Eu1A_2 Eu -1.597826(15) 1.910735(14) -0.357386(14)
Eu1A_3 Eu -0.597826(15) 0.910735(14) -0.357386(14)
Eu1A_4 Eu 0.402174(15) 0.910735(14) 0.642614(14)
Mn1_2 Mn -1.5000 1.0000 0.0000
Mn1_3 Mn -1.5000 2.0000 0.0000
Mn1_4 Mn 0.5000 0.0000 0.0000
Mn1_5 Mn 0.5000 1.0000 0.0000
O1A O -1.3969(2) 1.0423(3) -0.1314(2)
O1_2 O -0.6031(2) 0.9577(3) 0.1314(2)
O1A_2 O -0.3969(2) 1.0423(3) -0.1314(2)
O2A O -1.3207(3) 0.9642(3) -0.3109(2)
O3A O -0.7791(3) 1.0170(3) -0.2459(2)
O3_2 O 0.7791(3) 0.9830(3) 0.2459(2)
O3A_2 O -1.7791(3) 1.0170(3) -0.2459(2)
O4A O -0.6462(3) 1.1120(3) -0.0320(3)
O5A O -0.8260(4) 1.3924(4) 0.3357(3)
O6A O -1.0527(4) 1.3611(4) 0.3117(3)
O7A O -1.5284(3) 1.1358(2) -0.3204(3)
O8A O -1.4483(3) 1.2178(3) -0.4398(3)
O8_2 O -1.5517(3) 0.7822(3) -0.5602(3)
O8A_2 O 0.5517(3) 1.2178(3) 0.5602(3)
O9A O -1.5057(3) 1.7062(3) -0.3471(3)
O9_2 O 0.5057(3) 1.2938(3) 0.3471(3)
O9A_2 O -1.5057(3) 0.7062(3) -0.3471(3)
O10A O -1.6157(2) 1.8181(2) -0.1957(2)
O10_2 O -0.3843(2) 1.1819(2) 0.1957(2)
O10_3 O 0.6157(2) 1.1819(2) 0.1957(2)
O10A_2 O -1.6157(2) 0.8181(2) -0.1957(2)
O10A_3 O -0.6157(2) 0.8181(2) -0.1957(2)
O11A O -1.7522(4) 1.6312(3) 0.0701(3)
O12A O -1.7493(5) 1.4193(3) 0.0185(4)
O13A O -1.8062(3) 0.7144(3) -0.4775(3)
O14A O -1.7717(3) 0.9457(3) -0.5199(3)
N1A N -0.9501(4) 1.3372(4) 0.2672(3)
N2A N -1.7251(4) 1.5183(3) 0.0015(3)
C1A C -1.1441(3) 1.0900(3) -0.0965(3)
C2A C -1.0288(3) 1.0613(3) -0.1525(3)
C3A C -0.8888(3) 1.1189(3) -0.0675(3)
C4A C -0.8625(3) 1.2097(3) 0.0700(3)
C5A C -0.9770(4) 1.2394(3) 0.1218(3)
C6A C -1.1172(3) 1.1772(4) 0.0421(3)
C7A C -1.2952(3) 1.0275(3) -0.1863(3)
C8A C -0.7627(3) 1.0793(3) -0.1211(3)
C9A C -1.5495(3) 1.3641(3) -0.2725(3)
C10A C -1.5290(3) 1.4728(3) -0.3005(3)
C11A C -1.5712(3) 1.5974(3) -0.2267(3)
C12A C -1.6302(4) 1.6140(3) -0.1228(3)
C13A C -1.6545(4) 1.5026(3) -0.1021(3)
C14A C -1.6150(4) 1.3773(3) -0.1743(3)
C15A C -1.5051(3) 1.2283(3) -0.3507(3)
C16A C -1.5606(3) 1.7126(3) -0.2601(3)
H1A H -1.0438 1.0006 -0.2466
H2A H -0.7774 1.2479 0.1069
H3A H -1.1886 1.2036 0.0699
H4A H -1.4887 1.4589 -0.3679
H5A H -1.6583 1.7026 -0.0665
H6A H -1.6460 1.2966 -0.1669
H7A H -1.8251 0.6734 -0.5637
H8A H -1.7231 0.9848 -0.5446
H10A H -1.8468 0.6761 -0.4417
H11A H -1.8560 0.9095 -0.5396
O15 O 0.9394(4) 0.8294(4) 0.3570(4)
H12 H 0.8856 0.8661 0.3196
H14 H 0.9235 0.8241 0.4228
O16 O 0.0621(5) 0.5937(4) 0.2408(4)
H9 H -0.0178 0.5669 0.1738
H13 H 0.1381 0.6009 0.2121
O17 O 0.1704(6) 0.2343(5) 0.4733(5)
H15 H 0.1598 0.1961 0.3735
H16 H 0.1350 0.2997 0.5295
loop_
_geom_bond_atom_site_label_1
_geom_bond_atom_site_label_2
_geom_bond_site_symmetry_1
_geom_bond_site_symmetry_2
Eu1 O1 1_555 1_555
Mn1 O4 1_555 1_555
O1 C7 1_555 1_555
O2 Eu1 1_555 1_555
O3 C8 1_555 1_555
O4 C8 1_555 1_555
O5 N1 1_555 1_555
O6 N1 1_555 1_555
O7 Eu1 1_555 1_555
O8 C15 1_555 1_555
O9 C16 1_555 1_555
O10 C16 1_555 1_555
O11 N2 1_555 1_555
O12 N2 1_555 1_555
O13 Eu1 1_555 1_555
O14 Eu1 1_555 1_555
O15 H12 1_555 1_555
O16 H9 1_555 1_555
O17 H15 1_555 1_555
N1 C5 1_555 1_555
N2 C13 1_555 1_555
C1 C2 1_555 1_555
C2 C3 1_555 1_555
C3 C4 1_555 1_555
C4 C5 1_555 1_555
C5 C6 1_555 1_555
C6 C1 1_555 1_555
C7 O2 1_555 1_555
C8 C3 1_555 1_555
C9 C10 1_555 1_555
C10 C11 1_555 1_555
C11 C12 1_555 1_555
C12 C13 1_555 1_555
C13 C14 1_555 1_555
C14 C9 1_555 1_555
C15 O7 1_555 1_555
C16 C11 1_555 1_555
H1 C2 1_555 1_555
H2 C4 1_555 1_555
H3 C6 1_555 1_555
H4 C10 1_555 1_555
H5 C12 1_555 1_555
H6 C14 1_555 1_555
H7 O13 1_555 1_555
H8 O14 1_555 1_555
H10 O13 1_555 1_555
H11 O14 1_555 1_555
H13 O16 1_555 1_555
H14 O15 1_555 1_555
H16 O17 1_555 1_555
Eu1A O1A 1_555 1_555
Eu1_2 O8A 1_555 1_555
Eu1_3 O3 1_555 1_555
Eu1_4 O9 1_555 1_555
Eu1A_2 O9A 1_555 1_555
Eu1A_3 O1A_2 1_555 1_555
Eu1A_4 O8 1_555 1_555
Mn1_2 O1A 1_555 1_555
Mn1_3 O10A 1_555 1_555
Mn1_4 O10 1_555 1_555
Mn1_5 O1 1_555 1_555
O1A C7A 1_555 1_555
O1_2 Mn1 1_555 1_555
O1A_2 Mn1 1_555 1_555
O2A Eu1A 1_555 1_555
O3A Eu1A_3 1_555 1_555
O3_2 Eu1 1_555 1_555
O3A_2 Eu1A 1_555 1_555
O4A Mn1 1_555 1_555
O5A N1A 1_555 1_555
O6A N1A 1_555 1_555
O7A Eu1A 1_555 1_555
O8A C15A 1_555 1_555
O8_2 Eu1A 1_555 1_555
O8A_2 Eu1 1_555 1_555
O9A C16A 1_555 1_555
O9_2 Eu1 1_555 1_555
O9A_2 Eu1A 1_555 1_555
O10A Eu1A_2 1_555 1_555
O10_2 Mn1 1_555 1_555
O10_3 Eu1 1_555 1_555
O10A_2 Eu1A 1_555 1_555
O10A_3 Mn1 1_555 1_555
O11A N2A 1_555 1_555
O12A N2A 1_555 1_555
O13A Eu1A 1_555 1_555
O14A Eu1A 1_555 1_555
N1A C5A 1_555 1_555
N2A C13A 1_555 1_555
C1A C2A 1_555 1_555
C2A C3A 1_555 1_555
C3A C4A 1_555 1_555
C4A C5A 1_555 1_555
C5A C6A 1_555 1_555
C6A C1A 1_555 1_555
C7A O2A 1_555 1_555
C8A O3A 1_555 1_555
C9A C10A 1_555 1_555
C10A C11A 1_555 1_555
C11A C12A 1_555 1_555
C12A C13A 1_555 1_555
C13A C14A 1_555 1_555
C14A C9A 1_555 1_555
C15A O7A 1_555 1_555
C16A O10A 1_555 1_555
H1A C2A 1_555 1_555
H2A C4A 1_555 1_555
H3A C6A 1_555 1_555
H4A C10A 1_555 1_555
H5A C12A 1_555 1_555
H6A C14A 1_555 1_555
H7A O13A 1_555 1_555
H8A O14A 1_555 1_555
H10A O13A 1_555 1_555
H11A O14A 1_555 1_555
O10 Eu1_4 1_555 1_555
C1 C7 1_555 1_555
C9 C15 1_555 1_555
Eu1_3 O1_2 1_555 1_555
Eu1_3 O10_2 1_555 1_555
Eu1A_3 O10A_3 1_555 1_555
Mn1_2 O10A_2 1_555 1_555
Mn1_5 O10_3 1_555 1_555
O4A C8A 1_555 1_555
C1A C7A 1_555 1_555
C3A C8A 1_555 1_555
C9A C15A 1_555 1_555
C11A C16A 1_555 1_555

#END
