
#######################################################################
#
#                 Cambridge Crystallographic Data Centre
#                                CCDC 
#
#######################################################################
#
# If this CIF has been generated from an entry in the Cambridge 
# Structural Database, then it will include bibliographic, chemical, 
# crystal, experimental, refinement or atomic coordinate data resulting 
# from the CCDC's data processing and validation procedures.
#
#######################################################################

data_UYOXUC
_symmetry_cell_setting           rhombohedral
_symmetry_space_group_name_H-M   'R -3 c'
_symmetry_Int_Tables_number      167
_space_group_name_Hall           '-R 3 2"c'
loop_
_symmetry_equiv_pos_site_id
_symmetry_equiv_pos_as_xyz
1 x,y,z
2 -y,x-y,z
3 -x+y,-x,z
4 y,x,1/2-z
5 2/3+x,1/3+y,1/3+z
6 2/3-y,1/3+x-y,1/3+z
7 2/3-x+y,1/3-x,1/3+z
8 2/3+y,1/3+x,5/6-z
9 1/3+x,2/3+y,2/3+z
10 1/3+y,2/3+x,1/6-z
11 x-y,-y,1/2-z
12 -x,-x+y,1/2-z
13 1/3-y,2/3+x-y,2/3+z
14 1/3-x+y,2/3-x,2/3+z
15 1/3+x-y,2/3-y,1/6-z
16 1/3-x,2/3-x+y,1/6-z
17 2/3+x-y,1/3-y,5/6-z
18 2/3-x,1/3-x+y,5/6-z
19 -x,-y,-z
20 y,-x+y,-z
21 x-y,x,-z
22 -y,-x,1/2+z
23 1/3-x,2/3-y,2/3-z
24 1/3+y,2/3-x+y,2/3-z
25 1/3+x-y,2/3+x,2/3-z
26 1/3-y,2/3-x,1/6+z
27 2/3-x,1/3-y,1/3-z
28 2/3-y,1/3-x,5/6+z
29 -x+y,y,1/2+z
30 x,x-y,1/2+z
31 2/3+y,1/3-x+y,1/3-z
32 2/3+x-y,1/3+x,1/3-z
33 2/3-x+y,1/3+y,5/6+z
34 2/3+x,1/3+x-y,5/6+z
35 1/3-x+y,2/3+y,1/6+z
36 1/3+x,2/3+x-y,1/6+z
_cell_length_a                   25.126(1)
_cell_length_b                   25.126(1)
_cell_length_c                   32.427(2)
_cell_angle_alpha                90
_cell_angle_beta                 90
_cell_angle_gamma                120
_cell_volume                     17729
loop_
_atom_site_label
_atom_site_type_symbol
_atom_site_fract_x
_atom_site_fract_y
_atom_site_fract_z
Cd1 Cd 0.632554(12) 0.0000 0.2500
O1 O 0.63102(9) 0.08943(10) 0.22527(8)
C1 C 0.61263(13) 0.28534(13) 0.18757(10)
O2 O 0.38092(10) -0.01642(12) 0.12510(8)
O3 O 0.56043(11) 0.00015(10) 0.20111(8)
N1 N 0.65972(10) 0.27533(10) 0.18765(8)
N2 N 0.55456(13) 0.23673(13) 0.18682(12)
C2 C 0.53457(13) 0.17372(13) 0.18271(11)
C3 C 0.47835(13) 0.13790(14) 0.16396(11)
H1 H 0.4557 0.1557 0.1550
C4 C 0.58127(14) 0.05562(14) 0.20621(11)
C5 C 0.45524(12) 0.07522(14) 0.15828(10)
C6 C 0.39435(15) 0.03687(18) 0.13662(12)
C7 C 0.56751(13) 0.14659(13) 0.19668(10)
H2 H 0.6048 0.1702 0.2102
C8 C 0.54531(13) 0.08510(13) 0.19065(10)
C9 C 0.48964(14) 0.04950(14) 0.17136(11)
H3 H 0.4752 0.0079 0.1671
O4 O 0.36064(11) 0.05874(12) 0.13092(9)
H4 H 0.5323(17) 0.2424(15) 0.1822(12)
Cd1B Cd 0.367446(12) 0.367446(12) 0.2500
Cd1A Cd 1.0000 0.632554(12) 0.2500
Cd1EA Cd 0.299221(12) -0.034113(12) 0.0833
Cd1DA Cd 0.6667 0.700779(12) 0.0833
Cd1FA Cd 1.034113(12) 0.3333 0.0833
Cd1W Cd 0.3333 0.034113(12) 0.4167
Cd1IA Cd -0.034113(12) -0.700779(12) 0.4167
Cd1A_2 Cd 0.0000 -0.367446(12) 0.2500
Cd1HA Cd 0.700779(12) -0.3333 0.4167
Cd1B_2 Cd 0.367446(12) -0.632554(12) 0.2500
O1B O 0.45841(13) 0.36898(9) 0.22527(8)
O1A O 0.91057(10) 0.54159(13) 0.22527(8)
O1J O 0.54159(13) -0.08943(10) 0.27473(8)
O1C O 0.08943(10) -0.36898(9) 0.27473(8)
O1K O 0.36898(9) -0.54159(13) 0.27473(8)
O1K_2 O 0.36898(9) 0.45841(13) 0.27473(8)
O1C_2 O 1.08943(10) 0.63102(9) 0.27473(8)
C1A C 0.71466(13) 0.32729(18) 0.18757(10)
C1B C 0.67271(18) 0.38737(13) 0.18757(10)
C1J C 0.32729(18) -0.28534(13) 0.31243(10)
C1K C 0.38737(13) -0.32729(18) 0.31243(10)
C1C C 0.28534(13) -0.38737(13) 0.31243(10)
O2B O 0.60266(16) 0.61908(10) 0.12510(8)
O2A O 1.01642(12) 0.39734(16) 0.12510(8)
O2J O 0.39734(16) 0.01642(12) 0.37490(8)
O2C O -0.01642(12) -0.61908(10) 0.37490(8)
O2K O 0.61908(10) -0.39734(16) 0.37490(8)
O2IA O 0.71425(10) 0.06401(16) 0.29177(8)
O2DA O 0.65025(12) -0.06401(16) 0.20823(8)
O2Y O 0.34975(12) 0.28575(10) 0.29177(8)
O2Z O 0.28575(10) 0.34975(12) 0.20823(8)
O2HA O 0.93599(16) 0.65025(12) 0.29177(8)
O2EA O 1.06401(16) 0.71425(10) 0.20823(8)
O3B O 0.43972(15) 0.43957(11) 0.20111(8)
O3A O 0.99985(10) 0.56028(15) 0.20111(8)
O3J O 0.56028(15) -0.00015(10) 0.29889(8)
O3C O 0.00015(10) -0.43957(11) 0.29889(8)
O3K O 0.43957(11) -0.56028(15) 0.29889(8)
O3K_2 O 0.43957(11) 0.43972(15) 0.29889(8)
O3C_2 O 1.00015(10) 0.56043(11) 0.29889(8)
N1A N 0.72467(10) 0.38439(14) 0.18765(8)
N1B N 0.61561(14) 0.34028(10) 0.18765(8)
N1J N 0.38439(14) -0.27533(10) 0.31235(8)
N1K N 0.34028(10) -0.38439(14) 0.31235(8)
N1C N 0.27533(10) -0.34028(10) 0.31235(8)
N2B N 0.68217(18) 0.44544(13) 0.18682(12)
N2A N 0.76327(13) 0.31783(18) 0.18682(12)
N2J N 0.31783(18) -0.23673(13) 0.31318(12)
N2C N 0.23673(13) -0.44544(13) 0.31318(12)
N2K N 0.44544(13) -0.31783(18) 0.31318(12)
C2B C 0.63915(18) 0.46543(13) 0.18271(11)
C2A C 0.82628(13) 0.36085(18) 0.18271(11)
C2J C 0.36085(18) -0.17372(13) 0.31729(11)
C2C C 0.17372(13) -0.46543(13) 0.31729(11)
C2K C 0.46543(13) -0.36085(18) 0.31729(11)
C3B C 0.65955(19) 0.52165(13) 0.16396(11)
C3A C 0.86210(14) 0.34045(19) 0.16396(11)
C3J C 0.34045(19) -0.13790(14) 0.33604(11)
C3C C 0.13790(14) -0.52165(13) 0.33604(11)
C3K C 0.52165(13) -0.34045(19) 0.33604(11)
H1B H 0.7000 0.5443 0.1550
H1A H 0.8443 0.3000 0.1550
H1J H 0.3000 -0.1557 0.3450
H1C H 0.1557 -0.5443 0.3450
H1K H 0.5443 -0.3000 0.3450
C4B C 0.47435(20) 0.41873(14) 0.20621(11)
C4A C 0.94438(14) 0.52565(20) 0.20621(11)
C4J C 0.52565(20) -0.05562(14) 0.29379(11)
C4C C 0.05562(14) -0.41873(14) 0.29379(11)
C4K C 0.41873(14) -0.52565(20) 0.29379(11)
C5B C 0.61998(18) 0.54476(12) 0.15828(10)
C5A C 0.92478(14) 0.38002(18) 0.15828(10)
C5J C 0.38002(18) -0.07522(14) 0.34172(10)
C5C C 0.07522(14) -0.54476(12) 0.34172(10)
C5K C 0.54476(12) -0.38002(18) 0.34172(10)
C6B C 0.64252(23) 0.60565(15) 0.13662(12)
C6A C 0.96313(18) 0.35748(23) 0.13662(12)
C6J C 0.35748(23) -0.03687(18) 0.36338(12)
C6C C 0.03687(18) -0.60565(15) 0.36338(12)
C6K C 0.60565(15) -0.35748(23) 0.36338(12)
C7B C 0.57908(18) 0.43249(13) 0.19668(10)
C7A C 0.85341(13) 0.42092(18) 0.19668(10)
C7J C 0.42092(18) -0.14659(13) 0.30332(10)
C7C C 0.14659(13) -0.43249(13) 0.30332(10)
C7K C 0.43249(13) -0.42092(18) 0.30332(10)
H2B H 0.5654 0.3952 0.2102
H2A H 0.8298 0.4346 0.2102
H2J H 0.4346 -0.1702 0.2898
H2C H 0.1702 -0.3952 0.2898
H2K H 0.3952 -0.4346 0.2898
C8B C 0.53979(18) 0.45469(13) 0.19065(10)
C8A C 0.91490(13) 0.46021(18) 0.19065(10)
C8J C 0.46021(18) -0.08510(13) 0.30935(10)
C8C C 0.08510(13) -0.45469(13) 0.30935(10)
C8K C 0.45469(13) -0.46021(18) 0.30935(10)
C9B C 0.55986(20) 0.51036(14) 0.17136(11)
C9A C 0.95050(14) 0.44014(20) 0.17136(11)
C9J C 0.44014(20) -0.04950(14) 0.32864(11)
C9C C 0.04950(14) -0.51036(14) 0.32864(11)
C9K C 0.51036(14) -0.44014(20) 0.32864(11)
H3B H 0.5327 0.5248 0.1671
H3A H 0.9921 0.4673 0.1671
H3J H 0.4673 -0.0079 0.3329
H3C H 0.0079 -0.5248 0.3329
H3K H 0.5248 -0.4673 0.3329
O4B O 0.69810(16) 0.63936(11) 0.13092(9)
O4A O 0.94126(12) 0.30190(16) 0.13092(9)
O4J O 0.30190(16) -0.05874(12) 0.36908(9)
O4C O 0.05874(12) -0.63936(11) 0.36908(9)
O4K O 0.63936(11) -0.30190(16) 0.36908(9)
O4IA O 0.69397(11) -0.03143(16) 0.29759(9)
O4DA O 0.72541(12) 0.03143(16) 0.20241(9)
O4Y O 0.27459(12) 0.30603(11) 0.29759(9)
O4Z O 0.30603(11) 0.27459(12) 0.20241(9)
O4HA O 1.03143(16) 0.72541(12) 0.29759(9)
O4EA O 0.96857(16) 0.69397(11) 0.20241(9)
H4B H 0.7101(23) 0.4677(17) 0.1822(12)
H4A H 0.7576(15) 0.2899(23) 0.1822(12)
H4J H 0.2899(23) -0.2424(15) 0.3178(12)
H4C H 0.2424(15) -0.4677(17) 0.3178(12)
H4K H 0.4677(17) -0.2899(23) 0.3178(12)
loop_
_geom_bond_atom_site_label_1
_geom_bond_atom_site_label_2
_geom_bond_site_symmetry_1
_geom_bond_site_symmetry_2
Cd1 O1 1_555 1_555
O1 C4 1_555 1_555
C1 N1 1_555 1_555
O2 C6 1_555 1_555
O3 Cd1 1_555 1_555
N1 C1A 1_555 1_555
N2 C1 1_555 1_555
C2 N2 1_555 1_555
C3 C2 1_555 1_555
H1 C3 1_555 1_555
C4 O3 1_555 1_555
C5 C3 1_555 1_555
C6 C5 1_555 1_555
C7 C2 1_555 1_555
H2 C7 1_555 1_555
C8 C4 1_555 1_555
C9 C5 1_555 1_555
H3 C9 1_555 1_555
O4 C6 1_555 1_555
H4 N2 1_555 1_555
Cd1B O1B 1_555 1_555
Cd1A O1A 1_555 1_555
Cd1EA O2 1_555 1_555
Cd1DA O2B 1_555 1_555
Cd1FA O2A 1_555 1_555
Cd1W O2J 1_555 1_555
Cd1IA O2C 1_555 1_555
Cd1A_2 O1C 1_555 1_555
Cd1HA O2K 1_555 1_555
Cd1B_2 O1K 1_555 1_555
O1B C4B 1_555 1_555
O1A C4A 1_555 1_555
O1J Cd1 1_555 1_555
O1C C4C 1_555 1_555
O1K C4K 1_555 1_555
O1K_2 Cd1B 1_555 1_555
O1C_2 Cd1A 1_555 1_555
C1A N1A 1_555 1_555
C1B N1A 1_555 1_555
C1J N1J 1_555 1_555
C1K N1J 1_555 1_555
C1C N1K 1_555 1_555
O2B C6B 1_555 1_555
O2A C6A 1_555 1_555
O2J C6J 1_555 1_555
O2C C6C 1_555 1_555
O2K C6K 1_555 1_555
O2IA Cd1 1_555 1_555
O2DA Cd1 1_555 1_555
O2Y Cd1B 1_555 1_555
O2Z Cd1B 1_555 1_555
O2HA Cd1A 1_555 1_555
O2EA Cd1A 1_555 1_555
O3B Cd1B 1_555 1_555
O3A Cd1A 1_555 1_555
O3J Cd1 1_555 1_555
O3C Cd1A_2 1_555 1_555
O3K Cd1B_2 1_555 1_555
O3K_2 Cd1B 1_555 1_555
O3C_2 Cd1A 1_555 1_555
N1B C1 1_555 1_555
N1K C1K 1_555 1_555
N1C C1J 1_555 1_555
N2B C1B 1_555 1_555
N2A C1A 1_555 1_555
N2J C1J 1_555 1_555
N2C C1C 1_555 1_555
N2K C1K 1_555 1_555
C2B N2B 1_555 1_555
C2A N2A 1_555 1_555
C2J N2J 1_555 1_555
C2C N2C 1_555 1_555
C2K N2K 1_555 1_555
C3B C2B 1_555 1_555
C3A C2A 1_555 1_555
C3J C2J 1_555 1_555
C3C C2C 1_555 1_555
C3K C2K 1_555 1_555
H1B C3B 1_555 1_555
H1A C3A 1_555 1_555
H1J C3J 1_555 1_555
H1C C3C 1_555 1_555
H1K C3K 1_555 1_555
C4B O3B 1_555 1_555
C4A O3A 1_555 1_555
C4J O1J 1_555 1_555
C4C O3C 1_555 1_555
C4K O3K 1_555 1_555
C5B C3B 1_555 1_555
C5A C3A 1_555 1_555
C5J C3J 1_555 1_555
C5C C3C 1_555 1_555
C5K C3K 1_555 1_555
C6B C5B 1_555 1_555
C6A C5A 1_555 1_555
C6J C5J 1_555 1_555
C6C C5C 1_555 1_555
C6K C5K 1_555 1_555
C7B C2B 1_555 1_555
C7A C2A 1_555 1_555
C7J C2J 1_555 1_555
C7C C2C 1_555 1_555
C7K C2K 1_555 1_555
H2B C7B 1_555 1_555
H2A C7A 1_555 1_555
H2J C7J 1_555 1_555
H2C C7C 1_555 1_555
H2K C7K 1_555 1_555
C8B C4B 1_555 1_555
C8A C4A 1_555 1_555
C8J C4J 1_555 1_555
C8C C4C 1_555 1_555
C8K C4K 1_555 1_555
C9B C5B 1_555 1_555
C9A C5A 1_555 1_555
C9J C5J 1_555 1_555
C9C C5C 1_555 1_555
C9K C5K 1_555 1_555
H3B C9B 1_555 1_555
H3A C9A 1_555 1_555
H3J C9J 1_555 1_555
H3C C9C 1_555 1_555
H3K C9K 1_555 1_555
O4B Cd1DA 1_555 1_555
O4A Cd1FA 1_555 1_555
O4J Cd1W 1_555 1_555
O4C Cd1IA 1_555 1_555
O4K Cd1HA 1_555 1_555
O4IA Cd1 1_555 1_555
O4DA Cd1 1_555 1_555
O4Y Cd1B 1_555 1_555
O4Z Cd1B 1_555 1_555
O4HA Cd1A 1_555 1_555
O4EA Cd1A 1_555 1_555
H4B N2B 1_555 1_555
H4A N2A 1_555 1_555
H4J N2J 1_555 1_555
H4C N2C 1_555 1_555
H4K N2K 1_555 1_555
C7 C8 1_555 1_555
C8 C9 1_555 1_555
O4 Cd1EA 1_555 1_555
C1B N1B 1_555 1_555
C1C N1C 1_555 1_555
O3J C4J 1_555 1_555
C6B O4B 1_555 1_555
C6A O4A 1_555 1_555
C6J O4J 1_555 1_555
C6C O4C 1_555 1_555
C6K O4K 1_555 1_555
C7B C8B 1_555 1_555
C7A C8A 1_555 1_555
C7J C8J 1_555 1_555
C7C C8C 1_555 1_555
C7K C8K 1_555 1_555
C8B C9B 1_555 1_555
C8A C9A 1_555 1_555
C8J C9J 1_555 1_555
C8C C9C 1_555 1_555
C8K C9K 1_555 1_555

#END
