
#######################################################################
#
#                 Cambridge Crystallographic Data Centre
#                                CCDC 
#
#######################################################################
#
# If this CIF has been generated from an entry in the Cambridge 
# Structural Database, then it will include bibliographic, chemical, 
# crystal, experimental, refinement or atomic coordinate data resulting 
# from the CCDC's data processing and validation procedures.
#
#######################################################################

data_UYOXAL02
_symmetry_cell_setting           monoclinic
_symmetry_space_group_name_H-M   'P 21/c'
_symmetry_Int_Tables_number      14
_space_group_name_Hall           '-P 2ybc'
loop_
_symmetry_equiv_pos_site_id
_symmetry_equiv_pos_as_xyz
1 x,y,z
2 -x,1/2+y,1/2-z
3 -x,-y,-z
4 x,1/2-y,1/2+z
_cell_length_a                   5.5921(4)
_cell_length_b                   16.9931(13)
_cell_length_c                   9.3594(7)
_cell_angle_alpha                90
_cell_angle_beta                 99.5330(10)
_cell_angle_gamma                90
_cell_volume                     877.115
loop_
_atom_site_label
_atom_site_type_symbol
_atom_site_fract_x
_atom_site_fract_y
_atom_site_fract_z
U1 U 0.73053(3) 0.431479(10) 0.241118(17)
O1 O 0.4443(6) 0.4461(2) 0.1335(4)
O2 O 1.0139(6) 0.4127(2) 0.3493(4)
O3 O 0.8921(6) 0.4055(2) 0.0227(4)
O4 O 1.0783(6) 0.4545(2) -0.1527(3)
O5 O 0.6397(6) 0.5479(2) 0.3717(4)
O6 O 0.4563(6) 0.5972(2) 0.5478(4)
O7 O 0.6707(7) 0.2950(2) 0.2138(4)
C1 C 0.9902(8) 0.4594(3) -0.0370(5)
C2 C 0.5276(9) 0.5415(3) 0.4763(5)
H1 H 0.549(11) 0.276(4) 0.149(7)
H2 H 0.791(11) 0.257(4) 0.220(8)
U1B U 1.26947(3) 0.568521(10) -0.241118(17)
U1B_2 U 0.26947(3) 0.568521(10) 0.758882(17)
O1B O 1.5557(6) 0.5539(2) -0.1335(4)
O2B O 0.9861(6) 0.5873(2) -0.3493(4)
O3B O 1.1079(6) 0.5945(2) -0.0227(4)
O4B O 0.9217(6) 0.5455(2) 0.1527(3)
O5B O 0.3603(6) 0.4521(2) 0.6283(4)
O5B_2 O 1.3603(6) 0.4521(2) -0.3717(4)
O6B O 0.5437(6) 0.4028(2) 0.4522(4)
O6_2 O 1.4563(6) 0.5972(2) -0.4522(4)
O7B O 1.3293(7) 0.7050(2) -0.2138(4)
C1B C 1.0098(8) 0.5406(3) 0.0370(5)
C2B C 0.4724(9) 0.4585(3) 0.5237(5)
H1B H 1.451(11) 0.724(4) -0.149(7)
H2B H 1.209(11) 0.743(4) -0.220(8)
O8 O 0.0602(7) 0.2041(2) 0.2570(4)
H3 H 0.035(13) 0.153(3) 0.281(8)
H4 H 0.155(12) 0.206(5) 0.188(7)
O9 O 0.3110(7) 0.2350(2) 0.0252(4)
H5 H 0.357(13) 0.187(3) -0.003(8)
H6 H 0.219(12) 0.253(4) -0.053(6)
loop_
_geom_bond_atom_site_label_1
_geom_bond_atom_site_label_2
_geom_bond_site_symmetry_1
_geom_bond_site_symmetry_2
U1 O1 1_555 1_555
O2 U1 1_555 1_555
O3 U1 1_555 1_555
O4 C1 1_555 1_555
O5 U1 1_555 1_555
O6 C2 1_555 1_555
O7 U1 1_555 1_555
O8 H3 1_555 1_555
O9 H5 1_555 1_555
C1 O3 1_555 1_555
C2 O5 1_555 1_555
H1 O7 1_555 1_555
H2 O7 1_555 1_555
H4 O8 1_555 1_555
H6 O9 1_555 1_555
U1B O4 1_555 1_555
U1B_2 O6 1_555 1_555
O1B U1B 1_555 1_555
O2B U1B 1_555 1_555
O3B U1B 1_555 1_555
O4B U1 1_555 1_555
O5B U1B_2 1_555 1_555
O5B_2 U1B 1_555 1_555
O6B U1 1_555 1_555
O6_2 U1B 1_555 1_555
O7B U1B 1_555 1_555
C1B C1 1_555 1_555
C2B C2 1_555 1_555
H1B O7B 1_555 1_555
H2B O7B 1_555 1_555
O3B C1B 1_555 1_555
O4B C1B 1_555 1_555
O5B C2B 1_555 1_555
O6B C2B 1_555 1_555

#END
