
#######################################################################
#
#                 Cambridge Crystallographic Data Centre
#                                CCDC 
#
#######################################################################
#
# If this CIF has been generated from an entry in the Cambridge 
# Structural Database, then it will include bibliographic, chemical, 
# crystal, experimental, refinement or atomic coordinate data resulting 
# from the CCDC's data processing and validation procedures.
#
#######################################################################

data_UYUBAS
_symmetry_cell_setting           monoclinic
_symmetry_space_group_name_H-M   'C 2/c'
_symmetry_Int_Tables_number      15
_space_group_name_Hall           '-C 2yn'
loop_
_symmetry_equiv_pos_site_id
_symmetry_equiv_pos_as_xyz
1 x,y,z
2 -x,y,1/2-z
3 1/2+x,1/2+y,z
4 1/2-x,1/2+y,1/2-z
5 -x,-y,-z
6 x,-y,1/2+z
7 1/2-x,1/2-y,-z
8 1/2+x,1/2-y,1/2+z
_cell_length_a                   27.50(2)
_cell_length_b                   6.207(4)
_cell_length_c                   16.233(11)
_cell_angle_alpha                90
_cell_angle_beta                 107.522(14)
_cell_angle_gamma                90
_cell_volume                     2642.29
loop_
_atom_site_label
_atom_site_type_symbol
_atom_site_fract_x
_atom_site_fract_y
_atom_site_fract_z
Zn1 Zn 0.207141(10) 0.88037(5) 0.037649(19)
O1 O 0.17200(7) 0.6359(3) -0.03706(13)
O2 O 0.22003(7) 0.0084(4) -0.07439(12)
O3 O 0.21655(8) 0.0147(4) -0.21203(13)
C1 C 0.14031(9) 0.3752(4) -0.14477(17)
O4 O 0.0000 0.6677(5) -0.2500
C2 C 0.18325(9) 0.5096(4) -0.08897(16)
C3 C 0.04985(10) 0.3549(4) -0.22325(18)
C4 C 0.09159(9) 0.4637(4) -0.16903(17)
H1 H 0.0867 0.5993 -0.1485
C5 C 0.19903(9) 0.0587(4) -0.15124(17)
C6 C 0.09905(10) 1.0237(5) -0.0083(2)
H2 H 0.0949 0.9004 -0.0423
C7 C 0.05726(10) 0.1492(5) -0.25319(19)
H3 H 0.0298 0.0724 -0.2884
N1 N 0.14616(9) 1.0794(4) 0.03844(16)
C8 C 0.0000 0.4721(6) -0.2500
C9 C 0.15141(11) 1.2563(5) 0.0867(2)
H4 H 0.1840 1.2971 0.1197
C10 C 0.14758(9) 0.1705(4) -0.17568(16)
C11 C 0.05619(12) 1.1397(5) -0.0088(2)
H5 H 0.0241 1.0942 -0.0424
C12 C 0.10602(10) 0.0609(5) -0.22983(19)
H6 H 0.1109 -0.0741 -0.2508
C13 C 0.11032(13) 1.3827(5) 0.0898(2)
H7 H 0.1157 1.5053 0.1244
C14 C 0.06113(12) 1.3262(5) 0.0415(2)
C15 C 0.01554(13) 1.4565(7) 0.0435(2)
H8 H 0.0270 1.5766 0.0828
H9 H -0.0063 1.3675 0.0665
O5 O 0.22612(6) 0.4886(3) -0.10129(12)
O6 O 0.20158(7) 0.7334(3) 0.14904(12)
H10 H 0.2030(12) 0.831(4) 0.1863(16)
H11 H 0.2261(9) 0.646(4) 0.168(2)
Zn1A Zn -0.207141(10) 0.88037(5) -0.537649(19)
Zn1_2 Zn 0.207141(10) -0.11963(5) 0.037649(19)
Zn1A_2 Zn -0.207141(10) -0.11963(5) -0.537649(19)
Zn1D Zn -0.207141(10) 2.11963(5) -0.037649(19)
Zn1F Zn 0.292859(10) 0.61963(5) -0.037649(19)
Zn1G Zn -0.292859(10) 0.61963(5) -0.462351(19)
O1A O -0.17200(7) 0.6359(3) -0.46294(13)
O2A O -0.22003(7) 0.0084(4) -0.42561(12)
O2_2 O 0.22003(7) 1.0084(4) -0.07439(12)
O2A_2 O -0.22003(7) 1.0084(4) -0.42561(12)
O3A O -0.21655(8) 0.0147(4) -0.28797(13)
C1A C -0.14031(9) 0.3752(4) -0.35523(17)
C2A C -0.18325(9) 0.5096(4) -0.41103(16)
C3A C -0.04985(10) 0.3549(4) -0.27675(18)
C4A C -0.09159(9) 0.4637(4) -0.33097(17)
H1A H -0.0867 0.5993 -0.3515
C5A C -0.19903(9) 0.0587(4) -0.34876(17)
C6D C -0.09905(10) 1.9763(5) 0.0083(2)
H2D H -0.0949 2.0996 0.0423
C7A C -0.05726(10) 0.1492(5) -0.24681(19)
H3A H -0.0298 0.0724 -0.2116
N1D N -0.14616(9) 1.9206(4) -0.03844(16)
N1A N -0.14616(9) 1.0794(4) -0.53844(16)
C9D C -0.15141(11) 1.7437(5) -0.0867(2)
H4D H -0.1840 1.7029 -0.1197
C10A C -0.14758(9) 0.1705(4) -0.32432(16)
C11D C -0.05619(12) 1.8603(5) 0.0088(2)
H5D H -0.0241 1.9058 0.0424
C12A C -0.10602(10) 0.0609(5) -0.27017(19)
H6A H -0.1109 -0.0741 -0.2492
C13D C -0.11032(13) 1.6173(5) -0.0898(2)
H7D H -0.1157 1.4947 -0.1244
C14D C -0.06113(12) 1.6738(5) -0.0415(2)
C15D C -0.01554(13) 1.5435(7) -0.0435(2)
H8D H -0.0270 1.4234 -0.0828
H9D H 0.0063 1.6325 -0.0665
O5A O -0.22612(6) 0.4886(3) -0.39871(12)
O5F O 0.27388(6) 1.0114(3) 0.10129(12)
O5G O -0.27388(6) 1.0114(3) -0.60129(12)
O6A O -0.20158(7) 0.7334(3) -0.64904(12)
H10A H -0.2030(12) 0.831(4) -0.6863(16)
H11A H -0.2261(9) 0.646(4) -0.668(2)
loop_
_geom_bond_atom_site_label_1
_geom_bond_atom_site_label_2
_geom_bond_site_symmetry_1
_geom_bond_site_symmetry_2
Zn1 O1 1_555 1_555
O1 C2 1_555 1_555
O2 C5 1_555 1_555
O3 C5 1_555 1_555
C1 C2 1_555 1_555
O4 C8 1_555 1_555
C2 O5 1_555 1_555
C3 C4 1_555 1_555
C4 C1 1_555 1_555
H1 C4 1_555 1_555
C5 C10 1_555 1_555
C6 H2 1_555 1_555
C7 C3 1_555 1_555
H3 C7 1_555 1_555
N1 Zn1 1_555 1_555
C8 C3 1_555 1_555
C9 N1 1_555 1_555
H4 C9 1_555 1_555
C10 C1 1_555 1_555
C11 C6 1_555 1_555
H5 C11 1_555 1_555
C12 C7 1_555 1_555
H6 C12 1_555 1_555
C13 C9 1_555 1_555
H7 C13 1_555 1_555
C14 C11 1_555 1_555
C15 C14 1_555 1_555
H8 C15 1_555 1_555
H9 C15 1_555 1_555
O5 Zn1F 1_555 1_555
O6 Zn1 1_555 1_555
H10 O6 1_555 1_555
H11 O6 1_555 1_555
Zn1A O1A 1_555 1_555
Zn1_2 O2 1_555 1_555
Zn1A_2 O2A 1_555 1_555
Zn1D N1D 1_555 1_555
Zn1G O5A 1_555 1_555
O1A C2A 1_555 1_555
O2A C5A 1_555 1_555
O2_2 Zn1 1_555 1_555
O2A_2 Zn1A 1_555 1_555
O3A C5A 1_555 1_555
C1A C2A 1_555 1_555
C2A O5A 1_555 1_555
C3A C8 1_555 1_555
C4A C1A 1_555 1_555
H1A C4A 1_555 1_555
C5A C10A 1_555 1_555
C6D H2D 1_555 1_555
C7A C3A 1_555 1_555
H3A C7A 1_555 1_555
N1D C6D 1_555 1_555
N1A Zn1A 1_555 1_555
C9D N1D 1_555 1_555
H4D C9D 1_555 1_555
C10A C1A 1_555 1_555
C11D C6D 1_555 1_555
H5D C11D 1_555 1_555
C12A C7A 1_555 1_555
H6A C12A 1_555 1_555
C13D C9D 1_555 1_555
H7D C13D 1_555 1_555
C14D C11D 1_555 1_555
C15D C15 1_555 1_555
H8D C15D 1_555 1_555
H9D C15D 1_555 1_555
O5F Zn1 1_555 1_555
O5G Zn1A 1_555 1_555
O6A Zn1A 1_555 1_555
H10A O6A 1_555 1_555
H11A O6A 1_555 1_555
C6 N1 1_555 1_555
C10 C12 1_555 1_555
C13 C14 1_555 1_555
C3A C4A 1_555 1_555
C10A C12A 1_555 1_555
C13D C14D 1_555 1_555
C14D C15D 1_555 1_555

#END
