
#######################################################################
#
#                 Cambridge Crystallographic Data Centre
#                                CCDC 
#
#######################################################################
#
# If this CIF has been generated from an entry in the Cambridge 
# Structural Database, then it will include bibliographic, chemical, 
# crystal, experimental, refinement or atomic coordinate data resulting 
# from the CCDC's data processing and validation procedures.
#
#######################################################################

data_UYUBOG
_symmetry_cell_setting           monoclinic
_symmetry_space_group_name_H-M   'P 21/c'
_symmetry_Int_Tables_number      14
_space_group_name_Hall           '-P 2ybc'
loop_
_symmetry_equiv_pos_site_id
_symmetry_equiv_pos_as_xyz
1 x,y,z
2 -x,1/2+y,1/2-z
3 -x,-y,-z
4 x,1/2-y,1/2+z
_cell_length_a                   7.5225(3)
_cell_length_b                   17.2416(6)
_cell_length_c                   8.6089(3)
_cell_angle_alpha                90
_cell_angle_beta                 110.9610(10)
_cell_angle_gamma                90
_cell_volume                     1042.68
loop_
_atom_site_label
_atom_site_type_symbol
_atom_site_fract_x
_atom_site_fract_y
_atom_site_fract_z
Ce1 Ce 0.670164(17) 0.412059(7) 0.244042(15)
O1 O 0.7776(2) 0.29920(10) 0.4481(2)
O2 O 0.7217(2) 0.20165(10) 0.5919(2)
O3 O 0.4192(3) 0.08040(10) 0.4699(2)
O4 O 0.2341(3) 0.06032(10) 0.2088(2)
O5 O 0.3979(3) 0.48714(11) 0.2849(2)
O6 O 0.2864(2) 0.55013(10) 0.4573(2)
O7 O 0.8462(3) 0.45010(11) 0.0477(2)
H1 H 0.7901 0.4841 -0.0165
H2 H 0.8436 0.4140 -0.0159
O8 O 1.0269(3) 0.41299(10) 0.3831(3)
H3 H 1.0742 0.4400 0.3333
H4 H 1.0910 0.4197 0.4935
N1 N 0.4112(3) 0.31179(12) 0.2527(3)
N2 N 0.1874(3) 0.22348(12) 0.1633(3)
H7 H 0.0816 0.2020 0.1044
C1 C 0.2382(4) 0.29676(14) 0.1488(3)
H8 H 0.1606 0.3326 0.0745
C2 C 0.3287(3) 0.10432(14) 0.3257(3)
C3 C 0.3344(3) 0.18851(14) 0.2892(3)
C4 C 0.4730(3) 0.24500(13) 0.3445(3)
C5 C 0.6700(3) 0.24718(12) 0.4704(3)
C6 C 0.4095(3) 0.51077(13) 0.4254(3)
Ce1B Ce 0.329836(17) 0.587941(7) 0.755958(15)
Ce1A Ce 0.329836(17) -0.087941(7) 0.255958(15)
Ce1A_2 Ce 0.329836(17) 0.912059(7) 0.255958(15)
Ce1C Ce 0.670164(17) 0.087941(7) 0.744042(15)
Ce1C_2 Ce 0.670164(17) 1.087941(7) 0.744042(15)
O1B O 0.2224(2) 0.70080(10) 0.5519(2)
O2B O 0.2783(2) 0.79835(10) 0.4081(2)
O2A O 0.2783(2) 0.70165(10) 0.9081(2)
O2C O 0.7217(2) 0.29835(10) 0.0919(2)
O3B O 0.5808(3) 0.91960(10) 0.5301(2)
O3A O 0.5808(3) 0.58040(10) 1.0301(2)
O3C O 0.4192(3) 0.41960(10) -0.0301(2)
O4B O 0.7659(3) 0.93968(10) 0.7912(2)
O4A O 0.7659(3) 0.56032(10) 0.2912(2)
O4C O 0.2341(3) 0.43968(10) 0.7088(2)
O5B O 0.6021(3) 0.51286(11) 0.7151(2)
O6B O 0.7136(2) 0.44987(10) 0.5427(2)
O7B O 0.1538(3) 0.54990(11) 0.9523(2)
H1B H 0.2099 0.5159 1.0165
H2B H 0.1564 0.5860 1.0159
O8B O -0.0269(3) 0.58701(10) 0.6169(3)
H3B H -0.0742 0.5600 0.6667
H4B H -0.0910 0.5803 0.5065
N1B N 0.5888(3) 0.68821(12) 0.7473(3)
N2B N 0.8126(3) 0.77652(12) 0.8367(3)
H7B H 0.9184 0.7980 0.8956
C1B C 0.7618(4) 0.70324(14) 0.8512(3)
H8B H 0.8394 0.6674 0.9255
C2B C 0.6713(3) 0.89568(14) 0.6743(3)
C3B C 0.6656(3) 0.81149(14) 0.7108(3)
C4B C 0.5270(3) 0.75500(13) 0.6555(3)
C5B C 0.3300(3) 0.75282(12) 0.5296(3)
C6B C 0.5905(3) 0.48923(13) 0.5746(3)
O9 O 0.9000(3) 0.35145(12) -0.1854(2)
H5 H 0.8564 0.3817 -0.2699
H6 H 0.8781 0.3053 -0.2093
loop_
_geom_bond_atom_site_label_1
_geom_bond_atom_site_label_2
_geom_bond_site_symmetry_1
_geom_bond_site_symmetry_2
Ce1 O1 1_555 1_555
O1 C5 1_555 1_555
O2 C5 1_555 1_555
O3 C2 1_555 1_555
O4 C2 1_555 1_555
O5 Ce1 1_555 1_555
O6 C6 1_555 1_555
O7 Ce1 1_555 1_555
H1 O7 1_555 1_555
H2 O7 1_555 1_555
O8 Ce1 1_555 1_555
H3 O8 1_555 1_555
H4 O8 1_555 1_555
O9 H5 1_555 1_555
H6 O9 1_555 1_555
N1 Ce1 1_555 1_555
N2 H7 1_555 1_555
C1 N1 1_555 1_555
H8 C1 1_555 1_555
C2 C3 1_555 1_555
C3 N2 1_555 1_555
C4 N1 1_555 1_555
C5 C4 1_555 1_555
C6 O5 1_555 1_555
Ce1B O6 1_555 1_555
Ce1A O4 1_555 1_555
Ce1A_2 O2B 1_555 1_555
Ce1C O2 1_555 1_555
Ce1C_2 O4B 1_555 1_555
O1B Ce1B 1_555 1_555
O2B C5B 1_555 1_555
O2A Ce1B 1_555 1_555
O2C Ce1 1_555 1_555
O3B Ce1A_2 1_555 1_555
O3A Ce1B 1_555 1_555
O3C Ce1 1_555 1_555
O4B C2B 1_555 1_555
O4A Ce1 1_555 1_555
O4C Ce1B 1_555 1_555
O5B Ce1B 1_555 1_555
O6B Ce1 1_555 1_555
O7B Ce1B 1_555 1_555
H1B O7B 1_555 1_555
H2B O7B 1_555 1_555
O8B Ce1B 1_555 1_555
H3B O8B 1_555 1_555
H4B O8B 1_555 1_555
N1B Ce1B 1_555 1_555
N2B H7B 1_555 1_555
C1B N1B 1_555 1_555
H8B C1B 1_555 1_555
C2B O3B 1_555 1_555
C3B N2B 1_555 1_555
C4B N1B 1_555 1_555
C5B O1B 1_555 1_555
C6B C6 1_555 1_555
O3 Ce1C 1_555 1_555
N2 C1 1_555 1_555
C3 C4 1_555 1_555
O5B C6B 1_555 1_555
O6B C6B 1_555 1_555
N2B C1B 1_555 1_555
C2B C3B 1_555 1_555
C3B C4B 1_555 1_555
C4B C5B 1_555 1_555

#END
