
#######################################################################
#
#                 Cambridge Crystallographic Data Centre
#                                CCDC 
#
#######################################################################
#
# If this CIF has been generated from an entry in the Cambridge 
# Structural Database, then it will include bibliographic, chemical, 
# crystal, experimental, refinement or atomic coordinate data resulting 
# from the CCDC's data processing and validation procedures.
#
#######################################################################

data_UYUKEF
_symmetry_cell_setting           triclinic
_symmetry_space_group_name_H-M   'P -1'
_symmetry_Int_Tables_number      2
_space_group_name_Hall           '-P 1'
loop_
_symmetry_equiv_pos_site_id
_symmetry_equiv_pos_as_xyz
1 x,y,z
2 -x,-y,-z
_cell_length_a                   8.0525(16)
_cell_length_b                   8.2225(16)
_cell_length_c                   18.733(4)
_cell_angle_alpha                89.74(3)
_cell_angle_beta                 78.98(3)
_cell_angle_gamma                80.54(3)
_cell_volume                     1200.45
loop_
_atom_site_label
_atom_site_type_symbol
_atom_site_fract_x
_atom_site_fract_y
_atom_site_fract_z
Cd1 Cd 0.34703(12) 0.17207(12) 0.47694(5)
O9 O 0.3511(11) -0.0962(10) 0.5222(5)
O10 O 0.4351(12) 0.0604(13) 0.3647(5)
O11 O 0.2601(16) 0.2748(13) 0.5892(5)
O12 O 0.0889(12) 0.1841(13) 0.4499(5)
O13 O 0.3916(15) 0.4239(13) 0.4471(6)
Cd1A Cd 0.65297(12) -0.17207(12) 0.52306(5)
O9A O 0.6489(11) 0.0962(10) 0.4778(5)
O10A O 0.5649(12) -0.0604(13) 0.6353(5)
O11A O 0.7399(16) -0.2748(13) 0.4108(5)
O12A O 0.9111(12) -0.1841(13) 0.5501(5)
O13A O 0.6084(15) -0.4239(13) 0.5529(6)
Cd2 Cd 0.01263(11) 0.98588(11) 0.25482(5)
Cl1 Cl 0.2288(5) 0.5334(5) 0.10025(19)
Cl2 Cl 0.0008(5) 1.2226(6) 0.0386(2)
O1 O 0.2003(11) 0.7242(10) 0.4398(5)
O2 O 0.0921(11) 0.9066(11) 0.3658(5)
C1 C 0.1546(16) 0.7667(18) 0.3794(6)
C2 C 0.1755(17) 0.6275(16) 0.3247(7)
H1 H 0.2808 0.5526 0.3268
H2 H 0.0812 0.5668 0.3384
N1 N 0.1806(12) 0.6793(14) 0.2502(5)
H3 H 0.1244 0.6133 0.2279
C3 C 0.6303(15) 0.7441(15) 0.1891(7)
C4 C 0.3454(15) 0.6788(16) 0.2065(6)
C5 C 0.4732(17) 0.7380(16) 0.2334(7)
H4 H 0.4531 0.7740 0.2817
C6 C 0.3835(16) 0.6196(18) 0.1339(7)
C7 C 0.6649(17) 0.6841(17) 0.1196(8)
H5 H 0.7717 0.6873 0.0906
C8 C 0.5418(16) 0.6174(18) 0.0912(7)
H6 H 0.5670 0.5724 0.0442
C9 C 0.7602(16) 0.8236(16) 0.2166(8)
O3 O 0.7346(12) 0.8697(12) 0.2840(5)
O4 O 0.8956(12) 0.8405(14) 0.1759(5)
O5 O -0.1793(11) 1.1609(11) 0.3434(4)
C10 C -0.2030(16) 1.1978(18) 0.0858(7)
C11 C -0.2462(16) 1.2253(16) 0.1610(7)
C12 C -0.1667(18) 1.3775(18) 0.2594(7)
H7 H -0.2636 1.4564 0.2503
H8 H -0.0714 1.4366 0.2581
C13 C -0.2129(17) 1.3119(18) 0.3351(8)
N2 N -0.1196(14) 1.2520(15) 0.1998(6)
H9 H -0.0335 1.2845 0.1669
O6 O -0.2750(16) 1.4122(13) 0.3842(6)
C14 C -0.5223(15) 1.1562(15) 0.1559(7)
C15 C -0.4771(18) 1.1313(19) 0.0832(7)
H10 H -0.5547 1.1004 0.0571
C16 C -0.3170(18) 1.1517(19) 0.0479(8)
H11 H -0.2858 1.1339 -0.0022
C17 C -0.4097(17) 1.2082(18) 0.1944(8)
H12 H -0.4451 1.2322 0.2440
C18 C -0.6894(15) 1.1156(15) 0.1958(8)
O7 O -0.7461(13) 1.1626(16) 0.2613(6)
O8 O -0.7702(12) 1.0362(13) 0.1617(6)
Cd2_2 Cd 1.01263(11) 0.98588(11) 0.25482(5)
Cd2_3 Cd -0.98737(11) 0.98588(11) 0.25482(5)
O3_2 O -0.2654(12) 0.8697(12) 0.2840(5)
O4_2 O -0.1044(12) 0.8405(14) 0.1759(5)
O7_2 O 0.2539(13) 1.1626(16) 0.2613(6)
O8_2 O 0.2298(12) 1.0362(13) 0.1617(6)
loop_
_geom_bond_atom_site_label_1
_geom_bond_atom_site_label_2
_geom_bond_site_symmetry_1
_geom_bond_site_symmetry_2
Cd1 O9 1_555 1_555
Cd2 O2 1_555 1_555
Cl1 C6 1_555 1_555
Cl2 C10 1_555 1_555
O1 C1 1_555 1_555
O2 C1 1_555 1_555
C1 C2 1_555 1_555
C2 H1 1_555 1_555
H2 C2 1_555 1_555
N1 Cd2 1_555 1_555
H3 N1 1_555 1_555
C3 C5 1_555 1_555
C4 N1 1_555 1_555
C5 C4 1_555 1_555
H4 C5 1_555 1_555
C6 C4 1_555 1_555
C7 C3 1_555 1_555
H5 C7 1_555 1_555
C8 C6 1_555 1_555
H6 C8 1_555 1_555
C9 C3 1_555 1_555
O3 C9 1_555 1_555
O4 C9 1_555 1_555
O5 Cd2 1_555 1_555
C10 C11 1_555 1_555
C11 N2 1_555 1_555
C12 H7 1_555 1_555
H8 C12 1_555 1_555
C13 O5 1_555 1_555
N2 Cd2 1_555 1_555
H9 N2 1_555 1_555
O6 C13 1_555 1_555
C14 C15 1_555 1_555
C15 H10 1_555 1_555
C16 C10 1_555 1_555
H11 C16 1_555 1_555
C17 C11 1_555 1_555
H12 C17 1_555 1_555
C18 C14 1_555 1_555
O7 C18 1_555 1_555
O8 C18 1_555 1_555
O9 Cd1A 1_555 1_555
O10 Cd1 1_555 1_555
O11 Cd1 1_555 1_555
O12 Cd1 1_555 1_555
O13 Cd1 1_555 1_555
Cd1A O9A 1_555 1_555
Cd2_2 O3 1_555 1_555
Cd2_3 O7 1_555 1_555
O3_2 Cd2 1_555 1_555
O4_2 Cd2 1_555 1_555
O7_2 Cd2 1_555 1_555
O8_2 Cd2 1_555 1_555
O9A Cd1 1_555 1_555
O10A Cd1A 1_555 1_555
O11A Cd1A 1_555 1_555
O12A Cd1A 1_555 1_555
O13A Cd1A 1_555 1_555
C2 N1 1_555 1_555
C7 C8 1_555 1_555
O4 Cd2_2 1_555 1_555
C12 C13 1_555 1_555
C12 N2 1_555 1_555
C14 C17 1_555 1_555
C15 C16 1_555 1_555
O8 Cd2_3 1_555 1_555

#END
