
#######################################################################
#
#                 Cambridge Crystallographic Data Centre
#                                CCDC 
#
#######################################################################
#
# If this CIF has been generated from an entry in the Cambridge 
# Structural Database, then it will include bibliographic, chemical, 
# crystal, experimental, refinement or atomic coordinate data resulting 
# from the CCDC's data processing and validation procedures.
#
#######################################################################

data_UYULAC
_symmetry_cell_setting           monoclinic
_symmetry_space_group_name_H-M   'C 2/c'
_symmetry_Int_Tables_number      15
_space_group_name_Hall           '-C 2yn'
loop_
_symmetry_equiv_pos_site_id
_symmetry_equiv_pos_as_xyz
1 x,y,z
2 -x,y,1/2-z
3 1/2+x,1/2+y,z
4 1/2-x,1/2+y,1/2-z
5 -x,-y,-z
6 x,-y,1/2+z
7 1/2-x,1/2-y,-z
8 1/2+x,1/2-y,1/2+z
_cell_length_a                   30.351(3)
_cell_length_b                   8.8251(8)
_cell_length_c                   21.869(2)
_cell_angle_alpha                90
_cell_angle_beta                 122.0180(10)
_cell_angle_gamma                90
_cell_volume                     4966.57
loop_
_atom_site_label
_atom_site_type_symbol
_atom_site_fract_x
_atom_site_fract_y
_atom_site_fract_z
Cd1 Cd 0.929305(5) 1.089112(16) -0.028017(7)
C1 C 1.04468(7) 1.1475(2) 0.10356(9)
C2 C 1.06194(6) 1.2632(2) 0.16248(9)
C3 C 1.04348(6) 1.2647(2) 0.20968(9)
C4 C 1.06210(8) 1.3760(2) 0.26316(10)
H1 H 1.0512 1.3761 0.2957
C5 C 1.09644(8) 1.4859(2) 0.26857(11)
H2 H 1.1075 1.5611 0.3035
C6 C 1.11443(9) 1.4847(3) 0.22239(12)
H3 H 1.1376 1.5584 0.2262
C7 C 1.09762(8) 1.3729(2) 0.17045(11)
H4 H 1.1104 1.3708 0.1401
C8 C 0.81975(8) 1.2226(2) -0.18283(10)
C9 C 0.78342(7) 1.2306(2) -0.26191(10)
C10 C 0.73547(8) 1.3035(3) -0.29062(13)
H5 H 0.7272 1.3482 -0.2595
C11 C 0.70030(9) 1.3106(3) -0.36366(14)
H6 H 0.6684 1.3581 -0.3817
C12 C 0.71297(9) 1.2464(3) -0.40995(12)
H7 H 0.6896 1.2522 -0.4595
C13 C 0.76020(8) 1.1734(3) -0.38334(11)
H8 H 0.7680 1.1298 -0.4152
C14 C 0.79612(7) 1.1646(2) -0.30930(10)
C15 C 0.86895(7) 0.8326(2) -0.47474(9)
C16 C 0.83978(7) 0.7697(2) -0.44298(9)
C17 C 0.81751(9) 0.6258(3) -0.46470(11)
H9 H 0.8223 0.5710 -0.4970
C18 C 0.78856(10) 0.5633(3) -0.43927(13)
H10 H 0.7739 0.4676 -0.4544
C19 C 0.78163(9) 0.6448(3) -0.39086(12)
H11 H 0.7620 0.6039 -0.3736
C20 C 0.80368(8) 0.7866(3) -0.36803(11)
H12 H 0.7987 0.8400 -0.3354
C21 C 0.83315(7) 0.8509(2) -0.39302(9)
C22 C 0.98008(9) 1.2579(3) -0.09831(12)
H13 H 0.9606 1.1916 -0.1364
C23 C 1.03229(16) 1.2930(4) -0.1491(2)
H14 H 1.0075 1.2225 -0.1836
H15 H 1.0664 1.2494 -0.1259
H16 H 1.0315 1.3847 -0.1732
C24 C 1.05096(14) 1.4332(4) -0.0388(2)
H17 H 1.0361 1.4498 -0.0100
H18 H 1.0523 1.5274 -0.0597
H19 H 1.0855 1.3934 -0.0091
N1 N 1.01937(8) 1.3267(2) -0.09539(11)
O1 O 1.00253(6) 1.07912(17) 0.08227(7)
O2 O 1.07405(6) 1.12517(16) 0.07985(7)
O3 O 0.85646(6) 1.13698(19) -0.15489(8)
O4 O 0.80890(8) 1.3161(2) -0.14582(9)
H20 H 0.8309 1.3077 -0.1027
O5 O 0.96722(6) 1.27507(18) -0.05385(9)
S1 S 0.997140(19) 1.12633(6) 0.20091(2)
O6 O 0.88185(6) 0.96784(17) -0.46764(8)
S2 S 0.857950(19) 1.07433(6) -0.27403(3)
S3 S 0.862790(19) 1.03323(6) -0.36260(3)
O7 O 0.87997(6) 0.74037(18) -0.51043(8)
Cd1A Cd 1.070695(5) 1.089112(16) 0.528017(7)
Cd1D Cd 1.070695(5) 0.910888(16) 0.028017(7)
Cd1E Cd 0.929305(5) 0.910888(16) -0.528017(7)
Cd1E_2 Cd 0.929305(5) 0.910888(16) 0.471983(7)
C1A C 0.95532(7) 1.1475(2) 0.39644(9)
C2A C 0.93806(6) 1.2632(2) 0.33752(9)
C3A C 0.95652(6) 1.2647(2) 0.29032(9)
C4A C 0.93790(8) 1.3760(2) 0.23684(10)
H1A H 0.9488 1.3761 0.2043
C5A C 0.90356(8) 1.4859(2) 0.23143(11)
H2A H 0.8925 1.5611 0.1965
C6A C 0.88557(9) 1.4847(3) 0.27761(12)
H3A H 0.8624 1.5584 0.2738
C7A C 0.90238(8) 1.3729(2) 0.32955(11)
H4A H 0.8896 1.3708 0.3599
C8E C 0.81975(8) 0.7774(2) 0.31717(10)
C9E C 0.78342(7) 0.7694(2) 0.23809(10)
C10E C 0.73547(8) 0.6965(3) 0.20938(13)
H5E H 0.7272 0.6518 0.2405
C11E C 0.70030(9) 0.6894(3) 0.13634(14)
H6E H 0.6684 0.6419 0.1183
C12E C 0.71297(9) 0.7536(3) 0.09005(12)
H7E H 0.6896 0.7478 0.0405
C13E C 0.76020(8) 0.8266(3) 0.11666(11)
H8E H 0.7680 0.8702 0.0848
C14E C 0.79612(7) 0.8354(2) 0.19070(10)
C15E C 0.86895(7) 1.1674(2) 0.02526(9)
C16E C 0.83978(7) 1.2303(2) 0.05702(9)
C17E C 0.81751(9) 1.3742(3) 0.03530(11)
H9E H 0.8223 1.4290 0.0030
C18E C 0.78856(10) 1.4367(3) 0.06073(13)
H10E H 0.7739 1.5324 0.0456
C19E C 0.78163(9) 1.3552(3) 0.10914(12)
H11E H 0.7620 1.3961 0.1264
C20E C 0.80368(8) 1.2134(3) 0.13197(11)
H12E H 0.7987 1.1600 0.1646
C21E C 0.83315(7) 1.1491(2) 0.10698(9)
C22A C 1.01992(9) 1.2579(3) 0.59831(12)
H13A H 1.0394 1.1916 0.6364
C23A C 0.96771(16) 1.2930(4) 0.6491(2)
H14A H 0.9925 1.2225 0.6836
H15A H 0.9336 1.2494 0.6259
H16A H 0.9685 1.3847 0.6732
C24A C 0.94904(14) 1.4332(4) 0.5388(2)
H17A H 0.9639 1.4498 0.5100
H18A H 0.9477 1.5274 0.5597
H19A H 0.9145 1.3934 0.5091
N1A N 0.98063(8) 1.3267(2) 0.59539(11)
O1A O 0.99747(6) 1.07912(17) 0.41773(7)
O2A O 0.92595(6) 1.12517(16) 0.42015(7)
O2D O 0.92595(6) 0.87483(16) -0.07985(7)
O2E O 1.07405(6) 0.87483(16) 0.57985(7)
O3E O 0.85646(6) 0.86302(19) 0.34511(8)
O3A O 1.14354(6) 1.13698(19) 0.65489(8)
O4E O 0.80890(8) 0.6839(2) 0.35418(9)
H20E H 0.8309 0.6923 0.3973
O5A O 1.03278(6) 1.27507(18) 0.55385(9)
S1A S 1.002860(19) 1.12633(6) 0.29909(2)
O6E O 0.88185(6) 1.03216(17) 0.03236(8)
O6D O 1.11815(6) 1.03216(17) 0.46764(8)
S2E S 0.857950(19) 0.92567(6) 0.22597(3)
S3E S 0.862790(19) 0.96677(6) 0.13740(3)
O7E O 0.87997(6) 1.25963(18) -0.01043(8)
O7D O 1.12003(6) 1.25963(18) 0.51043(8)
loop_
_geom_bond_atom_site_label_1
_geom_bond_atom_site_label_2
_geom_bond_site_symmetry_1
_geom_bond_site_symmetry_2
Cd1 O1 1_555 1_555
C1 C2 1_555 1_555
C2 C3 1_555 1_555
C3 C4 1_555 1_555
C4 H1 1_555 1_555
C5 C4 1_555 1_555
H2 C5 1_555 1_555
C6 C5 1_555 1_555
H3 C6 1_555 1_555
C7 C2 1_555 1_555
H4 C7 1_555 1_555
C8 C9 1_555 1_555
C9 C10 1_555 1_555
C10 H5 1_555 1_555
C11 C10 1_555 1_555
H6 C11 1_555 1_555
C12 C11 1_555 1_555
H7 C12 1_555 1_555
C13 C12 1_555 1_555
H8 C13 1_555 1_555
C14 C9 1_555 1_555
C15 C16 1_555 1_555
C16 C17 1_555 1_555
C17 H9 1_555 1_555
C18 C17 1_555 1_555
H10 C18 1_555 1_555
C19 C18 1_555 1_555
H11 C19 1_555 1_555
C20 C19 1_555 1_555
H12 C20 1_555 1_555
C21 C16 1_555 1_555
C22 H13 1_555 1_555
C23 H14 1_555 1_555
H15 C23 1_555 1_555
H16 C23 1_555 1_555
C24 H17 1_555 1_555
H18 C24 1_555 1_555
H19 C24 1_555 1_555
N1 C22 1_555 1_555
O1 C1 1_555 1_555
O2 C1 1_555 1_555
O3 Cd1 1_555 1_555
O4 C8 1_555 1_555
H20 O4 1_555 1_555
O5 Cd1 1_555 1_555
S1 C3 1_555 1_555
O6 C15 1_555 1_555
S2 C14 1_555 1_555
S3 C21 1_555 1_555
O7 C15 1_555 1_555
Cd1A O1A 1_555 1_555
Cd1D O2 1_555 1_555
Cd1E O6 1_555 1_555
Cd1E_2 O2A 1_555 1_555
C1A C2A 1_555 1_555
C2A C3A 1_555 1_555
C3A C4A 1_555 1_555
C4A H1A 1_555 1_555
C5A C4A 1_555 1_555
H2A C5A 1_555 1_555
C6A C5A 1_555 1_555
H3A C6A 1_555 1_555
C7A C2A 1_555 1_555
H4A C7A 1_555 1_555
C8E C9E 1_555 1_555
C9E C10E 1_555 1_555
C10E H5E 1_555 1_555
C11E C10E 1_555 1_555
H6E C11E 1_555 1_555
C12E C11E 1_555 1_555
H7E C12E 1_555 1_555
C13E C12E 1_555 1_555
H8E C13E 1_555 1_555
C14E C9E 1_555 1_555
C15E C16E 1_555 1_555
C16E C17E 1_555 1_555
C17E H9E 1_555 1_555
C18E C17E 1_555 1_555
H10E C18E 1_555 1_555
C19E C18E 1_555 1_555
H11E C19E 1_555 1_555
C20E C19E 1_555 1_555
H12E C20E 1_555 1_555
C21E C16E 1_555 1_555
C22A H13A 1_555 1_555
C23A H14A 1_555 1_555
H15A C23A 1_555 1_555
H16A C23A 1_555 1_555
C24A H17A 1_555 1_555
H18A C24A 1_555 1_555
H19A C24A 1_555 1_555
N1A C22A 1_555 1_555
O1A C1A 1_555 1_555
O2A C1A 1_555 1_555
O2D Cd1 1_555 1_555
O2E Cd1A 1_555 1_555
O3E Cd1E_2 1_555 1_555
O3A Cd1A 1_555 1_555
O4E C8E 1_555 1_555
H20E O4E 1_555 1_555
O5A Cd1A 1_555 1_555
S1A S1 1_555 1_555
O6E Cd1 1_555 1_555
O6D Cd1A 1_555 1_555
S2E C14E 1_555 1_555
S3E C21E 1_555 1_555
O7E Cd1 1_555 1_555
O7D Cd1A 1_555 1_555
C6 C7 1_555 1_555
C8 O3 1_555 1_555
C13 C14 1_555 1_555
C20 C21 1_555 1_555
C22 O5 1_555 1_555
C23 N1 1_555 1_555
C24 N1 1_555 1_555
S2 S3 1_555 1_555
O7 Cd1E 1_555 1_555
C3A S1A 1_555 1_555
C6A C7A 1_555 1_555
C8E O3E 1_555 1_555
C13E C14E 1_555 1_555
C15E O6E 1_555 1_555
C15E O7E 1_555 1_555
C20E C21E 1_555 1_555
C22A O5A 1_555 1_555
C23A N1A 1_555 1_555
C24A N1A 1_555 1_555
S2E S3E 1_555 1_555

#END
