
#######################################################################
#
#                 Cambridge Crystallographic Data Centre
#                                CCDC 
#
#######################################################################
#
# If this CIF has been generated from an entry in the Cambridge 
# Structural Database, then it will include bibliographic, chemical, 
# crystal, experimental, refinement or atomic coordinate data resulting 
# from the CCDC's data processing and validation procedures.
#
#######################################################################

data_UYULEG
_symmetry_cell_setting           monoclinic
_symmetry_space_group_name_H-M   'P 21/c'
_symmetry_Int_Tables_number      14
_space_group_name_Hall           '-P 2ybc'
loop_
_symmetry_equiv_pos_site_id
_symmetry_equiv_pos_as_xyz
1 x,y,z
2 -x,1/2+y,1/2-z
3 -x,-y,-z
4 x,1/2-y,1/2+z
_cell_length_a                   11.803(6)
_cell_length_b                   26.668(14)
_cell_length_c                   10.907(6)
_cell_angle_alpha                90
_cell_angle_beta                 107.330(7)
_cell_angle_gamma                90
_cell_volume                     3277.27
loop_
_atom_site_label
_atom_site_type_symbol
_atom_site_fract_x
_atom_site_fract_y
_atom_site_fract_z
Cd1 Cd 0.69200(2) 0.091495(11) 0.79124(3)
C1 C 0.8221(3) 0.15646(16) 0.6969(4)
C2 C 0.8872(3) 0.19384(15) 0.6392(4)
C3 C 0.8215(4) 0.22840(17) 0.5502(4)
H1 H 0.7391 0.2265 0.5252
C4 C 0.8748(4) 0.26528(18) 0.4982(5)
H2 H 0.8293 0.2885 0.4407
C5 C 0.9979(4) 0.26707(16) 0.5332(4)
H3 H 1.0350 0.2915 0.4980
C6 C 1.0660(4) 0.23291(16) 0.6202(4)
H4 H 1.1484 0.2347 0.6427
C7 C 1.0121(3) 0.19583(15) 0.6744(4)
C8 C 1.3454(3) 0.19571(15) 0.8767(4)
C9 C 1.2895(4) 0.23414(16) 0.9227(4)
H5 H 1.2079 0.2383 0.8890
C10 C 1.3535(4) 0.26632(17) 1.0178(4)
H6 H 1.3150 0.2923 1.0462
C11 C 1.4747(4) 0.25994(18) 1.0707(4)
H7 H 1.5176 0.2810 1.1361
C12 C 1.5311(4) 0.22224(17) 1.0258(4)
H8 H 1.6123 0.2177 1.0627
C13 C 1.4695(3) 0.19059(15) 0.9260(4)
C14 C 1.5393(3) 0.15361(16) 0.8733(4)
C15 C 0.4709(4) 0.01235(17) 0.7600(4)
H9 H 0.4333 0.0344 0.6945
C16 C 0.4081(4) -0.02858(18) 0.7819(4)
H10 H 0.3307 -0.0345 0.7312
C17 C 0.4636(4) -0.06068(17) 0.8817(4)
H11 H 0.4234 -0.0883 0.9001
C18 C 0.5789(4) -0.05111(16) 0.9531(4)
H12 H 0.6173 -0.0724 1.0201
C19 C 0.6382(3) -0.00945(15) 0.9248(4)
C20 C 0.7621(4) 0.00311(15) 1.0008(4)
C21 C 0.8291(4) -0.02541(17) 1.1034(4)
H13 H 0.7970 -0.0545 1.1261
C22 C 0.9423(4) -0.01128(19) 1.1719(4)
H14 H 0.9874 -0.0307 1.2399
C23 C 0.9879(4) 0.03284(18) 1.1368(4)
H15 H 1.0634 0.0440 1.1822
C24 C 0.9191(4) 0.05944(17) 1.0340(4)
H16 H 0.9503 0.0885 1.0094
S1 S 1.26331(8) 0.15136(4) 0.76032(10)
S2 S 1.09703(8) 0.15078(4) 0.78625(10)
N1 N 0.5843(3) 0.02192(13) 0.8291(3)
N2 N 0.8087(3) 0.04541(13) 0.9669(3)
O1 O 0.7113(2) 0.15108(12) 0.6452(3)
O2 O 0.8788(2) 0.13299(11) 0.7956(3)
O3 O 1.6468(2) 0.14531(11) 0.9385(3)
O4 O 1.4918(2) 0.13325(11) 0.7674(3)
O5 O 0.7285(3) 0.03631(14) 0.6360(3)
H17 H 0.784(5) 0.040(2) 0.602(5)
H18 H 0.736(5) 0.007(2) 0.657(6)
Cd1_2 Cd 1.69200(2) 0.091495(11) 0.79124(3)
O3_2 O 0.6468(2) 0.14531(11) 0.9385(3)
O4_2 O 0.4918(2) 0.13325(11) 0.7674(3)
C25 C 1.0221(6) 0.1499(2) 0.3283(7)
H19 H 1.0951 0.1435 0.3944
H20 H 1.0066 0.1853 0.3228
H21 H 1.0283 0.1379 0.2475
C26 C 0.8004(6) 0.1407(3) 0.2972(8)
H22 H 0.7742 0.1288 0.2103
H23 H 0.7980 0.1767 0.2975
H24 H 0.7491 0.1278 0.3436
C27 C 0.9346(7) 0.0865(2) 0.4360(6)
C28 C 1.0695(6) 0.0676(3) 0.4964(6)
H25 H 1.0708 0.0384 0.5484
H26 H 1.1158 0.0938 0.5484
H27 H 1.1024 0.0594 0.4283
N3 N 0.9237(5) 0.1235(2) 0.3596(6)
O6 O 0.8550(4) 0.06407(17) 0.4616(4)
C29 C 0.4753(5) 0.1644(2) 0.3119(6)
H28 H 0.5284 0.1603 0.3972
H29 H 0.4459 0.1982 0.3010
H30 H 0.5170 0.1576 0.2504
C30 C 0.2646(6) 0.1434(2) 0.1620(6)
H31 H 0.2138 0.1146 0.1398
H32 H 0.2944 0.1517 0.0918
H33 H 0.2203 0.1712 0.1798
C31 C 0.3511(8) 0.0945(3) 0.3298(10)
C32 C 0.4657(5) 0.0815(2) 0.4620(5)
H34 H 0.5393 0.0862 0.4430
H35 H 0.4600 0.0473 0.4875
H36 H 0.4628 0.1035 0.5306
N4 N 0.3786(6) 0.1305(2) 0.2928(7)
O7 O 0.2654(3) 0.06527(13) 0.3066(3)
loop_
_geom_bond_atom_site_label_1
_geom_bond_atom_site_label_2
_geom_bond_site_symmetry_1
_geom_bond_site_symmetry_2
Cd1 N1 1_555 1_555
C1 C2 1_555 1_555
C2 C3 1_555 1_555
C3 H1 1_555 1_555
C4 C3 1_555 1_555
H2 C4 1_555 1_555
C5 C4 1_555 1_555
H3 C5 1_555 1_555
C6 C5 1_555 1_555
H4 C6 1_555 1_555
C7 C2 1_555 1_555
C8 C9 1_555 1_555
C9 H5 1_555 1_555
C10 C9 1_555 1_555
H6 C10 1_555 1_555
C11 C10 1_555 1_555
H7 C11 1_555 1_555
C12 C11 1_555 1_555
H8 C12 1_555 1_555
C13 C8 1_555 1_555
C14 C13 1_555 1_555
C15 H9 1_555 1_555
C16 C15 1_555 1_555
H10 C16 1_555 1_555
C17 C16 1_555 1_555
H11 C17 1_555 1_555
C18 C17 1_555 1_555
H12 C18 1_555 1_555
C19 C18 1_555 1_555
C20 C19 1_555 1_555
C21 C20 1_555 1_555
H13 C21 1_555 1_555
C22 C21 1_555 1_555
H14 C22 1_555 1_555
C23 C22 1_555 1_555
H15 C23 1_555 1_555
C24 C23 1_555 1_555
H16 C24 1_555 1_555
S1 C8 1_555 1_555
S2 C7 1_555 1_555
N1 C15 1_555 1_555
N2 Cd1 1_555 1_555
O1 Cd1 1_555 1_555
O2 Cd1 1_555 1_555
O3 C14 1_555 1_555
O4 C14 1_555 1_555
O5 Cd1 1_555 1_555
H17 O5 1_555 1_555
H18 O5 1_555 1_555
C25 H19 1_555 1_555
H20 C25 1_555 1_555
H21 C25 1_555 1_555
C26 H22 1_555 1_555
H23 C26 1_555 1_555
H24 C26 1_555 1_555
C27 C28 1_555 1_555
C28 H25 1_555 1_555
H26 C28 1_555 1_555
H27 C28 1_555 1_555
C29 H28 1_555 1_555
H29 C29 1_555 1_555
H30 C29 1_555 1_555
C30 H31 1_555 1_555
H32 C30 1_555 1_555
H33 C30 1_555 1_555
C31 C32 1_555 1_555
C32 H34 1_555 1_555
H35 C32 1_555 1_555
H36 C32 1_555 1_555
N3 C25 1_555 1_555
N4 C29 1_555 1_555
O6 C27 1_555 1_555
O7 C31 1_555 1_555
Cd1_2 O3 1_555 1_555
O3_2 Cd1 1_555 1_555
O4_2 Cd1 1_555 1_555
C1 O1 1_555 1_555
C1 O2 1_555 1_555
C6 C7 1_555 1_555
C12 C13 1_555 1_555
C19 N1 1_555 1_555
C20 N2 1_555 1_555
C24 N2 1_555 1_555
S1 S2 1_555 1_555
O4 Cd1_2 1_555 1_555
C26 N3 1_555 1_555
C27 N3 1_555 1_555
C30 N4 1_555 1_555
C31 N4 1_555 1_555

#END
