
#######################################################################
#
#                 Cambridge Crystallographic Data Centre
#                                CCDC 
#
#######################################################################
#
# If this CIF has been generated from an entry in the Cambridge 
# Structural Database, then it will include bibliographic, chemical, 
# crystal, experimental, refinement or atomic coordinate data resulting 
# from the CCDC's data processing and validation procedures.
#
#######################################################################

data_UYUPUA
_symmetry_cell_setting           monoclinic
_symmetry_space_group_name_H-M   'P 21/n'
_symmetry_Int_Tables_number      14
_space_group_name_Hall           '-P 2yn'
loop_
_symmetry_equiv_pos_site_id
_symmetry_equiv_pos_as_xyz
1 x,y,z
2 1/2-x,1/2+y,1/2-z
3 -x,-y,-z
4 1/2+x,1/2-y,1/2+z
_cell_length_a                   10.3432(2)
_cell_length_b                   15.8160(3)
_cell_length_c                   11.1281(2)
_cell_angle_alpha                90
_cell_angle_beta                 94.599(2)
_cell_angle_gamma                90
_cell_volume                     1814.56
loop_
_atom_site_label
_atom_site_type_symbol
_atom_site_fract_x
_atom_site_fract_y
_atom_site_fract_z
Cd1 Cd 0.61898(2) 0.518317(18) 0.10417(2)
Br1 Br 0.80603(4) 0.55482(4) 0.25881(5)
O1 O 0.5218(3) 0.4071(2) 0.1823(3)
O2 O 0.3658(3) 0.3852(2) 0.0426(3)
O3 O 0.2048(3) 0.0722(2) 0.4769(3)
O4 O 0.0450(3) 0.0971(2) 0.3413(3)
C1 C 0.4221(4) 0.3719(2) 0.1425(4)
C2 C 0.3625(3) 0.3066(2) 0.2182(3)
C3 C 0.4011(3) 0.2237(2) 0.2163(4)
H1 H 0.4717 0.2089 0.1740
C4 C 0.3364(4) 0.1608(2) 0.2767(4)
H2 H 0.3654 0.1051 0.2751
C5 C 0.2315(3) 0.1803(2) 0.3375(3)
C6 C 0.1927(3) 0.2657(2) 0.3485(3)
C7 C 0.0906(4) 0.2907(3) 0.4185(4)
H3 H 0.0439 0.2498 0.4568
C8 C 0.0601(4) 0.3738(3) 0.4301(4)
H4 H -0.0074 0.3888 0.4763
C9 C 0.1268(4) 0.4359(3) 0.3751(4)
H5 H 0.1057 0.4924 0.3861
C10 C 0.2244(4) 0.4153(3) 0.3041(4)
H6 H 0.2671 0.4577 0.2649
C11 C 0.2602(3) 0.3300(2) 0.2901(3)
C12 C 0.1547(4) 0.1108(2) 0.3908(3)
Cd1B Cd 0.38102(2) 0.481683(18) -0.10417(2)
Cd1A Cd -0.11898(2) 0.018317(18) 0.39583(2)
Cd1A_2 Cd 0.88102(2) 1.018317(18) -0.60417(2)
Cd1C Cd 0.11898(2) -0.018317(18) 0.60417(2)
Cd1C_2 Cd 1.11898(2) 0.981683(18) -0.39583(2)
Br1B Br 0.19397(4) 0.44518(4) -0.25881(5)
O1B O 0.4782(3) 0.5929(2) -0.1823(3)
O2B O 0.6342(3) 0.6148(2) -0.0426(3)
O3B O 0.7952(3) 0.9278(2) -0.4769(3)
O3A O 0.2952(3) 0.5722(2) 0.0231(3)
O3C O 0.7048(3) 0.4278(2) -0.0231(3)
O4B O 0.9550(3) 0.9029(2) -0.3413(3)
O4A O 0.4550(3) 0.5971(2) 0.1587(3)
O4C O 0.5450(3) 0.4029(2) -0.1587(3)
C1B C 0.5779(4) 0.6281(2) -0.1425(4)
C2B C 0.6375(3) 0.6934(2) -0.2182(3)
C3B C 0.5989(3) 0.7763(2) -0.2163(4)
H1B H 0.5283 0.7911 -0.1740
C4B C 0.6636(4) 0.8392(2) -0.2767(4)
H2B H 0.6346 0.8949 -0.2751
C5B C 0.7685(3) 0.8197(2) -0.3375(3)
C6B C 0.8073(3) 0.7343(2) -0.3485(3)
C7B C 0.9094(4) 0.7093(3) -0.4185(4)
H3B H 0.9561 0.7502 -0.4568
C8B C 0.9399(4) 0.6262(3) -0.4301(4)
H4B H 1.0074 0.6112 -0.4763
C9B C 0.8732(4) 0.5641(3) -0.3751(4)
H5B H 0.8943 0.5076 -0.3861
C10B C 0.7756(4) 0.5847(3) -0.3041(4)
H6B H 0.7329 0.5423 -0.2649
C11B C 0.7398(3) 0.6700(2) -0.2901(3)
C12B C 0.8453(4) 0.8892(2) -0.3908(3)
N1 N 0.3970(9) 0.2207(6) 0.6398(9)
N2 N 0.5483(9) 0.2717(6) 0.5288(11)
C13 C 0.4690(13) 0.1529(6) 0.6032(12)
H7 H 0.4583 0.0963 0.6230
C14 C 0.5603(14) 0.1859(6) 0.5311(14)
H8 H 0.6197 0.1546 0.4911
C15 C 0.4438(10) 0.2960(5) 0.5951(10)
H9 H 0.4129 0.3504 0.6066
C16 C 0.2906(8) 0.2148(6) 0.7146(8)
H10 H 0.2765 0.1563 0.7325
H11 H 0.3115 0.2453 0.7882
H12 H 0.2133 0.2381 0.6738
C17 C 0.6208(11) 0.3327(6) 0.4691(12)
H13 H 0.6074 0.3223 0.3831
H14 H 0.7120 0.3231 0.4923
C18 C 0.5920(14) 0.4256(7) 0.4910(14)
H15 H 0.6445 0.4601 0.4433
H16 H 0.6113 0.4385 0.5748
H17 H 0.5020 0.4367 0.4688
C19? C 0.4033(12) 0.1785(8) 0.6339(12)
C20? C 0.4115(12) 0.2649(7) 0.6269(12)
C21? C 0.5670(13) 0.2126(7) 0.5148(15)
C22? C 0.5160(10) 0.0565(6) 0.5426(10)
C23? C 0.5533(12) 0.3651(7) 0.5221(12)
C24? C 0.6743(13) 0.3599(11) 0.4508(15)
H18? H 0.3463 0.1478 0.6774
H19? H 0.3597 0.3032 0.6644
H20? H 0.6363 0.2087 0.4668
H21? H 0.4562 0.0239 0.5853
H22? H 0.5015 0.0456 0.4577
H23? H 0.6032 0.0410 0.5698
H24? H 0.5735 0.3987 0.5941
H25? H 0.4847 0.3938 0.4733
H26? H 0.6603 0.3923 0.3780
H27? H 0.6904 0.3020 0.4310
H28? H 0.7477 0.3821 0.4989
N3? N 0.4959(11) 0.1458(5) 0.5638(9)
N4? N 0.5085(11) 0.2853(6) 0.5556(11)
loop_
_geom_bond_atom_site_label_1
_geom_bond_atom_site_label_2
_geom_bond_site_symmetry_1
_geom_bond_site_symmetry_2
Cd1 Br1 1_555 1_555
O1 Cd1 1_555 1_555
O2 C1 1_555 1_555
O3 C12 1_555 1_555
O4 C12 1_555 1_555
C1 O1 1_555 1_555
C2 C1 1_555 1_555
C3 C2 1_555 1_555
H1 C3 1_555 1_555
C4 C3 1_555 1_555
H2 C4 1_555 1_555
C5 C4 1_555 1_555
C6 C5 1_555 1_555
C7 C6 1_555 1_555
H3 C7 1_555 1_555
C8 C7 1_555 1_555
H4 C8 1_555 1_555
C9 C8 1_555 1_555
H5 C9 1_555 1_555
C10 C9 1_555 1_555
H6 C10 1_555 1_555
C11 C2 1_555 1_555
C12 C5 1_555 1_555
N1 C13 1_555 1_555
N2 C14 1_555 1_555
C13 H7 1_555 1_555
C14 C13 1_555 1_555
H8 C14 1_555 1_555
C15 N1 1_555 1_555
H9 C15 1_555 1_555
C16 N1 1_555 1_555
H10 C16 1_555 1_555
H11 C16 1_555 1_555
H12 C16 1_555 1_555
C17 N2 1_555 1_555
H13 C17 1_555 1_555
H14 C17 1_555 1_555
C18 C17 1_555 1_555
H15 C18 1_555 1_555
H16 C18 1_555 1_555
H17 C18 1_555 1_555
Cd1B O2 1_555 1_555
Cd1A O4 1_555 1_555
Cd1A_2 O3B 1_555 1_555
Cd1C O3 1_555 1_555
Cd1C_2 O4B 1_555 1_555
Br1B Cd1B 1_555 1_555
O1B Cd1B 1_555 1_555
O2B Cd1 1_555 1_555
O3B C12B 1_555 1_555
O3A Cd1B 1_555 1_555
O3C Cd1 1_555 1_555
O4B C12B 1_555 1_555
O4A Cd1 1_555 1_555
O4C Cd1B 1_555 1_555
C1B O1B 1_555 1_555
C2B C1B 1_555 1_555
C3B C2B 1_555 1_555
H1B C3B 1_555 1_555
C4B C3B 1_555 1_555
H2B C4B 1_555 1_555
C5B C4B 1_555 1_555
C6B C5B 1_555 1_555
C7B C6B 1_555 1_555
H3B C7B 1_555 1_555
C8B C7B 1_555 1_555
H4B C8B 1_555 1_555
C9B C8B 1_555 1_555
H5B C9B 1_555 1_555
C10B C9B 1_555 1_555
H6B C10B 1_555 1_555
C11B C2B 1_555 1_555
C12B C5B 1_555 1_555
C6 C11 1_555 1_555
C10 C11 1_555 1_555
N2 C15 1_555 1_555
O2B C1B 1_555 1_555
C6B C11B 1_555 1_555
C10B C11B 1_555 1_555

#END
