
#######################################################################
#
#                 Cambridge Crystallographic Data Centre
#                                CCDC 
#
#######################################################################
#
# If this CIF has been generated from an entry in the Cambridge 
# Structural Database, then it will include bibliographic, chemical, 
# crystal, experimental, refinement or atomic coordinate data resulting 
# from the CCDC's data processing and validation procedures.
#
#######################################################################

data_UYUPOU
_symmetry_cell_setting           monoclinic
_symmetry_space_group_name_H-M   'C 2/c'
_symmetry_Int_Tables_number      15
_space_group_name_Hall           '-C 2yn'
loop_
_symmetry_equiv_pos_site_id
_symmetry_equiv_pos_as_xyz
1 x,y,z
2 -x,y,1/2-z
3 1/2+x,1/2+y,z
4 1/2-x,1/2+y,1/2-z
5 -x,-y,-z
6 x,-y,1/2+z
7 1/2-x,1/2-y,-z
8 1/2+x,1/2-y,1/2+z
_cell_length_a                   24.211(3)
_cell_length_b                   14.4568(15)
_cell_length_c                   17.5220(19)
_cell_angle_alpha                90
_cell_angle_beta                 99.4420(10)
_cell_angle_gamma                90
_cell_volume                     6049.85
loop_
_atom_site_label
_atom_site_type_symbol
_atom_site_fract_x
_atom_site_fract_y
_atom_site_fract_z
C1 C 0.19424(14) 0.6119(3) 0.07269(19)
C2 C 0.16302(15) 0.6404(3) 0.0017(2)
H1 H 0.1629 0.7025 -0.0124
C3 C 0.13282(16) 0.5777(3) -0.0468(2)
H2 H 0.1117 0.5981 -0.0929
C4 C 0.13305(18) 0.4849(3) -0.0287(2)
H3 H 0.1118 0.4432 -0.0618
C5 C 0.16494(16) 0.4546(3) 0.0388(2)
H4 H 0.1656 0.3919 0.0510
C6 C 0.19654(14) 0.5171(2) 0.08963(19)
C7 C 0.23031(14) 0.4787(2) 0.15849(19)
H5 H 0.2261 0.4164 0.1694
C8 C 0.42958(14) 0.3804(2) 0.40100(19)
C9 C 0.42839(16) 0.2935(3) 0.4340(2)
H6 H 0.3948 0.2610 0.4274
C10 C 0.47527(18) 0.2538(3) 0.4760(2)
H7 H 0.4728 0.1954 0.4973
C11 C 0.52526(17) 0.2987(3) 0.4870(2)
H8 H 0.5569 0.2714 0.5154
C12 C 0.52817(16) 0.3853(3) 0.4552(2)
H9 H 0.5624 0.4161 0.4625
C13 C 0.48120(15) 0.4287(3) 0.4122(2)
C14 C 0.48697(15) 0.5197(3) 0.3841(2)
H10 H 0.5219 0.5476 0.3967
C15 C 0.44075(16) 0.9276(3) 0.3103(2)
C16 C 0.48178(18) 0.9862(3) 0.3479(3)
H11 H 0.5133 0.9612 0.3782
C17 C 0.4767(2) 1.0803(3) 0.3410(3)
H12 H 0.5050 1.1181 0.3662
C18 C 0.4293(2) 1.1203(3) 0.2966(3)
H13 H 0.4261 1.1842 0.2919
C19 C 0.38816(18) 1.0642(3) 0.2605(3)
H14 H 0.3564 1.0903 0.2313
C20 C 0.39253(15) 0.9675(3) 0.2664(2)
C21 C 0.34701(15) 0.9133(3) 0.2264(2)
H15 H 0.3173 0.9447 0.1972
C22 C 0.33194(14) 0.6779(3) 0.41187(17)
C23 C 0.28741(14) 0.7114(2) 0.45638(18)
C24 C 0.23641(14) 0.7464(2) 0.41888(18)
C25 C 0.22139(14) 0.7419(2) 0.33130(19)
C26 C 0.30054(14) 0.7154(2) 0.53684(18)
H16 H 0.3347 0.6920 0.5614
Mn1 Mn 0.28335(2) 0.65942(4) 0.19632(3)
Mn2 Mn 0.36829(2) 0.52736(4) 0.30766(3)
Mn3 Mn 0.40187(2) 0.73743(4) 0.28421(3)
N1 N 0.26595(11) 0.52694(19) 0.20539(15)
N2 N 0.44778(11) 0.5674(2) 0.34232(16)
N3 N 0.34428(11) 0.8244(2) 0.22810(15)
Na1 Na 0.20228(6) 0.83419(10) 0.16621(8)
O1 O 0.35592(9) 0.63599(15) 0.24977(12)
O2 O 0.21930(10) 0.67615(16) 0.12119(13)
O3 O 0.29305(9) 0.48291(16) 0.27010(12)
O4 O 0.38251(9) 0.41533(16) 0.36028(13)
O5 O 0.46173(9) 0.65531(17) 0.32462(15)
O6 O 0.44907(10) 0.83652(17) 0.31687(15)
O7 O 0.29829(9) 0.78735(16) 0.18210(14)
O8 O 0.18470(11) 0.79450(18) 0.29760(13)
O9 O 0.24773(10) 0.68342(18) 0.29863(13)
O10 O 0.35863(10) 0.74113(16) 0.38419(13)
O11 O 0.34119(9) 0.59306(16) 0.40902(12)
O12 O 0.43218(11) 0.73423(19) 0.16272(16)
H17 H 0.4522 0.6860 0.1619
H18 H 0.4539 0.7803 0.1623
O13 O 0.38686(12) 0.44808(19) 0.19289(15)
H19 H 0.3653 0.4014 0.1860
H20 H 0.4202 0.4277 0.2024
O16 O 0.21897(12) 0.9359(2) 0.05811(14)
H24 H 0.2020 0.9868 0.0614
H25 H 0.2050 0.9104 0.0156
C1C C 0.30576(14) 1.1119(3) 0.42731(19)
C2C C 0.33698(15) 1.1404(3) 0.4983(2)
H1C H 0.3371 1.2025 0.5124
C3C C 0.36718(16) 1.0777(3) 0.5468(2)
H2C H 0.3883 1.0981 0.5929
C4C C 0.36695(18) 0.9849(3) 0.5287(2)
H3C H 0.3882 0.9432 0.5618
C5C C 0.33506(16) 0.9546(3) 0.4612(2)
H4C H 0.3344 0.8919 0.4490
C6C C 0.30346(14) 1.0171(2) 0.41037(19)
C7C C 0.26969(14) 0.9787(2) 0.34151(19)
H5C H 0.2739 0.9164 0.3306
C8C C 0.07042(14) 0.8804(2) 0.09900(19)
C9C C 0.07161(16) 0.7935(3) 0.0660(2)
H6C H 0.1052 0.7610 0.0726
C10C C 0.02473(18) 0.7538(3) 0.0240(2)
H7C H 0.0272 0.6954 0.0027
C11C C -0.02526(17) 0.7987(3) 0.0130(2)
H8C H -0.0569 0.7714 -0.0154
C12C C -0.02817(16) 0.8853(3) 0.0448(2)
H9C H -0.0624 0.9161 0.0375
C13C C 0.01880(15) 0.9287(3) 0.0878(2)
C14C C 0.01303(15) 1.0197(3) 0.1159(2)
H10C H -0.0219 1.0476 0.1033
C15F C 0.05925(16) 0.5724(3) 0.6897(2)
C16F C 0.01822(18) 0.5138(3) 0.6521(3)
H11F H -0.0133 0.5388 0.6218
C17F C 0.0233(2) 0.4197(3) 0.6590(3)
H12F H -0.0050 0.3819 0.6338
C18F C 0.0707(2) 0.3797(3) 0.7034(3)
H13F H 0.0739 0.3158 0.7081
C19F C 0.11184(18) 0.4358(3) 0.7395(3)
H14F H 0.1436 0.4097 0.7687
C20F C 0.10747(15) 0.5325(3) 0.7336(2)
C21F C 0.15299(15) 0.5867(3) 0.7736(2)
H15F H 0.1827 0.5553 0.8028
C22F C 0.16806(14) 0.8221(3) 0.58813(17)
C23F C 0.21259(14) 0.7886(2) 0.54362(18)
C24F C 0.26359(14) 0.7536(2) 0.58112(18)
C25F C 0.27861(14) 0.7581(2) 0.66870(19)
C26F C 0.19946(14) 0.7846(2) 0.46316(18)
H16F H 0.1653 0.8080 0.4386
Mn1F Mn 0.21665(2) 0.84058(4) 0.80368(3)
Mn1C Mn 0.21665(2) 1.15942(4) 0.30368(3)
Mn2F Mn 0.13171(2) 0.97264(4) 0.69234(3)
Mn2C Mn 0.13171(2) 1.02736(4) 0.19234(3)
Mn3F Mn 0.09813(2) 0.76257(4) 0.71579(3)
Mn3C Mn 0.09813(2) 1.23743(4) 0.21579(3)
N1C N 0.23405(11) 1.02694(19) 0.29461(15)
N1F N 0.23405(11) 0.97306(19) 0.79461(15)
N2C N 0.05222(11) 1.0674(2) 0.15768(16)
N2F N 0.05222(11) 0.9326(2) 0.65768(16)
N3F N 0.15572(11) 0.6756(2) 0.77190(15)
Na1F Na 0.29772(6) 0.66581(10) 0.83379(8)
Na1C Na 0.29772(6) 0.33419(10) 0.33379(8)
Na1C_2 Na 0.29772(6) 1.33419(10) 0.33379(8)
O1F O 0.14408(9) 0.86401(15) 0.75023(12)
O2C O 0.28070(10) 1.17615(16) 0.37881(13)
O2F O 0.28070(10) 0.82385(16) 0.87881(13)
O3C O 0.20695(9) 0.98291(16) 0.22990(12)
O3F O 0.20695(9) 1.01709(16) 0.72990(12)
O3E O 0.29305(9) 0.51709(16) 0.77010(12)
O4C O 0.11749(9) 0.91533(16) 0.13972(13)
O4F O 0.11749(9) 1.08467(16) 0.63972(13)
O4E O 0.38251(9) 0.58467(16) 0.86028(13)
O5C O 0.03827(9) 1.15531(17) 0.17538(15)
O5F O 0.03827(9) 0.84469(17) 0.67538(15)
O6F O 0.05093(10) 0.66348(17) 0.68313(15)
O7F O 0.20171(9) 0.71265(16) 0.81790(14)
O8F O 0.31530(11) 0.70550(18) 0.70240(13)
O9F O 0.25227(10) 0.81658(18) 0.70137(13)
O10F O 0.14137(10) 0.75887(16) 0.61581(13)
O11F O 0.15881(9) 0.90694(16) 0.59098(12)
O12F O 0.06782(11) 0.76577(19) 0.83728(16)
H17F H 0.0478 0.8140 0.8381
H18F H 0.0461 0.7197 0.8377
O13F O 0.11314(12) 1.05192(19) 0.80711(15)
H19F H 0.1347 1.0986 0.8140
H20F H 0.0798 1.0723 0.7976
O16F O 0.28103(12) 0.5641(2) 0.94189(14)
H24F H 0.2980 0.5132 0.9386
H25F H 0.2950 0.5896 0.9844
O14 O 0.34105(14) 0.6039(2) 0.08890(16)
H21 H 0.3645 0.6462 0.1052
H22 H 0.3503 0.5553 0.1151
O15 O 0.5000 0.3531(8) 0.2500
H23 H 0.5057 0.3177 0.2133
H23A H 0.4943 0.3177 0.2867
loop_
_geom_bond_atom_site_label_1
_geom_bond_atom_site_label_2
_geom_bond_site_symmetry_1
_geom_bond_site_symmetry_2
C1 C2 1_555 1_555
C2 H1 1_555 1_555
C3 C2 1_555 1_555
H2 C3 1_555 1_555
C4 C3 1_555 1_555
H3 C4 1_555 1_555
C5 C4 1_555 1_555
H4 C5 1_555 1_555
C6 C1 1_555 1_555
C7 C6 1_555 1_555
H5 C7 1_555 1_555
C8 C9 1_555 1_555
C9 H6 1_555 1_555
C10 C9 1_555 1_555
H7 C10 1_555 1_555
C11 C10 1_555 1_555
H8 C11 1_555 1_555
C12 C11 1_555 1_555
H9 C12 1_555 1_555
C13 C8 1_555 1_555
C14 C13 1_555 1_555
H10 C14 1_555 1_555
C15 C16 1_555 1_555
C16 H11 1_555 1_555
C17 C16 1_555 1_555
H12 C17 1_555 1_555
C18 C17 1_555 1_555
H13 C18 1_555 1_555
C19 C18 1_555 1_555
H14 C19 1_555 1_555
C20 C15 1_555 1_555
C21 C20 1_555 1_555
H15 C21 1_555 1_555
C22 C23 1_555 1_555
C23 C24 1_555 1_555
C24 C25 1_555 1_555
C25 O8 1_555 1_555
C26 C23 1_555 1_555
H16 C26 1_555 1_555
Mn1 N1 1_555 1_555
Mn2 N2 1_555 1_555
Mn3 N3 1_555 1_555
N1 C7 1_555 1_555
N2 C14 1_555 1_555
N3 C21 1_555 1_555
Na1 O2 1_555 1_555
O1 Mn1 1_555 1_555
O2 C1 1_555 1_555
O3 Mn2 1_555 1_555
O4 C8 1_555 1_555
O5 Mn3 1_555 1_555
O6 C15 1_555 1_555
O7 Mn1 1_555 1_555
O8 Na1 1_555 1_555
O9 C25 1_555 1_555
O10 C22 1_555 1_555
O11 C22 1_555 1_555
O12 Mn3 1_555 1_555
H17 O12 1_555 1_555
H18 O12 1_555 1_555
O13 Mn2 1_555 1_555
H19 O13 1_555 1_555
H20 O13 1_555 1_555
O14 H21 1_555 1_555
H22 O14 1_555 1_555
O15 H23 1_555 1_555
O16 Na1 1_555 1_555
H24 O16 1_555 1_555
H25 O16 1_555 1_555
C1C C2C 1_555 1_555
C2C H1C 1_555 1_555
C3C C2C 1_555 1_555
H2C C3C 1_555 1_555
C4C C3C 1_555 1_555
H3C C4C 1_555 1_555
C5C C4C 1_555 1_555
H4C C5C 1_555 1_555
C6C C1C 1_555 1_555
C7C C6C 1_555 1_555
H5C C7C 1_555 1_555
C8C C9C 1_555 1_555
C9C H6C 1_555 1_555
C10C C9C 1_555 1_555
H7C C10C 1_555 1_555
C11C C10C 1_555 1_555
H8C C11C 1_555 1_555
C12C C11C 1_555 1_555
H9C C12C 1_555 1_555
C13C C8C 1_555 1_555
C14C C13C 1_555 1_555
H10C C14C 1_555 1_555
C15F C16F 1_555 1_555
C16F H11F 1_555 1_555
C17F C16F 1_555 1_555
H12F C17F 1_555 1_555
C18F C17F 1_555 1_555
H13F C18F 1_555 1_555
C19F C18F 1_555 1_555
H14F C19F 1_555 1_555
C20F C15F 1_555 1_555
C21F C20F 1_555 1_555
H15F C21F 1_555 1_555
C22F C23F 1_555 1_555
C23F C24F 1_555 1_555
C24F C26 1_555 1_555
C25F C24F 1_555 1_555
C26F C24 1_555 1_555
H16F C26F 1_555 1_555
Mn1F N1F 1_555 1_555
Mn1C N1C 1_555 1_555
Mn2F N2F 1_555 1_555
Mn2C N2C 1_555 1_555
Mn3F N3F 1_555 1_555
Mn3C O5C 1_555 1_555
N1C C7C 1_555 1_555
N1F O3F 1_555 1_555
N2C C14C 1_555 1_555
N2F O5F 1_555 1_555
N3F C21F 1_555 1_555
Na1F O2F 1_555 1_555
Na1C O3 1_555 1_555
Na1C_2 O2C 1_555 1_555
O1F Mn1F 1_555 1_555
O2C C1C 1_555 1_555
O2F Mn1F 1_555 1_555
O3C Na1 1_555 1_555
O3F Mn2F 1_555 1_555
O3E Na1F 1_555 1_555
O4C Na1 1_555 1_555
O4F Mn2F 1_555 1_555
O4E Na1F 1_555 1_555
O5C N2C 1_555 1_555
O5F Mn3F 1_555 1_555
O6F C15F 1_555 1_555
O7F Mn1F 1_555 1_555
O8F C25F 1_555 1_555
O9F C25F 1_555 1_555
O10F C22F 1_555 1_555
O11F C22F 1_555 1_555
O12F Mn3F 1_555 1_555
H17F O12F 1_555 1_555
H18F O12F 1_555 1_555
O13F Mn2F 1_555 1_555
H19F O13F 1_555 1_555
H20F O13F 1_555 1_555
H23A O15 1_555 1_555
O16F Na1F 1_555 1_555
H24F O16F 1_555 1_555
H25F O16F 1_555 1_555
C5 C6 1_555 1_555
C12 C13 1_555 1_555
C19 C20 1_555 1_555
Mn1 O2 1_555 1_555
Mn1 O9 1_555 1_555
Mn2 O1 1_555 1_555
Mn2 O4 1_555 1_555
Mn2 O11 1_555 1_555
Mn3 O1 1_555 1_555
Mn3 O6 1_555 1_555
Mn3 O10 1_555 1_555
N1 O3 1_555 1_555
N2 O5 1_555 1_555
N3 O7 1_555 1_555
Na1 O7 1_555 1_555
O4 Na1C 1_555 1_555
C5C C6C 1_555 1_555
C8C O4C 1_555 1_555
C12C C13C 1_555 1_555
C19F C20F 1_555 1_555
C23F C26F 1_555 1_555
Mn1F O9F 1_555 1_555
Mn1C O2C 1_555 1_555
Mn2F O1F 1_555 1_555
Mn2F O11F 1_555 1_555
Mn2C O3C 1_555 1_555
Mn2C O4C 1_555 1_555
Mn3F O1F 1_555 1_555
Mn3F O6F 1_555 1_555
Mn3F O10F 1_555 1_555
N1C O3C 1_555 1_555
N3F O7F 1_555 1_555
Na1F O7F 1_555 1_555
Na1F O8F 1_555 1_555

#END
