
#######################################################################
#
#                 Cambridge Crystallographic Data Centre
#                                CCDC 
#
#######################################################################
#
# If this CIF has been generated from an entry in the Cambridge 
# Structural Database, then it will include bibliographic, chemical, 
# crystal, experimental, refinement or atomic coordinate data resulting 
# from the CCDC's data processing and validation procedures.
#
#######################################################################

data_UYUQUB
_symmetry_cell_setting           triclinic
_symmetry_space_group_name_H-M   'P 1'
_symmetry_Int_Tables_number      1
_space_group_name_Hall           'P 1'
loop_
_symmetry_equiv_pos_site_id
_symmetry_equiv_pos_as_xyz
1 x,y,z
_cell_length_a                   6.2641(8)
_cell_length_b                   7.7728(9)
_cell_length_c                   15.6593(18)
_cell_angle_alpha                82.270(2)
_cell_angle_beta                 88.132(2)
_cell_angle_gamma                73.884(2)
_cell_volume                     725.817
loop_
_atom_site_label
_atom_site_type_symbol
_atom_site_fract_x
_atom_site_fract_y
_atom_site_fract_z
Fe1 Fe -0.00570(5) 0.78462(5) -0.16622(3)
Cl1 Cl -0.08766(17) 0.97747(14) -0.06154(7)
N1 N 0.3361(5) 0.7461(4) -0.15798(19)
N2 N 0.4244(5) 0.6254(4) -0.08577(19)
H1 H 0.5619 0.6085 -0.0686
O1 O 0.0135(4) 0.9511(4) -0.26246(17)
O2 O 0.0922(4) 0.5741(3) -0.06906(16)
O3 O 0.0648(5) 0.5630(4) -0.23946(19)
H2 H 0.0751 0.4479 -0.2077
O4 O 0.6820(5) 0.7793(4) -0.17856(19)
C1 C 0.1762(6) 0.9896(5) -0.3110(2)
C2 C 0.1191(7) 1.0924(6) -0.3917(3)
H3 H -0.0328 1.1340 -0.4087
C3 C 0.2765(7) 1.1340(6) -0.4464(3)
H4 H 0.2340 1.2030 -0.5010
C4 C 0.4962(7) 1.0763(7) -0.4225(3)
H5 H 0.6060 1.1050 -0.4607
C5 C 0.5579(7) 0.9765(6) -0.3430(3)
H6 H 0.7104 0.9383 -0.3269
C6 C 0.4004(6) 0.9304(5) -0.2857(2)
C7 C 0.4805(6) 0.8162(5) -0.2032(2)
C8 C 0.2909(6) 0.5371(5) -0.0440(2)
C9 C 0.3790(6) 0.3923(5) 0.0317(2)
C10 C 0.3545(7) 0.2139(5) 0.0056(3)
H7 H 0.2054 0.2358 -0.0200
H8 H 0.4665 0.1728 -0.0387
C11 C 0.3847(7) 0.0664(6) 0.0823(3)
H9 H 0.5381 0.0374 0.1049
H10 H 0.3639 -0.0442 0.0631
C12 C 0.2193(7) 0.1238(6) 0.1545(3)
H11 H 0.2476 0.0256 0.2036
H12 H 0.0665 0.1420 0.1333
C13 C 0.2358(7) 0.2994(6) 0.1865(2)
C14 C 0.0461(7) 0.3700(6) 0.2484(2)
C15 C -0.0093(7) 0.2499(7) 0.3147(3)
H13 H 0.0652 0.1248 0.3182
C16 C -0.1683(8) 0.3080(7) 0.3749(3)
H14 H -0.1992 0.2228 0.4195
C17 C -0.2839(8) 0.4879(8) 0.3717(3)
C18 C -0.2290(8) 0.6066(7) 0.3069(3)
H15 H -0.3052 0.7313 0.3040
C19 C -0.0666(7) 0.5522(6) 0.2452(3)
C20 C -0.0167(8) 0.6966(6) 0.1787(3)
H16 H -0.1372 0.7370 0.1350
H17 H -0.0139 0.8020 0.2073
C21 C 0.2033(7) 0.6298(5) 0.1341(3)
H18 H 0.3277 0.6191 0.1737
H19 H 0.2147 0.7159 0.0827
C22 C 0.2144(6) 0.4455(5) 0.1076(2)
H20 H 0.0639 0.4602 0.0831
C23 C 0.6207(6) 0.3829(6) 0.0509(3)
H21 H 0.7130 0.3490 0.0008
H22 H 0.6745 0.2924 0.1010
H23 H 0.6291 0.5012 0.0632
C24 C 0.4533(7) 0.2564(6) 0.2397(3)
H24 H 0.4668 0.3670 0.2599
H25 H 0.5810 0.2089 0.2035
H26 H 0.4493 0.1661 0.2894
C25 C -0.4586(9) 0.5506(9) 0.4390(3)
H27 H -0.4933 0.4379 0.4667
C26 C -0.3702(14) 0.6169(16) 0.5080(5)
H28 H -0.4877 0.6558 0.5498
H29 H -0.3146 0.7195 0.4843
H30 H -0.2483 0.5205 0.5366
C27 C -0.6731(11) 0.6682(15) 0.4034(4)
H31 H -0.7761 0.7020 0.4506
H32 H -0.7359 0.6033 0.3658
H33 H -0.6496 0.7774 0.3700
C28 C 0.0976(11) 0.5662(8) -0.3282(3)
H34 H 0.1274 0.4434 -0.3432
H35 H 0.2245 0.6138 -0.3450
H36 H -0.0360 0.6437 -0.3587
Fe1_2 Fe 0.99430(5) 0.78462(5) -0.16622(3)
O4_2 O -0.3180(5) 0.7793(4) -0.17856(19)
O5 O 0.8263(6) 0.3428(4) 0.8162(2)
H37 H 0.8777 0.2390 0.8432
C29 C 0.6478(9) 0.3433(7) 0.7631(3)
H38 H 0.5354 0.3015 0.7985
H39 H 0.7028 0.2625 0.7195
H40 H 0.5815 0.4661 0.7347
loop_
_geom_bond_atom_site_label_1
_geom_bond_atom_site_label_2
_geom_bond_site_symmetry_1
_geom_bond_site_symmetry_2
Fe1 Cl1 1_555 1_555
N1 Fe1 1_555 1_555
N2 N1 1_555 1_555
H1 N2 1_555 1_555
O1 Fe1 1_555 1_555
O2 Fe1 1_555 1_555
O3 Fe1 1_555 1_555
H2 O3 1_555 1_555
O4 C7 1_555 1_555
C1 O1 1_555 1_555
C2 C1 1_555 1_555
H3 C2 1_555 1_555
C3 C2 1_555 1_555
H4 C3 1_555 1_555
C4 C3 1_555 1_555
H5 C4 1_555 1_555
C5 C4 1_555 1_555
H6 C5 1_555 1_555
C6 C1 1_555 1_555
C7 N1 1_555 1_555
C8 N2 1_555 1_555
C9 C8 1_555 1_555
C10 C9 1_555 1_555
H7 C10 1_555 1_555
H8 C10 1_555 1_555
C11 C10 1_555 1_555
H9 C11 1_555 1_555
H10 C11 1_555 1_555
C12 C11 1_555 1_555
H11 C12 1_555 1_555
H12 C12 1_555 1_555
C13 C12 1_555 1_555
C14 C13 1_555 1_555
C15 C14 1_555 1_555
H13 C15 1_555 1_555
C16 C15 1_555 1_555
H14 C16 1_555 1_555
C17 C16 1_555 1_555
C18 C17 1_555 1_555
H15 C18 1_555 1_555
C19 C14 1_555 1_555
C20 C19 1_555 1_555
H16 C20 1_555 1_555
H17 C20 1_555 1_555
C21 C20 1_555 1_555
H18 C21 1_555 1_555
H19 C21 1_555 1_555
C22 C9 1_555 1_555
H20 C22 1_555 1_555
C23 C9 1_555 1_555
H21 C23 1_555 1_555
H22 C23 1_555 1_555
H23 C23 1_555 1_555
C24 C13 1_555 1_555
H24 C24 1_555 1_555
H25 C24 1_555 1_555
H26 C24 1_555 1_555
C25 C17 1_555 1_555
H27 C25 1_555 1_555
C26 C25 1_555 1_555
H28 C26 1_555 1_555
H29 C26 1_555 1_555
H30 C26 1_555 1_555
C27 C25 1_555 1_555
H31 C27 1_555 1_555
H32 C27 1_555 1_555
H33 C27 1_555 1_555
C28 O3 1_555 1_555
H34 C28 1_555 1_555
H35 C28 1_555 1_555
H36 C28 1_555 1_555
O5 H37 1_555 1_555
C29 O5 1_555 1_555
H38 C29 1_555 1_555
H39 C29 1_555 1_555
H40 C29 1_555 1_555
Fe1_2 O4 1_555 1_555
O4_2 Fe1 1_555 1_555
O2 C8 1_555 1_555
C5 C6 1_555 1_555
C6 C7 1_555 1_555
C13 C22 1_555 1_555
C18 C19 1_555 1_555
C21 C22 1_555 1_555

#END
