
#######################################################################
#
#                 Cambridge Crystallographic Data Centre
#                                CCDC 
#
#######################################################################
#
# If this CIF has been generated from an entry in the Cambridge 
# Structural Database, then it will include bibliographic, chemical, 
# crystal, experimental, refinement or atomic coordinate data resulting 
# from the CCDC's data processing and validation procedures.
#
#######################################################################

data_UYUREM
_symmetry_cell_setting           monoclinic
_symmetry_space_group_name_H-M   'P 21/c'
_symmetry_Int_Tables_number      14
_space_group_name_Hall           '-P 2ybc'
loop_
_symmetry_equiv_pos_site_id
_symmetry_equiv_pos_as_xyz
1 x,y,z
2 -x,1/2+y,1/2-z
3 -x,-y,-z
4 x,1/2-y,1/2+z
_cell_length_a                   7.908(2)
_cell_length_b                   20.254(3)
_cell_length_c                   13.477(2)
_cell_angle_alpha                90
_cell_angle_beta                 107.76(3)
_cell_angle_gamma                90
_cell_volume                     2055.72
loop_
_atom_site_label
_atom_site_type_symbol
_atom_site_fract_x
_atom_site_fract_y
_atom_site_fract_z
Zn1 Zn 0.09572(4) -0.467917(14) 0.23777(2)
Zn2 Zn 0.69527(3) -0.430353(12) 0.029676(19)
P1 P 0.35171(8) -0.43797(3) 0.10445(4)
O1 O 0.5499(2) -0.44107(9) 0.12096(13)
O2 O 0.2476(2) -0.48438(8) 0.01742(12)
O3 O 0.3147(2) -0.45099(9) 0.20676(12)
O4 O 0.8026(3) -0.14419(11) 0.36621(17)
O5 O 0.5760(3) -0.13796(9) 0.43061(14)
F1 F -0.07729(19) -0.41019(7) 0.12996(11)
O6 O -0.0203(3) -0.55025(9) 0.16341(13)
N1 N 0.0522(3) -0.40662(11) 0.35425(15)
N2 N 0.2216(3) -0.52284(10) 0.37934(15)
C1 C -0.0280(4) -0.34860(14) 0.3403(2)
H1 H -0.0840 -0.3344 0.2726
C2 C -0.0319(5) -0.30766(16) 0.4234(3)
H2 H -0.0859 -0.2664 0.4108
C3 C 0.0444(4) -0.32907(16) 0.5231(2)
H3 H 0.0419 -0.3024 0.5788
C4 C 0.1266(4) -0.39119(15) 0.5416(2)
C5 C 0.2076(4) -0.41866(16) 0.6435(2)
H4 H 0.2048 -0.3948 0.7019
C6 C 0.2877(4) -0.47822(16) 0.6562(2)
H5 H 0.3369 -0.4952 0.7229
C7 C 0.2979(4) -0.51552(14) 0.56793(19)
C8 C 0.3859(4) -0.57673(15) 0.5762(2)
H6 H 0.4394 -0.5955 0.6412
C9 C 0.3917(4) -0.60830(15) 0.4877(2)
H7 H 0.4508 -0.6484 0.4919
C10 C 0.3075(4) -0.57951(14) 0.3900(2)
H8 H 0.3127 -0.6014 0.3303
C11 C 0.2180(3) -0.49072(13) 0.46677(18)
C12 C 0.1302(3) -0.42793(13) 0.45382(19)
C13 C 0.2733(3) -0.35528(11) 0.06205(18)
H9 H 0.2928 -0.3461 -0.0042
H10 H 0.1467 -0.3527 0.0521
C14 C 0.3684(3) -0.30434(11) 0.14091(18)
C15 C 0.5288(4) -0.27777(12) 0.1373(2)
H11 H 0.5751 -0.2903 0.0844
C16 C 0.6202(4) -0.23262(12) 0.2122(2)
H12 H 0.7285 -0.2160 0.2096
C17 C 0.5526(3) -0.21190(11) 0.29073(18)
C18 C 0.3932(4) -0.23815(13) 0.2950(2)
H13 H 0.3461 -0.2249 0.3472
C19 C 0.3033(4) -0.28445(13) 0.2211(2)
H14 H 0.1976 -0.3024 0.2255
C20 C 0.6527(4) -0.16046(12) 0.36689(18)
H15 H 0.051(3) -0.5785(13) 0.154(2)
H16 H -0.092(3) -0.5401(15) 0.1063(17)
Zn2B Zn 0.30473(3) -0.569647(12) -0.029676(19)
Zn2C Zn 0.69527(3) -0.069647(12) 0.529676(19)
Zn2_2 Zn -0.30473(3) -0.430353(12) 0.029676(19)
O2B O 0.7524(2) -0.51562(8) -0.01742(12)
O5C O 0.5760(3) -0.36204(9) -0.06939(14)
F1_2 F 0.92271(19) -0.41019(7) 0.12996(11)
loop_
_geom_bond_atom_site_label_1
_geom_bond_atom_site_label_2
_geom_bond_site_symmetry_1
_geom_bond_site_symmetry_2
Zn1 O3 1_555 1_555
Zn2 O1 1_555 1_555
P1 O1 1_555 1_555
O2 P1 1_555 1_555
O3 P1 1_555 1_555
O4 C20 1_555 1_555
O5 C20 1_555 1_555
F1 Zn1 1_555 1_555
O6 Zn1 1_555 1_555
N1 Zn1 1_555 1_555
N2 Zn1 1_555 1_555
C1 N1 1_555 1_555
H1 C1 1_555 1_555
C2 C1 1_555 1_555
H2 C2 1_555 1_555
C3 C2 1_555 1_555
H3 C3 1_555 1_555
C4 C3 1_555 1_555
C5 C4 1_555 1_555
H4 C5 1_555 1_555
C6 C5 1_555 1_555
H5 C6 1_555 1_555
C7 C6 1_555 1_555
C8 C7 1_555 1_555
H6 C8 1_555 1_555
C9 C8 1_555 1_555
H7 C9 1_555 1_555
C10 N2 1_555 1_555
H8 C10 1_555 1_555
C11 N2 1_555 1_555
C12 N1 1_555 1_555
C13 P1 1_555 1_555
H9 C13 1_555 1_555
H10 C13 1_555 1_555
C14 C13 1_555 1_555
C15 C14 1_555 1_555
H11 C15 1_555 1_555
C16 C15 1_555 1_555
H12 C16 1_555 1_555
C17 C16 1_555 1_555
C18 C17 1_555 1_555
H13 C18 1_555 1_555
C19 C14 1_555 1_555
H14 C19 1_555 1_555
C20 C17 1_555 1_555
H15 O6 1_555 1_555
H16 O6 1_555 1_555
Zn2B O2 1_555 1_555
Zn2C O5 1_555 1_555
Zn2_2 F1 1_555 1_555
O2B Zn2 1_555 1_555
O5C Zn2 1_555 1_555
F1_2 Zn2 1_555 1_555
C4 C12 1_555 1_555
C7 C11 1_555 1_555
C9 C10 1_555 1_555
C11 C12 1_555 1_555
C18 C19 1_555 1_555

#END
