
#######################################################################
#
#                 Cambridge Crystallographic Data Centre
#                                CCDC 
#
#######################################################################
#
# If this CIF has been generated from an entry in the Cambridge 
# Structural Database, then it will include bibliographic, chemical, 
# crystal, experimental, refinement or atomic coordinate data resulting 
# from the CCDC's data processing and validation procedures.
#
#######################################################################

data_UYURIQ
_symmetry_cell_setting           monoclinic
_symmetry_space_group_name_H-M   'P 21/c'
_symmetry_Int_Tables_number      14
_space_group_name_Hall           '-P 2ybc'
loop_
_symmetry_equiv_pos_site_id
_symmetry_equiv_pos_as_xyz
1 x,y,z
2 -x,1/2+y,1/2-z
3 -x,-y,-z
4 x,1/2-y,1/2+z
_cell_length_a                   15.629(3)
_cell_length_b                   18.141(4)
_cell_length_c                   17.723(7)
_cell_angle_alpha                90
_cell_angle_beta                 121.89(2)
_cell_angle_gamma                90
_cell_volume                     4266.48
loop_
_atom_site_label
_atom_site_type_symbol
_atom_site_fract_x
_atom_site_fract_y
_atom_site_fract_z
Zn1 Zn 0.95609(4) 0.45969(3) 0.58088(3)
Zn2 Zn 0.78660(4) 0.49339(3) 0.20631(4)
Zn3 Zn 0.91934(4) 0.60465(3) 0.80931(4)
P1 P 0.82723(9) 0.51949(7) 0.38346(8)
P2 P 1.01680(10) 0.60472(6) 0.70003(8)
O1 O 0.8768(3) 0.45867(17) 0.4524(2)
O2 O 0.7469(3) 0.4868(2) 0.2926(2)
O3 O 0.9016(3) 0.56455(19) 0.3719(2)
O4 O 0.9590(3) 0.64767(18) 0.7326(2)
O5 O 0.9471(3) 0.5562(2) 0.6218(2)
O6 O 1.1024(3) 0.56195(19) 0.7765(2)
O7 O 0.6754(3) 0.8654(3) 0.2050(3)
O8 O 0.8241(3) 0.8268(2) 0.3148(3)
O9 O 1.2279(4) 0.9249(3) 0.9330(4)
O10 O 1.0745(3) 0.87989(19) 0.8616(2)
N1 N 0.6714(3) 0.4670(2) 0.0765(3)
N2 N 0.7681(3) 0.5948(2) 0.1484(3)
N3 N 0.9933(3) 0.5113(2) 0.8850(3)
N4 N 1.0432(3) 0.6530(2) 0.9272(3)
C1 C 0.6286(5) 0.4031(3) 0.0408(4)
H1 H 0.6528 0.3602 0.0769
C2 C 0.5491(5) 0.3957(4) -0.0475(5)
H2 H 0.5192 0.3489 -0.0703
C3 C 0.5157(5) 0.4567(5) -0.1001(4)
H3 H 0.4614 0.4529 -0.1602
C4 C 0.5612(4) 0.5246(4) -0.0657(3)
C5 C 0.5343(5) 0.5922(5) -0.1169(4)
H4 H 0.4811 0.5915 -0.1775
C6 C 0.5823(6) 0.6554(5) -0.0808(5)
H5 H 0.5615 0.6987 -0.1163
C7 C 0.6639(4) 0.6598(3) 0.0092(4)
C8 C 0.7208(6) 0.7230(4) 0.0496(5)
H6 H 0.7052 0.7673 0.0163
C9 C 0.7985(6) 0.7221(3) 0.1360(5)
H7 H 0.8373 0.7653 0.1628
C10 C 0.8204(5) 0.6568(3) 0.1847(4)
H8 H 0.8739 0.6564 0.2453
C11 C 0.6917(4) 0.5954(3) 0.0613(3)
C12 C 0.6404(4) 0.5277(3) 0.0237(3)
C13 C 0.7637(4) 0.5798(3) 0.4204(3)
C14 C 0.6993(4) 0.6401(3) 0.3564(3)
C15 C 0.5948(4) 0.6359(3) 0.3119(4)
H9 H 0.5639 0.5946 0.3209
C16 C 0.5350(4) 0.6918(3) 0.2542(4)
H10 H 0.4639 0.6894 0.2265
C17 C 0.7417(4) 0.7004(3) 0.3398(3)
H11 H 0.8129 0.7040 0.3694
C18 C 0.5779(4) 0.7506(3) 0.2367(3)
H12 H 0.5364 0.7872 0.1950
C19 C 0.6821(4) 0.7559(3) 0.2806(3)
C20 C 0.7297(4) 0.8212(3) 0.2648(4)
C21 C 1.0685(5) 0.6728(3) 0.6602(4)
C22 C 1.1486(5) 0.7217(3) 0.7324(4)
C23 C 1.2487(5) 0.7174(3) 0.7570(5)
H13 H 1.2682 0.6816 0.7299
C24 C 1.3199(5) 0.7637(4) 0.8197(5)
H14 H 1.3880 0.7595 0.8354
C25 C 1.2943(5) 0.8166(3) 0.8606(5)
H15 H 1.3442 0.8488 0.9036
C26 C 1.1222(4) 0.7750(3) 0.7746(4)
H16 H 1.0542 0.7786 0.7595
C27 C 1.1941(4) 0.8223(3) 0.8380(4)
C28 C 1.1649(4) 0.8799(3) 0.8820(4)
C29 C 1.0649(4) 0.7240(3) 0.9454(4)
H17 H 1.0181 0.7597 0.9059
C30 C 1.1538(5) 0.7478(3) 1.0199(4)
H18 H 1.1677 0.7990 1.0309
C31 C 1.2217(5) 0.6964(4) 1.0779(4)
H19 H 1.2828 0.7119 1.1293
C32 C 1.2001(4) 0.6209(3) 1.0605(4)
C33 C 1.2643(5) 0.5635(4) 1.1182(4)
H20 H 1.3259 0.5759 1.1711
C34 C 1.2381(5) 0.4923(4) 1.0981(4)
H21 H 1.2809 0.4552 1.1383
C35 C 1.1482(4) 0.4709(3) 1.0188(4)
C36 C 1.1175(5) 0.3969(3) 0.9941(4)
H22 H 1.1586 0.3575 1.0306
C37 C 1.0272(6) 0.3825(3) 0.9167(4)
H23 H 1.0059 0.3330 0.8998
C38 C 0.9665(5) 0.4406(3) 0.8627(4)
H24 H 0.9050 0.4296 0.8090
C39 C 1.0831(4) 0.5261(3) 0.9615(3)
C40 C 1.1100(4) 0.6025(3) 0.9837(3)
O11 O 0.8041(3) 0.5358(3) 0.7108(3)
H25 H 0.802(5) 0.522(4) 0.664(3)
H26 H 0.751(4) 0.559(4) 0.696(4)
Zn1B Zn 1.04391(4) 0.54031(3) 0.41912(3)
Zn1A Zn 1.04391(4) 0.95969(3) 0.91912(3)
Zn2B Zn 1.21340(4) 0.50661(3) 0.79369(4)
Zn3C Zn 0.91934(4) 0.89535(3) 0.30931(4)
O3B O 1.0984(3) 0.43545(19) 0.6281(2)
O6B O 0.8976(3) 0.43805(19) 0.2235(2)
O8C O 0.8241(3) 0.6732(2) 0.8148(3)
O10A O 0.9255(3) 0.37989(19) 0.6384(2)
O12 O 0.3506(5) 0.8836(5) 0.1415(6)
H27 H 0.407(5) 0.896(8) 0.187(5)
H28 H 0.363(9) 0.870(8) 0.102(6)
O13 O 0.5274(9) 0.9686(7) 0.1936(7)
H29 H 0.578(9) 0.941(9) 0.206(10)
H30 H 0.501(13) 0.981(11) 0.138(4)
O14 O 0.4164(14) 1.0031(12) 0.0081(13)
O15 O 0.5475(14) 0.8382(13) 0.0120(12)
loop_
_geom_bond_atom_site_label_1
_geom_bond_atom_site_label_2
_geom_bond_site_symmetry_1
_geom_bond_site_symmetry_2
Zn1 O1 1_555 1_555
Zn2 O2 1_555 1_555
Zn3 O4 1_555 1_555
P1 O1 1_555 1_555
P2 O4 1_555 1_555
O2 P1 1_555 1_555
O3 P1 1_555 1_555
O5 Zn1 1_555 1_555
O6 P2 1_555 1_555
O7 C20 1_555 1_555
O8 C20 1_555 1_555
O9 C28 1_555 1_555
O10 C28 1_555 1_555
N1 Zn2 1_555 1_555
N2 Zn2 1_555 1_555
N3 Zn3 1_555 1_555
N4 Zn3 1_555 1_555
C1 N1 1_555 1_555
H1 C1 1_555 1_555
C2 C1 1_555 1_555
H2 C2 1_555 1_555
C3 C2 1_555 1_555
H3 C3 1_555 1_555
C4 C3 1_555 1_555
C5 C4 1_555 1_555
H4 C5 1_555 1_555
C6 C5 1_555 1_555
H5 C6 1_555 1_555
C7 C6 1_555 1_555
C8 C7 1_555 1_555
H6 C8 1_555 1_555
C9 C8 1_555 1_555
H7 C9 1_555 1_555
C10 N2 1_555 1_555
H8 C10 1_555 1_555
C11 N2 1_555 1_555
C12 N1 1_555 1_555
C13 P1 1_555 1_555
C14 C13 1_555 1_555
C15 C14 1_555 1_555
H9 C15 1_555 1_555
C16 C15 1_555 1_555
H10 C16 1_555 1_555
C17 C14 1_555 1_555
H11 C17 1_555 1_555
C18 C16 1_555 1_555
H12 C18 1_555 1_555
C19 C17 1_555 1_555
C20 C19 1_555 1_555
C21 P2 1_555 1_555
C22 C21 1_555 1_555
C23 C22 1_555 1_555
H13 C23 1_555 1_555
C24 C23 1_555 1_555
H14 C24 1_555 1_555
C25 C24 1_555 1_555
H15 C25 1_555 1_555
C26 C22 1_555 1_555
H16 C26 1_555 1_555
C27 C25 1_555 1_555
C28 C27 1_555 1_555
C29 N4 1_555 1_555
H17 C29 1_555 1_555
C30 C29 1_555 1_555
H18 C30 1_555 1_555
C31 C30 1_555 1_555
H19 C31 1_555 1_555
C32 C31 1_555 1_555
C33 C32 1_555 1_555
H20 C33 1_555 1_555
C34 C33 1_555 1_555
H21 C34 1_555 1_555
C35 C34 1_555 1_555
C36 C35 1_555 1_555
H22 C36 1_555 1_555
C37 C36 1_555 1_555
H23 C37 1_555 1_555
C38 N3 1_555 1_555
H24 C38 1_555 1_555
C39 N3 1_555 1_555
C40 N4 1_555 1_555
O11 Zn3 1_555 1_555
H25 O11 1_555 1_555
H26 O11 1_555 1_555
O12 H27 1_555 1_555
H28 O12 1_555 1_555
O13 H29 1_555 1_555
H30 O13 1_555 1_555
Zn1B O3 1_555 1_555
Zn1A O10 1_555 1_555
Zn2B O6 1_555 1_555
Zn3C O8 1_555 1_555
O3B Zn1 1_555 1_555
O6B Zn2 1_555 1_555
O8C Zn3 1_555 1_555
O10A Zn1 1_555 1_555
P2 O5 1_555 1_555
C4 C12 1_555 1_555
C7 C11 1_555 1_555
C9 C10 1_555 1_555
C11 C12 1_555 1_555
C18 C19 1_555 1_555
C26 C27 1_555 1_555
C32 C40 1_555 1_555
C35 C39 1_555 1_555
C37 C38 1_555 1_555
C39 C40 1_555 1_555

#END
