
#######################################################################
#
#                 Cambridge Crystallographic Data Centre
#                                CCDC 
#
#######################################################################
#
# If this CIF has been generated from an entry in the Cambridge 
# Structural Database, then it will include bibliographic, chemical, 
# crystal, experimental, refinement or atomic coordinate data resulting 
# from the CCDC's data processing and validation procedures.
#
#######################################################################

data_UYURUC
_symmetry_cell_setting           orthorhombic
_symmetry_space_group_name_H-M   'F d d 2'
_symmetry_Int_Tables_number      43
_space_group_name_Hall           'F 2 -2d'
loop_
_symmetry_equiv_pos_site_id
_symmetry_equiv_pos_as_xyz
1 x,y,z
2 -x,-y,z
3 1/4+x,1/4-y,1/4+z
4 1/4-x,1/4+y,1/4+z
5 x,1/2+y,1/2+z
6 -x,1/2-y,1/2+z
7 1/4+x,3/4-y,3/4+z
8 1/4-x,3/4+y,3/4+z
9 1/2+x,y,1/2+z
10 1/2-x,-y,1/2+z
11 3/4+x,1/4-y,3/4+z
12 3/4-x,1/4+y,3/4+z
13 1/2+x,1/2+y,z
14 1/2-x,1/2-y,z
15 3/4+x,3/4-y,1/4+z
16 3/4-x,3/4+y,1/4+z
_cell_length_a                   10.4624(7)
_cell_length_b                   24.3088(15)
_cell_length_c                   8.4927(5)
_cell_angle_alpha                90
_cell_angle_beta                 90
_cell_angle_gamma                90
_cell_volume                     2159.93
loop_
_atom_site_label
_atom_site_type_symbol
_atom_site_fract_x
_atom_site_fract_y
_atom_site_fract_z
Sr1 Sr 1.0000 0.0000 0.46970(4)
N1 N 0.83618(17) 0.06237(7) 0.64424(19)
N2 N 0.79965(18) 0.15065(6) 0.7176(2)
N3 N 0.76507(17) 0.11490(8) 0.8344(2)
N4 N 0.76074(19) 0.01793(9) 0.8795(3)
O1 O 0.94081(16) 0.09735(5) 0.36816(19)
O2 O 0.88261(16) 0.18456(6) 0.41182(16)
O3 O 1.0000 0.0000 0.1523(4)
C1 C 0.78929(19) 0.06321(8) 0.7890(2)
C2 C 0.8407(2) 0.11680(7) 0.6060(2)
C3 C 0.8919(2) 0.13529(8) 0.4503(2)
H1 H 0.740(2) 0.1272(14) 0.929(4)
H2 H 0.801(3) -0.0129(11) 0.835(4)
H3 H 0.774(3) 0.0221(13) 0.974(5)
H4 H 1.015(3) 0.0318(19) 0.100(6)
Sr1F Sr 1.2500 -0.2500 0.21970(4)
Sr1H Sr 0.5000 0.0000 0.96970(4)
Sr1H_2 Sr 1.5000 0.0000 0.96970(4)
Sr1J Sr 0.7500 0.2500 0.21970(4)
N1A N 1.16382(17) -0.06237(7) 0.64424(19)
N2A N 1.20035(18) -0.15065(6) 0.7176(2)
N3A N 1.23493(17) -0.11490(8) 0.8344(2)
N4A N 1.23926(19) -0.01793(9) 0.8795(3)
N4H N 1.26074(19) 0.01793(9) 0.3795(3)
N4I N 0.73926(19) -0.01793(9) 0.3795(3)
O1A O 1.05919(16) -0.09735(5) 0.36816(19)
O2A O 1.11739(16) -0.18456(6) 0.41182(16)
O2B O 1.13261(16) 0.06544(6) 0.66182(16)
O2O O 0.86739(16) -0.06544(6) 0.66182(16)
C1A C 1.21071(19) -0.06321(8) 0.7890(2)
C2A C 1.1593(2) -0.11680(7) 0.6060(2)
C3A C 1.1081(2) -0.13529(8) 0.4503(2)
H1A H 1.260(2) -0.1272(14) 0.929(4)
H2A H 1.199(3) 0.0129(11) 0.835(4)
H2H H 1.301(3) -0.0129(11) 0.335(4)
H2I H 0.699(3) 0.0129(11) 0.335(4)
H3A H 1.226(3) -0.0221(13) 0.974(5)
H3H H 1.274(3) 0.0221(13) 0.474(5)
H3I H 0.726(3) -0.0221(13) 0.474(5)
H4A H 0.985(3) -0.0318(19) 0.100(6)
loop_
_geom_bond_atom_site_label_1
_geom_bond_atom_site_label_2
_geom_bond_site_symmetry_1
_geom_bond_site_symmetry_2
Sr1 N1 1_555 1_555
N1 C1 1_555 1_555
N2 N3 1_555 1_555
N3 C1 1_555 1_555
N4 C1 1_555 1_555
O1 Sr1 1_555 1_555
O2 C3 1_555 1_555
O3 Sr1 1_555 1_555
C2 N1 1_555 1_555
C3 O1 1_555 1_555
H1 N3 1_555 1_555
H2 N4 1_555 1_555
H3 N4 1_555 1_555
H4 O3 1_555 1_555
Sr1F O2A 1_555 1_555
Sr1H N4 1_555 1_555
Sr1H_2 N4A 1_555 1_555
Sr1J O2 1_555 1_555
N1A Sr1 1_555 1_555
N2A N3A 1_555 1_555
N3A C1A 1_555 1_555
N4A C1A 1_555 1_555
N4H Sr1 1_555 1_555
N4I Sr1 1_555 1_555
O1A Sr1 1_555 1_555
O2A C3A 1_555 1_555
O2B Sr1 1_555 1_555
O2O Sr1 1_555 1_555
C1A N1A 1_555 1_555
C2A N1A 1_555 1_555
C3A O1A 1_555 1_555
H1A N3A 1_555 1_555
H2A N4A 1_555 1_555
H2H N4H 1_555 1_555
H2I N4I 1_555 1_555
H3A N4A 1_555 1_555
H3H N4H 1_555 1_555
H3I N4I 1_555 1_555
H4A O3 1_555 1_555
N2 C2 1_555 1_555
C2 C3 1_555 1_555
N2A C2A 1_555 1_555
C2A C3A 1_555 1_555

#END
