
#######################################################################
#
#                 Cambridge Crystallographic Data Centre
#                                CCDC 
#
#######################################################################
#
# If this CIF has been generated from an entry in the Cambridge 
# Structural Database, then it will include bibliographic, chemical, 
# crystal, experimental, refinement or atomic coordinate data resulting 
# from the CCDC's data processing and validation procedures.
#
#######################################################################

data_UYUSAJ
_symmetry_cell_setting           orthorhombic
_symmetry_space_group_name_H-M   'F d d 2'
_symmetry_Int_Tables_number      43
_space_group_name_Hall           'F 2 -2d'
loop_
_symmetry_equiv_pos_site_id
_symmetry_equiv_pos_as_xyz
1 x,y,z
2 -x,-y,z
3 1/4+x,1/4-y,1/4+z
4 1/4-x,1/4+y,1/4+z
5 x,1/2+y,1/2+z
6 -x,1/2-y,1/2+z
7 1/4+x,3/4-y,3/4+z
8 1/4-x,3/4+y,3/4+z
9 1/2+x,y,1/2+z
10 1/2-x,-y,1/2+z
11 3/4+x,1/4-y,3/4+z
12 3/4-x,1/4+y,3/4+z
13 1/2+x,1/2+y,z
14 1/2-x,1/2-y,z
15 3/4+x,3/4-y,1/4+z
16 3/4-x,3/4+y,1/4+z
_cell_length_a                   10.9166(8)
_cell_length_b                   24.9609(18)
_cell_length_c                   8.4925(6)
_cell_angle_alpha                90
_cell_angle_beta                 90
_cell_angle_gamma                90
_cell_volume                     2314.11
loop_
_atom_site_label
_atom_site_type_symbol
_atom_site_fract_x
_atom_site_fract_y
_atom_site_fract_z
Ba1 Ba 0.5000 -0.5000 0.16864(5)
C1 C 0.2908(2) -0.43512(10) 0.4945(3)
C2 C 0.3385(2) -0.38180(9) 0.3132(3)
C3 C 0.3890(2) -0.36241(9) 0.1597(3)
N1 N 0.2979(2) -0.34973(8) 0.4257(3)
N2 N 0.3354(2) -0.43503(8) 0.3495(2)
N3 N 0.2663(2) -0.47991(10) 0.5843(3)
H1 H 0.2801 -0.5113 0.5467
H2 H 0.2373 -0.4764 0.6779
N4 N 0.2661(2) -0.38531(10) 0.5419(3)
O1 O 0.38211(19) -0.31396(7) 0.1265(2)
O2 O 0.4337(2) -0.39857(7) 0.0727(2)
O3 O 0.5000 -0.5000 -0.1619(4)
H3 H 0.4869 -0.5271 -0.2203
H4 H 0.240(2) -0.3767(14) 0.633(2)
Ba1J Ba 0.2500 -0.2500 -0.08136(5)
Ba1H Ba 0.0000 -0.5000 0.66864(5)
Ba1F Ba 0.7500 -0.7500 -0.08136(5)
Ba1H_2 Ba 1.0000 -0.5000 0.66864(5)
C1A C 0.7092(2) -0.56488(10) 0.4945(3)
C2A C 0.6615(2) -0.61820(9) 0.3132(3)
C3A C 0.6110(2) -0.63759(9) 0.1597(3)
N1A N 0.7021(2) -0.65027(8) 0.4257(3)
N2A N 0.6646(2) -0.56497(8) 0.3495(2)
N3I N 0.2337(2) -0.52009(10) 0.0843(3)
N3H N 0.7663(2) -0.47991(10) 0.0843(3)
N3A N 0.7337(2) -0.52009(10) 0.5843(3)
H1I H 0.2199 -0.4887 0.0467
H1H H 0.7801 -0.5113 0.0467
H1A H 0.7199 -0.4887 0.5467
H2I H 0.2627 -0.5236 0.1779
H2H H 0.7373 -0.4764 0.1779
H2A H 0.7627 -0.5236 0.6779
N4A N 0.7339(2) -0.61469(10) 0.5419(3)
O1B O 0.63211(19) -0.43604(7) 0.3765(2)
O1O O 0.36789(19) -0.56396(7) 0.3765(2)
O1A O 0.61789(19) -0.68604(7) 0.1265(2)
O2A O 0.5663(2) -0.60143(7) 0.0727(2)
H3A H 0.5131 -0.4729 -0.2203
H4A H 0.760(2) -0.6233(14) 0.633(2)
loop_
_geom_bond_atom_site_label_1
_geom_bond_atom_site_label_2
_geom_bond_site_symmetry_1
_geom_bond_site_symmetry_2
Ba1 N2 1_555 1_555
C1 N2 1_555 1_555
C2 C3 1_555 1_555
C3 O1 1_555 1_555
N1 C2 1_555 1_555
N2 C2 1_555 1_555
N3 C1 1_555 1_555
H1 N3 1_555 1_555
H2 N3 1_555 1_555
N4 C1 1_555 1_555
O1 Ba1J 1_555 1_555
O2 Ba1 1_555 1_555
O3 Ba1 1_555 1_555
H3 O3 1_555 1_555
H4 N4 1_555 1_555
Ba1H N3 1_555 1_555
Ba1F O1A 1_555 1_555
Ba1H_2 N3A 1_555 1_555
C1A N2A 1_555 1_555
C2A C3A 1_555 1_555
C3A O1A 1_555 1_555
N1A C2A 1_555 1_555
N2A Ba1 1_555 1_555
N3I Ba1 1_555 1_555
N3H Ba1 1_555 1_555
N3A C1A 1_555 1_555
H1I N3I 1_555 1_555
H1H N3H 1_555 1_555
H1A N3A 1_555 1_555
H2I N3I 1_555 1_555
H2H N3H 1_555 1_555
H2A N3A 1_555 1_555
N4A C1A 1_555 1_555
O1B Ba1 1_555 1_555
O1O Ba1 1_555 1_555
O2A Ba1 1_555 1_555
H3A O3 1_555 1_555
H4A N4A 1_555 1_555
C3 O2 1_555 1_555
N1 N4 1_555 1_555
C2A N2A 1_555 1_555
C3A O2A 1_555 1_555
N1A N4A 1_555 1_555

#END
