
#######################################################################
#
#                 Cambridge Crystallographic Data Centre
#                                CCDC 
#
#######################################################################
#
# If this CIF has been generated from an entry in the Cambridge 
# Structural Database, then it will include bibliographic, chemical, 
# crystal, experimental, refinement or atomic coordinate data resulting 
# from the CCDC's data processing and validation procedures.
#
#######################################################################

data_UYUSOX
_symmetry_cell_setting           triclinic
_symmetry_space_group_name_H-M   'P -1'
_symmetry_Int_Tables_number      2
_space_group_name_Hall           '-P 1'
loop_
_symmetry_equiv_pos_site_id
_symmetry_equiv_pos_as_xyz
1 x,y,z
2 -x,-y,-z
_cell_length_a                   7.5980(2)
_cell_length_b                   9.34150(10)
_cell_length_c                   14.25290(10)
_cell_angle_alpha                71.158(11)
_cell_angle_beta                 77.045(12)
_cell_angle_gamma                66.493(10)
_cell_volume                     872.642
loop_
_atom_site_label
_atom_site_type_symbol
_atom_site_fract_x
_atom_site_fract_y
_atom_site_fract_z
Hg1 Hg 0.492686(15) 0.821033(13) 0.745197(9)
O1 O 0.6813(3) 0.9011(3) 0.59697(17)
O3 O 0.8322(3) 0.6377(3) 0.65650(17)
O4 O 0.7261(3) 0.8194(3) -0.17412(17)
O5 O 0.5840(3) 0.6717(3) -0.05142(18)
N1 N 1.2358(3) 0.7720(3) 0.34057(17)
N2 N 1.1217(3) 0.6614(3) 0.09876(18)
C1 C 0.8154(4) 0.7691(3) 0.5932(2)
C2 C 0.9658(4) 0.7712(3) 0.5042(2)
C3 C 0.9565(4) 0.9123(3) 0.4297(2)
H3 H 0.8573 1.0090 0.4350
C4 C 1.0908(4) 0.9102(3) 0.3492(2)
H4 H 1.0826 1.0053 0.2994
C5 C 1.2538(4) 0.6323(3) 0.4127(2)
H5 H 1.3561 0.5377 0.4066
C6 C 1.1194(4) 0.6320(4) 0.4950(2)
H6 H 1.1320 0.5367 0.5452
C7 C 1.3759(4) 0.7753(4) 0.2502(2)
H7 H 1.4883 0.6767 0.2611
H8 H 1.4180 0.8659 0.2374
C8 C 1.2871(4) 0.7908(3) 0.1593(2)
H9 H 1.1603 0.8750 0.1572
H10 H 1.3671 0.8228 0.0990
C9 C 1.2688(4) 0.6332(3) 0.1619(2)
H11 H 1.3926 0.5620 0.1386
H12 H 1.2334 0.5800 0.2301
C10 C 1.1369(4) 0.7399(4) 0.0016(2)
H13 H 1.2398 0.7761 -0.0250
C11 C 1.0038(4) 0.7675(3) -0.0588(2)
H14 H 1.0161 0.8225 -0.1257
C12 C 0.8513(4) 0.7135(3) -0.0202(2)
C13 C 0.8390(4) 0.6293(3) 0.0798(2)
H15 H 0.7390 0.5898 0.1073
C14 C 0.9759(4) 0.6050(3) 0.1379(2)
H16 H 0.9678 0.5490 0.2048
C15 C 0.7065(4) 0.7354(3) -0.0863(2)
Cl1 Cl 0.32310(11) 0.67102(9) 0.71542(7)
Cl2 Cl 0.24225(12) 1.06563(10) 0.79157(8)
Hg1_2 Hg 0.492686(15) 0.821033(13) -0.254803(9)
O4_2 O 0.7261(3) 0.8194(3) 0.82588(17)
O2 O 1.5886(5) 0.7455(4) 0.4393(2)
H1 H 1.563(2) 0.752(2) 0.3829(6)
H2 H 1.4794(13) 0.771(4) 0.4742(10)
loop_
_geom_bond_atom_site_label_1
_geom_bond_atom_site_label_2
_geom_bond_site_symmetry_1
_geom_bond_site_symmetry_2
Hg1 O1 1_555 1_555
O1 C1 1_555 1_555
O2 H1 1_555 1_555
H2 O2 1_555 1_555
O3 C1 1_555 1_555
O4 C15 1_555 1_555
O5 C15 1_555 1_555
N1 C4 1_555 1_555
N2 C9 1_555 1_555
C1 C2 1_555 1_555
C2 C3 1_555 1_555
C3 H3 1_555 1_555
C4 C3 1_555 1_555
H4 C4 1_555 1_555
C5 N1 1_555 1_555
H5 C5 1_555 1_555
C6 C2 1_555 1_555
H6 C6 1_555 1_555
C7 N1 1_555 1_555
H7 C7 1_555 1_555
H8 C7 1_555 1_555
C8 C7 1_555 1_555
H9 C8 1_555 1_555
H10 C8 1_555 1_555
C9 C8 1_555 1_555
H11 C9 1_555 1_555
H12 C9 1_555 1_555
C10 N2 1_555 1_555
H13 C10 1_555 1_555
C11 C10 1_555 1_555
H14 C11 1_555 1_555
C12 C11 1_555 1_555
C13 C12 1_555 1_555
H15 C13 1_555 1_555
C14 N2 1_555 1_555
H16 C14 1_555 1_555
C15 C12 1_555 1_555
Cl1 Hg1 1_555 1_555
Cl2 Hg1 1_555 1_555
Hg1_2 O4 1_555 1_555
O4_2 Hg1 1_555 1_555
C5 C6 1_555 1_555
C13 C14 1_555 1_555

#END
