
#######################################################################
#
#                 Cambridge Crystallographic Data Centre
#                                CCDC 
#
#######################################################################
#
# If this CIF has been generated from an entry in the Cambridge 
# Structural Database, then it will include bibliographic, chemical, 
# crystal, experimental, refinement or atomic coordinate data resulting 
# from the CCDC's data processing and validation procedures.
#
#######################################################################

data_UYUSEN
_symmetry_cell_setting           triclinic
_symmetry_space_group_name_H-M   'P -1'
_symmetry_Int_Tables_number      2
_space_group_name_Hall           '-P 1'
loop_
_symmetry_equiv_pos_site_id
_symmetry_equiv_pos_as_xyz
1 x,y,z
2 -x,-y,-z
_cell_length_a                   8.3959(7)
_cell_length_b                   11.8088(12)
_cell_length_c                   12.8175(13)
_cell_angle_alpha                85.507(2)
_cell_angle_beta                 79.2450(10)
_cell_angle_gamma                84.174(2)
_cell_volume                     1239.73
loop_
_atom_site_label
_atom_site_type_symbol
_atom_site_fract_x
_atom_site_fract_y
_atom_site_fract_z
Ag1 Ag 0.62347(5) 0.59277(3) 0.53064(3)
N1 N 0.8124(5) 0.4491(3) 0.5167(3)
N2 N 1.4686(5) -0.2464(3) 0.5425(3)
O1 O 0.4379(4) 0.4674(3) 0.6631(3)
O2 O 0.5542(5) 0.4797(3) 0.8042(3)
O3 O 0.1643(4) 0.4874(3) 0.8505(3)
H5 H 0.0856 0.5351 0.8543
O4 O -0.0197(4) 0.3695(3) 0.8347(3)
O5 O 0.6189(5) -0.3407(3) 0.9449(3)
O6 O 0.6625(5) -0.3301(3) 0.7679(3)
H6 H 0.6316 -0.3944 0.7762
O7 O 0.9694(5) -0.3449(3) 0.8625(4)
O8 O 1.1406(5) -0.2268(3) 0.8968(4)
C1 C 0.4694(5) 0.4316(4) 0.7507(4)
C2 C 0.1195(5) 0.3889(4) 0.8375(3)
C3 C 0.6668(6) -0.2929(4) 0.8596(4)
C4 C 1.0094(6) -0.2468(4) 0.8775(4)
C5 C 0.5024(5) 0.1196(4) 0.8419(4)
C6 C 0.5393(5) 0.2300(4) 0.8050(4)
H7 H 0.6477 0.2451 0.7850
C7 C 0.4174(5) 0.3182(3) 0.7975(3)
C8 C 0.2545(5) 0.2949(4) 0.8295(3)
C9 C 0.2184(5) 0.1862(4) 0.8638(4)
H8 H 0.1100 0.1707 0.8833
C10 C 0.3397(6) 0.0988(4) 0.8701(4)
H9 H 0.3121 0.0256 0.8934
C11 C 0.6343(5) 0.0269(4) 0.8492(4)
C12 C 0.6050(6) -0.0864(4) 0.8441(4)
H10 H 0.5034 -0.1028 0.8336
C13 C 0.7228(6) -0.1750(4) 0.8544(4)
C14 C 0.8781(5) -0.1529(4) 0.8673(4)
C15 C 0.9086(6) -0.0401(4) 0.8716(4)
H11 H 1.0114 -0.0240 0.8801
C16 C 0.7900(6) 0.0493(4) 0.8638(4)
H12 H 0.8132 0.1239 0.8681
C17 C 0.8612(6) 0.3938(4) 0.6026(4)
H13 H 0.8218 0.4233 0.6686
C18 C 0.9661(6) 0.2961(4) 0.5986(4)
H14 H 0.9955 0.2612 0.6606
C19 C 1.0275(6) 0.2499(4) 0.5015(4)
C20 C 0.9814(6) 0.3091(5) 0.4122(4)
H15 H 1.0231 0.2836 0.3449
C21 C 0.8742(6) 0.4053(4) 0.4232(4)
H16 H 0.8431 0.4419 0.3622
C22 C 1.3819(7) -0.2117(5) 0.6344(4)
H17 H 1.3890 -0.2581 0.6958
C23 C 1.2827(7) -0.1116(5) 0.6439(4)
H18 H 1.2262 -0.0916 0.7103
C24 C 1.2669(6) -0.0405(4) 0.5544(4)
C25 C 1.3541(7) -0.0768(4) 0.4579(4)
H19 H 1.3461 -0.0333 0.3951
C26 C 1.4523(7) -0.1774(5) 0.4560(4)
H20 H 1.5113 -0.1990 0.3907
C27 C 1.1348(6) 0.1443(4) 0.4889(4)
H21 H 1.1894 0.1300 0.4205
C28 C 1.1614(7) 0.0672(4) 0.5658(4)
H22 H 1.1081 0.0826 0.6342
Ag1_2 Ag 1.62347(5) -0.40723(3) 0.53064(3)
N2_2 N 0.4686(5) 0.7536(3) 0.5425(3)
N3 N 0.7027(5) 0.4149(4) 0.9892(4)
H1 H 0.6287 0.4644 0.9634
H2 H 0.6566 0.3504 1.0148
H3 H 0.7386 0.4460 1.0414
H4 H 0.7884 0.3990 0.9372
loop_
_geom_bond_atom_site_label_1
_geom_bond_atom_site_label_2
_geom_bond_site_symmetry_1
_geom_bond_site_symmetry_2
Ag1 N1 1_555 1_555
N1 C17 1_555 1_555
N2 C22 1_555 1_555
N3 H1 1_555 1_555
H2 N3 1_555 1_555
H3 N3 1_555 1_555
H4 N3 1_555 1_555
O1 Ag1 1_555 1_555
O2 C1 1_555 1_555
O3 H5 1_555 1_555
O4 C2 1_555 1_555
O5 C3 1_555 1_555
O6 H6 1_555 1_555
O7 C4 1_555 1_555
O8 C4 1_555 1_555
C1 O1 1_555 1_555
C2 O3 1_555 1_555
C3 O6 1_555 1_555
C4 C14 1_555 1_555
C5 C6 1_555 1_555
C6 H7 1_555 1_555
C7 C1 1_555 1_555
C8 C2 1_555 1_555
C9 C8 1_555 1_555
H8 C9 1_555 1_555
C10 C5 1_555 1_555
H9 C10 1_555 1_555
C11 C5 1_555 1_555
C12 C11 1_555 1_555
H10 C12 1_555 1_555
C13 C3 1_555 1_555
C14 C13 1_555 1_555
C15 C14 1_555 1_555
H11 C15 1_555 1_555
C16 C11 1_555 1_555
H12 C16 1_555 1_555
C17 H13 1_555 1_555
C18 C17 1_555 1_555
H14 C18 1_555 1_555
C19 C18 1_555 1_555
C20 C19 1_555 1_555
H15 C20 1_555 1_555
C21 N1 1_555 1_555
H16 C21 1_555 1_555
C22 H17 1_555 1_555
C23 C22 1_555 1_555
H18 C23 1_555 1_555
C24 C23 1_555 1_555
C25 C24 1_555 1_555
H19 C25 1_555 1_555
C26 N2 1_555 1_555
H20 C26 1_555 1_555
C27 C19 1_555 1_555
H21 C27 1_555 1_555
C28 C24 1_555 1_555
H22 C28 1_555 1_555
Ag1_2 N2 1_555 1_555
N2_2 Ag1 1_555 1_555
C6 C7 1_555 1_555
C7 C8 1_555 1_555
C9 C10 1_555 1_555
C12 C13 1_555 1_555
C15 C16 1_555 1_555
C20 C21 1_555 1_555
C25 C26 1_555 1_555
C27 C28 1_555 1_555

#END
