
#######################################################################
#
#                 Cambridge Crystallographic Data Centre
#                                CCDC 
#
#######################################################################
#
# If this CIF has been generated from an entry in the Cambridge 
# Structural Database, then it will include bibliographic, chemical, 
# crystal, experimental, refinement or atomic coordinate data resulting 
# from the CCDC's data processing and validation procedures.
#
#######################################################################

data_UYUTAK
_symmetry_cell_setting           monoclinic
_symmetry_space_group_name_H-M   'C 2/c'
_symmetry_Int_Tables_number      15
_space_group_name_Hall           '-C 2yn'
loop_
_symmetry_equiv_pos_site_id
_symmetry_equiv_pos_as_xyz
1 x,y,z
2 -x,y,1/2-z
3 1/2+x,1/2+y,z
4 1/2-x,1/2+y,1/2-z
5 -x,-y,-z
6 x,-y,1/2+z
7 1/2-x,1/2-y,-z
8 1/2+x,1/2-y,1/2+z
_cell_length_a                   24.605(5)
_cell_length_b                   14.099(3)
_cell_length_c                   11.550(2)
_cell_angle_alpha                90
_cell_angle_beta                 109.28(3)
_cell_angle_gamma                90
_cell_volume                     3782.05
loop_
_atom_site_label
_atom_site_type_symbol
_atom_site_fract_x
_atom_site_fract_y
_atom_site_fract_z
Zn1 Zn 0.0000 0.61169(4) 0.2500
O1 O -0.05219(16) 0.7943(2) 0.3500(3)
N1 N 0.0000 -0.0360(3) 0.2500
C1 C -0.06571(18) 0.7156(3) 0.3838(4)
Zn2 Zn 0.0000 0.81963(4) 0.2500
O2 O -0.04891(14) 0.6366(2) 0.3580(3)
N2 N 0.0000 0.4677(3) 0.2500
C2 C -0.10378(17) 0.7164(3) 0.4613(4)
C3 C -0.1200(2) 0.6327(3) 0.5040(4)
H1 H -0.1074 0.5747 0.4839
C4 C -0.1738(2) 0.7200(5) 0.6062(6)
H2 H -0.1975 0.7206 0.6544
O3 O 0.06829(17) 0.7961(3) 0.4050(3)
C5 C -0.12274(19) 0.8021(3) 0.4932(4)
H3 H -0.1115 0.8585 0.4659
O4 O 0.07227(15) 0.6395(2) 0.3981(3)
C6 C -0.1581(2) 0.8053(4) 0.5652(5)
C7 C -0.1548(2) 0.6356(4) 0.5766(5)
H4 H -0.1653 0.5793 0.6055
C8 C -0.1781(3) 0.8990(5) 0.5992(7)
H5 H -0.1613 0.9498 0.5672
H6 H -0.1665 0.9043 0.6869
H7 H -0.2193 0.9027 0.5652
C9 C 0.0932(2) 0.7183(3) 0.4383(4)
C10 C 0.1528(2) 0.7200(3) 0.5305(4)
C11 C 0.1817(2) 0.6352(4) 0.5762(5)
H8 H 0.1625 0.5777 0.5546
C12 C 0.1820(2) 0.8043(4) 0.5661(5)
H9 H 0.1634 0.8615 0.5384
C13 C 0.2402(3) 0.8045(4) 0.6450(5)
C14 C 0.2392(3) 0.6359(5) 0.6539(6)
H10 H 0.2581 0.5794 0.6839
C15 C 0.2657(3) 0.7172(5) 0.6835(5)
H11 H 0.3041 0.7164 0.7336
C16 C 0.2715(3) 0.8954(5) 0.6802(7)
H12 H 0.2496 0.9456 0.6299
H13 H 0.3083 0.8909 0.6686
H14 H 0.2770 0.9088 0.7648
C17 C 0.0200(2) 0.0144(3) 0.1751(5)
H15 H 0.0344 -0.0185 0.1218
C18 C 0.0206(2) 0.1117(3) 0.1716(5)
H16 H 0.0349 0.1426 0.1166
C19 C 0.0000 0.1640(3) 0.2500
C20 C 0.0000 0.2694(3) 0.2500
C21 C 0.02654(19) 0.3203(2) 0.1814(4)
H17 H 0.0451 0.2887 0.1344
C22 C 0.02543(18) 0.4181(3) 0.1829(4)
H18 H 0.0431 0.4511 0.1354
O1A O 0.05219(16) 0.7943(2) 0.1500(3)
N1_2 N 0.0000 0.9640(3) 0.2500
C1A C 0.06571(18) 0.7156(3) 0.1162(4)
Zn2_2 Zn 0.0000 -0.18037(4) 0.2500
O2A O 0.04891(14) 0.6366(2) 0.1420(3)
C2A C 0.10378(17) 0.7164(3) 0.0387(4)
C3A C 0.1200(2) 0.6327(3) -0.0040(4)
H1A H 0.1074 0.5747 0.0161
C4A C 0.1738(2) 0.7200(5) -0.1062(6)
H2A H 0.1975 0.7206 -0.1544
O3A O -0.06829(17) 0.7961(3) 0.0950(3)
C5A C 0.12274(19) 0.8021(3) 0.0068(4)
H3A H 0.1115 0.8585 0.0341
O4A O -0.07227(15) 0.6395(2) 0.1019(3)
C6A C 0.1581(2) 0.8053(4) -0.0652(5)
C7A C 0.1548(2) 0.6356(4) -0.0766(5)
H4A H 0.1653 0.5793 -0.1055
C8A C 0.1781(3) 0.8990(5) -0.0992(7)
H5A H 0.1613 0.9498 -0.0672
H6A H 0.1665 0.9043 -0.1869
H7A H 0.2193 0.9027 -0.0652
C9A C -0.0932(2) 0.7183(3) 0.0617(4)
C10A C -0.1528(2) 0.7200(3) -0.0305(4)
C11A C -0.1817(2) 0.6352(4) -0.0762(5)
H8A H -0.1625 0.5777 -0.0546
C12A C -0.1820(2) 0.8043(4) -0.0661(5)
H9A H -0.1634 0.8615 -0.0384
C13A C -0.2402(3) 0.8045(4) -0.1450(5)
C14A C -0.2392(3) 0.6359(5) -0.1539(6)
H10A H -0.2581 0.5794 -0.1839
C15A C -0.2657(3) 0.7172(5) -0.1835(5)
H11A H -0.3041 0.7164 -0.2336
C16A C -0.2715(3) 0.8954(5) -0.1802(7)
H12A H -0.2496 0.9456 -0.1299
H13A H -0.3083 0.8909 -0.1686
H14A H -0.2770 0.9088 -0.2648
C17A C -0.0200(2) 0.0144(3) 0.3249(5)
H15A H -0.0344 -0.0185 0.3782
C18A C -0.0206(2) 0.1117(3) 0.3284(5)
H16A H -0.0349 0.1426 0.3834
C21A C -0.02654(19) 0.3203(2) 0.3186(4)
H17A H -0.0451 0.2887 0.3656
C22A C -0.02543(18) 0.4181(3) 0.3171(4)
H18A H -0.0431 0.4511 0.3646
loop_
_geom_bond_atom_site_label_1
_geom_bond_atom_site_label_2
_geom_bond_site_symmetry_1
_geom_bond_site_symmetry_2
Zn1 O2 1_555 1_555
O1 C1 1_555 1_555
N1 C17 1_555 1_555
C1 O2 1_555 1_555
Zn2 O1 1_555 1_555
N2 Zn1 1_555 1_555
C2 C1 1_555 1_555
C3 C2 1_555 1_555
H1 C3 1_555 1_555
C4 H2 1_555 1_555
O3 Zn2 1_555 1_555
C5 C2 1_555 1_555
H3 C5 1_555 1_555
O4 Zn1 1_555 1_555
C6 C4 1_555 1_555
C7 C3 1_555 1_555
H4 C7 1_555 1_555
C8 C6 1_555 1_555
H5 C8 1_555 1_555
H6 C8 1_555 1_555
H7 C8 1_555 1_555
C9 O3 1_555 1_555
C10 C9 1_555 1_555
C11 C10 1_555 1_555
H8 C11 1_555 1_555
C12 C10 1_555 1_555
H9 C12 1_555 1_555
C13 C12 1_555 1_555
C14 C11 1_555 1_555
H10 C14 1_555 1_555
C15 C13 1_555 1_555
H11 C15 1_555 1_555
C16 C13 1_555 1_555
H12 C16 1_555 1_555
H13 C16 1_555 1_555
H14 C16 1_555 1_555
C17 H15 1_555 1_555
C18 C17 1_555 1_555
H16 C18 1_555 1_555
C19 C18 1_555 1_555
C20 C19 1_555 1_555
C21 C20 1_555 1_555
H17 C21 1_555 1_555
C22 N2 1_555 1_555
H18 C22 1_555 1_555
O1A Zn2 1_555 1_555
N1_2 Zn2 1_555 1_555
C1A O1A 1_555 1_555
Zn2_2 N1 1_555 1_555
O2A Zn1 1_555 1_555
C2A C1A 1_555 1_555
C3A C2A 1_555 1_555
H1A C3A 1_555 1_555
C4A H2A 1_555 1_555
O3A Zn2 1_555 1_555
C5A C2A 1_555 1_555
H3A C5A 1_555 1_555
O4A Zn1 1_555 1_555
C6A C4A 1_555 1_555
C7A C3A 1_555 1_555
H4A C7A 1_555 1_555
C8A C6A 1_555 1_555
H5A C8A 1_555 1_555
H6A C8A 1_555 1_555
H7A C8A 1_555 1_555
C9A O3A 1_555 1_555
C10A C9A 1_555 1_555
C11A C10A 1_555 1_555
H8A C11A 1_555 1_555
C12A C10A 1_555 1_555
H9A C12A 1_555 1_555
C13A C12A 1_555 1_555
C14A C11A 1_555 1_555
H10A C14A 1_555 1_555
C15A C13A 1_555 1_555
H11A C15A 1_555 1_555
C16A C13A 1_555 1_555
H12A C16A 1_555 1_555
H13A C16A 1_555 1_555
H14A C16A 1_555 1_555
C17A N1 1_555 1_555
H15A C17A 1_555 1_555
C18A C19 1_555 1_555
H16A C18A 1_555 1_555
C21A C20 1_555 1_555
H17A C21A 1_555 1_555
C22A N2 1_555 1_555
H18A C22A 1_555 1_555
C4 C7 1_555 1_555
C5 C6 1_555 1_555
O4 C9 1_555 1_555
C14 C15 1_555 1_555
C21 C22 1_555 1_555
C1A O2A 1_555 1_555
C4A C7A 1_555 1_555
C5A C6A 1_555 1_555
O4A C9A 1_555 1_555
C14A C15A 1_555 1_555
C17A C18A 1_555 1_555
C21A C22A 1_555 1_555

#END
