
#######################################################################
#
#                 Cambridge Crystallographic Data Centre
#                                CCDC 
#
#######################################################################
#
# If this CIF has been generated from an entry in the Cambridge 
# Structural Database, then it will include bibliographic, chemical, 
# crystal, experimental, refinement or atomic coordinate data resulting 
# from the CCDC's data processing and validation procedures.
#
#######################################################################

data_UYUTEO
_symmetry_cell_setting           monoclinic
_symmetry_space_group_name_H-M   'C 2/c'
_symmetry_Int_Tables_number      15
_space_group_name_Hall           '-C 2yn'
loop_
_symmetry_equiv_pos_site_id
_symmetry_equiv_pos_as_xyz
1 x,y,z
2 -x,y,1/2-z
3 1/2+x,1/2+y,z
4 1/2-x,1/2+y,1/2-z
5 -x,-y,-z
6 x,-y,1/2+z
7 1/2-x,1/2-y,-z
8 1/2+x,1/2-y,1/2+z
_cell_length_a                   16.238(7)
_cell_length_b                   11.412(4)
_cell_length_c                   25.009(10)
_cell_angle_alpha                90
_cell_angle_beta                 92.487(17)
_cell_angle_gamma                90
_cell_volume                     4630
loop_
_atom_site_label
_atom_site_type_symbol
_atom_site_fract_x
_atom_site_fract_y
_atom_site_fract_z
Co1 Co 0.10362(3) 0.41978(3) 0.300175(16)
O1 O 0.14478(13) 0.40629(17) 0.22417(8)
O2 O 0.01888(14) 0.43038(19) 0.18945(9)
O3 O 0.13248(14) 0.42799(19) 0.38438(9)
O4 O 0.23432(15) 0.4137(2) 0.33072(9)
N1 N 0.10194(16) 0.60832(19) 0.29601(10)
N2 N 0.09957(16) 1.2294(2) 0.30039(10)
C1 C 0.09235(19) 0.4013(2) 0.18549(12)
C2 C 0.1188(2) 0.3551(3) 0.13318(13)
C3 C 0.0697(2) 0.3687(3) 0.08731(14)
H1 H 0.0212 0.4118 0.0887
C4 C 0.1918(2) 0.2908(3) 0.13129(16)
H2 H 0.2264 0.2835 0.1617
C5 C 0.2124(3) 0.2380(4) 0.0841(2)
H3 H 0.2599 0.1928 0.0828
C6 C 0.1618(4) 0.2527(5) 0.03882(19)
H4 H 0.1759 0.2166 0.0072
C7 C 0.0910(3) 0.3197(4) 0.03920(15)
C8 C 0.0387(4) 0.3387(5) -0.01119(17)
H5 H -0.0078 0.3869 -0.0034
H6 H 0.0196 0.2645 -0.0249
H7 H 0.0708 0.3768 -0.0374
C9 C 0.2085(2) 0.4210(3) 0.37723(13)
C10 C 0.2674(2) 0.4205(3) 0.42501(14)
C11 C 0.3512(3) 0.4251(4) 0.41765(19)
H8 H 0.3710 0.4279 0.3833
C12 C 0.2390(3) 0.4151(3) 0.47583(14)
H9 H 0.1825 0.4126 0.4804
C13 C 0.2928(3) 0.4134(4) 0.52079(16)
C14 C 0.3755(3) 0.4172(5) 0.5126(2)
H10 H 0.4126 0.4140 0.5419
C15 C 0.4053(3) 0.4255(6) 0.4620(2)
H11 H 0.4617 0.4314 0.4576
C16 C 0.2591(4) 0.4063(4) 0.57625(17)
H12 H 0.3040 0.4055 0.6025
H13 H 0.2274 0.3358 0.5793
H14 H 0.2246 0.4729 0.5821
C17 C 0.0727(2) 0.6685(3) 0.33659(14)
H15 H 0.0531 0.6272 0.3655
C18 C 0.1288(2) 0.6705(2) 0.25528(13)
H16 H 0.1485 0.6302 0.2262
C19 C 0.0699(2) 0.7888(3) 0.33793(13)
H17 H 0.0485 0.8268 0.3672
C20 C 0.1290(2) 0.7910(2) 0.25376(13)
H18 H 0.1493 0.8303 0.2245
C21 C 0.09867(19) 0.8532(2) 0.29623(12)
C22 C 0.0988(2) 0.9830(2) 0.29744(12)
C23 C 0.0404(2) 1.0465(3) 0.32384(14)
H19 H -0.0011 1.0074 0.3411
C24 C 0.1585(2) 1.0477(2) 0.27240(14)
H20 H 0.1994 1.0100 0.2540
C25 C 0.0431(2) 1.1666(2) 0.32471(14)
H21 H 0.0034 1.2063 0.3433
C26 C 0.1565(2) 1.1687(3) 0.27517(15)
H22 H 0.1973 1.2103 0.2584
Co1A Co -0.10362(3) 0.41978(3) 0.199825(16)
Co1_2 Co 0.10362(3) 1.41978(3) 0.300175(16)
O2A O -0.01888(14) 0.43038(19) 0.31055(9)
N2_2 N 0.09957(16) 0.2294(2) 0.30039(10)
loop_
_geom_bond_atom_site_label_1
_geom_bond_atom_site_label_2
_geom_bond_site_symmetry_1
_geom_bond_site_symmetry_2
Co1 O1 1_555 1_555
O1 C1 1_555 1_555
O2 C1 1_555 1_555
O3 Co1 1_555 1_555
O4 Co1 1_555 1_555
N1 Co1 1_555 1_555
N2 C25 1_555 1_555
C1 C2 1_555 1_555
C2 C3 1_555 1_555
C3 H1 1_555 1_555
C4 C2 1_555 1_555
H2 C4 1_555 1_555
C5 C4 1_555 1_555
H3 C5 1_555 1_555
C6 C5 1_555 1_555
H4 C6 1_555 1_555
C7 C3 1_555 1_555
C8 C7 1_555 1_555
H5 C8 1_555 1_555
H6 C8 1_555 1_555
H7 C8 1_555 1_555
C9 O3 1_555 1_555
C10 C9 1_555 1_555
C11 C10 1_555 1_555
H8 C11 1_555 1_555
C12 C10 1_555 1_555
H9 C12 1_555 1_555
C13 C12 1_555 1_555
C14 C13 1_555 1_555
H10 C14 1_555 1_555
C15 C11 1_555 1_555
H11 C15 1_555 1_555
C16 C13 1_555 1_555
H12 C16 1_555 1_555
H13 C16 1_555 1_555
H14 C16 1_555 1_555
C17 N1 1_555 1_555
H15 C17 1_555 1_555
C18 N1 1_555 1_555
H16 C18 1_555 1_555
C19 C17 1_555 1_555
H17 C19 1_555 1_555
C20 C18 1_555 1_555
H18 C20 1_555 1_555
C21 C19 1_555 1_555
C22 C21 1_555 1_555
C23 C22 1_555 1_555
H19 C23 1_555 1_555
C24 C22 1_555 1_555
H20 C24 1_555 1_555
C25 C23 1_555 1_555
H21 C25 1_555 1_555
C26 N2 1_555 1_555
H22 C26 1_555 1_555
Co1A O2 1_555 1_555
Co1_2 N2 1_555 1_555
O2A Co1 1_555 1_555
N2_2 Co1 1_555 1_555
O4 C9 1_555 1_555
C6 C7 1_555 1_555
C14 C15 1_555 1_555
C20 C21 1_555 1_555
C24 C26 1_555 1_555

#END
