
#######################################################################
#
#                 Cambridge Crystallographic Data Centre
#                                CCDC 
#
#######################################################################
#
# If this CIF has been generated from an entry in the Cambridge 
# Structural Database, then it will include bibliographic, chemical, 
# crystal, experimental, refinement or atomic coordinate data resulting 
# from the CCDC's data processing and validation procedures.
#
#######################################################################

data_UZADUV
_symmetry_cell_setting           triclinic
_symmetry_space_group_name_H-M   'P -1'
_symmetry_Int_Tables_number      2
_space_group_name_Hall           '-P 1'
loop_
_symmetry_equiv_pos_site_id
_symmetry_equiv_pos_as_xyz
1 x,y,z
2 -x,-y,-z
_cell_length_a                   9.1191(9)
_cell_length_b                   9.1984(6)
_cell_length_c                   13.8956(9)
_cell_angle_alpha                85.564(6)
_cell_angle_beta                 81.604(7)
_cell_angle_gamma                66.023(8)
_cell_volume                     1053.38
loop_
_atom_site_label
_atom_site_type_symbol
_atom_site_fract_x
_atom_site_fract_y
_atom_site_fract_z
W1 W 0.41788(5) 0.60267(5) 0.75209(3)
Cu1 Cu 0.55482(16) 0.77528(16) 0.64766(9)
Cu2 Cu 0.26574(16) 0.44240(16) 0.85596(9)
S1 S 0.3742(3) 0.8510(3) 0.78121(16)
S2 S 0.6056(3) 0.5213(3) 0.62501(19)
S3 S 0.1915(3) 0.5902(3) 0.72207(16)
S4 S 0.4992(3) 0.4493(3) 0.88072(18)
N1 N 0.6539(9) 0.9049(8) 0.5728(5)
N2 N 0.7648(9) 0.8572(9) 0.4926(5)
N3 N 0.1536(9) 0.3233(9) 0.9293(5)
N4 N 0.1975(9) 0.2360(9) 1.0135(5)
C1 C 0.5143(13) 1.1512(12) 0.6687(7)
H1 H 0.4299 1.1110 0.6890
H2 H 0.4642 1.2634 0.6488
H3 H 0.5753 1.1409 0.7231
C2 C 0.6259(11) 1.0572(11) 0.5853(7)
C3 C 0.8081(11) 0.9748(12) 0.4552(7)
C4 C 0.7199(13) 1.1062(12) 0.5134(7)
H4 H 0.7232 1.2084 0.5056
C5 C 0.9318(13) 0.9531(13) 0.3696(8)
H5 H 1.0304 0.8598 0.3805
H6 H 0.9565 1.0478 0.3598
H7 H 0.8905 0.9373 0.3117
C6 C 0.8313(12) 0.6931(11) 0.4603(6)
H8 H 0.8719 0.6896 0.3901
H9 H 0.7446 0.6528 0.4694
C7 C 0.9683(11) 0.5866(10) 0.5169(6)
H10 H 0.9290 0.5918 0.5874
H11 H 1.0572 0.6240 0.5061
C8 C -0.0749(12) 0.4038(13) 0.8308(8)
H12 H -0.0404 0.4893 0.8064
H13 H -0.1918 0.4490 0.8512
H14 H -0.0490 0.3273 0.7791
C9 C 0.0117(12) 0.3208(12) 0.9159(7)
C10 C -0.0330(12) 0.2309(12) 0.9910(7)
H15 H -0.1284 0.2107 0.9994
C11 C 0.0864(11) 0.1778(12) 1.0499(7)
C12 C 0.1018(14) 0.0748(14) 1.1417(7)
H16 H 0.0044 0.0531 1.1585
H17 H 0.1144 0.1307 1.1951
H18 H 0.1967 -0.0258 1.1307
C13 C 0.3494(11) 0.2103(11) 1.0480(6)
H19 H 0.3439 0.1782 1.1176
H20 H 0.3635 0.3119 1.0426
C14 C 0.4958(11) 0.0842(10) 0.9921(6)
H21 H 0.5949 0.0870 1.0115
H22 H 0.4951 0.1115 0.9218
W1A W 1.58212(5) 0.39733(5) 0.24791(3)
W1A_2 W 0.58212(5) -0.60267(5) 1.24791(3)
Cu1A Cu 1.44518(16) 0.22472(16) 0.35234(9)
Cu2A Cu 0.73426(16) -0.44240(16) 1.14404(9)
S1A S 1.6258(3) 0.1490(3) 0.21879(16)
S2A S 1.3944(3) 0.4787(3) 0.37499(19)
S3A S 0.8085(3) -0.5902(3) 1.27793(16)
S3A_2 S 1.8085(3) 0.4098(3) 0.27793(16)
S4A S 0.5008(3) -0.4493(3) 1.11928(18)
S4A_2 S 1.5008(3) 0.5507(3) 0.11928(18)
N1A N 1.3461(9) 0.0951(8) 0.4272(5)
N2A N 1.2352(9) 0.1428(9) 0.5074(5)
N3A N 0.8464(9) -0.3233(9) 1.0707(5)
N4A N 0.8025(9) -0.2360(9) 0.9865(5)
C1A C 1.4857(13) -0.1512(12) 0.3313(7)
H1A H 1.5701 -0.1110 0.3110
H2A H 1.5358 -0.2634 0.3512
H3A H 1.4247 -0.1409 0.2769
C2A C 1.3741(11) -0.0572(11) 0.4147(7)
C3A C 1.1919(11) 0.0252(12) 0.5448(7)
C4A C 1.2801(13) -0.1062(12) 0.4866(7)
H4A H 1.2768 -0.2084 0.4944
C5A C 1.0682(13) 0.0469(13) 0.6304(8)
H5A H 0.9696 0.1402 0.6195
H6A H 1.0435 -0.0478 0.6402
H7A H 1.1095 0.0627 0.6883
C6A C 1.1687(12) 0.3069(11) 0.5397(6)
H8A H 1.1281 0.3104 0.6099
H9A H 1.2554 0.3472 0.5306
C7A C 1.0317(11) 0.4134(10) 0.4831(6)
H10A H 1.0710 0.4082 0.4126
H11A H 0.9428 0.3760 0.4939
C8A C 1.0749(12) -0.4038(13) 1.1692(8)
H12A H 1.0404 -0.4893 1.1936
H13A H 1.1918 -0.4490 1.1488
H14A H 1.0490 -0.3273 1.2209
C9A C 0.9883(12) -0.3208(12) 1.0841(7)
C10A C 1.0330(12) -0.2309(12) 1.0090(7)
H15A H 1.1284 -0.2107 1.0006
C11A C 0.9136(11) -0.1778(12) 0.9501(7)
C12A C 0.8982(14) -0.0748(14) 0.8583(7)
H16A H 0.9956 -0.0531 0.8415
H17A H 0.8856 -0.1307 0.8049
H18A H 0.8033 0.0258 0.8693
C13A C 0.6506(11) -0.2103(11) 0.9520(6)
H19A H 0.6561 -0.1782 0.8824
H20A H 0.6365 -0.3119 0.9574
C14A C 0.5042(11) -0.0842(10) 1.0079(6)
H21A H 0.4051 -0.0870 0.9885
H22A H 0.5049 -0.1115 1.0782
loop_
_geom_bond_atom_site_label_1
_geom_bond_atom_site_label_2
_geom_bond_site_symmetry_1
_geom_bond_site_symmetry_2
W1 S1 1_555 1_555
Cu1 S1 1_555 1_555
Cu2 S3 1_555 1_555
S2 W1 1_555 1_555
S3 W1 1_555 1_555
S4 W1 1_555 1_555
N1 Cu1 1_555 1_555
N2 N1 1_555 1_555
N3 Cu2 1_555 1_555
N4 N3 1_555 1_555
C1 H1 1_555 1_555
H2 C1 1_555 1_555
H3 C1 1_555 1_555
C2 N1 1_555 1_555
C3 N2 1_555 1_555
C4 C2 1_555 1_555
H4 C4 1_555 1_555
C5 C3 1_555 1_555
H5 C5 1_555 1_555
H6 C5 1_555 1_555
H7 C5 1_555 1_555
C6 N2 1_555 1_555
H8 C6 1_555 1_555
H9 C6 1_555 1_555
C7 C6 1_555 1_555
H10 C7 1_555 1_555
H11 C7 1_555 1_555
C8 H12 1_555 1_555
H13 C8 1_555 1_555
H14 C8 1_555 1_555
C9 N3 1_555 1_555
C10 C9 1_555 1_555
H15 C10 1_555 1_555
C11 N4 1_555 1_555
C12 C11 1_555 1_555
H16 C12 1_555 1_555
H17 C12 1_555 1_555
H18 C12 1_555 1_555
C13 N4 1_555 1_555
H19 C13 1_555 1_555
H20 C13 1_555 1_555
C14 C13 1_555 1_555
H21 C14 1_555 1_555
H22 C14 1_555 1_555
W1A S1A 1_555 1_555
W1A_2 S3A 1_555 1_555
Cu1A S1A 1_555 1_555
Cu2A S3A 1_555 1_555
S2A W1A 1_555 1_555
S3A_2 W1A 1_555 1_555
S4A W1A_2 1_555 1_555
S4A_2 W1A 1_555 1_555
N1A Cu1A 1_555 1_555
N2A N1A 1_555 1_555
N3A Cu2A 1_555 1_555
N4A N3A 1_555 1_555
C1A H1A 1_555 1_555
H2A C1A 1_555 1_555
H3A C1A 1_555 1_555
C2A N1A 1_555 1_555
C3A N2A 1_555 1_555
C4A C2A 1_555 1_555
H4A C4A 1_555 1_555
C5A C3A 1_555 1_555
H5A C5A 1_555 1_555
H6A C5A 1_555 1_555
H7A C5A 1_555 1_555
C6A N2A 1_555 1_555
H8A C6A 1_555 1_555
H9A C6A 1_555 1_555
C7A C7 1_555 1_555
H10A C7A 1_555 1_555
H11A C7A 1_555 1_555
C8A H12A 1_555 1_555
H13A C8A 1_555 1_555
H14A C8A 1_555 1_555
C9A N3A 1_555 1_555
C10A C9A 1_555 1_555
H15A C10A 1_555 1_555
C11A N4A 1_555 1_555
C12A C11A 1_555 1_555
H16A C12A 1_555 1_555
H17A C12A 1_555 1_555
H18A C12A 1_555 1_555
C13A N4A 1_555 1_555
H19A C13A 1_555 1_555
H20A C13A 1_555 1_555
C14A C14 1_555 1_555
H21A C14A 1_555 1_555
H22A C14A 1_555 1_555
Cu1 S2 1_555 1_555
Cu2 S4 1_555 1_555
C1 C2 1_555 1_555
C3 C4 1_555 1_555
C8 C9 1_555 1_555
C10 C11 1_555 1_555
Cu1A S2A 1_555 1_555
Cu2A S4A 1_555 1_555
C1A C2A 1_555 1_555
C3A C4A 1_555 1_555
C6A C7A 1_555 1_555
C8A C9A 1_555 1_555
C10A C11A 1_555 1_555
C13A C14A 1_555 1_555

#END
