
#######################################################################
#
#                 Cambridge Crystallographic Data Centre
#                                CCDC 
#
#######################################################################
#
# If this CIF has been generated from an entry in the Cambridge 
# Structural Database, then it will include bibliographic, chemical, 
# crystal, experimental, refinement or atomic coordinate data resulting 
# from the CCDC's data processing and validation procedures.
#
#######################################################################

data_UZAFOR
_symmetry_cell_setting           monoclinic
_symmetry_space_group_name_H-M   'C 2/c'
_symmetry_Int_Tables_number      15
_space_group_name_Hall           '-C 2yn'
loop_
_symmetry_equiv_pos_site_id
_symmetry_equiv_pos_as_xyz
1 x,y,z
2 -x,y,1/2-z
3 1/2+x,1/2+y,z
4 1/2-x,1/2+y,1/2-z
5 -x,-y,-z
6 x,-y,1/2+z
7 1/2-x,1/2-y,-z
8 1/2+x,1/2-y,1/2+z
_cell_length_a                   42.0262(17)
_cell_length_b                   10.4420(4)
_cell_length_c                   18.8977(8)
_cell_angle_alpha                90
_cell_angle_beta                 112.776(5)
_cell_angle_gamma                90
_cell_volume                     7646.38
loop_
_atom_site_label
_atom_site_type_symbol
_atom_site_fract_x
_atom_site_fract_y
_atom_site_fract_z
Zn1 Zn 0.410620(15) 0.11888(6) 0.74903(3)
Zn2 Zn 0.325394(16) 0.96001(7) 0.73491(4)
C1 C 0.4056(2) 0.3119(8) 0.6096(5)
H1 H 0.3848 0.2733 0.5798
C2 C 0.4527(2) 0.3573(10) 0.7032(6)
H2 H 0.4704 0.3568 0.7517
C3 C 0.4501(2) 0.4413(10) 0.6458(6)
H3 H 0.4659 0.5040 0.6464
C4 C 0.4019(2) 0.4835(8) 0.5146(5)
H4 H 0.3867 0.4244 0.4771
H5 H 0.4194 0.5106 0.4959
C5 C 0.3809(2) 0.6013(7) 0.5186(5)
C6 C 0.3617(2) 0.5684(8) 0.5716(5)
H6 H 0.3478 0.4927 0.5510
H7 H 0.3789 0.5454 0.6215
C7 C 0.3070(2) 0.7042(10) 0.5345(5)
H8 H 0.2949 0.6750 0.4847
C8 C 0.2965(2) 0.7914(10) 0.5720(6)
H9 H 0.2755 0.8342 0.5520
C9 C 0.3456(2) 0.7302(8) 0.6481(5)
H10 H 0.3657 0.7200 0.6918
C10 C 0.3537(2) 0.6218(8) 0.4363(4)
H11 H 0.3376 0.5509 0.4234
H12 H 0.3409 0.6993 0.4357
C11 C 0.37838(19) 0.7411(8) 0.3547(5)
H13 H 0.3762 0.8219 0.3729
C12 C 0.3894(3) 0.5930(9) 0.2940(6)
H14 H 0.3967 0.5491 0.2601
C13 C 0.3753(2) 0.5367(10) 0.3383(5)
H15 H 0.3713 0.4496 0.3413
C14 C 0.3682(2) 1.0083(8) 0.5734(5)
H16 H 0.3529 1.0769 0.5607
C15 C 0.3680(2) 0.9115(8) 0.5232(5)
H17 H 0.3536 0.9015 0.4719
C16 C 0.4095(2) 0.8836(8) 0.6396(5)
H18 H 0.4281 0.8482 0.6797
C17 C 0.4068(2) 0.7102(8) 0.5477(5)
H19 H 0.4261 0.6789 0.5921
H20 H 0.4155 0.7290 0.5083
C18 C 0.3885(2) -0.1267(9) 0.8456(5)
C19 C 0.4229(2) -0.1619(9) 0.9066(6)
H21 H 0.4215 -0.2489 0.9231
H22 H 0.4400 -0.1608 0.8839
C20 C 0.4349(2) -0.0790(10) 0.9742(5)
H23 H 0.4182 -0.0817 0.9981
H24 H 0.4360 0.0084 0.9580
C21 C 0.4698(2) -0.1164(10) 1.0328(6)
H25 H 0.4863 -0.1151 1.0083
H26 H 0.4685 -0.2037 1.0490
C22 C 0.4836(2) -0.0306(11) 1.1045(5)
H27 H 0.4823 0.0582 1.0886
H28 H 0.4690 -0.0406 1.1333
C23 C 0.5199(3) -0.0613(11) 1.1555(6)
C24 C 0.2902(3) 0.9838(11) 0.8300(6)
C25 C 0.2723(3) 0.9778(14) 0.8822(7)
H29 H 0.2673 1.0650 0.8924
H30 H 0.2883 0.9427 0.9305
C26 C 0.2402(4) 0.9046(15) 0.8594(8)
H31 H 0.2227 0.9514 0.8184
H32 H 0.2438 0.8243 0.8378
C27 C 0.2266(4) 0.8756(15) 0.9143(10)
H33 H 0.2236 0.9563 0.9364
H34 H 0.2442 0.8283 0.9548
C28 C 0.1941(3) 0.8038(12) 0.8948(7)
H35 H 0.1755 0.8608 0.8647
H36 H 0.1912 0.7881 0.9426
C29 C 0.1881(3) 0.6808(10) 0.8533(6)
N1 N 0.42546(18) 0.2742(7) 0.6786(4)
N2 N 0.41919(18) 0.4139(6) 0.5870(4)
N3 N 0.33922(18) 0.6659(7) 0.5835(4)
N4 N 0.32097(18) 0.8090(7) 0.6443(4)
N5 N 0.36780(16) 0.6322(7) 0.3782(4)
N6 N 0.39186(17) 0.7216(7) 0.3044(4)
N7 N 0.39528(16) 0.8317(6) 0.5695(4)
N8 N 0.39416(17) 0.9895(6) 0.6452(4)
O1 O 0.38543(14) -0.0237(6) 0.8110(3)
O2 O 0.36368(17) -0.2017(7) 0.8308(4)
O3 O 0.5359(2) 0.0225(9) 1.2054(5)
O4 O 0.53511(18) -0.1578(8) 1.1500(4)
O5 O 0.31334(18) 1.0706(8) 0.8391(4)
O6 O 0.28398(17) 0.9028(7) 0.7791(4)
O7 O 0.15974(16) 0.6389(7) 0.8205(4)
O8 O 0.2135(2) 0.6141(9) 0.8571(5)
Zn1E Zn 0.410620(15) 0.88112(6) 0.24903(3)
Zn1_2 Zn 0.410620(15) 1.11888(6) 0.74903(3)
Zn1D Zn 0.589380(15) -0.11888(6) 1.25097(3)
Zn2_2 Zn 0.325394(16) -0.03999(7) 0.73491(4)
Zn2C Zn 0.174606(16) 0.46001(7) 0.76509(4)
N6E N 0.39186(17) 0.2784(7) 0.8044(4)
N8_2 N 0.39416(17) -0.0105(6) 0.6452(4)
O1_2 O 0.38543(14) 0.9763(6) 0.8110(3)
O4D O 0.46489(18) 0.1578(8) 0.8500(4)
O7C O 0.34026(16) 1.1389(7) 0.6795(4)
O8C O 0.2865(2) 1.1141(9) 0.6429(5)
O9 O 0.3366(2) -0.2830(9) 0.9446(4)
H37 H 0.344(3) -0.260(14) 0.909(5)
H38 H 0.318(2) -0.327(14) 0.920(6)
O10 O 0.2810(2) 0.5535(11) 0.8983(7)
H39 H 0.276(4) 0.488(13) 0.868(10)
H40 H 0.262(2) 0.593(15) 0.893(10)
O11 O 0.2242(2) 0.8027(10) 0.6673(5)
O12 O 0.5359(3) -0.3587(12) 1.0493(8)
O13 O 0.5237(5) 0.2692(18) 1.2199(10)
H41 H 0.514(3) 0.273(15) 1.1711(17)
O14 O 0.5134(5) 0.5828(19) 0.5931(11)
H42 H 0.494(2) 0.620(14) 0.576(9)
loop_
_geom_bond_atom_site_label_1
_geom_bond_atom_site_label_2
_geom_bond_site_symmetry_1
_geom_bond_site_symmetry_2
Zn1 N1 1_555 1_555
Zn2 N4 1_555 1_555
C1 H1 1_555 1_555
C2 H2 1_555 1_555
C3 C2 1_555 1_555
H3 C3 1_555 1_555
C4 H4 1_555 1_555
H5 C4 1_555 1_555
C5 C4 1_555 1_555
C6 C5 1_555 1_555
H6 C6 1_555 1_555
H7 C6 1_555 1_555
C7 H8 1_555 1_555
C8 C7 1_555 1_555
H9 C8 1_555 1_555
C9 H10 1_555 1_555
C10 C5 1_555 1_555
H11 C10 1_555 1_555
H12 C10 1_555 1_555
C11 H13 1_555 1_555
C12 H14 1_555 1_555
C13 C12 1_555 1_555
H15 C13 1_555 1_555
C14 H16 1_555 1_555
C15 C14 1_555 1_555
H17 C15 1_555 1_555
C16 H18 1_555 1_555
C17 C5 1_555 1_555
H19 C17 1_555 1_555
H20 C17 1_555 1_555
C18 C19 1_555 1_555
C19 H21 1_555 1_555
H22 C19 1_555 1_555
C20 C19 1_555 1_555
H23 C20 1_555 1_555
H24 C20 1_555 1_555
C21 C20 1_555 1_555
H25 C21 1_555 1_555
H26 C21 1_555 1_555
C22 C21 1_555 1_555
H27 C22 1_555 1_555
H28 C22 1_555 1_555
C23 C22 1_555 1_555
C24 C25 1_555 1_555
C25 H29 1_555 1_555
H30 C25 1_555 1_555
C26 C25 1_555 1_555
H31 C26 1_555 1_555
H32 C26 1_555 1_555
C27 C26 1_555 1_555
H33 C27 1_555 1_555
H34 C27 1_555 1_555
C28 C27 1_555 1_555
H35 C28 1_555 1_555
H36 C28 1_555 1_555
C29 C28 1_555 1_555
N1 C1 1_555 1_555
N2 C1 1_555 1_555
N3 C6 1_555 1_555
N4 C8 1_555 1_555
N5 C10 1_555 1_555
N6 C11 1_555 1_555
N7 C15 1_555 1_555
N8 C14 1_555 1_555
O1 Zn1 1_555 1_555
O2 C18 1_555 1_555
O3 C23 1_555 1_555
O4 C23 1_555 1_555
O5 C24 1_555 1_555
O6 Zn2 1_555 1_555
O7 C29 1_555 1_555
O8 C29 1_555 1_555
O9 H37 1_555 1_555
H38 O9 1_555 1_555
O10 H39 1_555 1_555
H40 O10 1_555 1_555
O13 H41 1_555 1_555
O14 H42 1_555 1_555
Zn1E N6 1_555 1_555
Zn1_2 N8 1_555 1_555
Zn1D O4 1_555 1_555
Zn2_2 O1 1_555 1_555
Zn2C O7 1_555 1_555
N6E Zn1 1_555 1_555
N8_2 Zn1 1_555 1_555
O1_2 Zn2 1_555 1_555
O4D Zn1 1_555 1_555
O7C Zn2 1_555 1_555
O8C Zn2 1_555 1_555
C2 N1 1_555 1_555
C3 N2 1_555 1_555
C4 N2 1_555 1_555
C7 N3 1_555 1_555
C9 N3 1_555 1_555
C9 N4 1_555 1_555
C11 N5 1_555 1_555
C12 N6 1_555 1_555
C13 N5 1_555 1_555
C16 N7 1_555 1_555
C16 N8 1_555 1_555
C17 N7 1_555 1_555
C18 O1 1_555 1_555
C24 O6 1_555 1_555
O8 Zn2C 1_555 1_555
Zn1_2 O1_2 1_555 1_555

#END
