
#######################################################################
#
#                 Cambridge Crystallographic Data Centre
#                                CCDC 
#
#######################################################################
#
# If this CIF has been generated from an entry in the Cambridge 
# Structural Database, then it will include bibliographic, chemical, 
# crystal, experimental, refinement or atomic coordinate data resulting 
# from the CCDC's data processing and validation procedures.
#
#######################################################################

data_UZAFEH
_symmetry_cell_setting           monoclinic
_symmetry_space_group_name_H-M   'P 21'
_symmetry_Int_Tables_number      4
_space_group_name_Hall           'P 2yb'
loop_
_symmetry_equiv_pos_site_id
_symmetry_equiv_pos_as_xyz
1 x,y,z
2 -x,1/2+y,-z
_cell_length_a                   8.2091(5)
_cell_length_b                   19.0042(10)
_cell_length_c                   9.8770(5)
_cell_angle_alpha                90
_cell_angle_beta                 101.766(6)
_cell_angle_gamma                90
_cell_volume                     1508.51
loop_
_atom_site_label
_atom_site_type_symbol
_atom_site_fract_x
_atom_site_fract_y
_atom_site_fract_z
Zn1 Zn 0.80579(10) 0.24982(4) 0.83519(6)
Zn2 Zn 0.80550(10) 0.54329(3) 0.30921(7)
C1 C 0.6547(7) 0.2569(3) 0.5396(5)
H1 H 0.6389 0.3050 0.5487
C2 C 0.7296(8) 0.1497(3) 0.5853(6)
H2 H 0.7730 0.1094 0.6327
C3 C 0.6596(8) 0.1535(3) 0.4488(7)
H3 H 0.6484 0.1167 0.3856
C4 C 0.5349(6) 0.2481(3) 0.2822(4)
H4 H 0.5369 0.2103 0.2166
H5 H 0.6062 0.2853 0.2602
C5 C 0.3583(7) 0.2766(3) 0.2591(5)
C6 C 0.3368(7) 0.3433(3) 0.3442(5)
H6 H 0.2187 0.3513 0.3375
H7 H 0.3852 0.3340 0.4406
C7 C 0.3219(8) 0.4639(3) 0.2406(5)
H8 H 0.2071 0.4678 0.2124
C8 C 0.4399(9) 0.5132(3) 0.2286(6)
H9 H 0.4166 0.5571 0.1876
C9 C 0.5728(8) 0.4262(3) 0.3296(5)
H10 H 0.6586 0.3974 0.3745
C10 C 0.2305(8) 0.2214(3) 0.2878(5)
H11 H 0.1204 0.2376 0.2438
H12 H 0.2506 0.1779 0.2424
C11 C 0.1716(8) 0.2019(3) 0.6377(6)
H13 H 0.1393 0.2152 0.7189
C12 C 0.1619(7) 0.2436(3) 0.5254(5)
H14 H 0.1193 0.2890 0.5135
C13 C 0.2696(8) 0.1424(4) 0.4909(7)
H15 H 0.3173 0.1064 0.4484
C14 C 0.2933(7) 0.2904(3) 0.0997(5)
H16 H 0.2380 0.2482 0.0583
H17 H 0.2109 0.3276 0.0889
C15 C 0.5061(7) 0.2634(4) -0.0391(5)
H18 H 0.4878 0.2151 -0.0413
C16 C 0.4845(8) 0.3753(3) 0.0037(5)
H19 H 0.4516 0.4179 0.0358
C17 C 0.6012(8) 0.3658(3) -0.0701(5)
H20 H 0.6627 0.4017 -0.0996
C18 C 0.8675(11) 0.1403(4) 1.0255(8)
C19 C 0.9647(9) 0.0849(3) 1.1113(6)
H21 H 0.9390 0.0749 1.1967
C20 C 1.0841(8) 0.0493(4) 1.0746(5)
H22 H 1.1346 0.0141 1.1340
C21 C 1.1454(11) 0.0608(4) 0.9455(7)
C22 C 0.9643(9) 0.3677(3) 0.7525(6)
C23 C 1.1176(8) 0.4035(3) 0.7354(6)
H23 H 1.2076 0.4016 0.8098
C24 C 1.1399(9) 0.4385(4) 0.6234(7)
H24 H 1.2441 0.4580 0.6249
C25 C 1.0086(9) 0.4485(4) 0.4961(6)
N1 N 0.7254(6) 0.2157(3) 0.6418(4)
N2 N 0.6084(6) 0.2215(2) 0.4209(4)
N3 N 0.4104(6) 0.4075(2) 0.3033(4)
N4 N 0.5953(7) 0.4896(2) 0.2843(5)
N5 N 0.2278(6) 0.2048(2) 0.4330(4)
N6 N 0.2353(6) 0.1375(2) 0.6158(4)
N7 N 0.4219(6) 0.3099(3) 0.0232(4)
N8 N 0.6184(7) 0.2952(3) -0.0967(4)
O1 O 0.7202(10) 0.1419(4) 1.0262(8)
O2 O 0.9291(6) 0.1754(2) 0.9471(4)
O3 O 1.0661(6) 0.0370(3) 0.8367(4)
O4 O 1.2780(8) 0.0938(4) 0.9526(5)
O5 O 0.9880(5) 0.3155(2) 0.8370(4)
O6 O 0.8262(6) 0.3877(2) 0.6893(4)
O7 O 0.9632(6) 0.3999(2) 0.4185(4)
O8 O 0.9643(6) 0.5118(2) 0.4765(4)
Zn1_2 Zn 0.80579(10) 0.24982(4) -0.16481(6)
Zn2A Zn 0.19450(10) 0.04329(3) 0.69079(7)
Zn2A_2 Zn 1.19450(10) 0.04329(3) 0.69079(7)
N6A N 0.7647(6) 0.6375(2) 0.3842(4)
N8_2 N 0.6184(7) 0.2952(3) 0.9033(4)
O3A O 0.9339(6) 0.5370(3) 0.1633(4)
O9 O 0.5723(8) 0.4925(3) 0.6180(5)
H25 H 0.569(10) 0.512(4) 0.695(4)
H26 H 0.635(10) 0.456(3) 0.632(7)
O10 O 1.5339(9) 0.0538(4) 1.1544(6)
H27 H 1.440(6) 0.068(6) 1.105(9)
H28 H 1.609(9) 0.083(4) 1.145(10)
O11 O 0.9210(12) 0.3405(5) 0.1718(7)
H29 H 0.89(2) 0.299(4) 0.144(13)
H30 H 0.94(2) 0.348(7) 0.259(4)
loop_
_geom_bond_atom_site_label_1
_geom_bond_atom_site_label_2
_geom_bond_site_symmetry_1
_geom_bond_site_symmetry_2
Zn1 N1 1_555 1_555
Zn2 N4 1_555 1_555
C1 H1 1_555 1_555
C2 H2 1_555 1_555
C3 C2 1_555 1_555
H3 C3 1_555 1_555
C4 H4 1_555 1_555
H5 C4 1_555 1_555
C5 C4 1_555 1_555
C6 C5 1_555 1_555
H6 C6 1_555 1_555
H7 C6 1_555 1_555
C7 H8 1_555 1_555
C8 C7 1_555 1_555
H9 C8 1_555 1_555
C9 H10 1_555 1_555
C10 C5 1_555 1_555
H11 C10 1_555 1_555
H12 C10 1_555 1_555
C11 H13 1_555 1_555
C12 C11 1_555 1_555
H14 C12 1_555 1_555
C13 H15 1_555 1_555
C14 C5 1_555 1_555
H16 C14 1_555 1_555
H17 C14 1_555 1_555
C15 H18 1_555 1_555
C16 H19 1_555 1_555
C17 C16 1_555 1_555
H20 C17 1_555 1_555
C18 C19 1_555 1_555
C19 H21 1_555 1_555
C20 C19 1_555 1_555
H22 C20 1_555 1_555
C21 C20 1_555 1_555
C22 C23 1_555 1_555
C23 H23 1_555 1_555
C24 C23 1_555 1_555
H24 C24 1_555 1_555
C25 C24 1_555 1_555
N1 C1 1_555 1_555
N2 C1 1_555 1_555
N3 C6 1_555 1_555
N4 C8 1_555 1_555
N5 C10 1_555 1_555
N6 C11 1_555 1_555
N7 C14 1_555 1_555
N8 C15 1_555 1_555
O1 C18 1_555 1_555
O2 Zn1 1_555 1_555
O3 C21 1_555 1_555
O4 C21 1_555 1_555
O5 Zn1 1_555 1_555
O6 C22 1_555 1_555
O7 C25 1_555 1_555
O8 Zn2 1_555 1_555
O9 H25 1_555 1_555
H26 O9 1_555 1_555
O10 H27 1_555 1_555
H28 O10 1_555 1_555
O11 H29 1_555 1_555
H30 O11 1_555 1_555
Zn1_2 N8 1_555 1_555
Zn2A N6 1_555 1_555
Zn2A_2 O3 1_555 1_555
N6A Zn2 1_555 1_555
N8_2 Zn1 1_555 1_555
O3A Zn2 1_555 1_555
C2 N1 1_555 1_555
C3 N2 1_555 1_555
C4 N2 1_555 1_555
C7 N3 1_555 1_555
C9 N3 1_555 1_555
C9 N4 1_555 1_555
C12 N5 1_555 1_555
C13 N5 1_555 1_555
C13 N6 1_555 1_555
C15 N7 1_555 1_555
C16 N7 1_555 1_555
C17 N8 1_555 1_555
C18 O2 1_555 1_555
C22 O5 1_555 1_555
C25 O8 1_555 1_555

#END
