
#######################################################################
#
#                 Cambridge Crystallographic Data Centre
#                                CCDC 
#
#######################################################################
#
# If this CIF has been generated from an entry in the Cambridge 
# Structural Database, then it will include bibliographic, chemical, 
# crystal, experimental, refinement or atomic coordinate data resulting 
# from the CCDC's data processing and validation procedures.
#
#######################################################################

data_UZAFIL
_symmetry_cell_setting           monoclinic
_symmetry_space_group_name_H-M   'P 21/c'
_symmetry_Int_Tables_number      14
_space_group_name_Hall           '-P 2ybc'
loop_
_symmetry_equiv_pos_site_id
_symmetry_equiv_pos_as_xyz
1 x,y,z
2 -x,1/2+y,1/2-z
3 -x,-y,-z
4 x,1/2-y,1/2+z
_cell_length_a                   10.137(5)
_cell_length_b                   16.768(5)
_cell_length_c                   15.852(5)
_cell_angle_alpha                90
_cell_angle_beta                 94.166(5)
_cell_angle_gamma                90
_cell_volume                     2687.36
loop_
_atom_site_label
_atom_site_type_symbol
_atom_site_fract_x
_atom_site_fract_y
_atom_site_fract_z
Ni1 Ni 0.20999(3) 0.227247(18) 0.36763(2)
C1 C -0.3643(2) -0.01412(15) 0.73604(17)
H1 H -0.4212 0.0142 0.7684
C2 C -0.3723(2) -0.09230(15) 0.71518(16)
H2 H -0.4375 -0.1271 0.7312
C3 C -0.2026(2) -0.04677(14) 0.65932(16)
H3 H -0.1272 -0.0430 0.6295
C4 C -0.2106(2) 0.09816(14) 0.70156(15)
H4 H -0.1148 0.0991 0.7026
H5 H -0.2357 0.1227 0.7535
C5 C -0.2676(2) 0.14874(14) 0.62566(15)
C6 C -0.2219(2) 0.12225(15) 0.54047(16)
H6 H -0.2399 0.0657 0.5342
H7 H -0.2758 0.1496 0.4964
C7 C 0.0286(2) 0.09851(16) 0.56210(18)
H8 H 0.0318 0.0622 0.6065
C8 C 0.1310(2) 0.12530(16) 0.52092(17)
H9 H 0.2188 0.1110 0.5338
C9 C -0.0408(2) 0.18134(15) 0.46252(15)
H10 H -0.0968 0.2125 0.4271
C10 C -0.2412(2) 0.23761(15) 0.64486(17)
H11 H -0.2635 0.2679 0.5937
H12 H -0.3004 0.2548 0.6867
C11 C -0.0128(2) 0.29546(16) 0.63162(17)
H13 H -0.0214 0.3097 0.5748
C12 C 0.0929(2) 0.30795(16) 0.68627(17)
H14 H 0.1709 0.3326 0.6729
C13 C -0.0520(2) 0.25020(14) 0.75563(16)
H15 H -0.0954 0.2273 0.7993
C14 C -0.4198(2) 0.13697(15) 0.62224(16)
H16 H -0.4396 0.0833 0.6024
H17 H -0.4473 0.1408 0.6795
C15 C -0.5602(2) 0.25960(16) 0.59690(17)
H18 H -0.5465 0.2829 0.6500
C16 C -0.6429(2) 0.28534(16) 0.53238(16)
H19 H -0.6951 0.3309 0.5334
C17 C -0.5520(2) 0.17989(15) 0.48942(16)
H20 H -0.5287 0.1374 0.4558
C18 C 0.1275(2) 0.40065(15) 0.35322(17)
C19 C 0.0639(3) 0.47220(17) 0.39204(19)
H21 H 0.1240 0.5170 0.3900
H22 H -0.0156 0.4857 0.3572
C20 C 0.0277(3) 0.46249(16) 0.48123(18)
H23 H 0.1058 0.4461 0.5160
H24 H -0.0373 0.4202 0.4831
O1 O 0.13922(15) 0.33816(10) 0.39783(11)
O2 O 0.16464(19) 0.40815(11) 0.28010(13)
N1 N -0.25498(17) 0.01488(11) 0.69983(13)
N2 N -0.27031(17) -0.11295(11) 0.66676(13)
N3 N -0.08203(17) 0.13567(12) 0.52527(13)
N4 N 0.08839(17) 0.17672(12) 0.45716(13)
N5 N -0.10503(18) 0.25787(12) 0.67587(13)
N6 N 0.06880(17) 0.27904(12) 0.76445(13)
N7 N -0.50037(17) 0.19249(12) 0.56910(12)
N8 N -0.63894(16) 0.23469(12) 0.46500(12)
O5 O 0.33432(16) 0.28165(10) 0.28273(11)
H29 H 0.4045(19) 0.2990(15) 0.3066(17)
H30 H 0.285(2) 0.3199(13) 0.2719(18)
Ni1B Ni -0.20999(3) 0.772753(18) 0.63237(2)
Ni1B_2 Ni -0.20999(3) -0.227247(18) 0.63237(2)
Ni1C Ni 0.20999(3) 0.272753(18) 0.86763(2)
Ni1_2 Ni -0.79001(3) 0.227247(18) 0.36763(2)
Ni1A Ni -0.20999(3) -0.272753(18) 0.13237(2)
Ni1B_3 Ni 0.79001(3) -0.227247(18) 0.63237(2)
C1B C 0.3643(2) 0.01412(15) 0.26396(17)
H1B H 0.4212 -0.0142 0.2316
C2B C 0.3723(2) 0.09230(15) 0.28482(16)
H2B H 0.4375 0.1271 0.2688
C3B C 0.2026(2) 0.04677(14) 0.34068(16)
H3B H 0.1272 0.0430 0.3705
C4B C 0.2106(2) -0.09816(14) 0.29844(15)
H4B H 0.1148 -0.0991 0.2974
H5B H 0.2357 -0.1227 0.2465
C5B C 0.2676(2) -0.14874(14) 0.37434(15)
C6B C 0.2219(2) -0.12225(15) 0.45953(16)
H6B H 0.2399 -0.0657 0.4658
H7B H 0.2758 -0.1496 0.5036
C7B C -0.0286(2) -0.09851(16) 0.43790(18)
H8B H -0.0318 -0.0622 0.3935
C8B C -0.1310(2) -0.12530(16) 0.47908(17)
H9B H -0.2188 -0.1110 0.4662
C9B C 0.0408(2) -0.18134(15) 0.53748(15)
H10B H 0.0968 -0.2125 0.5729
C10B C 0.2412(2) -0.23761(15) 0.35514(17)
H11B H 0.2635 -0.2679 0.4063
H12B H 0.3004 -0.2548 0.3133
C11B C 0.0128(2) -0.29546(16) 0.36838(17)
H13B H 0.0214 -0.3097 0.4252
C12B C -0.0929(2) -0.30795(16) 0.31373(17)
H14B H -0.1709 -0.3326 0.3271
C13B C 0.0520(2) -0.25020(14) 0.24437(16)
H15B H 0.0954 -0.2273 0.2007
C14B C 0.4198(2) -0.13697(15) 0.37776(16)
H16B H 0.4396 -0.0833 0.3976
H17B H 0.4473 -0.1408 0.3205
C15B C 0.5602(2) -0.25960(16) 0.40310(17)
H18B H 0.5465 -0.2829 0.3500
C16B C 0.6429(2) -0.28534(16) 0.46762(16)
H19B H 0.6951 -0.3309 0.4666
C17B C 0.5520(2) -0.17989(15) 0.51058(16)
H20B H 0.5287 -0.1374 0.5442
C18B C -0.1275(2) 0.59935(15) 0.64678(17)
C19B C -0.0639(3) 0.52780(17) 0.60796(19)
H21B H -0.1240 0.4830 0.6100
H22B H 0.0156 0.5143 0.6428
C20B C -0.0277(3) 0.53751(16) 0.51877(18)
H23B H -0.1058 0.5539 0.4840
H24B H 0.0373 0.5798 0.5169
O1B O -0.13922(15) 0.66184(10) 0.60217(11)
O2B O -0.16464(19) 0.59185(11) 0.71990(13)
N1B N 0.25498(17) -0.01488(11) 0.30017(13)
N2B N 0.27031(17) 0.11295(11) 0.33324(13)
N2_2 N -0.27031(17) 0.88705(11) 0.66676(13)
N3B N 0.08203(17) -0.13567(12) 0.47473(13)
N4B N -0.08839(17) -0.17672(12) 0.54284(13)
N4B_2 N -0.08839(17) 0.82328(12) 0.54284(13)
N5B N 0.10503(18) -0.25787(12) 0.32413(13)
N6B N -0.06880(17) -0.27904(12) 0.23555(13)
N6C N 0.06880(17) 0.22096(12) 0.26445(13)
N6A N -0.06880(17) 0.77904(12) 0.73555(13)
N7B N 0.50037(17) -0.19249(12) 0.43090(12)
N8B N 0.63894(16) -0.23469(12) 0.53500(12)
N8_2 N 0.36106(16) 0.23469(12) 0.46500(12)
N8B_2 N -0.36106(16) 0.76531(12) 0.53500(12)
O5B O -0.33432(16) 0.71835(10) 0.71727(11)
H29B H -0.4045(19) 0.7010(15) 0.6934(17)
H30B H -0.285(2) 0.6801(13) 0.7281(18)
C21 C 0.6348(3) 0.35303(17) 0.4076(2)
C22 C 0.6211(3) 0.4166(2) 0.4738(2)
H25 H 0.6159 0.3903 0.5280
H26 H 0.7014 0.4482 0.4774
C23 C 0.5066(3) 0.47229(19) 0.4617(2)
H27 H 0.4260 0.4415 0.4519
H28 H 0.5169 0.5046 0.4118
O3 O 0.56559(18) 0.35600(12) 0.33975(13)
O4 O 0.7204(2) 0.30011(15) 0.42432(18)
C21B C 0.3652(3) 0.64697(17) 0.5924(2)
C22B C 0.3789(3) 0.5834(2) 0.5262(2)
H25B H 0.3841 0.6097 0.4720
H26B H 0.2986 0.5518 0.5226
C23B C 0.4934(3) 0.52771(19) 0.5383(2)
H27B H 0.5740 0.5585 0.5481
H28B H 0.4831 0.4954 0.5882
O3B O 0.43441(18) 0.64400(12) 0.66025(13)
O4B O 0.2796(2) 0.69989(15) 0.57568(18)
O6 O 0.6568(2) 0.17211(18) 0.3174(2)
H31 H 0.664(4) 0.2179(17) 0.343(3)
H32 H 0.718(3) 0.141(2) 0.317(3)
O7 O 0.1296(3) 0.55249(17) 0.2005(2)
H33 H 0.127(4) 0.510(2) 0.236(3)
H34 H 0.213(3) 0.538(3) 0.184(3)
O8 O 0.6419(7) 0.0058(5) 0.3900(5)
H35 H 0.614(6) 0.049(4) 0.367(6)
H36 H 0.649(8) -0.033(3) 0.355(5)
loop_
_geom_bond_atom_site_label_1
_geom_bond_atom_site_label_2
_geom_bond_site_symmetry_1
_geom_bond_site_symmetry_2
Ni1 O1 1_555 1_555
C1 H1 1_555 1_555
C2 C1 1_555 1_555
H2 C2 1_555 1_555
C3 H3 1_555 1_555
C4 H4 1_555 1_555
H5 C4 1_555 1_555
C5 C4 1_555 1_555
C6 C5 1_555 1_555
H6 C6 1_555 1_555
H7 C6 1_555 1_555
C7 H8 1_555 1_555
C8 C7 1_555 1_555
H9 C8 1_555 1_555
C9 H10 1_555 1_555
C10 C5 1_555 1_555
H11 C10 1_555 1_555
H12 C10 1_555 1_555
C11 H13 1_555 1_555
C12 C11 1_555 1_555
H14 C12 1_555 1_555
C13 H15 1_555 1_555
C14 C5 1_555 1_555
H16 C14 1_555 1_555
H17 C14 1_555 1_555
C15 H18 1_555 1_555
C16 C15 1_555 1_555
H19 C16 1_555 1_555
C17 H20 1_555 1_555
C18 C19 1_555 1_555
C19 H21 1_555 1_555
H22 C19 1_555 1_555
C20 C19 1_555 1_555
H23 C20 1_555 1_555
H24 C20 1_555 1_555
C21 C22 1_555 1_555
C22 H25 1_555 1_555
H26 C22 1_555 1_555
C23 C22 1_555 1_555
H27 C23 1_555 1_555
H28 C23 1_555 1_555
O1 C18 1_555 1_555
O2 C18 1_555 1_555
O3 C21 1_555 1_555
O4 C21 1_555 1_555
N1 C1 1_555 1_555
N2 C2 1_555 1_555
N3 C6 1_555 1_555
N4 Ni1 1_555 1_555
N5 C10 1_555 1_555
N6 C12 1_555 1_555
N7 C14 1_555 1_555
N8 C16 1_555 1_555
O5 Ni1 1_555 1_555
H29 O5 1_555 1_555
H30 O5 1_555 1_555
O6 H31 1_555 1_555
H32 O6 1_555 1_555
O7 H33 1_555 1_555
H34 O7 1_555 1_555
O8 H35 1_555 1_555
H36 O8 1_555 1_555
Ni1B O1B 1_555 1_555
Ni1B_2 N2 1_555 1_555
Ni1C N6 1_555 1_555
Ni1_2 N8 1_555 1_555
Ni1A N6B 1_555 1_555
Ni1B_3 N8B 1_555 1_555
C1B H1B 1_555 1_555
C2B C1B 1_555 1_555
H2B C2B 1_555 1_555
C3B H3B 1_555 1_555
C4B H4B 1_555 1_555
H5B C4B 1_555 1_555
C5B C4B 1_555 1_555
C6B C5B 1_555 1_555
H6B C6B 1_555 1_555
H7B C6B 1_555 1_555
C7B H8B 1_555 1_555
C8B C7B 1_555 1_555
H9B C8B 1_555 1_555
C9B H10B 1_555 1_555
C10B C5B 1_555 1_555
H11B C10B 1_555 1_555
H12B C10B 1_555 1_555
C11B H13B 1_555 1_555
C12B C11B 1_555 1_555
H14B C12B 1_555 1_555
C13B H15B 1_555 1_555
C14B C5B 1_555 1_555
H16B C14B 1_555 1_555
H17B C14B 1_555 1_555
C15B H18B 1_555 1_555
C16B C15B 1_555 1_555
H19B C16B 1_555 1_555
C17B H20B 1_555 1_555
C18B C19B 1_555 1_555
C19B H21B 1_555 1_555
H22B C19B 1_555 1_555
C20B C20 1_555 1_555
H23B C20B 1_555 1_555
H24B C20B 1_555 1_555
C21B C22B 1_555 1_555
C22B H25B 1_555 1_555
H26B C22B 1_555 1_555
C23B C23 1_555 1_555
H27B C23B 1_555 1_555
H28B C23B 1_555 1_555
O1B C18B 1_555 1_555
O2B C18B 1_555 1_555
O3B C21B 1_555 1_555
O4B C21B 1_555 1_555
N1B C1B 1_555 1_555
N2B Ni1 1_555 1_555
N2_2 Ni1B 1_555 1_555
N3B C6B 1_555 1_555
N4B Ni1B_2 1_555 1_555
N4B_2 Ni1B 1_555 1_555
N5B C10B 1_555 1_555
N6B C12B 1_555 1_555
N6C Ni1 1_555 1_555
N6A Ni1B 1_555 1_555
N7B C14B 1_555 1_555
N8B C16B 1_555 1_555
N8_2 Ni1 1_555 1_555
N8B_2 Ni1B 1_555 1_555
O5B Ni1B 1_555 1_555
H29B O5B 1_555 1_555
H30B O5B 1_555 1_555
C3 N1 1_555 1_555
C3 N2 1_555 1_555
C4 N1 1_555 1_555
C7 N3 1_555 1_555
C8 N4 1_555 1_555
C9 N3 1_555 1_555
C9 N4 1_555 1_555
C11 N5 1_555 1_555
C13 N5 1_555 1_555
C13 N6 1_555 1_555
C15 N7 1_555 1_555
C17 N7 1_555 1_555
C17 N8 1_555 1_555
C2B N2B 1_555 1_555
C3B N1B 1_555 1_555
C3B N2B 1_555 1_555
C4B N1B 1_555 1_555
C7B N3B 1_555 1_555
C8B N4B 1_555 1_555
C9B N3B 1_555 1_555
C9B N4B 1_555 1_555
C11B N5B 1_555 1_555
C13B N5B 1_555 1_555
C13B N6B 1_555 1_555
C15B N7B 1_555 1_555
C17B N7B 1_555 1_555
C17B N8B 1_555 1_555
C19B C20B 1_555 1_555
C22B C23B 1_555 1_555

#END
