
#######################################################################
#
#                 Cambridge Crystallographic Data Centre
#                                CCDC 
#
#######################################################################
#
# If this CIF has been generated from an entry in the Cambridge 
# Structural Database, then it will include bibliographic, chemical, 
# crystal, experimental, refinement or atomic coordinate data resulting 
# from the CCDC's data processing and validation procedures.
#
#######################################################################

data_UZAJUB
_symmetry_cell_setting           orthorhombic
_symmetry_space_group_name_H-M   'P b c a'
_symmetry_Int_Tables_number      61
_space_group_name_Hall           '-P 2ac 2ab'
loop_
_symmetry_equiv_pos_site_id
_symmetry_equiv_pos_as_xyz
1 x,y,z
2 1/2-x,-y,1/2+z
3 -x,1/2+y,1/2-z
4 1/2+x,1/2-y,-z
5 -x,-y,-z
6 1/2+x,y,1/2-z
7 x,1/2-y,1/2+z
8 1/2-x,1/2+y,z
_cell_length_a                   16.7646(9)
_cell_length_b                   10.2804(6)
_cell_length_c                   23.5295(13)
_cell_angle_alpha                90
_cell_angle_beta                 90
_cell_angle_gamma                90
_cell_volume                     4055.23
loop_
_atom_site_label
_atom_site_type_symbol
_atom_site_fract_x
_atom_site_fract_y
_atom_site_fract_z
Cd1 Cd 0.978508(15) 0.20576(2) 0.188013(10)
C1 C 1.04664(19) 0.1673(3) 0.29456(13)
C2 C 1.07540(19) 0.1730(3) 0.35536(12)
C3 C 1.1030(2) 0.2914(3) 0.37607(15)
H1 H 1.0992 0.3653 0.3534
C4 C 1.1356(3) 0.3008(4) 0.42919(18)
H2 H 1.1546 0.3804 0.4423
C5 C 1.1403(3) 0.1928(4) 0.46283(17)
H3 H 1.1630 0.1977 0.4988
C6 C 1.1109(2) 0.0764(3) 0.44271(14)
C7 C 1.0505(2) -0.0692(3) 0.36693(13)
C8 C 1.07829(19) 0.0621(3) 0.38903(13)
C9 C 1.2969(2) 0.0873(4) 0.31343(16)
H4 H 1.2811 0.1410 0.3432
C10 C 1.3667(2) 0.0007(3) 0.24803(15)
H5 H 1.4083 -0.0186 0.2233
C11 C 1.2518(2) -0.0062(4) 0.29003(18)
H6 H 1.2001 -0.0291 0.3003
C12 C 1.2718(2) -0.1665(3) 0.20991(17)
H7 H 1.3085 -0.2389 0.2138
H8 H 1.2192 -0.1966 0.2210
C13 C 1.2696(2) -0.1246(3) 0.14909(16)
H9 H 1.2409 -0.0429 0.1466
H10 H 1.3239 -0.1088 0.1364
C14 C 1.2306(2) -0.2225(4) 0.10878(18)
H11 H 1.2551 -0.3070 0.1147
H12 H 1.2418 -0.1964 0.0700
C15 C 1.1415(2) -0.2363(3) 0.11574(18)
H13 H 1.1299 -0.2692 0.1535
H14 H 1.1216 -0.2987 0.0883
C16 C 1.0732(2) -0.0368(3) 0.14891(14)
H15 H 1.0744 -0.0599 0.1871
N1 N 1.04396(17) 0.0733(3) 0.13033(11)
C17 C 1.0884(3) -0.0466(4) 0.05870(17)
H16 H 1.1015 -0.0749 0.0223
N2 N 1.36945(16) 0.0921(2) 0.28715(12)
N3 N 1.10069(17) -0.1117(3) 0.10762(12)
C18 C 1.0538(3) 0.0664(5) 0.07231(18)
N4 N 1.1173(3) -0.0376(4) 0.48043(14)
N5 N 1.29668(17) -0.0609(3) 0.24821(12)
O1 O 1.01571(16) 0.2693(2) 0.27444(11)
O2 O 1.05594(15) 0.0674(2) 0.26720(9)
O3 O 0.97828(14) -0.0888(2) 0.35847(11)
O4 O 1.10470(14) -0.1502(2) 0.35705(10)
O5 O 1.0648(2) -0.1191(3) 0.47921(12)
O6 O 1.1764(3) -0.0430(4) 0.51112(15)
H17 H 1.040(2) 0.135(4) 0.0525(16)
Cd1E Cd 1.478508(15) 0.20576(2) 0.311987(10)
Cd1B Cd 1.021492(15) -0.29424(2) 0.311987(10)
N2E N 0.86945(16) 0.0921(2) 0.21285(12)
O3B O 1.02172(14) 0.4112(2) 0.14153(11)
O4B O 0.89530(14) 0.3498(2) 0.14295(10)
loop_
_geom_bond_atom_site_label_1
_geom_bond_atom_site_label_2
_geom_bond_site_symmetry_1
_geom_bond_site_symmetry_2
Cd1 N1 1_555 1_555
C1 C2 1_555 1_555
C2 C3 1_555 1_555
C3 H1 1_555 1_555
C4 C3 1_555 1_555
H2 C4 1_555 1_555
C5 C4 1_555 1_555
H3 C5 1_555 1_555
C6 C5 1_555 1_555
C7 C8 1_555 1_555
C8 C2 1_555 1_555
C9 H4 1_555 1_555
C10 H5 1_555 1_555
C11 C9 1_555 1_555
H6 C11 1_555 1_555
C12 H7 1_555 1_555
H8 C12 1_555 1_555
C13 C12 1_555 1_555
H9 C13 1_555 1_555
H10 C13 1_555 1_555
C14 C13 1_555 1_555
H11 C14 1_555 1_555
H12 C14 1_555 1_555
C15 C14 1_555 1_555
H13 C15 1_555 1_555
H14 C15 1_555 1_555
C16 H15 1_555 1_555
N1 C16 1_555 1_555
C17 H16 1_555 1_555
N2 C9 1_555 1_555
N3 C15 1_555 1_555
C18 N1 1_555 1_555
N4 C6 1_555 1_555
N5 C10 1_555 1_555
O1 Cd1 1_555 1_555
O2 Cd1 1_555 1_555
O3 C7 1_555 1_555
O4 C7 1_555 1_555
O5 N4 1_555 1_555
O6 N4 1_555 1_555
H17 C18 1_555 1_555
Cd1E N2 1_555 1_555
Cd1B O3 1_555 1_555
N2E Cd1 1_555 1_555
O3B Cd1 1_555 1_555
O4B Cd1 1_555 1_555
C1 O1 1_555 1_555
C1 O2 1_555 1_555
C6 C8 1_555 1_555
C10 N2 1_555 1_555
C11 N5 1_555 1_555
C12 N5 1_555 1_555
C16 N3 1_555 1_555
C17 N3 1_555 1_555
C17 C18 1_555 1_555
O4 Cd1B 1_555 1_555

#END
