
#######################################################################
#
#                 Cambridge Crystallographic Data Centre
#                                CCDC 
#
#######################################################################
#
# If this CIF has been generated from an entry in the Cambridge 
# Structural Database, then it will include bibliographic, chemical, 
# crystal, experimental, refinement or atomic coordinate data resulting 
# from the CCDC's data processing and validation procedures.
#
#######################################################################

data_UZAJIP
_symmetry_cell_setting           monoclinic
_symmetry_space_group_name_H-M   'P 21/n'
_symmetry_Int_Tables_number      14
_space_group_name_Hall           '-P 2yn'
loop_
_symmetry_equiv_pos_site_id
_symmetry_equiv_pos_as_xyz
1 x,y,z
2 1/2-x,1/2+y,1/2-z
3 -x,-y,-z
4 1/2+x,1/2-y,1/2+z
_cell_length_a                   9.5842(9)
_cell_length_b                   12.4659(12)
_cell_length_c                   16.3112(15)
_cell_angle_alpha                90
_cell_angle_beta                 97.156(2)
_cell_angle_gamma                90
_cell_volume                     1933.61
loop_
_atom_site_label
_atom_site_type_symbol
_atom_site_fract_x
_atom_site_fract_y
_atom_site_fract_z
Co1 Co 0.03269(4) 0.57679(3) 0.24724(3)
N1 N -0.5017(2) 0.24512(19) 0.23923(16)
N2 N 0.5195(3) 0.1051(2) 0.38151(17)
N3 N 0.1071(3) 0.5588(2) 0.37348(17)
N4 N 0.4989(3) 0.1492(2) 0.51037(17)
N5 N 0.1942(3) 0.4763(2) 0.48792(17)
O1 O -0.8397(2) 0.44805(18) 0.22116(15)
O2 O -0.1736(2) 0.53307(17) 0.25113(14)
O3 O -0.7093(2) 0.59434(17) 0.22925(16)
O4 O -0.1014(2) 0.36781(19) 0.28383(17)
C1 C -0.7219(3) 0.4950(3) 0.2259(2)
C2 C -0.1940(3) 0.4339(2) 0.26263(19)
C3 C -0.6098(3) 0.3140(2) 0.2313(2)
H1 H -0.7005 0.2861 0.2258
C4 C -0.5941(3) 0.4244(2) 0.23096(19)
C5 C -0.4581(3) 0.4658(2) 0.23953(19)
H2 H -0.4432 0.5395 0.2386
C6 C -0.3449(3) 0.3954(2) 0.24952(19)
C7 C -0.3719(3) 0.2866(2) 0.24931(19)
H3 H -0.2960 0.2397 0.2566
C8 C 0.4325(4) 0.1299(3) 0.4350(2)
H4 H 0.3354 0.1335 0.4217
C9 C 0.6501(4) 0.1093(3) 0.4268(2)
H5 H 0.7345 0.0956 0.4061
C10 C 0.6385(4) 0.1363(3) 0.5057(2)
H6 H 0.7116 0.1444 0.5484
C11 C 0.4336(4) 0.1782(3) 0.5844(2)
H7 H 0.4679 0.1302 0.6292
H8 H 0.3326 0.1688 0.5729
C12 C 0.4651(4) 0.2931(3) 0.6113(2)
H9 H 0.5663 0.3014 0.6221
H10 H 0.4273 0.3049 0.6630
C13 C 0.4076(4) 0.3806(3) 0.5504(2)
H11 H 0.4485 0.4489 0.5688
H12 H 0.4357 0.3651 0.4966
C14 C 0.2509(4) 0.3891(3) 0.5427(2)
H13 H 0.2102 0.3217 0.5216
H14 H 0.2227 0.4005 0.5971
C15 C 0.1537(4) 0.4676(3) 0.4071(2)
H15 H 0.1580 0.4040 0.3777
C16 C 0.1729(5) 0.5814(3) 0.5077(2)
H16 H 0.1921 0.6128 0.5596
C17 C 0.1188(4) 0.6300(3) 0.4376(2)
H17 H 0.0930 0.7019 0.4332
Co1A Co -0.53269(4) 0.07679(3) 0.25276(3)
Co1A_2 Co 0.46731(4) 0.07679(3) 0.25276(3)
Co1_2 Co -0.96731(4) 0.57679(3) 0.24724(3)
N1A N 0.0017(2) 0.74512(19) 0.26077(16)
N2A N -0.0195(3) 0.6051(2) 0.11849(17)
O1_2 O 0.1603(2) 0.44805(18) 0.22116(15)
O5 O 0.0485(5) 0.2083(3) 0.3709(2)
H18 H 0.093(6) 0.181(5) 0.337(3)
H19 H 0.003(6) 0.256(4) 0.340(3)
O6 O 0.9604(5) 0.8843(4) 0.4786(3)
H20 H 1.0420 0.9119 0.4821
H21 H 0.9559 0.8531 0.5245
loop_
_geom_bond_atom_site_label_1
_geom_bond_atom_site_label_2
_geom_bond_site_symmetry_1
_geom_bond_site_symmetry_2
Co1 N3 1_555 1_555
N1 C3 1_555 1_555
N2 C8 1_555 1_555
N3 C15 1_555 1_555
N4 C8 1_555 1_555
N5 C14 1_555 1_555
O1 C1 1_555 1_555
O2 Co1 1_555 1_555
O3 C1 1_555 1_555
O4 C2 1_555 1_555
C1 C4 1_555 1_555
C2 O2 1_555 1_555
C3 H1 1_555 1_555
C4 C3 1_555 1_555
C5 C4 1_555 1_555
H2 C5 1_555 1_555
C6 C2 1_555 1_555
C7 N1 1_555 1_555
H3 C7 1_555 1_555
C8 H4 1_555 1_555
C9 N2 1_555 1_555
H5 C9 1_555 1_555
C10 N4 1_555 1_555
H6 C10 1_555 1_555
C11 N4 1_555 1_555
H7 C11 1_555 1_555
H8 C11 1_555 1_555
C12 C11 1_555 1_555
H9 C12 1_555 1_555
H10 C12 1_555 1_555
C13 C12 1_555 1_555
H11 C13 1_555 1_555
H12 C13 1_555 1_555
C14 C13 1_555 1_555
H13 C14 1_555 1_555
H14 C14 1_555 1_555
C15 N5 1_555 1_555
H15 C15 1_555 1_555
C16 N5 1_555 1_555
H16 C16 1_555 1_555
C17 N3 1_555 1_555
H17 C17 1_555 1_555
O5 H18 1_555 1_555
H19 O5 1_555 1_555
O6 H20 1_555 1_555
H21 O6 1_555 1_555
Co1A N1 1_555 1_555
Co1A_2 N2 1_555 1_555
Co1_2 O1 1_555 1_555
N1A Co1 1_555 1_555
N2A Co1 1_555 1_555
O1_2 Co1 1_555 1_555
C5 C6 1_555 1_555
C6 C7 1_555 1_555
C9 C10 1_555 1_555
C16 C17 1_555 1_555

#END
