
#######################################################################
#
#                 Cambridge Crystallographic Data Centre
#                                CCDC 
#
#######################################################################
#
# If this CIF has been generated from an entry in the Cambridge 
# Structural Database, then it will include bibliographic, chemical, 
# crystal, experimental, refinement or atomic coordinate data resulting 
# from the CCDC's data processing and validation procedures.
#
#######################################################################

data_UZAKOW
_symmetry_cell_setting           orthorhombic
_symmetry_space_group_name_H-M   'P n m a'
_symmetry_Int_Tables_number      62
_space_group_name_Hall           '-P 2ac 2n'
loop_
_symmetry_equiv_pos_site_id
_symmetry_equiv_pos_as_xyz
1 x,y,z
2 1/2-x,-y,1/2+z
3 -x,1/2+y,-z
4 1/2+x,1/2-y,1/2-z
5 -x,-y,-z
6 1/2+x,y,1/2-z
7 x,1/2-y,z
8 1/2-x,1/2+y,1/2+z
_cell_length_a                   15.7918(6)
_cell_length_b                   19.5726(6)
_cell_length_c                   8.0018(2)
_cell_angle_alpha                90
_cell_angle_beta                 90
_cell_angle_gamma                90
_cell_volume                     2473.25
loop_
_atom_site_label
_atom_site_type_symbol
_atom_site_fract_x
_atom_site_fract_y
_atom_site_fract_z
Mo1 Mo 0.037345(18) 0.7500 0.67578(3)
Mo2 Mo 0.189000(18) 0.7500 1.00892(3)
F1 F 0.05784(12) 0.7500 0.4404(2)
F2 F 0.30988(12) 0.7500 0.9967(2)
O1 O -0.02741(10) 0.68098(8) 0.68611(19)
O2 O 0.17842(11) 0.68088(8) 1.13571(18)
O3 O 0.08374(15) 0.7500 0.8953(2)
N1 N 0.15784(12) 0.67903(9) 0.6465(2)
N2 N 0.21611(13) 0.67865(9) 0.7752(2)
N3 N 0.27383(12) 0.62958(9) 0.5583(2)
C1 C 0.19431(14) 0.65010(10) 0.5176(3)
H1 H 0.1688 0.6443 0.4110
C2 C 0.28475(15) 0.64943(11) 0.7187(3)
H2 H 0.3352 0.6430 0.7814
C3 C 0.33736(14) 0.59658(11) 0.4459(2)
C4 C 0.40006(14) 0.55561(10) 0.5530(2)
H3 H 0.3688 0.5205 0.6173
H4 H 0.4280 0.5866 0.6337
C5 C 0.46799(14) 0.52057(10) 0.4438(2)
C6 C 0.42078(15) 0.47363(11) 0.3192(3)
H5 H 0.4623 0.4509 0.2451
H6 H 0.3899 0.4377 0.3816
C7 C 0.35793(16) 0.51482(12) 0.2131(3)
H7 H 0.3289 0.4832 0.1333
C8 C 0.29129(14) 0.54836(11) 0.3255(3)
H8 H 0.2600 0.5130 0.3890
H9 H 0.2502 0.5743 0.2569
C9 C 0.38433(15) 0.65216(11) 0.3495(3)
H10 H 0.4133 0.6834 0.4282
H11 H 0.3438 0.6792 0.2820
C10 C 0.44952(15) 0.61751(12) 0.2348(3)
H12 H 0.4807 0.6532 0.1699
C11 C 0.51281(15) 0.57684(12) 0.3419(3)
H13 H 0.5423 0.6084 0.4192
H14 H 0.5559 0.5557 0.2683
C12 C 0.40409(18) 0.56988(14) 0.1142(3)
H15 H 0.4456 0.5485 0.0376
H16 H 0.3630 0.5961 0.0462
Mo1B Mo 0.962655(18) 0.2500 0.32422(3)
Mo2B Mo 0.811000(18) 0.2500 -0.00892(3)
O1F O -0.02741(10) 0.81902(8) 0.68611(19)
O2F O 0.17842(11) 0.81912(8) 1.13571(18)
N1D N 0.84216(12) 0.32097(9) 0.3535(2)
N1F N 0.15784(12) 0.82097(9) 0.6465(2)
N2D N 0.78389(13) 0.32135(9) 0.2248(2)
N2F N 0.21611(13) 0.82135(9) 0.7752(2)
N3D N 0.72617(12) 0.37042(9) 0.4417(2)
C1D C 0.80569(14) 0.34990(10) 0.4824(3)
H1D H 0.8312 0.3557 0.5890
C2D C 0.71525(15) 0.35057(11) 0.2813(3)
H2D H 0.6648 0.3570 0.2186
C3D C 0.66264(14) 0.40342(11) 0.5541(2)
C4D C 0.59994(14) 0.44439(10) 0.4470(2)
H3D H 0.6312 0.4795 0.3827
H4D H 0.5720 0.4134 0.3663
C5D C 0.53201(14) 0.47943(10) 0.5562(2)
C6D C 0.57922(15) 0.52637(11) 0.6808(3)
H5D H 0.5377 0.5491 0.7549
H6D H 0.6101 0.5623 0.6184
C7D C 0.64207(16) 0.48518(12) 0.7869(3)
H7D H 0.6711 0.5168 0.8667
C8D C 0.70871(14) 0.45164(11) 0.6745(3)
H8D H 0.7400 0.4870 0.6110
H9D H 0.7498 0.4257 0.7431
C9D C 0.61567(15) 0.34784(11) 0.6505(3)
H10D H 0.5867 0.3166 0.5718
H11D H 0.6562 0.3208 0.7180
C10D C 0.55048(15) 0.38249(12) 0.7652(3)
H12D H 0.5193 0.3468 0.8301
C11D C 0.48719(15) 0.42316(12) 0.6581(3)
H13D H 0.4577 0.3916 0.5808
H14D H 0.4441 0.4443 0.7317
C12D C 0.59591(18) 0.43012(14) 0.8858(3)
H15D H 0.5544 0.4515 0.9624
H16D H 0.6370 0.4039 0.9538
loop_
_geom_bond_atom_site_label_1
_geom_bond_atom_site_label_2
_geom_bond_site_symmetry_1
_geom_bond_site_symmetry_2
Mo1 F1 1_555 1_555
Mo2 F2 1_555 1_555
O1 Mo1 1_555 1_555
O2 Mo2 1_555 1_555
O3 Mo1 1_555 1_555
N1 Mo1 1_555 1_555
N2 Mo2 1_555 1_555
N3 C1 1_555 1_555
C1 N1 1_555 1_555
H1 C1 1_555 1_555
C2 N2 1_555 1_555
H2 C2 1_555 1_555
C3 N3 1_555 1_555
C4 C3 1_555 1_555
H3 C4 1_555 1_555
H4 C4 1_555 1_555
C5 C4 1_555 1_555
C6 C5 1_555 1_555
H5 C6 1_555 1_555
H6 C6 1_555 1_555
C7 C6 1_555 1_555
H7 C7 1_555 1_555
C8 C3 1_555 1_555
H8 C8 1_555 1_555
H9 C8 1_555 1_555
C9 C3 1_555 1_555
H10 C9 1_555 1_555
H11 C9 1_555 1_555
C10 C9 1_555 1_555
H12 C10 1_555 1_555
C11 C5 1_555 1_555
H13 C11 1_555 1_555
H14 C11 1_555 1_555
C12 C7 1_555 1_555
H15 C12 1_555 1_555
H16 C12 1_555 1_555
Mo1B N1D 1_555 1_555
Mo2B N2D 1_555 1_555
O1F Mo1 1_555 1_555
O2F Mo2 1_555 1_555
N1D N2D 1_555 1_555
N1F Mo1 1_555 1_555
N2D C2D 1_555 1_555
N2F Mo2 1_555 1_555
N3D C1D 1_555 1_555
C1D N1D 1_555 1_555
H1D C1D 1_555 1_555
C2D N3D 1_555 1_555
H2D C2D 1_555 1_555
C3D N3D 1_555 1_555
C4D C3D 1_555 1_555
H3D C4D 1_555 1_555
H4D C4D 1_555 1_555
C5D C5 1_555 1_555
C6D C5D 1_555 1_555
H5D C6D 1_555 1_555
H6D C6D 1_555 1_555
C7D C6D 1_555 1_555
H7D C7D 1_555 1_555
C8D C3D 1_555 1_555
H8D C8D 1_555 1_555
H9D C8D 1_555 1_555
C9D C3D 1_555 1_555
H10D C9D 1_555 1_555
H11D C9D 1_555 1_555
C10D C9D 1_555 1_555
H12D C10D 1_555 1_555
C11D C5D 1_555 1_555
H13D C11D 1_555 1_555
H14D C11D 1_555 1_555
C12D C7D 1_555 1_555
H15D C12D 1_555 1_555
H16D C12D 1_555 1_555
Mo2 O3 1_555 1_555
N1 N2 1_555 1_555
N3 C2 1_555 1_555
C7 C8 1_555 1_555
C10 C11 1_555 1_555
C10 C12 1_555 1_555
N1F N2F 1_555 1_555
C4D C5D 1_555 1_555
C7D C8D 1_555 1_555
C10D C11D 1_555 1_555
C10D C12D 1_555 1_555

#END
