
#######################################################################
#
#                 Cambridge Crystallographic Data Centre
#                                CCDC 
#
#######################################################################
#
# If this CIF has been generated from an entry in the Cambridge 
# Structural Database, then it will include bibliographic, chemical, 
# crystal, experimental, refinement or atomic coordinate data resulting 
# from the CCDC's data processing and validation procedures.
#
#######################################################################

data_UZAKIQ
_symmetry_cell_setting           orthorhombic
_symmetry_space_group_name_H-M   'P b c m'
_symmetry_Int_Tables_number      57
_space_group_name_Hall           '-P 2c 2b'
loop_
_symmetry_equiv_pos_site_id
_symmetry_equiv_pos_as_xyz
1 x,y,z
2 -x,-y,1/2+z
3 -x,1/2+y,1/2-z
4 x,1/2-y,-z
5 -x,-y,-z
6 x,y,1/2-z
7 x,1/2-y,1/2+z
8 -x,1/2+y,z
_cell_length_a                   8.0430(8)
_cell_length_b                   16.1926(16)
_cell_length_c                   14.5450(13)
_cell_angle_alpha                90
_cell_angle_beta                 90
_cell_angle_gamma                90
_cell_volume                     1894.3
loop_
_atom_site_label
_atom_site_type_symbol
_atom_site_fract_x
_atom_site_fract_y
_atom_site_fract_z
Mo1 Mo 1.07575(2) 0.385663(10) 0.7500
Mo2 Mo 0.73832(2) 0.533396(10) 0.7500
F1 F 1.31020(17) 0.40694(8) 0.7500
F2 F 0.74899(18) 0.65270(8) 0.7500
O1 O 1.06773(16) 0.32145(7) 0.65680(10)
O2 O 0.61178(16) 0.52267(8) 0.84335(11)
O3 O 0.85483(19) 0.43031(9) 0.7500
N1 N 1.10065(18) 0.50476(8) 0.65290(11)
N2 N 0.97081(17) 0.56112(8) 0.65356(12)
N3 N 1.18643(17) 0.62003(8) 0.58785(11)
C1 C 1.2281(2) 0.54145(10) 0.61384(14)
H1 H 1.3331 0.5172 0.6050
C2 C 1.0256(2) 0.62954(10) 0.61521(14)
H2 H 0.9627 0.6780 0.6078
C3 C 1.29767(18) 0.68389(9) 0.54484(12)
C4 C 1.4063(3) 0.72445(11) 0.61929(14)
H3 H 1.4757 0.6826 0.6493
H4 H 1.3357 0.7503 0.6661
C5 C 1.5172(3) 0.79033(12) 0.57314(16)
H5 H 1.5889 0.8163 0.6203
C6 C 1.6262(3) 0.7500 0.5000
H6 H 1.6977 0.7081 0.5285
C7 C 1.1858(3) 0.7500 0.5000
H7 H 1.1144 0.7757 0.5466
C8 C 1.4065(2) 0.64270(10) 0.47173(14)
H8 H 1.3364 0.6165 0.4250
H9 H 1.4761 0.6001 0.5000
Mo1C Mo 1.07575(2) 1.114337(10) 0.2500
Mo2C Mo 0.73832(2) 0.966604(10) 0.2500
O1E O 1.06773(16) 0.32145(7) 0.84320(10)
O2E O 0.61178(16) 0.52267(8) 0.65665(11)
N1C N 1.10065(18) 0.99524(8) 0.34710(11)
N1E N 1.10065(18) 0.50476(8) 0.84710(11)
N2C N 0.97081(17) 0.93888(8) 0.34644(12)
N2E N 0.97081(17) 0.56112(8) 0.84644(12)
N3C N 1.18643(17) 0.87997(8) 0.41215(11)
C1C C 1.2281(2) 0.95855(10) 0.38616(14)
H1C H 1.3331 0.9828 0.3950
C2C C 1.0256(2) 0.87046(10) 0.38479(14)
H2C H 0.9627 0.8220 0.3922
C3C C 1.29767(18) 0.81611(9) 0.45516(12)
C4C C 1.4063(3) 0.77555(11) 0.38071(14)
H3C H 1.4757 0.8174 0.3507
H4C H 1.3357 0.7497 0.3339
C5C C 1.5172(3) 0.70967(12) 0.42686(16)
H5C H 1.5889 0.6837 0.3797
H6C H 1.6977 0.7919 0.4715
H7C H 1.1144 0.7243 0.4534
C8C C 1.4065(2) 0.85730(10) 0.52827(14)
H8C H 1.3364 0.8835 0.5750
H9C H 1.4761 0.8999 0.5000
loop_
_geom_bond_atom_site_label_1
_geom_bond_atom_site_label_2
_geom_bond_site_symmetry_1
_geom_bond_site_symmetry_2
Mo1 F1 1_555 1_555
Mo2 F2 1_555 1_555
O1 Mo1 1_555 1_555
O2 Mo2 1_555 1_555
O3 Mo1 1_555 1_555
N1 Mo1 1_555 1_555
N2 Mo2 1_555 1_555
N3 C1 1_555 1_555
C1 N1 1_555 1_555
H1 C1 1_555 1_555
C2 N2 1_555 1_555
H2 C2 1_555 1_555
C3 N3 1_555 1_555
C4 C3 1_555 1_555
H3 C4 1_555 1_555
H4 C4 1_555 1_555
C5 C4 1_555 1_555
H5 C5 1_555 1_555
C6 C5 1_555 1_555
H6 C6 1_555 1_555
C7 C3 1_555 1_555
H7 C7 1_555 1_555
C8 C3 1_555 1_555
H8 C8 1_555 1_555
H9 C8 1_555 1_555
Mo1C N1C 1_555 1_555
Mo2C N2C 1_555 1_555
O1E Mo1 1_555 1_555
O2E Mo2 1_555 1_555
N1C N2C 1_555 1_555
N1E Mo1 1_555 1_555
N2C C2C 1_555 1_555
N2E Mo2 1_555 1_555
N3C C1C 1_555 1_555
C1C N1C 1_555 1_555
H1C C1C 1_555 1_555
C2C N3C 1_555 1_555
H2C C2C 1_555 1_555
C3C C7 1_555 1_555
C4C C3C 1_555 1_555
H3C C4C 1_555 1_555
H4C C4C 1_555 1_555
C5C C6 1_555 1_555
H5C C5C 1_555 1_555
H6C C6 1_555 1_555
H7C C7 1_555 1_555
C8C C5 1_555 1_555
H8C C8C 1_555 1_555
H9C C8C 1_555 1_555
Mo2 O3 1_555 1_555
N1 N2 1_555 1_555
N3 C2 1_555 1_555
C8 C5C 1_555 1_555
N1E N2E 1_555 1_555
N3C C3C 1_555 1_555
C3C C8C 1_555 1_555
C4C C5C 1_555 1_555

#END
