
#######################################################################
#
#                 Cambridge Crystallographic Data Centre
#                                CCDC 
#
#######################################################################
#
# If this CIF has been generated from an entry in the Cambridge 
# Structural Database, then it will include bibliographic, chemical, 
# crystal, experimental, refinement or atomic coordinate data resulting 
# from the CCDC's data processing and validation procedures.
#
#######################################################################

data_UZAMIS
_symmetry_cell_setting           triclinic
_symmetry_space_group_name_H-M   'P -1'
_symmetry_Int_Tables_number      2
_space_group_name_Hall           '-P 1'
loop_
_symmetry_equiv_pos_site_id
_symmetry_equiv_pos_as_xyz
1 x,y,z
2 -x,-y,-z
_cell_length_a                   6.6378(6)
_cell_length_b                   14.4988(14)
_cell_length_c                   14.8839(14)
_cell_angle_alpha                87.5240(10)
_cell_angle_beta                 83.8660(10)
_cell_angle_gamma                85.6850(10)
_cell_volume                     1419.3
loop_
_atom_site_label
_atom_site_type_symbol
_atom_site_fract_x
_atom_site_fract_y
_atom_site_fract_z
Cd1 Cd 0.74760(3) 0.753771(12) 0.074922(12)
Cd2 Cd 0.33319(3) 0.589881(12) 0.257998(12)
S1 S 0.92924(10) 1.07837(4) 0.38752(4)
O1 O 1.0346(3) 0.76589(13) 0.15420(12)
O2 O 1.0473(3) 0.68515(14) 0.28495(13)
O3 O 0.5689(3) 0.70896(12) 0.21269(12)
O4 O 0.4534(3) 0.68899(13) 0.35580(12)
O5 O 0.8572(3) 1.09880(13) 0.47961(12)
O6 O 1.1437(3) 1.07014(12) 0.35906(12)
O7 O 1.0821(3) 1.24331(12) 0.06262(12)
O8 O 0.9679(3) 1.39122(13) 0.08520(13)
O9 O 0.4793(4) 1.40247(14) 0.10959(15)
O10 O 0.5958(3) 1.47930(12) 0.21781(13)
O11 O 0.8434(3) 0.59510(12) 0.08056(13)
H1 H 0.7603 0.5560 0.0978
H2 H 0.8917 0.5852 0.0272
O12 O 0.4458(3) 0.72646(14) 0.01833(13)
H3 H 0.4687 0.6917 -0.0249
H4 H 0.3494 0.7104 0.0539
O13 O 0.2488(3) 0.56525(14) 0.11962(13)
H5 H 0.3094 0.5175 0.0991
H6 H 0.1244 0.5639 0.1220
N1 N 0.6368(3) 0.90919(14) 0.09357(14)
N2 N 0.2060(3) 0.48187(14) 0.36267(14)
C1 C 0.8583(4) 0.82816(16) 0.28913(16)
C2 C 0.6546(4) 0.81630(17) 0.31838(16)
C3 C 0.5366(4) 0.88344(18) 0.36879(18)
H7 H 0.4021 0.8740 0.3892
C4 C 0.6193(4) 0.96399(18) 0.38853(18)
H8 H 0.5398 1.0099 0.4202
C5 C 0.8234(4) 0.97567(16) 0.36045(16)
C6 C 0.9435(4) 0.90843(17) 0.31171(16)
H9 H 1.0799 0.9167 0.2942
C7 C 0.9910(4) 0.75331(17) 0.23834(17)
C8 C 0.5541(4) 0.73197(17) 0.29466(17)
C9 C 0.8158(4) 1.16612(16) 0.31833(17)
C10 C 0.9270(4) 1.19812(17) 0.24034(17)
H10 H 1.0527 1.1687 0.2213
C11 C 0.8509(4) 1.27428(17) 0.19032(16)
C12 C 0.6610(4) 1.31758(17) 0.21964(17)
C13 C 0.5448(4) 1.27995(17) 0.29446(18)
H11 H 0.4141 1.3057 0.3108
C14 C 0.6211(4) 1.20508(18) 0.34452(18)
H12 H 0.5437 1.1812 0.3948
C15 C 0.9770(4) 1.30710(17) 0.10555(17)
C16 C 0.5738(4) 1.40666(17) 0.17704(18)
C17 C 0.7451(4) 0.98404(17) 0.07135(17)
C18 C 0.6638(4) 1.07296(19) 0.09245(19)
H13 H 0.7408 1.1235 0.0777
C19 C 0.4707(4) 1.0859(2) 0.1348(2)
H14 H 0.4160 1.1449 0.1496
C20 C 0.3582(4) 1.0097(2) 0.15522(19)
H15 H 0.2259 1.0167 0.1829
C21 C 0.4465(4) 0.92341(19) 0.13362(18)
H16 H 0.3704 0.8724 0.1475
C22 C 0.9471(4) 0.96768(18) 0.02189(19)
H17 H 1.0049 0.9072 0.0213
C23 C 0.0347(4) 0.44443(19) 0.34398(19)
H18 H -0.0207 0.4633 0.2908
C24 C -0.0605(4) 0.3799(2) 0.4001(2)
H19 H -0.1775 0.3556 0.3848
C25 C 0.0186(5) 0.3515(2) 0.4790(2)
H20 H -0.0443 0.3080 0.5179
C26 C 0.1935(4) 0.3886(2) 0.4998(2)
H21 H 0.2503 0.3698 0.5527
C27 C 0.2838(4) 0.45445(18) 0.44064(17)
C28 C 0.4691(4) 0.49724(18) 0.45915(18)
H22 H 0.5487 0.5222 0.4102
Cd1A Cd 1.25240(3) 1.246229(12) -0.074922(12)
Cd2A Cd 1.66681(3) 1.410119(12) -0.257998(12)
Cd2_2 Cd 1.33319(3) 0.589881(12) 0.257998(12)
Cd2_3 Cd 0.33319(3) 1.589881(12) 0.257998(12)
Cd2A_2 Cd 0.66681(3) 0.410119(12) 0.742002(12)
Cd2A_3 Cd 0.66681(3) 1.410119(12) -0.257998(12)
Cd2A_4 Cd 1.66681(3) 0.410119(12) -0.257998(12)
S1A S 1.07076(10) 0.92163(4) -0.38752(4)
O1A O 0.9654(3) 1.23411(13) -0.15420(12)
O2A O 0.9527(3) 1.31485(14) -0.28495(13)
O2_2 O 0.0473(3) 0.68515(14) 0.28495(13)
O2A_2 O 1.9527(3) 1.31485(14) -0.28495(13)
O3A O 1.4311(3) 1.29104(12) -0.21269(12)
O4A O 1.5466(3) 1.31101(13) -0.35580(12)
O5A O 1.1428(3) 0.90120(13) -0.47961(12)
O6A O 0.8563(3) 0.92986(12) -0.35906(12)
O7A O 0.9179(3) 0.75669(12) -0.06262(12)
O8A O 1.0321(3) 0.60878(13) -0.08520(13)
O9A O 1.5207(4) 0.59753(14) -0.10959(15)
O10A O 1.4042(3) 0.52070(12) -0.21781(13)
O10_2 O 0.5958(3) 0.47930(12) 0.21781(13)
O10A_2 O 1.4042(3) 1.52070(12) -0.21781(13)
O11A O 1.1566(3) 1.40490(12) -0.08056(13)
H1A H 1.2397 1.4440 -0.0978
H2A H 1.1083 1.4148 -0.0272
O12A O 1.5542(3) 1.27354(14) -0.01833(13)
H3A H 1.5313 1.3083 0.0249
H4A H 1.6506 1.2896 -0.0539
O13A O 1.7512(3) 1.43475(14) -0.11962(13)
H5A H 1.6906 1.4825 -0.0991
H6A H 1.8756 1.4361 -0.1220
N1A N 1.3632(3) 1.09081(14) -0.09357(14)
N2A N 0.7940(3) 0.51813(14) 0.63733(14)
N2A_2 N 1.7940(3) 1.51813(14) -0.36267(14)
C1A C 1.1417(4) 1.17184(16) -0.28913(16)
C2A C 1.3454(4) 1.18370(17) -0.31838(16)
C3A C 1.4634(4) 1.11656(18) -0.36879(18)
H7A H 1.5979 1.1260 -0.3892
C4A C 1.3807(4) 1.03601(18) -0.38853(18)
H8A H 1.4602 0.9901 -0.4202
C5A C 1.1766(4) 1.02433(16) -0.36045(16)
C6A C 1.0565(4) 1.09157(17) -0.31171(16)
H9A H 0.9201 1.0833 -0.2942
C7A C 1.0090(4) 1.24669(17) -0.23834(17)
C8A C 1.4459(4) 1.26803(17) -0.29466(17)
C9A C 1.1842(4) 0.83388(16) -0.31833(17)
C10A C 1.0730(4) 0.80188(17) -0.24034(17)
H10A H 0.9473 0.8313 -0.2213
C11A C 1.1491(4) 0.72572(17) -0.19032(16)
C12A C 1.3390(4) 0.68242(17) -0.21964(17)
C13A C 1.4552(4) 0.72005(17) -0.29446(18)
H11A H 1.5859 0.6943 -0.3108
C14A C 1.3789(4) 0.79492(18) -0.34452(18)
H12A H 1.4563 0.8188 -0.3948
C15A C 1.0230(4) 0.69290(17) -0.10555(17)
C16A C 1.4262(4) 0.59334(17) -0.17704(18)
C17A C 1.2549(4) 1.01596(17) -0.07135(17)
C18A C 1.3362(4) 0.92704(19) -0.09245(19)
H13A H 1.2592 0.8765 -0.0777
C19A C 1.5293(4) 0.9141(2) -0.1348(2)
H14A H 1.5840 0.8551 -0.1496
C20A C 1.6418(4) 0.9903(2) -0.15522(19)
H15A H 1.7741 0.9833 -0.1829
C21A C 1.5535(4) 1.07659(19) -0.13362(18)
H16A H 1.6296 1.1276 -0.1475
C22A C 1.0529(4) 1.03232(18) -0.02189(19)
H17A H 0.9951 1.0928 -0.0213
C23A C 0.9653(4) 0.55557(19) 0.65602(19)
H18A H 1.0207 0.5367 0.7092
C24A C 1.0605(4) 0.6201(2) 0.5999(2)
H19A H 1.1775 0.6444 0.6152
C25A C 0.9814(5) 0.6485(2) 0.5210(2)
H20A H 1.0443 0.6920 0.4821
C26A C 0.8065(4) 0.6114(2) 0.5002(2)
H21A H 0.7497 0.6302 0.4473
C27A C 0.7162(4) 0.54555(18) 0.55936(17)
C28A C 0.5309(4) 0.50276(18) 0.54085(18)
H22A H 0.4513 0.4778 0.5898
loop_
_geom_bond_atom_site_label_1
_geom_bond_atom_site_label_2
_geom_bond_site_symmetry_1
_geom_bond_site_symmetry_2
Cd1 O1 1_555 1_555
Cd2 O3 1_555 1_555
S1 O5 1_555 1_555
O1 C7 1_555 1_555
O2 C7 1_555 1_555
O3 Cd1 1_555 1_555
O4 Cd2 1_555 1_555
O6 S1 1_555 1_555
O7 C15 1_555 1_555
O8 C15 1_555 1_555
O9 C16 1_555 1_555
O10 C16 1_555 1_555
O11 Cd1 1_555 1_555
H1 O11 1_555 1_555
H2 O11 1_555 1_555
O12 Cd1 1_555 1_555
H3 O12 1_555 1_555
H4 O12 1_555 1_555
O13 Cd2 1_555 1_555
H5 O13 1_555 1_555
H6 O13 1_555 1_555
N1 Cd1 1_555 1_555
N2 Cd2 1_555 1_555
C1 C2 1_555 1_555
C2 C3 1_555 1_555
C3 H7 1_555 1_555
C4 C3 1_555 1_555
H8 C4 1_555 1_555
C5 S1 1_555 1_555
C6 C1 1_555 1_555
H9 C6 1_555 1_555
C7 C1 1_555 1_555
C8 O3 1_555 1_555
C9 S1 1_555 1_555
C10 C9 1_555 1_555
H10 C10 1_555 1_555
C11 C10 1_555 1_555
C12 C11 1_555 1_555
C13 C12 1_555 1_555
H11 C13 1_555 1_555
C14 C9 1_555 1_555
H12 C14 1_555 1_555
C15 C11 1_555 1_555
C16 C12 1_555 1_555
C17 N1 1_555 1_555
C18 C17 1_555 1_555
H13 C18 1_555 1_555
C19 C18 1_555 1_555
H14 C19 1_555 1_555
C20 C19 1_555 1_555
H15 C20 1_555 1_555
C21 N1 1_555 1_555
H16 C21 1_555 1_555
C22 C17 1_555 1_555
H17 C22 1_555 1_555
C23 N2 1_555 1_555
H18 C23 1_555 1_555
C24 C23 1_555 1_555
H19 C24 1_555 1_555
C25 C24 1_555 1_555
H20 C25 1_555 1_555
C26 C25 1_555 1_555
H21 C26 1_555 1_555
C27 N2 1_555 1_555
C28 C27 1_555 1_555
H22 C28 1_555 1_555
Cd1A O7 1_555 1_555
Cd2A O2A_2 1_555 1_555
Cd2_2 O2 1_555 1_555
Cd2_3 O10 1_555 1_555
Cd2A_2 N2A 1_555 1_555
Cd2A_3 O2A 1_555 1_555
Cd2A_4 O10A 1_555 1_555
S1A O5A 1_555 1_555
O1A Cd1A 1_555 1_555
O2A C7A 1_555 1_555
O2_2 Cd2 1_555 1_555
O3A Cd1A 1_555 1_555
O4A Cd2A 1_555 1_555
O6A S1A 1_555 1_555
O7A Cd1 1_555 1_555
O8A C15A 1_555 1_555
O9A C16A 1_555 1_555
O10A C16A 1_555 1_555
O10_2 Cd2 1_555 1_555
O10A_2 Cd2A 1_555 1_555
O11A Cd1A 1_555 1_555
H1A O11A 1_555 1_555
H2A O11A 1_555 1_555
O12A Cd1A 1_555 1_555
H3A O12A 1_555 1_555
H4A O12A 1_555 1_555
O13A Cd2A 1_555 1_555
H5A O13A 1_555 1_555
H6A O13A 1_555 1_555
N1A Cd1A 1_555 1_555
N2A C23A 1_555 1_555
N2A_2 Cd2A 1_555 1_555
C1A C2A 1_555 1_555
C2A C3A 1_555 1_555
C3A H7A 1_555 1_555
C4A C3A 1_555 1_555
H8A C4A 1_555 1_555
C5A S1A 1_555 1_555
C6A C1A 1_555 1_555
H9A C6A 1_555 1_555
C7A O1A 1_555 1_555
C8A O3A 1_555 1_555
C9A S1A 1_555 1_555
C10A C9A 1_555 1_555
H10A C10A 1_555 1_555
C11A C10A 1_555 1_555
C12A C11A 1_555 1_555
C13A C12A 1_555 1_555
H11A C13A 1_555 1_555
C14A C9A 1_555 1_555
H12A C14A 1_555 1_555
C15A O7A 1_555 1_555
C16A C12A 1_555 1_555
C17A N1A 1_555 1_555
C18A C17A 1_555 1_555
H13A C18A 1_555 1_555
C19A C18A 1_555 1_555
H14A C19A 1_555 1_555
C20A C19A 1_555 1_555
H15A C20A 1_555 1_555
C21A N1A 1_555 1_555
H16A C21A 1_555 1_555
C22A C22 1_555 1_555
H17A C22A 1_555 1_555
C23A H18A 1_555 1_555
C24A C23A 1_555 1_555
H19A C24A 1_555 1_555
C25A C24A 1_555 1_555
H20A C25A 1_555 1_555
C26A C25A 1_555 1_555
H21A C26A 1_555 1_555
C27A N2A 1_555 1_555
C28A C28 1_555 1_555
H22A C28A 1_555 1_555
O4 C8 1_555 1_555
C2 C8 1_555 1_555
C4 C5 1_555 1_555
C5 C6 1_555 1_555
C13 C14 1_555 1_555
C20 C21 1_555 1_555
C26 C27 1_555 1_555
Cd2A O3A 1_555 1_555
O4A C8A 1_555 1_555
C1A C7A 1_555 1_555
C2A C8A 1_555 1_555
C4A C5A 1_555 1_555
C5A C6A 1_555 1_555
C11A C15A 1_555 1_555
C13A C14A 1_555 1_555
C17A C22A 1_555 1_555
C20A C21A 1_555 1_555
C26A C27A 1_555 1_555
C27A C28A 1_555 1_555

#END
