
#######################################################################
#
#                 Cambridge Crystallographic Data Centre
#                                CCDC 
#
#######################################################################
#
# If this CIF has been generated from an entry in the Cambridge 
# Structural Database, then it will include bibliographic, chemical, 
# crystal, experimental, refinement or atomic coordinate data resulting 
# from the CCDC's data processing and validation procedures.
#
#######################################################################

data_UZAMUE
_symmetry_cell_setting           monoclinic
_symmetry_space_group_name_H-M   'P 21/c'
_symmetry_Int_Tables_number      14
_space_group_name_Hall           '-P 2ybc'
loop_
_symmetry_equiv_pos_site_id
_symmetry_equiv_pos_as_xyz
1 x,y,z
2 -x,1/2+y,1/2-z
3 -x,-y,-z
4 x,1/2-y,1/2+z
_cell_length_a                   10.1255(8)
_cell_length_b                   9.5868(7)
_cell_length_c                   20.4418(14)
_cell_angle_alpha                90
_cell_angle_beta                 105.693(3)
_cell_angle_gamma                90
_cell_volume                     1910.34
loop_
_atom_site_label
_atom_site_type_symbol
_atom_site_fract_x
_atom_site_fract_y
_atom_site_fract_z
C1 C 0.1359(4) 0.8093(4) 1.1104(2)
C2 C 0.1857(6) 0.9439(5) 1.1124(2)
H1 H 0.2094 0.9922 1.1533
C3 C 0.2005(7) 1.0071(5) 1.0543(3)
H2 H 0.2345 1.0975 1.0563
C4 C 0.1652(6) 0.9370(5) 0.9936(2)
H3 H 0.1750 0.9804 0.9545
C5 C 0.1150(4) 0.8021(4) 0.99012(19)
C6 C 0.0989(4) 0.7383(4) 1.04888(18)
H4 H 0.0634 0.6484 1.0468
C7 C 0.0787(4) 0.7253(4) 0.92411(19)
C8 C 0.1206(4) 0.7412(4) 1.17444(19)
C9 C 0.2037(4) 0.2977(4) 0.73895(18)
C10 C 0.3408(4) 0.3610(4) 0.75256(19)
C11 C 0.4088(4) 0.4635(4) 0.7961(2)
C12 C 0.3747(4) 0.5510(4) 0.84879(19)
C13 C 0.5423(4) 0.3861(4) 0.7373(2)
H5 H 0.6182 0.3743 0.7204
Eu1 Eu 0.029595(18) 0.570594(19) 0.798433(9)
N1 N 0.4264(3) 0.3130(3) 0.71580(17)
N2 N 0.5372(3) 0.4784(4) 0.78568(17)
O1 O 0.0998(3) 0.7804(3) 0.87193(13)
O2 O 0.0302(3) 0.6028(3) 0.92087(13)
O3 O 0.0926(3) 0.6137(3) 1.17173(14)
O4 O 0.1405(3) 0.8144(3) 1.22737(13)
O5 O 0.1093(3) 0.3481(3) 0.75917(14)
O6 O 0.1886(3) 0.1858(3) 0.70345(13)
O7 O 0.2612(3) 0.5320(3) 0.86229(14)
O8 O 0.4627(3) 0.6380(3) 0.87800(14)
O12 O -0.1248(3) 0.5271(3) 0.68852(15)
H12 H -0.1304 0.4499 0.6717
H13 H -0.1718 0.5773 0.6595
O13 O 0.2365(3) 0.1164(3) 0.57230(15)
H14 H 0.1559 0.0931 0.5611
H15 H 0.2729 0.0692 0.5486
Zn1 Zn 0.36073(4) 0.13871(5) 0.66367(2)
Eu1B Eu -0.029595(18) 0.429406(19) 1.201567(9)
Eu1C Eu 0.029595(18) 0.929406(19) 1.298433(9)
Eu1A Eu -0.029595(18) 0.070594(19) 0.701567(9)
N2A N 0.4628(3) -0.0216(4) 0.71432(17)
O3B O -0.0926(3) 0.3863(3) 0.82827(14)
O4C O 0.1405(3) 0.6856(3) 0.72737(13)
O5A O -0.1093(3) 0.8481(3) 0.74083(14)
O6A O -0.1886(3) 0.6858(3) 0.79655(13)
O8A O 0.5373(3) 0.1380(3) 0.62200(14)
Zn1A Zn 0.63927(4) 0.63871(5) 0.83633(2)
O9 O 0.3620(4) 0.5513(5) 1.00452(19)
H6 H 0.3898 0.6341 1.0166
H7 H 0.3138 0.5540 0.9625
O10 O 0.2557(6) 0.2193(5) 0.9046(3)
H8 H 0.3310 0.1888 0.8965
H9 H 0.2787 0.2900 0.9319
O11 O 0.4973(7) 0.8338(8) 0.9903(4)
H10 H 0.4535 0.8694 0.9509
H11 H 0.4710 0.8797 1.0215
loop_
_geom_bond_atom_site_label_1
_geom_bond_atom_site_label_2
_geom_bond_site_symmetry_1
_geom_bond_site_symmetry_2
C1 C2 1_555 1_555
C2 H1 1_555 1_555
C3 C2 1_555 1_555
H2 C3 1_555 1_555
C4 C3 1_555 1_555
H3 C4 1_555 1_555
C5 C4 1_555 1_555
C6 C1 1_555 1_555
H4 C6 1_555 1_555
C7 C5 1_555 1_555
C8 C1 1_555 1_555
C9 C10 1_555 1_555
C10 C11 1_555 1_555
C11 C12 1_555 1_555
C12 O7 1_555 1_555
C13 H5 1_555 1_555
Eu1 O1 1_555 1_555
N1 C10 1_555 1_555
N2 C11 1_555 1_555
O1 C7 1_555 1_555
O2 C7 1_555 1_555
O3 C8 1_555 1_555
O4 C8 1_555 1_555
O5 C9 1_555 1_555
O6 C9 1_555 1_555
O7 Eu1 1_555 1_555
O8 C12 1_555 1_555
O9 H6 1_555 1_555
H7 O9 1_555 1_555
O10 H8 1_555 1_555
H9 O10 1_555 1_555
O11 H10 1_555 1_555
H11 O11 1_555 1_555
O12 Eu1 1_555 1_555
H12 O12 1_555 1_555
H13 O12 1_555 1_555
O13 H14 1_555 1_555
H15 O13 1_555 1_555
Zn1 N1 1_555 1_555
Eu1B O3 1_555 1_555
Eu1C O4 1_555 1_555
Eu1A O5 1_555 1_555
N2A Zn1 1_555 1_555
O3B Eu1 1_555 1_555
O4C Eu1 1_555 1_555
O5A Eu1 1_555 1_555
O6A Eu1 1_555 1_555
O8A Zn1 1_555 1_555
Zn1A N2 1_555 1_555
C5 C6 1_555 1_555
C13 N1 1_555 1_555
C13 N2 1_555 1_555
Eu1 O2 1_555 1_555
Eu1 O5 1_555 1_555
O6 Zn1 1_555 1_555
O6 Eu1A 1_555 1_555
O8 Zn1A 1_555 1_555
O13 Zn1 1_555 1_555

#END
