
#######################################################################
#
#                 Cambridge Crystallographic Data Centre
#                                CCDC 
#
#######################################################################
#
# If this CIF has been generated from an entry in the Cambridge 
# Structural Database, then it will include bibliographic, chemical, 
# crystal, experimental, refinement or atomic coordinate data resulting 
# from the CCDC's data processing and validation procedures.
#
#######################################################################

data_UZANAL
_symmetry_cell_setting           monoclinic
_symmetry_space_group_name_H-M   'P 21/c'
_symmetry_Int_Tables_number      14
_space_group_name_Hall           '-P 2ybc'
loop_
_symmetry_equiv_pos_site_id
_symmetry_equiv_pos_as_xyz
1 x,y,z
2 -x,1/2+y,1/2-z
3 -x,-y,-z
4 x,1/2-y,1/2+z
_cell_length_a                   10.1045(13)
_cell_length_b                   9.5831(12)
_cell_length_c                   20.385(3)
_cell_angle_alpha                90
_cell_angle_beta                 105.585(6)
_cell_angle_gamma                90
_cell_volume                     1901.35
loop_
_atom_site_label
_atom_site_type_symbol
_atom_site_fract_x
_atom_site_fract_y
_atom_site_fract_z
C1 C 0.1354(5) 0.8085(5) 1.1106(2)
C2 C 0.1853(7) 0.9441(5) 1.1124(3)
H1 H 0.2092 0.9923 1.1535
C3 C 0.1996(8) 1.0077(6) 1.0545(3)
H2 H 0.2330 1.0984 1.0565
C4 C 0.1649(7) 0.9378(5) 0.9934(3)
H3 H 0.1751 0.9813 0.9543
C5 C 0.1143(5) 0.8021(4) 0.9900(2)
C6 C 0.0986(4) 0.7383(4) 1.0489(2)
H4 H 0.0632 0.6483 1.0468
C7 C 0.0792(4) 0.7258(4) 0.9236(2)
C8 C 0.1203(4) 0.7407(4) 1.1746(2)
C9 C 0.2029(4) 0.2982(4) 0.7392(2)
C10 C 0.3411(4) 0.3613(4) 0.7528(2)
C11 C 0.4089(4) 0.4635(4) 0.7954(2)
C12 C 0.3744(4) 0.5516(4) 0.8483(2)
C13 C 0.5424(5) 0.3852(5) 0.7371(3)
H5 H 0.6184 0.3727 0.7202
Gd1 Gd 0.029780(19) 0.57056(2) 0.798547(10)
N1 N 0.4259(4) 0.3131(4) 0.7158(2)
N2 N 0.5377(3) 0.4782(4) 0.7858(2)
O1 O 0.0996(3) 0.7805(3) 0.87148(16)
O2 O 0.0301(3) 0.6029(3) 0.92056(16)
O3 O 0.0919(3) 0.6131(3) 1.17145(17)
O4 O 0.1395(3) 0.8139(3) 1.22751(16)
O5 O 0.1091(3) 0.3501(3) 0.75930(16)
O6 O 0.1875(3) 0.1860(3) 0.70393(16)
O7 O 0.2608(3) 0.5333(3) 0.86206(17)
O8 O 0.4631(3) 0.6382(3) 0.87799(17)
O12 O -0.1242(4) 0.5278(4) 0.68934(18)
H12 H -0.1298 0.4505 0.6725
H13 H -0.1712 0.5779 0.6603
O13 O 0.2357(3) 0.1163(4) 0.57219(18)
H14 H 0.1551 0.0930 0.5610
H15 H 0.2721 0.0690 0.5484
Zn1 Zn 0.36012(5) 0.13850(5) 0.66379(3)
Gd1B Gd -0.029780(19) 0.42944(2) 1.201453(10)
Gd1C Gd 0.029780(19) 0.92944(2) 1.298547(10)
Gd1A Gd -0.029780(19) 0.07056(2) 0.701453(10)
N2A N 0.4623(3) -0.0218(4) 0.7142(2)
O3B O -0.0919(3) 0.3869(3) 0.82855(17)
O4C O 0.1395(3) 0.6861(3) 0.72751(16)
O5A O -0.1091(3) 0.8501(3) 0.74070(16)
O6A O -0.1875(3) 0.6860(3) 0.79607(16)
O8A O 0.5369(3) 0.1382(3) 0.62201(17)
Zn1A Zn 0.63988(5) 0.63850(5) 0.83621(3)
O9 O 0.3616(4) 0.5500(5) 1.0041(2)
H6 H 0.3894 0.6328 1.0162
H7 H 0.3134 0.5528 0.9620
O10 O 0.2554(7) 0.2196(6) 0.9048(3)
H8 H 0.3307 0.1891 0.8966
H9 H 0.2784 0.2903 0.9321
O11 O 0.4977(8) 0.8336(9) 0.9907(5)
H10 H 0.4538 0.8692 0.9512
H11 H 0.4713 0.8795 1.0219
loop_
_geom_bond_atom_site_label_1
_geom_bond_atom_site_label_2
_geom_bond_site_symmetry_1
_geom_bond_site_symmetry_2
C1 C2 1_555 1_555
C2 H1 1_555 1_555
C3 C2 1_555 1_555
H2 C3 1_555 1_555
C4 C3 1_555 1_555
H3 C4 1_555 1_555
C5 C4 1_555 1_555
C6 C1 1_555 1_555
H4 C6 1_555 1_555
C7 C5 1_555 1_555
C8 C1 1_555 1_555
C9 C10 1_555 1_555
C10 C11 1_555 1_555
C11 C12 1_555 1_555
C12 O7 1_555 1_555
C13 H5 1_555 1_555
Gd1 O1 1_555 1_555
N1 C10 1_555 1_555
N2 C11 1_555 1_555
O1 C7 1_555 1_555
O2 C7 1_555 1_555
O3 C8 1_555 1_555
O4 C8 1_555 1_555
O5 C9 1_555 1_555
O6 C9 1_555 1_555
O7 Gd1 1_555 1_555
O8 C12 1_555 1_555
O9 H6 1_555 1_555
H7 O9 1_555 1_555
O10 H8 1_555 1_555
H9 O10 1_555 1_555
O11 H10 1_555 1_555
H11 O11 1_555 1_555
O12 Gd1 1_555 1_555
H12 O12 1_555 1_555
H13 O12 1_555 1_555
O13 H14 1_555 1_555
H15 O13 1_555 1_555
Zn1 N1 1_555 1_555
Gd1B O3 1_555 1_555
Gd1C O4 1_555 1_555
Gd1A O5 1_555 1_555
N2A Zn1 1_555 1_555
O3B Gd1 1_555 1_555
O4C Gd1 1_555 1_555
O5A Gd1 1_555 1_555
O6A Gd1 1_555 1_555
O8A Zn1 1_555 1_555
Zn1A N2 1_555 1_555
C5 C6 1_555 1_555
C13 N1 1_555 1_555
C13 N2 1_555 1_555
Gd1 O2 1_555 1_555
Gd1 O5 1_555 1_555
O6 Zn1 1_555 1_555
O6 Gd1A 1_555 1_555
O8 Zn1A 1_555 1_555
O13 Zn1 1_555 1_555

#END
