
#######################################################################
#
#                 Cambridge Crystallographic Data Centre
#                                CCDC 
#
#######################################################################
#
# If this CIF has been generated from an entry in the Cambridge 
# Structural Database, then it will include bibliographic, chemical, 
# crystal, experimental, refinement or atomic coordinate data resulting 
# from the CCDC's data processing and validation procedures.
#
#######################################################################

data_UZANEP
_symmetry_cell_setting           monoclinic
_symmetry_space_group_name_H-M   'P 21/c'
_symmetry_Int_Tables_number      14
_space_group_name_Hall           '-P 2ybc'
loop_
_symmetry_equiv_pos_site_id
_symmetry_equiv_pos_as_xyz
1 x,y,z
2 -x,1/2+y,1/2-z
3 -x,-y,-z
4 x,1/2-y,1/2+z
_cell_length_a                   10.1806(8)
_cell_length_b                   9.5903(7)
_cell_length_c                   20.5841(13)
_cell_angle_alpha                90
_cell_angle_beta                 106.075(3)
_cell_angle_gamma                90
_cell_volume                     1931.15
loop_
_atom_site_label
_atom_site_type_symbol
_atom_site_fract_x
_atom_site_fract_y
_atom_site_fract_z
C1 C 0.1372(4) 0.8118(4) 1.11010(19)
C2 C 0.1873(6) 0.9456(5) 1.1118(2)
H1 H 0.2118 0.9938 1.1526
C3 C 0.2016(7) 1.0092(6) 1.0540(3)
H2 H 0.2351 1.0998 1.0559
C4 C 0.1660(6) 0.9380(5) 0.9935(2)
H3 H 0.1759 0.9803 0.9545
C5 C 0.1157(4) 0.8040(4) 0.99078(19)
C6 C 0.1000(4) 0.7402(4) 1.04889(18)
H4 H 0.0648 0.6503 1.0468
C7 C 0.0798(4) 0.7255(4) 0.92526(18)
C8 C 0.1232(4) 0.7435(4) 1.17412(18)
C9 C 0.2060(3) 0.2935(4) 0.73893(18)
C10 C 0.3414(4) 0.3588(4) 0.75316(19)
C11 C 0.4094(4) 0.4611(4) 0.79624(19)
C12 C 0.3755(4) 0.5481(4) 0.84855(19)
C13 C 0.5415(4) 0.3863(4) 0.7378(2)
H5 H 0.6168 0.3758 0.7210
Nd1 Nd 0.029143(19) 0.56962(2) 0.797989(9)
N1 N 0.4268(3) 0.3122(3) 0.71624(17)
N2 N 0.5365(3) 0.4770(4) 0.78604(17)
O1 O 0.1010(3) 0.7811(3) 0.87328(13)
O2 O 0.0299(3) 0.6037(3) 0.92202(13)
O3 O 0.0930(3) 0.6173(3) 1.17111(14)
O4 O 0.1442(3) 0.8181(3) 1.22669(13)
O5 O 0.1110(2) 0.3404(3) 0.75942(13)
O6 O 0.1923(3) 0.1825(3) 0.70283(13)
O7 O 0.2637(3) 0.5284(3) 0.86296(13)
O8 O 0.4634(3) 0.6365(3) 0.87776(14)
O12 O -0.1286(3) 0.5257(3) 0.68657(15)
H12 H -0.1342 0.4485 0.6698
H13 H -0.1756 0.5758 0.6575
O13 O 0.2370(3) 0.1159(3) 0.57245(14)
H14 H 0.1564 0.0926 0.5612
H15 H 0.2734 0.0686 0.5487
Zn1 Zn 0.36243(4) 0.13854(5) 0.66342(2)
Nd1B Nd -0.029143(19) 0.43038(2) 1.202011(9)
Nd1C Nd 0.029143(19) 0.93038(2) 1.297989(9)
Nd1A Nd -0.029143(19) 0.06962(2) 0.702011(9)
N2A N 0.4635(3) -0.0230(4) 0.71396(17)
O3B O -0.0930(3) 0.3827(3) 0.82889(14)
O4C O 0.1442(3) 0.6819(3) 0.72669(13)
O5A O -0.1110(2) 0.8404(3) 0.74058(13)
O6A O -0.1923(3) 0.6825(3) 0.79717(13)
O8A O 0.5366(3) 0.1365(3) 0.62224(14)
Zn1A Zn 0.63757(4) 0.63854(5) 0.83658(2)
O9 O 0.3617(4) 0.5495(5) 1.00390(18)
H6 H 0.3895 0.6323 1.0160
H7 H 0.3135 0.5523 0.9618
O10 O 0.2597(6) 0.2193(5) 0.9059(3)
H8 H 0.3350 0.1888 0.8978
H9 H 0.2827 0.2899 0.9332
O11 O 0.4952(7) 0.8331(8) -0.0111(4)
H10 H 0.4514 0.8687 -0.0505
H11 H 0.4689 0.8790 0.0201
loop_
_geom_bond_atom_site_label_1
_geom_bond_atom_site_label_2
_geom_bond_site_symmetry_1
_geom_bond_site_symmetry_2
C1 C2 1_555 1_555
C2 H1 1_555 1_555
C3 C2 1_555 1_555
H2 C3 1_555 1_555
C4 C3 1_555 1_555
H3 C4 1_555 1_555
C5 C4 1_555 1_555
C6 C1 1_555 1_555
H4 C6 1_555 1_555
C7 C5 1_555 1_555
C8 C1 1_555 1_555
C9 C10 1_555 1_555
C10 C11 1_555 1_555
C11 C12 1_555 1_555
C12 O7 1_555 1_555
C13 H5 1_555 1_555
Nd1 O1 1_555 1_555
N1 C10 1_555 1_555
N2 C11 1_555 1_555
O1 C7 1_555 1_555
O2 C7 1_555 1_555
O3 C8 1_555 1_555
O4 C8 1_555 1_555
O5 C9 1_555 1_555
O6 C9 1_555 1_555
O7 Nd1 1_555 1_555
O8 C12 1_555 1_555
O9 H6 1_555 1_555
H7 O9 1_555 1_555
O10 H8 1_555 1_555
H9 O10 1_555 1_555
O11 H10 1_555 1_555
H11 O11 1_555 1_555
O12 Nd1 1_555 1_555
H12 O12 1_555 1_555
H13 O12 1_555 1_555
O13 H14 1_555 1_555
H15 O13 1_555 1_555
Zn1 N1 1_555 1_555
Nd1B O3 1_555 1_555
Nd1C O4 1_555 1_555
Nd1A O5 1_555 1_555
N2A Zn1 1_555 1_555
O3B Nd1 1_555 1_555
O4C Nd1 1_555 1_555
O5A Nd1 1_555 1_555
O6A Nd1 1_555 1_555
O8A Zn1 1_555 1_555
Zn1A N2 1_555 1_555
C5 C6 1_555 1_555
C13 N1 1_555 1_555
C13 N2 1_555 1_555
Nd1 O2 1_555 1_555
Nd1 O5 1_555 1_555
O6 Zn1 1_555 1_555
O6 Nd1A 1_555 1_555
O8 Zn1A 1_555 1_555
O13 Zn1 1_555 1_555

#END
