
#######################################################################
#
#                 Cambridge Crystallographic Data Centre
#                                CCDC 
#
#######################################################################
#
# If this CIF has been generated from an entry in the Cambridge 
# Structural Database, then it will include bibliographic, chemical, 
# crystal, experimental, refinement or atomic coordinate data resulting 
# from the CCDC's data processing and validation procedures.
#
#######################################################################

data_UZANUF
_symmetry_cell_setting           triclinic
_symmetry_space_group_name_H-M   'P -1'
_symmetry_Int_Tables_number      2
_space_group_name_Hall           '-P 1'
loop_
_symmetry_equiv_pos_site_id
_symmetry_equiv_pos_as_xyz
1 x,y,z
2 -x,-y,-z
_cell_length_a                   9.4978(12)
_cell_length_b                   10.5428(13)
_cell_length_c                   11.4006(14)
_cell_angle_alpha                65.2110(10)
_cell_angle_beta                 78.766(2)
_cell_angle_gamma                66.9840(10)
_cell_volume                     953.24
loop_
_atom_site_label
_atom_site_type_symbol
_atom_site_fract_x
_atom_site_fract_y
_atom_site_fract_z
Zn1 Zn 0.20743(3) -0.09373(3) 0.32502(3)
N1 N 0.2223(2) 0.0493(2) 0.1279(2)
N2 N 0.4201(3) -0.0763(2) 0.3170(2)
N3 N 0.5449(2) 0.3517(2) -0.1282(2)
H1 H 0.5046 0.4086 -0.2021
N4 N 0.7061(2) 0.2491(2) 0.0324(2)
O1 O 0.8173(3) 0.2511(2) -0.2991(2)
O2 O 0.7292(4) 0.4556(3) -0.4701(3)
O3 O -0.0121(2) 0.0530(2) 0.33489(17)
O4 O -0.1847(2) 0.1305(2) 0.47608(17)
C1 C 0.1234(3) 0.1045(3) 0.0364(3)
H2 H 0.0393 0.0738 0.0553
C2 C 0.1401(3) 0.2061(3) -0.0863(3)
H3 H 0.0703 0.2397 -0.1491
C3 C 0.2606(3) 0.2570(3) -0.1147(2)
H4 H 0.2719 0.3269 -0.1961
C4 C 0.3664(3) 0.2021(3) -0.0189(2)
C5 C 0.4944(3) 0.2463(3) -0.0297(2)
C6 C 0.5950(3) 0.1851(3) 0.0681(2)
C7 C 0.5765(3) 0.0720(3) 0.1893(2)
C8 C 0.6747(3) 0.0031(3) 0.2919(3)
H5 H 0.7594 0.0297 0.2849
C9 C 0.6448(4) -0.1038(4) 0.4028(3)
H6 H 0.7098 -0.1515 0.4716
C10 C 0.5164(4) -0.1411(3) 0.4123(3)
H7 H 0.4976 -0.2142 0.4883
C11 C 0.4498(3) 0.0289(3) 0.2049(2)
C12 C 0.3436(3) 0.0949(3) 0.1018(2)
C13 C 0.6708(3) 0.3487(3) -0.0861(2)
C14 C 0.7594(3) 0.4475(3) -0.1630(3)
C15 C 0.8051(3) 0.5130(3) -0.1003(3)
H8 H 0.7753 0.4976 -0.0141
C16 C 0.8940(4) 0.6004(3) -0.1646(3)
H9 H 0.9255 0.6420 -0.1215
C17 C 0.9361(4) 0.6259(3) -0.2928(4)
H10 H 0.9962 0.6847 -0.3363
C18 C 0.8891(4) 0.5644(3) -0.3569(3)
H11 H 0.9156 0.5846 -0.4441
C19 C 0.8027(3) 0.4727(3) -0.2930(3)
C20 C 0.7769(3) 0.3890(3) -0.3615(3)
C21 C -0.0566(3) 0.0524(3) 0.4455(2)
Zn1A Zn 0.79257(3) 0.09373(3) -0.32502(3)
Zn1A_2 Zn -0.20743(3) 0.09373(3) 0.67498(3)
Zn1_2 Zn -0.79257(3) -0.09373(3) 1.32502(3)
N1A N -0.2223(2) -0.0493(2) 0.8721(2)
N2A N -0.4201(3) 0.0763(2) 0.6830(2)
N3A N -0.5449(2) -0.3517(2) 1.1282(2)
H1A H -0.5046 -0.4086 1.2021
N4A N -0.7061(2) -0.2491(2) 0.9676(2)
O1A O 0.1827(3) -0.2511(2) 0.2991(2)
O1_2 O -0.1827(3) 0.2511(2) 0.7009(2)
O1A_2 O -0.8173(3) -0.2511(2) 1.2991(2)
O2A O -0.7292(4) -0.4556(3) 1.4701(3)
O3A O 0.0121(2) -0.0530(2) 0.66511(17)
O4A O 0.1847(2) -0.1305(2) 0.52392(17)
C1A C -0.1234(3) -0.1045(3) 0.9636(3)
H2A H -0.0393 -0.0738 0.9447
C2A C -0.1401(3) -0.2061(3) 1.0863(3)
H3A H -0.0703 -0.2397 1.1491
C3A C -0.2606(3) -0.2570(3) 1.1147(2)
H4A H -0.2719 -0.3269 1.1961
C4A C -0.3664(3) -0.2021(3) 1.0189(2)
C5A C -0.4944(3) -0.2463(3) 1.0297(2)
C6A C -0.5950(3) -0.1851(3) 0.9319(2)
C7A C -0.5765(3) -0.0720(3) 0.8107(2)
C8A C -0.6747(3) -0.0031(3) 0.7081(3)
H5A H -0.7594 -0.0297 0.7151
C9A C -0.6448(4) 0.1038(4) 0.5972(3)
H6A H -0.7098 0.1515 0.5284
C10A C -0.5164(4) 0.1411(3) 0.5877(3)
H7A H -0.4976 0.2142 0.5117
C11A C -0.4498(3) -0.0289(3) 0.7951(2)
C12A C -0.3436(3) -0.0949(3) 0.8982(2)
C13A C -0.6708(3) -0.3487(3) 1.0861(2)
C14A C -0.7594(3) -0.4475(3) 1.1630(3)
C15A C -0.8051(3) -0.5130(3) 1.1003(3)
H8A H -0.7753 -0.4976 1.0141
C16A C -0.8940(4) -0.6004(3) 1.1646(3)
H9A H -0.9255 -0.6420 1.1215
C17A C -0.9361(4) -0.6259(3) 1.2928(4)
H10A H -0.9962 -0.6847 1.3363
C18A C -0.8891(4) -0.5644(3) 1.3569(3)
H11A H -0.9156 -0.5846 1.4441
C19A C -0.8027(3) -0.4727(3) 1.2930(3)
C20A C -0.7769(3) -0.3890(3) 1.3615(3)
C21A C 0.0566(3) -0.0524(3) 0.5545(2)
O5 O 0.6335(4) 0.4361(3) 0.3316(3)
H12 H 0.663(4) 0.442(4) 0.390(3)
H13 H 0.686(4) 0.355(3) 0.320(4)
loop_
_geom_bond_atom_site_label_1
_geom_bond_atom_site_label_2
_geom_bond_site_symmetry_1
_geom_bond_site_symmetry_2
Zn1 N1 1_555 1_555
N1 C1 1_555 1_555
N2 Zn1 1_555 1_555
N3 H1 1_555 1_555
N4 C6 1_555 1_555
O1 C20 1_555 1_555
O2 C20 1_555 1_555
O3 Zn1 1_555 1_555
O4 C21 1_555 1_555
O5 H12 1_555 1_555
C1 H2 1_555 1_555
C2 C1 1_555 1_555
H3 C2 1_555 1_555
C3 C2 1_555 1_555
H4 C3 1_555 1_555
C4 C3 1_555 1_555
C5 N3 1_555 1_555
C6 C5 1_555 1_555
C7 C6 1_555 1_555
C8 C7 1_555 1_555
H5 C8 1_555 1_555
C9 C8 1_555 1_555
H6 C9 1_555 1_555
C10 N2 1_555 1_555
H7 C10 1_555 1_555
C11 N2 1_555 1_555
C12 N1 1_555 1_555
C13 N3 1_555 1_555
C14 C13 1_555 1_555
C15 C14 1_555 1_555
H8 C15 1_555 1_555
C16 C15 1_555 1_555
H9 C16 1_555 1_555
C17 C16 1_555 1_555
H10 C17 1_555 1_555
C18 C17 1_555 1_555
H11 C18 1_555 1_555
C19 C14 1_555 1_555
C20 C19 1_555 1_555
C21 O3 1_555 1_555
H13 O5 1_555 1_555
Zn1A O1 1_555 1_555
Zn1A_2 O4 1_555 1_555
Zn1_2 O1A_2 1_555 1_555
N1A Zn1A_2 1_555 1_555
N2A Zn1A_2 1_555 1_555
N3A H1A 1_555 1_555
N4A C6A 1_555 1_555
O1A Zn1 1_555 1_555
O1_2 Zn1A_2 1_555 1_555
O1A_2 C20A 1_555 1_555
O2A C20A 1_555 1_555
O3A Zn1A_2 1_555 1_555
O4A Zn1 1_555 1_555
C1A N1A 1_555 1_555
H2A C1A 1_555 1_555
C2A C1A 1_555 1_555
H3A C2A 1_555 1_555
C3A C2A 1_555 1_555
H4A C3A 1_555 1_555
C4A C3A 1_555 1_555
C5A N3A 1_555 1_555
C6A C5A 1_555 1_555
C7A C6A 1_555 1_555
C8A C7A 1_555 1_555
H5A C8A 1_555 1_555
C9A C8A 1_555 1_555
H6A C9A 1_555 1_555
C10A N2A 1_555 1_555
H7A C10A 1_555 1_555
C11A N2A 1_555 1_555
C12A N1A 1_555 1_555
C13A N3A 1_555 1_555
C14A C13A 1_555 1_555
C15A C14A 1_555 1_555
H8A C15A 1_555 1_555
C16A C15A 1_555 1_555
H9A C16A 1_555 1_555
C17A C16A 1_555 1_555
H10A C17A 1_555 1_555
C18A C17A 1_555 1_555
H11A C18A 1_555 1_555
C19A C14A 1_555 1_555
C20A C19A 1_555 1_555
C21A C21 1_555 1_555
N4 C13 1_555 1_555
C4 C5 1_555 1_555
C4 C12 1_555 1_555
C7 C11 1_555 1_555
C9 C10 1_555 1_555
C11 C12 1_555 1_555
C18 C19 1_555 1_555
N4A C13A 1_555 1_555
O3A C21A 1_555 1_555
O4A C21A 1_555 1_555
C4A C5A 1_555 1_555
C4A C12A 1_555 1_555
C7A C11A 1_555 1_555
C9A C10A 1_555 1_555
C11A C12A 1_555 1_555
C18A C19A 1_555 1_555

#END
