
#######################################################################
#
#                 Cambridge Crystallographic Data Centre
#                                CCDC 
#
#######################################################################
#
# If this CIF has been generated from an entry in the Cambridge 
# Structural Database, then it will include bibliographic, chemical, 
# crystal, experimental, refinement or atomic coordinate data resulting 
# from the CCDC's data processing and validation procedures.
#
#######################################################################

data_UZAPAN
_symmetry_cell_setting           monoclinic
_symmetry_space_group_name_H-M   'P 21/c'
_symmetry_Int_Tables_number      14
_space_group_name_Hall           '-P 2ybc'
loop_
_symmetry_equiv_pos_site_id
_symmetry_equiv_pos_as_xyz
1 x,y,z
2 -x,1/2+y,1/2-z
3 -x,-y,-z
4 x,1/2-y,1/2+z
_cell_length_a                   13.6409(14)
_cell_length_b                   16.4114(16)
_cell_length_c                   15.9485(16)
_cell_angle_alpha                90
_cell_angle_beta                 102.3510(10)
_cell_angle_gamma                90
_cell_volume                     3487.7
loop_
_atom_site_label
_atom_site_type_symbol
_atom_site_fract_x
_atom_site_fract_y
_atom_site_fract_z
Zn1 Zn 0.24889(3) 0.98364(3) 0.24344(3)
Zn2 Zn 0.18056(3) 1.01649(3) 0.46550(3)
N1 N 0.0907(3) 0.99162(19) 0.1815(2)
N2 N 0.2395(2) 0.9184(2) 0.1266(2)
N3 N -0.0247(2) 0.7751(2) -0.0812(2)
H1 H 0.0045 0.7388 -0.1060
N4 N -0.1472(2) 0.84972(19) -0.0468(2)
N5 N 0.7326(2) 0.88007(18) 0.52880(19)
N6 N 0.6818(2) 1.02830(19) 0.46559(19)
N7 N 0.3568(2) 0.91031(18) 0.31629(19)
N8 N 0.4011(2) 0.78507(19) 0.3755(2)
O1 O -0.2582(2) 0.89867(17) -0.24804(18)
O2 O -0.3713(3) 0.89700(19) -0.1670(2)
O3 O 0.17822(19) 0.95389(15) 0.35557(16)
O4 O 0.0723(3) 0.87146(18) 0.4005(2)
O5 O 0.11604(19) 0.97231(16) 0.56164(16)
O6 O -0.03786(19) 0.93764(16) 0.57584(17)
C1 C 0.0192(3) 1.0326(3) 0.2082(3)
H2 H 0.0371 1.0663 0.2559
C2 C -0.0814(3) 1.0271(3) 0.1676(3)
H3 H -0.1291 1.0581 0.1871
C3 C -0.1099(3) 0.9762(2) 0.0994(3)
H4 H -0.1773 0.9706 0.0733
C4 C -0.0365(3) 0.9324(2) 0.0690(2)
C5 C -0.0556(3) 0.8742(2) 0.0010(2)
C6 C 0.0214(3) 0.8297(2) -0.0205(2)
C7 C 0.1247(3) 0.8444(2) 0.0167(2)
C8 C 0.2075(3) 0.8097(2) -0.0097(3)
H5 H 0.1975 0.7723 -0.0545
C9 C 0.3025(3) 0.8312(3) 0.0308(3)
H6 H 0.3578 0.8103 0.0126
C10 C 0.3153(3) 0.8848(3) 0.0996(3)
H7 H 0.3803 0.8977 0.1281
C11 C 0.1450(3) 0.9007(2) 0.0844(2)
C12 C 0.0638(3) 0.9428(2) 0.1118(2)
C13 C -0.1257(3) 0.7890(2) -0.0951(2)
C14 C -0.2003(3) 0.7394(2) -0.1517(2)
C15 C -0.1844(3) 0.6559(2) -0.1586(3)
H8 H -0.1238 0.6333 -0.1304
C16 C -0.2569(4) 0.6063(3) -0.2063(3)
H9 H -0.2445 0.5511 -0.2116
C17 C -0.3481(4) 0.6391(3) -0.2460(3)
H10 H -0.3980 0.6058 -0.2771
C18 C -0.3651(3) 0.7214(3) -0.2397(3)
H11 H -0.4268 0.7432 -0.2664
C19 C -0.2915(3) 0.7721(2) -0.1942(3)
C20 C -0.3092(3) 0.8631(3) -0.2004(3)
C21 C 0.7586(3) 0.8080(2) 0.5652(3)
H12 H 0.8217 0.8024 0.6010
C22 C 0.6950(3) 0.7405(3) 0.5517(3)
H13 H 0.7151 0.6912 0.5786
C23 C 0.6031(3) 0.7481(2) 0.4984(3)
H14 H 0.5607 0.7032 0.4875
C24 C 0.5723(3) 0.8229(2) 0.4600(2)
C25 C 0.4772(3) 0.8395(2) 0.4032(2)
C26 C 0.4518(3) 0.9153(2) 0.3685(2)
C27 C 0.5177(3) 0.9842(2) 0.3895(2)
C28 C 0.4960(3) 1.0645(2) 0.3637(3)
H15 H 0.4338 1.0776 0.3297
C29 C 0.5666(3) 1.1239(2) 0.3886(3)
H16 H 0.5524 1.1777 0.3719
C30 C 0.6595(3) 1.1034(3) 0.4390(3)
H17 H 0.7075 1.1440 0.4545
C31 C 0.6125(3) 0.9692(2) 0.4433(2)
C32 C 0.6400(3) 0.8884(2) 0.4774(2)
C33 C 0.3309(3) 0.8309(2) 0.3250(2)
C34 C 0.2342(3) 0.7958(2) 0.2783(2)
C35 C 0.2383(3) 0.7284(2) 0.2267(3)
H18 H 0.3005 0.7070 0.2233
C36 C 0.1523(3) 0.6925(3) 0.1805(3)
H19 H 0.1564 0.6476 0.1459
C37 C 0.0597(3) 0.7239(3) 0.1860(3)
H20 H 0.0014 0.7015 0.1531
C38 C 0.0539(3) 0.7877(2) 0.2396(2)
H21 H -0.0087 0.8069 0.2448
C39 C 0.1405(3) 0.8243(2) 0.2866(2)
C40 C 0.1286(3) 0.8874(2) 0.3516(2)
C41 C 0.0227(3) 0.9740(2) 0.5399(2)
Zn1B Zn -0.24889(3) 1.01636(3) -0.24344(3)
Zn2B Zn 0.81944(3) 0.98351(3) 0.53450(3)
Zn2B_2 Zn -0.18056(3) 0.98351(3) 0.53450(3)
Zn2B_3 Zn -0.18056(3) 0.98351(3) -0.46550(3)
Zn2_2 Zn -0.81944(3) 1.01649(3) -0.53450(3)
N1B N -0.0907(3) 1.00838(19) -0.1815(2)
N2B N -0.2395(2) 1.0816(2) -0.1266(2)
N3B N 0.0247(2) 1.2249(2) 0.0812(2)
H1B H -0.0045 1.2612 0.1060
N4B N 0.1472(2) 1.15028(19) 0.0468(2)
N5B N 0.2674(2) 1.11993(18) 0.47120(19)
N5_2 N -0.2674(2) 0.88007(18) -0.47120(19)
N5B_2 N -0.7326(2) 1.11993(18) -0.52880(19)
N6B N 0.3182(2) 0.97170(19) 0.53441(19)
N6_2 N -0.3182(2) 1.02830(19) -0.53441(19)
N6B_2 N -0.6818(2) 0.97170(19) -0.46559(19)
N7B N -0.3568(2) 1.08969(18) -0.31629(19)
N8B N -0.4011(2) 1.21493(19) -0.3755(2)
O1B O 0.2582(2) 1.10133(17) 0.24804(18)
O2B O 0.3713(3) 1.10300(19) 0.1670(2)
O3B O -0.17822(19) 1.04611(15) -0.35557(16)
O4B O -0.0723(3) 1.12854(18) -0.4005(2)
O5B O -0.11604(19) 1.02769(16) 0.43836(16)
O5B_2 O -0.11604(19) 1.02769(16) -0.56164(16)
O6B O 0.03786(19) 1.06236(16) 0.42416(17)
O6_2 O -0.03786(19) 0.93764(16) -0.42416(17)
C1B C -0.0192(3) 0.9674(3) -0.2082(3)
H2B H -0.0371 0.9337 -0.2559
C2B C 0.0814(3) 0.9729(3) -0.1676(3)
H3B H 0.1291 0.9419 -0.1871
C3B C 0.1099(3) 1.0238(2) -0.0994(3)
H4B H 0.1773 1.0294 -0.0733
C4B C 0.0365(3) 1.0676(2) -0.0690(2)
C5B C 0.0556(3) 1.1258(2) -0.0010(2)
C6B C -0.0214(3) 1.1703(2) 0.0205(2)
C7B C -0.1247(3) 1.1556(2) -0.0167(2)
C8B C -0.2075(3) 1.1903(2) 0.0097(3)
H5B H -0.1975 1.2277 0.0545
C9B C -0.3025(3) 1.1688(3) -0.0308(3)
H6B H -0.3578 1.1897 -0.0126
C10B C -0.3153(3) 1.1152(3) -0.0996(3)
H7B H -0.3803 1.1023 -0.1281
C11B C -0.1450(3) 1.0993(2) -0.0844(2)
C12B C -0.0638(3) 1.0572(2) -0.1118(2)
C13B C 0.1257(3) 1.2110(2) 0.0951(2)
C14B C 0.2003(3) 1.2606(2) 0.1517(2)
C15B C 0.1844(3) 1.3441(2) 0.1586(3)
H8B H 0.1238 1.3667 0.1304
C16B C 0.2569(4) 1.3937(3) 0.2063(3)
H9B H 0.2445 1.4489 0.2116
C17B C 0.3481(4) 1.3609(3) 0.2460(3)
H10B H 0.3980 1.3942 0.2771
C18B C 0.3651(3) 1.2786(3) 0.2397(3)
H11B H 0.4268 1.2568 0.2664
C19B C 0.2915(3) 1.2279(2) 0.1942(3)
C20B C 0.3092(3) 1.1369(3) 0.2004(3)
C21B C -0.7586(3) 1.1920(2) -0.5652(3)
H12B H -0.8217 1.1976 -0.6010
C22B C -0.6950(3) 1.2595(3) -0.5517(3)
H13B H -0.7151 1.3088 -0.5786
C23B C -0.6031(3) 1.2519(2) -0.4984(3)
H14B H -0.5607 1.2968 -0.4875
C24B C -0.5723(3) 1.1771(2) -0.4600(2)
C25B C -0.4772(3) 1.1605(2) -0.4032(2)
C26B C -0.4518(3) 1.0847(2) -0.3685(2)
C27B C -0.5177(3) 1.0158(2) -0.3895(2)
C28B C -0.4960(3) 0.9355(2) -0.3637(3)
H15B H -0.4338 0.9224 -0.3297
C29B C -0.5666(3) 0.8761(2) -0.3886(3)
H16B H -0.5524 0.8223 -0.3719
C30B C -0.6595(3) 0.8966(3) -0.4390(3)
H17B H -0.7075 0.8560 -0.4545
C31B C -0.6125(3) 1.0308(2) -0.4433(2)
C32B C -0.6400(3) 1.1116(2) -0.4774(2)
C33B C -0.3309(3) 1.1691(2) -0.3250(2)
C34B C -0.2342(3) 1.2042(2) -0.2783(2)
C35B C -0.2383(3) 1.2716(2) -0.2267(3)
H18B H -0.3005 1.2930 -0.2233
C36B C -0.1523(3) 1.3075(3) -0.1805(3)
H19B H -0.1564 1.3524 -0.1459
C37B C -0.0597(3) 1.2761(3) -0.1860(3)
H20B H -0.0014 1.2985 -0.1531
C38B C -0.0539(3) 1.2123(2) -0.2396(2)
H21B H 0.0087 1.1931 -0.2448
C39B C -0.1405(3) 1.1757(2) -0.2866(2)
C40B C -0.1286(3) 1.1126(2) -0.3516(2)
C41B C -0.0227(3) 1.0260(2) 0.4601(2)
O7 O 0.5661(3) 0.1076(2) 0.1339(3)
O8 O 0.6207(6) 0.5393(3) 0.5470(5)
loop_
_geom_bond_atom_site_label_1
_geom_bond_atom_site_label_2
_geom_bond_site_symmetry_1
_geom_bond_site_symmetry_2
Zn1 N1 1_555 1_555
Zn2 O3 1_555 1_555
N1 C1 1_555 1_555
N2 Zn1 1_555 1_555
N3 H1 1_555 1_555
N4 C5 1_555 1_555
N5 C21 1_555 1_555
N6 C30 1_555 1_555
N7 Zn1 1_555 1_555
N8 C25 1_555 1_555
O1 C20 1_555 1_555
O2 C20 1_555 1_555
O3 Zn1 1_555 1_555
O4 C40 1_555 1_555
O5 Zn2 1_555 1_555
O6 C41 1_555 1_555
C1 H2 1_555 1_555
C2 C1 1_555 1_555
H3 C2 1_555 1_555
C3 C2 1_555 1_555
H4 C3 1_555 1_555
C4 C3 1_555 1_555
C5 C4 1_555 1_555
C6 N3 1_555 1_555
C7 C6 1_555 1_555
C8 C7 1_555 1_555
H5 C8 1_555 1_555
C9 C8 1_555 1_555
H6 C9 1_555 1_555
C10 N2 1_555 1_555
H7 C10 1_555 1_555
C11 N2 1_555 1_555
C12 N1 1_555 1_555
C13 N3 1_555 1_555
C14 C13 1_555 1_555
C15 C14 1_555 1_555
H8 C15 1_555 1_555
C16 C15 1_555 1_555
H9 C16 1_555 1_555
C17 C16 1_555 1_555
H10 C17 1_555 1_555
C18 C17 1_555 1_555
H11 C18 1_555 1_555
C19 C14 1_555 1_555
C20 C19 1_555 1_555
C21 H12 1_555 1_555
C22 C21 1_555 1_555
H13 C22 1_555 1_555
C23 C22 1_555 1_555
H14 C23 1_555 1_555
C24 C23 1_555 1_555
C25 C24 1_555 1_555
C26 N7 1_555 1_555
C27 C26 1_555 1_555
C28 C27 1_555 1_555
H15 C28 1_555 1_555
C29 C28 1_555 1_555
H16 C29 1_555 1_555
C30 C29 1_555 1_555
H17 C30 1_555 1_555
C31 N6 1_555 1_555
C32 N5 1_555 1_555
C33 N7 1_555 1_555
C34 C33 1_555 1_555
C35 C34 1_555 1_555
H18 C35 1_555 1_555
C36 C35 1_555 1_555
H19 C36 1_555 1_555
C37 C36 1_555 1_555
H20 C37 1_555 1_555
C38 C37 1_555 1_555
H21 C38 1_555 1_555
C39 C34 1_555 1_555
C40 O3 1_555 1_555
C41 O5 1_555 1_555
Zn1B O1 1_555 1_555
Zn2B N5 1_555 1_555
Zn2B_2 O6 1_555 1_555
Zn2B_3 N5_2 1_555 1_555
Zn2_2 N5B_2 1_555 1_555
N1B Zn1B 1_555 1_555
N2B Zn1B 1_555 1_555
N3B H1B 1_555 1_555
N4B C5B 1_555 1_555
N5B Zn2 1_555 1_555
N5B_2 C21B 1_555 1_555
N6B Zn2 1_555 1_555
N6_2 Zn2B_3 1_555 1_555
N6B_2 Zn2_2 1_555 1_555
N7B Zn1B 1_555 1_555
N8B C25B 1_555 1_555
O1B Zn1 1_555 1_555
O2B C20B 1_555 1_555
O3B Zn1B 1_555 1_555
O4B C40B 1_555 1_555
O5B Zn2B_2 1_555 1_555
O5B_2 Zn2B_3 1_555 1_555
O6B Zn2 1_555 1_555
O6_2 Zn2B_3 1_555 1_555
C1B N1B 1_555 1_555
H2B C1B 1_555 1_555
C2B C1B 1_555 1_555
H3B C2B 1_555 1_555
C3B C2B 1_555 1_555
H4B C3B 1_555 1_555
C4B C3B 1_555 1_555
C5B C4B 1_555 1_555
C6B N3B 1_555 1_555
C7B C6B 1_555 1_555
C8B C7B 1_555 1_555
H5B C8B 1_555 1_555
C9B C8B 1_555 1_555
H6B C9B 1_555 1_555
C10B N2B 1_555 1_555
H7B C10B 1_555 1_555
C11B N2B 1_555 1_555
C12B N1B 1_555 1_555
C13B N3B 1_555 1_555
C14B C13B 1_555 1_555
C15B C14B 1_555 1_555
H8B C15B 1_555 1_555
C16B C15B 1_555 1_555
H9B C16B 1_555 1_555
C17B C16B 1_555 1_555
H10B C17B 1_555 1_555
C18B C17B 1_555 1_555
H11B C18B 1_555 1_555
C19B C14B 1_555 1_555
C20B O1B 1_555 1_555
C21B H12B 1_555 1_555
C22B C21B 1_555 1_555
H13B C22B 1_555 1_555
C23B C22B 1_555 1_555
H14B C23B 1_555 1_555
C24B C23B 1_555 1_555
C25B C24B 1_555 1_555
C26B N7B 1_555 1_555
C27B C26B 1_555 1_555
C28B C27B 1_555 1_555
H15B C28B 1_555 1_555
C29B C28B 1_555 1_555
H16B C29B 1_555 1_555
C30B N6B_2 1_555 1_555
H17B C30B 1_555 1_555
C31B N6B_2 1_555 1_555
C32B N5B_2 1_555 1_555
C33B N7B 1_555 1_555
C34B C33B 1_555 1_555
C35B C34B 1_555 1_555
H18B C35B 1_555 1_555
C36B C35B 1_555 1_555
H19B C36B 1_555 1_555
C37B C36B 1_555 1_555
H20B C37B 1_555 1_555
C38B C37B 1_555 1_555
H21B C38B 1_555 1_555
C39B C34B 1_555 1_555
C40B O3B 1_555 1_555
C41B C41 1_555 1_555
N4 C13 1_555 1_555
N6 Zn2B 1_555 1_555
N8 C33 1_555 1_555
C4 C12 1_555 1_555
C5 C6 1_555 1_555
C7 C11 1_555 1_555
C9 C10 1_555 1_555
C11 C12 1_555 1_555
C18 C19 1_555 1_555
C24 C32 1_555 1_555
C25 C26 1_555 1_555
C27 C31 1_555 1_555
C31 C32 1_555 1_555
C38 C39 1_555 1_555
C39 C40 1_555 1_555
Zn2B_3 O3B 1_555 1_555
N4B C13B 1_555 1_555
N8B C33B 1_555 1_555
O5B C41B 1_555 1_555
O6B C41B 1_555 1_555
C4B C12B 1_555 1_555
C5B C6B 1_555 1_555
C7B C11B 1_555 1_555
C9B C10B 1_555 1_555
C11B C12B 1_555 1_555
C18B C19B 1_555 1_555
C19B C20B 1_555 1_555
C24B C32B 1_555 1_555
C25B C26B 1_555 1_555
C27B C31B 1_555 1_555
C29B C30B 1_555 1_555
C31B C32B 1_555 1_555
C38B C39B 1_555 1_555
C39B C40B 1_555 1_555

#END
