
#######################################################################
#
#                 Cambridge Crystallographic Data Centre
#                                CCDC 
#
#######################################################################
#
# If this CIF has been generated from an entry in the Cambridge 
# Structural Database, then it will include bibliographic, chemical, 
# crystal, experimental, refinement or atomic coordinate data resulting 
# from the CCDC's data processing and validation procedures.
#
#######################################################################

data_UZAQIW
_symmetry_cell_setting           monoclinic
_symmetry_space_group_name_H-M   'P 2/n'
_symmetry_Int_Tables_number      13
_space_group_name_Hall           '-P 2yac'
loop_
_symmetry_equiv_pos_site_id
_symmetry_equiv_pos_as_xyz
1 x,y,z
2 1/2-x,y,1/2-z
3 -x,-y,-z
4 1/2+x,-y,1/2+z
_cell_length_a                   13.6730(5)
_cell_length_b                   10.1265(3)
_cell_length_c                   15.9752(4)
_cell_angle_alpha                90
_cell_angle_beta                 103.061(3)
_cell_angle_gamma                90
_cell_volume                     2154.7
loop_
_atom_site_label
_atom_site_type_symbol
_atom_site_fract_x
_atom_site_fract_y
_atom_site_fract_z
Cd1 Cd 0.2500 0.14881(7) 0.2500
Cd2 Cd -0.34506(4) 0.33131(4) 0.08769(3)
C1 C -0.2086(5) -0.0438(6) 0.1507(4)
C2 C -0.2583(5) -0.1623(6) 0.1230(4)
H1 H -0.3201 -0.1611 0.0839
C3 C -0.2145(5) -0.2822(6) 0.1543(4)
C4 C -0.1233(5) -0.2810(6) 0.2155(4)
H2 H -0.0926 -0.3605 0.2355
C5 C -0.0786(5) -0.1640(6) 0.2465(4)
C6 C -0.1193(5) -0.0450(6) 0.2112(4)
H3 H -0.0860 0.0338 0.2286
C7 C -0.2562(6) 0.0851(6) 0.1222(4)
C8 C -0.2666(5) -0.4099(6) 0.1286(4)
C9 C 0.0385(6) -0.0546(7) 0.3619(4)
H4 H 0.0761 -0.0795 0.4187
H5 H -0.0199 -0.0050 0.3687
C10 C 0.1041(6) 0.0340(7) 0.3197(5)
C11 C 0.4396(6) 0.3197(8) 0.3429(5)
H6 H 0.4637 0.2865 0.2972
C12 C 0.5005(6) 0.4027(8) 0.3993(4)
H7 H 0.5637 0.4243 0.3908
C13 C 0.4692(6) 0.4545(7) 0.4685(4)
C14 C 0.3740(6) 0.4166(8) 0.4769(5)
H8 H 0.3491 0.4473 0.5229
C15 C 0.3161(6) 0.3331(7) 0.4166(5)
H9 H 0.2524 0.3106 0.4233
C16 C -0.2311(7) 0.2775(8) -0.0621(5)
H10 H -0.1918 0.2291 -0.0175
C17 C -0.2050(7) 0.2771(9) -0.1398(5)
H11 H -0.1491 0.2303 -0.1474
C18 C -0.2626(6) 0.3469(7) -0.2058(4)
C19 C -0.3455(6) 0.4119(8) -0.1917(4)
H12 H -0.3873 0.4573 -0.2365
C20 C -0.3671(6) 0.4099(7) -0.1114(4)
H13 H -0.4227 0.4560 -0.1026
O1 O -0.2071(4) 0.1888(4) 0.1442(3)
O2 O -0.5141(4) 0.3037(6) 0.0457(3)
H14 H -0.5574 0.3400 -0.0017
H15 H -0.5410 0.2415 0.0672
O3 O -0.3876(4) 0.3341(4) 0.2197(3)
H16 H -0.3730 0.2568 0.2529
H17 H -0.3683 0.4160 0.2476
O4 O -0.3435(4) 0.0904(5) 0.0782(3)
O5 O -0.3549(4) -0.4137(5) 0.0835(3)
O6 O -0.2193(3) -0.5155(4) 0.1522(3)
O7 O 0.0054(4) -0.1734(4) 0.3126(3)
O8 O 0.1251(5) 0.1467(5) 0.3516(4)
O9 O 0.1373(4) -0.0091(6) 0.2582(4)
N1 N 0.3468(5) 0.2829(6) 0.3494(3)
N2 N -0.3104(5) 0.3438(5) -0.0464(3)
Cd1B Cd 0.7500 0.85119(7) 0.7500
Cd2A Cd 0.84506(4) 0.33131(4) 0.41231(3)
Cd2_2 Cd -0.34506(4) -0.66869(4) 0.08769(3)
Cd2A_2 Cd -0.15494(4) 0.33131(4) -0.58769(3)
Cd2A_3 Cd 0.84506(4) -0.66869(4) 0.41231(3)
C1A C 0.7086(5) -0.0438(6) 0.3493(4)
C2A C 0.7583(5) -0.1623(6) 0.3770(4)
H1A H 0.8201 -0.1611 0.4161
C3A C 0.7145(5) -0.2822(6) 0.3457(4)
C4A C 0.6233(5) -0.2810(6) 0.2845(4)
H2A H 0.5926 -0.3605 0.2645
C5A C 0.5786(5) -0.1640(6) 0.2535(4)
C6A C 0.6193(5) -0.0450(6) 0.2888(4)
H3A H 0.5860 0.0338 0.2714
C7A C 0.7562(6) 0.0851(6) 0.3778(4)
C8A C 0.7666(5) -0.4099(6) 0.3714(4)
C9A C 0.4615(6) -0.0546(7) 0.1381(4)
H4A H 0.4239 -0.0795 0.0813
H5A H 0.5199 -0.0050 0.1313
C10A C 0.3959(6) 0.0340(7) 0.1803(5)
C11B C 0.5604(6) 0.6803(8) 0.6571(5)
H6B H 0.5363 0.7135 0.7028
C12B C 0.4995(6) 0.5973(8) 0.6007(4)
H7B H 0.4363 0.5757 0.6092
C13B C 0.5308(6) 0.5455(7) 0.5315(4)
C14B C 0.6260(6) 0.5834(8) 0.5231(5)
H8B H 0.6509 0.5527 0.4771
C15B C 0.6839(6) 0.6669(7) 0.5834(5)
H9B H 0.7476 0.6894 0.5767
C16A C -0.2689(7) 0.2775(8) -0.4379(5)
H10A H -0.3082 0.2291 -0.4825
C17A C -0.2950(7) 0.2771(9) -0.3602(5)
H11A H -0.3509 0.2303 -0.3526
C18A C -0.2374(6) 0.3469(7) -0.2942(4)
C19A C -0.1545(6) 0.4119(8) -0.3083(4)
H12A H -0.1127 0.4573 -0.2635
C20A C -0.1329(6) 0.4099(7) -0.3886(4)
H13A H -0.0773 0.4560 -0.3974
O1A O 0.7071(4) 0.1888(4) 0.3558(3)
O2A O 1.0141(4) 0.3037(6) 0.4543(3)
H14A H 1.0574 0.3400 0.5017
H15A H 1.0410 0.2415 0.4328
O3A O 0.8876(4) 0.3341(4) 0.2803(3)
H16A H 0.8730 0.2568 0.2471
H17A H 0.8683 0.4160 0.2524
O4A O 0.8435(4) 0.0904(5) 0.4218(3)
O5A O 0.8549(4) -0.4137(5) 0.4165(3)
O5_2 O -0.3549(4) 0.5863(5) 0.0835(3)
O5A_2 O 0.8549(4) 0.5863(5) 0.4165(3)
O6A O 0.7193(3) -0.5155(4) 0.3478(3)
O6_2 O -0.2193(3) 0.4845(4) 0.1522(3)
O6A_2 O 0.7193(3) 0.4845(4) 0.3478(3)
O7A O 0.4946(4) -0.1734(4) 0.1874(3)
O8A O 0.3749(5) 0.1467(5) 0.1484(4)
O9A O 0.3627(4) -0.0091(6) 0.2418(4)
N1B N 0.6532(5) 0.7171(6) 0.6506(3)
N1A N 0.1532(5) 0.2829(6) 0.1506(3)
N2A N -0.1896(5) 0.3438(5) -0.4536(3)
N2A_2 N 0.8104(5) 0.3438(5) 0.5464(3)
loop_
_geom_bond_atom_site_label_1
_geom_bond_atom_site_label_2
_geom_bond_site_symmetry_1
_geom_bond_site_symmetry_2
Cd1 O8 1_555 1_555
Cd2 O1 1_555 1_555
C1 C2 1_555 1_555
C2 H1 1_555 1_555
C3 C2 1_555 1_555
C4 C3 1_555 1_555
H2 C4 1_555 1_555
C5 C4 1_555 1_555
C6 C1 1_555 1_555
H3 C6 1_555 1_555
C7 C1 1_555 1_555
C8 C3 1_555 1_555
C9 H4 1_555 1_555
H5 C9 1_555 1_555
C10 C9 1_555 1_555
C11 H6 1_555 1_555
C12 C11 1_555 1_555
H7 C12 1_555 1_555
C13 C12 1_555 1_555
C14 C13 1_555 1_555
H8 C14 1_555 1_555
C15 C14 1_555 1_555
H9 C15 1_555 1_555
C16 H10 1_555 1_555
C17 C16 1_555 1_555
H11 C17 1_555 1_555
C18 C17 1_555 1_555
C19 C18 1_555 1_555
H12 C19 1_555 1_555
C20 C19 1_555 1_555
H13 C20 1_555 1_555
O1 C7 1_555 1_555
O2 Cd2 1_555 1_555
H14 O2 1_555 1_555
H15 O2 1_555 1_555
O3 Cd2 1_555 1_555
H16 O3 1_555 1_555
H17 O3 1_555 1_555
O4 Cd2 1_555 1_555
O5 C8 1_555 1_555
O6 C8 1_555 1_555
O7 C5 1_555 1_555
O8 C10 1_555 1_555
O9 Cd1 1_555 1_555
N1 Cd1 1_555 1_555
N2 Cd2 1_555 1_555
Cd1B N1B 1_555 1_555
Cd2A O1A 1_555 1_555
Cd2_2 O5 1_555 1_555
Cd2A_2 N2A 1_555 1_555
Cd2A_3 O5A 1_555 1_555
C1A C2A 1_555 1_555
C2A H1A 1_555 1_555
C3A C2A 1_555 1_555
C4A C3A 1_555 1_555
H2A C4A 1_555 1_555
C5A C4A 1_555 1_555
C6A C1A 1_555 1_555
H3A C6A 1_555 1_555
C7A C1A 1_555 1_555
C8A C3A 1_555 1_555
C9A H4A 1_555 1_555
H5A C9A 1_555 1_555
C10A C9A 1_555 1_555
C11B H6B 1_555 1_555
C12B C11B 1_555 1_555
H7B C12B 1_555 1_555
C13B C13 1_555 1_555
C14B C13B 1_555 1_555
H8B C14B 1_555 1_555
C15B C14B 1_555 1_555
H9B C15B 1_555 1_555
C16A H10A 1_555 1_555
C17A C16A 1_555 1_555
H11A C17A 1_555 1_555
C18A C18 1_555 1_555
C19A C18A 1_555 1_555
H12A C19A 1_555 1_555
C20A C19A 1_555 1_555
H13A C20A 1_555 1_555
O1A C7A 1_555 1_555
O2A Cd2A 1_555 1_555
H14A O2A 1_555 1_555
H15A O2A 1_555 1_555
O3A Cd2A 1_555 1_555
H16A O3A 1_555 1_555
H17A O3A 1_555 1_555
O4A Cd2A 1_555 1_555
O5A C8A 1_555 1_555
O5_2 Cd2 1_555 1_555
O5A_2 Cd2A 1_555 1_555
O6A Cd2A_3 1_555 1_555
O6_2 Cd2 1_555 1_555
O6A_2 Cd2A 1_555 1_555
O7A C5A 1_555 1_555
O8A Cd1 1_555 1_555
O9A Cd1 1_555 1_555
N1B C11B 1_555 1_555
N1A Cd1 1_555 1_555
N2A C16A 1_555 1_555
N2A_2 Cd2A 1_555 1_555
C5 C6 1_555 1_555
C7 O4 1_555 1_555
C9 O7 1_555 1_555
C10 O9 1_555 1_555
C11 N1 1_555 1_555
C15 N1 1_555 1_555
C16 N2 1_555 1_555
C20 N2 1_555 1_555
O6 Cd2_2 1_555 1_555
C5A C6A 1_555 1_555
C7A O4A 1_555 1_555
C8A O6A 1_555 1_555
C9A O7A 1_555 1_555
C10A O8A 1_555 1_555
C10A O9A 1_555 1_555
C12B C13B 1_555 1_555
C15B N1B 1_555 1_555
C17A C18A 1_555 1_555
C20A N2A 1_555 1_555

#END
