
#######################################################################
#
#                 Cambridge Crystallographic Data Centre
#                                CCDC 
#
#######################################################################
#
# If this CIF has been generated from an entry in the Cambridge 
# Structural Database, then it will include bibliographic, chemical, 
# crystal, experimental, refinement or atomic coordinate data resulting 
# from the CCDC's data processing and validation procedures.
#
#######################################################################

data_UZARIX
_symmetry_cell_setting           monoclinic
_symmetry_space_group_name_H-M   'C 2/c'
_symmetry_Int_Tables_number      15
_space_group_name_Hall           '-C 2yn'
loop_
_symmetry_equiv_pos_site_id
_symmetry_equiv_pos_as_xyz
1 x,y,z
2 -x,y,1/2-z
3 1/2+x,1/2+y,z
4 1/2-x,1/2+y,1/2-z
5 -x,-y,-z
6 x,-y,1/2+z
7 1/2-x,1/2-y,-z
8 1/2+x,1/2-y,1/2+z
_cell_length_a                   18.932(4)
_cell_length_b                   19.779(4)
_cell_length_c                   12.352(3)
_cell_angle_alpha                90
_cell_angle_beta                 112.03(3)
_cell_angle_gamma                90
_cell_volume                     4287.58
loop_
_atom_site_label
_atom_site_type_symbol
_atom_site_fract_x
_atom_site_fract_y
_atom_site_fract_z
Co1 Co 0.06214(2) 0.216245(19) 0.67162(3)
O1 O 0.10150(13) 0.28403(12) 0.8102(2)
C1 C 0.24685(14) 0.40785(13) 1.1022(2)
N1 N 0.12951(15) 0.27105(13) 0.5923(2)
C2 C 0.11984(14) 0.36429(14) 0.9618(2)
N2 N 0.02203(15) 0.14619(14) 0.5227(2)
C3 C 0.11585(17) 0.42434(15) 0.8810(2)
H1 H 0.1397 0.4121 0.8266
H2 H 0.0630 0.4356 0.8364
C4 C 0.20449(14) 0.34710(13) 1.0297(2)
H3 H 0.2083 0.3090 1.0809
H4 H 0.2280 0.3344 0.9751
C5 C 0.2008(2) 0.28874(17) 0.6544(3)
H5 H 0.2212 0.2782 0.7335
C6 C 0.24077(16) 0.46735(14) 1.0197(2)
H6 H 0.2644 0.4554 0.9649
H7 H 0.2674 0.5062 1.0643
C7 C 0.08022(16) 0.30315(14) 0.8899(2)
C8 C 0.15625(17) 0.48527(15) 0.9524(3)
H8 H 0.1527 0.5234 0.9001
C9 C 0.12543(17) 0.44585(16) 1.1206(3)
H9 H 0.1016 0.4586 1.1757
C10 C 0.20893(17) 0.42739(16) 1.1884(2)
H10 H 0.2120 0.3898 1.2404
H11 H 0.2354 0.4656 1.2354
C11 C 0.08451(16) 0.38385(16) 1.0504(3)
H12 H 0.0887 0.3463 1.1029
H13 H 0.0309 0.3940 1.0098
C12 C 0.1011(2) 0.28798(18) 0.4794(3)
H14 H 0.0508 0.2771 0.4349
C13 C -0.0523(2) 0.1391(2) 0.4592(3)
H15 H -0.0864 0.1697 0.4700
C14 C 0.0694(2) 0.10262(19) 0.5042(3)
H16 H 0.1212 0.1076 0.5473
C15 C 0.2462(2) 0.32228(19) 0.6062(4)
H17 H 0.2960 0.3339 0.6523
C16 C 0.12036(19) 0.50476(16) 1.0391(3)
H18 H 0.0674 0.5169 0.9976
H19 H 0.1466 0.5437 1.0842
C17 C -0.0803(3) 0.0879(2) 0.3782(3)
H20 H -0.1324 0.0837 0.3360
C18 C 0.1438(3) 0.3211(2) 0.4264(4)
H21 H 0.1225 0.3317 0.3474
C19 C -0.0298(3) 0.0433(2) 0.3612(4)
H22 H -0.0473 0.0085 0.3070
O2 O 0.02901(13) 0.27542(12) 0.91597(18)
O3 O 0.0000 0.15673(15) 0.7500
C20 C 0.0467(3) 0.0506(2) 0.4252(4)
H23 H 0.0821 0.0211 0.4152
C21 C 0.2166(3) 0.3381(2) 0.4904(4)
H24 H 0.2462 0.3601 0.4559
H25 H 0.0362(19) 0.1284(17) 0.793(3)
O4 O 0.34142(11) 0.34257(11) 1.24649(16)
O5 O 0.38039(12) 0.41393(12) 1.1424(2)
C22 C 0.32981(15) 0.38706(14) 1.1690(2)
Co1A Co -0.06214(2) 0.216245(19) 0.82838(3)
Co1F Co 0.43786(2) 0.283755(19) 1.32838(3)
Co1G Co -0.43786(2) 0.283755(19) 0.17162(3)
O1A O -0.10150(13) 0.28403(12) 0.6898(2)
C1A C -0.24685(14) 0.40785(13) 0.3978(2)
N1A N -0.12951(15) 0.27105(13) 0.9077(2)
C2A C -0.11984(14) 0.36429(14) 0.5382(2)
N2A N -0.02203(15) 0.14619(14) 0.9773(2)
C3A C -0.11585(17) 0.42434(15) 0.6190(2)
H1A H -0.1397 0.4121 0.6734
H2A H -0.0630 0.4356 0.6636
C4A C -0.20449(14) 0.34710(13) 0.4703(2)
H3A H -0.2083 0.3090 0.4191
H4A H -0.2280 0.3344 0.5249
C5A C -0.2008(2) 0.28874(17) 0.8456(3)
H5A H -0.2212 0.2782 0.7665
C6A C -0.24077(16) 0.46735(14) 0.4803(2)
H6A H -0.2644 0.4554 0.5351
H7A H -0.2674 0.5062 0.4357
C7A C -0.08022(16) 0.30315(14) 0.6101(2)
C8A C -0.15625(17) 0.48527(15) 0.5476(3)
H8A H -0.1527 0.5234 0.5999
C9A C -0.12543(17) 0.44585(16) 0.3794(3)
H9A H -0.1016 0.4586 0.3243
C10A C -0.20893(17) 0.42739(16) 0.3116(2)
H10A H -0.2120 0.3898 0.2596
H11A H -0.2354 0.4656 0.2646
C11A C -0.08451(16) 0.38385(16) 0.4496(3)
H12A H -0.0887 0.3463 0.3971
H13A H -0.0309 0.3940 0.4902
C12A C -0.1011(2) 0.28798(18) 1.0206(3)
H14A H -0.0508 0.2771 1.0651
C13A C 0.0523(2) 0.1391(2) 1.0408(3)
H15A H 0.0864 0.1697 1.0300
C14A C -0.0694(2) 0.10262(19) 0.9958(3)
H16A H -0.1212 0.1076 0.9527
C15A C -0.2462(2) 0.32228(19) 0.8938(4)
H17A H -0.2960 0.3339 0.8477
C16A C -0.12036(19) 0.50476(16) 0.4609(3)
H18A H -0.0674 0.5169 0.5024
H19A H -0.1466 0.5437 0.4158
C17A C 0.0803(3) 0.0879(2) 1.1218(3)
H20A H 0.1324 0.0837 1.1640
C18A C -0.1438(3) 0.3211(2) 1.0736(4)
H21A H -0.1225 0.3317 1.1526
C19A C 0.0298(3) 0.0433(2) 1.1388(4)
H22A H 0.0473 0.0085 1.1930
O2A O -0.02901(13) 0.27542(12) 0.58403(18)
C20A C -0.0467(3) 0.0506(2) 1.0748(4)
H23A H -0.0821 0.0211 1.0848
C21A C -0.2166(3) 0.3381(2) 1.0096(4)
H24A H -0.2462 0.3601 1.0441
H25A H -0.0362(19) 0.1284(17) 0.707(3)
O4A O -0.34142(11) 0.34257(11) 0.25351(16)
O4F O 0.15858(11) 0.15743(11) 0.75351(16)
O4G O -0.15858(11) 0.15743(11) 0.74649(16)
O5A O -0.38039(12) 0.41393(12) 0.3576(2)
C22A C -0.32981(15) 0.38706(14) 0.3310(2)
loop_
_geom_bond_atom_site_label_1
_geom_bond_atom_site_label_2
_geom_bond_site_symmetry_1
_geom_bond_site_symmetry_2
Co1 O1 1_555 1_555
O1 C7 1_555 1_555
C1 C4 1_555 1_555
N1 Co1 1_555 1_555
C2 C3 1_555 1_555
N2 Co1 1_555 1_555
C3 H1 1_555 1_555
H2 C3 1_555 1_555
C4 C2 1_555 1_555
H3 C4 1_555 1_555
H4 C4 1_555 1_555
C5 N1 1_555 1_555
H5 C5 1_555 1_555
C6 C1 1_555 1_555
H6 C6 1_555 1_555
H7 C6 1_555 1_555
C7 C2 1_555 1_555
C8 C3 1_555 1_555
H8 C8 1_555 1_555
C9 H9 1_555 1_555
C10 C1 1_555 1_555
H10 C10 1_555 1_555
H11 C10 1_555 1_555
C11 C2 1_555 1_555
H12 C11 1_555 1_555
H13 C11 1_555 1_555
C12 N1 1_555 1_555
H14 C12 1_555 1_555
C13 N2 1_555 1_555
H15 C13 1_555 1_555
C14 N2 1_555 1_555
H16 C14 1_555 1_555
C15 C5 1_555 1_555
H17 C15 1_555 1_555
C16 C8 1_555 1_555
H18 C16 1_555 1_555
H19 C16 1_555 1_555
C17 C13 1_555 1_555
H20 C17 1_555 1_555
C18 C12 1_555 1_555
H21 C18 1_555 1_555
C19 C17 1_555 1_555
H22 C19 1_555 1_555
O2 C7 1_555 1_555
O3 Co1 1_555 1_555
C20 C14 1_555 1_555
H23 C20 1_555 1_555
C21 C15 1_555 1_555
H24 C21 1_555 1_555
H25 O3 1_555 1_555
O4 C22 1_555 1_555
O5 C22 1_555 1_555
C22 C1 1_555 1_555
Co1A O2 1_555 1_555
Co1F O4 1_555 1_555
Co1G O4A 1_555 1_555
O1A Co1A 1_555 1_555
C1A C4A 1_555 1_555
N1A Co1A 1_555 1_555
C2A C3A 1_555 1_555
N2A Co1A 1_555 1_555
C3A H1A 1_555 1_555
H2A C3A 1_555 1_555
C4A C2A 1_555 1_555
H3A C4A 1_555 1_555
H4A C4A 1_555 1_555
C5A N1A 1_555 1_555
H5A C5A 1_555 1_555
C6A C1A 1_555 1_555
H6A C6A 1_555 1_555
H7A C6A 1_555 1_555
C7A O1A 1_555 1_555
C8A C3A 1_555 1_555
H8A C8A 1_555 1_555
C9A H9A 1_555 1_555
C10A C1A 1_555 1_555
H10A C10A 1_555 1_555
H11A C10A 1_555 1_555
C11A C2A 1_555 1_555
H12A C11A 1_555 1_555
H13A C11A 1_555 1_555
C12A N1A 1_555 1_555
H14A C12A 1_555 1_555
C13A N2A 1_555 1_555
H15A C13A 1_555 1_555
C14A N2A 1_555 1_555
H16A C14A 1_555 1_555
C15A C5A 1_555 1_555
H17A C15A 1_555 1_555
C16A C8A 1_555 1_555
H18A C16A 1_555 1_555
H19A C16A 1_555 1_555
C17A C13A 1_555 1_555
H20A C17A 1_555 1_555
C18A C12A 1_555 1_555
H21A C18A 1_555 1_555
C19A C17A 1_555 1_555
H22A C19A 1_555 1_555
O2A Co1 1_555 1_555
C20A C14A 1_555 1_555
H23A C20A 1_555 1_555
C21A C15A 1_555 1_555
H24A C21A 1_555 1_555
H25A O3 1_555 1_555
O4A C22A 1_555 1_555
O4F Co1 1_555 1_555
O4G Co1A 1_555 1_555
O5A C22A 1_555 1_555
C22A C1A 1_555 1_555
C6 C8 1_555 1_555
C9 C10 1_555 1_555
C9 C11 1_555 1_555
C9 C16 1_555 1_555
C18 C21 1_555 1_555
C19 C20 1_555 1_555
O3 Co1A 1_555 1_555
C2A C7A 1_555 1_555
C6A C8A 1_555 1_555
C7A O2A 1_555 1_555
C9A C10A 1_555 1_555
C9A C11A 1_555 1_555
C9A C16A 1_555 1_555
C18A C21A 1_555 1_555
C19A C20A 1_555 1_555

#END
