
#######################################################################
#
#                 Cambridge Crystallographic Data Centre
#                                CCDC 
#
#######################################################################
#
# If this CIF has been generated from an entry in the Cambridge 
# Structural Database, then it will include bibliographic, chemical, 
# crystal, experimental, refinement or atomic coordinate data resulting 
# from the CCDC's data processing and validation procedures.
#
#######################################################################

data_UZAROD
_symmetry_cell_setting           triclinic
_symmetry_space_group_name_H-M   'P -1'
_symmetry_Int_Tables_number      2
_space_group_name_Hall           '-P 1'
loop_
_symmetry_equiv_pos_site_id
_symmetry_equiv_pos_as_xyz
1 x,y,z
2 -x,-y,-z
_cell_length_a                   5.645(4)
_cell_length_b                   7.905(5)
_cell_length_c                   13.043(8)
_cell_angle_alpha                89.391(7)
_cell_angle_beta                 80.637(7)
_cell_angle_gamma                82.845(7)
_cell_volume                     569.774
loop_
_atom_site_label
_atom_site_type_symbol
_atom_site_fract_x
_atom_site_fract_y
_atom_site_fract_z
Na1 Na 0.59232(11) 0.73536(8) 0.83834(5)
S1 S 1.13633(7) 0.43406(5) 0.81839(3)
O1 O 0.9015(2) 0.51122(15) 0.87076(9)
O2 O 1.2187(2) 0.27683(15) 0.87047(9)
O3 O 1.3185(2) 0.54814(17) 0.80062(11)
O4 O 1.1618(2) 0.20160(18) 0.31784(9)
O5 O 0.7930(2) 0.14706(17) 0.39026(9)
H1 H 0.7827 0.1237 0.3302
O6 O 0.8185(2) 0.91670(16) 0.93039(9)
H2 H 0.7688 1.0180 0.9457
H3 H 0.8372 0.8603 0.9831
O7 O 0.3799(2) 0.73568(16) 1.01960(9)
H4 H 0.4977 0.7201 1.0510
H5 H 0.2882 0.6620 1.0360
O8 O 0.2605(2) 0.93914(14) 0.80047(9)
H6 H 0.1326 0.9160 0.8366
H7 H 0.2678 1.0430 0.8038
C1 C 1.0935(3) 0.36496(18) 0.69358(12)
C2 C 0.8923(3) 0.2850(2) 0.68397(12)
H8 H 0.7775 0.2699 0.7420
C3 C 0.8642(3) 0.2278(2) 0.58681(12)
H9 H 0.7300 0.1743 0.5798
C4 C 1.0360(3) 0.25030(19) 0.49989(12)
C5 C 1.2379(3) 0.3275(2) 0.51077(13)
H10 H 1.3548 0.3402 0.4531
C6 C 1.2662(3) 0.3860(2) 0.60745(13)
H11 H 1.4008 0.4391 0.6144
C7 C 1.0060(3) 0.1971(2) 0.39315(12)
Na1_2 Na 1.59232(11) 0.73536(8) 0.83834(5)
Na1A Na 1.40768(11) 0.26464(8) 0.16166(5)
O3_2 O 0.3185(2) 0.54814(17) 0.80062(11)
O4A O 0.8382(2) 0.79840(18) 0.68216(9)
loop_
_geom_bond_atom_site_label_1
_geom_bond_atom_site_label_2
_geom_bond_site_symmetry_1
_geom_bond_site_symmetry_2
Na1 O1 1_555 1_555
S1 O1 1_555 1_555
O2 S1 1_555 1_555
O3 S1 1_555 1_555
O4 C7 1_555 1_555
O5 H1 1_555 1_555
O6 Na1 1_555 1_555
H2 O6 1_555 1_555
H3 O6 1_555 1_555
O7 Na1 1_555 1_555
H4 O7 1_555 1_555
H5 O7 1_555 1_555
O8 Na1 1_555 1_555
H6 O8 1_555 1_555
H7 O8 1_555 1_555
C1 S1 1_555 1_555
C2 C1 1_555 1_555
H8 C2 1_555 1_555
C3 C2 1_555 1_555
H9 C3 1_555 1_555
C4 C3 1_555 1_555
C5 C4 1_555 1_555
H10 C5 1_555 1_555
C6 C1 1_555 1_555
H11 C6 1_555 1_555
C7 O5 1_555 1_555
Na1_2 O3 1_555 1_555
Na1A O4 1_555 1_555
O3_2 Na1 1_555 1_555
O4A Na1 1_555 1_555
C4 C7 1_555 1_555
C5 C6 1_555 1_555

#END
