
#######################################################################
#
#                 Cambridge Crystallographic Data Centre
#                                CCDC 
#
#######################################################################
#
# If this CIF has been generated from an entry in the Cambridge 
# Structural Database, then it will include bibliographic, chemical, 
# crystal, experimental, refinement or atomic coordinate data resulting 
# from the CCDC's data processing and validation procedures.
#
#######################################################################

data_UZASEU
_symmetry_cell_setting           tetragonal
_symmetry_space_group_name_H-M   'I -4'
_symmetry_Int_Tables_number      82
_space_group_name_Hall           'I -4'
loop_
_symmetry_equiv_pos_site_id
_symmetry_equiv_pos_as_xyz
1 x,y,z
2 y,-x,-z
3 -y,x,-z
4 -x,-y,z
5 1/2+x,1/2+y,1/2+z
6 1/2+y,1/2-x,1/2-z
7 1/2-y,1/2+x,1/2-z
8 1/2-x,1/2-y,1/2+z
_cell_length_a                   19.1171(10)
_cell_length_b                   19.1171(10)
_cell_length_c                   12.5158(6)
_cell_angle_alpha                90
_cell_angle_beta                 90
_cell_angle_gamma                90
_cell_volume                     4574.07
loop_
_atom_site_label
_atom_site_type_symbol
_atom_site_fract_x
_atom_site_fract_y
_atom_site_fract_z
Sn1 Sn 0.231966(12) 0.278902(11) 0.076623(16)
C1 C 0.34115(19) 0.19952(19) -0.0695(3)
C2 C 0.38840(18) 0.18907(18) 0.1009(3)
C3 C 0.4966(2) 0.1257(3) 0.1322(4)
H1 H 0.5341 0.0995 0.1070
C4 C 0.3837(2) 0.2018(2) 0.2113(3)
H2 H 0.3459 0.2266 0.2387
C5 C 0.4488(2) 0.1394(3) -0.0504(3)
H3 H 0.4862 0.1150 -0.0799
C6 C 0.4342(2) 0.1780(2) 0.2779(3)
H4 H 0.4311 0.1871 0.3508
C7 C 0.4909(2) 0.1399(2) 0.2384(4)
H5 H 0.5252 0.1240 0.2852
C8 C 0.3973(2) 0.1638(3) -0.1144(3)
H6 H 0.3995 0.1569 -0.1879
C9 C 0.44591(19) 0.1507(2) 0.0609(3)
O1 O 0.23490(14) 0.26364(13) -0.09068(16)
C10 C 0.1269(3) 0.1322(3) -0.0402(5)
H7 H 0.0913 0.1651 -0.0334
C11 C 0.1810(2) 0.1305(2) 0.0349(3)
C12 C 0.2989(2) 0.3678(2) 0.0953(3)
H8 H 0.2714 0.4066 0.1222
H9 H 0.3342 0.3570 0.1485
C13 C 0.33421(19) 0.39003(19) -0.0037(3)
C14 C 0.2804(2) 0.2250(2) -0.1352(2)
O2 O 0.27802(18) 0.20539(17) -0.22874(19)
N1 N 0.33721(15) 0.21355(15) 0.0346(2)
Cl1 Cl 0.12338(6) 0.34687(6) 0.05668(8)
C15 C 0.1852(3) 0.1815(2) 0.1224(4)
H10 H 0.2121 0.1613 0.1804
H11 H 0.1383 0.1905 0.1489
C16 C 0.2313(2) 0.0803(2) 0.0193(4)
H12 H 0.2675 0.0771 0.0685
C17 C 0.1780(4) 0.0384(3) -0.1361(6)
H13 H 0.1776 0.0080 -0.1942
C18 C 0.2307(3) 0.0346(3) -0.0654(6)
H14 H 0.2662 0.0017 -0.0736
C19 C 0.1258(4) 0.0849(4) -0.1252(6)
H15 H 0.0892 0.0855 -0.1740
C20 C 0.2989(2) 0.42473(19) -0.0849(4)
H16 H 0.2513 0.4333 -0.0772
C21 C 0.3319(3) 0.4468(2) -0.1760(4)
H17 H 0.3064 0.4697 -0.2287
C22 C 0.4379(3) 0.4019(3) -0.1118(5)
H18 H 0.4856 0.3942 -0.1205
C23 C 0.4009(3) 0.4356(3) -0.1901(4)
H19 H 0.4231 0.4506 -0.2521
C24 C 0.4048(2) 0.3790(3) -0.0199(4)
H20 H 0.4307 0.3558 0.0321
Sn1G Sn 0.268034(12) 0.221098(11) -0.423377(16)
O2G O 0.22198(18) 0.29461(17) 0.27126(19)
loop_
_geom_bond_atom_site_label_1
_geom_bond_atom_site_label_2
_geom_bond_site_symmetry_1
_geom_bond_site_symmetry_2
Sn1 O1 1_555 1_555
C1 C8 1_555 1_555
C2 C4 1_555 1_555
C3 H1 1_555 1_555
C4 H2 1_555 1_555
C5 H3 1_555 1_555
C6 C4 1_555 1_555
H4 C6 1_555 1_555
C7 C3 1_555 1_555
H5 C7 1_555 1_555
C8 C5 1_555 1_555
H6 C8 1_555 1_555
C9 C2 1_555 1_555
O1 C14 1_555 1_555
C10 H7 1_555 1_555
C11 C10 1_555 1_555
C12 Sn1 1_555 1_555
H8 C12 1_555 1_555
H9 C12 1_555 1_555
C13 C12 1_555 1_555
C14 C1 1_555 1_555
O2 C14 1_555 1_555
N1 Sn1 1_555 1_555
Cl1 Sn1 1_555 1_555
C15 Sn1 1_555 1_555
H10 C15 1_555 1_555
H11 C15 1_555 1_555
C16 C11 1_555 1_555
H12 C16 1_555 1_555
C17 H13 1_555 1_555
C18 C16 1_555 1_555
H14 C18 1_555 1_555
C19 C10 1_555 1_555
H15 C19 1_555 1_555
C20 C13 1_555 1_555
H16 C20 1_555 1_555
C21 C20 1_555 1_555
H17 C21 1_555 1_555
C22 H18 1_555 1_555
C23 C21 1_555 1_555
H19 C23 1_555 1_555
C24 C13 1_555 1_555
H20 C24 1_555 1_555
Sn1G O2 1_555 1_555
O2G Sn1 1_555 1_555
C1 N1 1_555 1_555
C2 N1 1_555 1_555
C3 C9 1_555 1_555
C5 C9 1_555 1_555
C6 C7 1_555 1_555
C11 C15 1_555 1_555
C17 C18 1_555 1_555
C17 C19 1_555 1_555
C22 C23 1_555 1_555
C22 C24 1_555 1_555

#END
