
#######################################################################
#
#                 Cambridge Crystallographic Data Centre
#                                CCDC 
#
#######################################################################
#
# If this CIF has been generated from an entry in the Cambridge 
# Structural Database, then it will include bibliographic, chemical, 
# crystal, experimental, refinement or atomic coordinate data resulting 
# from the CCDC's data processing and validation procedures.
#
#######################################################################

data_UZATAR
_symmetry_cell_setting           triclinic
_symmetry_space_group_name_H-M   'P -1'
_symmetry_Int_Tables_number      2
_space_group_name_Hall           '-P 1'
loop_
_symmetry_equiv_pos_site_id
_symmetry_equiv_pos_as_xyz
1 x,y,z
2 -x,-y,-z
_cell_length_a                   9.6762(8)
_cell_length_b                   10.9949(9)
_cell_length_c                   11.4960(10)
_cell_angle_alpha                104.9310(10)
_cell_angle_beta                 90.7850(10)
_cell_angle_gamma                114.2470(10)
_cell_volume                     1067.54
loop_
_atom_site_label
_atom_site_type_symbol
_atom_site_fract_x
_atom_site_fract_y
_atom_site_fract_z
C1 C -0.2281(8) 0.0020(8) -0.1011(7)
C2 C -0.3641(8) 0.0062(8) -0.0457(7)
C3 C -0.5031(8) -0.1089(8) -0.0929(7)
H1 H -0.5053 -0.1830 -0.1554
C4 C -0.3605(8) 0.1165(8) 0.0491(7)
C5 C 0.2409(8) 0.2459(7) 0.0090(7)
C6 C 0.3727(8) 0.3799(7) 0.0050(7)
C7 C 0.4937(9) 0.3699(8) -0.0550(7)
H2 H 0.4881 0.2821 -0.0930
C8 C -0.2173(8) 0.2492(8) 0.1074(7)
C9 C 0.2923(9) 0.6163(9) 0.6011(7)
C10 C 0.3452(8) 0.4360(7) 0.4488(7)
C11 C 0.5540(8) 0.6228(8) 0.5936(7)
H3 H 0.5911 0.7066 0.6553
C12 C 0.4006(8) 0.5590(8) 0.5457(7)
C13 C 0.1860(9) 0.3691(8) 0.3863(7)
C14 C 0.2499(9) 0.5309(8) 0.1173(7)
C15 C 0.3782(8) 0.5132(8) 0.0597(7)
Er1 Er -0.01754(3) 0.07558(3) 0.17047(3)
Er2 Er 0.00674(4) 0.50751(3) 0.24678(3)
O1 O 0.2752(7) 0.6239(6) 0.2156(6)
O2 O 0.1130(6) 0.4518(6) 0.0686(5)
O3 O -0.0256(8) 0.6685(6) 0.1693(5)
H4 H -0.0953 0.6419 0.1104
H5 H 0.0323 0.7547 0.1996
O4 O 0.1032(8) 0.7158(6) 0.4130(6)
H6 H 0.0456 0.7295 0.4650
H7 H 0.1951 0.7761 0.4202
O5 O 0.1805(7) 0.5328(7) 0.6373(6)
O6 O -0.2176(6) 0.3614(5) 0.1025(5)
O7 O -0.1063(6) 0.2488(5) 0.1670(5)
O8 O 0.1313(7) 0.4505(6) 0.3713(5)
O9 O 0.1151(6) 0.2388(5) 0.3532(5)
O10 O -0.2266(7) 0.0543(6) 0.2839(6)
H8 H -0.2506 0.0001 0.3287
H9 H -0.2771 0.1008 0.2794
O11 O -0.0174(8) -0.0678(7) 0.3027(6)
H10 H 0.0467 -0.1028 0.2981
H11 H -0.0815 -0.0823 0.3532
O12 O 0.1862(6) 0.2414(5) 0.1059(5)
O13 O 0.2051(6) 0.1478(5) -0.0872(5)
O14 O -0.2411(6) -0.0577(6) -0.2106(5)
O15 O -0.0980(6) 0.0536(5) -0.0335(5)
O18 O 0.3211(8) 0.7397(7) 0.6117(7)
C1A C -0.7719(8) -0.0020(8) 0.1011(7)
C2A C -0.6359(8) -0.0062(8) 0.0457(7)
C3A C -0.4969(8) 0.1089(8) 0.0929(7)
H1A H -0.4947 0.1830 0.1554
C4A C -0.6395(8) -0.1165(8) -0.0491(7)
C5A C 0.7591(8) 0.7541(7) -0.0090(7)
C6A C 0.6273(8) 0.6201(7) -0.0050(7)
C7A C 0.5063(9) 0.6301(8) 0.0550(7)
H2A H 0.5119 0.7179 0.0930
C8A C -0.7827(8) -0.2492(8) -0.1074(7)
C9A C 0.7077(9) 0.3837(9) 0.3989(7)
C10A C 0.6548(8) 0.5640(7) 0.5512(7)
C11A C 0.4460(8) 0.3772(8) 0.4064(7)
H3A H 0.4089 0.2934 0.3447
C12A C 0.5994(8) 0.4410(8) 0.4543(7)
C13A C 0.8140(9) 0.6309(8) 0.6137(7)
C14A C 0.7501(9) 0.4691(8) -0.1173(7)
C15A C 0.6218(8) 0.4868(8) -0.0597(7)
Er1A Er 1.01754(3) 0.92442(3) 0.82953(3)
Er1A_2 Er 0.01754(3) -0.07558(3) -0.17047(3)
Er1_2 Er -1.01754(3) 0.07558(3) 0.17047(3)
Er1A_3 Er -0.98246(3) -0.07558(3) -0.17047(3)
Er1A_4 Er 1.01754(3) 0.92442(3) -0.17047(3)
Er1_3 Er 0.98246(3) 1.07558(3) 0.17047(3)
Er2A Er 0.99326(4) 0.49249(3) -0.24678(3)
Er2A_2 Er -0.00674(4) 0.49249(3) 0.75322(3)
Er2A_3 Er -1.00674(4) -0.50751(3) -0.24678(3)
Er2_2 Er 1.00674(4) 0.50751(3) 0.24678(3)
Er2A_4 Er 0.99326(4) 0.49249(3) 0.75322(3)
O1A O 0.7248(7) 0.3761(6) -0.2156(6)
O2A O 0.8870(6) 0.5482(6) -0.0686(5)
O3A O 1.0256(8) 0.3315(6) -0.1693(5)
H4A H 1.0953 0.3581 -0.1104
H5A H 0.9677 0.2453 -0.1996
O4A O 0.8968(8) 0.2842(6) -0.4130(6)
H6A H 0.9544 0.2705 -0.4650
H7A H 0.8049 0.2239 -0.4202
O5A O 0.8195(7) 0.4672(7) 0.3627(6)
O5A_2 O -0.1805(7) 0.4672(7) 0.3627(6)
O5_2 O 1.1805(7) 0.5328(7) -0.3627(6)
O6A O -0.7824(6) -0.3614(5) -0.1025(5)
O6A_2 O 1.2176(6) 0.6386(5) -0.1025(5)
O7A O -0.8937(6) -0.2488(5) -0.1670(5)
O7A_2 O 1.1063(6) 0.7512(5) 0.8330(5)
O7A_3 O 1.1063(6) 0.7512(5) -0.1670(5)
O8A O 0.8687(7) 0.5495(6) 0.6287(5)
O8A_2 O 0.8687(7) 0.5495(6) -0.3713(5)
O9A O 0.8849(6) 0.7612(5) 0.6468(5)
O10A O 1.2266(7) 0.9457(6) 0.7161(6)
H8A H 1.2506 0.9999 0.6713
H9A H 1.2771 0.8992 0.7206
O11A O 1.0174(8) 1.0678(7) 0.6973(6)
H10A H 0.9533 1.1028 0.7019
H11A H 1.0815 1.0823 0.6468
O12A O 0.8138(6) 0.7586(5) -0.1059(5)
O12A_2 O 0.8138(6) 0.7586(5) 0.8941(5)
O13A O 0.7949(6) 0.8522(5) 0.0872(5)
O13A_2 O -0.2051(6) -0.1478(5) 0.0872(5)
O13_2 O 1.2051(6) 1.1478(5) 0.9128(5)
O14A O -0.7589(6) 0.0577(6) 0.2106(5)
O14A_2 O 0.2411(6) 0.0577(6) 0.2106(5)
O14_2 O 0.7589(6) 0.9423(6) 0.7894(5)
O15A O -0.9020(6) -0.0536(5) 0.0335(5)
O15A_2 O 0.0980(6) -0.0536(5) 0.0335(5)
O15A_3 O 1.0980(6) 0.9464(5) 1.0335(5)
O15_2 O 0.9020(6) 1.0536(5) 0.9665(5)
O18A O 0.6789(8) 0.2603(7) 0.3883(7)
O16 O 0.5352(17) 0.8433(14) 0.3512(13)
H12 H 0.6294 0.8675 0.3439
H13 H 0.5031 0.9050 0.3788
O17 O 0.8010(16) 0.8872(17) 0.4826(15)
H14 H 0.8903 0.8926 0.4744
H15 H 0.7894 0.9591 0.5205
loop_
_geom_bond_atom_site_label_1
_geom_bond_atom_site_label_2
_geom_bond_site_symmetry_1
_geom_bond_site_symmetry_2
C1 C2 1_555 1_555
C2 C3 1_555 1_555
C3 H1 1_555 1_555
C4 C2 1_555 1_555
C5 C6 1_555 1_555
C6 C7 1_555 1_555
C7 H2 1_555 1_555
C8 C4 1_555 1_555
C9 C12 1_555 1_555
C10 C12 1_555 1_555
C11 H3 1_555 1_555
C12 C11 1_555 1_555
C13 C10 1_555 1_555
C14 C15 1_555 1_555
C15 C6 1_555 1_555
Er1 O7 1_555 1_555
Er2 O1 1_555 1_555
O1 C14 1_555 1_555
O2 C14 1_555 1_555
O3 Er2 1_555 1_555
H4 O3 1_555 1_555
H5 O3 1_555 1_555
O4 Er2 1_555 1_555
H6 O4 1_555 1_555
H7 O4 1_555 1_555
O5 C9 1_555 1_555
O6 C8 1_555 1_555
O7 C8 1_555 1_555
O8 C13 1_555 1_555
O9 C13 1_555 1_555
O10 Er1 1_555 1_555
H8 O10 1_555 1_555
H9 O10 1_555 1_555
O11 Er1 1_555 1_555
H10 O11 1_555 1_555
H11 O11 1_555 1_555
O12 C5 1_555 1_555
O13 C5 1_555 1_555
O14 C1 1_555 1_555
O15 C1 1_555 1_555
O16 H12 1_555 1_555
H13 O16 1_555 1_555
O17 H14 1_555 1_555
H15 O17 1_555 1_555
O18 C9 1_555 1_555
C1A C2A 1_555 1_555
C2A C3A 1_555 1_555
C3A C4 1_555 1_555
H1A C3A 1_555 1_555
C4A C3 1_555 1_555
C5A C6A 1_555 1_555
C6A C7A 1_555 1_555
C7A C15 1_555 1_555
H2A C7A 1_555 1_555
C8A C4A 1_555 1_555
C9A C12A 1_555 1_555
C10A C11 1_555 1_555
C11A C10 1_555 1_555
H3A C11A 1_555 1_555
C12A C10A 1_555 1_555
C13A C10A 1_555 1_555
C14A C15A 1_555 1_555
C15A C7 1_555 1_555
Er1A O7A_2 1_555 1_555
Er1A_2 O13 1_555 1_555
Er1_2 O14A 1_555 1_555
Er1A_3 O7A 1_555 1_555
Er1A_4 O7A_3 1_555 1_555
Er1_3 O13A 1_555 1_555
Er2A O1A 1_555 1_555
Er2A_2 O5 1_555 1_555
Er2A_3 O6A 1_555 1_555
Er2_2 O5A 1_555 1_555
Er2A_4 O7A_2 1_555 1_555
O1A C14A 1_555 1_555
O2A C14A 1_555 1_555
O3A Er2A 1_555 1_555
H4A O3A 1_555 1_555
H5A O3A 1_555 1_555
O4A Er2A 1_555 1_555
H6A O4A 1_555 1_555
H7A O4A 1_555 1_555
O5A C9A 1_555 1_555
O5A_2 Er2 1_555 1_555
O5_2 Er2A 1_555 1_555
O6A C8A 1_555 1_555
O6A_2 Er2A 1_555 1_555
O7A C8A 1_555 1_555
O7A_3 Er2A 1_555 1_555
O8A C13A 1_555 1_555
O8A_2 Er2A 1_555 1_555
O9A C13A 1_555 1_555
O10A Er1A 1_555 1_555
H8A O10A 1_555 1_555
H9A O10A 1_555 1_555
O11A Er1A 1_555 1_555
H10A O11A 1_555 1_555
H11A O11A 1_555 1_555
O12A C5A 1_555 1_555
O12A_2 Er1A 1_555 1_555
O13A C5A 1_555 1_555
O13A_2 Er1 1_555 1_555
O13_2 Er1A 1_555 1_555
O14A C1A 1_555 1_555
O14A_2 Er1 1_555 1_555
O14_2 Er1A 1_555 1_555
O15A C1A 1_555 1_555
O15A_2 Er1 1_555 1_555
O15A_3 Er1A 1_555 1_555
O15_2 Er1A 1_555 1_555
O18A C9A 1_555 1_555
Er1 O9 1_555 1_555
Er1 O12 1_555 1_555
Er1 O15 1_555 1_555
Er2 O2 1_555 1_555
Er2 O6 1_555 1_555
Er2 O7 1_555 1_555
Er2 O8 1_555 1_555
O14 Er1A_2 1_555 1_555
O15 Er1A_2 1_555 1_555
C2A C4A 1_555 1_555
C6A C15A 1_555 1_555
C11A C12A 1_555 1_555
Er1A O9A 1_555 1_555
Er1A_2 O15A_2 1_555 1_555
Er1_2 O15A 1_555 1_555
Er1A_3 O15A 1_555 1_555
Er1A_4 O12A 1_555 1_555
Er2A O2A 1_555 1_555
Er2A_3 O7A 1_555 1_555
Er2A_4 O8A 1_555 1_555

#END
