
#######################################################################
#
#                 Cambridge Crystallographic Data Centre
#                                CCDC 
#
#######################################################################
#
# If this CIF has been generated from an entry in the Cambridge 
# Structural Database, then it will include bibliographic, chemical, 
# crystal, experimental, refinement or atomic coordinate data resulting 
# from the CCDC's data processing and validation procedures.
#
#######################################################################

data_UZAVIB
_symmetry_cell_setting           monoclinic
_symmetry_space_group_name_H-M   'C 2/c'
_symmetry_Int_Tables_number      15
_space_group_name_Hall           '-C 2yn'
loop_
_symmetry_equiv_pos_site_id
_symmetry_equiv_pos_as_xyz
1 x,y,z
2 -x,y,1/2-z
3 1/2+x,1/2+y,z
4 1/2-x,1/2+y,1/2-z
5 -x,-y,-z
6 x,-y,1/2+z
7 1/2-x,1/2-y,-z
8 1/2+x,1/2-y,1/2+z
_cell_length_a                   8.4057(17)
_cell_length_b                   17.575(4)
_cell_length_c                   28.734(6)
_cell_angle_alpha                90
_cell_angle_beta                 92.54(3)
_cell_angle_gamma                90
_cell_volume                     4240.71
loop_
_atom_site_label
_atom_site_type_symbol
_atom_site_fract_x
_atom_site_fract_y
_atom_site_fract_z
Mn1 Mn 0.62040(3) 0.231380(13) 0.343230(8)
S1 S 1.02264(5) 0.26526(2) 0.376269(15)
O1 O 0.86417(14) 0.23154(6) 0.37118(5)
O2 O 0.69714(14) 0.17126(7) 0.27957(4)
O3 O 0.38865(17) 0.22088(11) 0.30900(5)
O4 O 1.12248(18) 0.22428(8) 0.40971(6)
O5 O 1.09368(17) 0.27439(8) 0.33125(5)
O7 O 0.87750(17) 0.31012(7) 0.46418(4)
O9 O 1.08827(15) 0.62510(6) 0.37831(4)
O10 O 1.1144(2) 0.54755(8) 0.31771(5)
N1 N 0.51809(17) 0.30626(9) 0.39793(5)
N2 N 0.6521(2) 0.35152(8) 0.31761(5)
C1 C 0.4535(2) 0.28354(14) 0.43671(7)
H1 H 0.4463 0.2316 0.4426
C2 C 0.3957(3) 0.3347(2) 0.46928(8)
H2 H 0.3522 0.3170 0.4965
C3 C 0.4041(3) 0.41015(19) 0.46049(9)
H3 H 0.3644 0.4446 0.4816
C4 C 0.4719(3) 0.43697(14) 0.41997(9)
C5 C 0.4889(4) 0.51572(16) 0.40832(13)
H4 H 0.4512 0.5524 0.4284
C6 C 0.5576(4) 0.53816(15) 0.36939(14)
H5 H 0.5675 0.5899 0.3632
C7 C 0.6158(3) 0.48407(13) 0.33718(10)
C8 C 0.6890(4) 0.50409(15) 0.29639(12)
H6 H 0.7029 0.5552 0.2891
C9 C 0.7403(4) 0.44947(16) 0.26717(11)
H7 H 0.7884 0.4626 0.2398
C10 C 0.7194(3) 0.37345(13) 0.27903(8)
H8 H 0.7543 0.3362 0.2589
C11 C 0.6002(2) 0.40589(11) 0.34702(7)
C12 C 0.5286(2) 0.38173(11) 0.38899(7)
C13 C 0.99603(19) 0.35901(8) 0.39717(5)
C14 C 0.9237(2) 0.37075(9) 0.43949(5)
C15 C 0.9013(2) 0.44509(10) 0.45487(6)
H9 H 0.8516 0.4537 0.4827
C16 C 0.9524(2) 0.50596(9) 0.42910(6)
H10 H 0.9374 0.5552 0.4398
C17 C 1.0262(2) 0.49456(9) 0.38722(6)
C18 C 1.0458(2) 0.42045(9) 0.37144(6)
H11 H 1.0931 0.4121 0.3432
C19 C 1.0803(2) 0.56018(9) 0.35873(6)
H14 H 0.673(2) 0.1278(8) 0.2904(7)
H15 H 0.7963(12) 0.1722(12) 0.2754(7)
H16 H 0.833(2) 0.3266(13) 0.4878(5)
H17 H 0.3041(17) 0.2348(12) 0.3210(6)
H18 H 0.371(2) 0.2033(12) 0.2822(4)
Mn1B Mn 0.12040(3) -0.268620(13) 0.343230(8)
Mn1B_2 Mn 1.12040(3) 0.731380(13) 0.343230(8)
S1B S 0.52264(5) -0.23474(2) 0.376269(15)
O1B O 0.36417(14) -0.26846(6) 0.37118(5)
O2B O 0.19714(14) -0.32874(7) 0.27957(4)
O3B O -0.11135(17) -0.27912(11) 0.30900(5)
O4B O 0.62248(18) -0.27572(8) 0.40971(6)
O5B O 0.59368(17) -0.22561(8) 0.33125(5)
O7B O 0.37750(17) -0.18988(7) 0.46418(4)
O9B O 0.58827(15) 0.12510(6) 0.37831(4)
O9_2 O 0.08827(15) -0.37490(6) 0.37831(4)
O10B O 0.6144(2) 0.04755(8) 0.31771(5)
N1B N 0.01809(17) -0.19374(9) 0.39793(5)
N2B N 0.1521(2) -0.14848(8) 0.31761(5)
C1B C -0.0465(2) -0.21646(14) 0.43671(7)
H1B H -0.0537 -0.2684 0.4426
C2B C -0.1043(3) -0.1653(2) 0.46928(8)
H2B H -0.1478 -0.1830 0.4965
C3B C -0.0959(3) -0.08985(19) 0.46049(9)
H3B H -0.1356 -0.0554 0.4816
C4B C -0.0281(3) -0.06303(14) 0.41997(9)
C5B C -0.0111(4) 0.01572(16) 0.40832(13)
H4B H -0.0488 0.0524 0.4284
C6B C 0.0576(4) 0.03816(15) 0.36939(14)
H5B H 0.0675 0.0899 0.3632
C7B C 0.1158(3) -0.01593(13) 0.33718(10)
C8B C 0.1890(4) 0.00409(15) 0.29639(12)
H6B H 0.2029 0.0552 0.2891
C9B C 0.2403(4) -0.05053(16) 0.26717(11)
H7B H 0.2884 -0.0374 0.2398
C10B C 0.2194(3) -0.12655(13) 0.27903(8)
H8B H 0.2543 -0.1638 0.2589
C11B C 0.1002(2) -0.09411(11) 0.34702(7)
C12B C 0.0286(2) -0.11827(11) 0.38899(7)
C13B C 0.49603(19) -0.14099(8) 0.39717(5)
C14B C 0.4237(2) -0.12925(9) 0.43949(5)
C15B C 0.4013(2) -0.05491(10) 0.45487(6)
H9B H 0.3516 -0.0463 0.4827
C16B C 0.4524(2) 0.00596(9) 0.42910(6)
H10B H 0.4374 0.0552 0.4398
C17B C 0.5262(2) -0.00544(9) 0.38722(6)
C18B C 0.5458(2) -0.07955(9) 0.37144(6)
H11B H 0.5931 -0.0879 0.3432
C19B C 0.5803(2) 0.06018(9) 0.35873(6)
H14B H 0.173(2) -0.3722(8) 0.2904(7)
H15B H 0.2963(12) -0.3278(12) 0.2754(7)
H16B H 0.333(2) -0.1734(13) 0.4878(5)
H17B H -0.1959(17) -0.2652(12) 0.3210(6)
H18B H -0.129(2) -0.2967(12) 0.2822(4)
O6 O 1.0000 0.20094(13) 0.2500
H13 H 1.026(3) 0.2327(10) 0.2714(6)
H13A H 0.974(3) 0.2327(10) 0.2286(6)
O8 O 0.73340(18) 0.34826(8) 0.53965(4)
H12 H 0.792(2) 0.3591(12) 0.5638(5)
H19 H 0.670(2) 0.3132(10) 0.5471(7)
loop_
_geom_bond_atom_site_label_1
_geom_bond_atom_site_label_2
_geom_bond_site_symmetry_1
_geom_bond_site_symmetry_2
Mn1 O1 1_555 1_555
S1 O1 1_555 1_555
O2 Mn1 1_555 1_555
O3 Mn1 1_555 1_555
O4 S1 1_555 1_555
O5 S1 1_555 1_555
O6 H13 1_555 1_555
O7 C14 1_555 1_555
O8 H12 1_555 1_555
O9 C19 1_555 1_555
O10 C19 1_555 1_555
N1 Mn1 1_555 1_555
N2 Mn1 1_555 1_555
C1 N1 1_555 1_555
H1 C1 1_555 1_555
C2 C1 1_555 1_555
H2 C2 1_555 1_555
C3 C2 1_555 1_555
H3 C3 1_555 1_555
C4 C3 1_555 1_555
C5 C4 1_555 1_555
H4 C5 1_555 1_555
C6 C5 1_555 1_555
H5 C6 1_555 1_555
C7 C6 1_555 1_555
C8 C7 1_555 1_555
H6 C8 1_555 1_555
C9 C8 1_555 1_555
H7 C9 1_555 1_555
C10 N2 1_555 1_555
H8 C10 1_555 1_555
C11 N2 1_555 1_555
C12 N1 1_555 1_555
C13 S1 1_555 1_555
C14 C13 1_555 1_555
C15 C14 1_555 1_555
H9 C15 1_555 1_555
C16 C15 1_555 1_555
H10 C16 1_555 1_555
C17 C16 1_555 1_555
C18 C13 1_555 1_555
H11 C18 1_555 1_555
C19 C17 1_555 1_555
H14 O2 1_555 1_555
H15 O2 1_555 1_555
H16 O7 1_555 1_555
H17 O3 1_555 1_555
H18 O3 1_555 1_555
H19 O8 1_555 1_555
Mn1B O1B 1_555 1_555
Mn1B_2 O9 1_555 1_555
S1B O1B 1_555 1_555
O2B Mn1B 1_555 1_555
O3B Mn1B 1_555 1_555
O4B S1B 1_555 1_555
O5B S1B 1_555 1_555
O7B C14B 1_555 1_555
O9B Mn1 1_555 1_555
O9_2 Mn1B 1_555 1_555
O10B C19B 1_555 1_555
N1B Mn1B 1_555 1_555
N2B Mn1B 1_555 1_555
C1B N1B 1_555 1_555
H1B C1B 1_555 1_555
C2B C1B 1_555 1_555
H2B C2B 1_555 1_555
C3B C2B 1_555 1_555
H3B C3B 1_555 1_555
C4B C3B 1_555 1_555
C5B C4B 1_555 1_555
H4B C5B 1_555 1_555
C6B C5B 1_555 1_555
H5B C6B 1_555 1_555
C7B C6B 1_555 1_555
C8B C7B 1_555 1_555
H6B C8B 1_555 1_555
C9B C8B 1_555 1_555
H7B C9B 1_555 1_555
C10B N2B 1_555 1_555
H8B C10B 1_555 1_555
C11B N2B 1_555 1_555
C12B N1B 1_555 1_555
C13B S1B 1_555 1_555
C14B C13B 1_555 1_555
C15B C14B 1_555 1_555
H9B C15B 1_555 1_555
C16B C15B 1_555 1_555
H10B C16B 1_555 1_555
C17B C16B 1_555 1_555
C18B C13B 1_555 1_555
H11B C18B 1_555 1_555
C19B O9B 1_555 1_555
H13A O6 1_555 1_555
H14B O2B 1_555 1_555
H15B O2B 1_555 1_555
H16B O7B 1_555 1_555
H17B O3B 1_555 1_555
H18B O3B 1_555 1_555
C4 C12 1_555 1_555
C7 C11 1_555 1_555
C9 C10 1_555 1_555
C11 C12 1_555 1_555
C17 C18 1_555 1_555
C4B C12B 1_555 1_555
C7B C11B 1_555 1_555
C9B C10B 1_555 1_555
C11B C12B 1_555 1_555
C17B C18B 1_555 1_555
C17B C19B 1_555 1_555

#END
