
#######################################################################
#
#                 Cambridge Crystallographic Data Centre
#                                CCDC 
#
#######################################################################
#
# If this CIF has been generated from an entry in the Cambridge 
# Structural Database, then it will include bibliographic, chemical, 
# crystal, experimental, refinement or atomic coordinate data resulting 
# from the CCDC's data processing and validation procedures.
#
#######################################################################

data_UZAWAU
_symmetry_cell_setting           monoclinic
_symmetry_space_group_name_H-M   'P 21/c'
_symmetry_Int_Tables_number      14
_space_group_name_Hall           '-P 2ybc'
loop_
_symmetry_equiv_pos_site_id
_symmetry_equiv_pos_as_xyz
1 x,y,z
2 -x,1/2+y,1/2-z
3 -x,-y,-z
4 x,1/2-y,1/2+z
_cell_length_a                   12.446(3)
_cell_length_b                   11.120(2)
_cell_length_c                   15.008(3)
_cell_angle_alpha                90
_cell_angle_beta                 100.119(4)
_cell_angle_gamma                90
_cell_volume                     2044.79
loop_
_atom_site_label
_atom_site_type_symbol
_atom_site_fract_x
_atom_site_fract_y
_atom_site_fract_z
Zn1 Zn 0.90300(7) 0.31961(6) 0.20011(5)
Zn2 Zn 0.78330(7) 0.58763(7) 0.48277(5)
O1 O 0.8487(4) 0.3211(4) 0.3287(3)
N1 N 0.7555(5) 0.3182(5) 0.1239(4)
N2 N 0.9556(4) 0.4790(4) 0.2472(3)
O2 O 0.8407(4) 0.4374(4) 0.4469(3)
C1 C 0.9256(5) 0.5115(5) 0.3282(4)
C2 C 0.8680(6) 0.4175(6) 0.3708(4)
N3 N 0.6244(5) 0.2782(5) 0.0110(4)
C3 C 0.7306(6) 0.2727(6) 0.0429(5)
H1 H 0.7815 0.2402 0.0111
C4 C 0.5759(7) 0.3332(8) 0.0756(5)
H2 H 0.5022 0.3505 0.0724
C5 C 0.5679(7) 0.2354(7) -0.0766(5)
H3 H 0.5052 0.1881 -0.0676
H4 H 0.6165 0.1831 -0.1027
C6 C 0.5293(7) 0.3366(7) -0.1433(5)
H5 H 0.4906 0.3965 -0.1142
H6 H 0.4793 0.3046 -0.1947
C7 C 0.6584(7) 0.3568(8) 0.1449(6)
H7 H 0.6504 0.3938 0.1989
O3 O 0.8995(4) 0.7015(4) 0.4801(3)
C8 C 0.9654(5) 0.6254(5) 0.3496(4)
C9 C 0.9591(5) 0.7167(6) 0.4201(4)
C10 C 1.0117(6) 0.5727(5) 0.2227(4)
H8 H 1.0415 0.5743 0.1700
Cl1 Cl 0.6283(2) 0.6230(2) 0.38759(15)
O4 O 1.0144(4) 0.8107(4) 0.4180(3)
N4 N 1.0203(4) 0.6631(4) 0.2815(3)
N5 N 0.6736(6) 0.5534(6) -0.2793(4)
C11 C 0.5917(7) 0.5089(9) -0.2269(6)
H9 H 0.5237 0.4929 -0.2676
H10 H 0.5781 0.5701 -0.1842
C12 C 0.6301(8) 0.3975(8) -0.1772(6)
H11 H 0.6866 0.4164 -0.1259
H12 H 0.6604 0.3428 -0.2167
C13 C 0.6830(7) 0.5219(7) -0.3632(5)
H13 H 0.6419 0.4618 -0.3961
C14 C 0.7976(8) 0.6589(8) -0.3259(5)
H14 H 0.8530 0.7145 -0.3278
C15 C 0.7460(8) 0.6399(9) -0.2538(6)
H15 H 0.7590 0.6794 -0.1983
N6 N 0.7557(5) 0.5849(5) -0.3931(4)
Zn1A Zn 1.09700(7) 0.81961(6) 0.29989(5)
Zn2_2 Zn 0.78330(7) 0.58763(7) -0.51723(5)
O4A O 0.9856(4) 0.3107(4) 0.0820(3)
N4A N 0.9797(4) 0.1631(4) 0.2185(3)
N6_2 N 0.7557(5) 0.5849(5) 0.6069(4)
O5 O 0.1230(9) 0.4963(8) 0.0257(7)
O6 O 0.3019(12) 0.3945(11) 0.9926(9)
loop_
_geom_bond_atom_site_label_1
_geom_bond_atom_site_label_2
_geom_bond_site_symmetry_1
_geom_bond_site_symmetry_2
Zn1 O1 1_555 1_555
Zn2 O2 1_555 1_555
O1 C2 1_555 1_555
N1 Zn1 1_555 1_555
N2 Zn1 1_555 1_555
O2 C2 1_555 1_555
C1 N2 1_555 1_555
C2 C1 1_555 1_555
N3 C3 1_555 1_555
C3 N1 1_555 1_555
H1 C3 1_555 1_555
C4 N3 1_555 1_555
H2 C4 1_555 1_555
C5 N3 1_555 1_555
H3 C5 1_555 1_555
H4 C5 1_555 1_555
C6 C5 1_555 1_555
H5 C6 1_555 1_555
H6 C6 1_555 1_555
C7 N1 1_555 1_555
H7 C7 1_555 1_555
O3 Zn2 1_555 1_555
C8 C1 1_555 1_555
C9 O3 1_555 1_555
C10 N2 1_555 1_555
H8 C10 1_555 1_555
Cl1 Zn2 1_555 1_555
O4 C9 1_555 1_555
N4 C8 1_555 1_555
N5 C11 1_555 1_555
C11 H9 1_555 1_555
H10 C11 1_555 1_555
C12 C6 1_555 1_555
H11 C12 1_555 1_555
H12 C12 1_555 1_555
C13 N5 1_555 1_555
H13 C13 1_555 1_555
C14 H14 1_555 1_555
C15 N5 1_555 1_555
H15 C15 1_555 1_555
N6 C13 1_555 1_555
Zn1A O4 1_555 1_555
Zn2_2 N6 1_555 1_555
O4A Zn1 1_555 1_555
N4A Zn1 1_555 1_555
N6_2 Zn2 1_555 1_555
C4 C7 1_555 1_555
C8 C9 1_555 1_555
C10 N4 1_555 1_555
N4 Zn1A 1_555 1_555
C11 C12 1_555 1_555
C14 C15 1_555 1_555
C14 N6 1_555 1_555

#END
