
#######################################################################
#
#                 Cambridge Crystallographic Data Centre
#                                CCDC 
#
#######################################################################
#
# If this CIF has been generated from an entry in the Cambridge 
# Structural Database, then it will include bibliographic, chemical, 
# crystal, experimental, refinement or atomic coordinate data resulting 
# from the CCDC's data processing and validation procedures.
#
#######################################################################

data_UZAWEY
_symmetry_cell_setting           triclinic
_symmetry_space_group_name_H-M   'P -1'
_symmetry_Int_Tables_number      2
_space_group_name_Hall           '-P 1'
loop_
_symmetry_equiv_pos_site_id
_symmetry_equiv_pos_as_xyz
1 x,y,z
2 -x,-y,-z
_cell_length_a                   10.596(2)
_cell_length_b                   11.033(2)
_cell_length_c                   11.922(2)
_cell_angle_alpha                76.863(3)
_cell_angle_beta                 82.995(3)
_cell_angle_gamma                65.862(3)
_cell_volume                     1237.94
loop_
_atom_site_label
_atom_site_type_symbol
_atom_site_fract_x
_atom_site_fract_y
_atom_site_fract_z
Cd1 Cd 0.76951(4) 0.65976(4) 0.26010(3)
Cd2 Cd 0.86010(4) 0.30142(4) 0.22891(4)
Cl1 Cl 0.65648(16) 0.52556(15) 0.17738(13)
Cl2 Cl 0.98480(16) 0.40811(16) 0.32025(14)
O1 O 1.1866(5) 0.8903(5) 0.0424(4)
N1 N 1.0167(5) 0.7178(5) -0.0642(4)
O2 O 1.2177(5) 0.8256(5) -0.1262(4)
C1 C 0.9259(6) 0.6720(6) -0.0039(5)
H1 H 0.8847 0.6263 -0.0332
N2 N 0.6858(5) 0.6261(5) 0.4428(4)
C2 C 0.5522(6) 0.6483(7) 0.4775(5)
H2 H 0.4770 0.6909 0.4295
C3 C 1.0534(6) 0.7769(5) 0.0073(5)
C4 C 1.1587(6) 0.8354(6) -0.0283(5)
N3 N 0.8997(5) 0.6969(5) 0.1002(4)
N4 N 0.6760(5) 0.5480(5) 0.6293(4)
C5 C 0.9789(6) 0.7652(5) 0.1110(5)
C6 C 0.7582(6) 0.5633(6) 0.5364(5)
H3 H 0.8538 0.5334 0.5382
C7 C 0.7220(8) 0.4803(6) 0.7466(5)
H4 H 0.8190 0.4631 0.7497
H5 H 0.7142 0.3933 0.7637
C8 C 0.5449(6) 0.6002(7) 0.5901(5)
H6 H 0.4655 0.6018 0.6338
O3 O 0.8996(5) 0.7826(5) 0.2996(4)
O4 O 1.0523(5) 0.8711(5) 0.2254(4)
H7 H 1.092(7) 0.886(8) 0.160(3)
C9 C 0.6416(7) 0.5596(6) 0.8395(5)
H8 H 0.5489 0.5608 0.8475
H9 H 0.6861 0.5132 0.9124
C10 C 0.6318(7) 0.7030(6) 0.8144(5)
H10 H 0.5817 0.7515 0.7442
H11 H 0.7242 0.7024 0.8018
C11 C 0.9745(6) 0.8080(6) 0.2182(5)
N5 N 0.8207(5) 0.1711(5) 0.3853(4)
C12 C 0.7686(6) 0.0798(6) 0.3860(5)
H12 H 0.7460 0.0616 0.3205
C13 C 0.7997(7) 0.0701(7) 0.5648(6)
H13 H 0.8028 0.0451 0.6447
C14 C 0.8402(7) 0.1644(7) 0.4983(5)
H14 H 0.8757 0.2168 0.5248
N6 N 0.7534(5) 0.0180(5) 0.4940(4)
C15 C 0.5454(7) -0.0402(7) 0.5513(5)
H15 H 0.5219 0.0157 0.6090
H16 H 0.5234 -0.1183 0.5846
C16 C 0.6993(7) -0.0891(6) 0.5258(6)
H17 H 0.7466 -0.1521 0.5933
H18 H 0.7218 -0.1384 0.4634
N7 N 0.5282(5) 0.9222(5) 0.8756(4)
C17 C 0.6211(6) 0.9818(6) 0.8652(5)
H19 H 0.7140 0.9396 0.8835
C18 C 0.5577(7) 0.7780(6) 0.9136(5)
H20 H 0.4720 0.7654 0.9359
H21 H 0.6160 0.7412 0.9800
N8 N 0.4153(5) 1.1392(5) 0.8054(4)
C19 C 0.4061(6) 1.0197(6) 0.8413(5)
H22 H 0.3251 1.0057 0.8424
C20 C 0.5492(6) 1.1155(6) 0.8225(5)
H23 H 0.5859 1.1814 0.8073
Cd1A Cd 0.23049(4) 1.34024(4) 0.73990(3)
Cd1A_2 Cd 1.23049(4) 0.34024(4) -0.26010(3)
Cd2A Cd 1.13990(4) 0.69858(4) -0.22891(4)
Cd2A_2 Cd 0.13990(4) -0.30142(4) 0.77109(4)
Cd2A_3 Cd 0.13990(4) 1.69858(4) 0.77109(4)
Cl1A Cl 0.34352(16) 1.47444(15) 0.82262(13)
Cl1A_2 Cl 1.34352(16) 0.47444(15) -0.17738(13)
Cl2A Cl 0.01520(16) 1.59189(16) 0.67975(14)
Cl2A_2 Cl 1.01520(16) 0.59189(16) -0.32025(14)
O1A O 0.8134(5) 0.1097(5) -0.0424(4)
N1A N 0.9833(5) 0.2822(5) 0.0642(4)
O2A O 0.7823(5) 0.1744(5) 0.1262(4)
C1A C 1.0741(6) 0.3280(6) 0.0039(5)
H1A H 1.1153 0.3737 0.0332
N2A N 0.3142(5) 1.3739(5) 0.5572(4)
C2A C 0.4478(6) 1.3517(7) 0.5225(5)
H2A H 0.5230 1.3091 0.5705
C3A C 0.9466(6) 0.2231(5) -0.0073(5)
C4A C 0.8413(6) 0.1646(6) 0.0283(5)
N3A N 1.1003(5) 0.3031(5) -0.1002(4)
N3A_2 N 0.1003(5) 1.3031(5) 0.8998(4)
N4A N 0.3240(5) 1.4520(5) 0.3707(4)
C5A C 1.0211(6) 0.2348(5) -0.1110(5)
C6A C 0.2418(6) 1.4367(6) 0.4636(5)
H3A H 0.1462 1.4666 0.4618
C7A C 0.2780(8) 1.5197(6) 0.2534(5)
H4A H 0.1810 1.5369 0.2503
H5A H 0.2858 1.6067 0.2363
C8A C 0.4551(6) 1.3998(7) 0.4099(5)
H6A H 0.5345 1.3982 0.3662
O3A O 1.1004(5) 0.2174(5) -0.2996(4)
O3A_2 O 0.1004(5) 1.2174(5) 0.7004(4)
O4A O 0.9477(5) 0.1289(5) -0.2254(4)
H7A H 0.908(7) 0.114(8) -0.160(3)
C9A C 0.3584(7) 1.4404(6) 0.1605(5)
H8A H 0.4511 1.4392 0.1525
H9A H 0.3139 1.4868 0.0876
C10A C 0.3682(7) 1.2970(6) 0.1856(5)
H10A H 0.4183 1.2485 0.2558
H11A H 0.2758 1.2976 0.1982
C11A C 1.0255(6) 0.1920(6) -0.2182(5)
N5A N 0.1793(5) -0.1711(5) 0.6147(4)
N5A_2 N 1.1793(5) 0.8289(5) -0.3853(4)
C12A C 0.2314(6) -0.0798(6) 0.6140(5)
H12A H 0.2540 -0.0616 0.6795
C13A C 0.2003(7) -0.0701(7) 0.4352(6)
H13A H 0.1972 -0.0451 0.3553
C14A C 0.1598(7) -0.1644(7) 0.5017(5)
H14A H 0.1243 -0.2168 0.4752
N6A N 0.2466(5) -0.0180(5) 0.5060(4)
C15A C 0.4546(7) 0.0402(7) 0.4487(5)
H15A H 0.4781 -0.0157 0.3910
H16A H 0.4766 0.1183 0.4154
C16A C 0.3007(7) 0.0891(6) 0.4742(6)
H17A H 0.2534 0.1521 0.4067
H18A H 0.2782 0.1384 0.5366
N7A N 0.4718(5) 1.0778(5) 0.1244(4)
C17A C 0.3789(6) 1.0182(6) 0.1348(5)
H19A H 0.2860 1.0604 0.1165
C18A C 0.4423(7) 1.2220(6) 0.0864(5)
H20A H 0.5280 1.2346 0.0641
H21A H 0.3840 1.2588 0.0200
N8A N 0.5847(5) 0.8608(5) 0.1946(4)
C19A C 0.5939(6) 0.9803(6) 0.1587(5)
H22A H 0.6749 0.9943 0.1576
C20A C 0.4508(6) 0.8845(6) 0.1775(5)
H23A H 0.4141 0.8186 0.1927
loop_
_geom_bond_atom_site_label_1
_geom_bond_atom_site_label_2
_geom_bond_site_symmetry_1
_geom_bond_site_symmetry_2
Cd1 Cl1 1_555 1_555
Cd2 Cl1 1_555 1_555
Cl2 Cd1 1_555 1_555
O1 C4 1_555 1_555
N1 C1 1_555 1_555
O2 C4 1_555 1_555
C1 H1 1_555 1_555
N2 Cd1 1_555 1_555
C2 N2 1_555 1_555
H2 C2 1_555 1_555
C3 N1 1_555 1_555
C4 C3 1_555 1_555
N3 Cd1 1_555 1_555
N4 C6 1_555 1_555
C5 C3 1_555 1_555
C6 N2 1_555 1_555
H3 C6 1_555 1_555
C7 N4 1_555 1_555
H4 C7 1_555 1_555
H5 C7 1_555 1_555
C8 C2 1_555 1_555
H6 C8 1_555 1_555
O3 Cd1 1_555 1_555
O4 H7 1_555 1_555
C9 C7 1_555 1_555
H8 C9 1_555 1_555
H9 C9 1_555 1_555
C10 C9 1_555 1_555
H10 C10 1_555 1_555
H11 C10 1_555 1_555
C11 C5 1_555 1_555
N5 Cd2 1_555 1_555
C12 N5 1_555 1_555
H12 C12 1_555 1_555
C13 H13 1_555 1_555
C14 N5 1_555 1_555
H14 C14 1_555 1_555
N6 C12 1_555 1_555
C15 H15 1_555 1_555
H16 C15 1_555 1_555
C16 N6 1_555 1_555
H17 C16 1_555 1_555
H18 C16 1_555 1_555
N7 C17 1_555 1_555
C17 H19 1_555 1_555
C18 C10 1_555 1_555
H20 C18 1_555 1_555
H21 C18 1_555 1_555
N8 C19 1_555 1_555
C19 N7 1_555 1_555
H22 C19 1_555 1_555
C20 C17 1_555 1_555
H23 C20 1_555 1_555
Cd1A N8 1_555 1_555
Cd1A_2 Cl1A_2 1_555 1_555
Cd2A N1 1_555 1_555
Cd2A_2 N5A 1_555 1_555
Cd2A_3 Cl1A 1_555 1_555
Cl1A Cd1A 1_555 1_555
Cl1A_2 Cd2A 1_555 1_555
Cl2A Cd1A 1_555 1_555
Cl2A_2 Cd1A_2 1_555 1_555
O1A C4A 1_555 1_555
N1A Cd2 1_555 1_555
O2A Cd2 1_555 1_555
C1A N1A 1_555 1_555
H1A C1A 1_555 1_555
N2A Cd1A 1_555 1_555
C2A N2A 1_555 1_555
H2A C2A 1_555 1_555
C3A N1A 1_555 1_555
C4A O2A 1_555 1_555
N3A Cd1A_2 1_555 1_555
N3A_2 Cd1A 1_555 1_555
N4A C6A 1_555 1_555
C5A C3A 1_555 1_555
C6A N2A 1_555 1_555
H3A C6A 1_555 1_555
C7A N4A 1_555 1_555
H4A C7A 1_555 1_555
H5A C7A 1_555 1_555
C8A C2A 1_555 1_555
H6A C8A 1_555 1_555
O3A Cd1A_2 1_555 1_555
O3A_2 Cd1A 1_555 1_555
O4A H7A 1_555 1_555
C9A C7A 1_555 1_555
H8A C9A 1_555 1_555
H9A C9A 1_555 1_555
C10A C9A 1_555 1_555
H10A C10A 1_555 1_555
H11A C10A 1_555 1_555
C11A C5A 1_555 1_555
N5A C12A 1_555 1_555
N5A_2 Cd2A 1_555 1_555
C12A H12A 1_555 1_555
C13A H13A 1_555 1_555
C14A N5A 1_555 1_555
H14A C14A 1_555 1_555
N6A C12A 1_555 1_555
C15A C15 1_555 1_555
H15A C15A 1_555 1_555
H16A C15A 1_555 1_555
C16A N6A 1_555 1_555
H17A C16A 1_555 1_555
H18A C16A 1_555 1_555
N7A C17A 1_555 1_555
C17A H19A 1_555 1_555
C18A C10A 1_555 1_555
H20A C18A 1_555 1_555
H21A C18A 1_555 1_555
N8A Cd1 1_555 1_555
C19A N7A 1_555 1_555
H22A C19A 1_555 1_555
C20A C17A 1_555 1_555
H23A C20A 1_555 1_555
Cd2 Cl2 1_555 1_555
O2 Cd2A 1_555 1_555
C1 N3 1_555 1_555
N3 C5 1_555 1_555
N4 C8 1_555 1_555
O3 C11 1_555 1_555
O4 C11 1_555 1_555
C13 C14 1_555 1_555
C13 N6 1_555 1_555
C15 C16 1_555 1_555
N7 C18 1_555 1_555
N8 C20 1_555 1_555
Cd2A Cl2A_2 1_555 1_555
Cd2A_3 Cl2A 1_555 1_555
C1A N3A 1_555 1_555
C3A C4A 1_555 1_555
N3A C5A 1_555 1_555
N4A C8A 1_555 1_555
O3A C11A 1_555 1_555
O4A C11A 1_555 1_555
C13A C14A 1_555 1_555
C13A N6A 1_555 1_555
C15A C16A 1_555 1_555
N7A C18A 1_555 1_555
N8A C19A 1_555 1_555
N8A C20A 1_555 1_555

#END
