
#######################################################################
#
#                 Cambridge Crystallographic Data Centre
#                                CCDC 
#
#######################################################################
#
# If this CIF has been generated from an entry in the Cambridge 
# Structural Database, then it will include bibliographic, chemical, 
# crystal, experimental, refinement or atomic coordinate data resulting 
# from the CCDC's data processing and validation procedures.
#
#######################################################################

data_UZAXAV
_symmetry_cell_setting           triclinic
_symmetry_space_group_name_H-M   'P -1'
_symmetry_Int_Tables_number      2
_space_group_name_Hall           '-P 1'
loop_
_symmetry_equiv_pos_site_id
_symmetry_equiv_pos_as_xyz
1 x,y,z
2 -x,-y,-z
_cell_length_a                   10.995(7)
_cell_length_b                   11.501(7)
_cell_length_c                   14.292(9)
_cell_angle_alpha                83.445(10)
_cell_angle_beta                 78.212(10)
_cell_angle_gamma                66.315(9)
_cell_volume                     1619.1
loop_
_atom_site_label
_atom_site_type_symbol
_atom_site_fract_x
_atom_site_fract_y
_atom_site_fract_z
Pb1 Pb 1.094031(11) -0.375047(11) 0.916245(8)
C1 C 0.8766(4) -0.4631(3) 1.3315(2)
O1 O 1.1550(2) -0.3353(2) 1.04793(16)
C2 C 1.0182(4) -0.5300(3) 1.2871(2)
O2 O 1.0569(3) -0.6355(3) 1.2599(2)
O3 O 1.1657(3) -0.2034(3) 0.8593(2)
C3 C 0.6543(4) -0.4593(5) 1.3726(3)
H1 H 0.5925 -0.4949 1.3704
N1 N 0.8756(3) -0.1662(3) 0.9385(2)
C4 C 1.2625(5) -0.4337(5) 1.3721(3)
H2 H 1.2982 -0.4440 1.4276
O4 O 1.0115(2) -0.4212(3) 1.11485(18)
C5 C 0.8329(4) -0.3484(4) 1.3744(3)
H3 H 0.8928 -0.3093 1.3729
C6 C 1.1557(3) -0.4030(3) 1.2082(2)
C7 C 0.5312(3) 0.1801(3) 0.9371(3)
C8 C 0.5118(3) 0.2811(3) 0.9878(3)
H4 H 0.5776 0.2780 1.0210
C9 C 0.4296(4) 0.1932(4) 0.8885(3)
H5 H 0.4386 0.1280 0.8514
C10 C 0.7021(4) -0.2921(4) 1.4191(3)
H6 H 0.6733 -0.2168 1.4507
C11 C 0.8671(4) -0.0634(4) 0.9759(3)
H7 H 0.9386 -0.0684 1.0037
C12 C 0.7598(4) 0.0503(4) 0.9765(3)
H8 H 0.7592 0.1201 1.0039
C13 C 0.6524(3) 0.0605(3) 0.9360(2)
C14 C 1.1156(3) -0.4679(3) 1.2865(2)
C15 C 0.6619(3) -0.0465(3) 0.8968(3)
H9 H 0.5919 -0.0448 0.8688
C16 C 0.7737(4) -0.1556(3) 0.8988(3)
H10 H 0.7782 -0.2265 0.8706
C17 C 0.7862(4) -0.5174(4) 1.3321(3)
H11 H 0.8154 -0.5955 1.3044
C18 C 1.1015(3) -0.3860(3) 1.1184(2)
C19 C 1.3034(4) -0.3700(5) 1.2944(3)
H12 H 1.3670 -0.3366 1.2966
C20 C 1.2507(4) -0.3550(4) 1.2130(3)
H13 H 1.2793 -0.3116 1.1600
Cl1 Cl 0.44905(13) -0.27292(19) 1.47028(12)
N2 N 0.2966(3) 0.3987(3) 0.9456(2)
O5 O 1.3299(3) -0.3843(3) 0.8236(3)
C21 C 1.3677(4) -0.1984(4) 0.7715(3)
C22 C 1.1623(4) 0.0033(4) 0.7548(3)
C23 C 0.3950(4) 0.3875(4) 0.9898(3)
H14 H 0.3846 0.4557 1.0244
C24 C 1.5056(4) -0.2600(4) 0.7535(3)
H15 H 1.5450 -0.3460 0.7697
C25 C 1.0859(4) -0.0356(4) 0.6987(3)
C26 C 1.3095(4) -0.0732(4) 0.7457(3)
C27 C 1.2828(4) -0.2677(4) 0.8209(3)
C28 C 0.3158(4) 0.3026(4) 0.8953(3)
H16 H 0.2483 0.3091 0.8625
C29 C 0.6149(4) -0.3478(5) 1.4165(3)
C30 C 1.1482(4) -0.1245(4) 0.6307(3)
H17 H 1.2418 -0.1643 0.6198
C31 C 1.1699(4) -0.4823(4) 1.3687(3)
H18 H 1.1424 -0.5259 1.4221
C32 C 0.9484(5) 0.0228(5) 0.7124(3)
H19 H 0.9038 0.0849 0.7578
C33 C 0.8761(5) -0.0089(6) 0.6604(4)
H20 H 0.7825 0.0310 0.6701
Cl2 Cl 0.85104(17) -0.1407(2) 0.52882(11)
O6 O 1.1099(4) 0.0992(3) 0.7981(3)
C34 C 0.9413(5) -0.0981(5) 0.5953(3)
C35 C 1.3919(5) -0.0079(5) 0.7053(4)
H21 H 1.3537 0.0787 0.6905
C36 C 1.0762(5) -0.1566(5) 0.5780(3)
H22 H 1.1196 -0.2172 0.5314
C37 C 1.5851(5) -0.1964(5) 0.7122(4)
H23 H 1.6784 -0.2387 0.7007
C38 C 1.5278(5) -0.0711(6) 0.6877(4)
H24 H 1.5823 -0.0281 0.6586
Pb1_2 Pb 0.094031(11) 0.624953(11) 0.916245(8)
N2_2 N 1.2966(3) -0.6013(3) 0.9456(2)
loop_
_geom_bond_atom_site_label_1
_geom_bond_atom_site_label_2
_geom_bond_site_symmetry_1
_geom_bond_site_symmetry_2
Pb1 O1 1_555 1_555
C1 C2 1_555 1_555
O1 C18 1_555 1_555
C2 O2 1_555 1_555
O3 Pb1 1_555 1_555
C3 H1 1_555 1_555
N1 Pb1 1_555 1_555
C4 H2 1_555 1_555
O4 Pb1 1_555 1_555
C5 C1 1_555 1_555
H3 C5 1_555 1_555
C6 C14 1_555 1_555
C7 C8 1_555 1_555
C8 H4 1_555 1_555
C9 C7 1_555 1_555
H5 C9 1_555 1_555
C10 C5 1_555 1_555
H6 C10 1_555 1_555
C11 N1 1_555 1_555
H7 C11 1_555 1_555
C12 C11 1_555 1_555
H8 C12 1_555 1_555
C13 C7 1_555 1_555
C14 C2 1_555 1_555
C15 C13 1_555 1_555
H9 C15 1_555 1_555
C16 N1 1_555 1_555
H10 C16 1_555 1_555
C17 C1 1_555 1_555
H11 C17 1_555 1_555
C18 O4 1_555 1_555
C19 C4 1_555 1_555
H12 C19 1_555 1_555
C20 C6 1_555 1_555
H13 C20 1_555 1_555
Cl1 C29 1_555 1_555
N2 C23 1_555 1_555
O5 Pb1 1_555 1_555
C21 C24 1_555 1_555
C22 C25 1_555 1_555
C23 C8 1_555 1_555
H14 C23 1_555 1_555
C24 H15 1_555 1_555
C25 C30 1_555 1_555
C26 C21 1_555 1_555
C27 O3 1_555 1_555
C28 C9 1_555 1_555
H16 C28 1_555 1_555
C29 C3 1_555 1_555
C30 H17 1_555 1_555
C31 C4 1_555 1_555
H18 C31 1_555 1_555
C32 C25 1_555 1_555
H19 C32 1_555 1_555
C33 C32 1_555 1_555
H20 C33 1_555 1_555
Cl2 C34 1_555 1_555
O6 C22 1_555 1_555
C34 C33 1_555 1_555
C35 C26 1_555 1_555
H21 C35 1_555 1_555
C36 C30 1_555 1_555
H22 C36 1_555 1_555
C37 C24 1_555 1_555
H23 C37 1_555 1_555
C38 C35 1_555 1_555
H24 C38 1_555 1_555
Pb1_2 N2 1_555 1_555
N2_2 Pb1 1_555 1_555
C3 C17 1_555 1_555
C6 C18 1_555 1_555
C10 C29 1_555 1_555
C12 C13 1_555 1_555
C14 C31 1_555 1_555
C15 C16 1_555 1_555
C19 C20 1_555 1_555
N2 C28 1_555 1_555
O5 C27 1_555 1_555
C21 C27 1_555 1_555
C22 C26 1_555 1_555
C34 C36 1_555 1_555
C37 C38 1_555 1_555

#END
