
#######################################################################
#
#                 Cambridge Crystallographic Data Centre
#                                CCDC 
#
#######################################################################
#
# If this CIF has been generated from an entry in the Cambridge 
# Structural Database, then it will include bibliographic, chemical, 
# crystal, experimental, refinement or atomic coordinate data resulting 
# from the CCDC's data processing and validation procedures.
#
#######################################################################

data_UZAYAW
_symmetry_cell_setting           monoclinic
_symmetry_space_group_name_H-M   'P 21/c'
_symmetry_Int_Tables_number      14
_space_group_name_Hall           '-P 2ybc'
loop_
_symmetry_equiv_pos_site_id
_symmetry_equiv_pos_as_xyz
1 x,y,z
2 -x,1/2+y,1/2-z
3 -x,-y,-z
4 x,1/2-y,1/2+z
_cell_length_a                   9.6310(5)
_cell_length_b                   21.9546(11)
_cell_length_c                   18.1550(7)
_cell_angle_alpha                90
_cell_angle_beta                 121.240(2)
_cell_angle_gamma                90
_cell_volume                     3282.17
loop_
_atom_site_label
_atom_site_type_symbol
_atom_site_fract_x
_atom_site_fract_y
_atom_site_fract_z
Co1 Co -0.90050(3) -0.371027(12) -0.099036(18)
Co2 Co -0.77181(3) -0.138815(12) -0.050845(18)
C1 C -0.6658(2) -0.30625(9) 0.25554(13)
C2 C -0.5038(3) -0.32253(11) 0.29587(15)
H1 H -0.4591 -0.3462 0.3455
C3 C -0.4065(3) -0.30458(13) 0.26450(17)
H2 H -0.2978 -0.3160 0.2926
C4 C -0.4732(3) -0.26942(11) 0.19079(16)
H3 H -0.4103 -0.2586 0.1676
C5 C -0.6338(2) -0.25012(9) 0.15096(13)
C6 C -0.7332(2) -0.26833(9) 0.18259(13)
C7 C -0.9085(2) -0.25003(9) 0.13446(13)
C8 C -1.0106(2) -0.27206(9) 0.05031(14)
C9 C -1.1752(3) -0.25722(11) 0.00377(15)
H4 H -1.2400 -0.2708 -0.0527
C10 C -1.2424(3) -0.22273(13) 0.04050(17)
H5 H -1.3535 -0.2152 0.0108
C11 C -1.1426(3) -0.19949(11) 0.12205(16)
H6 H -1.1878 -0.1755 0.1465
C12 C -0.9762(2) -0.21080(9) 0.16891(14)
C13 C -0.7632(3) -0.32969(9) 0.29359(14)
C14 C -0.6931(2) -0.20959(9) 0.07425(13)
C15 C -0.9512(2) -0.31059(9) 0.00402(14)
C16 C -0.8793(3) -0.17916(9) 0.25476(14)
C17 C -0.7088(3) -0.48669(11) -0.08577(18)
H7 H -0.6276 -0.4596 -0.0773
C18 C -0.6818(3) -0.54847(12) -0.0875(2)
H8 H -0.5848 -0.5626 -0.0807
C19 C -0.8009(3) -0.58823(11) -0.09937(19)
H9 H -0.7854 -0.6300 -0.1000
C20 C -0.9445(3) -0.56587(11) -0.11043(17)
H10 H -1.0270 -0.5924 -0.1191
C21 C -0.9643(3) -0.50377(10) -0.10844(14)
C22 C -1.1179(3) -0.47561(10) -0.12484(14)
C23 C -1.2457(3) -0.50883(12) -0.13100(18)
H11 H -1.2362 -0.5506 -0.1208
C24 C -1.3872(3) -0.47864(15) -0.1526(2)
H12 H -1.4742 -0.5000 -0.1566
C25 C -1.4005(3) -0.41704(14) -0.1683(2)
H13 H -1.4965 -0.3963 -0.1847
C26 C -1.2663(3) -0.38694(12) -0.15891(17)
H14 H -1.2732 -0.3451 -0.1684
C27 C -0.4428(3) -0.09260(11) 0.09350(15)
H15 H -0.4110 -0.1328 0.0948
C28 C -0.3294(3) -0.05193(12) 0.15080(16)
H16 H -0.2234 -0.0642 0.1897
C29 C -0.3770(4) 0.00707(12) 0.14883(18)
H17 H -0.3032 0.0359 0.1862
C30 C -0.5344(4) 0.02314(11) 0.09119(18)
H18 H -0.5684 0.0630 0.0899
C31 C -0.6436(3) -0.01968(9) 0.03466(15)
C32 C -0.8148(3) -0.00677(10) -0.03183(16)
C33 C -0.8907(4) 0.04911(11) -0.0403(2)
H19 H -0.8348 0.0804 -0.0015
C34 C -1.0476(4) 0.05766(13) -0.1059(2)
H20 H -1.1001 0.0945 -0.1121
C35 C -1.1255(4) 0.01083(15) -0.1623(2)
H21 H -1.2312 0.0158 -0.2083
C36 C -1.0459(3) -0.04389(13) -0.1502(2)
H22 H -1.1004 -0.0755 -0.1887
N1 N -0.8461(2) -0.46434(8) -0.09567(12)
N2 N -1.1276(2) -0.41501(8) -0.13699(12)
N3 N -0.5962(2) -0.07734(8) 0.03608(12)
N4 N -0.8941(2) -0.05312(8) -0.08573(13)
O1 O -0.87174(19) -0.35819(7) 0.03469(10)
O2 O -0.99231(19) -0.29392(7) -0.07198(10)
O3 O -0.64239(17) -0.21915(6) 0.02287(9)
O4 O -0.78659(18) -0.16581(7) 0.06116(10)
O5 O -0.68114(19) -0.34980(7) 0.37042(10)
O6 O -0.91348(19) -0.32938(8) 0.24912(10)
O7 O -0.72903(19) -0.17868(8) 0.29347(11)
O8 O -0.96289(19) -0.15294(8) 0.28129(10)
O9 O -0.66051(17) -0.33850(7) -0.04544(10)
H23 H -0.6456 -0.3046 -0.0197
H24 H -0.6514 -0.3284 -0.0879
O10 O -0.99126(17) -0.18248(7) -0.13232(10)
H25 H -0.9934 -0.2186 -0.1162
H26 H -0.9814 -0.1861 -0.1760
Co1C Co -0.90050(3) -0.128973(12) 0.400964(18)
Co2C Co -0.77181(3) -0.361185(12) 0.449155(18)
O5C O -0.68114(19) -0.15020(7) -0.12958(10)
O8C O -0.96289(19) -0.34706(8) -0.21871(10)
loop_
_geom_bond_atom_site_label_1
_geom_bond_atom_site_label_2
_geom_bond_site_symmetry_1
_geom_bond_site_symmetry_2
Co1 N1 1_555 1_555
Co2 N3 1_555 1_555
C1 C2 1_555 1_555
C2 H1 1_555 1_555
C3 C2 1_555 1_555
H2 C3 1_555 1_555
C4 C3 1_555 1_555
H3 C4 1_555 1_555
C5 C4 1_555 1_555
C6 C1 1_555 1_555
C7 C6 1_555 1_555
C8 C7 1_555 1_555
C9 C8 1_555 1_555
H4 C9 1_555 1_555
C10 C9 1_555 1_555
H5 C10 1_555 1_555
C11 C10 1_555 1_555
H6 C11 1_555 1_555
C12 C7 1_555 1_555
C13 C1 1_555 1_555
C14 C5 1_555 1_555
C15 C8 1_555 1_555
C16 C12 1_555 1_555
C17 H7 1_555 1_555
C18 C17 1_555 1_555
H8 C18 1_555 1_555
C19 C18 1_555 1_555
H9 C19 1_555 1_555
C20 C19 1_555 1_555
H10 C20 1_555 1_555
C21 C20 1_555 1_555
C22 C21 1_555 1_555
C23 C22 1_555 1_555
H11 C23 1_555 1_555
C24 C23 1_555 1_555
H12 C24 1_555 1_555
C25 C24 1_555 1_555
H13 C25 1_555 1_555
C26 C25 1_555 1_555
H14 C26 1_555 1_555
C27 H15 1_555 1_555
C28 C27 1_555 1_555
H16 C28 1_555 1_555
C29 C28 1_555 1_555
H17 C29 1_555 1_555
C30 C29 1_555 1_555
H18 C30 1_555 1_555
C31 C30 1_555 1_555
C32 C31 1_555 1_555
C33 C32 1_555 1_555
H19 C33 1_555 1_555
C34 C33 1_555 1_555
H20 C34 1_555 1_555
C35 C34 1_555 1_555
H21 C35 1_555 1_555
C36 C35 1_555 1_555
H22 C36 1_555 1_555
N1 C17 1_555 1_555
N2 Co1 1_555 1_555
N3 C27 1_555 1_555
N4 Co2 1_555 1_555
O1 Co1 1_555 1_555
O2 Co1 1_555 1_555
O3 Co2 1_555 1_555
O4 Co2 1_555 1_555
O5 C13 1_555 1_555
O6 C13 1_555 1_555
O7 C16 1_555 1_555
O8 C16 1_555 1_555
O9 Co1 1_555 1_555
H23 O9 1_555 1_555
H24 O9 1_555 1_555
O10 Co2 1_555 1_555
H25 O10 1_555 1_555
H26 O10 1_555 1_555
Co1C O8 1_555 1_555
Co2C O5 1_555 1_555
O5C Co2 1_555 1_555
O8C Co1 1_555 1_555
C5 C6 1_555 1_555
C11 C12 1_555 1_555
C14 O3 1_555 1_555
C14 O4 1_555 1_555
C15 O1 1_555 1_555
C15 O2 1_555 1_555
C21 N1 1_555 1_555
C22 N2 1_555 1_555
C26 N2 1_555 1_555
C31 N3 1_555 1_555
C32 N4 1_555 1_555
C36 N4 1_555 1_555

#END
