
#######################################################################
#
#                 Cambridge Crystallographic Data Centre
#                                CCDC 
#
#######################################################################
#
# If this CIF has been generated from an entry in the Cambridge 
# Structural Database, then it will include bibliographic, chemical, 
# crystal, experimental, refinement or atomic coordinate data resulting 
# from the CCDC's data processing and validation procedures.
#
#######################################################################

data_UZAYOK
_symmetry_cell_setting           monoclinic
_symmetry_space_group_name_H-M   'P 21'
_symmetry_Int_Tables_number      4
_space_group_name_Hall           'P 2yb'
loop_
_symmetry_equiv_pos_site_id
_symmetry_equiv_pos_as_xyz
1 x,y,z
2 -x,1/2+y,-z
_cell_length_a                   11.0342(5)
_cell_length_b                   7.6286(4)
_cell_length_c                   11.3831(5)
_cell_angle_alpha                90
_cell_angle_beta                 117.524(2)
_cell_angle_gamma                90
_cell_volume                     849.729
loop_
_atom_site_label
_atom_site_type_symbol
_atom_site_fract_x
_atom_site_fract_y
_atom_site_fract_z
Eu1 Eu 0.01558(3) 0.25814(11) 0.46963(2)
O1 O 0.3359(7) -0.259(3) 0.5997(8)
O2 O 0.1468(5) -0.0398(7) 0.5347(5)
O3 O 0.0993(8) 0.6970(8) 0.2651(8)
O4 O 0.0487(5) 0.5290(6) 0.3964(5)
O5 O -0.2378(7) -0.1970(8) 0.1787(6)
O6 O -0.0984(5) -0.0365(7) 0.3557(5)
N1 N 0.2847(5) 0.2656(15) 0.5712(5)
N2 N 0.0953(5) 0.2478(15) 0.2906(5)
N3 N -0.1885(5) 0.2692(13) 0.2260(4)
C1 C 0.2772(7) -0.0593(9) 0.5749(8)
C2 C 0.3583(15) 0.1130(17) 0.5938(15)
C3 C 0.4893(18) 0.1159(17) 0.6298(17)
H1 H 0.5349 0.0095 0.6426
C4 C 0.5654(7) 0.2725(19) 0.6503(7)
H2 H 0.6583 0.2710 0.6749
C5 C 0.4962(9) 0.4230(12) 0.6324(11)
H3 H 0.5403 0.5306 0.6461
C6 C 0.3521(11) 0.4139(12) 0.5915(11)
H4 H 0.3041 0.5183 0.5788
C7 C 0.0839(7) 0.5549(9) 0.3034(8)
C8 C 0.1077(12) 0.3921(16) 0.2386(13)
C9 C 0.1467(14) 0.4157(17) 0.1380(14)
H5 H 0.1591 0.5255 0.1097
C10 C 0.1645(7) 0.263(2) 0.0860(7)
H6 H 0.1881 0.2648 0.0174
C11 C 0.147(2) 0.1047(17) 0.1365(17)
H7 H 0.1556 0.0013 0.0978
C12 C 0.1173(12) 0.0939(13) 0.2431(11)
H8 H 0.1128 -0.0133 0.2798
C13 C -0.1904(7) -0.0562(9) 0.2344(7)
C14 C -0.2393(14) 0.1164(14) 0.1638(12)
C15 C -0.3473(16) 0.1128(16) 0.0309(13)
H9 H -0.3795 0.0063 -0.0122
C16 C -0.4027(7) 0.267(2) -0.0323(6)
H10 H -0.4755 0.2675 -0.1174
C17 C -0.3470(13) 0.4211(13) 0.0346(14)
H11 H -0.3827 0.5280 -0.0059
C18 C -0.2414(14) 0.4181(13) 0.1581(13)
H12 H -0.2032 0.5243 0.1983
Eu1A Eu -0.01558(3) -0.24186(11) 0.53037(2)
Eu1A_2 Eu -0.01558(3) 0.75814(11) 0.53037(2)
O2A O -0.1468(5) 0.4602(7) 0.4653(5)
O4A O -0.0487(5) 0.0290(6) 0.6036(5)
O6A O 0.0984(5) 0.4635(7) 0.6443(5)
loop_
_geom_bond_atom_site_label_1
_geom_bond_atom_site_label_2
_geom_bond_site_symmetry_1
_geom_bond_site_symmetry_2
Eu1 O2 1_555 1_555
O1 C1 1_555 1_555
O2 C1 1_555 1_555
O3 C7 1_555 1_555
O4 Eu1 1_555 1_555
O5 C13 1_555 1_555
O6 Eu1 1_555 1_555
N1 Eu1 1_555 1_555
N2 Eu1 1_555 1_555
N3 Eu1 1_555 1_555
C1 C2 1_555 1_555
C2 N1 1_555 1_555
C3 C2 1_555 1_555
H1 C3 1_555 1_555
C4 C3 1_555 1_555
H2 C4 1_555 1_555
C5 C4 1_555 1_555
H3 C5 1_555 1_555
C6 N1 1_555 1_555
H4 C6 1_555 1_555
C7 O4 1_555 1_555
C8 N2 1_555 1_555
C9 C8 1_555 1_555
H5 C9 1_555 1_555
C10 C9 1_555 1_555
H6 C10 1_555 1_555
C11 C10 1_555 1_555
H7 C11 1_555 1_555
C12 N2 1_555 1_555
H8 C12 1_555 1_555
C13 O6 1_555 1_555
C14 N3 1_555 1_555
C15 C14 1_555 1_555
H9 C15 1_555 1_555
C16 C15 1_555 1_555
H10 C16 1_555 1_555
C17 C16 1_555 1_555
H11 C17 1_555 1_555
C18 N3 1_555 1_555
H12 C18 1_555 1_555
Eu1A O2 1_555 1_555
Eu1A_2 O4 1_555 1_555
O2A Eu1 1_555 1_555
O4A Eu1 1_555 1_555
O6A Eu1 1_555 1_555
O6 Eu1A 1_555 1_555
C5 C6 1_555 1_555
C7 C8 1_555 1_555
C11 C12 1_555 1_555
C13 C14 1_555 1_555
C17 C18 1_555 1_555
Eu1A O4A 1_555 1_555
Eu1A_2 O2A 1_555 1_555
Eu1A_2 O6A 1_555 1_555

#END
