
#######################################################################
#
#                 Cambridge Crystallographic Data Centre
#                                CCDC 
#
#######################################################################
#
# If this CIF has been generated from an entry in the Cambridge 
# Structural Database, then it will include bibliographic, chemical, 
# crystal, experimental, refinement or atomic coordinate data resulting 
# from the CCDC's data processing and validation procedures.
#
#######################################################################

data_UZAZUR
_symmetry_cell_setting           rhombohedral
_symmetry_space_group_name_H-M   'R -3'
_symmetry_Int_Tables_number      148
_space_group_name_Hall           '-R 3'
loop_
_symmetry_equiv_pos_site_id
_symmetry_equiv_pos_as_xyz
1 x,y,z
2 -y,x-y,z
3 -x+y,-x,z
4 2/3+x,1/3+y,1/3+z
5 2/3-y,1/3+x-y,1/3+z
6 2/3-x+y,1/3-x,1/3+z
7 1/3+x,2/3+y,2/3+z
8 1/3-y,2/3+x-y,2/3+z
9 1/3-x+y,2/3-x,2/3+z
10 -x,-y,-z
11 y,-x+y,-z
12 x-y,x,-z
13 1/3-x,2/3-y,2/3-z
14 1/3+y,2/3-x+y,2/3-z
15 1/3+x-y,2/3+x,2/3-z
16 2/3-x,1/3-y,1/3-z
17 2/3+y,1/3-x+y,1/3-z
18 2/3+x-y,1/3+x,1/3-z
_cell_length_a                   34.965(4)
_cell_length_b                   34.965(4)
_cell_length_c                   27.408(5)
_cell_angle_alpha                90
_cell_angle_beta                 90
_cell_angle_gamma                120
_cell_volume                     29018.5
loop_
_atom_site_label
_atom_site_type_symbol
_atom_site_fract_x
_atom_site_fract_y
_atom_site_fract_z
O2 O 0.2477(2) 0.3281(3) 0.3115(4)
H3 H 0.2388 0.3082 0.3340
H4 H 0.2672 0.3522 0.3251
O3 O 0.0951(3) 0.0686(4) 0.0243(4)
H5 H 0.0899 0.0446 0.0161
O4 O 0.25141(11) 0.39420(10) 0.17324(11)
H6 H 0.2694 0.3987 0.1597
O5 O 0.0066(5) 0.2633(6) 0.4022(5)
H7 H 0.0255 0.2899 0.4002
H8 H 0.0081 0.2496 0.3776
O6 O 0.0895(5) 0.1519(5) 0.0450(6)
H9 H 0.0691 0.1605 0.0443
H10 H 0.0816 0.1288 0.0355
O7 O 0.0412(3) 0.0875(4) 0.1619(4)
H11 H 0.0277 0.0670 0.1400
H12 H 0.0361 0.0725 0.1892
O8 O 0.2709(2) 0.4066(2) 0.3642(3)
H13 H 0.2717 0.4185 0.3914
H14 H 0.2573 0.4143 0.3441
O9 O 0.2911(2) 0.7095(2) 0.7915(3)
H15 H 0.3008 0.7079 0.8191
O10 O 0.0935(4) 0.4012(4) 0.1773(6)
H16 H 0.0816 0.4155 0.1659
H17 H 0.0948 0.4050 0.2085
Zn1 Zn -0.17278(4) 0.15430(3) 0.35884(3)
Zn2 Zn -0.3334 0.3333 -0.35541(7)
O11 O -0.22380(15) 0.14493(16) 0.31226(16)
O12 O -0.11885(17) 0.16222(18) 0.40218(17)
O13 O -0.23354(18) 0.20057(18) 0.33589(19)
O14 O -0.18484(19) 0.1935(2) 0.40667(18)
O15 O -0.21892(18) 0.0964(2) 0.3969(2)
O16 O -0.25624(18) 0.30598(18) -0.3350(2)
O17 O -0.27901(17) 0.35239(23) -0.31244(18)
O18 O -0.3334 0.3333 -0.4283(2)
O19 O -0.3904(2) 0.3160(3) -0.4019(2)
O20 O -0.06403(17) 0.22339(18) 0.34039(18)
O21 O -0.13105(15) 0.20989(16) 0.31696(17)
O22 O -0.21464(18) 0.04776(18) 0.32763(18)
O23 O -0.16032(16) 0.11583(23) 0.31087(16)
N1 N -0.30379(19) 0.1887(3) 0.0894(2)
N2 N -0.17739(19) 0.3445(2) -0.0891(2)
N3 N -0.00859(18) 0.3172(2) 0.1033(2)
N4 N 0.0137(2) 0.1913(2) -0.0807(2)
C1 C -0.2377(2) 0.1704(3) 0.3056(2)
C2 C -0.2617(2) 0.1670(2) 0.2590(3)
C3 C -0.2883(2) 0.1859(3) 0.2548(3)
H18 H -0.2906 0.2018 0.2808
C4 C -0.3113(2) 0.1813(3) 0.2124(3)
H19 H -0.3297 0.1933 0.2104
C5 C -0.3075(3) 0.1593(3) 0.1731(3)
C6 C -0.2808(2) 0.1402(3) 0.1774(3)
H20 H -0.2785 0.1245 0.1513
C7 C -0.2580(2) 0.1446(2) 0.2198(3)
H21 H -0.2399 0.1322 0.2221
C8 C -0.3323(3) 0.1540(3) 0.1247(3)
H22 H -0.3586 0.1560 0.1311
H23 H -0.3415 0.1252 0.1109
C9 C -0.2919(2) 0.1759(3) 0.0484(3)
H24 H -0.3016 0.1461 0.0434
C10 C -0.2657(2) 0.2063(3) 0.0144(2)
H25 H -0.2575 0.1969 -0.0134
C11 C -0.2516(2) 0.2499(2) 0.0205(3)
C12 C -0.2649(3) 0.2616(3) 0.0636(3)
H26 H -0.2561 0.2911 0.0692
C13 C -0.2897(3) 0.2316(3) 0.0962(3)
H27 H -0.2975 0.2405 0.1246
C14 C -0.2243(2) 0.2837(3) -0.0174(2)
C15 C -0.2079(2) 0.2725(3) -0.0571(2)
H28 H -0.2123 0.2440 -0.0596
C16 C -0.1852(3) 0.3025(3) -0.0928(3)
H29 H -0.1750 0.2941 -0.1198
C17 C -0.1918(2) 0.3572(3) -0.0501(3)
H30 H -0.1862 0.3860 -0.0476
C18 C -0.2152(3) 0.3266(3) -0.0133(3)
H31 H -0.2246 0.3354 0.0141
C19 C -0.1538(3) 0.3767(3) -0.1292(3)
H32 H -0.1263 0.3771 -0.1362
H33 H -0.1465 0.4060 -0.1186
C20 C -0.1805(2) 0.3654(3) -0.1741(3)
C21 C -0.2132(2) 0.3763(2) -0.1797(3)
H34 H -0.2184 0.3911 -0.1547
C22 C -0.2383(2) 0.3657(2) -0.2218(3)
H35 H -0.2600 0.3735 -0.2247
C23 C -0.2314(2) 0.3435(2) -0.2598(3)
C24 C -0.1995(3) 0.3321(2) -0.2543(3)
H36 H -0.1947 0.3170 -0.2793
C25 C -0.1737(3) 0.3429(3) -0.2115(3)
H37 H -0.1521 0.3349 -0.2084
C26 C -0.2582(2) 0.3326(2) -0.3056(3)
C27 C -0.0901(3) 0.2271(2) 0.3127(2)
C28 C -0.0710(2) 0.2571(2) 0.2685(2)
C29 C -0.0980(2) 0.2553(2) 0.2292(2)
H38 H -0.1282 0.2352 0.2302
C30 C -0.0804(2) 0.2827(2) 0.1895(3)
H39 H -0.0986 0.2814 0.1640
C31 C -0.0352(2) 0.3124(2) 0.1878(2)
C32 C -0.0081(2) 0.3143(3) 0.2262(3)
H40 H 0.0221 0.3343 0.2252
C33 C -0.0262(2) 0.2863(3) 0.2658(3)
H41 H -0.0079 0.2873 0.2910
C34 C -0.0153(3) 0.3421(3) 0.1436(3)
H42 H 0.0127 0.3676 0.1524
H43 H -0.0349 0.3525 0.1327
C35 C -0.0328(2) 0.3073(3) 0.0618(3)
H44 H -0.0534 0.3166 0.0584
C36 C -0.0278(2) 0.2844(3) 0.0256(3)
H45 H -0.0449 0.2780 -0.0024
C37 C 0.0020(2) 0.2702(2) 0.0294(2)
C38 C 0.0276(2) 0.2806(3) 0.0721(3)
H46 H 0.0484 0.2717 0.0764
C39 C 0.0207(3) 0.3050(3) 0.1082(3)
H47 H 0.0376 0.3126 0.1365
C40 C 0.0073(2) 0.2428(3) -0.0089(3)
C41 C -0.0219(2) 0.2281(3) -0.0488(2)
H48 H -0.0436 0.2360 -0.0517
C42 C -0.0179(2) 0.2018(3) -0.0837(3)
H49 H -0.0376 0.1912 -0.1096
C43 C 0.0425(3) 0.2058(3) -0.0423(3)
H50 H 0.0641 0.1977 -0.0399
C44 C 0.0395(2) 0.2324(3) -0.0071(3)
H51 H 0.0600 0.2433 0.0181
C45 C 0.0183(3) 0.1639(3) -0.1190(3)
H52 H -0.0099 0.1372 -0.1240
H53 H 0.0396 0.1555 -0.1087
C46 C 0.0330(3) 0.1890(2) -0.1652(3)
C47 C 0.0023(3) 0.1831(3) -0.2022(3)
H54 H -0.0275 0.1632 -0.1975
C48 C 0.0165(2) 0.2068(3) -0.2455(3)
H55 H -0.0041 0.2031 -0.2693
C49 C 0.0602(2) 0.2354(2) -0.2536(3)
C50 C 0.0919(3) 0.2404(2) -0.2171(2)
H56 H 0.1219 0.2591 -0.2227
C51 C 0.0779(3) 0.2176(2) -0.1742(3)
H57 H 0.0986 0.2212 -0.1506
C52 C -0.1835(3) 0.0767(2) 0.3006(2)
O17A O -0.35239(23) 0.36860(29) -0.31244(18)
O17B O -0.36860(29) 0.27901(17) -0.31244(18)
O19A O -0.3160(3) 0.2936(4) -0.4019(2)
O19B O -0.2936(4) 0.3904(2) -0.4019(2)
C49K C -0.1752(3) 0.0602(2) 0.2536(3)
C52J C 0.0767(2) 0.2602(4) -0.3006(2)
O1 O 0.1459(2) 0.3630(2) 0.1619(2)
H1 H 0.1372 0.3766 0.1812
H2 H 0.1737 0.3767 0.1625
H58? H -0.1049 0.1595 0.4261
H59? H -0.0995 0.1791 0.3813
H60? H -0.2006 0.1967 0.4279
H61? H -0.1632 0.2186 0.3999
H62? H -0.2268 0.0724 0.4122
H63? H -0.3132 0.3559 -0.4430
H64? H -0.3447 0.3123 -0.4489
H65? H -0.3856 0.3361 -0.4225
H66? H -0.3971 0.2925 -0.4181
H67? H -0.205(3) 0.108(3) 0.4236(19)
H68? H 0.0786 0.2843 0.1988
O24? O 0.0811(2) 0.2754(2) 0.1740(3)
loop_
_geom_bond_atom_site_label_1
_geom_bond_atom_site_label_2
_geom_bond_site_symmetry_1
_geom_bond_site_symmetry_2
O1 H1 1_555 1_555
H2 O1 1_555 1_555
O2 H3 1_555 1_555
H4 O2 1_555 1_555
O3 H5 1_555 1_555
O4 H6 1_555 1_555
O5 H7 1_555 1_555
H8 O5 1_555 1_555
O6 H9 1_555 1_555
H10 O6 1_555 1_555
O7 H11 1_555 1_555
H12 O7 1_555 1_555
O8 H13 1_555 1_555
H14 O8 1_555 1_555
O9 H15 1_555 1_555
O10 H16 1_555 1_555
H17 O10 1_555 1_555
Zn1 O11 1_555 1_555
Zn2 O17 1_555 1_555
O11 C1 1_555 1_555
O12 Zn1 1_555 1_555
O13 C1 1_555 1_555
O14 Zn1 1_555 1_555
O15 Zn1 1_555 1_555
O16 C26 1_555 1_555
O17 C26 1_555 1_555
O18 Zn2 1_555 1_555
O19 Zn2 1_555 1_555
O20 C27 1_555 1_555
O21 Zn1 1_555 1_555
O22 C52 1_555 1_555
O23 Zn1 1_555 1_555
N1 C8 1_555 1_555
N2 C16 1_555 1_555
N3 C34 1_555 1_555
N4 C42 1_555 1_555
C1 C2 1_555 1_555
C2 C3 1_555 1_555
C3 H18 1_555 1_555
C4 C3 1_555 1_555
H19 C4 1_555 1_555
C5 C4 1_555 1_555
C6 C5 1_555 1_555
H20 C6 1_555 1_555
C7 C2 1_555 1_555
H21 C7 1_555 1_555
C8 C5 1_555 1_555
H22 C8 1_555 1_555
H23 C8 1_555 1_555
C9 N1 1_555 1_555
H24 C9 1_555 1_555
C10 C9 1_555 1_555
H25 C10 1_555 1_555
C11 C10 1_555 1_555
C12 C11 1_555 1_555
H26 C12 1_555 1_555
C13 N1 1_555 1_555
H27 C13 1_555 1_555
C14 C11 1_555 1_555
C15 C14 1_555 1_555
H28 C15 1_555 1_555
C16 C15 1_555 1_555
H29 C16 1_555 1_555
C17 N2 1_555 1_555
H30 C17 1_555 1_555
C18 C14 1_555 1_555
H31 C18 1_555 1_555
C19 N2 1_555 1_555
H32 C19 1_555 1_555
H33 C19 1_555 1_555
C20 C19 1_555 1_555
C21 C20 1_555 1_555
H34 C21 1_555 1_555
C22 C21 1_555 1_555
H35 C22 1_555 1_555
C23 C22 1_555 1_555
C24 C23 1_555 1_555
H36 C24 1_555 1_555
C25 C20 1_555 1_555
H37 C25 1_555 1_555
C26 C23 1_555 1_555
C27 O21 1_555 1_555
C28 C27 1_555 1_555
C29 C28 1_555 1_555
H38 C29 1_555 1_555
C30 C29 1_555 1_555
H39 C30 1_555 1_555
C31 C30 1_555 1_555
C32 C31 1_555 1_555
H40 C32 1_555 1_555
C33 C28 1_555 1_555
H41 C33 1_555 1_555
C34 C31 1_555 1_555
H42 C34 1_555 1_555
H43 C34 1_555 1_555
C35 N3 1_555 1_555
H44 C35 1_555 1_555
C36 C35 1_555 1_555
H45 C36 1_555 1_555
C37 C36 1_555 1_555
C38 C37 1_555 1_555
H46 C38 1_555 1_555
C39 N3 1_555 1_555
H47 C39 1_555 1_555
C40 C37 1_555 1_555
C41 C40 1_555 1_555
H48 C41 1_555 1_555
C42 C41 1_555 1_555
H49 C42 1_555 1_555
C43 N4 1_555 1_555
H50 C43 1_555 1_555
C44 C40 1_555 1_555
H51 C44 1_555 1_555
C45 N4 1_555 1_555
H52 C45 1_555 1_555
H53 C45 1_555 1_555
C46 C45 1_555 1_555
C47 C46 1_555 1_555
H54 C47 1_555 1_555
C48 C47 1_555 1_555
H55 C48 1_555 1_555
C49 C48 1_555 1_555
C50 C49 1_555 1_555
H56 C50 1_555 1_555
C51 C46 1_555 1_555
H57 C51 1_555 1_555
C52 O23 1_555 1_555
O17A Zn2 1_555 1_555
O17B Zn2 1_555 1_555
O19A Zn2 1_555 1_555
O19B Zn2 1_555 1_555
C49K C52 1_555 1_555
C52J C49 1_555 1_555
C6 C7 1_555 1_555
C12 C13 1_555 1_555
C17 C18 1_555 1_555
C24 C25 1_555 1_555
C32 C33 1_555 1_555
C38 C39 1_555 1_555
C43 C44 1_555 1_555
C50 C51 1_555 1_555

#END
