
#######################################################################
#
#                 Cambridge Crystallographic Data Centre
#                                CCDC 
#
#######################################################################
#
# If this CIF has been generated from an entry in the Cambridge 
# Structural Database, then it will include bibliographic, chemical, 
# crystal, experimental, refinement or atomic coordinate data resulting 
# from the CCDC's data processing and validation procedures.
#
#######################################################################

data_UZEBUX
_symmetry_cell_setting           monoclinic
_symmetry_space_group_name_H-M   'P 21/c'
_symmetry_Int_Tables_number      14
_space_group_name_Hall           '-P 2ybc'
loop_
_symmetry_equiv_pos_site_id
_symmetry_equiv_pos_as_xyz
1 x,y,z
2 -x,1/2+y,1/2-z
3 -x,-y,-z
4 x,1/2-y,1/2+z
_cell_length_a                   9.85515(11)
_cell_length_b                   15.64116(16)
_cell_length_c                   11.22348(12)
_cell_angle_alpha                90
_cell_angle_beta                 96.5560(10)
_cell_angle_gamma                90
_cell_volume                     1718.74
loop_
_atom_site_label
_atom_site_type_symbol
_atom_site_fract_x
_atom_site_fract_y
_atom_site_fract_z
I1 I 0.434188(11) 0.615850(6) 0.598760(9)
Cu1 Cu 0.59799(2) 0.544844(12) 0.458484(17)
C1 C 0.92510(15) 0.49558(9) 0.47634(13)
H1 H 0.8977 0.4362 0.4813
H2 H 0.9118 0.5125 0.3927
S1 S 0.81846(4) 0.56206(2) 0.56245(3)
N1 N 0.65662(13) 0.63824(8) 0.33979(11)
C2 C 0.84344(16) 0.66461(9) 0.49969(13)
C3 C 0.76297(15) 0.69161(9) 0.39522(13)
C4 C 0.78450(17) 0.77349(9) 0.35005(14)
H3 H 0.7293 0.7934 0.2830
C5 C 0.88771(19) 0.82481(10) 0.40498(15)
H4 H 0.9037 0.8780 0.3724
C6 C 0.96733(19) 0.79797(10) 0.50770(15)
H5 H 1.0360 0.8330 0.5444
C7 C 0.94371(18) 0.71837(10) 0.55523(15)
H6 H 0.9956 0.7006 0.6253
C8 C 0.63047(16) 0.64558(9) 0.22488(13)
H7 H 0.6921 0.6771 0.1857
C9 C 0.51395(16) 0.60933(9) 0.15096(13)
C10 C 0.40378(16) 0.56975(10) 0.19611(13)
H8 H 0.4040 0.5635 0.2785
C11 C 0.29419(17) 0.53963(10) 0.11959(14)
H9 H 0.2205 0.5138 0.1501
C12 C 0.29570(17) 0.54846(9) -0.00337(14)
Cl1 Cl 0.16093(4) 0.50805(3) -0.10067(4)
C13 C 0.40272(18) 0.58762(10) -0.05093(14)
H10 H 0.4022 0.5930 -0.1335
C14 C 0.51088(17) 0.61882(9) 0.02636(14)
H11 H 0.5826 0.6465 -0.0047
I1B I 0.565812(11) 0.384150(6) 0.401240(9)
Cu1B Cu 0.40201(2) 0.455156(12) 0.541516(17)
Cu1B_2 Cu 1.40201(2) 0.455156(12) 0.541516(17)
C1B C 1.07490(15) 0.50442(9) 0.52366(13)
H1B H 1.1023 0.5638 0.5187
H2B H 1.0882 0.4875 0.6073
S1B S 1.18154(4) 0.43794(2) 0.43755(3)
S1B_2 S 0.18154(4) 0.43794(2) 0.43755(3)
N1B N 1.34338(13) 0.36176(8) 0.66021(11)
N1B_2 N 0.34338(13) 0.36176(8) 0.66021(11)
C2B C 1.15656(16) 0.33539(9) 0.50031(13)
C3B C 1.23703(15) 0.30839(9) 0.60478(13)
C4B C 1.21550(17) 0.22651(9) 0.64995(14)
H3B H 1.2707 0.2066 0.7170
C5B C 1.11229(19) 0.17519(10) 0.59502(15)
H4B H 1.0963 0.1220 0.6276
C6B C 1.03267(19) 0.20203(10) 0.49230(15)
H5B H 0.9640 0.1670 0.4556
C7B C 1.05629(18) 0.28163(10) 0.44477(15)
H6B H 1.0044 0.2994 0.3747
C8B C 1.36953(16) 0.35442(9) 0.77512(13)
H7B H 1.3079 0.3229 0.8143
C9B C 1.48605(16) 0.39067(9) 0.84904(13)
C10B C 1.59622(16) 0.43025(10) 0.80389(13)
H8B H 1.5960 0.4365 0.7215
C11B C 1.70581(17) 0.46037(10) 0.88041(14)
H9B H 1.7795 0.4862 0.8499
C12B C 1.70430(17) 0.45154(9) 1.00337(14)
Cl1B Cl 1.83907(4) 0.49195(3) 1.10067(4)
C13B C 1.59728(18) 0.41238(10) 1.05093(14)
H10B H 1.5978 0.4070 1.1335
C14B C 1.48912(17) 0.38118(9) 0.97364(14)
H11B H 1.4174 0.3535 1.0047
N2 N 0.94282(18) 0.12071(9) 0.21775(14)
C15 C 0.86687(19) 0.17465(11) 0.19952(15)
C16 C 0.7670(2) 0.24388(12) 0.17745(19)
H12 H 0.7142 0.2354 0.1010
H13 H 0.8139 0.2977 0.1775
H14 H 0.7073 0.2439 0.2394
loop_
_geom_bond_atom_site_label_1
_geom_bond_atom_site_label_2
_geom_bond_site_symmetry_1
_geom_bond_site_symmetry_2
I1 Cu1 1_555 1_555
Cu1 S1 1_555 1_555
C1 H1 1_555 1_555
H2 C1 1_555 1_555
S1 C1 1_555 1_555
N1 Cu1 1_555 1_555
C2 S1 1_555 1_555
C3 N1 1_555 1_555
C4 C3 1_555 1_555
H3 C4 1_555 1_555
C5 C4 1_555 1_555
H4 C5 1_555 1_555
C6 C5 1_555 1_555
H5 C6 1_555 1_555
C7 C2 1_555 1_555
H6 C7 1_555 1_555
C8 N1 1_555 1_555
H7 C8 1_555 1_555
C9 C8 1_555 1_555
C10 C9 1_555 1_555
H8 C10 1_555 1_555
C11 C10 1_555 1_555
H9 C11 1_555 1_555
C12 C11 1_555 1_555
Cl1 C12 1_555 1_555
C13 C12 1_555 1_555
H10 C13 1_555 1_555
C14 C9 1_555 1_555
H11 C14 1_555 1_555
N2 C15 1_555 1_555
C15 C16 1_555 1_555
C16 H12 1_555 1_555
H13 C16 1_555 1_555
H14 C16 1_555 1_555
I1B Cu1 1_555 1_555
Cu1B I1 1_555 1_555
Cu1B_2 S1B 1_555 1_555
C1B C1 1_555 1_555
H1B C1B 1_555 1_555
H2B C1B 1_555 1_555
S1B C1B 1_555 1_555
S1B_2 Cu1B 1_555 1_555
N1B Cu1B_2 1_555 1_555
N1B_2 Cu1B 1_555 1_555
C2B S1B 1_555 1_555
C3B N1B 1_555 1_555
C4B C3B 1_555 1_555
H3B C4B 1_555 1_555
C5B C4B 1_555 1_555
H4B C5B 1_555 1_555
C6B C5B 1_555 1_555
H5B C6B 1_555 1_555
C7B C2B 1_555 1_555
H6B C7B 1_555 1_555
C8B N1B 1_555 1_555
H7B C8B 1_555 1_555
C9B C8B 1_555 1_555
C10B C9B 1_555 1_555
H8B C10B 1_555 1_555
C11B C10B 1_555 1_555
H9B C11B 1_555 1_555
C12B C11B 1_555 1_555
Cl1B C12B 1_555 1_555
C13B C12B 1_555 1_555
H10B C13B 1_555 1_555
C14B C9B 1_555 1_555
H11B C14B 1_555 1_555
C2 C3 1_555 1_555
C6 C7 1_555 1_555
C13 C14 1_555 1_555
I1B Cu1B 1_555 1_555
C2B C3B 1_555 1_555
C6B C7B 1_555 1_555
C13B C14B 1_555 1_555

#END
