
#######################################################################
#
#                 Cambridge Crystallographic Data Centre
#                                CCDC 
#
#######################################################################
#
# If this CIF has been generated from an entry in the Cambridge 
# Structural Database, then it will include bibliographic, chemical, 
# crystal, experimental, refinement or atomic coordinate data resulting 
# from the CCDC's data processing and validation procedures.
#
#######################################################################

data_UZEGOW
_symmetry_cell_setting           triclinic
_symmetry_space_group_name_H-M   'P -1'
_symmetry_Int_Tables_number      2
_space_group_name_Hall           '-P 1'
loop_
_symmetry_equiv_pos_site_id
_symmetry_equiv_pos_as_xyz
1 x,y,z
2 -x,-y,-z
_cell_length_a                   9.3563(19)
_cell_length_b                   10.498(2)
_cell_length_c                   11.119(2)
_cell_angle_alpha                112.23(3)
_cell_angle_beta                 100.92(3)
_cell_angle_gamma                106.75(3)
_cell_volume                     911.535
loop_
_atom_site_label
_atom_site_type_symbol
_atom_site_fract_x
_atom_site_fract_y
_atom_site_fract_z
C1 C 0.7705(13) 0.5878(14) 0.1364(13)
H1 H 0.8708 0.5951 0.1240
H2 H 0.6933 0.4872 0.0781
H3 H 0.7810 0.6132 0.2311
O1 O 0.7243(15) 0.6809(14) 0.1036(13)
H4 H 0.7533 0.6864 0.0399
Hg1 Hg 0.35272(2) 0.49073(2) 0.32120(2)
O2 O 0.5957(5) 0.4853(5) 0.2747(5)
O3 O 0.1994(5) 0.2826(5) 0.2913(5)
O4 O 0.5784(6) 0.4004(6) 0.4245(4)
O5 O 0.0446(7) 0.2878(6) 0.1252(6)
N1 N 0.4103(5) 0.6973(4) 0.3130(4)
N2 N 0.3922(5) 0.8699(5) 0.2520(4)
C2 C 0.1545(6) 0.6310(7) 0.1408(6)
H5 H 0.0837 0.6801 0.1616
H6 H 0.1227 0.5416 0.1515
H7 H 0.1511 0.6054 0.0475
C3 C 0.3171(6) 0.7323(6) 0.2357(5)
C4 C 0.5544(6) 0.8211(5) 0.3860(5)
C5 C 0.6910(6) 0.8476(6) 0.4819(5)
H8 H 0.6997 0.7756 0.5087
C6 C 0.8138(7) 0.9853(7) 0.5361(6)
H9 H 0.9075 1.0062 0.6007
C7 C 0.8022(7) 1.0939(6) 0.4972(6)
H10 H 0.8885 1.1850 0.5357
C8 C 0.6668(7) 1.0700(6) 0.4034(6)
H11 H 0.6587 1.1434 0.3783
C9 C 0.5418(6) 0.9312(5) 0.3475(5)
C10 C 0.3324(7) 0.9469(7) 0.1821(6)
H12 H 0.3414 1.0423 0.2507
H13 H 0.2210 0.8872 0.1282
C11 C 0.4211(6) 0.9737(5) 0.0884(5)
C12 C 0.4629(6) 0.8653(6) 0.0042(5)
H14 H 0.4380 0.7739 0.0062
C13 C 0.4587(6) 1.1083(6) 0.0827(5)
H15 H 0.4308 1.1820 0.1382
C14 C 0.6544(7) 0.4444(6) 0.3564(6)
C15 C 0.0715(7) 0.2293(6) 0.1966(6)
C16 C -0.0495(8) 0.0845(7) 0.1721(7)
H16 H -0.1453 0.0573 0.1012
H17 H -0.0712 0.0960 0.2558
H18 H -0.0095 0.0074 0.1437
C17 C 0.8189(8) 0.4536(10) 0.3746(10)
H19 H 0.8287 0.4049 0.2859
H20 H 0.8432 0.4050 0.4288
H21 H 0.8914 0.5568 0.4210
Hg1A Hg 0.64728(2) 0.50927(2) 0.67880(2)
Hg1A_2 Hg 0.64728(2) 1.50927(2) -0.32120(2)
O2A O 0.4043(5) 0.5147(5) 0.7253(5)
O3A O 0.8006(5) 0.7174(5) 0.7087(5)
O4A O 0.4216(6) 0.5996(6) 0.5755(4)
O5A O 0.9554(7) 0.7122(6) 0.8748(6)
N1A N 0.5897(5) 1.3027(4) -0.3130(4)
N1A_2 N 0.5897(5) 0.3027(4) 0.6870(4)
N2A N 0.6078(5) 1.1301(5) -0.2520(4)
C2A C 0.8455(6) 1.3690(7) -0.1408(6)
H5A H 0.9163 1.3199 -0.1616
H6A H 0.8773 1.4584 -0.1515
H7A H 0.8489 1.3946 -0.0475
C3A C 0.6829(6) 1.2677(6) -0.2357(5)
C4A C 0.4456(6) 1.1789(5) -0.3860(5)
C5A C 0.3090(6) 1.1524(6) -0.4819(5)
H8A H 0.3003 1.2244 -0.5087
C6A C 0.1862(7) 1.0147(7) -0.5361(6)
H9A H 0.0925 0.9938 -0.6007
C7A C 0.1978(7) 0.9061(6) -0.4972(6)
H10A H 0.1115 0.8150 -0.5357
C8A C 0.3332(7) 0.9300(6) -0.4034(6)
H11A H 0.3413 0.8566 -0.3783
C9A C 0.4582(6) 1.0688(5) -0.3475(5)
C10A C 0.6676(7) 1.0531(7) -0.1821(6)
H12A H 0.6586 0.9577 -0.2507
H13A H 0.7790 1.1128 -0.1282
C11A C 0.5789(6) 1.0263(5) -0.0884(5)
C12A C 0.5371(6) 1.1347(6) -0.0042(5)
H14A H 0.5620 1.2261 -0.0062
C13A C 0.5413(6) 0.8917(6) -0.0827(5)
H15A H 0.5692 0.8180 -0.1382
C14A C 0.3456(7) 0.5556(6) 0.6436(6)
C15A C 0.9285(7) 0.7707(6) 0.8034(6)
C16A C 1.0495(8) 0.9155(7) 0.8279(7)
H16A H 1.1453 0.9427 0.8988
H17A H 1.0712 0.9040 0.7442
H18A H 1.0095 0.9926 0.8563
C17A C 0.1811(8) 0.5464(10) 0.6254(10)
H19A H 0.1713 0.5951 0.7141
H20A H 0.1568 0.5950 0.5712
H21A H 0.1086 0.4432 0.5790
loop_
_geom_bond_atom_site_label_1
_geom_bond_atom_site_label_2
_geom_bond_site_symmetry_1
_geom_bond_site_symmetry_2
C1 H1 1_555 1_555
H2 C1 1_555 1_555
H3 C1 1_555 1_555
O1 C1 1_555 1_555
H4 O1 1_555 1_555
Hg1 O2 1_555 1_555
O2 C14 1_555 1_555
O3 Hg1 1_555 1_555
O4 Hg1 1_555 1_555
O5 C15 1_555 1_555
N1 Hg1 1_555 1_555
N2 C3 1_555 1_555
C2 H5 1_555 1_555
H6 C2 1_555 1_555
H7 C2 1_555 1_555
C3 N1 1_555 1_555
C4 N1 1_555 1_555
C5 C4 1_555 1_555
H8 C5 1_555 1_555
C6 C5 1_555 1_555
H9 C6 1_555 1_555
C7 C6 1_555 1_555
H10 C7 1_555 1_555
C8 C7 1_555 1_555
H11 C8 1_555 1_555
C9 N2 1_555 1_555
C10 N2 1_555 1_555
H12 C10 1_555 1_555
H13 C10 1_555 1_555
C11 C10 1_555 1_555
C12 C11 1_555 1_555
H14 C12 1_555 1_555
C13 C11 1_555 1_555
H15 C13 1_555 1_555
C14 O4 1_555 1_555
C15 O3 1_555 1_555
C16 C15 1_555 1_555
H16 C16 1_555 1_555
H17 C16 1_555 1_555
H18 C16 1_555 1_555
C17 C14 1_555 1_555
H19 C17 1_555 1_555
H20 C17 1_555 1_555
H21 C17 1_555 1_555
Hg1A O4 1_555 1_555
Hg1A_2 N1A 1_555 1_555
O2A Hg1A 1_555 1_555
O3A Hg1A 1_555 1_555
O4A Hg1 1_555 1_555
O5A C15A 1_555 1_555
N1A C3A 1_555 1_555
N1A_2 Hg1A 1_555 1_555
N2A C3A 1_555 1_555
C2A H5A 1_555 1_555
H6A C2A 1_555 1_555
H7A C2A 1_555 1_555
C3A C2A 1_555 1_555
C4A N1A 1_555 1_555
C5A C4A 1_555 1_555
H8A C5A 1_555 1_555
C6A C5A 1_555 1_555
H9A C6A 1_555 1_555
C7A C6A 1_555 1_555
H10A C7A 1_555 1_555
C8A C7A 1_555 1_555
H11A C8A 1_555 1_555
C9A N2A 1_555 1_555
C10A N2A 1_555 1_555
H12A C10A 1_555 1_555
H13A C10A 1_555 1_555
C11A C10A 1_555 1_555
C12A C13 1_555 1_555
H14A C12A 1_555 1_555
C13A C12 1_555 1_555
H15A C13A 1_555 1_555
C14A O2A 1_555 1_555
C15A O3A 1_555 1_555
C16A C15A 1_555 1_555
H16A C16A 1_555 1_555
H17A C16A 1_555 1_555
H18A C16A 1_555 1_555
C17A C14A 1_555 1_555
H19A C17A 1_555 1_555
H20A C17A 1_555 1_555
H21A C17A 1_555 1_555
C2 C3 1_555 1_555
C4 C9 1_555 1_555
C8 C9 1_555 1_555
Hg1A O4A 1_555 1_555
O4A C14A 1_555 1_555
C4A C9A 1_555 1_555
C8A C9A 1_555 1_555
C11A C12A 1_555 1_555
C11A C13A 1_555 1_555

#END
