
#######################################################################
#
#                 Cambridge Crystallographic Data Centre
#                                CCDC 
#
#######################################################################
#
# If this CIF has been generated from an entry in the Cambridge 
# Structural Database, then it will include bibliographic, chemical, 
# crystal, experimental, refinement or atomic coordinate data resulting 
# from the CCDC's data processing and validation procedures.
#
#######################################################################

data_UZEJOZ
_symmetry_cell_setting           triclinic
_symmetry_space_group_name_H-M   'P -1'
_symmetry_Int_Tables_number      2
_space_group_name_Hall           '-P 1'
loop_
_symmetry_equiv_pos_site_id
_symmetry_equiv_pos_as_xyz
1 x,y,z
2 -x,-y,-z
_cell_length_a                   11.0743(6)
_cell_length_b                   12.4595(6)
_cell_length_c                   12.9130(6)
_cell_angle_alpha                84.011(3)
_cell_angle_beta                 67.981(3)
_cell_angle_gamma                71.221(3)
_cell_volume                     1563.58
loop_
_atom_site_label
_atom_site_type_symbol
_atom_site_fract_x
_atom_site_fract_y
_atom_site_fract_z
C1 C 0.6062(4) 0.7540(4) 0.0607(4)
C2 C 0.6119(5) 0.7640(4) -0.0497(4)
H1 H 0.5927 0.7097 -0.0799
C3 C 0.6451(6) 0.8519(5) -0.1145(5)
H2 H 0.6495 0.8566 -0.1881
C4 C 0.6722(6) 0.9341(5) -0.0695(5)
H3 H 0.6951 0.9936 -0.1136
C5 C 0.6656(5) 0.9288(4) 0.0385(5)
H4 H 0.6836 0.9850 0.0669
C6 C 0.6316(4) 0.8386(3) 0.1080(4)
C7 C 0.6256(5) 0.8291(4) 0.2204(4)
C8 C 0.5964(5) 0.7404(4) 0.2819(4)
H5 H 0.5920 0.7351 0.3556
C9 C 0.5727(5) 0.6561(4) 0.2356(5)
H6 H 0.5545 0.5945 0.2787
C10 C 0.5757(5) 0.6622(4) 0.1288(4)
C11 C 0.6440(6) 0.9136(5) 0.3688(5)
H7 H 0.5634 0.8935 0.4171
H8 H 0.6345 0.9885 0.3916
C12 C 0.7692(6) 0.8296(5) 0.3857(4)
C13 C 0.5094(6) 0.4960(4) 0.1439(6)
H9 H 0.5656 0.4651 0.1888
H10 H 0.5224 0.4354 0.0956
C14 C 0.3617(7) 0.5350(5) 0.2201(6)
C15 C 0.1046(8) 0.5154(6) 0.1247(8)
H11 H 0.1804 0.5333 0.0736
C16 C 0.0673(10) 0.4291(8) 0.0993(11)
H12 H 0.1195 0.3891 0.0321
C17 C -0.0390(13) 0.4024(9) 0.1673(14)
H13 H -0.0619 0.3431 0.1493
C18 C -0.1148(11) 0.4601(8) 0.2626(12)
H14 H -0.1932 0.4438 0.3110
C19 C -0.0740(8) 0.5468(6) 0.2890(8)
H15 H -0.1253 0.5862 0.3567
C20 C 0.2403(5) 0.7800(4) 0.0234(4)
H16 H 0.3116 0.7547 0.0502
C21 C 0.2683(5) 0.8133(4) -0.0845(4)
H17 H 0.3578 0.8081 -0.1305
C22 C 0.1655(6) 0.8542(4) -0.1253(4)
H18 H 0.1822 0.8782 -0.1986
C23 C 0.0354(6) 0.8583(5) -0.0529(4)
H19 H -0.0380 0.8855 -0.0770
C24 C 0.0147(5) 0.8227(4) 0.0536(4)
H20 H -0.0740 0.8271 0.1010
C25 C 0.0278(6) 0.9669(5) 0.3120(5)
H21 H -0.0455 0.9745 0.2901
C26 C 0.0393(8) 1.0621(5) 0.3460(5)
H22 H -0.0245 1.1325 0.3470
C27 C 0.1466(8) 1.0517(6) 0.3784(5)
H23 H 0.1563 1.1148 0.4032
C28 C 0.2368(8) 0.9500(7) 0.3739(6)
H24 H 0.3113 0.9405 0.3949
C29 C 0.2172(6) 0.8580(5) 0.3372(5)
H25 H 0.2817 0.7873 0.3331
Co1 Co 0.08117(7) 0.71667(6) 0.26177(5)
N1 N 0.0348(5) 0.5738(4) 0.2205(5)
N2 N 0.1140(4) 0.7821(3) 0.0929(3)
N3 N 0.1149(4) 0.8643(4) 0.3084(3)
O1 O 0.7538(6) 0.7946(5) 0.4827(3)
O2 O 0.8763(4) 0.8045(3) 0.3044(3)
O3 O 0.6482(4) 0.9182(3) 0.2574(3)
O4 O 0.5550(4) 0.5829(3) 0.0767(3)
O5 O 0.2883(3) 0.6307(3) 0.2082(3)
O6 O 0.3220(6) 0.4658(6) 0.2858(8)
O7 O 0.0654(5) 0.6548(4) 0.4276(3)
H26 H 0.1031 0.5861 0.4243
Co1_2 Co 1.08117(7) 0.71667(6) 0.26177(5)
O2_2 O -0.1237(4) 0.8045(3) 0.3044(3)
O8 O 0.5537(10) 0.7571(8) 0.6652(8)
O9 O 0.8535(11) 0.6188(14) 0.5878(10)
O10 O 0.3357(17) 0.752(2) 0.5805(12)
O11 O 0.5000 0.5000 0.5000
loop_
_geom_bond_atom_site_label_1
_geom_bond_atom_site_label_2
_geom_bond_site_symmetry_1
_geom_bond_site_symmetry_2
C1 C2 1_555 1_555
C2 H1 1_555 1_555
C3 C2 1_555 1_555
H2 C3 1_555 1_555
C4 C3 1_555 1_555
H3 C4 1_555 1_555
C5 C4 1_555 1_555
H4 C5 1_555 1_555
C6 C1 1_555 1_555
C7 C6 1_555 1_555
C8 C7 1_555 1_555
H5 C8 1_555 1_555
C9 C8 1_555 1_555
H6 C9 1_555 1_555
C10 C1 1_555 1_555
C11 H7 1_555 1_555
H8 C11 1_555 1_555
C12 C11 1_555 1_555
C13 H9 1_555 1_555
H10 C13 1_555 1_555
C14 C13 1_555 1_555
C15 H11 1_555 1_555
C16 C15 1_555 1_555
H12 C16 1_555 1_555
C17 C16 1_555 1_555
H13 C17 1_555 1_555
C18 C17 1_555 1_555
H14 C18 1_555 1_555
C19 C18 1_555 1_555
H15 C19 1_555 1_555
C20 H16 1_555 1_555
C21 C20 1_555 1_555
H17 C21 1_555 1_555
C22 C21 1_555 1_555
H18 C22 1_555 1_555
C23 C22 1_555 1_555
H19 C23 1_555 1_555
C24 C23 1_555 1_555
H20 C24 1_555 1_555
C25 H21 1_555 1_555
C26 C25 1_555 1_555
H22 C26 1_555 1_555
C27 C26 1_555 1_555
H23 C27 1_555 1_555
C28 C27 1_555 1_555
H24 C28 1_555 1_555
C29 C28 1_555 1_555
H25 C29 1_555 1_555
Co1 N1 1_555 1_555
N1 C15 1_555 1_555
N2 C20 1_555 1_555
N3 C25 1_555 1_555
O1 C12 1_555 1_555
O2 C12 1_555 1_555
O3 C7 1_555 1_555
O4 C10 1_555 1_555
O5 C14 1_555 1_555
O6 C14 1_555 1_555
O7 Co1 1_555 1_555
H26 O7 1_555 1_555
Co1_2 O2 1_555 1_555
O2_2 Co1 1_555 1_555
C5 C6 1_555 1_555
C9 C10 1_555 1_555
C11 O3 1_555 1_555
C13 O4 1_555 1_555
C19 N1 1_555 1_555
C24 N2 1_555 1_555
C29 N3 1_555 1_555
Co1 N2 1_555 1_555
Co1 N3 1_555 1_555
Co1 O5 1_555 1_555

#END
