
#######################################################################
#
#                 Cambridge Crystallographic Data Centre
#                                CCDC 
#
#######################################################################
#
# If this CIF has been generated from an entry in the Cambridge 
# Structural Database, then it will include bibliographic, chemical, 
# crystal, experimental, refinement or atomic coordinate data resulting 
# from the CCDC's data processing and validation procedures.
#
#######################################################################

data_UZEJUF
_symmetry_cell_setting           monoclinic
_symmetry_space_group_name_H-M   'P 21/c'
_symmetry_Int_Tables_number      14
_space_group_name_Hall           '-P 2ybc'
loop_
_symmetry_equiv_pos_site_id
_symmetry_equiv_pos_as_xyz
1 x,y,z
2 -x,1/2+y,1/2-z
3 -x,-y,-z
4 x,1/2-y,1/2+z
_cell_length_a                   7.5646(7)
_cell_length_b                   28.244(2)
_cell_length_c                   9.0913(8)
_cell_angle_alpha                90
_cell_angle_beta                 94.357(5)
_cell_angle_gamma                90
_cell_volume                     1936.78
loop_
_atom_site_label
_atom_site_type_symbol
_atom_site_fract_x
_atom_site_fract_y
_atom_site_fract_z
Mn1 Mn 0.37101(7) 0.707429(14) 0.57522(5)
C1 C 0.6360(4) 0.58177(9) 1.0431(3)
C2 C 0.5464(4) 0.65042(10) 0.9092(3)
H1 H 0.4614 0.6326 0.8461
H2 H 0.6575 0.6510 0.8626
C3 C 0.4798(4) 0.70048(9) 0.9241(3)
C4 C 0.9103(4) 0.36817(10) 0.9635(4)
C5 C 0.7236(4) 0.51113(9) 1.1883(3)
C6 C 0.6556(4) 0.55839(9) 1.1820(3)
C7 C 0.7622(4) 0.48845(9) 1.0550(4)
C8 C 0.6091(4) 0.57999(10) 1.3136(4)
H3 H 0.5593 0.6101 1.3101
C9 C 0.7497(5) 0.48891(11) 1.3268(4)
H4 H 0.7949 0.4583 1.3327
C10 C 0.7426(4) 0.51203(10) 0.9250(4)
H5 H 0.7707 0.4970 0.8387
C11 C 0.8568(4) 0.41946(9) 0.9385(3)
H6 H 0.9525 0.4363 0.8964
H7 H 0.7536 0.4209 0.8684
C12 C 0.6363(5) 0.55732(12) 1.4459(4)
H8 H 0.6065 0.5721 1.5320
C13 C 0.6795(4) 0.55943(10) 0.9188(3)
H9 H 0.6680 0.5753 0.8289
C14 C 0.7098(6) 0.51144(12) 1.4518(4)
H10 H 0.7311 0.4964 1.5425
O1 O 0.4320(3) 0.72116(7) 0.8052(2)
O2 O 0.5723(3) 0.62758(7) 1.0471(2)
O3 O 0.9494(3) 0.34702(7) 0.8472(3)
O4 O 0.8171(3) 0.44191(7) 1.0709(2)
O5 O 0.9098(3) 0.34947(8) 1.0855(3)
O6 O 0.4818(3) 0.71976(7) 1.0479(2)
O7 O 0.3331(3) 0.68580(9) 0.3456(3)
H11 H 0.2274 0.6809 0.3240
O8 O 0.6333(4) 0.67718(9) 0.5571(3)
H12 H 0.7050 0.6904 0.6155
O9 O 0.2249(4) 0.64472(8) 0.6360(3)
H13 H 0.1718 0.6335 0.5621
O10 O 0.1184(3) 0.74579(8) 0.5627(3)
H14 H 0.1376 0.7744 0.5635
H15 H 0.040(5) 0.7342(13) 0.619(5)
H16 H 0.188(5) 0.6400(13) 0.715(5)
H17 H 0.675(6) 0.6791(14) 0.482(5)
H24 H 0.370(8) 0.7043(18) 0.298(7)
Mn1C Mn 0.37101(7) 0.792571(14) 1.07522(5)
O6C O 0.4818(3) 0.78024(7) 0.5479(2)
O11 O 0.2440(4) 0.30411(9) 0.7218(3)
H19 H 0.161(5) 0.3210(12) 0.757(4)
H21 H 0.311(6) 0.3064(15) 0.781(5)
O12 O 0.1151(4) 0.28598(9) 0.2448(3)
H22 H 0.150(7) 0.2560(17) 0.213(6)
H23 H 0.056(7) 0.3004(15) 0.177(6)
O13 O 1.0531(6) 0.59531(14) 0.4136(4)
H18 H 1.027(9) 0.614(2) 0.330(8)
H20 H 0.971(13) 0.605(3) 0.443(12)
loop_
_geom_bond_atom_site_label_1
_geom_bond_atom_site_label_2
_geom_bond_site_symmetry_1
_geom_bond_site_symmetry_2
Mn1 O1 1_555 1_555
C1 C6 1_555 1_555
C2 H1 1_555 1_555
H2 C2 1_555 1_555
C3 C2 1_555 1_555
C4 C11 1_555 1_555
C5 C6 1_555 1_555
C6 C8 1_555 1_555
C7 C5 1_555 1_555
C8 H3 1_555 1_555
C9 C5 1_555 1_555
H4 C9 1_555 1_555
C10 C7 1_555 1_555
H5 C10 1_555 1_555
C11 H6 1_555 1_555
H7 C11 1_555 1_555
C12 C8 1_555 1_555
H8 C12 1_555 1_555
C13 C1 1_555 1_555
H9 C13 1_555 1_555
C14 C9 1_555 1_555
H10 C14 1_555 1_555
O1 C3 1_555 1_555
O2 C1 1_555 1_555
O3 C4 1_555 1_555
O4 C7 1_555 1_555
O5 C4 1_555 1_555
O6 C3 1_555 1_555
O7 Mn1 1_555 1_555
H11 O7 1_555 1_555
O8 Mn1 1_555 1_555
H12 O8 1_555 1_555
O9 Mn1 1_555 1_555
H13 O9 1_555 1_555
O10 Mn1 1_555 1_555
H14 O10 1_555 1_555
O11 H19 1_555 1_555
O12 H22 1_555 1_555
O13 H18 1_555 1_555
H15 O10 1_555 1_555
H16 O9 1_555 1_555
H17 O8 1_555 1_555
H20 O13 1_555 1_555
H21 O11 1_555 1_555
H23 O12 1_555 1_555
H24 O7 1_555 1_555
Mn1C O6 1_555 1_555
O6C Mn1 1_555 1_555
C2 O2 1_555 1_555
C10 C13 1_555 1_555
C11 O4 1_555 1_555
C12 C14 1_555 1_555

#END
