
#######################################################################
#
#                 Cambridge Crystallographic Data Centre
#                                CCDC 
#
#######################################################################
#
# If this CIF has been generated from an entry in the Cambridge 
# Structural Database, then it will include bibliographic, chemical, 
# crystal, experimental, refinement or atomic coordinate data resulting 
# from the CCDC's data processing and validation procedures.
#
#######################################################################

data_UZEKAM
_symmetry_cell_setting           orthorhombic
_symmetry_space_group_name_H-M   'P b c a'
_symmetry_Int_Tables_number      61
_space_group_name_Hall           '-P 2ac 2ab'
loop_
_symmetry_equiv_pos_site_id
_symmetry_equiv_pos_as_xyz
1 x,y,z
2 1/2-x,-y,1/2+z
3 -x,1/2+y,1/2-z
4 1/2+x,1/2-y,-z
5 -x,-y,-z
6 1/2+x,y,1/2-z
7 x,1/2-y,1/2+z
8 1/2-x,1/2+y,z
_cell_length_a                   23.8378(7)
_cell_length_b                   7.7832(2)
_cell_length_c                   24.6589(7)
_cell_angle_alpha                90
_cell_angle_beta                 90
_cell_angle_gamma                90
_cell_volume                     4575.07
loop_
_atom_site_label
_atom_site_type_symbol
_atom_site_fract_x
_atom_site_fract_y
_atom_site_fract_z
Cu1 Cu 0.407357(15) -0.13032(4) 0.139655(13)
C1 C 0.40914(13) -0.3043(4) 0.37129(12)
H1 H 0.4311 -0.4029 0.3719
C2 C 0.33262(11) -0.1483(3) 0.33110(11)
C3 C 0.30466(14) -0.1405(4) -0.00032(12)
H2 H 0.3090 -0.1816 -0.0355
C4 C 0.41967(12) -0.1761(3) 0.40732(12)
C5 C 0.46960(13) -0.1147(4) 0.24300(12)
H3 H 0.4352 -0.0789 0.2567
C6 C 0.38519(11) -0.0261(3) 0.40736(11)
C7 C 0.34105(11) -0.0128(3) 0.36965(10)
C8 C 0.53262(12) -0.3893(4) 0.41664(11)
C9 C 0.39450(12) 0.1091(3) 0.44473(12)
H4 H 0.4232 0.1003 0.4701
C10 C 0.30719(13) 0.1367(4) 0.37067(12)
H5 H 0.2773 0.1467 0.3467
C11 C 0.34685(13) -0.1574(3) 0.03701(12)
H6 H 0.3798 -0.2117 0.0264
C12 C 0.51406(15) -0.1212(4) 0.27765(14)
H7 H 0.5098 -0.0907 0.3139
C13 C 0.48782(13) -0.3336(4) 0.45711(11)
H8 H 0.4591 -0.4217 0.4586
H9 H 0.5048 -0.3263 0.4928
C14 C 0.32320(13) -0.2688(4) 0.20989(12)
C15 C 0.36561(12) -0.2903(4) 0.33318(11)
H10 H 0.3593 -0.3798 0.3090
C16 C 0.29509(14) -0.0221(4) 0.10212(13)
H11 H 0.2917 0.0203 0.1372
C17 C 0.31793(14) 0.2661(4) 0.40639(13)
H12 H 0.2959 0.3647 0.4058
C18 C 0.27989(13) -0.2483(4) 0.25457(11)
H13 H 0.2440 -0.2232 0.2378
H14 H 0.2762 -0.3577 0.2731
C19 C 0.36136(13) 0.2527(4) 0.44366(14)
H15 H 0.3680 0.3416 0.4680
C20 C 0.56527(15) -0.1736(4) 0.25816(16)
H16 H 0.5965 -0.1790 0.2807
C21 C 0.56905(15) -0.2179(4) 0.20438(16)
H17 H 0.6031 -0.2537 0.1899
C22 C 0.25552(15) -0.0608(4) 0.01555(14)
H18 H 0.2261 -0.0475 -0.0089
C23 C 0.52242(14) -0.2092(4) 0.17220(13)
H19 H 0.5256 -0.2411 0.1360
C24 C 0.25071(15) -0.0022(4) 0.06729(15)
H20 H 0.2178 0.0506 0.0789
O1 O 0.35562(8) -0.1446(3) 0.20106(8)
O2 O 0.29082(8) -0.1189(2) 0.29437(8)
O3 O 0.54057(8) -0.5516(2) 0.41644(7)
O4 O 0.46184(9) -0.1739(2) 0.44512(8)
O5 O 0.55764(10) -0.2848(3) 0.38854(9)
O6 O 0.32107(10) -0.4057(3) 0.18483(9)
N1 N 0.34310(10) -0.0997(3) 0.08801(9)
N2 N 0.47255(10) -0.1568(3) 0.19057(9)
O7 O 0.40746(14) -0.4295(3) 0.11095(12)
H21 H 0.4233(17) -0.499(5) 0.1001(17)
H22 H 0.376(3) -0.446(8) 0.137(2)
Cu1B Cu 0.592643(15) -0.63032(4) 0.360345(13)
O3B O 0.45943(8) -0.0516(2) 0.08356(7)
loop_
_geom_bond_atom_site_label_1
_geom_bond_atom_site_label_2
_geom_bond_site_symmetry_1
_geom_bond_site_symmetry_2
Cu1 O1 1_555 1_555
C1 H1 1_555 1_555
C2 C7 1_555 1_555
C3 H2 1_555 1_555
C4 C1 1_555 1_555
C5 H3 1_555 1_555
C6 C4 1_555 1_555
C7 C6 1_555 1_555
C8 C13 1_555 1_555
C9 C6 1_555 1_555
H4 C9 1_555 1_555
C10 C7 1_555 1_555
H5 C10 1_555 1_555
C11 C3 1_555 1_555
H6 C11 1_555 1_555
C12 C5 1_555 1_555
H7 C12 1_555 1_555
C13 H8 1_555 1_555
H9 C13 1_555 1_555
C14 C18 1_555 1_555
C15 C1 1_555 1_555
H10 C15 1_555 1_555
C16 H11 1_555 1_555
C17 C10 1_555 1_555
H12 C17 1_555 1_555
C18 H13 1_555 1_555
H14 C18 1_555 1_555
C19 C9 1_555 1_555
H15 C19 1_555 1_555
C20 C12 1_555 1_555
H16 C20 1_555 1_555
C21 C20 1_555 1_555
H17 C21 1_555 1_555
C22 C3 1_555 1_555
H18 C22 1_555 1_555
C23 C21 1_555 1_555
H19 C23 1_555 1_555
C24 C16 1_555 1_555
H20 C24 1_555 1_555
O1 C14 1_555 1_555
O2 C2 1_555 1_555
O3 C8 1_555 1_555
O4 C4 1_555 1_555
O5 C8 1_555 1_555
O6 C14 1_555 1_555
N1 Cu1 1_555 1_555
N2 Cu1 1_555 1_555
O7 Cu1 1_555 1_555
H21 O7 1_555 1_555
H22 O7 1_555 1_555
Cu1B O3 1_555 1_555
O3B Cu1 1_555 1_555
C2 C15 1_555 1_555
C5 N2 1_555 1_555
C11 N1 1_555 1_555
C13 O4 1_555 1_555
C16 N1 1_555 1_555
C17 C19 1_555 1_555
C18 O2 1_555 1_555
C22 C24 1_555 1_555
C23 N2 1_555 1_555

#END
