
#######################################################################
#
#                 Cambridge Crystallographic Data Centre
#                                CCDC 
#
#######################################################################
#
# If this CIF has been generated from an entry in the Cambridge 
# Structural Database, then it will include bibliographic, chemical, 
# crystal, experimental, refinement or atomic coordinate data resulting 
# from the CCDC's data processing and validation procedures.
#
#######################################################################

data_UZEPEV
_symmetry_cell_setting           triclinic
_symmetry_space_group_name_H-M   'P -1'
_symmetry_Int_Tables_number      2
_space_group_name_Hall           '-P 1'
loop_
_symmetry_equiv_pos_site_id
_symmetry_equiv_pos_as_xyz
1 x,y,z
2 -x,-y,-z
_cell_length_a                   7.2757(5)
_cell_length_b                   11.9853(11)
_cell_length_c                   12.0905(10)
_cell_angle_alpha                107.697(7)
_cell_angle_beta                 95.298(6)
_cell_angle_gamma                94.217(7)
_cell_volume                     994.372
loop_
_atom_site_label
_atom_site_type_symbol
_atom_site_fract_x
_atom_site_fract_y
_atom_site_fract_z
C1 C 0.4330(4) 0.8133(3) 0.3600(3)
H1 H 0.4845 0.8914 0.3895
C2 C 0.4820(4) 0.7360(3) 0.4196(3)
C3 C 0.2880(6) 0.5917(3) 0.2856(3)
H2 H 0.2327 0.5143 0.2574
C4 C 0.2431(5) 0.6677(3) 0.2258(3)
H3 H 0.1602 0.6404 0.1576
C5 C 0.6249(4) 0.7723(3) 0.5242(3)
C6 C 0.6869(6) 0.6801(4) 0.5749(4)
H4 H 0.5859 0.6198 0.5631
H5 H 0.7257 0.7152 0.6571
H6 H 0.7889 0.6460 0.5369
C7 C 1.3074(4) 0.9769(3) 0.7582(3)
H7 H 1.3537 0.9366 0.6897
C8 C 1.3532(4) 1.0840(3) 0.9505(3)
H8 H 1.4314 1.1219 1.0192
C9 C 1.1636(4) 1.0839(3) 0.9515(3)
H9 H 1.1175 1.1199 1.0214
C10 C 1.1161(4) 0.9787(3) 0.7576(2)
C11 C 0.9880(4) 0.9228(3) 0.6477(2)
C12 C 1.0679(5) 0.8725(4) 0.5362(3)
H10 H 0.9709 0.8524 0.4718
H11 H 1.1244 0.8031 0.5381
H12 H 1.1597 0.9297 0.5270
N1 N 1.4269(3) 1.0312(2) 0.8539(2)
N2 N 0.3151(4) 0.7804(3) 0.2625(2)
N3 N 1.0444(3) 1.0336(2) 0.8551(2)
N4 N 0.8151(4) 0.9217(2) 0.6587(2)
N5 N 0.6873(4) 0.8801(2) 0.5594(2)
N6 N 0.4081(4) 0.6238(3) 0.3831(3)
Ag1 Ag 0.26192(3) 0.92410(3) 0.16465(2)
C13 C 0.2548(8) 0.6299(4) -0.2425(4)
O1 O 0.1288(10) 0.6123(4) -0.0601(4)
O2 O -0.0454(5) 0.7044(4) -0.1729(3)
O3 O 0.2334(5) 0.8049(3) -0.0628(3)
F1 F 0.2609(8) 0.6913(4) -0.3132(3)
F2 F 0.4215(7) 0.6141(6) -0.2097(4)
F3 F 0.1786(8) 0.5269(4) -0.3046(4)
S1 S 0.13260(14) 0.69425(8) -0.12065(8)
C1A C 0.5670(4) 1.1867(3) 0.6400(3)
H1A H 0.5155 1.1086 0.6105
C2A C 0.5180(4) 1.2640(3) 0.5804(3)
C3A C 0.7120(6) 1.4083(3) 0.7144(3)
H2A H 0.7673 1.4857 0.7426
C4A C 0.7569(5) 1.3323(3) 0.7742(3)
H3A H 0.8398 1.3596 0.8424
C5A C 0.3751(4) 1.2277(3) 0.4758(3)
C6A C 0.3131(6) 1.3199(4) 0.4251(4)
H4A H 0.4141 1.3802 0.4369
H5A H 0.2743 1.2848 0.3429
H6A H 0.2111 1.3540 0.4631
C7A C -0.3074(4) 1.0231(3) 0.2418(3)
H7A H -0.3537 1.0634 0.3103
C8A C -0.3532(4) 0.9160(3) 0.0495(3)
H8A H -0.4314 0.8781 -0.0192
C9A C -0.1636(4) 0.9161(3) 0.0485(3)
H9A H -0.1175 0.8801 -0.0214
C10A C -0.1161(4) 1.0213(3) 0.2424(2)
C11A C 0.0120(4) 1.0772(3) 0.3523(2)
C12A C -0.0679(5) 1.1275(4) 0.4638(3)
H10A H 0.0291 1.1476 0.5282
H11A H -0.1244 1.1969 0.4619
H12A H -0.1597 1.0703 0.4730
N1A N -0.4269(3) 0.9688(2) 0.1461(2)
N1_2 N 0.4269(3) 1.0312(2) 0.8539(2)
N1A_2 N 0.5731(3) 0.9688(2) 0.1461(2)
N2A N 0.6849(4) 1.2196(3) 0.7375(2)
N3A N -0.0444(3) 0.9664(2) 0.1449(2)
N4A N 0.1849(4) 1.0783(2) 0.3413(2)
N5A N 0.3127(4) 1.1199(2) 0.4406(2)
N6A N 0.5919(4) 1.3762(3) 0.6169(3)
Ag1A Ag 0.73808(3) 1.07590(3) 0.83535(2)
Ag1_2 Ag -0.73808(3) 0.92410(3) 0.16465(2)
Ag1A_2 Ag 1.73808(3) 1.07590(3) 0.83535(2)
C13A C 0.7452(8) 1.3701(4) 1.2425(4)
O1A O 0.8712(10) 1.3877(4) 1.0601(4)
O2A O 1.0454(5) 1.2956(4) 1.1729(3)
O3A O 0.7666(5) 1.1951(3) 1.0628(3)
F1A F 0.7391(8) 1.3087(4) 1.3132(3)
F2A F 0.5785(7) 1.3859(6) 1.2097(4)
F3A F 0.8214(8) 1.4731(4) 1.3046(4)
S1A S 0.86740(14) 1.30575(8) 1.12065(8)
C14 C 0.2405(6) 0.3017(4) 0.8328(4)
C15 C 0.3145(8) 0.3769(4) 0.9481(5)
H13 H 0.4402 0.3623 0.9654
H14 H 0.2407 0.3608 1.0045
H15 H 0.3118 0.4578 0.9514
N7 N 0.1824(6) 0.2414(4) 0.7439(4)
loop_
_geom_bond_atom_site_label_1
_geom_bond_atom_site_label_2
_geom_bond_site_symmetry_1
_geom_bond_site_symmetry_2
C1 H1 1_555 1_555
C2 C1 1_555 1_555
C3 H2 1_555 1_555
C4 C3 1_555 1_555
H3 C4 1_555 1_555
C5 C2 1_555 1_555
C6 C5 1_555 1_555
H4 C6 1_555 1_555
H5 C6 1_555 1_555
H6 C6 1_555 1_555
C7 H7 1_555 1_555
C8 H8 1_555 1_555
C9 C8 1_555 1_555
H9 C9 1_555 1_555
C10 C7 1_555 1_555
C11 C10 1_555 1_555
C12 C11 1_555 1_555
H10 C12 1_555 1_555
H11 C12 1_555 1_555
H12 C12 1_555 1_555
N1 C7 1_555 1_555
N2 C1 1_555 1_555
N3 C9 1_555 1_555
N4 C11 1_555 1_555
N5 C5 1_555 1_555
N6 C2 1_555 1_555
Ag1 N2 1_555 1_555
C13 F1 1_555 1_555
O1 S1 1_555 1_555
O2 S1 1_555 1_555
O3 Ag1 1_555 1_555
F2 C13 1_555 1_555
F3 C13 1_555 1_555
S1 C13 1_555 1_555
C14 C15 1_555 1_555
C15 H13 1_555 1_555
H14 C15 1_555 1_555
H15 C15 1_555 1_555
N7 C14 1_555 1_555
C1A H1A 1_555 1_555
C2A C1A 1_555 1_555
C3A H2A 1_555 1_555
C4A C3A 1_555 1_555
H3A C4A 1_555 1_555
C5A C2A 1_555 1_555
C6A C5A 1_555 1_555
H4A C6A 1_555 1_555
H5A C6A 1_555 1_555
H6A C6A 1_555 1_555
C7A H7A 1_555 1_555
C8A H8A 1_555 1_555
C9A C8A 1_555 1_555
H9A C9A 1_555 1_555
C10A C7A 1_555 1_555
C11A C10A 1_555 1_555
C12A C11A 1_555 1_555
H10A C12A 1_555 1_555
H11A C12A 1_555 1_555
H12A C12A 1_555 1_555
N1A C7A 1_555 1_555
N1_2 Ag1A 1_555 1_555
N1A_2 Ag1 1_555 1_555
N2A C1A 1_555 1_555
N3A Ag1 1_555 1_555
N4A Ag1 1_555 1_555
N5A C5A 1_555 1_555
N6A C2A 1_555 1_555
Ag1A N3 1_555 1_555
Ag1_2 N1A 1_555 1_555
Ag1A_2 N1 1_555 1_555
C13A F1A 1_555 1_555
O1A S1A 1_555 1_555
O2A S1A 1_555 1_555
O3A Ag1A 1_555 1_555
F2A C13A 1_555 1_555
F3A C13A 1_555 1_555
S1A C13A 1_555 1_555
C3 N6 1_555 1_555
C4 N2 1_555 1_555
C8 N1 1_555 1_555
C10 N3 1_555 1_555
N4 N5 1_555 1_555
N4 Ag1A 1_555 1_555
O3 S1 1_555 1_555
C3A N6A 1_555 1_555
C4A N2A 1_555 1_555
C8A N1A 1_555 1_555
C9A N3A 1_555 1_555
C10A N3A 1_555 1_555
C11A N4A 1_555 1_555
N2A Ag1A 1_555 1_555
N4A N5A 1_555 1_555
O3A S1A 1_555 1_555

#END
