
#######################################################################
#
#                 Cambridge Crystallographic Data Centre
#                                CCDC 
#
#######################################################################
#
# If this CIF has been generated from an entry in the Cambridge 
# Structural Database, then it will include bibliographic, chemical, 
# crystal, experimental, refinement or atomic coordinate data resulting 
# from the CCDC's data processing and validation procedures.
#
#######################################################################

data_UZEZUV
_symmetry_cell_setting           monoclinic
_symmetry_space_group_name_H-M   'P 21/c'
_symmetry_Int_Tables_number      14
_space_group_name_Hall           '-P 2ybc'
loop_
_symmetry_equiv_pos_site_id
_symmetry_equiv_pos_as_xyz
1 x,y,z
2 -x,1/2+y,1/2-z
3 -x,-y,-z
4 x,1/2-y,1/2+z
_cell_length_a                   12.352(3)
_cell_length_b                   11.244(3)
_cell_length_c                   17.611(5)
_cell_angle_alpha                90
_cell_angle_beta                 100.809(4)
_cell_angle_gamma                90
_cell_volume                     2402.52
loop_
_atom_site_label
_atom_site_type_symbol
_atom_site_fract_x
_atom_site_fract_y
_atom_site_fract_z
Hg1 Hg 0.5000 0.5000 0.5000
Hg2 Hg 0.09640(5) 0.37334(5) 0.55376(4)
I1 I 0.02058(8) 0.15329(8) 0.54943(7)
I2 I 0.31249(6) 0.41690(8) 0.60764(5)
I3 I -0.04041(7) 0.54091(8) 0.60864(5)
N1 N 0.3780(7) 0.7327(7) 0.5114(5)
N2 N 0.5433(7) 0.7442(8) 0.5762(5)
N3 N 0.3717(8) 0.6280(9) 0.3546(6)
C1 C 0.3878(9) 0.8451(9) 0.5380(6)
C2 C 0.4963(8) 0.8551(9) 0.5801(6)
C3 C 0.5341(10) 0.9599(11) 0.6167(7)
H1 H 0.6051 0.9656 0.6456
C4 C 0.4645(10) 1.0541(10) 0.6091(7)
H2 H 0.4887 1.1263 0.6319
C5 C 0.3599(12) 1.0447(11) 0.5686(7)
H3 H 0.3146 1.1113 0.5651
C6 C 0.3175(9) 0.9421(10) 0.5328(6)
H4 H 0.2451 0.9378 0.5062
C7 C 0.4732(8) 0.6709(9) 0.5339(6)
C8 C 0.2826(9) 0.6844(11) 0.4584(6)
H5 H 0.2161 0.7239 0.4669
H6 H 0.2756 0.6002 0.4685
C9 C 0.2957(8) 0.7021(10) 0.3763(6)
C10 C 0.3904(12) 0.6457(16) 0.2841(9)
H7 H 0.4414 0.5957 0.2676
C11 C 0.3425(12) 0.7295(17) 0.2333(8)
H8 H 0.3586 0.7357 0.1840
C12 C 0.2675(13) 0.8064(15) 0.2589(8)
H9 H 0.2338 0.8670 0.2270
C13 C 0.2445(10) 0.7916(12) 0.3311(7)
H10 H 0.1949 0.8416 0.3491
C14 C 0.6532(8) 0.7090(11) 0.6198(6)
H11 H 0.7062 0.7715 0.6162
H12 H 0.6776 0.6372 0.5974
C15 C 0.6475(11) 0.6875(14) 0.7022(7)
H13 H 0.6268 0.7605 0.7251
H14 H 0.5915 0.6283 0.7054
C16 C 0.7551(12) 0.6459(15) 0.7455(7)
H15 H 0.7765 0.5749 0.7220
H16 H 0.7490 0.6294 0.7981
H17 H 0.8096 0.7065 0.7448
Hg2B Hg 0.90360(5) 0.62666(5) 0.44624(4)
Hg2B_2 Hg -0.09640(5) 0.62666(5) 0.44624(4)
I1B I 0.97942(8) 0.84671(8) 0.45057(7)
I2B I 0.68751(6) 0.58310(8) 0.39236(5)
I3B I 0.04041(7) 0.45909(8) 0.39136(5)
I3B_2 I 1.04041(7) 0.45909(8) 0.39136(5)
I3_2 I 0.95959(7) 0.54091(8) 0.60864(5)
N1B N 0.6220(7) 0.2673(7) 0.4886(5)
N2B N 0.4567(7) 0.2558(8) 0.4238(5)
N3B N 0.6283(8) 0.3720(9) 0.6454(6)
C1B C 0.6122(9) 0.1549(9) 0.4620(6)
C2B C 0.5037(8) 0.1449(9) 0.4199(6)
C3B C 0.4659(10) 0.0401(11) 0.3833(7)
H1B H 0.3949 0.0344 0.3544
C4B C 0.5355(10) -0.0541(10) 0.3909(7)
H2B H 0.5113 -0.1263 0.3681
C5B C 0.6401(12) -0.0447(11) 0.4314(7)
H3B H 0.6854 -0.1113 0.4349
C6B C 0.6825(9) 0.0579(10) 0.4672(6)
H4B H 0.7549 0.0622 0.4938
C7B C 0.5268(8) 0.3291(9) 0.4661(6)
C8B C 0.7174(9) 0.3156(11) 0.5416(6)
H5B H 0.7839 0.2761 0.5331
H6B H 0.7244 0.3998 0.5315
C9B C 0.7043(8) 0.2979(10) 0.6237(6)
C10B C 0.6096(12) 0.3543(16) 0.7159(9)
H7B H 0.5586 0.4043 0.7324
C11B C 0.6575(12) 0.2705(17) 0.7667(8)
H8B H 0.6414 0.2643 0.8160
C12B C 0.7325(13) 0.1936(15) 0.7411(8)
H9B H 0.7662 0.1330 0.7730
C13B C 0.7555(10) 0.2084(12) 0.6689(7)
H10B H 0.8051 0.1584 0.6509
C14B C 0.3468(8) 0.2910(11) 0.3802(6)
H11B H 0.2938 0.2285 0.3838
H12B H 0.3224 0.3628 0.4026
C15B C 0.3525(11) 0.3125(14) 0.2978(7)
H13B H 0.3732 0.2395 0.2749
H14B H 0.4085 0.3717 0.2946
C16B C 0.2449(12) 0.3541(15) 0.2545(7)
H15B H 0.2235 0.4251 0.2780
H16B H 0.2510 0.3706 0.2019
H17B H 0.1904 0.2935 0.2552
N4 N 0.8323(11) 0.9346(15) 0.6708(12)
C17 C 0.9231(11) 0.9073(15) 0.6777(11)
C18 C 1.0411(12) 0.8755(16) 0.6875(12)
H18 H 1.0844 0.9467 0.6888
H19 H 1.0526 0.8267 0.6450
H20 H 1.0630 0.8326 0.7350
loop_
_geom_bond_atom_site_label_1
_geom_bond_atom_site_label_2
_geom_bond_site_symmetry_1
_geom_bond_site_symmetry_2
Hg1 I2 1_555 1_555
Hg2 I1 1_555 1_555
I2 Hg2 1_555 1_555
I3 Hg2 1_555 1_555
N1 C1 1_555 1_555
N2 C2 1_555 1_555
N3 C9 1_555 1_555
N4 C17 1_555 1_555
C1 C2 1_555 1_555
C2 C3 1_555 1_555
C3 H1 1_555 1_555
C4 C3 1_555 1_555
H2 C4 1_555 1_555
C5 C4 1_555 1_555
H3 C5 1_555 1_555
C6 C1 1_555 1_555
H4 C6 1_555 1_555
C7 Hg1 1_555 1_555
C8 N1 1_555 1_555
H5 C8 1_555 1_555
H6 C8 1_555 1_555
C9 C8 1_555 1_555
C10 N3 1_555 1_555
H7 C10 1_555 1_555
C11 C10 1_555 1_555
H8 C11 1_555 1_555
C12 C11 1_555 1_555
H9 C12 1_555 1_555
C13 C9 1_555 1_555
H10 C13 1_555 1_555
C14 N2 1_555 1_555
H11 C14 1_555 1_555
H12 C14 1_555 1_555
C15 C14 1_555 1_555
H13 C15 1_555 1_555
H14 C15 1_555 1_555
C16 C15 1_555 1_555
H15 C16 1_555 1_555
H16 C16 1_555 1_555
H17 C16 1_555 1_555
C17 C18 1_555 1_555
C18 H18 1_555 1_555
H19 C18 1_555 1_555
H20 C18 1_555 1_555
Hg2B I1B 1_555 1_555
Hg2B_2 I3 1_555 1_555
I2B Hg1 1_555 1_555
I3B Hg2 1_555 1_555
I3B_2 Hg2B 1_555 1_555
I3_2 Hg2B 1_555 1_555
N1B C1B 1_555 1_555
N2B C2B 1_555 1_555
N3B C9B 1_555 1_555
C1B C2B 1_555 1_555
C2B C3B 1_555 1_555
C3B H1B 1_555 1_555
C4B C3B 1_555 1_555
H2B C4B 1_555 1_555
C5B C4B 1_555 1_555
H3B C5B 1_555 1_555
C6B C1B 1_555 1_555
H4B C6B 1_555 1_555
C7B Hg1 1_555 1_555
C8B N1B 1_555 1_555
H5B C8B 1_555 1_555
H6B C8B 1_555 1_555
C9B C8B 1_555 1_555
C10B N3B 1_555 1_555
H7B C10B 1_555 1_555
C11B C10B 1_555 1_555
H8B C11B 1_555 1_555
C12B C11B 1_555 1_555
H9B C12B 1_555 1_555
C13B C9B 1_555 1_555
H10B C13B 1_555 1_555
C14B N2B 1_555 1_555
H11B C14B 1_555 1_555
H12B C14B 1_555 1_555
C15B C14B 1_555 1_555
H13B C15B 1_555 1_555
H14B C15B 1_555 1_555
C16B C15B 1_555 1_555
H15B C16B 1_555 1_555
H16B C16B 1_555 1_555
H17B C16B 1_555 1_555
N1 C7 1_555 1_555
N2 C7 1_555 1_555
C5 C6 1_555 1_555
C12 C13 1_555 1_555
Hg2B I2B 1_555 1_555
Hg2B_2 I3B 1_555 1_555
N1B C7B 1_555 1_555
N2B C7B 1_555 1_555
C5B C6B 1_555 1_555
C12B C13B 1_555 1_555

#END
