
#######################################################################
#
#                 Cambridge Crystallographic Data Centre
#                                CCDC 
#
#######################################################################
#
# If this CIF has been generated from an entry in the Cambridge 
# Structural Database, then it will include bibliographic, chemical, 
# crystal, experimental, refinement or atomic coordinate data resulting 
# from the CCDC's data processing and validation procedures.
#
#######################################################################

data_UZIDIR01
_symmetry_cell_setting           triclinic
_symmetry_space_group_name_H-M   'P -1'
_symmetry_Int_Tables_number      2
_space_group_name_Hall           '-P 1'
loop_
_symmetry_equiv_pos_site_id
_symmetry_equiv_pos_as_xyz
1 x,y,z
2 -x,-y,-z
_cell_length_a                   6.9314(8)
_cell_length_b                   7.9399(9)
_cell_length_c                   8.6780(10)
_cell_angle_alpha                72.751(2)
_cell_angle_beta                 74.783(2)
_cell_angle_gamma                84.648(2)
_cell_volume                     440.057
loop_
_atom_site_label
_atom_site_type_symbol
_atom_site_fract_x
_atom_site_fract_y
_atom_site_fract_z
O1 O 0.0993(6) -0.3438(6) 0.4150(6)
O2 O 0.4175(7) -0.3595(6) 0.4046(6)
C1 C 0.2607(8) -0.2711(8) 0.3893(6)
Cd1 Cd 0.25662(6) -0.63418(5) 0.55265(5)
C2 C 0.3109(9) 0.2757(8) 0.1891(7)
H1 H 0.3294 0.3958 0.1380
C3 C 0.3084(10) 0.1621(8) 0.0943(7)
H2 H 0.3197 0.2095 -0.0193
C4 C 0.2719(8) -0.0734(8) 0.3253(7)
C5 C 0.2659(7) 0.0356(7) 0.4272(6)
C6 C 0.2369(9) -0.0320(7) 0.6093(7)
N1 N 0.2865(7) 0.2113(6) 0.3545(6)
N2 N 0.2906(8) -0.0096(7) 0.1594(6)
O3 O 0.1988(8) -0.1906(6) 0.6761(5)
O4 O 0.2482(7) 0.0759(6) 0.6897(5)
O5 O 0.1479(7) -0.5550(6) 0.7902(5)
H3 H 0.1576 -0.4514 0.7905
H4 H 0.0307 -0.5524 0.8478
O1A O -0.0993(6) -0.6562(6) 0.5850(6)
O2A O 0.5825(7) -0.6405(6) 0.5954(6)
Cd1A Cd -0.25662(6) -0.36582(5) 0.44735(5)
Cd1A_2 Cd 0.74338(6) -0.36582(5) 0.44735(5)
Cd1_2 Cd 0.25662(6) 0.36582(5) 0.55265(5)
N1_2 N 0.2865(7) -0.7887(6) 0.3545(6)
O4_2 O 0.2482(7) -0.9241(6) 0.6897(5)
O6 O 0.1936(8) 0.7181(7) 1.0182(5)
H5 H 0.2283 0.8031 1.0451
H6 H 0.1773 0.7428 0.9211
loop_
_geom_bond_atom_site_label_1
_geom_bond_atom_site_label_2
_geom_bond_site_symmetry_1
_geom_bond_site_symmetry_2
O1 C1 1_555 1_555
O2 C1 1_555 1_555
C1 C4 1_555 1_555
Cd1 O1 1_555 1_555
C2 H1 1_555 1_555
C3 C2 1_555 1_555
H2 C3 1_555 1_555
C4 C5 1_555 1_555
C5 C6 1_555 1_555
C6 O3 1_555 1_555
N1 C2 1_555 1_555
N2 C3 1_555 1_555
O4 C6 1_555 1_555
O5 Cd1 1_555 1_555
H3 O5 1_555 1_555
H4 O5 1_555 1_555
O6 H5 1_555 1_555
H6 O6 1_555 1_555
O1A Cd1 1_555 1_555
O2A Cd1 1_555 1_555
Cd1A O1 1_555 1_555
Cd1A_2 O2 1_555 1_555
Cd1_2 N1 1_555 1_555
N1_2 Cd1 1_555 1_555
O4_2 Cd1 1_555 1_555
O2 Cd1 1_555 1_555
C4 N2 1_555 1_555
C5 N1 1_555 1_555
O4 Cd1_2 1_555 1_555
O1A Cd1A 1_555 1_555
O2A Cd1A_2 1_555 1_555

#END
