
#######################################################################
#
#                 Cambridge Crystallographic Data Centre
#                                CCDC 
#
#######################################################################
#
# If this CIF has been generated from an entry in the Cambridge 
# Structural Database, then it will include bibliographic, chemical, 
# crystal, experimental, refinement or atomic coordinate data resulting 
# from the CCDC's data processing and validation procedures.
#
#######################################################################

data_UZIDOX
_symmetry_cell_setting           triclinic
_symmetry_space_group_name_H-M   'P -1'
_symmetry_Int_Tables_number      2
_space_group_name_Hall           '-P 1'
loop_
_symmetry_equiv_pos_site_id
_symmetry_equiv_pos_as_xyz
1 x,y,z
2 -x,-y,-z
_cell_length_a                   10.569(4)
_cell_length_b                   10.945(4)
_cell_length_c                   11.751(5)
_cell_angle_alpha                98.225(5)
_cell_angle_beta                 99.052(6)
_cell_angle_gamma                92.572(5)
_cell_volume                     1325.43
loop_
_atom_site_label
_atom_site_type_symbol
_atom_site_fract_x
_atom_site_fract_y
_atom_site_fract_z
Zn1 Zn 0.0000 0.0000 0.5000
O1 O 0.09316(16) -0.16292(16) 0.51453(14)
H1 H 0.1591 -0.1913 0.4736
H2 H 0.0526 -0.2354 0.5306
N1 N 0.13916(18) 0.0957(2) 0.65920(17)
C1 C 0.1352(2) 0.2154(3) 0.7021(2)
H3 H 0.0780 0.2621 0.6611
C2 C 0.2104(3) 0.2730(3) 0.8027(3)
H4 H 0.2043 0.3567 0.8282
C3 C 0.2955(2) 0.2059(3) 0.8659(2)
H5 H 0.3460 0.2426 0.9355
C4 C 0.3036(2) 0.0828(2) 0.8231(2)
C5 C 0.2247(2) 0.0322(2) 0.7197(2)
H6 H 0.2314 -0.0505 0.6908
C6 C 0.3910(2) 0.0032(3) 0.8825(2)
H7 H 0.3947 -0.0786 0.8493
N2 N 0.4614(2) 0.0451(2) 0.9788(2)
N3 N -0.1316(2) -0.0603(2) 0.60939(17)
C7 C -0.0819(2) -0.0862(2) 0.7133(2)
H8 H 0.0071 -0.0818 0.7329
C8 C -0.1536(3) -0.1194(2) 0.7951(2)
C9 C -0.2857(3) -0.1273(3) 0.7646(3)
H9 H -0.3375 -0.1485 0.8167
C10 C -0.3397(3) -0.1036(3) 0.6565(3)
H10 H -0.4285 -0.1094 0.6343
C11 C -0.2606(2) -0.0709(3) 0.5814(2)
H11 H -0.2979 -0.0556 0.5082
C12 C -0.0870(3) -0.1428(3) 0.9083(2)
H12 H -0.1341 -0.1538 0.9670
N4 N 0.0330(2) -0.1481(2) 0.92698(18)
N5 N 0.0810(2) -0.1694(2) 1.04018(19)
C13 C 0.1945(3) -0.2035(3) 1.0497(2)
H13 H 0.2354 -0.2132 0.9848
C14 C 0.2625(3) -0.2281(2) 1.1624(2)
C15 C 0.3844(3) -0.2689(3) 1.1746(3)
H14 H 0.4262 -0.2828 1.1104
C16 C 0.4443(3) -0.2892(3) 1.2828(3)
H15 H 0.5265 -0.3174 1.2925
N6 N 0.2614(2) -0.2281(2) 1.3663(2)
C17 C 0.3802(3) -0.2669(3) 1.3755(3)
H16 H 0.4214 -0.2793 1.4485
C18 C 0.2054(3) -0.2108(3) 1.2609(2)
H17 H 0.1221 -0.1853 1.2530
Zn1_2 Zn 1.0000 0.0000 1.5000
O1A O -0.09316(16) 0.16292(16) 0.48547(14)
H1A H -0.1591 0.1913 0.5264
H2A H -0.0526 0.2354 0.4694
N1A N 0.86084(18) -0.0957(2) 1.34080(17)
N1A_2 N -0.13916(18) -0.0957(2) 0.34080(17)
C1A C 0.8648(2) -0.2154(3) 1.2979(2)
H3A H 0.9220 -0.2621 1.3389
C2A C 0.7896(3) -0.2730(3) 1.1973(3)
H4A H 0.7957 -0.3567 1.1718
C3A C 0.7045(2) -0.2059(3) 1.1341(2)
H5A H 0.6540 -0.2426 1.0645
C4A C 0.6964(2) -0.0828(2) 1.1769(2)
C5A C 0.7753(2) -0.0322(2) 1.2803(2)
H6A H 0.7686 0.0505 1.3092
C6A C 0.6090(2) -0.0032(3) 1.1175(2)
H7A H 0.6053 0.0786 1.1507
N2A N 0.5386(2) -0.0451(2) 1.0212(2)
N3A N 0.1316(2) 0.0603(2) 0.39061(17)
C7A C 0.0819(2) 0.0862(2) 0.2867(2)
H8A H -0.0071 0.0818 0.2671
C8A C 0.1536(3) 0.1194(2) 0.2049(2)
C9A C 0.2857(3) 0.1273(3) 0.2354(3)
H9A H 0.3375 0.1485 0.1833
C10A C 0.3397(3) 0.1036(3) 0.3435(3)
H10A H 0.4285 0.1094 0.3657
C11A C 0.2606(2) 0.0709(3) 0.4186(2)
H11A H 0.2979 0.0556 0.4918
C12A C 0.0870(3) 0.1428(3) 0.0917(2)
H12A H 0.1341 0.1538 0.0330
N4A N -0.0330(2) 0.1481(2) 0.07302(18)
N5A N -0.0810(2) 0.1694(2) -0.04018(19)
C13A C -0.1945(3) 0.2035(3) -0.0497(2)
H13A H -0.2354 0.2132 0.0152
C14A C -0.2625(3) 0.2281(2) -0.1624(2)
C15A C -0.3844(3) 0.2689(3) -0.1746(3)
H14A H -0.4262 0.2828 -0.1104
C16A C -0.4443(3) 0.2892(3) -0.2828(3)
H15A H -0.5265 0.3174 -0.2925
N6A N -0.2614(2) 0.2281(2) -0.3663(2)
C17A C -0.3802(3) 0.2669(3) -0.3755(3)
H16A H -0.4214 0.2793 -0.4485
C18A C -0.2054(3) 0.2108(3) -0.2609(2)
H17A H -0.1221 0.1853 -0.2530
C19 C -0.0138(3) 0.3849(3) 0.3165(3)
H18 H -0.1017 0.3668 0.2936
C20 C 0.0530(3) 0.4375(2) 0.2410(3)
C21 C -0.0152(3) 0.4575(3) 0.1282(3)
H19 H -0.1040 0.4431 0.1122
N7 N 0.0399(3) 0.3586(2) 0.4198(2)
C22 C 0.1660(3) 0.3887(3) 0.4520(3)
H20 H 0.2051 0.3740 0.5249
C23 C 0.2406(3) 0.4400(3) 0.3830(3)
H21 H 0.3281 0.4586 0.4087
C24 C 0.1843(3) 0.4632(3) 0.2759(3)
H22 H 0.2335 0.4959 0.2270
N8 N 0.0428(2) 0.4941(2) 0.0511(2)
C19A C 0.0138(3) 0.6151(3) -0.3165(3)
H18A H 0.1017 0.6332 -0.2936
C20A C -0.0530(3) 0.5625(2) -0.2410(3)
C21A C 0.0152(3) 0.5425(3) -0.1282(3)
H19A H 0.1040 0.5569 -0.1122
N7A N -0.0399(3) 0.6414(2) -0.4198(2)
C22A C -0.1660(3) 0.6113(3) -0.4520(3)
H20A H -0.2051 0.6260 -0.5249
C23A C -0.2406(3) 0.5600(3) -0.3830(3)
H21A H -0.3281 0.5414 -0.4087
C24A C -0.1843(3) 0.5368(3) -0.2759(3)
H22A H -0.2335 0.5041 -0.2270
N8A N -0.0428(2) 0.5059(2) -0.0511(2)
Cl1 Cl 0.40525(8) -0.37139(8) 0.74831(10)
O2 O 0.3857(14) -0.2777(8) 0.6816(10)
O3 O 0.5316(6) -0.3705(12) 0.7970(11)
O4 O 0.3585(12) -0.4816(5) 0.6870(9)
O5 O 0.3345(8) -0.3440(13) 0.8404(6)
Cl2? Cl 0.40525(8) -0.37139(8) 0.74831(10)
O6? O 0.4512(13) -0.4234(16) 0.6449(7)
O7? O 0.5085(11) -0.3469(14) 0.8342(10)
O8? O 0.3509(14) -0.2652(8) 0.7213(13)
O9? O 0.3198(8) -0.4576(13) 0.7660(16)
loop_
_geom_bond_atom_site_label_1
_geom_bond_atom_site_label_2
_geom_bond_site_symmetry_1
_geom_bond_site_symmetry_2
Zn1 O1 1_555 1_555
O1 H1 1_555 1_555
H2 O1 1_555 1_555
N1 Zn1 1_555 1_555
C1 N1 1_555 1_555
H3 C1 1_555 1_555
C2 C1 1_555 1_555
H4 C2 1_555 1_555
C3 C2 1_555 1_555
H5 C3 1_555 1_555
C4 C3 1_555 1_555
C5 N1 1_555 1_555
H6 C5 1_555 1_555
C6 C4 1_555 1_555
H7 C6 1_555 1_555
N2 C6 1_555 1_555
N3 Zn1 1_555 1_555
C7 N3 1_555 1_555
H8 C7 1_555 1_555
C8 C7 1_555 1_555
C9 C8 1_555 1_555
H9 C9 1_555 1_555
C10 C9 1_555 1_555
H10 C10 1_555 1_555
C11 N3 1_555 1_555
H11 C11 1_555 1_555
C12 C8 1_555 1_555
H12 C12 1_555 1_555
N4 C12 1_555 1_555
N5 N4 1_555 1_555
C13 N5 1_555 1_555
H13 C13 1_555 1_555
C14 C13 1_555 1_555
C15 C14 1_555 1_555
H14 C15 1_555 1_555
C16 C15 1_555 1_555
H15 C16 1_555 1_555
N6 C17 1_555 1_555
C17 C16 1_555 1_555
H16 C17 1_555 1_555
C18 C14 1_555 1_555
H17 C18 1_555 1_555
C19 H18 1_555 1_555
C20 C19 1_555 1_555
C21 C20 1_555 1_555
H19 C21 1_555 1_555
N7 C19 1_555 1_555
C22 N7 1_555 1_555
H20 C22 1_555 1_555
C23 C22 1_555 1_555
H21 C23 1_555 1_555
C24 C20 1_555 1_555
H22 C24 1_555 1_555
N8 C21 1_555 1_555
Cl1 O2 1_555 1_555
O3 Cl1 1_555 1_555
O4 Cl1 1_555 1_555
O5 Cl1 1_555 1_555
Zn1_2 N1A 1_555 1_555
O1A Zn1 1_555 1_555
H1A O1A 1_555 1_555
H2A O1A 1_555 1_555
N1A C1A 1_555 1_555
N1A_2 Zn1 1_555 1_555
C1A H3A 1_555 1_555
C2A C1A 1_555 1_555
H4A C2A 1_555 1_555
C3A C2A 1_555 1_555
H5A C3A 1_555 1_555
C4A C3A 1_555 1_555
C5A N1A 1_555 1_555
H6A C5A 1_555 1_555
C6A C4A 1_555 1_555
H7A C6A 1_555 1_555
N2A N2 1_555 1_555
N3A Zn1 1_555 1_555
C7A N3A 1_555 1_555
H8A C7A 1_555 1_555
C8A C7A 1_555 1_555
C9A C8A 1_555 1_555
H9A C9A 1_555 1_555
C10A C9A 1_555 1_555
H10A C10A 1_555 1_555
C11A N3A 1_555 1_555
H11A C11A 1_555 1_555
C12A C8A 1_555 1_555
H12A C12A 1_555 1_555
N4A C12A 1_555 1_555
N5A N4A 1_555 1_555
C13A N5A 1_555 1_555
H13A C13A 1_555 1_555
C14A C13A 1_555 1_555
C15A C14A 1_555 1_555
H14A C15A 1_555 1_555
C16A C15A 1_555 1_555
H15A C16A 1_555 1_555
N6A C17A 1_555 1_555
C17A C16A 1_555 1_555
H16A C17A 1_555 1_555
C18A C14A 1_555 1_555
H17A C18A 1_555 1_555
C19A H18A 1_555 1_555
C20A C19A 1_555 1_555
C21A C20A 1_555 1_555
H19A C21A 1_555 1_555
N7A C19A 1_555 1_555
C22A N7A 1_555 1_555
H20A C22A 1_555 1_555
C23A C22A 1_555 1_555
H21A C23A 1_555 1_555
C24A C20A 1_555 1_555
H22A C24A 1_555 1_555
N8A N8 1_555 1_555
C4 C5 1_555 1_555
C10 C11 1_555 1_555
N6 C18 1_555 1_555
C23 C24 1_555 1_555
C4A C5A 1_555 1_555
C6A N2A 1_555 1_555
C10A C11A 1_555 1_555
N6A C18A 1_555 1_555
C21A N8A 1_555 1_555
C23A C24A 1_555 1_555

#END
