
#######################################################################
#
#                 Cambridge Crystallographic Data Centre
#                                CCDC 
#
#######################################################################
#
# If this CIF has been generated from an entry in the Cambridge 
# Structural Database, then it will include bibliographic, chemical, 
# crystal, experimental, refinement or atomic coordinate data resulting 
# from the CCDC's data processing and validation procedures.
#
#######################################################################

data_UZIGEQ
_symmetry_cell_setting           monoclinic
_symmetry_space_group_name_H-M   'C 2/c'
_symmetry_Int_Tables_number      15
_space_group_name_Hall           '-C 2yn'
loop_
_symmetry_equiv_pos_site_id
_symmetry_equiv_pos_as_xyz
1 x,y,z
2 -x,y,1/2-z
3 1/2+x,1/2+y,z
4 1/2-x,1/2+y,1/2-z
5 -x,-y,-z
6 x,-y,1/2+z
7 1/2-x,1/2-y,-z
8 1/2+x,1/2-y,1/2+z
_cell_length_a                   22.1781(18)
_cell_length_b                   14.1039(10)
_cell_length_c                   26.8622(18)
_cell_angle_alpha                90
_cell_angle_beta                 97.993(2)
_cell_angle_gamma                90
_cell_volume                     8320.81
loop_
_atom_site_label
_atom_site_type_symbol
_atom_site_fract_x
_atom_site_fract_y
_atom_site_fract_z
Mn1 Mn 0.36988(4) 0.27886(6) 0.07798(3)
Mn2 Mn 0.26254(4) 0.14664(5) -0.02272(3)
Mn3 Mn 0.25810(5) 0.30444(7) 0.14271(4)
C1 C 0.4852(3) 0.2888(4) 0.0431(3)
C2 C 0.5478(3) 0.2920(6) 0.0601(3)
H1 H 0.5635 0.2600 0.0893
C3 C 0.5864(4) 0.3426(7) 0.0337(3)
H2 H 0.6279 0.3434 0.0451
C4 C 0.5643(4) 0.3913(7) -0.0090(3)
H3 H 0.5901 0.4273 -0.0259
C5 C 0.5031(4) 0.3861(6) -0.0263(3)
H4 H 0.4881 0.4174 -0.0559
C6 C 0.4630(3) 0.3358(4) -0.0012(2)
C7 C 0.3975(3) 0.3336(4) -0.0230(2)
C8 C 0.3625(3) 0.0558(4) 0.0382(3)
C9 C 0.3801(3) 0.0110(5) 0.0840(3)
H5 H 0.3663 0.0347 0.1127
C10 C 0.4179(4) -0.0684(5) 0.0881(4)
H6 H 0.4291 -0.0962 0.1194
C11 C 0.4386(4) -0.1059(6) 0.0470(4)
H7 H 0.4618 -0.1611 0.0493
C12 C 0.4239(4) -0.0587(6) 0.0017(3)
H8 H 0.4390 -0.0820 -0.0266
C13 C 0.3870(3) 0.0235(5) -0.0034(3)
C14 C 0.3753(3) 0.0696(5) -0.0532(3)
C15 C 0.2557(4) 0.2863(5) 0.2486(3)
C16 C 0.2216(5) 0.2982(7) 0.2866(3)
H9 H 0.1796 0.3052 0.2789
C17 C 0.2481(6) 0.2999(9) 0.3363(4)
H10 H 0.2240 0.3089 0.3616
C18 C 0.3070(6) 0.2890(13) 0.3478(4)
H11 H 0.3245 0.2928 0.3813
C19 C 0.3431(5) 0.2721(10) 0.3118(3)
H12 H 0.3845 0.2613 0.3205
C20 C 0.3167(4) 0.2714(6) 0.2616(3)
C21 C 0.3576(3) 0.2501(6) 0.2225(3)
C22 C 0.2498(5) 0.0634(7) 0.1566(4)
H13 H 0.2431 0.0043 0.1390
H14 H 0.2197 0.0715 0.1787
H15 H 0.2897 0.0632 0.1759
C23 C 0.2381(6) 0.5214(8) 0.1844(5)
H16 H 0.2555 0.5835 0.1895
H17 H 0.2309 0.4954 0.2160
H18 H 0.2002 0.5255 0.1623
C24 C 0.4470(5) 0.4415(7) 0.1399(5)
H19 H 0.4544 0.5086 0.1421
H20 H 0.4840 0.4093 0.1353
H21 H 0.4335 0.4198 0.1704
C25 C 0.2134(3) -0.0665(4) -0.0434(3)
C26 C 0.2321(3) -0.1616(4) -0.0206(2)
C27 C 0.2761(3) -0.1686(4) 0.0204(3)
H22 H 0.2943 -0.1138 0.0347
C28 C 0.2061(3) -0.2440(4) -0.0408(2)
H23 H 0.1761 -0.2410 -0.0686
N1 N 0.3569(2) 0.3154(3) 0.00672(19)
N2 N 0.3815(3) 0.3507(4) -0.0715(2)
H24 H 0.3437 0.3499 -0.0841
H25 H 0.4089 0.3625 -0.0903
N3 N 0.3257(2) 0.1191(4) -0.06550(19)
N4 N 0.4155(3) 0.0630(6) -0.0853(3)
H26 H 0.4088 0.0912 -0.1140
H27 H 0.4483 0.0306 -0.0775
N5 N 0.3385(2) 0.2611(4) 0.17509(19)
N6 N 0.4138(3) 0.2128(6) 0.2370(2)
H28 H 0.4363 0.1968 0.2148
H29 H 0.4269 0.2053 0.2684
O1 O 0.28920(18) 0.3178(3) 0.08147(14)
O2 O 0.29710(18) 0.3058(2) -0.01793(14)
O3 O 0.44948(19) 0.2395(3) 0.07135(16)
O4 O 0.3218(2) 0.1618(3) -0.11275(17)
O5 O 0.32193(19) 0.1285(2) 0.03640(15)
O6 O 0.2267(2) 0.2831(4) 0.20246(18)
O7 O 0.3801(2) 0.2310(3) 0.14428(15)
O8 O 0.1817(2) -0.0630(3) -0.08636(17)
O9 O 0.2325(2) 0.0043(3) -0.01797(17)
O10 O 0.2455(2) 0.1398(3) 0.12114(19)
O11 O 0.4037(2) 0.4230(3) 0.10065(18)
O12 O 0.2797(2) 0.4607(3) 0.16216(18)
Mn1F Mn 0.13012(4) 0.22114(6) -0.07798(3)
Mn2F Mn 0.23746(4) 0.35336(5) 0.02272(3)
Mn2F_2 Mn 0.23746(4) -0.64664(5) 0.02272(3)
Mn3F Mn 0.24190(5) 0.19556(7) -0.14271(4)
C1F C 0.0148(3) 0.2112(4) -0.0431(3)
C2F C -0.0478(3) 0.2080(6) -0.0601(3)
H1F H -0.0635 0.2400 -0.0893
C3F C -0.0864(4) 0.1574(7) -0.0337(3)
H2F H -0.1279 0.1566 -0.0451
C4F C -0.0643(4) 0.1087(7) 0.0090(3)
H3F H -0.0901 0.0727 0.0259
C5F C -0.0031(4) 0.1139(6) 0.0263(3)
H4F H 0.0119 0.0826 0.0559
C6F C 0.0370(3) 0.1642(4) 0.0012(2)
C7F C 0.1025(3) 0.1664(4) 0.0230(2)
C8F C 0.1375(3) 0.4442(4) -0.0382(3)
C9F C 0.1199(3) 0.4890(5) -0.0840(3)
H5F H 0.1337 0.4653 -0.1127
C10F C 0.0821(4) 0.5684(5) -0.0881(4)
H6F H 0.0709 0.5962 -0.1194
C11F C 0.0614(4) 0.6059(6) -0.0470(4)
H7F H 0.0382 0.6611 -0.0493
C12F C 0.0761(4) 0.5587(6) -0.0017(3)
H8F H 0.0610 0.5820 0.0266
C13F C 0.1130(3) 0.4765(5) 0.0034(3)
C14F C 0.1247(3) 0.4304(5) 0.0532(3)
C15F C 0.2443(4) 0.2137(5) -0.2486(3)
C16F C 0.2784(5) 0.2018(7) -0.2866(3)
H9F H 0.3204 0.1948 -0.2789
C17F C 0.2519(6) 0.2001(9) -0.3363(4)
H10F H 0.2760 0.1911 -0.3616
C18F C 0.1930(6) 0.2110(13) -0.3478(4)
H11F H 0.1755 0.2072 -0.3813
C19F C 0.1569(5) 0.2279(10) -0.3118(3)
H12F H 0.1155 0.2387 -0.3205
C20F C 0.1833(4) 0.2286(6) -0.2616(3)
C21F C 0.1424(3) 0.2499(6) -0.2225(3)
C22F C 0.2502(5) 0.4366(7) -0.1566(4)
H13F H 0.2569 0.4957 -0.1390
H14F H 0.2803 0.4285 -0.1787
H15F H 0.2103 0.4368 -0.1759
C23F C 0.2619(6) -0.0214(8) -0.1844(5)
H16F H 0.2445 -0.0835 -0.1895
H17F H 0.2691 0.0046 -0.2160
H18F H 0.2998 -0.0255 -0.1623
C24F C 0.0530(5) 0.0585(7) -0.1399(5)
H19F H 0.0456 -0.0086 -0.1421
H20F H 0.0160 0.0907 -0.1353
H21F H 0.0665 0.0802 -0.1704
C25F C 0.2866(3) -0.4335(4) 0.0434(3)
C26F C 0.2679(3) -0.3384(4) 0.0206(2)
C27F C 0.2239(3) -0.3314(4) -0.0204(3)
H22F H 0.2057 -0.3862 -0.0347
C28F C 0.2939(3) -0.2560(4) 0.0408(2)
H23F H 0.3239 -0.2590 0.0686
N1F N 0.1431(2) 0.1846(3) -0.00672(19)
N2F N 0.1185(3) 0.1493(4) 0.0715(2)
H24F H 0.1563 0.1501 0.0841
H25F H 0.0911 0.1375 0.0903
N3F N 0.1743(2) 0.3809(4) 0.06550(19)
N4F N 0.0845(3) 0.4370(6) 0.0853(3)
H26F H 0.0912 0.4088 0.1140
H27F H 0.0517 0.4694 0.0775
N5F N 0.1615(2) 0.2389(4) -0.17509(19)
N6F N 0.0862(3) 0.2872(6) -0.2370(2)
H28F H 0.0637 0.3032 -0.2148
H29F H 0.0731 0.2947 -0.2684
O1F O 0.21080(18) 0.1822(3) -0.08147(14)
O2F O 0.20290(18) 0.1942(2) 0.01793(14)
O3F O 0.05052(19) 0.2605(3) -0.07135(16)
O4F O 0.1782(2) 0.3382(3) 0.11275(17)
O5F O 0.17807(19) 0.3715(2) -0.03640(15)
O6F O 0.2733(2) 0.2169(4) -0.20246(18)
O7F O 0.1199(2) 0.2690(3) -0.14428(15)
O8F O 0.3183(2) -0.4370(3) 0.08636(17)
O9F O 0.2675(2) -0.5043(3) 0.01797(17)
O9F_2 O 0.2675(2) 0.4957(3) 0.01797(17)
O10F O 0.2545(2) 0.3602(3) -0.12114(19)
O11F O 0.0963(2) 0.0770(3) -0.10065(18)
O12F O 0.2203(2) 0.0393(3) -0.16216(18)
O13 O 0.5124(3) 0.1558(5) 0.1642(2)
O14 O 0.4046(5) 0.6798(7) 0.1582(4)
O15 O 0.0972(6) 0.3242(16) 0.1871(5)
O16 O 0.0312(9) 0.1921(19) 0.1549(6)
O17 O 0.0866(10) 0.0538(19) 0.2369(7)
O18 O 0.0408(12) 0.460(2) 0.2214(11)
loop_
_geom_bond_atom_site_label_1
_geom_bond_atom_site_label_2
_geom_bond_site_symmetry_1
_geom_bond_site_symmetry_2
Mn1 N1 1_555 1_555
Mn2 N3 1_555 1_555
Mn3 N5 1_555 1_555
C1 C2 1_555 1_555
C2 H1 1_555 1_555
C3 C2 1_555 1_555
H2 C3 1_555 1_555
C4 C3 1_555 1_555
H3 C4 1_555 1_555
C5 C4 1_555 1_555
H4 C5 1_555 1_555
C6 C1 1_555 1_555
C7 C6 1_555 1_555
C8 C9 1_555 1_555
C9 H5 1_555 1_555
C10 C9 1_555 1_555
H6 C10 1_555 1_555
C11 C10 1_555 1_555
H7 C11 1_555 1_555
C12 C11 1_555 1_555
H8 C12 1_555 1_555
C13 C8 1_555 1_555
C14 C13 1_555 1_555
C15 C16 1_555 1_555
C16 H9 1_555 1_555
C17 C16 1_555 1_555
H10 C17 1_555 1_555
C18 C17 1_555 1_555
H11 C18 1_555 1_555
C19 C18 1_555 1_555
H12 C19 1_555 1_555
C20 C15 1_555 1_555
C21 C20 1_555 1_555
C22 H13 1_555 1_555
H14 C22 1_555 1_555
H15 C22 1_555 1_555
C23 H16 1_555 1_555
H17 C23 1_555 1_555
H18 C23 1_555 1_555
C24 H19 1_555 1_555
H20 C24 1_555 1_555
H21 C24 1_555 1_555
C25 C26 1_555 1_555
C26 C27 1_555 1_555
C27 H22 1_555 1_555
C28 C26 1_555 1_555
H23 C28 1_555 1_555
N1 C7 1_555 1_555
N2 C7 1_555 1_555
H24 N2 1_555 1_555
H25 N2 1_555 1_555
N3 C14 1_555 1_555
N4 C14 1_555 1_555
H26 N4 1_555 1_555
H27 N4 1_555 1_555
N5 C21 1_555 1_555
N6 C21 1_555 1_555
H28 N6 1_555 1_555
H29 N6 1_555 1_555
O1 Mn1 1_555 1_555
O2 Mn2 1_555 1_555
O3 Mn1 1_555 1_555
O4 N3 1_555 1_555
O5 Mn1 1_555 1_555
O6 Mn3 1_555 1_555
O7 Mn1 1_555 1_555
O8 C25 1_555 1_555
O9 Mn2 1_555 1_555
O10 Mn3 1_555 1_555
O11 Mn1 1_555 1_555
O12 Mn3 1_555 1_555
Mn1F N1F 1_555 1_555
Mn2F O1 1_555 1_555
Mn2F_2 O9F 1_555 1_555
Mn3F O4 1_555 1_555
C1F C2F 1_555 1_555
C2F H1F 1_555 1_555
C3F C2F 1_555 1_555
H2F C3F 1_555 1_555
C4F C3F 1_555 1_555
H3F C4F 1_555 1_555
C5F C4F 1_555 1_555
H4F C5F 1_555 1_555
C6F C1F 1_555 1_555
C7F C6F 1_555 1_555
C8F C9F 1_555 1_555
C9F H5F 1_555 1_555
C10F C9F 1_555 1_555
H6F C10F 1_555 1_555
C11F C10F 1_555 1_555
H7F C11F 1_555 1_555
C12F C11F 1_555 1_555
H8F C12F 1_555 1_555
C13F C8F 1_555 1_555
C14F C13F 1_555 1_555
C15F C16F 1_555 1_555
C16F H9F 1_555 1_555
C17F C16F 1_555 1_555
H10F C17F 1_555 1_555
C18F C17F 1_555 1_555
H11F C18F 1_555 1_555
C19F C18F 1_555 1_555
H12F C19F 1_555 1_555
C20F C15F 1_555 1_555
C21F C20F 1_555 1_555
C22F H13F 1_555 1_555
H14F C22F 1_555 1_555
H15F C22F 1_555 1_555
C23F H16F 1_555 1_555
H17F C23F 1_555 1_555
H18F C23F 1_555 1_555
C24F H19F 1_555 1_555
H20F C24F 1_555 1_555
H21F C24F 1_555 1_555
C25F C26F 1_555 1_555
C26F C27F 1_555 1_555
C27F C28 1_555 1_555
H22F C27F 1_555 1_555
C28F C27 1_555 1_555
H23F C28F 1_555 1_555
N1F C7F 1_555 1_555
N2F C7F 1_555 1_555
H24F N2F 1_555 1_555
H25F N2F 1_555 1_555
N3F Mn2F 1_555 1_555
N4F C14F 1_555 1_555
H26F N4F 1_555 1_555
H27F N4F 1_555 1_555
N5F Mn3F 1_555 1_555
N6F C21F 1_555 1_555
H28F N6F 1_555 1_555
H29F N6F 1_555 1_555
O1F Mn2 1_555 1_555
O2F Mn2 1_555 1_555
O3F Mn1F 1_555 1_555
O4F Mn3 1_555 1_555
O5F Mn1F 1_555 1_555
O6F Mn3F 1_555 1_555
O7F Mn1F 1_555 1_555
O8F C25F 1_555 1_555
O9F C25F 1_555 1_555
O9F_2 Mn2F 1_555 1_555
O10F Mn3F 1_555 1_555
O11F Mn1F 1_555 1_555
O12F Mn3F 1_555 1_555
Mn2 O5 1_555 1_555
Mn3 O1 1_555 1_555
C1 O3 1_555 1_555
C5 C6 1_555 1_555
C8 O5 1_555 1_555
C12 C13 1_555 1_555
C15 O6 1_555 1_555
C19 C20 1_555 1_555
C22 O10 1_555 1_555
C23 O12 1_555 1_555
C24 O11 1_555 1_555
C25 O9 1_555 1_555
N1 O2 1_555 1_555
N5 O7 1_555 1_555
O2 Mn2F 1_555 1_555
Mn1F O1F 1_555 1_555
Mn2F O2F 1_555 1_555
Mn2F O5F 1_555 1_555
Mn3F O1F 1_555 1_555
C1F O3F 1_555 1_555
C5F C6F 1_555 1_555
C8F O5F 1_555 1_555
C12F C13F 1_555 1_555
C14F N3F 1_555 1_555
C15F O6F 1_555 1_555
C19F C20F 1_555 1_555
C21F N5F 1_555 1_555
C22F O10F 1_555 1_555
C23F O12F 1_555 1_555
C24F O11F 1_555 1_555
C26F C28F 1_555 1_555
N1F O2F 1_555 1_555
N3F O4F 1_555 1_555
N5F O7F 1_555 1_555

#END
