
#######################################################################
#
#                 Cambridge Crystallographic Data Centre
#                                CCDC 
#
#######################################################################
#
# If this CIF has been generated from an entry in the Cambridge 
# Structural Database, then it will include bibliographic, chemical, 
# crystal, experimental, refinement or atomic coordinate data resulting 
# from the CCDC's data processing and validation procedures.
#
#######################################################################

data_UZIGIU
_symmetry_cell_setting           monoclinic
_symmetry_space_group_name_H-M   'P 21/n'
_symmetry_Int_Tables_number      14
_space_group_name_Hall           '-P 2yn'
loop_
_symmetry_equiv_pos_site_id
_symmetry_equiv_pos_as_xyz
1 x,y,z
2 1/2-x,1/2+y,1/2-z
3 -x,-y,-z
4 1/2+x,1/2-y,1/2+z
_cell_length_a                   7.2556(9)
_cell_length_b                   11.1091(13)
_cell_length_c                   11.4141(14)
_cell_angle_alpha                90
_cell_angle_beta                 92.712(2)
_cell_angle_gamma                90
_cell_volume                     918.982
loop_
_atom_site_label
_atom_site_type_symbol
_atom_site_fract_x
_atom_site_fract_y
_atom_site_fract_z
Cu1 Cu 0.0000 0.5000 1.0000
N1 N 0.0173(6) 0.3982(4) 0.8600(3)
N2 N 0.0114(6) 0.3045(4) 0.6912(4)
C1 C -0.1215(7) 0.3142(5) 0.8577(4)
C2 C 0.0956(8) 0.3906(5) 0.7568(5)
C3 C -0.1270(7) 0.2548(5) 0.7526(4)
C4 C -0.2488(9) 0.1602(6) 0.7032(5)
C5 C -0.2296(8) 0.3059(5) 0.9636(4)
O1 O -0.1902(5) 0.3822(3) 1.0431(3)
O2 O -0.3513(6) 0.2258(4) 0.9703(3)
O3 O -0.2407(6) 0.1253(4) 0.6030(4)
O4 O -0.3684(8) 0.1147(5) 0.7743(4)
H1 H -0.3527 0.1452 0.8394
C6 C 0.2521(9) 0.4658(6) 0.7188(6)
H2 H 0.2356 0.4824 0.6355
H3 H 0.2525 0.5420 0.7602
C7 C 0.4295(13) 0.4047(12) 0.7421(15)
H4 H 0.4170 0.3209 0.7228
H5 H 0.4663 0.4129 0.8236
H6 H 0.5213 0.4404 0.6951
H7 H 0.052(10) 0.291(7) 0.611(3)
Cu1A Cu -0.5000 0.0000 0.5000
Cu1A_2 Cu 0.5000 1.0000 1.5000
N1B N -0.0173(6) 0.6018(4) 1.1400(3)
N2B N -0.0114(6) 0.6955(4) 1.3088(4)
C1B C 0.1215(7) 0.6858(5) 1.1423(4)
C2B C -0.0956(8) 0.6094(5) 1.2432(5)
C3B C 0.1270(7) 0.7452(5) 1.2474(4)
C4B C 0.2488(9) 0.8398(6) 1.2968(5)
C5B C 0.2296(8) 0.6941(5) 1.0364(4)
O1B O 0.1902(5) 0.6178(3) 0.9569(3)
O2B O 0.3513(6) 0.7742(4) 1.0297(3)
O3B O 0.2407(6) 0.8747(4) 1.3970(4)
O3A O -0.2593(6) 0.6253(4) 0.8970(4)
O3C O 0.2593(6) 0.3747(4) 1.1030(4)
O4B O 0.3684(8) 0.8853(5) 1.2257(4)
H1B H 0.3527 0.8548 1.1606
C6B C -0.2521(9) 0.5342(6) 1.2812(6)
H2B H -0.2356 0.5176 1.3645
H3B H -0.2525 0.4580 1.2398
C7B C -0.4295(13) 0.5953(12) 1.2579(15)
H4B H -0.4170 0.6791 1.2772
H5B H -0.4663 0.5871 1.1764
H6B H -0.5213 0.5596 1.3049
H7B H -0.052(10) 0.709(7) 1.389(3)
loop_
_geom_bond_atom_site_label_1
_geom_bond_atom_site_label_2
_geom_bond_site_symmetry_1
_geom_bond_site_symmetry_2
Cu1 N1 1_555 1_555
N1 C1 1_555 1_555
N2 C2 1_555 1_555
C1 C3 1_555 1_555
C2 N1 1_555 1_555
C3 N2 1_555 1_555
C4 C3 1_555 1_555
C5 C1 1_555 1_555
O1 Cu1 1_555 1_555
O2 C5 1_555 1_555
O3 C4 1_555 1_555
O4 C4 1_555 1_555
H1 O4 1_555 1_555
C6 C2 1_555 1_555
H2 C6 1_555 1_555
H3 C6 1_555 1_555
C7 C6 1_555 1_555
H4 C7 1_555 1_555
H5 C7 1_555 1_555
H6 C7 1_555 1_555
H7 N2 1_555 1_555
Cu1A O3 1_555 1_555
Cu1A_2 O3B 1_555 1_555
N1B Cu1 1_555 1_555
N2B C2B 1_555 1_555
C1B N1B 1_555 1_555
C2B N1B 1_555 1_555
C3B N2B 1_555 1_555
C4B C3B 1_555 1_555
C5B C1B 1_555 1_555
O1B Cu1 1_555 1_555
O2B C5B 1_555 1_555
O3B C4B 1_555 1_555
O3A Cu1 1_555 1_555
O3C Cu1 1_555 1_555
O4B C4B 1_555 1_555
H1B O4B 1_555 1_555
C6B C2B 1_555 1_555
H2B C6B 1_555 1_555
H3B C6B 1_555 1_555
C7B C6B 1_555 1_555
H4B C7B 1_555 1_555
H5B C7B 1_555 1_555
H6B C7B 1_555 1_555
H7B N2B 1_555 1_555
C5 O1 1_555 1_555
C1B C3B 1_555 1_555
C5B O1B 1_555 1_555

#END
