
#######################################################################
#
#                 Cambridge Crystallographic Data Centre
#                                CCDC 
#
#######################################################################
#
# If this CIF has been generated from an entry in the Cambridge 
# Structural Database, then it will include bibliographic, chemical, 
# crystal, experimental, refinement or atomic coordinate data resulting 
# from the CCDC's data processing and validation procedures.
#
#######################################################################

data_UZIGUG
_symmetry_cell_setting           triclinic
_symmetry_space_group_name_H-M   'P -1'
_symmetry_Int_Tables_number      2
_space_group_name_Hall           '-P 1'
loop_
_symmetry_equiv_pos_site_id
_symmetry_equiv_pos_as_xyz
1 x,y,z
2 -x,-y,-z
_cell_length_a                   6.6586(5)
_cell_length_b                   7.2459(6)
_cell_length_c                   16.7473(10)
_cell_angle_alpha                88.455(6)
_cell_angle_beta                 88.072(5)
_cell_angle_gamma                76.940(6)
_cell_volume                     786.515
loop_
_atom_site_label
_atom_site_type_symbol
_atom_site_fract_x
_atom_site_fract_y
_atom_site_fract_z
Na1 Na 0.20464(10) 0.27137(10) 0.70015(4)
Na2 Na 0.55728(11) 0.39466(9) 0.86528(4)
O1 O 0.2950(3) -0.0583(2) 0.70770(10)
H1 H 0.308(4) -0.102(3) 0.7572(17)
H2 H 0.221(5) -0.109(4) 0.6860(17)
O2 O 0.2250(2) 0.3310(2) 0.83651(7)
H3 H 0.219(3) 0.222(3) 0.8648(12)
H4 H 0.133(4) 0.415(3) 0.8551(13)
N1 N 0.1304(2) 0.2541(2) 0.55357(8)
N2 N -0.0047(3) 0.2141(2) 0.39973(8)
N3 N -0.1647(2) 0.3671(2) 0.67897(8)
N4 N -0.3440(2) 0.4065(2) 0.72145(8)
N5 N -0.4967(2) 0.3991(2) 0.67386(9)
N6 N -0.4201(2) 0.3555(2) 0.59943(9)
N7 N 0.7445(2) 0.05107(19) 0.86073(8)
N8 N 0.8956(2) -0.3415(2) 0.87013(8)
N9 N 0.6450(2) 0.2595(2) 1.00086(8)
N10 N 0.6170(2) 0.3079(2) 1.07838(8)
N11 N 0.6762(2) 0.1561(2) 1.12411(8)
N12 N 0.7444(2) 0.0036(2) 1.07756(8)
C1 C 0.2616(3) 0.2051(3) 0.49148(10)
H5 H 0.4055 0.1850 0.4997
C2 C 0.1953(3) 0.1826(3) 0.41606(10)
H6 H 0.2949 0.1436 0.3744
C3 C -0.1362(3) 0.2680(3) 0.46091(10)
H7 H -0.2800 0.2954 0.4517
C4 C -0.0704(3) 0.2855(2) 0.53788(9)
C5 C -0.2174(3) 0.3370(2) 0.60515(10)
C6 C 0.7930(3) -0.0547(3) 0.79595(10)
H8 H 0.7755 0.0058 0.7448
C7 C 0.8673(3) -0.2479(3) 0.80022(10)
H9 H 0.8992 -0.3164 0.7521
C8 C 0.8484(3) -0.2367(2) 0.93543(10)
H10 H 0.8666 -0.2979 0.9864
C9 C 0.7737(2) -0.0421(2) 0.93149(10)
C10 C 0.7223(3) 0.0727(2) 1.00318(9)
Na1_2 Na -0.79536(10) 0.27137(10) 0.70015(4)
Na2_2 Na -0.44272(11) 0.39466(9) 0.86528(4)
Na2A Na 0.44272(11) 0.60534(9) 1.13472(4)
N4_2 N 0.6560(2) 0.4065(2) 0.72145(8)
N5_2 N 0.5033(2) 0.3991(2) 0.67386(9)
N10A N 0.3830(2) 0.6921(2) 0.92162(8)
loop_
_geom_bond_atom_site_label_1
_geom_bond_atom_site_label_2
_geom_bond_site_symmetry_1
_geom_bond_site_symmetry_2
Na1 O1 1_555 1_555
Na2 O2 1_555 1_555
O1 H1 1_555 1_555
H2 O1 1_555 1_555
O2 Na1 1_555 1_555
H3 O2 1_555 1_555
H4 O2 1_555 1_555
N1 Na1 1_555 1_555
N2 C2 1_555 1_555
N3 Na1 1_555 1_555
N4 N3 1_555 1_555
N5 N4 1_555 1_555
N6 N5 1_555 1_555
N7 Na2 1_555 1_555
N8 C7 1_555 1_555
N9 Na2 1_555 1_555
N10 N9 1_555 1_555
N11 N10 1_555 1_555
N12 N11 1_555 1_555
C1 N1 1_555 1_555
H5 C1 1_555 1_555
C2 C1 1_555 1_555
H6 C2 1_555 1_555
C3 N2 1_555 1_555
H7 C3 1_555 1_555
C4 N1 1_555 1_555
C5 N3 1_555 1_555
C6 N7 1_555 1_555
H8 C6 1_555 1_555
C7 C6 1_555 1_555
H9 C7 1_555 1_555
C8 N8 1_555 1_555
H10 C8 1_555 1_555
C9 N7 1_555 1_555
C10 N9 1_555 1_555
Na1_2 N5 1_555 1_555
Na2_2 N4 1_555 1_555
Na2A N10 1_555 1_555
N4_2 Na2 1_555 1_555
N5_2 Na1 1_555 1_555
N10A Na2 1_555 1_555
N6 C5 1_555 1_555
N12 C10 1_555 1_555
C3 C4 1_555 1_555
C4 C5 1_555 1_555
C8 C9 1_555 1_555
C9 C10 1_555 1_555
N4_2 N5_2 1_555 1_555

#END
