
#######################################################################
#
#                 Cambridge Crystallographic Data Centre
#                                CCDC 
#
#######################################################################
#
# If this CIF has been generated from an entry in the Cambridge 
# Structural Database, then it will include bibliographic, chemical, 
# crystal, experimental, refinement or atomic coordinate data resulting 
# from the CCDC's data processing and validation procedures.
#
#######################################################################

data_UZIMIA
_symmetry_cell_setting           monoclinic
_symmetry_space_group_name_H-M   'P 21/c'
_symmetry_Int_Tables_number      14
_space_group_name_Hall           '-P 2ybc'
loop_
_symmetry_equiv_pos_site_id
_symmetry_equiv_pos_as_xyz
1 x,y,z
2 -x,1/2+y,1/2-z
3 -x,-y,-z
4 x,1/2-y,1/2+z
_cell_length_a                   13.559(2)
_cell_length_b                   23.860(3)
_cell_length_c                   10.027(2)
_cell_angle_alpha                90
_cell_angle_beta                 91.55(2)
_cell_angle_gamma                90
_cell_volume                     3242.73
loop_
_atom_site_label
_atom_site_type_symbol
_atom_site_fract_x
_atom_site_fract_y
_atom_site_fract_z
Ni1 Ni 0.81183(2) 0.650395(13) 1.01943(3)
C1 C 0.92713(18) 0.76325(11) 1.0140(3)
H1 H 0.8891 0.7797 1.0791
C2 C 1.00699(18) 0.78698(12) 0.9591(3)
H2 H 1.0334 0.8221 0.9790
C3 C 0.98153(17) 0.70537(11) 0.8730(3)
H3 H 0.9892 0.6736 0.8205
C4 C 1.12996(18) 0.75636(13) 0.7906(3)
H4 H 1.1242 0.7901 0.7370
H5 H 1.1362 0.7247 0.7308
C5 C 1.22054(18) 0.76014(12) 0.8807(3)
C6 C 1.2586(2) 0.81073(14) 0.9193(4)
H6 H 1.2298 0.8434 0.8862
C7 C 1.3397(2) 0.81440(13) 1.0072(3)
H7 H 1.3637 0.8494 1.0328
C8 C 1.38433(18) 0.76698(12) 1.0561(3)
C9 C 1.3460(2) 0.71634(13) 1.0164(3)
H8 H 1.3752 0.6836 1.0486
C10 C 1.2656(2) 0.71263(13) 0.9306(3)
H9 H 1.2414 0.6776 0.9059
C11 C 1.47504(18) 0.76986(13) 1.1461(3)
H10 H 1.4820 0.8075 1.1815
H11 H 1.4675 0.7444 1.2206
C12 C 1.60535(18) 0.78518(12) 0.9741(3)
H12 H 1.5826 0.8190 0.9388
C13 C 1.68514(18) 0.75639(11) 0.9367(3)
H13 H 1.7279 0.7675 0.8706
C14 C 1.61970(17) 0.70923(11) 1.0925(2)
H14 H 1.6073 0.6816 1.1553
C15 C 0.75244(18) 0.64798(11) 0.7164(2)
H15 H 0.7341 0.6855 0.7126
C16 C 0.74906(19) 0.61257(11) 0.6115(3)
H16 H 0.7293 0.6209 0.5242
C17 C 0.80252(17) 0.56941(11) 0.7907(2)
H17 H 0.8261 0.5412 0.8471
C18 C 0.79657(18) 0.51147(11) 0.5805(3)
H18 H 0.7534 0.5125 0.5018
H19 H 0.7790 0.4788 0.6325
C19 C 0.90192(18) 0.50575(11) 0.5380(2)
C20 C 0.9436(2) 0.54364(12) 0.4531(3)
H20 H 0.9062 0.5735 0.4203
C21 C 0.9592(2) 0.46211(12) 0.5842(3)
H21 H 0.9324 0.4359 0.6415
C22 C 1.38159(17) 0.47192(11) 0.7882(3)
C23 C 1.36939(18) 0.52273(12) 0.8540(3)
C24 C 1.4441(2) 0.56241(13) 0.8478(4)
H22 H 1.4372 0.5962 0.8926
C25 C 1.5280(2) 0.55299(15) 0.7771(4)
H23 H 1.5782 0.5796 0.7771
C26 C 1.5371(2) 0.50422(14) 0.7070(4)
H24 H 1.5920 0.4983 0.6551
C27 C 1.4651(2) 0.46411(13) 0.7134(3)
H25 H 1.4723 0.4308 0.6665
C28 C 1.31260(17) 0.42260(10) 0.8014(3)
C29 C 1.27695(18) 0.53811(10) 0.9213(3)
C30 C 1.27903(18) 0.56463(11) 1.0441(3)
H26 H 1.3389 0.5692 1.0902
C31 C 1.19324(18) 0.58453(11) 1.0996(3)
H27 H 1.1966 0.6025 1.1819
C32 C 1.10280(17) 0.57808(10) 1.0346(2)
C33 C 1.10008(18) 0.55011(11) 0.9146(3)
H28 H 1.0397 0.5439 0.8709
C34 C 1.18510(19) 0.53110(11) 0.8580(3)
H29 H 1.1812 0.5132 0.7757
C35 C 1.01075(18) 0.60361(10) 1.0914(2)
N1 N 0.91074(14) 0.71129(9) 0.9590(2)
N2 N 1.04095(14) 0.74963(9) 0.8693(2)
N3 N 1.56398(14) 0.75495(9) 1.0745(2)
N4 N 1.69402(14) 0.70786(9) 1.01110(19)
N5 N 0.78645(14) 0.62122(8) 0.82901(19)
N6 N 0.78067(14) 0.56206(9) 0.66005(19)
O1 O 1.02070(12) 0.63243(7) 1.19533(18)
O2 O 0.93132(12) 0.59513(7) 1.02736(17)
O3 O 1.29583(14) 0.39379(8) 0.69843(18)
O4 O 1.28130(12) 0.41286(7) 0.91508(16)
O5 O 0.84072(13) 0.67730(8) 1.21635(18)
H30 H 0.801(2) 0.6524(11) 1.264(3)
H31 H 0.8913(19) 0.6647(11) 1.219(3)
Ni1_2 Ni -0.18817(2) 0.650395(13) 1.01943(3)
Ni1_3 Ni 1.81183(2) 0.650395(13) 1.01943(3)
Ni1B Ni 1.18817(2) 0.349605(13) 0.98057(3)
Ni1B_2 Ni 1.18817(2) 0.349605(13) -0.01943(3)
C1_2 C -0.07287(18) 0.76325(11) 1.0140(3)
H1_2 H -0.1109 0.7797 1.0791
C2_2 C 0.00699(18) 0.78698(12) 0.9591(3)
H2_2 H 0.0334 0.8221 0.9790
C3_2 C -0.01847(17) 0.70537(11) 0.8730(3)
H3_2 H -0.0108 0.6736 0.8205
C4_2 C 0.12996(18) 0.75636(13) 0.7906(3)
H4_2 H 0.1242 0.7901 0.7370
H5_2 H 0.1362 0.7247 0.7308
C5_2 C 0.22054(18) 0.76014(12) 0.8807(3)
C6_2 C 0.2586(2) 0.81073(14) 0.9193(4)
H6_2 H 0.2298 0.8434 0.8862
C7_2 C 0.3397(2) 0.81440(13) 1.0072(3)
H7_2 H 0.3637 0.8494 1.0328
C8_2 C 0.38433(18) 0.76698(12) 1.0561(3)
C9_2 C 0.3460(2) 0.71634(13) 1.0164(3)
H8_2 H 0.3752 0.6836 1.0486
C10_2 C 0.2656(2) 0.71263(13) 0.9306(3)
H9_2 H 0.2414 0.6776 0.9059
C11_2 C 0.47504(18) 0.76986(13) 1.1461(3)
H10_2 H 0.4820 0.8075 1.1815
H11_2 H 0.4675 0.7444 1.2206
C12_2 C 0.60535(18) 0.78518(12) 0.9741(3)
H12_2 H 0.5826 0.8190 0.9388
C13_2 C 0.68514(18) 0.75639(11) 0.9367(3)
H13_2 H 0.7279 0.7675 0.8706
C14_2 C 0.61970(17) 0.70923(11) 1.0925(2)
H14_2 H 0.6073 0.6816 1.1553
C15B C 1.24756(18) 0.35202(11) 0.2836(2)
H15B H 1.2659 0.3145 0.2874
C16B C 1.25094(19) 0.38743(11) 0.3885(3)
H16B H 1.2707 0.3791 0.4758
C17B C 1.19748(17) 0.43059(11) 0.2093(2)
H17B H 1.1739 0.4588 0.1529
C18B C 1.20343(18) 0.48853(11) 0.4195(3)
H18B H 1.2466 0.4875 0.4982
H19B H 1.2210 0.5212 0.3675
C19B C 1.09808(18) 0.49425(11) 0.4620(2)
C20B C 1.0564(2) 0.45636(12) 0.5469(3)
H20B H 1.0938 0.4265 0.5797
C21B C 1.0408(2) 0.53789(12) 0.4158(3)
H21B H 1.0676 0.5641 0.3585
C22B C 0.61841(17) 0.52808(11) 1.2118(3)
C23B C 0.63061(18) 0.47727(12) 1.1460(3)
C24B C 0.5559(2) 0.43759(13) 1.1522(4)
H22B H 0.5628 0.4038 1.1074
C25B C 0.4720(2) 0.44701(15) 1.2229(4)
H23B H 0.4218 0.4204 1.2229
C26B C 0.4629(2) 0.49578(14) 1.2930(4)
H24B H 0.4080 0.5017 1.3449
C27B C 0.5349(2) 0.53589(13) 1.2866(3)
H25B H 0.5277 0.5692 1.3335
C28B C 0.68740(17) 0.57740(10) 1.1986(3)
C29B C 0.72305(18) 0.46189(10) 1.0787(3)
C30B C 0.72097(18) 0.43537(11) 0.9559(3)
H26B H 0.6611 0.4308 0.9098
C31B C 0.80676(18) 0.41547(11) 0.9004(3)
H27B H 0.8034 0.3975 0.8181
C32B C 0.89720(17) 0.42192(10) 0.9654(2)
C33B C 0.89992(18) 0.44989(11) 1.0854(3)
H28B H 0.9603 0.4561 1.1291
C34B C 0.81490(19) 0.46890(11) 1.1420(3)
H29B H 0.8188 0.4868 1.2243
C35B C 0.98925(18) 0.39639(10) 0.9086(2)
N1_2 N -0.08926(14) 0.71129(9) 0.9590(2)
N2_2 N 0.04095(14) 0.74963(9) 0.8693(2)
N3_2 N 0.56398(14) 0.75495(9) 1.0745(2)
N4_2 N 0.69402(14) 0.70786(9) 1.01110(19)
N4_3 N -0.30598(14) 0.70786(9) 1.01110(19)
N5B N 1.21355(14) 0.37878(8) 0.17099(19)
N5_2 N -0.21355(14) 0.62122(8) 0.82901(19)
N6B N 1.21933(14) 0.43794(9) 0.33995(19)
O1B O 0.97930(12) 0.36757(7) 0.80467(18)
O2B O 1.06868(12) 0.40487(7) 0.97264(17)
O2_2 O -0.06868(12) 0.59513(7) 1.02736(17)
O3B O 0.70417(14) 0.60621(8) 1.30157(18)
O4B O 0.71870(12) 0.58714(7) 1.08492(16)
O4B_2 O -0.28130(12) 0.58714(7) 1.08492(16)
O5_2 O -0.15928(13) 0.67730(8) 1.21635(18)
H30_2 H -0.199(2) 0.6524(11) 1.264(3)
H31_2 H -0.1087(19) 0.6647(11) 1.219(3)
loop_
_geom_bond_atom_site_label_1
_geom_bond_atom_site_label_2
_geom_bond_site_symmetry_1
_geom_bond_site_symmetry_2
Ni1 N1 1_555 1_555
C1 H1 1_555 1_555
C2 C1 1_555 1_555
H2 C2 1_555 1_555
C3 H3 1_555 1_555
C4 H4 1_555 1_555
H5 C4 1_555 1_555
C5 C4 1_555 1_555
C6 C5 1_555 1_555
H6 C6 1_555 1_555
C7 C6 1_555 1_555
H7 C7 1_555 1_555
C8 C7 1_555 1_555
C9 C8 1_555 1_555
H8 C9 1_555 1_555
C10 C5 1_555 1_555
H9 C10 1_555 1_555
C11 C8 1_555 1_555
H10 C11 1_555 1_555
H11 C11 1_555 1_555
C12 H12 1_555 1_555
C13 C12 1_555 1_555
H13 C13 1_555 1_555
C14 H14 1_555 1_555
C15 H15 1_555 1_555
C16 C15 1_555 1_555
H16 C16 1_555 1_555
C17 H17 1_555 1_555
C18 H18 1_555 1_555
H19 C18 1_555 1_555
C19 C18 1_555 1_555
C20 C19 1_555 1_555
H20 C20 1_555 1_555
C21 C19 1_555 1_555
H21 C21 1_555 1_555
C22 C23 1_555 1_555
C23 C24 1_555 1_555
C24 H22 1_555 1_555
C25 C24 1_555 1_555
H23 C25 1_555 1_555
C26 C25 1_555 1_555
H24 C26 1_555 1_555
C27 C22 1_555 1_555
H25 C27 1_555 1_555
C28 C22 1_555 1_555
C29 C23 1_555 1_555
C30 C29 1_555 1_555
H26 C30 1_555 1_555
C31 C30 1_555 1_555
H27 C31 1_555 1_555
C32 C31 1_555 1_555
C33 C32 1_555 1_555
H28 C33 1_555 1_555
C34 C29 1_555 1_555
H29 C34 1_555 1_555
C35 C32 1_555 1_555
N1 C1 1_555 1_555
N2 C2 1_555 1_555
N3 C11 1_555 1_555
N4 C13 1_555 1_555
N5 Ni1 1_555 1_555
N6 C16 1_555 1_555
O1 C35 1_555 1_555
O2 Ni1 1_555 1_555
O3 C28 1_555 1_555
O4 C28 1_555 1_555
O5 Ni1 1_555 1_555
H30 O5 1_555 1_555
H31 O5 1_555 1_555
Ni1_2 N1_2 1_555 1_555
Ni1_3 N4 1_555 1_555
Ni1B O4 1_555 1_555
Ni1B_2 N5B 1_555 1_555
C1_2 H1_2 1_555 1_555
C2_2 C1_2 1_555 1_555
H2_2 C2_2 1_555 1_555
C3_2 H3_2 1_555 1_555
C4_2 H4_2 1_555 1_555
H5_2 C4_2 1_555 1_555
C5_2 C4_2 1_555 1_555
C6_2 C5_2 1_555 1_555
H6_2 C6_2 1_555 1_555
C7_2 C6_2 1_555 1_555
H7_2 C7_2 1_555 1_555
C8_2 C7_2 1_555 1_555
C9_2 C8_2 1_555 1_555
H8_2 C9_2 1_555 1_555
C10_2 C5_2 1_555 1_555
H9_2 C10_2 1_555 1_555
C11_2 C8_2 1_555 1_555
H10_2 C11_2 1_555 1_555
H11_2 C11_2 1_555 1_555
C12_2 H12_2 1_555 1_555
C13_2 C12_2 1_555 1_555
H13_2 C13_2 1_555 1_555
C14_2 H14_2 1_555 1_555
C15B H15B 1_555 1_555
C16B C15B 1_555 1_555
H16B C16B 1_555 1_555
C17B H17B 1_555 1_555
C18B H18B 1_555 1_555
H19B C18B 1_555 1_555
C19B C18B 1_555 1_555
C20B C21 1_555 1_555
H20B C20B 1_555 1_555
C21B C20 1_555 1_555
H21B C21B 1_555 1_555
C22B C23B 1_555 1_555
C23B C24B 1_555 1_555
C24B H22B 1_555 1_555
C25B C24B 1_555 1_555
H23B C25B 1_555 1_555
C26B C25B 1_555 1_555
H24B C26B 1_555 1_555
C27B C22B 1_555 1_555
H25B C27B 1_555 1_555
C28B C22B 1_555 1_555
C29B C23B 1_555 1_555
C30B C29B 1_555 1_555
H26B C30B 1_555 1_555
C31B C30B 1_555 1_555
H27B C31B 1_555 1_555
C32B C31B 1_555 1_555
C33B C32B 1_555 1_555
H28B C33B 1_555 1_555
C34B C29B 1_555 1_555
H29B C34B 1_555 1_555
C35B C32B 1_555 1_555
N1_2 C1_2 1_555 1_555
N2_2 C2_2 1_555 1_555
N3_2 C11_2 1_555 1_555
N4_2 Ni1 1_555 1_555
N4_3 Ni1_2 1_555 1_555
N5B C15B 1_555 1_555
N5_2 Ni1_2 1_555 1_555
N6B C16B 1_555 1_555
O1B C35B 1_555 1_555
O2B Ni1B 1_555 1_555
O2_2 Ni1_2 1_555 1_555
O3B C28B 1_555 1_555
O4B Ni1 1_555 1_555
O4B_2 Ni1_2 1_555 1_555
O5_2 Ni1_2 1_555 1_555
H30_2 O5_2 1_555 1_555
H31_2 O5_2 1_555 1_555
C3 N1 1_555 1_555
C3 N2 1_555 1_555
C4 N2 1_555 1_555
C9 C10 1_555 1_555
C12 N3 1_555 1_555
C14 N3 1_555 1_555
C14 N4 1_555 1_555
C15 N5 1_555 1_555
C17 N5 1_555 1_555
C17 N6 1_555 1_555
C18 N6 1_555 1_555
C26 C27 1_555 1_555
C33 C34 1_555 1_555
C35 O2 1_555 1_555
C3_2 N1_2 1_555 1_555
C3_2 N2_2 1_555 1_555
C4_2 N2_2 1_555 1_555
C9_2 C10_2 1_555 1_555
C12_2 N3_2 1_555 1_555
C13_2 N4_2 1_555 1_555
C14_2 N3_2 1_555 1_555
C14_2 N4_2 1_555 1_555
C17B N5B 1_555 1_555
C17B N6B 1_555 1_555
C18B N6B 1_555 1_555
C19B C20B 1_555 1_555
C19B C21B 1_555 1_555
C26B C27B 1_555 1_555
C28B O4B 1_555 1_555
C33B C34B 1_555 1_555
C35B O2B 1_555 1_555

#END
