
#######################################################################
#
#                 Cambridge Crystallographic Data Centre
#                                CCDC 
#
#######################################################################
#
# If this CIF has been generated from an entry in the Cambridge 
# Structural Database, then it will include bibliographic, chemical, 
# crystal, experimental, refinement or atomic coordinate data resulting 
# from the CCDC's data processing and validation procedures.
#
#######################################################################

data_UZINAT
_symmetry_cell_setting           triclinic
_symmetry_space_group_name_H-M   'P -1'
_symmetry_Int_Tables_number      2
_space_group_name_Hall           '-P 1'
loop_
_symmetry_equiv_pos_site_id
_symmetry_equiv_pos_as_xyz
1 x,y,z
2 -x,-y,-z
_cell_length_a                   7.2670(15)
_cell_length_b                   10.749(2)
_cell_length_c                   10.826(2)
_cell_angle_alpha                97.86(3)
_cell_angle_beta                 103.62(3)
_cell_angle_gamma                95.00(3)
_cell_volume                     807.868
loop_
_atom_site_label
_atom_site_type_symbol
_atom_site_fract_x
_atom_site_fract_y
_atom_site_fract_z
Co1 Co 0.67861(5) 0.64150(3) 0.86371(3)
O1 O 0.3446(3) 0.60976(19) 0.83070(16)
O2 O 0.4884(3) 0.57065(19) 0.67641(17)
O3 O 0.6875(3) 0.47384(18) 0.93786(17)
H1 H 0.7088 0.4624 1.0141
H2 H 0.7778 0.4428 0.9176
O4 O -0.0485(3) 0.4026(2) 0.82431(18)
O5 O -0.1028(3) 0.59629(17) 0.78348(17)
O6 O 0.2693(3) 0.78157(19) 0.5070(2)
O7 O 0.4395(3) 0.6636(2) 0.40719(19)
H3 H 0.4493 0.5867 0.3806
N1 N 0.7104(3) 0.8206(2) 0.8023(2)
N2 N 0.7001(3) 0.7688(2) 1.0347(2)
C1 C 0.7172(5) 0.8445(3) 0.6861(3)
H4 H 0.7001 0.7768 0.6194
C2 C 0.7492(5) 0.9679(3) 0.6598(3)
H5 H 0.7524 0.9806 0.5770
C3 C 0.7755(5) 1.0684(3) 0.7555(3)
H6 H 0.7959 1.1503 0.7386
C4 C 0.7958(5) 1.1452(3) 0.9877(3)
H7 H 0.8204 1.2290 0.9775
C5 C 0.7838(5) 1.1192(3) 1.1048(3)
H8 H 0.7995 1.1854 1.1728
C6 C 0.7300(5) 0.9597(3) 1.2438(3)
H9 H 0.7404 1.0225 1.3141
C7 C 0.6976(5) 0.8354(3) 1.2546(3)
H10 H 0.6836 0.8127 1.3321
C8 C 0.6855(4) 0.7416(3) 1.1478(3)
H11 H 0.6665 0.6571 1.1571
C9 C 0.7475(4) 0.9920(3) 1.1256(3)
C10 C 0.7280(4) 0.8927(2) 1.0223(2)
C11 C 0.7717(4) 1.0480(3) 0.8803(3)
C12 C 0.7367(4) 0.9209(2) 0.8984(3)
C13 C 0.3364(4) 0.5834(2) 0.7135(2)
C14 C 0.1460(3) 0.5718(2) 0.6134(2)
H12 H 0.0892 0.6502 0.6282
C15 C 0.1798(3) 0.5577(2) 0.4777(2)
H13 H 0.2503 0.4853 0.4653
C16 C 0.0099(3) 0.4620(2) 0.6308(2)
H14 H 0.0711 0.3843 0.6277
C17 C -0.0474(4) 0.4890(2) 0.7592(2)
C18 C 0.2992(4) 0.6773(3) 0.4670(2)
Co1A Co -0.67861(5) 0.35850(3) 0.13629(3)
Co1_2 Co -0.32139(5) 0.64150(3) 0.86371(3)
Co1A_2 Co 0.32139(5) 0.35850(3) 0.13629(3)
O1A O -0.3446(3) 0.39024(19) 0.16930(16)
O2A O -0.4884(3) 0.42935(19) 0.32359(17)
O3A O -0.6875(3) 0.52616(18) 0.06214(17)
H1A H -0.7088 0.5376 -0.0141
H2A H -0.7778 0.5572 0.0824
O4A O 0.0485(3) 0.5974(2) 0.17569(18)
O5A O 0.1028(3) 0.40371(17) 0.21652(17)
O5_2 O 0.8972(3) 0.59629(17) 0.78348(17)
O5A_2 O -0.8972(3) 0.40371(17) 0.21652(17)
O6A O -0.2693(3) 0.21843(19) 0.4930(2)
O7A O -0.4395(3) 0.3364(2) 0.59281(19)
H3A H -0.4493 0.4133 0.6194
N1A N -0.7104(3) 0.1794(2) 0.1977(2)
N2A N -0.7001(3) 0.2312(2) -0.0347(2)
C1A C -0.7172(5) 0.1555(3) 0.3139(3)
H4A H -0.7001 0.2232 0.3806
C2A C -0.7492(5) 0.0321(3) 0.3402(3)
H5A H -0.7524 0.0194 0.4230
C3A C -0.7755(5) -0.0684(3) 0.2445(3)
H6A H -0.7959 -0.1503 0.2614
C4A C -0.7958(5) -0.1452(3) 0.0123(3)
H7A H -0.8204 -0.2290 0.0225
C5A C -0.7838(5) -0.1192(3) -0.1048(3)
H8A H -0.7995 -0.1854 -0.1728
C6A C -0.7300(5) 0.0403(3) -0.2438(3)
H9A H -0.7404 -0.0225 -0.3141
C7A C -0.6976(5) 0.1646(3) -0.2546(3)
H10A H -0.6836 0.1873 -0.3321
C8A C -0.6855(4) 0.2584(3) -0.1478(3)
H11A H -0.6665 0.3429 -0.1571
C9A C -0.7475(4) 0.0080(3) -0.1256(3)
C10A C -0.7280(4) 0.1073(2) -0.0223(2)
C11A C -0.7717(4) -0.0480(3) 0.1197(3)
C12A C -0.7367(4) 0.0791(2) 0.1016(3)
C13A C -0.3364(4) 0.4166(2) 0.2865(2)
C14A C -0.1460(3) 0.4282(2) 0.3866(2)
H12A H -0.0892 0.3498 0.3718
C15A C -0.1798(3) 0.4423(2) 0.5223(2)
H13A H -0.2503 0.5147 0.5347
C16A C -0.0099(3) 0.5380(2) 0.3692(2)
H14A H -0.0711 0.6157 0.3723
C17A C 0.0474(4) 0.5110(2) 0.2408(2)
C18A C -0.2992(4) 0.3227(3) 0.5330(2)
loop_
_geom_bond_atom_site_label_1
_geom_bond_atom_site_label_2
_geom_bond_site_symmetry_1
_geom_bond_site_symmetry_2
Co1 O1 1_555 1_555
O1 C13 1_555 1_555
O2 Co1 1_555 1_555
O3 Co1 1_555 1_555
H1 O3 1_555 1_555
H2 O3 1_555 1_555
O4 C17 1_555 1_555
O5 C17 1_555 1_555
O6 C18 1_555 1_555
O7 H3 1_555 1_555
N1 Co1 1_555 1_555
N2 Co1 1_555 1_555
C1 N1 1_555 1_555
H4 C1 1_555 1_555
C2 C1 1_555 1_555
H5 C2 1_555 1_555
C3 C2 1_555 1_555
H6 C3 1_555 1_555
C4 H7 1_555 1_555
C5 C4 1_555 1_555
H8 C5 1_555 1_555
C6 H9 1_555 1_555
C7 C6 1_555 1_555
H10 C7 1_555 1_555
C8 N2 1_555 1_555
H11 C8 1_555 1_555
C9 C5 1_555 1_555
C10 N2 1_555 1_555
C11 C3 1_555 1_555
C12 N1 1_555 1_555
C13 O2 1_555 1_555
C14 C13 1_555 1_555
H12 C14 1_555 1_555
C15 C14 1_555 1_555
H13 C15 1_555 1_555
C16 C14 1_555 1_555
H14 C16 1_555 1_555
C17 C16 1_555 1_555
C18 O7 1_555 1_555
Co1A O1A 1_555 1_555
Co1_2 O5 1_555 1_555
Co1A_2 O5A 1_555 1_555
O1A C13A 1_555 1_555
O2A Co1A 1_555 1_555
O3A Co1A 1_555 1_555
H1A O3A 1_555 1_555
H2A O3A 1_555 1_555
O4A C17A 1_555 1_555
O5A C17A 1_555 1_555
O5_2 Co1 1_555 1_555
O5A_2 Co1A 1_555 1_555
O6A C18A 1_555 1_555
O7A H3A 1_555 1_555
N1A Co1A 1_555 1_555
N2A Co1A 1_555 1_555
C1A N1A 1_555 1_555
H4A C1A 1_555 1_555
C2A C1A 1_555 1_555
H5A C2A 1_555 1_555
C3A C2A 1_555 1_555
H6A C3A 1_555 1_555
C4A H7A 1_555 1_555
C5A C4A 1_555 1_555
H8A C5A 1_555 1_555
C6A H9A 1_555 1_555
C7A C6A 1_555 1_555
H10A C7A 1_555 1_555
C8A N2A 1_555 1_555
H11A C8A 1_555 1_555
C9A C5A 1_555 1_555
C10A N2A 1_555 1_555
C11A C3A 1_555 1_555
C12A N1A 1_555 1_555
C13A O2A 1_555 1_555
C14A C13A 1_555 1_555
H12A C14A 1_555 1_555
C15A C16 1_555 1_555
H13A C15A 1_555 1_555
C16A C15 1_555 1_555
H14A C16A 1_555 1_555
C17A C16A 1_555 1_555
C18A O7A 1_555 1_555
C4 C11 1_555 1_555
C6 C9 1_555 1_555
C7 C8 1_555 1_555
C9 C10 1_555 1_555
C10 C12 1_555 1_555
C11 C12 1_555 1_555
C15 C18 1_555 1_555
C4A C11A 1_555 1_555
C6A C9A 1_555 1_555
C7A C8A 1_555 1_555
C9A C10A 1_555 1_555
C10A C12A 1_555 1_555
C11A C12A 1_555 1_555
C14A C15A 1_555 1_555
C14A C16A 1_555 1_555
C15A C18A 1_555 1_555

#END
