
#######################################################################
#
#                 Cambridge Crystallographic Data Centre
#                                CCDC 
#
#######################################################################
#
# If this CIF has been generated from an entry in the Cambridge 
# Structural Database, then it will include bibliographic, chemical, 
# crystal, experimental, refinement or atomic coordinate data resulting 
# from the CCDC's data processing and validation procedures.
#
#######################################################################

data_UZIZIN
_symmetry_cell_setting           monoclinic
_symmetry_space_group_name_H-M   'P 21/c'
_symmetry_Int_Tables_number      14
_space_group_name_Hall           '-P 2ybc'
loop_
_symmetry_equiv_pos_site_id
_symmetry_equiv_pos_as_xyz
1 x,y,z
2 -x,1/2+y,1/2-z
3 -x,-y,-z
4 x,1/2-y,1/2+z
_cell_length_a                   10.8890(6)
_cell_length_b                   13.5368(8)
_cell_length_c                   14.2736(8)
_cell_angle_alpha                90
_cell_angle_beta                 107.320(1)
_cell_angle_gamma                90
_cell_volume                     2008.56
loop_
_atom_site_label
_atom_site_type_symbol
_atom_site_fract_x
_atom_site_fract_y
_atom_site_fract_z
Cd1 Cd 0.434921(18) 0.241255(14) 0.181059(13)
O1 O 0.4118(2) 0.07363(17) 0.12103(14)
O2 O 0.3553(3) 0.19448(17) 0.01969(17)
O3 O 0.3840(2) 0.13613(18) -0.20913(18)
O4 O 0.2534(2) 0.25507(17) -0.2746(2)
N1 N 0.6269(2) 0.19862(18) 0.29286(16)
N2 N 1.4588(2) -0.13119(16) 0.36886(15)
C1 C 0.6860(3) 0.2611(2) 0.3652(2)
H1 H 0.6382 0.3147 0.3796
C2 C 0.8131(3) 0.25081(19) 0.4194(2)
H2 H 0.8506 0.2960 0.4709
C3 C 0.8868(3) 0.1742(2) 0.3989(2)
C4 C 0.8238(3) 0.1091(2) 0.3252(2)
H3 H 0.8691 0.0548 0.3093
C5 C 0.6952(3) 0.1230(2) 0.2750(2)
H4 H 0.6538 0.0767 0.2256
C6 C 1.0270(3) 0.1663(2) 0.4534(2)
H5 H 1.0363 0.1506 0.5229
H6 H 1.0679 0.2313 0.4517
C7 C 1.0999(3) 0.0874(2) 0.4125(2)
H7 H 1.0656 0.0211 0.4200
H8 H 1.0860 0.0994 0.3417
C8 C 1.2420(3) 0.0904(2) 0.4659(3)
H9 H 1.2551 0.0807 0.5369
H10 H 1.2761 0.1564 0.4569
C9 C 1.4251(3) -0.1409(2) 0.4516(2)
H11 H 1.4512 -0.1987 0.4901
C10 C 1.3549(3) -0.0714(2) 0.4831(2)
H12 H 1.3334 -0.0816 0.5421
C11 C 1.3158(3) 0.0124(2) 0.4297(2)
C12 C 1.3490(3) 0.0231(2) 0.3421(2)
H13 H 1.3226 0.0800 0.3022
C13 C 1.4199(2) -0.0494(2) 0.31487(19)
H14 H 1.4421 -0.0414 0.2558
C14 C 0.3651(3) 0.1050(2) 0.03679(19)
C15 C 0.3199(3) 0.0335(2) -0.04894(19)
H15 H 0.3836 0.0325 -0.0860
H16 H 0.3151 -0.0338 -0.0233
C16 C 0.1903(3) 0.06139(19) -0.11734(18)
C17 C 0.0816(3) 0.0191(2) -0.1018(2)
H17 H 0.0926 -0.0282 -0.0507
C18 C -0.0421(3) 0.0431(3) -0.1580(2)
H18 H -0.1141 0.0115 -0.1464
C19 C -0.0599(3) 0.1132(3) -0.2306(2)
H19 H -0.1442 0.1311 -0.2689
C20 C 0.0459(3) 0.1572(2) -0.2475(2)
H20 H 0.0332 0.2062 -0.2971
C21 C 0.1716(2) 0.1314(2) -0.19319(18)
C22 C 0.2785(3) 0.1770(2) -0.22541(19)
Cd1C Cd 0.434921(18) 0.258745(14) -0.318941(13)
Cd1A Cd 1.565079(18) -0.258745(14) 0.318941(13)
O3C O 0.3840(2) 0.36387(18) 0.29087(18)
O4C O 0.2534(2) 0.24493(17) 0.2254(2)
N2A N 0.5412(2) 0.36881(16) 0.13114(15)
loop_
_geom_bond_atom_site_label_1
_geom_bond_atom_site_label_2
_geom_bond_site_symmetry_1
_geom_bond_site_symmetry_2
Cd1 O1 1_555 1_555
O1 C14 1_555 1_555
O2 Cd1 1_555 1_555
O3 C22 1_555 1_555
O4 C22 1_555 1_555
N1 Cd1 1_555 1_555
N2 C9 1_555 1_555
C1 N1 1_555 1_555
H1 C1 1_555 1_555
C2 C1 1_555 1_555
H2 C2 1_555 1_555
C3 C2 1_555 1_555
C4 C3 1_555 1_555
H3 C4 1_555 1_555
C5 N1 1_555 1_555
H4 C5 1_555 1_555
C6 C3 1_555 1_555
H5 C6 1_555 1_555
H6 C6 1_555 1_555
C7 C6 1_555 1_555
H7 C7 1_555 1_555
H8 C7 1_555 1_555
C8 C7 1_555 1_555
H9 C8 1_555 1_555
H10 C8 1_555 1_555
C9 H11 1_555 1_555
C10 C9 1_555 1_555
H12 C10 1_555 1_555
C11 C8 1_555 1_555
C12 C11 1_555 1_555
H13 C12 1_555 1_555
C13 N2 1_555 1_555
H14 C13 1_555 1_555
C14 O2 1_555 1_555
C15 C14 1_555 1_555
H15 C15 1_555 1_555
H16 C15 1_555 1_555
C16 C15 1_555 1_555
C17 C16 1_555 1_555
H17 C17 1_555 1_555
C18 C17 1_555 1_555
H18 C18 1_555 1_555
C19 C18 1_555 1_555
H19 C19 1_555 1_555
C20 C19 1_555 1_555
H20 C20 1_555 1_555
C21 C16 1_555 1_555
C22 C21 1_555 1_555
Cd1C O3 1_555 1_555
Cd1A N2 1_555 1_555
O3C Cd1 1_555 1_555
O4C Cd1 1_555 1_555
N2A Cd1 1_555 1_555
O4 Cd1C 1_555 1_555
C4 C5 1_555 1_555
C10 C11 1_555 1_555
C12 C13 1_555 1_555
C20 C21 1_555 1_555

#END
