
#######################################################################
#
#                 Cambridge Crystallographic Data Centre
#                                CCDC 
#
#######################################################################
#
# If this CIF has been generated from an entry in the Cambridge 
# Structural Database, then it will include bibliographic, chemical, 
# crystal, experimental, refinement or atomic coordinate data resulting 
# from the CCDC's data processing and validation procedures.
#
#######################################################################

data_UZOBOB
_symmetry_cell_setting           orthorhombic
_symmetry_space_group_name_H-M   'P c c n'
_symmetry_Int_Tables_number      56
_space_group_name_Hall           '-P 2ab 2ac'
loop_
_symmetry_equiv_pos_site_id
_symmetry_equiv_pos_as_xyz
1 x,y,z
2 1/2-x,1/2-y,z
3 1/2+x,-y,1/2-z
4 -x,1/2+y,1/2-z
5 -x,-y,-z
6 1/2+x,1/2+y,-z
7 1/2-x,y,1/2+z
8 x,1/2-y,1/2+z
_cell_length_a                   11.4111(14)
_cell_length_b                   27.955(4)
_cell_length_c                   14.887(2)
_cell_angle_alpha                90
_cell_angle_beta                 90
_cell_angle_gamma                90
_cell_volume                     4748.91
loop_
_atom_site_label
_atom_site_type_symbol
_atom_site_fract_x
_atom_site_fract_y
_atom_site_fract_z
Ag1 Ag 0.41907(5) 0.56683(2) 0.60053(4)
Ag2 Ag 0.41845(5) 0.42176(2) 0.61438(4)
O1 O 0.3858(7) 0.3931(3) 0.7770(5)
H1 H 0.370(8) 0.370(3) 0.731(4)
H2 H 0.319(5) 0.383(3) 0.814(5)
N1 N 0.2625(5) 0.5168(2) 0.6283(4)
N2 N 0.2599(5) 0.4676(2) 0.6261(4)
N3 N 0.0842(5) 0.4937(2) 0.6609(5)
N4 N -0.4157(5) 0.5235(2) 0.6115(5)
N5 N -0.4139(5) 0.4745(2) 0.6211(5)
N6 N -0.2345(5) 0.4991(2) 0.6038(4)
N7 N 0.4096(5) 0.6321(2) 0.5148(5)
N8 N 0.4677(5) 0.63820(19) 0.4341(5)
N9 N 0.3663(6) 0.7030(2) 0.4631(5)
C1 C -0.0438(6) 0.4949(3) 0.6779(5)
H3 H -0.0633 0.5225 0.7157
H4 H -0.0678 0.4658 0.7096
C2 C -0.1077(7) 0.4984(3) 0.5897(6)
H5 H -0.0838 0.5277 0.5585
H6 H -0.0868 0.4711 0.5517
C3 C 0.1567(6) 0.5306(3) 0.6488(6)
H7 H 0.1341 0.5628 0.6543
C4 C 0.1519(6) 0.4552(3) 0.6460(6)
H8 H 0.1253 0.4234 0.6493
C5 C -0.3068(6) 0.5366(3) 0.6013(5)
H9 H -0.2823 0.5684 0.5932
C6 C -0.3051(7) 0.4608(3) 0.6147(5)
H10 H -0.2795 0.4289 0.6173
C7 C 0.3162(7) 0.7516(3) 0.4566(6)
H11 H 0.3432 0.7670 0.4013
H12 H 0.3426 0.7709 0.5077
C8 C 0.3503(7) 0.6709(2) 0.5294(5)
H13 H 0.3024 0.6760 0.5799
C9 C 0.4381(7) 0.6807(3) 0.4045(6)
H14 H 0.4635 0.6938 0.3498
Ag1_2 Ag 1.41907(5) 0.56683(2) 0.60053(4)
Ag1_3 Ag -0.58093(5) 0.56683(2) 0.60053(4)
Ag1A Ag 0.08093(5) 0.93317(2) 0.60053(4)
Ag2_2 Ag 1.41845(5) 0.42176(2) 0.61438(4)
Ag2_3 Ag -0.58155(5) 0.42176(2) 0.61438(4)
Ag2D Ag 0.58155(5) 0.57824(2) 0.38562(4)
Ag2E Ag -0.08155(5) 0.92176(2) 0.38562(4)
O1_2 O 1.3858(7) 0.3931(3) 0.7770(5)
H1_2 H 1.370(8) 0.370(3) 0.731(4)
H2_2 H 1.319(5) 0.383(3) 0.814(5)
N1_2 N 1.2625(5) 0.5168(2) 0.6283(4)
N2_2 N 1.2599(5) 0.4676(2) 0.6261(4)
N3_2 N 1.0842(5) 0.4937(2) 0.6609(5)
N4_2 N 0.5843(5) 0.5235(2) 0.6115(5)
N4_3 N 1.5843(5) 0.5235(2) 0.6115(5)
N5_2 N 0.5861(5) 0.4745(2) 0.6211(5)
N5_3 N 1.5861(5) 0.4745(2) 0.6211(5)
N6_2 N 0.7655(5) 0.4991(2) 0.6038(4)
N7A N 0.0904(5) 0.8679(2) 0.5148(5)
N7_2 N 1.4096(5) 0.6321(2) 0.5148(5)
N8A N 0.0323(5) 0.86180(19) 0.4341(5)
N8D N 0.5323(5) 0.36180(19) 0.5659(5)
N8D_2 N 1.5323(5) 0.36180(19) 0.5659(5)
N9A N 0.1337(6) 0.7970(2) 0.4631(5)
C1_2 C 0.9562(6) 0.4949(3) 0.6779(5)
H3_2 H 0.9367 0.5225 0.7157
H4_2 H 0.9322 0.4658 0.7096
C2_2 C 0.8923(7) 0.4984(3) 0.5897(6)
H5_2 H 0.9162 0.5277 0.5585
H6_2 H 0.9132 0.4711 0.5517
C3_2 C 1.1567(6) 0.5306(3) 0.6488(6)
H7_2 H 1.1341 0.5628 0.6543
C4_2 C 1.1519(6) 0.4552(3) 0.6460(6)
H8_2 H 1.1253 0.4234 0.6493
C5_2 C 0.6932(6) 0.5366(3) 0.6013(5)
H9_2 H 0.7177 0.5684 0.5932
C6_2 C 0.6949(7) 0.4608(3) 0.6147(5)
H10_2 H 0.7205 0.4289 0.6173
C7A C 0.1838(7) 0.7484(3) 0.4566(6)
H11A H 0.1568 0.7330 0.4013
H12A H 0.1574 0.7291 0.5077
C8A C 0.1497(7) 0.8291(2) 0.5294(5)
H13A H 0.1976 0.8240 0.5799
C9A C 0.0619(7) 0.8193(3) 0.4045(6)
H14A H 0.0365 0.8062 0.3498
S1 S 0.38098(17) 0.64200(6) 0.78036(13)
O2 O 0.4882(6) 0.6185(3) 0.7529(6)
O3 O 0.2870(6) 0.6251(3) 0.7224(5)
O4 O 0.3531(6) 0.6314(2) 0.8735(4)
O5 O 0.3946(7) 0.6933(2) 0.7691(5)
O6 O 0.5017(6) 0.6112(3) 0.0080(5)
O7 O 0.4211(6) 0.6565(3) 0.1646(5)
O8 O 0.7284(10) 0.6421(4) -0.0158(10)
O9 O 0.8223(9) 0.6517(4) 0.1702(11)
O10 O 0.5307(14) 0.7429(5) 0.1863(19)
O11 O 0.2500 0.7500 0.1730(9)
loop_
_geom_bond_atom_site_label_1
_geom_bond_atom_site_label_2
_geom_bond_site_symmetry_1
_geom_bond_site_symmetry_2
Ag1 N1 1_555 1_555
Ag2 O1 1_555 1_555
S1 O2 1_555 1_555
O1 H1 1_555 1_555
H2 O1 1_555 1_555
O3 S1 1_555 1_555
O4 S1 1_555 1_555
O5 S1 1_555 1_555
N1 N2 1_555 1_555
N2 Ag2 1_555 1_555
N3 C1 1_555 1_555
N4 N5 1_555 1_555
N5 C6 1_555 1_555
N6 C2 1_555 1_555
N7 Ag1 1_555 1_555
N8 N7 1_555 1_555
N9 C7 1_555 1_555
C1 H3 1_555 1_555
H4 C1 1_555 1_555
C2 C1 1_555 1_555
H5 C2 1_555 1_555
H6 C2 1_555 1_555
C3 N1 1_555 1_555
H7 C3 1_555 1_555
C4 N2 1_555 1_555
H8 C4 1_555 1_555
C5 N4 1_555 1_555
H9 C5 1_555 1_555
C6 N6 1_555 1_555
H10 C6 1_555 1_555
C7 H11 1_555 1_555
H12 C7 1_555 1_555
C8 N7 1_555 1_555
H13 C8 1_555 1_555
C9 N8 1_555 1_555
H14 C9 1_555 1_555
Ag1_2 N1_2 1_555 1_555
Ag1_3 N4 1_555 1_555
Ag1A N7A 1_555 1_555
Ag2_2 O1_2 1_555 1_555
Ag2_3 N5 1_555 1_555
Ag2D N8 1_555 1_555
Ag2E N8A 1_555 1_555
O1_2 H1_2 1_555 1_555
H2_2 O1_2 1_555 1_555
N1_2 N2_2 1_555 1_555
N2_2 Ag2_2 1_555 1_555
N3_2 C1_2 1_555 1_555
N4_2 Ag1 1_555 1_555
N4_3 Ag1_2 1_555 1_555
N5_2 Ag2 1_555 1_555
N5_3 Ag2_2 1_555 1_555
N6_2 C2_2 1_555 1_555
N7A N8A 1_555 1_555
N7_2 Ag1_2 1_555 1_555
N8A C9A 1_555 1_555
N8D Ag2 1_555 1_555
N8D_2 Ag2_2 1_555 1_555
N9A C7A 1_555 1_555
C1_2 H3_2 1_555 1_555
H4_2 C1_2 1_555 1_555
C2_2 C1_2 1_555 1_555
H5_2 C2_2 1_555 1_555
H6_2 C2_2 1_555 1_555
C3_2 N1_2 1_555 1_555
H7_2 C3_2 1_555 1_555
C4_2 N2_2 1_555 1_555
H8_2 C4_2 1_555 1_555
C5_2 N4_2 1_555 1_555
H9_2 C5_2 1_555 1_555
C6_2 N5_2 1_555 1_555
H10_2 C6_2 1_555 1_555
C7A C7 1_555 1_555
H11A C7A 1_555 1_555
H12A C7A 1_555 1_555
C8A N7A 1_555 1_555
H13A C8A 1_555 1_555
C9A N9A 1_555 1_555
H14A C9A 1_555 1_555
N3 C3 1_555 1_555
N3 C4 1_555 1_555
N6 C5 1_555 1_555
N9 C8 1_555 1_555
N9 C9 1_555 1_555
N3_2 C3_2 1_555 1_555
N3_2 C4_2 1_555 1_555
N4_2 N5_2 1_555 1_555
N4_3 N5_3 1_555 1_555
N6_2 C5_2 1_555 1_555
N6_2 C6_2 1_555 1_555
N9A C8A 1_555 1_555

#END
