
#######################################################################
#
#                 Cambridge Crystallographic Data Centre
#                                CCDC 
#
#######################################################################
#
# If this CIF has been generated from an entry in the Cambridge 
# Structural Database, then it will include bibliographic, chemical, 
# crystal, experimental, refinement or atomic coordinate data resulting 
# from the CCDC's data processing and validation procedures.
#
#######################################################################

data_UZOBER
_symmetry_cell_setting           orthorhombic
_symmetry_space_group_name_H-M   'C c c m'
_symmetry_Int_Tables_number      66
_space_group_name_Hall           '-C 2 2n'
loop_
_symmetry_equiv_pos_site_id
_symmetry_equiv_pos_as_xyz
1 x,y,z
2 -x,-y,z
3 1/2+x,1/2+y,z
4 1/2-x,1/2-y,z
5 x,-y,1/2-z
6 -x,y,1/2-z
7 1/2+x,1/2-y,1/2-z
8 1/2-x,1/2+y,1/2-z
9 -x,-y,-z
10 x,y,-z
11 1/2-x,1/2-y,-z
12 1/2+x,1/2+y,-z
13 -x,y,1/2+z
14 x,-y,1/2+z
15 1/2-x,1/2+y,1/2+z
16 1/2+x,1/2-y,1/2+z
_cell_length_a                   7.8161(15)
_cell_length_b                   21.283(4)
_cell_length_c                   8.3419(14)
_cell_angle_alpha                90
_cell_angle_beta                 90
_cell_angle_gamma                90
_cell_volume                     1387.68
loop_
_atom_site_label
_atom_site_type_symbol
_atom_site_fract_x
_atom_site_fract_y
_atom_site_fract_z
N3 N 0.2500 0.2500 0.0000
O1 O 0.2500 0.2500 0.1412(10)
O2 O 0.221(6) 0.1950(11) 0.0000
O1I O 0.2500 0.2500 -0.1412(10)
O2C O 0.279(6) 0.3050(11) 0.0000
O3 O 0.5000 0.0000 -0.2500
O4 O 0.378(5) 0.071(3) 0.0000
Ag1 Ag 0.0000 0.0000 0.2500
N1 N 0.2380(13) 0.1608(4) 0.5000
N2 N 0.1191(9) 0.0756(2) 0.4180(6)
C1 C 0.3186(17) 0.2246(5) 0.5000
H1 H 0.388(12) 0.228(4) 0.376(10)
C2 C 0.1914(11) 0.1276(3) 0.3694(9)
H2 H 0.2080 0.1398 0.2622
Ag1H Ag 0.0000 0.0000 0.7500
Ag1B Ag -0.5000 -0.5000 0.2500
Ag1B_2 Ag 0.5000 0.5000 0.2500
Ag1J Ag -0.5000 -0.5000 0.7500
Ag1J_2 Ag 0.5000 0.5000 0.7500
N1C N 0.2620(13) 0.3392(4) 0.5000
N1A N -0.2380(13) -0.1608(4) 0.5000
N1B N -0.2620(13) -0.3392(4) 0.5000
N2C N 0.3809(9) 0.4244(2) 0.4180(6)
N2I N 0.1191(9) 0.0756(2) 0.5820(6)
N2J N 0.3809(9) 0.4244(2) 0.5820(6)
N2A N -0.1191(9) -0.0756(2) 0.4180(6)
N2B N -0.3809(9) -0.4244(2) 0.4180(6)
N2H N -0.1191(9) -0.0756(2) 0.5820(6)
N2K N -0.3809(9) -0.4244(2) 0.5820(6)
N2L N -0.1191(9) 0.0756(2) 0.9180(6)
N2M N 0.1191(9) -0.0756(2) 0.9180(6)
N2D N 0.1191(9) -0.0756(2) 0.0820(6)
N2E N -0.1191(9) 0.0756(2) 0.0820(6)
C1C C 0.1814(17) 0.2754(5) 0.5000
C1A C -0.3186(17) -0.2246(5) 0.5000
C1B C -0.1814(17) -0.2754(5) 0.5000
H1C H 0.112(12) 0.272(4) 0.376(10)
H1I H 0.388(12) 0.228(4) 0.624(10)
H1J H 0.112(12) 0.272(4) 0.624(10)
H1A H -0.388(12) -0.228(4) 0.376(10)
H1B H -0.112(12) -0.272(4) 0.376(10)
H1H H -0.388(12) -0.228(4) 0.624(10)
H1K H -0.112(12) -0.272(4) 0.624(10)
C2C C 0.3086(11) 0.3724(3) 0.3694(9)
C2I C 0.1914(11) 0.1276(3) 0.6306(9)
C2J C 0.3086(11) 0.3724(3) 0.6306(9)
C2A C -0.1914(11) -0.1276(3) 0.3694(9)
C2B C -0.3086(11) -0.3724(3) 0.3694(9)
C2H C -0.1914(11) -0.1276(3) 0.6306(9)
C2K C -0.3086(11) -0.3724(3) 0.6306(9)
H2C H 0.2920 0.3602 0.2622
H2I H 0.2080 0.1398 0.7378
H2J H 0.2920 0.3602 0.7378
H2A H -0.2080 -0.1398 0.2622
H2B H -0.2920 -0.3602 0.2622
H2H H -0.2080 -0.1398 0.7378
H2K H -0.2920 -0.3602 0.7378
loop_
_geom_bond_atom_site_label_1
_geom_bond_atom_site_label_2
_geom_bond_site_symmetry_1
_geom_bond_site_symmetry_2
Ag1 N2 1_555 1_555
N1 C1 1_555 1_555
N2 C2 1_555 1_555
N3 O1 1_555 1_555
C1 H1 1_555 1_555
C2 N1 1_555 1_555
H2 C2 1_555 1_555
O1 O2 1_555 1_555
O2 N3 1_555 1_555
Ag1H N2I 1_555 1_555
Ag1B N2B 1_555 1_555
Ag1B_2 N2C 1_555 1_555
Ag1J N2K 1_555 1_555
Ag1J_2 N2J 1_555 1_555
N1C C1C 1_555 1_555
N1A C1A 1_555 1_555
N1B C1B 1_555 1_555
N2C N2J 1_555 1_555
N2I N2 1_555 1_555
N2J C2J 1_555 1_555
N2A Ag1 1_555 1_555
N2B N2K 1_555 1_555
N2H Ag1H 1_555 1_555
N2K C2K 1_555 1_555
N2L Ag1H 1_555 1_555
N2M Ag1H 1_555 1_555
N2D Ag1 1_555 1_555
N2E Ag1 1_555 1_555
C1C C1 1_555 1_555
C1A C1B 1_555 1_555
C1B H1B 1_555 1_555
H1C C1C 1_555 1_555
H1I C1 1_555 1_555
H1J C1C 1_555 1_555
H1A C1A 1_555 1_555
H1H C1A 1_555 1_555
H1K C1B 1_555 1_555
C2C N1C 1_555 1_555
C2I N1 1_555 1_555
C2J N1C 1_555 1_555
C2A N1A 1_555 1_555
C2B N1B 1_555 1_555
C2H N1A 1_555 1_555
C2K N1B 1_555 1_555
H2C C2C 1_555 1_555
H2I C2I 1_555 1_555
H2J C2J 1_555 1_555
H2A C2A 1_555 1_555
H2B C2B 1_555 1_555
H2H C2H 1_555 1_555
H2K C2K 1_555 1_555
O1I N3 1_555 1_555
O2C N3 1_555 1_555
O1 O2C 1_555 1_555
O2 O1I 1_555 1_555
N2C C2C 1_555 1_555
N2I C2I 1_555 1_555
N2A N2H 1_555 1_555
N2A C2A 1_555 1_555
N2B C2B 1_555 1_555
N2H C2H 1_555 1_555
O1I O2C 1_555 1_555

#END
