
#######################################################################
#
#                 Cambridge Crystallographic Data Centre
#                                CCDC 
#
#######################################################################
#
# If this CIF has been generated from an entry in the Cambridge 
# Structural Database, then it will include bibliographic, chemical, 
# crystal, experimental, refinement or atomic coordinate data resulting 
# from the CCDC's data processing and validation procedures.
#
#######################################################################

data_UZOCES
_symmetry_cell_setting           monoclinic
_symmetry_space_group_name_H-M   'C 2/c'
_symmetry_Int_Tables_number      15
_space_group_name_Hall           '-C 2yn'
loop_
_symmetry_equiv_pos_site_id
_symmetry_equiv_pos_as_xyz
1 x,y,z
2 -x,y,1/2-z
3 1/2+x,1/2+y,z
4 1/2-x,1/2+y,1/2-z
5 -x,-y,-z
6 x,-y,1/2+z
7 1/2-x,1/2-y,-z
8 1/2+x,1/2-y,1/2+z
_cell_length_a                   18.9136(8)
_cell_length_b                   7.4321(3)
_cell_length_c                   14.5797(7)
_cell_angle_alpha                90
_cell_angle_beta                 105.623(5)
_cell_angle_gamma                90
_cell_volume                     1973.72
loop_
_atom_site_label
_atom_site_type_symbol
_atom_site_fract_x
_atom_site_fract_y
_atom_site_fract_z
Cu1 Cu 1.0000 0.0000 0.5000
S1 S 1.07703(3) -0.86983(9) 0.69282(5)
Na1 Na 1.19820(5) -0.33492(14) 0.57333(7)
O1 O 1.09014(8) -0.1311(2) 0.49891(12)
O2 O 1.21646(12) -0.1358(3) 0.69448(16)
O3 O 1.19452(9) -0.0997(3) 0.45832(13)
N1 N 1.04320(10) 0.1902(3) 0.43691(14)
C1 C 1.11044(12) 0.1447(3) 0.42874(17)
C2 C 1.05602(14) 0.4773(4) 0.37093(19)
H1 H 1.0360 0.5893 0.3505
N2 N 1.15705(12) -0.5991(3) 0.63096(16)
C3 C 1.13431(13) -0.0418(4) 0.46343(17)
C4 C 1.12541(14) 0.4325(4) 0.36412(19)
H2 H 1.1532 0.5150 0.3408
C5 C 1.12382(13) -0.7116(4) 0.65585(17)
C6 C 1.01679(13) 0.3540(3) 0.40826(19)
H3 H 0.9705 0.3857 0.4137
C7 C 1.15293(13) 0.2617(4) 0.39281(18)
H4 H 1.1990 0.2272 0.3878
H5 H 1.185(2) -0.081(6) 0.696(4)
H6 H 1.2456(19) -0.124(6) 0.740(2)
S1D S 0.92297(3) 0.86983(9) 0.30718(5)
Na1D Na 0.80180(5) 0.33492(14) 0.42667(7)
Na1F Na 1.30180(5) -0.16508(14) 0.42667(7)
Na1B Na 0.69820(5) 0.16508(14) 0.57333(7)
O1D O 0.90986(8) 0.1311(2) 0.50109(12)
O2D O 0.78354(12) 0.1358(3) 0.30552(16)
O3D O 0.80548(9) 0.0997(3) 0.54168(13)
O3F O 1.30548(9) -0.4003(3) 0.54168(13)
O3B O 0.69452(9) 0.4003(3) 0.45832(13)
N1D N 0.95680(10) -0.1902(3) 0.56309(14)
C1D C 0.88956(12) -0.1447(3) 0.57126(17)
C2D C 0.94398(14) -0.4773(4) 0.62907(19)
H1D H 0.9640 -0.5893 0.6495
N2D N 0.84295(12) 0.5991(3) 0.36904(16)
C3D C 0.86569(13) 0.0418(4) 0.53657(17)
C4D C 0.87459(14) -0.4325(4) 0.63588(19)
H2D H 0.8468 -0.5150 0.6592
C5D C 0.87618(13) 0.7116(4) 0.34415(17)
C6D C 0.98321(13) -0.3540(3) 0.59174(19)
H3D H 1.0295 -0.3857 0.5863
C7D C 0.84707(13) -0.2617(4) 0.60719(18)
H4D H 0.8010 -0.2272 0.6122
H5D H 0.815(2) 0.081(6) 0.304(4)
H6D H 0.7544(19) 0.124(6) 0.260(2)
loop_
_geom_bond_atom_site_label_1
_geom_bond_atom_site_label_2
_geom_bond_site_symmetry_1
_geom_bond_site_symmetry_2
Cu1 O1 1_555 1_555
S1 C5 1_555 1_555
Na1 O1 1_555 1_555
O1 C3 1_555 1_555
O2 Na1 1_555 1_555
O3 Na1 1_555 1_555
N1 Cu1 1_555 1_555
C1 N1 1_555 1_555
C2 H1 1_555 1_555
N2 Na1 1_555 1_555
C3 O3 1_555 1_555
C4 C2 1_555 1_555
H2 C4 1_555 1_555
C5 N2 1_555 1_555
C6 N1 1_555 1_555
H3 C6 1_555 1_555
C7 C1 1_555 1_555
H4 C7 1_555 1_555
H5 O2 1_555 1_555
H6 O2 1_555 1_555
S1D C5D 1_555 1_555
Na1D O1D 1_555 1_555
Na1F O3 1_555 1_555
Na1B O3D 1_555 1_555
O1D Cu1 1_555 1_555
O2D Na1D 1_555 1_555
O3D Na1D 1_555 1_555
O3F Na1 1_555 1_555
O3B Na1D 1_555 1_555
N1D Cu1 1_555 1_555
C1D N1D 1_555 1_555
C2D H1D 1_555 1_555
N2D Na1D 1_555 1_555
C3D O1D 1_555 1_555
C4D C2D 1_555 1_555
H2D C4D 1_555 1_555
C5D N2D 1_555 1_555
C6D N1D 1_555 1_555
H3D C6D 1_555 1_555
C7D C1D 1_555 1_555
H4D C7D 1_555 1_555
H5D O2D 1_555 1_555
H6D O2D 1_555 1_555
C1 C3 1_555 1_555
C2 C6 1_555 1_555
C4 C7 1_555 1_555
Na1F O3F 1_555 1_555
Na1B O3B 1_555 1_555
O3D C3D 1_555 1_555
C1D C3D 1_555 1_555
C2D C6D 1_555 1_555
C4D C7D 1_555 1_555

#END
