
#######################################################################
#
#                 Cambridge Crystallographic Data Centre
#                                CCDC 
#
#######################################################################
#
# If this CIF has been generated from an entry in the Cambridge 
# Structural Database, then it will include bibliographic, chemical, 
# crystal, experimental, refinement or atomic coordinate data resulting 
# from the CCDC's data processing and validation procedures.
#
#######################################################################

data_UZOCAO
_symmetry_cell_setting           triclinic
_symmetry_space_group_name_H-M   'P -1'
_symmetry_Int_Tables_number      2
_space_group_name_Hall           '-P 1'
loop_
_symmetry_equiv_pos_site_id
_symmetry_equiv_pos_as_xyz
1 x,y,z
2 -x,-y,-z
_cell_length_a                   7.5800(3)
_cell_length_b                   10.0080(4)
_cell_length_c                   10.1999(5)
_cell_angle_alpha                67.168(4)
_cell_angle_beta                 88.318(4)
_cell_angle_gamma                68.012(4)
_cell_volume                     655.158
loop_
_atom_site_label
_atom_site_type_symbol
_atom_site_fract_x
_atom_site_fract_y
_atom_site_fract_z
C8 C 0.9534(12) 0.0307(9) 0.0160(9)
O4 O 0.6669(10) 0.0857(8) 0.1332(9)
O5 O 0.745(2) 0.3054(10) -0.0056(9)
C9 C 0.7461(8) 0.1641(6) 0.0392(5)
C10 C 0.8764(13) 0.2200(11) -0.0137(9)
C11 C 0.7192(15) 0.0408(13) 0.0531(7)
C12 C 0.9306(9) -0.0980(6) 0.0362(4)
C8A C 1.0466(12) -0.0307(9) -0.0160(9)
O4A O 1.3331(10) -0.0857(8) -0.1332(9)
O5A O 1.255(2) -0.3054(10) 0.0056(9)
C9A C 1.2539(8) -0.1641(6) -0.0392(5)
C10A C 1.1236(13) -0.2200(11) 0.0137(9)
C11A C 1.2808(15) -0.0408(13) -0.0531(7)
C12A C 1.0694(9) 0.0980(6) -0.0362(4)
Cu1 Cu 0.0000 0.5000 0.5000
S1 S 0.84208(12) 0.55705(10) 0.20223(9)
Na1 Na 0.48441(19) 0.18636(15) 0.35970(16)
O1 O 0.2157(3) 0.3207(2) 0.4917(2)
N1 N -0.1158(3) 0.3443(3) 0.5828(3)
O2 O 0.2454(4) 0.2894(4) 0.1699(3)
N2 N 0.6551(4) 0.3472(3) 0.2969(3)
C1 C -0.0018(4) 0.2011(3) 0.5897(3)
O3 O 0.3056(3) 0.0677(3) 0.5371(3)
C2 C 0.1886(4) 0.1923(4) 0.5378(3)
C3 C 0.7324(4) 0.4328(4) 0.2569(3)
C4 C -0.2379(5) 0.0985(4) 0.6805(3)
H1 H -0.2794 0.0161 0.7133
C5 C -0.3553(4) 0.2457(4) 0.6730(3)
H2 H -0.4770 0.2636 0.7010
C6 C -0.2906(4) 0.3660(4) 0.6237(3)
H3 H -0.3705 0.4651 0.6186
C7 C -0.0570(5) 0.0754(4) 0.6384(3)
H4 H 0.0253 -0.0228 0.6428
H5 H 0.129(9) 0.347(11) 0.181(12)
H6 H 0.277(10) 0.292(8) 0.085(6)
S1A S -0.84208(12) 0.44295(10) 0.79777(9)
Na1A Na -0.48441(19) 0.81364(15) 0.64030(16)
Na1A_2 Na 0.51559(19) -0.18636(15) 0.64030(16)
Na1_2 Na -0.51559(19) 1.18636(15) 0.35970(16)
O1A O -0.2157(3) 0.6793(2) 0.5083(2)
N1A N 0.1158(3) 0.6557(3) 0.4172(3)
O2A O -0.2454(4) 0.7106(4) 0.8301(3)
N2A N -0.6551(4) 0.6528(3) 0.7031(3)
C1A C 0.0018(4) 0.7989(3) 0.4103(3)
O3A O -0.3056(3) 0.9323(3) 0.4629(3)
O3A_2 O 0.6944(3) -0.0677(3) 0.4629(3)
O3_2 O -0.6944(3) 1.0677(3) 0.5371(3)
C2A C -0.1886(4) 0.8077(4) 0.4622(3)
C3A C -0.7324(4) 0.5672(4) 0.7431(3)
C4A C 0.2379(5) 0.9015(4) 0.3195(3)
H1A H 0.2794 0.9839 0.2867
C5A C 0.3553(4) 0.7543(4) 0.3270(3)
H2A H 0.4770 0.7364 0.2990
C6A C 0.2906(4) 0.6340(4) 0.3763(3)
H3A H 0.3705 0.5349 0.3814
C7A C 0.0570(5) 0.9246(4) 0.3616(3)
H4A H -0.0253 1.0228 0.3572
H5A H -0.129(9) 0.653(11) 0.819(12)
H6A H -0.277(10) 0.708(8) 0.915(6)
loop_
_geom_bond_atom_site_label_1
_geom_bond_atom_site_label_2
_geom_bond_site_symmetry_1
_geom_bond_site_symmetry_2
Cu1 O1 1_555 1_555
S1 C3 1_555 1_555
Na1 O1 1_555 1_555
O1 C2 1_555 1_555
N1 Cu1 1_555 1_555
O2 Na1 1_555 1_555
N2 Na1 1_555 1_555
C1 N1 1_555 1_555
O3 Na1 1_555 1_555
C2 C1 1_555 1_555
C3 N2 1_555 1_555
C4 H1 1_555 1_555
C5 C4 1_555 1_555
H2 C5 1_555 1_555
C6 N1 1_555 1_555
H3 C6 1_555 1_555
C7 C1 1_555 1_555
H4 C7 1_555 1_555
C8 C9 1_555 1_555
O4 C9 1_555 1_555
O5 C9 1_555 1_555
C9 C10 1_555 1_555
C10 C8 1_555 1_555
C11 O4 1_555 1_555
C12 C8 1_555 1_555
H5 O2 1_555 1_555
H6 O2 1_555 1_555
S1A C3A 1_555 1_555
Na1A O1A 1_555 1_555
Na1A_2 O3 1_555 1_555
Na1_2 O3A 1_555 1_555
O1A Cu1 1_555 1_555
N1A Cu1 1_555 1_555
O2A Na1A 1_555 1_555
N2A Na1A 1_555 1_555
C1A N1A 1_555 1_555
O3A Na1A 1_555 1_555
O3A_2 Na1 1_555 1_555
O3_2 Na1A 1_555 1_555
C2A O1A 1_555 1_555
C3A N2A 1_555 1_555
C4A H1A 1_555 1_555
C5A C4A 1_555 1_555
H2A C5A 1_555 1_555
C6A N1A 1_555 1_555
H3A C6A 1_555 1_555
C7A C1A 1_555 1_555
H4A C7A 1_555 1_555
C8A C8 1_555 1_555
O4A C9A 1_555 1_555
O5A C9A 1_555 1_555
C9A C8A 1_555 1_555
C10A C12 1_555 1_555
C11A O4A 1_555 1_555
C12A C8 1_555 1_555
H5A O2A 1_555 1_555
H6A O2A 1_555 1_555
O3 C2 1_555 1_555
C4 C7 1_555 1_555
C5 C6 1_555 1_555
O5 C10 1_555 1_555
C9 C11 1_555 1_555
C10 C12A 1_555 1_555
C11 C12 1_555 1_555
C12 C8A 1_555 1_555
Na1A_2 O3A_2 1_555 1_555
Na1_2 O3_2 1_555 1_555
C1A C2A 1_555 1_555
O3A C2A 1_555 1_555
C4A C7A 1_555 1_555
C5A C6A 1_555 1_555
C8A C10A 1_555 1_555
C8A C12A 1_555 1_555
O5A C10A 1_555 1_555
C9A C10A 1_555 1_555
C9A C11A 1_555 1_555
C11A C12A 1_555 1_555

#END
