
#######################################################################
#
#                 Cambridge Crystallographic Data Centre
#                                CCDC 
#
#######################################################################
#
# If this CIF has been generated from an entry in the Cambridge 
# Structural Database, then it will include bibliographic, chemical, 
# crystal, experimental, refinement or atomic coordinate data resulting 
# from the CCDC's data processing and validation procedures.
#
#######################################################################

data_UZOFOF
_symmetry_cell_setting           monoclinic
_symmetry_space_group_name_H-M   'P 21/c'
_symmetry_Int_Tables_number      14
_space_group_name_Hall           '-P 2ybc'
loop_
_symmetry_equiv_pos_site_id
_symmetry_equiv_pos_as_xyz
1 x,y,z
2 -x,1/2+y,1/2-z
3 -x,-y,-z
4 x,1/2-y,1/2+z
_cell_length_a                   5.5798(5)
_cell_length_b                   6.1164(6)
_cell_length_c                   19.2058(18)
_cell_angle_alpha                90
_cell_angle_beta                 97.672(5)
_cell_angle_gamma                90
_cell_volume                     649.594
loop_
_atom_site_label
_atom_site_type_symbol
_atom_site_fract_x
_atom_site_fract_y
_atom_site_fract_z
Cu1 Cu 0.50472(7) 0.13352(7) 0.25356(2)
Cu2 Cu 0.00548(7) 0.38536(7) 0.24956(2)
S1 S 0.37042(17) -0.19776(17) 0.40948(5)
O1 O 0.4040(6) 0.3880(5) 0.29994(19)
O2 O 0.3528(6) -0.1208(4) 0.33566(16)
O3 O 0.5367(7) -0.3814(5) 0.42240(16)
O4 O 0.8487(7) 0.1393(6) 0.2946(2)
O5 O 0.1606(6) 0.1293(5) 0.2081(2)
C1 C 0.5002(7) 0.0220(7) 0.46110(18)
H1 H 0.6685 0.0449 0.4516
H2 H 0.4078 0.1574 0.4479
O6 O 0.1333(5) -0.2428(6) 0.42928(15)
H3 H 0.441(10) 0.397(8) 0.330(3)
H4 H 0.871(6) 0.157(5) 0.3172(17)
H5 H 0.157(7) 0.138(6) 0.184(2)
Cu1A Cu 0.49528(7) -0.36648(7) 0.24644(2)
Cu1A_2 Cu 0.49528(7) 0.63352(7) 0.24644(2)
Cu1B Cu 0.49528(7) -0.13352(7) 0.74644(2)
Cu1C Cu 0.50472(7) 0.36648(7) 0.75356(2)
Cu1_2 Cu -0.49528(7) 0.13352(7) 0.25356(2)
Cu1A_3 Cu -0.50472(7) 0.63352(7) 0.24644(2)
Cu2A Cu 0.99452(7) -0.11464(7) 0.25044(2)
Cu2A_2 Cu -0.00548(7) -0.11464(7) 0.25044(2)
Cu2_2 Cu 1.00548(7) 0.38536(7) 0.24956(2)
Cu2C Cu 1.00548(7) 0.11464(7) 0.74956(2)
Cu2A_3 Cu -0.00548(7) 0.88536(7) 0.25044(2)
S1B S 0.62958(17) 0.19776(17) 0.59052(5)
O1A O 0.5960(6) -0.1120(5) 0.20006(19)
O1_2 O 0.4040(6) -0.6120(5) 0.29994(19)
O2B O 0.6472(6) 0.1208(4) 0.66434(16)
O2A O 0.6472(6) 0.3792(4) 0.16434(16)
O2A_2 O -0.3528(6) 0.3792(4) 0.16434(16)
O2A_3 O 0.6472(6) -0.6208(4) 0.16434(16)
O2_2 O 1.3528(6) -0.1208(4) 0.33566(16)
O3B O 0.4633(7) 0.3814(5) 0.57760(16)
O4_2 O -0.1513(7) 0.1393(6) 0.2946(2)
O4A O 0.1513(7) 0.6393(6) 0.2054(2)
O4A_2 O 0.1513(7) -0.3607(6) 0.2054(2)
O4A_3 O 1.1513(7) -0.3607(6) 0.2054(2)
O5A O -0.1606(6) 0.6293(5) 0.2919(2)
O5A_2 O 0.8394(6) -0.3707(5) 0.2919(2)
O5_2 O 1.1606(6) 0.1293(5) 0.2081(2)
C1B C 0.4998(7) -0.0220(7) 0.53890(18)
H1B H 0.3315 -0.0449 0.5484
H2B H 0.5922 -0.1574 0.5521
O6B O 0.8667(5) 0.2428(6) 0.57072(15)
H3A H 0.559(10) -0.103(8) 0.170(3)
H3_2 H 0.441(10) -0.603(8) 0.330(3)
H4_2 H -0.129(6) 0.157(5) 0.3172(17)
H4A H 0.129(6) 0.657(5) 0.1828(17)
H4A_2 H 0.129(6) -0.343(5) 0.1828(17)
H4A_3 H 1.129(6) -0.343(5) 0.1828(17)
H5A H -0.157(7) 0.638(6) 0.316(2)
H5A_2 H 0.843(7) -0.362(6) 0.316(2)
H5_2 H 1.157(7) 0.138(6) 0.184(2)
O7 O -0.0012(6) 0.3002(6) 0.43060(16)
H6 H -0.0662 0.2863 0.4775
H7 H -0.0418 0.4624 0.4282
loop_
_geom_bond_atom_site_label_1
_geom_bond_atom_site_label_2
_geom_bond_site_symmetry_1
_geom_bond_site_symmetry_2
Cu1 O1 1_555 1_555
Cu2 O1 1_555 1_555
S1 O2 1_555 1_555
O1 H3 1_555 1_555
O2 Cu1 1_555 1_555
O3 S1 1_555 1_555
O4 Cu1 1_555 1_555
O5 Cu1 1_555 1_555
C1 S1 1_555 1_555
H1 C1 1_555 1_555
H2 C1 1_555 1_555
O6 S1 1_555 1_555
H4 O4 1_555 1_555
H5 O5 1_555 1_555
O7 H6 1_555 1_555
H7 O7 1_555 1_555
Cu1A O2 1_555 1_555
Cu1A_2 O1 1_555 1_555
Cu1B O2B 1_555 1_555
Cu1C O2B 1_555 1_555
Cu1_2 O2A_2 1_555 1_555
Cu1A_3 O2A_2 1_555 1_555
Cu2A O4 1_555 1_555
Cu2A_2 O2 1_555 1_555
Cu2_2 O4 1_555 1_555
Cu2C O2B 1_555 1_555
Cu2A_3 O4A 1_555 1_555
S1B O2B 1_555 1_555
O1A Cu1 1_555 1_555
O1_2 Cu1A 1_555 1_555
O2A Cu1 1_555 1_555
O2A_2 Cu2 1_555 1_555
O2A_3 Cu1A 1_555 1_555
O2_2 Cu2A 1_555 1_555
O3B S1B 1_555 1_555
O4_2 Cu2 1_555 1_555
O4A Cu2 1_555 1_555
O4A_2 Cu1A 1_555 1_555
O4A_3 Cu2A 1_555 1_555
O5A Cu2 1_555 1_555
O5A_2 Cu1A 1_555 1_555
O5_2 Cu2A 1_555 1_555
C1B C1 1_555 1_555
H1B C1B 1_555 1_555
H2B C1B 1_555 1_555
O6B S1B 1_555 1_555
H3A O1A 1_555 1_555
H3_2 O1_2 1_555 1_555
H4_2 O4_2 1_555 1_555
H4A O4A 1_555 1_555
H4A_2 O4A_2 1_555 1_555
H4A_3 O4A_3 1_555 1_555
H5A O5A 1_555 1_555
H5A_2 O5A_2 1_555 1_555
H5_2 O5_2 1_555 1_555
Cu2 O5 1_555 1_555
O5 Cu2A_2 1_555 1_555
Cu1A O1A 1_555 1_555
Cu1A_2 O2A 1_555 1_555
Cu1A_2 O4A 1_555 1_555
Cu1_2 O4_2 1_555 1_555
Cu1A_3 O5A 1_555 1_555
Cu2A O1A 1_555 1_555
Cu2A O5A_2 1_555 1_555
Cu2A_2 O4_2 1_555 1_555
Cu2A_2 O4A_2 1_555 1_555
Cu2_2 O2A 1_555 1_555
Cu2_2 O5_2 1_555 1_555
Cu2A_3 O5A 1_555 1_555
S1B C1B 1_555 1_555

#END
