
#######################################################################
#
#                 Cambridge Crystallographic Data Centre
#                                CCDC 
#
#######################################################################
#
# If this CIF has been generated from an entry in the Cambridge 
# Structural Database, then it will include bibliographic, chemical, 
# crystal, experimental, refinement or atomic coordinate data resulting 
# from the CCDC's data processing and validation procedures.
#
#######################################################################

data_UZUMEI
_symmetry_cell_setting           triclinic
_symmetry_space_group_name_H-M   'P -1'
_symmetry_Int_Tables_number      2
_space_group_name_Hall           '-P 1'
loop_
_symmetry_equiv_pos_site_id
_symmetry_equiv_pos_as_xyz
1 x,y,z
2 -x,-y,-z
_cell_length_a                   5.8563(13)
_cell_length_b                   7.9937(18)
_cell_length_c                   15.6392(34)
_cell_angle_alpha                100.9843(12)
_cell_angle_beta                 93.4023(12)
_cell_angle_gamma                92.1888(13)
_cell_volume                     716.53
loop_
_atom_site_label
_atom_site_type_symbol
_atom_site_fract_x
_atom_site_fract_y
_atom_site_fract_z
Ca1 Ca 0.99319(35) -0.25100(27) 0.00109(14)
C1 C 0.766331 0.083597 0.304777
C2 C 0.801397 0.148112 0.393083
C3 C 0.988138 0.257595 0.424463
C4 C 1.139813 0.302562 0.367536
C5 C 1.104746 0.238048 0.279229
C6 C 0.918006 0.128565 0.247850
B1 B 0.876309 0.051852 0.142847
O1 O 0.761342 -0.127659 0.119126
O2 O 1.082574 0.039396 0.095119
O3 O 0.734059 0.158585 0.092431
H1 H 0.637705 0.008186 0.283163
H2 H 0.696925 0.117139 0.432294
H3 H 1.012291 0.302032 0.485288
H4 H 1.268439 0.377973 0.389150
H5 H 1.209219 0.269021 0.240018
H6 H 0.762105 -0.180554 0.165045
H7 H 1.210135 0.048651 0.131088
H8 H 0.594746 0.188722 0.109348
C7 C 0.441238 -0.552758 -0.252156
C8 C 0.36813 -0.606879 -0.338852
C9 C 0.486837 -0.726923 -0.391612
C10 C 0.678652 -0.792845 -0.357677
C11 C 0.751761 -0.738724 -0.270981
C12 C 0.633054 -0.618680 -0.218220
B2 B 0.719985 -0.554325 -0.115132
O4 O 0.983370 -0.531250 -0.096505
O5 O 0.641072 -0.373505 -0.078051
O6 O 0.649315 -0.671395 -0.060053
H9 H 0.359473 -0.470072 -0.215815
H10 H 0.236008 -0.561472 -0.362227
H11 H 0.436481 -0.764202 -0.451328
H12 H 0.760417 -0.875531 -0.394018
H13 H 0.883882 -0.784130 -0.247606
H14 H 1.056889 -0.530248 -0.145347
H15 H 0.532183 -0.374948 -0.039900
H16 H 0.601822 -0.776199 -0.089356
Ca1A Ca 1.00681(35) 0.25100(27) -0.00109(14)
Ca1A_2 Ca 1.00681(35) -0.74900(27) -0.00109(14)
O2A O 0.917426 -0.039396 -0.095119
O3A O 1.265941 -0.158585 -0.092431
H7A H 0.789865 -0.048651 -0.131088
H8A H 1.405254 -0.188722 -0.109348
O4A O 1.016630 -0.468750 0.096505
O6A O 1.350685 -0.328605 0.060053
H14A H 0.943111 -0.469752 0.145347
H16A H 1.398178 -0.223801 0.089356
loop_
_geom_bond_atom_site_label_1
_geom_bond_atom_site_label_2
_geom_bond_site_symmetry_1
_geom_bond_site_symmetry_2
Ca1 O1 1_555 1_555
C1 C2 1_555 1_555
C2 C3 1_555 1_555
C3 C4 1_555 1_555
C4 C5 1_555 1_555
C5 C6 1_555 1_555
C6 C1 1_555 1_555
B1 C6 1_555 1_555
O1 B1 1_555 1_555
O2 Ca1 1_555 1_555
O3 B1 1_555 1_555
H1 C1 1_555 1_555
H2 C2 1_555 1_555
H3 C3 1_555 1_555
H4 C4 1_555 1_555
H5 C5 1_555 1_555
H6 O1 1_555 1_555
H7 O2 1_555 1_555
H8 O3 1_555 1_555
C7 C8 1_555 1_555
C8 C9 1_555 1_555
C9 C10 1_555 1_555
C10 C11 1_555 1_555
C11 C12 1_555 1_555
C12 C7 1_555 1_555
B2 C12 1_555 1_555
O4 Ca1 1_555 1_555
O5 Ca1 1_555 1_555
O6 B2 1_555 1_555
H9 C7 1_555 1_555
H10 C8 1_555 1_555
H11 C9 1_555 1_555
H12 C10 1_555 1_555
H13 C11 1_555 1_555
H14 O4 1_555 1_555
H15 O5 1_555 1_555
H16 O6 1_555 1_555
Ca1A O2 1_555 1_555
Ca1A_2 O4 1_555 1_555
O2A Ca1 1_555 1_555
O3A Ca1 1_555 1_555
H7A O2A 1_555 1_555
H8A O3A 1_555 1_555
O4A Ca1 1_555 1_555
O6A Ca1 1_555 1_555
H14A O4A 1_555 1_555
H16A O6A 1_555 1_555
B1 O2 1_555 1_555
O3 Ca1A 1_555 1_555
B2 O4 1_555 1_555
B2 O5 1_555 1_555
O6 Ca1A_2 1_555 1_555
Ca1A O2A 1_555 1_555
Ca1A_2 O4A 1_555 1_555

#END
