
#######################################################################
#
#                 Cambridge Crystallographic Data Centre
#                                CCDC 
#
#######################################################################
#
# If this CIF has been generated from an entry in the Cambridge 
# Structural Database, then it will include bibliographic, chemical, 
# crystal, experimental, refinement or atomic coordinate data resulting 
# from the CCDC's data processing and validation procedures.
#
#######################################################################

data_UZUNUZ
_symmetry_cell_setting           monoclinic
_symmetry_space_group_name_H-M   'C 2/c'
_symmetry_Int_Tables_number      15
_space_group_name_Hall           '-C 2yn'
loop_
_symmetry_equiv_pos_site_id
_symmetry_equiv_pos_as_xyz
1 x,y,z
2 -x,y,1/2-z
3 1/2+x,1/2+y,z
4 1/2-x,1/2+y,1/2-z
5 -x,-y,-z
6 x,-y,1/2+z
7 1/2-x,1/2-y,-z
8 1/2+x,1/2-y,1/2+z
_cell_length_a                   15.9360(14)
_cell_length_b                   12.7172(19)
_cell_length_c                   8.2753(13)
_cell_angle_alpha                90
_cell_angle_beta                 91.752(2)
_cell_angle_gamma                90
_cell_volume                     1676.3
loop_
_atom_site_label
_atom_site_type_symbol
_atom_site_fract_x
_atom_site_fract_y
_atom_site_fract_z
Li1 Li -0.0821(9) 0.3593(11) 0.3870(17)
C1 C 0.1737(5) 0.2916(6) 0.4568(10)
C2 C 0.1852(5) 0.1902(6) 0.4339(9)
C3 C 0.2383(5) 0.3583(7) 0.5215(9)
C4 C 0.1193(5) 0.1201(6) 0.3617(9)
Cl1 Cl 0.07903(11) 0.34617(15) 0.3950(2)
Cl2 Cl 0.22193(12) 0.49183(16) 0.5335(3)
O1 O 0.1106(3) 0.1048(5) 0.2296(7)
O2 O 0.0640(3) 0.0746(4) 0.4738(6)
O3 O 0.1025(3) -0.1862(5) 0.4140(7)
H1 H 0.1351 -0.1466 0.4698
Pb1 Pb 0.0000 -0.04567(3) 0.2500
Li1F Li 0.5821(9) 0.1407(11) 0.6130(17)
Li1A Li 0.0821(9) 0.3593(11) 0.1130(17)
Li1D Li 0.0821(9) 0.6407(11) 0.6130(17)
Li1G Li 0.4179(9) 0.1407(11) 0.8870(17)
Li1B Li 0.4179(9) -0.1407(11) 0.3870(17)
C1F C 0.3263(5) 0.2084(6) 0.5432(10)
C2F C 0.3148(5) 0.3098(6) 0.5661(9)
C3F C 0.2617(5) 0.1417(7) 0.4785(9)
C4F C 0.3807(5) 0.3799(6) 0.6383(9)
Cl1F Cl 0.42097(11) 0.15383(15) 0.6050(2)
Cl1A Cl -0.07903(11) 0.34617(15) 0.1050(2)
Cl1G Cl 0.57903(11) 0.15383(15) 0.8950(2)
Cl2F Cl 0.27807(12) 0.00817(16) 0.4665(3)
Cl2D Cl -0.22193(12) 0.50817(16) 0.4665(3)
Cl2B Cl 0.72193(12) -0.00817(16) 0.5335(3)
O1F O 0.3894(3) 0.3952(5) 0.7704(7)
O1A O -0.1106(3) 0.1048(5) 0.2704(7)
O2F O 0.4360(3) 0.4254(4) 0.5262(6)
O2D O -0.0640(3) -0.0746(4) 0.5262(6)
O2A O -0.0640(3) 0.0746(4) 0.0262(6)
O2E O 0.0640(3) -0.0746(4) -0.0262(6)
O3A O -0.1025(3) -0.1862(5) 0.0860(7)
H1A H -0.1351 -0.1466 0.0302
Pb1D Pb 0.0000 0.04567(3) 0.7500
Pb1F Pb 0.5000 0.54567(3) 0.7500
Pb1B Pb 0.5000 0.45433(3) 0.2500
O4 O 0.5000 0.1977(7) 0.2500
H3 H 0.4875 0.1929 0.1504
H3A H 0.5125 0.1929 0.3496
H2? H 0.5171 0.2596 0.2703
loop_
_geom_bond_atom_site_label_1
_geom_bond_atom_site_label_2
_geom_bond_site_symmetry_1
_geom_bond_site_symmetry_2
Li1 Cl1 1_555 1_555
C1 C2 1_555 1_555
C2 C4 1_555 1_555
C3 C1 1_555 1_555
C4 O1 1_555 1_555
Cl1 C1 1_555 1_555
Cl2 C3 1_555 1_555
O1 Pb1 1_555 1_555
O2 C4 1_555 1_555
O3 H1 1_555 1_555
O4 H3 1_555 1_555
Pb1 O2 1_555 1_555
Li1F Cl1F 1_555 1_555
Li1A Cl1 1_555 1_555
Li1D Cl2 1_555 1_555
Li1G Cl1F 1_555 1_555
Li1B Cl2F 1_555 1_555
C1F C2F 1_555 1_555
C2F C3 1_555 1_555
C3F C2 1_555 1_555
C4F C2F 1_555 1_555
Cl1F C1F 1_555 1_555
Cl1A Li1 1_555 1_555
Cl1G Li1F 1_555 1_555
Cl2F C3F 1_555 1_555
Cl2D Li1 1_555 1_555
Cl2B Li1F 1_555 1_555
O1F C4F 1_555 1_555
O1A Pb1 1_555 1_555
O2F C4F 1_555 1_555
O2D Pb1 1_555 1_555
O2A Pb1 1_555 1_555
O2E Pb1 1_555 1_555
O3A Pb1 1_555 1_555
H1A O3A 1_555 1_555
H3A O4 1_555 1_555
Pb1D O2 1_555 1_555
Pb1F O1F 1_555 1_555
Pb1B O2F 1_555 1_555
O3 Pb1 1_555 1_555
Li1A Cl1A 1_555 1_555
Li1G Cl1G 1_555 1_555
C1F C3F 1_555 1_555
O2F Pb1F 1_555 1_555
O2D Pb1D 1_555 1_555

#END
