
#######################################################################
#
#                 Cambridge Crystallographic Data Centre
#                                CCDC 
#
#######################################################################
#
# If this CIF has been generated from an entry in the Cambridge 
# Structural Database, then it will include bibliographic, chemical, 
# crystal, experimental, refinement or atomic coordinate data resulting 
# from the CCDC's data processing and validation procedures.
#
#######################################################################

data_UZUNOT
_symmetry_cell_setting           monoclinic
_symmetry_space_group_name_H-M   'C 2/c'
_symmetry_Int_Tables_number      15
_space_group_name_Hall           '-C 2yn'
loop_
_symmetry_equiv_pos_site_id
_symmetry_equiv_pos_as_xyz
1 x,y,z
2 -x,y,1/2-z
3 1/2+x,1/2+y,z
4 1/2-x,1/2+y,1/2-z
5 -x,-y,-z
6 x,-y,1/2+z
7 1/2-x,1/2-y,-z
8 1/2+x,1/2-y,1/2+z
_cell_length_a                   13.005(2)
_cell_length_b                   16.031(3)
_cell_length_c                   8.1275(14)
_cell_angle_alpha                90
_cell_angle_beta                 98.510(2)
_cell_angle_gamma                90
_cell_volume                     1675.79
loop_
_atom_site_label
_atom_site_type_symbol
_atom_site_fract_x
_atom_site_fract_y
_atom_site_fract_z
Pb1 Pb 0.5000 -0.042182(12) 0.7500
C1 C 0.1996(3) 0.1808(3) 0.5524(5)
C2 C 0.1436(3) 0.2521(3) 0.4987(5)
C3 C 0.3070(3) 0.1783(2) 0.5553(4)
C4 C 0.3687(3) 0.1009(2) 0.6148(4)
C5 C 0.2285(5) -0.1330(6) 0.5982(8)
H1 H 0.2196 -0.1180 0.7095
H2 H 0.2076 -0.1900 0.5775
H3 H 0.1864 -0.0974 0.5206
Cl1 Cl 0.01130(9) 0.25549(8) 0.49827(19)
Cl2 Cl 0.13636(10) 0.09455(9) 0.6143(2)
O1 O 0.4053(3) 0.05782(18) 0.5097(3)
O2 O 0.3801(2) 0.0832(2) 0.7657(3)
O3 O 0.3303(3) -0.1242(3) 0.5795(4)
H4 H 0.3358 -0.1089 0.4850
Pb1D Pb 0.5000 0.042182(12) 0.2500
Pb1F Pb 0.0000 0.542182(12) 0.2500
Pb1B Pb 0.0000 0.457818(12) 0.7500
C1F C 0.3004(3) 0.3192(3) 0.4476(5)
C2F C 0.3564(3) 0.2479(3) 0.5013(5)
C3F C 0.1930(3) 0.3217(2) 0.4447(4)
C4F C 0.1313(3) 0.3991(2) 0.3852(4)
C5A C 0.7715(5) -0.1330(6) 0.9018(8)
H1A H 0.7804 -0.1180 0.7905
H2A H 0.7924 -0.1900 0.9225
H3A H 0.8136 -0.0974 0.9794
Cl1F Cl 0.48870(9) 0.24451(8) 0.50173(19)
Cl2F Cl 0.36364(10) 0.40545(9) 0.3857(2)
O1F O 0.0947(3) 0.44218(18) 0.4903(3)
O1A O 0.5947(3) 0.05782(18) 0.9903(3)
O1D O 0.5947(3) -0.05782(18) 0.4903(3)
O1E O 0.4053(3) -0.05782(18) 1.0097(3)
O2F O 0.1199(2) 0.4168(2) 0.2343(3)
O2A O 0.6199(2) 0.0832(2) 0.7343(3)
O3A O 0.6697(3) -0.1242(3) 0.9205(4)
H4A H 0.6642 -0.1089 1.0150
loop_
_geom_bond_atom_site_label_1
_geom_bond_atom_site_label_2
_geom_bond_site_symmetry_1
_geom_bond_site_symmetry_2
Pb1 O1 1_555 1_555
C1 C2 1_555 1_555
C2 Cl1 1_555 1_555
C3 C1 1_555 1_555
C4 C3 1_555 1_555
C5 H1 1_555 1_555
H2 C5 1_555 1_555
H3 C5 1_555 1_555
Cl2 C1 1_555 1_555
O1 C4 1_555 1_555
O2 Pb1 1_555 1_555
O3 Pb1 1_555 1_555
H4 O3 1_555 1_555
Pb1D O1 1_555 1_555
Pb1F O1F 1_555 1_555
Pb1B O1F 1_555 1_555
C1F C2F 1_555 1_555
C2F C3 1_555 1_555
C3F C2 1_555 1_555
C4F C3F 1_555 1_555
C5A H1A 1_555 1_555
H2A C5A 1_555 1_555
H3A C5A 1_555 1_555
Cl1F C2F 1_555 1_555
Cl2F C1F 1_555 1_555
O1F C4F 1_555 1_555
O1A Pb1 1_555 1_555
O1D Pb1 1_555 1_555
O1E Pb1 1_555 1_555
O2F Pb1F 1_555 1_555
O2A Pb1 1_555 1_555
O3A Pb1 1_555 1_555
H4A O3A 1_555 1_555
C4 O2 1_555 1_555
C5 O3 1_555 1_555
Pb1D O1D 1_555 1_555
C1F C3F 1_555 1_555
C4F O2F 1_555 1_555
C5A O3A 1_555 1_555

#END
