
#######################################################################
#
#                 Cambridge Crystallographic Data Centre
#                                CCDC 
#
#######################################################################
#
# If this CIF has been generated from an entry in the Cambridge 
# Structural Database, then it will include bibliographic, chemical, 
# crystal, experimental, refinement or atomic coordinate data resulting 
# from the CCDC's data processing and validation procedures.
#
#######################################################################

data_UZUPAH
_symmetry_cell_setting           monoclinic
_symmetry_space_group_name_H-M   'C 2/c'
_symmetry_Int_Tables_number      15
_space_group_name_Hall           '-C 2yn'
loop_
_symmetry_equiv_pos_site_id
_symmetry_equiv_pos_as_xyz
1 x,y,z
2 -x,y,1/2-z
3 1/2+x,1/2+y,z
4 1/2-x,1/2+y,1/2-z
5 -x,-y,-z
6 x,-y,1/2+z
7 1/2-x,1/2-y,-z
8 1/2+x,1/2-y,1/2+z
_cell_length_a                   15.898(2)
_cell_length_b                   12.678(3)
_cell_length_c                   8.264(3)
_cell_angle_alpha                90
_cell_angle_beta                 90.136(3)
_cell_angle_gamma                90
_cell_volume                     1665.64
loop_
_atom_site_label
_atom_site_type_symbol
_atom_site_fract_x
_atom_site_fract_y
_atom_site_fract_z
C1 C 0.8264(3) 0.2029(4) 0.9675(6)
C2 C 0.8133(4) 0.3068(4) 0.9354(7)
C3 C 0.7636(3) 0.1463(4) 1.0236(7)
C4 C 0.8757(4) 0.3799(4) 0.8608(7)
Cl1 Cl 0.91847(8) 0.15542(10) 0.89437(16)
Cl2 Cl 0.77899(8) 0.00190(9) 1.01309(16)
Na1 Na 0.92202(13) 0.15447(14) 0.6038(2)
O1 O 0.8848(2) 0.3996(3) 0.7212(4)
O2 O 0.9316(2) 0.4216(3) 0.9645(4)
O3 O 1.1252(2) 0.6606(3) 0.6088(4)
H1 H 1.1546 0.6185 0.5521
Pb1 Pb 1.0000 0.54566(2) 0.7500
C1F C 0.6736(3) 0.2971(4) 1.0325(6)
C2F C 0.6867(4) 0.1932(4) 1.0646(7)
C3F C 0.7364(3) 0.3537(4) 0.9764(7)
C4F C 0.6243(4) 0.1201(4) 1.1392(7)
Cl1F Cl 0.58153(8) 0.34458(10) 1.10563(16)
Cl1A Cl 1.08153(8) 0.15542(10) 0.60563(16)
Cl1G Cl 0.41847(8) 0.34458(10) 1.39437(16)
Cl2F Cl 0.72101(8) 0.49810(9) 0.98691(16)
Cl2E Cl 0.77899(8) -0.00190(9) 0.51309(16)
Cl2C Cl 0.72101(8) 0.50190(9) 1.48691(16)
Na1F Na 0.57798(13) 0.34553(14) 1.3962(2)
Na1A Na 1.07798(13) 0.15447(14) 0.8962(2)
Na1E Na 0.92202(13) -0.15447(14) 1.1038(2)
Na1G Na 0.42202(13) 0.34553(14) 1.1038(2)
Na1C Na 0.57798(13) 0.65447(14) 0.8962(2)
O1F O 0.6152(2) 0.1004(3) 1.2788(4)
O1A O 1.1152(2) 0.3996(3) 0.7788(4)
O2F O 0.5684(2) 0.0784(3) 1.0355(4)
O2D O 1.0684(2) 0.5784(3) 1.0355(4)
O2A O 1.0684(2) 0.4216(3) 0.5355(4)
O2E O 0.9316(2) 0.5784(3) 0.4645(4)
O3A O 0.8748(2) 0.6606(3) 0.8912(4)
H1A H 0.8454 0.6185 0.9479
Pb1D Pb 1.0000 0.45434(2) 1.2500
Pb1F Pb 0.5000 -0.04566(2) 1.2500
Pb1B Pb 0.5000 0.04566(2) 0.7500
loop_
_geom_bond_atom_site_label_1
_geom_bond_atom_site_label_2
_geom_bond_site_symmetry_1
_geom_bond_site_symmetry_2
C1 C2 1_555 1_555
C2 C4 1_555 1_555
C3 C1 1_555 1_555
C4 O1 1_555 1_555
Cl1 C1 1_555 1_555
Cl2 C3 1_555 1_555
Na1 Cl1 1_555 1_555
O1 Pb1 1_555 1_555
O2 C4 1_555 1_555
O3 H1 1_555 1_555
Pb1 O2 1_555 1_555
C1F C2F 1_555 1_555
C2F C3 1_555 1_555
C3F C2 1_555 1_555
C4F C2F 1_555 1_555
Cl1F C1F 1_555 1_555
Cl1A Na1 1_555 1_555
Cl1G Na1F 1_555 1_555
Cl2F C3F 1_555 1_555
Cl2E Na1 1_555 1_555
Cl2C Na1F 1_555 1_555
Na1F Cl1F 1_555 1_555
Na1A Cl1 1_555 1_555
Na1E Cl2 1_555 1_555
Na1G Cl1F 1_555 1_555
Na1C Cl2F 1_555 1_555
O1F C4F 1_555 1_555
O1A Pb1 1_555 1_555
O2F C4F 1_555 1_555
O2D Pb1 1_555 1_555
O2A Pb1 1_555 1_555
O2E Pb1 1_555 1_555
O3A Pb1 1_555 1_555
H1A O3A 1_555 1_555
Pb1D O2 1_555 1_555
Pb1F O1F 1_555 1_555
Pb1B O2F 1_555 1_555
O3 Pb1 1_555 1_555
C1F C3F 1_555 1_555
Cl1A Na1A 1_555 1_555
Cl1G Na1G 1_555 1_555
O2F Pb1F 1_555 1_555
O2D Pb1D 1_555 1_555

#END
