
#######################################################################
#
#                 Cambridge Crystallographic Data Centre
#                                CCDC 
#
#######################################################################
#
# If this CIF has been generated from an entry in the Cambridge 
# Structural Database, then it will include bibliographic, chemical, 
# crystal, experimental, refinement or atomic coordinate data resulting 
# from the CCDC's data processing and validation procedures.
#
#######################################################################

data_UZUPOV
_symmetry_cell_setting           monoclinic
_symmetry_space_group_name_H-M   'C 2/c'
_symmetry_Int_Tables_number      15
_space_group_name_Hall           '-C 2yn'
loop_
_symmetry_equiv_pos_site_id
_symmetry_equiv_pos_as_xyz
1 x,y,z
2 -x,y,1/2-z
3 1/2+x,1/2+y,z
4 1/2-x,1/2+y,1/2-z
5 -x,-y,-z
6 x,-y,1/2+z
7 1/2-x,1/2-y,-z
8 1/2+x,1/2-y,1/2+z
_cell_length_a                   36.64(2)
_cell_length_b                   19.010(12)
_cell_length_c                   22.836(14)
_cell_angle_alpha                90
_cell_angle_beta                 95.386(12)
_cell_angle_gamma                90
_cell_volume                     15835.7
loop_
_atom_site_label
_atom_site_type_symbol
_atom_site_fract_x
_atom_site_fract_y
_atom_site_fract_z
C1 C 0.6475(3) 1.3378(6) 0.3326(5)
C2 C 0.6544(2) 1.3711(5) 0.2806(7)
H1 H 0.6679 1.4127 0.2818
C3 C 0.6413(3) 1.3423(7) 0.2268(5)
H2 H 0.6459 1.3646 0.1920
C4 C 0.6212(3) 1.2802(7) 0.2250(5)
H3 H 0.6124 1.2610 0.1889
C5 C 0.6142(3) 1.2469(5) 0.2770(7)
H4 H 0.6008 1.2054 0.2757
C6 C 0.6274(3) 1.2757(6) 0.3308(5)
H5 H 0.6227 1.2534 0.3656
Pr1 Pr 0.825270(16) 1.01198(3) -0.03118(2)
N1 N 0.7301(3) 1.1129(5) 0.0398(4)
H6 H 0.7168 1.1415 0.0577
N2 N 0.6971(3) 1.3482(5) 0.4061(4)
H7 H 0.7043 1.3105 0.3901
N3 N 0.9153(3) 1.0241(6) 0.1060(4)
H8 H 0.9276 1.0239 0.1400
N4 N 0.8609(4) 0.8780(6) -0.0633(6)
N5 N 0.7724(3) 1.0319(5) -0.1366(4)
N6 N 0.8827(4) 1.1019(9) -0.0804(6)
O1 O 0.7217(3) 1.2297(4) 0.0985(3)
O2 O 0.7851(2) 1.0940(4) 0.0053(3)
O3 O 0.7563(2) 1.2785(3) 0.3814(3)
O4 O 0.70596(17) 1.4269(4) 0.4782(3)
O5 O 0.9158(2) 1.0115(5) 0.2212(3)
O6 O 0.86096(19) 1.0383(3) 0.0584(3)
O7 O 0.8335(3) 0.9044(4) -0.0924(3)
O8 O 0.8710(2) 0.9102(5) -0.0157(4)
O9 O 0.8755(3) 0.8264(5) -0.0799(5)
O10 O 0.8037(2) 1.0616(3) -0.1309(3)
O11 O 0.7647(2) 0.9898(4) -0.0980(3)
O12 O 0.7505(3) 1.0432(4) -0.1799(4)
O13 O 0.8812(2) 1.0339(6) -0.0890(3)
O14 O 0.8590(3) 1.1296(5) -0.0522(4)
O15 O 0.9077(3) 1.1385(6) -0.0967(5)
C7 C 0.7394(3) 1.2459(5) 0.2462(4)
H9 H 0.7483 1.2914 0.2430
C8 C 0.7164(4) 1.2201(5) 0.2021(5)
C9 C 0.7025(3) 1.1508(6) 0.2082(6)
H10 H 0.6867 1.1315 0.1782
C10 C 0.7121(5) 1.1133(7) 0.2567(7)
H11 H 0.7022 1.0686 0.2605
C11 C 0.7363(4) 1.1394(7) 0.3015(6)
H12 H 0.7432 1.1119 0.3344
C12 C 0.7504(3) 1.2069(6) 0.2973(4)
C13 C 0.7055(3) 1.2594(5) 0.1465(4)
H13 H 0.6791 1.2584 0.1385
H14 H 0.7131 1.3082 0.1512
C14 C 0.7760(3) 1.2330(6) 0.3464(5)
H15 H 0.7860 1.1939 0.3699
H16 H 0.7961 1.2583 0.3312
C15 C 0.7633(4) 1.1331(6) 0.0306(4)
C16 C 0.7774(4) 1.2021(5) 0.0555(4)
C17 C 0.7568(5) 1.2454(5) 0.0902(4)
C18 C 0.7750(5) 1.3056(6) 0.1140(6)
H17 H 0.7622 1.3356 0.1370
C19 C 0.8108(5) 1.3228(7) 0.1055(6)
H18 H 0.8219 1.3616 0.1244
C20 C 0.8308(5) 1.2799(7) 0.0670(7)
H19 H 0.8544 1.2913 0.0585
C21 C 0.8131(4) 1.2220(6) 0.0441(5)
H20 H 0.8253 1.1936 0.0191
C22 C 0.7147(3) 1.0470(6) 0.0222(5)
H21 H 0.7314 1.0220 -0.0011
H22 H 0.6918 1.0542 -0.0019
C23 C 0.7079(3) 1.0033(4) 0.0764(4)
C24 C 0.6734(2) 0.9743(5) 0.0801(5)
H23 H 0.6551 0.9802 0.0493
C25 C 0.6661(3) 0.9365(6) 0.1298(6)
H24 H 0.6430 0.9171 0.1322
C26 C 0.6934(4) 0.9277(5) 0.1758(5)
H25 H 0.6885 0.9023 0.2090
C27 C 0.7279(4) 0.9567(5) 0.1721(4)
H26 H 0.7461 0.9508 0.2028
C28 C 0.7352(2) 0.9945(5) 0.1224(5)
H27 H 0.7583 1.0139 0.1199
C29 C 0.7180(3) 1.3757(5) 0.4499(5)
C30 C 0.7552(3) 1.3448(5) 0.4695(4)
C31 C 0.7733(3) 1.3001(5) 0.4348(4)
C32 C 0.8092(3) 1.2790(6) 0.4546(5)
H28 H 0.8227 1.2509 0.4312
C33 C 0.8235(4) 1.3005(6) 0.5086(6)
H29 H 0.8476 1.2880 0.5205
C34 C 0.8057(3) 1.3379(6) 0.5452(6)
H30 H 0.8156 1.3466 0.5835
C35 C 0.7716(3) 1.3640(4) 0.5241(4)
H31 H 0.7595 1.3949 0.5472
C36 C 0.6622(3) 1.3786(7) 0.3834(6)
H32 H 0.6656 1.4271 0.3720
H33 H 0.6452 1.3777 0.4135
C37 C 1.0000 0.9880(12) 0.2500
H34 H 1.0000 1.0369 0.2500
C38 C 0.9670(4) 0.9603(8) 0.2630(7)
C39 C 0.9673(4) 0.8878(9) 0.2661(8)
H35 H 0.9475 0.8626 0.2780
C40 C 1.0000 0.8533(13) 0.2500
H36 H 1.0000 0.8043 0.2500
C41 C 0.9356(4) 0.9942(8) 0.2764(7)
H37 H 0.9417 1.0365 0.2990
H38 H 0.9210 0.9638 0.2992
C42 C 0.8809(3) 1.0390(6) 0.1044(5)
C43 C 0.8643(3) 1.0525(5) 0.1607(4)
C44 C 0.8816(3) 1.0405(6) 0.2192(5)
C45 C 0.8635(3) 1.0550(7) 0.2666(5)
H39 H 0.8752 1.0465 0.3039
C46 C 0.8292(4) 1.0811(7) 0.2618(5)
H40 H 0.8170 1.0876 0.2953
C47 C 0.8120(3) 1.0983(7) 0.2065(6)
H41 H 0.7892 1.1203 0.2027
C48 C 0.8294(4) 1.0822(6) 0.1590(5)
H42 H 0.8173 1.0915 0.1222
C49 C 0.9350(4) 1.0075(9) 0.0555(6)
H43 H 0.9198 1.0182 0.0196
H44 H 0.9408 0.9577 0.0555
C50 C 0.9696(4) 1.0492(10) 0.0574(8)
C51 C 1.0032(5) 1.0177(8) 0.0748(8)
H45 H 1.0038 0.9702 0.0848
C52 C 1.0362(4) 1.0558(11) 0.0776(8)
H46 H 1.0585 1.0333 0.0872
C53 C 1.0351(4) 1.1268(10) 0.0659(9)
H47 H 1.0551 1.1551 0.0780
C54 C 1.0031(6) 1.1569(8) 0.0350(9)
H48 H 1.0042 1.1975 0.0126
C55 C 0.9694(4) 1.1213(10) 0.0404(8)
H49 H 0.9472 1.1451 0.0328
C1C C 0.8525(3) 0.8378(6) 0.1674(5)
C2C C 0.8456(2) 0.8711(5) 0.2194(7)
H1C H 0.8321 0.9127 0.2182
C3C C 0.8587(3) 0.8423(7) 0.2732(5)
H2C H 0.8541 0.8646 0.3080
C4C C 0.8788(3) 0.7802(7) 0.2750(5)
H3C H 0.8876 0.7610 0.3111
C5C C 0.8858(3) 0.7469(5) 0.2230(7)
H4C H 0.8992 0.7054 0.2243
C6C C 0.8726(3) 0.7757(6) 0.1692(5)
H5C H 0.8773 0.7534 0.1344
Pr1C Pr 0.674730(16) 0.51198(3) 0.53118(2)
Pr1C_2 Pr 0.674730(16) 1.51198(3) 0.53118(2)
Pr1A Pr 1.174730(16) 1.01198(3) 0.53118(2)
N1C N 0.7699(3) 0.6129(5) 0.4602(4)
H6C H 0.7832 0.6415 0.4423
N2C N 0.8029(3) 0.8482(5) 0.0939(4)
H7C H 0.7957 0.8105 0.1099
N3A N 1.0847(3) 1.0241(6) 0.3940(4)
H8A H 1.0724 1.0239 0.3600
N4C N 0.6391(4) 0.3780(6) 0.5633(6)
N5C N 0.7276(3) 0.5319(5) 0.6366(4)
N6C N 0.6173(4) 0.6019(9) 0.5804(6)
O1C O 0.7783(3) 0.7297(4) 0.4015(3)
O2C O 0.7149(2) 0.5940(4) 0.4947(3)
O3C O 0.7437(2) 0.7785(3) 0.1186(3)
O4C O 0.79404(17) 0.9269(4) 0.0218(3)
O4_2 O 0.70596(17) 0.4269(4) 0.4782(3)
O5A O 1.0842(2) 1.0115(5) 0.2788(3)
O6A O 1.13904(19) 1.0383(3) 0.4416(3)
O6C O 0.63904(19) 0.5383(3) 0.4416(3)
O7C O 0.6665(3) 0.4044(4) 0.5924(3)
O8C O 0.6290(2) 0.4102(5) 0.5157(4)
O9C O 0.6245(3) 0.3264(5) 0.5799(5)
O10C O 0.6963(2) 0.5616(3) 0.6309(3)
O11C O 0.7353(2) 0.4898(4) 0.5980(3)
O12C O 0.7495(3) 0.5432(4) 0.6799(4)
O13C O 0.6188(2) 0.5339(6) 0.5890(3)
O14C O 0.6410(3) 0.6296(5) 0.5522(4)
O15C O 0.5923(3) 0.6385(6) 0.5967(5)
C7C C 0.7606(3) 0.7459(5) 0.2538(4)
H9C H 0.7517 0.7914 0.2570
C8C C 0.7836(4) 0.7201(5) 0.2979(5)
C9C C 0.7975(3) 0.6508(6) 0.2918(6)
H10C H 0.8133 0.6315 0.3218
C10C C 0.7879(5) 0.6133(7) 0.2433(7)
H11C H 0.7978 0.5686 0.2395
C11C C 0.7637(4) 0.6394(7) 0.1985(6)
H12C H 0.7568 0.6119 0.1656
C12C C 0.7496(3) 0.7069(6) 0.2027(4)
C13C C 0.7945(3) 0.7594(5) 0.3535(4)
H13C H 0.8209 0.7584 0.3615
H14C H 0.7869 0.8082 0.3488
C14C C 0.7240(3) 0.7330(6) 0.1536(5)
H15C H 0.7140 0.6939 0.1301
H16C H 0.7039 0.7583 0.1688
C15C C 0.7367(4) 0.6331(6) 0.4694(4)
C16C C 0.7226(4) 0.7021(5) 0.4445(4)
C17C C 0.7432(5) 0.7454(5) 0.4098(4)
C18C C 0.7250(5) 0.8056(6) 0.3860(6)
H17C H 0.7378 0.8356 0.3630
C19C C 0.6892(5) 0.8228(7) 0.3945(6)
H18C H 0.6781 0.8616 0.3756
C20C C 0.6692(5) 0.7799(7) 0.4330(7)
H19C H 0.6456 0.7913 0.4415
C21C C 0.6869(4) 0.7220(6) 0.4559(5)
H20C H 0.6747 0.6936 0.4809
C22C C 0.7853(3) 0.5470(6) 0.4778(5)
H21C H 0.7686 0.5220 0.5011
H22C H 0.8082 0.5542 0.5019
C23C C 0.7921(3) 0.5033(4) 0.4236(4)
C24C C 0.8266(2) 0.4743(5) 0.4199(5)
H23C H 0.8449 0.4802 0.4507
C25C C 0.8339(3) 0.4365(6) 0.3702(6)
H24C H 0.8570 0.4171 0.3678
C26C C 0.8066(4) 0.4277(5) 0.3242(5)
H25C H 0.8115 0.4023 0.2910
C27C C 0.7721(4) 0.4567(5) 0.3279(4)
H26C H 0.7539 0.4508 0.2972
C28C C 0.7648(2) 0.4945(5) 0.3776(5)
H27C H 0.7417 0.5139 0.3801
C29C C 0.7820(3) 0.8757(5) 0.0501(5)
C30C C 0.7448(3) 0.8448(5) 0.0305(4)
C31C C 0.7267(3) 0.8001(5) 0.0652(4)
C32C C 0.6908(3) 0.7790(6) 0.0454(5)
H28C H 0.6773 0.7509 0.0688
C33C C 0.6765(4) 0.8005(6) -0.0086(6)
H29C H 0.6524 0.7880 -0.0205
C34C C 0.6943(3) 0.8379(6) -0.0452(6)
H30C H 0.6844 0.8466 -0.0835
C35C C 0.7284(3) 0.8640(4) -0.0241(4)
H31C H 0.7405 0.8949 -0.0472
C36C C 0.8378(3) 0.8786(7) 0.1166(6)
H32C H 0.8344 0.9271 0.1280
H33C H 0.8548 0.8777 0.0865
C38A C 1.0330(4) 0.9603(8) 0.2370(7)
C39A C 1.0327(4) 0.8878(9) 0.2339(8)
H35A H 1.0525 0.8626 0.2220
C41A C 1.0644(4) 0.9942(8) 0.2236(7)
H37A H 1.0583 1.0365 0.2010
H38A H 1.0790 0.9638 0.2008
C42A C 1.1191(3) 1.0390(6) 0.3956(5)
C43A C 1.1357(3) 1.0525(5) 0.3393(4)
C44A C 1.1184(3) 1.0405(6) 0.2808(5)
C45A C 1.1365(3) 1.0550(7) 0.2334(5)
H39A H 1.1248 1.0465 0.1961
C46A C 1.1708(4) 1.0811(7) 0.2382(5)
H40A H 1.1830 1.0876 0.2047
C47A C 1.1880(3) 1.0983(7) 0.2935(6)
H41A H 1.2108 1.1203 0.2973
C48A C 1.1706(4) 1.0822(6) 0.3410(5)
H42A H 1.1827 1.0915 0.3778
C49A C 1.0650(4) 1.0075(9) 0.4445(6)
H43A H 1.0802 1.0182 0.4804
H44A H 1.0592 0.9577 0.4445
C50A C 1.0304(4) 1.0492(10) 0.4426(8)
C51A C 0.9968(5) 1.0177(8) 0.4252(8)
H45A H 0.9962 0.9702 0.4152
C52A C 0.9638(4) 1.0558(11) 0.4224(8)
H46A H 0.9415 1.0333 0.4128
C53A C 0.9649(4) 1.1268(10) 0.4341(9)
H47A H 0.9449 1.1551 0.4220
C54A C 0.9969(6) 1.1569(8) 0.4650(9)
H48A H 0.9958 1.1975 0.4874
C55A C 1.0306(4) 1.1213(10) 0.4596(8)
H49A H 1.0528 1.1451 0.4672
O16 O 0.9178(9) 0.7141(12) 0.477(2)
H50 H 0.9248 0.6906 0.4706
H51 H 0.9248 0.7132 0.5292
O17 O 0.8793(8) 0.6328(13) 0.4149(15)
H52 H 0.8683 0.6283 0.4458
H53 H 0.9006 0.6169 0.4328
O18 O 0.6578(8) 0.9948(11) 0.8578(19)
H54 H 0.6803 0.9887 0.8519
H55 H 0.6375 1.0155 0.8724
loop_
_geom_bond_atom_site_label_1
_geom_bond_atom_site_label_2
_geom_bond_site_symmetry_1
_geom_bond_site_symmetry_2
C1 C2 1_555 1_555
C2 H1 1_555 1_555
C3 C2 1_555 1_555
H2 C3 1_555 1_555
C4 C3 1_555 1_555
H3 C4 1_555 1_555
C5 C4 1_555 1_555
H4 C5 1_555 1_555
C6 C1 1_555 1_555
H5 C6 1_555 1_555
Pr1 O2 1_555 1_555
N1 H6 1_555 1_555
N2 H7 1_555 1_555
N3 H8 1_555 1_555
N4 O7 1_555 1_555
N5 O10 1_555 1_555
N6 O13 1_555 1_555
O1 C13 1_555 1_555
O2 C15 1_555 1_555
O3 C14 1_555 1_555
O4 C29 1_555 1_555
O5 C41 1_555 1_555
O6 Pr1 1_555 1_555
O7 Pr1 1_555 1_555
O8 Pr1 1_555 1_555
O9 N4 1_555 1_555
O10 Pr1 1_555 1_555
O11 Pr1 1_555 1_555
O12 N5 1_555 1_555
O13 Pr1 1_555 1_555
O14 Pr1 1_555 1_555
O15 N6 1_555 1_555
C7 H9 1_555 1_555
C8 C7 1_555 1_555
C9 C8 1_555 1_555
H10 C9 1_555 1_555
C10 C9 1_555 1_555
H11 C10 1_555 1_555
C11 C10 1_555 1_555
H12 C11 1_555 1_555
C12 C7 1_555 1_555
C13 C8 1_555 1_555
H13 C13 1_555 1_555
H14 C13 1_555 1_555
C14 C12 1_555 1_555
H15 C14 1_555 1_555
H16 C14 1_555 1_555
C15 N1 1_555 1_555
C16 C15 1_555 1_555
C17 O1 1_555 1_555
C18 C17 1_555 1_555
H17 C18 1_555 1_555
C19 C18 1_555 1_555
H18 C19 1_555 1_555
C20 C19 1_555 1_555
H19 C20 1_555 1_555
C21 C16 1_555 1_555
H20 C21 1_555 1_555
C22 N1 1_555 1_555
H21 C22 1_555 1_555
H22 C22 1_555 1_555
C23 C22 1_555 1_555
C24 C23 1_555 1_555
H23 C24 1_555 1_555
C25 C24 1_555 1_555
H24 C25 1_555 1_555
C26 C25 1_555 1_555
H25 C26 1_555 1_555
C27 C26 1_555 1_555
H26 C27 1_555 1_555
C28 C23 1_555 1_555
H27 C28 1_555 1_555
C29 N2 1_555 1_555
C30 C29 1_555 1_555
C31 O3 1_555 1_555
C32 C31 1_555 1_555
H28 C32 1_555 1_555
C33 C32 1_555 1_555
H29 C33 1_555 1_555
C34 C33 1_555 1_555
H30 C34 1_555 1_555
C35 C30 1_555 1_555
H31 C35 1_555 1_555
C36 C1 1_555 1_555
H32 C36 1_555 1_555
H33 C36 1_555 1_555
C37 H34 1_555 1_555
C38 C37 1_555 1_555
C39 C38 1_555 1_555
H35 C39 1_555 1_555
C40 C39 1_555 1_555
H36 C40 1_555 1_555
C41 C38 1_555 1_555
H37 C41 1_555 1_555
H38 C41 1_555 1_555
C42 N3 1_555 1_555
C43 C42 1_555 1_555
C44 O5 1_555 1_555
C45 C44 1_555 1_555
H39 C45 1_555 1_555
C46 C45 1_555 1_555
H40 C46 1_555 1_555
C47 C46 1_555 1_555
H41 C47 1_555 1_555
C48 C43 1_555 1_555
H42 C48 1_555 1_555
C49 N3 1_555 1_555
H43 C49 1_555 1_555
H44 C49 1_555 1_555
C50 C49 1_555 1_555
C51 C50 1_555 1_555
H45 C51 1_555 1_555
C52 C51 1_555 1_555
H46 C52 1_555 1_555
C53 C52 1_555 1_555
H47 C53 1_555 1_555
C54 C53 1_555 1_555
H48 C54 1_555 1_555
C55 C50 1_555 1_555
H49 C55 1_555 1_555
O16 H50 1_555 1_555
H51 O16 1_555 1_555
O17 H52 1_555 1_555
H53 O17 1_555 1_555
O18 H54 1_555 1_555
H55 O18 1_555 1_555
C1C C2C 1_555 1_555
C2C H1C 1_555 1_555
C3C C2C 1_555 1_555
H2C C3C 1_555 1_555
C4C C3C 1_555 1_555
H3C C4C 1_555 1_555
C5C C4C 1_555 1_555
H4C C5C 1_555 1_555
C6C C1C 1_555 1_555
H5C C6C 1_555 1_555
Pr1C O2C 1_555 1_555
Pr1C_2 O4 1_555 1_555
Pr1A O6A 1_555 1_555
N1C H6C 1_555 1_555
N2C H7C 1_555 1_555
N3A H8A 1_555 1_555
N4C O7C 1_555 1_555
N5C O10C 1_555 1_555
N6C O13C 1_555 1_555
O1C C13C 1_555 1_555
O2C C15C 1_555 1_555
O3C C14C 1_555 1_555
O4C Pr1 1_555 1_555
O4_2 Pr1C 1_555 1_555
O5A C41A 1_555 1_555
O6A C42A 1_555 1_555
O6C Pr1C 1_555 1_555
O7C Pr1C 1_555 1_555
O8C Pr1C 1_555 1_555
O9C N4C 1_555 1_555
O10C Pr1C 1_555 1_555
O11C Pr1C 1_555 1_555
O12C N5C 1_555 1_555
O13C Pr1C 1_555 1_555
O14C Pr1C 1_555 1_555
O15C N6C 1_555 1_555
C7C H9C 1_555 1_555
C8C C7C 1_555 1_555
C9C C8C 1_555 1_555
H10C C9C 1_555 1_555
C10C C9C 1_555 1_555
H11C C10C 1_555 1_555
C11C C10C 1_555 1_555
H12C C11C 1_555 1_555
C12C C7C 1_555 1_555
C13C C8C 1_555 1_555
H13C C13C 1_555 1_555
H14C C13C 1_555 1_555
C14C C12C 1_555 1_555
H15C C14C 1_555 1_555
H16C C14C 1_555 1_555
C15C N1C 1_555 1_555
C16C C15C 1_555 1_555
C17C O1C 1_555 1_555
C18C C17C 1_555 1_555
H17C C18C 1_555 1_555
C19C C18C 1_555 1_555
H18C C19C 1_555 1_555
C20C C19C 1_555 1_555
H19C C20C 1_555 1_555
C21C C16C 1_555 1_555
H20C C21C 1_555 1_555
C22C N1C 1_555 1_555
H21C C22C 1_555 1_555
H22C C22C 1_555 1_555
C23C C22C 1_555 1_555
C24C C23C 1_555 1_555
H23C C24C 1_555 1_555
C25C C24C 1_555 1_555
H24C C25C 1_555 1_555
C26C C25C 1_555 1_555
H25C C26C 1_555 1_555
C27C C26C 1_555 1_555
H26C C27C 1_555 1_555
C28C C23C 1_555 1_555
H27C C28C 1_555 1_555
C29C N2C 1_555 1_555
C30C C29C 1_555 1_555
C31C O3C 1_555 1_555
C32C C31C 1_555 1_555
H28C C32C 1_555 1_555
C33C C32C 1_555 1_555
H29C C33C 1_555 1_555
C34C C33C 1_555 1_555
H30C C34C 1_555 1_555
C35C C30C 1_555 1_555
H31C C35C 1_555 1_555
C36C C1C 1_555 1_555
H32C C36C 1_555 1_555
H33C C36C 1_555 1_555
C38A C37 1_555 1_555
C39A C40 1_555 1_555
H35A C39A 1_555 1_555
C41A C38A 1_555 1_555
H37A C41A 1_555 1_555
H38A C41A 1_555 1_555
C42A N3A 1_555 1_555
C43A C42A 1_555 1_555
C44A O5A 1_555 1_555
C45A C44A 1_555 1_555
H39A C45A 1_555 1_555
C46A C45A 1_555 1_555
H40A C46A 1_555 1_555
C47A C46A 1_555 1_555
H41A C47A 1_555 1_555
C48A C43A 1_555 1_555
H42A C48A 1_555 1_555
C49A N3A 1_555 1_555
H43A C49A 1_555 1_555
H44A C49A 1_555 1_555
C50A C49A 1_555 1_555
C51A C50A 1_555 1_555
H45A C51A 1_555 1_555
C52A C51A 1_555 1_555
H46A C52A 1_555 1_555
C53A C52A 1_555 1_555
H47A C53A 1_555 1_555
C54A C53A 1_555 1_555
H48A C54A 1_555 1_555
C55A C50A 1_555 1_555
H49A C55A 1_555 1_555
C5 C6 1_555 1_555
N2 C36 1_555 1_555
N4 O8 1_555 1_555
N5 O11 1_555 1_555
N6 O14 1_555 1_555
O6 C42 1_555 1_555
C11 C12 1_555 1_555
C16 C17 1_555 1_555
C20 C21 1_555 1_555
C27 C28 1_555 1_555
C30 C31 1_555 1_555
C34 C35 1_555 1_555
C43 C44 1_555 1_555
C47 C48 1_555 1_555
C54 C55 1_555 1_555
C5C C6C 1_555 1_555
N2C C36C 1_555 1_555
N4C O8C 1_555 1_555
N5C O11C 1_555 1_555
N6C O14C 1_555 1_555
O4C C29C 1_555 1_555
C11C C12C 1_555 1_555
C16C C17C 1_555 1_555
C20C C21C 1_555 1_555
C27C C28C 1_555 1_555
C30C C31C 1_555 1_555
C34C C35C 1_555 1_555
C38A C39A 1_555 1_555
C43A C44A 1_555 1_555
C47A C48A 1_555 1_555
C54A C55A 1_555 1_555

#END
