
#######################################################################
#
#                 Cambridge Crystallographic Data Centre
#                                CCDC 
#
#######################################################################
#
# If this CIF has been generated from an entry in the Cambridge 
# Structural Database, then it will include bibliographic, chemical, 
# crystal, experimental, refinement or atomic coordinate data resulting 
# from the CCDC's data processing and validation procedures.
#
#######################################################################

data_UZUQEM
_symmetry_cell_setting           monoclinic
_symmetry_space_group_name_H-M   'P 21/n'
_symmetry_Int_Tables_number      14
_space_group_name_Hall           '-P 2yn'
loop_
_symmetry_equiv_pos_site_id
_symmetry_equiv_pos_as_xyz
1 x,y,z
2 1/2-x,1/2+y,1/2-z
3 -x,-y,-z
4 1/2+x,1/2-y,1/2+z
_cell_length_a                   12.3915(9)
_cell_length_b                   20.3621(15)
_cell_length_c                   20.8378(15)
_cell_angle_alpha                90
_cell_angle_beta                 99.494(4)
_cell_angle_gamma                90
_cell_volume                     5185.71
loop_
_atom_site_label
_atom_site_type_symbol
_atom_site_fract_x
_atom_site_fract_y
_atom_site_fract_z
C1 C 0.6665(16) 0.9470(11) 0.4827(6)
H1 H 0.7128 0.9124 0.4767
C2 C 0.3213(6) 0.9004(4) -0.1538(4)
H2 H 0.2581 0.9221 -0.1731
C3 C 0.3868(7) 0.8719(4) -0.1922(4)
H3 H 0.3686 0.8742 -0.2372
C4 C 0.4772(8) 0.8408(4) -0.1646(4)
H4 H 0.5221 0.8210 -0.1906
C5 C 0.5043(9) 0.8376(6) -0.0985(5)
H5 H 0.5682 0.8164 -0.0796
C6 C 0.4380(8) 0.8653(5) -0.0604(4)
H6 H 0.4560 0.8616 -0.0155
C7 C 0.3467(5) 0.8979(4) -0.0862(3)
C8 C 0.2750(5) 0.9309(4) -0.0431(3)
H7 H 0.3017 0.9201 0.0021
H8 H 0.2787 0.9782 -0.0479
C9 C 0.1138(5) 0.8596(3) -0.0355(3)
C10 C 0.0008(5) 0.8401(3) -0.0662(3)
C11 C -0.0591(6) 0.8048(4) -0.0281(4)
H9 H -0.0298 0.7964 0.0151
C12 C -0.1624(6) 0.7818(4) -0.0532(4)
H10 H -0.2033 0.7596 -0.0265
C13 C -0.2053(6) 0.7920(4) -0.1185(4)
H11 H -0.2735 0.7751 -0.1363
C14 C -0.1454(5) 0.8274(3) -0.1563(3)
H12 H -0.1738 0.8345 -0.1999
C15 C -0.0446(5) 0.8524(3) -0.1313(3)
C16 C -0.0263(5) 0.9051(3) -0.2334(3)
H13 H -0.0944 0.9290 -0.2348
H14 H -0.0407 0.8660 -0.2599
C17 C 0.0566(6) 0.9473(3) -0.2583(3)
C18 C 0.1108(6) 0.9281(4) -0.3058(3)
H15 H 0.0993 0.8859 -0.3225
C19 C 0.1823(7) 0.9683(4) -0.3306(4)
H16 H 0.2170 0.9539 -0.3643
C20 C 0.2024(6) 1.0313(5) -0.3045(4)
H17 H 0.2504 1.0593 -0.3210
C21 C 0.1510(5) 1.0516(3) -0.2541(3)
C22 C 0.0784(5) 1.0099(3) -0.2320(3)
H18 H 0.0427 1.0238 -0.1984
C23 C 0.6509(5) 0.9617(3) -0.2145(3)
H19 H 0.7016 0.9497 -0.1784
C24 C 0.6613(6) 0.9384(3) -0.2754(4)
H20 H 0.7180 0.9098 -0.2800
C25 C 0.5880(6) 0.9573(4) -0.3294(4)
H21 H 0.5963 0.9422 -0.3704
C26 C 0.5035(6) 0.9982(4) -0.3227(4)
H22 H 0.4543 1.0109 -0.3592
C27 C 0.4905(6) 1.0206(3) -0.2621(4)
H23 H 0.4317 1.0477 -0.2577
C28 C 0.5651(5) 1.0029(3) -0.2072(3)
C29 C 0.5502(5) 1.0237(3) -0.1392(3)
H24 H 0.6204 1.0378 -0.1156
H25 H 0.5273 0.9857 -0.1168
C30 C 0.4971(5) 1.1365(3) -0.1178(3)
C31 C 0.4076(5) 1.1850(3) -0.1160(3)
C32 C 0.4350(5) 1.2413(3) -0.0786(3)
H26 H 0.5060 1.2463 -0.0564
C33 C 0.3582(6) 1.2897(3) -0.0740(3)
H27 H 0.3773 1.3268 -0.0486
C34 C 0.2546(6) 1.2825(4) -0.1071(3)
H28 H 0.2036 1.3155 -0.1045
C35 C 0.2234(5) 1.2283(4) -0.1442(4)
H29 H 0.1523 1.2249 -0.1667
C36 C 0.2978(5) 1.1781(3) -0.1481(3)
C37 C 0.1666(5) 1.1201(4) -0.2250(4)
H30 H 0.1086 1.1299 -0.2003
H31 H 0.1643 1.1525 -0.2593
C38 C 0.1149(8) 0.9511(4) 0.3798(4)
H32 H 0.1555 0.9879 0.3722
C39 C 0.0512(12) 0.9535(7) 0.4272(7)
H33 H 0.0487 0.9916 0.4515
C40 C -0.0082(12) 0.9006(9) 0.4389(7)
H34 H -0.0512 0.9025 0.4715
C41 C -0.0059(8) 0.8455(8) 0.4044(7)
H35 H -0.0467 0.8091 0.4126
C42 C 0.0602(7) 0.8439(4) 0.3548(4)
H36 H 0.0622 0.8064 0.3297
C43 C 0.1203(5) 0.8973(4) 0.3443(3)
C44 C 0.1901(5) 0.8972(3) 0.2922(3)
H37 H 0.1558 0.8702 0.2562
H38 H 0.1957 0.9416 0.2762
C45 C 0.3626(5) 0.8418(3) 0.2799(3)
C46 C 0.4739(5) 0.8176(3) 0.3087(3)
C47 C 0.5289(5) 0.7812(3) 0.2696(3)
H39 H 0.4962 0.7741 0.2267
C48 C 0.6302(6) 0.7545(3) 0.2907(3)
H40 H 0.6647 0.7291 0.2630
C49 C 0.6801(5) 0.7660(4) 0.3542(4)
H41 H 0.7497 0.7494 0.3689
C50 C 0.6279(6) 0.8015(3) 0.3956(3)
H42 H 0.6615 0.8080 0.4384
C51 C 0.5238(6) 0.8284(3) 0.3738(3)
C52 C 0.5142(9) 0.8774(5) 0.4800(3)
C53 C 0.7089(19) 1.0125(13) 0.4873(8)
C54 C 0.5000 1.0000 0.5000
C55 C 0.5558(16) 0.9335(10) 0.4873(6)
N1 N 0.1593(4) 0.9087(3) -0.0610(2)
H43 H 0.1186 0.9304 -0.0911
N2 N 0.4711(4) 1.0762(3) -0.1367(3)
H44 H 0.4030 1.0671 -0.1484
N3 N 0.3000(4) 0.8719(3) 0.3163(2)
H45 H 0.3255 0.8770 0.3569
N4 N 0.3306(5) 0.6788(3) 0.0961(3)
N5 N 0.0740(5) 0.7223(3) 0.1620(3)
N6 N 0.1071(6) 0.9239(3) 0.1168(3)
O1 O 0.1657(3) 0.8294(2) 0.01243(19)
O2 O 0.0187(3) 0.8876(2) -0.16711(18)
O3 O 0.5948(3) 1.1542(2) -0.10017(18)
O4 O 0.2708(3) 1.1221(2) -0.1831(2)
O5 O 0.3283(3) 0.8330(2) 0.22022(17)
O6 O 0.4668(4) 0.8637(2) 0.41247(19)
O7 O 0.2909(3) 0.7157(2) 0.0493(2)
O8 O 0.3645(5) 0.6240(3) 0.0876(3)
O9 O 0.3349(4) 0.7026(2) 0.1528(2)
O10 O 0.0885(4) 0.7254(2) 0.1036(2)
O11 O -0.0014(4) 0.6907(3) 0.1772(3)
O12 O 0.1419(4) 0.7531(2) 0.2026(2)
O13 O 0.0692(4) 0.8691(3) 0.1287(2)
O14 O 0.0521(5) 0.9735(3) 0.1075(3)
O15 O 0.2082(4) 0.9246(2) 0.1142(2)
Tb1 Tb 0.23778(2) 0.805333(15) 0.119320(12)
H46 H 0.783(4) 1.008(10) 0.487(10)
C56 C 0.4612(19) 0.9474(8) 0.4939(6)
C57 C 0.6482(16) 1.0634(9) 0.4986(7)
H47 H 0.6774 1.1056 0.5016
C1B C 0.3335(16) 1.0530(11) 0.5173(6)
H1B H 0.2872 1.0876 0.5233
C2B C 0.6787(6) 1.0996(4) 0.1538(4)
H2B H 0.7419 1.0779 0.1731
C3B C 0.6132(7) 1.1281(4) 0.1922(4)
H3B H 0.6314 1.1258 0.2372
C4B C 0.5228(8) 1.1592(4) 0.1646(4)
H4B H 0.4779 1.1790 0.1906
C5B C 0.4957(9) 1.1624(6) 0.0985(5)
H5B H 0.4318 1.1836 0.0796
C6B C 0.5620(8) 1.1347(5) 0.0604(4)
H6B H 0.5440 1.1384 0.0155
C7B C 0.6533(5) 1.1021(4) 0.0862(3)
C8B C 0.7250(5) 1.0691(4) 0.0431(3)
H7B H 0.6983 1.0799 -0.0021
H8B H 0.7213 1.0218 0.0479
C9B C 0.8862(5) 1.1404(3) 0.0355(3)
C10B C 0.9992(5) 1.1599(3) 0.0662(3)
C11B C 1.0591(6) 1.1952(4) 0.0281(4)
H9B H 1.0298 1.2036 -0.0151
C12B C 1.1624(6) 1.2182(4) 0.0532(4)
H10B H 1.2033 1.2404 0.0265
C13B C 1.2053(6) 1.2080(4) 0.1185(4)
H11B H 1.2735 1.2249 0.1363
C14B C 1.1454(5) 1.1726(3) 0.1563(3)
H12B H 1.1738 1.1655 0.1999
C15B C 1.0446(5) 1.1476(3) 0.1313(3)
C16B C 1.0263(5) 1.0949(3) 0.2334(3)
H13B H 1.0944 1.0710 0.2348
H14B H 1.0407 1.1340 0.2599
C17B C 0.9434(6) 1.0527(3) 0.2583(3)
C18B C 0.8892(6) 1.0719(4) 0.3058(3)
H15B H 0.9007 1.1141 0.3225
C19B C 0.8177(7) 1.0317(4) 0.3306(4)
H16B H 0.7830 1.0461 0.3643
C20B C 0.7976(6) 0.9687(5) 0.3045(4)
H17B H 0.7496 0.9407 0.3210
C21B C 0.8490(5) 0.9484(3) 0.2541(3)
C22B C 0.9216(5) 0.9901(3) 0.2320(3)
H18B H 0.9573 0.9762 0.1984
C23B C 0.3491(5) 1.0383(3) 0.2145(3)
H19B H 0.2984 1.0503 0.1784
C24B C 0.3387(6) 1.0616(3) 0.2754(4)
H20B H 0.2820 1.0902 0.2800
C25B C 0.4120(6) 1.0427(4) 0.3294(4)
H21B H 0.4037 1.0578 0.3704
C26B C 0.4965(6) 1.0018(4) 0.3227(4)
H22B H 0.5457 0.9891 0.3592
C27B C 0.5095(6) 0.9794(3) 0.2621(4)
H23B H 0.5683 0.9523 0.2577
C28B C 0.4349(5) 0.9971(3) 0.2072(3)
C29B C 0.4498(5) 0.9763(3) 0.1392(3)
H24B H 0.3796 0.9622 0.1156
H25B H 0.4727 1.0143 0.1168
C30B C 0.5029(5) 0.8635(3) 0.1178(3)
C31B C 0.5924(5) 0.8150(3) 0.1160(3)
C32B C 0.5650(5) 0.7587(3) 0.0786(3)
H26B H 0.4940 0.7537 0.0564
C33B C 0.6418(6) 0.7103(3) 0.0740(3)
H27B H 0.6227 0.6732 0.0486
C34B C 0.7454(6) 0.7175(4) 0.1071(3)
H28B H 0.7964 0.6845 0.1045
C35B C 0.7766(5) 0.7717(4) 0.1442(4)
H29B H 0.8477 0.7751 0.1667
C36B C 0.7022(5) 0.8219(3) 0.1481(3)
C37B C 0.8334(5) 0.8799(4) 0.2250(4)
H30B H 0.8914 0.8701 0.2003
H31B H 0.8357 0.8475 0.2593
C38B C 0.8851(8) 1.0489(4) 0.6202(4)
H32B H 0.8445 1.0121 0.6278
C39B C 0.9488(12) 1.0465(7) 0.5728(7)
H33B H 0.9513 1.0084 0.5485
C40B C 1.0082(12) 1.0994(9) 0.5611(7)
H34B H 1.0512 1.0975 0.5285
C41B C 1.0059(8) 1.1545(8) 0.5956(7)
H35B H 1.0467 1.1909 0.5874
C42B C 0.9398(7) 1.1561(4) 0.6452(4)
H36B H 0.9378 1.1936 0.6703
C43B C 0.8797(5) 1.1027(4) 0.6557(3)
C44B C 0.8099(5) 1.1028(3) 0.7078(3)
H37B H 0.8442 1.1298 0.7438
H38B H 0.8043 1.0584 0.7238
C45B C 0.6374(5) 1.1582(3) 0.7201(3)
C46B C 0.5261(5) 1.1824(3) 0.6913(3)
C47B C 0.4711(5) 1.2188(3) 0.7304(3)
H39B H 0.5038 1.2259 0.7733
C48B C 0.3698(6) 1.2455(3) 0.7093(3)
H40B H 0.3353 1.2709 0.7370
C49B C 0.3199(5) 1.2340(4) 0.6458(4)
H41B H 0.2503 1.2506 0.6311
C50B C 0.3721(6) 1.1985(3) 0.6044(3)
H42B H 0.3385 1.1920 0.5616
C51B C 0.4762(6) 1.1716(3) 0.6262(3)
C52B C 0.4858(9) 1.1226(5) 0.5200(3)
C53B C 0.2911(19) 0.9875(13) 0.5127(8)
C55B C 0.4442(16) 1.0665(10) 0.5127(6)
N1B N 0.8407(4) 1.0913(3) 0.0610(2)
H43B H 0.8814 1.0696 0.0911
N2B N 0.5289(4) 0.9238(3) 0.1367(3)
H44B H 0.5970 0.9329 0.1484
N3B N 0.7000(4) 1.1281(3) 0.6837(2)
H45B H 0.6745 1.1230 0.6431
N4B N 0.6694(5) 1.3212(3) -0.0961(3)
N5B N 0.9260(5) 1.2777(3) -0.1620(3)
N6B N 0.8929(6) 1.0761(3) -0.1168(3)
O1B O 0.8343(3) 1.1706(2) -0.01243(19)
O2B O 0.9813(3) 1.1124(2) 0.16711(18)
O3B O 0.4052(3) 0.8458(2) 0.10017(18)
O4B O 0.7292(3) 0.8779(2) 0.1831(2)
O5B O 0.6717(3) 1.1670(2) 0.77978(17)
O5B_2 O 0.6717(3) 1.1670(2) -0.22022(17)
O6B O 0.5332(4) 1.1363(2) 0.58753(19)
O7B O 0.7091(3) 1.2843(2) -0.0493(2)
O8B O 0.6355(5) 1.3760(3) -0.0876(3)
O9B O 0.6651(4) 1.2974(2) -0.1528(2)
O10B O 0.9115(4) 1.2746(2) -0.1036(2)
O11B O 1.0014(4) 1.3093(3) -0.1772(3)
O12B O 0.8581(4) 1.2469(2) -0.2026(2)
O13B O 0.9308(4) 1.1309(3) -0.1287(2)
O14B O 0.9479(5) 1.0265(3) -0.1075(3)
O15B O 0.7918(4) 1.0754(2) -0.1142(2)
Tb1B Tb 0.76222(2) 1.194667(15) -0.119320(12)
Tb1B_2 Tb 0.76222(2) 1.194667(15) 0.880680(12)
H46B H 0.217(4) 0.992(10) 0.513(10)
C56B C 0.5388(19) 1.0526(8) 0.5061(6)
C57B C 0.3518(16) 0.9366(9) 0.5014(7)
H47B H 0.3226 0.8944 0.4984
loop_
_geom_bond_atom_site_label_1
_geom_bond_atom_site_label_2
_geom_bond_site_symmetry_1
_geom_bond_site_symmetry_2
C1 H1 1_555 1_555
C2 H2 1_555 1_555
C3 C2 1_555 1_555
H3 C3 1_555 1_555
C4 C3 1_555 1_555
H4 C4 1_555 1_555
C5 C4 1_555 1_555
H5 C5 1_555 1_555
C6 C5 1_555 1_555
H6 C6 1_555 1_555
C7 C2 1_555 1_555
C8 C7 1_555 1_555
H7 C8 1_555 1_555
H8 C8 1_555 1_555
C9 C10 1_555 1_555
C10 C11 1_555 1_555
C11 H9 1_555 1_555
C12 C11 1_555 1_555
H10 C12 1_555 1_555
C13 C12 1_555 1_555
H11 C13 1_555 1_555
C14 C13 1_555 1_555
H12 C14 1_555 1_555
C15 C10 1_555 1_555
C16 H13 1_555 1_555
H14 C16 1_555 1_555
C17 C16 1_555 1_555
C18 C17 1_555 1_555
H15 C18 1_555 1_555
C19 C18 1_555 1_555
H16 C19 1_555 1_555
C20 C19 1_555 1_555
H17 C20 1_555 1_555
C21 C20 1_555 1_555
C22 C17 1_555 1_555
H18 C22 1_555 1_555
C23 H19 1_555 1_555
C24 C23 1_555 1_555
H20 C24 1_555 1_555
C25 C24 1_555 1_555
H21 C25 1_555 1_555
C26 C25 1_555 1_555
H22 C26 1_555 1_555
C27 C26 1_555 1_555
H23 C27 1_555 1_555
C28 C23 1_555 1_555
C29 C28 1_555 1_555
H24 C29 1_555 1_555
H25 C29 1_555 1_555
C30 C31 1_555 1_555
C31 C32 1_555 1_555
C32 H26 1_555 1_555
C33 C32 1_555 1_555
H27 C33 1_555 1_555
C34 C33 1_555 1_555
H28 C34 1_555 1_555
C35 C34 1_555 1_555
H29 C35 1_555 1_555
C36 C31 1_555 1_555
C37 C21 1_555 1_555
H30 C37 1_555 1_555
H31 C37 1_555 1_555
C38 H32 1_555 1_555
C39 C38 1_555 1_555
H33 C39 1_555 1_555
C40 C39 1_555 1_555
H34 C40 1_555 1_555
C41 C40 1_555 1_555
H35 C41 1_555 1_555
C42 C41 1_555 1_555
H36 C42 1_555 1_555
C43 C38 1_555 1_555
C44 C43 1_555 1_555
H37 C44 1_555 1_555
H38 C44 1_555 1_555
C45 C46 1_555 1_555
C46 C47 1_555 1_555
C47 H39 1_555 1_555
C48 C47 1_555 1_555
H40 C48 1_555 1_555
C49 C48 1_555 1_555
H41 C49 1_555 1_555
C50 C49 1_555 1_555
H42 C50 1_555 1_555
C51 C46 1_555 1_555
C52 C55 1_555 1_555
C53 C1 1_555 1_555
C54 C55 1_555 1_555
C55 C1 1_555 1_555
N1 C8 1_555 1_555
H43 N1 1_555 1_555
N2 C29 1_555 1_555
H44 N2 1_555 1_555
N3 C44 1_555 1_555
H45 N3 1_555 1_555
N4 O7 1_555 1_555
N5 O10 1_555 1_555
N6 O13 1_555 1_555
O1 C9 1_555 1_555
O2 C15 1_555 1_555
O3 C30 1_555 1_555
O4 C36 1_555 1_555
O5 C45 1_555 1_555
O6 C51 1_555 1_555
O7 Tb1 1_555 1_555
O8 N4 1_555 1_555
O9 N4 1_555 1_555
O10 Tb1 1_555 1_555
O11 N5 1_555 1_555
O12 N5 1_555 1_555
O13 Tb1 1_555 1_555
O14 N6 1_555 1_555
O15 N6 1_555 1_555
Tb1 O1 1_555 1_555
H46 C53 1_555 1_555
C56 C52 1_555 1_555
C57 C53 1_555 1_555
H47 C57 1_555 1_555
C1B H1B 1_555 1_555
C2B H2B 1_555 1_555
C3B C2B 1_555 1_555
H3B C3B 1_555 1_555
C4B C3B 1_555 1_555
H4B C4B 1_555 1_555
C5B C4B 1_555 1_555
H5B C5B 1_555 1_555
C6B C5B 1_555 1_555
H6B C6B 1_555 1_555
C7B C2B 1_555 1_555
C8B C7B 1_555 1_555
H7B C8B 1_555 1_555
H8B C8B 1_555 1_555
C9B C10B 1_555 1_555
C10B C11B 1_555 1_555
C11B H9B 1_555 1_555
C12B C11B 1_555 1_555
H10B C12B 1_555 1_555
C13B C12B 1_555 1_555
H11B C13B 1_555 1_555
C14B C13B 1_555 1_555
H12B C14B 1_555 1_555
C15B C10B 1_555 1_555
C16B H13B 1_555 1_555
H14B C16B 1_555 1_555
C17B C16B 1_555 1_555
C18B C17B 1_555 1_555
H15B C18B 1_555 1_555
C19B C18B 1_555 1_555
H16B C19B 1_555 1_555
C20B C19B 1_555 1_555
H17B C20B 1_555 1_555
C21B C20B 1_555 1_555
C22B C17B 1_555 1_555
H18B C22B 1_555 1_555
C23B H19B 1_555 1_555
C24B C23B 1_555 1_555
H20B C24B 1_555 1_555
C25B C24B 1_555 1_555
H21B C25B 1_555 1_555
C26B C25B 1_555 1_555
H22B C26B 1_555 1_555
C27B C26B 1_555 1_555
H23B C27B 1_555 1_555
C28B C23B 1_555 1_555
C29B C28B 1_555 1_555
H24B C29B 1_555 1_555
H25B C29B 1_555 1_555
C30B C31B 1_555 1_555
C31B C32B 1_555 1_555
C32B H26B 1_555 1_555
C33B C32B 1_555 1_555
H27B C33B 1_555 1_555
C34B C33B 1_555 1_555
H28B C34B 1_555 1_555
C35B C34B 1_555 1_555
H29B C35B 1_555 1_555
C36B C31B 1_555 1_555
C37B C21B 1_555 1_555
H30B C37B 1_555 1_555
H31B C37B 1_555 1_555
C38B H32B 1_555 1_555
C39B C38B 1_555 1_555
H33B C39B 1_555 1_555
C40B C39B 1_555 1_555
H34B C40B 1_555 1_555
C41B C40B 1_555 1_555
H35B C41B 1_555 1_555
C42B C41B 1_555 1_555
H36B C42B 1_555 1_555
C43B C38B 1_555 1_555
C44B C43B 1_555 1_555
H37B C44B 1_555 1_555
H38B C44B 1_555 1_555
C45B C46B 1_555 1_555
C46B C47B 1_555 1_555
C47B H39B 1_555 1_555
C48B C47B 1_555 1_555
H40B C48B 1_555 1_555
C49B C48B 1_555 1_555
H41B C49B 1_555 1_555
C50B C49B 1_555 1_555
H42B C50B 1_555 1_555
C51B C46B 1_555 1_555
C52B C55B 1_555 1_555
C53B C1B 1_555 1_555
C55B C54 1_555 1_555
N1B C8B 1_555 1_555
H43B N1B 1_555 1_555
N2B C29B 1_555 1_555
H44B N2B 1_555 1_555
N3B C44B 1_555 1_555
H45B N3B 1_555 1_555
N4B O7B 1_555 1_555
N5B O10B 1_555 1_555
N6B O13B 1_555 1_555
O1B C9B 1_555 1_555
O2B C15B 1_555 1_555
O3B Tb1 1_555 1_555
O4B C36B 1_555 1_555
O5B C45B 1_555 1_555
O5B_2 Tb1B 1_555 1_555
O6B C51B 1_555 1_555
O7B Tb1B 1_555 1_555
O8B N4B 1_555 1_555
O9B N4B 1_555 1_555
O10B Tb1B 1_555 1_555
O11B N5B 1_555 1_555
O12B N5B 1_555 1_555
O13B Tb1B 1_555 1_555
O14B N6B 1_555 1_555
O15B N6B 1_555 1_555
Tb1B O3 1_555 1_555
Tb1B_2 O5B 1_555 1_555
H46B C53B 1_555 1_555
C56B C54 1_555 1_555
C57B C56 1_555 1_555
H47B C57B 1_555 1_555
C6 C7 1_555 1_555
C9 N1 1_555 1_555
C14 C15 1_555 1_555
C16 O2 1_555 1_555
C21 C22 1_555 1_555
C27 C28 1_555 1_555
C30 N2 1_555 1_555
C35 C36 1_555 1_555
C37 O4 1_555 1_555
C42 C43 1_555 1_555
C45 N3 1_555 1_555
C50 C51 1_555 1_555
C52 O6 1_555 1_555
C54 C56 1_555 1_555
C55 C56 1_555 1_555
O5 Tb1 1_555 1_555
O9 Tb1 1_555 1_555
O12 Tb1 1_555 1_555
O15 Tb1 1_555 1_555
C57 C56B 1_555 1_555
C1B C55B 1_555 1_555
C6B C7B 1_555 1_555
C9B N1B 1_555 1_555
C14B C15B 1_555 1_555
C16B O2B 1_555 1_555
C21B C22B 1_555 1_555
C27B C28B 1_555 1_555
C30B N2B 1_555 1_555
C30B O3B 1_555 1_555
C35B C36B 1_555 1_555
C37B O4B 1_555 1_555
C42B C43B 1_555 1_555
C45B N3B 1_555 1_555
C50B C51B 1_555 1_555
C52B O6B 1_555 1_555
C52B C56B 1_555 1_555
C53B C57B 1_555 1_555
C55B C56B 1_555 1_555
O1B Tb1B 1_555 1_555
O9B Tb1B 1_555 1_555
O12B Tb1B 1_555 1_555
O15B Tb1B 1_555 1_555

#END
