
#######################################################################
#
#                 Cambridge Crystallographic Data Centre
#                                CCDC 
#
#######################################################################
#
# If this CIF has been generated from an entry in the Cambridge 
# Structural Database, then it will include bibliographic, chemical, 
# crystal, experimental, refinement or atomic coordinate data resulting 
# from the CCDC's data processing and validation procedures.
#
#######################################################################

data_UZUSAK
_symmetry_cell_setting           triclinic
_symmetry_space_group_name_H-M   'P -1'
_symmetry_Int_Tables_number      2
_space_group_name_Hall           '-P 1'
loop_
_symmetry_equiv_pos_site_id
_symmetry_equiv_pos_as_xyz
1 x,y,z
2 -x,-y,-z
_cell_length_a                   9.7762(8)
_cell_length_b                   9.8409(8)
_cell_length_c                   10.3044(9)
_cell_angle_alpha                92.6250(10)
_cell_angle_beta                 114.8990(10)
_cell_angle_gamma                110.6280(10)
_cell_volume                     819.257
loop_
_atom_site_label
_atom_site_type_symbol
_atom_site_fract_x
_atom_site_fract_y
_atom_site_fract_z
U1 U 0.33142(2) 0.537073(18) 0.556986(19)
P1 P 0.69800(14) 0.77239(13) 0.69867(13)
P2 P 0.88841(14) 1.26922(13) 0.35573(13)
O1 O 0.2921(4) 0.6389(3) 0.4179(3)
O2 O 0.3753(4) 0.4368(3) 0.6964(4)
O3 O 0.5567(4) 0.7707(3) 0.7252(3)
O4 O 0.6269(4) 0.6203(3) 0.5951(3)
O5 O 0.8591(4) 0.8011(4) 0.8409(4)
O6 O 1.0731(4) 1.3486(3) 0.4209(4)
O7 O 0.8103(4) 1.1718(4) 0.1981(4)
O8 O 0.8033(4) 1.3728(3) 0.3502(3)
C1 C 0.7599(5) 0.9179(5) 0.6100(5)
C2 C 0.9246(6) 1.0141(5) 0.6598(5)
H1 H 1.0093 1.0077 0.7461
C3 C 0.6353(6) 0.9295(5) 0.4853(5)
H2 H 0.5229 0.8642 0.4521
C4 C 0.8405(5) 1.1328(5) 0.4573(5)
C5 C 0.9636(6) 1.1198(5) 0.5814(5)
H3 H 1.0760 1.1840 0.6133
C6 C 0.6759(6) 1.0363(5) 0.4104(5)
H4 H 0.5909 1.0444 0.3256
U1A U 0.66858(2) 0.462927(18) 0.443014(19)
U1_2 U 1.33142(2) 1.537073(18) 0.556986(19)
U1A_2 U 0.66858(2) 1.462927(18) 0.443014(19)
U1A_3 U -0.33142(2) -0.537073(18) 0.443014(19)
U1_3 U 0.33142(2) -0.462927(18) 0.556986(19)
P1A P 0.30200(14) 0.22761(13) 0.30133(13)
P2A P 0.11159(14) -0.26922(13) 0.64427(13)
O1A O 0.7079(4) 0.3611(3) 0.5821(3)
O2A O 0.6247(4) 0.5632(3) 0.3036(4)
O3A O 0.4433(4) 0.2293(3) 0.2748(3)
O4A O 0.3731(4) 0.3797(3) 0.4049(3)
O5A O 0.1409(4) 0.1989(4) 0.1591(4)
O6A O -0.0731(4) -0.3486(3) 0.5791(4)
O6_2 O 0.0731(4) 0.3486(3) 0.4209(4)
O6A_2 O 0.9269(4) 0.6514(3) 0.5791(4)
O7A O 0.1897(4) -0.1718(4) 0.8019(4)
O8A O 0.1967(4) -0.3728(3) 0.6498(3)
O8A_2 O 0.1967(4) 0.6272(3) 0.6498(3)
O8_2 O 0.8033(4) 0.3728(3) 0.3502(3)
C1A C 0.2401(5) 0.0821(5) 0.3900(5)
C2A C 0.0754(6) -0.0141(5) 0.3402(5)
H1A H -0.0093 -0.0077 0.2539
C3A C 0.3647(6) 0.0705(5) 0.5147(5)
H2A H 0.4771 0.1358 0.5479
C4A C 0.1595(5) -0.1328(5) 0.5427(5)
C5A C 0.0364(6) -0.1198(5) 0.4186(5)
H3A H -0.0760 -0.1840 0.3867
C6A C 0.3241(6) -0.0363(5) 0.5896(5)
H4A H 0.4091 -0.0444 0.6744
O9 O 0.8764(4) 0.6161(4) 1.0064(4)
O10 O 0.7911(5) 0.2976(4) 0.9788(4)
C7 C 0.7308(7) 0.5100(6) 1.0093(6)
H5 H 0.6421 0.5467 0.9739
H6 H 0.7578 0.5002 1.1115
C8 C 0.6715(7) 0.3612(6) 0.9139(6)
H7 H 0.5632 0.2939 0.9042
H8 H 0.6572 0.3727 0.8146
C9 C 0.8330(6) 0.2362(6) 0.8782(6)
H9 H 0.7345 0.1931 0.7803
H10 H 0.8653 0.1548 0.9132
C10 C 1.0290(6) 0.6488(6) 1.1354(6)
H11 H 1.0235 0.6861 1.2232
H12 H 1.0485 0.5570 1.1474
O9A O 1.1236(4) 0.3839(4) 0.9936(4)
O10A O 1.2089(5) 0.7024(4) 1.0212(4)
C7A C 1.2692(7) 0.4900(6) 0.9907(6)
H5A H 1.3579 0.4533 1.0261
H6A H 1.2422 0.4998 0.8885
C8A C 1.3285(7) 0.6388(6) 1.0861(6)
H7A H 1.4368 0.7061 1.0958
H8A H 1.3428 0.6273 1.1854
C9A C 1.1670(6) 0.7638(6) 1.1218(6)
H9A H 1.2655 0.8069 1.2197
H10A H 1.1347 0.8452 1.0868
C10A C 0.9710(6) 0.3512(6) 0.8646(6)
H11A H 0.9765 0.3139 0.7768
H12A H 0.9515 0.4430 0.8526
O11 O 0.3461(14) 0.1504(12) 0.9604(12)
loop_
_geom_bond_atom_site_label_1
_geom_bond_atom_site_label_2
_geom_bond_site_symmetry_1
_geom_bond_site_symmetry_2
U1 O1 1_555 1_555
P1 O3 1_555 1_555
P2 O6 1_555 1_555
O2 U1 1_555 1_555
O3 U1 1_555 1_555
O4 U1 1_555 1_555
O5 P1 1_555 1_555
O6 U1_2 1_555 1_555
O7 P2 1_555 1_555
O8 P2 1_555 1_555
O9 C7 1_555 1_555
O10 C8 1_555 1_555
C1 P1 1_555 1_555
C2 C1 1_555 1_555
H1 C2 1_555 1_555
C3 C1 1_555 1_555
H2 C3 1_555 1_555
C4 P2 1_555 1_555
C5 C2 1_555 1_555
H3 C5 1_555 1_555
C6 C3 1_555 1_555
H4 C6 1_555 1_555
C7 H5 1_555 1_555
H6 C7 1_555 1_555
C8 C7 1_555 1_555
H7 C8 1_555 1_555
H8 C8 1_555 1_555
C9 O10 1_555 1_555
H9 C9 1_555 1_555
H10 C9 1_555 1_555
C10 O9 1_555 1_555
H11 C10 1_555 1_555
H12 C10 1_555 1_555
U1A O4 1_555 1_555
U1A_2 O8 1_555 1_555
U1A_3 O6A 1_555 1_555
U1_3 O8A 1_555 1_555
P1A O3A 1_555 1_555
P2A O6A 1_555 1_555
O1A U1A 1_555 1_555
O2A U1A 1_555 1_555
O3A U1A 1_555 1_555
O4A U1 1_555 1_555
O5A P1A 1_555 1_555
O6_2 U1 1_555 1_555
O6A_2 U1A 1_555 1_555
O7A P2A 1_555 1_555
O8A P2A 1_555 1_555
O8A_2 U1 1_555 1_555
O8_2 U1A 1_555 1_555
O9A C7A 1_555 1_555
O10A C8A 1_555 1_555
C1A P1A 1_555 1_555
C2A C1A 1_555 1_555
H1A C2A 1_555 1_555
C3A C1A 1_555 1_555
H2A C3A 1_555 1_555
C4A P2A 1_555 1_555
C5A C2A 1_555 1_555
H3A C5A 1_555 1_555
C6A C3A 1_555 1_555
H4A C6A 1_555 1_555
C7A H5A 1_555 1_555
H6A C7A 1_555 1_555
C8A C7A 1_555 1_555
H7A C8A 1_555 1_555
H8A C8A 1_555 1_555
C9A C10 1_555 1_555
H9A C9A 1_555 1_555
H10A C9A 1_555 1_555
C10A C9 1_555 1_555
H11A C10A 1_555 1_555
H12A C10A 1_555 1_555
P1 O4 1_555 1_555
C4 C5 1_555 1_555
C4 C6 1_555 1_555
U1A O4A 1_555 1_555
P1A O4A 1_555 1_555
O9A C10A 1_555 1_555
O10A C9A 1_555 1_555
C4A C5A 1_555 1_555
C4A C6A 1_555 1_555

#END
