
#######################################################################
#
#                 Cambridge Crystallographic Data Centre
#                                CCDC 
#
#######################################################################
#
# If this CIF has been generated from an entry in the Cambridge 
# Structural Database, then it will include bibliographic, chemical, 
# crystal, experimental, refinement or atomic coordinate data resulting 
# from the CCDC's data processing and validation procedures.
#
#######################################################################

data_UZUSOY
_symmetry_cell_setting           monoclinic
_symmetry_space_group_name_H-M   'P 21/n'
_symmetry_Int_Tables_number      14
_space_group_name_Hall           '-P 2yn'
loop_
_symmetry_equiv_pos_site_id
_symmetry_equiv_pos_as_xyz
1 x,y,z
2 1/2-x,1/2+y,1/2-z
3 -x,-y,-z
4 1/2+x,1/2-y,1/2+z
_cell_length_a                   16.7893(18)
_cell_length_b                   10.2105(11)
_cell_length_c                   22.087(2)
_cell_angle_alpha                90
_cell_angle_beta                 92.0120(10)
_cell_angle_gamma                90
_cell_volume                     3783.98
loop_
_atom_site_label
_atom_site_type_symbol
_atom_site_fract_x
_atom_site_fract_y
_atom_site_fract_z
U1 U 0.234547(12) -0.95508(2) -0.000060(9)
U2 U 0.244470(12) -1.37941(2) -0.000050(10)
P1 P 0.31139(8) -0.67477(15) -0.08533(6)
P2 P 0.31138(8) -0.67073(15) -0.37518(6)
P3 P 0.31505(9) -0.67161(16) 0.09018(7)
P4 P 0.31555(8) -0.67045(15) 0.37961(6)
F1 F 0.18804(18) -1.1712(3) -0.00214(14)
O1 O 0.3359(2) -1.0013(4) 0.00022(17)
O2 O 0.1320(2) -0.9095(4) -0.00001(18)
O3 O 0.3415(2) -1.3095(4) 0.00733(18)
O4 O 0.1482(2) -1.4486(4) -0.00636(17)
O5 O 0.3985(2) -0.7203(5) -0.06804(18)
O6 O 0.2551(2) -0.7775(4) -0.06340(18)
O7 O 0.2972(2) -0.5380(4) -0.06358(18)
O8 O 0.2779(2) -0.5430(4) -0.39883(17)
O9 O 0.4041(2) -0.6778(4) -0.38071(18)
O10 O 0.2715(2) -0.7936(4) -0.39956(17)
O11 O 0.4056(3) -0.6766(5) 0.0724(2)
O12 O 0.2716(3) -0.7900(5) 0.0686(2)
O13 O 0.2837(2) -0.5432(4) 0.06769(17)
O14 O 0.2742(2) -0.5481(4) 0.40035(17)
O15 O 0.4072(2) -0.6562(4) 0.39963(18)
O16 O 0.2835(2) -0.8009(4) 0.39955(17)
C1 C 0.3067(3) -0.6736(6) -0.1671(3)
C2 C 0.3457(3) -0.7717(6) -0.1985(3)
H1 H 0.3733 -0.8389 -0.1767
C3 C 0.3446(3) -0.7718(6) -0.2613(3)
H2 H 0.3707 -0.8396 -0.2824
C4 C 0.3049(3) -0.6722(6) -0.2937(2)
C5 C 0.2650(3) -0.5764(6) -0.2627(3)
H3 H 0.2369 -0.5100 -0.2847
C6 C 0.2656(3) -0.5759(6) -0.1994(3)
H4 H 0.2381 -0.5093 -0.1785
C7 C 0.3160(3) -0.6713(6) 0.1714(2)
C8 C 0.2962(3) -0.5576(6) 0.2025(3)
H5 H 0.2831 -0.4799 0.1808
C9 C 0.2957(3) -0.5584(6) 0.2655(3)
H6 H 0.2822 -0.4808 0.2866
C10 C 0.3147(3) -0.6707(6) 0.2978(3)
C11 C 0.3354(3) -0.7841(6) 0.2667(3)
H7 H 0.3488 -0.8617 0.2884
C12 C 0.3362(3) -0.7830(6) 0.2039(3)
H8 H 0.3509 -0.8601 0.1830
U1A U 0.265453(12) -0.45508(2) -0.499940(9)
U1A_2 U 0.265453(12) -0.45508(2) 0.500060(9)
U2_2 U 0.244470(12) -0.37941(2) -0.000050(10)
U2A U 0.255530(12) -0.87941(2) -0.499950(10)
U2A_2 U 0.255530(12) -0.87941(2) 0.500050(10)
O7_2 O 0.2972(2) -1.5380(4) -0.06358(18)
O8A O 0.2221(2) -1.0430(4) -0.10117(17)
O10A O 0.2285(2) -1.2936(4) -0.10044(17)
O13_2 O 0.2837(2) -1.5432(4) 0.06769(17)
O14A O 0.2258(2) -1.0481(4) 0.09965(17)
O16A O 0.2165(2) -1.3009(4) 0.10045(17)
O17 O 0.4820(3) -1.0425(5) 0.3468(2)
O18 O 0.5287(2) -0.7843(5) 0.3587(2)
O19 O 0.5568(3) -0.6728(5) 0.2456(2)
O20 O 0.5264(2) -0.7827(5) 0.1323(2)
O21 O 0.4864(2) -1.0445(5) 0.1441(2)
O22 O 0.4116(3) -1.1429(5) 0.2440(2)
C13 C 0.4162(5) -1.2208(8) 0.2977(4)
H9 H 0.4654 -1.2745 0.2988
H10 H 0.3697 -1.2801 0.2993
C14 C 0.4171(5) -1.1287(8) 0.3490(4)
H11 H 0.3668 -1.0778 0.3480
H12 H 0.4203 -1.1783 0.3875
C15 C 0.4986(4) -0.9840(7) 0.4059(3)
H13 H 0.5178 -1.0515 0.4351
H14 H 0.4497 -0.9437 0.4215
C16 C 0.5616(4) -0.8813(7) 0.3978(3)
H15 H 0.5777 -0.8422 0.4374
H16 H 0.6093 -0.9207 0.3799
C17 C 0.5807(4) -0.6752(7) 0.3510(3)
H17 H 0.6349 -0.7061 0.3420
H18 H 0.5840 -0.6218 0.3884
C18 C 0.5474(4) -0.5960(7) 0.2997(3)
H19 H 0.4904 -0.5768 0.3055
H20 H 0.5765 -0.5120 0.2968
C19 C 0.5443(4) -0.5949(7) 0.1917(3)
H21 H 0.5719 -0.5096 0.1964
H22 H 0.4867 -0.5783 0.1842
C20 C 0.5769(4) -0.6691(7) 0.1413(3)
H23 H 0.5765 -0.6149 0.1041
H24 H 0.6324 -0.6963 0.1513
C21 C 0.5645(4) -0.8810(7) 0.0968(3)
H25 H 0.6126 -0.9148 0.1188
H26 H 0.5806 -0.8436 0.0578
C22 C 0.5058(4) -0.9876(7) 0.0863(3)
H27 H 0.4570 -0.9524 0.0657
H28 H 0.5285 -1.0555 0.0599
C23 C 0.4191(4) -1.1324(8) 0.1372(4)
H29 H 0.4236 -1.1848 0.0998
H30 H 0.3689 -1.0814 0.1340
C24 C 0.4181(4) -1.2192(8) 0.1901(4)
H31 H 0.3723 -1.2802 0.1860
H32 H 0.4676 -1.2717 0.1926
O23 O 0.0211(2) -0.1904(4) -0.01920(18)
O24 O 0.5197(5) -0.5695(9) -0.0490(4)
O25 O 0.5257(3) -0.9308(5) 0.2465(2)
loop_
_geom_bond_atom_site_label_1
_geom_bond_atom_site_label_2
_geom_bond_site_symmetry_1
_geom_bond_site_symmetry_2
U1 F1 1_555 1_555
U2 F1 1_555 1_555
P1 O5 1_555 1_555
P2 O8 1_555 1_555
P3 O11 1_555 1_555
P4 O14 1_555 1_555
O1 U1 1_555 1_555
O2 U1 1_555 1_555
O3 U2 1_555 1_555
O4 U2 1_555 1_555
O6 U1 1_555 1_555
O7 P1 1_555 1_555
O8 U1A 1_555 1_555
O9 P2 1_555 1_555
O10 P2 1_555 1_555
O12 U1 1_555 1_555
O13 P3 1_555 1_555
O14 U1A_2 1_555 1_555
O15 P4 1_555 1_555
O16 P4 1_555 1_555
O17 C14 1_555 1_555
O18 C16 1_555 1_555
O19 C18 1_555 1_555
O20 C20 1_555 1_555
O21 C22 1_555 1_555
O22 C13 1_555 1_555
C1 P1 1_555 1_555
C2 C1 1_555 1_555
H1 C2 1_555 1_555
C3 C2 1_555 1_555
H2 C3 1_555 1_555
C4 P2 1_555 1_555
C5 C4 1_555 1_555
H3 C5 1_555 1_555
C6 C1 1_555 1_555
H4 C6 1_555 1_555
C7 P3 1_555 1_555
C8 C7 1_555 1_555
H5 C8 1_555 1_555
C9 C8 1_555 1_555
H6 C9 1_555 1_555
C10 P4 1_555 1_555
C11 C10 1_555 1_555
H7 C11 1_555 1_555
C12 C7 1_555 1_555
H8 C12 1_555 1_555
C13 H9 1_555 1_555
H10 C13 1_555 1_555
C14 C13 1_555 1_555
H11 C14 1_555 1_555
H12 C14 1_555 1_555
C15 O17 1_555 1_555
H13 C15 1_555 1_555
H14 C15 1_555 1_555
C16 C15 1_555 1_555
H15 C16 1_555 1_555
H16 C16 1_555 1_555
C17 O18 1_555 1_555
H17 C17 1_555 1_555
H18 C17 1_555 1_555
C18 C17 1_555 1_555
H19 C18 1_555 1_555
H20 C18 1_555 1_555
C19 O19 1_555 1_555
H21 C19 1_555 1_555
H22 C19 1_555 1_555
C20 C19 1_555 1_555
H23 C20 1_555 1_555
H24 C20 1_555 1_555
C21 O20 1_555 1_555
H25 C21 1_555 1_555
H26 C21 1_555 1_555
C22 C21 1_555 1_555
H27 C22 1_555 1_555
H28 C22 1_555 1_555
C23 O21 1_555 1_555
H29 C23 1_555 1_555
H30 C23 1_555 1_555
C24 O22 1_555 1_555
H31 C24 1_555 1_555
H32 C24 1_555 1_555
U2_2 O7 1_555 1_555
U2A O10 1_555 1_555
U2A_2 O16 1_555 1_555
O7_2 U2 1_555 1_555
O8A U1 1_555 1_555
O10A U2 1_555 1_555
O13_2 U2 1_555 1_555
O14A U1 1_555 1_555
O16A U2 1_555 1_555
P1 O6 1_555 1_555
P3 O12 1_555 1_555
O13 U2_2 1_555 1_555
C3 C4 1_555 1_555
C5 C6 1_555 1_555
C9 C10 1_555 1_555
C11 C12 1_555 1_555
C23 C24 1_555 1_555

#END
