
#######################################################################
#
#                 Cambridge Crystallographic Data Centre
#                                CCDC 
#
#######################################################################
#
# If this CIF has been generated from an entry in the Cambridge 
# Structural Database, then it will include bibliographic, chemical, 
# crystal, experimental, refinement or atomic coordinate data resulting 
# from the CCDC's data processing and validation procedures.
#
#######################################################################

data_UZUSEO
_symmetry_cell_setting           triclinic
_symmetry_space_group_name_H-M   'P -1'
_symmetry_Int_Tables_number      2
_space_group_name_Hall           '-P 1'
loop_
_symmetry_equiv_pos_site_id
_symmetry_equiv_pos_as_xyz
1 x,y,z
2 -x,-y,-z
_cell_length_a                   10.089(3)
_cell_length_b                   11.712(4)
_cell_length_c                   11.803(4)
_cell_angle_alpha                111.964(4)
_cell_angle_beta                 107.146(4)
_cell_angle_gamma                105.977(4)
_cell_volume                     1112.88
loop_
_atom_site_label
_atom_site_type_symbol
_atom_site_fract_x
_atom_site_fract_y
_atom_site_fract_z
O13 O 0.482(3) 0.813(2) 0.404(2)
C10 C 0.317(5) 0.905(4) 0.313(4)
C11 C 0.377(5) 0.831(4) 0.275(5)
C12 C 0.385(7) 0.777(5) 0.451(5)
C13 C 0.447(6) 0.838(5) 0.578(5)
O15 O 0.407(3) 0.928(3) 0.613(3)
O14 O 1.0000 0.0000 0.5000
U1 U 1.0000 0.0000 0.0000
U2 U 1.0000 0.5000 0.5000
U3 U 0.5000 -0.5000 0.0000
P1 P 0.8893(5) -0.2656(4) 0.0908(5)
P2 P 0.8435(5) 0.1444(4) 0.2342(4)
P3 P 0.6971(5) 0.5922(5) 0.3570(4)
O1 O 0.8144(13) -0.0447(15) -0.1160(15)
O2 O 0.8644(14) 0.4352(13) 0.5499(13)
O3 O 0.5718(13) -0.6153(11) -0.0630(13)
O4 O 0.9011(17) -0.1949(12) 0.0065(15)
O5 O 0.7300(13) -0.3204(11) 0.0761(13)
O6 O 1.0039(17) -0.1672(14) 0.2475(14)
O7 O 0.9500(12) 0.1065(12) 0.1784(12)
O8 O 0.8946(15) 0.2979(11) 0.3030(12)
O9 O 0.8334(17) 0.0871(16) 0.3326(13)
O10 O 0.8444(12) 0.5779(14) 0.3975(12)
O11 O 0.5981(14) 0.5086(12) 0.2033(11)
O12 O 0.7365(19) 0.7463(14) 0.4127(17)
C1 C 0.9500(15) -0.3976(13) 0.0392(16)
C2 C 0.9934(18) -0.4256(15) -0.0677(16)
H1 H 0.9913 -0.3747 -0.1121
C3 C 0.9608(18) -0.4707(15) 0.1061(18)
H2 H 0.9368 -0.4500 0.1794
C4 C 0.6497(16) 0.0638(14) 0.1008(15)
C5 C 0.5772(19) 0.1417(15) 0.0754(15)
H3 H 0.6276 0.2367 0.1264
C6 C 0.5730(19) -0.0754(15) 0.0282(16)
H4 H 0.6218 -0.1270 0.0481
C7 C 0.5856(16) 0.5391(15) 0.4373(15)
C8 C 0.6464(18) 0.6087(16) 0.5785(16)
H5 H 0.7431 0.6829 0.6306
C9 C 0.4367(17) 0.4323(15) 0.3587(15)
H6 H 0.3938 0.3890 0.2640
U1_2 U 1.0000 -1.0000 0.0000
U1_3 U 0.0000 0.0000 0.0000
U2_2 U 0.0000 -0.5000 -0.5000
U2_3 U 0.0000 0.5000 0.5000
U3_2 U 0.5000 0.5000 0.0000
U3_3 U 1.5000 -0.5000 0.0000
U3_4 U 0.5000 0.5000 1.0000
P1A P 1.1107(5) -0.7344(4) -0.0908(5)
P2A P 0.1565(5) -0.1444(4) -0.2342(4)
P3A P 0.3029(5) 0.4078(5) 0.6430(4)
O1A O 1.1856(13) 0.0447(15) 0.1160(15)
O2A O 1.1356(14) 0.5648(13) 0.4501(13)
O3A O 0.4282(13) -0.3847(11) 0.0630(13)
O4A O 1.0989(17) -0.8051(12) -0.0065(15)
O4A_2 O 1.0989(17) 0.1949(12) -0.0065(15)
O5A O 1.2700(13) -0.6796(11) -0.0761(13)
O5A_2 O 0.2700(13) -0.6796(11) -0.0761(13)
O6A O 0.9961(17) -0.8328(14) -0.2475(14)
O7A O 0.0500(12) -0.1065(12) -0.1784(12)
O7A_2 O 1.0500(12) -0.1065(12) -0.1784(12)
O8A O 0.1054(15) -0.2979(11) -0.3030(12)
O8A_2 O 1.1054(15) 0.7021(11) 0.6970(12)
O9A O 0.1666(17) -0.0871(16) -0.3326(13)
O10A O 0.1556(12) 0.4221(14) 0.6025(12)
O10A_2 O 1.1556(12) 0.4221(14) 0.6025(12)
O11A O 0.4019(14) 0.4914(12) 0.7967(11)
O11_2 O 0.5981(14) -0.4914(12) 0.2033(11)
O11A_2 O 0.4019(14) -0.5086(12) -0.2033(11)
O12A O 0.2635(19) 0.2537(14) 0.5873(17)
C1A C 1.0500(15) -0.6024(13) -0.0392(16)
C2A C 1.0066(18) -0.5744(15) 0.0677(16)
H1A H 1.0087 -0.6253 0.1121
C3A C 1.0392(18) -0.5293(15) -0.1061(18)
H2A H 1.0632 -0.5500 -0.1794
C4A C 0.3503(16) -0.0638(14) -0.1008(15)
C5A C 0.4228(19) -0.1417(15) -0.0754(15)
H3A H 0.3724 -0.2367 -0.1264
C6A C 0.4270(19) 0.0754(15) -0.0282(16)
H4A H 0.3782 0.1270 -0.0481
C7A C 0.4144(16) 0.4609(15) 0.5627(15)
C8A C 0.3536(18) 0.3913(16) 0.4215(16)
H5A H 0.2569 0.3171 0.3694
C9A C 0.5633(17) 0.5677(15) 0.6413(15)
H6A H 0.6062 0.6110 0.7360
loop_
_geom_bond_atom_site_label_1
_geom_bond_atom_site_label_2
_geom_bond_site_symmetry_1
_geom_bond_site_symmetry_2
U1 O1 1_555 1_555
U2 O2 1_555 1_555
U3 O3 1_555 1_555
P1 O4 1_555 1_555
P2 O7 1_555 1_555
P3 O10 1_555 1_555
O4 U1 1_555 1_555
O5 U3 1_555 1_555
O6 P1 1_555 1_555
O7 U1 1_555 1_555
O8 U2 1_555 1_555
O9 P2 1_555 1_555
O10 U2 1_555 1_555
O11 P3 1_555 1_555
O12 P3 1_555 1_555
O13 C11 1_555 1_555
C1 P1 1_555 1_555
C2 C1 1_555 1_555
H1 C2 1_555 1_555
C3 C1 1_555 1_555
H2 C3 1_555 1_555
C4 P2 1_555 1_555
C5 C4 1_555 1_555
H3 C5 1_555 1_555
C6 C4 1_555 1_555
H4 C6 1_555 1_555
C7 P3 1_555 1_555
C8 C7 1_555 1_555
H5 C8 1_555 1_555
C9 C7 1_555 1_555
H6 C9 1_555 1_555
C10 C11 1_555 1_555
C12 O13 1_555 1_555
C13 C12 1_555 1_555
O15 C13 1_555 1_555
U1_2 O4A 1_555 1_555
U1_3 O7A 1_555 1_555
U2_2 O8A 1_555 1_555
U2_3 O10A 1_555 1_555
U3_2 O11 1_555 1_555
U3_3 O5A 1_555 1_555
U3_4 O11A 1_555 1_555
P1A O4A 1_555 1_555
P2A O7A 1_555 1_555
P3A O10A 1_555 1_555
O1A U1 1_555 1_555
O2A U2 1_555 1_555
O3A U3 1_555 1_555
O4A_2 U1 1_555 1_555
O5A P1A 1_555 1_555
O5A_2 U3 1_555 1_555
O6A P1A 1_555 1_555
O7A_2 U1 1_555 1_555
O8A P2A 1_555 1_555
O8A_2 U2 1_555 1_555
O9A P2A 1_555 1_555
O10A_2 U2 1_555 1_555
O11A P3A 1_555 1_555
O11_2 U3 1_555 1_555
O11A_2 U3 1_555 1_555
O12A P3A 1_555 1_555
C1A P1A 1_555 1_555
C2A C3 1_555 1_555
H1A C2A 1_555 1_555
C3A C2 1_555 1_555
H2A C3A 1_555 1_555
C4A P2A 1_555 1_555
C5A C6 1_555 1_555
H3A C5A 1_555 1_555
C6A C5 1_555 1_555
H4A C6A 1_555 1_555
C7A P3A 1_555 1_555
C8A C9 1_555 1_555
H5A C8A 1_555 1_555
C9A C8 1_555 1_555
H6A C9A 1_555 1_555
P1 O5 1_555 1_555
P2 O8 1_555 1_555
C1A C2A 1_555 1_555
C1A C3A 1_555 1_555
C4A C5A 1_555 1_555
C4A C6A 1_555 1_555
C7A C8A 1_555 1_555
C7A C9A 1_555 1_555

#END
