
#######################################################################
#
#                 Cambridge Crystallographic Data Centre
#                                CCDC 
#
#######################################################################
#
# If this CIF has been generated from an entry in the Cambridge 
# Structural Database, then it will include bibliographic, chemical, 
# crystal, experimental, refinement or atomic coordinate data resulting 
# from the CCDC's data processing and validation procedures.
#
#######################################################################

data_UZUSIS
_symmetry_cell_setting           triclinic
_symmetry_space_group_name_H-M   'P -1'
_symmetry_Int_Tables_number      2
_space_group_name_Hall           '-P 1'
loop_
_symmetry_equiv_pos_site_id
_symmetry_equiv_pos_as_xyz
1 x,y,z
2 -x,-y,-z
_cell_length_a                   10.1004(16)
_cell_length_b                   10.6811(17)
_cell_length_c                   19.156(3)
_cell_angle_alpha                74.492(2)
_cell_angle_beta                 84.033(2)
_cell_angle_gamma                87.646(2)
_cell_volume                     1980.4
loop_
_atom_site_label
_atom_site_type_symbol
_atom_site_fract_x
_atom_site_fract_y
_atom_site_fract_z
U1 U 0.71602(5) 0.06110(5) 0.21946(3)
U2 U 0.29958(5) 0.06432(5) 0.20588(3)
P1 P 0.4805(3) -0.1173(3) 0.36430(19)
P2 P 0.9944(3) -0.0087(3) 0.33493(18)
P3 P 1.0092(3) 0.2129(3) 0.10570(18)
P4 P 0.5430(3) 0.1920(3) 0.05273(17)
F1 F 0.5177(7) -0.0203(6) 0.1982(4)
O1 O 0.8010(8) -0.0649(8) 0.1882(4)
O2 O 0.6310(8) 0.1858(8) 0.2527(4)
O3 O 0.2481(8) -0.0782(8) 0.1874(4)
O4 O 0.3476(8) 0.2099(8) 0.2242(4)
O5 O 0.6174(8) -0.1025(8) 0.3236(4)
O6 O 0.4519(8) -0.2668(8) 0.3956(4)
O7 O 0.3671(8) -0.0502(8) 0.3237(5)
O8 O 0.8586(8) 0.0399(8) 0.3103(4)
O9 O 1.1126(8) 0.0660(8) 0.2906(4)
O10 O 1.0141(8) -0.1587(8) 0.3370(5)
O11 O 0.8914(7) 0.2035(8) 0.1626(4)
O12 O 1.1430(8) 0.1917(8) 0.1345(4)
O13 O 0.9925(8) 0.1131(8) 0.0581(5)
O14 O 0.4082(8) 0.1343(8) 0.0865(4)
O15 O 0.5892(8) 0.1421(8) -0.0173(5)
O16 O 0.6561(8) 0.1620(8) 0.1010(4)
C1 C 0.4878(13) -0.0539(13) 0.4407(7)
C2 C 0.5004(12) -0.1324(13) 0.5107(7)
H1 H 0.5015 -0.2242 0.5188
C3 C 0.4886(12) 0.0798(13) 0.4305(7)
H2 H 0.4817 0.1361 0.3834
C4 C 0.9955(12) -0.0029(11) 0.4272(6)
C5 C 0.8799(13) 0.0049(12) 0.4711(7)
H3 H 0.7964 0.0096 0.4517
C6 C 1.1162(12) -0.0059(11) 0.4563(7)
H4 H 1.1971 -0.0087 0.4266
C7 C 1.0022(12) 0.3744(12) 0.0455(7)
C8 C 0.8840(13) 0.4369(13) 0.0337(7)
H5 H 0.8038 0.3949 0.0569
C9 C 1.1212(13) 0.4395(13) 0.0115(7)
H6 H 1.2049 0.3973 0.0200
C10 C 0.5198(12) 0.3634(12) 0.0228(7)
C11 C 0.5148(12) 0.4372(12) 0.0740(7)
H7 H 0.5263 0.3959 0.1235
C12 C 0.5072(12) 0.4279(11) -0.0515(6)
H8 H 0.5138 0.3790 -0.0865
U1A U 0.28398(5) -0.06110(5) 0.78054(3)
U1A_2 U 1.28398(5) -0.06110(5) 0.78054(3)
U1A_3 U 1.28398(5) 0.93890(5) -0.21946(3)
U1A_4 U 0.28398(5) 0.93890(5) -0.21946(3)
U2A U 0.70042(5) -0.06432(5) 0.79412(3)
U2_2 U 1.29958(5) 0.06432(5) 0.20588(3)
U2A_2 U 0.70042(5) 0.93568(5) -0.20588(3)
P1A P 0.5195(3) 0.1173(3) 0.63570(19)
P2A P 1.0056(3) 0.0087(3) 0.66507(18)
P3A P 0.9908(3) 0.7871(3) -0.10570(18)
P4A P 0.4570(3) 0.8080(3) -0.05273(17)
F1A F 0.4823(7) 0.0203(6) 0.8018(4)
O1A O 0.1990(8) 0.0649(8) 0.8118(4)
O2A O 0.3690(8) -0.1858(8) 0.7473(4)
O3A O 0.7519(8) 0.0782(8) 0.8126(4)
O4A O 0.6524(8) -0.2099(8) 0.7758(4)
O5A O 0.3826(8) 0.1025(8) 0.6764(4)
O6A O 0.5481(8) 0.2668(8) 0.6044(4)
O7A O 0.6329(8) 0.0502(8) 0.6763(5)
O8A O 1.1414(8) -0.0399(8) 0.6897(4)
O8A_2 O 0.1414(8) -0.0399(8) 0.6897(4)
O9A O 0.8874(8) -0.0660(8) 0.7094(4)
O9_2 O 0.1126(8) 0.0660(8) 0.2906(4)
O10A O 0.9859(8) 0.1587(8) 0.6630(5)
O11A O 1.1086(7) 0.7965(8) -0.1626(4)
O11A_2 O 0.1086(7) -0.2035(8) 0.8374(4)
O12A O 0.8570(8) 0.8083(8) -0.1345(4)
O12_2 O 0.1430(8) 0.1917(8) 0.1345(4)
O12A_2 O 0.8570(8) -0.1917(8) 0.8655(4)
O13A O 1.0075(8) 0.8869(8) -0.0581(5)
O14A O 0.5918(8) 0.8657(8) -0.0865(4)
O14A_2 O 0.5918(8) -0.1343(8) 0.9135(4)
O15A O 0.4108(8) 0.8579(8) 0.0173(5)
O16A O 0.3439(8) 0.8380(8) -0.1010(4)
O16A_2 O 0.3439(8) -0.1620(8) 0.8990(4)
C1A C 0.5122(13) 0.0539(13) 0.5593(7)
C2A C 0.4996(12) 0.1324(13) 0.4893(7)
H1A H 0.4985 0.2242 0.4812
C3A C 0.5114(12) -0.0798(13) 0.5695(7)
H2A H 0.5183 -0.1361 0.6166
C4A C 1.0045(12) 0.0029(11) 0.5728(6)
C5A C 1.1201(13) -0.0049(12) 0.5289(7)
H3A H 1.2036 -0.0096 0.5483
C6A C 0.8838(12) 0.0059(11) 0.5437(7)
H4A H 0.8029 0.0087 0.5734
C7A C 0.9978(12) 0.6256(12) -0.0455(7)
C8A C 1.1160(13) 0.5631(13) -0.0337(7)
H5A H 1.1962 0.6051 -0.0569
C9A C 0.8788(13) 0.5605(13) -0.0115(7)
H6A H 0.7951 0.6027 -0.0200
C10A C 0.4802(12) 0.6366(12) -0.0228(7)
C11A C 0.4852(12) 0.5628(12) -0.0740(7)
H7A H 0.4737 0.6041 -0.1235
C12A C 0.4928(12) 0.5721(11) 0.0515(6)
H8A H 0.4862 0.6210 0.0865
O17 O 0.7984(9) -0.5074(9) 0.2971(5)
O18 O 0.9642(9) -0.6655(9) 0.3933(5)
O19 O 1.2039(9) -0.5398(8) 0.3504(5)
O20 O 1.2378(10) -0.4513(9) 0.1941(5)
O21 O 0.9666(9) -0.4089(9) 0.1678(5)
C13 C 0.8302(15) -0.3743(14) 0.1767(8)
H9 H 0.7940 -0.3497 0.1287
H10 H 0.8205 -0.2986 0.1974
C14 C 0.7538(16) -0.4868(15) 0.2264(8)
H11 H 0.6571 -0.4669 0.2282
H12 H 0.7705 -0.5657 0.2088
C15 C 0.7507(15) -0.6238(13) 0.3485(7)
H13 H 0.7658 -0.6990 0.3275
H14 H 0.6542 -0.6158 0.3625
C16 C 0.8293(14) -0.6415(14) 0.4148(8)
H15 H 0.8214 -0.5622 0.4324
H16 H 0.7938 -0.7155 0.4547
C17 C 1.0539(14) -0.6567(14) 0.4463(8)
H17 H 1.0433 -0.7326 0.4893
H18 H 1.0348 -0.5767 0.4625
C18 C 1.1915(13) -0.6540(14) 0.4096(8)
H19 H 1.2571 -0.6532 0.4444
H20 H 1.2086 -0.7323 0.3914
C19 C 1.3312(15) -0.5260(15) 0.3079(8)
H21 H 1.3555 -0.6063 0.2928
H22 H 1.4011 -0.5090 0.3367
C20 C 1.3184(14) -0.4135(13) 0.2424(7)
H23 H 1.2767 -0.3383 0.2576
H24 H 1.4077 -0.3877 0.2172
C21 C 1.1901(14) -0.3467(14) 0.1377(8)
H25 H 1.1911 -0.3755 0.0926
H26 H 1.2511 -0.2724 0.1275
C22 C 1.0548(13) -0.3034(13) 0.1571(8)
H27 H 1.0522 -0.2745 0.2022
H28 H 1.0273 -0.2293 0.1176
O22 O 1.0533(10) 0.3443(10) 0.2478(5)
O23 O 1.2043(9) -0.3291(9) 0.4060(5)
O24 O 1.5824(9) -0.1711(8) 0.1082(5)
O25 O 0.8081(9) -0.2958(8) 0.3592(5)
O26 O 0.8055(8) -0.0356(8) 0.0143(5)
loop_
_geom_bond_atom_site_label_1
_geom_bond_atom_site_label_2
_geom_bond_site_symmetry_1
_geom_bond_site_symmetry_2
U1 F1 1_555 1_555
U2 F1 1_555 1_555
P1 O5 1_555 1_555
P2 O8 1_555 1_555
P3 O11 1_555 1_555
P4 O14 1_555 1_555
O1 U1 1_555 1_555
O2 U1 1_555 1_555
O3 U2 1_555 1_555
O4 U2 1_555 1_555
O5 U1 1_555 1_555
O6 P1 1_555 1_555
O7 U2 1_555 1_555
O8 U1 1_555 1_555
O9 P2 1_555 1_555
O10 P2 1_555 1_555
O11 U1 1_555 1_555
O12 P3 1_555 1_555
O13 P3 1_555 1_555
O14 U2 1_555 1_555
O15 P4 1_555 1_555
O16 U1 1_555 1_555
O17 C14 1_555 1_555
O18 C16 1_555 1_555
O19 C18 1_555 1_555
O20 C20 1_555 1_555
O21 C13 1_555 1_555
C1 P1 1_555 1_555
C2 C1 1_555 1_555
H1 C2 1_555 1_555
C3 C1 1_555 1_555
H2 C3 1_555 1_555
C4 P2 1_555 1_555
C5 C4 1_555 1_555
H3 C5 1_555 1_555
C6 C4 1_555 1_555
H4 C6 1_555 1_555
C7 P3 1_555 1_555
C8 C7 1_555 1_555
H5 C8 1_555 1_555
C9 C7 1_555 1_555
H6 C9 1_555 1_555
C10 P4 1_555 1_555
C11 C10 1_555 1_555
H7 C11 1_555 1_555
C12 C10 1_555 1_555
H8 C12 1_555 1_555
C13 H9 1_555 1_555
H10 C13 1_555 1_555
C14 C13 1_555 1_555
H11 C14 1_555 1_555
H12 C14 1_555 1_555
C15 O17 1_555 1_555
H13 C15 1_555 1_555
H14 C15 1_555 1_555
C16 C15 1_555 1_555
H15 C16 1_555 1_555
H16 C16 1_555 1_555
C17 O18 1_555 1_555
H17 C17 1_555 1_555
H18 C17 1_555 1_555
C18 C17 1_555 1_555
H19 C18 1_555 1_555
H20 C18 1_555 1_555
C19 O19 1_555 1_555
H21 C19 1_555 1_555
H22 C19 1_555 1_555
C20 C19 1_555 1_555
H23 C20 1_555 1_555
H24 C20 1_555 1_555
C21 O20 1_555 1_555
H25 C21 1_555 1_555
H26 C21 1_555 1_555
C22 O21 1_555 1_555
H27 C22 1_555 1_555
H28 C22 1_555 1_555
U1A F1A 1_555 1_555
U1A_2 O8A 1_555 1_555
U1A_3 O11A 1_555 1_555
U1A_4 O16A 1_555 1_555
U2A F1A 1_555 1_555
U2_2 O9 1_555 1_555
U2A_2 O12A 1_555 1_555
P1A O5A 1_555 1_555
P2A O8A 1_555 1_555
P3A O11A 1_555 1_555
P4A O14A 1_555 1_555
O1A U1A 1_555 1_555
O2A U1A 1_555 1_555
O3A U2A 1_555 1_555
O4A U2A 1_555 1_555
O5A U1A 1_555 1_555
O6A P1A 1_555 1_555
O7A U2A 1_555 1_555
O8A_2 U1A 1_555 1_555
O9A U2A 1_555 1_555
O9_2 U2 1_555 1_555
O10A P2A 1_555 1_555
O11A_2 U1A 1_555 1_555
O12A P3A 1_555 1_555
O12_2 U2 1_555 1_555
O12A_2 U2A 1_555 1_555
O13A P3A 1_555 1_555
O14A U2A_2 1_555 1_555
O14A_2 U2A 1_555 1_555
O15A P4A 1_555 1_555
O16A P4A 1_555 1_555
O16A_2 U1A 1_555 1_555
C1A P1A 1_555 1_555
C2A C3 1_555 1_555
H1A C2A 1_555 1_555
C3A C2 1_555 1_555
H2A C3A 1_555 1_555
C4A P2A 1_555 1_555
C5A C6 1_555 1_555
H3A C5A 1_555 1_555
C6A C5 1_555 1_555
H4A C6A 1_555 1_555
C7A P3A 1_555 1_555
C8A C9 1_555 1_555
H5A C8A 1_555 1_555
C9A C8 1_555 1_555
H6A C9A 1_555 1_555
C10A P4A 1_555 1_555
C11A C12 1_555 1_555
H7A C11A 1_555 1_555
C12A C11 1_555 1_555
H8A C12A 1_555 1_555
P1 O7 1_555 1_555
P4 O16 1_555 1_555
O12 U2_2 1_555 1_555
C21 C22 1_555 1_555
P1A O7A 1_555 1_555
P2A O9A 1_555 1_555
C1A C2A 1_555 1_555
C1A C3A 1_555 1_555
C4A C5A 1_555 1_555
C4A C6A 1_555 1_555
C7A C8A 1_555 1_555
C7A C9A 1_555 1_555
C10A C11A 1_555 1_555
C10A C12A 1_555 1_555

#END
