
#######################################################################
#
#                 Cambridge Crystallographic Data Centre
#                                CCDC 
#
#######################################################################
#
# If this CIF has been generated from an entry in the Cambridge 
# Structural Database, then it will include bibliographic, chemical, 
# crystal, experimental, refinement or atomic coordinate data resulting 
# from the CCDC's data processing and validation procedures.
#
#######################################################################

data_UZUTAL
_symmetry_cell_setting           monoclinic
_symmetry_space_group_name_H-M   'C 2/c'
_symmetry_Int_Tables_number      15
_space_group_name_Hall           '-C 2yn'
loop_
_symmetry_equiv_pos_site_id
_symmetry_equiv_pos_as_xyz
1 x,y,z
2 -x,y,1/2-z
3 1/2+x,1/2+y,z
4 1/2-x,1/2+y,1/2-z
5 -x,-y,-z
6 x,-y,1/2+z
7 1/2-x,1/2-y,-z
8 1/2+x,1/2-y,1/2+z
_cell_length_a                   33.243(7)
_cell_length_b                   13.339(3)
_cell_length_c                   24.388(6)
_cell_angle_alpha                90
_cell_angle_beta                 116.413(8)
_cell_angle_gamma                90
_cell_volume                     9685.43
loop_
_atom_site_label
_atom_site_type_symbol
_atom_site_fract_x
_atom_site_fract_y
_atom_site_fract_z
Ag1 Ag 0.161254(16) 0.84508(4) 0.44000(2)
P1 P 0.16774(5) 0.97322(13) 0.37143(7)
P2 P -0.10038(5) 0.77261(14) 0.04027(7)
C1 C 0.11334(19) 0.9893(4) 0.3051(3)
C2 C 0.0943(2) 1.0847(5) 0.2871(3)
H1 H 0.1104 1.1415 0.3084
C3 C 0.0521(2) 1.0970(4) 0.2384(3)
H2 H 0.0401 1.1618 0.2273
C4 C -0.01610(19) 1.0251(5) 0.1554(3)
H3 H -0.0288 1.0892 0.1439
C5 C -0.03922(18) 0.9458(4) 0.1243(2)
H4 H -0.0677 0.9556 0.0912
C6 C -0.0452(2) 0.7604(5) 0.1055(3)
C7 C -0.0268(3) 0.6652(5) 0.1258(4)
H5 H -0.0428 0.6085 0.1041
C8 C 0.0133(3) 0.6520(5) 0.1758(4)
H6 H 0.0241 0.5867 0.1884
C9 C 0.0824(2) 0.7247(5) 0.2587(3)
H7 H 0.0946 0.6602 0.2710
C10 C 0.1065(2) 0.8039(5) 0.2884(3)
H8 H 0.1354 0.7939 0.3203
C11 C 0.04579(18) 0.9172(4) 0.2232(2)
C12 C 0.0205(2) 0.8330(4) 0.1902(3)
C13 C 0.02757(19) 1.0160(4) 0.2061(3)
C14 C -0.02183(19) 0.8448(4) 0.1397(3)
C15 C 0.0388(2) 0.7343(5) 0.2088(3)
C16 C 0.08937(18) 0.9049(4) 0.2732(2)
C17 C 0.2057(2) 0.9466(5) 0.3380(3)
C18 C 0.2464(2) 0.9034(6) 0.3747(3)
H9 H 0.2535 0.8861 0.4153
C19 C 0.2766(3) 0.8854(8) 0.3516(4)
H10 H 0.3047 0.8571 0.3772
C20 C 0.2669(3) 0.9074(9) 0.2930(5)
H11 H 0.2883 0.8968 0.2782
C21 C 0.2255(3) 0.9456(12) 0.2556(4)
H12 H 0.2176 0.9575 0.2140
C22 C 0.1957(3) 0.9662(9) 0.2782(4)
H13 H 0.1677 0.9946 0.2524
C23 C 0.1823(2) 1.0992(6) 0.4022(4)
C24 C 0.2022(4) 1.1672(7) 0.3786(5)
H14 H 0.2092 1.1477 0.3469
C25 C 0.2117(5) 1.2650(10) 0.4021(8)
H15 H 0.2257 1.3106 0.3867
C26 C 0.2008(5) 1.2933(12) 0.4463(9)
H16 H 0.2070 1.3593 0.4612
C27 C 0.1811(5) 1.2302(12) 0.4699(8)
H17 H 0.1732 1.2523 0.5004
C28 C 0.1722(3) 1.1285(8) 0.4481(5)
H18 H 0.1595 1.0828 0.4654
C29 C -0.1113(2) 0.6474(6) 0.0082(3)
C30 C -0.1418(3) 0.5893(6) 0.0175(4)
H19 H -0.1571 0.6155 0.0388
C31 C -0.1499(4) 0.4917(8) -0.0045(6)
H20 H -0.1700 0.4517 0.0033
C32 C -0.1303(4) 0.4537(8) -0.0359(6)
H21 H -0.1367 0.3877 -0.0507
C33 C -0.1002(5) 0.5107(9) -0.0472(6)
H22 H -0.0866 0.4840 -0.0705
C34 C -0.0896(4) 0.6095(8) -0.0236(5)
H23 H -0.0683 0.6480 -0.0298
C35 C -0.0914(2) 0.8428(6) -0.0171(3)
C36 C -0.1295(3) 0.8721(10) -0.0677(4)
H24 H -0.1580 0.8606 -0.0696
C37 C -0.1256(4) 0.9185(15) -0.1157(5)
H25 H -0.1517 0.9344 -0.1513
C38 C -0.0851(4) 0.9419(11) -0.1127(5)
H26 H -0.0833 0.9768 -0.1450
C39 C -0.0481(3) 0.9150(8) -0.0639(4)
H27 H -0.0199 0.9316 -0.0617
C40 C -0.0502(3) 0.8627(6) -0.0157(4)
H28 H -0.0237 0.8410 0.0176
S1 S 0.26421(5) 0.86663(13) 0.56710(7)
O1 O 0.22201(16) 0.8143(4) 0.5417(2)
O2 O 0.26715(19) 0.9483(4) 0.5305(3)
O3 O 0.30232(16) 0.8012(4) 0.5932(2)
C41 C 0.2644(3) 0.9290(8) 0.6333(4)
F1 F 0.2319(2) 0.9968(4) 0.6165(3)
F2 F 0.2583(3) 0.8637(5) 0.6693(3)
F3 F 0.3021(2) 0.9754(6) 0.6657(3)
Ag1A Ag -0.161254(16) 0.84508(4) 0.06000(2)
Ag1F Ag 0.338746(16) 0.65492(4) 0.56000(2)
P2A P 0.10038(5) 0.77261(14) 0.45973(7)
O3F O 0.19768(16) 0.6988(4) 0.4068(2)
O4 O 0.0780(7) 0.3649(13) 0.2655(7)
C42 C 0.0502(8) 0.3633(19) 0.3415(8)
H29 H 0.0220 0.3615 0.3045
H30 H 0.0476 0.4086 0.3708
H31 H 0.0574 0.2965 0.3590
C43 C 0.0867(7) 0.3989(19) 0.3262(8)
H32 H 0.0882 0.4723 0.3278
H33 H 0.1157 0.3727 0.3563
C44 C 0.1056(6) 0.372(2) 0.2332(11)
H34 H 0.1310 0.3253 0.2514
H35 H 0.1175 0.4399 0.2366
C45 C 0.0776(12) 0.346(2) 0.1673(10)
H36 H 0.0660 0.4068 0.1439
H37 H 0.0528 0.3035 0.1635
H38 H 0.0959 0.3104 0.1517
O5 O 0.1356(4) 0.2371(7) 0.6094(6)
C46 C 0.2078(6) 0.2985(19) 0.6803(9)
H39 H 0.2191 0.2412 0.6669
H40 H 0.2269 0.3107 0.7234
H41 H 0.2079 0.3571 0.6568
C47 C 0.1607(7) 0.2774(18) 0.6707(7)
H42 H 0.1611 0.2289 0.7011
H43 H 0.1465 0.3392 0.6752
C48 C 0.0886(5) 0.210(2) 0.5801(11)
H44 H 0.0701 0.2684 0.5778
H45 H 0.0827 0.1576 0.6038
C49 C 0.0770(9) 0.172(3) 0.5167(11)
H46 H 0.0563 0.2185 0.4868
H47 H 0.0630 0.1068 0.5111
H48 H 0.1041 0.1670 0.5114
loop_
_geom_bond_atom_site_label_1
_geom_bond_atom_site_label_2
_geom_bond_site_symmetry_1
_geom_bond_site_symmetry_2
Ag1 P1 1_555 1_555
P1 C1 1_555 1_555
P2 C6 1_555 1_555
C1 C2 1_555 1_555
C2 H1 1_555 1_555
C3 C2 1_555 1_555
H2 C3 1_555 1_555
C4 H3 1_555 1_555
C5 C4 1_555 1_555
H4 C5 1_555 1_555
C6 C7 1_555 1_555
C7 H5 1_555 1_555
C8 C7 1_555 1_555
H6 C8 1_555 1_555
C9 H7 1_555 1_555
C10 C9 1_555 1_555
H8 C10 1_555 1_555
C11 C12 1_555 1_555
C12 C14 1_555 1_555
C13 C3 1_555 1_555
C14 C5 1_555 1_555
C15 C8 1_555 1_555
C16 C1 1_555 1_555
C17 P1 1_555 1_555
C18 C17 1_555 1_555
H9 C18 1_555 1_555
C19 C18 1_555 1_555
H10 C19 1_555 1_555
C20 C19 1_555 1_555
H11 C20 1_555 1_555
C21 C20 1_555 1_555
H12 C21 1_555 1_555
C22 C17 1_555 1_555
H13 C22 1_555 1_555
C23 P1 1_555 1_555
C24 C23 1_555 1_555
H14 C24 1_555 1_555
C25 C24 1_555 1_555
H15 C25 1_555 1_555
C26 C25 1_555 1_555
H16 C26 1_555 1_555
C27 C26 1_555 1_555
H17 C27 1_555 1_555
C28 C23 1_555 1_555
H18 C28 1_555 1_555
C29 P2 1_555 1_555
C30 C29 1_555 1_555
H19 C30 1_555 1_555
C31 C30 1_555 1_555
H20 C31 1_555 1_555
C32 C31 1_555 1_555
H21 C32 1_555 1_555
C33 C32 1_555 1_555
H22 C33 1_555 1_555
C34 C29 1_555 1_555
H23 C34 1_555 1_555
C35 P2 1_555 1_555
C36 C35 1_555 1_555
H24 C36 1_555 1_555
C37 C36 1_555 1_555
H25 C37 1_555 1_555
C38 C37 1_555 1_555
H26 C38 1_555 1_555
C39 C38 1_555 1_555
H27 C39 1_555 1_555
C40 C35 1_555 1_555
H28 C40 1_555 1_555
S1 O1 1_555 1_555
O1 Ag1 1_555 1_555
O2 S1 1_555 1_555
O3 S1 1_555 1_555
C41 S1 1_555 1_555
F1 C41 1_555 1_555
F2 C41 1_555 1_555
F3 C41 1_555 1_555
O4 C43 1_555 1_555
C42 H29 1_555 1_555
H30 C42 1_555 1_555
H31 C42 1_555 1_555
C43 C42 1_555 1_555
H32 C43 1_555 1_555
H33 C43 1_555 1_555
C44 O4 1_555 1_555
H34 C44 1_555 1_555
H35 C44 1_555 1_555
C45 C44 1_555 1_555
H36 C45 1_555 1_555
H37 C45 1_555 1_555
H38 C45 1_555 1_555
O5 C47 1_555 1_555
C46 H39 1_555 1_555
H40 C46 1_555 1_555
H41 C46 1_555 1_555
C47 C46 1_555 1_555
H42 C47 1_555 1_555
H43 C47 1_555 1_555
C48 O5 1_555 1_555
H44 C48 1_555 1_555
H45 C48 1_555 1_555
C49 C48 1_555 1_555
H46 C49 1_555 1_555
H47 C49 1_555 1_555
H48 C49 1_555 1_555
Ag1A P2 1_555 1_555
Ag1F O3 1_555 1_555
P2A Ag1 1_555 1_555
O3F Ag1 1_555 1_555
C4 C13 1_555 1_555
C6 C14 1_555 1_555
C9 C15 1_555 1_555
C10 C16 1_555 1_555
C11 C13 1_555 1_555
C11 C16 1_555 1_555
C12 C15 1_555 1_555
C21 C22 1_555 1_555
C27 C28 1_555 1_555
C33 C34 1_555 1_555
C39 C40 1_555 1_555

#END
