
#######################################################################
#
#                 Cambridge Crystallographic Data Centre
#                                CCDC 
#
#######################################################################
#
# If this CIF has been generated from an entry in the Cambridge 
# Structural Database, then it will include bibliographic, chemical, 
# crystal, experimental, refinement or atomic coordinate data resulting 
# from the CCDC's data processing and validation procedures.
#
#######################################################################

data_UZUXIX
_symmetry_cell_setting           monoclinic
_symmetry_space_group_name_H-M   'C c'
_symmetry_Int_Tables_number      9
_space_group_name_Hall           'C -2yc'
loop_
_symmetry_equiv_pos_site_id
_symmetry_equiv_pos_as_xyz
1 x,y,z
2 x,-y,1/2+z
3 1/2+x,1/2+y,z
4 1/2+x,1/2-y,1/2+z
_cell_length_a                   12.4131(4)
_cell_length_b                   26.1746(8)
_cell_length_c                   8.7937(3)
_cell_angle_alpha                90
_cell_angle_beta                 91.7770(10)
_cell_angle_gamma                90
_cell_volume                     2855.77
loop_
_atom_site_label
_atom_site_type_symbol
_atom_site_fract_x
_atom_site_fract_y
_atom_site_fract_z
Cu1 Cu 0.47817(2) 0.109861(11) 0.45657(3)
Cu2 Cu 0.46445(2) 0.163145(11) 0.12204(3)
S1 S 0.30990(6) 0.11171(3) -0.33977(8)
S2 S 0.46528(6) 0.29044(3) 0.42305(11)
C1 C 0.30536(19) 0.08971(10) 0.2256(3)
C2 C 0.1361(2) 0.08182(11) 0.0798(3)
C3 C 0.2345(2) 0.16277(11) 0.0671(3)
C4 C 0.22678(19) 0.11045(10) 0.1225(3)
C5 C 0.5162(2) 0.00216(11) 0.5475(3)
C6 C 0.3648(2) 0.01550(11) 0.3857(3)
C7 C 0.6418(2) 0.23579(10) 0.0962(3)
C8 C 0.1198(2) 0.03250(11) 0.1304(4)
C9 C 0.1962(2) 0.01236(11) 0.2322(3)
C10 C 0.6343(2) 0.14520(10) 0.6911(3)
C11 C 0.6675(2) 0.06177(10) 0.6222(3)
C12 C 0.7201(2) 0.14565(12) 0.7942(3)
C13 C 0.6347(2) 0.01567(11) 0.5296(3)
C14 C 0.7808(2) 0.10156(11) 0.8126(3)
C15 C 0.5591(3) 0.29775(12) -0.1233(4)
C16 C 0.7540(2) 0.05964(11) 0.7251(3)
C17 C 0.2879(2) 0.04020(10) 0.2837(3)
C18 C 0.3828(3) 0.25091(13) -0.1163(4)
C19 C 0.4982(2) 0.25829(10) -0.0637(3)
C20 C 0.7050(2) 0.27423(12) 0.0408(3)
C21 C 0.3078(2) 0.24318(12) 0.0153(4)
N1 N 0.44799(17) 0.03584(8) 0.4519(2)
N2 N 0.31827(17) 0.19115(8) 0.0756(3)
N3 N 0.54044(17) 0.22702(8) 0.0444(2)
N4 N 0.60009(17) 0.12938(8) 0.1911(3)
N5 N 0.60749(16) 0.10433(8) 0.6047(2)
O1 O 0.39143(14) 0.11621(7) 0.2667(2)
N6 N 0.4870(2) 0.18463(8) 0.4498(3)
C22 C 0.4783(2) 0.22893(10) 0.4387(3)
C23 C 0.0202(2) 0.00263(12) 0.0761(5)
H1 H -0.0388 0.0114 0.1409
H2 H 0.0005 0.0139 -0.0261
C24 C 0.0313(3) -0.05432(13) 0.0744(5)
C25 C 0.6629(3) 0.30549(12) -0.0721(4)
H3 H 0.7043 0.3314 -0.1128
N7 N 0.44974(18) 0.11696(9) -0.0852(3)
H4 H 0.584(2) 0.1730(10) 0.679(3)
H5 H 0.3513(19) -0.0188(10) 0.404(3)
C26 C 0.3922(2) 0.11465(10) -0.1920(3)
C27 C 0.6873(2) 0.11515(10) 0.2172(3)
S3 S 0.80989(6) 0.09598(3) 0.25619(9)
H6 H 0.682(2) -0.0146(11) 0.556(3)
H7 H 0.668(2) 0.2152(10) 0.182(3)
H8 H 0.088(3) 0.0974(12) 0.013(4)
H9 H 0.501(2) -0.0347(11) 0.524(3)
H10 H 0.5003(18) 0.0088(9) 0.656(3)
H11 H 0.651(2) 0.0219(10) 0.413(3)
H12 H 0.793(3) 0.0272(13) 0.728(4)
H13 H 0.732(2) 0.1748(11) 0.849(3)
H14 H 0.835(2) 0.1012(10) 0.884(3)
H15 H 0.196(2) -0.0188(13) 0.277(4)
H16 H 0.173(2) 0.1760(10) 0.029(3)
H17 H 0.230(3) 0.2469(11) -0.027(3)
H18 H 0.320(2) 0.2663(11) 0.097(3)
H19 H 0.775(2) 0.2800(11) 0.083(3)
H20 H 0.530(2) 0.3146(11) -0.192(4)
H21 H 0.385(2) 0.2196(12) -0.182(3)
H22 H 0.361(2) 0.2792(12) -0.173(3)
H23 H 0.038(3) -0.0657(14) 0.194(4)
H24 H -0.029(3) -0.0718(13) 0.044(4)
H25 H 0.090(3) -0.0616(15) 0.002(5)
Cu1_2 Cu 0.47817(2) 0.109861(11) -0.54343(3)
S1_2 S 0.30990(6) 0.11171(3) 0.66023(8)
loop_
_geom_bond_atom_site_label_1
_geom_bond_atom_site_label_2
_geom_bond_site_symmetry_1
_geom_bond_site_symmetry_2
Cu1 N1 1_555 1_555
Cu2 N2 1_555 1_555
S1 C26 1_555 1_555
S2 C22 1_555 1_555
C1 C4 1_555 1_555
C2 C4 1_555 1_555
C3 C4 1_555 1_555
C5 C13 1_555 1_555
C6 C17 1_555 1_555
C7 C20 1_555 1_555
C8 C2 1_555 1_555
C9 C8 1_555 1_555
C10 C12 1_555 1_555
C11 C13 1_555 1_555
C12 C14 1_555 1_555
C13 H6 1_555 1_555
C14 C16 1_555 1_555
C15 C19 1_555 1_555
C16 C11 1_555 1_555
C17 C1 1_555 1_555
C18 C19 1_555 1_555
C19 N3 1_555 1_555
C20 C25 1_555 1_555
C21 C18 1_555 1_555
N1 C5 1_555 1_555
N2 C3 1_555 1_555
N3 Cu2 1_555 1_555
N4 Cu2 1_555 1_555
N5 Cu1 1_555 1_555
O1 Cu1 1_555 1_555
N6 Cu1 1_555 1_555
C22 N6 1_555 1_555
C23 C8 1_555 1_555
H1 C23 1_555 1_555
H2 C23 1_555 1_555
C24 C23 1_555 1_555
C25 C15 1_555 1_555
H3 C25 1_555 1_555
N7 Cu2 1_555 1_555
H4 C10 1_555 1_555
H5 C6 1_555 1_555
C26 N7 1_555 1_555
C27 N4 1_555 1_555
S3 C27 1_555 1_555
H7 C7 1_555 1_555
H8 C2 1_555 1_555
H9 C5 1_555 1_555
H10 C5 1_555 1_555
H11 C13 1_555 1_555
H12 C16 1_555 1_555
H13 C12 1_555 1_555
H14 C14 1_555 1_555
H15 C9 1_555 1_555
H16 C3 1_555 1_555
H17 C21 1_555 1_555
H18 C21 1_555 1_555
H19 C20 1_555 1_555
H20 C15 1_555 1_555
H21 C18 1_555 1_555
H22 C18 1_555 1_555
H23 C24 1_555 1_555
H24 C24 1_555 1_555
H25 C24 1_555 1_555
Cu1_2 S1 1_555 1_555
S1_2 Cu1 1_555 1_555
Cu2 O1 1_555 1_555
C1 O1 1_555 1_555
C6 N1 1_555 1_555
C7 N3 1_555 1_555
C9 C17 1_555 1_555
C10 N5 1_555 1_555
C11 N5 1_555 1_555
C21 N2 1_555 1_555

#END
