
#######################################################################
#
#                 Cambridge Crystallographic Data Centre
#                                CCDC 
#
#######################################################################
#
# If this CIF has been generated from an entry in the Cambridge 
# Structural Database, then it will include bibliographic, chemical, 
# crystal, experimental, refinement or atomic coordinate data resulting 
# from the CCDC's data processing and validation procedures.
#
#######################################################################

data_UZUZOF
_symmetry_cell_setting           orthorhombic
_symmetry_space_group_name_H-M   'P 21 21 21'
_symmetry_Int_Tables_number      19
_space_group_name_Hall           'P 2ac 2ab'
loop_
_symmetry_equiv_pos_site_id
_symmetry_equiv_pos_as_xyz
1 x,y,z
2 1/2-x,-y,1/2+z
3 -x,1/2+y,1/2-z
4 1/2+x,1/2-y,-z
_cell_length_a                   8.1331(6)
_cell_length_b                   14.6556(10)
_cell_length_c                   16.8257(12)
_cell_angle_alpha                90
_cell_angle_beta                 90
_cell_angle_gamma                90
_cell_volume                     2005.55
loop_
_atom_site_label
_atom_site_type_symbol
_atom_site_fract_x
_atom_site_fract_y
_atom_site_fract_z
Zn1 Zn 0.56025(4) 0.472488(18) 0.954753(17)
S1 S 0.16898(10) 0.13599(5) 1.21019(4)
O1 O 0.4679(3) 0.38246(13) 1.03073(11)
O2 O 0.4271(3) 0.51686(13) 1.08373(13)
O3 O 0.0248(3) 0.42780(14) 1.39049(12)
O4 O 0.2267(3) 0.52606(15) 1.36863(12)
O5 O 0.1367(3) 0.12159(13) 1.12585(12)
O6 O 0.3135(3) 0.08923(14) 1.23653(16)
O7 O 0.0254(3) 0.12088(16) 1.25922(13)
N1 N 0.7819(3) 0.50984(16) 0.99560(15)
N2 N 0.9723(5) 0.5556(2) 1.0776(2)
H1 H 1.0205 0.5778 1.1187
C1 C 0.3333(4) 0.38743(17) 1.15514(16)
C2 C 0.2891(4) 0.43733(17) 1.22199(16)
H2 H 0.3176 0.4987 1.2251
C3 C 0.2041(4) 0.39773(17) 1.28354(16)
C4 C 0.1634(4) 0.30549(18) 1.27956(16)
H3 H 0.1040 0.2782 1.3204
C5 C 0.2124(3) 0.25449(16) 1.21395(16)
C6 C 0.2954(4) 0.29475(17) 1.15237(16)
H4 H 0.3266 0.2601 1.1086
C7 C 0.4143(4) 0.4327(2) 1.08611(17)
C8 C 0.1520(4) 0.45601(19) 1.35300(17)
C9 C 0.8128(5) 0.5482(2) 1.0662(2)
H5 H 0.7328 0.5670 1.1022
C10 C 0.9311(4) 0.4944(2) 0.9627(2)
H6 H 0.9467 0.4685 0.9128
C11 C 1.0490(4) 0.5200(3) 1.0089(3)
H7 H 1.1613 0.5158 0.9990
Zn1A Zn -0.06025(4) 0.527512(18) 1.454753(17)
Zn1C Zn 0.06025(4) 0.027512(18) 1.045247(17)
O3A O 0.4752(3) 0.57220(14) 0.89049(12)
O5C O 0.6367(3) 0.37841(13) 0.87415(12)
N3 N -0.3386(5) 0.2662(2) 1.2859(2)
N4 N -0.2472(5) 0.2813(2) 1.1671(2)
C12 C -0.3096(7) 0.2230(3) 1.2186(3)
H8 H -0.3299 0.1615 1.2090
C13 C -0.2408(5) 0.3640(3) 1.2024(3)
H9 H -0.2039 0.4178 1.1792
C14 C -0.2971(6) 0.3550(3) 1.2769(3)
H10 H -0.3060 0.4008 1.3149
C15 C -0.4151(9) 0.2257(4) 1.3582(4)
H11 H -0.5248 0.2507 1.3643
H12 H -0.4259 0.1604 1.3505
C16 C -0.3275(12) 0.2413(4) 1.4274(4)
H13 H -0.3823 0.2123 1.4711
H14 H -0.3208 0.3058 1.4370
H15 H -0.2187 0.2167 1.4220
C17 C -0.1988(9) 0.2616(4) 1.0851(3)
H16 H -0.2129 0.1977 1.0746
H17 H -0.0855 0.2779 1.0776
H18 H -0.2662 0.2963 1.0493
loop_
_geom_bond_atom_site_label_1
_geom_bond_atom_site_label_2
_geom_bond_site_symmetry_1
_geom_bond_site_symmetry_2
Zn1 O1 1_555 1_555
S1 O5 1_555 1_555
O1 C7 1_555 1_555
O2 C7 1_555 1_555
O3 C8 1_555 1_555
O4 C8 1_555 1_555
O5 Zn1C 1_555 1_555
O6 S1 1_555 1_555
O7 S1 1_555 1_555
N1 Zn1 1_555 1_555
N2 H1 1_555 1_555
N3 C12 1_555 1_555
N4 C12 1_555 1_555
C1 C2 1_555 1_555
C2 H2 1_555 1_555
C3 C2 1_555 1_555
C4 C3 1_555 1_555
H3 C4 1_555 1_555
C5 S1 1_555 1_555
C6 C1 1_555 1_555
H4 C6 1_555 1_555
C7 C1 1_555 1_555
C8 C3 1_555 1_555
C9 N1 1_555 1_555
H5 C9 1_555 1_555
C10 N1 1_555 1_555
H6 C10 1_555 1_555
C11 N2 1_555 1_555
H7 C11 1_555 1_555
C12 H8 1_555 1_555
C13 N4 1_555 1_555
H9 C13 1_555 1_555
C14 N3 1_555 1_555
H10 C14 1_555 1_555
C15 N3 1_555 1_555
H11 C15 1_555 1_555
H12 C15 1_555 1_555
C16 C15 1_555 1_555
H13 C16 1_555 1_555
H14 C16 1_555 1_555
H15 C16 1_555 1_555
C17 N4 1_555 1_555
H16 C17 1_555 1_555
H17 C17 1_555 1_555
H18 C17 1_555 1_555
Zn1A O3 1_555 1_555
O3A Zn1 1_555 1_555
O5C Zn1 1_555 1_555
N2 C9 1_555 1_555
C4 C5 1_555 1_555
C5 C6 1_555 1_555
C10 C11 1_555 1_555
C13 C14 1_555 1_555

#END
