
#######################################################################
#
#                 Cambridge Crystallographic Data Centre
#                                CCDC 
#
#######################################################################
#
# If this CIF has been generated from an entry in the Cambridge 
# Structural Database, then it will include bibliographic, chemical, 
# crystal, experimental, refinement or atomic coordinate data resulting 
# from the CCDC's data processing and validation procedures.
#
#######################################################################

data_UZUZUL
_symmetry_cell_setting           orthorhombic
_symmetry_space_group_name_H-M   'P 21 21 21'
_symmetry_Int_Tables_number      19
_space_group_name_Hall           'P 2ac 2ab'
loop_
_symmetry_equiv_pos_site_id
_symmetry_equiv_pos_as_xyz
1 x,y,z
2 1/2-x,-y,1/2+z
3 -x,1/2+y,1/2-z
4 1/2+x,1/2-y,-z
_cell_length_a                   8.1331(6)
_cell_length_b                   14.6556(10)
_cell_length_c                   16.8257(12)
_cell_angle_alpha                90
_cell_angle_beta                 90
_cell_angle_gamma                90
_cell_volume                     2005.55
loop_
_atom_site_label
_atom_site_type_symbol
_atom_site_fract_x
_atom_site_fract_y
_atom_site_fract_z
Zn1 Zn 0.43968(3) 0.527475(16) 0.045264(13)
S1 S 0.83109(9) 0.86405(4) -0.21030(3)
O1 O 0.5313(3) 0.61765(12) -0.03064(9)
O2 O 0.5727(3) 0.48320(12) -0.08347(11)
O3 O 0.9750(3) 0.57226(12) -0.39063(10)
O4 O 0.7730(3) 0.47387(13) -0.36862(10)
O5 O 0.8638(3) 0.87866(12) -0.12585(10)
O6 O 0.6861(3) 0.91059(13) -0.23683(14)
O7 O 0.9748(3) 0.87937(14) -0.25910(11)
N1 N 0.2177(3) 0.49004(13) 0.00462(12)
N2 N 0.0278(5) 0.4443(2) -0.0780(2)
H1 H -0.0200 0.4222 -0.1194
C1 C 0.6668(3) 0.61280(15) -0.15505(12)
C2 C 0.7109(3) 0.56240(15) -0.22182(13)
H2 H 0.6823 0.5011 -0.2250
C3 C 0.7963(3) 0.60232(15) -0.28320(13)
C4 C 0.8369(3) 0.69482(16) -0.27938(12)
H3 H 0.8965 0.7220 -0.3202
C5 C 0.7876(3) 0.74572(14) -0.21425(13)
C6 C 0.7044(3) 0.70510(15) -0.15225(12)
H4 H 0.6734 0.7397 -0.1084
C7 C 0.5849(3) 0.56767(16) -0.08575(13)
C8 C 0.8482(3) 0.54404(16) -0.35307(13)
C9 C 0.1868(4) 0.45184(19) -0.06643(16)
H5 H 0.2669 0.4333 -0.1024
C10 C 0.0687(4) 0.5056(2) 0.03756(17)
H6 H 0.0526 0.5315 0.0874
C11 C -0.0494(4) 0.4797(3) -0.0094(2)
H7 H -0.1618 0.4837 0.0002
Zn1A Zn 1.06032(3) 0.472525(16) -0.454736(13)
Zn1C Zn 0.93968(3) 0.972525(16) -0.045264(13)
O3A O 0.5250(3) 0.42774(12) 0.10937(10)
O5C O 0.3638(3) 0.62134(12) 0.12585(10)
N3 N 1.3379(4) 0.73413(18) -0.28575(18)
N4 N 1.2468(4) 0.7184(2) -0.16769(18)
C12 C 1.3092(6) 0.7772(2) -0.2185(2)
H8 H 1.3295 0.8386 -0.2086
C13 C 1.2406(5) 0.6355(2) -0.2028(2)
H9 H 1.2044 0.5816 -0.1794
C14 C 1.2959(6) 0.6449(2) -0.2774(2)
H10 H 1.3039 0.5994 -0.3158
C15 C 1.4148(9) 0.7745(4) -0.3578(3)
H11 H 1.4240 0.8399 -0.3503
H12 H 1.5253 0.7503 -0.3631
C16 C 1.3304(12) 0.7583(4) -0.4277(3)
H13 H 1.3863 0.7877 -0.4710
H14 H 1.2209 0.7823 -0.4234
H15 H 1.3254 0.6938 -0.4373
C17 C 1.1976(9) 0.7369(4) -0.0859(3)
H16 H 1.2112 0.8007 -0.0748
H17 H 1.2649 0.7019 -0.0503
H18 H 1.0844 0.7203 -0.0788
loop_
_geom_bond_atom_site_label_1
_geom_bond_atom_site_label_2
_geom_bond_site_symmetry_1
_geom_bond_site_symmetry_2
Zn1 O1 1_555 1_555
S1 O5 1_555 1_555
O1 C7 1_555 1_555
O2 C7 1_555 1_555
O3 C8 1_555 1_555
O4 C8 1_555 1_555
O5 Zn1C 1_555 1_555
O6 S1 1_555 1_555
O7 S1 1_555 1_555
N1 Zn1 1_555 1_555
N2 H1 1_555 1_555
N3 C12 1_555 1_555
N4 C12 1_555 1_555
C1 C2 1_555 1_555
C2 H2 1_555 1_555
C3 C2 1_555 1_555
C4 C3 1_555 1_555
H3 C4 1_555 1_555
C5 S1 1_555 1_555
C6 C1 1_555 1_555
H4 C6 1_555 1_555
C7 C1 1_555 1_555
C8 C3 1_555 1_555
C9 N1 1_555 1_555
H5 C9 1_555 1_555
C10 N1 1_555 1_555
H6 C10 1_555 1_555
C11 N2 1_555 1_555
H7 C11 1_555 1_555
C12 H8 1_555 1_555
C13 N4 1_555 1_555
H9 C13 1_555 1_555
C14 N3 1_555 1_555
H10 C14 1_555 1_555
C15 N3 1_555 1_555
H11 C15 1_555 1_555
H12 C15 1_555 1_555
C16 C15 1_555 1_555
H13 C16 1_555 1_555
H14 C16 1_555 1_555
H15 C16 1_555 1_555
C17 N4 1_555 1_555
H16 C17 1_555 1_555
H17 C17 1_555 1_555
H18 C17 1_555 1_555
Zn1A O3 1_555 1_555
O3A Zn1 1_555 1_555
O5C Zn1 1_555 1_555
N2 C9 1_555 1_555
C4 C5 1_555 1_555
C5 C6 1_555 1_555
C10 C11 1_555 1_555
C13 C14 1_555 1_555

#END
