
#######################################################################
#
#                 Cambridge Crystallographic Data Centre
#                                CCDC 
#
#######################################################################
#
# If this CIF has been generated from an entry in the Cambridge 
# Structural Database, then it will include bibliographic, chemical, 
# crystal, experimental, refinement or atomic coordinate data resulting 
# from the CCDC's data processing and validation procedures.
#
#######################################################################

data_VABLAM
_symmetry_cell_setting           tetragonal
_symmetry_space_group_name_H-M   'P -4 21 c'
_symmetry_Int_Tables_number      114
_space_group_name_Hall           'P -4 2n'
loop_
_symmetry_equiv_pos_site_id
_symmetry_equiv_pos_as_xyz
1 x,y,z
2 -x,-y,z
3 1/2+x,1/2-y,1/2-z
4 1/2-x,1/2+y,1/2-z
5 1/2+y,1/2+x,1/2+z
6 1/2-y,1/2-x,1/2+z
7 -y,x,-z
8 y,-x,-z
_cell_length_a                   8.475(3)
_cell_length_b                   8.475(3)
_cell_length_c                   10.904(5)
_cell_angle_alpha                90
_cell_angle_beta                 90
_cell_angle_gamma                90
_cell_volume                     783.187
loop_
_atom_site_label
_atom_site_type_symbol
_atom_site_fract_x
_atom_site_fract_y
_atom_site_fract_z
Ag1 Ag -0.5000 0.5000 -0.5000
N1 N -0.7185(5) 0.5435(5) -0.6196(4)
C1 C -0.8107(6) 0.5830(6) -0.6875(5)
C2 C -0.9317(6) 0.6316(6) -0.7716(5)
H1 H -0.8880 0.7097 -0.8270
H2 H -1.0159 0.6818 -0.7257
C3 C -1.0000 0.5000 -0.8455(3)
H3 H -0.9180 0.4575 -0.8981
H4 H -1.0820 0.5425 -0.8981
C2A C -1.0683(6) 0.3684(6) -0.7716(5)
C1A C -1.1893(6) 0.4170(6) -0.6875(5)
N1A N -1.2815(5) 0.4565(5) -0.6196(4)
H1A H -1.1120 0.2903 -0.8270
H2A H -0.9841 0.3182 -0.7257
N1A_2 N -0.2815(5) 0.4565(5) -0.6196(4)
C1A_2 C -0.1893(6) 0.4170(6) -0.6875(5)
C2A_2 C -0.0683(6) 0.3684(6) -0.7716(5)
H1A_2 H -0.1120 0.2903 -0.8270
H2A_2 H 0.0159 0.3182 -0.7257
C3A C 0.0000 0.5000 -0.8455(3)
H3A H -0.0820 0.5425 -0.8981
H4A H 0.0820 0.4575 -0.8981
C2_2 C 0.0683(6) 0.6316(6) -0.7716(5)
C1_2 C 0.1893(6) 0.5830(6) -0.6875(5)
N1_2 N 0.2815(5) 0.5435(5) -0.6196(4)
H1_2 H 0.1120 0.7097 -0.8270
H2_2 H -0.0159 0.6818 -0.7257
N1F N -0.5435(5) 0.2815(5) -0.3804(4)
N1G N -0.4565(5) 0.7185(5) -0.3804(4)
Ag1_2 Ag -1.5000 0.5000 -0.5000
Ag1_3 Ag 0.5000 0.5000 -0.5000
As1 As -1.0000 0.0000 -0.5000(3)
F1 F -0.8465 -0.1180 -0.5009(3)
F2 F -1.0000 0.0000 -0.3551(3)
F1A F -1.1535 0.1180 -0.5009(3)
F1F F -0.8820 0.1535 -0.4991(3)
F1G F -1.1180 -0.1535 -0.4991(3)
F2F F -1.0000 0.0000 -0.6449(3)
loop_
_geom_bond_atom_site_label_1
_geom_bond_atom_site_label_2
_geom_bond_site_symmetry_1
_geom_bond_site_symmetry_2
Ag1 N1 1_555 1_555
N1 C1 1_555 1_555
C1 C2 1_555 1_555
C2 H1 1_555 1_555
H2 C2 1_555 1_555
C3 C2 1_555 1_555
H3 C3 1_555 1_555
H4 C3 1_555 1_555
As1 F1 1_555 1_555
F2 As1 1_555 1_555
C2A C3 1_555 1_555
C1A C2A 1_555 1_555
N1A C1A 1_555 1_555
H1A C2A 1_555 1_555
H2A C2A 1_555 1_555
F1A As1 1_555 1_555
F1F As1 1_555 1_555
F1G As1 1_555 1_555
F2F As1 1_555 1_555
N1A_2 Ag1 1_555 1_555
C1A_2 N1A_2 1_555 1_555
C2A_2 C1A_2 1_555 1_555
H1A_2 C2A_2 1_555 1_555
H2A_2 C2A_2 1_555 1_555
C3A C2A_2 1_555 1_555
H3A C3A 1_555 1_555
H4A C3A 1_555 1_555
C2_2 C3A 1_555 1_555
C1_2 C2_2 1_555 1_555
N1_2 C1_2 1_555 1_555
H1_2 C2_2 1_555 1_555
H2_2 C2_2 1_555 1_555
N1F Ag1 1_555 1_555
N1G Ag1 1_555 1_555
Ag1_2 N1A 1_555 1_555
Ag1_3 N1_2 1_555 1_555

#END
