
#######################################################################
#
#                 Cambridge Crystallographic Data Centre
#                                CCDC 
#
#######################################################################
#
# If this CIF has been generated from an entry in the Cambridge 
# Structural Database, then it will include bibliographic, chemical, 
# crystal, experimental, refinement or atomic coordinate data resulting 
# from the CCDC's data processing and validation procedures.
#
#######################################################################

data_VABMUH
_symmetry_cell_setting           tetragonal
_symmetry_space_group_name_H-M   'P -4 21 c'
_symmetry_Int_Tables_number      114
_space_group_name_Hall           'P -4 2n'
loop_
_symmetry_equiv_pos_site_id
_symmetry_equiv_pos_as_xyz
1 x,y,z
2 -x,-y,z
3 1/2+x,1/2-y,1/2-z
4 1/2-x,1/2+y,1/2-z
5 1/2+y,1/2+x,1/2+z
6 1/2-y,1/2-x,1/2+z
7 -y,x,-z
8 y,-x,-z
_cell_length_a                   9.489(2)
_cell_length_b                   9.489(2)
_cell_length_c                   10.559(2)
_cell_angle_alpha                90
_cell_angle_beta                 90
_cell_angle_gamma                90
_cell_volume                     950.744
loop_
_atom_site_label
_atom_site_type_symbol
_atom_site_fract_x
_atom_site_fract_y
_atom_site_fract_z
Ag1 Ag 0.5000 0.5000 0.5000
N1 N 0.6653(19) 0.611(2) 0.6204(18)
C1 C 0.740(2) 0.656(3) 0.693(2)
C2 C 0.836(2) 0.715(2) 0.788(2)
H1 H 0.7829 0.7726 0.8471
H2 H 0.9041 0.7751 0.7460
C3 C 0.9128(19) 0.598(2) 0.8602(17)
H3 H 0.9746 0.6417 0.9222
H4 H 0.8437 0.5428 0.9059
C4 C 1.0000 0.5000 0.7768(16)
H5 H 1.0620 0.5549 0.7230
H6 H 0.9380 0.4451 0.7230
C3A C 1.0872(19) 0.402(2) 0.8602(17)
C2A C 1.164(2) 0.285(2) 0.788(2)
C1A C 1.260(2) 0.344(3) 0.693(2)
N1A N 1.3347(19) 0.389(2) 0.6204(18)
H1A H 1.2171 0.2274 0.8471
H2A H 1.0959 0.2249 0.7460
H3A H 1.0254 0.3583 0.9222
H4A H 1.1563 0.4572 0.9059
N1A_2 N 0.3347(19) 0.389(2) 0.6204(18)
C1A_2 C 0.260(2) 0.344(3) 0.693(2)
C2A_2 C 0.164(2) 0.285(2) 0.788(2)
H1A_2 H 0.2171 0.2274 0.8471
H2A_2 H 0.0959 0.2249 0.7460
C3A_2 C 0.0872(19) 0.402(2) 0.8602(17)
H3A_2 H 0.0254 0.3583 0.9222
H4A_2 H 0.1563 0.4572 0.9059
C4A C 0.0000 0.5000 0.7768(16)
H5A H -0.0620 0.4451 0.7230
H6A H 0.0620 0.5549 0.7230
C3_2 C -0.0872(19) 0.598(2) 0.8602(17)
C2_2 C -0.164(2) 0.715(2) 0.788(2)
C1_2 C -0.260(2) 0.656(3) 0.693(2)
N1_2 N -0.3347(19) 0.611(2) 0.6204(18)
H1_2 H -0.2171 0.7726 0.8471
H2_2 H -0.0959 0.7751 0.7460
H3_2 H -0.0254 0.6417 0.9222
H4_2 H -0.1563 0.5428 0.9059
N1F N 0.389(2) 0.6653(19) 0.3796(18)
N1G N 0.611(2) 0.3347(19) 0.3796(18)
Ag1_2 Ag 1.5000 0.5000 0.5000
Ag1_3 Ag -0.5000 0.5000 0.5000
Cl1 Cl 0.5000 0.5000 0.9987(16)
O2 O 0.5639 0.6349 0.9556(16)
O2A O 0.4361 0.3651 0.9556(16)
O2F O 0.3651 0.5639 1.0444(16)
O2G O 0.6349 0.4361 1.0444(16)
O1? O 0.5155 0.5821 0.9133(16)
loop_
_geom_bond_atom_site_label_1
_geom_bond_atom_site_label_2
_geom_bond_site_symmetry_1
_geom_bond_site_symmetry_2
Ag1 N1 1_555 1_555
N1 C1 1_555 1_555
C1 C2 1_555 1_555
C2 H1 1_555 1_555
H2 C2 1_555 1_555
C3 C2 1_555 1_555
H3 C3 1_555 1_555
H4 C3 1_555 1_555
C4 C3 1_555 1_555
H5 C4 1_555 1_555
H6 C4 1_555 1_555
Cl1 O2 1_555 1_555
C3A C4 1_555 1_555
C2A C3A 1_555 1_555
C1A C2A 1_555 1_555
N1A C1A 1_555 1_555
H1A C2A 1_555 1_555
H2A C2A 1_555 1_555
H3A C3A 1_555 1_555
H4A C3A 1_555 1_555
O2A Cl1 1_555 1_555
O2F Cl1 1_555 1_555
O2G Cl1 1_555 1_555
N1A_2 Ag1 1_555 1_555
C1A_2 N1A_2 1_555 1_555
C2A_2 C1A_2 1_555 1_555
H1A_2 C2A_2 1_555 1_555
H2A_2 C2A_2 1_555 1_555
C3A_2 C2A_2 1_555 1_555
H3A_2 C3A_2 1_555 1_555
H4A_2 C3A_2 1_555 1_555
C4A C3A_2 1_555 1_555
H5A C4A 1_555 1_555
H6A C4A 1_555 1_555
C3_2 C4A 1_555 1_555
C2_2 C3_2 1_555 1_555
C1_2 C2_2 1_555 1_555
N1_2 C1_2 1_555 1_555
H1_2 C2_2 1_555 1_555
H2_2 C2_2 1_555 1_555
H3_2 C3_2 1_555 1_555
H4_2 C3_2 1_555 1_555
N1F Ag1 1_555 1_555
N1G Ag1 1_555 1_555
Ag1_2 N1A 1_555 1_555
Ag1_3 N1_2 1_555 1_555

#END
