
#######################################################################
#
#                 Cambridge Crystallographic Data Centre
#                                CCDC 
#
#######################################################################
#
# If this CIF has been generated from an entry in the Cambridge 
# Structural Database, then it will include bibliographic, chemical, 
# crystal, experimental, refinement or atomic coordinate data resulting 
# from the CCDC's data processing and validation procedures.
#
#######################################################################

data_VABMIV
_symmetry_cell_setting           orthorhombic
_symmetry_space_group_name_H-M   'P b c a'
_symmetry_Int_Tables_number      61
_space_group_name_Hall           '-P 2ac 2ab'
loop_
_symmetry_equiv_pos_site_id
_symmetry_equiv_pos_as_xyz
1 x,y,z
2 1/2+x,y,1/2-z
3 1/2-x,1/2+y,z
4 x,1/2-y,1/2+z
5 -x,-y,-z
6 1/2-x,-y,1/2+z
7 1/2+x,1/2-y,-z
8 -x,1/2+y,1/2-z
_cell_length_a                   12.798(3)
_cell_length_b                   12.544(4)
_cell_length_c                   14.197(6)
_cell_angle_alpha                90
_cell_angle_beta                 90
_cell_angle_gamma                90
_cell_volume                     2279.16
loop_
_atom_site_label
_atom_site_type_symbol
_atom_site_fract_x
_atom_site_fract_y
_atom_site_fract_z
Ag1 Ag 0.58076(2) 0.247694(17) 0.11274(3)
N1 N 0.5664(3) 0.0798(3) 0.1203(2)
C1 C 0.5503(3) -0.0072(3) 0.1380(3)
C2 C 0.5286(3) -0.1180(3) 0.1594(3)
H1 H 0.4557 -0.1327 0.1459
H2 H 0.5398 -0.1300 0.2262
C3 C 0.5958(3) -0.1942(3) 0.1042(3)
H3 H 0.6685 -0.1834 0.1211
H4 H 0.5885 -0.1792 0.0375
C4 C 0.5662(3) -0.3092(3) 0.1226(2)
H5 H 0.4945 -0.3208 0.1029
H6 H 0.5703 -0.3233 0.1897
C5 C 0.6371(3) -0.3862(2) 0.0705(3)
H7 H 0.6335 -0.3712 0.0036
H8 H 0.7086 -0.3747 0.0907
C6 C 0.6099(3) -0.4970(3) 0.0861(3)
N2 N 0.5887(2) -0.5848(3) 0.0982(2)
S1 S 0.25142(8) 0.21976(8) 0.14567(6)
O1 O 0.3605(2) 0.24564(18) 0.1437(2)
O2 O 0.1943(2) 0.24947(18) 0.0629(2)
O3 O 0.2003(2) 0.24242(19) 0.2327(2)
C7 C 0.2512(3) 0.0742(3) 0.1421(2)
F1 F 0.3009(2) 0.03221(17) 0.21482(19)
F2 F 0.29688(19) 0.03700(17) 0.06454(18)
F3 F 0.15405(18) 0.03534(18) 0.14290(19)
N2_2 N 0.5887(2) 0.4152(3) 0.0982(2)
O2F O 0.6943(2) 0.25053(18) -0.0629(2)
O3A O 0.7003(2) 0.24242(19) 0.2673(2)
Ag1_2 Ag 0.58076(2) -0.752306(17) 0.11274(3)
Ag1F Ag 0.08076(2) 0.252306(17) -0.11274(3)
Ag1A Ag 0.08076(2) 0.247694(17) 0.38726(3)
loop_
_geom_bond_atom_site_label_1
_geom_bond_atom_site_label_2
_geom_bond_site_symmetry_1
_geom_bond_site_symmetry_2
Ag1 N1 1_555 1_555
N1 C1 1_555 1_555
C1 C2 1_555 1_555
C2 H1 1_555 1_555
H2 C2 1_555 1_555
C3 C2 1_555 1_555
H3 C3 1_555 1_555
H4 C3 1_555 1_555
C4 C3 1_555 1_555
H5 C4 1_555 1_555
H6 C4 1_555 1_555
C5 C4 1_555 1_555
H7 C5 1_555 1_555
H8 C5 1_555 1_555
C6 C5 1_555 1_555
N2 C6 1_555 1_555
S1 O1 1_555 1_555
O1 Ag1 1_555 1_555
O2 S1 1_555 1_555
O3 S1 1_555 1_555
C7 S1 1_555 1_555
F1 C7 1_555 1_555
F2 C7 1_555 1_555
F3 C7 1_555 1_555
N2_2 Ag1 1_555 1_555
O2F Ag1 1_555 1_555
O3A Ag1 1_555 1_555
Ag1_2 N2 1_555 1_555
Ag1F O2 1_555 1_555
Ag1A O3 1_555 1_555

#END
