
#######################################################################
#
#                 Cambridge Crystallographic Data Centre
#                                CCDC 
#
#######################################################################
#
# If this CIF has been generated from an entry in the Cambridge 
# Structural Database, then it will include bibliographic, chemical, 
# crystal, experimental, refinement or atomic coordinate data resulting 
# from the CCDC's data processing and validation procedures.
#
#######################################################################

data_VABMOB
_symmetry_cell_setting           tetragonal
_symmetry_space_group_name_H-M   'P -4'
_symmetry_Int_Tables_number      81
_space_group_name_Hall           'P -4'
loop_
_symmetry_equiv_pos_site_id
_symmetry_equiv_pos_as_xyz
1 x,y,z
2 -x,-y,z
3 y,-x,-z
4 -y,x,-z
_cell_length_a                   9.482(2)
_cell_length_b                   9.482(2)
_cell_length_c                   15.766(3)
_cell_angle_alpha                90
_cell_angle_beta                 90
_cell_angle_gamma                90
_cell_volume                     1417.49
loop_
_atom_site_label
_atom_site_type_symbol
_atom_site_fract_x
_atom_site_fract_y
_atom_site_fract_z
Ag1 Ag 1.0000 1.0000 0.5000
N1 N 1.1110(8) 0.8360(7) 0.5821(5)
C1 C 1.1593(9) 0.7619(8) 0.6295(5)
C2 C 1.2163(8) 0.6604(9) 0.6909(7)
H1 H 1.2774 0.7096 0.7303
H2 H 1.2731 0.5913 0.6609
C3 C 1.1013(8) 0.5841(8) 0.7404(5)
H3 H 1.1456 0.5210 0.7808
H4 H 1.0480 0.6533 0.7724
C4 C 1.0000 0.5000 0.6864(6)
H5 H 1.0529 0.4363 0.6502
C3A C 0.8987(8) 0.4159(8) 0.7404(5)
C2A C 0.7837(8) 0.3396(9) 0.6909(7)
C1A C 0.8407(9) 0.2381(8) 0.6295(5)
N1A N 0.8890(8) 0.1640(7) 0.5821(5)
H1A H 0.7226 0.2904 0.7303
H2A H 0.7269 0.4087 0.6609
H3A H 0.8544 0.4790 0.7808
H4A H 0.9520 0.3467 0.7724
H5A H 0.9471 0.5637 0.6502
N1A_2 N 0.8890(8) 1.1640(7) 0.5821(5)
C1A_2 C 0.8407(9) 1.2381(8) 0.6295(5)
C2A_2 C 0.7837(8) 1.3396(9) 0.6909(7)
H1A_2 H 0.7226 1.2904 0.7303
H2A_2 H 0.7269 1.4087 0.6609
C3A_2 C 0.8987(8) 1.4159(8) 0.7404(5)
H3A_2 H 0.8544 1.4790 0.7808
H4A_2 H 0.9520 1.3467 0.7724
C4A C 1.0000 1.5000 0.6864(6)
H5A_2 H 0.9471 1.5637 0.6502
C3_2 C 1.1013(8) 1.5841(8) 0.7404(5)
C2_2 C 1.2163(8) 1.6604(9) 0.6909(7)
C1_2 C 1.1593(9) 1.7619(8) 0.6295(5)
N1_2 N 1.1110(8) 1.8360(7) 0.5821(5)
H1_2 H 1.2774 1.7096 0.7303
H2_2 H 1.2731 1.5913 0.6609
H3_2 H 1.1456 1.5210 0.7808
H4_2 H 1.0480 1.6533 0.7724
H5_2 H 1.0529 1.4363 0.6502
N1B N 0.8360(7) 0.8890(8) 0.4179(5)
N1C N 1.1640(7) 1.1110(8) 0.4179(5)
Ag1_2 Ag 1.0000 0.0000 0.5000
Ag1_3 Ag 1.0000 2.0000 0.5000
Ag2 Ag 0.5000 0.5000 0.84046(4)
N2 N 0.3945(8) 0.3367(8) 0.7552(5)
C5 C 0.3480(9) 0.2664(8) 0.7049(6)
C6 C 0.2919(8) 0.1691(9) 0.6400(6)
H6 H 0.2352 0.2225 0.6001
H7 H 0.2305 0.1011 0.6674
C7 C 0.4051(8) 0.0905(7) 0.5915(5)
H8 H 0.3599 0.0312 0.5494
H9 H 0.4627 0.1587 0.5615
C8 C 0.5000 0.0000 0.6449(7)
H10 H 0.4429 -0.0599 0.6811
N3 N 0.3404(8) 0.6175(8) 0.9198(5)
C9 C 0.2596(8) 0.6622(8) 0.9633(6)
C10 C 0.1526(9) 0.7217(8) 1.0243(6)
H11 H 0.0844 0.7776 0.9931
H12 H 0.1999 0.7834 1.0643
C11 C 0.0760(8) 0.6062(9) 1.0727(6)
H13 H 0.1439 0.5565 1.1077
H14 H 0.0079 0.6499 1.1104
C12 C 0.0000 0.5000 1.0177(8)
H15 H 0.0674 0.4518 0.9817
C7A C 0.5949(8) -0.0905(7) 0.5915(5)
C6A C 0.7081(8) -0.1691(9) 0.6400(6)
C5A C 0.6520(9) -0.2664(8) 0.7049(6)
N2A N 0.6055(8) -0.3367(8) 0.7552(5)
H6A H 0.7648 -0.2225 0.6001
H7A H 0.7695 -0.1011 0.6674
H8A H 0.6401 -0.0312 0.5494
H9A H 0.5373 -0.1587 0.5615
H10A H 0.5571 0.0599 0.6811
C11A C -0.0760(8) 0.3938(9) 1.0727(6)
C10A C -0.1526(9) 0.2783(8) 1.0243(6)
C9A C -0.2596(8) 0.3378(8) 0.9633(6)
N3A N -0.3404(8) 0.3825(8) 0.9198(5)
H11A H -0.0844 0.2224 0.9931
H12A H -0.1999 0.2166 1.0643
H13A H -0.1439 0.4435 1.1077
H14A H -0.0079 0.3501 1.1104
H15A H -0.0674 0.5482 0.9817
N2A_2 N 0.6055(8) 0.6633(8) 0.7552(5)
C5A_2 C 0.6520(9) 0.7336(8) 0.7049(6)
C6A_2 C 0.7081(8) 0.8309(9) 0.6400(6)
H6A_2 H 0.7648 0.7775 0.6001
H7A_2 H 0.7695 0.8989 0.6674
C7A_2 C 0.5949(8) 0.9095(7) 0.5915(5)
H8A_2 H 0.6401 0.9688 0.5494
H9A_2 H 0.5373 0.8413 0.5615
C8A C 0.5000 1.0000 0.6449(7)
H10A_2 H 0.5571 1.0599 0.6811
C7_2 C 0.4051(8) 1.0905(7) 0.5915(5)
C6_2 C 0.2919(8) 1.1691(9) 0.6400(6)
C5_2 C 0.3480(9) 1.2664(8) 0.7049(6)
N2_2 N 0.3945(8) 1.3367(8) 0.7552(5)
H6_2 H 0.2352 1.2225 0.6001
H7_2 H 0.2305 1.1011 0.6674
H8_2 H 0.3599 1.0312 0.5494
H9_2 H 0.4627 1.1587 0.5615
H10_2 H 0.4429 0.9401 0.6811
N3A_2 N 0.6596(8) 0.3825(8) 0.9198(5)
C9A_2 C 0.7404(8) 0.3378(8) 0.9633(6)
C10A_2 C 0.8474(9) 0.2783(8) 1.0243(6)
H11A_2 H 0.9156 0.2224 0.9931
H12A_2 H 0.8001 0.2166 1.0643
C11A_2 C 0.9240(8) 0.3938(9) 1.0727(6)
H13A_2 H 0.8561 0.4435 1.1077
H14A_2 H 0.9921 0.3501 1.1104
C12A C 1.0000 0.5000 1.0177(8)
H15A_2 H 0.9326 0.5482 0.9817
C11_2 C 1.0760(8) 0.6062(9) 1.0727(6)
C10_2 C 1.1526(9) 0.7217(8) 1.0243(6)
C9_2 C 1.2596(8) 0.6622(8) 0.9633(6)
N3_2 N 1.3404(8) 0.6175(8) 0.9198(5)
H11_2 H 1.0844 0.7776 0.9931
H12_2 H 1.1999 0.7834 1.0643
H13_2 H 1.1439 0.5565 1.1077
H14_2 H 1.0079 0.6499 1.1104
H15_2 H 1.0674 0.4518 0.9817
Ag2A Ag 0.5000 -0.5000 0.84046(4)
Ag2_2 Ag -0.5000 0.5000 0.84046(4)
Ag2_3 Ag 0.5000 1.5000 0.84046(4)
Ag2_4 Ag 1.5000 0.5000 0.84046(4)
N2_3 N 0.3945(8) -0.6633(8) 0.7552(5)
N3_3 N 0.3404(8) -0.3825(8) 0.9198(5)
N3A_3 N 0.6596(8) -0.6175(8) 0.9198(5)
B1 B 0.5000 0.5000 0.5000
F1 F 0.5544(13) 0.3984(10) 0.4540(4)
F1A F 0.4456(13) 0.6016(10) 0.4540(4)
F1B F 0.3984(10) 0.4456(13) 0.5460(4)
F1C F 0.6016(10) 0.5544(13) 0.5460(4)
B2 B 0.0000 1.0000 0.8221(6)
F4 F 0.0431(19) 1.1022(12) 0.8696(8)
F5 F 0.1116(11) 0.9504(16) 0.7820(7)
F4A F -0.0431(19) 0.8978(12) 0.8696(8)
F5A F -0.1116(11) 1.0496(16) 0.7820(7)
F2? F 0.065(3) 0.912(3) 0.8806(12)
F3? F 0.092(3) 1.075(3) 0.7857(13)
loop_
_geom_bond_atom_site_label_1
_geom_bond_atom_site_label_2
_geom_bond_site_symmetry_1
_geom_bond_site_symmetry_2
Ag1 N1 1_555 1_555
N1 C1 1_555 1_555
C1 C2 1_555 1_555
C2 H1 1_555 1_555
H2 C2 1_555 1_555
C3 C2 1_555 1_555
H3 C3 1_555 1_555
H4 C3 1_555 1_555
C4 C3 1_555 1_555
H5 C4 1_555 1_555
Ag2 N2 1_555 1_555
N2 C5 1_555 1_555
C5 C6 1_555 1_555
C6 H6 1_555 1_555
H7 C6 1_555 1_555
C7 C6 1_555 1_555
H8 C7 1_555 1_555
H9 C7 1_555 1_555
C8 C7 1_555 1_555
H10 C8 1_555 1_555
N3 Ag2 1_555 1_555
C9 N3 1_555 1_555
C10 C9 1_555 1_555
H11 C10 1_555 1_555
H12 C10 1_555 1_555
C11 C10 1_555 1_555
H13 C11 1_555 1_555
H14 C11 1_555 1_555
C12 C11 1_555 1_555
H15 C12 1_555 1_555
B1 F1 1_555 1_555
B2 F4 1_555 1_555
F5 B2 1_555 1_555
C3A C4 1_555 1_555
C2A C3A 1_555 1_555
C1A C2A 1_555 1_555
N1A C1A 1_555 1_555
H1A C2A 1_555 1_555
H2A C2A 1_555 1_555
H3A C3A 1_555 1_555
H4A C3A 1_555 1_555
H5A C4 1_555 1_555
C7A C8 1_555 1_555
C6A C7A 1_555 1_555
C5A C6A 1_555 1_555
N2A C5A 1_555 1_555
H6A C6A 1_555 1_555
H7A C6A 1_555 1_555
H8A C7A 1_555 1_555
H9A C7A 1_555 1_555
H10A C8 1_555 1_555
C11A C12 1_555 1_555
C10A C11A 1_555 1_555
C9A C10A 1_555 1_555
N3A C9A 1_555 1_555
H11A C10A 1_555 1_555
H12A C10A 1_555 1_555
H13A C11A 1_555 1_555
H14A C11A 1_555 1_555
H15A C12 1_555 1_555
F1A B1 1_555 1_555
F1B B1 1_555 1_555
F1C B1 1_555 1_555
F4A B2 1_555 1_555
F5A B2 1_555 1_555
N1A_2 Ag1 1_555 1_555
C1A_2 N1A_2 1_555 1_555
C2A_2 C1A_2 1_555 1_555
H1A_2 C2A_2 1_555 1_555
H2A_2 C2A_2 1_555 1_555
C3A_2 C2A_2 1_555 1_555
H3A_2 C3A_2 1_555 1_555
H4A_2 C3A_2 1_555 1_555
C4A C3A_2 1_555 1_555
H5A_2 C4A 1_555 1_555
C3_2 C4A 1_555 1_555
C2_2 C3_2 1_555 1_555
C1_2 C2_2 1_555 1_555
N1_2 C1_2 1_555 1_555
H1_2 C2_2 1_555 1_555
H2_2 C2_2 1_555 1_555
H3_2 C3_2 1_555 1_555
H4_2 C3_2 1_555 1_555
H5_2 C4A 1_555 1_555
N2A_2 Ag2 1_555 1_555
C5A_2 N2A_2 1_555 1_555
C6A_2 C5A_2 1_555 1_555
H6A_2 C6A_2 1_555 1_555
H7A_2 C6A_2 1_555 1_555
C7A_2 C6A_2 1_555 1_555
H8A_2 C7A_2 1_555 1_555
H9A_2 C7A_2 1_555 1_555
C8A C7A_2 1_555 1_555
H10A_2 C8A 1_555 1_555
C7_2 C8A 1_555 1_555
C6_2 C7_2 1_555 1_555
C5_2 C6_2 1_555 1_555
N2_2 C5_2 1_555 1_555
H6_2 C6_2 1_555 1_555
H7_2 C6_2 1_555 1_555
H8_2 C7_2 1_555 1_555
H9_2 C7_2 1_555 1_555
H10_2 C8A 1_555 1_555
N3A_2 Ag2 1_555 1_555
C9A_2 N3A_2 1_555 1_555
C10A_2 C9A_2 1_555 1_555
H11A_2 C10A_2 1_555 1_555
H12A_2 C10A_2 1_555 1_555
C11A_2 C10A_2 1_555 1_555
H13A_2 C11A_2 1_555 1_555
H14A_2 C11A_2 1_555 1_555
C12A C11A_2 1_555 1_555
H15A_2 C12A 1_555 1_555
C11_2 C12A 1_555 1_555
C10_2 C11_2 1_555 1_555
C9_2 C10_2 1_555 1_555
N3_2 C9_2 1_555 1_555
H11_2 C10_2 1_555 1_555
H12_2 C10_2 1_555 1_555
H13_2 C11_2 1_555 1_555
H14_2 C11_2 1_555 1_555
H15_2 C12A 1_555 1_555
Ag2A N2A 1_555 1_555
N1B Ag1 1_555 1_555
N1C Ag1 1_555 1_555
Ag1_2 N1A 1_555 1_555
Ag2_2 N3A 1_555 1_555
Ag1_3 N1_2 1_555 1_555
Ag2_3 N2_2 1_555 1_555
Ag2_4 N3_2 1_555 1_555
N2_3 Ag2A 1_555 1_555
N3_3 Ag2A 1_555 1_555
N3A_3 Ag2A 1_555 1_555

#END
