
#######################################################################
#
#                 Cambridge Crystallographic Data Centre
#                                CCDC 
#
#######################################################################
#
# If this CIF has been generated from an entry in the Cambridge 
# Structural Database, then it will include bibliographic, chemical, 
# crystal, experimental, refinement or atomic coordinate data resulting 
# from the CCDC's data processing and validation procedures.
#
#######################################################################

data_VABNAO
_symmetry_cell_setting           tetragonal
_symmetry_space_group_name_H-M   'P -4 21 c'
_symmetry_Int_Tables_number      114
_space_group_name_Hall           'P -4 2n'
loop_
_symmetry_equiv_pos_site_id
_symmetry_equiv_pos_as_xyz
1 x,y,z
2 -x,-y,z
3 1/2+x,1/2-y,1/2-z
4 1/2-x,1/2+y,1/2-z
5 1/2+y,1/2+x,1/2+z
6 1/2-y,1/2-x,1/2+z
7 -y,x,-z
8 y,-x,-z
_cell_length_a                   9.626(2)
_cell_length_b                   9.626(2)
_cell_length_c                   10.742(3)
_cell_angle_alpha                90
_cell_angle_beta                 90
_cell_angle_gamma                90
_cell_volume                     995.352
loop_
_atom_site_label
_atom_site_type_symbol
_atom_site_fract_x
_atom_site_fract_y
_atom_site_fract_z
Ag1 Ag 0.5000 0.5000 0.5000
N1 N 0.3336(2) 0.3938(3) 0.3831(2)
C1 C 0.2583(2) 0.3475(3) 0.3130(2)
C2 C 0.1617(3) 0.2896(3) 0.2215(3)
H1 H 0.0948 0.2311 0.2641
H2 H 0.2129 0.2316 0.1637
C3 C 0.0848(2) 0.4000(2) 0.1494(2)
H3 H 0.0229 0.3547 0.0908
H4 H 0.1517 0.4532 0.1016
C4 C 0.0000 0.5000 0.2286(2)
H5 H 0.0622 0.5527 0.2817
H6 H -0.0622 0.4473 0.2817
C3A C -0.0848(2) 0.6000(2) 0.1494(2)
C2A C -0.1617(3) 0.7104(3) 0.2215(3)
C1A C -0.2583(2) 0.6525(3) 0.3130(2)
N1A N -0.3336(2) 0.6062(3) 0.3831(2)
H1A H -0.0948 0.7689 0.2641
H2A H -0.2129 0.7684 0.1637
H3A H -0.0229 0.6453 0.0908
H4A H -0.1517 0.5468 0.1016
N1A_2 N 0.6664(2) 0.6062(3) 0.3831(2)
C1A_2 C 0.7417(2) 0.6525(3) 0.3130(2)
C2A_2 C 0.8383(3) 0.7104(3) 0.2215(3)
H1A_2 H 0.9052 0.7689 0.2641
H2A_2 H 0.7871 0.7684 0.1637
C3A_2 C 0.9152(2) 0.6000(2) 0.1494(2)
H3A_2 H 0.9771 0.6453 0.0908
H4A_2 H 0.8483 0.5468 0.1016
C4A C 1.0000 0.5000 0.2286(2)
H5A H 0.9378 0.4473 0.2817
H6A H 1.0622 0.5527 0.2817
C3_2 C 1.0848(2) 0.4000(2) 0.1494(2)
C2_2 C 1.1617(3) 0.2896(3) 0.2215(3)
C1_2 C 1.2583(2) 0.3475(3) 0.3130(2)
N1_2 N 1.3336(2) 0.3938(3) 0.3831(2)
H1_2 H 1.0948 0.2311 0.2641
H2_2 H 1.2129 0.2316 0.1637
H3_2 H 1.0229 0.3547 0.0908
H4_2 H 1.1517 0.4532 0.1016
N1F N 0.6062(3) 0.3336(2) 0.6169(2)
N1G N 0.3938(3) 0.6664(2) 0.6169(2)
Ag1_2 Ag -0.5000 0.5000 0.5000
Ag1_3 Ag 1.5000 0.5000 0.5000
P1 P 0.5000 0.5000 1.0000
F1 F 0.64058(19) 0.4161(2) 0.9989(4)
F2 F 0.5000 0.5000 0.8546(2)
F1A F 0.35942(19) 0.5839(2) 0.9989(4)
F1F F 0.5839(2) 0.64058(19) 1.0011(4)
F1G F 0.4161(2) 0.35942(19) 1.0011(4)
F2F F 0.5000 0.5000 1.1454(2)
loop_
_geom_bond_atom_site_label_1
_geom_bond_atom_site_label_2
_geom_bond_site_symmetry_1
_geom_bond_site_symmetry_2
Ag1 N1 1_555 1_555
N1 C1 1_555 1_555
C1 C2 1_555 1_555
C2 H1 1_555 1_555
H2 C2 1_555 1_555
C3 C2 1_555 1_555
H3 C3 1_555 1_555
H4 C3 1_555 1_555
C4 C3 1_555 1_555
H5 C4 1_555 1_555
H6 C4 1_555 1_555
P1 F1 1_555 1_555
F2 P1 1_555 1_555
C3A C4 1_555 1_555
C2A C3A 1_555 1_555
C1A C2A 1_555 1_555
N1A C1A 1_555 1_555
H1A C2A 1_555 1_555
H2A C2A 1_555 1_555
H3A C3A 1_555 1_555
H4A C3A 1_555 1_555
F1A P1 1_555 1_555
F1F P1 1_555 1_555
F1G P1 1_555 1_555
F2F P1 1_555 1_555
N1A_2 Ag1 1_555 1_555
C1A_2 N1A_2 1_555 1_555
C2A_2 C1A_2 1_555 1_555
H1A_2 C2A_2 1_555 1_555
H2A_2 C2A_2 1_555 1_555
C3A_2 C2A_2 1_555 1_555
H3A_2 C3A_2 1_555 1_555
H4A_2 C3A_2 1_555 1_555
C4A C3A_2 1_555 1_555
H5A C4A 1_555 1_555
H6A C4A 1_555 1_555
C3_2 C4A 1_555 1_555
C2_2 C3_2 1_555 1_555
C1_2 C2_2 1_555 1_555
N1_2 C1_2 1_555 1_555
H1_2 C2_2 1_555 1_555
H2_2 C2_2 1_555 1_555
H3_2 C3_2 1_555 1_555
H4_2 C3_2 1_555 1_555
N1F Ag1 1_555 1_555
N1G Ag1 1_555 1_555
Ag1_2 N1A 1_555 1_555
Ag1_3 N1_2 1_555 1_555

#END
