
#######################################################################
#
#                 Cambridge Crystallographic Data Centre
#                                CCDC 
#
#######################################################################
#
# If this CIF has been generated from an entry in the Cambridge 
# Structural Database, then it will include bibliographic, chemical, 
# crystal, experimental, refinement or atomic coordinate data resulting 
# from the CCDC's data processing and validation procedures.
#
#######################################################################

data_VABPUK
_symmetry_cell_setting           orthorhombic
_symmetry_space_group_name_H-M   'P 21 21 21'
_symmetry_Int_Tables_number      19
_space_group_name_Hall           'P 2ac 2ab'
loop_
_symmetry_equiv_pos_site_id
_symmetry_equiv_pos_as_xyz
1 x,y,z
2 1/2-x,-y,1/2+z
3 1/2+x,1/2-y,-z
4 -x,1/2+y,1/2-z
_cell_length_a                   10.155(5)
_cell_length_b                   11.541(3)
_cell_length_c                   19.828(5)
_cell_angle_alpha                90
_cell_angle_beta                 90
_cell_angle_gamma                90
_cell_volume                     2323.82
loop_
_atom_site_label
_atom_site_type_symbol
_atom_site_fract_x
_atom_site_fract_y
_atom_site_fract_z
Ag1 Ag 0.33316(18) 0.2531(2) 0.50117(12)
N1 N 0.4582(19) 0.3574(19) 0.4284(10)
C1 C 0.515(2) 0.385(2) 0.3842(12)
C2 C 0.580(2) 0.4469(14) 0.3297(11)
H1 H 0.6096 0.5213 0.3469
H2 H 0.5159 0.4619 0.2947
C3 C 0.696(2) 0.387(2) 0.2985(14)
H3 H 0.7642 0.3775 0.3323
H4 H 0.7310 0.4347 0.2626
C4 C 0.6614(19) 0.2692(15) 0.2702(12)
H5 H 0.6486 0.2149 0.3069
H6 H 0.5795 0.2746 0.2452
C5 C 0.769(3) 0.2249(15) 0.2240(14)
H7 H 0.7636 0.2651 0.1811
H8 H 0.8542 0.2430 0.2438
C6 C 0.762(3) 0.0976(14) 0.2117(14)
H9 H 0.6712 0.0771 0.2014
H10 H 0.7864 0.0571 0.2526
C7 C 0.848(3) 0.0580(16) 0.1552(10)
H11 H 0.7988 0.0603 0.1135
H12 H 0.9216 0.1115 0.1508
C8 C 0.902(4) -0.062(2) 0.1650(15)
H13 H 0.9508 -0.0641 0.2070
H14 H 0.8284 -0.1153 0.1695
C9 C 0.987(2) -0.1041(18) 0.1113(11)
N2 N 1.0450(18) -0.1627(18) 0.0787(9)
N3 N 0.2068(19) 0.3798(15) 0.5556(9)
C10 C 0.125(2) 0.4285(17) 0.5786(10)
C11 C 0.032(2) 0.5031(15) 0.6140(7)
H15 H 0.0809 0.5495 0.6464
H16 H -0.0281 0.4545 0.6391
C12 C -0.0464(16) 0.5830(14) 0.5702(11)
H17 H -0.1111 0.6228 0.5977
H18 H -0.0935 0.5376 0.5368
C13 C 0.0378(16) 0.6715(17) 0.5346(10)
H19 H 0.0902 0.7128 0.5678
H20 H 0.0978 0.6320 0.5043
C14 C -0.0421(13) 0.7571(16) 0.4952(11)
H21 H -0.0985 0.7995 0.5260
H22 H -0.0983 0.7153 0.4640
C15 C 0.0402(15) 0.8417(16) 0.4562(10)
H23 H 0.0981 0.7994 0.4261
H24 H 0.0948 0.8852 0.4874
C16 C -0.0421(16) 0.9253(14) 0.4154(11)
H25 H -0.1018 0.8816 0.3869
H26 H -0.0948 0.9720 0.4458
C17 C 0.040(2) 1.0038(17) 0.3721(8)
H27 H 0.0898 0.9562 0.3408
H28 H -0.0189 1.0517 0.3455
C18 C 0.131(2) 1.0791(17) 0.4070(11)
N4 N 0.1949(19) 1.1310(16) 0.4409(8)
N2A N 0.4550(18) 0.1627(18) 0.5787(9)
N4_2 N 0.1949(19) 0.1310(16) 0.4409(8)
Ag1A Ag 1.16684(18) -0.2531(2) 0.00117(12)
Ag1_2 Ag 0.33316(18) 1.2531(2) 0.50117(12)
B1 B 0.2350(18) 0.2166(16) 0.2221(9)
F1 F 0.3028(19) 0.1524(16) 0.2638(9)
F2 F 0.290(2) 0.3181(16) 0.2192(9)
F3 F 0.232(2) 0.1716(16) 0.1626(9)
F4 F 0.1171(18) 0.2242(17) 0.2449(10)
loop_
_geom_bond_atom_site_label_1
_geom_bond_atom_site_label_2
_geom_bond_site_symmetry_1
_geom_bond_site_symmetry_2
Ag1 N1 1_555 1_555
N1 C1 1_555 1_555
C1 C2 1_555 1_555
C2 H1 1_555 1_555
H2 C2 1_555 1_555
C3 C2 1_555 1_555
H3 C3 1_555 1_555
H4 C3 1_555 1_555
C4 C3 1_555 1_555
H5 C4 1_555 1_555
H6 C4 1_555 1_555
C5 C4 1_555 1_555
H7 C5 1_555 1_555
H8 C5 1_555 1_555
C6 C5 1_555 1_555
H9 C6 1_555 1_555
H10 C6 1_555 1_555
C7 C6 1_555 1_555
H11 C7 1_555 1_555
H12 C7 1_555 1_555
C8 C7 1_555 1_555
H13 C8 1_555 1_555
H14 C8 1_555 1_555
C9 C8 1_555 1_555
N2 C9 1_555 1_555
N3 Ag1 1_555 1_555
C10 N3 1_555 1_555
C11 C10 1_555 1_555
H15 C11 1_555 1_555
H16 C11 1_555 1_555
C12 C11 1_555 1_555
H17 C12 1_555 1_555
H18 C12 1_555 1_555
C13 C12 1_555 1_555
H19 C13 1_555 1_555
H20 C13 1_555 1_555
C14 C13 1_555 1_555
H21 C14 1_555 1_555
H22 C14 1_555 1_555
C15 C14 1_555 1_555
H23 C15 1_555 1_555
H24 C15 1_555 1_555
C16 C15 1_555 1_555
H25 C16 1_555 1_555
H26 C16 1_555 1_555
C17 C16 1_555 1_555
H27 C17 1_555 1_555
H28 C17 1_555 1_555
C18 C17 1_555 1_555
N4 C18 1_555 1_555
B1 F1 1_555 1_555
F2 B1 1_555 1_555
F3 B1 1_555 1_555
F4 B1 1_555 1_555
N2A Ag1 1_555 1_555
N4_2 Ag1 1_555 1_555
Ag1A N2 1_555 1_555
Ag1_2 N4 1_555 1_555

#END
