
#######################################################################
#
#                 Cambridge Crystallographic Data Centre
#                                CCDC 
#
#######################################################################
#
# If this CIF has been generated from an entry in the Cambridge 
# Structural Database, then it will include bibliographic, chemical, 
# crystal, experimental, refinement or atomic coordinate data resulting 
# from the CCDC's data processing and validation procedures.
#
#######################################################################

data_VABQUL
_symmetry_cell_setting           monoclinic
_symmetry_space_group_name_H-M   'C 2/c'
_symmetry_Int_Tables_number      15
_space_group_name_Hall           '-C 2yn'
loop_
_symmetry_equiv_pos_site_id
_symmetry_equiv_pos_as_xyz
1 x,y,z
2 1/2+x,1/2+y,z
3 x,-y,1/2+z
4 1/2+x,1/2-y,1/2+z
5 -x,-y,-z
6 1/2-x,1/2-y,-z
7 -x,y,1/2-z
8 1/2-x,1/2+y,1/2-z
_cell_length_a                   27.282(5)
_cell_length_b                   8.905(3)
_cell_length_c                   13.999(4)
_cell_angle_alpha                90
_cell_angle_beta                 115.79(2)
_cell_angle_gamma                90
_cell_volume                     3062.25
loop_
_atom_site_label
_atom_site_type_symbol
_atom_site_fract_x
_atom_site_fract_y
_atom_site_fract_z
Ag1 Ag 0.24996(2) -0.00111(8) 0.01576(5)
N1 N 0.3051(2) -0.1551(8) -0.0099(6)
C1 C 0.3413(3) -0.2165(8) -0.0039(7)
C2 C 0.3897(3) -0.2982(8) 0.0093(7)
H1 H 0.3840 -0.3416 -0.0582
H2 H 0.3956 -0.3800 0.0589
C3 C 0.4386(3) -0.2036(9) 0.0483(7)
H3 H 0.4414 -0.1512 0.1112
H4 H 0.4337 -0.1283 -0.0052
C4 C 0.4915(2) -0.2824(8) 0.0751(7)
H5 H 0.4974 -0.3529 0.1319
H6 H 0.4876 -0.3406 0.0137
C5 C 0.5396(3) -0.1908(10) 0.1068(8)
H7 H 0.5402 -0.1227 0.1615
H8 H 0.5352 -0.1296 0.0463
C6 C 0.5938(2) -0.2630(9) 0.1471(7)
H9 H 0.5986 -0.3227 0.2084
H10 H 0.5931 -0.3321 0.0930
C7 C 0.6415(3) -0.1686(10) 0.1771(9)
H11 H 0.6397 -0.0914 0.2243
H12 H 0.6389 -0.1183 0.1135
C8 C 0.6954(3) -0.2373(10) 0.2284(8)
H13 H 0.7224 -0.1592 0.2425
H14 H 0.7001 -0.2775 0.2963
C9 C 0.7062(3) -0.3545(9) 0.1705(7)
N2 N 0.7129(3) -0.4491(8) 0.1247(6)
S1 S 0.15620(8) 0.2134(3) -0.1677(2)
O1 O 0.1683(2) 0.0577(7) -0.1506(5)
O2 O 0.1798(2) 0.3016(7) -0.0735(5)
O3 O 0.1588(3) 0.2778(8) -0.2575(6)
C10 C 0.0855(4) 0.2191(10) -0.1982(8)
F1 F 0.0659(3) 0.3538(7) -0.2157(7)
F2 F 0.0750(2) 0.1638(7) -0.1240(5)
F3 F 0.0566(2) 0.1404(9) -0.2840(5)
N2A N 0.2129(3) 0.0509(8) 0.1247(6)
O2E O 0.3202(2) 0.1984(7) 0.0735(5)
Ag1A Ag 0.74996(2) -0.50111(8) 0.01576(5)
Ag1E Ag 0.25004(2) 0.50111(8) -0.01576(5)
loop_
_geom_bond_atom_site_label_1
_geom_bond_atom_site_label_2
_geom_bond_site_symmetry_1
_geom_bond_site_symmetry_2
Ag1 N1 1_555 1_555
N1 C1 1_555 1_555
C1 C2 1_555 1_555
C2 H1 1_555 1_555
H2 C2 1_555 1_555
C3 C2 1_555 1_555
H3 C3 1_555 1_555
H4 C3 1_555 1_555
C4 C3 1_555 1_555
H5 C4 1_555 1_555
H6 C4 1_555 1_555
C5 C4 1_555 1_555
H7 C5 1_555 1_555
H8 C5 1_555 1_555
C6 C5 1_555 1_555
H9 C6 1_555 1_555
H10 C6 1_555 1_555
C7 C6 1_555 1_555
H11 C7 1_555 1_555
H12 C7 1_555 1_555
C8 C7 1_555 1_555
H13 C8 1_555 1_555
H14 C8 1_555 1_555
C9 C8 1_555 1_555
N2 C9 1_555 1_555
S1 O1 1_555 1_555
O1 Ag1 1_555 1_555
O2 S1 1_555 1_555
O3 S1 1_555 1_555
C10 S1 1_555 1_555
F1 C10 1_555 1_555
F2 C10 1_555 1_555
F3 C10 1_555 1_555
N2A Ag1 1_555 1_555
O2E Ag1 1_555 1_555
Ag1A N2 1_555 1_555
Ag1E O2 1_555 1_555

#END
