
#######################################################################
#
#                 Cambridge Crystallographic Data Centre
#                                CCDC 
#
#######################################################################
#
# If this CIF has been generated from an entry in the Cambridge 
# Structural Database, then it will include bibliographic, chemical, 
# crystal, experimental, refinement or atomic coordinate data resulting 
# from the CCDC's data processing and validation procedures.
#
#######################################################################

data_VACFOV
_symmetry_cell_setting           hexagonal
_symmetry_space_group_name_H-M   'P 64 2 2'
_symmetry_Int_Tables_number      181
_space_group_name_Hall           "P 64 2' (0,0,2)"
loop_
_symmetry_equiv_pos_site_id
_symmetry_equiv_pos_as_xyz
1 x,y,z
2 -y,x-y,1/3+z
3 -x+y,-x,2/3+z
4 -x,-y,z
5 y,-x+y,1/3+z
6 x-y,x,2/3+z
7 y,x,1/3-z
8 x-y,-y,-z
9 -x,-x+y,2/3-z
10 -y,-x,1/3-z
11 -x+y,y,-z
12 x,x-y,2/3-z
_cell_length_a                   15.087(4)
_cell_length_b                   15.087(4)
_cell_length_c                   12.032(5)
_cell_angle_alpha                90
_cell_angle_beta                 90
_cell_angle_gamma                120
_cell_volume                     2371.78
loop_
_atom_site_label
_atom_site_type_symbol
_atom_site_fract_x
_atom_site_fract_y
_atom_site_fract_z
In1 In 0.5000 0.0000 0.0000
O1 O 0.4216(7) 0.0668(6) 0.1029(5)
O2 O 0.5865(6) 0.1281(6) 0.1258(6)
C1 C 0.5095(11) 0.1287(8) 0.1517(7)
C2 C 0.5045(9) 0.1937(8) 0.2463(7)
C3 C 0.4138(9) 0.1793(9) 0.2864(9)
C4 C 0.5996(9) 0.2712(8) 0.2909(8)
C3K C 0.4138(9) 0.2345(13) 0.3803(9)
C2K C 0.5045(9) 0.3108(12) 0.4204(7)
C1K C 0.5095(11) 0.3808(14) 0.5150(7)
O1K O 0.4216(7) 0.3548(9) 0.5638(5)
O2K O 0.5865(6) 0.4584(8) 0.5409(6)
C4K C 0.5996(9) 0.3284(12) 0.3758(8)
O1C O 0.5784(7) -0.0668(6) 0.1029(5)
O2C O 0.4135(6) -0.1281(6) 0.1258(6)
C1C C 0.4905(11) -0.1287(8) 0.1517(7)
C2C C 0.4955(9) -0.1937(8) 0.2463(7)
C3C C 0.5862(9) -0.1793(9) 0.2864(9)
C4C C 0.4004(9) -0.2712(8) 0.2909(8)
C3H C 0.5862(9) -0.2345(13) 0.3803(9)
C2H C 0.4955(9) -0.3108(12) 0.4204(7)
C1H C 0.4905(11) -0.3808(14) 0.5150(7)
O1H O 0.5784(7) -0.3548(9) 0.5638(5)
O2H O 0.4135(6) -0.4584(8) 0.5409(6)
C4H C 0.4004(9) -0.3284(12) 0.3758(8)
O1G O 0.3548(9) -0.0668(6) -0.1029(5)
O1J O 0.6452(9) 0.0668(6) -0.1029(5)
O2G O 0.4584(8) -0.1281(6) -0.1258(6)
O2J O 0.5416(8) 0.1281(6) -0.1258(6)
In1B In 0.5000 0.5000 0.6667
In1B_2 In 0.5000 -0.5000 0.6667
loop_
_geom_bond_atom_site_label_1
_geom_bond_atom_site_label_2
_geom_bond_site_symmetry_1
_geom_bond_site_symmetry_2
In1 O1 1_555 1_555
O1 C1 1_555 1_555
O2 In1 1_555 1_555
C1 O2 1_555 1_555
C2 C1 1_555 1_555
C3 C2 1_555 1_555
C4 C2 1_555 1_555
C3K C3 1_555 1_555
C2K C3K 1_555 1_555
C1K C2K 1_555 1_555
O1K C1K 1_555 1_555
O2K C1K 1_555 1_555
C4K C4 1_555 1_555
O1C In1 1_555 1_555
O2C In1 1_555 1_555
C1C O1C 1_555 1_555
C2C C1C 1_555 1_555
C3C C2C 1_555 1_555
C4C C2C 1_555 1_555
C3H C3C 1_555 1_555
C2H C3H 1_555 1_555
C1H C2H 1_555 1_555
O1H C1H 1_555 1_555
O2H C1H 1_555 1_555
C4H C4C 1_555 1_555
O1G In1 1_555 1_555
O1J In1 1_555 1_555
O2G In1 1_555 1_555
O2J In1 1_555 1_555
In1B O1K 1_555 1_555
In1B_2 O1H 1_555 1_555
C2K C4K 1_555 1_555
O2K In1B 1_555 1_555
O2C C1C 1_555 1_555
C2H C4H 1_555 1_555
O2H In1B_2 1_555 1_555

#END
