
#######################################################################
#
#                 Cambridge Crystallographic Data Centre
#                                CCDC 
#
#######################################################################
#
# If this CIF has been generated from an entry in the Cambridge 
# Structural Database, then it will include bibliographic, chemical, 
# crystal, experimental, refinement or atomic coordinate data resulting 
# from the CCDC's data processing and validation procedures.
#
#######################################################################

data_VACTOK
_symmetry_cell_setting           monoclinic
_symmetry_space_group_name_H-M   'P 21/c'
_symmetry_Int_Tables_number      14
_space_group_name_Hall           '-P 2ybc'
loop_
_symmetry_equiv_pos_site_id
_symmetry_equiv_pos_as_xyz
1 x,y,z
2 -x,1/2+y,1/2-z
3 -x,-y,-z
4 x,1/2-y,1/2+z
_cell_length_a                   9.2955(19)
_cell_length_b                   21.656(4)
_cell_length_c                   9.4977(19)
_cell_angle_alpha                90
_cell_angle_beta                 105.69(3)
_cell_angle_gamma                90
_cell_volume                     1840.68
loop_
_atom_site_label
_atom_site_type_symbol
_atom_site_fract_x
_atom_site_fract_y
_atom_site_fract_z
Cu1 Cu -0.57673(8) 0.05549(4) 0.41759(8)
I1 I -0.71265(4) -0.044465(18) 0.49887(4)
N1 N -0.6581(5) 0.0677(2) 0.1943(5)
N2 N -0.5306(5) 0.0851(2) -0.1356(5)
H1 H -0.5704 0.0923 -0.2269
N3 N 0.0076(5) 0.3354(2) 0.1228(6)
H2 H -0.0427 0.3676 0.0865
N4 N 0.3347(5) 0.3686(2) 0.0002(5)
C1 C -0.5698(6) 0.0752(2) 0.1054(5)
H3 H -0.4673 0.0780 0.1472
C2 C -0.6223(6) 0.0790(2) -0.0455(6)
C3 C -0.7781(7) 0.0749(3) -0.1041(7)
H4 H -0.8195 0.0763 -0.2048
C4 C -0.8677(7) 0.0689(4) -0.0137(8)
H5 H -0.9710 0.0674 -0.0517
C5 C -0.8045(6) 0.0650(3) 0.1355(7)
H6 H -0.8668 0.0602 0.1966
C6 C -0.3695(6) 0.0799(3) -0.0841(6)
H7 H -0.3307 0.0717 -0.1673
H8 H -0.3450 0.0448 -0.0188
C7 C -0.2918(5) 0.1362(2) -0.0053(5)
C8 C -0.1888(6) 0.1303(3) 0.1293(6)
H9 H -0.1712 0.0916 0.1733
C9 C -0.1115(7) 0.1811(3) 0.1997(6)
H10 H -0.0432 0.1762 0.2908
C10 C -0.1343(6) 0.2389(3) 0.1367(6)
C11 C -0.2381(6) 0.2451(2) 0.0017(6)
H11 H -0.2552 0.2837 -0.0423
C12 C -0.3165(6) 0.1944(3) -0.0681(6)
H12 H -0.3865 0.1994 -0.1580
C13 C -0.0530(7) 0.2951(3) 0.2150(7)
H13 H -0.1216 0.3187 0.2547
H14 H 0.0281 0.2813 0.2965
C14 C 0.2046(5) 0.3727(2) 0.0305(5)
H15 H 0.1526 0.4097 0.0104
C15 C 0.1400(6) 0.3247(2) 0.0910(5)
C16 C 0.2184(7) 0.2693(3) 0.1169(7)
H16 H 0.1806 0.2358 0.1566
C17 C 0.3524(7) 0.2649(3) 0.0831(8)
H17 H 0.4054 0.2279 0.0984
C18 C 0.4085(7) 0.3152(3) 0.0265(7)
H18 H 0.5005 0.3119 0.0060
Cu1B Cu -0.42327(8) -0.05549(4) 0.58241(8)
Cu1A Cu -1.42327(8) -0.44451(4) 1.08241(8)
Cu1C Cu 0.42327(8) 0.44451(4) -0.08241(8)
I1B I -0.28735(4) 0.044465(18) 0.50113(4)
N1B N -0.3419(5) -0.0677(2) 0.8057(5)
N2B N -0.4694(5) -0.0851(2) 1.1356(5)
H1B H -0.4296 -0.0923 1.2269
N3B N -1.0076(5) -0.3354(2) 0.8772(6)
H2B H -0.9573 -0.3676 0.9135
N4B N -1.3347(5) -0.3686(2) 0.9998(5)
N4A N -0.3347(5) -0.1314(2) 0.4998(5)
N4C N -0.6653(5) 0.1314(2) 0.5002(5)
C1B C -0.4302(6) -0.0752(2) 0.8946(5)
H3B H -0.5327 -0.0780 0.8528
C2B C -0.3777(6) -0.0790(2) 1.0455(6)
C3B C -0.2219(7) -0.0749(3) 1.1041(7)
H4B H -0.1805 -0.0763 1.2048
C4B C -0.1323(7) -0.0689(4) 1.0137(8)
H5B H -0.0290 -0.0674 1.0517
C5B C -0.1955(6) -0.0650(3) 0.8645(7)
H6B H -0.1332 -0.0602 0.8034
C6B C -0.6305(6) -0.0799(3) 1.0841(6)
H7B H -0.6693 -0.0717 1.1673
H8B H -0.6550 -0.0448 1.0188
C7B C -0.7082(5) -0.1362(2) 1.0053(5)
C8B C -0.8112(6) -0.1303(3) 0.8707(6)
H9B H -0.8288 -0.0916 0.8267
C9B C -0.8885(7) -0.1811(3) 0.8003(6)
H10B H -0.9568 -0.1762 0.7092
C10B C -0.8657(6) -0.2389(3) 0.8633(6)
C11B C -0.7619(6) -0.2451(2) 0.9983(6)
H11B H -0.7448 -0.2837 1.0423
C12B C -0.6835(6) -0.1944(3) 1.0681(6)
H12B H -0.6135 -0.1994 1.1580
C13B C -0.9470(7) -0.2951(3) 0.7850(7)
H13B H -0.8784 -0.3187 0.7453
H14B H -1.0281 -0.2813 0.7035
C14B C -1.2046(5) -0.3727(2) 0.9695(5)
H15B H -1.1526 -0.4097 0.9896
C15B C -1.1400(6) -0.3247(2) 0.9090(5)
C16B C -1.2184(7) -0.2693(3) 0.8831(7)
H16B H -1.1806 -0.2358 0.8434
C17B C -1.3524(7) -0.2649(3) 0.9169(8)
H17B H -1.4054 -0.2279 0.9016
C18B C -1.4085(7) -0.3152(3) 0.9735(7)
H18B H -1.5005 -0.3119 0.9940
loop_
_geom_bond_atom_site_label_1
_geom_bond_atom_site_label_2
_geom_bond_site_symmetry_1
_geom_bond_site_symmetry_2
Cu1 I1 1_555 1_555
I1 Cu1B 1_555 1_555
N1 Cu1 1_555 1_555
N2 H1 1_555 1_555
N3 H2 1_555 1_555
N4 C14 1_555 1_555
C1 N1 1_555 1_555
H3 C1 1_555 1_555
C2 N2 1_555 1_555
C3 C2 1_555 1_555
H4 C3 1_555 1_555
C4 C3 1_555 1_555
H5 C4 1_555 1_555
C5 N1 1_555 1_555
H6 C5 1_555 1_555
C6 N2 1_555 1_555
H7 C6 1_555 1_555
H8 C6 1_555 1_555
C7 C6 1_555 1_555
C8 C7 1_555 1_555
H9 C8 1_555 1_555
C9 C8 1_555 1_555
H10 C9 1_555 1_555
C10 C9 1_555 1_555
C11 C10 1_555 1_555
H11 C11 1_555 1_555
C12 C7 1_555 1_555
H12 C12 1_555 1_555
C13 N3 1_555 1_555
H13 C13 1_555 1_555
H14 C13 1_555 1_555
C14 H15 1_555 1_555
C15 N3 1_555 1_555
C16 C15 1_555 1_555
H16 C16 1_555 1_555
C17 C16 1_555 1_555
H17 C17 1_555 1_555
C18 N4 1_555 1_555
H18 C18 1_555 1_555
Cu1B I1B 1_555 1_555
Cu1A N4B 1_555 1_555
Cu1C N4 1_555 1_555
I1B Cu1 1_555 1_555
N1B Cu1B 1_555 1_555
N2B H1B 1_555 1_555
N3B H2B 1_555 1_555
N4B C14B 1_555 1_555
N4A Cu1B 1_555 1_555
N4C Cu1 1_555 1_555
C1B N1B 1_555 1_555
H3B C1B 1_555 1_555
C2B N2B 1_555 1_555
C3B C2B 1_555 1_555
H4B C3B 1_555 1_555
C4B C3B 1_555 1_555
H5B C4B 1_555 1_555
C5B N1B 1_555 1_555
H6B C5B 1_555 1_555
C6B N2B 1_555 1_555
H7B C6B 1_555 1_555
H8B C6B 1_555 1_555
C7B C6B 1_555 1_555
C8B C7B 1_555 1_555
H9B C8B 1_555 1_555
C9B C8B 1_555 1_555
H10B C9B 1_555 1_555
C10B C9B 1_555 1_555
C11B C10B 1_555 1_555
H11B C11B 1_555 1_555
C12B C7B 1_555 1_555
H12B C12B 1_555 1_555
C13B N3B 1_555 1_555
H13B C13B 1_555 1_555
H14B C13B 1_555 1_555
C14B H15B 1_555 1_555
C15B N3B 1_555 1_555
C16B C15B 1_555 1_555
H16B C16B 1_555 1_555
C17B C16B 1_555 1_555
H17B C17B 1_555 1_555
C18B N4B 1_555 1_555
H18B C18B 1_555 1_555
C1 C2 1_555 1_555
C4 C5 1_555 1_555
C10 C13 1_555 1_555
C11 C12 1_555 1_555
C14 C15 1_555 1_555
C17 C18 1_555 1_555
C1B C2B 1_555 1_555
C4B C5B 1_555 1_555
C10B C13B 1_555 1_555
C11B C12B 1_555 1_555
C14B C15B 1_555 1_555
C17B C18B 1_555 1_555

#END
