
#######################################################################
#
#                 Cambridge Crystallographic Data Centre
#                                CCDC 
#
#######################################################################
#
# If this CIF has been generated from an entry in the Cambridge 
# Structural Database, then it will include bibliographic, chemical, 
# crystal, experimental, refinement or atomic coordinate data resulting 
# from the CCDC's data processing and validation procedures.
#
#######################################################################

data_VACTUQ
_symmetry_cell_setting           monoclinic
_symmetry_space_group_name_H-M   'P 21/c'
_symmetry_Int_Tables_number      14
_space_group_name_Hall           '-P 2ybc'
loop_
_symmetry_equiv_pos_site_id
_symmetry_equiv_pos_as_xyz
1 x,y,z
2 -x,1/2+y,1/2-z
3 -x,-y,-z
4 x,1/2-y,1/2+z
_cell_length_a                   8.6245(17)
_cell_length_b                   21.039(4)
_cell_length_c                   10.674(2)
_cell_angle_alpha                90
_cell_angle_beta                 113.48(3)
_cell_angle_gamma                90
_cell_volume                     1776.44
loop_
_atom_site_label
_atom_site_type_symbol
_atom_site_fract_x
_atom_site_fract_y
_atom_site_fract_z
I1 I 0.62643(2) 0.534861(8) 0.375384(17)
Cu1 Cu 0.67863(4) 0.473588(14) 0.62083(4)
N1 N 0.7892(2) 0.38753(9) 0.5999(2)
N2 N 0.6702(3) 0.33202(9) 0.7254(2)
H1 H 0.6588 0.3672 0.7619
N3 N 0.2904(3) 0.04924(10) 0.6054(2)
H2 H 0.3696 0.0271 0.6645
N4 N 0.1403(3) 0.03033(9) 0.7377(2)
C1 C 0.8873(3) 0.38849(12) 0.5290(3)
H3 H 0.9045 0.4274 0.4953
C2 C 0.9639(3) 0.33598(13) 0.5027(3)
H4 H 1.0318 0.3392 0.4537
C3 C 0.9365(3) 0.27804(12) 0.5518(3)
H5 H 0.9850 0.2413 0.5351
C4 C 0.8379(3) 0.27500(11) 0.6250(3)
H6 H 0.8189 0.2363 0.6584
C5 C 0.7656(3) 0.33104(10) 0.6491(2)
C6 C 0.5877(3) 0.27524(12) 0.7466(2)
H7 H 0.5248 0.2864 0.8012
H8 H 0.6739 0.2448 0.7985
C7 C 0.4680(3) 0.24347(11) 0.6163(2)
C8 C 0.3789(3) 0.27885(11) 0.4991(3)
H9 H 0.3927 0.3227 0.5000
C9 C 0.2703(3) 0.24901(12) 0.3819(3)
H10 H 0.2102 0.2728 0.3042
C10 C 0.2504(3) 0.18325(12) 0.3795(3)
H11 H 0.1779 0.1633 0.3000
C11 C 0.3376(3) 0.14747(11) 0.4945(2)
C12 C 0.4460(3) 0.17798(11) 0.6130(2)
H12 H 0.5046 0.1541 0.6910
C13 C 0.3196(4) 0.07570(12) 0.4906(3)
H13 H 0.2262 0.0638 0.4065
H14 H 0.4215 0.0570 0.4890
C14 C 0.1454(3) 0.05761(10) 0.6244(2)
C15 C 0.0059(3) 0.09167(12) 0.5320(3)
H15 H 0.0106 0.1096 0.4540
C16 C -0.1359(3) 0.09809(13) 0.5578(3)
H16 H -0.2285 0.1204 0.4974
C17 C -0.1415(4) 0.07107(14) 0.6750(3)
H17 H -0.2363 0.0754 0.6953
C18 C -0.0025(4) 0.03798(12) 0.7589(3)
H18 H -0.0068 0.0194 0.8365
I1B I 0.37357(2) 0.465139(8) 0.624616(17)
Cu1B Cu 0.32137(4) 0.526412(14) 0.37917(4)
Cu1A Cu 0.32137(4) -0.026412(14) 0.87917(4)
Cu1C Cu 0.67863(4) 1.026412(14) 0.12083(4)
N1B N 0.2108(2) 0.61247(9) 0.4001(2)
N2B N 0.3298(3) 0.66798(9) 0.2746(2)
H1B H 0.3412 0.6328 0.2381
N3B N 0.7096(3) 0.95076(10) 0.3946(2)
H2B H 0.6304 0.9729 0.3355
N4B N 0.8597(3) 0.96967(9) 0.2623(2)
N4A N 0.8597(3) 0.53033(9) 0.7623(2)
N4C N 0.1403(3) 0.46967(9) 0.2377(2)
C1B C 0.1127(3) 0.61151(12) 0.4710(3)
H3B H 0.0955 0.5726 0.5047
C2B C 0.0361(3) 0.66402(13) 0.4973(3)
H4B H -0.0318 0.6608 0.5463
C3B C 0.0635(3) 0.72196(12) 0.4482(3)
H5B H 0.0150 0.7587 0.4649
C4B C 0.1621(3) 0.72500(11) 0.3750(3)
H6B H 0.1811 0.7637 0.3416
C5B C 0.2344(3) 0.66896(10) 0.3509(2)
C6B C 0.4123(3) 0.72476(12) 0.2534(2)
H7B H 0.4752 0.7136 0.1988
H8B H 0.3261 0.7552 0.2015
C7B C 0.5320(3) 0.75653(11) 0.3837(2)
C8B C 0.6211(3) 0.72115(11) 0.5009(3)
H9B H 0.6073 0.6773 0.5000
C9B C 0.7297(3) 0.75099(12) 0.6181(3)
H10B H 0.7898 0.7272 0.6958
C10B C 0.7496(3) 0.81675(12) 0.6205(3)
H11B H 0.8221 0.8367 0.7000
C11B C 0.6624(3) 0.85253(11) 0.5055(2)
C12B C 0.5540(3) 0.82202(11) 0.3870(2)
H12B H 0.4954 0.8459 0.3090
C13B C 0.6804(4) 0.92430(12) 0.5094(3)
H13B H 0.7738 0.9362 0.5935
H14B H 0.5785 0.9430 0.5110
C14B C 0.8546(3) 0.94239(10) 0.3756(2)
C15B C 0.9941(3) 0.90833(12) 0.4680(3)
H15B H 0.9894 0.8904 0.5460
C16B C 1.1359(3) 0.90191(13) 0.4422(3)
H16B H 1.2285 0.8796 0.5026
C17B C 1.1415(4) 0.92893(14) 0.3250(3)
H17B H 1.2363 0.9246 0.3047
C18B C 1.0025(4) 0.96202(12) 0.2411(3)
H18B H 1.0068 0.9806 0.1635
loop_
_geom_bond_atom_site_label_1
_geom_bond_atom_site_label_2
_geom_bond_site_symmetry_1
_geom_bond_site_symmetry_2
I1 Cu1 1_555 1_555
Cu1 N1 1_555 1_555
N1 C1 1_555 1_555
N2 H1 1_555 1_555
N3 H2 1_555 1_555
N4 C14 1_555 1_555
C1 H3 1_555 1_555
C2 C1 1_555 1_555
H4 C2 1_555 1_555
C3 C2 1_555 1_555
H5 C3 1_555 1_555
C4 C3 1_555 1_555
H6 C4 1_555 1_555
C5 N1 1_555 1_555
C6 N2 1_555 1_555
H7 C6 1_555 1_555
H8 C6 1_555 1_555
C7 C6 1_555 1_555
C8 C7 1_555 1_555
H9 C8 1_555 1_555
C9 C8 1_555 1_555
H10 C9 1_555 1_555
C10 C9 1_555 1_555
H11 C10 1_555 1_555
C11 C10 1_555 1_555
C12 C7 1_555 1_555
H12 C12 1_555 1_555
C13 N3 1_555 1_555
H13 C13 1_555 1_555
H14 C13 1_555 1_555
C14 N3 1_555 1_555
C15 C14 1_555 1_555
H15 C15 1_555 1_555
C16 C15 1_555 1_555
H16 C16 1_555 1_555
C17 C16 1_555 1_555
H17 C17 1_555 1_555
C18 N4 1_555 1_555
H18 C18 1_555 1_555
I1B Cu1 1_555 1_555
Cu1B I1 1_555 1_555
Cu1A N4 1_555 1_555
Cu1C N4B 1_555 1_555
N1B Cu1B 1_555 1_555
N2B H1B 1_555 1_555
N3B H2B 1_555 1_555
N4B C14B 1_555 1_555
N4A Cu1 1_555 1_555
N4C Cu1B 1_555 1_555
C1B N1B 1_555 1_555
H3B C1B 1_555 1_555
C2B C1B 1_555 1_555
H4B C2B 1_555 1_555
C3B C2B 1_555 1_555
H5B C3B 1_555 1_555
C4B C3B 1_555 1_555
H6B C4B 1_555 1_555
C5B N1B 1_555 1_555
C6B N2B 1_555 1_555
H7B C6B 1_555 1_555
H8B C6B 1_555 1_555
C7B C6B 1_555 1_555
C8B C7B 1_555 1_555
H9B C8B 1_555 1_555
C9B C8B 1_555 1_555
H10B C9B 1_555 1_555
C10B C9B 1_555 1_555
H11B C10B 1_555 1_555
C11B C10B 1_555 1_555
C12B C7B 1_555 1_555
H12B C12B 1_555 1_555
C13B N3B 1_555 1_555
H13B C13B 1_555 1_555
H14B C13B 1_555 1_555
C14B N3B 1_555 1_555
C15B C14B 1_555 1_555
H15B C15B 1_555 1_555
C16B C15B 1_555 1_555
H16B C16B 1_555 1_555
C17B C16B 1_555 1_555
H17B C17B 1_555 1_555
C18B N4B 1_555 1_555
H18B C18B 1_555 1_555
N2 C5 1_555 1_555
C4 C5 1_555 1_555
C11 C12 1_555 1_555
C11 C13 1_555 1_555
C17 C18 1_555 1_555
I1B Cu1B 1_555 1_555
N2B C5B 1_555 1_555
C4B C5B 1_555 1_555
C11B C12B 1_555 1_555
C11B C13B 1_555 1_555
C17B C18B 1_555 1_555

#END
