
#######################################################################
#
#                 Cambridge Crystallographic Data Centre
#                                CCDC 
#
#######################################################################
#
# If this CIF has been generated from an entry in the Cambridge 
# Structural Database, then it will include bibliographic, chemical, 
# crystal, experimental, refinement or atomic coordinate data resulting 
# from the CCDC's data processing and validation procedures.
#
#######################################################################

data_VACTEA
_symmetry_cell_setting           triclinic
_symmetry_space_group_name_H-M   'P -1'
_symmetry_Int_Tables_number      2
_space_group_name_Hall           '-P 1'
loop_
_symmetry_equiv_pos_site_id
_symmetry_equiv_pos_as_xyz
1 x,y,z
2 -x,-y,-z
_cell_length_a                   12.700(3)
_cell_length_b                   14.989(3)
_cell_length_c                   17.037(3)
_cell_angle_alpha                108.43(3)
_cell_angle_beta                 108.18(3)
_cell_angle_gamma                99.63(3)
_cell_volume                     2793.12
loop_
_atom_site_label
_atom_site_type_symbol
_atom_site_fract_x
_atom_site_fract_y
_atom_site_fract_z
Cu1 Cu 0.28071(7) 0.75348(6) 0.34804(6)
Cu2 Cu 0.23510(7) 0.75821(6) 0.15625(6)
Br1 Br 0.10426(8) 0.63740(8) 0.19087(6)
Br2 Br 0.41003(9) 0.87003(8) 0.31006(7)
P1 P 0.36703(15) 0.65411(13) 0.39889(11)
P2 P 0.14392(15) 0.85318(13) 0.10183(12)
N1 N -0.7072(5) 0.6580(4) 0.0768(4)
N2 N -0.5299(5) 0.7689(5) 0.1261(5)
H1 H -0.5561 0.8100 0.1570
N3 N 0.0551(5) 0.7327(5) 0.3877(5)
H2 H 0.0867 0.6921 0.3625
N4 N 0.2207(5) 0.8523(4) 0.4251(4)
C1 C -0.7839(7) 0.5697(6) 0.0209(6)
H3 H -0.8558 0.5550 0.0246
C2 C -0.7619(9) 0.5008(7) -0.0405(7)
H4 H -0.8182 0.4408 -0.0778
C3 C -0.6592(9) 0.5193(7) -0.0473(6)
H5 H -0.6439 0.4726 -0.0898
C4 C -0.5764(8) 0.6077(7) 0.0088(6)
H6 H -0.5038 0.6212 0.0061
C5 C -0.6039(6) 0.6776(5) 0.0707(5)
C6 C -0.4100(7) 0.8024(6) 0.1374(6)
H7 H -0.3852 0.8738 0.1625
H8 H -0.4064 0.7804 0.0785
C7 C -0.3246(6) 0.7678(5) 0.1970(6)
C8 C -0.2251(7) 0.7566(6) 0.1830(6)
H9 H -0.2149 0.7640 0.1335
C9 C -0.1413(7) 0.7347(6) 0.2409(6)
H10 H -0.0748 0.7286 0.2302
C10 C -0.1530(6) 0.7215(5) 0.3147(6)
C11 C -0.2553(7) 0.7300(6) 0.3261(6)
H11 H -0.2674 0.7196 0.3741
C12 C -0.3383(7) 0.7529(6) 0.2695(6)
H12 H -0.4050 0.7587 0.2799
C13 C -0.0643(7) 0.6939(6) 0.3762(6)
H13 H -0.0687 0.7166 0.4347
H14 H -0.0840 0.6227 0.3534
C14 C 0.1197(6) 0.8278(5) 0.4351(5)
C15 C 0.0879(7) 0.8987(7) 0.4931(5)
H15 H 0.0172 0.8822 0.4983
C16 C 0.1621(9) 0.9915(7) 0.5412(6)
H16 H 0.1430 1.0384 0.5807
C17 C 0.2622(9) 1.0153(7) 0.5319(6)
H17 H 0.3129 1.0787 0.5645
C18 C 0.2898(7) 0.9457(6) 0.4742(5)
H18 H 0.3599 0.9636 0.4684
C19 C 0.2870(6) 0.5869(5) 0.4436(5)
C20 C 0.1687(6) 0.5381(6) 0.3922(5)
H19 H 0.1340 0.5415 0.3368
C21 C 0.1031(8) 0.4853(7) 0.4226(7)
H20 H 0.0246 0.4538 0.3879
C22 C 0.1523(10) 0.4789(7) 0.5027(8)
H21 H 0.1072 0.4424 0.5221
C23 C 0.2657(10) 0.5247(7) 0.5548(6)
H22 H 0.2981 0.5205 0.6101
C24 C 0.3343(7) 0.5786(6) 0.5251(5)
H23 H 0.4127 0.6092 0.5607
C25 C 0.5081(6) 0.7165(5) 0.4903(5)
C26 C 0.5239(8) 0.8090(6) 0.5543(6)
H24 H 0.4643 0.8380 0.5468
C27 C 0.6261(10) 0.8569(7) 0.6278(7)
H25 H 0.6346 0.9176 0.6703
C28 C 0.7158(8) 0.8166(7) 0.6393(6)
H26 H 0.7846 0.8497 0.6897
C29 C 0.7051(7) 0.7284(7) 0.5776(6)
H27 H 0.7670 0.7019 0.5848
C30 C 0.6012(6) 0.6780(6) 0.5038(5)
H28 H 0.5938 0.6170 0.4624
C31 C 0.3946(6) 0.5565(5) 0.3189(4)
C32 C 0.4040(6) 0.4688(5) 0.3281(5)
H29 H 0.3928 0.4573 0.3759
C33 C 0.4295(7) 0.3986(5) 0.2680(5)
H30 H 0.4354 0.3403 0.2749
C34 C 0.4461(8) 0.4166(6) 0.1969(6)
H31 H 0.4645 0.3706 0.1562
C35 C 0.4354(9) 0.5017(7) 0.1871(6)
H32 H 0.4465 0.5129 0.1392
C36 C 0.4084(7) 0.5716(6) 0.2460(5)
H33 H 0.3996 0.6285 0.2371
C37 C 0.0452(6) 0.7902(5) -0.0156(5)
C38 C 0.0390(7) 0.8297(6) -0.0793(5)
H34 H 0.0862 0.8928 -0.0620
C39 C -0.0361(7) 0.7774(6) -0.1687(5)
H35 H -0.0375 0.8051 -0.2106
C40 C -0.1074(8) 0.6863(7) -0.1948(6)
H36 H -0.1572 0.6508 -0.2547
C41 C -0.1052(8) 0.6468(7) -0.1316(7)
H37 H -0.1565 0.5855 -0.1488
C42 C -0.0284(7) 0.6963(6) -0.0434(6)
H38 H -0.0258 0.6671 -0.0024
C43 C 0.2364(6) 0.9610(5) 0.1044(4)
C44 C 0.3386(8) 0.9552(7) 0.0912(7)
H39 H 0.3592 0.8973 0.0840
C45 C 0.4101(9) 1.0345(8) 0.0887(9)
H40 H 0.4776 1.0292 0.0795
C46 C 0.3812(9) 1.1203(7) 0.0999(7)
H41 H 0.4298 1.1737 0.0993
C47 C 0.2822(8) 1.1278(6) 0.1119(6)
H42 H 0.2627 1.1862 0.1186
C48 C 0.2098(6) 1.0498(5) 0.1142(5)
H43 H 0.1420 1.0564 0.1224
C49 C 0.0529(6) 0.9044(5) 0.1560(5)
C50 C -0.0462(7) 0.9247(6) 0.1119(6)
H44 H -0.0727 0.9066 0.0500
C51 C -0.1066(8) 0.9717(7) 0.1589(7)
H45 H -0.1727 0.9853 0.1287
C52 C -0.0684(9) 0.9980(7) 0.2499(7)
H46 H -0.1087 1.0290 0.2817
C53 C 0.0287(9) 0.9785(7) 0.2933(6)
H47 H 0.0542 0.9971 0.3552
C54 C 0.0905(8) 0.9326(6) 0.2496(5)
H48 H 0.1566 0.9201 0.2813
Cu2_2 Cu -0.76490(7) 0.75821(6) 0.15625(6)
N1_2 N 0.2928(5) 0.6580(4) 0.0768(4)
C55 C -0.240(2) 0.2207(16) 0.3636(14)
H49 H -0.2293 0.2318 0.4252
H50 H -0.2748 0.2694 0.3492
Cl1 Cl -0.3289(8) 0.1182(10) 0.3027(7)
Cl2 Cl -0.1072(7) 0.2442(4) 0.3601(4)
C56 C 0.2084(14) 0.6735(11) -0.1605(9)
H51 H 0.2012 0.6545 -0.1126
H52 H 0.1386 0.6897 -0.1872
Cl3 Cl 0.3217(6) 0.7720(5) -0.1177(5)
Cl4 Cl 0.2192(6) 0.5798(5) -0.2374(3)
loop_
_geom_bond_atom_site_label_1
_geom_bond_atom_site_label_2
_geom_bond_site_symmetry_1
_geom_bond_site_symmetry_2
Cu1 Br1 1_555 1_555
Cu2 Br1 1_555 1_555
Br2 Cu1 1_555 1_555
P1 Cu1 1_555 1_555
P2 Cu2 1_555 1_555
N1 C1 1_555 1_555
N2 H1 1_555 1_555
N3 H2 1_555 1_555
N4 Cu1 1_555 1_555
C1 H3 1_555 1_555
C2 C1 1_555 1_555
H4 C2 1_555 1_555
C3 C2 1_555 1_555
H5 C3 1_555 1_555
C4 C3 1_555 1_555
H6 C4 1_555 1_555
C5 N1 1_555 1_555
C6 N2 1_555 1_555
H7 C6 1_555 1_555
H8 C6 1_555 1_555
C7 C6 1_555 1_555
C8 C7 1_555 1_555
H9 C8 1_555 1_555
C9 C8 1_555 1_555
H10 C9 1_555 1_555
C10 C9 1_555 1_555
C11 C10 1_555 1_555
H11 C11 1_555 1_555
C12 C7 1_555 1_555
H12 C12 1_555 1_555
C13 N3 1_555 1_555
H13 C13 1_555 1_555
H14 C13 1_555 1_555
C14 N3 1_555 1_555
C15 C14 1_555 1_555
H15 C15 1_555 1_555
C16 C15 1_555 1_555
H16 C16 1_555 1_555
C17 C16 1_555 1_555
H17 C17 1_555 1_555
C18 N4 1_555 1_555
H18 C18 1_555 1_555
C19 P1 1_555 1_555
C20 C19 1_555 1_555
H19 C20 1_555 1_555
C21 C20 1_555 1_555
H20 C21 1_555 1_555
C22 C21 1_555 1_555
H21 C22 1_555 1_555
C23 C22 1_555 1_555
H22 C23 1_555 1_555
C24 C19 1_555 1_555
H23 C24 1_555 1_555
C25 P1 1_555 1_555
C26 C25 1_555 1_555
H24 C26 1_555 1_555
C27 C26 1_555 1_555
H25 C27 1_555 1_555
C28 C27 1_555 1_555
H26 C28 1_555 1_555
C29 C28 1_555 1_555
H27 C29 1_555 1_555
C30 C25 1_555 1_555
H28 C30 1_555 1_555
C31 P1 1_555 1_555
C32 C31 1_555 1_555
H29 C32 1_555 1_555
C33 C32 1_555 1_555
H30 C33 1_555 1_555
C34 C33 1_555 1_555
H31 C34 1_555 1_555
C35 C34 1_555 1_555
H32 C35 1_555 1_555
C36 C31 1_555 1_555
H33 C36 1_555 1_555
C37 P2 1_555 1_555
C38 C37 1_555 1_555
H34 C38 1_555 1_555
C39 C38 1_555 1_555
H35 C39 1_555 1_555
C40 C39 1_555 1_555
H36 C40 1_555 1_555
C41 C40 1_555 1_555
H37 C41 1_555 1_555
C42 C37 1_555 1_555
H38 C42 1_555 1_555
C43 P2 1_555 1_555
C44 C43 1_555 1_555
H39 C44 1_555 1_555
C45 C44 1_555 1_555
H40 C45 1_555 1_555
C46 C45 1_555 1_555
H41 C46 1_555 1_555
C47 C46 1_555 1_555
H42 C47 1_555 1_555
C48 C43 1_555 1_555
H43 C48 1_555 1_555
C49 P2 1_555 1_555
C50 C49 1_555 1_555
H44 C50 1_555 1_555
C51 C50 1_555 1_555
H45 C51 1_555 1_555
C52 C51 1_555 1_555
H46 C52 1_555 1_555
C53 C52 1_555 1_555
H47 C53 1_555 1_555
C54 C49 1_555 1_555
H48 C54 1_555 1_555
C55 H49 1_555 1_555
H50 C55 1_555 1_555
C56 H51 1_555 1_555
H52 C56 1_555 1_555
Cl1 C55 1_555 1_555
Cl2 C55 1_555 1_555
Cl3 C56 1_555 1_555
Cl4 C56 1_555 1_555
Cu2_2 N1 1_555 1_555
N1_2 Cu2 1_555 1_555
Cu2 Br2 1_555 1_555
N2 C5 1_555 1_555
N4 C14 1_555 1_555
C4 C5 1_555 1_555
C10 C13 1_555 1_555
C11 C12 1_555 1_555
C17 C18 1_555 1_555
C23 C24 1_555 1_555
C29 C30 1_555 1_555
C35 C36 1_555 1_555
C41 C42 1_555 1_555
C47 C48 1_555 1_555
C53 C54 1_555 1_555

#END
