
#######################################################################
#
#                 Cambridge Crystallographic Data Centre
#                                CCDC 
#
#######################################################################
#
# If this CIF has been generated from an entry in the Cambridge 
# Structural Database, then it will include bibliographic, chemical, 
# crystal, experimental, refinement or atomic coordinate data resulting 
# from the CCDC's data processing and validation procedures.
#
#######################################################################

data_VACTIE
_symmetry_cell_setting           triclinic
_symmetry_space_group_name_H-M   'P -1'
_symmetry_Int_Tables_number      2
_space_group_name_Hall           '-P 1'
loop_
_symmetry_equiv_pos_site_id
_symmetry_equiv_pos_as_xyz
1 x,y,z
2 -x,-y,-z
_cell_length_a                   8.2067(5)
_cell_length_b                   12.7371(10)
_cell_length_c                   12.8425(11)
_cell_angle_alpha                112.781(3)
_cell_angle_beta                 102.329(2)
_cell_angle_gamma                102.9761(19)
_cell_volume                     1136.65
loop_
_atom_site_label
_atom_site_type_symbol
_atom_site_fract_x
_atom_site_fract_y
_atom_site_fract_z
I1 I 0.75568(7) 0.34780(6) 0.46398(5)
Cu1 Cu 1.09579(14) 0.41874(11) 0.47907(9)
N1 N 1.1151(8) 0.3191(6) 0.3153(6)
N2 N 1.4502(9) 0.3046(6) 0.1716(6)
H1 H 1.5367 0.3634 0.2316
N3 N 1.2294(8) 0.4034(6) 0.6235(6)
N4 N 1.6131(11) 0.3198(9) 0.7068(7)
H2 H 1.6402 0.3091 0.6433
C1 C 0.9722(11) 0.2312(8) 0.2254(8)
H3 H 0.8644 0.2157 0.2389
C2 C 0.9781(11) 0.1635(8) 0.1146(8)
H4 H 0.8759 0.1033 0.0543
C3 C 1.1363(11) 0.1850(7) 0.0930(7)
H5 H 1.1414 0.1402 0.0176
C4 C 1.2890(10) 0.2744(7) 0.1847(7)
C5 C 1.2683(10) 0.3394(7) 0.2941(7)
H6 H 1.3678 0.4008 0.3561
C6 C 1.4833(13) 0.2428(8) 0.0617(9)
H7 H 1.5957 0.2922 0.0661
H8 H 1.3918 0.2376 -0.0038
C7 C 1.4889(10) 0.1161(7) 0.0310(7)
C8 C 1.4801(10) 0.0421(8) -0.0832(7)
H9 H 1.4653 0.0692 -0.1411
C9 C 1.5069(10) 0.0719(7) 0.1134(7)
H10 H 1.5105 0.1193 0.1906
C10 C 1.1827(11) 0.4298(8) 0.7220(8)
H11 H 1.0840 0.4539 0.7238
C11 C 1.2743(12) 0.4228(9) 0.8199(8)
H12 H 1.2378 0.4423 0.8867
C12 C 1.4212(12) 0.3868(9) 0.8197(8)
H13 H 1.4842 0.3816 0.8859
C13 C 1.4732(11) 0.3583(8) 0.7182(7)
C14 C 1.3715(10) 0.3690(7) 0.6230(7)
H14 H 1.4050 0.3511 0.5550
C15 C 1.7188(14) 0.2959(10) 0.7941(10)
H15 H 1.7747 0.2405 0.7538
H16 H 1.6398 0.2547 0.8233
C16 C 1.8621(12) 0.4046(9) 0.9013(8)
C17 C 1.9529(13) 0.3874(10) 0.9934(9)
H17 H 1.9206 0.3111 0.9901
C18 C 1.9096(13) 0.5188(10) 0.9099(9)
H18 H 1.8482 0.5329 0.8498
I1A I 1.24432(7) 0.65220(6) 0.53602(5)
Cu1A Cu 0.90421(14) 0.58126(11) 0.52093(9)
Cu1A_2 Cu 1.90421(14) -0.41874(11) -0.47907(9)
Cu1A_3 Cu 2.90421(14) 0.58126(11) 1.52093(9)
N1A N 1.8849(8) -0.3191(6) -0.3153(6)
N1A_2 N 0.8849(8) 0.6809(6) 0.6847(6)
N2A N 1.5498(9) -0.3046(6) -0.1716(6)
H1A H 1.4633 -0.3634 -0.2316
N3A N 2.7706(8) 0.5966(6) 1.3765(6)
N3A_2 N 0.7706(8) 0.5966(6) 0.3765(6)
N4A N 2.3869(11) 0.6802(9) 1.2932(7)
H2A H 2.3598 0.6909 1.3567
C1A C 2.0278(11) -0.2312(8) -0.2254(8)
H3A H 2.1356 -0.2157 -0.2389
C2A C 2.0219(11) -0.1635(8) -0.1146(8)
H4A H 2.1241 -0.1033 -0.0543
C3A C 1.8637(11) -0.1850(7) -0.0930(7)
H5A H 1.8586 -0.1402 -0.0176
C4A C 1.7110(10) -0.2744(7) -0.1847(7)
C5A C 1.7317(10) -0.3394(7) -0.2941(7)
H6A H 1.6322 -0.4008 -0.3561
C6A C 1.5167(13) -0.2428(8) -0.0617(9)
H7A H 1.4043 -0.2922 -0.0661
H8A H 1.6082 -0.2376 0.0038
C7A C 1.5111(10) -0.1161(7) -0.0310(7)
C8A C 1.5199(10) -0.0421(8) 0.0832(7)
H9A H 1.5347 -0.0692 0.1411
C9A C 1.4931(10) -0.0719(7) -0.1134(7)
H10A H 1.4895 -0.1193 -0.1906
C10A C 2.8173(11) 0.5702(8) 1.2780(8)
H11A H 2.9160 0.5461 1.2762
C11A C 2.7257(12) 0.5772(9) 1.1801(8)
H12A H 2.7622 0.5577 1.1133
C12A C 2.5788(12) 0.6132(9) 1.1803(8)
H13A H 2.5158 0.6184 1.1141
C13A C 2.5268(11) 0.6417(8) 1.2818(7)
C14A C 2.6285(10) 0.6310(7) 1.3770(7)
H14A H 2.5950 0.6489 1.4450
C15A C 2.2812(14) 0.7041(10) 1.2059(10)
H15A H 2.2253 0.7595 1.2462
H16A H 2.3602 0.7453 1.1767
C16A C 2.1379(12) 0.5954(9) 1.0987(8)
C17A C 2.0471(13) 0.6126(10) 1.0066(9)
H17A H 2.0794 0.6889 1.0099
C18A C 2.0904(13) 0.4812(10) 1.0901(9)
H18A H 2.1518 0.4671 1.1502
C19 C 0.071(6) -0.068(5) 0.239(3)
H19 H 0.0944 -0.1349 0.1830
H20 H 0.0011 -0.0385 0.1937
Cl1 Cl 0.262(4) 0.042(3) 0.329(3)
Cl2 Cl -0.046(6) -0.119(4) 0.311(5)
C20? C 0.101(9) 0.030(4) 0.375(4)
Cl3? Cl 0.228(4) -0.022(3) 0.445(3)
Cl4? Cl -0.044(7) -0.072(6) 0.242(4)
H21? H 0.1766 0.0932 0.3652
H22? H 0.0363 0.0663 0.4253
loop_
_geom_bond_atom_site_label_1
_geom_bond_atom_site_label_2
_geom_bond_site_symmetry_1
_geom_bond_site_symmetry_2
I1 Cu1 1_555 1_555
Cu1 N1 1_555 1_555
N1 C1 1_555 1_555
N2 H1 1_555 1_555
N3 Cu1 1_555 1_555
N4 H2 1_555 1_555
C1 H3 1_555 1_555
C2 C1 1_555 1_555
H4 C2 1_555 1_555
C3 C2 1_555 1_555
H5 C3 1_555 1_555
C4 N2 1_555 1_555
C5 N1 1_555 1_555
H6 C5 1_555 1_555
C6 N2 1_555 1_555
H7 C6 1_555 1_555
H8 C6 1_555 1_555
C7 C6 1_555 1_555
C8 C7 1_555 1_555
H9 C8 1_555 1_555
C9 C7 1_555 1_555
H10 C9 1_555 1_555
C10 N3 1_555 1_555
H11 C10 1_555 1_555
C11 C10 1_555 1_555
H12 C11 1_555 1_555
C12 C11 1_555 1_555
H13 C12 1_555 1_555
C13 N4 1_555 1_555
C14 N3 1_555 1_555
H14 C14 1_555 1_555
C15 N4 1_555 1_555
H15 C15 1_555 1_555
H16 C15 1_555 1_555
C16 C15 1_555 1_555
C17 C16 1_555 1_555
H17 C17 1_555 1_555
C18 C16 1_555 1_555
H18 C18 1_555 1_555
C19 H19 1_555 1_555
H20 C19 1_555 1_555
Cl1 C19 1_555 1_555
Cl2 C19 1_555 1_555
I1A Cu1 1_555 1_555
Cu1A I1 1_555 1_555
Cu1A_2 N1A 1_555 1_555
Cu1A_3 N3A 1_555 1_555
N1A C1A 1_555 1_555
N1A_2 Cu1A 1_555 1_555
N2A H1A 1_555 1_555
N3A C10A 1_555 1_555
N3A_2 Cu1A 1_555 1_555
N4A H2A 1_555 1_555
C1A H3A 1_555 1_555
C2A C1A 1_555 1_555
H4A C2A 1_555 1_555
C3A C2A 1_555 1_555
H5A C3A 1_555 1_555
C4A N2A 1_555 1_555
C5A N1A 1_555 1_555
H6A C5A 1_555 1_555
C6A N2A 1_555 1_555
H7A C6A 1_555 1_555
H8A C6A 1_555 1_555
C7A C6A 1_555 1_555
C8A C9 1_555 1_555
H9A C8A 1_555 1_555
C9A C8 1_555 1_555
H10A C9A 1_555 1_555
C10A H11A 1_555 1_555
C11A C10A 1_555 1_555
H12A C11A 1_555 1_555
C12A C11A 1_555 1_555
H13A C12A 1_555 1_555
C13A N4A 1_555 1_555
C14A N3A 1_555 1_555
H14A C14A 1_555 1_555
C15A N4A 1_555 1_555
H15A C15A 1_555 1_555
H16A C15A 1_555 1_555
C16A C15A 1_555 1_555
C17A C18 1_555 1_555
H17A C17A 1_555 1_555
C18A C17 1_555 1_555
H18A C18A 1_555 1_555
C3 C4 1_555 1_555
C4 C5 1_555 1_555
C12 C13 1_555 1_555
C13 C14 1_555 1_555
I1A Cu1A 1_555 1_555
C3A C4A 1_555 1_555
C4A C5A 1_555 1_555
C7A C8A 1_555 1_555
C7A C9A 1_555 1_555
C12A C13A 1_555 1_555
C13A C14A 1_555 1_555
C16A C17A 1_555 1_555
C16A C18A 1_555 1_555

#END
