
#######################################################################
#
#                 Cambridge Crystallographic Data Centre
#                                CCDC 
#
#######################################################################
#
# If this CIF has been generated from an entry in the Cambridge 
# Structural Database, then it will include bibliographic, chemical, 
# crystal, experimental, refinement or atomic coordinate data resulting 
# from the CCDC's data processing and validation procedures.
#
#######################################################################

data_VACVAY
_symmetry_cell_setting           monoclinic
_symmetry_space_group_name_H-M   'C 2/c'
_symmetry_Int_Tables_number      15
_space_group_name_Hall           '-C 2yn'
loop_
_symmetry_equiv_pos_site_id
_symmetry_equiv_pos_as_xyz
1 x,y,z
2 -x,y,1/2-z
3 1/2+x,1/2+y,z
4 1/2-x,1/2+y,1/2-z
5 -x,-y,-z
6 x,-y,1/2+z
7 1/2-x,1/2-y,-z
8 1/2+x,1/2-y,1/2+z
_cell_length_a                   8.2047(16)
_cell_length_b                   29.110(6)
_cell_length_c                   16.703(3)
_cell_angle_alpha                90
_cell_angle_beta                 95.60(3)
_cell_angle_gamma                90
_cell_volume                     3970.29
loop_
_atom_site_label
_atom_site_type_symbol
_atom_site_fract_x
_atom_site_fract_y
_atom_site_fract_z
Cu1 Cu 0.50089(15) 0.40894(4) 0.15785(8)
Cu2 Cu 0.38287(15) 0.32586(4) 0.17648(9)
I1 I 0.69511(7) 0.33755(2) 0.16358(4)
I2 I 0.19875(8) 0.39559(2) 0.11110(5)
N1 N 0.6212(9) 0.4691(3) 0.1523(5)
N2 N 0.3869(10) 0.5062(3) 0.1028(6)
H1 H 0.3337 0.4838 0.1217
N3 N -0.0186(10) 0.7353(2) 0.0823(5)
H2 H 0.0333 0.7601 0.0964
N4 N -0.2342(9) 0.7670(3) 0.1402(5)
C1 C 0.7848(12) 0.4687(3) 0.1691(6)
H3 H 0.8330 0.4423 0.1924
C2 C 0.8829(13) 0.5040(4) 0.1545(7)
H4 H 0.9953 0.5022 0.1683
C3 C 0.8120(15) 0.5436(4) 0.1178(6)
H5 H 0.8773 0.5681 0.1052
C4 C 0.6463(13) 0.5454(3) 0.1012(6)
H6 H 0.5967 0.5716 0.0782
C5 C 0.5501(11) 0.5069(3) 0.1192(6)
C6 C 0.2938(12) 0.5409(3) 0.0547(6)
H7 H 0.1943 0.5268 0.0300
H8 H 0.3578 0.5504 0.0118
C7 C 0.2471(10) 0.5833(3) 0.0995(5)
C8 C 0.2673(13) 0.5860(4) 0.1824(6)
H9 H 0.3117 0.5615 0.2128
C9 C 0.2204(14) 0.6259(4) 0.2201(6)
H10 H 0.2348 0.6279 0.2759
C10 C 0.1529(13) 0.6623(3) 0.1758(6)
H11 H 0.1205 0.6886 0.2019
C11 C 0.1332(10) 0.6599(3) 0.0928(5)
C12 C 0.1791(10) 0.6205(3) 0.0557(5)
H12 H 0.1643 0.6186 -0.0001
C13 C 0.0679(13) 0.7003(3) 0.0405(6)
H13 H 0.1593 0.7147 0.0175
H14 H -0.0056 0.6884 -0.0037
C14 C -0.1739(10) 0.7313(3) 0.1002(5)
C15 C -0.2735(11) 0.6929(3) 0.0794(7)
H15 H -0.2317 0.6685 0.0517
C16 C -0.4293(13) 0.6911(4) 0.0992(7)
H16 H -0.4943 0.6655 0.0858
C17 C -0.4902(14) 0.7272(4) 0.1392(7)
H17 H -0.5967 0.7267 0.1538
C18 C -0.3896(12) 0.7645(3) 0.1573(6)
H18 H -0.4327 0.7894 0.1830
Cu2A Cu 0.61713(15) 0.32586(4) 0.32352(9)
Cu2B Cu -0.11713(15) 0.82586(4) 0.17648(9)
I1A I 0.30489(7) 0.33755(2) 0.33642(4)
N4B N 0.2658(9) 0.2670(3) 0.1402(5)
loop_
_geom_bond_atom_site_label_1
_geom_bond_atom_site_label_2
_geom_bond_site_symmetry_1
_geom_bond_site_symmetry_2
Cu1 I1 1_555 1_555
Cu2 I1 1_555 1_555
I1 Cu2A 1_555 1_555
I2 Cu1 1_555 1_555
N1 Cu1 1_555 1_555
N2 H1 1_555 1_555
N3 H2 1_555 1_555
N4 C14 1_555 1_555
C1 N1 1_555 1_555
H3 C1 1_555 1_555
C2 C1 1_555 1_555
H4 C2 1_555 1_555
C3 C2 1_555 1_555
H5 C3 1_555 1_555
C4 C3 1_555 1_555
H6 C4 1_555 1_555
C5 N1 1_555 1_555
C6 N2 1_555 1_555
H7 C6 1_555 1_555
H8 C6 1_555 1_555
C7 C6 1_555 1_555
C8 C7 1_555 1_555
H9 C8 1_555 1_555
C9 C8 1_555 1_555
H10 C9 1_555 1_555
C10 C9 1_555 1_555
H11 C10 1_555 1_555
C11 C10 1_555 1_555
C12 C7 1_555 1_555
H12 C12 1_555 1_555
C13 N3 1_555 1_555
H13 C13 1_555 1_555
H14 C13 1_555 1_555
C14 N3 1_555 1_555
C15 C14 1_555 1_555
H15 C15 1_555 1_555
C16 C15 1_555 1_555
H16 C16 1_555 1_555
C17 C16 1_555 1_555
H17 C17 1_555 1_555
C18 N4 1_555 1_555
H18 C18 1_555 1_555
Cu2A I1A 1_555 1_555
Cu2B N4 1_555 1_555
I1A Cu2 1_555 1_555
N4B Cu2 1_555 1_555
Cu2 I2 1_555 1_555
N2 C5 1_555 1_555
C4 C5 1_555 1_555
C11 C12 1_555 1_555
C11 C13 1_555 1_555
C17 C18 1_555 1_555

#END
