
#######################################################################
#
#                 Cambridge Crystallographic Data Centre
#                                CCDC 
#
#######################################################################
#
# If this CIF has been generated from an entry in the Cambridge 
# Structural Database, then it will include bibliographic, chemical, 
# crystal, experimental, refinement or atomic coordinate data resulting 
# from the CCDC's data processing and validation procedures.
#
#######################################################################

data_VADCOS
_symmetry_cell_setting           monoclinic
_symmetry_space_group_name_H-M   'C 2/c'
_symmetry_Int_Tables_number      15
_space_group_name_Hall           '-C 2yn'
loop_
_symmetry_equiv_pos_site_id
_symmetry_equiv_pos_as_xyz
1 x,y,z
2 1/2+x,1/2+y,z
3 -x,y,1/2-z
4 1/2-x,1/2+y,1/2-z
5 -x,-y,-z
6 1/2-x,1/2-y,-z
7 x,-y,1/2+z
8 1/2+x,1/2-y,1/2+z
_cell_length_a                   13.391(3)
_cell_length_b                   16.571(4)
_cell_length_c                   19.312(4)
_cell_angle_alpha                90
_cell_angle_beta                 109.82(2)
_cell_angle_gamma                90
_cell_volume                     4031.52
loop_
_atom_site_label
_atom_site_type_symbol
_atom_site_fract_x
_atom_site_fract_y
_atom_site_fract_z
Mn2 Mn 0.39497(8) 1.05158(7) 0.35335(5)
O3 O 0.4619(4) 1.1303(3) 0.2926(3)
C7 C 0.5000 1.0974(6) 0.2500
C8 C 0.5000 1.0028(6) 0.2500
O4 O 0.4594(4) 0.9674(3) 0.2914(2)
O5 O 0.5416(4) 1.0719(3) 0.4490(3)
O6 O 0.3856(4) 0.9622(3) 0.4338(2)
O7 O 0.2988(3) 1.1380(3) 0.3854(2)
O8 O 0.2387(4) 1.0422(3) 0.2649(2)
O9 O 0.1418(3) 1.1995(3) 0.3454(2)
O10 O 0.0904(3) 1.1154(3) 0.2185(2)
C9 C 0.5451(5) 1.0317(4) 0.5044(4)
C10 C 0.2080(5) 1.1500(4) 0.3392(3)
C11 C 0.1767(5) 1.0974(4) 0.2673(4)
Mn3 Mn 0.0000 1.21273(9) 0.2500
O11 O 0.0655(4) 1.3026(3) 0.1956(3)
O3B O 0.5381(4) 1.1303(3) 0.2074(3)
O4B O 0.5406(4) 0.9674(3) 0.2086(2)
C9D C 0.4549(5) 0.9683(4) 0.4956(4)
O6D O 0.6144(4) 1.0378(3) 0.5662(2)
O9B O -0.1418(3) 1.1995(3) 0.1546(2)
O10B O -0.0904(3) 1.1154(3) 0.2815(2)
O11B O -0.0655(4) 1.3026(3) 0.3044(3)
Mn2B Mn 0.60503(8) 1.05158(7) 0.14665(5)
O5D O 0.4584(4) 0.9281(3) 0.5510(3)
Mn2D Mn 0.60503(8) 0.94842(7) 0.64665(5)
C10B C -0.2080(5) 1.1500(4) 0.1608(3)
C11B C -0.1767(5) 1.0974(4) 0.2327(4)
O5B O 0.4584(4) 1.0719(3) 0.0510(3)
O6B O 0.6144(4) 0.9622(3) 0.0662(2)
O7B O 0.7012(3) 1.1380(3) 0.1146(2)
O8B O 0.7613(4) 1.0422(3) 0.2351(2)
O3D O 0.5381(4) 0.8697(3) 0.7074(3)
O4D O 0.5406(4) 1.0326(3) 0.7086(2)
O7D O 0.7012(3) 0.8620(3) 0.6146(2)
O8D O 0.7613(4) 0.9578(3) 0.7351(2)
O7B_2 O -0.2988(3) 1.1380(3) 0.1146(2)
O8B_2 O -0.2387(4) 1.0422(3) 0.2351(2)
C9B C 0.4549(5) 1.0317(4) -0.0044(4)
C9F C 0.5451(5) 0.9683(4) 0.0044(4)
C10B_2 C 0.7920(5) 1.1500(4) 0.1608(3)
C11B_2 C 0.8233(5) 1.0974(4) 0.2327(4)
C7D C 0.5000 0.9026(6) 0.7500
C8D C 0.5000 0.9972(6) 0.7500
C10D C 0.7920(5) 0.8500(4) 0.6608(3)
C11D C 0.8233(5) 0.9026(4) 0.7327(4)
O6F O 0.3856(4) 1.0378(3) -0.0662(2)
O5F O 0.5416(4) 0.9281(3) -0.0510(3)
O3F O 0.4619(4) 0.8697(3) 0.7926(3)
O4F O 0.4594(4) 1.0326(3) 0.7914(2)
O9D O 0.8582(3) 0.8005(3) 0.6546(2)
O10D O 0.9096(3) 0.8846(3) 0.7815(2)
Mn2F Mn 0.39497(8) 0.94842(7) -0.14665(5)
Mn2F_2 Mn 0.39497(8) 0.94842(7) 0.85335(5)
Mn3D Mn 1.0000 0.78727(9) 0.7500
O3F_2 O 0.4619(4) 0.8697(3) -0.2074(3)
O4F_2 O 0.4594(4) 1.0326(3) -0.2086(2)
O7F O 0.2988(3) 0.8620(3) -0.1146(2)
O8F O 0.2387(4) 0.9578(3) -0.2351(2)
O9F O 1.1418(3) 0.8005(3) 0.8454(2)
O10F O 1.0904(3) 0.8846(3) 0.7185(2)
O11D O 0.9345(4) 0.6974(3) 0.8044(3)
O11F O 1.0655(4) 0.6974(3) 0.6956(3)
C10F C 0.2080(5) 0.8500(4) -0.1608(3)
C11F C 0.1767(5) 0.9026(4) -0.2327(4)
C10F_2 C 1.2080(5) 0.8500(4) 0.8392(3)
C11F_2 C 1.1767(5) 0.9026(4) 0.7673(4)
O9F_2 O 0.1418(3) 0.8005(3) -0.1546(2)
O10F_2 O 0.0904(3) 0.8846(3) -0.2815(2)
O12 O 0.1882(6) 0.9000(4) 0.3796(4)
O13 O 0.2320(5) 0.2620(5) 0.1533(4)
O14 O 0.2659(5) 0.1346(5) 0.0730(5)
Mn1 Mn 0.03271(8) 0.95032(6) 0.05615(5)
O1 O 0.0854(3) 1.0399(3) 0.0265(2)
O2 O -0.0296(4) 1.0031(3) 0.1176(2)
N1 N 0.1025(4) 0.8775(3) -0.0008(3)
N2 N 0.1710(4) 0.9258(3) 0.1410(3)
N3 N -0.0132(5) 0.8399(4) 0.0848(3)
C1 C 0.2142(6) 0.8604(6) 0.0414(4)
C2 C 0.2553(6) 0.9092(5) 0.1081(4)
C3 C 0.1536(7) 0.8576(6) 0.1855(4)
C4 C 0.0462(7) 0.8314(6) 0.1658(4)
C5 C 0.0016(7) 0.7741(5) 0.0373(4)
C6 C 0.0356(7) 0.8028(5) -0.0214(4)
H1 H 0.1048(4) 0.9043(3) -0.0443(3)
H2 H 0.1935(4) 0.9704(3) 0.1744(3)
H3 H -0.0879(5) 0.8369(4) 0.0765(3)
H4 H 0.2588(6) 0.8712(6) 0.0105(4)
H5 H 0.2208(6) 0.8045(6) 0.0551(4)
H6 H 0.3128(6) 0.8809(5) 0.1434(4)
H7 H 0.2806(6) 0.9596(5) 0.0960(4)
H8 H 0.1773(7) 0.8738(6) 0.2362(4)
H9 H 0.1955(7) 0.8128(6) 0.1796(4)
H10 H 0.0456(7) 0.7755(6) 0.1789(4)
H11 H 0.0112(7) 0.8628(6) 0.1925(4)
H12 H 0.0542(7) 0.7374(5) 0.0671(4)
H13 H -0.0646(7) 0.7462(5) 0.0163(4)
H14 H 0.0764(7) 0.7613(5) -0.0340(4)
H15 H -0.0261(7) 0.8146(5) -0.0632(4)
O1D O -0.0854(3) 0.9601(3) -0.0265(2)
Mn1D Mn -0.03271(8) 1.04968(6) -0.05615(5)
O2D O 0.0296(4) 0.9969(3) -0.1176(2)
N1D N -0.1025(4) 1.1225(3) 0.0008(3)
N2D N -0.1710(4) 1.0742(3) -0.1410(3)
N3D N 0.0132(5) 1.1601(4) -0.0848(3)
C1D C -0.2142(6) 1.1396(6) -0.0414(4)
C6D C -0.0356(7) 1.1972(5) 0.0214(4)
H1D H -0.1048(4) 1.0957(3) 0.0443(3)
C2D C -0.2553(6) 1.0908(5) -0.1081(4)
C3D C -0.1536(7) 1.1424(6) -0.1855(4)
H2D H -0.1935(4) 1.0296(3) -0.1744(3)
C4D C -0.0462(7) 1.1686(6) -0.1658(4)
C5D C -0.0016(7) 1.2259(5) -0.0373(4)
H3D H 0.0879(5) 1.1631(4) -0.0765(3)
H4D H -0.2588(6) 1.1288(6) -0.0105(4)
H5D H -0.2208(6) 1.1955(6) -0.0551(4)
H14D H -0.0764(7) 1.2387(5) 0.0340(4)
H15D H 0.0261(7) 1.1854(5) 0.0632(4)
H6D H -0.3128(6) 1.1191(5) -0.1434(4)
H7D H -0.2806(6) 1.0404(5) -0.0960(4)
H8D H -0.1773(7) 1.1262(6) -0.2362(4)
H9D H -0.1955(7) 1.1872(6) -0.1796(4)
H10D H -0.0456(7) 1.2245(6) -0.1789(4)
H11D H -0.0112(7) 1.1372(6) -0.1925(4)
H12D H -0.0542(7) 1.2626(5) -0.0671(4)
H13D H 0.0646(7) 1.2538(5) -0.0163(4)
loop_
_geom_bond_atom_site_label_1
_geom_bond_atom_site_label_2
_geom_bond_site_symmetry_1
_geom_bond_site_symmetry_2
Mn1 O1 1_555 1_555
O1 Mn1D 1_555 1_555
O2 Mn1 1_555 1_555
N1 Mn1 1_555 1_555
N2 Mn1 1_555 1_555
N3 Mn1 1_555 1_555
C1 N1 1_555 1_555
C2 N2 1_555 1_555
C3 N2 1_555 1_555
C4 N3 1_555 1_555
C5 N3 1_555 1_555
C6 N1 1_555 1_555
Mn2 O3 1_555 1_555
O3 C7 1_555 1_555
C7 C8 1_555 1_555
C8 O4 1_555 1_555
O4 Mn2 1_555 1_555
O5 Mn2 1_555 1_555
O6 Mn2 1_555 1_555
O7 Mn2 1_555 1_555
O8 Mn2 1_555 1_555
O9 C10 1_555 1_555
O10 C11 1_555 1_555
C9 O5 1_555 1_555
C10 O7 1_555 1_555
C11 O8 1_555 1_555
Mn3 O9 1_555 1_555
O11 Mn3 1_555 1_555
H1 N1 1_555 1_555
H2 N2 1_555 1_555
H3 N3 1_555 1_555
H4 C1 1_555 1_555
H5 C1 1_555 1_555
H6 C2 1_555 1_555
H7 C2 1_555 1_555
H8 C3 1_555 1_555
H9 C3 1_555 1_555
H10 C4 1_555 1_555
H11 C4 1_555 1_555
H12 C5 1_555 1_555
H13 C5 1_555 1_555
H14 C6 1_555 1_555
H15 C6 1_555 1_555
O1D Mn1 1_555 1_555
Mn1D O1D 1_555 1_555
O2D Mn1D 1_555 1_555
N1D Mn1D 1_555 1_555
N2D Mn1D 1_555 1_555
N3D Mn1D 1_555 1_555
C1D N1D 1_555 1_555
C6D N1D 1_555 1_555
H1D N1D 1_555 1_555
C2D N2D 1_555 1_555
C3D N2D 1_555 1_555
H2D N2D 1_555 1_555
C4D N3D 1_555 1_555
C5D N3D 1_555 1_555
H3D N3D 1_555 1_555
H4D C1D 1_555 1_555
H5D C1D 1_555 1_555
H14D C6D 1_555 1_555
H15D C6D 1_555 1_555
H6D C2D 1_555 1_555
H7D C2D 1_555 1_555
H8D C3D 1_555 1_555
H9D C3D 1_555 1_555
H10D C4D 1_555 1_555
H11D C4D 1_555 1_555
H12D C5D 1_555 1_555
H13D C5D 1_555 1_555
O3B C7 1_555 1_555
O4B C8 1_555 1_555
C9D O6 1_555 1_555
O6D C9 1_555 1_555
O9B Mn3 1_555 1_555
O10B Mn3 1_555 1_555
O11B Mn3 1_555 1_555
Mn2B O3B 1_555 1_555
O5D C9D 1_555 1_555
Mn2D O6D 1_555 1_555
C10B O9B 1_555 1_555
C11B O10B 1_555 1_555
O5B Mn2B 1_555 1_555
O6B Mn2B 1_555 1_555
O7B Mn2B 1_555 1_555
O8B Mn2B 1_555 1_555
O3D Mn2D 1_555 1_555
O4D Mn2D 1_555 1_555
O7D Mn2D 1_555 1_555
O8D Mn2D 1_555 1_555
O7B_2 C10B 1_555 1_555
O8B_2 C11B 1_555 1_555
C9B O5B 1_555 1_555
C9F O6B 1_555 1_555
C10B_2 O7B 1_555 1_555
C11B_2 O8B 1_555 1_555
C7D O3D 1_555 1_555
C8D O4D 1_555 1_555
C10D O7D 1_555 1_555
C11D O8D 1_555 1_555
O6F C9B 1_555 1_555
O5F C9F 1_555 1_555
O3F C7D 1_555 1_555
O4F C8D 1_555 1_555
O9D C10D 1_555 1_555
O10D C11D 1_555 1_555
Mn2F O6F 1_555 1_555
Mn2F_2 O3F 1_555 1_555
Mn3D O9D 1_555 1_555
O3F_2 Mn2F 1_555 1_555
O4F_2 Mn2F 1_555 1_555
O7F Mn2F 1_555 1_555
O8F Mn2F 1_555 1_555
O9F Mn3D 1_555 1_555
O10F Mn3D 1_555 1_555
O11D Mn3D 1_555 1_555
O11F Mn3D 1_555 1_555
C10F O7F 1_555 1_555
C11F O8F 1_555 1_555
C10F_2 O9F 1_555 1_555
C11F_2 O10F 1_555 1_555
O9F_2 C10F 1_555 1_555
O10F_2 C11F 1_555 1_555
C1 C2 1_555 1_555
C3 C4 1_555 1_555
C5 C6 1_555 1_555
O10 Mn3 1_555 1_555
C9 C9D 1_555 1_555
C10 C11 1_555 1_555
C1D C2D 1_555 1_555
C6D C5D 1_555 1_555
C3D C4D 1_555 1_555
O4B Mn2B 1_555 1_555
O5D Mn2D 1_555 1_555
C10B C11B 1_555 1_555
C9B C9F 1_555 1_555
C7D C8D 1_555 1_555
C10D C11D 1_555 1_555
O5F Mn2F 1_555 1_555
O4F Mn2F_2 1_555 1_555
O10D Mn3D 1_555 1_555
C10F C11F 1_555 1_555

#END
