
#######################################################################
#
#                 Cambridge Crystallographic Data Centre
#                                CCDC 
#
#######################################################################
#
# If this CIF has been generated from an entry in the Cambridge 
# Structural Database, then it will include bibliographic, chemical, 
# crystal, experimental, refinement or atomic coordinate data resulting 
# from the CCDC's data processing and validation procedures.
#
#######################################################################

data_VADQAS
_symmetry_cell_setting           orthorhombic
_symmetry_space_group_name_H-M   'P n n 2'
_symmetry_Int_Tables_number      34
_space_group_name_Hall           'P 2 -2n'
loop_
_symmetry_equiv_pos_site_id
_symmetry_equiv_pos_as_xyz
1 x,y,z
2 -x,-y,z
3 1/2-x,1/2+y,1/2+z
4 1/2+x,1/2-y,1/2+z
_cell_length_a                   27.904(1)
_cell_length_b                   4.8273(3)
_cell_length_c                   5.6450(2)
_cell_angle_alpha                90
_cell_angle_beta                 90
_cell_angle_gamma                90
_cell_volume                     760.387
loop_
_atom_site_label
_atom_site_type_symbol
_atom_site_fract_x
_atom_site_fract_y
_atom_site_fract_z
P1 P 0.3115(2) 1.142(1) 0.506(2)
O1 O 0.2887(4) 1.001(3) 0.285(2)
O2 O 0.2994(3) 1.452(2) 0.481(4)
O3 O 0.2905(4) 1.020(3) 0.726(2)
O4 O 0.1857(3) 1.036(2) 0.482(5)
C1 C 0.3764(2) 1.108(2) 0.494(3)
C2 C 0.3991(3) 0.995(4) 0.293(2)
C3 C 0.4448(3) 0.868(3) 0.340(2)
C4 C 0.4752(1) 1.021(2) 0.490(3)
C5 C 0.4516(3) 1.117(3) 0.696(2)
C6 C 0.4069(4) 1.248(4) 0.656(3)
Zn1 Zn 0.2390(1) 0.7086(6) 0.50000
C4A C 0.5248(1) 0.979(2) 0.490(3)
C3A C 0.5552(3) 1.132(3) 0.340(2)
C2A C 0.6009(3) 1.005(4) 0.293(2)
C1A C 0.6236(2) 0.892(2) 0.494(3)
P1A P 0.6885(2) 0.858(1) 0.506(2)
O1A O 0.7113(4) 0.999(3) 0.285(2)
O2A O 0.7006(3) 0.548(2) 0.481(4)
O3A O 0.7095(4) 0.980(3) 0.726(2)
C6A C 0.5931(4) 0.752(4) 0.656(3)
C5A C 0.5484(3) 0.883(3) 0.696(2)
O1B O 0.2113(4) 0.501(3) 0.785(2)
O2_2 O 0.2994(3) 0.452(2) 0.481(4)
O3B O 0.2095(4) 0.520(3) 0.226(2)
Zn1A Zn 0.7610(1) 1.2914(6) 0.50000
Zn1A_2 Zn 0.7610(1) 0.2914(6) 0.50000
Zn1B Zn 0.2610(1) 1.2086(6) 0.00000
Zn1C Zn 0.7390(1) 0.7914(6) 0.00000
Zn1_2 Zn 0.2390(1) 1.7086(6) 0.50000
Zn1B_2 Zn 0.2610(1) 1.2086(6) 1.00000
Zn1C_2 Zn 0.7390(1) 0.7914(6) 1.00000
O1C O 0.7887(4) 1.499(3) 0.785(2)
O2A_2 O 0.7006(3) 1.548(2) 0.481(4)
O3C O 0.7905(4) 1.480(3) 0.226(2)
O4A O 0.8143(3) 0.964(2) 0.482(5)
loop_
_geom_bond_atom_site_label_1
_geom_bond_atom_site_label_2
_geom_bond_site_symmetry_1
_geom_bond_site_symmetry_2
P1 O1 1_555 1_555
O1 Zn1 1_555 1_555
O2 P1 1_555 1_555
O3 P1 1_555 1_555
O4 Zn1 1_555 1_555
C1 P1 1_555 1_555
C2 C1 1_555 1_555
C3 C2 1_555 1_555
C4 C3 1_555 1_555
C5 C4 1_555 1_555
C6 C1 1_555 1_555
Zn1 O3 1_555 1_555
C4A C4 1_555 1_555
C3A C4A 1_555 1_555
C2A C3A 1_555 1_555
C1A C2A 1_555 1_555
P1A C1A 1_555 1_555
O1A P1A 1_555 1_555
O2A P1A 1_555 1_555
O3A P1A 1_555 1_555
C6A C1A 1_555 1_555
C5A C4A 1_555 1_555
O1B Zn1 1_555 1_555
O2_2 Zn1 1_555 1_555
O3B Zn1 1_555 1_555
Zn1A O1A 1_555 1_555
Zn1A_2 O2A 1_555 1_555
Zn1B O1 1_555 1_555
Zn1C O1A 1_555 1_555
Zn1_2 O2 1_555 1_555
Zn1B_2 O3 1_555 1_555
Zn1C_2 O3A 1_555 1_555
O1C Zn1A 1_555 1_555
O2A_2 Zn1A 1_555 1_555
O3C Zn1A 1_555 1_555
O4A Zn1A 1_555 1_555
C5 C6 1_555 1_555
O3A Zn1A 1_555 1_555
C6A C5A 1_555 1_555

#END
