
#######################################################################
#
#                 Cambridge Crystallographic Data Centre
#                                CCDC 
#
#######################################################################
#
# If this CIF has been generated from an entry in the Cambridge 
# Structural Database, then it will include bibliographic, chemical, 
# crystal, experimental, refinement or atomic coordinate data resulting 
# from the CCDC's data processing and validation procedures.
#
#######################################################################

data_VADREY
_symmetry_cell_setting           triclinic
_symmetry_space_group_name_H-M   'P -1'
_symmetry_Int_Tables_number      2
_space_group_name_Hall           '-P 1'
loop_
_symmetry_equiv_pos_site_id
_symmetry_equiv_pos_as_xyz
1 x,y,z
2 -x,-y,-z
_cell_length_a                   7.283(2)
_cell_length_b                   12.032(3)
_cell_length_c                   13.912(3)
_cell_angle_alpha                85.97(2)
_cell_angle_beta                 84.19(2)
_cell_angle_gamma                75.82(2)
_cell_volume                     1174.57
loop_
_atom_site_label
_atom_site_type_symbol
_atom_site_fract_x
_atom_site_fract_y
_atom_site_fract_z
Cu1 Cu 0.24089(4) 0.52686(2) 0.94977(2)
Cl1 Cl 0.15836(8) 0.36384(5) 1.00909(4)
Cl2 Cl 0.34121(8) 0.55903(5) 1.09279(4)
N1 N 0.3595(3) 0.83681(16) 0.85790(15)
N2 N 0.2020(3) 0.8432(2) 0.81116(18)
N3 N 0.1480(3) 0.7501(2) 0.83473(19)
N4 N 0.2662(3) 0.68303(17) 0.89616(15)
C1 C 0.3954(3) 0.7374(2) 0.90895(18)
H1 H 0.4961 0.7111 0.9474
C2 C 0.4664(3) 0.92333(19) 0.84219(17)
C3 C 0.3952(3) 1.0284(2) 0.88457(17)
C4 C 0.5012(4) 1.1103(2) 0.86538(19)
H2 H 0.4580 1.1812 0.8931
C5 C 0.6702(4) 1.0890(2) 0.80590(19)
C6 C 0.7343(4) 0.9829(2) 0.76594(19)
H3 H 0.8480 0.9683 0.7268
C7 C 0.6354(3) 0.8978(2) 0.78199(18)
C8 C 0.2122(4) 1.0536(3) 0.9489(2)
H4 H 0.1880 1.1301 0.9709
H5 H 0.2224 0.9998 1.0035
H6 H 0.1096 1.0470 0.9132
C9 C 0.7811(5) 1.1799(3) 0.7839(3)
H7 H 0.7170 1.2478 0.8170
H8 H 0.7906 1.1976 0.7155
H9 H 0.9062 1.1520 0.8052
C10 C 0.7079(4) 0.7835(2) 0.7370(2)
H10 H 0.6209 0.7359 0.7561
H11 H 0.8304 0.7471 0.7585
H12 H 0.7186 0.7947 0.6679
N5 N 0.1408(3) 0.41072(19) 0.69071(14)
N6 N 0.2854(4) 0.4620(3) 0.65991(17)
N7 N 0.3260(4) 0.5058(3) 0.73397(17)
N8 N 0.2136(3) 0.48407(19) 0.81363(15)
C11 C 0.1011(4) 0.4259(2) 0.78468(18)
H13 H 0.0080 0.3993 0.8238
C12 C 0.0546(4) 0.3551(2) 0.62558(16)
C13 C -0.1213(4) 0.4123(2) 0.59582(18)
C14 C -0.2034(4) 0.3551(3) 0.53520(19)
H14 H -0.3225 0.3908 0.5151
C15 C -0.1154(5) 0.2475(3) 0.5037(2)
C16 C 0.0603(5) 0.1951(3) 0.5343(2)
H15 H 0.1214 0.1227 0.5129
C17 C 0.1493(4) 0.2464(2) 0.59593(19)
C18 C -0.2200(4) 0.5304(3) 0.6274(2)
H16 H -0.3391 0.5552 0.5992
H17 H -0.1415 0.5826 0.6067
H18 H -0.2424 0.5289 0.6967
C19 C -0.2104(6) 0.1890(4) 0.4365(3)
H19 H -0.1299 0.1151 0.4220
H20 H -0.2312 0.2352 0.3777
H21 H -0.3300 0.1798 0.4675
C20 C 0.3402(5) 0.1848(4) 0.6294(3)
H22 H 0.3807 0.2325 0.6713
H23 H 0.4315 0.1685 0.5743
H24 H 0.3299 0.1143 0.6638
Cl1A Cl -0.15836(8) 0.63616(5) 0.99091(4)
Cl2A Cl 0.65879(8) 0.44097(5) 0.90721(4)
Cu1A Cu -0.24089(4) 0.47314(2) 1.05023(2)
Cu1A_2 Cu 0.75911(4) 0.47314(2) 1.05023(2)
loop_
_geom_bond_atom_site_label_1
_geom_bond_atom_site_label_2
_geom_bond_site_symmetry_1
_geom_bond_site_symmetry_2
Cu1 Cl1 1_555 1_555
Cl1 Cu1A 1_555 1_555
Cl2 Cu1 1_555 1_555
N1 N2 1_555 1_555
N2 N3 1_555 1_555
N3 N4 1_555 1_555
N4 Cu1 1_555 1_555
C1 N1 1_555 1_555
H1 C1 1_555 1_555
C2 N1 1_555 1_555
C3 C2 1_555 1_555
C4 C3 1_555 1_555
H2 C4 1_555 1_555
C5 C4 1_555 1_555
C6 C5 1_555 1_555
H3 C6 1_555 1_555
C7 C2 1_555 1_555
C8 C3 1_555 1_555
H4 C8 1_555 1_555
H5 C8 1_555 1_555
H6 C8 1_555 1_555
C9 C5 1_555 1_555
H7 C9 1_555 1_555
H8 C9 1_555 1_555
H9 C9 1_555 1_555
C10 C7 1_555 1_555
H10 C10 1_555 1_555
H11 C10 1_555 1_555
H12 C10 1_555 1_555
N5 N6 1_555 1_555
N6 N7 1_555 1_555
N7 N8 1_555 1_555
N8 Cu1 1_555 1_555
C11 N5 1_555 1_555
H13 C11 1_555 1_555
C12 N5 1_555 1_555
C13 C12 1_555 1_555
C14 C13 1_555 1_555
H14 C14 1_555 1_555
C15 C14 1_555 1_555
C16 C15 1_555 1_555
H15 C16 1_555 1_555
C17 C12 1_555 1_555
C18 C13 1_555 1_555
H16 C18 1_555 1_555
H17 C18 1_555 1_555
H18 C18 1_555 1_555
C19 C15 1_555 1_555
H19 C19 1_555 1_555
H20 C19 1_555 1_555
H21 C19 1_555 1_555
C20 C17 1_555 1_555
H22 C20 1_555 1_555
H23 C20 1_555 1_555
H24 C20 1_555 1_555
Cl1A Cu1 1_555 1_555
Cl2A Cu1 1_555 1_555
Cu1A Cl1A 1_555 1_555
Cu1A_2 Cl2 1_555 1_555
N4 C1 1_555 1_555
C6 C7 1_555 1_555
N8 C11 1_555 1_555
C16 C17 1_555 1_555
Cl2A Cu1A_2 1_555 1_555

#END
