
#######################################################################
#
#                 Cambridge Crystallographic Data Centre
#                                CCDC 
#
#######################################################################
#
# If this CIF has been generated from an entry in the Cambridge 
# Structural Database, then it will include bibliographic, chemical, 
# crystal, experimental, refinement or atomic coordinate data resulting 
# from the CCDC's data processing and validation procedures.
#
#######################################################################

data_VADSUP
_symmetry_cell_setting           triclinic
_symmetry_space_group_name_H-M   'P -1'
_symmetry_Int_Tables_number      2
_space_group_name_Hall           '-P 1'
loop_
_symmetry_equiv_pos_site_id
_symmetry_equiv_pos_as_xyz
1 x,y,z
2 -x,-y,-z
_cell_length_a                   6.1054(15)
_cell_length_b                   9.598(3)
_cell_length_c                   9.813(3)
_cell_angle_alpha                108.92(2)
_cell_angle_beta                 106.899(19)
_cell_angle_gamma                97.39(2)
_cell_volume                     504.455
loop_
_atom_site_label
_atom_site_type_symbol
_atom_site_fract_x
_atom_site_fract_y
_atom_site_fract_z
Cu1 Cu 0.22407(4) 0.41412(3) 0.49362(3)
Cl1 Cl 0.59253(8) 0.45976(6) 0.66413(6)
Cl2 Cl 0.16180(9) 0.62584(6) 0.65569(6)
N1 N 0.3290(4) -0.0171(3) 0.3036(3)
N2 N 0.0982(3) -0.03464(19) 0.2408(2)
N3 N 0.0305(3) 0.0903(2) 0.2848(2)
N4 N 0.2226(3) 0.1962(2) 0.3855(2)
C1 C 0.4010(5) 0.1278(3) 0.3940(4)
H1 H 0.5573 0.1769 0.4563
C2 C -0.0690(4) -0.1850(2) 0.1303(3)
C3 C -0.2789(5) -0.1530(3) 0.0281(4)
H2 H -0.3599 -0.0984 0.0898
H3 H -0.3846 -0.2472 -0.0475
H4 H -0.2250 -0.0931 -0.0228
C4 C 0.0642(6) -0.2725(3) 0.0382(4)
H5 H 0.1124 -0.2173 -0.0184
H6 H -0.0365 -0.3704 -0.0323
H7 H 0.2011 -0.2854 0.1069
C5 C -0.1393(7) -0.2653(4) 0.2264(4)
H8 H -0.0004 -0.2756 0.2956
H9 H -0.2407 -0.3641 0.1599
H10 H -0.2215 -0.2071 0.2845
Cl1A Cl 0.40747(8) 0.54024(6) 0.33587(6)
Cl2A Cl -0.16180(9) 0.37416(6) 0.34431(6)
Cu1A Cu 0.77593(4) 0.58588(3) 0.50638(3)
Cu1A_2 Cu -0.22407(4) 0.58588(3) 0.50638(3)
loop_
_geom_bond_atom_site_label_1
_geom_bond_atom_site_label_2
_geom_bond_site_symmetry_1
_geom_bond_site_symmetry_2
Cu1 Cl1 1_555 1_555
Cl1 Cu1A 1_555 1_555
Cl2 Cu1 1_555 1_555
N1 N2 1_555 1_555
N2 N3 1_555 1_555
N3 N4 1_555 1_555
N4 Cu1 1_555 1_555
C1 N1 1_555 1_555
H1 C1 1_555 1_555
C2 N2 1_555 1_555
C3 C2 1_555 1_555
H2 C3 1_555 1_555
H3 C3 1_555 1_555
H4 C3 1_555 1_555
C4 C2 1_555 1_555
H5 C4 1_555 1_555
H6 C4 1_555 1_555
H7 C4 1_555 1_555
C5 C2 1_555 1_555
H8 C5 1_555 1_555
H9 C5 1_555 1_555
H10 C5 1_555 1_555
Cl1A Cu1 1_555 1_555
Cl2A Cu1 1_555 1_555
Cu1A Cl1A 1_555 1_555
Cu1A_2 Cl2 1_555 1_555
N4 C1 1_555 1_555
Cl2A Cu1A_2 1_555 1_555

#END
