
#######################################################################
#
#                 Cambridge Crystallographic Data Centre
#                                CCDC 
#
#######################################################################
#
# If this CIF has been generated from an entry in the Cambridge 
# Structural Database, then it will include bibliographic, chemical, 
# crystal, experimental, refinement or atomic coordinate data resulting 
# from the CCDC's data processing and validation procedures.
#
#######################################################################

data_VADWON
_symmetry_cell_setting           monoclinic
_symmetry_space_group_name_H-M   'C 2/c'
_symmetry_Int_Tables_number      15
_space_group_name_Hall           '-C 2yn'
loop_
_symmetry_equiv_pos_site_id
_symmetry_equiv_pos_as_xyz
1 x,y,z
2 1/2+x,1/2+y,z
3 x,-y,1/2+z
4 1/2+x,1/2-y,1/2+z
5 -x,-y,-z
6 1/2-x,1/2-y,-z
7 -x,y,1/2-z
8 1/2-x,1/2+y,1/2-z
_cell_length_a                   9.334(2)
_cell_length_b                   25.458(5)
_cell_length_c                   19.822(4)
_cell_angle_alpha                90
_cell_angle_beta                 99.86(3)
_cell_angle_gamma                90
_cell_volume                     4640.63
loop_
_atom_site_label
_atom_site_type_symbol
_atom_site_fract_x
_atom_site_fract_y
_atom_site_fract_z
Co1 Co 0.0000 0.0000 0.0000
N1 N 0.1982(3) 0.04897(10) 0.02124(13)
N2 N 0.3497(3) 0.11378(10) 0.05792(14)
N3 N -0.0910(3) 0.03813(10) 0.07881(13)
N4 N -0.1610(3) 0.05066(13) 0.17780(14)
N5 N 0.1070(3) -0.05933(10) 0.07009(13)
N6 N 0.1706(3) -0.13920(10) 0.10740(13)
C1 C 0.2189(3) 0.09227(12) 0.05918(16)
H1 H 0.1510 0.1060 0.0836
C2 C 0.3247(3) 0.04327(13) -0.00518(19)
H2 H 0.3435 0.0162 -0.0339
C3 C 0.4177(4) 0.08300(14) 0.01698(19)
H3 H 0.5099 0.0882 0.0063
C4 C 0.3958(4) 0.16544(13) 0.08413(19)
H4 H 0.4998 0.1690 0.0857
H5 H 0.3767 0.1689 0.1305
C5 C 0.3177(4) 0.20901(13) 0.04013(17)
C6 C 0.2931(4) 0.20550(14) -0.03059(18)
H6 H 0.3225 0.1757 -0.0516
C7 C 0.2752(4) 0.25380(13) 0.07059(18)
H7 H 0.2923 0.2568 0.1181
C8 C -0.1069(3) 0.01634(14) 0.13711(16)
H8 H -0.0837 -0.0184 0.1488
C9 C -0.1386(4) 0.08899(14) 0.0827(2)
H9 H -0.1418 0.1141 0.0485
C10 C -0.1796(4) 0.09681(17) 0.1433(2)
H10 H -0.2144 0.1280 0.1588
C11 C -0.1906(4) 0.0390(2) 0.24654(18)
H11 H -0.1436 0.0652 0.2784
H12 H -0.1496 0.0051 0.2611
C12 C -0.3525(4) 0.03861(17) 0.24846(16)
C13 C -0.4266(4) 0.08576(16) 0.2499(2)
H13 H -0.3765 0.1174 0.2508
C14 C -0.4270(5) -0.00839(16) 0.2487(2)
H14 H -0.3780 -0.0400 0.2470
C15 C 0.0617(4) -0.10738(12) 0.07907(16)
H15 H -0.0345 -0.1181 0.0672
C16 C 0.2538(4) -0.06081(14) 0.09448(18)
H16 H 0.3162 -0.0323 0.0953
C17 C 0.2949(4) -0.10962(14) 0.11721(19)
H17 H 0.3883 -0.1207 0.1357
C18 C 0.1639(4) -0.19636(12) 0.11692(17)
H18 H 0.0659 -0.2064 0.1217
H19 H 0.2289 -0.2063 0.1585
C19 C 0.2076(4) -0.22519(12) 0.05586(16)
C20 C 0.1175(4) -0.22478(13) -0.00655(17)
H20 H 0.0278 -0.2080 -0.0114
C21 C 0.3398(4) -0.25057(14) 0.06271(18)
H21 H 0.4008 -0.2513 0.1050
C7E C 0.2248(4) 0.24620(13) -0.07059(18)
C5E C 0.1823(4) 0.29099(13) -0.04013(17)
C4E C 0.1042(4) 0.33456(13) -0.08413(19)
N2E N 0.1503(3) 0.38622(10) -0.05792(14)
C1E C 0.2811(3) 0.40773(12) -0.05918(16)
N1E N 0.3018(3) 0.45103(10) -0.02124(13)
C2E C 0.1753(3) 0.45673(13) 0.00518(19)
H2E H 0.1565 0.4838 0.0339
C3E C 0.0823(4) 0.41700(14) -0.01698(19)
H3E H -0.0099 0.4118 -0.0063
H1E H 0.3490 0.3940 -0.0836
H4E H 0.0002 0.3310 -0.0857
H5E H 0.1233 0.3311 -0.1305
C6E C 0.2069(4) 0.29450(14) 0.03059(18)
H6E H 0.1775 0.3243 0.0516
H7E H 0.2077 0.2432 -0.1181
C13F C -0.5734(4) 0.08576(16) 0.2501(2)
C12F C -0.6475(4) 0.03861(17) 0.25154(16)
C11F C -0.8094(4) 0.0390(2) 0.25346(18)
N4F N -0.8390(3) 0.05066(13) 0.32220(14)
C8F C -0.8931(3) 0.01634(14) 0.36289(16)
N3F N -0.9090(3) 0.03813(10) 0.42119(13)
C9F C -0.8614(4) 0.08899(14) 0.4173(2)
H9F H -0.8582 0.1141 0.4515
C10F C -0.8204(4) 0.09681(17) 0.3567(2)
H10F H -0.7856 0.1280 0.3412
H8F H -0.9163 -0.0184 0.3512
H11F H -0.8564 0.0652 0.2216
H12F H -0.8504 0.0051 0.2389
C14F C -0.5730(5) -0.00839(16) 0.2513(2)
H14F H -0.6220 -0.0400 0.2530
H13F H -0.6235 0.1174 0.2492
C21E C 0.1602(4) -0.24943(14) -0.06271(18)
C19E C 0.2924(4) -0.27481(12) -0.05586(16)
C18E C 0.3361(4) -0.30364(12) -0.11692(17)
N6E N 0.3294(3) -0.36080(10) -0.10740(13)
C15E C 0.4383(4) -0.39262(12) -0.07907(16)
N5E N 0.3930(3) -0.44067(10) -0.07009(13)
C16E C 0.2462(4) -0.43919(14) -0.09448(18)
H16E H 0.1838 -0.4677 -0.0953
C17E C 0.2051(4) -0.39038(14) -0.11721(19)
H17E H 0.1117 -0.3793 -0.1357
H15E H 0.5345 -0.3819 -0.0672
H18E H 0.4341 -0.2936 -0.1217
H19E H 0.2711 -0.2937 -0.1585
C20E C 0.3825(4) -0.27522(13) 0.00655(17)
H20E H 0.4722 -0.2920 0.0114
H21E H 0.0992 -0.2487 -0.1050
N1D N -0.1982(3) -0.04897(10) -0.02124(13)
N3D N 0.0910(3) -0.03813(10) -0.07881(13)
N5D N -0.1070(3) 0.05933(10) -0.07009(13)
Co1A Co 0.5000 0.5000 0.0000
Co1B Co -1.0000 0.0000 0.5000
Co1A_2 Co 0.5000 -0.5000 0.0000
O1 O 0.0000 -0.2562(3) 0.2500
O2 O 0.0000 -0.0907(4) 0.2500
C22 C 0.0000 -0.1449(8) 0.2500
O3 O -0.1823(8) 0.1977(2) 0.2675(3)
O4 O 0.5984(10) -0.1710(4) 0.2077(4)
C23? C -0.095(3) -0.1359(11) 0.2231(16)
C24? C -0.139(2) -0.1075(11) 0.2113(12)
loop_
_geom_bond_atom_site_label_1
_geom_bond_atom_site_label_2
_geom_bond_site_symmetry_1
_geom_bond_site_symmetry_2
Co1 N1 1_555 1_555
O2 C22 1_555 1_555
N1 C1 1_555 1_555
N2 C1 1_555 1_555
N3 Co1 1_555 1_555
N4 C8 1_555 1_555
N5 Co1 1_555 1_555
N6 C15 1_555 1_555
C1 H1 1_555 1_555
C2 N1 1_555 1_555
H2 C2 1_555 1_555
C3 N2 1_555 1_555
H3 C3 1_555 1_555
C4 N2 1_555 1_555
H4 C4 1_555 1_555
H5 C4 1_555 1_555
C5 C4 1_555 1_555
C6 C5 1_555 1_555
H6 C6 1_555 1_555
C7 C5 1_555 1_555
H7 C7 1_555 1_555
C8 N3 1_555 1_555
H8 C8 1_555 1_555
C9 N3 1_555 1_555
H9 C9 1_555 1_555
C10 N4 1_555 1_555
H10 C10 1_555 1_555
C11 N4 1_555 1_555
H11 C11 1_555 1_555
H12 C11 1_555 1_555
C12 C11 1_555 1_555
C13 C12 1_555 1_555
H13 C13 1_555 1_555
C14 C12 1_555 1_555
H14 C14 1_555 1_555
C15 N5 1_555 1_555
H15 C15 1_555 1_555
C16 N5 1_555 1_555
H16 C16 1_555 1_555
C17 N6 1_555 1_555
H17 C17 1_555 1_555
C18 N6 1_555 1_555
H18 C18 1_555 1_555
H19 C18 1_555 1_555
C19 C18 1_555 1_555
C20 C19 1_555 1_555
H20 C20 1_555 1_555
C21 C19 1_555 1_555
H21 C21 1_555 1_555
C7E C6 1_555 1_555
C5E C7E 1_555 1_555
C4E C5E 1_555 1_555
N2E C4E 1_555 1_555
C1E N2E 1_555 1_555
N1E C1E 1_555 1_555
C2E N1E 1_555 1_555
H2E C2E 1_555 1_555
C3E N2E 1_555 1_555
H3E C3E 1_555 1_555
H1E C1E 1_555 1_555
H4E C4E 1_555 1_555
H5E C4E 1_555 1_555
C6E C7 1_555 1_555
H6E C6E 1_555 1_555
H7E C7E 1_555 1_555
C13F C13 1_555 1_555
C12F C13F 1_555 1_555
C11F C12F 1_555 1_555
N4F C11F 1_555 1_555
C8F N4F 1_555 1_555
N3F C8F 1_555 1_555
C9F N3F 1_555 1_555
H9F C9F 1_555 1_555
C10F N4F 1_555 1_555
H10F C10F 1_555 1_555
H8F C8F 1_555 1_555
H11F C11F 1_555 1_555
H12F C11F 1_555 1_555
C14F C14 1_555 1_555
H14F C14F 1_555 1_555
H13F C13F 1_555 1_555
C21E C20 1_555 1_555
C19E C21E 1_555 1_555
C18E C19E 1_555 1_555
N6E C18E 1_555 1_555
C15E N6E 1_555 1_555
N5E C15E 1_555 1_555
C16E N5E 1_555 1_555
H16E C16E 1_555 1_555
C17E N6E 1_555 1_555
H17E C17E 1_555 1_555
H15E C15E 1_555 1_555
H18E C18E 1_555 1_555
H19E C18E 1_555 1_555
C20E C21 1_555 1_555
H20E C20E 1_555 1_555
H21E C21E 1_555 1_555
N1D Co1 1_555 1_555
N3D Co1 1_555 1_555
N5D Co1 1_555 1_555
Co1A N1E 1_555 1_555
Co1B N3F 1_555 1_555
Co1A_2 N5E 1_555 1_555
C2 C3 1_555 1_555
C9 C10 1_555 1_555
C16 C17 1_555 1_555
C5E C6E 1_555 1_555
C2E C3E 1_555 1_555
C12F C14F 1_555 1_555
C9F C10F 1_555 1_555
C19E C20E 1_555 1_555
C16E C17E 1_555 1_555

#END
