
#######################################################################
#
#                 Cambridge Crystallographic Data Centre
#                                CCDC 
#
#######################################################################
#
# If this CIF has been generated from an entry in the Cambridge 
# Structural Database, then it will include bibliographic, chemical, 
# crystal, experimental, refinement or atomic coordinate data resulting 
# from the CCDC's data processing and validation procedures.
#
#######################################################################

data_VADYUV
_symmetry_cell_setting           monoclinic
_symmetry_space_group_name_H-M   'C 2/m'
_symmetry_Int_Tables_number      12
_space_group_name_Hall           '-C 2y'
loop_
_symmetry_equiv_pos_site_id
_symmetry_equiv_pos_as_xyz
1 x,y,z
2 1/2+x,1/2+y,z
3 x,-y,z
4 1/2+x,1/2-y,z
5 -x,-y,-z
6 1/2-x,1/2-y,-z
7 -x,y,-z
8 1/2-x,1/2+y,-z
_cell_length_a                   9.3825(19)
_cell_length_b                   13.791(3)
_cell_length_c                   6.7346(13)
_cell_angle_alpha                90
_cell_angle_beta                 122.37(3)
_cell_angle_gamma                90
_cell_volume                     736.006
loop_
_atom_site_label
_atom_site_type_symbol
_atom_site_fract_x
_atom_site_fract_y
_atom_site_fract_z
Fe1 Fe 0.0000 1.20735(4) 1.0000
C1 C -0.3346(8) 1.5000 0.6885(7)
H1 H -0.2231 1.5000 0.8149
C2 C -0.4169(6) 1.4125(2) 0.5953(5)
C3 C -0.3279(6) 1.3208(2) 0.7211(5)
C4 C 0.0938(9) 1.0000 1.0948(8)
O1 O -0.1792(5) 1.31026(18) 0.7735(5)
O2 O -0.4079(4) 1.26264(17) 0.7683(4)
O3 O 0.1630(4) 1.08140(16) 1.1634(4)
C2F C -0.5831(6) 1.4125(2) 0.4047(5)
C1F C -0.6654(8) 1.5000 0.3115(7)
H1F H -0.7769 1.5000 0.1851
C2D C -0.5831(6) 1.5875(2) 0.4047(5)
C2B C -0.4169(6) 1.5875(2) 0.5953(5)
C3B C -0.3279(6) 1.6792(2) 0.7211(5)
O1B O -0.1792(5) 1.68974(18) 0.7735(5)
O2B O -0.4079(4) 1.73736(17) 0.7683(4)
C3D C -0.6721(6) 1.6792(2) 0.2789(5)
O1D O -0.8208(5) 1.68974(18) 0.2265(5)
O2D O -0.5921(4) 1.73736(17) 0.2317(4)
C3F C -0.6721(6) 1.3208(2) 0.2789(5)
O1F O -0.8208(5) 1.31026(18) 0.2265(5)
O2F O -0.5921(4) 1.26264(17) 0.2317(4)
C4D C -0.0938(9) 1.0000 0.9052(8)
O3D O -0.1630(4) 0.91860(16) 0.8366(4)
O3F O -0.1630(4) 1.08140(16) 0.8366(4)
O3B O 0.1630(4) 0.91860(16) 1.1634(4)
Fe1B Fe 0.0000 1.79265(4) 1.0000
O1F_2 O 0.1792(5) 1.31026(18) 1.2265(5)
O2C O 0.0921(4) 1.23736(17) 0.7683(4)
O2E O -0.0921(4) 1.23736(17) 1.2317(4)
Fe1C Fe -0.5000 1.29265(4) 1.0000
Fe1A Fe -0.5000 1.70735(4) 1.0000
Fe1B_2 Fe -1.0000 1.79265(4) 0.0000
Fe1A_2 Fe -0.5000 1.70735(4) 0.0000
Fe1_2 Fe -1.0000 1.20735(4) 0.0000
Fe1C_2 Fe -0.5000 1.29265(4) 0.0000
Fe1B_3 Fe 0.0000 0.79265(4) 1.0000
O1D_2 O 0.1792(5) 1.68974(18) 1.2265(5)
O2A O 0.0921(4) 1.76264(17) 0.7683(4)
O2G O -0.0921(4) 1.76264(17) 1.2317(4)
O3B_2 O 0.1630(4) 1.91860(16) 1.1634(4)
O3D_2 O -0.1630(4) 1.91860(16) 0.8366(4)
O4 O -0.0094(8) 1.3893(3) 0.6253(9)
O5? O -0.0014(10) 1.4453(5) 1.2884(13)
loop_
_geom_bond_atom_site_label_1
_geom_bond_atom_site_label_2
_geom_bond_site_symmetry_1
_geom_bond_site_symmetry_2
Fe1 O1 1_555 1_555
C1 H1 1_555 1_555
C2 C1 1_555 1_555
C3 C2 1_555 1_555
C4 O3 1_555 1_555
O1 C3 1_555 1_555
O2 C3 1_555 1_555
O3 Fe1 1_555 1_555
C2F C2 1_555 1_555
C1F C2F 1_555 1_555
H1F C1F 1_555 1_555
C2D C1F 1_555 1_555
C2B C1 1_555 1_555
C3B C2B 1_555 1_555
O1B C3B 1_555 1_555
O2B C3B 1_555 1_555
C3D C2D 1_555 1_555
O1D C3D 1_555 1_555
O2D C3D 1_555 1_555
C3F C2F 1_555 1_555
O1F C3F 1_555 1_555
O2F C3F 1_555 1_555
C4D C4 1_555 1_555
O3D C4D 1_555 1_555
O3F Fe1 1_555 1_555
O3B C4 1_555 1_555
Fe1B O1B 1_555 1_555
O1F_2 Fe1 1_555 1_555
O2C Fe1 1_555 1_555
O2E Fe1 1_555 1_555
Fe1C O2 1_555 1_555
Fe1A O2B 1_555 1_555
Fe1B_2 O1D 1_555 1_555
Fe1A_2 O2D 1_555 1_555
Fe1_2 O1F 1_555 1_555
Fe1C_2 O2F 1_555 1_555
Fe1B_3 O3D 1_555 1_555
O1D_2 Fe1B 1_555 1_555
O2A Fe1B 1_555 1_555
O2G Fe1B 1_555 1_555
O3B_2 Fe1B 1_555 1_555
O3D_2 Fe1B 1_555 1_555
C2D C2B 1_555 1_555
C4D O3F 1_555 1_555
O3B Fe1B_3 1_555 1_555

#END
