
#######################################################################
#
#                 Cambridge Crystallographic Data Centre
#                                CCDC 
#
#######################################################################
#
# If this CIF has been generated from an entry in the Cambridge 
# Structural Database, then it will include bibliographic, chemical, 
# crystal, experimental, refinement or atomic coordinate data resulting 
# from the CCDC's data processing and validation procedures.
#
#######################################################################

data_VADYAC
_symmetry_cell_setting           monoclinic
_symmetry_space_group_name_H-M   'P 21/c'
_symmetry_Int_Tables_number      14
_space_group_name_Hall           '-P 2ybc'
loop_
_symmetry_equiv_pos_site_id
_symmetry_equiv_pos_as_xyz
1 x,y,z
2 -x,1/2+y,1/2-z
3 -x,-y,-z
4 x,1/2-y,1/2+z
_cell_length_a                   7.9956(11)
_cell_length_b                   8.4074(12)
_cell_length_c                   19.580(3)
_cell_angle_alpha                90
_cell_angle_beta                 99.392(2)
_cell_angle_gamma                90
_cell_volume                     1298.57
loop_
_atom_site_label
_atom_site_type_symbol
_atom_site_fract_x
_atom_site_fract_y
_atom_site_fract_z
C1 C 0.3065(4) 0.0115(4) 0.35554(17)
H1 H 0.2961 -0.0605 0.3190
C2 C 0.2698(4) -0.0412(4) 0.41841(17)
C3 C 0.2853(4) 0.0669(4) 0.47345(17)
C4 C 0.3373(5) 0.2201(5) 0.46114(19)
H2 H 0.3494 0.2946 0.4967
C5 C 0.3712(5) 0.2633(4) 0.39735(19)
H3 H 0.4056 0.3670 0.3906
C6 C 0.2172(7) -0.2116(5) 0.4245(2)
H4 H 0.1028 -0.2153 0.4335
H5 H 0.2912 -0.2617 0.4619
H6 H 0.2240 -0.2665 0.3821
C7 C 0.2500(6) 0.0181(6) 0.54355(19)
H7 H 0.2639 0.1082 0.5741
H8 H 0.3277 -0.0642 0.5620
H9 H 0.1359 -0.0208 0.5394
C8 C 0.2633(5) 0.0588(4) 0.13596(18)
C9 C 0.1367(8) -0.0513(7) 0.0948(3)
H10 H 0.1324 -0.0310 0.0463
H11 H 0.0268 -0.0334 0.1071
H12 H 0.1702 -0.1595 0.1048
C10 C 0.7036(4) 0.0474(4) 0.26175(17)
C11 C 0.8858(5) 0.0012(6) 0.2687(3)
H13 H 0.8940 -0.1095 0.2577
H14 H 0.9407 0.0195 0.3154
H15 H 0.9399 0.0638 0.2376
N1 N 0.3562(4) 0.1605(3) 0.34419(14)
O1 O 0.6667(3) 0.1934(3) 0.25805(15)
O2 O 0.2225(3) 0.1092(3) 0.19186(12)
O3 O 0.3976(5) 0.0951(5) 0.11714(18)
O4 O 0.5905(3) -0.0556(3) 0.25974(12)
Zn1 Zn 0.41513(5) 0.21073(4) 0.248346(18)
O4A O 0.4095(3) 0.4444(3) 0.24026(12)
Zn1A Zn 0.58487(5) -0.28927(4) 0.251654(18)
loop_
_geom_bond_atom_site_label_1
_geom_bond_atom_site_label_2
_geom_bond_site_symmetry_1
_geom_bond_site_symmetry_2
C1 H1 1_555 1_555
C2 C1 1_555 1_555
C3 C2 1_555 1_555
C4 C3 1_555 1_555
H2 C4 1_555 1_555
C5 C4 1_555 1_555
H3 C5 1_555 1_555
C6 C2 1_555 1_555
H4 C6 1_555 1_555
H5 C6 1_555 1_555
H6 C6 1_555 1_555
C7 C3 1_555 1_555
H7 C7 1_555 1_555
H8 C7 1_555 1_555
H9 C7 1_555 1_555
C8 C9 1_555 1_555
C9 H10 1_555 1_555
H11 C9 1_555 1_555
H12 C9 1_555 1_555
C10 C11 1_555 1_555
C11 H13 1_555 1_555
H14 C11 1_555 1_555
H15 C11 1_555 1_555
N1 C1 1_555 1_555
O1 C10 1_555 1_555
O2 C8 1_555 1_555
O3 C8 1_555 1_555
O4 C10 1_555 1_555
Zn1 N1 1_555 1_555
O4A Zn1 1_555 1_555
Zn1A O4 1_555 1_555
C5 N1 1_555 1_555
O1 Zn1 1_555 1_555
O2 Zn1 1_555 1_555

#END
