
#######################################################################
#
#                 Cambridge Crystallographic Data Centre
#                                CCDC 
#
#######################################################################
#
# If this CIF has been generated from an entry in the Cambridge 
# Structural Database, then it will include bibliographic, chemical, 
# crystal, experimental, refinement or atomic coordinate data resulting 
# from the CCDC's data processing and validation procedures.
#
#######################################################################

data_VADYOP
_symmetry_cell_setting           monoclinic
_symmetry_space_group_name_H-M   'C 2/m'
_symmetry_Int_Tables_number      12
_space_group_name_Hall           '-C 2y'
loop_
_symmetry_equiv_pos_site_id
_symmetry_equiv_pos_as_xyz
1 x,y,z
2 1/2+x,1/2+y,z
3 x,-y,z
4 1/2+x,1/2-y,z
5 -x,-y,-z
6 1/2-x,1/2-y,-z
7 -x,y,-z
8 1/2-x,1/2+y,-z
_cell_length_a                   9.3343(19)
_cell_length_b                   13.738(3)
_cell_length_c                   6.7078(13)
_cell_angle_alpha                90
_cell_angle_beta                 122.60(3)
_cell_angle_gamma                90
_cell_volume                     724.654
loop_
_atom_site_label
_atom_site_type_symbol
_atom_site_fract_x
_atom_site_fract_y
_atom_site_fract_z
Co1 Co 0.5000 -0.29426(3) -0.5000
C1 C 0.3319(4) -0.5000 -0.1902(6)
H1 H 0.2192 -0.5000 -0.3168
C2 C 0.4159(3) -0.58767(16) -0.0958(4)
C3 C 0.3262(3) -0.67945(17) -0.2233(4)
C4 C -0.0957(4) -1.0000 -0.5939(6)
O1 O 0.4070(2) -0.73687(13) -0.2732(3)
O2 O -0.1657(2) -0.91820(13) -0.6615(3)
O3 O 0.1761(2) -0.69091(13) -0.2765(3)
C2F C 0.5841(3) -0.58767(16) 0.0958(4)
C1D C 0.6681(4) -0.5000 0.1902(6)
H1D H 0.7808 -0.5000 0.3168
C2D C 0.5841(3) -0.41233(16) 0.0958(4)
C2B C 0.4159(3) -0.41233(16) -0.0958(4)
C3B C 0.3262(3) -0.32055(17) -0.2233(4)
O1B O 0.4070(2) -0.26313(13) -0.2732(3)
O3B O 0.1761(2) -0.30909(13) -0.2765(3)
C3D C 0.6738(3) -0.32055(17) 0.2233(4)
O1D O 0.5930(2) -0.26313(13) 0.2732(3)
O3D O 0.8239(2) -0.30909(13) 0.2765(3)
C3F C 0.6738(3) -0.67945(17) 0.2233(4)
O1F O 0.5930(2) -0.73687(13) 0.2732(3)
O3F O 0.8239(2) -0.69091(13) 0.2765(3)
O2G O 0.6657(2) -0.41820(13) -0.3385(3)
O2A O 0.3343(2) -0.41820(13) -0.6615(3)
Co1B Co 0.5000 -0.70574(3) -0.5000
Co1A Co 0.0000 -0.79426(3) -0.5000
Co1C Co 0.0000 -0.20574(3) -0.5000
Co1_2 Co 0.5000 -0.29426(3) 0.5000
Co1C_2 Co 1.0000 -0.20574(3) 0.5000
Co1B_2 Co 0.5000 -0.70574(3) 0.5000
Co1A_2 Co 1.0000 -0.79426(3) 0.5000
O1D_2 O 0.5930(2) -0.26313(13) -0.7268(3)
O3A O 0.6761(2) -0.19091(13) -0.2765(3)
O3G O 0.3239(2) -0.19091(13) -0.7235(3)
O1C O -0.0930(2) -0.76313(13) -0.2732(3)
O1E O 0.0930(2) -0.76313(13) -0.7268(3)
O2F O 0.1657(2) -0.91820(13) -0.3385(3)
O3F_2 O -0.1761(2) -0.69091(13) -0.7235(3)
C4D C 0.0957(4) -1.0000 -0.4061(6)
O2B O -0.1657(2) -1.08180(13) -0.6615(3)
O2D O 0.1657(2) -1.08180(13) -0.3385(3)
Co1C_3 Co 0.0000 -1.20574(3) -0.5000
O5 O 0.5060(5) -0.1108(2) -0.1316(6)
O4? O 0.4970(6) 0.0552(4) -0.2094(9)
loop_
_geom_bond_atom_site_label_1
_geom_bond_atom_site_label_2
_geom_bond_site_symmetry_1
_geom_bond_site_symmetry_2
Co1 O1B 1_555 1_555
C1 H1 1_555 1_555
C2 C1 1_555 1_555
C3 C2 1_555 1_555
C4 O2 1_555 1_555
O1 C3 1_555 1_555
O2 Co1A 1_555 1_555
O3 C3 1_555 1_555
C2F C2 1_555 1_555
C1D C2F 1_555 1_555
H1D C1D 1_555 1_555
C2D C1D 1_555 1_555
C2B C1 1_555 1_555
C3B C2B 1_555 1_555
O1B C3B 1_555 1_555
O3B C3B 1_555 1_555
C3D C2D 1_555 1_555
O1D C3D 1_555 1_555
O3D C3D 1_555 1_555
C3F C2F 1_555 1_555
O1F C3F 1_555 1_555
O3F C3F 1_555 1_555
O2G Co1 1_555 1_555
O2A Co1 1_555 1_555
Co1B O1 1_555 1_555
Co1A O3 1_555 1_555
Co1C O3B 1_555 1_555
Co1_2 O1D 1_555 1_555
Co1C_2 O3D 1_555 1_555
Co1B_2 O1F 1_555 1_555
Co1A_2 O3F 1_555 1_555
O1D_2 Co1 1_555 1_555
O3A Co1 1_555 1_555
O3G Co1 1_555 1_555
O1C Co1A 1_555 1_555
O1E Co1A 1_555 1_555
O2F Co1A 1_555 1_555
O3F_2 Co1A 1_555 1_555
C4D C4 1_555 1_555
O2B C4 1_555 1_555
O2D C4D 1_555 1_555
Co1C_3 O2B 1_555 1_555
C2D C2B 1_555 1_555
O2F C4D 1_555 1_555
O2D Co1C_3 1_555 1_555

#END
