
#######################################################################
#
#                 Cambridge Crystallographic Data Centre
#                                CCDC 
#
#######################################################################
#
# If this CIF has been generated from an entry in the Cambridge 
# Structural Database, then it will include bibliographic, chemical, 
# crystal, experimental, refinement or atomic coordinate data resulting 
# from the CCDC's data processing and validation procedures.
#
#######################################################################

data_VADZOQ
_symmetry_cell_setting           monoclinic
_symmetry_space_group_name_H-M   'C 2/m'
_symmetry_Int_Tables_number      12
_space_group_name_Hall           '-C 2y'
loop_
_symmetry_equiv_pos_site_id
_symmetry_equiv_pos_as_xyz
1 x,y,z
2 x,-y,z
3 1/2+x,1/2+y,z
4 1/2+x,1/2-y,z
5 -x,-y,-z
6 -x,y,-z
7 1/2-x,1/2-y,-z
8 1/2-x,1/2+y,-z
_cell_length_a                   19.8676(10)
_cell_length_b                   32.6591(13)
_cell_length_c                   15.0359(7)
_cell_angle_alpha                90.00
_cell_angle_beta                 119.879(3)
_cell_angle_gamma                90.00
_cell_volume                     8459.37
loop_
_atom_site_label
_atom_site_type_symbol
_atom_site_fract_x
_atom_site_fract_y
_atom_site_fract_z
Co1 Co 0.0000 0.5000 0.0000
Co2 Co 0.7500 0.2500 1.0000
S1 S 0.2277(2) 0.5000 -0.0240(3)
S2 S 0.66296(16) 0.15827(6) 1.1651(2)
N1 N 0.0211(3) 0.45057(15) 0.1105(3)
N2 N 0.6231(2) 0.26076(12) 0.8956(3)
N3 N 0.1176(4) 0.5000 0.0386(5)
N4 N 0.7266(2) 0.21895(12) 1.1022(3)
N5 N 0.7668(2) 0.30778(11) 1.0842(3)
C1 C -0.0350(4) 0.4223(2) 0.0907(5)
H1 H -0.0820 0.4243 0.0297
C2 C -0.0252(4) 0.3908(2) 0.1572(5)
H2 H -0.0646 0.3717 0.1399
C3 C 0.0419(3) 0.38776(17) 0.2478(4)
C4 C 0.0997(4) 0.41558(19) 0.2681(4)
H3 H 0.1466 0.4142 0.3294
C5 C 0.0876(4) 0.44666(17) 0.1947(4)
H4 H 0.1279 0.4645 0.2073
C6 C 0.0542(3) 0.35422(18) 0.3201(4)
H5 H 0.0110 0.3390 0.3081
C7 C 0.1196(3) 0.34420(18) 0.3983(4)
H6 H 0.1613 0.3610 0.4112
C8 C 0.1380(3) 0.30927(16) 0.4715(3)
C9 C 0.2155(3) 0.30148(16) 0.5405(3)
H7 H 0.2527 0.3190 0.5414
C10 C 0.2398(3) 0.26891(15) 0.6078(3)
C11 C 0.1842(3) 0.24363(17) 0.6061(4)
H8 H 0.1992 0.2215 0.6509
C12 C 0.1062(3) 0.2503(2) 0.5389(4)
H9 H 0.0692 0.2327 0.5383
C13 C 0.0830(3) 0.28364(19) 0.4720(4)
H10 H 0.0305 0.2886 0.4277
C14 C 0.3218(3) 0.26044(16) 0.6805(4)
H11 H 0.3328 0.2385 0.7252
C15 C 0.3810(3) 0.28127(17) 0.6879(4)
H12 H 0.3699 0.3033 0.6435
C16 C 0.4633(3) 0.27282(16) 0.7601(4)
C17 C 0.4900(3) 0.24289(18) 0.8333(4)
H13 H 0.4550 0.2259 0.8396
C18 C 0.5692(3) 0.23783(18) 0.8984(4)
H14 H 0.5854 0.2170 0.9470
C19 C 0.5197(4) 0.2962(2) 0.7553(5)
H15 H 0.5052 0.3167 0.7062
C20 C 0.5964(3) 0.28906(17) 0.8221(4)
H16 H 0.6325 0.3051 0.8160
C21 C 0.7555(3) 0.34469(15) 1.0431(4)
H17 H 0.7333 0.3464 0.9722
C22 C 0.7741(4) 0.38045(15) 1.0968(4)
H18 H 0.7640 0.4053 1.0624
C23 C 0.8083(3) 0.37979(14) 1.2037(4)
C24 C 0.8212(4) 0.34095(15) 1.2477(4)
H19 H 0.8446 0.3382 1.3186
C25 C 0.7995(4) 0.30675(14) 1.1868(4)
H20 H 0.8079 0.2813 1.2184
C26 C 0.8302(4) 0.41790(14) 1.2610(4)
H21 H 0.8215 0.4416 1.2224
C27 C 0.8608(4) 0.42329(14) 1.3608(4)
H22 H 0.8722 0.3999 1.4009
C28 C 0.8786(4) 0.46295(16) 1.4146(4)
C29 C 0.9156(4) 0.46354(17) 1.5208(4)
H23 H 0.9279 0.4390 1.5568
C30 C 0.9344(7) 0.5000 1.5734(7)
H24 H 0.953(4) 0.5000 1.631(6)
C31 C 0.8615(5) 0.5000 1.3635(6)
H25 H 0.837(3) 0.5000 1.292(5)
C32 C 0.1633(6) 0.5000 0.0130(7)
C33 C 0.7015(3) 0.19373(15) 1.1299(4)
C29A C 0.9156(4) 0.53646(17) 1.5208(4)
C28A C 0.8786(4) 0.53705(16) 1.4146(4)
C27A C 0.8608(4) 0.57671(14) 1.3608(4)
C26A C 0.8302(4) 0.58210(14) 1.2610(4)
C23A C 0.8083(3) 0.62021(14) 1.2037(4)
C22A C 0.7741(4) 0.61955(15) 1.0968(4)
C21A C 0.7555(3) 0.65531(15) 1.0431(4)
N5A N 0.7668(2) 0.69222(11) 1.0842(3)
C25A C 0.7995(4) 0.69325(14) 1.1868(4)
C24A C 0.8212(4) 0.65905(15) 1.2477(4)
H19A H 0.8446 0.6618 1.3186
H20A H 0.8079 0.7187 1.2184
H17A H 0.7333 0.6536 0.9722
H18A H 0.7640 0.5947 1.0624
H21A H 0.8215 0.5584 1.2224
H22A H 0.8722 0.6001 1.4009
H23A H 0.9279 0.5610 1.5568
N1A N 0.0211(3) 0.54943(15) 0.1105(3)
N2A N 0.6231(2) 0.73924(12) 0.8956(3)
C1A C -0.0350(4) 0.5777(2) 0.0907(5)
H1A H -0.0820 0.5757 0.0297
C2A C -0.0252(4) 0.6092(2) 0.1572(5)
H2A H -0.0646 0.6283 0.1399
C3A C 0.0419(3) 0.61224(17) 0.2478(4)
C4A C 0.0997(4) 0.58442(19) 0.2681(4)
H3A H 0.1466 0.5858 0.3294
C5A C 0.0876(4) 0.55334(17) 0.1947(4)
H4A H 0.1279 0.5355 0.2073
C6A C 0.0542(3) 0.64578(18) 0.3201(4)
H5A H 0.0110 0.6610 0.3081
C7A C 0.1196(3) 0.65580(18) 0.3983(4)
H6A H 0.1613 0.6390 0.4112
C8A C 0.1380(3) 0.69073(16) 0.4715(3)
C9A C 0.2155(3) 0.69852(16) 0.5405(3)
H7A H 0.2527 0.6810 0.5414
C10A C 0.2398(3) 0.73109(15) 0.6078(3)
C11A C 0.1842(3) 0.75637(17) 0.6061(4)
H8A H 0.1992 0.7785 0.6509
C12A C 0.1062(3) 0.7497(2) 0.5389(4)
H9A H 0.0692 0.7673 0.5383
C13A C 0.0830(3) 0.71636(19) 0.4720(4)
H10A H 0.0305 0.7114 0.4277
C14A C 0.3218(3) 0.73956(16) 0.6805(4)
H11A H 0.3328 0.7615 0.7252
C15A C 0.3810(3) 0.71873(17) 0.6879(4)
H12A H 0.3699 0.6967 0.6435
C16A C 0.4633(3) 0.72718(16) 0.7601(4)
C17A C 0.4900(3) 0.75711(18) 0.8333(4)
H13A H 0.4550 0.7741 0.8396
C18A C 0.5692(3) 0.76217(18) 0.8984(4)
H14A H 0.5854 0.7830 0.9470
C19A C 0.5197(4) 0.7038(2) 0.7553(5)
H15A H 0.5052 0.6833 0.7062
C20A C 0.5964(3) 0.71094(17) 0.8221(4)
H16A H 0.6325 0.6949 0.8160
N1D N -0.0211(3) 0.54943(15) -0.1105(3)
N2D N -0.6231(2) 0.73924(12) -0.8956(3)
C1D C 0.0350(4) 0.5777(2) -0.0907(5)
H1D H 0.0820 0.5757 -0.0297
C2D C 0.0252(4) 0.6092(2) -0.1572(5)
H2D H 0.0646 0.6283 -0.1399
C3D C -0.0419(3) 0.61224(17) -0.2478(4)
C4D C -0.0997(4) 0.58442(19) -0.2681(4)
H3D H -0.1466 0.5858 -0.3294
C5D C -0.0876(4) 0.55334(17) -0.1947(4)
H4D H -0.1279 0.5355 -0.2073
C6D C -0.0542(3) 0.64578(18) -0.3201(4)
H5D H -0.0110 0.6610 -0.3081
C7D C -0.1196(3) 0.65580(18) -0.3983(4)
H6D H -0.1613 0.6390 -0.4112
C8D C -0.1380(3) 0.69073(16) -0.4715(3)
C9D C -0.2155(3) 0.69852(16) -0.5405(3)
H7D H -0.2527 0.6810 -0.5414
C10D C -0.2398(3) 0.73109(15) -0.6078(3)
C11D C -0.1842(3) 0.75637(17) -0.6061(4)
H8D H -0.1992 0.7785 -0.6509
C12D C -0.1062(3) 0.7497(2) -0.5389(4)
H9D H -0.0692 0.7673 -0.5383
C13D C -0.0830(3) 0.71636(19) -0.4720(4)
H10D H -0.0305 0.7114 -0.4277
C14D C -0.3218(3) 0.73956(16) -0.6805(4)
H11D H -0.3328 0.7615 -0.7252
C15D C -0.3810(3) 0.71873(17) -0.6879(4)
H12D H -0.3699 0.6967 -0.6435
C16D C -0.4633(3) 0.72718(16) -0.7601(4)
C17D C -0.4900(3) 0.75711(18) -0.8333(4)
H13D H -0.4550 0.7741 -0.8396
C18D C -0.5692(3) 0.76217(18) -0.8984(4)
H14D H -0.5854 0.7830 -0.9470
C19D C -0.5197(4) 0.7038(2) -0.7553(5)
H15D H -0.5052 0.6833 -0.7062
C20D C -0.5964(3) 0.71094(17) -0.8221(4)
H16D H -0.6325 0.6949 -0.8160
N1E N -0.0211(3) 0.45057(15) -0.1105(3)
N2E N -0.6231(2) 0.26076(12) -0.8956(3)
C1E C 0.0350(4) 0.4223(2) -0.0907(5)
H1E H 0.0820 0.4243 -0.0297
C2E C 0.0252(4) 0.3908(2) -0.1572(5)
H2E H 0.0646 0.3717 -0.1399
C3E C -0.0419(3) 0.38776(17) -0.2478(4)
C4E C -0.0997(4) 0.41558(19) -0.2681(4)
H3E H -0.1466 0.4142 -0.3294
C5E C -0.0876(4) 0.44666(17) -0.1947(4)
H4E H -0.1279 0.4645 -0.2073
C6E C -0.0542(3) 0.35422(18) -0.3201(4)
H5E H -0.0110 0.3390 -0.3081
C7E C -0.1196(3) 0.34420(18) -0.3983(4)
H6E H -0.1613 0.3610 -0.4112
C8E C -0.1380(3) 0.30927(16) -0.4715(3)
C9E C -0.2155(3) 0.30148(16) -0.5405(3)
H7E H -0.2527 0.3190 -0.5414
C10E C -0.2398(3) 0.26891(15) -0.6078(3)
C11E C -0.1842(3) 0.24363(17) -0.6061(4)
H8E H -0.1992 0.2215 -0.6509
C12E C -0.1062(3) 0.2503(2) -0.5389(4)
H9E H -0.0692 0.2327 -0.5383
C13E C -0.0830(3) 0.28364(19) -0.4720(4)
H10E H -0.0305 0.2886 -0.4277
C14E C -0.3218(3) 0.26044(16) -0.6805(4)
H11E H -0.3328 0.2385 -0.7252
C15E C -0.3810(3) 0.28127(17) -0.6879(4)
H12E H -0.3699 0.3033 -0.6435
C16E C -0.4633(3) 0.27282(16) -0.7601(4)
C17E C -0.4900(3) 0.24289(18) -0.8333(4)
H13E H -0.4550 0.2259 -0.8396
C18E C -0.5692(3) 0.23783(18) -0.8984(4)
H14E H -0.5854 0.2170 -0.9470
C19E C -0.5197(4) 0.2962(2) -0.7553(5)
H15E H -0.5052 0.3167 -0.7062
C20E C -0.5964(3) 0.28906(17) -0.8221(4)
H16E H -0.6325 0.3051 -0.8160
S1D S -0.2277(2) 0.5000 0.0240(3)
N3D N -0.1176(4) 0.5000 -0.0386(5)
C32D C -0.1633(6) 0.5000 -0.0130(7)
Co2A Co 0.7500 0.7500 1.0000
S2F S 0.83704(16) 0.34173(6) 0.8349(2)
N4F N 0.7734(2) 0.28105(12) 0.8978(3)
C33F C 0.7985(3) 0.30627(15) 0.8701(4)
N5F N 0.7332(2) 0.19222(11) 0.9158(3)
C21F C 0.7445(3) 0.15531(15) 0.9569(4)
H17F H 0.7667 0.1536 1.0278
C22F C 0.7259(4) 0.11955(15) 0.9032(4)
H18F H 0.7360 0.0947 0.9376
C23F C 0.6917(3) 0.12021(14) 0.7963(4)
C24F C 0.6788(4) 0.15905(15) 0.7523(4)
H19F H 0.6554 0.1618 0.6814
C25F C 0.7005(4) 0.19325(14) 0.8132(4)
H20F H 0.6921 0.2187 0.7816
C26F C 0.6698(4) 0.08210(14) 0.7390(4)
H21F H 0.6785 0.0584 0.7776
C27F C 0.6392(4) 0.07671(14) 0.6392(4)
H22F H 0.6278 0.1001 0.5991
C28F C 0.6214(4) 0.03705(16) 0.5854(4)
C29F C 0.5844(4) 0.03646(17) 0.4792(4)
H23F H 0.5721 0.0610 0.4432
C30F C 0.5656(7) 0.0000 0.4266(7)
H24F H 0.547(4) 0.0000 0.369(6)
C31F C 0.6385(5) 0.0000 0.6365(6)
H25F H 0.663(3) 0.0000 0.708(5)
C29G C 0.5844(4) -0.03646(17) 0.4792(4)
C28G C 0.6214(4) -0.03705(16) 0.5854(4)
C27G C 0.6392(4) -0.07671(14) 0.6392(4)
C26G C 0.6698(4) -0.08210(14) 0.7390(4)
C23G C 0.6917(3) -0.12021(14) 0.7963(4)
C22G C 0.7259(4) -0.11955(15) 0.9032(4)
C21G C 0.7445(3) -0.15531(15) 0.9569(4)
N5G N 0.7332(2) -0.19222(11) 0.9158(3)
C25G C 0.7005(4) -0.19325(14) 0.8132(4)
C24G C 0.6788(4) -0.15905(15) 0.7523(4)
H19G H 0.6554 -0.1618 0.6814
H20G H 0.6921 -0.2187 0.7816
H17G H 0.7667 -0.1536 1.0278
H18G H 0.7360 -0.0947 0.9376
H21G H 0.6785 -0.0584 0.7776
H22G H 0.6278 -0.1001 0.5991
H23G H 0.5721 -0.0610 0.4432
S2A S 0.66296(16) 0.84173(6) 1.1651(2)
N4A N 0.7266(2) 0.78105(12) 1.1022(3)
C33A C 0.7015(3) 0.80627(15) 1.1299(4)
S2G S 0.83704(16) 0.65827(6) 0.8349(2)
N4G N 0.7734(2) 0.71895(12) 0.8978(3)
C33G C 0.7985(3) 0.69373(15) 0.8701(4)
N2F N 0.8769(2) 0.23924(12) 1.1044(3)
Co2B Co -0.7500 0.7500 -1.0000
Co2C Co -0.7500 0.2500 -1.0000
N2G N 0.8769(2) 0.76076(12) 1.1044(3)
N5G_2 N 0.7332(2) 0.80778(11) 0.9158(3)
Co2A_2 Co 0.7500 -0.2500 1.0000
loop_
_geom_bond_atom_site_label_1
_geom_bond_atom_site_label_2
_geom_bond_site_symmetry_1
_geom_bond_site_symmetry_2
Co1 N1 1_555 1_555
Co2 N2 1_555 1_555
S1 C32 1_555 1_555
S2 C33 1_555 1_555
N1 C1 1_555 1_555
N2 C18 1_555 1_555
N3 Co1 1_555 1_555
N4 Co2 1_555 1_555
N5 Co2 1_555 1_555
C1 H1 1_555 1_555
C2 C1 1_555 1_555
H2 C2 1_555 1_555
C3 C2 1_555 1_555
C4 C3 1_555 1_555
H3 C4 1_555 1_555
C5 N1 1_555 1_555
H4 C5 1_555 1_555
C6 C3 1_555 1_555
H5 C6 1_555 1_555
C7 C6 1_555 1_555
H6 C7 1_555 1_555
C8 C7 1_555 1_555
C9 C8 1_555 1_555
H7 C9 1_555 1_555
C10 C9 1_555 1_555
C11 C10 1_555 1_555
H8 C11 1_555 1_555
C12 C11 1_555 1_555
H9 C12 1_555 1_555
C13 C8 1_555 1_555
H10 C13 1_555 1_555
C14 C10 1_555 1_555
H11 C14 1_555 1_555
C15 C14 1_555 1_555
H12 C15 1_555 1_555
C16 C15 1_555 1_555
C17 C16 1_555 1_555
H13 C17 1_555 1_555
C18 C17 1_555 1_555
H14 C18 1_555 1_555
C19 C16 1_555 1_555
H15 C19 1_555 1_555
C20 N2 1_555 1_555
H16 C20 1_555 1_555
C21 N5 1_555 1_555
H17 C21 1_555 1_555
C22 C21 1_555 1_555
H18 C22 1_555 1_555
C23 C22 1_555 1_555
C24 C23 1_555 1_555
H19 C24 1_555 1_555
C25 N5 1_555 1_555
H20 C25 1_555 1_555
C26 C23 1_555 1_555
H21 C26 1_555 1_555
C27 C26 1_555 1_555
H22 C27 1_555 1_555
C28 C27 1_555 1_555
C29 C28 1_555 1_555
H23 C29 1_555 1_555
C30 C29 1_555 1_555
H24 C30 1_555 1_555
C31 C28 1_555 1_555
H25 C31 1_555 1_555
C32 N3 1_555 1_555
C33 N4 1_555 1_555
C29A C30 1_555 1_555
C28A C31 1_555 1_555
C27A C28A 1_555 1_555
C26A C27A 1_555 1_555
C23A C26A 1_555 1_555
C22A C23A 1_555 1_555
C21A C22A 1_555 1_555
N5A C21A 1_555 1_555
C25A N5A 1_555 1_555
C24A C23A 1_555 1_555
H19A C24A 1_555 1_555
H20A C25A 1_555 1_555
H17A C21A 1_555 1_555
H18A C22A 1_555 1_555
H21A C26A 1_555 1_555
H22A C27A 1_555 1_555
H23A C29A 1_555 1_555
N1A Co1 1_555 1_555
N2A C18A 1_555 1_555
C1A N1A 1_555 1_555
H1A C1A 1_555 1_555
C2A C1A 1_555 1_555
H2A C2A 1_555 1_555
C3A C2A 1_555 1_555
C4A C3A 1_555 1_555
H3A C4A 1_555 1_555
C5A N1A 1_555 1_555
H4A C5A 1_555 1_555
C6A C3A 1_555 1_555
H5A C6A 1_555 1_555
C7A C6A 1_555 1_555
H6A C7A 1_555 1_555
C8A C7A 1_555 1_555
C9A C8A 1_555 1_555
H7A C9A 1_555 1_555
C10A C9A 1_555 1_555
C11A C10A 1_555 1_555
H8A C11A 1_555 1_555
C12A C11A 1_555 1_555
H9A C12A 1_555 1_555
C13A C8A 1_555 1_555
H10A C13A 1_555 1_555
C14A C10A 1_555 1_555
H11A C14A 1_555 1_555
C15A C14A 1_555 1_555
H12A C15A 1_555 1_555
C16A C15A 1_555 1_555
C17A C16A 1_555 1_555
H13A C17A 1_555 1_555
C18A C17A 1_555 1_555
H14A C18A 1_555 1_555
C19A C16A 1_555 1_555
H15A C19A 1_555 1_555
C20A N2A 1_555 1_555
H16A C20A 1_555 1_555
N1D Co1 1_555 1_555
N2D C18D 1_555 1_555
C1D N1D 1_555 1_555
H1D C1D 1_555 1_555
C2D C1D 1_555 1_555
H2D C2D 1_555 1_555
C3D C2D 1_555 1_555
C4D C3D 1_555 1_555
H3D C4D 1_555 1_555
C5D N1D 1_555 1_555
H4D C5D 1_555 1_555
C6D C3D 1_555 1_555
H5D C6D 1_555 1_555
C7D C6D 1_555 1_555
H6D C7D 1_555 1_555
C8D C7D 1_555 1_555
C9D C8D 1_555 1_555
H7D C9D 1_555 1_555
C10D C9D 1_555 1_555
C11D C10D 1_555 1_555
H8D C11D 1_555 1_555
C12D C11D 1_555 1_555
H9D C12D 1_555 1_555
C13D C8D 1_555 1_555
H10D C13D 1_555 1_555
C14D C10D 1_555 1_555
H11D C14D 1_555 1_555
C15D C14D 1_555 1_555
H12D C15D 1_555 1_555
C16D C15D 1_555 1_555
C17D C16D 1_555 1_555
H13D C17D 1_555 1_555
C18D C17D 1_555 1_555
H14D C18D 1_555 1_555
C19D C16D 1_555 1_555
H15D C19D 1_555 1_555
C20D N2D 1_555 1_555
H16D C20D 1_555 1_555
N1E Co1 1_555 1_555
N2E C18E 1_555 1_555
C1E N1E 1_555 1_555
H1E C1E 1_555 1_555
C2E C1E 1_555 1_555
H2E C2E 1_555 1_555
C3E C2E 1_555 1_555
C4E C3E 1_555 1_555
H3E C4E 1_555 1_555
C5E N1E 1_555 1_555
H4E C5E 1_555 1_555
C6E C3E 1_555 1_555
H5E C6E 1_555 1_555
C7E C6E 1_555 1_555
H6E C7E 1_555 1_555
C8E C7E 1_555 1_555
C9E C8E 1_555 1_555
H7E C9E 1_555 1_555
C10E C9E 1_555 1_555
C11E C10E 1_555 1_555
H8E C11E 1_555 1_555
C12E C11E 1_555 1_555
H9E C12E 1_555 1_555
C13E C8E 1_555 1_555
H10E C13E 1_555 1_555
C14E C10E 1_555 1_555
H11E C14E 1_555 1_555
C15E C14E 1_555 1_555
H12E C15E 1_555 1_555
C16E C15E 1_555 1_555
C17E C16E 1_555 1_555
H13E C17E 1_555 1_555
C18E C17E 1_555 1_555
H14E C18E 1_555 1_555
C19E C16E 1_555 1_555
H15E C19E 1_555 1_555
C20E N2E 1_555 1_555
H16E C20E 1_555 1_555
S1D C32D 1_555 1_555
N3D Co1 1_555 1_555
C32D N3D 1_555 1_555
Co2A N5A 1_555 1_555
S2F C33F 1_555 1_555
N4F Co2 1_555 1_555
C33F N4F 1_555 1_555
N5F Co2 1_555 1_555
C21F N5F 1_555 1_555
H17F C21F 1_555 1_555
C22F C21F 1_555 1_555
H18F C22F 1_555 1_555
C23F C22F 1_555 1_555
C24F C23F 1_555 1_555
H19F C24F 1_555 1_555
C25F N5F 1_555 1_555
H20F C25F 1_555 1_555
C26F C23F 1_555 1_555
H21F C26F 1_555 1_555
C27F C26F 1_555 1_555
H22F C27F 1_555 1_555
C28F C27F 1_555 1_555
C29F C28F 1_555 1_555
H23F C29F 1_555 1_555
C30F C29F 1_555 1_555
H24F C30F 1_555 1_555
C31F C28F 1_555 1_555
H25F C31F 1_555 1_555
C29G C30F 1_555 1_555
C28G C31F 1_555 1_555
C27G C28G 1_555 1_555
C26G C27G 1_555 1_555
C23G C26G 1_555 1_555
C22G C23G 1_555 1_555
C21G C22G 1_555 1_555
N5G C21G 1_555 1_555
C25G N5G 1_555 1_555
C24G C23G 1_555 1_555
H19G C24G 1_555 1_555
H20G C25G 1_555 1_555
H17G C21G 1_555 1_555
H18G C22G 1_555 1_555
H21G C26G 1_555 1_555
H22G C27G 1_555 1_555
H23G C29G 1_555 1_555
S2A C33A 1_555 1_555
N4A Co2A 1_555 1_555
C33A N4A 1_555 1_555
S2G C33G 1_555 1_555
N4G Co2A 1_555 1_555
C33G N4G 1_555 1_555
N2F Co2 1_555 1_555
Co2B N2D 1_555 1_555
Co2C N2E 1_555 1_555
N2G Co2A 1_555 1_555
N5G_2 Co2A 1_555 1_555
Co2A_2 N5G 1_555 1_555
C4 C5 1_555 1_555
C12 C13 1_555 1_555
C19 C20 1_555 1_555
C24 C25 1_555 1_555
C29A C28A 1_555 1_555
C25A C24A 1_555 1_555
N2A Co2A 1_555 1_555
C4A C5A 1_555 1_555
C12A C13A 1_555 1_555
C19A C20A 1_555 1_555
C4D C5D 1_555 1_555
C12D C13D 1_555 1_555
C19D C20D 1_555 1_555
C4E C5E 1_555 1_555
C12E C13E 1_555 1_555
C19E C20E 1_555 1_555
C24F C25F 1_555 1_555
C29G C28G 1_555 1_555
C25G C24G 1_555 1_555

#END
