
#######################################################################
#
#                 Cambridge Crystallographic Data Centre
#                                CCDC 
#
#######################################################################
#
# If this CIF has been generated from an entry in the Cambridge 
# Structural Database, then it will include bibliographic, chemical, 
# crystal, experimental, refinement or atomic coordinate data resulting 
# from the CCDC's data processing and validation procedures.
#
#######################################################################

data_VAFBOV
_symmetry_cell_setting           triclinic
_symmetry_space_group_name_H-M   'P -1'
_symmetry_Int_Tables_number      2
_space_group_name_Hall           '-P 1'
loop_
_symmetry_equiv_pos_site_id
_symmetry_equiv_pos_as_xyz
1 x,y,z
2 -x,-y,-z
_cell_length_a                   13.8076(6)
_cell_length_b                   16.0102(7)
_cell_length_c                   24.8007(11)
_cell_angle_alpha                77.7910(10)
_cell_angle_beta                 86.8270(10)
_cell_angle_gamma                65.0330(10)
_cell_volume                     4854.2
loop_
_atom_site_label
_atom_site_type_symbol
_atom_site_fract_x
_atom_site_fract_y
_atom_site_fract_z
Cl1 Cl 0.23514(12) 0.46866(10) 0.48811(5)
O7 O 0.3178(4) 0.4476(3) 0.44950(17)
O8 O 0.2098(4) 0.5589(3) 0.50274(16)
O9 O 0.2643(3) 0.3983(3) 0.53716(14)
O10 O 0.1412(4) 0.4750(3) 0.46362(17)
Cl2 Cl 0.3751(7) 0.1558(5) 0.0577(3)
O11 O 0.4443(5) 0.0666(4) 0.0925(2)
O12 O 0.4336(7) 0.2152(5) 0.0477(3)
O13 O 0.2839(5) 0.2008(5) 0.0860(3)
O14 O 0.3258(6) 0.1494(5) 0.0104(3)
Cl4 Cl 0.9886(4) 0.0551(4) 0.2274(2)
O19 O 1.0174(10) 0.0137(8) 0.1770(4)
O20 O 0.9905(10) -0.0051(7) 0.2744(4)
O21 O 0.8747(7) 0.1283(8) 0.2143(5)
O22 O 1.0489(8) 0.1095(7) 0.2255(4)
Ag1 Ag 0.77485(3) 0.54063(3) 0.220032(15)
Ag2 Ag 0.14353(3) 0.56347(3) 0.208380(17)
Ag3 Ag 0.45244(3) 0.03307(3) 0.328202(18)
C1 C 0.4855(3) 0.5415(3) 0.29544(16)
C2 C 0.4358(3) 0.6341(3) 0.26454(17)
C3 C 0.4183(3) 0.6491(3) 0.20708(17)
C4 C 0.4544(3) 0.5728(3) 0.18080(17)
C5 C 0.5029(3) 0.4802(3) 0.21180(17)
C6 C 0.5171(3) 0.4648(3) 0.26918(18)
C7 C 0.9375(4) 0.4974(4) 0.3833(2)
H1 H 0.9526 0.4657 0.4209
C8 C 0.9843(4) 0.5509(4) 0.3543(2)
H2 H 1.0393 0.5637 0.3669
C9 C 0.9352(4) 0.5829(3) 0.30229(19)
H3 H 0.9518 0.6231 0.2730
C10 C 0.8646(4) 0.2857(4) 0.3496(3)
H4 H 0.8850 0.2546 0.3870
C11 C 0.8765(5) 0.2449(5) 0.3059(4)
H5 H 0.9070 0.1792 0.3067
C12 C 0.8368(4) 0.3151(5) 0.2601(3)
H6 H 0.8356 0.3057 0.2236
C13 C 0.7928(4) 0.4514(3) 0.36075(18)
H7 H 0.8051 0.4197 0.4007
C14 C 0.6780(3) 0.5224(3) 0.35304(17)
H8 H 0.6656 0.5728 0.3733
H9 H 0.6598 0.5514 0.3134
C15 C 0.5035(3) 0.5230(3) 0.35723(17)
H10 H 0.4733 0.5838 0.3694
H11 H 0.4651 0.4855 0.3757
C16 C 0.5341(5) 0.8053(4) 0.48008(19)
H12 H 0.5799 0.7432 0.4983
C17 C 0.4787(6) 0.8808(4) 0.5040(2)
H13 H 0.4781 0.8820 0.5422
C18 C 0.4239(5) 0.9551(4) 0.4611(2)
H14 H 0.3790 1.0170 0.4657
C19 C 0.7300(4) 0.7544(3) 0.3511(2)
H15 H 0.7699 0.6959 0.3752
C20 C 0.7701(4) 0.8051(3) 0.3128(2)
H16 H 0.8429 0.7893 0.3045
C21 C 0.6821(4) 0.8842(3) 0.2885(2)
H17 H 0.6861 0.9326 0.2601
C22 C 0.5450(4) 0.7817(3) 0.38259(18)
H18 H 0.5820 0.7141 0.4017
C23 C 0.4510(4) 0.7907(3) 0.35007(19)
H19 H 0.3952 0.7846 0.3753
H20 H 0.4198 0.8531 0.3247
C24 C 0.3996(3) 0.7166(3) 0.29270(18)
H21 H 0.3648 0.7760 0.2650
H22 H 0.3463 0.7125 0.3203
C25 C 0.1250(4) 0.7511(4) 0.3172(2)
H23 H 0.0949 0.8132 0.3238
C26 C 0.1756(5) 0.6700(5) 0.3552(2)
H24 H 0.1870 0.6640 0.3935
C27 C 0.2073(4) 0.5973(4) 0.3261(2)
H25 H 0.2451 0.5323 0.3421
C28 C -0.1019(4) 0.8632(4) 0.1819(3)
H26 H -0.1225 0.9246 0.1887
C29 C -0.1641(4) 0.8331(4) 0.1583(2)
H27 H -0.2367 0.8683 0.1457
C30 C -0.0992(4) 0.7397(4) 0.1564(2)
H28 H -0.1212 0.6999 0.1418
C31 C 0.0896(3) 0.7904(3) 0.21539(18)
H29 H 0.0696 0.8554 0.2215
C32 C 0.1779(3) 0.7718(3) 0.17428(18)
H30 H 0.2099 0.7048 0.1715
H31 H 0.1495 0.8112 0.1373
C33 C 0.3598(3) 0.7498(3) 0.17476(18)
H32 H 0.4016 0.7859 0.1780
H33 H 0.3542 0.7492 0.1352
C34 C 0.8434(4) 0.6265(4) 0.04521(19)
H34 H 0.8206 0.6711 0.0113
C35 C 0.9454(4) 0.5624(4) 0.0600(2)
H35 H 1.0075 0.5528 0.0391
C36 C 0.9387(4) 0.5137(3) 0.1127(2)
H36 H 0.9982 0.4643 0.1340
C37 C 0.5839(4) 0.8202(3) 0.1181(2)
H37 H 0.5636 0.8610 0.0828
C38 C 0.5682(4) 0.8468(4) 0.1675(2)
H38 H 0.5355 0.9091 0.1739
C39 C 0.6099(4) 0.7636(4) 0.2065(2)
H39 H 0.6099 0.7604 0.2452
C40 C 0.6651(3) 0.6642(3) 0.08885(16)
H40 H 0.6381 0.7048 0.0515
C41 C 0.6155(3) 0.5935(3) 0.10017(17)
H41 H 0.6410 0.5507 0.0738
H42 H 0.6351 0.5552 0.1382
C42 C 0.4455(3) 0.5918(3) 0.11813(16)
H43 H 0.4747 0.5313 0.1057
H44 H 0.3693 0.6264 0.1057
C43 C 0.2666(4) 0.4570(4) 0.0545(2)
H45 H 0.2994 0.4050 0.0369
C44 C 0.2218(4) 0.5489(4) 0.0299(2)
H46 H 0.2157 0.5743 -0.0087
C45 C 0.1864(4) 0.5992(4) 0.0713(2)
H47 H 0.1516 0.6659 0.0655
C46 C 0.1891(4) 0.2813(3) 0.1910(2)
H48 H 0.2207 0.2310 0.1719
C47 C 0.1102(4) 0.2918(4) 0.2271(2)
H49 H 0.0754 0.2513 0.2385
C48 C 0.0912(4) 0.3737(3) 0.2436(2)
H50 H 0.0385 0.3995 0.2690
C49 C 0.2989(3) 0.3716(3) 0.15395(18)
H51 H 0.3375 0.3160 0.1365
C50 C 0.3802(3) 0.3767(3) 0.19009(17)
H52 H 0.3453 0.4286 0.2101
H53 H 0.4146 0.3169 0.2175
C51 C 0.5416(3) 0.3984(3) 0.18263(18)
H54 H 0.5945 0.4048 0.1554
H55 H 0.5782 0.3390 0.2100
C52 C 0.6491(6) 0.1382(4) 0.2090(3)
H56 H 0.7128 0.1462 0.1998
C53 C 0.5889(8) 0.1226(4) 0.1754(3)
H57 H 0.6012 0.1169 0.1380
C54 C 0.5063(6) 0.1164(4) 0.2060(2)
H58 H 0.4504 0.1059 0.1924
C55 C 0.7925(6) 0.0182(4) 0.3631(4)
H59 H 0.8504 0.0308 0.3471
C56 C 0.7967(7) -0.0546(5) 0.4073(4)
H60 H 0.8585 -0.1009 0.4283
C57 C 0.6939(6) -0.0456(4) 0.4141(2)
H61 H 0.6740 -0.0870 0.4408
C58 C 0.6378(4) 0.1532(3) 0.3093(2)
H62 H 0.6933 0.1779 0.2990
C59 C 0.5488(4) 0.2253(3) 0.33543(18)
H63 H 0.4911 0.2039 0.3445
H64 H 0.5768 0.2286 0.3705
C60 C 0.5708(4) 0.3656(3) 0.30278(18)
H65 H 0.6411 0.3319 0.2875
H66 H 0.5829 0.3675 0.3414
N1 N 0.8620(3) 0.5510(3) 0.29786(14)
N2 N 0.8644(3) 0.4976(3) 0.34856(14)
N3 N 0.7993(3) 0.4001(3) 0.27438(17)
N4 N 0.8181(3) 0.3791(3) 0.32961(17)
N5 N 0.4419(3) 0.9291(3) 0.41240(16)
N6 N 0.5105(3) 0.8365(3) 0.42534(15)
N7 N 0.5907(3) 0.8849(2) 0.30949(15)
N8 N 0.6225(3) 0.8038(2) 0.34812(14)
N9 N 0.1772(3) 0.6316(3) 0.27256(15)
N10 N 0.1258(3) 0.7264(3) 0.26868(14)
N11 N -0.0024(3) 0.7137(3) 0.17777(15)
N12 N -0.0053(3) 0.7900(2) 0.19405(15)
N13 N 0.8384(3) 0.5450(3) 0.12966(14)
N14 N 0.7802(3) 0.6157(3) 0.08724(13)
N15 N 0.6499(3) 0.6885(3) 0.18342(14)
N16 N 0.6338(3) 0.7253(2) 0.12821(13)
N17 N 0.2077(3) 0.5411(3) 0.12040(16)
N18 N 0.2553(3) 0.4538(3) 0.10958(14)
N19 N 0.1550(3) 0.4130(3) 0.22003(15)
N20 N 0.2157(3) 0.3545(2) 0.18664(15)
N21 N 0.5131(3) 0.1268(3) 0.25717(15)
N22 N 0.6021(3) 0.1407(3) 0.25892(16)
N23 N 0.6259(4) 0.0278(3) 0.37914(16)
N24 N 0.6874(4) 0.0664(3) 0.34860(18)
N25 N 0.3296(5) 0.0277(4) 0.2531(3)
C61 C 0.2954(6) 0.0173(5) 0.2161(4)
C62 C 0.2579(6) 0.0051(5) 0.1653(4)
H67 H 0.3124 -0.0012 0.1375
H68 H 0.1915 0.0599 0.1512
H69 H 0.2447 -0.0518 0.1733
N26 N 0.3155(5) 0.1657(4) 0.3610(3)
C63 C 0.2769(5) 0.2388(5) 0.3663(3)
C64 C 0.2413(8) 0.3363(5) 0.3690(3)
H70 H 0.2710 0.3404 0.4029
H71 H 0.1631 0.3663 0.3692
H72 H 0.2658 0.3686 0.3369
O1 O 0.6149(2) 0.4735(2) 0.37390(11)
O2 O 0.4877(2) 0.71796(19) 0.31947(11)
O3 O 0.2551(2) 0.79533(19) 0.19448(12)
O4 O 0.5035(2) 0.6467(2) 0.09358(11)
O5 O 0.4563(2) 0.3928(2) 0.15465(11)
O6 O 0.5050(2) 0.31653(19) 0.30156(11)
Ag3_2 Ag 0.45244(3) 1.03307(3) 0.328202(18)
N5_2 N 0.4419(3) -0.0709(3) 0.41240(16)
N7_2 N 0.5907(3) -0.1151(2) 0.30949(15)
Cl3? Cl 0.3846(17) 0.1510(12) 0.0594(6)
O15? O 0.3772(10) 0.1403(7) 0.0057(4)
O16? O 0.3739(14) 0.2422(10) 0.0581(6)
O17? O 0.4905(15) 0.0839(15) 0.0531(10)
O18? O 0.3460(14) 0.1161(12) 0.1075(6)
Cl5? Cl 0.9217(6) 0.1000(5) 0.1661(3)
O23? O 1.0032(16) 0.0282(14) 0.1389(11)
O24? O 0.8320(15) 0.1411(17) 0.1267(9)
O25? O 0.897(2) 0.0542(18) 0.2157(7)
O26? O 0.9572(14) 0.1679(11) 0.1690(7)
Cl6? Cl 0.9811(5) 0.0665(4) 0.2139(2)
O27? O 0.8866(8) 0.0882(9) 0.2461(5)
O28? O 0.9808(12) 0.0310(10) 0.1692(4)
O29? O 1.0595(9) -0.0186(7) 0.2591(4)
O30? O 1.0218(9) 0.1346(7) 0.2092(5)
loop_
_geom_bond_atom_site_label_1
_geom_bond_atom_site_label_2
_geom_bond_site_symmetry_1
_geom_bond_site_symmetry_2
Ag1 N1 1_555 1_555
Ag2 N9 1_555 1_555
Ag3 N21 1_555 1_555
C1 C2 1_555 1_555
C2 C3 1_555 1_555
C3 C4 1_555 1_555
C4 C5 1_555 1_555
C5 C6 1_555 1_555
C6 C1 1_555 1_555
C7 H1 1_555 1_555
C8 C7 1_555 1_555
H2 C8 1_555 1_555
C9 C8 1_555 1_555
H3 C9 1_555 1_555
C10 H4 1_555 1_555
C11 C10 1_555 1_555
H5 C11 1_555 1_555
C12 C11 1_555 1_555
H6 C12 1_555 1_555
C13 H7 1_555 1_555
C14 C13 1_555 1_555
H8 C14 1_555 1_555
H9 C14 1_555 1_555
C15 C1 1_555 1_555
H10 C15 1_555 1_555
H11 C15 1_555 1_555
C16 H12 1_555 1_555
C17 C16 1_555 1_555
H13 C17 1_555 1_555
C18 C17 1_555 1_555
H14 C18 1_555 1_555
C19 H15 1_555 1_555
C20 C19 1_555 1_555
H16 C20 1_555 1_555
C21 C20 1_555 1_555
H17 C21 1_555 1_555
C22 H18 1_555 1_555
C23 C22 1_555 1_555
H19 C23 1_555 1_555
H20 C23 1_555 1_555
C24 C2 1_555 1_555
H21 C24 1_555 1_555
H22 C24 1_555 1_555
C25 H23 1_555 1_555
C26 C25 1_555 1_555
H24 C26 1_555 1_555
C27 C26 1_555 1_555
H25 C27 1_555 1_555
C28 H26 1_555 1_555
C29 C28 1_555 1_555
H27 C29 1_555 1_555
C30 C29 1_555 1_555
H28 C30 1_555 1_555
C31 H29 1_555 1_555
C32 C31 1_555 1_555
H30 C32 1_555 1_555
H31 C32 1_555 1_555
C33 C3 1_555 1_555
H32 C33 1_555 1_555
H33 C33 1_555 1_555
C34 H34 1_555 1_555
C35 C34 1_555 1_555
H35 C35 1_555 1_555
C36 C35 1_555 1_555
H36 C36 1_555 1_555
C37 H37 1_555 1_555
C38 C37 1_555 1_555
H38 C38 1_555 1_555
C39 C38 1_555 1_555
H39 C39 1_555 1_555
C40 H40 1_555 1_555
C41 C40 1_555 1_555
H41 C41 1_555 1_555
H42 C41 1_555 1_555
C42 C4 1_555 1_555
H43 C42 1_555 1_555
H44 C42 1_555 1_555
C43 H45 1_555 1_555
C44 C43 1_555 1_555
H46 C44 1_555 1_555
C45 C44 1_555 1_555
H47 C45 1_555 1_555
C46 H48 1_555 1_555
C47 C46 1_555 1_555
H49 C47 1_555 1_555
C48 C47 1_555 1_555
H50 C48 1_555 1_555
C49 H51 1_555 1_555
C50 C49 1_555 1_555
H52 C50 1_555 1_555
H53 C50 1_555 1_555
C51 C5 1_555 1_555
H54 C51 1_555 1_555
H55 C51 1_555 1_555
C52 H56 1_555 1_555
C53 C52 1_555 1_555
H57 C53 1_555 1_555
C54 C53 1_555 1_555
H58 C54 1_555 1_555
C55 H59 1_555 1_555
C56 C55 1_555 1_555
H60 C56 1_555 1_555
C57 C56 1_555 1_555
H61 C57 1_555 1_555
C58 H62 1_555 1_555
C59 C58 1_555 1_555
H63 C59 1_555 1_555
H64 C59 1_555 1_555
C60 C6 1_555 1_555
H65 C60 1_555 1_555
H66 C60 1_555 1_555
N1 C9 1_555 1_555
N2 C7 1_555 1_555
N3 Ag1 1_555 1_555
N4 C10 1_555 1_555
N5 C18 1_555 1_555
N6 C16 1_555 1_555
N7 C21 1_555 1_555
N8 C19 1_555 1_555
N9 C27 1_555 1_555
N10 C25 1_555 1_555
N11 Ag2 1_555 1_555
N12 C28 1_555 1_555
N13 Ag1 1_555 1_555
N14 C34 1_555 1_555
N15 Ag1 1_555 1_555
N16 C37 1_555 1_555
N17 Ag2 1_555 1_555
N18 C43 1_555 1_555
N19 Ag2 1_555 1_555
N20 C46 1_555 1_555
N21 C54 1_555 1_555
N22 C52 1_555 1_555
N23 C57 1_555 1_555
N24 C55 1_555 1_555
N25 Ag3 1_555 1_555
C61 N25 1_555 1_555
C62 C61 1_555 1_555
H67 C62 1_555 1_555
H68 C62 1_555 1_555
H69 C62 1_555 1_555
N26 Ag3 1_555 1_555
C63 N26 1_555 1_555
C64 C63 1_555 1_555
H70 C64 1_555 1_555
H71 C64 1_555 1_555
H72 C64 1_555 1_555
O1 C14 1_555 1_555
O2 C23 1_555 1_555
O3 C32 1_555 1_555
O4 C41 1_555 1_555
O5 C50 1_555 1_555
O6 C59 1_555 1_555
Cl1 O7 1_555 1_555
O8 Cl1 1_555 1_555
O9 Cl1 1_555 1_555
O10 Cl1 1_555 1_555
Cl2 O11 1_555 1_555
O12 Cl2 1_555 1_555
O13 Cl2 1_555 1_555
O14 Cl2 1_555 1_555
Cl4 O19 1_555 1_555
O20 Cl4 1_555 1_555
O21 Cl4 1_555 1_555
O22 Cl4 1_555 1_555
Ag3_2 N5 1_555 1_555
N5_2 Ag3 1_555 1_555
N7_2 Ag3 1_555 1_555
C12 N3 1_555 1_555
C13 N2 1_555 1_555
C13 N4 1_555 1_555
C15 O1 1_555 1_555
C22 N6 1_555 1_555
C22 N8 1_555 1_555
C24 O2 1_555 1_555
C30 N11 1_555 1_555
C31 N10 1_555 1_555
C31 N12 1_555 1_555
C33 O3 1_555 1_555
C36 N13 1_555 1_555
C39 N15 1_555 1_555
C40 N14 1_555 1_555
C40 N16 1_555 1_555
C42 O4 1_555 1_555
C45 N17 1_555 1_555
C48 N19 1_555 1_555
C49 N18 1_555 1_555
C49 N20 1_555 1_555
C51 O5 1_555 1_555
C58 N22 1_555 1_555
C58 N24 1_555 1_555
C60 O6 1_555 1_555
N1 N2 1_555 1_555
N3 N4 1_555 1_555
N5 N6 1_555 1_555
N7 N8 1_555 1_555
N7 Ag3_2 1_555 1_555
N9 N10 1_555 1_555
N11 N12 1_555 1_555
N13 N14 1_555 1_555
N15 N16 1_555 1_555
N17 N18 1_555 1_555
N19 N20 1_555 1_555
N21 N22 1_555 1_555
N23 N24 1_555 1_555

#END
