
#######################################################################
#
#                 Cambridge Crystallographic Data Centre
#                                CCDC 
#
#######################################################################
#
# If this CIF has been generated from an entry in the Cambridge 
# Structural Database, then it will include bibliographic, chemical, 
# crystal, experimental, refinement or atomic coordinate data resulting 
# from the CCDC's data processing and validation procedures.
#
#######################################################################

data_VAFBIP
_symmetry_cell_setting           triclinic
_symmetry_space_group_name_H-M   'P -1'
_symmetry_Int_Tables_number      2
_space_group_name_Hall           '-P 1'
loop_
_symmetry_equiv_pos_site_id
_symmetry_equiv_pos_as_xyz
1 x,y,z
2 -x,-y,-z
_cell_length_a                   13.7323(6)
_cell_length_b                   15.3482(6)
_cell_length_c                   24.6125(10)
_cell_angle_alpha                100.2490(10)
_cell_angle_beta                 97.5380(10)
_cell_angle_gamma                115.0240(10)
_cell_volume                     4499.85
loop_
_atom_site_label
_atom_site_type_symbol
_atom_site_fract_x
_atom_site_fract_y
_atom_site_fract_z
Ag1 Ag 0.49361(4) 0.26241(3) 0.712181(17)
Ag2 Ag -0.16011(3) 0.24866(3) 0.681730(18)
Ag3 Ag -0.26118(3) -0.16146(3) 0.851044(16)
C1 C 0.2466(3) 0.3039(3) 0.79415(17)
C2 C 0.2697(3) 0.3789(3) 0.76572(18)
C3 C 0.2264(3) 0.3536(3) 0.70692(18)
C4 C 0.1649(3) 0.2527(3) 0.67655(18)
C5 C 0.1419(3) 0.1780(3) 0.70589(19)
C6 C 0.1813(3) 0.2036(3) 0.76452(19)
C7 C 0.7014(4) 0.2884(4) 0.8732(2)
H1 H 0.7055 0.2700 0.9080
C8 C 0.7870(4) 0.3314(4) 0.8488(2)
H2 H 0.8623 0.3482 0.8626
C9 C 0.7417(4) 0.3456(4) 0.7997(2)
H3 H 0.7828 0.3754 0.7741
C10 C 0.3768(4) 0.0536(4) 0.8160(2)
H4 H 0.3855 0.0371 0.8511
C11 C 0.3157(4) -0.0108(4) 0.7650(2)
H5 H 0.2735 -0.0810 0.7571
C12 C 0.3273(4) 0.0464(4) 0.7272(2)
H6 H 0.2928 0.0205 0.6879
C13 C 0.4991(3) 0.2399(3) 0.84840(19)
H7 H 0.5033 0.2264 0.8867
C14 C 0.4598(3) 0.3190(3) 0.85053(18)
H8 H 0.5172 0.3835 0.8758
H9 H 0.4435 0.3281 0.8121
C15 C 0.2914(3) 0.3288(3) 0.85801(18)
H10 H 0.3327 0.4020 0.8732
H11 H 0.2288 0.3040 0.8766
C16 C 0.6486(4) 0.7318(4) 1.0023(2)
H12 H 0.6366 0.6820 1.0223
C17 C 0.6778(4) 0.8291(4) 1.0253(2)
H13 H 0.6910 0.8614 1.0642
C18 C 0.6840(4) 0.8710(4) 0.9795(2)
H14 H 0.7035 0.9392 0.9826
C19 C 0.7485(4) 0.5776(4) 0.8855(2)
H15 H 0.7476 0.5416 0.9132
C20 C 0.8166(4) 0.5971(4) 0.8487(2)
H16 H 0.8721 0.5764 0.8452
C21 C 0.7888(4) 0.6530(3) 0.8176(2)
H17 H 0.8243 0.6781 0.7892
C22 C 0.5983(3) 0.6241(3) 0.90343(18)
H18 H 0.5774 0.5699 0.9235
C23 C 0.4951(3) 0.6072(3) 0.86341(19)
H19 H 0.4436 0.6172 0.8854
H20 H 0.5144 0.6557 0.8401
C24 C 0.3354(3) 0.4875(3) 0.79850(19)
H21 H 0.3419 0.5301 0.7719
H22 H 0.2956 0.5034 0.8264
C25 C 0.0910(3) 0.4815(4) 0.82632(19)
H23 H 0.1316 0.5506 0.8447
C26 C 0.0760(4) 0.4053(4) 0.8508(2)
H24 H 0.1032 0.4100 0.8892
C27 C 0.0125(4) 0.3194(4) 0.8073(2)
H25 H -0.0115 0.2539 0.8120
C28 C -0.0947(4) 0.5594(4) 0.7039(2)
H26 H -0.0473 0.6278 0.7218
C29 C -0.2001(4) 0.5201(4) 0.6720(2)
H27 H -0.2405 0.5551 0.6634
C30 C -0.2353(4) 0.4192(4) 0.6552(2)
H28 H -0.3068 0.3721 0.6330
C31 C 0.0379(3) 0.4917(3) 0.72658(18)
H29 H 0.0897 0.5639 0.7436
C32 C 0.0814(3) 0.4551(3) 0.67860(18)
H30 H 0.0484 0.3815 0.6683
H31 H 0.0635 0.4766 0.6446
C33 C 0.2450(3) 0.4356(3) 0.67693(19)
H32 H 0.3254 0.4769 0.6817
H33 H 0.2115 0.4055 0.6358
C34 C 0.5148(4) 0.2194(4) 0.5327(2)
H34 H 0.5153 0.2460 0.5006
C35 C 0.5606(4) 0.1593(4) 0.5437(2)
H35 H 0.5988 0.1350 0.5207
C36 C 0.5403(4) 0.1407(4) 0.5951(2)
H36 H 0.5645 0.1016 0.6136
C37 C 0.4966(4) 0.4717(4) 0.6149(2)
H37 H 0.4907 0.4866 0.5791
C38 C 0.5434(4) 0.5390(4) 0.6665(2)
H38 H 0.5763 0.6096 0.6741
C39 C 0.5325(4) 0.4823(4) 0.7057(2)
H39 H 0.5579 0.5091 0.7457
C40 C 0.4014(3) 0.2853(3) 0.58171(18)
H40 H 0.3846 0.2990 0.5443
C41 C 0.2919(3) 0.2194(3) 0.59383(19)
H41 H 0.2566 0.1529 0.5665
H42 H 0.3036 0.2109 0.6327
C42 C 0.1309(3) 0.2273(3) 0.61270(18)
H43 H 0.0914 0.1541 0.5974
H44 H 0.0796 0.2544 0.6017
C43 C -0.2477(4) 0.0083(4) 0.5323(2)
H45 H -0.2838 -0.0617 0.5162
C44 C -0.2235(4) 0.0789(4) 0.5034(2)
H46 H -0.2391 0.0692 0.4634
C45 C -0.1712(4) 0.1682(4) 0.5446(2)
H47 H -0.1441 0.2317 0.5368
C46 C -0.3983(4) -0.0579(3) 0.6617(2)
H48 H -0.4293 -0.1249 0.6398
C47 C -0.4472(4) -0.0179(4) 0.6962(2)
H49 H -0.5189 -0.0507 0.7030
C48 C -0.3704(4) 0.0803(4) 0.7192(2)
H50 H -0.3818 0.1266 0.7454
C49 C -0.2157(3) 0.0091(3) 0.63486(19)
H51 H -0.2393 -0.0631 0.6186
C50 C -0.1033(3) 0.0522(3) 0.67496(19)
H52 H -0.0779 0.1231 0.6941
H53 H -0.1063 0.0151 0.7042
C51 C 0.0764(3) 0.0690(3) 0.6726(2)
H54 H 0.1189 0.0539 0.6461
H55 H 0.0692 0.0269 0.6994
C52 C -0.0273(4) -0.1540(3) 0.7454(2)
H56 H 0.0416 -0.1531 0.7428
C53 C -0.1216(5) -0.1993(4) 0.7035(2)
H57 H -0.1325 -0.2365 0.6660
C54 C -0.1983(4) -0.1792(4) 0.7276(2)
H58 H -0.2727 -0.2023 0.7083
C55 C 0.0772(4) -0.1091(4) 0.9242(2)
H59 H 0.1435 -0.1092 0.9171
C56 C 0.0304(5) -0.1349(4) 0.9678(2)
H60 H 0.0577 -0.1565 0.9974
C57 C -0.0647(4) -0.1235(4) 0.9607(2)
H61 H -0.1141 -0.1369 0.9853
C58 C 0.0286(4) -0.0435(3) 0.84371(19)
H62 H 0.1037 -0.0328 0.8390
C59 C 0.0291(4) 0.0581(3) 0.85426(19)
H63 H -0.0422 0.0507 0.8625
H64 H 0.0884 0.1044 0.8880
C60 C 0.1540(3) 0.1254(3) 0.7970(2)
H65 H 0.1557 0.0657 0.7749
H66 H 0.2092 0.1512 0.8336
C61 C -0.5179(5) -0.2614(4) 0.7450(2)
H67 H -0.4917 -0.2331 0.7139
H68 H -0.5955 -0.3116 0.7314
H69 H -0.4733 -0.2925 0.7583
C62 C -0.5078(4) -0.1812(4) 0.7924(3)
H70 H -0.5550 -0.1512 0.7797
H71 H -0.5325 -0.2090 0.8243
C63 C -0.3802(5) -0.0182(4) 0.8495(3)
H72 H -0.4086 -0.0351 0.8832
H73 H -0.4222 0.0116 0.8310
C64 C -0.2596(5) 0.0548(4) 0.8675(3)
H74 H -0.2190 0.0263 0.8878
H75 H -0.2498 0.1165 0.8927
H76 H -0.2312 0.0692 0.8340
N1 N 0.6329(3) 0.3122(3) 0.79272(16)
N2 N 0.6098(3) 0.2767(3) 0.83872(15)
N3 N 0.3925(3) 0.1422(3) 0.75197(16)
N4 N 0.4230(3) 0.1461(3) 0.80752(16)
N5 N 0.6592(3) 0.8035(3) 0.93043(16)
N6 N 0.6399(3) 0.7189(3) 0.94607(16)
N7 N 0.7054(3) 0.6675(3) 0.83250(16)
N8 N 0.6820(3) 0.6206(3) 0.87416(15)
N9 N -0.0109(3) 0.3395(3) 0.75844(16)
N10 N 0.0374(3) 0.4409(3) 0.77125(15)
N11 N -0.1560(3) 0.3961(3) 0.67404(16)
N12 N -0.0708(3) 0.4840(3) 0.70507(15)
N13 N 0.4823(3) 0.1847(3) 0.61523(16)
N14 N 0.4687(3) 0.2333(3) 0.57621(15)
N15 N 0.4820(3) 0.3855(3) 0.67979(15)
N16 N 0.4601(3) 0.3803(3) 0.62375(15)
N17 N -0.1634(3) 0.1544(3) 0.59649(17)
N18 N -0.2118(3) 0.0544(3) 0.58753(16)
N19 N -0.2782(3) 0.1027(3) 0.70045(16)
N20 N -0.2982(3) 0.0155(3) 0.66479(15)
N21 N -0.1552(3) -0.1237(3) 0.78110(17)
N22 N -0.0502(3) -0.1108(3) 0.79114(16)
N23 N -0.0778(3) -0.0912(3) 0.91496(17)
N24 N 0.0099(3) -0.0834(3) 0.89292(16)
O1 O 0.3632(2) 0.2854(2) 0.87169(12)
O2 O 0.4436(2) 0.5090(2) 0.82768(12)
O3 O 0.1973(2) 0.4980(2) 0.69918(12)
O4 O 0.2247(2) 0.2674(2) 0.58826(12)
O5 O -0.0319(2) 0.0425(2) 0.64074(13)
O6 O 0.0457(2) 0.0994(2) 0.80733(13)
O7 O -0.3945(3) -0.1068(3) 0.81054(15)
Ag3_2 Ag 0.73882(3) 0.83854(3) 0.851044(16)
N5_2 N -0.3408(3) -0.1965(3) 0.93043(16)
N7_2 N -0.2946(3) -0.3325(3) 0.83250(16)
B1 B 0.8212(5) 0.2452(4) 0.1839(3)
F1 F 0.7510(3) 0.2875(3) 0.17835(17)
F2 F 0.7689(3) 0.1473(2) 0.15280(14)
F3 F 0.9140(3) 0.3002(2) 0.16728(17)
F4 F 0.8489(3) 0.2505(2) 0.24119(15)
B2 B 0.3626(5) 0.2998(4) 0.4293(2)
F5 F 0.3066(2) 0.2160(2) 0.45016(12)
F6 F 0.4484(2) 0.3713(2) 0.47197(12)
F7 F 0.4003(3) 0.2693(2) 0.38429(13)
F8 F 0.2899(3) 0.3355(2) 0.41236(13)
B3 B 0.6791(6) 0.4429(6) 0.0080(3)
F9 F 0.6949(5) 0.4420(5) 0.06370(19)
F10 F 0.6087(4) 0.3491(4) -0.02474(18)
F11 F 0.6347(6) 0.5056(5) -0.0004(3)
F12 F 0.7781(4) 0.4752(4) -0.0079(2)
N25 N 0.5310(5) 0.0926(5) 0.9453(2)
C65 C 0.5698(5) 0.1342(5) 0.9912(3)
C66 C 0.6141(6) 0.1864(5) 1.0496(3)
H77 H 0.5539 0.1837 1.0678
H78 H 0.6653 0.2560 1.0530
H79 H 0.6536 0.1555 1.0683
N26 N 0.0499(7) 0.7071(6) 0.0491(4)
C67 C 0.0490(7) 0.6560(7) 0.0069(4)
C68 C 0.0317(7) 0.5924(6) -0.0438(4)
H80 H -0.0449 0.5397 -0.0544
H81 H 0.0821 0.5626 -0.0404
H82 H 0.0453 0.6291 -0.0730
N27 N 0.0769(8) 0.4126(7) 0.5307(4)
C69 C 0.1579(10) 0.4563(8) 0.5195(4)
C70 C 0.2669(10) 0.5120(8) 0.5024(5)
H83 H 0.2972 0.4660 0.4910
H84 H 0.3197 0.5668 0.5347
H85 H 0.2532 0.5389 0.4706
N28 N 0.6637(8) 0.2299(7) 0.4271(4)
C71 C 0.7200(9) 0.2632(7) 0.3982(4)
C72 C 0.7915(8) 0.3038(7) 0.3616(4)
H86 H 0.7907 0.3655 0.3569
H87 H 0.7655 0.2555 0.3245
H88 H 0.8670 0.3178 0.3786
N29 N 0.8954(5) 0.1496(5) 0.3764(3)
C73 C 0.9642(6) 0.1596(5) 0.4109(3)
C74 C 1.0509(13) 0.1675(10) 0.4534(7)
H89 H 1.0361 0.1010 0.4575
H90 H 1.0550 0.2091 0.4896
H91 H 1.1212 0.1978 0.4422
B4? B 0.6766(16) 0.4615(15) 0.0150(10)
C75? C 0.970(3) -0.112(2) 0.5302(14)
C76? C 0.991(2) -0.0269(18) 0.5095(12)
F13? F 0.705(3) 0.416(2) 0.0525(13)
F14? F 0.640(2) 0.401(2) -0.0388(10)
F15? F 0.5935(15) 0.4812(16) 0.0279(10)
F16? F 0.7644(15) 0.5496(15) 0.0155(9)
H92? H 0.9313 -0.0095 0.4891
H93? H 0.9682 0.0154 0.5320
H94? H 0.9500 -0.0485 0.4709
N30? N 0.945(3) -0.184(2) 0.5437(18)
loop_
_geom_bond_atom_site_label_1
_geom_bond_atom_site_label_2
_geom_bond_site_symmetry_1
_geom_bond_site_symmetry_2
Ag1 N1 1_555 1_555
Ag2 N9 1_555 1_555
Ag3 N21 1_555 1_555
C1 C2 1_555 1_555
C2 C3 1_555 1_555
C3 C4 1_555 1_555
C4 C5 1_555 1_555
C5 C6 1_555 1_555
C6 C1 1_555 1_555
C7 H1 1_555 1_555
C8 C7 1_555 1_555
H2 C8 1_555 1_555
C9 C8 1_555 1_555
H3 C9 1_555 1_555
C10 H4 1_555 1_555
C11 C10 1_555 1_555
H5 C11 1_555 1_555
C12 C11 1_555 1_555
H6 C12 1_555 1_555
C13 H7 1_555 1_555
C14 C13 1_555 1_555
H8 C14 1_555 1_555
H9 C14 1_555 1_555
C15 C1 1_555 1_555
H10 C15 1_555 1_555
H11 C15 1_555 1_555
C16 H12 1_555 1_555
C17 C16 1_555 1_555
H13 C17 1_555 1_555
C18 C17 1_555 1_555
H14 C18 1_555 1_555
C19 H15 1_555 1_555
C20 C19 1_555 1_555
H16 C20 1_555 1_555
C21 C20 1_555 1_555
H17 C21 1_555 1_555
C22 H18 1_555 1_555
C23 C22 1_555 1_555
H19 C23 1_555 1_555
H20 C23 1_555 1_555
C24 C2 1_555 1_555
H21 C24 1_555 1_555
H22 C24 1_555 1_555
C25 H23 1_555 1_555
C26 C25 1_555 1_555
H24 C26 1_555 1_555
C27 C26 1_555 1_555
H25 C27 1_555 1_555
C28 H26 1_555 1_555
C29 C28 1_555 1_555
H27 C29 1_555 1_555
C30 C29 1_555 1_555
H28 C30 1_555 1_555
C31 H29 1_555 1_555
C32 C31 1_555 1_555
H30 C32 1_555 1_555
H31 C32 1_555 1_555
C33 C3 1_555 1_555
H32 C33 1_555 1_555
H33 C33 1_555 1_555
C34 H34 1_555 1_555
C35 C34 1_555 1_555
H35 C35 1_555 1_555
C36 C35 1_555 1_555
H36 C36 1_555 1_555
C37 H37 1_555 1_555
C38 C37 1_555 1_555
H38 C38 1_555 1_555
C39 C38 1_555 1_555
H39 C39 1_555 1_555
C40 H40 1_555 1_555
C41 C40 1_555 1_555
H41 C41 1_555 1_555
H42 C41 1_555 1_555
C42 C4 1_555 1_555
H43 C42 1_555 1_555
H44 C42 1_555 1_555
C43 H45 1_555 1_555
C44 C43 1_555 1_555
H46 C44 1_555 1_555
C45 C44 1_555 1_555
H47 C45 1_555 1_555
C46 H48 1_555 1_555
C47 C46 1_555 1_555
H49 C47 1_555 1_555
C48 C47 1_555 1_555
H50 C48 1_555 1_555
C49 H51 1_555 1_555
C50 C49 1_555 1_555
H52 C50 1_555 1_555
H53 C50 1_555 1_555
C51 C5 1_555 1_555
H54 C51 1_555 1_555
H55 C51 1_555 1_555
C52 H56 1_555 1_555
C53 C52 1_555 1_555
H57 C53 1_555 1_555
C54 C53 1_555 1_555
H58 C54 1_555 1_555
C55 H59 1_555 1_555
C56 C55 1_555 1_555
H60 C56 1_555 1_555
C57 C56 1_555 1_555
H61 C57 1_555 1_555
C58 H62 1_555 1_555
C59 C58 1_555 1_555
H63 C59 1_555 1_555
H64 C59 1_555 1_555
C60 C6 1_555 1_555
H65 C60 1_555 1_555
H66 C60 1_555 1_555
C61 H67 1_555 1_555
H68 C61 1_555 1_555
H69 C61 1_555 1_555
C62 C61 1_555 1_555
H70 C62 1_555 1_555
H71 C62 1_555 1_555
C63 H72 1_555 1_555
H73 C63 1_555 1_555
C64 C63 1_555 1_555
H74 C64 1_555 1_555
H75 C64 1_555 1_555
H76 C64 1_555 1_555
N1 C9 1_555 1_555
N2 C7 1_555 1_555
N3 Ag1 1_555 1_555
N4 C10 1_555 1_555
N5 C18 1_555 1_555
N6 C16 1_555 1_555
N7 C21 1_555 1_555
N8 C19 1_555 1_555
N9 C27 1_555 1_555
N10 C25 1_555 1_555
N11 Ag2 1_555 1_555
N12 C28 1_555 1_555
N13 Ag1 1_555 1_555
N14 C34 1_555 1_555
N15 Ag1 1_555 1_555
N16 C37 1_555 1_555
N17 Ag2 1_555 1_555
N18 C43 1_555 1_555
N19 Ag2 1_555 1_555
N20 C46 1_555 1_555
N21 C54 1_555 1_555
N22 C52 1_555 1_555
N23 Ag3 1_555 1_555
N24 C55 1_555 1_555
O1 C14 1_555 1_555
O2 C23 1_555 1_555
O3 C32 1_555 1_555
O4 C41 1_555 1_555
O5 C50 1_555 1_555
O6 C59 1_555 1_555
O7 Ag3 1_555 1_555
B1 F1 1_555 1_555
F2 B1 1_555 1_555
F3 B1 1_555 1_555
F4 B1 1_555 1_555
B2 F5 1_555 1_555
F6 B2 1_555 1_555
F7 B2 1_555 1_555
F8 B2 1_555 1_555
B3 F9 1_555 1_555
F10 B3 1_555 1_555
F11 B3 1_555 1_555
F12 B3 1_555 1_555
N25 C65 1_555 1_555
C65 C66 1_555 1_555
C66 H77 1_555 1_555
H78 C66 1_555 1_555
H79 C66 1_555 1_555
N26 C67 1_555 1_555
C67 C68 1_555 1_555
C68 H80 1_555 1_555
H81 C68 1_555 1_555
H82 C68 1_555 1_555
N27 C69 1_555 1_555
C69 C70 1_555 1_555
C70 H83 1_555 1_555
H84 C70 1_555 1_555
H85 C70 1_555 1_555
N28 C71 1_555 1_555
C71 C72 1_555 1_555
C72 H86 1_555 1_555
H87 C72 1_555 1_555
H88 C72 1_555 1_555
N29 C73 1_555 1_555
C73 C74 1_555 1_555
C74 H89 1_555 1_555
H90 C74 1_555 1_555
H91 C74 1_555 1_555
Ag3_2 N5 1_555 1_555
N5_2 Ag3 1_555 1_555
N7_2 Ag3 1_555 1_555
C12 N3 1_555 1_555
C13 N2 1_555 1_555
C13 N4 1_555 1_555
C15 O1 1_555 1_555
C22 N6 1_555 1_555
C22 N8 1_555 1_555
C24 O2 1_555 1_555
C30 N11 1_555 1_555
C31 N10 1_555 1_555
C31 N12 1_555 1_555
C33 O3 1_555 1_555
C36 N13 1_555 1_555
C39 N15 1_555 1_555
C40 N14 1_555 1_555
C40 N16 1_555 1_555
C42 O4 1_555 1_555
C45 N17 1_555 1_555
C48 N19 1_555 1_555
C49 N18 1_555 1_555
C49 N20 1_555 1_555
C51 O5 1_555 1_555
C57 N23 1_555 1_555
C58 N22 1_555 1_555
C58 N24 1_555 1_555
C60 O6 1_555 1_555
C62 O7 1_555 1_555
C63 O7 1_555 1_555
N1 N2 1_555 1_555
N3 N4 1_555 1_555
N5 N6 1_555 1_555
N7 N8 1_555 1_555
N7 Ag3_2 1_555 1_555
N9 N10 1_555 1_555
N11 N12 1_555 1_555
N13 N14 1_555 1_555
N15 N16 1_555 1_555
N17 N18 1_555 1_555
N19 N20 1_555 1_555
N21 N22 1_555 1_555
N23 N24 1_555 1_555

#END
