
#######################################################################
#
#                 Cambridge Crystallographic Data Centre
#                                CCDC 
#
#######################################################################
#
# If this CIF has been generated from an entry in the Cambridge 
# Structural Database, then it will include bibliographic, chemical, 
# crystal, experimental, refinement or atomic coordinate data resulting 
# from the CCDC's data processing and validation procedures.
#
#######################################################################

data_VAFCEM
_symmetry_cell_setting           monoclinic
_symmetry_space_group_name_H-M   'P 21/n'
_symmetry_Int_Tables_number      14
_space_group_name_Hall           '-P 2yn'
loop_
_symmetry_equiv_pos_site_id
_symmetry_equiv_pos_as_xyz
1 x,y,z
2 1/2-x,1/2+y,1/2-z
3 -x,-y,-z
4 1/2+x,1/2-y,1/2+z
_cell_length_a                   8.908(5)
_cell_length_b                   10.569(6)
_cell_length_c                   20.969(11)
_cell_angle_alpha                90
_cell_angle_beta                 98.446(8)
_cell_angle_gamma                90
_cell_volume                     1952.79
loop_
_atom_site_label
_atom_site_type_symbol
_atom_site_fract_x
_atom_site_fract_y
_atom_site_fract_z
Tb1 Tb 1.215273(16) 0.460657(14) 1.017495(7)
O1 O 0.9522(2) 0.3669(2) 1.00998(11)
O2 O 1.1399(3) 0.2664(2) 1.06816(12)
O3 O 0.6163(2) 0.3959(2) 1.01874(11)
O4 O 0.3886(2) 0.3160(2) 0.98139(12)
O5 O 1.1231(3) 0.4235(3) 0.90941(12)
O6 O 0.8761(3) 0.4710(2) 0.88808(11)
O7 O 1.4251(3) 0.4674(2) 1.10163(11)
H1 H 1.5084 0.4596 1.0868
H2 H 1.4147 0.4248 1.1347
C1 C 1.0007(4) 0.2839(3) 1.05250(17)
C2 C 0.8911(4) 0.2135(3) 1.08642(18)
C3 C 0.9167(4) 0.2165(4) 1.15337(19)
H3 H 1.0040 0.2553 1.1743
C4 C 0.8158(5) 0.1636(5) 1.1895(2)
H4 H 0.8334 0.1677 1.2342
C5 C 0.6885(5) 0.1044(5) 1.1581(2)
H5 H 0.6197 0.0682 1.1821
C6 C 0.6612(4) 0.0979(4) 1.0919(2)
H6 H 0.5754 0.0557 1.0718
C7 C 0.7608(4) 0.1538(3) 1.05424(19)
C8 C 0.7239(4) 0.1461(3) 0.98248(19)
C9 C 0.7979(5) 0.0612(4) 0.9476(2)
H7 H 0.8758 0.0115 0.9689
C10 C 0.7576(5) 0.0494(4) 0.8820(3)
H8 H 0.8096 -0.0074 0.8593
C11 C 0.6417(5) 0.1203(4) 0.8496(2)
H9 H 0.6148 0.1119 0.8053
C12 C 0.5655(4) 0.2045(4) 0.88391(19)
H10 H 0.4860 0.2523 0.8625
C13 C 0.6064(4) 0.2183(3) 0.94960(17)
C14 C 0.5301(4) 0.3166(3) 0.98559(16)
C15 C 0.9939(4) 0.4152(3) 0.87715(16)
C16 C 0.9772(4) 0.3278(3) 0.81970(17)
C17 C 1.0804(5) 0.2318(4) 0.8165(2)
H11 H 1.1626 0.2214 0.8489
C18 C 1.0595(5) 0.1512(4) 0.7640(2)
H12 H 1.1289 0.0860 0.7625
N1 N 0.9457(4) 0.1616(4) 0.71547(17)
C19 C 0.8490(5) 0.2564(4) 0.7185(2)
H13 H 0.7705 0.2668 0.6844
C20 C 0.8585(4) 0.3404(4) 0.76961(18)
H14 H 0.7866 0.4040 0.7702
Tb1B Tb 0.784727(16) 0.539343(14) 0.982505(7)
Tb1_2 Tb 0.215273(16) 0.460657(14) 1.017495(7)
O1B O 1.0478(2) 0.6331(2) 0.99002(11)
O3B O 1.3837(2) 0.6041(2) 0.98126(11)
O4_2 O 1.3886(2) 0.3160(2) 0.98139(12)
O6B O 1.1239(3) 0.5290(2) 1.11192(11)
loop_
_geom_bond_atom_site_label_1
_geom_bond_atom_site_label_2
_geom_bond_site_symmetry_1
_geom_bond_site_symmetry_2
Tb1 O1 1_555 1_555
O1 C1 1_555 1_555
O2 Tb1 1_555 1_555
O3 C14 1_555 1_555
O4 C14 1_555 1_555
O5 Tb1 1_555 1_555
O6 C15 1_555 1_555
O7 Tb1 1_555 1_555
H1 O7 1_555 1_555
H2 O7 1_555 1_555
C1 O2 1_555 1_555
C2 C1 1_555 1_555
C3 C2 1_555 1_555
H3 C3 1_555 1_555
C4 C3 1_555 1_555
H4 C4 1_555 1_555
C5 C4 1_555 1_555
H5 C5 1_555 1_555
C6 C5 1_555 1_555
H6 C6 1_555 1_555
C7 C2 1_555 1_555
C8 C7 1_555 1_555
C9 C8 1_555 1_555
H7 C9 1_555 1_555
C10 C9 1_555 1_555
H8 C10 1_555 1_555
C11 C10 1_555 1_555
H9 C11 1_555 1_555
C12 C11 1_555 1_555
H10 C12 1_555 1_555
C13 C8 1_555 1_555
C14 C13 1_555 1_555
C15 O5 1_555 1_555
C16 C15 1_555 1_555
C17 C16 1_555 1_555
H11 C17 1_555 1_555
C18 C17 1_555 1_555
H12 C18 1_555 1_555
N1 C18 1_555 1_555
C19 N1 1_555 1_555
H13 C19 1_555 1_555
C20 C16 1_555 1_555
H14 C20 1_555 1_555
Tb1B O1 1_555 1_555
Tb1_2 O4 1_555 1_555
O1B Tb1 1_555 1_555
O3B Tb1 1_555 1_555
O4_2 Tb1 1_555 1_555
O6B Tb1 1_555 1_555
O3 Tb1B 1_555 1_555
O6 Tb1B 1_555 1_555
C6 C7 1_555 1_555
C12 C13 1_555 1_555
C19 C20 1_555 1_555
Tb1B O1B 1_555 1_555

#END
