
#######################################################################
#
#                 Cambridge Crystallographic Data Centre
#                                CCDC 
#
#######################################################################
#
# If this CIF has been generated from an entry in the Cambridge 
# Structural Database, then it will include bibliographic, chemical, 
# crystal, experimental, refinement or atomic coordinate data resulting 
# from the CCDC's data processing and validation procedures.
#
#######################################################################

data_VAFCAH01
_symmetry_cell_setting           orthorhombic
_symmetry_space_group_name_H-M   'P b c n'
_symmetry_Int_Tables_number      60
_space_group_name_Hall           '-P 2n 2ab'
loop_
_symmetry_equiv_pos_site_id
_symmetry_equiv_pos_as_xyz
1 x,y,z
2 1/2-x,1/2-y,1/2+z
3 -x,y,1/2-z
4 1/2+x,1/2-y,-z
5 -x,-y,-z
6 1/2+x,1/2+y,1/2-z
7 x,-y,1/2+z
8 1/2-x,1/2+y,z
_cell_length_a                   12.2525(3)
_cell_length_b                   8.0521(2)
_cell_length_c                   25.6820(6)
_cell_angle_alpha                90
_cell_angle_beta                 90
_cell_angle_gamma                90
_cell_volume                     2533.74
loop_
_atom_site_label
_atom_site_type_symbol
_atom_site_fract_x
_atom_site_fract_y
_atom_site_fract_z
La1 La 0.305761(5) 0.465168(9) 0.094499(3)
O1 O 0.11915(9) 0.55822(16) 0.09118(5)
O2 O 0.29520(8) 0.76545(14) 0.14936(5)
O3 O 0.36750(11) 0.54193(13) 0.18450(5)
O4 O 0.03641(8) 0.77482(13) 0.12749(5)
O5 O -0.11694(8) 0.16092(13) -0.01083(4)
O6 O -0.27525(9) 0.27524(13) -0.03252(4)
O7 O 0.48255(8) 0.60804(14) 0.07751(5)
H1 H 0.5115 0.6313 0.0488
H2 H 0.5309 0.6145 0.1009
N1 N -0.35537(11) 0.53130(17) 0.15151(6)
N2 N 0.5000 1.2332(3) 0.2500
C1 C -0.16182(11) 0.57505(17) 0.13169(6)
H3 H -0.1544 0.6421 0.1610
C2 C -0.26282(11) 0.50210(18) 0.12013(6)
C3 C -0.27434(10) 0.40880(17) 0.07446(6)
H4 H -0.3426 0.3692 0.0647
C4 C -0.18356(10) 0.37549(16) 0.04371(6)
C5 C -0.08197(11) 0.44158(16) 0.05646(6)
H5 H -0.0209 0.4155 0.0365
C6 C -0.07239(11) 0.54677(16) 0.09915(6)
C7 C 0.03462(10) 0.63224(16) 0.10726(6)
C8 C 0.35819(11) 0.69799(17) 0.18250(6)
C9 C 0.42765(11) 0.80015(16) 0.21813(6)
C10 C 0.42555(12) 0.97334(16) 0.21897(6)
H6 H 0.3747 1.0303 0.1989
C11 C 0.5000 1.0623(3) 0.2500
C12 C 0.5000 0.7136(2) 0.2500
H7 H 0.5000 0.5981 0.2500
C13 C -0.19263(10) 0.26435(17) -0.00240(6)
H8 H -0.399(2) 0.443(2) 0.1564(11)
H9 H 0.5414(19) 1.281(3) 0.2714(9)
H10 H -0.342(2) 0.571(3) 0.1839(6)
La1G La 0.194239(5) -0.034832(9) 0.094499(3)
La1G_2 La 0.194239(5) 0.965168(9) 0.094499(3)
La1C La -0.194239(5) 0.034832(9) -0.094499(3)
La1D La -0.305761(5) 0.534832(9) -0.094499(3)
La1E La 0.805761(5) 0.965168(9) 0.405501(3)
La1B La 0.694239(5) 0.465168(9) 0.405501(3)
La1D_2 La 0.694239(5) -0.465168(9) -0.094499(3)
La1C_2 La 0.805761(5) 0.034832(9) -0.094499(3)
O1G O 0.38085(9) 0.05822(16) 0.09118(5)
O2B O 0.70480(8) 0.76545(14) 0.35064(5)
O2G O 0.20480(8) 0.26545(14) 0.14936(5)
O2_2 O 0.29520(8) -0.23455(14) 0.14936(5)
O3B O 0.63250(11) 0.54193(13) 0.31550(5)
O3G O 0.13250(11) 0.04193(13) 0.18450(5)
O4G O 0.46359(8) 0.27482(13) 0.12749(5)
O4_2 O 0.03641(8) -0.22518(13) 0.12749(5)
O5G O 0.61694(8) -0.33908(13) -0.01083(4)
O5C O 0.38306(8) 0.33908(13) 0.01083(4)
O5D O 0.11694(8) -0.16092(13) 0.01083(4)
O6G O 0.77525(9) -0.22476(13) -0.03252(4)
O6D O 0.27525(9) 0.72476(13) 0.03252(4)
O6C O 0.22475(9) 0.22476(13) 0.03252(4)
O6D_2 O 0.27525(9) -0.27524(13) 0.03252(4)
O7G O 0.01745(8) 0.10804(14) 0.07751(5)
H1G H -0.0115 0.1313 0.0488
H2G H -0.0309 0.1145 0.1009
N1G N 0.85537(11) 0.03130(17) 0.15151(6)
C1G C 0.66182(11) 0.07505(17) 0.13169(6)
H3G H 0.6544 0.1421 0.1610
C2G C 0.76282(11) 0.00210(18) 0.12013(6)
C3G C 0.77434(10) -0.09120(17) 0.07446(6)
H4G H 0.8426 -0.1308 0.0647
C4G C 0.68356(10) -0.12451(16) 0.04371(6)
C5G C 0.58197(11) -0.05842(16) 0.05646(6)
H5G H 0.5209 -0.0845 0.0365
C6G C 0.57239(11) 0.04677(16) 0.09915(6)
C7G C 0.46538(10) 0.13224(16) 0.10726(6)
C8B C 0.64181(11) 0.69799(17) 0.31750(6)
C9B C 0.57235(11) 0.80015(16) 0.28187(6)
C10B C 0.57445(12) 0.97334(16) 0.28103(6)
H6B H 0.6253 1.0303 0.3011
C13G C 0.69263(10) -0.23565(17) -0.00240(6)
H8G H 0.899(2) -0.057(2) 0.1564(11)
H9B H 0.4586(19) 1.281(3) 0.2286(9)
H10G H 0.842(2) 0.071(3) 0.1839(6)
loop_
_geom_bond_atom_site_label_1
_geom_bond_atom_site_label_2
_geom_bond_site_symmetry_1
_geom_bond_site_symmetry_2
La1 O1 1_555 1_555
O1 C7 1_555 1_555
O2 La1 1_555 1_555
O3 La1 1_555 1_555
O4 C7 1_555 1_555
O5 C13 1_555 1_555
O6 C13 1_555 1_555
O7 La1 1_555 1_555
H1 O7 1_555 1_555
H2 O7 1_555 1_555
N1 C2 1_555 1_555
N2 C11 1_555 1_555
C1 H3 1_555 1_555
C2 C1 1_555 1_555
C3 C2 1_555 1_555
H4 C3 1_555 1_555
C4 C3 1_555 1_555
C5 C4 1_555 1_555
H5 C5 1_555 1_555
C6 C1 1_555 1_555
C7 C6 1_555 1_555
C8 O2 1_555 1_555
C9 C8 1_555 1_555
C10 C9 1_555 1_555
H6 C10 1_555 1_555
C11 C10 1_555 1_555
C12 C9 1_555 1_555
H7 C12 1_555 1_555
C13 C4 1_555 1_555
H8 N1 1_555 1_555
H9 N2 1_555 1_555
H10 N1 1_555 1_555
La1G O1G 1_555 1_555
La1G_2 O2 1_555 1_555
La1C O5 1_555 1_555
La1D O6 1_555 1_555
La1E O2B 1_555 1_555
La1B O2B 1_555 1_555
La1D_2 O5G 1_555 1_555
La1C_2 O6G 1_555 1_555
O1G C7G 1_555 1_555
O2B C8B 1_555 1_555
O2G La1 1_555 1_555
O2_2 La1G 1_555 1_555
O3B La1B 1_555 1_555
O3G La1G 1_555 1_555
O4G La1 1_555 1_555
O4_2 La1G 1_555 1_555
O5G C13G 1_555 1_555
O5C La1 1_555 1_555
O5D La1G 1_555 1_555
O6G La1D_2 1_555 1_555
O6D La1 1_555 1_555
O6C La1 1_555 1_555
O6D_2 La1G 1_555 1_555
O7G La1G 1_555 1_555
H1G O7G 1_555 1_555
H2G O7G 1_555 1_555
N1G C2G 1_555 1_555
C1G H3G 1_555 1_555
C2G C1G 1_555 1_555
C3G C2G 1_555 1_555
H4G C3G 1_555 1_555
C4G C3G 1_555 1_555
C5G C4G 1_555 1_555
H5G C5G 1_555 1_555
C6G C1G 1_555 1_555
C7G O4G 1_555 1_555
C8B O3B 1_555 1_555
C9B C12 1_555 1_555
C10B C11 1_555 1_555
H6B C10B 1_555 1_555
C13G O6G 1_555 1_555
H8G N1G 1_555 1_555
H9B N2 1_555 1_555
H10G N1G 1_555 1_555
O3 C8 1_555 1_555
O4 La1G_2 1_555 1_555
O6 La1C 1_555 1_555
C5 C6 1_555 1_555
La1G O2G 1_555 1_555
La1G O6C 1_555 1_555
La1G_2 O6D 1_555 1_555
C4G C13G 1_555 1_555
C5G C6G 1_555 1_555
C6G C7G 1_555 1_555
C8B C9B 1_555 1_555
C9B C10B 1_555 1_555

#END
