
#######################################################################
#
#                 Cambridge Crystallographic Data Centre
#                                CCDC 
#
#######################################################################
#
# If this CIF has been generated from an entry in the Cambridge 
# Structural Database, then it will include bibliographic, chemical, 
# crystal, experimental, refinement or atomic coordinate data resulting 
# from the CCDC's data processing and validation procedures.
#
#######################################################################

data_VAGDIQ
_symmetry_cell_setting           monoclinic
_symmetry_space_group_name_H-M   'P 21/n'
_symmetry_Int_Tables_number      14
_space_group_name_Hall           '-P 2yn'
loop_
_symmetry_equiv_pos_site_id
_symmetry_equiv_pos_as_xyz
1 x,y,z
2 1/2-x,1/2+y,1/2-z
3 -x,-y,-z
4 1/2+x,1/2-y,1/2+z
_cell_length_a                   13.5468(3)
_cell_length_b                   10.1407(2)
_cell_length_c                   17.83460(10)
_cell_angle_alpha                90
_cell_angle_beta                 104.8880(10)
_cell_angle_gamma                90
_cell_volume                     2367.76
loop_
_atom_site_label
_atom_site_type_symbol
_atom_site_fract_x
_atom_site_fract_y
_atom_site_fract_z
Mo1 Mo 0.3165(1) 0.8516(1) 0.1222(1)
Mo2 Mo 0.2257(1) 0.6934(1) -0.0718(1)
Mo3 Mo 0.0150(1) 0.5422(1) -0.2179(1)
O1 O -0.0263(3) 0.4599(5) -0.1488(3)
O2 O 0.0469(3) 0.4296(4) -0.2792(3)
O3 O 0.1279(3) 0.6378(4) -0.1732(2)
O4 O 0.2225(3) 0.5429(4) -0.0297(2)
O5 O 0.3314(3) 0.6928(4) -0.1068(2)
O6 O 0.2719(3) 0.8006(4) 0.0163(2)
O7 O 0.3326(3) 1.0156(4) 0.1076(2)
O8 O 0.2063(3) 0.8364(4) 0.1499(2)
O9 O 0.4120(3) 0.8507(4) 0.2290(2)
N1 N 0.1716(3) 0.8900(4) -0.1355(3)
N2 N 0.0702(3) 0.7577(4) -0.0518(3)
N3 N 0.4698(3) 0.7883(4) 0.0954(3)
N4 N 0.3439(3) 0.6255(4) 0.1407(3)
C1 C 0.2281(4) 0.9517(6) -0.1766(3)
C2 C 0.1969(5) 1.0699(7) -0.2143(4)
C3 C 0.1071(5) 1.1264(6) -0.2091(4)
C4 C 0.0492(5) 1.0627(6) -0.1668(4)
C5 C 0.0819(4) 0.9434(6) -0.1321(3)
C6 C 0.0223(4) 0.8665(6) -0.0872(4)
C7 C -0.0735(15) 0.9017(6) -0.0808(4)
C8 C -0.1205(5) 0.8252(7) -0.0363(4)
C9 C -0.0709(5) 0.7166(7) 0.0013(4)
C10 C 0.0238(4) 0.6861(6) -0.0072(4)
C11 C 0.5290(4) 0.8765(6) 0.0719(3)
C12 C 0.6160(5) 0.8428(6) 0.0492(4)
C13 C 0.6436(5) 0.7114(7) 0.0545(4)
C14 C 0.5844(4) 0.6195(6) 0.0800(4)
C15 C 0.4957(4) 0.6600(5) 0.0982(3)
C16 C 0.4254(4) 0.5678(5) 0.1232(3)
C17 C 0.4386(5) 0.4335(6) 0.1276(4)
C18 C 0.3686(5) 0.3541(6) 0.1504(4)
C19 C 0.2863(5) 0.4137(6) 0.1689(4)
C20 C 0.2765(4) 0.5489(6) 0.1632(4)
H1 H 0.2896(4) 0.9142(6) -0.1799(3)
H2 H 0.2368(5) 1.1106(7) -0.2429(4)
H3 H 0.0856(5) 1.2062(6) -0.2336(4)
H4 H -0.0115(5) 1.1000(6) -0.1617(4)
H5 H -0.1059(5) 0.9761(6) -0.1062(4)
H6 H -0.1854(5) 0.8470(7) -0.0318(4)
H7 H -0.1013(5) 0.6647(7) 0.0321(4)
H8 H 0.0576(4) 0.6130(6) 0.0189(4)
H9 H 0.5108(4) 0.9651(6) 0.0708(3)
H10 H 0.6542(5) 0.9059(6) 0.0312(4)
H11 H 0.7023(5) 0.6847(7) 0.0408(4)
H12 H 0.6038(4) 0.5314(6) 0.0849(4)
H13 H 0.4949(5) 0.3958(6) 0.1151(4)
H14 H 0.3767(5) 0.2631(6) 0.1533(4)
H15 H 0.2381(5) 0.3633(6) 0.1850(4)
H16 H 0.2207(4) 0.5884(6) 0.1755(4)
O9C O -0.0880(3) 0.6493(4) -0.2710(2)
Mo3C Mo 0.5150(1) 0.9578(1) 0.2821(1)
loop_
_geom_bond_atom_site_label_1
_geom_bond_atom_site_label_2
_geom_bond_site_symmetry_1
_geom_bond_site_symmetry_2
Mo1 O6 1_555 1_555
Mo2 O3 1_555 1_555
Mo3 O1 1_555 1_555
O2 Mo3 1_555 1_555
O3 Mo3 1_555 1_555
O4 Mo2 1_555 1_555
O5 Mo2 1_555 1_555
O6 Mo2 1_555 1_555
O7 Mo1 1_555 1_555
O8 Mo1 1_555 1_555
O9 Mo1 1_555 1_555
N1 Mo2 1_555 1_555
N2 Mo2 1_555 1_555
N3 Mo1 1_555 1_555
N4 Mo1 1_555 1_555
C1 N1 1_555 1_555
C2 C1 1_555 1_555
C3 C2 1_555 1_555
C4 C3 1_555 1_555
C5 N1 1_555 1_555
C6 N2 1_555 1_555
C7 C6 1_555 1_555
C8 C7 1_555 1_555
C9 C8 1_555 1_555
C10 N2 1_555 1_555
C11 N3 1_555 1_555
C12 C11 1_555 1_555
C13 C12 1_555 1_555
C14 C13 1_555 1_555
C15 N3 1_555 1_555
C16 N4 1_555 1_555
C17 C16 1_555 1_555
C18 C17 1_555 1_555
C19 C18 1_555 1_555
C20 N4 1_555 1_555
H1 C1 1_555 1_555
H2 C2 1_555 1_555
H3 C3 1_555 1_555
H4 C4 1_555 1_555
H5 C7 1_555 1_555
H6 C8 1_555 1_555
H7 C9 1_555 1_555
H8 C10 1_555 1_555
H9 C11 1_555 1_555
H10 C12 1_555 1_555
H11 C13 1_555 1_555
H12 C14 1_555 1_555
H13 C17 1_555 1_555
H14 C18 1_555 1_555
H15 C19 1_555 1_555
H16 C20 1_555 1_555
O9C Mo3 1_555 1_555
Mo3C O9 1_555 1_555
C4 C5 1_555 1_555
C5 C6 1_555 1_555
C9 C10 1_555 1_555
C14 C15 1_555 1_555
C15 C16 1_555 1_555
C19 C20 1_555 1_555

#END
