
#######################################################################
#
#                 Cambridge Crystallographic Data Centre
#                                CCDC 
#
#######################################################################
#
# If this CIF has been generated from an entry in the Cambridge 
# Structural Database, then it will include bibliographic, chemical, 
# crystal, experimental, refinement or atomic coordinate data resulting 
# from the CCDC's data processing and validation procedures.
#
#######################################################################

data_VAGDIQ01
_symmetry_cell_setting           monoclinic
_symmetry_space_group_name_H-M   'P 21/n'
_symmetry_Int_Tables_number      14
_space_group_name_Hall           '-P 2yn'
loop_
_symmetry_equiv_pos_site_id
_symmetry_equiv_pos_as_xyz
1 x,y,z
2 1/2-x,1/2+y,1/2-z
3 -x,-y,-z
4 1/2+x,1/2-y,1/2+z
_cell_length_a                   13.529(5)
_cell_length_b                   10.120(2)
_cell_length_c                   17.819(7)
_cell_angle_alpha                90
_cell_angle_beta                 104.77(3)
_cell_angle_gamma                90
_cell_volume                     2359.05
loop_
_atom_site_label
_atom_site_type_symbol
_atom_site_fract_x
_atom_site_fract_y
_atom_site_fract_z
Mo1 Mo 0.31651(2) 0.64846(3) 0.122236(17)
Mo2 Mo 0.22573(2) 0.80655(3) -0.071898(17)
Mo3 Mo 0.51503(2) 0.54228(3) 0.282080(17)
O1 O 0.2056(2) 0.6638(3) 0.14994(17)
O2 O 0.3319(2) 0.4838(3) 0.10780(16)
O3 O 0.2710(2) 0.6987(3) 0.01636(15)
O4 O 0.3322(2) 0.8069(3) -0.10665(17)
O5 O 0.2224(2) 0.9570(3) -0.02959(17)
O6 O 0.1282(2) 0.8622(3) -0.17331(16)
O7 O 0.4738(3) 0.4592(4) 0.3510(2)
O8 O 0.4114(2) 0.6491(3) 0.22854(15)
O9 O 0.5473(2) 0.4306(3) 0.22088(19)
N1 N 0.4697(2) 0.7112(3) 0.09521(17)
N2 N 0.3436(2) 0.8744(3) 0.14052(18)
N3 N 0.1718(2) 0.6092(3) -0.13572(17)
N4 N 0.0701(2) 0.7423(3) -0.05155(17)
C1 C 0.5297(3) 0.6229(4) 0.0721(2)
C2 C 0.6162(3) 0.6586(5) 0.0498(3)
C3 C 0.6442(4) 0.7881(5) 0.0542(3)
C4 C 0.5841(3) 0.8806(5) 0.0791(3)
C5 C 0.4961(3) 0.8393(4) 0.0985(2)
C6 C 0.4209 0.9322 0.1177
C7 C 0.4386(3) 1.0664(4) 0.1274(3)
C8 C 0.3683(4) 1.1457(4) 0.1509(3)
C9 C 0.2861(4) 1.0870(5) 0.1690(3)
C10 C 0.2758(3) 0.9514(4) 0.1627(2)
C11 C 0.2275(3) 0.5483(5) -0.1772(2)
C12 C 0.1979(4) 0.4293(5) -0.2144(3)
C13 C 0.1079(4) 0.3734(5) -0.2092(3)
C14 C 0.0487(4) 0.4374(5) -0.1672(3)
C15 C 0.0819(3) 0.5562(4) -0.1322(2)
C16 C 0.0233(3) 0.6331(4) -0.0873(2)
C17 C -0.0725(3) 0.5973(5) -0.0807(3)
C18 C -0.1206(4) 0.6750(6) -0.0364(3)
C19 C -0.0720(3) 0.7836(5) 0.0009(3)
C20 C 0.0229(3) 0.8139(5) -0.0081(3)
O6C O 0.6282(2) 0.6378(3) 0.32669(16)
Mo3C Mo 0.01503(2) 0.95772(3) -0.217920(17)
loop_
_geom_bond_atom_site_label_1
_geom_bond_atom_site_label_2
_geom_bond_site_symmetry_1
_geom_bond_site_symmetry_2
Mo1 O1 1_555 1_555
Mo2 O3 1_555 1_555
Mo3 O7 1_555 1_555
O2 Mo1 1_555 1_555
O3 Mo1 1_555 1_555
O4 Mo2 1_555 1_555
O5 Mo2 1_555 1_555
O6 Mo2 1_555 1_555
O8 Mo1 1_555 1_555
O9 Mo3 1_555 1_555
N1 Mo1 1_555 1_555
N2 Mo1 1_555 1_555
N3 Mo2 1_555 1_555
N4 Mo2 1_555 1_555
C1 N1 1_555 1_555
C2 C1 1_555 1_555
C3 C2 1_555 1_555
C4 C3 1_555 1_555
C5 N1 1_555 1_555
C6 N2 1_555 1_555
C7 C6 1_555 1_555
C8 C7 1_555 1_555
C9 C8 1_555 1_555
C10 N2 1_555 1_555
C11 N3 1_555 1_555
C12 C11 1_555 1_555
C13 C12 1_555 1_555
C14 C13 1_555 1_555
C15 N3 1_555 1_555
C16 N4 1_555 1_555
C17 C16 1_555 1_555
C18 C17 1_555 1_555
C19 C18 1_555 1_555
C20 N4 1_555 1_555
O6C Mo3 1_555 1_555
Mo3C O6 1_555 1_555
Mo3 O8 1_555 1_555
C4 C5 1_555 1_555
C5 C6 1_555 1_555
C9 C10 1_555 1_555
C14 C15 1_555 1_555
C15 C16 1_555 1_555
C19 C20 1_555 1_555

#END
