
#######################################################################
#
#                 Cambridge Crystallographic Data Centre
#                                CCDC 
#
#######################################################################
#
# If this CIF has been generated from an entry in the Cambridge 
# Structural Database, then it will include bibliographic, chemical, 
# crystal, experimental, refinement or atomic coordinate data resulting 
# from the CCDC's data processing and validation procedures.
#
#######################################################################

data_VAGJAP
_symmetry_cell_setting           orthorhombic
_symmetry_space_group_name_H-M   'P n a 21'
_symmetry_Int_Tables_number      33
_space_group_name_Hall           'P 2c -2n'
loop_
_symmetry_equiv_pos_site_id
_symmetry_equiv_pos_as_xyz
1 x,y,z
2 -x,-y,1/2+z
3 1/2-x,1/2+y,1/2+z
4 1/2+x,1/2-y,z
_cell_length_a                   9.5560(13)
_cell_length_b                   12.611(2)
_cell_length_c                   5.2318(8)
_cell_angle_alpha                90
_cell_angle_beta                 90
_cell_angle_gamma                90
_cell_volume                     630.488
loop_
_atom_site_label
_atom_site_type_symbol
_atom_site_fract_x
_atom_site_fract_y
_atom_site_fract_z
Zn1 Zn -0.39235(4) 0.38487(3) -0.74601(16)
P1 P -0.30288(9) 0.50458(7) -0.2472(3)
O1 O -0.3344(4) 0.4017(2) -0.3892(7)
O2 O -0.2886(4) 0.4852(3) 0.0401(7)
O3 O -0.4080(3) 0.5923(3) -0.3055(7)
O4 O -0.1360(4) 0.7416(3) -0.3812(9)
N1 N -0.0513(5) 0.6671(3) -0.0292(8)
C1 C -0.1362(5) 0.5540(3) -0.3603(11)
C2 C -0.1014(3) 0.6613(3) -0.250(2)
H1 H -0.070(6) 0.500(4) -0.276(15)
H2 H -0.139(5) 0.558(4) -0.552(13)
O4B O -0.3640(4) 0.2416(3) -0.8812(9)
Zn1_2 Zn -0.39235(4) 0.38487(3) 0.25399(16)
Zn1A Zn -0.60765(4) 0.61513(3) -0.24601(16)
O3A O -0.5920(3) 0.4077(3) -0.8055(7)
Zn1B Zn -0.10765(4) 0.88487(3) -0.24601(16)
O2_2 O -0.2886(4) 0.4852(3) -0.9599(7)
O5 O -0.1469(4) 0.2171(3) -0.2645(14)
H3 H -0.059(9) 0.241(6) -0.354(16)
H4 H -0.214(6) 0.287(5) -0.334(12)
loop_
_geom_bond_atom_site_label_1
_geom_bond_atom_site_label_2
_geom_bond_site_symmetry_1
_geom_bond_site_symmetry_2
Zn1 O1 1_555 1_555
P1 O1 1_555 1_555
O2 P1 1_555 1_555
O3 P1 1_555 1_555
O4 C2 1_555 1_555
O5 H3 1_555 1_555
N1 C2 1_555 1_555
C1 P1 1_555 1_555
C2 C1 1_555 1_555
H1 C1 1_555 1_555
H2 C1 1_555 1_555
H4 O5 1_555 1_555
O4B Zn1 1_555 1_555
Zn1_2 O2 1_555 1_555
Zn1A O3 1_555 1_555
O3A Zn1 1_555 1_555
Zn1B O4 1_555 1_555
O2_2 Zn1 1_555 1_555

#END
