
#######################################################################
#
#                 Cambridge Crystallographic Data Centre
#                                CCDC 
#
#######################################################################
#
# If this CIF has been generated from an entry in the Cambridge 
# Structural Database, then it will include bibliographic, chemical, 
# crystal, experimental, refinement or atomic coordinate data resulting 
# from the CCDC's data processing and validation procedures.
#
#######################################################################

data_VAGKIY
_symmetry_cell_setting           monoclinic
_symmetry_space_group_name_H-M   'C 2/c'
_symmetry_Int_Tables_number      15
_space_group_name_Hall           '-C 2yn'
loop_
_symmetry_equiv_pos_site_id
_symmetry_equiv_pos_as_xyz
1 x,y,z
2 1/2+x,1/2+y,z
3 x,-y,1/2+z
4 1/2+x,1/2-y,1/2+z
5 -x,-y,-z
6 1/2-x,1/2-y,-z
7 -x,y,1/2-z
8 1/2-x,1/2+y,1/2-z
_cell_length_a                   13.497(2)
_cell_length_b                   35.962(6)
_cell_length_c                   20.498(4)
_cell_angle_alpha                90
_cell_angle_beta                 108.127(3)
_cell_angle_gamma                90
_cell_volume                     9455.51
loop_
_atom_site_label
_atom_site_type_symbol
_atom_site_fract_x
_atom_site_fract_y
_atom_site_fract_z
Ni1 Ni 1.0522(2) 0.87506(8) 0.35698(16)
N1 N 1.1225(11) 0.8418(4) 0.2878(7)
C1 C 1.1894(12) 0.8539(4) 0.2555(8)
C2 C 1.2560(14) 0.8307(5) 0.2340(9)
H1 H 1.3022 0.8401 0.2113
C3 C 1.2511(14) 0.7931(5) 0.2474(10)
H2 H 1.2951 0.7761 0.2340
C4 C 1.1842(14) 0.7806(4) 0.2795(9)
H3 H 1.1803 0.7548 0.2885
C5 C 1.1223(13) 0.8054(4) 0.2988(8)
C6 C 0.9654(17) 0.8124(6) 0.4060(16)
H4 H 0.9471 0.7876 0.4130
N2 N 1.0615(15) 0.7940(5) 0.3376(10)
H5 H 1.0502 0.7702 0.3421
N3 N 1.0198(15) 0.8193(5) 0.3684(9)
N4 N 0.9641(13) 0.8775(4) 0.4266(9)
C7 C 0.9297(15) 0.8440(4) 0.4398(11)
C8 C 0.8570(19) 0.8388(5) 0.4748(14)
H6 H 0.8307 0.8149 0.4802
C9 C 0.826(2) 0.8706(6) 0.5011(14)
H7 H 0.7798 0.8687 0.5279
C10 C 0.8600(17) 0.9041(5) 0.4886(13)
H8 H 0.8356 0.9260 0.5045
C11 C 0.9300(18) 0.9066(5) 0.4532(13)
H9 H 0.9558 0.9305 0.4471
N5 N 1.0852(11) 0.9072(4) 0.2086(10)
C12 C 1.1822(13) 0.8943(4) 0.2398(12)
C13 C 1.2707(13) 0.9167(5) 0.2610(13)
H10 H 1.3379 0.9066 0.2831
C14 C 1.2553(14) 0.9544(5) 0.2483(13)
H11 H 1.3135 0.9707 0.2583
C15 C 1.1580(14) 0.9680(4) 0.2218(12)
H12 H 1.1462 0.9941 0.2189
C16 C 1.0770(13) 0.9438(4) 0.1992(11)
N6 N 0.9783(15) 0.9561(5) 0.1667(11)
H13 H 0.9634 0.9799 0.1662
N7 N 0.9031(15) 0.9310(5) 0.1350(11)
C17 C 0.8101(17) 0.9384(6) 0.0973(13)
H14 H 0.7852 0.9632 0.0888
N8 N 0.7939(11) 0.8732(4) 0.0762(10)
C18 C 0.7444(13) 0.9063(4) 0.0681(11)
C19 C 0.6395(14) 0.9114(5) 0.0313(12)
H15 H 0.6078 0.9352 0.0261
C20 C 0.5840(14) 0.8799(5) 0.0029(11)
H16 H 0.5130 0.8819 -0.0244
C21 C 0.6309(14) 0.8464(5) 0.0139(12)
H17 H 0.5919 0.8245 -0.0027
C22 C 0.7345(14) 0.8441(5) 0.0488(13)
H18 H 0.7664 0.8203 0.0540
N1F N 0.8775(11) 0.8418(4) 0.2122(7)
C1F C 0.8106(12) 0.8539(4) 0.2445(8)
C2F C 0.7440(14) 0.8307(5) 0.2660(9)
H1F H 0.6978 0.8401 0.2887
C3F C 0.7489(14) 0.7931(5) 0.2526(10)
H2F H 0.7049 0.7761 0.2660
C4F C 0.8158(14) 0.7806(4) 0.2205(9)
H3F H 0.8197 0.7548 0.2115
C5F C 0.8777(13) 0.8054(4) 0.2012(8)
C6F C 1.0346(17) 0.8124(6) 0.0940(16)
H4F H 1.0529 0.7876 0.0870
N2F N 0.9385(15) 0.7940(5) 0.1624(10)
H5F H 0.9498 0.7702 0.1579
N3F N 0.9802(15) 0.8193(5) 0.1316(9)
N4F N 1.0359(13) 0.8775(4) 0.0734(9)
C7F C 1.0703(15) 0.8440(4) 0.0602(11)
C8F C 1.1430(19) 0.8388(5) 0.0252(14)
H6F H 1.1693 0.8149 0.0198
C9F C 1.174(2) 0.8706(6) -0.0011(14)
H7F H 1.2202 0.8687 -0.0279
C10F C 1.1400(17) 0.9041(5) 0.0114(13)
H8F H 1.1644 0.9260 -0.0045
C11F C 1.0700(18) 0.9066(5) 0.0468(13)
H9F H 1.0442 0.9305 0.0529
N5F N 0.9148(11) 0.9072(4) 0.2914(10)
C12F C 0.8178(13) 0.8943(4) 0.2602(12)
C13F C 0.7293(13) 0.9167(5) 0.2390(13)
H10F H 0.6621 0.9066 0.2169
C14F C 0.7447(14) 0.9544(5) 0.2517(13)
H11F H 0.6865 0.9707 0.2417
C15F C 0.8420(14) 0.9680(4) 0.2782(12)
H12F H 0.8538 0.9941 0.2811
C16F C 0.9230(13) 0.9438(4) 0.3008(11)
N6F N 1.0217(15) 0.9561(5) 0.3333(11)
H13F H 1.0366 0.9799 0.3338
N7F N 1.0969(15) 0.9310(5) 0.3650(11)
C17F C 1.1899(17) 0.9384(6) 0.4027(13)
H14F H 1.2148 0.9632 0.4112
N8F N 1.2061(11) 0.8732(4) 0.4238(10)
C18F C 1.2556(13) 0.9063(4) 0.4319(11)
C19F C 1.3605(14) 0.9114(5) 0.4687(12)
H15F H 1.3922 0.9352 0.4739
C20F C 1.4160(14) 0.8799(5) 0.4971(11)
H16F H 1.4870 0.8819 0.5244
C21F C 1.3691(14) 0.8464(5) 0.4861(12)
H17F H 1.4081 0.8245 0.5027
C22F C 1.2655(14) 0.8441(5) 0.4512(13)
H18F H 1.2336 0.8203 0.4460
Ni1F Ni 0.9478(2) 0.87506(8) 0.14302(16)
I1 I 0.7716(2) 0.79964(6) 0.66733(18)
I2 I 0.64861(19) 0.79186(6) 0.52908(17)
I3 I 0.53424(19) 0.79360(6) 0.36614(13)
I4 I 0.55646(14) 0.87641(5) 0.36700(10)
I5 I 0.57741(17) 0.95641(5) 0.37261(11)
I6 I 0.62721(16) 0.95767(6) 0.54994(14)
I7 I 0.64773(16) 0.94980(5) 0.68799(14)
I8 I 0.92197(16) 0.80643(5) 0.85281(11)
I9 I 0.80687(15) 0.87350(6) 0.86012(10)
I10 I 0.68456(15) 0.94285(5) 0.86098(11)
I11 I 0.90414(14) 0.98605(5) 0.96076(10)
I12 I 0.80635(14) 0.76313(5) 0.95891(10)
I11D I 1.09586(14) 1.01395(5) 1.03924(10)
I12E I 0.69365(14) 0.73687(5) 1.04109(10)
N9 N 0.534(2) 0.7859(6) 0.8426(13)
C23 C 0.502(2) 0.8145(7) 0.8355(13)
C24 C 0.467(2) 0.8529(8) 0.8268(19)
H19 H 0.5259 0.8696 0.8471
H20 H 0.4137 0.8566 0.8497
H21 H 0.4369 0.8585 0.7778
N10 N 1.0652(19) 0.9647(6) 0.8422(16)
C25 C 1.088(2) 0.9357(7) 0.8347(16)
C26 C 1.113(3) 0.8978(7) 0.8208(19)
H22 H 1.1673 0.8880 0.8608
H23 H 1.1379 0.8976 0.7808
H24 H 1.0504 0.8822 0.8116
loop_
_geom_bond_atom_site_label_1
_geom_bond_atom_site_label_2
_geom_bond_site_symmetry_1
_geom_bond_site_symmetry_2
Ni1 N1 1_555 1_555
I1 I2 1_555 1_555
I2 I3 1_555 1_555
I3 I4 1_555 1_555
I4 I5 1_555 1_555
I5 I6 1_555 1_555
I6 I7 1_555 1_555
I7 I10 1_555 1_555
I8 I9 1_555 1_555
I9 I10 1_555 1_555
I10 I11 1_555 1_555
I11 I11D 1_555 1_555
I12 I8 1_555 1_555
N1 C1 1_555 1_555
C1 C2 1_555 1_555
C2 H1 1_555 1_555
C3 C2 1_555 1_555
H2 C3 1_555 1_555
C4 C3 1_555 1_555
H3 C4 1_555 1_555
C5 N1 1_555 1_555
C6 H4 1_555 1_555
N2 C5 1_555 1_555
H5 N2 1_555 1_555
N3 Ni1 1_555 1_555
N4 Ni1 1_555 1_555
C7 C6 1_555 1_555
C8 C7 1_555 1_555
H6 C8 1_555 1_555
C9 C8 1_555 1_555
H7 C9 1_555 1_555
C10 C9 1_555 1_555
H8 C10 1_555 1_555
C11 N4 1_555 1_555
H9 C11 1_555 1_555
N5 C12 1_555 1_555
C12 C1 1_555 1_555
C13 C12 1_555 1_555
H10 C13 1_555 1_555
C14 C13 1_555 1_555
H11 C14 1_555 1_555
C15 C14 1_555 1_555
H12 C15 1_555 1_555
C16 N5 1_555 1_555
N6 C16 1_555 1_555
H13 N6 1_555 1_555
N7 N6 1_555 1_555
C17 N7 1_555 1_555
H14 C17 1_555 1_555
N8 C18 1_555 1_555
C18 C17 1_555 1_555
C19 C18 1_555 1_555
H15 C19 1_555 1_555
C20 C19 1_555 1_555
H16 C20 1_555 1_555
C21 C20 1_555 1_555
H17 C21 1_555 1_555
C22 N8 1_555 1_555
H18 C22 1_555 1_555
N9 C23 1_555 1_555
C23 C24 1_555 1_555
C24 H19 1_555 1_555
H20 C24 1_555 1_555
H21 C24 1_555 1_555
N10 C25 1_555 1_555
C25 C26 1_555 1_555
C26 H22 1_555 1_555
H23 C26 1_555 1_555
H24 C26 1_555 1_555
I12E I12 1_555 1_555
N1F C1F 1_555 1_555
C1F C2F 1_555 1_555
C2F H1F 1_555 1_555
C3F C2F 1_555 1_555
H2F C3F 1_555 1_555
C4F C3F 1_555 1_555
H3F C4F 1_555 1_555
C5F N1F 1_555 1_555
C6F H4F 1_555 1_555
N2F C5F 1_555 1_555
H5F N2F 1_555 1_555
N3F C6F 1_555 1_555
N4F C7F 1_555 1_555
C7F C6F 1_555 1_555
C8F C7F 1_555 1_555
H6F C8F 1_555 1_555
C9F C8F 1_555 1_555
H7F C9F 1_555 1_555
C10F C9F 1_555 1_555
H8F C10F 1_555 1_555
C11F N4F 1_555 1_555
H9F C11F 1_555 1_555
N5F Ni1 1_555 1_555
C12F C1F 1_555 1_555
C13F C12F 1_555 1_555
H10F C13F 1_555 1_555
C14F C13F 1_555 1_555
H11F C14F 1_555 1_555
C15F C14F 1_555 1_555
H12F C15F 1_555 1_555
C16F N5F 1_555 1_555
N6F C16F 1_555 1_555
H13F N6F 1_555 1_555
N7F Ni1 1_555 1_555
C17F N7F 1_555 1_555
H14F C17F 1_555 1_555
N8F Ni1 1_555 1_555
C18F C17F 1_555 1_555
C19F C18F 1_555 1_555
H15F C19F 1_555 1_555
C20F C19F 1_555 1_555
H16F C20F 1_555 1_555
C21F C20F 1_555 1_555
H17F C21F 1_555 1_555
C22F N8F 1_555 1_555
H18F C22F 1_555 1_555
Ni1F N5 1_555 1_555
C4 C5 1_555 1_555
C6 N3 1_555 1_555
N2 N3 1_555 1_555
N4 C7 1_555 1_555
C10 C11 1_555 1_555
C15 C16 1_555 1_555
N7 Ni1F 1_555 1_555
N8 Ni1F 1_555 1_555
C21 C22 1_555 1_555
N1F Ni1F 1_555 1_555
C4F C5F 1_555 1_555
N2F N3F 1_555 1_555
N3F Ni1F 1_555 1_555
N4F Ni1F 1_555 1_555
C10F C11F 1_555 1_555
N5F C12F 1_555 1_555
C15F C16F 1_555 1_555
N6F N7F 1_555 1_555
N8F C18F 1_555 1_555
C21F C22F 1_555 1_555

#END
