
#######################################################################
#
#                 Cambridge Crystallographic Data Centre
#                                CCDC 
#
#######################################################################
#
# If this CIF has been generated from an entry in the Cambridge 
# Structural Database, then it will include bibliographic, chemical, 
# crystal, experimental, refinement or atomic coordinate data resulting 
# from the CCDC's data processing and validation procedures.
#
#######################################################################

data_VAGMEX
_symmetry_cell_setting           orthorhombic
_symmetry_space_group_name_H-M   'I m m a'
_symmetry_Int_Tables_number      74
_space_group_name_Hall           '-I 2b 2'
loop_
_symmetry_equiv_pos_site_id
_symmetry_equiv_pos_as_xyz
1 x,y,z
2 -x,1/2-y,z
3 x,-y,-z
4 -x,1/2+y,-z
5 1/2+x,1/2+y,1/2+z
6 1/2-x,-y,1/2+z
7 1/2+x,1/2-y,1/2-z
8 1/2-x,y,1/2-z
9 -x,-y,-z
10 x,1/2+y,-z
11 -x,y,z
12 x,1/2-y,z
13 1/2-x,1/2-y,1/2-z
14 1/2+x,y,1/2-z
15 1/2-x,1/2+y,1/2+z
16 1/2+x,-y,1/2+z
_cell_length_a                   34.583(7)
_cell_length_b                   22.915(5)
_cell_length_c                   18.833(4)
_cell_angle_alpha                90
_cell_angle_beta                 90
_cell_angle_gamma                90
_cell_volume                     14924.6
loop_
_atom_site_label
_atom_site_type_symbol
_atom_site_fract_x
_atom_site_fract_y
_atom_site_fract_z
O1 O 0.29630(9) 0.18575(12) 0.22269(19)
C1 C 0.28322(15) 0.1078(2) 0.0609(3)
H1 H 0.2601 0.1235 0.0445
C2 C 0.35011(16) 0.0590(2) 0.1060(4)
H2 H 0.3727 0.0422 0.1232
C3 C 0.27857(16) 0.1694(2) 0.1671(3)
C4 C 0.33557(18) 0.0412(2) 0.0411(4)
N1 N 0.3560(2) 0.00000 0.00000
C5 C 0.29795(15) 0.12483(19) 0.1235(3)
C6 C 0.33155(17) 0.1015(2) 0.1460(3)
H3 H 0.3424 0.114 0.1886
C7 C 0.30288(18) 0.0668(2) 0.0211(3)
H4 H 0.2925 0.0565 -0.0227
C8 C 0.4788(2) 0.00000 0.00000
C9 C 0.3967(3) 0.00000 0.00000
C10 C 0.4591(2) 0.0487(2) -0.0118(3)
H5 H 0.4724 0.0836 -0.0183
C11 C 0.4179(2) 0.0487(2) -0.0146(4)
H6 H 0.4051 0.0829 -0.0268
O2 O 0.24598(9) 0.18740(11) 0.14798(16)
O3 O 0.33890(16) 0.25000 0.3443(3)
Zn1 Zn 0.283540(19) 0.25000 0.29797(4)
O1B O 0.29630(9) -0.18575(12) -0.22269(19)
O1H O 0.70370(9) -0.18575(12) -0.22269(19)
O1J O 0.70370(9) 0.18575(12) 0.22269(19)
O1A O 0.70370(9) 0.31425(12) 0.22269(19)
O1K O 0.29630(9) 0.31425(12) 0.22269(19)
C1B C 0.28322(15) -0.1078(2) -0.0609(3)
C1H C 0.71678(15) -0.1078(2) -0.0609(3)
C1J C 0.71678(15) 0.1078(2) 0.0609(3)
H1B H 0.2601 -0.1235 -0.0445
H1H H 0.7399 -0.1235 -0.0445
H1J H 0.7399 0.1235 0.0445
C2B C 0.35011(16) -0.0590(2) -0.1060(4)
C2H C 0.64989(16) -0.0590(2) -0.1060(4)
C2J C 0.64989(16) 0.0590(2) 0.1060(4)
H2B H 0.3727 -0.0422 -0.1232
H2H H 0.6273 -0.0422 -0.1232
H2J H 0.6273 0.0422 0.1232
C3B C 0.27857(16) -0.1694(2) -0.1671(3)
C3H C 0.72143(16) -0.1694(2) -0.1671(3)
C3J C 0.72143(16) 0.1694(2) 0.1671(3)
C4B C 0.33557(18) -0.0412(2) -0.0411(4)
C4H C 0.66443(18) -0.0412(2) -0.0411(4)
C4J C 0.66443(18) 0.0412(2) 0.0411(4)
N1H N 0.6440(2) 0.00000 0.00000
C5B C 0.29795(15) -0.12483(19) -0.1235(3)
C5H C 0.70205(15) -0.12483(19) -0.1235(3)
C5J C 0.70205(15) 0.12483(19) 0.1235(3)
C6B C 0.33155(17) -0.1015(2) -0.1460(3)
C6H C 0.66845(17) -0.1015(2) -0.1460(3)
C6J C 0.66845(17) 0.1015(2) 0.1460(3)
H3B H 0.3424 -0.114 -0.1886
H3H H 0.6576 -0.114 -0.1886
H3J H 0.6576 0.114 0.1886
C7B C 0.30288(18) -0.0668(2) -0.0211(3)
C7H C 0.69712(18) -0.0668(2) -0.0211(3)
C7J C 0.69712(18) 0.0668(2) 0.0211(3)
H4B H 0.2925 -0.0565 0.0227
H4H H 0.7075 -0.0565 0.0227
H4J H 0.7075 0.0565 -0.0227
C8H C 0.5212(2) 0.00000 0.00000
C9H C 0.6033(3) 0.00000 0.00000
C10B C 0.4591(2) -0.0487(2) 0.0118(3)
C10H C 0.5409(2) -0.0487(2) 0.0118(3)
C10J C 0.5409(2) 0.0487(2) -0.0118(3)
H5B H 0.4724 -0.0836 0.0183
H5H H 0.5276 -0.0836 0.0183
H5J H 0.5276 0.0836 -0.0183
C11B C 0.4179(2) -0.0487(2) 0.0146(4)
C11H C 0.5821(2) -0.0487(2) 0.0146(4)
C11J C 0.5821(2) 0.0487(2) -0.0146(4)
H6B H 0.4051 -0.0829 0.0268
H6H H 0.5949 -0.0829 0.0268
H6J H 0.5949 0.0829 -0.0268
O2B O 0.24598(9) -0.18740(11) -0.14798(16)
O2H O 0.75402(9) -0.18740(11) -0.14798(16)
O2J O 0.75402(9) 0.18740(11) 0.14798(16)
O2F O 0.74598(9) 0.31260(11) 0.35202(16)
O2G O 0.25402(9) 0.18740(11) 0.35202(16)
O2L O 0.25402(9) 0.31260(11) 0.35202(16)
O2M O 0.74598(9) 0.18740(11) 0.35202(16)
O3A O 0.66110(16) 0.25000 0.3443(3)
Zn1A Zn 0.716460(19) 0.25000 0.29797(4)
Zn1B Zn 0.283540(19) -0.25000 -0.29797(4)
Zn1C Zn 0.716460(19) -0.25000 -0.29797(4)
Zn1D Zn 0.783540(19) -0.25000 -0.20203(4)
Zn1E Zn 0.216460(19) -0.25000 -0.20203(4)
Zn1F Zn 0.783540(19) 0.25000 0.20203(4)
Zn1G Zn 0.216460(19) 0.25000 0.20203(4)
loop_
_geom_bond_atom_site_label_1
_geom_bond_atom_site_label_2
_geom_bond_site_symmetry_1
_geom_bond_site_symmetry_2
O1 C3 1_555 1_555
C1 H1 1_555 1_555
C2 H2 1_555 1_555
C3 C5 1_555 1_555
C4 C2 1_555 1_555
N1 C4 1_555 1_555
C5 C1 1_555 1_555
C6 C2 1_555 1_555
H3 C6 1_555 1_555
C7 C1 1_555 1_555
H4 C7 1_555 1_555
C8 C10 1_555 1_555
C9 N1 1_555 1_555
C10 H5 1_555 1_555
C11 C9 1_555 1_555
H6 C11 1_555 1_555
O2 C3 1_555 1_555
O3 Zn1 1_555 1_555
Zn1 O1 1_555 1_555
O1B C3B 1_555 1_555
O1H C3H 1_555 1_555
O1J C3J 1_555 1_555
O1A Zn1A 1_555 1_555
O1K Zn1 1_555 1_555
C1B H1B 1_555 1_555
C1H H1H 1_555 1_555
C1J H1J 1_555 1_555
C2B H2B 1_555 1_555
C2H H2H 1_555 1_555
C2J H2J 1_555 1_555
C3B C5B 1_555 1_555
C3H C5H 1_555 1_555
C3J C5J 1_555 1_555
C4B N1 1_555 1_555
C4H C2H 1_555 1_555
C4J C2J 1_555 1_555
N1H C4H 1_555 1_555
C5B C1B 1_555 1_555
C5H C1H 1_555 1_555
C5J C1J 1_555 1_555
C6B C2B 1_555 1_555
C6H C2H 1_555 1_555
C6J C2J 1_555 1_555
H3B C6B 1_555 1_555
H3H C6H 1_555 1_555
H3J C6J 1_555 1_555
C7B C1B 1_555 1_555
C7H C1H 1_555 1_555
C7J C1J 1_555 1_555
H4B C7B 1_555 1_555
H4H C7H 1_555 1_555
H4J C7J 1_555 1_555
C8H C8 1_555 1_555
C9H N1H 1_555 1_555
C10B C8 1_555 1_555
C10H C8H 1_555 1_555
C10J C8H 1_555 1_555
H5B C10B 1_555 1_555
H5H C10H 1_555 1_555
H5J C10J 1_555 1_555
C11B C9 1_555 1_555
C11H C9H 1_555 1_555
C11J C9H 1_555 1_555
H6B C11B 1_555 1_555
H6H C11H 1_555 1_555
H6J C11J 1_555 1_555
O2B C3B 1_555 1_555
O2H C3H 1_555 1_555
O2J C3J 1_555 1_555
O2F Zn1A 1_555 1_555
O2G Zn1 1_555 1_555
O2L Zn1 1_555 1_555
O2M Zn1A 1_555 1_555
O3A Zn1A 1_555 1_555
Zn1A O1J 1_555 1_555
Zn1B O1B 1_555 1_555
Zn1C O1H 1_555 1_555
Zn1D O2H 1_555 1_555
Zn1E O2B 1_555 1_555
Zn1F O2J 1_555 1_555
Zn1G O2 1_555 1_555
C4 C7 1_555 1_555
C5 C6 1_555 1_555
C10 C11 1_555 1_555
C2B C4B 1_555 1_555
C4B C7B 1_555 1_555
C4H C7H 1_555 1_555
C4J N1H 1_555 1_555
C4J C7J 1_555 1_555
C5B C6B 1_555 1_555
C5H C6H 1_555 1_555
C5J C6J 1_555 1_555
C10B C11B 1_555 1_555
C10H C11H 1_555 1_555
C10J C11J 1_555 1_555

#END
