
#######################################################################
#
#                 Cambridge Crystallographic Data Centre
#                                CCDC 
#
#######################################################################
#
# If this CIF has been generated from an entry in the Cambridge 
# Structural Database, then it will include bibliographic, chemical, 
# crystal, experimental, refinement or atomic coordinate data resulting 
# from the CCDC's data processing and validation procedures.
#
#######################################################################

data_VAGMAT
_symmetry_cell_setting           orthorhombic
_symmetry_space_group_name_H-M   'I m m a'
_symmetry_Int_Tables_number      74
_space_group_name_Hall           '-I 2b 2'
loop_
_symmetry_equiv_pos_site_id
_symmetry_equiv_pos_as_xyz
1 x,y,z
2 -x,1/2-y,z
3 x,-y,-z
4 -x,1/2+y,-z
5 1/2+x,1/2+y,1/2+z
6 1/2-x,-y,1/2+z
7 1/2+x,1/2-y,1/2-z
8 1/2-x,y,1/2-z
9 -x,-y,-z
10 x,1/2+y,-z
11 -x,y,z
12 x,1/2-y,z
13 1/2-x,1/2-y,1/2-z
14 1/2+x,y,1/2-z
15 1/2-x,1/2+y,1/2+z
16 1/2+x,-y,1/2+z
_cell_length_a                   35.965(7)
_cell_length_b                   23.273(5)
_cell_length_c                   17.219(3)
_cell_angle_alpha                90
_cell_angle_beta                 90
_cell_angle_gamma                90
_cell_volume                     14412.5
loop_
_atom_site_label
_atom_site_type_symbol
_atom_site_fract_x
_atom_site_fract_y
_atom_site_fract_z
O1 O 0.29964(7) 0.18903(9) 0.23422(16)
C1 C 0.28473(12) 0.17198(15) 0.1728(2)
C2 C 0.35583(12) 0.06134(18) 0.1129(3)
H1 H 0.3775 0.0452 0.1327
C3 C 0.34214(12) 0.04223(16) 0.0426(3)
C4 C 0.29116(11) 0.10675(16) 0.0574(3)
H2 H 0.2689 0.1215 0.0382
C5 C 0.30479(11) 0.12573(14) 0.1285(3)
C6 C 0.33798(12) 0.10410(17) 0.1546(3)
H3 H 0.3485 0.1181 0.2002
N1 N 0.36153(14) 0.00000 0.00000
C7 C 0.31022(13) 0.06681(17) 0.0160(2)
H4 H 0.3011 0.0558 -0.0323
C8 C 0.40156(18) 0.00000 0.00000
C9 C 0.42011(14) -0.04801(17) 0.0134(3)
H5 H 0.4071 -0.0816 0.0243
C10 C 0.45929(13) -0.04933(16) 0.0114(3)
H6 H 0.4717 -0.084 0.018
C11 C 0.47907(14) 0.00000 0.00000
O2 O 0.25441(7) 0.18866(9) 0.14635(15)
O3 O 0.32069(11) 0.25000 0.3858(2)
Zn1 Zn 0.279998(14) 0.25000 0.30825(3)
O1B O 0.29964(7) -0.18903(9) -0.23422(16)
O1H O 0.70036(7) -0.18903(9) -0.23422(16)
O1J O 0.70036(7) 0.18903(9) 0.23422(16)
O1A O 0.70036(7) 0.31097(9) 0.23422(16)
O1K O 0.29964(7) 0.31097(9) 0.23422(16)
C1B C 0.28473(12) -0.17198(15) -0.1728(2)
C1H C 0.71527(12) -0.17198(15) -0.1728(2)
C1J C 0.71527(12) 0.17198(15) 0.1728(2)
C2B C 0.35583(12) -0.06134(18) -0.1129(3)
C2H C 0.64417(12) -0.06134(18) -0.1129(3)
C2J C 0.64417(12) 0.06134(18) 0.1129(3)
H1B H 0.3775 -0.0452 -0.1327
H1H H 0.6225 -0.0452 -0.1327
H1J H 0.6225 0.0452 0.1327
C3B C 0.34214(12) -0.04223(16) -0.0426(3)
C3H C 0.65786(12) -0.04223(16) -0.0426(3)
C3J C 0.65786(12) 0.04223(16) 0.0426(3)
C4B C 0.29116(11) -0.10675(16) -0.0574(3)
C4H C 0.70884(11) -0.10675(16) -0.0574(3)
C4J C 0.70884(11) 0.10675(16) 0.0574(3)
H2B H 0.2689 -0.1215 -0.0382
H2H H 0.7311 -0.1215 -0.0382
H2J H 0.7311 0.1215 0.0382
C5B C 0.30479(11) -0.12573(14) -0.1285(3)
C5H C 0.69521(11) -0.12573(14) -0.1285(3)
C5J C 0.69521(11) 0.12573(14) 0.1285(3)
C6B C 0.33798(12) -0.10410(17) -0.1546(3)
C6H C 0.66202(12) -0.10410(17) -0.1546(3)
C6J C 0.66202(12) 0.10410(17) 0.1546(3)
H3B H 0.3485 -0.1181 -0.2002
H3H H 0.6515 -0.1181 -0.2002
H3J H 0.6515 0.1181 0.2002
N1H N 0.63847(14) 0.00000 0.00000
C7B C 0.31022(13) -0.06681(17) -0.0160(2)
C7H C 0.68978(13) -0.06681(17) -0.0160(2)
C7J C 0.68978(13) 0.06681(17) 0.0160(2)
H4B H 0.3011 -0.0558 0.0323
H4H H 0.6989 -0.0558 0.0323
H4J H 0.6989 0.0558 -0.0323
C8H C 0.59844(18) 0.00000 0.00000
C9B C 0.42011(14) 0.04801(17) -0.0134(3)
C9H C 0.57989(14) 0.04801(17) -0.0134(3)
C9J C 0.57989(14) -0.04801(17) 0.0134(3)
H5B H 0.4071 0.0816 -0.0243
H5H H 0.5929 0.0816 -0.0243
H5J H 0.5929 -0.0816 0.0243
C10B C 0.45929(13) 0.04933(16) -0.0114(3)
C10H C 0.54071(13) 0.04933(16) -0.0114(3)
C10J C 0.54071(13) -0.04933(16) 0.0114(3)
H6B H 0.4717 0.084 -0.018
H6H H 0.5283 0.084 -0.018
H6J H 0.5283 -0.084 0.018
C11H C 0.52093(14) 0.00000 0.00000
O2B O 0.25441(7) -0.18866(9) -0.14635(15)
O2H O 0.74559(7) -0.18866(9) -0.14635(15)
O2J O 0.74559(7) 0.18866(9) 0.14635(15)
O2F O 0.75441(7) 0.31134(9) 0.35365(15)
O2G O 0.24559(7) 0.18866(9) 0.35365(15)
O2L O 0.24559(7) 0.31134(9) 0.35365(15)
O2M O 0.75441(7) 0.18866(9) 0.35365(15)
O3A O 0.67931(11) 0.25000 0.3858(2)
Zn1A Zn 0.720002(14) 0.25000 0.30825(3)
Zn1B Zn 0.279998(14) -0.25000 -0.30825(3)
Zn1C Zn 0.720002(14) -0.25000 -0.30825(3)
Zn1D Zn 0.779998(14) -0.25000 -0.19175(3)
Zn1E Zn 0.220002(14) -0.25000 -0.19175(3)
Zn1F Zn 0.779998(14) 0.25000 0.19175(3)
Zn1G Zn 0.220002(14) 0.25000 0.19175(3)
loop_
_geom_bond_atom_site_label_1
_geom_bond_atom_site_label_2
_geom_bond_site_symmetry_1
_geom_bond_site_symmetry_2
O1 C1 1_555 1_555
C1 C5 1_555 1_555
C2 H1 1_555 1_555
C3 C2 1_555 1_555
C4 H2 1_555 1_555
C5 C4 1_555 1_555
C6 C2 1_555 1_555
H3 C6 1_555 1_555
N1 C3 1_555 1_555
C7 C3 1_555 1_555
H4 C7 1_555 1_555
C8 N1 1_555 1_555
C9 C8 1_555 1_555
H5 C9 1_555 1_555
C10 C9 1_555 1_555
H6 C10 1_555 1_555
C11 C10 1_555 1_555
O2 C1 1_555 1_555
O3 Zn1 1_555 1_555
Zn1 O1 1_555 1_555
O1B C1B 1_555 1_555
O1H C1H 1_555 1_555
O1J C1J 1_555 1_555
O1A Zn1A 1_555 1_555
O1K Zn1 1_555 1_555
C1B C5B 1_555 1_555
C1H C5H 1_555 1_555
C1J C5J 1_555 1_555
C2B H1B 1_555 1_555
C2H H1H 1_555 1_555
C2J H1J 1_555 1_555
C3B N1 1_555 1_555
C3H C2H 1_555 1_555
C3J C2J 1_555 1_555
C4B H2B 1_555 1_555
C4H H2H 1_555 1_555
C4J H2J 1_555 1_555
C5B C4B 1_555 1_555
C5H C4H 1_555 1_555
C5J C4J 1_555 1_555
C6B C2B 1_555 1_555
C6H C2H 1_555 1_555
C6J C2J 1_555 1_555
H3B C6B 1_555 1_555
H3H C6H 1_555 1_555
H3J C6J 1_555 1_555
N1H C3H 1_555 1_555
C7B C3B 1_555 1_555
C7H C3H 1_555 1_555
C7J C3J 1_555 1_555
H4B C7B 1_555 1_555
H4H C7H 1_555 1_555
H4J C7J 1_555 1_555
C8H N1H 1_555 1_555
C9B C8 1_555 1_555
C9H C8H 1_555 1_555
C9J C8H 1_555 1_555
H5B C9B 1_555 1_555
H5H C9H 1_555 1_555
H5J C9J 1_555 1_555
C10B C11 1_555 1_555
C10H C9H 1_555 1_555
C10J C9J 1_555 1_555
H6B C10B 1_555 1_555
H6H C10H 1_555 1_555
H6J C10J 1_555 1_555
C11H C11 1_555 1_555
O2B C1B 1_555 1_555
O2H C1H 1_555 1_555
O2J C1J 1_555 1_555
O2F Zn1A 1_555 1_555
O2G Zn1 1_555 1_555
O2L Zn1 1_555 1_555
O2M Zn1A 1_555 1_555
O3A Zn1A 1_555 1_555
Zn1A O1J 1_555 1_555
Zn1B O1B 1_555 1_555
Zn1C O1H 1_555 1_555
Zn1D O2H 1_555 1_555
Zn1E O2B 1_555 1_555
Zn1F O2J 1_555 1_555
Zn1G O2 1_555 1_555
C4 C7 1_555 1_555
C5 C6 1_555 1_555
C2B C3B 1_555 1_555
C3J N1H 1_555 1_555
C4B C7B 1_555 1_555
C4H C7H 1_555 1_555
C4J C7J 1_555 1_555
C5B C6B 1_555 1_555
C5H C6H 1_555 1_555
C5J C6J 1_555 1_555
C9B C10B 1_555 1_555
C10H C11H 1_555 1_555
C10J C11H 1_555 1_555

#END
