
#######################################################################
#
#                 Cambridge Crystallographic Data Centre
#                                CCDC 
#
#######################################################################
#
# If this CIF has been generated from an entry in the Cambridge 
# Structural Database, then it will include bibliographic, chemical, 
# crystal, experimental, refinement or atomic coordinate data resulting 
# from the CCDC's data processing and validation procedures.
#
#######################################################################

data_VAGMIB01
_symmetry_cell_setting           orthorhombic
_symmetry_space_group_name_H-M   'I m m a'
_symmetry_Int_Tables_number      74
_space_group_name_Hall           '-I 2b 2'
loop_
_symmetry_equiv_pos_site_id
_symmetry_equiv_pos_as_xyz
1 x,y,z
2 -x,1/2-y,z
3 x,-y,-z
4 -x,1/2+y,-z
5 1/2+x,1/2+y,1/2+z
6 1/2-x,-y,1/2+z
7 1/2+x,1/2-y,1/2-z
8 1/2-x,y,1/2-z
9 -x,-y,-z
10 x,1/2+y,-z
11 -x,y,z
12 x,1/2-y,z
13 1/2-x,1/2-y,1/2-z
14 1/2+x,y,1/2-z
15 1/2-x,1/2+y,1/2+z
16 1/2+x,-y,1/2+z
_cell_length_a                   34.277(7)
_cell_length_b                   23.356(5)
_cell_length_c                   18.400(4)
_cell_angle_alpha                90
_cell_angle_beta                 90
_cell_angle_gamma                90
_cell_volume                     14730.6
loop_
_atom_site_label
_atom_site_type_symbol
_atom_site_fract_x
_atom_site_fract_y
_atom_site_fract_z
O1 O 0.29429(8) 0.31236(11) 0.22130(15)
C1 C 0.28234(11) 0.39340(16) 0.0590(2)
H1 H 0.2589 0.3786 0.042
C2 C 0.35019(13) 0.44010(18) 0.1048(3)
H2 H 0.374 0.454 0.1214
C3 C 0.29658(12) 0.37376(14) 0.1226(2)
C4 C 0.27796(12) 0.32934(14) 0.1645(2)
N1 N 0.35456(18) 0.50000 0.00000
C5 C 0.33495(14) 0.45988(18) 0.0423(3)
C6 C 0.32966(14) 0.39761(18) 0.1459(3)
H3 H 0.3398 0.3862 0.1905
C7 C 0.30139(14) 0.43503(18) 0.0176(3)
H4 H 0.2912 0.4459 -0.0272
C8 C 0.47834(18) 0.50000 0.00000
C9 C 0.3963(3) 0.50000 0.00000
C10 C 0.45638(19) 0.5473(2) 0.0126(3)
H5 H 0.4693 0.5817 0.0211
C11 C 0.41505(18) 0.5476(2) 0.0136(4)
H6 H 0.4015 0.5811 0.0238
N2 N 0.34082(12) 0.25000 0.3387(2)
O2 O 0.24443(8) 0.31146(9) 0.14347(13)
C12 C 0.4210(3) 0.25000 0.3667(5)
C13 C 0.35904(17) 0.2044(2) 0.3479(4)
H7 H 0.3448 0.1705 0.3479
C14 C 0.4653(5) 0.25000 0.3730(8)
C15 C 0.4009(2) 0.2005(3) 0.3586(4)
H8 H 0.4135 0.1653 0.3598
N3 N 0.4761(3) 0.2086(3) 0.3837(5)
Zn1 Zn 0.283884(14) 0.25000 0.29897(3)
O1H O 0.70571(8) 0.68764(11) -0.22130(15)
O1J O 0.70571(8) 0.31236(11) 0.22130(15)
O1B O 0.29429(8) 0.68764(11) -0.22130(15)
O1K O 0.29429(8) 0.18764(11) 0.22130(15)
O1A O 0.70571(8) 0.18764(11) 0.22130(15)
C1H C 0.71766(11) 0.60660(16) -0.0590(2)
C1J C 0.71766(11) 0.39340(16) 0.0590(2)
C1B C 0.28234(11) 0.60660(16) -0.0590(2)
H1H H 0.7411 0.6214 -0.042
H1J H 0.7411 0.3786 0.042
H1B H 0.2589 0.6214 -0.042
C2H C 0.64981(13) 0.55990(18) -0.1048(3)
C2J C 0.64981(13) 0.44010(18) 0.1048(3)
C2B C 0.35019(13) 0.55990(18) -0.1048(3)
H2H H 0.626 0.546 -0.1214
H2J H 0.626 0.454 0.1214
H2B H 0.374 0.546 -0.1214
C3H C 0.70342(12) 0.62624(14) -0.1226(2)
C3J C 0.70342(12) 0.37376(14) 0.1226(2)
C3B C 0.29658(12) 0.62624(14) -0.1226(2)
C4H C 0.72204(12) 0.67066(14) -0.1645(2)
C4J C 0.72204(12) 0.32934(14) 0.1645(2)
C4B C 0.27796(12) 0.67066(14) -0.1645(2)
N1H N 0.64544(18) 0.50000 0.00000
C5H C 0.66505(14) 0.54012(18) -0.0423(3)
C5J C 0.66505(14) 0.45988(18) 0.0423(3)
C5B C 0.33495(14) 0.54012(18) -0.0423(3)
C6H C 0.67034(14) 0.60239(18) -0.1459(3)
C6J C 0.67034(14) 0.39761(18) 0.1459(3)
C6B C 0.32966(14) 0.60239(18) -0.1459(3)
H3H H 0.6602 0.6138 -0.1905
H3J H 0.6602 0.3862 0.1905
H3B H 0.3398 0.6138 -0.1905
C7H C 0.69861(14) 0.56497(18) -0.0176(3)
C7J C 0.69861(14) 0.43503(18) 0.0176(3)
C7B C 0.30139(14) 0.56497(18) -0.0176(3)
H4H H 0.7088 0.5541 0.0272
H4J H 0.7088 0.4459 -0.0272
H4B H 0.2912 0.5541 0.0272
C8H C 0.52166(18) 0.50000 0.00000
C9H C 0.6037(3) 0.50000 0.00000
C10H C 0.54362(19) 0.4527(2) -0.0126(3)
C10J C 0.54362(19) 0.5473(2) 0.0126(3)
C10B C 0.45638(19) 0.4527(2) -0.0126(3)
H5H H 0.5307 0.4183 -0.0211
H5J H 0.5307 0.5817 0.0211
H5B H 0.4693 0.4183 -0.0211
C11H C 0.58495(18) 0.4524(2) -0.0136(4)
C11J C 0.58495(18) 0.5476(2) 0.0136(4)
C11B C 0.41505(18) 0.4524(2) -0.0136(4)
H6J H 0.5985 0.5811 0.0238
H6H H 0.5985 0.4189 -0.0238
H6B H 0.4015 0.4189 -0.0238
N2A N 0.65918(12) 0.25000 0.3387(2)
O2H O 0.75557(8) 0.68854(9) -0.14347(13)
O2J O 0.75557(8) 0.31146(9) 0.14347(13)
O2B O 0.24443(8) 0.68854(9) -0.14347(13)
O2G O 0.25557(8) 0.31146(9) 0.35653(13)
O2L O 0.25557(8) 0.18854(9) 0.35653(13)
O2F O 0.74443(8) 0.18854(9) 0.35653(13)
O2M O 0.74443(8) 0.31146(9) 0.35653(13)
C12A C 0.5790(3) 0.25000 0.3667(5)
C13J C 0.64096(17) 0.2044(2) 0.3479(4)
C13A C 0.64096(17) 0.2956(2) 0.3479(4)
C13K C 0.35904(17) 0.2956(2) 0.3479(4)
H7A H 0.6552 0.3295 0.3479
H7J H 0.6552 0.1705 0.3479
H7K H 0.3448 0.3295 0.3479
C14A C 0.5347(5) 0.25000 0.3730(8)
C15J C 0.5991(2) 0.2005(3) 0.3586(4)
C15A C 0.5991(2) 0.2995(3) 0.3586(4)
C15K C 0.4009(2) 0.2995(3) 0.3586(4)
H8A H 0.5865 0.3347 0.3598
H8J H 0.5865 0.1653 0.3598
H8K H 0.4135 0.3347 0.3598
N3J N 0.5239(3) 0.2086(3) 0.3837(5)
N3A N 0.5239(3) 0.2914(3) 0.3837(5)
N3K N 0.4761(3) 0.2914(3) 0.3837(5)
Zn1C Zn 0.716116(14) 0.75000 -0.29897(3)
Zn1G Zn 0.216116(14) 0.25000 0.20103(3)
Zn1D Zn 0.783884(14) 0.75000 -0.20103(3)
Zn1A Zn 0.716116(14) 0.25000 0.29897(3)
Zn1F Zn 0.783884(14) 0.25000 0.20103(3)
Zn1B Zn 0.283884(14) 0.75000 -0.29897(3)
Zn1E Zn 0.216116(14) 0.75000 -0.20103(3)
loop_
_geom_bond_atom_site_label_1
_geom_bond_atom_site_label_2
_geom_bond_site_symmetry_1
_geom_bond_site_symmetry_2
O1 C4 1_555 1_555
C1 H1 1_555 1_555
C2 H2 1_555 1_555
C3 C1 1_555 1_555
C4 C3 1_555 1_555
N1 C5 1_555 1_555
C5 C2 1_555 1_555
C6 C2 1_555 1_555
H3 C6 1_555 1_555
C7 C1 1_555 1_555
H4 C7 1_555 1_555
C8 C10 1_555 1_555
C9 N1 1_555 1_555
C10 H5 1_555 1_555
C11 C9 1_555 1_555
H6 C11 1_555 1_555
N2 C13 1_555 1_555
O2 C4 1_555 1_555
C12 C14 1_555 1_555
C13 H7 1_555 1_555
C14 N3 1_555 1_555
C15 C12 1_555 1_555
H8 C15 1_555 1_555
N3 N3J 1_555 1_555
Zn1 O1 1_555 1_555
O1H C4H 1_555 1_555
O1J C4J 1_555 1_555
O1B C4B 1_555 1_555
O1K Zn1 1_555 1_555
O1A Zn1A 1_555 1_555
C1H H1H 1_555 1_555
C1J H1J 1_555 1_555
C1B H1B 1_555 1_555
C2H H2H 1_555 1_555
C2J H2J 1_555 1_555
C2B H2B 1_555 1_555
C3H C1H 1_555 1_555
C3J C1J 1_555 1_555
C3B C1B 1_555 1_555
C4H C3H 1_555 1_555
C4J C3J 1_555 1_555
C4B C3B 1_555 1_555
N1H C5H 1_555 1_555
C5H C2H 1_555 1_555
C5J C2J 1_555 1_555
C5B N1 1_555 1_555
C6H C2H 1_555 1_555
C6J C2J 1_555 1_555
C6B C2B 1_555 1_555
H3H C6H 1_555 1_555
H3J C6J 1_555 1_555
H3B C6B 1_555 1_555
C7H C1H 1_555 1_555
C7J C1J 1_555 1_555
C7B C1B 1_555 1_555
H4H C7H 1_555 1_555
H4J C7J 1_555 1_555
H4B C7B 1_555 1_555
C8H C8 1_555 1_555
C9H N1H 1_555 1_555
C10H C8H 1_555 1_555
C10J C8H 1_555 1_555
C10B C8 1_555 1_555
H5H C10H 1_555 1_555
H5J C10J 1_555 1_555
H5B C10B 1_555 1_555
C11H C9H 1_555 1_555
C11J C9H 1_555 1_555
C11B C9 1_555 1_555
H6J C11J 1_555 1_555
H6H C11H 1_555 1_555
H6B C11B 1_555 1_555
N2A C13J 1_555 1_555
O2H C4H 1_555 1_555
O2J C4J 1_555 1_555
O2B C4B 1_555 1_555
O2G Zn1 1_555 1_555
O2L Zn1 1_555 1_555
O2F Zn1A 1_555 1_555
O2M Zn1A 1_555 1_555
C12A C14A 1_555 1_555
C13J H7J 1_555 1_555
C13A N2A 1_555 1_555
C13K N2 1_555 1_555
H7A C13A 1_555 1_555
H7K C13K 1_555 1_555
C14A N3J 1_555 1_555
C15J C12A 1_555 1_555
C15A C12A 1_555 1_555
C15K C12 1_555 1_555
H8A C15A 1_555 1_555
H8J C15J 1_555 1_555
H8K C15K 1_555 1_555
N3A C14A 1_555 1_555
N3K C14 1_555 1_555
Zn1C O1H 1_555 1_555
Zn1G O2 1_555 1_555
Zn1D O2H 1_555 1_555
Zn1A O1J 1_555 1_555
Zn1F O2J 1_555 1_555
Zn1B O1B 1_555 1_555
Zn1E O2B 1_555 1_555
C3 C6 1_555 1_555
C5 C7 1_555 1_555
C10 C11 1_555 1_555
N2 Zn1 1_555 1_555
C13 C15 1_555 1_555
C2B C5B 1_555 1_555
C3H C6H 1_555 1_555
C3J C6J 1_555 1_555
C3B C6B 1_555 1_555
N1H C5J 1_555 1_555
C5H C7H 1_555 1_555
C5J C7J 1_555 1_555
C5B C7B 1_555 1_555
C10H C11H 1_555 1_555
C10J C11J 1_555 1_555
C10B C11B 1_555 1_555
N2A Zn1A 1_555 1_555
C13J C15J 1_555 1_555
C13A C15A 1_555 1_555
C13K C15K 1_555 1_555
N3A N3K 1_555 1_555

#END
