
#######################################################################
#
#                 Cambridge Crystallographic Data Centre
#                                CCDC 
#
#######################################################################
#
# If this CIF has been generated from an entry in the Cambridge 
# Structural Database, then it will include bibliographic, chemical, 
# crystal, experimental, refinement or atomic coordinate data resulting 
# from the CCDC's data processing and validation procedures.
#
#######################################################################

data_VAGMIB
_symmetry_cell_setting           orthorhombic
_symmetry_space_group_name_H-M   'I m m a'
_symmetry_Int_Tables_number      74
_space_group_name_Hall           '-I 2b 2'
loop_
_symmetry_equiv_pos_site_id
_symmetry_equiv_pos_as_xyz
1 x,y,z
2 -x,1/2-y,z
3 x,-y,-z
4 -x,1/2+y,-z
5 1/2+x,1/2+y,1/2+z
6 1/2-x,-y,1/2+z
7 1/2+x,1/2-y,1/2-z
8 1/2-x,y,1/2-z
9 -x,-y,-z
10 x,1/2+y,-z
11 -x,y,z
12 x,1/2-y,z
13 1/2-x,1/2-y,1/2-z
14 1/2+x,y,1/2-z
15 1/2-x,1/2+y,1/2+z
16 1/2+x,-y,1/2+z
_cell_length_a                   34.158(7)
_cell_length_b                   22.850(5)
_cell_length_c                   19.049(4)
_cell_angle_alpha                90
_cell_angle_beta                 90
_cell_angle_gamma                90
_cell_volume                     14867.9
loop_
_atom_site_label
_atom_site_type_symbol
_atom_site_fract_x
_atom_site_fract_y
_atom_site_fract_z
O1 O 0.29436(4) 0.18763(7) 0.22061(8)
C1 C 0.28151(7) 0.10691(11) 0.06058(14)
H1 H 0.2578 0.1226 0.0454
C2 C 0.27668(8) 0.17032(10) 0.16710(14)
C3 C 0.34995(8) 0.05879(12) 0.10433(16)
H2 H 0.3736 0.0431 0.1196
C4 C 0.29675(7) 0.12503(10) 0.12399(14)
N1 N 0.35445(9) 0.00000 0.00000
C5 C 0.33412(8) 0.04100(12) 0.04180(16)
C6 C 0.33056(8) 0.10042(12) 0.14507(14)
H3 H 0.3413 0.1115 0.1879
C7 C 0.30007(8) 0.06664(13) 0.01927(15)
H4 H 0.2896 0.0566 -0.0242
N2 N 0.34024(8) 0.25000 0.33429(15)
C8 C 0.39692(12) 0.00000 0.00000
C9 C 0.47817(10) 0.00000 0.00000
C10 C 0.42030(14) 0.25000 0.3598(3)
C11 C 0.35985(9) 0.20145(13) 0.34020(17)
H5 H 0.3463 0.1665 0.3346
C12 C 0.41637(10) -0.05031(15) 0.0138(2)
H6 H 0.4029 -0.0845 0.0245
C13 C 0.45755(9) -0.04957(14) 0.0115(2)
H7 H 0.4711 -0.0845 0.018
C14 C 0.46344(17) 0.25000 0.3722(4)
N3 N 0.47945(11) 0.20047(18) 0.3781(2)
C15 C 0.40045(10) 0.19837(15) 0.35452(18)
H8 H 0.4131 0.1626 0.3601
O2 O 0.24333(5) 0.18852(6) 0.14709(8)
Zn1 Zn 0.284209(9) 0.25000 0.296040(17)
O1H O 0.70564(4) -0.18763(7) -0.22061(8)
O1J O 0.70564(4) 0.18763(7) 0.22061(8)
O1B O 0.29436(4) -0.18763(7) -0.22061(8)
O1K O 0.29436(4) 0.31237(7) 0.22061(8)
O1A O 0.70564(4) 0.31237(7) 0.22061(8)
C1H C 0.71849(7) -0.10691(11) -0.06058(14)
C1J C 0.71849(7) 0.10691(11) 0.06058(14)
C1B C 0.28151(7) -0.10691(11) -0.06058(14)
H1H H 0.7422 -0.1226 -0.0454
H1J H 0.7422 0.1226 0.0454
H1B H 0.2578 -0.1226 -0.0454
C2H C 0.72332(8) -0.17032(10) -0.16710(14)
C2J C 0.72332(8) 0.17032(10) 0.16710(14)
C2B C 0.27668(8) -0.17032(10) -0.16710(14)
C3H C 0.65005(8) -0.05879(12) -0.10433(16)
C3J C 0.65005(8) 0.05879(12) 0.10433(16)
C3B C 0.34995(8) -0.05879(12) -0.10433(16)
H2H H 0.6264 -0.0431 -0.1196
H2J H 0.6264 0.0431 0.1196
H2B H 0.3736 -0.0431 -0.1196
C4H C 0.70325(7) -0.12503(10) -0.12399(14)
C4J C 0.70325(7) 0.12503(10) 0.12399(14)
C4B C 0.29675(7) -0.12503(10) -0.12399(14)
N1H N 0.64555(9) 0.00000 0.00000
C5H C 0.66588(8) -0.04100(12) -0.04180(16)
C5J C 0.66588(8) 0.04100(12) 0.04180(16)
C5B C 0.33412(8) -0.04100(12) -0.04180(16)
C6H C 0.66944(8) -0.10042(12) -0.14507(14)
C6J C 0.66944(8) 0.10042(12) 0.14507(14)
C6B C 0.33056(8) -0.10042(12) -0.14507(14)
H3H H 0.6587 -0.1115 -0.1879
H3J H 0.6587 0.1115 0.1879
H3B H 0.3413 -0.1115 -0.1879
C7H C 0.69993(8) -0.06664(13) -0.01927(15)
C7J C 0.69993(8) 0.06664(13) 0.01927(15)
C7B C 0.30007(8) -0.06664(13) -0.01927(15)
H4H H 0.7104 -0.0566 0.0242
H4J H 0.7104 0.0566 -0.0242
H4B H 0.2896 -0.0566 0.0242
N2A N 0.65976(8) 0.25000 0.33429(15)
C8H C 0.60308(12) 0.00000 0.00000
C9H C 0.52183(10) 0.00000 0.00000
C10A C 0.57970(14) 0.25000 0.3598(3)
C11J C 0.64015(9) 0.20145(13) 0.34020(17)
C11A C 0.64015(9) 0.29855(13) 0.34020(17)
C11K C 0.35985(9) 0.29855(13) 0.34020(17)
H5A H 0.6537 0.3335 0.3346
H5J H 0.6537 0.1665 0.3346
H5K H 0.3463 0.3335 0.3346
C12H C 0.58363(10) 0.05031(15) -0.0138(2)
C12J C 0.58363(10) -0.05031(15) 0.0138(2)
C12B C 0.41637(10) 0.05031(15) -0.0138(2)
H6J H 0.5971 -0.0845 0.0245
H6H H 0.5971 0.0845 -0.0245
H6B H 0.4029 0.0845 -0.0245
C13H C 0.54245(9) 0.04957(14) -0.0115(2)
C13J C 0.54245(9) -0.04957(14) 0.0115(2)
C13B C 0.45755(9) 0.04957(14) -0.0115(2)
H7J H 0.5289 -0.0845 0.018
H7H H 0.5289 0.0845 -0.018
H7B H 0.4711 0.0845 -0.018
C14A C 0.53656(17) 0.25000 0.3722(4)
N3J N 0.52055(11) 0.20047(18) 0.3781(2)
N3A N 0.52055(11) 0.29953(18) 0.3781(2)
N3K N 0.47945(11) 0.29953(18) 0.3781(2)
C15J C 0.59955(10) 0.19837(15) 0.35452(18)
C15A C 0.59955(10) 0.30163(15) 0.35452(18)
C15K C 0.40045(10) 0.30163(15) 0.35452(18)
H8A H 0.5869 0.3374 0.3601
H8J H 0.5869 0.1626 0.3601
H8K H 0.4131 0.3374 0.3601
O2H O 0.75667(5) -0.18852(6) -0.14709(8)
O2J O 0.75667(5) 0.18852(6) 0.14709(8)
O2B O 0.24333(5) -0.18852(6) -0.14709(8)
O2G O 0.25667(5) 0.18852(6) 0.35291(8)
O2L O 0.25667(5) 0.31148(6) 0.35291(8)
O2F O 0.74333(5) 0.31148(6) 0.35291(8)
O2M O 0.74333(5) 0.18852(6) 0.35291(8)
Zn1C Zn 0.715791(9) -0.25000 -0.296040(17)
Zn1G Zn 0.215791(9) 0.25000 0.203960(17)
Zn1D Zn 0.784209(9) -0.25000 -0.203960(17)
Zn1A Zn 0.715791(9) 0.25000 0.296040(17)
Zn1F Zn 0.784209(9) 0.25000 0.203960(17)
Zn1B Zn 0.284209(9) -0.25000 -0.296040(17)
Zn1E Zn 0.215791(9) -0.25000 -0.203960(17)
loop_
_geom_bond_atom_site_label_1
_geom_bond_atom_site_label_2
_geom_bond_site_symmetry_1
_geom_bond_site_symmetry_2
O1 C2 1_555 1_555
C1 H1 1_555 1_555
C2 C4 1_555 1_555
C3 H2 1_555 1_555
C4 C1 1_555 1_555
N1 C5 1_555 1_555
C5 C3 1_555 1_555
C6 C3 1_555 1_555
H3 C6 1_555 1_555
C7 C1 1_555 1_555
H4 C7 1_555 1_555
N2 C11 1_555 1_555
C8 N1 1_555 1_555
C9 C13 1_555 1_555
C10 C14 1_555 1_555
C11 H5 1_555 1_555
C12 C8 1_555 1_555
H6 C12 1_555 1_555
C13 C12 1_555 1_555
H7 C13 1_555 1_555
C14 N3 1_555 1_555
N3 N3J 1_555 1_555
C15 C10 1_555 1_555
H8 C15 1_555 1_555
O2 C2 1_555 1_555
Zn1 O1 1_555 1_555
O1H C2H 1_555 1_555
O1J C2J 1_555 1_555
O1B C2B 1_555 1_555
O1K Zn1 1_555 1_555
O1A Zn1A 1_555 1_555
C1H H1H 1_555 1_555
C1J H1J 1_555 1_555
C1B H1B 1_555 1_555
C2H C4H 1_555 1_555
C2J C4J 1_555 1_555
C2B C4B 1_555 1_555
C3H H2H 1_555 1_555
C3J H2J 1_555 1_555
C3B H2B 1_555 1_555
C4H C1H 1_555 1_555
C4J C1J 1_555 1_555
C4B C1B 1_555 1_555
N1H C5H 1_555 1_555
C5H C3H 1_555 1_555
C5J C3J 1_555 1_555
C5B N1 1_555 1_555
C6H C3H 1_555 1_555
C6J C3J 1_555 1_555
C6B C3B 1_555 1_555
H3H C6H 1_555 1_555
H3J C6J 1_555 1_555
H3B C6B 1_555 1_555
C7H C1H 1_555 1_555
C7J C1J 1_555 1_555
C7B C1B 1_555 1_555
H4H C7H 1_555 1_555
H4J C7J 1_555 1_555
H4B C7B 1_555 1_555
N2A C11J 1_555 1_555
C8H N1H 1_555 1_555
C9H C9 1_555 1_555
C10A C14A 1_555 1_555
C11J H5J 1_555 1_555
C11A N2A 1_555 1_555
C11K N2 1_555 1_555
H5A C11A 1_555 1_555
H5K C11K 1_555 1_555
C12H C8H 1_555 1_555
C12J C8H 1_555 1_555
C12B C8 1_555 1_555
H6J C12J 1_555 1_555
H6H C12H 1_555 1_555
H6B C12B 1_555 1_555
C13H C9H 1_555 1_555
C13J C9H 1_555 1_555
C13B C9 1_555 1_555
H7J C13J 1_555 1_555
H7H C13H 1_555 1_555
H7B C13B 1_555 1_555
C14A N3J 1_555 1_555
N3A C14A 1_555 1_555
N3K C14 1_555 1_555
C15J C10A 1_555 1_555
C15A C10A 1_555 1_555
C15K C10 1_555 1_555
H8A C15A 1_555 1_555
H8J C15J 1_555 1_555
H8K C15K 1_555 1_555
O2H C2H 1_555 1_555
O2J C2J 1_555 1_555
O2B C2B 1_555 1_555
O2G Zn1 1_555 1_555
O2L Zn1 1_555 1_555
O2F Zn1A 1_555 1_555
O2M Zn1A 1_555 1_555
Zn1C O1H 1_555 1_555
Zn1G O2 1_555 1_555
Zn1D O2H 1_555 1_555
Zn1A O1J 1_555 1_555
Zn1F O2J 1_555 1_555
Zn1B O1B 1_555 1_555
Zn1E O2B 1_555 1_555
C4 C6 1_555 1_555
C5 C7 1_555 1_555
N2 Zn1 1_555 1_555
C11 C15 1_555 1_555
C3B C5B 1_555 1_555
C4H C6H 1_555 1_555
C4J C6J 1_555 1_555
C4B C6B 1_555 1_555
N1H C5J 1_555 1_555
C5H C7H 1_555 1_555
C5J C7J 1_555 1_555
C5B C7B 1_555 1_555
N2A Zn1A 1_555 1_555
C11J C15J 1_555 1_555
C11A C15A 1_555 1_555
C11K C15K 1_555 1_555
C12H C13H 1_555 1_555
C12J C13J 1_555 1_555
C12B C13B 1_555 1_555
N3A N3K 1_555 1_555

#END
