
#######################################################################
#
#                 Cambridge Crystallographic Data Centre
#                                CCDC 
#
#######################################################################
#
# If this CIF has been generated from an entry in the Cambridge 
# Structural Database, then it will include bibliographic, chemical, 
# crystal, experimental, refinement or atomic coordinate data resulting 
# from the CCDC's data processing and validation procedures.
#
#######################################################################

data_VAGMOH
_symmetry_cell_setting           orthorhombic
_symmetry_space_group_name_H-M   'P m n b'
_symmetry_Int_Tables_number      62
_space_group_name_Hall           '-P 2bc 2a'
loop_
_symmetry_equiv_pos_site_id
_symmetry_equiv_pos_as_xyz
1 x,y,z
2 1/2-x,1/2+y,1/2-z
3 1/2+x,-y,-z
4 -x,1/2-y,1/2+z
5 -x,-y,-z
6 1/2+x,1/2-y,1/2+z
7 1/2-x,y,z
8 x,1/2+y,1/2-z
_cell_length_a                   34.103(7)
_cell_length_b                   23.758(5)
_cell_length_c                   17.033(3)
_cell_angle_alpha                90
_cell_angle_beta                 90
_cell_angle_gamma                90
_cell_volume                     13800.5
loop_
_atom_site_label
_atom_site_type_symbol
_atom_site_fract_x
_atom_site_fract_y
_atom_site_fract_z
Zn1 Zn 0.53378(2) 0.50564(4) 0.94805(8)
O1 O 0.5436(3) 0.0483(3) 1.4647(7)
O2 O 0.49504(18) 0.0422(2) 1.3697(4)
N1 N 0.5883(2) 0.5120(6) 0.9042(5)
N2 N 0.6046(4) 0.2197(5) 1.1841(8)
C1 C 0.7278(3) 0.2211(8) 1.1849(7)
C2 C 0.5301(4) 0.0605(6) 1.3959(11)
C3 C 0.5329(3) 0.1177(6) 1.2719(14)
H1 H 0.5083 0.1022 1.2568
C4 C 0.5838(4) 0.1240(5) 1.3638(6)
H2 H 0.5966 0.1152 1.4118
C5 C 0.6467(4) 0.2189(7) 1.1915(8)
C6 C 0.6660(5) 0.1750(6) 1.1680(7)
H3 H 0.6521 0.1424 1.1515
C7 C 0.5327(2) 0.3347(6) 1.1566(9)
H4 H 0.5091 0.3477 1.1801
C8 C 0.6646(4) 0.2636(7) 1.2107(7)
H5 H 0.65 0.2951 1.2285
C9 C 0.6734(4) 0.5139(6) 0.8772(7)
C10 C 0.5467(4) 0.1002(7) 1.3396(13)
C11 C 0.5832(4) 0.2636(8) 1.1568(9)
C12 C 0.5843(5) 0.1836(7) 1.2383(11)
C13 C 0.5451(3) 0.3618(5) 1.0929(9)
C14 C 0.5493(4) 0.1555(6) 1.2199(7)
H6 H 0.5367 0.1626 1.1711
C15 C 0.7070(5) 0.2675(6) 1.2059(7)
H7 H 0.72 0.302 1.2174
C16 C 0.5510(4) 0.2899(6) 1.1915(6)
H8 H 0.5415 0.2764 1.2405
N3 N 0.7297(2) 0.4649(4) 0.8474(5)
C17 C 0.7130(3) 0.5156(5) 0.8619(7)
C18 C 0.7068(6) 0.1748(6) 1.1667(7)
H9 H 0.7202 0.1412 1.1527
N4 N 0.7298(2) 0.5615(4) 0.8607(6)
C19 C 0.6129(6) 0.5574(5) 0.9066(6)
H10 H 0.601 0.5924 0.9195
C20 C 0.5993(3) 0.1637(6) 1.3052(15)
H11 H 0.6247 0.1779 1.3172
C21 C 0.6481(5) 0.5589(5) 0.8942(7)
H12 H 0.6599 0.5951 0.8964
C22 C 0.6103(6) 0.4644(6) 0.8828(7)
H13 H 0.5962 0.43 0.8805
C23 C 0.6486(5) 0.4610(6) 0.8653(7)
H14 H 0.6598 0.427 0.8462
C24 C 0.5779(3) 0.3376(5) 1.0558(6)
H15 H 0.5878 0.3532 1.0085
C25 C 0.5961(3) 0.2892(5) 1.0902(10)
H16 H 0.6185 0.274 1.0649
O3 O 0.54136(15) 0.4348(3) 1.0099(4)
O4 O 0.49406(16) 0.4264(2) 1.0994(4)
C26 C 0.5275(3) 0.4119(6) 1.0633(7)
Zn1F Zn 0.96622(2) 0.50564(4) 0.94805(8)
Zn1E Zn 1.03378(2) -0.00564(4) 1.44805(8)
Zn1G Zn 0.53378(2) 0.00564(4) 1.55195(8)
Zn1D Zn 0.46622(2) 0.49436(4) 1.05195(8)
Zn1A Zn 0.96622(2) 0.00564(4) 1.55195(8)
Zn1B Zn 1.03378(2) 0.49436(4) 1.05195(8)
Zn1C Zn 0.46622(2) -0.00564(4) 1.44805(8)
O1F O 0.9564(3) 0.0483(3) 1.4647(7)
O1G O 0.5436(3) 0.5483(3) 1.0353(7)
O1A O 0.9564(3) 0.5483(3) 1.0353(7)
O2F O 1.00496(18) 0.0422(2) 1.3697(4)
O2E O 0.99504(18) 0.4578(2) 0.8697(4)
O2C O 0.50496(18) 0.4578(2) 0.8697(4)
N1F N 0.9117(2) 0.5120(6) 0.9042(5)
N2F N 0.8954(4) 0.2197(5) 1.1841(8)
C1F C 0.7722(3) 0.2211(8) 1.1849(7)
C2F C 0.9699(4) 0.0605(6) 1.3959(11)
C3F C 0.9671(3) 0.1177(6) 1.2719(14)
H1F H 0.9917 0.1022 1.2568
C4F C 0.9162(4) 0.1240(5) 1.3638(6)
H2F H 0.9034 0.1152 1.4118
C5F C 0.8533(4) 0.2189(7) 1.1915(8)
C6F C 0.8340(5) 0.1750(6) 1.1680(7)
H3F H 0.8479 0.1424 1.1515
C7F C 0.9673(2) 0.3347(6) 1.1566(9)
H4F H 0.9909 0.3477 1.1801
C8F C 0.8354(4) 0.2636(7) 1.2107(7)
H5F H 0.85 0.2951 1.2285
C9F C 0.8266(4) 0.5139(6) 0.8772(7)
C10F C 0.9533(4) 0.1002(7) 1.3396(13)
C11F C 0.9168(4) 0.2636(8) 1.1568(9)
C12F C 0.9157(5) 0.1836(7) 1.2383(11)
C13F C 0.9549(3) 0.3618(5) 1.0929(9)
C14F C 0.9507(4) 0.1555(6) 1.2199(7)
H6F H 0.9633 0.1626 1.1711
C15F C 0.7930(5) 0.2675(6) 1.2059(7)
H7F H 0.78 0.302 1.2174
C16F C 0.9490(4) 0.2899(6) 1.1915(6)
H8F H 0.9585 0.2764 1.2405
N3F N 0.7703(2) 0.4649(4) 0.8474(5)
C17F C 0.7870(3) 0.5156(5) 0.8619(7)
C18F C 0.7932(6) 0.1748(6) 1.1667(7)
H9F H 0.7798 0.1412 1.1527
N4F N 0.7702(2) 0.5615(4) 0.8607(6)
C19F C 0.8871(6) 0.5574(5) 0.9066(6)
H10F H 0.899 0.5924 0.9195
C20F C 0.9007(3) 0.1637(6) 1.3052(15)
H11F H 0.8753 0.1779 1.3172
C21F C 0.8519(5) 0.5589(5) 0.8942(7)
H12F H 0.8401 0.5951 0.8964
C22F C 0.8897(6) 0.4644(6) 0.8828(7)
H13F H 0.9038 0.43 0.8805
C23F C 0.8514(5) 0.4610(6) 0.8653(7)
H14F H 0.8402 0.427 0.8462
C24F C 0.9221(3) 0.3376(5) 1.0558(6)
H15F H 0.9122 0.3532 1.0085
C25F C 0.9039(3) 0.2892(5) 1.0902(10)
H16F H 0.8815 0.274 1.0649
O3F O 0.95864(15) 0.4348(3) 1.0099(4)
O4F O 1.00594(16) 0.4264(2) 1.0994(4)
O4D O 0.50594(16) 0.5736(2) 0.9006(4)
O4B O 0.99406(16) 0.5736(2) 0.9006(4)
C26F C 0.9725(3) 0.4119(6) 1.0633(7)
loop_
_geom_bond_atom_site_label_1
_geom_bond_atom_site_label_2
_geom_bond_site_symmetry_1
_geom_bond_site_symmetry_2
Zn1 N1 1_555 1_555
O1 C2 1_555 1_555
O2 C2 1_555 1_555
N1 C19 1_555 1_555
N2 C5 1_555 1_555
C1 C15 1_555 1_555
C2 C10 1_555 1_555
C3 H1 1_555 1_555
C4 H2 1_555 1_555
C5 C6 1_555 1_555
C6 H3 1_555 1_555
C7 H4 1_555 1_555
C8 C5 1_555 1_555
H5 C8 1_555 1_555
C9 C17 1_555 1_555
C10 C3 1_555 1_555
C11 N2 1_555 1_555
C12 N2 1_555 1_555
C13 C7 1_555 1_555
C14 C3 1_555 1_555
H6 C14 1_555 1_555
C15 C8 1_555 1_555
H7 C15 1_555 1_555
C16 C7 1_555 1_555
H8 C16 1_555 1_555
N3 C17 1_555 1_555
C17 N4 1_555 1_555
C18 C1 1_555 1_555
H9 C18 1_555 1_555
N4 N4F 1_555 1_555
C19 H10 1_555 1_555
C20 C4 1_555 1_555
H11 C20 1_555 1_555
C21 C9 1_555 1_555
H12 C21 1_555 1_555
C22 N1 1_555 1_555
H13 C22 1_555 1_555
C23 C9 1_555 1_555
H14 C23 1_555 1_555
C24 C13 1_555 1_555
H15 C24 1_555 1_555
C25 C11 1_555 1_555
H16 C25 1_555 1_555
O3 Zn1 1_555 1_555
O4 C26 1_555 1_555
C26 C13 1_555 1_555
Zn1F O1A 1_555 1_555
Zn1E O2F 1_555 1_555
Zn1G O1 1_555 1_555
Zn1D O4 1_555 1_555
Zn1A O1F 1_555 1_555
Zn1B O4F 1_555 1_555
Zn1C O2 1_555 1_555
O1F C2F 1_555 1_555
O1G Zn1 1_555 1_555
O2F C2F 1_555 1_555
O2E Zn1F 1_555 1_555
O2C Zn1 1_555 1_555
N1F Zn1F 1_555 1_555
N2F C5F 1_555 1_555
C1F C1 1_555 1_555
C2F C10F 1_555 1_555
C3F H1F 1_555 1_555
C4F H2F 1_555 1_555
C5F C6F 1_555 1_555
C6F H3F 1_555 1_555
C7F H4F 1_555 1_555
C8F C5F 1_555 1_555
H5F C8F 1_555 1_555
C9F C17F 1_555 1_555
C10F C3F 1_555 1_555
C11F N2F 1_555 1_555
C12F N2F 1_555 1_555
C13F C7F 1_555 1_555
C14F C3F 1_555 1_555
H6F C14F 1_555 1_555
C15F C1F 1_555 1_555
H7F C15F 1_555 1_555
C16F C7F 1_555 1_555
H8F C16F 1_555 1_555
N3F N3 1_555 1_555
C17F N3F 1_555 1_555
C18F C1F 1_555 1_555
H9F C18F 1_555 1_555
N4F C17F 1_555 1_555
C19F N1F 1_555 1_555
H10F C19F 1_555 1_555
C20F C4F 1_555 1_555
H11F C20F 1_555 1_555
C21F C9F 1_555 1_555
H12F C21F 1_555 1_555
C22F N1F 1_555 1_555
H13F C22F 1_555 1_555
C23F C9F 1_555 1_555
H14F C23F 1_555 1_555
C24F C13F 1_555 1_555
H15F C24F 1_555 1_555
C25F C11F 1_555 1_555
H16F C25F 1_555 1_555
O3F Zn1F 1_555 1_555
O4F C26F 1_555 1_555
O4D Zn1 1_555 1_555
O4B Zn1F 1_555 1_555
C26F C13F 1_555 1_555
C4 C10 1_555 1_555
C6 C18 1_555 1_555
C11 C16 1_555 1_555
C12 C14 1_555 1_555
C12 C20 1_555 1_555
C19 C21 1_555 1_555
C22 C23 1_555 1_555
C24 C25 1_555 1_555
O3 C26 1_555 1_555
C4F C10F 1_555 1_555
C6F C18F 1_555 1_555
C8F C15F 1_555 1_555
C11F C16F 1_555 1_555
C12F C14F 1_555 1_555
C12F C20F 1_555 1_555
C19F C21F 1_555 1_555
C22F C23F 1_555 1_555
C24F C25F 1_555 1_555
O3F C26F 1_555 1_555

#END
