
#######################################################################
#
#                 Cambridge Crystallographic Data Centre
#                                CCDC 
#
#######################################################################
#
# If this CIF has been generated from an entry in the Cambridge 
# Structural Database, then it will include bibliographic, chemical, 
# crystal, experimental, refinement or atomic coordinate data resulting 
# from the CCDC's data processing and validation procedures.
#
#######################################################################

data_VAGTAA02
_symmetry_cell_setting           monoclinic
_symmetry_space_group_name_H-M   'C 2/c'
_symmetry_Int_Tables_number      15
_space_group_name_Hall           '-C 2yn'
loop_
_symmetry_equiv_pos_site_id
_symmetry_equiv_pos_as_xyz
1 x,y,z
2 -x,y,1/2-z
3 1/2+x,1/2+y,z
4 1/2-x,1/2+y,1/2-z
5 -x,-y,-z
6 x,-y,1/2+z
7 1/2-x,1/2-y,-z
8 1/2+x,1/2-y,1/2+z
_cell_length_a                   16.703(11)
_cell_length_b                   11.725(8)
_cell_length_c                   9.533(6)
_cell_angle_alpha                90
_cell_angle_beta                 114.850(13)
_cell_angle_gamma                90
_cell_volume                     1694.11
loop_
_atom_site_label
_atom_site_type_symbol
_atom_site_fract_x
_atom_site_fract_y
_atom_site_fract_z
C1 C -0.0798(2) 0.2096(3) -0.1998(4)
H1 H -0.1003 0.1631 -0.2869
C2 C -0.1663(5) 0.3612(5) -0.3668(6)
H2 H -0.1692 0.3096 -0.4470
H3 H -0.1455 0.4341 -0.3831
H4 H -0.2239 0.3695 -0.3687
C3 C -0.0820(5) 0.3896(4) -0.0858(7)
H5 H -0.1241 0.3814 -0.0423
H6 H -0.0814 0.4673 -0.1171
H7 H -0.0244 0.3692 -0.0099
C4 C 0.11996(17) 0.0759(2) 0.3445(3)
C5 C 0.23819(19) 0.1601(2) 0.5827(3)
H8 H 0.2296 0.0998 0.6382
C6 C 0.18706(18) 0.1667(2) 0.4232(3)
C7 C 0.19914(19) 0.2589(3) 0.3413(3)
Mg1 Mg 0.0000 0.0000 0.0000
N1 N -0.1059(2) 0.3161(2) -0.2176(4)
O1 O 0.08939(15) 0.0738(2) 0.1982(2)
O2 O 0.09976(14) 0.00756(17) 0.4238(3)
O3 O -0.03049(16) 0.16724(18) -0.0771(3)
O4 O 0.1510(2) 0.2766(3) 0.1877(3)
H9 H 0.1237 0.2184 0.1479
C4F C 0.38004(17) 0.4241(2) 0.6555(3)
C5F C 0.26181(19) 0.3399(2) 0.4173(3)
H8F H 0.2704 0.4002 0.3618
C6F C 0.31294(18) 0.3333(2) 0.5768(3)
C7F C 0.30086(19) 0.2411(3) 0.6587(3)
O1F O 0.41061(15) 0.4262(2) 0.8018(2)
O4F O 0.3490(2) 0.2234(3) 0.8123(3)
H9F H 0.3763 0.2816 0.8521
O2F O 0.40024(14) 0.49244(17) 0.5762(3)
C1D C 0.0798(2) -0.2096(3) 0.1998(4)
H1D H 0.1003 -0.1631 0.2869
C2D C 0.1663(5) -0.3612(5) 0.3668(6)
H2D H 0.1692 -0.3096 0.4470
H3D H 0.1455 -0.4341 0.3831
H4D H 0.2239 -0.3695 0.3687
C3D C 0.0820(5) -0.3896(4) 0.0858(7)
H5D H 0.1241 -0.3814 0.0423
H6D H 0.0814 -0.4673 0.1171
H7D H 0.0244 -0.3692 0.0099
N1D N 0.1059(2) -0.3161(2) 0.2176(4)
O3D O 0.03049(16) -0.16724(18) 0.0771(3)
Mg1A Mg 0.0000 0.0000 0.5000
Mg1B Mg 0.5000 0.5000 1.0000
Mg1C Mg 0.5000 0.5000 0.5000
O1D O -0.08939(15) -0.0738(2) -0.1982(2)
O2A O -0.09976(14) 0.00756(17) 0.0762(3)
O2E O 0.09976(14) -0.00756(17) -0.0762(3)
loop_
_geom_bond_atom_site_label_1
_geom_bond_atom_site_label_2
_geom_bond_site_symmetry_1
_geom_bond_site_symmetry_2
C1 H1 1_555 1_555
C2 H2 1_555 1_555
H3 C2 1_555 1_555
H4 C2 1_555 1_555
C3 H5 1_555 1_555
H6 C3 1_555 1_555
H7 C3 1_555 1_555
C4 C6 1_555 1_555
C5 H8 1_555 1_555
C6 C5 1_555 1_555
C7 C6 1_555 1_555
Mg1 O1 1_555 1_555
N1 C1 1_555 1_555
O1 C4 1_555 1_555
O2 C4 1_555 1_555
O3 C1 1_555 1_555
O4 C7 1_555 1_555
H9 O4 1_555 1_555
C4F C6F 1_555 1_555
C5F C7 1_555 1_555
H8F C5F 1_555 1_555
C6F C5F 1_555 1_555
C7F C5 1_555 1_555
O1F C4F 1_555 1_555
O4F C7F 1_555 1_555
H9F O4F 1_555 1_555
O2F C4F 1_555 1_555
C1D H1D 1_555 1_555
C2D H2D 1_555 1_555
H3D C2D 1_555 1_555
H4D C2D 1_555 1_555
C3D H5D 1_555 1_555
H6D C3D 1_555 1_555
H7D C3D 1_555 1_555
N1D C1D 1_555 1_555
O3D Mg1 1_555 1_555
Mg1A O2 1_555 1_555
Mg1B O1F 1_555 1_555
Mg1C O2F 1_555 1_555
O1D Mg1 1_555 1_555
O2A Mg1 1_555 1_555
O2E Mg1 1_555 1_555
C2 N1 1_555 1_555
C3 N1 1_555 1_555
Mg1 O3 1_555 1_555
C6F C7F 1_555 1_555
C1D O3D 1_555 1_555
C2D N1D 1_555 1_555
C3D N1D 1_555 1_555

#END
