
#######################################################################
#
#                 Cambridge Crystallographic Data Centre
#                                CCDC 
#
#######################################################################
#
# If this CIF has been generated from an entry in the Cambridge 
# Structural Database, then it will include bibliographic, chemical, 
# crystal, experimental, refinement or atomic coordinate data resulting 
# from the CCDC's data processing and validation procedures.
#
#######################################################################

data_VAGXIM
_symmetry_cell_setting           monoclinic
_symmetry_space_group_name_H-M   'C 2/c'
_symmetry_Int_Tables_number      15
_space_group_name_Hall           '-C 2yn'
loop_
_symmetry_equiv_pos_site_id
_symmetry_equiv_pos_as_xyz
1 x,y,z
2 -x,y,1/2-z
3 1/2+x,1/2+y,z
4 1/2-x,1/2+y,1/2-z
5 -x,-y,-z
6 x,-y,1/2+z
7 1/2-x,1/2-y,-z
8 1/2+x,1/2-y,1/2+z
_cell_length_a                   13.197(6)
_cell_length_b                   9.590(4)
_cell_length_c                   14.161(6)
_cell_angle_alpha                90
_cell_angle_beta                 98.895(7)
_cell_angle_gamma                90
_cell_volume                     1770.65
loop_
_atom_site_label
_atom_site_type_symbol
_atom_site_fract_x
_atom_site_fract_y
_atom_site_fract_z
Cd1 Cd 0.86869(4) 0.08199(5) 0.66979(4)
N1 N 0.8597(4) 0.2194(5) 0.5271(4)
C1 C 1.0769(5) 0.2277(7) 0.6610(5)
O1 O 1.1328(4) 0.2876(5) 0.7314(4)
O2 O 1.0483(4) 0.1022(5) 0.6696(4)
C2 C 1.0437(5) 0.3071(8) 0.5725(5)
H1 H 1.1032 0.3265 0.5422
H2 H 1.0157 0.3957 0.5891
N2 N 0.8544(5) -0.2116(8) 0.6432(6)
O3 O 0.8375(6) -0.1189(6) 0.5749(5)
C3 C 0.9634(5) 0.2327(7) 0.5005(5)
H3 H 0.9574 0.2823 0.4402
H4 H 0.9886 0.1398 0.4900
O4 O 0.8799(5) -0.1656(8) 0.7236(5)
C4 C 0.8160(5) 0.3609(6) 0.5389(5)
H5 H 0.8203 0.4166 0.4825
H6 H 0.8556 0.4071 0.5934
O5 O 0.8417(7) -0.3298(7) 0.6251(6)
C5 C 0.7936(5) 0.1506(7) 0.4464(5)
H7 H 0.8201 0.0578 0.4378
H8 H 0.7968 0.2030 0.3883
O6 O 0.7051(4) 0.0477(5) 0.7029(4)
H9 H 0.6979 0.0931 0.7539
H10 H 0.6959 -0.0398 0.7116
Cd1A Cd 1.13131(4) 0.08199(5) 0.83021(4)
Cd1F Cd 0.63131(4) 0.41801(5) 0.33021(4)
Cd1G Cd 0.36869(4) 0.41801(5) 0.16979(4)
N1F N 0.6403(4) 0.2806(5) 0.4729(4)
N1A N 1.1403(4) 0.2194(5) 0.9729(4)
C1F C 0.4231(5) 0.2723(7) 0.3390(5)
O1F O 0.3672(4) 0.2124(5) 0.2686(4)
O1A O 0.8672(4) 0.2876(5) 0.7686(4)
O2F O 0.4517(4) 0.3978(5) 0.3304(4)
O2A O 0.9517(4) 0.1022(5) 0.8304(4)
C2F C 0.4563(5) 0.1929(8) 0.4275(5)
H1F H 0.3968 0.1735 0.4578
H2F H 0.4843 0.1043 0.4109
N2A N 1.1456(5) -0.2116(8) 0.8568(6)
O3A O 1.1625(6) -0.1189(6) 0.9251(5)
C3F C 0.5366(5) 0.2673(7) 0.4995(5)
H3F H 0.5426 0.2177 0.5598
H4F H 0.5114 0.3602 0.5100
O4A O 1.1201(5) -0.1656(8) 0.7764(5)
C4F C 0.6840(5) 0.1391(6) 0.4611(5)
H5F H 0.6797 0.0834 0.5175
H6F H 0.6444 0.0929 0.4066
O5A O 1.1583(7) -0.3298(7) 0.8749(6)
C5F C 0.7064(5) 0.3494(7) 0.5536(5)
H7F H 0.6799 0.4422 0.5622
H8F H 0.7032 0.2970 0.6117
O6A O 1.2949(4) 0.0477(5) 0.7971(4)
H9A H 1.3021 0.0931 0.7461
H10A H 1.3041 -0.0398 0.7884
loop_
_geom_bond_atom_site_label_1
_geom_bond_atom_site_label_2
_geom_bond_site_symmetry_1
_geom_bond_site_symmetry_2
Cd1 N1 1_555 1_555
N1 C3 1_555 1_555
C1 O1 1_555 1_555
O1 Cd1A 1_555 1_555
O2 Cd1 1_555 1_555
C2 C1 1_555 1_555
H1 C2 1_555 1_555
H2 C2 1_555 1_555
N2 O3 1_555 1_555
O3 Cd1 1_555 1_555
C3 C2 1_555 1_555
H3 C3 1_555 1_555
H4 C3 1_555 1_555
O4 Cd1 1_555 1_555
C4 N1 1_555 1_555
H5 C4 1_555 1_555
H6 C4 1_555 1_555
O5 N2 1_555 1_555
C5 N1 1_555 1_555
H7 C5 1_555 1_555
H8 C5 1_555 1_555
O6 Cd1 1_555 1_555
H9 O6 1_555 1_555
H10 O6 1_555 1_555
Cd1A O2 1_555 1_555
Cd1F N1F 1_555 1_555
Cd1G O1F 1_555 1_555
N1F C3F 1_555 1_555
N1A Cd1A 1_555 1_555
C1F O1F 1_555 1_555
O1A Cd1 1_555 1_555
O2F Cd1F 1_555 1_555
O2A Cd1 1_555 1_555
C2F C1F 1_555 1_555
H1F C2F 1_555 1_555
H2F C2F 1_555 1_555
N2A O3A 1_555 1_555
O3A Cd1A 1_555 1_555
C3F C2F 1_555 1_555
H3F C3F 1_555 1_555
H4F C3F 1_555 1_555
O4A Cd1A 1_555 1_555
C4F C5 1_555 1_555
H5F C4F 1_555 1_555
H6F C4F 1_555 1_555
O5A N2A 1_555 1_555
C5F C4 1_555 1_555
H7F C5F 1_555 1_555
H8F C5F 1_555 1_555
O6A Cd1A 1_555 1_555
H9A O6A 1_555 1_555
H10A O6A 1_555 1_555
C1 O2 1_555 1_555
N2 O4 1_555 1_555
Cd1A O2A 1_555 1_555
Cd1G O2F 1_555 1_555
N1F C4F 1_555 1_555
N1F C5F 1_555 1_555
C1F O2F 1_555 1_555
N2A O4A 1_555 1_555

#END
