
#######################################################################
#
#                 Cambridge Crystallographic Data Centre
#                                CCDC 
#
#######################################################################
#
# If this CIF has been generated from an entry in the Cambridge 
# Structural Database, then it will include bibliographic, chemical, 
# crystal, experimental, refinement or atomic coordinate data resulting 
# from the CCDC's data processing and validation procedures.
#
#######################################################################

data_VAGYEJ
_symmetry_cell_setting           monoclinic
_symmetry_space_group_name_H-M   'P 21/c'
_symmetry_Int_Tables_number      14
_space_group_name_Hall           '-P 2ybc'
loop_
_symmetry_equiv_pos_site_id
_symmetry_equiv_pos_as_xyz
1 x,y,z
2 -x,1/2+y,1/2-z
3 -x,-y,-z
4 x,1/2-y,1/2+z
_cell_length_a                   10.1139(14)
_cell_length_b                   26.898(4)
_cell_length_c                   10.2105(14)
_cell_angle_alpha                90
_cell_angle_beta                 109.651(2)
_cell_angle_gamma                90
_cell_volume                     2615.92
loop_
_atom_site_label
_atom_site_type_symbol
_atom_site_fract_x
_atom_site_fract_y
_atom_site_fract_z
Cu1 Cu 0.17573(5) 0.01212(2) 0.53906(5)
O1 O 0.1651(3) 0.06531(13) 0.6619(3)
O2 O 0.3865(4) 0.06276(15) 0.8027(4)
O3 O -0.0568(3) 0.03034(12) 1.3887(3)
O4 O -0.2579(4) 0.05176(14) 1.2328(4)
N1 N 0.3008(4) 0.04846(14) 0.4545(4)
N2 N 0.2080(4) -0.04256(14) 0.4188(4)
C1 C 0.3449(5) 0.09530(19) 0.4801(5)
H5 H 0.3109 0.1145 0.5376
C2 C 0.4385(6) 0.11653(19) 0.4251(6)
H6 H 0.4661 0.1495 0.4440
C3 C 0.4903(5) 0.08810(19) 0.3418(5)
H7 H 0.5546 0.1015 0.3044
C4 C 0.4465(5) 0.03979(19) 0.3140(5)
H8 H 0.4815 0.0200 0.2585
C5 C 0.3494(4) 0.02087(16) 0.3696(4)
C6 C 0.2916(4) -0.02989(16) 0.3443(4)
C7 C 0.3172(5) -0.06232(19) 0.2514(5)
H9 H 0.3740 -0.0527 0.2007
C8 C 0.2580(6) -0.10929(19) 0.2339(6)
H10 H 0.2735 -0.1316 0.1710
C9 C 0.1754(5) -0.12224(18) 0.3117(5)
H11 H 0.1354 -0.1537 0.3033
C10 C 0.1528(5) -0.08811(17) 0.4020(5)
H12 H 0.0965 -0.0972 0.4537
C11 C 0.2630(5) 0.07561(18) 0.7752(5)
C12 C 0.2161(5) 0.10430(18) 0.8799(5)
H13 H 0.1531 0.1308 0.8329
H14 H 0.2972 0.1192 0.9491
C13 C 0.1420(5) 0.07002(18) 0.9509(5)
H15 H 0.2061 0.0439 0.9986
H16 H 0.0628 0.0545 0.8808
C14 C 0.0896(5) 0.09698(18) 1.0551(5)
H17 H 0.0315 0.1248 1.0092
H18 H 0.1694 0.1101 1.1294
C15 C 0.0051(5) 0.06336(17) 1.1175(5)
H19 H 0.0634 0.0356 1.1639
H20 H -0.0745 0.0501 1.0432
C16 C -0.0480(5) 0.09059(17) 1.2216(5)
H21 H 0.0312 0.1043 1.2955
H22 H -0.1081 0.1179 1.1752
C17 C -0.1288(5) 0.05616(17) 1.2831(5)
Cu1_2 Cu 0.17573(5) 0.01212(2) 1.53906(5)
Cu1B Cu -0.17573(5) -0.01212(2) 1.46094(5)
O3_2 O -0.0568(3) 0.03034(12) 0.3887(3)
O3B O 0.0568(3) -0.03034(12) 0.6113(3)
O5 O 0.4700(8) 0.6928(2) 0.4286(8)
H1 H 0.4303 0.6683 0.4458
O6 O 0.3188(8) 0.6836(2) 0.2246(7)
O7 O 1.0946(9) 0.7207(2) 0.5930(8)
O8 O 1.1011(8) 0.7935(2) 0.5087(8)
H2 H 1.1712 0.8012 0.5793
C18 C 1.0525(11) 0.7496(4) 0.4964(13)
C19 C 0.9263(10) 0.7417(4) 0.3637(12)
H23 H 0.9480 0.7539 0.2838
H24 H 0.9047 0.7066 0.3504
C20 C 0.8057(8) 0.7687(4) 0.3767(12)
H25 H 0.8189 0.8039 0.3650
H26 H 0.8031 0.7638 0.4700
C21 C 0.6708(8) 0.7536(3) 0.2768(11)
H27 H 0.6591 0.7180 0.2832
H28 H 0.6688 0.7611 0.1833
C22 C 0.5520(8) 0.7803(3) 0.3049(12)
H29 H 0.5785 0.7846 0.4048
H30 H 0.5453 0.8132 0.2646
C23 C 0.4233(9) 0.7604(3) 0.2602(12)
H31 H 0.3908 0.7610 0.1594
H32 H 0.3622 0.7823 0.2893
C24 C 0.4015(12) 0.7085(3) 0.3041(13)
O9 O 0.5883(4) 0.10642(16) 0.0158(4)
H3 H 0.5205 0.0912 -0.0390
H4 H 0.6290 0.0888 0.0844
loop_
_geom_bond_atom_site_label_1
_geom_bond_atom_site_label_2
_geom_bond_site_symmetry_1
_geom_bond_site_symmetry_2
Cu1 O1 1_555 1_555
O1 C11 1_555 1_555
O2 C11 1_555 1_555
O3 C17 1_555 1_555
O4 C17 1_555 1_555
O5 H1 1_555 1_555
O6 C24 1_555 1_555
O7 C18 1_555 1_555
O8 H2 1_555 1_555
O9 H3 1_555 1_555
H4 O9 1_555 1_555
N1 Cu1 1_555 1_555
N2 Cu1 1_555 1_555
C1 N1 1_555 1_555
H5 C1 1_555 1_555
C2 C1 1_555 1_555
H6 C2 1_555 1_555
C3 C2 1_555 1_555
H7 C3 1_555 1_555
C4 C3 1_555 1_555
H8 C4 1_555 1_555
C5 N1 1_555 1_555
C6 N2 1_555 1_555
C7 C6 1_555 1_555
H9 C7 1_555 1_555
C8 C7 1_555 1_555
H10 C8 1_555 1_555
C9 C8 1_555 1_555
H11 C9 1_555 1_555
C10 N2 1_555 1_555
H12 C10 1_555 1_555
C11 C12 1_555 1_555
C12 H13 1_555 1_555
H14 C12 1_555 1_555
C13 C12 1_555 1_555
H15 C13 1_555 1_555
H16 C13 1_555 1_555
C14 C13 1_555 1_555
H17 C14 1_555 1_555
H18 C14 1_555 1_555
C15 C14 1_555 1_555
H19 C15 1_555 1_555
H20 C15 1_555 1_555
C16 C15 1_555 1_555
H21 C16 1_555 1_555
H22 C16 1_555 1_555
C17 C16 1_555 1_555
C18 O8 1_555 1_555
C19 C18 1_555 1_555
H23 C19 1_555 1_555
H24 C19 1_555 1_555
C20 C19 1_555 1_555
H25 C20 1_555 1_555
H26 C20 1_555 1_555
C21 C20 1_555 1_555
H27 C21 1_555 1_555
H28 C21 1_555 1_555
C22 C21 1_555 1_555
H29 C22 1_555 1_555
H30 C22 1_555 1_555
C23 C22 1_555 1_555
H31 C23 1_555 1_555
H32 C23 1_555 1_555
C24 O5 1_555 1_555
Cu1_2 O3 1_555 1_555
Cu1B O3 1_555 1_555
O3_2 Cu1 1_555 1_555
O3B Cu1 1_555 1_555
C4 C5 1_555 1_555
C5 C6 1_555 1_555
C9 C10 1_555 1_555
C23 C24 1_555 1_555

#END
