
#######################################################################
#
#                 Cambridge Crystallographic Data Centre
#                                CCDC 
#
#######################################################################
#
# If this CIF has been generated from an entry in the Cambridge 
# Structural Database, then it will include bibliographic, chemical, 
# crystal, experimental, refinement or atomic coordinate data resulting 
# from the CCDC's data processing and validation procedures.
#
#######################################################################

data_VAHFOB
_symmetry_cell_setting           monoclinic
_symmetry_space_group_name_H-M   'P 21/c'
_symmetry_Int_Tables_number      14
_space_group_name_Hall           '-P 2ybc'
loop_
_symmetry_equiv_pos_site_id
_symmetry_equiv_pos_as_xyz
1 x,y,z
2 -x,1/2+y,1/2-z
3 -x,-y,-z
4 x,1/2-y,1/2+z
_cell_length_a                   13.126(3)
_cell_length_b                   17.340(4)
_cell_length_c                   8.1515(16)
_cell_angle_alpha                90
_cell_angle_beta                 95.77(3)
_cell_angle_gamma                90
_cell_volume                     1845.92
loop_
_atom_site_label
_atom_site_type_symbol
_atom_site_fract_x
_atom_site_fract_y
_atom_site_fract_z
Cu1 Cu 0.74460(5) 0.60778(3) 0.46311(9)
Cu2 Cu 0.75214(6) 0.88720(4) 0.46493(11)
Cu3 Cu 0.75257(5) 1.16716(4) 0.51877(8)
N1 N 0.6247(3) 0.4617(2) 0.4126(5)
N2 N 0.6331(3) 0.5382(2) 0.3742(5)
N3 N 0.8754(3) 0.4768(2) 0.6001(5)
N4 N 0.8634(3) 0.5554(2) 0.5865(6)
N5 N 0.7437(4) 0.7821(3) 0.4470(7)
N6 N 0.7543(3) 1.0584(3) 0.5012(6)
N7 N 0.7531(4) 1.2296(3) 0.7148(7)
C1 C 0.5438(4) 0.4288(3) 0.3274(7)
C2 C 0.4972(4) 0.4857(3) 0.2267(7)
H1 H 0.4387 0.4805 0.1509
C3 C 0.5548(4) 0.5520(3) 0.2612(6)
C4 C 0.5139(4) 0.3460(3) 0.3446(8)
H2 H 0.5671 0.3130 0.3087
H3 H 0.4501 0.3363 0.2771
H4 H 0.5052 0.3351 0.4591
C5 C 0.5361(5) 0.6308(3) 0.1868(8)
H5 H 0.5595 0.6698 0.2672
H6 H 0.4635 0.6375 0.1549
H7 H 0.5734 0.6358 0.0904
C6 C 0.6974(4) 0.4266(3) 0.5405(7)
H8 H 0.6761 0.3734 0.5590
H9 H 0.6945 0.4550 0.6439
C7 C 0.8069(4) 0.4262(3) 0.4966(7)
H10 H 0.8334 0.3734 0.5063
H11 H 0.8074 0.4422 0.3814
C8 C 0.9540(4) 0.4578(3) 0.7092(7)
C9 C 0.9965(4) 0.5255(3) 0.7719(7)
H12 H 1.0530 0.5309 0.8516
C10 C 0.9384(4) 0.5846(3) 0.6925(7)
C11 C 0.9858(5) 0.3771(3) 0.7523(9)
H13 H 0.9298 0.3502 0.7966
H14 H 1.0448 0.3779 0.8342
H15 H 1.0036 0.3507 0.6542
C12 C 0.9547(5) 0.6701(3) 0.7119(9)
H16 H 0.9828 0.6904 0.6151
H17 H 1.0020 0.6800 0.8088
H18 H 0.8898 0.6951 0.7243
C13 C 0.7431(5) 0.7163(3) 0.4458(8)
C14 C 0.7551(4) 0.9909(3) 0.4884(7)
C15 C 0.7524(4) 1.2716(3) 0.8243(6)
Cu3C Cu 0.75257(5) 1.33284(4) 1.01877(8)
C15C C 0.7524(4) 1.2284(3) 0.3243(6)
loop_
_geom_bond_atom_site_label_1
_geom_bond_atom_site_label_2
_geom_bond_site_symmetry_1
_geom_bond_site_symmetry_2
Cu1 N2 1_555 1_555
Cu2 N5 1_555 1_555
Cu3 N6 1_555 1_555
N1 N2 1_555 1_555
N2 C3 1_555 1_555
N3 N4 1_555 1_555
N4 Cu1 1_555 1_555
N5 C13 1_555 1_555
N6 C14 1_555 1_555
N7 Cu3 1_555 1_555
C1 N1 1_555 1_555
C2 C1 1_555 1_555
H1 C2 1_555 1_555
C3 C2 1_555 1_555
C4 C1 1_555 1_555
H2 C4 1_555 1_555
H3 C4 1_555 1_555
H4 C4 1_555 1_555
C5 C3 1_555 1_555
H5 C5 1_555 1_555
H6 C5 1_555 1_555
H7 C5 1_555 1_555
C6 N1 1_555 1_555
H8 C6 1_555 1_555
H9 C6 1_555 1_555
C7 N3 1_555 1_555
H10 C7 1_555 1_555
H11 C7 1_555 1_555
C8 N3 1_555 1_555
C9 C8 1_555 1_555
H12 C9 1_555 1_555
C10 N4 1_555 1_555
C11 C8 1_555 1_555
H13 C11 1_555 1_555
H14 C11 1_555 1_555
H15 C11 1_555 1_555
C12 C10 1_555 1_555
H16 C12 1_555 1_555
H17 C12 1_555 1_555
H18 C12 1_555 1_555
C13 Cu1 1_555 1_555
C14 Cu2 1_555 1_555
C15 N7 1_555 1_555
Cu3C C15 1_555 1_555
C15C Cu3 1_555 1_555
C6 C7 1_555 1_555
C9 C10 1_555 1_555

#END
