
#######################################################################
#
#                 Cambridge Crystallographic Data Centre
#                                CCDC 
#
#######################################################################
#
# If this CIF has been generated from an entry in the Cambridge 
# Structural Database, then it will include bibliographic, chemical, 
# crystal, experimental, refinement or atomic coordinate data resulting 
# from the CCDC's data processing and validation procedures.
#
#######################################################################

data_VAHFIV
_symmetry_cell_setting           monoclinic
_symmetry_space_group_name_H-M   'P 21/n'
_symmetry_Int_Tables_number      14
_space_group_name_Hall           '-P 2yn'
loop_
_symmetry_equiv_pos_site_id
_symmetry_equiv_pos_as_xyz
1 x,y,z
2 1/2-x,1/2+y,1/2-z
3 -x,-y,-z
4 1/2+x,1/2-y,1/2+z
_cell_length_a                   7.4770(15)
_cell_length_b                   34.389(7)
_cell_length_c                   7.6782(15)
_cell_angle_alpha                90
_cell_angle_beta                 114.46(3)
_cell_angle_gamma                90
_cell_volume                     1797.08
loop_
_atom_site_label
_atom_site_type_symbol
_atom_site_fract_x
_atom_site_fract_y
_atom_site_fract_z
Cu1 Cu 0.60072(15) 0.05663(3) 0.39926(16)
Cu2 Cu 0.34141(16) -0.21096(3) -0.02899(16)
Cu3 Cu 0.43433(18) -0.07573(3) 0.18184(19)
N1 N 0.5340(10) 0.14119(18) 0.4023(10)
N2 N 0.4445(10) 0.10569(19) 0.3634(10)
N3 N 0.8676(9) 0.12131(18) 0.5902(10)
N4 N 0.8501(10) 0.0812(2) 0.5820(10)
N5 N 0.4917(12) -0.0246(2) 0.2481(13)
N6 N 0.3560(11) -0.1580(2) 0.0520(11)
N7 N 0.5314(14) -0.2488(2) 0.1283(13)
C1 C 0.4093(14) 0.1699(2) 0.3941(14)
C2 C 0.2315(15) 0.1527(3) 0.3512(14)
H1 H 0.1136 0.1652 0.3342
C3 C 0.2598(13) 0.1131(3) 0.3374(13)
C4 C 0.4690(17) 0.2118(2) 0.4238(18)
H2 H 0.5860 0.2146 0.5420
H3 H 0.3634 0.2272 0.4310
H4 H 0.4962 0.2208 0.3175
C5 C 0.1185(13) 0.0797(3) 0.2970(15)
H5 H 0.1744 0.0568 0.2653
H6 H -0.0041 0.0863 0.1903
H7 H 0.0939 0.0745 0.4093
C6 C 0.7384(12) 0.1434(2) 0.4265(12)
H8 H 0.7479 0.1334 0.3112
H9 H 0.7805 0.1706 0.4424
C7 C 1.0277(13) 0.1329(2) 0.7433(13)
C8 C 1.1162(12) 0.0999(3) 0.8429(13)
H10 H 1.2302 0.0985 0.9577
C9 C 1.0025(13) 0.0689(3) 0.7390(14)
C10 C 1.0826(14) 0.1746(3) 0.7896(15)
H11 H 1.1148 0.1860 0.6905
H12 H 1.1956 0.1764 0.9117
H13 H 0.9730 0.1886 0.7965
C11 C 1.0298(14) 0.0257(3) 0.7838(15)
H14 H 0.9094 0.0150 0.7828
H15 H 1.1361 0.0220 0.9091
H16 H 1.0613 0.0127 0.6881
C12 C 0.5354(13) 0.0069(3) 0.2980(13)
C13 C 0.3800(13) -0.1259(2) 0.1044(13)
C14 C 0.6468(12) -0.2694(2) 0.2400(11)
Cu2C Cu 0.84141(16) -0.28904(3) 0.47101(16)
C14C C 0.1468(12) -0.2306(2) -0.2600(11)
loop_
_geom_bond_atom_site_label_1
_geom_bond_atom_site_label_2
_geom_bond_site_symmetry_1
_geom_bond_site_symmetry_2
Cu1 N2 1_555 1_555
Cu2 N6 1_555 1_555
Cu3 N5 1_555 1_555
N1 N2 1_555 1_555
N2 C3 1_555 1_555
N3 N4 1_555 1_555
N4 Cu1 1_555 1_555
N5 C12 1_555 1_555
N6 C13 1_555 1_555
N7 Cu2 1_555 1_555
C1 N1 1_555 1_555
C2 C1 1_555 1_555
H1 C2 1_555 1_555
C3 C2 1_555 1_555
C4 C1 1_555 1_555
H2 C4 1_555 1_555
H3 C4 1_555 1_555
H4 C4 1_555 1_555
C5 C3 1_555 1_555
H5 C5 1_555 1_555
H6 C5 1_555 1_555
H7 C5 1_555 1_555
C6 N1 1_555 1_555
H8 C6 1_555 1_555
H9 C6 1_555 1_555
C7 N3 1_555 1_555
C8 C7 1_555 1_555
H10 C8 1_555 1_555
C9 N4 1_555 1_555
C10 C7 1_555 1_555
H11 C10 1_555 1_555
H12 C10 1_555 1_555
H13 C10 1_555 1_555
C11 C9 1_555 1_555
H14 C11 1_555 1_555
H15 C11 1_555 1_555
H16 C11 1_555 1_555
C12 Cu1 1_555 1_555
C13 Cu3 1_555 1_555
C14 N7 1_555 1_555
Cu2C C14 1_555 1_555
C14C Cu2 1_555 1_555
N3 C6 1_555 1_555
C8 C9 1_555 1_555

#END
