
#######################################################################
#
#                 Cambridge Crystallographic Data Centre
#                                CCDC 
#
#######################################################################
#
# If this CIF has been generated from an entry in the Cambridge 
# Structural Database, then it will include bibliographic, chemical, 
# crystal, experimental, refinement or atomic coordinate data resulting 
# from the CCDC's data processing and validation procedures.
#
#######################################################################

data_VAHFAM
_symmetry_cell_setting           monoclinic
_symmetry_space_group_name_H-M   'P 21'
_symmetry_Int_Tables_number      4
_space_group_name_Hall           'P 2yb'
loop_
_symmetry_equiv_pos_site_id
_symmetry_equiv_pos_as_xyz
1 x,y,z
2 -x,1/2+y,-z
_cell_length_a                   7.5943(8)
_cell_length_b                   7.8172(8)
_cell_length_c                   18.318(2)
_cell_angle_alpha                90
_cell_angle_beta                 99.111(2)
_cell_angle_gamma                90
_cell_volume                     1073.75
loop_
_atom_site_label
_atom_site_type_symbol
_atom_site_fract_x
_atom_site_fract_y
_atom_site_fract_z
Fe1 Fe 0.36475(9) 0.21560(9) 0.38359(4)
Fe2 Fe 0.7123(1) -0.04165(9) 0.43997(5)
Fe3 Fe 0.62826(9) 0.08735(9) 0.11549(4)
Fe4 Fe 0.2792(1) 0.34940(9) 0.05819(5)
P1 P 0.4497(1) -0.2715(2) 0.05537(7)
P2 P 0.5586(1) 0.5752(2) 0.44558(7)
O1 O 0.4313(5) 0.4615(5) 0.3938(2)
O2 O 0.1883(4) 0.0073(6) 0.3649(2)
O3 O 0.5769(4) 0.0964(6) 0.3403(2)
O4 O 0.4965(4) 0.5899(6) 0.5207(2)
O5 O 0.3014(4) 0.2595(6) 0.2614(2)
O6 O 0.1386(4) 0.2909(6) 0.4456(2)
O7 O 0.5762(4) 0.7463(6) 0.4109(2)
O8 O -0.0579(5) -0.1040(6) 0.3957(2)
O9 O -0.1210(4) 0.1778(6) 0.4674(2)
O10 O 0.5819(5) -0.1650(5) 0.1075(2)
O11 O 0.8039(4) 0.2874(6) 0.1339(2)
O12 O 0.4095(4) 0.2010(6) 0.1572(2)
O13 O 0.5152(4) -0.2929(6) -0.0187(2)
O14 O 0.6898(4) 0.0420(6) 0.2367(2)
O15 O 0.8558(4) 0.0157(6) 0.0497(2)
O16 O 0.4148(5) -0.4428(6) 0.0892(2)
O17 O 1.0523(4) 0.4052(5) 0.1088(2)
O18 O 1.1102(4) 0.1378(6) 0.0266(2)
O19 O 0.2629(5) -0.1769(6) 0.0431(2)
H1 H 0.2736(5) -0.0826(6) 0.0248(2)
O20 O 0.7514(5) 0.4952(6) 0.4561(2)
H2 H 0.7496(5) 0.4004(6) 0.4751(2)
C1 C 0.9405(6) 0.2905(8) 0.1031(3)
C2 C 0.9718(6) 0.1318(8) 0.0554(3)
C3 C 0.0232(6) 0.1769(7) 0.4416(3)
C4 C 0.0527(7) 0.0147(8) 0.3960(3)
C5 C 0.4134(6) 0.1980(8) 0.2274(3)
C6 C 0.5778(5) 0.1019(8) 0.2721(3)
O4A O 0.5035(4) 0.0899(6) 0.4793(2)
O7_2 O 0.5762(4) -0.2537(6) 0.4109(2)
O8_2 O 0.9421(5) -0.1040(6) 0.3957(2)
O9_2 O 0.8790(4) 0.1778(6) 0.4674(2)
O13A O 0.4848(4) 0.2071(6) 0.0187(2)
O16_2 O 0.4148(5) 0.5572(6) 0.0892(2)
O17_2 O 0.0523(4) 0.4052(5) 0.1088(2)
O18_2 O 0.1102(4) 0.1378(6) 0.0266(2)
Fe1A Fe 0.63525(9) 0.71560(9) 0.61641(4)
Fe2A Fe 0.2877(1) 0.45835(9) 0.56003(5)
Fe2_2 Fe 0.7123(1) 0.95835(9) 0.43997(5)
Fe2_3 Fe -0.2877(1) -0.04165(9) 0.43997(5)
Fe3A Fe 0.37174(9) -0.41265(9) -0.11549(4)
Fe4A Fe 0.7208(1) -0.15060(9) -0.05819(5)
Fe4_2 Fe 0.2792(1) -0.65060(9) 0.05819(5)
Fe4_3 Fe 1.2792(1) 0.34940(9) 0.05819(5)
C7 C 0.8515(6) 0.6462(6) 0.2606(2)
H3 H 0.8288(6) 0.7552(6) 0.2838(2)
C8 C 1.0569(7) 0.7920(7) 0.1871(3)
H4 H 1.0355(7) 0.9025(7) 0.2081(3)
H5 H 1.0819(7) 0.8100(7) 0.1373(3)
C9 C 1.2162(7) 0.7041(7) 0.2343(3)
H6 H 1.2444(7) 0.5995(7) 0.2102(3)
H7 H 1.3194(7) 0.7787(7) 0.2386(3)
C10 C 1.0105(7) 0.5609(7) 0.3060(3)
H8 H 0.9865(7) 0.5437(7) 0.3559(3)
H9 H 1.0281(7) 0.4494(7) 0.2850(3)
C11 C 0.6881(7) 0.5366(7) 0.2552(3)
H10 H 0.5895(7) 0.5942(7) 0.2260(3)
H11 H 0.6610(7) 0.5158(7) 0.3039(3)
H12 H 0.7091(7) 0.4297(7) 0.2323(3)
N1 N 0.8964(5) 0.6809(5) 0.1850(2)
H13 H 0.9159(5) 0.5808(5) 0.1633(2)
H14 H 0.8026(5) 0.731(85) 0.1572(2)
N2 N 1.1774(5) 0.6635(6) 0.3088(2)
H15 H 1.1664(5) 0.7616(6) 0.3335(2)
H16 H 1.2694(5) 0.6045(6) 0.3339(2)
loop_
_geom_bond_atom_site_label_1
_geom_bond_atom_site_label_2
_geom_bond_site_symmetry_1
_geom_bond_site_symmetry_2
Fe1 O1 1_555 1_555
Fe2 O3 1_555 1_555
Fe3 O10 1_555 1_555
Fe4 O12 1_555 1_555
P1 O10 1_555 1_555
P2 O1 1_555 1_555
O2 Fe1 1_555 1_555
O3 Fe1 1_555 1_555
O4 P2 1_555 1_555
O5 Fe1 1_555 1_555
O6 Fe1 1_555 1_555
O7 P2 1_555 1_555
O8 C4 1_555 1_555
O9 C3 1_555 1_555
O11 Fe3 1_555 1_555
O12 Fe3 1_555 1_555
O13 P1 1_555 1_555
O14 Fe3 1_555 1_555
O15 Fe3 1_555 1_555
O16 P1 1_555 1_555
O17 C1 1_555 1_555
O18 C2 1_555 1_555
O19 P1 1_555 1_555
H1 O19 1_555 1_555
O20 P2 1_555 1_555
H2 O20 1_555 1_555
C1 O11 1_555 1_555
C2 O15 1_555 1_555
C3 O6 1_555 1_555
C4 O2 1_555 1_555
C5 O5 1_555 1_555
C6 O3 1_555 1_555
C7 H3 1_555 1_555
C8 H4 1_555 1_555
H5 C8 1_555 1_555
C9 C8 1_555 1_555
H6 C9 1_555 1_555
H7 C9 1_555 1_555
C10 C7 1_555 1_555
H8 C10 1_555 1_555
H9 C10 1_555 1_555
C11 C7 1_555 1_555
H10 C11 1_555 1_555
H11 C11 1_555 1_555
H12 C11 1_555 1_555
N1 C7 1_555 1_555
H13 N1 1_555 1_555
H14 N1 1_555 1_555
N2 C9 1_555 1_555
H15 N2 1_555 1_555
H16 N2 1_555 1_555
O4A Fe1 1_555 1_555
O7_2 Fe2 1_555 1_555
O8_2 Fe2 1_555 1_555
O9_2 Fe2 1_555 1_555
O13A Fe3 1_555 1_555
O16_2 Fe4 1_555 1_555
O17_2 Fe4 1_555 1_555
O18_2 Fe4 1_555 1_555
Fe1A O4 1_555 1_555
Fe2A O4 1_555 1_555
Fe2_2 O7 1_555 1_555
Fe2_3 O8 1_555 1_555
Fe3A O13 1_555 1_555
Fe4A O13 1_555 1_555
Fe4_2 O16 1_555 1_555
Fe4_3 O17 1_555 1_555
Fe2 O4A 1_555 1_555
Fe4 O13A 1_555 1_555
O9 Fe2_3 1_555 1_555
O12 C5 1_555 1_555
O14 C6 1_555 1_555
O18 Fe4_3 1_555 1_555
C1 C2 1_555 1_555
C3 C4 1_555 1_555
C5 C6 1_555 1_555
C8 N1 1_555 1_555
C10 N2 1_555 1_555

#END
