
#######################################################################
#
#                 Cambridge Crystallographic Data Centre
#                                CCDC 
#
#######################################################################
#
# If this CIF has been generated from an entry in the Cambridge 
# Structural Database, then it will include bibliographic, chemical, 
# crystal, experimental, refinement or atomic coordinate data resulting 
# from the CCDC's data processing and validation procedures.
#
#######################################################################

data_VAHFAN
_symmetry_cell_setting           monoclinic
_symmetry_space_group_name_H-M   'P 21/c'
_symmetry_Int_Tables_number      14
_space_group_name_Hall           '-P 2ybc'
loop_
_symmetry_equiv_pos_site_id
_symmetry_equiv_pos_as_xyz
1 x,y,z
2 -x,1/2+y,1/2-z
3 -x,-y,-z
4 x,1/2-y,1/2+z
_cell_length_a                   10.198(2)
_cell_length_b                   10.819(2)
_cell_length_c                   8.9218(18)
_cell_angle_alpha                90
_cell_angle_beta                 109.11(3)
_cell_angle_gamma                90
_cell_volume                     930.115
loop_
_atom_site_label
_atom_site_type_symbol
_atom_site_fract_x
_atom_site_fract_y
_atom_site_fract_z
Cu1 Cu 0.23814(5) 0.34834(5) 0.21983(6)
N1 N 0.2071(3) 0.6040(3) 0.3394(4)
N2 N 0.2920(3) 0.5233(3) 0.2977(4)
N3 N 0.2180(4) 0.2562(4) 0.3981(4)
C1 C 0.2688(5) 0.7144(4) 0.3848(5)
C2 C 0.3993(5) 0.7052(4) 0.3716(5)
H1 H 0.4680 0.7668 0.3950
C3 C 0.4087(4) 0.5857(4) 0.3164(5)
C4 C 0.1980(5) 0.8181(4) 0.4358(6)
H2 H 0.1027 0.8234 0.3659
H3 H 0.2458 0.8948 0.4313
H4 H 0.1994 0.8037 0.5437
C5 C 0.5253(5) 0.5273(5) 0.2753(6)
H5 H 0.4880 0.4722 0.1857
H6 H 0.5834 0.4808 0.3656
H7 H 0.5803 0.5912 0.2478
C6 C 0.0709(4) 0.5631(4) 0.3389(5)
H8 H 0.0415 0.4924 0.2671
H9 H 0.0038 0.6299 0.2980
C7 C 0.0694(4) 0.5261(4) 0.5032(5)
H10 H 0.1417 0.4642 0.5483
H11 H 0.0903 0.5986 0.5729
C8 C 0.2221(5) 0.2110(4) 0.5166(5)
Cu1B Cu -0.23814(5) 0.65166(5) 0.78017(6)
Cu1A Cu -0.23814(5) 0.84834(5) 0.28017(6)
Cu1C Cu 0.23814(5) 0.15166(5) 0.71983(6)
N1B N -0.2071(3) 0.3960(3) 0.6606(4)
N2B N -0.2920(3) 0.4767(3) 0.7023(4)
N3B N -0.2180(4) 0.7438(4) 0.6019(4)
C1B C -0.2688(5) 0.2856(4) 0.6152(5)
C2B C -0.3993(5) 0.2948(4) 0.6284(5)
H1B H -0.4680 0.2332 0.6050
C3B C -0.4087(4) 0.4143(4) 0.6836(5)
C4B C -0.1980(5) 0.1819(4) 0.5642(6)
H2B H -0.1027 0.1766 0.6341
H3B H -0.2458 0.1052 0.5687
H4B H -0.1994 0.1963 0.4563
C5B C -0.5253(5) 0.4727(5) 0.7247(6)
H5B H -0.4880 0.5278 0.8143
H6B H -0.5834 0.5192 0.6344
H7B H -0.5803 0.4088 0.7522
C6B C -0.0709(4) 0.4369(4) 0.6611(5)
H8B H -0.0415 0.5076 0.7329
H9B H -0.0038 0.3701 0.7020
C7B C -0.0694(4) 0.4739(4) 0.4968(5)
H10B H -0.1417 0.5358 0.4517
H11B H -0.0903 0.4014 0.4271
C8B C -0.2221(5) 0.7890(4) 0.4834(5)
C8A C -0.2221(5) 0.7110(4) 0.9834(5)
C8C C 0.2221(5) 0.2890(4) 0.0166(5)
loop_
_geom_bond_atom_site_label_1
_geom_bond_atom_site_label_2
_geom_bond_site_symmetry_1
_geom_bond_site_symmetry_2
Cu1 N2 1_555 1_555
N1 N2 1_555 1_555
N2 C3 1_555 1_555
N3 Cu1 1_555 1_555
C1 N1 1_555 1_555
C2 C1 1_555 1_555
H1 C2 1_555 1_555
C3 C2 1_555 1_555
C4 C1 1_555 1_555
H2 C4 1_555 1_555
H3 C4 1_555 1_555
H4 C4 1_555 1_555
C5 C3 1_555 1_555
H5 C5 1_555 1_555
H6 C5 1_555 1_555
H7 C5 1_555 1_555
C6 N1 1_555 1_555
H8 C6 1_555 1_555
H9 C6 1_555 1_555
C7 C6 1_555 1_555
H10 C7 1_555 1_555
H11 C7 1_555 1_555
C8 N3 1_555 1_555
Cu1B N2B 1_555 1_555
Cu1A C8B 1_555 1_555
Cu1C C8 1_555 1_555
N1B N2B 1_555 1_555
N2B C3B 1_555 1_555
N3B Cu1B 1_555 1_555
C1B N1B 1_555 1_555
C2B C1B 1_555 1_555
H1B C2B 1_555 1_555
C3B C2B 1_555 1_555
C4B C1B 1_555 1_555
H2B C4B 1_555 1_555
H3B C4B 1_555 1_555
H4B C4B 1_555 1_555
C5B C3B 1_555 1_555
H5B C5B 1_555 1_555
H6B C5B 1_555 1_555
H7B C5B 1_555 1_555
C6B N1B 1_555 1_555
H8B C6B 1_555 1_555
H9B C6B 1_555 1_555
C7B C7 1_555 1_555
H10B C7B 1_555 1_555
H11B C7B 1_555 1_555
C8B N3B 1_555 1_555
C8A Cu1B 1_555 1_555
C8C Cu1 1_555 1_555
C6B C7B 1_555 1_555

#END
