
#######################################################################
#
#                 Cambridge Crystallographic Data Centre
#                                CCDC 
#
#######################################################################
#
# If this CIF has been generated from an entry in the Cambridge 
# Structural Database, then it will include bibliographic, chemical, 
# crystal, experimental, refinement or atomic coordinate data resulting 
# from the CCDC's data processing and validation procedures.
#
#######################################################################

data_VAHFER
_symmetry_cell_setting           monoclinic
_symmetry_space_group_name_H-M   'P 21/c'
_symmetry_Int_Tables_number      14
_space_group_name_Hall           '-P 2ybc'
loop_
_symmetry_equiv_pos_site_id
_symmetry_equiv_pos_as_xyz
1 x,y,z
2 -x,1/2+y,1/2-z
3 -x,-y,-z
4 x,1/2-y,1/2+z
_cell_length_a                   8.4333(17)
_cell_length_b                   9.0155(18)
_cell_length_c                   25.540(5)
_cell_angle_alpha                90
_cell_angle_beta                 92.81(3)
_cell_angle_gamma                90
_cell_volume                     1939.48
loop_
_atom_site_label
_atom_site_type_symbol
_atom_site_fract_x
_atom_site_fract_y
_atom_site_fract_z
Cu1 Cu 0.33833(4) -0.28896(4) 0.101880(15)
Cu2 Cu -0.12228(4) -0.20844(4) -0.134230(16)
N1 N 0.6538(3) -0.2812(3) 0.04864(9)
N2 N 0.5745(3) -0.3213(2) 0.09179(9)
N3 N 0.1982(2) -0.0956(2) -0.16532(9)
N4 N 0.0711(3) -0.1848(2) -0.17802(9)
N5 N 0.2545(3) -0.4838(3) 0.11632(11)
N6 N -0.1936(3) -0.0162(3) -0.11024(11)
C1 C 0.8079(3) -0.3224(3) 0.05365(12)
C2 C 0.8288(3) -0.3904(3) 0.10164(12)
H1 H 0.9234 -0.4314 0.1163
C3 C 0.6828(3) -0.3866(3) 0.12410(11)
C4 C 0.9240(4) -0.2892(4) 0.01272(14)
H2 H 0.8915 -0.3396 -0.0196
H3 H 1.0287 -0.3233 0.0247
H4 H 0.9270 -0.1831 0.0066
C5 C 0.6389(4) -0.4428(4) 0.17649(12)
H5 H 0.6370 -0.3608 0.2010
H6 H 0.7165 -0.5155 0.1891
H7 H 0.5348 -0.4885 0.1734
C6 C 0.5692(3) -0.2066(3) 0.00530(12)
H8 H 0.6462 -0.1525 -0.0150
H9 H 0.4968 -0.1336 0.0195
C7 C 0.4744(3) -0.3095(3) -0.03142(12)
H10 H 0.3869 -0.3535 -0.0128
H11 H 0.5429 -0.3902 -0.0426
C8 C 0.4077(3) -0.2257(3) -0.07933(12)
H12 H 0.3878 -0.2965 -0.1080
H13 H 0.4881 -0.1553 -0.0904
C9 C 0.2539(3) -0.1406(3) -0.07056(11)
H14 H 0.1664 -0.2116 -0.0687
H15 H 0.2646 -0.0888 -0.0368
C10 C 0.2128(3) -0.0286(3) -0.11340(11)
H16 H 0.1124 0.0199 -0.1060
H17 H 0.2955 0.0479 -0.1131
C11 C 0.3005(3) -0.0915(3) -0.20432(12)
C12 C 0.2362(4) -0.1801(3) -0.24379(12)
H18 H 0.2793 -0.1990 -0.2764
C13 C 0.0953(4) -0.2361(3) -0.22596(13)
C14 C 0.4490(4) -0.0008(4) -0.20138(13)
H19 H 0.4353 0.0832 -0.1783
H20 H 0.4713 0.0345 -0.2361
H21 H 0.5367 -0.0613 -0.1878
C15 C -0.0224(4) -0.3357(4) -0.25431(15)
H22 H -0.0876 -0.3841 -0.2291
H23 H 0.0336 -0.4101 -0.2737
H24 H -0.0894 -0.2773 -0.2784
C16 C 0.2071(3) -0.6010(3) 0.12423(13)
C17 C -0.2460(3) 0.0989(3) -0.10332(13)
Cu1B Cu -0.33833(4) 0.28896(4) -0.101880(15)
Cu2B Cu 0.12228(4) -0.79156(4) 0.134230(16)
C16B C -0.2071(3) -0.3990(3) -0.12423(13)
C17B C 0.2460(3) -0.0989(3) 0.10332(13)
loop_
_geom_bond_atom_site_label_1
_geom_bond_atom_site_label_2
_geom_bond_site_symmetry_1
_geom_bond_site_symmetry_2
Cu1 N2 1_555 1_555
Cu2 N4 1_555 1_555
N1 N2 1_555 1_555
N2 C3 1_555 1_555
N3 N4 1_555 1_555
N4 C13 1_555 1_555
N5 Cu1 1_555 1_555
N6 Cu2 1_555 1_555
C1 N1 1_555 1_555
C2 C1 1_555 1_555
H1 C2 1_555 1_555
C3 C2 1_555 1_555
C4 C1 1_555 1_555
H2 C4 1_555 1_555
H3 C4 1_555 1_555
H4 C4 1_555 1_555
C5 C3 1_555 1_555
H5 C5 1_555 1_555
H6 C5 1_555 1_555
H7 C5 1_555 1_555
C6 N1 1_555 1_555
H8 C6 1_555 1_555
H9 C6 1_555 1_555
C7 C6 1_555 1_555
H10 C7 1_555 1_555
H11 C7 1_555 1_555
C8 C7 1_555 1_555
H12 C8 1_555 1_555
H13 C8 1_555 1_555
C9 C8 1_555 1_555
H14 C9 1_555 1_555
H15 C9 1_555 1_555
C10 N3 1_555 1_555
H16 C10 1_555 1_555
H17 C10 1_555 1_555
C11 N3 1_555 1_555
C12 C11 1_555 1_555
H18 C12 1_555 1_555
C13 C12 1_555 1_555
C14 C11 1_555 1_555
H19 C14 1_555 1_555
H20 C14 1_555 1_555
H21 C14 1_555 1_555
C15 C13 1_555 1_555
H22 C15 1_555 1_555
H23 C15 1_555 1_555
H24 C15 1_555 1_555
C16 N5 1_555 1_555
C17 N6 1_555 1_555
Cu1B C17 1_555 1_555
Cu2B C16 1_555 1_555
C16B Cu2 1_555 1_555
C17B Cu1 1_555 1_555
C9 C10 1_555 1_555

#END
