
#######################################################################
#
#                 Cambridge Crystallographic Data Centre
#                                CCDC 
#
#######################################################################
#
# If this CIF has been generated from an entry in the Cambridge 
# Structural Database, then it will include bibliographic, chemical, 
# crystal, experimental, refinement or atomic coordinate data resulting 
# from the CCDC's data processing and validation procedures.
#
#######################################################################

data_VAHJIY
_symmetry_cell_setting           triclinic
_symmetry_space_group_name_H-M   'P -1'
_symmetry_Int_Tables_number      2
_space_group_name_Hall           '-P 1'
loop_
_symmetry_equiv_pos_site_id
_symmetry_equiv_pos_as_xyz
1 x,y,z
2 -x,-y,-z
_cell_length_a                   9.5187(13)
_cell_length_b                   11.4926(15)
_cell_length_c                   11.6349(15)
_cell_angle_alpha                67.405(3)
_cell_angle_beta                 81.407(3)
_cell_angle_gamma                66.906(3)
_cell_volume                     1080.93
loop_
_atom_site_label
_atom_site_type_symbol
_atom_site_fract_x
_atom_site_fract_y
_atom_site_fract_z
Ti1 Ti 0.0072(1) 0.8598(1) 0.7153(1)
Ti2 Ti 0.2874(1) 0.8916(1) 0.4846(1)
O1 O 0.1365(2) 0.8566(2) 0.5792(2)
O2 O -0.1752(2) 0.9529(2) 0.6412(2)
O3 O 0.2017(2) 0.7866(2) 0.8246(2)
O4 O 0.0012(2) 1.0239(2) 0.7376(2)
O5 O 0.3436(3) 0.8530(2) 0.9041(3)
O6 O 0.1081(3) 1.1097(2) 0.8260(3)
O7 O 0.0271(3) 0.6690(2) 0.7453(2)
O8 O -0.0915(3) 0.8005(2) 0.8883(2)
O9 O -0.0795(3) 0.5159(2) 0.8436(3)
O10 O -0.2126(3) 0.6618(3) 1.0001(2)
O11 O 0.3506(2) 0.7679(2) 0.3915(2)
O12 O 0.4604(2) 0.7278(2) 0.5952(2)
O13 O 0.5576(3) 0.6069(3) 0.3520(2)
O14 O 0.6721(3) 0.5555(3) 0.5823(2)
O15 O 0.3312(2) 0.9920(2) 0.5784(2)
O16 O 0.5031(2) 1.0650(2) 0.6102(2)
C1 C 0.2311(4) 0.8737(3) 0.8487(3)
C2 C 0.1057(4) 1.0166(3) 0.8020(3)
C3 C -0.0559(4) 0.6153(3) 0.8295(3)
C4 C -0.1275(4) 0.6968(3) 0.9162(3)
C5 C 0.4846(4) 0.6706(3) 0.4170(3)
C6 C 0.5467(4) 0.6458(4) 0.5431(3)
C7 C 0.4526(4) 1.0167(3) 0.5542(3)
C7A C 0.5474(4) 0.9833(3) 0.4458(3)
O15A O 0.6688(2) 1.0080(2) 0.4216(2)
O16A O 0.4969(2) 0.9350(2) 0.3898(2)
Ti2A Ti -0.2874(1) 1.1084(1) 0.5154(1)
O2A O 0.1752(2) 1.0471(2) 0.3588(2)
O1A O -0.1365(2) 1.1434(2) 0.4208(2)
O11A O -0.3506(2) 1.2321(2) 0.6085(2)
O12A O -0.4604(2) 1.2722(2) 0.4048(2)
O13A O -0.5576(3) 1.3931(3) 0.6480(2)
O14A O -0.6721(3) 1.4445(3) 0.4177(2)
C5A C -0.4846(4) 1.3294(3) 0.5830(3)
C6A C -0.5467(4) 1.3542(4) 0.4569(3)
Ti1A Ti -0.0072(1) 1.1402(1) 0.2847(1)
O3A O -0.2017(2) 1.2134(2) 0.1754(2)
O4A O -0.0012(2) 0.9761(2) 0.2624(2)
O5A O -0.3436(3) 1.1470(2) 0.0959(3)
O6A O -0.1081(3) 0.8903(2) 0.1740(3)
C1A C -0.2311(4) 1.1263(3) 0.1513(3)
C2A C -0.1057(4) 0.9834(3) 0.1980(3)
O7A O -0.0271(3) 1.3310(2) 0.2547(2)
O8A O 0.0915(3) 1.1995(2) 0.1117(2)
O9A O 0.0795(3) 1.4841(2) 0.1564(3)
O10A O 0.2126(3) 1.3382(3) -0.0001(2)
C3A C 0.0559(4) 1.3847(3) 0.1705(3)
C4A C 0.1275(4) 1.3032(3) 0.0838(3)
Ti2A_2 Ti 0.7126(1) 1.1084(1) 0.5154(1)
O15A_2 O -0.3312(2) 1.0080(2) 0.4216(2)
O16_2 O -0.4969(2) 1.0650(2) 0.6102(2)
N1 N 0.0880(3) 0.5315(3) 0.5661(3)
C8 C 0.0512(5) 0.4066(4) 0.6236(3)
C9 C -0.0308(4) 0.6421(4) 0.4740(4)
C9A C 0.0308(4) 0.3579(4) 0.5260(4)
N1A N -0.0880(3) 0.4685(3) 0.4339(3)
C8A C -0.0512(5) 0.5934(4) 0.3764(3)
N2 N 0.3384(3) 1.0472(3) -0.0081(3)
C10 C 0.4274(4) 1.1141(4) -0.1096(3)
C11 C 0.4146(4) 0.9867(4) 0.1149(3)
C11A C 0.5854(4) 1.0133(4) -0.1149(3)
N2A N 0.6616(3) 0.9528(3) 0.0081(3)
C10A C 0.5726(4) 0.8859(4) 0.1096(3)
N3 N -0.3433(3) 0.4816(3) 1.0037(3)
C12 C -0.4513(5) 0.5157(4) 1.1024(3)
C13 C -0.4245(4) 0.5371(4) 0.8818(3)
C13A C -0.5755(4) 0.4629(4) 1.1182(3)
N3A N -0.6567(3) 0.5184(3) 0.9963(3)
C12A C -0.5487(5) 0.4843(4) 0.8976(3)
O17 O -0.2320(5) 1.2602(5) 0.8319(4)
loop_
_geom_bond_atom_site_label_1
_geom_bond_atom_site_label_2
_geom_bond_site_symmetry_1
_geom_bond_site_symmetry_2
Ti1 O1 1_555 1_555
Ti2 O1 1_555 1_555
O2 Ti1 1_555 1_555
O3 Ti1 1_555 1_555
O4 Ti1 1_555 1_555
O5 C1 1_555 1_555
O6 C2 1_555 1_555
O7 Ti1 1_555 1_555
O8 Ti1 1_555 1_555
O9 C3 1_555 1_555
O10 C4 1_555 1_555
O11 Ti2 1_555 1_555
O12 Ti2 1_555 1_555
O13 C5 1_555 1_555
O14 C6 1_555 1_555
O15 Ti2 1_555 1_555
O16 C7 1_555 1_555
N1 C8 1_555 1_555
N2 C10 1_555 1_555
N3 C12 1_555 1_555
C1 O3 1_555 1_555
C2 O4 1_555 1_555
C3 O7 1_555 1_555
C4 O8 1_555 1_555
C5 O11 1_555 1_555
C6 O12 1_555 1_555
C7 O15 1_555 1_555
C8 C9A 1_555 1_555
C9 N1 1_555 1_555
C10 C11A 1_555 1_555
C11 N2 1_555 1_555
C12 C13A 1_555 1_555
C13 N3 1_555 1_555
C7A C7 1_555 1_555
O15A C7A 1_555 1_555
O16A Ti2 1_555 1_555
C9A N1A 1_555 1_555
N1A C8A 1_555 1_555
C8A C9 1_555 1_555
C11A N2A 1_555 1_555
N2A C10A 1_555 1_555
C10A C11 1_555 1_555
C13A N3A 1_555 1_555
N3A C12A 1_555 1_555
C12A C13 1_555 1_555
Ti2A O2 1_555 1_555
O2A Ti2 1_555 1_555
O1A Ti2A 1_555 1_555
O11A Ti2A 1_555 1_555
O12A Ti2A 1_555 1_555
O13A C5A 1_555 1_555
O14A C6A 1_555 1_555
C5A O11A 1_555 1_555
C6A O12A 1_555 1_555
Ti1A O2A 1_555 1_555
O3A Ti1A 1_555 1_555
O4A Ti1A 1_555 1_555
O5A C1A 1_555 1_555
O6A C2A 1_555 1_555
C1A O3A 1_555 1_555
C2A O4A 1_555 1_555
O7A Ti1A 1_555 1_555
O8A Ti1A 1_555 1_555
O9A C3A 1_555 1_555
O10A C4A 1_555 1_555
C3A O7A 1_555 1_555
C4A O8A 1_555 1_555
Ti2A_2 O16 1_555 1_555
O15A_2 Ti2A 1_555 1_555
O16_2 Ti2A 1_555 1_555
C1 C2 1_555 1_555
C3 C4 1_555 1_555
C5 C6 1_555 1_555
C7A O16A 1_555 1_555
O15A Ti2A_2 1_555 1_555
O1A Ti1A 1_555 1_555
C5A C6A 1_555 1_555
C1A C2A 1_555 1_555
C3A C4A 1_555 1_555

#END
