
#######################################################################
#
#                 Cambridge Crystallographic Data Centre
#                                CCDC 
#
#######################################################################
#
# If this CIF has been generated from an entry in the Cambridge 
# Structural Database, then it will include bibliographic, chemical, 
# crystal, experimental, refinement or atomic coordinate data resulting 
# from the CCDC's data processing and validation procedures.
#
#######################################################################

data_VAHNOJ
_symmetry_cell_setting           orthorhombic
_symmetry_space_group_name_H-M   'P b c m'
_symmetry_Int_Tables_number      57
_space_group_name_Hall           '-P 2c 2b'
loop_
_symmetry_equiv_pos_site_id
_symmetry_equiv_pos_as_xyz
1 x,y,z
2 -x,-y,1/2+z
3 x,1/2-y,-z
4 -x,1/2+y,1/2-z
5 -x,-y,-z
6 x,y,1/2-z
7 -x,1/2+y,z
8 x,1/2-y,1/2+z
_cell_length_a                   7.1428(19)
_cell_length_b                   14.203(4)
_cell_length_c                   35.245(10)
_cell_angle_alpha                90
_cell_angle_beta                 90
_cell_angle_gamma                90
_cell_volume                     3575.58
loop_
_atom_site_label
_atom_site_type_symbol
_atom_site_fract_x
_atom_site_fract_y
_atom_site_fract_z
Ag1 Ag 0.52713(9) 0.42161(6) 0.2500
Ag2 Ag 0.48864(6) 0.38122(5) 0.343490(19)
S1 S 0.5241(2) 0.63938(10) 0.30962(4)
C1 C 0.9305(12) 0.4914(6) 0.2500
H1 H 0.8673 0.5486 0.2500
C2 C 1.1235(12) 0.4906(6) 0.2500
H2 H 1.1878 0.5475 0.2500
C3 C 1.1216(12) 0.3312(6) 0.2500
H3 H 1.1849 0.2740 0.2500
C4 C 0.9288(12) 0.3312(6) 0.2500
H4 H 0.8650 0.2741 0.2500
C5 C 0.8927(8) 0.4596(4) 0.34589(18)
H5 H 0.8300 0.5169 0.3449
C6 C 1.0863(8) 0.4591(4) 0.34557(18)
H6 H 1.1503 0.5160 0.3443
C7 C 1.0848(8) 0.2997(4) 0.34949(17)
H7 H 1.1478 0.2426 0.3512
C8 C 0.8912(8) 0.3003(4) 0.34951(18)
H8 H 0.8273 0.2434 0.3509
N1 N 0.8324(9) 0.4109(5) 0.2500
N2 N 1.2201(9) 0.4108(5) 0.2500
N3 N 0.7933(6) 0.3802(3) 0.34760(14)
N4 N 1.1829(7) 0.3795(3) 0.34709(14)
O1 O 0.4978(7) 0.6716(3) 0.34811(13)
O2 O 0.4693(9) 0.5439(4) 0.30392(16)
O3 O 0.4239(11) 0.7051(5) 0.28432(16)
O4 O 0.7247(8) 0.6474(4) 0.29966(17)
Ag1_2 Ag 1.52713(9) 0.42161(6) 0.2500
Ag2E Ag 0.48864(6) 0.38122(5) 0.156510(19)
Ag2_2 Ag 1.48864(6) 0.38122(5) 0.343490(19)
Ag2E_2 Ag 1.48864(6) 0.38122(5) 0.156510(19)
S1E S 0.5241(2) 0.63938(10) 0.19038(4)
C5E C 0.8927(8) 0.4596(4) 0.15411(18)
H5E H 0.8300 0.5169 0.1551
C6E C 1.0863(8) 0.4591(4) 0.15443(18)
H6E H 1.1503 0.5160 0.1557
C7E C 1.0848(8) 0.2997(4) 0.15051(17)
H7E H 1.1478 0.2426 0.1488
C8E C 0.8912(8) 0.3003(4) 0.15049(18)
H8E H 0.8273 0.2434 0.1491
N2_2 N 0.2201(9) 0.4108(5) 0.2500
N3E N 0.7933(6) 0.3802(3) 0.15240(14)
N4_2 N 0.1829(7) 0.3795(3) 0.34709(14)
N4E N 0.1829(7) 0.3795(3) 0.15291(14)
N4E_2 N 1.1829(7) 0.3795(3) 0.15291(14)
O1E O 0.4978(7) 0.6716(3) 0.15189(13)
O2E O 0.4693(9) 0.5439(4) 0.19608(16)
O3E O 0.4239(11) 0.7051(5) 0.21568(16)
O4E O 0.7247(8) 0.6474(4) 0.20034(17)
Ag3 Ag 0.99487(6) 0.18130(4) -0.043449(17)
S2 S 1.0132(2) 0.07980(11) 0.06158(4)
O5 O 0.9934(7) 0.1410(3) 0.09372(14)
O6 O 0.9777(9) 0.1280(4) 0.02685(17)
O7 O 1.1887(7) 0.0292(4) 0.06028(16)
O8 O 0.8645(8) 0.0010(4) 0.06547(18)
H9 H 0.7578 0.0274 0.0659
N5 N 0.6890(6) 0.1825(3) -0.04512(14)
N6 N 0.3022(7) 0.1863(3) -0.04453(14)
C9 C 0.5910(8) 0.1324(4) -0.02031(17)
H12 H 0.6539 0.0956 -0.0026
C10 C 0.3992(8) 0.1338(4) -0.02013(18)
H13 H 0.3351 0.0972 -0.0025
C11 C 0.4002(8) 0.2364(4) -0.06908(17)
H14 H 0.3374 0.2734 -0.0867
C12 C 0.5922(8) 0.2352(4) -0.06926(17)
H15 H 0.6561 0.2722 -0.0867
Ag3_2 Ag -0.00513(6) 0.18130(4) -0.043449(17)
N6_2 N 1.3022(7) 0.1863(3) -0.04453(14)
O9 O 0.5354(7) 0.0327(4) 0.09709(15)
H10 H 0.5442 0.0876 0.1066
H11 H 0.4391 0.0294 0.0830
loop_
_geom_bond_atom_site_label_1
_geom_bond_atom_site_label_2
_geom_bond_site_symmetry_1
_geom_bond_site_symmetry_2
Ag1 N1 1_555 1_555
Ag2 N3 1_555 1_555
S1 O1 1_555 1_555
C1 H1 1_555 1_555
C2 C1 1_555 1_555
H2 C2 1_555 1_555
C3 H3 1_555 1_555
C4 C3 1_555 1_555
H4 C4 1_555 1_555
C5 H5 1_555 1_555
C6 C5 1_555 1_555
H6 C6 1_555 1_555
C7 H7 1_555 1_555
C8 C7 1_555 1_555
H8 C8 1_555 1_555
N1 C1 1_555 1_555
N2 C2 1_555 1_555
N3 C5 1_555 1_555
N4 C6 1_555 1_555
O2 Ag1 1_555 1_555
O3 S1 1_555 1_555
O4 S1 1_555 1_555
Ag3 O6 1_555 1_555
S2 O5 1_555 1_555
O6 S2 1_555 1_555
O7 S2 1_555 1_555
O8 S2 1_555 1_555
H9 O8 1_555 1_555
O9 H10 1_555 1_555
H11 O9 1_555 1_555
N5 Ag3 1_555 1_555
N6 C10 1_555 1_555
C9 N5 1_555 1_555
H12 C9 1_555 1_555
C10 C9 1_555 1_555
H13 C10 1_555 1_555
C11 N6 1_555 1_555
H14 C11 1_555 1_555
C12 N5 1_555 1_555
H15 C12 1_555 1_555
Ag1_2 N2 1_555 1_555
Ag2E N3E 1_555 1_555
Ag2_2 N4 1_555 1_555
Ag2E_2 N4E_2 1_555 1_555
S1E O1E 1_555 1_555
C5E H5E 1_555 1_555
C6E C5E 1_555 1_555
H6E C6E 1_555 1_555
C7E H7E 1_555 1_555
C8E C7E 1_555 1_555
H8E C8E 1_555 1_555
N2_2 Ag1 1_555 1_555
N3E C5E 1_555 1_555
N4_2 Ag2 1_555 1_555
N4E Ag2E 1_555 1_555
N4E_2 C6E 1_555 1_555
O2E Ag1 1_555 1_555
O3E S1E 1_555 1_555
O4E S1E 1_555 1_555
Ag3_2 N6 1_555 1_555
N6_2 Ag3 1_555 1_555
Ag2 O2 1_555 1_555
S1 O2 1_555 1_555
C3 N2 1_555 1_555
C4 N1 1_555 1_555
C7 N4 1_555 1_555
C8 N3 1_555 1_555
C11 C12 1_555 1_555
Ag2E O2E 1_555 1_555
S1E O2E 1_555 1_555
C7E N4E_2 1_555 1_555
C8E N3E 1_555 1_555

#END
