
#######################################################################
#
#                 Cambridge Crystallographic Data Centre
#                                CCDC 
#
#######################################################################
#
# If this CIF has been generated from an entry in the Cambridge 
# Structural Database, then it will include bibliographic, chemical, 
# crystal, experimental, refinement or atomic coordinate data resulting 
# from the CCDC's data processing and validation procedures.
#
#######################################################################

data_VAHQIF01
_symmetry_cell_setting           monoclinic
_symmetry_space_group_name_H-M   'P 2/n'
_symmetry_Int_Tables_number      13
_space_group_name_Hall           '-P 2yac'
loop_
_symmetry_equiv_pos_site_id
_symmetry_equiv_pos_as_xyz
1 x,y,z
2 1/2-x,y,1/2-z
3 -x,-y,-z
4 1/2+x,-y,1/2+z
_cell_length_a                   6.995(4)
_cell_length_b                   11.565(6)
_cell_length_c                   11.420(6)
_cell_angle_alpha                90
_cell_angle_beta                 101.824(6)
_cell_angle_gamma                90
_cell_volume                     904.243
loop_
_atom_site_label
_atom_site_type_symbol
_atom_site_fract_x
_atom_site_fract_y
_atom_site_fract_z
Mn1 Mn 0.2500 0.89056(3) 0.7500
O1 O 0.3727(2) 0.87371(14) 0.58738(14)
H1 H 0.478(3) 0.835(2) 0.599(2)
H2 H 0.325(4) 0.874(2) 0.5130(17)
O2 O -0.0521(2) 0.90493(13) 0.65125(13)
H3 H -0.111(3) 0.9676(14) 0.658(2)
H4 H -0.132(3) 0.8498(16) 0.654(2)
N1 N 0.2500 1.08165(18) 0.7500
N2 N 0.2500 1.69433(19) 0.7500
C1 C 0.2400(3) 1.14188(17) 0.64905(17)
H5 H 0.2327 1.1013 0.5779
C2 C 0.2400(3) 1.26051(16) 0.64493(17)
H6 H 0.2333 1.2986 0.5725
C3 C 0.2500 1.3233(2) 0.7500
C4 C 0.1830(3) 1.63345(16) 0.65024(18)
H7 H 0.1350 1.6736 0.5798
C5 C 0.1817(3) 1.51475(17) 0.64662(17)
H8 H 0.1348 1.4767 0.5747
C6 C 0.2500 1.4515(2) 0.7500
Mn1_2 Mn 0.2500 1.89056(3) 0.7500
O1A O 0.1273(2) 0.87371(14) 0.91262(14)
H1A H 0.022(3) 0.835(2) 0.901(2)
H2A H 0.175(4) 0.874(2) 0.9870(17)
O2A O 0.5521(2) 0.90493(13) 0.84875(13)
H3A H 0.611(3) 0.9676(14) 0.842(2)
H4A H 0.632(3) 0.8498(16) 0.846(2)
N2_2 N 0.2500 0.69433(19) 0.7500
C1A C 0.2600(3) 1.14188(17) 0.85095(17)
H5A H 0.2673 1.1013 0.9221
C2A C 0.2600(3) 1.26051(16) 0.85507(17)
H6A H 0.2667 1.2986 0.9275
C4A C 0.3170(3) 1.63345(16) 0.84976(18)
H7A H 0.3650 1.6736 0.9202
C5A C 0.3183(3) 1.51475(17) 0.85338(17)
H8A H 0.3652 1.4767 0.9253
O3 O 0.2551(2) 0.88632(12) 0.15332(12)
O4 O 0.2067(2) 0.27984(12) 0.15001(13)
C7 C 0.2500 0.8358(2) 0.2500
C8 C 0.2500 0.7044(2) 0.2500
C9 C 0.3097(3) 0.64212(17) 0.35581(17)
H9 H 0.3492 0.6816 0.4276
C10 C 0.3109(3) 0.52281(17) 0.35551(17)
H10 H 0.3531 0.4831 0.4270
C11 C 0.2500 0.4609(2) 0.2500
C12 C 0.2500 0.3304(2) 0.2500
O3A O 0.2449(2) 0.88632(12) 0.34668(12)
O4A O 0.2933(2) 0.27984(12) 0.34999(13)
C9A C 0.1903(3) 0.64212(17) 0.14419(17)
H9A H 0.1508 0.6816 0.0724
C10A C 0.1891(3) 0.52281(17) 0.14449(17)
H10A H 0.1469 0.4831 0.0730
loop_
_geom_bond_atom_site_label_1
_geom_bond_atom_site_label_2
_geom_bond_site_symmetry_1
_geom_bond_site_symmetry_2
Mn1 O1 1_555 1_555
O1 H1 1_555 1_555
H2 O1 1_555 1_555
O2 Mn1 1_555 1_555
H3 O2 1_555 1_555
H4 O2 1_555 1_555
O3 C7 1_555 1_555
O4 C12 1_555 1_555
N1 Mn1 1_555 1_555
N2 C4 1_555 1_555
C1 N1 1_555 1_555
H5 C1 1_555 1_555
C2 C1 1_555 1_555
H6 C2 1_555 1_555
C3 C2 1_555 1_555
C4 H7 1_555 1_555
C5 C4 1_555 1_555
H8 C5 1_555 1_555
C6 C3 1_555 1_555
C7 C8 1_555 1_555
C8 C9 1_555 1_555
C9 H9 1_555 1_555
C10 C9 1_555 1_555
H10 C10 1_555 1_555
C11 C10 1_555 1_555
C12 C11 1_555 1_555
Mn1_2 N2 1_555 1_555
O1A Mn1 1_555 1_555
H1A O1A 1_555 1_555
H2A O1A 1_555 1_555
O2A Mn1 1_555 1_555
H3A O2A 1_555 1_555
H4A O2A 1_555 1_555
O3A C7 1_555 1_555
O4A C12 1_555 1_555
N2_2 Mn1 1_555 1_555
C1A N1 1_555 1_555
H5A C1A 1_555 1_555
C2A C3 1_555 1_555
H6A C2A 1_555 1_555
C4A N2 1_555 1_555
H7A C4A 1_555 1_555
C5A C6 1_555 1_555
H8A C5A 1_555 1_555
C9A C8 1_555 1_555
H9A C9A 1_555 1_555
C10A C11 1_555 1_555
H10A C10A 1_555 1_555
C5 C6 1_555 1_555
C1A C2A 1_555 1_555
C4A C5A 1_555 1_555
C9A C10A 1_555 1_555

#END
