
#######################################################################
#
#                 Cambridge Crystallographic Data Centre
#                                CCDC 
#
#######################################################################
#
# If this CIF has been generated from an entry in the Cambridge 
# Structural Database, then it will include bibliographic, chemical, 
# crystal, experimental, refinement or atomic coordinate data resulting 
# from the CCDC's data processing and validation procedures.
#
#######################################################################

data_VAHQIF04
_symmetry_cell_setting           monoclinic
_symmetry_space_group_name_H-M   'P 2/c'
_symmetry_Int_Tables_number      13
_space_group_name_Hall           '-P 2yc'
loop_
_symmetry_equiv_pos_site_id
_symmetry_equiv_pos_as_xyz
1 x,y,z
2 -x,y,1/2-z
3 -x,-y,-z
4 x,-y,1/2+z
_cell_length_a                   6.9960(14)
_cell_length_b                   11.563(2)
_cell_length_c                   12.111(4)
_cell_angle_alpha                90
_cell_angle_beta                 112.60(2)
_cell_angle_gamma                90
_cell_volume                     904.484
loop_
_atom_site_label
_atom_site_type_symbol
_atom_site_fract_x
_atom_site_fract_y
_atom_site_fract_z
Mn1 Mn 0.5000 0.10942(4) 0.2500
O1 O 0.2147(3) 0.12630(16) 0.08679(15)
H1 H 0.1279 0.1632 0.1022
O2 O 0.7030(3) 0.09477(13) 0.15112(16)
H2 H 0.7809 0.1499 0.1661
H3 H 0.7618 0.0326 0.1650
N1 N 0.5000 0.3059(2) 0.2500
N2 N 0.5000 0.9187(2) 0.2500
C1 C 0.4656(4) 0.4858(2) 0.14685(19)
H4 H 0.4409 0.5239 0.0750
C2 C 0.4679(4) 0.3661(2) 0.1504(2)
H5 H 0.4462 0.3258 0.0801
C3 C 0.4096(4) 0.8578(2) 0.1488(2)
H6 H 0.3469 0.8981 0.0774
C4 C 0.4048(4) 0.7391(2) 0.14496(19)
H7 H 0.3384 0.7009 0.0727
C5 C 0.5000 0.6765(3) 0.2500
C6 C 0.5000 0.5492(3) 0.2500
Mn1_2 Mn 0.5000 1.10942(4) 0.2500
O1A O 0.7853(3) 0.12630(16) 0.41321(15)
H1A H 0.8721 0.1632 0.3978
O2A O 0.2970(3) 0.09477(13) 0.34888(16)
H2A H 0.2191 0.1499 0.3339
H3A H 0.2382 0.0326 0.3350
N2_2 N 0.5000 -0.0813(2) 0.2500
C1A C 0.5344(4) 0.4858(2) 0.35315(19)
H4A H 0.5591 0.5239 0.4250
C2A C 0.5321(4) 0.3661(2) 0.3496(2)
H5A H 0.5538 0.3258 0.4199
C3A C 0.5904(4) 0.8578(2) 0.3512(2)
H6A H 0.6531 0.8981 0.4226
C4A C 0.5952(4) 0.7391(2) 0.35504(19)
H7A H 0.6616 0.7009 0.4273
O3 O 0.1006(3) 0.88634(14) 0.34650(16)
O4 O 0.0564(3) 0.28002(15) 0.34986(15)
C7 C 0.0000 0.8354(3) 0.2500
C8 C 0.0000 0.7038(3) 0.2500
C9 C 0.0455(4) 0.6426(2) 0.35531(19)
H8 H 0.0777 0.6825 0.4269
C10 C 0.0437(4) 0.5225(2) 0.35567(19)
H9 H 0.0719 0.4829 0.4271
C11 C 0.0000 0.4608(3) 0.2500
C12 C 0.0000 0.3308(3) 0.2500
O3A O -0.1006(3) 0.88634(14) 0.15350(16)
O4A O -0.0564(3) 0.28002(15) 0.15014(15)
C9A C -0.0455(4) 0.6426(2) 0.14469(19)
H8A H -0.0777 0.6825 0.0731
C10A C -0.0437(4) 0.5225(2) 0.14433(19)
H9A H -0.0719 0.4829 0.0729
loop_
_geom_bond_atom_site_label_1
_geom_bond_atom_site_label_2
_geom_bond_site_symmetry_1
_geom_bond_site_symmetry_2
Mn1 O1 1_555 1_555
O1 H1 1_555 1_555
O2 Mn1 1_555 1_555
H2 O2 1_555 1_555
H3 O2 1_555 1_555
N1 Mn1 1_555 1_555
N2 C3 1_555 1_555
C1 H4 1_555 1_555
C2 N1 1_555 1_555
H5 C2 1_555 1_555
C3 H6 1_555 1_555
C4 C3 1_555 1_555
H7 C4 1_555 1_555
C5 C4 1_555 1_555
C6 C1 1_555 1_555
O3 C7 1_555 1_555
O4 C12 1_555 1_555
C7 C8 1_555 1_555
C8 C9 1_555 1_555
C9 H8 1_555 1_555
C10 C9 1_555 1_555
H9 C10 1_555 1_555
C11 C10 1_555 1_555
C12 C11 1_555 1_555
Mn1_2 N2 1_555 1_555
O1A Mn1 1_555 1_555
H1A O1A 1_555 1_555
O2A Mn1 1_555 1_555
H2A O2A 1_555 1_555
H3A O2A 1_555 1_555
N2_2 Mn1 1_555 1_555
C1A C6 1_555 1_555
H4A C1A 1_555 1_555
C2A N1 1_555 1_555
H5A C2A 1_555 1_555
C3A N2 1_555 1_555
H6A C3A 1_555 1_555
C4A C5 1_555 1_555
H7A C4A 1_555 1_555
O3A C7 1_555 1_555
O4A C12 1_555 1_555
C9A C8 1_555 1_555
H8A C9A 1_555 1_555
C10A C11 1_555 1_555
H9A C10A 1_555 1_555
C1 C2 1_555 1_555
C5 C6 1_555 1_555
C1A C2A 1_555 1_555
C3A C4A 1_555 1_555
C9A C10A 1_555 1_555

#END
