
#######################################################################
#
#                 Cambridge Crystallographic Data Centre
#                                CCDC 
#
#######################################################################
#
# If this CIF has been generated from an entry in the Cambridge 
# Structural Database, then it will include bibliographic, chemical, 
# crystal, experimental, refinement or atomic coordinate data resulting 
# from the CCDC's data processing and validation procedures.
#
#######################################################################

data_VAHQIF03
_symmetry_cell_setting           monoclinic
_symmetry_space_group_name_H-M   'P 2/n'
_symmetry_Int_Tables_number      13
_space_group_name_Hall           '-P 2yac'
loop_
_symmetry_equiv_pos_site_id
_symmetry_equiv_pos_as_xyz
1 x,y,z
2 1/2-x,y,1/2-z
3 -x,-y,-z
4 1/2+x,-y,1/2+z
_cell_length_a                   7.016(4)
_cell_length_b                   11.587(6)
_cell_length_c                   11.436(6)
_cell_angle_alpha                90
_cell_angle_beta                 101.790(5)
_cell_angle_gamma                90
_cell_volume                     910.069
loop_
_atom_site_label
_atom_site_type_symbol
_atom_site_fract_x
_atom_site_fract_y
_atom_site_fract_z
Mn1 Mn 0.7500 0.609480(19) 0.2500
O3 O 0.87281(16) 0.62638(9) 0.08740(9)
O4 O 0.44788(14) 0.59505(8) 0.15154(9)
N1 N 0.7500 0.80570(12) 0.2500
N2 N 0.7500 1.41842(12) 0.2500
C1 C 0.68320(19) 0.86615(11) 0.14991(11)
C2 C 0.68101(18) 0.98563(10) 0.14648(10)
C3 C 0.7500 1.04855(14) 0.2500
C4 C 0.7500 1.17651(13) 0.2500
C5 C 0.73979(18) 1.23909(10) 0.14458(10)
C6 C 0.7399(2) 1.35833(11) 0.14864(11)
H1 H 0.6362 0.8259 0.0796
H2 H 0.6334 1.0238 0.0749
H3 H 0.7329 1.2009 0.0723
H4 H 0.7327 1.3988 0.0777
H7 H 0.826(4) 0.6231(16) 0.009(3)
H8 H 0.982(4) 0.661(2) 0.102(2)
H9 H 0.363(3) 0.6512(19) 0.1539(17)
H10 H 0.388(3) 0.5356(19) 0.1576(17)
Mn1_2 Mn 0.7500 1.609480(19) 0.2500
O3A O 0.62719(16) 0.62638(9) 0.41260(9)
O4A O 1.05212(14) 0.59505(8) 0.34846(9)
N2_2 N 0.7500 0.41842(12) 0.2500
C1A C 0.81680(19) 0.86615(11) 0.35009(11)
C2A C 0.81899(18) 0.98563(10) 0.35352(10)
C5A C 0.76021(18) 1.23909(10) 0.35542(10)
C6A C 0.7601(2) 1.35833(11) 0.35136(11)
H1A H 0.8638 0.8259 0.4204
H2A H 0.8666 1.0238 0.4251
H3A H 0.7671 1.2009 0.4277
H4A H 0.7673 1.3988 0.4223
H7A H 0.674(4) 0.6231(16) 0.491(3)
H8A H 0.518(4) 0.661(2) 0.398(2)
H9A H 1.137(3) 0.6512(19) 0.3461(17)
H10A H 1.112(3) 0.5356(19) 0.3424(17)
O1 O 0.74462(17) 0.61368(8) -0.15354(8)
O2 O 0.79350(15) 1.22014(8) -0.15012(8)
C7 C 0.7500 0.66435(14) -0.2500
C8 C 0.7500 0.79589(14) -0.2500
C9 C 0.80989(18) 0.85736(11) -0.14397(10)
C10 C 0.81142(17) 0.97761(11) -0.14421(10)
C11 C 0.7500 1.03896(14) -0.2500
C12 C 0.7500 1.16957(14) -0.2500
H5 H 0.8492 0.8177 -0.0724
H6 H 0.8539 1.0173 -0.0730
O1A O 0.75538(17) 0.61368(8) -0.34646(8)
O2A O 0.70650(15) 1.22014(8) -0.34988(8)
C9A C 0.69011(18) 0.85736(11) -0.35603(10)
C10A C 0.68858(17) 0.97761(11) -0.35579(10)
H5A H 0.6508 0.8177 -0.4276
H6A H 0.6461 1.0173 -0.4270
loop_
_geom_bond_atom_site_label_1
_geom_bond_atom_site_label_2
_geom_bond_site_symmetry_1
_geom_bond_site_symmetry_2
Mn1 O3 1_555 1_555
O1 C7 1_555 1_555
O2 C12 1_555 1_555
O3 H7 1_555 1_555
O4 Mn1 1_555 1_555
N1 Mn1 1_555 1_555
N2 C6 1_555 1_555
C1 N1 1_555 1_555
C2 C1 1_555 1_555
C3 C2 1_555 1_555
C4 C3 1_555 1_555
C5 C4 1_555 1_555
C6 C5 1_555 1_555
C7 C8 1_555 1_555
C8 C9 1_555 1_555
C9 C10 1_555 1_555
C10 C11 1_555 1_555
C11 C12 1_555 1_555
C12 O2A 1_555 1_555
H1 C1 1_555 1_555
H2 C2 1_555 1_555
H3 C5 1_555 1_555
H4 C6 1_555 1_555
H5 C9 1_555 1_555
H6 C10 1_555 1_555
H8 O3 1_555 1_555
H9 O4 1_555 1_555
H10 O4 1_555 1_555
Mn1_2 N2 1_555 1_555
O1A C7 1_555 1_555
O3A Mn1 1_555 1_555
O4A Mn1 1_555 1_555
N2_2 Mn1 1_555 1_555
C1A N1 1_555 1_555
C2A C3 1_555 1_555
C5A C4 1_555 1_555
C6A N2 1_555 1_555
C9A C8 1_555 1_555
C10A C11 1_555 1_555
H1A C1A 1_555 1_555
H2A C2A 1_555 1_555
H3A C5A 1_555 1_555
H4A C6A 1_555 1_555
H5A C9A 1_555 1_555
H6A C10A 1_555 1_555
H7A O3A 1_555 1_555
H8A O3A 1_555 1_555
H9A O4A 1_555 1_555
H10A O4A 1_555 1_555
C1A C2A 1_555 1_555
C5A C6A 1_555 1_555
C9A C10A 1_555 1_555

#END
