
#######################################################################
#
#                 Cambridge Crystallographic Data Centre
#                                CCDC 
#
#######################################################################
#
# If this CIF has been generated from an entry in the Cambridge 
# Structural Database, then it will include bibliographic, chemical, 
# crystal, experimental, refinement or atomic coordinate data resulting 
# from the CCDC's data processing and validation procedures.
#
#######################################################################

data_VAHSAA
_symmetry_cell_setting           rhombohedral
_symmetry_space_group_name_H-M   'R 3 2'
_symmetry_Int_Tables_number      155
_space_group_name_Hall           'R 3 2"'
loop_
_symmetry_equiv_pos_site_id
_symmetry_equiv_pos_as_xyz
1 x,y,z
2 -y,x-y,z
3 -x+y,-x,z
4 y,x,-z
5 x-y,-y,-z
6 -x,-x+y,-z
7 2/3+x,1/3+y,1/3+z
8 2/3-y,1/3+x-y,1/3+z
9 2/3-x+y,1/3-x,1/3+z
10 2/3+y,1/3+x,1/3-z
11 2/3+x-y,1/3-y,1/3-z
12 2/3-x,1/3-x+y,1/3-z
13 1/3+x,2/3+y,2/3+z
14 1/3-y,2/3+x-y,2/3+z
15 1/3-x+y,2/3-x,2/3+z
16 1/3+y,2/3+x,2/3-z
17 1/3+x-y,2/3-y,2/3-z
18 1/3-x,2/3-x+y,2/3-z
_cell_length_a                   9.6396(8)
_cell_length_b                   9.6396(8)
_cell_length_c                   20.7433(16)
_cell_angle_alpha                90
_cell_angle_beta                 90
_cell_angle_gamma                120
_cell_volume                     1669.27
loop_
_atom_site_label
_atom_site_type_symbol
_atom_site_fract_x
_atom_site_fract_y
_atom_site_fract_z
Gd1 Gd 1.0000 1.0000 0.766162(7)
C1 C 0.7975(3) 0.6667 0.6667
C2 C 0.6902(3) 0.6461(3) 0.72650(13)
O1 O 0.9450(2) 0.8022(2) 0.67979(9)
H1 H 1.005(4) 0.808(4) 0.6532(16)
O2 O 0.7335(3) 0.7681(3) 0.76079(10)
O3 O 0.5680(3) 0.5140(3) 0.73445(12)
O4 O 0.9858(3) 0.8185(3) 0.84797(13)
H2 H 0.907(3) 0.742(4) 0.8603(18)
H3 H 1.060(3) 0.823(5) 0.8671(18)
Gd1I Gd 0.6667 0.3333 0.567171(7)
Gd1I_2 Gd 1.6667 1.3333 0.567171(7)
Gd1I_3 Gd 0.6667 1.3333 0.567171(7)
C1A C 1.3333 1.1308(3) 0.6667
C1B C 0.8692(3) 1.2025(3) 0.6667
C2J C 0.7108(4) 0.6872(3) 0.60683(13)
C2A C 1.3539(3) 1.0441(4) 0.72650(13)
C2I C 1.3128(3) 1.0235(3) 0.60683(13)
C2B C 0.9559(4) 1.3098(3) 0.72650(13)
C2K C 0.9765(3) 1.2892(4) 0.60683(13)
O1J O 0.8095(3) 0.5311(2) 0.65354(9)
O1A O 1.1978(2) 1.1428(3) 0.67979(9)
O1I O 1.4689(2) 1.2783(2) 0.65354(9)
O1B O 0.8572(3) 1.0550(2) 0.67979(9)
O1K O 0.7217(2) 1.1905(3) 0.65354(9)
O1K_2 O 0.7217(2) 0.1905(3) 0.65354(9)
O1I_2 O 0.4689(2) 0.2783(2) 0.65354(9)
H1J H 0.864(6) 0.525(4) 0.6801(16)
H1A H 1.192(4) 1.197(6) 0.6532(16)
H1I H 1.475(4) 1.338(4) 0.6801(16)
H1B H 0.803(6) 0.995(4) 0.6532(16)
H1K H 0.662(4) 1.136(6) 0.6801(16)
H1K_2 H 0.662(4) 0.136(6) 0.6801(16)
H1I_2 H 0.475(4) 0.338(4) 0.6801(16)
O2J O 0.6321(4) 0.5652(3) 0.57254(10)
O2A O 1.2319(3) 0.9654(4) 0.76079(10)
O2I O 1.4348(3) 1.0668(3) 0.57254(10)
O2B O 1.0346(4) 1.2665(3) 0.76079(10)
O2K O 0.9332(3) 1.3679(4) 0.57254(10)
O2K_2 O 0.9332(3) 0.3679(4) 0.57254(10)
O2I_2 O 0.4348(3) 0.0668(3) 0.57254(10)
O3J O 0.7207(4) 0.8193(3) 0.59888(12)
O3A O 1.4860(3) 1.0540(4) 0.73445(12)
O3I O 1.1807(3) 0.9013(3) 0.59888(12)
O3B O 0.9460(4) 1.4320(3) 0.73445(12)
O3K O 1.0987(3) 1.2793(4) 0.59888(12)
O4A O 1.1815(3) 1.1673(4) 0.84797(13)
O4B O 0.8327(4) 1.0142(3) 0.84797(13)
O4J O 0.8340(4) 0.5148(3) 0.48536(13)
O4K O 0.6809(3) 0.1660(4) 0.48536(13)
O4I O 0.4852(3) 0.3191(3) 0.48536(13)
H2A H 1.258(4) 1.165(5) 0.8603(18)
H2B H 0.835(5) 1.093(3) 0.8603(18)
H2J H 0.832(5) 0.591(4) 0.4730(18)
H2K H 0.760(3) 0.168(5) 0.4730(18)
H2I H 0.409(4) 0.240(3) 0.4730(18)
H3A H 1.177(5) 1.237(6) 0.8671(18)
H3B H 0.763(6) 0.940(3) 0.8671(18)
H3J H 0.904(6) 0.510(5) 0.4662(18)
H3K H 0.607(3) 0.096(6) 0.4662(18)
H3I H 0.490(5) 0.393(3) 0.4662(18)
loop_
_geom_bond_atom_site_label_1
_geom_bond_atom_site_label_2
_geom_bond_site_symmetry_1
_geom_bond_site_symmetry_2
Gd1 O1 1_555 1_555
C1 C2 1_555 1_555
C2 O2 1_555 1_555
O1 C1 1_555 1_555
H1 O1 1_555 1_555
O2 Gd1 1_555 1_555
O3 C2 1_555 1_555
O4 Gd1 1_555 1_555
H2 O4 1_555 1_555
H3 O4 1_555 1_555
Gd1I O1J 1_555 1_555
Gd1I_2 O1I 1_555 1_555
Gd1I_3 O1K 1_555 1_555
C1A C2A 1_555 1_555
C1B C2B 1_555 1_555
C2J C1 1_555 1_555
C2A O2A 1_555 1_555
C2I C1A 1_555 1_555
C2B O2B 1_555 1_555
C2K C1B 1_555 1_555
O1J C1 1_555 1_555
O1A Gd1 1_555 1_555
O1I C1A 1_555 1_555
O1B Gd1 1_555 1_555
O1K C1B 1_555 1_555
O1K_2 Gd1I 1_555 1_555
O1I_2 Gd1I 1_555 1_555
H1J O1J 1_555 1_555
H1A O1A 1_555 1_555
H1I O1I 1_555 1_555
H1B O1B 1_555 1_555
H1K O1K 1_555 1_555
H1K_2 O1K_2 1_555 1_555
H1I_2 O1I_2 1_555 1_555
O2J Gd1I 1_555 1_555
O2A Gd1 1_555 1_555
O2I Gd1I_2 1_555 1_555
O2B Gd1 1_555 1_555
O2K Gd1I_3 1_555 1_555
O2K_2 Gd1I 1_555 1_555
O2I_2 Gd1I 1_555 1_555
O3J C2J 1_555 1_555
O3A C2A 1_555 1_555
O3I C2I 1_555 1_555
O3B C2B 1_555 1_555
O3K C2K 1_555 1_555
O4A Gd1 1_555 1_555
O4B Gd1 1_555 1_555
O4J Gd1I 1_555 1_555
O4K Gd1I 1_555 1_555
O4I Gd1I 1_555 1_555
H2A O4A 1_555 1_555
H2B O4B 1_555 1_555
H2J O4J 1_555 1_555
H2K O4K 1_555 1_555
H2I O4I 1_555 1_555
H3A O4A 1_555 1_555
H3B O4B 1_555 1_555
H3J O4J 1_555 1_555
H3K O4K 1_555 1_555
H3I O4I 1_555 1_555
C1A O1A 1_555 1_555
C1B O1B 1_555 1_555
C2J O2J 1_555 1_555
C2I O2I 1_555 1_555
C2K O2K 1_555 1_555

#END
