
#######################################################################
#
#                 Cambridge Crystallographic Data Centre
#                                CCDC 
#
#######################################################################
#
# If this CIF has been generated from an entry in the Cambridge 
# Structural Database, then it will include bibliographic, chemical, 
# crystal, experimental, refinement or atomic coordinate data resulting 
# from the CCDC's data processing and validation procedures.
#
#######################################################################

data_VAHTUV
_symmetry_cell_setting           orthorhombic
_symmetry_space_group_name_H-M   'P c a 21'
_symmetry_Int_Tables_number      29
_space_group_name_Hall           'P 2c -2ac'
loop_
_symmetry_equiv_pos_site_id
_symmetry_equiv_pos_as_xyz
1 x,y,z
2 -x,-y,1/2+z
3 1/2+x,-y,z
4 1/2-x,y,1/2+z
_cell_length_a                   25.0250(15)
_cell_length_b                   5.5727(3)
_cell_length_c                   14.7787(9)
_cell_angle_alpha                90
_cell_angle_beta                 90
_cell_angle_gamma                90
_cell_volume                     2060.99
loop_
_atom_site_label
_atom_site_type_symbol
_atom_site_fract_x
_atom_site_fract_y
_atom_site_fract_z
Ag1 Ag 0.691605(12) 0.24842(6) 0.31646(4)
N1 N 0.64066(17) -0.2250(7) 0.2638(3)
S1 S 0.73793(5) 0.26810(18) 0.69591(8)
S2 S 0.66690(4) 0.30663(19) 0.47978(9)
O1 O 0.61738(12) 0.5814(6) 0.8080(3)
O2 O 0.54733(13) 0.5030(6) 0.6278(2)
O3 O 0.68133(13) -0.2180(5) 0.3133(5)
O4 O 0.62012(16) -0.0328(7) 0.2382(3)
O5 O 0.62193(15) -0.4229(7) 0.2404(3)
C1 C 0.5429(2) 0.7926(9) 0.7474(4)
H1 H 0.5155 0.9150 0.7614
H2 H 0.5681 0.8638 0.7033
C2 C 0.5734(2) 0.7341(8) 0.8338(4)
H3 H 0.5868 0.8830 0.8624
H4 H 0.5498 0.6504 0.8774
C3 C 0.63914(16) 0.4427(8) 0.8752(3)
C4 C 0.63235(16) 0.4863(8) 0.9685(4)
H5 H 0.6129 0.6231 0.9882
C5 C 0.6539(2) 0.3303(10) 1.0312(4)
H6 H 0.6492 0.3598 1.0940
C6 C 0.68271(18) 0.1288(9) 1.0025(3)
H7 H 0.6971 0.0196 1.0455
C7 C 0.68988(17) 0.0907(9) 0.9108(3)
H8 H 0.7102 -0.0439 0.8915
C8 C 0.66835(19) 0.2430(7) 0.8461(3)
C9 C 0.67339(18) 0.1866(8) 0.7475(3)
H9 H 0.6446 0.2714 0.7146
H10 H 0.6676 0.0123 0.7391
C10 C 0.73177(19) 0.5914(8) 0.6781(3)
H11 H 0.7209 0.6668 0.7359
H12 H 0.7674 0.6560 0.6620
C11 C 0.69208(19) 0.6654(9) 0.6051(3)
H13 H 0.6562 0.6065 0.6222
H14 H 0.6905 0.8428 0.6029
C12 C 0.70535(17) 0.5726(8) 0.5111(3)
H15 H 0.7439 0.5335 0.5085
H16 H 0.6984 0.7011 0.4664
C13 C 0.60033(15) 0.4415(8) 0.4650(3)
H17 H 0.5983 0.5923 0.5002
H18 H 0.5949 0.4815 0.4004
C14 C 0.55731(18) 0.2754(7) 0.4954(4)
C15 C 0.54357(19) 0.0784(9) 0.4413(4)
H19 H 0.5626 0.0472 0.3870
C16 C 0.5011(2) -0.0740(9) 0.4679(4)
H20 H 0.4932 -0.2142 0.4339
C17 C 0.4715(2) -0.0188(11) 0.5428(4)
H21 H 0.4414 -0.1148 0.5576
C18 C 0.4847(2) 0.1759(11) 0.5978(4)
H22 H 0.4638 0.2116 0.6498
C19 C 0.52918(18) 0.3192(9) 0.5754(4)
C20 C 0.51591(19) 0.5783(10) 0.7041(4)
H23 H 0.5130 0.4457 0.7484
H24 H 0.4795 0.6225 0.6840
Ag1C Ag 0.808395(12) 0.24842(6) 0.81646(4)
S1C S 0.76207(5) 0.26810(18) 0.19591(8)
loop_
_geom_bond_atom_site_label_1
_geom_bond_atom_site_label_2
_geom_bond_site_symmetry_1
_geom_bond_site_symmetry_2
Ag1 S2 1_555 1_555
N1 O3 1_555 1_555
S1 C9 1_555 1_555
S2 C12 1_555 1_555
O1 C2 1_555 1_555
O2 C19 1_555 1_555
O3 Ag1 1_555 1_555
O4 Ag1 1_555 1_555
O5 N1 1_555 1_555
C1 H1 1_555 1_555
H2 C1 1_555 1_555
C2 C1 1_555 1_555
H3 C2 1_555 1_555
H4 C2 1_555 1_555
C3 O1 1_555 1_555
C4 C3 1_555 1_555
H5 C4 1_555 1_555
C5 C4 1_555 1_555
H6 C5 1_555 1_555
C6 C5 1_555 1_555
H7 C6 1_555 1_555
C7 C6 1_555 1_555
H8 C7 1_555 1_555
C8 C3 1_555 1_555
C9 C8 1_555 1_555
H9 C9 1_555 1_555
H10 C9 1_555 1_555
C10 S1 1_555 1_555
H11 C10 1_555 1_555
H12 C10 1_555 1_555
C11 C10 1_555 1_555
H13 C11 1_555 1_555
H14 C11 1_555 1_555
C12 C11 1_555 1_555
H15 C12 1_555 1_555
H16 C12 1_555 1_555
C13 S2 1_555 1_555
H17 C13 1_555 1_555
H18 C13 1_555 1_555
C14 C13 1_555 1_555
C15 C14 1_555 1_555
H19 C15 1_555 1_555
C16 C15 1_555 1_555
H20 C16 1_555 1_555
C17 C16 1_555 1_555
H21 C17 1_555 1_555
C18 C17 1_555 1_555
H22 C18 1_555 1_555
C19 C14 1_555 1_555
C20 O2 1_555 1_555
H23 C20 1_555 1_555
H24 C20 1_555 1_555
Ag1C S1 1_555 1_555
S1C Ag1 1_555 1_555
N1 O4 1_555 1_555
C1 C20 1_555 1_555
C7 C8 1_555 1_555
C18 C19 1_555 1_555

#END
