
#######################################################################
#
#                 Cambridge Crystallographic Data Centre
#                                CCDC 
#
#######################################################################
#
# If this CIF has been generated from an entry in the Cambridge 
# Structural Database, then it will include bibliographic, chemical, 
# crystal, experimental, refinement or atomic coordinate data resulting 
# from the CCDC's data processing and validation procedures.
#
#######################################################################

data_VAHTOO
_symmetry_cell_setting           monoclinic
_symmetry_space_group_name_H-M   'P 21/c'
_symmetry_Int_Tables_number      14
_space_group_name_Hall           '-P 2ybc'
loop_
_symmetry_equiv_pos_site_id
_symmetry_equiv_pos_as_xyz
1 x,y,z
2 -x,1/2+y,1/2-z
3 -x,-y,-z
4 x,1/2-y,1/2+z
_cell_length_a                   8.7108(1)
_cell_length_b                   9.9451(13)
_cell_length_c                   8.4311(2)
_cell_angle_alpha                90
_cell_angle_beta                 93.75(1)
_cell_angle_gamma                90
_cell_volume                     728.821
loop_
_atom_site_label
_atom_site_type_symbol
_atom_site_fract_x
_atom_site_fract_y
_atom_site_fract_z
Cd1 Cd 0.3756(1) 0.2421(1) 0.1380(1)
O1 O 0.5964(5) 0.1441(4) 0.0715(6)
O2 O 0.5044(5) 0.4353(4) 0.1938(5)
O3 O 0.6934(5) -0.0488(5) -0.0068(5)
O4 O 0.5888(5) 0.6327(4) 0.1091(5)
N1 N 0.1300(6) 0.2985(7) 0.1459(7)
C1 C 0.0641(9) 0.4118(8) 0.2010(10)
C2 C -0.1187(8) 0.2788(11) 0.1179(12)
N2 N -0.0907(9) 0.3984(10) 0.1854(11)
C3 C 0.0155(10) 0.2208(8) 0.0975(12)
C4 C 0.5839(7) 0.0272(7) 0.0187(8)
C5 C 0.5265(7) 0.5195(6) 0.0881(7)
C4B C 0.4161(7) -0.0272(7) -0.0187(8)
O1B O 0.4036(5) -0.1441(4) -0.0715(6)
O3B O 0.3066(5) 0.0488(5) 0.0068(5)
C5B C 0.4735(7) 0.4805(6) -0.0881(7)
O2B O 0.4956(5) 0.5647(4) -0.1938(5)
O4B O 0.4112(5) 0.3673(4) -0.1091(5)
Cd1B Cd 0.6244(1) -0.2421(1) -0.1380(1)
N1B N 0.8700(6) -0.2985(7) -0.1459(7)
C1B C 0.9359(9) -0.4118(8) -0.2010(10)
C2B C 1.1187(8) -0.2788(11) -0.1179(12)
N2B N 1.0907(9) -0.3984(10) -0.1854(11)
C3B C 0.9845(10) -0.2208(8) -0.0975(12)
O4A O 0.4112(5) 0.1327(4) 0.3909(5)
Cd1A Cd 0.6244(1) 0.7421(1) 0.3620(1)
Cd1B_2 Cd 0.6244(1) 0.7579(1) -0.1380(1)
Cd1C Cd 0.3756(1) 0.2579(1) -0.3620(1)
O2B_2 O 0.4956(5) -0.4353(4) -0.1938(5)
O4_2 O 0.5888(5) -0.3673(4) 0.1091(5)
O4C O 0.5888(5) -0.1327(4) -0.3909(5)
loop_
_geom_bond_atom_site_label_1
_geom_bond_atom_site_label_2
_geom_bond_site_symmetry_1
_geom_bond_site_symmetry_2
Cd1 O1 1_555 1_555
O1 C4 1_555 1_555
O2 Cd1 1_555 1_555
O3 C4 1_555 1_555
O4 C5 1_555 1_555
N1 Cd1 1_555 1_555
C1 N1 1_555 1_555
C2 N2 1_555 1_555
N2 C1 1_555 1_555
C3 N1 1_555 1_555
C4 C4B 1_555 1_555
C5 O2 1_555 1_555
C4B O1B 1_555 1_555
O1B Cd1B 1_555 1_555
O3B Cd1 1_555 1_555
C5B C5 1_555 1_555
O2B C5B 1_555 1_555
O4B Cd1 1_555 1_555
Cd1B O3 1_555 1_555
N1B Cd1B 1_555 1_555
C1B N1B 1_555 1_555
C2B N2B 1_555 1_555
N2B C1B 1_555 1_555
C3B N1B 1_555 1_555
O4A Cd1 1_555 1_555
Cd1A O4 1_555 1_555
Cd1B_2 O4 1_555 1_555
Cd1C O4B 1_555 1_555
O2B_2 Cd1B 1_555 1_555
O4_2 Cd1B 1_555 1_555
O4C Cd1B 1_555 1_555
C2 C3 1_555 1_555
C4B O3B 1_555 1_555
C5B O4B 1_555 1_555
O2B Cd1B_2 1_555 1_555
C2B C3B 1_555 1_555

#END
