
#######################################################################
#
#                 Cambridge Crystallographic Data Centre
#                                CCDC 
#
#######################################################################
#
# If this CIF has been generated from an entry in the Cambridge 
# Structural Database, then it will include bibliographic, chemical, 
# crystal, experimental, refinement or atomic coordinate data resulting 
# from the CCDC's data processing and validation procedures.
#
#######################################################################

data_VAHVEH
_symmetry_cell_setting           monoclinic
_symmetry_space_group_name_H-M   'P 21/c'
_symmetry_Int_Tables_number      14
_space_group_name_Hall           '-P 2ybc'
loop_
_symmetry_equiv_pos_site_id
_symmetry_equiv_pos_as_xyz
1 x,y,z
2 -x,1/2+y,1/2-z
3 -x,-y,-z
4 x,1/2-y,1/2+z
_cell_length_a                   10.7047(7)
_cell_length_b                   17.0508(11)
_cell_length_c                   13.6200(9)
_cell_angle_alpha                90
_cell_angle_beta                 105.185(2)
_cell_angle_gamma                90
_cell_volume                     2399.18
loop_
_atom_site_label
_atom_site_type_symbol
_atom_site_fract_x
_atom_site_fract_y
_atom_site_fract_z
Ag1 Ag 0.57985(4) 0.38962(3) -0.41781(3)
F1 F 0.8868(5) 0.5216(3) -0.5763(3)
F2 F 0.9014(5) 0.6395(3) -0.5224(4)
F3 F 0.7449(4) 0.6059(3) -0.6476(3)
S1 S 0.55596(14) 0.43036(8) -0.25189(10)
S2 S 0.66030(14) 0.21959(8) -0.00218(10)
S3 S 0.72623(14) 0.55824(9) -0.46910(12)
O1 O 0.6705(4) 0.4539(2) 0.0078(3)
O2 O 0.9083(4) 0.3430(2) 0.0990(3)
O3 O 0.8220(4) 0.5395(3) -0.3771(3)
O4 O 0.6498(5) 0.4919(3) -0.5179(4)
O5 O 0.6524(4) 0.6269(3) -0.4666(4)
C1 C 0.8209(7) 0.4517(4) 0.1790(5)
H1 H 0.8316 0.5088 0.1917
H2 H 0.8315 0.4254 0.2455
C2 C 0.6848(6) 0.4361(4) 0.1129(5)
H3 H 0.6632 0.3802 0.1192
H4 H 0.6225 0.4680 0.1382
C3 C 0.6786(6) 0.5304(4) -0.0212(4)
C4 C 0.6648(6) 0.5950(4) 0.0364(5)
H5 H 0.6529 0.5882 0.1025
C5 C 0.6684(6) 0.6693(4) -0.0024(6)
H6 H 0.6576 0.7136 0.0370
C6 C 0.6874(7) 0.6801(4) -0.0976(6)
H7 H 0.6896 0.7315 -0.1242
C7 C 0.7030(7) 0.6154(4) -0.1539(5)
H8 H 0.7179 0.6230 -0.2190
C8 C 0.6977(6) 0.5400(3) -0.1186(4)
C9 C 0.7139(6) 0.4701(4) -0.1800(5)
H9 H 0.7624 0.4290 -0.1342
H10 H 0.7650 0.4850 -0.2281
C10 C 0.5410(6) 0.3396(3) -0.1865(5)
H11 H 0.5605 0.3510 -0.1128
H12 H 0.4495 0.3225 -0.2087
C11 C 0.6249(6) 0.2713(3) -0.2010(4)
H13 H 0.7171 0.2871 -0.1798
H14 H 0.6036 0.2568 -0.2739
C12 C 0.6040(7) 0.2005(3) -0.1386(5)
H15 H 0.6512 0.1549 -0.1560
H16 H 0.5108 0.1873 -0.1562
C13 C 0.8316(6) 0.1979(4) 0.0217(4)
H17 H 0.8430 0.1429 0.0024
H18 H 0.8706 0.2326 -0.0205
C14 C 0.8986(5) 0.2098(3) 0.1312(4)
C15 C 0.9249(6) 0.1463(4) 0.1978(5)
H19 H 0.8991 0.0952 0.1728
C16 C 0.9880(6) 0.1561(4) 0.2996(5)
H20 H 1.0054 0.1122 0.3440
C17 C 1.0254(6) 0.2304(4) 0.3358(5)
H21 H 1.0693 0.2375 0.4055
C18 C 0.9994(6) 0.2946(4) 0.2717(5)
H22 H 1.0250 0.3455 0.2974
C19 C 0.9355(6) 0.2843(4) 0.1695(5)
C20 C 0.9258(7) 0.4232(4) 0.1317(5)
H23 H 0.9266 0.4568 0.0726
H24 H 1.0109 0.4287 0.1820
C21 C 0.8205(6) 0.5821(4) -0.5584(5)
Ag1B Ag 0.42015(4) 0.61038(3) -0.58219(3)
Ag1A Ag 0.42015(4) 0.88962(3) -1.08219(3)
Ag1C Ag 0.57985(4) 0.11038(3) 0.08219(3)
F1B F 0.1132(5) 0.4784(3) -0.4237(3)
F2B F 0.0986(5) 0.3605(3) -0.4776(4)
F3B F 0.2551(4) 0.3941(3) -0.3524(3)
S1B S 0.44404(14) 0.56964(8) -0.74811(10)
S2B S 0.33970(14) 0.78041(8) -0.99782(10)
S2A S 0.33970(14) 0.71959(8) -0.49782(10)
S2C S 0.66030(14) 0.28041(8) -0.50218(10)
S3B S 0.27377(14) 0.44176(9) -0.53090(12)
O1B O 0.3295(4) 0.5461(2) -1.0078(3)
O2B O 0.0917(4) 0.6570(2) -1.0990(3)
O3B O 0.1780(4) 0.4605(3) -0.6229(3)
O4B O 0.3502(5) 0.5081(3) -0.4821(4)
O5B O 0.3476(4) 0.3731(3) -0.5334(4)
C1B C 0.1791(7) 0.5483(4) -1.1790(5)
H1B H 0.1684 0.4912 -1.1917
H2B H 0.1685 0.5746 -1.2455
C2B C 0.3152(6) 0.5639(4) -1.1129(5)
H3B H 0.3368 0.6198 -1.1192
H4B H 0.3775 0.5320 -1.1382
C3B C 0.3214(6) 0.4696(4) -0.9788(4)
C4B C 0.3352(6) 0.4050(4) -1.0364(5)
H5B H 0.3471 0.4118 -1.1025
C5B C 0.3316(6) 0.3307(4) -0.9976(6)
H6B H 0.3424 0.2864 -1.0370
C6B C 0.3126(7) 0.3199(4) -0.9024(6)
H7B H 0.3104 0.2685 -0.8758
C7B C 0.2970(7) 0.3846(4) -0.8461(5)
H8B H 0.2821 0.3770 -0.7810
C8B C 0.3023(6) 0.4600(3) -0.8814(4)
C9B C 0.2861(6) 0.5299(4) -0.8200(5)
H9B H 0.2376 0.5710 -0.8658
H10B H 0.2350 0.5150 -0.7719
C10B C 0.4590(6) 0.6604(3) -0.8135(5)
H11B H 0.4395 0.6490 -0.8872
H12B H 0.5505 0.6775 -0.7913
C11B C 0.3751(6) 0.7287(3) -0.7990(4)
H13B H 0.2829 0.7129 -0.8202
H14B H 0.3964 0.7432 -0.7261
C12B C 0.3960(7) 0.7995(3) -0.8614(5)
H15B H 0.3488 0.8451 -0.8440
H16B H 0.4892 0.8127 -0.8438
C13B C 0.1684(6) 0.8021(4) -1.0217(4)
H17B H 0.1570 0.8571 -1.0024
H18B H 0.1294 0.7674 -0.9795
C14B C 0.1014(5) 0.7902(3) -1.1312(4)
C15B C 0.0751(6) 0.8537(4) -1.1978(5)
H19B H 0.1009 0.9048 -1.1728
C16B C 0.0120(6) 0.8439(4) -1.2996(5)
H20B H -0.0054 0.8878 -1.3440
C17B C -0.0254(6) 0.7696(4) -1.3358(5)
H21B H -0.0693 0.7625 -1.4055
C18B C 0.0006(6) 0.7054(4) -1.2717(5)
H22B H -0.0250 0.6545 -1.2974
C19B C 0.0645(6) 0.7157(4) -1.1695(5)
C20B C 0.0742(7) 0.5768(4) -1.1317(5)
H23B H 0.0734 0.5432 -1.0726
H24B H -0.0109 0.5713 -1.1820
C21B C 0.1795(6) 0.4179(4) -0.4416(5)
loop_
_geom_bond_atom_site_label_1
_geom_bond_atom_site_label_2
_geom_bond_site_symmetry_1
_geom_bond_site_symmetry_2
Ag1 S1 1_555 1_555
F1 C21 1_555 1_555
F2 C21 1_555 1_555
F3 C21 1_555 1_555
S1 C9 1_555 1_555
S2 C12 1_555 1_555
S3 O3 1_555 1_555
O1 C2 1_555 1_555
O2 C19 1_555 1_555
O4 Ag1 1_555 1_555
O5 S3 1_555 1_555
C1 H1 1_555 1_555
H2 C1 1_555 1_555
C2 C1 1_555 1_555
H3 C2 1_555 1_555
H4 C2 1_555 1_555
C3 O1 1_555 1_555
C4 C3 1_555 1_555
H5 C4 1_555 1_555
C5 C4 1_555 1_555
H6 C5 1_555 1_555
C6 C5 1_555 1_555
H7 C6 1_555 1_555
C7 C6 1_555 1_555
H8 C7 1_555 1_555
C8 C3 1_555 1_555
C9 C8 1_555 1_555
H9 C9 1_555 1_555
H10 C9 1_555 1_555
C10 S1 1_555 1_555
H11 C10 1_555 1_555
H12 C10 1_555 1_555
C11 C10 1_555 1_555
H13 C11 1_555 1_555
H14 C11 1_555 1_555
C12 C11 1_555 1_555
H15 C12 1_555 1_555
H16 C12 1_555 1_555
C13 S2 1_555 1_555
H17 C13 1_555 1_555
H18 C13 1_555 1_555
C14 C13 1_555 1_555
C15 C14 1_555 1_555
H19 C15 1_555 1_555
C16 C15 1_555 1_555
H20 C16 1_555 1_555
C17 C16 1_555 1_555
H21 C17 1_555 1_555
C18 C17 1_555 1_555
H22 C18 1_555 1_555
C19 C14 1_555 1_555
C20 O2 1_555 1_555
H23 C20 1_555 1_555
H24 C20 1_555 1_555
C21 S3 1_555 1_555
Ag1B O5 1_555 1_555
Ag1A S2B 1_555 1_555
Ag1C S2 1_555 1_555
F1B C21B 1_555 1_555
F2B C21B 1_555 1_555
F3B C21B 1_555 1_555
S1B Ag1B 1_555 1_555
S2B C12B 1_555 1_555
S2A Ag1B 1_555 1_555
S2C Ag1 1_555 1_555
S3B O3B 1_555 1_555
O1B C2B 1_555 1_555
O2B C19B 1_555 1_555
O4B Ag1B 1_555 1_555
O5B Ag1 1_555 1_555
C1B H1B 1_555 1_555
H2B C1B 1_555 1_555
C2B C1B 1_555 1_555
H3B C2B 1_555 1_555
H4B C2B 1_555 1_555
C3B O1B 1_555 1_555
C4B C3B 1_555 1_555
H5B C4B 1_555 1_555
C5B C4B 1_555 1_555
H6B C5B 1_555 1_555
C6B C5B 1_555 1_555
H7B C6B 1_555 1_555
C7B C6B 1_555 1_555
H8B C7B 1_555 1_555
C8B C3B 1_555 1_555
C9B S1B 1_555 1_555
H9B C9B 1_555 1_555
H10B C9B 1_555 1_555
C10B S1B 1_555 1_555
H11B C10B 1_555 1_555
H12B C10B 1_555 1_555
C11B C10B 1_555 1_555
H13B C11B 1_555 1_555
H14B C11B 1_555 1_555
C12B C11B 1_555 1_555
H15B C12B 1_555 1_555
H16B C12B 1_555 1_555
C13B S2B 1_555 1_555
H17B C13B 1_555 1_555
H18B C13B 1_555 1_555
C14B C13B 1_555 1_555
C15B C14B 1_555 1_555
H19B C15B 1_555 1_555
C16B C15B 1_555 1_555
H20B C16B 1_555 1_555
C17B C16B 1_555 1_555
H21B C17B 1_555 1_555
C18B C17B 1_555 1_555
H22B C18B 1_555 1_555
C19B C14B 1_555 1_555
C20B O2B 1_555 1_555
H23B C20B 1_555 1_555
H24B C20B 1_555 1_555
C21B S3B 1_555 1_555
S3 O4 1_555 1_555
C1 C20 1_555 1_555
C7 C8 1_555 1_555
C18 C19 1_555 1_555
S3B O4B 1_555 1_555
S3B O5B 1_555 1_555
C1B C20B 1_555 1_555
C7B C8B 1_555 1_555
C8B C9B 1_555 1_555
C18B C19B 1_555 1_555

#END
