
#######################################################################
#
#                 Cambridge Crystallographic Data Centre
#                                CCDC 
#
#######################################################################
#
# If this CIF has been generated from an entry in the Cambridge 
# Structural Database, then it will include bibliographic, chemical, 
# crystal, experimental, refinement or atomic coordinate data resulting 
# from the CCDC's data processing and validation procedures.
#
#######################################################################

data_VAHVOR
_symmetry_cell_setting           monoclinic
_symmetry_space_group_name_H-M   'C 2/c'
_symmetry_Int_Tables_number      15
_space_group_name_Hall           '-C 2yn'
loop_
_symmetry_equiv_pos_site_id
_symmetry_equiv_pos_as_xyz
1 x,y,z
2 -x,y,1/2-z
3 1/2+x,1/2+y,z
4 1/2-x,1/2+y,1/2-z
5 -x,-y,-z
6 x,-y,1/2+z
7 1/2-x,1/2-y,-z
8 1/2+x,1/2-y,1/2+z
_cell_length_a                   28.549(2)
_cell_length_b                   14.4101(11)
_cell_length_c                   13.4766(10)
_cell_angle_alpha                90
_cell_angle_beta                 97.5840(10)
_cell_angle_gamma                90
_cell_volume                     5495.69
loop_
_atom_site_label
_atom_site_type_symbol
_atom_site_fract_x
_atom_site_fract_y
_atom_site_fract_z
Dy1 Dy 0.183280(9) 0.70657(2) 0.96327(2)
O1 O 0.3006(2) 0.7310(4) 0.8750(4)
O2 O 0.23349(19) 0.6509(4) 0.8511(4)
O3 O 0.21012(17) 0.4228(3) 0.5664(4)
O4 O 0.27232(19) 0.3378(3) 0.5533(4)
O5 O 0.6189(2) 0.6828(5) 0.4833(6)
O6 O 0.6106(2) 0.8248(4) 0.5320(5)
O7 O 0.1495(2) 0.7618(5) 0.8038(5)
H1 H 0.1343 0.7247 0.7623
H2 H 0.1527 0.8183 0.7879
O8 O 0.1454(2) 0.5736(5) 0.8798(5)
H3 H 0.1310 0.5789 0.8206
H4 H 0.1462 0.5215 0.9094
N1 N 0.4050(2) 0.5755(5) 0.6415(6)
N2 N 0.4204(3) 0.6543(5) 0.6549(6)
C1 C 0.2943(2) 0.6078(5) 0.7593(5)
C2 C 0.2668(2) 0.5402(5) 0.7066(5)
H5 H 0.2354 0.5335 0.7166
C3 C 0.2853(2) 0.4822(5) 0.6391(6)
C4 C 0.3315(3) 0.4944(5) 0.6212(6)
H6 H 0.3440 0.4560 0.5757
C5 C 0.3587(3) 0.5614(5) 0.6691(6)
C6 C 0.3398(3) 0.6202(5) 0.7381(6)
H7 H 0.3582 0.6677 0.7694
C7 C 0.2531(3) 0.4095(5) 0.5840(6)
C8 C 0.2751(3) 0.6681(6) 0.8347(6)
C9 C 0.4654(3) 0.6694(7) 0.6243(7)
C10 C 0.4941(3) 0.6010(6) 0.5926(8)
H8 H 0.4847 0.5391 0.5917
C11 C 0.5371(3) 0.6259(7) 0.5618(8)
H9 H 0.5568 0.5799 0.5421
C12 C 0.5509(3) 0.7162(6) 0.5602(8)
C13 C 0.5234(4) 0.7847(7) 0.5956(12)
H10 H 0.5329 0.8465 0.5968
C14 C 0.4812(4) 0.7584(7) 0.6295(13)
H11 H 0.4633 0.8034 0.6566
C15 C 0.5968(3) 0.7446(7) 0.5214(7)
Dy1F Dy 0.316720(9) 0.79343(2) 1.03673(2)
Dy1E Dy 0.183280(9) 0.29343(2) 0.46327(2)
Dy1C Dy 0.316720(9) 0.20657(2) 0.53673(2)
Dy1G Dy 0.683280(9) 0.79343(2) 0.46327(2)
O1F O 0.1994(2) 0.7690(4) 1.1250(4)
O3E O 0.21012(17) 0.5772(3) 1.0664(4)
O4C O 0.22768(19) 0.8378(3) 0.9467(4)
O4E O 0.27232(19) 0.6622(3) 1.0533(4)
O5G O 0.1189(2) 0.8172(5) 0.9833(6)
O6G O 0.1106(2) 0.6752(4) 1.0320(5)
loop_
_geom_bond_atom_site_label_1
_geom_bond_atom_site_label_2
_geom_bond_site_symmetry_1
_geom_bond_site_symmetry_2
Dy1 O2 1_555 1_555
O1 C8 1_555 1_555
O2 C8 1_555 1_555
O3 C7 1_555 1_555
O4 C7 1_555 1_555
O5 C15 1_555 1_555
O6 C15 1_555 1_555
O7 Dy1 1_555 1_555
H1 O7 1_555 1_555
H2 O7 1_555 1_555
O8 Dy1 1_555 1_555
H3 O8 1_555 1_555
H4 O8 1_555 1_555
N1 N2 1_555 1_555
N2 C9 1_555 1_555
C1 C2 1_555 1_555
C2 H5 1_555 1_555
C3 C2 1_555 1_555
C4 C3 1_555 1_555
H6 C4 1_555 1_555
C5 N1 1_555 1_555
C6 C1 1_555 1_555
H7 C6 1_555 1_555
C7 C3 1_555 1_555
C8 C1 1_555 1_555
C9 C10 1_555 1_555
C10 H8 1_555 1_555
C11 C10 1_555 1_555
H9 C11 1_555 1_555
C12 C11 1_555 1_555
C13 C12 1_555 1_555
H10 C13 1_555 1_555
C14 C9 1_555 1_555
H11 C14 1_555 1_555
C15 C12 1_555 1_555
Dy1F O1 1_555 1_555
Dy1E O3 1_555 1_555
Dy1C O4 1_555 1_555
Dy1G O5 1_555 1_555
O1F Dy1 1_555 1_555
O3E Dy1 1_555 1_555
O4C Dy1 1_555 1_555
O4E Dy1 1_555 1_555
O5G Dy1 1_555 1_555
O6G Dy1 1_555 1_555
O4 Dy1E 1_555 1_555
O6 Dy1G 1_555 1_555
C4 C5 1_555 1_555
C5 C6 1_555 1_555
C13 C14 1_555 1_555
Dy1F O4C 1_555 1_555
Dy1F O4E 1_555 1_555

#END
