
#######################################################################
#
#                 Cambridge Crystallographic Data Centre
#                                CCDC 
#
#######################################################################
#
# If this CIF has been generated from an entry in the Cambridge 
# Structural Database, then it will include bibliographic, chemical, 
# crystal, experimental, refinement or atomic coordinate data resulting 
# from the CCDC's data processing and validation procedures.
#
#######################################################################

data_VAHWOS
_symmetry_cell_setting           orthorhombic
_symmetry_space_group_name_H-M   'P 21 21 21'
_symmetry_Int_Tables_number      19
_space_group_name_Hall           'P 2ac 2ab'
loop_
_symmetry_equiv_pos_site_id
_symmetry_equiv_pos_as_xyz
1 x,y,z
2 1/2-x,-y,1/2+z
3 -x,1/2+y,1/2-z
4 1/2+x,1/2-y,-z
_cell_length_a                   8.1094(3)
_cell_length_b                   8.7499(4)
_cell_length_c                   13.0128(5)
_cell_angle_alpha                90
_cell_angle_beta                 90
_cell_angle_gamma                90
_cell_volume                     923.342
loop_
_atom_site_label
_atom_site_type_symbol
_atom_site_fract_x
_atom_site_fract_y
_atom_site_fract_z
Zn1 Zn 0.02226(3) 0.59063(3) 0.118511(17)
N1 N -0.1060(2) 0.6504(3) -0.00611(14)
N2 N -0.2251(3) 0.7503(3) -0.00088(16)
N3 N -0.2668(2) 0.7860(3) -0.09837(14)
N4 N -0.0644(2) 0.6176(3) -0.10390(13)
N5 N -0.0784(3) 0.6863(3) -0.75466(14)
N6 N -0.0574(2) 0.8337(3) -0.74806(13)
N7 N -0.0762(2) 0.8725(3) -0.64878(13)
N8 N -0.1141(2) 0.6220(3) -0.66206(14)
C1 C -0.1659(3) 0.7035(3) -0.15904(17)
C2 C -0.1608(3) 0.7103(3) -0.27281(17)
C3 C -0.2049(3) 0.8453(3) -0.32343(18)
H1 H -0.2430 0.9309 -0.2853
C4 C -0.1927(3) 0.8536(3) -0.43024(17)
H2 H -0.2234 0.9448 -0.4650
C5 C -0.1359(3) 0.7290(3) -0.48590(17)
C6 C -0.0921(3) 0.5939(4) -0.43524(16)
H3 H -0.0532 0.5088 -0.4735
C7 C -0.1055(3) 0.5840(4) -0.32874(17)
H4 H -0.0773 0.4919 -0.2943
C8 C -0.1124(3) 0.7405(3) -0.59834(16)
Zn1_2 Zn 0.02226(3) 0.59063(3) -0.881489(17)
Zn1B Zn -0.02226(3) 1.09063(3) -0.618511(17)
Zn1C Zn -0.47774(3) 0.90937(3) -0.118511(17)
N3C N 0.2332(2) 0.7140(3) 0.09837(14)
N5_2 N -0.0784(3) 0.6863(3) 0.24534(14)
N7B N 0.0762(2) 0.3725(3) 0.14878(13)
loop_
_geom_bond_atom_site_label_1
_geom_bond_atom_site_label_2
_geom_bond_site_symmetry_1
_geom_bond_site_symmetry_2
Zn1 N1 1_555 1_555
N1 N2 1_555 1_555
N2 N3 1_555 1_555
N3 C1 1_555 1_555
N4 N1 1_555 1_555
N5 N6 1_555 1_555
N6 N7 1_555 1_555
N7 C8 1_555 1_555
N8 N5 1_555 1_555
C1 N4 1_555 1_555
C2 C1 1_555 1_555
C3 C2 1_555 1_555
H1 C3 1_555 1_555
C4 C3 1_555 1_555
H2 C4 1_555 1_555
C5 C4 1_555 1_555
C6 C5 1_555 1_555
H3 C6 1_555 1_555
C7 C2 1_555 1_555
H4 C7 1_555 1_555
C8 N8 1_555 1_555
Zn1_2 N5 1_555 1_555
Zn1B N7 1_555 1_555
Zn1C N3 1_555 1_555
N3C Zn1 1_555 1_555
N5_2 Zn1 1_555 1_555
N7B Zn1 1_555 1_555
C5 C8 1_555 1_555
C6 C7 1_555 1_555

#END
