
#######################################################################
#
#                 Cambridge Crystallographic Data Centre
#                                CCDC 
#
#######################################################################
#
# If this CIF has been generated from an entry in the Cambridge 
# Structural Database, then it will include bibliographic, chemical, 
# crystal, experimental, refinement or atomic coordinate data resulting 
# from the CCDC's data processing and validation procedures.
#
#######################################################################

data_VAHWOS01
_symmetry_cell_setting           orthorhombic
_symmetry_space_group_name_H-M   'P 21 21 21'
_symmetry_Int_Tables_number      19
_space_group_name_Hall           'P 2ac 2ab'
loop_
_symmetry_equiv_pos_site_id
_symmetry_equiv_pos_as_xyz
1 x,y,z
2 1/2-x,-y,1/2+z
3 -x,1/2+y,1/2-z
4 1/2+x,1/2-y,-z
_cell_length_a                   8.1009(15)
_cell_length_b                   8.7376(16)
_cell_length_c                   12.991(3)
_cell_angle_alpha                90
_cell_angle_beta                 90
_cell_angle_gamma                90
_cell_volume                     919.534
loop_
_atom_site_label
_atom_site_type_symbol
_atom_site_fract_x
_atom_site_fract_y
_atom_site_fract_z
Zn1 Zn 1.02230(3) 0.40901(2) 0.881538(17)
N1 N 0.8866(2) 0.37722(17) 0.66214(13)
N2 N 0.9219(2) 0.31415(17) 0.75461(13)
N3 N 0.9432(2) 0.16551(16) 0.74756(12)
N4 N 0.9240(2) 0.12753(16) 0.64920(13)
N5 N 0.7326(2) 0.21455(16) 0.09820(13)
N6 N 0.7737(2) 0.2499(2) 0.00094(15)
N7 N 0.8938(2) 0.34918(18) 0.00601(13)
N8 N 0.9357(2) 0.38199(17) 0.10371(13)
C1 C 0.8881(2) 0.2590(2) 0.59751(15)
C2 C 0.8649(3) 0.2702(2) 0.48627(16)
C3 C 0.8078(3) 0.1462(2) 0.42937(17)
H1 H 0.7769 0.0545 0.4636
C4 C 0.7955(3) 0.1551(2) 0.32388(17)
H2 H 0.7569 0.0694 0.2859
C5 C 0.8396(3) 0.2895(2) 0.27217(16)
C6 C 0.8939(2) 0.4152(2) 0.32951(16)
H3 H 0.9220 0.5076 0.2952
C7 C 0.9071(2) 0.4069(2) 0.43457(16)
H4 H 0.9446 0.4930 0.4726
C8 C 0.8344(2) 0.2964(2) 0.15913(16)
Zn1B Zn 0.97770(3) -0.09099(2) 0.618462(17)
Zn1C Zn 0.52230(3) 0.09099(2) 0.118462(17)
Zn1_2 Zn 1.02230(3) 0.40901(2) -0.118462(17)
N4B N 1.0760(2) 0.62753(16) 0.85080(13)
N5C N 1.2326(2) 0.28545(16) 0.90180(13)
N7_2 N 0.8938(2) 0.34918(18) 1.00601(13)
loop_
_geom_bond_atom_site_label_1
_geom_bond_atom_site_label_2
_geom_bond_site_symmetry_1
_geom_bond_site_symmetry_2
Zn1 N2 1_555 1_555
N1 N2 1_555 1_555
N2 N3 1_555 1_555
N3 N4 1_555 1_555
N4 C1 1_555 1_555
N5 N6 1_555 1_555
N6 N7 1_555 1_555
N7 N8 1_555 1_555
N8 C8 1_555 1_555
C1 N1 1_555 1_555
C2 C1 1_555 1_555
C3 C2 1_555 1_555
H1 C3 1_555 1_555
C4 C3 1_555 1_555
H2 C4 1_555 1_555
C5 C4 1_555 1_555
C6 C5 1_555 1_555
H3 C6 1_555 1_555
C7 C2 1_555 1_555
H4 C7 1_555 1_555
C8 N5 1_555 1_555
Zn1B N4 1_555 1_555
Zn1C N5 1_555 1_555
Zn1_2 N7 1_555 1_555
N4B Zn1 1_555 1_555
N5C Zn1 1_555 1_555
N7_2 Zn1 1_555 1_555
C5 C8 1_555 1_555
C6 C7 1_555 1_555

#END
