
#######################################################################
#
#                 Cambridge Crystallographic Data Centre
#                                CCDC 
#
#######################################################################
#
# If this CIF has been generated from an entry in the Cambridge 
# Structural Database, then it will include bibliographic, chemical, 
# crystal, experimental, refinement or atomic coordinate data resulting 
# from the CCDC's data processing and validation procedures.
#
#######################################################################

data_VAHYUA
_symmetry_cell_setting           monoclinic
_symmetry_space_group_name_H-M   'C 2'
_symmetry_Int_Tables_number      5
_space_group_name_Hall           'C 2y'
loop_
_symmetry_equiv_pos_site_id
_symmetry_equiv_pos_as_xyz
1 x,y,z
2 -x,y,-z
3 1/2+x,1/2+y,z
4 1/2-x,1/2+y,-z
_cell_length_a                   26.172(5)
_cell_length_b                   15.846(3)
_cell_length_c                   20.566(7)
_cell_angle_alpha                90
_cell_angle_beta                 110.119(2)
_cell_angle_gamma                90
_cell_volume                     8008.72
loop_
_atom_site_label
_atom_site_type_symbol
_atom_site_fract_x
_atom_site_fract_y
_atom_site_fract_z
W1 W 0.89296(2) 0.44539(4) 1.11781(3)
W2 W 0.94051(3) 0.41533(5) 1.36977(3)
W3 W 0.86437(2) 0.29260(4) 1.23496(3)
W4 W 0.92160(2) 0.22093(5) 1.10514(3)
W5 W 1.02235(2) 0.12351(4) 1.23603(4)
W6 W 0.96896(2) 0.20823(4) 1.36740(3)
W7 W 1.10923(2) 0.24887(4) 1.38182(3)
W8 W 1.05420(2) 0.25733(5) 1.12804(3)
W9 W 1.13594(2) 0.39162(5) 1.27232(3)
W10 W 1.08303(2) 0.45829(5) 1.39370(3)
W11 W 0.97453(3) 0.56200(4) 1.25364(4)
W12 W 1.02421(2) 0.48294(4) 1.13071(3)
Ag1 Ag 1.03602(6) 0.71534(9) 1.15683(9)
Ag2 Ag 1.79262(8) 1.10992(11) 1.90444(10)
Ag3 Ag 1.53540(5) 1.48174(9) 1.65995(8)
Ag4 Ag 1.29299(7) 1.08568(10) 1.40478(10)
Si1 Si 0.99940(17) 0.3429(3) 1.2493(2)
O1 O 1.1158(4) 0.3521(7) 1.4342(5)
O2 O 1.0611(4) 0.1477(8) 1.1722(6)
O3 O 1.0130(5) 0.5683(8) 1.1848(8)
O4 O 0.9075(5) 0.5369(8) 1.1737(6)
O5 O 0.8715(4) 0.3734(7) 1.3068(6)
O6 O 0.9649(6) 0.6633(9) 1.2662(8)
O7 O 0.9392(4) 0.4983(8) 1.3067(6)
O8 O 0.7973(4) 0.2713(8) 1.2131(6)
O9 O 0.9478(4) 0.4820(8) 1.0825(6)
O10 O 0.8921(4) 0.2055(7) 1.3057(6)
O11 O 1.0172(4) 0.4274(6) 1.4051(6)
O12 O 0.9556(4) 0.1168(8) 1.1554(6)
O13 O 0.9058(4) 0.3343(7) 1.0896(6)
O14 O 1.0409(4) 0.5301(7) 1.3222(6)
O15 O 0.8651(4) 0.3826(7) 1.1777(6)
O16 O 1.0429(5) 0.5464(10) 1.0778(6)
O17 O 0.8353(5) 0.4721(12) 1.0555(6)
O18 O 0.9644(4) 0.1310(9) 1.4236(6)
O19 O 1.0881(4) 0.2338(9) 1.0755(6)
O20 O 1.1160(5) 0.5234(8) 1.4601(6)
O21 O 0.9167(4) 0.4633(9) 1.4275(6)
O22 O 0.8847(5) 0.2268(7) 1.1695(6)
O23 O 0.8765(4) 0.1701(8) 1.0391(5)
O24 O 1.1582(4) 0.2956(8) 1.3378(6)
O25 O 1.1546(4) 0.1869(8) 1.4429(6)
O26 O 1.1995(4) 0.4136(9) 1.2703(6)
O27 O 0.9585(3) 0.3174(5) 1.2903(4)
O28 O 1.1351(4) 0.4619(8) 1.3440(6)
O29 O 1.0302(4) 0.3700(7) 1.1039(5)
O30 O 0.9517(4) 0.3004(7) 1.4108(5)
O31 O 0.9987(3) 0.2618(6) 1.1976(5)
O32 O 0.9844(4) 0.1382(8) 1.2966(5)
O33 O 1.0901(4) 0.4647(7) 1.2053(5)
O34 O 1.0830(4) 0.1701(8) 1.3075(6)
O35 O 1.0357(5) 0.0169(8) 1.2458(7)
O36 O 0.9806(4) 0.2200(8) 1.0706(5)
O37 O 1.1087(4) 0.3034(8) 1.2034(5)
O38 O 1.0601(3) 0.3513(6) 1.3041(5)
O39 O 1.0433(4) 0.2291(7) 1.4014(7)
O40 O 0.9795(3) 0.4248(6) 1.2018(5)
N1 N 1.1096(6) 0.7270(11) 1.2418(8)
N2 N 1.1247(5) 0.6717(10) 1.3004(7)
N3 N 1.9631(6) 0.7371(10) 2.0745(9)
N4 N 1.9354(5) 0.6813(9) 2.0232(9)
N5 N 1.8086(6) 0.9811(10) 1.9151(9)
N6 N 1.7703(6) 0.9258(8) 1.9201(9)
N7 N 1.8058(6) 1.2973(12) 1.9036(8)
N8 N 1.7701(5) 1.2360(9) 1.8929(8)
N9 N 1.6285(5) 1.5263(9) 1.7952(8)
N10 N 1.6095(5) 1.4749(9) 1.7415(8)
N11 N 1.4400(6) 1.5147(10) 1.5239(9)
N12 N 1.4631(5) 1.4628(9) 1.5772(9)
N13 N 1.2705(6) 1.2729(12) 1.4150(9)
N14 N 1.3102(6) 1.2117(10) 1.4167(9)
N15 N 1.2696(5) 0.9612(9) 1.3957(9)
N16 N 1.3051(5) 0.8942(8) 1.4084(7)
C1 C 1.1393(10) 0.8516(15) 1.2052(9)
C2 C 1.1408(6) 0.7904(11) 1.2562(8)
C3 C 1.1804(6) 0.7850(10) 1.3222(8)
C4 C 1.1678(6) 0.7082(14) 1.3479(10)
C5 C 1.1939(7) 0.6549(11) 1.4167(9)
C6 C 1.9480(9) 0.8768(13) 2.1162(11)
C7 C 1.9353(7) 0.7995(13) 2.0607(9)
C8 C 1.8888(6) 0.7999(9) 1.9992(8)
C9 C 1.8904(7) 0.7179(12) 1.9755(10)
C10 C 1.8535(8) 0.6691(11) 1.9144(12)
C11 C 1.9070(8) 0.9877(14) 1.9490(12)
C12 C 1.8560(6) 0.9428(10) 1.9460(8)
C13 C 1.8469(6) 0.8590(10) 1.9706(8)
C14 C 1.7906(6) 0.8527(15) 1.9509(8)
C15 C 1.7556(8) 0.7763(15) 1.9593(11)
C16 C 1.8138(8) 1.4502(15) 1.8876(9)
C17 C 1.7829(5) 1.3782(9) 1.8777(7)
C18 C 1.7258(6) 1.3616(10) 1.8532(8)
C19 C 1.7205(5) 1.2699(9) 1.8625(7)
C20 C 1.6719(6) 1.2169(13) 1.8503(11)
C21 C 1.7010(8) 1.5373(13) 1.9135(9)
C22 C 1.6701(5) 1.4941(9) 1.8456(8)
C23 C 1.6840(5) 1.4204(8) 1.8227(7)
C24 C 1.6450(6) 1.4096(9) 1.7583(8)
C25 C 1.6362(9) 1.3360(12) 1.7009(10)
C26 C 1.3573(7) 1.5265(13) 1.4157(10)
C27 C 1.3943(6) 1.4776(9) 1.4795(8)
C28 C 1.3895(6) 1.4006(10) 1.5024(8)
C29 C 1.4335(6) 1.3863(12) 1.5668(10)
C30 C 1.4486(8) 1.3155(14) 1.6130(10)
C31 C 1.2583(6) 1.4109(16) 1.4564(10)
C32 C 1.2919(6) 1.3430(10) 1.4471(9)
C33 C 1.3499(6) 1.3330(12) 1.4682(8)
C34 C 1.3605(8) 1.2485(13) 1.4497(10)
C35 C 1.4105(8) 1.2028(11) 1.4557(10)
C36 C 1.1671(8) 0.9788(13) 1.3484(12)
C37 C 1.2192(6) 0.9279(12) 1.3664(10)
C38 C 1.2246(5) 0.8425(9) 1.3582(8)
C39 C 1.2798(6) 0.8223(11) 1.3878(7)
C40 C 1.3116(6) 0.7391(11) 1.3942(10)
Ag1_2 Ag 2.03602(6) 0.71534(9) 2.15683(9)
N3_2 N 0.9631(6) 0.7371(10) 1.0745(9)
loop_
_geom_bond_atom_site_label_1
_geom_bond_atom_site_label_2
_geom_bond_site_symmetry_1
_geom_bond_site_symmetry_2
W1 O4 1_555 1_555
W2 O5 1_555 1_555
W3 O5 1_555 1_555
W4 O12 1_555 1_555
W5 O2 1_555 1_555
W6 O10 1_555 1_555
W7 O1 1_555 1_555
W8 O2 1_555 1_555
W9 O24 1_555 1_555
W10 O1 1_555 1_555
W11 O3 1_555 1_555
W12 O3 1_555 1_555
Ag1 O3 1_555 1_555
Ag2 N5 1_555 1_555
Ag3 N10 1_555 1_555
Ag4 N14 1_555 1_555
Si1 O27 1_555 1_555
O4 W11 1_555 1_555
O6 W11 1_555 1_555
O7 W2 1_555 1_555
O8 W3 1_555 1_555
O9 W1 1_555 1_555
O10 W3 1_555 1_555
O11 W2 1_555 1_555
O12 W5 1_555 1_555
O13 W1 1_555 1_555
O14 W10 1_555 1_555
O15 W1 1_555 1_555
O16 W12 1_555 1_555
O17 W1 1_555 1_555
O18 W6 1_555 1_555
O19 W8 1_555 1_555
O20 W10 1_555 1_555
O21 W2 1_555 1_555
O22 W3 1_555 1_555
O23 W4 1_555 1_555
O24 W7 1_555 1_555
O25 W7 1_555 1_555
O26 W9 1_555 1_555
O27 W2 1_555 1_555
O28 W9 1_555 1_555
O29 W8 1_555 1_555
O30 W2 1_555 1_555
O31 W4 1_555 1_555
O32 W5 1_555 1_555
O33 W9 1_555 1_555
O34 W5 1_555 1_555
O35 W5 1_555 1_555
O36 W4 1_555 1_555
O37 W8 1_555 1_555
O38 W7 1_555 1_555
O39 W6 1_555 1_555
O40 W1 1_555 1_555
N1 Ag1 1_555 1_555
N2 N1 1_555 1_555
N3 N4 1_555 1_555
N4 C9 1_555 1_555
N5 N6 1_555 1_555
N6 C14 1_555 1_555
N7 N8 1_555 1_555
N8 Ag2 1_555 1_555
N9 N10 1_555 1_555
N10 C24 1_555 1_555
N11 N12 1_555 1_555
N12 Ag3 1_555 1_555
N13 N14 1_555 1_555
N14 C34 1_555 1_555
N15 Ag4 1_555 1_555
N16 N15 1_555 1_555
C1 C2 1_555 1_555
C2 N1 1_555 1_555
C3 C2 1_555 1_555
C4 N2 1_555 1_555
C5 C4 1_555 1_555
C6 C7 1_555 1_555
C7 N3 1_555 1_555
C8 C7 1_555 1_555
C9 C8 1_555 1_555
C10 C9 1_555 1_555
C11 C12 1_555 1_555
C12 N5 1_555 1_555
C13 C8 1_555 1_555
C14 C13 1_555 1_555
C15 C14 1_555 1_555
C16 C17 1_555 1_555
C17 N7 1_555 1_555
C18 C17 1_555 1_555
C19 N8 1_555 1_555
C20 C19 1_555 1_555
C21 C22 1_555 1_555
C22 N9 1_555 1_555
C23 C18 1_555 1_555
C24 C23 1_555 1_555
C25 C24 1_555 1_555
C26 C27 1_555 1_555
C27 N11 1_555 1_555
C28 C27 1_555 1_555
C29 N12 1_555 1_555
C30 C29 1_555 1_555
C31 C32 1_555 1_555
C32 N13 1_555 1_555
C33 C28 1_555 1_555
C34 C33 1_555 1_555
C35 C34 1_555 1_555
C36 C37 1_555 1_555
C37 N15 1_555 1_555
C38 C3 1_555 1_555
C39 N16 1_555 1_555
C40 C39 1_555 1_555
Ag1_2 N3 1_555 1_555
N3_2 Ag1 1_555 1_555
W3 O15 1_555 1_555
W3 O27 1_555 1_555
W4 O13 1_555 1_555
W4 O22 1_555 1_555
W5 O31 1_555 1_555
W6 O27 1_555 1_555
W6 O30 1_555 1_555
W6 O32 1_555 1_555
W7 O34 1_555 1_555
W7 O39 1_555 1_555
W8 O31 1_555 1_555
W8 O36 1_555 1_555
W9 O37 1_555 1_555
W9 O38 1_555 1_555
W10 O11 1_555 1_555
W10 O28 1_555 1_555
W10 O38 1_555 1_555
W11 O7 1_555 1_555
W11 O14 1_555 1_555
W11 O40 1_555 1_555
W12 O9 1_555 1_555
W12 O29 1_555 1_555
W12 O33 1_555 1_555
W12 O40 1_555 1_555
Si1 O31 1_555 1_555
Si1 O38 1_555 1_555
Si1 O40 1_555 1_555
C3 C4 1_555 1_555
C12 C13 1_555 1_555
C18 C19 1_555 1_555
C22 C23 1_555 1_555
C28 C29 1_555 1_555
C32 C33 1_555 1_555
C37 C38 1_555 1_555
C38 C39 1_555 1_555

#END
