
#######################################################################
#
#                 Cambridge Crystallographic Data Centre
#                                CCDC 
#
#######################################################################
#
# If this CIF has been generated from an entry in the Cambridge 
# Structural Database, then it will include bibliographic, chemical, 
# crystal, experimental, refinement or atomic coordinate data resulting 
# from the CCDC's data processing and validation procedures.
#
#######################################################################

data_VAHYEK
_symmetry_cell_setting           triclinic
_symmetry_space_group_name_H-M   'P -1'
_symmetry_Int_Tables_number      2
_space_group_name_Hall           '-P 1'
loop_
_symmetry_equiv_pos_site_id
_symmetry_equiv_pos_as_xyz
1 x,y,z
2 -x,-y,-z
_cell_length_a                   11.293(2)
_cell_length_b                   15.606(3)
_cell_length_c                   17.596(4)
_cell_angle_alpha                84.81(3)
_cell_angle_beta                 77.73(3)
_cell_angle_gamma                81.07(3)
_cell_volume                     2988.21
loop_
_atom_site_label
_atom_site_type_symbol
_atom_site_fract_x
_atom_site_fract_y
_atom_site_fract_z
Mn1 Mn 0.5000 0.5000 0.5000
Mn2 Mn 0.28362(7) 0.75966(6) 0.75354(5)
Mn3 Mn 0.0000 1.0000 1.0000
Na1 Na 0.37884(19) 0.58408(14) 0.66144(11)
Na2 Na 0.13152(19) 0.83340(15) 0.92151(12)
N1 N 0.7280(4) 0.4691(3) 0.4711(3)
N2 N 1.0451(5) 0.6113(4) 0.3091(3)
N3 N 0.3384(4) 0.8711(3) 0.6764(2)
N4 N 0.7238(5) 0.9712(4) 0.5762(3)
O1 O 0.4822(3) 0.6135(2) 0.53573(19)
O2 O 0.5234(3) 0.5432(2) 0.39378(19)
O3 O 0.2241(4) 0.5246(3) 0.7538(3)
O4 O 0.2464(3) 0.7077(2) 0.6707(2)
O5 O 0.1164(3) 0.7775(2) 0.8054(2)
O6 O 0.4352(3) 0.6814(2) 0.7418(2)
O7 O 0.3151(3) 0.8145(3) 0.8373(2)
O8 O 0.2290(5) 0.7041(4) 0.9735(3)
O9 O 0.0621(3) 0.9776(3) 0.8933(2)
O10 O 0.0234(3) 1.1177(3) 0.9812(2)
O11 O 0.2038(4) 0.9445(3) 1.0016(3)
H1 H 0.2520 0.9814 0.9608
C1 C 0.5718(5) 0.6630(3) 0.5107(3)
C2 C 0.6491(5) 0.6749(4) 0.5599(3)
H2 H 0.6365 0.6496 0.6117
C3 C 0.7434(5) 0.7230(4) 0.5338(4)
H3 H 0.7959 0.7297 0.5678
C4 C 0.7636(5) 0.7613(4) 0.4605(4)
H4 H 0.8304 0.7933 0.4432
C5 C 0.6846(5) 0.7529(4) 0.4110(3)
H5 H 0.6976 0.7796 0.3598
C6 C 0.5866(5) 0.7054(4) 0.4367(3)
C7 C 0.4998(5) 0.7011(4) 0.3836(3)
C8 C 0.4450(5) 0.7766(4) 0.3513(3)
H6 H 0.4646 0.8304 0.3627
C9 C 0.3623(5) 0.7774(4) 0.3028(3)
H7 H 0.3240 0.8306 0.2827
C10 C 0.3376(5) 0.6984(4) 0.2849(3)
H8 H 0.2827 0.6971 0.2510
C11 C 0.3912(5) 0.6220(4) 0.3154(3)
H9 H 0.3729 0.5686 0.3021
C12 C 0.4731(5) 0.6208(4) 0.3662(3)
C13 C 0.7952(5) 0.5226(4) 0.4214(3)
H10 H 0.7551 0.5726 0.3975
C14 C 0.9237(5) 0.5057(4) 0.4045(3)
C15 C 0.9920(5) 0.5638(5) 0.3514(4)
C16 C 0.9819(5) 0.4338(4) 0.4399(3)
H11 H 1.0687 0.4226 0.4306
C17 C 0.9122(5) 0.3784(4) 0.4889(3)
H12 H 0.9504 0.3276 0.5128
C18 C 0.7854(5) 0.3980(4) 0.5030(3)
H13 H 0.7377 0.3593 0.5365
C19 C 0.2129(7) 0.4428(5) 0.7961(4)
H14 H 0.1413 0.4200 0.7855
H15 H 0.2867 0.4012 0.7772
C20 C 0.1983(7) 0.4482(5) 0.8813(4)
H16 H 0.1184 0.4811 0.9019
H17 H 0.2035 0.3895 0.9065
H18 H 0.2633 0.4775 0.8918
C21 C 0.1692(5) 0.7576(4) 0.6300(3)
C22 C 0.2161(5) 0.7957(4) 0.5568(3)
H19 H 0.3015 0.7862 0.5358
C23 C 0.1377(6) 0.8472(4) 0.5152(3)
H20 H 0.1699 0.8719 0.4651
C24 C 0.0141(6) 0.8634(4) 0.5449(3)
H21 H -0.0386 0.9005 0.5167
C25 C -0.0323(5) 0.8244(4) 0.6171(3)
H22 H -0.1177 0.8353 0.6379
C26 C 0.0423(5) 0.7704(4) 0.6594(3)
C27 C -0.0073(5) 0.7213(4) 0.7318(3)
C28 C -0.0965(5) 0.6686(4) 0.7333(3)
H23 H -0.1289 0.6680 0.6878
C29 C -0.1401(5) 0.6169(4) 0.7983(4)
H24 H -0.1984 0.5797 0.7966
C30 C -0.0974(5) 0.6206(4) 0.8654(3)
H25 H -0.1274 0.5865 0.9109
C31 C -0.0116(5) 0.6735(4) 0.8666(3)
H26 H 0.0168 0.6753 0.9134
C32 C 0.0349(5) 0.7242(4) 0.8020(3)
C33 C 0.2556(5) 0.9382(4) 0.6620(3)
H27 H 0.1715 0.9324 0.6796
C34 C 0.2842(5) 1.0147(4) 0.6235(3)
H28 H 0.2220 1.0606 0.6144
C35 C 0.4067(6) 1.0229(4) 0.5982(3)
H29 H 0.4303 1.0751 0.5712
C36 C 0.4943(5) 0.9550(4) 0.6123(3)
C37 C 0.6225(6) 0.9622(4) 0.5927(4)
C38 C 0.4567(5) 0.8798(4) 0.6511(3)
H30 H 0.5170 0.8325 0.6601
C39 C 0.4846(5) 0.6488(4) 0.8032(3)
C40 C 0.4917(5) 0.5593(4) 0.8221(3)
H31 H 0.4607 0.5244 0.7916
C41 C 0.5425(5) 0.5199(5) 0.8840(3)
H32 H 0.5465 0.4590 0.8959
C42 C 0.5876(5) 0.5723(5) 0.9282(4)
H33 H 0.6228 0.5471 0.9710
C43 C 0.5814(5) 0.6595(5) 0.9103(3)
H34 H 0.6124 0.6942 0.9412
C44 C 0.5313(5) 0.6993(4) 0.8484(3)
C45 C 0.5304(5) 0.7936(4) 0.8328(3)
C46 C 0.6373(5) 0.8322(4) 0.8231(3)
H35 H 0.7133 0.7964 0.8239
C47 C 0.6340(6) 0.9212(5) 0.8125(4)
H36 H 0.7078 0.9458 0.8047
C48 C 0.5235(6) 0.9753(5) 0.8130(4)
H37 H 0.5209 1.0367 0.8076
C49 C 0.4172(5) 0.9380(4) 0.8214(3)
H38 H 0.3412 0.9741 0.8219
C50 C 0.4209(5) 0.8493(4) 0.8291(3)
C51 C 0.2268(9) 0.6500(7) 1.0414(6)
H39 H 0.2499 0.5890 1.0268
H40 H 0.2892 0.6638 1.0686
C52 C 0.1131(8) 0.6574(7) 1.0933(5)
H41 H 0.0512 0.6414 1.0677
H42 H 0.1191 0.6184 1.1396
H43 H 0.0896 0.7174 1.1086
C53 C 0.2714(8) 0.9275(8) 1.0580(6)
H44 H 0.2822 0.9842 1.0747
H45 H 0.2213 0.8986 1.1032
C54 C 0.3861(8) 0.8780(7) 1.0435(5)
H46 H 0.4457 0.9134 1.0126
H47 H 0.4105 0.8577 1.0930
H48 H 0.3830 0.8279 1.0146
C55 C 0.0320(5) 1.0280(4) 0.8330(3)
C56 C -0.0347(5) 0.9971(4) 0.7853(3)
H49 H -0.0583 0.9407 0.7965
C57 C -0.0666(5) 1.0471(5) 0.7222(4)
H50 H -0.1129 1.0255 0.6908
C58 C -0.0311(5) 1.1293(5) 0.7045(3)
H51 H -0.0539 1.1645 0.6616
C59 C 0.0372(5) 1.1586(4) 0.7499(3)
H52 H 0.0623 1.2144 0.7372
C60 C 0.0713(5) 1.1091(4) 0.8142(3)
C61 C 0.1555(5) 1.1419(4) 0.8566(3)
C62 C 0.2621(5) 1.1705(4) 0.8167(3)
H53 H 0.2822 1.1683 0.7616
C63 C 0.3405(6) 1.2021(4) 0.8536(4)
H54 H 0.4132 1.2219 0.8245
C64 C 0.3118(6) 1.2046(5) 0.9336(4)
H55 H 0.3646 1.2267 0.9601
C65 C 0.2073(6) 1.1752(4) 0.9751(4)
H56 H 0.1899 1.1761 1.0303
C66 C 0.1261(5) 1.1441(4) 0.9389(3)
H57 H 0.291(7) 0.712(9) 0.938(5)
H58 H 0.172(4) 0.570(2) 0.764(3)
Mn2A Mn 0.71638(7) 0.24034(6) 0.24646(5)
Mn3_2 Mn 1.0000 0.0000 0.0000
Na1A Na 0.62116(19) 0.41592(14) 0.33856(11)
Na2A Na 0.86848(19) 0.16660(15) 0.07849(12)
Na2A_2 Na -0.13152(19) 1.16660(15) 1.07849(12)
N1A N 0.2720(4) 0.5309(3) 0.5289(3)
N2A N -0.0451(5) 0.3887(4) 0.6909(3)
N3A N 0.6616(4) 0.1289(3) 0.3236(2)
N4A N 0.2762(5) 0.0288(4) 0.4238(3)
O1A O 0.5178(3) 0.3865(2) 0.46427(19)
O2A O 0.4766(3) 0.4568(2) 0.60622(19)
O3A O 0.7759(4) 0.4754(3) 0.2462(3)
O4A O 0.7536(3) 0.2923(2) 0.3293(2)
O5A O 0.8836(3) 0.2225(2) 0.1946(2)
O6A O 0.5648(3) 0.3186(2) 0.2582(2)
O7A O 0.6849(3) 0.1855(3) 0.1627(2)
O8A O 0.7710(5) 0.2959(4) 0.0265(3)
O9A O -0.0621(3) 1.0224(3) 1.1067(2)
O9A_2 O 0.9379(3) 0.0224(3) 0.1067(2)
O10A O -0.0234(3) 0.8823(3) 1.0188(2)
O10_2 O 1.0234(3) 0.1177(3) -0.0188(2)
O11A O 0.7962(4) 0.0555(3) -0.0016(3)
O11A_2 O -0.2038(4) 1.0555(3) 0.9984(3)
H1A H 0.7480 0.0186 0.0392
H1A_2 H -0.2520 1.0186 1.0392
C1A C 0.4282(5) 0.3370(3) 0.4893(3)
C2A C 0.3509(5) 0.3251(4) 0.4401(3)
H2A H 0.3635 0.3504 0.3883
C3A C 0.2566(5) 0.2770(4) 0.4662(4)
H3A H 0.2041 0.2703 0.4322
C4A C 0.2364(5) 0.2387(4) 0.5395(4)
H4A H 0.1696 0.2067 0.5568
C5A C 0.3154(5) 0.2471(4) 0.5890(3)
H5A H 0.3024 0.2204 0.6402
C6A C 0.4134(5) 0.2946(4) 0.5633(3)
C7A C 0.5002(5) 0.2989(4) 0.6164(3)
C8A C 0.5550(5) 0.2234(4) 0.6487(3)
H6A H 0.5354 0.1696 0.6373
C9A C 0.6377(5) 0.2226(4) 0.6972(3)
H7A H 0.6760 0.1694 0.7173
C10A C 0.6624(5) 0.3016(4) 0.7151(3)
H8A H 0.7173 0.3029 0.7490
C11A C 0.6088(5) 0.3780(4) 0.6846(3)
H9A H 0.6271 0.4314 0.6979
C12A C 0.5269(5) 0.3792(4) 0.6338(3)
C13A C 0.2048(5) 0.4774(4) 0.5786(3)
H10A H 0.2449 0.4274 0.6025
C14A C 0.0763(5) 0.4943(4) 0.5955(3)
C15A C 0.0080(5) 0.4362(5) 0.6486(4)
C16A C 0.0181(5) 0.5662(4) 0.5601(3)
H11A H -0.0687 0.5774 0.5694
C17A C 0.0878(5) 0.6216(4) 0.5111(3)
H12A H 0.0496 0.6724 0.4872
C18A C 0.2146(5) 0.6020(4) 0.4970(3)
H13A H 0.2623 0.6407 0.4635
C19A C 0.7871(7) 0.5572(5) 0.2039(4)
H14A H 0.8587 0.5800 0.2145
H15A H 0.7133 0.5988 0.2228
C20A C 0.8017(7) 0.5518(5) 0.1187(4)
H16A H 0.8816 0.5189 0.0981
H17A H 0.7965 0.6105 0.0935
H18A H 0.7367 0.5225 0.1082
C21A C 0.8308(5) 0.2424(4) 0.3700(3)
C22A C 0.7839(5) 0.2043(4) 0.4432(3)
H19A H 0.6985 0.2138 0.4642
C23A C 0.8623(6) 0.1528(4) 0.4848(3)
H20A H 0.8301 0.1281 0.5349
C24A C 0.9859(6) 0.1366(4) 0.4551(3)
H21A H 1.0386 0.0995 0.4833
C25A C 1.0323(5) 0.1756(4) 0.3829(3)
H22A H 1.1177 0.1647 0.3621
C26A C 0.9577(5) 0.2296(4) 0.3406(3)
C27A C 1.0073(5) 0.2787(4) 0.2682(3)
C28A C 1.0965(5) 0.3314(4) 0.2667(3)
H23A H 1.1289 0.3320 0.3122
C29A C 1.1401(5) 0.3831(4) 0.2017(4)
H24A H 1.1984 0.4203 0.2034
C30A C 1.0974(5) 0.3794(4) 0.1346(3)
H25A H 1.1274 0.4135 0.0891
C31A C 1.0116(5) 0.3265(4) 0.1334(3)
H26A H 0.9832 0.3247 0.0866
C32A C 0.9651(5) 0.2758(4) 0.1980(3)
C33A C 0.7444(5) 0.0618(4) 0.3380(3)
H27A H 0.8285 0.0676 0.3204
C34A C 0.7158(5) -0.0147(4) 0.3765(3)
H28A H 0.7780 -0.0606 0.3856
C35A C 0.5933(6) -0.0229(4) 0.4018(3)
H29A H 0.5697 -0.0751 0.4288
C36A C 0.5057(5) 0.0450(4) 0.3877(3)
C37A C 0.3775(6) 0.0378(4) 0.4073(4)
C38A C 0.5433(5) 0.1202(4) 0.3489(3)
H30A H 0.4830 0.1675 0.3399
C39A C 0.5154(5) 0.3512(4) 0.1968(3)
C40A C 0.5083(5) 0.4407(4) 0.1779(3)
H31A H 0.5393 0.4756 0.2084
C41A C 0.4575(5) 0.4801(5) 0.1160(3)
H32A H 0.4535 0.5410 0.1041
C42A C 0.4124(5) 0.4277(5) 0.0718(4)
H33A H 0.3772 0.4529 0.0290
C43A C 0.4186(5) 0.3405(5) 0.0897(3)
H34A H 0.3876 0.3058 0.0588
C44A C 0.4687(5) 0.3007(4) 0.1516(3)
C45A C 0.4696(5) 0.2064(4) 0.1672(3)
C46A C 0.3627(5) 0.1678(4) 0.1769(3)
H35A H 0.2867 0.2036 0.1761
C47A C 0.3660(6) 0.0788(5) 0.1875(4)
H36A H 0.2922 0.0542 0.1953
C48A C 0.4765(6) 0.0247(5) 0.1870(4)
H37A H 0.4791 -0.0367 0.1924
C49A C 0.5828(5) 0.0620(4) 0.1786(3)
H38A H 0.6588 0.0259 0.1781
C50A C 0.5791(5) 0.1507(4) 0.1709(3)
C51A C 0.7732(9) 0.3500(7) -0.0414(6)
H39A H 0.7501 0.4110 -0.0268
H40A H 0.7108 0.3362 -0.0686
C52A C 0.8869(8) 0.3426(7) -0.0933(5)
H41A H 0.9488 0.3586 -0.0677
H42A H 0.8809 0.3816 -0.1396
H43A H 0.9104 0.2826 -0.1086
C53A C 0.7286(8) 0.0725(8) -0.0580(6)
H44A H 0.7178 0.0158 -0.0747
H45A H 0.7787 0.1014 -0.1032
C54A C 0.6139(8) 0.1220(7) -0.0435(5)
H46A H 0.5543 0.0866 -0.0126
H47A H 0.5895 0.1423 -0.0930
H48A H 0.6170 0.1721 -0.0146
C55A C -0.0320(5) 0.9720(4) 1.1670(3)
C56A C 0.0347(5) 1.0029(4) 1.2147(3)
H49A H 0.0583 1.0593 1.2035
C57A C 0.0666(5) 0.9529(5) 1.2778(4)
H50A H 0.1129 0.9745 1.3092
C58A C 0.0311(5) 0.8707(5) 1.2955(3)
H51A H 0.0539 0.8355 1.3384
C59A C -0.0372(5) 0.8414(4) 1.2501(3)
H52A H -0.0623 0.7856 1.2628
C60A C -0.0713(5) 0.8909(4) 1.1858(3)
C61A C -0.1555(5) 0.8581(4) 1.1434(3)
C62A C -0.2621(5) 0.8295(4) 1.1833(3)
H53A H -0.2822 0.8317 1.2384
C63A C -0.3405(6) 0.7979(4) 1.1464(4)
H54A H -0.4132 0.7781 1.1755
C64A C -0.3118(6) 0.7954(5) 1.0664(4)
H55A H -0.3646 0.7733 1.0399
C65A C -0.2073(6) 0.8248(4) 1.0249(4)
H56A H -0.1899 0.8239 0.9697
C66A C -0.1261(5) 0.8559(4) 1.0611(3)
H57A H 0.709(7) 0.288(9) 0.062(5)
H58A H 0.828(4) 0.430(2) 0.236(3)
loop_
_geom_bond_atom_site_label_1
_geom_bond_atom_site_label_2
_geom_bond_site_symmetry_1
_geom_bond_site_symmetry_2
Mn1 N1 1_555 1_555
Mn2 N3 1_555 1_555
Mn3 O9 1_555 1_555
Na1 O1 1_555 1_555
Na2 O5 1_555 1_555
N1 C13 1_555 1_555
N2 C15 1_555 1_555
N3 C33 1_555 1_555
N4 C37 1_555 1_555
O1 Mn1 1_555 1_555
O2 Mn1 1_555 1_555
O3 Na1 1_555 1_555
O4 Mn2 1_555 1_555
O5 Mn2 1_555 1_555
O6 Mn2 1_555 1_555
O7 Mn2 1_555 1_555
O8 Na2 1_555 1_555
O9 Na2 1_555 1_555
O10 Mn3 1_555 1_555
O11 Mn3 1_555 1_555
H1 O11 1_555 1_555
C1 O1 1_555 1_555
C2 C1 1_555 1_555
H2 C2 1_555 1_555
C3 C2 1_555 1_555
H3 C3 1_555 1_555
C4 C3 1_555 1_555
H4 C4 1_555 1_555
C5 C4 1_555 1_555
H5 C5 1_555 1_555
C6 C1 1_555 1_555
C7 C6 1_555 1_555
C8 C7 1_555 1_555
H6 C8 1_555 1_555
C9 C8 1_555 1_555
H7 C9 1_555 1_555
C10 C9 1_555 1_555
H8 C10 1_555 1_555
C11 C10 1_555 1_555
H9 C11 1_555 1_555
C12 O2 1_555 1_555
C13 H10 1_555 1_555
C14 C13 1_555 1_555
C15 C14 1_555 1_555
C16 C14 1_555 1_555
H11 C16 1_555 1_555
C17 C16 1_555 1_555
H12 C17 1_555 1_555
C18 N1 1_555 1_555
H13 C18 1_555 1_555
C19 O3 1_555 1_555
H14 C19 1_555 1_555
H15 C19 1_555 1_555
C20 C19 1_555 1_555
H16 C20 1_555 1_555
H17 C20 1_555 1_555
H18 C20 1_555 1_555
C21 O4 1_555 1_555
C22 C21 1_555 1_555
H19 C22 1_555 1_555
C23 C22 1_555 1_555
H20 C23 1_555 1_555
C24 C23 1_555 1_555
H21 C24 1_555 1_555
C25 C24 1_555 1_555
H22 C25 1_555 1_555
C26 C21 1_555 1_555
C27 C26 1_555 1_555
C28 C27 1_555 1_555
H23 C28 1_555 1_555
C29 C28 1_555 1_555
H24 C29 1_555 1_555
C30 C29 1_555 1_555
H25 C30 1_555 1_555
C31 C30 1_555 1_555
H26 C31 1_555 1_555
C32 O5 1_555 1_555
C33 H27 1_555 1_555
C34 C33 1_555 1_555
H28 C34 1_555 1_555
C35 C34 1_555 1_555
H29 C35 1_555 1_555
C36 C35 1_555 1_555
C37 C36 1_555 1_555
C38 N3 1_555 1_555
H30 C38 1_555 1_555
C39 O6 1_555 1_555
C40 C39 1_555 1_555
H31 C40 1_555 1_555
C41 C40 1_555 1_555
H32 C41 1_555 1_555
C42 C41 1_555 1_555
H33 C42 1_555 1_555
C43 C42 1_555 1_555
H34 C43 1_555 1_555
C44 C39 1_555 1_555
C45 C44 1_555 1_555
C46 C45 1_555 1_555
H35 C46 1_555 1_555
C47 C46 1_555 1_555
H36 C47 1_555 1_555
C48 C47 1_555 1_555
H37 C48 1_555 1_555
C49 C48 1_555 1_555
H38 C49 1_555 1_555
C50 O7 1_555 1_555
C51 O8 1_555 1_555
H39 C51 1_555 1_555
H40 C51 1_555 1_555
C52 C51 1_555 1_555
H41 C52 1_555 1_555
H42 C52 1_555 1_555
H43 C52 1_555 1_555
C53 O11 1_555 1_555
H44 C53 1_555 1_555
H45 C53 1_555 1_555
C54 C53 1_555 1_555
H46 C54 1_555 1_555
H47 C54 1_555 1_555
H48 C54 1_555 1_555
C55 O9 1_555 1_555
C56 C55 1_555 1_555
H49 C56 1_555 1_555
C57 C56 1_555 1_555
H50 C57 1_555 1_555
C58 C57 1_555 1_555
H51 C58 1_555 1_555
C59 C58 1_555 1_555
H52 C59 1_555 1_555
C60 C55 1_555 1_555
C61 C60 1_555 1_555
C62 C61 1_555 1_555
H53 C62 1_555 1_555
C63 C62 1_555 1_555
H54 C63 1_555 1_555
C64 C63 1_555 1_555
H55 C64 1_555 1_555
C65 C64 1_555 1_555
H56 C65 1_555 1_555
C66 O10 1_555 1_555
H57 O8 1_555 1_555
H58 O3 1_555 1_555
Mn2A N3A 1_555 1_555
Mn3_2 O9A_2 1_555 1_555
Na1A O2 1_555 1_555
Na2A O5A 1_555 1_555
Na2A_2 O10 1_555 1_555
N1A Mn1 1_555 1_555
N2A C15A 1_555 1_555
N3A C33A 1_555 1_555
N4A C37A 1_555 1_555
O1A Mn1 1_555 1_555
O2A Mn1 1_555 1_555
O3A Na1A 1_555 1_555
O4A Mn2A 1_555 1_555
O5A Mn2A 1_555 1_555
O6A Mn2A 1_555 1_555
O7A Mn2A 1_555 1_555
O8A Na2A 1_555 1_555
O9A Mn3 1_555 1_555
O9A_2 Na2A 1_555 1_555
O10A Mn3 1_555 1_555
O10_2 Mn3_2 1_555 1_555
O11A Mn3_2 1_555 1_555
O11A_2 Mn3 1_555 1_555
H1A O11A 1_555 1_555
H1A_2 O11A_2 1_555 1_555
C1A O1A 1_555 1_555
C2A C1A 1_555 1_555
H2A C2A 1_555 1_555
C3A C2A 1_555 1_555
H3A C3A 1_555 1_555
C4A C3A 1_555 1_555
H4A C4A 1_555 1_555
C5A C4A 1_555 1_555
H5A C5A 1_555 1_555
C6A C1A 1_555 1_555
C7A C6A 1_555 1_555
C8A C7A 1_555 1_555
H6A C8A 1_555 1_555
C9A C8A 1_555 1_555
H7A C9A 1_555 1_555
C10A C9A 1_555 1_555
H8A C10A 1_555 1_555
C11A C10A 1_555 1_555
H9A C11A 1_555 1_555
C12A O2A 1_555 1_555
C13A N1A 1_555 1_555
H10A C13A 1_555 1_555
C14A C13A 1_555 1_555
C15A C14A 1_555 1_555
C16A C14A 1_555 1_555
H11A C16A 1_555 1_555
C17A C16A 1_555 1_555
H12A C17A 1_555 1_555
C18A N1A 1_555 1_555
H13A C18A 1_555 1_555
C19A O3A 1_555 1_555
H14A C19A 1_555 1_555
H15A C19A 1_555 1_555
C20A C19A 1_555 1_555
H16A C20A 1_555 1_555
H17A C20A 1_555 1_555
H18A C20A 1_555 1_555
C21A O4A 1_555 1_555
C22A C21A 1_555 1_555
H19A C22A 1_555 1_555
C23A C22A 1_555 1_555
H20A C23A 1_555 1_555
C24A C23A 1_555 1_555
H21A C24A 1_555 1_555
C25A C24A 1_555 1_555
H22A C25A 1_555 1_555
C26A C21A 1_555 1_555
C27A C26A 1_555 1_555
C28A C27A 1_555 1_555
H23A C28A 1_555 1_555
C29A C28A 1_555 1_555
H24A C29A 1_555 1_555
C30A C29A 1_555 1_555
H25A C30A 1_555 1_555
C31A C30A 1_555 1_555
H26A C31A 1_555 1_555
C32A O5A 1_555 1_555
C33A H27A 1_555 1_555
C34A C33A 1_555 1_555
H28A C34A 1_555 1_555
C35A C34A 1_555 1_555
H29A C35A 1_555 1_555
C36A C35A 1_555 1_555
C37A C36A 1_555 1_555
C38A N3A 1_555 1_555
H30A C38A 1_555 1_555
C39A O6A 1_555 1_555
C40A C39A 1_555 1_555
H31A C40A 1_555 1_555
C41A C40A 1_555 1_555
H32A C41A 1_555 1_555
C42A C41A 1_555 1_555
H33A C42A 1_555 1_555
C43A C42A 1_555 1_555
H34A C43A 1_555 1_555
C44A C39A 1_555 1_555
C45A C44A 1_555 1_555
C46A C45A 1_555 1_555
H35A C46A 1_555 1_555
C47A C46A 1_555 1_555
H36A C47A 1_555 1_555
C48A C47A 1_555 1_555
H37A C48A 1_555 1_555
C49A C48A 1_555 1_555
H38A C49A 1_555 1_555
C50A O7A 1_555 1_555
C51A O8A 1_555 1_555
H39A C51A 1_555 1_555
H40A C51A 1_555 1_555
C52A C51A 1_555 1_555
H41A C52A 1_555 1_555
H42A C52A 1_555 1_555
H43A C52A 1_555 1_555
C53A O11A 1_555 1_555
H44A C53A 1_555 1_555
H45A C53A 1_555 1_555
C54A C53A 1_555 1_555
H46A C54A 1_555 1_555
H47A C54A 1_555 1_555
H48A C54A 1_555 1_555
C55A O9A 1_555 1_555
C56A C55A 1_555 1_555
H49A C56A 1_555 1_555
C57A C56A 1_555 1_555
H50A C57A 1_555 1_555
C58A C57A 1_555 1_555
H51A C58A 1_555 1_555
C59A C58A 1_555 1_555
H52A C59A 1_555 1_555
C60A C55A 1_555 1_555
C61A C60A 1_555 1_555
C62A C61A 1_555 1_555
H53A C62A 1_555 1_555
C63A C62A 1_555 1_555
H54A C63A 1_555 1_555
C64A C63A 1_555 1_555
H55A C64A 1_555 1_555
C65A C64A 1_555 1_555
H56A C65A 1_555 1_555
C66A O10A 1_555 1_555
H57A O8A 1_555 1_555
H58A O3A 1_555 1_555
Na1 O4 1_555 1_555
Na1 O6 1_555 1_555
Na1 O2A 1_555 1_555
Na2 O7 1_555 1_555
Na2 O11 1_555 1_555
Na2 O10A 1_555 1_555
C5 C6 1_555 1_555
C7 C12 1_555 1_555
C11 C12 1_555 1_555
C17 C18 1_555 1_555
C25 C26 1_555 1_555
C27 C32 1_555 1_555
C31 C32 1_555 1_555
C36 C38 1_555 1_555
C43 C44 1_555 1_555
C45 C50 1_555 1_555
C49 C50 1_555 1_555
C59 C60 1_555 1_555
C61 C66 1_555 1_555
C65 C66 1_555 1_555
Na1A O1A 1_555 1_555
Na1A O4A 1_555 1_555
Na1A O6A 1_555 1_555
Na2A O7A 1_555 1_555
Na2A O10_2 1_555 1_555
Na2A O11A 1_555 1_555
Na2A_2 O9A 1_555 1_555
Na2A_2 O11A_2 1_555 1_555
C5A C6A 1_555 1_555
C7A C12A 1_555 1_555
C11A C12A 1_555 1_555
C17A C18A 1_555 1_555
C25A C26A 1_555 1_555
C27A C32A 1_555 1_555
C31A C32A 1_555 1_555
C36A C38A 1_555 1_555
C43A C44A 1_555 1_555
C45A C50A 1_555 1_555
C49A C50A 1_555 1_555
C59A C60A 1_555 1_555
C61A C66A 1_555 1_555
C65A C66A 1_555 1_555

#END
