
#######################################################################
#
#                 Cambridge Crystallographic Data Centre
#                                CCDC 
#
#######################################################################
#
# If this CIF has been generated from an entry in the Cambridge 
# Structural Database, then it will include bibliographic, chemical, 
# crystal, experimental, refinement or atomic coordinate data resulting 
# from the CCDC's data processing and validation procedures.
#
#######################################################################

data_VAHYOU
_symmetry_cell_setting           monoclinic
_symmetry_space_group_name_H-M   'P 21'
_symmetry_Int_Tables_number      4
_space_group_name_Hall           'P 2yb'
loop_
_symmetry_equiv_pos_site_id
_symmetry_equiv_pos_as_xyz
1 x,y,z
2 -x,1/2+y,-z
_cell_length_a                   9.8604(15)
_cell_length_b                   14.374(2)
_cell_length_c                   10.3111(16)
_cell_angle_alpha                90
_cell_angle_beta                 95.065(3)
_cell_angle_gamma                90
_cell_volume                     1455.72
loop_
_atom_site_label
_atom_site_type_symbol
_atom_site_fract_x
_atom_site_fract_y
_atom_site_fract_z
C1 C 0.2980(7) 0.6078(6) 1.0031(7)
C2 C 0.4281(7) 0.5738(5) 0.9712(7)
H1 H 0.4876 0.5664 1.0506
H2 H 0.4691 0.6192 0.9171
C3 C 0.4160(7) 0.4830(5) 0.9010(7)
C4 C 0.5432(9) 0.3866(6) 0.7690(8)
H3 H 0.5997 0.4047 0.7008
H4 H 0.4527 0.3727 0.7290
C5 C 0.6026(8) 0.3012(6) 0.8386(7)
H5 H 0.6907 0.3159 0.8808
H6 H 0.6112 0.2522 0.7767
H7 H 0.5436 0.2814 0.9026
C6 C 0.4368(7) 0.8939(6) 0.7178(6)
C7 C 0.3558(7) 0.9568(5) 0.6278(7)
H8 H 0.2600 0.9462 0.6375
H9 H 0.3719 0.9402 0.5393
C8 C 0.3847(7) 1.0592(6) 0.6465(7)
C9 C 0.3094(8) 1.2100(6) 0.5893(7)
H10 H 0.3310 1.2270 0.6798
H11 H 0.2235 1.2392 0.5594
C10 C 0.4193(7) 1.2450(6) 0.5098(7)
H12 H 0.5066 1.2352 0.5568
H13 H 0.4063 1.3103 0.4932
H14 H 0.4153 1.2120 0.4287
C11 C -0.0091(7) 0.8815(5) 0.7994(7)
C12 C 0.0332(7) 0.9135(6) 0.9310(7)
H15 H 0.0775 0.8622 0.9789
H16 H -0.0477 0.9292 0.9734
C13 C 0.1272(7) 0.9954(6) 0.9412(8)
C14 C 0.2087(8) 1.1179(7) 1.0801(8)
H17 H 0.1709 1.1702 1.0297
H18 H 0.3013 1.1073 1.0585
C15 C 0.2054(8) 1.1358(6) 1.2239(8)
H19 H 0.1127 1.1366 1.2454
H20 H 0.2472 1.1947 1.2456
H21 H 0.2542 1.0873 1.2722
C16 C -0.2028(6) 1.1214(5) 0.5005(7)
C17 C -0.0806(7) 1.1613(5) 0.5753(7)
H22 H -0.0590 1.1242 0.6530
H23 H -0.0039 1.1576 0.5228
C18 C -0.0993(7) 1.2586(6) 0.6137(7)
C19 C 0.0130(9) 1.3780(7) 0.7447(9)
H24 H 0.0848 1.3779 0.8154
H25 H -0.0727 1.3877 0.7821
C20 C 0.0364(9) 1.4567(7) 0.6551(9)
H26 H 0.1123 1.4425 0.6063
H27 H 0.0554 1.5123 0.7049
H28 H -0.0436 1.4659 0.5963
N1 N 0.2188(6) 0.6691(5) 0.9351(6)
N2 N 0.1087(5) 0.6855(4) 1.0031(5)
N3 N 0.1212(6) 0.6368(5) 1.1092(6)
N4 N 0.2370(6) 0.5884(5) 1.1149(7)
N5 N 0.3944(7) 0.8152(5) 0.7716(6)
N6 N 0.5009(6) 0.7790(4) 0.8441(6)
N7 N 0.6056(6) 0.8330(5) 0.8351(6)
N8 N 0.5689(6) 0.9054(5) 0.7578(5)
N9 N 0.0520(7) 0.8148(5) 0.7345(7)
N10 N -0.0219(6) 0.8063(5) 0.6189(6)
N11 N -0.1249(7) 0.8639(5) 0.6139(6)
N12 N -0.1203(6) 0.9109(5) 0.7274(6)
N13 N -0.2850(6) 1.0603(5) 0.5540(6)
N14 N -0.3871(6) 1.0411(4) 0.4584(6)
N15 N -0.3651(6) 1.0900(4) 0.3557(6)
N16 N -0.2506(6) 1.1414(5) 0.3808(6)
O1 O 0.5364(6) 0.4611(4) 0.8599(5)
O2 O 0.3137(6) 0.4409(4) 0.8790(5)
O3 O 0.4758(5) 1.0891(4) 0.7175(5)
O4 O 0.2954(5) 1.1078(4) 0.5787(5)
O5 O 0.1932(5) 1.0212(4) 0.8554(5)
O6 O 0.1262(6) 1.0353(4) 1.0548(5)
O7 O 0.0100(5) 1.2912(4) 0.6833(5)
O8 O -0.2020(6) 1.3030(4) 0.5871(5)
Zn1 Zn 0.22262(7) 0.73722(5) 0.76086(7)
Zn2 Zn -0.28632(7) 1.00192(6) 0.73237(7)
N4A N -0.2370(6) 1.0884(5) 0.8851(7)
N8_2 N -0.4311(6) 0.9054(5) 0.7578(5)
N16A N 0.2506(6) 0.6414(5) 0.6192(6)
Zn1A Zn -0.22262(7) 1.23722(5) 0.23914(7)
Zn2_2 Zn 0.71368(7) 1.00192(6) 0.73237(7)
Zn2A Zn 0.28632(7) 0.50192(6) 1.26763(7)
loop_
_geom_bond_atom_site_label_1
_geom_bond_atom_site_label_2
_geom_bond_site_symmetry_1
_geom_bond_site_symmetry_2
C1 C2 1_555 1_555
C2 H1 1_555 1_555
H2 C2 1_555 1_555
C3 C2 1_555 1_555
C4 H3 1_555 1_555
H4 C4 1_555 1_555
C5 C4 1_555 1_555
H5 C5 1_555 1_555
H6 C5 1_555 1_555
H7 C5 1_555 1_555
C6 C7 1_555 1_555
C7 H8 1_555 1_555
H9 C7 1_555 1_555
C8 C7 1_555 1_555
C9 H10 1_555 1_555
H11 C9 1_555 1_555
C10 C9 1_555 1_555
H12 C10 1_555 1_555
H13 C10 1_555 1_555
H14 C10 1_555 1_555
C11 C12 1_555 1_555
C12 H15 1_555 1_555
H16 C12 1_555 1_555
C13 C12 1_555 1_555
C14 H17 1_555 1_555
H18 C14 1_555 1_555
C15 C14 1_555 1_555
H19 C15 1_555 1_555
H20 C15 1_555 1_555
H21 C15 1_555 1_555
C16 C17 1_555 1_555
C17 H22 1_555 1_555
H23 C17 1_555 1_555
C18 C17 1_555 1_555
C19 H24 1_555 1_555
H25 C19 1_555 1_555
C20 C19 1_555 1_555
H26 C20 1_555 1_555
H27 C20 1_555 1_555
H28 C20 1_555 1_555
N1 C1 1_555 1_555
N2 N1 1_555 1_555
N3 N2 1_555 1_555
N4 C1 1_555 1_555
N5 C6 1_555 1_555
N6 N5 1_555 1_555
N7 N6 1_555 1_555
N8 C6 1_555 1_555
N9 C11 1_555 1_555
N10 N9 1_555 1_555
N11 N10 1_555 1_555
N12 C11 1_555 1_555
N13 C16 1_555 1_555
N14 N13 1_555 1_555
N15 N14 1_555 1_555
N16 C16 1_555 1_555
O1 C3 1_555 1_555
O2 C3 1_555 1_555
O3 C8 1_555 1_555
O4 C8 1_555 1_555
O5 C13 1_555 1_555
O6 C13 1_555 1_555
O7 C18 1_555 1_555
O8 C18 1_555 1_555
Zn1 N1 1_555 1_555
Zn2 N12 1_555 1_555
N4A Zn2 1_555 1_555
N8_2 Zn2 1_555 1_555
N16A Zn1 1_555 1_555
Zn1A N16 1_555 1_555
Zn2_2 N8 1_555 1_555
Zn2A N4 1_555 1_555
C4 O1 1_555 1_555
C9 O4 1_555 1_555
C14 O6 1_555 1_555
C19 O7 1_555 1_555
N3 N4 1_555 1_555
N5 Zn1 1_555 1_555
N7 N8 1_555 1_555
N9 Zn1 1_555 1_555
N11 N12 1_555 1_555
N13 Zn2 1_555 1_555
N15 N16 1_555 1_555

#END
