
#######################################################################
#
#                 Cambridge Crystallographic Data Centre
#                                CCDC 
#
#######################################################################
#
# If this CIF has been generated from an entry in the Cambridge 
# Structural Database, then it will include bibliographic, chemical, 
# crystal, experimental, refinement or atomic coordinate data resulting 
# from the CCDC's data processing and validation procedures.
#
#######################################################################

data_VAJDOA
_symmetry_cell_setting           monoclinic
_symmetry_space_group_name_H-M   'P 21/c'
_symmetry_Int_Tables_number      14
_space_group_name_Hall           '-P 2ybc'
loop_
_symmetry_equiv_pos_site_id
_symmetry_equiv_pos_as_xyz
1 x,y,z
2 -x,1/2+y,1/2-z
3 -x,-y,-z
4 x,1/2-y,1/2+z
_cell_length_a                   12.939(2)
_cell_length_b                   10.0886(15)
_cell_length_c                   12.9121(19)
_cell_angle_alpha                90
_cell_angle_beta                 116.380(2)
_cell_angle_gamma                90
_cell_volume                     1509.98
loop_
_atom_site_label
_atom_site_type_symbol
_atom_site_fract_x
_atom_site_fract_y
_atom_site_fract_z
Mn1 Mn 0.5000 0.5000 0.5000
C1 C 0.4196(2) 0.2233(3) 0.3673(2)
C2 C 0.3994(2) 0.0843(3) 0.3665(2)
C3 C 0.3877(2) 0.0000(2) 0.2743(2)
C4 C 0.3965(2) 0.0502(3) 0.1742(2)
C5 C 0.3885(2) 0.1910(3) 0.1646(2)
C6 C 0.3999(2) 0.2736(2) 0.2559(2)
C7 C 0.1631(3) 0.0633(5) 0.2687(4)
O1 O 0.1102(3) 0.0108(4) 0.3074(3)
C8 C 0.1557(3) 0.0958(4) 0.0660(3)
O2 O 0.0998(3) 0.0644(4) -0.0268(3)
C9 C 0.1667(3) 0.2919(3) 0.1986(3)
O3 O 0.1109(3) 0.3843(3) 0.1882(4)
O4 O 0.4450(2) 0.2959(2) 0.4565(1)
Mn2 Mn 0.2493(1) 0.1466(1) 0.2119(1)
O5 O 0.3987(2) -0.0256(2) 0.0961(2)
O6 O 0.3677(2) 0.5749(2) 0.3322(2)
C10 C 0.2721(3) 0.6275(3) 0.2831(3)
C11 C 0.2028(4) 0.6579(4) 0.3474(3)
N1 N 0.2276(2) 0.6573(3) 0.1719(2)
C12 C 0.2939(4) 0.6268(5) 0.1072(3)
C13 C 0.1125(3) 0.7151(5) 0.1066(3)
H1 H 0.3937 0.0472 0.4297
H2 H 0.3740 -0.0898 0.2785
H3 H 0.3750 0.2295 0.0943
H4 H 0.3945 0.3648 0.2442
H5 H 0.2454 0.6317 0.4268
H6 H 0.1312 0.6101 0.3131
H7 H 0.1873 0.7513 0.3435
H8 H 0.3716 0.6042 0.1603
H9 H 0.2945 0.7029 0.0628
H10 H 0.2588 0.5535 0.0561
H11 H 0.0912 0.7631 0.1584
H12 H 0.0575 0.6456 0.0700
H13 H 0.1134 0.7743 0.0488
C1B C 0.5804(2) 0.7767(3) 0.6327(2)
C2B C 0.6006(2) 0.9157(3) 0.6335(2)
C3B C 0.6123(2) 1.0000(2) 0.7257(2)
C4B C 0.6035(2) 0.9498(3) 0.8258(2)
C5B C 0.6115(2) 0.8090(3) 0.8354(2)
C6B C 0.6001(2) 0.7264(2) 0.7441(2)
O4B O 0.5550(2) 0.7041(2) 0.5435(1)
O5B O 0.6013(2) 1.0256(2) 0.9039(2)
H1B H 0.6063 0.9528 0.5703
H2B H 0.6260 1.0898 0.7215
H3B H 0.6250 0.7705 0.9057
H4B H 0.6055 0.6352 0.7558
O6B O 0.6323(2) 0.4251(2) 0.6678(2)
C10B C 0.7279(3) 0.3725(3) 0.7169(3)
C11B C 0.7972(4) 0.3421(4) 0.6526(3)
N1B N 0.7724(2) 0.3427(3) 0.8281(2)
C12B C 0.7061(4) 0.3732(5) 0.8928(3)
C13B C 0.8875(3) 0.2849(5) 0.8934(3)
H5B H 0.7546 0.3683 0.5732
H6B H 0.8688 0.3899 0.6869
H7B H 0.8127 0.2487 0.6565
H8B H 0.6284 0.3958 0.8397
H9B H 0.7055 0.2971 0.9372
H10B H 0.7412 0.4465 0.9439
H11B H 0.9088 0.2369 0.8416
H12B H 0.9425 0.3544 0.9300
H13B H 0.8866 0.2257 0.9512
Mn2B Mn 0.7507(1) 0.8534(1) 0.7881(1)
C7B C 0.8369(3) 0.9367(5) 0.7313(4)
O1B O 0.8898(3) 0.9892(4) 0.6926(3)
C8B C 0.8443(3) 0.9042(4) 0.9340(3)
O2B O 0.9002(3) 0.9356(4) 1.0268(3)
C9B C 0.8333(3) 0.7081(3) 0.8014(3)
O3B O 0.8891(3) 0.6157(3) 0.8118(4)
O5A O 0.6013(2) 0.4744(2) 0.4039(2)
O5C O 0.3987(2) 0.5256(2) 0.5961(2)
Mn1A Mn 0.5000 0.0000 0.0000
Mn1A_2 Mn 0.5000 1.0000 1.0000
loop_
_geom_bond_atom_site_label_1
_geom_bond_atom_site_label_2
_geom_bond_site_symmetry_1
_geom_bond_site_symmetry_2
Mn1 O4 1_555 1_555
C1 C2 1_555 1_555
C2 C3 1_555 1_555
C3 C4 1_555 1_555
C4 C5 1_555 1_555
C5 C6 1_555 1_555
C6 C1 1_555 1_555
C7 O1 1_555 1_555
C8 O2 1_555 1_555
C9 O3 1_555 1_555
O4 C1 1_555 1_555
Mn2 C1 1_555 1_555
O5 C4 1_555 1_555
O6 Mn1 1_555 1_555
C10 O6 1_555 1_555
C11 C10 1_555 1_555
N1 C10 1_555 1_555
C12 N1 1_555 1_555
C13 N1 1_555 1_555
H1 C2 1_555 1_555
H2 C3 1_555 1_555
H3 C5 1_555 1_555
H4 C6 1_555 1_555
H5 C11 1_555 1_555
H6 C11 1_555 1_555
H7 C11 1_555 1_555
H8 C12 1_555 1_555
H9 C12 1_555 1_555
H10 C12 1_555 1_555
H11 C13 1_555 1_555
H12 C13 1_555 1_555
H13 C13 1_555 1_555
C1B C2B 1_555 1_555
C2B C3B 1_555 1_555
C3B C4B 1_555 1_555
C4B C5B 1_555 1_555
C5B C6B 1_555 1_555
C6B C1B 1_555 1_555
O4B Mn1 1_555 1_555
O5B C4B 1_555 1_555
H1B C2B 1_555 1_555
H2B C3B 1_555 1_555
H3B C5B 1_555 1_555
H4B C6B 1_555 1_555
O6B Mn1 1_555 1_555
C10B O6B 1_555 1_555
C11B C10B 1_555 1_555
N1B C10B 1_555 1_555
C12B N1B 1_555 1_555
C13B N1B 1_555 1_555
H5B C11B 1_555 1_555
H6B C11B 1_555 1_555
H7B C11B 1_555 1_555
H8B C12B 1_555 1_555
H9B C12B 1_555 1_555
H10B C12B 1_555 1_555
H11B C13B 1_555 1_555
H12B C13B 1_555 1_555
H13B C13B 1_555 1_555
Mn2B C1B 1_555 1_555
C7B Mn2B 1_555 1_555
O1B C7B 1_555 1_555
C8B Mn2B 1_555 1_555
O2B C8B 1_555 1_555
C9B Mn2B 1_555 1_555
O3B C9B 1_555 1_555
O5A Mn1 1_555 1_555
O5C Mn1 1_555 1_555
Mn1A O5 1_555 1_555
Mn1A_2 O5B 1_555 1_555
C2 Mn2 1_555 1_555
C3 Mn2 1_555 1_555
C4 Mn2 1_555 1_555
C5 Mn2 1_555 1_555
C6 Mn2 1_555 1_555
C7 Mn2 1_555 1_555
C8 Mn2 1_555 1_555
C9 Mn2 1_555 1_555
C1B O4B 1_555 1_555
C2B Mn2B 1_555 1_555
C3B Mn2B 1_555 1_555
C4B Mn2B 1_555 1_555
C5B Mn2B 1_555 1_555
C6B Mn2B 1_555 1_555

#END
