
#######################################################################
#
#                 Cambridge Crystallographic Data Centre
#                                CCDC 
#
#######################################################################
#
# If this CIF has been generated from an entry in the Cambridge 
# Structural Database, then it will include bibliographic, chemical, 
# crystal, experimental, refinement or atomic coordinate data resulting 
# from the CCDC's data processing and validation procedures.
#
#######################################################################

data_VAJDIU
_symmetry_cell_setting           monoclinic
_symmetry_space_group_name_H-M   'C 2/c'
_symmetry_Int_Tables_number      15
_space_group_name_Hall           '-C 2yn'
loop_
_symmetry_equiv_pos_site_id
_symmetry_equiv_pos_as_xyz
1 x,y,z
2 -x,y,1/2-z
3 1/2+x,1/2+y,z
4 1/2-x,1/2+y,1/2-z
5 -x,-y,-z
6 x,-y,1/2+z
7 1/2-x,1/2-y,-z
8 1/2+x,1/2-y,1/2+z
_cell_length_a                   39.700(3)
_cell_length_b                   8.3664(6)
_cell_length_c                   24.390(2)
_cell_angle_alpha                90
_cell_angle_beta                 90.128(2)
_cell_angle_gamma                90
_cell_volume                     8101.02
loop_
_atom_site_label
_atom_site_type_symbol
_atom_site_fract_x
_atom_site_fract_y
_atom_site_fract_z
Mn1 Mn 0.0000 0.6685(1) 0.2500
O1 O 0.0209(1) 0.8460(4) 0.1954(2)
Mn2 Mn 0.2500 0.7500 0.5000
O2 O 0.2678(1) 0.9216(4) 0.4410(2)
N1 N 0.0492(1) 0.6604(6) 0.2995(2)
C1 C 0.0787(2) 0.6348(13) 0.2772(3)
C2 C 0.1088(2) 0.6448(13) 0.3057(3)
C3 C 0.1087(1) 0.6794(8) 0.3606(2)
C4 C 0.0776(1) 0.6954(8) 0.3850(2)
C5 C 0.0490(1) 0.6860(8) 0.3531(2)
C6 C 0.1713(1) 0.6819(10) 0.4771(3)
C7 C 0.1412(2) 0.6629(10) 0.4487(3)
C8 C 0.1405(1) 0.6950(7) 0.3930(2)
C9 C 0.1705(1) 0.7379(8) 0.3689(2)
C10 C 0.1991(1) 0.7518(7) 0.4002(2)
N2 N 0.2000(1) 0.7276(6) 0.4536(2)
O3 O 0.0220(1) 1.4996(4) 0.1948(2)
C11 C 0.0210(1) 1.3477(6) 0.1886(2)
C12 C -0.0098(1) 1.2558(6) 0.1845(2)
C13 C -0.0100(1) 1.0893(6) 0.1847(2)
C14 C 0.0206(1) 0.9965(7) 0.1890(2)
C15 C 0.0498(1) 1.0882(6) 0.1786(2)
C16 C 0.0505(1) 1.2562(7) 0.1787(2)
Mn3 Mn 0.0171(1) 1.1723(1) 0.1128(1)
C17 C -0.0045(2) 1.3241(11) 0.0756(3)
O4 O -0.0188(2) 1.4220(9) 0.0520(2)
C18 C 0.0519(2) 1.1823(10) 0.0653(3)
O5 O 0.0732(2) 1.1894(11) 0.0351(2)
C19 C -0.0014(2) 1.0143(9) 0.0749(2)
O6 O -0.0140(2) 0.9118(8) 0.0507(2)
O7 O 0.2716(1) 1.5731(4) 0.4462(2)
C20 C 0.2377(1) 1.1688(6) 0.4343(2)
C21 C 0.2386(1) 1.3351(6) 0.4353(2)
C22 C 0.2696(1) 1.4242(6) 0.4385(2)
C23 C 0.2984(1) 1.3299(6) 0.4251(2)
C24 C 0.2978(1) 1.1607(6) 0.4236(2)
Mn4 Mn 0.2631(1) 1.2520(1) 0.3610(1)
C25 C 0.2679(1) 1.0734(6) 0.4358(2)
C26 C 0.2407(2) 1.1018(9) 0.3242(2)
O8 O 0.2255(2) 1.0048(7) 0.3012(2)
C27 C 0.2966(2) 1.2508(8) 0.3115(3)
O9 O 0.3175(1) 1.2475(8) 0.2800(2)
C28 C 0.2428(2) 1.4129(8) 0.3258(2)
O10 O 0.2289(2) 1.5133(8) 0.3031(2)
H1 H 0.0794 0.6085 0.2401
H2 H 0.1290 0.6280 0.2875
H3 H 0.0759 0.7124 0.4226
H4 H 0.0283 0.6985 0.3702
H5 H 0.1715 0.6616 0.5146
H6 H 0.1218 0.6293 0.4668
H7 H 0.1714 0.7576 0.3314
H8 H 0.2190 0.7798 0.3827
H9 H -0.0302 1.3098 0.1818
H10 H -0.0305 1.0361 0.1818
H11 H 0.0698 1.0341 0.1713
H12 H 0.0707 1.3086 0.1720
H13 H 0.2169 1.1176 0.4326
H14 H 0.2183 1.3910 0.4339
H15 H 0.3184 1.3819 0.4169
H16 H 0.3173 1.1054 0.4145
O1A O -0.0209(1) 0.8460(4) 0.3046(2)
O3A O -0.0220(1) 1.4996(4) 0.3052(2)
C11A C -0.0210(1) 1.3477(6) 0.3114(2)
C12A C 0.0098(1) 1.2558(6) 0.3155(2)
C13A C 0.0100(1) 1.0893(6) 0.3153(2)
C14A C -0.0206(1) 0.9965(7) 0.3110(2)
C15A C -0.0498(1) 1.0882(6) 0.3214(2)
C16A C -0.0505(1) 1.2562(7) 0.3213(2)
H9A H 0.0302 1.3098 0.3182
H10A H 0.0305 1.0361 0.3182
H11A H -0.0698 1.0341 0.3287
H12A H -0.0707 1.3086 0.3280
N1A N -0.0492(1) 0.6604(6) 0.2005(2)
C1A C -0.0787(2) 0.6348(13) 0.2228(3)
C2A C -0.1088(2) 0.6448(13) 0.1943(3)
C3A C -0.1087(1) 0.6794(8) 0.1394(2)
C4A C -0.0776(1) 0.6954(8) 0.1150(2)
C5A C -0.0490(1) 0.6860(8) 0.1469(2)
C6A C -0.1713(1) 0.6819(10) 0.0229(3)
C7A C -0.1412(2) 0.6629(10) 0.0513(3)
C8A C -0.1405(1) 0.6950(7) 0.1070(2)
C9A C -0.1705(1) 0.7379(8) 0.1311(2)
C10A C -0.1991(1) 0.7518(7) 0.0998(2)
N2A N -0.2000(1) 0.7276(6) 0.0464(2)
H1A H -0.0794 0.6085 0.2599
H2A H -0.1290 0.6280 0.2125
H3A H -0.0759 0.7124 0.0774
H4A H -0.0283 0.6985 0.1298
H5A H -0.1715 0.6616 -0.0146
H6A H -0.1218 0.6293 0.0332
H7A H -0.1714 0.7576 0.1686
H8A H -0.2190 0.7798 0.1173
Mn3A Mn -0.0171(1) 1.1723(1) 0.3872(1)
O2F O 0.2322(1) 0.5784(4) 0.5590(2)
O7F O 0.2284(1) -0.0731(4) 0.5538(2)
C20F C 0.2623(1) 0.3312(6) 0.5657(2)
C21F C 0.2614(1) 0.1649(6) 0.5647(2)
C22F C 0.2304(1) 0.0758(6) 0.5615(2)
C23F C 0.2016(1) 0.1701(6) 0.5749(2)
C24F C 0.2022(1) 0.3393(6) 0.5764(2)
C25F C 0.2321(1) 0.4266(6) 0.5642(2)
H13F H 0.2831 0.3824 0.5674
H14F H 0.2817 0.1090 0.5661
H15F H 0.1816 0.1181 0.5831
H16F H 0.1827 0.3946 0.5855
C17A C 0.0045(2) 1.3241(11) 0.4244(3)
O4A O 0.0188(2) 1.4220(9) 0.4480(2)
C18A C -0.0519(2) 1.1823(10) 0.4347(3)
O5A O -0.0732(2) 1.1894(11) 0.4649(2)
C19A C 0.0014(2) 1.0143(9) 0.4251(2)
O6A O 0.0140(2) 0.9118(8) 0.4493(2)
Mn4F Mn 0.2369(1) 0.2480(1) 0.6390(1)
C26F C 0.2593(2) 0.3982(9) 0.6758(2)
O8F O 0.2745(2) 0.4952(7) 0.6988(2)
C27F C 0.2034(2) 0.2492(8) 0.6885(3)
O9F O 0.1825(1) 0.2525(8) 0.7200(2)
C28F C 0.2572(2) 0.0871(8) 0.6742(2)
O10F O 0.2711(2) -0.0133(8) 0.6969(2)
O3_2 O 0.0220(1) 0.4996(4) 0.1948(2)
O3A_2 O -0.0220(1) 0.4996(4) 0.3052(2)
N2F N 0.3000(1) 0.7724(6) 0.5464(2)
O7_2 O 0.2716(1) 0.5731(4) 0.4462(2)
O7F_2 O 0.2284(1) 0.9269(4) 0.5538(2)
Mn1_2 Mn 0.0000 1.6685(1) 0.2500
Mn2_2 Mn 0.2500 1.7500 0.5000
Mn2A Mn -0.2500 0.7500 0.0000
Mn2_3 Mn 0.2500 -0.2500 0.5000
S1 S 0.0937(1) 0.4189(4) 0.5935(2)
O11 O 0.1190(3) 0.4150(20) 0.5491(5)
C29 C 0.0576(4) 0.3310(40) 0.5682(13)
C30 C 0.1054(7) 0.2660(30) 0.6370(7)
H17 H 0.0387 0.3989 0.5757
H18 H 0.0544 0.2294 0.5856
H19 H 0.0597 0.3164 0.5294
H20 H 0.1238 0.3008 0.6597
H21 H 0.1123 0.1751 0.6158
H22 H 0.0866 0.2370 0.6596
S3 S 0.1605(1) 0.3460(5) 0.1623(2)
O13 O 0.1350(3) 0.3594(19) 0.2032(5)
C33 C 0.1963(3) 0.2610(30) 0.1863(10)
C34 C 0.1487(5) 0.1910(20) 0.1201(7)
H29 H 0.1956 0.2565 0.2256
H30 H 0.2154 0.3230 0.1750
H31 H 0.1983 0.1543 0.1720
H32 H 0.1402 0.1046 0.1418
H33 H 0.1679 0.1550 0.0996
H34 H 0.1316 0.2270 0.0952
S5 S 0.1062(4) 0.2070(20) 0.3851(6)
O15 O 0.1453(4) 0.2220(20) 0.3897(8)
C37 C 0.1037(9) 0.1040(50) 0.3251(14)
C38 C 0.0959(14) 0.3940(40) 0.3620(30)
H41 H 0.0812 0.1094 0.3110
H42 H 0.1096 -0.0062 0.3316
H43 H 0.1191 0.1490 0.2991
H44 H 0.0933 0.3916 0.3230
H45 H 0.1134 0.4676 0.3719
H46 H 0.0751 0.4272 0.3786
S2? S 0.0957(4) 0.2470(20) 0.5759(8)
O12? O 0.1154(11) 0.3730(70) 0.5460(20)
C31? C 0.0579(6) 0.3410(50) 0.5884(17)
C32? C 0.1127(14) 0.2580(90) 0.6404(15)
S4? S 0.1579(4) 0.1670(20) 0.1743(8)
O14? O 0.1498(9) 0.2870(50) 0.2180(14)
C35? C 0.1974(6) 0.2440(50) 0.1593(14)
C36? C 0.1393(14) 0.2430(80) 0.1167(16)
H23? H 0.0594 0.4507 0.5771
H24? H 0.0530 0.3365 0.6269
H25? H 0.0403 0.2887 0.5683
H26? H 0.1177 0.3677 0.6489
H27? H 0.1331 0.1964 0.6418
H28? H 0.0969 0.2170 0.6666
H35? H 0.2104 0.2519 0.1924
H36? H 0.1950 0.3480 0.1433
H37? H 0.2087 0.1745 0.1339
H38? H 0.1362 0.1597 0.0903
H39? H 0.1534 0.3251 0.1015
H40? H 0.1178 0.2882 0.1261
loop_
_geom_bond_atom_site_label_1
_geom_bond_atom_site_label_2
_geom_bond_site_symmetry_1
_geom_bond_site_symmetry_2
Mn1 O1 1_555 1_555
O1 C14 1_555 1_555
Mn2 O2 1_555 1_555
O2 C25 1_555 1_555
N1 Mn1 1_555 1_555
C1 N1 1_555 1_555
C2 C1 1_555 1_555
C3 C2 1_555 1_555
C4 C3 1_555 1_555
C5 N1 1_555 1_555
C6 C7 1_555 1_555
C7 C8 1_555 1_555
C8 C3 1_555 1_555
C9 C8 1_555 1_555
C10 C9 1_555 1_555
N2 Mn2 1_555 1_555
O3 C11 1_555 1_555
C11 C12 1_555 1_555
C12 C13 1_555 1_555
C13 C14 1_555 1_555
C14 C15 1_555 1_555
C15 C16 1_555 1_555
C16 C11 1_555 1_555
Mn3 C11 1_555 1_555
C17 Mn3 1_555 1_555
O4 C17 1_555 1_555
C18 Mn3 1_555 1_555
O5 C18 1_555 1_555
C19 Mn3 1_555 1_555
O6 C19 1_555 1_555
O7 C22 1_555 1_555
C20 C21 1_555 1_555
C21 C22 1_555 1_555
C22 C23 1_555 1_555
C23 C24 1_555 1_555
C24 Mn4 1_555 1_555
Mn4 C20 1_555 1_555
C25 C20 1_555 1_555
C26 Mn4 1_555 1_555
O8 C26 1_555 1_555
C27 Mn4 1_555 1_555
O9 C27 1_555 1_555
C28 Mn4 1_555 1_555
O10 C28 1_555 1_555
S1 O11 1_555 1_555
C29 S1 1_555 1_555
C30 S1 1_555 1_555
S3 O13 1_555 1_555
C33 S3 1_555 1_555
C34 S3 1_555 1_555
S5 O15 1_555 1_555
C37 S5 1_555 1_555
C38 S5 1_555 1_555
H1 C1 1_555 1_555
H2 C2 1_555 1_555
H3 C4 1_555 1_555
H4 C5 1_555 1_555
H5 C6 1_555 1_555
H6 C7 1_555 1_555
H7 C9 1_555 1_555
H8 C10 1_555 1_555
H9 C12 1_555 1_555
H10 C13 1_555 1_555
H11 C15 1_555 1_555
H12 C16 1_555 1_555
H13 C20 1_555 1_555
H14 C21 1_555 1_555
H15 C23 1_555 1_555
H16 C24 1_555 1_555
H17 C29 1_555 1_555
H18 C29 1_555 1_555
H19 C29 1_555 1_555
H20 C30 1_555 1_555
H21 C30 1_555 1_555
H22 C30 1_555 1_555
H29 C33 1_555 1_555
H30 C33 1_555 1_555
H31 C33 1_555 1_555
H32 C34 1_555 1_555
H33 C34 1_555 1_555
H34 C34 1_555 1_555
H41 C37 1_555 1_555
H42 C37 1_555 1_555
H43 C37 1_555 1_555
H44 C38 1_555 1_555
H45 C38 1_555 1_555
H46 C38 1_555 1_555
O1A Mn1 1_555 1_555
O3A C11A 1_555 1_555
C11A C12A 1_555 1_555
C12A C13A 1_555 1_555
C13A C14A 1_555 1_555
C14A O1A 1_555 1_555
C15A C14A 1_555 1_555
C16A C11A 1_555 1_555
H9A C12A 1_555 1_555
H10A C13A 1_555 1_555
H11A C15A 1_555 1_555
H12A C16A 1_555 1_555
N1A Mn1 1_555 1_555
C1A N1A 1_555 1_555
C2A C1A 1_555 1_555
C3A C2A 1_555 1_555
C4A C3A 1_555 1_555
C5A N1A 1_555 1_555
C6A C7A 1_555 1_555
C7A C8A 1_555 1_555
C8A C3A 1_555 1_555
C9A C8A 1_555 1_555
C10A C9A 1_555 1_555
N2A C6A 1_555 1_555
H1A C1A 1_555 1_555
H2A C2A 1_555 1_555
H3A C4A 1_555 1_555
H4A C5A 1_555 1_555
H5A C6A 1_555 1_555
H6A C7A 1_555 1_555
H7A C9A 1_555 1_555
H8A C10A 1_555 1_555
Mn3A C11A 1_555 1_555
O2F Mn2 1_555 1_555
O7F C22F 1_555 1_555
C20F C21F 1_555 1_555
C21F C22F 1_555 1_555
C22F C23F 1_555 1_555
C23F C24F 1_555 1_555
C24F C25F 1_555 1_555
C25F O2F 1_555 1_555
H13F C20F 1_555 1_555
H14F C21F 1_555 1_555
H15F C23F 1_555 1_555
H16F C24F 1_555 1_555
C17A Mn3A 1_555 1_555
O4A C17A 1_555 1_555
C18A Mn3A 1_555 1_555
O5A C18A 1_555 1_555
C19A Mn3A 1_555 1_555
O6A C19A 1_555 1_555
Mn4F C20F 1_555 1_555
C26F Mn4F 1_555 1_555
O8F C26F 1_555 1_555
C27F Mn4F 1_555 1_555
O9F C27F 1_555 1_555
C28F Mn4F 1_555 1_555
O10F C28F 1_555 1_555
O3_2 Mn1 1_555 1_555
O3A_2 Mn1 1_555 1_555
N2F Mn2 1_555 1_555
O7_2 Mn2 1_555 1_555
O7F_2 Mn2 1_555 1_555
Mn1_2 O3 1_555 1_555
Mn2_2 O7 1_555 1_555
Mn2A N2A 1_555 1_555
Mn2_3 O7F 1_555 1_555
C4 C5 1_555 1_555
C6 N2 1_555 1_555
C10 N2 1_555 1_555
C12 Mn3 1_555 1_555
C13 Mn3 1_555 1_555
C14 Mn3 1_555 1_555
C15 Mn3 1_555 1_555
C16 Mn3 1_555 1_555
C21 Mn4 1_555 1_555
C22 Mn4 1_555 1_555
C23 Mn4 1_555 1_555
C24 C25 1_555 1_555
Mn4 C25 1_555 1_555
O3A Mn1_2 1_555 1_555
C12A Mn3A 1_555 1_555
C13A Mn3A 1_555 1_555
C14A Mn3A 1_555 1_555
C15A Mn3A 1_555 1_555
C15A C16A 1_555 1_555
C16A Mn3A 1_555 1_555
C4A C5A 1_555 1_555
C10A N2A 1_555 1_555
C20F C25F 1_555 1_555
C21F Mn4F 1_555 1_555
C22F Mn4F 1_555 1_555
C23F Mn4F 1_555 1_555
C24F Mn4F 1_555 1_555
C25F Mn4F 1_555 1_555

#END
