
#######################################################################
#
#                 Cambridge Crystallographic Data Centre
#                                CCDC 
#
#######################################################################
#
# If this CIF has been generated from an entry in the Cambridge 
# Structural Database, then it will include bibliographic, chemical, 
# crystal, experimental, refinement or atomic coordinate data resulting 
# from the CCDC's data processing and validation procedures.
#
#######################################################################

data_VAJKUN
_symmetry_cell_setting           triclinic
_symmetry_space_group_name_H-M   'P -1'
_symmetry_Int_Tables_number      2
_space_group_name_Hall           '-P 1'
loop_
_symmetry_equiv_pos_site_id
_symmetry_equiv_pos_as_xyz
1 x,y,z
2 -x,-y,-z
_cell_length_a                   11.572(2)
_cell_length_b                   12.643(3)
_cell_length_c                   8.0254(16)
_cell_angle_alpha                101.74(3)
_cell_angle_beta                 100.25(3)
_cell_angle_gamma                66.50(3)
_cell_volume                     1048.1
loop_
_atom_site_label
_atom_site_type_symbol
_atom_site_fract_x
_atom_site_fract_y
_atom_site_fract_z
Ni1 Ni 0.0000 0.0000 0.0000
N1 N 0.0553(4) -0.1500(4) -0.1849(6)
N2 N 0.1187(5) -0.4967(5) -0.6845(6)
N3 N 0.3055(5) -0.5397(5) -0.5383(7)
O1 O -0.0020(4) -0.4482(4) -0.7233(6)
O2 O 0.3985(4) -0.5322(5) -0.4313(7)
O3 O -0.1850(3) 0.0006(3) -0.0319(5)
O4 O -0.1812(4) -0.0511(4) 0.2212(5)
O5 O -0.4110(4) 0.2060(5) -0.1450(6)
O6 O -0.3841(5) 0.0570(5) -0.3572(6)
O7 O -0.0579(5) 0.1092(4) -0.1866(6)
C1 C -0.0074(5) -0.1630(6) -0.3386(7)
H1 H -0.0823 -0.1016 -0.3656
C2 C 0.0298(6) -0.2603(6) -0.4611(7)
H2 H -0.0176 -0.2632 -0.5672
C3 C 0.1400(5) -0.3542(5) -0.4222(7)
C4 C 0.2048(6) -0.3422(6) -0.2620(8)
H3 H 0.2786 -0.4030 -0.2298
C5 C 0.1607(6) -0.2407(6) -0.1499(8)
H4 H 0.2071 -0.2349 -0.0436
C6 C 0.1858(5) -0.4618(5) -0.5458(7)
C7 C 0.2016(6) -0.5976(6) -0.7996(8)
C8 C 0.3162(6) -0.6490(6) -0.6658(8)
C9 C 0.2318(8) -0.5432(7) -0.9334(9)
H5 H 0.2747 -0.4924 -0.8765
H6 H 0.1544 -0.4993 -0.9962
H7 H 0.2852 -0.6040 -1.0109
C10 C 0.1338(7) -0.6787(7) -0.8822(10)
H8 H 0.1166 -0.7109 -0.7953
H9 H 0.1863 -0.7406 -0.9593
H10 H 0.0555 -0.6360 -0.9446
C11 C 0.4455(7) -0.6988(8) -0.7331(10)
H11 H 0.4515 -0.6445 -0.7959
H12 H 0.4554 -0.7711 -0.8072
H13 H 0.5109 -0.7122 -0.6387
C12 C 0.3026(9) -0.7339(7) -0.5639(10)
H14 H 0.2206 -0.7005 -0.5230
H15 H 0.3671 -0.7474 -0.4684
H16 H 0.3117 -0.8064 -0.6369
C13 C -0.2337(6) -0.0198(6) 0.0806(8)
C14 C -0.3735(5) -0.0073(5) 0.0368(7)
C15 C -0.4515(5) 0.0474(5) -0.0990(7)
C16 C -0.4093(6) 0.1042(6) -0.2123(9)
C17 C -0.4241(5) -0.0529(5) 0.1360(7)
H17 H -0.370(4) -0.090(4) 0.229(5)
H18 H -0.397(6) 0.256(6) -0.202(8)
H19 H -0.109(9) 0.118(9) -0.248(12)
H20 H 0.009(9) 0.106(8) -0.211(11)
C17A C -0.5759(5) 0.0529(5) -0.1360(7)
C14A C -0.6265(5) 0.0073(5) -0.0368(7)
C13A C -0.7663(6) 0.0198(6) -0.0806(8)
O3A O -0.8150(3) -0.0006(3) 0.0319(5)
O4A O -0.8188(4) 0.0511(4) -0.2212(5)
C15A C -0.5485(5) -0.0474(5) 0.0990(7)
C16A C -0.5907(6) -0.1042(6) 0.2123(9)
O5A O -0.5890(4) -0.2060(5) 0.1450(6)
H18A H -0.603(6) -0.256(6) 0.202(8)
O6A O -0.6159(5) -0.0570(5) 0.3572(6)
H17A H -0.630(4) 0.090(4) -0.229(5)
N1A N -0.0553(4) 0.1500(4) 0.1849(6)
N2A N -0.1187(5) 0.4967(5) 0.6845(6)
N3A N -0.3055(5) 0.5397(5) 0.5383(7)
O1A O 0.0020(4) 0.4482(4) 0.7233(6)
O2A O -0.3985(4) 0.5322(5) 0.4313(7)
C1A C 0.0074(5) 0.1630(6) 0.3386(7)
H1A H 0.0823 0.1016 0.3656
C2A C -0.0298(6) 0.2603(6) 0.4611(7)
H2A H 0.0176 0.2632 0.5672
C3A C -0.1400(5) 0.3542(5) 0.4222(7)
C4A C -0.2048(6) 0.3422(6) 0.2620(8)
H3A H -0.2786 0.4030 0.2298
C5A C -0.1607(6) 0.2407(6) 0.1499(8)
H4A H -0.2071 0.2349 0.0436
C6A C -0.1858(5) 0.4618(5) 0.5458(7)
C7A C -0.2016(6) 0.5976(6) 0.7996(8)
C8A C -0.3162(6) 0.6490(6) 0.6658(8)
C9A C -0.2318(8) 0.5432(7) 0.9334(9)
H5A H -0.2747 0.4924 0.8765
H6A H -0.1544 0.4993 0.9962
H7A H -0.2852 0.6040 1.0109
C10A C -0.1338(7) 0.6787(7) 0.8822(10)
H8A H -0.1166 0.7109 0.7953
H9A H -0.1863 0.7406 0.9593
H10A H -0.0555 0.6360 0.9446
C11A C -0.4455(7) 0.6988(8) 0.7331(10)
H11A H -0.4515 0.6445 0.7959
H12A H -0.4554 0.7711 0.8072
H13A H -0.5109 0.7122 0.6387
C12A C -0.3026(9) 0.7339(7) 0.5639(10)
H14A H -0.2206 0.7005 0.5230
H15A H -0.3671 0.7474 0.4684
H16A H -0.3117 0.8064 0.6369
O7A O 0.0579(5) -0.1092(4) 0.1866(6)
H19A H 0.109(9) -0.118(9) 0.248(12)
H20A H -0.009(9) -0.106(8) 0.211(11)
O3A_2 O 0.1850(3) -0.0006(3) 0.0319(5)
Ni1_2 Ni -1.0000 0.0000 0.0000
O8 O -0.3543(5) 0.3315(5) -0.3284(7)
H21 H -0.447(9) 0.404(9) -0.369(11)
O9 O -0.2242(5) 0.1120(5) -0.4889(7)
H22 H -0.207(7) 0.077(7) -0.585(9)
H23 H -0.290(12) 0.223(13) -0.426(15)
loop_
_geom_bond_atom_site_label_1
_geom_bond_atom_site_label_2
_geom_bond_site_symmetry_1
_geom_bond_site_symmetry_2
Ni1 N1 1_555 1_555
N1 C1 1_555 1_555
N2 O1 1_555 1_555
N3 O2 1_555 1_555
O3 Ni1 1_555 1_555
O4 C13 1_555 1_555
O5 C16 1_555 1_555
O6 C16 1_555 1_555
O7 Ni1 1_555 1_555
C1 H1 1_555 1_555
C2 C1 1_555 1_555
H2 C2 1_555 1_555
C3 C2 1_555 1_555
C4 C3 1_555 1_555
H3 C4 1_555 1_555
C5 N1 1_555 1_555
H4 C5 1_555 1_555
C6 N2 1_555 1_555
C7 N2 1_555 1_555
C8 N3 1_555 1_555
C9 C7 1_555 1_555
H5 C9 1_555 1_555
H6 C9 1_555 1_555
H7 C9 1_555 1_555
C10 C7 1_555 1_555
H8 C10 1_555 1_555
H9 C10 1_555 1_555
H10 C10 1_555 1_555
C11 C8 1_555 1_555
H11 C11 1_555 1_555
H12 C11 1_555 1_555
H13 C11 1_555 1_555
C12 C8 1_555 1_555
H14 C12 1_555 1_555
H15 C12 1_555 1_555
H16 C12 1_555 1_555
C13 O3 1_555 1_555
C14 C13 1_555 1_555
C15 C14 1_555 1_555
C16 C15 1_555 1_555
C17 C14 1_555 1_555
H17 C17 1_555 1_555
H18 O5 1_555 1_555
H19 O7 1_555 1_555
H20 O7 1_555 1_555
O8 H21 1_555 1_555
O9 H22 1_555 1_555
H23 O9 1_555 1_555
C17A C15 1_555 1_555
C14A C17A 1_555 1_555
C13A C14A 1_555 1_555
O3A C13A 1_555 1_555
O4A C13A 1_555 1_555
C15A C17 1_555 1_555
C16A C15A 1_555 1_555
O5A C16A 1_555 1_555
H18A O5A 1_555 1_555
O6A C16A 1_555 1_555
H17A C17A 1_555 1_555
N1A Ni1 1_555 1_555
N2A O1A 1_555 1_555
N3A O2A 1_555 1_555
C1A N1A 1_555 1_555
H1A C1A 1_555 1_555
C2A C1A 1_555 1_555
H2A C2A 1_555 1_555
C3A C2A 1_555 1_555
C4A C3A 1_555 1_555
H3A C4A 1_555 1_555
C5A N1A 1_555 1_555
H4A C5A 1_555 1_555
C6A N2A 1_555 1_555
C7A N2A 1_555 1_555
C8A N3A 1_555 1_555
C9A C7A 1_555 1_555
H5A C9A 1_555 1_555
H6A C9A 1_555 1_555
H7A C9A 1_555 1_555
C10A C7A 1_555 1_555
H8A C10A 1_555 1_555
H9A C10A 1_555 1_555
H10A C10A 1_555 1_555
C11A C8A 1_555 1_555
H11A C11A 1_555 1_555
H12A C11A 1_555 1_555
H13A C11A 1_555 1_555
C12A C8A 1_555 1_555
H14A C12A 1_555 1_555
H15A C12A 1_555 1_555
H16A C12A 1_555 1_555
O7A Ni1 1_555 1_555
H19A O7A 1_555 1_555
H20A O7A 1_555 1_555
O3A_2 Ni1 1_555 1_555
Ni1_2 O3A 1_555 1_555
N3 C6 1_555 1_555
C3 C6 1_555 1_555
C4 C5 1_555 1_555
C7 C8 1_555 1_555
C14A C15A 1_555 1_555
N3A C6A 1_555 1_555
C3A C6A 1_555 1_555
C4A C5A 1_555 1_555
C7A C8A 1_555 1_555

#END
