
#######################################################################
#
#                 Cambridge Crystallographic Data Centre
#                                CCDC 
#
#######################################################################
#
# If this CIF has been generated from an entry in the Cambridge 
# Structural Database, then it will include bibliographic, chemical, 
# crystal, experimental, refinement or atomic coordinate data resulting 
# from the CCDC's data processing and validation procedures.
#
#######################################################################

data_VAJNIF
_symmetry_cell_setting           monoclinic
_symmetry_space_group_name_H-M   'P 2/c'
_symmetry_Int_Tables_number      13
_space_group_name_Hall           '-P 2yc'
loop_
_symmetry_equiv_pos_site_id
_symmetry_equiv_pos_as_xyz
1 x,y,z
2 -x,y,1/2-z
3 -x,-y,-z
4 x,-y,1/2+z
_cell_length_a                   23.593(2)
_cell_length_b                   10.4448(12)
_cell_length_c                   21.641(2)
_cell_angle_alpha                90
_cell_angle_beta                 105.175(2)
_cell_angle_gamma                90
_cell_volume                     5146.91
loop_
_atom_site_label
_atom_site_type_symbol
_atom_site_fract_x
_atom_site_fract_y
_atom_site_fract_z
Er1 Er 0.0000 0.77124(9) 0.7500
Er2 Er 0.5000 0.46657(9) 0.2500
Cu1 Cu 0.21374(10) 0.6679(2) 0.79018(9)
Cu2 Cu 0.26947(11) 0.6360(2) 0.30534(9)
Cu3 Cu 0.68635(10) 0.0468(2) 0.37775(9)
N1 N 0.0477(6) 0.8972(13) 0.6812(6)
N2 N 0.0000 0.5372(17) 0.7500
N3 N 0.4819(6) 0.3612(13) 0.3470(6)
N4 N 0.5000 0.702(2) 0.2500
N5 N 0.2282(6) 0.6825(14) 0.7067(6)
N6 N 0.2601(6) 0.6560(13) 0.3907(6)
N7 N 0.2223(6) 0.6922(13) 0.8803(6)
N8 N 0.2582(6) 0.6564(13) 1.2166(6)
N9 N 0.6948(6) 0.0042(14) 0.4651(7)
N10 N 0.6904(6) -0.0426(13) 0.7915(7)
O1 O 0.0681(5) 0.9283(11) 0.8038(6)
O2 O 0.1327(5) 1.0846(11) 0.8043(6)
O3 O -0.0244(5) 0.7053(12) 0.6395(5)
O4 O -0.0255(8) 0.7386(16) 0.5372(6)
O5 O 0.0935(5) 0.6731(10) 0.7588(5)
O6 O 0.1528(5) 0.5023(11) 0.7751(5)
O7 O 0.4127(5) 0.5339(11) 0.2783(6)
O8 O 0.3516(6) 0.5222(13) 0.3423(6)
O9 O 0.5645(5) 0.2955(11) 0.2936(5)
O10 O 0.6034(5) 0.1577(11) 0.3725(5)
O11 O 0.4458(5) 0.5611(12) 0.1530(5)
O12 O 0.4230(5) 0.7331(12) 0.0889(6)
C1 C 0.0971(7) 1.0051(15) 0.7781(8)
C2 C 0.0831(7) 0.9903(16) 0.7044(8)
C3 C 0.1058(8) 1.0727(18) 0.6666(9)
H9 H 0.1302 1.1405 0.6847
C4 C 0.0915(9) 1.0515(19) 0.6024(10)
H10 H 0.1067 1.1043 0.5761
C5 C 0.0549(9) 0.9536(19) 0.5764(9)
H11 H 0.0456 0.9373 0.5326
C6 C 0.0320(8) 0.8786(17) 0.6172(8)
C7 C -0.0112(9) 0.7689(18) 0.5978(9)
C8 C 0.1031(7) 0.5552(14) 0.7653(7)
C9 C 0.0502(7) 0.4722(15) 0.7576(8)
C10 C 0.0508(8) 0.3381(15) 0.7581(9)
H12 H 0.0863 0.2952 0.7640
C11 C 0.0000 0.269(2) 0.7500
H13 H 0.0000 0.1797 0.7500
C12 C 0.3977(7) 0.4978(18) 0.3280(8)
C13 C 0.4387(7) 0.4046(16) 0.3707(7)
C14 C 0.4368(8) 0.3759(18) 0.4323(8)
H14 H 0.4078 0.4093 0.4497
C15 C 0.4804(9) 0.2943(19) 0.4675(9)
H15 H 0.4813 0.2743 0.5096
C16 C 0.5224(8) 0.2429(18) 0.4405(9)
H16 H 0.5505 0.1858 0.4630
C17 C 0.5210(8) 0.2794(17) 0.3792(8)
C18 C 0.5686(7) 0.2407(15) 0.3455(7)
C19 C 0.4458(7) 0.6817(17) 0.1406(8)
C20 C 0.4740(8) 0.7637(17) 0.1975(9)
C21 C 0.4719(9) 0.8947(19) 0.1956(10)
H17 H 0.4521 0.9378 0.1587
C22 C 0.5000 0.960(3) 0.2500
H18 H 0.5000 1.0493 0.2500
C23 C 0.1848(8) 0.7195(17) 0.6572(8)
H19 H 0.1501 0.7486 0.6650
C24 C 0.1890(7) 0.7168(16) 0.5931(8)
H20 H 0.1574 0.7417 0.5597
C25 C 0.2411(8) 0.6763(16) 0.5811(7)
C26 C 0.2863(7) 0.6373(15) 0.6357(7)
H21 H 0.3223 0.6096 0.6307
C27 C 0.2771(8) 0.6405(17) 0.6920(8)
H22 H 0.3073 0.6109 0.7258
C28 C 0.3076(8) 0.6678(17) 0.4412(8)
H23 H 0.3446 0.6716 0.4337
C29 C 0.3035(8) 0.6745(17) 0.5030(8)
H24 H 0.3372 0.6840 0.5365
C30 C 0.2486(7) 0.6669(16) 0.5156(7)
C31 C 0.2007(8) 0.6528(17) 0.4639(8)
H25 H 0.1631 0.6453 0.4696
C32 C 0.2096(8) 0.6500(17) 0.4039(7)
H26 H 0.1765 0.6431 0.3695
C33 C 0.1766(7) 0.7214(15) 0.9059(7)
H27 H 0.1404 0.7426 0.8785
C34 C 0.1824(7) 0.7205(15) 0.9703(8)
H28 H 0.1501 0.7393 0.9858
C35 C 0.2341(7) 0.6927(16) 1.0116(8)
C36 C 0.2813(7) 0.6677(15) 0.9877(7)
H29 H 0.3181 0.6499 1.0149
C37 C 0.2727(7) 0.6698(16) 0.9211(8)
H30 H 0.3050 0.6542 0.9050
C38 C 0.3013(7) 0.6931(16) 1.1920(7)
H31 H 0.3379 0.7098 1.2197
C39 C 0.2943(7) 0.7082(15) 1.1257(7)
H32 H 0.3265 0.7336 1.1114
C40 C 0.2421(7) 0.6868(15) 1.0820(7)
C41 C 0.1960(7) 0.6537(14) 1.1078(7)
H33 H 0.1591 0.6379 1.0805
C42 C 0.2037(7) 0.6442(15) 1.1711(7)
H34 H 0.1708 0.6286 1.1860
C43 C 0.6468(8) -0.0200(16) 0.4822(8)
H35 H 0.6119 -0.0303 0.4505
C44 C 0.6456(8) -0.0312(16) 0.5465(8)
H36 H 0.6106 -0.0494 0.5568
C45 C 0.6981(8) -0.0143(17) 0.5953(9)
C46 C 0.7468(8) 0.0101(17) 0.5766(8)
H37 H 0.7825 0.0208 0.6070
C47 C 0.7442(8) 0.0194(16) 0.5122(8)
H38 H 0.7788 0.0372 0.5008
C48 C 0.6497(8) -0.0987(17) 0.7444(8)
H39 H 0.6193 -0.1432 0.7549
C49 C 0.6508(8) -0.0934(18) 0.6813(8)
H40 H 0.6212 -0.1325 0.6501
C50 C 0.6957(7) -0.0304(15) 0.6641(8)
C51 C 0.7387(7) 0.0245(16) 0.7112(8)
H41 H 0.7693 0.0691 0.7013
C52 C 0.7360(7) 0.0125(17) 0.7751(8)
H42 H 0.7670 0.0439 0.8075
Er2_2 Er -0.5000 0.46657(9) 1.2500
Cu1A Cu -0.21374(10) 0.6679(2) 0.70982(9)
Cu2A Cu -0.26947(11) 0.6360(2) 1.19466(9)
Cu2_2 Cu 0.26947(11) 0.6360(2) 1.30534(9)
Cu2A_2 Cu -0.26947(11) 0.6360(2) 0.19466(9)
Cu3A Cu -0.68635(10) 0.0468(2) 1.12225(9)
Cu3C Cu 0.68635(10) -0.0468(2) 0.87775(9)
Cu3C_2 Cu 0.68635(10) -0.0468(2) -0.12225(9)
N1A N -0.0477(6) 0.8972(13) 0.8188(6)
N3A N -0.4819(6) 0.3612(13) 1.1530(6)
N3A_2 N 0.5181(6) 0.3612(13) 0.1530(6)
N5A N -0.2282(6) 0.6825(14) 0.7933(6)
N6A N -0.2601(6) 0.6560(13) 1.1093(6)
N7A N -0.2223(6) 0.6922(13) 0.6197(6)
N8A N -0.2582(6) 0.6564(13) 0.2834(6)
N8_2 N 0.2582(6) 0.6564(13) 0.2166(6)
N8A_2 N -0.2582(6) 0.6564(13) 1.2834(6)
N9C N 0.6948(6) -0.0042(14) -0.0349(7)
N9A N -0.6948(6) 0.0042(14) 1.0349(7)
N10C N 0.6904(6) 0.0426(13) 0.2915(7)
N10B N -0.6904(6) 0.0426(13) 1.2085(7)
O1A O -0.0681(5) 0.9283(11) 0.6962(6)
O2A O -0.1327(5) 1.0846(11) 0.6957(6)
O3A O 0.0244(5) 0.7053(12) 0.8605(5)
O4A O 0.0255(8) 0.7386(16) 0.9628(6)
O5A O -0.0935(5) 0.6731(10) 0.7412(5)
O6A O -0.1528(5) 0.5023(11) 0.7249(5)
O7A O -0.4127(5) 0.5339(11) 1.2217(6)
O7A_2 O 0.5873(5) 0.5339(11) 0.2217(6)
O8A O -0.3516(6) 0.5222(13) 1.1577(6)
O9A O -0.5645(5) 0.2955(11) 1.2064(5)
O9A_2 O 0.4355(5) 0.2955(11) 0.2064(5)
O10A O -0.6034(5) 0.1577(11) 1.1275(5)
O11A O 0.5542(5) 0.5611(12) 0.3470(5)
O12A O 0.5770(5) 0.7331(12) 0.4111(6)
C1A C -0.0971(7) 1.0051(15) 0.7219(8)
C2A C -0.0831(7) 0.9903(16) 0.7956(8)
C3A C -0.1058(8) 1.0727(18) 0.8334(9)
H9A H -0.1302 1.1405 0.8153
C4A C -0.0915(9) 1.0515(19) 0.8976(10)
H10A H -0.1067 1.1043 0.9239
C5A C -0.0549(9) 0.9536(19) 0.9236(9)
H11A H -0.0456 0.9373 0.9674
C6A C -0.0320(8) 0.8786(17) 0.8828(8)
C7A C 0.0112(9) 0.7689(18) 0.9022(9)
C8A C -0.1031(7) 0.5552(14) 0.7347(7)
C9A C -0.0502(7) 0.4722(15) 0.7424(8)
C10A C -0.0508(8) 0.3381(15) 0.7419(9)
H12A H -0.0863 0.2952 0.7360
C12A C -0.3977(7) 0.4978(18) 1.1720(8)
C13A C -0.4387(7) 0.4046(16) 1.1293(7)
C14A C -0.4368(8) 0.3759(18) 1.0677(8)
H14A H -0.4078 0.4093 1.0503
C15A C -0.4804(9) 0.2943(19) 1.0325(9)
H15A H -0.4813 0.2743 0.9904
C16A C -0.5224(8) 0.2429(18) 1.0595(9)
H16A H -0.5505 0.1858 1.0370
C17A C -0.5210(8) 0.2794(17) 1.1208(8)
C18A C -0.5686(7) 0.2407(15) 1.1545(7)
C19A C 0.5542(7) 0.6817(17) 0.3594(8)
C20A C 0.5260(8) 0.7637(17) 0.3025(9)
C21A C 0.5281(9) 0.8947(19) 0.3044(10)
H17A H 0.5479 0.9378 0.3413
C23A C -0.1848(8) 0.7195(17) 0.8428(8)
H19A H -0.1501 0.7486 0.8350
C24A C -0.1890(7) 0.7168(16) 0.9069(8)
H20A H -0.1574 0.7417 0.9403
C25A C -0.2411(8) 0.6763(16) 0.9189(7)
C26A C -0.2863(7) 0.6373(15) 0.8643(7)
H21A H -0.3223 0.6096 0.8693
C27A C -0.2771(8) 0.6405(17) 0.8080(8)
H22A H -0.3073 0.6109 0.7742
C28A C -0.3076(8) 0.6678(17) 1.0588(8)
H23A H -0.3446 0.6716 1.0663
C29A C -0.3035(8) 0.6745(17) 0.9970(8)
H24A H -0.3372 0.6840 0.9635
C30A C -0.2486(7) 0.6669(16) 0.9844(7)
C31A C -0.2007(8) 0.6528(17) 1.0361(8)
H25A H -0.1631 0.6453 1.0304
C32A C -0.2096(8) 0.6500(17) 1.0961(7)
H26A H -0.1765 0.6431 1.1305
C33A C -0.1766(7) 0.7214(15) 0.5941(7)
H27A H -0.1404 0.7426 0.6215
C34A C -0.1824(7) 0.7205(15) 0.5297(8)
H28A H -0.1501 0.7393 0.5142
C35A C -0.2341(7) 0.6927(16) 0.4884(8)
C36A C -0.2813(7) 0.6677(15) 0.5123(7)
H29A H -0.3181 0.6499 0.4851
C37A C -0.2727(7) 0.6698(16) 0.5789(8)
H30A H -0.3050 0.6542 0.5950
C38A C -0.3013(7) 0.6931(16) 0.3080(7)
H31A H -0.3379 0.7098 0.2803
C39A C -0.2943(7) 0.7082(15) 0.3743(7)
H32A H -0.3265 0.7336 0.3886
C40A C -0.2421(7) 0.6868(15) 0.4180(7)
C41A C -0.1960(7) 0.6537(14) 0.3922(7)
H33A H -0.1591 0.6379 0.4195
C42A C -0.2037(7) 0.6442(15) 0.3289(7)
H34A H -0.1708 0.6286 0.3140
C43C C 0.6468(8) 0.0200(16) -0.0178(8)
H35C H 0.6119 0.0303 -0.0495
C44C C 0.6456(8) 0.0312(16) 0.0465(8)
H36C H 0.6106 0.0494 0.0568
C45C C 0.6981(8) 0.0143(17) 0.0953(9)
C46C C 0.7468(8) -0.0101(17) 0.0766(8)
H37C H 0.7825 -0.0208 0.1070
C47C C 0.7442(8) -0.0194(16) 0.0122(8)
H38C H 0.7788 -0.0372 0.0008
C48C C 0.6497(8) 0.0987(17) 0.2444(8)
H39C H 0.6193 0.1432 0.2549
C49C C 0.6508(8) 0.0934(18) 0.1813(8)
H40C H 0.6212 0.1325 0.1501
C50C C 0.6957(7) 0.0304(15) 0.1641(8)
C51C C 0.7387(7) -0.0245(16) 0.2112(8)
H41C H 0.7693 -0.0691 0.2013
C52C C 0.7360(7) -0.0125(17) 0.2751(8)
H42C H 0.7670 -0.0439 0.3075
O13 O 0.9212(9) 0.497(2) 0.9979(12)
H1 H 0.9357 0.4274 1.0151
H2 H 0.9274 0.5014 0.9612
O14 O 0.9460(15) 0.528(2) 0.3826(12)
H3 H 0.9655 0.4635 0.3767
H4 H 0.9700 0.5864 0.3995
O15 O 0.8929(9) 0.951(2) 0.0602(11)
H5 H 0.9033 0.9831 0.0973
H6 H 0.9137 0.8852 0.0595
O16 O 0.0310(10) 0.729(2) 0.4431(10)
H7 H 0.0101 0.7491 0.4680
H8 H 0.0479 0.6589 0.4559
loop_
_geom_bond_atom_site_label_1
_geom_bond_atom_site_label_2
_geom_bond_site_symmetry_1
_geom_bond_site_symmetry_2
Er1 N1 1_555 1_555
Er2 N3 1_555 1_555
Cu1 N5 1_555 1_555
Cu2 N6 1_555 1_555
Cu3 N9 1_555 1_555
N1 C2 1_555 1_555
N2 Er1 1_555 1_555
N3 C13 1_555 1_555
N4 Er2 1_555 1_555
N5 C23 1_555 1_555
N6 C28 1_555 1_555
N7 Cu1 1_555 1_555
N8 C38 1_555 1_555
N9 C43 1_555 1_555
N10 C48 1_555 1_555
O1 Er1 1_555 1_555
O2 C1 1_555 1_555
O3 Er1 1_555 1_555
O4 C7 1_555 1_555
O5 Er1 1_555 1_555
O6 Cu1 1_555 1_555
O7 Er2 1_555 1_555
O8 Cu2 1_555 1_555
O9 Er2 1_555 1_555
O10 Cu3 1_555 1_555
O11 Er2 1_555 1_555
O12 C19 1_555 1_555
O13 H1 1_555 1_555
H2 O13 1_555 1_555
O14 H3 1_555 1_555
H4 O14 1_555 1_555
O15 H5 1_555 1_555
H6 O15 1_555 1_555
O16 H7 1_555 1_555
H8 O16 1_555 1_555
C1 O1 1_555 1_555
C2 C1 1_555 1_555
C3 C2 1_555 1_555
H9 C3 1_555 1_555
C4 C3 1_555 1_555
H10 C4 1_555 1_555
C5 C4 1_555 1_555
H11 C5 1_555 1_555
C6 N1 1_555 1_555
C7 O3 1_555 1_555
C8 O5 1_555 1_555
C9 N2 1_555 1_555
C10 C9 1_555 1_555
H12 C10 1_555 1_555
C11 C10 1_555 1_555
H13 C11 1_555 1_555
C12 O7 1_555 1_555
C13 C12 1_555 1_555
C14 C13 1_555 1_555
H14 C14 1_555 1_555
C15 C14 1_555 1_555
H15 C15 1_555 1_555
C16 C15 1_555 1_555
H16 C16 1_555 1_555
C17 N3 1_555 1_555
C18 O9 1_555 1_555
C19 O11 1_555 1_555
C20 N4 1_555 1_555
C21 C20 1_555 1_555
H17 C21 1_555 1_555
C22 C21 1_555 1_555
H18 C22 1_555 1_555
C23 H19 1_555 1_555
C24 C23 1_555 1_555
H20 C24 1_555 1_555
C25 C24 1_555 1_555
C26 C25 1_555 1_555
H21 C26 1_555 1_555
C27 N5 1_555 1_555
H22 C27 1_555 1_555
C28 H23 1_555 1_555
C29 C28 1_555 1_555
H24 C29 1_555 1_555
C30 C25 1_555 1_555
C31 C30 1_555 1_555
H25 C31 1_555 1_555
C32 N6 1_555 1_555
H26 C32 1_555 1_555
C33 N7 1_555 1_555
H27 C33 1_555 1_555
C34 C33 1_555 1_555
H28 C34 1_555 1_555
C35 C34 1_555 1_555
C36 C35 1_555 1_555
H29 C36 1_555 1_555
C37 N7 1_555 1_555
H30 C37 1_555 1_555
C38 H31 1_555 1_555
C39 C38 1_555 1_555
H32 C39 1_555 1_555
C40 C35 1_555 1_555
C41 C40 1_555 1_555
H33 C41 1_555 1_555
C42 N8 1_555 1_555
H34 C42 1_555 1_555
C43 H35 1_555 1_555
C44 C43 1_555 1_555
H36 C44 1_555 1_555
C45 C44 1_555 1_555
C46 C45 1_555 1_555
H37 C46 1_555 1_555
C47 N9 1_555 1_555
H38 C47 1_555 1_555
C48 H39 1_555 1_555
C49 C48 1_555 1_555
H40 C49 1_555 1_555
C50 C45 1_555 1_555
C51 C50 1_555 1_555
H41 C51 1_555 1_555
C52 N10 1_555 1_555
H42 C52 1_555 1_555
Er2_2 N3A 1_555 1_555
Cu1A N5A 1_555 1_555
Cu2A N6A 1_555 1_555
Cu2_2 N8 1_555 1_555
Cu2A_2 N8A 1_555 1_555
Cu3A N9A 1_555 1_555
Cu3C N10 1_555 1_555
Cu3C_2 N9C 1_555 1_555
N1A Er1 1_555 1_555
N3A C13A 1_555 1_555
N3A_2 Er2 1_555 1_555
N5A C23A 1_555 1_555
N6A C28A 1_555 1_555
N7A Cu1A 1_555 1_555
N8A C38A 1_555 1_555
N8_2 Cu2 1_555 1_555
N8A_2 Cu2A 1_555 1_555
N9C C43C 1_555 1_555
N10C Cu3 1_555 1_555
N10B Cu3A 1_555 1_555
O1A Er1 1_555 1_555
O2A C1A 1_555 1_555
O3A Er1 1_555 1_555
O4A C7A 1_555 1_555
O5A Er1 1_555 1_555
O6A Cu1A 1_555 1_555
O7A Er2_2 1_555 1_555
O7A_2 Er2 1_555 1_555
O8A Cu2A 1_555 1_555
O9A Er2_2 1_555 1_555
O9A_2 Er2 1_555 1_555
O10A Cu3A 1_555 1_555
O11A Er2 1_555 1_555
O12A C19A 1_555 1_555
C1A O1A 1_555 1_555
C2A N1A 1_555 1_555
C3A C2A 1_555 1_555
H9A C3A 1_555 1_555
C4A C3A 1_555 1_555
H10A C4A 1_555 1_555
C5A C4A 1_555 1_555
H11A C5A 1_555 1_555
C6A N1A 1_555 1_555
C7A O3A 1_555 1_555
C8A O5A 1_555 1_555
C9A N2 1_555 1_555
C10A C11 1_555 1_555
H12A C10A 1_555 1_555
C12A O7A 1_555 1_555
C13A C12A 1_555 1_555
C14A C13A 1_555 1_555
H14A C14A 1_555 1_555
C15A C14A 1_555 1_555
H15A C15A 1_555 1_555
C16A C15A 1_555 1_555
H16A C16A 1_555 1_555
C17A N3A 1_555 1_555
C18A O9A 1_555 1_555
C19A O11A 1_555 1_555
C20A N4 1_555 1_555
C21A C22 1_555 1_555
H17A C21A 1_555 1_555
C23A H19A 1_555 1_555
C24A C23A 1_555 1_555
H20A C24A 1_555 1_555
C25A C24A 1_555 1_555
C26A C25A 1_555 1_555
H21A C26A 1_555 1_555
C27A N5A 1_555 1_555
H22A C27A 1_555 1_555
C28A H23A 1_555 1_555
C29A C28A 1_555 1_555
H24A C29A 1_555 1_555
C30A C25A 1_555 1_555
C31A C30A 1_555 1_555
H25A C31A 1_555 1_555
C32A N6A 1_555 1_555
H26A C32A 1_555 1_555
C33A N7A 1_555 1_555
H27A C33A 1_555 1_555
C34A C33A 1_555 1_555
H28A C34A 1_555 1_555
C35A C34A 1_555 1_555
C36A C35A 1_555 1_555
H29A C36A 1_555 1_555
C37A N7A 1_555 1_555
H30A C37A 1_555 1_555
C38A H31A 1_555 1_555
C39A C38A 1_555 1_555
H32A C39A 1_555 1_555
C40A C35A 1_555 1_555
C41A C40A 1_555 1_555
H33A C41A 1_555 1_555
C42A N8A 1_555 1_555
H34A C42A 1_555 1_555
C43C H35C 1_555 1_555
C44C C43C 1_555 1_555
H36C C44C 1_555 1_555
C45C C44C 1_555 1_555
C46C C45C 1_555 1_555
H37C C46C 1_555 1_555
C47C N9C 1_555 1_555
H38C C47C 1_555 1_555
C48C N10C 1_555 1_555
H39C C48C 1_555 1_555
C49C C48C 1_555 1_555
H40C C49C 1_555 1_555
C50C C45C 1_555 1_555
C51C C50C 1_555 1_555
H41C C51C 1_555 1_555
C52C N10C 1_555 1_555
H42C C52C 1_555 1_555
O6 C8 1_555 1_555
O8 C12 1_555 1_555
O10 C18 1_555 1_555
C5 C6 1_555 1_555
C6 C7 1_555 1_555
C8 C9 1_555 1_555
C16 C17 1_555 1_555
C17 C18 1_555 1_555
C19 C20 1_555 1_555
C26 C27 1_555 1_555
C29 C30 1_555 1_555
C31 C32 1_555 1_555
C36 C37 1_555 1_555
C39 C40 1_555 1_555
C41 C42 1_555 1_555
C46 C47 1_555 1_555
C49 C50 1_555 1_555
C51 C52 1_555 1_555
O6A C8A 1_555 1_555
O8A C12A 1_555 1_555
O10A C18A 1_555 1_555
C1A C2A 1_555 1_555
C5A C6A 1_555 1_555
C6A C7A 1_555 1_555
C8A C9A 1_555 1_555
C9A C10A 1_555 1_555
C16A C17A 1_555 1_555
C17A C18A 1_555 1_555
C19A C20A 1_555 1_555
C20A C21A 1_555 1_555
C26A C27A 1_555 1_555
C29A C30A 1_555 1_555
C31A C32A 1_555 1_555
C36A C37A 1_555 1_555
C39A C40A 1_555 1_555
C41A C42A 1_555 1_555
C46C C47C 1_555 1_555
C49C C50C 1_555 1_555
C51C C52C 1_555 1_555

#END
