
#######################################################################
#
#                 Cambridge Crystallographic Data Centre
#                                CCDC 
#
#######################################################################
#
# If this CIF has been generated from an entry in the Cambridge 
# Structural Database, then it will include bibliographic, chemical, 
# crystal, experimental, refinement or atomic coordinate data resulting 
# from the CCDC's data processing and validation procedures.
#
#######################################################################

data_VAJNEB
_symmetry_cell_setting           monoclinic
_symmetry_space_group_name_H-M   'P 2/c'
_symmetry_Int_Tables_number      13
_space_group_name_Hall           '-P 2yc'
loop_
_symmetry_equiv_pos_site_id
_symmetry_equiv_pos_as_xyz
1 x,y,z
2 -x,y,1/2-z
3 -x,-y,-z
4 x,-y,1/2+z
_cell_length_a                   23.586(2)
_cell_length_b                   10.4497(10)
_cell_length_c                   21.655(2)
_cell_angle_alpha                90
_cell_angle_beta                 105.252(2)
_cell_angle_gamma                90
_cell_volume                     5149.25
loop_
_atom_site_label
_atom_site_type_symbol
_atom_site_fract_x
_atom_site_fract_y
_atom_site_fract_z
Yb1 Yb 0.0000 0.76939(2) 0.7500
Yb2 Yb 0.5000 0.46640(2) 0.2500
Cu1 Cu 0.21385(3) 0.66712(6) 0.79023(3)
Cu2 Cu 0.26945(3) 0.63683(6) 0.30531(3)
Cu3 Cu 0.68639(3) 0.04749(6) 0.37683(3)
N1 N 0.04665(15) 0.8944(3) 0.68090(17)
N2 N 0.0000 0.5351(4) 0.7500
N3 N 0.48103(15) 0.3599(3) 0.34463(16)
N4 N 0.5000 0.6986(5) 0.2500
N5 N 0.22831(17) 0.6810(4) 0.70723(17)
N6 N 0.26085(17) 0.6556(4) 0.39098(17)
N7 N 0.22275(16) 0.6932(3) 0.88016(16)
N8 N 0.25650(17) 0.6601(3) 1.21507(16)
N9 N 0.69501(17) 0.0085(3) 0.46482(17)
N10 N 0.69193(16) -0.0463(3) 0.79051(16)
O1 O 0.06679(13) 0.9265(3) 0.80410(14)
O2 O 0.13220(14) 1.0822(3) 0.80586(17)
O3 O -0.02346(14) 0.7024(3) 0.64117(14)
O4 O -0.02852(18) 0.7401(4) 0.53877(17)
O5 O 0.09374(12) 0.6735(3) 0.75869(14)
O6 O 0.15255(12) 0.5026(3) 0.77513(14)
O7 O 0.41299(13) 0.5347(3) 0.27817(15)
O8 O 0.35243(15) 0.5265(4) 0.34228(17)
O9 O 0.56491(13) 0.2964(3) 0.29327(14)
O10 O 0.60275(14) 0.1569(3) 0.37135(14)
O11 O 0.44552(13) 0.5594(3) 0.15339(14)
O12 O 0.42258(15) 0.7292(3) 0.08829(16)
C1 C 0.09630(19) 1.0016(4) 0.7782(2)
C2 C 0.08323(19) 0.9893(4) 0.7062(2)
C3 C 0.1066(2) 1.0688(5) 0.6682(3)
H9 H 0.1319 1.1349 0.6863
C4 C 0.0917(2) 1.0486(5) 0.6028(3)
H10 H 0.1069 1.1012 0.5765
C5 C 0.0542(2) 0.9503(5) 0.5771(3)
H11 H 0.0442 0.9345 0.5333
C6 C 0.03178(19) 0.8749(4) 0.6179(2)
C7 C -0.0104(2) 0.7641(5) 0.5972(2)
C8 C 0.10309(19) 0.5544(4) 0.76465(19)
C9 C 0.05022(18) 0.4702(4) 0.7585(2)
C10 C 0.0525(2) 0.3385(4) 0.7597(3)
H12 H 0.0882 0.2956 0.7669
C11 C 0.0000 0.2714(7) 0.7500
H13 H 0.0000 0.1824 0.7500
C12 C 0.39777(19) 0.4977(5) 0.3265(2)
C13 C 0.43971(19) 0.4062(4) 0.3703(2)
C14 C 0.4376(2) 0.3749(5) 0.4317(2)
H14 H 0.4087 0.4094 0.4488
C15 C 0.4788(2) 0.2921(5) 0.4670(2)
H15 H 0.4783 0.2699 0.5084
C16 C 0.5210(2) 0.2425(5) 0.4402(2)
H16 H 0.5490 0.1851 0.4629
C17 C 0.52082(19) 0.2800(4) 0.3788(2)
C18 C 0.56710(19) 0.2400(4) 0.3451(2)
C19 C 0.44455(19) 0.6779(5) 0.1407(2)
C20 C 0.4734(2) 0.7630(4) 0.1968(2)
C21 C 0.4730(3) 0.8953(5) 0.1957(3)
H17 H 0.4546 0.9388 0.1583
C22 C 0.5000 0.9618(8) 0.2500
H18 H 0.5000 1.0508 0.2500
C23 C 0.1859(2) 0.7203(5) 0.6569(2)
H19 H 0.1511 0.7506 0.6640
C24 C 0.1910(2) 0.7184(5) 0.5951(2)
H20 H 0.1601 0.7468 0.5616
C25 C 0.24273(19) 0.6736(4) 0.5827(2)
C26 C 0.2868(2) 0.6340(4) 0.6351(2)
H21 H 0.3222 0.6037 0.6294
C27 C 0.2784(2) 0.6394(4) 0.6958(2)
H22 H 0.3087 0.6129 0.7303
C28 C 0.3076(2) 0.6691(4) 0.4413(2)
H23 H 0.3446 0.6749 0.4339
C29 C 0.3035(2) 0.6749(4) 0.5036(2)
H24 H 0.3373 0.6845 0.5370
C30 C 0.24885(19) 0.6665(4) 0.5164(2)
C31 C 0.2007(2) 0.6526(5) 0.4646(2)
H25 H 0.1633 0.6460 0.4709
C32 C 0.2079(2) 0.6485(5) 0.4030(2)
H26 H 0.1748 0.6405 0.3686
C33 C 0.1769(2) 0.7203(4) 0.9042(2)
H27 H 0.1408 0.7393 0.8760
C34 C 0.18157(19) 0.7207(4) 0.9693(2)
H28 H 0.1488 0.7387 0.9840
C35 C 0.23509(18) 0.6945(4) 1.0127(2)
C36 C 0.28241(19) 0.6692(4) 0.9875(2)
H29 H 0.3193 0.6525 1.0146
C37 C 0.2744(2) 0.6691(4) 0.9220(2)
H30 H 0.3066 0.6513 0.9062
C38 C 0.3015(2) 0.6953(4) 1.1904(2)
H31 H 0.3381 0.7101 1.2185
C39 C 0.29525(19) 0.7098(4) 1.1262(2)
H32 H 0.3274 0.7347 1.1118
C40 C 0.24178(18) 0.6881(4) 1.08247(19)
C41 C 0.19493(19) 0.6535(4) 1.1077(2)
H33 H 0.1579 0.6383 1.0806
C42 C 0.2043(2) 0.6423(4) 1.1728(2)
H34 H 0.1724 0.6211 1.1885
C43 C 0.6462(2) -0.0191(4) 0.4829(2)
H35 H 0.6114 -0.0305 0.4512
C44 C 0.6448(2) -0.0314(4) 0.5457(2)
H36 H 0.6095 -0.0492 0.5556
C45 C 0.69589(19) -0.0172(4) 0.5941(2)
C46 C 0.7468(2) 0.0082(4) 0.5757(2)
H37 H 0.7823 0.0178 0.6066
C47 C 0.7449(2) 0.0193(4) 0.5121(2)
H38 H 0.7798 0.0350 0.5011
C48 C 0.6503(2) -0.0988(5) 0.7433(2)
H39 H 0.6193 -0.1411 0.7537
C49 C 0.6511(2) -0.0930(5) 0.6804(2)
H40 H 0.6215 -0.1329 0.6495
C50 C 0.69526(19) -0.0287(4) 0.6625(2)
C51 C 0.7391(2) 0.0236(4) 0.7114(2)
H41 H 0.7706 0.0659 0.7022
C52 C 0.7358(2) 0.0128(4) 0.7735(2)
H42 H 0.7658 0.0486 0.8057
Yb2_2 Yb -0.5000 0.46640(2) 1.2500
Cu1A Cu -0.21385(3) 0.66712(6) 0.70977(3)
Cu2A Cu -0.26945(3) 0.63683(6) 1.19469(3)
Cu2_2 Cu 0.26945(3) 0.63683(6) 1.30531(3)
Cu2A_2 Cu -0.26945(3) 0.63683(6) 0.19469(3)
Cu3A Cu -0.68639(3) 0.04749(6) 1.12317(3)
Cu3C Cu 0.68639(3) -0.04749(6) 0.87683(3)
Cu3C_2 Cu 0.68639(3) -0.04749(6) -0.12317(3)
N1A N -0.04665(15) 0.8944(3) 0.81910(17)
N3A N -0.48103(15) 0.3599(3) 1.15537(16)
N3A_2 N 0.51897(15) 0.3599(3) 0.15537(16)
N5A N -0.22831(17) 0.6810(4) 0.79277(17)
N6A N -0.26085(17) 0.6556(4) 1.10902(17)
N7A N -0.22275(16) 0.6932(3) 0.61984(16)
N8A N -0.25650(17) 0.6601(3) 0.28493(16)
N8_2 N 0.25650(17) 0.6601(3) 0.21507(16)
N8A_2 N -0.25650(17) 0.6601(3) 1.28493(16)
N9C N 0.69501(17) -0.0085(3) -0.03518(17)
N9A N -0.69501(17) 0.0085(3) 1.03518(17)
N10C N 0.69193(16) 0.0463(3) 0.29051(16)
N10B N -0.69193(16) 0.0463(3) 1.20949(16)
O1A O -0.06679(13) 0.9265(3) 0.69590(14)
O2A O -0.13220(14) 1.0822(3) 0.69414(17)
O3A O 0.02346(14) 0.7024(3) 0.85883(14)
O4A O 0.02852(18) 0.7401(4) 0.96123(17)
O5A O -0.09374(12) 0.6735(3) 0.74131(14)
O6A O -0.15255(12) 0.5026(3) 0.72487(14)
O7A O -0.41299(13) 0.5347(3) 1.22183(15)
O7A_2 O 0.58701(13) 0.5347(3) 0.22183(15)
O8A O -0.35243(15) 0.5265(4) 1.15772(17)
O9A O -0.56491(13) 0.2964(3) 1.20673(14)
O9A_2 O 0.43509(13) 0.2964(3) 0.20673(14)
O10A O -0.60275(14) 0.1569(3) 1.12865(14)
O11A O 0.55448(13) 0.5594(3) 0.34661(14)
O12A O 0.57742(15) 0.7292(3) 0.41171(16)
C1A C -0.09630(19) 1.0016(4) 0.7218(2)
C2A C -0.08323(19) 0.9893(4) 0.7938(2)
C3A C -0.1066(2) 1.0688(5) 0.8318(3)
H9A H -0.1319 1.1349 0.8137
C4A C -0.0917(2) 1.0486(5) 0.8972(3)
H10A H -0.1069 1.1012 0.9235
C5A C -0.0542(2) 0.9503(5) 0.9229(3)
H11A H -0.0442 0.9345 0.9667
C6A C -0.03178(19) 0.8749(4) 0.8821(2)
C7A C 0.0104(2) 0.7641(5) 0.9028(2)
C8A C -0.10309(19) 0.5544(4) 0.73535(19)
C9A C -0.05022(18) 0.4702(4) 0.7415(2)
C10A C -0.0525(2) 0.3385(4) 0.7403(3)
H12A H -0.0882 0.2956 0.7331
C12A C -0.39777(19) 0.4977(5) 1.1735(2)
C13A C -0.43971(19) 0.4062(4) 1.1297(2)
C14A C -0.4376(2) 0.3749(5) 1.0683(2)
H14A H -0.4087 0.4094 1.0512
C15A C -0.4788(2) 0.2921(5) 1.0330(2)
H15A H -0.4783 0.2699 0.9916
C16A C -0.5210(2) 0.2425(5) 1.0598(2)
H16A H -0.5490 0.1851 1.0371
C17A C -0.52082(19) 0.2800(4) 1.1212(2)
C18A C -0.56710(19) 0.2400(4) 1.1549(2)
C19A C 0.55545(19) 0.6779(5) 0.3593(2)
C20A C 0.5266(2) 0.7630(4) 0.3032(2)
C21A C 0.5270(3) 0.8953(5) 0.3043(3)
H17A H 0.5454 0.9388 0.3417
C23A C -0.1859(2) 0.7203(5) 0.8431(2)
H19A H -0.1511 0.7506 0.8360
C24A C -0.1910(2) 0.7184(5) 0.9049(2)
H20A H -0.1601 0.7468 0.9384
C25A C -0.24273(19) 0.6736(4) 0.9173(2)
C26A C -0.2868(2) 0.6340(4) 0.8649(2)
H21A H -0.3222 0.6037 0.8706
C27A C -0.2784(2) 0.6394(4) 0.8042(2)
H22A H -0.3087 0.6129 0.7697
C28A C -0.3076(2) 0.6691(4) 1.0587(2)
H23A H -0.3446 0.6749 1.0661
C29A C -0.3035(2) 0.6749(4) 0.9964(2)
H24A H -0.3373 0.6845 0.9630
C30A C -0.24885(19) 0.6665(4) 0.9836(2)
C31A C -0.2007(2) 0.6526(5) 1.0354(2)
H25A H -0.1633 0.6460 1.0291
C32A C -0.2079(2) 0.6485(5) 1.0970(2)
H26A H -0.1748 0.6405 1.1314
C33A C -0.1769(2) 0.7203(4) 0.5958(2)
H27A H -0.1408 0.7393 0.6240
C34A C -0.18157(19) 0.7207(4) 0.5307(2)
H28A H -0.1488 0.7387 0.5160
C35A C -0.23509(18) 0.6945(4) 0.4873(2)
C36A C -0.28241(19) 0.6692(4) 0.5125(2)
H29A H -0.3193 0.6525 0.4854
C37A C -0.2744(2) 0.6691(4) 0.5780(2)
H30A H -0.3066 0.6513 0.5938
C38A C -0.3015(2) 0.6953(4) 0.3096(2)
H31A H -0.3381 0.7101 0.2815
C39A C -0.29525(19) 0.7098(4) 0.3738(2)
H32A H -0.3274 0.7347 0.3882
C40A C -0.24178(18) 0.6881(4) 0.41753(19)
C41A C -0.19493(19) 0.6535(4) 0.3923(2)
H33A H -0.1579 0.6383 0.4194
C42A C -0.2043(2) 0.6423(4) 0.3272(2)
H34A H -0.1724 0.6211 0.3115
C43C C 0.6462(2) 0.0191(4) -0.0171(2)
H35C H 0.6114 0.0305 -0.0488
C44C C 0.6448(2) 0.0314(4) 0.0457(2)
H36C H 0.6095 0.0492 0.0556
C45C C 0.69589(19) 0.0172(4) 0.0941(2)
C46C C 0.7468(2) -0.0082(4) 0.0757(2)
H37C H 0.7823 -0.0178 0.1066
C47C C 0.7449(2) -0.0193(4) 0.0121(2)
H38C H 0.7798 -0.0350 0.0011
C48C C 0.6503(2) 0.0988(5) 0.2433(2)
H39C H 0.6193 0.1411 0.2537
C49C C 0.6511(2) 0.0930(5) 0.1804(2)
H40C H 0.6215 0.1329 0.1495
C50C C 0.69526(19) 0.0287(4) 0.1625(2)
C51C C 0.7391(2) -0.0236(4) 0.2114(2)
H41C H 0.7706 -0.0659 0.2022
C52C C 0.7358(2) -0.0128(4) 0.2735(2)
H42C H 0.7658 -0.0486 0.3057
O13 O 0.9196(2) 0.4994(5) -0.0025(3)
H1 H 0.9341 0.4300 0.0147
H2 H 0.9258 0.5040 -0.0393
O14 O 0.9470(3) 0.5281(6) 0.3821(3)
H3 H 0.9665 0.4634 0.3762
H4 H 0.9710 0.5863 0.3991
O15 O 0.8925(2) 0.9465(6) 0.0597(2)
H5 H 0.9029 0.9788 0.0969
H6 H 0.9134 0.8810 0.0591
O16 O 0.9685(3) 0.7277(5) 0.0583(3)
H7 H 0.9894 0.7477 0.0333
H8 H 0.9516 0.6576 0.0454
loop_
_geom_bond_atom_site_label_1
_geom_bond_atom_site_label_2
_geom_bond_site_symmetry_1
_geom_bond_site_symmetry_2
Yb1 N1 1_555 1_555
Yb2 N3 1_555 1_555
Cu1 N5 1_555 1_555
Cu2 N6 1_555 1_555
Cu3 N9 1_555 1_555
N1 C2 1_555 1_555
N2 Yb1 1_555 1_555
N3 C13 1_555 1_555
N4 Yb2 1_555 1_555
N5 C23 1_555 1_555
N6 C28 1_555 1_555
N7 Cu1 1_555 1_555
N8 C38 1_555 1_555
N9 C43 1_555 1_555
N10 C48 1_555 1_555
O1 Yb1 1_555 1_555
O2 C1 1_555 1_555
O3 Yb1 1_555 1_555
O4 C7 1_555 1_555
O5 Yb1 1_555 1_555
O6 Cu1 1_555 1_555
O7 Yb2 1_555 1_555
O8 Cu2 1_555 1_555
O9 Yb2 1_555 1_555
O10 Cu3 1_555 1_555
O11 Yb2 1_555 1_555
O12 C19 1_555 1_555
O13 H1 1_555 1_555
H2 O13 1_555 1_555
O14 H3 1_555 1_555
H4 O14 1_555 1_555
O15 H5 1_555 1_555
H6 O15 1_555 1_555
O16 H7 1_555 1_555
H8 O16 1_555 1_555
C1 O1 1_555 1_555
C2 C1 1_555 1_555
C3 C2 1_555 1_555
H9 C3 1_555 1_555
C4 C3 1_555 1_555
H10 C4 1_555 1_555
C5 C4 1_555 1_555
H11 C5 1_555 1_555
C6 N1 1_555 1_555
C7 O3 1_555 1_555
C8 O5 1_555 1_555
C9 N2 1_555 1_555
C10 C9 1_555 1_555
H12 C10 1_555 1_555
C11 C10 1_555 1_555
H13 C11 1_555 1_555
C12 O7 1_555 1_555
C13 C12 1_555 1_555
C14 C13 1_555 1_555
H14 C14 1_555 1_555
C15 C14 1_555 1_555
H15 C15 1_555 1_555
C16 C15 1_555 1_555
H16 C16 1_555 1_555
C17 N3 1_555 1_555
C18 O9 1_555 1_555
C19 O11 1_555 1_555
C20 N4 1_555 1_555
C21 C20 1_555 1_555
H17 C21 1_555 1_555
C22 C21 1_555 1_555
H18 C22 1_555 1_555
C23 H19 1_555 1_555
C24 C23 1_555 1_555
H20 C24 1_555 1_555
C25 C24 1_555 1_555
C26 C25 1_555 1_555
H21 C26 1_555 1_555
C27 N5 1_555 1_555
H22 C27 1_555 1_555
C28 H23 1_555 1_555
C29 C28 1_555 1_555
H24 C29 1_555 1_555
C30 C25 1_555 1_555
C31 C30 1_555 1_555
H25 C31 1_555 1_555
C32 N6 1_555 1_555
H26 C32 1_555 1_555
C33 N7 1_555 1_555
H27 C33 1_555 1_555
C34 C33 1_555 1_555
H28 C34 1_555 1_555
C35 C34 1_555 1_555
C36 C35 1_555 1_555
H29 C36 1_555 1_555
C37 N7 1_555 1_555
H30 C37 1_555 1_555
C38 H31 1_555 1_555
C39 C38 1_555 1_555
H32 C39 1_555 1_555
C40 C35 1_555 1_555
C41 C40 1_555 1_555
H33 C41 1_555 1_555
C42 N8 1_555 1_555
H34 C42 1_555 1_555
C43 H35 1_555 1_555
C44 C43 1_555 1_555
H36 C44 1_555 1_555
C45 C44 1_555 1_555
C46 C45 1_555 1_555
H37 C46 1_555 1_555
C47 N9 1_555 1_555
H38 C47 1_555 1_555
C48 H39 1_555 1_555
C49 C48 1_555 1_555
H40 C49 1_555 1_555
C50 C45 1_555 1_555
C51 C50 1_555 1_555
H41 C51 1_555 1_555
C52 N10 1_555 1_555
H42 C52 1_555 1_555
Yb2_2 N3A 1_555 1_555
Cu1A N5A 1_555 1_555
Cu2A N6A 1_555 1_555
Cu2_2 N8 1_555 1_555
Cu2A_2 N8A 1_555 1_555
Cu3A N9A 1_555 1_555
Cu3C N10 1_555 1_555
Cu3C_2 N9C 1_555 1_555
N1A Yb1 1_555 1_555
N3A C13A 1_555 1_555
N3A_2 Yb2 1_555 1_555
N5A C23A 1_555 1_555
N6A C28A 1_555 1_555
N7A Cu1A 1_555 1_555
N8A C38A 1_555 1_555
N8_2 Cu2 1_555 1_555
N8A_2 Cu2A 1_555 1_555
N9C C43C 1_555 1_555
N10C Cu3 1_555 1_555
N10B Cu3A 1_555 1_555
O1A Yb1 1_555 1_555
O2A C1A 1_555 1_555
O3A Yb1 1_555 1_555
O4A C7A 1_555 1_555
O5A Yb1 1_555 1_555
O6A Cu1A 1_555 1_555
O7A Yb2_2 1_555 1_555
O7A_2 Yb2 1_555 1_555
O8A Cu2A 1_555 1_555
O9A Yb2_2 1_555 1_555
O9A_2 Yb2 1_555 1_555
O10A Cu3A 1_555 1_555
O11A Yb2 1_555 1_555
O12A C19A 1_555 1_555
C1A O1A 1_555 1_555
C2A N1A 1_555 1_555
C3A C2A 1_555 1_555
H9A C3A 1_555 1_555
C4A C3A 1_555 1_555
H10A C4A 1_555 1_555
C5A C4A 1_555 1_555
H11A C5A 1_555 1_555
C6A N1A 1_555 1_555
C7A O3A 1_555 1_555
C8A O5A 1_555 1_555
C9A N2 1_555 1_555
C10A C11 1_555 1_555
H12A C10A 1_555 1_555
C12A O7A 1_555 1_555
C13A C12A 1_555 1_555
C14A C13A 1_555 1_555
H14A C14A 1_555 1_555
C15A C14A 1_555 1_555
H15A C15A 1_555 1_555
C16A C15A 1_555 1_555
H16A C16A 1_555 1_555
C17A N3A 1_555 1_555
C18A O9A 1_555 1_555
C19A O11A 1_555 1_555
C20A N4 1_555 1_555
C21A C22 1_555 1_555
H17A C21A 1_555 1_555
C23A H19A 1_555 1_555
C24A C23A 1_555 1_555
H20A C24A 1_555 1_555
C25A C24A 1_555 1_555
C26A C25A 1_555 1_555
H21A C26A 1_555 1_555
C27A N5A 1_555 1_555
H22A C27A 1_555 1_555
C28A H23A 1_555 1_555
C29A C28A 1_555 1_555
H24A C29A 1_555 1_555
C30A C25A 1_555 1_555
C31A C30A 1_555 1_555
H25A C31A 1_555 1_555
C32A N6A 1_555 1_555
H26A C32A 1_555 1_555
C33A N7A 1_555 1_555
H27A C33A 1_555 1_555
C34A C33A 1_555 1_555
H28A C34A 1_555 1_555
C35A C34A 1_555 1_555
C36A C35A 1_555 1_555
H29A C36A 1_555 1_555
C37A N7A 1_555 1_555
H30A C37A 1_555 1_555
C38A H31A 1_555 1_555
C39A C38A 1_555 1_555
H32A C39A 1_555 1_555
C40A C35A 1_555 1_555
C41A C40A 1_555 1_555
H33A C41A 1_555 1_555
C42A N8A 1_555 1_555
H34A C42A 1_555 1_555
C43C H35C 1_555 1_555
C44C C43C 1_555 1_555
H36C C44C 1_555 1_555
C45C C44C 1_555 1_555
C46C C45C 1_555 1_555
H37C C46C 1_555 1_555
C47C N9C 1_555 1_555
H38C C47C 1_555 1_555
C48C N10C 1_555 1_555
H39C C48C 1_555 1_555
C49C C48C 1_555 1_555
H40C C49C 1_555 1_555
C50C C45C 1_555 1_555
C51C C50C 1_555 1_555
H41C C51C 1_555 1_555
C52C N10C 1_555 1_555
H42C C52C 1_555 1_555
O6 C8 1_555 1_555
O8 C12 1_555 1_555
O10 C18 1_555 1_555
C5 C6 1_555 1_555
C6 C7 1_555 1_555
C8 C9 1_555 1_555
C16 C17 1_555 1_555
C17 C18 1_555 1_555
C19 C20 1_555 1_555
C26 C27 1_555 1_555
C29 C30 1_555 1_555
C31 C32 1_555 1_555
C36 C37 1_555 1_555
C39 C40 1_555 1_555
C41 C42 1_555 1_555
C46 C47 1_555 1_555
C49 C50 1_555 1_555
C51 C52 1_555 1_555
O6A C8A 1_555 1_555
O8A C12A 1_555 1_555
O10A C18A 1_555 1_555
C1A C2A 1_555 1_555
C5A C6A 1_555 1_555
C6A C7A 1_555 1_555
C8A C9A 1_555 1_555
C9A C10A 1_555 1_555
C16A C17A 1_555 1_555
C17A C18A 1_555 1_555
C19A C20A 1_555 1_555
C20A C21A 1_555 1_555
C26A C27A 1_555 1_555
C29A C30A 1_555 1_555
C31A C32A 1_555 1_555
C36A C37A 1_555 1_555
C39A C40A 1_555 1_555
C41A C42A 1_555 1_555
C46C C47C 1_555 1_555
C49C C50C 1_555 1_555
C51C C52C 1_555 1_555

#END
