
#######################################################################
#
#                 Cambridge Crystallographic Data Centre
#                                CCDC 
#
#######################################################################
#
# If this CIF has been generated from an entry in the Cambridge 
# Structural Database, then it will include bibliographic, chemical, 
# crystal, experimental, refinement or atomic coordinate data resulting 
# from the CCDC's data processing and validation procedures.
#
#######################################################################

data_VAJNAW
_symmetry_cell_setting           tetragonal
_symmetry_space_group_name_H-M   'I 41/a'
_symmetry_Int_Tables_number      88
_space_group_name_Hall           '-I 4ad'
loop_
_symmetry_equiv_pos_site_id
_symmetry_equiv_pos_as_xyz
1 x,y,z
2 3/4-y,1/4+x,1/4+z
3 1/2+x,1/2+y,1/2+z
4 1/4-y,3/4+x,3/4+z
5 1/4+y,1/4-x,1/4+z
6 1/2+x,y,1/2-z
7 1/4-y,1/4+x,1/4-z
8 x,1/2+y,-z
9 -x,-y,-z
10 1/4+y,3/4-x,3/4-z
11 1/2-x,1/2-y,1/2-z
12 3/4+y,1/4-x,1/4-z
13 3/4-y,3/4+x,3/4-z
14 1/2-x,-y,1/2+z
15 3/4+y,3/4-x,3/4+z
16 -x,1/2-y,z
_cell_length_a                   16.205(2)
_cell_length_b                   16.205(2)
_cell_length_c                   18.070(4)
_cell_angle_alpha                90
_cell_angle_beta                 90
_cell_angle_gamma                90
_cell_volume                     4745.22
loop_
_atom_site_label
_atom_site_type_symbol
_atom_site_fract_x
_atom_site_fract_y
_atom_site_fract_z
Zn1 Zn 0.018173(15) 0.090564(15) 0.061744(12)
O1 O -0.00991(10) 0.03428(11) 0.15344(8)
O2 O -0.07305(10) 0.14987(10) 0.17488(8)
C1 C -0.05029(13) 0.08043(12) 0.19650(11)
C2 C -0.06780(14) 0.04722(13) 0.27222(11)
C3 C -0.11226(14) 0.09170(13) 0.32447(11)
H1 H -0.1307 0.1446 0.3132
C4 C -0.12922(14) 0.05804(14) 0.39299(12)
H2 H -0.1598 0.0884 0.4270
C5 C -0.10146(14) -0.02032(14) 0.41219(12)
C6 C -0.05553(16) -0.06379(17) 0.35979(13)
H3 H -0.0357 -0.1160 0.3714
C7 C -0.03907(15) -0.03052(16) 0.29090(12)
H4 H -0.0084 -0.0606 0.2568
C8 C -0.11946(14) -0.05577(14) 0.48624(12)
C9 C -0.06210(15) -0.10480(14) 0.52279(13)
H5 H -0.0115 -0.1157 0.5005
C10 C -0.07898(15) -0.13763(14) 0.59181(12)
H6 H -0.0396 -0.1700 0.6155
C11 C -0.15417(13) -0.12265(13) 0.62583(11)
C12 C -0.21182(14) -0.07364(14) 0.58997(12)
H7 H -0.2625 -0.0633 0.6123
C13 C -0.19462(15) -0.04001(14) 0.52139(12)
H8 H -0.2335 -0.0065 0.4984
C14 C -0.17417(13) -0.16283(14) 0.69794(11)
O3 O -0.11709(10) -0.20042(10) 0.73137(9)
O4 O -0.24669(9) -0.15939(9) 0.72374(8)
O2F O 0.10013(10) 0.17695(10) 0.07512(8)
O3A O -0.04958(10) 0.13291(10) -0.01863(9)
O4I O 0.09061(9) -0.00331(9) 0.02626(8)
Zn1K Zn -0.159436(15) 0.231827(15) 0.188256(12)
Zn1N Zn -0.159436(15) -0.268173(15) 0.811744(12)
Zn1L Zn -0.340564(15) -0.231827(15) 0.688256(12)
loop_
_geom_bond_atom_site_label_1
_geom_bond_atom_site_label_2
_geom_bond_site_symmetry_1
_geom_bond_site_symmetry_2
Zn1 O1 1_555 1_555
O1 C1 1_555 1_555
O2 C1 1_555 1_555
C1 C2 1_555 1_555
C2 C3 1_555 1_555
C3 H1 1_555 1_555
C4 C3 1_555 1_555
H2 C4 1_555 1_555
C5 C4 1_555 1_555
C6 C5 1_555 1_555
H3 C6 1_555 1_555
C7 C2 1_555 1_555
H4 C7 1_555 1_555
C8 C5 1_555 1_555
C9 C8 1_555 1_555
H5 C9 1_555 1_555
C10 C9 1_555 1_555
H6 C10 1_555 1_555
C11 C10 1_555 1_555
C12 C11 1_555 1_555
H7 C12 1_555 1_555
C13 C8 1_555 1_555
H8 C13 1_555 1_555
C14 C11 1_555 1_555
O3 C14 1_555 1_555
O4 C14 1_555 1_555
O2F Zn1 1_555 1_555
O3A Zn1 1_555 1_555
O4I Zn1 1_555 1_555
Zn1K O2 1_555 1_555
Zn1N O3 1_555 1_555
Zn1L O4 1_555 1_555
C6 C7 1_555 1_555
C12 C13 1_555 1_555

#END
