
#######################################################################
#
#                 Cambridge Crystallographic Data Centre
#                                CCDC 
#
#######################################################################
#
# If this CIF has been generated from an entry in the Cambridge 
# Structural Database, then it will include bibliographic, chemical, 
# crystal, experimental, refinement or atomic coordinate data resulting 
# from the CCDC's data processing and validation procedures.
#
#######################################################################

data_VAJPED
_symmetry_cell_setting           monoclinic
_symmetry_space_group_name_H-M   'P 2/c'
_symmetry_Int_Tables_number      13
_space_group_name_Hall           '-P 2yc'
loop_
_symmetry_equiv_pos_site_id
_symmetry_equiv_pos_as_xyz
1 x,y,z
2 -x,y,1/2-z
3 -x,-y,-z
4 x,-y,1/2+z
_cell_length_a                   23.657(2)
_cell_length_b                   10.5149(11)
_cell_length_c                   21.695(2)
_cell_angle_alpha                90
_cell_angle_beta                 105.1240(10)
_cell_angle_gamma                90
_cell_volume                     5209.73
loop_
_atom_site_label
_atom_site_type_symbol
_atom_site_fract_x
_atom_site_fract_y
_atom_site_fract_z
Sm1 Sm 0.0000 0.77530(9) 0.7500
Sm2 Sm 0.5000 0.47392(9) 0.2500
Cu1 Cu 0.21259(8) 0.6676(2) 0.78987(8)
Cu2 Cu 0.26864(10) 0.6362(2) 0.30502(8)
Cu3 Cu 0.68660(8) 0.05044(19) 0.38114(8)
N1 N 0.0476(5) 0.9022(11) 0.6782(5)
N2 N 0.0000 0.5348(14) 0.7500
N3 N 0.4821(5) 0.3641(12) 0.3493(5)
N4 N 0.5000 0.7142(18) 0.2500
N5 N 0.2273(5) 0.6805(12) 0.7063(5)
N6 N 0.2586(5) 0.6568(11) 0.3904(5)
N7 N 0.2218(5) 0.6920(11) 0.8797(5)
N8 N 0.2574(5) 0.6582(11) 1.2163(5)
N9 N 0.6959(5) 0.0102(12) 0.4693(5)
N10 N 0.6911(5) -0.0466(12) 0.7958(6)
O1 O 0.0701(4) 0.9372(9) 0.8017(5)
O2 O 0.1351(4) 1.0910(9) 0.8001(5)
O3 O -0.0229(4) 0.7124(10) 0.6362(5)
O4 O -0.0234(6) 0.7453(12) 0.5344(5)
O5 O 0.0947(4) 0.6700(9) 0.7584(4)
O6 O 0.1526(4) 0.4981(9) 0.7756(4)
O7 O 0.4108(4) 0.5377(10) 0.2818(5)
O8 O 0.3494(4) 0.5154(11) 0.3441(5)
O9 O 0.5663(4) 0.2995(9) 0.2970(4)
O10 O 0.6037(4) 0.1629(10) 0.3769(5)
O11 O 0.4451(4) 0.5770(10) 0.1515(4)
O12 O 0.4227(5) 0.7480(12) 0.0889(5)
C1 C 0.0982(5) 1.0118(13) 0.7741(7)
C2 C 0.0847(6) 0.9959(13) 0.7016(7)
C3 C 0.1071(7) 1.0753(15) 0.6633(8)
H9 H 0.1315 1.1424 0.6811
C4 C 0.0929(7) 1.0543(16) 0.5986(8)
H10 H 0.1084 1.1060 0.5722
C5 C 0.0562(7) 0.9571(16) 0.5735(7)
H11 H 0.0463 0.9409 0.5298
C6 C 0.0336(6) 0.8816(14) 0.6148(7)
C7 C -0.0087(7) 0.7723(15) 0.5943(7)
C8 C 0.1029(5) 0.5522(13) 0.7648(6)
C9 C 0.0504(6) 0.4697(13) 0.7585(6)
C10 C 0.0518(6) 0.3381(14) 0.7589(8)
H12 H 0.0873 0.2955 0.7652
C11 C 0.0000 0.270(2) 0.7500
H13 H 0.0000 0.1813 0.7500
C12 C 0.3962(6) 0.4958(14) 0.3298(6)
C13 C 0.4381(6) 0.4071(15) 0.3718(6)
C14 C 0.4375(6) 0.3760(16) 0.4356(7)
H14 H 0.4087 0.4090 0.4532
C15 C 0.4797(7) 0.2972(18) 0.4705(8)
H15 H 0.4794 0.2742 0.5118
C16 C 0.5227(7) 0.2521(16) 0.4441(7)
H16 H 0.5519 0.1991 0.4677
C17 C 0.5224(6) 0.2859(15) 0.3824(7)
C18 C 0.5691(5) 0.2455(13) 0.3493(6)
C19 C 0.4446(6) 0.6943(15) 0.1404(7)
C20 C 0.4737(6) 0.7775(15) 0.1977(8)
C21 C 0.4712(8) 0.9075(17) 0.1964(9)
H17 H 0.4503 0.9497 0.1599
C22 C 0.5000 0.975(3) 0.2500
H18 H 0.5000 1.0638 0.2500
C23 C 0.1832(6) 0.7193(15) 0.6551(6)
H19 H 0.1485 0.7489 0.6625
C24 C 0.1881(6) 0.7163(15) 0.5937(6)
H20 H 0.1567 0.7425 0.5606
C25 C 0.2398(6) 0.6741(14) 0.5801(6)
C26 C 0.2851(6) 0.6366(13) 0.6345(6)
H21 H 0.3210 0.6085 0.6299
C27 C 0.2747(6) 0.6425(14) 0.6931(6)
H22 H 0.3050 0.6164 0.7275
C28 C 0.3051(6) 0.6700(15) 0.4404(6)
H23 H 0.3419 0.6770 0.4327
C29 C 0.3013(6) 0.6737(14) 0.5025(6)
H24 H 0.3350 0.6807 0.5359
C30 C 0.2468(5) 0.6668(13) 0.5149(6)
C31 C 0.1988(7) 0.6530(15) 0.4628(7)
H25 H 0.1611 0.6456 0.4680
C32 C 0.2086(6) 0.6508(15) 0.4035(6)
H26 H 0.1758 0.6442 0.3689
C33 C 0.1761(6) 0.7213(13) 0.9051(6)
H27 H 0.1402 0.7429 0.8776
C34 C 0.1814(6) 0.7201(13) 0.9686(6)
H28 H 0.1488 0.7371 0.9837
C35 C 0.2335(6) 0.6943(13) 1.0108(6)
C36 C 0.2811(6) 0.6706(13) 0.9875(6)
H29 H 0.3178 0.6551 1.0149
C37 C 0.2726(6) 0.6705(14) 0.9203(6)
H30 H 0.3047 0.6543 0.9042
C38 C 0.3010(6) 0.6942(13) 1.1921(6)
H31 H 0.3375 0.7101 1.2199
C39 C 0.2942(6) 0.7092(14) 1.1259(6)
H32 H 0.3262 0.7346 1.1115
C40 C 0.2410(5) 0.6870(13) 1.0816(6)
C41 C 0.1960(6) 0.6549(13) 1.1080(6)
H33 H 0.1589 0.6411 1.0811
C42 C 0.2040(6) 0.6430(13) 1.1707(6)
H34 H 0.1715 0.6229 1.1853
C43 C 0.6461(6) -0.0143(14) 0.4860(6)
H35 H 0.6113 -0.0229 0.4542
C44 C 0.6454(6) -0.0272(14) 0.5498(6)
H36 H 0.6103 -0.0447 0.5597
C45 C 0.6977(6) -0.0138(14) 0.5999(7)
C46 C 0.7479(6) 0.0098(14) 0.5811(7)
H37 H 0.7836 0.0181 0.6115
C47 C 0.7453(6) 0.0213(14) 0.5169(6)
H38 H 0.7801 0.0378 0.5058
C48 C 0.6504(6) -0.1018(15) 0.7475(7)
H39 H 0.6199 -0.1461 0.7575
C49 C 0.6516(6) -0.0961(15) 0.6848(7)
H40 H 0.6226 -0.1364 0.6537
C50 C 0.6960(6) -0.0305(13) 0.6676(6)
C51 C 0.7388(6) 0.0207(14) 0.7153(6)
H41 H 0.7701 0.0628 0.7059
C52 C 0.7358(6) 0.0101(14) 0.7783(6)
H42 H 0.7663 0.0441 0.8101
Sm2_2 Sm -0.5000 0.47392(9) 1.2500
Cu1A Cu -0.21259(8) 0.6676(2) 0.71013(8)
Cu2A Cu -0.26864(10) 0.6362(2) 1.19498(8)
Cu2_2 Cu 0.26864(10) 0.6362(2) 1.30502(8)
Cu2A_2 Cu -0.26864(10) 0.6362(2) 0.19498(8)
Cu3A Cu -0.68660(8) 0.05044(19) 1.11886(8)
Cu3C Cu 0.68660(8) -0.05044(19) 0.88114(8)
Cu3C_2 Cu 0.68660(8) -0.05044(19) -0.11886(8)
N1A N -0.0476(5) 0.9022(11) 0.8218(5)
N3A N -0.4821(5) 0.3641(12) 1.1507(5)
N3A_2 N 0.5179(5) 0.3641(12) 0.1507(5)
N5A N -0.2273(5) 0.6805(12) 0.7937(5)
N6A N -0.2586(5) 0.6568(11) 1.1096(5)
N7A N -0.2218(5) 0.6920(11) 0.6203(5)
N8A N -0.2574(5) 0.6582(11) 0.2837(5)
N8_2 N 0.2574(5) 0.6582(11) 0.2163(5)
N8A_2 N -0.2574(5) 0.6582(11) 1.2837(5)
N9C N 0.6959(5) -0.0102(12) -0.0307(5)
N9A N -0.6959(5) 0.0102(12) 1.0307(5)
N10C N 0.6911(5) 0.0466(12) 0.2958(6)
N10B N -0.6911(5) 0.0466(12) 1.2042(6)
O1A O -0.0701(4) 0.9372(9) 0.6983(5)
O2A O -0.1351(4) 1.0910(9) 0.6999(5)
O3A O 0.0229(4) 0.7124(10) 0.8638(5)
O4A O 0.0234(6) 0.7453(12) 0.9656(5)
O5A O -0.0947(4) 0.6700(9) 0.7416(4)
O6A O -0.1526(4) 0.4981(9) 0.7244(4)
O7A O -0.4108(4) 0.5377(10) 1.2182(5)
O7A_2 O 0.5892(4) 0.5377(10) 0.2182(5)
O8A O -0.3494(4) 0.5154(11) 1.1559(5)
O9A O -0.5663(4) 0.2995(9) 1.2030(4)
O9A_2 O 0.4337(4) 0.2995(9) 0.2030(4)
O10A O -0.6037(4) 0.1629(10) 1.1231(5)
O11A O 0.5549(4) 0.5770(10) 0.3485(4)
O12A O 0.5773(5) 0.7480(12) 0.4111(5)
C1A C -0.0982(5) 1.0118(13) 0.7259(7)
C2A C -0.0847(6) 0.9959(13) 0.7984(7)
C3A C -0.1071(7) 1.0753(15) 0.8367(8)
H9A H -0.1315 1.1424 0.8189
C4A C -0.0929(7) 1.0543(16) 0.9014(8)
H10A H -0.1084 1.1060 0.9278
C5A C -0.0562(7) 0.9571(16) 0.9265(7)
H11A H -0.0463 0.9409 0.9702
C6A C -0.0336(6) 0.8816(14) 0.8852(7)
C7A C 0.0087(7) 0.7723(15) 0.9057(7)
C8A C -0.1029(5) 0.5522(13) 0.7352(6)
C9A C -0.0504(6) 0.4697(13) 0.7415(6)
C10A C -0.0518(6) 0.3381(14) 0.7411(8)
H12A H -0.0873 0.2955 0.7348
C12A C -0.3962(6) 0.4958(14) 1.1702(6)
C13A C -0.4381(6) 0.4071(15) 1.1282(6)
C14A C -0.4375(6) 0.3760(16) 1.0644(7)
H14A H -0.4087 0.4090 1.0468
C15A C -0.4797(7) 0.2972(18) 1.0295(8)
H15A H -0.4794 0.2742 0.9882
C16A C -0.5227(7) 0.2521(16) 1.0559(7)
H16A H -0.5519 0.1991 1.0323
C17A C -0.5224(6) 0.2859(15) 1.1176(7)
C18A C -0.5691(5) 0.2455(13) 1.1507(6)
C19A C 0.5554(6) 0.6943(15) 0.3596(7)
C20A C 0.5263(6) 0.7775(15) 0.3023(8)
C21A C 0.5288(8) 0.9075(17) 0.3036(9)
H17A H 0.5497 0.9497 0.3401
C23A C -0.1832(6) 0.7193(15) 0.8449(6)
H19A H -0.1485 0.7489 0.8375
C24A C -0.1881(6) 0.7163(15) 0.9063(6)
H20A H -0.1567 0.7425 0.9394
C25A C -0.2398(6) 0.6741(14) 0.9199(6)
C26A C -0.2851(6) 0.6366(13) 0.8655(6)
H21A H -0.3210 0.6085 0.8701
C27A C -0.2747(6) 0.6425(14) 0.8069(6)
H22A H -0.3050 0.6164 0.7725
C28A C -0.3051(6) 0.6700(15) 1.0596(6)
H23A H -0.3419 0.6770 1.0673
C29A C -0.3013(6) 0.6737(14) 0.9975(6)
H24A H -0.3350 0.6807 0.9641
C30A C -0.2468(5) 0.6668(13) 0.9851(6)
C31A C -0.1988(7) 0.6530(15) 1.0372(7)
H25A H -0.1611 0.6456 1.0320
C32A C -0.2086(6) 0.6508(15) 1.0965(6)
H26A H -0.1758 0.6442 1.1311
C33A C -0.1761(6) 0.7213(13) 0.5949(6)
H27A H -0.1402 0.7429 0.6224
C34A C -0.1814(6) 0.7201(13) 0.5314(6)
H28A H -0.1488 0.7371 0.5163
C35A C -0.2335(6) 0.6943(13) 0.4892(6)
C36A C -0.2811(6) 0.6706(13) 0.5125(6)
H29A H -0.3178 0.6551 0.4851
C37A C -0.2726(6) 0.6705(14) 0.5797(6)
H30A H -0.3047 0.6543 0.5958
C38A C -0.3010(6) 0.6942(13) 0.3079(6)
H31A H -0.3375 0.7101 0.2801
C39A C -0.2942(6) 0.7092(14) 0.3741(6)
H32A H -0.3262 0.7346 0.3885
C40A C -0.2410(5) 0.6870(13) 0.4184(6)
C41A C -0.1960(6) 0.6549(13) 0.3920(6)
H33A H -0.1589 0.6411 0.4189
C42A C -0.2040(6) 0.6430(13) 0.3293(6)
H34A H -0.1715 0.6229 0.3147
C43C C 0.6461(6) 0.0143(14) -0.0140(6)
H35C H 0.6113 0.0229 -0.0458
C44C C 0.6454(6) 0.0272(14) 0.0498(6)
H36C H 0.6103 0.0447 0.0597
C45C C 0.6977(6) 0.0138(14) 0.0999(7)
C46C C 0.7479(6) -0.0098(14) 0.0811(7)
H37C H 0.7836 -0.0181 0.1115
C47C C 0.7453(6) -0.0213(14) 0.0169(6)
H38C H 0.7801 -0.0378 0.0058
C48C C 0.6504(6) 0.1018(15) 0.2475(7)
H39C H 0.6199 0.1461 0.2575
C49C C 0.6516(6) 0.0961(15) 0.1848(7)
H40C H 0.6226 0.1364 0.1537
C50C C 0.6960(6) 0.0305(13) 0.1676(6)
C51C C 0.7388(6) -0.0207(14) 0.2153(6)
H41C H 0.7701 -0.0628 0.2059
C52C C 0.7358(6) -0.0101(14) 0.2783(6)
H42C H 0.7663 -0.0441 0.3101
O13 O 0.9209(6) 0.4920(16) 0.9966(9)
H1 H 0.9360 0.4228 1.0134
H2 H 0.9269 0.4979 0.9598
O14 O 0.9491(10) 0.5253(18) 0.3806(8)
H3 H 0.9684 0.4595 0.3758
H4 H 0.9733 0.5827 0.3982
O15 O 0.8939(7) 0.9555(19) 0.0637(8)
H5 H 0.9040 0.9852 0.1015
H6 H 0.9139 0.8890 0.0624
O16 O 0.9642(8) 0.7265(19) 0.0596(8)
H7 H 0.9850 0.7472 0.0346
H8 H 0.9480 0.6557 0.0471
loop_
_geom_bond_atom_site_label_1
_geom_bond_atom_site_label_2
_geom_bond_site_symmetry_1
_geom_bond_site_symmetry_2
Sm1 N1 1_555 1_555
Sm2 N3 1_555 1_555
Cu1 N5 1_555 1_555
Cu2 N6 1_555 1_555
Cu3 N9 1_555 1_555
N1 C2 1_555 1_555
N2 Sm1 1_555 1_555
N3 C13 1_555 1_555
N4 Sm2 1_555 1_555
N5 C23 1_555 1_555
N6 C28 1_555 1_555
N7 Cu1 1_555 1_555
N8 C38 1_555 1_555
N9 C43 1_555 1_555
N10 C48 1_555 1_555
O1 Sm1 1_555 1_555
O2 C1 1_555 1_555
O3 Sm1 1_555 1_555
O4 C7 1_555 1_555
O5 Sm1 1_555 1_555
O6 Cu1 1_555 1_555
O7 Sm2 1_555 1_555
O8 Cu2 1_555 1_555
O9 Sm2 1_555 1_555
O10 Cu3 1_555 1_555
O11 Sm2 1_555 1_555
O12 C19 1_555 1_555
O13 H1 1_555 1_555
H2 O13 1_555 1_555
O14 H3 1_555 1_555
H4 O14 1_555 1_555
O15 H5 1_555 1_555
H6 O15 1_555 1_555
O16 H7 1_555 1_555
H8 O16 1_555 1_555
C1 O1 1_555 1_555
C2 C1 1_555 1_555
C3 C2 1_555 1_555
H9 C3 1_555 1_555
C4 C3 1_555 1_555
H10 C4 1_555 1_555
C5 C4 1_555 1_555
H11 C5 1_555 1_555
C6 N1 1_555 1_555
C7 O3 1_555 1_555
C8 O5 1_555 1_555
C9 N2 1_555 1_555
C10 C9 1_555 1_555
H12 C10 1_555 1_555
C11 C10 1_555 1_555
H13 C11 1_555 1_555
C12 O7 1_555 1_555
C13 C12 1_555 1_555
C14 C13 1_555 1_555
H14 C14 1_555 1_555
C15 C14 1_555 1_555
H15 C15 1_555 1_555
C16 C15 1_555 1_555
H16 C16 1_555 1_555
C17 N3 1_555 1_555
C18 O9 1_555 1_555
C19 O11 1_555 1_555
C20 N4 1_555 1_555
C21 C20 1_555 1_555
H17 C21 1_555 1_555
C22 C21 1_555 1_555
H18 C22 1_555 1_555
C23 H19 1_555 1_555
C24 C23 1_555 1_555
H20 C24 1_555 1_555
C25 C24 1_555 1_555
C26 C25 1_555 1_555
H21 C26 1_555 1_555
C27 N5 1_555 1_555
H22 C27 1_555 1_555
C28 H23 1_555 1_555
C29 C28 1_555 1_555
H24 C29 1_555 1_555
C30 C25 1_555 1_555
C31 C30 1_555 1_555
H25 C31 1_555 1_555
C32 N6 1_555 1_555
H26 C32 1_555 1_555
C33 N7 1_555 1_555
H27 C33 1_555 1_555
C34 C33 1_555 1_555
H28 C34 1_555 1_555
C35 C34 1_555 1_555
C36 C35 1_555 1_555
H29 C36 1_555 1_555
C37 N7 1_555 1_555
H30 C37 1_555 1_555
C38 H31 1_555 1_555
C39 C38 1_555 1_555
H32 C39 1_555 1_555
C40 C35 1_555 1_555
C41 C40 1_555 1_555
H33 C41 1_555 1_555
C42 N8 1_555 1_555
H34 C42 1_555 1_555
C43 H35 1_555 1_555
C44 C43 1_555 1_555
H36 C44 1_555 1_555
C45 C44 1_555 1_555
C46 C45 1_555 1_555
H37 C46 1_555 1_555
C47 N9 1_555 1_555
H38 C47 1_555 1_555
C48 H39 1_555 1_555
C49 C48 1_555 1_555
H40 C49 1_555 1_555
C50 C45 1_555 1_555
C51 C50 1_555 1_555
H41 C51 1_555 1_555
C52 N10 1_555 1_555
H42 C52 1_555 1_555
Sm2_2 N3A 1_555 1_555
Cu1A N5A 1_555 1_555
Cu2A N6A 1_555 1_555
Cu2_2 N8 1_555 1_555
Cu2A_2 N8A 1_555 1_555
Cu3A N9A 1_555 1_555
Cu3C N10 1_555 1_555
Cu3C_2 N9C 1_555 1_555
N1A Sm1 1_555 1_555
N3A C13A 1_555 1_555
N3A_2 Sm2 1_555 1_555
N5A C23A 1_555 1_555
N6A C28A 1_555 1_555
N7A Cu1A 1_555 1_555
N8A C38A 1_555 1_555
N8_2 Cu2 1_555 1_555
N8A_2 Cu2A 1_555 1_555
N9C C43C 1_555 1_555
N10C Cu3 1_555 1_555
N10B Cu3A 1_555 1_555
O1A Sm1 1_555 1_555
O2A C1A 1_555 1_555
O3A Sm1 1_555 1_555
O4A C7A 1_555 1_555
O5A Sm1 1_555 1_555
O6A Cu1A 1_555 1_555
O7A Sm2_2 1_555 1_555
O7A_2 Sm2 1_555 1_555
O8A Cu2A 1_555 1_555
O9A Sm2_2 1_555 1_555
O9A_2 Sm2 1_555 1_555
O10A Cu3A 1_555 1_555
O11A Sm2 1_555 1_555
O12A C19A 1_555 1_555
C1A O1A 1_555 1_555
C2A N1A 1_555 1_555
C3A C2A 1_555 1_555
H9A C3A 1_555 1_555
C4A C3A 1_555 1_555
H10A C4A 1_555 1_555
C5A C4A 1_555 1_555
H11A C5A 1_555 1_555
C6A N1A 1_555 1_555
C7A O3A 1_555 1_555
C8A O5A 1_555 1_555
C9A N2 1_555 1_555
C10A C11 1_555 1_555
H12A C10A 1_555 1_555
C12A O7A 1_555 1_555
C13A C12A 1_555 1_555
C14A C13A 1_555 1_555
H14A C14A 1_555 1_555
C15A C14A 1_555 1_555
H15A C15A 1_555 1_555
C16A C15A 1_555 1_555
H16A C16A 1_555 1_555
C17A N3A 1_555 1_555
C18A O9A 1_555 1_555
C19A O11A 1_555 1_555
C20A N4 1_555 1_555
C21A C22 1_555 1_555
H17A C21A 1_555 1_555
C23A H19A 1_555 1_555
C24A C23A 1_555 1_555
H20A C24A 1_555 1_555
C25A C24A 1_555 1_555
C26A C25A 1_555 1_555
H21A C26A 1_555 1_555
C27A N5A 1_555 1_555
H22A C27A 1_555 1_555
C28A H23A 1_555 1_555
C29A C28A 1_555 1_555
H24A C29A 1_555 1_555
C30A C25A 1_555 1_555
C31A C30A 1_555 1_555
H25A C31A 1_555 1_555
C32A N6A 1_555 1_555
H26A C32A 1_555 1_555
C33A N7A 1_555 1_555
H27A C33A 1_555 1_555
C34A C33A 1_555 1_555
H28A C34A 1_555 1_555
C35A C34A 1_555 1_555
C36A C35A 1_555 1_555
H29A C36A 1_555 1_555
C37A N7A 1_555 1_555
H30A C37A 1_555 1_555
C38A H31A 1_555 1_555
C39A C38A 1_555 1_555
H32A C39A 1_555 1_555
C40A C35A 1_555 1_555
C41A C40A 1_555 1_555
H33A C41A 1_555 1_555
C42A N8A 1_555 1_555
H34A C42A 1_555 1_555
C43C H35C 1_555 1_555
C44C C43C 1_555 1_555
H36C C44C 1_555 1_555
C45C C44C 1_555 1_555
C46C C45C 1_555 1_555
H37C C46C 1_555 1_555
C47C N9C 1_555 1_555
H38C C47C 1_555 1_555
C48C N10C 1_555 1_555
H39C C48C 1_555 1_555
C49C C48C 1_555 1_555
H40C C49C 1_555 1_555
C50C C45C 1_555 1_555
C51C C50C 1_555 1_555
H41C C51C 1_555 1_555
C52C N10C 1_555 1_555
H42C C52C 1_555 1_555
O6 C8 1_555 1_555
O8 C12 1_555 1_555
O10 C18 1_555 1_555
C5 C6 1_555 1_555
C6 C7 1_555 1_555
C8 C9 1_555 1_555
C16 C17 1_555 1_555
C17 C18 1_555 1_555
C19 C20 1_555 1_555
C26 C27 1_555 1_555
C29 C30 1_555 1_555
C31 C32 1_555 1_555
C36 C37 1_555 1_555
C39 C40 1_555 1_555
C41 C42 1_555 1_555
C46 C47 1_555 1_555
C49 C50 1_555 1_555
C51 C52 1_555 1_555
O6A C8A 1_555 1_555
O8A C12A 1_555 1_555
O10A C18A 1_555 1_555
C1A C2A 1_555 1_555
C5A C6A 1_555 1_555
C6A C7A 1_555 1_555
C8A C9A 1_555 1_555
C9A C10A 1_555 1_555
C16A C17A 1_555 1_555
C17A C18A 1_555 1_555
C19A C20A 1_555 1_555
C20A C21A 1_555 1_555
C26A C27A 1_555 1_555
C29A C30A 1_555 1_555
C31A C32A 1_555 1_555
C36A C37A 1_555 1_555
C39A C40A 1_555 1_555
C41A C42A 1_555 1_555
C46C C47C 1_555 1_555
C49C C50C 1_555 1_555
C51C C52C 1_555 1_555

#END
