
#######################################################################
#
#                 Cambridge Crystallographic Data Centre
#                                CCDC 
#
#######################################################################
#
# If this CIF has been generated from an entry in the Cambridge 
# Structural Database, then it will include bibliographic, chemical, 
# crystal, experimental, refinement or atomic coordinate data resulting 
# from the CCDC's data processing and validation procedures.
#
#######################################################################

data_VAJPAZ
_symmetry_cell_setting           monoclinic
_symmetry_space_group_name_H-M   'P 2/c'
_symmetry_Int_Tables_number      13
_space_group_name_Hall           '-P 2yc'
loop_
_symmetry_equiv_pos_site_id
_symmetry_equiv_pos_as_xyz
1 x,y,z
2 -x,y,1/2-z
3 -x,-y,-z
4 x,-y,1/2+z
_cell_length_a                   23.682(5)
_cell_length_b                   10.546(2)
_cell_length_c                   21.648(4)
_cell_angle_alpha                90
_cell_angle_beta                 105.28(3)
_cell_angle_gamma                90
_cell_volume                     5215.47
loop_
_atom_site_label
_atom_site_type_symbol
_atom_site_fract_x
_atom_site_fract_y
_atom_site_fract_z
Cu1 Cu -0.18651(2) 0.04746(5) 1.619320(19)
Cu2 Cu 0.28735(2) 0.66855(5) 1.209921(19)
Cu3 Cu 0.23082(2) 0.63460(5) 1.69447(2)
Eu1 Eu 0.5000 0.77532(2) 1.2500
Eu2 Eu 0.0000 0.46988(2) 1.7500
C1 C -0.23541(16) -0.0150(4) 1.72260(16)
H1 H -0.2647 -0.0526 1.6906
C2 C -0.15112(17) 0.1014(4) 1.75259(16)
H2 H -0.1210 0.1459 1.7421
C3 C -0.23872(15) -0.0251(3) 1.78457(15)
H3 H -0.2698 -0.0680 1.7938
C4 C -0.15168(17) 0.0949(4) 1.81581(16)
H4 H -0.1224 0.1350 1.8468
C5 C -0.19547(15) 0.0290(3) 1.83370(15)
C6 C -0.19606(15) 0.0172(3) 1.90186(15)
C7 C -0.24717(15) -0.0085(3) 1.91999(15)
H5 H -0.2826 -0.0180 1.8891
C8 C -0.24498(16) -0.0198(3) 1.98390(15)
H6 H -0.2796 -0.0362 1.9951
C9 C -0.14641(16) 0.0183(3) 2.01351(16)
H7 H -0.1118 0.0287 2.0455
C10 C -0.14474(16) 0.0309(3) 1.95087(15)
H8 H -0.1095 0.0485 1.9412
C11 C -0.06771(14) 0.2418(3) 1.65085(15)
C12 C -0.02148(15) 0.2823(3) 1.61798(15)
C13 C -0.02189(18) 0.2449(4) 1.55661(18)
H9 H -0.0501 0.1888 1.5339
C14 C 0.02066(19) 0.2926(5) 1.52986(18)
H10 H 0.0210 0.2704 1.4884
C15 C 0.06293(17) 0.3741(4) 1.56548(17)
H11 H 0.0919 0.4072 1.5484
C16 C 0.06088(15) 0.4048(4) 1.62710(15)
C17 C 0.10328(15) 0.4945(4) 1.67070(16)
C18 C -0.02662(16) 0.7719(4) 1.69705(18)
C19 C -0.05555(15) 0.6893(4) 1.64039(17)
C20 C -0.0272(2) 0.9033(4) 1.6956(2)
H12 H -0.0458 0.9460 1.6582
C21 C 0.0000 0.9701(6) 1.7500
H13 H 0.0000 1.0583 1.7500
C22 C 0.19358(16) 0.6679(4) 1.55842(16)
H14 H 0.1566 0.6721 1.5657
C23 C 0.19781(16) 0.6740(3) 1.49640(15)
H15 H 0.1642 0.6824 1.4628
C24 C 0.25254(15) 0.6675(3) 1.48401(15)
C25 C 0.30076(17) 0.6549(4) 1.53666(16)
H16 H 0.3382 0.6495 1.5309
C26 C 0.29282(17) 0.6505(4) 1.59716(16)
H17 H 0.3258 0.6430 1.6316
C27 C 0.19863(16) 0.6925(4) 0.80908(16)
H18 H 0.1620 0.7055 0.7809
C28 C 0.29578(16) 0.6401(3) 0.82694(16)
H19 H 0.3273 0.6180 0.8111
C29 C 0.20461(15) 0.7088(3) 0.87362(15)
H20 H 0.1727 0.7344 0.8880
C30 C 0.30495(15) 0.6524(3) 0.89211(15)
H21 H 0.3419 0.6379 0.9194
C31 C 0.25830(14) 0.6871(3) 0.91727(15)
C32 C 0.26541(14) 0.6938(3) 0.98748(15)
C33 C 0.21793(15) 0.6700(3) 1.01264(16)
H22 H 0.1810 0.6545 0.9855
C34 C 0.31894(15) 0.7210(3) 1.03072(15)
H23 H 0.3514 0.7398 1.0159
C35 C 0.32359(16) 0.7201(4) 1.09538(16)
H24 H 0.3597 0.7387 1.1235
C36 C 0.22634(16) 0.6697(4) 1.07796(16)
H25 H 0.1944 0.6521 1.0940
C37 C 0.22323(16) 0.6407(3) 1.30479(16)
H26 H 0.1929 0.6145 1.2704
C38 C 0.21481(15) 0.6352(3) 1.36517(15)
H27 H 0.1796 0.6055 1.3709
C39 C 0.25920(15) 0.6741(3) 1.41770(15)
C40 C 0.31046(17) 0.7191(4) 1.40532(16)
H28 H 0.3410 0.7483 1.4387
C41 C 0.31572(18) 0.7204(4) 1.34353(17)
H29 H 0.3506 0.7492 1.3364
C42 C 0.39680(14) 0.5527(3) 1.23575(15)
C43 C 0.44981(14) 0.4707(3) 1.24182(16)
C44 C 0.44794(16) 0.3398(3) 1.2406(2)
H30 H 0.4125 0.2970 1.2336
C45 C 0.5000 0.2742(5) 1.2500
H31 H 0.5000 0.1860 1.2500
C46 C 0.40215(14) 1.0105(3) 1.22547(17)
C47 C 0.41566(14) 0.9961(3) 1.29739(17)
C48 C 0.39224(17) 1.0745(4) 1.3359(2)
H32 H 0.3670 1.1402 1.3181
C49 C 0.4071(2) 1.0531(4) 1.4006(2)
H33 H 0.3918 1.1045 1.4272
C50 C 0.44488(18) 0.9547(4) 1.42635(19)
H34 H 0.4550 0.9387 1.4701
C51 C 0.46726(15) 0.8807(3) 1.38536(16)
C52 C 0.50892(16) 0.7712(4) 1.40644(16)
N1 N -0.19193(13) 0.0465(3) 1.70553(13)
N2 N -0.19501(13) -0.0082(3) 2.03098(13)
N3 N 0.01882(11) 0.3606(3) 1.65212(12)
N4 N 0.0000 0.7086(4) 1.7500
N5 N 0.24057(13) 0.6562(3) 1.60929(13)
N6 N 0.24305(13) 0.6588(3) 0.78493(13)
N7 N 0.27812(13) 0.6934(3) 1.11994(13)
N8 N 0.27274(13) 0.6817(3) 1.29286(13)
N9 N 0.45228(11) 0.9022(3) 1.32209(12)
N10 N 0.5000 0.5349(3) 1.2500
O1 O -0.10316(11) 0.1592(2) 1.62412(11)
O2 O -0.06609(10) 0.2954(2) 1.70309(10)
O3 O -0.05513(11) 0.5712(2) 1.65176(11)
O4 O -0.07790(12) 0.7415(3) 1.58850(12)
O5 O 0.08873(11) 0.5342(2) 1.71881(11)
O6 O 0.14978(12) 0.5177(3) 1.65555(13)
O7 O 0.34751(10) 0.5004(2) 1.22480(11)
O8 O 0.40507(9) 0.6718(2) 1.24133(11)
O9 O 0.52371(11) 0.7107(2) 1.36297(11)
O10 O 0.52554(15) 0.7454(3) 1.46493(13)
O11 O 0.43052(11) 0.9371(2) 1.19781(11)
O12 O 0.36571(11) 1.0911(2) 1.19884(13)
Cu1A Cu 1.18651(2) 0.04746(5) 0.880680(19)
Cu1C Cu -0.18651(2) -0.04746(5) 2.119320(19)
Cu1C_2 Cu -0.18651(2) -0.04746(5) 1.119320(19)
Cu2A Cu 0.71265(2) 0.66855(5) 1.290079(19)
Cu3A Cu 0.76918(2) 0.63460(5) 0.80553(2)
Cu3_2 Cu 0.23082(2) 0.63460(5) 0.69447(2)
Cu3A_2 Cu 0.76918(2) 0.63460(5) 1.80553(2)
Eu2_2 Eu 1.0000 0.46988(2) 0.7500
C1C C -0.23541(16) 0.0150(4) 1.22260(16)
H1C H -0.2647 0.0526 1.1906
C2C C -0.15112(17) -0.1014(4) 1.25259(16)
H2C H -0.1210 -0.1459 1.2421
C3C C -0.23872(15) 0.0251(3) 1.28457(15)
H3C H -0.2698 0.0680 1.2938
C4C C -0.15168(17) -0.0949(4) 1.31581(16)
H4C H -0.1224 -0.1350 1.3468
C5C C -0.19547(15) -0.0290(3) 1.33370(15)
C6C C -0.19606(15) -0.0172(3) 1.40186(15)
C7C C -0.24717(15) 0.0085(3) 1.41999(15)
H5C H -0.2826 0.0180 1.3891
C8C C -0.24498(16) 0.0198(3) 1.48390(15)
H6C H -0.2796 0.0362 1.4951
C9C C -0.14641(16) -0.0183(3) 1.51351(16)
H7C H -0.1118 -0.0287 1.5455
C10C C -0.14474(16) -0.0309(3) 1.45087(15)
H8C H -0.1095 -0.0485 1.4412
C11A C 1.06771(14) 0.2418(3) 0.84915(15)
C12A C 1.02148(15) 0.2823(3) 0.88202(15)
C13A C 1.02189(18) 0.2449(4) 0.94339(18)
H9A H 1.0501 0.1888 0.9661
C14A C 0.97934(19) 0.2926(5) 0.97014(18)
H10A H 0.9790 0.2704 1.0116
C15A C 0.93707(17) 0.3741(4) 0.93452(17)
H11A H 0.9081 0.4072 0.9516
C16A C 0.93912(15) 0.4048(4) 0.87290(15)
C17A C 0.89672(15) 0.4945(4) 0.82930(16)
C18A C 0.02662(16) 0.7719(4) 1.80295(18)
C19A C 0.05555(15) 0.6893(4) 1.85961(17)
C20A C 0.0272(2) 0.9033(4) 1.8044(2)
H12A H 0.0458 0.9460 1.8418
C22A C 0.80642(16) 0.6679(4) 0.94158(16)
H14A H 0.8434 0.6721 0.9343
C23A C 0.80219(16) 0.6740(3) 1.00360(15)
H15A H 0.8358 0.6824 1.0372
C24A C 0.74746(15) 0.6675(3) 1.01599(15)
C25A C 0.69924(17) 0.6549(4) 0.96334(16)
H16A H 0.6618 0.6495 0.9691
C26A C 0.70718(17) 0.6505(4) 0.90284(16)
H17A H 0.6742 0.6430 0.8684
C27A C 0.80137(16) 0.6925(4) 1.69092(16)
H18A H 0.8380 0.7055 1.7191
C28A C 0.70422(16) 0.6401(3) 1.67306(16)
H19A H 0.6727 0.6180 1.6889
C29A C 0.79539(15) 0.7088(3) 1.62638(15)
H20A H 0.8273 0.7344 1.6120
C30A C 0.69505(15) 0.6524(3) 1.60789(15)
H21A H 0.6581 0.6379 1.5806
C31A C 0.74170(14) 0.6871(3) 1.58273(15)
C32A C 0.73459(14) 0.6938(3) 1.51252(15)
C33A C 0.78207(15) 0.6700(3) 1.48736(16)
H22A H 0.8190 0.6545 1.5145
C34A C 0.68106(15) 0.7210(3) 1.46928(15)
H23A H 0.6486 0.7398 1.4841
C35A C 0.67641(16) 0.7201(4) 1.40462(16)
H24A H 0.6403 0.7387 1.3765
C36A C 0.77366(16) 0.6697(4) 1.42204(16)
H25A H 0.8056 0.6521 1.4060
C37A C 0.77677(16) 0.6407(3) 1.19521(16)
H26A H 0.8071 0.6145 1.2296
C38A C 0.78519(15) 0.6352(3) 1.13483(15)
H27A H 0.8204 0.6055 1.1291
C39A C 0.74080(15) 0.6741(3) 1.08230(15)
C40A C 0.68954(17) 0.7191(4) 1.09468(16)
H28A H 0.6590 0.7483 1.0613
C41A C 0.68428(18) 0.7204(4) 1.15647(17)
H29A H 0.6494 0.7492 1.1636
C42A C 0.60320(14) 0.5527(3) 1.26425(15)
C43A C 0.55019(14) 0.4707(3) 1.25818(16)
C44A C 0.55206(16) 0.3398(3) 1.2594(2)
H30A H 0.5875 0.2970 1.2664
C46A C 0.59785(14) 1.0105(3) 1.27453(17)
C47A C 0.58434(14) 0.9961(3) 1.20261(17)
C48A C 0.60776(17) 1.0745(4) 1.1641(2)
H32A H 0.6330 1.1402 1.1819
C49A C 0.5929(2) 1.0531(4) 1.0994(2)
H33A H 0.6082 1.1045 1.0728
C50A C 0.55512(18) 0.9547(4) 1.07365(19)
H34A H 0.5450 0.9387 1.0299
C51A C 0.53274(15) 0.8807(3) 1.11464(16)
C52A C 0.49108(16) 0.7712(4) 1.09356(16)
N1C N -0.19193(13) -0.0465(3) 1.20553(13)
N1A N 1.19193(13) 0.0465(3) 0.79447(13)
N2C N -0.19501(13) 0.0082(3) 1.53098(13)
N2B N 1.19501(13) 0.0082(3) 0.96902(13)
N3A N 0.98118(11) 0.3606(3) 0.84788(12)
N3A_2 N -0.01882(11) 0.3606(3) 1.84788(12)
N5A N 0.75943(13) 0.6562(3) 0.89071(13)
N6A N 0.75695(13) 0.6588(3) 1.71507(13)
N6_2 N 0.24305(13) 0.6588(3) 1.78493(13)
N6A_2 N 0.75695(13) 0.6588(3) 0.71507(13)
N7A N 0.72188(13) 0.6934(3) 1.38006(13)
N8A N 0.72726(13) 0.6817(3) 1.20714(13)
N9A N 0.54772(11) 0.9022(3) 1.17791(12)
O1A O 1.10316(11) 0.1592(2) 0.87588(11)
O2A O 1.06609(10) 0.2954(2) 0.79691(10)
O2A_2 O 0.06609(10) 0.2954(2) 1.79691(10)
O3A O 0.05513(11) 0.5712(2) 1.84824(11)
O4A O 0.07790(12) 0.7415(3) 1.91150(12)
O5A O 0.91127(11) 0.5342(2) 0.78119(11)
O5A_2 O -0.08873(11) 0.5342(2) 1.78119(11)
O6A O 0.85022(12) 0.5177(3) 0.84445(13)
O7A O 0.65249(10) 0.5004(2) 1.27520(11)
O8A O 0.59493(9) 0.6718(2) 1.25867(11)
O9A O 0.47629(11) 0.7107(2) 1.13703(11)
O10A O 0.47446(15) 0.7454(3) 1.03507(13)
O11A O 0.56948(11) 0.9371(2) 1.30219(11)
O12A O 0.63429(11) 1.0911(2) 1.30116(13)
O13 O 0.41993(18) 0.4912(5) 0.4947(2)
H35 H 0.4358(19) 0.494(6) 0.5339(6)
H36 H 0.4418(17) 0.465(6) 0.4736(17)
O14 O 0.3934(2) 0.0468(6) 0.06215(19)
H37 H 0.397(2) -0.007(3) 0.0902(17)
H38 H 0.411(2) 0.113(3) 0.075(2)
O15 O 0.4641(3) 0.2739(5) 0.0589(3)
H39 H 0.476(2) 0.270(4) 0.0270(16)
H40 H 0.458(2) 0.344(2) 0.071(2)
O16 O 0.4512(3) 0.4740(7) 0.3807(2)
H41 H 0.4413(18) 0.478(6) 0.4150(14)
H42 H 0.4871(7) 0.488(6) 0.387(2)
loop_
_geom_bond_atom_site_label_1
_geom_bond_atom_site_label_2
_geom_bond_site_symmetry_1
_geom_bond_site_symmetry_2
Cu1 N1 1_555 1_555
Cu2 N7 1_555 1_555
Cu3 N5 1_555 1_555
Eu1 N9 1_555 1_555
Eu2 N3 1_555 1_555
C1 H1 1_555 1_555
C2 H2 1_555 1_555
C3 C1 1_555 1_555
H3 C3 1_555 1_555
C4 C2 1_555 1_555
H4 C4 1_555 1_555
C5 C3 1_555 1_555
C6 C5 1_555 1_555
C7 C6 1_555 1_555
H5 C7 1_555 1_555
C8 C7 1_555 1_555
H6 C8 1_555 1_555
C9 H7 1_555 1_555
C10 C6 1_555 1_555
H8 C10 1_555 1_555
C11 C12 1_555 1_555
C12 C13 1_555 1_555
C13 H9 1_555 1_555
C14 C13 1_555 1_555
H10 C14 1_555 1_555
C15 C14 1_555 1_555
H11 C15 1_555 1_555
C16 C15 1_555 1_555
C17 C16 1_555 1_555
C18 C19 1_555 1_555
C19 O3 1_555 1_555
C20 C18 1_555 1_555
H12 C20 1_555 1_555
C21 C20 1_555 1_555
H13 C21 1_555 1_555
C22 H14 1_555 1_555
C23 C22 1_555 1_555
H15 C23 1_555 1_555
C24 C23 1_555 1_555
C25 C24 1_555 1_555
H16 C25 1_555 1_555
C26 C25 1_555 1_555
H17 C26 1_555 1_555
C27 H18 1_555 1_555
C28 H19 1_555 1_555
C29 C27 1_555 1_555
H20 C29 1_555 1_555
C30 C28 1_555 1_555
H21 C30 1_555 1_555
C31 C29 1_555 1_555
C32 C31 1_555 1_555
C33 C32 1_555 1_555
H22 C33 1_555 1_555
C34 C32 1_555 1_555
H23 C34 1_555 1_555
C35 C34 1_555 1_555
H24 C35 1_555 1_555
C36 C33 1_555 1_555
H25 C36 1_555 1_555
C37 H26 1_555 1_555
C38 C37 1_555 1_555
H27 C38 1_555 1_555
C39 C24 1_555 1_555
C40 C39 1_555 1_555
H28 C40 1_555 1_555
C41 C40 1_555 1_555
H29 C41 1_555 1_555
C42 C43 1_555 1_555
C43 C44 1_555 1_555
C44 H30 1_555 1_555
C45 C44 1_555 1_555
H31 C45 1_555 1_555
C46 C47 1_555 1_555
C47 C48 1_555 1_555
C48 H32 1_555 1_555
C49 C48 1_555 1_555
H33 C49 1_555 1_555
C50 C49 1_555 1_555
H34 C50 1_555 1_555
C51 C50 1_555 1_555
C52 C51 1_555 1_555
N1 C1 1_555 1_555
N2 C8 1_555 1_555
N3 C12 1_555 1_555
N4 Eu2 1_555 1_555
N5 C22 1_555 1_555
N6 C27 1_555 1_555
N7 C35 1_555 1_555
N8 Cu2 1_555 1_555
N9 C47 1_555 1_555
N10 Eu1 1_555 1_555
O1 Cu1 1_555 1_555
O2 Eu2 1_555 1_555
O3 Eu2 1_555 1_555
O4 C19 1_555 1_555
O5 Eu2 1_555 1_555
O6 Cu3 1_555 1_555
O7 Cu2 1_555 1_555
O8 Eu1 1_555 1_555
O9 Eu1 1_555 1_555
O10 C52 1_555 1_555
O11 Eu1 1_555 1_555
O12 C46 1_555 1_555
O13 H35 1_555 1_555
O14 H37 1_555 1_555
O15 H39 1_555 1_555
O16 H41 1_555 1_555
H36 O13 1_555 1_555
H38 O14 1_555 1_555
H40 O15 1_555 1_555
H42 O16 1_555 1_555
Cu1A N1A 1_555 1_555
Cu1C N2 1_555 1_555
Cu1C_2 N1C 1_555 1_555
Cu2A N7A 1_555 1_555
Cu3A N5A 1_555 1_555
Cu3_2 N6 1_555 1_555
Cu3A_2 N6A 1_555 1_555
Eu2_2 N3A 1_555 1_555
C1C H1C 1_555 1_555
C2C H2C 1_555 1_555
C3C C1C 1_555 1_555
H3C C3C 1_555 1_555
C4C C2C 1_555 1_555
H4C C4C 1_555 1_555
C5C C3C 1_555 1_555
C6C C5C 1_555 1_555
C7C C6C 1_555 1_555
H5C C7C 1_555 1_555
C8C C7C 1_555 1_555
H6C C8C 1_555 1_555
C9C H7C 1_555 1_555
C10C C6C 1_555 1_555
H8C C10C 1_555 1_555
C11A C12A 1_555 1_555
C12A C13A 1_555 1_555
C13A H9A 1_555 1_555
C14A C13A 1_555 1_555
H10A C14A 1_555 1_555
C15A C14A 1_555 1_555
H11A C15A 1_555 1_555
C16A C15A 1_555 1_555
C17A C16A 1_555 1_555
C18A N4 1_555 1_555
C19A C18A 1_555 1_555
C20A C21 1_555 1_555
H12A C20A 1_555 1_555
C22A H14A 1_555 1_555
C23A C22A 1_555 1_555
H15A C23A 1_555 1_555
C24A C23A 1_555 1_555
C25A C24A 1_555 1_555
H16A C25A 1_555 1_555
C26A C25A 1_555 1_555
H17A C26A 1_555 1_555
C27A H18A 1_555 1_555
C28A H19A 1_555 1_555
C29A C27A 1_555 1_555
H20A C29A 1_555 1_555
C30A C28A 1_555 1_555
H21A C30A 1_555 1_555
C31A C29A 1_555 1_555
C32A C31A 1_555 1_555
C33A C32A 1_555 1_555
H22A C33A 1_555 1_555
C34A C32A 1_555 1_555
H23A C34A 1_555 1_555
C35A C34A 1_555 1_555
H24A C35A 1_555 1_555
C36A C33A 1_555 1_555
H25A C36A 1_555 1_555
C37A H26A 1_555 1_555
C38A C37A 1_555 1_555
H27A C38A 1_555 1_555
C39A C24A 1_555 1_555
C40A C39A 1_555 1_555
H28A C40A 1_555 1_555
C41A C40A 1_555 1_555
H29A C41A 1_555 1_555
C42A C43A 1_555 1_555
C43A N10 1_555 1_555
C44A C45 1_555 1_555
H30A C44A 1_555 1_555
C46A C47A 1_555 1_555
C47A C48A 1_555 1_555
C48A H32A 1_555 1_555
C49A C48A 1_555 1_555
H33A C49A 1_555 1_555
C50A C49A 1_555 1_555
H34A C50A 1_555 1_555
C51A C50A 1_555 1_555
C52A C51A 1_555 1_555
N1C C1C 1_555 1_555
N2C Cu1 1_555 1_555
N2B Cu1A 1_555 1_555
N3A C12A 1_555 1_555
N3A_2 Eu2 1_555 1_555
N5A C22A 1_555 1_555
N6A C27A 1_555 1_555
N6_2 Cu3 1_555 1_555
N6A_2 Cu3A 1_555 1_555
N7A C35A 1_555 1_555
N8A Cu2A 1_555 1_555
N9A Eu1 1_555 1_555
O1A Cu1A 1_555 1_555
O2A Eu2_2 1_555 1_555
O2A_2 Eu2 1_555 1_555
O3A Eu2 1_555 1_555
O4A C19A 1_555 1_555
O5A Eu2_2 1_555 1_555
O5A_2 Eu2 1_555 1_555
O6A Cu3A 1_555 1_555
O7A Cu2A 1_555 1_555
O8A Eu1 1_555 1_555
O9A Eu1 1_555 1_555
O10A C52A 1_555 1_555
O11A Eu1 1_555 1_555
O12A C46A 1_555 1_555
C2 N1 1_555 1_555
C4 C5 1_555 1_555
C9 C10 1_555 1_555
C9 N2 1_555 1_555
C11 O1 1_555 1_555
C11 O2 1_555 1_555
C16 N3 1_555 1_555
C17 O5 1_555 1_555
C17 O6 1_555 1_555
C18 N4 1_555 1_555
C26 N5 1_555 1_555
C28 N6 1_555 1_555
C30 C31 1_555 1_555
C36 N7 1_555 1_555
C37 N8 1_555 1_555
C38 C39 1_555 1_555
C41 N8 1_555 1_555
C42 O7 1_555 1_555
C42 O8 1_555 1_555
C43 N10 1_555 1_555
C46 O11 1_555 1_555
C51 N9 1_555 1_555
C52 O9 1_555 1_555
C2C N1C 1_555 1_555
C4C C5C 1_555 1_555
C8C N2C 1_555 1_555
C9C C10C 1_555 1_555
C9C N2C 1_555 1_555
C11A O1A 1_555 1_555
C11A O2A 1_555 1_555
C16A N3A 1_555 1_555
C17A O5A 1_555 1_555
C17A O6A 1_555 1_555
C18A C20A 1_555 1_555
C19A O3A 1_555 1_555
C26A N5A 1_555 1_555
C28A N6A 1_555 1_555
C30A C31A 1_555 1_555
C36A N7A 1_555 1_555
C37A N8A 1_555 1_555
C38A C39A 1_555 1_555
C41A N8A 1_555 1_555
C42A O7A 1_555 1_555
C42A O8A 1_555 1_555
C43A C44A 1_555 1_555
C46A O11A 1_555 1_555
C47A N9A 1_555 1_555
C51A N9A 1_555 1_555
C52A O9A 1_555 1_555

#END
