
#######################################################################
#
#                 Cambridge Crystallographic Data Centre
#                                CCDC 
#
#######################################################################
#
# If this CIF has been generated from an entry in the Cambridge 
# Structural Database, then it will include bibliographic, chemical, 
# crystal, experimental, refinement or atomic coordinate data resulting 
# from the CCDC's data processing and validation procedures.
#
#######################################################################

data_VAJPIH
_symmetry_cell_setting           monoclinic
_symmetry_space_group_name_H-M   'P 2/c'
_symmetry_Int_Tables_number      13
_space_group_name_Hall           '-P 2yc'
loop_
_symmetry_equiv_pos_site_id
_symmetry_equiv_pos_as_xyz
1 x,y,z
2 -x,y,1/2-z
3 -x,-y,-z
4 x,-y,1/2+z
_cell_length_a                   23.680(2)
_cell_length_b                   10.56010(12)
_cell_length_c                   21.642(2)
_cell_angle_alpha                90
_cell_angle_beta                 105.406(2)
_cell_angle_gamma                90
_cell_volume                     5217.41
loop_
_atom_site_label
_atom_site_type_symbol
_atom_site_fract_x
_atom_site_fract_y
_atom_site_fract_z
Nd1 Nd 0.0000 0.77869(4) 0.7500
Nd2 Nd 0.5000 0.47141(4) 0.2500
Cu1 Cu 0.21198(4) 0.66932(9) 0.78994(3)
Cu2 Cu 0.26890(4) 0.63341(8) 0.30559(4)
Cu3 Cu 0.68640(4) 0.04710(8) 0.38302(3)
N1 N 0.0483(2) 0.9059(4) 0.6763(2)
N2 N 0.0000 0.5351(6) 0.7500
N3 N 0.4811(2) 0.3598(5) 0.3497(2)
N4 N 0.5000 0.7137(7) 0.2500
N5 N 0.2262(2) 0.6811(5) 0.7066(2)
N6 N 0.2592(2) 0.6555(5) 0.3903(2)
N7 N 0.2212(2) 0.6939(5) 0.8799(2)
N8 N 0.2566(2) 0.6575(5) 1.2151(2)
N9 N 0.6949(2) 0.0093(5) 0.4712(2)
N10 N 0.6921(2) -0.0464(5) 0.7971(2)
O1 O 0.07088(18) 0.9426(4) 0.80102(19)
O2 O 0.13559(19) 1.0965(4) 0.7984(2)
O3 O -0.02375(18) 0.7160(4) 0.63478(19)
O4 O -0.0239(2) 0.7483(5) 0.5335(2)
O5 O 0.09554(16) 0.6701(4) 0.75881(19)
O6 O 0.15230(17) 0.4989(4) 0.77480(19)
O7 O 0.40995(18) 0.5331(4) 0.2826(2)
O8 O 0.3494(2) 0.5144(5) 0.3448(2)
O9 O 0.56631(17) 0.2953(4) 0.29899(18)
O10 O 0.60320(18) 0.1595(4) 0.37862(19)
O11 O 0.44463(19) 0.5772(4) 0.15108(19)
O12 O 0.4213(2) 0.7474(5) 0.0881(2)
C1 C 0.0990(3) 1.0146(6) 0.7730(3)
C2 C 0.0847(3) 1.0001(6) 0.7002(3)
C3 C 0.1073(3) 1.0774(6) 0.6616(3)
H13 H 0.1320 1.1442 0.6791
C4 C 0.0931(3) 1.0548(7) 0.5967(4)
H14 H 0.1082 1.1057 0.5699
C5 C 0.0563(3) 0.9564(7) 0.5721(3)
H15 H 0.0468 0.9387 0.5284
C6 C 0.0336(3) 0.8842(6) 0.6123(3)
C7 C -0.0085(3) 0.7744(6) 0.5915(3)
C8 C 0.1033(3) 0.5518(6) 0.7640(3)
C9 C 0.0501(2) 0.4712(5) 0.7578(3)
C10 C 0.0518(3) 0.3398(6) 0.7590(3)
H16 H 0.0871 0.2965 0.7657
C11 C 0.0000 0.2758(9) 0.7500
H17 H 0.0000 0.1877 0.7500
C12 C 0.3957(3) 0.4919(6) 0.3304(3)
C13 C 0.4390(3) 0.4048(6) 0.3745(3)
C14 C 0.4374(3) 0.3735(7) 0.4357(3)
H18 H 0.4081 0.4059 0.4525
C15 C 0.4795(3) 0.2936(8) 0.4720(3)
H19 H 0.4791 0.2716 0.5135
C16 C 0.5221(3) 0.2472(7) 0.4453(3)
H20 H 0.5507 0.1924 0.4684
C17 C 0.5216(3) 0.2832(6) 0.3837(3)
C18 C 0.5675(3) 0.2422(6) 0.3511(3)
C19 C 0.4442(3) 0.6943(7) 0.1404(3)
C20 C 0.4730(3) 0.7772(6) 0.1973(3)
C21 C 0.4725(3) 0.9064(7) 0.1957(4)
H21 H 0.4538 0.9492 0.1583
C22 C 0.5000 0.9724(10) 0.2500
H22 H 0.5000 1.0605 0.2500
C23 C 0.1840(3) 0.7206(6) 0.6563(3)
H23 H 0.1493 0.7506 0.6633
C24 C 0.1894(3) 0.7190(6) 0.5945(3)
H24 H 0.1587 0.7477 0.5610
C25 C 0.2404(3) 0.6748(6) 0.5822(3)
C26 C 0.2843(3) 0.6357(6) 0.6350(3)
H25 H 0.3194 0.6050 0.6294
C27 C 0.2763(3) 0.6420(6) 0.6959(3)
H26 H 0.3069 0.6181 0.7306
C28 C 0.3058(3) 0.6674(6) 0.4414(3)
H27 H 0.3429 0.6718 0.4345
C29 C 0.3014(3) 0.6734(6) 0.5035(3)
H28 H 0.3350 0.6813 0.5373
C30 C 0.2468(3) 0.6677(5) 0.5158(3)
C31 C 0.1993(3) 0.6559(6) 0.4630(3)
H29 H 0.1618 0.6514 0.4686
C32 C 0.2066(3) 0.6508(7) 0.4023(3)
H30 H 0.1735 0.6438 0.3678
C33 C 0.1764(3) 0.7204(6) 0.9037(3)
H31 H 0.1404 0.7391 0.8754
C34 C 0.1809(3) 0.7216(6) 0.9697(3)
H32 H 0.1484 0.7406 0.9845
C35 C 0.2347(2) 0.6940(5) 1.0127(3)
C36 C 0.2817(3) 0.6702(6) 0.9875(3)
H33 H 0.3187 0.6549 1.0146
C37 C 0.2734(3) 0.6695(6) 0.9219(3)
H34 H 0.3052 0.6513 0.9059
C38 C 0.3011(3) 0.6912(6) 1.1906(3)
H35 H 0.3379 0.7039 1.2188
C39 C 0.2952(3) 0.7079(6) 1.1269(3)
H36 H 0.3271 0.7339 1.1127
C40 C 0.2416(3) 0.6861(5) 1.0831(3)
C41 C 0.1951(3) 0.6529(6) 1.1077(3)
H37 H 0.1580 0.6398 1.0804
C42 C 0.2044(3) 0.6395(6) 1.1732(3)
H38 H 0.1729 0.6168 1.1888
C43 C 0.6460(3) -0.0177(6) 0.4888(3)
H39 H 0.6112 -0.0280 0.4569
C44 C 0.6448(3) -0.0310(6) 0.5519(3)
H40 H 0.6099 -0.0499 0.5618
C45 C 0.6962(3) -0.0159(5) 0.6008(3)
C46 C 0.7469(3) 0.0083(5) 0.5823(3)
H41 H 0.7824 0.0176 0.6132
C47 C 0.7449(3) 0.0185(5) 0.5181(3)
H42 H 0.7797 0.0324 0.5069
C48 C 0.6514(3) -0.1019(6) 0.7499(3)
H43 H 0.6214 -0.1469 0.7603
C49 C 0.6522(3) -0.0950(6) 0.6861(3)
H44 H 0.6231 -0.1358 0.6550
C50 C 0.6953(3) -0.0286(5) 0.6683(3)
C51 C 0.7382(3) 0.0273(6) 0.7176(3)
H45 H 0.7689 0.0720 0.7086
C52 C 0.7345(3) 0.0157(6) 0.7798(3)
H46 H 0.7636 0.0537 0.8119
Nd2_2 Nd -0.5000 0.47141(4) 1.2500
Cu1A Cu -0.21198(4) 0.66932(9) 0.71006(3)
Cu2A Cu -0.26890(4) 0.63341(8) 1.19441(4)
Cu2_2 Cu 0.26890(4) 0.63341(8) 1.30559(4)
Cu2A_2 Cu -0.26890(4) 0.63341(8) 0.19441(4)
Cu3A Cu -0.68640(4) 0.04710(8) 1.11698(3)
Cu3C Cu 0.68640(4) -0.04710(8) 0.88302(3)
Cu3C_2 Cu 0.68640(4) -0.04710(8) -0.11698(3)
N1A N -0.0483(2) 0.9059(4) 0.8237(2)
N3A N -0.4811(2) 0.3598(5) 1.1503(2)
N3A_2 N 0.5189(2) 0.3598(5) 0.1503(2)
N5A N -0.2262(2) 0.6811(5) 0.7934(2)
N6A N -0.2592(2) 0.6555(5) 1.1097(2)
N7A N -0.2212(2) 0.6939(5) 0.6201(2)
N8A N -0.2566(2) 0.6575(5) 0.2849(2)
N8_2 N 0.2566(2) 0.6575(5) 0.2151(2)
N8A_2 N -0.2566(2) 0.6575(5) 1.2849(2)
N9C N 0.6949(2) -0.0093(5) -0.0288(2)
N9A N -0.6949(2) 0.0093(5) 1.0288(2)
N10C N 0.6921(2) 0.0464(5) 0.2971(2)
N10B N -0.6921(2) 0.0464(5) 1.2029(2)
O1A O -0.07088(18) 0.9426(4) 0.69898(19)
O2A O -0.13559(19) 1.0965(4) 0.7016(2)
O3A O 0.02375(18) 0.7160(4) 0.86522(19)
O4A O 0.0239(2) 0.7483(5) 0.9665(2)
O5A O -0.09554(16) 0.6701(4) 0.74119(19)
O6A O -0.15230(17) 0.4989(4) 0.72520(19)
O7A O -0.40995(18) 0.5331(4) 1.2174(2)
O7A_2 O 0.59005(18) 0.5331(4) 0.2174(2)
O8A O -0.3494(2) 0.5144(5) 1.1552(2)
O9A O -0.56631(17) 0.2953(4) 1.20101(18)
O9A_2 O 0.43369(17) 0.2953(4) 0.20101(18)
O10A O -0.60320(18) 0.1595(4) 1.12138(19)
O11A O 0.55537(19) 0.5772(4) 0.34892(19)
O12A O 0.5787(2) 0.7474(5) 0.4119(2)
C1A C -0.0990(3) 1.0146(6) 0.7270(3)
C2A C -0.0847(3) 1.0001(6) 0.7998(3)
C3A C -0.1073(3) 1.0774(6) 0.8384(3)
H13A H -0.1320 1.1442 0.8209
C4A C -0.0931(3) 1.0548(7) 0.9033(4)
H14A H -0.1082 1.1057 0.9301
C5A C -0.0563(3) 0.9564(7) 0.9279(3)
H15A H -0.0468 0.9387 0.9716
C6A C -0.0336(3) 0.8842(6) 0.8877(3)
C7A C 0.0085(3) 0.7744(6) 0.9085(3)
C8A C -0.1033(3) 0.5518(6) 0.7360(3)
C9A C -0.0501(2) 0.4712(5) 0.7422(3)
C10A C -0.0518(3) 0.3398(6) 0.7410(3)
H16A H -0.0871 0.2965 0.7343
C12A C -0.3957(3) 0.4919(6) 1.1696(3)
C13A C -0.4390(3) 0.4048(6) 1.1255(3)
C14A C -0.4374(3) 0.3735(7) 1.0643(3)
H18A H -0.4081 0.4059 1.0475
C15A C -0.4795(3) 0.2936(8) 1.0280(3)
H19A H -0.4791 0.2716 0.9865
C16A C -0.5221(3) 0.2472(7) 1.0547(3)
H20A H -0.5507 0.1924 1.0316
C17A C -0.5216(3) 0.2832(6) 1.1163(3)
C18A C -0.5675(3) 0.2422(6) 1.1489(3)
C19A C 0.5558(3) 0.6943(7) 0.3596(3)
C20A C 0.5270(3) 0.7772(6) 0.3027(3)
C21A C 0.5275(3) 0.9064(7) 0.3043(4)
H21A H 0.5462 0.9492 0.3417
C23A C -0.1840(3) 0.7206(6) 0.8437(3)
H23A H -0.1493 0.7506 0.8367
C24A C -0.1894(3) 0.7190(6) 0.9055(3)
H24A H -0.1587 0.7477 0.9390
C25A C -0.2404(3) 0.6748(6) 0.9178(3)
C26A C -0.2843(3) 0.6357(6) 0.8650(3)
H25A H -0.3194 0.6050 0.8706
C27A C -0.2763(3) 0.6420(6) 0.8041(3)
H26A H -0.3069 0.6181 0.7694
C28A C -0.3058(3) 0.6674(6) 1.0586(3)
H27A H -0.3429 0.6718 1.0655
C29A C -0.3014(3) 0.6734(6) 0.9965(3)
H28A H -0.3350 0.6813 0.9627
C30A C -0.2468(3) 0.6677(5) 0.9842(3)
C31A C -0.1993(3) 0.6559(6) 1.0370(3)
H29A H -0.1618 0.6514 1.0314
C32A C -0.2066(3) 0.6508(7) 1.0977(3)
H30A H -0.1735 0.6438 1.1322
C33A C -0.1764(3) 0.7204(6) 0.5963(3)
H31A H -0.1404 0.7391 0.6246
C34A C -0.1809(3) 0.7216(6) 0.5303(3)
H32A H -0.1484 0.7406 0.5155
C35A C -0.2347(2) 0.6940(5) 0.4873(3)
C36A C -0.2817(3) 0.6702(6) 0.5125(3)
H33A H -0.3187 0.6549 0.4854
C37A C -0.2734(3) 0.6695(6) 0.5781(3)
H34A H -0.3052 0.6513 0.5941
C38A C -0.3011(3) 0.6912(6) 0.3094(3)
H35A H -0.3379 0.7039 0.2812
C39A C -0.2952(3) 0.7079(6) 0.3731(3)
H36A H -0.3271 0.7339 0.3873
C40A C -0.2416(3) 0.6861(5) 0.4169(3)
C41A C -0.1951(3) 0.6529(6) 0.3923(3)
H37A H -0.1580 0.6398 0.4196
C42A C -0.2044(3) 0.6395(6) 0.3268(3)
H38A H -0.1729 0.6168 0.3112
C43C C 0.6460(3) 0.0177(6) -0.0112(3)
H39C H 0.6112 0.0280 -0.0431
C44C C 0.6448(3) 0.0310(6) 0.0519(3)
H40C H 0.6099 0.0499 0.0618
C45C C 0.6962(3) 0.0159(5) 0.1008(3)
C46C C 0.7469(3) -0.0083(5) 0.0823(3)
H41C H 0.7824 -0.0176 0.1132
C47C C 0.7449(3) -0.0185(5) 0.0181(3)
H42C H 0.7797 -0.0324 0.0069
C48C C 0.6514(3) 0.1019(6) 0.2499(3)
H43C H 0.6214 0.1469 0.2603
C49C C 0.6522(3) 0.0950(6) 0.1861(3)
H44C H 0.6231 0.1358 0.1550
C50C C 0.6953(3) 0.0286(5) 0.1683(3)
C51C C 0.7382(3) -0.0273(6) 0.2176(3)
H45C H 0.7689 -0.0720 0.2086
C52C C 0.7345(3) -0.0157(6) 0.2798(3)
H46C H 0.7636 -0.0537 0.3119
O13 O 0.9216(3) 0.4896(7) 0.9954(4)
H1 H 0.9362 0.4203 1.0120
H2 H 0.9287 0.4970 0.9592
O14 O 0.9504(4) 0.5237(8) 0.3817(4)
H3 H 0.9695 0.4582 0.3771
H4 H 0.9745 0.5812 0.3986
O15 O 0.8937(3) 0.9559(7) 0.0652(3)
H5 H 0.9037 0.9840 0.1033
H6 H 0.9133 0.8894 0.0635
O16 O 0.9628(4) 0.7250(7) 0.0600(4)
H7 H 0.9839 0.7471 0.0357
H8 H 0.9472 0.6545 0.0467
O17 O 0.5079(8) 0.9561(17) 0.0704(8)
H9 H 0.4823 0.9018 0.0732
H10 H 0.5008 0.9811 0.0319
O18 O 0.4040(7) 0.7862(15) 0.3578(8)
H11 H 0.4132 0.7201 0.3405
H12 H 0.4350 0.8226 0.3788
H47? H 0.5419 0.9239 0.0822
loop_
_geom_bond_atom_site_label_1
_geom_bond_atom_site_label_2
_geom_bond_site_symmetry_1
_geom_bond_site_symmetry_2
Nd1 N1 1_555 1_555
Nd2 N3 1_555 1_555
Cu1 N5 1_555 1_555
Cu2 N6 1_555 1_555
Cu3 N9 1_555 1_555
N1 C2 1_555 1_555
N2 Nd1 1_555 1_555
N3 C13 1_555 1_555
N4 Nd2 1_555 1_555
N5 C23 1_555 1_555
N6 C28 1_555 1_555
N7 Cu1 1_555 1_555
N8 C38 1_555 1_555
N9 C43 1_555 1_555
N10 C48 1_555 1_555
O1 Nd1 1_555 1_555
O2 C1 1_555 1_555
O3 Nd1 1_555 1_555
O4 C7 1_555 1_555
O5 Nd1 1_555 1_555
O6 Cu1 1_555 1_555
O7 Nd2 1_555 1_555
O8 Cu2 1_555 1_555
O9 Nd2 1_555 1_555
O10 Cu3 1_555 1_555
O11 Nd2 1_555 1_555
O12 C19 1_555 1_555
O13 H1 1_555 1_555
H2 O13 1_555 1_555
O14 H3 1_555 1_555
H4 O14 1_555 1_555
O15 H5 1_555 1_555
H6 O15 1_555 1_555
O16 H7 1_555 1_555
H8 O16 1_555 1_555
O17 H9 1_555 1_555
H10 O17 1_555 1_555
O18 H11 1_555 1_555
H12 O18 1_555 1_555
C1 O1 1_555 1_555
C2 C1 1_555 1_555
C3 C2 1_555 1_555
H13 C3 1_555 1_555
C4 C3 1_555 1_555
H14 C4 1_555 1_555
C5 C4 1_555 1_555
H15 C5 1_555 1_555
C6 N1 1_555 1_555
C7 O3 1_555 1_555
C8 O5 1_555 1_555
C9 N2 1_555 1_555
C10 C9 1_555 1_555
H16 C10 1_555 1_555
C11 C10 1_555 1_555
H17 C11 1_555 1_555
C12 O7 1_555 1_555
C13 C12 1_555 1_555
C14 C13 1_555 1_555
H18 C14 1_555 1_555
C15 C14 1_555 1_555
H19 C15 1_555 1_555
C16 C15 1_555 1_555
H20 C16 1_555 1_555
C17 N3 1_555 1_555
C18 O9 1_555 1_555
C19 O11 1_555 1_555
C20 N4 1_555 1_555
C21 C20 1_555 1_555
H21 C21 1_555 1_555
C22 C21 1_555 1_555
H22 C22 1_555 1_555
C23 H23 1_555 1_555
C24 C23 1_555 1_555
H24 C24 1_555 1_555
C25 C24 1_555 1_555
C26 C25 1_555 1_555
H25 C26 1_555 1_555
C27 N5 1_555 1_555
H26 C27 1_555 1_555
C28 H27 1_555 1_555
C29 C28 1_555 1_555
H28 C29 1_555 1_555
C30 C25 1_555 1_555
C31 C30 1_555 1_555
H29 C31 1_555 1_555
C32 N6 1_555 1_555
H30 C32 1_555 1_555
C33 N7 1_555 1_555
H31 C33 1_555 1_555
C34 C33 1_555 1_555
H32 C34 1_555 1_555
C35 C34 1_555 1_555
C36 C35 1_555 1_555
H33 C36 1_555 1_555
C37 N7 1_555 1_555
H34 C37 1_555 1_555
C38 H35 1_555 1_555
C39 C38 1_555 1_555
H36 C39 1_555 1_555
C40 C35 1_555 1_555
C41 C40 1_555 1_555
H37 C41 1_555 1_555
C42 N8 1_555 1_555
H38 C42 1_555 1_555
C43 H39 1_555 1_555
C44 C43 1_555 1_555
H40 C44 1_555 1_555
C45 C44 1_555 1_555
C46 C45 1_555 1_555
H41 C46 1_555 1_555
C47 N9 1_555 1_555
H42 C47 1_555 1_555
C48 H43 1_555 1_555
C49 C48 1_555 1_555
H44 C49 1_555 1_555
C50 C45 1_555 1_555
C51 C50 1_555 1_555
H45 C51 1_555 1_555
C52 N10 1_555 1_555
H46 C52 1_555 1_555
Nd2_2 N3A 1_555 1_555
Cu1A N5A 1_555 1_555
Cu2A N6A 1_555 1_555
Cu2_2 N8 1_555 1_555
Cu2A_2 N8A 1_555 1_555
Cu3A N9A 1_555 1_555
Cu3C N10 1_555 1_555
Cu3C_2 N9C 1_555 1_555
N1A Nd1 1_555 1_555
N3A C13A 1_555 1_555
N3A_2 Nd2 1_555 1_555
N5A C23A 1_555 1_555
N6A C28A 1_555 1_555
N7A Cu1A 1_555 1_555
N8A C38A 1_555 1_555
N8_2 Cu2 1_555 1_555
N8A_2 Cu2A 1_555 1_555
N9C C43C 1_555 1_555
N10C Cu3 1_555 1_555
N10B Cu3A 1_555 1_555
O1A Nd1 1_555 1_555
O2A C1A 1_555 1_555
O3A Nd1 1_555 1_555
O4A C7A 1_555 1_555
O5A Nd1 1_555 1_555
O6A Cu1A 1_555 1_555
O7A Nd2_2 1_555 1_555
O7A_2 Nd2 1_555 1_555
O8A Cu2A 1_555 1_555
O9A Nd2_2 1_555 1_555
O9A_2 Nd2 1_555 1_555
O10A Cu3A 1_555 1_555
O11A Nd2 1_555 1_555
O12A C19A 1_555 1_555
C1A O1A 1_555 1_555
C2A N1A 1_555 1_555
C3A C2A 1_555 1_555
H13A C3A 1_555 1_555
C4A C3A 1_555 1_555
H14A C4A 1_555 1_555
C5A C4A 1_555 1_555
H15A C5A 1_555 1_555
C6A N1A 1_555 1_555
C7A O3A 1_555 1_555
C8A O5A 1_555 1_555
C9A N2 1_555 1_555
C10A C11 1_555 1_555
H16A C10A 1_555 1_555
C12A O7A 1_555 1_555
C13A C12A 1_555 1_555
C14A C13A 1_555 1_555
H18A C14A 1_555 1_555
C15A C14A 1_555 1_555
H19A C15A 1_555 1_555
C16A C15A 1_555 1_555
H20A C16A 1_555 1_555
C17A N3A 1_555 1_555
C18A O9A 1_555 1_555
C19A O11A 1_555 1_555
C20A N4 1_555 1_555
C21A C22 1_555 1_555
H21A C21A 1_555 1_555
C23A H23A 1_555 1_555
C24A C23A 1_555 1_555
H24A C24A 1_555 1_555
C25A C24A 1_555 1_555
C26A C25A 1_555 1_555
H25A C26A 1_555 1_555
C27A N5A 1_555 1_555
H26A C27A 1_555 1_555
C28A H27A 1_555 1_555
C29A C28A 1_555 1_555
H28A C29A 1_555 1_555
C30A C25A 1_555 1_555
C31A C30A 1_555 1_555
H29A C31A 1_555 1_555
C32A N6A 1_555 1_555
H30A C32A 1_555 1_555
C33A N7A 1_555 1_555
H31A C33A 1_555 1_555
C34A C33A 1_555 1_555
H32A C34A 1_555 1_555
C35A C34A 1_555 1_555
C36A C35A 1_555 1_555
H33A C36A 1_555 1_555
C37A N7A 1_555 1_555
H34A C37A 1_555 1_555
C38A H35A 1_555 1_555
C39A C38A 1_555 1_555
H36A C39A 1_555 1_555
C40A C35A 1_555 1_555
C41A C40A 1_555 1_555
H37A C41A 1_555 1_555
C42A N8A 1_555 1_555
H38A C42A 1_555 1_555
C43C H39C 1_555 1_555
C44C C43C 1_555 1_555
H40C C44C 1_555 1_555
C45C C44C 1_555 1_555
C46C C45C 1_555 1_555
H41C C46C 1_555 1_555
C47C N9C 1_555 1_555
H42C C47C 1_555 1_555
C48C N10C 1_555 1_555
H43C C48C 1_555 1_555
C49C C48C 1_555 1_555
H44C C49C 1_555 1_555
C50C C45C 1_555 1_555
C51C C50C 1_555 1_555
H45C C51C 1_555 1_555
C52C N10C 1_555 1_555
H46C C52C 1_555 1_555
O6 C8 1_555 1_555
O8 C12 1_555 1_555
O10 C18 1_555 1_555
C5 C6 1_555 1_555
C6 C7 1_555 1_555
C8 C9 1_555 1_555
C16 C17 1_555 1_555
C17 C18 1_555 1_555
C19 C20 1_555 1_555
C26 C27 1_555 1_555
C29 C30 1_555 1_555
C31 C32 1_555 1_555
C36 C37 1_555 1_555
C39 C40 1_555 1_555
C41 C42 1_555 1_555
C46 C47 1_555 1_555
C49 C50 1_555 1_555
C51 C52 1_555 1_555
O6A C8A 1_555 1_555
O8A C12A 1_555 1_555
O10A C18A 1_555 1_555
C1A C2A 1_555 1_555
C5A C6A 1_555 1_555
C6A C7A 1_555 1_555
C8A C9A 1_555 1_555
C9A C10A 1_555 1_555
C16A C17A 1_555 1_555
C17A C18A 1_555 1_555
C19A C20A 1_555 1_555
C20A C21A 1_555 1_555
C26A C27A 1_555 1_555
C29A C30A 1_555 1_555
C31A C32A 1_555 1_555
C36A C37A 1_555 1_555
C39A C40A 1_555 1_555
C41A C42A 1_555 1_555
C46C C47C 1_555 1_555
C49C C50C 1_555 1_555
C51C C52C 1_555 1_555

#END
