
#######################################################################
#
#                 Cambridge Crystallographic Data Centre
#                                CCDC 
#
#######################################################################
#
# If this CIF has been generated from an entry in the Cambridge 
# Structural Database, then it will include bibliographic, chemical, 
# crystal, experimental, refinement or atomic coordinate data resulting 
# from the CCDC's data processing and validation procedures.
#
#######################################################################

data_VAJSEG
_symmetry_cell_setting           monoclinic
_symmetry_space_group_name_H-M   'P 21/c'
_symmetry_Int_Tables_number      14
_space_group_name_Hall           '-P 2ybc'
loop_
_symmetry_equiv_pos_site_id
_symmetry_equiv_pos_as_xyz
1 x,y,z
2 -x,1/2+y,1/2-z
3 -x,-y,-z
4 x,1/2-y,1/2+z
_cell_length_a                   15.026(3)
_cell_length_b                   14.484(3)
_cell_length_c                   12.991(3)
_cell_angle_alpha                90
_cell_angle_beta                 115.46(3)
_cell_angle_gamma                90
_cell_volume                     2552.74
loop_
_atom_site_label
_atom_site_type_symbol
_atom_site_fract_x
_atom_site_fract_y
_atom_site_fract_z
Zn1 Zn 0.40754(2) 0.55600(2) 0.45842(3)
C1 C 0.2129(2) 0.6457(2) 0.3215(3)
H1 H 0.2491 0.6813 0.2923
C2 C 0.1122(2) 0.6578(3) 0.2757(3)
H2 H 0.0815 0.7018 0.2180
C3 C 0.0563(2) 0.6045(2) 0.3153(3)
C4 C 0.1080(2) 0.5432(2) 0.4044(3)
H3 H 0.0740 0.5066 0.4356
C5 C 0.2087(2) 0.5366(2) 0.4460(3)
H4 H 0.2421 0.4953 0.5063
C6 C -0.0512(2) 0.6148(3) 0.2660(3)
H5 H -0.0789 0.6688 0.2243
C7 C -0.1117(2) 0.5533(3) 0.2762(3)
H6 H -0.0828 0.4996 0.3177
C8 C -0.2195(2) 0.5602(2) 0.2295(3)
C9 C -0.2725(2) 0.4848(3) 0.2400(4)
H7 H -0.2388 0.4305 0.2752
C10 C -0.3739(2) 0.4884(3) 0.1992(4)
H8 H -0.4080 0.4368 0.2078
C11 C -0.4258(2) 0.5669(2) 0.1459(3)
C12 C -0.3731(2) 0.6415(2) 0.1331(3)
H9 H -0.4070 0.6951 0.0960
C13 C -0.2720(2) 0.6379(2) 0.1741(3)
H10 H -0.2380 0.6891 0.1643
C14 C -0.5320(2) 0.5704(2) 0.1112(3)
H11 H -0.5637 0.5138 0.1078
C15 C -0.5881(2) 0.6454(2) 0.0839(3)
H12 H -0.5583 0.7018 0.0812
C16 C -0.6928(2) 0.6467(2) 0.0578(3)
C17 C -0.7530(2) 0.5692(2) 0.0233(3)
H13 H -0.7269 0.5120 0.0154
C18 C -0.8510(2) 0.5767(2) 0.0008(4)
H14 H -0.8903 0.5233 -0.0217
C19 C -0.8359(2) 0.7299(2) 0.0429(3)
H15 H -0.8642 0.7858 0.0507
C20 C -0.7371(2) 0.7291(2) 0.0668(3)
H16 H -0.6998 0.7837 0.0889
C21 C 0.61295(19) 0.71474(18) 0.3958(2)
C22 C 0.56270(19) 0.78115(18) 0.3151(2)
H17 H 0.4934 0.7821 0.2816
C23 C 0.61408(19) 0.84671(18) 0.2832(2)
C24 C 0.7165(2) 0.84621(19) 0.3358(3)
H18 H 0.7515 0.8914 0.3163
C25 C 0.76750(19) 0.7799(2) 0.4165(3)
C26 C 0.7152(2) 0.71336(19) 0.4456(3)
H19 H 0.7494 0.6674 0.4992
C27 C 0.5562(2) 0.64332(19) 0.4267(2)
C28 C 0.56148(19) 0.91191(19) 0.1872(3)
C29 C 0.8780(2) 0.7771(2) 0.4711(3)
N1 N 0.26167(16) 0.58586(16) 0.4053(2)
N2 N -0.89303(18) 0.6556(2) 0.0094(3)
O1 O 0.46792(14) 0.66012(13) 0.40491(19)
O2 O 0.60236(15) 0.57096(13) 0.4736(2)
O3 O 0.60898(14) 0.98145(13) 0.18066(18)
O4 O 0.47425(13) 0.89174(13) 0.11873(17)
O5 O 0.91706(16) 0.84483(17) 0.4387(3)
H20 H 0.9780 0.8403 0.4705
O6 O 0.92468(16) 0.71739(18) 0.5370(2)
Zn1B Zn 0.59246(2) 0.44400(2) 0.54158(3)
Zn1A Zn 0.59246(2) 1.05600(2) 0.04158(3)
Zn1C Zn 0.40754(2) 0.94400(2) -0.04158(3)
O2B O 0.39764(15) 0.42904(13) 0.5264(2)
O3A O 0.39102(14) 0.48145(13) 0.31934(18)
O4C O 0.47425(13) 0.60826(13) 0.61873(17)
loop_
_geom_bond_atom_site_label_1
_geom_bond_atom_site_label_2
_geom_bond_site_symmetry_1
_geom_bond_site_symmetry_2
Zn1 N1 1_555 1_555
C1 H1 1_555 1_555
C2 C1 1_555 1_555
H2 C2 1_555 1_555
C3 C2 1_555 1_555
C4 C3 1_555 1_555
H3 C4 1_555 1_555
C5 C4 1_555 1_555
H4 C5 1_555 1_555
C6 C3 1_555 1_555
H5 C6 1_555 1_555
C7 C6 1_555 1_555
H6 C7 1_555 1_555
C8 C7 1_555 1_555
C9 C8 1_555 1_555
H7 C9 1_555 1_555
C10 C9 1_555 1_555
H8 C10 1_555 1_555
C11 C10 1_555 1_555
C12 C11 1_555 1_555
H9 C12 1_555 1_555
C13 C8 1_555 1_555
H10 C13 1_555 1_555
C14 C11 1_555 1_555
H11 C14 1_555 1_555
C15 C14 1_555 1_555
H12 C15 1_555 1_555
C16 C15 1_555 1_555
C17 C16 1_555 1_555
H13 C17 1_555 1_555
C18 C17 1_555 1_555
H14 C18 1_555 1_555
C19 H15 1_555 1_555
C20 C16 1_555 1_555
H16 C20 1_555 1_555
C21 C22 1_555 1_555
C22 H17 1_555 1_555
C23 C22 1_555 1_555
C24 C23 1_555 1_555
H18 C24 1_555 1_555
C25 C24 1_555 1_555
C26 C21 1_555 1_555
H19 C26 1_555 1_555
C27 C21 1_555 1_555
C28 C23 1_555 1_555
C29 C25 1_555 1_555
N1 C1 1_555 1_555
N2 C18 1_555 1_555
O1 Zn1 1_555 1_555
O2 C27 1_555 1_555
O3 C28 1_555 1_555
O4 C28 1_555 1_555
O5 C29 1_555 1_555
H20 O5 1_555 1_555
O6 C29 1_555 1_555
Zn1B O2 1_555 1_555
Zn1A O3 1_555 1_555
Zn1C O4 1_555 1_555
O2B Zn1 1_555 1_555
O3A Zn1 1_555 1_555
O4C Zn1 1_555 1_555
C5 N1 1_555 1_555
C12 C13 1_555 1_555
C19 C20 1_555 1_555
C19 N2 1_555 1_555
C25 C26 1_555 1_555
C27 O1 1_555 1_555

#END
