
#######################################################################
#
#                 Cambridge Crystallographic Data Centre
#                                CCDC 
#
#######################################################################
#
# If this CIF has been generated from an entry in the Cambridge 
# Structural Database, then it will include bibliographic, chemical, 
# crystal, experimental, refinement or atomic coordinate data resulting 
# from the CCDC's data processing and validation procedures.
#
#######################################################################

data_VAJSIK
_symmetry_cell_setting           monoclinic
_symmetry_space_group_name_H-M   'C 2/c'
_symmetry_Int_Tables_number      15
_space_group_name_Hall           '-C 2yn'
loop_
_symmetry_equiv_pos_site_id
_symmetry_equiv_pos_as_xyz
1 x,y,z
2 -x,y,1/2-z
3 1/2+x,1/2+y,z
4 1/2-x,1/2+y,1/2-z
5 -x,-y,-z
6 x,-y,1/2+z
7 1/2-x,1/2-y,-z
8 1/2+x,1/2-y,1/2+z
_cell_length_a                   33.118(7)
_cell_length_b                   9.5908(19)
_cell_length_c                   16.897(3)
_cell_angle_alpha                90
_cell_angle_beta                 113.47(3)
_cell_angle_gamma                90
_cell_volume                     4922.95
loop_
_atom_site_label
_atom_site_type_symbol
_atom_site_fract_x
_atom_site_fract_y
_atom_site_fract_z
Zn1 Zn 0.223387(16) 0.49862(5) 0.61105(3)
O1 O 0.22127(10) 0.3022(3) 0.6460(2)
O2 O 0.15146(12) 0.3574(4) 0.6091(3)
O3 O 0.24045(13) -0.2160(4) 0.6264(3)
O4 O 0.20115(11) -0.3617(3) 0.6676(2)
O5 O 0.07680(13) -0.1693(4) 0.7206(3)
O6 O 0.06595(13) 0.0502(4) 0.7177(3)
N1 N 0.18355(12) 0.5227(4) 0.4814(2)
N2 N 0.28415(12) 0.4864(4) 0.6047(2)
N3 N 0.08630(13) -0.0500(5) 0.7108(3)
C1 C 0.14032(17) 0.5418(5) 0.4560(3)
H1 H 0.1290 0.5536 0.4985
C2 C 0.11161(17) 0.5453(6) 0.3712(3)
H2 H 0.0814 0.5604 0.3565
C3 C 0.12739(16) 0.5260(5) 0.3063(3)
C4 C 0.17292(16) 0.5116(5) 0.3336(3)
H3 H 0.1855 0.5024 0.2928
C5 C 0.19919(16) 0.5107(5) 0.4197(3)
H4 H 0.2297 0.5013 0.4365
C6 C 0.09905(17) 0.5216(5) 0.2146(3)
H5 H 0.1130 0.5251 0.1759
C7 C 0.05583(17) 0.5131(5) 0.1808(3)
H6 H 0.0416 0.5109 0.2192
C8 C 0.02793(16) 0.5068(5) 0.0880(3)
C9 C -0.01628(16) 0.4748(5) 0.0620(3)
H7 H -0.0277 0.4583 0.1039
C10 C 0.04390(17) 0.5333(5) 0.0247(3)
H8 H 0.0737 0.5570 0.0409
C11 C 0.30646(16) 0.5967(5) 0.5956(3)
H9 H 0.2959 0.6861 0.6000
C12 C 0.34426(17) 0.5862(5) 0.5801(4)
H10 H 0.3588 0.6674 0.5743
C13 C 0.36088(15) 0.4567(5) 0.5729(3)
C14 C 0.33731(16) 0.3430(5) 0.5826(3)
H11 H 0.3469 0.2523 0.5780
C15 C 0.30035(16) 0.3607(5) 0.5988(3)
H12 H 0.2857 0.2811 0.6062
C16 C 0.40011(15) 0.4369(5) 0.5550(3)
H13 H 0.4086 0.3443 0.5515
C17 C 0.42492(16) 0.5353(5) 0.5432(3)
H14 H 0.4171 0.6279 0.5488
C18 C 0.46347(15) 0.5154(5) 0.5221(3)
C19 C 0.4806(2) 0.3867(6) 0.5184(5)
H15 H 0.4677 0.3070 0.5309
C20 C 0.48342(19) 0.6284(6) 0.5034(4)
H16 H 0.4725 0.7182 0.5053
C21 C 0.17274(14) 0.1291(4) 0.6594(3)
C22 C 0.19836(14) 0.0156(4) 0.6570(3)
H17 H 0.2242 0.0305 0.6479
C23 C 0.18638(14) -0.1195(4) 0.6679(3)
C24 C 0.14960(15) -0.1419(5) 0.6859(3)
H18 H 0.1413 -0.2325 0.6945
C25 C 0.12556(14) -0.0278(5) 0.6908(3)
C26 C 0.13579(15) 0.1070(5) 0.6767(3)
H19 H 0.1180 0.1822 0.6788
C27 C 0.18260(15) 0.2741(4) 0.6383(3)
C28 C 0.21211(15) -0.2410(5) 0.6538(3)
Zn1_2 Zn 0.223387(16) 1.49862(5) 0.61105(3)
Zn1_3 Zn 0.223387(16) -0.50138(5) 0.61105(3)
Zn1D Zn -0.223387(16) 0.50138(5) -0.61105(3)
Zn1D_2 Zn 0.776613(16) 0.50138(5) 0.38895(3)
O1_2 O 0.22127(10) 1.3022(3) 0.6460(2)
O2_2 O 0.15146(12) 1.3574(4) 0.6091(3)
O3_2 O 0.24045(13) 0.7840(4) 0.6264(3)
O4_2 O 0.20115(11) 0.6383(3) 0.6676(2)
O4_3 O 0.20115(11) 1.6383(3) 0.6676(2)
O5_2 O 0.07680(13) 0.8307(4) 0.7206(3)
O6_2 O 0.06595(13) 1.0502(4) 0.7177(3)
N1D N -0.18355(12) 0.4773(4) -0.4814(2)
N1_2 N 0.18355(12) 1.5227(4) 0.4814(2)
N2D N 0.71585(12) 0.5136(4) 0.3953(2)
N2_2 N 0.28415(12) 1.4864(4) 0.6047(2)
N3_2 N 0.08630(13) 0.9500(5) 0.7108(3)
C1D C -0.14032(17) 0.4582(5) -0.4560(3)
H1D H -0.1290 0.4464 -0.4985
C2D C -0.11161(17) 0.4547(6) -0.3712(3)
H2D H -0.0814 0.4396 -0.3565
C3D C -0.12739(16) 0.4740(5) -0.3063(3)
C4D C -0.17292(16) 0.4884(5) -0.3336(3)
H3D H -0.1855 0.4976 -0.2928
C5D C -0.19919(16) 0.4893(5) -0.4197(3)
H4D H -0.2297 0.4987 -0.4365
C6D C -0.09905(17) 0.4784(5) -0.2146(3)
H5D H -0.1130 0.4749 -0.1759
C7D C -0.05583(17) 0.4869(5) -0.1808(3)
H6D H -0.0416 0.4891 -0.2192
C8D C -0.02793(16) 0.4932(5) -0.0880(3)
C9D C 0.01628(16) 0.5252(5) -0.0620(3)
H7D H 0.0277 0.5417 -0.1039
C10D C -0.04390(17) 0.4667(5) -0.0247(3)
H8D H -0.0737 0.4430 -0.0409
C11D C 0.69354(16) 0.4033(5) 0.4044(3)
H9D H 0.7041 0.3139 0.4000
C12D C 0.65574(17) 0.4138(5) 0.4199(4)
H10D H 0.6412 0.3326 0.4257
C13D C 0.63912(15) 0.5433(5) 0.4271(3)
C14D C 0.66269(16) 0.6570(5) 0.4174(3)
H11D H 0.6531 0.7477 0.4220
C15D C 0.69965(16) 0.6393(5) 0.4012(3)
H12D H 0.7143 0.7189 0.3938
C16D C 0.59989(15) 0.5631(5) 0.4450(3)
H13D H 0.5914 0.6557 0.4485
C17D C 0.57508(16) 0.4647(5) 0.4568(3)
H14D H 0.5829 0.3721 0.4512
C18D C 0.53653(15) 0.4846(5) 0.4779(3)
C19D C 0.5194(2) 0.6133(6) 0.4816(5)
H15D H 0.5323 0.6930 0.4691
C20D C 0.51658(19) 0.3716(6) 0.4966(4)
H16D H 0.5275 0.2818 0.4947
C21_2 C 0.17274(14) 1.1291(4) 0.6594(3)
C22_2 C 0.19836(14) 1.0156(4) 0.6570(3)
H17_2 H 0.2242 1.0305 0.6479
C23_2 C 0.18638(14) 0.8805(4) 0.6679(3)
C24_2 C 0.14960(15) 0.8581(5) 0.6859(3)
H18_2 H 0.1413 0.7675 0.6945
C25_2 C 0.12556(14) 0.9722(5) 0.6908(3)
C26_2 C 0.13579(15) 1.1070(5) 0.6767(3)
H19_2 H 0.1180 1.1822 0.6788
C27_2 C 0.18260(15) 1.2741(4) 0.6383(3)
C28_2 C 0.21211(15) 0.7590(5) 0.6538(3)
O7 O 0.0000 -0.2750(8) 0.7500
H20 H -0.0211 -0.2301 0.7545
H20A H 0.0211 -0.2301 0.7455
O8 O 0.0000 0.2466(11) 0.7500
H21 H -0.0181 0.2063 0.7657
H21A H 0.0181 0.2063 0.7343
loop_
_geom_bond_atom_site_label_1
_geom_bond_atom_site_label_2
_geom_bond_site_symmetry_1
_geom_bond_site_symmetry_2
Zn1 O1 1_555 1_555
O1 C27 1_555 1_555
O2 C27 1_555 1_555
O3 C28 1_555 1_555
O4 C28 1_555 1_555
O5 N3 1_555 1_555
O6 N3 1_555 1_555
N1 Zn1 1_555 1_555
N2 Zn1 1_555 1_555
N3 C25 1_555 1_555
C1 N1 1_555 1_555
H1 C1 1_555 1_555
C2 C1 1_555 1_555
H2 C2 1_555 1_555
C3 C2 1_555 1_555
C4 C3 1_555 1_555
H3 C4 1_555 1_555
C5 N1 1_555 1_555
H4 C5 1_555 1_555
C6 C3 1_555 1_555
H5 C6 1_555 1_555
C7 C6 1_555 1_555
H6 C7 1_555 1_555
C8 C7 1_555 1_555
C9 C8 1_555 1_555
H7 C9 1_555 1_555
C10 C8 1_555 1_555
H8 C10 1_555 1_555
C11 N2 1_555 1_555
H9 C11 1_555 1_555
C12 C11 1_555 1_555
H10 C12 1_555 1_555
C13 C12 1_555 1_555
C14 C13 1_555 1_555
H11 C14 1_555 1_555
C15 N2 1_555 1_555
H12 C15 1_555 1_555
C16 C13 1_555 1_555
H13 C16 1_555 1_555
C17 C16 1_555 1_555
H14 C17 1_555 1_555
C18 C17 1_555 1_555
C19 C18 1_555 1_555
H15 C19 1_555 1_555
C20 C18 1_555 1_555
H16 C20 1_555 1_555
C21 C22 1_555 1_555
C22 H17 1_555 1_555
C23 C22 1_555 1_555
C24 C23 1_555 1_555
H18 C24 1_555 1_555
C25 C24 1_555 1_555
C26 C21 1_555 1_555
H19 C26 1_555 1_555
C27 C21 1_555 1_555
C28 C23 1_555 1_555
O7 H20 1_555 1_555
O8 H21 1_555 1_555
Zn1_2 O1_2 1_555 1_555
Zn1_3 O4 1_555 1_555
Zn1D N1D 1_555 1_555
Zn1D_2 N2D 1_555 1_555
O1_2 C27_2 1_555 1_555
O2_2 C27_2 1_555 1_555
O3_2 C28_2 1_555 1_555
O4_2 Zn1 1_555 1_555
O4_3 Zn1_2 1_555 1_555
O5_2 N3_2 1_555 1_555
O6_2 N3_2 1_555 1_555
N1D C1D 1_555 1_555
N1_2 Zn1_2 1_555 1_555
N2D C11D 1_555 1_555
N2_2 Zn1_2 1_555 1_555
N3_2 C25_2 1_555 1_555
C1D H1D 1_555 1_555
C2D C1D 1_555 1_555
H2D C2D 1_555 1_555
C3D C2D 1_555 1_555
C4D C3D 1_555 1_555
H3D C4D 1_555 1_555
C5D N1D 1_555 1_555
H4D C5D 1_555 1_555
C6D C3D 1_555 1_555
H5D C6D 1_555 1_555
C7D C6D 1_555 1_555
H6D C7D 1_555 1_555
C8D C7D 1_555 1_555
C9D C10 1_555 1_555
H7D C9D 1_555 1_555
C10D C9 1_555 1_555
H8D C10D 1_555 1_555
C11D H9D 1_555 1_555
C12D C11D 1_555 1_555
H10D C12D 1_555 1_555
C13D C12D 1_555 1_555
C14D C13D 1_555 1_555
H11D C14D 1_555 1_555
C15D N2D 1_555 1_555
H12D C15D 1_555 1_555
C16D C13D 1_555 1_555
H13D C16D 1_555 1_555
C17D C16D 1_555 1_555
H14D C17D 1_555 1_555
C18D C17D 1_555 1_555
C19D C20 1_555 1_555
H15D C19D 1_555 1_555
C20D C19 1_555 1_555
H16D C20D 1_555 1_555
C21_2 C22_2 1_555 1_555
C22_2 H17_2 1_555 1_555
C23_2 C22_2 1_555 1_555
C24_2 C23_2 1_555 1_555
H18_2 C24_2 1_555 1_555
C25_2 C24_2 1_555 1_555
C26_2 C21_2 1_555 1_555
H19_2 C26_2 1_555 1_555
C27_2 C21_2 1_555 1_555
C28_2 O4_2 1_555 1_555
H20A O7 1_555 1_555
H21A O8 1_555 1_555
C4 C5 1_555 1_555
C14 C15 1_555 1_555
C25 C26 1_555 1_555
C4D C5D 1_555 1_555
C8D C9D 1_555 1_555
C8D C10D 1_555 1_555
C14D C15D 1_555 1_555
C18D C19D 1_555 1_555
C18D C20D 1_555 1_555
C23_2 C28_2 1_555 1_555
C25_2 C26_2 1_555 1_555

#END
