
#######################################################################
#
#                 Cambridge Crystallographic Data Centre
#                                CCDC 
#
#######################################################################
#
# If this CIF has been generated from an entry in the Cambridge 
# Structural Database, then it will include bibliographic, chemical, 
# crystal, experimental, refinement or atomic coordinate data resulting 
# from the CCDC's data processing and validation procedures.
#
#######################################################################

data_VAJSAC
_symmetry_cell_setting           triclinic
_symmetry_space_group_name_H-M   'P -1'
_symmetry_Int_Tables_number      2
_space_group_name_Hall           '-P 1'
loop_
_symmetry_equiv_pos_site_id
_symmetry_equiv_pos_as_xyz
1 x,y,z
2 -x,-y,-z
_cell_length_a                   9.6852(19)
_cell_length_b                   10.650(2)
_cell_length_c                   12.977(3)
_cell_angle_alpha                112.61(3)
_cell_angle_beta                 90.52(3)
_cell_angle_gamma                104.61(3)
_cell_volume                     1187.26
loop_
_atom_site_label
_atom_site_type_symbol
_atom_site_fract_x
_atom_site_fract_y
_atom_site_fract_z
Zn1 Zn 0.73857(3) 0.40908(3) 0.34875(2)
C1 C 0.5519(2) 0.3048(3) 0.4896(2)
H1 H 0.4917 0.3457 0.4634
C2 C 0.5031(3) 0.2440(3) 0.5626(2)
H2 H 0.4112 0.2440 0.5854
C3 C 0.5885(3) 0.1820(3) 0.6034(2)
C4 C 0.7216(3) 0.1852(3) 0.5649(2)
H3 H 0.7828 0.1432 0.5887
C5 C 0.7649(3) 0.2491(3) 0.4923(2)
H4 H 0.8567 0.2511 0.4687
C6 C 0.5437(3) 0.1160(3) 0.6827(2)
H5 H 0.5889 0.0494 0.6871
C7 C 0.4438(3) 0.1454(3) 0.7476(2)
H6 H 0.4026 0.2137 0.7414
C8 C 0.3873(3) 0.0862(3) 0.8288(2)
C9 C 0.2976(3) 0.1494(3) 0.9008(2)
H7 H 0.2783 0.2304 0.8980
C10 C 0.2355(3) 0.0974(3) 0.9765(2)
H8 H 0.1764 0.1440 1.0254
C11 C 0.2599(3) -0.0250(3) 0.9809(2)
C12 C 0.3500(3) -0.0902(3) 0.9078(2)
H9 H 0.3672 -0.1725 0.9093
C13 C 0.4141(3) -0.0355(3) 0.8334(2)
H10 H 0.4757 -0.0798 0.7858
C14 C 0.1926(3) -0.0859(3) 1.0578(2)
H11 H 0.1981 -0.1773 1.0457
C15 C 0.1247(3) -0.0244(3) 1.1429(2)
H12 H 0.1252 0.0695 1.1583
C16 C 0.0491(3) -0.0888(3) 1.2148(2)
C17 C -0.0090(3) -0.0098(3) 1.3069(2)
H13 H 0.0026 0.0868 1.3248
C18 C -0.0835(3) -0.0734(3) 1.3720(2)
H14 H -0.1220 -0.0174 1.4335
C19 C -0.0504(3) -0.2846(3) 1.2637(2)
H15 H -0.0653 -0.3814 1.2469
C20 C 0.0260(3) -0.2307(3) 1.1937(2)
H16 H 0.0620 -0.2897 1.1322
C21 C 0.3806(2) 0.4422(2) 0.18865(18)
C22 C 0.2681(2) 0.4028(2) 0.24599(18)
H17 H 0.2847 0.3737 0.3036
C23 C 0.1308(2) 0.4069(2) 0.21743(18)
C24 C 0.1066(2) 0.4464(3) 0.12980(19)
H18 H 0.0130 0.4444 0.1079
C25 C 0.2192(2) 0.4887(3) 0.07461(19)
C26 C 0.3566(2) 0.4891(3) 0.10574(19)
H19 H 0.4339 0.5214 0.0706
C27 C 0.5314(2) 0.4388(3) 0.21593(19)
C28 C 0.0104(2) 0.3758(2) 0.28462(19)
N1 N 0.6820(2) 0.3090(2) 0.45333(16)
N2 N -0.1044(2) -0.2097(2) 1.35311(17)
O1 O 0.7909(2) 0.6136(2) 0.45895(17)
H20 H 0.845(4) 0.623(3) 0.508(3)
H21 H 0.820(4) 0.668(4) 0.433(3)
O2 O 0.54585(16) 0.38659(19) 0.28759(14)
O3 O 0.63018(17) 0.4868(2) 0.17077(16)
O4 O -0.10924(16) 0.38952(18) 0.25476(14)
O5 O 0.02973(16) 0.3426(2) 0.36375(14)
O6 O 0.19032(17) 0.5325(2) -0.00748(14)
H22 H 0.2650 0.5529 -0.0355
Zn1_2 Zn -0.26143(3) 0.40908(3) 0.34875(2)
O4_2 O 0.89076(16) 0.38952(18) 0.25476(14)
loop_
_geom_bond_atom_site_label_1
_geom_bond_atom_site_label_2
_geom_bond_site_symmetry_1
_geom_bond_site_symmetry_2
Zn1 N1 1_555 1_555
C1 H1 1_555 1_555
C2 C1 1_555 1_555
H2 C2 1_555 1_555
C3 C2 1_555 1_555
C4 C3 1_555 1_555
H3 C4 1_555 1_555
C5 C4 1_555 1_555
H4 C5 1_555 1_555
C6 C3 1_555 1_555
H5 C6 1_555 1_555
C7 C6 1_555 1_555
H6 C7 1_555 1_555
C8 C7 1_555 1_555
C9 C8 1_555 1_555
H7 C9 1_555 1_555
C10 C9 1_555 1_555
H8 C10 1_555 1_555
C11 C10 1_555 1_555
C12 C11 1_555 1_555
H9 C12 1_555 1_555
C13 C8 1_555 1_555
H10 C13 1_555 1_555
C14 C11 1_555 1_555
H11 C14 1_555 1_555
C15 C14 1_555 1_555
H12 C15 1_555 1_555
C16 C15 1_555 1_555
C17 C16 1_555 1_555
H13 C17 1_555 1_555
C18 C17 1_555 1_555
H14 C18 1_555 1_555
C19 H15 1_555 1_555
C20 C16 1_555 1_555
H16 C20 1_555 1_555
C21 C22 1_555 1_555
C22 H17 1_555 1_555
C23 C22 1_555 1_555
C24 C23 1_555 1_555
H18 C24 1_555 1_555
C25 C24 1_555 1_555
C26 C21 1_555 1_555
H19 C26 1_555 1_555
C27 C21 1_555 1_555
C28 C23 1_555 1_555
N1 C1 1_555 1_555
N2 C18 1_555 1_555
O1 Zn1 1_555 1_555
H20 O1 1_555 1_555
H21 O1 1_555 1_555
O2 Zn1 1_555 1_555
O3 C27 1_555 1_555
O4 C28 1_555 1_555
O5 C28 1_555 1_555
O6 C25 1_555 1_555
H22 O6 1_555 1_555
Zn1_2 O4 1_555 1_555
O4_2 Zn1 1_555 1_555
C5 N1 1_555 1_555
C12 C13 1_555 1_555
C19 C20 1_555 1_555
C19 N2 1_555 1_555
C25 C26 1_555 1_555
C27 O2 1_555 1_555

#END
