
#######################################################################
#
#                 Cambridge Crystallographic Data Centre
#                                CCDC 
#
#######################################################################
#
# If this CIF has been generated from an entry in the Cambridge 
# Structural Database, then it will include bibliographic, chemical, 
# crystal, experimental, refinement or atomic coordinate data resulting 
# from the CCDC's data processing and validation procedures.
#
#######################################################################

data_VAJTAD
_symmetry_cell_setting           monoclinic
_symmetry_space_group_name_H-M   'C 2/c'
_symmetry_Int_Tables_number      15
_space_group_name_Hall           '-C 2yn'
loop_
_symmetry_equiv_pos_site_id
_symmetry_equiv_pos_as_xyz
1 x,y,z
2 -x,y,1/2-z
3 1/2+x,1/2+y,z
4 1/2-x,1/2+y,1/2-z
5 -x,-y,-z
6 x,-y,1/2+z
7 1/2-x,1/2-y,-z
8 1/2+x,1/2-y,1/2+z
_cell_length_a                   11.551(14)
_cell_length_b                   19.65(2)
_cell_length_c                   12.340(16)
_cell_angle_alpha                90
_cell_angle_beta                 102.913(18)
_cell_angle_gamma                90
_cell_volume                     2730.06
loop_
_atom_site_label
_atom_site_type_symbol
_atom_site_fract_x
_atom_site_fract_y
_atom_site_fract_z
Zn1 Zn 0.5000 0.90547(10) 0.7500
O1 O 0.6212(8) 0.9377(5) 0.8812(7)
O2 O 0.6565(8) 1.0051(5) 0.7523(8)
S1 S 1.0257(3) 1.14813(19) 1.1762(3)
C1 C 0.6748(11) 0.9832(8) 0.8481(11)
N1 N 0.9246(6) 1.1006(3) 0.9821(7)
C2 C 0.8454(7) 1.0628(4) 0.9035(5)
H1 H 0.8425 1.0690 0.8282
C3 C 0.7707(6) 1.0159(4) 0.9374(7)
C4 C 0.7751(7) 1.0067(3) 1.0499(8)
H2 H 0.7251 0.9753 1.0726
C5 C 0.8543(8) 1.0445(4) 1.1286(5)
H3 H 0.8572 1.0383 1.2039
C6 C 0.9290(6) 1.0914(4) 1.0947(7)
N2 N 0.4115(6) 0.8459(3) 0.8415(6)
C7 C 0.3303(7) 0.7976(4) 0.7888(4)
H4 H 0.3186 0.7909 0.7125
C8 C 0.2666(6) 0.7592(3) 0.8501(7)
H5 H 0.2122 0.7268 0.8148
C9 C 0.2840(6) 0.7691(4) 0.9641(7)
C10 C 0.3652(7) 0.8175(4) 1.0168(4)
H6 H 0.3768 0.8241 1.0931
C11 C 0.4289(6) 0.8559(3) 0.9555(6)
H7 H 0.4832 0.8882 0.9908
Zn1_2 Zn 1.5000 0.90547(10) 1.7500
Zn1F Zn 0.0000 0.59453(10) 1.2500
O1A O 1.3788(8) 0.9377(5) 1.6188(7)
O1A_2 O 0.3788(8) 0.9377(5) 0.6188(7)
O2A O 1.3435(8) 1.0051(5) 1.7477(8)
S1A S 0.9743(3) 1.14813(19) 1.3238(3)
C1A C 1.3252(11) 0.9832(8) 1.6519(11)
N1A N 1.0754(6) 1.1006(3) 1.5179(7)
C2A C 1.1546(7) 1.0628(4) 1.5965(5)
H1A H 1.1575 1.0690 1.6718
C3A C 1.2293(6) 1.0159(4) 1.5626(7)
C4A C 1.2249(7) 1.0067(3) 1.4501(8)
H2A H 1.2749 0.9753 1.4274
C5A C 1.1457(8) 1.0445(4) 1.3714(5)
H3A H 1.1428 1.0383 1.2961
C6A C 1.0710(6) 1.0914(4) 1.4053(7)
N2F N 0.0885(6) 0.6541(3) 1.1585(6)
N2A N 0.5885(6) 0.8459(3) 0.6585(6)
C7F C 0.1697(7) 0.7024(4) 1.2112(4)
H4F H 0.1814 0.7091 1.2875
C8F C 0.2334(6) 0.7408(3) 1.1499(7)
H5F H 0.2878 0.7732 1.1852
C9F C 0.2160(6) 0.7309(4) 1.0359(7)
C10F C 0.1348(7) 0.6825(4) 0.9832(4)
H6F H 0.1232 0.6759 0.9069
C11F C 0.0711(6) 0.6441(3) 1.0445(6)
H7F H 0.0168 0.6118 1.0092
O3 O 0.8976(12) 0.6370(6) 0.7947(9)
H10 H 0.8636 0.6548 0.8437
H11 H 0.8786 0.5999 0.7827
O4 O 0.5591(15) 0.6627(10) 0.8346(17)
H8 H 0.5287 0.6557 0.8918
H9 H 0.5399 0.6878 0.7827
O5 O 0.7931(14) 0.6914(8) 0.9505(13)
H12 H 0.8141 0.6603 0.9922
H13 H 0.7237 0.6872 0.9240
H14? H 0.5476 0.6650 0.9259
H15? H 0.5703 0.6901 0.8380
O6? O 0.593(2) 0.6897(11) 0.904(2)
loop_
_geom_bond_atom_site_label_1
_geom_bond_atom_site_label_2
_geom_bond_site_symmetry_1
_geom_bond_site_symmetry_2
Zn1 O1 1_555 1_555
O1 C1 1_555 1_555
O2 C1 1_555 1_555
S1 C6 1_555 1_555
C1 C3 1_555 1_555
N1 C2 1_555 1_555
C2 H1 1_555 1_555
C3 C2 1_555 1_555
C4 C3 1_555 1_555
H2 C4 1_555 1_555
C5 C4 1_555 1_555
H3 C5 1_555 1_555
C6 N1 1_555 1_555
N2 Zn1 1_555 1_555
C7 N2 1_555 1_555
H4 C7 1_555 1_555
C8 C7 1_555 1_555
H5 C8 1_555 1_555
C9 C8 1_555 1_555
C10 C9 1_555 1_555
H6 C10 1_555 1_555
C11 N2 1_555 1_555
H7 C11 1_555 1_555
O3 H10 1_555 1_555
O4 H8 1_555 1_555
H9 O4 1_555 1_555
O5 H12 1_555 1_555
H11 O3 1_555 1_555
H13 O5 1_555 1_555
Zn1_2 O1A 1_555 1_555
Zn1F N2F 1_555 1_555
O1A C1A 1_555 1_555
O1A_2 Zn1 1_555 1_555
O2A C1A 1_555 1_555
S1A S1 1_555 1_555
C1A C3A 1_555 1_555
N1A C2A 1_555 1_555
C2A H1A 1_555 1_555
C3A C2A 1_555 1_555
C4A C3A 1_555 1_555
H2A C4A 1_555 1_555
C5A C4A 1_555 1_555
H3A C5A 1_555 1_555
C6A S1A 1_555 1_555
N2F C7F 1_555 1_555
N2A Zn1 1_555 1_555
C7F H4F 1_555 1_555
C8F C7F 1_555 1_555
H5F C8F 1_555 1_555
C9F C9 1_555 1_555
C10F C9F 1_555 1_555
H6F C10F 1_555 1_555
C11F N2F 1_555 1_555
H7F C11F 1_555 1_555
C5 C6 1_555 1_555
C10 C11 1_555 1_555
N1A C6A 1_555 1_555
C5A C6A 1_555 1_555
C8F C9F 1_555 1_555
C10F C11F 1_555 1_555

#END
