
#######################################################################
#
#                 Cambridge Crystallographic Data Centre
#                                CCDC 
#
#######################################################################
#
# If this CIF has been generated from an entry in the Cambridge 
# Structural Database, then it will include bibliographic, chemical, 
# crystal, experimental, refinement or atomic coordinate data resulting 
# from the CCDC's data processing and validation procedures.
#
#######################################################################

data_VAJTOR
_symmetry_cell_setting           triclinic
_symmetry_space_group_name_H-M   'P -1'
_symmetry_Int_Tables_number      2
_space_group_name_Hall           '-P 1'
loop_
_symmetry_equiv_pos_site_id
_symmetry_equiv_pos_as_xyz
1 x,y,z
2 -x,-y,-z
_cell_length_a                   7.5515(3)
_cell_length_b                   11.1038(5)
_cell_length_c                   16.2388(7)
_cell_angle_alpha                108.814(1)
_cell_angle_beta                 92.037(1)
_cell_angle_gamma                97.010(1)
_cell_volume                     1275.17
loop_
_atom_site_label
_atom_site_type_symbol
_atom_site_fract_x
_atom_site_fract_y
_atom_site_fract_z
Cu1 Cu 0.47458(4) 0.15131(3) 0.189300(18)
S1 S -0.08586(9) 0.50501(6) 0.71399(4)
S2 S -0.21838(9) 0.40935(7) 0.59621(4)
N1 N 0.1213(3) 0.3726(2) 0.55817(15)
N2 N 0.0194(3) 0.4324(2) 0.84107(14)
N3 N 0.4852(3) -0.02684(19) 0.19326(13)
N4 N 0.4954(3) -0.66508(18) 0.19130(13)
O1 O 0.0930(2) 0.01512(17) 0.84654(12)
O2 O 0.1244(2) 0.18093(18) 0.97158(12)
O3 O 0.2894(2) 0.18132(17) 0.27102(11)
O4 O 0.4973(3) 0.2412(3) 0.38099(15)
C1 C -0.0477(3) 0.3555(3) 0.52533(17)
C2 C -0.1053(3) 0.2951(3) 0.43835(18)
H1 H -0.2279 0.2856 0.4188
C3 C 0.0197(3) 0.2490(3) 0.38047(17)
H2 H -0.0156 0.2059 0.3203
C4 C 0.1981(3) 0.2669(2) 0.41181(17)
C5 C 0.2405(3) 0.3289(3) 0.50033(17)
H3 H 0.3625 0.3414 0.5216
C6 C 0.3401(3) 0.2266(2) 0.35147(17)
C7 C -0.0472(3) 0.3823(2) 0.75798(16)
C8 C -0.0761(3) 0.2514(3) 0.71218(17)
H4 H -0.1238 0.2198 0.6530
C9 C -0.0335(3) 0.1682(2) 0.75500(17)
H5 H -0.0514 0.0781 0.7255
C10 C 0.0358(3) 0.2176(2) 0.84182(16)
C11 C 0.0589(3) 0.3497(2) 0.88150(16)
H6 H 0.1055 0.3839 0.9408
C12 C 0.0889(3) 0.1303(2) 0.89081(17)
C13 C 0.4480(4) -0.1264(2) 0.11975(17)
H7 H 0.4157 -0.1106 0.0675
C14 C 0.4544(4) -0.2517(2) 0.11637(16)
H8 H 0.4273 -0.3200 0.0625
C15 C 0.5006(3) -0.2778(2) 0.19201(15)
C16 C 0.5384(4) -0.1738(2) 0.26837(18)
H9 H 0.5697 -0.1868 0.3217
C17 C 0.5302(4) -0.0507(2) 0.26633(18)
H10 H 0.5576 0.0197 0.3190
C18 C 0.5037(3) -0.4116(2) 0.19139(15)
C19 C 0.4153(3) -0.5156(2) 0.12347(16)
H11 H 0.3554 -0.5016 0.0756
C20 C 0.4142(3) -0.6387(2) 0.12532(16)
H12 H 0.3535 -0.7081 0.0779
C21 C 0.5832(3) -0.5657(2) 0.25658(16)
H13 H 0.6428 -0.5826 0.3033
C22 C 0.5910(3) -0.4393(2) 0.25875(16)
H14 H 0.6556 -0.3718 0.3060
O5 O 0.2375(2) 0.07136(17) 0.08802(12)
O7 O 0.6774(2) 0.12787(17) 0.11710(13)
H15 H 0.2082 0.1144 0.0606
H16 H 0.7309 0.1784 0.0980
H17 H 0.7482 0.0795 0.1162
H18 H 0.1458 0.0584 0.1103
Cu1_2 Cu 0.47458(4) -0.84869(3) 0.189300(18)
N4_2 N 0.4954(3) 0.33492(18) 0.19130(13)
O6 O 0.1509(2) 0.69514(17) 0.94042(12)
H19 H 0.1037 0.6277 0.9064
H20 H 0.0736 0.7290 0.9681
O8 O 0.4759(10) 0.9022(8) 0.4884(5)
H21 H 0.4809 0.8758 0.5286
H22 H 0.4313 0.8501 0.4436
O9 O 0.715(3) 0.003(2) 0.5117(14)
O10? O 1.0000 0.0000 0.5000
loop_
_geom_bond_atom_site_label_1
_geom_bond_atom_site_label_2
_geom_bond_site_symmetry_1
_geom_bond_site_symmetry_2
Cu1 N3 1_555 1_555
S1 S2 1_555 1_555
S2 C1 1_555 1_555
N1 C1 1_555 1_555
N2 C7 1_555 1_555
N3 C13 1_555 1_555
N4 C20 1_555 1_555
O1 C12 1_555 1_555
O2 C12 1_555 1_555
O3 Cu1 1_555 1_555
O4 C6 1_555 1_555
C1 C2 1_555 1_555
C2 H1 1_555 1_555
C3 C2 1_555 1_555
H2 C3 1_555 1_555
C4 C3 1_555 1_555
C5 N1 1_555 1_555
H3 C5 1_555 1_555
C6 O3 1_555 1_555
C7 S1 1_555 1_555
C8 C7 1_555 1_555
H4 C8 1_555 1_555
C9 C8 1_555 1_555
H5 C9 1_555 1_555
C10 C9 1_555 1_555
C11 N2 1_555 1_555
H6 C11 1_555 1_555
C12 C10 1_555 1_555
C13 H7 1_555 1_555
C14 C13 1_555 1_555
H8 C14 1_555 1_555
C15 C14 1_555 1_555
C16 C15 1_555 1_555
H9 C16 1_555 1_555
C17 N3 1_555 1_555
H10 C17 1_555 1_555
C18 C15 1_555 1_555
C19 C18 1_555 1_555
H11 C19 1_555 1_555
C20 C19 1_555 1_555
H12 C20 1_555 1_555
C21 N4 1_555 1_555
H13 C21 1_555 1_555
C22 C18 1_555 1_555
H14 C22 1_555 1_555
O5 Cu1 1_555 1_555
O6 H19 1_555 1_555
O7 Cu1 1_555 1_555
H15 O5 1_555 1_555
H16 O7 1_555 1_555
H17 O7 1_555 1_555
H18 O5 1_555 1_555
H20 O6 1_555 1_555
O8 H21 1_555 1_555
H22 O8 1_555 1_555
Cu1_2 N4 1_555 1_555
N4_2 Cu1 1_555 1_555
C4 C5 1_555 1_555
C4 C6 1_555 1_555
C10 C11 1_555 1_555
C16 C17 1_555 1_555
C21 C22 1_555 1_555

#END
