
#######################################################################
#
#                 Cambridge Crystallographic Data Centre
#                                CCDC 
#
#######################################################################
#
# If this CIF has been generated from an entry in the Cambridge 
# Structural Database, then it will include bibliographic, chemical, 
# crystal, experimental, refinement or atomic coordinate data resulting 
# from the CCDC's data processing and validation procedures.
#
#######################################################################

data_VAJVAF
_symmetry_cell_setting           triclinic
_symmetry_space_group_name_H-M   'P -1'
_symmetry_Int_Tables_number      2
_space_group_name_Hall           '-P 1'
loop_
_symmetry_equiv_pos_site_id
_symmetry_equiv_pos_as_xyz
1 x,y,z
2 -x,-y,-z
_cell_length_a                   8.8779(16)
_cell_length_b                   11.910(2)
_cell_length_c                   12.284(2)
_cell_angle_alpha                91.799(3)
_cell_angle_beta                 93.476(3)
_cell_angle_gamma                102.816(3)
_cell_volume                     1262.83
loop_
_atom_site_label
_atom_site_type_symbol
_atom_site_fract_x
_atom_site_fract_y
_atom_site_fract_z
O1 O 1.3729(7) 0.0330(6) 0.5524(5)
C1 C 1.2490(10) 0.0065(9) 0.6078(8)
C2 C 1.1427(9) 0.0904(8) 0.5979(7)
C3 C 1.1791(11) 0.1944(9) 0.5493(8)
H1 H 1.2769 0.2205 0.5242
C4 C 0.9947(10) 0.0558(8) 0.6307(7)
H2 H 0.9691 -0.0143 0.6640
N1 N 0.8883(8) 0.1145(7) 0.6182(6)
C5 C 1.0674(13) 0.2608(9) 0.5379(8)
H3 H 1.0911 0.3334 0.5090
C6 C 0.9201(12) 0.2150(10) 0.5710(8)
O2 O 1.5080(9) -0.1154(6) 0.2260(6)
C7 C 1.4109(15) -0.1405(9) 0.1460(9)
Cd1 Cd 1.37721(8) -0.06715(6) 0.36260(6)
Cd2 Cd 1.32194(8) -0.23007(6) -0.34460(6)
S1 S 1.6288(3) -0.1442(2) -0.3083(2)
S2 S 0.7572(4) 0.2787(3) 0.5529(2)
N2 N 1.4255(9) -0.1816(7) -0.1592(6)
C8 C 1.5741(12) -0.1444(8) -0.1708(7)
C9 C 1.6824(12) -0.1130(9) -0.0836(8)
H4 H 1.7877 -0.0922 -0.0938
C10 C 1.3758(11) -0.1835(8) -0.0603(8)
H5 H 1.2703 -0.2100 -0.0531
C11 C 1.6282(12) -0.1136(9) 0.0199(8)
H6 H 1.6977 -0.0906 0.0804
C12 C 1.4718(12) -0.1483(8) 0.0339(8)
O3 O 1.2085(7) -0.0789(6) 0.6611(6)
O4 O 1.2702(10) -0.1541(8) 0.1515(6)
N3 N 1.3639(11) -0.4167(8) -0.3147(7)
N4 N 1.1024(10) -0.3374(8) -0.2603(7)
C13 C 1.1125(13) -0.4401(10) -0.2280(8)
C14 C 1.2512(16) -0.4845(10) -0.2567(10)
C15 C 1.4813(15) -0.4581(11) -0.3366(10)
H7 H 1.5555 -0.4128 -0.3766
C16 C 0.9964(19) -0.5105(12) -0.1728(11)
C17 C 1.0097(18) -0.6206(12) -0.1431(11)
H8 H 0.9312 -0.6664 -0.1069
C18 C 1.2675(18) -0.5978(11) -0.2261(11)
C19 C 1.137(2) -0.6614(12) -0.1665(12)
H9 H 1.1417 -0.7342 -0.1435
C20 C 1.508(2) -0.5621(15) -0.3067(15)
H10 H 1.6005 -0.5829 -0.3193
C21 C 0.8742(17) -0.4684(16) -0.1529(13)
H11 H 0.7945 -0.5110 -0.1153
C22 C 0.9833(13) -0.2962(12) -0.2382(9)
H12 H 0.9775 -0.2221 -0.2567
C23 C 0.8663(17) -0.3651(15) -0.1869(12)
H13 H 0.7776 -0.3382 -0.1755
C24 C 1.401(2) -0.6286(14) -0.2614(15)
H14 H 1.4121 -0.7034 -0.2505
O1A O 1.6271(7) -0.0330(6) 0.4476(5)
N1A N 1.1117(8) -0.1145(7) 0.3818(6)
Cd1A Cd 1.62279(8) 0.06715(6) 0.63740(6)
Cd1A_2 Cd 0.62279(8) 0.06715(6) 0.63740(6)
Cd1A_3 Cd 1.62279(8) 0.06715(6) -0.36260(6)
Cd2A Cd 0.67806(8) 0.23007(6) 0.34460(6)
Cd2_2 Cd 1.32194(8) -0.23007(6) 0.65540(6)
S1A S 1.3712(3) 0.1442(2) 0.3083(2)
S2A S 1.2428(4) -0.2787(3) 0.4471(2)
S2A_2 S 1.2428(4) -0.2787(3) -0.5529(2)
O3_2 O 1.2085(7) -0.0789(6) -0.3389(6)
loop_
_geom_bond_atom_site_label_1
_geom_bond_atom_site_label_2
_geom_bond_site_symmetry_1
_geom_bond_site_symmetry_2
O1 C1 1_555 1_555
C1 C2 1_555 1_555
C2 C3 1_555 1_555
C3 H1 1_555 1_555
C4 C2 1_555 1_555
H2 C4 1_555 1_555
N1 C4 1_555 1_555
C5 C3 1_555 1_555
H3 C5 1_555 1_555
C6 N1 1_555 1_555
O2 C7 1_555 1_555
C7 C12 1_555 1_555
Cd1 O1 1_555 1_555
Cd2 S1 1_555 1_555
S1 C8 1_555 1_555
S2 C6 1_555 1_555
N2 Cd2 1_555 1_555
C8 N2 1_555 1_555
C9 C8 1_555 1_555
H4 C9 1_555 1_555
C10 N2 1_555 1_555
H5 C10 1_555 1_555
C11 C9 1_555 1_555
H6 C11 1_555 1_555
C12 C10 1_555 1_555
O3 C1 1_555 1_555
O4 C7 1_555 1_555
N3 Cd2 1_555 1_555
N4 Cd2 1_555 1_555
C13 N4 1_555 1_555
C14 N3 1_555 1_555
C15 N3 1_555 1_555
H7 C15 1_555 1_555
C16 C13 1_555 1_555
C17 C16 1_555 1_555
H8 C17 1_555 1_555
C18 C14 1_555 1_555
C19 C17 1_555 1_555
H9 C19 1_555 1_555
C20 C15 1_555 1_555
H10 C20 1_555 1_555
C21 C16 1_555 1_555
H11 C21 1_555 1_555
C22 N4 1_555 1_555
H12 C22 1_555 1_555
C23 C21 1_555 1_555
H13 C23 1_555 1_555
C24 C18 1_555 1_555
H14 C24 1_555 1_555
O1A Cd1 1_555 1_555
N1A Cd1 1_555 1_555
Cd1A O1 1_555 1_555
Cd1A_2 N1 1_555 1_555
Cd1A_3 S1 1_555 1_555
Cd2A S2 1_555 1_555
Cd2_2 O3 1_555 1_555
S1A Cd1 1_555 1_555
S2A Cd1 1_555 1_555
S2A_2 Cd2 1_555 1_555
O3_2 Cd2 1_555 1_555
C5 C6 1_555 1_555
O2 Cd1 1_555 1_555
S2 Cd1A_2 1_555 1_555
C11 C12 1_555 1_555
C13 C14 1_555 1_555
C18 C19 1_555 1_555
C20 C24 1_555 1_555
C22 C23 1_555 1_555
O1A Cd1A 1_555 1_555
Cd2_2 S2A 1_555 1_555

#END
