
#######################################################################
#
#                 Cambridge Crystallographic Data Centre
#                                CCDC 
#
#######################################################################
#
# If this CIF has been generated from an entry in the Cambridge 
# Structural Database, then it will include bibliographic, chemical, 
# crystal, experimental, refinement or atomic coordinate data resulting 
# from the CCDC's data processing and validation procedures.
#
#######################################################################

data_VAJVUZ
_symmetry_cell_setting           triclinic
_symmetry_space_group_name_H-M   'P -1'
_symmetry_Int_Tables_number      2
_space_group_name_Hall           '-P 1'
loop_
_symmetry_equiv_pos_site_id
_symmetry_equiv_pos_as_xyz
1 x,y,z
2 -x,-y,-z
_cell_length_a                   12.6145(5)
_cell_length_b                   14.4977(6)
_cell_length_c                   28.1911(11)
_cell_angle_alpha                78.018(2)
_cell_angle_beta                 81.577(2)
_cell_angle_gamma                79.422(2)
_cell_volume                     4926.01
loop_
_atom_site_label
_atom_site_type_symbol
_atom_site_fract_x
_atom_site_fract_y
_atom_site_fract_z
Pb1 Pb 0.853045(15) 0.943904(15) 0.855202(8)
Pb2 Pb 0.145127(15) 0.603346(15) 0.637960(8)
N1 N -0.0045(3) 0.7679(3) 0.63199(17)
C1 C 0.0080(4) 0.8376(4) 0.6543(2)
C2 C -0.0578(5) 0.9261(4) 0.6488(2)
H1 H -0.0448 0.9749 0.6640
C3 C -0.1430(5) 0.9420(5) 0.6205(2)
H2 H -0.1912 1.0010 0.6171
C4 C -0.1561(4) 0.8707(4) 0.5975(2)
H3 H -0.2127 0.8803 0.5773
C5 C -0.0863(4) 0.7850(4) 0.6040(2)
H4 H -0.0964 0.7361 0.5881
N2 N 0.2191(3) 0.8120(3) 0.73118(17)
N3 N 0.2340(4) 0.7249(4) 0.71990(17)
N4 N 0.1592(4) 0.7267(3) 0.69136(17)
C6 C 0.0971(4) 0.8153(4) 0.6846(2)
C7 C 0.1353(4) 0.8697(4) 0.7108(2)
H5 H 0.1082 0.9340 0.7138
C8 C 0.2861(4) 0.8332(5) 0.7651(2)
H6 H 0.2492 0.8211 0.7988
H7 H 0.2940 0.9016 0.7566
N5 N 0.9972(3) 0.7842(3) 0.84234(17)
C9 C 0.9833(4) 0.7304(4) 0.8104(2)
C10 C 1.0471(5) 0.6437(4) 0.8069(2)
H8 H 1.0351 0.6073 0.7844
C11 C 1.1295(5) 0.6104(5) 0.8370(2)
H9 H 1.1749 0.5509 0.8352
C12 C 1.1445(5) 0.6656(5) 0.8696(2)
H10 H 1.2000 0.6446 0.8906
C13 C 1.0771(4) 0.7511(4) 0.8707(2)
H11 H 1.0879 0.7889 0.8929
N6 N 0.7681(3) 0.7956(3) 0.73301(16)
N7 N 0.7577(3) 0.8737(3) 0.75321(17)
N8 N 0.8352(3) 0.8570(3) 0.78222(17)
C14 C 0.8935(4) 0.7686(4) 0.7810(2)
C15 C 0.8498(4) 0.7293(4) 0.7492(2)
H12 H 0.8729 0.6682 0.7406
C16 C 0.6857(4) 0.7907(4) 0.7025(2)
H13 H 0.7178 0.7494 0.6784
H14 H 0.6608 0.8554 0.6843
C17 C 0.3990(5) 0.7718(4) 0.7631(2)
C18 C 0.4868(4) 0.8079(4) 0.7347(2)
H15 H 0.4777 0.8710 0.7161
C19 C 0.5889(4) 0.7506(4) 0.7336(2)
C20 C 0.6011(4) 0.6597(4) 0.7607(2)
H16 H 0.6706 0.6209 0.7600
C21 C 0.5130(5) 0.6240(4) 0.7892(2)
H17 H 0.5221 0.5610 0.8077
C22 C 0.4120(5) 0.6803(4) 0.7904(2)
H18 H 0.3515 0.6561 0.8099
N9 N 0.3611(3) 0.5389(3) 0.63785(17)
C23 C 0.4027(4) 0.4523(4) 0.62832(19)
C24 C 0.5070(4) 0.4071(4) 0.6381(2)
H19 H 0.5346 0.3455 0.6309
C25 C 0.5693(5) 0.4545(4) 0.6586(2)
H20 H 0.6409 0.4261 0.6653
C26 C 0.5264(4) 0.5432(4) 0.6691(2)
H21 H 0.5675 0.5767 0.6834
C27 C 0.4224(4) 0.5827(4) 0.6584(2)
H22 H 0.3928 0.6438 0.6659
N10 N 0.2603(3) 0.3082(3) 0.57748(17)
N11 N 0.1869(4) 0.3875(4) 0.57914(18)
N12 N 0.2310(4) 0.4465(3) 0.59723(18)
C28 C 0.3335(4) 0.4052(4) 0.60695(19)
C29 C 0.3526(4) 0.3149(4) 0.5945(2)
H23 H 0.4163 0.2685 0.5974
C30 C 0.2374(5) 0.2306(4) 0.5567(2)
H24 H 0.1583 0.2370 0.5556
H25 H 0.2615 0.1685 0.5775
N13 N 0.8835(3) 0.3502(2) 0.45845(10)
C31 C 0.8241(3) 0.2849(3) 0.48901(13)
C32 C 0.8318(4) 0.2649(4) 0.53890(13)
H26 H 0.7912 0.2203 0.5598
C33 C 0.8988(4) 0.3102(4) 0.55824(10)
H27 H 0.9041 0.2966 0.5923
C34 C 0.9582(3) 0.3755(3) 0.52768(14)
H28 H 1.0040 0.4065 0.5409
C35 C 0.9505(3) 0.3955(3) 0.47778(13)
H29 H 0.9911 0.4401 0.4569
N14 N 0.6471(3) 0.1649(3) 0.44615(18)
N15 N 0.6894(4) 0.2148(3) 0.40402(18)
N16 N 0.7571(3) 0.2617(3) 0.41643(17)
C36 C 0.7581(4) 0.2427(4) 0.4649(2)
C37 C 0.6863(4) 0.1806(4) 0.4847(2)
H30 H 0.6685 0.1548 0.5181
C38 C 0.5586(4) 0.1116(4) 0.4453(2)
H31 H 0.5664 0.0900 0.4137
H32 H 0.5627 0.0544 0.4717
C39 C 0.2958(4) 0.2332(4) 0.5056(2)
C40 C 0.3919(4) 0.1704(4) 0.4981(2)
H33 H 0.4177 0.1241 0.5247
C41 C 0.4500(4) 0.1745(4) 0.4524(2)
C42 C 0.4089(4) 0.2387(4) 0.4138(2)
H34 H 0.4460 0.2393 0.3819
C43 C 0.3150(5) 0.3023(5) 0.4205(2)
H35 H 0.2896 0.3482 0.3936
C44 C 0.2573(4) 0.2994(4) 0.4665(2)
H36 H 0.1919 0.3425 0.4712
N17 N 0.6358(4) 1.0024(3) 0.85731(18)
C45 C 0.5913(4) 1.0839(4) 0.8737(2)
C46 C 0.4864(5) 1.1260(4) 0.8676(2)
H37 H 0.4565 1.1823 0.8802
C47 C 0.4232(5) 1.0855(4) 0.8427(2)
H38 H 0.3504 1.1138 0.8380
C48 C 0.4696(4) 1.0044(4) 0.8253(2)
H39 H 0.4300 0.9758 0.8077
C49 C 0.5747(4) 0.9645(4) 0.8337(2)
H40 H 0.6054 0.9072 0.8221
N18 N 0.7318(4) 1.2095(3) 0.93461(17)
N19 N 0.8068(4) 1.1320(4) 0.92992(19)
N20 N 0.7619(4) 1.0801(4) 0.90774(18)
C50 C 0.6598(4) 1.1235(4) 0.8990(2)
C51 C 0.6401(4) 1.2073(4) 0.9164(2)
H41 H 0.5759 1.2534 0.9158
C52 C 0.7535(5) 1.2801(4) 0.9615(2)
H42 H 0.7264 1.3454 0.9447
H43 H 0.8326 1.2745 0.9622
N21 N 0.1143(3) 1.1346(3) 1.05185(10)
C53 C 0.1708(3) 1.2075(3) 1.02721(13)
C54 C 0.1622(4) 1.2431(3) 0.97796(14)
H44 H 0.2008 1.2928 0.9611
C55 C 0.0971(4) 1.2058(4) 0.95334(11)
H45 H 0.0912 1.2302 0.9197
C56 C 0.0406(3) 1.1330(3) 0.97798(13)
H46 H -0.0039 1.1076 0.9612
C57 C 0.0492(3) 1.0974(3) 1.02724(13)
H47 H 0.0105 1.0476 1.0441
N22 N 0.3498(4) 1.3061(4) 1.08174(18)
N23 N 0.3093(4) 1.2463(4) 1.12006(18)
N24 N 0.2400(3) 1.2058(3) 1.10422(17)
C58 C 0.2367(4) 1.2387(4) 1.0558(2)
C59 C 0.3085(5) 1.3036(5) 1.0411(2)
H48 H 0.3249 1.3385 1.0092
C60 C 0.4377(4) 1.3562(4) 1.0861(2)
H49 H 0.4302 1.4194 1.0642
H50 H 0.4330 1.3666 1.1200
C61 C 0.6976(4) 1.2628(4) 1.0132(2)
C62 C 0.6016(4) 1.3180(4) 1.0273(2)
H51 H 0.5731 1.3715 1.0045
C63 C 0.5452(5) 1.2991(4) 1.0729(2)
C64 C 0.5908(5) 1.2235(4) 1.1063(2)
H52 H 0.5538 1.2093 1.1382
C65 C 0.6885(5) 1.1681(5) 1.0944(2)
H53 H 0.7190 1.1172 1.1181
C66 C 0.7417(5) 1.1874(4) 1.0478(2)
H54 H 0.8086 1.1492 1.0393
Cl2 Cl 1.10164(10) 1.04620(10) 0.82290(5)
O5 O 1.0752(4) 1.1463(3) 0.8188(2)
O6 O 1.2170(3) 1.0193(3) 0.81525(16)
O7 O 1.0605(3) 0.9984(3) 0.86985(15)
O8 O 1.0539(3) 1.0157(4) 0.78649(16)
Cl3 Cl -0.11708(10) 0.50760(10) 0.67403(5)
O9 O -0.1371(4) 0.4129(3) 0.67736(19)
O10 O -0.0445(3) 0.5119(3) 0.70821(17)
O11 O -0.0677(3) 0.5419(3) 0.62542(16)
O12 O -0.2172(3) 0.5691(3) 0.68384(16)
O17 O 0.8035(4) 1.1068(3) 0.79466(17)
N25 N 0.7569(4) 1.1634(4) 0.7187(2)
C67 C 0.8272(6) 1.1263(5) 0.7502(3)
H55 H 0.9016 1.1136 0.7378
C68 C 0.7911(6) 1.1883(5) 0.6673(2)
H56 H 0.8687 1.1645 0.6608
H57 H 0.7780 1.2579 0.6570
H58 H 0.7499 1.1593 0.6490
C69 C 0.6407(5) 1.1800(7) 0.7339(3)
H59 H 0.6027 1.1538 0.7131
H60 H 0.6151 1.2488 0.7308
H61 H 0.6260 1.1486 0.7679
O18 O 0.2042(4) 0.4797(4) 0.71849(17)
N26 N 0.2446(4) 0.3865(4) 0.79010(18)
C70 C 0.1778(5) 0.4338(4) 0.7584(2)
H62 H 0.1026 0.4319 0.7674
C71 C 0.2070(6) 0.3314(5) 0.8367(2)
H63 H 0.1277 0.3465 0.8426
H64 H 0.2396 0.3474 0.8628
H65 H 0.2281 0.2631 0.8361
C72 C 0.3612(5) 0.3822(6) 0.7781(3)
H66 H 0.3763 0.4271 0.7477
H67 H 0.3942 0.3173 0.7740
H68 H 0.3916 0.3994 0.8045
Pb1A Pb 0.146955(15) 1.056096(15) 1.144798(8)
Pb2A Pb 0.854873(15) 0.396654(15) 0.362040(8)
N13A N 0.1165(3) 0.6498(2) 0.54155(10)
N16A N 0.2429(3) 0.7383(3) 0.58357(17)
N21A N 0.8857(3) 0.8654(3) 0.94815(10)
N24A N 0.7600(3) 0.7942(3) 0.89578(17)
Cl1 Cl 0.41692(12) 0.43563(10) 0.91169(6)
O1 O 0.3931(3) 0.3406(3) 0.91985(16)
O2 O 0.3968(5) 0.4697(3) 0.95682(17)
O3 O 0.5300(3) 0.4343(3) 0.89461(19)
O4 O 0.3547(4) 0.4966(3) 0.87580(18)
Cl4 Cl 0.54807(11) 0.06830(10) 0.61623(6)
O13 O 0.4311(3) 0.0761(3) 0.62041(16)
O14 O 0.5864(4) 0.0209(3) 0.66141(17)
O15 O 0.5742(3) 0.1629(3) 0.60402(16)
O16 O 0.5970(3) 0.0169(3) 0.57766(17)
O19 O 0.7379(8) 0.3541(7) 0.8015(4)
C73 C 0.8000(6) 0.3794(5) 0.8243(3)
C74 C 0.7859(10) 0.4820(6) 0.8324(5)
H69 H 0.7230 0.5197 0.8170
H70 H 0.8512 0.5096 0.8179
H71 H 0.7744 0.4825 0.8675
C75 C 0.8942(8) 0.3103(7) 0.8460(4)
H72 H 0.8955 0.2471 0.8384
H73 H 0.8853 0.3059 0.8815
H74 H 0.9625 0.3333 0.8321
O20 O 0.0778(3) 0.1078(2) 0.66361(11)
N27 N 0.1768(3) 0.1952(2) 0.69426(11)
C76 C 0.1641(3) 0.1169(2) 0.67833(11)
H75 H 0.2233 0.0660 0.6782
C77 C 0.2721(6) 0.1981(5) 0.7167(3)
H76 H 0.2515 0.2001 0.7514
H77 H 0.3037 0.2551 0.7006
H78 H 0.3256 0.1409 0.7132
C78 C 0.0880(6) 0.2742(5) 0.6979(3)
H79 H 0.0314 0.2694 0.6785
H80 H 0.1152 0.3349 0.6855
H81 H 0.0575 0.2716 0.7321
C79? C 0.8655(7) 0.4211(4) 0.8580(3)
C80? C 0.9600(11) 0.3420(6) 0.8708(6)
C81? C 0.8567(3) 0.5111(2) 0.87905(11)
H82? H 0.9594 0.2896 0.8538
H83? H 0.9528 0.3184 0.9062
H84? H 1.0284 0.3672 0.8608
H85? H 0.7938 0.5569 0.8680
H86? H 0.9228 0.5396 0.8680
H87? H 0.8479 0.4948 0.9148
O21? O 0.7994(11) 0.4124(8) 0.8318(5)
loop_
_geom_bond_atom_site_label_1
_geom_bond_atom_site_label_2
_geom_bond_site_symmetry_1
_geom_bond_site_symmetry_2
Pb1 N5 1_555 1_555
Pb2 N1 1_555 1_555
N1 C1 1_555 1_555
C1 C2 1_555 1_555
C2 H1 1_555 1_555
C3 C2 1_555 1_555
H2 C3 1_555 1_555
C4 C3 1_555 1_555
H3 C4 1_555 1_555
C5 N1 1_555 1_555
H4 C5 1_555 1_555
N2 N3 1_555 1_555
N3 N4 1_555 1_555
N4 Pb2 1_555 1_555
C6 C1 1_555 1_555
C7 N2 1_555 1_555
H5 C7 1_555 1_555
C8 N2 1_555 1_555
H6 C8 1_555 1_555
H7 C8 1_555 1_555
N5 C9 1_555 1_555
C9 C10 1_555 1_555
C10 H8 1_555 1_555
C11 C10 1_555 1_555
H9 C11 1_555 1_555
C12 C11 1_555 1_555
H10 C12 1_555 1_555
C13 N5 1_555 1_555
H11 C13 1_555 1_555
N6 N7 1_555 1_555
N7 N8 1_555 1_555
N8 Pb1 1_555 1_555
C14 C9 1_555 1_555
C15 N6 1_555 1_555
H12 C15 1_555 1_555
C16 N6 1_555 1_555
H13 C16 1_555 1_555
H14 C16 1_555 1_555
C17 C8 1_555 1_555
C18 C17 1_555 1_555
H15 C18 1_555 1_555
C19 C16 1_555 1_555
C20 C19 1_555 1_555
H16 C20 1_555 1_555
C21 C20 1_555 1_555
H17 C21 1_555 1_555
C22 C17 1_555 1_555
H18 C22 1_555 1_555
N9 Pb2 1_555 1_555
C23 N9 1_555 1_555
C24 C23 1_555 1_555
H19 C24 1_555 1_555
C25 C24 1_555 1_555
H20 C25 1_555 1_555
C26 C25 1_555 1_555
H21 C26 1_555 1_555
C27 N9 1_555 1_555
H22 C27 1_555 1_555
N10 N11 1_555 1_555
N11 N12 1_555 1_555
N12 Pb2 1_555 1_555
C28 C23 1_555 1_555
C29 N10 1_555 1_555
H23 C29 1_555 1_555
C30 N10 1_555 1_555
H24 C30 1_555 1_555
H25 C30 1_555 1_555
N13 C31 1_555 1_555
C31 C32 1_555 1_555
C32 H26 1_555 1_555
C33 C32 1_555 1_555
H27 C33 1_555 1_555
C34 C33 1_555 1_555
H28 C34 1_555 1_555
C35 N13 1_555 1_555
H29 C35 1_555 1_555
N14 N15 1_555 1_555
N15 N16 1_555 1_555
N16 C36 1_555 1_555
C36 C31 1_555 1_555
C37 N14 1_555 1_555
H30 C37 1_555 1_555
C38 N14 1_555 1_555
H31 C38 1_555 1_555
H32 C38 1_555 1_555
C39 C30 1_555 1_555
C40 C39 1_555 1_555
H33 C40 1_555 1_555
C41 C38 1_555 1_555
C42 C41 1_555 1_555
H34 C42 1_555 1_555
C43 C42 1_555 1_555
H35 C43 1_555 1_555
C44 C39 1_555 1_555
H36 C44 1_555 1_555
N17 Pb1 1_555 1_555
C45 N17 1_555 1_555
C46 C45 1_555 1_555
H37 C46 1_555 1_555
C47 C46 1_555 1_555
H38 C47 1_555 1_555
C48 C47 1_555 1_555
H39 C48 1_555 1_555
C49 N17 1_555 1_555
H40 C49 1_555 1_555
N18 N19 1_555 1_555
N19 N20 1_555 1_555
N20 Pb1 1_555 1_555
C50 C45 1_555 1_555
C51 N18 1_555 1_555
H41 C51 1_555 1_555
C52 N18 1_555 1_555
H42 C52 1_555 1_555
H43 C52 1_555 1_555
N21 C53 1_555 1_555
C53 C54 1_555 1_555
C54 H44 1_555 1_555
C55 C54 1_555 1_555
H45 C55 1_555 1_555
C56 C55 1_555 1_555
H46 C56 1_555 1_555
C57 N21 1_555 1_555
H47 C57 1_555 1_555
N22 N23 1_555 1_555
N23 N24 1_555 1_555
N24 C58 1_555 1_555
C58 C53 1_555 1_555
C59 N22 1_555 1_555
H48 C59 1_555 1_555
C60 N22 1_555 1_555
H49 C60 1_555 1_555
H50 C60 1_555 1_555
C61 C52 1_555 1_555
C62 C61 1_555 1_555
H51 C62 1_555 1_555
C63 C60 1_555 1_555
C64 C63 1_555 1_555
H52 C64 1_555 1_555
C65 C64 1_555 1_555
H53 C65 1_555 1_555
C66 C61 1_555 1_555
H54 C66 1_555 1_555
Cl1 O1 1_555 1_555
O2 Cl1 1_555 1_555
O3 Cl1 1_555 1_555
O4 Cl1 1_555 1_555
Cl2 O5 1_555 1_555
O6 Cl2 1_555 1_555
O7 Pb1 1_555 1_555
O8 Cl2 1_555 1_555
Cl3 O9 1_555 1_555
O10 Cl3 1_555 1_555
O11 Pb2 1_555 1_555
O12 Cl3 1_555 1_555
Cl4 O13 1_555 1_555
O14 Cl4 1_555 1_555
O15 Cl4 1_555 1_555
O16 Cl4 1_555 1_555
O17 Pb1 1_555 1_555
N25 C67 1_555 1_555
C67 O17 1_555 1_555
H55 C67 1_555 1_555
C68 N25 1_555 1_555
H56 C68 1_555 1_555
H57 C68 1_555 1_555
H58 C68 1_555 1_555
C69 N25 1_555 1_555
H59 C69 1_555 1_555
H60 C69 1_555 1_555
H61 C69 1_555 1_555
O18 Pb2 1_555 1_555
N26 C70 1_555 1_555
C70 O18 1_555 1_555
H62 C70 1_555 1_555
C71 N26 1_555 1_555
H63 C71 1_555 1_555
H64 C71 1_555 1_555
H65 C71 1_555 1_555
C72 N26 1_555 1_555
H66 C72 1_555 1_555
H67 C72 1_555 1_555
H68 C72 1_555 1_555
O19 C73 1_555 1_555
C73 C74 1_555 1_555
C74 H69 1_555 1_555
H70 C74 1_555 1_555
H71 C74 1_555 1_555
C75 C73 1_555 1_555
H72 C75 1_555 1_555
H73 C75 1_555 1_555
H74 C75 1_555 1_555
O20 C76 1_555 1_555
N27 C76 1_555 1_555
C76 H75 1_555 1_555
C77 N27 1_555 1_555
H76 C77 1_555 1_555
H77 C77 1_555 1_555
H78 C77 1_555 1_555
C78 N27 1_555 1_555
H79 C78 1_555 1_555
H80 C78 1_555 1_555
H81 C78 1_555 1_555
Pb1A N21 1_555 1_555
Pb2A N13 1_555 1_555
N13A Pb2 1_555 1_555
N16A Pb2 1_555 1_555
N21A Pb1 1_555 1_555
N24A Pb1 1_555 1_555
C4 C5 1_555 1_555
N4 C6 1_555 1_555
C6 C7 1_555 1_555
C12 C13 1_555 1_555
N8 C14 1_555 1_555
C14 C15 1_555 1_555
C18 C19 1_555 1_555
C21 C22 1_555 1_555
C26 C27 1_555 1_555
N12 C28 1_555 1_555
C28 C29 1_555 1_555
C34 C35 1_555 1_555
N16 Pb2A 1_555 1_555
C36 C37 1_555 1_555
C40 C41 1_555 1_555
C43 C44 1_555 1_555
C48 C49 1_555 1_555
N20 C50 1_555 1_555
C50 C51 1_555 1_555
C56 C57 1_555 1_555
N24 Pb1A 1_555 1_555
C58 C59 1_555 1_555
C62 C63 1_555 1_555
C65 C66 1_555 1_555
Cl2 O7 1_555 1_555
Cl3 O11 1_555 1_555

#END
