
#######################################################################
#
#                 Cambridge Crystallographic Data Centre
#                                CCDC 
#
#######################################################################
#
# If this CIF has been generated from an entry in the Cambridge 
# Structural Database, then it will include bibliographic, chemical, 
# crystal, experimental, refinement or atomic coordinate data resulting 
# from the CCDC's data processing and validation procedures.
#
#######################################################################

data_VAJWAG
_symmetry_cell_setting           triclinic
_symmetry_space_group_name_H-M   'P -1'
_symmetry_Int_Tables_number      2
_space_group_name_Hall           '-P 1'
loop_
_symmetry_equiv_pos_site_id
_symmetry_equiv_pos_as_xyz
1 x,y,z
2 -x,-y,-z
_cell_length_a                   14.2078(5)
_cell_length_b                   15.0213(6)
_cell_length_c                   15.6798(6)
_cell_angle_alpha                117.794(2)
_cell_angle_beta                 90.479(2)
_cell_angle_gamma                116.858(2)
_cell_volume                     2537.23
loop_
_atom_site_label
_atom_site_type_symbol
_atom_site_fract_x
_atom_site_fract_y
_atom_site_fract_z
Pb1 Pb 0.45793(5) 0.14605(6) 0.32102(4)
N1 N 0.5845(6) 0.1838(7) 0.1969(5)
C1 C 0.5330(4) 0.1485(7) 0.1018(5)
C2 C 0.5950(6) 0.1849(8) 0.0442(5)
H1 H 0.5598 0.1608 -0.0208
C3 C 0.7086(6) 0.2566(8) 0.0815(6)
H2 H 0.7509 0.2815 0.0421
C4 C 0.7601(4) 0.2919(8) 0.1766(6)
H3 H 0.8377 0.3409 0.2021
C5 C 0.6981(6) 0.2555(8) 0.2342(5)
H4 H 0.7333 0.2796 0.2992
N2 N 0.2362(4) -0.0417(7) -0.0102(5)
N3 N 0.2517(5) -0.0348(6) 0.0828(5)
N4 N 0.3656(5) 0.0397(7) 0.1334(4)
C6 C 0.4206(4) 0.0788(7) 0.0718(6)
C7 C 0.3406(6) 0.0285(7) -0.0170(5)
H5 H 0.3544 0.0399 -0.0713
C8 C 0.1294(9) -0.1099(12) -0.0734(10)
H6 H 0.0919 -0.1869 -0.0787
H7 H 0.1327 -0.1243 -0.1413
C9 C 0.0643(10) -0.0509(12) -0.0350(10)
C10 C 0.0802(11) 0.0417(12) -0.0425(11)
H8 H 0.1350 0.0707 -0.0722
C11 C -0.0182(10) -0.0949(12) 0.0077(10)
H9 H -0.0315 -0.1599 0.0127
N5 N 0.4508(6) -0.0567(5) 0.2441(6)
C12 C 0.3496(4) -0.1607(6) 0.1992(7)
C13 C 0.3440(5) -0.2679(5) 0.1435(7)
H10 H 0.2749 -0.3390 0.1128
C14 C 0.4397(7) -0.2710(5) 0.1327(8)
H11 H 0.4359 -0.3442 0.0946
C15 C 0.5409(5) -0.1670(7) 0.1776(8)
H12 H 0.6063 -0.1691 0.1702
C16 C 0.5465(4) -0.0599(6) 0.2333(7)
H13 H 0.6157 0.0112 0.2640
N6 N 0.0873(4) -0.1755(7) 0.2112(6)
N7 N 0.1653(6) -0.0542(6) 0.2769(6)
N8 N 0.2719(5) -0.0383(6) 0.2787(6)
C17 C 0.2597(5) -0.1498(7) 0.2140(7)
C18 C 0.1457(6) -0.2346(5) 0.1723(6)
H14 H 0.1140 -0.3166 0.1265
C19 C -0.0250(11) -0.2173(14) 0.1983(11)
H15 H -0.0661 -0.2876 0.1300
H16 H -0.0398 -0.1565 0.2045
C20 C -0.0644(11) -0.2484(12) 0.2737(10)
C21 C -0.1181(14) -0.3629(14) 0.2501(12)
H17 H -0.1290 -0.4235 0.1848
C22 C -0.0450(13) -0.1660(14) 0.3687(12)
H18 H -0.0025 -0.0856 0.3894
N9 N -0.6437(6) -0.7374(7) 0.3133(6)
C23 C -0.5837(5) -0.6196(7) 0.3434(6)
C24 C -0.6359(7) -0.5674(6) 0.3274(8)
H19 H -0.5949 -0.4869 0.3480
C25 C -0.7481(7) -0.6330(8) 0.2814(8)
H20 H -0.7838 -0.5973 0.2705
C26 C -0.8082(5) -0.7508(8) 0.2514(7)
H21 H -0.8849 -0.7956 0.2199
C27 C -0.7560(6) -0.8030(6) 0.2673(7)
H22 H -0.7970 -0.8835 0.2467
N10 N -0.2875(5) -0.4297(6) 0.4557(7)
N11 N -0.3083(6) -0.5359(7) 0.4468(6)
N12 N -0.4228(6) -0.6180(6) 0.4043(7)
C28 C -0.4729(5) -0.5626(8) 0.3868(7)
C29 C -0.3893(7) -0.4463(7) 0.4186(7)
H23 H -0.3996 -0.3894 0.4156
C30 C -0.1812(12) -0.3372(15) 0.4934(12)
H24 H -0.1327 -0.3566 0.5173
H25 H -0.1763 -0.2671 0.5514
C31 C -0.1420(12) -0.3093(13) 0.4141(11)
C32 C -0.0862(13) -0.1958(14) 0.4389(12)
H26 H -0.0746 -0.1354 0.5046
C33 C -0.1568(15) -0.3913(14) 0.3207(13)
H27 H -0.1948 -0.4713 0.3018
N13 N 0.4258(10) 0.1790(12) 0.5072(7)
C34 C 0.5221(8) 0.2529(13) 0.5852(9)
C35 C 0.5182(9) 0.3054(12) 0.6841(8)
H28 H 0.5840 0.3559 0.7374
C36 C 0.4180(12) 0.2840(13) 0.7051(7)
H29 H 0.4153 0.3199 0.7727
C37 C 0.3217(9) 0.2101(14) 0.6272(10)
H30 H 0.2532 0.1955 0.6415
C38 C 0.3256(8) 0.1576(12) 0.5282(9)
H31 H 0.2598 0.1071 0.4750
N14 N 0.7849(7) 0.2884(11) 0.5455(8)
N15 N 0.7169(8) 0.2206(11) 0.4458(6)
N16 N 0.6102(7) 0.2016(11) 0.4507(7)
C39 C 0.6123(8) 0.2576(13) 0.5534(9)
C40 C 0.7203(10) 0.3113(12) 0.6120(6)
H32 H 0.7450 0.3548 0.6832
C41 C 0.8954(16) 0.325(2) 0.5622(17)
H33 H 0.9050 0.2570 0.5229
H34 H 0.9293 0.3617 0.6342
C42 C 0.9542(18) 0.421(2) 0.5276(18)
C43 C 0.9898(17) 0.539(2) 0.5944(17)
H35 H 0.9816 0.5633 0.6603
C44 C 0.9650(16) 0.383(2) 0.4327(17)
H36 H 0.9410 0.3024 0.3871
Pb1A Pb -0.45793(5) -0.14605(6) -0.32102(4)
Pb1_2 Pb -0.54207(5) -0.85395(6) 0.32102(4)
Pb1A_2 Pb 1.54207(5) 0.85395(6) 0.67898(4)
Pb1_3 Pb 1.45793(5) 1.14605(6) 0.32102(4)
N1A N -0.5845(6) -0.1838(7) -0.1969(5)
C1A C -0.5330(4) -0.1485(7) -0.1018(5)
C2A C -0.5950(6) -0.1849(8) -0.0442(5)
H1A H -0.5598 -0.1608 0.0208
C3A C -0.7086(6) -0.2566(8) -0.0815(6)
H2A H -0.7509 -0.2815 -0.0421
C4A C -0.7601(4) -0.2919(8) -0.1766(6)
H3A H -0.8377 -0.3409 -0.2021
C5A C -0.6981(6) -0.2555(8) -0.2342(5)
H4A H -0.7333 -0.2796 -0.2992
N2A N -0.2362(4) 0.0417(7) 0.0102(5)
N3A N -0.2517(5) 0.0348(6) -0.0828(5)
N4A N -0.3656(5) -0.0397(7) -0.1334(4)
C6A C -0.4206(4) -0.0788(7) -0.0718(6)
C7A C -0.3406(6) -0.0285(7) 0.0170(5)
H5A H -0.3544 -0.0399 0.0713
C8A C -0.1294(9) 0.1099(12) 0.0734(10)
H6A H -0.0919 0.1869 0.0787
H7A H -0.1327 0.1243 0.1413
C9A C -0.0643(10) 0.0509(12) 0.0350(10)
C10A C -0.0802(11) -0.0417(12) 0.0425(11)
H8A H -0.1350 -0.0707 0.0722
C11A C 0.0182(10) 0.0949(12) -0.0077(10)
H9A H 0.0315 0.1599 -0.0127
N5_2 N 1.4508(6) 0.9433(5) 0.2441(6)
N5A N -0.4508(6) 0.0567(5) -0.2441(6)
C12_2 C 1.3496(4) 0.8393(6) 0.1992(7)
C13_2 C 1.3440(5) 0.7321(5) 0.1435(7)
H10_2 H 1.2749 0.6610 0.1128
C14_2 C 1.4397(7) 0.7290(5) 0.1327(8)
H11_2 H 1.4359 0.6558 0.0946
C15_2 C 1.5409(5) 0.8330(7) 0.1776(8)
H12_2 H 1.6063 0.8309 0.1702
C16_2 C 1.5465(4) 0.9401(6) 0.2333(7)
H13_2 H 1.6157 1.0112 0.2640
N6_2 N 1.0873(4) 0.8245(7) 0.2112(6)
N7_2 N 1.1653(6) 0.9458(6) 0.2769(6)
N8_2 N 1.2719(5) 0.9617(6) 0.2787(6)
N8A N -0.2719(5) 0.0383(6) -0.2787(6)
C17_2 C 1.2597(5) 0.8502(7) 0.2140(7)
C18_2 C 1.1457(6) 0.7654(5) 0.1723(6)
H14_2 H 1.1140 0.6834 0.1265
C19_2 C 0.9750(11) 0.7827(14) 0.1983(11)
H15_2 H 0.9339 0.7124 0.1300
H16_2 H 0.9602 0.8435 0.2045
C20_2 C 0.9356(11) 0.7516(12) 0.2737(10)
C21_2 C 0.8819(14) 0.6371(14) 0.2501(12)
H17_2 H 0.8710 0.5765 0.1848
C22_2 C 0.9550(13) 0.8340(14) 0.3687(12)
H18_2 H 0.9975 0.9144 0.3894
N9_2 N 0.3563(6) 0.2626(7) 0.3133(6)
N9A N -0.3563(6) -0.2626(7) -0.3133(6)
C23_2 C 0.4163(5) 0.3804(7) 0.3434(6)
C24_2 C 0.3641(7) 0.4326(6) 0.3274(8)
H19_2 H 0.4051 0.5131 0.3480
C25_2 C 0.2519(7) 0.3670(8) 0.2814(8)
H20_2 H 0.2162 0.4027 0.2705
C26_2 C 0.1918(5) 0.2492(8) 0.2514(7)
H21_2 H 0.1151 0.2044 0.2199
C27_2 C 0.2440(6) 0.1970(6) 0.2673(7)
H22_2 H 0.2030 0.1165 0.2467
N10_2 N 0.7125(5) 0.5703(6) 0.4557(7)
N11_2 N 0.6917(6) 0.4641(7) 0.4468(6)
N12_2 N 0.5772(6) 0.3820(6) 0.4043(7)
N12A N -0.5772(6) -0.3820(6) -0.4043(7)
C28_2 C 0.5271(5) 0.4374(8) 0.3868(7)
C29_2 C 0.6107(7) 0.5537(7) 0.4186(7)
H23_2 H 0.6004 0.6106 0.4156
C30_2 C 0.8188(12) 0.6628(15) 0.4934(12)
H24_2 H 0.8673 0.6434 0.5173
H25_2 H 0.8237 0.7329 0.5514
C31_2 C 0.8580(12) 0.6907(13) 0.4141(11)
C32_2 C 0.9138(13) 0.8042(14) 0.4389(12)
H26_2 H 0.9254 0.8646 0.5046
C33_2 C 0.8432(15) 0.6087(14) 0.3207(13)
H27_2 H 0.8052 0.5287 0.3018
N13A N 1.5742(10) 0.8210(12) 0.4928(7)
N13A_2 N -0.4258(10) -0.1790(12) -0.5072(7)
C34A C 1.4779(8) 0.7471(13) 0.4148(9)
C35A C 1.4818(9) 0.6946(12) 0.3159(8)
H28A H 1.4160 0.6441 0.2626
C36A C 1.5820(12) 0.7160(13) 0.2949(7)
H29A H 1.5847 0.6801 0.2273
C37A C 1.6783(9) 0.7899(14) 0.3728(10)
H30A H 1.7468 0.8045 0.3585
C38A C 1.6744(8) 0.8424(12) 0.4718(9)
H31A H 1.7402 0.8929 0.5250
N14A N 1.2151(7) 0.7116(11) 0.4545(8)
N15A N 1.2831(8) 0.7794(11) 0.5542(6)
N16A N 1.3898(7) 0.7984(11) 0.5493(7)
N16A_2 N -0.6102(7) -0.2016(11) -0.4507(7)
C39A C 1.3877(8) 0.7424(13) 0.4466(9)
C40A C 1.2797(10) 0.6887(12) 0.3880(6)
H32A H 1.2550 0.6452 0.3168
C41A C 1.1046(16) 0.675(2) 0.4378(17)
H33A H 1.0950 0.7430 0.4771
H34A H 1.0707 0.6383 0.3658
C42A C 1.0458(18) 0.579(2) 0.4724(18)
C43A C 1.0102(17) 0.461(2) 0.4056(17)
H35A H 1.0184 0.4367 0.3397
C44A C 1.0350(16) 0.617(2) 0.5673(17)
H36A H 1.0590 0.6976 0.6129
Cl1 Cl 0.8596(4) 0.0142(5) 0.2932(3)
O1 O 0.8081(9) -0.1107(7) 0.2225(7)
O2 O 0.8432(10) 0.0352(11) 0.3892(7)
O3 O 0.9753(7) 0.0689(10) 0.3009(9)
O4 O 0.8114(11) 0.0609(11) 0.2572(10)
Cl2 Cl 0.0630(5) 0.4434(6) 0.1011(5)
O5 O -0.0452(10) 0.3428(12) 0.0551(13)
O6 O 0.1372(14) 0.4167(18) 0.1328(15)
O7 O 0.0650(17) 0.5399(13) 0.1866(10)
O8 O 0.0996(12) 0.4763(13) 0.0293(10)
Cl3? Cl 0.8764(15) 0.055(2) 0.2927(13)
Cl4? Cl 0.0688(10) 0.4378(11) 0.1237(10)
O9? O 0.975(2) 0.097(4) 0.263(3)
O10? O 0.897(4) 0.135(4) 0.3975(16)
O11? O 0.843(4) -0.059(3) 0.276(4)
O12? O 0.791(3) 0.047(4) 0.234(3)
O13? O 0.072(3) 0.400(3) 0.1929(18)
O14? O 0.007(2) 0.3348(18) 0.0246(13)
O15? O 0.015(3) 0.505(3) 0.154(2)
O16? O 0.1784(15) 0.507(3) 0.123(3)
loop_
_geom_bond_atom_site_label_1
_geom_bond_atom_site_label_2
_geom_bond_site_symmetry_1
_geom_bond_site_symmetry_2
Pb1 N1 1_555 1_555
N1 C1 1_555 1_555
C1 C2 1_555 1_555
C2 H1 1_555 1_555
C3 C2 1_555 1_555
H2 C3 1_555 1_555
C4 C3 1_555 1_555
H3 C4 1_555 1_555
C5 N1 1_555 1_555
H4 C5 1_555 1_555
N2 N3 1_555 1_555
N3 N4 1_555 1_555
N4 Pb1 1_555 1_555
C6 C1 1_555 1_555
C7 N2 1_555 1_555
H5 C7 1_555 1_555
C8 N2 1_555 1_555
H6 C8 1_555 1_555
H7 C8 1_555 1_555
C9 C8 1_555 1_555
C10 C9 1_555 1_555
H8 C10 1_555 1_555
C11 C9 1_555 1_555
H9 C11 1_555 1_555
N5 Pb1 1_555 1_555
C12 N5 1_555 1_555
C13 C12 1_555 1_555
H10 C13 1_555 1_555
C14 C13 1_555 1_555
H11 C14 1_555 1_555
C15 C14 1_555 1_555
H12 C15 1_555 1_555
C16 N5 1_555 1_555
H13 C16 1_555 1_555
N6 N7 1_555 1_555
N7 N8 1_555 1_555
N8 Pb1 1_555 1_555
C17 C12 1_555 1_555
C18 N6 1_555 1_555
H14 C18 1_555 1_555
C19 N6 1_555 1_555
H15 C19 1_555 1_555
H16 C19 1_555 1_555
C20 C19 1_555 1_555
C21 C20 1_555 1_555
H17 C21 1_555 1_555
C22 C20 1_555 1_555
H18 C22 1_555 1_555
N9 C23 1_555 1_555
C23 C24 1_555 1_555
C24 H19 1_555 1_555
C25 C24 1_555 1_555
H20 C25 1_555 1_555
C26 C25 1_555 1_555
H21 C26 1_555 1_555
C27 N9 1_555 1_555
H22 C27 1_555 1_555
N10 N11 1_555 1_555
N11 N12 1_555 1_555
N12 C28 1_555 1_555
C28 C23 1_555 1_555
C29 N10 1_555 1_555
H23 C29 1_555 1_555
C30 N10 1_555 1_555
H24 C30 1_555 1_555
H25 C30 1_555 1_555
C31 C30 1_555 1_555
C32 C22 1_555 1_555
H26 C32 1_555 1_555
C33 C21 1_555 1_555
H27 C33 1_555 1_555
N13 Pb1 1_555 1_555
C34 N13 1_555 1_555
C35 C34 1_555 1_555
H28 C35 1_555 1_555
C36 C35 1_555 1_555
H29 C36 1_555 1_555
C37 C36 1_555 1_555
H30 C37 1_555 1_555
C38 N13 1_555 1_555
H31 C38 1_555 1_555
N14 N15 1_555 1_555
N15 N16 1_555 1_555
N16 Pb1 1_555 1_555
C39 C34 1_555 1_555
C40 N14 1_555 1_555
H32 C40 1_555 1_555
C41 N14 1_555 1_555
H33 C41 1_555 1_555
H34 C41 1_555 1_555
C42 C41 1_555 1_555
C43 C42 1_555 1_555
H35 C43 1_555 1_555
C44 C42 1_555 1_555
H36 C44 1_555 1_555
Cl1 O1 1_555 1_555
O2 Cl1 1_555 1_555
O3 Cl1 1_555 1_555
O4 Cl1 1_555 1_555
Cl2 O5 1_555 1_555
O6 Cl2 1_555 1_555
O7 Cl2 1_555 1_555
O8 Cl2 1_555 1_555
Pb1A N1A 1_555 1_555
Pb1_2 N9 1_555 1_555
Pb1A_2 N13A 1_555 1_555
Pb1_3 N5_2 1_555 1_555
N1A C1A 1_555 1_555
C1A C2A 1_555 1_555
C2A H1A 1_555 1_555
C3A C2A 1_555 1_555
H2A C3A 1_555 1_555
C4A C3A 1_555 1_555
H3A C4A 1_555 1_555
C5A N1A 1_555 1_555
H4A C5A 1_555 1_555
N2A N3A 1_555 1_555
N3A N4A 1_555 1_555
N4A Pb1A 1_555 1_555
C6A C1A 1_555 1_555
C7A N2A 1_555 1_555
H5A C7A 1_555 1_555
C8A N2A 1_555 1_555
H6A C8A 1_555 1_555
H7A C8A 1_555 1_555
C9A C8A 1_555 1_555
C10A C11 1_555 1_555
H8A C10A 1_555 1_555
C11A C10 1_555 1_555
H9A C11A 1_555 1_555
N5_2 C12_2 1_555 1_555
N5A Pb1A 1_555 1_555
C12_2 C13_2 1_555 1_555
C13_2 H10_2 1_555 1_555
C14_2 C13_2 1_555 1_555
H11_2 C14_2 1_555 1_555
C15_2 C14_2 1_555 1_555
H12_2 C15_2 1_555 1_555
C16_2 N5_2 1_555 1_555
H13_2 C16_2 1_555 1_555
N6_2 N7_2 1_555 1_555
N7_2 N8_2 1_555 1_555
N8_2 Pb1_3 1_555 1_555
N8A Pb1A 1_555 1_555
C17_2 C12_2 1_555 1_555
C18_2 N6_2 1_555 1_555
H14_2 C18_2 1_555 1_555
C19_2 N6_2 1_555 1_555
H15_2 C19_2 1_555 1_555
H16_2 C19_2 1_555 1_555
C20_2 C19_2 1_555 1_555
C21_2 C20_2 1_555 1_555
H17_2 C21_2 1_555 1_555
C22_2 C20_2 1_555 1_555
H18_2 C22_2 1_555 1_555
N9_2 Pb1 1_555 1_555
N9A Pb1A 1_555 1_555
C23_2 N9_2 1_555 1_555
C24_2 C23_2 1_555 1_555
H19_2 C24_2 1_555 1_555
C25_2 C24_2 1_555 1_555
H20_2 C25_2 1_555 1_555
C26_2 C25_2 1_555 1_555
H21_2 C26_2 1_555 1_555
C27_2 N9_2 1_555 1_555
H22_2 C27_2 1_555 1_555
N10_2 N11_2 1_555 1_555
N11_2 N12_2 1_555 1_555
N12_2 Pb1 1_555 1_555
N12A Pb1A 1_555 1_555
C28_2 C23_2 1_555 1_555
C29_2 N10_2 1_555 1_555
H23_2 C29_2 1_555 1_555
C30_2 N10_2 1_555 1_555
H24_2 C30_2 1_555 1_555
H25_2 C30_2 1_555 1_555
C31_2 C30_2 1_555 1_555
C32_2 C22_2 1_555 1_555
H26_2 C32_2 1_555 1_555
C33_2 C21_2 1_555 1_555
H27_2 C33_2 1_555 1_555
N13A C34A 1_555 1_555
N13A_2 Pb1A 1_555 1_555
C34A C35A 1_555 1_555
C35A H28A 1_555 1_555
C36A C35A 1_555 1_555
H29A C36A 1_555 1_555
C37A C36A 1_555 1_555
H30A C37A 1_555 1_555
C38A N13A 1_555 1_555
H31A C38A 1_555 1_555
N14A N15A 1_555 1_555
N15A N16A 1_555 1_555
N16A Pb1A_2 1_555 1_555
N16A_2 Pb1A 1_555 1_555
C39A C34A 1_555 1_555
C40A N14A 1_555 1_555
H32A C40A 1_555 1_555
C41A N14A 1_555 1_555
H33A C41A 1_555 1_555
H34A C41A 1_555 1_555
C42A C41A 1_555 1_555
C43A C44 1_555 1_555
H35A C43A 1_555 1_555
C44A C43 1_555 1_555
H36A C44A 1_555 1_555
C4 C5 1_555 1_555
N4 C6 1_555 1_555
C6 C7 1_555 1_555
C15 C16 1_555 1_555
N8 C17 1_555 1_555
C17 C18 1_555 1_555
C26 C27 1_555 1_555
N12 Pb1_2 1_555 1_555
C28 C29 1_555 1_555
C31 C32 1_555 1_555
C31 C33 1_555 1_555
C37 C38 1_555 1_555
N16 C39 1_555 1_555
C39 C40 1_555 1_555
C4A C5A 1_555 1_555
N4A C6A 1_555 1_555
C6A C7A 1_555 1_555
C9A C10A 1_555 1_555
C9A C11A 1_555 1_555
C15_2 C16_2 1_555 1_555
N8_2 C17_2 1_555 1_555
C17_2 C18_2 1_555 1_555
C26_2 C27_2 1_555 1_555
N12_2 C28_2 1_555 1_555
C28_2 C29_2 1_555 1_555
C31_2 C32_2 1_555 1_555
C31_2 C33_2 1_555 1_555
C37A C38A 1_555 1_555
N16A C39A 1_555 1_555
C39A C40A 1_555 1_555
C42A C43A 1_555 1_555
C42A C44A 1_555 1_555

#END
