
#######################################################################
#
#                 Cambridge Crystallographic Data Centre
#                                CCDC 
#
#######################################################################
#
# If this CIF has been generated from an entry in the Cambridge 
# Structural Database, then it will include bibliographic, chemical, 
# crystal, experimental, refinement or atomic coordinate data resulting 
# from the CCDC's data processing and validation procedures.
#
#######################################################################

data_VAJYEK
_symmetry_cell_setting           triclinic
_symmetry_space_group_name_H-M   'P -1'
_symmetry_Int_Tables_number      2
_space_group_name_Hall           '-P 1'
loop_
_symmetry_equiv_pos_site_id
_symmetry_equiv_pos_as_xyz
1 x,y,z
2 -x,-y,-z
_cell_length_a                   5.825(1)
_cell_length_b                   7.718(1)
_cell_length_c                   9.673(1)
_cell_angle_alpha                112.528(7)
_cell_angle_beta                 101.286(7)
_cell_angle_gamma                97.58(1)
_cell_volume                     383.508
loop_
_atom_site_label
_atom_site_type_symbol
_atom_site_fract_x
_atom_site_fract_y
_atom_site_fract_z
Ca1 Ca 0.0500(1) 0.08774(4) 0.34059(3)
O1 O 0.2720(3) 0.2676(2) 0.2328(2)
O2 O -0.1626(3) 0.3125(2) 0.4835(2)
O3 O -0.2829(3) 0.0696(2) 0.1442(2)
O4 O 0.2610(2) -0.1681(2) 0.2944(1)
O5 O 0.0995(2) -0.1616(2) 0.0707(1)
O6 O 0.6106(2) -0.3819(1) 0.4163(1)
O7 O 0.7933(2) -0.1281(1) 0.3933(1)
C1 C 0.2333(3) -0.2242(2) 0.1510(2)
C2 C 0.6594(3) -0.2933(2) 0.3360(1)
C3 C 0.3713(3) -0.3676(2) 0.0739(2)
C4 C 0.5695(3) -0.3984(2) 0.1613(1)
C5 C 0.3034(3) -0.4703(2) -0.0874(2)
H1 H 0.1601(31) -0.4500(22) -0.1461(17)
H2 H 0.3756(44) 0.3869(33) 0.2973(25)
H3 H 0.2021(45) 0.2630(32) 0.1521(25)
H4 H -0.2148(55) 0.3840(36) 0.4711(31)
H5 H -0.2432(53) 0.2650(39) 0.5208(31)
H6 H -0.2419(49) 0.0915(36) 0.0839(27)
H7 H -0.3983(49) 0.1033(35) 0.1672(27)
C5A C 0.6966(3) -0.5297(2) 0.0874(2)
C3A C 0.6287(3) -0.6324(2) -0.0739(2)
C1A C 0.7667(3) -0.7758(2) -0.1510(2)
O4A O 0.7390(2) -0.8319(2) -0.2944(1)
O5A O 0.9005(2) -0.8384(2) -0.0707(1)
C4A C 0.4305(3) -0.6016(2) -0.1613(1)
C2A C 0.3406(3) -0.7067(2) -0.3360(1)
O6A O 0.3894(2) -0.6181(1) -0.4163(1)
O7A O 0.2067(2) -0.8719(1) -0.3933(1)
H1A H 0.8399(31) -0.5500(22) 0.1461(17)
Ca1A Ca 0.9500(1) -1.08774(4) -0.34059(3)
Ca1A_2 Ca 0.9500(1) -0.08774(4) 0.65941(3)
Ca1_2 Ca 1.0500(1) 0.08774(4) 0.34059(3)
Ca1_3 Ca 0.0500(1) -0.91226(4) -0.65941(3)
Ca1A_3 Ca -0.0500(1) -1.08774(4) -0.34059(3)
O6A_2 O 0.3894(2) 0.3819(1) 0.5837(1)
O7_2 O -0.2067(2) -0.1281(1) 0.3933(1)
O7A_2 O 0.2067(2) 0.1281(1) 0.6067(1)
O1A O 0.7280(3) -0.2676(2) 0.7672(2)
O2A O 1.1626(3) -0.3125(2) 0.5165(2)
O3A O 1.2829(3) -0.0696(2) 0.8558(2)
O4A_2 O 0.7390(2) 0.1681(2) 0.7056(1)
O5A_2 O 0.9005(2) 0.1616(2) 0.9293(1)
O7A_3 O 1.2067(2) 0.1281(1) 0.6067(1)
H2A H 0.6244(44) -0.3869(33) 0.7027(25)
H3A H 0.7979(45) -0.2630(32) 0.8479(25)
H4A H 1.2148(55) -0.3840(36) 0.5289(31)
H5A H 1.2432(53) -0.2650(39) 0.4792(31)
H6A H 1.2419(49) -0.0915(36) 0.9161(27)
H7A H 1.3983(49) -0.1033(35) 0.8328(27)
loop_
_geom_bond_atom_site_label_1
_geom_bond_atom_site_label_2
_geom_bond_site_symmetry_1
_geom_bond_site_symmetry_2
Ca1 O1 1_555 1_555
O1 H2 1_555 1_555
O2 Ca1 1_555 1_555
O3 Ca1 1_555 1_555
O4 Ca1 1_555 1_555
O5 Ca1 1_555 1_555
O6 C2 1_555 1_555
O7 C2 1_555 1_555
C1 O4 1_555 1_555
C2 C4 1_555 1_555
C3 C1 1_555 1_555
C4 C3 1_555 1_555
C5 C3 1_555 1_555
H1 C5 1_555 1_555
H3 O1 1_555 1_555
H4 O2 1_555 1_555
H5 O2 1_555 1_555
H6 O3 1_555 1_555
H7 O3 1_555 1_555
C5A C4 1_555 1_555
C3A C5A 1_555 1_555
C1A C3A 1_555 1_555
O4A C1A 1_555 1_555
O5A C1A 1_555 1_555
C4A C5 1_555 1_555
C2A C4A 1_555 1_555
O6A C2A 1_555 1_555
O7A C2A 1_555 1_555
H1A C5A 1_555 1_555
Ca1A O4A 1_555 1_555
Ca1A_2 O6 1_555 1_555
Ca1_2 O7 1_555 1_555
Ca1_3 O6A 1_555 1_555
Ca1A_3 O7A 1_555 1_555
O6A_2 Ca1 1_555 1_555
O7_2 Ca1 1_555 1_555
O7A_2 Ca1 1_555 1_555
O1A Ca1A_2 1_555 1_555
O2A Ca1A_2 1_555 1_555
O3A Ca1A_2 1_555 1_555
O4A_2 Ca1A_2 1_555 1_555
O5A_2 Ca1A_2 1_555 1_555
O7A_3 Ca1A_2 1_555 1_555
H2A O1A 1_555 1_555
H3A O1A 1_555 1_555
H4A O2A 1_555 1_555
H5A O2A 1_555 1_555
H6A O3A 1_555 1_555
H7A O3A 1_555 1_555
O5 C1 1_555 1_555
O7 Ca1A_2 1_555 1_555
C3A C4A 1_555 1_555
O5A Ca1A 1_555 1_555
O7A Ca1_3 1_555 1_555
Ca1_2 O7A_3 1_555 1_555

#END
