
#######################################################################
#
#                 Cambridge Crystallographic Data Centre
#                                CCDC 
#
#######################################################################
#
# If this CIF has been generated from an entry in the Cambridge 
# Structural Database, then it will include bibliographic, chemical, 
# crystal, experimental, refinement or atomic coordinate data resulting 
# from the CCDC's data processing and validation procedures.
#
#######################################################################

data_VAKBIU
_symmetry_cell_setting           tetragonal
_symmetry_space_group_name_H-M   'I 41/a'
_symmetry_Int_Tables_number      88
_space_group_name_Hall           '-I 4ad'
loop_
_symmetry_equiv_pos_site_id
_symmetry_equiv_pos_as_xyz
1 x,y,z
2 1/2-x,-y,1/2+z
3 3/4-y,1/4+x,1/4+z
4 3/4+y,3/4-x,3/4+z
5 1/2+x,1/2+y,1/2+z
6 -x,1/2-y,z
7 1/4-y,3/4+x,3/4+z
8 1/4+y,1/4-x,1/4+z
9 -x,-y,-z
10 1/2+x,y,1/2-z
11 1/4+y,3/4-x,3/4-z
12 1/4-y,1/4+x,1/4-z
13 1/2-x,1/2-y,1/2-z
14 x,1/2+y,-z
15 3/4+y,1/4-x,1/4-z
16 3/4-y,3/4+x,3/4-z
_cell_length_a                   30.200(18)
_cell_length_b                   30.200(18)
_cell_length_c                   10.016(9)
_cell_angle_alpha                90
_cell_angle_beta                 90
_cell_angle_gamma                90
_cell_volume                     9134.99
loop_
_atom_site_label
_atom_site_type_symbol
_atom_site_fract_x
_atom_site_fract_y
_atom_site_fract_z
Mn1 Mn 0.481129(18) 0.952505(18) 0.97655(6)
N1 N 0.49673(10) 0.90796(11) 0.8400(3)
N2 N 0.53281(11) 0.88027(11) 0.8735(3)
N3 N 0.65158(11) 0.81435(11) 1.1589(3)
O1 O 0.35681(10) 1.00299(11) 0.7787(3)
O2 O 0.43067(9) 0.96898(9) 0.8729(3)
O3 O 0.53158(8) 0.92401(8) 1.0623(3)
O4 O 0.47518(8) 0.99671(8) 1.1081(2)
C1 C 0.31612(18) 1.0205(2) 0.7291(6)
H1 H 0.3030 1.0401 0.7964
H2 H 0.2957 0.9962 0.7096
H3 H 0.3218 1.0374 0.6473
C2 C 0.37880(14) 0.97405(14) 0.6968(4)
C3 C 0.36546(15) 0.96275(16) 0.5706(5)
H4 H 0.3393 0.9755 0.5348
C4 C 0.38990(16) 0.93275(17) 0.4938(5)
H5 H 0.3804 0.9253 0.4062
C5 C 0.42720(16) 0.91433(16) 0.5446(4)
H6 H 0.4438 0.8940 0.4923
C6 C 0.44154(13) 0.92514(14) 0.6749(4)
C7 C 0.41849(13) 0.95611(13) 0.7523(4)
C8 C 0.47934(14) 0.90202(14) 0.7243(4)
H7 H 0.4926 0.8806 0.6674
C9 C 0.54725(13) 0.89161(12) 0.9903(4)
C10 C 0.58437(13) 0.86524(13) 1.0462(4)
C11 C 0.59140(14) 0.82226(14) 1.0057(4)
H8 H 0.5735 0.8094 0.9380
C12 C 0.62479(14) 0.79806(14) 1.0648(4)
H9 H 0.6290 0.7683 1.0372
C13 C 0.64516(14) 0.85649(14) 1.1948(4)
H10 H 0.6644 0.8689 1.2599
C14 C 0.61225(14) 0.88295(14) 1.1428(4)
H11 H 0.6087 0.9126 1.1723
C15 C 0.47489(18) 0.98720(16) 1.2458(4)
H12 H 0.4715 1.0148 1.2963
H13 H 0.5028 0.9729 1.2707
H14 H 0.4502 0.9673 1.2661
Mn1N Mn 0.702505(18) 0.768871(18) 1.27345(6)
Mn1H Mn 0.518871(18) 1.047495(18) 1.02345(6)
N3K N 0.43565(11) 0.90158(11) 1.0911(3)
O4H O 0.52482(8) 1.00329(8) 0.8919(2)
N4 N 0.6788(2) 1.0117(2) 0.7291(6)
C16 C 0.6576(2) 0.99243(18) 0.8018(6)
C17 C 0.63090(19) 0.96817(19) 0.8967(6)
H15 H 0.6502 0.9533 0.9612
H16 H 0.6131 0.9460 0.8493
H17 H 0.6112 0.9887 0.9437
O5 O 0.5360(2) 0.8677(2) 0.4545(6)
C18 C 0.5584(6) 0.9066(4) 0.457(2)
H18 H 0.5356 0.9301 0.4622
H19 H 0.5723 0.9096 0.3676
C19 C 0.5920(6) 0.9181(6) 0.5522(17)
H20 H 0.5804 0.9138 0.6427
H21 H 0.6004 0.9492 0.5403
H22 H 0.6180 0.8992 0.5388
C20 C 0.5638(6) 0.8323(4) 0.479(2)
H23 H 0.5646 0.8243 0.5745
H24 H 0.5942 0.8378 0.4460
C21 C 0.5397(6) 0.7978(6) 0.3953(19)
H25 H 0.5076 0.8025 0.4021
H26 H 0.5470 0.7681 0.4283
H27 H 0.5488 0.8005 0.3018
C22? C 0.5739(5) 0.8891(5) 0.5086(18)
C23? C 0.5673(7) 0.9361(5) 0.4727(19)
C24? C 0.5543(7) 0.8285(4) 0.401(2)
C25? C 0.5308(8) 0.7986(7) 0.490(2)
H28? H 0.6015 0.8773 0.4684
H29? H 0.5753 0.8852 0.6066
H30? H 0.5711 0.9398 0.3761
H31? H 0.5891 0.9544 0.5197
H32? H 0.5374 0.9453 0.4983
H33? H 0.5868 0.8270 0.4120
H34? H 0.5463 0.8240 0.3061
H35? H 0.5497 0.7913 0.5667
H36? H 0.5230 0.7714 0.4424
H37? H 0.5037 0.8130 0.5224
loop_
_geom_bond_atom_site_label_1
_geom_bond_atom_site_label_2
_geom_bond_site_symmetry_1
_geom_bond_site_symmetry_2
Mn1 N1 1_555 1_555
N1 N2 1_555 1_555
N2 C9 1_555 1_555
N3 C12 1_555 1_555
O1 C1 1_555 1_555
O2 Mn1 1_555 1_555
O3 Mn1 1_555 1_555
O4 Mn1 1_555 1_555
C1 H1 1_555 1_555
H2 C1 1_555 1_555
H3 C1 1_555 1_555
C2 O1 1_555 1_555
C3 C2 1_555 1_555
H4 C3 1_555 1_555
C4 C3 1_555 1_555
H5 C4 1_555 1_555
C5 C4 1_555 1_555
H6 C5 1_555 1_555
C6 C5 1_555 1_555
C7 O2 1_555 1_555
C8 N1 1_555 1_555
H7 C8 1_555 1_555
C9 O3 1_555 1_555
C10 C9 1_555 1_555
C11 C10 1_555 1_555
H8 C11 1_555 1_555
C12 C11 1_555 1_555
H9 C12 1_555 1_555
C13 N3 1_555 1_555
H10 C13 1_555 1_555
C14 C10 1_555 1_555
H11 C14 1_555 1_555
C15 O4 1_555 1_555
H12 C15 1_555 1_555
H13 C15 1_555 1_555
H14 C15 1_555 1_555
N4 C16 1_555 1_555
C16 C17 1_555 1_555
C17 H15 1_555 1_555
H16 C17 1_555 1_555
H17 C17 1_555 1_555
O5 C18 1_555 1_555
C18 H18 1_555 1_555
H19 C18 1_555 1_555
C19 C18 1_555 1_555
H20 C19 1_555 1_555
H21 C19 1_555 1_555
H22 C19 1_555 1_555
C20 O5 1_555 1_555
H23 C20 1_555 1_555
H24 C20 1_555 1_555
C21 C20 1_555 1_555
H25 C21 1_555 1_555
H26 C21 1_555 1_555
H27 C21 1_555 1_555
Mn1N N3 1_555 1_555
Mn1H O4 1_555 1_555
N3K Mn1 1_555 1_555
O4H Mn1 1_555 1_555
C2 C7 1_555 1_555
C6 C7 1_555 1_555
C6 C8 1_555 1_555
C13 C14 1_555 1_555
Mn1H O4H 1_555 1_555

#END
