
#######################################################################
#
#                 Cambridge Crystallographic Data Centre
#                                CCDC 
#
#######################################################################
#
# If this CIF has been generated from an entry in the Cambridge 
# Structural Database, then it will include bibliographic, chemical, 
# crystal, experimental, refinement or atomic coordinate data resulting 
# from the CCDC's data processing and validation procedures.
#
#######################################################################

data_VAKDEQ
_symmetry_cell_setting           orthorhombic
_symmetry_space_group_name_H-M   'P 21 21 21'
_symmetry_Int_Tables_number      19
_space_group_name_Hall           'P 2ac 2ab'
loop_
_symmetry_equiv_pos_site_id
_symmetry_equiv_pos_as_xyz
1 x,y,z
2 1/2-x,-y,1/2+z
3 -x,1/2+y,1/2-z
4 1/2+x,1/2-y,-z
_cell_length_a                   7.1050(14)
_cell_length_b                   10.997(2)
_cell_length_c                   15.556(3)
_cell_angle_alpha                90
_cell_angle_beta                 90
_cell_angle_gamma                90
_cell_volume                     1215.45
loop_
_atom_site_label
_atom_site_type_symbol
_atom_site_fract_x
_atom_site_fract_y
_atom_site_fract_z
Tl1 Tl -0.00421(4) -0.55177(2) 0.19486(2)
N1 N -0.2014(9) -0.3580(6) 0.2244(4)
N2 N -0.0575(8) -0.4522(6) 0.3359(4)
N3 N -0.2755(9) -0.1477(6) 0.2105(4)
C1 C -0.1731(10) -0.3614(7) 0.3109(5)
C2 C -0.2616(11) -0.2860(7) 0.3740(5)
H1 H -0.3436(11) -0.2220(7) 0.3574(5)
C3 C -0.2252(12) -0.3085(8) 0.4593(5)
H2 H -0.2835(12) -0.2600(8) 0.5023(5)
C4 C -0.1036(12) -0.4018(8) 0.4831(5)
H3 H -0.0750(12) -0.4171(8) 0.5418(5)
C5 C -0.0264(11) -0.4708(7) 0.4188(5)
H4 H 0.0543(11) -0.5359(7) 0.4346(5)
C6 C -0.2855(10) -0.2656(7) 0.1822(5)
C7 C -0.3750(12) -0.2907(8) 0.1036(5)
H5 H -0.3702(12) -0.3705(8) 0.0804(5)
C8 C -0.4668(12) -0.2031(8) 0.0613(5)
H6 H -0.5294(12) -0.2217(8) 0.0089(5)
C9 C -0.4716(12) -0.0839(8) 0.0934(5)
H7 H -0.5396(12) -0.0211(8) 0.0652(5)
C10 C -0.3737(11) -0.0633(7) 0.1669(5)
H8 H -0.3746(11) 0.0171(7) 0.1893(5)
C11 C 0.2094(12) -0.4528(8) 0.1279(6)
H9 H 0.3326(15) -0.4713(42) 0.1530(25)
H10 H 0.1846(48) -0.3654(8) 0.1328(33)
H11 H 0.2089(57) -0.4763(41) 0.0671(10)
C12 C -0.2185(13) -0.6838(8) 0.2158(6)
H12 H -0.3367(27) -0.6427(8) 0.2303(45)
H13 H -0.1816(46) -0.7373(40) 0.2633(30)
H14 H -0.2359(69) -0.7322(42) 0.1635(15)
Tl1B Tl 0.00421(4) -0.05177(2) 0.30514(2)
N3B N 0.2755(9) -0.6477(6) 0.2895(4)
loop_
_geom_bond_atom_site_label_1
_geom_bond_atom_site_label_2
_geom_bond_site_symmetry_1
_geom_bond_site_symmetry_2
Tl1 N1 1_555 1_555
N1 C1 1_555 1_555
N2 Tl1 1_555 1_555
N3 C6 1_555 1_555
C1 N2 1_555 1_555
C2 C1 1_555 1_555
H1 C2 1_555 1_555
C3 C2 1_555 1_555
H2 C3 1_555 1_555
C4 C3 1_555 1_555
H3 C4 1_555 1_555
C5 N2 1_555 1_555
H4 C5 1_555 1_555
C6 N1 1_555 1_555
C7 C6 1_555 1_555
H5 C7 1_555 1_555
C8 C7 1_555 1_555
H6 C8 1_555 1_555
C9 C8 1_555 1_555
H7 C9 1_555 1_555
C10 N3 1_555 1_555
H8 C10 1_555 1_555
C11 Tl1 1_555 1_555
H9 C11 1_555 1_555
H10 C11 1_555 1_555
H11 C11 1_555 1_555
C12 Tl1 1_555 1_555
H12 C12 1_555 1_555
H13 C12 1_555 1_555
H14 C12 1_555 1_555
Tl1B N3 1_555 1_555
N3B Tl1 1_555 1_555
C4 C5 1_555 1_555
C9 C10 1_555 1_555

#END
