
#######################################################################
#
#                 Cambridge Crystallographic Data Centre
#                                CCDC 
#
#######################################################################
#
# If this CIF has been generated from an entry in the Cambridge 
# Structural Database, then it will include bibliographic, chemical, 
# crystal, experimental, refinement or atomic coordinate data resulting 
# from the CCDC's data processing and validation procedures.
#
#######################################################################

data_VAKKOI
_symmetry_cell_setting           monoclinic
_symmetry_space_group_name_H-M   'P 21'
_symmetry_Int_Tables_number      4
_space_group_name_Hall           'P 2yb'
loop_
_symmetry_equiv_pos_site_id
_symmetry_equiv_pos_as_xyz
1 x,y,z
2 -x,1/2+y,-z
_cell_length_a                   11.746(2)
_cell_length_b                   24.872(4)
_cell_length_c                   13.064(2)
_cell_angle_alpha                90
_cell_angle_beta                 96.58(1)
_cell_angle_gamma                90
_cell_volume                     3791.46
loop_
_atom_site_label
_atom_site_type_symbol
_atom_site_fract_x
_atom_site_fract_y
_atom_site_fract_z
Cu1 Cu -0.29751(9) 0.0004 0.07437(9)
Cu2 Cu -0.77404(9) 0.10517(6) 0.29708(8)
Cu3 Cu -0.17998(9) 0.13636(7) 0.35582(9)
Cu4 Cu -0.0281(1) -0.04960(7) 0.37703(10)
Cu5 Cu 0.10828(9) -0.02225(7) 0.00900(9)
Cu6 Cu -0.0580(1) 0.15872(7) 0.0021(1)
Cl1 Cl -0.1790(4) 0.0408(2) 0.5532(3)
Cl2 Cl 0.1495(4) -0.1284(2) 0.2071(3)
Cl3 Cl 0.0995(5) 0.0860(2) -0.1866(3)
Cl4 Cl -0.1823(3) 0.2496(1) 0.1733(2)
Na1 Na -0.0363(4) 0.0541(2) 0.1871(4)
O1 O -0.2208(6) 0.0803(3) 0.2576(5)
O2 O -0.3634(6) 0.0261(3) 0.1979(5)
O3 O -0.6068(6) 0.1445(4) 0.3740(6)
O4 O -1.0228(5) 0.1310(3) 0.3236(5)
O5 O -0.8519(6) 0.1695(3) 0.3486(6)
O6 O -1.0348(8) 0.2899(4) 0.5849(8)
O7 O -0.1253(6) -0.0329(3) 0.2504(6)
O8 O -0.2634(7) -0.0670(3) 0.1402(6)
O9 O -0.301(2) -0.1956(5) 0.430(1)
O10 O -0.9352(6) 0.0148(3) 0.3498(5)
O11 O -0.7966(6) 0.0677(3) 0.4215(5)
O12 O -0.7624(9) -0.0902(5) 0.6875(7)
O13 O -0.0505(6) -0.0077(3) 0.0264(5)
O14 O -0.2280(6) -0.0185(4) -0.0488(6)
O15 O -0.0032(8) -0.1169(4) -0.3102(6)
O16 O -0.8477(5) 0.0219(3) 0.1322(5)
O17 O -0.6977(6) 0.0465(3) 0.2400(5)
O18 O -0.4663(6) -0.0330(4) -0.0092(7)
O19 O -0.1572(6) 0.1036(3) 0.0418(6)
O20 O -0.3359(6) 0.0727(3) 0.0157(6)
O21 O -0.385(1) 0.2356(6) -0.214(1)
O22 O -0.9394(6) 0.1346(3) 0.1065(6)
O23 O -0.7586(6) 0.1466(3) 0.1705(5)
O24 O -0.766(1) 0.2793(5) -0.1166(10)
O25 O -0.102(1) 0.0760(6) 0.508(1)
O26 O -0.256(3) 0.0169(10) 0.475(2)
O27 O -0.240(2) 0.0723(9) 0.615(2)
O28 O -0.121(1) 0.0012(6) 0.610(1)
O29 O 0.071(2) -0.1181(10) 0.269(2)
O30 O 0.113(3) -0.121(2) 0.1064(10)
O31 O 0.170(2) -0.1822(8) 0.235(3)
O32 O 0.242(2) -0.0933(7) 0.237(1)
O33 O 0.145(2) 0.0725(7) -0.088(1)
O34 O -0.028(2) 0.095(1) -0.158(2)
O35 O 0.101(1) 0.0424(5) -0.2506(9)
O36 O 0.103(2) 0.1348(7) -0.233(1)
O37 O -0.072(1) 0.2351(6) 0.154(1)
O38 O -0.2447(10) 0.2022(4) 0.1957(9)
O39 O -0.239(2) 0.2762(6) 0.0850(9)
O40 O -0.1731(10) 0.2866(5) 0.2591(7)
N1 N -0.3421(6) 0.1322(4) 0.3898(6)
N2 N -1.1225(7) 0.2038(4) 0.4372(6)
N3 N -0.1271(8) -0.1133(4) 0.3869(7)
N4 N -0.9234(9) -0.0540(4) 0.5074(7)
N5 N 0.0469(6) -0.0555(4) -0.1234(6)
N6 N -0.7261(7) -0.0396(4) 0.0142(7)
N7 N -0.1984(8) 0.1897(4) -0.0812(7)
N8 N -0.9325(9) 0.2040(4) -0.0494(8)
C1 C -0.4034(7) 0.0944(4) 0.3135(8)
C2 C -0.4840(8) 0.1327(5) 0.2425(8)
C3 C -0.5222(9) 0.1715(5) 0.3206(9)
C4 C -0.4125(9) 0.1825(6) 0.390(1)
C5 C -0.3224(7) 0.0651(4) 0.2530(7)
C6 C -1.0005(8) 0.2113(4) 0.4254(8)
C7 C -0.9403(9) 0.2095(6) 0.5383(10)
C8 C -1.025(1) 0.2318(5) 0.5989(8)
C9 C -1.135(1) 0.2048(5) 0.5510(9)
C10 C -0.9565(8) 0.1670(4) 0.3609(7)
C11 C -0.213(1) -0.1167(5) 0.2914(9)
C12 C -0.326(1) -0.1179(9) 0.326(2)
C13 C -0.310(1) -0.1389(8) 0.437(1)
C14 C -0.193(1) -0.1154(6) 0.478(1)
C15 C -0.1965(9) -0.0694(4) 0.2216(8)
C16 C -0.861(1) -0.0019(5) 0.5250(8)
C17 C -0.743(1) -0.0150(7) 0.575(1)
C18 C -0.736(1) -0.0758(6) 0.5853(10)
C19 C -0.835(1) -0.0935(6) 0.5060(10)
C20 C -0.8634(8) 0.0294(4) 0.4249(7)
C21 C -0.0788(8) -0.0409(4) -0.1446(8)
C22 C -0.139(1) -0.0900(6) -0.1969(10)
C23 C -0.040(1) -0.1298(5) -0.2151(10)
C24 C 0.053(1) -0.1145(5) -0.1267(9)
C25 C -0.1240(8) -0.0213(4) -0.0497(7)
C26 C -0.6620(8) -0.0068(4) 0.0966(7)
C27 C -0.5983(8) 0.0351(5) 0.0342(8)
C28 C -0.5626(8) 0.0010(6) -0.0519(8)
C29 C -0.6683(9) -0.0327(7) -0.0818(9)
C30 C -0.7410(8) 0.0216(4) 0.1613(7)
C31 C -0.2992(10) 0.1574(6) -0.0581(9)
C32 C -0.371(2) 0.1425(9) -0.159(1)
C33 C -0.333(2) 0.1868(8) -0.233(1)
C34 C -0.208(1) 0.1910(6) -0.1952(10)
C35 C -0.2603(8) 0.1078(5) 0.0040(8)
C36 C -0.8256(9) 0.1941(5) 0.0199(8)
C37 C -0.788(1) 0.2500(6) 0.056(1)
C38 C -0.831(1) 0.2851(6) -0.030(1)
C39 C -0.947(1) 0.2633(6) -0.059(1)
C40 C -0.8436(9) 0.1566(5) 0.1064(7)
H1 H -0.3413 0.1168 0.4564
H2 H -0.4484 0.0694 0.3469
H3 H -0.4426 0.1504 0.1935
H4 H -0.5468 0.1139 0.2072
H5 H -0.5512 0.2035 0.2876
H6 H -0.4280 0.1911 0.4564
H7 H -0.3715 0.2115 0.3621
H8 H -1.1631 0.2342 0.4066
H9 H -0.9888 0.2452 0.3950
H10 H -0.9193 0.1741 0.5588
H11 H -0.8723 0.2316 0.5448
H12 H -1.0083 0.2224 0.6705
H13 H -1.2015 0.2256 0.5649
H14 H -1.1435 0.1696 0.5779
H15 H -0.0787 -0.1443 0.3891
H16 H -0.2009 -0.1495 0.2555
H17 H -0.3621 -0.0821 0.3227
H18 H -0.3803 -0.1405 0.2820
H19 H -0.3707 -0.1282 0.4773
H20 H -0.1547 -0.1381 0.5297
H21 H -0.2002 -0.0805 0.5050
H22 H -0.9665 -0.0608 0.5637
H23 H -0.8979 0.0197 0.5721
H24 H -0.6848 -0.0048 0.5266
H25 H -0.7212 0.0020 0.6364
H26 H -0.6631 -0.0908 0.5724
H27 H -0.8620 -0.1287 0.5234
H28 H -0.8093 -0.0962 0.4390
H29 H 0.0871 -0.0412 -0.1767
H30 H -0.0854 -0.0122 -0.1929
H31 H -0.1921 -0.1054 -0.1536
H32 H -0.1829 -0.0800 -0.2608
H33 H -0.0643 -0.1670 -0.2112
H34 H 0.1271 -0.1263 -0.1427
H35 H 0.0394 -0.1300 -0.0628
H36 H -0.7171 -0.0759 0.0349
H37 H -0.6092 -0.0288 0.1378
H38 H -0.6481 0.0637 0.0084
H39 H -0.5342 0.0505 0.0760
H40 H -0.5420 0.0214 -0.1084
H41 H -0.6473 -0.0675 -0.1049
H42 H -0.7174 -0.0157 -0.1328
H43 H -0.2100 0.2255 -0.0572
H44 H -0.3428 0.1789 -0.0153
H45 H -0.3639 0.1076 -0.1759
H46 H -0.4546 0.1485 -0.1469
H47 H -0.3482 0.1747 -0.3054
H48 H -0.1788 0.2245 -0.2176
H49 H -0.1654 0.1624 -0.2198
H50 H -0.9206 0.1903 -0.1150
H51 H -0.7708 0.1789 -0.0200
H52 H -0.8161 0.2599 0.1174
H53 H -0.7034 0.2514 0.0681
H54 H -0.8291 0.3218 -0.0079
H55 H -0.9771 0.2719 -0.1314
H56 H -1.0041 0.2759 -0.0181
Cu5_2 Cu -0.89172(9) -0.02225(7) 0.00900(9)
Na1_2 Na -1.0363(4) 0.0541(2) 0.1871(4)
O4_2 O -0.0228(5) 0.1310(3) 0.3236(5)
O5_2 O 0.1481(6) 0.1695(3) 0.3486(6)
O6_2 O -0.0348(8) 0.2899(4) 0.5849(8)
N2_2 N -0.1225(7) 0.2038(4) 0.4372(6)
C6_2 C -0.0005(8) 0.2113(4) 0.4254(8)
C7_2 C 0.0597(9) 0.2095(6) 0.5383(10)
C8_2 C -0.025(1) 0.2318(5) 0.5989(8)
C9_2 C -0.135(1) 0.2048(5) 0.5510(9)
C10_2 C 0.0435(8) 0.1670(4) 0.3609(7)
H8_2 H -0.1631 0.2342 0.4066
H9_2 H 0.0112 0.2452 0.3950
H10_2 H 0.0807 0.1741 0.5588
H11_2 H 0.1277 0.2316 0.5448
H12_2 H -0.0083 0.2224 0.6705
H13_2 H -0.2015 0.2256 0.5649
H14_2 H -0.1435 0.1696 0.5779
O10_2 O 0.0648(6) 0.0148(3) 0.3498(5)
O11_2 O 0.2034(6) 0.0677(3) 0.4215(5)
O12_2 O 0.2376(9) -0.0902(5) 0.6875(7)
N4_2 N 0.0766(9) -0.0540(4) 0.5074(7)
C16_2 C 0.139(1) -0.0019(5) 0.5250(8)
C17_2 C 0.257(1) -0.0150(7) 0.575(1)
C18_2 C 0.264(1) -0.0758(6) 0.5853(10)
C19_2 C 0.165(1) -0.0935(6) 0.5060(10)
C20_2 C 0.1366(8) 0.0294(4) 0.4249(7)
H22_2 H 0.0335 -0.0608 0.5637
H23_2 H 0.1021 0.0197 0.5721
H24_2 H 0.3152 -0.0048 0.5266
H25_2 H 0.2788 0.0020 0.6364
H26_2 H 0.3369 -0.0908 0.5724
H27_2 H 0.1380 -0.1287 0.5234
H28_2 H 0.1907 -0.0962 0.4390
O16_2 O 0.1523(5) 0.0219(3) 0.1322(5)
O17_2 O 0.3023(6) 0.0465(3) 0.2400(5)
O18_2 O 0.5337(6) -0.0330(4) -0.0092(7)
N6_2 N 0.2739(7) -0.0396(4) 0.0142(7)
C26_2 C 0.3380(8) -0.0068(4) 0.0966(7)
C27_2 C 0.4017(8) 0.0351(5) 0.0342(8)
C28_2 C 0.4374(8) 0.0010(6) -0.0519(8)
C29_2 C 0.3317(9) -0.0327(7) -0.0818(9)
C30_2 C 0.2590(8) 0.0216(4) 0.1613(7)
H36_2 H 0.2829 -0.0759 0.0349
H37_2 H 0.3908 -0.0288 0.1378
H38_2 H 0.3519 0.0637 0.0084
H39_2 H 0.4658 0.0505 0.0760
H40_2 H 0.4580 0.0214 -0.1084
H41_2 H 0.3527 -0.0675 -0.1049
H42_2 H 0.2826 -0.0157 -0.1328
O22_2 O 0.0606(6) 0.1346(3) 0.1065(6)
O23_2 O 0.2414(6) 0.1466(3) 0.1705(5)
O24_2 O 0.234(1) 0.2793(5) -0.1166(10)
N8_2 N 0.0675(9) 0.2040(4) -0.0494(8)
C36_2 C 0.1744(9) 0.1941(5) 0.0199(8)
C37_2 C 0.212(1) 0.2500(6) 0.056(1)
C38_2 C 0.169(1) 0.2851(6) -0.030(1)
C39_2 C 0.053(1) 0.2633(6) -0.059(1)
C40_2 C 0.1564(9) 0.1566(5) 0.1064(7)
H50_2 H 0.0794 0.1903 -0.1150
H51_2 H 0.2292 0.1789 -0.0200
H52_2 H 0.1839 0.2599 0.1174
H53_2 H 0.2966 0.2514 0.0681
H54_2 H 0.1709 0.3218 -0.0079
H55_2 H 0.0229 0.2719 -0.1314
H56_2 H -0.0041 0.2759 -0.0181
Cu1_2 Cu 0.70249(9) 0.0004 0.07437(9)
Cu2_2 Cu 0.22596(9) 0.10517(6) 0.29708(8)
Cu3_2 Cu -1.17998(9) 0.13636(7) 0.35582(9)
Cu4_2 Cu -1.0281(1) -0.04960(7) 0.37703(10)
Cu6_2 Cu -1.0580(1) 0.15872(7) 0.0021(1)
Cl5 Cl 0.5316(5) -0.1459(3) -0.2394(6)
O41 O 0.545(3) -0.106(2) -0.167(4)
O42 O 0.425(2) -0.157(1) -0.230(3)
O43 O 0.619(2) -0.181(1) -0.214(3)
O44 O 0.570(5) -0.123(4) -0.357(5)
O45 O 0.436(5) 0.345(1) -0.067(4)
O46 O -0.381(4) 0.3063(10) -0.458(5)
O47 O -0.372(3) 0.346(1) -0.031(4)
O48 O -0.368(2) -0.271(1) 0.279(2)
loop_
_geom_bond_atom_site_label_1
_geom_bond_atom_site_label_2
_geom_bond_site_symmetry_1
_geom_bond_site_symmetry_2
Cu1 O2 1_555 1_555
Cu2 O3 1_555 1_555
Cu3 O1 1_555 1_555
Cu4 O7 1_555 1_555
Cu5 O13 1_555 1_555
Cu6 O19 1_555 1_555
Cl1 O25 1_555 1_555
Cl2 O29 1_555 1_555
Cl3 O33 1_555 1_555
Cl4 O37 1_555 1_555
Cl5 O41 1_555 1_555
Na1 O1 1_555 1_555
O1 C5 1_555 1_555
O2 C5 1_555 1_555
O3 C3 1_555 1_555
O4 C10 1_555 1_555
O5 Cu2 1_555 1_555
O6 C8 1_555 1_555
O7 Na1 1_555 1_555
O8 Cu1 1_555 1_555
O9 C13 1_555 1_555
O10 C20 1_555 1_555
O11 Cu2 1_555 1_555
O12 C18 1_555 1_555
O13 Na1 1_555 1_555
O14 Cu1 1_555 1_555
O15 C23 1_555 1_555
O16 C30 1_555 1_555
O17 Cu2 1_555 1_555
O18 Cu1 1_555 1_555
O19 Na1 1_555 1_555
O20 Cu1 1_555 1_555
O21 C33 1_555 1_555
O22 C40 1_555 1_555
O23 Cu2 1_555 1_555
O24 C38 1_555 1_555
O25 Cu3 1_555 1_555
O26 Cu4 1_555 1_555
O27 Cl1 1_555 1_555
O28 Cu4 1_555 1_555
O29 Cu4 1_555 1_555
O30 Cu5 1_555 1_555
O31 Cl2 1_555 1_555
O32 Cl2 1_555 1_555
O33 Cu5 1_555 1_555
O34 Cu6 1_555 1_555
O35 Cl3 1_555 1_555
O36 Cl3 1_555 1_555
O37 Cu6 1_555 1_555
O38 Cu3 1_555 1_555
O39 Cl4 1_555 1_555
O40 Cl4 1_555 1_555
O42 Cl5 1_555 1_555
O43 Cl5 1_555 1_555
O44 Cl5 1_555 1_555
N1 Cu3 1_555 1_555
N2 C6 1_555 1_555
N3 Cu4 1_555 1_555
N4 C16 1_555 1_555
N5 Cu5 1_555 1_555
N6 C26 1_555 1_555
N7 Cu6 1_555 1_555
N8 C36 1_555 1_555
C1 N1 1_555 1_555
C2 C1 1_555 1_555
C3 C2 1_555 1_555
C4 N1 1_555 1_555
C5 C1 1_555 1_555
C6 C7 1_555 1_555
C7 C8 1_555 1_555
C8 C9 1_555 1_555
C9 N2 1_555 1_555
C10 O5 1_555 1_555
C11 N3 1_555 1_555
C12 C11 1_555 1_555
C13 C12 1_555 1_555
C14 N3 1_555 1_555
C15 O7 1_555 1_555
C16 C17 1_555 1_555
C17 C18 1_555 1_555
C18 C19 1_555 1_555
C19 N4 1_555 1_555
C20 O11 1_555 1_555
C21 N5 1_555 1_555
C22 C21 1_555 1_555
C23 C22 1_555 1_555
C24 N5 1_555 1_555
C25 O13 1_555 1_555
C26 C27 1_555 1_555
C27 C28 1_555 1_555
C28 O18 1_555 1_555
C29 N6 1_555 1_555
C30 O17 1_555 1_555
C31 N7 1_555 1_555
C32 C31 1_555 1_555
C33 C32 1_555 1_555
C34 N7 1_555 1_555
C35 O19 1_555 1_555
C36 C37 1_555 1_555
C37 C38 1_555 1_555
C38 C39 1_555 1_555
C39 N8 1_555 1_555
C40 O23 1_555 1_555
H1 N1 1_555 1_555
H2 C1 1_555 1_555
H3 C2 1_555 1_555
H4 C2 1_555 1_555
H5 C3 1_555 1_555
H6 C4 1_555 1_555
H7 C4 1_555 1_555
H8 N2 1_555 1_555
H9 C6 1_555 1_555
H10 C7 1_555 1_555
H11 C7 1_555 1_555
H12 C8 1_555 1_555
H13 C9 1_555 1_555
H14 C9 1_555 1_555
H15 N3 1_555 1_555
H16 C11 1_555 1_555
H17 C12 1_555 1_555
H18 C12 1_555 1_555
H19 C13 1_555 1_555
H20 C14 1_555 1_555
H21 C14 1_555 1_555
H22 N4 1_555 1_555
H23 C16 1_555 1_555
H24 C17 1_555 1_555
H25 C17 1_555 1_555
H26 C18 1_555 1_555
H27 C19 1_555 1_555
H28 C19 1_555 1_555
H29 N5 1_555 1_555
H30 C21 1_555 1_555
H31 C22 1_555 1_555
H32 C22 1_555 1_555
H33 C23 1_555 1_555
H34 C24 1_555 1_555
H35 C24 1_555 1_555
H36 N6 1_555 1_555
H37 C26 1_555 1_555
H38 C27 1_555 1_555
H39 C27 1_555 1_555
H40 C28 1_555 1_555
H41 C29 1_555 1_555
H42 C29 1_555 1_555
H43 N7 1_555 1_555
H44 C31 1_555 1_555
H45 C32 1_555 1_555
H46 C32 1_555 1_555
H47 C33 1_555 1_555
H48 C34 1_555 1_555
H49 C34 1_555 1_555
H50 N8 1_555 1_555
H51 C36 1_555 1_555
H52 C37 1_555 1_555
H53 C37 1_555 1_555
H54 C38 1_555 1_555
H55 C39 1_555 1_555
H56 C39 1_555 1_555
Cu5_2 O16 1_555 1_555
Na1_2 O4 1_555 1_555
O4_2 Cu3 1_555 1_555
O5_2 C10_2 1_555 1_555
O6_2 C8_2 1_555 1_555
N2_2 Cu3 1_555 1_555
C6_2 N2_2 1_555 1_555
C7_2 C6_2 1_555 1_555
C8_2 C7_2 1_555 1_555
C9_2 N2_2 1_555 1_555
C10_2 O4_2 1_555 1_555
H8_2 N2_2 1_555 1_555
H9_2 C6_2 1_555 1_555
H10_2 C7_2 1_555 1_555
H11_2 C7_2 1_555 1_555
H12_2 C8_2 1_555 1_555
H13_2 C9_2 1_555 1_555
H14_2 C9_2 1_555 1_555
O10_2 Cu4 1_555 1_555
O11_2 C20_2 1_555 1_555
O12_2 C18_2 1_555 1_555
N4_2 Cu4 1_555 1_555
C16_2 N4_2 1_555 1_555
C17_2 C16_2 1_555 1_555
C18_2 C17_2 1_555 1_555
C19_2 N4_2 1_555 1_555
C20_2 O10_2 1_555 1_555
H22_2 N4_2 1_555 1_555
H23_2 C16_2 1_555 1_555
H24_2 C17_2 1_555 1_555
H25_2 C17_2 1_555 1_555
H26_2 C18_2 1_555 1_555
H27_2 C19_2 1_555 1_555
H28_2 C19_2 1_555 1_555
O16_2 Cu5 1_555 1_555
O17_2 C30_2 1_555 1_555
O18_2 C28_2 1_555 1_555
N6_2 Cu5 1_555 1_555
C26_2 N6_2 1_555 1_555
C27_2 C26_2 1_555 1_555
C28_2 C27_2 1_555 1_555
C29_2 N6_2 1_555 1_555
C30_2 O16_2 1_555 1_555
H36_2 N6_2 1_555 1_555
H37_2 C26_2 1_555 1_555
H38_2 C27_2 1_555 1_555
H39_2 C27_2 1_555 1_555
H40_2 C28_2 1_555 1_555
H41_2 C29_2 1_555 1_555
H42_2 C29_2 1_555 1_555
O22_2 Cu6 1_555 1_555
O23_2 C40_2 1_555 1_555
O24_2 C38_2 1_555 1_555
N8_2 Cu6 1_555 1_555
C36_2 N8_2 1_555 1_555
C37_2 C36_2 1_555 1_555
C38_2 C37_2 1_555 1_555
C39_2 N8_2 1_555 1_555
C40_2 O22_2 1_555 1_555
H50_2 N8_2 1_555 1_555
H51_2 C36_2 1_555 1_555
H52_2 C37_2 1_555 1_555
H53_2 C37_2 1_555 1_555
H54_2 C38_2 1_555 1_555
H55_2 C39_2 1_555 1_555
H56_2 C39_2 1_555 1_555
Cu1_2 O18_2 1_555 1_555
Cu2_2 O5_2 1_555 1_555
Cu3_2 O4 1_555 1_555
Cu4_2 O10 1_555 1_555
Cu6_2 O22 1_555 1_555
Cl1 O26 1_555 1_555
Cl1 O28 1_555 1_555
Cl2 O30 1_555 1_555
Cl3 O34 1_555 1_555
Cl4 O38 1_555 1_555
Na1 O4_2 1_555 1_555
Na1 O10_2 1_555 1_555
Na1 O16_2 1_555 1_555
Na1 O22_2 1_555 1_555
O8 C15 1_555 1_555
O10 Na1_2 1_555 1_555
O14 C25 1_555 1_555
O16 Na1_2 1_555 1_555
O20 C35 1_555 1_555
O22 Na1_2 1_555 1_555
N2 Cu3_2 1_555 1_555
N4 Cu4_2 1_555 1_555
N6 Cu5_2 1_555 1_555
N8 Cu6_2 1_555 1_555
C3 C4 1_555 1_555
C6 C10 1_555 1_555
C11 C15 1_555 1_555
C13 C14 1_555 1_555
C16 C20 1_555 1_555
C21 C25 1_555 1_555
C23 C24 1_555 1_555
C26 C30 1_555 1_555
C28 C29 1_555 1_555
C31 C35 1_555 1_555
C33 C34 1_555 1_555
C36 C40 1_555 1_555
C6_2 C10_2 1_555 1_555
C8_2 C9_2 1_555 1_555
O11_2 Cu2_2 1_555 1_555
C16_2 C20_2 1_555 1_555
C18_2 C19_2 1_555 1_555
O17_2 Cu2_2 1_555 1_555
C26_2 C30_2 1_555 1_555
C28_2 C29_2 1_555 1_555
O23_2 Cu2_2 1_555 1_555
C36_2 C40_2 1_555 1_555
C38_2 C39_2 1_555 1_555

#END
