
#######################################################################
#
#                 Cambridge Crystallographic Data Centre
#                                CCDC 
#
#######################################################################
#
# If this CIF has been generated from an entry in the Cambridge 
# Structural Database, then it will include bibliographic, chemical, 
# crystal, experimental, refinement or atomic coordinate data resulting 
# from the CCDC's data processing and validation procedures.
#
#######################################################################

data_VAKREG
_symmetry_cell_setting           monoclinic
_symmetry_space_group_name_H-M   'C 2/c'
_symmetry_Int_Tables_number      15
_space_group_name_Hall           '-C 2yn'
loop_
_symmetry_equiv_pos_site_id
_symmetry_equiv_pos_as_xyz
1 x,y,z
2 -x,y,1/2-z
3 1/2+x,1/2+y,z
4 1/2-x,1/2+y,1/2-z
5 -x,-y,-z
6 x,-y,1/2+z
7 1/2-x,1/2-y,-z
8 1/2+x,1/2-y,1/2+z
_cell_length_a                   33.225(4)
_cell_length_b                   9.851(1)
_cell_length_c                   17.7341(19)
_cell_angle_alpha                90
_cell_angle_beta                 99.335(2)
_cell_angle_gamma                90
_cell_volume                     5727.49
loop_
_atom_site_label
_atom_site_type_symbol
_atom_site_fract_x
_atom_site_fract_y
_atom_site_fract_z
Co1 Co 0.2500 -0.2500 1.0000
Co2 Co 0.14935(3) -0.17912(10) 0.96560(5)
O1 O 0.15820(15) -0.2926(6) 0.8775(3)
O2 O 0.22649(15) -0.2890(5) 0.8886(3)
O3 O 0.15000(15) -0.6878(6) 0.5519(3)
O4 O 0.21220(14) -0.6138(5) 0.5392(3)
O5 O 0.16910(17) 0.0182(6) 0.9115(3)
O6 O 0.20507(14) -0.0894(5) 1.0081(3)
O7 O 0.11152(16) -0.0403(6) 1.0328(3)
O8 O 0.08743(17) -0.1588(7) 0.9317(3)
C1 C 0.1888(2) -0.3967(8) 0.7817(4)
C2 C 0.2231(2) -0.4127(8) 0.7474(4)
H1 H 0.2480 -0.3772 0.7704
C3 C 0.2201(2) -0.4817(8) 0.6789(4)
H2 H 0.2430 -0.4901 0.6555
C4 C 0.1839(2) -0.5380(7) 0.6449(4)
C5 C 0.1496(2) -0.5225(9) 0.6795(4)
H3 H 0.1248 -0.5594 0.6568
C6 C 0.1522(2) -0.4525(9) 0.7473(4)
H4 H 0.1291 -0.4426 0.7701
C7 C 0.1916(2) -0.3206(7) 0.8551(4)
C8 C 0.1817(2) -0.6193(7) 0.5728(4)
C9 C 0.2205(2) 0.2504(8) 0.9351(4)
H5 H 0.2008 0.2501 0.8913
C10 C 0.2255(2) 0.1364(7) 0.9822(4)
C11 C 0.2556(2) 0.1369(8) 1.0472(4)
H6 H 0.2594 0.0607 1.0785
C12 C 0.1987(2) 0.0166(7) 0.9642(4)
C13 C 0.0333(3) 0.0632(12) 1.0439(6)
H7 H 0.0555 0.1057 1.0733
C14 C 0.0394(3) -0.0385(11) 0.9926(5)
C15 C 0.0067(3) -0.1014(12) 0.9488(6)
H8 H 0.0110 -0.1692 0.9145
C16 C 0.0820(2) -0.0799(10) 0.9855(5)
Co1C Co 0.2500 -0.7500 0.5000
Co1_2 Co 0.2500 0.7500 1.0000
Co1C_2 Co 0.2500 0.2500 0.5000
Co2C Co 0.35065(3) 0.32088(10) 0.53440(5)
Co2E Co 0.14935(3) -0.82088(10) 0.46560(5)
Co2F Co 0.35065(3) 0.67912(10) 1.03440(5)
Co2D Co -0.14935(3) 0.17912(10) 1.03440(5)
Co2F_2 Co 0.35065(3) -0.32088(10) 1.03440(5)
O1C O 0.34180(15) 0.2074(6) 0.6225(3)
O2C O 0.27351(15) 0.2110(5) 0.6114(3)
O2F O 0.27351(15) -0.2110(5) 1.1114(3)
O3C O 0.35000(15) -0.1878(6) 0.9481(3)
O3E O 0.15000(15) -0.3122(6) 1.0519(3)
O3F O 0.35000(15) 0.1878(6) 0.4481(3)
O4C O 0.28780(14) -0.1138(5) 0.9608(3)
O4E O 0.21220(14) -0.3862(5) 1.0392(3)
O5F O 0.33090(17) 0.4818(6) 1.0885(3)
O5C O 0.33090(17) 0.5182(6) 0.5885(3)
O6F O 0.29493(14) 0.5894(5) 0.9919(3)
O6F_2 O 0.29493(14) -0.4106(5) 0.9919(3)
O6C O 0.29493(14) 0.4106(5) 0.4919(3)
O7D O -0.11152(16) 0.0403(6) 0.9672(3)
O7C O 0.38848(16) 0.4597(6) 0.4672(3)
O8D O -0.08743(17) 0.1588(7) 1.0683(3)
O8C O 0.41257(17) 0.3412(7) 0.5683(3)
C1C C 0.3112(2) 0.1033(8) 0.7183(4)
C2C C 0.2769(2) 0.0873(8) 0.7526(4)
H1C H 0.2520 0.1228 0.7296
C3C C 0.2799(2) 0.0183(8) 0.8211(4)
H2C H 0.2570 0.0099 0.8445
C4C C 0.3161(2) -0.0380(7) 0.8551(4)
C5C C 0.3504(2) -0.0225(9) 0.8205(4)
H3C H 0.3752 -0.0594 0.8432
C6C C 0.3478(2) 0.0475(9) 0.7527(4)
H4C H 0.3709 0.0574 0.7299
C7C C 0.3084(2) 0.1794(7) 0.6449(4)
C8C C 0.3183(2) -0.1193(7) 0.9272(4)
C9F C 0.2795(2) 0.2496(8) 1.0649(4)
H5F H 0.2992 0.2499 1.1087
C10F C 0.2745(2) 0.3636(7) 1.0178(4)
C11F C 0.2444(2) 0.3631(8) 0.9528(4)
H6F H 0.2406 0.4393 0.9215
C12F C 0.3013(2) 0.4834(7) 1.0358(4)
C13D C -0.0333(3) -0.0632(12) 0.9561(6)
H7D H -0.0555 -0.1057 0.9267
C14D C -0.0394(3) 0.0385(11) 1.0074(5)
C15D C -0.0067(3) 0.1014(12) 1.0512(6)
H8D H -0.0110 0.1692 1.0855
C16D C -0.0820(2) 0.0799(10) 1.0145(5)
O9 O -0.0859(4) -0.1227(13) 0.7436(7)
N1 N -0.1358(4) -0.0122(15) 0.8134(8)
C17 C -0.1106(5) -0.1013(18) 0.7841(11)
H9 H -0.1148 -0.1846 0.8063
C18 C -0.1411(5) 0.1143(14) 0.7747(11)
H10 H -0.1150 0.1493 0.7678
H11 H -0.1541 0.1772 0.8044
H12 H -0.1578 0.1018 0.7257
C19 C -0.1761(5) -0.0807(18) 0.8192(11)
H13 H -0.1712 -0.1720 0.8371
H14 H -0.1930 -0.0820 0.7697
H15 H -0.1898 -0.0313 0.8543
N2 N 0.0407(13) -0.490(4) 0.6767(19)
H16 H 0.0183 -0.5057 0.6975
H17 H 0.0623 -0.5211 0.7093
C20 C 0.0438(16) -0.343(4) 0.675(3)
H18 H 0.0456 -0.3001 0.7236
H19 H 0.0681 -0.3244 0.6536
H20 H 0.0205 -0.3077 0.6409
C21 C 0.0383(15) -0.560(4) 0.601(2)
H21 H 0.0354 -0.6548 0.6108
H22 H 0.0150 -0.5287 0.5662
H23 H 0.0625 -0.5454 0.5789
N3 N 0.0973(7) -0.348(4) 0.425(2)
O10 O 0.0729(13) -0.272(5) 0.311(3)
C22 C 0.0890(12) -0.242(5) 0.378(3)
H24 H 0.0947 -0.1529 0.3934
C23 C 0.0885(9) -0.486(4) 0.4019(16)
H25 H 0.0772 -0.4894 0.3486
H26 H 0.0672 -0.4978 0.4319
H27 H 0.1084 -0.5567 0.4137
C24 C 0.1155(9) -0.322(3) 0.5018(18)
H28 H 0.1267 -0.2324 0.5035
H29 H 0.1370 -0.3866 0.5175
H30 H 0.0958 -0.3277 0.5357
N4? N 0.0308(10) -0.846(4) 0.7635(19)
H31? H 0.0561 -0.8813 0.7700
H32? H 0.0276 -0.8044 0.8074
C25? C 0.0000 -0.957(3) 0.7500
H33? H 0.0038 -1.0202 0.7917
H34? H -0.0270 -0.9198 0.7442
H35? H 0.0037 -1.0027 0.7038
C26? C 0.0284(15) -0.745(4) 0.699(3)
H36? H 0.0485 -0.6752 0.7118
H37? H 0.0324 -0.7879 0.6521
H38? H 0.0017 -0.7049 0.6924
N5? N 0.0857(7) -0.425(3) 0.4742(16)
O11? O 0.0522(11) -0.416(4) 0.574(2)
C27? C 0.0552(10) -0.468(4) 0.5120(19)
H39? H 0.0369 -0.5341 0.4909
C28? C 0.0885(9) -0.486(4) 0.4019(16)
H40? H 0.0711 -0.5640 0.3944
H41? H 0.1162 -0.5128 0.4010
H42? H 0.0802 -0.4213 0.3619
C29? C 0.1155(9) -0.322(3) 0.5018(18)
H43? H 0.1079 -0.2788 0.5459
H44? H 0.1165 -0.2561 0.4625
H45? H 0.1418 -0.3637 0.5154
loop_
_geom_bond_atom_site_label_1
_geom_bond_atom_site_label_2
_geom_bond_site_symmetry_1
_geom_bond_site_symmetry_2
Co1 O2 1_555 1_555
Co2 O1 1_555 1_555
O1 C7 1_555 1_555
O2 C7 1_555 1_555
O3 C8 1_555 1_555
O4 C8 1_555 1_555
O5 Co2 1_555 1_555
O6 Co1 1_555 1_555
O7 Co2 1_555 1_555
O8 Co2 1_555 1_555
C1 C2 1_555 1_555
C2 H1 1_555 1_555
C3 C2 1_555 1_555
H2 C3 1_555 1_555
C4 C3 1_555 1_555
C5 C4 1_555 1_555
H3 C5 1_555 1_555
C6 C1 1_555 1_555
H4 C6 1_555 1_555
C7 C1 1_555 1_555
C8 C4 1_555 1_555
C9 H5 1_555 1_555
C10 C9 1_555 1_555
C11 C10 1_555 1_555
H6 C11 1_555 1_555
C12 O5 1_555 1_555
C13 H7 1_555 1_555
C14 C13 1_555 1_555
C15 C14 1_555 1_555
H8 C15 1_555 1_555
C16 O7 1_555 1_555
O9 C17 1_555 1_555
N1 C17 1_555 1_555
C17 H9 1_555 1_555
C18 N1 1_555 1_555
H10 C18 1_555 1_555
H11 C18 1_555 1_555
H12 C18 1_555 1_555
C19 N1 1_555 1_555
H13 C19 1_555 1_555
H14 C19 1_555 1_555
H15 C19 1_555 1_555
N2 H16 1_555 1_555
H17 N2 1_555 1_555
C20 N2 1_555 1_555
H18 C20 1_555 1_555
H19 C20 1_555 1_555
H20 C20 1_555 1_555
C21 N2 1_555 1_555
H21 C21 1_555 1_555
H22 C21 1_555 1_555
H23 C21 1_555 1_555
N3 C22 1_555 1_555
O10 C22 1_555 1_555
C22 H24 1_555 1_555
C23 N3 1_555 1_555
H25 C23 1_555 1_555
H26 C23 1_555 1_555
H27 C23 1_555 1_555
C24 N3 1_555 1_555
H28 C24 1_555 1_555
H29 C24 1_555 1_555
H30 C24 1_555 1_555
Co1C O4 1_555 1_555
Co1_2 O6F 1_555 1_555
Co1C_2 O2C 1_555 1_555
Co2C O1C 1_555 1_555
Co2E O3 1_555 1_555
Co2F O5F 1_555 1_555
Co2D O7D 1_555 1_555
Co2F_2 O3C 1_555 1_555
O1C C7C 1_555 1_555
O2C C7C 1_555 1_555
O2F Co1 1_555 1_555
O3C C8C 1_555 1_555
O3E Co2 1_555 1_555
O3F Co2C 1_555 1_555
O4C Co1 1_555 1_555
O4E Co1 1_555 1_555
O5F C12F 1_555 1_555
O5C Co2C 1_555 1_555
O6F Co2F 1_555 1_555
O6F_2 Co1 1_555 1_555
O6C Co1C_2 1_555 1_555
O7D C16D 1_555 1_555
O7C Co2C 1_555 1_555
O8D Co2D 1_555 1_555
O8C Co2C 1_555 1_555
C1C C2C 1_555 1_555
C2C H1C 1_555 1_555
C3C C2C 1_555 1_555
H2C C3C 1_555 1_555
C4C C3C 1_555 1_555
C5C C4C 1_555 1_555
H3C C5C 1_555 1_555
C6C C1C 1_555 1_555
H4C C6C 1_555 1_555
C7C C1C 1_555 1_555
C8C O4C 1_555 1_555
C9F C11 1_555 1_555
H5F C9F 1_555 1_555
C10F C9F 1_555 1_555
C11F C9 1_555 1_555
H6F C11F 1_555 1_555
C12F O6F 1_555 1_555
C13D C15 1_555 1_555
H7D C13D 1_555 1_555
C14D C13D 1_555 1_555
C15D C13 1_555 1_555
H8D C15D 1_555 1_555
C16D O8D 1_555 1_555
Co2 O6 1_555 1_555
O6 C12 1_555 1_555
O8 C16 1_555 1_555
C5 C6 1_555 1_555
C10 C12 1_555 1_555
C14 C16 1_555 1_555
Co2C O6C 1_555 1_555
Co2F_2 O6F_2 1_555 1_555
C4C C8C 1_555 1_555
C5C C6C 1_555 1_555
C10F C11F 1_555 1_555
C10F C12F 1_555 1_555
C14D C15D 1_555 1_555
C14D C16D 1_555 1_555

#END
