
#######################################################################
#
#                 Cambridge Crystallographic Data Centre
#                                CCDC 
#
#######################################################################
#
# If this CIF has been generated from an entry in the Cambridge 
# Structural Database, then it will include bibliographic, chemical, 
# crystal, experimental, refinement or atomic coordinate data resulting 
# from the CCDC's data processing and validation procedures.
#
#######################################################################

data_VAKSOR
_symmetry_cell_setting           monoclinic
_symmetry_space_group_name_H-M   'P 21/n'
_symmetry_Int_Tables_number      14
_space_group_name_Hall           '-P 2yn'
loop_
_symmetry_equiv_pos_site_id
_symmetry_equiv_pos_as_xyz
1 x,y,z
2 1/2-x,1/2+y,1/2-z
3 -x,-y,-z
4 1/2+x,1/2-y,1/2+z
_cell_length_a                   6.5613(13)
_cell_length_b                   24.646(5)
_cell_length_c                   11.088(2)
_cell_angle_alpha                90
_cell_angle_beta                 99.26(3)
_cell_angle_gamma                90
_cell_volume                     1769.67
loop_
_atom_site_label
_atom_site_type_symbol
_atom_site_fract_x
_atom_site_fract_y
_atom_site_fract_z
Co1 Co 0.59638(11) 0.12696(3) 0.76601(7)
N1 N 0.8398(6) 0.17636(16) 0.8569(4)
N2 N 0.4642(7) 0.20387(17) 0.7411(4)
O1 O 0.3327(6) 0.08905(15) 0.6799(4)
O2 O 0.3165(7) 0.02385(18) 0.8150(4)
O3 O -0.2059(7) 0.06128(15) 0.7344(4)
O4 O -0.2509(6) 0.12701(15) 0.6028(4)
O5 O 0.5365(6) 0.10169(14) 0.9352(4)
H1 H 0.6487 0.0992 0.9853
H2 H 0.4786 0.0707 0.9289
C1 C 0.1047(8) 0.0145(2) 0.6236(6)
H7 H 0.0323 -0.0111 0.6694
C2 C -0.0555(9) 0.0516(2) 0.5530(5)
H8 H 0.0140 0.0774 0.5061
C3 C 0.2122(8) -0.0179(2) 0.5370(6)
H9 H 0.2867 0.0066 0.4911
H10 H 0.3118 -0.0421 0.5836
C4 C 0.2610(9) 0.0445(2) 0.7143(6)
C5 C -0.1769(9) 0.0827(2) 0.6339(5)
C6 C 1.0226(9) 0.1619(2) 0.9148(5)
H11 H 1.0425 0.1279 0.9122
C7 C 1.1669(9) 0.1983(2) 0.9715(6)
H12 H 1.2935 0.1861 1.0125
C8 C 1.1214(10) 0.2527(2) 0.9667(6)
H13 H 1.1999 0.2769 1.0038
C9 C 0.9297(10) 0.2701(2) 0.9048(5)
C10 C 0.7905(9) 0.2302(2) 0.8515(5)
C11 C 0.5915(9) 0.2447(2) 0.7881(5)
C12 C 0.5335(11) 0.2995(2) 0.7760(6)
C13 C 0.3368(12) 0.3103(3) 0.7115(7)
H14 H 0.3038 0.3437 0.7077
C14 C 0.2116(12) 0.2691(3) 0.6650(6)
H15 H 0.0800 0.2764 0.6231
C15 C 0.2804(9) 0.2164(2) 0.6803(6)
H16 H 0.1931 0.1916 0.6567
C16 C 0.8659(12) 0.3259(2) 0.8901(7)
H17 H 0.9556 0.3532 0.9233
C17 C 0.6784(13) 0.3392(2) 0.8288(7)
H18 H 0.6423 0.3756 0.8208
Co1B Co -0.59638(11) -0.12696(3) 0.23399(7)
Co1_2 Co -0.40362(11) 0.12696(3) 0.76601(7)
Co1B_2 Co 0.40362(11) -0.12696(3) 0.23399(7)
N1B N -0.8398(6) -0.17636(16) 0.1431(4)
N2B N -0.4642(7) -0.20387(17) 0.2589(4)
O1B O -0.3327(6) -0.08905(15) 0.3201(4)
O2B O -0.3165(7) -0.02385(18) 0.1850(4)
O3B O 0.2059(7) -0.06128(15) 0.2656(4)
O3_2 O 0.7941(7) 0.06128(15) 0.7344(4)
O3B_2 O -0.7941(7) -0.06128(15) 0.2656(4)
O4B O 0.2509(6) -0.12701(15) 0.3972(4)
O4_2 O 0.7491(6) 0.12701(15) 0.6028(4)
O4B_2 O -0.7491(6) -0.12701(15) 0.3972(4)
O5B O -0.5365(6) -0.10169(14) 0.0648(4)
H1B H -0.6487 -0.0992 0.0147
H2B H -0.4786 -0.0707 0.0711
C1B C -0.1047(8) -0.0145(2) 0.3764(6)
H7B H -0.0323 0.0111 0.3306
C2B C 0.0555(9) -0.0516(2) 0.4470(5)
H8B H -0.0140 -0.0774 0.4939
C3B C -0.2122(8) 0.0179(2) 0.4630(6)
H9B H -0.2867 -0.0066 0.5089
H10B H -0.3118 0.0421 0.4164
C4B C -0.2610(9) -0.0445(2) 0.2857(6)
C5B C 0.1769(9) -0.0827(2) 0.3661(5)
C6B C -1.0226(9) -0.1619(2) 0.0852(5)
H11B H -1.0425 -0.1279 0.0878
C7B C -1.1669(9) -0.1983(2) 0.0285(6)
H12B H -1.2935 -0.1861 -0.0125
C8B C -1.1214(10) -0.2527(2) 0.0333(6)
H13B H -1.1999 -0.2769 -0.0038
C9B C -0.9297(10) -0.2701(2) 0.0952(5)
C10B C -0.7905(9) -0.2302(2) 0.1485(5)
C11B C -0.5915(9) -0.2447(2) 0.2119(5)
C12B C -0.5335(11) -0.2995(2) 0.2240(6)
C13B C -0.3368(12) -0.3103(3) 0.2885(7)
H14B H -0.3038 -0.3437 0.2923
C14B C -0.2116(12) -0.2691(3) 0.3350(6)
H15B H -0.0800 -0.2764 0.3769
C15B C -0.2804(9) -0.2164(2) 0.3197(6)
H16B H -0.1931 -0.1916 0.3433
C16B C -0.8659(12) -0.3259(2) 0.1099(7)
H17B H -0.9556 -0.3532 0.0767
C17B C -0.6784(13) -0.3392(2) 0.1712(7)
H18B H -0.6423 -0.3756 0.1792
O6 O 0.8511(8) 0.06453(18) 1.1027(5)
H3 H 0.9545 0.0557 1.0697
H4 H 0.7985 0.0363 1.1294
O7 O 1.2661(11) 0.0418(2) 1.1625(9)
H5 H 1.3924 0.0479 1.1587
H6 H 1.2684 0.0110 1.1975
loop_
_geom_bond_atom_site_label_1
_geom_bond_atom_site_label_2
_geom_bond_site_symmetry_1
_geom_bond_site_symmetry_2
Co1 N1 1_555 1_555
N1 C6 1_555 1_555
N2 Co1 1_555 1_555
O1 Co1 1_555 1_555
O2 C4 1_555 1_555
O3 C5 1_555 1_555
O4 C5 1_555 1_555
O5 Co1 1_555 1_555
H1 O5 1_555 1_555
H2 O5 1_555 1_555
O6 H3 1_555 1_555
H4 O6 1_555 1_555
O7 H5 1_555 1_555
H6 O7 1_555 1_555
C1 H7 1_555 1_555
C2 C1 1_555 1_555
H8 C2 1_555 1_555
C3 C1 1_555 1_555
H9 C3 1_555 1_555
H10 C3 1_555 1_555
C4 O1 1_555 1_555
C5 C2 1_555 1_555
C6 H11 1_555 1_555
C7 C6 1_555 1_555
H12 C7 1_555 1_555
C8 C7 1_555 1_555
H13 C8 1_555 1_555
C9 C8 1_555 1_555
C10 N1 1_555 1_555
C11 N2 1_555 1_555
C12 C11 1_555 1_555
C13 C12 1_555 1_555
H14 C13 1_555 1_555
C14 C13 1_555 1_555
H15 C14 1_555 1_555
C15 N2 1_555 1_555
H16 C15 1_555 1_555
C16 C9 1_555 1_555
H17 C16 1_555 1_555
C17 C12 1_555 1_555
H18 C17 1_555 1_555
Co1B N1B 1_555 1_555
Co1_2 O3 1_555 1_555
Co1B_2 O3B 1_555 1_555
N1B C6B 1_555 1_555
N2B Co1B 1_555 1_555
O1B Co1B 1_555 1_555
O2B C4B 1_555 1_555
O3B C5B 1_555 1_555
O3_2 Co1 1_555 1_555
O3B_2 Co1B 1_555 1_555
O4B Co1B_2 1_555 1_555
O4_2 Co1 1_555 1_555
O4B_2 Co1B 1_555 1_555
O5B Co1B 1_555 1_555
H1B O5B 1_555 1_555
H2B O5B 1_555 1_555
C1B H7B 1_555 1_555
C2B C3 1_555 1_555
H8B C2B 1_555 1_555
C3B C2 1_555 1_555
H9B C3B 1_555 1_555
H10B C3B 1_555 1_555
C4B O1B 1_555 1_555
C5B O4B 1_555 1_555
C6B H11B 1_555 1_555
C7B C6B 1_555 1_555
H12B C7B 1_555 1_555
C8B C7B 1_555 1_555
H13B C8B 1_555 1_555
C9B C8B 1_555 1_555
C10B N1B 1_555 1_555
C11B N2B 1_555 1_555
C12B C11B 1_555 1_555
C13B C12B 1_555 1_555
H14B C13B 1_555 1_555
C14B C13B 1_555 1_555
H15B C14B 1_555 1_555
C15B N2B 1_555 1_555
H16B C15B 1_555 1_555
C16B C9B 1_555 1_555
H17B C16B 1_555 1_555
C17B C12B 1_555 1_555
H18B C17B 1_555 1_555
O4 Co1_2 1_555 1_555
C1 C4 1_555 1_555
C9 C10 1_555 1_555
C10 C11 1_555 1_555
C14 C15 1_555 1_555
C16 C17 1_555 1_555
C1B C2B 1_555 1_555
C1B C3B 1_555 1_555
C1B C4B 1_555 1_555
C2B C5B 1_555 1_555
C9B C10B 1_555 1_555
C10B C11B 1_555 1_555
C14B C15B 1_555 1_555
C16B C17B 1_555 1_555

#END
