
#######################################################################
#
#                 Cambridge Crystallographic Data Centre
#                                CCDC 
#
#######################################################################
#
# If this CIF has been generated from an entry in the Cambridge 
# Structural Database, then it will include bibliographic, chemical, 
# crystal, experimental, refinement or atomic coordinate data resulting 
# from the CCDC's data processing and validation procedures.
#
#######################################################################

data_VAKSEH
_symmetry_cell_setting           monoclinic
_symmetry_space_group_name_H-M   'C 2/c'
_symmetry_Int_Tables_number      15
_space_group_name_Hall           '-C 2yn'
loop_
_symmetry_equiv_pos_site_id
_symmetry_equiv_pos_as_xyz
1 x,y,z
2 -x,y,1/2-z
3 1/2+x,1/2+y,z
4 1/2-x,1/2+y,1/2-z
5 -x,-y,-z
6 x,-y,1/2+z
7 1/2-x,1/2-y,-z
8 1/2+x,1/2-y,1/2+z
_cell_length_a                   25.741(13)
_cell_length_b                   11.376(5)
_cell_length_c                   19.605(9)
_cell_angle_alpha                90
_cell_angle_beta                 114.165(9)
_cell_angle_gamma                90
_cell_volume                     5237.85
loop_
_atom_site_label
_atom_site_type_symbol
_atom_site_fract_x
_atom_site_fract_y
_atom_site_fract_z
Co1 Co 0.55464(4) 0.55482(8) 0.70327(5)
Co2 Co 0.77527(4) 0.34279(9) 0.90135(6)
N1 N 0.5539(3) 0.7455(5) 0.7027(3)
N2 N 0.5530(2) 1.3688(5) 0.7094(3)
N3 N 0.8565(3) 0.4036(6) 0.9131(4)
O1 O 0.60422(19) 0.5675(4) 0.8140(2)
O2 O 0.53033(19) 0.5530(4) 0.8445(3)
O3 O 0.7511(2) 0.5163(4) 0.9143(3)
O4 O 0.6910(2) 0.3925(4) 0.9279(3)
O5 O 0.7024(2) 0.3331(4) 1.1035(3)
O6 O 0.7829(2) 0.4161(4) 1.1128(3)
O7 O 0.5740(2) 0.4521(4) 1.1118(3)
O8 O 0.6569(2) 0.4917(4) 1.2017(3)
O9 O 0.7326(2) 0.3435(4) 0.7880(2)
H1 H 0.7216 0.4116 0.7702
H2 H 0.7511 0.3107 0.7658
O10 O 0.81644(19) 0.3179(4) 1.0161(2)
H3 H 0.8170 0.2442 1.0235
H4 H 0.8006 0.3553 1.0400
C1 C 0.6213(3) 0.5885(6) 0.9427(4)
H9 H 0.6112 0.6677 0.9528
C2 C 0.6843(3) 0.5963(6) 0.9587(4)
H10 H 0.6883 0.6662 0.9320
C3 C 0.7192(3) 0.6217(6) 1.0420(4)
H11 H 0.7128 0.7028 1.0516
H12 H 0.7593 0.6138 1.0523
C4 C 0.7066(3) 0.5434(6) 1.0974(4)
H13 H 0.7251 0.5805 1.1467
C5 C 0.6422(3) 0.5454(6) 1.0766(4)
H14 H 0.6333 0.6289 1.0775
C6 C 0.6079(3) 0.5089(6) 0.9960(3)
H15 H 0.5676 0.5133 0.9848
H16 H 0.6169 0.4281 0.9891
C7 C 0.5827(3) 0.5663(6) 0.8605(4)
C8 C 0.7091(3) 0.4958(7) 0.9313(4)
C9 C 0.7320(3) 0.4216(6) 1.1043(4)
C10 C 0.6245(3) 0.4899(6) 1.1342(5)
C11 C 0.5063(3) 0.8066(7) 0.6690(4)
H17 H 0.4724 0.7664 0.6434
C12 C 0.5055(3) 0.9276(7) 0.6705(4)
H18 H 0.4713 0.9674 0.6463
C13 C 0.5545(3) 0.9898(6) 0.7072(4)
C14 C 0.6043(3) 0.9271(6) 0.7418(4)
H19 H 0.6388 0.9656 0.7671
C15 C 0.6019(3) 0.8042(6) 0.7381(4)
H20 H 0.6355 0.7619 0.7615
C16 C 0.5541(3) 1.1216(6) 0.7087(4)
C17 C 0.5087(3) 1.1848(6) 0.6598(4)
H21 H 0.4770 1.1457 0.6257
C18 C 0.5100(3) 1.3065(6) 0.6610(4)
H22 H 0.4792 1.3468 0.6261
C19 C 0.5964(3) 1.3079(6) 0.7582(4)
H23 H 0.6267 1.3487 0.7936
C20 C 0.5983(3) 1.1852(6) 0.7583(4)
H24 H 0.6301 1.1465 0.7926
C21 C 0.9001(3) 0.3285(7) 0.9370(4)
H25 H 0.8919 0.2485 0.9311
C22 C 0.9561(3) 0.3614(7) 0.9698(4)
H26 H 0.9847 0.3048 0.9839
C23 C 0.9700(3) 0.4799(7) 0.9819(4)
C24 C 0.9252(3) 0.5591(7) 0.9555(4)
H27 H 0.9321 0.6396 0.9601
C25 C 0.8703(3) 0.5171(7) 0.9222(5)
H28 H 0.8409 0.5717 0.9050
Co1_2 Co 0.55464(4) -0.44518(8) 0.70327(5)
Co1_3 Co 0.55464(4) 1.55482(8) 0.70327(5)
Co1A Co 0.44536(4) 0.55482(8) 0.79673(5)
Co1E Co 0.55464(4) 0.44518(8) 1.20327(5)
Co1D Co 0.44536(4) 0.44518(8) 0.29673(5)
Co2A Co 0.22473(4) 0.34279(9) 0.59865(6)
Co2F Co 0.72473(4) 0.15721(9) 1.09865(6)
Co2D Co 1.22473(4) 0.65721(9) 1.09865(6)
Co2G Co 0.27527(4) 0.15721(9) 0.40135(6)
N1_2 N 0.5539(3) -0.2545(5) 0.7027(3)
N2_2 N 0.5530(2) 0.3688(5) 0.7094(3)
N2_3 N 0.5530(2) -0.6312(5) 0.7094(3)
N3D N 1.1435(3) 0.5964(6) 1.0869(4)
N3A N 0.1435(3) 0.4036(6) 0.5869(4)
O1A O 0.39578(19) 0.5675(4) 0.6860(2)
O1_2 O 0.60422(19) -0.4325(4) 0.8140(2)
O2A O 0.46967(19) 0.5530(4) 0.6555(3)
O2A_2 O 0.46967(19) -0.4470(4) 0.6555(3)
O3A O 0.2489(2) 0.5163(4) 0.5857(3)
O4A O 0.3090(2) 0.3925(4) 0.5721(3)
O5A O 0.2976(2) 0.3331(4) 0.3965(3)
O5F O 0.7976(2) 0.1669(4) 0.8965(3)
O5G O 0.2024(2) 0.1669(4) 0.6035(3)
O6A O 0.2171(2) 0.4161(4) 0.3872(3)
O7A O 0.4260(2) 0.4521(4) 0.3882(3)
O7E O 0.5740(2) 0.5479(4) 0.6118(3)
O7E_2 O 0.5740(2) -0.4521(4) 0.6118(3)
O8A O 0.3431(2) 0.4917(4) 0.2983(3)
O9A O 0.2674(2) 0.3435(4) 0.7120(2)
H1A H 0.2784 0.4116 0.7298
H2A H 0.2489 0.3107 0.7342
O10A O 0.18356(19) 0.3179(4) 0.4839(2)
H3A H 0.1830 0.2442 0.4765
H4A H 0.1994 0.3553 0.4600
C1A C 0.3787(3) 0.5885(6) 0.5573(4)
H9A H 0.3888 0.6677 0.5472
C2A C 0.3157(3) 0.5963(6) 0.5413(4)
H10A H 0.3117 0.6662 0.5680
C3A C 0.2808(3) 0.6217(6) 0.4580(4)
H11A H 0.2872 0.7028 0.4484
H12A H 0.2407 0.6138 0.4477
C4A C 0.2934(3) 0.5434(6) 0.4026(4)
H13A H 0.2749 0.5805 0.3533
C5A C 0.3578(3) 0.5454(6) 0.4234(4)
H14A H 0.3667 0.6289 0.4225
C6A C 0.3921(3) 0.5089(6) 0.5040(3)
H15A H 0.4324 0.5133 0.5152
H16A H 0.3831 0.4281 0.5109
C7A C 0.4173(3) 0.5663(6) 0.6395(4)
C8A C 0.2909(3) 0.4958(7) 0.5687(4)
C9A C 0.2680(3) 0.4216(6) 0.3957(4)
C10A C 0.3755(3) 0.4899(6) 0.3658(5)
C11_2 C 0.5063(3) -0.1934(7) 0.6690(4)
H17_2 H 0.4724 -0.2336 0.6434
C12_2 C 0.5055(3) -0.0724(7) 0.6705(4)
H18_2 H 0.4713 -0.0326 0.6463
C13_2 C 0.5545(3) -0.0102(6) 0.7072(4)
C14_2 C 0.6043(3) -0.0729(6) 0.7418(4)
H19_2 H 0.6388 -0.0344 0.7671
C15_2 C 0.6019(3) -0.1958(6) 0.7381(4)
H20_2 H 0.6355 -0.2381 0.7615
C16_2 C 0.5541(3) 0.1216(6) 0.7087(4)
C17_2 C 0.5087(3) 0.1848(6) 0.6598(4)
H21_2 H 0.4770 0.1457 0.6257
C18_2 C 0.5100(3) 0.3065(6) 0.6610(4)
H22_2 H 0.4792 0.3468 0.6261
C19_2 C 0.5964(3) 0.3079(6) 0.7582(4)
H23_2 H 0.6267 0.3487 0.7936
C20_2 C 0.5983(3) 0.1852(6) 0.7583(4)
H24_2 H 0.6301 0.1465 0.7926
C21D C 1.0999(3) 0.6715(7) 1.0630(4)
H25D H 1.1081 0.7515 1.0689
C22D C 1.0439(3) 0.6386(7) 1.0302(4)
H26D H 1.0153 0.6952 1.0161
C23D C 1.0300(3) 0.5201(7) 1.0181(4)
C24D C 1.0748(3) 0.4409(7) 1.0445(4)
H27D H 1.0679 0.3604 1.0399
C25D C 1.1297(3) 0.4829(7) 1.0778(5)
H28D H 1.1591 0.4283 1.0950
O11 O 0.7373(2) 0.3259(5) 1.2902(3)
H5 H 0.7277 0.3767 1.2554
H6 H 0.7609 0.3415 1.3345
O12 O 0.6361(6) -0.0827(12) 0.9241(8)
H7 H 0.6574 -0.0367 0.9130
H8 H 0.6434 -0.0766 0.9703
loop_
_geom_bond_atom_site_label_1
_geom_bond_atom_site_label_2
_geom_bond_site_symmetry_1
_geom_bond_site_symmetry_2
Co1 N1 1_555 1_555
Co2 N3 1_555 1_555
N1 C11 1_555 1_555
N2 C18 1_555 1_555
N3 C21 1_555 1_555
O1 Co1 1_555 1_555
O2 C7 1_555 1_555
O3 Co2 1_555 1_555
O4 C8 1_555 1_555
O5 C9 1_555 1_555
O6 C9 1_555 1_555
O7 C10 1_555 1_555
O8 C10 1_555 1_555
O9 Co2 1_555 1_555
H1 O9 1_555 1_555
H2 O9 1_555 1_555
O10 Co2 1_555 1_555
H3 O10 1_555 1_555
H4 O10 1_555 1_555
O11 H5 1_555 1_555
H6 O11 1_555 1_555
O12 H7 1_555 1_555
H8 O12 1_555 1_555
C1 H9 1_555 1_555
C2 C1 1_555 1_555
H10 C2 1_555 1_555
C3 C2 1_555 1_555
H11 C3 1_555 1_555
H12 C3 1_555 1_555
C4 C3 1_555 1_555
H13 C4 1_555 1_555
C5 C4 1_555 1_555
H14 C5 1_555 1_555
C6 C1 1_555 1_555
H15 C6 1_555 1_555
H16 C6 1_555 1_555
C7 O1 1_555 1_555
C8 O3 1_555 1_555
C9 C4 1_555 1_555
C10 C5 1_555 1_555
C11 H17 1_555 1_555
C12 C11 1_555 1_555
H18 C12 1_555 1_555
C13 C12 1_555 1_555
C14 C13 1_555 1_555
H19 C14 1_555 1_555
C15 N1 1_555 1_555
H20 C15 1_555 1_555
C16 C13 1_555 1_555
C17 C16 1_555 1_555
H21 C17 1_555 1_555
C18 C17 1_555 1_555
H22 C18 1_555 1_555
C19 N2 1_555 1_555
H23 C19 1_555 1_555
C20 C16 1_555 1_555
H24 C20 1_555 1_555
C21 H25 1_555 1_555
C22 C21 1_555 1_555
H26 C22 1_555 1_555
C23 C22 1_555 1_555
C24 C23 1_555 1_555
H27 C24 1_555 1_555
C25 N3 1_555 1_555
H28 C25 1_555 1_555
Co1_2 N1_2 1_555 1_555
Co1_3 N2 1_555 1_555
Co1A O2 1_555 1_555
Co1E O7 1_555 1_555
Co1D O7A 1_555 1_555
Co2A N3A 1_555 1_555
Co2F O5 1_555 1_555
Co2D N3D 1_555 1_555
Co2G O5A 1_555 1_555
N1_2 C11_2 1_555 1_555
N2_2 Co1 1_555 1_555
N2_3 Co1_2 1_555 1_555
N3D C21D 1_555 1_555
O1A Co1A 1_555 1_555
O1_2 Co1_2 1_555 1_555
O2A Co1 1_555 1_555
O2A_2 Co1_2 1_555 1_555
O3A Co2A 1_555 1_555
O4A C8A 1_555 1_555
O5A C9A 1_555 1_555
O5F Co2 1_555 1_555
O5G Co2A 1_555 1_555
O6A C9A 1_555 1_555
O7A C10A 1_555 1_555
O7E Co1 1_555 1_555
O7E_2 Co1_2 1_555 1_555
O8A C10A 1_555 1_555
O9A Co2A 1_555 1_555
H1A O9A 1_555 1_555
H2A O9A 1_555 1_555
O10A Co2A 1_555 1_555
H3A O10A 1_555 1_555
H4A O10A 1_555 1_555
C1A H9A 1_555 1_555
C2A C1A 1_555 1_555
H10A C2A 1_555 1_555
C3A C2A 1_555 1_555
H11A C3A 1_555 1_555
H12A C3A 1_555 1_555
C4A C3A 1_555 1_555
H13A C4A 1_555 1_555
C5A C4A 1_555 1_555
H14A C5A 1_555 1_555
C6A C1A 1_555 1_555
H15A C6A 1_555 1_555
H16A C6A 1_555 1_555
C7A O1A 1_555 1_555
C8A O3A 1_555 1_555
C9A C4A 1_555 1_555
C10A C5A 1_555 1_555
C11_2 H17_2 1_555 1_555
C12_2 C11_2 1_555 1_555
H18_2 C12_2 1_555 1_555
C13_2 C12_2 1_555 1_555
C14_2 C13_2 1_555 1_555
H19_2 C14_2 1_555 1_555
C15_2 N1_2 1_555 1_555
H20_2 C15_2 1_555 1_555
C16_2 C13_2 1_555 1_555
C17_2 C16_2 1_555 1_555
H21_2 C17_2 1_555 1_555
C18_2 N2_2 1_555 1_555
H22_2 C18_2 1_555 1_555
C19_2 N2_2 1_555 1_555
H23_2 C19_2 1_555 1_555
C20_2 C16_2 1_555 1_555
H24_2 C20_2 1_555 1_555
C21D H25D 1_555 1_555
C22D C21D 1_555 1_555
H26D C22D 1_555 1_555
C23D C23 1_555 1_555
C24D C23D 1_555 1_555
H27D C24D 1_555 1_555
C25D N3D 1_555 1_555
H28D C25D 1_555 1_555
C1 C7 1_555 1_555
C2 C8 1_555 1_555
C5 C6 1_555 1_555
C14 C15 1_555 1_555
C19 C20 1_555 1_555
C24 C25 1_555 1_555
O2A C7A 1_555 1_555
C1A C7A 1_555 1_555
C2A C8A 1_555 1_555
C5A C6A 1_555 1_555
C14_2 C15_2 1_555 1_555
C17_2 C18_2 1_555 1_555
C19_2 C20_2 1_555 1_555
C22D C23D 1_555 1_555
C24D C25D 1_555 1_555

#END
