
#######################################################################
#
#                 Cambridge Crystallographic Data Centre
#                                CCDC 
#
#######################################################################
#
# If this CIF has been generated from an entry in the Cambridge 
# Structural Database, then it will include bibliographic, chemical, 
# crystal, experimental, refinement or atomic coordinate data resulting 
# from the CCDC's data processing and validation procedures.
#
#######################################################################

data_VAKSAD
_symmetry_cell_setting           triclinic
_symmetry_space_group_name_H-M   'P -1'
_symmetry_Int_Tables_number      2
_space_group_name_Hall           '-P 1'
loop_
_symmetry_equiv_pos_site_id
_symmetry_equiv_pos_as_xyz
1 x,y,z
2 -x,-y,-z
_cell_length_a                   10.2183(13)
_cell_length_b                   11.3812(14)
_cell_length_c                   12.9323(16)
_cell_angle_alpha                113.731(2)
_cell_angle_beta                 94.737(3)
_cell_angle_gamma                101.552(2)
_cell_volume                     1326.41
loop_
_atom_site_label
_atom_site_type_symbol
_atom_site_fract_x
_atom_site_fract_y
_atom_site_fract_z
Co1 Co 0.23584(5) 0.52095(5) 0.32737(5)
Co2 Co 0.29336(6) -0.01538(6) -0.11772(5)
O1 O 0.4560(3) 0.5637(3) 0.3500(2)
O2 O 0.3288(3) 0.4759(3) 0.1798(2)
O3 O 0.4445(3) 0.2348(3) 0.1409(3)
O4 O 0.3853(3) 0.1779(3) -0.0457(3)
O5 O 0.6946(3) 0.1209(3) 0.0059(3)
O6 O 0.7885(3) 0.2242(3) 0.1863(3)
O7 O 1.0369(3) 0.4581(3) 0.2360(2)
O8 O 0.9397(3) 0.5465(3) 0.3874(3)
O9 O 0.1884(3) 0.5938(3) 0.4917(2)
H1 H 0.1052 0.5780 0.4621
H2 H 0.1919 0.5552 0.5360
O10 O 0.1234(4) 0.0446(4) -0.0343(4)
H3 H 0.1021 0.1139 -0.0316
H4 H 0.1413 0.0542 0.0345
O11 O 0.4754(3) -0.0430(3) -0.1742(3)
H5 H 0.4960 -0.1102 -0.1708
H6 H 0.5332 0.0273 -0.1265
N1 N 0.2385(3) 0.3366(3) 0.3326(3)
N2 N 0.2466(4) -0.2861(3) 0.3310(3)
N3 N 0.1984(4) -0.0051(4) -0.2642(3)
C1 C 0.5690(4) 0.5010(4) 0.1858(3)
H9 H 0.6002 0.5833 0.1773
C2 C 0.5319(4) 0.3882(4) 0.0644(3)
H10 H 0.4756 0.4165 0.0184
C3 C 0.6586(4) 0.3696(4) 0.0089(3)
H11 H 0.6328 0.2894 -0.0625
H12 H 0.6908 0.4437 -0.0095
C4 C 0.7759(4) 0.3598(4) 0.0855(4)
H13 H 0.8556 0.3660 0.0489
C5 C 0.8105(4) 0.4804(4) 0.2023(3)
H14 H 0.8316 0.5579 0.1854
C6 C 0.6866(4) 0.4924(4) 0.2615(4)
H15 H 0.6579 0.4158 0.2775
H16 H 0.7113 0.5711 0.3341
C7 C 0.4448(4) 0.5135(4) 0.2424(4)
C8 C 0.4473(4) 0.2569(4) 0.0549(4)
C9 C 0.7502(4) 0.2272(4) 0.0934(4)
C10 C 0.9371(4) 0.4931(4) 0.2813(4)
C11 C 0.1530(5) 0.2240(5) 0.2595(4)
H17 H 0.0852 0.2276 0.2091
C12 C 0.1584(5) 0.1006(5) 0.2532(5)
H18 H 0.0963 0.0241 0.1991
C13 C 0.2565(4) 0.0922(4) 0.3280(4)
C14 C 0.3429(5) 0.2094(5) 0.4065(5)
H19 H 0.4089 0.2096 0.4606
C15 C 0.3307(5) 0.3269(4) 0.4043(4)
H20 H 0.3918 0.4049 0.4572
C16 C 0.2596(4) -0.0394(4) 0.3266(4)
C17 C 0.1921(5) -0.1570(4) 0.2344(4)
H21 H 0.1493 -0.1560 0.1686
C18 C 0.1879(5) -0.2759(4) 0.2396(4)
H22 H 0.1417 -0.3536 0.1760
C19 C 0.3139(5) -0.1729(5) 0.4194(4)
H23 H 0.3571 -0.1773 0.4834
C20 C 0.3233(5) -0.0485(4) 0.4215(4)
H24 H 0.3716 0.0278 0.4855
C21 C 0.1291(6) -0.1166(5) -0.3539(4)
H25 H 0.1337 -0.1973 -0.3536
C22 C 0.0510(6) -0.1189(5) -0.4472(4)
H26 H 0.0045 -0.1995 -0.5076
C23 C 0.0420(4) -0.0003(4) -0.4506(4)
C24 C 0.1140(5) 0.1134(5) -0.3587(4)
H27 H 0.1119 0.1953 -0.3574
C25 C 0.1898(5) 0.1087(5) -0.2676(4)
H28 H 0.2368 0.1882 -0.2062
Co1_2 Co -0.76416(5) 0.52095(5) 0.32737(5)
Co1_3 Co 1.23584(5) 0.52095(5) 0.32737(5)
Co1_4 Co 0.23584(5) -0.47905(5) 0.32737(5)
Co1_5 Co 0.23584(5) 1.52095(5) 0.32737(5)
Co2_2 Co -0.70664(6) -0.01538(6) -0.11772(5)
Co2A Co 0.70664(6) 0.01538(6) 0.11772(5)
Co2A_2 Co -0.29336(6) 0.01538(6) -0.88228(5)
Co2A_3 Co -0.29336(6) 0.01538(6) 0.11772(5)
O1_2 O -0.5440(3) 0.5637(3) 0.3500(2)
O2_2 O -0.6712(3) 0.4759(3) 0.1798(2)
O3_2 O -0.5555(3) 0.2348(3) 0.1409(3)
O4_2 O -0.6147(3) 0.1779(3) -0.0457(3)
O5_2 O -0.3054(3) 0.1209(3) 0.0059(3)
O5A O 0.3054(3) -0.1209(3) -0.0059(3)
O5A_2 O -0.6946(3) -0.1209(3) -0.0059(3)
O6_2 O -0.2115(3) 0.2242(3) 0.1863(3)
O6A O 0.2115(3) -0.2242(3) -0.1863(3)
O6A_2 O -0.7885(3) -0.2242(3) -0.1863(3)
O7_2 O 0.0369(3) 0.4581(3) 0.2360(2)
O7_3 O -0.9631(3) 0.4581(3) 0.2360(2)
O8_2 O -0.0603(3) 0.5465(3) 0.3874(3)
O9_2 O -0.8116(3) 0.5938(3) 0.4917(2)
H1_2 H -0.8948 0.5780 0.4621
H2_2 H -0.8081 0.5552 0.5360
O10_2 O -0.8766(4) 0.0446(4) -0.0343(4)
H3_2 H -0.8979 0.1139 -0.0316
H4_2 H -0.8587 0.0542 0.0345
O11_2 O -0.5246(3) -0.0430(3) -0.1742(3)
H5_2 H -0.5040 -0.1102 -0.1708
H6_2 H -0.4668 0.0273 -0.1265
N1_2 N 0.2385(3) 1.3366(3) 0.3326(3)
N1_3 N -0.7615(3) 0.3366(3) 0.3326(3)
N2_2 N 0.2466(4) 0.7139(3) 0.3310(3)
N2_3 N -0.7534(4) 0.7139(3) 0.3310(3)
N3A N -0.1984(4) 0.0051(4) -0.7358(3)
N3_2 N -0.8016(4) -0.0051(4) -0.2642(3)
C1_2 C -0.4310(4) 0.5010(4) 0.1858(3)
H9_2 H -0.3998 0.5833 0.1773
C2_2 C -0.4681(4) 0.3882(4) 0.0644(3)
H10_2 H -0.5244 0.4165 0.0184
C3_2 C -0.3414(4) 0.3696(4) 0.0089(3)
H11_2 H -0.3672 0.2894 -0.0625
H12_2 H -0.3092 0.4437 -0.0095
C4_2 C -0.2241(4) 0.3598(4) 0.0855(4)
H13_2 H -0.1444 0.3660 0.0489
C5_2 C -0.1895(4) 0.4804(4) 0.2023(3)
H14_2 H -0.1684 0.5579 0.1854
C6_2 C -0.3134(4) 0.4924(4) 0.2615(4)
H15_2 H -0.3421 0.4158 0.2775
H16_2 H -0.2887 0.5711 0.3341
C7_2 C -0.5552(4) 0.5135(4) 0.2424(4)
C8_2 C -0.5527(4) 0.2569(4) 0.0549(4)
C9_2 C -0.2498(4) 0.2272(4) 0.0934(4)
C10_2 C -0.0629(4) 0.4931(4) 0.2813(4)
C11_2 C 0.1530(5) 1.2240(5) 0.2595(4)
H17_2 H 0.0852 1.2276 0.2091
C12_2 C 0.1584(5) 1.1006(5) 0.2532(5)
H18_2 H 0.0963 1.0241 0.1991
C13_2 C 0.2565(4) 1.0922(4) 0.3280(4)
C14_2 C 0.3429(5) 1.2094(5) 0.4065(5)
H19_2 H 0.4089 1.2096 0.4606
C15_2 C 0.3307(5) 1.3269(4) 0.4043(4)
H20_2 H 0.3918 1.4049 0.4572
C16_2 C 0.2596(4) 0.9606(4) 0.3266(4)
C17_2 C 0.1921(5) 0.8430(4) 0.2344(4)
H21_2 H 0.1493 0.8440 0.1686
C18_2 C 0.1879(5) 0.7241(4) 0.2396(4)
H22_2 H 0.1417 0.6464 0.1760
C19_2 C 0.3139(5) 0.8271(5) 0.4194(4)
H23_2 H 0.3571 0.8227 0.4834
C20_2 C 0.3233(5) 0.9515(4) 0.4215(4)
H24_2 H 0.3716 1.0278 0.4855
C21A C -0.1291(6) 0.1166(5) -0.6461(4)
H25A H -0.1337 0.1973 -0.6464
C22A C -0.0510(6) 0.1189(5) -0.5528(4)
H26A H -0.0045 0.1995 -0.4924
C23A C -0.0420(4) 0.0003(4) -0.5494(4)
C24A C -0.1140(5) -0.1134(5) -0.6413(4)
H27A H -0.1119 -0.1953 -0.6426
C25A C -0.1898(5) -0.1087(5) -0.7324(4)
H28A H -0.2368 -0.1882 -0.7938
O12 O 0.1070(3) 0.3012(4) 0.0126(3)
H7 H 0.1904 0.3409 0.0392
H8 H 0.0598 0.3368 0.0618
loop_
_geom_bond_atom_site_label_1
_geom_bond_atom_site_label_2
_geom_bond_site_symmetry_1
_geom_bond_site_symmetry_2
Co1 O1 1_555 1_555
Co2 O4 1_555 1_555
O1 C7 1_555 1_555
O2 Co1 1_555 1_555
O3 C8 1_555 1_555
O4 C8 1_555 1_555
O5 C9 1_555 1_555
O6 C9 1_555 1_555
O7 C10 1_555 1_555
O8 C10 1_555 1_555
O9 Co1 1_555 1_555
H1 O9 1_555 1_555
H2 O9 1_555 1_555
O10 Co2 1_555 1_555
H3 O10 1_555 1_555
H4 O10 1_555 1_555
O11 Co2 1_555 1_555
H5 O11 1_555 1_555
H6 O11 1_555 1_555
O12 H7 1_555 1_555
H8 O12 1_555 1_555
N1 Co1 1_555 1_555
N2 C18 1_555 1_555
N3 Co2 1_555 1_555
C1 H9 1_555 1_555
C2 C1 1_555 1_555
H10 C2 1_555 1_555
C3 C2 1_555 1_555
H11 C3 1_555 1_555
H12 C3 1_555 1_555
C4 C3 1_555 1_555
H13 C4 1_555 1_555
C5 C4 1_555 1_555
H14 C5 1_555 1_555
C6 C1 1_555 1_555
H15 C6 1_555 1_555
H16 C6 1_555 1_555
C7 O2 1_555 1_555
C8 C2 1_555 1_555
C9 C4 1_555 1_555
C10 C5 1_555 1_555
C11 N1 1_555 1_555
H17 C11 1_555 1_555
C12 C11 1_555 1_555
H18 C12 1_555 1_555
C13 C12 1_555 1_555
C14 C13 1_555 1_555
H19 C14 1_555 1_555
C15 N1 1_555 1_555
H20 C15 1_555 1_555
C16 C13 1_555 1_555
C17 C16 1_555 1_555
H21 C17 1_555 1_555
C18 C17 1_555 1_555
H22 C18 1_555 1_555
C19 N2 1_555 1_555
H23 C19 1_555 1_555
C20 C16 1_555 1_555
H24 C20 1_555 1_555
C21 N3 1_555 1_555
H25 C21 1_555 1_555
C22 C21 1_555 1_555
H26 C22 1_555 1_555
C23 C22 1_555 1_555
C24 C23 1_555 1_555
H27 C24 1_555 1_555
C25 N3 1_555 1_555
H28 C25 1_555 1_555
Co1_2 O1_2 1_555 1_555
Co1_3 O7 1_555 1_555
Co1_4 N2 1_555 1_555
Co1_5 N1_2 1_555 1_555
Co2_2 O4_2 1_555 1_555
Co2A O5 1_555 1_555
Co2A_2 N3A 1_555 1_555
Co2A_3 O5_2 1_555 1_555
O1_2 C7_2 1_555 1_555
O2_2 Co1_2 1_555 1_555
O3_2 C8_2 1_555 1_555
O4_2 C8_2 1_555 1_555
O5_2 C9_2 1_555 1_555
O5A Co2 1_555 1_555
O5A_2 Co2_2 1_555 1_555
O6_2 Co2A_3 1_555 1_555
O6A Co2 1_555 1_555
O6A_2 Co2_2 1_555 1_555
O7_2 Co1 1_555 1_555
O7_3 Co1_2 1_555 1_555
O8_2 C10_2 1_555 1_555
O9_2 Co1_2 1_555 1_555
H1_2 O9_2 1_555 1_555
H2_2 O9_2 1_555 1_555
O10_2 Co2_2 1_555 1_555
H3_2 O10_2 1_555 1_555
H4_2 O10_2 1_555 1_555
O11_2 Co2_2 1_555 1_555
H5_2 O11_2 1_555 1_555
H6_2 O11_2 1_555 1_555
N1_2 C11_2 1_555 1_555
N1_3 Co1_2 1_555 1_555
N2_2 Co1 1_555 1_555
N2_3 Co1_2 1_555 1_555
N3A C21A 1_555 1_555
N3_2 Co2_2 1_555 1_555
C1_2 H9_2 1_555 1_555
C2_2 C1_2 1_555 1_555
H10_2 C2_2 1_555 1_555
C3_2 C2_2 1_555 1_555
H11_2 C3_2 1_555 1_555
H12_2 C3_2 1_555 1_555
C4_2 C3_2 1_555 1_555
H13_2 C4_2 1_555 1_555
C5_2 C4_2 1_555 1_555
H14_2 C5_2 1_555 1_555
C6_2 C1_2 1_555 1_555
H15_2 C6_2 1_555 1_555
H16_2 C6_2 1_555 1_555
C7_2 O2_2 1_555 1_555
C8_2 C2_2 1_555 1_555
C9_2 O6_2 1_555 1_555
C10_2 O7_2 1_555 1_555
C11_2 H17_2 1_555 1_555
C12_2 C11_2 1_555 1_555
H18_2 C12_2 1_555 1_555
C13_2 C12_2 1_555 1_555
C14_2 C13_2 1_555 1_555
H19_2 C14_2 1_555 1_555
C15_2 N1_2 1_555 1_555
H20_2 C15_2 1_555 1_555
C16_2 C13_2 1_555 1_555
C17_2 C16_2 1_555 1_555
H21_2 C17_2 1_555 1_555
C18_2 N2_2 1_555 1_555
H22_2 C18_2 1_555 1_555
C19_2 N2_2 1_555 1_555
H23_2 C19_2 1_555 1_555
C20_2 C16_2 1_555 1_555
H24_2 C20_2 1_555 1_555
C21A H25A 1_555 1_555
C22A C21A 1_555 1_555
H26A C22A 1_555 1_555
C23A C23 1_555 1_555
C24A C23A 1_555 1_555
H27A C24A 1_555 1_555
C25A N3A 1_555 1_555
H28A C25A 1_555 1_555
O6 Co2A 1_555 1_555
C1 C7 1_555 1_555
C5 C6 1_555 1_555
C14 C15 1_555 1_555
C19 C20 1_555 1_555
C24 C25 1_555 1_555
C1_2 C7_2 1_555 1_555
C4_2 C9_2 1_555 1_555
C5_2 C6_2 1_555 1_555
C5_2 C10_2 1_555 1_555
C14_2 C15_2 1_555 1_555
C17_2 C18_2 1_555 1_555
C19_2 C20_2 1_555 1_555
C22A C23A 1_555 1_555
C24A C25A 1_555 1_555

#END
