
#######################################################################
#
#                 Cambridge Crystallographic Data Centre
#                                CCDC 
#
#######################################################################
#
# If this CIF has been generated from an entry in the Cambridge 
# Structural Database, then it will include bibliographic, chemical, 
# crystal, experimental, refinement or atomic coordinate data resulting 
# from the CCDC's data processing and validation procedures.
#
#######################################################################

data_VAKWEL
_symmetry_cell_setting           monoclinic
_symmetry_space_group_name_H-M   'P 21/n'
_symmetry_Int_Tables_number      14
_space_group_name_Hall           '-P 2yn'
loop_
_symmetry_equiv_pos_site_id
_symmetry_equiv_pos_as_xyz
1 x,y,z
2 1/2-x,1/2+y,1/2-z
3 -x,-y,-z
4 1/2+x,1/2-y,1/2+z
_cell_length_a                   15.618(3)
_cell_length_b                   24.416(5)
_cell_length_c                   15.972(3)
_cell_angle_alpha                90
_cell_angle_beta                 97.12(3)
_cell_angle_gamma                90
_cell_volume                     6043.62
loop_
_atom_site_label
_atom_site_type_symbol
_atom_site_fract_x
_atom_site_fract_y
_atom_site_fract_z
Ag1 Ag 0.017813(18) 0.226889(11) 0.670917(17)
Ag2 Ag -0.109266(17) 0.236642(11) 0.502825(17)
Ag3 Ag -0.312033(18) 0.293713(12) 0.284681(16)
N1 N 0.02778(17) 0.31470(11) 0.64804(16)
N2 N 0.05833(17) 0.24681(12) 0.51486(16)
N3 N -0.04941(18) 0.15975(11) 0.45935(16)
N4 N -0.3282(2) 0.19645(14) 0.33389(19)
N5 N -0.37984(19) 0.29298(14) 0.40337(18)
N6 N -0.3127(2) 0.38636(15) 0.3502(2)
C1 C -0.0084(2) 0.35097(15) 0.6959(2)
H1 H -0.0394 0.3377 0.7393
C2 C -0.0023(3) 0.40693(16) 0.6846(3)
H2 H -0.0297 0.4317 0.7187
C3 C 0.0443(3) 0.42612(16) 0.6229(3)
H3 H 0.0502 0.4644 0.6144
C4 C 0.0822(3) 0.38917(16) 0.5736(2)
H4 H 0.1152 0.4017 0.5313
C5 C 0.0718(2) 0.33328(14) 0.5864(2)
C6 C 0.1057(2) 0.29238(15) 0.5299(2)
C7 C 0.1810(2) 0.30117(17) 0.4935(2)
H5 H 0.2135 0.3338 0.5049
C8 C 0.2077(3) 0.26202(19) 0.4407(2)
H6 H 0.2599 0.2667 0.4167
C9 C 0.1578(2) 0.21574(17) 0.4226(2)
H7 H 0.1745 0.1886 0.3852
C10 C 0.0830(2) 0.20965(15) 0.4602(2)
C11 C 0.0276(2) 0.16135(15) 0.44160(19)
H8 H 0.0501 0.1304 0.4155
C12 C -0.0972(2) 0.10813(14) 0.4471(2)
H9 H -0.0923 0.0880 0.5013
H10 H -0.0707 0.0852 0.4061
C13 C -0.1915(2) 0.11669(15) 0.4155(2)
H11 H -0.2145 0.1460 0.4494
H12 H -0.2234 0.0826 0.4246
C14 C -0.2084(3) 0.13208(16) 0.3233(2)
H13 H -0.1909 0.1014 0.2886
H14 H -0.1730 0.1644 0.3127
C15 C -0.3034(3) 0.14518(17) 0.2968(3)
H15 H -0.3142 0.1479 0.2345
H16 H -0.3394 0.1150 0.3148
C16 C -0.3781(3) 0.19494(19) 0.3900(2)
H17 H -0.4002 0.1606 0.4052
C17 C -0.4032(2) 0.2446(2) 0.4329(2)
C18 C -0.4489(3) 0.2408(3) 0.5022(3)
H18 H -0.4655 0.2061 0.5219
C19 C -0.4696(3) 0.2880(3) 0.5416(3)
H19 H -0.5011 0.2865 0.5888
C20 C -0.4445(3) 0.3369(3) 0.5126(3)
H20 H -0.4580 0.3699 0.5399
C21 C -0.3985(2) 0.3391(2) 0.4421(2)
C22 C -0.3672(3) 0.39108(19) 0.4087(3)
C23 C -0.3916(4) 0.4420(3) 0.4368(4)
H21 H -0.4298 0.4444 0.4786
C24 C -0.3604(5) 0.4887(3) 0.4043(5)
H22 H -0.3767 0.5237 0.4230
C25 C -0.3053(5) 0.4844(2) 0.3441(4)
H23 H -0.2832 0.5162 0.3200
C26 C -0.2824(4) 0.4321(2) 0.3190(3)
H24 H -0.2434 0.4290 0.2780
N7 N 0.2866(2) 0.28551(12) 1.10137(19)
N8 N 0.32360(17) 0.18553(11) 1.04285(16)
N9 N 0.41900(18) 0.18037(12) 0.90650(17)
N10 N 0.24892(18) 0.20847(12) 0.66570(17)
N11 N 0.10364(16) 0.13877(11) 0.66043(16)
N12 N -0.03719(17) 0.16131(12) 0.74254(18)
C27 C 0.2658(3) 0.33587(15) 1.1251(2)
H25 H 0.2909 0.3663 1.1002
C28 C 0.2100(3) 0.34597(16) 1.1836(2)
H26 H 0.1963 0.3823 1.1983
C29 C 0.1745(2) 0.30141(17) 1.2201(2)
H27 H 0.1365 0.3066 1.2614
C30 C 0.1950(3) 0.24936(16) 1.1958(2)
H28 H 0.1711 0.2183 1.2203
C31 C 0.2509(2) 0.24248(14) 1.1354(2)
C32 C 0.2731(2) 0.18733(14) 1.1040(2)
C33 C 0.2412(3) 0.13902(16) 1.1356(2)
H29 H 0.2049 0.1406 1.1791
C34 C 0.2624(3) 0.08943(16) 1.1035(3)
H30 H 0.2411 0.0565 1.1248
C35 C 0.3149(3) 0.08765(15) 1.0400(2)
H31 H 0.3308 0.0537 1.0172
C36 C 0.3438(2) 0.13704(14) 1.0107(2)
C37 C 0.3988(2) 0.13693(15) 0.9422(2)
H32 H 0.4198 0.1029 0.9242
C38 C 0.4754(2) 0.17445(17) 0.8396(2)
H33 H 0.5227 0.2017 0.8483
H34 H 0.5015 0.1374 0.8426
C39 C 0.4244(2) 0.18292(15) 0.7535(2)
H35 H 0.3779 0.1552 0.7449
H36 H 0.4631 0.1771 0.7096
C40 C 0.3848(2) 0.23940(15) 0.7424(2)
H37 H 0.3537 0.2475 0.7913
H38 H 0.4316 0.2667 0.7420
C41 C 0.3224(2) 0.24551(16) 0.6616(2)
H39 H 0.3520 0.2363 0.6121
H40 H 0.3018 0.2838 0.6555
C42 C 0.2352(2) 0.17112(14) 0.6103(2)
H41 H 0.2706 0.1699 0.5661
C43 C 0.1669(2) 0.12971(14) 0.61150(19)
C44 C 0.1717(2) 0.08196(15) 0.5657(2)
H42 H 0.2159 0.0771 0.5305
C45 C 0.1109(3) 0.04124(16) 0.5722(2)
H43 H 0.1122 0.0084 0.5407
C46 C 0.0487(2) 0.04907(15) 0.6249(2)
H44 H 0.0077 0.0212 0.6317
C47 C 0.0468(2) 0.09868(14) 0.6683(2)
C48 C -0.0171(2) 0.10880(14) 0.7284(2)
C49 C -0.0506(2) 0.06573(16) 0.7707(2)
H45 H -0.0357 0.0289 0.7596
C50 C -0.1062(3) 0.07731(18) 0.8293(3)
H46 H -0.1304 0.0485 0.8587
C51 C -0.1260(3) 0.13100(18) 0.8448(3)
H47 H -0.1632 0.1399 0.8855
C52 C -0.0905(2) 0.17186(17) 0.7998(2)
H48 H -0.1047 0.2089 0.8100
Ag2C Ag 0.390734(17) 0.263358(11) 1.002825(17)
Ag3C Ag 0.187967(18) 0.206287(12) 0.784681(16)
N7C N -0.2134(2) 0.21449(12) 0.60137(19)
N8C N -0.17640(17) 0.31447(11) 0.54285(16)
N9C N -0.08100(18) 0.31963(12) 0.40650(17)
N10C N -0.25108(18) 0.29153(12) 0.16570(17)
B1 B 0.3816(5) 0.1439(4) 0.4177(5)
F1 F 0.3901(6) 0.1909(3) 0.3823(6)
F2 F 0.3013(9) 0.1243(5) 0.4207(11)
F3 F 0.4269(10) 0.1027(5) 0.3756(9)
F4 F 0.4292(10) 0.1431(5) 0.5015(7)
B2 B 0.0109(3) 0.09869(18) 0.2128(3)
F5 F -0.0055(2) 0.06624(10) 0.27953(18)
F6 F -0.06557(19) 0.11929(13) 0.1711(2)
F7 F 0.06270(18) 0.14230(10) 0.24217(17)
F8 F 0.05228(18) 0.06754(10) 0.15709(16)
B3 B -0.3397(17) 0.0515(10) 0.8748(17)
F9 F -0.3227(10) 0.0286(3) 0.8018(5)
F10 F -0.2810(7) 0.0446(4) 0.9379(5)
F11 F -0.4186(10) 0.0381(8) 0.8957(12)
F12 F -0.3415(13) 0.1099(7) 0.8666(13)
N13 N -0.1886(4) 0.02654(19) 0.5830(3)
C53 C -0.2085(4) -0.0022(2) 0.6303(3)
C54 C -0.2213(4) -0.0400(2) 0.6967(3)
H49 H -0.2063 -0.0771 0.6801
H50 H -0.2819 -0.0391 0.7069
H51 H -0.1844 -0.0296 0.7484
N14 N 0.1452(7) 0.5146(4) 0.8114(7)
C55 C 0.0926(9) 0.5203(5) 0.8429(8)
C56 C 0.0111(12) 0.5362(6) 0.8604(11)
H52 H 0.0162 0.5691 0.8958
H53 H -0.0146 0.5065 0.8903
H54 H -0.0256 0.5440 0.8075
O1 O 0.0997(14) 0.4949(9) 0.9408(18)
O2 O -0.1899(14) 0.1149(7) 0.0525(15)
B4? B -0.356(4) 0.061(2) 0.867(3)
F13? F 0.347(2) 0.1790(11) 0.3457(14)
F14? F 0.3160(15) 0.1175(11) 0.4397(14)
F15? F 0.4432(15) 0.1239(9) 0.4003(16)
F16? F 0.3843(8) 0.1809(11) 0.4803(12)
F17? F -0.366(2) 0.0276(12) 0.7973(15)
F18? F -0.2703(13) 0.0341(10) 0.911(3)
F19? F -0.421(3) 0.0374(18) 0.912(3)
F20? F -0.352(3) 0.1092(17) 0.848(3)
loop_
_geom_bond_atom_site_label_1
_geom_bond_atom_site_label_2
_geom_bond_site_symmetry_1
_geom_bond_site_symmetry_2
Ag1 N1 1_555 1_555
Ag2 N2 1_555 1_555
Ag3 N4 1_555 1_555
N1 C1 1_555 1_555
N2 C6 1_555 1_555
N3 Ag2 1_555 1_555
N4 C15 1_555 1_555
N5 Ag3 1_555 1_555
N6 Ag3 1_555 1_555
C1 H1 1_555 1_555
C2 C1 1_555 1_555
H2 C2 1_555 1_555
C3 C2 1_555 1_555
H3 C3 1_555 1_555
C4 C3 1_555 1_555
H4 C4 1_555 1_555
C5 N1 1_555 1_555
C6 C5 1_555 1_555
C7 C6 1_555 1_555
H5 C7 1_555 1_555
C8 C7 1_555 1_555
H6 C8 1_555 1_555
C9 C8 1_555 1_555
H7 C9 1_555 1_555
C10 N2 1_555 1_555
C11 N3 1_555 1_555
H8 C11 1_555 1_555
C12 N3 1_555 1_555
H9 C12 1_555 1_555
H10 C12 1_555 1_555
C13 C12 1_555 1_555
H11 C13 1_555 1_555
H12 C13 1_555 1_555
C14 C13 1_555 1_555
H13 C14 1_555 1_555
H14 C14 1_555 1_555
C15 C14 1_555 1_555
H15 C15 1_555 1_555
H16 C15 1_555 1_555
C16 N4 1_555 1_555
H17 C16 1_555 1_555
C17 N5 1_555 1_555
C18 C17 1_555 1_555
H18 C18 1_555 1_555
C19 C18 1_555 1_555
H19 C19 1_555 1_555
C20 C19 1_555 1_555
H20 C20 1_555 1_555
C21 N5 1_555 1_555
C22 N6 1_555 1_555
C23 C22 1_555 1_555
H21 C23 1_555 1_555
C24 C23 1_555 1_555
H22 C24 1_555 1_555
C25 C24 1_555 1_555
H23 C25 1_555 1_555
C26 N6 1_555 1_555
H24 C26 1_555 1_555
N7 C27 1_555 1_555
N8 C32 1_555 1_555
N9 C37 1_555 1_555
N10 C41 1_555 1_555
N11 Ag1 1_555 1_555
N12 Ag1 1_555 1_555
C27 H25 1_555 1_555
C28 C27 1_555 1_555
H26 C28 1_555 1_555
C29 C28 1_555 1_555
H27 C29 1_555 1_555
C30 C29 1_555 1_555
H28 C30 1_555 1_555
C31 N7 1_555 1_555
C32 C31 1_555 1_555
C33 C32 1_555 1_555
H29 C33 1_555 1_555
C34 C33 1_555 1_555
H30 C34 1_555 1_555
C35 C34 1_555 1_555
H31 C35 1_555 1_555
C36 N8 1_555 1_555
C37 C36 1_555 1_555
H32 C37 1_555 1_555
C38 N9 1_555 1_555
H33 C38 1_555 1_555
H34 C38 1_555 1_555
C39 C38 1_555 1_555
H35 C39 1_555 1_555
H36 C39 1_555 1_555
C40 C39 1_555 1_555
H37 C40 1_555 1_555
H38 C40 1_555 1_555
C41 C40 1_555 1_555
H39 C41 1_555 1_555
H40 C41 1_555 1_555
C42 N10 1_555 1_555
H41 C42 1_555 1_555
C43 N11 1_555 1_555
C44 C43 1_555 1_555
H42 C44 1_555 1_555
C45 C44 1_555 1_555
H43 C45 1_555 1_555
C46 C45 1_555 1_555
H44 C46 1_555 1_555
C47 N11 1_555 1_555
C48 N12 1_555 1_555
C49 C48 1_555 1_555
H45 C49 1_555 1_555
C50 C49 1_555 1_555
H46 C50 1_555 1_555
C51 C50 1_555 1_555
H47 C51 1_555 1_555
C52 N12 1_555 1_555
H48 C52 1_555 1_555
B1 F1 1_555 1_555
F2 B1 1_555 1_555
F3 B1 1_555 1_555
F4 B1 1_555 1_555
B2 F5 1_555 1_555
F6 B2 1_555 1_555
F7 B2 1_555 1_555
F8 B2 1_555 1_555
B3 F9 1_555 1_555
F10 B3 1_555 1_555
F11 B3 1_555 1_555
F12 B3 1_555 1_555
N13 C53 1_555 1_555
C53 C54 1_555 1_555
C54 H49 1_555 1_555
H50 C54 1_555 1_555
H51 C54 1_555 1_555
N14 C55 1_555 1_555
C55 C56 1_555 1_555
C56 H52 1_555 1_555
H53 C56 1_555 1_555
H54 C56 1_555 1_555
Ag2C N7 1_555 1_555
Ag3C N10 1_555 1_555
N7C Ag2 1_555 1_555
N8C Ag2 1_555 1_555
N9C Ag2 1_555 1_555
N10C Ag3 1_555 1_555
C4 C5 1_555 1_555
C9 C10 1_555 1_555
C10 C11 1_555 1_555
C16 C17 1_555 1_555
C20 C21 1_555 1_555
C21 C22 1_555 1_555
C25 C26 1_555 1_555
N8 Ag2C 1_555 1_555
N9 Ag2C 1_555 1_555
C30 C31 1_555 1_555
C35 C36 1_555 1_555
C42 C43 1_555 1_555
C46 C47 1_555 1_555
C47 C48 1_555 1_555
C51 C52 1_555 1_555

#END
