
#######################################################################
#
#                 Cambridge Crystallographic Data Centre
#                                CCDC 
#
#######################################################################
#
# If this CIF has been generated from an entry in the Cambridge 
# Structural Database, then it will include bibliographic, chemical, 
# crystal, experimental, refinement or atomic coordinate data resulting 
# from the CCDC's data processing and validation procedures.
#
#######################################################################

data_VAKWOV
_symmetry_cell_setting           monoclinic
_symmetry_space_group_name_H-M   'P 21/n'
_symmetry_Int_Tables_number      14
_space_group_name_Hall           '-P 2yn'
loop_
_symmetry_equiv_pos_site_id
_symmetry_equiv_pos_as_xyz
1 x,y,z
2 1/2-x,1/2+y,1/2-z
3 -x,-y,-z
4 1/2+x,1/2-y,1/2+z
_cell_length_a                   7.4257(15)
_cell_length_b                   24.942(5)
_cell_length_c                   14.488(3)
_cell_angle_alpha                90
_cell_angle_beta                 103.87(3)
_cell_angle_gamma                90
_cell_volume                     2605.11
loop_
_atom_site_label
_atom_site_type_symbol
_atom_site_fract_x
_atom_site_fract_y
_atom_site_fract_z
Cd1 Cd 0.25844(3) 0.239315(10) 0.248907(17)
N1 N 0.2623(5) 0.30647(12) 0.1443(2)
N2 N 0.2520(4) 0.49048(12) 0.0153(2)
N3 N 0.2146(5) 0.67424(12) 0.1406(2)
C1 C 0.2667(5) 0.30082(14) 0.0533(2)
H1 H 0.2701 0.2656 0.0289
C2 C 0.2666(6) 0.34381(14) -0.0073(2)
H2 H 0.2679 0.3378 -0.0719
C3 C 0.2647(5) 0.39572(14) 0.0272(2)
C4 C 0.2603(9) 0.40107(16) 0.1217(3)
H3 H 0.2591 0.4357 0.1486
C5 C 0.2575(9) 0.35632(17) 0.1765(3)
H4 H 0.2520 0.3612 0.2408
C6 C 0.2654(5) 0.44492(14) -0.0309(2)
C7 C 0.2758(5) 0.44329(14) -0.1258(2)
H5 H 0.2839 0.4099 -0.1561
C8 C 0.2742(5) 0.49142(14) -0.1759(2)
C9 C 0.2624(5) 0.53886(14) -0.1263(2)
H6 H 0.2625 0.5725 -0.1569
C10 C 0.2504(5) 0.53672(14) -0.0317(2)
C11 C 0.1888(7) 0.62431(15) 0.1688(3)
H7 H 0.1616 0.6194 0.2290
C12 C 0.2000(7) 0.57955(15) 0.1143(3)
H8 H 0.1834 0.5448 0.1377
C13 C 0.2355(5) 0.58556(14) 0.0251(2)
C14 C 0.2551(6) 0.63762(14) -0.0059(3)
H9 H 0.2761 0.6438 -0.0672
C15 C 0.2436(6) 0.68042(15) 0.0538(3)
H10 H 0.2571 0.7157 0.0318
C16 C 0.2781(5) 0.49210(14) -0.2773(2)
C17 C 0.3300(5) 0.44726(14) -0.3223(2)
H11 H 0.3720 0.4161 -0.2857
C18 C 0.3223(5) 0.44670(15) -0.4186(3)
H12 H 0.3575 0.4153 -0.4469
C19 C 0.2626(5) 0.49239(14) -0.4750(2)
C20 C 0.2102(5) 0.53760(14) -0.4300(2)
H13 H 0.1682 0.5689 -0.4662
C21 C 0.2189(5) 0.53722(14) -0.3337(2)
H14 H 0.1837 0.5685 -0.3050
N4 N 0.2567(5) 0.49309(14) -0.5705(2)
C22 C 0.2867(7) 0.44488(18) -0.6195(3)
H15 H 0.4110 0.4309 -0.5912
H16 H 0.2760 0.4529 -0.6868
H17 H 0.1937 0.4180 -0.6138
C23 C 0.1975(7) 0.54078(17) -0.6263(3)
H18 H 0.0681 0.5487 -0.6266
H19 H 0.2082 0.5349 -0.6917
H20 H 0.2761 0.5711 -0.5986
O1 O 0.0601(4) 0.18377(12) 0.14125(19)
H21 H -0.054(3) 0.188(2) 0.136(4)
H22 H 0.084(7) 0.177(2) 0.088(2)
O2 O -0.0184(4) 0.26989(14) 0.2725(2)
H23 H -0.001(8) 0.2883(19) 0.321(3)
H24 H -0.136(3) 0.273(2) 0.258(4)
N5 N 0.5097(4) 0.30372(12) 0.3955(2)
O3 O 0.5650(4) 0.27953(13) 0.3317(2)
O4 O 0.3432(4) 0.30180(12) 0.3956(2)
O5 O 0.6221(4) 0.32924(12) 0.45848(19)
N6 N 0.6116(4) 0.19076(12) 0.1720(2)
O6 O 0.4389(4) 0.18877(11) 0.1576(2)
O7 O 0.7133(4) 0.18356(12) 0.2529(2)
O8 O 0.6828(4) 0.19975(17) 0.1034(2)
Cd1A Cd 0.24156(3) 0.739315(10) 0.251093(17)
N3A N 0.2854(5) 0.17424(12) 0.3594(2)
O9 O -0.0272(4) 0.33438(14) 0.4182(2)
H25 H -0.133(4) 0.332(2) 0.430(4)
H26 H 0.039(7) 0.321(2) 0.468(3)
loop_
_geom_bond_atom_site_label_1
_geom_bond_atom_site_label_2
_geom_bond_site_symmetry_1
_geom_bond_site_symmetry_2
Cd1 N1 1_555 1_555
N1 C1 1_555 1_555
N2 C6 1_555 1_555
N3 C11 1_555 1_555
C1 H1 1_555 1_555
C2 C1 1_555 1_555
H2 C2 1_555 1_555
C3 C2 1_555 1_555
C4 C3 1_555 1_555
H3 C4 1_555 1_555
C5 N1 1_555 1_555
H4 C5 1_555 1_555
C6 C3 1_555 1_555
C7 C6 1_555 1_555
H5 C7 1_555 1_555
C8 C7 1_555 1_555
C9 C8 1_555 1_555
H6 C9 1_555 1_555
C10 N2 1_555 1_555
C11 H7 1_555 1_555
C12 C11 1_555 1_555
H8 C12 1_555 1_555
C13 C10 1_555 1_555
C14 C13 1_555 1_555
H9 C14 1_555 1_555
C15 N3 1_555 1_555
H10 C15 1_555 1_555
C16 C8 1_555 1_555
C17 C16 1_555 1_555
H11 C17 1_555 1_555
C18 C17 1_555 1_555
H12 C18 1_555 1_555
C19 C18 1_555 1_555
C20 C19 1_555 1_555
H13 C20 1_555 1_555
C21 C16 1_555 1_555
H14 C21 1_555 1_555
N4 C19 1_555 1_555
C22 N4 1_555 1_555
H15 C22 1_555 1_555
H16 C22 1_555 1_555
H17 C22 1_555 1_555
C23 N4 1_555 1_555
H18 C23 1_555 1_555
H19 C23 1_555 1_555
H20 C23 1_555 1_555
O1 Cd1 1_555 1_555
H21 O1 1_555 1_555
H22 O1 1_555 1_555
O2 Cd1 1_555 1_555
H23 O2 1_555 1_555
H24 O2 1_555 1_555
N5 O3 1_555 1_555
O3 Cd1 1_555 1_555
O4 Cd1 1_555 1_555
O5 N5 1_555 1_555
N6 O6 1_555 1_555
O6 Cd1 1_555 1_555
O7 N6 1_555 1_555
O8 N6 1_555 1_555
O9 H25 1_555 1_555
H26 O9 1_555 1_555
Cd1A N3 1_555 1_555
N3A Cd1 1_555 1_555
C4 C5 1_555 1_555
C9 C10 1_555 1_555
C12 C13 1_555 1_555
C14 C15 1_555 1_555
C20 C21 1_555 1_555
N5 O4 1_555 1_555

#END
