
#######################################################################
#
#                 Cambridge Crystallographic Data Centre
#                                CCDC 
#
#######################################################################
#
# If this CIF has been generated from an entry in the Cambridge 
# Structural Database, then it will include bibliographic, chemical, 
# crystal, experimental, refinement or atomic coordinate data resulting 
# from the CCDC's data processing and validation procedures.
#
#######################################################################

data_VAKXAI
_symmetry_cell_setting           triclinic
_symmetry_space_group_name_H-M   'P -1'
_symmetry_Int_Tables_number      2
_space_group_name_Hall           '-P 1'
loop_
_symmetry_equiv_pos_site_id
_symmetry_equiv_pos_as_xyz
1 x,y,z
2 -x,-y,-z
_cell_length_a                   13.2384(10)
_cell_length_b                   14.8656(11)
_cell_length_c                   24.2223(18)
_cell_angle_alpha                82.624(4)
_cell_angle_beta                 74.810(4)
_cell_angle_gamma                64.087(4)
_cell_volume                     4137.27
loop_
_atom_site_label
_atom_site_type_symbol
_atom_site_fract_x
_atom_site_fract_y
_atom_site_fract_z
Cd1 Cd 0.72435(2) -1.22570(2) 1.319748(12)
Cd2 Cd 0.68869(2) -0.72758(2) 0.819110(12)
O1 O 0.7103(3) -1.3116(2) 1.24280(16)
O2 O 0.8499(3) -1.3875(3) 1.28545(17)
O3 O 0.8334(4) -1.4632(3) 1.2190(2)
O4 O 0.8758(3) -1.2720(3) 1.37337(15)
O5 O 0.7272(3) -1.1307(3) 1.39377(15)
O6 O 0.8589(4) -1.1834(4) 1.4430(2)
O7 O 0.5298(3) -0.7747(3) 0.87049(15)
O8 O 0.5233(3) -0.6354(3) 0.89266(15)
O9 O 0.3939(4) -0.6860(4) 0.9403(2)
O10 O 0.8583(3) -0.8079(2) 0.73960(16)
O11 O 0.7541(3) -0.8865(3) 0.78229(15)
O12 O 0.9015(4) -0.9567(3) 0.71284(19)
N1 N 0.8130(3) -1.1431(3) 1.25195(15)
N2 N 0.8883(3) -0.9301(3) 1.08146(14)
N3 N 0.7817(3) -0.7982(3) 0.89293(15)
N4 N 0.6272(3) -1.2955(3) 1.39188(15)
N5 N 0.4683(3) -1.4297(3) 1.57858(14)
N6 N 0.5875(3) -1.6395(3) 1.75022(15)
N7 N 0.5564(3) -1.0920(3) 1.30170(16)
N8 N 0.2845(2) -0.7490(3) 1.24726(16)
N9 N 0.2502(3) -0.4018(3) 1.19347(16)
N10 N 0.7989(3) -1.3889(3) 1.24840(18)
N11 N 0.8212(4) -1.1947(3) 1.40478(17)
N12 N 0.4794(4) -0.6994(3) 0.90266(18)
N13 N 0.8400(4) -0.8850(3) 0.74391(17)
C1 C 0.7917(4) -1.1268(4) 1.19875(19)
C2 C 0.8280(4) -1.0661(3) 1.15794(18)
C3 C 0.8866(3) -1.0171(3) 1.17191(16)
C4 C 0.9044(4) -1.0303(4) 1.22725(18)
C5 C 0.8672(4) -1.0932(4) 1.26516(18)
C6 C 0.9323(3) -0.9557(3) 1.12831(16)
C7 C 1.0183(4) -0.9316(3) 1.13555(17)
C8 C 1.0612(4) -0.8761(3) 1.09260(17)
C9 C 1.0158(4) -0.8498(3) 1.04371(18)
C10 C 0.9299(3) -0.8779(3) 1.03979(16)
C11 C 0.8714(4) -0.7798(4) 0.8944(2)
C12 C 0.9221(4) -0.8048(4) 0.94095(19)
C13 C 0.8803(3) -0.8524(3) 0.98862(17)
C14 C 0.7907(4) -0.8743(3) 0.98623(19)
C15 C 0.7433(4) -0.8464(3) 0.93827(19)
C16 C 1.1570(4) -0.8520(3) 1.09651(17)
C17 C 1.1624(5) -0.7623(4) 1.0723(2)
C18 C 1.2574(5) -0.7436(4) 1.0716(2)
C19 C 1.3502(4) -0.8143(4) 1.09362(19)
C20 C 1.3429(4) -0.9023(4) 1.11911(19)
C21 C 1.2461(4) -0.9190(4) 1.12081(19)
C22 C 1.5487(5) -0.8707(5) 1.1348(3)
C23 C 0.6689(4) -1.3435(3) 1.43744(19)
C24 C 0.6035(4) -1.3722(3) 1.48482(18)
C25 C 0.4888(3) -1.3515(3) 1.48575(16)
C26 C 0.4466(4) -1.3032(3) 1.43759(18)
C27 C 0.5186(4) -1.2776(4) 1.39272(18)
C28 C 0.4155(3) -1.3781(3) 1.53692(16)
C29 C 0.2988(3) -1.3501(3) 1.54002(17)
C30 C 0.2331(3) -1.3763(3) 1.58858(17)
C31 C 0.2868(3) -1.4293(3) 1.63192(16)
C32 C 0.4048(3) -1.4554(3) 1.62535(16)
C33 C 0.4714(4) -1.5941(3) 1.76288(18)
C34 C 0.4096(3) -1.5318(3) 1.72432(17)
C35 C 0.4672(3) -1.5157(3) 1.66976(16)
C36 C 0.5882(3) -1.5620(3) 1.65742(18)
C37 C 0.6431(4) -1.6229(4) 1.69863(19)
C38 C 0.1082(3) -1.3484(3) 1.59245(16)
C39 C 0.0593(4) -1.4144(3) 1.61800(18)
C40 C -0.0528(4) -1.3946(4) 1.61753(19)
C41 C -0.1200(3) -1.3055(4) 1.59225(18)
C42 C -0.0738(4) -1.2372(3) 1.56900(19)
C43 C 0.0400(4) -1.2592(3) 1.56867(18)
C44 C -0.3042(4) -1.3617(4) 1.6319(2)
C45 C 0.4865(3) -1.0997(3) 1.27303(19)
C46 C 0.3919(3) -1.0178(3) 1.25988(18)
C47 C 0.3697(3) -0.9229(3) 1.27579(18)
C48 C 0.4450(3) -0.9135(3) 1.30284(19)
C49 C 0.5363(3) -0.9994(3) 1.3159(2)
C50 C 0.2694(3) -0.8328(3) 1.26243(17)
C51 C 0.1654(3) -0.8393(3) 1.26720(18)
C52 C 0.0710(3) -0.7549(3) 1.25524(19)
C53 C 0.0859(3) -0.6670(3) 1.23923(18)
C54 C 0.1926(3) -0.6677(3) 1.23561(17)
C55 C 0.3247(4) -0.4887(3) 1.1682(2)
C56 C 0.3086(4) -0.5762(3) 1.1804(2)
C57 C 0.2107(3) -0.5748(3) 1.22028(17)
C58 C 0.1299(3) -0.4826(3) 1.24270(19)
C59 C 0.1538(3) -0.3988(3) 1.22930(18)
C60 C -0.0405(3) -0.7582(3) 1.26011(19)
C61 C -0.0784(4) -0.8169(3) 1.3042(2)
C62 C -0.1831(4) -0.8204(4) 1.3098(2)
C63 C -0.2516(4) -0.7682(4) 1.2712(3)
C64 C -0.2153(4) -0.7104(3) 1.2274(2)
C65 C -0.1103(4) -0.7058(3) 1.2228(2)
C66 C -0.4541(5) -0.6954(5) 1.2321(3)
S1 S 1.47391(11) -0.79190(10) 1.08218(6)
S2 S -0.25980(10) -1.27652(11) 1.58352(6)
S3 S -0.38099(13) -0.78166(14) 1.28156(10)
H1 H 0.7504 -1.1578 1.1893
H2 H 0.8129 -1.0582 1.1214
H3 H 0.9403 -0.9966 1.2386
H4 H 0.8790 -1.1007 1.3018
H5 H 1.0463 -0.9514 1.1689
H6 H 1.0419 -0.8129 1.0136
H7 H 0.9001 -0.7472 0.8627
H8 H 0.9842 -0.7904 0.9407
H9 H 0.7620 -0.9083 1.0165
H10 H 0.6827 -0.8625 0.9382
H11 H 1.1021 -0.7146 1.0564
H12 H 1.2587 -0.6826 1.0567
H13 H 1.4018 -0.9496 1.1353
H14 H 1.2421 -0.9775 1.1387
H15 H 1.6187 -0.8639 1.1324
H16 H 1.5677 -0.9395 1.1293
H17 H 1.5002 -0.8517 1.1728
H18 H 0.7446 -1.3572 1.4379
H19 H 0.6352 -1.4046 1.5156
H20 H 0.3714 -1.2890 1.4363
H21 H 0.4893 -1.2447 1.3608
H22 H 0.2654 -1.3145 1.5100
H23 H 0.2451 -1.4477 1.6654
H24 H 0.4313 -1.6039 1.7990
H25 H 0.3295 -1.5010 1.7345
H26 H 0.6312 -1.5522 1.6217
H27 H 0.7239 -1.6536 1.6898
H28 H 0.1022 -1.4734 1.6361
H29 H -0.0829 -1.4403 1.6345
H30 H -0.1198 -1.1758 1.5543
H31 H 0.0703 -1.2127 1.5527
H32 H -0.3834 -1.3456 1.6328
H33 H -0.2581 -1.4295 1.6204
H34 H -0.2992 -1.3541 1.6702
H35 H 0.5026 -1.1632 1.2611
H36 H 0.3453 -1.0263 1.2396
H37 H 0.4336 -0.8500 1.3126
H38 H 0.5850 -0.9938 1.3360
H39 H 0.1585 -0.8991 1.2781
H40 H 0.0251 -0.6084 1.2315
H41 H 0.3894 -0.4898 1.1401
H42 H 0.3633 -0.6355 1.1623
H43 H 0.0593 -0.4763 1.2669
H44 H 0.0997 -0.3376 1.2465
H45 H -0.0318 -0.8534 1.3297
H46 H -0.2084 -0.8576 1.3397
H47 H -0.2599 -0.6757 1.2012
H48 H -0.0864 -0.6674 1.1938
H49 H -0.5262 -0.6998 1.2349
H50 H -0.4074 -0.7105 1.1936
H51 H -0.4699 -0.6289 1.2416
Cd2_2 Cd 0.68869(2) -1.72758(2) 1.819110(12)
Cd2A Cd 0.31131(2) -0.27242(2) 1.180890(12)
N6_2 N 0.5875(3) -0.6395(3) 0.75022(15)
N9A N 0.7498(3) -0.5982(3) 0.80653(16)
O13 O 0.6151(5) -0.1139(4) 1.1036(2)
C67 C 0.6140(10) -0.0823(6) 1.0461(3)
H52 H 0.6691 -0.0548 1.0304
H53 H 0.5372 -0.0321 1.0451
H54 H 0.6315 -0.1383 1.0236
H55 H 0.5656 -0.1379 1.1165
O14 O -0.1013(4) 0.3848(4) 0.6010(2)
C68 C -0.0786(8) 0.4226(5) 0.5448(3)
H56 H -0.1487 0.4611 0.5326
H57 H -0.0376 0.4636 0.5426
H58 H -0.0315 0.3674 0.5197
H59 H -0.0498 0.3505 0.6172
O15 O 1.1435(11) 0.2489(10) -0.0723(4)
O16 O 0.1026(18) 0.8465(18) 0.4269(9)
C69 C 0.6713(7) 0.4522(5) 1.0349(4)
Cl1 Cl 0.5996(3) 0.37692(19) 1.0406(2)
Cl2 Cl 0.7429(3) 0.4615(2) 0.96556(12)
Cl3 Cl 0.7712(4) 0.4035(3) 1.07819(19)
H60 H 0.6138 0.5200 1.0485
C70 C 0.3496(7) 0.9568(6) 0.5181(3)
Cl4 Cl 0.4855(6) 0.8790(3) 0.5272(4)
Cl5 Cl 0.2405(3) 0.9173(3) 0.53676(14)
Cl6 Cl 0.3586(7) 0.9789(3) 0.44039(18)
H61 H 0.3252 1.0221 0.5329
C71? C 0.9246(12) 0.5722(10) 0.0943(5)
C72? C -0.1074(18) 1.0940(13) 0.5889(10)
Cl7? Cl 0.8365(5) 0.6963(4) 0.0885(2)
Cl8? Cl 1.0263(6) 0.5706(7) 0.1289(3)
Cl9? Cl 0.9837(8) 0.5260(5) 0.0235(2)
Cl10? Cl -0.2104(10) 1.0442(9) 0.6162(4)
Cl11? Cl -0.0152(10) 1.0250(8) 0.5268(4)
Cl12? Cl -0.1591(7) 1.2273(7) 0.5824(3)
H62? H 0.8816 0.5376 0.1166
H63? H -0.0611 1.0755 0.6161
Cl13? Cl 0.4553(9) 0.9305(6) 0.4597(4)
Cl14? Cl 0.4245(7) 0.8649(4) 0.5699(3)
loop_
_geom_bond_atom_site_label_1
_geom_bond_atom_site_label_2
_geom_bond_site_symmetry_1
_geom_bond_site_symmetry_2
Cd1 O1 1_555 1_555
Cd2 O7 1_555 1_555
O1 N10 1_555 1_555
O2 Cd1 1_555 1_555
O3 N10 1_555 1_555
O4 Cd1 1_555 1_555
O5 Cd1 1_555 1_555
O6 N11 1_555 1_555
O7 N12 1_555 1_555
O8 Cd2 1_555 1_555
O9 N12 1_555 1_555
O10 Cd2 1_555 1_555
O11 Cd2 1_555 1_555
O12 N13 1_555 1_555
O13 C67 1_555 1_555
O14 C68 1_555 1_555
N1 Cd1 1_555 1_555
N2 C6 1_555 1_555
N3 Cd2 1_555 1_555
N4 Cd1 1_555 1_555
N5 C28 1_555 1_555
N6 C33 1_555 1_555
N7 Cd1 1_555 1_555
N8 C50 1_555 1_555
N9 C55 1_555 1_555
N10 O2 1_555 1_555
N11 O4 1_555 1_555
N12 O8 1_555 1_555
N13 O10 1_555 1_555
C1 N1 1_555 1_555
C2 C1 1_555 1_555
C3 C2 1_555 1_555
C4 C3 1_555 1_555
C5 N1 1_555 1_555
C6 C3 1_555 1_555
C7 C6 1_555 1_555
C8 C7 1_555 1_555
C9 C8 1_555 1_555
C10 N2 1_555 1_555
C11 N3 1_555 1_555
C12 C11 1_555 1_555
C13 C10 1_555 1_555
C14 C13 1_555 1_555
C15 N3 1_555 1_555
C16 C8 1_555 1_555
C17 C16 1_555 1_555
C18 C17 1_555 1_555
C19 C18 1_555 1_555
C20 C19 1_555 1_555
C21 C16 1_555 1_555
C22 S1 1_555 1_555
C23 N4 1_555 1_555
C24 C23 1_555 1_555
C25 C24 1_555 1_555
C26 C25 1_555 1_555
C27 N4 1_555 1_555
C28 C25 1_555 1_555
C29 C28 1_555 1_555
C30 C29 1_555 1_555
C31 C30 1_555 1_555
C32 N5 1_555 1_555
C33 C34 1_555 1_555
C34 C35 1_555 1_555
C35 C32 1_555 1_555
C36 C35 1_555 1_555
C37 N6 1_555 1_555
C38 C30 1_555 1_555
C39 C38 1_555 1_555
C40 C39 1_555 1_555
C41 C40 1_555 1_555
C42 C41 1_555 1_555
C43 C38 1_555 1_555
C44 S2 1_555 1_555
C45 N7 1_555 1_555
C46 C45 1_555 1_555
C47 C46 1_555 1_555
C48 C47 1_555 1_555
C49 N7 1_555 1_555
C50 C47 1_555 1_555
C51 C50 1_555 1_555
C52 C51 1_555 1_555
C53 C52 1_555 1_555
C54 N8 1_555 1_555
C55 C56 1_555 1_555
C56 C57 1_555 1_555
C57 C54 1_555 1_555
C58 C57 1_555 1_555
C59 N9 1_555 1_555
C60 C52 1_555 1_555
C61 C60 1_555 1_555
C62 C61 1_555 1_555
C63 C62 1_555 1_555
C64 C63 1_555 1_555
C65 C60 1_555 1_555
C66 S3 1_555 1_555
S1 C19 1_555 1_555
S2 C41 1_555 1_555
S3 C63 1_555 1_555
C67 H52 1_555 1_555
C68 H56 1_555 1_555
C69 Cl1 1_555 1_555
C70 Cl4 1_555 1_555
Cl2 C69 1_555 1_555
Cl3 C69 1_555 1_555
Cl5 C70 1_555 1_555
Cl6 C70 1_555 1_555
H1 C1 1_555 1_555
H2 C2 1_555 1_555
H3 C4 1_555 1_555
H4 C5 1_555 1_555
H5 C7 1_555 1_555
H6 C9 1_555 1_555
H7 C11 1_555 1_555
H8 C12 1_555 1_555
H9 C14 1_555 1_555
H10 C15 1_555 1_555
H11 C17 1_555 1_555
H12 C18 1_555 1_555
H13 C20 1_555 1_555
H14 C21 1_555 1_555
H15 C22 1_555 1_555
H16 C22 1_555 1_555
H17 C22 1_555 1_555
H18 C23 1_555 1_555
H19 C24 1_555 1_555
H20 C26 1_555 1_555
H21 C27 1_555 1_555
H22 C29 1_555 1_555
H23 C31 1_555 1_555
H24 C33 1_555 1_555
H25 C34 1_555 1_555
H26 C36 1_555 1_555
H27 C37 1_555 1_555
H28 C39 1_555 1_555
H29 C40 1_555 1_555
H30 C42 1_555 1_555
H31 C43 1_555 1_555
H32 C44 1_555 1_555
H33 C44 1_555 1_555
H34 C44 1_555 1_555
H35 C45 1_555 1_555
H36 C46 1_555 1_555
H37 C48 1_555 1_555
H38 C49 1_555 1_555
H39 C51 1_555 1_555
H40 C53 1_555 1_555
H41 C55 1_555 1_555
H42 C56 1_555 1_555
H43 C58 1_555 1_555
H44 C59 1_555 1_555
H45 C61 1_555 1_555
H46 C62 1_555 1_555
H47 C64 1_555 1_555
H48 C65 1_555 1_555
H49 C66 1_555 1_555
H50 C66 1_555 1_555
H51 C66 1_555 1_555
H53 C67 1_555 1_555
H54 C67 1_555 1_555
H55 O13 1_555 1_555
H57 C68 1_555 1_555
H58 C68 1_555 1_555
H59 O14 1_555 1_555
H60 C69 1_555 1_555
H61 C70 1_555 1_555
Cd2_2 N6 1_555 1_555
Cd2A N9 1_555 1_555
N6_2 Cd2 1_555 1_555
N9A Cd2 1_555 1_555
O5 N11 1_555 1_555
O11 N13 1_555 1_555
C4 C5 1_555 1_555
C9 C10 1_555 1_555
C12 C13 1_555 1_555
C14 C15 1_555 1_555
C20 C21 1_555 1_555
C26 C27 1_555 1_555
C31 C32 1_555 1_555
C36 C37 1_555 1_555
C42 C43 1_555 1_555
C48 C49 1_555 1_555
C53 C54 1_555 1_555
C58 C59 1_555 1_555
C64 C65 1_555 1_555

#END
