
#######################################################################
#
#                 Cambridge Crystallographic Data Centre
#                                CCDC 
#
#######################################################################
#
# If this CIF has been generated from an entry in the Cambridge 
# Structural Database, then it will include bibliographic, chemical, 
# crystal, experimental, refinement or atomic coordinate data resulting 
# from the CCDC's data processing and validation procedures.
#
#######################################################################

data_VAKXEM
_symmetry_cell_setting           monoclinic
_symmetry_space_group_name_H-M   'C 2/c'
_symmetry_Int_Tables_number      15
_space_group_name_Hall           '-C 2yn'
loop_
_symmetry_equiv_pos_site_id
_symmetry_equiv_pos_as_xyz
1 x,y,z
2 1/2+x,1/2+y,z
3 -x,y,1/2-z
4 1/2-x,1/2+y,1/2-z
5 -x,-y,-z
6 1/2-x,1/2-y,-z
7 x,-y,1/2+z
8 1/2+x,1/2-y,1/2+z
_cell_length_a                   26.8966(4)
_cell_length_b                   13.1052(2)
_cell_length_c                   26.3436(4)
_cell_angle_alpha                90
_cell_angle_beta                 119.960(1)
_cell_angle_gamma                90
_cell_volume                     8044.92
loop_
_atom_site_label
_atom_site_type_symbol
_atom_site_fract_x
_atom_site_fract_y
_atom_site_fract_z
Cd1 Cd 0.728660(4) 0.763072(8) 0.683474(5)
O1 O 0.67594(6) 0.91874(11) 0.62938(6)
O2 O 0.73436(6) 0.85085(11) 0.60497(6)
O3 O 0.68016(9) 0.97755(15) 0.55434(9)
O4 O 0.66745(6) 0.78968(12) 0.72130(6)
O5 O 0.73182(6) 0.67466(11) 0.76909(7)
O6 O 0.67020(7) 0.71602(14) 0.79667(8)
N1 N 0.80183(6) 0.65167(10) 0.69640(6)
N2 N 1.0000 0.53251(14) 0.7500
N3 N 0.65850(6) 0.66500(11) 0.60955(6)
N4 N 0.49625(6) 0.53444(10) 0.41958(6)
N5 N 0.30455(6) 0.63971(11) 0.25094(6)
N6 N 0.69652(7) 0.91741(12) 0.59514(7)
N7 N 0.68982(6) 0.72638(12) 0.76356(7)
C1 C 0.83800(7) 0.68258(12) 0.67828(8)
C2 C 0.88712(7) 0.62901(12) 0.69008(7)
C3 C 0.89972(6) 0.53837(11) 0.72174(7)
C4 C 0.86153(6) 0.50494(12) 0.73946(7)
C5 C 0.81406(6) 0.56413(12) 0.72684(7)
C6 C 0.95227(6) 0.47888(11) 0.73626(7)
C7 C 0.95028(6) 0.37252(11) 0.73560(7)
C8 C 1.0000 0.31753(16) 0.7500
C9 C 1.0000 0.20493(16) 0.7500
C10 C 0.95183(7) 0.15060(12) 0.70876(8)
C11 C 0.95204(7) 0.04461(13) 0.70854(8)
C12 C 1.0000 -0.00912(18) 0.7500
C13 C 1.0000 -0.1186(2) 0.7500
C14 C 1.000000(7) -0.2100(2) 0.750000(7)
C15 C 0.66834(7) 0.56569(13) 0.60591(7)
C16 C 0.63214(7) 0.50403(13) 0.55918(7)
C17 C 0.58241(6) 0.54599(12) 0.51305(7)
C18 C 0.57124(7) 0.64851(12) 0.51744(7)
C19 C 0.61007(7) 0.70498(13) 0.56542(7)
C20 C 0.54261(6) 0.48504(12) 0.46079(7)
C21 C 0.55311(6) 0.38176(12) 0.45591(7)
C22 C 0.51367(6) 0.32715(12) 0.40672(7)
C23 C 0.46542(6) 0.37874(12) 0.36408(7)
C24 C 0.45841(6) 0.48208(12) 0.37204(7)
C25 C 0.34149(7) 0.67986(13) 0.30353(8)
C26 C 0.39214(7) 0.63256(13) 0.34322(7)
C27 C 0.40652(6) 0.53871(12) 0.32892(7)
C28 C 0.36914(7) 0.49912(13) 0.27377(7)
C29 C 0.31902(7) 0.55050(13) 0.23668(7)
C30 C 0.52116(7) 0.21633(12) 0.40126(7)
C31 C 0.57550(8) 0.17407(14) 0.42053(8)
C32 C 0.58204(9) 0.06889(15) 0.41815(9)
C33 C 0.53468(9) 0.00458(14) 0.39699(8)
C34 C 0.48031(9) 0.04642(14) 0.37698(8)
C35 C 0.47366(7) 0.15145(13) 0.37873(8)
C36 C 0.53983(11) -0.10486(16) 0.39585(10)
C37 C 0.54066(14) -0.19598(18) 0.39332(12)
H1 H 0.8293 0.7426 0.6561
H2 H 0.9107 0.6543 0.6774
H3 H 0.8687 0.4437 0.7612
H4 H 0.7884 0.5422 0.7402
H5 H 0.9173 0.3390 0.7264
H6 H 0.9198 0.1854 0.6806
H7 H 0.9195 0.0095 0.6797
H8 H 0.7021 0.5368 0.6377
H9 H 0.6409 0.4347 0.5591
H10 H 0.5383 0.6787 0.4883
H11 H 0.6024 0.7752 0.5675
H12 H 0.5854 0.3489 0.4849
H13 H 0.4368 0.3434 0.3298
H14 H 0.3316 0.7419 0.3131
H15 H 0.4167 0.6633 0.3795
H16 H 0.3769 0.4387 0.2614
H17 H 0.2949 0.5215 0.2009
H18 H 0.6082 0.2176 0.4355
H19 H 0.6199 0.0423 0.4319
H20 H 0.4478 0.0027 0.3613
H21 H 0.4356 0.1778 0.3640
H22 H 0.5401 -0.2691 0.3916
H26 H 1.0000 -0.2821 0.7500
Cd1B Cd 1.271340(4) 0.763072(8) 0.816526(5)
Cd1G Cd 0.228660(4) 0.736928(8) 0.183474(5)
Cd1G_2 Cd 1.228660(4) 0.736928(8) 1.183474(5)
O1B O 1.32406(6) 0.91874(11) 0.87062(6)
O2B O 1.26564(6) 0.85085(11) 0.89503(6)
O3B O 1.31984(9) 0.97755(15) 0.94566(9)
O4B O 1.33255(6) 0.78968(12) 0.77870(6)
O5B O 1.26818(6) 0.67466(11) 0.73091(7)
O6B O 1.32980(7) 0.71602(14) 0.70333(8)
N1B N 1.19817(6) 0.65167(10) 0.80360(6)
N3G N 1.15850(6) 0.83500(11) 1.10955(6)
N3B N 1.34150(6) 0.66500(11) 0.89045(6)
N4G N 0.99625(6) 0.96556(10) 0.91958(6)
N5G N 0.80455(6) 0.86029(11) 0.75094(6)
N5E N 1.19545(6) 0.86029(11) 0.74906(6)
N6B N 1.30348(7) 0.91741(12) 0.90486(7)
N7B N 1.31018(6) 0.72638(12) 0.73644(7)
C1B C 1.16200(7) 0.68258(12) 0.82172(8)
C2B C 1.11288(7) 0.62901(12) 0.80992(7)
C3B C 1.10028(6) 0.53837(11) 0.77826(7)
C4B C 1.13847(6) 0.50494(12) 0.76054(7)
C5B C 1.18594(6) 0.56413(12) 0.77316(7)
C6B C 1.04773(6) 0.47888(11) 0.76374(7)
C7B C 1.04972(6) 0.37252(11) 0.76440(7)
C10B C 1.04817(7) 0.15060(12) 0.79124(8)
C11B C 1.04796(7) 0.04461(13) 0.79146(8)
C15G C 1.16834(7) 0.93431(13) 1.10591(7)
C16G C 1.13214(7) 0.99597(13) 1.05918(7)
C17G C 1.08241(6) 0.95401(12) 1.01305(7)
C18G C 1.07124(7) 0.85149(12) 1.01744(7)
C19G C 1.11007(7) 0.79502(13) 1.06542(7)
C20G C 1.04261(6) 1.01496(12) 0.96079(7)
C21G C 1.05311(6) 1.11824(12) 0.95591(7)
C22G C 1.01367(6) 1.17285(12) 0.90672(7)
C23G C 0.96542(6) 1.12126(12) 0.86408(7)
C24G C 0.95841(6) 1.01792(12) 0.87204(7)
C25G C 0.84149(7) 0.82014(13) 0.80353(8)
C26G C 0.89214(7) 0.86744(13) 0.84322(7)
C27G C 0.90652(6) 0.96129(12) 0.82892(7)
C28G C 0.86914(7) 1.00088(13) 0.77377(7)
C29G C 0.81902(7) 0.94950(13) 0.73668(7)
C30G C 1.02116(7) 1.28367(12) 0.90126(7)
C31G C 1.07550(8) 1.32593(14) 0.92053(8)
C32G C 1.08204(9) 1.43111(15) 0.91815(9)
C33G C 1.03468(9) 1.49542(14) 0.89699(8)
C34G C 0.98031(9) 1.45358(14) 0.87698(8)
C35G C 0.97366(7) 1.34855(13) 0.87873(8)
C36G C 1.03983(11) 1.60486(16) 0.89585(10)
C37G C 1.04066(14) 1.69598(18) 0.89332(12)
H1B H 1.1707 0.7426 0.8439
H2B H 1.0893 0.6543 0.8226
H3B H 1.1313 0.4437 0.7388
H4B H 1.2116 0.5422 0.7598
H5B H 1.0827 0.3390 0.7736
H6B H 1.0802 0.1854 0.8194
H7B H 1.0805 0.0095 0.8203
H8G H 1.2021 0.9632 1.1377
H9G H 1.1409 1.0653 1.0591
H10G H 1.0383 0.8213 0.9883
H11G H 1.1024 0.7248 1.0675
H12G H 1.0854 1.1511 0.9849
H13G H 0.9368 1.1566 0.8298
H14G H 0.8316 0.7581 0.8131
H15G H 0.9167 0.8367 0.8795
H16G H 0.8769 1.0613 0.7614
H17G H 0.7949 0.9785 0.7009
H18G H 1.1082 1.2824 0.9355
H19G H 1.1199 1.4577 0.9319
H20G H 0.9478 1.4973 0.8613
H21G H 0.9356 1.3222 0.8640
H22G H 1.0401 1.7691 0.8916
O7 O 0.67105(10) 1.26489(15) 0.56773(10)
C39 C 0.71613(14) 1.2299(3) 0.55890(17)
H24 H 0.6671 1.2137 0.5849
H27 H 0.7249 1.2817 0.5394
H28 H 0.7493 1.2151 0.5955
H29 H 0.7041 1.1701 0.5354
O8 O 0.61692(8) 1.11808(14) 0.60411(8)
C40 C 0.56576(13) 1.1143(3) 0.54923(12)
H25 H 0.6330 1.0612 0.6080
H30 H 0.5459 1.1772 0.5428
H31 H 0.5746 1.1036 0.5190
H32 H 0.5422 1.0602 0.5492
C38 C 0.72195(12) 0.5727(3) 0.48135(15)
Cl1 Cl 0.76730(3) 0.53633(14) 0.55370(4)
Cl2 Cl 0.68028(6) 0.67863(8) 0.47703(8)
Cl3 Cl 0.67755(4) 0.47072(8) 0.44304(4)
H23 H 0.7474 0.5897 0.4642
loop_
_geom_bond_atom_site_label_1
_geom_bond_atom_site_label_2
_geom_bond_site_symmetry_1
_geom_bond_site_symmetry_2
Cd1 O1 1_555 1_555
O1 N6 1_555 1_555
O2 Cd1 1_555 1_555
O3 N6 1_555 1_555
O4 Cd1 1_555 1_555
O5 Cd1 1_555 1_555
O6 N7 1_555 1_555
O7 C39 1_555 1_555
O8 C40 1_555 1_555
N1 Cd1 1_555 1_555
N2 C6 1_555 1_555
N3 Cd1 1_555 1_555
N4 C20 1_555 1_555
N5 C25 1_555 1_555
N6 O2 1_555 1_555
N7 O4 1_555 1_555
C1 N1 1_555 1_555
C2 C1 1_555 1_555
C3 C2 1_555 1_555
C4 C3 1_555 1_555
C5 N1 1_555 1_555
C6 C3 1_555 1_555
C7 C6 1_555 1_555
C8 C7 1_555 1_555
C9 C8 1_555 1_555
C10 C9 1_555 1_555
C11 C10 1_555 1_555
C12 C11 1_555 1_555
C13 C12 1_555 1_555
C14 C13 1_555 1_555
C15 N3 1_555 1_555
C16 C15 1_555 1_555
C17 C16 1_555 1_555
C18 C17 1_555 1_555
C19 N3 1_555 1_555
C20 C17 1_555 1_555
C21 C20 1_555 1_555
C22 C21 1_555 1_555
C23 C22 1_555 1_555
C24 N4 1_555 1_555
C25 C26 1_555 1_555
C26 C27 1_555 1_555
C27 C24 1_555 1_555
C28 C27 1_555 1_555
C29 N5 1_555 1_555
C30 C22 1_555 1_555
C31 C30 1_555 1_555
C32 C31 1_555 1_555
C33 C32 1_555 1_555
C34 C33 1_555 1_555
C35 C30 1_555 1_555
C36 C33 1_555 1_555
C37 C36 1_555 1_555
C38 Cl1 1_555 1_555
C39 H27 1_555 1_555
C40 H30 1_555 1_555
Cl2 C38 1_555 1_555
Cl3 C38 1_555 1_555
H1 C1 1_555 1_555
H2 C2 1_555 1_555
H3 C4 1_555 1_555
H4 C5 1_555 1_555
H5 C7 1_555 1_555
H6 C10 1_555 1_555
H7 C11 1_555 1_555
H8 C15 1_555 1_555
H9 C16 1_555 1_555
H10 C18 1_555 1_555
H11 C19 1_555 1_555
H12 C21 1_555 1_555
H13 C23 1_555 1_555
H14 C25 1_555 1_555
H15 C26 1_555 1_555
H16 C28 1_555 1_555
H17 C29 1_555 1_555
H18 C31 1_555 1_555
H19 C32 1_555 1_555
H20 C34 1_555 1_555
H21 C35 1_555 1_555
H22 C37 1_555 1_555
H23 C38 1_555 1_555
H24 O7 1_555 1_555
H25 O8 1_555 1_555
H26 C14 1_555 1_555
H28 C39 1_555 1_555
H29 C39 1_555 1_555
H31 C40 1_555 1_555
H32 C40 1_555 1_555
Cd1B O1B 1_555 1_555
Cd1G N5 1_555 1_555
Cd1G_2 N3G 1_555 1_555
O1B N6B 1_555 1_555
O2B Cd1B 1_555 1_555
O3B N6B 1_555 1_555
O4B Cd1B 1_555 1_555
O5B Cd1B 1_555 1_555
O6B N7B 1_555 1_555
N1B Cd1B 1_555 1_555
N3G C15G 1_555 1_555
N3B Cd1B 1_555 1_555
N4G C20G 1_555 1_555
N5G Cd1 1_555 1_555
N5E Cd1B 1_555 1_555
N6B O2B 1_555 1_555
N7B O4B 1_555 1_555
C1B N1B 1_555 1_555
C2B C1B 1_555 1_555
C3B C2B 1_555 1_555
C4B C3B 1_555 1_555
C5B N1B 1_555 1_555
C6B N2 1_555 1_555
C7B C8 1_555 1_555
C10B C9 1_555 1_555
C11B C12 1_555 1_555
C15G C16G 1_555 1_555
C16G C17G 1_555 1_555
C17G C18G 1_555 1_555
C18G C19G 1_555 1_555
C19G N3G 1_555 1_555
C20G C17G 1_555 1_555
C21G C20G 1_555 1_555
C22G C21G 1_555 1_555
C23G C22G 1_555 1_555
C24G N4G 1_555 1_555
C25G N5G 1_555 1_555
C26G C25G 1_555 1_555
C27G C24G 1_555 1_555
C28G C27G 1_555 1_555
C29G N5G 1_555 1_555
C30G C22G 1_555 1_555
C31G C30G 1_555 1_555
C32G C31G 1_555 1_555
C33G C32G 1_555 1_555
C34G C33G 1_555 1_555
C35G C30G 1_555 1_555
C36G C33G 1_555 1_555
C37G C36G 1_555 1_555
H1B C1B 1_555 1_555
H2B C2B 1_555 1_555
H3B C4B 1_555 1_555
H4B C5B 1_555 1_555
H5B C7B 1_555 1_555
H6B C10B 1_555 1_555
H7B C11B 1_555 1_555
H8G C15G 1_555 1_555
H9G C16G 1_555 1_555
H10G C18G 1_555 1_555
H11G C19G 1_555 1_555
H12G C21G 1_555 1_555
H13G C23G 1_555 1_555
H14G C25G 1_555 1_555
H15G C26G 1_555 1_555
H16G C28G 1_555 1_555
H17G C29G 1_555 1_555
H18G C31G 1_555 1_555
H19G C32G 1_555 1_555
H20G C34G 1_555 1_555
H21G C35G 1_555 1_555
H22G C37G 1_555 1_555
O5 N7 1_555 1_555
C4 C5 1_555 1_555
C18 C19 1_555 1_555
C23 C24 1_555 1_555
C28 C29 1_555 1_555
C34 C35 1_555 1_555
O5B N7B 1_555 1_555
C3B C6B 1_555 1_555
C4B C5B 1_555 1_555
C6B C7B 1_555 1_555
C10B C11B 1_555 1_555
C23G C24G 1_555 1_555
C26G C27G 1_555 1_555
C28G C29G 1_555 1_555
C34G C35G 1_555 1_555

#END
