
#######################################################################
#
#                 Cambridge Crystallographic Data Centre
#                                CCDC 
#
#######################################################################
#
# If this CIF has been generated from an entry in the Cambridge 
# Structural Database, then it will include bibliographic, chemical, 
# crystal, experimental, refinement or atomic coordinate data resulting 
# from the CCDC's data processing and validation procedures.
#
#######################################################################

data_VAKZIR
_symmetry_cell_setting           triclinic
_symmetry_space_group_name_H-M   'P -1'
_symmetry_Int_Tables_number      2
_space_group_name_Hall           '-P 1'
loop_
_symmetry_equiv_pos_site_id
_symmetry_equiv_pos_as_xyz
1 x,y,z
2 -x,-y,-z
_cell_length_a                   10.4803(16)
_cell_length_b                   12.755(2)
_cell_length_c                   21.029(3)
_cell_angle_alpha                96.962(3)
_cell_angle_beta                 99.777(3)
_cell_angle_gamma                109.041(3)
_cell_volume                     2571.18
loop_
_atom_site_label
_atom_site_type_symbol
_atom_site_fract_x
_atom_site_fract_y
_atom_site_fract_z
Zn1 Zn 0.5000 0.5000 0.5000
Zn2 Zn 0.27203(17) 0.33814(16) 0.37322(9)
Zn3 Zn 0.45869(19) 0.24419(16) 0.46633(10)
Zn4 Zn 0.2366(2) 0.3307(2) 0.52104(11)
Zn5 Zn 0.5000 0.0000 1.0000
Zn6 Zn 0.34831(16) -0.17477(13) 0.86435(8)
Zn7 Zn 0.79416(14) 0.19912(13) 1.01503(8)
Zn8 Zn 0.50714(16) 0.24020(14) 1.00659(9)
S1 S -0.0255(4) 0.3239(4) 0.8298(2)
S2 S 0.0554(5) 0.4686(4) 0.7971(2)
O1 O 0.5189(9) 0.5577(8) 0.4075(5)
O2 O 0.3209(10) 0.4770(9) 0.3358(5)
O3 O 0.6917(10) 0.4603(9) 0.4919(5)
O4 O 0.6465(11) 0.2920(10) 0.5201(6)
O5 O 0.3066(14) 0.2261(11) 0.3133(6)
O6 O 0.4680(13) 0.1854(12) 0.3766(7)
O7 O 0.0695(10) 0.2851(11) 0.3611(6)
O8 O 0.0462(12) 0.2931(11) 0.4650(7)
O9 O 0.382(3) 0.112(2) 0.5095(14)
O10 O 0.243(3) 0.187(2) 0.5497(14)
O11 O 0.3631(9) 0.3488(8) 0.4622(4)
O12 O 0.4689(10) 0.0850(8) 0.9184(4)
O13 O 0.4216(12) -0.0397(9) 0.8269(5)
O14 O 0.3434(9) 0.0606(8) 1.0302(5)
O15 O 0.1717(10) -0.0859(8) 1.0457(5)
O16 O 0.1507(10) -0.2385(10) 0.8208(5)
O17 O 0.0500(9) -0.2419(10) 0.9073(5)
O18 O 0.5779(11) 0.2844(9) 1.1764(5)
O19 O 0.4980(11) 0.3412(9) 1.0876(6)
O20 O 0.8377(9) 0.3333(9) 0.9760(6)
O21 O 0.6435(11) 0.3673(8) 0.9749(6)
O22 O 0.6210(8) 0.1557(7) 1.0411(4)
C1 C 0.4324(16) 0.5535(12) 0.3573(7)
C2 C 0.464(2) 0.6488(14) 0.3226(8)
H1 H 0.3947 0.6303 0.2819
H2 H 0.5546 0.6638 0.3128
H3 H 0.4629 0.7153 0.3501
C3 C 0.7291(15) 0.3931(15) 0.5188(7)
C4 C 0.8716(15) 0.4224(15) 0.5589(9)
H4 H 0.9221 0.5025 0.5633
H5 H 0.9190 0.3796 0.5374
H6 H 0.8667 0.4041 0.6021
C5 C 0.392(2) 0.1789(16) 0.3239(9)
C6 C 0.407(3) 0.104(2) 0.2670(10)
H7 H 0.4778 0.0731 0.2820
H8 H 0.4336 0.1473 0.2335
H9 H 0.3196 0.0424 0.2487
C7 C 0.0036(14) 0.2756(15) 0.4046(12)
C8 C -0.1522(15) 0.2427(18) 0.3800(12)
H10 H -0.1823 0.3003 0.4002
H11 H -0.1997 0.1710 0.3916
H12 H -0.1739 0.2358 0.3326
C9 C 0.284(4) 0.107(2) 0.5380(18)
C10 C 0.257(4) 0.000(3) 0.5684(18)
H13 H 0.1740 -0.0136 0.5855
H14 H 0.3354 0.0112 0.6039
H15 H 0.2455 -0.0636 0.5351
N1 N 0.1862(11) 0.3778(11) 0.6074(6)
C11 C 0.1177(17) 0.2981(14) 0.6354(8)
H16 H 0.0986 0.2227 0.6158
C12 C 0.0706(17) 0.3176(14) 0.6931(9)
H17 H 0.0169 0.2570 0.7097
C13 C 0.1054(16) 0.4281(15) 0.7248(7)
C14 C 0.1847(17) 0.5146(14) 0.6964(8)
H18 H 0.2103 0.5910 0.7157
C15 C 0.2237(14) 0.4842(14) 0.6396(8)
H19 H 0.2805 0.5422 0.6223
C16 C 0.4644(17) 0.0606(12) 0.8590(8)
C17 C 0.517(3) 0.1547(14) 0.8237(10)
H20 H 0.5868 0.2186 0.8543
H21 H 0.5564 0.1299 0.7890
H22 H 0.4406 0.1770 0.8048
C18 C 0.2361(13) 0.0177(11) 1.0525(7)
C19 C 0.1806(16) 0.0999(13) 1.0853(9)
H23 H 0.1581 0.0782 1.1258
H24 H 0.2502 0.1753 1.0950
H25 H 0.0979 0.0993 1.0561
C20 C 0.0471(13) -0.2580(11) 0.8472(7)
C21 C -0.0954(14) -0.3051(14) 0.8029(7)
H26 H -0.1418 -0.3818 0.8082
H27 H -0.1484 -0.2587 0.8143
H28 H -0.0878 -0.3051 0.7576
C22 C 0.5237(14) 0.3423(12) 1.1490(9)
C23 C 0.4874(16) 0.4276(14) 1.1909(8)
H29 H 0.4100 0.3889 1.2092
H30 H 0.4622 0.4778 1.1643
H31 H 0.5666 0.4712 1.2263
C24 C 0.7619(15) 0.3926(11) 0.9664(7)
C25 C 0.8163(17) 0.4992(12) 0.9409(9)
H32 H 0.7513 0.5388 0.9406
H33 H 0.8278 0.4812 0.8966
H34 H 0.9049 0.5469 0.9691
N2 N 0.3390(11) 0.2601(9) 0.9498(5)
C26 C 0.3564(17) 0.3614(13) 0.9365(8)
H35 H 0.4446 0.4179 0.9510
C27 C 0.2479(15) 0.3887(14) 0.9013(8)
H36 H 0.2628 0.4627 0.8942
C28 C 0.1184(15) 0.3039(12) 0.8774(7)
C29 C 0.0998(16) 0.1992(15) 0.8929(9)
H37 H 0.0128 0.1408 0.8804
C30 C 0.2152(15) 0.1827(13) 0.9279(8)
H38 H 0.2031 0.1099 0.9366
O1A O 0.4811(9) 0.4423(8) 0.5925(5)
O2A O 0.6791(10) 0.5230(9) 0.6642(5)
C1A C 0.5676(16) 0.4465(12) 0.6427(7)
C2A C 0.536(2) 0.3512(14) 0.6774(8)
H1A H 0.6053 0.3697 0.7181
H2A H 0.4454 0.3362 0.6872
H3A H 0.5371 0.2847 0.6499
O3A O 0.3083(10) 0.5397(9) 0.5081(5)
O4A O 0.3535(11) 0.7080(10) 0.4799(6)
C3A C 0.2709(15) 0.6069(15) 0.4812(7)
C4A C 0.1284(15) 0.5776(15) 0.4411(9)
H4A H 0.0779 0.4975 0.4367
H5A H 0.0810 0.6204 0.4626
H6A H 0.1333 0.5959 0.3979
O11A O 0.6369(9) 0.6512(8) 0.5378(4)
Zn2A Zn 0.72797(17) 0.66186(16) 0.62678(9)
Zn3A Zn 0.54131(19) 0.75581(16) 0.53367(10)
Zn4A Zn 0.7634(2) 0.6693(2) 0.47896(11)
O5A O 0.6934(14) 0.7739(11) 0.6867(6)
O6A O 0.5320(13) 0.8146(12) 0.6234(7)
C5A C 0.608(2) 0.8211(16) 0.6761(9)
C6A C 0.593(3) 0.896(2) 0.7330(10)
H7A H 0.5222 0.9269 0.7180
H8A H 0.5664 0.8527 0.7665
H9A H 0.6804 0.9576 0.7513
O7A O 0.9305(10) 0.7149(11) 0.6389(6)
O8A O 0.9538(12) 0.7069(11) 0.5350(7)
C7A C 0.9964(14) 0.7244(15) 0.5954(12)
C8A C 1.1522(15) 0.7573(18) 0.6200(12)
H10A H 1.1823 0.6997 0.5998
H11A H 1.1997 0.8290 0.6084
H12A H 1.1739 0.7642 0.6674
O9A O 0.618(3) 0.888(2) 0.4905(14)
O10A O 0.757(3) 0.813(2) 0.4503(14)
C9A C 0.716(4) 0.893(2) 0.4620(18)
C10A C 0.743(4) 1.000(3) 0.4316(18)
H13A H 0.8260 1.0136 0.4145
H14A H 0.6646 0.9888 0.3961
H15A H 0.7545 1.0636 0.4649
S1A S 1.0255(4) 0.6761(4) 0.1702(2)
S2A S 0.9446(5) 0.5314(4) 0.2029(2)
N1A N 0.8138(11) 0.6222(11) 0.3926(6)
C11A C 0.8823(17) 0.7019(14) 0.3646(8)
H16A H 0.9014 0.7773 0.3842
C12A C 0.9294(17) 0.6824(14) 0.3069(9)
H17A H 0.9831 0.7430 0.2903
C13A C 0.8946(16) 0.5719(15) 0.2752(7)
C14A C 0.8153(17) 0.4854(14) 0.3036(8)
H18A H 0.7897 0.4090 0.2843
C15A C 0.7763(14) 0.5158(14) 0.3604(8)
H19A H 0.7195 0.4578 0.3777
N2A N 0.6610(11) 0.7399(9) 0.0502(5)
C26A C 0.6436(17) 0.6386(13) 0.0635(8)
H35A H 0.5554 0.5821 0.0490
C27A C 0.7521(15) 0.6113(14) 0.0987(8)
H36A H 0.7372 0.5373 0.1058
C28A C 0.8816(15) 0.6961(12) 0.1226(7)
C29A C 0.9002(16) 0.8008(15) 0.1071(9)
H37A H 0.9872 0.8592 0.1196
C30A C 0.7848(15) 0.8173(13) 0.0721(8)
H38A H 0.7969 0.8901 0.0634
Zn8A Zn 0.49286(16) 0.75980(14) -0.00659(9)
O12A O 0.5311(10) 0.9150(8) 0.0816(4)
O13A O 0.5784(12) 1.0397(9) 0.1731(5)
C16A C 0.5356(17) 0.9394(12) 0.1410(8)
C17A C 0.483(3) 0.8453(14) 0.1763(10)
H20A H 0.4132 0.7814 0.1457
H21A H 0.4436 0.8701 0.2110
H22A H 0.5594 0.8230 0.1952
O18A O 0.4221(11) 0.7156(9) -0.1764(5)
O19A O 0.5020(11) 0.6588(9) -0.0876(6)
C22A C 0.4763(14) 0.6577(12) -0.1490(9)
C23A C 0.5126(16) 0.5724(14) -0.1909(8)
H29A H 0.5900 0.6111 -0.2092
H30A H 0.5378 0.5222 -0.1643
H31A H 0.4334 0.5288 -0.2263
O20A O 0.1623(9) 0.6667(9) 0.0240(6)
O21A O 0.3565(11) 0.6327(8) 0.0251(6)
C24A C 0.2381(15) 0.6074(11) 0.0336(7)
C25A C 0.1837(17) 0.5008(12) 0.0591(9)
H32A H 0.2487 0.4612 0.0594
H33A H 0.1722 0.5188 0.1034
H34A H 0.0951 0.4531 0.0309
O22A O 0.3790(8) 0.8443(7) -0.0411(4)
Zn6A Zn 0.65169(16) 1.17477(13) 0.13565(8)
Zn7A Zn 0.20584(14) 0.80088(13) -0.01503(8)
O14A O 0.6566(9) -0.0606(8) 0.9698(5)
O15A O 0.8283(10) 0.0859(8) 0.9543(5)
C18A C 0.7639(13) -0.0177(11) 0.9475(7)
C19A C 0.8194(16) -0.0999(13) 0.9147(9)
H23A H 0.8419 -0.0782 0.8742
H24A H 0.7498 -0.1753 0.9050
H25A H 0.9021 -0.0993 0.9439
O16A O 0.8493(10) 0.2385(10) 1.1792(5)
O17A O 0.9500(9) 0.2419(10) 1.0927(5)
C20A C 0.9529(13) 0.2580(11) 1.1528(7)
C21A C 1.0954(14) 0.3051(14) 1.1971(7)
H26A H 1.1418 0.3818 1.1918
H27A H 1.1484 0.2587 1.1857
H28A H 1.0878 0.3051 1.2424
O12A_2 O 0.5311(10) -0.0850(8) 1.0816(4)
O22A_2 O 0.3790(8) -0.1557(7) 0.9589(4)
O18A_2 O 0.4221(11) -0.2844(9) 0.8236(5)
Zn7A_2 Zn 0.20584(14) -0.19912(13) 0.98497(8)
Zn6A_2 Zn 0.65169(16) 0.17477(13) 1.13565(8)
Zn5_2 Zn 0.5000 1.0000 0.0000
Zn6_2 Zn 0.34831(16) 0.82523(13) -0.13565(8)
O16A_2 O 0.8493(10) 1.2385(10) 0.1792(5)
O18_2 O 0.5779(11) 1.2844(9) 0.1764(5)
O22_2 O 0.6210(8) 1.1557(7) 0.0411(4)
O15_2 O 0.1717(10) 0.9141(8) 0.0457(5)
O17_2 O 0.0500(9) 0.7581(10) -0.0927(5)
O23 O -0.228(4) 0.074(3) 0.6373(19)
N3 N 0.957(3) 0.042(3) 1.250(2)
C31 C 0.882(3) -0.033(3) 1.271(2)
C32 C 0.794(4) -0.131(4) 1.2989(15)
H39 H 0.7382 -0.1041 1.3247
H40 H 0.8546 -0.1584 1.3267
H41 H 0.7339 -0.1911 1.2631
O24? O 0.3312(16) 0.1095(12) 0.4822(7)
O25? O 0.1835(16) 0.1646(12) 0.5297(8)
C33? C 0.2429(16) 0.0867(12) 0.5150(7)
C34? C 0.1707(16) -0.0183(12) 0.5285(7)
loop_
_geom_bond_atom_site_label_1
_geom_bond_atom_site_label_2
_geom_bond_site_symmetry_1
_geom_bond_site_symmetry_2
Zn1 O1 1_555 1_555
Zn2 O2 1_555 1_555
Zn3 O4 1_555 1_555
Zn4 O8 1_555 1_555
Zn5 O12 1_555 1_555
Zn6 O13 1_555 1_555
Zn7 O20 1_555 1_555
Zn8 O12 1_555 1_555
S1 S2 1_555 1_555
S2 C13 1_555 1_555
O1 C1 1_555 1_555
O2 C1 1_555 1_555
O3 Zn1 1_555 1_555
O4 C3 1_555 1_555
O5 Zn2 1_555 1_555
O6 Zn3 1_555 1_555
O7 Zn2 1_555 1_555
O8 C7 1_555 1_555
O9 Zn3 1_555 1_555
O10 Zn4 1_555 1_555
O11 Zn1 1_555 1_555
O12 C16 1_555 1_555
O13 C16 1_555 1_555
O14 Zn5 1_555 1_555
O15 C18 1_555 1_555
O16 Zn6 1_555 1_555
O17 C20 1_555 1_555
O18 C22 1_555 1_555
O19 Zn8 1_555 1_555
O20 C24 1_555 1_555
O21 Zn8 1_555 1_555
O22 Zn5 1_555 1_555
C1 C2 1_555 1_555
C2 H1 1_555 1_555
H2 C2 1_555 1_555
H3 C2 1_555 1_555
C3 O3 1_555 1_555
C4 C3 1_555 1_555
H4 C4 1_555 1_555
H5 C4 1_555 1_555
H6 C4 1_555 1_555
C5 O5 1_555 1_555
C6 C5 1_555 1_555
H7 C6 1_555 1_555
H8 C6 1_555 1_555
H9 C6 1_555 1_555
C7 O7 1_555 1_555
C8 C7 1_555 1_555
H10 C8 1_555 1_555
H11 C8 1_555 1_555
H12 C8 1_555 1_555
C9 O9 1_555 1_555
C10 C9 1_555 1_555
H13 C10 1_555 1_555
H14 C10 1_555 1_555
H15 C10 1_555 1_555
N1 Zn4 1_555 1_555
C11 N1 1_555 1_555
H16 C11 1_555 1_555
C12 C11 1_555 1_555
H17 C12 1_555 1_555
C13 C12 1_555 1_555
C14 C13 1_555 1_555
H18 C14 1_555 1_555
C15 N1 1_555 1_555
H19 C15 1_555 1_555
C16 C17 1_555 1_555
C17 H20 1_555 1_555
H21 C17 1_555 1_555
H22 C17 1_555 1_555
C18 O14 1_555 1_555
C19 C18 1_555 1_555
H23 C19 1_555 1_555
H24 C19 1_555 1_555
H25 C19 1_555 1_555
C20 O16 1_555 1_555
C21 C20 1_555 1_555
H26 C21 1_555 1_555
H27 C21 1_555 1_555
H28 C21 1_555 1_555
C22 O19 1_555 1_555
C23 C22 1_555 1_555
H29 C23 1_555 1_555
H30 C23 1_555 1_555
H31 C23 1_555 1_555
C24 O21 1_555 1_555
C25 C24 1_555 1_555
H32 C25 1_555 1_555
H33 C25 1_555 1_555
H34 C25 1_555 1_555
N2 Zn8 1_555 1_555
C26 N2 1_555 1_555
H35 C26 1_555 1_555
C27 C26 1_555 1_555
H36 C27 1_555 1_555
C28 S1 1_555 1_555
C29 C28 1_555 1_555
H37 C29 1_555 1_555
C30 N2 1_555 1_555
H38 C30 1_555 1_555
N3 C31 1_555 1_555
C31 C32 1_555 1_555
C32 H39 1_555 1_555
H40 C32 1_555 1_555
H41 C32 1_555 1_555
O1A Zn1 1_555 1_555
O2A C1A 1_555 1_555
C1A O1A 1_555 1_555
C2A C1A 1_555 1_555
H1A C2A 1_555 1_555
H2A C2A 1_555 1_555
H3A C2A 1_555 1_555
O3A Zn1 1_555 1_555
O4A C3A 1_555 1_555
C3A O3A 1_555 1_555
C4A C3A 1_555 1_555
H4A C4A 1_555 1_555
H5A C4A 1_555 1_555
H6A C4A 1_555 1_555
O11A Zn1 1_555 1_555
Zn2A O2A 1_555 1_555
Zn3A O4A 1_555 1_555
Zn4A O11A 1_555 1_555
O5A Zn2A 1_555 1_555
O6A Zn3A 1_555 1_555
C5A O5A 1_555 1_555
C6A C5A 1_555 1_555
H7A C6A 1_555 1_555
H8A C6A 1_555 1_555
H9A C6A 1_555 1_555
O7A Zn2A 1_555 1_555
O8A Zn4A 1_555 1_555
C7A O7A 1_555 1_555
C8A C7A 1_555 1_555
H10A C8A 1_555 1_555
H11A C8A 1_555 1_555
H12A C8A 1_555 1_555
O9A Zn3A 1_555 1_555
O10A Zn4A 1_555 1_555
C9A O9A 1_555 1_555
C10A C9A 1_555 1_555
H13A C10A 1_555 1_555
H14A C10A 1_555 1_555
H15A C10A 1_555 1_555
S1A S2A 1_555 1_555
S2A C13A 1_555 1_555
N1A Zn4A 1_555 1_555
C11A N1A 1_555 1_555
H16A C11A 1_555 1_555
C12A C11A 1_555 1_555
H17A C12A 1_555 1_555
C13A C12A 1_555 1_555
C14A C13A 1_555 1_555
H18A C14A 1_555 1_555
C15A N1A 1_555 1_555
H19A C15A 1_555 1_555
N2A C26A 1_555 1_555
C26A H35A 1_555 1_555
C27A C26A 1_555 1_555
H36A C27A 1_555 1_555
C28A S1A 1_555 1_555
C29A C28A 1_555 1_555
H37A C29A 1_555 1_555
C30A N2A 1_555 1_555
H38A C30A 1_555 1_555
Zn8A N2A 1_555 1_555
O12A Zn8A 1_555 1_555
O13A C16A 1_555 1_555
C16A O12A 1_555 1_555
C17A C16A 1_555 1_555
H20A C17A 1_555 1_555
H21A C17A 1_555 1_555
H22A C17A 1_555 1_555
O18A C22A 1_555 1_555
O19A Zn8A 1_555 1_555
C22A O19A 1_555 1_555
C23A C22A 1_555 1_555
H29A C23A 1_555 1_555
H30A C23A 1_555 1_555
H31A C23A 1_555 1_555
O20A C24A 1_555 1_555
O21A Zn8A 1_555 1_555
C24A O21A 1_555 1_555
C25A C24A 1_555 1_555
H32A C25A 1_555 1_555
H33A C25A 1_555 1_555
H34A C25A 1_555 1_555
O22A Zn8A 1_555 1_555
Zn6A O13A 1_555 1_555
Zn7A O20A 1_555 1_555
O14A Zn5 1_555 1_555
O15A Zn7 1_555 1_555
C18A O14A 1_555 1_555
C19A C18A 1_555 1_555
H23A C19A 1_555 1_555
H24A C19A 1_555 1_555
H25A C19A 1_555 1_555
O16A C20A 1_555 1_555
O17A Zn7 1_555 1_555
C20A O17A 1_555 1_555
C21A C20A 1_555 1_555
H26A C21A 1_555 1_555
H27A C21A 1_555 1_555
H28A C21A 1_555 1_555
O12A_2 Zn5 1_555 1_555
O22A_2 Zn5 1_555 1_555
O18A_2 Zn6 1_555 1_555
Zn7A_2 O15 1_555 1_555
Zn6A_2 O18 1_555 1_555
Zn5_2 O12A 1_555 1_555
Zn6_2 O18A 1_555 1_555
O16A_2 Zn6A 1_555 1_555
O18_2 Zn6A 1_555 1_555
O22_2 Zn6A 1_555 1_555
O15_2 Zn7A 1_555 1_555
O17_2 Zn7A 1_555 1_555
Zn2 O11 1_555 1_555
Zn3 O11 1_555 1_555
Zn4 O11 1_555 1_555
Zn6 O22A_2 1_555 1_555
Zn7 O22 1_555 1_555
Zn8 O22 1_555 1_555
O6 C5 1_555 1_555
O10 C9 1_555 1_555
O17 Zn7A_2 1_555 1_555
O22 Zn6A_2 1_555 1_555
C14 C15 1_555 1_555
C27 C28 1_555 1_555
C29 C30 1_555 1_555
O11A Zn2A 1_555 1_555
O11A Zn3A 1_555 1_555
O6A C5A 1_555 1_555
O8A C7A 1_555 1_555
O10A C9A 1_555 1_555
C14A C15A 1_555 1_555
C27A C28A 1_555 1_555
C29A C30A 1_555 1_555
O22A Zn7A 1_555 1_555
O22A Zn5_2 1_555 1_555
O22A Zn6_2 1_555 1_555
O15A C18A 1_555 1_555
O16A Zn6A_2 1_555 1_555
O22A_2 Zn7A_2 1_555 1_555
Zn5_2 O22_2 1_555 1_555

#END
