
#######################################################################
#
#                 Cambridge Crystallographic Data Centre
#                                CCDC 
#
#######################################################################
#
# If this CIF has been generated from an entry in the Cambridge 
# Structural Database, then it will include bibliographic, chemical, 
# crystal, experimental, refinement or atomic coordinate data resulting 
# from the CCDC's data processing and validation procedures.
#
#######################################################################

data_VALDUI
_symmetry_cell_setting           monoclinic
_symmetry_space_group_name_H-M   'C 2/c'
_symmetry_Int_Tables_number      15
_space_group_name_Hall           '-C 2yn'
loop_
_symmetry_equiv_pos_site_id
_symmetry_equiv_pos_as_xyz
1 x,y,z
2 -x,y,1/2-z
3 1/2+x,1/2+y,z
4 1/2-x,1/2+y,1/2-z
5 -x,-y,-z
6 x,-y,1/2+z
7 1/2-x,1/2-y,-z
8 1/2+x,1/2-y,1/2+z
_cell_length_a                   9.4108(18)
_cell_length_b                   8.0585(15)
_cell_length_c                   20.589(4)
_cell_angle_alpha                90
_cell_angle_beta                 93.49
_cell_angle_gamma                90
_cell_volume                     1558.51
loop_
_atom_site_label
_atom_site_type_symbol
_atom_site_fract_x
_atom_site_fract_y
_atom_site_fract_z
Cd1 Cd 0.0000 0.0000 0.5000
S1 S -0.2530(3) 0.0442(3) 0.5575(1)
N1 N -0.0803(7) 0.1011(9) 0.3970(3)
N2 N -0.4230(8) -0.2317(9) 0.5269(4)
C1 C -0.1887(8) 0.0114(11) 0.3593(4)
C2 C -0.1527(9) -0.1131(12) 0.3179(4)
C3 C -0.2555(10) -0.1988(12) 0.2803(4)
C4 C -0.3982(9) -0.1602(10) 0.2857(4)
C5 C -0.4357(9) -0.0384(11) 0.3284(4)
C6 C -0.3307(9) 0.0450(10) 0.3662(4)
C7 C -0.3520(8) -0.1199(11) 0.5385(4)
C8 C -0.5000 -0.2531(11) 0.2500
H1 H -0.0573 -0.1405 0.3150
H2 H -0.2285 -0.2838 0.2508
H3 H -0.5341 -0.0110 0.3321
H4 H -0.3574 0.1263 0.3973
C4A C -0.6018(9) -0.1602(10) 0.2143(4)
C3A C -0.7445(10) -0.1988(12) 0.2197(4)
C2A C -0.8473(9) -0.1131(12) 0.1821(4)
C1A C -0.8113(8) 0.0114(11) 0.1407(4)
N1A N -0.9197(7) 0.1011(9) 0.1030(3)
C6A C -0.6693(9) 0.0450(10) 0.1338(4)
C5A C -0.5643(9) -0.0384(11) 0.1716(4)
H3A H -0.4659 -0.0110 0.1679
H4A H -0.6426 0.1263 0.1027
H1A H -0.9427 -0.1405 0.1850
H2A H -0.7715 -0.2838 0.2492
S1D S 0.2530(3) -0.0442(3) 0.4425(1)
N2D N 0.4230(8) 0.2317(9) 0.4731(4)
C7D C 0.3520(8) 0.1199(11) 0.4615(4)
N1D N 0.0803(7) -0.1011(9) 0.6030(3)
N2B N 0.0770(8) 0.2683(9) 0.5269(4)
N2F N -0.0770(8) -0.2683(9) 0.4731(4)
Cd1B Cd -0.5000 -0.5000 0.5000
Cd1A Cd -1.0000 0.0000 0.0000
Cd1B_2 Cd 0.5000 0.5000 0.5000
loop_
_geom_bond_atom_site_label_1
_geom_bond_atom_site_label_2
_geom_bond_site_symmetry_1
_geom_bond_site_symmetry_2
Cd1 S1 1_555 1_555
S1 C7 1_555 1_555
N1 Cd1 1_555 1_555
N2 C7 1_555 1_555
C1 N1 1_555 1_555
C2 C1 1_555 1_555
C3 C2 1_555 1_555
C4 C3 1_555 1_555
C5 C4 1_555 1_555
C6 C1 1_555 1_555
C8 C4 1_555 1_555
H1 C2 1_555 1_555
H2 C3 1_555 1_555
H3 C5 1_555 1_555
H4 C6 1_555 1_555
C4A C8 1_555 1_555
C3A C4A 1_555 1_555
C2A C3A 1_555 1_555
C1A C2A 1_555 1_555
N1A C1A 1_555 1_555
C6A C1A 1_555 1_555
C5A C4A 1_555 1_555
H3A C5A 1_555 1_555
H4A C6A 1_555 1_555
H1A C2A 1_555 1_555
H2A C3A 1_555 1_555
S1D Cd1 1_555 1_555
N2D C7D 1_555 1_555
C7D S1D 1_555 1_555
N1D Cd1 1_555 1_555
N2B Cd1 1_555 1_555
N2F Cd1 1_555 1_555
Cd1B N2 1_555 1_555
Cd1A N1A 1_555 1_555
Cd1B_2 N2D 1_555 1_555
C5 C6 1_555 1_555
C6A C5A 1_555 1_555

#END
