
#######################################################################
#
#                 Cambridge Crystallographic Data Centre
#                                CCDC 
#
#######################################################################
#
# If this CIF has been generated from an entry in the Cambridge 
# Structural Database, then it will include bibliographic, chemical, 
# crystal, experimental, refinement or atomic coordinate data resulting 
# from the CCDC's data processing and validation procedures.
#
#######################################################################

data_VALDOC
_symmetry_cell_setting           orthorhombic
_symmetry_space_group_name_H-M   'I m m 2'
_symmetry_Int_Tables_number      44
_space_group_name_Hall           'I 2 -2'
loop_
_symmetry_equiv_pos_site_id
_symmetry_equiv_pos_as_xyz
1 x,y,z
2 -x,-y,z
3 x,-y,z
4 -x,y,z
5 1/2+x,1/2+y,1/2+z
6 1/2-x,1/2-y,1/2+z
7 1/2+x,1/2-y,1/2+z
8 1/2-x,1/2+y,1/2+z
_cell_length_a                   12.828(4)
_cell_length_b                   13.131(4)
_cell_length_c                   4.5204(13)
_cell_angle_alpha                90
_cell_angle_beta                 90
_cell_angle_gamma                90
_cell_volume                     761.436
loop_
_atom_site_label
_atom_site_type_symbol
_atom_site_fract_x
_atom_site_fract_y
_atom_site_fract_z
Cd1 Cd 0.0000 0.0000 1.7461(6)
I1 I 0.17271(13) 0.0000 1.3694(5)
N1 N 0.0000 -0.1646(13) 1.933(4)
C1 C 0.0000 -0.2472(18) 1.717(7)
C2 C -0.0945(13) -0.2842(12) 1.613(5)
H1 H -0.1575 -0.2566 1.6756
H2 H -0.1590 -0.3921 1.3260
C3 C -0.0917(12) -0.3635(11) 1.412(5)
C4 C 0.0000 -0.4042(16) 1.326(6)
C5 C 0.0000 -0.5000 1.126(9)
C3C C 0.0917(12) -0.3635(11) 1.412(5)
C2C C 0.0945(13) -0.2842(12) 1.613(5)
H1C H 0.1575 -0.2566 1.6756
H2C H 0.1590 -0.3921 1.3260
C4A C 0.0000 -0.5958(16) 1.326(6)
C3A C 0.0917(12) -0.6365(11) 1.412(5)
C2A C 0.0945(13) -0.7158(12) 1.613(5)
C1A C 0.0000 -0.7528(18) 1.717(7)
N1A N 0.0000 -0.8354(13) 1.933(4)
C2B C -0.0945(13) -0.7158(12) 1.613(5)
H1B H -0.1575 -0.7434 1.6756
C3B C -0.0917(12) -0.6365(11) 1.412(5)
H2B H -0.1590 -0.6079 1.3260
H1A H 0.1575 -0.7434 1.6756
H2A H 0.1590 -0.6079 1.3260
I1A I -0.17271(13) 0.0000 1.3694(5)
N1A_2 N 0.0000 0.1646(13) 1.933(4)
Cd1_2 Cd 0.0000 -1.0000 1.7461(6)
loop_
_geom_bond_atom_site_label_1
_geom_bond_atom_site_label_2
_geom_bond_site_symmetry_1
_geom_bond_site_symmetry_2
Cd1 I1 1_555 1_555
N1 Cd1 1_555 1_555
C1 N1 1_555 1_555
C2 C1 1_555 1_555
H1 C2 1_555 1_555
H2 C3 1_555 1_555
C3 C2 1_555 1_555
C4 C3 1_555 1_555
C5 C4 1_555 1_555
C3C C4 1_555 1_555
C2C C1 1_555 1_555
H1C C2C 1_555 1_555
H2C C3C 1_555 1_555
C4A C5 1_555 1_555
C3A C4A 1_555 1_555
C2A C3A 1_555 1_555
C1A C2A 1_555 1_555
N1A C1A 1_555 1_555
C2B C1A 1_555 1_555
H1B C2B 1_555 1_555
C3B C4A 1_555 1_555
H2B C3B 1_555 1_555
H1A C2A 1_555 1_555
H2A C3A 1_555 1_555
I1A Cd1 1_555 1_555
N1A_2 Cd1 1_555 1_555
Cd1_2 N1A 1_555 1_555
C3C C2C 1_555 1_555
C2B C3B 1_555 1_555

#END
