
#######################################################################
#
#                 Cambridge Crystallographic Data Centre
#                                CCDC 
#
#######################################################################
#
# If this CIF has been generated from an entry in the Cambridge 
# Structural Database, then it will include bibliographic, chemical, 
# crystal, experimental, refinement or atomic coordinate data resulting 
# from the CCDC's data processing and validation procedures.
#
#######################################################################

data_VALFUL
_symmetry_cell_setting           monoclinic
_symmetry_space_group_name_H-M   'P 21/c'
_symmetry_Int_Tables_number      14
_space_group_name_Hall           '-P 2ybc'
loop_
_symmetry_equiv_pos_site_id
_symmetry_equiv_pos_as_xyz
1 x,y,z
2 -x,1/2+y,1/2-z
3 -x,-y,-z
4 x,1/2-y,1/2+z
_cell_length_a                   11.623(3)
_cell_length_b                   19.684(5)
_cell_length_c                   10.774(2)
_cell_angle_alpha                90
_cell_angle_beta                 93.452(4)
_cell_angle_gamma                90
_cell_volume                     2460.48
loop_
_atom_site_label
_atom_site_type_symbol
_atom_site_fract_x
_atom_site_fract_y
_atom_site_fract_z
Zn1 Zn 0.53746(5) 0.14894(3) 0.95608(6)
N1 N 0.3913(4) 0.1283(2) 1.0483(4)
N2 N 0.5602(4) 0.2502(2) 0.9595(4)
O1 O 0.4926(4) 0.5938(2) 0.6926(4)
O2 O 0.6196(4) 0.6736(2) 0.7416(4)
O3 O -0.3505(3) 0.1011(2) 1.0669(4)
O4 O -0.2378(4) 0.1445(3) 0.9291(5)
C1 C 0.5767(5) 0.6174(3) 0.7595(5)
C2 C 0.6244(5) 0.5727(2) 0.8618(5)
C3 C 0.7054(7) 0.5994(3) 0.9491(6)
H1 H 0.7264 0.6460 0.9466
C4 C 0.7545(9) 0.5571(4) 1.0389(7)
H2 H 0.8075 0.5752 1.1009
C5 C 0.7274(8) 0.4874(4) 1.0403(6)
H3 H 0.7663 0.4579 1.0987
C6 C 0.6446(5) 0.4625(3) 0.9569(5)
C7 C 0.5959(4) 0.5054(2) 0.8680(4)
H4 H 0.5403 0.4876 0.8084
C8 C 0.6161(5) 0.3892(3) 0.9593(5)
C9 C 0.5550(8) 0.3580(3) 0.8646(7)
H5 H 0.5301 0.3840 0.7937
C10 C 0.5279(7) 0.2907(3) 0.8674(7)
H6 H 0.4832 0.2722 0.7989
C11 C 0.6489(6) 0.3479(3) 1.0548(6)
H7 H 0.6916 0.3660 1.1252
C12 C 0.6209(6) 0.2792(3) 1.0515(6)
H8 H 0.6473 0.2516 1.1198
C13 C -0.2512(5) 0.1113(3) 1.0252(6)
C14 C -0.1512(4) 0.0765(3) 1.0938(5)
C15 C -0.0408(4) 0.0959(3) 1.0725(5)
H9 H -0.0290 0.1322 1.0167
C16 C 0.0541(4) 0.0636(3) 1.1306(4)
C17 C 0.0352(5) 0.0084(3) 1.2059(5)
H10 H 0.0988 -0.0157 1.2438
C18 C -0.0760(5) -0.0118(4) 1.2263(6)
H11 H -0.0878 -0.0495 1.2791
C19 C -0.1694(5) 0.0214(4) 1.1717(5)
H12 H -0.2454 0.0072 1.1867
C20 C 0.1721(4) 0.0859(2) 1.1084(4)
C21 C 0.1944(5) 0.1522(3) 1.0748(7)
H13 H 0.1343 0.1850 1.0731
C22 C 0.3015(5) 0.1708(3) 1.0444(7)
H14 H 0.3132 0.2163 1.0191
C23 C 0.3716(4) 0.0648(3) 1.0841(5)
H15 H 0.4338 0.0334 1.0882
C24 C 0.2647(4) 0.0428(3) 1.1154(4)
H16 H 0.2550 -0.0027 1.1421
Zn1A Zn 0.46254(5) 0.64894(3) 0.54392(6)
Zn1_2 Zn -0.46254(5) 0.14894(3) 0.95608(6)
O1A O 0.5074(4) 0.0938(2) 0.8074(4)
O3_2 O 0.6495(3) 0.1011(2) 1.0669(4)
O5 O 0.1419(14) 0.2052(7) 0.7601(15)
H17 H 0.116(6) 0.205(3) 0.690(3)
H18 H 0.128(6) 0.2425(18) 0.782(5)
O6 O 0.8369(14) 0.2442(8) 0.7828(13)
O7 O 0.041(3) 0.3082(14) 0.899(3)
O8 O 0.971(3) 0.1847(17) 0.619(3)
loop_
_geom_bond_atom_site_label_1
_geom_bond_atom_site_label_2
_geom_bond_site_symmetry_1
_geom_bond_site_symmetry_2
Zn1 N1 1_555 1_555
N1 C22 1_555 1_555
N2 Zn1 1_555 1_555
O1 C1 1_555 1_555
O2 C1 1_555 1_555
O3 C13 1_555 1_555
O4 C13 1_555 1_555
O5 H17 1_555 1_555
C1 C2 1_555 1_555
C2 C3 1_555 1_555
C3 H1 1_555 1_555
C4 C3 1_555 1_555
H2 C4 1_555 1_555
C5 C4 1_555 1_555
H3 C5 1_555 1_555
C6 C5 1_555 1_555
C7 C2 1_555 1_555
H4 C7 1_555 1_555
C8 C6 1_555 1_555
C9 C8 1_555 1_555
H5 C9 1_555 1_555
C10 N2 1_555 1_555
H6 C10 1_555 1_555
C11 C8 1_555 1_555
H7 C11 1_555 1_555
C12 N2 1_555 1_555
H8 C12 1_555 1_555
C13 C14 1_555 1_555
C14 C15 1_555 1_555
C15 H9 1_555 1_555
C16 C15 1_555 1_555
C17 C16 1_555 1_555
H10 C17 1_555 1_555
C18 C17 1_555 1_555
H11 C18 1_555 1_555
C19 C14 1_555 1_555
H12 C19 1_555 1_555
C20 C16 1_555 1_555
C21 C20 1_555 1_555
H13 C21 1_555 1_555
C22 C21 1_555 1_555
H14 C22 1_555 1_555
C23 N1 1_555 1_555
H15 C23 1_555 1_555
C24 C20 1_555 1_555
H16 C24 1_555 1_555
H18 O5 1_555 1_555
Zn1A O1 1_555 1_555
Zn1_2 O3 1_555 1_555
O1A Zn1 1_555 1_555
O3_2 Zn1 1_555 1_555
C6 C7 1_555 1_555
C9 C10 1_555 1_555
C11 C12 1_555 1_555
C18 C19 1_555 1_555
C23 C24 1_555 1_555

#END
