
#######################################################################
#
#                 Cambridge Crystallographic Data Centre
#                                CCDC 
#
#######################################################################
#
# If this CIF has been generated from an entry in the Cambridge 
# Structural Database, then it will include bibliographic, chemical, 
# crystal, experimental, refinement or atomic coordinate data resulting 
# from the CCDC's data processing and validation procedures.
#
#######################################################################

data_VALFOF
_symmetry_cell_setting           triclinic
_symmetry_space_group_name_H-M   'P -1'
_symmetry_Int_Tables_number      2
_space_group_name_Hall           '-P 1'
loop_
_symmetry_equiv_pos_site_id
_symmetry_equiv_pos_as_xyz
1 x,y,z
2 -x,-y,-z
_cell_length_a                   11.3213(8)
_cell_length_b                   11.3297(8)
_cell_length_c                   21.2344(14)
_cell_angle_alpha                102.188(1)
_cell_angle_beta                 93.507(1)
_cell_angle_gamma                99.410(1)
_cell_volume                     2613.49
loop_
_atom_site_label
_atom_site_type_symbol
_atom_site_fract_x
_atom_site_fract_y
_atom_site_fract_z
Zn1 Zn 0.51942(5) 0.27738(4) 1.08541(2)
Zn2 Zn 0.5000 0.5000 1.0000
Zn3 Zn 0.11996(7) 0.24337(7) 0.53367(3)
O1 O 0.4015(3) 0.2005(3) 1.01043(14)
O2 O 0.3660(3) 0.3505(3) 0.96174(14)
O3 O 0.4803(3) 0.4648(3) 1.09603(15)
O4 O 0.5425(5) 0.4018(3) 1.17783(18)
O5 O 0.6821(3) 0.2855(3) 1.05485(16)
O6 O 0.6248(3) 0.3890(3) 0.98409(16)
O8 O 0.1587(17) 0.076(2) 0.4723(9)
O10 O 0.0637(18) 0.1977(17) 0.4165(12)
O13 O 0.2265(7) 0.3807(8) 0.5520(4)
O14 O 0.3249(7) 0.2405(9) 0.5326(4)
C2 C 0.3324(13) 0.3691(15) 0.5539(17)
N1 N 0.1251(4) 0.1858(4) 0.62001(18)
N2 N 0.4969(3) 1.1319(3) 1.12965(16)
N3 N 1.0080(8) 0.5831(6) 0.7440(3)
N4 N 0.1383(7) 0.1333(7) 0.0729(3)
N5 N 0.9701(4) 0.3258(4) 0.5393(2)
C3 C 0.1512(5) 0.0759(5) 0.6233(2)
H1 H 0.1579 0.0197 0.5841
C4 C 0.1687(5) 0.0411(4) 0.6805(2)
H2 H 0.1872 -0.0378 0.6803
C5 C 0.1598(4) 0.1202(4) 0.7389(2)
C6 C 0.1317(5) 0.2327(5) 0.7351(2)
H3 H 0.1239 0.2903 0.7735
C7 C 0.1149(6) 0.2618(5) 0.6759(2)
H4 H 0.0952 0.3397 0.6748
C8 C 0.1839(4) 0.0872(4) 0.8020(2)
C9 C 0.1544(4) -0.0337(4) 0.8082(2)
H5 H 0.1140 -0.0956 0.7726
C10 C 0.1839(5) -0.0638(4) 0.8665(2)
H6 H 0.1615 -0.1461 0.8708
C11 C 0.2451(4) 0.0237(4) 0.9181(2)
H7 H 0.2664 0.0015 0.9574
C12 C 0.2760(4) 0.1454(4) 0.91267(19)
C13 C 0.2428(4) 0.1764(4) 0.85508(19)
H8 H 0.2604 0.2597 0.8518
C14 C 0.3527(4) 0.2411(4) 0.9662(2)
C15 C 0.4431(4) 1.0191(4) 1.0973(2)
H9 H 0.4082 1.0090 1.0542
C16 C 0.4362(4) 0.9174(4) 1.1237(2)
H10 H 0.3963 0.8394 1.0991
C17 C 0.4878(4) 0.9291(4) 1.18648(19)
C18 C 0.5397(5) 1.0465(4) 1.2203(2)
H11 H 0.5736 1.0598 1.2638
C19 C 0.5420(5) 1.1438(4) 1.1907(2)
H12 H 0.5775 1.2235 1.2149
C20 C 0.4929(4) 0.8201(4) 1.21463(19)
C21 C 0.5108(5) 0.8312(4) 1.2810(2)
H13 H 0.5129 0.9088 1.3094
C22 C 0.5255(6) 0.7319(4) 1.3066(2)
H14 H 0.5363 0.7413 1.3522
C23 C 0.5246(6) 0.6190(4) 1.2663(2)
H15 H 0.5377 0.5513 1.2840
C24 C 0.5043(4) 0.6050(4) 1.1994(2)
C25 C 0.4866(4) 0.7045(4) 1.17437(19)
H16 H 0.4700 0.6939 1.1289
C26 C 0.5093(5) 0.4852(4) 1.1557(2)
C27 C 1.0960(9) 0.5806(6) 0.7868(4)
H17 H 1.1746 0.6191 0.7815
C28 C 1.0824(7) 0.5257(5) 0.8393(3)
H18 H 1.1499 0.5276 0.8685
C29 C 0.9683(5) 0.4680(4) 0.8484(2)
C30 C 0.8757(7) 0.4700(6) 0.8033(3)
H19 H 0.7960 0.4316 0.8068
C31 C 0.8993(9) 0.5282(8) 0.7529(4)
H20 H 0.8337 0.5288 0.7229
C32 C 0.9490(5) 0.4077(4) 0.9035(2)
C33 C 1.0405(5) 0.3615(5) 0.9317(3)
H21 H 1.1173 0.3691 0.9156
C34 C 1.0214(5) 0.3047(5) 0.9827(3)
H22 H 1.0846 0.2729 1.0009
C35 C 0.9112(4) 0.2939(4) 1.0072(2)
H23 H 0.8985 0.2539 1.0419
C36 C 0.8189(4) 0.3414(4) 0.9812(2)
C37 C 0.8384(4) 0.3979(4) 0.9290(2)
H24 H 0.7752 0.4299 0.9109
C38 C 0.7009(4) 0.3395(4) 1.0088(2)
C39 C 0.1861(9) 0.2084(7) 0.1291(4)
H25 H 0.2125 0.2926 0.1295
C40 C 0.1999(7) 0.1712(6) 0.1872(3)
H26 H 0.2342 0.2286 0.2259
C41 C 0.1624(5) 0.0487(5) 0.1872(2)
C42 C 0.1167(5) -0.0282(6) 0.1282(3)
H27 H 0.0921 -0.1136 0.1252
C43 C 0.1064(7) 0.0181(7) 0.0739(3)
H28 H 0.0739 -0.0376 0.0343
C44 C 0.1699(4) 0.0024(5) 0.2467(2)
C45 C 0.2012(5) -0.1117(6) 0.2460(3)
H29 H 0.2183 -0.1604 0.2065
C46 C 0.2075(7) -0.1543(7) 0.3018(3)
H30 H 0.2286 -0.2323 0.3010
C47 C 0.1826(7) -0.0824(8) 0.3595(3)
H31 H 0.1884 -0.1112 0.3983
C48 C 0.1499(6) 0.0292(7) 0.3610(3)
C49 C 0.1442(5) 0.0712(6) 0.3051(3)
H32 H 0.1221 0.1489 0.3061
C50 C 0.1177(8) 0.1107(11) 0.4239(4)
C51 C 0.9765(5) 0.4392(6) 0.5687(4)
H33 H 1.0542 0.4865 0.5838
C52 C 0.8791(5) 0.4965(6) 0.5797(3)
H34 H 0.8918 0.5808 0.6009
C53 C 0.7657(4) 0.4345(5) 0.5608(2)
C54 C 0.7588(7) 0.3172(7) 0.5274(5)
H35 H 0.6823 0.2689 0.5107
C55 C 0.8602(8) 0.2671(7) 0.5175(4)
H36 H 0.8506 0.1848 0.4933
C56 C 0.6592(3) 0.4929(4) 0.5770(2)
C57 C 0.5439(3) 0.4233(4) 0.5633(2)
H37 H 0.5325 0.3390 0.5421
C58 C 0.4452(3) 0.4771(6) 0.5806(2)
C59 C 0.4619(4) 0.6004(6) 0.6116(3)
H38 H 0.3945 0.6372 0.6234
C60 C 0.5773(5) 0.6700(4) 0.6253(3)
H39 H 0.5887 0.7543 0.6465
C61 C 0.6759(4) 0.6163(4) 0.6080(2)
H40 H 0.7548 0.6638 0.6174
Zn1A Zn 0.48058(5) 0.72262(4) 0.91459(2)
Zn1_2 Zn 0.51942(5) 1.27738(4) 1.08541(2)
Zn1A_2 Zn 0.48058(5) -0.27738(4) 0.91459(2)
Zn3A Zn 0.88004(7) 0.75663(7) 1.46633(3)
Zn3_2 Zn 1.11996(7) 0.24337(7) 0.53367(3)
Zn3_3 Zn -0.88004(7) 0.24337(7) 0.53367(3)
O1A O 0.5985(3) 0.7995(3) 0.98957(14)
O2A O 0.6340(3) 0.6495(3) 1.03826(14)
O3A O 0.5197(3) 0.5352(3) 0.90397(15)
O4A O 0.4575(5) 0.5982(3) 0.82217(18)
O5A O 0.3179(3) 0.7145(3) 0.94515(16)
O6A O 0.3752(3) 0.6110(3) 1.01591(16)
O8A O 0.8413(17) 0.924(2) 1.5277(9)
O10A O 0.9363(18) 0.8023(17) 1.5835(12)
O13_2 O -0.7735(7) 0.3807(8) 0.5520(4)
O13A O 0.7735(7) 0.6193(8) 1.4480(4)
O14_2 O -0.6751(7) 0.2405(9) 0.5326(4)
O14A O 0.6751(7) 0.7595(9) 1.4674(4)
C2_2 C -0.6676(13) 0.3691(15) 0.5539(17)
N1A N 0.8749(4) 0.8142(4) 1.37999(18)
N2A N 0.5031(3) -0.1319(3) 0.87035(16)
N2_2 N 0.4969(3) 0.1319(3) 1.12965(16)
N2A_2 N 0.5031(3) 0.8681(3) 0.87035(16)
N3A N -0.0080(8) 0.4169(6) 1.2560(3)
N4A N 0.8617(7) 0.8667(7) 1.9271(3)
N5_2 N -0.0299(4) 0.3258(4) 0.5393(2)
N5A N 1.0299(4) 0.6742(4) 1.4607(2)
C3A C 0.8488(5) 0.9241(5) 1.3767(2)
H1A H 0.8421 0.9803 1.4159
C4A C 0.8313(5) 0.9589(4) 1.3195(2)
H2A H 0.8128 1.0378 1.3197
C5A C 0.8402(4) 0.8798(4) 1.2611(2)
C6A C 0.8683(5) 0.7673(5) 1.2649(2)
H3A H 0.8761 0.7097 1.2265
C7A C 0.8851(6) 0.7382(5) 1.3241(2)
H4A H 0.9048 0.6603 1.3252
C8A C 0.8161(4) 0.9128(4) 1.1980(2)
C9A C 0.8456(4) 1.0337(4) 1.1918(2)
H5A H 0.8860 1.0956 1.2274
C10A C 0.8161(5) 1.0638(4) 1.1335(2)
H6A H 0.8385 1.1461 1.1292
C11A C 0.7549(4) 0.9763(4) 1.0819(2)
H7A H 0.7336 0.9985 1.0426
C12A C 0.7240(4) 0.8546(4) 1.08733(19)
C13A C 0.7572(4) 0.8236(4) 1.14492(19)
H8A H 0.7396 0.7403 1.1482
C14A C 0.6473(4) 0.7589(4) 1.0338(2)
C15A C 0.5569(4) -0.0191(4) 0.9027(2)
H9A H 0.5918 -0.0090 0.9458
C16A C 0.5638(4) 0.0826(4) 0.8763(2)
H10A H 0.6037 0.1606 0.9009
C17A C 0.5122(4) 0.0709(4) 0.81352(19)
C18A C 0.4603(5) -0.0465(4) 0.7797(2)
H11A H 0.4264 -0.0598 0.7362
C19A C 0.4580(5) -0.1438(4) 0.8093(2)
H12A H 0.4225 -0.2235 0.7851
C20A C 0.5071(4) 0.1799(4) 0.78537(19)
C21A C 0.4892(5) 0.1688(4) 0.7190(2)
H13A H 0.4871 0.0912 0.6906
C22A C 0.4745(6) 0.2681(4) 0.6934(2)
H14A H 0.4637 0.2587 0.6478
C23A C 0.4754(6) 0.3810(4) 0.7337(2)
H15A H 0.4623 0.4487 0.7160
C24A C 0.4957(4) 0.3950(4) 0.8006(2)
C25A C 0.5134(4) 0.2955(4) 0.82563(19)
H16A H 0.5300 0.3061 0.8711
C26A C 0.4907(5) 0.5148(4) 0.8443(2)
C27A C -0.0960(9) 0.4194(6) 1.2132(4)
H17A H -0.1746 0.3809 1.2185
C28A C -0.0824(7) 0.4743(5) 1.1607(3)
H18A H -0.1499 0.4724 1.1315
C29A C 0.0317(5) 0.5320(4) 1.1516(2)
C30A C 0.1243(7) 0.5300(6) 1.1967(3)
H19A H 0.2040 0.5684 1.1932
C31A C 0.1007(9) 0.4718(8) 1.2471(4)
H20A H 0.1663 0.4712 1.2771
C32A C 0.0510(5) 0.5923(4) 1.0965(2)
C33A C -0.0405(5) 0.6385(5) 1.0683(3)
H21A H -0.1173 0.6309 1.0844
C34A C -0.0214(5) 0.6953(5) 1.0173(3)
H22A H -0.0846 0.7271 0.9991
C35A C 0.0888(4) 0.7061(4) 0.9928(2)
H23A H 0.1015 0.7461 0.9581
C36A C 0.1811(4) 0.6586(4) 1.0188(2)
C37A C 0.1616(4) 0.6021(4) 1.0710(2)
H24A H 0.2248 0.5701 1.0891
C38A C 0.2991(4) 0.6605(4) 0.9912(2)
C39A C 0.8139(9) 0.7916(7) 1.8709(4)
H25A H 0.7875 0.7074 1.8705
C40A C 0.8001(7) 0.8288(6) 1.8128(3)
H26A H 0.7658 0.7714 1.7741
C41A C 0.8376(5) 0.9513(5) 1.8128(2)
C42A C 0.8833(5) 1.0282(6) 1.8718(3)
H27A H 0.9079 1.1136 1.8748
C43A C 0.8936(7) 0.9819(7) 1.9261(3)
H28A H 0.9261 1.0376 1.9657
C44A C 0.8301(4) 0.9976(5) 1.7533(2)
C45A C 0.7988(5) 1.1117(6) 1.7540(3)
H29A H 0.7817 1.1604 1.7935
C46A C 0.7925(7) 1.1543(7) 1.6982(3)
H30A H 0.7714 1.2323 1.6990
C47A C 0.8174(7) 1.0824(8) 1.6405(3)
H31A H 0.8116 1.1112 1.6017
C48A C 0.8501(6) 0.9708(7) 1.6390(3)
C49A C 0.8558(5) 0.9288(6) 1.6949(3)
H32A H 0.8779 0.8511 1.6939
C50A C 0.8823(8) 0.8893(11) 1.5761(4)
C51_2 C -0.0235(5) 0.4392(6) 0.5687(4)
H33_2 H 0.0542 0.4865 0.5838
C52_2 C -0.1209(5) 0.4965(6) 0.5797(3)
H34_2 H -0.1082 0.5808 0.6009
C53_2 C -0.2343(4) 0.4345(5) 0.5608(2)
C54_2 C -0.2412(7) 0.3172(7) 0.5274(5)
H35_2 H -0.3177 0.2689 0.5107
C55_2 C -0.1398(8) 0.2671(7) 0.5175(4)
H36_2 H -0.1494 0.1848 0.4933
C56_2 C -0.3408(3) 0.4929(4) 0.5770(2)
C57_2 C -0.4561(3) 0.4233(4) 0.5633(2)
H37_2 H -0.4675 0.3390 0.5421
C58_2 C -0.5548(3) 0.4771(6) 0.5806(2)
C59_2 C -0.5381(4) 0.6004(6) 0.6116(3)
H38_2 H -0.6055 0.6372 0.6234
C60_2 C -0.4227(5) 0.6700(4) 0.6253(3)
H39_2 H -0.4113 0.7543 0.6465
C61_2 C -0.3241(4) 0.6163(4) 0.6080(2)
H40_2 H -0.2452 0.6638 0.6174
O15 O 0.401(2) 0.001(2) 0.5357(12)
O16 O 0.8511(13) 0.2744(12) 0.3454(5)
H41 H 0.809(6) 0.276(10) 0.315(3)
H42 H 0.915(4) 0.264(10) 0.334(4)
O17 O 0.6458(14) 0.1500(15) 0.3758(8)
O7? O 0.1055(14) 0.0654(17) 0.4719(6)
O9? O 0.1026(16) 0.2108(15) 0.4259(11)
O11? O -0.6922(6) 0.3392(7) 0.5456(3)
O12? O -0.7536(7) 0.4930(8) 0.6086(5)
C1? C -0.6827(8) 0.4402(10) 0.5797(5)
loop_
_geom_bond_atom_site_label_1
_geom_bond_atom_site_label_2
_geom_bond_site_symmetry_1
_geom_bond_site_symmetry_2
Zn1 O1 1_555 1_555
Zn2 O2 1_555 1_555
Zn3 O8 1_555 1_555
O1 C14 1_555 1_555
O2 C14 1_555 1_555
O3 Zn1 1_555 1_555
O4 Zn1 1_555 1_555
O5 Zn1 1_555 1_555
O6 Zn2 1_555 1_555
O8 C50 1_555 1_555
O10 Zn3 1_555 1_555
O13 Zn3 1_555 1_555
O14 Zn3 1_555 1_555
C2 O13 1_555 1_555
O16 H41 1_555 1_555
N1 Zn3 1_555 1_555
N2 C15 1_555 1_555
N3 C27 1_555 1_555
N4 C39 1_555 1_555
N5 C51 1_555 1_555
C3 N1 1_555 1_555
H1 C3 1_555 1_555
C4 C3 1_555 1_555
H2 C4 1_555 1_555
C5 C4 1_555 1_555
C6 C5 1_555 1_555
H3 C6 1_555 1_555
C7 N1 1_555 1_555
H4 C7 1_555 1_555
C8 C5 1_555 1_555
C9 C8 1_555 1_555
H5 C9 1_555 1_555
C10 C9 1_555 1_555
H6 C10 1_555 1_555
C11 C10 1_555 1_555
H7 C11 1_555 1_555
C12 C11 1_555 1_555
C13 C8 1_555 1_555
H8 C13 1_555 1_555
C14 C12 1_555 1_555
C15 H9 1_555 1_555
C16 C15 1_555 1_555
H10 C16 1_555 1_555
C17 C16 1_555 1_555
C18 C17 1_555 1_555
H11 C18 1_555 1_555
C19 N2 1_555 1_555
H12 C19 1_555 1_555
C20 C17 1_555 1_555
C21 C20 1_555 1_555
H13 C21 1_555 1_555
C22 C21 1_555 1_555
H14 C22 1_555 1_555
C23 C22 1_555 1_555
H15 C23 1_555 1_555
C24 C23 1_555 1_555
C25 C20 1_555 1_555
H16 C25 1_555 1_555
C26 O3 1_555 1_555
C27 H17 1_555 1_555
C28 C27 1_555 1_555
H18 C28 1_555 1_555
C29 C28 1_555 1_555
C30 C29 1_555 1_555
H19 C30 1_555 1_555
C31 N3 1_555 1_555
H20 C31 1_555 1_555
C32 C29 1_555 1_555
C33 C32 1_555 1_555
H21 C33 1_555 1_555
C34 C33 1_555 1_555
H22 C34 1_555 1_555
C35 C34 1_555 1_555
H23 C35 1_555 1_555
C36 C35 1_555 1_555
C37 C32 1_555 1_555
H24 C37 1_555 1_555
C38 O5 1_555 1_555
C39 H25 1_555 1_555
C40 C39 1_555 1_555
H26 C40 1_555 1_555
C41 C40 1_555 1_555
C42 C41 1_555 1_555
H27 C42 1_555 1_555
C43 N4 1_555 1_555
H28 C43 1_555 1_555
C44 C41 1_555 1_555
C45 C44 1_555 1_555
H29 C45 1_555 1_555
C46 C45 1_555 1_555
H30 C46 1_555 1_555
C47 C46 1_555 1_555
H31 C47 1_555 1_555
C48 C47 1_555 1_555
C49 C44 1_555 1_555
H32 C49 1_555 1_555
C50 O10 1_555 1_555
C51 H33 1_555 1_555
C52 C51 1_555 1_555
H34 C52 1_555 1_555
C53 C52 1_555 1_555
C54 C53 1_555 1_555
H35 C54 1_555 1_555
C55 N5 1_555 1_555
H36 C55 1_555 1_555
C56 C53 1_555 1_555
C57 C56 1_555 1_555
H37 C57 1_555 1_555
C58 C2 1_555 1_555
C59 C58 1_555 1_555
H38 C59 1_555 1_555
C60 C59 1_555 1_555
H39 C60 1_555 1_555
C61 C56 1_555 1_555
H40 C61 1_555 1_555
H42 O16 1_555 1_555
Zn1A O1A 1_555 1_555
Zn1_2 N2 1_555 1_555
Zn1A_2 N2A 1_555 1_555
Zn3A O8A 1_555 1_555
Zn3_2 N5 1_555 1_555
Zn3_3 O13_2 1_555 1_555
O1A C14A 1_555 1_555
O2A Zn2 1_555 1_555
O3A Zn2 1_555 1_555
O4A Zn1A 1_555 1_555
O5A Zn1A 1_555 1_555
O6A Zn2 1_555 1_555
O8A C50A 1_555 1_555
O10A Zn3A 1_555 1_555
O13_2 C2_2 1_555 1_555
O13A Zn3A 1_555 1_555
O14_2 Zn3_3 1_555 1_555
O14A Zn3A 1_555 1_555
C2_2 O14_2 1_555 1_555
N1A Zn3A 1_555 1_555
N2A C15A 1_555 1_555
N2_2 Zn1 1_555 1_555
N2A_2 Zn1A 1_555 1_555
N3A C27A 1_555 1_555
N4A C39A 1_555 1_555
N5_2 Zn3 1_555 1_555
N5A Zn3A 1_555 1_555
C3A N1A 1_555 1_555
H1A C3A 1_555 1_555
C4A C3A 1_555 1_555
H2A C4A 1_555 1_555
C5A C4A 1_555 1_555
C6A C5A 1_555 1_555
H3A C6A 1_555 1_555
C7A N1A 1_555 1_555
H4A C7A 1_555 1_555
C8A C5A 1_555 1_555
C9A C8A 1_555 1_555
H5A C9A 1_555 1_555
C10A C9A 1_555 1_555
H6A C10A 1_555 1_555
C11A C10A 1_555 1_555
H7A C11A 1_555 1_555
C12A C11A 1_555 1_555
C13A C8A 1_555 1_555
H8A C13A 1_555 1_555
C14A O2A 1_555 1_555
C15A H9A 1_555 1_555
C16A C15A 1_555 1_555
H10A C16A 1_555 1_555
C17A C16A 1_555 1_555
C18A C17A 1_555 1_555
H11A C18A 1_555 1_555
C19A N2A 1_555 1_555
H12A C19A 1_555 1_555
C20A C17A 1_555 1_555
C21A C20A 1_555 1_555
H13A C21A 1_555 1_555
C22A C21A 1_555 1_555
H14A C22A 1_555 1_555
C23A C22A 1_555 1_555
H15A C23A 1_555 1_555
C24A C23A 1_555 1_555
C25A C20A 1_555 1_555
H16A C25A 1_555 1_555
C26A O3A 1_555 1_555
C27A H17A 1_555 1_555
C28A C27A 1_555 1_555
H18A C28A 1_555 1_555
C29A C28A 1_555 1_555
C30A C29A 1_555 1_555
H19A C30A 1_555 1_555
C31A N3A 1_555 1_555
H20A C31A 1_555 1_555
C32A C29A 1_555 1_555
C33A C32A 1_555 1_555
H21A C33A 1_555 1_555
C34A C33A 1_555 1_555
H22A C34A 1_555 1_555
C35A C34A 1_555 1_555
H23A C35A 1_555 1_555
C36A C35A 1_555 1_555
C37A C32A 1_555 1_555
H24A C37A 1_555 1_555
C38A O5A 1_555 1_555
C39A H25A 1_555 1_555
C40A C39A 1_555 1_555
H26A C40A 1_555 1_555
C41A C40A 1_555 1_555
C42A C41A 1_555 1_555
H27A C42A 1_555 1_555
C43A N4A 1_555 1_555
H28A C43A 1_555 1_555
C44A C41A 1_555 1_555
C45A C44A 1_555 1_555
H29A C45A 1_555 1_555
C46A C45A 1_555 1_555
H30A C46A 1_555 1_555
C47A C46A 1_555 1_555
H31A C47A 1_555 1_555
C48A C47A 1_555 1_555
C49A C44A 1_555 1_555
H32A C49A 1_555 1_555
C50A O10A 1_555 1_555
C51_2 N5_2 1_555 1_555
H33_2 C51_2 1_555 1_555
C52_2 C51_2 1_555 1_555
H34_2 C52_2 1_555 1_555
C53_2 C52_2 1_555 1_555
C54_2 C53_2 1_555 1_555
H35_2 C54_2 1_555 1_555
C55_2 N5_2 1_555 1_555
H36_2 C55_2 1_555 1_555
C56_2 C53_2 1_555 1_555
C57_2 C56_2 1_555 1_555
H37_2 C57_2 1_555 1_555
C58_2 C2_2 1_555 1_555
C59_2 C58_2 1_555 1_555
H38_2 C59_2 1_555 1_555
C60_2 C59_2 1_555 1_555
H39_2 C60_2 1_555 1_555
C61_2 C56_2 1_555 1_555
H40_2 C61_2 1_555 1_555
Zn2 O3 1_555 1_555
O4 C26 1_555 1_555
O6 C38 1_555 1_555
O14 C2 1_555 1_555
C6 C7 1_555 1_555
C12 C13 1_555 1_555
C18 C19 1_555 1_555
C24 C25 1_555 1_555
C24 C26 1_555 1_555
C30 C31 1_555 1_555
C36 C37 1_555 1_555
C36 C38 1_555 1_555
C42 C43 1_555 1_555
C48 C49 1_555 1_555
C48 C50 1_555 1_555
C54 C55 1_555 1_555
C57 C58 1_555 1_555
C60 C61 1_555 1_555
Zn1A O3A 1_555 1_555
O4A C26A 1_555 1_555
O6A C38A 1_555 1_555
C6A C7A 1_555 1_555
C12A C13A 1_555 1_555
C12A C14A 1_555 1_555
C18A C19A 1_555 1_555
C24A C25A 1_555 1_555
C24A C26A 1_555 1_555
C30A C31A 1_555 1_555
C36A C37A 1_555 1_555
C36A C38A 1_555 1_555
C42A C43A 1_555 1_555
C48A C49A 1_555 1_555
C48A C50A 1_555 1_555
C54_2 C55_2 1_555 1_555
C57_2 C58_2 1_555 1_555
C60_2 C61_2 1_555 1_555

#END
