
#######################################################################
#
#                 Cambridge Crystallographic Data Centre
#                                CCDC 
#
#######################################################################
#
# If this CIF has been generated from an entry in the Cambridge 
# Structural Database, then it will include bibliographic, chemical, 
# crystal, experimental, refinement or atomic coordinate data resulting 
# from the CCDC's data processing and validation procedures.
#
#######################################################################

data_VALFAQ
_symmetry_cell_setting           monoclinic
_symmetry_space_group_name_H-M   'C 2'
_symmetry_Int_Tables_number      5
_space_group_name_Hall           'C 2y'
loop_
_symmetry_equiv_pos_site_id
_symmetry_equiv_pos_as_xyz
1 x,y,z
2 -x,y,-z
3 1/2+x,1/2+y,z
4 1/2-x,1/2+y,-z
_cell_length_a                   13.337(2)
_cell_length_b                   7.2766(13)
_cell_length_c                   10.2141(19)
_cell_angle_alpha                90
_cell_angle_beta                 118.557(3)
_cell_angle_gamma                90
_cell_volume                     870.664
loop_
_atom_site_label
_atom_site_type_symbol
_atom_site_fract_x
_atom_site_fract_y
_atom_site_fract_z
Cd1 Cd 0.0000 0.5000 0.0000
N1 N 0.1853(19) 0.4010(30) 0.0770(20)
N2 N 0.4637(18) 0.2470(40) 0.1170(20)
N3 N 0.3864(15) 0.5230(60) 0.1580(20)
N4 N 0.0622(15) 0.3340(30) 0.2270(20)
C1 C 0.2800(20) 0.4460(30) 0.1140(20)
C2 C 0.4240(30) 0.3660(60) 0.1340(30)
C3 C 0.1749(16) 0.2580(30) 0.2970(20)
C4 C 0.2677(8) 0.3482(15) 0.4103(10)
C5 C 0.3788(8) 0.2808(15) 0.4806(10)
C6 C 0.3986(8) 0.1156(15) 0.4343(10)
C7 C 0.3089(8) 0.0081(15) 0.3174(10)
C8 C 0.2004(8) 0.0922(15) 0.2532(10)
C9 C 0.5002(8) -0.0231(15) 0.5001(10)
H1 H 0.2546 0.4616 0.4413
H2 H 0.4363 0.3472 0.5550
H3 H 0.3203 -0.1015 0.2879
H4 H 0.1402 0.0318 0.1756
C6A C 0.6014(8) 0.1156(15) 0.5657(10)
C5A C 0.6212(8) 0.2808(15) 0.5194(10)
C4A C 0.7323(8) 0.3482(15) 0.5897(10)
C3A C 0.8251(16) 0.2580(30) 0.7030(20)
N4A N 0.9378(15) 0.3340(30) 0.7730(20)
C8A C 0.7996(8) 0.0922(15) 0.7468(10)
C7A C 0.6911(8) 0.0081(15) 0.6826(10)
H3A H 0.6797 -0.1015 0.7121
H4A H 0.8598 0.0318 0.8244
H1A H 0.7454 0.4616 0.5587
H2A H 0.5637 0.3472 0.4450
N1A N -0.1853(19) 0.4010(30) -0.0770(20)
N2A N -0.4637(18) 0.2470(40) -0.1170(20)
N3A N -0.3864(15) 0.5230(60) -0.1580(20)
C1A C -0.2800(20) 0.4460(30) -0.1140(20)
C2A C -0.4240(30) 0.3660(60) -0.1340(30)
N2B N -0.0363(18) 0.7470(40) 0.1170(20)
N2C N 0.0363(18) 0.7470(40) -0.1170(20)
N4A_2 N -0.0622(15) 0.3340(30) -0.2270(20)
Cd1B Cd 0.5000 0.0000 0.0000
Cd1_2 Cd 1.0000 0.5000 1.0000
Cd1B_2 Cd -0.5000 0.0000 0.0000
loop_
_geom_bond_atom_site_label_1
_geom_bond_atom_site_label_2
_geom_bond_site_symmetry_1
_geom_bond_site_symmetry_2
Cd1 N1 1_555 1_555
N1 C1 1_555 1_555
N2 C2 1_555 1_555
N3 C1 1_555 1_555
N4 Cd1 1_555 1_555
C2 N3 1_555 1_555
C3 N4 1_555 1_555
C4 C3 1_555 1_555
C5 C4 1_555 1_555
C6 C5 1_555 1_555
C7 C6 1_555 1_555
C8 C3 1_555 1_555
C9 C6 1_555 1_555
H1 C4 1_555 1_555
H2 C5 1_555 1_555
H3 C7 1_555 1_555
H4 C8 1_555 1_555
C6A C9 1_555 1_555
C5A C6A 1_555 1_555
C4A C5A 1_555 1_555
C3A C4A 1_555 1_555
N4A C3A 1_555 1_555
C8A C3A 1_555 1_555
C7A C6A 1_555 1_555
H3A C7A 1_555 1_555
H4A C8A 1_555 1_555
H1A C4A 1_555 1_555
H2A C5A 1_555 1_555
N1A Cd1 1_555 1_555
N2A C2A 1_555 1_555
N3A C1A 1_555 1_555
C1A N1A 1_555 1_555
C2A N3A 1_555 1_555
N2B Cd1 1_555 1_555
N2C Cd1 1_555 1_555
N4A_2 Cd1 1_555 1_555
Cd1B N2 1_555 1_555
Cd1_2 N4A 1_555 1_555
Cd1B_2 N2A 1_555 1_555
C7 C8 1_555 1_555
C8A C7A 1_555 1_555

#END
