
#######################################################################
#
#                 Cambridge Crystallographic Data Centre
#                                CCDC 
#
#######################################################################
#
# If this CIF has been generated from an entry in the Cambridge 
# Structural Database, then it will include bibliographic, chemical, 
# crystal, experimental, refinement or atomic coordinate data resulting 
# from the CCDC's data processing and validation procedures.
#
#######################################################################

data_VALFIY
_symmetry_cell_setting           triclinic
_symmetry_space_group_name_H-M   'P -1'
_symmetry_Int_Tables_number      2
_space_group_name_Hall           '-P 1'
loop_
_symmetry_equiv_pos_site_id
_symmetry_equiv_pos_as_xyz
1 x,y,z
2 -x,-y,-z
_cell_length_a                   5.7166(8)
_cell_length_b                   9.7018(15)
_cell_length_c                   11.9646(18)
_cell_angle_alpha                87.302(2)
_cell_angle_beta                 80.340(2)
_cell_angle_gamma                84.058(2)
_cell_volume                     650.35
loop_
_atom_site_label
_atom_site_type_symbol
_atom_site_fract_x
_atom_site_fract_y
_atom_site_fract_z
N1 N -0.345(9) 0.394(4) 0.077(3)
N3 N 0.022(6) 0.435(2) -0.037(3)
C1 C -0.155(4) 0.435(3) 0.0263(19)
N3A N -0.022(6) 0.565(2) 0.037(3)
C1A C 0.155(4) 0.565(3) -0.0263(19)
N1A N 0.345(9) 0.606(4) -0.077(3)
Cd1 Cd 0.5000 0.0000 0.0000
Br1 Br 0.0000 0.0000 0.0000
N4 N 0.569(2) -0.2260(10) 0.0817(9)
N5 N -0.4840(19) -0.1148(11) 0.8266(9)
C2 C 0.530(2) -0.2476(11) 0.2043(11)
C3 C 0.330(2) -0.3084(12) 0.2549(11)
H1 H 0.2219 -0.3355 0.2121
H2 H 0.1585 -0.3664 0.4036
H3 H 0.1011 -0.4400 0.7130
H4 H -0.2593 -0.3622 0.8164
H5 H -0.1845 0.0157 0.6743
H6 H 0.1655 -0.0662 0.5671
H7 H 0.7540 -0.1975 0.4250
H8 H 0.8281 -0.1679 0.2332
C4 C 0.296(2) -0.3273(13) 0.3689(12)
C5 C 0.446(2) -0.2888(12) 0.4369(11)
C6 C 0.414(3) -0.3145(14) 0.5640(12)
H9 H 0.4419 -0.4135 0.5790
H10 H 0.5361 -0.2706 0.5929
C7 C 0.174(3) -0.2631(14) 0.6296(11)
C8 C 0.043(3) -0.3480(13) 0.7041(12)
C9 C -0.172(3) -0.3022(13) 0.7685(11)
C10 C -0.263(3) -0.1654(14) 0.7581(11)
C11 C -0.131(3) -0.0781(13) 0.6841(12)
C12 C 0.077(3) -0.1270(13) 0.6199(11)
C13 C 0.649(2) -0.2273(12) 0.3841(12)
C14 C 0.691(2) -0.2077(13) 0.2683(12)
N4A N 0.431(2) 0.2260(10) -0.0817(9)
N5A N 1.4840(19) 0.1148(11) -0.8266(9)
C2A C 0.470(2) 0.2476(11) -0.2043(11)
C3A C 0.670(2) 0.3084(12) -0.2549(11)
H1A H 0.7781 0.3355 -0.2121
H2A H 0.8415 0.3664 -0.4036
H3A H 0.8989 0.4400 -0.7130
H4A H 1.2593 0.3622 -0.8164
H5A H 1.1845 -0.0157 -0.6743
H6A H 0.8345 0.0662 -0.5671
H7A H 0.2460 0.1975 -0.4250
H8A H 0.1719 0.1679 -0.2332
C4A C 0.704(2) 0.3273(13) -0.3689(12)
C5A C 0.554(2) 0.2888(12) -0.4369(11)
C6A C 0.586(3) 0.3145(14) -0.5640(12)
H9A H 0.5581 0.4135 -0.5790
H10A H 0.4639 0.2706 -0.5929
C7A C 0.826(3) 0.2631(14) -0.6296(11)
C8A C 0.957(3) 0.3480(13) -0.7041(12)
C9A C 1.172(3) 0.3022(13) -0.7685(11)
C10A C 1.263(3) 0.1654(14) -0.7581(11)
C11A C 1.131(3) 0.0781(13) -0.6841(12)
C12A C 0.923(3) 0.1270(13) -0.6199(11)
C13A C 0.351(2) 0.2273(12) -0.3841(12)
C14A C 0.309(2) 0.2077(13) -0.2683(12)
Br1_2 Br 1.0000 0.0000 0.0000
N5_2 N 0.5160(19) -0.1148(11) -0.1734(9)
N5A_2 N 0.4840(19) 0.1148(11) 0.1734(9)
Cd1_2 Cd -0.5000 0.0000 0.0000
Cd1_3 Cd -0.5000 0.0000 1.0000
Cd1_4 Cd 1.5000 0.0000 -1.0000
N2? N -0.248(17) 0.357(6) 0.032(5)
loop_
_geom_bond_atom_site_label_1
_geom_bond_atom_site_label_2
_geom_bond_site_symmetry_1
_geom_bond_site_symmetry_2
Cd1 Br1 1_555 1_555
Br1 Cd1_2 1_555 1_555
N1 C1 1_555 1_555
N3 C1 1_555 1_555
N4 Cd1 1_555 1_555
N5 C10 1_555 1_555
C1 N3A 1_555 1_555
C2 N4 1_555 1_555
C3 C2 1_555 1_555
H1 C3 1_555 1_555
H2 C4 1_555 1_555
H3 C8 1_555 1_555
H4 C9 1_555 1_555
H5 C11 1_555 1_555
H6 C12 1_555 1_555
H7 C13 1_555 1_555
H8 C14 1_555 1_555
C4 C3 1_555 1_555
C5 C4 1_555 1_555
C6 C5 1_555 1_555
H9 C6 1_555 1_555
H10 C6 1_555 1_555
C7 C6 1_555 1_555
C8 C7 1_555 1_555
C9 C8 1_555 1_555
C10 C9 1_555 1_555
C11 C10 1_555 1_555
C12 C7 1_555 1_555
C13 C5 1_555 1_555
C14 C2 1_555 1_555
N3A N3 1_555 1_555
C1A N3 1_555 1_555
N1A C1A 1_555 1_555
N4A Cd1 1_555 1_555
N5A C10A 1_555 1_555
C2A N4A 1_555 1_555
C3A C2A 1_555 1_555
H1A C3A 1_555 1_555
H2A C4A 1_555 1_555
H3A C8A 1_555 1_555
H4A C9A 1_555 1_555
H5A C11A 1_555 1_555
H6A C12A 1_555 1_555
H7A C13A 1_555 1_555
H8A C14A 1_555 1_555
C4A C3A 1_555 1_555
C5A C4A 1_555 1_555
C6A C5A 1_555 1_555
H9A C6A 1_555 1_555
H10A C6A 1_555 1_555
C7A C6A 1_555 1_555
C8A C7A 1_555 1_555
C9A C8A 1_555 1_555
C10A C9A 1_555 1_555
C11A C10A 1_555 1_555
C12A C7A 1_555 1_555
C13A C5A 1_555 1_555
C14A C2A 1_555 1_555
Br1_2 Cd1 1_555 1_555
N5_2 Cd1 1_555 1_555
N5A_2 Cd1 1_555 1_555
Cd1_3 N5 1_555 1_555
Cd1_4 N5A 1_555 1_555
C11 C12 1_555 1_555
C13 C14 1_555 1_555
N3A C1A 1_555 1_555
C11A C12A 1_555 1_555
C13A C14A 1_555 1_555

#END
