
#######################################################################
#
#                 Cambridge Crystallographic Data Centre
#                                CCDC 
#
#######################################################################
#
# If this CIF has been generated from an entry in the Cambridge 
# Structural Database, then it will include bibliographic, chemical, 
# crystal, experimental, refinement or atomic coordinate data resulting 
# from the CCDC's data processing and validation procedures.
#
#######################################################################

data_VALFAQ01
_symmetry_cell_setting           monoclinic
_symmetry_space_group_name_H-M   'C 2/c'
_symmetry_Int_Tables_number      15
_space_group_name_Hall           '-C 2yn'
loop_
_symmetry_equiv_pos_site_id
_symmetry_equiv_pos_as_xyz
1 x,y,z
2 1/2+x,1/2+y,z
3 x,-y,1/2+z
4 1/2+x,1/2-y,1/2+z
5 -x,-y,-z
6 1/2-x,1/2-y,-z
7 -x,y,1/2-z
8 1/2-x,1/2+y,1/2-z
_cell_length_a                   13.3404(4)
_cell_length_b                   7.2814(3)
_cell_length_c                   18.29490(10)
_cell_angle_alpha                90
_cell_angle_beta                 101.280(2)
_cell_angle_gamma                90
_cell_volume                     1742.78
loop_
_atom_site_label
_atom_site_type_symbol
_atom_site_fract_x
_atom_site_fract_y
_atom_site_fract_z
Cd1 Cd 0.2500 0.2500 0.5000
N1 N 0.1027(3) 0.1516(6) 0.5369(3)
N2 N -0.1549(4) 0.5061(7) 0.5554(3)
N3 N -0.0525(5) 0.2267(6) 0.5820(4)
N4 N 0.1991(3) 0.0864(6) 0.3852(2)
C1 C 0.0287(4) 0.1966(8) 0.5567(3)
C2 C -0.1038(4) 0.3805(8) 0.5649(3)
C3 C 0.2774(3) 0.0102(7) 0.3508(3)
C4 C 0.3104(4) 0.1029(7) 0.2944(3)
H1 H 0.2812 0.2160 0.2791
H2 H 0.4061 0.0986 0.2214
H3 H 0.4304 -0.3389 0.3588
H4 H 0.3020 -0.2187 0.4128
C5 C 0.3855(4) 0.0337(7) 0.2600(3)
C6 C 0.4300(4) -0.1364(7) 0.2845(3)
C7 C 0.3997(5) -0.2287(6) 0.3420(3)
C8 C 0.3231(4) -0.1556(7) 0.3744(3)
C9 C 0.5000 -0.2260(7) 0.2500
C6F C 0.5700(4) -0.1364(7) 0.2155(3)
C5F C 0.6145(4) 0.0337(7) 0.2400(3)
C4F C 0.6896(4) 0.1029(7) 0.2056(3)
C3F C 0.7226(3) 0.0102(7) 0.1492(3)
N4F N 0.8009(3) 0.0864(6) 0.1148(2)
C8F C 0.6769(4) -0.1556(7) 0.1256(3)
H4F H 0.6980 -0.2187 0.0872
C7F C 0.6003(5) -0.2287(6) 0.1580(3)
H3F H 0.5696 -0.3389 0.1412
H1F H 0.7188 0.2160 0.2209
H2F H 0.5939 0.0986 0.2786
N1E N 0.3973(3) 0.3484(6) 0.4631(3)
N2E N 0.6549(4) -0.0061(7) 0.4446(3)
N3E N 0.5525(5) 0.2733(6) 0.4180(4)
C1E C 0.4713(4) 0.3034(8) 0.4433(3)
C2E C 0.6038(4) 0.1195(8) 0.4351(3)
N2A N 0.3451(4) 0.0061(7) 0.5554(3)
N2D N 0.1549(4) 0.4939(7) 0.4446(3)
N4E N 0.3009(3) 0.4136(6) 0.6148(2)
Cd1A Cd -0.2500 0.7500 0.5000
Cd1C Cd 0.7500 0.2500 0.0000
Cd1A_2 Cd 0.7500 -0.2500 0.5000
loop_
_geom_bond_atom_site_label_1
_geom_bond_atom_site_label_2
_geom_bond_site_symmetry_1
_geom_bond_site_symmetry_2
Cd1 N1 1_555 1_555
N1 C1 1_555 1_555
N2 C2 1_555 1_555
N3 C1 1_555 1_555
N4 Cd1 1_555 1_555
C2 N3 1_555 1_555
C3 N4 1_555 1_555
C4 C3 1_555 1_555
H1 C4 1_555 1_555
H2 C5 1_555 1_555
H3 C7 1_555 1_555
H4 C8 1_555 1_555
C5 C4 1_555 1_555
C6 C5 1_555 1_555
C7 C6 1_555 1_555
C8 C3 1_555 1_555
C9 C6 1_555 1_555
C6F C9 1_555 1_555
C5F C6F 1_555 1_555
C4F C5F 1_555 1_555
C3F C4F 1_555 1_555
N4F C3F 1_555 1_555
C8F C3F 1_555 1_555
H4F C8F 1_555 1_555
C7F C6F 1_555 1_555
H3F C7F 1_555 1_555
H1F C4F 1_555 1_555
H2F C5F 1_555 1_555
N1E Cd1 1_555 1_555
N2E C2E 1_555 1_555
N3E C1E 1_555 1_555
C1E N1E 1_555 1_555
C2E N3E 1_555 1_555
N2A Cd1 1_555 1_555
N2D Cd1 1_555 1_555
N4E Cd1 1_555 1_555
Cd1A N2 1_555 1_555
Cd1C N4F 1_555 1_555
Cd1A_2 N2E 1_555 1_555
C7 C8 1_555 1_555
C8F C7F 1_555 1_555

#END
