
#######################################################################
#
#                 Cambridge Crystallographic Data Centre
#                                CCDC 
#
#######################################################################
#
# If this CIF has been generated from an entry in the Cambridge 
# Structural Database, then it will include bibliographic, chemical, 
# crystal, experimental, refinement or atomic coordinate data resulting 
# from the CCDC's data processing and validation procedures.
#
#######################################################################

data_VALGIA
_symmetry_cell_setting           monoclinic
_symmetry_space_group_name_H-M   'C 2/c'
_symmetry_Int_Tables_number      15
_space_group_name_Hall           '-C 2yn'
loop_
_symmetry_equiv_pos_site_id
_symmetry_equiv_pos_as_xyz
1 x,y,z
2 -x,y,1/2-z
3 1/2+x,1/2+y,z
4 1/2-x,1/2+y,1/2-z
5 -x,-y,-z
6 x,-y,1/2+z
7 1/2-x,1/2-y,-z
8 1/2+x,1/2-y,1/2+z
_cell_length_a                   21.1155(16)
_cell_length_b                   10.8732(8)
_cell_length_c                   12.6378(10)
_cell_angle_alpha                90
_cell_angle_beta                 95.168(1)
_cell_angle_gamma                90
_cell_volume                     2889.76
loop_
_atom_site_label
_atom_site_type_symbol
_atom_site_fract_x
_atom_site_fract_y
_atom_site_fract_z
Zn1 Zn 0.473700(9) 0.293380(15) 0.136020(14)
N1 N 0.41358(7) 0.30287(12) 0.00151(11)
O1 O 0.09888(6) 0.19351(12) -0.23928(11)
O2 O 0.06444(6) 0.23579(13) -0.40649(11)
O3 O 0.48615(6) 0.47458(10) 0.16211(9)
O4 O 0.47256(7) 1.11210(12) 0.17044(12)
C1 C 0.40165(8) 0.40943(16) -0.04816(14)
H1 H 0.4233 0.4809 -0.0211
C2 C 0.35920(8) 0.42074(16) -0.13724(14)
H2 H 0.3525 0.4985 -0.1707
C3 C 0.32656(8) 0.31850(17) -0.17756(14)
C4 C 0.33966(11) 0.20744(17) -0.12662(18)
H3 H 0.3188 0.1345 -0.1523
C5 C 0.38307(11) 0.20324(17) -0.03864(17)
H4 H 0.3917 0.1262 -0.0050
C6 C 0.27783(8) 0.32858(18) -0.26979(14)
C7 C 0.21909(9) 0.27370(17) -0.26364(14)
H5 H 0.2115 0.2274 -0.2023
C8 C 0.17108(8) 0.28529(15) -0.34586(14)
C9 C 0.18300(9) 0.34969(19) -0.43641(15)
H6 H 0.1509 0.3563 -0.4939
C10 C 0.24160(9) 0.4045(2) -0.44315(16)
H7 H 0.2495 0.4488 -0.5054
C11 C 0.28874(9) 0.3954(2) -0.36018(16)
H8 H 0.3285 0.4348 -0.3649
C12 C 0.10650(8) 0.23402(15) -0.32965(14)
C13 C 0.5000 0.52754(19) 0.2500
C14 C 0.5000 0.6653(2) 0.2500
C15 C 0.47312(9) 0.72980(15) 0.16214(14)
H9 H 0.4546 0.6864 0.1018
C16 C 0.47320(8) 0.85689(15) 0.16224(14)
H10 H 0.4548 0.9004 0.1019
C17 C 0.5000 0.9213(2) 0.2500
C18 C 0.5000 1.0593(2) 0.2500
Zn1A Zn 0.526300(9) 0.293380(15) 0.363980(14)
Zn1F Zn 0.026300(9) 0.206620(15) -0.136020(14)
Zn1G Zn -0.026300(9) 0.206620(15) -0.363980(14)
Zn1_2 Zn 0.473700(9) 1.293380(15) 0.136020(14)
Zn1A_2 Zn 0.526300(9) 1.293380(15) 0.363980(14)
Zn1G_2 Zn 0.973700(9) 0.206620(15) 0.636020(14)
Zn1F_2 Zn 1.026300(9) 0.206620(15) 0.863980(14)
N1A N 0.58642(7) 0.30287(12) 0.49849(11)
O1G O 0.59888(6) 0.30649(12) 0.26072(11)
O1F O 0.40112(6) 0.30649(12) 0.23928(11)
O1A O 0.90112(6) 0.19351(12) 0.73928(11)
O2F O 0.43556(6) 0.26421(13) 0.40649(11)
O2G O 0.56444(6) 0.26421(13) 0.09351(11)
O2A O 0.93556(6) 0.23579(13) 0.90649(11)
O3A O 0.51385(6) 0.47458(10) 0.33789(9)
O4A O 0.52744(7) 0.11210(12) 0.32956(12)
O4_2 O 0.47256(7) 0.11210(12) 0.17044(12)
O4A_2 O 0.52744(7) 1.11210(12) 0.32956(12)
C1A C 0.59835(8) 0.40943(16) 0.54816(14)
H1A H 0.5767 0.4809 0.5211
C2A C 0.64080(8) 0.42074(16) 0.63724(14)
H2A H 0.6475 0.4985 0.6707
C3A C 0.67344(8) 0.31850(17) 0.67756(14)
C4A C 0.66034(11) 0.20744(17) 0.62662(18)
H3A H 0.6812 0.1345 0.6523
C5A C 0.61693(11) 0.20324(17) 0.53864(17)
H4A H 0.6083 0.1262 0.5050
C6A C 0.72217(8) 0.32858(18) 0.76979(14)
C7A C 0.78091(9) 0.27370(17) 0.76364(14)
H5A H 0.7885 0.2274 0.7023
C8A C 0.82892(8) 0.28529(15) 0.84586(14)
C9A C 0.81700(9) 0.34969(19) 0.93641(15)
H6A H 0.8491 0.3563 0.9939
C10A C 0.75840(9) 0.4045(2) 0.94315(16)
H7A H 0.7505 0.4488 1.0054
C11A C 0.71126(9) 0.3954(2) 0.86018(16)
H8A H 0.6715 0.4348 0.8649
C12A C 0.89350(8) 0.23402(15) 0.82965(14)
C15A C 0.52688(9) 0.72980(15) 0.33786(14)
H9A H 0.5454 0.6864 0.3982
C16A C 0.52680(8) 0.85689(15) 0.33776(14)
H10A H 0.5452 0.9004 0.3981
loop_
_geom_bond_atom_site_label_1
_geom_bond_atom_site_label_2
_geom_bond_site_symmetry_1
_geom_bond_site_symmetry_2
Zn1 N1 1_555 1_555
N1 C1 1_555 1_555
O1 C12 1_555 1_555
O2 C12 1_555 1_555
O3 Zn1 1_555 1_555
O4 C18 1_555 1_555
C1 H1 1_555 1_555
C2 C1 1_555 1_555
H2 C2 1_555 1_555
C3 C2 1_555 1_555
C4 C3 1_555 1_555
H3 C4 1_555 1_555
C5 N1 1_555 1_555
H4 C5 1_555 1_555
C6 C3 1_555 1_555
C7 C6 1_555 1_555
H5 C7 1_555 1_555
C8 C7 1_555 1_555
C9 C8 1_555 1_555
H6 C9 1_555 1_555
C10 C9 1_555 1_555
H7 C10 1_555 1_555
C11 C6 1_555 1_555
H8 C11 1_555 1_555
C12 C8 1_555 1_555
C13 O3 1_555 1_555
C14 C13 1_555 1_555
C15 C14 1_555 1_555
H9 C15 1_555 1_555
C16 C15 1_555 1_555
H10 C16 1_555 1_555
C17 C16 1_555 1_555
C18 C17 1_555 1_555
Zn1A N1A 1_555 1_555
Zn1F O1 1_555 1_555
Zn1G O2 1_555 1_555
Zn1_2 O4 1_555 1_555
Zn1A_2 O4A_2 1_555 1_555
Zn1G_2 O1A 1_555 1_555
Zn1F_2 O2A 1_555 1_555
N1A C1A 1_555 1_555
O1G Zn1A 1_555 1_555
O1F Zn1 1_555 1_555
O1A C12A 1_555 1_555
O2F Zn1A 1_555 1_555
O2G Zn1 1_555 1_555
O2A C12A 1_555 1_555
O3A C13 1_555 1_555
O4A Zn1A 1_555 1_555
O4_2 Zn1 1_555 1_555
O4A_2 C18 1_555 1_555
C1A H1A 1_555 1_555
C2A C1A 1_555 1_555
H2A C2A 1_555 1_555
C3A C2A 1_555 1_555
C4A C3A 1_555 1_555
H3A C4A 1_555 1_555
C5A N1A 1_555 1_555
H4A C5A 1_555 1_555
C6A C3A 1_555 1_555
C7A C6A 1_555 1_555
H5A C7A 1_555 1_555
C8A C7A 1_555 1_555
C9A C8A 1_555 1_555
H6A C9A 1_555 1_555
C10A C9A 1_555 1_555
H7A C10A 1_555 1_555
C11A C6A 1_555 1_555
H8A C11A 1_555 1_555
C12A C8A 1_555 1_555
C15A C14 1_555 1_555
H9A C15A 1_555 1_555
C16A C17 1_555 1_555
H10A C16A 1_555 1_555
C4 C5 1_555 1_555
C10 C11 1_555 1_555
Zn1A O3A 1_555 1_555
C4A C5A 1_555 1_555
C10A C11A 1_555 1_555
C15A C16A 1_555 1_555

#END
