
#######################################################################
#
#                 Cambridge Crystallographic Data Centre
#                                CCDC 
#
#######################################################################
#
# If this CIF has been generated from an entry in the Cambridge 
# Structural Database, then it will include bibliographic, chemical, 
# crystal, experimental, refinement or atomic coordinate data resulting 
# from the CCDC's data processing and validation procedures.
#
#######################################################################

data_VALGUM
_symmetry_cell_setting           monoclinic
_symmetry_space_group_name_H-M   'C 2/c'
_symmetry_Int_Tables_number      15
_space_group_name_Hall           '-C 2yn'
loop_
_symmetry_equiv_pos_site_id
_symmetry_equiv_pos_as_xyz
1 x,y,z
2 -x,y,1/2-z
3 1/2+x,1/2+y,z
4 1/2-x,1/2+y,1/2-z
5 -x,-y,-z
6 x,-y,1/2+z
7 1/2-x,1/2-y,-z
8 1/2+x,1/2-y,1/2+z
_cell_length_a                   21.047(4)
_cell_length_b                   8.9370(18)
_cell_length_c                   13.488(3)
_cell_angle_alpha                90
_cell_angle_beta                 105.81(3)
_cell_angle_gamma                90
_cell_volume                     2441.08
loop_
_atom_site_label
_atom_site_type_symbol
_atom_site_fract_x
_atom_site_fract_y
_atom_site_fract_z
H1 H 0.474(4) 0.482(8) 1.115(6)
H2 H 0.407(4) 0.461(8) 1.087(6)
Dy1 Dy 0.450030(7) 0.169451(19) 1.046339(12)
C1 C 0.3362(2) 0.1789(4) 0.8850(4)
C2 C 0.2749(2) 0.1825(4) 0.7965(4)
C3 C 0.27748(18) 0.1282(5) 0.7016(3)
H3 H 0.3161 0.0869 0.6928
C4 C 0.22077(19) 0.1369(5) 0.6202(3)
C5 C 0.16231(19) 0.1948(5) 0.6310(3)
H4 H 0.1249 0.1979 0.5752
C6 C 0.21707(19) 0.2431(4) 0.8098(3)
H5 H 0.2161 0.2802 0.8738
C7 C 0.51977(18) 0.2104(5) 0.8946(3)
C8 C 0.5328(2) 0.2217(5) 0.7907(3)
H6 H 0.5594 0.1376 0.7802
H7 H 0.5568 0.3132 0.7864
C9 C 0.0972(2) 0.3111(4) 0.7397(3)
C10 C 0.16027(17) 0.2483(4) 0.7269(3)
N1 N 0.22391(16) 0.0858(4) 0.5179(3)
O1 O 0.34114(12) 0.2643(4) 0.9618(2)
O2 O 0.38269(12) 0.0910(3) 0.8817(2)
O3 O 0.49496(15) 0.3202(3) 0.9299(2)
O4 O 0.04697(14) 0.3018(4) 0.6652(2)
O5 O 0.44402(17) 0.4178(3) 1.1058(3)
O6 O 0.09775(13) 0.3711(4) 0.8247(2)
O7 O 0.52857(13) 0.0887(3) 0.9440(2)
O8 O 0.17339(14) 0.0958(4) 0.4458(2)
O9 O 0.27576(16) 0.0402(5) 0.5082(3)
H1F H 0.026(4) 0.018(8) 0.885(6)
H2F H 0.093(4) 0.039(8) 0.913(6)
Dy1G Dy -0.049970(7) 0.330549(19) 0.546339(12)
Dy1F Dy 0.049970(7) 0.330549(19) 0.953661(12)
Dy1D Dy 0.549970(7) -0.169451(19) 0.953661(12)
Dy1A Dy 0.549970(7) 0.169451(19) 0.453661(12)
Dy1E Dy 0.450030(7) -0.169451(19) 0.546339(12)
Dy1A_2 Dy 0.549970(7) 0.169451(19) 1.453661(12)
C1F C 0.1638(2) 0.3211(4) 1.1150(4)
C2F C 0.2251(2) 0.3175(4) 1.2035(4)
C3F C 0.22252(18) 0.3718(5) 1.2984(3)
H3F H 0.1839 0.4131 1.3072
C4F C 0.27923(19) 0.3631(5) 1.3798(3)
C5F C 0.33769(19) 0.3052(5) 1.3690(3)
H4F H 0.3751 0.3021 1.4248
C6F C 0.28293(19) 0.2569(4) 1.1902(3)
H5F H 0.2839 0.2198 1.1262
C7A C 0.48023(18) 0.2104(5) 0.6054(3)
C8A C 0.4672(2) 0.2217(5) 0.7093(3)
H6A H 0.4406 0.1376 0.7198
H7A H 0.4432 0.3132 0.7136
C9F C 0.4028(2) 0.1889(4) 1.2603(3)
C10F C 0.33973(17) 0.2517(4) 1.2731(3)
N1F N 0.27609(16) 0.4142(4) 1.4821(3)
O1F O 0.15886(12) 0.2357(4) 1.0382(2)
O2F O 0.11731(12) 0.4090(3) 1.1183(2)
O3A O 0.50504(15) 0.3202(3) 0.5701(2)
O3F O 0.00504(15) 0.1798(3) 1.0701(2)
O4G O 0.54697(14) 0.1982(4) 1.1652(2)
O4A O -0.04697(14) 0.3018(4) 0.8348(2)
O4F O 0.45303(14) 0.1982(4) 1.3348(2)
O5F O 0.05598(17) 0.0822(3) 0.8942(3)
O6F O 0.40225(13) 0.1289(4) 1.1753(2)
O7A O 0.47143(13) 0.0887(3) 0.5560(2)
O7D O 0.47143(13) -0.0887(3) 1.0560(2)
O7B O 0.02857(13) 0.5887(3) 0.9440(2)
O7F O -0.02857(13) 0.4113(3) 1.0560(2)
O8F O 0.32661(14) 0.4042(4) 1.5542(2)
O9F O 0.22424(16) 0.4598(5) 1.4918(3)
loop_
_geom_bond_atom_site_label_1
_geom_bond_atom_site_label_2
_geom_bond_site_symmetry_1
_geom_bond_site_symmetry_2
H1 O5 1_555 1_555
H2 O5 1_555 1_555
Dy1 O1 1_555 1_555
C1 C2 1_555 1_555
C2 C3 1_555 1_555
C3 H3 1_555 1_555
C4 C3 1_555 1_555
C5 C4 1_555 1_555
H4 C5 1_555 1_555
C6 C2 1_555 1_555
H5 C6 1_555 1_555
C7 C8 1_555 1_555
C8 H6 1_555 1_555
H7 C8 1_555 1_555
C9 C10 1_555 1_555
C10 C5 1_555 1_555
N1 C4 1_555 1_555
O1 C1 1_555 1_555
O2 Dy1 1_555 1_555
O3 Dy1 1_555 1_555
O4 C9 1_555 1_555
O5 Dy1 1_555 1_555
O6 C9 1_555 1_555
O7 Dy1 1_555 1_555
O8 N1 1_555 1_555
O9 N1 1_555 1_555
H1F O5F 1_555 1_555
H2F O5F 1_555 1_555
Dy1G O4 1_555 1_555
Dy1F O6 1_555 1_555
Dy1D O7 1_555 1_555
Dy1A O3A 1_555 1_555
Dy1E O7A 1_555 1_555
Dy1A_2 O4F 1_555 1_555
C1F C2F 1_555 1_555
C2F C3F 1_555 1_555
C3F H3F 1_555 1_555
C4F C3F 1_555 1_555
C5F C4F 1_555 1_555
H4F C5F 1_555 1_555
C6F C2F 1_555 1_555
H5F C6F 1_555 1_555
C7A C8A 1_555 1_555
C8A C8 1_555 1_555
H6A C8A 1_555 1_555
H7A C8A 1_555 1_555
C9F C10F 1_555 1_555
C10F C5F 1_555 1_555
N1F C4F 1_555 1_555
O1F Dy1F 1_555 1_555
O2F Dy1F 1_555 1_555
O3A C7A 1_555 1_555
O3F Dy1F 1_555 1_555
O4G Dy1 1_555 1_555
O4A Dy1F 1_555 1_555
O4F C9F 1_555 1_555
O5F Dy1F 1_555 1_555
O6F Dy1 1_555 1_555
O7A Dy1A 1_555 1_555
O7D Dy1 1_555 1_555
O7B Dy1F 1_555 1_555
O7F Dy1F 1_555 1_555
O8F N1F 1_555 1_555
O9F N1F 1_555 1_555
C1 O2 1_555 1_555
C6 C10 1_555 1_555
C7 O3 1_555 1_555
C7 O7 1_555 1_555
Dy1D O7D 1_555 1_555
C1F O1F 1_555 1_555
C1F O2F 1_555 1_555
C6F C10F 1_555 1_555
C7A O7A 1_555 1_555
C9F O6F 1_555 1_555

#END
