
#######################################################################
#
#                 Cambridge Crystallographic Data Centre
#                                CCDC 
#
#######################################################################
#
# If this CIF has been generated from an entry in the Cambridge 
# Structural Database, then it will include bibliographic, chemical, 
# crystal, experimental, refinement or atomic coordinate data resulting 
# from the CCDC's data processing and validation procedures.
#
#######################################################################

data_VALRUX
_symmetry_cell_setting           tetragonal
_symmetry_space_group_name_H-M   'I 4/m'
_symmetry_Int_Tables_number      87
_space_group_name_Hall           '-I 4'
loop_
_symmetry_equiv_pos_site_id
_symmetry_equiv_pos_as_xyz
1 x,y,z
2 -x,-y,z
3 -y,x,z
4 y,-x,z
5 1/2+x,1/2+y,1/2+z
6 1/2-x,1/2-y,1/2+z
7 1/2-y,1/2+x,1/2+z
8 1/2+y,1/2-x,1/2+z
9 -x,-y,-z
10 x,y,-z
11 y,-x,-z
12 -y,x,-z
13 1/2-x,1/2-y,1/2-z
14 1/2+x,1/2+y,1/2-z
15 1/2+y,1/2-x,1/2-z
16 1/2-y,1/2+x,1/2-z
_cell_length_a                   7.2471(2)
_cell_length_b                   7.2471(2)
_cell_length_c                   12.0237(5)
_cell_angle_alpha                90
_cell_angle_beta                 90
_cell_angle_gamma                90
_cell_volume                     631.49
loop_
_atom_site_label
_atom_site_type_symbol
_atom_site_fract_x
_atom_site_fract_y
_atom_site_fract_z
C1 C 0.4032(15) 0.9672(14) 0.5981(7)
H1 H 0.3806 0.8939 0.6642
H2 H 0.3202 1.0722 0.5995
O1 O 0.3672(13) 0.8569(12) 0.5000
Cl1 Cl 0.5000 0.5000 0.3076(4)
Hg1 Hg 0.5000 0.5000 0.5000
C1A C 0.5968(15) 1.0328(14) 0.5981(7)
C1H C 0.5968(15) 1.0328(14) 0.4019(7)
C1I C 0.4032(15) 0.9672(14) 0.4019(7)
C1A_2 C 0.5968(15) 0.0328(14) 0.5981(7)
C1_2 C 0.4032(15) -0.0328(14) 0.5981(7)
C1I_2 C 0.4032(15) -0.0328(14) 0.4019(7)
C1H_2 C 0.5968(15) 0.0328(14) 0.4019(7)
H1A H 0.6194 1.1061 0.6642
H1I H 0.3806 0.8939 0.3358
H1H H 0.6194 1.1061 0.3358
H1A_2 H 0.6194 0.1061 0.6642
H1_2 H 0.3806 -0.1061 0.6642
H1H_2 H 0.6194 0.1061 0.3358
H1I_2 H 0.3806 -0.1061 0.3358
H2A H 0.6798 0.9278 0.5995
H2I H 0.3202 1.0722 0.4005
H2H H 0.6798 0.9278 0.4005
H2A_2 H 0.6798 -0.0722 0.5995
H2_2 H 0.3202 0.0722 0.5995
H2H_2 H 0.6798 -0.0722 0.4005
H2I_2 H 0.3202 0.0722 0.4005
O1A O 0.6328(13) 1.1431(12) 0.5000
O1A_2 O 0.6328(13) 0.1431(12) 0.5000
O1_2 O 0.3672(13) -0.1431(12) 0.5000
O1C O 0.8569(12) 0.6328(13) 0.5000
O1B O 0.1431(12) 0.3672(13) 0.5000
Cl1H Cl 0.5000 0.5000 0.6924(4)
Hg1_2 Hg 0.5000 1.5000 0.5000
Hg1_3 Hg 0.5000 -0.5000 0.5000
loop_
_geom_bond_atom_site_label_1
_geom_bond_atom_site_label_2
_geom_bond_site_symmetry_1
_geom_bond_site_symmetry_2
C1 H1 1_555 1_555
H2 C1 1_555 1_555
O1 C1 1_555 1_555
Cl1 Hg1 1_555 1_555
Hg1 O1 1_555 1_555
C1A C1 1_555 1_555
C1H C1I 1_555 1_555
C1I O1 1_555 1_555
C1A_2 C1_2 1_555 1_555
C1_2 H1_2 1_555 1_555
C1I_2 C1H_2 1_555 1_555
C1H_2 H1H_2 1_555 1_555
H1A C1A 1_555 1_555
H1I C1I 1_555 1_555
H1H C1H 1_555 1_555
H1A_2 C1A_2 1_555 1_555
H1I_2 C1I_2 1_555 1_555
H2A C1A 1_555 1_555
H2I C1I 1_555 1_555
H2H C1H 1_555 1_555
H2A_2 C1A_2 1_555 1_555
H2_2 C1_2 1_555 1_555
H2H_2 C1H_2 1_555 1_555
H2I_2 C1I_2 1_555 1_555
O1A C1A 1_555 1_555
O1A_2 Hg1 1_555 1_555
O1_2 C1_2 1_555 1_555
O1C Hg1 1_555 1_555
O1B Hg1 1_555 1_555
Cl1H Hg1 1_555 1_555
Hg1_2 O1A 1_555 1_555
Hg1_3 O1_2 1_555 1_555
C1H O1A 1_555 1_555
C1A_2 O1A_2 1_555 1_555
C1I_2 O1_2 1_555 1_555
C1H_2 O1A_2 1_555 1_555

#END
