
#######################################################################
#
#                 Cambridge Crystallographic Data Centre
#                                CCDC 
#
#######################################################################
#
# If this CIF has been generated from an entry in the Cambridge 
# Structural Database, then it will include bibliographic, chemical, 
# crystal, experimental, refinement or atomic coordinate data resulting 
# from the CCDC's data processing and validation procedures.
#
#######################################################################

data_VALSAE
_symmetry_cell_setting           triclinic
_symmetry_space_group_name_H-M   'P -1'
_symmetry_Int_Tables_number      2
_space_group_name_Hall           '-P 1'
loop_
_symmetry_equiv_pos_site_id
_symmetry_equiv_pos_as_xyz
1 x,y,z
2 -x,-y,-z
_cell_length_a                   4.3431(4)
_cell_length_b                   7.6214(8)
_cell_length_c                   7.9252(8)
_cell_angle_alpha                64.083(7)
_cell_angle_beta                 84.466(8)
_cell_angle_gamma                82.493(8)
_cell_volume                     233.695
loop_
_atom_site_label
_atom_site_type_symbol
_atom_site_fract_x
_atom_site_fract_y
_atom_site_fract_z
Hg1 Hg 1.0000 0.0000 1.0000
I1 I 0.4304(4) -0.1597(2) 0.8427(2)
O1 O 0.967(8) 0.339(3) 0.670(3)
C1 C 1.042(8) 0.493(4) 0.671(4)
H1 H 0.9256 0.5096 0.7746
H2 H 1.2601 0.4699 0.6997
C2 C 1.001(8) 0.319(4) 0.498(4)
H3 H 0.8497 0.2340 0.5010
H4 H 1.2060 0.2549 0.4897
Hg1_2 Hg 0.0000 0.0000 1.0000
Hg1_3 Hg 1.0000 1.0000 0.0000
Hg1_4 Hg 2.0000 0.0000 1.0000
I1_2 I 1.4304(4) -0.1597(2) 0.8427(2)
I1A I 0.5696(4) 0.1597(2) 1.1573(2)
I1A_2 I 1.5696(4) 0.1597(2) 1.1573(2)
O1A O 1.033(8) 0.661(3) 0.330(3)
O1A_2 O 1.033(8) -0.339(3) 1.330(3)
C1A C 0.958(8) 0.507(4) 0.329(4)
H1A H 1.0744 0.4904 0.2254
H2A H 0.7399 0.5301 0.3003
C2A C 0.999(8) 0.681(4) 0.502(4)
H3A H 1.1503 0.7660 0.4990
H4A H 0.7940 0.7451 0.5103
loop_
_geom_bond_atom_site_label_1
_geom_bond_atom_site_label_2
_geom_bond_site_symmetry_1
_geom_bond_site_symmetry_2
Hg1 I1 1_555 1_555
I1 Hg1_2 1_555 1_555
O1 Hg1 1_555 1_555
C1 O1 1_555 1_555
H1 C1 1_555 1_555
H2 C1 1_555 1_555
C2 O1 1_555 1_555
H3 C2 1_555 1_555
H4 C2 1_555 1_555
Hg1_2 I1A 1_555 1_555
Hg1_3 O1A 1_555 1_555
Hg1_4 I1_2 1_555 1_555
I1_2 Hg1 1_555 1_555
I1A Hg1 1_555 1_555
I1A_2 Hg1 1_555 1_555
O1A C1A 1_555 1_555
O1A_2 Hg1 1_555 1_555
C1A C2 1_555 1_555
H1A C1A 1_555 1_555
H2A C1A 1_555 1_555
C2A C1 1_555 1_555
H3A C2A 1_555 1_555
H4A C2A 1_555 1_555
Hg1_4 I1A_2 1_555 1_555
O1A C2A 1_555 1_555

#END
