
#######################################################################
#
#                 Cambridge Crystallographic Data Centre
#                                CCDC 
#
#######################################################################
#
# If this CIF has been generated from an entry in the Cambridge 
# Structural Database, then it will include bibliographic, chemical, 
# crystal, experimental, refinement or atomic coordinate data resulting 
# from the CCDC's data processing and validation procedures.
#
#######################################################################

data_VALXAJ
_symmetry_cell_setting           monoclinic
_symmetry_space_group_name_H-M   'P 21/n'
_symmetry_Int_Tables_number      14
_space_group_name_Hall           '-P 2yn'
loop_
_symmetry_equiv_pos_site_id
_symmetry_equiv_pos_as_xyz
1 x,y,z
2 1/2-x,1/2+y,1/2-z
3 -x,-y,-z
4 1/2+x,1/2-y,1/2+z
_cell_length_a                   10.381(2)
_cell_length_b                   6.8744(14)
_cell_length_c                   18.079(4)
_cell_angle_alpha                90
_cell_angle_beta                 92.47(3)
_cell_angle_gamma                90
_cell_volume                     1288.98
loop_
_atom_site_label
_atom_site_type_symbol
_atom_site_fract_x
_atom_site_fract_y
_atom_site_fract_z
Rb1 Rb 0.28855(4) 0.04232(6) 0.18133(2)
Rb2 Rb 0.14390(4) 0.31174(7) -0.21144(2)
Rb3 Rb -0.39519(4) 0.26622(6) 0.05008(2)
C1 C 0.1351(4) 0.2335(5) -0.0028(2)
C2 C -0.0259(4) 0.2145(5) 0.0764(2)
C3 C -0.0691(4) 0.2955(5) -0.0425(2)
C4 C 0.2793(4) 0.2156(6) -0.0179(2)
C5 C -0.0709(4) 0.1794(6) 0.1545(2)
C6 C -0.1661(4) 0.3510(6) -0.1056(2)
N1 N 0.0548(3) 0.2838(4) -0.05912(17)
N2 N 0.0996(3) 0.1947(4) 0.06575(17)
N3 N -0.1145(3) 0.2642(4) 0.02417(17)
O1 O 0.3167(3) 0.3072(5) -0.07243(18)
O2 O 0.3437(3) 0.1115(4) 0.02535(16)
O3 O 0.0119(3) 0.1342(6) 0.20197(17)
O4 O -0.1855(3) 0.2049(7) 0.16487(19)
O5 O -0.2781(3) 0.3817(5) -0.08694(16)
O6 O -0.1264(3) 0.3555(5) -0.16847(16)
O7 O 0.4434(4) 0.4018(5) 0.17493(17)
H1 H 0.394(4) 0.469(7) 0.150(3)
H2 H 0.457(6) 0.469(7) 0.211(2)
O8 O 0.5550(4) -0.1111(5) 0.17959(19)
H3 H 0.586(6) -0.157(8) 0.143(2)
H4 H 0.542(6) -0.197(6) 0.210(3)
Rb1C Rb -0.21145(4) 0.45768(6) -0.31867(2)
Rb2C Rb -0.35610(4) 0.18826(7) 0.28856(2)
Rb2C_2 Rb 0.64390(4) 0.18826(7) 0.28856(2)
Rb3_2 Rb 0.60481(4) 0.26622(6) 0.05008(2)
O2_2 O -0.6563(3) 0.1115(4) 0.02535(16)
O4C O 0.3145(3) 0.2951(7) -0.33513(19)
O6C O 0.3736(3) 0.1445(5) 0.33153(16)
O8C O 0.0550(4) 0.6111(5) -0.32041(19)
H3C H 0.086(6) 0.657(8) -0.357(2)
H4C H 0.042(6) 0.697(6) -0.290(3)
loop_
_geom_bond_atom_site_label_1
_geom_bond_atom_site_label_2
_geom_bond_site_symmetry_1
_geom_bond_site_symmetry_2
Rb1 O2 1_555 1_555
Rb2 N1 1_555 1_555
Rb3 N3 1_555 1_555
C1 C4 1_555 1_555
C2 C5 1_555 1_555
C3 C6 1_555 1_555
C4 O1 1_555 1_555
C5 O3 1_555 1_555
C6 O5 1_555 1_555
N1 C1 1_555 1_555
N2 C1 1_555 1_555
N3 C2 1_555 1_555
O2 C4 1_555 1_555
O3 Rb1 1_555 1_555
O4 Rb3 1_555 1_555
O5 Rb3 1_555 1_555
O6 Rb2 1_555 1_555
O7 Rb1 1_555 1_555
H1 O7 1_555 1_555
H2 O7 1_555 1_555
O8 Rb1 1_555 1_555
H3 O8 1_555 1_555
H4 O8 1_555 1_555
Rb1C O6 1_555 1_555
Rb2C O4 1_555 1_555
Rb2C_2 O8 1_555 1_555
Rb3_2 O2 1_555 1_555
O2_2 Rb3 1_555 1_555
O4C Rb2 1_555 1_555
O6C Rb1 1_555 1_555
O8C Rb2 1_555 1_555
H3C O8C 1_555 1_555
H4C O8C 1_555 1_555
C2 N2 1_555 1_555
C3 N1 1_555 1_555
C3 N3 1_555 1_555
C5 O4 1_555 1_555
C6 O6 1_555 1_555
Rb1C O8C 1_555 1_555
Rb2C_2 O6C 1_555 1_555

#END
