
#######################################################################
#
#                 Cambridge Crystallographic Data Centre
#                                CCDC 
#
#######################################################################
#
# If this CIF has been generated from an entry in the Cambridge 
# Structural Database, then it will include bibliographic, chemical, 
# crystal, experimental, refinement or atomic coordinate data resulting 
# from the CCDC's data processing and validation procedures.
#
#######################################################################

data_VALXEL
_symmetry_cell_setting           monoclinic
_symmetry_space_group_name_H-M   'C 2/c'
_symmetry_Int_Tables_number      15
_space_group_name_Hall           '-C 2yn'
loop_
_symmetry_equiv_pos_site_id
_symmetry_equiv_pos_as_xyz
1 x,y,z
2 1/2+x,1/2+y,z
3 -x,y,1/2-z
4 1/2-x,1/2+y,1/2-z
5 -x,-y,-z
6 1/2-x,1/2-y,-z
7 x,-y,1/2+z
8 1/2+x,1/2-y,1/2+z
_cell_length_a                   12.271(3)
_cell_length_b                   6.678(3)
_cell_length_c                   19.568(4)
_cell_angle_alpha                90
_cell_angle_beta                 102.51(2)
_cell_angle_gamma                90
_cell_volume                     1565.44
loop_
_atom_site_label
_atom_site_type_symbol
_atom_site_fract_x
_atom_site_fract_y
_atom_site_fract_z
Sr1 Sr 0.17417(2) 0.98688(4) 0.04149(2)
O1 O 0.3520(2) 1.2330(4) 0.0558(2)
O2 O 0.0855(2) 0.7006(4) 0.1058(2)
O3 O 0.3322(2) 0.7445(4) 0.0660(1)
O4 O 0.4956(2) 0.6074(3) 0.0705(1)
O5 O 0.7142(2) 0.5549(3) 0.1754(1)
O6 O 0.6921(2) 0.8495(3) 0.1230(1)
C1 C 0.4308(2) 0.7088(4) 0.0983(2)
C2 C 0.6710(2) 0.7246(5) 0.1675(2)
C3 C 0.4635(3) 0.7890(5) 0.1728(2)
C4 C 0.5892(2) 0.7911(5) 0.2116(2)
C5 C 0.3964(2) 0.6736(5) 0.2194(2)
C6 C 0.4463(3) 0.4674(5) 0.2343(2)
H1 H 0.4388(24) 0.9121(47) 0.1702(18)
H2 H 0.6072(25) 0.9118(50) 0.2207(18)
H3 H 0.3194(24) 0.6606(46) 0.1958(17)
H4 H 0.4042(24) 0.3554(48) 0.2234(17)
H5 H 0.4217(39) 1.2070(73) 0.0739(29)
H6 H 0.3254(40) 1.2621(72) 0.0974(29)
H7 H 0.1270(35) 0.5728(74) 0.1129(27)
H8 H 0.0981(46) 0.7583(86) 0.1378(30)
C5B C 0.6036(2) 0.6736(5) 0.2806(2)
C3B C 0.5365(3) 0.7890(5) 0.3272(2)
C1B C 0.5692(2) 0.7088(4) 0.4017(2)
O3B O 0.6678(2) 0.7445(4) 0.4340(1)
O4B O 0.5044(2) 0.6074(3) 0.4295(1)
C4B C 0.4108(2) 0.7911(5) 0.2884(2)
C2B C 0.3290(2) 0.7246(5) 0.3325(2)
O5B O 0.2858(2) 0.5549(3) 0.3246(1)
O6B O 0.3079(2) 0.8495(3) 0.3770(1)
C6B C 0.5537(3) 0.4674(5) 0.2657(2)
H3B H 0.6806(24) 0.6606(46) 0.3042(17)
H4B H 0.5958(24) 0.3554(48) 0.2766(17)
H2B H 0.3928(25) 0.9118(50) 0.2793(18)
H1B H 0.5612(24) 0.9121(47) 0.3298(18)
O1E O 0.1480(2) 1.2670(4) -0.0558(2)
H5E H 0.0783(39) 1.2930(73) -0.0739(29)
H6E H 0.1746(40) 1.2379(72) -0.0974(29)
Sr1E Sr 0.32583(2) 1.51312(4) -0.04149(2)
O2E O 0.4145(2) 1.7994(4) -0.1058(2)
H7E H 0.3730(35) 1.9272(74) -0.1129(27)
H8E H 0.4019(46) 1.7417(86) -0.1378(30)
O3E O 0.1678(2) 0.7555(4) -0.0660(1)
O4A O -0.0044(2) 1.1074(3) 0.0705(1)
O4E O 0.0044(2) 0.8926(3) -0.0705(1)
O5A O 0.2142(2) 1.0549(3) 0.1754(1)
O6A O 0.1921(2) 1.3495(3) 0.1230(1)
Sr1E_2 Sr 0.32583(2) 0.51312(4) -0.04149(2)
Sr1A Sr 0.67417(2) 0.48688(4) 0.04149(2)
Sr1B Sr 0.82583(2) 0.98688(4) 0.45851(2)
Sr1G Sr 0.67417(2) 0.51312(4) 0.54149(2)
Sr1C Sr 0.32583(2) 0.48688(4) 0.45851(2)
O3_2 O 0.3322(2) 1.7445(4) 0.0660(1)
O3E_2 O 0.1678(2) 1.7555(4) -0.0660(1)
O4_2 O 0.4956(2) 1.6074(3) 0.0705(1)
O4D O 0.5044(2) 1.3926(3) -0.0705(1)
O5D O 0.2858(2) 1.4451(3) -0.1754(1)
O6D O 0.3079(2) 1.1505(3) -0.1230(1)
loop_
_geom_bond_atom_site_label_1
_geom_bond_atom_site_label_2
_geom_bond_site_symmetry_1
_geom_bond_site_symmetry_2
Sr1 O1 1_555 1_555
O1 H5 1_555 1_555
O2 Sr1 1_555 1_555
O3 Sr1 1_555 1_555
O4 C1 1_555 1_555
O5 C2 1_555 1_555
O6 C2 1_555 1_555
C1 O3 1_555 1_555
C2 C4 1_555 1_555
C3 C1 1_555 1_555
C4 C3 1_555 1_555
C5 C3 1_555 1_555
C6 C5 1_555 1_555
H1 C3 1_555 1_555
H2 C4 1_555 1_555
H3 C5 1_555 1_555
H4 C6 1_555 1_555
H6 O1 1_555 1_555
H7 O2 1_555 1_555
H8 O2 1_555 1_555
C5B C4 1_555 1_555
C3B C5B 1_555 1_555
C1B C3B 1_555 1_555
O3B C1B 1_555 1_555
O4B C1B 1_555 1_555
C4B C5 1_555 1_555
C2B C4B 1_555 1_555
O5B C2B 1_555 1_555
O6B C2B 1_555 1_555
C6B C6 1_555 1_555
H3B C5B 1_555 1_555
H4B C6B 1_555 1_555
H2B C4B 1_555 1_555
H1B C3B 1_555 1_555
O1E Sr1 1_555 1_555
H5E O1E 1_555 1_555
H6E O1E 1_555 1_555
Sr1E O1 1_555 1_555
O2E Sr1E 1_555 1_555
H7E O2E 1_555 1_555
H8E O2E 1_555 1_555
O3E Sr1 1_555 1_555
O4A Sr1 1_555 1_555
O4E Sr1 1_555 1_555
O5A Sr1 1_555 1_555
O6A Sr1 1_555 1_555
Sr1E_2 O3 1_555 1_555
Sr1A O4 1_555 1_555
Sr1B O3B 1_555 1_555
Sr1G O3B 1_555 1_555
Sr1C O4B 1_555 1_555
O3_2 Sr1E 1_555 1_555
O3E_2 Sr1E 1_555 1_555
O4_2 Sr1E 1_555 1_555
O4D Sr1E 1_555 1_555
O5D Sr1E 1_555 1_555
O6D Sr1E 1_555 1_555
O4 Sr1E_2 1_555 1_555
O5 Sr1A 1_555 1_555
O6 Sr1A 1_555 1_555
C5B C6B 1_555 1_555
C3B C4B 1_555 1_555
O4B Sr1G 1_555 1_555
O5B Sr1C 1_555 1_555
O6B Sr1C 1_555 1_555
O1E Sr1E 1_555 1_555
O3E Sr1E_2 1_555 1_555

#END
