
#######################################################################
#
#                 Cambridge Crystallographic Data Centre
#                                CCDC 
#
#######################################################################
#
# If this CIF has been generated from an entry in the Cambridge 
# Structural Database, then it will include bibliographic, chemical, 
# crystal, experimental, refinement or atomic coordinate data resulting 
# from the CCDC's data processing and validation procedures.
#
#######################################################################

data_VAMBIV
_symmetry_cell_setting           monoclinic
_symmetry_space_group_name_H-M   'P 21'
_symmetry_Int_Tables_number      4
_space_group_name_Hall           'P 2yb'
loop_
_symmetry_equiv_pos_site_id
_symmetry_equiv_pos_as_xyz
1 x,y,z
2 -x,1/2+y,-z
_cell_length_a                   6.982(4)
_cell_length_b                   6.370(5)
_cell_length_c                   11.195(7)
_cell_angle_alpha                90
_cell_angle_beta                 98.74(5)
_cell_angle_gamma                90
_cell_volume                     492.12
loop_
_atom_site_label
_atom_site_type_symbol
_atom_site_fract_x
_atom_site_fract_y
_atom_site_fract_z
Ba1 Ba 0.96111(4) 0.2506 0.63554(3)
P1 P 0.72355(19) 0.2521(7) 0.29786(12)
O1 O 0.8396(8) 0.1201(10) 0.3988(5)
O2 O 0.5079(8) 0.1654(11) 0.2894(6)
O3 O 0.7311(9) 0.4834(10) 0.3047(6)
O4 O 0.7939(9) -0.0653(10) 0.1599(5)
C1 C 0.7970(10) 0.1589(12) 0.1546(6)
C2 C 0.6557(9) 0.255(3) 0.0473(5)
H1 H 0.5260 0.2088 0.0512
H2 H 0.6932 0.2109 -0.0278
H3 H 0.6610 0.4057 0.0524
P2 P 1.0472(2) 0.2526(8) 0.14286(12)
O5 O 1.0888(9) 0.1931(10) 0.0169(5)
O6 O 1.0634(9) 0.4842(9) 0.1646(5)
O7 O 1.1788(8) 0.1327(10) 0.2446(5)
O8 O 0.5595(8) 0.252(2) 0.6388(6)
O9 O 1.1965(9) 0.3677(11) 0.4582(6)
O1A O 1.1604(8) 0.6201(10) 0.6012(5)
O3A O 1.2689(9) -0.0166(10) 0.6953(6)
O4A O 1.2061(9) 0.4347(10) 0.8401(5)
O6A O 0.9366(9) -0.0158(9) 0.8354(5)
O7A O 0.8212(8) 0.6327(10) 0.7554(5)
O9A O 0.8035(9) -0.1323(11) 0.5418(6)
Ba1A Ba 1.03889(4) -0.2494 0.36446(3)
Ba1A_2 Ba 1.03889(4) 0.7506 0.36446(3)
loop_
_geom_bond_atom_site_label_1
_geom_bond_atom_site_label_2
_geom_bond_site_symmetry_1
_geom_bond_site_symmetry_2
Ba1 O1 1_555 1_555
P1 O1 1_555 1_555
O1 Ba1A 1_555 1_555
O2 P1 1_555 1_555
O3 P1 1_555 1_555
O4 C1 1_555 1_555
C1 P1 1_555 1_555
C2 C1 1_555 1_555
H1 C2 1_555 1_555
H2 C2 1_555 1_555
H3 C2 1_555 1_555
P2 C1 1_555 1_555
O5 P2 1_555 1_555
O6 P2 1_555 1_555
O7 P2 1_555 1_555
O8 Ba1 1_555 1_555
O9 Ba1 1_555 1_555
O1A Ba1 1_555 1_555
O3A Ba1 1_555 1_555
O4A Ba1 1_555 1_555
O6A Ba1 1_555 1_555
O7A Ba1 1_555 1_555
O9A Ba1 1_555 1_555
Ba1A O4 1_555 1_555
Ba1A_2 O3 1_555 1_555
O6 Ba1A_2 1_555 1_555
O7 Ba1A 1_555 1_555
O9 Ba1A_2 1_555 1_555
O1A Ba1A_2 1_555 1_555
O9A Ba1A 1_555 1_555

#END
