
#######################################################################
#
#                 Cambridge Crystallographic Data Centre
#                                CCDC 
#
#######################################################################
#
# If this CIF has been generated from an entry in the Cambridge 
# Structural Database, then it will include bibliographic, chemical, 
# crystal, experimental, refinement or atomic coordinate data resulting 
# from the CCDC's data processing and validation procedures.
#
#######################################################################

data_VAMDOD01
_symmetry_cell_setting           monoclinic
_symmetry_space_group_name_H-M   'P 21/n'
_symmetry_Int_Tables_number      14
_space_group_name_Hall           '-P 2yn'
loop_
_symmetry_equiv_pos_site_id
_symmetry_equiv_pos_as_xyz
1 x,y,z
2 1/2-x,1/2+y,1/2-z
3 -x,-y,-z
4 1/2+x,1/2-y,1/2+z
_cell_length_a                   5.8382(3)
_cell_length_b                   12.5979(6)
_cell_length_c                   10.8127(5)
_cell_angle_alpha                90
_cell_angle_beta                 91.121(4)
_cell_angle_gamma                90
_cell_volume                     795.112
loop_
_atom_site_label
_atom_site_type_symbol
_atom_site_fract_x
_atom_site_fract_y
_atom_site_fract_z
Cu1 Cu 1.0000 0.0000 1.0000
C1 C 0.6411(8) 0.1433(4) 0.9113(5)
H1 H 0.5642 0.1188 0.9802
C2 C 0.5418(8) 0.2216(4) 0.8402(5)
H2 H 0.4006 0.2497 0.8614
C3 C 0.9497(8) 0.1347(4) 0.7840(5)
H3 H 1.0889 0.1040 0.7639
C4 C 0.8610(8) 0.2133(4) 0.7078(5)
H4 H 0.9397 0.2355 0.6385
C5 C 0.6525(8) 0.2585(4) 0.7370(4)
C6 C 0.5557(8) 0.3481(4) 0.6600(4)
N1 N 0.8445(6) 0.1012(3) 0.8849(4)
O1 O 0.3656(6) 0.3871(3) 0.6851(3)
O2 O 0.6760(5) 0.3805(2) 0.5712(3)
Cu1A Cu 0.5000 0.5000 0.5000
Cu1A_2 Cu 0.5000 -0.5000 0.5000
C1A C 0.8589(8) -0.3567(4) 0.5887(5)
H1A H 0.9358 -0.3812 0.5198
C2A C 0.9582(8) -0.2784(4) 0.6598(5)
H2A H 1.0994 -0.2503 0.6386
C3A C 0.5503(8) -0.3653(4) 0.7160(5)
H3A H 0.4111 -0.3960 0.7361
C4A C 0.6390(8) -0.2867(4) 0.7922(5)
H4A H 0.5603 -0.2645 0.8615
C5A C 0.8475(8) -0.2415(4) 0.7630(4)
C6A C 0.9443(8) -0.1519(4) 0.8400(4)
N1A N 0.6555(6) -0.3988(3) 0.6151(4)
N1B N 1.1555(6) -0.1012(3) 1.1151(4)
O1A O 1.1344(6) -0.1129(3) 0.8149(3)
O2A O 0.8240(5) -0.1195(2) 0.9288(3)
O2C O 1.1760(5) 0.1195(2) 1.0712(3)
I1 I 0.39535(8) -0.04101(3) 0.59886(4)
I1B I 0.60465(8) 0.04101(3) 0.40114(4)
loop_
_geom_bond_atom_site_label_1
_geom_bond_atom_site_label_2
_geom_bond_site_symmetry_1
_geom_bond_site_symmetry_2
Cu1 N1 1_555 1_555
C1 H1 1_555 1_555
C2 C1 1_555 1_555
H2 C2 1_555 1_555
C3 H3 1_555 1_555
C4 C3 1_555 1_555
H4 C4 1_555 1_555
C5 C2 1_555 1_555
C6 C5 1_555 1_555
N1 C1 1_555 1_555
O1 C6 1_555 1_555
O2 C6 1_555 1_555
I1 I1B 1_555 1_555
Cu1A O2 1_555 1_555
Cu1A_2 N1A 1_555 1_555
C1A H1A 1_555 1_555
C2A C1A 1_555 1_555
H2A C2A 1_555 1_555
C3A H3A 1_555 1_555
C4A C3A 1_555 1_555
H4A C4A 1_555 1_555
C5A C2A 1_555 1_555
C6A C5A 1_555 1_555
N1A C1A 1_555 1_555
N1B Cu1 1_555 1_555
O1A C6A 1_555 1_555
O2A Cu1 1_555 1_555
O2C Cu1 1_555 1_555
C3 N1 1_555 1_555
C4 C5 1_555 1_555
C3A N1A 1_555 1_555
C4A C5A 1_555 1_555
C6A O2A 1_555 1_555

#END
