
#######################################################################
#
#                 Cambridge Crystallographic Data Centre
#                                CCDC 
#
#######################################################################
#
# If this CIF has been generated from an entry in the Cambridge 
# Structural Database, then it will include bibliographic, chemical, 
# crystal, experimental, refinement or atomic coordinate data resulting 
# from the CCDC's data processing and validation procedures.
#
#######################################################################

data_VAMGEX
_symmetry_cell_setting           triclinic
_symmetry_space_group_name_H-M   'P -1'
_symmetry_Int_Tables_number      2
_space_group_name_Hall           '-P 1'
loop_
_symmetry_equiv_pos_site_id
_symmetry_equiv_pos_as_xyz
1 x,y,z
2 -x,-y,-z
_cell_length_a                   7.752(2)
_cell_length_b                   8.850(3)
_cell_length_c                   10.862(3)
_cell_angle_alpha                69.714(4)
_cell_angle_beta                 88.299(4)
_cell_angle_gamma                78.845(4)
_cell_volume                     685.197
loop_
_atom_site_label
_atom_site_type_symbol
_atom_site_fract_x
_atom_site_fract_y
_atom_site_fract_z
C1 C 0.0184(10) 0.1109(10) 0.2500(7)
C2 C -0.0843(10) 0.2484(10) 0.1352(7)
C3 C -0.1459(10) 0.4027(10) 0.1423(7)
H1 H -0.1224 0.4283 0.2154
C4 C -0.2455(10) 0.5173(9) 0.0332(7)
C5 C -0.2762(11) 0.4801(10) -0.0778(7)
C6 C -0.2102(13) 0.3274(11) -0.0857(8)
H2 H -0.2276 0.3037 -0.1609
C7 C -0.1177(13) 0.2123(11) 0.0231(8)
H3 H -0.0757 0.1068 0.0226
C8 C -0.4097(12) 0.7368(11) -0.1107(8)
H4 H -0.4775 0.8415 -0.1493
C9 C 0.5342(11) 0.0001(9) 0.4320(7)
C10 C 0.5335(10) -0.5011(10) 0.5681(7)
C11 C 0.0595(10) -0.5528(10) 0.5610(7)
La1 La 0.19154(5) -0.18848(5) 0.47171(4)
N1 N -0.37837(5) 0.62268(5) -0.16538(4)
H5 H -0.4166 0.6392 -0.2491
N2 N -0.32926(5) 0.67909(5) 0.00875(4)
H6 H -0.3116 0.7527 0.0471
O1 O 0.0994(8) -0.0140(7) 0.2326(5)
O2 O 0.0189(7) 0.1290(6) 0.3630(5)
O3 O 0.4430(7) -0.0523(7) 0.3671(5)
O4 O 0.6714(7) 0.0553(7) 0.3945(5)
O5 O 0.4751(7) -0.3737(7) 0.5957(5)
O6 O 0.6406(8) -0.6231(7) 0.6352(5)
O7 O 0.1561(7) -0.4828(7) 0.6028(5)
O8 O 0.0498(6) -0.7032(5) 0.6099(4)
C1A C -0.0184(10) -0.1109(10) 0.7500(7)
C2A C 0.0843(10) -0.2484(10) 0.8648(7)
C3A C 0.1459(10) -0.4027(10) 0.8577(7)
H1A H 0.1224 -0.4283 0.7846
C4A C 0.2455(10) -0.5173(9) 0.9668(7)
C5A C 0.2762(11) -0.4801(10) 1.0778(7)
C6A C 0.2102(13) -0.3274(11) 1.0857(8)
H2A H 0.2276 -0.3037 1.1609
C7A C 0.1177(13) -0.2123(11) 0.9769(8)
H3A H 0.0757 -0.1068 0.9774
C8A C 0.4097(12) -0.7368(11) 1.1107(8)
H4A H 0.4775 -0.8415 1.1493
C9A C 0.4658(11) -0.0001(9) 0.5680(7)
C10A C 0.4665(10) -0.4989(10) 0.4319(7)
C11A C -0.0595(10) -0.4472(10) 0.4390(7)
La1A La -0.19154(5) 0.18848(5) 0.52829(4)
La1A_2 La 0.80846(5) 0.18848(5) 0.52829(4)
La1A_3 La 0.80846(5) -0.81152(5) 0.52829(4)
La1A_4 La -0.19154(5) -0.81152(5) 0.52829(4)
N1A N 0.37837(5) -0.62268(5) 1.16538(4)
H5A H 0.4166 -0.6392 1.2491
N2A N 0.32926(5) -0.67909(5) 0.99125(4)
H6A H 0.3116 -0.7527 0.9529
O1A O -0.0994(8) 0.0140(7) 0.7674(5)
O2A O -0.0189(7) -0.1290(6) 0.6370(5)
O3A O 0.5570(7) 0.0523(7) 0.6329(5)
O3A_2 O -0.4430(7) 0.0523(7) 0.6329(5)
O4A O 0.3286(7) -0.0553(7) 0.6055(5)
O4_2 O -0.3286(7) 0.0553(7) 0.3945(5)
O5A O 0.5249(7) -0.6263(7) 0.4043(5)
O5A_2 O -0.4751(7) 0.3737(7) 0.4043(5)
O6A O 0.3594(8) -0.3769(7) 0.3648(5)
O6_2 O -0.3594(8) 0.3769(7) 0.6352(5)
O7A O -0.1561(7) -0.5172(7) 0.3972(5)
O7A_2 O -0.1561(7) 0.4828(7) 0.3972(5)
O8A O -0.0498(6) -0.2968(5) 0.3901(4)
O8_2 O 0.0498(6) 0.2968(5) 0.6099(4)
O9 O 0.3236(6) 0.1526(5) 0.8225(4)
H7 H 0.4012 0.1666 0.7647
H8 H 0.2266 0.2037 0.7805
loop_
_geom_bond_atom_site_label_1
_geom_bond_atom_site_label_2
_geom_bond_site_symmetry_1
_geom_bond_site_symmetry_2
C1 C2 1_555 1_555
C2 C3 1_555 1_555
C3 H1 1_555 1_555
C4 C3 1_555 1_555
C5 C4 1_555 1_555
C6 C5 1_555 1_555
H2 C6 1_555 1_555
C7 C2 1_555 1_555
H3 C7 1_555 1_555
C8 H4 1_555 1_555
C9 O3 1_555 1_555
C10 O5 1_555 1_555
C11 O7 1_555 1_555
La1 O1 1_555 1_555
N1 C5 1_555 1_555
H5 N1 1_555 1_555
N2 C4 1_555 1_555
H6 N2 1_555 1_555
O1 C1 1_555 1_555
O2 C1 1_555 1_555
O3 La1 1_555 1_555
O4 C9 1_555 1_555
O5 La1 1_555 1_555
O6 C10 1_555 1_555
O7 La1 1_555 1_555
O8 C11 1_555 1_555
O9 H7 1_555 1_555
H8 O9 1_555 1_555
C1A C2A 1_555 1_555
C2A C3A 1_555 1_555
C3A H1A 1_555 1_555
C4A C3A 1_555 1_555
C5A C4A 1_555 1_555
C6A C5A 1_555 1_555
H2A C6A 1_555 1_555
C7A C2A 1_555 1_555
H3A C7A 1_555 1_555
C8A H4A 1_555 1_555
C9A C9 1_555 1_555
C10A C10 1_555 1_555
C11A C11 1_555 1_555
La1A O2 1_555 1_555
La1A_2 O4 1_555 1_555
La1A_3 O6 1_555 1_555
La1A_4 O8 1_555 1_555
N1A C5A 1_555 1_555
H5A N1A 1_555 1_555
N2A C4A 1_555 1_555
H6A N2A 1_555 1_555
O1A C1A 1_555 1_555
O2A La1 1_555 1_555
O3A C9A 1_555 1_555
O3A_2 La1A 1_555 1_555
O4A La1 1_555 1_555
O4_2 La1A 1_555 1_555
O5A C10A 1_555 1_555
O5A_2 La1A 1_555 1_555
O6A La1 1_555 1_555
O6_2 La1A 1_555 1_555
O7A C11A 1_555 1_555
O7A_2 La1A 1_555 1_555
O8A La1 1_555 1_555
O8_2 La1A 1_555 1_555
C6 C7 1_555 1_555
C8 N1 1_555 1_555
C8 N2 1_555 1_555
La1 O2 1_555 1_555
C1A O2A 1_555 1_555
C6A C7A 1_555 1_555
C8A N1A 1_555 1_555
C8A N2A 1_555 1_555
C9A O4A 1_555 1_555
C10A O6A 1_555 1_555
C11A O8A 1_555 1_555
La1A O1A 1_555 1_555
La1A O2A 1_555 1_555
La1A_2 O3A 1_555 1_555
La1A_3 O5A 1_555 1_555
La1A_4 O7A 1_555 1_555

#END
