
#######################################################################
#
#                 Cambridge Crystallographic Data Centre
#                                CCDC 
#
#######################################################################
#
# If this CIF has been generated from an entry in the Cambridge 
# Structural Database, then it will include bibliographic, chemical, 
# crystal, experimental, refinement or atomic coordinate data resulting 
# from the CCDC's data processing and validation procedures.
#
#######################################################################

data_VAMGUM
_symmetry_cell_setting           monoclinic
_symmetry_space_group_name_H-M   'C 2/c'
_symmetry_Int_Tables_number      15
_space_group_name_Hall           '-C 2yn'
loop_
_symmetry_equiv_pos_site_id
_symmetry_equiv_pos_as_xyz
1 x,y,z
2 x,-y,1/2+z
3 1/2+x,1/2+y,z
4 1/2+x,1/2-y,1/2+z
5 -x,-y,-z
6 -x,y,1/2-z
7 1/2-x,1/2-y,-z
8 1/2-x,1/2+y,1/2-z
_cell_length_a                   12.286(2)
_cell_length_b                   20.555(8)
_cell_length_c                   10.652(2)
_cell_angle_alpha                90
_cell_angle_beta                 97.366(9)
_cell_angle_gamma                90
_cell_volume                     2667.84
loop_
_atom_site_label
_atom_site_type_symbol
_atom_site_fract_x
_atom_site_fract_y
_atom_site_fract_z
Br1 Br -0.49525(7) -0.12279(4) 0.91814(7)
Cu1 Cu -0.5000 -0.19613(5) 0.7500
P1 P -0.6203(1) -0.30635(8) 0.9199(2)
O1 O -0.5937(4) -0.2620(2) 0.8164(4)
C1 C -0.4144(6) -0.2935(4) 1.0517(8)
C2 C -0.3182(6) -0.3169(5) 1.1237(9)
C3 C -0.3100(7) -0.3802(5) 1.1620(8)
C4 C -0.3944(7) -0.4238(5) 1.1273(10)
C5 C -0.4901(6) -0.4023(4) 1.0524(9)
C6 C -0.4992(5) -0.3383(4) 1.0151(6)
C7 C -0.7716(6) -0.4092(4) 0.9183(7)
C8 C -0.8372(6) -0.4575(4) 0.8585(9)
C9 C -0.8352(6) -0.4702(4) 0.7335(8)
C10 C -0.7678(8) -0.4347(5) 0.6660(7)
C11 C -0.7003(7) -0.3873(4) 0.7237(8)
C12 C -0.7027(5) -0.3730(3) 0.8516(6)
C13 C -0.6958(5) -0.2652(3) 1.0317(6)
H1 H -0.4227 -0.2467 1.0296
H2 H -0.2531 -0.2913 1.1470
H3 H -0.2485 -0.3964 1.2189
H4 H -0.3888 -0.4727 1.1565
H5 H -0.5521 -0.4313 1.0292
H6 H -0.7747 -0.4012 1.0089
H7 H -0.8856 -0.4807 0.9095
H8 H -0.8821 -0.5056 0.6939
H9 H -0.7666 -0.4483 0.5794
H10 H -0.6485 -0.3674 0.6728
H11 H -0.7111 -0.2928 1.0992
H12 H -0.6528 -0.2283 1.0718
C13F C -0.8042(5) -0.2348(3) 0.9683(6)
P1F P -0.8797(1) -0.19365(8) 1.0801(2)
O1F O -0.9063(4) -0.2380(2) 1.1836(4)
C6F C -1.0008(5) -0.1617(4) 0.9849(6)
C1F C -1.0856(6) -0.2065(4) 0.9483(8)
C2F C -1.1818(6) -0.1831(5) 0.8763(9)
C3F C -1.1900(7) -0.1198(5) 0.8380(8)
C4F C -1.1056(7) -0.0762(5) 0.8727(10)
C5F C -1.0099(6) -0.0977(4) 0.9476(9)
H5F H -0.9479 -0.0687 0.9708
H4F H -1.1112 -0.0273 0.8435
H3F H -1.2515 -0.1036 0.7811
H2F H -1.2469 -0.2087 0.8530
H1F H -1.0773 -0.2533 0.9704
C12F C -0.7973(5) -0.1270(3) 1.1484(6)
C7F C -0.7284(6) -0.0908(4) 1.0817(7)
C8F C -0.6628(6) -0.0425(4) 1.1415(9)
C9F C -0.6648(6) -0.0298(4) 1.2665(8)
C10F C -0.7322(8) -0.0653(5) 1.3340(7)
C11F C -0.7997(7) -0.1127(4) 1.2763(8)
H10F H -0.8515 -0.1326 1.3272
H9F H -0.7334 -0.0517 1.4206
H8F H -0.6179 0.0056 1.3061
H7F H -0.6144 -0.0193 1.0905
H6F H -0.7253 -0.0988 0.9911
H11F H -0.7889 -0.2072 0.9008
H12F H -0.8472 -0.2717 0.9282
Br1E Br -0.50475(7) -0.12279(4) 0.58186(7)
O1E O -0.4063(4) -0.2620(2) 0.6836(4)
Cu1C Cu -1.0000 -0.30387(5) 1.2500
loop_
_geom_bond_atom_site_label_1
_geom_bond_atom_site_label_2
_geom_bond_site_symmetry_1
_geom_bond_site_symmetry_2
Br1 Cu1 1_555 1_555
Cu1 O1 1_555 1_555
P1 O1 1_555 1_555
C1 C2 1_555 1_555
C2 C3 1_555 1_555
C3 C4 1_555 1_555
C4 C5 1_555 1_555
C5 C6 1_555 1_555
C6 P1 1_555 1_555
C7 C8 1_555 1_555
C8 C9 1_555 1_555
C9 C10 1_555 1_555
C10 C11 1_555 1_555
C11 C12 1_555 1_555
C12 P1 1_555 1_555
C13 P1 1_555 1_555
H1 C1 1_555 1_555
H2 C2 1_555 1_555
H3 C3 1_555 1_555
H4 C4 1_555 1_555
H5 C5 1_555 1_555
H6 C7 1_555 1_555
H7 C8 1_555 1_555
H8 C9 1_555 1_555
H9 C10 1_555 1_555
H10 C11 1_555 1_555
H11 C13 1_555 1_555
H12 C13 1_555 1_555
C13F C13 1_555 1_555
P1F C13F 1_555 1_555
O1F P1F 1_555 1_555
C6F P1F 1_555 1_555
C1F C6F 1_555 1_555
C2F C1F 1_555 1_555
C3F C2F 1_555 1_555
C4F C3F 1_555 1_555
C5F C6F 1_555 1_555
H5F C5F 1_555 1_555
H4F C4F 1_555 1_555
H3F C3F 1_555 1_555
H2F C2F 1_555 1_555
H1F C1F 1_555 1_555
C12F P1F 1_555 1_555
C7F C12F 1_555 1_555
C8F C7F 1_555 1_555
C9F C8F 1_555 1_555
C10F C9F 1_555 1_555
C11F C12F 1_555 1_555
H10F C11F 1_555 1_555
H9F C10F 1_555 1_555
H8F C9F 1_555 1_555
H7F C8F 1_555 1_555
H6F C7F 1_555 1_555
H11F C13F 1_555 1_555
H12F C13F 1_555 1_555
Br1E Cu1 1_555 1_555
O1E Cu1 1_555 1_555
Cu1C O1F 1_555 1_555
C1 C6 1_555 1_555
C7 C12 1_555 1_555
C4F C5F 1_555 1_555
C10F C11F 1_555 1_555

#END
