
#######################################################################
#
#                 Cambridge Crystallographic Data Centre
#                                CCDC 
#
#######################################################################
#
# If this CIF has been generated from an entry in the Cambridge 
# Structural Database, then it will include bibliographic, chemical, 
# crystal, experimental, refinement or atomic coordinate data resulting 
# from the CCDC's data processing and validation procedures.
#
#######################################################################

data_VAMGIB
_symmetry_cell_setting           triclinic
_symmetry_space_group_name_H-M   'P -1'
_symmetry_Int_Tables_number      2
_space_group_name_Hall           '-P 1'
loop_
_symmetry_equiv_pos_site_id
_symmetry_equiv_pos_as_xyz
1 x,y,z
2 -x,-y,-z
_cell_length_a                   7.5297(5)
_cell_length_b                   8.5817(5)
_cell_length_c                   10.9692(7)
_cell_angle_alpha                70.7600(10)
_cell_angle_beta                 90.4610(10)
_cell_angle_gamma                79.1910(10)
_cell_volume                     655.474
loop_
_atom_site_label
_atom_site_type_symbol
_atom_site_fract_x
_atom_site_fract_y
_atom_site_fract_z
C1 C 1.0140(4) 0.1061(4) 0.2609(3)
C2 C 0.9136(4) 0.2439(4) 0.1448(3)
C3 C 0.8495(4) 0.4045(4) 0.1467(3)
H1 H 0.8689 0.4338 0.2194
C4 C 0.7543(4) 0.5203(4) 0.0342(3)
C5 C 0.7266(4) 0.4786(4) -0.0755(3)
C6 C 0.7923(5) 0.3181(5) -0.0790(3)
H2 H 0.7747 0.2896 -0.1523
C7 C 0.8856(5) 0.2034(4) 0.0331(3)
H3 H 0.9321 0.0943 0.0347
C8 C 0.5912(5) 0.7430(4) -0.1137(3)
H4 H 0.5244 0.8513 -0.1549
C9 C 1.5315(4) -0.0014(3) 0.4330(3)
C10 C 1.5397(4) -0.4994(4) 0.5655(3)
C11 C 1.0642(4) -0.5554(4) 0.5593(3)
Eu1 Eu 1.191731(19) -0.190554(17) 0.475486(14)
N1 N 0.623237(19) 0.622347(17) -0.166152(14)
H5 H 0.5855 0.6258 -0.2375
N2 N 0.667771(19) 0.687272(17) 0.005067(14)
H6 H 0.6656 0.7381 0.0565
O1 O 1.0945(3) -0.0274(3) 0.2490(2)
O2 O 1.0155(3) 0.1273(3) 0.3721(2)
O3 O 1.4355(3) -0.0595(3) 0.3716(2)
O4 O 1.6694(3) 0.0557(3) 0.3963(2)
O5 O 1.4786(3) -0.3702(3) 0.5954(2)
O6 O 1.6563(3) -0.6220(3) 0.6302(2)
O7 O 1.1647(3) -0.4822(3) 0.6027(2)
O8 O 1.0589(2) -0.7089(2) 0.60305(17)
C1A C 0.9860(4) -0.1061(4) 0.7391(3)
C2A C 1.0864(4) -0.2439(4) 0.8552(3)
C3A C 1.1505(4) -0.4045(4) 0.8533(3)
H1A H 1.1311 -0.4338 0.7806
C4A C 1.2457(4) -0.5203(4) 0.9658(3)
C5A C 1.2734(4) -0.4786(4) 1.0755(3)
C6A C 1.2077(5) -0.3181(5) 1.0790(3)
H2A H 1.2253 -0.2896 1.1523
C7A C 1.1144(5) -0.2034(4) 0.9669(3)
H3A H 1.0679 -0.0943 0.9653
C8A C 1.4088(5) -0.7430(4) 1.1137(3)
H4A H 1.4756 -0.8513 1.1549
C9A C 1.4685(4) 0.0014(3) 0.5670(3)
C10A C 1.4603(4) -0.5006(4) 0.4345(3)
C11A C 0.9358(4) -0.4446(4) 0.4407(3)
Eu1A Eu 0.808269(19) 0.190554(17) 0.524514(14)
Eu1A_2 Eu 1.808269(19) 0.190554(17) 0.524514(14)
Eu1A_3 Eu 1.808269(19) -0.809446(17) 0.524514(14)
Eu1A_4 Eu 0.808269(19) -0.809446(17) 0.524514(14)
N1A N 1.376763(19) -0.622347(17) 1.166152(14)
H5A H 1.4145 -0.6258 1.2375
N2A N 1.332229(19) -0.687272(17) 0.994933(14)
H6A H 1.3344 -0.7381 0.9435
O1A O 0.9055(3) 0.0274(3) 0.7510(2)
O2A O 0.9845(3) -0.1273(3) 0.6279(2)
O3A O 1.5645(3) 0.0595(3) 0.6284(2)
O3A_2 O 0.5645(3) 0.0595(3) 0.6284(2)
O4A O 1.3306(3) -0.0557(3) 0.6037(2)
O4_2 O 0.6694(3) 0.0557(3) 0.3963(2)
O5A O 1.5214(3) -0.6298(3) 0.4046(2)
O5A_2 O 0.5214(3) 0.3702(3) 0.4046(2)
O6A O 1.3437(3) -0.3780(3) 0.3698(2)
O6_2 O 0.6563(3) 0.3780(3) 0.6302(2)
O7A O 0.8353(3) -0.5178(3) 0.3973(2)
O7A_2 O 0.8353(3) 0.4822(3) 0.3973(2)
O8A O 0.9411(2) -0.2911(2) 0.39695(17)
O8_2 O 1.0589(2) 0.2911(2) 0.60305(17)
O9 O 0.3379(2) 0.1480(2) 0.81874(17)
H7 H 0.4163 0.1571 0.7629
H8 H 0.2361 0.1776 0.7756
loop_
_geom_bond_atom_site_label_1
_geom_bond_atom_site_label_2
_geom_bond_site_symmetry_1
_geom_bond_site_symmetry_2
C1 C2 1_555 1_555
C2 C3 1_555 1_555
C3 H1 1_555 1_555
C4 C3 1_555 1_555
C5 C4 1_555 1_555
C6 C5 1_555 1_555
H2 C6 1_555 1_555
C7 C2 1_555 1_555
H3 C7 1_555 1_555
C8 H4 1_555 1_555
C9 O3 1_555 1_555
C10 O5 1_555 1_555
C11 O7 1_555 1_555
Eu1 O1 1_555 1_555
N1 C5 1_555 1_555
H5 N1 1_555 1_555
N2 C4 1_555 1_555
H6 N2 1_555 1_555
O1 C1 1_555 1_555
O2 C1 1_555 1_555
O3 Eu1 1_555 1_555
O4 C9 1_555 1_555
O5 Eu1 1_555 1_555
O6 C10 1_555 1_555
O7 Eu1 1_555 1_555
O8 C11 1_555 1_555
O9 H7 1_555 1_555
H8 O9 1_555 1_555
C1A C2A 1_555 1_555
C2A C3A 1_555 1_555
C3A H1A 1_555 1_555
C4A C3A 1_555 1_555
C5A C4A 1_555 1_555
C6A C5A 1_555 1_555
H2A C6A 1_555 1_555
C7A C2A 1_555 1_555
H3A C7A 1_555 1_555
C8A H4A 1_555 1_555
C9A C9 1_555 1_555
C10A C10 1_555 1_555
C11A C11 1_555 1_555
Eu1A O2 1_555 1_555
Eu1A_2 O4 1_555 1_555
Eu1A_3 O6 1_555 1_555
Eu1A_4 O8 1_555 1_555
N1A C5A 1_555 1_555
H5A N1A 1_555 1_555
N2A C4A 1_555 1_555
H6A N2A 1_555 1_555
O1A C1A 1_555 1_555
O2A Eu1 1_555 1_555
O3A C9A 1_555 1_555
O3A_2 Eu1A 1_555 1_555
O4A Eu1 1_555 1_555
O4_2 Eu1A 1_555 1_555
O5A C10A 1_555 1_555
O5A_2 Eu1A 1_555 1_555
O6A Eu1 1_555 1_555
O6_2 Eu1A 1_555 1_555
O7A C11A 1_555 1_555
O7A_2 Eu1A 1_555 1_555
O8A Eu1 1_555 1_555
O8_2 Eu1A 1_555 1_555
C6 C7 1_555 1_555
C8 N1 1_555 1_555
C8 N2 1_555 1_555
Eu1 O2 1_555 1_555
C1A O2A 1_555 1_555
C6A C7A 1_555 1_555
C8A N1A 1_555 1_555
C8A N2A 1_555 1_555
C9A O4A 1_555 1_555
C10A O6A 1_555 1_555
C11A O8A 1_555 1_555
Eu1A O1A 1_555 1_555
Eu1A O2A 1_555 1_555
Eu1A_2 O3A 1_555 1_555
Eu1A_3 O5A 1_555 1_555
Eu1A_4 O7A 1_555 1_555

#END
