
#######################################################################
#
#                 Cambridge Crystallographic Data Centre
#                                CCDC 
#
#######################################################################
#
# If this CIF has been generated from an entry in the Cambridge 
# Structural Database, then it will include bibliographic, chemical, 
# crystal, experimental, refinement or atomic coordinate data resulting 
# from the CCDC's data processing and validation procedures.
#
#######################################################################

data_VAMHUO
_symmetry_cell_setting           monoclinic
_symmetry_space_group_name_H-M   'P 21/c'
_symmetry_Int_Tables_number      14
_space_group_name_Hall           '-P 2ybc'
loop_
_symmetry_equiv_pos_site_id
_symmetry_equiv_pos_as_xyz
1 x,y,z
2 -x,1/2+y,1/2-z
3 -x,-y,-z
4 x,1/2-y,1/2+z
_cell_length_a                   7.0348(15)
_cell_length_b                   20.642(3)
_cell_length_c                   27.400(3)
_cell_angle_alpha                90
_cell_angle_beta                 95.327(2)
_cell_angle_gamma                90
_cell_volume                     3961.63
loop_
_atom_site_label
_atom_site_type_symbol
_atom_site_fract_x
_atom_site_fract_y
_atom_site_fract_z
Cu1 Cu 0.2418(2) 0.61972(6) 0.38550(5)
Cu2 Cu 0.2294(2) 0.39077(6) 0.34362(5)
Cu3 Cu 0.2465(2) 0.82581(6) 0.47015(5)
Cl1 Cl 0.7371(5) 0.64852(16) 0.39280(13)
Cl2 Cl 0.7265(5) 0.3888(3) 0.31906(14)
Cl3 Cl 0.7433(5) 0.87751(17) 0.48042(13)
N1 N 0.2528(12) 0.5860(4) 0.4506(3)
N2 N 0.2402(14) 0.5228(4) 0.3719(3)
N3 N 0.2351(14) 0.4830(4) 0.3318(3)
N4 N 0.2183(13) 0.3889(4) 0.2704(4)
N5 N 0.2525(12) 0.7022(4) 0.4258(3)
N6 N 0.2553(13) 0.7682(4) 0.4151(3)
N7 N 0.2426(15) 0.8925(4) 0.4163(4)
O1 O 0.2489(11) 0.4236(3) 0.4122(3)
O2 O 0.2539(12) 0.7411(4) 0.5046(3)
O3 O 0.5652(18) 0.6156(6) 0.3775(5)
O4 O 0.8834(17) 0.6098(6) 0.3809(5)
O5 O 0.737(2) 0.7098(7) 0.3759(5)
O6 O 0.743(2) 0.6555(7) 0.4449(5)
O7 O 0.5688(16) 0.3868(6) 0.3482(4)
O8 O 0.8935(17) 0.3932(7) 0.3501(4)
O9 O 0.729(2) 0.3337(8) 0.2914(5)
O10 O 0.701(2) 0.4379(8) 0.2840(5)
O11 O 0.5870(13) 0.8339(5) 0.4838(4)
O12 O 0.8805(16) 0.8411(6) 0.4591(5)
O13 O 0.8281(16) 0.8945(6) 0.5295(4)
O14 O 0.674(2) 0.9320(7) 0.4550(5)
O15 O 0.1936(13) 0.6546(4) 0.3205(3)
H1 H 0.0978 0.6734 0.3055
H2 H 0.2884 0.6633 0.3046
O16 O 0.2351(14) 0.2990(4) 0.3588(3)
H3 H 0.1768 0.2717 0.3416
O17 O 0.2194(12) 0.8804(4) 0.5261(3)
H4 H 0.1061 0.8868 0.5292
C1 C 0.2509(15) 0.4847(5) 0.4117(4)
C2 C 0.2505(14) 0.5214(5) 0.4571(4)
C3 C 0.2519(19) 0.4963(6) 0.5055(5)
H5 H 0.2510 0.4518 0.5108
C4 C 0.2545(17) 0.5375(6) 0.5435(4)
H6 H 0.2498 0.5209 0.5749
C5 C 0.2639(16) 0.6037(5) 0.5375(4)
H7 H 0.2755 0.6315 0.5643
C6 C 0.2553(17) 0.6275(5) 0.4890(4)
C7 C 0.2553(15) 0.6955(5) 0.4740(4)
C8 C 0.2261(17) 0.5022(6) 0.2870(5)
H8 H 0.2245 0.5456 0.2779
C9 C 0.2187(18) 0.4485(6) 0.2516(4)
C10 C 0.233(2) 0.4612(6) 0.2018(4)
H9 H 0.2454 0.5031 0.1900
C11 C 0.229(2) 0.4049(8) 0.1698(5)
H10 H 0.2321 0.4098 0.1362
C12 C 0.219(2) 0.3455(8) 0.1897(6)
H11 H 0.2156 0.3092 0.1695
C13 C 0.2141(18) 0.3379(7) 0.2395(5)
H12 H 0.2076 0.2962 0.2522
C14 C 0.267(2) 0.7937(6) 0.3741(4)
H13 H 0.2771 0.7691 0.3460
C15 C 0.2653(18) 0.8652(5) 0.3729(4)
C16 C 0.2747(18) 0.9016(6) 0.3301(5)
H14 H 0.2851 0.8814 0.3001
C17 C 0.268(2) 0.9670(6) 0.3335(6)
H15 H 0.2748 0.9925 0.3057
C18 C 0.252(2) 0.9950(7) 0.3777(6)
H16 H 0.2525 1.0398 0.3806
C19 C 0.2354(18) 0.9565(5) 0.4189(5)
H17 H 0.2187 0.9761 0.4487
C20 C 0.290(3) 0.2707(8) 0.4057(6)
H18 H 0.3186 0.2252 0.4013
H19 H 0.4053 0.2916 0.4201
C21 C 0.146(3) 0.2762(9) 0.4386(8)
H20 H 0.0966 0.3196 0.4375
H21 H 0.1997 0.2666 0.4713
H22 H 0.0447 0.2463 0.4292
C22 C 0.323(3) 0.8721(11) 0.5723(5)
H23 H 0.4575 0.8791 0.5686
H24 H 0.3087 0.8276 0.5826
C23 C 0.267(5) 0.9147(14) 0.6109(9)
H25 H 0.3340 0.9552 0.6097
H26 H 0.2982 0.8947 0.6422
H27 H 0.1320 0.9225 0.6062
Cu1_2 Cu 1.2418(2) 0.61972(6) 0.38550(5)
Cu2_2 Cu 1.2294(2) 0.39077(6) 0.34362(5)
Cu3_2 Cu 1.2465(2) 0.82581(6) 0.47015(5)
O4_2 O -0.1166(17) 0.6098(6) 0.3809(5)
O8_2 O -0.1065(17) 0.3932(7) 0.3501(4)
O12_2 O -0.1195(16) 0.8411(6) 0.4591(5)
Cl4 Cl 0.1134(10) 0.1509(2) 0.29148(18)
O18 O 0.014(3) 0.2060(7) 0.3099(6)
O19 O 0.295(3) 0.1425(8) 0.3168(6)
O20 O 0.008(3) 0.0948(6) 0.2888(6)
O21 O 0.148(3) 0.1762(7) 0.2437(6)
O22 O 0.410(2) 0.7088(7) 0.2639(6)
H28 H 0.5235 0.7012 0.2572
H29 H 0.3667 0.7387 0.2446
loop_
_geom_bond_atom_site_label_1
_geom_bond_atom_site_label_2
_geom_bond_site_symmetry_1
_geom_bond_site_symmetry_2
Cu1 N1 1_555 1_555
Cu2 N3 1_555 1_555
Cu3 N6 1_555 1_555
Cl1 O3 1_555 1_555
Cl2 O7 1_555 1_555
Cl3 O11 1_555 1_555
N1 C2 1_555 1_555
N2 Cu1 1_555 1_555
N3 N2 1_555 1_555
N4 Cu2 1_555 1_555
N5 Cu1 1_555 1_555
N6 N5 1_555 1_555
N7 Cu3 1_555 1_555
O1 Cu2 1_555 1_555
O2 Cu3 1_555 1_555
O3 Cu1 1_555 1_555
O4 Cl1 1_555 1_555
O5 Cl1 1_555 1_555
O6 Cl1 1_555 1_555
O7 Cu2 1_555 1_555
O8 Cl2 1_555 1_555
O9 Cl2 1_555 1_555
O10 Cl2 1_555 1_555
O11 Cu3 1_555 1_555
O12 Cl3 1_555 1_555
O13 Cl3 1_555 1_555
O14 Cl3 1_555 1_555
O15 Cu1 1_555 1_555
H1 O15 1_555 1_555
H2 O15 1_555 1_555
O16 Cu2 1_555 1_555
H3 O16 1_555 1_555
O17 Cu3 1_555 1_555
H4 O17 1_555 1_555
C1 N2 1_555 1_555
C2 C1 1_555 1_555
C3 C2 1_555 1_555
H5 C3 1_555 1_555
C4 C3 1_555 1_555
H6 C4 1_555 1_555
C5 C4 1_555 1_555
H7 C5 1_555 1_555
C6 N1 1_555 1_555
C7 N5 1_555 1_555
C8 N3 1_555 1_555
H8 C8 1_555 1_555
C9 N4 1_555 1_555
C10 C9 1_555 1_555
H9 C10 1_555 1_555
C11 C10 1_555 1_555
H10 C11 1_555 1_555
C12 C11 1_555 1_555
H11 C12 1_555 1_555
C13 N4 1_555 1_555
H12 C13 1_555 1_555
C14 N6 1_555 1_555
H13 C14 1_555 1_555
C15 N7 1_555 1_555
C16 C15 1_555 1_555
H14 C16 1_555 1_555
C17 C16 1_555 1_555
H15 C17 1_555 1_555
C18 C17 1_555 1_555
H16 C18 1_555 1_555
C19 N7 1_555 1_555
H17 C19 1_555 1_555
C20 O16 1_555 1_555
H18 C20 1_555 1_555
H19 C20 1_555 1_555
C21 C20 1_555 1_555
H20 C21 1_555 1_555
H21 C21 1_555 1_555
H22 C21 1_555 1_555
C22 O17 1_555 1_555
H23 C22 1_555 1_555
H24 C22 1_555 1_555
C23 C22 1_555 1_555
H25 C23 1_555 1_555
H26 C23 1_555 1_555
H27 C23 1_555 1_555
Cl4 O18 1_555 1_555
O19 Cl4 1_555 1_555
O20 Cl4 1_555 1_555
O21 Cl4 1_555 1_555
O22 H28 1_555 1_555
H29 O22 1_555 1_555
Cu1_2 O4 1_555 1_555
Cu2_2 O8 1_555 1_555
Cu3_2 O12 1_555 1_555
O4_2 Cu1 1_555 1_555
O8_2 Cu2 1_555 1_555
O12_2 Cu3 1_555 1_555
O1 C1 1_555 1_555
O2 C7 1_555 1_555
C5 C6 1_555 1_555
C6 C7 1_555 1_555
C8 C9 1_555 1_555
C12 C13 1_555 1_555
C14 C15 1_555 1_555
C18 C19 1_555 1_555

#END
