
#######################################################################
#
#                 Cambridge Crystallographic Data Centre
#                                CCDC 
#
#######################################################################
#
# If this CIF has been generated from an entry in the Cambridge 
# Structural Database, then it will include bibliographic, chemical, 
# crystal, experimental, refinement or atomic coordinate data resulting 
# from the CCDC's data processing and validation procedures.
#
#######################################################################

data_VAMJAU
_symmetry_cell_setting           monoclinic
_symmetry_space_group_name_H-M   'P 21/m'
_symmetry_Int_Tables_number      11
_space_group_name_Hall           '-P 2yb'
loop_
_symmetry_equiv_pos_site_id
_symmetry_equiv_pos_as_xyz
1 x,y,z
2 -x,1/2+y,-z
3 -x,-y,-z
4 x,1/2-y,z
_cell_length_a                   4.959(2)
_cell_length_b                   10.566(2)
_cell_length_c                   6.029(2)
_cell_angle_alpha                90
_cell_angle_beta                 101.33(3)
_cell_angle_gamma                90
_cell_volume                     309.744
loop_
_atom_site_label
_atom_site_type_symbol
_atom_site_fract_x
_atom_site_fract_y
_atom_site_fract_z
I1 I -0.07665(3) 0.2500 0.12714(2)
Li1 Li 0.368(1) 0.2500 -0.1104(8)
N1 N 0.3038(4) 0.4072(2) -0.3113(3)
C1 C 0.5359(4) 0.4485(2) -0.4120(3)
H1 H 0.246(7) 0.461(4) -0.227(7)
H2 H 0.173(8) 0.382(5) -0.407(6)
H3 H 0.678 0.480 -0.277
H4 H 0.603 0.377 -0.482
Li1_2 Li -0.632(1) 0.2500 -0.1104(8)
I1_2 I 0.92335(3) 0.2500 0.12714(2)
N1C N 0.3038(4) 0.0928(2) -0.3113(3)
C1B C 0.4641(4) 0.5515(2) -0.5880(3)
C1C C 0.5359(4) 0.0515(2) -0.4120(3)
H1C H 0.246(7) 0.039(4) -0.227(7)
H2C H 0.173(8) 0.118(5) -0.407(6)
N1B N 0.6962(4) 0.5928(2) -0.6887(3)
H3B H 0.322 0.520 -0.723
H4B H 0.397 0.623 -0.518
C1A C 0.4641(4) -0.0515(2) -0.5880(3)
H3C H 0.678 0.020 -0.277
H4C H 0.603 0.123 -0.482
Li1A Li 0.632(1) 0.7500 -0.8896(8)
H1B H 0.754(7) 0.539(4) -0.773(7)
H2B H 0.827(8) 0.618(5) -0.593(6)
N1A N 0.6962(4) -0.0928(2) -0.6887(3)
H3A H 0.322 -0.020 -0.723
H4A H 0.397 -0.123 -0.518
I1A I 0.07665(3) 0.7500 -1.12714(2)
I1A_2 I 1.07665(3) 0.7500 -1.12714(2)
N1A_2 N 0.6962(4) 0.9072(2) -0.6887(3)
Li1A_2 Li 0.632(1) -0.2500 -0.8896(8)
H1A H 0.754(7) -0.039(4) -0.773(7)
H2A H 0.827(8) -0.118(5) -0.593(6)
Li1A_3 Li -0.368(1) 0.7500 -0.8896(8)
loop_
_geom_bond_atom_site_label_1
_geom_bond_atom_site_label_2
_geom_bond_site_symmetry_1
_geom_bond_site_symmetry_2
I1 Li1 1_555 1_555
Li1 N1 1_555 1_555
N1 C1 1_555 1_555
C1 H3 1_555 1_555
H1 N1 1_555 1_555
H2 N1 1_555 1_555
H4 C1 1_555 1_555
Li1_2 I1 1_555 1_555
I1_2 Li1 1_555 1_555
N1C Li1 1_555 1_555
C1B C1 1_555 1_555
C1C N1C 1_555 1_555
H1C N1C 1_555 1_555
H2C N1C 1_555 1_555
N1B C1B 1_555 1_555
H3B C1B 1_555 1_555
H4B C1B 1_555 1_555
C1A C1C 1_555 1_555
H3C C1C 1_555 1_555
H4C C1C 1_555 1_555
Li1A N1B 1_555 1_555
H1B N1B 1_555 1_555
H2B N1B 1_555 1_555
N1A C1A 1_555 1_555
H3A C1A 1_555 1_555
H4A C1A 1_555 1_555
I1A Li1A 1_555 1_555
I1A_2 Li1A 1_555 1_555
N1A_2 Li1A 1_555 1_555
Li1A_2 N1A 1_555 1_555
H1A N1A 1_555 1_555
H2A N1A 1_555 1_555
Li1A_3 I1A 1_555 1_555

#END
