
#######################################################################
#
#                 Cambridge Crystallographic Data Centre
#                                CCDC 
#
#######################################################################
#
# If this CIF has been generated from an entry in the Cambridge 
# Structural Database, then it will include bibliographic, chemical, 
# crystal, experimental, refinement or atomic coordinate data resulting 
# from the CCDC's data processing and validation procedures.
#
#######################################################################

data_VAMKAW
_symmetry_cell_setting           orthorhombic
_symmetry_space_group_name_H-M   'P b c a'
_symmetry_Int_Tables_number      61
_space_group_name_Hall           '-P 2ac 2ab'
loop_
_symmetry_equiv_pos_site_id
_symmetry_equiv_pos_as_xyz
1 x,y,z
2 1/2+x,y,1/2-z
3 1/2-x,1/2+y,z
4 x,1/2-y,1/2+z
5 -x,-y,-z
6 1/2-x,-y,1/2+z
7 1/2+x,1/2-y,-z
8 -x,1/2+y,1/2-z
_cell_length_a                   16.4943(11)
_cell_length_b                   7.9801(7)
_cell_length_c                   23.805(3)
_cell_angle_alpha                90
_cell_angle_beta                 90
_cell_angle_gamma                90
_cell_volume                     3133.36
loop_
_atom_site_label
_atom_site_type_symbol
_atom_site_fract_x
_atom_site_fract_y
_atom_site_fract_z
Cu1 Cu -0.13434(3) 0.27319(6) -0.41802(2)
O1 O -0.03489(15) 0.1456(3) -0.40652(11)
O2 O 0.06115(18) 0.1076(4) -0.34232(13)
O3 O -0.23108(15) 0.4122(3) -0.41467(11)
O4 O -0.29651(17) 0.5801(4) -0.35541(12)
N1 N -0.1440(2) 0.0692(4) -0.57516(15)
H1 H -0.1242 0.0082 -0.6016
N2 N -0.15842(18) 0.1871(4) -0.49315(14)
N3 N -0.09047(17) 0.4281(4) -0.35697(13)
C1 C -0.1144(2) 0.0838(5) -0.52300(17)
H2 H -0.0688 0.0278 -0.5098
C2 C -0.2194(3) 0.2409(6) -0.52790(18)
H3 H -0.2604 0.3152 -0.5179
C3 C -0.2108(3) 0.1688(6) -0.57887(19)
H4 H -0.2438 0.1843 -0.6101
C4 C -0.0400(2) 0.3121(5) -0.32306(16)
H5 H 0.0019 0.3753 -0.3039
H6 H -0.0735 0.2586 -0.2948
C5 C -0.0010(2) 0.1783(5) -0.35997(17)
C6 C -0.1667(2) 0.4808(5) -0.32802(16)
H7 H -0.1800 0.3997 -0.2991
H8 H -0.1583 0.5884 -0.3100
C7 C -0.2370(2) 0.4941(5) -0.36919(16)
C8 C -0.0416(2) 0.5781(5) -0.37865(19)
C9 C -0.0927(3) 0.6791(6) -0.4205(2)
H9 H -0.1095 0.6078 -0.4508
H10 H -0.1396 0.7227 -0.4016
H11 H -0.0610 0.7701 -0.4351
C10 C 0.0336(3) 0.5148(6) -0.4098(2)
H12 H 0.0696 0.4613 -0.3837
H13 H 0.0178 0.4358 -0.4382
H14 H 0.0608 0.6078 -0.4271
C11 C -0.0149(3) 0.6911(6) -0.3298(2)
H15 H -0.0619 0.7367 -0.3116
H16 H 0.0158 0.6265 -0.3032
H17 H 0.0180 0.7808 -0.3440
O4B O -0.20349(17) 0.0801(4) -0.35541(12)
Cu1B Cu -0.36566(3) 0.77319(6) -0.41802(2)
O5 O -0.1716(2) 0.0775(5) -0.24087(15)
H18 H -0.2140 0.1525 -0.2214
H19 H -0.2029 -0.0475 -0.2482
O6 O -0.3037(2) 0.2563(5) -0.20549(17)
H20 H -0.3388 0.2062 -0.2187
H21 H -0.3208 0.3202 -0.1829
loop_
_geom_bond_atom_site_label_1
_geom_bond_atom_site_label_2
_geom_bond_site_symmetry_1
_geom_bond_site_symmetry_2
Cu1 O1 1_555 1_555
O1 C5 1_555 1_555
O2 C5 1_555 1_555
O3 Cu1 1_555 1_555
O4 C7 1_555 1_555
N1 H1 1_555 1_555
N2 Cu1 1_555 1_555
N3 Cu1 1_555 1_555
C1 N1 1_555 1_555
H2 C1 1_555 1_555
C2 N2 1_555 1_555
H3 C2 1_555 1_555
C3 N1 1_555 1_555
H4 C3 1_555 1_555
C4 N3 1_555 1_555
H5 C4 1_555 1_555
H6 C4 1_555 1_555
C5 C4 1_555 1_555
C6 N3 1_555 1_555
H7 C6 1_555 1_555
H8 C6 1_555 1_555
C7 O3 1_555 1_555
C8 N3 1_555 1_555
C9 C8 1_555 1_555
H9 C9 1_555 1_555
H10 C9 1_555 1_555
H11 C9 1_555 1_555
C10 C8 1_555 1_555
H12 C10 1_555 1_555
H13 C10 1_555 1_555
H14 C10 1_555 1_555
C11 C8 1_555 1_555
H15 C11 1_555 1_555
H16 C11 1_555 1_555
H17 C11 1_555 1_555
O5 H18 1_555 1_555
H19 O5 1_555 1_555
O6 H20 1_555 1_555
H21 O6 1_555 1_555
O4B Cu1 1_555 1_555
Cu1B O4 1_555 1_555
N2 C1 1_555 1_555
C2 C3 1_555 1_555
C6 C7 1_555 1_555

#END
