
#######################################################################
#
#                 Cambridge Crystallographic Data Centre
#                                CCDC 
#
#######################################################################
#
# If this CIF has been generated from an entry in the Cambridge 
# Structural Database, then it will include bibliographic, chemical, 
# crystal, experimental, refinement or atomic coordinate data resulting 
# from the CCDC's data processing and validation procedures.
#
#######################################################################

data_VAMKEA
_symmetry_cell_setting           monoclinic
_symmetry_space_group_name_H-M   'P 21/n'
_symmetry_Int_Tables_number      14
_space_group_name_Hall           '-P 2yn'
loop_
_symmetry_equiv_pos_site_id
_symmetry_equiv_pos_as_xyz
1 x,y,z
2 1/2+x,1/2-y,1/2+z
3 -x,-y,-z
4 1/2-x,1/2+y,1/2-z
_cell_length_a                   9.7750(11)
_cell_length_b                   7.8534(8)
_cell_length_c                   19.614(3)
_cell_angle_alpha                90
_cell_angle_beta                 92.367(11)
_cell_angle_gamma                90
_cell_volume                     1504.42
loop_
_atom_site_label
_atom_site_type_symbol
_atom_site_fract_x
_atom_site_fract_y
_atom_site_fract_z
Cu1 Cu 0.64346(3) 0.75904(4) 0.141623(13)
O1 O 0.47074(17) 0.6457(2) 0.11511(8)
O2 O 0.25659(18) 0.6291(3) 0.14897(10)
O3 O 0.79760(17) 0.8837(2) 0.18393(9)
O4 O 0.84739(19) 1.0645(3) 0.26783(9)
N1 N 0.7883(2) 0.5694(3) -0.03551(10)
H1 H 0.7788 0.5086 -0.0719
N2 N 0.7463(2) 0.6778(3) 0.06382(10)
N3 N 0.52486(19) 0.9284(2) 0.19054(9)
C1 C 0.7028(2) 0.5726(3) 0.01563(12)
H2 H 0.6228 0.5088 0.0170
C2 C 0.8670(3) 0.7456(3) 0.04168(13)
H3 H 0.9214 0.8245 0.0656
C3 C 0.8942(3) 0.6799(4) -0.02037(12)
C4 C 0.4071(2) 0.8197(3) 0.20904(11)
H4 H 0.3274 0.8908 0.2153
H5 H 0.4290 0.7618 0.2518
C5 C 0.3743(2) 0.6883(3) 0.15343(12)
C6 C 0.6138(2) 0.9788(3) 0.25073(11)
H6 H 0.6004 0.9000 0.2879
H7 H 0.5880 1.0916 0.2657
C7 C 0.7646(2) 0.9791(3) 0.23323(12)
C8 C 0.4798(3) 1.0825(3) 0.14728(12)
C9 C 0.6065(3) 1.1750(5) 0.12293(18)
H8 H 0.6615 1.2126 0.1617
H9 H 0.5786 1.2717 0.0958
H10 H 0.6590 1.0990 0.0960
C10 C 0.3955(3) 1.0229(4) 0.08401(14)
H11 H 0.4479 0.9421 0.0592
H12 H 0.3736 1.1190 0.0553
H13 H 0.3125 0.9702 0.0979
C11 C 0.3931(4) 1.2061(4) 0.18777(19)
H14 H 0.3133 1.1484 0.2028
H15 H 0.3657 1.3004 0.1592
H16 H 0.4461 1.2473 0.2267
C12 C 1.0072(4) 0.7130(5) -0.06713(17)
H17 H 1.0782 0.7771 -0.0435
H18 H 0.9727 0.7765 -0.1060
H19 H 1.0438 0.6065 -0.0821
O4C O 0.65261(19) 0.5645(3) 0.23217(9)
Cu1C Cu 0.85654(3) 1.25904(4) 0.358377(13)
O5 O 0.0842(3) 0.9436(5) 0.16087(17)
H20 H 0.1167 0.8047 0.1604
H21 H -0.0005 0.9734 0.1907
loop_
_geom_bond_atom_site_label_1
_geom_bond_atom_site_label_2
_geom_bond_site_symmetry_1
_geom_bond_site_symmetry_2
Cu1 O1 1_555 1_555
O1 C5 1_555 1_555
O2 C5 1_555 1_555
O3 Cu1 1_555 1_555
O4 C7 1_555 1_555
N1 H1 1_555 1_555
N2 Cu1 1_555 1_555
N3 Cu1 1_555 1_555
C1 N1 1_555 1_555
H2 C1 1_555 1_555
C2 N2 1_555 1_555
H3 C2 1_555 1_555
C3 N1 1_555 1_555
C4 N3 1_555 1_555
H4 C4 1_555 1_555
H5 C4 1_555 1_555
C5 C4 1_555 1_555
C6 N3 1_555 1_555
H6 C6 1_555 1_555
H7 C6 1_555 1_555
C7 O3 1_555 1_555
C8 N3 1_555 1_555
C9 C8 1_555 1_555
H8 C9 1_555 1_555
H9 C9 1_555 1_555
H10 C9 1_555 1_555
C10 C8 1_555 1_555
H11 C10 1_555 1_555
H12 C10 1_555 1_555
H13 C10 1_555 1_555
C11 C8 1_555 1_555
H14 C11 1_555 1_555
H15 C11 1_555 1_555
H16 C11 1_555 1_555
C12 C3 1_555 1_555
H17 C12 1_555 1_555
H18 C12 1_555 1_555
H19 C12 1_555 1_555
O5 H20 1_555 1_555
H21 O5 1_555 1_555
O4C Cu1 1_555 1_555
Cu1C O4 1_555 1_555
N2 C1 1_555 1_555
C2 C3 1_555 1_555
C6 C7 1_555 1_555

#END
