
#######################################################################
#
#                 Cambridge Crystallographic Data Centre
#                                CCDC 
#
#######################################################################
#
# If this CIF has been generated from an entry in the Cambridge 
# Structural Database, then it will include bibliographic, chemical, 
# crystal, experimental, refinement or atomic coordinate data resulting 
# from the CCDC's data processing and validation procedures.
#
#######################################################################

data_VAMWOV
_symmetry_cell_setting           monoclinic
_symmetry_space_group_name_H-M   'C 2/c'
_symmetry_Int_Tables_number      15
_space_group_name_Hall           '-C 2yn'
loop_
_symmetry_equiv_pos_site_id
_symmetry_equiv_pos_as_xyz
1 x,y,z
2 1/2+x,1/2+y,z
3 -x,y,1/2-z
4 1/2-x,1/2+y,1/2-z
5 -x,-y,-z
6 1/2-x,1/2-y,-z
7 x,-y,1/2+z
8 1/2+x,1/2-y,1/2+z
_cell_length_a                   16.145(10)
_cell_length_b                   10.820(4)
_cell_length_c                   10.010(5)
_cell_angle_alpha                90
_cell_angle_beta                 94.27(5)
_cell_angle_gamma                90
_cell_volume                     1743.78
loop_
_atom_site_label
_atom_site_type_symbol
_atom_site_fract_x
_atom_site_fract_y
_atom_site_fract_z
Pb1 Pb 0.0000 0.15439(4) 0.2500
S1 S -0.1494(2) -0.1937(2) -0.0944(3)
C1 C -0.1119(7) -0.1170(8) 0.0367(9)
N1 N -0.0865(7) -0.0651(7) 0.1282(8)
N2 N 0.0000 0.3907(7) 0.2500
C2 C 0.0485(5) 0.4545(7) 0.3387(7)
C3 C 0.0501(5) 0.5841(7) 0.3411(8)
C4 C 0.0000 0.6492(10) 0.2500
N3 N 0.0873(4) 0.2598(5) 0.4498(6)
C5 C 0.1025(5) 0.3839(7) 0.4402(8)
C6 C 0.1642(6) 0.4414(7) 0.5243(9)
C7 C 0.2046(5) 0.3722(8) 0.6237(9)
C8 C 0.1848(6) 0.2484(8) 0.6364(8)
C9 C 0.1277(6) 0.1968(7) 0.5482(8)
H1 H 0.088 0.630 0.407
H2 H 0.0000 0.740 0.2500
H3 H 0.179 0.529 0.513
H4 H 0.246 0.410 0.690
H5 H 0.212 0.198 0.707
H6 H 0.115 0.108 0.559
S1F S -0.1494(2) 0.1937(2) 0.4056(3)
N1B N 0.0865(7) -0.0651(7) 0.3718(8)
N3B N -0.0873(4) 0.2598(5) 0.0502(6)
C2B C -0.0485(5) 0.4545(7) 0.1613(7)
C3B C -0.0501(5) 0.5841(7) 0.1589(8)
C1B C 0.1119(7) -0.1170(8) 0.4633(9)
C5B C -0.1025(5) 0.3839(7) 0.0598(8)
C9B C -0.1277(6) 0.1968(7) -0.0482(8)
Pb1D Pb 0.0000 -0.15439(4) -0.2500
S1D S 0.1494(2) 0.1937(2) 0.0944(3)
H1B H -0.088 0.630 0.093
S1B S 0.1494(2) -0.1937(2) 0.5944(3)
C6B C -0.1642(6) 0.4414(7) -0.0243(9)
C8B C -0.1848(6) 0.2484(8) -0.1364(8)
H6B H -0.115 0.108 -0.059
Pb1D_2 Pb 0.0000 -0.15439(4) 0.7500
C7B C -0.2046(5) 0.3722(8) -0.1237(9)
H3B H -0.179 0.529 -0.013
H5B H -0.212 0.198 -0.207
H4B H -0.246 0.410 -0.190
loop_
_geom_bond_atom_site_label_1
_geom_bond_atom_site_label_2
_geom_bond_site_symmetry_1
_geom_bond_site_symmetry_2
Pb1 N1 1_555 1_555
S1 C1 1_555 1_555
C1 N1 1_555 1_555
N2 Pb1 1_555 1_555
C2 N2 1_555 1_555
C3 C2 1_555 1_555
C4 C3 1_555 1_555
N3 Pb1 1_555 1_555
C5 C2 1_555 1_555
C6 C5 1_555 1_555
C7 C6 1_555 1_555
C8 C7 1_555 1_555
C9 N3 1_555 1_555
H1 C3 1_555 1_555
H2 C4 1_555 1_555
H3 C6 1_555 1_555
H4 C7 1_555 1_555
H5 C8 1_555 1_555
H6 C9 1_555 1_555
S1F Pb1 1_555 1_555
N1B Pb1 1_555 1_555
N3B Pb1 1_555 1_555
C2B N2 1_555 1_555
C3B C4 1_555 1_555
C1B N1B 1_555 1_555
C5B N3B 1_555 1_555
C9B N3B 1_555 1_555
Pb1D S1 1_555 1_555
S1D Pb1 1_555 1_555
H1B C3B 1_555 1_555
S1B C1B 1_555 1_555
C6B C5B 1_555 1_555
C8B C9B 1_555 1_555
H6B C9B 1_555 1_555
Pb1D_2 S1B 1_555 1_555
C7B C6B 1_555 1_555
H3B C6B 1_555 1_555
H5B C8B 1_555 1_555
H4B C7B 1_555 1_555
N3 C5 1_555 1_555
C8 C9 1_555 1_555
C2B C3B 1_555 1_555
C2B C5B 1_555 1_555
C8B C7B 1_555 1_555

#END
