
#######################################################################
#
#                 Cambridge Crystallographic Data Centre
#                                CCDC 
#
#######################################################################
#
# If this CIF has been generated from an entry in the Cambridge 
# Structural Database, then it will include bibliographic, chemical, 
# crystal, experimental, refinement or atomic coordinate data resulting 
# from the CCDC's data processing and validation procedures.
#
#######################################################################

data_VAMWIP
_symmetry_cell_setting           monoclinic
_symmetry_space_group_name_H-M   'C 2/c'
_symmetry_Int_Tables_number      15
_space_group_name_Hall           '-C 2yn'
loop_
_symmetry_equiv_pos_site_id
_symmetry_equiv_pos_as_xyz
1 x,y,z
2 1/2+x,1/2+y,z
3 -x,y,1/2-z
4 1/2-x,1/2+y,1/2-z
5 -x,-y,-z
6 1/2-x,1/2-y,-z
7 x,-y,1/2+z
8 1/2+x,1/2-y,1/2+z
_cell_length_a                   17.529(4)
_cell_length_b                   13.390(3)
_cell_length_c                   6.783(2)
_cell_angle_alpha                90
_cell_angle_beta                 112.26(2)
_cell_angle_gamma                90
_cell_volume                     1473.41
loop_
_atom_site_label
_atom_site_type_symbol
_atom_site_fract_x
_atom_site_fract_y
_atom_site_fract_z
Pb1 Pb 0.0000 0.14100(6) 0.2500
S1 S 0.1160(2) 0.0614(3) 0.7112(6)
C1 C 0.0979(7) 0.1368(11) 0.8862(23)
N1 N 0.0846(8) 0.1849(9) 1.0186(18)
N2 N 0.0779(6) 0.3003(7) 0.4012(17)
C2 C 0.1573(8) 0.3012(11) 0.5383(23)
C3 C 0.2028(8) 0.3886(12) 0.6010(23)
C4 C 0.1682(9) 0.4791(12) 0.5305(24)
C5 C 0.0837(9) 0.4817(10) 0.3898(23)
C6 C 0.0408(7) 0.3884(9) 0.3214(20)
C7 C 0.0424(9) 0.5711(11) 0.3224(27)
H1 H 0.184 0.238 0.596
H2 H 0.260 0.385 0.698
H3 H 0.200 0.541 0.577
H4 H 0.071 0.635 0.375
C6B C -0.0408(7) 0.3884(9) 0.1786(20)
N2B N -0.0779(6) 0.3003(7) 0.0988(17)
C2B C -0.1573(8) 0.3012(11) -0.0383(23)
C3B C -0.2028(8) 0.3886(12) -0.1010(23)
C4B C -0.1682(9) 0.4791(12) -0.0305(24)
C5B C -0.0837(9) 0.4817(10) 0.1102(23)
C7B C -0.0424(9) 0.5711(11) 0.1776(27)
H4B H -0.071 0.635 0.125
H3B H -0.200 0.541 -0.077
H2B H -0.260 0.385 -0.198
H1B H -0.184 0.238 -0.096
S1B S -0.1160(2) 0.0614(3) -0.2112(6)
C1B C -0.0979(7) 0.1368(11) -0.3862(23)
N1B N -0.0846(8) 0.1849(9) -0.5186(18)
S1D S -0.1160(2) -0.0614(3) 0.2888(6)
S1F S 0.1160(2) -0.0614(3) 0.2112(6)
N1_2 N 0.0846(8) 0.1849(9) 0.0186(18)
N1B_2 N -0.0846(8) 0.1849(9) 0.4814(18)
Pb1D Pb 0.0000 -0.14100(6) 0.7500
Pb1_2 Pb 0.0000 0.14100(6) 1.2500
Pb1D_2 Pb 0.0000 -0.14100(6) -0.2500
Pb1_3 Pb 0.0000 0.14100(6) -0.7500
loop_
_geom_bond_atom_site_label_1
_geom_bond_atom_site_label_2
_geom_bond_site_symmetry_1
_geom_bond_site_symmetry_2
Pb1 S1 1_555 1_555
S1 C1 1_555 1_555
C1 N1 1_555 1_555
N1 Pb1_2 1_555 1_555
N2 Pb1 1_555 1_555
C2 N2 1_555 1_555
C3 C2 1_555 1_555
C4 C3 1_555 1_555
C5 C4 1_555 1_555
C6 N2 1_555 1_555
C7 C5 1_555 1_555
H1 C2 1_555 1_555
H2 C3 1_555 1_555
H3 C4 1_555 1_555
H4 C7 1_555 1_555
C6B C6 1_555 1_555
N2B Pb1 1_555 1_555
C2B N2B 1_555 1_555
C3B C2B 1_555 1_555
C4B C3B 1_555 1_555
C5B C6B 1_555 1_555
C7B C7 1_555 1_555
H4B C7B 1_555 1_555
H3B C4B 1_555 1_555
H2B C3B 1_555 1_555
H1B C2B 1_555 1_555
S1B Pb1 1_555 1_555
C1B S1B 1_555 1_555
N1B C1B 1_555 1_555
S1D Pb1 1_555 1_555
S1F Pb1 1_555 1_555
N1_2 Pb1 1_555 1_555
N1B_2 Pb1 1_555 1_555
Pb1D S1 1_555 1_555
Pb1D_2 S1B 1_555 1_555
Pb1_3 N1B 1_555 1_555
C5 C6 1_555 1_555
C6B N2B 1_555 1_555
C4B C5B 1_555 1_555
C5B C7B 1_555 1_555
S1D Pb1D 1_555 1_555
S1F Pb1D_2 1_555 1_555

#END
