
#######################################################################
#
#                 Cambridge Crystallographic Data Centre
#                                CCDC 
#
#######################################################################
#
# If this CIF has been generated from an entry in the Cambridge 
# Structural Database, then it will include bibliographic, chemical, 
# crystal, experimental, refinement or atomic coordinate data resulting 
# from the CCDC's data processing and validation procedures.
#
#######################################################################

data_VAMWAI
_symmetry_cell_setting           orthorhombic
_symmetry_space_group_name_H-M   'P b c a'
_symmetry_Int_Tables_number      61
_space_group_name_Hall           '-P 2ac 2ab'
loop_
_symmetry_equiv_pos_site_id
_symmetry_equiv_pos_as_xyz
1 x,y,z
2 1/2-x,1/2+y,z
3 x,1/2-y,1/2+z
4 1/2+x,y,1/2-z
5 -x,-y,-z
6 1/2+x,1/2-y,-z
7 -x,1/2+y,1/2-z
8 1/2-x,-y,1/2+z
_cell_length_a                   6.6187(17)
_cell_length_b                   6.4452(17)
_cell_length_c                   27.114(7)
_cell_angle_alpha                90
_cell_angle_beta                 90
_cell_angle_gamma                90
_cell_volume                     1156.65
loop_
_atom_site_label
_atom_site_type_symbol
_atom_site_fract_x
_atom_site_fract_y
_atom_site_fract_z
Se1 Se 0.43835(27) 0.10919(32) 0.70513(6)
Zn1 Zn 0.5993(4) 0.24967(34) 0.78196(8)
N1 N 0.43903(35) 0.0815(4) 0.83711(22)
C1 C 0.50196(31) 0.1415(4) 0.88855(19)
C2 C 0.44880(30) 0.0061(4) 0.93178(15)
C3 C 0.52864(31) 0.07889(30) 0.98074(9)
H1 H 0.45985 -0.05644 0.83335
H2 H 0.30474 0.10355 0.83412
H3 H 0.44706 0.27641 0.89539
H4 H 0.64646 0.15579 0.88867
H5 H 0.49953 -0.13182 0.92602
H6 H 0.30394 -0.00436 0.93423
H7 H 0.4714 0.2121 0.98912
H8 H 0.67316 0.09418 0.97948
C3D C 0.47136(31) -0.07889(30) 1.01926(9)
C2D C 0.55120(30) -0.0061(4) 1.06822(15)
C1D C 0.49804(31) -0.1415(4) 1.11145(19)
N1D N 0.56097(35) -0.0815(4) 1.16289(22)
H1D H 0.54015 0.05644 1.16665
H2D H 0.69526 -0.10355 1.16588
H3D H 0.55294 -0.27641 1.10461
H4D H 0.35354 -0.15579 1.11133
H5D H 0.50047 0.13182 1.07398
H6D H 0.69606 0.00436 1.06577
H7D H 0.5286 -0.2121 1.01088
H8D H 0.32684 -0.09418 1.02052
Se1C Se 0.93835(27) 0.10919(32) 0.79487(6)
Zn1C Zn 1.0993(4) 0.24967(34) 0.71804(8)
Zn1C_2 Zn 0.0993(4) 0.24967(34) 0.71804(8)
Zn1F Zn 0.4007(4) -0.25033(34) 0.71804(8)
Se1F Se 0.56165(27) 0.60919(32) 0.79487(6)
Zn1D Zn 0.4007(4) -0.24967(34) 1.21804(8)
Zn1A Zn 0.9007(4) -0.25033(34) 0.78196(8)
Se1_2 Se 1.43835(27) 0.10919(32) 0.70513(6)
Se1A Se 1.06165(27) 0.60919(32) 0.70513(6)
N1C N 0.93903(35) 0.0815(4) 0.66289(22)
H1C H 0.95985 -0.05644 0.66665
H2C H 0.80474 0.10355 0.66588
loop_
_geom_bond_atom_site_label_1
_geom_bond_atom_site_label_2
_geom_bond_site_symmetry_1
_geom_bond_site_symmetry_2
Se1 Zn1 1_555 1_555
Zn1 N1 1_555 1_555
N1 C1 1_555 1_555
C1 C2 1_555 1_555
C2 C3 1_555 1_555
C3 H7 1_555 1_555
H1 N1 1_555 1_555
H2 N1 1_555 1_555
H3 C1 1_555 1_555
H4 C1 1_555 1_555
H5 C2 1_555 1_555
H6 C2 1_555 1_555
H8 C3 1_555 1_555
C3D C3 1_555 1_555
C2D C3D 1_555 1_555
C1D C2D 1_555 1_555
N1D C1D 1_555 1_555
H1D N1D 1_555 1_555
H2D N1D 1_555 1_555
H3D C1D 1_555 1_555
H4D C1D 1_555 1_555
H5D C2D 1_555 1_555
H6D C2D 1_555 1_555
H7D C3D 1_555 1_555
H8D C3D 1_555 1_555
Se1C Zn1 1_555 1_555
Zn1C Se1C 1_555 1_555
Zn1C_2 Se1 1_555 1_555
Zn1F Se1 1_555 1_555
Se1F Zn1 1_555 1_555
Zn1D N1D 1_555 1_555
Zn1A Se1C 1_555 1_555
Se1_2 Zn1C 1_555 1_555
Se1A Zn1C 1_555 1_555
N1C Zn1C 1_555 1_555
H1C N1C 1_555 1_555
H2C N1C 1_555 1_555

#END
