
#######################################################################
#
#                 Cambridge Crystallographic Data Centre
#                                CCDC 
#
#######################################################################
#
# If this CIF has been generated from an entry in the Cambridge 
# Structural Database, then it will include bibliographic, chemical, 
# crystal, experimental, refinement or atomic coordinate data resulting 
# from the CCDC's data processing and validation procedures.
#
#######################################################################

data_VAMWAJ
_symmetry_cell_setting           triclinic
_symmetry_space_group_name_H-M   'P -1'
_symmetry_Int_Tables_number      2
_space_group_name_Hall           '-P 1'
loop_
_symmetry_equiv_pos_site_id
_symmetry_equiv_pos_as_xyz
1 x,y,z
2 -x,-y,-z
_cell_length_a                   9.580(3)
_cell_length_b                   13.433(3)
_cell_length_c                   24.294(6)
_cell_angle_alpha                92.600(5)
_cell_angle_beta                 97.077(9)
_cell_angle_gamma                94.637(7)
_cell_volume                     3087.54
loop_
_atom_site_label
_atom_site_type_symbol
_atom_site_fract_x
_atom_site_fract_y
_atom_site_fract_z
Co1 Co 1.02485(8) 0.80742(6) 0.20566(3)
Cl1 Cl 1.24633(15) 0.77241(13) 0.22999(7)
Cl2 Cl 0.98554(17) 0.93407(13) 0.15271(7)
O1 O 0.6244(4) 0.8155(4) 0.42920(18)
O2 O 0.8218(4) 0.9078(3) 0.46853(16)
O3 O 0.8997(4) 1.1094(3) 0.42702(17)
H1 H 0.9573 1.1305 0.4071
O4 O 0.7862(5) 0.3237(4) 0.0928(2)
O5 O 0.6484(4) 0.4147(3) 0.03628(15)
O6 O 0.7340(4) 0.5992(3) -0.02015(16)
H2 H 0.7558 0.6595 -0.0154
N1 N 0.9383(5) 0.8295(4) 0.2782(2)
N2 N 0.9235(5) 0.6769(4) 0.1666(2)
C2 C 1.0118(6) 0.8726(5) 0.3251(2)
H6 H 1.1057 0.8958 0.3246
C3 C 0.9535(6) 0.8840(5) 0.3742(2)
H7 H 1.0072 0.9140 0.4060
C4 C 0.8122(6) 0.8493(4) 0.3749(2)
C5 C 0.7349(6) 0.8063(5) 0.3271(2)
H8 H 0.6405 0.7832 0.3265
C6 C 0.8015(6) 0.7982(5) 0.2799(2)
H9 H 0.7490 0.7696 0.2475
C7 C 0.7408(7) 0.8542(5) 0.4266(3)
C8 C 0.7663(5) 0.9154(5) 0.5200(2)
C9 C 0.6966(5) 0.9983(4) 0.5317(2)
C10 C 0.6458(5) 1.0049(4) 0.5827(2)
H10 H 0.6003 1.0609 0.5917
C11 C 0.6602(5) 0.9312(5) 0.6209(2)
C12 C 0.7345(5) 0.8500(4) 0.6064(2)
H11 H 0.7492 0.8013 0.6320
C13 C 0.7873(5) 0.8385(4) 0.5561(2)
C14 C 0.8556(6) 0.7449(4) 0.5434(3)
H12 H 0.7845 0.6986 0.5218
H13 H 0.8818 0.7150 0.5784
C15 C 0.5932(6) 0.9308(5) 0.6746(2)
C16 C 0.5179(7) 1.0250(5) 0.6830(3)
H14 H 0.4460 1.0295 0.6522
H15 H 0.5848 1.0827 0.6853
H16 H 0.4755 1.0222 0.7167
C17 C 0.7078(7) 0.9238(6) 0.7251(3)
H17 H 0.7554 0.8644 0.7203
H18 H 0.6640 0.9214 0.7585
H19 H 0.7749 0.9815 0.7276
C18 C 0.4827(7) 0.8401(5) 0.6715(3)
H20 H 0.4115 0.8449 0.6405
H21 H 0.4398 0.8394 0.7052
H22 H 0.5279 0.7796 0.6669
C19 C 0.6763(5) 1.0824(5) 0.4920(2)
H23 H 0.6752 1.0554 0.4542
H24 H 0.5855 1.1079 0.4949
C20 C 0.7899(5) 1.1671(4) 0.5036(2)
C21 C 0.7846(6) 1.2379(5) 0.5466(2)
H25 H 0.7091 1.2323 0.5672
C22 C 0.8874(6) 1.3164(5) 0.5598(2)
C23 C 1.0040(6) 1.3175(5) 0.5308(2)
H26 H 1.0780 1.3667 0.5408
C24 C 0.9854(6) 0.7518(5) 0.5127(2)
C25 C 0.9017(6) 1.1757(4) 0.4721(2)
C26 C 0.8768(6) 1.3988(5) 0.6043(3)
C27 C 0.8729(18) 1.4935(7) 0.5808(4)
H27 H 0.9547 1.5065 0.5622
H28 H 0.8721 1.5445 0.6098
H29 H 0.7892 1.4936 0.5547
C28 C 0.9968(12) 1.4010(7) 0.6501(4)
H30 H 1.0844 1.4140 0.6353
H31 H 0.9956 1.3376 0.6668
H32 H 0.9875 1.4528 0.6776
C29 C 0.7449(11) 1.3786(8) 0.6330(5)
H33 H 0.6624 1.3761 0.6060
H34 H 0.7411 1.4312 0.6607
H35 H 0.7483 1.3159 0.6502
C30 C 0.9799(6) 0.5901(5) 0.1746(3)
H36 H 1.0609 0.5892 0.1998
C31 C 0.9226(7) 0.5020(5) 0.1468(3)
H37 H 0.9661 0.4434 0.1531
C32 C 0.8016(6) 0.4997(5) 0.1098(2)
C33 C 0.7406(7) 0.5889(5) 0.1015(3)
H38 H 0.6582 0.5904 0.0771
C34 C 0.8043(7) 0.6762(5) 0.1303(3)
H39 H 0.7636 0.7360 0.1244
C35 C 0.7450(7) 0.4033(5) 0.0792(3)
C36 C 0.6036(6) 0.3292(4) 0.0005(2)
C37 C 0.5042(6) 0.2571(4) 0.0150(2)
C38 C 0.4634(6) 0.1754(4) -0.0216(2)
H40 H 0.3971 0.1268 -0.0122
C39 C 0.5168(6) 0.1623(4) -0.0721(2)
C40 C 0.6123(6) 0.2401(4) -0.0853(2)
H41 H 0.6474 0.2353 -0.1193
C41 C 0.6562(6) 0.3236(4) -0.0498(2)
C42 C 0.4490(7) 0.2559(5) 0.0718(2)
H42 H 0.3613 0.2131 0.0674
H43 H 0.5162 0.2242 0.0970
C43 C 0.4802(6) 0.0684(4) -0.1097(2)
C44 C 0.4196(6) 0.0974(5) -0.1694(2)
H44 H 0.3341 0.1294 -0.1673
H45 H 0.3998 0.0382 -0.1936
H46 H 0.4877 0.1424 -0.1836
C45 C 0.3730(6) -0.0057(4) -0.0897(2)
H47 H 0.4078 -0.0245 -0.0532
H48 H 0.3573 -0.0640 -0.1147
H49 H 0.2858 0.0244 -0.0884
C46 C 0.6168(6) 0.0161(5) -0.1150(3)
H50 H 0.6553 -0.0035 -0.0791
H51 H 0.6845 0.0616 -0.1291
H52 H 0.5951 -0.0420 -0.1400
C47 C 0.7557(6) 0.4069(4) -0.0679(2)
H53 H 0.8138 0.4388 -0.0353
H54 H 0.8179 0.3781 -0.0917
C48 C 0.6769(6) 0.4845(4) -0.0985(2)
C49 C 0.6161(6) 0.4648(5) -0.1530(2)
H55 H 0.6271 0.4035 -0.1706
C50 C 0.5398(6) 0.5325(5) -0.1825(3)
C51 C 0.5207(6) 0.6212(5) -0.1540(3)
H56 H 0.4662 0.6667 -0.1724
C52 C 0.4219(6) 0.3549(4) 0.1001(3)
C53 C 0.6658(6) 0.5781(5) -0.0730(2)
C54 C 0.4823(7) 0.5147(5) -0.2436(3)
C55 C 0.3400(9) 0.5493(10) -0.2563(3)
H57 H 0.2748 0.5112 -0.2367
H58 H 0.3101 0.5404 -0.2955
H59 H 0.3425 0.6189 -0.2449
C56 C 0.4842(11) 0.4083(6) -0.2634(3)
H60 H 0.4236 0.3666 -0.2436
H61 H 0.5788 0.3888 -0.2569
H62 H 0.4513 0.4008 -0.3024
C57 C 0.5823(10) 0.5788(7) -0.2759(3)
H63 H 0.5503 0.5700 -0.3150
H64 H 0.6762 0.5583 -0.2687
H65 H 0.5826 0.6481 -0.2642
Co1A Co 0.97515(8) 1.19258(6) 0.79434(3)
Co1A_2 Co -0.02485(8) 0.19258(6) -0.20566(3)
Cl1A Cl 0.75367(15) 1.22759(13) 0.77001(7)
Cl2A Cl 1.01446(17) 1.06593(13) 0.84729(7)
O1A O 1.3756(4) 1.1845(4) 0.57080(18)
O2A O 1.1782(4) 1.0922(3) 0.53147(16)
O3A O 1.1003(4) 0.8906(3) 0.57298(17)
H1A H 1.0427 0.8695 0.5929
O4A O 0.2138(5) 0.6763(4) -0.0928(2)
O5A O 0.3516(4) 0.5853(3) -0.03628(15)
O6A O 0.2660(4) 0.4008(3) 0.02015(16)
H2A H 0.2442 0.3405 0.0154
N1A N 1.0617(5) 1.1705(4) 0.7218(2)
N2A N 0.0765(5) 0.3231(4) -0.1666(2)
N2A_2 N 1.0765(5) 1.3231(4) 0.8334(2)
C2A C 0.9882(6) 1.1274(5) 0.6749(2)
H6A H 0.8943 1.1042 0.6754
C3A C 1.0465(6) 1.1160(5) 0.6258(2)
H7A H 0.9928 1.0860 0.5940
C4A C 1.1878(6) 1.1507(4) 0.6251(2)
C5A C 1.2651(6) 1.1937(5) 0.6729(2)
H8A H 1.3595 1.2168 0.6735
C6A C 1.1985(6) 1.2018(5) 0.7201(2)
H9A H 1.2510 1.2304 0.7525
C7A C 1.2592(7) 1.1458(5) 0.5734(3)
C8A C 1.2337(5) 1.0846(5) 0.4800(2)
C9A C 1.3034(5) 1.0017(4) 0.4683(2)
C10A C 1.3542(5) 0.9951(4) 0.4173(2)
H10A H 1.3997 0.9391 0.4083
C11A C 1.3398(5) 1.0688(5) 0.3791(2)
C12A C 1.2655(5) 1.1500(4) 0.3936(2)
H11A H 1.2508 1.1987 0.3680
C13A C 1.2127(5) 1.1615(4) 0.4439(2)
C14A C 1.1444(6) 1.2551(4) 0.4566(3)
H12A H 1.2155 1.3014 0.4782
H13A H 1.1182 1.2850 0.4216
C15A C 1.4068(6) 1.0692(5) 0.3254(2)
C16A C 1.4821(7) 0.9750(5) 0.3170(3)
H14A H 1.5540 0.9705 0.3478
H15A H 1.4152 0.9173 0.3147
H16A H 1.5245 0.9778 0.2833
C17A C 1.2922(7) 1.0762(6) 0.2749(3)
H17A H 1.2446 1.1356 0.2797
H18A H 1.3360 1.0786 0.2415
H19A H 1.2251 1.0185 0.2724
C18A C 1.5173(7) 1.1599(5) 0.3285(3)
H20A H 1.5885 1.1551 0.3595
H21A H 1.5602 1.1606 0.2948
H22A H 1.4721 1.2204 0.3331
C19A C 1.3237(5) 0.9176(5) 0.5080(2)
H23A H 1.3248 0.9446 0.5458
H24A H 1.4145 0.8921 0.5051
C20A C 1.2101(5) 0.8329(4) 0.4964(2)
C21A C 1.2154(6) 0.7621(5) 0.4534(2)
H25A H 1.2909 0.7677 0.4328
C22A C 1.1126(6) 0.6836(5) 0.4402(2)
C23A C 0.9960(6) 0.6825(5) 0.4692(2)
H26A H 0.9220 0.6333 0.4592
C24A C 1.0146(6) 1.2482(5) 0.4873(2)
C25A C 1.0983(6) 0.8243(4) 0.5279(2)
C26A C 1.1232(6) 0.6012(5) 0.3957(3)
C27A C 1.1271(18) 0.5065(7) 0.4192(4)
H27A H 1.0453 0.4935 0.4378
H28A H 1.1279 0.4555 0.3902
H29A H 1.2108 0.5064 0.4453
C28A C 1.0032(12) 0.5990(7) 0.3499(4)
H30A H 0.9156 0.5860 0.3647
H31A H 1.0044 0.6624 0.3332
H32A H 1.0125 0.5472 0.3224
C29A C 1.2551(11) 0.6214(8) 0.3670(5)
H33A H 1.3376 0.6239 0.3940
H34A H 1.2589 0.5688 0.3393
H35A H 1.2517 0.6841 0.3498
C30A C 0.0201(6) 0.4099(5) -0.1746(3)
H36A H -0.0609 0.4108 -0.1998
C31A C 0.0774(7) 0.4980(5) -0.1468(3)
H37A H 0.0339 0.5566 -0.1531
C32A C 0.1984(6) 0.5003(5) -0.1098(2)
C33A C 0.2594(7) 0.4111(5) -0.1015(3)
H38A H 0.3418 0.4096 -0.0771
C34A C 0.1957(7) 0.3238(5) -0.1303(3)
H39A H 0.2364 0.2640 -0.1244
C35A C 0.2550(7) 0.5967(5) -0.0792(3)
C36A C 0.3964(6) 0.6708(4) -0.0005(2)
C37A C 0.4958(6) 0.7429(4) -0.0150(2)
C38A C 0.5366(6) 0.8246(4) 0.0216(2)
H40A H 0.6029 0.8732 0.0122
C39A C 0.4832(6) 0.8377(4) 0.0721(2)
C40A C 0.3877(6) 0.7599(4) 0.0853(2)
H41A H 0.3526 0.7647 0.1193
C41A C 0.3438(6) 0.6764(4) 0.0498(2)
C42A C 0.5510(7) 0.7441(5) -0.0718(2)
H42A H 0.6387 0.7869 -0.0674
H43A H 0.4838 0.7758 -0.0970
C43A C 0.5198(6) 0.9316(4) 0.1097(2)
C44A C 0.5804(6) 0.9026(5) 0.1694(2)
H44A H 0.6659 0.8706 0.1673
H45A H 0.6002 0.9618 0.1936
H46A H 0.5123 0.8576 0.1836
C45A C 0.6270(6) 1.0057(4) 0.0897(2)
H47A H 0.5922 1.0245 0.0532
H48A H 0.6427 1.0640 0.1147
H49A H 0.7142 0.9756 0.0884
C46A C 0.3832(6) 0.9839(5) 0.1150(3)
H50A H 0.3447 1.0035 0.0791
H51A H 0.3155 0.9384 0.1291
H52A H 0.4049 1.0420 0.1400
C47A C 0.2443(6) 0.5931(4) 0.0679(2)
H53A H 0.1862 0.5612 0.0353
H54A H 0.1821 0.6219 0.0917
C48A C 0.3231(6) 0.5155(4) 0.0985(2)
C49A C 0.3839(6) 0.5352(5) 0.1530(2)
H55A H 0.3729 0.5965 0.1706
C50A C 0.4602(6) 0.4675(5) 0.1825(3)
C51A C 0.4793(6) 0.3788(5) 0.1540(3)
H56A H 0.5338 0.3333 0.1724
C52A C 0.5781(6) 0.6451(4) -0.1001(3)
C53A C 0.3342(6) 0.4219(5) 0.0730(2)
C54A C 0.5177(7) 0.4853(5) 0.2436(3)
C55A C 0.6600(9) 0.4507(10) 0.2563(3)
H57A H 0.7252 0.4888 0.2367
H58A H 0.6899 0.4596 0.2955
H59A H 0.6575 0.3811 0.2449
C56A C 0.5158(11) 0.5917(6) 0.2634(3)
H60A H 0.5764 0.6334 0.2436
H61A H 0.4212 0.6112 0.2569
H62A H 0.5487 0.5992 0.3024
C57A C 0.4177(10) 0.4212(7) 0.2759(3)
H63A H 0.4497 0.4300 0.3150
H64A H 0.3238 0.4417 0.2687
H65A H 0.4174 0.3519 0.2642
Cl3 Cl 0.4888(3) 0.6637(2) 0.54604(14)
Cl4 Cl 0.3535(3) 0.4799(2) 0.57328(11)
C63 C 0.3315(11) 0.6091(7) 0.5698(4)
H75 H 0.3204 0.6384 0.6061
H76 H 0.2490 0.6197 0.5440
O7 O 0.1093(7) 0.2197(5) 0.0014(2)
C60 C 0.0283(8) 0.1795(6) 0.0263(3)
C61 C -0.0972(7) 0.1185(6) 0.0014(4)
H69 H -0.1040 0.1197 -0.0384
H70 H -0.1791 0.1445 0.0138
H71 H -0.0916 0.0509 0.0121
C62 C 0.0539(8) 0.1870(7) 0.0897(4)
H72 H 0.1387 0.2292 0.1018
H73 H 0.0635 0.1215 0.1032
H74 H -0.0245 0.2149 0.1039
O8 O 0.9613(7) 0.2199(5) 0.3310(3)
C1 C 0.8631(9) 0.1023(7) 0.2670(6)
H3 H 0.8453 0.0677 0.2995
H4 H 0.9218 0.0649 0.2461
H5 H 0.7751 0.1093 0.2445
C58 C 0.9292(10) 0.1939(10) 0.2825(4)
C59 C 0.9870(12) 0.2750(9) 0.2415(4)
H66 H 1.0306 0.3334 0.2631
H67 H 0.9096 0.2932 0.2161
H68 H 1.0550 0.2464 0.2211
loop_
_geom_bond_atom_site_label_1
_geom_bond_atom_site_label_2
_geom_bond_site_symmetry_1
_geom_bond_site_symmetry_2
Co1 Cl1 1_555 1_555
Cl2 Co1 1_555 1_555
Cl3 C63 1_555 1_555
Cl4 C63 1_555 1_555
O1 C7 1_555 1_555
O2 C7 1_555 1_555
O3 H1 1_555 1_555
O4 C35 1_555 1_555
O5 C35 1_555 1_555
O6 H2 1_555 1_555
O7 C60 1_555 1_555
O8 C58 1_555 1_555
N1 Co1 1_555 1_555
N2 Co1 1_555 1_555
C1 H3 1_555 1_555
H4 C1 1_555 1_555
H5 C1 1_555 1_555
C2 N1 1_555 1_555
H6 C2 1_555 1_555
C3 C2 1_555 1_555
H7 C3 1_555 1_555
C4 C3 1_555 1_555
C5 C4 1_555 1_555
H8 C5 1_555 1_555
C6 N1 1_555 1_555
H9 C6 1_555 1_555
C7 C4 1_555 1_555
C8 O2 1_555 1_555
C9 C8 1_555 1_555
C10 C9 1_555 1_555
H10 C10 1_555 1_555
C11 C10 1_555 1_555
C12 C11 1_555 1_555
H11 C12 1_555 1_555
C13 C8 1_555 1_555
C14 C13 1_555 1_555
H12 C14 1_555 1_555
H13 C14 1_555 1_555
C15 C11 1_555 1_555
C16 C15 1_555 1_555
H14 C16 1_555 1_555
H15 C16 1_555 1_555
H16 C16 1_555 1_555
C17 C15 1_555 1_555
H17 C17 1_555 1_555
H18 C17 1_555 1_555
H19 C17 1_555 1_555
C18 C15 1_555 1_555
H20 C18 1_555 1_555
H21 C18 1_555 1_555
H22 C18 1_555 1_555
C19 C9 1_555 1_555
H23 C19 1_555 1_555
H24 C19 1_555 1_555
C20 C19 1_555 1_555
C21 C20 1_555 1_555
H25 C21 1_555 1_555
C22 C21 1_555 1_555
C23 C22 1_555 1_555
H26 C23 1_555 1_555
C24 C14 1_555 1_555
C25 O3 1_555 1_555
C26 C22 1_555 1_555
C27 C26 1_555 1_555
H27 C27 1_555 1_555
H28 C27 1_555 1_555
H29 C27 1_555 1_555
C28 C26 1_555 1_555
H30 C28 1_555 1_555
H31 C28 1_555 1_555
H32 C28 1_555 1_555
C29 C26 1_555 1_555
H33 C29 1_555 1_555
H34 C29 1_555 1_555
H35 C29 1_555 1_555
C30 N2 1_555 1_555
H36 C30 1_555 1_555
C31 C30 1_555 1_555
H37 C31 1_555 1_555
C32 C31 1_555 1_555
C33 C32 1_555 1_555
H38 C33 1_555 1_555
C34 N2 1_555 1_555
H39 C34 1_555 1_555
C35 C32 1_555 1_555
C36 O5 1_555 1_555
C37 C36 1_555 1_555
C38 C37 1_555 1_555
H40 C38 1_555 1_555
C39 C38 1_555 1_555
C40 C39 1_555 1_555
H41 C40 1_555 1_555
C41 C36 1_555 1_555
C42 C37 1_555 1_555
H42 C42 1_555 1_555
H43 C42 1_555 1_555
C43 C39 1_555 1_555
C44 C43 1_555 1_555
H44 C44 1_555 1_555
H45 C44 1_555 1_555
H46 C44 1_555 1_555
C45 C43 1_555 1_555
H47 C45 1_555 1_555
H48 C45 1_555 1_555
H49 C45 1_555 1_555
C46 C43 1_555 1_555
H50 C46 1_555 1_555
H51 C46 1_555 1_555
H52 C46 1_555 1_555
C47 C41 1_555 1_555
H53 C47 1_555 1_555
H54 C47 1_555 1_555
C48 C47 1_555 1_555
C49 C48 1_555 1_555
H55 C49 1_555 1_555
C50 C49 1_555 1_555
C51 C50 1_555 1_555
H56 C51 1_555 1_555
C52 C42 1_555 1_555
C53 O6 1_555 1_555
C54 C50 1_555 1_555
C55 C54 1_555 1_555
H57 C55 1_555 1_555
H58 C55 1_555 1_555
H59 C55 1_555 1_555
C56 C54 1_555 1_555
H60 C56 1_555 1_555
H61 C56 1_555 1_555
H62 C56 1_555 1_555
C57 C54 1_555 1_555
H63 C57 1_555 1_555
H64 C57 1_555 1_555
H65 C57 1_555 1_555
C58 C1 1_555 1_555
C59 C58 1_555 1_555
H66 C59 1_555 1_555
H67 C59 1_555 1_555
H68 C59 1_555 1_555
C60 C61 1_555 1_555
C61 H69 1_555 1_555
H70 C61 1_555 1_555
H71 C61 1_555 1_555
C62 C60 1_555 1_555
H72 C62 1_555 1_555
H73 C62 1_555 1_555
H74 C62 1_555 1_555
C63 H75 1_555 1_555
H76 C63 1_555 1_555
Co1A Cl1A 1_555 1_555
Co1A_2 N2A 1_555 1_555
Cl2A Co1A 1_555 1_555
O1A C7A 1_555 1_555
O2A C7A 1_555 1_555
O3A H1A 1_555 1_555
O4A C35A 1_555 1_555
O5A C35A 1_555 1_555
O6A H2A 1_555 1_555
N1A Co1A 1_555 1_555
N2A C30A 1_555 1_555
N2A_2 Co1A 1_555 1_555
C2A N1A 1_555 1_555
H6A C2A 1_555 1_555
C3A C2A 1_555 1_555
H7A C3A 1_555 1_555
C4A C3A 1_555 1_555
C5A C4A 1_555 1_555
H8A C5A 1_555 1_555
C6A N1A 1_555 1_555
H9A C6A 1_555 1_555
C7A C4A 1_555 1_555
C8A O2A 1_555 1_555
C9A C8A 1_555 1_555
C10A C9A 1_555 1_555
H10A C10A 1_555 1_555
C11A C10A 1_555 1_555
C12A C11A 1_555 1_555
H11A C12A 1_555 1_555
C13A C8A 1_555 1_555
C14A C13A 1_555 1_555
H12A C14A 1_555 1_555
H13A C14A 1_555 1_555
C15A C11A 1_555 1_555
C16A C15A 1_555 1_555
H14A C16A 1_555 1_555
H15A C16A 1_555 1_555
H16A C16A 1_555 1_555
C17A C15A 1_555 1_555
H17A C17A 1_555 1_555
H18A C17A 1_555 1_555
H19A C17A 1_555 1_555
C18A C15A 1_555 1_555
H20A C18A 1_555 1_555
H21A C18A 1_555 1_555
H22A C18A 1_555 1_555
C19A C9A 1_555 1_555
H23A C19A 1_555 1_555
H24A C19A 1_555 1_555
C20A C19A 1_555 1_555
C21A C20A 1_555 1_555
H25A C21A 1_555 1_555
C22A C21A 1_555 1_555
C23A C24 1_555 1_555
H26A C23A 1_555 1_555
C24A C23 1_555 1_555
C25A C24 1_555 1_555
C26A C22A 1_555 1_555
C27A C26A 1_555 1_555
H27A C27A 1_555 1_555
H28A C27A 1_555 1_555
H29A C27A 1_555 1_555
C28A C26A 1_555 1_555
H30A C28A 1_555 1_555
H31A C28A 1_555 1_555
H32A C28A 1_555 1_555
C29A C26A 1_555 1_555
H33A C29A 1_555 1_555
H34A C29A 1_555 1_555
H35A C29A 1_555 1_555
C30A H36A 1_555 1_555
C31A C30A 1_555 1_555
H37A C31A 1_555 1_555
C32A C31A 1_555 1_555
C33A C32A 1_555 1_555
H38A C33A 1_555 1_555
C34A N2A 1_555 1_555
H39A C34A 1_555 1_555
C35A C32A 1_555 1_555
C36A O5A 1_555 1_555
C37A C36A 1_555 1_555
C38A C37A 1_555 1_555
H40A C38A 1_555 1_555
C39A C38A 1_555 1_555
C40A C39A 1_555 1_555
H41A C40A 1_555 1_555
C41A C36A 1_555 1_555
C42A C37A 1_555 1_555
H42A C42A 1_555 1_555
H43A C42A 1_555 1_555
C43A C39A 1_555 1_555
C44A C43A 1_555 1_555
H44A C44A 1_555 1_555
H45A C44A 1_555 1_555
H46A C44A 1_555 1_555
C45A C43A 1_555 1_555
H47A C45A 1_555 1_555
H48A C45A 1_555 1_555
H49A C45A 1_555 1_555
C46A C43A 1_555 1_555
H50A C46A 1_555 1_555
H51A C46A 1_555 1_555
H52A C46A 1_555 1_555
C47A C41A 1_555 1_555
H53A C47A 1_555 1_555
H54A C47A 1_555 1_555
C48A C47A 1_555 1_555
C49A C48A 1_555 1_555
H55A C49A 1_555 1_555
C50A C49A 1_555 1_555
C51A C52 1_555 1_555
H56A C51A 1_555 1_555
C52A C51 1_555 1_555
C53A C52 1_555 1_555
C54A C50A 1_555 1_555
C55A C54A 1_555 1_555
H57A C55A 1_555 1_555
H58A C55A 1_555 1_555
H59A C55A 1_555 1_555
C56A C54A 1_555 1_555
H60A C56A 1_555 1_555
H61A C56A 1_555 1_555
H62A C56A 1_555 1_555
C57A C54A 1_555 1_555
H63A C57A 1_555 1_555
H64A C57A 1_555 1_555
H65A C57A 1_555 1_555
C5 C6 1_555 1_555
C12 C13 1_555 1_555
C20 C25 1_555 1_555
C25 C24A 1_555 1_555
C33 C34 1_555 1_555
C40 C41 1_555 1_555
C48 C53 1_555 1_555
C53 C52A 1_555 1_555
O3A C25A 1_555 1_555
O6A C53A 1_555 1_555
C5A C6A 1_555 1_555
C12A C13A 1_555 1_555
C14A C24A 1_555 1_555
C20A C25A 1_555 1_555
C22A C23A 1_555 1_555
C33A C34A 1_555 1_555
C40A C41A 1_555 1_555
C42A C52A 1_555 1_555
C48A C53A 1_555 1_555
C50A C51A 1_555 1_555

#END
