
#######################################################################
#
#                 Cambridge Crystallographic Data Centre
#                                CCDC 
#
#######################################################################
#
# If this CIF has been generated from an entry in the Cambridge 
# Structural Database, then it will include bibliographic, chemical, 
# crystal, experimental, refinement or atomic coordinate data resulting 
# from the CCDC's data processing and validation procedures.
#
#######################################################################

data_VAMXEO
_symmetry_cell_setting           monoclinic
_symmetry_space_group_name_H-M   'P c'
_symmetry_Int_Tables_number      7
_space_group_name_Hall           'P -2yc'
loop_
_symmetry_equiv_pos_site_id
_symmetry_equiv_pos_as_xyz
1 x,y,z
2 x,-y,1/2+z
_cell_length_a                   8.3585(8)
_cell_length_b                   20.3147(9)
_cell_length_c                   11.0912(10)
_cell_angle_alpha                90
_cell_angle_beta                 112.0460(10)
_cell_angle_gamma                90
_cell_volume                     1745.59
loop_
_atom_site_label
_atom_site_type_symbol
_atom_site_fract_x
_atom_site_fract_y
_atom_site_fract_z
Zn1 Zn 1.04766(4) 0.62288(2) 0.77297(3)
Zn2 Zn 0.53177(4) 0.126521(19) 0.49946(3)
N1 N 1.2188(6) 0.62452(14) 0.6813(4)
C1 C 1.1714(6) 0.6529(3) 0.5633(5)
H1 H 1.0678 0.6760 0.5319
C2 C 1.2674(6) 0.6494(2) 0.4875(4)
H2 H 1.2313 0.6711 0.4079
C3 C 1.4204(7) 0.6131(2) 0.5304(5)
C4 C 1.4723(5) 0.5846(2) 0.6536(3)
H3 H 1.5747 0.5609 0.6876
C5 C 1.3679(6) 0.5925(2) 0.7233(4)
H4 H 1.4047 0.5741 0.8061
N2 N 1.5133(5) 0.6049(2) 0.4535(4)
H5 H 1.5804 0.5715 0.4633
N3 N 1.4963(4) 0.6518(2) 0.3595(3)
H6 H 1.5492 0.6887 0.3826
N4 N 1.2004(6) 0.62583(13) -0.0338(4)
C6 C 1.2869(5) 0.6820(2) 0.0139(4)
H7 H 1.2801 0.7160 -0.0441
C7 C 1.3836(5) 0.6919(2) 0.1422(3)
H8 H 1.4395 0.7319 0.1703
C8 C 1.3980(5) 0.6416(2) 0.2305(4)
C9 C 1.3078(6) 0.5837(2) 0.1838(4)
H9 H 1.3110 0.5493 0.2400
C10 C 1.2132(6) 0.5783(2) 0.0518(4)
H10 H 1.1549 0.5391 0.0210
N5 N 0.3745(6) 0.12089(14) 0.3080(4)
C11 C 0.2818(5) 0.06585(19) 0.2622(3)
H11 H 0.2838 0.0331 0.3214
C12 C 0.1847(5) 0.05528(19) 0.1331(3)
H12 H 0.1237 0.0162 0.1061
C13 C 0.1791(6) 0.1041(2) 0.0433(4)
C14 C 0.2724(6) 0.1611(2) 0.0886(4)
H13 H 0.2719 0.1947 0.0315
C15 C 0.3669(6) 0.1671(2) 0.2211(4)
H14 H 0.4287 0.2058 0.2508
N6 N 0.0880(4) 0.09264(19) -0.0854(3)
H15 H 0.0444 0.0543 -0.1096
N7 N 0.0639(5) 0.1413(2) -0.1785(4)
H16 H -0.0081 0.1730 -0.1881
N8 N 0.3658(6) 0.12930(14) -0.4055(4)
C16 C 0.4238(6) 0.1098(2) -0.2803(4)
H17 H 0.5362 0.0940 -0.2435
C17 C 0.3287(5) 0.1116(2) -0.2045(4)
H18 H 0.3753 0.0965 -0.1192
C18 C 0.1615(7) 0.1363(2) -0.2548(4)
C19 C 0.0990(5) 0.1566(2) -0.3841(3)
H19 H -0.0129 0.1727 -0.4229
C20 C 0.2044(5) 0.1526(2) -0.4540(4)
H20 H 0.1608 0.1670 -0.5398
C21 C 0.8434(6) 0.4396(2) 0.6397(4)
C22 C 0.8599(6) 0.4025(2) 0.7491(5)
H21 H 0.8975 0.4222 0.8307
C23 C 0.8202(6) 0.3359(2) 0.7360(5)
H22 H 0.8306 0.3112 0.8092
C24 C 0.7650(6) 0.3057(2) 0.6148(4)
C25 C 0.7537(7) 0.3428(2) 0.5064(4)
H23 H 0.7194 0.3229 0.4252
C26 C 0.7925(7) 0.4083(2) 0.5185(5)
H24 H 0.7850 0.4325 0.4454
C27 C 0.8871(5) 0.5115(2) 0.6511(4)
O1 O 0.8577(4) 0.54499(15) 0.5511(3)
O2 O 0.9501(5) 0.53558(13) 0.7651(3)
C28 C 0.7121(6) 0.2350(2) 0.6062(4)
O3 O 0.7297(4) 0.20256(14) 0.7020(3)
O4 O 0.6402(4) 0.21129(14) 0.4886(3)
C29 C 0.7504(5) -0.0588(2) 0.6403(4)
C30 C 0.7860(7) -0.0948(3) 0.7553(5)
H25 H 0.7907 -0.0737 0.8309
C31 C 0.8143(7) -0.1622(3) 0.7558(5)
H26 H 0.8377 -0.1859 0.8323
C32 C 0.8083(5) -0.1947(2) 0.6444(4)
C33 C 0.7724(6) -0.1582(2) 0.5302(4)
H27 H 0.7675 -0.1794 0.4545
C34 C 0.7448(6) -0.0924(2) 0.5287(5)
H28 H 0.7215 -0.0690 0.4518
C35 C 0.7211(5) 0.01388(19) 0.6397(4)
O5 O 0.7763(4) 0.04444(15) 0.7432(3)
O6 O 0.6377(4) 0.03969(14) 0.5281(3)
C36 C 0.8484(6) -0.2663(2) 0.6469(4)
O7 O 0.7993(4) -0.29705(15) 0.5410(3)
O8 O 0.9359(5) -0.29156(14) 0.7557(3)
Zn1_2 Zn 1.04766(4) -0.37712(2) 0.77297(3)
Zn1_3 Zn 1.04766(4) 0.62288(2) -0.22703(3)
Zn2_2 Zn 0.53177(4) 0.126521(19) -0.50054(3)
N4_2 N 1.2004(6) 0.62583(13) 0.9662(4)
N8_2 N 0.3658(6) 0.12930(14) 0.5945(4)
O8_2 O 0.9359(5) 0.70844(14) 0.7557(3)
loop_
_geom_bond_atom_site_label_1
_geom_bond_atom_site_label_2
_geom_bond_site_symmetry_1
_geom_bond_site_symmetry_2
Zn1 N1 1_555 1_555
Zn2 N5 1_555 1_555
N1 C1 1_555 1_555
C1 H1 1_555 1_555
C2 C1 1_555 1_555
H2 C2 1_555 1_555
C3 C2 1_555 1_555
C4 C3 1_555 1_555
H3 C4 1_555 1_555
C5 N1 1_555 1_555
H4 C5 1_555 1_555
N2 C3 1_555 1_555
H5 N2 1_555 1_555
N3 N2 1_555 1_555
H6 N3 1_555 1_555
N4 C6 1_555 1_555
C6 H7 1_555 1_555
C7 C6 1_555 1_555
H8 C7 1_555 1_555
C8 N3 1_555 1_555
C9 C8 1_555 1_555
H9 C9 1_555 1_555
C10 N4 1_555 1_555
H10 C10 1_555 1_555
N5 C11 1_555 1_555
C11 H11 1_555 1_555
C12 C11 1_555 1_555
H12 C12 1_555 1_555
C13 C12 1_555 1_555
C14 C13 1_555 1_555
H13 C14 1_555 1_555
C15 N5 1_555 1_555
H14 C15 1_555 1_555
N6 C13 1_555 1_555
H15 N6 1_555 1_555
N7 N6 1_555 1_555
H16 N7 1_555 1_555
N8 C16 1_555 1_555
C16 H17 1_555 1_555
C17 C16 1_555 1_555
H18 C17 1_555 1_555
C18 N7 1_555 1_555
C19 C18 1_555 1_555
H19 C19 1_555 1_555
C20 N8 1_555 1_555
H20 C20 1_555 1_555
C21 C22 1_555 1_555
C22 H21 1_555 1_555
C23 C22 1_555 1_555
H22 C23 1_555 1_555
C24 C23 1_555 1_555
C25 C24 1_555 1_555
H23 C25 1_555 1_555
C26 C21 1_555 1_555
H24 C26 1_555 1_555
C27 C21 1_555 1_555
O1 C27 1_555 1_555
O2 Zn1 1_555 1_555
C28 C24 1_555 1_555
O3 C28 1_555 1_555
O4 Zn2 1_555 1_555
C29 C30 1_555 1_555
C30 H25 1_555 1_555
C31 C30 1_555 1_555
H26 C31 1_555 1_555
C32 C31 1_555 1_555
C33 C32 1_555 1_555
H27 C33 1_555 1_555
C34 C29 1_555 1_555
H28 C34 1_555 1_555
C35 C29 1_555 1_555
O5 C35 1_555 1_555
O6 Zn2 1_555 1_555
C36 C32 1_555 1_555
O7 C36 1_555 1_555
O8 C36 1_555 1_555
Zn1_2 O8 1_555 1_555
Zn1_3 N4 1_555 1_555
Zn2_2 N8 1_555 1_555
N4_2 Zn1 1_555 1_555
N8_2 Zn2 1_555 1_555
O8_2 Zn1 1_555 1_555
C4 C5 1_555 1_555
C7 C8 1_555 1_555
C9 C10 1_555 1_555
C14 C15 1_555 1_555
C17 C18 1_555 1_555
C19 C20 1_555 1_555
C25 C26 1_555 1_555
C27 O2 1_555 1_555
C28 O4 1_555 1_555
C33 C34 1_555 1_555
C35 O6 1_555 1_555

#END
