
#######################################################################
#
#                 Cambridge Crystallographic Data Centre
#                                CCDC 
#
#######################################################################
#
# If this CIF has been generated from an entry in the Cambridge 
# Structural Database, then it will include bibliographic, chemical, 
# crystal, experimental, refinement or atomic coordinate data resulting 
# from the CCDC's data processing and validation procedures.
#
#######################################################################

data_VAMXAK
_symmetry_cell_setting           monoclinic
_symmetry_space_group_name_H-M   'C 2/c'
_symmetry_Int_Tables_number      15
_space_group_name_Hall           '-C 2yn'
loop_
_symmetry_equiv_pos_site_id
_symmetry_equiv_pos_as_xyz
1 x,y,z
2 -x,y,1/2-z
3 1/2+x,1/2+y,z
4 1/2-x,1/2+y,1/2-z
5 -x,-y,-z
6 x,-y,1/2+z
7 1/2-x,1/2-y,-z
8 1/2+x,1/2-y,1/2+z
_cell_length_a                   31.7790(5)
_cell_length_b                   16.7618(3)
_cell_length_c                   23.1651(4)
_cell_angle_alpha                90
_cell_angle_beta                 116.4810(10)
_cell_angle_gamma                90
_cell_volume                     11044.8
loop_
_atom_site_label
_atom_site_type_symbol
_atom_site_fract_x
_atom_site_fract_y
_atom_site_fract_z
Zn1 Zn 0.078670(14) 0.82676(2) 0.454429(18)
Zn2 Zn 0.227114(13) 0.49087(2) 0.195530(18)
N1 N 0.27033(10) 0.59775(19) 0.47166(14)
H1 H 0.2970 0.6208 0.4932
N2 N 0.23966(11) 0.5902(2) 0.49873(14)
H2 H 0.2417 0.5489 0.5219
N3 N 0.23938(10) 0.52065(16) 0.28686(13)
C1 C 0.20799(13) 0.5163(2) 0.31012(18)
H3 H 0.1784 0.4962 0.2830
C2 C 0.21588(12) 0.5391(2) 0.37058(18)
H4 H 0.1924 0.5340 0.3838
C3 C 0.25916(12) 0.5696(2) 0.41174(17)
C4 C 0.29276(12) 0.5741(2) 0.38855(18)
H5 H 0.3228 0.5932 0.4148
C5 C 0.28133(13) 0.5505(2) 0.32763(19)
H6 H 0.3041 0.5552 0.3130
N4 N 0.13378(9) 0.75312(16) 0.46894(13)
C6 C 0.15754(13) 0.7542(2) 0.43407(16)
H7 H 0.1489 0.7922 0.4015
C7 C 0.19350(13) 0.7041(2) 0.44226(16)
H8 H 0.2090 0.7089 0.4166
C8 C 0.20657(12) 0.6458(2) 0.48973(16)
C9 C 0.18244(14) 0.6443(2) 0.52727(18)
H9 H 0.1900 0.6067 0.5599
C10 C 0.14793(14) 0.6979(2) 0.51578(18)
H10 H 0.1329 0.6965 0.5422
N5 N 0.01852(10) 0.76276(18) 0.40347(15)
C11 C 0.01475(15) 0.7183(3) 0.3544(2)
H11 H 0.0422 0.7061 0.3513
C12 C -0.02601(15) 0.6892(3) 0.3083(2)
H12 H -0.0259 0.6583 0.2750
C13 C -0.06791(14) 0.7052(2) 0.31068(19)
C14 C -0.06455(13) 0.7490(2) 0.3624(2)
H13 H -0.0914 0.7601 0.3675
C15 C -0.02141(15) 0.7766(2) 0.40697(19)
H14 H -0.0202 0.8067 0.4414
N6 N -0.10955(11) 0.67995(17) 0.26238(16)
H15 H -0.1099 0.6593 0.2282
N7 N -0.15076(10) 0.68678(17) 0.26738(15)
H16 H -0.1599 0.6478 0.2831
N8 N -0.23342(9) 0.88985(16) 0.21248(13)
C16 C -0.19451(13) 0.8838(2) 0.20432(16)
H17 H -0.1863 0.9269 0.1862
C17 C -0.16618(12) 0.8184(2) 0.22082(16)
H18 H -0.1396 0.8175 0.2138
C18 C -0.17719(12) 0.7534(2) 0.24805(16)
C19 C -0.21789(13) 0.7583(2) 0.25660(18)
H19 H -0.2271 0.7158 0.2741
C20 C -0.24370(12) 0.8264(2) 0.23881(19)
H20 H -0.2705 0.8291 0.2454
O1 O 0.25402(8) 0.59042(13) 0.17702(12)
O2 O 0.23505(10) 0.51570(16) 0.09156(12)
C21 C 0.24696(11) 0.5812(2) 0.11930(19)
C22 C 0.26916(12) 0.7246(2) 0.11592(17)
H21 H 0.2781 0.7282 0.1599
C23 C 0.25199(12) 0.6519(2) 0.08381(18)
C24 C 0.23850(12) 0.6470(2) 0.01905(18)
H22 H 0.2274 0.5988 -0.0021
C25 C 0.24114(12) 0.71415(19) -0.01645(16)
C26 C 0.27284(13) 0.7897(2) 0.08358(18)
H23 H 0.2846 0.8372 0.1057
O3 O 0.14880(9) 0.5773(2) 0.14115(14)
O4 O 0.16282(9) 0.44852(18) 0.14893(12)
C27 C 0.13543(14) 0.5072(3) 0.12735(19)
C28 C 0.06776(14) 0.4123(3) 0.0697(2)
H24 H 0.0876 0.3701 0.0910
C29 C 0.08480(13) 0.4915(3) 0.08181(18)
C30 C 0.05546(13) 0.5528(3) 0.05140(19)
H25 H 0.0667 0.6048 0.0606
C31 C 0.00833(12) 0.5398(2) 0.00618(18)
C32 C 0.02225(14) 0.3980(3) 0.0268(2)
H26 H 0.0113 0.3457 0.0193
O5 O 0.07236(9) 0.88774(16) 0.37870(11)
O6 O 0.13785(10) 0.95010(16) 0.44260(14)
C33 C 0.10460(15) 0.9387(2) 0.38914(19)
C34 C 0.10214(12) 0.9846(2) 0.33256(18)
C35 C 0.13209(14) 1.0498(3) 0.3412(2)
H27 H 0.1527 1.0656 0.3828
C36 C 0.13172(14) 1.0901(3) 0.2903(2)
H28 H 0.1516 1.1336 0.2973
C37 C 0.10153(12) 1.0667(2) 0.22765(19)
C38 C 0.10127(16) 1.1065(3) 0.1720(3)
H29 H 0.1217 1.1489 0.1782
C39 C 0.07207(17) 1.0836(3) 0.1115(2)
C40 C 0.04085(18) 1.0204(3) 0.1032(2)
H30 H 0.0204 1.0047 0.0615
C41 C 0.03922(15) 0.9808(2) 0.15388(19)
H31 H 0.0178 0.9396 0.1466
C42 C 0.07007(13) 1.0031(2) 0.21631(18)
C43 C 0.07132(13) 0.9619(2) 0.27194(18)
H32 H 0.0509 0.9196 0.2662
C44 C 0.0741(2) 1.1227(4) 0.0539(3)
O7 O 0.0524(2) 1.0919(2) 0.0012(2)
O8 O 0.09469(14) 1.1834(4) 0.0598(2)
Zn1E Zn 0.078670(14) 1.17324(2) 0.954429(18)
Zn1E_2 Zn 0.078670(14) 1.17324(2) -0.045571(18)
Zn1B Zn 0.578670(14) 0.32676(2) 0.454429(18)
Zn2B Zn -0.272886(13) 0.99087(2) 0.195530(18)
Zn2F Zn 0.272886(13) 1.00913(2) -0.195530(18)
Zn2D Zn -0.227114(13) 0.50913(2) -0.195530(18)
Zn2E Zn 0.227114(13) 1.50913(2) 0.695530(18)
N1E N 0.27033(10) 1.40225(19) 0.97166(14)
H1E H 0.2970 1.3792 0.9932
N2E N 0.23966(11) 1.4098(2) 0.99873(14)
H2E H 0.2417 1.4511 1.0219
N3E N 0.23938(10) 1.47935(16) 0.78686(13)
N3B N -0.26062(10) 1.02065(16) 0.28686(13)
C1E C 0.20799(13) 1.4837(2) 0.81012(18)
H3E H 0.1784 1.5038 0.7830
C2E C 0.21588(12) 1.4609(2) 0.87058(18)
H4E H 0.1924 1.4660 0.8838
C3E C 0.25916(12) 1.4304(2) 0.91174(17)
C4E C 0.29276(12) 1.4259(2) 0.88855(18)
H5E H 0.3228 1.4068 0.9148
C5E C 0.28133(13) 1.4495(2) 0.82763(19)
H6E H 0.3041 1.4448 0.8130
N4E N 0.13378(9) 1.24688(16) 0.96894(13)
C6E C 0.15754(13) 1.2458(2) 0.93407(16)
H7E H 0.1489 1.2078 0.9015
C7E C 0.19350(13) 1.2959(2) 0.94226(16)
H8E H 0.2090 1.2911 0.9166
C8E C 0.20657(12) 1.3542(2) 0.98973(16)
C9E C 0.18244(14) 1.3557(2) 1.02727(18)
H9E H 0.1900 1.3933 1.0599
C10E C 0.14793(14) 1.3021(2) 1.01578(18)
H10E H 0.1329 1.3035 1.0422
N5B N 0.51852(10) 0.26276(18) 0.40347(15)
N5E N 0.01852(10) 1.23724(18) 0.90347(15)
C11B C 0.51475(15) 0.2183(3) 0.3544(2)
H11B H 0.5422 0.2061 0.3513
C12B C 0.47399(15) 0.1892(3) 0.3083(2)
H12B H 0.4741 0.1583 0.2750
C13B C 0.43209(14) 0.2052(2) 0.31068(19)
C14B C 0.43545(13) 0.2490(2) 0.3624(2)
H13B H 0.4086 0.2601 0.3675
C15B C 0.47859(15) 0.2766(2) 0.40697(19)
H14B H 0.4798 0.3067 0.4414
N6B N 0.39045(11) 0.17995(17) 0.26238(16)
H15B H 0.3901 0.1593 0.2282
N7B N 0.34924(10) 0.18678(17) 0.26738(15)
H16B H 0.3401 0.1478 0.2831
N8B N 0.26658(9) 0.38985(16) 0.21248(13)
C16B C 0.30549(13) 0.3838(2) 0.20432(16)
H17B H 0.3137 0.4269 0.1862
C17B C 0.33382(12) 0.3184(2) 0.22082(16)
H18B H 0.3604 0.3175 0.2138
C18B C 0.32281(12) 0.2534(2) 0.24805(16)
C19B C 0.28211(13) 0.2583(2) 0.25660(18)
H19B H 0.2729 0.2158 0.2741
C20B C 0.25630(12) 0.3264(2) 0.23881(19)
H20B H 0.2295 0.3291 0.2454
O1F O 0.24598(8) 0.90958(13) -0.17702(12)
O1B O -0.24598(8) 1.09042(13) 0.17702(12)
O2F O 0.26495(10) 0.98430(16) -0.09156(12)
C21F C 0.25304(11) 0.9188(2) -0.11930(19)
C22F C 0.23084(12) 0.7754(2) -0.11592(17)
H21F H 0.2219 0.7718 -0.1599
C23F C 0.24801(12) 0.8481(2) -0.08381(18)
C24F C 0.26150(12) 0.8530(2) -0.01905(18)
H22F H 0.2726 0.9012 0.0021
C25F C 0.25886(12) 0.78585(19) 0.01645(16)
C26F C 0.22716(13) 0.7103(2) -0.08358(18)
H23F H 0.2154 0.6628 -0.1057
O3D O -0.14880(9) 0.4227(2) -0.14115(14)
O4D O -0.16282(9) 0.55148(18) -0.14893(12)
O4B O -0.33718(9) 0.94852(18) 0.14893(12)
C27D C -0.13543(14) 0.4928(3) -0.12735(19)
C28D C -0.06776(14) 0.5877(3) -0.0697(2)
H24D H -0.0876 0.6299 -0.0910
C29D C -0.08480(13) 0.5085(3) -0.08181(18)
C30D C -0.05546(13) 0.4472(3) -0.05140(19)
H25D H -0.0667 0.3952 -0.0606
C31D C -0.00833(12) 0.4602(2) -0.00618(18)
C32D C -0.02225(14) 0.6020(3) -0.0268(2)
H26D H -0.0113 0.6543 -0.0193
O5E O 0.07236(9) 1.11226(16) 0.87870(11)
O6E O 0.13785(10) 1.04990(16) 0.94260(14)
C33E C 0.10460(15) 1.0613(2) 0.88914(19)
C34E C 0.10214(12) 1.0154(2) 0.83256(18)
C35E C 0.13209(14) 0.9502(3) 0.8412(2)
H27E H 0.1527 0.9344 0.8828
C36E C 0.13172(14) 0.9099(3) 0.7903(2)
H28E H 0.1516 0.8664 0.7973
C37E C 0.10153(12) 0.9333(2) 0.72765(19)
C38E C 0.10127(16) 0.8935(3) 0.6720(3)
H29E H 0.1217 0.8511 0.6782
C39E C 0.07207(17) 0.9164(3) 0.6115(2)
C40E C 0.04085(18) 0.9796(3) 0.6032(2)
H30E H 0.0204 0.9953 0.5615
C41E C 0.03922(15) 1.0192(2) 0.65388(19)
H31E H 0.0178 1.0604 0.6466
C42E C 0.07007(13) 0.9969(2) 0.71631(18)
C43E C 0.07132(13) 1.0381(2) 0.77194(18)
H32E H 0.0509 1.0804 0.7662
C44E C 0.0741(2) 0.8773(4) 0.5539(3)
O7E O 0.0524(2) 0.9081(2) 0.5012(2)
O7_2 O 0.0524(2) 1.0919(2) 1.0012(2)
O8E O 0.09469(14) 0.8166(4) 0.5598(2)
O8_2 O 0.09469(14) 1.1834(4) 1.0598(2)
loop_
_geom_bond_atom_site_label_1
_geom_bond_atom_site_label_2
_geom_bond_site_symmetry_1
_geom_bond_site_symmetry_2
Zn1 N4 1_555 1_555
Zn2 N3 1_555 1_555
N1 H1 1_555 1_555
N2 N1 1_555 1_555
H2 N2 1_555 1_555
N3 C1 1_555 1_555
C1 H3 1_555 1_555
C2 C1 1_555 1_555
H4 C2 1_555 1_555
C3 N1 1_555 1_555
C4 C3 1_555 1_555
H5 C4 1_555 1_555
C5 N3 1_555 1_555
H6 C5 1_555 1_555
N4 C6 1_555 1_555
C6 H7 1_555 1_555
C7 C6 1_555 1_555
H8 C7 1_555 1_555
C8 N2 1_555 1_555
C9 C8 1_555 1_555
H9 C9 1_555 1_555
C10 N4 1_555 1_555
H10 C10 1_555 1_555
N5 Zn1 1_555 1_555
C11 N5 1_555 1_555
H11 C11 1_555 1_555
C12 C11 1_555 1_555
H12 C12 1_555 1_555
C13 C12 1_555 1_555
C14 C13 1_555 1_555
H13 C14 1_555 1_555
C15 N5 1_555 1_555
H14 C15 1_555 1_555
N6 C13 1_555 1_555
H15 N6 1_555 1_555
N7 N6 1_555 1_555
H16 N7 1_555 1_555
N8 C16 1_555 1_555
C16 H17 1_555 1_555
C17 C16 1_555 1_555
H18 C17 1_555 1_555
C18 N7 1_555 1_555
C19 C18 1_555 1_555
H19 C19 1_555 1_555
C20 N8 1_555 1_555
H20 C20 1_555 1_555
O1 Zn2 1_555 1_555
O2 C21 1_555 1_555
C21 O1 1_555 1_555
C22 H21 1_555 1_555
C23 C21 1_555 1_555
C24 C23 1_555 1_555
H22 C24 1_555 1_555
C25 C24 1_555 1_555
C26 C22 1_555 1_555
H23 C26 1_555 1_555
O3 C27 1_555 1_555
O4 Zn2 1_555 1_555
C27 O4 1_555 1_555
C28 H24 1_555 1_555
C29 C27 1_555 1_555
C30 C29 1_555 1_555
H25 C30 1_555 1_555
C31 C30 1_555 1_555
C32 C28 1_555 1_555
H26 C32 1_555 1_555
O5 Zn1 1_555 1_555
O6 C33 1_555 1_555
C33 O5 1_555 1_555
C34 C33 1_555 1_555
C35 C34 1_555 1_555
H27 C35 1_555 1_555
C36 C35 1_555 1_555
H28 C36 1_555 1_555
C37 C36 1_555 1_555
C38 C37 1_555 1_555
H29 C38 1_555 1_555
C39 C38 1_555 1_555
C40 C39 1_555 1_555
H30 C40 1_555 1_555
C41 C40 1_555 1_555
H31 C41 1_555 1_555
C42 C37 1_555 1_555
C43 C34 1_555 1_555
H32 C43 1_555 1_555
C44 C39 1_555 1_555
O7 C44 1_555 1_555
O8 C44 1_555 1_555
Zn1E N4E 1_555 1_555
Zn1E_2 O7 1_555 1_555
Zn1B N5B 1_555 1_555
Zn2B N8 1_555 1_555
Zn2F O1F 1_555 1_555
Zn2D O4D 1_555 1_555
Zn2E N3E 1_555 1_555
N1E H1E 1_555 1_555
N2E N1E 1_555 1_555
H2E N2E 1_555 1_555
N3E C1E 1_555 1_555
N3B Zn2B 1_555 1_555
C1E H3E 1_555 1_555
C2E C1E 1_555 1_555
H4E C2E 1_555 1_555
C3E N1E 1_555 1_555
C4E C3E 1_555 1_555
H5E C4E 1_555 1_555
C5E N3E 1_555 1_555
H6E C5E 1_555 1_555
N4E C6E 1_555 1_555
C6E H7E 1_555 1_555
C7E C6E 1_555 1_555
H8E C7E 1_555 1_555
C8E N2E 1_555 1_555
C9E C8E 1_555 1_555
H9E C9E 1_555 1_555
C10E N4E 1_555 1_555
H10E C10E 1_555 1_555
N5B C11B 1_555 1_555
N5E Zn1E 1_555 1_555
C11B H11B 1_555 1_555
C12B C11B 1_555 1_555
H12B C12B 1_555 1_555
C13B C12B 1_555 1_555
C14B C13B 1_555 1_555
H13B C14B 1_555 1_555
C15B N5B 1_555 1_555
H14B C15B 1_555 1_555
N6B C13B 1_555 1_555
H15B N6B 1_555 1_555
N7B N6B 1_555 1_555
H16B N7B 1_555 1_555
N8B Zn2 1_555 1_555
C16B N8B 1_555 1_555
H17B C16B 1_555 1_555
C17B C16B 1_555 1_555
H18B C17B 1_555 1_555
C18B N7B 1_555 1_555
C19B C18B 1_555 1_555
H19B C19B 1_555 1_555
C20B N8B 1_555 1_555
H20B C20B 1_555 1_555
O1F C21F 1_555 1_555
O1B Zn2B 1_555 1_555
O2F C21F 1_555 1_555
C21F C23F 1_555 1_555
C22F H21F 1_555 1_555
C23F C22F 1_555 1_555
C24F C23F 1_555 1_555
H22F C24F 1_555 1_555
C25F C25 1_555 1_555
C26F C25 1_555 1_555
H23F C26F 1_555 1_555
O3D C27D 1_555 1_555
O4D C27D 1_555 1_555
O4B Zn2B 1_555 1_555
C27D C29D 1_555 1_555
C28D H24D 1_555 1_555
C29D C28D 1_555 1_555
C30D C29D 1_555 1_555
H25D C30D 1_555 1_555
C31D C31 1_555 1_555
C32D C31 1_555 1_555
H26D C32D 1_555 1_555
O5E Zn1E 1_555 1_555
O6E C33E 1_555 1_555
C33E O5E 1_555 1_555
C34E C33E 1_555 1_555
C35E C34E 1_555 1_555
H27E C35E 1_555 1_555
C36E C35E 1_555 1_555
H28E C36E 1_555 1_555
C37E C36E 1_555 1_555
C38E C37E 1_555 1_555
H29E C38E 1_555 1_555
C39E C38E 1_555 1_555
C40E C39E 1_555 1_555
H30E C40E 1_555 1_555
C41E C40E 1_555 1_555
H31E C41E 1_555 1_555
C42E C37E 1_555 1_555
C43E C34E 1_555 1_555
H32E C43E 1_555 1_555
C44E C39E 1_555 1_555
O7E Zn1 1_555 1_555
O7_2 Zn1E 1_555 1_555
O8E Zn1 1_555 1_555
O8_2 Zn1E 1_555 1_555
C2 C3 1_555 1_555
C4 C5 1_555 1_555
C7 C8 1_555 1_555
C9 C10 1_555 1_555
C14 C15 1_555 1_555
C17 C18 1_555 1_555
C19 C20 1_555 1_555
C22 C23 1_555 1_555
C26 C25F 1_555 1_555
C28 C29 1_555 1_555
C32 C31D 1_555 1_555
C41 C42 1_555 1_555
C42 C43 1_555 1_555
O8 Zn1E_2 1_555 1_555
C2E C3E 1_555 1_555
C4E C5E 1_555 1_555
C7E C8E 1_555 1_555
C9E C10E 1_555 1_555
C14B C15B 1_555 1_555
C17B C18B 1_555 1_555
C19B C20B 1_555 1_555
C22F C26F 1_555 1_555
C24F C25F 1_555 1_555
C28D C32D 1_555 1_555
C30D C31D 1_555 1_555
C41E C42E 1_555 1_555
C42E C43E 1_555 1_555
C44E O7E 1_555 1_555
C44E O8E 1_555 1_555

#END
