
#######################################################################
#
#                 Cambridge Crystallographic Data Centre
#                                CCDC 
#
#######################################################################
#
# If this CIF has been generated from an entry in the Cambridge 
# Structural Database, then it will include bibliographic, chemical, 
# crystal, experimental, refinement or atomic coordinate data resulting 
# from the CCDC's data processing and validation procedures.
#
#######################################################################

data_VAMYEN
_symmetry_cell_setting           monoclinic
_symmetry_space_group_name_H-M   'C c'
_symmetry_Int_Tables_number      9
_space_group_name_Hall           'C -2yc'
loop_
_symmetry_equiv_pos_site_id
_symmetry_equiv_pos_as_xyz
1 x,y,z
2 1/2+x,1/2+y,z
3 x,-y,1/2+z
4 1/2+x,1/2-y,1/2+z
_cell_length_a                   17.843(3)
_cell_length_b                   10.422(2)
_cell_length_c                   6.809(1)
_cell_angle_alpha                90
_cell_angle_beta                 106.49(1)
_cell_angle_gamma                90
_cell_volume                     1214.12
loop_
_atom_site_label
_atom_site_type_symbol
_atom_site_fract_x
_atom_site_fract_y
_atom_site_fract_z
Mn1 Mn 0.1640(2) 0.1052(1) 0.1667
Cl1 Cl 0.2366(2) 0.1042(3) 0.5528(4)
Cl2 Cl 0.0902(2) 0.1041(4) -0.1996(5)
O1 O -0.0171(6) 0.1271(8) 0.2356(14)
N1 N 0.0481(5) 0.1937(10) 0.2211(13)
C1 C 0.0325(4) 0.3101(7) 0.1883(12)
C2 C 0.1009(7) 0.3947(11) 0.1814(17)
N2 N 0.1630(8) 0.3288(4) 0.1613(17)
C3 C 0.0954(5) 0.5280(7) 0.1836(12)
C4 C 0.1607(11) 0.5946(5) 0.1703(22)
C5 C 0.2281(8) 0.5271(11) 0.1716(16)
C6 C 0.2303(7) 0.3931(11) 0.1702(14)
C7 C 0.2956(4) 0.3169(7) 0.1466(11)
N3 N 0.2811(6) 0.1939(10) 0.1377(15)
O2 O 0.3431(5) 0.1156(8) 0.1231(15)
C8 C -0.0465(7) 0.3673(13) 0.1922(20)
C9 C 0.3717(7) 0.3747(11) 0.1698(17)
H1 H 0.0068 0.0262 0.2524
H2 H 0.0491 0.5709 0.1942
H3 H 0.1596 0.6865 0.1601
H4 H 0.2746 0.5741 0.1740
H5 H 0.3184 0.0292 0.0791
H6 H -0.0470 0.4577 0.1650
H7 H -0.0541 0.3534 0.3246
H8 H -0.0878 0.3263 0.0895
H9 H 0.4004 0.3242 0.0978
H10 H 0.4001 0.3782 0.3124
H11 H 0.3650 0.4600 0.1144
Cl1B Cl 0.2366(2) -0.1042(3) 0.0528(4)
Cl2B Cl 0.0902(2) -0.1041(4) 0.3004(5)
Mn1B Mn 0.1640(2) -0.1052(1) 0.6667
Mn1B_2 Mn 0.1640(2) -0.1052(1) -0.3333
Cl1B_2 Cl 0.2366(2) -0.1042(3) 1.0528(4)
Cl2_2 Cl 0.0902(2) 0.1041(4) 0.8004(5)
N1B N 0.0481(5) -0.1937(10) 0.7211(13)
N2B N 0.1630(8) -0.3288(4) 0.6613(17)
N3B N 0.2811(6) -0.1939(10) 0.6377(15)
O1B O -0.0171(6) -0.1271(8) 0.7356(14)
C1B C 0.0325(4) -0.3101(7) 0.6883(12)
C2B C 0.1009(7) -0.3947(11) 0.6814(17)
C6B C 0.2303(7) -0.3931(11) 0.6702(14)
C7B C 0.2956(4) -0.3169(7) 0.6466(11)
O2B O 0.3431(5) -0.1156(8) 0.6231(15)
H1B H 0.0068 -0.0262 0.7524
C8B C -0.0465(7) -0.3673(13) 0.6922(20)
C3B C 0.0954(5) -0.5280(7) 0.6836(12)
C5B C 0.2281(8) -0.5271(11) 0.6716(16)
C9B C 0.3717(7) -0.3747(11) 0.6698(17)
H5B H 0.3184 -0.0292 0.5791
H6B H -0.0470 -0.4577 0.6650
H7B H -0.0541 -0.3534 0.8246
H8B H -0.0878 -0.3263 0.5895
C4B C 0.1607(11) -0.5946(5) 0.6703(22)
H2B H 0.0491 -0.5709 0.6942
H4B H 0.2746 -0.5741 0.6740
H9B H 0.4004 -0.3242 0.5978
H10B H 0.4001 -0.3782 0.8124
H11B H 0.3650 -0.4600 0.6144
H3B H 0.1596 -0.6865 0.6601
loop_
_geom_bond_atom_site_label_1
_geom_bond_atom_site_label_2
_geom_bond_site_symmetry_1
_geom_bond_site_symmetry_2
Mn1 Cl1 1_555 1_555
Cl1 Mn1B 1_555 1_555
Cl2 Mn1 1_555 1_555
O1 N1 1_555 1_555
N1 Mn1 1_555 1_555
C1 N1 1_555 1_555
C2 C1 1_555 1_555
N2 Mn1 1_555 1_555
C3 C2 1_555 1_555
C4 C3 1_555 1_555
C5 C4 1_555 1_555
C6 N2 1_555 1_555
C7 C6 1_555 1_555
N3 Mn1 1_555 1_555
O2 N3 1_555 1_555
C8 C1 1_555 1_555
C9 C7 1_555 1_555
H1 O1 1_555 1_555
H2 C3 1_555 1_555
H3 C4 1_555 1_555
H4 C5 1_555 1_555
H5 O2 1_555 1_555
H6 C8 1_555 1_555
H7 C8 1_555 1_555
H8 C8 1_555 1_555
H9 C9 1_555 1_555
H10 C9 1_555 1_555
H11 C9 1_555 1_555
Cl1B Mn1 1_555 1_555
Cl2B Mn1 1_555 1_555
Mn1B Cl2B 1_555 1_555
Mn1B_2 Cl2 1_555 1_555
Cl1B_2 Mn1B 1_555 1_555
Cl2_2 Mn1B 1_555 1_555
N1B Mn1B 1_555 1_555
N2B Mn1B 1_555 1_555
N3B Mn1B 1_555 1_555
O1B N1B 1_555 1_555
C1B N1B 1_555 1_555
C2B N2B 1_555 1_555
C6B N2B 1_555 1_555
C7B N3B 1_555 1_555
O2B N3B 1_555 1_555
H1B O1B 1_555 1_555
C8B C1B 1_555 1_555
C3B C2B 1_555 1_555
C5B C6B 1_555 1_555
C9B C7B 1_555 1_555
H5B O2B 1_555 1_555
H6B C8B 1_555 1_555
H7B C8B 1_555 1_555
H8B C8B 1_555 1_555
C4B C3B 1_555 1_555
H2B C3B 1_555 1_555
H4B C5B 1_555 1_555
H9B C9B 1_555 1_555
H10B C9B 1_555 1_555
H11B C9B 1_555 1_555
H3B C4B 1_555 1_555
C2 N2 1_555 1_555
C5 C6 1_555 1_555
C7 N3 1_555 1_555
Cl1B Mn1B_2 1_555 1_555
C1B C2B 1_555 1_555
C6B C7B 1_555 1_555
C5B C4B 1_555 1_555

#END
