
#######################################################################
#
#                 Cambridge Crystallographic Data Centre
#                                CCDC 
#
#######################################################################
#
# If this CIF has been generated from an entry in the Cambridge 
# Structural Database, then it will include bibliographic, chemical, 
# crystal, experimental, refinement or atomic coordinate data resulting 
# from the CCDC's data processing and validation procedures.
#
#######################################################################

data_VAMYEN01
_symmetry_cell_setting           monoclinic
_symmetry_space_group_name_H-M   'C 2/c'
_symmetry_Int_Tables_number      15
_space_group_name_Hall           '-C 2yn'
loop_
_symmetry_equiv_pos_site_id
_symmetry_equiv_pos_as_xyz
1 x,y,z
2 1/2+x,1/2+y,z
3 -x,y,1/2-z
4 1/2-x,1/2+y,1/2-z
5 -x,-y,-z
6 1/2-x,1/2-y,-z
7 x,-y,1/2+z
8 1/2+x,1/2-y,1/2+z
_cell_length_a                   17.843(3)
_cell_length_b                   10.422(2)
_cell_length_c                   6.809(1)
_cell_angle_alpha                90
_cell_angle_beta                 106.49(1)
_cell_angle_gamma                90
_cell_volume                     1214.12
loop_
_atom_site_label
_atom_site_type_symbol
_atom_site_fract_x
_atom_site_fract_y
_atom_site_fract_z
Mn1 Mn 0.0000 0.1052(8) 0.2500
Cl1 Cl 0.0733(5) 0.1042(1) 0.6265(2)
O1 O -0.1802(2) 0.1213(3) 0.3056(6)
N1 N -0.1166(2) 0.1938(3) 0.2929(5)
C1 C -0.1314(2) 0.3134(4) 0.2714(6)
C2 C -0.0645(2) 0.3936(4) 0.2565(6)
N2 N 0.0000 0.3282(4) 0.2500
C3 C -0.0662(3) 0.5271(4) 0.2556(6)
C4 C 0.0000 0.5939(6) 0.2500
C5 C -0.2093(3) 0.3712(6) 0.2602(12)
H1 H -0.2091(29) 0.4539(54) 0.2926(89)
H2 H -0.2334(40) 0.3283(64) 0.327(11)
H3 H -0.2402(44) 0.3672(75) 0.131(12)
H4 H -0.1122(23) 0.5717(38) 0.2651(63)
H5 H 0.0000 0.6784(52) 0.2500
H6 H -0.1620(27) 0.0535(46) 0.3252(80)
Cl1D Cl -0.0733(5) -0.1042(1) 0.3735(2)
Cl1B Cl -0.0733(5) 0.1042(1) -0.1265(2)
Cl1F Cl 0.0733(5) -0.1042(1) 0.1265(2)
N1B N 0.1166(2) 0.1938(3) 0.2071(5)
Mn1D Mn 0.0000 -0.1052(8) 0.7500
C2B C 0.0645(2) 0.3936(4) 0.2435(6)
C3B C 0.0662(3) 0.5271(4) 0.2444(6)
Mn1D_2 Mn 0.0000 -0.1052(8) -0.2500
O1B O 0.1802(2) 0.1213(3) 0.1944(6)
C1B C 0.1314(2) 0.3134(4) 0.2286(6)
Cl1B_2 Cl -0.0733(5) 0.1042(1) 0.8735(2)
Cl1F_2 Cl 0.0733(5) -0.1042(1) 1.1265(2)
N1D N 0.1166(2) -0.1938(3) 0.7071(5)
N1F N -0.1166(2) -0.1938(3) 0.7929(5)
N2D N 0.0000 -0.3282(4) 0.7500
H4B H 0.1122(23) 0.5717(38) 0.2349(63)
H6B H 0.1620(27) 0.0535(46) 0.1748(80)
C5B C 0.2093(3) 0.3712(6) 0.2398(12)
O1D O 0.1802(2) -0.1213(3) 0.6944(6)
C1D C 0.1314(2) -0.3134(4) 0.7286(6)
O1F O -0.1802(2) -0.1213(3) 0.8056(6)
C1F C -0.1314(2) -0.3134(4) 0.7714(6)
C2D C 0.0645(2) -0.3936(4) 0.7435(6)
C2F C -0.0645(2) -0.3936(4) 0.7565(6)
H1B H 0.2091(29) 0.4539(54) 0.2074(89)
H2B H 0.2334(40) 0.3283(64) 0.173(11)
H3B H 0.2402(44) 0.3672(75) 0.369(12)
H6D H 0.1620(27) -0.0535(46) 0.6748(80)
C5D C 0.2093(3) -0.3712(6) 0.7398(12)
H6F H -0.1620(27) -0.0535(46) 0.8252(80)
C5F C -0.2093(3) -0.3712(6) 0.7602(12)
C3D C 0.0662(3) -0.5271(4) 0.7444(6)
C3F C -0.0662(3) -0.5271(4) 0.7556(6)
H1D H 0.2091(29) -0.4539(54) 0.7074(89)
H2D H 0.2334(40) -0.3283(64) 0.673(11)
H3D H 0.2402(44) -0.3672(75) 0.869(12)
H1F H -0.2091(29) -0.4539(54) 0.7926(89)
H2F H -0.2334(40) -0.3283(64) 0.827(11)
H3F H -0.2402(44) -0.3672(75) 0.631(12)
C4D C 0.0000 -0.5939(6) 0.7500
H4D H 0.1122(23) -0.5717(38) 0.7349(63)
H4F H -0.1122(23) -0.5717(38) 0.7651(63)
H5D H 0.0000 -0.6784(52) 0.7500
loop_
_geom_bond_atom_site_label_1
_geom_bond_atom_site_label_2
_geom_bond_site_symmetry_1
_geom_bond_site_symmetry_2
Mn1 Cl1 1_555 1_555
Cl1 Mn1D 1_555 1_555
O1 N1 1_555 1_555
N1 Mn1 1_555 1_555
C1 N1 1_555 1_555
C2 C1 1_555 1_555
N2 Mn1 1_555 1_555
C3 C2 1_555 1_555
C4 C3 1_555 1_555
C5 C1 1_555 1_555
H1 C5 1_555 1_555
H2 C5 1_555 1_555
H3 C5 1_555 1_555
H4 C3 1_555 1_555
H5 C4 1_555 1_555
H6 O1 1_555 1_555
Cl1D Mn1 1_555 1_555
Cl1B Mn1 1_555 1_555
Cl1F Mn1 1_555 1_555
N1B Mn1 1_555 1_555
Mn1D Cl1D 1_555 1_555
C2B N2 1_555 1_555
C3B C4 1_555 1_555
Mn1D_2 Cl1B 1_555 1_555
O1B N1B 1_555 1_555
C1B N1B 1_555 1_555
Cl1B_2 Mn1D 1_555 1_555
Cl1F_2 Mn1D 1_555 1_555
N1D Mn1D 1_555 1_555
N1F Mn1D 1_555 1_555
N2D Mn1D 1_555 1_555
H4B C3B 1_555 1_555
H6B O1B 1_555 1_555
C5B C1B 1_555 1_555
O1D N1D 1_555 1_555
C1D N1D 1_555 1_555
O1F N1F 1_555 1_555
C1F N1F 1_555 1_555
C2D N2D 1_555 1_555
C2F N2D 1_555 1_555
H1B C5B 1_555 1_555
H2B C5B 1_555 1_555
H3B C5B 1_555 1_555
H6D O1D 1_555 1_555
C5D C1D 1_555 1_555
H6F O1F 1_555 1_555
C5F C1F 1_555 1_555
C3D C2D 1_555 1_555
C3F C2F 1_555 1_555
H1D C5D 1_555 1_555
H2D C5D 1_555 1_555
H3D C5D 1_555 1_555
H1F C5F 1_555 1_555
H2F C5F 1_555 1_555
H3F C5F 1_555 1_555
C4D C3D 1_555 1_555
H4D C3D 1_555 1_555
H4F C3F 1_555 1_555
H5D C4D 1_555 1_555
C2 N2 1_555 1_555
Cl1F Mn1D_2 1_555 1_555
C2B C1B 1_555 1_555
C2B C3B 1_555 1_555
C1D C2D 1_555 1_555
C1F C2F 1_555 1_555
C3F C4D 1_555 1_555

#END
