
#######################################################################
#
#                 Cambridge Crystallographic Data Centre
#                                CCDC 
#
#######################################################################
#
# If this CIF has been generated from an entry in the Cambridge 
# Structural Database, then it will include bibliographic, chemical, 
# crystal, experimental, refinement or atomic coordinate data resulting 
# from the CCDC's data processing and validation procedures.
#
#######################################################################

data_VANCUI
_symmetry_cell_setting           tetragonal
_symmetry_space_group_name_H-M   'P 41'
_symmetry_Int_Tables_number      76
_space_group_name_Hall           'P 4w'
loop_
_symmetry_equiv_pos_site_id
_symmetry_equiv_pos_as_xyz
1 x,y,z
2 -y,x,1/4+z
3 -x,-y,1/2+z
4 y,-x,3/4+z
_cell_length_a                   12.075(2)
_cell_length_b                   12.075(2)
_cell_length_c                   14.629(2)
_cell_angle_alpha                90
_cell_angle_beta                 90
_cell_angle_gamma                90
_cell_volume                     2132.99
loop_
_atom_site_label
_atom_site_type_symbol
_atom_site_fract_x
_atom_site_fract_y
_atom_site_fract_z
Sn1 Sn 0.54423(4) -0.00726(5) 0.06200(5)
O1 O 0.4495(5) 0.0386(6) 0.1794(4)
O2 O 0.2879(5) 0.0565(5) 0.1115(5)
N1 N 0.6787(5) -0.0604(6) -0.0667(5)
C1 C 0.3456(6) 0.0554(6) 0.1787(6)
C2 C 0.6830(6) -0.0051(7) 0.1519(6)
C3 C 0.7449(9) -0.1016(9) 0.1712(9)
C4 C 0.8331(10) -0.0935(12) 0.2342(10)
C5 C 0.8607(9) 0.0047(11) 0.2765(9)
C6 C 0.8081(10) 0.0957(10) 0.2521(8)
C7 C 0.7151(10) 0.0946(10) 0.1891(8)
C8 C 0.4621(6) -0.1628(7) 0.0406(7)
C9 C 0.4421(8) -0.2287(8) 0.1164(8)
C10 C 0.3884(9) -0.3317(9) 0.1089(11)
C11 C 0.3584(8) -0.3673(9) 0.0230(11)
C12 C 0.3761(9) -0.3047(10) -0.0536(10)
C13 C 0.4273(8) -0.1962(9) -0.0465(9)
C14 C 0.5144(8) 0.1381(8) -0.0181(7)
C15 C 0.5983(10) 0.2086(9) -0.0349(9)
C16 C 0.5812(12) 0.3081(10) -0.0897(9)
C17 C 0.4764(12) 0.3256(10) -0.1262(10)
C18 C 0.3997(11) 0.2480(13) -0.1140(11)
C19 C 0.4135(10) 0.1511(12) -0.0614(9)
C20 C 0.2962(6) 0.0715(6) 0.2719(6)
C21 C 0.7811(8) -0.1004(8) -0.0551(8)
C22 C 0.8485(8) -0.1285(8) -0.1291(9)
C23 C 0.1895(7) 0.1134(7) 0.2802(7)
C24 C 0.6414(6) -0.0471(6) -0.1515(6)
C24B C 0.3586(6) 0.0471(6) 0.3485(6)
C23B C 0.8105(7) -0.1134(7) -0.2198(7)
C22B C 0.1515(8) 0.1285(8) 0.3709(9)
C20B C 0.7038(6) -0.0715(6) -0.2281(6)
N1B N 0.3213(5) 0.0604(6) 0.4333(5)
C21B C 0.2189(8) 0.1004(8) 0.4449(8)
C1B C 0.6544(6) -0.0554(6) -0.3213(6)
Sn1B Sn 0.45577(4) 0.00726(5) 0.56200(5)
O1B O 0.5505(5) -0.0386(6) -0.3206(4)
O2B O 0.7121(5) -0.0565(5) -0.3885(5)
O1B_2 O 0.5505(5) -0.0386(6) 0.6794(4)
C2B C 0.3170(6) 0.0051(7) 0.6519(6)
C8B C 0.5379(6) 0.1628(7) 0.5406(7)
C14B C 0.4856(8) -0.1381(8) 0.4819(7)
Sn1B_2 Sn 0.45577(4) 0.00726(5) -0.43800(5)
C3B C 0.2551(9) 0.1016(9) 0.6712(9)
C7B C 0.2849(10) -0.0946(10) 0.6891(8)
C9B C 0.5579(8) 0.2287(8) 0.6164(8)
C13B C 0.5727(8) 0.1962(9) 0.4535(9)
C15B C 0.4017(10) -0.2086(9) 0.4651(9)
C19B C 0.5865(10) -0.1511(12) 0.4386(9)
C4B C 0.1669(10) 0.0935(12) 0.7342(10)
C6B C 0.1919(10) -0.0957(10) 0.7521(8)
C10B C 0.6116(9) 0.3317(9) 0.6089(11)
C12B C 0.6239(9) 0.3047(10) 0.4464(10)
C16B C 0.4188(12) -0.3081(10) 0.4103(9)
C18B C 0.6003(11) -0.2480(13) 0.3860(11)
C5B C 0.1393(9) -0.0047(11) 0.7765(9)
C11B C 0.6416(8) 0.3673(9) 0.5230(11)
C17B C 0.5236(12) -0.3256(10) 0.3738(10)
loop_
_geom_bond_atom_site_label_1
_geom_bond_atom_site_label_2
_geom_bond_site_symmetry_1
_geom_bond_site_symmetry_2
Sn1 O1 1_555 1_555
O1 C1 1_555 1_555
O2 C1 1_555 1_555
N1 Sn1 1_555 1_555
C1 C20 1_555 1_555
C2 Sn1 1_555 1_555
C3 C2 1_555 1_555
C4 C3 1_555 1_555
C5 C4 1_555 1_555
C6 C5 1_555 1_555
C7 C2 1_555 1_555
C8 Sn1 1_555 1_555
C9 C8 1_555 1_555
C10 C9 1_555 1_555
C11 C10 1_555 1_555
C12 C11 1_555 1_555
C13 C8 1_555 1_555
C14 Sn1 1_555 1_555
C15 C14 1_555 1_555
C16 C15 1_555 1_555
C17 C16 1_555 1_555
C18 C17 1_555 1_555
C19 C14 1_555 1_555
C20 C23 1_555 1_555
C21 N1 1_555 1_555
C22 C21 1_555 1_555
C23 C22B 1_555 1_555
C24 N1 1_555 1_555
C24B C20 1_555 1_555
C23B C22 1_555 1_555
C22B C21B 1_555 1_555
C20B C24 1_555 1_555
N1B C24B 1_555 1_555
C21B N1B 1_555 1_555
C1B C20B 1_555 1_555
Sn1B N1B 1_555 1_555
O1B C1B 1_555 1_555
O2B C1B 1_555 1_555
O1B_2 Sn1B 1_555 1_555
C2B Sn1B 1_555 1_555
C8B Sn1B 1_555 1_555
C14B Sn1B 1_555 1_555
Sn1B_2 O1B 1_555 1_555
C3B C2B 1_555 1_555
C7B C2B 1_555 1_555
C9B C8B 1_555 1_555
C13B C8B 1_555 1_555
C15B C14B 1_555 1_555
C19B C14B 1_555 1_555
C4B C3B 1_555 1_555
C6B C7B 1_555 1_555
C10B C9B 1_555 1_555
C12B C13B 1_555 1_555
C16B C15B 1_555 1_555
C18B C19B 1_555 1_555
C5B C4B 1_555 1_555
C11B C10B 1_555 1_555
C17B C16B 1_555 1_555
C6 C7 1_555 1_555
C12 C13 1_555 1_555
C18 C19 1_555 1_555
C23B C20B 1_555 1_555
C6B C5B 1_555 1_555
C12B C11B 1_555 1_555
C18B C17B 1_555 1_555

#END
