
#######################################################################
#
#                 Cambridge Crystallographic Data Centre
#                                CCDC 
#
#######################################################################
#
# If this CIF has been generated from an entry in the Cambridge 
# Structural Database, then it will include bibliographic, chemical, 
# crystal, experimental, refinement or atomic coordinate data resulting 
# from the CCDC's data processing and validation procedures.
#
#######################################################################

data_VANFAR
_symmetry_cell_setting           monoclinic
_symmetry_space_group_name_H-M   'P 21/n'
_symmetry_Int_Tables_number      14
_space_group_name_Hall           '-P 2yn'
loop_
_symmetry_equiv_pos_site_id
_symmetry_equiv_pos_as_xyz
1 x,y,z
2 1/2-x,1/2+y,1/2-z
3 -x,-y,-z
4 1/2+x,1/2-y,1/2+z
_cell_length_a                   9.894(2)
_cell_length_b                   10.697(2)
_cell_length_c                   23.560(3)
_cell_angle_alpha                90
_cell_angle_beta                 101.34(2)
_cell_angle_gamma                90
_cell_volume                     2444.82
loop_
_atom_site_label
_atom_site_type_symbol
_atom_site_fract_x
_atom_site_fract_y
_atom_site_fract_z
Mn1 Mn 1.0000 0.0000 1.0000
Cl1 Cl 2.3953(1) -0.7520(1) 0.9022(1)
Cl2 Cl 2.2187(1) -0.1920(1) 1.3995(1)
N1 N 1.2125(2) 0.0822(2) 1.0005(1)
N2 N 1.6142(3) 0.1001(3) 1.1183(1)
N3 N 2.0156(2) -0.0903(2) 0.9268(1)
N4 N 1.9064(2) 0.1434(2) 0.9524(1)
C1 C 1.3280(3) 0.0588(3) 1.0101(1)
C2 C 1.4697(3) 0.0311(3) 1.0211(1)
C3 C 1.5492(3) 0.0683(3) 1.0747(1)
C4 C 2.0760(3) -0.2051(2) 0.9226(1)
C5 C 2.0708(3) -0.2360(3) 0.8635(1)
C6 C 2.0089(3) -0.1402(3) 0.8312(1)
C7 C 1.9740(3) -0.0488(3) 0.8705(1)
C8 C 1.9099(3) 0.0653(3) 0.8542(1)
C9 C 1.8754(3) 0.1517(3) 0.8929(1)
C10 C 2.2000(3) -0.2647(3) 1.1237(1)
C11 C 2.2139(3) -0.3239(23) 1.0746(1)
C12 C 2.1471(3) -0.2491(2) 1.0269(1)
C13 C 2.1387(3) -0.2794(2) 0.9690(1)
C14 C 2.2033(3) -0.3995(2) 0.9548(1)
C15 C 2.1292(3) -0.5095(3) 0.9469(2)
C16 C 2.1882(4) -0.6192(3) 0.9322(2)
C17 C 2.3214(4) -0.6169(3) 0.9241(1)
C18 C 2.3972(4) -0.5093(3) 0.9317(2)
C19 C 2.3382(3) -0.4008(3) 0.9474(2)
C20 C 2.1228(3) -0.0967(3) 1.2092(1)
C21 C 2.2232(3) -0.0320(3) 1.2471(1)
C22 C 2.2537(3) -0.0623(3) 1.3055(1)
C23 C 2.1813(3) -0.1560(3) 1.3259(1)
C24 C 2.0803(3) -0.2230(3) 1.2894(1)
C25 C 2.0527(3) -0.1930(3) 1.2309(1)
H1 H 1.8952(3) 0.3104(3) 1.1507(1)
H2 H 2.0083(3) 0.1344(3) 1.2098(1)
H3 H 2.2340(3) -0.2927(3) 1.1621(1)
H4 H 2.2596(3) -0.4012(3) 1.0721(1)
H5 H 2.0361(3) -0.5100(3) 0.9517(2)
H6 H 2.1370(4) -0.6949(3) 0.9278(2)
H7 H 2.4898(4) -0.5091(3) 0.9263(2)
H8 H 2.3912(3) -0.3261(3) 0.9532(2)
H9 H 2.2718(3) 0.0339(3) 1.2329(1)
H10 H 2.3241(3) -0.0186(3) 1.3311(1)
H11 H 2.0310(3) -0.2879(3) 1.3040(1)
H12 H 1.9846(3) -0.2391(3) 1.2052(1)
C2B C 1.5303(3) -0.0311(3) 0.9789(1)
C1B C 1.6720(3) -0.0588(3) 0.9899(1)
N1B N 1.7875(2) -0.0822(2) 0.9995(1)
Mn1B Mn 2.0000 0.0000 1.0000
N1_2 N 2.2125(2) 0.0822(2) 1.0005(1)
N3B N 1.9844(2) 0.0903(2) 1.0732(1)
C4B C 1.9240(3) 0.2051(2) 1.0774(1)
C5B C 1.9292(3) 0.2360(3) 1.1365(1)
C6B C 1.9911(3) 0.1402(3) 1.1688(1)
C7B C 2.0260(3) 0.0488(3) 1.1295(1)
C8B C 2.0901(3) -0.0653(3) 1.1458(1)
C9B C 2.1246(3) -0.1517(3) 1.1071(1)
N4B N 2.0936(2) -0.1434(2) 1.0476(1)
C13B C 1.8613(3) 0.2794(2) 1.0310(1)
C12B C 1.8529(3) 0.2491(2) 0.9731(1)
C11B C 1.7861(3) 0.3239(23) 0.9254(1)
C10B C 1.8000(3) 0.2647(3) 0.8763(1)
H3B H 1.7660(3) 0.2927(3) 0.8379(1)
H4B H 1.7404(3) 0.4012(3) 0.9279(1)
C14B C 1.7967(3) 0.3995(2) 1.0452(1)
C15B C 1.8708(3) 0.5095(3) 1.0531(2)
C16B C 1.8118(4) 0.6192(3) 1.0678(2)
C17B C 1.6786(4) 0.6169(3) 1.0759(1)
Cl1B Cl 1.6047(1) 0.7520(1) 1.0978(1)
C18B C 1.6028(4) 0.5093(3) 1.0683(2)
C19B C 1.6618(3) 0.4008(3) 1.0526(2)
H8B H 1.6088(3) 0.3261(3) 1.0468(2)
H7B H 1.5102(4) 0.5091(3) 1.0737(2)
H6B H 1.8630(4) 0.6949(3) 1.0722(2)
H5B H 1.9639(3) 0.5100(3) 1.0483(2)
C20B C 1.8772(3) 0.0967(3) 0.7908(1)
C21B C 1.7768(3) 0.0320(3) 0.7529(1)
C22B C 1.7463(3) 0.0623(3) 0.6945(1)
C23B C 1.8187(3) 0.1560(3) 0.6741(1)
Cl2B Cl 1.7813(1) 0.1920(1) 0.6005(1)
C24B C 1.9197(3) 0.2230(3) 0.7106(1)
C25B C 1.9473(3) 0.1930(3) 0.7691(1)
H12B H 2.0154(3) 0.2391(3) 0.7948(1)
H11B H 1.9690(3) 0.2879(3) 0.6960(1)
H10B H 1.6759(3) 0.0186(3) 0.6689(1)
H9B H 1.7282(3) -0.0339(3) 0.7671(1)
H2B H 1.9917(3) -0.1344(3) 0.7902(1)
H1B H 2.1048(3) -0.3104(3) 0.8493(1)
C3B C 1.4508(3) -0.0683(3) 0.9253(1)
N2B N 1.3858(3) -0.1001(3) 0.8817(1)
Cl3 Cl 1.0406(1) 0.5897(1) 0.7280(1)
Cl4 Cl 1.2844(2) 0.4496(2) 0.7804(1)
C26 C 1.2180(4) 0.5681(5) 0.7327(2)
H13 H 1.2356(4) 0.5479(5) 0.6938(2)
H14 H 1.2666(4) 0.6472(5) 0.7455(2)
loop_
_geom_bond_atom_site_label_1
_geom_bond_atom_site_label_2
_geom_bond_site_symmetry_1
_geom_bond_site_symmetry_2
Mn1 N1 1_555 1_555
Cl1 C17 1_555 1_555
Cl2 C23 1_555 1_555
Cl3 C26 1_555 1_555
Cl4 C26 1_555 1_555
N1 C1 1_555 1_555
N2 C3 1_555 1_555
N3 C4 1_555 1_555
N4 C9 1_555 1_555
C1 C2 1_555 1_555
C2 C3 1_555 1_555
C4 C5 1_555 1_555
C5 C6 1_555 1_555
C6 C7 1_555 1_555
C7 N3 1_555 1_555
C8 C7 1_555 1_555
C9 C8 1_555 1_555
C10 C11 1_555 1_555
C11 C12 1_555 1_555
C12 C13 1_555 1_555
C13 C4 1_555 1_555
C14 C13 1_555 1_555
C15 C14 1_555 1_555
C16 C15 1_555 1_555
C17 C16 1_555 1_555
C18 C17 1_555 1_555
C19 C14 1_555 1_555
C20 C21 1_555 1_555
C21 C22 1_555 1_555
C22 C23 1_555 1_555
C23 C24 1_555 1_555
C24 C25 1_555 1_555
C25 C20 1_555 1_555
C26 H13 1_555 1_555
H1 C5B 1_555 1_555
H2 C6B 1_555 1_555
H3 C10 1_555 1_555
H4 C11 1_555 1_555
H5 C15 1_555 1_555
H6 C16 1_555 1_555
H7 C18 1_555 1_555
H8 C19 1_555 1_555
H9 C21 1_555 1_555
H10 C22 1_555 1_555
H11 C24 1_555 1_555
H12 C25 1_555 1_555
H14 C26 1_555 1_555
C2B C2 1_555 1_555
C1B C2B 1_555 1_555
N1B C1B 1_555 1_555
Mn1B N3 1_555 1_555
N1_2 Mn1B 1_555 1_555
N3B Mn1B 1_555 1_555
C4B N3B 1_555 1_555
C5B C4B 1_555 1_555
C6B C5B 1_555 1_555
C7B N3B 1_555 1_555
C8B C20 1_555 1_555
C9B C10 1_555 1_555
N4B C12 1_555 1_555
C13B C4B 1_555 1_555
C12B N4 1_555 1_555
C11B C12B 1_555 1_555
C10B C9 1_555 1_555
H3B C10B 1_555 1_555
H4B C11B 1_555 1_555
C14B C13B 1_555 1_555
C15B C14B 1_555 1_555
C16B C15B 1_555 1_555
C17B C16B 1_555 1_555
Cl1B C17B 1_555 1_555
C18B C17B 1_555 1_555
C19B C14B 1_555 1_555
H8B C19B 1_555 1_555
H7B C18B 1_555 1_555
H6B C16B 1_555 1_555
H5B C15B 1_555 1_555
C20B C8 1_555 1_555
C21B C20B 1_555 1_555
C22B C21B 1_555 1_555
C23B C22B 1_555 1_555
Cl2B C23B 1_555 1_555
C24B C23B 1_555 1_555
C25B C20B 1_555 1_555
H12B C25B 1_555 1_555
H11B C24B 1_555 1_555
H10B C22B 1_555 1_555
H9B C21B 1_555 1_555
H2B C6 1_555 1_555
H1B C5 1_555 1_555
C3B C2B 1_555 1_555
N2B C3B 1_555 1_555
N4 Mn1B 1_555 1_555
C18 C19 1_555 1_555
N1B Mn1B 1_555 1_555
Mn1B N4B 1_555 1_555
C6B C7B 1_555 1_555
C7B C8B 1_555 1_555
C8B C9B 1_555 1_555
C9B N4B 1_555 1_555
C13B C12B 1_555 1_555
C11B C10B 1_555 1_555
C18B C19B 1_555 1_555
C24B C25B 1_555 1_555

#END
