
#######################################################################
#
#                 Cambridge Crystallographic Data Centre
#                                CCDC 
#
#######################################################################
#
# If this CIF has been generated from an entry in the Cambridge 
# Structural Database, then it will include bibliographic, chemical, 
# crystal, experimental, refinement or atomic coordinate data resulting 
# from the CCDC's data processing and validation procedures.
#
#######################################################################

data_VANGIB
_symmetry_cell_setting           triclinic
_symmetry_space_group_name_H-M   'P -1'
_symmetry_Int_Tables_number      2
_space_group_name_Hall           '-P 1'
loop_
_symmetry_equiv_pos_site_id
_symmetry_equiv_pos_as_xyz
1 x,y,z
2 -x,-y,-z
_cell_length_a                   10.0848(4)
_cell_length_b                   10.9428(5)
_cell_length_c                   6.26386(29)
_cell_angle_alpha                98.9870(24)
_cell_angle_beta                 87.4273(29)
_cell_angle_gamma                108.0158(18)
_cell_volume                     649.289
loop_
_atom_site_label
_atom_site_type_symbol
_atom_site_fract_x
_atom_site_fract_y
_atom_site_fract_z
C1 C 0.3539(10) 1.1253(7) 0.7132(10)
C2 C 0.4652(9) 1.1749(7) 0.5782(11)
C3 C 0.4631(9) 1.1189(8) 0.3616(11)
C4 C 0.3497(10) 1.0133(8) 0.2805(9)
C5 C 0.1241(10) 0.8574(7) 0.3347(10)
C6 C 0.0128(10) 0.8077(7) 0.4697(13)
C7 C 0.0148(10) 0.8638(7) 0.6862(12)
C8 C 0.1282(10) 0.9694(7) 0.7673(10)
C9 C 0.2400(9) 1.0195(7) 0.6326(9)
C10 C 0.2379(9) 0.9632(7) 0.4153(9)
H1 H 0.3568(11) 1.1698(8) 0.8812(11)
H2 H 0.5496(10) 1.1574(9) 0.2565(13)
H3 H 0.3495(11) 0.9707(9) 0.1119(9)
H4 H 0.1211(11) 0.8129(9) 0.1667(11)
H5 H -0.0716(10) 0.8253(8) 0.7914(14)
H6 H 0.1284(11) 1.0120(9) 0.9360(11)
C11 C 0.5877(10) 1.2891(8) 0.6662(14)
C12 C -0.1097(10) 0.6936(8) 0.3817(16)
O1 O 0.5949(12) 1.3121(12) 0.8684(23)
O2 O 0.6826(15) 1.3411(12) 0.5260(19)
O3 O -0.2203(17) 0.6798(13) 0.4952(18)
O4 O -0.0989(15) 0.6339(12) 0.2141(25)
Ni1 Ni 0.7479(6) 1.4790(5) 1.0272(9)
O5 O 0.8846(15) 1.4778(14) 0.7601(20)
O6 O 0.6051(15) 1.4822(12) 1.2782(23)
O7 O 0.8289(13) 1.3466(11) 1.1448(20)
O8 O 0.6873(16) 1.6231(11) 0.8983(23)
H7 H 0.86528 1.38675 0.74713
H8 H 0.97172 1.50115 0.85866
H9 H 0.53731 1.39076 1.26716
H10 H 0.55396 1.54789 1.2619
H11 H 0.84631 1.38881 1.30045
H12 H 0.74702 1.27221 1.15524
H13 H 0.67419 1.57228 0.75349
H14 H 0.58858 1.59919 0.9664
Ni1_2 Ni -0.2521(6) 0.4790(5) 0.0272(9)
O4_2 O 0.9011(15) 1.6339(12) 1.2141(25)
loop_
_geom_bond_atom_site_label_1
_geom_bond_atom_site_label_2
_geom_bond_site_symmetry_1
_geom_bond_site_symmetry_2
C1 C2 1_555 1_555
C2 C3 1_555 1_555
C3 C4 1_555 1_555
C4 C10 1_555 1_555
C5 C6 1_555 1_555
C6 C7 1_555 1_555
C7 C8 1_555 1_555
C8 C9 1_555 1_555
C9 C1 1_555 1_555
C10 C5 1_555 1_555
H1 C1 1_555 1_555
H2 C3 1_555 1_555
H3 C4 1_555 1_555
H4 C5 1_555 1_555
H5 C7 1_555 1_555
H6 C8 1_555 1_555
C11 C2 1_555 1_555
C12 C6 1_555 1_555
O1 C11 1_555 1_555
O2 C11 1_555 1_555
O3 C12 1_555 1_555
O4 C12 1_555 1_555
Ni1 O1 1_555 1_555
O5 Ni1 1_555 1_555
O6 Ni1 1_555 1_555
O7 Ni1 1_555 1_555
O8 Ni1 1_555 1_555
H7 O5 1_555 1_555
H8 O5 1_555 1_555
H9 O6 1_555 1_555
H10 O6 1_555 1_555
H11 O7 1_555 1_555
H12 O7 1_555 1_555
H13 O8 1_555 1_555
H14 O8 1_555 1_555
Ni1_2 O4 1_555 1_555
O4_2 Ni1 1_555 1_555
C9 C10 1_555 1_555

#END
