
#######################################################################
#
#                 Cambridge Crystallographic Data Centre
#                                CCDC 
#
#######################################################################
#
# If this CIF has been generated from an entry in the Cambridge 
# Structural Database, then it will include bibliographic, chemical, 
# crystal, experimental, refinement or atomic coordinate data resulting 
# from the CCDC's data processing and validation procedures.
#
#######################################################################

data_VANGOH
_symmetry_cell_setting           triclinic
_symmetry_space_group_name_H-M   'P -1'
_symmetry_Int_Tables_number      2
_space_group_name_Hall           '-P 1'
loop_
_symmetry_equiv_pos_site_id
_symmetry_equiv_pos_as_xyz
1 x,y,z
2 -x,-y,-z
_cell_length_a                   10.1856(6)
_cell_length_b                   10.8931(6)
_cell_length_c                   6.2902(5)
_cell_angle_alpha                98.522(4)
_cell_angle_beta                 87.573(4)
_cell_angle_gamma                108.2999(28)
_cell_volume                     655.296
loop_
_atom_site_label
_atom_site_type_symbol
_atom_site_fract_x
_atom_site_fract_y
_atom_site_fract_z
C1 C 0.3455(19) 1.1260(15) 0.7076(20)
C2 C 0.4611(18) 1.1748(15) 0.5814(21)
C3 C 0.4669(19) 1.1159(15) 0.3697(20)
C4 C 0.3570(21) 1.0084(15) 0.2846(18)
C5 C 0.1306(21) 0.8515(14) 0.3259(21)
C6 C 0.0150(20) 0.8027(13) 0.4521(24)
C7 C 0.0092(19) 0.8615(14) 0.6638(25)
C8 C 0.1191(19) 0.9690(15) 0.7488(22)
C9 C 0.2352(19) 1.0183(14) 0.6229(19)
C10 C 0.2409(20) 0.9592(13) 0.4105(18)
H1 H 0.3424(21) 1.1727(18) 0.8718(22)
H2 H 0.5567(20) 1.1538(16) 0.2715(23)
H3 H 0.3629(23) 0.9637(17) 0.1198(19)
H4 H 0.1337(24) 0.8048(16) 0.1616(21)
H5 H -0.0806(20) 0.8237(15) 0.7620(29)
H6 H 0.1132(21) 1.0138(18) 0.9136(24)
C11 C 0.5798(19) 1.2910(17) 0.6736(26)
C12 C -0.1037(22) 0.6865(14) 0.3598(29)
O1 O 0.5868(23) 1.3153(26) 0.864(4)
O2 O 0.6787(22) 1.3334(24) 0.535(4)
O3 O -0.2274(28) 0.6865(23) 0.4910(35)
O4 O -0.1012(30) 0.6350(25) 0.207(4)
Co1 Co 0.7467(12) 1.4819(11) 1.0291(19)
O5 O 0.8827(26) 1.4659(28) 0.746(4)
O6 O 0.6016(25) 1.4904(23) 1.272(4)
O7 O 0.8270(24) 1.3479(20) 1.137(4)
O8 O 0.6936(29) 1.6234(23) 0.902(4)
H7 H 0.86416 1.38101 0.75995
H8 H 0.96329 1.50775 0.86141
H9 H 0.54693 1.39876 1.25994
H10 H 0.66144 1.49091 1.39108
H11 H 0.84693 1.37086 1.28164
H12 H 0.75374 1.26519 1.11385
H13 H 0.66284 1.56483 0.7441
H14 H 0.59358 1.59916 0.96558
Co1_2 Co -0.2533(12) 0.4819(11) 0.0291(19)
O4_2 O 0.8988(30) 1.6350(25) 1.207(4)
loop_
_geom_bond_atom_site_label_1
_geom_bond_atom_site_label_2
_geom_bond_site_symmetry_1
_geom_bond_site_symmetry_2
C1 C2 1_555 1_555
C2 C3 1_555 1_555
C3 C4 1_555 1_555
C4 C10 1_555 1_555
C5 C6 1_555 1_555
C6 C7 1_555 1_555
C7 C8 1_555 1_555
C8 C9 1_555 1_555
C9 C1 1_555 1_555
C10 C5 1_555 1_555
H1 C1 1_555 1_555
H2 C3 1_555 1_555
H3 C4 1_555 1_555
H4 C5 1_555 1_555
H5 C7 1_555 1_555
H6 C8 1_555 1_555
C11 C2 1_555 1_555
C12 C6 1_555 1_555
O1 C11 1_555 1_555
O2 C11 1_555 1_555
O3 C12 1_555 1_555
O4 C12 1_555 1_555
Co1 O1 1_555 1_555
O5 Co1 1_555 1_555
O6 Co1 1_555 1_555
O7 Co1 1_555 1_555
O8 Co1 1_555 1_555
H7 O5 1_555 1_555
H8 O5 1_555 1_555
H9 O6 1_555 1_555
H10 O6 1_555 1_555
H11 O7 1_555 1_555
H12 O7 1_555 1_555
H13 O8 1_555 1_555
H14 O8 1_555 1_555
Co1_2 O4 1_555 1_555
O4_2 Co1 1_555 1_555
C9 C10 1_555 1_555

#END
