
#######################################################################
#
#                 Cambridge Crystallographic Data Centre
#                                CCDC 
#
#######################################################################
#
# If this CIF has been generated from an entry in the Cambridge 
# Structural Database, then it will include bibliographic, chemical, 
# crystal, experimental, refinement or atomic coordinate data resulting 
# from the CCDC's data processing and validation procedures.
#
#######################################################################

data_VANPAD
_symmetry_cell_setting           monoclinic
_symmetry_space_group_name_H-M   'C 2/c'
_symmetry_Int_Tables_number      15
_space_group_name_Hall           '-C 2yn'
loop_
_symmetry_equiv_pos_site_id
_symmetry_equiv_pos_as_xyz
1 x,y,z
2 -x,y,1/2-z
3 1/2+x,1/2+y,z
4 1/2-x,1/2+y,1/2-z
5 -x,-y,-z
6 x,-y,1/2+z
7 1/2-x,1/2-y,-z
8 1/2+x,1/2-y,1/2+z
_cell_length_a                   23.137(4)
_cell_length_b                   13.545(2)
_cell_length_c                   16.533(5)
_cell_angle_alpha                90
_cell_angle_beta                 128.672(2)
_cell_angle_gamma                90
_cell_volume                     4045.22
loop_
_atom_site_label
_atom_site_type_symbol
_atom_site_fract_x
_atom_site_fract_y
_atom_site_fract_z
Cu1 Cu 0.79981(3) 0.35598(4) 1.21863(4)
C1 C 0.6632(2) 0.1281(3) 1.0231(3)
C2 C 0.6455(3) 0.0348(4) 1.0326(3)
C3 C 0.5927(3) -0.0194(4) 0.9437(3)
H1 H 0.5803 -0.0822 0.9511
C4 C 0.5581(3) 0.0170(3) 0.8448(3)
C5 C 0.5813(3) 0.1085(4) 0.8382(4)
H2 H 0.5620 0.1337 0.7735
C6 C 0.6320(3) 0.1629(4) 0.9250(3)
H3 H 0.6458 0.2247 0.9177
C7 C 0.5000 -0.0394(5) 0.7500
C8 C 0.7104(2) 0.1957(3) 1.1142(3)
C9 C 0.6953(4) -0.0140(4) 1.1384(4)
C10 C 0.8936(3) 0.1767(4) 1.2993(4)
H4 H 0.8563 0.1380 1.2443
C11 C 0.9534(3) 0.2965(5) 1.4046(4)
H5 H 0.9647 0.3580 1.4361
C12 C 1.0004(3) 0.2208(5) 1.4391(5)
H6 H 1.0499 0.2203 1.4979
C13 C 0.9905(4) 0.0454(5) 1.3808(5)
H7 H 1.0268 0.0480 1.3694
H8 H 0.9501 0.0034 1.3279
C14 C 1.0256(3) 0.0020(5) 1.4865(5)
H9 H 1.0425 -0.0644 1.4891
H10 H 1.0687 0.0411 1.5384
C15 C 0.7035(3) 0.4484(4) 1.0074(4)
H11 H 0.6989 0.3898 0.9746
C16 C 0.6740(3) 0.5335(4) 0.9594(4)
H12 H 0.6450 0.5453 0.8885
C17 C 0.7357(3) 0.5514(4) 1.1254(3)
H13 H 0.7572 0.5799 1.1897
C18 C 0.6801(3) 0.7066(4) 1.0210(4)
H14 H 0.7025 0.7368 1.0878
H15 H 0.6271 0.7169 0.9780
C19 C 0.7093(3) 0.7574(4) 0.9714(5)
H16 H 0.6824 0.7328 0.9013
H17 H 0.6994 0.8276 0.9671
N1 N 0.8850(2) 0.2686(3) 1.3142(3)
N2 N 0.9625(3) 0.1453(3) 1.3726(4)
N3 N 0.7412(2) 0.4577(3) 1.1110(3)
N4 N 0.6951(2) 0.6008(3) 1.0355(3)
O1 O 0.75227(18) 0.2546(2) 1.1111(2)
O2 O 0.7062(2) 0.1964(3) 1.1846(3)
O3 O 0.7633(3) -0.0126(4) 1.1904(3)
O4 O 0.6638(3) -0.0577(3) 1.1652(3)
O5 O 0.5000 -0.1301(4) 0.7500
Cu1D Cu 1.20019(3) -0.35598(4) 1.78137(4)
Cu1C Cu 0.70019(3) -0.14402(4) 1.28137(4)
Cu1A Cu 0.20019(3) 0.35598(4) 0.28137(4)
Cu1B Cu 0.29981(3) -0.14402(4) 0.21863(4)
Cu1F Cu 0.70019(3) 1.14402(4) 0.78137(4)
C1A C 0.3368(2) 0.1281(3) 0.4769(3)
C2A C 0.3545(3) 0.0348(4) 0.4674(3)
C3A C 0.4073(3) -0.0194(4) 0.5563(3)
H1A H 0.4197 -0.0822 0.5489
C4A C 0.4419(3) 0.0170(3) 0.6552(3)
C5A C 0.4187(3) 0.1085(4) 0.6618(4)
H2A H 0.4380 0.1337 0.7265
C6A C 0.3680(3) 0.1629(4) 0.5750(3)
H3A H 0.3542 0.2247 0.5823
C8A C 0.2896(2) 0.1957(3) 0.3858(3)
C9A C 0.3047(4) -0.0140(4) 0.3616(4)
C10D C 1.1064(3) -0.1767(4) 1.7007(4)
H4D H 1.1437 -0.1380 1.7557
C11D C 1.0466(3) -0.2965(5) 1.5954(4)
H5D H 1.0353 -0.3580 1.5639
C12D C 0.9996(3) -0.2208(5) 1.5609(5)
H6D H 0.9501 -0.2203 1.5021
C13D C 1.0095(4) -0.0454(5) 1.6192(5)
H7D H 0.9732 -0.0480 1.6306
H8D H 1.0499 -0.0034 1.6721
C14D C 0.9744(3) -0.0020(5) 1.5135(5)
H9D H 0.9575 0.0644 1.5109
H10D H 0.9313 -0.0411 1.4616
C15F C 0.7965(3) 1.0516(4) 0.9926(4)
H11F H 0.8011 1.1102 1.0254
C16F C 0.8260(3) 0.9665(4) 1.0406(4)
H12F H 0.8550 0.9547 1.1115
C17F C 0.7643(3) 0.9486(4) 0.8746(3)
H13F H 0.7428 0.9201 0.8103
C18F C 0.8199(3) 0.7934(4) 0.9790(4)
H14F H 0.7975 0.7632 0.9122
H15F H 0.8729 0.7831 1.0220
C19F C 0.7907(3) 0.7426(4) 1.0286(5)
H16F H 0.8176 0.7672 1.0987
H17F H 0.8006 0.6724 1.0329
N1D N 1.1150(2) -0.2686(3) 1.6858(3)
N2D N 1.0375(3) -0.1453(3) 1.6274(4)
N3F N 0.7588(2) 1.0423(3) 0.8890(3)
N3D N 1.2588(2) -0.4577(3) 1.8890(3)
N4F N 0.8049(2) 0.8992(3) 0.9645(3)
O1A O 0.24773(18) 0.2546(2) 0.3889(2)
O1D O 1.24773(18) -0.2546(2) 1.8889(2)
O2A O 0.2938(2) 0.1964(3) 0.3154(3)
O3A O 0.2367(3) -0.0126(4) 0.3096(3)
O4A O 0.3362(3) -0.0577(3) 0.3348(3)
O4C O 0.8362(3) 0.4423(3) 1.3348(3)
O4G O 1.1638(3) -0.4423(3) 1.6652(3)
O7 O 0.3689(3) 0.3420(5) 0.2904(5)
O6? O 0.4879(8) 0.3430(8) 0.2791(13)
loop_
_geom_bond_atom_site_label_1
_geom_bond_atom_site_label_2
_geom_bond_site_symmetry_1
_geom_bond_site_symmetry_2
Cu1 N1 1_555 1_555
C1 C2 1_555 1_555
C2 C3 1_555 1_555
C3 H1 1_555 1_555
C4 C3 1_555 1_555
C5 C4 1_555 1_555
H2 C5 1_555 1_555
C6 C1 1_555 1_555
H3 C6 1_555 1_555
C7 C4 1_555 1_555
C8 C1 1_555 1_555
C9 C2 1_555 1_555
C10 H4 1_555 1_555
C11 H5 1_555 1_555
C12 C11 1_555 1_555
H6 C12 1_555 1_555
C13 H7 1_555 1_555
H8 C13 1_555 1_555
C14 C13 1_555 1_555
H9 C14 1_555 1_555
H10 C14 1_555 1_555
C15 H11 1_555 1_555
C16 C15 1_555 1_555
H12 C16 1_555 1_555
C17 H13 1_555 1_555
C18 H14 1_555 1_555
H15 C18 1_555 1_555
C19 C18 1_555 1_555
H16 C19 1_555 1_555
H17 C19 1_555 1_555
N1 C10 1_555 1_555
N2 C10 1_555 1_555
N3 Cu1 1_555 1_555
N4 C16 1_555 1_555
O1 Cu1 1_555 1_555
O2 C8 1_555 1_555
O3 C9 1_555 1_555
O4 C9 1_555 1_555
O5 C7 1_555 1_555
Cu1D N1D 1_555 1_555
Cu1C O4 1_555 1_555
Cu1A O1A 1_555 1_555
Cu1B O4A 1_555 1_555
Cu1F N3F 1_555 1_555
C1A C2A 1_555 1_555
C2A C3A 1_555 1_555
C3A H1A 1_555 1_555
C4A C7 1_555 1_555
C5A C4A 1_555 1_555
H2A C5A 1_555 1_555
C6A C1A 1_555 1_555
H3A C6A 1_555 1_555
C8A C1A 1_555 1_555
C9A C2A 1_555 1_555
C10D H4D 1_555 1_555
C11D H5D 1_555 1_555
C12D C11D 1_555 1_555
H6D C12D 1_555 1_555
C13D H7D 1_555 1_555
H8D C13D 1_555 1_555
C14D C14 1_555 1_555
H9D C14D 1_555 1_555
H10D C14D 1_555 1_555
C15F H11F 1_555 1_555
C16F C15F 1_555 1_555
H12F C16F 1_555 1_555
C17F H13F 1_555 1_555
C18F H14F 1_555 1_555
H15F C18F 1_555 1_555
C19F C19 1_555 1_555
H16F C19F 1_555 1_555
H17F C19F 1_555 1_555
N1D C10D 1_555 1_555
N2D C10D 1_555 1_555
N3F C15F 1_555 1_555
N3D Cu1D 1_555 1_555
N4F C16F 1_555 1_555
O1A C8A 1_555 1_555
O1D Cu1D 1_555 1_555
O2A C8A 1_555 1_555
O3A C9A 1_555 1_555
O4A C9A 1_555 1_555
O4C Cu1 1_555 1_555
O4G Cu1D 1_555 1_555
C5 C6 1_555 1_555
C8 O1 1_555 1_555
C11 N1 1_555 1_555
C12 N2 1_555 1_555
C13 N2 1_555 1_555
C15 N3 1_555 1_555
C17 N3 1_555 1_555
C17 N4 1_555 1_555
C18 N4 1_555 1_555
C3A C4A 1_555 1_555
C5A C6A 1_555 1_555
C11D N1D 1_555 1_555
C12D N2D 1_555 1_555
C13D C14D 1_555 1_555
C13D N2D 1_555 1_555
C17F N3F 1_555 1_555
C17F N4F 1_555 1_555
C18F C19F 1_555 1_555
C18F N4F 1_555 1_555

#END
