
#######################################################################
#
#                 Cambridge Crystallographic Data Centre
#                                CCDC 
#
#######################################################################
#
# If this CIF has been generated from an entry in the Cambridge 
# Structural Database, then it will include bibliographic, chemical, 
# crystal, experimental, refinement or atomic coordinate data resulting 
# from the CCDC's data processing and validation procedures.
#
#######################################################################

data_VANPIL
_symmetry_cell_setting           triclinic
_symmetry_space_group_name_H-M   'P -1'
_symmetry_Int_Tables_number      2
_space_group_name_Hall           '-P 1'
loop_
_symmetry_equiv_pos_site_id
_symmetry_equiv_pos_as_xyz
1 x,y,z
2 -x,-y,-z
_cell_length_a                   10.652(5)
_cell_length_b                   12.248(5)
_cell_length_c                   13.289(5)
_cell_angle_alpha                114.746(5)
_cell_angle_beta                 95.831(5)
_cell_angle_gamma                98.637(5)
_cell_volume                     1530.36
loop_
_atom_site_label
_atom_site_type_symbol
_atom_site_fract_x
_atom_site_fract_y
_atom_site_fract_z
Cu1 Cu 0.98475(4) 0.28707(4) 0.12787(4)
N1 N 0.8773(3) 0.3449(3) 0.0347(2)
O2 O 1.05148(17) 0.45594(16) 0.23679(14)
C1 C 0.77558(17) 0.39365(16) 0.06936(14)
H3 H 0.7589 0.4054 0.1401
O3 O 1.15587(15) 0.25453(14) 0.01890(12)
H4 H 1.1758 0.1914 0.0276
H5 H 1.2160 0.3151 0.0603
N2 N 0.57304(15) 0.37418(14) -0.27088(12)
O4 O 0.88258(15) 0.46493(14) 0.32428(12)
C2 C 0.69570(15) 0.42657(14) 0.00467(12)
H6 H 0.6253 0.4587 0.0309
O5 O 0.9125(3) 0.6723(3) 0.2488(2)
N3 N 0.3730(3) 0.2057(3) -0.4466(3)
C3 C 0.7202(3) 0.4119(3) -0.0996(3)
O6 O 0.9357(4) 0.8656(3) 0.3701(3)
N4 N 0.0901(3) 0.2363(3) -0.7672(2)
C4 C 0.8279(4) 0.3665(4) -0.1338(3)
H7 H 0.8493 0.3580 -0.2024
O7 O 1.4042(3) 0.6209(3) 0.5964(2)
C5 C 0.9029(4) 0.3340(4) -0.0644(3)
H8 H 0.9748 0.3031 -0.0881
O8 O 1.5353(3) 0.9318(3) 1.1824(2)
C6 C 0.6349(4) 0.4540(3) -0.1667(3)
O9 O 1.3261(3) 0.9336(3) 1.1717(2)
C7 C 0.4897(4) 0.4173(4) -0.3359(3)
H9 H 0.5283 0.4192 -0.3983
H10 H 0.4807 0.4999 -0.2880
O10 O 1.2259(3) 1.0622(2) 1.0471(2)
C8 C 0.3577(4) 0.3304(3) -0.3803(3)
H11 H 0.3160 0.3338 -0.3178
H12 H 0.3037 0.3552 -0.4267
O11 O 1.0816(2) 0.8855(2) 0.9747(2)
C9 C 0.4519(4) 0.1633(4) -0.3789(3)
H13 H 0.4604 0.0801 -0.4255
H14 H 0.4097 0.1624 -0.3178
O12 O 0.6223(3) 0.5617(2) -0.1224(2)
C10 C 0.5837(4) 0.2469(3) -0.3313(3)
H15 H 0.6317 0.2231 -0.2805
H16 H 0.6307 0.2386 -0.3920
O13 O 0.3527(3) 0.0307(3) -0.6046(2)
C11 C 0.3280(4) 0.1336(3) -0.5560(3)
C12 C 0.2466(4) 0.1773(3) -0.6243(3)
C13 C 0.2830(4) 0.2839(3) -0.6351(3)
H17 H 0.3610 0.3381 -0.5945
C14 C 0.2035(4) 0.3093(3) -0.7062(3)
H18 H 0.2299 0.3817 -0.7125
C15 C 0.0559(4) 0.1316(3) -0.7582(3)
H19 H -0.0212 0.0779 -0.8016
C16 C 0.1299(4) 0.0997(4) -0.6876(3)
H20 H 0.1017 0.0269 -0.6825
C17 C 0.9903(4) 0.5076(3) 0.3156(3)
C18 C 1.0694(3) 0.6274(3) 0.4086(3)
C19 C 1.0557(4) 0.7445(3) 0.4230(3)
C20 C 0.9603(4) 0.7556(4) 0.3387(3)
C21 C 1.1348(4) 0.8472(3) 0.5112(3)
H21 H 1.1261 0.9251 0.5201
C22 C 1.2262(4) 0.8368(3) 0.5860(3)
H22 H 1.2778 0.9069 0.6454
C23 C 1.2406(3) 0.7202(3) 0.5717(3)
C24 C 1.1614(4) 0.6175(3) 0.4834(3)
H23 H 1.1705 0.5397 0.4743
C25 C 1.3429(4) 0.6988(3) 0.6424(3)
C26 C 1.3682(3) 0.7668(3) 0.7681(3)
C27 C 1.2782(3) 0.8278(3) 0.8256(3)
H24 H 1.2046 0.8324 0.7848
C28 C 1.2964(3) 0.8817(3) 0.9421(3)
C29 C 1.4079(3) 0.8734(3) 1.0033(3)
C30 C 1.4975(3) 0.8139(3) 0.9446(3)
H25 H 1.5718 0.8093 0.9846
C31 C 1.4793(4) 0.7623(3) 0.8299(3)
H26 H 1.5413 0.7240 0.7928
C32 C 1.4304(4) 0.9181(3) 1.1282(3)
C33 C 1.1946(4) 0.9492(3) 0.9941(3)
H27 H 1.343(5) 0.968(5) 1.249(4)
H28 H 0.879(9) 0.856(10) 0.359(9)
Cu1_2 Cu -0.01525(4) 0.28707(4) -0.87213(4)
Cu1A Cu 1.01525(4) 0.71293(4) 0.87213(4)
N4_2 N 1.0901(3) 0.2363(3) 0.2328(2)
O11A O 0.9184(2) 0.1145(2) 0.0253(2)
O1 O 0.79329(17) 0.88059(16) 0.20017(14)
H1 H 0.8141 0.8423 0.1365
H2 H 0.8364 0.8642 0.2475
loop_
_geom_bond_atom_site_label_1
_geom_bond_atom_site_label_2
_geom_bond_site_symmetry_1
_geom_bond_site_symmetry_2
Cu1 N1 1_555 1_555
N1 C1 1_555 1_555
O1 H1 1_555 1_555
H2 O1 1_555 1_555
O2 Cu1 1_555 1_555
C1 H3 1_555 1_555
O3 Cu1 1_555 1_555
H4 O3 1_555 1_555
H5 O3 1_555 1_555
N2 C6 1_555 1_555
O4 C17 1_555 1_555
C2 C1 1_555 1_555
H6 C2 1_555 1_555
O5 C20 1_555 1_555
N3 C8 1_555 1_555
C3 C2 1_555 1_555
O6 C20 1_555 1_555
N4 C14 1_555 1_555
C4 C3 1_555 1_555
H7 C4 1_555 1_555
O7 C25 1_555 1_555
C5 N1 1_555 1_555
H8 C5 1_555 1_555
O8 C32 1_555 1_555
C6 C3 1_555 1_555
O9 C32 1_555 1_555
C7 N2 1_555 1_555
H9 C7 1_555 1_555
H10 C7 1_555 1_555
O10 C33 1_555 1_555
C8 C7 1_555 1_555
H11 C8 1_555 1_555
H12 C8 1_555 1_555
O11 C33 1_555 1_555
C9 N3 1_555 1_555
H13 C9 1_555 1_555
H14 C9 1_555 1_555
O12 C6 1_555 1_555
C10 N2 1_555 1_555
H15 C10 1_555 1_555
H16 C10 1_555 1_555
O13 C11 1_555 1_555
C11 N3 1_555 1_555
C12 C11 1_555 1_555
C13 C12 1_555 1_555
H17 C13 1_555 1_555
C14 C13 1_555 1_555
H18 C14 1_555 1_555
C15 N4 1_555 1_555
H19 C15 1_555 1_555
C16 C12 1_555 1_555
H20 C16 1_555 1_555
C17 O2 1_555 1_555
C18 C17 1_555 1_555
C19 C18 1_555 1_555
C20 C19 1_555 1_555
C21 C19 1_555 1_555
H21 C21 1_555 1_555
C22 C21 1_555 1_555
H22 C22 1_555 1_555
C23 C22 1_555 1_555
C24 C18 1_555 1_555
H23 C24 1_555 1_555
C25 C23 1_555 1_555
C26 C25 1_555 1_555
C27 C26 1_555 1_555
H24 C27 1_555 1_555
C28 C27 1_555 1_555
C29 C28 1_555 1_555
C30 C29 1_555 1_555
H25 C30 1_555 1_555
C31 C26 1_555 1_555
H26 C31 1_555 1_555
C32 C29 1_555 1_555
C33 C28 1_555 1_555
H27 O9 1_555 1_555
H28 O6 1_555 1_555
Cu1_2 N4 1_555 1_555
Cu1A O11 1_555 1_555
N4_2 Cu1 1_555 1_555
O11A Cu1 1_555 1_555
C4 C5 1_555 1_555
C9 C10 1_555 1_555
C15 C16 1_555 1_555
C23 C24 1_555 1_555
C30 C31 1_555 1_555

#END
