
#######################################################################
#
#                 Cambridge Crystallographic Data Centre
#                                CCDC 
#
#######################################################################
#
# If this CIF has been generated from an entry in the Cambridge 
# Structural Database, then it will include bibliographic, chemical, 
# crystal, experimental, refinement or atomic coordinate data resulting 
# from the CCDC's data processing and validation procedures.
#
#######################################################################

data_VANPEH
_symmetry_cell_setting           triclinic
_symmetry_space_group_name_H-M   'P -1'
_symmetry_Int_Tables_number      2
_space_group_name_Hall           '-P 1'
loop_
_symmetry_equiv_pos_site_id
_symmetry_equiv_pos_as_xyz
1 x,y,z
2 -x,-y,-z
_cell_length_a                   10.785(4)
_cell_length_b                   14.283(5)
_cell_length_c                   14.965(6)
_cell_angle_alpha                103.493(5)
_cell_angle_beta                 94.978(5)
_cell_angle_gamma                103.307(5)
_cell_volume                     2157.26
loop_
_atom_site_label
_atom_site_type_symbol
_atom_site_fract_x
_atom_site_fract_y
_atom_site_fract_z
Cu1 Cu 0.06051(5) 0.79889(4) 0.32362(4)
C1 C 0.1421(5) 1.5146(4) 0.0990(4)
H1 H 0.0812 1.5503 0.0930
N1 N 0.2084(3) 0.7316(3) 0.3229(3)
O2 O 0.2569(7) 1.0087(4) 0.4064(4)
Cu2 Cu 0.5000 1.5000 0.0000
C2 C 0.1261(5) 1.4467(4) 0.1521(4)
H4 H 0.0547 1.4369 0.1828
N2 N -0.0921(4) 0.8594(3) 0.3184(3)
O3 O 0.1652(3) 0.9003(2) 0.2751(2)
C3 C -0.2889(6) 0.8784(4) 0.3687(5)
H7 H -0.3520 0.8623 0.4052
N3 N 0.3876(4) 0.5302(3) 0.4807(3)
O5 O 0.9164(4) 1.6140(3) 0.1876(3)
C4 C 0.3944(5) 0.6266(4) 0.3172(4)
H10 H 0.4563 0.5906 0.3143
N4 N -0.1228(4) 1.1158(3) 0.2155(3)
O7 O 0.9471(3) 1.6792(2) 0.3408(3)
C5 C -0.3011(5) 0.9408(4) 0.3134(4)
H11 H -0.3723 0.9671 0.3112
N5 N 0.1100(4) 1.2488(3) 0.2105(3)
O9 O 0.2350(4) 0.8499(3) 0.0705(3)
H12 H 0.319(7) 0.835(5) 0.079(5)
C6 C 0.3922(5) 0.6926(4) 0.2635(4)
H13 H 0.4544 0.7030 0.2250
N6 N 0.3391(4) 1.4787(3) 0.0619(3)
O11 O 0.1176(5) 0.8715(3) 0.4835(3)
H14 H 0.1672 0.8439 0.5052
H15 H 0.089(14) 0.890(12) 0.523(10)
C7 C 0.0136(5) 1.2056(4) 0.1273(4)
H16 H 0.0310 1.1454 0.0911
H17 H 0.0188 1.2524 0.0892
O12 O 0.0983(3) 0.9426(3) 0.0980(3)
C8 C -0.0276(5) 1.1593(4) 0.2986(4)
H18 H -0.0334 1.1130 0.3373
H19 H -0.0445 1.2200 0.3340
O13 O -0.2986(4) 1.0042(3) 0.1300(3)
C9 C 0.2170(5) 1.3239(4) 0.2193(4)
O14 O 0.3119(4) 1.3373(3) 0.2751(3)
C10 C 0.1055(5) 1.1823(4) 0.2725(4)
H20 H 0.1686 1.2144 0.3278
H21 H 0.1254 1.1212 0.2412
O15 O 0.6870(4) 1.2164(3) 0.4040(3)
C11 C 0.3798(5) 0.4445(5) 0.5193(5)
H22 H 0.396(5) 0.467(4) 0.592(4)
H23 H 0.306(6) 0.399(4) 0.492(4)
O16 O 0.5915(3) 1.4554(3) 0.0934(2)
C12 C 0.8873(4) 1.4723(3) 0.3466(4)
H24 H 0.9689 1.5057 0.3793
O17 O 0.6306(4) 1.5952(3) 0.2069(3)
C13 C 0.4385(6) 1.1094(4) 0.3180(5)
H25 H 0.451(5) 1.117(4) 0.365(4)
O18 O 0.1784(3) 0.4807(3) 0.4188(3)
C14 C -0.1195(5) 1.1811(4) 0.1529(4)
H26 H -0.1410 1.2419 0.1835
H27 H -0.1820 1.1480 0.0974
C15 C 0.5136(5) 0.6040(4) 0.5090(4)
H28 H 0.502(6) 0.669(5) 0.473(4)
H29 H 0.519(5) 0.634(4) 0.578(4)
C16 C 0.2858(4) 0.5364(4) 0.4279(4)
C17 C -0.1030(4) 0.9207(3) 0.2647(4)
H30 H -0.0390 0.9349 0.2284
C18 C 0.8243(4) 1.3828(3) 0.3601(3)
H31 H 0.8649 1.3557 0.4013
C19 C 0.4022(5) 1.0678(4) 0.1286(4)
H32 H 0.386(5) 1.051(4) 0.069(4)
C20 C 0.2451(5) 0.9778(4) 0.3225(4)
C21 C 0.2160(4) 1.3937(4) 0.1592(4)
C22 C -0.2045(4) 0.9639(3) 0.2605(4)
C23 C -0.2125(5) 1.0302(4) 0.1962(4)
C24 C 0.6404(5) 1.2366(4) 0.3369(4)
C25 C 0.2057(5) 0.9318(4) 0.1116(4)
C26 C 0.6428(4) 1.3724(3) 0.2516(3)
H33 H 0.5606 1.3391 0.2200
C27 C 0.7021(4) 1.3319(3) 0.3140(3)
C28 C 0.5262(4) 1.1639(3) 0.2755(4)
C29 C 0.3218(4) 1.4125(4) 0.1127(3)
H34 H 0.3835 1.3772 0.1173
C30 C 0.3156(4) 1.0135(3) 0.1722(3)
C31 C 0.3026(4) 0.6149(4) 0.3755(4)
C32 C 0.2125(4) 0.6682(3) 0.3754(3)
H35 H 0.1502 0.6598 0.4142
C33 C 0.2979(5) 0.7429(4) 0.2670(4)
H36 H 0.2962 0.7862 0.2294
C34 C 0.5059(4) 1.1434(3) 0.1795(4)
H37 H 0.5621 1.1805 0.1492
C35 C 0.3331(4) 1.0351(3) 0.2692(3)
C36 C 0.2494(5) 1.5288(4) 0.0551(4)
H38 H 0.2599 1.5746 0.0195
C37 C 0.9014(4) 1.6094(3) 0.2670(4)
C38 C 0.8290(4) 1.5132(3) 0.2840(3)
C39 C 0.7060(4) 1.4627(3) 0.2362(3)
C40 C 0.6389(4) 1.5099(3) 0.1737(3)
C41 C -0.1840(5) 0.8398(4) 0.3704(4)
H39 H -0.1767 0.7984 0.4091
Cu1A Cu 0.93949(5) 2.20111(4) -0.32362(4)
Cu1_2 Cu 1.06051(5) 1.79889(4) 0.32362(4)
Cu1A_2 Cu 0.93949(5) 0.20111(4) 0.67638(4)
Cu1A_3 Cu -0.06051(5) 1.20111(4) -0.32362(4)
C1A C 0.8579(5) 1.4854(4) -0.0990(4)
H1A H 0.9188 1.4497 -0.0930
N1A N 0.7916(3) 0.2684(3) 0.6771(3)
N1A_2 N 0.7916(3) 2.2684(3) -0.3229(3)
O2A O 0.7431(7) 1.9913(4) -0.4064(4)
C2A C 0.8739(5) 1.5533(4) -0.1521(4)
H4A H 0.9453 1.5631 -0.1828
N2A N 1.0921(4) 2.1406(3) -0.3184(3)
O3A O 0.8348(3) 2.0997(2) -0.2751(2)
C3A C 1.2889(6) 2.1216(4) -0.3687(5)
H7A H 1.3520 2.1377 -0.4052
N3A N 0.6124(4) 0.4698(3) 0.5193(3)
O5A O 0.0836(4) 1.3860(3) -0.1876(3)
C4A C 0.6056(5) 0.3734(4) 0.6828(4)
H10A H 0.5437 0.4094 0.6857
N4A N 1.1228(4) 1.8842(3) -0.2155(3)
O7A O 0.0529(3) 1.3208(2) -0.3408(3)
O7_2 O -0.0529(3) 0.6792(2) 0.3408(3)
O7A_2 O 1.0529(3) 2.3208(2) -0.3408(3)
C5A C 1.3011(5) 2.0592(4) -0.3134(4)
H11A H 1.3723 2.0329 -0.3112
N5A N 0.8900(4) 1.7512(3) -0.2105(3)
O9A O 0.7650(4) 2.1501(3) -0.0705(3)
H12A H 0.681(7) 2.165(5) -0.079(5)
C6A C 0.6078(5) 0.3074(4) 0.7365(4)
H13A H 0.5456 0.2970 0.7750
N6A N 0.6609(4) 1.5213(3) -0.0619(3)
O11A O 0.8824(5) 2.1285(3) -0.4835(3)
H14A H 0.8328 2.1561 -0.5052
H15A H 0.911(14) 2.110(12) -0.523(10)
C7A C 0.9864(5) 1.7944(4) -0.1273(4)
H16A H 0.9690 1.8546 -0.0911
H17A H 0.9812 1.7476 -0.0892
O12A O 0.9017(3) 2.0574(3) -0.0980(3)
C8A C 1.0276(5) 1.8407(4) -0.2986(4)
H18A H 1.0334 1.8870 -0.3373
H19A H 1.0445 1.7800 -0.3340
O13A O 1.2986(4) 1.9958(3) -0.1300(3)
C9A C 0.7830(5) 1.6761(4) -0.2193(4)
O14A O 0.6881(4) 1.6627(3) -0.2751(3)
C10A C 0.8945(5) 1.8177(4) -0.2725(4)
H20A H 0.8314 1.7856 -0.3278
H21A H 0.8746 1.8788 -0.2412
O15A O 0.3130(4) 1.7836(3) -0.4040(3)
C11A C 0.6202(5) 0.5555(5) 0.4807(5)
H22A H 0.604(5) 0.533(4) 0.408(4)
H23A H 0.694(6) 0.601(4) 0.508(4)
O16A O 0.4085(3) 1.5446(3) -0.0934(2)
C12A C 0.1127(4) 1.5277(3) -0.3466(4)
H24A H 0.0311 1.4943 -0.3793
O17A O 0.3694(4) 1.4048(3) -0.2069(3)
C13A C 0.5615(6) 1.8906(4) -0.3180(5)
H25A H 0.549(5) 1.883(4) -0.365(4)
O18A O 0.8216(3) 0.5193(3) 0.5812(3)
C14A C 1.1195(5) 1.8189(4) -0.1529(4)
H26A H 1.1410 1.7581 -0.1835
H27A H 1.1820 1.8520 -0.0974
C15A C 0.4864(5) 0.3960(4) 0.4910(4)
H28A H 0.498(6) 0.331(5) 0.527(4)
H29A H 0.481(5) 0.366(4) 0.422(4)
C16A C 0.7142(4) 0.4636(4) 0.5721(4)
C17A C 1.1030(4) 2.0793(3) -0.2647(4)
H30A H 1.0390 2.0651 -0.2284
C18A C 0.1757(4) 1.6172(3) -0.3601(3)
H31A H 0.1351 1.6443 -0.4013
C19A C 0.5978(5) 1.9322(4) -0.1286(4)
H32A H 0.614(5) 1.949(4) -0.069(4)
C20A C 0.7549(5) 2.0222(4) -0.3225(4)
C21A C 0.7840(4) 1.6063(4) -0.1592(4)
C22A C 1.2045(4) 2.0361(3) -0.2605(4)
C23A C 1.2125(5) 1.9698(4) -0.1962(4)
C24A C 0.3596(5) 1.7634(4) -0.3369(4)
C25A C 0.7943(5) 2.0682(4) -0.1116(4)
C26A C 0.3572(4) 1.6276(3) -0.2516(3)
H33A H 0.4394 1.6609 -0.2200
C27A C 0.2979(4) 1.6681(3) -0.3140(3)
C28A C 0.4738(4) 1.8361(3) -0.2755(4)
C29A C 0.6782(4) 1.5875(4) -0.1127(3)
H34A H 0.6165 1.6228 -0.1173
C30A C 0.6844(4) 1.9865(3) -0.1722(3)
C31A C 0.6974(4) 0.3851(4) 0.6245(4)
C32A C 0.7875(4) 0.3318(3) 0.6246(3)
H35A H 0.8498 0.3402 0.5858
C33A C 0.7021(5) 0.2571(4) 0.7330(4)
H36A H 0.7038 0.2138 0.7706
C34A C 0.4941(4) 1.8566(3) -0.1795(4)
H37A H 0.4379 1.8195 -0.1492
C35A C 0.6669(4) 1.9649(3) -0.2692(3)
C36A C 0.7506(5) 1.4712(4) -0.0551(4)
H38A H 0.7401 1.4254 -0.0195
C37A C 0.0986(4) 1.3906(3) -0.2670(4)
C38A C 0.1710(4) 1.4868(3) -0.2840(3)
C39A C 0.2940(4) 1.5373(3) -0.2362(3)
C40A C 0.3611(4) 1.4901(3) -0.1737(3)
C41A C 1.1840(5) 2.1602(4) -0.3704(4)
H39A H 1.1767 2.2016 -0.4091
O1 O -0.4061(6) 0.6984(4) 0.0842(4)
H2 H -0.401(7) 0.667(5) 0.122(5)
H3 H -0.312(2) 0.711(5) 0.081(4)
O4 O 0.4722(5) 0.8493(5) 0.0965(5)
H5 H 0.509(8) 0.814(6) 0.083(6)
H6 H 0.522(7) 0.898(5) 0.108(5)
O6 O -0.1075(8) 0.7447(5) 0.0729(5)
H8 H -0.028(4) 0.734(5) 0.092(5)
O8 O 0.0578(7) 1.3195(5) 0.4845(6)
O10 O -0.2419(17) 0.8016(16) 0.0139(15)
H9? H -0.037(3) 0.722(3) 0.061(4)
loop_
_geom_bond_atom_site_label_1
_geom_bond_atom_site_label_2
_geom_bond_site_symmetry_1
_geom_bond_site_symmetry_2
Cu1 N1 1_555 1_555
C1 H1 1_555 1_555
N1 C32 1_555 1_555
O1 H2 1_555 1_555
H3 O1 1_555 1_555
O2 C20 1_555 1_555
Cu2 N6 1_555 1_555
C2 C1 1_555 1_555
H4 C2 1_555 1_555
N2 Cu1 1_555 1_555
O3 Cu1 1_555 1_555
O4 H5 1_555 1_555
H6 O4 1_555 1_555
C3 H7 1_555 1_555
N3 C11 1_555 1_555
O5 C37 1_555 1_555
O6 H8 1_555 1_555
C4 H10 1_555 1_555
N4 C8 1_555 1_555
O7 C37 1_555 1_555
C5 C3 1_555 1_555
H11 C5 1_555 1_555
N5 C7 1_555 1_555
O9 H12 1_555 1_555
C6 C4 1_555 1_555
H13 C6 1_555 1_555
N6 C29 1_555 1_555
O11 Cu1 1_555 1_555
H14 O11 1_555 1_555
H15 O11 1_555 1_555
C7 H16 1_555 1_555
H17 C7 1_555 1_555
O12 C25 1_555 1_555
C8 H18 1_555 1_555
H19 C8 1_555 1_555
O13 C23 1_555 1_555
C9 N5 1_555 1_555
O14 C9 1_555 1_555
C10 N5 1_555 1_555
H20 C10 1_555 1_555
H21 C10 1_555 1_555
O15 C24 1_555 1_555
C11 H22 1_555 1_555
H23 C11 1_555 1_555
O16 Cu2 1_555 1_555
C12 H24 1_555 1_555
O17 C40 1_555 1_555
C13 H25 1_555 1_555
O18 C16 1_555 1_555
C14 N4 1_555 1_555
H26 C14 1_555 1_555
H27 C14 1_555 1_555
C15 N3 1_555 1_555
H28 C15 1_555 1_555
H29 C15 1_555 1_555
C16 N3 1_555 1_555
C17 N2 1_555 1_555
H30 C17 1_555 1_555
C18 C12 1_555 1_555
H31 C18 1_555 1_555
C19 H32 1_555 1_555
C20 O3 1_555 1_555
C21 C2 1_555 1_555
C22 C5 1_555 1_555
C23 N4 1_555 1_555
C24 C27 1_555 1_555
C25 O9 1_555 1_555
C26 H33 1_555 1_555
C27 C18 1_555 1_555
C28 C13 1_555 1_555
C29 C21 1_555 1_555
H34 C29 1_555 1_555
C30 C19 1_555 1_555
C31 C4 1_555 1_555
C32 C31 1_555 1_555
H35 C32 1_555 1_555
C33 N1 1_555 1_555
H36 C33 1_555 1_555
C34 C19 1_555 1_555
H37 C34 1_555 1_555
C35 C13 1_555 1_555
C36 C1 1_555 1_555
H38 C36 1_555 1_555
C37 C38 1_555 1_555
C38 C12 1_555 1_555
C39 C26 1_555 1_555
C40 O16 1_555 1_555
C41 N2 1_555 1_555
H39 C41 1_555 1_555
Cu1A N1A_2 1_555 1_555
Cu1_2 O7 1_555 1_555
Cu1A_2 N1A 1_555 1_555
Cu1A_3 O7A 1_555 1_555
C1A H1A 1_555 1_555
N1A C32A 1_555 1_555
O2A C20A 1_555 1_555
C2A C1A 1_555 1_555
H4A C2A 1_555 1_555
N2A Cu1A 1_555 1_555
O3A Cu1A 1_555 1_555
C3A H7A 1_555 1_555
N3A C11A 1_555 1_555
O5A C37A 1_555 1_555
C4A H10A 1_555 1_555
N4A C8A 1_555 1_555
O7A C37A 1_555 1_555
O7_2 Cu1 1_555 1_555
O7A_2 Cu1A 1_555 1_555
C5A C3A 1_555 1_555
H11A C5A 1_555 1_555
N5A C7A 1_555 1_555
O9A H12A 1_555 1_555
C6A C4A 1_555 1_555
H13A C6A 1_555 1_555
N6A Cu2 1_555 1_555
O11A Cu1A 1_555 1_555
H14A O11A 1_555 1_555
H15A O11A 1_555 1_555
C7A H16A 1_555 1_555
H17A C7A 1_555 1_555
O12A C25A 1_555 1_555
C8A H18A 1_555 1_555
H19A C8A 1_555 1_555
O13A C23A 1_555 1_555
C9A N5A 1_555 1_555
O14A C9A 1_555 1_555
C10A N5A 1_555 1_555
H20A C10A 1_555 1_555
H21A C10A 1_555 1_555
O15A C24A 1_555 1_555
C11A C15 1_555 1_555
H22A C11A 1_555 1_555
H23A C11A 1_555 1_555
O16A Cu2 1_555 1_555
C12A H24A 1_555 1_555
O17A C40A 1_555 1_555
C13A H25A 1_555 1_555
O18A C16A 1_555 1_555
C14A N4A 1_555 1_555
H26A C14A 1_555 1_555
H27A C14A 1_555 1_555
C15A C11 1_555 1_555
H28A C15A 1_555 1_555
H29A C15A 1_555 1_555
C16A N3A 1_555 1_555
C17A N2A 1_555 1_555
H30A C17A 1_555 1_555
C18A C12A 1_555 1_555
H31A C18A 1_555 1_555
C19A H32A 1_555 1_555
C20A O3A 1_555 1_555
C21A C2A 1_555 1_555
C22A C5A 1_555 1_555
C23A N4A 1_555 1_555
C24A C27A 1_555 1_555
C25A O9A 1_555 1_555
C26A H33A 1_555 1_555
C27A C18A 1_555 1_555
C28A C13A 1_555 1_555
C29A N6A 1_555 1_555
H34A C29A 1_555 1_555
C30A C19A 1_555 1_555
C31A C4A 1_555 1_555
C32A C31A 1_555 1_555
H35A C32A 1_555 1_555
C33A N1A 1_555 1_555
H36A C33A 1_555 1_555
C34A C19A 1_555 1_555
H37A C34A 1_555 1_555
C35A C13A 1_555 1_555
C36A C1A 1_555 1_555
H38A C36A 1_555 1_555
C37A C38A 1_555 1_555
C38A C12A 1_555 1_555
C39A C26A 1_555 1_555
C40A O16A 1_555 1_555
C41A N2A 1_555 1_555
H39A C41A 1_555 1_555
C3 C41 1_555 1_555
C6 C33 1_555 1_555
N6 C36 1_555 1_555
C7 C14 1_555 1_555
C8 C10 1_555 1_555
C9 C21 1_555 1_555
C16 C31 1_555 1_555
C17 C22 1_555 1_555
C20 C35 1_555 1_555
C22 C23 1_555 1_555
C24 C28 1_555 1_555
C25 C30 1_555 1_555
C26 C27 1_555 1_555
C28 C34 1_555 1_555
C30 C35 1_555 1_555
C38 C39 1_555 1_555
C39 C40 1_555 1_555
C3A C41A 1_555 1_555
N3A C15A 1_555 1_555
C6A C33A 1_555 1_555
N6A C36A 1_555 1_555
C7A C14A 1_555 1_555
C8A C10A 1_555 1_555
C9A C21A 1_555 1_555
C16A C31A 1_555 1_555
C17A C22A 1_555 1_555
C20A C35A 1_555 1_555
C21A C29A 1_555 1_555
C22A C23A 1_555 1_555
C24A C28A 1_555 1_555
C25A C30A 1_555 1_555
C26A C27A 1_555 1_555
C28A C34A 1_555 1_555
C30A C35A 1_555 1_555
C38A C39A 1_555 1_555
C39A C40A 1_555 1_555

#END
