
#######################################################################
#
#                 Cambridge Crystallographic Data Centre
#                                CCDC 
#
#######################################################################
#
# If this CIF has been generated from an entry in the Cambridge 
# Structural Database, then it will include bibliographic, chemical, 
# crystal, experimental, refinement or atomic coordinate data resulting 
# from the CCDC's data processing and validation procedures.
#
#######################################################################

data_VANWIS
_symmetry_cell_setting           monoclinic
_symmetry_space_group_name_H-M   'C 2/c'
_symmetry_Int_Tables_number      15
_space_group_name_Hall           '-C 2yn'
loop_
_symmetry_equiv_pos_site_id
_symmetry_equiv_pos_as_xyz
1 x,y,z
2 -x,y,1/2-z
3 1/2+x,1/2+y,z
4 1/2-x,1/2+y,1/2-z
5 -x,-y,-z
6 x,-y,1/2+z
7 1/2-x,1/2-y,-z
8 1/2+x,1/2-y,1/2+z
_cell_length_a                   25.0574(10)
_cell_length_b                   6.8244(3)
_cell_length_c                   24.2133(9)
_cell_angle_alpha                90
_cell_angle_beta                 116.800(5)
_cell_angle_gamma                90
_cell_volume                     3695.77
loop_
_atom_site_label
_atom_site_type_symbol
_atom_site_fract_x
_atom_site_fract_y
_atom_site_fract_z
Cu1 Cu 0.184080(14) 0.32646(5) 0.659142(14)
C1 C 0.23724(14) 0.4513(5) 0.77892(12)
C2 C 0.17976(15) 0.3474(5) 0.76898(14)
O1 O 0.24823(9) 0.4473(4) 0.73257(9)
O2 O 0.26829(11) 0.5317(3) 0.82884(9)
O3 O 0.16660(13) 0.3346(5) 0.81184(12)
O4 O 0.14864(9) 0.2820(4) 0.71464(9)
N1 N 0.28414(10) 0.4165(4) 0.56512(10)
C3 C 0.27386(12) 0.3798(4) 0.61244(12)
H1 H 0.3025 0.3205 0.6481
N2 N 0.21950(10) 0.4321(4) 0.60705(10)
C4 C 0.19214(12) 0.5133(4) 0.55067(11)
N3 N 0.13843(10) 0.5937(4) 0.52269(10)
C5 C 0.12341(13) 0.6498(4) 0.46454(13)
H2 H 0.0858 0.7057 0.4423
C6 C 0.15883(13) 0.6318(4) 0.43473(12)
H3 H 0.1442 0.6702 0.3936
C7 C 0.21595(12) 0.5569(4) 0.46570(12)
N4 N 0.25609(10) 0.5392(4) 0.44444(10)
H4 H 0.2909 0.4918 0.4678
H5 H 0.2473 0.5751 0.4073
N5 N 0.23079(9) 0.4992(3) 0.52454(9)
N6 N 0.00523(11) 0.2865(4) 0.54066(11)
C8 C 0.05470(13) 0.2958(5) 0.59241(13)
H6 H 0.0546 0.3302 0.6295
N7 N 0.10589(10) 0.2532(4) 0.58939(10)
C9 C 0.08790(12) 0.2098(4) 0.52956(12)
N8 N 0.11930(10) 0.1542(4) 0.50042(10)
C10 C 0.08637(14) 0.1337(5) 0.43915(13)
H7 H 0.1068 0.1004 0.4166
C11 C 0.02554(13) 0.1568(5) 0.40631(13)
H8 H 0.0066 0.1393 0.3636
C12 C -0.00746(12) 0.2071(4) 0.43790(12)
N9 N -0.06568(11) 0.2320(4) 0.41484(11)
H9 H -0.0813 0.2630 0.4388
H10 H -0.0881 0.2171 0.3758
N10 N 0.02695(10) 0.2316(3) 0.49997(10)
Cu1C Cu 0.315920(14) 0.82646(5) 0.840858(14)
O2C O 0.23171(11) 0.0317(3) 0.67116(9)
O5 O 0.12748(14) 0.8347(5) 0.71639(13)
O6 O 0.0610(4) 0.3331(14) 0.2765(4)
O7 O 0.4365(2) 0.5895(11) 0.7200(3)
loop_
_geom_bond_atom_site_label_1
_geom_bond_atom_site_label_2
_geom_bond_site_symmetry_1
_geom_bond_site_symmetry_2
Cu1 O1 1_555 1_555
C1 C2 1_555 1_555
C2 O3 1_555 1_555
O1 C1 1_555 1_555
O2 C1 1_555 1_555
O4 Cu1 1_555 1_555
N1 C3 1_555 1_555
C3 H1 1_555 1_555
N2 Cu1 1_555 1_555
C4 N2 1_555 1_555
N3 C4 1_555 1_555
C5 N3 1_555 1_555
H2 C5 1_555 1_555
C6 C5 1_555 1_555
H3 C6 1_555 1_555
C7 C6 1_555 1_555
N4 C7 1_555 1_555
H4 N4 1_555 1_555
H5 N4 1_555 1_555
N5 N1 1_555 1_555
N6 C8 1_555 1_555
C8 H6 1_555 1_555
N7 Cu1 1_555 1_555
C9 N7 1_555 1_555
N8 C9 1_555 1_555
C10 N8 1_555 1_555
H7 C10 1_555 1_555
C11 C10 1_555 1_555
H8 C11 1_555 1_555
C12 C11 1_555 1_555
N9 C12 1_555 1_555
H9 N9 1_555 1_555
H10 N9 1_555 1_555
N10 N6 1_555 1_555
Cu1C O2 1_555 1_555
O2C Cu1 1_555 1_555
C2 O4 1_555 1_555
C3 N2 1_555 1_555
C4 N5 1_555 1_555
C7 N5 1_555 1_555
C8 N7 1_555 1_555
C9 N10 1_555 1_555
C12 N10 1_555 1_555

#END
