
#######################################################################
#
#                 Cambridge Crystallographic Data Centre
#                                CCDC 
#
#######################################################################
#
# If this CIF has been generated from an entry in the Cambridge 
# Structural Database, then it will include bibliographic, chemical, 
# crystal, experimental, refinement or atomic coordinate data resulting 
# from the CCDC's data processing and validation procedures.
#
#######################################################################

data_VANXEP
_symmetry_cell_setting           monoclinic
_symmetry_space_group_name_H-M   'P 21'
_symmetry_Int_Tables_number      4
_space_group_name_Hall           'P 2yb'
loop_
_symmetry_equiv_pos_site_id
_symmetry_equiv_pos_as_xyz
1 x,y,z
2 -x,1/2+y,-z
_cell_length_a                   11.961(2)
_cell_length_b                   22.678(3)
_cell_length_c                   21.079(3)
_cell_angle_alpha                90
_cell_angle_beta                 104.390(7)
_cell_angle_gamma                90
_cell_volume                     5538.33
loop_
_atom_site_label
_atom_site_type_symbol
_atom_site_fract_x
_atom_site_fract_y
_atom_site_fract_z
C1 C 0.1018(9) 0.6689(3) 0.2412(4)
C2 C -0.0143(9) 0.6838(3) 0.2297(3)
H1 H -0.0507 0.7034 0.1914
C3 C -0.0759(6) 0.6694(3) 0.2754(6)
H2 H -0.1535 0.6794 0.2677
C4 C -0.0215(9) 0.6401(4) 0.3327(4)
H3 H -0.0627 0.6304 0.3633
C5 C 0.0946(9) 0.6252(3) 0.3442(3)
H4 H 0.1310 0.6055 0.3825
C6 C 0.1562(6) 0.6396(3) 0.2985(5)
H5 H 0.2339 0.6296 0.3062
C7 C 0.6336(8) 0.2871(3) 0.2964(3)
H6 H 0.6229 0.2576 0.3250
C8 C 0.7433(7) 0.2983(3) 0.2880(3)
H7 H 0.8060 0.2763 0.3111
C9 C 0.7593(6) 0.3423(4) 0.2453(4)
H8 H 0.8327 0.3498 0.2397
C10 C 0.6656(8) 0.3751(3) 0.2109(3)
H9 H 0.6763 0.4046 0.1823
C11 C 0.5559(7) 0.3639(3) 0.2193(3)
H10 H 0.4933 0.3859 0.1962
C12 C 0.5399(6) 0.3199(4) 0.2620(4)
Pr1 Pr 0.11697(5) 0.80485(2) 0.03138(3)
Pr2 Pr 0.42027(5) 0.19556(2) 0.45059(3)
C13 C 0.4229(8) 0.3149(5) 0.2748(4)
H11 H 0.3646 0.3218 0.2345
H12 H 0.4124 0.2752 0.2896
C14 C 0.4091(8) 0.3455(4) 0.3846(5)
C15 C 0.3995(8) 0.3937(5) 0.4320(6)
C16 C 0.3913(8) 0.3791(5) 0.4929(6)
H13 H 0.3939 0.3393 0.5038
C17 C 0.3794(10) 0.4192(5) 0.5399(6)
H14 H 0.3722 0.4083 0.5812
C18 C 0.3794(9) 0.4761(6) 0.5201(7)
H15 H 0.3732 0.5050 0.5503
C19 C 0.3874(9) 0.4945(5) 0.4609(6)
H16 H 0.3863 0.5345 0.4510
C20 C 0.3973(8) 0.4528(5) 0.4152(5)
C21 C 0.3910(9) 0.5270(4) 0.3341(5)
H17 H 0.4539 0.5509 0.3592
H18 H 0.3190 0.5426 0.3404
C22 C 0.3903(11) 0.5283(4) 0.2620(5)
H19 H 0.4013 0.5683 0.2484
H20 H 0.4522 0.5040 0.2541
C23 C 0.2878(10) 0.4787(5) 0.1676(6)
H21 H 0.3227 0.4401 0.1769
H22 H 0.3352 0.5016 0.1454
C24 C 0.1719(9) 0.4724(4) 0.1244(5)
H23 H 0.1767 0.4494 0.0864
H24 H 0.1239 0.4508 0.1474
C25 C 0.0943(8) 0.5419(4) 0.0406(5)
C26 C 0.0652(9) 0.5017(4) -0.0081(5)
H25 H 0.0672 0.4620 0.0028
C27 C 0.0332(10) 0.5170(5) -0.0721(5)
H26 H 0.0129 0.4887 -0.1048
C28 C 0.0318(11) 0.5790(6) -0.0877(5)
H27 H 0.0117 0.5916 -0.1310
C29 C 0.0607(10) 0.6187(4) -0.0375(5)
H28 H 0.0576 0.6587 -0.0475
C30 C 0.0924(10) 0.6029(5) 0.0240(5)
C31 C 0.1183(9) 0.6516(4) 0.0741(5)
C32 C 0.1567(10) 0.6824(4) 0.1878(5)
H29 H 0.1303 0.7208 0.1700
H30 H 0.2395 0.6850 0.2060
C33 C 0.0603(10) 0.3860(6) 0.4043(6)
H31 H 0.0418 0.3879 0.4446
C34 C 0.0683(10) 0.4369(5) 0.3679(7)
H32 H 0.0538 0.4734 0.3844
C35 C 0.0964(11) 0.4350(7) 0.3093(6)
H33 H 0.1076 0.4694 0.2876
C36 C 0.1073(11) 0.3820(7) 0.2843(6)
H34 H 0.1188 0.3794 0.2423
C37 C 0.1020(8) 0.3323(5) 0.3181(5)
H35 H 0.1131 0.2959 0.3004
C38 C 0.0802(9) 0.3357(6) 0.3788(6)
C39 C 0.0691(8) 0.2759(4) 0.4120(5)
H36 H -0.0095 0.2617 0.3966
H37 H 0.1197 0.2475 0.3989
C40 C 0.1986(10) 0.2635(4) 0.5212(4)
C41 C 0.2234(10) 0.2781(3) 0.5940(5)
C42 C 0.3366(10) 0.2789(4) 0.6275(6)
H38 H 0.3938 0.2690 0.6064
C43 C 0.3666(12) 0.2948(7) 0.6942(6)
H39 H 0.4437 0.2951 0.7175
C44 C 0.2835(12) 0.3097(6) 0.7243(5)
H40 H 0.3028 0.3228 0.7674
C45 C 0.1690(11) 0.3052(6) 0.6900(6)
H41 H 0.1119 0.3121 0.7120
C46 C 0.1370(12) 0.2911(4) 0.6258(6)
C47 C -0.0613(8) 0.3049(5) 0.6231(5)
H42 H -0.0475 0.3445 0.6406
H43 H -0.0642 0.2780 0.6584
C48 C -0.1664(9) 0.3024(5) 0.5723(5)
H44 H -0.1769 0.2627 0.5545
H45 H -0.2311 0.3112 0.5909
C49 C -0.2735(9) 0.3449(5) 0.4730(6)
H46 H -0.3348 0.3544 0.4939
H47 H -0.2898 0.3065 0.4524
C50 C -0.2693(9) 0.3894(4) 0.4231(5)
H48 H -0.1986 0.3855 0.4089
H49 H -0.3343 0.3846 0.3854
C51 C -0.2833(8) 0.4957(5) 0.4131(6)
C52 C -0.2810(9) 0.4951(6) 0.3437(6)
H50 H -0.2703 0.4598 0.3236
C53 C -0.2948(11) 0.5471(8) 0.3086(7)
H51 H -0.2913 0.5463 0.2650
C54 C -0.3123(13) 0.5970(7) 0.3346(9)
H52 H -0.3238 0.6316 0.3101
C55 C -0.3136(10) 0.5972(5) 0.4000(7)
H53 H -0.3252 0.6334 0.4180
C56 C -0.2991(8) 0.5485(5) 0.4418(6)
C57 C -0.3094(8) 0.5574(5) 0.5092(5)
C58 C -0.3132(14) 0.5191(6) 0.6137(6)
H54 H -0.3056 0.5602 0.6269
H55 H -0.3909 0.5064 0.6132
C59 C -0.2322(6) 0.4845(3) 0.6601(3)
C60 C -0.1217(7) 0.4936(3) 0.6995(3)
H56 H -0.0842 0.5292 0.6976
C61 C -0.0674(7) 0.4495(4) 0.7418(3)
H57 H 0.0065 0.4555 0.7682
C62 C -0.1236(7) 0.3962(3) 0.7447(3)
H58 H -0.0872 0.3667 0.7731
C63 C -0.2340(7) 0.3871(3) 0.7053(3)
H59 H -0.2715 0.3515 0.7073
C64 C -0.2883(6) 0.4313(3) 0.6630(3)
H60 H -0.3622 0.4252 0.6366
C65 C 0.6494(6) 0.8334(3) 0.0119(3)
H61 H 0.6929 0.8008 0.0298
C66 C 0.7031(6) 0.8876(3) 0.0099(3)
H62 H 0.7824 0.8911 0.0265
C67 C 0.6380(7) 0.9364(3) -0.0168(3)
H63 H 0.6739 0.9726 -0.0181
C68 C 0.5194(6) 0.9312(3) -0.0416(3)
H64 H 0.4759 0.9639 -0.0595
C69 C 0.4658(6) 0.8771(3) -0.0396(2)
H65 H 0.3864 0.8735 -0.0562
C70 C 0.5308(6) 0.8282(3) -0.0129(2)
C71 C 0.4608(13) 0.7737(6) -0.0049(7)
H66 H 0.4164 0.7812 0.0270
H67 H 0.5120 0.7407 0.0104
C72 C 0.2708(13) 0.7540(5) -0.0854(7)
C73 C 0.2149(12) 0.7195(4) -0.1468(5)
C74 C 0.0945(14) 0.7196(5) -0.1681(7)
H68 H 0.0508 0.7434 -0.1476
C75 C 0.0400(13) 0.6833(9) -0.2212(9)
H69 H -0.0400 0.6806 -0.2342
C76 C 0.1031(17) 0.6544(8) -0.2508(8)
H70 H 0.0658 0.6323 -0.2871
C77 C 0.2109(15) 0.6533(5) -0.2351(6)
H71 H 0.2498 0.6302 -0.2591
C78 C 0.2753(12) 0.6867(5) -0.1811(5)
C79 C 0.4570(14) 0.6511(6) -0.1929(7)
H72 H 0.4332 0.6563 -0.2400
H73 H 0.4450 0.6101 -0.1831
C80 C 0.5812(13) 0.6665(6) -0.1686(7)
H74 H 0.6269 0.6457 -0.1936
H75 H 0.5925 0.7085 -0.1728
C81 C 0.7325(11) 0.6660(5) -0.0733(7)
H76 H 0.7394 0.7087 -0.0736
H77 H 0.7820 0.6496 -0.0989
C82 C 0.7674(10) 0.6444(5) -0.0068(7)
H78 H 0.8439 0.6589 0.0143
H79 H 0.7141 0.6581 0.0179
C83 C 0.8037(8) 0.5484(4) 0.0460(5)
C84 C 0.8105(8) 0.4863(4) 0.0415(5)
C85 C 0.8417(8) 0.4531(4) 0.0955(5)
H80 H 0.8421 0.4123 0.0916
C86 C 0.8735(9) 0.4789(5) 0.1575(6)
H81 H 0.9012 0.4561 0.1947
C87 C 0.8626(10) 0.5390(6) 0.1619(5)
H82 H 0.8771 0.5565 0.2030
C88 C 0.8308(10) 0.5738(5) 0.1070(7)
H83 H 0.8277 0.6145 0.1112
C89 C 0.7764(9) 0.4562(5) -0.0265(5)
C90 C 0.7009(14) 0.4605(5) -0.1437(6)
H84 H 0.7220 0.4191 -0.1416
H85 H 0.7469 0.4808 -0.1688
C91 C 0.5798(16) 0.4665(7) -0.1764(9)
C92 C 0.5407(15) 0.4950(6) -0.2377(8)
H86 H 0.5943 0.5099 -0.2587
C93 C 0.4222(17) 0.5011(7) -0.2672(8)
H87 H 0.3980 0.5210 -0.3068
C94 C 0.3498(15) 0.4799(7) -0.2402(9)
H88 H 0.2713 0.4828 -0.2601
C95 C 0.3895(16) 0.4503(7) -0.1772(9)
H89 H 0.3374 0.4326 -0.1569
C96 C 0.5046(16) 0.4494(6) -0.1488(8)
H90 H 0.5289 0.4353 -0.1062
N1 N 0.4084(6) 0.3559(3) 0.3229(4)
H91 H 0.3978 0.3920 0.3103
N2 N 0.1349(8) 0.6406(3) 0.1353(4)
H92 H 0.1327 0.6041 0.1460
N3 N 0.0980(7) 0.2792(3) 0.4836(4)
H93 H 0.0463 0.2920 0.5021
N4 N -0.2952(8) 0.5135(4) 0.5485(4)
H94 H -0.2746 0.4800 0.5359
N5 N 0.3789(11) 0.7591(6) -0.0722(6)
H95 H 0.4108 0.7538 -0.1041
N6 N 0.7259(8) 0.4845(4) -0.0782(4)
H96 H 0.7054 0.5203 -0.0737
N7 N -0.0932(11) 0.8116(5) -0.0849(5)
N8 N -0.0531(11) 0.8306(6) 0.1121(6)
N9 N 0.3131(15) 0.7972(8) 0.1460(9)
N10 N 0.2869(11) 0.1680(5) 0.3127(6)
N11 N 0.6309(10) 0.1456(6) 0.4184(6)
N12 N 0.5749(11) 0.2134(6) 0.5855(7)
O1 O 0.4181(5) 0.2919(3) 0.4047(3)
O2 O 0.4052(6) 0.4675(3) 0.3548(3)
O3 O 0.2854(7) 0.5070(4) 0.2274(4)
O4 O 0.1200(7) 0.5261(3) 0.1037(3)
O5 O 0.1277(6) 0.7037(3) 0.0557(3)
O6 O 0.2742(6) 0.2390(3) 0.4982(3)
O7 O 0.0264(6) 0.2876(3) 0.5916(3)
O8 O -0.1655(6) 0.3430(3) 0.5210(4)
O9 O -0.2739(6) 0.4454(3) 0.4523(3)
O10 O -0.3302(6) 0.6083(4) 0.5258(3)
O11 O 0.2122(8) 0.7780(3) -0.0513(4)
O12 O 0.3913(7) 0.6874(4) -0.1628(3)
O13 O 0.6149(7) 0.6492(3) -0.1012(4)
O14 O 0.7679(6) 0.5814(3) -0.0086(4)
O15 O 0.8022(6) 0.4008(3) -0.0261(3)
O16 O -0.0619(7) 0.7638(3) -0.0516(4)
O17 O -0.1714(8) 0.8127(4) -0.1299(4)
O18 O -0.0252(7) 0.8539(3) -0.0647(4)
O19 O -0.0339(8) 0.7781(4) 0.0933(4)
O20 O -0.1166(9) 0.8398(4) 0.1480(5)
O21 O -0.0061(7) 0.8716(3) 0.0850(4)
O22 O 0.2137(9) 0.8170(4) 0.1510(5)
O23 O 0.3905(9) 0.7944(6) 0.1975(6)
O24 O 0.3246(12) 0.7882(7) 0.0922(5)
O25 O 0.2393(6) 0.1872(4) 0.3568(4)
O26 O 0.2318(8) 0.1541(5) 0.2587(4)
O27 O 0.3953(7) 0.1654(3) 0.3319(4)
O28 O 0.6141(6) 0.1998(4) 0.4238(4)
O29 O 0.7044(10) 0.1237(5) 0.3950(6)
O30 O 0.5569(8) 0.1138(3) 0.4343(4)
O31 O 0.5502(6) 0.2536(4) 0.5440(4)
O32 O 0.6293(8) 0.2234(5) 0.6402(5)
O33 O 0.5328(8) 0.1630(5) 0.5656(5)
Pr1A Pr 0.88303(5) 0.30485(2) -0.03138(3)
Pr2A Pr -0.42027(5) 0.69556(2) 0.54941(3)
O10A O 0.3302(6) 0.1083(4) 0.4742(3)
O15A O 0.1978(6) 0.9008(3) 0.0261(3)
loop_
_geom_bond_atom_site_label_1
_geom_bond_atom_site_label_2
_geom_bond_site_symmetry_1
_geom_bond_site_symmetry_2
C1 C2 1_555 1_555
C2 H1 1_555 1_555
C3 C2 1_555 1_555
H2 C3 1_555 1_555
C4 C3 1_555 1_555
H3 C4 1_555 1_555
C5 C4 1_555 1_555
H4 C5 1_555 1_555
C6 C1 1_555 1_555
H5 C6 1_555 1_555
C7 H6 1_555 1_555
C8 C7 1_555 1_555
H7 C8 1_555 1_555
C9 C8 1_555 1_555
H8 C9 1_555 1_555
C10 C9 1_555 1_555
H9 C10 1_555 1_555
C11 C10 1_555 1_555
H10 C11 1_555 1_555
C12 C7 1_555 1_555
Pr1 O5 1_555 1_555
Pr2 O1 1_555 1_555
C13 C12 1_555 1_555
H11 C13 1_555 1_555
H12 C13 1_555 1_555
C14 C15 1_555 1_555
C15 C16 1_555 1_555
C16 H13 1_555 1_555
C17 C16 1_555 1_555
H14 C17 1_555 1_555
C18 C17 1_555 1_555
H15 C18 1_555 1_555
C19 C18 1_555 1_555
H16 C19 1_555 1_555
C20 C15 1_555 1_555
C21 H17 1_555 1_555
H18 C21 1_555 1_555
C22 C21 1_555 1_555
H19 C22 1_555 1_555
H20 C22 1_555 1_555
C23 H21 1_555 1_555
H22 C23 1_555 1_555
C24 C23 1_555 1_555
H23 C24 1_555 1_555
H24 C24 1_555 1_555
C25 C26 1_555 1_555
C26 H25 1_555 1_555
C27 C26 1_555 1_555
H26 C27 1_555 1_555
C28 C27 1_555 1_555
H27 C28 1_555 1_555
C29 C28 1_555 1_555
H28 C29 1_555 1_555
C30 C25 1_555 1_555
C31 C30 1_555 1_555
C32 C1 1_555 1_555
H29 C32 1_555 1_555
H30 C32 1_555 1_555
C33 H31 1_555 1_555
C34 C33 1_555 1_555
H32 C34 1_555 1_555
C35 C34 1_555 1_555
H33 C35 1_555 1_555
C36 C35 1_555 1_555
H34 C36 1_555 1_555
C37 C36 1_555 1_555
H35 C37 1_555 1_555
C38 C33 1_555 1_555
C39 C38 1_555 1_555
H36 C39 1_555 1_555
H37 C39 1_555 1_555
C40 C41 1_555 1_555
C41 C42 1_555 1_555
C42 H38 1_555 1_555
C43 C42 1_555 1_555
H39 C43 1_555 1_555
C44 C43 1_555 1_555
H40 C44 1_555 1_555
C45 C44 1_555 1_555
H41 C45 1_555 1_555
C46 C41 1_555 1_555
C47 H42 1_555 1_555
H43 C47 1_555 1_555
C48 C47 1_555 1_555
H44 C48 1_555 1_555
H45 C48 1_555 1_555
C49 H46 1_555 1_555
H47 C49 1_555 1_555
C50 C49 1_555 1_555
H48 C50 1_555 1_555
H49 C50 1_555 1_555
C51 C52 1_555 1_555
C52 H50 1_555 1_555
C53 C52 1_555 1_555
H51 C53 1_555 1_555
C54 C53 1_555 1_555
H52 C54 1_555 1_555
C55 C54 1_555 1_555
H53 C55 1_555 1_555
C56 C51 1_555 1_555
C57 C56 1_555 1_555
C58 H54 1_555 1_555
H55 C58 1_555 1_555
C59 C58 1_555 1_555
C60 C59 1_555 1_555
H56 C60 1_555 1_555
C61 C60 1_555 1_555
H57 C61 1_555 1_555
C62 C61 1_555 1_555
H58 C62 1_555 1_555
C63 C62 1_555 1_555
H59 C63 1_555 1_555
C64 C59 1_555 1_555
H60 C64 1_555 1_555
C65 H61 1_555 1_555
C66 C65 1_555 1_555
H62 C66 1_555 1_555
C67 C66 1_555 1_555
H63 C67 1_555 1_555
C68 C67 1_555 1_555
H64 C68 1_555 1_555
C69 C68 1_555 1_555
H65 C69 1_555 1_555
C70 C65 1_555 1_555
C71 C70 1_555 1_555
H66 C71 1_555 1_555
H67 C71 1_555 1_555
C72 C73 1_555 1_555
C73 C74 1_555 1_555
C74 H68 1_555 1_555
C75 C74 1_555 1_555
H69 C75 1_555 1_555
C76 C75 1_555 1_555
H70 C76 1_555 1_555
C77 C76 1_555 1_555
H71 C77 1_555 1_555
C78 C73 1_555 1_555
C79 H72 1_555 1_555
H73 C79 1_555 1_555
C80 C79 1_555 1_555
H74 C80 1_555 1_555
H75 C80 1_555 1_555
C81 H76 1_555 1_555
H77 C81 1_555 1_555
C82 C81 1_555 1_555
H78 C82 1_555 1_555
H79 C82 1_555 1_555
C83 C84 1_555 1_555
C84 C85 1_555 1_555
C85 H80 1_555 1_555
C86 C85 1_555 1_555
H81 C86 1_555 1_555
C87 C86 1_555 1_555
H82 C87 1_555 1_555
C88 C83 1_555 1_555
H83 C88 1_555 1_555
C89 C84 1_555 1_555
C90 H84 1_555 1_555
H85 C90 1_555 1_555
C91 C90 1_555 1_555
C92 C91 1_555 1_555
H86 C92 1_555 1_555
C93 C92 1_555 1_555
H87 C93 1_555 1_555
C94 C93 1_555 1_555
H88 C94 1_555 1_555
C95 C94 1_555 1_555
H89 C95 1_555 1_555
C96 C91 1_555 1_555
H90 C96 1_555 1_555
N1 C13 1_555 1_555
H91 N1 1_555 1_555
N2 C31 1_555 1_555
H92 N2 1_555 1_555
N3 C39 1_555 1_555
H93 N3 1_555 1_555
N4 C57 1_555 1_555
H94 N4 1_555 1_555
N5 C71 1_555 1_555
H95 N5 1_555 1_555
N6 C89 1_555 1_555
H96 N6 1_555 1_555
N7 O16 1_555 1_555
N8 O19 1_555 1_555
N9 O22 1_555 1_555
N10 O25 1_555 1_555
N11 O28 1_555 1_555
N12 O31 1_555 1_555
O1 C14 1_555 1_555
O2 C20 1_555 1_555
O3 C22 1_555 1_555
O4 C24 1_555 1_555
O5 C31 1_555 1_555
O6 Pr2 1_555 1_555
O7 C46 1_555 1_555
O8 C48 1_555 1_555
O9 C50 1_555 1_555
O10 C57 1_555 1_555
O11 Pr1 1_555 1_555
O12 C78 1_555 1_555
O13 C80 1_555 1_555
O14 C82 1_555 1_555
O15 C89 1_555 1_555
O16 Pr1 1_555 1_555
O17 N7 1_555 1_555
O18 Pr1 1_555 1_555
O19 Pr1 1_555 1_555
O20 N8 1_555 1_555
O21 Pr1 1_555 1_555
O22 Pr1 1_555 1_555
O23 N9 1_555 1_555
O24 Pr1 1_555 1_555
O25 Pr2 1_555 1_555
O26 N10 1_555 1_555
O27 Pr2 1_555 1_555
O28 Pr2 1_555 1_555
O29 N11 1_555 1_555
O30 Pr2 1_555 1_555
O31 Pr2 1_555 1_555
O32 N12 1_555 1_555
O33 Pr2 1_555 1_555
Pr1A O15 1_555 1_555
Pr2A O10 1_555 1_555
O10A Pr2 1_555 1_555
O15A Pr1 1_555 1_555
C5 C6 1_555 1_555
C11 C12 1_555 1_555
C14 N1 1_555 1_555
C19 C20 1_555 1_555
C21 O2 1_555 1_555
C23 O3 1_555 1_555
C25 O4 1_555 1_555
C29 C30 1_555 1_555
C32 N2 1_555 1_555
C37 C38 1_555 1_555
C40 N3 1_555 1_555
C40 O6 1_555 1_555
C45 C46 1_555 1_555
C47 O7 1_555 1_555
C49 O8 1_555 1_555
C51 O9 1_555 1_555
C55 C56 1_555 1_555
C58 N4 1_555 1_555
C63 C64 1_555 1_555
C69 C70 1_555 1_555
C72 N5 1_555 1_555
C72 O11 1_555 1_555
C77 C78 1_555 1_555
C79 O12 1_555 1_555
C81 O13 1_555 1_555
C83 O14 1_555 1_555
C87 C88 1_555 1_555
C90 N6 1_555 1_555
C95 C96 1_555 1_555
N7 O18 1_555 1_555
N8 O21 1_555 1_555
N9 O24 1_555 1_555
N10 O27 1_555 1_555
N11 O30 1_555 1_555
N12 O33 1_555 1_555

#END
