
#######################################################################
#
#                 Cambridge Crystallographic Data Centre
#                                CCDC 
#
#######################################################################
#
# If this CIF has been generated from an entry in the Cambridge 
# Structural Database, then it will include bibliographic, chemical, 
# crystal, experimental, refinement or atomic coordinate data resulting 
# from the CCDC's data processing and validation procedures.
#
#######################################################################

data_VANXOZ
_symmetry_cell_setting           rhombohedral
_symmetry_space_group_name_H-M   'R -3'
_symmetry_Int_Tables_number      148
_space_group_name_Hall           '-R 3'
loop_
_symmetry_equiv_pos_site_id
_symmetry_equiv_pos_as_xyz
1 x,y,z
2 -y,x-y,z
3 -x+y,-x,z
4 2/3+x,1/3+y,1/3+z
5 2/3-y,1/3+x-y,1/3+z
6 2/3-x+y,1/3-x,1/3+z
7 1/3+x,2/3+y,2/3+z
8 1/3-y,2/3+x-y,2/3+z
9 1/3-x+y,2/3-x,2/3+z
10 -x,-y,-z
11 y,-x+y,-z
12 x-y,x,-z
13 1/3-x,2/3-y,2/3-z
14 1/3+y,2/3-x+y,2/3-z
15 1/3+x-y,2/3+x,2/3-z
16 2/3-x,1/3-y,1/3-z
17 2/3+y,1/3-x+y,1/3-z
18 2/3+x-y,1/3+x,1/3-z
_cell_length_a                   19.682(5)
_cell_length_b                   19.682(5)
_cell_length_c                   53.28(3)
_cell_angle_alpha                90
_cell_angle_beta                 90
_cell_angle_gamma                120
_cell_volume                     17874.5
loop_
_atom_site_label
_atom_site_type_symbol
_atom_site_fract_x
_atom_site_fract_y
_atom_site_fract_z
C1 C 0.0980(12) 0.8232(13) 0.7139(3)
H1 H 0.0521 0.7884 0.7055
C2 C 0.1653(13) 0.8158(14) 0.7116(4)
H2 H 0.1642 0.7766 0.7015
C3 C 0.2320(14) 0.8665(15) 0.7241(4)
H3 H 0.2763 0.8615 0.7221
C4 C 0.2366(12) 0.9229(14) 0.7390(4)
H4 H 0.2836 0.9566 0.7471
C5 C 0.1664(10) 0.9320(11) 0.7429(3)
H5 H 0.1677 0.9685 0.7542
C6 C 0.1004(10) 0.8850(12) 0.7293(3)
C7 C 0.0280(8) 0.8952(7) 0.7319(2)
H6 H 0.0204 0.9025 0.7495
H7 H 0.0375 0.9420 0.7230
C8 C -0.0829(6) 0.8322(6) 0.70306(18)
C9 C -0.1555(6) 0.7595(5) 0.69567(17)
C10 C -0.2082(6) 0.7680(6) 0.6811(2)
H8 H -0.1961 0.8178 0.6757
C11 C -0.2784(7) 0.7045(8) 0.6744(2)
H9 H -0.3142 0.7114 0.6649
C12 C -0.2958(7) 0.6310(7) 0.6817(2)
H10 H -0.3437 0.5881 0.6772
C13 C -0.2434(8) 0.6191(7) 0.6958(2)
H11 H -0.2553 0.5686 0.7002
C14 C -0.1732(7) 0.6832(6) 0.7032(2)
C15 C -0.1300(11) 0.6090(8) 0.7271(3)
H12 H -0.1509 0.5671 0.7148
H13 H -0.1683 0.5945 0.7404
C16 C -0.0582(14) 0.6181(10) 0.7372(4)
H14 H -0.0712 0.5735 0.7480
H15 H -0.0273 0.6158 0.7234
C17 C -0.0317(9) 0.6898(9) 0.7752(3)
H16 H -0.0379 0.6446 0.7845
H17 H -0.0813 0.6892 0.7756
C18 C 0.0296(7) 0.7618(9) 0.7867(2)
H18 H 0.0401 0.8066 0.7764
H19 H 0.0131 0.7688 0.8032
C19 C 0.1666(7) 0.8175(7) 0.79722(18)
C20 C 0.1726(8) 0.8880(8) 0.8053(2)
H20 H 0.1284 0.8936 0.8051
C21 C 0.2413(8) 0.9479(8) 0.8136(2)
H21 H 0.2443 0.9941 0.8192
C22 C 0.3063(8) 0.9403(7) 0.8136(2)
H22 H 0.3540 0.9823 0.8188
C23 C 0.3028(7) 0.8704(7) 0.8060(2)
H23 H 0.3474 0.8655 0.8069
C24 C 0.2326(6) 0.8085(7) 0.79723(17)
C25 C 0.2344(7) 0.7380(7) 0.78893(19)
C26 C 0.1682(13) 0.6146(10) 0.7644(3)
H24 H 0.2158 0.6134 0.7680
H25 H 0.1259 0.5723 0.7737
C27 C 0.1517(8) 0.6008(8) 0.73849(19)
C28 C 0.2110(7) 0.6543(7) 0.7229(3)
H26 H 0.2570 0.6945 0.7298
C29 C 0.2014(9) 0.6478(8) 0.6970(3)
H27 H 0.2410 0.6837 0.6866
C30 C 0.1326(10) 0.5878(10) 0.68669(19)
H28 H 0.1262 0.5834 0.6694
C31 C 0.0733(7) 0.5342(8) 0.7023(3)
H29 H 0.0273 0.4940 0.6954
C32 C 0.0829(7) 0.5407(8) 0.7282(3)
H30 H 0.0433 0.5049 0.7386
Eu1 Eu 0.0000 1.0000 0.664703(16)
Eu2 Eu 0.3333 0.6667 0.824717(18)
N1 N -0.0428(6) 0.8286(5) 0.72233(18)
H31 H -0.0597 0.7840 0.7296
N2 N 0.1778(8) 0.6891(7) 0.7734(2)
H32 H 0.1445 0.7024 0.7683
N3 N 0.0666(6) 1.1456(6) 0.6365(2)
N4 N 0.4100(6) 0.6001(6) 0.8545(2)
O1 O -0.0648(4) 0.8945(4) 0.69251(12)
O2 O -0.1174(6) 0.6767(5) 0.71619(18)
O3 O -0.0108(7) 0.6866(6) 0.7509(2)
O4 O 0.0991(5) 0.7552(5) 0.78873(15)
O5 O 0.2858(4) 0.7243(4) 0.79660(14)
O6 O -0.0015(5) 1.0881(5) 0.63121(15)
O7 O 0.0939(6) 1.2045(6) 0.6233(2)
O8 O 0.0996(4) 1.1388(4) 0.65528(15)
O9 O 0.4200(5) 0.6680(5) 0.85892(16)
O10 O 0.4324(6) 0.5684(6) 0.8689(2)
O11 O 0.3768(5) 0.5702(5) 0.83469(18)
C1A C 0.1768(13) 0.2748(18) 0.7139(3)
C1B C -0.2748(18) 0.9020(12) 0.7139(3)
H1A H 0.2116 0.2637 0.7055
H1B H -0.2637 0.9479 0.7055
C2A C 0.1842(14) 0.3495(19) 0.7116(4)
C2B C -0.3495(19) 0.8347(13) 0.7116(4)
H2A H 0.2234 0.3876 0.7015
H2B H -0.3876 0.8358 0.7015
C3A C 0.1335(15) 0.3655(21) 0.7241(4)
C3B C -0.3655(21) 0.7680(14) 0.7241(4)
H3A H 0.1385 0.4148 0.7221
H3B H -0.4148 0.7237 0.7221
C4A C 0.0771(14) 0.3137(18) 0.7390(4)
C4B C -0.3137(18) 0.7634(12) 0.7390(4)
H4A H 0.0434 0.3270 0.7471
H4B H -0.3270 0.7164 0.7471
C5A C 0.0680(11) 0.2344(15) 0.7429(3)
C5B C -0.2344(15) 0.8336(10) 0.7429(3)
H5A H 0.0315 0.1992 0.7542
H5B H -0.1992 0.8323 0.7542
C6A C 0.1150(12) 0.2154(16) 0.7293(3)
C6B C -0.2154(16) 0.8996(10) 0.7293(3)
C7A C 0.1048(7) 0.1328(11) 0.7319(2)
C7B C -0.1328(11) 0.9720(8) 0.7319(2)
H6A H 0.0975 0.1179 0.7495
H6B H -0.1179 0.9796 0.7495
H7A H 0.0580 0.0955 0.7230
H7B H -0.0955 0.9625 0.7230
C8A C 0.1678(6) 0.0849(8) 0.70306(18)
C8B C -0.0849(8) 1.0829(6) 0.70306(18)
C9A C 0.2405(5) 0.0850(8) 0.69567(17)
C9B C -0.0850(8) 1.1555(6) 0.69567(17)
C10A C 0.2320(6) 0.0238(8) 0.6811(2)
C10B C -0.0238(8) 1.2082(6) 0.6811(2)
H8A H 0.1822 -0.0139 0.6757
H8B H 0.0139 1.1961 0.6757
C11A C 0.2955(8) 0.0171(11) 0.6744(2)
C11B C -0.0171(11) 1.2784(7) 0.6744(2)
H9A H 0.2886 -0.0256 0.6649
H9B H 0.0256 1.3142 0.6649
C12A C 0.3690(7) 0.0732(10) 0.6817(2)
C12B C -0.0732(10) 1.2958(7) 0.6817(2)
H10A H 0.4119 0.0682 0.6772
H10B H -0.0682 1.3437 0.6772
C13A C 0.3809(7) 0.1375(11) 0.6958(2)
C13B C -0.1375(11) 1.2434(8) 0.6958(2)
H11A H 0.4314 0.1761 0.7002
H11B H -0.1761 1.2553 0.7002
C14A C 0.3168(6) 0.1436(9) 0.7032(2)
C14B C -0.1436(9) 1.1732(7) 0.7032(2)
C15A C 0.3910(8) 0.2610(14) 0.7271(3)
C15B C -0.2610(14) 1.1300(11) 0.7271(3)
H12A H 0.4329 0.2820 0.7148
H12B H -0.2820 1.1509 0.7148
H13A H 0.4055 0.2372 0.7404
H13B H -0.2372 1.1683 0.7404
C16A C 0.3819(10) 0.3237(17) 0.7372(4)
C16B C -0.3237(17) 1.0582(14) 0.7372(4)
H14A H 0.4265 0.3553 0.7480
H14B H -0.3553 1.0712 0.7480
H15A H 0.3842 0.3569 0.7234
H15B H -0.3569 1.0273 0.7234
C17A C 0.3102(9) 0.2785(13) 0.7752(3)
C17B C -0.2785(13) 1.0317(9) 0.7752(3)
H16A H 0.3554 0.3175 0.7845
H16B H -0.3175 1.0379 0.7845
H17A H 0.3108 0.2295 0.7756
H17B H -0.2295 1.0813 0.7756
C18A C 0.2382(9) 0.2678(11) 0.7867(2)
C18B C -0.2678(11) 0.9704(7) 0.7867(2)
H18A H 0.1934 0.2335 0.7764
H18B H -0.2335 0.9599 0.7764
H19A H 0.2312 0.2443 0.8032
H19B H -0.2443 0.9869 0.8032
C19A C 0.1825(7) 0.3491(10) 0.79722(18)
C19B C -0.3491(10) 0.8334(7) 0.79722(18)
C20A C 0.1120(8) 0.2846(11) 0.8053(2)
C20B C -0.2846(11) 0.8274(8) 0.8053(2)
H20A H 0.1064 0.2348 0.8051
H20B H -0.2348 0.8716 0.8051
C21A C 0.0521(8) 0.2934(11) 0.8136(2)
C21B C -0.2934(11) 0.7587(8) 0.8136(2)
H21A H 0.0059 0.2502 0.8192
H21B H -0.2502 0.7557 0.8192
C22A C 0.0597(7) 0.3660(11) 0.8136(2)
C22B C -0.3660(11) 0.6937(8) 0.8136(2)
H22A H 0.0177 0.3717 0.8188
H22B H -0.3717 0.6460 0.8188
C23A C 0.1296(7) 0.4324(10) 0.8060(2)
C23B C -0.4324(10) 0.6972(7) 0.8060(2)
H23A H 0.1345 0.4819 0.8069
H23B H -0.4819 0.6526 0.8069
C24A C 0.1915(7) 0.4241(9) 0.79723(17)
C24B C -0.4241(9) 0.7674(6) 0.79723(17)
C25A C 0.2620(7) 0.4964(10) 0.78893(19)
C25B C -0.4964(10) 0.7656(7) 0.78893(19)
C26A C 0.3854(10) 0.5536(16) 0.7644(3)
C26B C -0.5536(16) 0.8318(13) 0.7644(3)
H24A H 0.3866 0.6024 0.7680
H24B H -0.6024 0.7842 0.7680
H25A H 0.4277 0.5536 0.7737
H25B H -0.5536 0.8741 0.7737
C27A C 0.3992(8) 0.5509(11) 0.73849(19)
C27B C -0.5509(11) 0.8483(8) 0.73849(19)
C28A C 0.3457(7) 0.5567(10) 0.7229(3)
C28B C -0.5567(10) 0.7890(7) 0.7229(3)
H26A H 0.3055 0.5625 0.7298
H26B H -0.5625 0.7430 0.7298
C29A C 0.3522(8) 0.5536(12) 0.6970(3)
C29B C -0.5536(12) 0.7986(9) 0.6970(3)
H27A H 0.3163 0.5573 0.6866
H27B H -0.5573 0.7590 0.6866
C30A C 0.4122(10) 0.5448(14) 0.68669(19)
C30B C -0.5448(14) 0.8674(10) 0.68669(19)
H28A H 0.4166 0.5428 0.6694
H28B H -0.5428 0.8738 0.6694
C31A C 0.4658(8) 0.5391(11) 0.7023(3)
C31B C -0.5391(11) 0.9267(7) 0.7023(3)
H29A H 0.5060 0.5333 0.6954
H29B H -0.5333 0.9727 0.6954
C32A C 0.4593(8) 0.5422(11) 0.7282(3)
C32B C -0.5422(11) 0.9171(7) 0.7282(3)
H30A H 0.4951 0.5384 0.7386
H30B H -0.5384 0.9567 0.7386
Eu1_2 Eu 0.0000 0.0000 0.664703(16)
Eu2_2 Eu -0.6667 0.6667 0.824717(18)
N1A N 0.1714(5) 0.1286(8) 0.72233(18)
N1B N -0.1286(8) 1.0428(6) 0.72233(18)
H31A H 0.2160 0.1563 0.7296
H31B H -0.1563 1.0597 0.7296
N2A N 0.3109(7) 0.4887(11) 0.7734(2)
N2B N -0.4887(11) 0.8222(8) 0.7734(2)
H32A H 0.2976 0.4421 0.7683
H32B H -0.4421 0.8555 0.7683
N3A N -0.1456(6) 0.9210(8) 0.6365(2)
N3B N 0.0790(8) 0.9334(6) 0.6365(2)
N4A N 0.3999(6) 0.8099(8) 0.8545(2)
N4B N 0.1901(8) 0.5900(6) 0.8545(2)
O1A O 0.1055(4) 0.0407(6) 0.69251(12)
O1B O -0.0407(6) 1.0648(4) 0.69251(12)
O1A_2 O 0.1055(4) 1.0407(6) 0.69251(12)
O2A O 0.3233(5) 0.2059(8) 0.71619(18)
O2B O -0.2059(8) 1.1174(6) 0.71619(18)
O3A O 0.3134(6) 0.3026(9) 0.7509(2)
O3B O -0.3026(9) 1.0108(7) 0.7509(2)
O4A O 0.2448(5) 0.3439(7) 0.78873(15)
O4B O -0.3439(7) 0.9009(5) 0.78873(15)
O5A O 0.2757(4) 0.5615(6) 0.79660(14)
O5B O -0.5615(6) 0.7142(4) 0.79660(14)
O5B_2 O 0.4385(6) 0.7142(4) 0.79660(14)
O6A O -0.0881(5) 0.9104(7) 0.63121(15)
O6B O 0.0896(7) 1.0015(5) 0.63121(15)
O7A O -0.2045(6) 0.8894(8) 0.6233(2)
O7B O 0.1106(8) 0.9061(6) 0.6233(2)
O8A O -0.1388(4) 0.9608(6) 0.65528(15)
O8B O 0.0392(6) 0.9004(4) 0.65528(15)
O9A O 0.3320(5) 0.7520(7) 0.85892(16)
O9B O 0.2480(7) 0.5800(5) 0.85892(16)
O10A O 0.4316(6) 0.8640(8) 0.8689(2)
O10B O 0.1360(8) 0.5676(6) 0.8689(2)
O11A O 0.4298(5) 0.8066(7) 0.83469(18)
O11B O 0.1934(7) 0.6232(5) 0.83469(18)
loop_
_geom_bond_atom_site_label_1
_geom_bond_atom_site_label_2
_geom_bond_site_symmetry_1
_geom_bond_site_symmetry_2
C1 H1 1_555 1_555
C2 C1 1_555 1_555
H2 C2 1_555 1_555
C3 C2 1_555 1_555
H3 C3 1_555 1_555
C4 C3 1_555 1_555
H4 C4 1_555 1_555
C5 C4 1_555 1_555
H5 C5 1_555 1_555
C6 C1 1_555 1_555
C7 C6 1_555 1_555
H6 C7 1_555 1_555
H7 C7 1_555 1_555
C8 C9 1_555 1_555
C9 C10 1_555 1_555
C10 H8 1_555 1_555
C11 C10 1_555 1_555
H9 C11 1_555 1_555
C12 C11 1_555 1_555
H10 C12 1_555 1_555
C13 C12 1_555 1_555
H11 C13 1_555 1_555
C14 C9 1_555 1_555
C15 H12 1_555 1_555
H13 C15 1_555 1_555
C16 C15 1_555 1_555
H14 C16 1_555 1_555
H15 C16 1_555 1_555
C17 H16 1_555 1_555
H17 C17 1_555 1_555
C18 C17 1_555 1_555
H18 C18 1_555 1_555
H19 C18 1_555 1_555
C19 C20 1_555 1_555
C20 H20 1_555 1_555
C21 C20 1_555 1_555
H21 C21 1_555 1_555
C22 C21 1_555 1_555
H22 C22 1_555 1_555
C23 C22 1_555 1_555
H23 C23 1_555 1_555
C24 C19 1_555 1_555
C25 C24 1_555 1_555
C26 H24 1_555 1_555
H25 C26 1_555 1_555
C27 C26 1_555 1_555
C28 C27 1_555 1_555
H26 C28 1_555 1_555
C29 C28 1_555 1_555
H27 C29 1_555 1_555
C30 C29 1_555 1_555
H28 C30 1_555 1_555
C31 C30 1_555 1_555
H29 C31 1_555 1_555
C32 C27 1_555 1_555
H30 C32 1_555 1_555
Eu1 O1 1_555 1_555
Eu2 O5 1_555 1_555
N1 C7 1_555 1_555
H31 N1 1_555 1_555
N2 C25 1_555 1_555
H32 N2 1_555 1_555
N3 O6 1_555 1_555
N4 O9 1_555 1_555
O1 C8 1_555 1_555
O2 C14 1_555 1_555
O3 C16 1_555 1_555
O4 C18 1_555 1_555
O5 C25 1_555 1_555
O6 Eu1 1_555 1_555
O7 N3 1_555 1_555
O8 Eu1 1_555 1_555
O9 Eu2 1_555 1_555
O10 N4 1_555 1_555
O11 Eu2 1_555 1_555
C1A H1A 1_555 1_555
C1B H1B 1_555 1_555
C2A C1A 1_555 1_555
C2B C1B 1_555 1_555
H2A C2A 1_555 1_555
H2B C2B 1_555 1_555
C3A C2A 1_555 1_555
C3B C2B 1_555 1_555
H3A C3A 1_555 1_555
H3B C3B 1_555 1_555
C4A C3A 1_555 1_555
C4B C3B 1_555 1_555
H4A C4A 1_555 1_555
H4B C4B 1_555 1_555
C5A C4A 1_555 1_555
C5B C4B 1_555 1_555
H5A C5A 1_555 1_555
H5B C5B 1_555 1_555
C6A C1A 1_555 1_555
C6B C1B 1_555 1_555
C7A C6A 1_555 1_555
C7B C6B 1_555 1_555
H6A C7A 1_555 1_555
H6B C7B 1_555 1_555
H7A C7A 1_555 1_555
H7B C7B 1_555 1_555
C8A C9A 1_555 1_555
C8B C9B 1_555 1_555
C9A C10A 1_555 1_555
C9B C10B 1_555 1_555
C10A H8A 1_555 1_555
C10B H8B 1_555 1_555
C11A C10A 1_555 1_555
C11B C10B 1_555 1_555
H9A C11A 1_555 1_555
H9B C11B 1_555 1_555
C12A C11A 1_555 1_555
C12B C11B 1_555 1_555
H10A C12A 1_555 1_555
H10B C12B 1_555 1_555
C13A C12A 1_555 1_555
C13B C12B 1_555 1_555
H11A C13A 1_555 1_555
H11B C13B 1_555 1_555
C14A C9A 1_555 1_555
C14B C9B 1_555 1_555
C15A H12A 1_555 1_555
C15B H12B 1_555 1_555
H13A C15A 1_555 1_555
H13B C15B 1_555 1_555
C16A C15A 1_555 1_555
C16B C15B 1_555 1_555
H14A C16A 1_555 1_555
H14B C16B 1_555 1_555
H15A C16A 1_555 1_555
H15B C16B 1_555 1_555
C17A H16A 1_555 1_555
C17B H16B 1_555 1_555
H17A C17A 1_555 1_555
H17B C17B 1_555 1_555
C18A C17A 1_555 1_555
C18B C17B 1_555 1_555
H18A C18A 1_555 1_555
H18B C18B 1_555 1_555
H19A C18A 1_555 1_555
H19B C18B 1_555 1_555
C19A C20A 1_555 1_555
C19B C20B 1_555 1_555
C20A H20A 1_555 1_555
C20B H20B 1_555 1_555
C21A C20A 1_555 1_555
C21B C20B 1_555 1_555
H21A C21A 1_555 1_555
H21B C21B 1_555 1_555
C22A C21A 1_555 1_555
C22B C21B 1_555 1_555
H22A C22A 1_555 1_555
H22B C22B 1_555 1_555
C23A C22A 1_555 1_555
C23B C22B 1_555 1_555
H23A C23A 1_555 1_555
H23B C23B 1_555 1_555
C24A C19A 1_555 1_555
C24B C19B 1_555 1_555
C25A C24A 1_555 1_555
C25B C24B 1_555 1_555
C26A H24A 1_555 1_555
C26B H24B 1_555 1_555
H25A C26A 1_555 1_555
H25B C26B 1_555 1_555
C27A C26A 1_555 1_555
C27B C26B 1_555 1_555
C28A C27A 1_555 1_555
C28B C27B 1_555 1_555
H26A C28A 1_555 1_555
H26B C28B 1_555 1_555
C29A C28A 1_555 1_555
C29B C28B 1_555 1_555
H27A C29A 1_555 1_555
H27B C29B 1_555 1_555
C30A C29A 1_555 1_555
C30B C29B 1_555 1_555
H28A C30A 1_555 1_555
H28B C30B 1_555 1_555
C31A C30A 1_555 1_555
C31B C30B 1_555 1_555
H29A C31A 1_555 1_555
H29B C31B 1_555 1_555
C32A C27A 1_555 1_555
C32B C27B 1_555 1_555
H30A C32A 1_555 1_555
H30B C32B 1_555 1_555
Eu1_2 O1A 1_555 1_555
Eu2_2 O5B 1_555 1_555
N1A C7A 1_555 1_555
N1B C7B 1_555 1_555
H31A N1A 1_555 1_555
H31B N1B 1_555 1_555
N2A C25A 1_555 1_555
N2B C25B 1_555 1_555
H32A N2A 1_555 1_555
H32B N2B 1_555 1_555
N3A O6A 1_555 1_555
N3B O6B 1_555 1_555
N4A O9A 1_555 1_555
N4B O9B 1_555 1_555
O1A C8A 1_555 1_555
O1B Eu1 1_555 1_555
O1A_2 Eu1 1_555 1_555
O2A C14A 1_555 1_555
O2B C14B 1_555 1_555
O3A C16A 1_555 1_555
O3B C16B 1_555 1_555
O4A C18A 1_555 1_555
O4B C18B 1_555 1_555
O5A Eu2 1_555 1_555
O5B C25B 1_555 1_555
O5B_2 Eu2 1_555 1_555
O6A Eu1 1_555 1_555
O6B Eu1 1_555 1_555
O7A N3A 1_555 1_555
O7B N3B 1_555 1_555
O8A Eu1 1_555 1_555
O8B Eu1 1_555 1_555
O9A Eu2 1_555 1_555
O9B Eu2 1_555 1_555
O10A N4A 1_555 1_555
O10B N4B 1_555 1_555
O11A Eu2 1_555 1_555
O11B Eu2 1_555 1_555
C5 C6 1_555 1_555
C8 N1 1_555 1_555
C13 C14 1_555 1_555
C15 O2 1_555 1_555
C17 O3 1_555 1_555
C19 O4 1_555 1_555
C23 C24 1_555 1_555
C26 N2 1_555 1_555
C31 C32 1_555 1_555
N3 O8 1_555 1_555
N4 O11 1_555 1_555
C5A C6A 1_555 1_555
C5B C6B 1_555 1_555
C8A N1A 1_555 1_555
C8B N1B 1_555 1_555
C8B O1B 1_555 1_555
C13A C14A 1_555 1_555
C13B C14B 1_555 1_555
C15A O2A 1_555 1_555
C15B O2B 1_555 1_555
C17A O3A 1_555 1_555
C17B O3B 1_555 1_555
C19A O4A 1_555 1_555
C19B O4B 1_555 1_555
C23A C24A 1_555 1_555
C23B C24B 1_555 1_555
C25A O5A 1_555 1_555
C26A N2A 1_555 1_555
C26B N2B 1_555 1_555
C31A C32A 1_555 1_555
C31B C32B 1_555 1_555
N3A O8A 1_555 1_555
N3B O8B 1_555 1_555
N4A O11A 1_555 1_555
N4B O11B 1_555 1_555

#END
