
#######################################################################
#
#                 Cambridge Crystallographic Data Centre
#                                CCDC 
#
#######################################################################
#
# If this CIF has been generated from an entry in the Cambridge 
# Structural Database, then it will include bibliographic, chemical, 
# crystal, experimental, refinement or atomic coordinate data resulting 
# from the CCDC's data processing and validation procedures.
#
#######################################################################

data_VANXAL
_symmetry_cell_setting           triclinic
_symmetry_space_group_name_H-M   'P -1'
_symmetry_Int_Tables_number      2
_space_group_name_Hall           '-P 1'
loop_
_symmetry_equiv_pos_site_id
_symmetry_equiv_pos_as_xyz
1 x,y,z
2 -x,-y,-z
_cell_length_a                   11.3947(5)
_cell_length_b                   15.8766(6)
_cell_length_c                   17.5415(7)
_cell_angle_alpha                78.8930(10)
_cell_angle_beta                 87.493(2)
_cell_angle_gamma                76.8540(10)
_cell_volume                     3032.37
loop_
_atom_site_label
_atom_site_type_symbol
_atom_site_fract_x
_atom_site_fract_y
_atom_site_fract_z
Er1 Er 0.159313(18) 0.701401(13) 0.251316(11)
C1 C 0.0708(5) 0.5620(2) -0.0686(2)
H1 H 0.1472 0.5252 -0.0617
C2 C -0.0130(6) 0.5446(3) -0.1152(2)
H2 H 0.0073 0.4961 -0.1394
C3 C -0.1272(6) 0.5997(5) -0.1254(3)
H3 H -0.1833 0.5880 -0.1566
C4 C -0.1576(4) 0.6722(4) -0.0891(3)
H4 H -0.2340 0.7090 -0.0959
C5 C -0.0737(5) 0.6896(3) -0.0425(3)
H5 H -0.0940 0.7381 -0.0182
C6 C 0.0405(4) 0.6345(3) -0.03226(19)
C7 C 0.1268(5) 0.6518(3) 0.0207(3)
H6 H 0.0990 0.6395 0.0739
H7 H 0.2050 0.6128 0.0168
C8 C 0.1534(4) 0.7905(3) 0.0526(2)
C9 C 0.1584(3) 0.88483(14) 0.02590(15)
C10 C 0.1855(3) 0.92715(19) 0.08303(12)
H8 H 0.1984 0.8968 0.1339
C11 C 0.1933(3) 1.01484(19) 0.06407(18)
H9 H 0.2114 1.0432 0.1023
C12 C 0.1740(3) 1.06021(14) -0.0120(2)
H10 H 0.1792 1.1189 -0.0247
C13 C 0.1469(3) 1.01788(18) -0.06916(14)
H11 H 0.1340 1.0482 -0.1201
C14 C 0.1391(3) 0.93019(18) -0.05020(13)
C15 C 0.0952(5) 0.9294(3) -0.1829(3)
H12 H 0.1713 0.9403 -0.2046
H13 H 0.0370 0.9853 -0.1878
C16 C 0.0518(5) 0.8685(3) -0.2238(3)
H14 H -0.0218 0.8554 -0.1997
H15 H 0.0342 0.8963 -0.2776
C17 C 0.1005(5) 0.7269(4) -0.2540(3)
H16 H 0.0848 0.7494 -0.3089
H17 H 0.0261 0.7161 -0.2293
C18 C 0.5469(7) 0.9583(5) 0.5003(5)
H18 H 0.6181 0.9596 0.5280
H19 H 0.5160 0.9079 0.5258
C19 C 0.6593(7) 0.8739(5) 0.4190(5)
H20 H 0.6253 0.8244 0.4428
H21 H 0.7309 0.8718 0.4479
C20 C 0.6919(6) 0.8681(5) 0.3364(5)
H22 H 0.7208 0.9194 0.3110
H23 H 0.7544 0.8158 0.3338
C21 C 0.5899(3) 0.8264(2) 0.23685(19)
C22 C 0.6965(2) 0.8000(3) 0.1975(2)
H24 H 0.7675 0.8122 0.2120
C23 C 0.6969(3) 0.7554(3) 0.1367(2)
H25 H 0.7683 0.7377 0.1104
C24 C 0.5908(4) 0.7371(3) 0.1151(2)
H26 H 0.5911 0.7072 0.0744
C25 C 0.4842(3) 0.7635(3) 0.1544(2)
H27 H 0.4132 0.7512 0.1400
C26 C 0.4838(2) 0.8081(2) 0.21528(19)
C27 C 0.3657(4) 0.8341(3) 0.2543(3)
C28 C 0.2371(5) 0.9443(4) 0.3211(4)
H28 H 0.1713 0.9254 0.3012
H29 H 0.2234 1.0077 0.3049
C29 C 0.2362(3) 0.9220(2) 0.4086(2)
C30 C 0.1569(3) 0.97912(17) 0.4480(2)
H30 H 0.1083 1.0301 0.4204
C31 C 0.1502(3) 0.9600(2) 0.5286(2)
H31 H 0.0971 0.9983 0.5549
C32 C 0.2228(3) 0.8838(2) 0.56975(19)
H32 H 0.2184 0.8710 0.6237
C33 C 0.3022(2) 0.8266(2) 0.5303(2)
H33 H 0.3508 0.7756 0.5579
C34 C 0.3089(3) 0.8457(2) 0.4498(2)
H34 H 0.3619 0.8075 0.4234
C35 C -0.0146(2) 0.72868(17) -0.47074(13)
H35 H 0.0206 0.7620 -0.5109
C36 C -0.1032(2) 0.7702(2) -0.42480(19)
H36 H -0.1272 0.8313 -0.4342
C37 C -0.1558(3) 0.7203(3) -0.3648(2)
H37 H -0.2150 0.7481 -0.3341
C38 C -0.1199(3) 0.6290(3) -0.35081(16)
H38 H -0.1551 0.5957 -0.3107
C39 C -0.0314(3) 0.5875(2) -0.39675(17)
H39 H -0.0074 0.5264 -0.3874
C40 C 0.0212(3) 0.63734(17) -0.45672(16)
C41 C 0.1075(5) 0.5947(4) -0.5101(3)
H40 H 0.1120 0.5318 -0.4978
H41 H 0.0765 0.6158 -0.5626
C42 C 0.2987(4) 0.6211(3) -0.5695(2)
C43 C 0.4282(2) 0.62221(18) -0.55982(16)
C44 C 0.4930(3) 0.63393(19) -0.62859(13)
H42 H 0.4553 0.6404 -0.6760
C45 C 0.6140(3) 0.6360(2) -0.62652(17)
H43 H 0.6574 0.6439 -0.6725
C46 C 0.6704(2) 0.6264(2) -0.5557(2)
H44 H 0.7514 0.6278 -0.5543
C47 C 0.6057(3) 0.6147(2) -0.48691(16)
H45 H 0.6434 0.6083 -0.4395
C48 C 0.4846(3) 0.61260(19) -0.48898(13)
C49 C 0.4736(5) 0.5878(4) -0.3493(3)
H46 H 0.5025 0.6397 -0.3451
H47 H 0.5413 0.5373 -0.3422
C50 C 0.3795(5) 0.5740(4) -0.2901(3)
H48 H 0.3441 0.5264 -0.2986
H49 H 0.4148 0.5581 -0.2385
C51 C 0.1939(5) 0.6430(4) -0.2438(3)
H50 H 0.2239 0.6277 -0.1909
H51 H 0.1588 0.5958 -0.2535
N1 N 0.1385(4) 0.7435(2) 0.0011(2)
H52 H 0.1354 0.7682 -0.0472
N2 N 0.3482(4) 0.9040(3) 0.2879(3)
H53 H 0.4089 0.9273 0.2900
N3 N 0.2302(3) 0.6093(3) -0.5084(2)
H54 H 0.2589 0.6102 -0.4641
N4 N 0.3033(4) 0.5460(3) 0.2082(2)
N5 N -0.0547(4) 0.6350(3) 0.2536(3)
N6 N 0.0064(4) 0.8449(3) 0.3084(3)
O1 O 0.1639(3) 0.7570(2) 0.12286(16)
O2 O 0.1097(3) 0.88730(19) -0.10358(16)
O3 O 0.1405(3) 0.7903(2) -0.22034(18)
O4 O 0.5761(4) 0.9520(3) 0.4214(3)
O5 O 0.5846(3) 0.8640(3) 0.3005(3)
O6 O 0.2853(3) 0.7946(2) 0.25129(16)
O7 O 0.2579(3) 0.62836(19) -0.63591(16)
O8 O 0.4192(3) 0.5989(2) -0.42319(17)
O9 O 0.2900(3) 0.6526(2) -0.29619(18)
O10 O 0.3462(3) 0.6125(2) 0.20642(19)
O11 O 0.1966(4) 0.5536(2) 0.2299(2)
O12 O 0.3617(4) 0.4784(3) 0.1917(3)
O13 O -0.0026(3) 0.6391(2) 0.3145(2)
O14 O -0.1345(3) 0.5958(3) 0.2566(2)
O15 O -0.0176(3) 0.6737(2) 0.1912(2)
O16 O 0.0774(3) 0.7845(2) 0.35230(17)
O17 O -0.0553(3) 0.9076(2) 0.3323(2)
O18 O 0.0049(3) 0.8377(2) 0.23790(18)
Er1A Er 0.840687(18) 1.298599(13) 0.748684(11)
Er1_2 Er 0.159313(18) 0.701401(13) -0.748684(11)
Er1A_2 Er 0.840687(18) 1.298599(13) 1.748684(11)
C1A C 0.9292(5) 1.4380(2) 1.0686(2)
H1A H 0.8528 1.4748 1.0617
C2A C 1.0130(6) 1.4554(3) 1.1152(2)
H2A H 0.9927 1.5039 1.1394
C3A C 1.1272(6) 1.4003(5) 1.1254(3)
H3A H 1.1833 1.4120 1.1566
C4A C 1.1576(4) 1.3278(4) 1.0891(3)
H4A H 1.2340 1.2910 1.0959
C5A C 1.0737(5) 1.3104(3) 1.0425(3)
H5A H 1.0940 1.2619 1.0182
C6A C 0.9595(4) 1.3655(3) 1.03226(19)
C7A C 0.8732(5) 1.3482(3) 0.9793(3)
H6A H 0.9010 1.3605 0.9261
H7A H 0.7950 1.3872 0.9832
C8A C 0.8466(4) 1.2095(3) 0.9474(2)
C9A C 0.8416(3) 1.11517(14) 0.97410(15)
C10A C 0.8145(3) 1.07285(19) 0.91697(12)
H8A H 0.8016 1.1032 0.8661
C11A C 0.8067(3) 0.98516(19) 0.93593(18)
H9A H 0.7886 0.9568 0.8977
C12A C 0.8260(3) 0.93979(14) 1.0120(2)
H10A H 0.8208 0.8811 1.0247
C13A C 0.8531(3) 0.98212(18) 1.06916(14)
H11A H 0.8660 0.9518 1.1201
C14A C 0.8609(3) 1.06981(18) 1.05020(13)
C15A C 0.9048(5) 1.0706(3) 1.1829(3)
H12A H 0.8287 1.0597 1.2046
H13A H 0.9630 1.0147 1.1878
C16A C 0.9482(5) 1.1315(3) 1.2238(3)
H14A H 1.0218 1.1446 1.1997
H15A H 0.9658 1.1037 1.2776
C17A C 0.8995(5) 1.2731(4) 1.2540(3)
H16A H 0.9152 1.2506 1.3089
H17A H 0.9739 1.2839 1.2293
C18A C 0.4531(7) 1.0417(5) 0.4997(5)
H18A H 0.3819 1.0404 0.4720
H19A H 0.4840 1.0921 0.4742
C19A C 0.3407(7) 1.1261(5) 0.5810(5)
H20A H 0.3747 1.1756 0.5572
H21A H 0.2691 1.1282 0.5521
C20A C 0.3081(6) 1.1319(5) 0.6636(5)
H22A H 0.2792 1.0806 0.6890
H23A H 0.2456 1.1842 0.6662
C21A C 0.4101(3) 1.1736(2) 0.76315(19)
C22A C 0.3035(2) 1.2000(3) 0.8025(2)
H24A H 0.2325 1.1878 0.7880
C23A C 0.3031(3) 1.2446(3) 0.8633(2)
H25A H 0.2317 1.2623 0.8896
C24A C 0.4092(4) 1.2629(3) 0.8849(2)
H26A H 0.4089 1.2928 0.9256
C25A C 0.5158(3) 1.2365(3) 0.8456(2)
H27A H 0.5868 1.2488 0.8600
C26A C 0.5162(2) 1.1919(2) 0.78472(19)
C27A C 0.6343(4) 1.1659(3) 0.7457(3)
C28A C 0.7629(5) 1.0557(4) 0.6789(4)
H28A H 0.8287 1.0746 0.6988
H29A H 0.7766 0.9923 0.6951
C29A C 0.7638(3) 1.0780(2) 0.5914(2)
C30A C 0.8431(3) 1.02088(17) 0.5520(2)
H30A H 0.8917 0.9699 0.5796
C31A C 0.8498(3) 1.0400(2) 0.4714(2)
H31A H 0.9029 1.0017 0.4451
C32A C 0.7772(3) 1.1162(2) 0.43025(19)
H32A H 0.7816 1.1290 0.3763
C33A C 0.6978(2) 1.1734(2) 0.4697(2)
H33A H 0.6492 1.2244 0.4421
C34A C 0.6911(3) 1.1543(2) 0.5502(2)
H34A H 0.6381 1.1925 0.5766
C35A C 1.0146(2) 1.27132(17) 1.47074(13)
H35A H 0.9794 1.2380 1.5109
C36A C 1.1032(2) 1.2298(2) 1.42480(19)
H36A H 1.1272 1.1687 1.4342
C37A C 1.1558(3) 1.2797(3) 1.3648(2)
H37A H 1.2150 1.2519 1.3341
C38A C 1.1199(3) 1.3710(3) 1.35081(16)
H38A H 1.1551 1.4043 1.3107
C39A C 1.0314(3) 1.4125(2) 1.39675(17)
H39A H 1.0074 1.4736 1.3874
C40A C 0.9788(3) 1.36266(17) 1.45672(16)
C41A C 0.8925(5) 1.4053(4) 1.5101(3)
H40A H 0.8880 1.4682 1.4978
H41A H 0.9235 1.3842 1.5626
C42A C 0.7013(4) 1.3789(3) 1.5695(2)
C43A C 0.5718(2) 1.37779(18) 1.55982(16)
C44A C 0.5070(3) 1.36607(19) 1.62859(13)
H42A H 0.5447 1.3596 1.6760
C45A C 0.3860(3) 1.3640(2) 1.62652(17)
H43A H 0.3426 1.3561 1.6725
C46A C 0.3296(2) 1.3736(2) 1.5557(2)
H44A H 0.2486 1.3722 1.5543
C47A C 0.3943(3) 1.3853(2) 1.48691(16)
H45A H 0.3566 1.3917 1.4395
C48A C 0.5154(3) 1.38740(19) 1.48898(13)
C49A C 0.5264(5) 1.4122(4) 1.3493(3)
H46A H 0.4975 1.3603 1.3451
H47A H 0.4587 1.4627 1.3422
C50A C 0.6205(5) 1.4260(4) 1.2901(3)
H48A H 0.6559 1.4736 1.2986
H49A H 0.5852 1.4419 1.2385
C51A C 0.8061(5) 1.3570(4) 1.2438(3)
H50A H 0.7761 1.3723 1.1909
H51A H 0.8412 1.4042 1.2535
N1A N 0.8615(4) 1.2565(2) 0.9989(2)
H52A H 0.8646 1.2318 1.0472
N2A N 0.6518(4) 1.0960(3) 0.7121(3)
H53A H 0.5911 1.0727 0.7100
N3A N 0.7698(3) 1.3907(3) 1.5084(2)
H54A H 0.7411 1.3898 1.4641
N4A N 0.6967(4) 1.4540(3) 0.7918(2)
N5A N 1.0547(4) 1.3650(3) 0.7464(3)
N6A N 0.9936(4) 1.1551(3) 0.6916(3)
O1A O 0.8361(3) 1.2430(2) 0.87714(16)
O2A O 0.8903(3) 1.11270(19) 1.10358(16)
O3A O 0.8595(3) 1.2097(2) 1.22034(18)
O4A O 0.4239(4) 1.0480(3) 0.5786(3)
O5A O 0.4154(3) 1.1360(3) 0.6995(3)
O6A O 0.7147(3) 1.2054(2) 0.74871(16)
O7A O 0.7421(3) 1.37164(19) 1.63591(16)
O7_2 O 0.2579(3) 0.62836(19) 0.36409(16)
O7A_2 O 0.7421(3) 1.37164(19) 0.63591(16)
O8A O 0.5808(3) 1.4011(2) 1.42319(17)
O9A O 0.7100(3) 1.3474(2) 1.29619(18)
O10A O 0.6538(3) 1.3875(2) 0.79358(19)
O11A O 0.8034(4) 1.4464(2) 0.7701(2)
O12A O 0.6383(4) 1.5216(3) 0.8083(3)
O13A O 1.0026(3) 1.3609(2) 0.6855(2)
O14A O 1.1345(3) 1.4042(3) 0.7434(2)
O15A O 1.0176(3) 1.3263(2) 0.8088(2)
O16A O 0.9226(3) 1.2155(2) 0.64770(17)
O17A O 1.0553(3) 1.0924(2) 0.6677(2)
O18A O 0.9951(3) 1.1623(2) 0.76210(18)
loop_
_geom_bond_atom_site_label_1
_geom_bond_atom_site_label_2
_geom_bond_site_symmetry_1
_geom_bond_site_symmetry_2
Er1 O1 1_555 1_555
C1 H1 1_555 1_555
C2 C1 1_555 1_555
H2 C2 1_555 1_555
C3 C2 1_555 1_555
H3 C3 1_555 1_555
C4 C3 1_555 1_555
H4 C4 1_555 1_555
C5 C4 1_555 1_555
H5 C5 1_555 1_555
C6 C1 1_555 1_555
C7 C6 1_555 1_555
H6 C7 1_555 1_555
H7 C7 1_555 1_555
C8 C9 1_555 1_555
C9 C10 1_555 1_555
C10 H8 1_555 1_555
C11 C10 1_555 1_555
H9 C11 1_555 1_555
C12 C11 1_555 1_555
H10 C12 1_555 1_555
C13 C12 1_555 1_555
H11 C13 1_555 1_555
C14 C9 1_555 1_555
C15 H12 1_555 1_555
H13 C15 1_555 1_555
C16 C15 1_555 1_555
H14 C16 1_555 1_555
H15 C16 1_555 1_555
C17 H16 1_555 1_555
H17 C17 1_555 1_555
C18 H18 1_555 1_555
H19 C18 1_555 1_555
C19 H20 1_555 1_555
H21 C19 1_555 1_555
C20 C19 1_555 1_555
H22 C20 1_555 1_555
H23 C20 1_555 1_555
C21 C22 1_555 1_555
C22 H24 1_555 1_555
C23 C22 1_555 1_555
H25 C23 1_555 1_555
C24 C23 1_555 1_555
H26 C24 1_555 1_555
C25 C24 1_555 1_555
H27 C25 1_555 1_555
C26 C21 1_555 1_555
C27 C26 1_555 1_555
C28 H28 1_555 1_555
H29 C28 1_555 1_555
C29 C28 1_555 1_555
C30 C29 1_555 1_555
H30 C30 1_555 1_555
C31 C30 1_555 1_555
H31 C31 1_555 1_555
C32 C31 1_555 1_555
H32 C32 1_555 1_555
C33 C32 1_555 1_555
H33 C33 1_555 1_555
C34 C29 1_555 1_555
H34 C34 1_555 1_555
C35 H35 1_555 1_555
C36 C35 1_555 1_555
H36 C36 1_555 1_555
C37 C36 1_555 1_555
H37 C37 1_555 1_555
C38 C37 1_555 1_555
H38 C38 1_555 1_555
C39 C38 1_555 1_555
H39 C39 1_555 1_555
C40 C35 1_555 1_555
C41 C40 1_555 1_555
H40 C41 1_555 1_555
H41 C41 1_555 1_555
C42 C43 1_555 1_555
C43 C44 1_555 1_555
C44 H42 1_555 1_555
C45 C44 1_555 1_555
H43 C45 1_555 1_555
C46 C45 1_555 1_555
H44 C46 1_555 1_555
C47 C46 1_555 1_555
H45 C47 1_555 1_555
C48 C43 1_555 1_555
C49 H46 1_555 1_555
H47 C49 1_555 1_555
C50 C49 1_555 1_555
H48 C50 1_555 1_555
H49 C50 1_555 1_555
C51 C17 1_555 1_555
H50 C51 1_555 1_555
H51 C51 1_555 1_555
N1 C7 1_555 1_555
H52 N1 1_555 1_555
N2 C27 1_555 1_555
H53 N2 1_555 1_555
N3 C41 1_555 1_555
H54 N3 1_555 1_555
N4 O10 1_555 1_555
N5 O13 1_555 1_555
N6 O16 1_555 1_555
O1 C8 1_555 1_555
O2 C14 1_555 1_555
O3 C16 1_555 1_555
O4 C18 1_555 1_555
O5 C20 1_555 1_555
O6 Er1 1_555 1_555
O7 C42 1_555 1_555
O8 C48 1_555 1_555
O9 C50 1_555 1_555
O10 Er1 1_555 1_555
O11 Er1 1_555 1_555
O12 N4 1_555 1_555
O13 Er1 1_555 1_555
O14 N5 1_555 1_555
O15 Er1 1_555 1_555
O16 Er1 1_555 1_555
O17 N6 1_555 1_555
O18 Er1 1_555 1_555
Er1A O1A 1_555 1_555
Er1_2 O7 1_555 1_555
Er1A_2 O7A 1_555 1_555
C1A H1A 1_555 1_555
C2A C1A 1_555 1_555
H2A C2A 1_555 1_555
C3A C2A 1_555 1_555
H3A C3A 1_555 1_555
C4A C3A 1_555 1_555
H4A C4A 1_555 1_555
C5A C4A 1_555 1_555
H5A C5A 1_555 1_555
C6A C1A 1_555 1_555
C7A C6A 1_555 1_555
H6A C7A 1_555 1_555
H7A C7A 1_555 1_555
C8A C9A 1_555 1_555
C9A C10A 1_555 1_555
C10A H8A 1_555 1_555
C11A C10A 1_555 1_555
H9A C11A 1_555 1_555
C12A C11A 1_555 1_555
H10A C12A 1_555 1_555
C13A C12A 1_555 1_555
H11A C13A 1_555 1_555
C14A C9A 1_555 1_555
C15A H12A 1_555 1_555
H13A C15A 1_555 1_555
C16A C15A 1_555 1_555
H14A C16A 1_555 1_555
H15A C16A 1_555 1_555
C17A H16A 1_555 1_555
H17A C17A 1_555 1_555
C18A C18 1_555 1_555
H18A C18A 1_555 1_555
H19A C18A 1_555 1_555
C19A H20A 1_555 1_555
H21A C19A 1_555 1_555
C20A C19A 1_555 1_555
H22A C20A 1_555 1_555
H23A C20A 1_555 1_555
C21A C22A 1_555 1_555
C22A H24A 1_555 1_555
C23A C22A 1_555 1_555
H25A C23A 1_555 1_555
C24A C23A 1_555 1_555
H26A C24A 1_555 1_555
C25A C24A 1_555 1_555
H27A C25A 1_555 1_555
C26A C21A 1_555 1_555
C27A C26A 1_555 1_555
C28A H28A 1_555 1_555
H29A C28A 1_555 1_555
C29A C28A 1_555 1_555
C30A C29A 1_555 1_555
H30A C30A 1_555 1_555
C31A C30A 1_555 1_555
H31A C31A 1_555 1_555
C32A C31A 1_555 1_555
H32A C32A 1_555 1_555
C33A C32A 1_555 1_555
H33A C33A 1_555 1_555
C34A C29A 1_555 1_555
H34A C34A 1_555 1_555
C35A H35A 1_555 1_555
C36A C35A 1_555 1_555
H36A C36A 1_555 1_555
C37A C36A 1_555 1_555
H37A C37A 1_555 1_555
C38A C37A 1_555 1_555
H38A C38A 1_555 1_555
C39A C38A 1_555 1_555
H39A C39A 1_555 1_555
C40A C35A 1_555 1_555
C41A C40A 1_555 1_555
H40A C41A 1_555 1_555
H41A C41A 1_555 1_555
C42A C43A 1_555 1_555
C43A C44A 1_555 1_555
C44A H42A 1_555 1_555
C45A C44A 1_555 1_555
H43A C45A 1_555 1_555
C46A C45A 1_555 1_555
H44A C46A 1_555 1_555
C47A C46A 1_555 1_555
H45A C47A 1_555 1_555
C48A C43A 1_555 1_555
C49A H46A 1_555 1_555
H47A C49A 1_555 1_555
C50A C49A 1_555 1_555
H48A C50A 1_555 1_555
H49A C50A 1_555 1_555
C51A C17A 1_555 1_555
H50A C51A 1_555 1_555
H51A C51A 1_555 1_555
N1A C7A 1_555 1_555
H52A N1A 1_555 1_555
N2A C27A 1_555 1_555
H53A N2A 1_555 1_555
N3A C41A 1_555 1_555
H54A N3A 1_555 1_555
N4A O10A 1_555 1_555
N5A O13A 1_555 1_555
N6A O16A 1_555 1_555
O1A C8A 1_555 1_555
O2A C14A 1_555 1_555
O3A C16A 1_555 1_555
O4A C18A 1_555 1_555
O5A C20A 1_555 1_555
O6A Er1A 1_555 1_555
O7A C42A 1_555 1_555
O7_2 Er1 1_555 1_555
O7A_2 Er1A 1_555 1_555
O8A C48A 1_555 1_555
O9A C50A 1_555 1_555
O10A Er1A 1_555 1_555
O11A Er1A 1_555 1_555
O12A N4A 1_555 1_555
O13A Er1A 1_555 1_555
O14A N5A 1_555 1_555
O15A Er1A 1_555 1_555
O16A Er1A 1_555 1_555
O17A N6A 1_555 1_555
O18A Er1A 1_555 1_555
C5 C6 1_555 1_555
C8 N1 1_555 1_555
C13 C14 1_555 1_555
C15 O2 1_555 1_555
C17 O3 1_555 1_555
C19 O4 1_555 1_555
C21 O5 1_555 1_555
C25 C26 1_555 1_555
C27 O6 1_555 1_555
C28 N2 1_555 1_555
C33 C34 1_555 1_555
C39 C40 1_555 1_555
C42 N3 1_555 1_555
C47 C48 1_555 1_555
C49 O8 1_555 1_555
C51 O9 1_555 1_555
N4 O11 1_555 1_555
N5 O15 1_555 1_555
N6 O18 1_555 1_555
C5A C6A 1_555 1_555
C8A N1A 1_555 1_555
C13A C14A 1_555 1_555
C15A O2A 1_555 1_555
C17A O3A 1_555 1_555
C19A O4A 1_555 1_555
C21A O5A 1_555 1_555
C25A C26A 1_555 1_555
C27A O6A 1_555 1_555
C28A N2A 1_555 1_555
C33A C34A 1_555 1_555
C39A C40A 1_555 1_555
C42A N3A 1_555 1_555
C47A C48A 1_555 1_555
C49A O8A 1_555 1_555
C51A O9A 1_555 1_555
N4A O11A 1_555 1_555
N5A O15A 1_555 1_555
N6A O18A 1_555 1_555

#END
