
#######################################################################
#
#                 Cambridge Crystallographic Data Centre
#                                CCDC 
#
#######################################################################
#
# If this CIF has been generated from an entry in the Cambridge 
# Structural Database, then it will include bibliographic, chemical, 
# crystal, experimental, refinement or atomic coordinate data resulting 
# from the CCDC's data processing and validation procedures.
#
#######################################################################

data_VANXUF
_symmetry_cell_setting           triclinic
_symmetry_space_group_name_H-M   'P -1'
_symmetry_Int_Tables_number      2
_space_group_name_Hall           '-P 1'
loop_
_symmetry_equiv_pos_site_id
_symmetry_equiv_pos_as_xyz
1 x,y,z
2 -x,-y,-z
_cell_length_a                   11.721(7)
_cell_length_b                   14.110(9)
_cell_length_c                   19.522(12)
_cell_angle_alpha                81.873(7)
_cell_angle_beta                 88.382(8)
_cell_angle_gamma                66.118(7)
_cell_volume                     2921.03
loop_
_atom_site_label
_atom_site_type_symbol
_atom_site_fract_x
_atom_site_fract_y
_atom_site_fract_z
La1 La -0.12068(3) 0.75386(3) 0.738424(19)
C1 C 0.2632(7) 0.7483(7) 0.5785(4)
H1 H 0.1846 0.7680 0.5582
C2 C 0.3326(8) 0.8076(7) 0.5600(5)
H2 H 0.2983 0.8671 0.5273
C3 C 0.4496(10) 0.7823(9) 0.5879(6)
H3 H 0.4946 0.8225 0.5739
C4 C 0.4962(8) 0.6971(10) 0.6361(5)
H4 H 0.5741 0.6793 0.6568
C5 C 0.4277(7) 0.6321(8) 0.6567(4)
H5 H 0.4612 0.5724 0.6893
C6 C 0.3111(6) 0.6624(7) 0.6258(4)
C7 C 0.2392(6) 0.5975(6) 0.6485(3)
H6 H 0.2969 0.5253 0.6619
H7 H 0.1917 0.6222 0.6886
C8 C 0.0339(6) 0.6258(5) 0.6008(3)
C9 C -0.0439(5) 0.6336(5) 0.5398(3)
C10 C -0.1642(6) 0.6366(5) 0.5531(4)
H8 H -0.1901 0.6336 0.5985
C11 C -0.2435(7) 0.6438(6) 0.5008(4)
H9 H -0.3222 0.6450 0.5103
C12 C -0.2048(7) 0.6493(6) 0.4342(4)
H10 H -0.2582 0.6542 0.3983
C13 C -0.0871(6) 0.6477(5) 0.4190(4)
H11 H -0.0628 0.6522 0.3733
C14 C -0.0076(6) 0.6394(5) 0.4718(3)
C15 C 0.1587(7) 0.6304(7) 0.3953(4)
H12 H 0.1069 0.6878 0.3612
H13 H 0.1677 0.5649 0.3808
C16 C 0.2852(7) 0.6334(7) 0.4044(4)
H14 H 0.3298 0.6240 0.3616
H15 H 0.2754 0.7001 0.4174
C17 C 0.0955(7) 0.2265(7) 0.7895(4)
H16 H 0.1800 0.2131 0.7889
C18 C 0.0592(9) 0.1436(7) 0.8003(5)
H17 H 0.1184 0.0748 0.8071
C19 C -0.0618(12) 0.1646(9) 0.8005(5)
H18 H -0.0877 0.1099 0.8069
C20 C -0.1512(9) 0.2683(10) 0.7913(4)
H19 H -0.2359 0.2822 0.7923
C21 C -0.1132(7) 0.3489(7) 0.7809(4)
H20 H -0.1719 0.4179 0.7745
C22 C 0.0082(7) 0.3282(6) 0.7798(3)
C23 C 0.0517(6) 0.4152(5) 0.7704(3)
H21 H 0.1230 0.3979 0.7408
H22 H -0.0144 0.4791 0.7484
C24 C 0.0668(6) 0.5208(6) 0.8574(3)
C25 C 0.1110(5) 0.5217(5) 0.9275(3)
C26 C 0.0829(6) 0.6180(5) 0.9489(3)
H23 H 0.0377 0.6780 0.9184
C27 C 0.1179(7) 0.6295(6) 1.0121(4)
H24 H 0.0941 0.6955 1.0253
C28 C 0.1888(7) 0.5413(7) 1.0553(4)
H25 H 0.2157 0.5477 1.0981
C29 C 0.2216(6) 0.4433(6) 1.0373(3)
H26 H 0.2709 0.3843 1.0675
C30 C 0.1811(6) 0.4324(5) 0.9741(3)
C31 C 0.2589(7) 0.2453(5) 1.0070(3)
H27 H 0.2110 0.2576 1.0486
H28 H 0.3445 0.2320 1.0185
C32 C 0.2545(8) 0.1539(6) 0.9799(4)
H29 H 0.2688 0.0974 1.0177
H30 H 0.1725 0.1730 0.9593
C33 C 0.3779(9) 0.0121(7) 0.9261(5)
H31 H 0.3031 0.0003 0.9203
H32 H 0.4214 -0.0305 0.9685
C34 C 0.3627(9) -0.2615(8) 0.9284(5)
H33 H 0.4321 -0.3078 0.9083
C35 C 0.3747(14) -0.2375(12) 0.9908(7)
H34 H 0.4532 -0.2674 1.0127
C36 C 0.2807(17) -0.1735(13) 1.0228(7)
H35 H 0.2913 -0.1618 1.0674
C37 C 0.1696(14) -0.1259(9) 0.9894(7)
H36 H 0.1033 -0.0765 1.0095
C38 C 0.1525(10) -0.1502(8) 0.9241(7)
H37 H 0.0744 -0.1191 0.9017
C39 C 0.2504(9) -0.2191(7) 0.8941(4)
C40 C 0.2365(8) -0.2516(6) 0.8249(4)
H38 H 0.3145 -0.3066 0.8143
H39 H 0.1725 -0.2789 0.8275
C41 C 0.1107(6) -0.1341(6) 0.7241(3)
C42 C 0.0936(6) -0.0456(5) 0.6687(3)
C43 C -0.0127(7) -0.0089(6) 0.6274(4)
H40 H -0.0722 -0.0362 0.6384
C44 C -0.0344(9) 0.0658(7) 0.5710(5)
H41 H -0.1084 0.0903 0.5448
C45 C 0.0533(10) 0.1042(6) 0.5535(4)
H42 H 0.0415 0.1523 0.5137
C46 C 0.1582(8) 0.0726(6) 0.5940(4)
H43 H 0.2166 0.1006 0.5821
C47 C 0.1794(6) -0.0007(6) 0.6527(4)
C48 C 0.3652(7) 0.0149(6) 0.6849(4)
H44 H 0.3210 0.0905 0.6792
H45 H 0.4116 -0.0045 0.6435
C49 C 0.4522(7) -0.0224(6) 0.7472(4)
H46 H 0.4893 -0.0983 0.7556
H47 H 0.5187 0.0018 0.7393
C50 C 0.4595(8) -0.0182(7) 0.8664(5)
H48 H 0.5201 0.0127 0.8643
H49 H 0.5043 -0.0938 0.8716
C51 C 0.4707(6) 0.5458(5) 0.4734(4)
H50 H 0.4629 0.6092 0.4908
H51 H 0.5205 0.5384 0.4324
N1 N 0.1543(5) 0.6025(4) 0.5936(3)
H52 H 0.1848 0.5895 0.5537
N2 N 0.0861(5) 0.4312(4) 0.8372(3)
H53 H 0.1231 0.3759 0.8667
N3 N 0.2026(5) -0.1622(5) 0.7702(3)
H54 H 0.2458 -0.1250 0.7678
N4 N -0.3029(6) 0.6630(5) 0.7875(3)
N5 N -0.1969(6) 0.9286(6) 0.8230(4)
N6 N -0.2831(6) 0.8747(5) 0.6144(4)
O1 O -0.0128(4) 0.6386(3) 0.6586(2)
O2 O 0.1063(4) 0.6403(4) 0.4619(2)
O3 O 0.3515(5) 0.5503(4) 0.4576(3)
O4 O 0.0116(4) 0.6062(3) 0.8182(2)
O5 O 0.2075(4) 0.3355(4) 0.9550(2)
O6 O 0.3448(5) 0.1204(4) 0.9307(3)
O7 O 0.0429(4) -0.1839(3) 0.7268(2)
O8 O 0.2793(4) -0.0333(4) 0.6959(2)
O9 O 0.3840(5) 0.0176(4) 0.8050(3)
O10 O -0.2276(4) 0.6251(4) 0.7417(3)
O11 O -0.3841(5) 0.6320(5) 0.8067(3)
O12 O -0.2929(4) 0.7373(4) 0.8139(2)
O13 O -0.1265(5) 0.8341(4) 0.8485(2)
O14 O -0.2246(6) 1.0007(5) 0.8570(3)
O15 O -0.2362(4) 0.9428(3) 0.7609(3)
O16 O -0.3219(4) 0.8308(4) 0.6647(3)
O17 O -0.3504(5) 0.9263(5) 0.5651(3)
O18 O -0.1691(4) 0.8602(4) 0.6177(2)
La1A La 1.12068(3) 0.24614(3) 0.261576(19)
La1_2 La -0.12068(3) -0.24614(3) 0.738424(19)
La1A_2 La 1.12068(3) 1.24614(3) 0.261576(19)
C1A C 0.7368(7) 0.2517(7) 0.4215(4)
H1A H 0.8154 0.2320 0.4418
C2A C 0.6674(8) 0.1924(7) 0.4400(5)
H2A H 0.7017 0.1329 0.4727
C3A C 0.5504(10) 0.2177(9) 0.4121(6)
H3A H 0.5054 0.1775 0.4261
C4A C 0.5038(8) 0.3029(10) 0.3639(5)
H4A H 0.4259 0.3207 0.3432
C5A C 0.5723(7) 0.3679(8) 0.3433(4)
H5A H 0.5388 0.4276 0.3107
C6A C 0.6889(6) 0.3376(7) 0.3742(4)
C7A C 0.7608(6) 0.4025(6) 0.3515(3)
H6A H 0.7031 0.4747 0.3381
H7A H 0.8083 0.3778 0.3114
C8A C 0.9661(6) 0.3742(5) 0.3992(3)
C9A C 1.0439(5) 0.3664(5) 0.4602(3)
C10A C 1.1642(6) 0.3634(5) 0.4469(4)
H8A H 1.1901 0.3664 0.4015
C11A C 1.2435(7) 0.3562(6) 0.4992(4)
H9A H 1.3222 0.3550 0.4897
C12A C 1.2048(7) 0.3507(6) 0.5658(4)
H10A H 1.2582 0.3458 0.6017
C13A C 1.0871(6) 0.3523(5) 0.5810(4)
H11A H 1.0628 0.3478 0.6267
C14A C 1.0076(6) 0.3606(5) 0.5282(3)
C15A C 0.8413(7) 0.3696(7) 0.6047(4)
H12A H 0.8931 0.3122 0.6388
H13A H 0.8323 0.4351 0.6192
C16A C 0.7148(7) 0.3666(7) 0.5956(4)
H14A H 0.6702 0.3760 0.6384
H15A H 0.7246 0.2999 0.5826
C17A C 0.9045(7) 0.7735(7) 0.2105(4)
H16A H 0.8200 0.7869 0.2111
C18A C 0.9408(9) 0.8564(7) 0.1997(5)
H17A H 0.8816 0.9252 0.1929
C19A C 1.0618(12) 0.8354(9) 0.1995(5)
H18A H 1.0877 0.8901 0.1931
C20A C 1.1512(9) 0.7317(10) 0.2087(4)
H19A H 1.2359 0.7178 0.2077
C21A C 1.1132(7) 0.6511(7) 0.2191(4)
H20A H 1.1719 0.5821 0.2255
C22A C 0.9918(7) 0.6718(6) 0.2202(3)
C23A C 0.9483(6) 0.5848(5) 0.2296(3)
H21A H 0.8770 0.6021 0.2592
H22A H 1.0144 0.5209 0.2516
C24A C 0.9332(6) 0.4792(6) 0.1426(3)
C25A C 0.8890(5) 0.4783(5) 0.0725(3)
C26A C 0.9171(6) 0.3820(5) 0.0511(3)
H23A H 0.9623 0.3220 0.0816
C27A C 0.8821(7) 0.3705(6) -0.0121(4)
H24A H 0.9059 0.3045 -0.0253
C28A C 0.8112(7) 0.4587(7) -0.0553(4)
H25A H 0.7843 0.4523 -0.0981
C29A C 0.7784(6) 0.5567(6) -0.0373(3)
H26A H 0.7291 0.6157 -0.0675
C30A C 0.8189(6) 0.5676(5) 0.0259(3)
C31A C 0.7411(7) 0.7547(5) -0.0070(3)
H27A H 0.7890 0.7424 -0.0486
H28A H 0.6555 0.7680 -0.0185
C32A C 0.7455(8) 0.8461(6) 0.0201(4)
H29A H 0.7312 0.9026 -0.0177
H30A H 0.8275 0.8270 0.0407
C33A C 0.6221(9) 0.9879(7) 0.0739(5)
H31A H 0.6969 0.9997 0.0797
H32A H 0.5786 1.0305 0.0315
C34A C 0.6373(9) 1.2615(8) 0.0716(5)
H33A H 0.5679 1.3078 0.0917
C35A C 0.6253(14) 1.2375(12) 0.0092(7)
H34A H 0.5468 1.2674 -0.0127
C36A C 0.7193(17) 1.1735(13) -0.0228(7)
H35A H 0.7087 1.1618 -0.0674
C37A C 0.8304(14) 1.1259(9) 0.0106(7)
H36A H 0.8967 1.0765 -0.0095
C38A C 0.8475(10) 1.1502(8) 0.0759(7)
H37A H 0.9256 1.1191 0.0983
C39A C 0.7496(9) 1.2191(7) 0.1059(4)
C40A C 0.7635(8) 1.2516(6) 0.1751(4)
H38A H 0.6855 1.3066 0.1857
H39A H 0.8275 1.2789 0.1725
C41A C 0.8893(6) 1.1341(6) 0.2759(3)
C42A C 0.9064(6) 1.0456(5) 0.3313(3)
C43A C 1.0127(7) 1.0089(6) 0.3726(4)
H40A H 1.0722 1.0362 0.3616
C44A C 1.0344(9) 0.9342(7) 0.4290(5)
H41A H 1.1084 0.9097 0.4552
C45A C 0.9467(10) 0.8958(6) 0.4465(4)
H42A H 0.9585 0.8477 0.4863
C46A C 0.8418(8) 0.9274(6) 0.4060(4)
H43A H 0.7834 0.8994 0.4179
C47A C 0.8206(6) 1.0007(6) 0.3473(4)
C48A C 0.6348(7) 0.9851(6) 0.3151(4)
H44A H 0.6790 0.9095 0.3208
H45A H 0.5884 1.0045 0.3565
C49A C 0.5478(7) 1.0224(6) 0.2528(4)
H46A H 0.5107 1.0983 0.2444
H47A H 0.4813 0.9982 0.2607
C50A C 0.5405(8) 1.0182(7) 0.1336(5)
H48A H 0.4799 0.9873 0.1357
H49A H 0.4957 1.0938 0.1284
C51A C 0.5293(6) 0.4542(5) 0.5266(4)
H50A H 0.5371 0.3908 0.5092
H51A H 0.4795 0.4616 0.5676
N1A N 0.8457(5) 0.3975(4) 0.4064(3)
H52A H 0.8152 0.4105 0.4463
N2A N 0.9139(5) 0.5688(4) 0.1628(3)
H53A H 0.8769 0.6241 0.1333
N3A N 0.7974(5) 1.1622(5) 0.2298(3)
H54A H 0.7542 1.1250 0.2322
N4A N 1.3029(6) 0.3370(5) 0.2125(3)
N5A N 1.1969(6) 0.0714(6) 0.1770(4)
N6A N 1.2831(6) 0.1253(5) 0.3856(4)
O1A O 1.0128(4) 0.3614(3) 0.3414(2)
O2A O 0.8937(4) 0.3597(4) 0.5381(2)
O3A O 0.6485(5) 0.4497(4) 0.5424(3)
O4A O 0.9884(4) 0.3938(3) 0.1818(2)
O5A O 0.7925(4) 0.6645(4) 0.0450(2)
O6A O 0.6552(5) 0.8796(4) 0.0693(3)
O7A O 0.9571(4) 1.1839(3) 0.2732(2)
O7_2 O 0.0429(4) 0.8161(3) 0.7268(2)
O7A_2 O 0.9571(4) 0.1839(3) 0.2732(2)
O8A O 0.7207(4) 1.0333(4) 0.3041(2)
O9A O 0.6160(5) 0.9824(4) 0.1950(3)
O10A O 1.2276(4) 0.3749(4) 0.2583(3)
O11A O 1.3841(5) 0.3680(5) 0.1933(3)
O12A O 1.2929(4) 0.2627(4) 0.1861(2)
O13A O 1.1265(5) 0.1659(4) 0.1515(2)
O14A O 1.2246(6) -0.0007(5) 0.1430(3)
O15A O 1.2362(4) 0.0572(3) 0.2391(3)
O16A O 1.3219(4) 0.1692(4) 0.3353(3)
O17A O 1.3504(5) 0.0737(5) 0.4349(3)
O18A O 1.1691(4) 0.1398(4) 0.3823(2)
loop_
_geom_bond_atom_site_label_1
_geom_bond_atom_site_label_2
_geom_bond_site_symmetry_1
_geom_bond_site_symmetry_2
La1 O1 1_555 1_555
C1 H1 1_555 1_555
C2 C1 1_555 1_555
H2 C2 1_555 1_555
C3 C2 1_555 1_555
H3 C3 1_555 1_555
C4 C3 1_555 1_555
H4 C4 1_555 1_555
C5 C4 1_555 1_555
H5 C5 1_555 1_555
C6 C1 1_555 1_555
C7 C6 1_555 1_555
H6 C7 1_555 1_555
H7 C7 1_555 1_555
C8 C9 1_555 1_555
C9 C10 1_555 1_555
C10 H8 1_555 1_555
C11 C10 1_555 1_555
H9 C11 1_555 1_555
C12 C11 1_555 1_555
H10 C12 1_555 1_555
C13 C12 1_555 1_555
H11 C13 1_555 1_555
C14 C9 1_555 1_555
C15 H12 1_555 1_555
H13 C15 1_555 1_555
C16 C15 1_555 1_555
H14 C16 1_555 1_555
H15 C16 1_555 1_555
C17 H16 1_555 1_555
C18 C17 1_555 1_555
H17 C18 1_555 1_555
C19 C18 1_555 1_555
H18 C19 1_555 1_555
C20 C19 1_555 1_555
H19 C20 1_555 1_555
C21 C20 1_555 1_555
H20 C21 1_555 1_555
C22 C17 1_555 1_555
C23 C22 1_555 1_555
H21 C23 1_555 1_555
H22 C23 1_555 1_555
C24 C25 1_555 1_555
C25 C26 1_555 1_555
C26 H23 1_555 1_555
C27 C26 1_555 1_555
H24 C27 1_555 1_555
C28 C27 1_555 1_555
H25 C28 1_555 1_555
C29 C28 1_555 1_555
H26 C29 1_555 1_555
C30 C25 1_555 1_555
C31 H27 1_555 1_555
H28 C31 1_555 1_555
C32 C31 1_555 1_555
H29 C32 1_555 1_555
H30 C32 1_555 1_555
C33 H31 1_555 1_555
H32 C33 1_555 1_555
C34 H33 1_555 1_555
C35 C34 1_555 1_555
H34 C35 1_555 1_555
C36 C35 1_555 1_555
H35 C36 1_555 1_555
C37 C36 1_555 1_555
H36 C37 1_555 1_555
C38 C37 1_555 1_555
H37 C38 1_555 1_555
C39 C34 1_555 1_555
C40 C39 1_555 1_555
H38 C40 1_555 1_555
H39 C40 1_555 1_555
C41 C42 1_555 1_555
C42 C43 1_555 1_555
C43 H40 1_555 1_555
C44 C43 1_555 1_555
H41 C44 1_555 1_555
C45 C44 1_555 1_555
H42 C45 1_555 1_555
C46 C45 1_555 1_555
H43 C46 1_555 1_555
C47 C42 1_555 1_555
C48 H44 1_555 1_555
H45 C48 1_555 1_555
C49 C48 1_555 1_555
H46 C49 1_555 1_555
H47 C49 1_555 1_555
C50 C33 1_555 1_555
H48 C50 1_555 1_555
H49 C50 1_555 1_555
C51 H50 1_555 1_555
H51 C51 1_555 1_555
N1 C7 1_555 1_555
H52 N1 1_555 1_555
N2 C23 1_555 1_555
H53 N2 1_555 1_555
N3 C40 1_555 1_555
H54 N3 1_555 1_555
N4 O10 1_555 1_555
N5 O13 1_555 1_555
N6 O16 1_555 1_555
O1 C8 1_555 1_555
O2 C14 1_555 1_555
O3 C16 1_555 1_555
O4 La1 1_555 1_555
O5 C30 1_555 1_555
O6 C32 1_555 1_555
O7 C41 1_555 1_555
O8 C47 1_555 1_555
O9 C49 1_555 1_555
O10 La1 1_555 1_555
O11 N4 1_555 1_555
O12 La1 1_555 1_555
O13 La1 1_555 1_555
O14 N5 1_555 1_555
O15 La1 1_555 1_555
O16 La1 1_555 1_555
O17 N6 1_555 1_555
O18 La1 1_555 1_555
La1A O1A 1_555 1_555
La1_2 O7 1_555 1_555
La1A_2 O7A 1_555 1_555
C1A H1A 1_555 1_555
C2A C1A 1_555 1_555
H2A C2A 1_555 1_555
C3A C2A 1_555 1_555
H3A C3A 1_555 1_555
C4A C3A 1_555 1_555
H4A C4A 1_555 1_555
C5A C4A 1_555 1_555
H5A C5A 1_555 1_555
C6A C1A 1_555 1_555
C7A C6A 1_555 1_555
H6A C7A 1_555 1_555
H7A C7A 1_555 1_555
C8A C9A 1_555 1_555
C9A C10A 1_555 1_555
C10A H8A 1_555 1_555
C11A C10A 1_555 1_555
H9A C11A 1_555 1_555
C12A C11A 1_555 1_555
H10A C12A 1_555 1_555
C13A C12A 1_555 1_555
H11A C13A 1_555 1_555
C14A C9A 1_555 1_555
C15A H12A 1_555 1_555
H13A C15A 1_555 1_555
C16A C15A 1_555 1_555
H14A C16A 1_555 1_555
H15A C16A 1_555 1_555
C17A H16A 1_555 1_555
C18A C17A 1_555 1_555
H17A C18A 1_555 1_555
C19A C18A 1_555 1_555
H18A C19A 1_555 1_555
C20A C19A 1_555 1_555
H19A C20A 1_555 1_555
C21A C20A 1_555 1_555
H20A C21A 1_555 1_555
C22A C17A 1_555 1_555
C23A C22A 1_555 1_555
H21A C23A 1_555 1_555
H22A C23A 1_555 1_555
C24A C25A 1_555 1_555
C25A C26A 1_555 1_555
C26A H23A 1_555 1_555
C27A C26A 1_555 1_555
H24A C27A 1_555 1_555
C28A C27A 1_555 1_555
H25A C28A 1_555 1_555
C29A C28A 1_555 1_555
H26A C29A 1_555 1_555
C30A C25A 1_555 1_555
C31A H27A 1_555 1_555
H28A C31A 1_555 1_555
C32A C31A 1_555 1_555
H29A C32A 1_555 1_555
H30A C32A 1_555 1_555
C33A H31A 1_555 1_555
H32A C33A 1_555 1_555
C34A H33A 1_555 1_555
C35A C34A 1_555 1_555
H34A C35A 1_555 1_555
C36A C35A 1_555 1_555
H35A C36A 1_555 1_555
C37A C36A 1_555 1_555
H36A C37A 1_555 1_555
C38A C37A 1_555 1_555
H37A C38A 1_555 1_555
C39A C34A 1_555 1_555
C40A C39A 1_555 1_555
H38A C40A 1_555 1_555
H39A C40A 1_555 1_555
C41A C42A 1_555 1_555
C42A C43A 1_555 1_555
C43A H40A 1_555 1_555
C44A C43A 1_555 1_555
H41A C44A 1_555 1_555
C45A C44A 1_555 1_555
H42A C45A 1_555 1_555
C46A C45A 1_555 1_555
H43A C46A 1_555 1_555
C47A C42A 1_555 1_555
C48A H44A 1_555 1_555
H45A C48A 1_555 1_555
C49A C48A 1_555 1_555
H46A C49A 1_555 1_555
H47A C49A 1_555 1_555
C50A C33A 1_555 1_555
H48A C50A 1_555 1_555
H49A C50A 1_555 1_555
C51A C51 1_555 1_555
H50A C51A 1_555 1_555
H51A C51A 1_555 1_555
N1A C7A 1_555 1_555
H52A N1A 1_555 1_555
N2A C23A 1_555 1_555
H53A N2A 1_555 1_555
N3A C40A 1_555 1_555
H54A N3A 1_555 1_555
N4A O10A 1_555 1_555
N5A O13A 1_555 1_555
N6A O16A 1_555 1_555
O1A C8A 1_555 1_555
O2A C14A 1_555 1_555
O3A C16A 1_555 1_555
O4A La1A 1_555 1_555
O5A C30A 1_555 1_555
O6A C32A 1_555 1_555
O7A C41A 1_555 1_555
O7_2 La1 1_555 1_555
O7A_2 La1A 1_555 1_555
O8A C47A 1_555 1_555
O9A C49A 1_555 1_555
O10A La1A 1_555 1_555
O11A N4A 1_555 1_555
O12A La1A 1_555 1_555
O13A La1A 1_555 1_555
O14A N5A 1_555 1_555
O15A La1A 1_555 1_555
O16A La1A 1_555 1_555
O17A N6A 1_555 1_555
O18A La1A 1_555 1_555
C5 C6 1_555 1_555
C8 N1 1_555 1_555
C13 C14 1_555 1_555
C15 O2 1_555 1_555
C21 C22 1_555 1_555
C24 N2 1_555 1_555
C24 O4 1_555 1_555
C29 C30 1_555 1_555
C31 O5 1_555 1_555
C33 O6 1_555 1_555
C38 C39 1_555 1_555
C41 N3 1_555 1_555
C46 C47 1_555 1_555
C48 O8 1_555 1_555
C50 O9 1_555 1_555
C51 O3 1_555 1_555
N4 O12 1_555 1_555
N5 O15 1_555 1_555
N6 O18 1_555 1_555
C5A C6A 1_555 1_555
C8A N1A 1_555 1_555
C13A C14A 1_555 1_555
C15A O2A 1_555 1_555
C21A C22A 1_555 1_555
C24A N2A 1_555 1_555
C24A O4A 1_555 1_555
C29A C30A 1_555 1_555
C31A O5A 1_555 1_555
C33A O6A 1_555 1_555
C38A C39A 1_555 1_555
C41A N3A 1_555 1_555
C46A C47A 1_555 1_555
C48A O8A 1_555 1_555
C50A O9A 1_555 1_555
C51A O3A 1_555 1_555
N4A O12A 1_555 1_555
N5A O15A 1_555 1_555
N6A O18A 1_555 1_555

#END
