
#######################################################################
#
#                 Cambridge Crystallographic Data Centre
#                                CCDC 
#
#######################################################################
#
# If this CIF has been generated from an entry in the Cambridge 
# Structural Database, then it will include bibliographic, chemical, 
# crystal, experimental, refinement or atomic coordinate data resulting 
# from the CCDC's data processing and validation procedures.
#
#######################################################################

data_VANYAM
_symmetry_cell_setting           triclinic
_symmetry_space_group_name_H-M   'P -1'
_symmetry_Int_Tables_number      2
_space_group_name_Hall           '-P 1'
loop_
_symmetry_equiv_pos_site_id
_symmetry_equiv_pos_as_xyz
1 x,y,z
2 -x,-y,-z
_cell_length_a                   11.732(8)
_cell_length_b                   14.149(10)
_cell_length_c                   19.594(14)
_cell_angle_alpha                81.871(7)
_cell_angle_beta                 88.384(7)
_cell_angle_gamma                66.055(7)
_cell_volume                     2941.2
loop_
_atom_site_label
_atom_site_type_symbol
_atom_site_fract_x
_atom_site_fract_y
_atom_site_fract_z
C1 C 0.3672(5) 0.7364(5) 0.9273(4)
H1 H 0.4364 0.6903 0.9072
C2 C 0.3785(7) 0.7599(7) 0.9926(4)
H2 H 0.4554 0.7294 1.0163
C3 C 0.2750(11) 0.8289(7) 1.0226(3)
H3 H 0.2826 0.8446 1.0663
C4 C 0.1602(9) 0.8744(5) 0.9872(5)
H4 H 0.0909 0.9206 1.0073
C5 C 0.1488(5) 0.8510(5) 0.9219(4)
H5 H 0.0720 0.8814 0.8982
C6 C 0.2523(6) 0.7820(5) 0.8919(3)
Pr1 Pr -0.12134(3) 0.75495(3) 0.738328(18)
C7 C 0.0944(7) 1.2260(6) 0.7891(4)
H6 H 0.1789 1.2124 0.7874
C8 C 0.0593(9) 1.1436(7) 0.8003(5)
H7 H 0.1191 1.0752 0.8069
C9 C -0.0637(11) 1.1637(8) 0.8016(5)
H8 H -0.0883 1.1083 0.8087
C10 C -0.1524(8) 1.2640(9) 0.7927(4)
H9 H -0.2367 1.2769 0.7940
C11 C -0.1155(7) 1.3466(6) 0.7818(3)
H10 H -0.1750 1.4152 0.7755
C12 C 0.0094(6) 1.3264(5) 0.7803(3)
C13 C 0.0490(7) 1.4154(5) 0.7710(3)
H11 H 0.1182 1.4008 0.7400
H12 H -0.0195 1.4787 0.7506
C14 C 0.0672(5) 1.5204(5) 0.8574(3)
C15 C 0.1124(5) 1.5207(5) 0.9276(3)
C16 C 0.0841(6) 1.6160(5) 0.9485(3)
H13 H 0.0384 1.6761 0.9184
C17 C 0.1208(7) 1.6262(6) 1.0122(4)
H14 H 0.0982 1.6921 1.0250
C18 C 0.1898(7) 1.5399(6) 1.0558(4)
H15 H 0.2160 1.5465 1.0985
C19 C 0.2216(6) 1.4423(6) 1.0377(3)
H16 H 0.2702 1.3833 1.0679
C20 C 0.1810(6) 1.4313(5) 0.9739(3)
C21 C 0.2560(7) 1.2446(5) 1.0075(4)
H17 H 0.2059 1.2575 1.0481
H18 H 0.3410 1.2310 1.0206
C22 C 0.2536(7) 1.1534(6) 0.9806(4)
H19 H 0.2697 1.0967 1.0183
H20 H 0.1713 1.1714 0.9608
C23 C 0.3767(8) 1.0145(6) 0.9237(5)
H21 H 0.3017 1.0032 0.9173
H22 H 0.4191 0.9714 0.9660
C24 C 0.4298(6) 0.6324(7) 0.6557(4)
H23 H 0.4654 0.5726 0.6878
C25 C 0.4945(8) 0.6991(10) 0.6342(5)
H24 H 0.5718 0.6828 0.6549
C26 C 0.4487(9) 0.7825(9) 0.5863(5)
H25 H 0.4950 0.8214 0.5722
C27 C 0.3339(7) 0.8100(7) 0.5582(5)
H26 H 0.2999 0.8702 0.5262
C28 C 0.2641(6) 0.7494(6) 0.5763(4)
H27 H 0.1867 0.7685 0.5547
C29 C 0.3097(5) 0.6626(6) 0.6254(3)
C30 C 0.2386(6) 0.5981(6) 0.6478(3)
H28 H 0.2963 0.5261 0.6613
H29 H 0.1904 0.6229 0.6876
C31 C 0.0349(5) 0.6259(4) 0.5987(3)
C32 C -0.0439(5) 0.6333(4) 0.5383(3)
C33 C -0.1624(6) 0.6371(5) 0.5509(3)
H30 H -0.1890 0.6343 0.5960
C34 C -0.2415(6) 0.6450(6) 0.4979(4)
H31 H -0.3203 0.6464 0.5072
C35 C -0.2047(6) 0.6507(6) 0.4329(4)
H32 H -0.2586 0.6563 0.3972
C36 C -0.0893(6) 0.6483(5) 0.4180(3)
H33 H -0.0648 0.6525 0.3725
C37 C -0.0091(5) 0.6394(5) 0.4713(3)
C38 C 0.1598(6) 0.6321(7) 0.3944(3)
H34 H 0.1095 0.6910 0.3609
H35 H 0.1675 0.5680 0.3784
C39 C 0.2853(7) 0.6322(7) 0.4056(4)
H36 H 0.3305 0.6241 0.3631
H37 H 0.2758 0.6981 0.4195
C40 C 0.4691(6) 0.5470(5) 0.4738(4)
H38 H 0.4592 0.6098 0.4924
H39 H 0.5189 0.5423 0.4330
C41 C 0.2429(8) 0.7486(6) 0.8235(4)
H40 H 0.3226 0.6953 0.8134
H41 H 0.1810 0.7193 0.8251
C42 C 0.1148(6) 0.8672(5) 0.7244(3)
C43 C 0.0958(6) 0.9551(5) 0.6688(3)
C44 C -0.0102(7) 0.9913(6) 0.6273(4)
H42 H -0.0693 0.9638 0.6383
C45 C -0.0324(8) 1.0648(6) 0.5715(4)
H43 H -0.1064 1.0887 0.5455
C46 C 0.0544(9) 1.1030(6) 0.5541(4)
H44 H 0.0422 1.1508 0.5143
C47 C 0.1593(7) 1.0722(5) 0.5941(4)
H45 H 0.2179 1.0996 0.5815
C48 C 0.1803(6) 1.0008(5) 0.6533(3)
C49 C 0.3669(6) 1.0179(6) 0.6852(4)
H46 H 0.3218 1.0933 0.6798
H47 H 0.4141 0.9992 0.6441
C50 C 0.4519(6) 0.9800(6) 0.7477(4)
H48 H 0.4879 0.9043 0.7561
H49 H 0.5194 1.0030 0.7406
C51 C 0.4583(7) 0.9819(7) 0.8656(5)
H50 H 0.5214 1.0100 0.8640
H51 H 0.4999 0.9063 0.8708
N1 N 0.0868(5) 1.4302(4) 0.8376(2)
H52 H 0.1253 1.3749 0.8666
N2 N 0.1548(4) 0.6033(4) 0.5924(2)
H53 H 0.1860 0.5907 0.5528
N3 N 0.2080(5) 0.8378(5) 0.7700(3)
H54 H 0.2512 0.8748 0.7677
N4 N -0.2848(6) 0.8782(5) 0.6129(3)
N5 N -0.3061(5) 0.6632(5) 0.7869(3)
N6 N -0.1970(5) 0.9295(5) 0.8242(3)
O1 O 0.0133(4) 1.6048(3) 0.81848(19)
O2 O 0.2080(4) 1.3342(3) 0.9557(2)
O3 O 0.3429(5) 1.1203(4) 0.9304(3)
O4 O -0.0126(4) 0.6389(3) 0.6569(2)
O5 O 0.1064(4) 0.6401(4) 0.4608(2)
O6 O 0.3516(4) 0.5499(4) 0.4570(3)
O7 O 0.0455(4) 0.8172(3) 0.7274(2)
O8 O 0.2816(4) 0.9676(3) 0.6960(2)
O9 O 0.3840(4) 1.0198(4) 0.8045(3)
O10 O -0.1711(4) 0.8634(4) 0.6161(2)
O11 O -0.3507(6) 0.9281(6) 0.5635(3)
O12 O -0.3231(4) 0.8337(4) 0.6625(2)
O13 O -0.2316(4) 0.6256(3) 0.7417(2)
O14 O -0.3838(5) 0.6297(5) 0.8066(3)
O15 O -0.2980(4) 0.7369(4) 0.8133(2)
O16 O -0.1293(4) 0.8366(4) 0.8496(2)
O17 O -0.2262(6) 1.0013(4) 0.8577(3)
O18 O -0.2349(4) 0.9453(3) 0.7621(3)
C1A C 0.6328(5) 0.2636(5) 0.0727(4)
H1A H 0.5636 0.3097 0.0928
C2A C 0.6215(7) 0.2401(7) 0.0074(4)
H2A H 0.5446 0.2706 -0.0163
C3A C 0.7250(11) 0.1711(7) -0.0226(3)
H3A H 0.7174 0.1554 -0.0663
C4A C 0.8398(9) 0.1256(5) 0.0128(5)
H4A H 0.9091 0.0794 -0.0073
C5A C 0.8512(5) 0.1490(5) 0.0781(4)
H5A H 0.9280 0.1186 0.1018
C6A C 0.7477(6) 0.2180(5) 0.1081(3)
Pr1A Pr 1.12134(3) 0.24505(3) 0.261672(18)
Pr1_2 Pr -0.12134(3) 1.75495(3) 0.738328(18)
Pr1A_2 Pr 1.12134(3) -0.75495(3) 0.261672(18)
C7A C 0.9056(7) -0.2260(6) 0.2109(4)
H6A H 0.8211 -0.2124 0.2126
C8A C 0.9407(9) -0.1436(7) 0.1997(5)
H7A H 0.8809 -0.0752 0.1931
C9A C 1.0637(11) -0.1637(8) 0.1984(5)
H8A H 1.0883 -0.1083 0.1913
C10A C 1.1524(8) -0.2640(9) 0.2073(4)
H9A H 1.2367 -0.2769 0.2060
C11A C 1.1155(7) -0.3466(6) 0.2182(3)
H10A H 1.1750 -0.4152 0.2245
C12A C 0.9906(6) -0.3264(5) 0.2197(3)
C13A C 0.9510(7) -0.4154(5) 0.2290(3)
H11A H 0.8818 -0.4008 0.2600
H12A H 1.0195 -0.4787 0.2494
C14A C 0.9328(5) -0.5204(5) 0.1426(3)
C15A C 0.8876(5) -0.5207(5) 0.0724(3)
C16A C 0.9159(6) -0.6160(5) 0.0515(3)
H13A H 0.9616 -0.6761 0.0816
C17A C 0.8792(7) -0.6262(6) -0.0122(4)
H14A H 0.9018 -0.6921 -0.0250
C18A C 0.8102(7) -0.5399(6) -0.0558(4)
H15A H 0.7840 -0.5465 -0.0985
C19A C 0.7784(6) -0.4423(6) -0.0377(3)
H16A H 0.7298 -0.3833 -0.0679
C20A C 0.8190(6) -0.4313(5) 0.0261(3)
C21A C 0.7440(7) -0.2446(5) -0.0075(4)
H17A H 0.7941 -0.2575 -0.0481
H18A H 0.6590 -0.2310 -0.0206
C22A C 0.7464(7) -0.1534(6) 0.0194(4)
H19A H 0.7303 -0.0967 -0.0183
H20A H 0.8287 -0.1714 0.0392
C23A C 0.6233(8) -0.0145(6) 0.0763(5)
H21A H 0.6983 -0.0032 0.0827
H22A H 0.5809 0.0286 0.0340
C24A C 0.5702(6) 0.3676(7) 0.3443(4)
H23A H 0.5346 0.4274 0.3122
C25A C 0.5055(8) 0.3009(10) 0.3658(5)
H24A H 0.4282 0.3172 0.3451
C26A C 0.5513(9) 0.2175(9) 0.4137(5)
H25A H 0.5050 0.1786 0.4278
C27A C 0.6661(7) 0.1900(7) 0.4418(5)
H26A H 0.7001 0.1298 0.4738
C28A C 0.7359(6) 0.2506(6) 0.4237(4)
H27A H 0.8133 0.2315 0.4453
C29A C 0.6903(5) 0.3374(6) 0.3746(3)
C30A C 0.7614(6) 0.4019(6) 0.3522(3)
H28A H 0.7037 0.4739 0.3387
H29A H 0.8096 0.3771 0.3124
C31A C 0.9651(5) 0.3741(4) 0.4013(3)
C32A C 1.0439(5) 0.3667(4) 0.4617(3)
C33A C 1.1624(6) 0.3629(5) 0.4491(3)
H30A H 1.1890 0.3657 0.4040
C34A C 1.2415(6) 0.3550(6) 0.5021(4)
H31A H 1.3203 0.3536 0.4928
C35A C 1.2047(6) 0.3493(6) 0.5671(4)
H32A H 1.2586 0.3437 0.6028
C36A C 1.0893(6) 0.3517(5) 0.5820(3)
H33A H 1.0648 0.3475 0.6275
C37A C 1.0091(5) 0.3606(5) 0.5287(3)
C38A C 0.8402(6) 0.3679(7) 0.6056(3)
H34A H 0.8905 0.3090 0.6391
H35A H 0.8325 0.4320 0.6216
C39A C 0.7147(7) 0.3678(7) 0.5944(4)
H36A H 0.6695 0.3759 0.6369
H37A H 0.7242 0.3019 0.5805
C40A C 0.5309(6) 0.4530(5) 0.5262(4)
H38A H 0.5408 0.3902 0.5076
H39A H 0.4811 0.4577 0.5670
C41A C 0.7571(8) 0.2514(6) 0.1765(4)
H40A H 0.6774 0.3047 0.1866
H41A H 0.8190 0.2807 0.1749
C42A C 0.8852(6) 0.1328(5) 0.2756(3)
C43A C 0.9042(6) 0.0449(5) 0.3312(3)
C44A C 1.0102(7) 0.0087(6) 0.3727(4)
H42A H 1.0693 0.0362 0.3617
C45A C 1.0324(8) -0.0648(6) 0.4285(4)
H43A H 1.1064 -0.0887 0.4545
C46A C 0.9456(9) -0.1030(6) 0.4459(4)
H44A H 0.9578 -0.1508 0.4857
C47A C 0.8407(7) -0.0722(5) 0.4059(4)
H45A H 0.7821 -0.0996 0.4185
C48A C 0.8197(6) -0.0008(5) 0.3467(3)
C49A C 0.6331(6) -0.0179(6) 0.3148(4)
H46A H 0.6782 -0.0933 0.3202
H47A H 0.5859 0.0008 0.3559
C50A C 0.5481(6) 0.0200(6) 0.2523(4)
H48A H 0.5121 0.0957 0.2439
H49A H 0.4806 -0.0030 0.2594
C51A C 0.5417(7) 0.0181(7) 0.1344(5)
H50A H 0.4786 -0.0100 0.1360
H51A H 0.5001 0.0937 0.1292
N1A N 0.9132(5) -0.4302(4) 0.1624(2)
H52A H 0.8747 -0.3749 0.1334
N2A N 0.8452(4) 0.3967(4) 0.4076(2)
H53A H 0.8140 0.4093 0.4472
N3A N 0.7920(5) 0.1622(5) 0.2300(3)
H54A H 0.7488 0.1252 0.2323
N4A N 1.2848(6) 0.1218(5) 0.3871(3)
N5A N 1.3061(5) 0.3368(5) 0.2131(3)
N6A N 1.1970(5) 0.0705(5) 0.1758(3)
O1A O 0.9867(4) -0.6048(3) 0.18152(19)
O1_2 O 0.0133(4) 0.6048(3) 0.81848(19)
O1A_2 O 0.9867(4) 0.3952(3) 0.18152(19)
O2A O 0.7920(4) -0.3342(3) 0.0443(2)
O3A O 0.6571(5) -0.1203(4) 0.0696(3)
O4A O 1.0126(4) 0.3611(3) 0.3431(2)
O5A O 0.8936(4) 0.3599(4) 0.5392(2)
O6A O 0.6484(4) 0.4501(4) 0.5430(3)
O7A O 0.9545(4) 0.1828(3) 0.2726(2)
O8A O 0.7184(4) 0.0324(3) 0.3040(2)
O9A O 0.6160(4) -0.0198(4) 0.1955(3)
O10A O 1.1711(4) 0.1366(4) 0.3839(2)
O11A O 1.3507(6) 0.0719(6) 0.4365(3)
O12A O 1.3231(4) 0.1663(4) 0.3375(2)
O13A O 1.2316(4) 0.3744(3) 0.2583(2)
O14A O 1.3838(5) 0.3703(5) 0.1934(3)
O15A O 1.2980(4) 0.2631(4) 0.1867(2)
O16A O 1.1293(4) 0.1634(4) 0.1504(2)
O17A O 1.2262(6) -0.0013(4) 0.1423(3)
O18A O 1.2349(4) 0.0547(3) 0.2379(3)
loop_
_geom_bond_atom_site_label_1
_geom_bond_atom_site_label_2
_geom_bond_site_symmetry_1
_geom_bond_site_symmetry_2
C1 H1 1_555 1_555
C2 C1 1_555 1_555
H2 C2 1_555 1_555
C3 C2 1_555 1_555
H3 C3 1_555 1_555
C4 C3 1_555 1_555
H4 C4 1_555 1_555
C5 C4 1_555 1_555
H5 C5 1_555 1_555
C6 C1 1_555 1_555
Pr1 O4 1_555 1_555
C7 H6 1_555 1_555
C8 C7 1_555 1_555
H7 C8 1_555 1_555
C9 C8 1_555 1_555
H8 C9 1_555 1_555
C10 C9 1_555 1_555
H9 C10 1_555 1_555
C11 C10 1_555 1_555
H10 C11 1_555 1_555
C12 C7 1_555 1_555
C13 C12 1_555 1_555
H11 C13 1_555 1_555
H12 C13 1_555 1_555
C14 C15 1_555 1_555
C15 C16 1_555 1_555
C16 H13 1_555 1_555
C17 C16 1_555 1_555
H14 C17 1_555 1_555
C18 C17 1_555 1_555
H15 C18 1_555 1_555
C19 C18 1_555 1_555
H16 C19 1_555 1_555
C20 C15 1_555 1_555
C21 H17 1_555 1_555
H18 C21 1_555 1_555
C22 C21 1_555 1_555
H19 C22 1_555 1_555
H20 C22 1_555 1_555
C23 H21 1_555 1_555
H22 C23 1_555 1_555
C24 H23 1_555 1_555
C25 C24 1_555 1_555
H24 C25 1_555 1_555
C26 C25 1_555 1_555
H25 C26 1_555 1_555
C27 C26 1_555 1_555
H26 C27 1_555 1_555
C28 C27 1_555 1_555
H27 C28 1_555 1_555
C29 C24 1_555 1_555
C30 C29 1_555 1_555
H28 C30 1_555 1_555
H29 C30 1_555 1_555
C31 C32 1_555 1_555
C32 C33 1_555 1_555
C33 H30 1_555 1_555
C34 C33 1_555 1_555
H31 C34 1_555 1_555
C35 C34 1_555 1_555
H32 C35 1_555 1_555
C36 C35 1_555 1_555
H33 C36 1_555 1_555
C37 C32 1_555 1_555
C38 H34 1_555 1_555
H35 C38 1_555 1_555
C39 C38 1_555 1_555
H36 C39 1_555 1_555
H37 C39 1_555 1_555
C40 H38 1_555 1_555
H39 C40 1_555 1_555
C41 C6 1_555 1_555
H40 C41 1_555 1_555
H41 C41 1_555 1_555
C42 C43 1_555 1_555
C43 C44 1_555 1_555
C44 H42 1_555 1_555
C45 C44 1_555 1_555
H43 C45 1_555 1_555
C46 C45 1_555 1_555
H44 C46 1_555 1_555
C47 C46 1_555 1_555
H45 C47 1_555 1_555
C48 C43 1_555 1_555
C49 H46 1_555 1_555
H47 C49 1_555 1_555
C50 C49 1_555 1_555
H48 C50 1_555 1_555
H49 C50 1_555 1_555
C51 C23 1_555 1_555
H50 C51 1_555 1_555
H51 C51 1_555 1_555
N1 C13 1_555 1_555
H52 N1 1_555 1_555
N2 C30 1_555 1_555
H53 N2 1_555 1_555
N3 C41 1_555 1_555
H54 N3 1_555 1_555
N4 O10 1_555 1_555
N5 O13 1_555 1_555
N6 O16 1_555 1_555
O1 C14 1_555 1_555
O2 C20 1_555 1_555
O3 C22 1_555 1_555
O4 C31 1_555 1_555
O5 C37 1_555 1_555
O6 C39 1_555 1_555
O7 Pr1 1_555 1_555
O8 C48 1_555 1_555
O9 C50 1_555 1_555
O10 Pr1 1_555 1_555
O11 N4 1_555 1_555
O12 Pr1 1_555 1_555
O13 Pr1 1_555 1_555
O14 N5 1_555 1_555
O15 Pr1 1_555 1_555
O16 Pr1 1_555 1_555
O17 N6 1_555 1_555
O18 Pr1 1_555 1_555
C1A H1A 1_555 1_555
C2A C1A 1_555 1_555
H2A C2A 1_555 1_555
C3A C2A 1_555 1_555
H3A C3A 1_555 1_555
C4A C3A 1_555 1_555
H4A C4A 1_555 1_555
C5A C4A 1_555 1_555
H5A C5A 1_555 1_555
C6A C1A 1_555 1_555
Pr1A O1A_2 1_555 1_555
Pr1_2 O1 1_555 1_555
Pr1A_2 O1A 1_555 1_555
C7A H6A 1_555 1_555
C8A C7A 1_555 1_555
H7A C8A 1_555 1_555
C9A C8A 1_555 1_555
H8A C9A 1_555 1_555
C10A C9A 1_555 1_555
H9A C10A 1_555 1_555
C11A C10A 1_555 1_555
H10A C11A 1_555 1_555
C12A C7A 1_555 1_555
C13A C12A 1_555 1_555
H11A C13A 1_555 1_555
H12A C13A 1_555 1_555
C14A C15A 1_555 1_555
C15A C16A 1_555 1_555
C16A H13A 1_555 1_555
C17A C16A 1_555 1_555
H14A C17A 1_555 1_555
C18A C17A 1_555 1_555
H15A C18A 1_555 1_555
C19A C18A 1_555 1_555
H16A C19A 1_555 1_555
C20A C15A 1_555 1_555
C21A H17A 1_555 1_555
H18A C21A 1_555 1_555
C22A C21A 1_555 1_555
H19A C22A 1_555 1_555
H20A C22A 1_555 1_555
C23A H21A 1_555 1_555
H22A C23A 1_555 1_555
C24A H23A 1_555 1_555
C25A C24A 1_555 1_555
H24A C25A 1_555 1_555
C26A C25A 1_555 1_555
H25A C26A 1_555 1_555
C27A C26A 1_555 1_555
H26A C27A 1_555 1_555
C28A C27A 1_555 1_555
H27A C28A 1_555 1_555
C29A C24A 1_555 1_555
C30A C29A 1_555 1_555
H28A C30A 1_555 1_555
H29A C30A 1_555 1_555
C31A C32A 1_555 1_555
C32A C33A 1_555 1_555
C33A H30A 1_555 1_555
C34A C33A 1_555 1_555
H31A C34A 1_555 1_555
C35A C34A 1_555 1_555
H32A C35A 1_555 1_555
C36A C35A 1_555 1_555
H33A C36A 1_555 1_555
C37A C32A 1_555 1_555
C38A H34A 1_555 1_555
H35A C38A 1_555 1_555
C39A C38A 1_555 1_555
H36A C39A 1_555 1_555
H37A C39A 1_555 1_555
C40A C40 1_555 1_555
H38A C40A 1_555 1_555
H39A C40A 1_555 1_555
C41A C6A 1_555 1_555
H40A C41A 1_555 1_555
H41A C41A 1_555 1_555
C42A C43A 1_555 1_555
C43A C44A 1_555 1_555
C44A H42A 1_555 1_555
C45A C44A 1_555 1_555
H43A C45A 1_555 1_555
C46A C45A 1_555 1_555
H44A C46A 1_555 1_555
C47A C46A 1_555 1_555
H45A C47A 1_555 1_555
C48A C43A 1_555 1_555
C49A H46A 1_555 1_555
H47A C49A 1_555 1_555
C50A C49A 1_555 1_555
H48A C50A 1_555 1_555
H49A C50A 1_555 1_555
C51A C23A 1_555 1_555
H50A C51A 1_555 1_555
H51A C51A 1_555 1_555
N1A C13A 1_555 1_555
H52A N1A 1_555 1_555
N2A C30A 1_555 1_555
H53A N2A 1_555 1_555
N3A C41A 1_555 1_555
H54A N3A 1_555 1_555
N4A O10A 1_555 1_555
N5A O13A 1_555 1_555
N6A O16A 1_555 1_555
O1A C14A 1_555 1_555
O1_2 Pr1 1_555 1_555
O2A C20A 1_555 1_555
O3A C22A 1_555 1_555
O4A Pr1A 1_555 1_555
O5A C37A 1_555 1_555
O6A C39A 1_555 1_555
O7A Pr1A 1_555 1_555
O8A C48A 1_555 1_555
O9A C50A 1_555 1_555
O10A Pr1A 1_555 1_555
O11A N4A 1_555 1_555
O12A Pr1A 1_555 1_555
O13A Pr1A 1_555 1_555
O14A N5A 1_555 1_555
O15A Pr1A 1_555 1_555
O16A Pr1A 1_555 1_555
O17A N6A 1_555 1_555
O18A Pr1A 1_555 1_555
C5 C6 1_555 1_555
C11 C12 1_555 1_555
C14 N1 1_555 1_555
C19 C20 1_555 1_555
C21 O2 1_555 1_555
C23 O3 1_555 1_555
C28 C29 1_555 1_555
C31 N2 1_555 1_555
C36 C37 1_555 1_555
C38 O5 1_555 1_555
C40 O6 1_555 1_555
C42 N3 1_555 1_555
C42 O7 1_555 1_555
C47 C48 1_555 1_555
C49 O8 1_555 1_555
C51 O9 1_555 1_555
N4 O12 1_555 1_555
N5 O15 1_555 1_555
N6 O18 1_555 1_555
C5A C6A 1_555 1_555
C11A C12A 1_555 1_555
C14A N1A 1_555 1_555
C19A C20A 1_555 1_555
C21A O2A 1_555 1_555
C23A O3A 1_555 1_555
C28A C29A 1_555 1_555
C31A N2A 1_555 1_555
C31A O4A 1_555 1_555
C36A C37A 1_555 1_555
C38A O5A 1_555 1_555
C40A O6A 1_555 1_555
C42A N3A 1_555 1_555
C42A O7A 1_555 1_555
C47A C48A 1_555 1_555
C49A O8A 1_555 1_555
C51A O9A 1_555 1_555
N4A O12A 1_555 1_555
N5A O15A 1_555 1_555
N6A O18A 1_555 1_555

#END
