
#######################################################################
#
#                 Cambridge Crystallographic Data Centre
#                                CCDC 
#
#######################################################################
#
# If this CIF has been generated from an entry in the Cambridge 
# Structural Database, then it will include bibliographic, chemical, 
# crystal, experimental, refinement or atomic coordinate data resulting 
# from the CCDC's data processing and validation procedures.
#
#######################################################################

data_VANYEQ
_symmetry_cell_setting           triclinic
_symmetry_space_group_name_H-M   'P -1'
_symmetry_Int_Tables_number      2
_space_group_name_Hall           '-P 1'
loop_
_symmetry_equiv_pos_site_id
_symmetry_equiv_pos_as_xyz
1 x,y,z
2 -x,-y,-z
_cell_length_a                   11.7509(8)
_cell_length_b                   14.0863(9)
_cell_length_c                   19.5636(14)
_cell_angle_alpha                81.903(3)
_cell_angle_beta                 88.260(3)
_cell_angle_gamma                66.215(3)
_cell_volume                     2932.46
loop_
_atom_site_label
_atom_site_type_symbol
_atom_site_fract_x
_atom_site_fract_y
_atom_site_fract_z
Nd1 Nd -0.120598(13) 0.753399(11) 0.738842(7)
C1 C -0.1136(3) 0.3460(3) 0.78120(16)
H1 H -0.1730 0.4146 0.7748
C2 C -0.1504(4) 0.2645(4) 0.7919(2)
H2 H -0.2347 0.2781 0.7925
C3 C -0.0638(5) 0.1631(4) 0.8019(2)
H3 H -0.0892 0.1081 0.8097
C4 C 0.0599(4) 0.1431(3) 0.8004(2)
H4 H 0.1190 0.0743 0.8070
C5 C 0.0968(3) 0.2247(2) 0.78908(18)
H5 H 0.1811 0.2108 0.7876
C6 C 0.0107(3) 0.3267(2) 0.77990(14)
C7 C 0.0516(3) 0.4153(2) 0.77009(15)
H6 H 0.1216 0.3995 0.7396
H7 H -0.0157 0.4787 0.7489
C8 C 0.0673(2) 0.5215(2) 0.85697(13)
C9 C 0.1106(2) 0.5225(2) 0.92765(13)
C10 C 0.0802(3) 0.6192(2) 0.94898(15)
H8 H 0.0328 0.6794 0.9194
C11 C 0.1179(3) 0.6295(3) 1.01270(17)
H9 H 0.0943 0.6954 1.0262
C12 C 0.1898(3) 0.5420(3) 1.05534(16)
H10 H 0.2178 0.5482 1.0978
C13 C 0.2216(3) 0.4446(3) 1.03660(15)
H11 H 0.2708 0.3855 1.0665
C14 C 0.1815(3) 0.4331(2) 0.97362(14)
C15 C 0.2600(3) 0.2465(2) 1.00684(16)
H12 H 0.2119 0.2596 1.0483
H13 H 0.3452 0.2332 1.0184
C16 C 0.2558(4) 0.1545(3) 0.98082(19)
H14 H 0.2715 0.0982 1.0188
H15 H 0.1736 0.1726 0.9613
C17 C 0.3776(4) 0.0123(3) 0.9247(2)
H16 H 0.3025 0.0010 0.9189
H17 H 0.4206 -0.0307 0.9669
C18 C 0.4584(4) -0.0191(3) 0.8654(2)
H18 H 0.5203 0.0104 0.8636
H19 H 0.5013 -0.0948 0.8707
C19 C 0.4529(3) -0.0236(3) 0.7458(2)
H20 H 0.4874 -0.0996 0.7538
H21 H 0.5209 -0.0014 0.7382
C20 C 0.3674(3) 0.0155(3) 0.6846(2)
H22 H 0.3236 0.0911 0.6799
H23 H 0.4132 -0.0029 0.6429
C21 C 0.1795(3) -0.0012(2) 0.65296(16)
C22 C 0.1597(4) 0.0722(2) 0.59394(18)
H24 H 0.2183 0.1000 0.5818
C23 C 0.0550(4) 0.1030(3) 0.5543(2)
H25 H 0.0437 0.1505 0.5143
C24 C -0.0349(4) 0.0656(3) 0.5720(2)
H26 H -0.1089 0.0907 0.5462
C25 C -0.0130(3) -0.0098(2) 0.62853(18)
H27 H -0.0724 -0.0371 0.6397
C26 C 0.0930(3) -0.0463(2) 0.66923(14)
C27 C 0.1112(3) -0.1351(2) 0.72458(15)
C28 C 0.2365(4) -0.2520(3) 0.82539(18)
H28 H 0.3141 -0.3071 0.8147
H29 H 0.1726 -0.2794 0.8281
C29 C 0.2510(4) -0.2212(3) 0.89422(19)
C30 C 0.1538(4) -0.1502(3) 0.9238(3)
H30 H 0.0770 -0.1169 0.9006
C31 C 0.1691(6) -0.1268(4) 0.9899(3)
H31 H 0.1030 -0.0786 1.0107
C32 C 0.2805(8) -0.1755(6) 1.0217(3)
H32 H 0.2901 -0.1620 1.0659
C33 C 0.3787(6) -0.2426(5) 0.9929(3)
H33 H 0.4560 -0.2733 1.0156
C34 C 0.3631(4) -0.2656(4) 0.9287(2)
H34 H 0.4310 -0.3127 0.9083
C35 C 0.2663(3) 0.7501(3) 0.57726(19)
H35 H 0.1878 0.7707 0.5571
C36 C 0.3364(3) 0.8076(3) 0.5578(2)
H36 H 0.3048 0.8659 0.5240
C37 C 0.4515(4) 0.7804(4) 0.5873(3)
H37 H 0.4977 0.8199 0.5741
C38 C 0.4968(4) 0.6944(5) 0.6363(2)
H38 H 0.5746 0.6753 0.6569
C39 C 0.4285(3) 0.6347(3) 0.65614(19)
H39 H 0.4611 0.5759 0.6895
C40 C 0.3119(3) 0.6628(3) 0.62612(16)
C41 C 0.2387(3) 0.5980(3) 0.64869(16)
H40 H 0.2958 0.5258 0.6623
H41 H 0.1911 0.6231 0.6887
C42 C 0.0348(3) 0.6260(2) 0.60122(14)
C43 C -0.0439(2) 0.6339(2) 0.54079(14)
C44 C -0.1619(3) 0.6372(2) 0.55320(17)
H42 H -0.1884 0.6343 0.5984
C45 C -0.2411(3) 0.6448(3) 0.5004(2)
H43 H -0.3197 0.6461 0.5101
C46 C -0.2036(3) 0.6503(3) 0.43379(19)
H44 H -0.2571 0.6558 0.3979
C47 C -0.0879(3) 0.6478(2) 0.41949(16)
H45 H -0.0631 0.6519 0.3740
C48 C -0.0075(3) 0.6392(2) 0.47256(15)
C49 C 0.1593(3) 0.6320(3) 0.39503(16)
H46 H 0.1091 0.6911 0.3617
H47 H 0.1664 0.5677 0.3791
C50 C 0.2863(3) 0.6320(3) 0.40554(19)
H48 H 0.3312 0.6231 0.3628
H49 H 0.2776 0.6982 0.4191
C51 C 0.4700(3) 0.5465(3) 0.47319(18)
H50 H 0.4611 0.6101 0.4907
H51 H 0.5199 0.5399 0.4323
N1 N 0.0877(2) 0.43152(17) 0.83688(12)
H52 H 0.1263 0.3763 0.8659
N2 N 0.2030(2) -0.1633(2) 0.77036(13)
H53 H 0.2466 -0.1265 0.7675
N3 N 0.1545(2) 0.60276(19) 0.59417(12)
H54 H 0.1851 0.5894 0.5544
N4 N -0.1954(2) 0.9273(2) 0.82285(15)
N5 N -0.3016(2) 0.6627(2) 0.78821(14)
N6 N -0.2818(3) 0.8743(2) 0.61540(14)
O1 O 0.01171(18) 0.60648(14) 0.81836(9)
O2 O 0.20960(19) 0.33656(14) 0.95457(10)
O3 O 0.3453(2) 0.12020(17) 0.93011(13)
O4 O 0.3852(2) 0.01727(19) 0.80397(14)
O5 O 0.2808(2) -0.03373(16) 0.69565(12)
O6 O 0.04149(17) -0.18356(14) 0.72682(10)
O7 O -0.01240(18) 0.63899(15) 0.65928(10)
O8 O 0.10660(19) 0.64019(18) 0.46186(10)
O9 O 0.3517(2) 0.54961(19) 0.45715(13)
O10 O -0.1253(2) 0.83420(16) 0.84823(10)
O11 O -0.2234(3) 0.99866(19) 0.85674(14)
O12 O -0.23389(19) 0.94077(15) 0.76115(12)
O13 O -0.29141(19) 0.73648(17) 0.81445(10)
O14 O -0.3797(2) 0.6292(2) 0.80688(13)
O15 O -0.22566(18) 0.62475(15) 0.74191(11)
O16 O -0.31958(18) 0.82932(17) 0.66544(11)
O17 O -0.3492(3) 0.9267(2) 0.56686(14)
O18 O -0.1688(2) 0.86034(17) 0.61922(11)
Nd1A Nd 1.120598(13) 0.246601(11) 0.261158(7)
Nd1_2 Nd -0.120598(13) -0.246601(11) 0.738842(7)
Nd1A_2 Nd 1.120598(13) 1.246601(11) 0.261158(7)
C1A C 1.1136(3) 0.6540(3) 0.21880(16)
H1A H 1.1730 0.5854 0.2252
C2A C 1.1504(4) 0.7355(4) 0.2081(2)
H2A H 1.2347 0.7219 0.2075
C3A C 1.0638(5) 0.8369(4) 0.1981(2)
H3A H 1.0892 0.8919 0.1903
C4A C 0.9401(4) 0.8569(3) 0.1996(2)
H4A H 0.8810 0.9257 0.1930
C5A C 0.9032(3) 0.7753(2) 0.21092(18)
H5A H 0.8189 0.7892 0.2124
C6A C 0.9893(3) 0.6733(2) 0.22010(14)
C7A C 0.9484(3) 0.5847(2) 0.22991(15)
H6A H 0.8784 0.6005 0.2604
H7A H 1.0157 0.5213 0.2511
C8A C 0.9327(2) 0.4785(2) 0.14303(13)
C9A C 0.8894(2) 0.4775(2) 0.07235(13)
C10A C 0.9198(3) 0.3808(2) 0.05102(15)
H8A H 0.9672 0.3206 0.0806
C11A C 0.8821(3) 0.3705(3) -0.01270(17)
H9A H 0.9057 0.3046 -0.0262
C12A C 0.8102(3) 0.4580(3) -0.05534(16)
H10A H 0.7822 0.4518 -0.0978
C13A C 0.7784(3) 0.5554(3) -0.03660(15)
H11A H 0.7292 0.6145 -0.0665
C14A C 0.8185(3) 0.5669(2) 0.02638(14)
C15A C 0.7400(3) 0.7535(2) -0.00684(16)
H12A H 0.7881 0.7404 -0.0483
H13A H 0.6548 0.7668 -0.0184
C16A C 0.7442(4) 0.8455(3) 0.01918(19)
H14A H 0.7285 0.9018 -0.0188
H15A H 0.8264 0.8274 0.0387
C17A C 0.6224(4) 0.9877(3) 0.0753(2)
H16A H 0.6975 0.9990 0.0811
H17A H 0.5794 1.0307 0.0331
C18A C 0.5416(4) 1.0191(3) 0.1346(2)
H18A H 0.4797 0.9896 0.1364
H19A H 0.4987 1.0948 0.1293
C19A C 0.5471(3) 1.0236(3) 0.2542(2)
H20A H 0.5126 1.0996 0.2462
H21A H 0.4791 1.0014 0.2618
C20A C 0.6326(3) 0.9845(3) 0.3154(2)
H22A H 0.6764 0.9089 0.3201
H23A H 0.5868 1.0029 0.3571
C21A C 0.8205(3) 1.0012(2) 0.34704(16)
C22A C 0.8403(4) 0.9278(2) 0.40606(18)
H24A H 0.7817 0.9000 0.4182
C23A C 0.9450(4) 0.8970(3) 0.4457(2)
H25A H 0.9563 0.8495 0.4857
C24A C 1.0349(4) 0.9344(3) 0.4280(2)
H26A H 1.1089 0.9093 0.4538
C25A C 1.0130(3) 1.0098(2) 0.37147(18)
H27A H 1.0724 1.0371 0.3603
C26A C 0.9070(3) 1.0463(2) 0.33077(14)
C27A C 0.8888(3) 1.1351(2) 0.27542(15)
C28A C 0.7635(4) 1.2520(3) 0.17461(18)
H28A H 0.6859 1.3071 0.1853
H29A H 0.8274 1.2794 0.1719
C29A C 0.7490(4) 1.2212(3) 0.10578(19)
C30A C 0.8462(4) 1.1502(3) 0.0762(3)
H30A H 0.9230 1.1169 0.0994
C31A C 0.8309(6) 1.1268(4) 0.0101(3)
H31A H 0.8970 1.0786 -0.0107
C32A C 0.7195(8) 1.1755(6) -0.0217(3)
H32A H 0.7099 1.1620 -0.0659
C33A C 0.6213(6) 1.2426(5) 0.0071(3)
H33A H 0.5440 1.2733 -0.0156
C34A C 0.6369(4) 1.2656(4) 0.0713(2)
H34A H 0.5690 1.3127 0.0917
C35A C 0.7337(3) 0.2499(3) 0.42274(19)
H35A H 0.8122 0.2293 0.4429
C36A C 0.6636(3) 0.1924(3) 0.4422(2)
H36A H 0.6952 0.1341 0.4760
C37A C 0.5485(4) 0.2196(4) 0.4127(3)
H37A H 0.5023 0.1801 0.4259
C38A C 0.5032(4) 0.3056(5) 0.3637(2)
H38A H 0.4254 0.3247 0.3431
C39A C 0.5715(3) 0.3653(3) 0.34386(19)
H39A H 0.5389 0.4241 0.3105
C40A C 0.6881(3) 0.3372(3) 0.37388(16)
C41A C 0.7613(3) 0.4020(3) 0.35131(16)
H40A H 0.7042 0.4742 0.3377
H41A H 0.8089 0.3769 0.3113
C42A C 0.9652(3) 0.3740(2) 0.39878(14)
C43A C 1.0439(2) 0.3661(2) 0.45921(14)
C44A C 1.1619(3) 0.3628(2) 0.44680(17)
H42A H 1.1884 0.3657 0.4016
C45A C 1.2411(3) 0.3552(3) 0.4996(2)
H43A H 1.3197 0.3539 0.4899
C46A C 1.2036(3) 0.3497(3) 0.56621(19)
H44A H 1.2571 0.3442 0.6021
C47A C 1.0879(3) 0.3522(2) 0.58051(16)
H45A H 1.0631 0.3481 0.6260
C48A C 1.0075(3) 0.3608(2) 0.52744(15)
C49A C 0.8407(3) 0.3680(3) 0.60497(16)
H46A H 0.8909 0.3089 0.6383
H47A H 0.8336 0.4323 0.6209
C50A C 0.7137(3) 0.3680(3) 0.59446(19)
H48A H 0.6688 0.3769 0.6372
H49A H 0.7224 0.3018 0.5809
C51A C 0.5300(3) 0.4535(3) 0.52681(18)
H50A H 0.5389 0.3899 0.5093
H51A H 0.4801 0.4601 0.5677
N1A N 0.9123(2) 0.56848(17) 0.16312(12)
H52A H 0.8737 0.6237 0.1341
N2A N 0.7970(2) 1.1633(2) 0.22964(13)
H53A H 0.7534 1.1265 0.2325
N3A N 0.8455(2) 0.39724(19) 0.40583(12)
H54A H 0.8149 0.4106 0.4456
N4A N 1.1954(2) 0.0727(2) 0.17715(15)
N5A N 1.3016(2) 0.3373(2) 0.21179(14)
N6A N 1.2818(3) 0.1257(2) 0.38460(14)
O1A O 0.98829(18) 0.39352(14) 0.18164(9)
O2A O 0.79040(19) 0.66344(14) 0.04543(10)
O3A O 0.6547(2) 0.87980(17) 0.06989(13)
O4A O 0.6148(2) 0.98273(19) 0.19603(14)
O5A O 0.7192(2) 1.03373(16) 0.30435(12)
O6A O 0.95851(17) 1.18356(14) 0.27318(10)
O6_2 O 0.04149(17) 0.81644(14) 0.72682(10)
O6A_2 O 0.95851(17) 0.18356(14) 0.27318(10)
O7A O 1.01240(18) 0.36101(15) 0.34072(10)
O8A O 0.89340(19) 0.35981(18) 0.53814(10)
O9A O 0.6483(2) 0.45039(19) 0.54285(13)
O10A O 1.1253(2) 0.16580(16) 0.15177(10)
O11A O 1.2234(3) 0.00134(19) 0.14326(14)
O12A O 1.23389(19) 0.05923(15) 0.23885(12)
O13A O 1.29141(19) 0.26352(17) 0.18555(10)
O14A O 1.3797(2) 0.3708(2) 0.19312(13)
O15A O 1.22566(18) 0.37525(15) 0.25809(11)
O16A O 1.31958(18) 0.17068(17) 0.33456(11)
O17A O 1.3492(3) 0.0733(2) 0.43314(14)
O18A O 1.1688(2) 0.13966(17) 0.38078(11)
loop_
_geom_bond_atom_site_label_1
_geom_bond_atom_site_label_2
_geom_bond_site_symmetry_1
_geom_bond_site_symmetry_2
Nd1 O1 1_555 1_555
C1 H1 1_555 1_555
C2 C1 1_555 1_555
H2 C2 1_555 1_555
C3 C2 1_555 1_555
H3 C3 1_555 1_555
C4 C3 1_555 1_555
H4 C4 1_555 1_555
C5 C4 1_555 1_555
H5 C5 1_555 1_555
C6 C1 1_555 1_555
C7 C6 1_555 1_555
H6 C7 1_555 1_555
H7 C7 1_555 1_555
C8 C9 1_555 1_555
C9 C10 1_555 1_555
C10 H8 1_555 1_555
C11 C10 1_555 1_555
H9 C11 1_555 1_555
C12 C11 1_555 1_555
H10 C12 1_555 1_555
C13 C12 1_555 1_555
H11 C13 1_555 1_555
C14 C9 1_555 1_555
C15 H12 1_555 1_555
H13 C15 1_555 1_555
C16 C15 1_555 1_555
H14 C16 1_555 1_555
H15 C16 1_555 1_555
C17 H16 1_555 1_555
H17 C17 1_555 1_555
C18 C17 1_555 1_555
H18 C18 1_555 1_555
H19 C18 1_555 1_555
C19 H20 1_555 1_555
H21 C19 1_555 1_555
C20 C19 1_555 1_555
H22 C20 1_555 1_555
H23 C20 1_555 1_555
C21 C22 1_555 1_555
C22 H24 1_555 1_555
C23 C22 1_555 1_555
H25 C23 1_555 1_555
C24 C23 1_555 1_555
H26 C24 1_555 1_555
C25 C24 1_555 1_555
H27 C25 1_555 1_555
C26 C21 1_555 1_555
C27 C26 1_555 1_555
C28 H28 1_555 1_555
H29 C28 1_555 1_555
C29 C28 1_555 1_555
C30 C29 1_555 1_555
H30 C30 1_555 1_555
C31 C30 1_555 1_555
H31 C31 1_555 1_555
C32 C31 1_555 1_555
H32 C32 1_555 1_555
C33 C32 1_555 1_555
H33 C33 1_555 1_555
C34 C29 1_555 1_555
H34 C34 1_555 1_555
C35 H35 1_555 1_555
C36 C35 1_555 1_555
H36 C36 1_555 1_555
C37 C36 1_555 1_555
H37 C37 1_555 1_555
C38 C37 1_555 1_555
H38 C38 1_555 1_555
C39 C38 1_555 1_555
H39 C39 1_555 1_555
C40 C35 1_555 1_555
C41 C40 1_555 1_555
H40 C41 1_555 1_555
H41 C41 1_555 1_555
C42 C43 1_555 1_555
C43 C44 1_555 1_555
C44 H42 1_555 1_555
C45 C44 1_555 1_555
H43 C45 1_555 1_555
C46 C45 1_555 1_555
H44 C46 1_555 1_555
C47 C46 1_555 1_555
H45 C47 1_555 1_555
C48 C43 1_555 1_555
C49 H46 1_555 1_555
H47 C49 1_555 1_555
C50 C49 1_555 1_555
H48 C50 1_555 1_555
H49 C50 1_555 1_555
C51 H50 1_555 1_555
H51 C51 1_555 1_555
N1 C7 1_555 1_555
H52 N1 1_555 1_555
N2 C27 1_555 1_555
H53 N2 1_555 1_555
N3 C41 1_555 1_555
H54 N3 1_555 1_555
N4 O10 1_555 1_555
N5 O13 1_555 1_555
N6 O16 1_555 1_555
O1 C8 1_555 1_555
O2 C14 1_555 1_555
O3 C16 1_555 1_555
O4 C18 1_555 1_555
O5 C20 1_555 1_555
O6 C27 1_555 1_555
O7 Nd1 1_555 1_555
O8 C48 1_555 1_555
O9 C50 1_555 1_555
O10 Nd1 1_555 1_555
O11 N4 1_555 1_555
O12 Nd1 1_555 1_555
O13 Nd1 1_555 1_555
O14 N5 1_555 1_555
O15 Nd1 1_555 1_555
O16 Nd1 1_555 1_555
O17 N6 1_555 1_555
O18 Nd1 1_555 1_555
Nd1A O1A 1_555 1_555
Nd1_2 O6 1_555 1_555
Nd1A_2 O6A 1_555 1_555
C1A H1A 1_555 1_555
C2A C1A 1_555 1_555
H2A C2A 1_555 1_555
C3A C2A 1_555 1_555
H3A C3A 1_555 1_555
C4A C3A 1_555 1_555
H4A C4A 1_555 1_555
C5A C4A 1_555 1_555
H5A C5A 1_555 1_555
C6A C1A 1_555 1_555
C7A C6A 1_555 1_555
H6A C7A 1_555 1_555
H7A C7A 1_555 1_555
C8A C9A 1_555 1_555
C9A C10A 1_555 1_555
C10A H8A 1_555 1_555
C11A C10A 1_555 1_555
H9A C11A 1_555 1_555
C12A C11A 1_555 1_555
H10A C12A 1_555 1_555
C13A C12A 1_555 1_555
H11A C13A 1_555 1_555
C14A C9A 1_555 1_555
C15A H12A 1_555 1_555
H13A C15A 1_555 1_555
C16A C15A 1_555 1_555
H14A C16A 1_555 1_555
H15A C16A 1_555 1_555
C17A H16A 1_555 1_555
H17A C17A 1_555 1_555
C18A C17A 1_555 1_555
H18A C18A 1_555 1_555
H19A C18A 1_555 1_555
C19A H20A 1_555 1_555
H21A C19A 1_555 1_555
C20A C19A 1_555 1_555
H22A C20A 1_555 1_555
H23A C20A 1_555 1_555
C21A C22A 1_555 1_555
C22A H24A 1_555 1_555
C23A C22A 1_555 1_555
H25A C23A 1_555 1_555
C24A C23A 1_555 1_555
H26A C24A 1_555 1_555
C25A C24A 1_555 1_555
H27A C25A 1_555 1_555
C26A C21A 1_555 1_555
C27A C26A 1_555 1_555
C28A H28A 1_555 1_555
H29A C28A 1_555 1_555
C29A C28A 1_555 1_555
C30A C29A 1_555 1_555
H30A C30A 1_555 1_555
C31A C30A 1_555 1_555
H31A C31A 1_555 1_555
C32A C31A 1_555 1_555
H32A C32A 1_555 1_555
C33A C32A 1_555 1_555
H33A C33A 1_555 1_555
C34A C29A 1_555 1_555
H34A C34A 1_555 1_555
C35A H35A 1_555 1_555
C36A C35A 1_555 1_555
H36A C36A 1_555 1_555
C37A C36A 1_555 1_555
H37A C37A 1_555 1_555
C38A C37A 1_555 1_555
H38A C38A 1_555 1_555
C39A C38A 1_555 1_555
H39A C39A 1_555 1_555
C40A C35A 1_555 1_555
C41A C40A 1_555 1_555
H40A C41A 1_555 1_555
H41A C41A 1_555 1_555
C42A C43A 1_555 1_555
C43A C44A 1_555 1_555
C44A H42A 1_555 1_555
C45A C44A 1_555 1_555
H43A C45A 1_555 1_555
C46A C45A 1_555 1_555
H44A C46A 1_555 1_555
C47A C46A 1_555 1_555
H45A C47A 1_555 1_555
C48A C43A 1_555 1_555
C49A H46A 1_555 1_555
H47A C49A 1_555 1_555
C50A C49A 1_555 1_555
H48A C50A 1_555 1_555
H49A C50A 1_555 1_555
C51A C51 1_555 1_555
H50A C51A 1_555 1_555
H51A C51A 1_555 1_555
N1A C7A 1_555 1_555
H52A N1A 1_555 1_555
N2A C27A 1_555 1_555
H53A N2A 1_555 1_555
N3A C41A 1_555 1_555
H54A N3A 1_555 1_555
N4A O10A 1_555 1_555
N5A O13A 1_555 1_555
N6A O16A 1_555 1_555
O1A C8A 1_555 1_555
O2A C14A 1_555 1_555
O3A C16A 1_555 1_555
O4A C18A 1_555 1_555
O5A C20A 1_555 1_555
O6A C27A 1_555 1_555
O6_2 Nd1 1_555 1_555
O6A_2 Nd1A 1_555 1_555
O7A Nd1A 1_555 1_555
O8A C48A 1_555 1_555
O9A C50A 1_555 1_555
O10A Nd1A 1_555 1_555
O11A N4A 1_555 1_555
O12A Nd1A 1_555 1_555
O13A Nd1A 1_555 1_555
O14A N5A 1_555 1_555
O15A Nd1A 1_555 1_555
O16A Nd1A 1_555 1_555
O17A N6A 1_555 1_555
O18A Nd1A 1_555 1_555
C5 C6 1_555 1_555
C8 N1 1_555 1_555
C13 C14 1_555 1_555
C15 O2 1_555 1_555
C17 O3 1_555 1_555
C19 O4 1_555 1_555
C21 O5 1_555 1_555
C25 C26 1_555 1_555
C28 N2 1_555 1_555
C33 C34 1_555 1_555
C39 C40 1_555 1_555
C42 N3 1_555 1_555
C42 O7 1_555 1_555
C47 C48 1_555 1_555
C49 O8 1_555 1_555
C51 O9 1_555 1_555
N4 O12 1_555 1_555
N5 O15 1_555 1_555
N6 O18 1_555 1_555
C5A C6A 1_555 1_555
C8A N1A 1_555 1_555
C13A C14A 1_555 1_555
C15A O2A 1_555 1_555
C17A O3A 1_555 1_555
C19A O4A 1_555 1_555
C21A O5A 1_555 1_555
C25A C26A 1_555 1_555
C28A N2A 1_555 1_555
C33A C34A 1_555 1_555
C39A C40A 1_555 1_555
C42A N3A 1_555 1_555
C42A O7A 1_555 1_555
C47A C48A 1_555 1_555
C49A O8A 1_555 1_555
C51A O9A 1_555 1_555
N4A O12A 1_555 1_555
N5A O15A 1_555 1_555
N6A O18A 1_555 1_555

#END
