
#######################################################################
#
#                 Cambridge Crystallographic Data Centre
#                                CCDC 
#
#######################################################################
#
# If this CIF has been generated from an entry in the Cambridge 
# Structural Database, then it will include bibliographic, chemical, 
# crystal, experimental, refinement or atomic coordinate data resulting 
# from the CCDC's data processing and validation procedures.
#
#######################################################################

data_VANYOA
_symmetry_cell_setting           triclinic
_symmetry_space_group_name_H-M   'P -1'
_symmetry_Int_Tables_number      2
_space_group_name_Hall           '-P 1'
loop_
_symmetry_equiv_pos_site_id
_symmetry_equiv_pos_as_xyz
1 x,y,z
2 -x,-y,-z
_cell_length_a                   11.4447(7)
_cell_length_b                   15.9902(11)
_cell_length_c                   17.5724(12)
_cell_angle_alpha                78.616(3)
_cell_angle_beta                 87.019(3)
_cell_angle_gamma                76.896(3)
_cell_volume                     3070.36
loop_
_atom_site_label
_atom_site_type_symbol
_atom_site_fract_x
_atom_site_fract_y
_atom_site_fract_z
C1 C 0.46446(7) 0.36353(5) 0.03342(4)
C2 C 0.43535(10) 0.43562(5) 0.06942(5)
H1 H 0.3600 0.4730 0.0623
C3 C 0.51890(14) 0.45186(8) 0.11609(6)
H2 H 0.4994 0.5001 0.1402
C4 C 0.63155(12) 0.39599(11) 0.12675(7)
H3 H 0.6874 0.4069 0.1580
C5 C 0.66066(8) 0.32390(10) 0.09075(7)
H4 H 0.7360 0.2865 0.0979
C6 C 0.57711(8) 0.30766(6) 0.04409(5)
H5 H 0.5966 0.2594 0.0200
Tb1 Tb 0.340701(5) 0.300065(3) -0.251707(3)
C7 C 0.51394(16) 0.27384(9) 0.46764(8)
H6 H 0.4778 0.2400 0.5069
C8 C 0.60144(19) 0.23427(12) 0.42277(10)
H7 H 0.6253 0.1736 0.4321
C9 C 0.65350(16) 0.28195(17) 0.36526(11)
H8 H 0.7123 0.2543 0.3344
C10 C 0.62098(18) 0.36873(14) 0.35242(11)
H9 H 0.6578 0.4019 0.3130
C11 C 0.53429(15) 0.40891(10) 0.39680(8)
H10 H 0.5120 0.4697 0.3869
C12 C 0.47898(10) 0.36283(8) 0.45533(7)
C13 C 0.39191(12) 0.40831(9) 0.50726(9)
H11 H 0.4214 0.3892 0.5600
H12 H 0.3881 0.4706 0.4928
C14 C 0.20221(10) 0.38092(7) 0.56717(6)
C15 C 0.07382(10) 0.37882(6) 0.55831(6)
C16 C 0.00648(11) 0.36721(7) 0.62617(7)
H13 H 0.0432 0.3609 0.6736
C17 C -0.11270(12) 0.36477(8) 0.62537(8)
H14 H -0.1560 0.3572 0.6715
C18 C -0.16674(12) 0.37371(8) 0.55557(9)
H15 H -0.2470 0.3710 0.5546
C19 C -0.10404(11) 0.38662(8) 0.48696(8)
H16 H -0.1423 0.3934 0.4400
C20 C 0.01548(11) 0.38949(7) 0.48763(7)
C21 C 0.02822(13) 0.41390(9) 0.34753(7)
H17 H -0.0381 0.4646 0.3399
H18 H -0.0018 0.3628 0.3438
C22 C 0.12352(14) 0.42610(9) 0.28824(8)
H19 H 0.0893 0.4417 0.2366
H20 H 0.1600 0.4728 0.2963
C23 C 0.30700(14) 0.35561(9) 0.24351(8)
H21 H 0.3420 0.4026 0.2527
H22 H 0.2780 0.3704 0.1906
C24 C 0.39986(13) 0.27257(9) 0.25402(8)
H23 H 0.4742 0.2834 0.2294
H24 H 0.4149 0.2503 0.3089
C25 C 0.44889(13) 0.13148(9) 0.22534(7)
H25 H 0.4648 0.1043 0.2793
H26 H 0.5228 0.1443 0.2016
C26 C 0.40662(14) 0.07057(8) 0.18458(7)
H27 H 0.4646 0.0152 0.1899
H28 H 0.3305 0.0597 0.2061
C27 C 0.36215(11) 0.07001(7) 0.05133(7)
C28 C 0.35368(13) -0.01687(8) 0.06977(8)
H29 H 0.3674 -0.0481 0.1202
C29 C 0.32459(13) -0.05651(8) 0.01241(9)
H30 H 0.3178 -0.1145 0.0250
C30 C 0.30570(13) -0.01264(8) -0.06172(8)
H31 H 0.2874 -0.0405 -0.0998
C31 C 0.31390(11) 0.07364(8) -0.07995(7)
H32 H 0.3005 0.1038 -0.1308
C32 C 0.34165(10) 0.11696(7) -0.02443(6)
C33 C 0.34828(10) 0.20996(7) -0.05129(6)
C34 C 0.37785(14) 0.34752(8) -0.01981(8)
H33 H 0.3005 0.3867 -0.0159
H34 H 0.4063 0.3595 -0.0730
C35 C 0.33498(15) 0.02248(10) -0.44846(10)
H35 H 0.3806 -0.0294 -0.4211
C36 C 0.34156(17) 0.04010(12) -0.52841(11)
H36 H 0.3907 -0.0001 -0.5545
C37 C 0.27643(16) 0.11604(12) -0.56919(10)
H37 H 0.2807 0.1289 -0.6231
C38 C 0.2053(2) 0.17240(11) -0.52928(10)
H38 H 0.1601 0.2247 -0.5563
C39 C 0.19828(17) 0.15444(9) -0.45078(9)
H39 H 0.1479 0.1944 -0.4251
C40 C 0.26302(11) 0.07956(7) -0.40899(8)
C41 C 0.26076(11) 0.05824(8) -0.32169(8)
H40 H 0.2755 -0.0048 -0.3050
H41 H 0.3256 0.0779 -0.3023
C42 C 0.13138(10) 0.16623(7) -0.25396(6)
C43 C 0.01309(10) 0.19353(7) -0.21567(6)
C44 C 0.00942(13) 0.23778(9) -0.15564(8)
H42 H 0.0796 0.2499 -0.1406
C45 C -0.09634(15) 0.26444(12) -0.11741(9)
H43 H -0.0980 0.2951 -0.0774
C46 C -0.19901(14) 0.24523(10) -0.13890(8)
H44 H -0.2705 0.2627 -0.1128
C47 C -0.19848(12) 0.20134(9) -0.19736(8)
H45 H -0.2690 0.1884 -0.2109
C48 C -0.09309(11) 0.17577(8) -0.23697(7)
C49 C -0.19171(12) 0.13253(10) -0.33638(9)
H46 H -0.2535 0.1847 -0.3342
H47 H -0.2217 0.0820 -0.3107
C50 C -0.15940(15) 0.12612(11) -0.41811(10)
H48 H -0.2309 0.1278 -0.4462
H49 H -0.1266 0.1758 -0.4425
C51 C -0.04439(15) 0.04110(9) -0.49982(9)
H50 H -0.0112 0.0902 -0.5253
H51 H -0.1154 0.0414 -0.5278
N1 N 0.27023(9) 0.39352(7) 0.50564(6)
H52 H 0.2418 0.3931 0.4614
N2 N 0.36463(10) 0.25646(6) 0.00025(6)
H53 H 0.3677 0.2318 0.0485
N3 N 0.14870(9) 0.09749(6) -0.28729(6)
H54 H 0.0886 0.0739 -0.2888
N4 N 0.49531(8) 0.15489(6) -0.30934(6)
N5 N 0.55487(9) 0.36875(6) -0.25628(6)
N6 N 0.19508(10) 0.45658(7) -0.20858(6)
O1 O 0.24257(7) 0.37284(5) 0.63365(4)
O2 O 0.08182(8) 0.40277(5) 0.42160(4)
O3 O 0.21060(9) 0.34708(6) 0.29539(5)
O4 O 0.36080(8) 0.20924(6) 0.22070(5)
O5 O 0.39351(9) 0.11258(5) 0.10455(4)
O6 O 0.33673(8) 0.24389(5) -0.12114(4)
O7 O 0.21281(7) 0.20541(5) -0.25032(4)
O8 O -0.08593(8) 0.13621(6) -0.29953(6)
O9 O -0.07515(9) 0.04871(6) -0.42235(6)
O10 O 0.49732(8) 0.16243(5) -0.23910(5)
O11 O 0.55555(8) 0.09210(6) -0.33306(5)
O12 O 0.42424(8) 0.21509(5) -0.35258(4)
O13 O 0.50419(8) 0.36306(6) -0.31716(5)
O14 O 0.63391(8) 0.40831(6) -0.25952(7)
O15 O 0.51740(7) 0.33001(6) -0.19342(5)
O16 O 0.30126(8) 0.44982(6) -0.23128(6)
O17 O 0.13700(10) 0.52374(6) -0.19227(7)
O18 O 0.15294(8) 0.39045(6) -0.20563(5)
C1A C -0.46446(7) -0.36353(5) -1.03342(4)
C2A C -0.43535(10) -0.43562(5) -1.06942(5)
H1A H -0.3600 -0.4730 -1.0623
C3A C -0.51890(14) -0.45186(8) -1.11609(6)
H2A H -0.4994 -0.5001 -1.1402
C4A C -0.63155(12) -0.39599(11) -1.12675(7)
H3A H -0.6874 -0.4069 -1.1580
C5A C -0.66066(8) -0.32390(10) -1.09075(7)
H4A H -0.7360 -0.2865 -1.0979
C6A C -0.57711(8) -0.30766(6) -1.04409(5)
H5A H -0.5966 -0.2594 -1.0200
Tb1A Tb -0.340701(5) -0.300065(3) -0.748293(3)
Tb1_2 Tb 0.340701(5) 0.300065(3) 0.748293(3)
Tb1A_2 Tb -0.340701(5) -0.300065(3) -1.748293(3)
C7A C -0.51394(16) -0.27384(9) -1.46764(8)
H6A H -0.4778 -0.2400 -1.5069
C8A C -0.60144(19) -0.23427(12) -1.42277(10)
H7A H -0.6253 -0.1736 -1.4321
C9A C -0.65350(16) -0.28195(17) -1.36526(11)
H8A H -0.7123 -0.2543 -1.3344
C10A C -0.62098(18) -0.36873(14) -1.35242(11)
H9A H -0.6578 -0.4019 -1.3130
C11A C -0.53429(15) -0.40891(10) -1.39680(8)
H10A H -0.5120 -0.4697 -1.3869
C12A C -0.47898(10) -0.36283(8) -1.45533(7)
C13A C -0.39191(12) -0.40831(9) -1.50726(9)
H11A H -0.4214 -0.3892 -1.5600
H12A H -0.3881 -0.4706 -1.4928
C14A C -0.20221(10) -0.38092(7) -1.56717(6)
C15A C -0.07382(10) -0.37882(6) -1.55831(6)
C16A C -0.00648(11) -0.36721(7) -1.62617(7)
H13A H -0.0432 -0.3609 -1.6736
C17A C 0.11270(12) -0.36477(8) -1.62537(8)
H14A H 0.1560 -0.3572 -1.6715
C18A C 0.16674(12) -0.37371(8) -1.55557(9)
H15A H 0.2470 -0.3710 -1.5546
C19A C 0.10404(11) -0.38662(8) -1.48696(8)
H16A H 0.1423 -0.3934 -1.4400
C20A C -0.01548(11) -0.38949(7) -1.48763(7)
C21A C -0.02822(13) -0.41390(9) -1.34753(7)
H17A H 0.0381 -0.4646 -1.3399
H18A H 0.0018 -0.3628 -1.3438
C22A C -0.12352(14) -0.42610(9) -1.28824(8)
H19A H -0.0893 -0.4417 -1.2366
H20A H -0.1600 -0.4728 -1.2963
C23A C -0.30700(14) -0.35561(9) -1.24351(8)
H21A H -0.3420 -0.4026 -1.2527
H22A H -0.2780 -0.3704 -1.1906
C24A C -0.39986(13) -0.27257(9) -1.25402(8)
H23A H -0.4742 -0.2834 -1.2294
H24A H -0.4149 -0.2503 -1.3089
C25A C -0.44889(13) -0.13148(9) -1.22534(7)
H25A H -0.4648 -0.1043 -1.2793
H26A H -0.5228 -0.1443 -1.2016
C26A C -0.40662(14) -0.07057(8) -1.18458(7)
H27A H -0.4646 -0.0152 -1.1899
H28A H -0.3305 -0.0597 -1.2061
C27A C -0.36215(11) -0.07001(7) -1.05133(7)
C28A C -0.35368(13) 0.01687(8) -1.06977(8)
H29A H -0.3674 0.0481 -1.1202
C29A C -0.32459(13) 0.05651(8) -1.01241(9)
H30A H -0.3178 0.1145 -1.0250
C30A C -0.30570(13) 0.01264(8) -0.93828(8)
H31A H -0.2874 0.0405 -0.9002
C31A C -0.31390(11) -0.07364(8) -0.92005(7)
H32A H -0.3005 -0.1038 -0.8692
C32A C -0.34165(10) -0.11696(7) -0.97557(6)
C33A C -0.34828(10) -0.20996(7) -0.94871(6)
C34A C -0.37785(14) -0.34752(8) -0.98019(8)
H33A H -0.3005 -0.3867 -0.9841
H34A H -0.4063 -0.3595 -0.9270
C35A C -0.33498(15) -0.02248(10) -0.55154(10)
H35A H -0.3806 0.0294 -0.5789
C36A C -0.34156(17) -0.04010(12) -0.47159(11)
H36A H -0.3907 0.0001 -0.4455
C37A C -0.27643(16) -0.11604(12) -0.43081(10)
H37A H -0.2807 -0.1289 -0.3769
C38A C -0.2053(2) -0.17240(11) -0.47072(10)
H38A H -0.1601 -0.2247 -0.4437
C39A C -0.19828(17) -0.15444(9) -0.54922(9)
H39A H -0.1479 -0.1944 -0.5749
C40A C -0.26302(11) -0.07956(7) -0.59101(8)
C41A C -0.26076(11) -0.05824(8) -0.67831(8)
H40A H -0.2755 0.0048 -0.6950
H41A H -0.3256 -0.0779 -0.6977
C42A C -0.13138(10) -0.16623(7) -0.74604(6)
C43A C -0.01309(10) -0.19353(7) -0.78433(6)
C44A C -0.00942(13) -0.23778(9) -0.84436(8)
H42A H -0.0796 -0.2499 -0.8594
C45A C 0.09634(15) -0.26444(12) -0.88259(9)
H43A H 0.0980 -0.2951 -0.9226
C46A C 0.19901(14) -0.24523(10) -0.86110(8)
H44A H 0.2705 -0.2627 -0.8872
C47A C 0.19848(12) -0.20134(9) -0.80264(8)
H45A H 0.2690 -0.1884 -0.7891
C48A C 0.09309(11) -0.17577(8) -0.76303(7)
C49A C 0.19171(12) -0.13253(10) -0.66362(9)
H46A H 0.2535 -0.1847 -0.6658
H47A H 0.2217 -0.0820 -0.6893
C50A C 0.15940(15) -0.12612(11) -0.58189(10)
H48A H 0.2309 -0.1278 -0.5538
H49A H 0.1266 -0.1758 -0.5575
C51A C 0.04439(15) -0.04110(9) -0.50018(9)
H50A H 0.0112 -0.0902 -0.4747
H51A H 0.1154 -0.0414 -0.4722
N1A N -0.27023(9) -0.39352(7) -1.50564(6)
H52A H -0.2418 -0.3931 -1.4614
N2A N -0.36463(10) -0.25646(6) -1.00025(6)
H53A H -0.3677 -0.2318 -1.0485
N3A N -0.14870(9) -0.09749(6) -0.71271(6)
H54A H -0.0886 -0.0739 -0.7112
N4A N -0.49531(8) -0.15489(6) -0.69066(6)
N5A N -0.55487(9) -0.36875(6) -0.74372(6)
N6A N -0.19508(10) -0.45658(7) -0.79142(6)
O1A O -0.24257(7) -0.37284(5) -1.63365(4)
O1_2 O 0.24257(7) 0.37284(5) -0.36635(4)
O1A_2 O -0.24257(7) -0.37284(5) -0.63365(4)
O2A O -0.08182(8) -0.40277(5) -1.42160(4)
O3A O -0.21060(9) -0.34708(6) -1.29539(5)
O4A O -0.36080(8) -0.20924(6) -1.22070(5)
O5A O -0.39351(9) -0.11258(5) -1.10455(4)
O6A O -0.33673(8) -0.24389(5) -0.87886(4)
O7A O -0.21281(7) -0.20541(5) -0.74968(4)
O8A O 0.08593(8) -0.13621(6) -0.70047(6)
O9A O 0.07515(9) -0.04871(6) -0.57765(6)
O10A O -0.49732(8) -0.16243(5) -0.76090(5)
O11A O -0.55555(8) -0.09210(6) -0.66694(5)
O12A O -0.42424(8) -0.21509(5) -0.64742(4)
O13A O -0.50419(8) -0.36306(6) -0.68284(5)
O14A O -0.63391(8) -0.40831(6) -0.74048(7)
O15A O -0.51740(7) -0.33001(6) -0.80658(5)
O16A O -0.30126(8) -0.44982(6) -0.76872(6)
O17A O -0.13700(10) -0.52374(6) -0.80773(7)
O18A O -0.15294(8) -0.39045(6) -0.79437(5)
loop_
_geom_bond_atom_site_label_1
_geom_bond_atom_site_label_2
_geom_bond_site_symmetry_1
_geom_bond_site_symmetry_2
C1 C2 1_555 1_555
C2 H1 1_555 1_555
C3 C2 1_555 1_555
H2 C3 1_555 1_555
C4 C3 1_555 1_555
H3 C4 1_555 1_555
C5 C4 1_555 1_555
H4 C5 1_555 1_555
C6 C1 1_555 1_555
H5 C6 1_555 1_555
Tb1 O6 1_555 1_555
C7 H6 1_555 1_555
C8 C7 1_555 1_555
H7 C8 1_555 1_555
C9 C8 1_555 1_555
H8 C9 1_555 1_555
C10 C9 1_555 1_555
H9 C10 1_555 1_555
C11 C10 1_555 1_555
H10 C11 1_555 1_555
C12 C7 1_555 1_555
C13 C12 1_555 1_555
H11 C13 1_555 1_555
H12 C13 1_555 1_555
C14 C15 1_555 1_555
C15 C16 1_555 1_555
C16 H13 1_555 1_555
C17 C16 1_555 1_555
H14 C17 1_555 1_555
C18 C17 1_555 1_555
H15 C18 1_555 1_555
C19 C18 1_555 1_555
H16 C19 1_555 1_555
C20 C15 1_555 1_555
C21 H17 1_555 1_555
H18 C21 1_555 1_555
C22 C21 1_555 1_555
H19 C22 1_555 1_555
H20 C22 1_555 1_555
C23 H21 1_555 1_555
H22 C23 1_555 1_555
C24 C23 1_555 1_555
H23 C24 1_555 1_555
H24 C24 1_555 1_555
C25 H25 1_555 1_555
H26 C25 1_555 1_555
C26 C25 1_555 1_555
H27 C26 1_555 1_555
H28 C26 1_555 1_555
C27 C28 1_555 1_555
C28 H29 1_555 1_555
C29 C28 1_555 1_555
H30 C29 1_555 1_555
C30 C29 1_555 1_555
H31 C30 1_555 1_555
C31 C30 1_555 1_555
H32 C31 1_555 1_555
C32 C27 1_555 1_555
C33 C32 1_555 1_555
C34 C1 1_555 1_555
H33 C34 1_555 1_555
H34 C34 1_555 1_555
C35 H35 1_555 1_555
C36 C35 1_555 1_555
H36 C36 1_555 1_555
C37 C36 1_555 1_555
H37 C37 1_555 1_555
C38 C37 1_555 1_555
H38 C38 1_555 1_555
C39 C38 1_555 1_555
H39 C39 1_555 1_555
C40 C35 1_555 1_555
C41 C40 1_555 1_555
H40 C41 1_555 1_555
H41 C41 1_555 1_555
C42 C43 1_555 1_555
C43 C44 1_555 1_555
C44 H42 1_555 1_555
C45 C44 1_555 1_555
H43 C45 1_555 1_555
C46 C45 1_555 1_555
H44 C46 1_555 1_555
C47 C46 1_555 1_555
H45 C47 1_555 1_555
C48 C43 1_555 1_555
C49 H46 1_555 1_555
H47 C49 1_555 1_555
C50 C49 1_555 1_555
H48 C50 1_555 1_555
H49 C50 1_555 1_555
C51 H50 1_555 1_555
H51 C51 1_555 1_555
N1 C13 1_555 1_555
H52 N1 1_555 1_555
N2 C33 1_555 1_555
H53 N2 1_555 1_555
N3 C41 1_555 1_555
H54 N3 1_555 1_555
N4 O10 1_555 1_555
N5 O13 1_555 1_555
N6 O16 1_555 1_555
O1 C14 1_555 1_555
O2 C20 1_555 1_555
O3 C22 1_555 1_555
O4 C24 1_555 1_555
O5 C26 1_555 1_555
O6 C33 1_555 1_555
O7 Tb1 1_555 1_555
O8 C48 1_555 1_555
O9 C50 1_555 1_555
O10 Tb1 1_555 1_555
O11 N4 1_555 1_555
O12 Tb1 1_555 1_555
O13 Tb1 1_555 1_555
O14 N5 1_555 1_555
O15 Tb1 1_555 1_555
O16 Tb1 1_555 1_555
O17 N6 1_555 1_555
O18 Tb1 1_555 1_555
C1A C2A 1_555 1_555
C2A H1A 1_555 1_555
C3A C2A 1_555 1_555
H2A C3A 1_555 1_555
C4A C3A 1_555 1_555
H3A C4A 1_555 1_555
C5A C4A 1_555 1_555
H4A C5A 1_555 1_555
C6A C1A 1_555 1_555
H5A C6A 1_555 1_555
Tb1A O1A_2 1_555 1_555
Tb1_2 O1 1_555 1_555
Tb1A_2 O1A 1_555 1_555
C7A H6A 1_555 1_555
C8A C7A 1_555 1_555
H7A C8A 1_555 1_555
C9A C8A 1_555 1_555
H8A C9A 1_555 1_555
C10A C9A 1_555 1_555
H9A C10A 1_555 1_555
C11A C10A 1_555 1_555
H10A C11A 1_555 1_555
C12A C7A 1_555 1_555
C13A C12A 1_555 1_555
H11A C13A 1_555 1_555
H12A C13A 1_555 1_555
C14A C15A 1_555 1_555
C15A C16A 1_555 1_555
C16A H13A 1_555 1_555
C17A C16A 1_555 1_555
H14A C17A 1_555 1_555
C18A C17A 1_555 1_555
H15A C18A 1_555 1_555
C19A C18A 1_555 1_555
H16A C19A 1_555 1_555
C20A C15A 1_555 1_555
C21A H17A 1_555 1_555
H18A C21A 1_555 1_555
C22A C21A 1_555 1_555
H19A C22A 1_555 1_555
H20A C22A 1_555 1_555
C23A H21A 1_555 1_555
H22A C23A 1_555 1_555
C24A C23A 1_555 1_555
H23A C24A 1_555 1_555
H24A C24A 1_555 1_555
C25A H25A 1_555 1_555
H26A C25A 1_555 1_555
C26A C25A 1_555 1_555
H27A C26A 1_555 1_555
H28A C26A 1_555 1_555
C27A C28A 1_555 1_555
C28A H29A 1_555 1_555
C29A C28A 1_555 1_555
H30A C29A 1_555 1_555
C30A C29A 1_555 1_555
H31A C30A 1_555 1_555
C31A C30A 1_555 1_555
H32A C31A 1_555 1_555
C32A C27A 1_555 1_555
C33A C32A 1_555 1_555
C34A C1A 1_555 1_555
H33A C34A 1_555 1_555
H34A C34A 1_555 1_555
C35A H35A 1_555 1_555
C36A C35A 1_555 1_555
H36A C36A 1_555 1_555
C37A C36A 1_555 1_555
H37A C37A 1_555 1_555
C38A C37A 1_555 1_555
H38A C38A 1_555 1_555
C39A C38A 1_555 1_555
H39A C39A 1_555 1_555
C40A C35A 1_555 1_555
C41A C40A 1_555 1_555
H40A C41A 1_555 1_555
H41A C41A 1_555 1_555
C42A C43A 1_555 1_555
C43A C44A 1_555 1_555
C44A H42A 1_555 1_555
C45A C44A 1_555 1_555
H43A C45A 1_555 1_555
C46A C45A 1_555 1_555
H44A C46A 1_555 1_555
C47A C46A 1_555 1_555
H45A C47A 1_555 1_555
C48A C43A 1_555 1_555
C49A H46A 1_555 1_555
H47A C49A 1_555 1_555
C50A C49A 1_555 1_555
H48A C50A 1_555 1_555
H49A C50A 1_555 1_555
C51A C51 1_555 1_555
H50A C51A 1_555 1_555
H51A C51A 1_555 1_555
N1A C13A 1_555 1_555
H52A N1A 1_555 1_555
N2A C33A 1_555 1_555
H53A N2A 1_555 1_555
N3A C41A 1_555 1_555
H54A N3A 1_555 1_555
N4A O10A 1_555 1_555
N5A O13A 1_555 1_555
N6A O16A 1_555 1_555
O1A C14A 1_555 1_555
O1_2 Tb1 1_555 1_555
O2A C20A 1_555 1_555
O3A C22A 1_555 1_555
O4A C24A 1_555 1_555
O5A C26A 1_555 1_555
O6A Tb1A 1_555 1_555
O7A Tb1A 1_555 1_555
O8A C48A 1_555 1_555
O9A C50A 1_555 1_555
O10A Tb1A 1_555 1_555
O11A N4A 1_555 1_555
O12A Tb1A 1_555 1_555
O13A Tb1A 1_555 1_555
O14A N5A 1_555 1_555
O15A Tb1A 1_555 1_555
O16A Tb1A 1_555 1_555
O17A N6A 1_555 1_555
O18A Tb1A 1_555 1_555
C5 C6 1_555 1_555
C11 C12 1_555 1_555
C14 N1 1_555 1_555
C19 C20 1_555 1_555
C21 O2 1_555 1_555
C23 O3 1_555 1_555
C25 O4 1_555 1_555
C27 O5 1_555 1_555
C31 C32 1_555 1_555
C34 N2 1_555 1_555
C39 C40 1_555 1_555
C42 N3 1_555 1_555
C42 O7 1_555 1_555
C47 C48 1_555 1_555
C49 O8 1_555 1_555
C51 O9 1_555 1_555
N4 O12 1_555 1_555
N5 O15 1_555 1_555
N6 O18 1_555 1_555
C5A C6A 1_555 1_555
C11A C12A 1_555 1_555
C14A N1A 1_555 1_555
C19A C20A 1_555 1_555
C21A O2A 1_555 1_555
C23A O3A 1_555 1_555
C25A O4A 1_555 1_555
C27A O5A 1_555 1_555
C31A C32A 1_555 1_555
C33A O6A 1_555 1_555
C34A N2A 1_555 1_555
C39A C40A 1_555 1_555
C42A N3A 1_555 1_555
C42A O7A 1_555 1_555
C47A C48A 1_555 1_555
C49A O8A 1_555 1_555
C51A O9A 1_555 1_555
N4A O12A 1_555 1_555
N5A O15A 1_555 1_555
N6A O18A 1_555 1_555

#END
