
#######################################################################
#
#                 Cambridge Crystallographic Data Centre
#                                CCDC 
#
#######################################################################
#
# If this CIF has been generated from an entry in the Cambridge 
# Structural Database, then it will include bibliographic, chemical, 
# crystal, experimental, refinement or atomic coordinate data resulting 
# from the CCDC's data processing and validation procedures.
#
#######################################################################

data_VANZAN
_symmetry_cell_setting           monoclinic
_symmetry_space_group_name_H-M   'P 21/n'
_symmetry_Int_Tables_number      14
_space_group_name_Hall           '-P 2yn'
loop_
_symmetry_equiv_pos_site_id
_symmetry_equiv_pos_as_xyz
1 x,y,z
2 1/2-x,1/2+y,1/2-z
3 -x,-y,-z
4 1/2+x,1/2-y,1/2+z
_cell_length_a                   10.2408(9)
_cell_length_b                   29.238(3)
_cell_length_c                   10.9738(10)
_cell_angle_alpha                90
_cell_angle_beta                 103.660(4)
_cell_angle_gamma                90
_cell_volume                     3192.84
loop_
_atom_site_label
_atom_site_type_symbol
_atom_site_fract_x
_atom_site_fract_y
_atom_site_fract_z
Fe1 Fe 0.54326(6) 0.10550(2) 0.72248(6)
C1 C 0.3566(4) 0.08505(14) 0.6898(4)
C2 C 0.5623(4) 0.06942(15) 0.5767(5)
C3 C 0.7347(5) 0.11779(14) 0.7380(4)
C4 C 0.4461(5) 0.16522(16) 0.5041(4)
H1 H 0.4500 0.1387 0.4549
C5 C 0.4018(5) 0.20490(16) 0.4445(5)
H2 H 0.3705 0.2053 0.3558
C6 C 0.4023(4) 0.24571(15) 0.5140(4)
C7 C 0.3656(5) 0.28837(16) 0.4580(5)
H3 H 0.3376 0.2905 0.3693
C8 C 0.3698(5) 0.32647(16) 0.5286(5)
H4 H 0.3454 0.3552 0.4894
C9 C 0.4101(5) 0.32357(17) 0.6602(5)
H5 H 0.4121 0.3505 0.7090
C10 C 0.4460(5) 0.28312(16) 0.7184(5)
H6 H 0.4728 0.2819 0.8073
C11 C 0.4437(4) 0.24249(15) 0.6466(4)
C12 C 0.4812(4) 0.19911(15) 0.7013(4)
C13 C 0.5153(4) 0.18831(16) 0.8402(4)
C14 C 0.5634(4) 0.12147(16) 0.9768(4)
C15 C 0.5584(5) 0.13941(18) 1.0927(5)
H7 H 0.5334 0.1704 1.0996
C16 C 0.5904(5) 0.1116(2) 1.1993(5)
H8 H 0.5845 0.1242 1.2776
C17 C 0.6299(5) 0.0671(2) 1.1956(5)
H9 H 0.6526 0.0494 1.2702
C18 C 0.6366(4) 0.04750(17) 1.0778(5)
C19 C 0.6702(5) 0.00139(18) 1.0621(5)
H10 H 0.6949 -0.0184 1.1325
C20 C 0.6668(5) -0.01423(17) 0.9451(5)
H11 H 0.6903 -0.0451 0.9337
C21 C 0.6290(4) 0.01457(16) 0.8409(5)
H12 H 0.6256 0.0026 0.7598
C22 C 0.6001(4) 0.07500(16) 0.9704(4)
N1 N 0.2475(4) 0.07382(13) 0.6768(4)
N2 N 0.5785(4) 0.05114(14) 0.4884(4)
N3 N 0.8484(4) 0.12097(13) 0.7525(4)
N4 N 0.4847(3) 0.16168(12) 0.6298(3)
N5 N 0.5336(3) 0.14289(13) 0.8598(3)
N6 N 0.5979(4) 0.05788(13) 0.8519(4)
O1 O 0.5222(3) 0.21796(11) 0.9220(3)
Mn1 Mn 0.05091(6) 0.09346(2) 0.73288(6)
C23 C 0.1659(4) 0.17108(14) 0.8852(4)
C24 C 0.2186(4) 0.18868(15) 1.0061(4)
H13 H 0.2377 0.1685 1.0758
C25 C 0.2430(5) 0.23484(16) 1.0250(5)
H14 H 0.2784 0.2466 1.1068
C26 C 0.2149(5) 0.26364(16) 0.9223(5)
C27 C 0.1653(5) 0.24872(15) 0.8042(5)
H15 H 0.1483 0.2698 0.7363
C28 C 0.1389(4) 0.20178(15) 0.7818(4)
C29 C 0.0888(4) 0.18736(15) 0.6541(4)
H16 H 0.0808 0.2099 0.5904
C30 C 0.0162(5) 0.13326(16) 0.4870(4)
H17 H 0.0953 0.1210 0.4605
H18 H -0.0172 0.1604 0.4351
C31 C -0.0932(4) 0.09710(15) 0.4697(4)
H19 H -0.1812 0.1117 0.4663
H20 H -0.0990 0.0804 0.3901
C32 C -0.1195(4) 0.02631(14) 0.5691(4)
H21 H -0.1779 0.0185 0.4909
C33 C -0.1053(4) -0.00622(14) 0.6696(4)
C34 C -0.1829(4) -0.04664(15) 0.6473(4)
H22 H -0.2441 -0.0515 0.5686
C35 C -0.1689(5) -0.07837(15) 0.7395(5)
C36 C -0.0800(4) -0.07370(15) 0.8544(4)
H23 H -0.0712 -0.0971 0.9158
C37 C -0.0043(4) -0.03444(14) 0.8787(4)
H24 H 0.0588 -0.0312 0.9570
C38 C -0.0185(4) 0.00099(14) 0.7897(4)
N7 N 0.0541(3) 0.14610(12) 0.6200(3)
N8 N -0.0592(3) 0.06511(12) 0.5768(3)
O2 O 0.1462(3) 0.12614(10) 0.8738(3)
O3 O 0.0480(3) 0.03942(10) 0.8233(3)
F1 F 0.2417(3) 0.30953(9) 0.9438(3)
F2 F -0.2462(3) -0.11743(9) 0.7182(3)
N3_2 N -0.1516(4) 0.12097(13) 0.7525(4)
Mn1_2 Mn 1.05091(6) 0.09346(2) 0.73288(6)
loop_
_geom_bond_atom_site_label_1
_geom_bond_atom_site_label_2
_geom_bond_site_symmetry_1
_geom_bond_site_symmetry_2
Fe1 C1 1_555 1_555
C1 N1 1_555 1_555
C2 Fe1 1_555 1_555
C3 Fe1 1_555 1_555
C4 H1 1_555 1_555
C5 C4 1_555 1_555
H2 C5 1_555 1_555
C6 C5 1_555 1_555
C7 C6 1_555 1_555
H3 C7 1_555 1_555
C8 C7 1_555 1_555
H4 C8 1_555 1_555
C9 C8 1_555 1_555
H5 C9 1_555 1_555
C10 C9 1_555 1_555
H6 C10 1_555 1_555
C11 C6 1_555 1_555
C12 C11 1_555 1_555
C13 C12 1_555 1_555
C14 C15 1_555 1_555
C15 H7 1_555 1_555
C16 C15 1_555 1_555
H8 C16 1_555 1_555
C17 C16 1_555 1_555
H9 C17 1_555 1_555
C18 C17 1_555 1_555
C19 C18 1_555 1_555
H10 C19 1_555 1_555
C20 C19 1_555 1_555
H11 C20 1_555 1_555
C21 C20 1_555 1_555
H12 C21 1_555 1_555
C22 C14 1_555 1_555
N1 Mn1 1_555 1_555
N2 C2 1_555 1_555
N3 C3 1_555 1_555
N4 Fe1 1_555 1_555
N5 Fe1 1_555 1_555
N6 Fe1 1_555 1_555
O1 C13 1_555 1_555
Mn1 N7 1_555 1_555
C23 C24 1_555 1_555
C24 H13 1_555 1_555
C25 C24 1_555 1_555
H14 C25 1_555 1_555
C26 C25 1_555 1_555
C27 C26 1_555 1_555
H15 C27 1_555 1_555
C28 C23 1_555 1_555
C29 C28 1_555 1_555
H16 C29 1_555 1_555
C30 H17 1_555 1_555
H18 C30 1_555 1_555
C31 C30 1_555 1_555
H19 C31 1_555 1_555
H20 C31 1_555 1_555
C32 H21 1_555 1_555
C33 C32 1_555 1_555
C34 C33 1_555 1_555
H22 C34 1_555 1_555
C35 C34 1_555 1_555
C36 C35 1_555 1_555
H23 C36 1_555 1_555
C37 C36 1_555 1_555
H24 C37 1_555 1_555
C38 C33 1_555 1_555
N7 C29 1_555 1_555
N8 Mn1 1_555 1_555
O2 Mn1 1_555 1_555
O3 Mn1 1_555 1_555
F1 C26 1_555 1_555
F2 C35 1_555 1_555
N3_2 Mn1 1_555 1_555
Mn1_2 N3 1_555 1_555
C4 N4 1_555 1_555
C10 C11 1_555 1_555
C12 N4 1_555 1_555
C13 N5 1_555 1_555
C14 N5 1_555 1_555
C18 C22 1_555 1_555
C21 N6 1_555 1_555
C22 N6 1_555 1_555
C23 O2 1_555 1_555
C27 C28 1_555 1_555
C30 N7 1_555 1_555
C31 N8 1_555 1_555
C32 N8 1_555 1_555
C37 C38 1_555 1_555
C38 O3 1_555 1_555

#END
