
#######################################################################
#
#                 Cambridge Crystallographic Data Centre
#                                CCDC 
#
#######################################################################
#
# If this CIF has been generated from an entry in the Cambridge 
# Structural Database, then it will include bibliographic, chemical, 
# crystal, experimental, refinement or atomic coordinate data resulting 
# from the CCDC's data processing and validation procedures.
#
#######################################################################

data_VANZER
_symmetry_cell_setting           monoclinic
_symmetry_space_group_name_H-M   'P 21/n'
_symmetry_Int_Tables_number      14
_space_group_name_Hall           '-P 2yn'
loop_
_symmetry_equiv_pos_site_id
_symmetry_equiv_pos_as_xyz
1 x,y,z
2 1/2-x,1/2+y,1/2-z
3 -x,-y,-z
4 1/2+x,1/2-y,1/2+z
_cell_length_a                   8.8536(15)
_cell_length_b                   19.518(4)
_cell_length_c                   20.676(4)
_cell_angle_alpha                90
_cell_angle_beta                 93.255(5)
_cell_angle_gamma                90
_cell_volume                     3567.14
loop_
_atom_site_label
_atom_site_type_symbol
_atom_site_fract_x
_atom_site_fract_y
_atom_site_fract_z
Fe1 Fe 0.7450(2) 0.58365(10) 0.19533(10)
C1 C 0.8416(14) 0.6710(8) 0.2166(7)
C2 C 0.8229(15) 0.5513(7) 0.2812(8)
C3 C 0.6655(14) 0.4908(7) 0.1862(6)
C4 C 1.0487(15) 0.5306(7) 0.1752(7)
H1 H 1.0507 0.5170 0.2183
C5 C 1.1747(17) 0.5202(8) 0.1414(8)
H2 H 1.2587 0.4983 0.1610
C6 C 1.1771(16) 0.5426(7) 0.0769(8)
C7 C 1.3037(18) 0.5343(8) 0.0391(10)
H3 H 1.3882 0.5113 0.0569
C8 C 1.3060(19) 0.5587(8) -0.0221(9)
H4 H 1.3930 0.5549 -0.0450
C9 C 1.1784(18) 0.5891(8) -0.0502(9)
H5 H 1.1806 0.6048 -0.0926
C10 C 1.0499(19) 0.5971(7) -0.0186(8)
H6 H 0.9656 0.6178 -0.0392
C11 C 1.0451(16) 0.5730(7) 0.0480(8)
C12 C 0.9163(16) 0.5810(7) 0.0873(8)
C13 C 0.7694(16) 0.6164(7) 0.0643(8)
C14 C 0.5413(14) 0.6567(7) 0.1154(7)
C15 C 0.4674(17) 0.6920(8) 0.0641(7)
H7 H 0.5084 0.6932 0.0236
C16 C 0.3288(18) 0.7262(7) 0.0743(8)
H8 H 0.2797 0.7493 0.0398
C17 C 0.2657(18) 0.7262(7) 0.1328(9)
H9 H 0.1767 0.7503 0.1383
C18 C 0.3355(15) 0.6897(8) 0.1848(7)
C19 C 0.2761(15) 0.6837(8) 0.2473(8)
H10 H 0.1869 0.7061 0.2561
C20 C 0.3517(17) 0.6442(8) 0.2954(9)
H11 H 0.3112 0.6379 0.3355
C21 C 0.4909(15) 0.6143(7) 0.2814(8)
H12 H 0.5440 0.5902 0.3142
C22 C 0.4732(14) 0.6548(6) 0.1749(7)
N1 N 0.8912(13) 0.7253(6) 0.2217(6)
N2 N 0.8686(13) 0.5303(6) 0.3295(6)
N3 N 0.6228(13) 0.4347(6) 0.1862(6)
N4 N 0.9219(12) 0.5596(5) 0.1488(6)
N5 N 0.6768(12) 0.6191(5) 0.1146(6)
N6 N 0.5507(11) 0.6186(5) 0.2238(6)
O1 O 0.7423(11) 0.6383(5) 0.0104(5)
Mn1 Mn 0.8962(2) 0.82923(10) 0.26909(12)
C23 C 1.0899(15) 0.9061(7) 0.1885(7)
C24 C 1.2365(15) 0.9370(8) 0.1843(7)
H13 H 1.3159 0.9237 0.2130
C25 C 1.2597(16) 0.9851(8) 0.1392(8)
H14 H 1.3555 1.0041 0.1365
C26 C 1.1441(16) 1.0063(8) 0.0973(8)
C27 C 1.0028(17) 0.9792(8) 0.1005(8)
H15 H 0.9255 0.9943 0.0717
C28 C 0.9724(14) 0.9295(7) 0.1461(8)
C29 C 0.8206(15) 0.9041(7) 0.1494(8)
H16 H 0.7504 0.9180 0.1169
C30 C 0.6144(14) 0.8409(8) 0.1910(8)
H17 H 0.6054 0.7952 0.1727
H18 H 0.5501 0.8717 0.1648
C31 C 0.5696(14) 0.8410(7) 0.2599(8)
H19 H 0.5577 0.8877 0.2750
H20 H 0.4743 0.8171 0.2633
C32 C 0.6628(18) 0.7641(8) 0.3445(8)
H21 H 0.5628 0.7581 0.3548
C33 C 0.7743(18) 0.7258(8) 0.3803(8)
C34 C 0.7271(19) 0.6719(9) 0.4215(8)
H22 H 0.6244 0.6644 0.4256
C35 C 0.826(2) 0.6331(9) 0.4536(8)
C36 C 0.978(2) 0.6431(9) 0.4537(8)
H23 H 1.0439 0.6155 0.4788
C37 C 1.0342(19) 0.6958(8) 0.4154(8)
H24 H 1.1379 0.7027 0.4140
C38 C 0.9316(18) 0.7382(8) 0.3787(8)
N7 N 0.7731(12) 0.8642(6) 0.1926(6)
N8 N 0.6887(13) 0.8066(5) 0.2986(6)
O2 O 1.0792(9) 0.8561(5) 0.2340(5)
O3 O 0.9889(10) 0.7890(5) 0.3450(5)
F1 F 1.1694(9) 1.0548(4) 0.0516(4)
F2 F 0.7761(13) 0.5798(6) 0.4912(5)
N3A N 0.8772(13) 0.9347(6) 0.3138(6)
Mn1A Mn 0.6038(2) 0.32923(10) 0.23091(12)
O4 O 0.590(5) 0.973(3) 0.052(2)
O5 O 0.2132(14) 0.3389(7) 0.1286(8)
C39 C 0.107(3) 0.2117(13) -0.0265(12)
O6 O 0.1002(16) 0.2292(7) 0.0429(10)
loop_
_geom_bond_atom_site_label_1
_geom_bond_atom_site_label_2
_geom_bond_site_symmetry_1
_geom_bond_site_symmetry_2
Fe1 C1 1_555 1_555
C1 N1 1_555 1_555
C2 Fe1 1_555 1_555
C3 Fe1 1_555 1_555
C4 H1 1_555 1_555
C5 C4 1_555 1_555
H2 C5 1_555 1_555
C6 C5 1_555 1_555
C7 C6 1_555 1_555
H3 C7 1_555 1_555
C8 C7 1_555 1_555
H4 C8 1_555 1_555
C9 C8 1_555 1_555
H5 C9 1_555 1_555
C10 C9 1_555 1_555
H6 C10 1_555 1_555
C11 C6 1_555 1_555
C12 C11 1_555 1_555
C13 C12 1_555 1_555
C14 C15 1_555 1_555
C15 H7 1_555 1_555
C16 C15 1_555 1_555
H8 C16 1_555 1_555
C17 C16 1_555 1_555
H9 C17 1_555 1_555
C18 C17 1_555 1_555
C19 C18 1_555 1_555
H10 C19 1_555 1_555
C20 C19 1_555 1_555
H11 C20 1_555 1_555
C21 C20 1_555 1_555
H12 C21 1_555 1_555
C22 C14 1_555 1_555
N1 Mn1 1_555 1_555
N2 C2 1_555 1_555
N3 C3 1_555 1_555
N4 Fe1 1_555 1_555
N5 Fe1 1_555 1_555
N6 Fe1 1_555 1_555
O1 C13 1_555 1_555
Mn1 N7 1_555 1_555
C23 C24 1_555 1_555
C24 H13 1_555 1_555
C25 C24 1_555 1_555
H14 C25 1_555 1_555
C26 C25 1_555 1_555
C27 C26 1_555 1_555
H15 C27 1_555 1_555
C28 C23 1_555 1_555
C29 C28 1_555 1_555
H16 C29 1_555 1_555
C30 H17 1_555 1_555
H18 C30 1_555 1_555
C31 C30 1_555 1_555
H19 C31 1_555 1_555
H20 C31 1_555 1_555
C32 H21 1_555 1_555
C33 C32 1_555 1_555
C34 C33 1_555 1_555
H22 C34 1_555 1_555
C35 C34 1_555 1_555
C36 C35 1_555 1_555
H23 C36 1_555 1_555
C37 C36 1_555 1_555
H24 C37 1_555 1_555
C38 C33 1_555 1_555
N7 C29 1_555 1_555
N8 Mn1 1_555 1_555
O2 Mn1 1_555 1_555
O3 Mn1 1_555 1_555
F1 C26 1_555 1_555
F2 C35 1_555 1_555
C39 O6 1_555 1_555
N3A Mn1 1_555 1_555
Mn1A N3 1_555 1_555
C4 N4 1_555 1_555
C10 C11 1_555 1_555
C12 N4 1_555 1_555
C13 N5 1_555 1_555
C14 N5 1_555 1_555
C18 C22 1_555 1_555
C21 N6 1_555 1_555
C22 N6 1_555 1_555
C23 O2 1_555 1_555
C27 C28 1_555 1_555
C30 N7 1_555 1_555
C31 N8 1_555 1_555
C32 N8 1_555 1_555
C37 C38 1_555 1_555
C38 O3 1_555 1_555

#END
