
#######################################################################
#
#                 Cambridge Crystallographic Data Centre
#                                CCDC 
#
#######################################################################
#
# If this CIF has been generated from an entry in the Cambridge 
# Structural Database, then it will include bibliographic, chemical, 
# crystal, experimental, refinement or atomic coordinate data resulting 
# from the CCDC's data processing and validation procedures.
#
#######################################################################

data_VANZOB
_symmetry_cell_setting           monoclinic
_symmetry_space_group_name_H-M   'P 21/n'
_symmetry_Int_Tables_number      14
_space_group_name_Hall           '-P 2yn'
loop_
_symmetry_equiv_pos_site_id
_symmetry_equiv_pos_as_xyz
1 x,y,z
2 1/2-x,1/2+y,1/2-z
3 -x,-y,-z
4 1/2+x,1/2-y,1/2+z
_cell_length_a                   8.7400(15)
_cell_length_b                   19.893(4)
_cell_length_c                   21.134(4)
_cell_angle_alpha                90
_cell_angle_beta                 91.895(3)
_cell_angle_gamma                90
_cell_volume                     3672.45
loop_
_atom_site_label
_atom_site_type_symbol
_atom_site_fract_x
_atom_site_fract_y
_atom_site_fract_z
Fe1 Fe 0.25155(14) -0.09353(5) 0.19800(6)
C1 C 0.3310(10) -0.0665(4) 0.2820(4)
C2 C 0.3390(9) -0.1823(4) 0.2155(4)
C3 C 0.1795(9) -0.0001(4) 0.1917(4)
C4 C -0.0041(10) -0.1267(4) 0.2842(4)
H1 H 0.0484 -0.1036 0.3164
C5 C -0.1403(9) -0.1597(4) 0.2974(4)
H2 H -0.1742 -0.1607 0.3386
C6 C -0.2228(10) -0.1901(4) 0.2506(5)
H3 H -0.3156 -0.2105 0.2592
C7 C -0.1683(9) -0.1910(4) 0.1889(4)
C8 C -0.2492(11) -0.2234(5) 0.1389(5)
H4 H -0.3402 -0.2463 0.1452
C9 C -0.1851(11) -0.2193(5) 0.0789(5)
H5 H -0.2378 -0.2389 0.0447
C10 C -0.0461(12) -0.1872(4) 0.0681(4)
H6 H -0.0066 -0.1863 0.0278
C11 C 0.0325(10) -0.1566(4) 0.1190(4)
C12 C -0.0325(9) -0.1594(4) 0.1783(4)
C13 C 0.2685(10) -0.1177(4) 0.0694(5)
C14 C 0.4207(9) -0.0871(4) 0.0872(4)
C15 C 0.5431(11) -0.0755(4) 0.0499(4)
C16 C 0.5406(11) -0.0939(4) -0.0168(5)
H7 H 0.4541 -0.1141 -0.0352
C17 C 0.6631(12) -0.0817(5) -0.0516(5)
H8 H 0.6603 -0.0932 -0.0943
C18 C 0.7947(14) -0.0520(5) -0.0248(6)
H9 H 0.8781 -0.0444 -0.0501
C19 C 0.8041(13) -0.0336(6) 0.0378(6)
H10 H 0.8924 -0.0138 0.0549
C20 C 0.6784(11) -0.0453(4) 0.0748(5)
C21 C 0.6847(12) -0.0264(4) 0.1398(5)
H11 H 0.7695 -0.0047 0.1581
C22 C 0.5584(10) -0.0419(4) 0.1741(4)
H12 H 0.5632 -0.0315 0.2170
N1 N 0.3758(8) -0.0483(3) 0.3302(3)
N2 N 0.1429(7) 0.0551(3) 0.1915(3)
N3 N 0.3809(7) -0.2367(3) 0.2224(3)
N4 N 0.0519(7) -0.1276(3) 0.2267(3)
N5 N 0.1727(8) -0.1237(3) 0.1185(3)
N6 N 0.4271(9) -0.0710(3) 0.1511(3)
O1 O 0.2360(7) -0.1388(3) 0.0147(3)
Mn1 Mn 0.11816(13) 0.15948(5) 0.23475(6)
C23 C -0.0825(9) 0.0815(3) 0.3104(4)
C24 C -0.2247(9) 0.0500(4) 0.3141(4)
H13 H -0.3046 0.0631 0.2867
C25 C -0.2489(9) 0.0001(4) 0.3575(4)
H14 H -0.3449 -0.0199 0.3593
C26 C -0.1320(10) -0.0209(4) 0.3988(4)
C27 C 0.0109(10) 0.0076(4) 0.3962(4)
H15 H 0.0900 -0.0068 0.4234
C28 C 0.0363(9) 0.0589(3) 0.3519(4)
C29 C 0.1908(9) 0.0849(4) 0.3512(4)
H16 H 0.2593 0.0712 0.3833
C30 C 0.3975(9) 0.1494(4) 0.3114(4)
H17 H 0.4616 0.1197 0.3372
H18 H 0.4037 0.1943 0.3290
C31 C 0.4491(9) 0.1494(4) 0.2423(4)
H19 H 0.5440 0.1742 0.2387
H20 H 0.4650 0.1037 0.2277
C32 C 0.3553(9) 0.2209(4) 0.1586(4)
H21 H 0.4574 0.2266 0.1488
C33 C 0.2410(10) 0.2566(3) 0.1208(4)
C34 C 0.2929(9) 0.3051(4) 0.0772(4)
H22 H 0.3973 0.3124 0.0734
C35 C 0.1910(10) 0.3411(4) 0.0411(4)
C36 C 0.0364(9) 0.3302(4) 0.0452(4)
H23 H -0.0326 0.3551 0.0202
C37 C -0.0162(9) 0.2825(4) 0.0862(4)
H24 H -0.1212 0.2760 0.0888
C38 C 0.0822(9) 0.2438(3) 0.1238(3)
N7 N 0.2398(7) 0.1258(3) 0.3090(3)
N8 N 0.3251(7) 0.1819(3) 0.2046(3)
O2 O -0.0674(5) 0.1319(2) 0.2699(2)
O3 O 0.0236(6) 0.1966(2) 0.1611(2)
Cl1 Cl -0.1660(2) -0.08375(11) 0.45382(11)
Cl2 Cl 0.2529(3) 0.39961(10) -0.01293(10)
N3A N 0.1191(7) 0.2633(3) 0.2776(3)
Mn1A Mn 0.38184(13) -0.34052(5) 0.26525(6)
loop_
_geom_bond_atom_site_label_1
_geom_bond_atom_site_label_2
_geom_bond_site_symmetry_1
_geom_bond_site_symmetry_2
Fe1 C1 1_555 1_555
C1 N1 1_555 1_555
C2 Fe1 1_555 1_555
C3 Fe1 1_555 1_555
C4 H1 1_555 1_555
C5 C4 1_555 1_555
H2 C5 1_555 1_555
C6 C5 1_555 1_555
H3 C6 1_555 1_555
C7 C6 1_555 1_555
C8 C7 1_555 1_555
H4 C8 1_555 1_555
C9 C8 1_555 1_555
H5 C9 1_555 1_555
C10 C9 1_555 1_555
H6 C10 1_555 1_555
C11 C10 1_555 1_555
C12 C7 1_555 1_555
C13 C14 1_555 1_555
C14 C15 1_555 1_555
C15 C16 1_555 1_555
C16 H7 1_555 1_555
C17 C16 1_555 1_555
H8 C17 1_555 1_555
C18 C17 1_555 1_555
H9 C18 1_555 1_555
C19 C18 1_555 1_555
H10 C19 1_555 1_555
C20 C15 1_555 1_555
C21 C20 1_555 1_555
H11 C21 1_555 1_555
C22 C21 1_555 1_555
H12 C22 1_555 1_555
N2 C3 1_555 1_555
N3 C2 1_555 1_555
N4 Fe1 1_555 1_555
N5 Fe1 1_555 1_555
N6 Fe1 1_555 1_555
O1 C13 1_555 1_555
Mn1 N2 1_555 1_555
C23 C24 1_555 1_555
C24 H13 1_555 1_555
C25 C24 1_555 1_555
H14 C25 1_555 1_555
C26 C25 1_555 1_555
C27 C26 1_555 1_555
H15 C27 1_555 1_555
C28 C23 1_555 1_555
C29 C28 1_555 1_555
H16 C29 1_555 1_555
C30 H17 1_555 1_555
H18 C30 1_555 1_555
C31 C30 1_555 1_555
H19 C31 1_555 1_555
H20 C31 1_555 1_555
C32 H21 1_555 1_555
C33 C32 1_555 1_555
C34 C33 1_555 1_555
H22 C34 1_555 1_555
C35 C34 1_555 1_555
C36 C35 1_555 1_555
H23 C36 1_555 1_555
C37 C36 1_555 1_555
H24 C37 1_555 1_555
C38 C33 1_555 1_555
N7 Mn1 1_555 1_555
N8 Mn1 1_555 1_555
O2 Mn1 1_555 1_555
O3 Mn1 1_555 1_555
Cl1 C26 1_555 1_555
Cl2 C35 1_555 1_555
N3A Mn1 1_555 1_555
Mn1A N3 1_555 1_555
C4 N4 1_555 1_555
C11 C12 1_555 1_555
C11 N5 1_555 1_555
C12 N4 1_555 1_555
C13 N5 1_555 1_555
C14 N6 1_555 1_555
C19 C20 1_555 1_555
C22 N6 1_555 1_555
C23 O2 1_555 1_555
C27 C28 1_555 1_555
C29 N7 1_555 1_555
C30 N7 1_555 1_555
C31 N8 1_555 1_555
C32 N8 1_555 1_555
C37 C38 1_555 1_555
C38 O3 1_555 1_555

#END
