
#######################################################################
#
#                 Cambridge Crystallographic Data Centre
#                                CCDC 
#
#######################################################################
#
# If this CIF has been generated from an entry in the Cambridge 
# Structural Database, then it will include bibliographic, chemical, 
# crystal, experimental, refinement or atomic coordinate data resulting 
# from the CCDC's data processing and validation procedures.
#
#######################################################################

data_VANZUH
_symmetry_cell_setting           monoclinic
_symmetry_space_group_name_H-M   'P 21/n'
_symmetry_Int_Tables_number      14
_space_group_name_Hall           '-P 2yn'
loop_
_symmetry_equiv_pos_site_id
_symmetry_equiv_pos_as_xyz
1 x,y,z
2 1/2-x,1/2+y,1/2-z
3 -x,-y,-z
4 1/2+x,1/2-y,1/2+z
_cell_length_a                   17.9158(8)
_cell_length_b                   12.0674(5)
_cell_length_c                   20.8933(8)
_cell_angle_alpha                90
_cell_angle_beta                 96.5400(10)
_cell_angle_gamma                90
_cell_volume                     4487.68
loop_
_atom_site_label
_atom_site_type_symbol
_atom_site_fract_x
_atom_site_fract_y
_atom_site_fract_z
Fe1 Fe 0.23542(4) 0.52554(5) 0.06571(3)
C1 C 0.2225(3) 0.5546(4) 0.1556(2)
C2 C 0.2725(2) 0.3821(4) 0.09929(19)
C3 C 0.1986(3) 0.6779(4) 0.0510(2)
C4 C 0.0802(3) 0.4439(4) 0.0805(2)
H1 H 0.0846 0.4749 0.1215
C5 C 0.0148(3) 0.3843(5) 0.0595(3)
H2 H -0.0233 0.3774 0.0860
C6 C 0.0073(3) 0.3372(5) 0.0006(3)
H3 H -0.0352 0.2955 -0.0132
C7 C 0.0646(3) 0.3515(5) -0.0403(3)
C8 C 0.0637(3) 0.3048(6) -0.1032(3)
H4 H 0.0230 0.2621 -0.1202
C9 C 0.1214(3) 0.3222(6) -0.1382(3)
H5 H 0.1199 0.2900 -0.1788
C10 C 0.1840(3) 0.3880(5) -0.1150(2)
H6 H 0.2222 0.4008 -0.1407
C11 C 0.1883(3) 0.4330(4) -0.0539(2)
C12 C 0.1283(3) 0.4139(4) -0.0165(2)
C13 C 0.3099(3) 0.5267(4) -0.0445(2)
C14 C 0.3644(2) 0.5771(3) 0.00780(19)
C15 C 0.4377(3) 0.6171(4) -0.0009(2)
C16 C 0.4656(3) 0.6235(4) -0.0619(2)
H7 H 0.4359 0.6014 -0.0991
C17 C 0.5366(3) 0.6623(4) -0.0650(2)
H8 H 0.5548 0.6666 -0.1049
C18 C 0.5830(3) 0.6959(4) -0.0101(3)
H9 H 0.6310 0.7225 -0.0139
C19 C 0.5580(3) 0.6897(4) 0.0494(3)
H10 H 0.5892 0.7109 0.0859
C20 C 0.4843(3) 0.6509(4) 0.0549(2)
C21 C 0.4554(3) 0.6461(4) 0.1149(2)
H11 H 0.4857 0.6660 0.1522
C22 C 0.3848(3) 0.6131(4) 0.1184(2)
H12 H 0.3664 0.6140 0.1583
N1 N 0.2147(2) 0.5713(3) 0.20812(17)
N2 N 0.2921(2) 0.2991(3) 0.12078(17)
N3 N 0.1772(3) 0.7672(4) 0.0451(2)
N4 N 0.1358(2) 0.4579(3) 0.04485(17)
N5 N 0.2460(2) 0.4935(3) -0.02029(16)
N6 N 0.3382(2) 0.5779(3) 0.06544(16)
O1 O 0.32295(19) 0.5176(3) -0.10100(14)
Mn1 Mn 0.21181(4) 0.67424(5) 0.29871(3)
C23 C 0.3747(2) 0.6827(4) 0.3099(2)
C24 C 0.4440(3) 0.6360(4) 0.3347(2)
H13 H 0.4443 0.5749 0.3619
C25 C 0.5112(3) 0.6777(4) 0.3199(2)
H14 H 0.5563 0.6455 0.3369
C26 C 0.5108(3) 0.7692(4) 0.2792(2)
C27 C 0.4451(3) 0.8180(4) 0.2540(2)
H15 H 0.4463 0.8796 0.2274
C28 C 0.3754(2) 0.7758(3) 0.26808(19)
C29 C 0.3085(2) 0.8309(3) 0.23910(19)
H16 H 0.3145 0.8917 0.2128
C30 C 0.1768(3) 0.8691(4) 0.2191(2)
H17 H 0.1883 0.9040 0.1795
H18 H 0.1661 0.9269 0.2490
C31 C 0.1104(3) 0.7948(4) 0.2055(2)
H19 H 0.0645 0.8382 0.1998
H20 H 0.1141 0.7529 0.1664
C32 C 0.0478(3) 0.6848(4) 0.2793(2)
H21 H 0.0034 0.7143 0.2588
C33 C 0.0413(2) 0.6044(4) 0.32907(19)
C34 C -0.0316(3) 0.5824(4) 0.3457(2)
H22 H -0.0726 0.6200 0.3247
C35 C -0.0423(3) 0.5067(4) 0.3921(2)
C36 C 0.0186(3) 0.4517(4) 0.4250(2)
H23 H 0.0110 0.4020 0.4576
C37 C 0.0898(3) 0.4703(4) 0.4095(2)
H24 H 0.1299 0.4316 0.4311
C38 C 0.1033(2) 0.5478(3) 0.3610(2)
N7 N 0.2413(2) 0.8021(3) 0.24703(16)
N8 N 0.1093(2) 0.7192(3) 0.26063(17)
O2 O 0.31243(16) 0.6385(2) 0.32655(15)
O3 O 0.17288(16) 0.5593(2) 0.34662(13)
Br1 Br 0.60372(3) 0.82616(6) 0.25705(3)
Br2 Br -0.14147(3) 0.47571(5) 0.41160(3)
N2A N 0.2079(2) 0.7991(3) 0.37922(17)
Mn1A Mn 0.28819(4) 0.17424(5) 0.20129(3)
C39 C 0.5957(5) 0.4549(5) 0.2414(3)
C40 C 0.6734(4) 0.4946(6) 0.2550(3)
H25 H 0.6876 0.4953 0.3008
H26 H 0.6770 0.5683 0.2383
H27 H 0.7064 0.4463 0.2350
N9 N 0.5351(4) 0.4241(5) 0.2311(3)
C41 C 0.7229(3) 0.2296(5) 0.1651(3)
C42 C 0.7580(3) 0.2329(5) 0.1055(3)
H28 H 0.7883 0.1679 0.1026
H29 H 0.7890 0.2977 0.1052
H30 H 0.7197 0.2351 0.0694
N10 N 0.6959(3) 0.2257(5) 0.2113(2)
C43 C 0.8389(4) 0.9523(5) 1.0398(3)
C44 C 0.8080(5) 0.9115(9) 0.9784(4)
H31 H 0.7567 0.8901 0.9802
H32 H 0.8364 0.8484 0.9671
H33 H 0.8102 0.9684 0.9466
N11 N 0.8609(5) 0.9869(6) 1.0885(3)
O4 O 0.0498(6) 0.9276(9) 0.0499(6)
loop_
_geom_bond_atom_site_label_1
_geom_bond_atom_site_label_2
_geom_bond_site_symmetry_1
_geom_bond_site_symmetry_2
Fe1 C1 1_555 1_555
C1 N1 1_555 1_555
C2 Fe1 1_555 1_555
C3 Fe1 1_555 1_555
C4 H1 1_555 1_555
C5 C4 1_555 1_555
H2 C5 1_555 1_555
C6 C5 1_555 1_555
H3 C6 1_555 1_555
C7 C6 1_555 1_555
C8 C7 1_555 1_555
H4 C8 1_555 1_555
C9 C8 1_555 1_555
H5 C9 1_555 1_555
C10 C9 1_555 1_555
H6 C10 1_555 1_555
C11 C10 1_555 1_555
C12 C7 1_555 1_555
C13 C14 1_555 1_555
C14 C15 1_555 1_555
C15 C16 1_555 1_555
C16 H7 1_555 1_555
C17 C16 1_555 1_555
H8 C17 1_555 1_555
C18 C17 1_555 1_555
H9 C18 1_555 1_555
C19 C18 1_555 1_555
H10 C19 1_555 1_555
C20 C15 1_555 1_555
C21 C20 1_555 1_555
H11 C21 1_555 1_555
C22 C21 1_555 1_555
H12 C22 1_555 1_555
N1 Mn1 1_555 1_555
N2 C2 1_555 1_555
N3 C3 1_555 1_555
N4 Fe1 1_555 1_555
N5 Fe1 1_555 1_555
N6 Fe1 1_555 1_555
O1 C13 1_555 1_555
Mn1 N7 1_555 1_555
C23 C24 1_555 1_555
C24 H13 1_555 1_555
C25 C24 1_555 1_555
H14 C25 1_555 1_555
C26 C25 1_555 1_555
C27 C26 1_555 1_555
H15 C27 1_555 1_555
C28 C23 1_555 1_555
C29 C28 1_555 1_555
H16 C29 1_555 1_555
C30 H17 1_555 1_555
H18 C30 1_555 1_555
C31 C30 1_555 1_555
H19 C31 1_555 1_555
H20 C31 1_555 1_555
C32 H21 1_555 1_555
C33 C32 1_555 1_555
C34 C33 1_555 1_555
H22 C34 1_555 1_555
C35 C34 1_555 1_555
C36 C35 1_555 1_555
H23 C36 1_555 1_555
C37 C36 1_555 1_555
H24 C37 1_555 1_555
C38 C33 1_555 1_555
C39 C40 1_555 1_555
C40 H25 1_555 1_555
H26 C40 1_555 1_555
H27 C40 1_555 1_555
C41 C42 1_555 1_555
N7 C29 1_555 1_555
N8 Mn1 1_555 1_555
O2 Mn1 1_555 1_555
O3 Mn1 1_555 1_555
Br1 C26 1_555 1_555
Br2 C35 1_555 1_555
C42 H28 1_555 1_555
H29 C42 1_555 1_555
H30 C42 1_555 1_555
C43 C44 1_555 1_555
C44 H31 1_555 1_555
H32 C44 1_555 1_555
H33 C44 1_555 1_555
N9 C39 1_555 1_555
N10 C41 1_555 1_555
N11 C43 1_555 1_555
N2A Mn1 1_555 1_555
Mn1A N2 1_555 1_555
C4 N4 1_555 1_555
C11 C12 1_555 1_555
C11 N5 1_555 1_555
C12 N4 1_555 1_555
C13 N5 1_555 1_555
C14 N6 1_555 1_555
C19 C20 1_555 1_555
C22 N6 1_555 1_555
C23 O2 1_555 1_555
C27 C28 1_555 1_555
C30 N7 1_555 1_555
C31 N8 1_555 1_555
C32 N8 1_555 1_555
C37 C38 1_555 1_555
C38 O3 1_555 1_555

#END
