
#######################################################################
#
#                 Cambridge Crystallographic Data Centre
#                                CCDC 
#
#######################################################################
#
# If this CIF has been generated from an entry in the Cambridge 
# Structural Database, then it will include bibliographic, chemical, 
# crystal, experimental, refinement or atomic coordinate data resulting 
# from the CCDC's data processing and validation procedures.
#
#######################################################################

data_VANZIV
_symmetry_cell_setting           monoclinic
_symmetry_space_group_name_H-M   'P 21/c'
_symmetry_Int_Tables_number      14
_space_group_name_Hall           '-P 2ybc'
loop_
_symmetry_equiv_pos_site_id
_symmetry_equiv_pos_as_xyz
1 x,y,z
2 -x,1/2+y,1/2-z
3 -x,-y,-z
4 x,1/2-y,1/2+z
_cell_length_a                   10.7480(10)
_cell_length_b                   26.287(3)
_cell_length_c                   12.9290(13)
_cell_angle_alpha                90
_cell_angle_beta                 107.837(15)
_cell_angle_gamma                90
_cell_volume                     3477.28
loop_
_atom_site_label
_atom_site_type_symbol
_atom_site_fract_x
_atom_site_fract_y
_atom_site_fract_z
Fe1 Fe 0.55679(4) 0.170241(18) 0.03968(4)
C1 C 0.7380(3) 0.16507(12) 0.0389(3)
C2 C 0.6126(4) 0.12189(14) 0.1598(3)
C3 C 0.3869(4) 0.16902(13) 0.0650(3)
C4 C 0.6719(3) 0.23670(15) 0.2300(3)
H1 H 0.6883 0.2071 0.2713
C5 C 0.7140(4) 0.28236(15) 0.2794(3)
H2 H 0.7608 0.2831 0.3529
C6 C 0.6874(4) 0.32784(14) 0.2204(3)
C7 C 0.7277(4) 0.37576(17) 0.2667(4)
H3 H 0.7769 0.3778 0.3396
C8 C 0.6960(5) 0.41959(18) 0.2067(4)
H4 H 0.7225 0.4510 0.2393
C9 C 0.6226(5) 0.41709(19) 0.0946(4)
H5 H 0.5996 0.4469 0.0545
C10 C 0.5858(5) 0.37084(16) 0.0456(4)
H6 H 0.5408 0.3693 -0.0283
C11 C 0.6165(4) 0.32514(14) 0.1076(3)
C12 C 0.5800(3) 0.27613(14) 0.0623(3)
C13 C 0.5094(3) 0.26713(14) -0.0558(3)
C14 C 0.4301(3) 0.19535(13) -0.1769(3)
C15 C 0.3687(3) 0.21979(15) -0.2737(3)
H7 H 0.3647 0.2551 -0.2768
C16 C 0.3112(4) 0.18985(18) -0.3696(4)
H8 H 0.2723 0.2065 -0.4350
C17 C 0.3114(4) 0.13733(16) -0.3684(3)
H9 H 0.2705 0.1190 -0.4312
C18 C 0.3751(3) 0.11182(15) -0.2697(3)
C19 C 0.3878(4) 0.05823(14) -0.2594(3)
H10 H 0.3522 0.0375 -0.3194
C20 C 0.4525(4) 0.03715(15) -0.1610(3)
H11 H 0.4624 0.0020 -0.1542
C21 C 0.5040(4) 0.06843(14) -0.0703(3)
H12 H 0.5462 0.0535 -0.0036
N1 N 0.8472(3) 0.16228(11) 0.0442(3)
N2 N 0.6484(4) 0.09283(13) 0.2290(3)
N3 N 0.6067(3) 0.23383(12) 0.1221(3)
N4 N 0.4961(3) 0.21614(11) -0.0761(2)
N5 N 0.4946(3) 0.11906(11) -0.0765(2)
O1 O 0.4681(3) 0.30152(11) -0.1249(2)
Mn1 Mn 1.06539(5) 0.16580(2) 0.05294(4)
C22 C 0.4318(3) 0.14094(13) -0.1749(3)
C23 C 0.9908(3) 0.27117(13) 0.0099(3)
C24 C 0.9344(3) 0.30855(14) -0.0677(3)
H13 H 0.9227 0.3020 -0.1407
C25 C 0.8957(4) 0.35502(15) -0.0373(3)
H14 H 0.8569 0.3790 -0.0901
C26 C 0.9144(4) 0.36614(15) 0.0724(3)
H15 H 0.8900 0.3977 0.0924
C27 C 0.9693(4) 0.33020(14) 0.1501(3)
H16 H 0.9812 0.3375 0.2229
C28 C 1.0075(3) 0.28260(14) 0.1211(3)
C29 C 1.0642(3) 0.24736(14) 0.2081(3)
H17 H 1.0780 0.2588 0.2788
C30 C 1.1567(4) 0.16852(14) 0.2893(3)
H18 H 1.1405 0.1817 0.3541
H19 H 1.2503 0.1661 0.3027
C31 C 1.0928(4) 0.11673(16) 0.2598(3)
H20 H 1.1401 0.0911 0.3108
H21 H 1.0032 0.1176 0.2612
C32 C 1.1259(4) 0.06028(15) 0.1249(3)
H22 H 1.1456 0.0356 0.1791
C33 C 1.1302(3) 0.04546(13) 0.0192(3)
C34 C 1.1719(4) -0.00461(15) 0.0070(4)
H23 H 1.1991 -0.0256 0.0677
C35 C 1.1733(4) -0.02311(15) -0.0920(4)
H24 H 1.2013 -0.0561 -0.0984
C36 C 1.1323(4) 0.00822(15) -0.1815(3)
H25 H 1.1337 -0.0039 -0.2487
C37 C 1.0888(4) 0.05769(14) -0.1736(3)
H26 H 1.0602 0.0778 -0.2356
C38 C 1.0876(3) 0.07743(13) -0.0730(3)
O2 O 1.0308(2) 0.22806(9) -0.0240(2)
O3 O 1.0422(2) 0.12403(9) -0.0706(2)
N6 N 0.2833(3) 0.16865(11) 0.0748(3)
N7 N 1.0972(3) 0.20163(11) 0.1958(2)
N8 N 1.0970(3) 0.10509(12) 0.1503(2)
Mn1_2 Mn 0.06539(5) 0.16580(2) 0.05294(4)
N6_2 N 1.2833(3) 0.16865(11) 0.0748(3)
loop_
_geom_bond_atom_site_label_1
_geom_bond_atom_site_label_2
_geom_bond_site_symmetry_1
_geom_bond_site_symmetry_2
Fe1 C1 1_555 1_555
C1 N1 1_555 1_555
C2 Fe1 1_555 1_555
C3 Fe1 1_555 1_555
C4 H1 1_555 1_555
C5 C4 1_555 1_555
H2 C5 1_555 1_555
C6 C5 1_555 1_555
C7 C6 1_555 1_555
H3 C7 1_555 1_555
C8 C7 1_555 1_555
H4 C8 1_555 1_555
C9 C8 1_555 1_555
H5 C9 1_555 1_555
C10 C9 1_555 1_555
H6 C10 1_555 1_555
C11 C6 1_555 1_555
C12 C11 1_555 1_555
C13 C12 1_555 1_555
C14 C15 1_555 1_555
C15 H7 1_555 1_555
C16 C15 1_555 1_555
H8 C16 1_555 1_555
C17 C16 1_555 1_555
H9 C17 1_555 1_555
C18 C17 1_555 1_555
C19 C18 1_555 1_555
H10 C19 1_555 1_555
C20 C19 1_555 1_555
H11 C20 1_555 1_555
C21 C20 1_555 1_555
H12 C21 1_555 1_555
N1 Mn1 1_555 1_555
N2 C2 1_555 1_555
N3 Fe1 1_555 1_555
N4 Fe1 1_555 1_555
N5 Fe1 1_555 1_555
O1 C13 1_555 1_555
Mn1 O2 1_555 1_555
C22 C14 1_555 1_555
C23 C24 1_555 1_555
C24 H13 1_555 1_555
C25 C24 1_555 1_555
H14 C25 1_555 1_555
C26 C25 1_555 1_555
H15 C26 1_555 1_555
C27 C26 1_555 1_555
H16 C27 1_555 1_555
C28 C23 1_555 1_555
C29 C28 1_555 1_555
H17 C29 1_555 1_555
C30 H18 1_555 1_555
H19 C30 1_555 1_555
C31 C30 1_555 1_555
H20 C31 1_555 1_555
H21 C31 1_555 1_555
C32 H22 1_555 1_555
C33 C32 1_555 1_555
C34 C33 1_555 1_555
H23 C34 1_555 1_555
C35 C34 1_555 1_555
H24 C35 1_555 1_555
C36 C35 1_555 1_555
H25 C36 1_555 1_555
C37 C36 1_555 1_555
H26 C37 1_555 1_555
C38 C33 1_555 1_555
O2 C23 1_555 1_555
O3 Mn1 1_555 1_555
N6 C3 1_555 1_555
N7 Mn1 1_555 1_555
N8 Mn1 1_555 1_555
Mn1_2 N6 1_555 1_555
N6_2 Mn1 1_555 1_555
C4 N3 1_555 1_555
C10 C11 1_555 1_555
C12 N3 1_555 1_555
C13 N4 1_555 1_555
C14 N4 1_555 1_555
C18 C22 1_555 1_555
C21 N5 1_555 1_555
N5 C22 1_555 1_555
C27 C28 1_555 1_555
C29 N7 1_555 1_555
C30 N7 1_555 1_555
C31 N8 1_555 1_555
C32 N8 1_555 1_555
C37 C38 1_555 1_555
C38 O3 1_555 1_555

#END
