
#######################################################################
#
#                 Cambridge Crystallographic Data Centre
#                                CCDC 
#
#######################################################################
#
# If this CIF has been generated from an entry in the Cambridge 
# Structural Database, then it will include bibliographic, chemical, 
# crystal, experimental, refinement or atomic coordinate data resulting 
# from the CCDC's data processing and validation procedures.
#
#######################################################################

data_VAPBAR
_symmetry_cell_setting           trigonal
_symmetry_space_group_name_H-M   'P 3 1 2'
_symmetry_Int_Tables_number      149
_space_group_name_Hall           "P 3 2'"
loop_
_symmetry_equiv_pos_site_id
_symmetry_equiv_pos_as_xyz
1 x,y,z
2 -y,x-y,z
3 -x+y,-x,z
4 -y,-x,-z
5 x,x-y,-z
6 -x+y,y,-z
_cell_length_a                   12.488(4)
_cell_length_b                   12.488(4)
_cell_length_c                   12.336(7)
_cell_angle_alpha                90
_cell_angle_beta                 90
_cell_angle_gamma                120
_cell_volume                     1666.06
loop_
_atom_site_label
_atom_site_type_symbol
_atom_site_fract_x
_atom_site_fract_y
_atom_site_fract_z
Eu1 Eu 0.0000 0.0000 0.0000
O1 O 0.1340(11) 0.1569(11) 0.1124(9)
O2 O 0.2415(12) 0.2883(12) 0.2394(11)
N1 N 0.3333 0.6667 0.319(2)
N2 N 0.0615(16) 0.3431(14) 0.2881(14)
H1 H 0.0872 0.3190 0.3476
C1 C 0.2445(14) 0.5369(12) 0.3467(13)
H2 H 0.2896 0.4936 0.3600
H3 H 0.2021 0.5350 0.4131
C2 C 0.1538(15) 0.4726(14) 0.2630(13)
H4 H 0.1968 0.4739 0.1971
H5 H 0.1106 0.5176 0.2487
C3 C -0.060(2) 0.332(2) 0.315(2)
H6 H -0.0856 0.3622 0.2526
H7 H -0.1204 0.2454 0.3231
C4 C -0.0671(15) 0.3976(17) 0.4111(15)
C5 C -0.0696(15) 0.5057(19) 0.3982(16)
H8 H -0.0715 0.5325 0.3283
C6 C -0.0696(17) 0.3567(17) 0.5184(16)
H9 H -0.0713 0.2825 0.5309
C7 C 0.1485(19) 0.2338(19) 0.1867(17)
C8 C 0.0446(16) 0.2575(16) 0.1986(14)
H10 H -0.0308 0.1796 0.2110
H11 H 0.0347 0.2919 0.1313
Eu1_2 Eu 0.0000 1.0000 1.0000
Eu1_3 Eu 0.0000 1.0000 0.0000
Eu1_4 Eu 1.0000 1.0000 1.0000
Eu1_5 Eu 0.0000 0.0000 1.0000
Eu1_6 Eu 1.0000 1.0000 0.0000
O1D O 0.1340(11) 0.9771(16) 0.8876(9)
O1B O 0.0229(16) 0.8660(11) 0.1124(9)
O1C O 0.8431(11) 0.8660(11) 0.8876(9)
O1E O 0.0229(16) 0.1569(11) 0.8876(9)
O1A O 0.8431(11) 0.9771(16) 0.1124(9)
O1A_2 O -0.1569(11) -0.0229(16) 0.1124(9)
O1B_2 O 0.0229(16) -0.1340(11) 0.1124(9)
O1C_2 O -0.1569(11) -0.1340(11) -0.1124(9)
O1D_2 O 0.1340(11) -0.0229(16) -0.1124(9)
O1E_2 O 0.0229(16) 0.1569(11) -0.1124(9)
O2D O 0.2415(12) 0.9532(17) 0.7606(11)
O2B O 0.0468(17) 0.7585(12) 0.2394(11)
O2C O 0.7117(12) 0.7585(12) 0.7606(11)
O2E O 0.0468(17) 0.2883(12) 0.7606(11)
O2A O 0.7117(12) 0.9532(17) 0.2394(11)
N1E N 0.3334 0.6667 0.681(2)
N2A N 0.6569(14) 0.7184(21) 0.2881(14)
N2E N 0.2816(21) 0.3431(14) 0.7119(14)
N2D N 0.0615(16) 0.7184(21) 0.7119(14)
N2C N 0.6569(14) 0.9385(16) 0.7119(14)
N2B N 0.2816(21) 0.9385(16) 0.2881(14)
H1A H 0.6810 0.7682 0.3476
H1E H 0.2318 0.3190 0.6524
H1D H 0.0872 0.7682 0.6524
H1C H 0.6810 0.9128 0.6524
H1B H 0.2318 0.9128 0.3476
C1A C 0.4631(12) 0.7076(18) 0.3467(13)
C1E C 0.2924(18) 0.5369(12) 0.6533(13)
C1D C 0.2445(14) 0.7076(18) 0.6533(13)
C1C C 0.4631(12) 0.7555(14) 0.6533(13)
C1B C 0.2924(18) 0.7555(14) 0.3467(13)
H2A H 0.5064 0.7960 0.3600
H2D H 0.2896 0.7960 0.6400
H2C H 0.5064 0.7104 0.6400
H2B H 0.2040 0.7104 0.3600
H2E H 0.2040 0.4936 0.6400
H3A H 0.4650 0.6671 0.4131
H3D H 0.2021 0.6671 0.5869
H3C H 0.4650 0.7979 0.5869
H3B H 0.3329 0.7979 0.4131
H3E H 0.3329 0.5350 0.5869
C2A C 0.5274(14) 0.6812(21) 0.2630(13)
C2E C 0.3188(21) 0.4726(14) 0.7370(13)
C2D C 0.1538(15) 0.6812(21) 0.7370(13)
C2C C 0.5274(14) 0.8462(15) 0.7370(13)
C2B C 0.3188(21) 0.8462(15) 0.2630(13)
H4D H 0.1968 0.7229 0.8029
H4B H 0.2771 0.8032 0.1971
H4C H 0.5261 0.8032 0.8029
H4E H 0.2771 0.4739 0.8029
H4A H 0.5261 0.7229 0.1971
H5D H 0.1106 0.5930 0.7513
H5B H 0.4070 0.8894 0.2487
H5C H 0.4824 0.8894 0.7513
H5E H 0.4070 0.5176 0.7513
H5A H 0.4824 0.5930 0.2487
C3A C 0.668(2) 0.608(3) 0.315(2)
C3E C 0.392(3) 0.332(2) 0.685(2)
C3D C -0.060(2) 0.608(3) 0.685(2)
C3C C 0.668(2) 1.060(2) 0.685(2)
C3B C 0.392(3) 1.060(2) 0.315(2)
H6A H 0.6378 0.5522 0.2526
H6D H -0.0856 0.5522 0.7474
H6C H 0.6378 1.0856 0.7474
H6B H 0.4478 1.0856 0.2526
H6E H 0.4478 0.3622 0.7474
H7A H 0.7546 0.6342 0.3231
H7D H -0.1204 0.6342 0.6769
H7C H 0.7546 1.1204 0.6769
H7B H 0.3658 1.1204 0.3231
H7E H 0.3658 0.2454 0.6769
C4A C 0.6024(17) 0.5353(23) 0.4111(15)
C4E C 0.4647(23) 0.3976(17) 0.5889(15)
C4D C -0.0671(15) 0.5353(23) 0.5889(15)
C4C C 0.6024(17) 1.0671(15) 0.5889(15)
C4B C 0.4647(23) 1.0671(15) 0.4111(15)
C5A C 0.4943(19) 0.4247(24) 0.3982(16)
C5D C -0.0696(15) 0.4247(24) 0.6018(16)
C5C C 0.4943(19) 1.0696(15) 0.6018(16)
C5B C 0.5753(24) 1.0696(15) 0.3982(16)
C5E C 0.5753(24) 0.5057(19) 0.6018(16)
H8A H 0.4675 0.3960 0.3283
H8D H -0.0715 0.3960 0.6717
H8C H 0.4675 1.0715 0.6717
H8B H 0.6040 1.0715 0.3283
H8E H 0.6040 0.5325 0.6717
C6E C 0.4263(24) 0.3567(17) 0.4816(16)
C6D C -0.0696(17) 0.5737(24) 0.4816(16)
C6B C 0.4263(24) 1.0696(17) 0.5184(16)
C6C C 0.6433(17) 1.0696(17) 0.4816(16)
C6A C 0.6433(17) 0.5737(24) 0.5184(16)
H9D H -0.0713 0.6462 0.4691
H9C H 0.7175 1.0713 0.4691
H9B H 0.3538 1.0713 0.5309
H9A H 0.7175 0.6462 0.5309
H9E H 0.3538 0.2825 0.4691
C7D C 0.1485(19) 0.9147(27) 0.8133(17)
C7B C 0.0853(27) 0.8515(19) 0.1867(17)
C7C C 0.7662(19) 0.8515(19) 0.8133(17)
C7E C 0.0853(27) 0.2338(19) 0.8133(17)
C7A C 0.7662(19) 0.9147(27) 0.1867(17)
C8D C 0.0446(16) 0.7871(23) 0.8014(14)
C8B C 0.2129(23) 0.9554(16) 0.1986(14)
C8C C 0.7425(16) 0.9554(16) 0.8014(14)
C8E C 0.2129(23) 0.2575(16) 0.8014(14)
C8A C 0.7425(16) 0.7871(23) 0.1986(14)
H10D H -0.0308 0.7896 0.7890
H10B H 0.2104 1.0308 0.2110
H10C H 0.8204 1.0308 0.7890
H10E H 0.2104 0.1796 0.7890
H10A H 0.8204 0.7896 0.2110
H11D H 0.0347 0.7428 0.8687
H11B H 0.2572 0.9653 0.1313
H11C H 0.7081 0.9653 0.8687
H11E H 0.2572 0.2919 0.8687
H11A H 0.7081 0.7428 0.1313
O3 O -0.062(6) 0.062(6) 0.5000
O4 O 0.1172(8) 0.2344(16) 0.5000
O5 O 0.014(4) 0.133(12) 0.349(3)
O6 O 0.6667 0.3333 0.172(5)
O7 O 0.442(4) 0.305(5) 0.096(4)
N3 N 0.3333 0.6667 0.0000
O8 O 0.2751(5) 0.5501(9) 0.0000
O8A O 0.4499(9) 0.7250(10) 0.0000
O8B O 0.2750(10) 0.7249(5) 0.0000
N4? N 0.043(4) 0.131(2) 0.459(2)
O9? O 0.075(7) 0.098(6) 0.375(6)
N5? N 0.011(2) 0.146(4) 0.4493(13)
O10? O -0.0890(16) 0.0890(16) 0.5000
O11? O 0.1082(13) 0.216(3) 0.5000
O12? O 0.146(2) 0.291(5) 0.5000
loop_
_geom_bond_atom_site_label_1
_geom_bond_atom_site_label_2
_geom_bond_site_symmetry_1
_geom_bond_site_symmetry_2
Eu1 O1 1_555 1_555
O1 C7 1_555 1_555
O2 C7 1_555 1_555
N1 C1 1_555 1_555
N2 H1 1_555 1_555
C1 H2 1_555 1_555
H3 C1 1_555 1_555
C2 N2 1_555 1_555
H4 C2 1_555 1_555
H5 C2 1_555 1_555
C3 N2 1_555 1_555
H6 C3 1_555 1_555
H7 C3 1_555 1_555
C4 C3 1_555 1_555
C5 C4 1_555 1_555
H8 C5 1_555 1_555
C6 C4 1_555 1_555
H9 C6 1_555 1_555
C7 C8 1_555 1_555
C8 N2 1_555 1_555
H10 C8 1_555 1_555
H11 C8 1_555 1_555
N3 O8 1_555 1_555
Eu1_2 O1D 1_555 1_555
Eu1_3 O1B 1_555 1_555
Eu1_4 O1C 1_555 1_555
Eu1_5 O1E 1_555 1_555
Eu1_6 O1A 1_555 1_555
O1D C7D 1_555 1_555
O1B C7B 1_555 1_555
O1C C7C 1_555 1_555
O1E C7E 1_555 1_555
O1A C7A 1_555 1_555
O1A_2 Eu1 1_555 1_555
O1B_2 Eu1 1_555 1_555
O1C_2 Eu1 1_555 1_555
O1D_2 Eu1 1_555 1_555
O1E_2 Eu1 1_555 1_555
O2D C7D 1_555 1_555
O2B C7B 1_555 1_555
O2C C7C 1_555 1_555
O2E C7E 1_555 1_555
O2A C7A 1_555 1_555
N1E C1E 1_555 1_555
N2A H1A 1_555 1_555
N2E H1E 1_555 1_555
N2D H1D 1_555 1_555
N2C H1C 1_555 1_555
N2B H1B 1_555 1_555
C1A N1 1_555 1_555
C1E H2E 1_555 1_555
C1D N1E 1_555 1_555
C1C N1E 1_555 1_555
C1B N1 1_555 1_555
H2A C1A 1_555 1_555
H2D C1D 1_555 1_555
H2C C1C 1_555 1_555
H2B C1B 1_555 1_555
H3A C1A 1_555 1_555
H3D C1D 1_555 1_555
H3C C1C 1_555 1_555
H3B C1B 1_555 1_555
H3E C1E 1_555 1_555
C2A N2A 1_555 1_555
C2E N2E 1_555 1_555
C2D N2D 1_555 1_555
C2C N2C 1_555 1_555
C2B N2B 1_555 1_555
H4D C2D 1_555 1_555
H4B C2B 1_555 1_555
H4C C2C 1_555 1_555
H4E C2E 1_555 1_555
H4A C2A 1_555 1_555
H5D C2D 1_555 1_555
H5B C2B 1_555 1_555
H5C C2C 1_555 1_555
H5E C2E 1_555 1_555
H5A C2A 1_555 1_555
C3A N2A 1_555 1_555
C3E N2E 1_555 1_555
C3D N2D 1_555 1_555
C3C N2C 1_555 1_555
C3B N2B 1_555 1_555
H6A C3A 1_555 1_555
H6D C3D 1_555 1_555
H6C C3C 1_555 1_555
H6B C3B 1_555 1_555
H6E C3E 1_555 1_555
H7A C3A 1_555 1_555
H7D C3D 1_555 1_555
H7C C3C 1_555 1_555
H7B C3B 1_555 1_555
H7E C3E 1_555 1_555
C4A C3A 1_555 1_555
C4E C3E 1_555 1_555
C4D C3D 1_555 1_555
C4C C3C 1_555 1_555
C4B C3B 1_555 1_555
C5A C4A 1_555 1_555
C5D C6 1_555 1_555
C5C C4C 1_555 1_555
C5B C4B 1_555 1_555
C5E C4E 1_555 1_555
H8A C5A 1_555 1_555
H8D C5D 1_555 1_555
H8C C5C 1_555 1_555
H8B C5B 1_555 1_555
H8E C5E 1_555 1_555
C6E C4E 1_555 1_555
C6D C5 1_555 1_555
C6B C4B 1_555 1_555
C6C C4C 1_555 1_555
C6A C4A 1_555 1_555
H9D C6D 1_555 1_555
H9C C6C 1_555 1_555
H9B C6B 1_555 1_555
H9A C6A 1_555 1_555
H9E C6E 1_555 1_555
C7D C8D 1_555 1_555
C7B C8B 1_555 1_555
C7C C8C 1_555 1_555
C7E C8E 1_555 1_555
C7A C8A 1_555 1_555
C8D N2D 1_555 1_555
C8B N2B 1_555 1_555
C8C N2C 1_555 1_555
C8E N2E 1_555 1_555
C8A N2A 1_555 1_555
H10D C8D 1_555 1_555
H10B C8B 1_555 1_555
H10C C8C 1_555 1_555
H10E C8E 1_555 1_555
H10A C8A 1_555 1_555
H11D C8D 1_555 1_555
H11B C8B 1_555 1_555
H11C C8C 1_555 1_555
H11E C8E 1_555 1_555
H11A C8A 1_555 1_555
O8A N3 1_555 1_555
O8B N3 1_555 1_555
C1 C2 1_555 1_555
C1A C2A 1_555 1_555
C1E C2E 1_555 1_555
C1D C2D 1_555 1_555
C1C C2C 1_555 1_555
C1B C2B 1_555 1_555
C4D C5D 1_555 1_555
C4D C6D 1_555 1_555
C5A C6E 1_555 1_555
C5C C6B 1_555 1_555
C5B C6C 1_555 1_555
C5E C6A 1_555 1_555

#END
