
#######################################################################
#
#                 Cambridge Crystallographic Data Centre
#                                CCDC 
#
#######################################################################
#
# If this CIF has been generated from an entry in the Cambridge 
# Structural Database, then it will include bibliographic, chemical, 
# crystal, experimental, refinement or atomic coordinate data resulting 
# from the CCDC's data processing and validation procedures.
#
#######################################################################

data_VAPFID
_symmetry_cell_setting           monoclinic
_symmetry_space_group_name_H-M   'P 21/n'
_symmetry_Int_Tables_number      14
_space_group_name_Hall           '-P 2yn'
loop_
_symmetry_equiv_pos_site_id
_symmetry_equiv_pos_as_xyz
1 x,y,z
2 1/2-x,1/2+y,1/2-z
3 -x,-y,-z
4 1/2+x,1/2-y,1/2+z
_cell_length_a                   7.1293(19)
_cell_length_b                   17.848(4)
_cell_length_c                   16.168(4)
_cell_angle_alpha                90
_cell_angle_beta                 96.7810(14)
_cell_angle_gamma                90
_cell_volume                     2042.89
loop_
_atom_site_label
_atom_site_type_symbol
_atom_site_fract_x
_atom_site_fract_y
_atom_site_fract_z
Pt1 Pt 0.28707(3) 1.040891(10) 0.999085(13)
Ca1 Ca -0.19473(15) 0.57107(6) 0.94463(7)
O1 O 0.4312(5) 0.99942(19) 0.5821(2)
O2 O 0.2039(5) 0.91629(19) 0.5861(2)
O3 O -0.0406(5) 0.68258(19) 0.8826(2)
O4 O 0.0377(5) 0.66170(19) 1.0170(2)
O5 O -0.3290(5) 0.4484(2) 0.9358(2)
O6 O -0.4667(5) 0.6529(2) 0.9276(2)
O7 O -0.3237(6) 0.5621(2) 0.8004(2)
N1 N 0.2966(6) 1.0220(2) 0.8751(2)
N2 N 0.2102(6) 0.9302(2) 0.9914(2)
N3 N 0.3955(7) 1.2080(2) 0.9927(3)
N4 N 0.2492(7) 1.0568(2) 1.1866(3)
C1 C 0.3486(7) 1.0725(2) 0.8211(3)
C2 C 0.3568(7) 1.0560(2) 0.7390(3)
C3 C 0.3028(7) 0.9853(2) 0.7092(3)
C4 C 0.2450(7) 0.9324(2) 0.7658(3)
C5 C 0.2453(7) 0.9526(2) 0.8482(3)
C6 C 0.1947(7) 0.9005(2) 0.9130(3)
C7 C 0.1374(7) 0.8275(2) 0.8996(3)
C8 C 0.0986(7) 0.7833(2) 0.9656(3)
C9 C 0.1173(7) 0.8142(2) 1.0448(3)
C10 C 0.1725(7) 0.8871(2) 1.0549(3)
C11 C 0.3141(7) 0.9659(2) 0.6197(3)
C12 C 0.0278(7) 0.7029(2) 0.9539(3)
C13 C 0.3557(7) 1.1463(2) 0.9970(3)
C14 C 0.2664(7) 1.0520(2) 1.1175(3)
H1 H 0.1846 0.9081 1.1093
H2 H 0.0920 0.7851 1.0913
H3 H 0.1244 0.8074 0.8448
H4 H 0.2065 0.8835 0.7476
H5 H 0.3992 1.0925 0.7027
H6 H 0.3809 1.1217 0.8404
Ca1A Ca 0.69473(15) 1.07107(6) 0.55537(7)
Ca1C Ca 0.30527(15) 0.92893(6) 0.44463(7)
O1A O 0.0688(5) 0.49942(19) 0.9179(2)
O1C O -0.0688(5) 0.50058(19) 1.0821(2)
O2C O -0.2961(5) 0.58371(19) 1.0861(2)
O8 O 0.0316(11) 1.2038(3) 0.7380(3)
O9 O 0.3427(10) 1.1735(2) 0.3095(3)
loop_
_geom_bond_atom_site_label_1
_geom_bond_atom_site_label_2
_geom_bond_site_symmetry_1
_geom_bond_site_symmetry_2
Pt1 N1 1_555 1_555
Ca1 O3 1_555 1_555
O1 C11 1_555 1_555
O2 C11 1_555 1_555
O3 C12 1_555 1_555
O4 Ca1 1_555 1_555
O5 Ca1 1_555 1_555
O6 Ca1 1_555 1_555
O7 Ca1 1_555 1_555
N1 C1 1_555 1_555
N2 Pt1 1_555 1_555
N3 C13 1_555 1_555
N4 C14 1_555 1_555
C1 C2 1_555 1_555
C2 C3 1_555 1_555
C3 C4 1_555 1_555
C4 C5 1_555 1_555
C5 N1 1_555 1_555
C6 N2 1_555 1_555
C7 C6 1_555 1_555
C8 C7 1_555 1_555
C9 C8 1_555 1_555
C10 N2 1_555 1_555
C11 C3 1_555 1_555
C12 O4 1_555 1_555
C13 Pt1 1_555 1_555
C14 Pt1 1_555 1_555
H1 C10 1_555 1_555
H2 C9 1_555 1_555
H3 C7 1_555 1_555
H4 C4 1_555 1_555
H5 C2 1_555 1_555
H6 C1 1_555 1_555
Ca1A O1 1_555 1_555
Ca1C O1 1_555 1_555
O1A Ca1 1_555 1_555
O1C Ca1 1_555 1_555
O2C Ca1 1_555 1_555
O2 Ca1C 1_555 1_555
C5 C6 1_555 1_555
C8 C12 1_555 1_555
C9 C10 1_555 1_555

#END
