
#######################################################################
#
#                 Cambridge Crystallographic Data Centre
#                                CCDC 
#
#######################################################################
#
# If this CIF has been generated from an entry in the Cambridge 
# Structural Database, then it will include bibliographic, chemical, 
# crystal, experimental, refinement or atomic coordinate data resulting 
# from the CCDC's data processing and validation procedures.
#
#######################################################################

data_VAPJON
_symmetry_cell_setting           monoclinic
_symmetry_space_group_name_H-M   'P 21/c'
_symmetry_Int_Tables_number      14
_space_group_name_Hall           '-P 2ybc'
loop_
_symmetry_equiv_pos_site_id
_symmetry_equiv_pos_as_xyz
1 x,y,z
2 -x,1/2+y,1/2-z
3 -x,-y,-z
4 x,1/2-y,1/2+z
_cell_length_a                   16.2367(16)
_cell_length_b                   9.8276(8)
_cell_length_c                   13.3737(14)
_cell_angle_alpha                90
_cell_angle_beta                 95.9100(10)
_cell_angle_gamma                90
_cell_volume                     2122.67
loop_
_atom_site_label
_atom_site_type_symbol
_atom_site_fract_x
_atom_site_fract_y
_atom_site_fract_z
Sn1 Sn 0.54354(7) 0.94460(11) 0.23210(8)
Sn2 Sn 0.96996(7) 0.84830(12) 0.20668(9)
O1 O 0.8739(7) 0.7048(12) 0.1551(9)
O2 O 0.9320(8) 0.5343(13) 0.2383(11)
O3 O 0.6412(7) 0.8005(12) 0.2504(10)
O4 O 0.5582(9) 0.6331(13) 0.2796(10)
C1 C 0.5114(11) 0.9221(19) 0.3798(14)
H1 H 0.5598 0.9343 0.4266
H2 H 0.4891 0.8327 0.3879
H3 H 0.4707 0.9891 0.3924
C2 C 0.9488(11) 0.8397(18) 0.3590(16)
H4 H 0.9202 0.9204 0.3765
H5 H 1.0008 0.8334 0.4000
H6 H 0.9157 0.7613 0.3702
C3 C 0.8763(12) 0.583(2) 0.1880(16)
C4 C 0.4777(12) 0.8529(19) 0.1031(12)
H7 H 0.4662 0.9203 0.0516
H8 H 0.4266 0.8155 0.1210
H9 H 0.5107 0.7816 0.0786
C5 C 1.0682(12) 0.748(2) 0.1424(14)
H10 H 1.0459 0.6791 0.0969
H11 H 1.1050 0.7077 0.1948
H12 H 1.0981 0.8134 0.1065
C6 C 0.6256(14) 0.674(2) 0.2695(16)
C7 C 0.8016(12) 0.499(2) 0.1554(16)
H13 H 0.8045 0.4201 0.2001
C8 C 0.6294(12) 1.097(2) 0.2074(18)
H14 H 0.6213 1.1735 0.2498
H15 H 0.6218 1.1247 0.1383
H16 H 0.6845 1.0622 0.2229
C9 C 0.8049(13) 0.443(2) 0.0503(18)
H17 H 0.8007 0.5204 0.0048
H18 H 0.8598 0.4052 0.0480
C10 C 0.7256(12) 0.563(2) 0.1676(16)
H19 H 0.6831 0.5127 0.1272
H20 H 0.7278 0.6528 0.1370
C11 C 0.6961(12) 0.583(2) 0.2645(14)
H21 H 0.6729 0.4940 0.2784
C12 C 0.9101(14) 0.999(2) 0.1129(19)
H22 H 0.8716 1.0477 0.1493
H23 H 0.8809 0.9563 0.0550
H24 H 0.9505 1.0608 0.0916
C13 C 0.7523(12) 0.612(2) 0.3589(15)
H25 H 0.7979 0.5477 0.3609
H26 H 0.7755 0.7018 0.3521
C14 C 0.7187(14) 0.606(3) 0.4581(18)
H27 H 0.6726 0.6672 0.4581
H28 H 0.7611 0.6321 0.5100
H29 H 0.7008 0.5150 0.4704
C15 C 0.7463(16) 0.342(3) 0.008(2)
H30 H 0.7542 0.2589 0.0458
H31 H 0.7549 0.3254 -0.0607
H32 H 0.6909 0.3744 0.0117
Sn1A Sn 0.45646(7) 0.44460(11) 0.26790(8)
Sn2A Sn 1.03004(7) 0.34830(12) 0.29332(9)
O2A O 1.0680(8) 1.0343(13) 0.2617(11)
O4A O 0.4418(9) 1.1331(13) 0.2204(10)
loop_
_geom_bond_atom_site_label_1
_geom_bond_atom_site_label_2
_geom_bond_site_symmetry_1
_geom_bond_site_symmetry_2
Sn1 O3 1_555 1_555
Sn2 O1 1_555 1_555
O1 C3 1_555 1_555
O2 C3 1_555 1_555
O3 C6 1_555 1_555
O4 C6 1_555 1_555
C1 Sn1 1_555 1_555
H1 C1 1_555 1_555
H2 C1 1_555 1_555
H3 C1 1_555 1_555
C2 Sn2 1_555 1_555
H4 C2 1_555 1_555
H5 C2 1_555 1_555
H6 C2 1_555 1_555
C3 C7 1_555 1_555
C4 Sn1 1_555 1_555
H7 C4 1_555 1_555
H8 C4 1_555 1_555
H9 C4 1_555 1_555
C5 Sn2 1_555 1_555
H10 C5 1_555 1_555
H11 C5 1_555 1_555
H12 C5 1_555 1_555
C6 C11 1_555 1_555
C7 H13 1_555 1_555
C8 Sn1 1_555 1_555
H14 C8 1_555 1_555
H15 C8 1_555 1_555
H16 C8 1_555 1_555
C9 C7 1_555 1_555
H17 C9 1_555 1_555
H18 C9 1_555 1_555
C10 C7 1_555 1_555
H19 C10 1_555 1_555
H20 C10 1_555 1_555
C11 C10 1_555 1_555
H21 C11 1_555 1_555
C12 Sn2 1_555 1_555
H22 C12 1_555 1_555
H23 C12 1_555 1_555
H24 C12 1_555 1_555
C13 C11 1_555 1_555
H25 C13 1_555 1_555
H26 C13 1_555 1_555
C14 C13 1_555 1_555
H27 C14 1_555 1_555
H28 C14 1_555 1_555
H29 C14 1_555 1_555
C15 C9 1_555 1_555
H30 C15 1_555 1_555
H31 C15 1_555 1_555
H32 C15 1_555 1_555
Sn1A O4 1_555 1_555
Sn2A O2 1_555 1_555
O2A Sn2 1_555 1_555
O4A Sn1 1_555 1_555

#END
