
#######################################################################
#
#                 Cambridge Crystallographic Data Centre
#                                CCDC 
#
#######################################################################
#
# If this CIF has been generated from an entry in the Cambridge 
# Structural Database, then it will include bibliographic, chemical, 
# crystal, experimental, refinement or atomic coordinate data resulting 
# from the CCDC's data processing and validation procedures.
#
#######################################################################

data_VAPKEE
_symmetry_cell_setting           orthorhombic
_symmetry_space_group_name_H-M   'P 21 21 21'
_symmetry_Int_Tables_number      19
_space_group_name_Hall           'P 2ac 2ab'
loop_
_symmetry_equiv_pos_site_id
_symmetry_equiv_pos_as_xyz
1 x,y,z
2 1/2-x,-y,1/2+z
3 -x,1/2+y,1/2-z
4 1/2+x,1/2-y,-z
_cell_length_a                   10.7680(11)
_cell_length_b                   12.3510(16)
_cell_length_c                   34.287(3)
_cell_angle_alpha                90
_cell_angle_beta                 90
_cell_angle_gamma                90
_cell_volume                     4560.02
loop_
_atom_site_label
_atom_site_type_symbol
_atom_site_fract_x
_atom_site_fract_y
_atom_site_fract_z
O1 O 1.2848(11) 0.7098(12) 0.4400(3)
Sn1 Sn 0.94552(12) 0.77164(14) 0.51934(4)
Sn2 Sn 1.08777(11) 1.01127(14) 0.24789(4)
O2 O 1.1381(10) 0.7540(13) 0.4820(4)
O3 O 0.9151(13) 0.9816(14) 0.3766(4)
C1 C 1.070(2) 0.8098(15) 0.5652(6)
H1 H 1.0398 0.7780 0.5892
H2 H 1.1504 0.7776 0.5595
O4 O 1.0304(13) 0.9022(13) 0.2909(4)
C2 C 1.1220(16) 0.8036(15) 0.3845(4)
H3 H 1.1006 0.8734 0.3956
H4 H 1.2110 0.8029 0.3800
C3 C 1.0897(15) 0.7145(14) 0.4144(4)
H5 H 1.0038 0.7216 0.4225
H6 H 1.1004 0.6437 0.4026
C4 C 0.5983(18) 0.753(2) 0.3191(5)
H7 H 0.5851 0.6865 0.3073
O5 O 1.2196(14) 0.8766(14) 0.3110(4)
C5 C 1.122(2) 1.1604(19) 0.3167(6)
H8 H 1.0978 1.0950 0.3305
H9 H 1.0465 1.2004 0.3107
C6 C 0.895(2) 0.8928(13) 0.4790(5)
H10 H 0.9674 0.9113 0.4635
H11 H 0.8328 0.8636 0.4615
C7 C 1.056(2) 0.7910(17) 0.3457(5)
H12 H 1.073(18) 0.717(14) 0.337(4)
C8 C 0.714(2) 0.790(2) 0.3321(6)
N1 N 0.9259(15) 0.7977(16) 0.3513(4)
C9 C 0.918(2) 0.6071(12) 0.5091(5)
H13 H 0.8382 0.5972 0.4965
H14 H 0.9817 0.5816 0.4913
C10 C 0.727(2) 0.881(2) 0.3515(6)
C11 C 1.1745(16) 0.7260(19) 0.4492(4)
C12 C 0.865(2) 0.896(3) 0.3598(7)
C13 C 0.9118(14) 1.0690(18) 0.2337(8)
H15 H 0.8940 1.1285 0.2513
H16 H 0.9171 1.0994 0.2077
C14 C 1.187(2) 1.1298(17) 0.2790(5)
H17 H 1.2691 1.1028 0.2849
H18 H 1.1956 1.1938 0.2628
C15 C 1.1056(19) 0.865(2) 0.3143(5)
C16 C 0.844(2) 0.9955(15) 0.4975(5)
H19 H 0.8933 1.0120 0.5205
H20 H 0.7598 0.9823 0.5060
C17 C 0.922(3) 0.5382(13) 0.5463(6)
H21 H 0.8737 0.5720 0.5668
H22 H 1.0069 0.5300 0.5553
O6 O 0.8626(13) 0.6572(14) 0.3156(4)
C18 C 1.087(2) 0.9319(15) 0.5711(6)
H23 H 1.0119 0.9619 0.5824
H24 H 1.1004 0.9664 0.5461
C19 C 0.837(2) 0.750(3) 0.3306(7)
C20 C 0.6298(19) 0.954(2) 0.3572(5)
H25 H 0.6432 1.0212 0.3686
C21 C 0.511(2) 0.921(2) 0.3451(6)
H26 H 0.4427 0.9637 0.3512
C22 C 0.846(2) 1.0946(16) 0.4703(8)
H27 H 0.9050 1.1481 0.4793
H28 H 0.8676 1.0734 0.4439
C23 C 1.1714(17) 0.8937(18) 0.2139(7)
H29 H 1.1478 0.8238 0.2245
H30 H 1.1355 0.8985 0.1880
C24 C 1.204(2) 1.229(2) 0.3431(6)
H31 H 1.2437 1.2866 0.3283
H32 H 1.2682 1.1850 0.3551
C25 C 0.497(2) 0.836(2) 0.3264(6)
H33 H 0.4186 0.8219 0.3161
C26 C 1.352(2) 0.806(2) 0.1793(6)
H34 H 1.2860 0.7540 0.1752
H35 H 1.3708 0.8401 0.1544
C27 C 1.3098(17) 0.8934(19) 0.2092(8)
H36 H 1.3484 0.8790 0.2342
H37 H 1.3371 0.9642 0.2004
C28 C 0.713(2) 1.140(2) 0.4715(10)
H38 H 0.7063 1.1909 0.4927
H39 H 0.6552 1.0822 0.4754
H40 H 0.6951 1.1763 0.4474
C29 C 0.867(3) 0.4272(15) 0.5355(6)
H41 H 0.7933 0.4363 0.5194
H42 H 0.9267 0.3841 0.5213
C30 C 1.115(3) 1.277(3) 0.3745(7)
H43 H 1.0331 1.2829 0.3638
H44 H 1.1443 1.3468 0.3823
H45 H 1.1134 1.2294 0.3967
C31 C 0.833(3) 0.3722(19) 0.5737(7)
H46 H 0.8991 0.3254 0.5816
H47 H 0.7582 0.3304 0.5702
H48 H 0.8188 0.4261 0.5934
C32 C 0.8011(14) 0.9952(18) 0.2343(8)
H49 H 0.7735 0.9863 0.2610
H50 H 0.8256 0.9246 0.2246
C33 C 0.5768(17) 1.041(3) 0.2367(10)
H51 H 0.5791 1.1053 0.2523
H52 H 0.5785 0.9784 0.2535
H53 H 0.5021 1.0399 0.2215
C34 C 0.6908(18) 1.038(3) 0.2093(7)
H54 H 0.7088 1.1104 0.1995
H55 H 0.6756 0.9908 0.1873
C35 C 1.198(2) 0.956(2) 0.5982(7)
H56 H 1.1693 0.9612 0.6249
H57 H 1.2576 0.8974 0.5966
C36 C 1.468(2) 0.749(2) 0.1953(8)
H58 H 1.4431 0.6934 0.2131
H59 H 1.5190 0.8010 0.2086
H60 H 1.5135 0.7179 0.1741
C37 C 1.261(3) 1.062(2) 0.5866(8)
H61 H 1.3386 1.0468 0.5739
H62 H 1.2757 1.1051 0.6094
H63 H 1.2081 1.1014 0.5690
O1C O 0.7848(11) 0.7902(12) 0.5600(3)
Sn1C Sn 1.44552(12) 0.72836(14) 0.48066(4)
loop_
_geom_bond_atom_site_label_1
_geom_bond_atom_site_label_2
_geom_bond_site_symmetry_1
_geom_bond_site_symmetry_2
O1 C11 1_555 1_555
Sn1 O2 1_555 1_555
Sn2 O4 1_555 1_555
O2 C11 1_555 1_555
O3 C12 1_555 1_555
C1 Sn1 1_555 1_555
H1 C1 1_555 1_555
H2 C1 1_555 1_555
O4 C15 1_555 1_555
C2 H3 1_555 1_555
H4 C2 1_555 1_555
C3 C2 1_555 1_555
H5 C3 1_555 1_555
H6 C3 1_555 1_555
C4 H7 1_555 1_555
O5 C15 1_555 1_555
C5 H8 1_555 1_555
H9 C5 1_555 1_555
C6 Sn1 1_555 1_555
H10 C6 1_555 1_555
H11 C6 1_555 1_555
C7 C2 1_555 1_555
H12 C7 1_555 1_555
C8 C4 1_555 1_555
N1 C7 1_555 1_555
C9 Sn1 1_555 1_555
H13 C9 1_555 1_555
H14 C9 1_555 1_555
C10 C8 1_555 1_555
C11 C3 1_555 1_555
C12 N1 1_555 1_555
C13 Sn2 1_555 1_555
H15 C13 1_555 1_555
H16 C13 1_555 1_555
C14 Sn2 1_555 1_555
H17 C14 1_555 1_555
H18 C14 1_555 1_555
C15 C7 1_555 1_555
C16 C6 1_555 1_555
H19 C16 1_555 1_555
H20 C16 1_555 1_555
C17 C9 1_555 1_555
H21 C17 1_555 1_555
H22 C17 1_555 1_555
O6 C19 1_555 1_555
C18 C1 1_555 1_555
H23 C18 1_555 1_555
H24 C18 1_555 1_555
C19 C8 1_555 1_555
C20 C10 1_555 1_555
H25 C20 1_555 1_555
C21 C20 1_555 1_555
H26 C21 1_555 1_555
C22 C16 1_555 1_555
H27 C22 1_555 1_555
H28 C22 1_555 1_555
C23 Sn2 1_555 1_555
H29 C23 1_555 1_555
H30 C23 1_555 1_555
C24 C5 1_555 1_555
H31 C24 1_555 1_555
H32 C24 1_555 1_555
C25 C4 1_555 1_555
H33 C25 1_555 1_555
C26 H34 1_555 1_555
H35 C26 1_555 1_555
C27 C23 1_555 1_555
H36 C27 1_555 1_555
H37 C27 1_555 1_555
C28 C22 1_555 1_555
H38 C28 1_555 1_555
H39 C28 1_555 1_555
H40 C28 1_555 1_555
C29 C17 1_555 1_555
H41 C29 1_555 1_555
H42 C29 1_555 1_555
C30 C24 1_555 1_555
H43 C30 1_555 1_555
H44 C30 1_555 1_555
H45 C30 1_555 1_555
C31 C29 1_555 1_555
H46 C31 1_555 1_555
H47 C31 1_555 1_555
H48 C31 1_555 1_555
C32 C13 1_555 1_555
H49 C32 1_555 1_555
H50 C32 1_555 1_555
C33 H51 1_555 1_555
H52 C33 1_555 1_555
H53 C33 1_555 1_555
C34 C32 1_555 1_555
H54 C34 1_555 1_555
H55 C34 1_555 1_555
C35 C18 1_555 1_555
H56 C35 1_555 1_555
H57 C35 1_555 1_555
C36 C26 1_555 1_555
H58 C36 1_555 1_555
H59 C36 1_555 1_555
H60 C36 1_555 1_555
C37 C35 1_555 1_555
H61 C37 1_555 1_555
H62 C37 1_555 1_555
H63 C37 1_555 1_555
O1C Sn1 1_555 1_555
Sn1C O1 1_555 1_555
C5 C14 1_555 1_555
N1 C19 1_555 1_555
C10 C12 1_555 1_555
C21 C25 1_555 1_555
C26 C27 1_555 1_555
C33 C34 1_555 1_555

#END
