
#######################################################################
#
#                 Cambridge Crystallographic Data Centre
#                                CCDC 
#
#######################################################################
#
# If this CIF has been generated from an entry in the Cambridge 
# Structural Database, then it will include bibliographic, chemical, 
# crystal, experimental, refinement or atomic coordinate data resulting 
# from the CCDC's data processing and validation procedures.
#
#######################################################################

data_VAPKAA
_symmetry_cell_setting           monoclinic
_symmetry_space_group_name_H-M   'P 21/n'
_symmetry_Int_Tables_number      14
_space_group_name_Hall           '-P 2yn'
loop_
_symmetry_equiv_pos_site_id
_symmetry_equiv_pos_as_xyz
1 x,y,z
2 1/2-x,1/2+y,1/2-z
3 -x,-y,-z
4 1/2+x,1/2-y,1/2+z
_cell_length_a                   10.2011(14)
_cell_length_b                   25.787(2)
_cell_length_c                   10.9084(17)
_cell_angle_alpha                90
_cell_angle_beta                 104.6990(10)
_cell_angle_gamma                90
_cell_volume                     2775.6
loop_
_atom_site_label
_atom_site_type_symbol
_atom_site_fract_x
_atom_site_fract_y
_atom_site_fract_z
Cl1 Cl 0.5872(4) 0.00599(17) 0.8322(5)
Cl2 Cl 0.7218(5) 0.10053(18) 0.8746(5)
C20 C 0.7027(15) 0.0454(4) 0.9285(10)
H28 H 0.6763 0.0499 1.0072
H29 H 0.7898 0.0280 0.9487
O1 O -0.0480(4) 0.16561(18) 0.2120(5)
O2 O -0.0220(4) 0.11211(18) 0.3773(5)
C1 C 0.0209(6) 0.1361(3) 0.2933(7)
Sn1 Sn 0.78008(5) 0.12839(2) 0.41747(5)
Sn2 Sn 0.43244(5) 0.24847(2) 0.60540(5)
N1 N 0.1893(5) 0.1198(2) 0.1725(5)
O3 O 0.3863(4) 0.17066(17) 0.5274(4)
O4 O 0.3474(5) 0.1841(2) 0.1708(5)
C2 C 0.4620(7) 0.1418(3) 0.4798(6)
C3 C 0.2621(7) 0.1261(3) -0.0108(8)
O5 O 0.0371(5) 0.0528(2) 0.1120(5)
O6 O 0.5828(4) 0.15253(19) 0.4844(4)
C4 C 0.1721(6) 0.1287(3) 0.3004(6)
H1 H 0.2160 0.1619 0.3286
C5 C 0.2770(7) 0.1495(3) 0.1184(7)
C6 C 0.2457(6) 0.0883(3) 0.3942(6)
H2 H 0.2160 0.0541 0.3618
H3 H 0.2205 0.0928 0.4735
C7 C 0.1678(7) 0.0872(3) -0.0286(7)
C8 C 0.4016(6) 0.0912(3) 0.4204(6)
H4 H 0.4409 0.0629 0.4762
H5 H 0.4267 0.0864 0.3411
C9 C 0.5969(7) 0.2269(3) 0.7564(7)
H6 H 0.5822 0.2395 0.8347
H7 H 0.6789 0.2416 0.7437
H8 H 0.6045 0.1898 0.7597
C10 C 0.6618(7) 0.1132(3) 0.2323(7)
H9 H 0.7186 0.1136 0.1744
H10 H 0.5930 0.1393 0.2081
H11 H 0.6198 0.0798 0.2301
C11 C 0.1207(7) 0.0823(3) 0.0898(7)
C12 C 0.2315(6) 0.2514(3) 0.6266(7)
H12 H 0.1807 0.2226 0.5828
H13 H 0.1894 0.2832 0.5916
H14 H 0.2334 0.2496 0.7150
C13 C 0.8466(8) 0.2016(3) 0.4919(8)
H15 H 0.7761 0.2266 0.4623
H16 H 0.9255 0.2115 0.4647
H17 H 0.8688 0.2002 0.5828
C14 C 0.4730(7) 0.2818(3) 0.4420(6)
H18 H 0.4444 0.2585 0.3718
H19 H 0.5685 0.2882 0.4571
H20 H 0.4246 0.3139 0.4230
C15 C 0.3233(9) 0.1386(3) -0.1015(8)
H21 H 0.3879 0.1649 -0.0875
C16 C 0.8061(8) 0.0628(4) 0.5387(9)
H22 H 0.7682 0.0700 0.6090
H23 H 0.9009 0.0554 0.5694
H24 H 0.7608 0.0335 0.4924
C17 C 0.1310(9) 0.0592(3) -0.1405(8)
H25 H 0.0670 0.0328 -0.1527
C18 C 0.1963(11) 0.0733(4) -0.2341(8)
H26 H 0.1750 0.0555 -0.3108
C19 C 0.2910(11) 0.1125(4) -0.2163(10)
H27 H 0.3324 0.1213 -0.2802
O1C O 0.4520(4) 0.33439(18) 0.7120(5)
O2_2 O 0.9780(4) 0.11211(18) 0.3773(5)
Sn1_2 Sn -0.21992(5) 0.12839(2) 0.41747(5)
Sn2C Sn -0.06756(5) 0.25153(2) 0.10540(5)
loop_
_geom_bond_atom_site_label_1
_geom_bond_atom_site_label_2
_geom_bond_site_symmetry_1
_geom_bond_site_symmetry_2
Cl1 C20 1_555 1_555
O1 C1 1_555 1_555
O2 C1 1_555 1_555
C1 C4 1_555 1_555
Sn1 O6 1_555 1_555
Sn2 O3 1_555 1_555
N1 C4 1_555 1_555
O3 C2 1_555 1_555
O4 C5 1_555 1_555
C2 O6 1_555 1_555
C3 C5 1_555 1_555
O5 C11 1_555 1_555
C4 H1 1_555 1_555
C5 N1 1_555 1_555
C6 C4 1_555 1_555
H2 C6 1_555 1_555
H3 C6 1_555 1_555
C7 C3 1_555 1_555
C8 C2 1_555 1_555
H4 C8 1_555 1_555
H5 C8 1_555 1_555
C9 Sn2 1_555 1_555
H6 C9 1_555 1_555
H7 C9 1_555 1_555
H8 C9 1_555 1_555
C10 Sn1 1_555 1_555
H9 C10 1_555 1_555
H10 C10 1_555 1_555
H11 C10 1_555 1_555
C11 N1 1_555 1_555
C12 Sn2 1_555 1_555
H12 C12 1_555 1_555
H13 C12 1_555 1_555
H14 C12 1_555 1_555
C13 Sn1 1_555 1_555
H15 C13 1_555 1_555
H16 C13 1_555 1_555
H17 C13 1_555 1_555
C14 Sn2 1_555 1_555
H18 C14 1_555 1_555
H19 C14 1_555 1_555
H20 C14 1_555 1_555
C15 C3 1_555 1_555
H21 C15 1_555 1_555
C16 Sn1 1_555 1_555
H22 C16 1_555 1_555
H23 C16 1_555 1_555
H24 C16 1_555 1_555
Cl2 C20 1_555 1_555
C17 C7 1_555 1_555
H25 C17 1_555 1_555
C18 C17 1_555 1_555
H26 C18 1_555 1_555
C19 C15 1_555 1_555
H27 C19 1_555 1_555
C20 H28 1_555 1_555
H29 C20 1_555 1_555
O1C Sn2 1_555 1_555
O2_2 Sn1 1_555 1_555
Sn1_2 O2 1_555 1_555
Sn2C O1 1_555 1_555
C6 C8 1_555 1_555
C7 C11 1_555 1_555
C18 C19 1_555 1_555

#END
