
#######################################################################
#
#                 Cambridge Crystallographic Data Centre
#                                CCDC 
#
#######################################################################
#
# If this CIF has been generated from an entry in the Cambridge 
# Structural Database, then it will include bibliographic, chemical, 
# crystal, experimental, refinement or atomic coordinate data resulting 
# from the CCDC's data processing and validation procedures.
#
#######################################################################

data_VAPLED
_symmetry_cell_setting           orthorhombic
_symmetry_space_group_name_H-M   'I b a 2'
_symmetry_Int_Tables_number      45
_space_group_name_Hall           'I 2 -2c'
loop_
_symmetry_equiv_pos_site_id
_symmetry_equiv_pos_as_xyz
1 x,y,z
2 1/2+x,1/2+y,1/2+z
3 1/2-x,1/2+y,z
4 -x,y,1/2+z
5 1/2+x,1/2-y,z
6 x,-y,1/2+z
7 -x,-y,z
8 1/2-x,1/2-y,1/2+z
_cell_length_a                   19.274(3)
_cell_length_b                   21.054(7)
_cell_length_c                   12.956(4)
_cell_angle_alpha                90
_cell_angle_beta                 90
_cell_angle_gamma                90
_cell_volume                     5257.48
loop_
_atom_site_label
_atom_site_type_symbol
_atom_site_fract_x
_atom_site_fract_y
_atom_site_fract_z
O24 O 0.50000 0.50000 0.2888(11)
O25 O 0.4644(5) 0.1283(4) 0.3504(6)
O26 O 0.1668(5) 0.2795(4) 0.3880(6)
O27 O 0.3387(4) 0.0151(4) 0.4074(6)
O28 O 0.3364(6) 0.1989(5) 0.3757(7)
Cu1 Cu 0.00000 0.50000 0.08531(12)
Cu2 Cu 0.29992(6) 0.60846(5) 0.00000(10)
Cu3 Cu 0.31095(5) 0.60188(4) 0.23781(9)
Cu4 Cu -0.0115(4) 0.23806(4) 0.05111(9)
O1 O 0.0837(3) 0.2690(3) 0.0544(5)
O2 O 0.0533(3) 0.3077(3) 0.2076(6)
O3 O 0.0756(3) 0.4411(3) 0.0814(5)
O4 O 0.0922(3) 0.4580(3) 0.2479(6)
O5 O 0.2949(3) 0.5090(2) 0.2411(5)
O6 O 0.2091(3) 0.5315(3) 0.1323(6)
O7 O 0.3829(3) 0.4516(3) 0.0685(6)
O8 O 0.4107(3) 0.4021(3) 0.2130(5)
O9 O -0.1031(3) 0.2022(3) 0.0564(5)
O10 O 0.3663(4) 0.2339(3) 0.1839(6)
O11 O 0.2663(3) 0.6915(3) 0.0565(5)
O12 O 0.3058(3) 0.6954(3) 0.2186(5)
C1 C 0.1668(4) 0.3292(3) 0.1451(6)
C2 C 0.1736(4) 0.3945(4) 0.1562(6)
C3 C 0.2387(4) 0.4227(3) 0.1607(6)
C4 C 0.2974(4) 0.3845(4) 0.1470(6)
C5 C 0.2919(4) 0.3189(3) 0.1380(6)
C6 C 0.2265(4) 0.2909(3) 0.1388(6)
C7 C 0.0950(4) 0.3000(3) 0.1370(6)
C8 C 0.1092(4) 0.4348(3) 0.1668(7)
C9 C 0.2469(4) 0.4933(3) 0.1773(6)
C10 C 0.3696(4) 0.4156(4) 0.1425(7)
C11 C 0.3559(4) 0.2794(3) 0.1275(7)
C12 C 0.2179(4) 0.2195(3) 0.1369(6)
O13 O 0.0675(3) 0.5729(3) 0.1159(7)
O14 O 0.00000 0.50000 -0.0815(7)
O15 O 0.3651(4) 0.6589(3) -0.1130(6)
O16 O 0.3270(5) 0.5272(3) -0.0620(6)
O17 O 0.2196(4) 0.6047(4) -0.0896(7)
O18 O 0.3642(3) 0.5955(3) 0.1152(5)
O19 O 0.4099(4) 0.5991(4) 0.3533(6)
O20 O 0.2557(4) 0.6094(3) 0.3654(5)
O21 O -0.0468(3) 0.3191(3) -0.0094(6)
O22 O 0.0199(3) 0.1638(3) 0.1315(8)
O23 O -0.0026(5) 0.2057(3) -0.1246(6)
O3F O -0.0756(3) 0.5589(3) 0.0814(5)
O13F O -0.0675(3) 0.4271(3) 0.1159(7)
C11D C -0.1441(4) 0.2206(3) 0.1275(7)
C12B C 0.2821(4) 0.7195(3) 0.1369(6)
O9D O 0.3969(3) 0.2978(3) 0.0564(5)
O11B O 0.2337(3) 0.1915(3) 0.0565(5)
O12B O 0.1942(3) 0.1954(3) 0.2186(5)
C8F C -0.1092(4) 0.5652(3) 0.1668(7)
O10D O -0.1337(4) 0.2661(3) 0.1839(6)
C5D C -0.2081(4) 0.1811(3) 0.1380(6)
C6B C 0.2735(4) 0.7909(3) 0.1388(6)
Cu4D Cu 0.4885(4) 0.26194(4) 0.05111(9)
Cu2B Cu 0.20008(6) 0.10846(5) 0.00000(10)
Cu3B Cu 0.18905(5) 0.10188(4) 0.23781(9)
O4F O -0.0922(3) 0.5420(3) 0.2479(6)
C2F C -0.1736(4) 0.6055(4) 0.1562(6)
C4D C -0.2026(4) 0.1155(4) 0.1470(6)
C6D C -0.2735(4) 0.2091(3) 0.1388(6)
C1B C 0.3332(4) 0.8292(3) 0.1451(6)
C5B C 0.2081(4) 0.8189(3) 0.1380(6)
O1D O 0.5837(3) 0.2310(3) 0.0544(5)
O21D O 0.4532(3) 0.1809(3) -0.0094(6)
O22D O 0.5199(3) 0.3362(3) 0.1315(8)
O23D O 0.4974(5) 0.2943(3) -0.1246(6)
O15B O 0.1349(4) 0.1589(3) -0.1130(6)
O16B O 0.1730(5) 0.0272(3) -0.0620(6)
O17B O 0.2804(4) 0.1047(4) -0.0896(7)
O18B O 0.1358(3) 0.0955(3) 0.1152(5)
O5B O 0.2051(3) 0.0090(2) 0.2411(5)
O19B O 0.0901(4) 0.0991(4) 0.3533(6)
O20B O 0.2443(4) 0.1094(3) 0.3654(5)
C1F C -0.1668(4) 0.6708(3) 0.1451(6)
C3F C -0.2387(4) 0.5773(3) 0.1607(6)
C3D C -0.2613(4) 0.0773(3) 0.1607(6)
C10D C -0.1304(4) 0.0844(4) 0.1425(7)
C1D C -0.3332(4) 0.1708(3) 0.1451(6)
C12D C -0.2821(4) 0.2805(3) 0.1369(6)
C2B C 0.3264(4) 0.8945(4) 0.1562(6)
C7B C 0.4050(4) 0.8000(3) 0.1370(6)
C4B C 0.2026(4) 0.8845(4) 0.1470(6)
C11B C 0.1441(4) 0.7794(3) 0.1275(7)
C7D C 0.5950(4) 0.2000(3) 0.1370(6)
C9B C 0.2531(4) -0.0067(3) 0.1773(6)
C6F C -0.2265(4) 0.7091(3) 0.1388(6)
C7F C -0.0950(4) 0.7000(3) 0.1370(6)
C4F C -0.2974(4) 0.6155(4) 0.1470(6)
C9F C -0.2469(4) 0.5067(3) 0.1773(6)
C2D C -0.3264(4) 0.1055(4) 0.1562(6)
C9D C -0.2531(4) 0.0067(3) 0.1773(6)
O7D O -0.1171(3) 0.0484(3) 0.0685(6)
O8D O -0.0893(3) 0.0979(3) 0.2130(5)
C7D_2 C -0.4050(4) 0.2000(3) 0.1370(6)
O11F O -0.2663(3) 0.3085(3) 0.0565(5)
O12F O -0.3058(3) 0.3046(3) 0.2186(5)
C3B C 0.2613(4) 0.9227(3) 0.1607(6)
C8B C 0.3908(4) 0.9348(3) 0.1668(7)
O1B O 0.4163(3) 0.7690(3) 0.0544(5)
O2B O 0.4467(3) 0.8077(3) 0.2076(6)
C10B C 0.1304(4) 0.9156(4) 0.1425(7)
O9F O 0.1031(3) 0.7978(3) 0.0564(5)
O10B O 0.1337(4) 0.7339(3) 0.1839(6)
O2D O 0.5533(3) 0.1923(3) 0.2076(6)
C1D_2 C 0.6668(4) 0.1708(3) 0.1451(6)
O6B O 0.2909(3) 0.0315(3) 0.1323(6)
C3B_2 C 0.2613(4) -0.0773(3) 0.1607(6)
C5F C -0.2919(4) 0.6811(3) 0.1380(6)
C12F C -0.2179(4) 0.7805(3) 0.1369(6)
O1F O -0.0837(3) 0.7310(3) 0.0544(5)
O2F O -0.0533(3) 0.6923(3) 0.2076(6)
C10F C -0.3696(4) 0.5844(4) 0.1425(7)
O5F O -0.2949(3) 0.4910(2) 0.2411(5)
O6F O -0.2091(3) 0.4685(3) 0.1323(6)
C8D C -0.3908(4) 0.0652(3) 0.1668(7)
O5D O -0.2051(3) -0.0090(2) 0.2411(5)
O6D O -0.2909(3) -0.0315(3) 0.1323(6)
Cu2F Cu -0.29992(6) 0.39154(5) 0.00000(10)
Cu3F Cu -0.31095(5) 0.39812(4) 0.23781(9)
C9B_2 C 0.2531(4) 0.9933(3) 0.1773(6)
O3B O 0.4244(3) 0.9411(3) 0.0814(5)
O4B O 0.4078(3) 0.9580(3) 0.2479(6)
Cu4B Cu 0.5115(4) 0.73806(4) 0.05111(9)
O7B O 0.1171(3) 0.9516(3) 0.0685(6)
O8B O 0.0893(3) 0.9021(3) 0.2130(5)
Cu4F Cu 0.0115(4) 0.76194(4) 0.05111(9)
C11F C -0.3559(4) 0.7206(3) 0.1275(7)
O11D O -0.2337(3) 0.8085(3) 0.0565(5)
O12D O -0.1942(3) 0.8046(3) 0.2186(5)
O7F O -0.3829(3) 0.5484(3) 0.0685(6)
O8F O -0.4107(3) 0.5979(3) 0.2130(5)
O3D O -0.4244(3) 0.0589(3) 0.0814(5)
O4D O -0.4078(3) 0.0420(3) 0.2479(6)
Cu3D Cu -0.18905(5) -0.10188(4) 0.23781(9)
O15F O -0.3651(4) 0.3411(3) -0.1130(6)
O16F O -0.3270(5) 0.4728(3) -0.0620(6)
O17F O -0.2196(4) 0.3953(4) -0.0896(7)
O18F O -0.3642(3) 0.4045(3) 0.1152(5)
O19F O -0.4099(4) 0.4009(4) 0.3533(6)
O20F O -0.2557(4) 0.3906(3) 0.3654(5)
Cu1B Cu 0.50000 1.00000 0.08531(12)
O9B O 0.6031(3) 0.7022(3) 0.0564(5)
O21B O 0.5468(3) 0.8191(3) -0.0094(6)
O22B O 0.4801(3) 0.6638(3) 0.1315(8)
O23B O 0.5026(5) 0.7057(3) -0.1246(6)
O21F O 0.0468(3) 0.6809(3) -0.0094(6)
O22F O -0.0199(3) 0.8362(3) 0.1315(8)
O23F O 0.0026(5) 0.7943(3) -0.1246(6)
O9B_2 O -0.3969(3) 0.7022(3) 0.0564(5)
O10F O -0.3663(4) 0.7661(3) 0.1839(6)
Cu2D Cu -0.20008(6) 0.89154(5) 0.00000(10)
Cu3D_2 Cu -0.18905(5) 0.89812(4) 0.23781(9)
Cu1B_2 Cu -0.50000 0.00000 0.08531(12)
Cu2D_2 Cu -0.20008(6) -0.10846(5) 0.00000(10)
O12D_2 O -0.1942(3) -0.1954(3) 0.2186(5)
O18D O -0.1358(3) -0.0955(3) 0.1152(5)
O19D O -0.0901(4) -0.0991(4) 0.3533(6)
O20D O -0.2443(4) -0.1094(3) 0.3654(5)
O3D_2 O 0.5756(3) 1.0589(3) 0.0814(5)
O13B O 0.4325(3) 1.0729(3) 0.1159(7)
O13D O 0.5675(3) 0.9271(3) 0.1159(7)
O14B O 0.50000 1.00000 -0.0815(7)
C11F_2 C 0.6441(4) 0.7206(3) 0.1275(7)
O15D O -0.1349(4) 0.8411(3) -0.1130(6)
O16D O -0.1730(5) 0.9728(3) -0.0620(6)
O17D O -0.2804(4) 0.8953(4) -0.0896(7)
O18D_2 O -0.1358(3) 0.9045(3) 0.1152(5)
loop_
_geom_bond_atom_site_label_1
_geom_bond_atom_site_label_2
_geom_bond_site_symmetry_1
_geom_bond_site_symmetry_2
Cu1 O3 1_555 1_555
Cu2 Cu3 1_555 1_555
Cu3 O5 1_555 1_555
Cu4 O1 1_555 1_555
O1 C7 1_555 1_555
O2 C7 1_555 1_555
O3 C8 1_555 1_555
O4 C8 1_555 1_555
O5 C9 1_555 1_555
O6 C9 1_555 1_555
O7 C10 1_555 1_555
O8 C10 1_555 1_555
O9 Cu4 1_555 1_555
O10 C11 1_555 1_555
O11 Cu2 1_555 1_555
O12 Cu3 1_555 1_555
C1 C2 1_555 1_555
C2 C3 1_555 1_555
C3 C4 1_555 1_555
C4 C5 1_555 1_555
C5 C6 1_555 1_555
C6 C1 1_555 1_555
C7 C1 1_555 1_555
C8 C2 1_555 1_555
C9 C3 1_555 1_555
C10 C4 1_555 1_555
C11 C5 1_555 1_555
C12 C6 1_555 1_555
O13 Cu1 1_555 1_555
O14 Cu1 1_555 1_555
O15 Cu2 1_555 1_555
O16 Cu2 1_555 1_555
O17 Cu2 1_555 1_555
O18 Cu2 1_555 1_555
O19 Cu3 1_555 1_555
O20 Cu3 1_555 1_555
O21 Cu4 1_555 1_555
O22 Cu4 1_555 1_555
O23 Cu4 1_555 1_555
O3F Cu1 1_555 1_555
O13F Cu1 1_555 1_555
C11D O9 1_555 1_555
C12B O11 1_555 1_555
O9D C11 1_555 1_555
O11B C12 1_555 1_555
O12B C12 1_555 1_555
C8F O3F 1_555 1_555
O10D C11D 1_555 1_555
C5D C11D 1_555 1_555
C6B C12B 1_555 1_555
Cu4D O9D 1_555 1_555
Cu2B O11B 1_555 1_555
Cu3B O12B 1_555 1_555
O4F C8F 1_555 1_555
C2F C8F 1_555 1_555
C4D C5D 1_555 1_555
C6D C5D 1_555 1_555
C1B C6B 1_555 1_555
C5B C6B 1_555 1_555
O1D Cu4D 1_555 1_555
O21D Cu4D 1_555 1_555
O22D Cu4D 1_555 1_555
O23D Cu4D 1_555 1_555
O15B Cu2B 1_555 1_555
O16B Cu2B 1_555 1_555
O17B Cu2B 1_555 1_555
O18B Cu2B 1_555 1_555
O5B Cu3B 1_555 1_555
O19B Cu3B 1_555 1_555
O20B Cu3B 1_555 1_555
C1F C2F 1_555 1_555
C3F C2F 1_555 1_555
C3D C4D 1_555 1_555
C10D C4D 1_555 1_555
C1D C6D 1_555 1_555
C12D C6D 1_555 1_555
C2B C1B 1_555 1_555
C7B C1B 1_555 1_555
C4B C5B 1_555 1_555
C11B C5B 1_555 1_555
C7D O1D 1_555 1_555
C9B O5B 1_555 1_555
C6F C1F 1_555 1_555
C7F C1F 1_555 1_555
C4F C3F 1_555 1_555
C9F C3F 1_555 1_555
C2D C3D 1_555 1_555
C9D C3D 1_555 1_555
O7D C10D 1_555 1_555
O8D C10D 1_555 1_555
C7D_2 C1D 1_555 1_555
O11F C12D 1_555 1_555
O12F C12D 1_555 1_555
C3B C2B 1_555 1_555
C8B C2B 1_555 1_555
O1B C7B 1_555 1_555
O2B C7B 1_555 1_555
C10B C4B 1_555 1_555
O9F C11B 1_555 1_555
O10B C11B 1_555 1_555
O2D C7D 1_555 1_555
C1D_2 C7D 1_555 1_555
O6B C9B 1_555 1_555
C3B_2 C9B 1_555 1_555
C5F C6F 1_555 1_555
C12F C6F 1_555 1_555
O1F C7F 1_555 1_555
O2F C7F 1_555 1_555
C10F C4F 1_555 1_555
O5F C9F 1_555 1_555
O6F C9F 1_555 1_555
C8D C2D 1_555 1_555
O5D C9D 1_555 1_555
O6D C9D 1_555 1_555
Cu2F O11F 1_555 1_555
Cu3F O12F 1_555 1_555
C9B_2 C3B 1_555 1_555
O3B C8B 1_555 1_555
O4B C8B 1_555 1_555
Cu4B O1B 1_555 1_555
O7B C10B 1_555 1_555
O8B C10B 1_555 1_555
Cu4F O9F 1_555 1_555
C11F C5F 1_555 1_555
O11D C12F 1_555 1_555
O12D C12F 1_555 1_555
O7F C10F 1_555 1_555
O8F C10F 1_555 1_555
O3D C8D 1_555 1_555
O4D C8D 1_555 1_555
Cu3D O5D 1_555 1_555
O15F Cu2F 1_555 1_555
O16F Cu2F 1_555 1_555
O17F Cu2F 1_555 1_555
O18F Cu2F 1_555 1_555
O19F Cu3F 1_555 1_555
O20F Cu3F 1_555 1_555
Cu1B O3B 1_555 1_555
O9B Cu4B 1_555 1_555
O21B Cu4B 1_555 1_555
O22B Cu4B 1_555 1_555
O23B Cu4B 1_555 1_555
O21F Cu4F 1_555 1_555
O22F Cu4F 1_555 1_555
O23F Cu4F 1_555 1_555
O9B_2 C11F 1_555 1_555
O10F C11F 1_555 1_555
Cu2D O11D 1_555 1_555
Cu3D_2 O12D 1_555 1_555
Cu1B_2 O3D 1_555 1_555
Cu2D_2 Cu3D 1_555 1_555
O12D_2 Cu3D 1_555 1_555
O18D Cu3D 1_555 1_555
O19D Cu3D 1_555 1_555
O20D Cu3D 1_555 1_555
O3D_2 Cu1B 1_555 1_555
O13B Cu1B 1_555 1_555
O13D Cu1B 1_555 1_555
O14B Cu1B 1_555 1_555
C11F_2 O9B 1_555 1_555
O15D Cu2D 1_555 1_555
O16D Cu2D 1_555 1_555
O17D Cu2D 1_555 1_555
O18D_2 Cu2D 1_555 1_555
Cu3 O18 1_555 1_555
O12 C12B 1_555 1_555
Cu2B Cu3B 1_555 1_555
Cu3B O18B 1_555 1_555
C1D C2D 1_555 1_555
C4B C3B 1_555 1_555
C4F C5F 1_555 1_555
O1F Cu4F 1_555 1_555
O5F Cu3F 1_555 1_555
Cu2F Cu3F 1_555 1_555
Cu3F O18F 1_555 1_555
Cu2D Cu3D_2 1_555 1_555
Cu2D_2 O18D 1_555 1_555

#END
