
#######################################################################
#
#                 Cambridge Crystallographic Data Centre
#                                CCDC 
#
#######################################################################
#
# If this CIF has been generated from an entry in the Cambridge 
# Structural Database, then it will include bibliographic, chemical, 
# crystal, experimental, refinement or atomic coordinate data resulting 
# from the CCDC's data processing and validation procedures.
#
#######################################################################

data_VAQBIY02
_symmetry_cell_setting           triclinic
_symmetry_space_group_name_H-M   'P -1'
_symmetry_Int_Tables_number      2
_space_group_name_Hall           '-P 1'
loop_
_symmetry_equiv_pos_site_id
_symmetry_equiv_pos_as_xyz
1 x,y,z
2 -x,-y,-z
_cell_length_a                   9.003(2)
_cell_length_b                   11.302(2)
_cell_length_c                   16.425(3)
_cell_angle_alpha                74.81(3)
_cell_angle_beta                 83.22(3)
_cell_angle_gamma                70.89(3)
_cell_volume                     1523.05
loop_
_atom_site_label
_atom_site_type_symbol
_atom_site_fract_x
_atom_site_fract_y
_atom_site_fract_z
Zn1 Zn 0.68418(7) 0.77407(5) 0.70822(4)
Cl1 Cl 0.7732(2) 0.84787(13) 0.48203(9)
N1 N 0.6835(5) 0.5904(4) 0.7008(3)
N2 N 0.6882(5) -0.0382(4) 0.6992(3)
O1 O 0.7849(6) 0.7988(4) 0.5703(2)
O2 O 0.6183(7) 0.8762(6) 0.4591(5)
O3 O 0.8246(8) 0.9578(5) 0.4577(3)
O4 O 0.8686(7) 0.7518(6) 0.4427(3)
O9 O 0.4571(4) 0.8493(3) 0.6625(2)
O10 O 0.6177(5) 0.7393(3) 0.8359(2)
O11 O 0.9246(4) 0.7007(3) 0.7322(2)
C1 C 0.5745(6) 0.5391(5) 0.7441(3)
H1 H 0.4969(6) 0.5875(5) 0.7754(3)
C2 C 0.5728(6) 0.4179(5) 0.7439(3)
H2 H 0.4960(6) 0.3857(5) 0.7759(3)
C3 C 0.6827(6) 0.3439(4) 0.6973(3)
C4 C 0.7937(6) 0.3984(5) 0.6509(3)
H3 H 0.8709(6) 0.3530(5) 0.6178(3)
C5 C 0.7882(6) 0.5197(4) 0.6544(3)
H4 H 0.8625(6) 0.5548(4) 0.6221(3)
C6 C 0.6860(6) 0.2120(4) 0.6966(3)
C7 C 0.5684(7) 0.1614(5) 0.7382(4)
H5 H 0.4855(7) 0.2108(5) 0.7665(4)
C8 C 0.5745(7) 0.0397(5) 0.7376(4)
H6 H 0.4939(7) 0.0089(5) 0.7660(4)
C9 C 0.8005(6) 0.0111(5) 0.6583(3)
H7 H 0.8814(6) -0.0402(5) 0.6302(3)
C10 C 0.8030(6) 0.1328(5) 0.6555(3)
H8 H 0.8839(6) 0.1619(5) 0.6258(3)
N2_2 N 0.6882(5) 0.9618(4) 0.6992(3)
Zn1_2 Zn 0.68418(7) -0.22593(5) 0.70822(4)
Cl2 Cl 1.1527(3) 0.3922(2) 0.87903(13)
O5 O 1.1834(11) 0.5063(6) 0.8657(5)
O6 O 1.2623(9) 0.3000(6) 0.8515(6)
O7 O 1.1031(11) 0.3486(6) 0.9601(4)
O8 O 1.0184(12) 0.4238(8) 0.8327(6)
N3 N 1.8355(6) 0.3818(6) 0.3741(3)
C11 C 1.7882(8) 0.5025(7) 0.3827(4)
H9 H 1.8463(8) 0.5565(7) 0.3544(4)
C12 C 1.6598(7) 0.5521(6) 0.4306(4)
H10 H 1.6327(7) 0.6372(6) 0.4345(4)
C13 C 1.5700(6) 0.4749(5) 0.4732(3)
C14 C 1.6181(7) 0.3489(6) 0.4642(4)
H11 H 1.5616(7) 0.2931(6) 0.4913(4)
C15 C 1.7494(8) 0.3075(7) 0.4152(4)
H12 H 1.7801(8) 0.2226(7) 0.4104(4)
C13A C 1.4300(6) 0.5251(5) 0.5268(3)
C12A C 1.3402(7) 0.4479(6) 0.5694(4)
C11A C 1.2118(8) 0.4975(7) 0.6173(4)
N3A N 1.1645(6) 0.6182(6) 0.6259(3)
C15A C 1.2506(8) 0.6925(7) 0.5848(4)
C14A C 1.3819(7) 0.6511(6) 0.5358(4)
H11A H 1.4384(7) 0.7069(6) 0.5087(4)
H12A H 1.2199(8) 0.7774(7) 0.5896(4)
H9A H 1.1537(8) 0.4435(7) 0.6456(4)
H10A H 1.3673(7) 0.3628(6) 0.5655(4)
N4 N 1.1992(6) -0.0648(6) 0.7603(3)
N5 N 0.5881(6) 0.1360(5) 1.0553(3)
C16 C 1.1468(7) 0.0569(7) 0.7667(4)
H13 H 1.1944(7) 0.1149(7) 0.7324(4)
C17 C 1.0251(7) 0.1019(6) 0.8218(4)
H14 H 0.9942(7) 0.1876(6) 0.8250(4)
C18 C 0.9502(7) 0.0184(5) 0.8717(3)
C19 C 1.0032(8) -0.1073(6) 0.8626(4)
H15 H 0.9550(8) -0.1671(6) 0.8936(4)
C20 C 1.1277(8) -0.1435(7) 0.8072(4)
H16 H 1.1626(8) -0.2289(7) 0.8032(4)
C21 C 0.6484(10) 0.2183(7) 1.0014(5)
H17 H 0.6106(10) 0.3042(7) 1.0042(5)
C22 C 0.7646(9) 0.1855(7) 0.9405(5)
H18 H 0.8032(9) 0.2483(7) 0.9047(5)
C23 C 0.8226(7) 0.0602(6) 0.9332(3)
C24 C 0.7566(8) -0.0245(6) 0.9886(4)
H19 H 0.7892(8) -0.1107(6) 0.9865(4)
C25 C 0.6420(8) 0.0178(6) 1.0473(4)
H20 H 0.6003(8) -0.0425(6) 1.0838(4)
O12 O 0.7302(7) 0.5106(5) 0.9469(3)
loop_
_geom_bond_atom_site_label_1
_geom_bond_atom_site_label_2
_geom_bond_site_symmetry_1
_geom_bond_site_symmetry_2
Zn1 N1 1_555 1_555
Cl1 O1 1_555 1_555
Cl2 O5 1_555 1_555
N1 C1 1_555 1_555
N2 C8 1_555 1_555
N3 C11 1_555 1_555
N4 C16 1_555 1_555
N5 C21 1_555 1_555
O1 Zn1 1_555 1_555
O2 Cl1 1_555 1_555
O3 Cl1 1_555 1_555
O4 Cl1 1_555 1_555
O6 Cl2 1_555 1_555
O7 Cl2 1_555 1_555
O8 Cl2 1_555 1_555
O9 Zn1 1_555 1_555
O10 Zn1 1_555 1_555
O11 Zn1 1_555 1_555
C1 H1 1_555 1_555
C2 C1 1_555 1_555
H2 C2 1_555 1_555
C3 C2 1_555 1_555
C4 C3 1_555 1_555
H3 C4 1_555 1_555
C5 N1 1_555 1_555
H4 C5 1_555 1_555
C6 C3 1_555 1_555
C7 C6 1_555 1_555
H5 C7 1_555 1_555
C8 C7 1_555 1_555
H6 C8 1_555 1_555
C9 N2 1_555 1_555
H7 C9 1_555 1_555
C10 C6 1_555 1_555
H8 C10 1_555 1_555
C11 H9 1_555 1_555
C12 C11 1_555 1_555
H10 C12 1_555 1_555
C13 C12 1_555 1_555
C14 C13 1_555 1_555
H11 C14 1_555 1_555
C15 N3 1_555 1_555
H12 C15 1_555 1_555
C16 H13 1_555 1_555
C17 C16 1_555 1_555
H14 C17 1_555 1_555
C18 C17 1_555 1_555
C19 C18 1_555 1_555
H15 C19 1_555 1_555
C20 N4 1_555 1_555
H16 C20 1_555 1_555
C21 H17 1_555 1_555
C22 C21 1_555 1_555
H18 C22 1_555 1_555
C23 C18 1_555 1_555
C24 C23 1_555 1_555
H19 C24 1_555 1_555
C25 N5 1_555 1_555
H20 C25 1_555 1_555
C13A C13 1_555 1_555
C12A C13A 1_555 1_555
C11A C12A 1_555 1_555
N3A C11A 1_555 1_555
C15A N3A 1_555 1_555
C14A C13A 1_555 1_555
H11A C14A 1_555 1_555
H12A C15A 1_555 1_555
H9A C11A 1_555 1_555
H10A C12A 1_555 1_555
N2_2 Zn1 1_555 1_555
Zn1_2 N2 1_555 1_555
C4 C5 1_555 1_555
C9 C10 1_555 1_555
C14 C15 1_555 1_555
C19 C20 1_555 1_555
C22 C23 1_555 1_555
C24 C25 1_555 1_555
C15A C14A 1_555 1_555

#END
