
#######################################################################
#
#                 Cambridge Crystallographic Data Centre
#                                CCDC 
#
#######################################################################
#
# If this CIF has been generated from an entry in the Cambridge 
# Structural Database, then it will include bibliographic, chemical, 
# crystal, experimental, refinement or atomic coordinate data resulting 
# from the CCDC's data processing and validation procedures.
#
#######################################################################

data_VAQBIY01
_symmetry_cell_setting           triclinic
_symmetry_space_group_name_H-M   'P -1'
_symmetry_Int_Tables_number      2
_space_group_name_Hall           '-P 1'
loop_
_symmetry_equiv_pos_site_id
_symmetry_equiv_pos_as_xyz
1 x,y,z
2 -x,-y,-z
_cell_length_a                   9.0187(7)
_cell_length_b                   11.307(2)
_cell_length_c                   16.437(3)
_cell_angle_alpha                74.64(1)
_cell_angle_beta                 83.15(1)
_cell_angle_gamma                70.88(1)
_cell_volume                     1526.15
loop_
_atom_site_label
_atom_site_type_symbol
_atom_site_fract_x
_atom_site_fract_y
_atom_site_fract_z
Zn1 Zn 0.31510(5) 0.72626(4) 0.29131(3)
Cl2 Cl 0.22626(13) 0.65253(10) 0.51766(6)
O5 O 0.2131(5) 0.7012(3) 0.4296(2)
O6 O 0.1762(6) 0.5419(4) 0.5428(3)
O7 O 0.1303(5) 0.7493(4) 0.5566(3)
O8 O 0.3821(6) 0.6231(5) 0.5406(4)
O9 O 0.0763(3) 0.7986(2) 0.2676(2)
O10 O 0.5414(3) 0.6515(2) 0.3369(2)
O11 O 0.3817(4) 0.7595(3) 0.1652(2)
N1 N 0.3103(3) 0.5384(3) 0.3006(2)
N2 N 0.3160(4) -0.0902(3) 0.2990(2)
C1 C 0.4247(5) 0.4612(4) 0.2616(3)
C2 C 0.4318(5) 0.3388(4) 0.2608(3)
C3 C 0.3139(4) 0.2878(3) 0.3033(2)
C4 C 0.3161(4) 0.1564(3) 0.3025(2)
C5 C 0.4269(5) 0.0827(4) 0.2551(3)
C6 C 0.4241(5) -0.0385(4) 0.2554(3)
C7 C 0.2104(4) -0.0195(3) 0.3453(3)
C8 C 0.2056(4) 0.1018(3) 0.3488(2)
C9 C 0.1960(4) 0.3673(3) 0.3443(2)
C10 C 0.1980(4) 0.4894(3) 0.3421(2)
H1 H 0.4989 0.5027 0.2320
H4 H 0.5102 0.3027 0.2228
H5 H 0.5174 0.1027 0.2284
H6 H 0.4977 -0.0776 0.2159
H7 H 0.1359 -0.0357 0.3709
H8 H 0.1288 0.1444 0.3825
H9 H 0.1235 0.3244 0.3829
H10 H 0.0458 0.8627 0.2294
H11 H -0.0088 0.8436 0.2986
H12 H 0.5674 0.6039 0.3772
H13 H 0.6339 0.6233 0.3031
H14 H 0.1235 0.5439 0.3665
H15 H 0.4439 0.7218 0.1284
H16 H 0.3281 0.8218 0.1277
N2_2 N 0.3160(4) 0.9098(3) 0.2990(2)
Zn1_2 Zn 0.31510(5) -0.27374(4) 0.29131(3)
Cl1 Cl 0.1533(2) 0.89174(13) 0.87980(10)
O1 O 0.1061(9) 0.8481(5) 0.9635(4)
O2 O 0.2637(8) 0.7985(5) 0.8516(5)
O3 O 0.1875(10) 1.0053(5) 0.8665(4)
O4 O 0.0155(9) 0.9263(7) 0.8338(5)
N3 N -0.2003(4) 0.5632(4) 1.2402(2)
N4 N 0.4112(5) 0.3631(4) 0.9457(2)
C11 C -0.1265(7) 0.6422(5) 1.1934(4)
C12 C -0.0027(7) 0.6076(5) 1.1373(3)
C13 C 0.0495(5) 0.4814(4) 1.1284(2)
C14 C 0.1775(5) 0.4394(4) 1.0664(2)
C15 C 0.2440(6) 0.5244(5) 1.0119(3)
C16 C 0.3580(6) 0.4822(5) 0.9532(3)
C17 C 0.3498(8) 0.2807(5) 1.0001(4)
C18 C 0.2361(8) 0.3126(5) 1.0601(4)
C19 C -0.0250(5) 0.3974(4) 1.1787(3)
C20 C -0.1477(6) 0.4424(5) 1.2336(3)
H17 H -0.1602 0.7421 1.1923
H18 H 0.0286 0.6818 1.0802
H19 H 0.2101 0.6200 1.0156
H20 H 0.3863 0.5582 0.9092
H21 H 0.3854 0.2000 0.9938
H22 H 0.1966 0.2419 1.1063
H23 H 0.0064 0.3020 1.1788
H24 H -0.1899 0.3824 1.2734
N5 N 0.1650(4) 0.1181(4) 0.6260(3)
C21 C 0.2509(6) 0.1920(5) 0.5853(3)
C22 C 0.3821(6) 0.1510(4) 0.5360(3)
C23 C 0.4293(4) 0.0249(4) 0.5263(2)
C24 C 0.3406(5) -0.0526(5) 0.5693(3)
C25 C 0.2113(6) -0.0026(5) 0.6183(3)
H25 H 0.2170 0.2774 0.5836
H26 H 0.4401 0.2155 0.5124
H27 H 0.3548 -0.1426 0.5557
H28 H 0.1597 -0.0825 0.6573
C23A C 0.5707(4) -0.0249(4) 0.4737(2)
C22A C 0.6179(6) -0.1510(4) 0.4640(3)
C21A C 0.7491(6) -0.1920(5) 0.4147(3)
N5A N 0.8350(4) -0.1181(4) 0.3740(3)
C25A C 0.7887(6) 0.0026(5) 0.3817(3)
C24A C 0.6594(5) 0.0526(5) 0.4307(3)
H27A H 0.6452 0.1426 0.4443
H28A H 0.8403 0.0825 0.3427
H25A H 0.7830 -0.2774 0.4164
H26A H 0.5599 -0.2155 0.4876
O12 O 0.2712(5) 0.9900(4) 0.0549(3)
H2 H 0.1677 1.0410 0.0452
H3 H 0.2471 0.9800 -0.0063
loop_
_geom_bond_atom_site_label_1
_geom_bond_atom_site_label_2
_geom_bond_site_symmetry_1
_geom_bond_site_symmetry_2
Zn1 O5 1_555 1_555
Cl1 O1 1_555 1_555
Cl2 O5 1_555 1_555
O2 Cl1 1_555 1_555
O3 Cl1 1_555 1_555
O4 Cl1 1_555 1_555
O6 Cl2 1_555 1_555
O7 Cl2 1_555 1_555
O8 Cl2 1_555 1_555
O9 Zn1 1_555 1_555
O10 Zn1 1_555 1_555
O11 Zn1 1_555 1_555
N1 Zn1 1_555 1_555
N2 C6 1_555 1_555
N3 C11 1_555 1_555
N4 C16 1_555 1_555
N5 C21 1_555 1_555
C1 N1 1_555 1_555
C2 C1 1_555 1_555
C3 C2 1_555 1_555
C4 C3 1_555 1_555
C5 C4 1_555 1_555
C6 C5 1_555 1_555
C7 N2 1_555 1_555
C8 C4 1_555 1_555
C9 C3 1_555 1_555
C10 N1 1_555 1_555
C11 C12 1_555 1_555
C12 C13 1_555 1_555
C13 C14 1_555 1_555
C14 C15 1_555 1_555
C15 C16 1_555 1_555
C16 H20 1_555 1_555
C17 N4 1_555 1_555
C18 C14 1_555 1_555
C19 C13 1_555 1_555
C20 N3 1_555 1_555
C21 C22 1_555 1_555
C22 C23 1_555 1_555
C23 C24 1_555 1_555
C24 C25 1_555 1_555
C25 N5 1_555 1_555
O12 H2 1_555 1_555
H1 C1 1_555 1_555
H3 O12 1_555 1_555
H4 C2 1_555 1_555
H5 C5 1_555 1_555
H6 C6 1_555 1_555
H7 C7 1_555 1_555
H8 C8 1_555 1_555
H9 C9 1_555 1_555
H10 O9 1_555 1_555
H11 O9 1_555 1_555
H12 O10 1_555 1_555
H13 O10 1_555 1_555
H14 C10 1_555 1_555
H15 O11 1_555 1_555
H16 O11 1_555 1_555
H17 C11 1_555 1_555
H18 C12 1_555 1_555
H19 C15 1_555 1_555
H21 C17 1_555 1_555
H22 C18 1_555 1_555
H23 C19 1_555 1_555
H24 C20 1_555 1_555
H25 C21 1_555 1_555
H26 C22 1_555 1_555
H27 C24 1_555 1_555
H28 C25 1_555 1_555
C23A C23 1_555 1_555
C22A C23A 1_555 1_555
C21A C22A 1_555 1_555
N5A C21A 1_555 1_555
C25A N5A 1_555 1_555
C24A C23A 1_555 1_555
H27A C24A 1_555 1_555
H28A C25A 1_555 1_555
H25A C21A 1_555 1_555
H26A C22A 1_555 1_555
N2_2 Zn1 1_555 1_555
Zn1_2 N2 1_555 1_555
C7 C8 1_555 1_555
C9 C10 1_555 1_555
C17 C18 1_555 1_555
C19 C20 1_555 1_555
C25A C24A 1_555 1_555

#END
