
#######################################################################
#
#                 Cambridge Crystallographic Data Centre
#                                CCDC 
#
#######################################################################
#
# If this CIF has been generated from an entry in the Cambridge 
# Structural Database, then it will include bibliographic, chemical, 
# crystal, experimental, refinement or atomic coordinate data resulting 
# from the CCDC's data processing and validation procedures.
#
#######################################################################

data_VAQBEU01
_symmetry_cell_setting           triclinic
_symmetry_space_group_name_H-M   'P -1'
_symmetry_Int_Tables_number      2
_space_group_name_Hall           '-P 1'
loop_
_symmetry_equiv_pos_site_id
_symmetry_equiv_pos_as_xyz
1 x,y,z
2 -x,-y,-z
_cell_length_a                   8.9590(17)
_cell_length_b                   10.846(2)
_cell_length_c                   11.433(2)
_cell_angle_alpha                64.290(2)
_cell_angle_beta                 71.747(2)
_cell_angle_gamma                66.848(2)
_cell_volume                     906.597
loop_
_atom_site_label
_atom_site_type_symbol
_atom_site_fract_x
_atom_site_fract_y
_atom_site_fract_z
Co1 Co 0.5000 0.0000 0.5000
O1 O 0.49177(16) 0.21628(12) 0.41627(11)
H1 H 0.432(2) 0.272(2) 0.4590(19)
H2 H 0.527(2) 0.269(2) 0.3396(16)
O3 O 0.75905(14) -0.06554(13) 0.46036(11)
H5 H 0.818(2) -0.0077(19) 0.4057(18)
H6 H 0.809(2) -0.1404(17) 0.4406(19)
N1 N 0.49875(15) -0.00436(13) 0.31409(11)
C1 C 0.5839(2) 0.06703(17) 0.20323(14)
H7 H 0.6438 0.1163 0.2098
C2 C 0.5878(2) 0.07151(17) 0.07951(14)
H8 H 0.6488 0.1230 0.0057
C3 C 0.49982(17) -0.00143(15) 0.06583(13)
C4 C 0.41216(18) -0.07678(16) 0.18123(14)
H9 H 0.3528 -0.1284 0.1777
C5 C 0.41367(19) -0.07458(16) 0.30132(14)
H10 H 0.3527 -0.1242 0.3767
Co1_2 Co 0.5000 0.0000 -0.5000
O1A O 0.50823(16) -0.21628(12) 0.58373(11)
H1A H 0.568(2) -0.272(2) 0.5410(19)
H2A H 0.473(2) -0.269(2) 0.6604(16)
O3A O 0.24095(14) 0.06554(13) 0.53964(11)
H5A H 0.182(2) 0.0077(19) 0.5943(18)
H6A H 0.191(2) 0.1404(17) 0.5594(19)
N1A N 0.50125(15) 0.00436(13) -0.31409(11)
N1A_2 N 0.50125(15) 0.00436(13) 0.68591(11)
C1A C 0.4161(2) -0.06703(17) -0.20323(14)
H7A H 0.3562 -0.1163 -0.2098
C2A C 0.4122(2) -0.07151(17) -0.07951(14)
H8A H 0.3512 -0.1230 -0.0057
C3A C 0.50018(17) 0.00143(15) -0.06583(13)
C4A C 0.58784(18) 0.07678(16) -0.18123(14)
H9A H 0.6472 0.1284 -0.1777
C5A C 0.58633(19) 0.07458(16) -0.30132(14)
H10A H 0.6473 0.1242 -0.3767
Cl1 Cl 0.08313(6) 0.68822(5) 0.28417(4)
O4 O -0.0888(2) 0.76945(18) 0.28167(18)
O5 O 0.1008(2) 0.53921(16) 0.32135(15)
O6 O 0.1756(2) 0.73950(19) 0.15629(15)
O7 O 0.1383(3) 0.7065(2) 0.37918(17)
O2 O 0.31208(19) 0.40133(17) 0.54939(15)
H3 H 0.233(3) 0.366(2) 0.602(2)
H4 H 0.258(3) 0.4859(19) 0.499(2)
N2 N -0.05017(19) 0.09941(17) 0.28287(17)
N3 N 0.3813(2) 0.59027(15) -0.19049(14)
C6 C -0.0014(3) 0.1789(2) 0.3167(2)
H11 H -0.0296 0.1723 0.4043
C7 C 0.0890(3) 0.2709(2) 0.22857(18)
H12 H 0.1211 0.3231 0.2576
C8 C 0.13149(19) 0.28494(16) 0.09666(16)
C9 C 0.0826(2) 0.20049(19) 0.06118(19)
H13 H 0.1089 0.2049 -0.0257
C10 C -0.0056(2) 0.1098(2) 0.1566(2)
H14 H -0.0355 0.0530 0.1315
C11 C 0.3327(3) 0.5801(2) -0.06572(18)
H15 H 0.3518 0.6430 -0.0410
C12 C 0.2551(3) 0.4816(2) 0.03043(17)
H16 H 0.2253 0.4787 0.1170
C13 C 0.22204(19) 0.38758(16) -0.00284(15)
C14 C 0.2767(3) 0.3953(2) -0.13273(19)
H17 H 0.2608 0.3330 -0.1603
C15 C 0.3555(3) 0.4965(2) -0.22154(19)
H18 H 0.3924 0.4988 -0.3079
loop_
_geom_bond_atom_site_label_1
_geom_bond_atom_site_label_2
_geom_bond_site_symmetry_1
_geom_bond_site_symmetry_2
Co1 O1 1_555 1_555
Cl1 O4 1_555 1_555
O1 H1 1_555 1_555
H2 O1 1_555 1_555
O2 H3 1_555 1_555
H4 O2 1_555 1_555
O3 Co1 1_555 1_555
H5 O3 1_555 1_555
H6 O3 1_555 1_555
O5 Cl1 1_555 1_555
O6 Cl1 1_555 1_555
O7 Cl1 1_555 1_555
N1 Co1 1_555 1_555
N2 C6 1_555 1_555
N3 C11 1_555 1_555
C1 N1 1_555 1_555
H7 C1 1_555 1_555
C2 C1 1_555 1_555
H8 C2 1_555 1_555
C3 C2 1_555 1_555
C4 C3 1_555 1_555
H9 C4 1_555 1_555
C5 N1 1_555 1_555
H10 C5 1_555 1_555
C6 H11 1_555 1_555
C7 C6 1_555 1_555
H12 C7 1_555 1_555
C8 C7 1_555 1_555
C9 C8 1_555 1_555
H13 C9 1_555 1_555
C10 N2 1_555 1_555
H14 C10 1_555 1_555
C11 H15 1_555 1_555
C12 C11 1_555 1_555
H16 C12 1_555 1_555
C13 C8 1_555 1_555
C14 C13 1_555 1_555
H17 C14 1_555 1_555
C15 N3 1_555 1_555
H18 C15 1_555 1_555
Co1_2 N1A 1_555 1_555
O1A Co1 1_555 1_555
H1A O1A 1_555 1_555
H2A O1A 1_555 1_555
O3A Co1 1_555 1_555
H5A O3A 1_555 1_555
H6A O3A 1_555 1_555
N1A C1A 1_555 1_555
N1A_2 Co1 1_555 1_555
C1A H7A 1_555 1_555
C2A C1A 1_555 1_555
H8A C2A 1_555 1_555
C3A C3 1_555 1_555
C4A C3A 1_555 1_555
H9A C4A 1_555 1_555
C5A N1A 1_555 1_555
H10A C5A 1_555 1_555
C4 C5 1_555 1_555
C9 C10 1_555 1_555
C12 C13 1_555 1_555
C14 C15 1_555 1_555
C2A C3A 1_555 1_555
C4A C5A 1_555 1_555

#END
