
#######################################################################
#
#                 Cambridge Crystallographic Data Centre
#                                CCDC 
#
#######################################################################
#
# If this CIF has been generated from an entry in the Cambridge 
# Structural Database, then it will include bibliographic, chemical, 
# crystal, experimental, refinement or atomic coordinate data resulting 
# from the CCDC's data processing and validation procedures.
#
#######################################################################

data_VAQDUM01
_symmetry_cell_setting           monoclinic
_symmetry_space_group_name_H-M   'C 2/c'
_symmetry_Int_Tables_number      15
_space_group_name_Hall           '-C 2yn'
loop_
_symmetry_equiv_pos_site_id
_symmetry_equiv_pos_as_xyz
1 x,y,z
2 1/2+x,1/2+y,z
3 x,-y,1/2+z
4 1/2+x,1/2-y,1/2+z
5 -x,-y,-z
6 1/2-x,1/2-y,-z
7 -x,y,1/2-z
8 1/2-x,1/2+y,1/2-z
_cell_length_a                   9.8631(4)
_cell_length_b                   17.0250(8)
_cell_length_c                   14.2098(6)
_cell_angle_alpha                90
_cell_angle_beta                 94.6340(10)
_cell_angle_gamma                90
_cell_volume                     2378.3
loop_
_atom_site_label
_atom_site_type_symbol
_atom_site_fract_x
_atom_site_fract_y
_atom_site_fract_z
Mn1 Mn 0.5000 0.48780(3) 0.2500
N1 N 0.0961(2) 0.10280(13) -0.1496(2)
C1 C 0.2085(4) 0.1391(2) -0.1694(2)
H1 H 0.2477(4) 0.1252(2) -0.2244(2)
C2 C 0.2710(4) 0.1966(2) -0.1129(2)
H2 H 0.3499(4) 0.2203(2) -0.1306(2)
C3 C 0.2180(3) 0.2191(2) -0.0311(2)
C4 C 0.1016(3) 0.1802(2) -0.0095(2)
H3 H 0.0615(3) 0.1924(2) 0.0456(2)
C5 C 0.0445(3) 0.1233(2) -0.0693(2)
H4 H -0.0338(3) 0.0981(2) -0.0529(2)
O1 O 0.6086(2) 0.58340(11) 0.32500(13)
C6 C 0.7097(3) 0.6190(2) 0.3014(2)
C7 C 0.7900(3) 0.6027(2) 0.2277(2)
H5 H 0.8621(3) 0.6360(2) 0.2178(2)
O2 O 0.6712(2) 0.49113(11) 0.16680(13)
C8 C 0.7665(3) 0.5390(2) 0.1687(2)
C9 C 0.2536(4) 0.6904(2) 0.1368(2)
F1 F 0.1371(3) 0.72432(14) 0.1536(2)
F2 F 0.2469(3) 0.67281(14) 0.04660(15)
F3 F 0.3467(3) 0.74573(12) 0.1508(2)
C10 C 0.1321(4) 0.5212(2) 0.4044(3)
F4 F 0.0500(3) 0.5810(2) 0.4191(2)
F5 F 0.1913(2) 0.5045(2) 0.4873(2)
F6 F 0.0560(3) 0.4626(2) 0.3775(2)
C3E C 0.2820(3) 0.2809(2) 0.0311(2)
C2E C 0.2290(4) 0.3034(2) 0.1129(2)
C1E C 0.2915(4) 0.3609(2) 0.1694(2)
N1E N 0.4039(2) 0.39720(13) 0.1496(2)
Mn1C Mn 0.0000 0.01220(3) -0.2500
N1C N 0.5961(2) 0.39720(13) 0.3504(2)
O1F O 0.3914(2) 0.58340(11) 0.17500(13)
C6F C 0.2903(3) 0.6190(2) 0.1986(2)
C7F C 0.2100(3) 0.6027(2) 0.2723(2)
H5F H 0.1379(3) 0.6360(2) 0.2822(2)
C8F C 0.2335(3) 0.5390(2) 0.3313(2)
O2F O 0.3288(2) 0.49113(11) 0.33320(13)
C10F C 0.8679(4) 0.5212(2) 0.0956(3)
F4F F 0.9500(3) 0.5810(2) 0.0809(2)
F5F F 0.8087(2) 0.5045(2) 0.0127(2)
F6F F 0.9440(3) 0.4626(2) 0.1225(2)
C9F C 0.7464(4) 0.6904(2) 0.3632(2)
F1F F 0.8629(3) 0.72432(14) 0.3464(2)
F2F F 0.7531(3) 0.67281(14) 0.45340(15)
F3F F 0.6533(3) 0.74573(12) 0.3492(2)
C5E C 0.4555(3) 0.3767(2) 0.0693(2)
C4E C 0.3984(3) 0.3198(2) 0.0095(2)
H3E H 0.4385(3) 0.3076(2) -0.0456(2)
H4E H 0.5338(3) 0.4019(2) 0.0529(2)
H1E H 0.2523(4) 0.3748(2) 0.2244(2)
H2E H 0.1501(4) 0.2797(2) 0.1306(2)
loop_
_geom_bond_atom_site_label_1
_geom_bond_atom_site_label_2
_geom_bond_site_symmetry_1
_geom_bond_site_symmetry_2
Mn1 O1 1_555 1_555
N1 C1 1_555 1_555
C1 H1 1_555 1_555
C2 C1 1_555 1_555
H2 C2 1_555 1_555
C3 C2 1_555 1_555
C4 C3 1_555 1_555
H3 C4 1_555 1_555
C5 N1 1_555 1_555
H4 C5 1_555 1_555
O1 C6 1_555 1_555
C6 C7 1_555 1_555
C7 H5 1_555 1_555
O2 Mn1 1_555 1_555
C8 C7 1_555 1_555
C9 F1 1_555 1_555
F2 C9 1_555 1_555
F3 C9 1_555 1_555
C10 F4 1_555 1_555
F5 C10 1_555 1_555
F6 C10 1_555 1_555
C3E C3 1_555 1_555
C2E C3E 1_555 1_555
C1E C2E 1_555 1_555
N1E Mn1 1_555 1_555
Mn1C N1 1_555 1_555
N1C Mn1 1_555 1_555
O1F Mn1 1_555 1_555
C6F C9 1_555 1_555
C7F C6F 1_555 1_555
H5F C7F 1_555 1_555
C8F C10 1_555 1_555
O2F Mn1 1_555 1_555
C10F C8 1_555 1_555
F4F C10F 1_555 1_555
F5F C10F 1_555 1_555
F6F C10F 1_555 1_555
C9F C6 1_555 1_555
F1F C9F 1_555 1_555
F2F C9F 1_555 1_555
F3F C9F 1_555 1_555
C5E N1E 1_555 1_555
C4E C3E 1_555 1_555
H3E C4E 1_555 1_555
H4E C5E 1_555 1_555
H1E C1E 1_555 1_555
H2E C2E 1_555 1_555
C4 C5 1_555 1_555
O2 C8 1_555 1_555
C1E N1E 1_555 1_555
O1F C6F 1_555 1_555
C7F C8F 1_555 1_555
C8F O2F 1_555 1_555
C5E C4E 1_555 1_555

#END
