
#######################################################################
#
#                 Cambridge Crystallographic Data Centre
#                                CCDC 
#
#######################################################################
#
# If this CIF has been generated from an entry in the Cambridge 
# Structural Database, then it will include bibliographic, chemical, 
# crystal, experimental, refinement or atomic coordinate data resulting 
# from the CCDC's data processing and validation procedures.
#
#######################################################################

data_VAQDUM
_symmetry_cell_setting           monoclinic
_symmetry_space_group_name_H-M   'C 2/c'
_symmetry_Int_Tables_number      15
_space_group_name_Hall           '-C 2yn'
loop_
_symmetry_equiv_pos_site_id
_symmetry_equiv_pos_as_xyz
1 x,y,z
2 -x,y,1/2-z
3 1/2+x,1/2+y,z
4 1/2-x,1/2+y,1/2-z
5 -x,-y,-z
6 x,-y,1/2+z
7 1/2-x,1/2-y,-z
8 1/2+x,1/2-y,1/2+z
_cell_length_a                   9.852(2)
_cell_length_b                   17.026(3)
_cell_length_c                   14.208(3)
_cell_angle_alpha                90
_cell_angle_beta                 94.68(3)
_cell_angle_gamma                90
_cell_volume                     2375.31
loop_
_atom_site_label
_atom_site_type_symbol
_atom_site_fract_x
_atom_site_fract_y
_atom_site_fract_z
Mn1 Mn 0.5000 0.4878(1) -0.2500
O1 O 0.3291(4) 0.4912(2) -0.1670(3)
O2 O 0.3909(4) 0.5837(2) -0.3253(3)
C1 C 0.1310(7) 0.5211(5) -0.0961(5)
C2 C 0.2336(5) 0.5403(3) -0.1689(4)
C3 C 0.2096(6) 0.6031(4) -0.2275(4)
C4 C 0.2901(6) 0.6188(3) -0.3012(4)
C5 C 0.2526(8) 0.6900(4) -0.3639(5)
N1 N 0.4047(5) 0.3968(3) -0.3503(3)
C6 C 0.2929(8) 0.3622(4) -0.3303(5)
C7 C 0.2288(8) 0.3040(5) -0.3871(5)
C8 C 0.2829(6) 0.2814(3) -0.4689(4)
C9 C 0.3982(6) 0.3205(4) -0.4907(5)
C10 C 0.4553(6) 0.3770(4) -0.4300(5)
F1 F 0.0564(6) 0.4613(4) -0.1240(4)
F2 F 0.0509(5) 0.5823(4) -0.0808(4)
F3 F 0.1915(4) 0.5045(3) -0.0130(3)
F4 F 0.1368(5) 0.7238(3) -0.3465(4)
F5 F 0.3465(5) 0.7459(3) -0.3494(3)
F6 F 0.2461(6) 0.6725(3) -0.4538(3)
H1 H 0.1347 0.6374 -0.2178
H2 H 0.2532 0.3777 -0.2737
H3 H 0.1466 0.2797 -0.3697
H4 H 0.4386 0.3081 -0.5481
H5 H 0.5358 0.4038 -0.4464
C8F C 0.2171(6) 0.2186(3) -0.5311(4)
C7F C 0.2712(8) 0.1960(5) -0.6129(5)
C6F C 0.2071(8) 0.1378(4) -0.6697(5)
N1F N 0.0953(5) 0.1032(3) -0.6497(3)
C10F C 0.0447(6) 0.1230(4) -0.5700(5)
C9F C 0.1018(6) 0.1795(4) -0.5093(5)
H4F H 0.0614 0.1919 -0.4519
H5F H -0.0358 0.0962 -0.5536
H2F H 0.2468 0.1223 -0.7263
H3F H 0.3534 0.2203 -0.6303
O1A O 0.6709(4) 0.4912(2) -0.3330(3)
O2A O 0.6091(4) 0.5837(2) -0.1747(3)
C1A C 0.8690(7) 0.5211(5) -0.4039(5)
C2A C 0.7664(5) 0.5403(3) -0.3311(4)
C3A C 0.7904(6) 0.6031(4) -0.2725(4)
C4A C 0.7099(6) 0.6188(3) -0.1988(4)
C5A C 0.7474(8) 0.6900(4) -0.1361(5)
F1A F 0.9436(6) 0.4613(4) -0.3760(4)
F2A F 0.9491(5) 0.5823(4) -0.4192(4)
F3A F 0.8085(4) 0.5045(3) -0.4870(3)
F4A F 0.8632(5) 0.7238(3) -0.1535(4)
F5A F 0.6535(5) 0.7459(3) -0.1506(3)
F6A F 0.7539(6) 0.6725(3) -0.0462(3)
H1A H 0.8653 0.6374 -0.2822
N1A N 0.5953(5) 0.3968(3) -0.1497(3)
Mn1F Mn 0.0000 0.0122(1) -0.7500
loop_
_geom_bond_atom_site_label_1
_geom_bond_atom_site_label_2
_geom_bond_site_symmetry_1
_geom_bond_site_symmetry_2
Mn1 O1 1_555 1_555
O1 C2 1_555 1_555
O2 Mn1 1_555 1_555
C1 C2 1_555 1_555
C2 C3 1_555 1_555
C3 C4 1_555 1_555
C4 O2 1_555 1_555
C5 C4 1_555 1_555
N1 Mn1 1_555 1_555
C6 N1 1_555 1_555
C7 C6 1_555 1_555
C8 C7 1_555 1_555
C9 C8 1_555 1_555
C10 N1 1_555 1_555
F1 C1 1_555 1_555
F2 C1 1_555 1_555
F3 C1 1_555 1_555
F4 C5 1_555 1_555
F5 C5 1_555 1_555
F6 C5 1_555 1_555
H1 C3 1_555 1_555
H2 C6 1_555 1_555
H3 C7 1_555 1_555
H4 C9 1_555 1_555
H5 C10 1_555 1_555
C8F C8 1_555 1_555
C7F C8F 1_555 1_555
C6F C7F 1_555 1_555
N1F C6F 1_555 1_555
C10F N1F 1_555 1_555
C9F C8F 1_555 1_555
H4F C9F 1_555 1_555
H5F C10F 1_555 1_555
H2F C6F 1_555 1_555
H3F C7F 1_555 1_555
O1A Mn1 1_555 1_555
O2A Mn1 1_555 1_555
C1A C2A 1_555 1_555
C2A O1A 1_555 1_555
C3A C2A 1_555 1_555
C4A O2A 1_555 1_555
C5A C4A 1_555 1_555
F1A C1A 1_555 1_555
F2A C1A 1_555 1_555
F3A C1A 1_555 1_555
F4A C5A 1_555 1_555
F5A C5A 1_555 1_555
F6A C5A 1_555 1_555
H1A C3A 1_555 1_555
N1A Mn1 1_555 1_555
Mn1F N1F 1_555 1_555
C9 C10 1_555 1_555
C10F C9F 1_555 1_555
C3A C4A 1_555 1_555

#END
