
#######################################################################
#
#                 Cambridge Crystallographic Data Centre
#                                CCDC 
#
#######################################################################
#
# If this CIF has been generated from an entry in the Cambridge 
# Structural Database, then it will include bibliographic, chemical, 
# crystal, experimental, refinement or atomic coordinate data resulting 
# from the CCDC's data processing and validation procedures.
#
#######################################################################

data_VAQDOH
_symmetry_cell_setting           triclinic
_symmetry_space_group_name_H-M   'P -1'
_symmetry_Int_Tables_number      2
_space_group_name_Hall           '-P 1'
loop_
_symmetry_equiv_pos_site_id
_symmetry_equiv_pos_as_xyz
1 x,y,z
2 -x,-y,-z
_cell_length_a                   11.147(4)
_cell_length_b                   20.679(7)
_cell_length_c                   10.151(3)
_cell_angle_alpha                97.62(3)
_cell_angle_beta                 90.49(4)
_cell_angle_gamma                94.42(3)
_cell_volume                     2311.92
loop_
_atom_site_label
_atom_site_type_symbol
_atom_site_fract_x
_atom_site_fract_y
_atom_site_fract_z
S1 S -0.18953(11) 0.26259(6) -0.42546(11)
Si1 Si -0.40994(12) 0.36331(6) -0.23843(13)
Li1 Li 0.0304(7) 0.2616(4) -0.4412(7)
N1 N -0.2174(3) 0.2123(2) -0.1926(4)
N2 N -0.2808(4) 0.2164(2) -0.0777(4)
N3 N -0.3493(3) 0.2650(2) -0.0816(4)
C1 C -0.2472(4) 0.2577(2) -0.2704(4)
C2 C -0.3311(4) 0.2923(2) -0.1973(4)
C3 C -0.5338(5) 0.3347(3) -0.3595(6)
H1 H -0.5921(15) 0.3053(13) -0.3202(13)
H2 H -0.5012(6) 0.3113(14) -0.4399(14)
H3 H -0.5736(19) 0.3725(3) -0.3825(25)
C4 C -0.4690(5) 0.4057(3) -0.0839(5)
H4 H -0.4029(7) 0.4186(13) -0.0192(12)
H5 H -0.5291(20) 0.3763(6) -0.0470(17)
H6 H -0.5065(25) 0.4448(9) -0.1033(7)
C5 C -0.3047(5) 0.4222(2) -0.3107(6)
H7 H -0.2643(20) 0.3993(4) -0.3865(19)
H8 H -0.2445(17) 0.4418(11) -0.2432(10)
H9 H -0.3495(6) 0.4567(8) -0.3407(27)
C6 C -0.1355(4) 0.1612(2) -0.2211(5)
H10 H -0.1112(4) 0.1464(2) -0.1366(5)
H11 H -0.0621(4) 0.1794(2) -0.2615(5)
C7 C -0.1901(4) 0.1029(2) -0.3138(5)
C8 C -0.3080(5) 0.0785(3) -0.2989(5)
H12 H -0.3555(5) 0.0988(3) -0.2303(5)
C9 C -0.3564(6) 0.0250(3) -0.3836(6)
H13 H -0.4371(6) 0.0085(3) -0.3727(6)
C10 C -0.2891(7) -0.0046(3) -0.4832(7)
H14 H -0.3227(7) -0.0415(3) -0.5412(7)
C11 C -0.1722(7) 0.0197(3) -0.4980(6)
H15 H -0.1249(7) -0.0008(3) -0.5664(6)
C12 C -0.1229(5) 0.0737(3) -0.4148(5)
H16 H -0.0428(5) 0.0906(3) -0.4273(5)
C13 C 0.0062(4) 0.3830(2) -0.5791(5)
H17 H -0.0517(4) 0.3973(2) -0.5098(5)
H18 H -0.0393(4) 0.3658(2) -0.6621(5)
C14 C 0.0932(5) 0.4388(3) -0.6016(7)
H19 H 0.0776(5) 0.4534(3) -0.6888(7)
H20 H 0.0879(5) 0.4763(3) -0.5308(7)
C15 C 0.2123(5) 0.4121(3) -0.5983(9)
H21 H 0.2560(5) 0.4183(3) -0.6807(9)
H22 H 0.2608(5) 0.4351(3) -0.5216(9)
C16 C 0.1937(5) 0.3435(3) -0.5867(7)
H23 H 0.2009(5) 0.3168(3) -0.6744(7)
H24 H 0.2538(5) 0.3308(3) -0.5245(7)
C17 C -0.0226(6) 0.1819(4) -0.6954(6)
H25 H -0.0477(6) 0.2251(4) -0.7118(6)
H26 H -0.0952(6) 0.1536(4) -0.6792(6)
C18 C 0.0423(7) 0.1519(4) -0.8097(6)
H27 H -0.0124(7) 0.1211(4) -0.8697(6)
H28 H 0.0794(7) 0.1857(4) -0.8605(6)
C19 C 0.1340(7) 0.1175(4) -0.7508(7)
H29 H 0.2067(7) 0.1158(4) -0.8062(7)
H30 H 0.1032(7) 0.0723(4) -0.7406(7)
C20 C 0.1612(6) 0.1569(3) -0.6194(6)
H31 H 0.1802(6) 0.1281(3) -0.5528(6)
H32 H 0.2311(6) 0.1888(3) -0.6252(6)
O1 O 0.0752(3) 0.3340(2) -0.5373(3)
O2 O 0.0586(3) 0.1893(2) -0.5830(3)
S2 S 0.31624(11) 0.27174(7) 0.06052(12)
Si2 Si 0.09319(12) 0.36746(7) -0.08309(13)
Li2 Li -0.4619(7) 0.2697(4) 0.0776(7)
N4 N 0.2798(3) 0.2125(2) -0.1938(4)
N5 N 0.2131(3) 0.2133(2) -0.3074(4)
N6 N 0.1461(3) 0.2625(2) -0.2825(4)
C21 C 0.2540(4) 0.2607(2) -0.0979(4)
C22 C 0.1684(4) 0.2944(2) -0.1560(4)
C23 C -0.0208(5) 0.3430(3) 0.0353(6)
H33 H -0.0539(22) 0.3821(3) 0.0817(24)
H34 H 0.0166(8) 0.3193(14) 0.1002(20)
H35 H -0.0856(16) 0.3146(13) -0.0130(7)
C24 C 0.0196(5) 0.4038(3) -0.2166(5)
H36 H -0.0159(26) 0.4438(9) -0.1783(7)
H37 H -0.0437(20) 0.3724(7) -0.2599(22)
H38 H 0.0795(8) 0.4143(15) -0.2822(17)
C25 C 0.2048(5) 0.4311(3) 0.0030(6)
H39 H 0.2473(21) 0.4128(5) 0.0727(22)
H40 H 0.1631(6) 0.4687(7) 0.0429(28)
H41 H 0.2629(18) 0.4452(11) -0.0614(8)
C26 C 0.3627(4) 0.1621(2) -0.1896(5)
H42 H 0.4355(4) 0.1812(2) -0.1377(5)
H43 H 0.3877(4) 0.1471(2) -0.2812(5)
C27 C 0.3096(4) 0.1040(2) -0.1287(5)
C28 C 0.1921(5) 0.0792(3) -0.1578(5)
H44 H 0.1429(5) 0.0996(3) -0.2142(5)
C29 C 0.1468(6) 0.0244(3) -0.1043(6)
H45 H 0.0663(6) 0.0072(3) -0.1244(6)
C30 C 0.2171(7) -0.0052(3) -0.0228(6)
H46 H 0.1857(7) -0.0430(3) 0.0132(6)
C31 C 0.3321(7) 0.0197(3) 0.0066(7)
H47 H 0.3808(7) -0.0007(3) 0.0635(7)
C32 C 0.3787(5) 0.0742(3) -0.0455(6)
H48 H 0.4590(5) 0.0914(3) -0.0237(6)
C33 C -0.5194(7) 0.1957(4) 0.2930(7)
H49 H -0.6005(7) 0.1789(4) 0.2575(7)
H50 H -0.5254(7) 0.2397(4) 0.3430(7)
C34 C -0.4766(6) 0.1523(4) 0.3807(7)
H51 H -0.5409(6) 0.1185(4) 0.3961(7)
H52 H -0.4496(6) 0.1772(4) 0.4674(7)
C35 C -0.3746(6) 0.1220(3) 0.3110(7)
H53 H -0.4000(6) 0.0776(3) 0.2656(7)
H54 H -0.3075(6) 0.1190(3) 0.3739(7)
C36 C -0.3384(6) 0.1670(4) 0.2131(7)
H55 H -0.2716(6) 0.1988(4) 0.2500(7)
H56 H -0.3111(6) 0.1420(4) 0.1303(7)
C37 C -0.4853(5) 0.3955(3) 0.2736(5)
H57 H -0.5244(5) 0.3810(3) 0.3531(5)
H58 H -0.5484(5) 0.4057(3) 0.2121(5)
C38 C -0.4000(6) 0.4542(3) 0.3127(7)
H59 H -0.4097(6) 0.4716(3) 0.4073(7)
H60 H -0.4145(6) 0.4890(3) 0.2576(7)
C39 C -0.2768(5) 0.4314(3) 0.2901(7)
H61 H -0.2398(5) 0.4488(3) 0.2124(7)
H62 H -0.2240(5) 0.4455(3) 0.3692(7)
C40 C -0.2965(5) 0.3585(3) 0.2652(6)
H63 H -0.2371(5) 0.3399(3) 0.2018(6)
H64 H -0.2896(5) 0.3393(3) 0.3491(6)
O3 O -0.4390(3) 0.1998(2) 0.1867(3)
O4 O -0.4163(3) 0.3459(2) 0.2101(3)
Li2_2 Li 0.5381(7) 0.2697(4) 0.0776(7)
S2_2 S -0.68376(11) 0.27174(7) 0.06052(12)
loop_
_geom_bond_atom_site_label_1
_geom_bond_atom_site_label_2
_geom_bond_site_symmetry_1
_geom_bond_site_symmetry_2
S1 Li1 1_555 1_555
Si1 C2 1_555 1_555
Li1 O1 1_555 1_555
N1 N2 1_555 1_555
N2 N3 1_555 1_555
N3 C2 1_555 1_555
C1 S1 1_555 1_555
C2 C1 1_555 1_555
C3 Si1 1_555 1_555
H1 C3 1_555 1_555
H2 C3 1_555 1_555
H3 C3 1_555 1_555
C4 Si1 1_555 1_555
H4 C4 1_555 1_555
H5 C4 1_555 1_555
H6 C4 1_555 1_555
C5 Si1 1_555 1_555
H7 C5 1_555 1_555
H8 C5 1_555 1_555
H9 C5 1_555 1_555
C6 N1 1_555 1_555
H10 C6 1_555 1_555
H11 C6 1_555 1_555
C7 C6 1_555 1_555
C8 C7 1_555 1_555
H12 C8 1_555 1_555
C9 C8 1_555 1_555
H13 C9 1_555 1_555
C10 C9 1_555 1_555
H14 C10 1_555 1_555
C11 C10 1_555 1_555
H15 C11 1_555 1_555
C12 C7 1_555 1_555
H16 C12 1_555 1_555
C13 H17 1_555 1_555
H18 C13 1_555 1_555
C14 C13 1_555 1_555
H19 C14 1_555 1_555
H20 C14 1_555 1_555
C15 C14 1_555 1_555
H21 C15 1_555 1_555
H22 C15 1_555 1_555
C16 C15 1_555 1_555
H23 C16 1_555 1_555
H24 C16 1_555 1_555
C17 H25 1_555 1_555
H26 C17 1_555 1_555
C18 C17 1_555 1_555
H27 C18 1_555 1_555
H28 C18 1_555 1_555
C19 C18 1_555 1_555
H29 C19 1_555 1_555
H30 C19 1_555 1_555
C20 C19 1_555 1_555
H31 C20 1_555 1_555
H32 C20 1_555 1_555
O1 C13 1_555 1_555
O2 Li1 1_555 1_555
S2 C21 1_555 1_555
Si2 C22 1_555 1_555
Li2 N3 1_555 1_555
N4 N5 1_555 1_555
N5 N6 1_555 1_555
N6 Li1 1_555 1_555
C21 N4 1_555 1_555
C22 N6 1_555 1_555
C23 Si2 1_555 1_555
H33 C23 1_555 1_555
H34 C23 1_555 1_555
H35 C23 1_555 1_555
C24 Si2 1_555 1_555
H36 C24 1_555 1_555
H37 C24 1_555 1_555
H38 C24 1_555 1_555
C25 Si2 1_555 1_555
H39 C25 1_555 1_555
H40 C25 1_555 1_555
H41 C25 1_555 1_555
C26 N4 1_555 1_555
H42 C26 1_555 1_555
H43 C26 1_555 1_555
C27 C26 1_555 1_555
C28 C27 1_555 1_555
H44 C28 1_555 1_555
C29 C28 1_555 1_555
H45 C29 1_555 1_555
C30 C29 1_555 1_555
H46 C30 1_555 1_555
C31 C30 1_555 1_555
H47 C31 1_555 1_555
C32 C27 1_555 1_555
H48 C32 1_555 1_555
C33 H49 1_555 1_555
H50 C33 1_555 1_555
C34 C33 1_555 1_555
H51 C34 1_555 1_555
H52 C34 1_555 1_555
C35 C34 1_555 1_555
H53 C35 1_555 1_555
H54 C35 1_555 1_555
C36 C35 1_555 1_555
H55 C36 1_555 1_555
H56 C36 1_555 1_555
C37 H57 1_555 1_555
H58 C37 1_555 1_555
C38 C37 1_555 1_555
H59 C38 1_555 1_555
H60 C38 1_555 1_555
C39 C38 1_555 1_555
H61 C39 1_555 1_555
H62 C39 1_555 1_555
C40 C39 1_555 1_555
H63 C40 1_555 1_555
H64 C40 1_555 1_555
O3 Li2 1_555 1_555
O4 Li2 1_555 1_555
Li2_2 S2 1_555 1_555
S2_2 Li2 1_555 1_555
N1 C1 1_555 1_555
C11 C12 1_555 1_555
C16 O1 1_555 1_555
C17 O2 1_555 1_555
C20 O2 1_555 1_555
C21 C22 1_555 1_555
C31 C32 1_555 1_555
C33 O3 1_555 1_555
C36 O3 1_555 1_555
C37 O4 1_555 1_555
C40 O4 1_555 1_555

#END
