
#######################################################################
#
#                 Cambridge Crystallographic Data Centre
#                                CCDC 
#
#######################################################################
#
# If this CIF has been generated from an entry in the Cambridge 
# Structural Database, then it will include bibliographic, chemical, 
# crystal, experimental, refinement or atomic coordinate data resulting 
# from the CCDC's data processing and validation procedures.
#
#######################################################################

data_VAQHAW
_symmetry_cell_setting           triclinic
_symmetry_space_group_name_H-M   'P -1'
_symmetry_Int_Tables_number      2
_space_group_name_Hall           '-P 1'
loop_
_symmetry_equiv_pos_site_id
_symmetry_equiv_pos_as_xyz
1 x,y,z
2 -x,-y,-z
_cell_length_a                   5.775(2)
_cell_length_b                   8.443(3)
_cell_length_c                   10.006(4)
_cell_angle_alpha                82.22(3)
_cell_angle_beta                 76.84(3)
_cell_angle_gamma                88.30(3)
_cell_volume                     470.69
loop_
_atom_site_label
_atom_site_type_symbol
_atom_site_fract_x
_atom_site_fract_y
_atom_site_fract_z
Cu1 Cu 0.2199(1) 0.0309(1) 0.0585(1)
N1 N 0.5336(8) 0.1119(7) -0.1177(6)
N2 N 0.5358(9) 0.1617(7) -0.2350(7)
N3 N 0.5309(13) 0.2108(9) -0.3468(8)
N4 N 1.0269(9) -0.1483(6) 0.0233(6)
N5 N 1.0094(10) -0.2828(8) 0.0852(8)
N6 N 1.0013(17) -0.4100(12) 0.1364(12)
N7 N 0.2455(9) 0.1946(6) 0.1905(6)
C1 C 0.0897(12) 0.1901(8) 0.3119(7)
C2 C 0.1010(15) 0.2846(10) 0.4087(8)
C3 C 0.2863(16) 0.3916(10) 0.3806(9)
C4 C 0.4519(14) 0.3976(10) 0.2590(11)
C5 C 0.4259(12) 0.2987(9) 0.1644(9)
Cl1 Cl -0.1371(4) 0.0512(3) 0.3415(2)
H1 H -0.0127(15) 0.2777(10) 0.4917(8)
H2 H 0.2985(16) 0.4596(10) 0.4445(9)
H3 H 0.5805(14) 0.4673(10) 0.2401(11)
H4 H 0.5364(12) 0.3045(9) 0.0802(9)
Cu1A Cu 0.7801(1) -0.0309(1) -0.0585(1)
N1A N 0.4664(8) -0.1119(7) 0.1177(6)
Cu1A_2 Cu -0.2199(1) -0.0309(1) -0.0585(1)
N4_2 N 0.0269(9) -0.1483(6) 0.0233(6)
N2A N 0.4642(9) -0.1617(7) 0.2350(7)
N3A N 0.4691(13) -0.2108(9) 0.3468(8)
N4A N -0.0269(9) 0.1483(6) -0.0233(6)
Cu1_2 Cu 1.2199(1) 0.0309(1) 0.0585(1)
N4A_2 N 0.9731(9) 0.1483(6) -0.0233(6)
N5A N 0.9906(10) 0.2828(8) -0.0852(8)
N6A N 0.9987(17) 0.4100(12) -0.1364(12)
N7A N 0.7545(9) -0.1946(6) -0.1905(6)
C1A C 0.9103(12) -0.1901(8) -0.3119(7)
C2A C 0.8990(15) -0.2846(10) -0.4087(8)
C3A C 0.7137(16) -0.3916(10) -0.3806(9)
C4A C 0.5481(14) -0.3976(10) -0.2590(11)
C5A C 0.5741(12) -0.2987(9) -0.1644(9)
H4A H 0.4636(12) -0.3045(9) -0.0802(9)
H3A H 0.4195(14) -0.4673(10) -0.2401(11)
H2A H 0.7015(16) -0.4596(10) -0.4445(9)
H1A H 1.0127(15) -0.2777(10) -0.4917(8)
Cl1A Cl 1.1371(4) -0.0512(3) -0.3415(2)
loop_
_geom_bond_atom_site_label_1
_geom_bond_atom_site_label_2
_geom_bond_site_symmetry_1
_geom_bond_site_symmetry_2
Cu1 N1 1_555 1_555
N1 N2 1_555 1_555
N2 N3 1_555 1_555
N4 N5 1_555 1_555
N5 N6 1_555 1_555
N7 Cu1 1_555 1_555
C1 N7 1_555 1_555
C2 C1 1_555 1_555
C3 C2 1_555 1_555
C4 C3 1_555 1_555
C5 N7 1_555 1_555
Cl1 C1 1_555 1_555
H1 C2 1_555 1_555
H2 C3 1_555 1_555
H3 C4 1_555 1_555
H4 C5 1_555 1_555
Cu1A N1 1_555 1_555
N1A Cu1 1_555 1_555
Cu1A_2 N4_2 1_555 1_555
N4_2 Cu1 1_555 1_555
N2A N1A 1_555 1_555
N3A N2A 1_555 1_555
N4A Cu1 1_555 1_555
Cu1_2 N4 1_555 1_555
N4A_2 Cu1A 1_555 1_555
N5A N4A_2 1_555 1_555
N6A N5A 1_555 1_555
N7A Cu1A 1_555 1_555
C1A N7A 1_555 1_555
C2A C1A 1_555 1_555
C3A C2A 1_555 1_555
C4A C3A 1_555 1_555
C5A N7A 1_555 1_555
H4A C5A 1_555 1_555
H3A C4A 1_555 1_555
H2A C3A 1_555 1_555
H1A C2A 1_555 1_555
Cl1A C1A 1_555 1_555
N4 Cu1A 1_555 1_555
C4 C5 1_555 1_555
Cu1A N1A 1_555 1_555
Cu1A_2 N4A 1_555 1_555
Cu1_2 N4A_2 1_555 1_555
C4A C5A 1_555 1_555

#END
