
#######################################################################
#
#                 Cambridge Crystallographic Data Centre
#                                CCDC 
#
#######################################################################
#
# If this CIF has been generated from an entry in the Cambridge 
# Structural Database, then it will include bibliographic, chemical, 
# crystal, experimental, refinement or atomic coordinate data resulting 
# from the CCDC's data processing and validation procedures.
#
#######################################################################

data_VAQKED01
_symmetry_cell_setting           monoclinic
_symmetry_space_group_name_H-M   'C 2/c'
_symmetry_Int_Tables_number      15
_space_group_name_Hall           '-C 2yn'
loop_
_symmetry_equiv_pos_site_id
_symmetry_equiv_pos_as_xyz
1 x,y,z
2 -x,y,1/2-z
3 1/2+x,1/2+y,z
4 1/2-x,1/2+y,1/2-z
5 -x,-y,-z
6 x,-y,1/2+z
7 1/2-x,1/2-y,-z
8 1/2+x,1/2-y,1/2+z
_cell_length_a                   17.9080
_cell_length_b                   3.7170
_cell_length_c                   14.8700
_cell_angle_alpha                90.0
_cell_angle_beta                 95.30
_cell_angle_gamma                90.0
_cell_volume                     985.575
loop_
_atom_site_label
_atom_site_type_symbol
_atom_site_fract_x
_atom_site_fract_y
_atom_site_fract_z
Fe1 Fe 0.00000 -0.03800 0.25000
Cl1 Cl -0.06265 -0.53565 0.15460
S1 S 0.16695 -0.08495 0.02800
N1 N 0.09275 -0.03900 0.16515
C1 C 0.08700 -0.12750 0.07960
C2 C 0.21470 0.05350 0.12610
C3 C 0.16470 0.06650 0.19235
H1 H 0.04285 -0.20880 0.04820
H2 H 0.26625 0.11890 0.13515
H3 H 0.18115 0.14180 0.25280
Cl1_2 Cl -0.06265 0.46435 0.15460
S1A S -0.16695 -0.08495 0.47200
N1A N -0.09275 -0.03900 0.33485
C1A C -0.08700 -0.12750 0.42040
C2A C -0.21470 0.05350 0.37390
C3A C -0.16470 0.06650 0.30765
H1A H -0.04285 -0.20880 0.45180
H2A H -0.26625 0.11890 0.36485
H3A H -0.18115 0.14180 0.24720
Cl1A Cl 0.06265 -0.53565 0.34540
Cl1A_2 Cl 0.06265 0.46435 0.34540
Fe1_2 Fe 0.00000 -1.03800 0.25000
loop_
_geom_bond_atom_site_label_1
_geom_bond_atom_site_label_2
_geom_bond_site_symmetry_1
_geom_bond_site_symmetry_2
Fe1 Cl1 1_555 1_555
Cl1 Fe1_2 1_555 1_555
S1 C1 1_555 1_555
N1 Fe1 1_555 1_555
C1 N1 1_555 1_555
C2 S1 1_555 1_555
C3 N1 1_555 1_555
H1 C1 1_555 1_555
H2 C2 1_555 1_555
H3 C3 1_555 1_555
Cl1_2 Fe1 1_555 1_555
S1A C1A 1_555 1_555
N1A Fe1 1_555 1_555
C1A N1A 1_555 1_555
C2A S1A 1_555 1_555
C3A N1A 1_555 1_555
H1A C1A 1_555 1_555
H2A C2A 1_555 1_555
H3A C3A 1_555 1_555
Cl1A Fe1 1_555 1_555
Cl1A_2 Fe1 1_555 1_555
Fe1_2 Cl1A 1_555 1_555
C2 C3 1_555 1_555
C2A C3A 1_555 1_555

#END
