
#######################################################################
#
#                 Cambridge Crystallographic Data Centre
#                                CCDC 
#
#######################################################################
#
# If this CIF has been generated from an entry in the Cambridge 
# Structural Database, then it will include bibliographic, chemical, 
# crystal, experimental, refinement or atomic coordinate data resulting 
# from the CCDC's data processing and validation procedures.
#
#######################################################################

data_VAQKED
_symmetry_cell_setting           monoclinic
_symmetry_space_group_name_H-M   'C c'
_symmetry_Int_Tables_number      9
_space_group_name_Hall           'C -2yc'
loop_
_symmetry_equiv_pos_site_id
_symmetry_equiv_pos_as_xyz
1 x,y,z
2 x,-y,1/2+z
3 1/2+x,1/2+y,z
4 1/2+x,1/2-y,1/2+z
_cell_length_a                   17.908(9)
_cell_length_b                   3.717(5)
_cell_length_c                   14.870(8)
_cell_angle_alpha                90
_cell_angle_beta                 95.30(5)
_cell_angle_gamma                90
_cell_volume                     985.575
loop_
_atom_site_label
_atom_site_type_symbol
_atom_site_fract_x
_atom_site_fract_y
_atom_site_fract_z
Fe1 Fe 0.7735(1) -0.0380(1) 0.0387(1)
Cl1 Cl 0.7111(1) -0.5317(3) -0.0572(1)
Cl2 Cl 0.8364(1) -0.5396(3) 0.1336(1)
S1 S 0.9402(1) -0.0823(4) -0.1856(1)
S2 S 0.6063(1) -0.0876(4) 0.2584(1)
N1 N 0.8687(2) -0.033(1) -0.0434(2)
N2 N 0.6832(2) -0.045(1) 0.1263(2)
C1 C 0.8593(3) -0.113(1) -0.1327(3)
C2 C 0.9904(2) 0.039(1) -0.0838(4)
C3 C 0.9360(3) 0.062(1) -0.0237(3)
C4 C 0.6853(3) -0.142(2) 0.2081(4)
C5 C 0.5610(2) 0.068(1) 0.1640(3)
C6 C 0.6066(2) 0.071(1) 0.0916(3)
H1 H 0.8141 -0.1938 -0.1598
H2 H 1.0424 0.0835 -0.0790
H3 H 0.9582 0.1568 0.0340
H4 H 0.7284 -0.2238 0.2438
H5 H 0.5099 0.1543 0.1507
H6 H 0.5959 0.1268 0.0284
Fe1_2 Fe 0.7735(1) -1.0380(1) 0.0387(1)
Cl1_2 Cl 0.7111(1) 0.4683(3) -0.0572(1)
Cl2_2 Cl 0.8364(1) 0.4604(3) 0.1336(1)
loop_
_geom_bond_atom_site_label_1
_geom_bond_atom_site_label_2
_geom_bond_site_symmetry_1
_geom_bond_site_symmetry_2
Fe1 Cl1 1_555 1_555
Cl1 Fe1_2 1_555 1_555
Cl2 Fe1 1_555 1_555
S1 C1 1_555 1_555
S2 C4 1_555 1_555
N1 Fe1 1_555 1_555
N2 Fe1 1_555 1_555
C1 N1 1_555 1_555
C2 S1 1_555 1_555
C3 N1 1_555 1_555
C4 N2 1_555 1_555
C5 S2 1_555 1_555
C6 N2 1_555 1_555
H1 C1 1_555 1_555
H2 C2 1_555 1_555
H3 C3 1_555 1_555
H4 C4 1_555 1_555
H5 C5 1_555 1_555
H6 C6 1_555 1_555
Fe1_2 Cl2 1_555 1_555
Cl1_2 Fe1 1_555 1_555
Cl2_2 Fe1 1_555 1_555
C2 C3 1_555 1_555
C5 C6 1_555 1_555

#END
