
#######################################################################
#
#                 Cambridge Crystallographic Data Centre
#                                CCDC 
#
#######################################################################
#
# If this CIF has been generated from an entry in the Cambridge 
# Structural Database, then it will include bibliographic, chemical, 
# crystal, experimental, refinement or atomic coordinate data resulting 
# from the CCDC's data processing and validation procedures.
#
#######################################################################

data_VAQKIH
_symmetry_cell_setting           monoclinic
_symmetry_space_group_name_H-M   'P 21/c'
_symmetry_Int_Tables_number      14
_space_group_name_Hall           '-P 2ybc'
loop_
_symmetry_equiv_pos_site_id
_symmetry_equiv_pos_as_xyz
1 x,y,z
2 -x,1/2+y,1/2-z
3 -x,-y,-z
4 x,1/2-y,1/2+z
_cell_length_a                   7.460(2)
_cell_length_b                   3.987(3)
_cell_length_c                   17.757(2)
_cell_angle_alpha                90
_cell_angle_beta                 92.15(1)
_cell_angle_gamma                90
_cell_volume                     527.775
loop_
_atom_site_label
_atom_site_type_symbol
_atom_site_fract_x
_atom_site_fract_y
_atom_site_fract_z
Cu1 Cu 0.5000 -0.5000 0.0000
Br1 Br 0.7134(1) 0.1139(1) 0.0653(1)
N1 N 0.3481(4) -0.501(1) 0.0896(2)
S1 S 0.0804(1) -0.5524(3) 0.1724(1)
C1 C 0.1791(5) -0.589(1) 0.0881(2)
C2 C 0.2774(6) -0.413(1) 0.2132(2)
C3 C 0.4057(6) -0.403(1) 0.1604(2)
H1 H 0.1156 -0.6674 0.042
H2 H 0.2953 -0.3504 0.2658
H3 H 0.5280 -0.3325 0.1721
Cu1_2 Cu 0.5000 0.5000 0.0000
Br1_2 Br 0.7134(1) -0.8861(1) 0.0653(1)
Br1B Br 0.2866(1) -1.1139(1) -0.0653(1)
Br1B_2 Br 0.2866(1) -0.1139(1) -0.0653(1)
N1B N 0.6519(4) -0.499(1) -0.0896(2)
C1B C 0.8209(5) -0.411(1) -0.0881(2)
S1B S 0.9196(1) -0.4476(3) -0.1724(1)
C2B C 0.7226(6) -0.587(1) -0.2132(2)
C3B C 0.5943(6) -0.597(1) -0.1604(2)
H3B H 0.4720 -0.6675 -0.1721
H2B H 0.7047 -0.6496 -0.2658
H1B H 0.8844 -0.3326 -0.042
loop_
_geom_bond_atom_site_label_1
_geom_bond_atom_site_label_2
_geom_bond_site_symmetry_1
_geom_bond_site_symmetry_2
Cu1 Br1 1_555 1_555
Br1 Cu1_2 1_555 1_555
N1 Cu1 1_555 1_555
S1 C1 1_555 1_555
C1 N1 1_555 1_555
C2 S1 1_555 1_555
C3 N1 1_555 1_555
H1 C1 1_555 1_555
H2 C2 1_555 1_555
H3 C3 1_555 1_555
Cu1_2 Br1B_2 1_555 1_555
Br1_2 Cu1 1_555 1_555
Br1B Cu1 1_555 1_555
Br1B_2 Cu1 1_555 1_555
N1B Cu1 1_555 1_555
C1B N1B 1_555 1_555
S1B C1B 1_555 1_555
C2B S1B 1_555 1_555
C3B N1B 1_555 1_555
H3B C3B 1_555 1_555
H2B C2B 1_555 1_555
H1B C1B 1_555 1_555
C2 C3 1_555 1_555
C2B C3B 1_555 1_555

#END
