
#######################################################################
#
#                 Cambridge Crystallographic Data Centre
#                                CCDC 
#
#######################################################################
#
# If this CIF has been generated from an entry in the Cambridge 
# Structural Database, then it will include bibliographic, chemical, 
# crystal, experimental, refinement or atomic coordinate data resulting 
# from the CCDC's data processing and validation procedures.
#
#######################################################################

data_VAQLEG
_symmetry_cell_setting           tetragonal
_symmetry_space_group_name_H-M   'I -4 2 d'
_symmetry_Int_Tables_number      122
_space_group_name_Hall           'I -4 2bw'
loop_
_symmetry_equiv_pos_site_id
_symmetry_equiv_pos_as_xyz
1 x,y,z
2 y,-x,-z
3 -x,-y,z
4 -y,x,-z
5 1/2-x,y,3/4-z
6 1/2-y,-x,3/4+z
7 1/2+x,-y,3/4-z
8 1/2+y,x,3/4+z
9 1/2+x,1/2+y,1/2+z
10 1/2+y,1/2-x,1/2-z
11 1/2-x,1/2-y,1/2+z
12 1/2-y,1/2+x,1/2-z
13 -x,1/2+y,1/4-z
14 -y,1/2-x,1/4+z
15 x,1/2-y,1/4-z
16 y,1/2+x,1/4+z
_cell_length_a                   13.415(2)
_cell_length_b                   13.415(2)
_cell_length_c                   33.719(5)
_cell_angle_alpha                90
_cell_angle_beta                 90
_cell_angle_gamma                90
_cell_volume                     6068.15
loop_
_atom_site_label
_atom_site_type_symbol
_atom_site_fract_x
_atom_site_fract_y
_atom_site_fract_z
Cd1 Cd 0.30021(2) 0.47674(2) 0.255183(8)
O1 O 0.1842(4) 0.5519(3) 0.29239(16)
O2 O 0.1478(4) 0.6819(4) 0.25649(14)
O3 O 0.0956(3) 0.9244(3) 0.28057(11)
O4 O 0.1352(5) 0.9835(5) 0.33934(16)
O5 O 0.4016(3) 0.6116(3) 0.25898(16)
N1 N 0.0131(3) 0.7516(3) 0.31297(11)
N2 N -0.1457(3) 0.6046(3) 0.43894(11)
C1 C 0.0469(5) 0.6428(5) 0.3110(2)
H1 H -0.0083 0.6014 0.3006
H2 H 0.0626 0.6192 0.3381
C2 C 0.1369(4) 0.6295(4) 0.28507(18)
C3 C 0.0838(6) 0.8076(5) 0.3353(2)
H3 H 0.0600 0.8144 0.3629
H4 H 0.1480 0.7713 0.3358
C4 C 0.1009(5) 0.9159(4) 0.31677(18)
C5 C -0.0907(6) 0.7490(4) 0.32615(15)
H5 H -0.1158 0.8183 0.3277
H6 H -0.1307 0.7138 0.3058
C6 C -0.1350(5) 0.7026(5) 0.43601(15)
H7 H -0.1416 0.7416 0.4594
C7 C -0.1149(4) 0.7508(5) 0.40085(16)
H8 H -0.1057 0.8211 0.4008
C8 C -0.1081(4) 0.6988(4) 0.36600(13)
C9 C -0.1252(5) 0.6000(6) 0.36845(15)
H9 H -0.1265 0.5609 0.3450
C10 C -0.1412(5) 0.5541(6) 0.40556(17)
H10 H -0.1491 0.4838 0.4065
Cd1K Cd 0.02326(2) 0.80021(2) 0.244817(8)
Cd1F Cd -0.19979(2) 0.52326(2) 0.494817(8)
O2I O 0.1819(4) 0.3522(4) 0.24351(14)
O3I O 0.4244(3) 0.4044(3) 0.21943(11)
N1I N 0.2516(3) 0.4869(3) 0.18703(11)
N2F N 0.3543(3) 0.3954(3) 0.31106(11)
O6 O 0.4806(9) 0.1632(10) 0.1685(3)
O7 O 0.3002(9) 0.3628(11) 0.0295(5)
loop_
_geom_bond_atom_site_label_1
_geom_bond_atom_site_label_2
_geom_bond_site_symmetry_1
_geom_bond_site_symmetry_2
Cd1 O1 1_555 1_555
O1 C2 1_555 1_555
O2 C2 1_555 1_555
O3 C4 1_555 1_555
O4 C4 1_555 1_555
O5 Cd1 1_555 1_555
N1 C1 1_555 1_555
N2 C6 1_555 1_555
C1 H1 1_555 1_555
H2 C1 1_555 1_555
C2 C1 1_555 1_555
C3 N1 1_555 1_555
H3 C3 1_555 1_555
H4 C3 1_555 1_555
C4 C3 1_555 1_555
C5 N1 1_555 1_555
H5 C5 1_555 1_555
H6 C5 1_555 1_555
C6 H7 1_555 1_555
C7 C6 1_555 1_555
H8 C7 1_555 1_555
C8 C5 1_555 1_555
C9 C8 1_555 1_555
H9 C9 1_555 1_555
C10 N2 1_555 1_555
H10 C10 1_555 1_555
Cd1K O2 1_555 1_555
Cd1F N2 1_555 1_555
O2I Cd1 1_555 1_555
O3I Cd1 1_555 1_555
N1I Cd1 1_555 1_555
N2F Cd1 1_555 1_555
O3 Cd1K 1_555 1_555
N1 Cd1K 1_555 1_555
C7 C8 1_555 1_555
C9 C10 1_555 1_555

#END
