
#######################################################################
#
#                 Cambridge Crystallographic Data Centre
#                                CCDC 
#
#######################################################################
#
# If this CIF has been generated from an entry in the Cambridge 
# Structural Database, then it will include bibliographic, chemical, 
# crystal, experimental, refinement or atomic coordinate data resulting 
# from the CCDC's data processing and validation procedures.
#
#######################################################################

data_VAQLAC
_symmetry_cell_setting           orthorhombic
_symmetry_space_group_name_H-M   'P n a 21'
_symmetry_Int_Tables_number      33
_space_group_name_Hall           'P 2c -2n'
loop_
_symmetry_equiv_pos_site_id
_symmetry_equiv_pos_as_xyz
1 x,y,z
2 1/2-x,1/2+y,1/2+z
3 1/2+x,1/2-y,z
4 -x,-y,1/2+z
_cell_length_a                   8.395(3)
_cell_length_b                   9.562(2)
_cell_length_c                   16.475(6)
_cell_angle_alpha                90
_cell_angle_beta                 90
_cell_angle_gamma                90
_cell_volume                     1322.5
loop_
_atom_site_label
_atom_site_type_symbol
_atom_site_fract_x
_atom_site_fract_y
_atom_site_fract_z
Cd1 Cd 0.385488(14) 0.895485(11) 0.061408(16)
O1 O 0.1150(2) 0.62038(19) 0.60359(14)
O2 O 0.2000(2) 0.83603(17) 0.58124(12)
O3 O 0.38818(16) 0.32931(17) 0.55498(18)
O4 O 0.59494(19) 0.29476(17) 0.47520(12)
O5 O 0.6262(2) 0.9691(2) 0.01004(13)
H1 H 0.688(4) 0.904(3) 0.003(2)
H2 H 0.675(4) 1.024(3) 0.0355(16)
N1 N 0.2614(2) 0.53367(17) 0.45818(10)
N2 N 0.3532(2) 0.7895(2) 0.18538(12)
C1 C 0.3224(3) 0.6530(2) 0.50570(14)
H3 H 0.3520 0.7294 0.4680
H4 H 0.4201 0.6237 0.5348
C2 C 0.2024(2) 0.70834(18) 0.5670(2)
C3 C 0.3926(2) 0.4480(3) 0.42697(15)
H5 H 0.4776 0.5102 0.4061
H6 H 0.3535 0.3907 0.3811
C4 C 0.4624(2) 0.3519(2) 0.49152(13)
C5 C 0.1507(3) 0.5768(3) 0.39268(14)
H7 H 0.0682 0.6382 0.4167
H8 H 0.0961 0.4922 0.3720
C6 C 0.3417(3) 0.6497(3) 0.18820(14)
H9 H 0.3790 0.5972 0.1431
C7 C 0.2777(3) 0.5781(2) 0.25386(14)
H10 H 0.2701 0.4790 0.2530
C8 C 0.2251(3) 0.6530(2) 0.32082(14)
C9 C 0.2411(3) 0.7974(2) 0.31889(15)
H11 H 0.2096 0.8524 0.3642
C10 C 0.3037(3) 0.8609(3) 0.25006(15)
H12 H 0.3115 0.9600 0.2491
Cd1A Cd 0.114512(14) 0.395485(11) 0.561408(16)
Cd1C Cd 0.614512(14) 0.104515(11) 0.561408(16)
O1A O 0.3850(2) 1.12038(19) 0.10359(14)
O3A O 0.11182(16) 0.82931(17) 0.05498(18)
O4C O 0.40506(19) 0.70524(17) -0.02480(12)
N1A N 0.2386(2) 1.03367(17) -0.04182(10)
O6 O 0.5187(7) 0.2081(4) 0.2509(2)
O7 O 0.2252(7) 0.1751(5) 0.3205(3)
O8? O 0.3851(14) 0.2097(10) 0.2635(6)
loop_
_geom_bond_atom_site_label_1
_geom_bond_atom_site_label_2
_geom_bond_site_symmetry_1
_geom_bond_site_symmetry_2
Cd1 O5 1_555 1_555
O1 C2 1_555 1_555
O2 C2 1_555 1_555
O3 C4 1_555 1_555
O4 C4 1_555 1_555
O5 H1 1_555 1_555
H2 O5 1_555 1_555
N1 C1 1_555 1_555
N2 Cd1 1_555 1_555
C1 H3 1_555 1_555
H4 C1 1_555 1_555
C2 C1 1_555 1_555
C3 N1 1_555 1_555
H5 C3 1_555 1_555
H6 C3 1_555 1_555
C4 C3 1_555 1_555
C5 N1 1_555 1_555
H7 C5 1_555 1_555
H8 C5 1_555 1_555
C6 N2 1_555 1_555
H9 C6 1_555 1_555
C7 C6 1_555 1_555
H10 C7 1_555 1_555
C8 C5 1_555 1_555
C9 C8 1_555 1_555
H11 C9 1_555 1_555
C10 N2 1_555 1_555
H12 C10 1_555 1_555
Cd1A O1 1_555 1_555
Cd1C O4 1_555 1_555
O1A Cd1 1_555 1_555
O3A Cd1 1_555 1_555
O4C Cd1 1_555 1_555
N1A Cd1 1_555 1_555
O3 Cd1A 1_555 1_555
N1 Cd1A 1_555 1_555
C7 C8 1_555 1_555
C9 C10 1_555 1_555

#END
