
#######################################################################
#
#                 Cambridge Crystallographic Data Centre
#                                CCDC 
#
#######################################################################
#
# If this CIF has been generated from an entry in the Cambridge 
# Structural Database, then it will include bibliographic, chemical, 
# crystal, experimental, refinement or atomic coordinate data resulting 
# from the CCDC's data processing and validation procedures.
#
#######################################################################

data_VAQLIK
_symmetry_cell_setting           tetragonal
_symmetry_space_group_name_H-M   'I -4 2 d'
_symmetry_Int_Tables_number      122
_space_group_name_Hall           'I -4 2bw'
loop_
_symmetry_equiv_pos_site_id
_symmetry_equiv_pos_as_xyz
1 x,y,z
2 -x,-y,z
3 y,-x,-z
4 -y,x,-z
5 1/2-x,y,3/4-z
6 1/2+x,-y,3/4-z
7 1/2-y,-x,3/4+z
8 1/2+y,x,3/4+z
9 1/2+x,1/2+y,1/2+z
10 1/2-x,1/2-y,1/2+z
11 1/2+y,1/2-x,1/2-z
12 1/2-y,1/2+x,1/2-z
13 -x,1/2+y,1/4-z
14 x,1/2-y,1/4-z
15 -y,1/2-x,1/4+z
16 y,1/2+x,1/4+z
_cell_length_a                   13.0598(11)
_cell_length_b                   13.0598(11)
_cell_length_c                   32.489(3)
_cell_angle_alpha                90
_cell_angle_beta                 90
_cell_angle_gamma                90
_cell_volume                     5541.27
loop_
_atom_site_label
_atom_site_type_symbol
_atom_site_fract_x
_atom_site_fract_y
_atom_site_fract_z
Zn1 Zn 0.30369(3) 0.46811(3) 0.251224(10)
C1 C 0.1373(3) 0.4516(3) 0.19053(10)
H1 H 0.1125 0.4328 0.1634
H2 H 0.0963 0.5084 0.2004
C2 C 0.1249(2) 0.3610(2) 0.21960(10)
C3 C 0.3069(3) 0.4116(3) 0.16275(11)
H3 H 0.3130 0.4378 0.1349
H4 H 0.2711 0.3466 0.1613
C4 C 0.4137(3) 0.3937(3) 0.18014(12)
C5 C 0.2558(3) 0.5904(3) 0.17170(10)
H5 H 0.3280 0.6063 0.1687
H6 H 0.2274 0.6373 0.1919
C6 C 0.2044(3) 0.6334(3) 0.05751(11)
H7 H 0.2421 0.6375 0.0333
C7 C 0.2557(3) 0.6126(4) 0.09443(11)
H8 H 0.3261 0.6017 0.0944
C8 C 0.2024(3) 0.6082(3) 0.13034(10)
C9 C 0.0983(3) 0.6245(3) 0.12874(11)
H9 H 0.0594 0.6232 0.1527
C10 C 0.0521(3) 0.6427(3) 0.09104(11)
H10 H -0.0185 0.6519 0.0903
N1 N 0.2454(2) 0.4840(2) 0.18744(8)
N2 N 0.1038(2) 0.6475(2) 0.05589(9)
O1 O 0.19645(18) 0.33909(19) 0.24347(7)
O2 O 0.03979(19) 0.31805(18) 0.21798(8)
O3 O 0.42368(18) 0.4036(2) 0.21837(8)
O4 O 0.4820(2) 0.3667(3) 0.15676(9)
O5 O 0.39388(18) 0.5989(2) 0.25686(8)
Zn1F Zn 0.03189(3) 0.69631(3) 0.001224(10)
Zn1J Zn -0.03189(3) 0.19631(3) 0.248776(10)
N2N N 0.3525(2) 0.3962(2) 0.30589(9)
O2K O 0.18195(18) 0.53979(19) 0.28202(8)
O6 O 0.2980(9) 0.3785(12) 0.0247(7)
O7 O 0.4740(5) 0.3867(10) 0.07133(18)
loop_
_geom_bond_atom_site_label_1
_geom_bond_atom_site_label_2
_geom_bond_site_symmetry_1
_geom_bond_site_symmetry_2
Zn1 N1 1_555 1_555
C1 H1 1_555 1_555
H2 C1 1_555 1_555
C2 C1 1_555 1_555
C3 H3 1_555 1_555
H4 C3 1_555 1_555
C4 C3 1_555 1_555
C5 H5 1_555 1_555
H6 C5 1_555 1_555
C6 H7 1_555 1_555
C7 C6 1_555 1_555
H8 C7 1_555 1_555
C8 C5 1_555 1_555
C9 C8 1_555 1_555
H9 C9 1_555 1_555
C10 C9 1_555 1_555
H10 C10 1_555 1_555
N1 C1 1_555 1_555
N2 C6 1_555 1_555
O1 Zn1 1_555 1_555
O2 C2 1_555 1_555
O3 Zn1 1_555 1_555
O4 C4 1_555 1_555
O5 Zn1 1_555 1_555
Zn1F N2 1_555 1_555
Zn1J O2 1_555 1_555
N2N Zn1 1_555 1_555
O2K Zn1 1_555 1_555
C2 O1 1_555 1_555
C3 N1 1_555 1_555
C4 O3 1_555 1_555
C5 N1 1_555 1_555
C7 C8 1_555 1_555
C10 N2 1_555 1_555

#END
