
#######################################################################
#
#                 Cambridge Crystallographic Data Centre
#                                CCDC 
#
#######################################################################
#
# If this CIF has been generated from an entry in the Cambridge 
# Structural Database, then it will include bibliographic, chemical, 
# crystal, experimental, refinement or atomic coordinate data resulting 
# from the CCDC's data processing and validation procedures.
#
#######################################################################

data_VAQSEL
_symmetry_cell_setting           triclinic
_symmetry_space_group_name_H-M   'P -1'
_symmetry_Int_Tables_number      2
_space_group_name_Hall           '-P 1'
loop_
_symmetry_equiv_pos_site_id
_symmetry_equiv_pos_as_xyz
1 x,y,z
2 -x,-y,-z
_cell_length_a                   10.5450(10)
_cell_length_b                   10.5971(9)
_cell_length_c                   10.7499(10)
_cell_angle_alpha                67.543(7)
_cell_angle_beta                 77.570(9)
_cell_angle_gamma                82.882(9)
_cell_volume                     1082.99
loop_
_atom_site_label
_atom_site_type_symbol
_atom_site_fract_x
_atom_site_fract_y
_atom_site_fract_z
Mn1 Mn -1.0000 1.0000 0.0000
N1 N -1.1796(2) 1.1489(2) 0.0025(3)
C1 C -1.1680(3) 1.2817(3) -0.0638(4)
C2 C -1.2704(4) 1.3768(3) -0.0628(5)
C3 C -1.3933(3) 1.3340(4) 0.0097(4)
C4 C -1.4047(3) 1.1961(4) 0.0733(5)
C5 C -1.2981(3) 1.1085(3) 0.0693(4)
C6 C -1.5135(4) 1.4269(4) 0.0241(6)
O1 O -0.8769(2) 1.1446(2) 0.0047(3)
O2 O -0.9509(2) 1.0846(2) -0.2218(2)
H1 H -0.8958(37) 1.1897(40) 0.0519(41)
H2 H -0.8135(44) 1.1762(44) -0.0565(46)
H3 H -0.8907(42) 1.1387(42) -0.2609(41)
H4 H -1.0088(43) 1.0968(43) -0.2795(44)
H5 H -1.0869 1.3130 -0.1136
H6 H -1.2570 1.4694 -0.1106
H7 H -1.4855 1.1613 0.1197
H8 H -1.3092 1.0154 0.1160
C6A C -1.4865(4) 1.5731(4) -0.0241(6)
C3A C -1.6067(3) 1.6660(4) -0.0097(4)
C2A C -1.7296(4) 1.6232(3) 0.0628(5)
C1A C -1.8320(3) 1.7183(3) 0.0638(4)
N1A N -1.8204(2) 1.8511(2) -0.0025(3)
C5A C -1.7019(3) 1.8915(3) -0.0693(4)
C4A C -1.5953(3) 1.8039(4) -0.0733(5)
H7A H -1.5145 1.8387 -0.1197
H8A H -1.6908 1.9846 -0.1160
H5A H -1.9131 1.6870 0.1136
H6A H -1.7430 1.5306 0.1106
N1A_2 N -0.8204(2) 0.8511(2) -0.0025(3)
O1A O -1.1231(2) 0.8554(2) -0.0047(3)
H1A H -1.1042(37) 0.8103(40) -0.0519(41)
H2A H -1.1865(44) 0.8238(44) 0.0565(46)
O2A O -1.0491(2) 0.9154(2) 0.2218(2)
H3A H -1.1093(42) 0.8613(42) 0.2609(41)
H4A H -0.9912(43) 0.9032(43) 0.2795(44)
Mn1A Mn -2.0000 2.0000 0.0000
N2 N -0.0735(4) -0.2912(3) -0.1774(3)
C7 C -0.1466(4) -0.2599(4) -0.2728(4)
C8 C -0.1203(4) -0.3090(4) -0.3776(4)
C9 C -0.0109(5) -0.3944(4) -0.3875(4)
C10 C 0.0603(5) -0.4325(5) -0.2845(5)
C11 C 0.0264(5) -0.3782(5) -0.1847(4)
C12 C 0.0348(5) -0.4382(5) -0.5140(5)
H9 H -0.2195 -0.2015 -0.2684
H10 H -0.1752 -0.2853 -0.4409
H11 H 0.1309 -0.4947 -0.2829
H12 H 0.0772 -0.4042 -0.1173
C12A C -0.0348(5) -0.5618(5) -0.4860(5)
C9A C 0.0109(5) -0.6056(4) -0.6125(4)
C8A C 0.1203(4) -0.6910(4) -0.6224(4)
C7A C 0.1466(4) -0.7401(4) -0.7272(4)
N2A N 0.0735(4) -0.7088(3) -0.8226(3)
C11A C -0.0264(5) -0.6218(5) -0.8153(4)
C10A C -0.0603(5) -0.5675(5) -0.7155(5)
H11A H -0.1309 -0.5053 -0.7171
H12A H -0.0772 -0.5958 -0.8827
H9A H 0.2195 -0.7985 -0.7316
H10A H 0.1752 -0.7147 -0.5591
O3 O -0.2500(3) -0.2454(3) 0.3497(3)
O4 O -0.3213(3) -0.2650(3) 0.1814(3)
C13 C -0.3200(3) -0.2959(3) 0.3041(3)
C14 C -0.4138(3) -0.4018(3) 0.4066(3)
C15 C -0.4155(4) -0.4460(4) 0.5442(4)
C16 C -0.4995(4) -0.4563(4) 0.3631(4)
H13 H -0.3588 -0.4101 0.5761
H14 H -0.5005 -0.4273 0.2700
C16A C -0.5005(4) -0.5437(4) 0.6369(4)
C14A C -0.5862(3) -0.5982(3) 0.5934(3)
C13A C -0.6800(3) -0.7041(3) 0.6959(3)
O3A O -0.7500(3) -0.7546(3) 0.6503(3)
O4A O -0.6787(3) -0.7350(3) 0.8186(3)
C15A C -0.5845(4) -0.5540(4) 0.4558(4)
H13A H -0.6412 -0.5899 0.4239
H14A H -0.4995 -0.5727 0.7300
N3 N -0.8521(3) -0.1068(3) 0.3733(4)
C17 C -0.7354(4) -0.1056(4) 0.2969(4)
C18 C -0.6218(3) -0.0982(4) 0.3372(4)
C19 C -0.6270(3) -0.0892(4) 0.4629(4)
C20 C -0.7488(4) -0.0895(4) 0.5421(4)
C21 C -0.8563(4) -0.0989(4) 0.4954(4)
C22 C -0.5058(4) -0.0757(4) 0.5109(5)
H15 H -0.7296 -0.1100 0.2111
H16 H -0.5421 -0.0992 0.2800
H17 H -0.7576 -0.0833 0.6276
H18 H -0.9370 -0.0998 0.5515
C22A C -0.4942(4) 0.0757(4) 0.4891(5)
C19A C -0.3730(3) 0.0892(4) 0.5371(4)
C18A C -0.3782(3) 0.0982(4) 0.6628(4)
C17A C -0.2646(4) 0.1056(4) 0.7031(4)
N3A N -0.1479(3) 0.1068(3) 0.6267(4)
C21A C -0.1437(4) 0.0989(4) 0.5046(4)
C20A C -0.2512(4) 0.0895(4) 0.4579(4)
H17A H -0.2424 0.0833 0.3724
H18A H -0.0630 0.0998 0.4485
H15A H -0.2704 0.1100 0.7889
H16A H -0.4579 0.0992 0.7200
loop_
_geom_bond_atom_site_label_1
_geom_bond_atom_site_label_2
_geom_bond_site_symmetry_1
_geom_bond_site_symmetry_2
Mn1 N1 1_555 1_555
N1 C1 1_555 1_555
C1 C2 1_555 1_555
C2 C3 1_555 1_555
C3 C4 1_555 1_555
C4 C5 1_555 1_555
C5 N1 1_555 1_555
C6 C3 1_555 1_555
O1 Mn1 1_555 1_555
O2 Mn1 1_555 1_555
N2 C7 1_555 1_555
C7 C8 1_555 1_555
C8 C9 1_555 1_555
C9 C10 1_555 1_555
C10 C11 1_555 1_555
C11 N2 1_555 1_555
C12 C9 1_555 1_555
O3 C13 1_555 1_555
O4 C13 1_555 1_555
C13 C14 1_555 1_555
C14 C15 1_555 1_555
C15 H13 1_555 1_555
C16 C14 1_555 1_555
N3 C17 1_555 1_555
C17 C18 1_555 1_555
C18 C19 1_555 1_555
C19 C20 1_555 1_555
C20 C21 1_555 1_555
C21 N3 1_555 1_555
C22 C19 1_555 1_555
H1 O1 1_555 1_555
H2 O1 1_555 1_555
H3 O2 1_555 1_555
H4 O2 1_555 1_555
H5 C1 1_555 1_555
H6 C2 1_555 1_555
H7 C4 1_555 1_555
H8 C5 1_555 1_555
H9 C7 1_555 1_555
H10 C8 1_555 1_555
H11 C10 1_555 1_555
H12 C11 1_555 1_555
H14 C16 1_555 1_555
H15 C17 1_555 1_555
H16 C18 1_555 1_555
H17 C20 1_555 1_555
H18 C21 1_555 1_555
C6A C6 1_555 1_555
C3A C6A 1_555 1_555
C2A C3A 1_555 1_555
C1A C2A 1_555 1_555
N1A C1A 1_555 1_555
C5A N1A 1_555 1_555
C4A C3A 1_555 1_555
H7A C4A 1_555 1_555
H8A C5A 1_555 1_555
H5A C1A 1_555 1_555
H6A C2A 1_555 1_555
C12A C12 1_555 1_555
C9A C12A 1_555 1_555
C8A C9A 1_555 1_555
C7A C8A 1_555 1_555
N2A C7A 1_555 1_555
C11A N2A 1_555 1_555
C10A C9A 1_555 1_555
H11A C10A 1_555 1_555
H12A C11A 1_555 1_555
H9A C7A 1_555 1_555
H10A C8A 1_555 1_555
C16A C15 1_555 1_555
C14A C16A 1_555 1_555
C13A C14A 1_555 1_555
O3A C13A 1_555 1_555
O4A C13A 1_555 1_555
C15A C16 1_555 1_555
H13A C15A 1_555 1_555
H14A C16A 1_555 1_555
C22A C22 1_555 1_555
C19A C22A 1_555 1_555
C18A C19A 1_555 1_555
C17A C18A 1_555 1_555
N3A C17A 1_555 1_555
C21A N3A 1_555 1_555
C20A C19A 1_555 1_555
H17A C20A 1_555 1_555
H18A C21A 1_555 1_555
H15A C17A 1_555 1_555
H16A C18A 1_555 1_555
N1A_2 Mn1 1_555 1_555
O1A Mn1 1_555 1_555
H1A O1A 1_555 1_555
H2A O1A 1_555 1_555
O2A Mn1 1_555 1_555
H3A O2A 1_555 1_555
H4A O2A 1_555 1_555
Mn1A N1A 1_555 1_555
C5A C4A 1_555 1_555
C11A C10A 1_555 1_555
C14A C15A 1_555 1_555
C21A C20A 1_555 1_555

#END
