
#######################################################################
#
#                 Cambridge Crystallographic Data Centre
#                                CCDC 
#
#######################################################################
#
# If this CIF has been generated from an entry in the Cambridge 
# Structural Database, then it will include bibliographic, chemical, 
# crystal, experimental, refinement or atomic coordinate data resulting 
# from the CCDC's data processing and validation procedures.
#
#######################################################################

data_VAQTAK
_symmetry_cell_setting           monoclinic
_symmetry_space_group_name_H-M   'P 21/c'
_symmetry_Int_Tables_number      14
_space_group_name_Hall           '-P 2ybc'
loop_
_symmetry_equiv_pos_site_id
_symmetry_equiv_pos_as_xyz
1 x,y,z
2 -x,1/2+y,1/2-z
3 -x,-y,-z
4 x,1/2-y,1/2+z
_cell_length_a                   10.9347(10)
_cell_length_b                   17.4867(15)
_cell_length_c                   13.2330(12)
_cell_angle_alpha                90
_cell_angle_beta                 101.5930(10)
_cell_angle_gamma                90
_cell_volume                     2478.69
loop_
_atom_site_label
_atom_site_type_symbol
_atom_site_fract_x
_atom_site_fract_y
_atom_site_fract_z
Eu1 Eu -0.171650(15) -0.043030(9) 0.411320(13)
Eu2 Eu 0.341690(16) -0.255160(9) 0.404900(13)
N1 N -0.1273(3) -0.11883(16) 0.2586(2)
N2 N 0.7895(3) -0.11969(16) 0.5682(2)
N3 N 0.3544(3) -0.12912(16) 0.3147(2)
O1 O -0.3610(3) -0.02849(18) 0.0760(2)
O2 O -0.2950(2) -0.01034(15) 0.2448(2)
O3 O -0.0161(2) -0.14948(14) 0.44848(19)
O4 O 0.1381(3) -0.21104(17) 0.3972(2)
O5 O 1.0060(3) -0.0240(2) 0.7580(2)
O6 O 0.9557(2) -0.00872(14) 0.58757(19)
O7 O 0.6758(2) -0.14646(14) 0.3772(2)
O8 O 0.5542(2) -0.23602(15) 0.4251(2)
O9 O 0.3444(2) -0.01163(14) 0.5261(2)
O10 O 0.3707(3) -0.13785(14) 0.51444(19)
O11 O 0.3253(3) -0.26132(14) 0.2198(2)
O12 O 0.3283(3) -0.20704(16) 0.0685(2)
O13 O -0.1678(2) 0.10016(14) 0.38915(19)
H1 H -0.2346 0.1237 0.3932
H2 H -0.1113 0.1228 0.4323
O14 O 0.4560(3) -0.38028(14) 0.4232(2)
H3 H 0.4168 -0.4221 0.4087
H4 H 0.5232 -0.3931 0.4641
O15 O 0.2011(3) -0.35981(17) 0.3375(2)
H5 H 0.1745 -0.3776 0.2773
H6 H 0.1538 -0.3797 0.3741
C1 C -0.2921(4) -0.0435(2) 0.1605(3)
C2 C -0.1931(4) -0.1041(2) 0.1641(3)
C3 C -0.1658(4) -0.1387(2) 0.0770(3)
H7 H -0.2131 -0.1280 0.0119
C4 C -0.0666(4) -0.1898(3) 0.0889(3)
H8 H -0.0466 -0.2140 0.0318
C5 C 0.0023(4) -0.2040(2) 0.1867(3)
H9 H 0.0700 -0.2373 0.1964
C6 C -0.0320(3) -0.1676(2) 0.2701(3)
C7 C 0.0356(3) -0.17702(19) 0.3802(3)
C8 C 0.9439(4) -0.0403(2) 0.6731(3)
C9 C 0.8484(3) -0.1033(2) 0.6642(3)
C10 C 0.8225(4) -0.1402(2) 0.7499(3)
H10 H 0.8670 -0.1287 0.8157
C11 C 0.7286(4) -0.1945(2) 0.7354(3)
H11 H 0.7086 -0.2201 0.7915
C12 C 0.6654(4) -0.2104(2) 0.6371(3)
H12 H 0.6007 -0.2459 0.6258
C13 C 0.6997(3) -0.1727(2) 0.5553(3)
C14 C 0.6382(3) -0.1849(2) 0.4433(3)
C15 C 0.3627(3) -0.0711(2) 0.4782(3)
C16 C 0.3730(3) -0.0633(2) 0.3675(3)
C17 C 0.3977(4) 0.0042(2) 0.3226(3)
H13 H 0.4127 0.0488 0.3614
C18 C 0.3999(4) 0.0047(2) 0.2185(3)
H14 H 0.4169 0.0496 0.1864
C19 C 0.3767(4) -0.0621(2) 0.1627(3)
H15 H 0.3753 -0.0627 0.0922
C20 C 0.3555(3) -0.1280(2) 0.2139(3)
C21 C 0.3345(4) -0.2052(2) 0.1634(3)
Eu1B Eu 0.171650(15) 0.043030(9) 0.588680(13)
Eu1_2 Eu 0.828350(15) -0.043030(9) 0.411320(13)
Eu1B_2 Eu 1.171650(15) 0.043030(9) 0.588680(13)
Eu2C Eu 0.341690(16) -0.244840(9) -0.095100(13)
N2_2 N -0.2105(3) -0.11969(16) 0.5682(2)
O6_2 O -0.0443(2) -0.00872(14) 0.58757(19)
O6B O 0.0443(2) 0.00872(14) 0.41243(19)
O7_2 O -0.3242(2) -0.14646(14) 0.3772(2)
O9B O -0.3444(2) 0.01163(14) 0.4739(2)
O12C O 0.3283(3) -0.29296(16) 0.5685(2)
O16 O 0.9277(12) 0.0593(6) 0.0327(10)
H16 H 0.8822 0.0428 -0.0286
H17 H 0.9676 0.0223 0.0130
loop_
_geom_bond_atom_site_label_1
_geom_bond_atom_site_label_2
_geom_bond_site_symmetry_1
_geom_bond_site_symmetry_2
Eu1 N1 1_555 1_555
Eu2 N3 1_555 1_555
N1 C2 1_555 1_555
N2 C9 1_555 1_555
N3 C16 1_555 1_555
O1 C1 1_555 1_555
O2 Eu1 1_555 1_555
O3 Eu1 1_555 1_555
O4 Eu2 1_555 1_555
O5 C8 1_555 1_555
O6 C8 1_555 1_555
O7 C14 1_555 1_555
O8 Eu2 1_555 1_555
O9 C15 1_555 1_555
O10 Eu2 1_555 1_555
O11 Eu2 1_555 1_555
O12 C21 1_555 1_555
O13 Eu1 1_555 1_555
H1 O13 1_555 1_555
H2 O13 1_555 1_555
O14 Eu2 1_555 1_555
H3 O14 1_555 1_555
H4 O14 1_555 1_555
O15 Eu2 1_555 1_555
H5 O15 1_555 1_555
H6 O15 1_555 1_555
C1 O2 1_555 1_555
C2 C1 1_555 1_555
C3 C2 1_555 1_555
H7 C3 1_555 1_555
C4 C3 1_555 1_555
H8 C4 1_555 1_555
C5 C4 1_555 1_555
H9 C5 1_555 1_555
C6 N1 1_555 1_555
C7 O3 1_555 1_555
C8 C9 1_555 1_555
C9 C10 1_555 1_555
C10 H10 1_555 1_555
C11 C10 1_555 1_555
H11 C11 1_555 1_555
C12 C11 1_555 1_555
H12 C12 1_555 1_555
C13 N2 1_555 1_555
C14 O8 1_555 1_555
C15 O10 1_555 1_555
C16 C15 1_555 1_555
C17 C16 1_555 1_555
H13 C17 1_555 1_555
C18 C17 1_555 1_555
H14 C18 1_555 1_555
C19 C18 1_555 1_555
H15 C19 1_555 1_555
C20 N3 1_555 1_555
C21 O11 1_555 1_555
O16 H16 1_555 1_555
H17 O16 1_555 1_555
Eu1B O9 1_555 1_555
Eu1_2 N2 1_555 1_555
Eu1B_2 O6 1_555 1_555
Eu2C O12 1_555 1_555
N2_2 Eu1 1_555 1_555
O6_2 Eu1 1_555 1_555
O6B Eu1 1_555 1_555
O7_2 Eu1 1_555 1_555
O9B Eu1 1_555 1_555
O12C Eu2 1_555 1_555
O4 C7 1_555 1_555
O6 Eu1_2 1_555 1_555
O7 Eu1_2 1_555 1_555
C5 C6 1_555 1_555
C6 C7 1_555 1_555
C12 C13 1_555 1_555
C13 C14 1_555 1_555
C19 C20 1_555 1_555
C20 C21 1_555 1_555
Eu1B O6_2 1_555 1_555
Eu1B O6B 1_555 1_555

#END
