
#######################################################################
#
#                 Cambridge Crystallographic Data Centre
#                                CCDC 
#
#######################################################################
#
# If this CIF has been generated from an entry in the Cambridge 
# Structural Database, then it will include bibliographic, chemical, 
# crystal, experimental, refinement or atomic coordinate data resulting 
# from the CCDC's data processing and validation procedures.
#
#######################################################################

data_VARSEO
_symmetry_cell_setting           triclinic
_symmetry_space_group_name_H-M   'P -1'
_symmetry_Int_Tables_number      2
_space_group_name_Hall           '-P 1'
loop_
_symmetry_equiv_pos_site_id
_symmetry_equiv_pos_as_xyz
1 x,y,z
2 -x,-y,-z
_cell_length_a                   10.9990(5)
_cell_length_b                   13.6014(6)
_cell_length_c                   17.0316(8)
_cell_angle_alpha                85.900(4)
_cell_angle_beta                 89.532(4)
_cell_angle_gamma                85.018(4)
_cell_volume                     2531.83
loop_
_atom_site_label
_atom_site_type_symbol
_atom_site_fract_x
_atom_site_fract_y
_atom_site_fract_z
Cd1 Cd 0.15733(3) 0.46954(2) 0.109508(19)
Cd2 Cd 0.98309(3) 0.20768(3) -0.51176(2)
O1 O 0.2637(2) 0.1583(2) 0.03689(16)
O2 O 0.1651(3) 0.3916(2) -0.01634(18)
O3 O 0.5553(2) 0.1691(3) -0.17110(16)
O4 O 0.6861(3) 0.1617(3) 0.09414(17)
O5 O 0.9352(3) 0.0899(3) -0.4142(2)
O6 O 0.0761(3) 0.3195(2) 0.08505(18)
O7 O 0.9295(3) 0.1968(3) 0.1482(2)
O8 O 0.8260(3) 0.3252(2) 0.2001(2)
O9 O -0.0997(3) 0.3830(2) -0.0537(2)
O10 O 0.5796(3) 0.2625(3) -0.3550(2)
O11 O 0.8436(3) 0.2373(3) -0.39730(19)
O12 O 0.6770(3) 0.3369(2) -0.26820(19)
C1 C 0.4699(3) 0.1646(3) 0.0658(2)
H1 H 0.4488 0.1689 0.1186
N1 N 0.3611(3) 0.5015(3) 0.1131(2)
C2 C 1.1733(5) 0.3503(6) -0.4545(6)
C3 C 0.6571(4) 0.1162(3) -0.1998(2)
C4 C -0.0067(3) 0.2286(3) -0.0839(3)
C5 C 0.3800(3) 0.1615(3) 0.0089(2)
C6 C 0.0892(3) 0.2341(3) -0.0306(2)
N2 N 0.2514(3) 0.3730(3) 0.2125(2)
C7 C 0.5325(3) 0.1623(3) -0.0910(2)
C8 C 0.4075(5) 0.5702(4) 0.0653(3)
H2 H 0.3570 0.6051 0.0274
C9 C 0.8050(4) 0.1048(3) -0.3036(2)
C10 C 1.1664(10) 0.4870(7) -0.5528(7)
H3 H 1.2315 0.5116 -0.5283
C11 C 0.6808(4) 0.1229(3) 0.1719(2)
C12 C -0.0164(4) 0.1417(4) -0.1194(3)
H4 H -0.0782 0.1388 -0.1559
C13 C 0.5893(4) 0.1612(3) 0.0427(2)
C14 C 0.1092(3) 0.3224(3) 0.0138(2)
C15 C 0.6996(4) 0.0249(4) -0.1684(3)
H5 H 0.6635 -0.0022 -0.1233
C16 C 0.1695(3) 0.1508(3) -0.0168(2)
C17 C 0.4112(4) 0.1602(3) -0.0704(2)
H6 H 0.3517 0.1580 -0.1085
C18 C 0.6236(3) 0.1617(3) -0.0358(2)
H7 H 0.7052 0.1615 -0.0506
C19 C 0.7082(4) 0.1591(3) -0.2679(2)
C20 C 0.1562(4) 0.0642(3) -0.0513(3)
H8 H 0.2107 0.0090 -0.0397
C21 C 0.7582(4) 0.1291(4) 0.3023(3)
C22 C 0.6112(4) 0.0158(4) 0.2761(3)
H9 H 0.5637 -0.0347 0.2938
C23 C 0.1951(5) 0.3059(4) 0.2570(3)
H10 H 0.1115 0.3045 0.2502
N3 N 1.1341(4) 0.2624(4) -0.4314(4)
C24 C 0.7584(3) 0.1623(3) 0.2222(2)
C25 C 0.4301(4) 0.4506(4) 0.1683(3)
C26 C 0.8642(4) 0.1480(4) -0.3765(3)
C27 C 0.6520(4) 0.2576(4) -0.3015(3)
C28 C 0.7960(4) -0.0274(4) -0.2033(3)
H11 H 0.8263 -0.0891 -0.1813
C29 C 0.6092(4) 0.0486(3) 0.1972(3)
H12 H 0.5602 0.0210 0.1619
O13 O -0.1517(4) 0.3252(3) -0.1636(3)
C30 C 0.8471(4) 0.0126(4) -0.2714(3)
H13 H 0.9107 -0.0232 -0.2958
C31 C 0.4380(6) 0.3105(5) 0.2743(4)
H14 H 0.5216 0.3137 0.2799
C32 C 0.3712(4) 0.3761(4) 0.2196(3)
C33 C 0.0631(4) 0.0594(4) -0.1025(3)
H15 H 0.0533 0.0009 -0.1259
C34 C 1.1197(6) 0.4030(5) -0.5265(5)
C35 C 0.6821(4) 0.0567(4) 0.3277(3)
H16 H 0.6796 0.0360 0.3809
N4 N 1.0284(5) 0.3624(4) -0.5589(3)
C36 C 0.5271(5) 0.5916(4) 0.0694(4)
H17 H 0.5576 0.6403 0.0354
C37 C 0.8413(4) 0.2377(3) 0.1902(2)
C38 C 0.2504(7) 0.2401(5) 0.3112(4)
H18 H 0.2068 0.1957 0.3418
C39 C 0.5536(5) 0.4704(5) 0.1771(4)
H19 H 0.6018 0.4376 0.2171
C40 C -0.0942(4) 0.3181(3) -0.1031(3)
C41 C 0.5996(5) 0.5388(6) 0.1252(5)
H20 H 0.6817 0.5498 0.1279
C42 C 0.9770(8) 0.4073(5) -0.6223(4)
H21 H 0.9136 0.3790 -0.6457
C43 C 1.1731(8) 0.2115(7) -0.3639(6)
H22 H 1.1439 0.1503 -0.3504
C44 C 0.8425(5) 0.1685(4) 0.3593(3)
C45 C 0.3784(7) 0.2421(6) 0.3191(4)
H23 H 0.4217 0.1972 0.3546
C46 C 1.0153(12) 0.4984(6) -0.6568(5)
H24 H 0.9783 0.5308 -0.7015
C47 C 1.1093(12) 0.5347(7) -0.6200(8)
H25 H 1.1370 0.5940 -0.6405
C48 C 1.2594(8) 0.3904(9) -0.4093(9)
H26 H 1.2880 0.4513 -0.4245
C49 C 1.2557(10) 0.2475(11) -0.3138(8)
H27 H 1.2788 0.2145 -0.2658
C50 C 1.3015(10) 0.3364(10) -0.3407(11)
H28 H 1.3623 0.3606 -0.3118
O14 O 0.9442(3) 0.1881(3) 0.3372(2)
H29 H 0.9999 0.2215 0.3478
O15 O 0.8053(4) 0.1763(4) 0.4280(2)
O16 O -0.0498(3) 0.4947(3) 0.1509(2)
H30 H -0.0775 0.4384 0.1510
H31 H -0.0676 0.5282 0.1078
O17 O 1.1297(3) 0.0893(3) -0.5430(3)
H34 H 1.2023(17) 0.097(3) -0.533(3)
H35 H 1.116(3) 0.0297(12) -0.543(3)
H38 H 0.968(4) 0.240(3) 0.127(3)
Cd1A Cd -0.15733(3) 0.53046(2) -0.109508(19)
Cd2_2 Cd 0.98309(3) 0.20768(3) 0.48824(2)
O9A O 0.0997(3) 0.6170(2) 0.0537(2)
O14_2 O 0.9442(3) 0.1881(3) -0.6628(2)
H29_2 H 0.9999 0.2215 -0.6522
O15_2 O 0.8053(4) 0.1763(4) -0.5720(2)
O18 O -0.5914(5) 0.8595(5) -0.5164(4)
H36 H -0.637(8) 0.820(6) -0.491(4)
H37 H -0.573(8) 0.838(7) -0.561(3)
O19 O -1.3746(4) 0.9321(4) 0.5317(4)
H32 H -1.4088 0.9915 0.5324
H33 H -1.4285 0.8977 0.5040
loop_
_geom_bond_atom_site_label_1
_geom_bond_atom_site_label_2
_geom_bond_site_symmetry_1
_geom_bond_site_symmetry_2
Cd1 O2 1_555 1_555
Cd2 O5 1_555 1_555
O1 C5 1_555 1_555
O2 C14 1_555 1_555
O3 C3 1_555 1_555
O4 C11 1_555 1_555
O5 C26 1_555 1_555
O6 Cd1 1_555 1_555
O7 C37 1_555 1_555
O8 C37 1_555 1_555
O9 C40 1_555 1_555
O10 C27 1_555 1_555
O11 Cd2 1_555 1_555
O12 C27 1_555 1_555
C1 H1 1_555 1_555
N1 Cd1 1_555 1_555
C2 N3 1_555 1_555
C3 C15 1_555 1_555
C4 C6 1_555 1_555
C5 C1 1_555 1_555
C6 C14 1_555 1_555
N2 Cd1 1_555 1_555
C7 O3 1_555 1_555
C8 N1 1_555 1_555
H2 C8 1_555 1_555
C9 C19 1_555 1_555
C10 H3 1_555 1_555
C11 C24 1_555 1_555
C12 C4 1_555 1_555
H4 C12 1_555 1_555
C13 O4 1_555 1_555
C14 O6 1_555 1_555
C15 H5 1_555 1_555
C16 O1 1_555 1_555
C17 C5 1_555 1_555
H6 C17 1_555 1_555
C18 C7 1_555 1_555
H7 C18 1_555 1_555
C19 C3 1_555 1_555
C20 C16 1_555 1_555
H8 C20 1_555 1_555
C21 C24 1_555 1_555
C22 H9 1_555 1_555
C23 N2 1_555 1_555
H10 C23 1_555 1_555
N3 Cd2 1_555 1_555
C24 C37 1_555 1_555
C25 N1 1_555 1_555
C26 O11 1_555 1_555
C27 C19 1_555 1_555
C28 C15 1_555 1_555
H11 C28 1_555 1_555
C29 C11 1_555 1_555
H12 C29 1_555 1_555
O13 C40 1_555 1_555
C30 C9 1_555 1_555
H13 C30 1_555 1_555
C31 H14 1_555 1_555
C32 N2 1_555 1_555
C33 C12 1_555 1_555
H15 C33 1_555 1_555
C34 C2 1_555 1_555
C35 C21 1_555 1_555
H16 C35 1_555 1_555
N4 Cd2 1_555 1_555
C36 C8 1_555 1_555
H17 C36 1_555 1_555
C38 C23 1_555 1_555
H18 C38 1_555 1_555
C39 C25 1_555 1_555
H19 C39 1_555 1_555
C40 C4 1_555 1_555
C41 C36 1_555 1_555
H20 C41 1_555 1_555
C42 N4 1_555 1_555
H21 C42 1_555 1_555
C43 N3 1_555 1_555
H22 C43 1_555 1_555
C44 C21 1_555 1_555
C45 C31 1_555 1_555
H23 C45 1_555 1_555
C46 C42 1_555 1_555
H24 C46 1_555 1_555
C47 C10 1_555 1_555
H25 C47 1_555 1_555
C48 C2 1_555 1_555
H26 C48 1_555 1_555
C49 C43 1_555 1_555
H27 C49 1_555 1_555
C50 C48 1_555 1_555
H28 C50 1_555 1_555
O14 C44 1_555 1_555
H29 O14 1_555 1_555
O15 C44 1_555 1_555
O16 Cd1 1_555 1_555
H30 O16 1_555 1_555
H31 O16 1_555 1_555
O17 Cd2 1_555 1_555
O18 H36 1_555 1_555
O19 H32 1_555 1_555
H33 O19 1_555 1_555
H34 O17 1_555 1_555
H35 O17 1_555 1_555
H37 O18 1_555 1_555
H38 O7 1_555 1_555
Cd1A O9 1_555 1_555
Cd2_2 O14 1_555 1_555
O9A Cd1 1_555 1_555
O14_2 Cd2 1_555 1_555
H29_2 O14_2 1_555 1_555
O15_2 Cd2 1_555 1_555
C1 C13 1_555 1_555
C6 C16 1_555 1_555
C7 C17 1_555 1_555
C9 C26 1_555 1_555
C10 C34 1_555 1_555
C13 C18 1_555 1_555
C20 C33 1_555 1_555
C22 C29 1_555 1_555
C22 C35 1_555 1_555
C25 C32 1_555 1_555
C28 C30 1_555 1_555
C31 C32 1_555 1_555
C34 N4 1_555 1_555
C38 C45 1_555 1_555
C39 C41 1_555 1_555
C46 C47 1_555 1_555
C49 C50 1_555 1_555
O15 Cd2_2 1_555 1_555

#END
