
#######################################################################
#
#                 Cambridge Crystallographic Data Centre
#                                CCDC 
#
#######################################################################
#
# If this CIF has been generated from an entry in the Cambridge 
# Structural Database, then it will include bibliographic, chemical, 
# crystal, experimental, refinement or atomic coordinate data resulting 
# from the CCDC's data processing and validation procedures.
#
#######################################################################

data_VARSAK
_symmetry_cell_setting           triclinic
_symmetry_space_group_name_H-M   'P -1'
_symmetry_Int_Tables_number      2
_space_group_name_Hall           '-P 1'
loop_
_symmetry_equiv_pos_site_id
_symmetry_equiv_pos_as_xyz
1 x,y,z
2 -x,-y,-z
_cell_length_a                   9.9463(4)
_cell_length_b                   11.4097(5)
_cell_length_c                   20.8990(9)
_cell_angle_alpha                95.096(3)
_cell_angle_beta                 103.663(4)
_cell_angle_gamma                102.868(3)
_cell_volume                     2221.53
loop_
_atom_site_label
_atom_site_type_symbol
_atom_site_fract_x
_atom_site_fract_y
_atom_site_fract_z
C1 C 0.3576(3) -0.1454(2) 0.57875(12)
C2 C 0.3614(3) -0.2315(2) 0.43831(12)
C3 C 0.3138(3) -0.2776(2) 0.54937(12)
C4 C 0.3346(3) -0.3166(2) 0.48773(12)
C5 C 0.3083(3) -0.4404(2) 0.46759(13)
C6 C 0.2527(3) -0.5250(3) 0.50381(14)
H1 H 0.2351 -0.6077 0.4891
C7 C 0.2236(3) -0.4854(3) 0.56211(14)
H2 H 0.1814 -0.5414 0.5858
C8 C 0.2571(3) -0.3619(2) 0.58541(13)
H3 H 0.2412 -0.3358 0.6258
C9 C -0.0892(3) -0.6080(3) 0.14699(13)
C10 C -0.2850(3) -0.7848(3) 0.02623(15)
C11 C -0.1913(3) -0.7255(2) 0.15178(13)
C12 C -0.2870(3) -0.8030(3) 0.09582(14)
C13 C -0.3914(3) -0.8994(3) 0.10329(16)
H4 H -0.4547 -0.9497 0.0658
C14 C -0.4023(4) -0.9218(3) 0.16621(18)
H5 H -0.4736 -0.9859 0.1710
C15 C -0.3066(3) -0.8483(3) 0.22186(16)
H6 H -0.3123 -0.8633 0.2643
C16 C -0.2030(3) -0.7527(3) 0.21386(14)
C17 C 0.1694(3) -1.2500(2) 0.15627(13)
C18 C 0.3028(3) -1.0690(2) 0.28146(12)
C19 C 0.1749(3) -1.1180(2) 0.15602(12)
C20 C 0.2337(3) -1.0355(2) 0.21528(12)
C21 C 0.2300(3) -0.9155(2) 0.21362(13)
C22 C 0.1746(4) -0.8744(3) 0.15538(15)
H7 H 0.1754 -0.7927 0.1552
C23 C 0.1180(4) -0.9564(3) 0.09769(15)
H8 H 0.0799 -0.9302 0.0581
C24 C 0.1176(4) -1.0765(3) 0.09824(14)
H9 H 0.0780 -1.1311 0.0589
C25 C 0.2494(3) -0.5763(2) 0.36599(13)
C26 C 0.3108(3) -0.6624(2) 0.34326(13)
H10 H 0.4074 -0.6580 0.3601
C27 C 0.2234(3) -0.7560(2) 0.29425(12)
C28 C 0.0786(3) -0.7667(2) 0.27104(13)
H11 H 0.0201 -0.8332 0.2404
C29 C 0.0229(3) -0.6766(2) 0.29435(13)
C30 C 0.1077(3) -0.5800(2) 0.34251(13)
H12 H 0.0693 -0.5197 0.3583
C31 C 0.3220(3) 0.1663(3) 0.74179(15)
H13 H 0.4056 0.1519 0.7669
C32 C 0.2301(4) 0.2044(4) 0.77432(17)
H14 H 0.2503 0.2136 0.8205
C33 C 0.1086(4) 0.2283(4) 0.73732(18)
H15 H 0.0459 0.2555 0.7581
C34 C 0.0806(3) 0.2117(3) 0.66935(17)
H16 H -0.0017 0.2274 0.6437
C35 C 0.1748(3) 0.1714(2) 0.63881(14)
C36 C 0.1515(2) 0.1504(2) 0.56564(13)
C37 C 0.0382(3) 0.1735(3) 0.52028(16)
H17 H -0.0314 0.2027 0.5347
C38 C 0.0300(3) 0.1524(3) 0.45326(15)
H18 H -0.0454 0.1675 0.4220
C39 C 0.1332(3) 0.1092(3) 0.43299(15)
H19 H 0.1291 0.0946 0.3880
C40 C 0.2429(3) 0.0879(2) 0.48045(14)
H20 H 0.3140 0.0596 0.4669
C41 C 0.4212(3) -0.4282(3) 0.26520(15)
H21 H 0.3677 -0.3890 0.2866
C42 C 0.5506(3) -0.4400(3) 0.30134(16)
H22 H 0.5827 -0.4123 0.3469
C43 C 0.6315(4) -0.4935(4) 0.26928(18)
H23 H 0.7204 -0.5010 0.2926
C44 C 0.5800(4) -0.5361(4) 0.20195(18)
H24 H 0.6342 -0.5723 0.1795
C45 C 0.4478(3) -0.5247(3) 0.16842(15)
C46 C 0.3820(3) -0.5691(3) 0.09670(16)
C47 C 0.4450(5) -0.6287(5) 0.0567(2)
H25 H 0.5339 -0.6430 0.0744
C48 C 0.3760(7) -0.6671(6) -0.0095(2)
H26 H 0.4165 -0.7098 -0.0365
C49 C 0.2483(5) -0.6424(5) -0.0352(2)
H27 H 0.2015 -0.6654 -0.0802
C50 C 0.1909(4) -0.5834(3) 0.00647(17)
H28 H 0.1028 -0.5675 -0.0109
O1 O 0.3033(2) -0.11129(16) 0.62329(9)
O2 O 0.44734(19) -0.07201(16) 0.55876(9)
O3 O 0.26123(19) -0.17836(18) 0.42023(9)
O4 O 0.46518(18) -0.22304(16) 0.41514(9)
O5 O 0.0397(2) -0.61081(18) 0.15519(10)
O6 O -0.1366(2) -0.5199(2) 0.13707(13)
O7 O -0.1653(3) -0.7186(2) 0.01962(11)
O8 O -0.3858(3) -0.8277(3) -0.02108(12)
O9 O 0.42664(18) -1.08134(17) 0.29016(8)
H29 H 0.4433 -1.0583 0.3306
O10 O 0.22953(19) -1.07645(18) 0.32313(9)
O11 O 0.1840(2) -1.29387(16) 0.20832(9)
O12 O 0.1454(2) -1.31843(17) 0.10078(10)
O13 O 0.3420(2) -0.47597(17) 0.40936(10)
O14 O -0.1179(2) -0.67299(19) 0.27117(9)
O15 O 0.2936(2) -0.83766(17) 0.27315(9)
Zn1 Zn 0.42093(3) 0.07770(3) 0.620977(15)
Zn2 Zn 0.17223(3) -0.46884(3) 0.143835(16)
N1 N 0.2953(2) 0.1496(2) 0.67575(11)
N2 N 0.2513(2) 0.10626(19) 0.54530(11)
N3 N 0.2545(3) -0.5471(2) 0.07103(12)
N4 N 0.3697(2) -0.4709(2) 0.20043(11)
H30 H 0.181(11) -1.311(10) 0.069(4)
O4A O 0.53482(18) 0.22304(16) 0.58486(9)
O9A O 0.57336(18) 0.08134(17) 0.70984(8)
H29A H 0.5567 0.0583 0.6694
O11_2 O 0.1840(2) -0.29387(16) 0.20832(9)
O12_2 O 0.1454(2) -0.31843(17) 0.10078(10)
Zn1A Zn 0.57907(3) -0.07770(3) 0.379023(15)
Zn1A_2 Zn 0.57907(3) -1.07770(3) 0.379023(15)
Zn2_2 Zn 0.17223(3) -1.46884(3) 0.143835(16)
H30_2 H 0.181(11) -0.311(10) 0.069(4)
loop_
_geom_bond_atom_site_label_1
_geom_bond_atom_site_label_2
_geom_bond_site_symmetry_1
_geom_bond_site_symmetry_2
C1 C3 1_555 1_555
C2 C4 1_555 1_555
C3 C4 1_555 1_555
C4 C5 1_555 1_555
C5 C6 1_555 1_555
C6 H1 1_555 1_555
C7 C6 1_555 1_555
H2 C7 1_555 1_555
C8 C3 1_555 1_555
H3 C8 1_555 1_555
C9 C11 1_555 1_555
C10 C12 1_555 1_555
C11 C12 1_555 1_555
C12 C13 1_555 1_555
C13 H4 1_555 1_555
C14 C13 1_555 1_555
H5 C14 1_555 1_555
C15 C14 1_555 1_555
H6 C15 1_555 1_555
C16 C11 1_555 1_555
C17 C19 1_555 1_555
C18 C20 1_555 1_555
C19 C20 1_555 1_555
C20 C21 1_555 1_555
C21 C22 1_555 1_555
C22 H7 1_555 1_555
C23 C22 1_555 1_555
H8 C23 1_555 1_555
C24 C19 1_555 1_555
H9 C24 1_555 1_555
C25 C26 1_555 1_555
C26 H10 1_555 1_555
C27 C26 1_555 1_555
C28 C27 1_555 1_555
H11 C28 1_555 1_555
C29 C28 1_555 1_555
C30 C25 1_555 1_555
H12 C30 1_555 1_555
C31 H13 1_555 1_555
C32 C31 1_555 1_555
H14 C32 1_555 1_555
C33 C32 1_555 1_555
H15 C33 1_555 1_555
C34 C33 1_555 1_555
H16 C34 1_555 1_555
C35 C34 1_555 1_555
C36 C35 1_555 1_555
C37 C36 1_555 1_555
H17 C37 1_555 1_555
C38 C37 1_555 1_555
H18 C38 1_555 1_555
C39 C38 1_555 1_555
H19 C39 1_555 1_555
C40 C39 1_555 1_555
H20 C40 1_555 1_555
C41 H21 1_555 1_555
C42 C41 1_555 1_555
H22 C42 1_555 1_555
C43 C42 1_555 1_555
H23 C43 1_555 1_555
C44 C43 1_555 1_555
H24 C44 1_555 1_555
C45 C44 1_555 1_555
C46 C45 1_555 1_555
C47 C46 1_555 1_555
H25 C47 1_555 1_555
C48 C47 1_555 1_555
H26 C48 1_555 1_555
C49 C48 1_555 1_555
H27 C49 1_555 1_555
C50 C49 1_555 1_555
H28 C50 1_555 1_555
O1 C1 1_555 1_555
O2 C1 1_555 1_555
O3 C2 1_555 1_555
O4 C2 1_555 1_555
O5 C9 1_555 1_555
O6 C9 1_555 1_555
O7 C10 1_555 1_555
O8 C10 1_555 1_555
O9 C18 1_555 1_555
H29 O9 1_555 1_555
O10 C18 1_555 1_555
O11 C17 1_555 1_555
O12 C17 1_555 1_555
O13 C5 1_555 1_555
O14 C16 1_555 1_555
O15 C21 1_555 1_555
Zn1 O1 1_555 1_555
Zn2 O5 1_555 1_555
N1 C31 1_555 1_555
N2 C36 1_555 1_555
N3 C46 1_555 1_555
N4 C41 1_555 1_555
H30 O12 1_555 1_555
O4A Zn1 1_555 1_555
O9A Zn1 1_555 1_555
H29A O9A 1_555 1_555
O11_2 Zn2 1_555 1_555
O12_2 Zn2 1_555 1_555
Zn1A O4 1_555 1_555
Zn1A_2 O9 1_555 1_555
Zn2_2 O11 1_555 1_555
H30_2 O12_2 1_555 1_555
C7 C8 1_555 1_555
C15 C16 1_555 1_555
C23 C24 1_555 1_555
C25 O13 1_555 1_555
C27 O15 1_555 1_555
C29 C30 1_555 1_555
C29 O14 1_555 1_555
C35 N1 1_555 1_555
C40 N2 1_555 1_555
C45 N4 1_555 1_555
C50 N3 1_555 1_555
O2 Zn1 1_555 1_555
O12 Zn2_2 1_555 1_555
Zn1 N1 1_555 1_555
Zn1 N2 1_555 1_555
Zn2 N3 1_555 1_555
Zn2 N4 1_555 1_555

#END
