
#######################################################################
#
#                 Cambridge Crystallographic Data Centre
#                                CCDC 
#
#######################################################################
#
# If this CIF has been generated from an entry in the Cambridge 
# Structural Database, then it will include bibliographic, chemical, 
# crystal, experimental, refinement or atomic coordinate data resulting 
# from the CCDC's data processing and validation procedures.
#
#######################################################################

data_VARWOC
_symmetry_cell_setting           orthorhombic
_symmetry_space_group_name_H-M   'P 21 21 21'
_symmetry_Int_Tables_number      19
_space_group_name_Hall           'P 2ac 2ab'
loop_
_symmetry_equiv_pos_site_id
_symmetry_equiv_pos_as_xyz
1 x,y,z
2 1/2-x,-y,1/2+z
3 1/2+x,1/2-y,-z
4 -x,1/2+y,1/2-z
_cell_length_a                   11.561(5)
_cell_length_b                   20.816(8)
_cell_length_c                   23.676(9)
_cell_angle_alpha                90
_cell_angle_beta                 90
_cell_angle_gamma                90
_cell_volume                     5697.72
loop_
_atom_site_label
_atom_site_type_symbol
_atom_site_fract_x
_atom_site_fract_y
_atom_site_fract_z
Eu1 Eu 0.58077(5) 0.96420(3) 0.26840(3)
Eu2 Eu 0.91725(5) 0.97328(3) 0.26576(3)
Eu3 Eu 0.75634(6) 0.87699(2) 0.15193(2)
Eu4 Eu 0.73532(6) 1.06703(2) 0.15705(2)
O1 O 0.7409(8) 1.0330(3) 0.2563(3)
H1 H 0.7382 1.0697 0.2821
N1 N 1.1009(11) 1.1812(6) 0.2940(6)
H2 H 1.1308 1.2163 0.3098
H3 H 1.1470 1.1679 0.2662
H4 H 1.0947 1.1504 0.3199
C1 C 0.9313(12) 1.1362(5) 0.2445(6)
O2 O 0.8622(8) 0.9760(4) 0.1693(4)
H5 H 0.9301 0.9793 0.1447
C2 C 0.9841(13) 1.1963(6) 0.2706(6)
H6 H 0.9347 1.2090 0.3023
N2 N 0.8609(13) 0.9176(7) 0.4687(5)
H7 H 0.8598 0.9154 0.5062
H8 H 0.9231 0.9394 0.4576
H9 H 0.8632 0.8781 0.4544
O3 O 0.7524(9) 0.9051(3) 0.2513(3)
H10 H 0.7563 0.8667 0.2752
C3 C 0.9921(12) 1.2531(6) 0.2308(6)
H11 H 0.9160 1.2605 0.2149
H12 H 1.0430 1.2414 0.1999
N3 N 0.3813(14) 0.7552(7) 0.2787(9)
H13 H 0.3506 0.7194 0.2928
H14 H 0.3399 0.7681 0.2491
H15 H 0.3810 0.7858 0.3049
O4 O 0.6240(8) 0.9679(4) 0.1706(4)
H16 H 0.5544 0.9665 0.1470
C4 C 1.0352(10) 1.3160(6) 0.2558(6)
O5 O 0.9776(8) 1.0841(4) 0.2575(5)
C5 C 0.7540(14) 0.9552(6) 0.3839(4)
C6 C 0.7569(13) 0.9503(6) 0.4489(4)
H17 H 0.6889 0.9262 0.4617
O6 O 0.8486(11) 1.1460(5) 0.2120(5)
O7 O 1.1004(9) 1.3132(5) 0.2973(5)
C7 C 0.7492(15) 1.0185(6) 0.4713(5)
H18 H 0.8134 1.0430 0.4562
H19 H 0.6784 1.0379 0.4573
O8 O 1.0072(9) 1.3671(5) 0.2324(6)
C8 C 0.7508(13) 1.0241(5) 0.5350(5)
O9 O 0.6573(10) 0.9596(6) 0.3620(4)
C9 C 0.5532(13) 0.8047(6) 0.2372(7)
O10 O 0.8509(10) 0.9564(6) 0.3602(4)
C10 C 0.5020(13) 0.7424(6) 0.2606(7)
H20 H 0.5462 0.7311 0.2945
O11 O 0.7438(11) 1.0795(4) 0.5556(3)
C11 C 0.5072(13) 0.6854(6) 0.2210(6)
H21 H 0.5858 0.6810 0.2073
H22 H 0.4581 0.6942 0.1886
O12 O 0.7548(10) 0.9737(4) 0.5629(4)
C12 C 0.4700(12) 0.6220(6) 0.2470(6)
O13 O 0.5124(10) 0.8564(4) 0.2556(5)
O14 O 0.6325(10) 0.7983(4) 0.2014(4)
O15 O 0.4140(10) 0.6246(4) 0.2915(4)
O16 O 0.4962(8) 0.5712(4) 0.2210(5)
O17 O 0.3873(11) 0.9675(6) 0.2185(6)
O18 O 0.4267(10) 0.9473(5) 0.3409(5)
O19 O 1.0801(10) 0.9851(6) 0.3308(5)
O20 O 1.0993(11) 0.9730(6) 0.2083(6)
O21 O 0.5685(13) 0.8577(6) 0.0989(6)
O22 O 0.9469(11) 0.8654(6) 0.1017(6)
O23 O 0.7689(12) 0.7718(6) 0.1032(5)
O24 O 0.9254(12) 1.0944(7) 0.1077(6)
O25 O 0.7107(11) 1.1766(5) 0.1125(6)
O26 O 0.5451(11) 1.0816(5) 0.0980(5)
Eu1C Eu 0.41923(5) 0.46420(3) 0.23160(3)
Eu2C Eu 1.08275(5) 1.47328(3) 0.23424(3)
Eu3C Eu 1.24366(6) 1.37699(2) 0.34807(2)
Eu3A Eu 0.74366(6) 1.12301(2) 0.65193(2)
Eu4A Eu 0.76468(6) 0.93297(2) 0.65705(2)
Eu4C Eu 0.26468(6) 0.56703(2) 0.34295(2)
O7C O 0.8996(9) 0.8132(5) 0.2027(5)
O8C O 0.9928(9) 0.8671(5) 0.2676(6)
O11A O 0.7562(11) 0.9205(4) 0.0556(3)
O12A O 0.7452(10) 1.0263(4) 0.0629(4)
O15C O 0.5860(10) 1.1246(4) 0.2085(4)
O16C O 0.5038(8) 1.0712(4) 0.2790(5)
Cl1 Cl 1.2460(4) 1.12871(19) 0.15485(16)
O27 O 1.3326(14) 1.1538(9) 0.1183(8)
O28 O 1.1411(11) 1.1535(9) 0.1409(9)
O29 O 1.2765(18) 1.1443(12) 0.2102(6)
O30 O 1.247(2) 1.0617(6) 0.1483(9)
Cl2 Cl 0.5110(6) 0.7865(3) 0.4497(3)
O31 O 0.6299(13) 0.7971(10) 0.4522(10)
O32 O 0.465(2) 0.8127(10) 0.4003(8)
O33 O 0.4886(19) 0.7198(7) 0.4509(10)
O34 O 0.4575(19) 0.8149(10) 0.4972(8)
Cl3 Cl 0.2528(4) 0.8200(2) 0.1386(2)
O35 O 0.2649(19) 0.8862(7) 0.1407(10)
O36 O 0.3588(14) 0.7904(10) 0.1347(10)
O37 O 0.1981(18) 0.7999(10) 0.1891(8)
O38 O 0.1829(17) 0.8029(10) 0.0936(8)
Cl4 Cl 0.4727(6) 0.8507(3) -0.0530(3)
O39 O 0.3654 0.8749 -0.0496(10)
O40 O 0.4691(14) 0.7843(7) -0.0537(11)
O41 O 0.521(2) 0.8700(14) -0.1049(7)
O42 O 0.5419 0.8714 -0.0108(8)
Cl5 Cl 1.0933(4) 0.9859(2) 0.0005(2)
O43 O 1.0147 1.0139 0.0390
O44 O 1.0918 1.0213 -0.0498(3)
O45 O 1.2049 0.9867 0.0238
O46 O 1.0596 0.9221 -0.0093(4)
O47 O 1.2392(15) 0.8619(7) 0.3185(7)
O48 O 1.0839(15) 0.9632(8) 0.4503(9)
O49 O 1.1438(15) 0.7805(9) 0.4037(8)
O50 O 1.208(2) 0.8606(10) 0.4936(10)
O51 O 0.9032(14) 0.7952(8) 0.4197(7)
O52 O 0.7374(17) 0.8050(7) 0.3359(6)
O53 O 0.598(3) 0.6919(17) 0.0629(17)
O54 O 0.4137(19) 0.9794(8) 0.0767(8)
O55 O 0.7499(18) 1.1257(7) 0.3482(5)
O56 O 0.656(4) 1.1750(14) 0.4584(18)
O57 O 1.2638(16) 1.0758(7) 0.3338(7)
loop_
_geom_bond_atom_site_label_1
_geom_bond_atom_site_label_2
_geom_bond_site_symmetry_1
_geom_bond_site_symmetry_2
Eu1 O1 1_555 1_555
Eu2 O1 1_555 1_555
Eu3 O2 1_555 1_555
Eu4 O1 1_555 1_555
O1 H1 1_555 1_555
N1 H2 1_555 1_555
H3 N1 1_555 1_555
H4 N1 1_555 1_555
C1 C2 1_555 1_555
O2 Eu2 1_555 1_555
H5 O2 1_555 1_555
C2 N1 1_555 1_555
H6 C2 1_555 1_555
N2 H7 1_555 1_555
H8 N2 1_555 1_555
H9 N2 1_555 1_555
O3 Eu1 1_555 1_555
H10 O3 1_555 1_555
C3 C2 1_555 1_555
H11 C3 1_555 1_555
H12 C3 1_555 1_555
N3 H13 1_555 1_555
H14 N3 1_555 1_555
H15 N3 1_555 1_555
O4 Eu1 1_555 1_555
H16 O4 1_555 1_555
C4 C3 1_555 1_555
O5 Eu2 1_555 1_555
C5 C6 1_555 1_555
C6 N2 1_555 1_555
H17 C6 1_555 1_555
O6 Eu4 1_555 1_555
O7 C4 1_555 1_555
C7 C6 1_555 1_555
H18 C7 1_555 1_555
H19 C7 1_555 1_555
O8 C4 1_555 1_555
C8 C7 1_555 1_555
O9 Eu1 1_555 1_555
C9 C10 1_555 1_555
O10 Eu2 1_555 1_555
C10 N3 1_555 1_555
H20 C10 1_555 1_555
O11 C8 1_555 1_555
C11 C10 1_555 1_555
H21 C11 1_555 1_555
H22 C11 1_555 1_555
O12 C8 1_555 1_555
C12 C11 1_555 1_555
O13 Eu1 1_555 1_555
O14 Eu3 1_555 1_555
O15 C12 1_555 1_555
O16 C12 1_555 1_555
O17 Eu1 1_555 1_555
O18 Eu1 1_555 1_555
O19 Eu2 1_555 1_555
O20 Eu2 1_555 1_555
O21 Eu3 1_555 1_555
O22 Eu3 1_555 1_555
O23 Eu3 1_555 1_555
O24 Eu4 1_555 1_555
O25 Eu4 1_555 1_555
O26 Eu4 1_555 1_555
Cl1 O27 1_555 1_555
O28 Cl1 1_555 1_555
O29 Cl1 1_555 1_555
O30 Cl1 1_555 1_555
Cl2 O31 1_555 1_555
O32 Cl2 1_555 1_555
O33 Cl2 1_555 1_555
O34 Cl2 1_555 1_555
Cl3 O35 1_555 1_555
O36 Cl3 1_555 1_555
O37 Cl3 1_555 1_555
O38 Cl3 1_555 1_555
Cl4 O39 1_555 1_555
O40 Cl4 1_555 1_555
O41 Cl4 1_555 1_555
O42 Cl4 1_555 1_555
Cl5 O43 1_555 1_555
O44 Cl5 1_555 1_555
O45 Cl5 1_555 1_555
O46 Cl5 1_555 1_555
Eu1C O16 1_555 1_555
Eu2C O8 1_555 1_555
Eu3C O7 1_555 1_555
Eu3A O11 1_555 1_555
Eu4A O12 1_555 1_555
Eu4C O15 1_555 1_555
O7C Eu3 1_555 1_555
O8C Eu2 1_555 1_555
O11A Eu3 1_555 1_555
O12A Eu4 1_555 1_555
O15C Eu4 1_555 1_555
O16C Eu1 1_555 1_555
Eu2 O3 1_555 1_555
Eu3 O3 1_555 1_555
Eu3 O4 1_555 1_555
Eu4 O2 1_555 1_555
Eu4 O4 1_555 1_555
C1 O5 1_555 1_555
C1 O6 1_555 1_555
C5 O9 1_555 1_555
C5 O10 1_555 1_555
C9 O13 1_555 1_555
C9 O14 1_555 1_555

#END
