
#######################################################################
#
#                 Cambridge Crystallographic Data Centre
#                                CCDC 
#
#######################################################################
#
# If this CIF has been generated from an entry in the Cambridge 
# Structural Database, then it will include bibliographic, chemical, 
# crystal, experimental, refinement or atomic coordinate data resulting 
# from the CCDC's data processing and validation procedures.
#
#######################################################################

data_VARXET
_symmetry_cell_setting           orthorhombic
_symmetry_space_group_name_H-M   'P 21 21 21'
_symmetry_Int_Tables_number      19
_space_group_name_Hall           'P 2ac 2ab'
loop_
_symmetry_equiv_pos_site_id
_symmetry_equiv_pos_as_xyz
1 x,y,z
2 1/2+x,1/2-y,-z
3 -x,1/2+y,1/2-z
4 1/2-x,-y,1/2+z
_cell_length_a                   10.3289(2)
_cell_length_b                   10.9546(2)
_cell_length_c                   20.8896(4)
_cell_angle_alpha                90
_cell_angle_beta                 90
_cell_angle_gamma                90
_cell_volume                     2363.64
loop_
_atom_site_label
_atom_site_type_symbol
_atom_site_fract_x
_atom_site_fract_y
_atom_site_fract_z
C1 C 0.0919(5) 0.6234(5) 0.9649(3)
H1 H 0.0807 0.6351 1.0105
H2 H 0.0236 0.5711 0.9487
H3 H 0.0881 0.7018 0.9434
C2 C 0.2291(5) 0.4349(4) 0.9794(2)
H4 H 0.2081 0.4366 1.0246
H5 H 0.3159 0.4029 0.9737
H6 H 0.1677 0.3832 0.9570
C3 C 0.2222(4) 0.5644(4) 0.9522(2)
H7 H 0.2333 0.5586 0.9053
C4 C 0.3300(4) 0.6471(4) 0.9780(2)
H8 H 0.3178 0.7311 0.9616
C5 C 0.3416(5) 0.6502(4) 1.0511(2)
H9 H 0.3562 0.7336 1.0664
H10 H 0.2634 0.6175 1.0714
C6 C 0.5150(5) 0.5578(4) 1.00796(19)
C7 C 0.6405(5) 0.4940(4) 1.0142(2)
C8 C 0.7027(5) 0.4953(4) 1.0732(2)
H11 H 0.6663 0.5374 1.1080
C9 C 0.8182(5) 0.4342(4) 1.0799(2)
H12 H 0.8623 0.4351 1.1192
C10 C 0.8689(5) 0.3715(4) 1.0282(2)
H13 H 0.9464 0.3270 1.0319
C11 C 0.8024(4) 0.3762(4) 0.9707(2)
C12 C 0.8530(5) 0.3186(4) 0.9120(2)
C13 C 0.9868(5) 0.2050(4) 0.8530(2)
H14 H 0.9696 0.1170 0.8523
H15 H 1.0761 0.2195 0.8391
C14 C 0.8901(4) 0.2743(4) 0.8103(2)
H16 H 0.8423 0.2155 0.7832
C15 C 0.9492(4) 0.3751(4) 0.7678(2)
H17 H 0.8765 0.4200 0.7477
C16 C 1.0278(6) 0.3165(5) 0.7137(2)
H18 H 1.0647 0.3799 0.6869
H19 H 0.9716 0.2650 0.6881
H20 H 1.0968 0.2675 0.7319
C17 C 1.0286(6) 0.4667(5) 0.8051(3)
H21 H 1.0987 0.4249 0.8268
H22 H 0.9739 0.5069 0.8364
H23 H 1.0640 0.5270 0.7760
Br1 Br 0.35370(5) 0.77776(4) 0.82136(2)
Br2 Br 0.67581(5) 0.60938(5) 0.79152(2)
Br3 Br 0.41332(5) 0.35044(4) 0.83576(2)
Br4 Br 0.35783(5) 0.54024(5) 0.66606(2)
Cu1 Cu 0.51451(7) 0.62033(7) 0.87007(3)
Cu2 Cu 0.63077(7) 0.40932(8) 0.85325(4)
Cu3 Cu 0.47654(9) 0.67806(8) 0.73067(4)
Cu4 Cu 0.51635(9) 0.90671(8) 0.77188(4)
N1 N 0.4595(4) 0.6011(3) 0.95847(16)
N2 N 0.6894(4) 0.4363(3) 0.96218(17)
N3 N 0.8006(4) 0.3287(3) 0.85783(17)
O1 O 0.4533(3) 0.5729(3) 1.06425(15)
O2 O 0.9642(3) 0.2558(3) 0.91693(16)
Br3B Br 0.58668(5) 0.85044(4) 0.66424(2)
Br4B Br 0.64217(5) 1.04024(5) 0.83394(2)
Cu3B Cu 0.52346(9) 0.17806(8) 0.76933(4)
Cu4B Cu 0.48365(9) 0.40671(8) 0.72812(4)
loop_
_geom_bond_atom_site_label_1
_geom_bond_atom_site_label_2
_geom_bond_site_symmetry_1
_geom_bond_site_symmetry_2
C1 H1 1_555 1_555
H2 C1 1_555 1_555
H3 C1 1_555 1_555
C2 H4 1_555 1_555
H5 C2 1_555 1_555
H6 C2 1_555 1_555
C3 C1 1_555 1_555
H7 C3 1_555 1_555
C4 C3 1_555 1_555
H8 C4 1_555 1_555
C5 C4 1_555 1_555
H9 C5 1_555 1_555
H10 C5 1_555 1_555
C6 C7 1_555 1_555
C7 C8 1_555 1_555
C8 H11 1_555 1_555
C9 C8 1_555 1_555
H12 C9 1_555 1_555
C10 C9 1_555 1_555
H13 C10 1_555 1_555
C11 C10 1_555 1_555
C12 C11 1_555 1_555
C13 H14 1_555 1_555
H15 C13 1_555 1_555
C14 C13 1_555 1_555
H16 C14 1_555 1_555
C15 C14 1_555 1_555
H17 C15 1_555 1_555
C16 C15 1_555 1_555
H18 C16 1_555 1_555
H19 C16 1_555 1_555
H20 C16 1_555 1_555
C17 C15 1_555 1_555
H21 C17 1_555 1_555
H22 C17 1_555 1_555
H23 C17 1_555 1_555
Br1 Cu1 1_555 1_555
Br2 Cu1 1_555 1_555
Br3 Cu2 1_555 1_555
Br4 Cu3 1_555 1_555
Cu1 N1 1_555 1_555
Cu2 Br2 1_555 1_555
Cu3 Br1 1_555 1_555
Cu4 Br1 1_555 1_555
N1 C4 1_555 1_555
N2 C7 1_555 1_555
N3 C12 1_555 1_555
O1 C5 1_555 1_555
O2 C12 1_555 1_555
Br3B Cu3 1_555 1_555
Br4B Cu4 1_555 1_555
Cu3B Br3 1_555 1_555
Cu4B Br3 1_555 1_555
C2 C3 1_555 1_555
C6 N1 1_555 1_555
C6 O1 1_555 1_555
C11 N2 1_555 1_555
C13 O2 1_555 1_555
C14 N3 1_555 1_555
Br2 Cu3 1_555 1_555
Br4 Cu4B 1_555 1_555
Cu2 N2 1_555 1_555
Cu2 N3 1_555 1_555
Cu4 Br3B 1_555 1_555

#END
