
#######################################################################
#
#                 Cambridge Crystallographic Data Centre
#                                CCDC 
#
#######################################################################
#
# If this CIF has been generated from an entry in the Cambridge 
# Structural Database, then it will include bibliographic, chemical, 
# crystal, experimental, refinement or atomic coordinate data resulting 
# from the CCDC's data processing and validation procedures.
#
#######################################################################

data_VARYAQ
_symmetry_cell_setting           monoclinic
_symmetry_space_group_name_H-M   'C 2/c'
_symmetry_Int_Tables_number      15
_space_group_name_Hall           '-C 2yn'
loop_
_symmetry_equiv_pos_site_id
_symmetry_equiv_pos_as_xyz
1 x,y,z
2 1/2+x,1/2+y,z
3 -x,y,1/2-z
4 1/2-x,1/2+y,1/2-z
5 -x,-y,-z
6 1/2-x,1/2-y,-z
7 x,-y,1/2+z
8 1/2+x,1/2-y,1/2+z
_cell_length_a                   14.2960(6)
_cell_length_b                   9.1534(3)
_cell_length_c                   18.4469(7)
_cell_angle_alpha                90
_cell_angle_beta                 104.543(3)
_cell_angle_gamma                90
_cell_volume                     2336.56
loop_
_atom_site_label
_atom_site_type_symbol
_atom_site_fract_x
_atom_site_fract_y
_atom_site_fract_z
Cd1 Cd 0.4793(2) 0.5846(3) 0.4036(1)
Cl1 Cl 0.3679(3) 0.4433(5) 0.3074(3)
Cl2 Cl 0.6211(4) 0.4490(5) 0.4921(3)
N1 N 0.4888(2) 0.8364(7) 0.4020(1)
N2 N 0.5704(3) 0.9081(8) 0.3927(1)
O1 O 0.5961(3) 0.6027(4) 0.3175(2)
C1 C 0.4182(2) 0.9394(9) 0.3907(1)
C2 C 0.4547(2) 1.0687(10) 0.3715(2)
H1 H 0.42455 1.16123 0.37034
C3 C 0.5497(3) 1.0479(10) 0.3701(2)
C4 C 0.3199(4) 0.8989(8) 0.3977(1)
H2 H 0.29587 0.97706 0.42629
H3 H 0.32391 0.80360 0.42477
H4 H 0.27565 0.88954 0.34638
C5 C 0.6208(4) 1.1564(12) 0.3540(2)
H5 H 0.59143 1.20209 0.30341
H6 H 0.63327 1.23285 0.39489
H7 H 0.68233 1.10215 0.35345
C6 C 0.6574(5) 0.8218(7) 0.3938(1)
H8 H 0.71249 0.88639 0.40074
H9 H 0.66861 0.75306 0.43481
C7 C 0.6452(4) 0.7394(5) 0.3205(2)
H10 H 0.70874 0.72204 0.31192
H11 H 0.60945 0.80052 0.27966
Cd1D Cd 0.5207(2) 0.4154(3) 0.5964(1)
Cl2D Cl 0.3789(4) 0.5510(5) 0.5079(3)
O2 O 0.6401(4) 0.7223(4) 0.5354(4)
loop_
_geom_bond_atom_site_label_1
_geom_bond_atom_site_label_2
_geom_bond_site_symmetry_1
_geom_bond_site_symmetry_2
Cd1 Cl1 1_555 1_555
Cl2 Cd1 1_555 1_555
N1 Cd1 1_555 1_555
N2 N1 1_555 1_555
O1 C7 1_555 1_555
C1 N1 1_555 1_555
C2 C1 1_555 1_555
H1 C2 1_555 1_555
C3 N2 1_555 1_555
C4 C1 1_555 1_555
H2 C4 1_555 1_555
H3 C4 1_555 1_555
H4 C4 1_555 1_555
C5 C3 1_555 1_555
H5 C5 1_555 1_555
H6 C5 1_555 1_555
H7 C5 1_555 1_555
C6 N2 1_555 1_555
H8 C6 1_555 1_555
H9 C6 1_555 1_555
C7 C6 1_555 1_555
H10 C7 1_555 1_555
H11 C7 1_555 1_555
Cd1D Cl2 1_555 1_555
Cl2D Cd1 1_555 1_555
C2 C3 1_555 1_555
Cd1D Cl2D 1_555 1_555

#END
