
#######################################################################
#
#                 Cambridge Crystallographic Data Centre
#                                CCDC 
#
#######################################################################
#
# If this CIF has been generated from an entry in the Cambridge 
# Structural Database, then it will include bibliographic, chemical, 
# crystal, experimental, refinement or atomic coordinate data resulting 
# from the CCDC's data processing and validation procedures.
#
#######################################################################

data_VASCUP
_symmetry_cell_setting           monoclinic
_symmetry_space_group_name_H-M   'P 2/n'
_symmetry_Int_Tables_number      13
_space_group_name_Hall           '-P 2yac'
loop_
_symmetry_equiv_pos_site_id
_symmetry_equiv_pos_as_xyz
1 x,y,z
2 1/2-x,y,1/2-z
3 -x,-y,-z
4 1/2+x,-y,1/2+z
_cell_length_a                   11.1135(10)
_cell_length_b                   7.8282(7)
_cell_length_c                   14.6909(13)
_cell_angle_alpha                90
_cell_angle_beta                 110.1630(10)
_cell_angle_gamma                90
_cell_volume                     1199.76
loop_
_atom_site_label
_atom_site_type_symbol
_atom_site_fract_x
_atom_site_fract_y
_atom_site_fract_z
C1 C 0.7052(7) 1.2526(10) 0.7793(7)
H1 H 0.7556 1.2584 0.8478
H2 H 0.6510 1.3532 0.7628
C2 C 0.0244(7) 0.6570(9) 0.9543(5)
H3 H 0.0153 0.7230 0.8964
H4 H 0.0725 0.7251 1.0102
I1 I 0.46362(4) 0.59695(6) 0.82473(4)
I2 I 0.25356(5) 1.01708(6) 0.90284(3)
Cu1 Cu 0.38320(9) 0.92303(13) 0.78473(8)
Cu2 Cu 0.23608(10) 0.68703(14) 0.83669(7)
N1 N 0.2249(6) 0.5339(8) 0.9466(5)
H5 H 0.2629 0.4341 0.9427
H6 H 0.2722 0.5831 1.0030
N2 N 0.5360(6) 1.0892(7) 0.8182(4)
H7 H 0.5043 1.1953 0.8172
H8 H 0.5857 1.0679 0.8799
C3 C 0.0973(7) 0.4938(9) 0.9530(6)
H9 H 0.0485 0.4295 0.8947
C4 C 0.6215(6) 1.0939(8) 0.7599(5)
H10 H 0.5677 1.0939 0.6912
C5 C -0.1085(7) 0.6176(9) 0.9588(5)
H11 H -0.1596 0.5587 0.9000
H12 H -0.1517 0.7236 0.9627
C6 C 0.7048(9) 0.9364(10) 0.7791(7)
H13 H 0.6507 0.8358 0.7624
H14 H 0.7549 0.9304 0.8477
C1A C 0.7948(7) 1.2526(10) 0.7207(7)
H1A H 0.7444 1.2584 0.6522
H2A H 0.8490 1.3532 0.7372
C2B C -0.0244(7) 0.3430(9) 1.0457(5)
H3B H -0.0153 0.2770 1.1036
H4B H -0.0725 0.2749 0.9898
I1A I 0.03638(4) 0.59695(6) 0.67527(4)
I2A I 0.24644(5) 1.01708(6) 0.59716(3)
Cu1A Cu 0.11680(9) 0.92303(13) 0.71527(8)
Cu1A_2 Cu 1.11680(9) 0.92303(13) 0.71527(8)
Cu2A Cu 0.26392(10) 0.68703(14) 0.66331(7)
Cu2B Cu -0.23608(10) 0.31297(14) 1.16331(7)
N1B N -0.2249(6) 0.4661(8) 1.0534(5)
N1A N 0.2751(6) 0.5339(8) 0.5534(5)
H5B H -0.2629 0.5659 1.0573
H5A H 0.2371 0.4341 0.5573
H6B H -0.2722 0.4169 0.9970
H6A H 0.2278 0.5831 0.4970
N2A N 0.9640(6) 1.0892(7) 0.6818(4)
N2A_2 N -0.0360(6) 1.0892(7) 0.6818(4)
H7A H 0.9957 1.1953 0.6828
H7A_2 H -0.0043 1.1953 0.6828
H8A H 0.9143 1.0679 0.6201
H8A_2 H -0.0857 1.0679 0.6201
C3B C -0.0973(7) 0.5062(9) 1.0470(6)
H9B H -0.0485 0.5705 1.1053
C4A C 0.8785(6) 1.0939(8) 0.7401(5)
H10A H 0.9323 1.0939 0.8088
C5B C 0.1085(7) 0.3824(9) 1.0412(5)
H11B H 0.1596 0.4413 1.1000
H12B H 0.1517 0.2764 1.0373
C6A C 0.7952(9) 0.9364(10) 0.7209(7)
H13A H 0.8493 0.8358 0.7376
H14A H 0.7451 0.9304 0.6523
loop_
_geom_bond_atom_site_label_1
_geom_bond_atom_site_label_2
_geom_bond_site_symmetry_1
_geom_bond_site_symmetry_2
C1 H1 1_555 1_555
H2 C1 1_555 1_555
C2 H3 1_555 1_555
H4 C2 1_555 1_555
I1 Cu1 1_555 1_555
I2 Cu1 1_555 1_555
Cu1 N2 1_555 1_555
Cu2 I1 1_555 1_555
N1 Cu2 1_555 1_555
H5 N1 1_555 1_555
H6 N1 1_555 1_555
N2 H7 1_555 1_555
H8 N2 1_555 1_555
C3 C2 1_555 1_555
H9 C3 1_555 1_555
C4 C1 1_555 1_555
H10 C4 1_555 1_555
C5 C2 1_555 1_555
H11 C5 1_555 1_555
H12 C5 1_555 1_555
C6 C4 1_555 1_555
H13 C6 1_555 1_555
H14 C6 1_555 1_555
C1A C1 1_555 1_555
H1A C1A 1_555 1_555
H2A C1A 1_555 1_555
C2B H3B 1_555 1_555
H4B C2B 1_555 1_555
I1A Cu2 1_555 1_555
I2A Cu1 1_555 1_555
Cu1A I2 1_555 1_555
Cu1A_2 N2A 1_555 1_555
Cu2A I1 1_555 1_555
Cu2B N1B 1_555 1_555
N1B H5B 1_555 1_555
N1A Cu2A 1_555 1_555
H5A N1A 1_555 1_555
H6B N1B 1_555 1_555
H6A N1A 1_555 1_555
N2A H7A 1_555 1_555
N2A_2 Cu1A 1_555 1_555
H7A_2 N2A_2 1_555 1_555
H8A N2A 1_555 1_555
H8A_2 N2A_2 1_555 1_555
C3B C5 1_555 1_555
H9B C3B 1_555 1_555
C4A C1A 1_555 1_555
H10A C4A 1_555 1_555
C5B C3 1_555 1_555
H11B C5B 1_555 1_555
H12B C5B 1_555 1_555
C6A C6 1_555 1_555
H13A C6A 1_555 1_555
H14A C6A 1_555 1_555
I2 Cu2 1_555 1_555
N1 C3 1_555 1_555
N2 C4 1_555 1_555
C2B C3B 1_555 1_555
C2B C5B 1_555 1_555
I1A Cu1A 1_555 1_555
I1A Cu2A 1_555 1_555
I2A Cu1A 1_555 1_555
I2A Cu2A 1_555 1_555
N1B C3B 1_555 1_555
N2A C4A 1_555 1_555
C4A C6A 1_555 1_555

#END
