
#######################################################################
#
#                 Cambridge Crystallographic Data Centre
#                                CCDC 
#
#######################################################################
#
# If this CIF has been generated from an entry in the Cambridge 
# Structural Database, then it will include bibliographic, chemical, 
# crystal, experimental, refinement or atomic coordinate data resulting 
# from the CCDC's data processing and validation procedures.
#
#######################################################################

data_VASCAU
_symmetry_cell_setting           monoclinic
_symmetry_space_group_name_H-M   'P 21'
_symmetry_Int_Tables_number      4
_space_group_name_Hall           'P 2yb'
loop_
_symmetry_equiv_pos_site_id
_symmetry_equiv_pos_as_xyz
1 x,y,z
2 -x,1/2+y,-z
_cell_length_a                   11.069(2)
_cell_length_b                   16.673(2)
_cell_length_c                   20.137(4)
_cell_angle_alpha                90
_cell_angle_beta                 102.929(17)
_cell_angle_gamma                90
_cell_volume                     3622.14
loop_
_atom_site_label
_atom_site_type_symbol
_atom_site_fract_x
_atom_site_fract_y
_atom_site_fract_z
Sm1 Sm 0.68134(5) 0.69489(3) 0.40710(3)
O1 O 0.6316(10) 0.6285(8) 0.2972(5)
O2 O 0.8650(9) 0.6998(7) 0.3520(5)
O3 O 0.4581(8) 0.7145(6) 0.3607(6)
O4 O 0.6561(11) 0.8126(6) 0.3302(5)
O5 O 0.8273(8) 0.5875(5) 0.4461(4)
O6 O 0.8881(10) 0.5865(5) 0.5606(5)
C1 C 0.8895(15) 0.5628(6) 0.5030(7)
C2 C 0.9847(12) 0.4985(6) 0.4992(7)
H1 H 1.0652 0.5144 0.5273
N1 N 0.9946(13) 0.4903(6) 0.4275(6)
H2 H 1.0370 0.4461 0.4229
H3 H 1.0338 0.5328 0.4158
H4 H 0.9191 0.4872 0.4007
C3 C 0.9454(14) 0.4188(7) 0.5249(8)
H5 H 0.8790 0.3963 0.4902
H6 H 0.9124 0.4289 0.5649
C4 C 1.0514(17) 0.3552(8) 0.5437(7)
H7 H 1.1250 0.3827 0.5685
H8 H 1.0277 0.3172 0.5749
C5 C 1.0855(13) 0.3106(6) 0.4906(7)
O7 O 1.1456(7) 0.2458(4) 0.5058(4)
O8 O 1.0607(9) 0.3315(5) 0.4277(5)
Sm2 Sm 0.82433(5) 0.70394(3) 0.60731(3)
O9 O 0.8852(13) 0.6042(7) 0.6989(6)
O10 O 1.0546(8) 0.6996(7) 0.6433(6)
O11 O 0.8789(10) 0.8005(5) 0.7076(5)
O12 O 0.6609(9) 0.6890(7) 0.6720(5)
O13 O 0.6206(11) 0.8188(5) 0.4585(5)
O14 O 0.6851(8) 0.8122(4) 0.5732(4)
C6 C 0.6266(12) 0.8447(7) 0.5185(7)
C7 C 0.5672(13) 0.9254(6) 0.5270(7)
H9 H 0.6245 0.9674 0.5191
N2 N 0.5538(11) 0.9333(5) 0.5978(5)
H10 H 0.5431 0.9847 0.6070
H11 H 0.6218 0.9148 0.6260
H12 H 0.4884 0.9051 0.6033
C8 C 0.4407(14) 0.9402(6) 0.4765(7)
H13 H 0.4339 0.9041 0.4381
H14 H 0.3746 0.9271 0.4991
C9 C 0.4217(15) 1.0266(7) 0.4495(6)
H15 H 0.4939 1.0421 0.4327
H16 H 0.3509 1.0273 0.4112
C10 C 0.4010(12) 1.0893(7) 0.5010(7)
O15 O 0.3513(8) 1.1546(5) 0.4787(4)
O16 O 0.4327(9) 1.0765(5) 0.5637(4)
O7A O 0.8544(7) 0.7458(4) 0.4942(4)
O15A O 0.6487(8) 0.6546(5) 0.5213(4)
O16A O 0.5673(9) 0.5765(5) 0.4363(4)
Sm1A Sm 1.31866(5) 0.19489(3) 0.59290(3)
Sm2A Sm 1.17567(5) 0.20394(3) 0.39269(3)
O8A O 0.9393(9) 0.8315(5) 0.5723(5)
Sm1A_2 Sm 0.31866(5) 1.19489(3) 0.59290(3)
Sm2A_2 Sm 0.17567(5) 1.20394(3) 0.39269(3)
Sm3 Sm 0.16914(5) 0.68483(3) -0.10082(3)
O17 O 0.1160(10) 0.7646(6) -0.2056(5)
O18 O -0.0643(8) 0.6678(6) -0.1473(6)
O19 O 0.3475(10) 0.6793(8) -0.1619(5)
O20 O 0.1437(12) 0.5717(6) -0.1804(5)
O21 O 0.1000(11) 0.5717(5) -0.0476(5)
O22 O 0.1839(8) 0.5706(4) 0.0643(4)
C11 C 0.1132(13) 0.5448(6) 0.0106(7)
C12 C 0.0341(12) 0.4702(6) 0.0191(6)
H17 H -0.0534 0.4830 0.0006
N3 N 0.0509(12) 0.4513(7) 0.0930(5)
H18 H 0.0316 0.4942 0.1149
H19 H 0.1294 0.4378 0.1102
H20 H 0.0016 0.4107 0.0982
C13 C 0.0705(14) 0.3991(7) -0.0220(7)
H21 H 0.0961 0.4197 -0.0617
H22 H 0.1406 0.3711 0.0060
C14 C -0.0375(15) 0.3392(8) -0.0451(7)
H23 H -0.1101 0.3700 -0.0667
H24 H -0.0166 0.3052 -0.0800
C15 C -0.0728(13) 0.2880(7) 0.0042(7)
O23 O -0.0392(9) 0.2991(5) 0.0679(5)
O24 O -0.1451(7) 0.2283(4) -0.0160(4)
Sm4 Sm 0.32314(5) 0.68110(3) 0.09846(3)
O25 O 0.1573(9) 0.6840(8) 0.1633(5)
O26 O 0.3851(9) 0.5914(5) 0.2009(5)
O27 O 0.5480(8) 0.7036(6) 0.1376(6)
O28 O 0.3487(12) 0.7977(6) 0.1766(6)
O29 O 0.3019(9) 0.7983(4) -0.0686(5)
O30 O 0.3766(11) 0.8030(5) 0.0438(5)
C16 C 0.3648(13) 0.8308(7) -0.0159(7)
C17 C 0.4161(14) 0.9138(7) -0.0219(7)
H25 H 0.3630 0.9520 -0.0048
N4 N 0.4058(11) 0.9317(6) -0.0957(5)
H26 H 0.4211 0.9835 -0.1008
H27 H 0.3296 0.9200 -0.1190
H28 H 0.4605 0.9022 -0.1113
C18 C 0.5489(13) 0.9257(7) 0.0196(7)
H29 H 0.5630 0.8890 0.0579
H30 H 0.6058 0.9113 -0.0087
C19 C 0.5797(14) 1.0097(7) 0.0466(7)
H31 H 0.6556 1.0072 0.0817
H32 H 0.5143 1.0273 0.0683
C20 C 0.5963(12) 1.0737(7) -0.0048(7)
O31 O 0.6531(8) 1.1373(5) 0.0181(4)
O32 O 0.5571(9) 1.0639(4) -0.0678(5)
O23A O 0.0392(9) 0.7991(5) -0.0679(5)
O24A O 0.1451(7) 0.7283(4) 0.0160(4)
O31A O 0.3469(8) 0.6373(5) -0.0181(4)
Sm3A Sm -0.16914(5) 0.18483(3) 0.10082(3)
Sm4A Sm -0.32314(5) 0.18110(3) -0.09846(3)
O32A O 0.4429(9) 0.5639(4) 0.0678(5)
Sm3A_2 Sm 0.83086(5) 1.18483(3) 0.10082(3)
Sm4A_2 Sm 0.67686(5) 1.18110(3) -0.09846(3)
Cl1 Cl 0.1586(4) 0.53129(19) 0.29652(17)
O33 O 0.1726(11) 0.4627(6) 0.3407(5)
O34 O 0.2742(9) 0.5724(7) 0.3082(6)
O35 O 0.1235(12) 0.5047(8) 0.2276(5)
O36 O 0.0630(11) 0.5802(7) 0.3111(6)
Cl2 Cl 0.3478(4) 0.3530(2) 0.1897(2)
O37 O 0.3399(12) 0.4240(6) 0.1485(6)
O38 O 0.2324(10) 0.3118(7) 0.1722(9)
O39 O 0.4461(12) 0.3046(9) 0.1808(8)
O40 O 0.3735(17) 0.3766(10) 0.2579(5)
Cl3 Cl 0.6921(5) 0.0402(2) 0.3188(2)
O41 O 0.6316(18) 0.1151(8) 0.3220(10)
O42 O 0.6335(18) -0.0181(10) 0.3523(9)
O43 O 0.8176(11) 0.0451(10) 0.3498(8)
O44 O 0.6745(16) 0.0205(10) 0.2493(6)
Cl4 Cl -0.0006(4) 0.8710(2) 0.2489(2)
O45 O 0.0620(17) 0.9251(8) 0.2998(7)
O46 O -0.0621(16) 0.9103(8) 0.1889(6)
O47 O 0.0833(15) 0.8134(10) 0.2363(9)
O48 O -0.0899(15) 0.8324(13) 0.2777(9)
Cl5 Cl 0.3212(5) 0.0269(2) 0.1759(3)
O49 O 0.1980(12) 0.0198(9) 0.1382(9)
O50 O 0.330(2) 0.0245(13) 0.2465(7)
O51 O 0.3935(14) -0.0365(7) 0.1562(9)
O52 O 0.3736(16) 0.1006(8) 0.1610(9)
Cl6 Cl 0.7365(4) 0.4087(2) 0.2957(2)
O53 O 0.6523(15) 0.4490(9) 0.2435(7)
O54 O 0.8615(10) 0.4299(10) 0.2943(7)
O55 O 0.7171(15) 0.3246(7) 0.2857(8)
O56 O 0.7156(15) 0.4314(9) 0.3595(6)
Cl7 Cl 0.2119(4) 0.6921(3) 0.4731(2)
O57 O 0.0943(11) 0.6554(9) 0.4561(8)
O58 O 0.2163(15) 0.7366(10) 0.5336(7)
O59 O 0.3106(17) 0.6404(13) 0.4755(12)
O60 O 0.206(2) 0.7483(12) 0.4186(9)
Cl8 Cl 0.8146(5) 0.6595(5) 0.0514(4)
O61 O 0.7081(14) 0.6121(12) 0.0444(11)
O62 O 0.824(2) 0.6945(14) -0.0106(8)
O63 O 0.808(3) 0.7236(14) 0.1003(12)
O64 O 0.9155(12) 0.6191(9) 0.0898(11)
O65 O 0.6487(13) 0.8535(7) 0.1919(6)
O66 O 0.5508(10) 0.2769(7) 0.3738(7)
O67 O 0.3420(14) 0.8589(9) 0.3089(6)
O68 O 0.1522(17) 0.9648(10) -0.1507(9)
O69 O 0.818(2) 0.6201(14) 0.2184(11)
O70 O 0.431(3) 0.237(2) 0.0619(19)
loop_
_geom_bond_atom_site_label_1
_geom_bond_atom_site_label_2
_geom_bond_site_symmetry_1
_geom_bond_site_symmetry_2
Sm1 O1 1_555 1_555
O2 Sm1 1_555 1_555
O3 Sm1 1_555 1_555
O4 Sm1 1_555 1_555
O5 Sm1 1_555 1_555
O6 C1 1_555 1_555
C1 O5 1_555 1_555
C2 C1 1_555 1_555
H1 C2 1_555 1_555
N1 C2 1_555 1_555
H2 N1 1_555 1_555
H3 N1 1_555 1_555
H4 N1 1_555 1_555
C3 C2 1_555 1_555
H5 C3 1_555 1_555
H6 C3 1_555 1_555
C4 C3 1_555 1_555
H7 C4 1_555 1_555
H8 C4 1_555 1_555
C5 C4 1_555 1_555
O7 C5 1_555 1_555
O8 C5 1_555 1_555
Sm2 O6 1_555 1_555
O9 Sm2 1_555 1_555
O10 Sm2 1_555 1_555
O11 Sm2 1_555 1_555
O12 Sm2 1_555 1_555
O13 Sm1 1_555 1_555
O14 Sm2 1_555 1_555
C6 O13 1_555 1_555
C7 C6 1_555 1_555
H9 C7 1_555 1_555
N2 C7 1_555 1_555
H10 N2 1_555 1_555
H11 N2 1_555 1_555
H12 N2 1_555 1_555
C8 C7 1_555 1_555
H13 C8 1_555 1_555
H14 C8 1_555 1_555
C9 C8 1_555 1_555
H15 C9 1_555 1_555
H16 C9 1_555 1_555
C10 C9 1_555 1_555
O15 C10 1_555 1_555
O16 C10 1_555 1_555
Sm3 O17 1_555 1_555
O18 Sm3 1_555 1_555
O19 Sm3 1_555 1_555
O20 Sm3 1_555 1_555
O21 Sm3 1_555 1_555
O22 C11 1_555 1_555
C11 O21 1_555 1_555
C12 C11 1_555 1_555
H17 C12 1_555 1_555
N3 C12 1_555 1_555
H18 N3 1_555 1_555
H19 N3 1_555 1_555
H20 N3 1_555 1_555
C13 C12 1_555 1_555
H21 C13 1_555 1_555
H22 C13 1_555 1_555
C14 C13 1_555 1_555
H23 C14 1_555 1_555
H24 C14 1_555 1_555
C15 C14 1_555 1_555
O23 C15 1_555 1_555
O24 C15 1_555 1_555
Sm4 O22 1_555 1_555
O25 Sm4 1_555 1_555
O26 Sm4 1_555 1_555
O27 Sm4 1_555 1_555
O28 Sm4 1_555 1_555
O29 Sm3 1_555 1_555
O30 Sm4 1_555 1_555
C16 O29 1_555 1_555
C17 C16 1_555 1_555
H25 C17 1_555 1_555
N4 C17 1_555 1_555
H26 N4 1_555 1_555
H27 N4 1_555 1_555
H28 N4 1_555 1_555
C18 C17 1_555 1_555
H29 C18 1_555 1_555
H30 C18 1_555 1_555
C19 C18 1_555 1_555
H31 C19 1_555 1_555
H32 C19 1_555 1_555
C20 C19 1_555 1_555
O31 C20 1_555 1_555
O32 C20 1_555 1_555
Cl1 O33 1_555 1_555
O34 Cl1 1_555 1_555
O35 Cl1 1_555 1_555
O36 Cl1 1_555 1_555
Cl2 O37 1_555 1_555
O38 Cl2 1_555 1_555
O39 Cl2 1_555 1_555
O40 Cl2 1_555 1_555
Cl3 O41 1_555 1_555
O42 Cl3 1_555 1_555
O43 Cl3 1_555 1_555
O44 Cl3 1_555 1_555
Cl4 O45 1_555 1_555
O46 Cl4 1_555 1_555
O47 Cl4 1_555 1_555
O48 Cl4 1_555 1_555
Cl5 O49 1_555 1_555
O50 Cl5 1_555 1_555
O51 Cl5 1_555 1_555
O52 Cl5 1_555 1_555
Cl6 O53 1_555 1_555
O54 Cl6 1_555 1_555
O55 Cl6 1_555 1_555
O56 Cl6 1_555 1_555
Cl7 O57 1_555 1_555
O58 Cl7 1_555 1_555
O59 Cl7 1_555 1_555
O60 Cl7 1_555 1_555
Cl8 O61 1_555 1_555
O62 Cl8 1_555 1_555
O63 Cl8 1_555 1_555
O64 Cl8 1_555 1_555
O7A Sm1 1_555 1_555
O15A Sm1 1_555 1_555
O16A Sm1 1_555 1_555
Sm1A O7 1_555 1_555
Sm2A O7 1_555 1_555
O8A Sm2 1_555 1_555
Sm1A_2 O15 1_555 1_555
Sm2A_2 O15 1_555 1_555
O23A Sm3 1_555 1_555
O24A Sm3 1_555 1_555
O31A Sm3 1_555 1_555
Sm3A O23 1_555 1_555
Sm4A O24 1_555 1_555
O32A Sm4 1_555 1_555
Sm3A_2 O31 1_555 1_555
Sm4A_2 O31 1_555 1_555
O8 Sm2A 1_555 1_555
Sm2 O7A 1_555 1_555
Sm2 O15A 1_555 1_555
O14 C6 1_555 1_555
O16 Sm1A_2 1_555 1_555
O24 Sm3A 1_555 1_555
Sm4 O24A 1_555 1_555
Sm4 O31A 1_555 1_555
O30 C16 1_555 1_555
O32 Sm4A_2 1_555 1_555

#END
