
#######################################################################
#
#                 Cambridge Crystallographic Data Centre
#                                CCDC 
#
#######################################################################
#
# If this CIF has been generated from an entry in the Cambridge 
# Structural Database, then it will include bibliographic, chemical, 
# crystal, experimental, refinement or atomic coordinate data resulting 
# from the CCDC's data processing and validation procedures.
#
#######################################################################

data_VASNOT01
_symmetry_cell_setting           triclinic
_symmetry_space_group_name_H-M   'P -1'
_symmetry_Int_Tables_number      2
_space_group_name_Hall           '-P 1'
loop_
_symmetry_equiv_pos_site_id
_symmetry_equiv_pos_as_xyz
1 x,y,z
2 -x,-y,-z
_cell_length_a                   9.254(3)
_cell_length_b                   11.512(4)
_cell_length_c                   12.298(4)
_cell_angle_alpha                69.890(6)
_cell_angle_beta                 80.995(6)
_cell_angle_gamma                86.981(6)
_cell_volume                     1215.09
loop_
_atom_site_label
_atom_site_type_symbol
_atom_site_fract_x
_atom_site_fract_y
_atom_site_fract_z
Ni1 Ni 0.13434(5) -0.23859(4) 0.38604(4)
O1 O 0.3437(3) -0.1580(2) 0.2919(2)
O2 O 0.1371(3) -0.0593(2) 0.2683(2)
O3 O 0.5694(3) 0.3592(2) -0.0867(2)
O4 O 0.2102(3) 0.6067(2) -0.5023(2)
O5 O 0.2139(3) 0.7674(2) -0.4468(2)
N1 N 0.0950(3) -0.3230(3) 0.2715(2)
N2 N -0.0785(3) -0.2201(2) 0.4557(2)
C1 C 0.2753(4) -0.0625(3) 0.2416(3)
C2 C 0.3535(4) 0.0470(3) 0.1521(3)
C3 C 0.5027(4) 0.0577(3) 0.1373(3)
H1 H 0.5572 -0.0061 0.1819
C4 C 0.5731(4) 0.1621(3) 0.0571(3)
H2 H 0.6742 0.1692 0.0489
C5 C 0.4935(4) 0.2550(3) -0.0104(3)
C6 C 0.3452(4) 0.2432(4) 0.0000(4)
H3 H 0.2916 0.3043 -0.0486
C7 C 0.2754(4) 0.1402(4) 0.0829(4)
H4 H 0.1741 0.1340 0.0920
C8 C 0.4958(4) 0.4365(3) -0.1756(3)
C9 C 0.4761(4) 0.3988(3) -0.2659(3)
H5 H 0.5154 0.3242 -0.2703
C10 C 0.3978(4) 0.4723(3) -0.3502(3)
H6 H 0.3835 0.4467 -0.4117
C11 C 0.3397(3) 0.5840(3) -0.3451(3)
C12 C 0.3680(4) 0.6230(3) -0.2562(3)
H7 H 0.3349 0.6999 -0.2541
C13 C 0.4454(4) 0.5485(3) -0.1702(3)
H8 H 0.4628 0.5743 -0.1096
C14 C 0.2488(3) 0.6578(3) -0.4350(3)
C15 C 0.0696(4) -0.2612(4) 0.1632(3)
H9 H 0.0644 -0.1753 0.1391
C16 C 0.0507(5) -0.3189(4) 0.0845(4)
H10 H 0.0342 -0.2725 0.0090
C17 C 0.0568(5) -0.4472(5) 0.1198(4)
C18 C 0.0811(6) -0.5090(4) 0.2312(4)
H11 H 0.0854 -0.5950 0.2582
C19 C 0.0991(5) -0.4460(4) 0.3038(4)
H12 H 0.1150 -0.4910 0.3797
C20 C 0.0464(8) -0.5152(7) 0.0360(6)
H13 H 0.1424 -0.5111 -0.0100
H14 H 0.0286 -0.6015 0.0831
C21 C -0.1957(4) -0.2394(4) 0.4155(4)
H15 H -0.1850 -0.2863 0.3664
C22 C -0.3325(4) -0.1948(4) 0.4414(4)
H16 H -0.4108 -0.2118 0.4100
C23 C -0.3539(4) -0.1258(3) 0.5129(3)
C24 C -0.2329(5) -0.1055(5) 0.5534(5)
H17 H -0.2405 -0.0582 0.6020
C25 C -0.1004(5) -0.1530(5) 0.5245(4)
H18 H -0.0209 -0.1371 0.5550
C26 C -0.4979(4) -0.0675(3) 0.5385(4)
H19 H -0.5144 -0.0734 0.6201
H20 H -0.5758 -0.1122 0.5256
Ni1_2 Ni 0.13434(5) -1.23859(4) 1.38604(4)
Ni1_3 Ni 0.13434(5) 0.76141(4) -0.61396(4)
Ni1A Ni -0.13434(5) -0.76141(4) -0.38604(4)
Ni1A_2 Ni -1.13434(5) 0.23859(4) 0.61396(4)
O1_2 O 0.3437(3) -1.1580(2) 1.2919(2)
O2_2 O 0.1371(3) -1.0593(2) 1.2683(2)
O3_2 O 0.5694(3) -0.6408(2) 0.9133(2)
O4_2 O 0.2102(3) -0.3933(2) 0.4977(2)
O4_3 O 0.2102(3) -1.3933(2) 1.4977(2)
O5_2 O 0.2139(3) -0.2326(2) 0.5532(2)
O5_3 O 0.2139(3) -1.2326(2) 1.5532(2)
N1A N -0.0950(3) -0.6770(3) -0.2715(2)
N1_2 N 0.0950(3) -1.3230(3) 1.2715(2)
N2A N -0.9215(3) 0.2201(2) 0.5443(2)
N2_2 N -0.0785(3) -1.2201(2) 1.4557(2)
C1_2 C 0.2753(4) -1.0625(3) 1.2416(3)
C2_2 C 0.3535(4) -0.9530(3) 1.1521(3)
C3_2 C 0.5027(4) -0.9423(3) 1.1373(3)
H1_2 H 0.5572 -1.0061 1.1819
C4_2 C 0.5731(4) -0.8379(3) 1.0571(3)
H2_2 H 0.6742 -0.8308 1.0489
C5_2 C 0.4935(4) -0.7450(3) 0.9896(3)
C6_2 C 0.3452(4) -0.7568(4) 1.0000(4)
H3_2 H 0.2916 -0.6957 0.9514
C7_2 C 0.2754(4) -0.8598(4) 1.0829(4)
H4_2 H 0.1741 -0.8660 1.0920
C8_2 C 0.4958(4) -0.5635(3) 0.8244(3)
C9_2 C 0.4761(4) -0.6012(3) 0.7341(3)
H5_2 H 0.5154 -0.6758 0.7297
C10_2 C 0.3978(4) -0.5277(3) 0.6498(3)
H6_2 H 0.3835 -0.5533 0.5883
C11_2 C 0.3397(3) -0.4160(3) 0.6549(3)
C12_2 C 0.3680(4) -0.3770(3) 0.7438(3)
H7_2 H 0.3349 -0.3001 0.7459
C13_2 C 0.4454(4) -0.4515(3) 0.8298(3)
H8_2 H 0.4628 -0.4257 0.8904
C14_2 C 0.2488(3) -0.3422(3) 0.5650(3)
C15A C -0.0696(4) -0.7388(4) -0.1632(3)
H9A H -0.0644 -0.8247 -0.1391
C16A C -0.0507(5) -0.6811(4) -0.0845(4)
H10A H -0.0342 -0.7275 -0.0090
C17A C -0.0568(5) -0.5528(5) -0.1198(4)
C18A C -0.0811(6) -0.4910(4) -0.2312(4)
H11A H -0.0854 -0.4050 -0.2582
C19A C -0.0991(5) -0.5540(4) -0.3038(4)
H12A H -0.1150 -0.5090 -0.3797
C20A C -0.0464(8) -0.4848(7) -0.0360(6)
H13A H -0.1424 -0.4889 0.0100
H14A H -0.0286 -0.3985 -0.0831
C21A C -0.8043(4) 0.2394(4) 0.5845(4)
H15A H -0.8150 0.2863 0.6336
C22A C -0.6675(4) 0.1948(4) 0.5586(4)
H16A H -0.5892 0.2118 0.5900
C23A C -0.6461(4) 0.1258(3) 0.4871(3)
C24A C -0.7671(5) 0.1055(5) 0.4466(5)
H17A H -0.7595 0.0582 0.3980
C25A C -0.8996(5) 0.1530(5) 0.4755(4)
H18A H -0.9791 0.1371 0.4450
C26A C -0.5021(4) 0.0675(3) 0.4615(4)
H19A H -0.4856 0.0734 0.3799
H20A H -0.4242 0.1122 0.4744
O6 O 0.9051(5) 0.1374(4) 0.2358(3)
H21 H 0.8916 0.0923 0.1946
H22 H 0.9442 0.0984 0.3002
loop_
_geom_bond_atom_site_label_1
_geom_bond_atom_site_label_2
_geom_bond_site_symmetry_1
_geom_bond_site_symmetry_2
Ni1 O1 1_555 1_555
O1 C1 1_555 1_555
O2 Ni1 1_555 1_555
O3 C5 1_555 1_555
O4 C14 1_555 1_555
O5 C14 1_555 1_555
N1 Ni1 1_555 1_555
N2 Ni1 1_555 1_555
C1 O2 1_555 1_555
C2 C1 1_555 1_555
C3 C2 1_555 1_555
H1 C3 1_555 1_555
C4 C3 1_555 1_555
H2 C4 1_555 1_555
C5 C4 1_555 1_555
C6 C5 1_555 1_555
H3 C6 1_555 1_555
C7 C2 1_555 1_555
H4 C7 1_555 1_555
C8 O3 1_555 1_555
C9 C8 1_555 1_555
H5 C9 1_555 1_555
C10 C9 1_555 1_555
H6 C10 1_555 1_555
C11 C10 1_555 1_555
C12 C11 1_555 1_555
H7 C12 1_555 1_555
C13 C8 1_555 1_555
H8 C13 1_555 1_555
C14 C11 1_555 1_555
C15 N1 1_555 1_555
H9 C15 1_555 1_555
C16 C15 1_555 1_555
H10 C16 1_555 1_555
C17 C16 1_555 1_555
C18 C17 1_555 1_555
H11 C18 1_555 1_555
C19 N1 1_555 1_555
H12 C19 1_555 1_555
C20 C17 1_555 1_555
H13 C20 1_555 1_555
H14 C20 1_555 1_555
C21 N2 1_555 1_555
H15 C21 1_555 1_555
C22 C21 1_555 1_555
H16 C22 1_555 1_555
C23 C22 1_555 1_555
C24 C23 1_555 1_555
H17 C24 1_555 1_555
C25 N2 1_555 1_555
H18 C25 1_555 1_555
C26 C23 1_555 1_555
H19 C26 1_555 1_555
H20 C26 1_555 1_555
O6 H21 1_555 1_555
H22 O6 1_555 1_555
Ni1_2 O1_2 1_555 1_555
Ni1_3 O4 1_555 1_555
Ni1A N1A 1_555 1_555
Ni1A_2 N2A 1_555 1_555
O1_2 C1_2 1_555 1_555
O2_2 Ni1_2 1_555 1_555
O3_2 C5_2 1_555 1_555
O4_2 Ni1 1_555 1_555
O4_3 Ni1_2 1_555 1_555
O5_2 Ni1 1_555 1_555
O5_3 Ni1_2 1_555 1_555
N1A C15A 1_555 1_555
N1_2 Ni1_2 1_555 1_555
N2A C21A 1_555 1_555
N2_2 Ni1_2 1_555 1_555
C1_2 O2_2 1_555 1_555
C2_2 C1_2 1_555 1_555
C3_2 C2_2 1_555 1_555
H1_2 C3_2 1_555 1_555
C4_2 C3_2 1_555 1_555
H2_2 C4_2 1_555 1_555
C5_2 C4_2 1_555 1_555
C6_2 C5_2 1_555 1_555
H3_2 C6_2 1_555 1_555
C7_2 C2_2 1_555 1_555
H4_2 C7_2 1_555 1_555
C8_2 O3_2 1_555 1_555
C9_2 C8_2 1_555 1_555
H5_2 C9_2 1_555 1_555
C10_2 C9_2 1_555 1_555
H6_2 C10_2 1_555 1_555
C11_2 C10_2 1_555 1_555
C12_2 C11_2 1_555 1_555
H7_2 C12_2 1_555 1_555
C13_2 C8_2 1_555 1_555
H8_2 C13_2 1_555 1_555
C14_2 O4_2 1_555 1_555
C15A H9A 1_555 1_555
C16A C15A 1_555 1_555
H10A C16A 1_555 1_555
C17A C16A 1_555 1_555
C18A C17A 1_555 1_555
H11A C18A 1_555 1_555
C19A N1A 1_555 1_555
H12A C19A 1_555 1_555
C20A C20 1_555 1_555
H13A C20A 1_555 1_555
H14A C20A 1_555 1_555
C21A H15A 1_555 1_555
C22A C21A 1_555 1_555
H16A C22A 1_555 1_555
C23A C22A 1_555 1_555
C24A C23A 1_555 1_555
H17A C24A 1_555 1_555
C25A N2A 1_555 1_555
H18A C25A 1_555 1_555
C26A C26 1_555 1_555
H19A C26A 1_555 1_555
H20A C26A 1_555 1_555
O5 Ni1_3 1_555 1_555
C6 C7 1_555 1_555
C12 C13 1_555 1_555
C18 C19 1_555 1_555
C24 C25 1_555 1_555
O5_2 C14_2 1_555 1_555
C6_2 C7_2 1_555 1_555
C11_2 C14_2 1_555 1_555
C12_2 C13_2 1_555 1_555
C17A C20A 1_555 1_555
C18A C19A 1_555 1_555
C23A C26A 1_555 1_555
C24A C25A 1_555 1_555

#END
