
#######################################################################
#
#                 Cambridge Crystallographic Data Centre
#                                CCDC 
#
#######################################################################
#
# If this CIF has been generated from an entry in the Cambridge 
# Structural Database, then it will include bibliographic, chemical, 
# crystal, experimental, refinement or atomic coordinate data resulting 
# from the CCDC's data processing and validation procedures.
#
#######################################################################

data_VASNIN
_symmetry_cell_setting           triclinic
_symmetry_space_group_name_H-M   'P -1'
_symmetry_Int_Tables_number      2
_space_group_name_Hall           '-P 1'
loop_
_symmetry_equiv_pos_site_id
_symmetry_equiv_pos_as_xyz
1 x,y,z
2 -x,-y,-z
_cell_length_a                   7.6221(16)
_cell_length_b                   11.311(3)
_cell_length_c                   14.001(3)
_cell_angle_alpha                94.787(14)
_cell_angle_beta                 104.00(2)
_cell_angle_gamma                91.319(18)
_cell_volume                     1165.97
loop_
_atom_site_label
_atom_site_type_symbol
_atom_site_fract_x
_atom_site_fract_y
_atom_site_fract_z
Ni1 Ni 0.66929(8) 0.54048(4) 0.69437(4)
O1 O 0.6094(4) 0.6488(2) 0.80408(19)
O2 O 0.3542(5) 0.7295(3) 0.7282(2)
O3 O 0.5798(4) 0.3653(2) 0.7208(2)
O4 O 0.6858(4) 0.3945(2) 0.59152(19)
O5 O 0.4100(4) 0.5584(3) 0.6076(2)
H1 H 0.402(5) 0.581(3) 0.559(3)
H2 H 0.357(8) 0.629(6) 0.652(5)
C1 C 0.5136(7) 0.8179(4) 0.8854(3)
C2 C 0.3996(7) 0.9078(4) 0.8820(4)
H3 H 0.3013 0.9086 0.8277
C3 C 0.4256(7) 1.0015(4) 0.9593(3)
C4 C 0.3102(9) 1.0974(5) 0.9554(4)
H4 H 0.2126 1.1007 0.9012
C5 C 0.6585(8) 0.8143(5) 0.9687(4)
H5 H 0.7345 0.7508 0.9724
C6 C 0.4883(7) 0.7239(4) 0.7987(3)
C7 C 0.5692(5) 0.1983(3) 0.6028(3)
C8 C 0.5855(6) 0.1575(3) 0.5101(3)
H6 H 0.6314 0.2087 0.4726
C9 C 0.5334(6) 0.0383(3) 0.4706(3)
C10 C 0.5474(6) -0.0046(3) 0.3747(3)
H7 H 0.5904 0.0460 0.3356
C11 C 0.5021(6) 0.1199(3) 0.6606(3)
H8 H 0.4915 0.1473 0.7234
C12 C 0.6133(6) 0.3256(3) 0.6407(3)
N1 N 0.7844(5) 0.6755(3) 0.6342(3)
C13 C 0.8281(8) 0.6561(5) 0.5477(4)
H9 H 0.8082 0.5798 0.5157
C14 C 0.9000(9) 0.7415(5) 0.5032(4)
H10 H 0.9297 0.7215 0.4435
C15 C 0.9285(7) 0.8536(5) 0.5444(4)
C16 C 0.8910(7) 0.8764(4) 0.6358(5)
H11 H 0.9134 0.9521 0.6688
C17 C 0.8194(7) 0.7852(4) 0.6782(4)
H12 H 0.7952 0.8019 0.7398
C18 C 0.9931(7) 0.9466(4) 0.4878(5)
H13 H 1.0248 0.9206 0.4297
N2 N 0.9252(5) 0.5157(3) 0.7831(2)
C19 C 1.0460(7) 0.4569(6) 0.7491(4)
H14 H 1.0112 0.4212 0.6847
C20 C 1.2210(7) 0.4438(6) 0.8015(4)
H15 H 1.2992 0.4004 0.7721
C21 C 1.2808(7) 0.4942(4) 0.8967(3)
C22 C 1.1580(9) 0.5601(7) 0.9304(4)
H16 H 1.1912 0.6008 0.9930
C23 C 0.9852(8) 0.5676(6) 0.8732(4)
H17 H 0.9052 0.6125 0.9001
C24 C 1.4659(6) 0.4806(4) 0.9534(3)
H18 H 1.5428 0.4409 0.9206
C3A C 0.5744(7) 0.9985(4) 1.0407(3)
C2A C 0.6004(7) 1.0922(4) 1.1180(4)
C1A C 0.4864(7) 1.1821(4) 1.1146(3)
C5A C 0.3415(8) 1.1857(5) 1.0313(4)
H5A H 0.2655 1.2492 1.0276
C6A C 0.5117(7) 1.2761(4) 1.2013(3)
O1A O 0.3906(4) 1.3512(2) 1.19592(19)
O2A O 0.6458(5) 1.2705(3) 1.2718(2)
H3A H 0.6987 1.0914 1.1723
C4A C 0.6898(9) 0.9026(5) 1.0446(4)
H4A H 0.7874 0.8993 1.0988
C9A C 0.4666(6) -0.0383(3) 0.5294(3)
C8A C 0.4145(6) -0.1575(3) 0.4899(3)
C7A C 0.4308(5) -0.1983(3) 0.3972(3)
C11A C 0.4979(6) -0.1199(3) 0.3394(3)
H8A H 0.5085 -0.1473 0.2766
C12A C 0.3867(6) -0.3256(3) 0.3593(3)
O3A O 0.4202(4) -0.3653(2) 0.2792(2)
O4A O 0.3142(4) -0.3945(2) 0.40848(19)
H6A H 0.3686 -0.2087 0.5274
C10A C 0.4526(6) 0.0046(3) 0.6253(3)
H7A H 0.4096 -0.0460 0.6644
C18A C 1.0069(7) 1.0534(4) 0.5122(5)
C15A C 1.0715(7) 1.1464(5) 0.4556(4)
C14A C 1.1000(9) 1.2585(5) 0.4968(4)
C13A C 1.1719(8) 1.3439(5) 0.4523(4)
N1A N 1.2156(5) 1.3245(3) 0.3658(3)
C17A C 1.1806(7) 1.2148(4) 0.3218(4)
C16A C 1.1090(7) 1.1236(4) 0.3642(5)
H11A H 1.0866 1.0479 0.3312
H12A H 1.2048 1.1981 0.2602
H9A H 1.1918 1.4202 0.4843
H10A H 1.0703 1.2785 0.5565
H13A H 0.9752 1.0794 0.5703
C24A C 1.5341(6) 0.5194(4) 1.0466(3)
C21A C 1.7192(7) 0.5058(4) 1.1033(3)
C20A C 1.7790(7) 0.5562(6) 1.1985(4)
C19A C 1.9540(7) 0.5431(6) 1.2509(4)
N2A N 2.0748(5) 0.4843(3) 1.2169(2)
C23A C 2.0148(8) 0.4324(6) 1.1268(4)
C22A C 1.8420(9) 0.4399(7) 1.0696(4)
H16A H 1.8088 0.3992 1.0070
H17A H 2.0948 0.3875 1.0999
H14A H 1.9888 0.5788 1.3153
H15A H 1.7008 0.5996 1.2279
H18A H 1.4572 0.5591 1.0794
Ni1A Ni 0.33071(8) 1.45952(4) 1.30563(4)
O5A O 0.5900(4) 1.4416(3) 1.3924(2)
H1A H 0.598(5) 1.419(3) 1.441(3)
H2A H 0.643(8) 1.371(6) 1.348(5)
Ni1A_2 Ni 0.33071(8) -0.54048(4) 0.30563(4)
Ni1A_3 Ni 1.33071(8) 1.45952(4) 0.30563(4)
Ni1A_4 Ni 2.33071(8) 0.45952(4) 1.30563(4)
O3A_2 O 0.4202(4) 1.6347(2) 1.2792(2)
O4A_2 O 0.3142(4) 1.6055(2) 1.40848(19)
N1A_2 N 0.2156(5) 1.3245(3) 1.3658(3)
N2A_2 N 0.0748(5) 1.4843(3) 1.2169(2)
loop_
_geom_bond_atom_site_label_1
_geom_bond_atom_site_label_2
_geom_bond_site_symmetry_1
_geom_bond_site_symmetry_2
Ni1 O1 1_555 1_555
O1 C6 1_555 1_555
O2 C6 1_555 1_555
O3 Ni1 1_555 1_555
O4 Ni1 1_555 1_555
O5 Ni1 1_555 1_555
H1 O5 1_555 1_555
H2 O5 1_555 1_555
C1 C2 1_555 1_555
C2 H3 1_555 1_555
C3 C2 1_555 1_555
C4 C3 1_555 1_555
H4 C4 1_555 1_555
C5 C1 1_555 1_555
H5 C5 1_555 1_555
C6 C1 1_555 1_555
C7 C8 1_555 1_555
C8 H6 1_555 1_555
C9 C8 1_555 1_555
C10 C9 1_555 1_555
H7 C10 1_555 1_555
C11 C7 1_555 1_555
H8 C11 1_555 1_555
C12 O3 1_555 1_555
N1 Ni1 1_555 1_555
C13 N1 1_555 1_555
H9 C13 1_555 1_555
C14 C13 1_555 1_555
H10 C14 1_555 1_555
C15 C14 1_555 1_555
C16 C15 1_555 1_555
H11 C16 1_555 1_555
C17 N1 1_555 1_555
H12 C17 1_555 1_555
C18 C15 1_555 1_555
H13 C18 1_555 1_555
N2 Ni1 1_555 1_555
C19 N2 1_555 1_555
H14 C19 1_555 1_555
C20 C19 1_555 1_555
H15 C20 1_555 1_555
C21 C20 1_555 1_555
C22 C21 1_555 1_555
H16 C22 1_555 1_555
C23 N2 1_555 1_555
H17 C23 1_555 1_555
C24 C21 1_555 1_555
H18 C24 1_555 1_555
C3A C3 1_555 1_555
C2A C3A 1_555 1_555
C1A C2A 1_555 1_555
C5A C4 1_555 1_555
H5A C5A 1_555 1_555
C6A C1A 1_555 1_555
O1A C6A 1_555 1_555
O2A C6A 1_555 1_555
H3A C2A 1_555 1_555
C4A C5 1_555 1_555
H4A C4A 1_555 1_555
C9A C9 1_555 1_555
C8A C9A 1_555 1_555
C7A C8A 1_555 1_555
C11A C10 1_555 1_555
H8A C11A 1_555 1_555
C12A C7A 1_555 1_555
O3A C12A 1_555 1_555
O4A C12A 1_555 1_555
H6A C8A 1_555 1_555
C10A C11 1_555 1_555
H7A C10A 1_555 1_555
C18A C18 1_555 1_555
C15A C18A 1_555 1_555
C14A C15A 1_555 1_555
C13A C14A 1_555 1_555
N1A C13A 1_555 1_555
C17A N1A 1_555 1_555
C16A C15A 1_555 1_555
H11A C16A 1_555 1_555
H12A C17A 1_555 1_555
H9A C13A 1_555 1_555
H10A C14A 1_555 1_555
H13A C18A 1_555 1_555
C24A C24 1_555 1_555
C21A C24A 1_555 1_555
C20A C21A 1_555 1_555
C19A C20A 1_555 1_555
N2A C19A 1_555 1_555
C23A N2A 1_555 1_555
C22A C21A 1_555 1_555
H16A C22A 1_555 1_555
H17A C23A 1_555 1_555
H14A C19A 1_555 1_555
H15A C20A 1_555 1_555
H18A C24A 1_555 1_555
Ni1A O1A 1_555 1_555
O5A Ni1A 1_555 1_555
H1A O5A 1_555 1_555
H2A O5A 1_555 1_555
Ni1A_2 O3A 1_555 1_555
Ni1A_3 N1A 1_555 1_555
Ni1A_4 N2A 1_555 1_555
O3A_2 Ni1A 1_555 1_555
O4A_2 Ni1A 1_555 1_555
N1A_2 Ni1A 1_555 1_555
N2A_2 Ni1A 1_555 1_555
O4 C12 1_555 1_555
C7 C12 1_555 1_555
C16 C17 1_555 1_555
C22 C23 1_555 1_555
C3A C4A 1_555 1_555
C1A C5A 1_555 1_555
C9A C10A 1_555 1_555
C7A C11A 1_555 1_555
O4A Ni1A_2 1_555 1_555
C17A C16A 1_555 1_555
C23A C22A 1_555 1_555

#END
