
#######################################################################
#
#                 Cambridge Crystallographic Data Centre
#                                CCDC 
#
#######################################################################
#
# If this CIF has been generated from an entry in the Cambridge 
# Structural Database, then it will include bibliographic, chemical, 
# crystal, experimental, refinement or atomic coordinate data resulting 
# from the CCDC's data processing and validation procedures.
#
#######################################################################

data_VASQOW
_symmetry_cell_setting           monoclinic
_symmetry_space_group_name_H-M   'P 21/n'
_symmetry_Int_Tables_number      14
_space_group_name_Hall           '-P 2yn'
loop_
_symmetry_equiv_pos_site_id
_symmetry_equiv_pos_as_xyz
1 x,y,z
2 1/2+x,1/2-y,1/2+z
3 -x,-y,-z
4 1/2-x,1/2+y,1/2-z
_cell_length_a                   8.032(2)
_cell_length_b                   9.359(2)
_cell_length_c                   19.336(4)
_cell_angle_alpha                90
_cell_angle_beta                 96.70(3)
_cell_angle_gamma                90
_cell_volume                     1443.59
loop_
_atom_site_label
_atom_site_type_symbol
_atom_site_fract_x
_atom_site_fract_y
_atom_site_fract_z
Co1 Co -0.04230(9) 0.10275(8) -0.06828(4)
O1 O -0.2650(5) 0.1559(4) -0.0333(2)
O2 O -0.1701(5) -0.0329(4) 0.1103(2)
O3 O -0.1770(6) 0.0781(5) -0.1656(2)
O4 O 0.0161(5) 0.3189(4) -0.0793(2)
O5 O -0.0884(5) -0.1124(5) -0.0362(2)
O6 O -0.6173(5) 0.2342(4) 0.0146(2)
O7 O -0.0212(5) 0.3392(4) 0.0881(2)
O8 O -0.5174(5) 0.0708(4) 0.1635(2)
C1 C -0.4907(7) 0.1669(6) 0.0437(3)
C2 C -0.2892(7) 0.0471(6) 0.0857(3)
C3 C -0.3308(7) 0.1284(6) 0.0212(3)
C4 C -0.4489(6) 0.0914(6) 0.1099(3)
C5 C 0.0075(6) 0.4163(6) -0.0353(3)
C6 C -0.0100(6) 0.4269(6) 0.0395(3)
H15 H -0.2059(26) -0.1509(54) -0.0365(28)
H16 H -0.143(10) 0.0219(84) -0.2061(30)
H17 H -0.2487(68) 0.0390(64) -0.1644(32)
H18 H -0.0482(95) -0.1759(87) -0.0533(42)
C5B C -0.0075(6) 0.5837(6) 0.0353(3)
O4B O -0.0161(5) 0.6811(4) 0.0793(2)
C6B C 0.0100(6) 0.5731(6) -0.0395(3)
O7B O 0.0212(5) 0.6608(4) -0.0881(2)
O1B O 0.2650(5) -0.1559(4) 0.0333(2)
O2B O 0.1701(5) 0.0329(4) -0.1103(2)
O6B O 0.6173(5) -0.2342(4) -0.0146(2)
O8B O 0.5174(5) -0.0708(4) -0.1635(2)
C1B C 0.4907(7) -0.1669(6) -0.0437(3)
C2B C 0.2892(7) -0.0471(6) -0.0857(3)
C3B C 0.3308(7) -0.1284(6) -0.0212(3)
C4B C 0.4489(6) -0.0914(6) -0.1099(3)
O5B O 0.0884(5) 0.1124(5) 0.0362(2)
H15B H 0.2059(26) 0.1509(54) 0.0365(28)
H18B H 0.0482(95) 0.1759(87) 0.0533(42)
Co1B Co 0.04230(9) -0.10275(8) 0.06828(4)
O3B O 0.1770(6) -0.0781(5) 0.1656(2)
H16B H 0.143(10) -0.0219(84) 0.2061(30)
H17B H 0.2487(68) -0.0390(64) 0.1644(32)
Co1B_2 Co 0.04230(9) 0.89725(8) 0.06828(4)
O4B_2 O -0.0161(5) -0.3189(4) 0.0793(2)
N1 N 0.0289(6) 0.0176(6) 0.2776(3)
H1 H 0.0690(6) -0.0193(6) 0.2392(3)
N2 N -0.0788(7) 0.1192(6) 0.3828(3)
H2 H -0.1180(7) 0.1556(6) 0.4214(3)
C7 C 0.0057(10) 0.1708(8) 0.2690(4)
H3 H -0.0756(10) 0.1894(8) 0.2289(4)
H4 H 0.1110(10) 0.2147(8) 0.2607(4)
C8 C -0.1299(9) -0.0492(8) 0.2865(4)
H5 H -0.1141(9) -0.1514(8) 0.2926(4)
H6 H -0.2086(9) -0.0336(8) 0.2452(4)
C9 C 0.1488(10) -0.0100(10) 0.3390(4)
H7 H 0.2556(10) 0.0335(10) 0.3328(4)
H8 H 0.1661(10) -0.1122(10) 0.3443(4)
C10 C -0.2005(11) 0.0131(10) 0.3498(5)
H9 H -0.3074(11) 0.0589(10) 0.3357(5)
H10 H -0.2178(11) -0.0622(10) 0.3827(5)
C11 C -0.0553(9) 0.2367(7) 0.3340(4)
H11 H 0.0267(9) 0.3043(7) 0.3553(4)
H12 H -0.1603(9) 0.2868(7) 0.3217(4)
C12 C 0.0873(12) 0.0488(9) 0.4034(4)
H13 H 0.1668(12) 0.1178(9) 0.4253(4)
H14 H 0.0750(12) -0.0276(9) 0.4363(4)
loop_
_geom_bond_atom_site_label_1
_geom_bond_atom_site_label_2
_geom_bond_site_symmetry_1
_geom_bond_site_symmetry_2
Co1 O1 1_555 1_555
O1 C3 1_555 1_555
O2 C2 1_555 1_555
O3 Co1 1_555 1_555
O4 Co1 1_555 1_555
O5 Co1 1_555 1_555
O6 C1 1_555 1_555
O7 C6 1_555 1_555
O8 C4 1_555 1_555
C1 C3 1_555 1_555
C2 C3 1_555 1_555
C4 C1 1_555 1_555
C5 O4 1_555 1_555
C6 C5 1_555 1_555
N1 H1 1_555 1_555
N2 H2 1_555 1_555
C7 N1 1_555 1_555
H3 C7 1_555 1_555
H4 C7 1_555 1_555
C8 N1 1_555 1_555
H5 C8 1_555 1_555
H6 C8 1_555 1_555
C9 N1 1_555 1_555
H7 C9 1_555 1_555
H8 C9 1_555 1_555
C10 N2 1_555 1_555
H9 C10 1_555 1_555
H10 C10 1_555 1_555
C11 N2 1_555 1_555
H11 C11 1_555 1_555
H12 C11 1_555 1_555
C12 N2 1_555 1_555
H13 C12 1_555 1_555
H14 C12 1_555 1_555
H15 O5 1_555 1_555
H16 O3 1_555 1_555
H17 O3 1_555 1_555
H18 O5 1_555 1_555
C5B C6 1_555 1_555
O4B C5B 1_555 1_555
C6B C5 1_555 1_555
O7B C6B 1_555 1_555
O1B C3B 1_555 1_555
O2B Co1 1_555 1_555
O6B C1B 1_555 1_555
O8B C4B 1_555 1_555
C1B C3B 1_555 1_555
C2B O2B 1_555 1_555
C3B C2B 1_555 1_555
C4B C1B 1_555 1_555
O5B Co1 1_555 1_555
H15B O5B 1_555 1_555
H18B O5B 1_555 1_555
Co1B O2 1_555 1_555
O3B Co1B 1_555 1_555
H16B O3B 1_555 1_555
H17B O3B 1_555 1_555
Co1B_2 O4B 1_555 1_555
O4B_2 Co1B 1_555 1_555
O5 Co1B 1_555 1_555
C2 C4 1_555 1_555
C7 C11 1_555 1_555
C8 C10 1_555 1_555
C9 C12 1_555 1_555
C5B C6B 1_555 1_555
O1B Co1B 1_555 1_555
C2B C4B 1_555 1_555
O5B Co1B 1_555 1_555

#END
