
#######################################################################
#
#                 Cambridge Crystallographic Data Centre
#                                CCDC 
#
#######################################################################
#
# If this CIF has been generated from an entry in the Cambridge 
# Structural Database, then it will include bibliographic, chemical, 
# crystal, experimental, refinement or atomic coordinate data resulting 
# from the CCDC's data processing and validation procedures.
#
#######################################################################

data_VATCAV
_symmetry_cell_setting           monoclinic
_symmetry_space_group_name_H-M   'P 2/n'
_symmetry_Int_Tables_number      13
_space_group_name_Hall           '-P 2yac'
loop_
_symmetry_equiv_pos_site_id
_symmetry_equiv_pos_as_xyz
1 x,y,z
2 1/2+x,-y,1/2+z
3 -x,-y,-z
4 1/2-x,y,1/2-z
_cell_length_a                   10.5970(10)
_cell_length_b                   5.8080(10)
_cell_length_c                   20.5650(10)
_cell_angle_alpha                90
_cell_angle_beta                 98.280(10)
_cell_angle_gamma                90
_cell_volume                     1252.53
loop_
_atom_site_label
_atom_site_type_symbol
_atom_site_fract_x
_atom_site_fract_y
_atom_site_fract_z
Cu1 Cu 0.2500 0.17719(5) 0.2500
S1 S -0.2500 -0.13383(12) 0.2500
O1 O 0.08091(12) 0.1720(3) 0.27637(7)
O2 O 0.03250(15) -0.1976(3) 0.25840(12)
O3 O 0.2500 0.5542(4) 0.2500
H1 H 0.3174 0.6318 0.2474
N1 N 0.33230(14) 0.1316(3) 0.34326(7)
C1 C 0.00411(17) 0.0049(4) 0.26490(10)
C2 C -0.13300(16) 0.0710(3) 0.25810(10)
C3 C -0.18242(19) 0.2855(4) 0.25497(15)
H2 H -0.1315 0.4229 0.2593
C4 C 0.29722(19) -0.0422(4) 0.37845(10)
H3 H 0.2246 -0.1324 0.3604
C5 C 0.3606(2) -0.0995(4) 0.43960(10)
H4 H 0.3324 -0.2274 0.4633
C6 C 0.46486(18) 0.0285(4) 0.46704(9)
C7 C 0.4990(2) 0.2134(4) 0.43072(11)
H5 H 0.5692 0.3100 0.4483
C8 C 0.4319(2) 0.2590(4) 0.36970(10)
H6 H 0.4579 0.3863 0.3450
C3C C -0.31758(19) 0.2855(4) 0.24503(15)
C2C C -0.36700(16) 0.0710(3) 0.24190(10)
C1C C -0.50411(17) 0.0049(4) 0.23510(10)
O1C O -0.58091(12) 0.1720(3) 0.22363(7)
O2C O -0.53250(15) -0.1976(3) 0.24160(12)
H2C H -0.3685 0.4229 0.2407
H1C H 0.1826 0.6318 0.2526
C6B C 0.53514(18) -0.0285(4) 0.53296(9)
C5B C 0.6394(2) 0.0995(4) 0.56040(10)
C4B C 0.70278(19) 0.0422(4) 0.62155(10)
N1B N 0.66770(14) -0.1316(3) 0.65674(7)
C8B C 0.5681(2) -0.2590(4) 0.63030(10)
C7B C 0.5010(2) -0.2134(4) 0.56928(11)
H5B H 0.4308 -0.3100 0.5517
H6B H 0.5421 -0.3863 0.6550
H3B H 0.7754 0.1324 0.6396
H4B H 0.6676 0.2274 0.5367
O1C_2 O 0.41909(12) 0.1720(3) 0.22363(7)
N1C N 0.16770(14) 0.1316(3) 0.15674(7)
Cu1_2 Cu -0.7500 0.17719(5) 0.2500
Cu1A Cu 0.7500 -0.17719(5) 0.7500
N2 N 0.2297(3) 0.4493(5) 0.50945(14)
C9 C 0.2201(4) 0.3125(8) 0.5587(2)
H7 H 0.2768 0.3397 0.5987
C10 C 0.1338(4) 0.1342(7) 0.55761(17)
H8 H 0.1337 0.0367 0.5953
C11 C 0.0483(2) 0.0945(5) 0.50180(13)
C12 C 0.0578(3) 0.2356(5) 0.44933(14)
H9 H 0.0021 0.2139 0.4087
C13 C 0.1496(3) 0.4083(5) 0.45586(16)
H10 H 0.1549 0.5049 0.4185
C11B C -0.0483(2) -0.0945(5) 0.49820(13)
C10B C -0.1338(4) -0.1342(7) 0.44239(17)
C9B C -0.2201(4) -0.3125(8) 0.4413(2)
N2B N -0.2297(3) -0.4493(5) 0.49055(14)
C13B C -0.1496(3) -0.4083(5) 0.54414(16)
C12B C -0.0578(3) -0.2356(5) 0.55067(14)
H9B H -0.0021 -0.2139 0.5913
H10B H -0.1549 -0.5049 0.5815
H7B H -0.2768 -0.3397 0.4013
H8B H -0.1337 -0.0367 0.4047
loop_
_geom_bond_atom_site_label_1
_geom_bond_atom_site_label_2
_geom_bond_site_symmetry_1
_geom_bond_site_symmetry_2
Cu1 O1 1_555 1_555
S1 C2 1_555 1_555
O1 C1 1_555 1_555
O2 C1 1_555 1_555
O3 Cu1 1_555 1_555
H1 O3 1_555 1_555
N1 Cu1 1_555 1_555
N2 C9 1_555 1_555
C1 C2 1_555 1_555
C2 C3 1_555 1_555
C3 H2 1_555 1_555
C4 N1 1_555 1_555
H3 C4 1_555 1_555
C5 C4 1_555 1_555
H4 C5 1_555 1_555
C6 C5 1_555 1_555
C7 C6 1_555 1_555
H5 C7 1_555 1_555
C8 N1 1_555 1_555
H6 C8 1_555 1_555
C9 H7 1_555 1_555
C10 C9 1_555 1_555
H8 C10 1_555 1_555
C11 C10 1_555 1_555
C12 C11 1_555 1_555
H9 C12 1_555 1_555
C13 N2 1_555 1_555
H10 C13 1_555 1_555
C3C C3 1_555 1_555
C2C S1 1_555 1_555
C1C C2C 1_555 1_555
O1C C1C 1_555 1_555
O2C C1C 1_555 1_555
H2C C3C 1_555 1_555
H1C O3 1_555 1_555
C6B C6 1_555 1_555
C5B C6B 1_555 1_555
C4B C5B 1_555 1_555
N1B C4B 1_555 1_555
C8B N1B 1_555 1_555
C7B C6B 1_555 1_555
H5B C7B 1_555 1_555
H6B C8B 1_555 1_555
H3B C4B 1_555 1_555
H4B C5B 1_555 1_555
C11B C11 1_555 1_555
C10B C11B 1_555 1_555
C9B C10B 1_555 1_555
N2B C9B 1_555 1_555
C13B N2B 1_555 1_555
C12B C11B 1_555 1_555
H9B C12B 1_555 1_555
H10B C13B 1_555 1_555
H7B C9B 1_555 1_555
H8B C10B 1_555 1_555
O1C_2 Cu1 1_555 1_555
N1C Cu1 1_555 1_555
Cu1_2 O1C 1_555 1_555
Cu1A N1B 1_555 1_555
C7 C8 1_555 1_555
C12 C13 1_555 1_555
C3C C2C 1_555 1_555
C8B C7B 1_555 1_555
C13B C12B 1_555 1_555

#END
