
#######################################################################
#
#                 Cambridge Crystallographic Data Centre
#                                CCDC 
#
#######################################################################
#
# If this CIF has been generated from an entry in the Cambridge 
# Structural Database, then it will include bibliographic, chemical, 
# crystal, experimental, refinement or atomic coordinate data resulting 
# from the CCDC's data processing and validation procedures.
#
#######################################################################

data_VATGUT
_symmetry_cell_setting           orthorhombic
_symmetry_space_group_name_H-M   'P n a 21'
_symmetry_Int_Tables_number      33
_space_group_name_Hall           'P 2c -2n'
loop_
_symmetry_equiv_pos_site_id
_symmetry_equiv_pos_as_xyz
1 x,y,z
2 -x,-y,1/2+z
3 1/2-x,1/2+y,1/2+z
4 1/2+x,1/2-y,z
_cell_length_a                   8.5430(2)
_cell_length_b                   20.1360(2)
_cell_length_c                   11.0440(4)
_cell_angle_alpha                90
_cell_angle_beta                 90
_cell_angle_gamma                90
_cell_volume                     1899.81
loop_
_atom_site_label
_atom_site_type_symbol
_atom_site_fract_x
_atom_site_fract_y
_atom_site_fract_z
Cu1 Cu 0.82894(3) 0.083702(11) 0.69292(3)
O1 O 0.6314(2) 0.07721(8) 0.52943(16)
C1 C 0.5002(3) 0.03700(12) 0.4975(2)
H1 H 0.4908 0.0342 0.4101
H2 H 0.4047 0.0562 0.5295
C2 C 0.5256(3) -0.03089(11) 0.5502(3)
H3 H 0.5420 -0.0268 0.6368
H4 H 0.4321 -0.0574 0.5376
O2 O 0.65709(18) -0.06467(8) 0.49759(16)
C3 C 0.6190(3) -0.09238(12) 0.3820(2)
H5 H 0.5689 -0.0589 0.3321
H6 H 0.5461 -0.1289 0.3924
C4 C 0.7647(3) -0.11699(11) 0.3199(2)
H7 H 0.8017 -0.1563 0.3619
H8 H 0.7379 -0.1301 0.2379
O3 O 0.89000(18) -0.06937(8) 0.31475(16)
C5 C 0.8463(2) -0.00541(11) 0.2730(2)
H9 H 0.7976 0.0196 0.3378
H10 H 0.7721 -0.0093 0.2069
C6 C 0.9944(3) 0.02982(11) 0.22983(19)
C7 C 0.9604(2) 0.10231(9) 0.1971(3)
H11 H 0.9334 0.1271 0.2695
H12 H 1.0525 0.1224 0.1612
O4 O 0.83449(19) 0.10417(8) 0.11406(17)
C8 C 0.8558(3) 0.14958(12) 0.0158(2)
H13 H 0.7846 0.1378 -0.0491
H14 H 0.9617 0.1452 -0.0147
C9 C 0.8278(3) 0.22038(12) 0.0509(3)
H15 H 0.8323 0.2485 -0.0203
H16 H 0.7248 0.2249 0.0870
O5 O 0.94538(19) 0.24010(7) 0.13578(15)
C10 C 0.9153(3) 0.30163(10) 0.1949(3)
H17 H 0.8803 0.3336 0.1350
H18 H 1.0125 0.3181 0.2291
C11 C 0.7951(3) 0.29757(11) 0.2938(2)
H19 H 0.7841 0.3407 0.3321
H20 H 0.6946 0.2854 0.2595
O6 O 0.84066(18) 0.24925(8) 0.38260(16)
C12 C 0.7456(3) 0.25485(11) 0.4885(2)
H21 H 0.6419 0.2702 0.4662
H22 H 0.7912 0.2871 0.5434
C13 C 0.7337(3) 0.18752(10) 0.5511(2)
C14 C 0.6324(3) 0.14106(11) 0.4742(2)
H23 H 0.5265 0.1582 0.4690
H24 H 0.6746 0.1380 0.3929
C15 C 0.6537(2) 0.19508(10) 0.6761(2)
N1 N 0.8857(2) 0.15445(9) 0.57334(17)
H25 H 0.9513 0.1816 0.6117
H26 H 0.9286 0.1424 0.5038
O7 O 0.69474(19) 0.15321(8) 0.75602(16)
O8 O 0.55335(17) 0.23864(7) 0.6901(2)
C16 C 1.1177(3) 0.02567(10) 0.3318(2)
N2 N 1.0558(2) -0.00723(9) 0.12454(17)
H27 H 0.9851 -0.0153 0.0752
H28 H 1.1140 0.0150 0.0746
O9 O 1.22249(19) -0.01920(8) 0.31956(15)
O10 O 1.10707(19) 0.06410(8) 0.41897(15)
N2A N 0.9442(2) 0.00723(9) 0.62454(17)
O9A O 0.77751(19) 0.01920(8) 0.81956(15)
Cu1A Cu 1.17106(3) -0.083702(11) 0.19292(3)
H27A H 1.0149 0.0153 0.5752
H28A H 0.8860 -0.0150 0.5746
loop_
_geom_bond_atom_site_label_1
_geom_bond_atom_site_label_2
_geom_bond_site_symmetry_1
_geom_bond_site_symmetry_2
Cu1 O1 1_555 1_555
O1 C1 1_555 1_555
C1 H1 1_555 1_555
H2 C1 1_555 1_555
C2 C1 1_555 1_555
H3 C2 1_555 1_555
H4 C2 1_555 1_555
O2 C2 1_555 1_555
C3 O2 1_555 1_555
H5 C3 1_555 1_555
H6 C3 1_555 1_555
C4 C3 1_555 1_555
H7 C4 1_555 1_555
H8 C4 1_555 1_555
O3 C4 1_555 1_555
C5 O3 1_555 1_555
H9 C5 1_555 1_555
H10 C5 1_555 1_555
C6 C5 1_555 1_555
C7 C6 1_555 1_555
H11 C7 1_555 1_555
H12 C7 1_555 1_555
O4 C7 1_555 1_555
C8 O4 1_555 1_555
H13 C8 1_555 1_555
H14 C8 1_555 1_555
C9 C8 1_555 1_555
H15 C9 1_555 1_555
H16 C9 1_555 1_555
O5 C9 1_555 1_555
C10 O5 1_555 1_555
H17 C10 1_555 1_555
H18 C10 1_555 1_555
C11 C10 1_555 1_555
H19 C11 1_555 1_555
H20 C11 1_555 1_555
O6 C11 1_555 1_555
C12 O6 1_555 1_555
H21 C12 1_555 1_555
H22 C12 1_555 1_555
C13 C12 1_555 1_555
C14 O1 1_555 1_555
H23 C14 1_555 1_555
H24 C14 1_555 1_555
C15 C13 1_555 1_555
N1 Cu1 1_555 1_555
H25 N1 1_555 1_555
H26 N1 1_555 1_555
O7 Cu1 1_555 1_555
O8 C15 1_555 1_555
C16 C6 1_555 1_555
N2 C6 1_555 1_555
H27 N2 1_555 1_555
H28 N2 1_555 1_555
O9 C16 1_555 1_555
O10 C16 1_555 1_555
N2A Cu1 1_555 1_555
O9A Cu1 1_555 1_555
Cu1A N2 1_555 1_555
H27A N2A 1_555 1_555
H28A N2A 1_555 1_555
C13 C14 1_555 1_555
C13 N1 1_555 1_555
C15 O7 1_555 1_555
O9 Cu1A 1_555 1_555

#END
