
#######################################################################
#
#                 Cambridge Crystallographic Data Centre
#                                CCDC 
#
#######################################################################
#
# If this CIF has been generated from an entry in the Cambridge 
# Structural Database, then it will include bibliographic, chemical, 
# crystal, experimental, refinement or atomic coordinate data resulting 
# from the CCDC's data processing and validation procedures.
#
#######################################################################

data_VATPUD
_symmetry_cell_setting           monoclinic
_symmetry_space_group_name_H-M   'C 2/c'
_symmetry_Int_Tables_number      15
_space_group_name_Hall           '-C 2yn'
loop_
_symmetry_equiv_pos_site_id
_symmetry_equiv_pos_as_xyz
1 x,y,z
2 -x,y,1/2-z
3 1/2+x,1/2+y,z
4 1/2-x,1/2+y,1/2-z
5 -x,-y,-z
6 x,-y,1/2+z
7 1/2-x,1/2-y,-z
8 1/2+x,1/2-y,1/2+z
_cell_length_a                   24.060(3)
_cell_length_b                   9.2656(7)
_cell_length_c                   10.9691(17)
_cell_angle_alpha                90
_cell_angle_beta                 110.643(8)
_cell_angle_gamma                90
_cell_volume                     2288.34
loop_
_atom_site_label
_atom_site_type_symbol
_atom_site_fract_x
_atom_site_fract_y
_atom_site_fract_z
Co1 Co 0.5000 0.0000 1.0000
O1 O 0.42719(5) 0.10879(12) 0.85284(11)
O2 O 0.36435(5) 0.12430(15) 0.96015(12)
O3 O 0.23312(6) 0.54315(16) 0.49163(14)
N1 N 0.52914(6) 0.19967(14) 1.09283(13)
N2 N 0.52507(6) 0.42675(14) 1.15012(13)
C1 C 0.49417(7) 0.30609(17) 1.10020(16)
H1 H 0.4522 0.2987 1.0735
C2 C 0.58591(8) 0.25419(19) 1.14278(19)
H2 H 0.6210 0.2021 1.1508
C3 C 0.58408(8) 0.39381(19) 1.17896(19)
H3 H 0.6170 0.4563 1.2167
C4 C 0.49939(8) 0.55880(17) 1.18032(17)
H4 H 0.4578 0.5682 1.1199
H5 H 0.5219 0.6431 1.1671
C5 C 0.37945(6) 0.15429(16) 0.86413(15)
C6 C 0.34025(7) 0.25437(16) 0.76309(16)
C7 C 0.34755(7) 0.27875(17) 0.64445(17)
H6 H 0.3779 0.2288 0.6249
C8 C 0.31132(7) 0.37465(19) 0.55458(17)
H7 H 0.3166 0.3892 0.4736
C9 C 0.26708(7) 0.45001(18) 0.58268(17)
C10 C 0.25963(7) 0.42793(19) 0.70125(18)
H8 H 0.2300 0.4799 0.7215
C11 C 0.29545(7) 0.33004(18) 0.78997(17)
H9 H 0.2896 0.3140 0.8701
H10 H 0.2056(11) 0.576(3) 0.516(2)
O4 O 0.55272(6) 0.03506(15) 0.88397(13)
H11 H 0.5519(11) 0.044(3) 0.8083(17)
H12 H 0.5816(10) -0.018(2) 0.923(2)
Co1A Co 0.5000 0.0000 1.5000
O1D O 0.57281(5) -0.10879(12) 1.14716(11)
O2D O 0.63565(5) -0.12430(15) 1.03985(12)
O3D O 0.76688(6) -0.54315(16) 1.50837(14)
N1A N 0.47086(6) 0.19967(14) 1.40717(13)
N1D N 0.47086(6) -0.19967(14) 0.90717(13)
N2A N 0.47493(6) 0.42675(14) 1.34988(13)
C1A C 0.50583(7) 0.30609(17) 1.39980(16)
H1A H 0.5478 0.2987 1.4265
C2A C 0.41409(8) 0.25419(19) 1.35722(19)
H2A H 0.3790 0.2021 1.3492
C3A C 0.41592(8) 0.39381(19) 1.32104(19)
H3A H 0.3830 0.4563 1.2833
C4A C 0.50061(8) 0.55880(17) 1.31968(17)
H4A H 0.5422 0.5682 1.3801
H5A H 0.4781 0.6431 1.3329
C5D C 0.62055(6) -0.15429(16) 1.13587(15)
C6D C 0.65975(7) -0.25437(16) 1.23691(16)
C7D C 0.65245(7) -0.27875(17) 1.35555(17)
H6D H 0.6221 -0.2288 1.3751
C8D C 0.68868(7) -0.37465(19) 1.44542(17)
H7D H 0.6834 -0.3892 1.5264
C9D C 0.73292(7) -0.45001(18) 1.41732(17)
C10D C 0.74037(7) -0.42793(19) 1.29875(18)
H8D H 0.7700 -0.4799 1.2785
C11D C 0.70455(7) -0.33004(18) 1.21003(17)
H9D H 0.7104 -0.3140 1.1299
H10D H 0.7944(11) -0.576(3) 1.484(2)
O4D O 0.44728(6) -0.03506(15) 1.11603(13)
H11D H 0.4481(11) -0.044(3) 1.1917(17)
H12D H 0.4184(10) 0.018(2) 1.077(2)
loop_
_geom_bond_atom_site_label_1
_geom_bond_atom_site_label_2
_geom_bond_site_symmetry_1
_geom_bond_site_symmetry_2
Co1 O1 1_555 1_555
O1 C5 1_555 1_555
O2 C5 1_555 1_555
O3 C9 1_555 1_555
N1 Co1 1_555 1_555
N2 C1 1_555 1_555
C1 N1 1_555 1_555
H1 C1 1_555 1_555
C2 N1 1_555 1_555
H2 C2 1_555 1_555
C3 N2 1_555 1_555
H3 C3 1_555 1_555
C4 N2 1_555 1_555
H4 C4 1_555 1_555
H5 C4 1_555 1_555
C5 C6 1_555 1_555
C6 C7 1_555 1_555
C7 H6 1_555 1_555
C8 C7 1_555 1_555
H7 C8 1_555 1_555
C9 C8 1_555 1_555
C10 C9 1_555 1_555
H8 C10 1_555 1_555
C11 C6 1_555 1_555
H9 C11 1_555 1_555
H10 O3 1_555 1_555
O4 Co1 1_555 1_555
H11 O4 1_555 1_555
H12 O4 1_555 1_555
Co1A N1A 1_555 1_555
O1D Co1 1_555 1_555
O2D C5D 1_555 1_555
O3D C9D 1_555 1_555
N1A C1A 1_555 1_555
N1D Co1 1_555 1_555
N2A C1A 1_555 1_555
C1A H1A 1_555 1_555
C2A N1A 1_555 1_555
H2A C2A 1_555 1_555
C3A N2A 1_555 1_555
H3A C3A 1_555 1_555
C4A C4 1_555 1_555
H4A C4A 1_555 1_555
H5A C4A 1_555 1_555
C5D O1D 1_555 1_555
C6D C5D 1_555 1_555
C7D C6D 1_555 1_555
H6D C7D 1_555 1_555
C8D C7D 1_555 1_555
H7D C8D 1_555 1_555
C9D C8D 1_555 1_555
C10D C9D 1_555 1_555
H8D C10D 1_555 1_555
C11D C6D 1_555 1_555
H9D C11D 1_555 1_555
H10D O3D 1_555 1_555
O4D Co1 1_555 1_555
H11D O4D 1_555 1_555
H12D O4D 1_555 1_555
C2 C3 1_555 1_555
C10 C11 1_555 1_555
N2A C4A 1_555 1_555
C2A C3A 1_555 1_555
C10D C11D 1_555 1_555

#END
