
#######################################################################
#
#                 Cambridge Crystallographic Data Centre
#                                CCDC 
#
#######################################################################
#
# If this CIF has been generated from an entry in the Cambridge 
# Structural Database, then it will include bibliographic, chemical, 
# crystal, experimental, refinement or atomic coordinate data resulting 
# from the CCDC's data processing and validation procedures.
#
#######################################################################

data_VATQOX
_symmetry_cell_setting           triclinic
_symmetry_space_group_name_H-M   'P -1'
_symmetry_Int_Tables_number      2
_space_group_name_Hall           '-P 1'
loop_
_symmetry_equiv_pos_site_id
_symmetry_equiv_pos_as_xyz
1 x,y,z
2 -x,-y,-z
_cell_length_a                   12.9865(7)
_cell_length_b                   14.8094(9)
_cell_length_c                   15.4210(9)
_cell_angle_alpha                85.1470(10)
_cell_angle_beta                 71.6120(10)
_cell_angle_gamma                79.5440(10)
_cell_volume                     2766.45
loop_
_atom_site_label
_atom_site_type_symbol
_atom_site_fract_x
_atom_site_fract_y
_atom_site_fract_z
Pb1 Pb 0.617079(17) 0.614214(14) 0.204444(14)
Pb2 Pb 0.794251(18) 0.010070(15) 0.124974(14)
Pb3 Pb 0.844723(19) 0.568141(17) 0.332607(15)
S1 S 1.06040(14) 0.11324(11) 0.10530(12)
S2 S 0.56741(13) 0.22147(11) 0.62060(10)
N1 N 0.6567(4) 0.6277(3) 0.0261(3)
N2 N 0.4648(4) 0.5909(3) 0.1446(3)
N3 N 0.7536(4) 0.1106(3) -0.0038(3)
N4 N 0.5942(4) 0.0507(3) 0.1395(3)
N5 N 0.9987(5) 0.4487(5) 0.3614(4)
N6 N 0.9922(5) 0.6329(5) 0.3732(4)
O1 O 0.5757(4) 0.4750(3) 0.2687(3)
O2 O 0.7163(5) 0.7384(4) 0.4272(4)
O3 O 0.6157(3) 0.5232(3) 0.3857(3)
O5 O 0.7468(4) 0.1553(3) 0.1931(3)
O7 O 0.7134(4) 0.0470(3) 0.3005(3)
O9 O 0.6481(5) 0.1434(4) 0.6289(3)
O11 O 0.5759(4) 0.3006(3) 0.6660(3)
O12 O 0.7066(4) -0.1568(4) 0.1946(4)
O13 O 0.4569(4) 0.2028(4) 0.6482(3)
O14 O 0.7893(4) 0.5170(3) 0.1321(3)
O15 O 0.8349(4) 0.4350(3) 0.2468(3)
O16 O 1.0087(3) 0.4297(3) -0.1871(3)
O17 O 1.1376(4) 0.3098(4) -0.2055(3)
O18 O 0.9923(4) 0.0548(4) 0.0863(6)
O19 O 1.1717(3) 0.0895(3) 0.0477(3)
O20 O 1.0481(7) 0.1198(4) 0.1998(4)
C1 C 0.7516(5) 0.6460(5) -0.0309(4)
H1 H 0.8116 0.6408 -0.0091
C2 C 0.7646(6) 0.6728(5) -0.1221(5)
H2 H 0.8321 0.6853 -0.1604
C3 C 0.6771(6) 0.6804(6) -0.1543(5)
H3 H 0.6842 0.6996 -0.2146
C4 C 0.5756(5) 0.6594(5) -0.0966(4)
C5 C 0.4814(6) 0.6641(6) -0.1250(5)
H4 H 0.4848 0.6827 -0.1848
C6 C 0.3875(6) 0.6425(5) -0.0675(5)
H5 H 0.3274 0.6450 -0.0888
C7 C 0.3770(5) 0.6154(4) 0.0258(4)
C8 C 0.2815(5) 0.5922(5) 0.0880(5)
H6 H 0.2192 0.5945 0.0698
C9 C 0.2784(5) 0.5661(5) 0.1752(5)
H7 H 0.2157 0.5478 0.2164
C10 C 0.3714(5) 0.5675(5) 0.2015(4)
H8 H 0.3684 0.5513 0.2617
C11 C 0.4690(4) 0.6132(4) 0.0567(4)
C12 C 0.5693(4) 0.6344(4) -0.0056(4)
C13 C 0.5983(4) 0.4618(4) 0.3440(4)
C14 C 0.6089(4) 0.3636(4) 0.3796(4)
C15 C 0.6514(5) 0.2936(4) 0.3170(4)
H9 H 0.6692 0.3084 0.2548
C16 C 0.6678(5) 0.2029(4) 0.3453(4)
C17 C 0.7135(5) 0.1297(4) 0.2763(4)
C18 C 0.6436(5) 0.1800(4) 0.4378(4)
H10 H 0.6555 0.1189 0.4574
C19 C 0.6004(5) 0.2506(4) 0.5022(4)
C20 C 0.5828(4) 0.3409(4) 0.4728(4)
H11 H 0.5535 0.3870 0.5154
C21 C 0.8330(6) 0.1373(4) -0.0738(4)
H12 H 0.9028 0.1338 -0.0680
C22 C 0.8145(7) 0.1708(5) -0.1565(5)
H13 H 0.8720 0.1875 -0.2053
C23 C 0.7125(6) 0.1787(5) -0.1648(5)
H14 H 0.6996 0.2017 -0.2191
C24 C 0.6260(6) 0.1519(4) -0.0913(4)
C25 C 0.5154(6) 0.1577(5) -0.0936(6)
H15 H 0.4992 0.1781 -0.1473
C26 C 0.4352(6) 0.1350(5) -0.0217(5)
H16 H 0.3641 0.1412 -0.0252
C27 C 0.4579(5) 0.1010(4) 0.0611(5)
C28 C 0.3757(5) 0.0765(5) 0.1395(6)
H17 H 0.3030 0.0847 0.1396
C29 C 0.4031(6) 0.0406(5) 0.2154(5)
H18 H 0.3496 0.0248 0.2679
C30 C 0.5139(6) 0.0282(5) 0.2122(5)
H19 H 0.5325 0.0029 0.2636
C31 C 0.5677(5) 0.0884(4) 0.0652(4)
C32 C 0.6517(5) 0.1172(4) -0.0105(4)
C33 C 0.8393(5) 0.4480(4) 0.1658(4)
C34 C 0.9094(4) 0.3762(4) 0.0978(4)
C35 C 0.9430(4) 0.3978(4) 0.0055(4)
H20 H 0.9187 0.4559 -0.0155
C36 C 1.0134(5) 0.3331(4) -0.0569(4)
C37 C 1.0552(5) 0.3585(4) -0.1558(4)
C38 C 1.0480(5) 0.2473(4) -0.0246(4)
H21 H 1.0949 0.2038 -0.0653
C39 C 1.0137(4) 0.2253(4) 0.0676(4)
C40 C 0.9441(4) 0.2898(4) 0.1299(4)
H22 H 0.9213 0.2749 0.1921
C41 C 1.0029(7) 0.3598(7) 0.3533(5)
H23 H 0.9492 0.3406 0.3344
C42 C 1.0881(8) 0.2915(7) 0.3728(6)
H24 H 1.0894 0.2290 0.3687
C43 C 1.1659(7) 0.3234(8) 0.3975(5)
H25 H 1.2231 0.2811 0.4085
C44 C 1.1647(7) 0.4158(8) 0.4071(5)
C45 C 1.2465(7) 0.4479(10) 0.4337(6)
H26 H 1.3041 0.4070 0.4457
C46 C 1.2385(8) 0.5422(11) 0.4413(6)
H27 H 1.2900 0.5630 0.4616
C47 C 1.1564(7) 0.6074(9) 0.4198(5)
C48 C 1.1474(9) 0.7034(9) 0.4235(6)
H28 H 1.1987 0.7269 0.4419
C49 C 1.0668(9) 0.7623(8) 0.4012(6)
H29 H 1.0622 0.8256 0.4022
C50 C 0.9902(7) 0.7227(6) 0.3764(5)
H30 H 0.9339 0.7622 0.3610
C51 C 1.0729(6) 0.5756(6) 0.3940(4)
C52 C 1.0782(6) 0.4805(7) 0.3883(4)
Pb1A Pb 0.382921(17) 0.385786(14) 0.795556(14)
Pb2A Pb 1.205749(18) -0.010070(15) -0.124974(14)
Pb3A Pb 1.155277(19) 0.431859(17) -0.332607(15)
O11A O 0.4241(4) 0.6994(3) 0.3340(3)
O16A O 0.9913(3) 0.5703(3) 0.1871(3)
O17A O 0.8624(4) 0.6902(4) 0.2055(3)
O19A O 0.8283(3) -0.0895(3) -0.0477(3)
O4 O 0.9270(17) 0.9037(17) 0.2506(18)
O6 O 0.0182(9) 0.0501(12) 0.3735(8)
O8 O 0.7817(12) 0.9120(6) 0.4222(9)
O10 O 0.8304(7) 0.0181(7) 0.5415(6)
loop_
_geom_bond_atom_site_label_1
_geom_bond_atom_site_label_2
_geom_bond_site_symmetry_1
_geom_bond_site_symmetry_2
Pb1 N1 1_555 1_555
Pb2 N3 1_555 1_555
Pb3 N5 1_555 1_555
S1 O18 1_555 1_555
S2 O9 1_555 1_555
N1 C1 1_555 1_555
N2 Pb1 1_555 1_555
N3 C21 1_555 1_555
N4 Pb2 1_555 1_555
N5 C41 1_555 1_555
N6 Pb3 1_555 1_555
O1 Pb1 1_555 1_555
O2 Pb3 1_555 1_555
O3 Pb1 1_555 1_555
O5 Pb2 1_555 1_555
O7 Pb2 1_555 1_555
O11 S2 1_555 1_555
O12 Pb2 1_555 1_555
O13 S2 1_555 1_555
O14 Pb1 1_555 1_555
O15 Pb3 1_555 1_555
O16 C37 1_555 1_555
O17 C37 1_555 1_555
O18 Pb2 1_555 1_555
O19 S1 1_555 1_555
O20 S1 1_555 1_555
C1 H1 1_555 1_555
C2 C1 1_555 1_555
H2 C2 1_555 1_555
C3 C2 1_555 1_555
H3 C3 1_555 1_555
C4 C3 1_555 1_555
C5 C4 1_555 1_555
H4 C5 1_555 1_555
C6 C5 1_555 1_555
H5 C6 1_555 1_555
C7 C6 1_555 1_555
C8 C7 1_555 1_555
H6 C8 1_555 1_555
C9 C8 1_555 1_555
H7 C9 1_555 1_555
C10 N2 1_555 1_555
H8 C10 1_555 1_555
C11 N2 1_555 1_555
C12 N1 1_555 1_555
C13 O1 1_555 1_555
C14 C13 1_555 1_555
C15 C14 1_555 1_555
H9 C15 1_555 1_555
C16 C15 1_555 1_555
C17 O5 1_555 1_555
C18 C16 1_555 1_555
H10 C18 1_555 1_555
C19 S2 1_555 1_555
C20 C14 1_555 1_555
H11 C20 1_555 1_555
C21 H12 1_555 1_555
C22 C21 1_555 1_555
H13 C22 1_555 1_555
C23 C22 1_555 1_555
H14 C23 1_555 1_555
C24 C23 1_555 1_555
C25 C24 1_555 1_555
H15 C25 1_555 1_555
C26 C25 1_555 1_555
H16 C26 1_555 1_555
C27 C26 1_555 1_555
C28 C27 1_555 1_555
H17 C28 1_555 1_555
C29 C28 1_555 1_555
H18 C29 1_555 1_555
C30 N4 1_555 1_555
H19 C30 1_555 1_555
C31 N4 1_555 1_555
C32 N3 1_555 1_555
C33 O14 1_555 1_555
C34 C33 1_555 1_555
C35 C34 1_555 1_555
H20 C35 1_555 1_555
C36 C35 1_555 1_555
C37 C36 1_555 1_555
C38 C36 1_555 1_555
H21 C38 1_555 1_555
C39 S1 1_555 1_555
C40 C34 1_555 1_555
H22 C40 1_555 1_555
C41 H23 1_555 1_555
C42 C41 1_555 1_555
H24 C42 1_555 1_555
C43 C42 1_555 1_555
H25 C43 1_555 1_555
C44 C43 1_555 1_555
C45 C44 1_555 1_555
H26 C45 1_555 1_555
C46 C45 1_555 1_555
H27 C46 1_555 1_555
C47 C46 1_555 1_555
C48 C47 1_555 1_555
H28 C48 1_555 1_555
C49 C48 1_555 1_555
H29 C49 1_555 1_555
C50 N6 1_555 1_555
H30 C50 1_555 1_555
C51 N6 1_555 1_555
C52 N5 1_555 1_555
Pb1A O11 1_555 1_555
Pb2A O19 1_555 1_555
Pb3A O16 1_555 1_555
O11A Pb1 1_555 1_555
O16A Pb3 1_555 1_555
O17A Pb3 1_555 1_555
O19A Pb2 1_555 1_555
Pb3 O3 1_555 1_555
O3 C13 1_555 1_555
O7 C17 1_555 1_555
O15 C33 1_555 1_555
O17 Pb3A 1_555 1_555
C4 C12 1_555 1_555
C7 C11 1_555 1_555
C9 C10 1_555 1_555
C11 C12 1_555 1_555
C16 C17 1_555 1_555
C18 C19 1_555 1_555
C19 C20 1_555 1_555
C24 C32 1_555 1_555
C27 C31 1_555 1_555
C29 C30 1_555 1_555
C31 C32 1_555 1_555
C38 C39 1_555 1_555
C39 C40 1_555 1_555
C44 C52 1_555 1_555
C47 C51 1_555 1_555
C49 C50 1_555 1_555
C51 C52 1_555 1_555

#END
