
#######################################################################
#
#                 Cambridge Crystallographic Data Centre
#                                CCDC 
#
#######################################################################
#
# If this CIF has been generated from an entry in the Cambridge 
# Structural Database, then it will include bibliographic, chemical, 
# crystal, experimental, refinement or atomic coordinate data resulting 
# from the CCDC's data processing and validation procedures.
#
#######################################################################

data_VATQAK
_symmetry_cell_setting           monoclinic
_symmetry_space_group_name_H-M   'C 2/c'
_symmetry_Int_Tables_number      15
_space_group_name_Hall           '-C 2yn'
loop_
_symmetry_equiv_pos_site_id
_symmetry_equiv_pos_as_xyz
1 x,y,z
2 -x,y,1/2-z
3 1/2+x,1/2+y,z
4 1/2-x,1/2+y,1/2-z
5 -x,-y,-z
6 x,-y,1/2+z
7 1/2-x,1/2-y,-z
8 1/2+x,1/2-y,1/2+z
_cell_length_a                   23.897(3)
_cell_length_b                   9.4755(8)
_cell_length_c                   11.0351(11)
_cell_angle_alpha                90
_cell_angle_beta                 111.060(4)
_cell_angle_gamma                90
_cell_volume                     2331.84
loop_
_atom_site_label
_atom_site_type_symbol
_atom_site_fract_x
_atom_site_fract_y
_atom_site_fract_z
Mn1 Mn 0.0000 0.0000 1.0000
O1 O 0.07533(6) 0.11044(15) 1.15177(13)
O2 O 0.13607(6) 0.13396(17) 1.04162(15)
O3 O 0.26768(7) 0.54470(19) 1.50891(16)
N1 N -0.03047(8) 0.20773(17) 0.90379(16)
N2 N -0.02539(8) 0.42986(17) 0.84906(16)
C1 C 0.12223(8) 0.1595(2) 1.13921(19)
C2 C 0.16163(8) 0.2580(2) 1.23932(19)
C3 C 0.15459(9) 0.2807(2) 1.3585(2)
H1 H 0.1248 0.2297 1.3786
C4 C 0.19030(9) 0.3759(2) 1.4468(2)
H2 H 0.1850 0.3901 1.5272
C5 C 0.23428(9) 0.4517(2) 1.4190(2)
C6 C 0.24159(9) 0.4299(2) 1.3008(2)
H3 H 0.2711 0.4817 1.2803
C7 C 0.20609(9) 0.3333(2) 1.2134(2)
H4 H 0.2121 0.3178 1.1339
C8 C -0.08724(10) 0.2633(2) 0.8549(2)
H5 H -0.1229 0.2137 0.8471
C9 C -0.08480(10) 0.3993(2) 0.8193(2)
H6 H -0.1178 0.4612 0.7813
C10 C 0.00531(9) 0.3109(2) 0.89792(19)
H7 H 0.0477 0.3026 0.9249
C11 C 0.00081(11) 0.5584(2) 0.8196(2)
H8 H 0.0429 0.5668 0.8800
H9 H -0.0216 0.6412 0.8330
O4 O -0.05592(7) 0.03290(18) 1.11694(16)
H10 H -0.0853(11) -0.022(3) 1.079(3)
H11 H 0.2941(14) 0.580(3) 1.482(3)
H12 H -0.0563(12) 0.048(3) 1.1912(19)
Mn1A Mn 0.0000 0.0000 0.5000
O1D O -0.07533(6) -0.11044(15) 0.84823(13)
O2D O -0.13607(6) -0.13396(17) 0.95838(15)
O3D O -0.26768(7) -0.54470(19) 0.49109(16)
N1A N 0.03047(8) 0.20773(17) 0.59621(16)
N1D N 0.03047(8) -0.20773(17) 1.09621(16)
N2A N 0.02539(8) 0.42986(17) 0.65094(16)
C1D C -0.12223(8) -0.1595(2) 0.86079(19)
C2D C -0.16163(8) -0.2580(2) 0.76068(19)
C3D C -0.15459(9) -0.2807(2) 0.6415(2)
H1D H -0.1248 -0.2297 0.6214
C4D C -0.19030(9) -0.3759(2) 0.5532(2)
H2D H -0.1850 -0.3901 0.4728
C5D C -0.23428(9) -0.4517(2) 0.5810(2)
C6D C -0.24159(9) -0.4299(2) 0.6992(2)
H3D H -0.2711 -0.4817 0.7197
C7D C -0.20609(9) -0.3333(2) 0.7866(2)
H4D H -0.2121 -0.3178 0.8661
C8A C 0.08724(10) 0.2633(2) 0.6451(2)
H5A H 0.1229 0.2137 0.6529
C9A C 0.08480(10) 0.3993(2) 0.6807(2)
H6A H 0.1178 0.4612 0.7187
C10A C -0.00531(9) 0.3109(2) 0.60208(19)
H7A H -0.0477 0.3026 0.5751
C11A C -0.00081(11) 0.5584(2) 0.6804(2)
H8A H -0.0429 0.5668 0.6200
H9A H 0.0216 0.6412 0.6670
O4D O 0.05592(7) -0.03290(18) 0.88306(16)
H10D H 0.0853(11) 0.022(3) 0.921(3)
H11D H -0.2941(14) -0.580(3) 0.518(3)
H12D H 0.0563(12) -0.048(3) 0.8088(19)
loop_
_geom_bond_atom_site_label_1
_geom_bond_atom_site_label_2
_geom_bond_site_symmetry_1
_geom_bond_site_symmetry_2
Mn1 O1 1_555 1_555
O1 C1 1_555 1_555
O2 C1 1_555 1_555
O3 C5 1_555 1_555
N1 Mn1 1_555 1_555
N2 C9 1_555 1_555
C1 C2 1_555 1_555
C2 C3 1_555 1_555
C3 H1 1_555 1_555
C4 C3 1_555 1_555
H2 C4 1_555 1_555
C5 C4 1_555 1_555
C6 C5 1_555 1_555
H3 C6 1_555 1_555
C7 C2 1_555 1_555
H4 C7 1_555 1_555
C8 N1 1_555 1_555
H5 C8 1_555 1_555
C9 C8 1_555 1_555
H6 C9 1_555 1_555
C10 N1 1_555 1_555
H7 C10 1_555 1_555
C11 N2 1_555 1_555
H8 C11 1_555 1_555
H9 C11 1_555 1_555
O4 Mn1 1_555 1_555
H10 O4 1_555 1_555
H11 O3 1_555 1_555
H12 O4 1_555 1_555
Mn1A N1A 1_555 1_555
O1D Mn1 1_555 1_555
O2D C1D 1_555 1_555
O3D C5D 1_555 1_555
N1A C8A 1_555 1_555
N1D Mn1 1_555 1_555
N2A C9A 1_555 1_555
C1D O1D 1_555 1_555
C2D C1D 1_555 1_555
C3D C2D 1_555 1_555
H1D C3D 1_555 1_555
C4D C3D 1_555 1_555
H2D C4D 1_555 1_555
C5D C4D 1_555 1_555
C6D C5D 1_555 1_555
H3D C6D 1_555 1_555
C7D C2D 1_555 1_555
H4D C7D 1_555 1_555
C8A H5A 1_555 1_555
C9A C8A 1_555 1_555
H6A C9A 1_555 1_555
C10A N1A 1_555 1_555
H7A C10A 1_555 1_555
C11A C11 1_555 1_555
H8A C11A 1_555 1_555
H9A C11A 1_555 1_555
O4D Mn1 1_555 1_555
H10D O4D 1_555 1_555
H11D O3D 1_555 1_555
H12D O4D 1_555 1_555
N2 C10 1_555 1_555
C6 C7 1_555 1_555
N2A C10A 1_555 1_555
N2A C11A 1_555 1_555
C6D C7D 1_555 1_555

#END
