
#######################################################################
#
#                 Cambridge Crystallographic Data Centre
#                                CCDC 
#
#######################################################################
#
# If this CIF has been generated from an entry in the Cambridge 
# Structural Database, then it will include bibliographic, chemical, 
# crystal, experimental, refinement or atomic coordinate data resulting 
# from the CCDC's data processing and validation procedures.
#
#######################################################################

data_VATQEN
_symmetry_cell_setting           triclinic
_symmetry_space_group_name_H-M   'P -1'
_symmetry_Int_Tables_number      2
_space_group_name_Hall           '-P 1'
loop_
_symmetry_equiv_pos_site_id
_symmetry_equiv_pos_as_xyz
1 x,y,z
2 -x,-y,-z
_cell_length_a                   8.7234(5)
_cell_length_b                   10.2138(6)
_cell_length_c                   11.0286(7)
_cell_angle_alpha                91.949(1)
_cell_angle_beta                 110.827(1)
_cell_angle_gamma                112.398(1)
_cell_volume                     832.651
loop_
_atom_site_label
_atom_site_type_symbol
_atom_site_fract_x
_atom_site_fract_y
_atom_site_fract_z
Mo1 Mo 0.40853(4) 0.37760(3) 0.36078(3)
Mo2 Mo 0.53378(4) 0.08166(3) 0.38717(3)
Cu1 Cu 0.41570(5) 0.69748(4) 0.29966(4)
O1 O 0.4816(3) 0.5761(2) 0.4190(2)
O2 O 0.5610(3) 0.2830(2) 0.3997(2)
O3 O 0.1969(3) 0.2720(3) 0.3522(2)
O4 O 0.3749(3) 0.3874(3) 0.1977(2)
O5 O 0.3655(3) 0.0214(3) 0.2306(2)
O6 O 0.4842(3) -0.1068(2) 0.4377(2)
O7 O 0.7368(3) 0.1162(3) 0.3784(2)
N1 N 0.6483(4) 0.7880(3) 0.2710(3)
N2 N 0.3224(4) 0.7350(3) 0.1231(3)
N3 N 0.1462(4) 0.6160(3) 0.2607(3)
C1 C 0.8167(5) 0.8226(4) 0.3606(3)
C2 C 0.9676(5) 0.8930(4) 0.3326(4)
C3 C 0.9451(5) 0.9248(4) 0.2084(4)
C4 C 0.7716(5) 0.8887(4) 0.1148(4)
C5 C 0.6258(4) 0.8242(3) 0.1503(3)
C6 C 0.4377(4) 0.7941(3) 0.0647(3)
C7 C 0.3756(5) 0.8227(4) -0.0611(3)
C8 C 0.1924(5) 0.7910(4) -0.1240(3)
C9 C 0.0753(5) 0.7323(3) -0.0620(3)
C10 C 0.1458(4) 0.7030(3) 0.0629(3)
C11 C 0.0428(4) 0.6332(3) 0.1426(3)
C12 C -0.1428(4) 0.5871(3) 0.1012(3)
C13 C -0.2236(5) 0.5205(4) 0.1834(4)
C14 C -0.1190(5) 0.5012(4) 0.3035(3)
C15 C 0.0659(5) 0.5508(4) 0.3388(3)
H1 H 0.823(5) 0.794(4) 0.439(4)
H2 H 1.070(6) 0.912(5) 0.392(4)
H3 H 1.035(6) 0.967(5) 0.189(4)
H4 H 0.757(5) 0.908(4) 0.036(4)
H5 H 0.451(5) 0.862(4) -0.102(4)
H6 H 0.151(6) 0.811(4) -0.200(4)
H7 H -0.040(6) 0.714(4) -0.102(4)
H8 H -0.203(5) 0.595(4) 0.021(4)
H9 H -0.340(6) 0.492(4) 0.158(4)
H10 H -0.172(5) 0.455(4) 0.355(4)
H11 H 0.133(6) 0.531(5) 0.406(5)
Mo1A Mo 0.59147(4) 0.62240(3) 0.63922(3)
Mo2A Mo 0.46622(4) -0.08166(3) 0.61283(3)
Cu1_2 Cu 0.41570(5) -0.30252(4) 0.29966(4)
O1A O 0.5184(3) 0.4239(2) 0.5810(2)
O6A O 0.5158(3) 0.1068(2) 0.5623(2)
O6_2 O 0.4842(3) 0.8932(2) 0.4377(2)
loop_
_geom_bond_atom_site_label_1
_geom_bond_atom_site_label_2
_geom_bond_site_symmetry_1
_geom_bond_site_symmetry_2
Mo1 O1 1_555 1_555
Mo2 O2 1_555 1_555
Cu1 O1 1_555 1_555
O1 Mo1A 1_555 1_555
O2 Mo1 1_555 1_555
O3 Mo1 1_555 1_555
O4 Mo1 1_555 1_555
O5 Mo2 1_555 1_555
O6 Mo2 1_555 1_555
O7 Mo2 1_555 1_555
N1 Cu1 1_555 1_555
N2 Cu1 1_555 1_555
N3 Cu1 1_555 1_555
C1 N1 1_555 1_555
C2 C1 1_555 1_555
C3 C2 1_555 1_555
C4 C3 1_555 1_555
C5 N1 1_555 1_555
C6 N2 1_555 1_555
C7 C6 1_555 1_555
C8 C7 1_555 1_555
C9 C8 1_555 1_555
C10 N2 1_555 1_555
C11 N3 1_555 1_555
C12 C11 1_555 1_555
C13 C12 1_555 1_555
C14 C13 1_555 1_555
C15 N3 1_555 1_555
H1 C1 1_555 1_555
H2 C2 1_555 1_555
H3 C3 1_555 1_555
H4 C4 1_555 1_555
H5 C7 1_555 1_555
H6 C8 1_555 1_555
H7 C9 1_555 1_555
H8 C12 1_555 1_555
H9 C13 1_555 1_555
H10 C14 1_555 1_555
H11 C15 1_555 1_555
Mo1A O1A 1_555 1_555
Mo2A O6 1_555 1_555
Cu1_2 O6 1_555 1_555
O1A Mo1 1_555 1_555
O6A Mo2 1_555 1_555
O6_2 Cu1 1_555 1_555
C4 C5 1_555 1_555
C5 C6 1_555 1_555
C9 C10 1_555 1_555
C10 C11 1_555 1_555
C14 C15 1_555 1_555
Mo2A O6A 1_555 1_555

#END
