
#######################################################################
#
#                 Cambridge Crystallographic Data Centre
#                                CCDC 
#
#######################################################################
#
# If this CIF has been generated from an entry in the Cambridge 
# Structural Database, then it will include bibliographic, chemical, 
# crystal, experimental, refinement or atomic coordinate data resulting 
# from the CCDC's data processing and validation procedures.
#
#######################################################################

data_VATQAJ
_symmetry_cell_setting           monoclinic
_symmetry_space_group_name_H-M   'P 21/c'
_symmetry_Int_Tables_number      14
_space_group_name_Hall           '-P 2ybc'
loop_
_symmetry_equiv_pos_site_id
_symmetry_equiv_pos_as_xyz
1 x,y,z
2 -x,1/2+y,1/2-z
3 -x,-y,-z
4 x,1/2-y,1/2+z
_cell_length_a                   13.927(5)
_cell_length_b                   9.101(4)
_cell_length_c                   13.767(5)
_cell_angle_alpha                90
_cell_angle_beta                 116.777(5)
_cell_angle_gamma                90
_cell_volume                     1557.84
loop_
_atom_site_label
_atom_site_type_symbol
_atom_site_fract_x
_atom_site_fract_y
_atom_site_fract_z
Sn1 Sn 0.321636(15) 0.62825(2) 0.189245(15)
N1 N 0.2609(2) 0.3739(3) 0.1116(2)
N2 N 0.26112(19) 0.8554(3) 0.23679(19)
O1 O 0.16347(19) 0.5777(3) 0.1757(2)
O2 O 0.0168(2) 0.4412(3) 0.1241(3)
O3 O 0.00328(18) 0.1942(3) 0.0332(2)
H1 H -0.0170 0.2647 0.0561
O4 O 0.45118(15) 0.8165(2) 0.23467(17)
O5 O 0.51466(16) 1.0291(2) 0.32186(18)
O6 O 0.38882(19) 1.1991(3) 0.3629(2)
H2 H 0.4454 1.1734 0.3632
C1 C 0.1089(3) 0.4628(4) 0.1341(3)
C2 C 0.1597(2) 0.3476(3) 0.0959(3)
C3 C 0.1039(2) 0.2190(3) 0.0467(3)
C4 C 0.1555(3) 0.1151(4) 0.0135(3)
H3 H 0.1208 0.0285 -0.0198
C5 C 0.2587(3) 0.1422(3) 0.0306(3)
H4 H 0.2952 0.0730 0.0100
C6 C 0.3087(3) 0.2729(3) 0.0787(3)
H5 H 0.3782 0.2905 0.0884
C7 C 0.4418(2) 0.9326(3) 0.2783(2)
C8 C 0.3363(2) 0.9614(3) 0.2795(2)
C9 C 0.3150(3) 1.0927(3) 0.3184(2)
C10 C 0.2128(3) 1.1149(3) 0.3098(3)
H6 H 0.1962 1.2022 0.3339
C11 C 0.1373(3) 1.0075(4) 0.2658(3)
H7 H 0.0686 1.0209 0.2596
C12 C 0.1636(2) 0.8783(3) 0.2304(3)
H8 H 0.1118 0.8051 0.2012
C13 C 0.4001(3) 0.5615(4) 0.3525(3)
H9 H 0.4699 0.5233 0.3683
H10 H 0.3585 0.4866 0.3650
H11 H 0.4079 0.6441 0.3988
C14 C 0.2723(3) 0.6917(4) 0.0272(2)
H12 H 0.2631 0.7964 0.0211
H13 H 0.2053 0.6447 -0.0187
H14 H 0.3258 0.6630 0.0051
Sn1A Sn 0.678364(15) 1.12825(2) 0.310755(15)
O5A O 0.48534(16) 0.5291(2) 0.17814(18)
loop_
_geom_bond_atom_site_label_1
_geom_bond_atom_site_label_2
_geom_bond_site_symmetry_1
_geom_bond_site_symmetry_2
Sn1 N1 1_555 1_555
N1 C2 1_555 1_555
N2 Sn1 1_555 1_555
O1 Sn1 1_555 1_555
O2 C1 1_555 1_555
O3 H1 1_555 1_555
O4 Sn1 1_555 1_555
O5 C7 1_555 1_555
O6 H2 1_555 1_555
C1 O1 1_555 1_555
C2 C1 1_555 1_555
C3 O3 1_555 1_555
C4 C3 1_555 1_555
H3 C4 1_555 1_555
C5 C4 1_555 1_555
H4 C5 1_555 1_555
C6 N1 1_555 1_555
H5 C6 1_555 1_555
C7 O4 1_555 1_555
C8 N2 1_555 1_555
C9 O6 1_555 1_555
C10 C9 1_555 1_555
H6 C10 1_555 1_555
C11 C10 1_555 1_555
H7 C11 1_555 1_555
C12 N2 1_555 1_555
H8 C12 1_555 1_555
C13 Sn1 1_555 1_555
H9 C13 1_555 1_555
H10 C13 1_555 1_555
H11 C13 1_555 1_555
C14 Sn1 1_555 1_555
H12 C14 1_555 1_555
H13 C14 1_555 1_555
H14 C14 1_555 1_555
Sn1A O5 1_555 1_555
O5A Sn1 1_555 1_555
C2 C3 1_555 1_555
C5 C6 1_555 1_555
C7 C8 1_555 1_555
C8 C9 1_555 1_555
C11 C12 1_555 1_555

#END
