
#######################################################################
#
#                 Cambridge Crystallographic Data Centre
#                                CCDC 
#
#######################################################################
#
# If this CIF has been generated from an entry in the Cambridge 
# Structural Database, then it will include bibliographic, chemical, 
# crystal, experimental, refinement or atomic coordinate data resulting 
# from the CCDC's data processing and validation procedures.
#
#######################################################################

data_VATSUF
_symmetry_cell_setting           monoclinic
_symmetry_space_group_name_H-M   'P 21/c'
_symmetry_Int_Tables_number      14
_space_group_name_Hall           '-P 2ybc'
loop_
_symmetry_equiv_pos_site_id
_symmetry_equiv_pos_as_xyz
1 x,y,z
2 -x,1/2+y,1/2-z
3 -x,-y,-z
4 x,1/2-y,1/2+z
_cell_length_a                   6.0835(2)
_cell_length_b                   8.7725(3)
_cell_length_c                   15.81670(10)
_cell_angle_alpha                90
_cell_angle_beta                 99.441(2)
_cell_angle_gamma                90
_cell_volume                     832.665
loop_
_atom_site_label
_atom_site_type_symbol
_atom_site_fract_x
_atom_site_fract_y
_atom_site_fract_z
Mn1 Mn 0.38985(12) 0.37325(8) 0.15115(5)
Na1 Na 0.2132(4) 0.1618(2) 0.29250(15)
O1 O 0.4762(6) 0.1379(4) 0.1988(2)
O2 O 0.6244(6) -0.0931(4) 0.2163(2)
O3 O 0.7493(5) 0.4117(4) 0.1587(2)
O4 O 1.0585(6) 0.2882(4) 0.1382(3)
O5 O 0.6473(6) 0.4189(4) -0.0801(3)
O6 O 0.9284(7) 0.3282(5) -0.1383(3)
O7 O 0.4899(5) 0.2578(4) 0.0351(2)
C1 C 0.5968(7) 0.0337(5) 0.1776(3)
C2 C 0.7134(8) 0.0474(5) 0.1000(3)
H1 H 0.6429 -0.0236 0.0569
H2 H 0.8663 0.0141 0.1170
C3 C 0.7181(7) 0.2047(5) 0.0574(3)
C4 C 0.8230(8) 0.1868(6) -0.0236(3)
H3 H 0.9800 0.1643 -0.0062
H4 H 0.7557 0.0988 -0.0549
C5 C 0.8033(9) 0.3221(6) -0.0854(3)
C6 C 0.8525(8) 0.3142(6) 0.1228(3)
H5 H 0.501(8) 0.322(6) 0.005(3)
Mn1A Mn 0.61015(12) -0.12675(8) 0.34885(5)
Mn1_2 Mn 1.38985(12) 0.37325(8) 0.15115(5)
Mn1B Mn 0.61015(12) 0.62675(8) -0.15115(5)
Na1A Na 0.7868(4) -0.3382(2) 0.20750(15)
Na1A_2 Na 0.7868(4) 0.6618(2) 0.20750(15)
Na1_2 Na 1.2132(4) 0.1618(2) 0.29250(15)
Na1C Na 1.2132(4) 0.3382(2) -0.20750(15)
O2A O 0.3756(6) 0.4069(4) 0.2837(2)
O3A O 0.2507(5) -0.0883(4) 0.3413(2)
O4_2 O 0.0585(6) 0.2882(4) 0.1382(3)
O5B O 0.3527(6) 0.5811(4) 0.0801(3)
O6C O -0.0716(7) 0.1718(5) 0.3617(3)
loop_
_geom_bond_atom_site_label_1
_geom_bond_atom_site_label_2
_geom_bond_site_symmetry_1
_geom_bond_site_symmetry_2
Mn1 O1 1_555 1_555
Na1 O1 1_555 1_555
O1 C1 1_555 1_555
O2 C1 1_555 1_555
O3 Mn1 1_555 1_555
O4 C6 1_555 1_555
O5 C5 1_555 1_555
O6 C5 1_555 1_555
O7 Mn1 1_555 1_555
C1 C2 1_555 1_555
C2 H1 1_555 1_555
H2 C2 1_555 1_555
C3 O7 1_555 1_555
C4 C3 1_555 1_555
H3 C4 1_555 1_555
H4 C4 1_555 1_555
C5 C4 1_555 1_555
C6 O3 1_555 1_555
H5 O7 1_555 1_555
Mn1A O2 1_555 1_555
Mn1_2 O4 1_555 1_555
Mn1B O5 1_555 1_555
Na1A O2 1_555 1_555
Na1A_2 O3 1_555 1_555
Na1_2 O4 1_555 1_555
Na1C O6 1_555 1_555
O2A Mn1 1_555 1_555
O3A Na1 1_555 1_555
O4_2 Mn1 1_555 1_555
O5B Mn1 1_555 1_555
O6C Na1 1_555 1_555
Na1 O2A 1_555 1_555
Na1 O4_2 1_555 1_555
C2 C3 1_555 1_555
C3 C6 1_555 1_555
Mn1A O3A 1_555 1_555

#END
