
#######################################################################
#
#                 Cambridge Crystallographic Data Centre
#                                CCDC 
#
#######################################################################
#
# If this CIF has been generated from an entry in the Cambridge 
# Structural Database, then it will include bibliographic, chemical, 
# crystal, experimental, refinement or atomic coordinate data resulting 
# from the CCDC's data processing and validation procedures.
#
#######################################################################

data_VATTAM
_symmetry_cell_setting           orthorhombic
_symmetry_space_group_name_H-M   'P 21 21 21'
_symmetry_Int_Tables_number      19
_space_group_name_Hall           'P 2ac 2ab'
loop_
_symmetry_equiv_pos_site_id
_symmetry_equiv_pos_as_xyz
1 x,y,z
2 1/2-x,-y,1/2+z
3 -x,1/2+y,1/2-z
4 1/2+x,1/2-y,-z
_cell_length_a                   5.9065(3)
_cell_length_b                   10.7039(6)
_cell_length_c                   29.7562(14)
_cell_angle_alpha                90
_cell_angle_beta                 90
_cell_angle_gamma                90
_cell_volume                     1881.26
loop_
_atom_site_label
_atom_site_type_symbol
_atom_site_fract_x
_atom_site_fract_y
_atom_site_fract_z
Mn1 Mn 0.17303(19) 0.05760(9) 0.01997(3)
Ca1 Ca 0.2458(2) 0.62568(10) -0.19965(4)
Ca2 Ca 0.7450(2) 0.38977(10) -0.19904(4)
O1 O 0.3370(10) 0.1927(4) -0.02132(14)
O2 O 0.6193(8) 0.2177(4) -0.14891(15)
O3 O 0.1108(8) 0.7993(4) -0.14857(15)
O4 O 0.0267(8) 0.7802(4) -0.24042(13)
O5 O -0.1245(8) 0.5896(4) -0.16495(13)
C1 C 0.3131(12) 0.1521(5) -0.10024(19)
H1 H 0.1491 0.1508 -0.0983
H2 H 0.3649 0.0662 -0.0987
C2 C 0.3060(11) 0.1165(5) -0.18395(19)
H3 H 0.3290 0.0314 -0.1737
H4 H 0.1449 0.1274 -0.1889
C3 C -0.1290(11) 0.8108(6) -0.14861(19)
C4 C 0.3791(12) 0.2054(6) -0.14620(19)
C5 C -0.2128(12) 0.8696(6) -0.10433(18)
H5 H -0.1562 0.9545 -0.1025
H6 H -0.3768 0.8738 -0.1051
C6 C 0.4038(13) 0.2207(6) -0.0599(2)
C7 C -0.0710(11) 0.8818(6) -0.2309(2)
O6 O -0.2343(9) 0.8300(5) -0.02619(15)
O7 O 0.0173(10) 0.7219(5) -0.06540(16)
C8 C -0.1416(15) 0.7999(7) -0.0624(2)
C9 C -0.1994(12) 0.8969(6) -0.18716(19)
H7 H -0.3590 0.8833 -0.1932
H8 H -0.1825 0.9826 -0.1772
O8 O -0.4553(8) 0.6784(4) -0.14925(15)
C10 C -0.2441(12) 0.6806(5) -0.15516(18)
O9 O 0.3783(7) 0.4256(4) -0.16434(13)
O10 O 0.0483(8) 0.3351(4) -0.14738(14)
O11 O 0.5199(9) 0.2340(4) -0.23918(14)
C11 C 0.2602(12) 0.3327(5) -0.1527(2)
C12 C 0.4262(11) 0.1320(6) -0.22870(19)
O12 O 0.4325(8) 0.0378(4) -0.25448(14)
O13 O -0.0638(8) 0.9738(4) -0.25703(14)
O14 O 0.3133(11) -0.0951(5) -0.02055(17)
O15 O -0.1290(11) 0.0784(6) -0.0223(2)
O16 O 0.5522(9) 0.3020(5) -0.06670(15)
O17 O -0.0195(11) -0.0828(5) 0.0589(2)
O18 O 0.4590(10) 0.0343(6) 0.06471(19)
H9 H -0.034(12) -0.105(6) 0.086(2)
H10 H 0.146(16) 0.766(8) -0.119(3)
H11 H 0.666(18) 0.246(8) -0.125(3)
H12 H 0.475(17) 0.068(10) 0.089(3)
H13 H 0.46(2) -0.110(9) -0.015(4)
H14 H -0.183(18) 0.134(9) -0.016(3)
H15 H 0.526(14) -0.031(8) 0.073(3)
H16 H -0.202(15) 0.010(8) -0.028(3)
H17 H -0.123(16) -0.126(8) 0.043(3)
H18 H 0.26(3) -0.172(15) -0.021(5)
Mn1C Mn 0.67303(19) 0.44240(9) -0.01997(3)
Ca1_2 Ca -0.7542(2) 0.62568(10) -0.19965(4)
Ca1B Ca 0.7542(2) 0.12568(10) -0.30035(4)
Ca1B_2 Ca -0.2458(2) 1.12568(10) -0.30035(4)
Ca2B Ca 0.2550(2) 0.88977(10) -0.30096(4)
Ca2_2 Ca -0.2550(2) 0.38977(10) -0.19904(4)
Ca2B_2 Ca 0.2550(2) -0.11023(10) -0.30096(4)
O4B O 0.9733(8) 0.2802(4) -0.25958(13)
O5_2 O 0.8755(8) 0.5896(4) -0.16495(13)
O8_2 O 0.5447(8) 0.6784(4) -0.14925(15)
O10_2 O 1.0483(8) 0.3351(4) -0.14738(14)
O11B O 0.4801(9) 0.7340(4) -0.26082(14)
O12B O 0.5675(8) 0.5378(4) -0.24552(14)
O13B O 0.0638(8) 0.4738(4) -0.24297(14)
O13B_2 O 1.0638(8) 0.4738(4) -0.24297(14)
O16C O 0.0522(9) 0.1980(5) 0.06670(15)
loop_
_geom_bond_atom_site_label_1
_geom_bond_atom_site_label_2
_geom_bond_site_symmetry_1
_geom_bond_site_symmetry_2
Mn1 O1 1_555 1_555
Ca1 O3 1_555 1_555
Ca2 O2 1_555 1_555
O1 C6 1_555 1_555
O2 C4 1_555 1_555
O3 C3 1_555 1_555
O4 Ca1 1_555 1_555
O5 Ca1 1_555 1_555
C1 H1 1_555 1_555
H2 C1 1_555 1_555
C2 H3 1_555 1_555
H4 C2 1_555 1_555
C3 C5 1_555 1_555
C4 C1 1_555 1_555
C5 H5 1_555 1_555
H6 C5 1_555 1_555
C6 C1 1_555 1_555
C7 O4 1_555 1_555
O6 C8 1_555 1_555
O7 C8 1_555 1_555
C8 C5 1_555 1_555
C9 C3 1_555 1_555
H7 C9 1_555 1_555
H8 C9 1_555 1_555
O8 C10 1_555 1_555
C10 O5 1_555 1_555
O9 Ca1 1_555 1_555
O10 C11 1_555 1_555
O11 Ca2 1_555 1_555
C11 C4 1_555 1_555
C12 C2 1_555 1_555
O12 C12 1_555 1_555
O13 C7 1_555 1_555
O14 Mn1 1_555 1_555
O15 Mn1 1_555 1_555
O16 C6 1_555 1_555
O17 Mn1 1_555 1_555
O18 Mn1 1_555 1_555
H9 O17 1_555 1_555
H10 O3 1_555 1_555
H11 O2 1_555 1_555
H12 O18 1_555 1_555
H13 O14 1_555 1_555
H14 O15 1_555 1_555
H15 O18 1_555 1_555
H16 O15 1_555 1_555
H17 O17 1_555 1_555
H18 O14 1_555 1_555
Mn1C O16 1_555 1_555
Ca1_2 O8 1_555 1_555
Ca1B O11 1_555 1_555
Ca1B_2 O13 1_555 1_555
Ca2B O4 1_555 1_555
Ca2_2 O5 1_555 1_555
Ca2B_2 O12 1_555 1_555
O4B Ca2 1_555 1_555
O5_2 Ca2 1_555 1_555
O8_2 Ca1 1_555 1_555
O10_2 Ca2 1_555 1_555
O11B Ca1 1_555 1_555
O12B Ca1 1_555 1_555
O13B Ca1 1_555 1_555
O13B_2 Ca2 1_555 1_555
O16C Mn1 1_555 1_555
Ca2 O9 1_555 1_555
Ca2 O12B 1_555 1_555
C2 C4 1_555 1_555
C3 C10 1_555 1_555
C7 C9 1_555 1_555
O9 C11 1_555 1_555
O10 Ca2_2 1_555 1_555
O11 C12 1_555 1_555
O12 Ca1B 1_555 1_555
O13 Ca2B 1_555 1_555
Ca1B O4B 1_555 1_555
Ca2B O11B 1_555 1_555
Ca2_2 O13B 1_555 1_555

#END
