
#######################################################################
#
#                 Cambridge Crystallographic Data Centre
#                                CCDC 
#
#######################################################################
#
# If this CIF has been generated from an entry in the Cambridge 
# Structural Database, then it will include bibliographic, chemical, 
# crystal, experimental, refinement or atomic coordinate data resulting 
# from the CCDC's data processing and validation procedures.
#
#######################################################################

data_VATTEQ
_symmetry_cell_setting           monoclinic
_symmetry_space_group_name_H-M   'P 21/n'
_symmetry_Int_Tables_number      14
_space_group_name_Hall           '-P 2yn'
loop_
_symmetry_equiv_pos_site_id
_symmetry_equiv_pos_as_xyz
1 x,y,z
2 1/2-x,1/2+y,1/2-z
3 -x,-y,-z
4 1/2+x,1/2-y,1/2+z
_cell_length_a                   11.301(2)
_cell_length_b                   12.041(2)
_cell_length_c                   12.138(2)
_cell_angle_alpha                90
_cell_angle_beta                 115.71(3)
_cell_angle_gamma                90
_cell_volume                     1488.17
loop_
_atom_site_label
_atom_site_type_symbol
_atom_site_fract_x
_atom_site_fract_y
_atom_site_fract_z
Mn1 Mn 1.07746(8) 0.32273(7) 0.66131(8)
Mn2 Mn 1.0000 0.5000 0.0000
O1 O 1.1159(4) 0.1541(3) 0.6266(3)
O2 O 1.1617(4) 0.0075(3) 0.5422(4)
O3 O 0.9833(5) 0.4978(3) 0.1686(4)
O4 O 0.9634(5) 0.5019(3) 0.3412(4)
O5 O 1.2146(4) 0.3722(4) 0.5863(4)
O6 O 1.2728(4) 0.3274(4) 0.4398(4)
O7 O 0.9618(3) 0.3198(3) 0.4538(3)
H1 H 0.948(4) 0.390(2) 0.429(4)
O8 O 0.9224(5) 0.2711(4) 0.7089(4)
H2 H 0.845(3) 0.294(6) 0.667(6)
H3 H 0.945(9) 0.241(8) 0.778(4)
O9 O 1.2273(5) 0.3154(4) 0.8468(4)
H4 H 1.246(6) 0.389(5) 0.870(5)
H5 H 1.300(7) 0.279(6) 0.876(6)
O10 O 1.2060(5) 0.4646(4) 0.0921(4)
H6 H 1.2325 0.4768 0.1654
H7 H 1.257(7) 0.458(6) 0.071(7)
O11 O 1.0334(4) 0.6817(4) 0.0372(4)
H8 H 1.1042 0.6992 0.0386
H9 H 0.969(4) 0.724(4) -0.001(5)
C1 C 1.1180(5) 0.1026(4) 0.5367(5)
C2 C 1.0628(5) 0.1570(4) 0.4108(5)
H16 H 0.9755 0.1272 0.3632
H17 H 1.1169 0.1342 0.3709
C3 C 1.0530(5) 0.2848(4) 0.4051(5)
C4 C 1.1909(5) 0.3335(4) 0.4832(5)
C5 C 1.0009(6) 0.3250(5) 0.2729(5)
H18 H 1.0616 0.3020 0.2401
H19 H 0.9173 0.2891 0.2248
C6 C 0.9825(5) 0.4490(5) 0.2587(5)
Mn1B Mn 0.92254(8) 0.67727(7) -0.66131(8)
Mn1B_2 Mn 0.92254(8) 0.67727(7) 0.33869(8)
Mn1_2 Mn 1.07746(8) 0.32273(7) -0.33869(8)
O1B O 0.8841(4) 0.8459(3) -0.6266(3)
O2B O 0.8383(4) 0.9925(3) -0.5422(4)
O3B O 1.0167(5) 0.5022(3) -0.1686(4)
O4B O 1.0366(5) 0.4981(3) -0.3412(4)
O4B_2 O 1.0366(5) 0.4981(3) 0.6588(4)
O4_2 O 0.9634(5) 0.5019(3) -0.6588(4)
O5B O 0.7854(4) 0.6278(4) -0.5863(4)
O6B O 0.7272(4) 0.6726(4) -0.4398(4)
O7B O 1.0382(3) 0.6802(3) -0.4538(3)
H1B H 1.052(4) 0.610(2) -0.429(4)
O8B O 1.0776(5) 0.7289(4) -0.7089(4)
H2B H 1.155(3) 0.706(6) -0.667(6)
H3B H 1.055(9) 0.759(8) -0.778(4)
O9B O 0.7727(5) 0.6846(4) -0.8468(4)
H4B H 0.754(6) 0.611(5) -0.870(5)
H5B H 0.700(7) 0.721(6) -0.876(6)
O10B O 0.7940(5) 0.5354(4) -0.0921(4)
H6B H 0.7675 0.5232 -0.1654
H7B H 0.743(7) 0.542(6) -0.071(7)
O11B O 0.9666(4) 0.3183(4) -0.0372(4)
H8B H 0.8958 0.3008 -0.0386
H9B H 1.031(4) 0.276(4) 0.001(5)
C1B C 0.8820(5) 0.8974(4) -0.5367(5)
C2B C 0.9372(5) 0.8430(4) -0.4108(5)
H16B H 1.0245 0.8728 -0.3632
H17B H 0.8831 0.8658 -0.3709
C3B C 0.9470(5) 0.7152(4) -0.4051(5)
C4B C 0.8091(5) 0.6665(4) -0.4832(5)
C5B C 0.9991(6) 0.6750(5) -0.2729(5)
H18B H 0.9384 0.6980 -0.2401
H19B H 1.0827 0.7109 -0.2248
C6B C 1.0175(5) 0.5510(5) -0.2587(5)
O12 O 1.3807(5) 0.5507(4) 0.6644(4)
H10 H 1.326(6) 0.491(5) 0.646(5)
H11 H 1.344(7) 0.582(6) 0.704(6)
O13 O 1.1693(5) 0.1684(4) 1.0520(4)
H12 H 1.158(8) 0.115(4) 1.091(6)
H13 H 1.172(6) 0.137(5) 0.992(4)
O14 O 1.3749(5) 0.4839(4) 1.3352(4)
H14 H 1.473(8) 0.475(6) 1.348(7)
H15 H 1.370(7) 0.424(3) 1.368(6)
loop_
_geom_bond_atom_site_label_1
_geom_bond_atom_site_label_2
_geom_bond_site_symmetry_1
_geom_bond_site_symmetry_2
Mn1 O1 1_555 1_555
Mn2 O3 1_555 1_555
O1 C1 1_555 1_555
O2 C1 1_555 1_555
O3 C6 1_555 1_555
O4 C6 1_555 1_555
O5 Mn1 1_555 1_555
O6 C4 1_555 1_555
O7 Mn1 1_555 1_555
H1 O7 1_555 1_555
O8 Mn1 1_555 1_555
H2 O8 1_555 1_555
H3 O8 1_555 1_555
O9 Mn1 1_555 1_555
H4 O9 1_555 1_555
H5 O9 1_555 1_555
O10 Mn2 1_555 1_555
H6 O10 1_555 1_555
H7 O10 1_555 1_555
O11 Mn2 1_555 1_555
H8 O11 1_555 1_555
H9 O11 1_555 1_555
O12 H10 1_555 1_555
H11 O12 1_555 1_555
O13 H12 1_555 1_555
H13 O13 1_555 1_555
O14 H14 1_555 1_555
H15 O14 1_555 1_555
C1 C2 1_555 1_555
C2 H16 1_555 1_555
H17 C2 1_555 1_555
C3 O7 1_555 1_555
C4 O5 1_555 1_555
C5 C3 1_555 1_555
H18 C5 1_555 1_555
H19 C5 1_555 1_555
C6 C5 1_555 1_555
Mn1B O1B 1_555 1_555
Mn1B_2 O4 1_555 1_555
Mn1_2 O4B 1_555 1_555
O1B C1B 1_555 1_555
O2B C1B 1_555 1_555
O3B Mn2 1_555 1_555
O4B C6B 1_555 1_555
O4B_2 Mn1 1_555 1_555
O4_2 Mn1B 1_555 1_555
O5B Mn1B 1_555 1_555
O6B C4B 1_555 1_555
O7B Mn1B 1_555 1_555
H1B O7B 1_555 1_555
O8B Mn1B 1_555 1_555
H2B O8B 1_555 1_555
H3B O8B 1_555 1_555
O9B Mn1B 1_555 1_555
H4B O9B 1_555 1_555
H5B O9B 1_555 1_555
O10B Mn2 1_555 1_555
H6B O10B 1_555 1_555
H7B O10B 1_555 1_555
O11B Mn2 1_555 1_555
H8B O11B 1_555 1_555
H9B O11B 1_555 1_555
C1B C2B 1_555 1_555
C2B H16B 1_555 1_555
H17B C2B 1_555 1_555
C3B O7B 1_555 1_555
C4B O5B 1_555 1_555
C5B C3B 1_555 1_555
H18B C5B 1_555 1_555
H19B C5B 1_555 1_555
C6B O3B 1_555 1_555
C2 C3 1_555 1_555
C3 C4 1_555 1_555
C2B C3B 1_555 1_555
C3B C4B 1_555 1_555
C5B C6B 1_555 1_555

#END
