
#######################################################################
#
#                 Cambridge Crystallographic Data Centre
#                                CCDC 
#
#######################################################################
#
# If this CIF has been generated from an entry in the Cambridge 
# Structural Database, then it will include bibliographic, chemical, 
# crystal, experimental, refinement or atomic coordinate data resulting 
# from the CCDC's data processing and validation procedures.
#
#######################################################################

data_VATXIY
_symmetry_cell_setting           orthorhombic
_symmetry_space_group_name_H-M   'P b c n'
_symmetry_Int_Tables_number      60
_space_group_name_Hall           '-P 2n 2ab'
loop_
_symmetry_equiv_pos_site_id
_symmetry_equiv_pos_as_xyz
1 x,y,z
2 1/2-x,1/2-y,1/2+z
3 -x,y,1/2-z
4 1/2+x,1/2-y,-z
5 -x,-y,-z
6 1/2+x,1/2+y,1/2-z
7 x,-y,1/2+z
8 1/2-x,1/2+y,z
_cell_length_a                   18.79(3)
_cell_length_b                   11.465(15)
_cell_length_c                   12.772(17)
_cell_angle_alpha                90
_cell_angle_beta                 90
_cell_angle_gamma                90
_cell_volume                     2751.44
loop_
_atom_site_label
_atom_site_type_symbol
_atom_site_fract_x
_atom_site_fract_y
_atom_site_fract_z
Na1 Na 0.5519(4) 0.2834(6) 0.1302(6)
Na2 Na 0.5000 0.5000 0.0000
O11 O 0.5890(7) 0.4849(10) 0.1284(11)
O12 O 0.5731(6) 0.2924(11) 0.3141(11)
O13 O 0.3907(9) 0.5145(13) 0.1298(14)
O14 O 0.4940(7) 0.3001(16) -0.0503(15)
O15 O 0.5000 0.218(3) -0.2500
O16 O 0.3756(16) 0.651(3) 0.258(2)
U1 U 0.671144(19) 0.00223(4) 0.02364(3)
O1 O 0.6616(4) 0.2221(7) 0.0527(7)
O2 O 0.8399(4) 0.2806(7) 0.0037(7)
O3 O 0.7783(4) 0.1144(7) -0.0152(6)
O4 O 0.7218(3) 0.3893(6) 0.0662(6)
C1 C 0.7849(6) 0.2198(10) 0.0073(8)
C2 C 0.7162(7) 0.2802(11) 0.0439(9)
O5 O 0.7244(4) 0.0740(7) 0.1888(6)
O6 O 0.6381(4) -0.1114(7) 0.3594(6)
O7 O 0.6318(4) -0.1004(7) 0.1856(6)
O8 O 0.7241(4) 0.0707(6) 0.3627(6)
O9 O 0.5540(4) 0.0767(6) 0.0846(6)
O10 O 0.4357(4) 0.0767(7) 0.0678(7)
C3 C 0.7045(7) 0.0354(10) 0.2758(9)
C4 C 0.6523(6) -0.0704(11) 0.2745(10)
C5 C 0.4977(6) 0.0421(12) 0.0453(10)
U1G U 0.828856(19) -0.49777(4) 0.02364(3)
U1G_2 U 0.828856(19) 0.50223(4) 0.02364(3)
U1F U 0.671144(19) -0.00223(4) 0.52364(3)
U1D U 0.328856(19) -0.00223(4) -0.02364(3)
U1F_2 U 0.671144(19) -0.00223(4) -0.47636(3)
O1G O 0.8384(4) -0.2779(7) 0.0527(7)
O2G O 0.6601(4) -0.2194(7) 0.0037(7)
O2_2 O 0.8399(4) -0.7194(7) 0.0037(7)
O3G O 0.7217(4) -0.3856(7) -0.0152(6)
O4G O 0.7782(3) -0.1107(6) 0.0662(6)
O4_2 O 0.7218(3) -0.6107(6) 0.0662(6)
C1G C 0.7151(6) -0.2802(10) 0.0073(8)
C2G C 0.7838(7) -0.2198(11) 0.0439(9)
O5F O 0.7244(4) -0.0740(7) -0.3112(6)
O5G O 0.7756(4) -0.4260(7) 0.1888(6)
O6F O 0.6381(4) 0.1114(7) -0.1406(6)
O6A O 0.8619(4) -0.3886(7) -0.1406(6)
O7F O 0.6318(4) 0.1004(7) -0.3144(6)
O7G O 0.8682(4) -0.6004(7) 0.1856(6)
O8F O 0.7241(4) -0.0707(6) -0.1373(6)
O8A O 0.7759(4) -0.5707(6) -0.1373(6)
O9D O 0.4460(4) -0.0767(6) -0.0846(6)
O9G O 0.9460(4) -0.4233(6) 0.0846(6)
O10D O 0.5643(4) -0.0767(7) -0.0678(7)
O10C O 0.9357(4) -0.5767(7) -0.0678(7)
C3F C 0.7045(7) -0.0354(10) -0.2242(9)
C4F C 0.6523(6) 0.0704(11) -0.2255(10)
C5D C 0.5023(6) -0.0421(12) -0.0453(10)
Nd1? Nd 0.671144(19) 0.00223(4) 0.02364(3)
loop_
_geom_bond_atom_site_label_1
_geom_bond_atom_site_label_2
_geom_bond_site_symmetry_1
_geom_bond_site_symmetry_2
U1 O1 1_555 1_555
O1 C2 1_555 1_555
O2 C1 1_555 1_555
O3 U1 1_555 1_555
O4 C2 1_555 1_555
C1 O3 1_555 1_555
C2 C1 1_555 1_555
O5 U1 1_555 1_555
O6 C4 1_555 1_555
O7 U1 1_555 1_555
O8 C3 1_555 1_555
O9 U1 1_555 1_555
O10 C5 1_555 1_555
C3 O5 1_555 1_555
C4 O7 1_555 1_555
C5 O9 1_555 1_555
U1G O1G 1_555 1_555
U1G_2 O2 1_555 1_555
U1F O6 1_555 1_555
U1D O10 1_555 1_555
U1F_2 O5F 1_555 1_555
O1G C2G 1_555 1_555
O2G U1 1_555 1_555
O2_2 U1G 1_555 1_555
O3G U1G 1_555 1_555
O4G U1 1_555 1_555
O4_2 U1G 1_555 1_555
C1G O2G 1_555 1_555
C2G O4G 1_555 1_555
O5F C3F 1_555 1_555
O5G U1G 1_555 1_555
O6F U1 1_555 1_555
O6A U1G 1_555 1_555
O7F U1F_2 1_555 1_555
O7G U1G 1_555 1_555
O8F U1 1_555 1_555
O8A U1G 1_555 1_555
O9D U1D 1_555 1_555
O9G U1G 1_555 1_555
O10D U1 1_555 1_555
O10C U1G 1_555 1_555
C3F O8F 1_555 1_555
C4F O6F 1_555 1_555
C5D C5 1_555 1_555
O4 U1G_2 1_555 1_555
O8 U1F 1_555 1_555
C3 C4 1_555 1_555
O3G C1G 1_555 1_555
C1G C2G 1_555 1_555
O7F C4F 1_555 1_555
O9D C5D 1_555 1_555
O10D C5D 1_555 1_555
C3F C4F 1_555 1_555

#END
