
#######################################################################
#
#                 Cambridge Crystallographic Data Centre
#                                CCDC 
#
#######################################################################
#
# If this CIF has been generated from an entry in the Cambridge 
# Structural Database, then it will include bibliographic, chemical, 
# crystal, experimental, refinement or atomic coordinate data resulting 
# from the CCDC's data processing and validation procedures.
#
#######################################################################

data_VATXIZ
_symmetry_cell_setting           monoclinic
_symmetry_space_group_name_H-M   'P 21/c'
_symmetry_Int_Tables_number      14
_space_group_name_Hall           '-P 2ybc'
loop_
_symmetry_equiv_pos_site_id
_symmetry_equiv_pos_as_xyz
1 x,y,z
2 -x,1/2+y,1/2-z
3 -x,-y,-z
4 x,1/2-y,1/2+z
_cell_length_a                   13.7254(3)
_cell_length_b                   7.6852(2)
_cell_length_c                   14.8829(4)
_cell_angle_alpha                90
_cell_angle_beta                 95.957(2)
_cell_angle_gamma                90
_cell_volume                     1561.41
loop_
_atom_site_label
_atom_site_type_symbol
_atom_site_fract_x
_atom_site_fract_y
_atom_site_fract_z
O1 O 0.52494(10) 0.4881(2) 0.14293(9)
O2 O 0.48521(9) 0.76611(18) 0.00933(10)
C1 C 0.96566(11) 0.5551(3) -0.03175(12)
H1 H 0.9852 0.6760 -0.0243
H2 H 0.9740 0.5220 -0.0934
H9 H 0.433(2) 0.817(4) 0.0047(19)
H10 H 0.5296(15) 0.825(3) 0.0458(15)
H11 H 0.4946(17) 0.552(3) 0.1786(17)
H12 H 0.5312(18) 0.405(4) 0.1696(17)
Co1 Co 0.5000 0.5000 0.0000
C3 C 0.85869(11) 0.5410(2) -0.01861(12)
N1 N 0.65606(9) 0.52774(18) -0.00335(10)
C7 C 0.82122(11) 0.4477(2) 0.04887(12)
H15 H 0.8631 0.3868 0.0908
C11 C 0.72101(11) 0.4444(2) 0.05439(12)
H18 H 0.6978 0.3807 0.1008
C12 C 0.69308(12) 0.6200(2) -0.06807(13)
H19 H 0.6498 0.6811 -0.1088
C13 C 0.79085(11) 0.6296(2) -0.07782(12)
H20 H 0.8122 0.6958 -0.1243
O1B O 0.47506(10) 0.5119(2) -0.14293(9)
O2B O 0.51479(9) 0.23389(18) -0.00933(10)
C1B C 1.03434(11) 0.4449(3) 0.03175(12)
H1B H 1.0148 0.3240 0.0243
H2B H 1.0260 0.4780 0.0934
H9B H 0.567(2) 0.183(4) -0.0047(19)
H10B H 0.4704(15) 0.175(3) -0.0458(15)
H11B H 0.5054(17) 0.448(3) -0.1786(17)
H12B H 0.4688(18) 0.595(4) -0.1696(17)
Co1_2 Co 1.5000 0.5000 0.0000
C3B C 1.14131(11) 0.4590(2) 0.01861(12)
N1B N 1.34394(9) 0.47226(18) 0.00335(10)
N1B_2 N 0.34394(9) 0.47226(18) 0.00335(10)
C7B C 1.17878(11) 0.5523(2) -0.04887(12)
H15B H 1.1369 0.6132 -0.0908
C11B C 1.27899(11) 0.5556(2) -0.05439(12)
H18B H 1.3022 0.6193 -0.1008
C12B C 1.30692(12) 0.3800(2) 0.06807(13)
H19B H 1.3502 0.3189 0.1088
C13B C 1.20915(11) 0.3704(2) 0.07782(12)
H20B H 1.1878 0.3042 0.1243
O3 O 0.57983(12) 0.1893(2) 0.24258(11)
H5 H 0.6294(16) 0.226(4) 0.2683(17)
H6 H 0.5974(18) 0.117(4) 0.207(2)
O4 O 0.73201(11) 1.1060(2) -0.16533(13)
H7 H 0.732(2) 0.997(4) -0.183(2)
H8 H 0.727(2) 1.077(4) -0.112(2)
H3 H 1.1310(17) 0.777(4) 0.1900(17)
H4 H 1.0868(14) 0.656(3) 0.2558(16)
O5 O 0.73590(8) 0.70898(18) 0.22322(8)
H13 H 0.6845 0.7503 0.1993
C2 C 0.79895(11) 0.9078(2) 0.11852(11)
O6 O 0.62786(8) 0.91609(18) 0.12545(9)
O7 O 0.68766(9) 1.05603(19) 0.01236(9)
C4 C 0.90589(11) 0.7283(2) 0.22006(11)
H14 H 0.9135 0.6441 0.2651
C5 C 0.98858(11) 0.7982(2) 0.18568(11)
C6 C 0.81275(11) 0.7837(2) 0.18735(11)
C8 C 0.97517(12) 0.9227(3) 0.11726(12)
H16 H 1.0292 0.9710 0.0937
C9 C 0.69941(12) 0.9646(2) 0.08159(12)
N2 N 1.08002(11) 0.7454(3) 0.21982(13)
C10 C 0.88203(12) 0.9743(2) 0.08442(12)
H17 H 0.8745 1.0559 0.0381
loop_
_geom_bond_atom_site_label_1
_geom_bond_atom_site_label_2
_geom_bond_site_symmetry_1
_geom_bond_site_symmetry_2
O1 H11 1_555 1_555
O2 H9 1_555 1_555
C1 H1 1_555 1_555
H2 C1 1_555 1_555
O3 H5 1_555 1_555
O4 H7 1_555 1_555
H3 N2 1_555 1_555
H4 N2 1_555 1_555
H6 O3 1_555 1_555
H8 O4 1_555 1_555
H10 O2 1_555 1_555
H12 O1 1_555 1_555
Co1 O1 1_555 1_555
O5 H13 1_555 1_555
C2 C6 1_555 1_555
O6 C9 1_555 1_555
C3 C1 1_555 1_555
O7 C9 1_555 1_555
C4 H14 1_555 1_555
N1 Co1 1_555 1_555
C5 C4 1_555 1_555
C6 O5 1_555 1_555
C7 C3 1_555 1_555
H15 C7 1_555 1_555
C8 C5 1_555 1_555
H16 C8 1_555 1_555
C9 C2 1_555 1_555
N2 C5 1_555 1_555
C10 C2 1_555 1_555
H17 C10 1_555 1_555
C11 N1 1_555 1_555
H18 C11 1_555 1_555
C12 N1 1_555 1_555
H19 C12 1_555 1_555
C13 C3 1_555 1_555
H20 C13 1_555 1_555
O1B Co1 1_555 1_555
O2B Co1 1_555 1_555
C1B C1 1_555 1_555
H1B C1B 1_555 1_555
H2B C1B 1_555 1_555
H9B O2B 1_555 1_555
H10B O2B 1_555 1_555
H11B O1B 1_555 1_555
H12B O1B 1_555 1_555
Co1_2 N1B 1_555 1_555
C3B C1B 1_555 1_555
N1B C11B 1_555 1_555
N1B_2 Co1 1_555 1_555
C7B C3B 1_555 1_555
H15B C7B 1_555 1_555
C11B C7B 1_555 1_555
H18B C11B 1_555 1_555
C12B N1B 1_555 1_555
H19B C12B 1_555 1_555
C13B C3B 1_555 1_555
H20B C13B 1_555 1_555
O2 Co1 1_555 1_555
C4 C6 1_555 1_555
C7 C11 1_555 1_555
C8 C10 1_555 1_555
C12 C13 1_555 1_555
C12B C13B 1_555 1_555

#END
