
#######################################################################
#
#                 Cambridge Crystallographic Data Centre
#                                CCDC 
#
#######################################################################
#
# If this CIF has been generated from an entry in the Cambridge 
# Structural Database, then it will include bibliographic, chemical, 
# crystal, experimental, refinement or atomic coordinate data resulting 
# from the CCDC's data processing and validation procedures.
#
#######################################################################

data_VATYUM
_symmetry_cell_setting           orthorhombic
_symmetry_space_group_name_H-M   'F d d d'
_symmetry_Int_Tables_number      70
_space_group_name_Hall           '-F 2uv 2vw'
loop_
_symmetry_equiv_pos_site_id
_symmetry_equiv_pos_as_xyz
1 x,y,z
2 3/4-x,3/4-y,z
3 3/4-x,y,3/4-z
4 x,3/4-y,3/4-z
5 x,1/2+y,1/2+z
6 3/4-x,1/4-y,1/2+z
7 3/4-x,1/2+y,1/4-z
8 x,1/4-y,1/4-z
9 1/2+x,y,1/2+z
10 1/4-x,3/4-y,1/2+z
11 1/4-x,y,1/4-z
12 1/2+x,3/4-y,1/4-z
13 1/2+x,1/2+y,z
14 1/4-x,1/4-y,z
15 1/4-x,1/2+y,3/4-z
16 1/2+x,1/4-y,3/4-z
17 -x,-y,-z
18 1/4+x,1/4+y,-z
19 1/4+x,-y,1/4+z
20 -x,1/4+y,1/4+z
21 -x,1/2-y,1/2-z
22 1/4+x,3/4+y,1/2-z
23 1/4+x,1/2-y,3/4+z
24 -x,3/4+y,3/4+z
25 1/2-x,-y,1/2-z
26 3/4+x,1/4+y,1/2-z
27 3/4+x,-y,3/4+z
28 1/2-x,1/4+y,3/4+z
29 1/2-x,1/2-y,-z
30 3/4+x,3/4+y,-z
31 3/4+x,1/2-y,1/4+z
32 1/2-x,3/4+y,1/4+z
_cell_length_a                   10.623(2)
_cell_length_b                   21.104(4)
_cell_length_c                   42.829(9)
_cell_angle_alpha                90
_cell_angle_beta                 90
_cell_angle_gamma                90
_cell_volume                     9601.74
loop_
_atom_site_label
_atom_site_type_symbol
_atom_site_fract_x
_atom_site_fract_y
_atom_site_fract_z
Ni1 Ni 0.21631(6) 0.19507(3) 0.055179(16)
O1 O 0.1250 0.1250 0.08026(11)
H1 H 0.1820 0.1136 0.0919
O2 O 0.3047(4) 0.13181(17) 0.02596(9)
O3 O 0.1878(4) 0.04288(18) 0.02712(9)
O4 O -0.0329(4) 0.20738(17) 0.10086(10)
O5 O 0.1324(4) 0.26408(16) 0.08404(9)
N1 N 0.3752(5) 0.1901(2) 0.08357(11)
H2 H 0.3559 0.2027 0.1031
H3 H 0.4035 0.1499 0.0844
N2 N 0.3126(5) 0.2714(2) 0.03554(13)
H4 H 0.3478 0.2600 0.0173
H5 H 0.2595 0.3039 0.0320
C1 C 0.2864(5) 0.0727(3) 0.02214(13)
C2 C 0.0214(5) 0.2592(2) 0.09361(12)
C3 C -0.0541(5) 0.3196(3) 0.09620(13)
C4 C 0.0057(5) 0.3775(3) 0.09629(15)
H6 H 0.0932 0.3795 0.0960
C5 C 0.3976(5) 0.0362(2) 0.01009(13)
C6 C 0.4987(7) 0.0647(3) -0.0032(2)
H7 H 0.5000 0.1085 -0.0054
C7 C 0.3994(6) -0.0288(3) 0.01340(19)
H8 H 0.3312 -0.0491 0.0227
C8 C -0.1851(6) 0.3174(3) 0.09678(16)
H9 H -0.2257 0.2784 0.0975
C9 C 0.4101(7) 0.2901(3) 0.05802(18)
H10 H 0.3725 0.3136 0.0751
H11 H 0.4718 0.3170 0.0479
C10 C 0.4725(6) 0.2317(4) 0.07023(18)
H12 H 0.5161 0.2100 0.0535
H13 H 0.5335 0.2428 0.0861
Ni1P Ni 0.78369(6) -0.19507(3) -0.055179(16)
Ni1M Ni 0.03369(6) 0.05493(3) 0.055179(16)
Ni1CA Ni 0.96631(6) -0.05493(3) -0.055179(16)
Ni1A Ni -0.46631(6) 0.55493(3) 0.055179(16)
O1P O 0.8750 -0.1250 -0.08026(11)
H1M H 0.0680 0.1364 0.0919
H1P H 0.8180 -0.1136 -0.0919
H1CA H 0.9320 -0.1364 -0.0919
O2P O 0.6953(4) -0.13181(17) -0.02596(9)
O3P O 0.8122(4) -0.04288(18) -0.02712(9)
O3M O 0.0622(4) 0.20712(18) 0.02712(9)
O3CA O 0.9378(4) -0.20712(18) -0.02712(9)
O4A O -0.2171(4) 0.54262(17) 0.10086(10)
O5A O -0.3824(4) 0.48592(16) 0.08404(9)
O5P O 0.8676(4) -0.26408(16) -0.08404(9)
N1P N 0.6248(5) -0.1901(2) -0.08357(11)
H2P H 0.6441 -0.2027 -0.1031
H3P H 0.5965 -0.1499 -0.0844
N2P N 0.6874(5) -0.2714(2) -0.03554(13)
H4P H 0.6522 -0.2600 -0.0173
H5P H 0.7405 -0.3039 -0.0320
C1P C 0.7136(5) -0.0727(3) -0.02214(13)
C2A C -0.2714(5) 0.4908(2) 0.09361(12)
C3A C -0.1959(5) 0.4304(3) 0.09620(13)
C4A C -0.2557(5) 0.3725(3) 0.09629(15)
H6A H -0.3432 0.3705 0.0960
C5P C 0.6024(5) -0.0362(2) -0.01009(13)
C6P C 0.5013(7) -0.0647(3) 0.0032(2)
H7P H 0.5000 -0.1085 0.0054
C7P C 0.6006(6) 0.0288(3) -0.01340(19)
H8P H 0.6688 0.0491 -0.0227
C8A C -0.0649(6) 0.4326(3) 0.09678(16)
H9A H -0.0243 0.4716 0.0975
C9P C 0.5899(7) -0.2901(3) -0.05802(18)
H10P H 0.6275 -0.3136 -0.0751
H11P H 0.5282 -0.3170 -0.0479
C10P C 0.5275(6) -0.2317(4) -0.07023(18)
H12P H 0.4839 -0.2100 -0.0535
H13P H 0.4665 -0.2428 -0.0861
loop_
_geom_bond_atom_site_label_1
_geom_bond_atom_site_label_2
_geom_bond_site_symmetry_1
_geom_bond_site_symmetry_2
Ni1 O1 1_555 1_555
O1 H1 1_555 1_555
O2 Ni1 1_555 1_555
O3 C1 1_555 1_555
O4 C2 1_555 1_555
O5 Ni1 1_555 1_555
N1 Ni1 1_555 1_555
H2 N1 1_555 1_555
H3 N1 1_555 1_555
N2 Ni1 1_555 1_555
H4 N2 1_555 1_555
H5 N2 1_555 1_555
C1 O2 1_555 1_555
C2 O5 1_555 1_555
C3 C2 1_555 1_555
C4 C3 1_555 1_555
H6 C4 1_555 1_555
C5 C1 1_555 1_555
C6 C5 1_555 1_555
H7 C6 1_555 1_555
C7 C5 1_555 1_555
H8 C7 1_555 1_555
C8 C3 1_555 1_555
H9 C8 1_555 1_555
C9 N2 1_555 1_555
H10 C9 1_555 1_555
H11 C9 1_555 1_555
C10 N1 1_555 1_555
H12 C10 1_555 1_555
H13 C10 1_555 1_555
Ni1P O1P 1_555 1_555
Ni1M O1 1_555 1_555
Ni1CA O1P 1_555 1_555
Ni1A O5A 1_555 1_555
O1P H1P 1_555 1_555
H1M O1 1_555 1_555
H1CA O1P 1_555 1_555
O2P Ni1P 1_555 1_555
O3P Ni1CA 1_555 1_555
O3M Ni1 1_555 1_555
O3CA Ni1P 1_555 1_555
O4A C2A 1_555 1_555
O5A C2A 1_555 1_555
O5P Ni1P 1_555 1_555
N1P Ni1P 1_555 1_555
H2P N1P 1_555 1_555
H3P N1P 1_555 1_555
N2P Ni1P 1_555 1_555
H4P N2P 1_555 1_555
H5P N2P 1_555 1_555
C1P O2P 1_555 1_555
C2A C3A 1_555 1_555
C3A C4A 1_555 1_555
C4A C8 1_555 1_555
H6A C4A 1_555 1_555
C5P C1P 1_555 1_555
C6P C7 1_555 1_555
H7P C6P 1_555 1_555
C7P C6 1_555 1_555
H8P C7P 1_555 1_555
C8A C4 1_555 1_555
H9A C8A 1_555 1_555
C9P N2P 1_555 1_555
H10P C9P 1_555 1_555
H11P C9P 1_555 1_555
C10P N1P 1_555 1_555
H12P C10P 1_555 1_555
H13P C10P 1_555 1_555
O3 Ni1M 1_555 1_555
C9 C10 1_555 1_555
O3P C1P 1_555 1_555
C3A C8A 1_555 1_555
C5P C6P 1_555 1_555
C5P C7P 1_555 1_555
C9P C10P 1_555 1_555

#END
