
#######################################################################
#
#                 Cambridge Crystallographic Data Centre
#                                CCDC 
#
#######################################################################
#
# If this CIF has been generated from an entry in the Cambridge 
# Structural Database, then it will include bibliographic, chemical, 
# crystal, experimental, refinement or atomic coordinate data resulting 
# from the CCDC's data processing and validation procedures.
#
#######################################################################

data_VATZUN
_symmetry_cell_setting           monoclinic
_symmetry_space_group_name_H-M   'P 21/c'
_symmetry_Int_Tables_number      14
_space_group_name_Hall           '-P 2ybc'
loop_
_symmetry_equiv_pos_site_id
_symmetry_equiv_pos_as_xyz
1 x,y,z
2 -x,1/2+y,1/2-z
3 -x,-y,-z
4 x,1/2-y,1/2+z
_cell_length_a                   11.4881(7)
_cell_length_b                   16.7880(11)
_cell_length_c                   22.6412(15)
_cell_angle_alpha                90
_cell_angle_beta                 103.1690(10)
_cell_angle_gamma                90
_cell_volume                     4251.8
loop_
_atom_site_label
_atom_site_type_symbol
_atom_site_fract_x
_atom_site_fract_y
_atom_site_fract_z
Co1 Co 0.09801(2) 0.386502(15) 0.247364(12)
Co2 Co 0.36818(2) 0.394717(16) 0.192021(12)
N1 N 0.51860(15) 0.34387(10) 0.16647(7)
N2 N 0.35064(15) 0.47913(10) 0.11628(8)
N3 N 0.11522(16) 0.47518(11) 0.32234(8)
N4 N -0.04345(15) 0.33108(10) 0.27936(7)
O1 O 0.22824(12) 0.31854(8) 0.30415(6)
O2 O 0.39427(13) 0.32024(9) 0.26730(6)
O3 O -0.07691(13) 0.02146(10) 0.36577(7)
O4 O 0.03014(12) -0.03754(8) 0.30706(6)
O5 O 0.24731(12) 0.31959(8) 0.13696(6)
O6 O 0.08164(12) 0.30960(9) 0.17411(6)
O7 O 0.62949(13) 0.03112(11) 0.19841(8)
O8 O 0.51156(12) -0.02354(9) 0.25325(6)
O9 O 0.22936(13) 0.45409(9) 0.21895(7)
C1 C 0.33897(17) 0.31313(11) 0.30886(9)
C2 C 0.41533(17) 0.30227(12) 0.37235(9)
C3 C 0.38451(17) 0.25217(12) 0.41603(9)
C4 C 0.4521(2) 0.25599(14) 0.47547(10)
H1 H 0.4314 0.2231 0.5057
C5 C 0.5492(2) 0.30702(16) 0.49124(10)
H2 H 0.5933 0.3097 0.5321
C6 C 0.5817(2) 0.35381(16) 0.44767(11)
H3 H 0.6497 0.3876 0.4581
C7 C 0.51493(19) 0.35125(13) 0.38873(10)
H4 H 0.5375 0.3836 0.3588
C8 C 0.01531(18) 0.01348(12) 0.34592(9)
C9 C 0.11448(17) 0.07255(12) 0.36678(9)
C10 C 0.11268(19) 0.12402(13) 0.41466(10)
H5 H 0.0512 0.1193 0.4363
C11 C 0.19968(19) 0.18205(12) 0.43112(9)
H6 H 0.1982 0.2161 0.4644
C12 C 0.28933(17) 0.19101(12) 0.39938(9)
C13 C 0.29121(18) 0.13864(13) 0.35170(9)
H7 H 0.3521 0.1434 0.3297
C14 C 0.20546(18) 0.07991(13) 0.33615(9)
H8 H 0.2089 0.0442 0.3041
C15 C 0.14219(17) 0.29761(11) 0.13526(9)
C16 C 0.07991(17) 0.25317(12) 0.07891(8)
C17 C -0.02172(19) 0.28779(14) 0.04219(10)
H9 H -0.0530 0.3355 0.0550
C18 C -0.0775(2) 0.25384(15) -0.01241(10)
H10 H -0.1457 0.2786 -0.0373
C19 C -0.0339(2) 0.18403(15) -0.03072(10)
H11 H -0.0715 0.1607 -0.0685
C20 C 0.0644(2) 0.14783(14) 0.00587(9)
H12 H 0.0922 0.0987 -0.0066
C21 C 0.12387(17) 0.18161(12) 0.06067(9)
C22 C 0.52995(18) 0.01870(12) 0.21023(9)
C23 C 0.42343(17) 0.05813(12) 0.17026(9)
C24 C 0.41997(19) 0.07517(13) 0.11005(9)
H13 H 0.4850 0.0601 0.0930
C25 C 0.32219(19) 0.11407(12) 0.07439(9)
H14 H 0.3194 0.1232 0.0327
C26 C 0.22812(18) 0.13983(12) 0.09894(9)
C27 C 0.23356(19) 0.12371(13) 0.15971(9)
H15 H 0.1711 0.1415 0.1776
C28 C 0.32865(18) 0.08217(13) 0.19434(9)
H16 H 0.3291 0.0699 0.2353
C29 C 0.5375(2) 0.26527(13) 0.16866(10)
H17 H 0.4778 0.2313 0.1778
C30 C 0.6407(2) 0.23160(14) 0.15813(11)
H18 H 0.6519 0.1755 0.1603
C31 C 0.7268(2) 0.28053(15) 0.14453(11)
H19 H 0.7984 0.2588 0.1370
C32 C 0.70786(19) 0.36145(15) 0.14191(10)
H20 H 0.7661 0.3965 0.1326
C33 C 0.60368(19) 0.39062(13) 0.15296(10)
H21 H 0.5910 0.4466 0.1510
C34 C 0.3699(2) 0.55712(14) 0.12537(11)
H22 H 0.3843 0.5765 0.1658
C35 C 0.3700(2) 0.61055(15) 0.07986(12)
H23 H 0.3841 0.6655 0.0885
C36 C 0.3495(3) 0.58310(19) 0.02157(13)
H24 H 0.3495 0.6186 -0.0111
C37 C 0.3287(3) 0.5033(2) 0.01113(12)
H25 H 0.3143 0.4826 -0.0290
C38 C 0.3291(2) 0.45353(16) 0.05938(11)
H26 H 0.3133 0.3985 0.0517
C39 C 0.1800(2) 0.45953(16) 0.37798(11)
H27 H 0.2107 0.4072 0.3867
C40 C 0.2043(3) 0.51640(17) 0.42347(12)
H28 H 0.2522 0.5034 0.4623
C41 C 0.1583(3) 0.59174(17) 0.41182(12)
H29 H 0.1733 0.6316 0.4424
C42 C 0.0906(2) 0.60801(15) 0.35525(13)
H30 H 0.0569 0.6594 0.3457
C43 C 0.0721(2) 0.54858(14) 0.31236(12)
H31 H 0.0255 0.5608 0.2731
C44 C -0.13879(19) 0.37399(14) 0.28446(10)
H32 H -0.1390 0.4294 0.2760
C45 C -0.2365(2) 0.34183(16) 0.30128(11)
H33 H -0.3032 0.3742 0.3035
C46 C -0.2360(2) 0.26243(17) 0.31473(12)
H34 H -0.3026 0.2385 0.3261
C47 C -0.1380(2) 0.21808(16) 0.31151(12)
H35 H -0.1348 0.1631 0.3216
C48 C -0.0437(2) 0.25376(14) 0.29349(11)
H36 H 0.0237 0.2222 0.2910
H37 H 0.273(3) 0.4879(18) 0.2471(14)
H38 H 0.187(2) 0.4751(16) 0.1893(12)
Co1A Co -0.09801(2) -0.113498(15) 0.252636(12)
Co2A Co 0.63182(2) -0.105283(16) 0.307979(12)
O4A O -0.03014(12) 0.46246(8) 0.19294(6)
O8A O 0.48844(12) 0.47646(9) 0.24675(6)
loop_
_geom_bond_atom_site_label_1
_geom_bond_atom_site_label_2
_geom_bond_site_symmetry_1
_geom_bond_site_symmetry_2
Co1 N3 1_555 1_555
Co2 N1 1_555 1_555
N1 C29 1_555 1_555
N2 Co2 1_555 1_555
N3 C39 1_555 1_555
N4 Co1 1_555 1_555
O1 Co1 1_555 1_555
O2 Co2 1_555 1_555
O3 C8 1_555 1_555
O4 C8 1_555 1_555
O5 Co2 1_555 1_555
O6 Co1 1_555 1_555
O7 C22 1_555 1_555
O8 C22 1_555 1_555
O9 Co1 1_555 1_555
C1 O1 1_555 1_555
C2 C1 1_555 1_555
C3 C2 1_555 1_555
C4 C3 1_555 1_555
H1 C4 1_555 1_555
C5 C4 1_555 1_555
H2 C5 1_555 1_555
C6 C5 1_555 1_555
H3 C6 1_555 1_555
C7 C2 1_555 1_555
H4 C7 1_555 1_555
C8 C9 1_555 1_555
C9 C10 1_555 1_555
C10 H5 1_555 1_555
C11 C10 1_555 1_555
H6 C11 1_555 1_555
C12 C3 1_555 1_555
C13 C12 1_555 1_555
H7 C13 1_555 1_555
C14 C9 1_555 1_555
H8 C14 1_555 1_555
C15 O5 1_555 1_555
C16 C15 1_555 1_555
C17 C16 1_555 1_555
H9 C17 1_555 1_555
C18 C17 1_555 1_555
H10 C18 1_555 1_555
C19 C18 1_555 1_555
H11 C19 1_555 1_555
C20 C19 1_555 1_555
H12 C20 1_555 1_555
C21 C16 1_555 1_555
C22 C23 1_555 1_555
C23 C24 1_555 1_555
C24 H13 1_555 1_555
C25 C24 1_555 1_555
H14 C25 1_555 1_555
C26 C21 1_555 1_555
C27 C26 1_555 1_555
H15 C27 1_555 1_555
C28 C23 1_555 1_555
H16 C28 1_555 1_555
C29 H17 1_555 1_555
C30 C29 1_555 1_555
H18 C30 1_555 1_555
C31 C30 1_555 1_555
H19 C31 1_555 1_555
C32 C31 1_555 1_555
H20 C32 1_555 1_555
C33 N1 1_555 1_555
H21 C33 1_555 1_555
C34 N2 1_555 1_555
H22 C34 1_555 1_555
C35 C34 1_555 1_555
H23 C35 1_555 1_555
C36 C35 1_555 1_555
H24 C36 1_555 1_555
C37 C36 1_555 1_555
H25 C37 1_555 1_555
C38 N2 1_555 1_555
H26 C38 1_555 1_555
C39 H27 1_555 1_555
C40 C39 1_555 1_555
H28 C40 1_555 1_555
C41 C40 1_555 1_555
H29 C41 1_555 1_555
C42 C41 1_555 1_555
H30 C42 1_555 1_555
C43 N3 1_555 1_555
H31 C43 1_555 1_555
C44 N4 1_555 1_555
H32 C44 1_555 1_555
C45 C44 1_555 1_555
H33 C45 1_555 1_555
C46 C45 1_555 1_555
H34 C46 1_555 1_555
C47 C46 1_555 1_555
H35 C47 1_555 1_555
C48 N4 1_555 1_555
H36 C48 1_555 1_555
H37 O9 1_555 1_555
H38 O9 1_555 1_555
Co1A O4 1_555 1_555
Co2A O8 1_555 1_555
O4A Co1 1_555 1_555
O8A Co2 1_555 1_555
Co2 O9 1_555 1_555
O2 C1 1_555 1_555
O6 C15 1_555 1_555
C6 C7 1_555 1_555
C11 C12 1_555 1_555
C13 C14 1_555 1_555
C20 C21 1_555 1_555
C25 C26 1_555 1_555
C27 C28 1_555 1_555
C32 C33 1_555 1_555
C37 C38 1_555 1_555
C42 C43 1_555 1_555
C47 C48 1_555 1_555

#END
