
#######################################################################
#
#                 Cambridge Crystallographic Data Centre
#                                CCDC 
#
#######################################################################
#
# If this CIF has been generated from an entry in the Cambridge 
# Structural Database, then it will include bibliographic, chemical, 
# crystal, experimental, refinement or atomic coordinate data resulting 
# from the CCDC's data processing and validation procedures.
#
#######################################################################

data_VAVBAX
_symmetry_cell_setting           monoclinic
_symmetry_space_group_name_H-M   'P 21/c'
_symmetry_Int_Tables_number      14
_space_group_name_Hall           '-P 2ybc'
loop_
_symmetry_equiv_pos_site_id
_symmetry_equiv_pos_as_xyz
1 x,y,z
2 -x,1/2+y,1/2-z
3 -x,-y,-z
4 x,1/2-y,1/2+z
_cell_length_a                   11.4126(6)
_cell_length_b                   16.7890(9)
_cell_length_c                   22.5325(12)
_cell_angle_alpha                90
_cell_angle_beta                 102.9020(10)
_cell_angle_gamma                90
_cell_volume                     4208.37
loop_
_atom_site_label
_atom_site_type_symbol
_atom_site_fract_x
_atom_site_fract_y
_atom_site_fract_z
Ni1 Ni 0.90067(2) 0.888713(13) 0.251802(11)
Ni2 Ni 0.63274(2) 0.896362(14) 0.307477(11)
N1 N 0.88466(15) 0.97508(10) 0.17903(8)
N2 N 1.03923(14) 0.83320(9) 0.22100(7)
N3 N 0.65017(15) 0.97812(10) 0.38145(7)
N4 N 0.48519(14) 0.84561(9) 0.33231(7)
O1 O 0.77240(12) 0.82043(8) 0.19541(6)
O2 O 0.60541(12) 0.82297(8) 0.23283(6)
O3 O 0.75089(12) 0.82033(8) 0.36150(6)
O4 O 0.91801(12) 0.81142(8) 0.32372(6)
O5 O 0.97037(12) 0.46202(8) 0.19324(6)
O6 O 1.07933(13) 0.52100(9) 0.13478(7)
O7 O 0.48846(12) 0.47584(8) 0.24684(6)
O8 O 0.36908(13) 0.53060(10) 0.30159(7)
O9 O 0.77064(13) 0.95264(8) 0.28078(7)
C1 C 0.66110(17) 0.81492(10) 0.19129(9)
C2 C 0.58438(17) 0.80245(11) 0.12764(9)
C3 C 0.61521(17) 0.75164(11) 0.08401(8)
C4 C 0.54699(19) 0.75485(13) 0.02446(9)
H1 H 0.5680 0.7218 -0.0058
C5 C 0.4491(2) 0.80545(14) 0.00856(10)
H2 H 0.4044 0.8075 -0.0324
C6 C 0.4166(2) 0.85282(14) 0.05216(11)
H3 H 0.3482 0.8865 0.0417
C7 C 0.48394(19) 0.85099(12) 0.11106(10)
H4 H 0.4611 0.8837 0.1410
C8 C 0.85671(17) 0.79897(10) 0.36269(9)
C9 C 0.91990(17) 0.75484(11) 0.41942(8)
C10 C 0.87652(17) 0.68335(11) 0.43818(8)
C11 C 0.9363(2) 0.65013(13) 0.49328(9)
H5 H 0.9084 0.6012 0.5063
C12 C 1.0353(2) 0.68683(14) 0.52953(10)
H6 H 1.0735 0.6638 0.5675
C13 C 1.0785(2) 0.75647(14) 0.51069(10)
H7 H 1.1469 0.7815 0.5354
C14 C 1.02215(18) 0.79021(12) 0.45557(9)
H8 H 1.0533 0.8378 0.4422
C15 C 0.98574(18) 0.51300(11) 0.15433(9)
C16 C 0.88622(17) 0.57172(11) 0.13327(9)
C17 C 0.79499(18) 0.57973(12) 0.16427(9)
H9 H 0.7914 0.5442 0.1966
C18 C 0.70889(18) 0.63883(12) 0.14874(9)
H10 H 0.6477 0.6440 0.1710
C19 C 0.71112(17) 0.69072(11) 0.10081(8)
C20 C 0.80107(19) 0.68116(12) 0.06863(9)
H11 H 0.8026 0.7149 0.0350
C21 C 0.88831(19) 0.62302(12) 0.08512(9)
H12 H 0.9502 0.6181 0.0633
C22 C 0.46973(18) 0.51821(11) 0.29002(9)
C23 C 0.57621(17) 0.55824(11) 0.32968(9)
C24 C 0.57981(19) 0.57558(12) 0.39019(9)
H13 H 0.5147 0.5603 0.4076
C25 C 0.67759(19) 0.61494(12) 0.42541(9)
H14 H 0.6805 0.6244 0.4673
C26 C 0.77182(17) 0.64092(11) 0.40026(8)
C27 C 0.76640(18) 0.62452(12) 0.33934(9)
H15 H 0.8288 0.6427 0.3210
C28 C 0.67135(18) 0.58212(12) 0.30521(9)
H16 H 0.6713 0.5691 0.2642
C29 C 0.8229(2) 0.95878(14) 0.12264(10)
H17 H 0.7940 0.9061 0.1135
C30 C 0.7994(3) 1.01561(16) 0.07709(11)
H18 H 0.7535 1.0022 0.0378
C31 C 0.8430(2) 1.09165(15) 0.08898(12)
H19 H 0.8286 1.1314 0.0582
C32 C 0.9075(2) 1.10854(14) 0.14614(12)
H20 H 0.9394 1.1604 0.1559
C33 C 0.9256(2) 1.04932(13) 0.18958(11)
H21 H 0.9698 1.0621 0.2294
C34 C 1.13559(18) 0.87543(13) 0.21514(9)
H22 H 1.1363 0.9310 0.2230
C35 C 1.2334(2) 0.84241(15) 0.19829(10)
H23 H 1.3006 0.8744 0.1954
C36 C 1.2322(2) 0.76275(16) 0.18580(11)
H24 H 1.2989 0.7382 0.1744
C37 C 1.1334(2) 0.71888(14) 0.18998(12)
H25 H 1.1300 0.6636 0.1808
C38 C 1.0386(2) 0.75577(13) 0.20761(10)
H26 H 0.9703 0.7249 0.2103
C39 C 0.6318(2) 1.05610(12) 0.37288(10)
H27 H 0.6185 1.0760 0.3325
C40 C 0.6308(2) 1.10927(14) 0.41882(11)
H28 H 0.6170 1.1643 0.4104
C41 C 0.6502(3) 1.08112(18) 0.47712(12)
H29 H 0.6499 1.1164 0.5101
C42 C 0.6702(3) 1.00097(17) 0.48734(12)
H30 H 0.6831 0.9798 0.5274
C43 C 0.6711(2) 0.95213(15) 0.43857(10)
H31 H 0.6876 0.8971 0.4460
C44 C 0.39890(18) 0.89164(12) 0.34594(9)
H32 H 0.4107 0.9477 0.3476
C45 C 0.29467(19) 0.86194(14) 0.35754(10)
H33 H 0.2357 0.8967 0.3670
C46 C 0.2768(2) 0.78099(14) 0.35528(11)
H34 H 0.2052 0.7589 0.3632
C47 C 0.3640(2) 0.73243(13) 0.34139(10)
H35 H 0.3535 0.6763 0.3393
C48 C 0.46740(19) 0.76687(12) 0.33051(9)
H36 H 0.5280 0.7333 0.3214
H37 H 0.730(2) 0.9864(17) 0.2536(13)
H38 H 0.812(2) 0.9765(15) 0.3088(12)
Ni1A Ni 1.09933(2) 0.388713(13) 0.248198(11)
Ni2A Ni 0.36726(2) 0.396362(14) 0.192523(11)
O5A O 1.02963(12) 0.96202(8) 0.30676(6)
O7A O 0.51154(12) 0.97584(8) 0.25316(6)
loop_
_geom_bond_atom_site_label_1
_geom_bond_atom_site_label_2
_geom_bond_site_symmetry_1
_geom_bond_site_symmetry_2
Ni1 N1 1_555 1_555
Ni2 N3 1_555 1_555
N1 C29 1_555 1_555
N2 Ni1 1_555 1_555
N3 C39 1_555 1_555
N4 Ni2 1_555 1_555
O1 Ni1 1_555 1_555
O2 Ni2 1_555 1_555
O3 Ni2 1_555 1_555
O4 Ni1 1_555 1_555
O5 C15 1_555 1_555
O6 C15 1_555 1_555
O7 C22 1_555 1_555
O8 C22 1_555 1_555
O9 Ni1 1_555 1_555
C1 O1 1_555 1_555
C2 C1 1_555 1_555
C3 C2 1_555 1_555
C4 C3 1_555 1_555
H1 C4 1_555 1_555
C5 C4 1_555 1_555
H2 C5 1_555 1_555
C6 C5 1_555 1_555
H3 C6 1_555 1_555
C7 C2 1_555 1_555
H4 C7 1_555 1_555
C8 O3 1_555 1_555
C9 C8 1_555 1_555
C10 C9 1_555 1_555
C11 C10 1_555 1_555
H5 C11 1_555 1_555
C12 C11 1_555 1_555
H6 C12 1_555 1_555
C13 C12 1_555 1_555
H7 C13 1_555 1_555
C14 C9 1_555 1_555
H8 C14 1_555 1_555
C15 C16 1_555 1_555
C16 C17 1_555 1_555
C17 H9 1_555 1_555
C18 C17 1_555 1_555
H10 C18 1_555 1_555
C19 C3 1_555 1_555
C20 C19 1_555 1_555
H11 C20 1_555 1_555
C21 C16 1_555 1_555
H12 C21 1_555 1_555
C22 C23 1_555 1_555
C23 C24 1_555 1_555
C24 H13 1_555 1_555
C25 C24 1_555 1_555
H14 C25 1_555 1_555
C26 C10 1_555 1_555
C27 C26 1_555 1_555
H15 C27 1_555 1_555
C28 C23 1_555 1_555
H16 C28 1_555 1_555
C29 H17 1_555 1_555
C30 C29 1_555 1_555
H18 C30 1_555 1_555
C31 C30 1_555 1_555
H19 C31 1_555 1_555
C32 C31 1_555 1_555
H20 C32 1_555 1_555
C33 N1 1_555 1_555
H21 C33 1_555 1_555
C34 N2 1_555 1_555
H22 C34 1_555 1_555
C35 C34 1_555 1_555
H23 C35 1_555 1_555
C36 C35 1_555 1_555
H24 C36 1_555 1_555
C37 C36 1_555 1_555
H25 C37 1_555 1_555
C38 N2 1_555 1_555
H26 C38 1_555 1_555
C39 H27 1_555 1_555
C40 C39 1_555 1_555
H28 C40 1_555 1_555
C41 C40 1_555 1_555
H29 C41 1_555 1_555
C42 C41 1_555 1_555
H30 C42 1_555 1_555
C43 N3 1_555 1_555
H31 C43 1_555 1_555
C44 N4 1_555 1_555
H32 C44 1_555 1_555
C45 C44 1_555 1_555
H33 C45 1_555 1_555
C46 C45 1_555 1_555
H34 C46 1_555 1_555
C47 C46 1_555 1_555
H35 C47 1_555 1_555
C48 N4 1_555 1_555
H36 C48 1_555 1_555
H37 O9 1_555 1_555
H38 O9 1_555 1_555
Ni1A O5 1_555 1_555
Ni2A O7 1_555 1_555
O5A Ni1 1_555 1_555
O7A Ni2 1_555 1_555
Ni2 O9 1_555 1_555
O2 C1 1_555 1_555
O4 C8 1_555 1_555
C6 C7 1_555 1_555
C13 C14 1_555 1_555
C18 C19 1_555 1_555
C20 C21 1_555 1_555
C25 C26 1_555 1_555
C27 C28 1_555 1_555
C32 C33 1_555 1_555
C37 C38 1_555 1_555
C42 C43 1_555 1_555
C47 C48 1_555 1_555

#END
