
#######################################################################
#
#                 Cambridge Crystallographic Data Centre
#                                CCDC 
#
#######################################################################
#
# If this CIF has been generated from an entry in the Cambridge 
# Structural Database, then it will include bibliographic, chemical, 
# crystal, experimental, refinement or atomic coordinate data resulting 
# from the CCDC's data processing and validation procedures.
#
#######################################################################

data_VAVFUU01
_symmetry_cell_setting           monoclinic
_symmetry_space_group_name_H-M   'P 21/c'
_symmetry_Int_Tables_number      14
_space_group_name_Hall           '-P 2ybc'
loop_
_symmetry_equiv_pos_site_id
_symmetry_equiv_pos_as_xyz
1 x,y,z
2 -x,1/2+y,1/2-z
3 -x,-y,-z
4 x,1/2-y,1/2+z
_cell_length_a                   6.1705(12)
_cell_length_b                   14.546(3)
_cell_length_c                   9.5595(19)
_cell_angle_alpha                90
_cell_angle_beta                 102.63(3)
_cell_angle_gamma                90
_cell_volume                     837.261
loop_
_atom_site_label
_atom_site_type_symbol
_atom_site_fract_x
_atom_site_fract_y
_atom_site_fract_z
Zn1 Zn 0.12173(4) 0.394869(16) 0.33620(2)
Zn2 Zn 0.5000 0.5000 1.0000
O1 O -0.1725(3) 0.40253(11) 0.39945(19)
H1 H -0.251(7) 0.435(3) 0.355(4)
H2 H -0.170(5) 0.422(2) 0.478(4)
O2 O 0.3341(3) 0.29550(10) 0.44469(15)
O3 O 0.2923(3) 0.41352(12) 0.57575(19)
O4 O 0.4511(2) 0.37405(11) 0.88605(15)
H3 H 0.428(5) 0.325(2) 0.912(3)
O5 O 0.5912(2) 0.53183(10) 0.81322(16)
O6 O 0.7981(2) 0.47160(11) 0.67626(16)
O7 O 0.8169(3) 0.44846(11) 1.08524(16)
O8 O 1.0370(3) 0.32923(11) 1.15210(15)
C1 C 0.3846(3) 0.33986(14) 0.5630(2)
C2 C 0.5631(3) 0.30174(13) 0.6826(2)
H4 H 0.6940 0.2887 0.6454
H5 H 0.5116 0.2441 0.7146
C3 C 0.6281(3) 0.36609(13) 0.8113(2)
C4 C 0.6726(3) 0.46366(13) 0.7625(2)
C5 C 0.8406(3) 0.32969(14) 0.9117(2)
H6 H 0.8242 0.2640 0.9235
H7 H 0.9640 0.3388 0.8653
C6 C 0.8990(3) 0.37336(14) 1.0585(2)
Zn1B Zn 0.87827(4) 0.605131(16) 1.66380(2)
Zn1B_2 Zn 0.87827(4) 0.605131(16) 0.66380(2)
Zn1_2 Zn 1.12173(4) 0.394869(16) 1.33620(2)
Zn1_3 Zn 0.12173(4) 0.394869(16) 1.33620(2)
Zn1B_3 Zn -0.12173(4) 0.605131(16) 0.66380(2)
O1B O 1.1725(3) 0.59747(11) 1.60055(19)
H1B H 1.251(7) 0.565(3) 1.645(4)
H2B H 1.170(5) 0.578(2) 1.522(4)
O2B O 0.6659(3) 0.70450(10) 1.55531(15)
O3B O 0.7077(3) 0.58648(12) 1.42425(19)
O4B O 0.5489(2) 0.62595(11) 1.11395(15)
H3B H 0.572(5) 0.675(2) 1.088(3)
O5B O 0.4088(2) 0.46817(10) 1.18678(16)
O6B O 0.2019(2) 0.52840(11) 1.32374(16)
O6B_2 O 0.2019(2) 0.52840(11) 0.32374(16)
O6_2 O 0.7981(2) 0.47160(11) 1.67626(16)
O7B O 0.1831(3) 0.55154(11) 0.91476(16)
O8B O -0.0370(3) 0.67077(11) 0.84790(15)
O8_2 O 0.0370(3) 0.32923(11) 0.15210(15)
O8B_2 O 0.9630(3) 0.67077(11) 1.84790(15)
C1B C 0.6154(3) 0.66014(14) 1.4370(2)
C2B C 0.4369(3) 0.69826(13) 1.3174(2)
H4B H 0.3060 0.7113 1.3546
H5B H 0.4884 0.7559 1.2854
C3B C 0.3719(3) 0.63391(13) 1.1887(2)
C4B C 0.3274(3) 0.53634(13) 1.2375(2)
C5B C 0.1594(3) 0.67031(14) 1.0883(2)
H6B H 0.1758 0.7360 1.0765
H7B H 0.0360 0.6612 1.1347
C6B C 0.1010(3) 0.62664(14) 0.9415(2)
loop_
_geom_bond_atom_site_label_1
_geom_bond_atom_site_label_2
_geom_bond_site_symmetry_1
_geom_bond_site_symmetry_2
Zn1 O1 1_555 1_555
Zn2 O4 1_555 1_555
O1 H1 1_555 1_555
H2 O1 1_555 1_555
O2 Zn1 1_555 1_555
O3 Zn1 1_555 1_555
O4 H3 1_555 1_555
O5 Zn2 1_555 1_555
O6 C4 1_555 1_555
O7 Zn2 1_555 1_555
O8 C6 1_555 1_555
C1 O2 1_555 1_555
C2 C1 1_555 1_555
H4 C2 1_555 1_555
H5 C2 1_555 1_555
C3 O4 1_555 1_555
C4 O5 1_555 1_555
C5 C3 1_555 1_555
H6 C5 1_555 1_555
H7 C5 1_555 1_555
C6 O7 1_555 1_555
Zn1B O1B 1_555 1_555
Zn1B_2 O6 1_555 1_555
Zn1_2 O8 1_555 1_555
Zn1_3 O6B 1_555 1_555
Zn1B_3 O8B 1_555 1_555
O1B H1B 1_555 1_555
H2B O1B 1_555 1_555
O2B Zn1B 1_555 1_555
O3B Zn1B 1_555 1_555
O4B Zn2 1_555 1_555
H3B O4B 1_555 1_555
O5B Zn2 1_555 1_555
O6B C4B 1_555 1_555
O6B_2 Zn1 1_555 1_555
O6_2 Zn1B 1_555 1_555
O7B Zn2 1_555 1_555
O8B C6B 1_555 1_555
O8_2 Zn1 1_555 1_555
O8B_2 Zn1B 1_555 1_555
C1B O2B 1_555 1_555
C2B C1B 1_555 1_555
H4B C2B 1_555 1_555
H5B C2B 1_555 1_555
C3B O4B 1_555 1_555
C4B O5B 1_555 1_555
C5B C3B 1_555 1_555
H6B C5B 1_555 1_555
H7B C5B 1_555 1_555
C6B O7B 1_555 1_555
O3 C1 1_555 1_555
C2 C3 1_555 1_555
C3 C4 1_555 1_555
C5 C6 1_555 1_555
O3B C1B 1_555 1_555
C2B C3B 1_555 1_555
C3B C4B 1_555 1_555
C5B C6B 1_555 1_555

#END
