
#######################################################################
#
#                 Cambridge Crystallographic Data Centre
#                                CCDC 
#
#######################################################################
#
# If this CIF has been generated from an entry in the Cambridge 
# Structural Database, then it will include bibliographic, chemical, 
# crystal, experimental, refinement or atomic coordinate data resulting 
# from the CCDC's data processing and validation procedures.
#
#######################################################################

data_VAVFUU
_symmetry_cell_setting           monoclinic
_symmetry_space_group_name_H-M   'P 21/c'
_symmetry_Int_Tables_number      14
_space_group_name_Hall           '-P 2ybc'
loop_
_symmetry_equiv_pos_site_id
_symmetry_equiv_pos_as_xyz
1 x,y,z
2 -x,1/2+y,1/2-z
3 -x,-y,-z
4 x,1/2-y,1/2+z
_cell_length_a                   6.1552(13)
_cell_length_b                   14.546(3)
_cell_length_c                   9.581(4)
_cell_angle_alpha                90
_cell_angle_beta                 102.66(2)
_cell_angle_gamma                90
_cell_volume                     836.965
loop_
_atom_site_label
_atom_site_type_symbol
_atom_site_fract_x
_atom_site_fract_y
_atom_site_fract_z
Zn1 Zn 0.5000 0.5000 0.5000
Zn2 Zn -0.12170(5) 0.60515(2) 0.16371(3)
O1 O 0.1730(4) 0.59757(14) 0.1005(2)
H1 H 0.2417 0.5524 0.1417
H2 H 0.1524 0.5819 0.0111
O2 O 0.1827(4) 0.55188(15) 0.4145(2)
O3 O -0.0371(4) 0.67079(14) 0.3481(2)
O4 O 0.7079(4) 0.58649(16) 0.9242(3)
O5 O 0.6662(4) 0.70458(14) 1.0551(2)
O6 O 0.4087(4) 0.46822(13) 0.6869(2)
O7 O 0.2021(4) 0.52829(15) 0.8234(2)
O8 O 0.5489(3) 0.62593(13) 0.6136(2)
H3 H 0.5770 0.6829 0.5891
C1 C 0.1012(5) 0.62658(19) 0.4419(3)
C2 C 0.1604(5) 0.6702(2) 0.5888(3)
H4 H 0.0367 0.6612 0.6350
H5 H 0.1770 0.7359 0.5770
C3 C 0.3718(4) 0.63407(19) 0.6884(3)
C4 C 0.4370(5) 0.69819(19) 0.8174(3)
H6 H 0.4887 0.7559 0.7857
H7 H 0.3056 0.7111 0.8543
C5 C 0.6152(5) 0.66020(19) 0.9368(3)
C6 C 0.3273(5) 0.53628(19) 0.7375(3)
Zn2B Zn 1.12170(5) 0.39485(2) 0.83629(3)
Zn2_2 Zn 0.87830(5) 0.60515(2) 1.16371(3)
Zn2B_2 Zn 0.12170(5) 0.39485(2) 0.83629(3)
Zn2B_3 Zn 0.12170(5) 0.39485(2) -0.16371(3)
Zn2_3 Zn 0.87830(5) 0.60515(2) 0.16371(3)
O1B O 0.8270(4) 0.40243(14) 0.8995(2)
H1B H 0.7583 0.4476 0.8583
H2B H 0.8476 0.4181 0.9889
O2B O 0.8173(4) 0.44812(15) 0.5855(2)
O3B O 1.0371(4) 0.32921(14) 0.6519(2)
O4B O 0.2921(4) 0.41351(16) 0.0758(3)
O4_2 O -0.2921(4) 0.58649(16) -0.0758(3)
O4B_2 O 1.2921(4) 0.41351(16) 1.0758(3)
O5B O 0.3338(4) 0.29542(14) -0.0551(2)
O5_2 O -0.3338(4) 0.70458(14) 0.0551(2)
O5B_2 O 1.3338(4) 0.29542(14) 0.9449(2)
O6B O 0.5913(4) 0.53178(13) 0.3131(2)
O7B O 0.7979(4) 0.47171(15) 0.1766(2)
O7B_2 O -0.2021(4) 0.47171(15) 0.1766(2)
O7_2 O 1.2021(4) 0.52829(15) 0.8234(2)
O8B O 0.4511(3) 0.37407(13) 0.3864(2)
H3B H 0.4230 0.3171 0.4109
C1B C 0.8988(5) 0.37342(19) 0.5581(3)
C2B C 0.8396(5) 0.3298(2) 0.4112(3)
H4B H 0.9633 0.3388 0.3650
H5B H 0.8230 0.2641 0.4230
C3B C 0.6282(4) 0.36593(19) 0.3116(3)
C4B C 0.5630(5) 0.30181(19) 0.1826(3)
H6B H 0.5113 0.2441 0.2143
H7B H 0.6944 0.2889 0.1457
C5B C 0.3848(5) 0.33980(19) 0.0632(3)
C6B C 0.6727(5) 0.46372(19) 0.2625(3)
loop_
_geom_bond_atom_site_label_1
_geom_bond_atom_site_label_2
_geom_bond_site_symmetry_1
_geom_bond_site_symmetry_2
Zn1 O2 1_555 1_555
Zn2 O1 1_555 1_555
O1 H1 1_555 1_555
H2 O1 1_555 1_555
O2 C1 1_555 1_555
O3 Zn2 1_555 1_555
O4 C5 1_555 1_555
O5 C5 1_555 1_555
O6 Zn1 1_555 1_555
O7 C6 1_555 1_555
O8 Zn1 1_555 1_555
H3 O8 1_555 1_555
C1 O3 1_555 1_555
C2 C1 1_555 1_555
H4 C2 1_555 1_555
H5 C2 1_555 1_555
C3 O8 1_555 1_555
C4 C3 1_555 1_555
H6 C4 1_555 1_555
H7 C4 1_555 1_555
C5 C4 1_555 1_555
C6 O6 1_555 1_555
Zn2B O1B 1_555 1_555
Zn2_2 O4 1_555 1_555
Zn2B_2 O7 1_555 1_555
Zn2B_3 O4B 1_555 1_555
Zn2_3 O7B 1_555 1_555
O1B H1B 1_555 1_555
H2B O1B 1_555 1_555
O2B Zn1 1_555 1_555
O3B Zn2B 1_555 1_555
O4B C5B 1_555 1_555
O4_2 Zn2 1_555 1_555
O4B_2 Zn2B 1_555 1_555
O5B Zn2B_3 1_555 1_555
O5_2 Zn2 1_555 1_555
O5B_2 Zn2B 1_555 1_555
O6B Zn1 1_555 1_555
O7B C6B 1_555 1_555
O7B_2 Zn2 1_555 1_555
O7_2 Zn2B 1_555 1_555
O8B Zn1 1_555 1_555
H3B O8B 1_555 1_555
C1B O2B 1_555 1_555
C2B C1B 1_555 1_555
H4B C2B 1_555 1_555
H5B C2B 1_555 1_555
C3B O8B 1_555 1_555
C4B C3B 1_555 1_555
H6B C4B 1_555 1_555
H7B C4B 1_555 1_555
C5B O5B 1_555 1_555
C6B O6B 1_555 1_555
O5 Zn2_2 1_555 1_555
C2 C3 1_555 1_555
C3 C6 1_555 1_555
O3B C1B 1_555 1_555
C2B C3B 1_555 1_555
C3B C6B 1_555 1_555
C4B C5B 1_555 1_555

#END
