
#######################################################################
#
#                 Cambridge Crystallographic Data Centre
#                                CCDC 
#
#######################################################################
#
# If this CIF has been generated from an entry in the Cambridge 
# Structural Database, then it will include bibliographic, chemical, 
# crystal, experimental, refinement or atomic coordinate data resulting 
# from the CCDC's data processing and validation procedures.
#
#######################################################################

data_VAVFEE
_symmetry_cell_setting           triclinic
_symmetry_space_group_name_H-M   'P -1'
_symmetry_Int_Tables_number      2
_space_group_name_Hall           '-P 1'
loop_
_symmetry_equiv_pos_site_id
_symmetry_equiv_pos_as_xyz
1 x,y,z
2 -x,-y,-z
_cell_length_a                   8.2460(10)
_cell_length_b                   13.463(2)
_cell_length_c                   14.073(2)
_cell_angle_alpha                104.290(10)
_cell_angle_beta                 105.070(10)
_cell_angle_gamma                93.610(10)
_cell_volume                     1448.36
loop_
_atom_site_label
_atom_site_type_symbol
_atom_site_fract_x
_atom_site_fract_y
_atom_site_fract_z
La1 La 0.23016(3) 0.721775(17) 0.513517(15)
La2 La 0.73584(3) 0.769893(17) 0.511469(15)
O1 O 0.1782(4) 0.8194(3) 0.3732(2)
O2 O 0.4463(4) 0.8123(2) 0.4396(2)
C1 C 0.3257(5) 0.8231(3) 0.3665(3)
C2 C 0.3658(6) 0.8405(4) 0.2734(3)
H1 H 0.3862 0.9144 0.2818
H2 H 0.4691 0.8121 0.2676
C3 C 0.2270(6) 0.7923(4) 0.1765(3)
H3 H 0.1313 0.8307 0.1767
H4 H 0.1900 0.7222 0.1759
C4 C 0.2754(6) 0.7886(5) 0.0794(3)
H5 H 0.3719 0.7509 0.0791
H6 H 0.3100 0.8586 0.0788
C5 C 0.1331(6) 0.7378(5) -0.0167(3)
H7 H 0.0995 0.6679 -0.0154
H8 H 0.0366 0.7751 -0.0149
C6 C 0.1719(6) 0.7324(5) -0.1164(3)
H9 H 0.2091 0.8018 -0.1177
H10 H 0.2645 0.6921 -0.1205
C7 C 0.0228(6) 0.6850(4) -0.2084(3)
H11 H -0.0744 0.7184 -0.1979
H12 H -0.0028 0.6127 -0.2118
C8 C 0.0423(6) 0.6909(3) -0.3106(3)
O3 O -0.0892(4) 0.6698(3) -0.3853(2)
O4 O 0.1867(4) 0.7162(3) -0.3168(2)
O5 O 0.5300(3) 0.7435(2) 0.6213(2)
O6 O 0.7468(4) 0.8654(3) 0.6957(2)
C9 C 0.6229(5) 0.8121(3) 0.7003(3)
C10 C 0.5800(6) 0.8238(4) 0.7993(3)
H13 H 0.5526 0.7553 0.8061
H14 H 0.4786 0.8573 0.7953
C11 C 0.7138(6) 0.8837(5) 0.8945(3)
H15 H 0.7415 0.9527 0.8887
H16 H 0.8154 0.8504 0.8996
C12 C 0.6629(6) 0.8929(4) 0.9909(3)
H17 H 0.5691 0.9332 0.9886
H18 H 0.6216 0.8242 0.9919
C13 C 0.7988(7) 0.9414(5) 1.0892(4)
H19 H 0.8885 0.8980 1.0944
H20 H 0.8467 1.0078 1.0861
C14 C 0.7437(6) 0.9577(5) 1.1836(4)
H21 H 0.6868 0.8925 1.1839
H22 H 0.6615 1.0062 1.1814
C15 C 0.8853(6) 0.9982(4) 1.2831(3)
H23 H 0.9164 0.9403 1.3102
H24 H 0.9836 1.0267 1.2679
C16 C 0.8446(5) 1.0790(3) 1.3644(3)
O7 O 0.6953(4) 1.0863(2) 1.3677(2)
O8 O 0.9664(3) 1.1417(2) 1.4326(2)
O9 O -0.2637(4) 0.7439(3) 0.3237(2)
O10 O -0.0711(3) 0.6670(2) 0.4070(2)
C17 C -0.1608(5) 0.6799(3) 0.3238(3)
C18 C -0.1443(6) 0.6130(4) 0.2250(3)
H25 H -0.1819 0.5417 0.2202
H26 H -0.0250 0.6180 0.2282
C19 C -0.2397(6) 0.6366(4) 0.1281(3)
H27 H -0.1924 0.7043 0.1277
H28 H -0.3571 0.6396 0.1277
C20 C -0.2339(7) 0.5579(4) 0.0318(3)
H29 H -0.2829 0.4906 0.0321
H30 H -0.1163 0.5540 0.0333
C21 C -0.3263(6) 0.5806(4) -0.0675(3)
H31 H -0.4431 0.5870 -0.0682
H32 H -0.2745 0.6466 -0.0694
C22 C -0.3244(6) 0.4987(4) -0.1627(3)
H33 H -0.2076 0.4927 -0.1621
H34 H -0.3753 0.4327 -0.1605
C23 C -0.4168(6) 0.5203(4) -0.2614(3)
H35 H -0.3621 0.5842 -0.2659
H36 H -0.5322 0.5298 -0.2609
C24 C -0.4203(5) 0.4340(3) -0.3547(3)
O11 O -0.5610(4) 0.4006(3) -0.4233(3)
O12 O -0.2839(4) 0.4009(3) -0.3607(3)
O13 O 0.1976(7) 0.5355(3) 0.5239(4)
O14 O 0.7398(6) 0.9594(3) 0.5089(3)
H37 H 0.243(10) 0.520(6) 0.558(6)
H38 H 0.149(11) 0.486(7) 0.484(7)
H39 H 0.694(7) 0.976(4) 0.467(4)
H40 H 0.802(8) 1.010(5) 0.544(5)
La1_2 La 0.23016(3) 0.721775(17) -0.486483(15)
La1A La 0.76984(3) 1.278225(17) 1.486483(15)
La1A_2 La -0.23016(3) 0.278225(17) -0.513517(15)
La2_2 La -0.26416(3) 0.769893(17) -0.488531(15)
La2A La 1.26416(3) 1.230107(17) 1.488531(15)
La2_3 La -0.26416(3) 0.769893(17) 0.511469(15)
La2A_2 La -0.73584(3) 0.230107(17) -0.511469(15)
O3_2 O 0.9108(4) 0.6698(3) 0.6147(2)
O4_2 O 0.1867(4) 0.7162(3) 0.6832(2)
O7A O 0.3047(4) 0.9137(2) 0.6323(2)
O8A O 0.0336(3) 0.8583(2) 0.5674(2)
O8A_2 O 1.0336(3) 0.8583(2) 0.5674(2)
O9_2 O 0.7363(4) 0.7439(3) 0.3237(2)
O10_2 O 0.9289(3) 0.6670(2) 0.4070(2)
O11A O 0.5610(4) 0.5994(3) 0.4233(3)
O12A O 0.2839(4) 0.5991(3) 0.3607(3)
loop_
_geom_bond_atom_site_label_1
_geom_bond_atom_site_label_2
_geom_bond_site_symmetry_1
_geom_bond_site_symmetry_2
La1 O1 1_555 1_555
La2 O2 1_555 1_555
O1 C1 1_555 1_555
O2 La1 1_555 1_555
C1 O2 1_555 1_555
C2 C1 1_555 1_555
H1 C2 1_555 1_555
H2 C2 1_555 1_555
C3 C2 1_555 1_555
H3 C3 1_555 1_555
H4 C3 1_555 1_555
C4 C3 1_555 1_555
H5 C4 1_555 1_555
H6 C4 1_555 1_555
C5 C4 1_555 1_555
H7 C5 1_555 1_555
H8 C5 1_555 1_555
C6 C5 1_555 1_555
H9 C6 1_555 1_555
H10 C6 1_555 1_555
C7 C6 1_555 1_555
H11 C7 1_555 1_555
H12 C7 1_555 1_555
C8 C7 1_555 1_555
O3 C8 1_555 1_555
O4 C8 1_555 1_555
O5 La1 1_555 1_555
O6 La2 1_555 1_555
C9 O5 1_555 1_555
C10 C9 1_555 1_555
H13 C10 1_555 1_555
H14 C10 1_555 1_555
C11 C10 1_555 1_555
H15 C11 1_555 1_555
H16 C11 1_555 1_555
C12 C11 1_555 1_555
H17 C12 1_555 1_555
H18 C12 1_555 1_555
C13 C12 1_555 1_555
H19 C13 1_555 1_555
H20 C13 1_555 1_555
C14 C13 1_555 1_555
H21 C14 1_555 1_555
H22 C14 1_555 1_555
C15 C14 1_555 1_555
H23 C15 1_555 1_555
H24 C15 1_555 1_555
C16 C15 1_555 1_555
O7 C16 1_555 1_555
O8 C16 1_555 1_555
O9 C17 1_555 1_555
O10 La1 1_555 1_555
C17 O10 1_555 1_555
C18 C17 1_555 1_555
H25 C18 1_555 1_555
H26 C18 1_555 1_555
C19 C18 1_555 1_555
H27 C19 1_555 1_555
H28 C19 1_555 1_555
C20 C19 1_555 1_555
H29 C20 1_555 1_555
H30 C20 1_555 1_555
C21 C20 1_555 1_555
H31 C21 1_555 1_555
H32 C21 1_555 1_555
C22 C21 1_555 1_555
H33 C22 1_555 1_555
H34 C22 1_555 1_555
C23 C22 1_555 1_555
H35 C23 1_555 1_555
H36 C23 1_555 1_555
C24 C23 1_555 1_555
O11 C24 1_555 1_555
O12 C24 1_555 1_555
O13 La1 1_555 1_555
O14 La2 1_555 1_555
H37 O13 1_555 1_555
H38 O13 1_555 1_555
H39 O14 1_555 1_555
H40 O14 1_555 1_555
La1_2 O4 1_555 1_555
La1A O7 1_555 1_555
La1A_2 O12 1_555 1_555
La2_2 O3 1_555 1_555
La2A O8 1_555 1_555
La2_3 O9 1_555 1_555
La2A_2 O11 1_555 1_555
O3_2 La2 1_555 1_555
O4_2 La1 1_555 1_555
O7A La1 1_555 1_555
O8A La1 1_555 1_555
O8A_2 La2 1_555 1_555
O9_2 La2 1_555 1_555
O10_2 La2 1_555 1_555
O11A La2 1_555 1_555
O12A La1 1_555 1_555
La2 O5 1_555 1_555
O6 C9 1_555 1_555
O8 La1A 1_555 1_555
O10 La2_3 1_555 1_555
La2_3 O8A 1_555 1_555

#END
