
#######################################################################
#
#                 Cambridge Crystallographic Data Centre
#                                CCDC 
#
#######################################################################
#
# If this CIF has been generated from an entry in the Cambridge 
# Structural Database, then it will include bibliographic, chemical, 
# crystal, experimental, refinement or atomic coordinate data resulting 
# from the CCDC's data processing and validation procedures.
#
#######################################################################

data_VAVFUU04
_symmetry_cell_setting           triclinic
_symmetry_space_group_name_H-M   'P -1'
_symmetry_Int_Tables_number      2
_space_group_name_Hall           '-P 1'
loop_
_symmetry_equiv_pos_site_id
_symmetry_equiv_pos_as_xyz
1 x,y,z
2 -x,-y,-z
_cell_length_a                   6.4633(13)
_cell_length_b                   7.3145(15)
_cell_length_c                   9.6962(19)
_cell_angle_alpha                85.20(3)
_cell_angle_beta                 77.32(3)
_cell_angle_gamma                81.02(3)
_cell_volume                     441.153
loop_
_atom_site_label
_atom_site_type_symbol
_atom_site_fract_x
_atom_site_fract_y
_atom_site_fract_z
Zn1 Zn -0.06849(4) -0.21371(4) 0.82805(3)
O1 O -0.2048(3) 0.0517(3) 0.81320(19)
O2 O 0.1832(4) -0.1958(3) 0.9151(2)
C1 C -0.3301(4) 0.0661(3) 0.7285(2)
O3 O -0.3737(4) -0.0738(3) 0.6796(2)
C2 C -0.4232(4) 0.2625(3) 0.6819(2)
Zn2 Zn -0.5000 0.0000 0.5000
O4 O -0.5954(3) 0.2464(3) 0.61151(17)
C3 C -0.2524(4) 0.3529(4) 0.5762(2)
H1 H -0.1308 0.3525 0.6197
H2 H -0.3098 0.4813 0.5586
C4 C -0.5116(4) 0.3842(4) 0.8085(2)
H3 H -0.3972 0.3934 0.8566
H4 H -0.5633 0.5079 0.7750
C5 C -0.6926(4) 0.3062(4) 0.9122(3)
O5 O -0.7925(4) 0.1980(5) 0.8701(2)
O6 O -0.7314(3) 0.3509(3) 1.03861(19)
C6 C -0.1719(4) 0.2639(4) 0.4341(2)
O7 O -0.0460(3) 0.3519(3) 0.34286(19)
O8 O -0.2250(3) 0.1142(3) 0.4086(2)
H5 H 0.215(7) -0.086(6) 0.886(5)
H6 H 0.160(7) -0.205(6) 0.989(4)
Zn1A Zn -0.93151(4) 0.21371(4) 0.17195(3)
Zn1A_2 Zn -0.93151(4) 0.21371(4) 1.17195(3)
Zn1A_3 Zn 0.06849(4) 0.21371(4) 0.17195(3)
Zn1_2 Zn -0.06849(4) -0.21371(4) -0.17195(3)
Zn1_3 Zn -1.06849(4) -0.21371(4) 0.82805(3)
O1A O -0.7952(3) -0.0517(3) 0.18680(19)
O2A O -1.1832(4) 0.1958(3) 0.0849(2)
C1A C -0.6699(4) -0.0661(3) 0.2715(2)
O3A O -0.6263(4) 0.0738(3) 0.3204(2)
C2A C -0.5768(4) -0.2625(3) 0.3181(2)
O4A O -0.4046(3) -0.2464(3) 0.38849(17)
C3A C -0.7476(4) -0.3529(4) 0.4238(2)
H1A H -0.8692 -0.3525 0.3803
H2A H -0.6902 -0.4813 0.4414
C4A C -0.4884(4) -0.3842(4) 0.1915(2)
H3A H -0.6028 -0.3934 0.1434
H4A H -0.4367 -0.5079 0.2250
C5A C -0.3074(4) -0.3062(4) 0.0878(3)
O5A O -0.2075(4) -0.1980(5) 0.1299(2)
O6A O -0.2686(3) -0.3509(3) -0.03861(19)
O6A_2 O -0.2686(3) -0.3509(3) 0.96139(19)
O6_2 O -0.7314(3) 0.3509(3) 0.03861(19)
C6A C -0.8281(4) -0.2639(4) 0.5659(2)
O7A O -0.9540(3) -0.3519(3) 0.65714(19)
O7A_2 O 0.0460(3) -0.3519(3) 0.65714(19)
O7_2 O -1.0460(3) 0.3519(3) 0.34286(19)
O8A O -0.7750(3) -0.1142(3) 0.5914(2)
H5A H -1.215(7) 0.086(6) 0.114(5)
H6A H -1.160(7) 0.205(6) 0.011(4)
loop_
_geom_bond_atom_site_label_1
_geom_bond_atom_site_label_2
_geom_bond_site_symmetry_1
_geom_bond_site_symmetry_2
Zn1 O1 1_555 1_555
O1 C1 1_555 1_555
O2 Zn1 1_555 1_555
C1 O3 1_555 1_555
O3 Zn2 1_555 1_555
C2 C1 1_555 1_555
Zn2 O4 1_555 1_555
O4 C2 1_555 1_555
C3 C2 1_555 1_555
H1 C3 1_555 1_555
H2 C3 1_555 1_555
C4 C2 1_555 1_555
H3 C4 1_555 1_555
H4 C4 1_555 1_555
C5 C4 1_555 1_555
O5 C5 1_555 1_555
O6 C5 1_555 1_555
C6 C3 1_555 1_555
O7 C6 1_555 1_555
O8 Zn2 1_555 1_555
H5 O2 1_555 1_555
H6 O2 1_555 1_555
Zn1A O1A 1_555 1_555
Zn1A_2 O6 1_555 1_555
Zn1A_3 O7 1_555 1_555
Zn1_2 O6A 1_555 1_555
Zn1_3 O7A 1_555 1_555
O1A C1A 1_555 1_555
O2A Zn1A 1_555 1_555
C1A O3A 1_555 1_555
O3A Zn2 1_555 1_555
C2A C1A 1_555 1_555
O4A Zn2 1_555 1_555
C3A C2A 1_555 1_555
H1A C3A 1_555 1_555
H2A C3A 1_555 1_555
C4A C2A 1_555 1_555
H3A C4A 1_555 1_555
H4A C4A 1_555 1_555
C5A C4A 1_555 1_555
O5A C5A 1_555 1_555
O6A C5A 1_555 1_555
O6A_2 Zn1 1_555 1_555
O6_2 Zn1A 1_555 1_555
C6A C3A 1_555 1_555
O7A C6A 1_555 1_555
O7A_2 Zn1 1_555 1_555
O7_2 Zn1A 1_555 1_555
O8A Zn2 1_555 1_555
H5A O2A 1_555 1_555
H6A O2A 1_555 1_555
C6 O8 1_555 1_555
C2A O4A 1_555 1_555
C6A O8A 1_555 1_555

#END
