
#######################################################################
#
#                 Cambridge Crystallographic Data Centre
#                                CCDC 
#
#######################################################################
#
# If this CIF has been generated from an entry in the Cambridge 
# Structural Database, then it will include bibliographic, chemical, 
# crystal, experimental, refinement or atomic coordinate data resulting 
# from the CCDC's data processing and validation procedures.
#
#######################################################################

data_VAVFUU03
_symmetry_cell_setting           triclinic
_symmetry_space_group_name_H-M   'P -1'
_symmetry_Int_Tables_number      2
_space_group_name_Hall           '-P 1'
loop_
_symmetry_equiv_pos_site_id
_symmetry_equiv_pos_as_xyz
1 x,y,z
2 -x,-y,-z
_cell_length_a                   6.4649(13)
_cell_length_b                   7.2666(15)
_cell_length_c                   9.6951(19)
_cell_angle_alpha                85.27(3)
_cell_angle_beta                 77.31(3)
_cell_angle_gamma                80.99(3)
_cell_volume                     438.301
loop_
_atom_site_label
_atom_site_type_symbol
_atom_site_fract_x
_atom_site_fract_y
_atom_site_fract_z
Zn1 Zn 0.0000 0.0000 0.0000
Zn2 Zn -0.43151(4) 0.21372(4) 0.67195(3)
C1 C -0.1926(4) 0.3065(4) 0.4125(2)
C2 C -0.0112(4) 0.3838(3) 0.3087(2)
H1 H 0.1033 0.3924 0.3569
H2 H -0.0624 0.5087 0.2756
C3 C 0.0768(3) 0.2625(3) 0.1818(2)
C4 C 0.2481(4) 0.3533(3) 0.0755(2)
H3 H 0.1908 0.4827 0.0582
H4 H 0.3698 0.3527 0.1189
C5 C 0.3282(4) 0.2647(3) -0.0660(2)
C6 C 0.1701(4) 0.0658(3) 0.2287(2)
O1 O -0.2934(4) 0.1977(5) 0.3701(2)
O2 O -0.2314(3) 0.3509(3) 0.53876(18)
O3 O 0.2747(3) 0.1149(3) -0.09162(18)
O4 O 0.4538(3) 0.3523(3) -0.15702(18)
O5 O 0.2952(3) 0.0518(3) 0.31332(18)
O6 O 0.1257(3) -0.0737(2) 0.17968(19)
O7 O -0.0943(3) 0.2466(2) 0.11071(17)
O8 O -0.6828(3) 0.1961(3) 0.58475(19)
H5 H -0.7285 0.0927 0.6115
H6 H -0.6486 0.2004 0.4949
H7 H -0.191(6) 0.237(5) 0.173(4)
Zn2A Zn 0.43151(4) -0.21372(4) 0.32805(3)
Zn2A_2 Zn -0.56849(4) -0.21372(4) 0.32805(3)
Zn2_2 Zn -0.43151(4) 0.21372(4) -0.32805(3)
Zn2_3 Zn 0.56849(4) 0.21372(4) -0.32805(3)
Zn2A_3 Zn 0.43151(4) -0.21372(4) -0.67195(3)
C1A C 0.1926(4) -0.3065(4) -0.4125(2)
C2A C 0.0112(4) -0.3838(3) -0.3087(2)
H1A H -0.1033 -0.3924 -0.3569
H2A H 0.0624 -0.5087 -0.2756
C3A C -0.0768(3) -0.2625(3) -0.1818(2)
C4A C -0.2481(4) -0.3533(3) -0.0755(2)
H3A H -0.1908 -0.4827 -0.0582
H4A H -0.3698 -0.3527 -0.1189
C5A C -0.3282(4) -0.2647(3) 0.0660(2)
C6A C -0.1701(4) -0.0658(3) -0.2287(2)
O1A O 0.2934(4) -0.1977(5) -0.3701(2)
O2A O 0.2314(3) -0.3509(3) -0.53876(18)
O3A O -0.2747(3) -0.1149(3) 0.09162(18)
O3_2 O -0.7253(3) 0.1149(3) 0.90838(18)
O3A_2 O 0.7253(3) -0.1149(3) -0.90838(18)
O4A O -0.4538(3) -0.3523(3) 0.15702(18)
O4_2 O -0.5462(3) 0.3523(3) 0.84298(18)
O4A_2 O 0.5462(3) -0.3523(3) -0.84298(18)
O5A O -0.2952(3) -0.0518(3) -0.31332(18)
O5A_2 O -0.2952(3) -0.0518(3) 0.68668(18)
O5_2 O 0.2952(3) 0.0518(3) -0.68668(18)
O6A O -0.1257(3) 0.0737(2) -0.17968(19)
O6A_2 O -0.1257(3) 0.0737(2) 0.82032(19)
O6_2 O 0.1257(3) -0.0737(2) -0.82032(19)
O7A O 0.0943(3) -0.2466(2) -0.11071(17)
O8A O 0.6828(3) -0.1961(3) -0.58475(19)
H5A H 0.7285 -0.0927 -0.6115
H6A H 0.6486 -0.2004 -0.4949
H7A H 0.191(6) -0.237(5) -0.173(4)
loop_
_geom_bond_atom_site_label_1
_geom_bond_atom_site_label_2
_geom_bond_site_symmetry_1
_geom_bond_site_symmetry_2
Zn1 O3 1_555 1_555
Zn2 O2 1_555 1_555
C1 C2 1_555 1_555
C2 H1 1_555 1_555
H2 C2 1_555 1_555
C3 C2 1_555 1_555
C4 C3 1_555 1_555
H3 C4 1_555 1_555
H4 C4 1_555 1_555
C5 C4 1_555 1_555
C6 C3 1_555 1_555
O1 C1 1_555 1_555
O2 C1 1_555 1_555
O3 C5 1_555 1_555
O4 C5 1_555 1_555
O5 C6 1_555 1_555
O6 Zn1 1_555 1_555
O7 Zn1 1_555 1_555
O8 Zn2 1_555 1_555
H5 O8 1_555 1_555
H6 O8 1_555 1_555
H7 O7 1_555 1_555
Zn2A O5 1_555 1_555
Zn2A_2 O3A 1_555 1_555
Zn2_2 O5A 1_555 1_555
Zn2_3 O3 1_555 1_555
Zn2A_3 O2A 1_555 1_555
C1A C2A 1_555 1_555
C2A H1A 1_555 1_555
H2A C2A 1_555 1_555
C3A C2A 1_555 1_555
C4A C3A 1_555 1_555
H3A C4A 1_555 1_555
H4A C4A 1_555 1_555
C5A C4A 1_555 1_555
C6A C3A 1_555 1_555
O1A C1A 1_555 1_555
O2A C1A 1_555 1_555
O3A Zn1 1_555 1_555
O3_2 Zn2 1_555 1_555
O3A_2 Zn2A_3 1_555 1_555
O4A Zn2A_2 1_555 1_555
O4_2 Zn2 1_555 1_555
O4A_2 Zn2A_3 1_555 1_555
O5A C6A 1_555 1_555
O5A_2 Zn2 1_555 1_555
O5_2 Zn2A_3 1_555 1_555
O6A Zn1 1_555 1_555
O6A_2 Zn2 1_555 1_555
O6_2 Zn2A_3 1_555 1_555
O7A Zn1 1_555 1_555
O8A Zn2A_3 1_555 1_555
H5A O8A 1_555 1_555
H6A O8A 1_555 1_555
H7A O7A 1_555 1_555
C3 O7 1_555 1_555
C6 O6 1_555 1_555
O4 Zn2_3 1_555 1_555
O6 Zn2A 1_555 1_555
Zn2_2 O6A 1_555 1_555
C3A O7A 1_555 1_555
C5A O3A 1_555 1_555
C5A O4A 1_555 1_555
C6A O6A 1_555 1_555

#END
