
#######################################################################
#
#                 Cambridge Crystallographic Data Centre
#                                CCDC 
#
#######################################################################
#
# If this CIF has been generated from an entry in the Cambridge 
# Structural Database, then it will include bibliographic, chemical, 
# crystal, experimental, refinement or atomic coordinate data resulting 
# from the CCDC's data processing and validation procedures.
#
#######################################################################

data_VAVFUU02
_symmetry_cell_setting           monoclinic
_symmetry_space_group_name_H-M   'P 21/c'
_symmetry_Int_Tables_number      14
_space_group_name_Hall           '-P 2ybc'
loop_
_symmetry_equiv_pos_site_id
_symmetry_equiv_pos_as_xyz
1 x,y,z
2 -x,1/2+y,1/2-z
3 -x,-y,-z
4 x,1/2-y,1/2+z
_cell_length_a                   6.1073(5)
_cell_length_b                   15.3132(12)
_cell_length_c                   9.7858(8)
_cell_angle_alpha                90
_cell_angle_beta                 102.7910(10)
_cell_angle_gamma                90
_cell_volume                     892.479
loop_
_atom_site_label
_atom_site_type_symbol
_atom_site_fract_x
_atom_site_fract_y
_atom_site_fract_z
Zn1 Zn 0.5000 0.0000 1.0000
Zn2 Zn 0.11561(9) 0.09674(4) 0.31681(6)
O1 O -0.1974(13) 0.0915(4) 0.4010(8)
H1 H -0.2908 0.0542 0.3686
H2 H -0.1748 0.0841 0.4860
O2 O 0.3216(12) 0.0872(4) 0.5521(7)
O3 O 0.3258(10) 0.2105(4) 0.4410(7)
O4 O 0.4296(10) 0.1275(4) 0.8697(6)
H3 H 0.3866 0.1764 0.8859
O5 O 0.8310(11) 0.0722(5) 1.0802(7)
O6 O 1.0418(12) 0.1871(5) 1.1333(7)
O7 O 0.8360(11) 0.0532(4) 0.6858(6)
O8 O 0.6177(11) -0.0177(4) 0.7974(7)
C1 C 0.3868(13) 0.1633(5) 0.5492(8)
C2 C 0.5471(15) 0.2027(5) 0.6762(9)
H4 H 0.4776 0.2546 0.7046
H5 H 0.6825 0.2210 0.6478
C3 C 0.6146(12) 0.1423(6) 0.8041(8)
C4 C 0.8172(15) 0.1853(6) 0.9036(9)
H6 H 0.9423 0.1854 0.8574
H7 H 0.7793 0.2458 0.9168
C5 C 0.8961(12) 0.1437(5) 1.0478(8)
C6 C 0.6918(13) 0.0533(5) 0.7569(8)
Zn2B Zn 0.88439(9) -0.09674(4) 1.68319(6)
Zn2_2 Zn 1.11561(9) 0.09674(4) 1.31681(6)
Zn2B_2 Zn 0.88439(9) -0.09674(4) 0.68319(6)
Zn2B_3 Zn -0.11561(9) -0.09674(4) 0.68319(6)
Zn2_3 Zn 0.11561(9) 0.09674(4) 1.31681(6)
O1B O 1.1974(13) -0.0915(4) 1.5990(8)
H1B H 1.2908 -0.0542 1.6314
H2B H 1.1748 -0.0841 1.5140
O2B O 0.6784(12) -0.0872(4) 1.4479(7)
O3B O 0.6742(10) -0.2105(4) 1.5590(7)
O4B O 0.5704(10) -0.1275(4) 1.1303(6)
H3B H 0.6134 -0.1764 1.1141
O5B O 0.1690(11) -0.0722(5) 0.9198(7)
O6B O -0.0418(12) -0.1871(5) 0.8667(7)
O6_2 O 0.0418(12) 0.1871(5) 0.1333(7)
O6B_2 O 0.9582(12) -0.1871(5) 1.8667(7)
O7B O 0.1640(11) -0.0532(4) 1.3142(6)
O7B_2 O 0.1640(11) -0.0532(4) 0.3142(6)
O7_2 O 0.8360(11) 0.0532(4) 1.6858(6)
O8B O 0.3823(11) 0.0177(4) 1.2026(7)
O8B_2 O 0.3823(11) 0.0177(4) 0.2026(7)
O8_2 O 0.6177(11) -0.0177(4) 1.7974(7)
C1B C 0.6132(13) -0.1633(5) 1.4508(8)
C2B C 0.4529(15) -0.2027(5) 1.3238(9)
H4B H 0.5224 -0.2546 1.2954
H5B H 0.3175 -0.2210 1.3522
C3B C 0.3854(12) -0.1423(6) 1.1959(8)
C4B C 0.1828(15) -0.1853(6) 1.0964(9)
H6B H 0.0577 -0.1854 1.1426
H7B H 0.2207 -0.2458 1.0832
C5B C 0.1039(12) -0.1437(5) 0.9522(8)
C6B C 0.3082(13) -0.0533(5) 1.2431(8)
loop_
_geom_bond_atom_site_label_1
_geom_bond_atom_site_label_2
_geom_bond_site_symmetry_1
_geom_bond_site_symmetry_2
Zn1 O4 1_555 1_555
Zn2 O1 1_555 1_555
O1 H1 1_555 1_555
H2 O1 1_555 1_555
O2 Zn2 1_555 1_555
O3 Zn2 1_555 1_555
O4 H3 1_555 1_555
O5 Zn1 1_555 1_555
O6 C5 1_555 1_555
O7 C6 1_555 1_555
O8 Zn1 1_555 1_555
C1 O2 1_555 1_555
C2 C1 1_555 1_555
H4 C2 1_555 1_555
H5 C2 1_555 1_555
C3 O4 1_555 1_555
C4 C3 1_555 1_555
H6 C4 1_555 1_555
H7 C4 1_555 1_555
C5 O5 1_555 1_555
C6 O8 1_555 1_555
Zn2B O1B 1_555 1_555
Zn2_2 O6 1_555 1_555
Zn2B_2 O7 1_555 1_555
Zn2B_3 O6B 1_555 1_555
Zn2_3 O7B 1_555 1_555
O1B H1B 1_555 1_555
H2B O1B 1_555 1_555
O2B Zn2B 1_555 1_555
O3B Zn2B 1_555 1_555
O4B Zn1 1_555 1_555
H3B O4B 1_555 1_555
O5B Zn1 1_555 1_555
O6B C5B 1_555 1_555
O6_2 Zn2 1_555 1_555
O6B_2 Zn2B 1_555 1_555
O7B C6B 1_555 1_555
O7B_2 Zn2 1_555 1_555
O7_2 Zn2B 1_555 1_555
O8B Zn1 1_555 1_555
O8B_2 Zn2 1_555 1_555
O8_2 Zn2B 1_555 1_555
C1B O2B 1_555 1_555
C2B C1B 1_555 1_555
H4B C2B 1_555 1_555
H5B C2B 1_555 1_555
C3B O4B 1_555 1_555
C4B C3B 1_555 1_555
H6B C4B 1_555 1_555
H7B C4B 1_555 1_555
C5B O5B 1_555 1_555
C6B O8B 1_555 1_555
O3 C1 1_555 1_555
O8 Zn2B_2 1_555 1_555
C2 C3 1_555 1_555
C3 C6 1_555 1_555
C4 C5 1_555 1_555
Zn2_3 O8B 1_555 1_555
O3B C1B 1_555 1_555
C2B C3B 1_555 1_555
C3B C6B 1_555 1_555
C4B C5B 1_555 1_555

#END
