
#######################################################################
#
#                 Cambridge Crystallographic Data Centre
#                                CCDC 
#
#######################################################################
#
# If this CIF has been generated from an entry in the Cambridge 
# Structural Database, then it will include bibliographic, chemical, 
# crystal, experimental, refinement or atomic coordinate data resulting 
# from the CCDC's data processing and validation procedures.
#
#######################################################################

data_VAVGOQ
_symmetry_cell_setting           orthorhombic
_symmetry_space_group_name_H-M   'P b c a'
_symmetry_Int_Tables_number      61
_space_group_name_Hall           '-P 2ac 2ab'
loop_
_symmetry_equiv_pos_site_id
_symmetry_equiv_pos_as_xyz
1 x,y,z
2 1/2-x,-y,1/2+z
3 -x,1/2+y,1/2-z
4 1/2+x,1/2-y,-z
5 -x,-y,-z
6 1/2+x,y,1/2-z
7 x,1/2-y,1/2+z
8 1/2-x,1/2+y,z
_cell_length_a                   14.440(3)
_cell_length_b                   8.9377(18)
_cell_length_c                   26.930(5)
_cell_angle_alpha                90
_cell_angle_beta                 90
_cell_angle_gamma                90
_cell_volume                     3475.6
loop_
_atom_site_label
_atom_site_type_symbol
_atom_site_fract_x
_atom_site_fract_y
_atom_site_fract_z
Co1 Co 0.19840(5) 0.11633(6) 0.36429(2)
S1 S 0.37794(9) 0.28186(12) 0.36357(4)
O1 O 0.3324(2) 0.1343(3) 0.37433(12)
O2 O 0.4193(3) 0.2780(4) 0.31480(13)
O3 O 0.4428(3) 0.3168(4) 0.40249(14)
O4 O 0.2987(2) 0.3936(3) 0.36443(11)
N1 N 0.1366(3) 0.1979(4) 0.42475(14)
N2 N 0.1097(3) 0.3441(4) 0.48944(13)
N3 N 0.1388(3) 1.1912(4) 0.72822(14)
N4 N 0.1582(3) 1.3204(4) 0.79684(14)
C1 C 0.1512(4) 0.3307(5) 0.44525(17)
H1 H 0.1862 0.4059 0.4306
C2 C 0.0825(4) 0.1224(6) 0.45868(19)
H2 H 0.0609 0.0251 0.4548
C3 C 0.0654(4) 0.2097(6) 0.4981(2)
H3 H 0.0305 0.1846 0.5259
C4 C 0.1139(3) 0.4685(5) 0.52292(16)
C5 C 0.1693(4) 0.5921(5) 0.51231(18)
H4 H 0.2023 0.5961 0.4827
C6 C 0.1752(4) 0.7077(5) 0.54557(18)
H5 H 0.2124 0.7894 0.5379
C7 C 0.1272(3) 0.7068(5) 0.59048(16)
C8 C 0.0697(4) 0.5842(5) 0.59933(18)
H6 H 0.0343 0.5821 0.6282
C9 C 0.0640(4) 0.4663(5) 0.56655(17)
H7 H 0.0263 0.3849 0.5739
C10 C 0.1338(3) 0.8315(5) 0.62626(17)
C11 C 0.1499(4) 0.9781(5) 0.61068(18)
H8 H 0.1587 0.9975 0.5771
C12 C 0.1530(4) 1.0950(5) 0.64411(17)
H9 H 0.1645 1.1919 0.6331
C13 C 0.1391(3) 1.0672(5) 0.69398(17)
C14 C 0.1245(4) 0.9238(5) 0.71101(18)
H10 H 0.1161 0.9057 0.7447
C15 C 0.1225(4) 0.8074(5) 0.67740(18)
H11 H 0.1135 0.7104 0.6889
C16 C 0.1667(4) 1.1882(5) 0.77574(18)
H12 H 0.1893 1.1035 0.7918
C17 C 0.1217(4) 1.4144(5) 0.76049(18)
H13 H 0.1077 1.5152 0.7646
C18 C 0.1100(4) 1.3346(5) 0.71823(19)
H14 H 0.0869 1.3700 0.6882
Co1F Co 0.19840(5) 1.38367(6) 0.86429(2)
Co1G Co 0.30160(5) 0.61633(6) 0.36429(2)
O4G O 0.2013(2) -0.1064(3) 0.36443(11)
N4F N 0.1582(3) 0.1796(4) 0.29684(14)
loop_
_geom_bond_atom_site_label_1
_geom_bond_atom_site_label_2
_geom_bond_site_symmetry_1
_geom_bond_site_symmetry_2
Co1 O1 1_555 1_555
S1 O1 1_555 1_555
O2 S1 1_555 1_555
O3 S1 1_555 1_555
O4 S1 1_555 1_555
N1 Co1 1_555 1_555
N2 C1 1_555 1_555
N3 C13 1_555 1_555
N4 C16 1_555 1_555
C1 N1 1_555 1_555
H1 C1 1_555 1_555
C2 N1 1_555 1_555
H2 C2 1_555 1_555
C3 N2 1_555 1_555
H3 C3 1_555 1_555
C4 N2 1_555 1_555
C5 C4 1_555 1_555
H4 C5 1_555 1_555
C6 C5 1_555 1_555
H5 C6 1_555 1_555
C7 C6 1_555 1_555
C8 C7 1_555 1_555
H6 C8 1_555 1_555
C9 C4 1_555 1_555
H7 C9 1_555 1_555
C10 C7 1_555 1_555
C11 C10 1_555 1_555
H8 C11 1_555 1_555
C12 C11 1_555 1_555
H9 C12 1_555 1_555
C13 C12 1_555 1_555
C14 C13 1_555 1_555
H10 C14 1_555 1_555
C15 C10 1_555 1_555
H11 C15 1_555 1_555
C16 N3 1_555 1_555
H12 C16 1_555 1_555
C17 N4 1_555 1_555
H13 C17 1_555 1_555
C18 N3 1_555 1_555
H14 C18 1_555 1_555
Co1F N4 1_555 1_555
Co1G O4 1_555 1_555
O4G Co1 1_555 1_555
N4F Co1 1_555 1_555
C2 C3 1_555 1_555
C8 C9 1_555 1_555
C14 C15 1_555 1_555
C17 C18 1_555 1_555

#END
