
#######################################################################
#
#                 Cambridge Crystallographic Data Centre
#                                CCDC 
#
#######################################################################
#
# If this CIF has been generated from an entry in the Cambridge 
# Structural Database, then it will include bibliographic, chemical, 
# crystal, experimental, refinement or atomic coordinate data resulting 
# from the CCDC's data processing and validation procedures.
#
#######################################################################

data_VAVGEG
_symmetry_cell_setting           monoclinic
_symmetry_space_group_name_H-M   'C 2/c'
_symmetry_Int_Tables_number      15
_space_group_name_Hall           '-C 2yn'
loop_
_symmetry_equiv_pos_site_id
_symmetry_equiv_pos_as_xyz
1 x,y,z
2 -x,y,1/2-z
3 1/2+x,1/2+y,z
4 1/2-x,1/2+y,1/2-z
5 -x,-y,-z
6 x,-y,1/2+z
7 1/2-x,1/2-y,-z
8 1/2+x,1/2-y,1/2+z
_cell_length_a                   13.173(3)
_cell_length_b                   15.204(3)
_cell_length_c                   11.556(2)
_cell_angle_alpha                90
_cell_angle_beta                 91.30(3)
_cell_angle_gamma                90
_cell_volume                     2313.87
loop_
_atom_site_label
_atom_site_type_symbol
_atom_site_fract_x
_atom_site_fract_y
_atom_site_fract_z
Zn1 Zn 0.5000 -0.09292(4) 0.2500
O1 O 0.4884(6) -0.2002(3) 0.1321(7)
O2 O 0.5740(4) -0.1079(5) 0.0687(5)
O3 O 0.5591(4) -0.2231(4) -0.0238(5)
N1 N 0.3808(2) -0.0221(2) 0.1914(3)
N2 N 0.2501(2) 0.0185(2) 0.0786(3)
N3 N 0.5414(3) -0.1734(3) 0.0611(3)
C1 C 0.3210(3) -0.0433(3) 0.1031(3)
H1 H 0.3269 -0.0954 0.0618
C2 C 0.3472(3) 0.0599(3) 0.2291(3)
C3 C 0.3832(3) 0.1139(3) 0.3186(3)
H2 H 0.4381 0.0971 0.3656
C4 C 0.3343(3) 0.1928(3) 0.3345(4)
H3 H 0.3569 0.2302 0.3934
C5 C 0.2516(3) 0.2182(3) 0.2642(4)
H4 H 0.2201 0.2718 0.2780
C6 C 0.2154(3) 0.1659(3) 0.1753(4)
H5 H 0.1604 0.1829 0.1288
C7 C 0.2650(3) 0.0867(3) 0.1585(3)
C8 C 0.1785(3) 0.0158(2) -0.0171(3)
C9 C 0.1652(3) 0.0894(3) -0.0860(4)
H6 H 0.2034 0.1398 -0.0715
C10 C 0.0948(3) 0.0877(3) -0.1765(3)
H7 H 0.0849 0.1378 -0.2214
C11 C 0.0380(3) 0.0119(2) -0.2018(3)
C12 C 0.0554(3) -0.0624(2) -0.1325(3)
H8 H 0.0203 -0.1142 -0.1490
C13 C 0.1242(3) -0.0602(3) -0.0396(3)
H9 H 0.1336 -0.1095 0.0071
Zn1_2 Zn -0.5000 -0.09292(4) -0.7500
O1A O 0.5116(6) -0.2002(3) 0.3679(7)
O2A O 0.4260(4) -0.1079(5) 0.4313(5)
O3A O 0.4409(4) -0.2231(4) 0.5238(5)
N1A N -0.3808(2) -0.0221(2) -0.6914(3)
N1A_2 N 0.6192(2) -0.0221(2) 0.3086(3)
N2A N -0.2501(2) 0.0185(2) -0.5786(3)
N3A N 0.4586(3) -0.1734(3) 0.4389(3)
C1A C -0.3210(3) -0.0433(3) -0.6031(3)
H1A H -0.3269 -0.0954 -0.5618
C2A C -0.3472(3) 0.0599(3) -0.7291(3)
C3A C -0.3832(3) 0.1139(3) -0.8186(3)
H2A H -0.4381 0.0971 -0.8656
C4A C -0.3343(3) 0.1928(3) -0.8345(4)
H3A H -0.3569 0.2302 -0.8934
C5A C -0.2516(3) 0.2182(3) -0.7642(4)
H4A H -0.2201 0.2718 -0.7780
C6A C -0.2154(3) 0.1659(3) -0.6753(4)
H5A H -0.1604 0.1829 -0.6288
C7A C -0.2650(3) 0.0867(3) -0.6585(3)
C8A C -0.1785(3) 0.0158(2) -0.4829(3)
C9A C -0.1652(3) 0.0894(3) -0.4140(4)
H6A H -0.2034 0.1398 -0.4285
C10A C -0.0948(3) 0.0877(3) -0.3235(3)
H7A H -0.0849 0.1378 -0.2786
C11A C -0.0380(3) 0.0119(2) -0.2982(3)
C12A C -0.0554(3) -0.0624(2) -0.3675(3)
H8A H -0.0203 -0.1142 -0.3510
C13A C -0.1242(3) -0.0602(3) -0.4604(3)
H9A H -0.1336 -0.1095 -0.5071
loop_
_geom_bond_atom_site_label_1
_geom_bond_atom_site_label_2
_geom_bond_site_symmetry_1
_geom_bond_site_symmetry_2
Zn1 O1 1_555 1_555
O1 N3 1_555 1_555
O2 Zn1 1_555 1_555
O3 N3 1_555 1_555
N1 Zn1 1_555 1_555
N2 C1 1_555 1_555
N3 O2 1_555 1_555
C1 N1 1_555 1_555
H1 C1 1_555 1_555
C2 N1 1_555 1_555
C3 C2 1_555 1_555
H2 C3 1_555 1_555
C4 C3 1_555 1_555
H3 C4 1_555 1_555
C5 C4 1_555 1_555
H4 C5 1_555 1_555
C6 C5 1_555 1_555
H5 C6 1_555 1_555
C7 N2 1_555 1_555
C8 N2 1_555 1_555
C9 C8 1_555 1_555
H6 C9 1_555 1_555
C10 C9 1_555 1_555
H7 C10 1_555 1_555
C11 C10 1_555 1_555
C12 C11 1_555 1_555
H8 C12 1_555 1_555
C13 C8 1_555 1_555
H9 C13 1_555 1_555
Zn1_2 N1A 1_555 1_555
O1A Zn1 1_555 1_555
O2A Zn1 1_555 1_555
O3A N3A 1_555 1_555
N1A C1A 1_555 1_555
N1A_2 Zn1 1_555 1_555
N2A C1A 1_555 1_555
N3A O1A 1_555 1_555
C1A H1A 1_555 1_555
C2A N1A 1_555 1_555
C3A C2A 1_555 1_555
H2A C3A 1_555 1_555
C4A C3A 1_555 1_555
H3A C4A 1_555 1_555
C5A C4A 1_555 1_555
H4A C5A 1_555 1_555
C6A C5A 1_555 1_555
H5A C6A 1_555 1_555
C7A N2A 1_555 1_555
C8A N2A 1_555 1_555
C9A C8A 1_555 1_555
H6A C9A 1_555 1_555
C10A C9A 1_555 1_555
H7A C10A 1_555 1_555
C11A C11 1_555 1_555
C12A C11A 1_555 1_555
H8A C12A 1_555 1_555
C13A C8A 1_555 1_555
H9A C13A 1_555 1_555
C2 C7 1_555 1_555
C6 C7 1_555 1_555
C12 C13 1_555 1_555
O2A N3A 1_555 1_555
C2A C7A 1_555 1_555
C6A C7A 1_555 1_555
C10A C11A 1_555 1_555
C12A C13A 1_555 1_555

#END
