
#######################################################################
#
#                 Cambridge Crystallographic Data Centre
#                                CCDC 
#
#######################################################################
#
# If this CIF has been generated from an entry in the Cambridge 
# Structural Database, then it will include bibliographic, chemical, 
# crystal, experimental, refinement or atomic coordinate data resulting 
# from the CCDC's data processing and validation procedures.
#
#######################################################################

data_VAVKAG
_symmetry_cell_setting           monoclinic
_symmetry_space_group_name_H-M   'P c'
_symmetry_Int_Tables_number      7
_space_group_name_Hall           'P -2yc'
loop_
_symmetry_equiv_pos_site_id
_symmetry_equiv_pos_as_xyz
1 x,y,z
2 x,-y,1/2+z
_cell_length_a                   8.2138(16)
_cell_length_b                   17.491(3)
_cell_length_c                   12.260(2)
_cell_angle_alpha                90
_cell_angle_beta                 90.234(4)
_cell_angle_gamma                90
_cell_volume                     1761.35
loop_
_atom_site_label
_atom_site_type_symbol
_atom_site_fract_x
_atom_site_fract_y
_atom_site_fract_z
Zn1 Zn 0.47620(5) 0.99043(3) 0.78028(4)
Zn2 Zn 0.58062(5) 0.47885(3) 0.21057(4)
C1 C 0.5679(6) 0.3730(3) 0.3653(4)
C2 C 0.5115(6) 0.3184(3) 0.4533(4)
H1 H 0.3945 0.3270 0.4682
H2 H 0.5730 0.3282 0.5215
C3 C 0.5376(7) 0.2362(3) 0.4176(4)
H3 H 0.4482 0.2209 0.3679
H4 H 0.6410 0.2327 0.3767
C4 C 0.5437(7) 0.1812(3) 0.5133(4)
H5 H 0.6431 0.1920 0.5566
H6 H 0.5537 0.1285 0.4845
C5 C 0.3978(6) 0.1841(3) 0.5890(4)
H7 H 0.3949 0.2350 0.6242
H8 H 0.2975 0.1788 0.5446
C6 C 0.3963(6) 0.1240(3) 0.6766(4)
C7 C 0.6416(6) 0.6252(2) 0.2747(4)
C8 C 0.5944(9) 0.6993(3) 0.3296(5)
H9 H 0.5550 0.7415 0.2886
C9 C 0.6118(8) 0.7035(3) 0.4485(5)
H10 H 0.7274 0.6949 0.4682
H11 H 0.5469 0.6621 0.4820
C10 C 0.5579(7) 0.7788(3) 0.4948(4)
H12 H 0.4417 0.7863 0.4758
H13 H 0.6203 0.8199 0.4585
C11 C 0.5765(8) 0.7883(3) 0.6159(5)
H14 H 0.6936 0.7852 0.6350
H15 H 0.5204 0.7455 0.6528
C12 C 0.5096(6) 0.8624(3) 0.6587(4)
C13 C -0.3026(7) 1.0219(2) 0.9752(4)
H16 H -0.3638 0.9918 1.0248
C14 C -0.2255(6) 1.0819(3) 0.8303(4)
H17 H -0.2235 1.1013 0.7579
C15 C -0.1120(6) 1.0936(3) 0.9061(4)
H18 H -0.0160 1.1233 0.8976
C16 C -0.0639(7) 1.0472(3) 1.0987(4)
H19 H -0.1376 1.0510 1.1621
H20 H 0.0170 1.0890 1.1040
C17 C 0.0221(7) 0.9713(3) 1.1007(4)
H21 H 0.1016 0.9711 1.1616
H22 H -0.0586 0.9305 1.1149
C18 C 0.2400(7) 0.9891(3) 0.9621(5)
H23 H 0.2959 1.0291 0.9988
C19 C 0.0622(6) 0.9016(3) 0.9242(5)
H24 H -0.0292 0.8684 0.9278
C20 C 0.1700(6) 0.9054(3) 0.8437(4)
H25 H 0.1687 0.8746 0.7800
C21 C 1.2822(6) 0.5665(3) 0.1529(4)
H26 H 1.2861 0.5894 0.2231
C22 C 1.3484(6) 0.4983(3) 0.0131(4)
H27 H 1.4042 0.4642 -0.0341
C23 C 1.1630(6) 0.5773(3) 0.0787(4)
H28 H 1.0682 0.6080 0.0864
C24 C 1.1133(6) 0.5276(3) -0.1118(4)
H29 H 1.1877 0.5310 -0.1750
H30 H 1.0363 0.5710 -0.1164
C25 C 1.0183(6) 0.4532(3) -0.1190(4)
H31 H 0.9368 0.4568 -0.1784
H32 H 1.0934 0.4107 -0.1361
C26 C 0.8023(6) 0.4723(3) 0.0238(5)
H33 H 0.7415 0.5105 -0.0134
C27 C 0.8850(6) 0.3931(2) 0.1458(4)
H34 H 0.8909 0.3647 0.2118
C28 C 0.9898(7) 0.3881(3) 0.0624(5)
H35 H 1.0831 0.3561 0.0588
O2 O 0.7101(4) 0.39384(19) 0.3640(3)
O4 O 0.4641(5) 0.39633(17) 0.2949(3)
O5 O 0.4751(5) 0.06261(18) 0.6574(3)
O7 O 0.3217(5) 0.1345(2) 0.7612(3)
O9 O 0.5950(5) 0.89916(17) 0.7271(3)
O11 O 0.3740(5) 0.88500(18) 0.6280(3)
O12 O 0.5765(4) 0.56506(17) 0.3137(3)
O13 O 0.7308(5) 0.62440(19) 0.1959(3)
N1 N 0.2830(5) 0.9605(2) 0.8668(4)
N2 N 0.1070(5) 0.9539(2) 0.9999(4)
N3 N -0.3464(5) 1.0371(2) 0.8740(3)
N4 N -0.1574(5) 1.0554(2) 0.9985(4)
N5 N 1.2081(5) 0.5342(2) -0.0115(4)
N6 N 1.3976(5) 0.51726(19) 0.1118(4)
N7 N 0.9368(5) 0.4379(2) -0.0168(3)
N8 N 0.7674(5) 0.4464(2) 0.1197(3)
Zn1_2 Zn -0.52380(5) 0.99043(3) 0.78028(4)
Zn1_3 Zn 0.47620(5) -0.00957(3) 0.78028(4)
Zn2_2 Zn 1.58062(5) 0.47885(3) 0.21057(4)
O5_2 O 0.4751(5) 1.06261(18) 0.6574(3)
N3_2 N 0.6536(5) 1.0371(2) 0.8740(3)
N6_2 N 0.3976(5) 0.51726(19) 0.1118(4)
O1 O 0.9266(5) 0.7479(3) 0.1515(4)
H36 H 0.9423 0.7422 0.0835
H37 H 0.8654 0.7118 0.1731
O3 O 0.1360(5) 0.7849(2) 0.5610(4)
H38 H 0.1448 0.7740 0.4937
H39 H 0.2116 0.8159 0.5780
O6 O 0.9568(5) 0.7134(2) -0.0696(4)
H40 H 1.0275 0.7129 -0.1200
H41 H 0.8815 0.6822 -0.0865
O8 O 0.1504(5) 0.2586(2) 0.8322(4)
H42 H 0.2112 0.2207 0.8176
H43 H 0.0787 0.2622 0.7823
O10 O 0.1804(5) 0.7056(2) 0.7582(4)
H44 H 0.2650 0.6777 0.7615
H45 H 0.1774 0.7272 0.6961
loop_
_geom_bond_atom_site_label_1
_geom_bond_atom_site_label_2
_geom_bond_site_symmetry_1
_geom_bond_site_symmetry_2
Zn1 O9 1_555 1_555
Zn2 O4 1_555 1_555
C1 C2 1_555 1_555
C2 H1 1_555 1_555
H2 C2 1_555 1_555
C3 C2 1_555 1_555
H3 C3 1_555 1_555
H4 C3 1_555 1_555
C4 C3 1_555 1_555
H5 C4 1_555 1_555
H6 C4 1_555 1_555
C5 C4 1_555 1_555
H7 C5 1_555 1_555
H8 C5 1_555 1_555
C6 C5 1_555 1_555
C7 C8 1_555 1_555
C8 H9 1_555 1_555
C9 C8 1_555 1_555
H10 C9 1_555 1_555
H11 C9 1_555 1_555
C10 C9 1_555 1_555
H12 C10 1_555 1_555
H13 C10 1_555 1_555
C11 C10 1_555 1_555
H14 C11 1_555 1_555
H15 C11 1_555 1_555
C12 C11 1_555 1_555
C13 H16 1_555 1_555
C14 H17 1_555 1_555
C15 C14 1_555 1_555
H18 C15 1_555 1_555
C16 H19 1_555 1_555
H20 C16 1_555 1_555
C17 C16 1_555 1_555
H21 C17 1_555 1_555
H22 C17 1_555 1_555
C18 H23 1_555 1_555
C19 H24 1_555 1_555
C20 C19 1_555 1_555
H25 C20 1_555 1_555
C21 H26 1_555 1_555
C22 H27 1_555 1_555
C23 C21 1_555 1_555
H28 C23 1_555 1_555
C24 H29 1_555 1_555
H30 C24 1_555 1_555
C25 C24 1_555 1_555
H31 C25 1_555 1_555
H32 C25 1_555 1_555
C26 H33 1_555 1_555
C27 H34 1_555 1_555
C28 C27 1_555 1_555
H35 C28 1_555 1_555
O1 H36 1_555 1_555
H37 O1 1_555 1_555
O2 C1 1_555 1_555
O3 H38 1_555 1_555
H39 O3 1_555 1_555
O4 C1 1_555 1_555
O5 C6 1_555 1_555
O6 H40 1_555 1_555
H41 O6 1_555 1_555
O7 C6 1_555 1_555
O8 H42 1_555 1_555
H43 O8 1_555 1_555
O9 C12 1_555 1_555
O10 H44 1_555 1_555
H45 O10 1_555 1_555
O11 C12 1_555 1_555
O12 Zn2 1_555 1_555
O13 C7 1_555 1_555
N1 Zn1 1_555 1_555
N2 C17 1_555 1_555
N3 C13 1_555 1_555
N4 C13 1_555 1_555
N5 C22 1_555 1_555
N6 C21 1_555 1_555
N7 C25 1_555 1_555
N8 Zn2 1_555 1_555
Zn1_2 N3 1_555 1_555
Zn1_3 O5 1_555 1_555
Zn2_2 N6 1_555 1_555
O5_2 Zn1 1_555 1_555
N3_2 Zn1 1_555 1_555
N6_2 Zn2 1_555 1_555
C7 O12 1_555 1_555
C14 N3 1_555 1_555
C15 N4 1_555 1_555
C16 N4 1_555 1_555
C18 N1 1_555 1_555
C18 N2 1_555 1_555
C19 N2 1_555 1_555
C20 N1 1_555 1_555
C22 N6 1_555 1_555
C23 N5 1_555 1_555
C24 N5 1_555 1_555
C26 N7 1_555 1_555
C26 N8 1_555 1_555
C27 N8 1_555 1_555
C28 N7 1_555 1_555

#END
