
#######################################################################
#
#                 Cambridge Crystallographic Data Centre
#                                CCDC 
#
#######################################################################
#
# If this CIF has been generated from an entry in the Cambridge 
# Structural Database, then it will include bibliographic, chemical, 
# crystal, experimental, refinement or atomic coordinate data resulting 
# from the CCDC's data processing and validation procedures.
#
#######################################################################

data_VAVKEK
_symmetry_cell_setting           monoclinic
_symmetry_space_group_name_H-M   'P 21/c'
_symmetry_Int_Tables_number      14
_space_group_name_Hall           '-P 2ybc'
loop_
_symmetry_equiv_pos_site_id
_symmetry_equiv_pos_as_xyz
1 x,y,z
2 -x,1/2+y,1/2-z
3 -x,-y,-z
4 x,1/2-y,1/2+z
_cell_length_a                   10.231(2)
_cell_length_b                   21.874(4)
_cell_length_c                   8.8151(18)
_cell_angle_alpha                90
_cell_angle_beta                 103.52(3)
_cell_angle_gamma                90
_cell_volume                     1918.09
loop_
_atom_site_label
_atom_site_type_symbol
_atom_site_fract_x
_atom_site_fract_y
_atom_site_fract_z
Zn1 Zn 0.41215(9) 0.60103(4) 0.36200(12)
C1 C 0.5253(8) 0.9877(3) 0.2807(11)
H1 H 0.4464 0.9834 0.1995
C2 C 0.7110(9) 1.0227(4) 0.4265(10)
H2 H 0.7860 1.0486 0.4648
C3 C 0.6879(8) 0.9680(4) 0.4918(11)
H3 H 0.7418 0.9489 0.5818
C4 C 0.5042(9) 0.8871(3) 0.4066(11)
H4 H 0.4060 0.8910 0.3651
H5 H 0.5204 0.8744 0.5173
C5 C 0.5586(9) 0.8388(4) 0.3153(13)
H6 H 0.5631 0.8555 0.2122
H7 H 0.6508 0.8275 0.3718
C6 C 0.5028(9) 0.7294(4) 0.3556(10)
H8 H 0.5855 0.7195 0.4260
C7 C 0.3472(11) 0.7805(4) 0.1951(14)
H9 H 0.2987 0.8121 0.1323
C8 C 0.3064(11) 0.7217(5) 0.2060(14)
H10 H 0.2227 0.7053 0.1511
C9 C 0.6903(7) 0.5977(3) 0.4217(10)
C10 C 0.8322(8) 0.5839(4) 0.5124(11)
C11 C 0.8580(9) 0.5629(4) 0.6661(11)
H11 H 0.7864 0.5577 0.7168
C12 C 0.9884(9) 0.5499(4) 0.7438(12)
H12 H 1.0066 0.5349 0.8478
C13 C 1.0934(9) 0.5588(4) 0.6704(11)
H13 H 1.1829 0.5495 0.7245
C14 C 1.0684(8) 0.5810(4) 0.5186(11)
C15 C 1.1823(9) 0.5901(4) 0.4354(12)
C16 C 0.9366(8) 0.5938(4) 0.4403(11)
H14 H 0.9183 0.6094 0.3369
O1 O 0.6699(6) 0.6168(3) 0.2862(8)
O3 O 0.5970(5) 0.5873(2) 0.4931(7)
O5 O 1.3007(6) 0.5832(2) 0.5182(7)
O7 O 1.1554(5) 0.6046(3) 0.2958(7)
N1 N 0.4733(8) 0.7848(3) 0.2938(9)
N2 N 0.4044(7) 0.6897(3) 0.3082(9)
N3 N 0.6087(6) 1.0346(3) 0.2964(8)
N4 N 0.5679(7) 0.9464(3) 0.3972(8)
Zn1_2 Zn 1.41215(9) 0.60103(4) 0.36200(12)
Zn1A Zn 0.58785(9) 1.10103(4) 0.13800(12)
O5_2 O 0.3007(6) 0.5832(2) 0.5182(7)
O7_2 O 0.1554(5) 0.6046(3) 0.2958(7)
N3A N 0.3913(6) 0.5346(3) 0.2036(8)
O2 O 0.7628(9) 0.7181(4) 0.1465(11)
O4 O 0.9584(11) 0.6470(6) 0.0432(13)
O6 O 0.9788(18) 0.7122(8) -0.203(2)
loop_
_geom_bond_atom_site_label_1
_geom_bond_atom_site_label_2
_geom_bond_site_symmetry_1
_geom_bond_site_symmetry_2
Zn1 O3 1_555 1_555
C1 H1 1_555 1_555
C2 H2 1_555 1_555
C3 C2 1_555 1_555
H3 C3 1_555 1_555
C4 H4 1_555 1_555
H5 C4 1_555 1_555
C5 C4 1_555 1_555
H6 C5 1_555 1_555
H7 C5 1_555 1_555
C6 H8 1_555 1_555
C7 H9 1_555 1_555
C8 C7 1_555 1_555
H10 C8 1_555 1_555
C9 C10 1_555 1_555
C10 C11 1_555 1_555
C11 H11 1_555 1_555
C12 C11 1_555 1_555
H12 C12 1_555 1_555
C13 C12 1_555 1_555
H13 C13 1_555 1_555
C14 C13 1_555 1_555
C15 C14 1_555 1_555
C16 C10 1_555 1_555
H14 C16 1_555 1_555
O1 C9 1_555 1_555
O3 C9 1_555 1_555
O5 C15 1_555 1_555
O7 C15 1_555 1_555
N1 C5 1_555 1_555
N2 Zn1 1_555 1_555
N3 C1 1_555 1_555
N4 C1 1_555 1_555
Zn1_2 O5 1_555 1_555
Zn1A N3 1_555 1_555
O5_2 Zn1 1_555 1_555
O7_2 Zn1 1_555 1_555
N3A Zn1 1_555 1_555
C2 N3 1_555 1_555
C3 N4 1_555 1_555
C4 N4 1_555 1_555
C6 N1 1_555 1_555
C6 N2 1_555 1_555
C7 N1 1_555 1_555
C8 N2 1_555 1_555
C14 C16 1_555 1_555
O7 Zn1_2 1_555 1_555

#END
