
#######################################################################
#
#                 Cambridge Crystallographic Data Centre
#                                CCDC 
#
#######################################################################
#
# If this CIF has been generated from an entry in the Cambridge 
# Structural Database, then it will include bibliographic, chemical, 
# crystal, experimental, refinement or atomic coordinate data resulting 
# from the CCDC's data processing and validation procedures.
#
#######################################################################

data_VAVKIO
_symmetry_cell_setting           triclinic
_symmetry_space_group_name_H-M   'P -1'
_symmetry_Int_Tables_number      2
_space_group_name_Hall           '-P 1'
loop_
_symmetry_equiv_pos_site_id
_symmetry_equiv_pos_as_xyz
1 x,y,z
2 -x,-y,-z
_cell_length_a                   9.4794(17)
_cell_length_b                   10.3579(19)
_cell_length_c                   10.682(2)
_cell_angle_alpha                74.805(3)
_cell_angle_beta                 73.450(3)
_cell_angle_gamma                76.959(3)
_cell_volume                     957.219
loop_
_atom_site_label
_atom_site_type_symbol
_atom_site_fract_x
_atom_site_fract_y
_atom_site_fract_z
Zn1 Zn 0.49322(2) 0.26508(2) 0.17169(2)
C1 C 0.4688(3) 0.3307(2) -0.1078(2)
H1 H 0.5495 0.3798 -0.1334
C2 C 0.2881(3) 0.2386(3) -0.1179(2)
H2 H 0.2187 0.2106 -0.1501
C3 C 0.3007(3) 0.2094(2) 0.0093(2)
H3 H 0.2406 0.1571 0.0833
C4 C 0.4288(3) 0.3671(3) -0.3369(2)
H4 H 0.4728 0.4508 -0.3591
H5 H 0.3352 0.3905 -0.3675
C5 C 0.5362(3) 0.2635(2) -0.4097(2)
H6 H 0.5502 0.2983 -0.5073
H7 H 0.6343 0.2491 -0.3883
C6 C 0.3605(3) 0.1071(3) -0.4020(3)
H8 H 0.2993 0.1676 -0.4563
C7 C 0.3464(3) -0.0221(3) -0.3390(3)
H9 H 0.2721 -0.0688 -0.3417
C8 C 0.5338(3) 0.0219(2) -0.2930(2)
H10 H 0.6173 0.0134 -0.2573
C9 C 0.2364(2) 0.3437(2) 0.3352(2)
C10 C 0.1142(2) 0.4249(2) 0.4216(2)
C11 C -0.0024(3) 0.3647(2) 0.5104(2)
H11 H -0.0041 0.2716 0.5179
C12 C 0.1165(3) 0.5603(2) 0.4116(2)
H12 H 0.1967 0.6019 0.3511
C13 C 0.7476(2) 0.3646(2) 0.1425(2)
C14 C 0.9680(2) 0.4618(2) 0.1376(2)
H13 H 0.9461 0.4356 0.2323
C15 C 0.8787(2) 0.4343(2) 0.0683(2)
C16 C 0.9117(2) 0.4731(2) -0.0699(2)
H14 H 0.8511 0.4548 -0.1182
N1 N 0.4149(2) 0.26786(19) 0.01463(18)
N2 N 0.3949(2) 0.31649(19) -0.19204(19)
N3 N 0.4810(2) 0.13372(19) -0.37187(19)
N4 N 0.4556(2) -0.07548(19) -0.27061(19)
O1 O 0.21662(17) 0.23540(16) 0.31936(16)
O2 O 0.35727(17) 0.39134(16) 0.28277(16)
O3 O 0.66680(17) 0.35075(16) 0.07128(16)
O4 O 0.7223(2) 0.3253(2) 0.26498(17)
Zn1A Zn -0.49322(2) 0.73492(2) 0.82831(2)
Zn1_2 Zn -0.50678(2) 1.26508(2) 1.17169(2)
Zn1A_2 Zn 0.50678(2) -0.26508(2) -0.17169(2)
Zn1A_3 Zn 1.50678(2) 0.73492(2) -0.17169(2)
C1A C -0.4688(3) 0.6693(2) 1.1078(2)
H1A H -0.5495 0.6202 1.1334
C2A C -0.2881(3) 0.7614(3) 1.1179(2)
H2A H -0.2187 0.7894 1.1501
C3A C -0.3007(3) 0.7906(2) 0.9907(2)
H3A H -0.2406 0.8429 0.9167
C4A C -0.4288(3) 0.6329(3) 1.3369(2)
H4A H -0.4728 0.5492 1.3591
H5A H -0.3352 0.6095 1.3675
C5A C -0.5362(3) 0.7365(2) 1.4097(2)
H6A H -0.5502 0.7017 1.5073
H7A H -0.6343 0.7509 1.3883
C6A C -0.3605(3) 0.8929(3) 1.4020(3)
H8A H -0.2993 0.8324 1.4563
C7A C -0.3464(3) 1.0221(3) 1.3390(3)
H9A H -0.2721 1.0688 1.3417
C8A C -0.5338(3) 0.9781(2) 1.2930(2)
H10A H -0.6173 0.9866 1.2573
C9A C -0.2364(2) 0.6563(2) 0.6648(2)
C10A C -0.1142(2) 0.5751(2) 0.5784(2)
C11A C 0.0024(3) 0.6353(2) 0.4896(2)
H11A H 0.0041 0.7284 0.4821
C12A C -0.1165(3) 0.4397(2) 0.5884(2)
H12A H -0.1967 0.3981 0.6489
C13A C 1.2524(2) 0.6354(2) -0.1425(2)
C14A C 1.0320(2) 0.5382(2) -0.1376(2)
H13A H 1.0539 0.5644 -0.2323
C15A C 1.1213(2) 0.5657(2) -0.0683(2)
C16A C 1.0883(2) 0.5269(2) 0.0699(2)
H14A H 1.1489 0.5452 0.1182
N1A N -0.4149(2) 0.73214(19) 0.98537(18)
N2A N -0.3949(2) 0.68351(19) 1.19204(19)
N3A N -0.4810(2) 0.86628(19) 1.37187(19)
N4A N -0.4556(2) 1.07548(19) 1.27061(19)
N4_2 N -0.5444(2) 0.92452(19) 0.72939(19)
N4A_2 N 0.5444(2) 0.07548(19) 0.27061(19)
O1A O -0.21662(17) 0.76460(16) 0.68064(16)
O2A O -0.35727(17) 0.60866(16) 0.71723(16)
O3A O 1.33320(17) 0.64925(16) -0.07128(16)
O3A_2 O -0.66680(17) 0.64925(16) 0.92872(16)
O4A O 1.2777(2) 0.6747(2) -0.26498(17)
C17 C 0.1240(5) -0.1161(4) -0.8697(4)
H15 H 0.1152 -0.0272 -0.9306
H16 H 0.0258 -0.1446 -0.8349
H17 H 0.1933 -0.1825 -0.9180
O5 O 0.1781(3) -0.1075(3) -0.7627(3)
H18 H 0.1148 -0.0562 -0.7169
O6 O -0.0222(4) 0.1270(4) -0.6567(4)
H19 H 0.0531 0.1653 -0.6717
H20 H -0.0997 0.1867 -0.6607
H21? H 0.0084 0.0062 -0.5184
H22? H 0.0888 0.0903 -0.6002
O7? O 0.0345(7) 0.0292(5) -0.6031(5)
loop_
_geom_bond_atom_site_label_1
_geom_bond_atom_site_label_2
_geom_bond_site_symmetry_1
_geom_bond_site_symmetry_2
Zn1 N1 1_555 1_555
C1 H1 1_555 1_555
C2 H2 1_555 1_555
C3 C2 1_555 1_555
H3 C3 1_555 1_555
C4 H4 1_555 1_555
H5 C4 1_555 1_555
C5 C4 1_555 1_555
H6 C5 1_555 1_555
H7 C5 1_555 1_555
C6 H8 1_555 1_555
C7 C6 1_555 1_555
H9 C7 1_555 1_555
C8 H10 1_555 1_555
C9 C10 1_555 1_555
C10 C11 1_555 1_555
C11 H11 1_555 1_555
C12 C10 1_555 1_555
H12 C12 1_555 1_555
C13 C15 1_555 1_555
C14 H13 1_555 1_555
C15 C14 1_555 1_555
C16 C15 1_555 1_555
H14 C16 1_555 1_555
C17 H15 1_555 1_555
H16 C17 1_555 1_555
H17 C17 1_555 1_555
N1 C1 1_555 1_555
N2 C1 1_555 1_555
N3 C5 1_555 1_555
N4 C7 1_555 1_555
O1 C9 1_555 1_555
O2 Zn1 1_555 1_555
O3 Zn1 1_555 1_555
O4 C13 1_555 1_555
O5 C17 1_555 1_555
H18 O5 1_555 1_555
O6 H19 1_555 1_555
H20 O6 1_555 1_555
Zn1A N1A 1_555 1_555
Zn1_2 N4A 1_555 1_555
Zn1A_2 N4 1_555 1_555
Zn1A_3 O3A 1_555 1_555
C1A H1A 1_555 1_555
C2A H2A 1_555 1_555
C3A C2A 1_555 1_555
H3A C3A 1_555 1_555
C4A H4A 1_555 1_555
H5A C4A 1_555 1_555
C5A C4A 1_555 1_555
H6A C5A 1_555 1_555
H7A C5A 1_555 1_555
C6A H8A 1_555 1_555
C7A C6A 1_555 1_555
H9A C7A 1_555 1_555
C8A H10A 1_555 1_555
C9A C10A 1_555 1_555
C10A C11A 1_555 1_555
C11A C12 1_555 1_555
H11A C11A 1_555 1_555
C12A C11 1_555 1_555
H12A C12A 1_555 1_555
C13A C15A 1_555 1_555
C14A C16 1_555 1_555
H13A C14A 1_555 1_555
C15A C14A 1_555 1_555
C16A C14 1_555 1_555
H14A C16A 1_555 1_555
N1A C1A 1_555 1_555
N2A C1A 1_555 1_555
N3A C5A 1_555 1_555
N4A C7A 1_555 1_555
N4_2 Zn1A 1_555 1_555
N4A_2 Zn1 1_555 1_555
O1A C9A 1_555 1_555
O2A Zn1A 1_555 1_555
O3A C13A 1_555 1_555
O3A_2 Zn1A 1_555 1_555
O4A C13A 1_555 1_555
C2 N2 1_555 1_555
C3 N1 1_555 1_555
C4 N2 1_555 1_555
C6 N3 1_555 1_555
C8 N3 1_555 1_555
C8 N4 1_555 1_555
C9 O2 1_555 1_555
C13 O3 1_555 1_555
C2A N2A 1_555 1_555
C3A N1A 1_555 1_555
C4A N2A 1_555 1_555
C6A N3A 1_555 1_555
C8A N3A 1_555 1_555
C8A N4A 1_555 1_555
C9A O2A 1_555 1_555
C10A C12A 1_555 1_555
C15A C16A 1_555 1_555

#END
