
#######################################################################
#
#                 Cambridge Crystallographic Data Centre
#                                CCDC 
#
#######################################################################
#
# If this CIF has been generated from an entry in the Cambridge 
# Structural Database, then it will include bibliographic, chemical, 
# crystal, experimental, refinement or atomic coordinate data resulting 
# from the CCDC's data processing and validation procedures.
#
#######################################################################

data_VAVLEJ
_symmetry_cell_setting           monoclinic
_symmetry_space_group_name_H-M   'P 21/n'
_symmetry_Int_Tables_number      14
_space_group_name_Hall           '-P 2yn'
loop_
_symmetry_equiv_pos_site_id
_symmetry_equiv_pos_as_xyz
1 x,y,z
2 1/2-x,1/2+y,1/2-z
3 -x,-y,-z
4 1/2+x,1/2-y,1/2+z
_cell_length_a                   7.455(2)
_cell_length_b                   8.196(2)
_cell_length_c                   11.235(2)
_cell_angle_alpha                90
_cell_angle_beta                 100.55(2)
_cell_angle_gamma                90
_cell_volume                     674.867
loop_
_atom_site_label
_atom_site_type_symbol
_atom_site_fract_x
_atom_site_fract_y
_atom_site_fract_z
O1 O 0.6455(11) 0.1136(8) 0.6803(6)
Cu1 Cu 0.5000 0.5000 0.5000
O2 O 0.6481(9) 0.4311(7) 0.6616(6)
O3 O 0.5383(8) 0.2382(7) 0.3978(5)
C1 C 0.5159(13) 0.1093(12) 0.4513(8)
C2 C 0.5690(14) 0.0525(11) 0.5845(9)
N1 N 0.2829(9) 0.3974(9) 0.5512(7)
N2 N 0.1001(11) 0.3027(11) 0.6679(7)
C3 C 0.2561(13) 0.3844(13) 0.6639(9)
C4 C 0.0282(14) 0.2619(14) 0.5537(10)
C5 C 0.1410(13) 0.3193(13) 0.4784(9)
C1B C 0.4841(13) -0.1093(12) 0.5487(8)
C2B C 0.4310(14) -0.0525(11) 0.4155(9)
O2B O 0.3519(9) 0.5689(7) 0.3384(6)
O3B O 0.4617(8) 0.7618(7) 0.6022(5)
N1B N 0.7171(9) 0.6026(9) 0.4488(7)
O3B_2 O 0.4617(8) -0.2382(7) 0.6022(5)
O1B O 0.3545(11) -0.1136(8) 0.3197(6)
C3B C 0.7439(13) 0.6156(13) 0.3361(9)
C5B C 0.8590(13) 0.6807(13) 0.5216(9)
N2B N 0.8999(11) 0.6973(11) 0.3321(7)
C4B C 0.9718(14) 0.7381(14) 0.4463(10)
Cu1_2 Cu 0.5000 -0.5000 0.5000
loop_
_geom_bond_atom_site_label_1
_geom_bond_atom_site_label_2
_geom_bond_site_symmetry_1
_geom_bond_site_symmetry_2
O1 C2 1_555 1_555
Cu1 O2 1_555 1_555
O3 Cu1 1_555 1_555
C1 O3 1_555 1_555
C2 C1 1_555 1_555
N1 Cu1 1_555 1_555
N2 C3 1_555 1_555
C3 N1 1_555 1_555
C4 N2 1_555 1_555
C5 N1 1_555 1_555
C1B C2 1_555 1_555
C2B C1 1_555 1_555
O2B Cu1 1_555 1_555
O3B Cu1 1_555 1_555
N1B Cu1 1_555 1_555
O3B_2 C1B 1_555 1_555
O1B C2B 1_555 1_555
C3B N1B 1_555 1_555
C5B N1B 1_555 1_555
N2B C3B 1_555 1_555
C4B C5B 1_555 1_555
Cu1_2 O3B_2 1_555 1_555
C4 C5 1_555 1_555
C1B C2B 1_555 1_555
N2B C4B 1_555 1_555

#END
