
#######################################################################
#
#                 Cambridge Crystallographic Data Centre
#                                CCDC 
#
#######################################################################
#
# If this CIF has been generated from an entry in the Cambridge 
# Structural Database, then it will include bibliographic, chemical, 
# crystal, experimental, refinement or atomic coordinate data resulting 
# from the CCDC's data processing and validation procedures.
#
#######################################################################

data_VAVQEP
_symmetry_cell_setting           orthorhombic
_symmetry_space_group_name_H-M   'P 21 21 21'
_symmetry_Int_Tables_number      19
_space_group_name_Hall           'P 2ac 2ab'
loop_
_symmetry_equiv_pos_site_id
_symmetry_equiv_pos_as_xyz
1 x,y,z
2 1/2-x,-y,1/2+z
3 1/2+x,1/2-y,-z
4 -x,1/2+y,1/2-z
_cell_length_a                   17.780(5)
_cell_length_b                   17.890(5)
_cell_length_c                   21.515(7)
_cell_angle_alpha                90
_cell_angle_beta                 90
_cell_angle_gamma                90
_cell_volume                     6843.58
loop_
_atom_site_label
_atom_site_type_symbol
_atom_site_fract_x
_atom_site_fract_y
_atom_site_fract_z
Cu1 Cu 0.25974(4) 0.88245(4) 0.01053(3)
Cu2 Cu 0.63480(4) 0.50131(4) -0.24863(3)
O1 O 0.2491(4) 1.0650(3) -0.0927(3)
O2 O 0.2818(3) 0.9527(2) -0.0572(2)
O3 O 0.3496(3) 0.8914(3) 0.0853(2)
H1 H 0.3925 0.8950 0.0682
H2 H 0.3415 0.9300 0.1074
O4 O 0.8392(3) 0.5104(4) -0.1744(3)
O5 O 0.7163(3) 0.5275(3) -0.1916(2)
O6 O 0.6554(3) 0.5924(3) -0.3174(3)
H3 H 0.6684 0.6318 -0.2982
H4 H 0.6904 0.5792 -0.3419
N1 N 0.2015(3) 0.9672(3) 0.0466(3)
N2 N 0.3160(3) 0.8028(3) -0.0345(2)
N3 N 0.5572(3) 0.5629(3) -0.2022(2)
N4 N 0.7112(3) 0.4333(3) -0.2868(2)
H21 H 0.6948 0.3858 -0.2842
H22 H 0.7165 0.4448 -0.3273
N5 N -0.0521(3) 0.5560(3) 0.2081(3)
N6 N 0.2018(3) 0.8042(3) 0.0607(2)
C1 C 0.2771(6) 1.0836(4) 0.0469(4)
H27 H 0.2579 1.0955 0.0875
H28 H 0.2868 1.1290 0.0245
H29 H 0.3229 1.0558 0.0510
C2 C 0.2198(4) 1.0374(4) 0.0119(3)
H30 H 0.1738 1.0668 0.0064
C3 C 0.2519(4) 1.0173(4) -0.0516(3)
C4 C 0.3689(4) 0.7606(3) -0.0068(3)
H31 H 0.3748 0.7648 0.0360
C5 C 0.4140(4) 0.7122(4) -0.0377(3)
H32 H 0.4502 0.6848 -0.0163
C6 C 0.4058(4) 0.7038(3) -0.1021(3)
C7 C 0.3490(4) 0.7449(3) -0.1315(3)
H33 H 0.3405 0.7397 -0.1739
C8 C 0.3061(4) 0.7929(3) -0.0967(3)
H34 H 0.2685 0.8200 -0.1166
C9 C 0.4558(4) 0.6517(4) -0.1374(3)
C10 C 0.4936(4) 0.5945(4) -0.1095(3)
H35 H 0.4854 0.5843 -0.0677
C11 C 0.5431(4) 0.5521(4) -0.1423(3)
H36 H 0.5683 0.5137 -0.1218
C12 C 0.5178(3) 0.6163(4) -0.2321(3)
H37 H 0.5248 0.6224 -0.2747
C13 C 0.4677(4) 0.6621(4) -0.2018(3)
H38 H 0.4421 0.6994 -0.2233
C14 C 0.8479(5) 0.4549(6) -0.3010(4)
H39 H 0.8514 0.4142 -0.3299
H40 H 0.8947 0.4600 -0.2791
H41 H 0.8373 0.5003 -0.3231
C15 C 0.7857(4) 0.4396(4) -0.2552(3)
H42 H 0.7962 0.3911 -0.2358
C16 C 0.7818(4) 0.4968(4) -0.2039(3)
C17 C -0.0025(4) 0.5952(4) 0.2415(3)
H43 H -0.0024 0.5894 0.2844
C18 C 0.0484(4) 0.6441(4) 0.2153(3)
H44 H 0.0815 0.6709 0.2402
C19 C 0.0495(4) 0.6527(4) 0.1508(3)
C20 C -0.0009(4) 0.6123(4) 0.1161(3)
H45 H -0.0018 0.6168 0.0731
C21 C -0.0506(4) 0.5647(4) 0.1463(3)
H46 H -0.0846 0.5376 0.1223
C22 C 0.1429(4) 0.7593(4) 0.1546(3)
H47 H 0.1368 0.7632 0.1974
C23 C 0.1044(4) 0.7048(3) 0.1207(3)
C24 C 0.1184(4) 0.6994(4) 0.0577(3)
H48 H 0.0956 0.6623 0.0339
C25 C 0.1673(4) 0.7504(4) 0.0306(3)
H49 H 0.1763 0.7461 -0.0118
C26 C 0.1903(4) 0.8074(4) 0.1228(3)
H50 H 0.2156 0.8439 0.1454
Cu2A Cu -0.13480(4) 0.49869(4) 0.25137(3)
N5A N 0.5521(3) 0.4440(3) -0.2919(3)
Cu3 Cu 1.13433(4) 0.47299(4) -0.27526(3)
Cu4 Cu 0.77719(4) 0.12334(4) 0.02761(3)
O7 O 1.3403(3) 0.4613(3) -0.2036(2)
O8 O 1.2165(2) 0.4522(2) -0.21477(19)
O9 O 1.1535(3) 0.3771(3) -0.3397(2)
H5 H 1.1735 0.3930 -0.3730
H6 H 1.1116 0.3566 -0.3480
O10 O 0.8068(4) -0.0774(3) -0.0447(2)
O11 O 0.8044(3) 0.0453(2) -0.0331(2)
O12 O 0.8704(3) 0.1234(3) 0.1028(2)
H7 H 0.8571 0.0955 0.1328
H8 H 0.9110 0.1069 0.0871
N7 N 1.2151(3) 0.5252(3) -0.3211(2)
H23 H 1.2076 0.5208 -0.3623
H24 H 1.2151 0.5741 -0.3113
N8 N 1.0607(3) 0.4190(3) -0.2215(2)
N9 N 0.8296(3) 0.1986(3) -0.0267(2)
N10 N 0.7311(3) 0.0389(3) 0.0731(2)
H25 H 0.7340 0.0466 0.1144
H26 H 0.6824 0.0341 0.0626
N11 N 0.7876(3) 0.7976(3) -0.4312(2)
N12 N 1.0512(3) 0.5361(3) -0.3120(2)
C27 C 1.3549(4) 0.5408(4) -0.3175(3)
H51 H 1.3548 0.5537 -0.3608
H52 H 1.4006 0.5149 -0.3075
H53 H 1.3514 0.5854 -0.2929
C28 C 1.2887(3) 0.4910(4) -0.3037(3)
H54 H 1.2946 0.4454 -0.3284
C29 C 1.2828(3) 0.4675(3) -0.2348(3)
C30 C 1.0514(4) 0.4353(4) -0.1607(3)
H55 H 1.0790 0.4745 -0.1439
C31 C 1.0041(4) 0.3974(3) -0.1230(3)
H56 H 0.9993 0.4114 -0.0815
C32 C 0.9621(4) 0.3369(4) -0.1462(3)
C33 C 0.9702(4) 0.3212(4) -0.2088(3)
H57 H 0.9433 0.2822 -0.2267
C34 C 1.0182(3) 0.3635(3) -0.2446(3)
H58 H 1.0215 0.3531 -0.2868
C35 C 0.9154(4) 0.2909(3) -0.1041(3)
C36 C 0.8531(4) 0.2507(4) -0.1266(3)
H59 H 0.8393 0.2544 -0.1682
C37 C 0.8128(4) 0.2059(4) -0.0870(3)
H60 H 0.7720 0.1795 -0.1027
C38 C 0.8869(4) 0.2382(4) -0.0045(3)
H61 H 0.8976 0.2351 0.0377
C39 C 0.9314(4) 0.2842(4) -0.0414(3)
H62 H 0.9715 0.3102 -0.0241
C40 C 0.7320(5) -0.1005(4) 0.0700(4)
H63 H 0.7239 -0.1041 0.1140
H64 H 0.7613 -0.1424 0.0562
H65 H 0.6844 -0.1004 0.0489
C41 C 0.7734(4) -0.0291(3) 0.0556(3)
H66 H 0.8199 -0.0295 0.0801
C42 C 0.7960(4) -0.0224(4) -0.0128(3)
C43 C 0.7950(4) 0.7875(4) -0.3705(3)
H67 H 0.7660 0.8165 -0.3437
C44 C 0.8323(4) 0.7564(4) -0.4684(3)
H68 H 0.8285 0.7633 -0.5112
C45 C 0.8825(4) 0.7053(4) -0.4468(3)
H69 H 0.9119 0.6784 -0.4747
C46 C 0.8900(3) 0.6934(4) -0.3840(3)
C47 C 0.8442(4) 0.7354(4) -0.3450(3)
H70 H 0.8465 0.7286 -0.3022
C48 C 0.9458(4) 0.6390(3) -0.3595(3)
C49 C 0.9563(4) 0.6293(4) -0.2953(3)
H71 H 0.9280 0.6566 -0.2669
C50 C 0.9885(4) 0.5936(4) -0.3975(3)
H72 H 0.9824 0.5963 -0.4403
C51 C 1.0396(4) 0.5447(4) -0.3732(3)
H73 H 1.0680 0.5159 -0.4005
C52 C 1.0098(4) 0.5782(4) -0.2748(3)
H74 H 1.0170 0.5733 -0.2322
Cu4A Cu 0.72281(4) 0.87666(4) -0.47239(3)
N11A N 0.7124(3) 0.2024(3) 0.0688(2)
O13 O 0.0112(5) 0.8656(7) -0.0853(4)
O14 O 0.1302(4) 0.8642(5) -0.0658(3)
O15 O 0.0603(4) 0.9456(5) -0.0236(3)
N15 N 0.0687(5) 0.8901(6) -0.0580(4)
O16 O 0.6001(7) 0.2938(7) -0.1037(6)
O17 O 0.6175(5) 0.3918(5) -0.1376(4)
O18 O 0.5212(4) 0.3850(4) -0.0628(3)
N16 N 0.5703(6) 0.3560(6) -0.1004(5)
O19 O 1.1796(4) 0.7500(4) -0.2049(3)
O20 O 1.1433(4) 0.6350(4) -0.2094(3)
O21 O 1.2417(3) 0.6696(3) -0.2585(3)
N14 N 1.1875(4) 0.6847(4) -0.2244(3)
O22 O 0.6112(4) 0.1063(3) -0.0314(3)
O23 O 0.5913(3) -0.0009(3) 0.0116(3)
O24 O 0.5024(3) 0.0544(4) -0.0393(3)
N13 N 0.5674(4) 0.0526(3) -0.0204(3)
O25 O 0.5147(6) 0.6753(6) -0.3792(5)
H9 H 0.4721 0.6854 -0.3951
H10 H 0.5412 0.6543 -0.4070
O26 O 0.6163(6) 0.7414(5) -0.3241(5)
H11 H 0.6418 0.7798 -0.3339
H12 H 0.5953 0.7501 -0.2893
O27 O 0.6595(4) 0.2950(4) -0.2245(4)
H13 H 0.6288 0.3007 -0.1945
H14 H 0.6679 0.2485 -0.2283
O28 O 0.3926(3) 0.7720(3) 0.1690(2)
H15 H 0.3814 0.7359 0.1930
H16 H 0.3518 0.7905 0.1555
O29 O 0.4938(3) 0.8875(3) 0.0468(2)
H17 H 0.5095 0.8589 0.0180
H18 H 0.5198 0.9273 0.0457
O30 O 0.5406(4) 0.7756(4) 0.1267(3)
H19 H 0.5751 0.7494 0.1430
H20 H 0.5337 0.8135 0.1498
loop_
_geom_bond_atom_site_label_1
_geom_bond_atom_site_label_2
_geom_bond_site_symmetry_1
_geom_bond_site_symmetry_2
Cu1 O2 1_555 1_555
Cu2 O5 1_555 1_555
Cu3 O8 1_555 1_555
Cu4 O11 1_555 1_555
O1 C3 1_555 1_555
O2 C3 1_555 1_555
O3 Cu1 1_555 1_555
H1 O3 1_555 1_555
H2 O3 1_555 1_555
O4 C16 1_555 1_555
O5 C16 1_555 1_555
O6 Cu2 1_555 1_555
H3 O6 1_555 1_555
H4 O6 1_555 1_555
O7 C29 1_555 1_555
O8 C29 1_555 1_555
O9 Cu3 1_555 1_555
H5 O9 1_555 1_555
H6 O9 1_555 1_555
O10 C42 1_555 1_555
O11 C42 1_555 1_555
O12 Cu4 1_555 1_555
H7 O12 1_555 1_555
H8 O12 1_555 1_555
O13 N15 1_555 1_555
O14 N15 1_555 1_555
O15 N15 1_555 1_555
O16 N16 1_555 1_555
O17 N16 1_555 1_555
O18 N16 1_555 1_555
O19 N14 1_555 1_555
O20 N14 1_555 1_555
O21 N14 1_555 1_555
O22 N13 1_555 1_555
O23 N13 1_555 1_555
O24 N13 1_555 1_555
O25 H9 1_555 1_555
H10 O25 1_555 1_555
O26 H11 1_555 1_555
H12 O26 1_555 1_555
O27 H13 1_555 1_555
H14 O27 1_555 1_555
O28 H15 1_555 1_555
H16 O28 1_555 1_555
O29 H17 1_555 1_555
H18 O29 1_555 1_555
O30 H19 1_555 1_555
H20 O30 1_555 1_555
N1 Cu1 1_555 1_555
N2 Cu1 1_555 1_555
N3 Cu2 1_555 1_555
N4 Cu2 1_555 1_555
H21 N4 1_555 1_555
H22 N4 1_555 1_555
N5 C17 1_555 1_555
N6 Cu1 1_555 1_555
N7 Cu3 1_555 1_555
H23 N7 1_555 1_555
H24 N7 1_555 1_555
N8 Cu3 1_555 1_555
N9 Cu4 1_555 1_555
N10 Cu4 1_555 1_555
H25 N10 1_555 1_555
H26 N10 1_555 1_555
N11 C43 1_555 1_555
N12 Cu3 1_555 1_555
C1 H27 1_555 1_555
H28 C1 1_555 1_555
H29 C1 1_555 1_555
C2 N1 1_555 1_555
H30 C2 1_555 1_555
C3 C2 1_555 1_555
C4 N2 1_555 1_555
H31 C4 1_555 1_555
C5 C4 1_555 1_555
H32 C5 1_555 1_555
C6 C5 1_555 1_555
C7 C6 1_555 1_555
H33 C7 1_555 1_555
C8 N2 1_555 1_555
H34 C8 1_555 1_555
C9 C6 1_555 1_555
C10 C9 1_555 1_555
H35 C10 1_555 1_555
C11 N3 1_555 1_555
H36 C11 1_555 1_555
C12 N3 1_555 1_555
H37 C12 1_555 1_555
C13 C9 1_555 1_555
H38 C13 1_555 1_555
C14 H39 1_555 1_555
H40 C14 1_555 1_555
H41 C14 1_555 1_555
C15 N4 1_555 1_555
H42 C15 1_555 1_555
C16 C15 1_555 1_555
C17 H43 1_555 1_555
C18 C17 1_555 1_555
H44 C18 1_555 1_555
C19 C18 1_555 1_555
C20 C19 1_555 1_555
H45 C20 1_555 1_555
C21 N5 1_555 1_555
H46 C21 1_555 1_555
C22 H47 1_555 1_555
C23 C19 1_555 1_555
C24 C23 1_555 1_555
H48 C24 1_555 1_555
C25 N6 1_555 1_555
H49 C25 1_555 1_555
C26 N6 1_555 1_555
H50 C26 1_555 1_555
C27 H51 1_555 1_555
H52 C27 1_555 1_555
H53 C27 1_555 1_555
C28 N7 1_555 1_555
H54 C28 1_555 1_555
C29 C28 1_555 1_555
C30 N8 1_555 1_555
H55 C30 1_555 1_555
C31 C30 1_555 1_555
H56 C31 1_555 1_555
C32 C31 1_555 1_555
C33 C32 1_555 1_555
H57 C33 1_555 1_555
C34 N8 1_555 1_555
H58 C34 1_555 1_555
C35 C32 1_555 1_555
C36 C35 1_555 1_555
H59 C36 1_555 1_555
C37 N9 1_555 1_555
H60 C37 1_555 1_555
C38 N9 1_555 1_555
H61 C38 1_555 1_555
C39 C35 1_555 1_555
H62 C39 1_555 1_555
C40 H63 1_555 1_555
H64 C40 1_555 1_555
H65 C40 1_555 1_555
C41 N10 1_555 1_555
H66 C41 1_555 1_555
C42 C41 1_555 1_555
C43 H67 1_555 1_555
C44 N11 1_555 1_555
H68 C44 1_555 1_555
C45 C44 1_555 1_555
H69 C45 1_555 1_555
C46 C45 1_555 1_555
C47 C43 1_555 1_555
H70 C47 1_555 1_555
C48 C46 1_555 1_555
C49 C48 1_555 1_555
H71 C49 1_555 1_555
C50 C48 1_555 1_555
H72 C50 1_555 1_555
C51 N12 1_555 1_555
H73 C51 1_555 1_555
C52 N12 1_555 1_555
H74 C52 1_555 1_555
Cu2A N5 1_555 1_555
Cu4A N11 1_555 1_555
N5A Cu2 1_555 1_555
N11A Cu4 1_555 1_555
C1 C2 1_555 1_555
C7 C8 1_555 1_555
C10 C11 1_555 1_555
C12 C13 1_555 1_555
C14 C15 1_555 1_555
C20 C21 1_555 1_555
C22 C23 1_555 1_555
C22 C26 1_555 1_555
C24 C25 1_555 1_555
C27 C28 1_555 1_555
C33 C34 1_555 1_555
C36 C37 1_555 1_555
C38 C39 1_555 1_555
C40 C41 1_555 1_555
C46 C47 1_555 1_555
C49 C52 1_555 1_555
C50 C51 1_555 1_555

#END
