
#######################################################################
#
#                 Cambridge Crystallographic Data Centre
#                                CCDC 
#
#######################################################################
#
# If this CIF has been generated from an entry in the Cambridge 
# Structural Database, then it will include bibliographic, chemical, 
# crystal, experimental, refinement or atomic coordinate data resulting 
# from the CCDC's data processing and validation procedures.
#
#######################################################################

data_VAVWAQ
_symmetry_cell_setting           monoclinic
_symmetry_space_group_name_H-M   'C c'
_symmetry_Int_Tables_number      9
_space_group_name_Hall           'C -2yc'
loop_
_symmetry_equiv_pos_site_id
_symmetry_equiv_pos_as_xyz
1 x,y,z
2 x,-y,1/2+z
3 1/2+x,1/2+y,z
4 1/2+x,1/2-y,1/2+z
_cell_length_a                   17.435(9)
_cell_length_b                   3.855(2)
_cell_length_c                   11.159(6)
_cell_angle_alpha                90
_cell_angle_beta                 107.55(2)
_cell_angle_gamma                90
_cell_volume                     715.108
loop_
_atom_site_label
_atom_site_type_symbol
_atom_site_fract_x
_atom_site_fract_y
_atom_site_fract_z
Cu1 Cu -0.5936 0.27206(15) -0.4562
S1 S -0.65487(8) 0.2308(3) -0.06781(10)
C1 C -0.6295(3) 0.2405(11) -0.1997(5)
N1 N -0.6139(4) 0.2511(11) -0.2932(5)
N2 N -0.4724(3) 0.2604(9) -0.4349(4)
C2 C -0.4217(4) 0.1425(16) -0.3276(6)
C3 C -0.3395(4) 0.1330(18) -0.3043(6)
C4 C -0.3067(4) 0.2506(14) -0.3942(6)
C5 C -0.3585(5) 0.3669(19) -0.5055(7)
C6 C -0.4399(4) 0.3717(17) -0.5237(5)
H1 H -0.4523(40) 0.054(19) -0.2735(60)
H2 H -0.3069(45) 0.061(18) -0.2303(67)
H3 H -0.2498(44) 0.267(12) -0.3852(66)
H4 H -0.3456(33) 0.437(16) -0.5483(56)
H5 H -0.4822(27) 0.469(12) -0.6044(44)
Cu1A Cu -0.5936 0.72794(15) 0.0438
Cu1A_2 Cu -0.5936 -0.27206(15) 0.0438
S1A S -0.65487(8) 0.7692(3) -0.56781(10)
S1A_2 S -0.65487(8) -0.2308(3) -0.56781(10)
loop_
_geom_bond_atom_site_label_1
_geom_bond_atom_site_label_2
_geom_bond_site_symmetry_1
_geom_bond_site_symmetry_2
Cu1 N1 1_555 1_555
S1 C1 1_555 1_555
C1 N1 1_555 1_555
N2 Cu1 1_555 1_555
C2 N2 1_555 1_555
C3 C2 1_555 1_555
C4 C3 1_555 1_555
C5 C4 1_555 1_555
C6 N2 1_555 1_555
H1 C2 1_555 1_555
H2 C3 1_555 1_555
H3 C4 1_555 1_555
H4 C5 1_555 1_555
H5 C6 1_555 1_555
Cu1A S1 1_555 1_555
Cu1A_2 S1 1_555 1_555
S1A Cu1 1_555 1_555
S1A_2 Cu1 1_555 1_555
C5 C6 1_555 1_555

#END
