
#######################################################################
#
#                 Cambridge Crystallographic Data Centre
#                                CCDC 
#
#######################################################################
#
# If this CIF has been generated from an entry in the Cambridge 
# Structural Database, then it will include bibliographic, chemical, 
# crystal, experimental, refinement or atomic coordinate data resulting 
# from the CCDC's data processing and validation procedures.
#
#######################################################################

data_VAWBOM
_symmetry_cell_setting           triclinic
_symmetry_space_group_name_H-M   'P -1'
_symmetry_Int_Tables_number      2
_space_group_name_Hall           '-P 1'
loop_
_symmetry_equiv_pos_site_id
_symmetry_equiv_pos_as_xyz
1 x,y,z
2 -x,-y,-z
_cell_length_a                   8.4541(5)
_cell_length_b                   10.0437(6)
_cell_length_c                   12.9408(7)
_cell_angle_alpha                68.619(3)
_cell_angle_beta                 84.614(4)
_cell_angle_gamma                87.848(3)
_cell_volume                     1018.66
loop_
_atom_site_label
_atom_site_type_symbol
_atom_site_fract_x
_atom_site_fract_y
_atom_site_fract_z
Cd1 Cd 0.16240(2) 0.363004(18) 0.341141(16)
O1 O 0.0674(3) 0.2898(2) 0.19577(18)
O2 O 0.1438(4) 0.1226(2) 0.3450(2)
O3 O 0.1357(3) -0.3865(2) 0.37596(17)
O4 O 0.0400(3) -0.43379(19) 0.24085(18)
O5 O -0.2865(3) -0.0777(2) -0.01463(18)
O6 O -0.3024(3) 0.1360(2) -0.0159(2)
O7 O -0.0909(3) 0.2919(3) 0.4485(2)
H1 H -0.0871 0.1992 0.4766
H2 H -0.1054 0.3288 0.4745
N1 N -0.2518(3) 0.0144(2) 0.01994(19)
N2 N 0.4045(3) 0.4343(2) 0.2407(2)
N3 N 0.8382(3) 0.5540(3) 0.0526(2)
H3 H 0.9223 0.5200 0.0845
H4 H 0.8407 0.6171 -0.0064
N4 N 0.2820(3) 0.2706(2) 0.50387(19)
N5 N 0.5341(4) 0.1063(4) 0.7849(2)
H5 H 0.5645 0.1556 0.8120
H6 H 0.5529 0.0163 0.8042
C1 C 0.0174(3) 0.0492(3) 0.2194(2)
C2 C 0.0638(3) -0.0924(3) 0.2700(2)
H7 H 0.1325 -0.1162 0.3262
C3 C 0.0088(3) -0.1985(3) 0.2379(2)
C4 C -0.0948(3) -0.1631(3) 0.1550(2)
H8 H -0.1322 -0.2328 0.1319
C5 C -0.1411(3) -0.0225(3) 0.1075(2)
C6 C -0.0860(3) 0.0853(3) 0.1373(2)
H9 H -0.1180 0.1796 0.1028
C7 C 0.0817(4) 0.1622(3) 0.2549(2)
C8 C 0.0649(3) -0.3502(3) 0.2900(2)
C9 C 0.4159(4) 0.5408(3) 0.1413(2)
H10 H 0.3228 0.5872 0.1142
C10 C 0.5544(4) 0.5857(3) 0.0772(2)
H11 H 0.5539 0.6609 0.0090
C11 C 0.6978(4) 0.5188(3) 0.1137(3)
C12 C 0.6875(4) 0.4098(3) 0.2190(3)
H12 H 0.7790 0.3630 0.2490
C13 C 0.5434(4) 0.3724(3) 0.2774(3)
H13 H 0.5403 0.2996 0.3471
C14 C 0.3336(4) 0.3532(3) 0.5543(3)
H14 H 0.3103 0.4504 0.5253
C15 C 0.4185(4) 0.3040(4) 0.6459(3)
H15 H 0.4511 0.3669 0.6775
C16 C 0.4556(4) 0.1600(4) 0.6913(2)
C17 C 0.4038(5) 0.0739(3) 0.6393(3)
H16 H 0.4269 -0.0234 0.6661
C18 C 0.3189(5) 0.1308(3) 0.5487(3)
H17 H 0.2845 0.0698 0.5160
Cd1_2 Cd 0.16240(2) -0.636996(18) 0.341141(16)
O3_2 O 0.1357(3) 0.6135(2) 0.37596(17)
O4_2 O 0.0400(3) 0.56621(19) 0.24085(18)
loop_
_geom_bond_atom_site_label_1
_geom_bond_atom_site_label_2
_geom_bond_site_symmetry_1
_geom_bond_site_symmetry_2
Cd1 O1 1_555 1_555
O1 C7 1_555 1_555
O2 Cd1 1_555 1_555
O3 C8 1_555 1_555
O4 C8 1_555 1_555
O5 N1 1_555 1_555
O6 N1 1_555 1_555
O7 Cd1 1_555 1_555
H1 O7 1_555 1_555
H2 O7 1_555 1_555
N1 C5 1_555 1_555
N2 Cd1 1_555 1_555
N3 H3 1_555 1_555
H4 N3 1_555 1_555
N4 Cd1 1_555 1_555
N5 H5 1_555 1_555
H6 N5 1_555 1_555
C1 C2 1_555 1_555
C2 H7 1_555 1_555
C3 C2 1_555 1_555
C4 C3 1_555 1_555
H8 C4 1_555 1_555
C5 C4 1_555 1_555
C6 C1 1_555 1_555
H9 C6 1_555 1_555
C7 O2 1_555 1_555
C8 C3 1_555 1_555
C9 N2 1_555 1_555
H10 C9 1_555 1_555
C10 C9 1_555 1_555
H11 C10 1_555 1_555
C11 N3 1_555 1_555
C12 C11 1_555 1_555
H12 C12 1_555 1_555
C13 N2 1_555 1_555
H13 C13 1_555 1_555
C14 N4 1_555 1_555
H14 C14 1_555 1_555
C15 C14 1_555 1_555
H15 C15 1_555 1_555
C16 N5 1_555 1_555
C17 C16 1_555 1_555
H16 C17 1_555 1_555
C18 N4 1_555 1_555
H17 C18 1_555 1_555
Cd1_2 O3 1_555 1_555
O3_2 Cd1 1_555 1_555
O4_2 Cd1 1_555 1_555
O4 Cd1_2 1_555 1_555
C1 C7 1_555 1_555
C5 C6 1_555 1_555
C10 C11 1_555 1_555
C12 C13 1_555 1_555
C15 C16 1_555 1_555
C17 C18 1_555 1_555

#END
