
#######################################################################
#
#                 Cambridge Crystallographic Data Centre
#                                CCDC 
#
#######################################################################
#
# If this CIF has been generated from an entry in the Cambridge 
# Structural Database, then it will include bibliographic, chemical, 
# crystal, experimental, refinement or atomic coordinate data resulting 
# from the CCDC's data processing and validation procedures.
#
#######################################################################

data_VAWBIG
_symmetry_cell_setting           triclinic
_symmetry_space_group_name_H-M   'P -1'
_symmetry_Int_Tables_number      2
_space_group_name_Hall           '-P 1'
loop_
_symmetry_equiv_pos_site_id
_symmetry_equiv_pos_as_xyz
1 x,y,z
2 -x,-y,-z
_cell_length_a                   8.9656(18)
_cell_length_b                   9.0023(18)
_cell_length_c                   10.242(2)
_cell_angle_alpha                86.35(3)
_cell_angle_beta                 74.79(3)
_cell_angle_gamma                81.44(3)
_cell_volume                     788.537
loop_
_atom_site_label
_atom_site_type_symbol
_atom_site_fract_x
_atom_site_fract_y
_atom_site_fract_z
Cd1 Cd 0.71727(2) 0.96736(2) -0.103837(18)
O1 O 0.5552(2) 1.1079(2) 0.07666(19)
O2 O 0.7706(2) 0.9914(3) 0.1179(2)
O3 O 0.7863(3) 0.9525(3) 0.6146(2)
O4 O 0.6310(2) 1.1244(3) 0.74969(19)
O5 O 0.2724(3) 1.4933(3) 0.5958(3)
O6 O 0.2386(3) 1.4903(3) 0.3966(3)
O7 O 0.9503(3) 1.0554(4) -0.1819(3)
N1 N 0.3047(3) 1.4419(3) 0.4828(3)
N2 N 0.7782(3) 0.7196(3) -0.0802(2)
N3 N 1.0000(3) 0.7055(3) -0.2565(3)
H1 H 0.9840 0.8017 -0.2663
H2 H 1.0795 0.6545 -0.3088
C1 C 0.5960(3) 1.1414(3) 0.2927(3)
C2 C 0.6688(3) 1.0821(3) 0.3930(3)
H3 H 0.7509 1.0038 0.3729
C3 C 0.6203(3) 1.1385(3) 0.5223(3)
C4 C 0.5004(3) 1.2574(3) 0.5514(3)
H4 H 0.4678 1.2978 0.6373
C5 C 0.4305(3) 1.3146(3) 0.4510(3)
C6 C 0.4742(3) 1.2589(3) 0.3218(3)
H5 H 0.4236 1.2989 0.2564
C7 C 0.6444(3) 1.0761(3) 0.1542(3)
C8 C 0.6874(3) 1.0659(3) 0.6352(3)
C9 C 0.9000(4) 0.6344(3) -0.1586(3)
C10 C 0.9252(5) 0.4790(4) -0.1395(4)
H6 H 1.0097 0.4214 -0.1955
C11 C 0.8240(6) 0.4130(4) -0.0377(5)
H7 H 0.8390 0.3093 -0.0239
C12 C 0.6989(5) 0.4997(5) 0.0455(5)
H8 H 0.6293 0.4560 0.1158
C13 C 0.6808(4) 0.6519(4) 0.0212(4)
H9 H 0.5976 0.7111 0.0772
H10 H 1.008(5) 1.038(5) -0.154(4)
H12 H 0.954(5) 1.102(5) -0.243(5)
Cd1A Cd 0.28273(2) 1.03264(2) 0.103837(18)
Cd1_2 Cd 0.71727(2) 0.96736(2) 0.896163(18)
O1A O 0.4448(2) 0.8921(2) -0.07666(19)
O4_2 O 0.6310(2) 1.1244(3) -0.25031(19)
O8 O 0.0280(4) 0.2339(4) 0.5928(3)
H11 H 0.060(5) 0.183(5) 0.532(5)
H13 H -0.028(6) 0.291(6) 0.577(5)
loop_
_geom_bond_atom_site_label_1
_geom_bond_atom_site_label_2
_geom_bond_site_symmetry_1
_geom_bond_site_symmetry_2
Cd1 O1 1_555 1_555
O1 C7 1_555 1_555
O2 Cd1 1_555 1_555
O3 C8 1_555 1_555
O4 C8 1_555 1_555
O5 N1 1_555 1_555
O6 N1 1_555 1_555
O7 Cd1 1_555 1_555
O8 H11 1_555 1_555
N1 C5 1_555 1_555
N2 Cd1 1_555 1_555
N3 H1 1_555 1_555
H2 N3 1_555 1_555
C1 C2 1_555 1_555
C2 H3 1_555 1_555
C3 C2 1_555 1_555
C4 C3 1_555 1_555
H4 C4 1_555 1_555
C5 C4 1_555 1_555
C6 C1 1_555 1_555
H5 C6 1_555 1_555
C7 O2 1_555 1_555
C8 C3 1_555 1_555
C9 N2 1_555 1_555
C10 C9 1_555 1_555
H6 C10 1_555 1_555
C11 C10 1_555 1_555
H7 C11 1_555 1_555
C12 C11 1_555 1_555
H8 C12 1_555 1_555
C13 N2 1_555 1_555
H9 C13 1_555 1_555
H10 O7 1_555 1_555
H12 O7 1_555 1_555
H13 O8 1_555 1_555
Cd1A O1 1_555 1_555
Cd1_2 O4 1_555 1_555
O1A Cd1 1_555 1_555
O4_2 Cd1 1_555 1_555
N3 C9 1_555 1_555
C1 C7 1_555 1_555
C5 C6 1_555 1_555
C12 C13 1_555 1_555
Cd1A O1A 1_555 1_555

#END
