
#######################################################################
#
#                 Cambridge Crystallographic Data Centre
#                                CCDC 
#
#######################################################################
#
# If this CIF has been generated from an entry in the Cambridge 
# Structural Database, then it will include bibliographic, chemical, 
# crystal, experimental, refinement or atomic coordinate data resulting 
# from the CCDC's data processing and validation procedures.
#
#######################################################################

data_VAWBUS
_symmetry_cell_setting           triclinic
_symmetry_space_group_name_H-M   'P -1'
_symmetry_Int_Tables_number      2
_space_group_name_Hall           '-P 1'
loop_
_symmetry_equiv_pos_site_id
_symmetry_equiv_pos_as_xyz
1 x,y,z
2 -x,-y,-z
_cell_length_a                   9.4852(19)
_cell_length_b                   11.060(2)
_cell_length_c                   11.768(2)
_cell_angle_alpha                90.17(3)
_cell_angle_beta                 93.31(3)
_cell_angle_gamma                101.11(3)
_cell_volume                     1209.26
loop_
_atom_site_label
_atom_site_type_symbol
_atom_site_fract_x
_atom_site_fract_y
_atom_site_fract_z
Zn1 Zn -0.56494(3) 0.11467(3) -0.21531(3)
Zn2 Zn -1.34514(3) 0.01105(3) -0.04878(3)
O1 O -0.3189(2) 0.20278(18) -0.0486(2)
O2 O -0.4736(2) 0.28337(19) -0.1614(2)
O3 O -0.4578(3) 0.7347(2) -0.1383(2)
O4 O -0.3011(3) 0.84626(19) -0.0125(2)
O5 O 0.0386(4) 0.6553(3) 0.2121(3)
O6 O 0.0249(4) 0.4622(3) 0.2058(3)
O7 O -1.4260(2) 0.0948(2) -0.33243(19)
O8 O -1.2746(2) 0.0168(2) -0.21335(19)
O9 O -0.7629(2) 0.1071(2) -0.2728(2)
O10 O -0.6835(2) 0.2049(3) -0.4270(2)
O11 O -1.0371(3) 0.1852(3) -0.7521(2)
O12 O -1.2584(3) 0.1864(3) -0.7212(2)
O13 O -0.5620(2) -0.01749(16) -0.10756(16)
O14 O -1.1141(3) 0.0676(3) 0.0211(3)
N1 N -0.0160(3) 0.5549(3) 0.1756(2)
N2 N -1.1357(3) 0.1775(2) -0.6888(2)
C1 C -0.3062(3) 0.4157(2) -0.0390(3)
C2 C -0.3572(3) 0.5203(2) -0.0751(3)
H3 H -0.4318 0.5130 -0.1311
C3 C -0.2973(3) 0.6354(2) -0.0280(3)
C4 C -0.1858(3) 0.6473(3) 0.0544(3)
H4 H -0.1449 0.7239 0.0865
C5 C -0.1365(3) 0.5426(3) 0.0883(3)
C6 C -0.1944(3) 0.4277(3) 0.0447(3)
H5 H -0.1596 0.3589 0.0705
C7 C -0.3709(3) 0.2908(2) -0.0871(3)
C8 C -0.3584(3) 0.7473(2) -0.0644(2)
C9 C -1.1898(3) 0.0973(2) -0.3857(2)
C10 C -1.0477(3) 0.1046(2) -0.3446(2)
H6 H -1.0279 0.0844 -0.2695
C11 C -0.9348(3) 0.1419(2) -0.4156(2)
C12 C -0.9645(3) 0.1672(3) -0.5282(2)
H7 H -0.8902 0.1913 -0.5764
C13 C -1.1065(3) 0.1560(2) -0.5683(2)
C14 C -1.2205(3) 0.1232(3) -0.4990(2)
H8 H -1.3149 0.1186 -0.5275
C15 C -1.3061(3) 0.0661(3) -0.3026(2)
C16 C -0.7811(3) 0.1535(3) -0.3694(3)
Zn1_2 Zn -1.56494(3) 0.11467(3) -0.21531(3)
Zn2_2 Zn -0.34514(3) 0.01105(3) -0.04878(3)
Zn2_3 Zn -0.34514(3) 1.01105(3) -0.04878(3)
Zn2A Zn -0.65486(3) -0.01105(3) 0.04878(3)
O1_2 O -1.3189(2) 0.20278(18) -0.0486(2)
O4_2 O -1.3011(3) -0.15374(19) -0.0125(2)
O7_2 O -0.4260(2) 0.0948(2) -0.33243(19)
O13_2 O -1.5620(2) -0.01749(16) -0.10756(16)
O13A O -1.4380(2) 0.01749(16) 0.10756(16)
N3 N -0.3324(5) -0.5669(4) 0.3651(3)
N4 N -0.5405(4) -0.7272(4) 0.3736(3)
H1 H -0.5995 -0.7765 0.4130
H2 H -0.5518 -0.7286 0.3005
C17 C -0.4341(4) -0.6506(3) 0.4244(3)
C18 C -0.4171(3) -0.6489(3) 0.5383(3)
H9 H -0.4848 -0.7015 0.5783
C19 C -0.3074(5) -0.5755(4) 0.5986(3)
H10 H -0.3000 -0.5806 0.6775
C20 C -0.2089(5) -0.4949(4) 0.5448(4)
H11 H -0.1334 -0.4441 0.5858
C21 C -0.2222(5) -0.4895(4) 0.4276(4)
H12 H -0.1561 -0.4330 0.3898
loop_
_geom_bond_atom_site_label_1
_geom_bond_atom_site_label_2
_geom_bond_site_symmetry_1
_geom_bond_site_symmetry_2
Zn1 O2 1_555 1_555
Zn2 O8 1_555 1_555
O1 C7 1_555 1_555
O2 C7 1_555 1_555
O3 C8 1_555 1_555
O4 C8 1_555 1_555
O5 N1 1_555 1_555
O6 N1 1_555 1_555
O7 C15 1_555 1_555
O8 C15 1_555 1_555
O9 Zn1 1_555 1_555
O10 C16 1_555 1_555
O11 N2 1_555 1_555
O12 N2 1_555 1_555
O13 Zn1 1_555 1_555
O14 Zn2 1_555 1_555
N1 C5 1_555 1_555
N2 C13 1_555 1_555
N3 C17 1_555 1_555
N4 H1 1_555 1_555
H2 N4 1_555 1_555
C1 C2 1_555 1_555
C2 H3 1_555 1_555
C3 C2 1_555 1_555
C4 C3 1_555 1_555
H4 C4 1_555 1_555
C5 C4 1_555 1_555
C6 C1 1_555 1_555
H5 C6 1_555 1_555
C7 C1 1_555 1_555
C8 C3 1_555 1_555
C9 C10 1_555 1_555
C10 H6 1_555 1_555
C11 C10 1_555 1_555
C12 C11 1_555 1_555
H7 C12 1_555 1_555
C13 C12 1_555 1_555
C14 C9 1_555 1_555
H8 C14 1_555 1_555
C15 C9 1_555 1_555
C16 O9 1_555 1_555
C17 N4 1_555 1_555
C18 C17 1_555 1_555
H9 C18 1_555 1_555
C19 C18 1_555 1_555
H10 C19 1_555 1_555
C20 C19 1_555 1_555
H11 C20 1_555 1_555
C21 N3 1_555 1_555
H12 C21 1_555 1_555
Zn1_2 O7 1_555 1_555
Zn2_2 O1 1_555 1_555
Zn2_3 O4 1_555 1_555
Zn2A O13 1_555 1_555
O1_2 Zn2 1_555 1_555
O4_2 Zn2 1_555 1_555
O7_2 Zn1 1_555 1_555
O13_2 Zn2 1_555 1_555
O13A Zn2 1_555 1_555
O13 Zn2_2 1_555 1_555
C5 C6 1_555 1_555
C11 C16 1_555 1_555
C13 C14 1_555 1_555
C20 C21 1_555 1_555
Zn1_2 O13_2 1_555 1_555

#END
