
#######################################################################
#
#                 Cambridge Crystallographic Data Centre
#                                CCDC 
#
#######################################################################
#
# If this CIF has been generated from an entry in the Cambridge 
# Structural Database, then it will include bibliographic, chemical, 
# crystal, experimental, refinement or atomic coordinate data resulting 
# from the CCDC's data processing and validation procedures.
#
#######################################################################

data_VAWCIF
_symmetry_cell_setting           orthorhombic
_symmetry_space_group_name_H-M   'P 21 21 21'
_symmetry_Int_Tables_number      19
_space_group_name_Hall           'P 2ac 2ab'
loop_
_symmetry_equiv_pos_site_id
_symmetry_equiv_pos_as_xyz
1 x,y,z
2 1/2-x,-y,1/2+z
3 1/2+x,1/2-y,-z
4 -x,1/2+y,1/2-z
_cell_length_a                   4.0221(5)
_cell_length_b                   10.9748(12)
_cell_length_c                   17.809(2)
_cell_angle_alpha                90
_cell_angle_beta                 90
_cell_angle_gamma                90
_cell_volume                     786.12
loop_
_atom_site_label
_atom_site_type_symbol
_atom_site_fract_x
_atom_site_fract_y
_atom_site_fract_z
Ag1 Ag -0.2688(2) -0.20285(4) 0.22804(3)
S1 S -0.2354(7) -0.65350(13) 0.18503(9)
C1 C -0.2326(23) -0.5027(5) 0.1922(3)
N1 N -0.2257(23) -0.3978(5) 0.1942(3)
N2 N -0.2537(20) -0.0848(4) 0.1205(2)
C2 C -0.3754(22) 0.0292(6) 0.1179(4)
H1 H -0.4589(22) 0.0640(6) 0.1623(4)
C3 C -0.3826(23) 0.0965(7) 0.0533(5)
H2 H -0.4678(23) 0.1763(7) 0.0533(5)
C4 C -0.2618(28) 0.0448(7) -0.0122(3)
H3 H -0.2615(28) 0.0892(7) -0.0573(3)
C5 C -0.1434(21) -0.0715(8) -0.0100(4)
H4 H -0.0612(21) -0.1089(8) -0.0537(4)
C6 C -0.1464(19) -0.1335(7) 0.0574(4)
H5 H -0.0681(19) -0.2142(7) 0.0583(4)
Ag1C Ag 0.2688(2) -0.70285(4) 0.27196(3)
Ag1C_2 Ag -0.7312(2) -0.70285(4) 0.27196(3)
S1C S 0.2354(7) -0.15350(13) 0.31497(9)
S1C_2 S -0.7646(7) -0.15350(13) 0.31497(9)
loop_
_geom_bond_atom_site_label_1
_geom_bond_atom_site_label_2
_geom_bond_site_symmetry_1
_geom_bond_site_symmetry_2
Ag1 N1 1_555 1_555
S1 C1 1_555 1_555
C1 N1 1_555 1_555
N2 Ag1 1_555 1_555
C2 N2 1_555 1_555
H1 C2 1_555 1_555
C3 C2 1_555 1_555
H2 C3 1_555 1_555
C4 C3 1_555 1_555
H3 C4 1_555 1_555
C5 C4 1_555 1_555
H4 C5 1_555 1_555
C6 N2 1_555 1_555
H5 C6 1_555 1_555
Ag1C S1 1_555 1_555
Ag1C_2 S1 1_555 1_555
S1C Ag1 1_555 1_555
S1C_2 Ag1 1_555 1_555
C5 C6 1_555 1_555

#END
