
#######################################################################
#
#                 Cambridge Crystallographic Data Centre
#                                CCDC 
#
#######################################################################
#
# If this CIF has been generated from an entry in the Cambridge 
# Structural Database, then it will include bibliographic, chemical, 
# crystal, experimental, refinement or atomic coordinate data resulting 
# from the CCDC's data processing and validation procedures.
#
#######################################################################

data_VAWCAZ
_symmetry_cell_setting           triclinic
_symmetry_space_group_name_H-M   'P -1'
_symmetry_Int_Tables_number      2
_space_group_name_Hall           '-P 1'
loop_
_symmetry_equiv_pos_site_id
_symmetry_equiv_pos_as_xyz
1 x,y,z
2 -x,-y,-z
_cell_length_a                   12.2062(6)
_cell_length_b                   14.1995(7)
_cell_length_c                   15.5626(8)
_cell_angle_alpha                65.057(2)
_cell_angle_beta                 82.427(2)
_cell_angle_gamma                66.150(2)
_cell_volume                     2234.46
loop_
_atom_site_label
_atom_site_type_symbol
_atom_site_fract_x
_atom_site_fract_y
_atom_site_fract_z
Zn1 Zn 0.80441(2) 0.06861(2) 0.13238(2)
Zn2 Zn 0.63498(2) 0.16064(2) -0.098456(19)
Zn3 Zn 0.92754(2) 0.04997(2) -0.098440(19)
Zn4 Zn 0.57041(2) -0.55797(2) 0.600550(19)
Zn5 Zn 0.53030(2) 0.29164(2) 0.47516(2)
O1 O 0.85803(16) 0.10883(16) 0.22075(14)
O2 O 1.04137(17) -0.01742(16) 0.22027(14)
O3 O 1.33405(18) -0.15402(16) 0.46697(15)
O4 O 1.3369(2) -0.04512(19) 0.5336(2)
O5 O 0.92238(19) 0.23614(17) 0.53983(15)
O6 O 0.81267(18) 0.32589(17) 0.40965(17)
O7 O 0.80497(16) -0.08100(14) 0.20665(13)
O8 O 0.98494(16) -0.16632(14) 0.15938(13)
O9 O 0.61922(15) -0.29759(14) 0.46060(13)
O10 O 0.70154(15) -0.48637(14) 0.52526(12)
O11 O 1.10803(19) -0.67036(16) 0.43040(17)
O12 O 1.18256(19) -0.57223(18) 0.31147(18)
O13 O 0.53754(17) 0.26392(16) -0.03967(13)
O14 O 0.64082(17) 0.17675(17) 0.09789(15)
O15 O 0.50456(18) 0.32699(15) 0.34127(13)
O16 O 0.41485(17) 0.51531(15) 0.28881(13)
O17 O 0.1457(2) 0.68908(17) 0.00450(18)
O18 O 0.1830(2) 0.6114(2) -0.09332(19)
O19 O 0.43432(15) 0.38941(14) -0.32045(12)
O20 O 0.54462(15) 0.21722(14) -0.21794(12)
O21 O 0.34386(16) -0.00580(14) 0.01820(14)
O22 O 0.15126(16) 0.07312(15) 0.04462(15)
O23 O -0.0355(2) 0.4904(2) -0.0925(2)
O24 O 0.03493(19) 0.58086(16) -0.21872(17)
O25 O 0.91329(15) 0.07717(15) 0.02947(12)
O26 O 0.77642(18) 0.1843(2) -0.15017(16)
O27 O 0.71821(19) -0.70564(17) 0.65566(17)
O28 O 0.56786(16) -0.59001(13) 0.48023(12)
N1 N 0.8995(2) 0.24848(18) 0.46057(18)
N2 N 1.10467(19) -0.58077(18) 0.36864(17)
N3 N 0.2058(2) 0.61405(19) -0.02149(18)
N4 N 0.0419(2) 0.49514(19) -0.14996(19)
C1 C 1.0107(2) 0.0725(2) 0.32247(18)
C2 C 1.1249(2) 0.0022(2) 0.36517(18)
H4 H 1.1741 -0.0536 0.3448
C3 C 1.1668(2) 0.0136(2) 0.43740(18)
C4 C 1.0939(2) 0.0956(2) 0.46865(18)
H5 H 1.1199 0.1042 0.5174
C5 C 0.9804(2) 0.1646(2) 0.42499(19)
C6 C 0.9373(2) 0.1558(2) 0.35250(18)
H6 H 0.8611 0.2043 0.3245
C7 C 0.9674(2) 0.0535(2) 0.24813(18)
C8 C 1.2899(2) -0.0671(2) 0.48437(19)
C9 C 0.9022(2) -0.2777(2) 0.28543(17)
C10 C 0.8076(2) -0.2850(2) 0.34407(17)
H7 H 0.7420 -0.2193 0.3384
C11 C 0.8082(2) -0.38749(19) 0.41097(17)
C12 C 0.9067(2) -0.4862(2) 0.42035(17)
H8 H 0.9090 -0.5560 0.4647
C13 C 1.0009(2) -0.4772(2) 0.36158(18)
C14 C 1.0015(2) -0.3759(2) 0.29444(18)
H9 H 1.0664 -0.3731 0.2562
C15 C 0.8988(2) -0.1668(2) 0.21135(18)
C16 C 0.7016(2) -0.3925(2) 0.47127(17)
C17 C 0.4781(2) 0.3481(2) 0.06927(17)
C18 C 0.5006(2) 0.3457(2) 0.15546(17)
H10 H 0.5651 0.2858 0.1949
C19 C 0.4286(2) 0.4308(2) 0.18381(17)
C20 C 0.3322(2) 0.5205(2) 0.12464(18)
H11 H 0.2838 0.5793 0.1418
C21 C 0.3100(2) 0.5205(2) 0.03988(18)
C22 C 0.3810(2) 0.4366(2) 0.01044(18)
H12 H 0.3644 0.4391 -0.0473
C23 C 0.4506(2) 0.4252(2) 0.27910(18)
C24 C 0.5593(2) 0.2560(2) 0.04000(18)
C25 C 0.3421(2) 0.30103(19) -0.18420(17)
C26 C 0.3431(2) 0.1979(2) -0.11621(17)
H13 H 0.4103 0.1325 -0.1083
C27 C 0.2460(2) 0.1910(2) -0.06015(17)
C28 C 0.1466(2) 0.2894(2) -0.06989(19)
H14 H 0.0809 0.2869 -0.0326
C29 C 0.1487(2) 0.3908(2) -0.13673(19)
C30 C 0.2433(2) 0.3994(2) -0.19513(18)
H15 H 0.2406 0.4689 -0.2403
C31 C 0.4479(2) 0.30405(19) -0.24592(17)
C32 C 0.2452(2) 0.0779(2) 0.00664(17)
H20 H 0.920(3) 0.126(3) 0.014(3)
H21 H 0.781(4) 0.218(4) -0.148(4)
H22 H 0.737(4) -0.742(4) 0.707(4)
H23 H 0.623(3) -0.592(2) 0.462(2)
H24 H 0.776(4) -0.712(4) 0.628(3)
Zn2A Zn 0.36502(2) -0.16064(2) 0.098456(19)
Zn3A Zn 1.07246(2) -0.04997(2) 0.098440(19)
Zn3A_2 Zn 0.07246(2) -0.04997(2) 0.098440(19)
Zn4A Zn 0.42959(2) 0.55797(2) 0.399450(19)
Zn4_2 Zn 0.57041(2) 0.44203(2) -0.399450(19)
Zn4A_2 Zn 0.42959(2) -0.44203(2) 0.399450(19)
Zn5A Zn 1.46970(2) -0.29164(2) 0.52484(2)
Zn5A_2 Zn 0.46970(2) -0.29164(2) 0.52484(2)
Zn5_2 Zn 0.53030(2) -0.70836(2) 0.47516(2)
O2A O 0.95863(17) 0.01742(16) -0.22027(14)
O3A O 0.66595(18) 0.15402(16) 0.53303(15)
O8A O 1.01506(16) 0.16632(14) -0.15938(13)
O9A O 0.38078(15) 0.29759(14) 0.53940(13)
O16A O 0.58515(17) -0.51531(15) 0.71119(13)
O19_2 O 0.43432(15) -0.61059(14) 0.67955(12)
O21A O 0.65614(16) 0.00580(14) -0.01820(14)
O22A O 0.84874(16) -0.07312(15) -0.04462(15)
O25A O 1.08671(15) -0.07717(15) -0.02947(12)
O28A O 0.43214(16) -0.40999(13) 0.51977(12)
O28_2 O 0.56786(16) 0.40999(13) 0.48023(12)
H20A H 1.080(3) -0.126(3) -0.014(3)
H23A H 0.377(3) -0.408(2) 0.538(2)
H23_2 H 0.623(3) 0.408(2) 0.462(2)
N5 N 0.4883(3) 0.0938(2) 0.3471(2)
H1 H 0.5253 0.1051 0.3828
N6 N 0.2138(4) 0.2345(4) 0.2084(4)
H2 H 0.1769 0.2236 0.1723
H3 H 0.1818 0.2951 0.2182
C33 C 0.3824(3) 0.1690(3) 0.3111(3)
H16 H 0.3477 0.2308 0.3269
C34 C 0.3201(3) 0.1581(3) 0.2488(3)
C35 C 0.3747(4) 0.0588(4) 0.2343(3)
H17 H 0.3363 0.0452 0.1956
C36 C 0.4834(4) -0.0178(4) 0.2764(4)
H18 H 0.5184 -0.0843 0.2673
C37 C 0.5417(4) 0.0015(4) 0.3318(4)
H19 H 0.6179 -0.0495 0.3584
loop_
_geom_bond_atom_site_label_1
_geom_bond_atom_site_label_2
_geom_bond_site_symmetry_1
_geom_bond_site_symmetry_2
Zn1 O1 1_555 1_555
Zn2 O13 1_555 1_555
Zn3 O25 1_555 1_555
Zn4 O10 1_555 1_555
Zn5 O15 1_555 1_555
O1 C7 1_555 1_555
O2 C7 1_555 1_555
O3 C8 1_555 1_555
O4 C8 1_555 1_555
O5 N1 1_555 1_555
O6 N1 1_555 1_555
O7 Zn1 1_555 1_555
O8 C15 1_555 1_555
O9 C16 1_555 1_555
O10 C16 1_555 1_555
O11 N2 1_555 1_555
O12 N2 1_555 1_555
O13 C24 1_555 1_555
O14 Zn1 1_555 1_555
O15 C23 1_555 1_555
O16 C23 1_555 1_555
O17 N3 1_555 1_555
O18 N3 1_555 1_555
O19 C31 1_555 1_555
O20 Zn2 1_555 1_555
O21 C32 1_555 1_555
O22 C32 1_555 1_555
O23 N4 1_555 1_555
O24 N4 1_555 1_555
O25 Zn1 1_555 1_555
O26 Zn2 1_555 1_555
O27 Zn4 1_555 1_555
O28 Zn4 1_555 1_555
N1 C5 1_555 1_555
N2 C13 1_555 1_555
N3 C21 1_555 1_555
N4 C29 1_555 1_555
N5 H1 1_555 1_555
N6 H2 1_555 1_555
H3 N6 1_555 1_555
C1 C2 1_555 1_555
C2 H4 1_555 1_555
C3 C2 1_555 1_555
C4 C3 1_555 1_555
H5 C4 1_555 1_555
C5 C4 1_555 1_555
C6 C1 1_555 1_555
H6 C6 1_555 1_555
C7 C1 1_555 1_555
C8 C3 1_555 1_555
C9 C10 1_555 1_555
C10 H7 1_555 1_555
C11 C10 1_555 1_555
C12 C11 1_555 1_555
H8 C12 1_555 1_555
C13 C12 1_555 1_555
C14 C9 1_555 1_555
H9 C14 1_555 1_555
C15 O7 1_555 1_555
C16 C11 1_555 1_555
C17 C18 1_555 1_555
C18 H10 1_555 1_555
C19 C18 1_555 1_555
C20 C19 1_555 1_555
H11 C20 1_555 1_555
C21 C20 1_555 1_555
C22 C17 1_555 1_555
H12 C22 1_555 1_555
C23 C19 1_555 1_555
C24 O14 1_555 1_555
C25 C26 1_555 1_555
C26 H13 1_555 1_555
C27 C26 1_555 1_555
C28 C27 1_555 1_555
H14 C28 1_555 1_555
C29 C28 1_555 1_555
C30 C25 1_555 1_555
H15 C30 1_555 1_555
C31 O20 1_555 1_555
C32 C27 1_555 1_555
C33 N5 1_555 1_555
H16 C33 1_555 1_555
C34 N6 1_555 1_555
C35 C34 1_555 1_555
H17 C35 1_555 1_555
C36 C35 1_555 1_555
H18 C36 1_555 1_555
C37 N5 1_555 1_555
H19 C37 1_555 1_555
H20 O25 1_555 1_555
H21 O26 1_555 1_555
H22 O27 1_555 1_555
H23 O28 1_555 1_555
H24 O27 1_555 1_555
Zn2A O21 1_555 1_555
Zn3A O2 1_555 1_555
Zn3A_2 O22 1_555 1_555
Zn4A O16 1_555 1_555
Zn4_2 O19 1_555 1_555
Zn4A_2 O28 1_555 1_555
Zn5A O3 1_555 1_555
Zn5A_2 O9 1_555 1_555
Zn5_2 O28 1_555 1_555
O2A Zn3 1_555 1_555
O3A Zn5 1_555 1_555
O8A Zn3 1_555 1_555
O9A Zn5 1_555 1_555
O16A Zn4 1_555 1_555
O19_2 Zn4 1_555 1_555
O21A Zn2 1_555 1_555
O22A Zn3 1_555 1_555
O25A Zn3 1_555 1_555
O28A Zn4 1_555 1_555
O28_2 Zn5 1_555 1_555
H20A O25A 1_555 1_555
H23A O28A 1_555 1_555
H23_2 O28_2 1_555 1_555
Zn3 O26 1_555 1_555
O8 Zn3A 1_555 1_555
O25 Zn3A 1_555 1_555
C5 C6 1_555 1_555
C9 C15 1_555 1_555
C13 C14 1_555 1_555
C17 C24 1_555 1_555
C21 C22 1_555 1_555
C25 C31 1_555 1_555
C29 C30 1_555 1_555
C33 C34 1_555 1_555
C36 C37 1_555 1_555
Zn3A O25A 1_555 1_555
Zn4A O28_2 1_555 1_555
Zn4A_2 O28A 1_555 1_555
Zn5A_2 O28A 1_555 1_555

#END
