
#######################################################################
#
#                 Cambridge Crystallographic Data Centre
#                                CCDC 
#
#######################################################################
#
# If this CIF has been generated from an entry in the Cambridge 
# Structural Database, then it will include bibliographic, chemical, 
# crystal, experimental, refinement or atomic coordinate data resulting 
# from the CCDC's data processing and validation procedures.
#
#######################################################################

data_VAWCED
_symmetry_cell_setting           triclinic
_symmetry_space_group_name_H-M   'P -1'
_symmetry_Int_Tables_number      2
_space_group_name_Hall           '-P 1'
loop_
_symmetry_equiv_pos_site_id
_symmetry_equiv_pos_as_xyz
1 x,y,z
2 -x,-y,-z
_cell_length_a                   12.608(4)
_cell_length_b                   14.324(5)
_cell_length_c                   15.693(5)
_cell_angle_alpha                63.256(4)
_cell_angle_beta                 81.245(4)
_cell_angle_gamma                64.466(3)
_cell_volume                     2280.67
loop_
_atom_site_label
_atom_site_type_symbol
_atom_site_fract_x
_atom_site_fract_y
_atom_site_fract_z
Zn1 Zn 0.57349(4) -0.05937(4) 0.59861(3)
Zn2 Zn 0.63873(5) -0.33079(4) 0.90661(4)
Zn3 Zn 0.19027(4) 0.42782(4) 0.86862(4)
Zn4 Zn 0.07379(4) -0.55116(4) 1.09720(4)
Zn5 Zn 0.46990(5) 0.21038(4) 0.52052(4)
O1 O 0.4450(3) -0.1149(3) 0.6803(2)
O2 O 0.5514(3) -0.2883(3) 0.7912(2)
O3 O 0.3389(3) -0.5127(3) 1.0067(3)
O4 O 0.1496(3) -0.4276(3) 1.0310(3)
O5 O -0.0288(4) -0.0055(4) 0.8904(4)
O6 O 0.0444(4) 0.0867(3) 0.7688(3)
O7 O 0.4619(3) 0.2289(3) 1.0353(2)
O8 O 0.3478(3) 0.3091(3) 0.9052(3)
O9 O 0.4960(3) 0.1698(3) 0.6556(2)
O10 O 0.5922(3) -0.0217(3) 0.7099(2)
O11 O 0.8697(3) -0.1856(3) 0.9860(3)
O12 O 0.8272(4) -0.1042(4) 1.0807(4)
O13 O 0.1350(3) 0.3912(3) 0.7824(3)
O14 O -0.0487(3) 0.5130(3) 0.7855(2)
O15 O -0.3364(3) 0.6479(3) 0.5438(3)
O16 O -0.3206(4) 0.5528(4) 0.4610(4)
O17 O 0.0849(3) 0.2659(3) 0.4640(3)
O18 O 0.1968(3) 0.1776(3) 0.5924(3)
O19 O 0.9897(3) 0.3327(3) 0.1695(2)
O20 O 0.8089(3) 0.4218(3) 0.2090(2)
O21 O 0.6162(3) 0.2021(3) 0.4558(2)
O22 O 0.6989(3) 0.0096(3) 0.5204(2)
O23 O 1.1051(4) -0.1794(3) 0.4411(3)
O24 O 1.1870(4) -0.0801(4) 0.3320(4)
O25 O 0.7184(3) -0.2146(3) 0.6557(2)
H1 H 0.7479 -0.2003 0.6143
H2 H 0.7255 -0.2402 0.7064
O26 O 0.7763(3) -0.3115(3) 0.8498(2)
H3 H 0.7781 -0.2801 0.8689
O27 O 0.0838(3) 0.4206(2) 0.9726(2)
H4 H 0.0846 0.3702 0.9855
O28 O 0.4350(3) 0.0905(2) 0.5197(2)
H5 H 0.3830 0.0938 0.5413
N1 N 0.0490(4) -0.0009(4) 0.8345(3)
N2 N 0.8049(4) -0.1105(4) 1.0115(3)
N3 N 0.1087(4) 0.2541(4) 0.5425(3)
N4 N 1.1052(4) -0.0883(4) 0.3815(3)
C1 C 0.3484(4) -0.2027(4) 0.8122(3)
C2 C 0.3465(4) -0.3073(4) 0.8793(3)
H6 H 0.4137 -0.3746 0.8912
C3 C 0.2468(4) -0.3127(4) 0.9283(3)
C4 C 0.1483(4) -0.2110(4) 0.9138(3)
H7 H 0.0808 -0.2125 0.9469
C5 C 0.1524(4) -0.1069(4) 0.8489(3)
C6 C 0.2493(4) -0.1010(4) 0.7968(3)
H8 H 0.2489 -0.0307 0.7522
C7 C 0.4566(4) -0.2006(4) 0.7567(3)
C8 C 0.2429(4) -0.4254(4) 0.9935(3)
C9 C 0.5216(4) 0.1464(4) 0.9268(3)
C10 C 0.4997(4) 0.1482(4) 0.8412(3)
H9 H 0.4329 0.2064 0.8028
C11 C 0.5761(4) 0.0644(4) 0.8129(3)
C12 C 0.6759(4) -0.0224(4) 0.8690(3)
H10 H 0.7270 -0.0798 0.8512
C13 C 0.6984(4) -0.0219(4) 0.9532(3)
C14 C 0.6220(4) 0.0609(4) 0.9830(3)
H11 H 0.6381 0.0588 1.0399
C15 C 0.4364(4) 0.2351(4) 0.9582(3)
C16 C 0.5534(4) 0.0706(4) 0.7180(3)
C17 C -0.0114(4) 0.4278(4) 0.6798(3)
C18 C -0.1231(4) 0.4974(4) 0.6385(3)
H12 H -0.1736 0.5522 0.6594
C19 C -0.1621(4) 0.4876(4) 0.5658(3)
C20 C -0.0855(4) 0.4049(4) 0.5351(3)
H13 H -0.1091 0.3963 0.4867
C21 C 0.0252(4) 0.3371(4) 0.5780(3)
C22 C 0.0654(4) 0.3456(4) 0.6502(3)
H14 H 0.1411 0.2978 0.6779
C23 C 0.0286(4) 0.4452(4) 0.7561(3)
C24 C -0.2824(5) 0.5681(4) 0.5181(4)
C25 C 0.9037(4) 0.2202(4) 0.2906(3)
C26 C 0.8064(4) 0.2142(4) 0.3448(3)
H15 H 0.7405 0.2815 0.3364
C27 C 0.8058(4) 0.1098(4) 0.4110(3)
C28 C 0.9044(4) 0.0093(4) 0.4233(3)
H16 H 0.9059 -0.0617 0.4671
C29 C 0.9997(4) 0.0168(4) 0.3695(3)
C30 C 1.0021(4) 0.1204(4) 0.3033(3)
H17 H 1.0682 0.1226 0.2683
C31 C 0.9019(4) 0.3330(4) 0.2176(3)
C32 C 0.6990(4) 0.1044(4) 0.4678(3)
Zn1A Zn 0.42651(4) 0.05937(4) 0.40139(3)
Zn2A Zn 0.36127(5) -0.66921(4) 1.09339(4)
Zn2A_2 Zn 0.36127(5) 0.33079(4) 1.09339(4)
Zn3A Zn 0.80973(4) 0.57218(4) 0.13138(4)
Zn4A Zn -0.07379(4) 0.55116(4) 0.90280(4)
Zn4_2 Zn 1.07379(4) 0.44884(4) 0.09720(4)
Zn4A_2 Zn 0.92621(4) -0.44884(4) 0.90280(4)
Zn4_3 Zn 0.07379(4) 0.44884(4) 1.09720(4)
Zn5A Zn -0.46990(5) 0.78962(4) 0.47948(4)
O3A O 0.6611(3) -0.4873(3) 0.9933(3)
O7A O 0.5381(3) -0.2289(3) 0.9647(2)
O14A O 0.0487(3) -0.5130(3) 1.2145(2)
O15A O 0.3364(3) 0.3521(3) 0.4562(3)
O19_2 O -0.0103(3) -0.6673(3) 1.1695(2)
O20A O 0.1911(3) 0.5782(3) 0.7910(2)
O26A O 0.2237(3) -0.6885(3) 1.1502(2)
H3A H 0.2219 -0.7199 1.1311
O27_2 O 0.0838(3) -0.5794(2) 0.9726(2)
O27A O -0.0838(3) -0.4206(2) 1.0274(2)
H4_2 H 0.0846 -0.6298 0.9855
H4A H -0.0846 -0.3702 1.0145
O28A O 0.5650(3) -0.0905(2) 0.4803(2)
H5A H 0.6170 -0.0938 0.4587
N5 N 0.4995(6) 0.5999(6) 0.3534(5)
H18 H 0.5386 0.6100 0.3865
N6 N 0.3216(6) 0.5536(7) 0.1969(5)
H19 H 0.3520 0.4981 0.1804
H20 H 0.2497 0.6022 0.1798
C33 C 0.5517(11) 0.5148(9) 0.3284(8)
H21 H 0.6307 0.4667 0.3463
C34 C 0.4940(9) 0.4965(10) 0.2787(8)
H22 H 0.5328 0.4336 0.2647
C35 C 0.3838(8) 0.5634(9) 0.2479(6)
C36 C 0.3224(7) 0.6652(7) 0.2716(5)
H23 H 0.2457 0.7187 0.2496
C37 C 0.3847(7) 0.6715(7) 0.3243(6)
H24 H 0.3487 0.7296 0.3444
O29 O 0.1012(7) 0.7447(6) 0.1346(5)
H25 H 0.1495 0.7689 0.1350
H26 H 0.0877 0.7021 0.1200
loop_
_geom_bond_atom_site_label_1
_geom_bond_atom_site_label_2
_geom_bond_site_symmetry_1
_geom_bond_site_symmetry_2
Zn1 O1 1_555 1_555
Zn2 O2 1_555 1_555
Zn3 O8 1_555 1_555
Zn4 O4 1_555 1_555
Zn5 O9 1_555 1_555
O1 C7 1_555 1_555
O2 C7 1_555 1_555
O3 C8 1_555 1_555
O4 C8 1_555 1_555
O5 N1 1_555 1_555
O6 N1 1_555 1_555
O7 C15 1_555 1_555
O8 C15 1_555 1_555
O9 C16 1_555 1_555
O10 Zn1 1_555 1_555
O11 N2 1_555 1_555
O12 N2 1_555 1_555
O13 Zn3 1_555 1_555
O14 C23 1_555 1_555
O15 C24 1_555 1_555
O16 C24 1_555 1_555
O17 N3 1_555 1_555
O18 N3 1_555 1_555
O19 C31 1_555 1_555
O20 C31 1_555 1_555
O21 Zn5 1_555 1_555
O22 Zn1 1_555 1_555
O23 N4 1_555 1_555
O24 N4 1_555 1_555
O25 Zn1 1_555 1_555
H1 O25 1_555 1_555
H2 O25 1_555 1_555
O26 Zn2 1_555 1_555
H3 O26 1_555 1_555
O27 Zn3 1_555 1_555
H4 O27 1_555 1_555
O28 Zn1 1_555 1_555
H5 O28 1_555 1_555
N1 C5 1_555 1_555
N2 C13 1_555 1_555
N3 C21 1_555 1_555
N4 C29 1_555 1_555
C1 C2 1_555 1_555
C2 H6 1_555 1_555
C3 C2 1_555 1_555
C4 C3 1_555 1_555
H7 C4 1_555 1_555
C5 C4 1_555 1_555
C6 C1 1_555 1_555
H8 C6 1_555 1_555
C7 C1 1_555 1_555
C8 C3 1_555 1_555
C9 C10 1_555 1_555
C10 H9 1_555 1_555
C11 C10 1_555 1_555
C12 C11 1_555 1_555
H10 C12 1_555 1_555
C13 C12 1_555 1_555
C14 C9 1_555 1_555
H11 C14 1_555 1_555
C15 C9 1_555 1_555
C16 O10 1_555 1_555
C17 C18 1_555 1_555
C18 H12 1_555 1_555
C19 C18 1_555 1_555
C20 C19 1_555 1_555
H13 C20 1_555 1_555
C21 C20 1_555 1_555
C22 C17 1_555 1_555
H14 C22 1_555 1_555
C23 O13 1_555 1_555
C24 C19 1_555 1_555
C25 C26 1_555 1_555
C26 H15 1_555 1_555
C27 C26 1_555 1_555
C28 C27 1_555 1_555
H16 C28 1_555 1_555
C29 C28 1_555 1_555
C30 C25 1_555 1_555
H17 C30 1_555 1_555
C31 C25 1_555 1_555
C32 O21 1_555 1_555
N5 H18 1_555 1_555
N6 H19 1_555 1_555
H20 N6 1_555 1_555
C33 N5 1_555 1_555
H21 C33 1_555 1_555
C34 C33 1_555 1_555
H22 C34 1_555 1_555
C35 N6 1_555 1_555
C36 C35 1_555 1_555
H23 C36 1_555 1_555
C37 N5 1_555 1_555
H24 C37 1_555 1_555
O29 H25 1_555 1_555
H26 O29 1_555 1_555
Zn1A O28 1_555 1_555
Zn2A O3 1_555 1_555
Zn2A_2 O7 1_555 1_555
Zn3A O20 1_555 1_555
Zn4A O14 1_555 1_555
Zn4_2 O19 1_555 1_555
Zn4A_2 O26 1_555 1_555
Zn4_3 O27 1_555 1_555
Zn5A O15 1_555 1_555
O3A Zn2 1_555 1_555
O7A Zn2 1_555 1_555
O14A Zn4 1_555 1_555
O15A Zn5 1_555 1_555
O19_2 Zn4 1_555 1_555
O20A Zn3 1_555 1_555
O26A Zn4 1_555 1_555
H3A O26A 1_555 1_555
O27_2 Zn4 1_555 1_555
O27A Zn4 1_555 1_555
H4_2 O27_2 1_555 1_555
H4A O27A 1_555 1_555
O28A Zn1 1_555 1_555
H5A O28A 1_555 1_555
Zn5 O28 1_555 1_555
O22 C32 1_555 1_555
O27 Zn4A 1_555 1_555
C5 C6 1_555 1_555
C11 C16 1_555 1_555
C13 C14 1_555 1_555
C17 C23 1_555 1_555
C21 C22 1_555 1_555
C27 C32 1_555 1_555
C29 C30 1_555 1_555
C34 C35 1_555 1_555
C36 C37 1_555 1_555
Zn1A O28A 1_555 1_555
Zn2A O26A 1_555 1_555

#END
