
#######################################################################
#
#                 Cambridge Crystallographic Data Centre
#                                CCDC 
#
#######################################################################
#
# If this CIF has been generated from an entry in the Cambridge 
# Structural Database, then it will include bibliographic, chemical, 
# crystal, experimental, refinement or atomic coordinate data resulting 
# from the CCDC's data processing and validation procedures.
#
#######################################################################

data_VAWCUR
_symmetry_cell_setting           monoclinic
_symmetry_space_group_name_H-M   'P 21/n'
_symmetry_Int_Tables_number      14
_space_group_name_Hall           '-P 2yn'
loop_
_symmetry_equiv_pos_site_id
_symmetry_equiv_pos_as_xyz
1 x,y,z
2 1/2+x,1/2-y,1/2+z
3 -x,-y,-z
4 1/2-x,1/2+y,1/2-z
_cell_length_a                   14.3250(7)
_cell_length_b                   10.9567(5)
_cell_length_c                   17.1474(7)
_cell_angle_alpha                90
_cell_angle_beta                 110.686(4)
_cell_angle_gamma                90
_cell_volume                     2517.85
loop_
_atom_site_label
_atom_site_type_symbol
_atom_site_fract_x
_atom_site_fract_y
_atom_site_fract_z
Ag1 Ag -0.692040(15) 0.54826(2) -0.300270(14)
Cu1 Cu -0.34120(2) 0.28054(3) -0.28101(2)
S1 S -0.56665(5) 0.60800(6) -0.37103(4)
C1 C -0.4818(2) 0.5005(2) -0.3340(2)
N1 N -0.4212(2) 0.4270(2) -0.3090(2)
S2 S -0.61843(6) 0.45381(7) -0.15847(5)
C2 C -0.6800(2) 0.3236(2) -0.1744(2)
N2 N -0.7215(2) 0.2317(2) -0.18406(15)
N3 N -0.8146(2) 0.4381(2) -0.40487(15)
C3 C -0.8529(2) 0.4929(3) -0.4782(2)
H1 H -0.8377(2) 0.5757(3) -0.4818(2)
C4 C -0.9137(3) 0.4354(4) -0.5497(2)
H2 H -0.9391(3) 0.4778(4) -0.6005(2)
C5 C -0.9359(3) 0.3146(4) -0.5444(2)
H3 H -0.9766(3) 0.2723(4) -0.5919(2)
C6 C -0.8984(3) 0.2572(3) -0.4699(2)
H4 H -0.9133(3) 0.1747(3) -0.4648(2)
C7 C -0.8378(2) 0.3218(3) -0.4013(2)
H5 H -0.8119(2) 0.2812(3) -0.3498(2)
N4 N -0.2562(2) 0.2577(2) -0.15730(14)
C8 C -0.2408(2) 0.3469(3) -0.1017(2)
H6 H -0.2712(2) 0.4230(3) -0.1194(2)
C9 C -0.1817(3) 0.3324(4) -0.0186(2)
H7 H -0.1723(3) 0.3975(4) 0.0191(2)
C10 C -0.1370(3) 0.2218(4) 0.0078(2)
H8 H -0.0962(3) 0.2101(4) 0.0638(2)
C11 C -0.1523(2) 0.1297(3) -0.0477(2)
H9 H -0.1227(2) 0.0529(3) -0.0310(2)
C12 C -0.2118(2) 0.1504(3) -0.1291(2)
H10 H -0.2221(2) 0.0858(3) -0.1673(2)
N5 N -0.25705(15) 0.2367(2) -0.35190(13)
C13 C -0.2983(2) 0.2275(3) -0.4346(2)
H11 H -0.3659(2) 0.2488(3) -0.4601(2)
C14 C -0.2478(2) 0.1888(3) -0.4845(2)
H12 H -0.2804(2) 0.1836(3) -0.5425(2)
C15 C -0.1496(3) 0.1576(3) -0.4490(2)
H13 H -0.1135(3) 0.1303(3) -0.4819(2)
C16 C -0.1051(2) 0.1671(3) -0.3645(2)
H14 H -0.0374(2) 0.1473(3) -0.3383(2)
C17 C -0.1610(2) 0.2063(3) -0.3183(2)
H15 H -0.1298(2) 0.2119(3) -0.2601(2)
N6 N -0.4451(2) 0.1376(2) -0.30282(15)
C18 C -0.5230(2) 0.1477(3) -0.2781(2)
H16 H -0.5364(2) 0.2237(3) -0.2589(2)
C19 C -0.5849(2) 0.0505(3) -0.2798(2)
H17 H -0.6389(2) 0.0608(3) -0.2614(2)
C20 C -0.5678(2) -0.0600(3) -0.3080(2)
H18 H -0.6086(2) -0.1274(3) -0.3084(2)
C21 C -0.4893(3) -0.0710(3) -0.3360(3)
H19 H -0.4762(3) -0.1455(3) -0.3574(3)
C22 C -0.4308(2) 0.0294(3) -0.3319(2)
H20 H -0.3770(2) 0.0212(3) -0.3508(2)
N2C N -0.7785(2) 0.7317(2) -0.31594(15)
Ag1C Ag -0.807960(15) 0.04826(2) -0.199730(14)
loop_
_geom_bond_atom_site_label_1
_geom_bond_atom_site_label_2
_geom_bond_site_symmetry_1
_geom_bond_site_symmetry_2
Ag1 S1 1_555 1_555
Cu1 N1 1_555 1_555
S1 C1 1_555 1_555
C1 N1 1_555 1_555
S2 Ag1 1_555 1_555
C2 S2 1_555 1_555
N2 C2 1_555 1_555
N3 Ag1 1_555 1_555
C3 N3 1_555 1_555
H1 C3 1_555 1_555
C4 C3 1_555 1_555
H2 C4 1_555 1_555
C5 C4 1_555 1_555
H3 C5 1_555 1_555
C6 C5 1_555 1_555
H4 C6 1_555 1_555
C7 N3 1_555 1_555
H5 C7 1_555 1_555
N4 Cu1 1_555 1_555
C8 N4 1_555 1_555
H6 C8 1_555 1_555
C9 C8 1_555 1_555
H7 C9 1_555 1_555
C10 C9 1_555 1_555
H8 C10 1_555 1_555
C11 C10 1_555 1_555
H9 C11 1_555 1_555
C12 N4 1_555 1_555
H10 C12 1_555 1_555
N5 Cu1 1_555 1_555
C13 N5 1_555 1_555
H11 C13 1_555 1_555
C14 C13 1_555 1_555
H12 C14 1_555 1_555
C15 C14 1_555 1_555
H13 C15 1_555 1_555
C16 C15 1_555 1_555
H14 C16 1_555 1_555
C17 N5 1_555 1_555
H15 C17 1_555 1_555
N6 Cu1 1_555 1_555
C18 N6 1_555 1_555
H16 C18 1_555 1_555
C19 C18 1_555 1_555
H17 C19 1_555 1_555
C20 C19 1_555 1_555
H18 C20 1_555 1_555
C21 C20 1_555 1_555
H19 C21 1_555 1_555
C22 N6 1_555 1_555
H20 C22 1_555 1_555
N2C Ag1 1_555 1_555
Ag1C N2 1_555 1_555
C6 C7 1_555 1_555
C11 C12 1_555 1_555
C16 C17 1_555 1_555
C21 C22 1_555 1_555

#END
