
#######################################################################
#
#                 Cambridge Crystallographic Data Centre
#                                CCDC 
#
#######################################################################
#
# If this CIF has been generated from an entry in the Cambridge 
# Structural Database, then it will include bibliographic, chemical, 
# crystal, experimental, refinement or atomic coordinate data resulting 
# from the CCDC's data processing and validation procedures.
#
#######################################################################

data_VAWGIJ
_symmetry_cell_setting           orthorhombic
_symmetry_space_group_name_H-M   'F d d 2'
_symmetry_Int_Tables_number      43
_space_group_name_Hall           'F 2 -2d'
loop_
_symmetry_equiv_pos_site_id
_symmetry_equiv_pos_as_xyz
1 x,y,z
2 1/4-x,1/4+y,1/4+z
3 1/4+x,1/4-y,1/4+z
4 1/2-x,-y,1/2+z
5 x,1/2+y,1/2+z
6 1/4-x,3/4+y,3/4+z
7 1/4+x,3/4-y,3/4+z
8 1/2-x,1/2-y,z
9 1/2+x,y,1/2+z
10 3/4-x,1/4+y,3/4+z
11 3/4+x,1/4-y,3/4+z
12 -x,-y,z
13 1/2+x,1/2+y,z
14 3/4-x,3/4+y,1/4+z
15 3/4+x,3/4-y,1/4+z
16 -x,1/2-y,1/2+z
_cell_length_a                   52.305(4)
_cell_length_b                   12.088(1)
_cell_length_c                   12.785(1)
_cell_angle_alpha                90
_cell_angle_beta                 90
_cell_angle_gamma                90
_cell_volume                     8083.48
loop_
_atom_site_label
_atom_site_type_symbol
_atom_site_fract_x
_atom_site_fract_y
_atom_site_fract_z
Ag1 Ag 0.146960(10) -0.36241(4) -0.55216(4)
Cu1 Cu 0.19627(2) 0.04944(7) -0.46150(6)
S1 S 0.12331(3) -0.1917(2) -0.47101(14)
C1 C 0.09800(11) -0.1897(5) -0.5493(5)
N1 N 0.08087(11) -0.1863(5) -0.6054(4)
S2 S 0.19451(4) -0.3234(2) -0.5809(2)
C2 C 0.19474(12) -0.1915(6) -0.5465(5)
N2 N 0.19519(12) -0.0998(5) -0.5261(4)
N3 N 0.14708(11) -0.4896(5) -0.4169(4)
C3 C 0.1636(2) -0.5730(7) -0.4171(6)
H1 H 0.1742(2) -0.5824(7) -0.4759(6)
C4 C 0.1660(2) -0.6469(7) -0.3347(8)
H2 H 0.1779(2) -0.7049(7) -0.3370(8)
C5 C 0.1504(2) -0.6325(8) -0.2503(8)
H3 H 0.1515(2) -0.6805(8) -0.1926(8)
C6 C 0.1334(2) -0.5489(8) -0.2504(6)
H4 H 0.1225(2) -0.5385(8) -0.1927(6)
C7 C 0.1319(2) -0.4790(6) -0.3341(6)
H5 H 0.1198(2) -0.4216(6) -0.3331(6)
N4 N 0.19627(10) 0.1742(5) -0.5701(5)
C8 C 0.1799(2) 0.1746(7) -0.6482(7)
H6 H 0.1675(2) 0.1184(7) -0.6496(7)
C9 C 0.1795(2) 0.2510(10) -0.7281(8)
H7 H 0.1676(2) 0.2458(10) -0.7828(8)
C10 C 0.1970(2) 0.3342(10) -0.7251(9)
H8 H 0.1971(2) 0.3892(10) -0.7770(9)
C11 C 0.2139(2) 0.3362(9) -0.6464(10)
H9 H 0.2263(2) 0.3924(9) -0.6436(10)
C12 C 0.2132(2) 0.2555(7) -0.5693(8)
H10 H 0.2252(2) 0.2587(7) -0.5145(8)
N5 N 0.23167(10) 0.0484(5) -0.3855(4)
C13 C 0.23508(12) 0.1071(6) -0.2978(7)
H11 H 0.22224(12) 0.1572(6) -0.2778(7)
C14 C 0.25629(14) 0.0980(6) -0.2358(5)
H12 H 0.25781(14) 0.1424(6) -0.1758(5)
C15 C 0.2751(2) 0.0257(8) -0.2602(6)
H13 H 0.2896(2) 0.0176(8) -0.2178(6)
C16 C 0.27186(15) -0.0362(8) -0.3508(7)
H14 H 0.28453(15) -0.0868(8) -0.3715(7)
C17 C 0.25015(15) -0.0234(7) -0.4102(6)
H15 H 0.24821(15) -0.0670(7) -0.4706(6)
S1E S 0.12669(3) -0.4417(2) -0.72101(14)
Ag1A Ag 0.103040(10) -0.11241(4) -0.30216(4)
S1A S 0.12669(3) 0.0583(2) -0.22101(14)
C1A C 0.15200(11) 0.0603(5) -0.2993(5)
N1A N 0.16913(11) 0.0637(5) -0.3554(4)
Cu1E Cu 0.05373(2) -0.20056(7) -0.71150(6)
loop_
_geom_bond_atom_site_label_1
_geom_bond_atom_site_label_2
_geom_bond_site_symmetry_1
_geom_bond_site_symmetry_2
Ag1 S1 1_555 1_555
Cu1 N2 1_555 1_555
S1 C1 1_555 1_555
C1 N1 1_555 1_555
N1 Cu1E 1_555 1_555
S2 Ag1 1_555 1_555
C2 S2 1_555 1_555
N2 C2 1_555 1_555
N3 Ag1 1_555 1_555
C3 N3 1_555 1_555
H1 C3 1_555 1_555
C4 C3 1_555 1_555
H2 C4 1_555 1_555
C5 C4 1_555 1_555
H3 C5 1_555 1_555
C6 C5 1_555 1_555
H4 C6 1_555 1_555
C7 N3 1_555 1_555
H5 C7 1_555 1_555
N4 Cu1 1_555 1_555
C8 N4 1_555 1_555
H6 C8 1_555 1_555
C9 C8 1_555 1_555
H7 C9 1_555 1_555
C10 C9 1_555 1_555
H8 C10 1_555 1_555
C11 C10 1_555 1_555
H9 C11 1_555 1_555
C12 N4 1_555 1_555
H10 C12 1_555 1_555
N5 Cu1 1_555 1_555
C13 N5 1_555 1_555
H11 C13 1_555 1_555
C14 C13 1_555 1_555
H12 C14 1_555 1_555
C15 C14 1_555 1_555
H13 C15 1_555 1_555
C16 C15 1_555 1_555
H14 C16 1_555 1_555
C17 N5 1_555 1_555
H15 C17 1_555 1_555
S1E Ag1 1_555 1_555
Ag1A S1 1_555 1_555
S1A Ag1A 1_555 1_555
C1A S1A 1_555 1_555
N1A Cu1 1_555 1_555
C6 C7 1_555 1_555
C11 C12 1_555 1_555
C16 C17 1_555 1_555
C1A N1A 1_555 1_555

#END
