
#######################################################################
#
#                 Cambridge Crystallographic Data Centre
#                                CCDC 
#
#######################################################################
#
# If this CIF has been generated from an entry in the Cambridge 
# Structural Database, then it will include bibliographic, chemical, 
# crystal, experimental, refinement or atomic coordinate data resulting 
# from the CCDC's data processing and validation procedures.
#
#######################################################################

data_VAWHOQ
_symmetry_cell_setting           monoclinic
_symmetry_space_group_name_H-M   'P c'
_symmetry_Int_Tables_number      7
_space_group_name_Hall           'P -2yc'
loop_
_symmetry_equiv_pos_site_id
_symmetry_equiv_pos_as_xyz
1 x,y,z
2 x,-y,1/2+z
_cell_length_a                   8.9808(6)
_cell_length_b                   15.0009(10)
_cell_length_c                   8.4219(6)
_cell_angle_alpha                90
_cell_angle_beta                 92.288(6)
_cell_angle_gamma                90
_cell_volume                     1133.69
loop_
_atom_site_label
_atom_site_type_symbol
_atom_site_fract_x
_atom_site_fract_y
_atom_site_fract_z
Ag1 Ag -0.35925(4) 0.07903(3) -0.62494(5)
Ag2 Ag -0.34089(4) 0.41470(3) -0.62492(5)
Cu1 Cu -0.67467(10) 0.25206(5) -0.13975(10)
S1 S -0.4631(2) -0.00296(10) -0.3860(2)
C1 C -0.5477(6) 0.0835(4) -0.3045(7)
N1 N -0.6113(7) 0.1414(4) -0.2492(7)
S2 S -0.4308(3) 0.24926(10) -0.6253(2)
C2 C -0.5238(7) 0.2507(4) -0.7999(8)
N2 N -0.5909(7) 0.2505(3) -0.9180(7)
S3 S -0.4339(2) 0.49909(11) -0.3806(2)
C3 C -0.5203(6) 0.4143(4) -0.2954(7)
N3 N -0.5849(6) 0.3568(4) -0.2408(7)
N4 N -0.1024(6) 0.0821(3) -0.6334(7)
C4 C -0.0389(8) 0.1430(5) -0.7228(10)
H1 H -0.0989(8) 0.1848(5) -0.7760(10)
C5 C 0.1127(8) 0.1464(6) -0.7396(11)
H2 H 0.1539(8) 0.1895(6) -0.8040(11)
C6 C 0.2019(9) 0.0861(6) -0.6609(11)
H3 H 0.3046(9) 0.0872(6) -0.6716(11)
C7 C 0.1384(9) 0.0241(6) -0.5662(11)
H4 H 0.1969(9) -0.0170(6) -0.5093(11)
C8 C -0.0151(8) 0.0238(5) -0.5569(10)
H5 H -0.0588(8) -0.0192(5) -0.4943(10)
N5 N -0.0841(6) 0.4129(3) -0.6350(7)
C9 C -0.0021(8) 0.3559(5) -0.5508(10)
H6 H -0.0503(8) 0.3156(5) -0.4865(10)
C10 C 0.1501(9) 0.3526(6) -0.5525(12)
H7 H 0.2036(9) 0.3116(6) -0.4904(12)
C11 C 0.2214(8) 0.4110(7) -0.6474(12)
H8 H 0.3247(8) 0.4104(7) -0.6514(12)
C12 C 0.1387(9) 0.4704(6) -0.7367(12)
H9 H 0.1845(9) 0.5105(6) -0.8034(12)
C13 C -0.0129(8) 0.4697(5) -0.7260(10)
H10 H -0.0688(8) 0.5110(5) -0.7854(10)
N6 N -0.9064(6) 0.2516(3) -0.1466(7)
C14 C -0.9858(7) 0.1905(5) -0.2281(10)
H11 H -0.9351(7) 0.1481(5) -0.2857(10)
C15 C -1.1382(9) 0.1873(6) -0.2311(12)
H12 H -1.1881(9) 0.1430(6) -0.2892(12)
C16 C -1.2176(10) 0.2486(6) -0.1496(15)
H13 H -1.3212(10) 0.2479(6) -0.1515(15)
C17 C -1.1372(11) 0.3108(7) -0.0652(14)
H14 H -1.1866(11) 0.3533(7) -0.0066(14)
C18 C -0.9855(8) 0.3115(6) -0.0655(11)
H15 H -0.9343(8) 0.3553(6) -0.0072(11)
Ag1A Ag -0.35925(4) -0.07903(3) -0.12494(5)
Ag2A Ag -0.34089(4) 0.58530(3) -0.12492(5)
S1A S -0.4631(2) 0.00296(10) -0.8860(2)
S3A S -0.4339(2) 0.50091(11) -0.8806(2)
N2_2 N -0.5909(7) 0.2505(3) 0.0820(7)
Cu1_2 Cu -0.67467(10) 0.25206(5) -1.13975(10)
loop_
_geom_bond_atom_site_label_1
_geom_bond_atom_site_label_2
_geom_bond_site_symmetry_1
_geom_bond_site_symmetry_2
Ag1 S1 1_555 1_555
Ag2 S2 1_555 1_555
Cu1 N1 1_555 1_555
S1 C1 1_555 1_555
C1 N1 1_555 1_555
S2 Ag1 1_555 1_555
C2 S2 1_555 1_555
N2 C2 1_555 1_555
S3 Ag2 1_555 1_555
C3 S3 1_555 1_555
N3 Cu1 1_555 1_555
N4 Ag1 1_555 1_555
C4 N4 1_555 1_555
H1 C4 1_555 1_555
C5 C4 1_555 1_555
H2 C5 1_555 1_555
C6 C5 1_555 1_555
H3 C6 1_555 1_555
C7 C6 1_555 1_555
H4 C7 1_555 1_555
C8 N4 1_555 1_555
H5 C8 1_555 1_555
N5 Ag2 1_555 1_555
C9 N5 1_555 1_555
H6 C9 1_555 1_555
C10 C9 1_555 1_555
H7 C10 1_555 1_555
C11 C10 1_555 1_555
H8 C11 1_555 1_555
C12 C11 1_555 1_555
H9 C12 1_555 1_555
C13 N5 1_555 1_555
H10 C13 1_555 1_555
N6 Cu1 1_555 1_555
C14 N6 1_555 1_555
H11 C14 1_555 1_555
C15 C14 1_555 1_555
H12 C15 1_555 1_555
C16 C15 1_555 1_555
H13 C16 1_555 1_555
C17 C16 1_555 1_555
H14 C17 1_555 1_555
C18 N6 1_555 1_555
H15 C18 1_555 1_555
Ag1A S1 1_555 1_555
Ag2A S3 1_555 1_555
S1A Ag1 1_555 1_555
S3A Ag2 1_555 1_555
N2_2 Cu1 1_555 1_555
Cu1_2 N2 1_555 1_555
C3 N3 1_555 1_555
C7 C8 1_555 1_555
C12 C13 1_555 1_555
C17 C18 1_555 1_555

#END
