
#######################################################################
#
#                 Cambridge Crystallographic Data Centre
#                                CCDC 
#
#######################################################################
#
# If this CIF has been generated from an entry in the Cambridge 
# Structural Database, then it will include bibliographic, chemical, 
# crystal, experimental, refinement or atomic coordinate data resulting 
# from the CCDC's data processing and validation procedures.
#
#######################################################################

data_VAWTAO
_symmetry_cell_setting           orthorhombic
_symmetry_space_group_name_H-M   'P b c a'
_symmetry_Int_Tables_number      61
_space_group_name_Hall           '-P 2ac 2ab'
loop_
_symmetry_equiv_pos_site_id
_symmetry_equiv_pos_as_xyz
1 x,y,z
2 1/2-x,1/2+y,z
3 x,1/2-y,1/2+z
4 1/2-x,-y,1/2+z
5 -x,-y,-z
6 1/2+x,1/2-y,-z
7 -x,1/2+y,1/2-z
8 1/2+x,y,1/2-z
_cell_length_a                   28.13(1)
_cell_length_b                   13.908(4)
_cell_length_c                   7.595(1)
_cell_angle_alpha                90
_cell_angle_beta                 90
_cell_angle_gamma                90
_cell_volume                     2971.41
loop_
_atom_site_label
_atom_site_type_symbol
_atom_site_fract_x
_atom_site_fract_y
_atom_site_fract_z
Cs1 Cs 0.33271 -0.1245 -1.1366(7)
Cs2 Cs 0.3160 0.1292 -0.8706
O1 O 0.2377(2) -0.0088(4) -1.0188(8)
O2 O 0.2551(2) -0.2881(4) -1.2347(12)
C1 C 0.4520(3) 0.0572(4) -0.8540(9)
C2 C 0.4503(2) 0.1120(5) -1.0069(9)
C3 C 0.4871(3) 0.1711(5) -1.0512(10)
C4 C 0.5273(3) 0.1772(5) -0.9405(11)
C5 C 0.5290(3) 0.1246(5) -0.7886(11)
C6 C 0.4914(3) 0.0635(5) -0.7475(11)
O3 O 0.4129(2) 0.0006(3) -0.8194(6)
C7 C 0.4144(3) -0.0560(5) -0.6640(10)
C8 C 0.3675(3) -0.1110(5) -0.6370(9)
O4 O 0.3333(2) -0.0906(4) -0.7372(7)
O5 O 0.3687(2) -0.1697(4) -0.5125(7)
O6 O 0.4097(2) 0.0981(3) -1.1074(6)
C9 C 0.4077(3) 0.1527(5) -1.2669(9)
C10 C 0.3606(2) 0.1344(5) -1.3620(9)
O7 O 0.3289(2) 0.0858(4) -1.2859(8)
O8 O 0.3569(2) 0.1731(4) -1.5082(7)
H1 H 0.485(2) 0.217(5) -1.054(9)
H2 H 0.551(2) 0.220(4) -0.974(8)
H3 H 0.562(2) 0.119(4) -0.701(9)
H4 H 0.494(3) 0.020(6) -0.655(11)
H5 H 0.413(2) -0.014(3) -0.557(7)
H6 H 0.435(2) -0.095(4) -0.674(9)
H7 H 0.413(2) 0.226(4) -1.259(10)
H8 H 0.427(3) 0.124(4) -1.346(9)
H9 H 0.228(3) 0.033(6) -1.062(12)
H10 H 0.225(3) -0.051(6) -0.953(12)
H11 H 0.278(3) -0.315(5) -1.258(11)
H12 H 0.245(3) -0.304(5) -1.301(11)
O5_2 O 0.3687(2) -0.1697(4) -1.5125(7)
O5B O 0.3687(2) -0.3303(4) -1.0125(7)
O2C O 0.2449(2) 0.2881(4) -0.7347(12)
O8_2 O 0.3569(2) 0.1731(4) -0.5082(7)
O8B O 0.3569(2) 0.3269(4) -1.0082(7)
Cs2C Cs 0.1840 -0.1292 -1.3706
Cs1_2 Cs 0.33271 -0.1245 -0.1366(7)
Cs1B Cs 0.33271 -0.3755 -0.6366(7)
Cs2_2 Cs 0.3160 0.1292 -1.8706
Cs2B Cs 0.3160 0.3708 -1.3706
H11C H 0.222(3) 0.315(5) -0.758(11)
H12C H 0.255(3) 0.304(5) -0.801(11)
loop_
_geom_bond_atom_site_label_1
_geom_bond_atom_site_label_2
_geom_bond_site_symmetry_1
_geom_bond_site_symmetry_2
Cs1 O1 1_555 1_555
Cs2 O1 1_555 1_555
O1 H9 1_555 1_555
O2 Cs1 1_555 1_555
C1 C2 1_555 1_555
C2 C3 1_555 1_555
C3 C4 1_555 1_555
C4 C5 1_555 1_555
C5 C6 1_555 1_555
C6 C1 1_555 1_555
O3 Cs2 1_555 1_555
C7 O3 1_555 1_555
C8 C7 1_555 1_555
O4 Cs1 1_555 1_555
O5 C8 1_555 1_555
O6 Cs2 1_555 1_555
C9 O6 1_555 1_555
C10 C9 1_555 1_555
O7 Cs1 1_555 1_555
O8 C10 1_555 1_555
H1 C3 1_555 1_555
H2 C4 1_555 1_555
H3 C5 1_555 1_555
H4 C6 1_555 1_555
H5 C7 1_555 1_555
H6 C7 1_555 1_555
H7 C9 1_555 1_555
H8 C9 1_555 1_555
H10 O1 1_555 1_555
H11 O2 1_555 1_555
H12 O2 1_555 1_555
O5_2 Cs1 1_555 1_555
O5B Cs1 1_555 1_555
O2C Cs2 1_555 1_555
O8_2 Cs2 1_555 1_555
O8B Cs2 1_555 1_555
Cs2C O2 1_555 1_555
Cs1_2 O5 1_555 1_555
Cs1B O5 1_555 1_555
Cs2_2 O8 1_555 1_555
Cs2B O8 1_555 1_555
H11C O2C 1_555 1_555
H12C O2C 1_555 1_555
Cs2 O4 1_555 1_555
Cs2 O7 1_555 1_555
C1 O3 1_555 1_555
C2 O6 1_555 1_555
C8 O4 1_555 1_555
C10 O7 1_555 1_555
O5B Cs1B 1_555 1_555
O8B Cs2B 1_555 1_555

#END
