
#######################################################################
#
#                 Cambridge Crystallographic Data Centre
#                                CCDC 
#
#######################################################################
#
# If this CIF has been generated from an entry in the Cambridge 
# Structural Database, then it will include bibliographic, chemical, 
# crystal, experimental, refinement or atomic coordinate data resulting 
# from the CCDC's data processing and validation procedures.
#
#######################################################################

data_VAWWOG
_symmetry_cell_setting           monoclinic
_symmetry_space_group_name_H-M   'P 21/c'
_symmetry_Int_Tables_number      14
_space_group_name_Hall           '-P 2ybc'
loop_
_symmetry_equiv_pos_site_id
_symmetry_equiv_pos_as_xyz
1 x,y,z
2 -x,1/2+y,1/2-z
3 -x,-y,-z
4 x,1/2-y,1/2+z
_cell_length_a                   6.8864(9)
_cell_length_b                   14.3550(10)
_cell_length_c                   11.1831(10)
_cell_angle_alpha                90
_cell_angle_beta                 90.9710(13)
_cell_angle_gamma                90
_cell_volume                     1105.34
loop_
_atom_site_label
_atom_site_type_symbol
_atom_site_fract_x
_atom_site_fract_y
_atom_site_fract_z
Cd1 Cd 0.25136(9) 0.02734(6) 0.07500(8)
Cl1 Cl 0.4297(3) 0.0725(2) -0.1193(3)
Cl2 Cl -0.0656(3) 0.1184(2) 0.0018(3)
N1 N 0.1691(10) 0.0076(8) 0.2826(8)
N2 N 0.3459(11) 0.1587(7) 0.1962(10)
C1 C 0.3426(13) 0.0186(11) 0.3595(11)
C2 C 0.465(2) 0.1177(13) 0.313(2)
C3 C 0.177(2) 0.2050(9) 0.2464(13)
C4 C 0.054(2) 0.147(2) 0.328(2)
C5 C 0.010(3) 0.066(2) 0.303(2)
C6 C 0.080(2) -0.0831(12) 0.303(1)
C7 C 0.454(2) 0.2254(12) 0.130(2)
H1 H 0.3054 0.0248 0.4405
H2 H 0.4236 -0.0345 0.3516
H3 H 0.5943 0.1024 0.2918
H4 H 0.4670 0.1626 0.3749
H5 H 0.2221 0.2601 0.2848
H6 H 0.0958 0.2213 0.1799
H7 H 0.1201 0.1470 0.4035
H8 H -0.0648 0.1796 0.3342
H9 H -0.0686 0.0673 0.2327
H10 H -0.0634 0.0412 0.3673
H11 H -0.0566 -0.0775 0.2927
H12 H 0.1091 -0.1034 0.3823
H13 H 0.1286 -0.1271 0.2477
H14 H 0.5886 0.2120 0.1319
H15 H 0.4325 0.2860 0.1615
H16 H 0.4059 0.2226 0.0500
Cd1B Cd 0.74864(9) -0.02734(6) -0.07500(8)
Cd1B_2 Cd -0.25136(9) -0.02734(6) -0.07500(8)
Cl1B Cl 0.5703(3) -0.0725(2) 0.1193(3)
Cl2B Cl 0.0656(3) -0.1184(2) -0.0018(3)
loop_
_geom_bond_atom_site_label_1
_geom_bond_atom_site_label_2
_geom_bond_site_symmetry_1
_geom_bond_site_symmetry_2
Cd1 Cl1 1_555 1_555
Cl1 Cd1B 1_555 1_555
Cl2 Cd1 1_555 1_555
N1 Cd1 1_555 1_555
N2 Cd1 1_555 1_555
C1 N1 1_555 1_555
C2 N2 1_555 1_555
C3 N2 1_555 1_555
C4 C3 1_555 1_555
C5 N1 1_555 1_555
C6 N1 1_555 1_555
C7 N2 1_555 1_555
H1 C1 1_555 1_555
H2 C1 1_555 1_555
H3 C2 1_555 1_555
H4 C2 1_555 1_555
H5 C3 1_555 1_555
H6 C3 1_555 1_555
H7 C4 1_555 1_555
H8 C4 1_555 1_555
H9 C5 1_555 1_555
H10 C5 1_555 1_555
H11 C6 1_555 1_555
H12 C6 1_555 1_555
H13 C6 1_555 1_555
H14 C7 1_555 1_555
H15 C7 1_555 1_555
H16 C7 1_555 1_555
Cd1B Cl1B 1_555 1_555
Cd1B_2 Cl2 1_555 1_555
Cl1B Cd1 1_555 1_555
Cl2B Cd1 1_555 1_555
C1 C2 1_555 1_555
C4 C5 1_555 1_555
Cd1B_2 Cl2B 1_555 1_555

#END
