
#######################################################################
#
#                 Cambridge Crystallographic Data Centre
#                                CCDC 
#
#######################################################################
#
# If this CIF has been generated from an entry in the Cambridge 
# Structural Database, then it will include bibliographic, chemical, 
# crystal, experimental, refinement or atomic coordinate data resulting 
# from the CCDC's data processing and validation procedures.
#
#######################################################################

data_VAWXAS03
_symmetry_cell_setting           triclinic
_symmetry_space_group_name_H-M   'P -1'
_symmetry_Int_Tables_number      2
_space_group_name_Hall           '-P 1'
loop_
_symmetry_equiv_pos_site_id
_symmetry_equiv_pos_as_xyz
1 x,y,z
2 -x,-y,-z
_cell_length_a                   10.664(4)
_cell_length_b                   11.309(4)
_cell_length_c                   13.321(3)
_cell_angle_alpha                109.03(3)
_cell_angle_beta                 111.724(16)
_cell_angle_gamma                93.16(4)
_cell_volume                     1382.28
loop_
_atom_site_label
_atom_site_type_symbol
_atom_site_fract_x
_atom_site_fract_y
_atom_site_fract_z
Co1 Co 0.75141(2) 0.50382(2) 0.74435(2)
O1 O 0.63141(17) 0.63892(16) 0.75481(14)
H1 H 0.604(2) 0.668(2) 0.8093(14)
H2 H 0.576(2) 0.654(2) 0.6983(11)
O2 O 0.74146(18) 0.50560(15) 0.58493(14)
H3 H 0.721(3) 0.5701(12) 0.5673(15)
H4 H 0.691(2) 0.4419(13) 0.5236(11)
O3 O 0.58116(16) 0.34903(14) 0.65865(14)
H5 H 0.591(2) 0.2809(12) 0.6148(17)
H6 H 0.554(2) 0.3280(17) 0.7046(15)
O4 O 0.87381(18) 0.37199(16) 0.73370(15)
H7 H 0.899(3) 0.342(2) 0.6787(16)
H8 H 0.862(2) 0.3089(15) 0.753(2)
O5 O 0.75991(18) 0.51009(16) 0.90560(14)
H9 H 0.803(2) 0.5765(12) 0.9665(11)
H10 H 0.777(3) 0.4479(13) 0.9264(15)
O6 O 0.92450(16) 0.65514(15) 0.82956(14)
H11 H 0.951(2) 0.6782(18) 0.7854(15)
H12 H 0.914(2) 0.7227(13) 0.8751(17)
Co2 Co 0.74313(2) 0.002056(18) 0.251444(17)
O7 O 0.94503(15) 0.25482(14) 0.27615(14)
O8 O 0.74666(14) 0.19452(12) 0.28068(11)
O9 O 1.04600(15) 0.75890(13) 0.43680(13)
O10 O 0.87080(14) 0.82770(12) 0.47231(11)
O11 O 0.54212(14) 0.75350(13) 0.23811(13)
O12 O 0.73458(14) 0.80922(11) 0.22289(11)
O13 O 0.44347(15) 0.23912(13) 0.07219(13)
O14 O 0.62102(14) 0.18470(12) 0.03155(11)
O15 O 0.52529(14) -0.02963(12) 0.20278(12)
H13 H 0.5070(17) -0.0920(15) 0.2193(16)
H14 H 0.4912(17) -0.0547(19) 0.1296(8)
O16 O 0.71523(15) -0.02212(14) 0.08282(13)
H15 H 0.686(2) 0.0376(12) 0.0638(15)
H16 H 0.6598(19) -0.0904(11) 0.0341(13)
O17 O 0.95575(14) 0.02765(13) 0.29665(12)
H17 H 0.9976(16) 0.049(2) 0.3693(9)
H18 H 0.9789(18) 0.0883(17) 0.2797(18)
O18 O 0.77675(15) 0.03059(13) 0.42401(12)
H19 H 0.808(2) -0.0312(13) 0.4397(15)
H20 H 0.838(2) 0.0967(13) 0.4688(14)
C1 C 0.7860(2) 0.39117(17) 0.26073(16)
C2 C 0.8721(2) 0.50878(18) 0.33620(16)
H21 H 0.9589 0.5121 0.3904
C3 C 0.82961(19) 0.62091(17) 0.33131(17)
C4 C 0.83122(19) 0.27196(17) 0.27314(16)
C5 C 0.92313(19) 0.74682(17) 0.41981(16)
C6 C 0.69943(19) 0.61530(17) 0.24880(16)
C7 C 0.61286(19) 0.49762(18) 0.17367(16)
H22 H 0.5254 0.4942 0.1202
C8 C 0.65631(19) 0.38559(17) 0.17826(17)
C9 C 0.65379(19) 0.73460(17) 0.23609(15)
C10 C 0.5660(2) 0.25928(17) 0.08769(16)
Co2_2 Co 0.74313(2) 1.002056(18) 0.251444(17)
O12_2 O 0.73458(14) -0.19078(11) 0.22289(11)
O19 O 0.41508(16) 0.71057(15) 0.60444(14)
H23 H 0.4268 0.7605 0.5715
H24 H 0.3744 0.7440 0.6463
O20 O 0.68073(16) 0.72254(14) 0.53723(13)
H25 H 0.7357 0.7442 0.5116
H26 H 0.6580 0.7831 0.5736
O21 O 0.81458(17) 0.31694(17) 0.99134(15)
H27 H 0.7642 0.2726 1.0099
H28 H 0.8392 0.2552 0.9467
O28 O 0.5776(2) 0.10447(19) 0.5008(2)
O22? O 0.7032(3) 0.9323(3) 0.7451(3)
O23? O 0.692(2) 0.8915(16) 0.7234(18)
O24? O 0.8485(3) 0.1824(2) 0.8062(2)
O25? O 0.8163(12) 0.1290(11) 0.7791(10)
O26? O 0.8656(2) 0.7484(2) 1.0750(2)
O27? O 0.9042(7) 0.7165(7) 1.1051(6)
O29? O 0.620(2) 0.102(2) 0.5628(19)
O30? O 0.8856(4) 0.8936(4) 0.9362(4)
O31? O 0.915(2) 0.916(2) 0.953(2)
O32? O 0.933(3) 0.904(2) 1.019(2)
loop_
_geom_bond_atom_site_label_1
_geom_bond_atom_site_label_2
_geom_bond_site_symmetry_1
_geom_bond_site_symmetry_2
Co1 O1 1_555 1_555
O1 H1 1_555 1_555
H2 O1 1_555 1_555
O2 Co1 1_555 1_555
H3 O2 1_555 1_555
H4 O2 1_555 1_555
O3 Co1 1_555 1_555
H5 O3 1_555 1_555
H6 O3 1_555 1_555
O4 Co1 1_555 1_555
H7 O4 1_555 1_555
H8 O4 1_555 1_555
O5 Co1 1_555 1_555
H9 O5 1_555 1_555
H10 O5 1_555 1_555
O6 Co1 1_555 1_555
H11 O6 1_555 1_555
H12 O6 1_555 1_555
Co2 O8 1_555 1_555
O7 C4 1_555 1_555
O8 C4 1_555 1_555
O9 C5 1_555 1_555
O10 C5 1_555 1_555
O11 C9 1_555 1_555
O12 C9 1_555 1_555
O13 C10 1_555 1_555
O14 C10 1_555 1_555
O15 Co2 1_555 1_555
H13 O15 1_555 1_555
H14 O15 1_555 1_555
O16 Co2 1_555 1_555
H15 O16 1_555 1_555
H16 O16 1_555 1_555
O17 Co2 1_555 1_555
H17 O17 1_555 1_555
H18 O17 1_555 1_555
O18 Co2 1_555 1_555
H19 O18 1_555 1_555
H20 O18 1_555 1_555
C1 C2 1_555 1_555
C2 H21 1_555 1_555
C3 C2 1_555 1_555
C4 C1 1_555 1_555
C5 C3 1_555 1_555
C6 C3 1_555 1_555
C7 C6 1_555 1_555
H22 C7 1_555 1_555
C8 C1 1_555 1_555
C9 C6 1_555 1_555
C10 C8 1_555 1_555
O19 H23 1_555 1_555
H24 O19 1_555 1_555
O20 H25 1_555 1_555
H26 O20 1_555 1_555
O21 H27 1_555 1_555
H28 O21 1_555 1_555
Co2_2 O12 1_555 1_555
O12_2 Co2 1_555 1_555
C7 C8 1_555 1_555

#END
