
#######################################################################
#
#                 Cambridge Crystallographic Data Centre
#                                CCDC 
#
#######################################################################
#
# If this CIF has been generated from an entry in the Cambridge 
# Structural Database, then it will include bibliographic, chemical, 
# crystal, experimental, refinement or atomic coordinate data resulting 
# from the CCDC's data processing and validation procedures.
#
#######################################################################

data_VAWXAS
_symmetry_cell_setting           triclinic
_symmetry_space_group_name_H-M   'P -1'
_symmetry_Int_Tables_number      2
_space_group_name_Hall           '-P 1'
loop_
_symmetry_equiv_pos_site_id
_symmetry_equiv_pos_as_xyz
1 x,y,z
2 -x,-y,-z
_cell_length_a                   9.972(4)
_cell_length_b                   10.921(4)
_cell_length_c                   6.852(2)
_cell_angle_alpha                104.89(2)
_cell_angle_beta                 103.63(2)
_cell_angle_gamma                93.00(2)
_cell_volume                     695.764
loop_
_atom_site_label
_atom_site_type_symbol
_atom_site_fract_x
_atom_site_fract_y
_atom_site_fract_z
Co2 Co 0.5000 0.5000 1.0000
O1 O 0.4790(3) 0.3073(3) 0.8409(5)
O2 O 0.6868(4) 0.2532(3) 0.9686(6)
O3 O 0.3827(4) 0.2570(3) 0.2752(6)
O4 O 0.5973(3) 0.3215(3) 0.4776(5)
O8 O 0.6407(3) 0.5292(3) 0.8252(5)
O9 O 0.3313(3) 0.5273(3) 0.7634(5)
C1 C 0.5480(5) -0.0043(4) 0.7071(7)
C2 C 0.5386(5) 0.1125(4) 0.6612(7)
C3 C 0.4917(5) 0.1169(4) 0.4545(8)
C4 C 0.5726(5) 0.2336(4) 0.8385(7)
C5 C 0.4901(5) 0.2425(4) 0.4000(7)
O1A O 0.5210(3) 0.6927(3) 1.1591(5)
O8A O 0.3593(3) 0.4708(3) 1.1748(5)
O9A O 0.6687(3) 0.4727(3) 1.2366(5)
C3A C 0.5083(5) -0.1169(4) 0.5455(8)
C1A C 0.4520(5) 0.0043(4) 0.2929(7)
C4A C 0.4274(5) 0.7664(4) 1.1615(7)
C2A C 0.4614(5) -0.1125(4) 0.3388(7)
C5A C 0.5099(5) -0.2425(4) 0.6000(7)
O2A O 0.3132(4) 0.7468(3) 1.0314(6)
C2A_2 C 0.4614(5) 0.8875(4) 1.3388(7)
C4A_2 C 0.4274(5) -0.2336(4) 0.1615(7)
O3A O 0.6173(4) -0.2570(3) 0.7248(6)
O4A O 0.4027(3) -0.3215(3) 0.5224(5)
O10 O 0.1985(5) 0.2106(4) 0.6928(8)
O11 O 0.8487(5) 0.2089(5) 0.4992(7)
O12 O 0.0696(7) 0.4023(7) 0.0375(19)
O13 O 0.0455(11) 0.3954(10) 0.4766(21)
Co1 Co 0.0000 0.0000 0.0000
O5 O 0.1490(5) 0.0005(5) -0.1723(7)
O6 O 0.1362(5) 0.1345(5) 0.2489(7)
O7 O 0.0846(5) -0.1533(5) 0.1036(8)
O5A O -0.1490(5) -0.0005(5) 0.1723(7)
O6A O -0.1362(5) -0.1345(5) -0.2489(7)
O7A O -0.0846(5) 0.1533(5) -0.1036(8)
loop_
_geom_bond_atom_site_label_1
_geom_bond_atom_site_label_2
_geom_bond_site_symmetry_1
_geom_bond_site_symmetry_2
Co1 O5 1_555 1_555
Co2 O1 1_555 1_555
O1 C4 1_555 1_555
O2 C4 1_555 1_555
O3 C5 1_555 1_555
O4 C5 1_555 1_555
O6 Co1 1_555 1_555
O7 Co1 1_555 1_555
O8 Co2 1_555 1_555
O9 Co2 1_555 1_555
C1 C2 1_555 1_555
C2 C3 1_555 1_555
C3 C5 1_555 1_555
C4 C2 1_555 1_555
O5A Co1 1_555 1_555
O6A Co1 1_555 1_555
O7A Co1 1_555 1_555
O1A Co2 1_555 1_555
O8A Co2 1_555 1_555
O9A Co2 1_555 1_555
C3A C1 1_555 1_555
C1A C3 1_555 1_555
C4A O1A 1_555 1_555
C2A C3A 1_555 1_555
C5A C3A 1_555 1_555
O2A C4A 1_555 1_555
C2A_2 C4A 1_555 1_555
C4A_2 C2A 1_555 1_555
O3A C5A 1_555 1_555
O4A C5A 1_555 1_555
C1A C2A 1_555 1_555

#END
