
#######################################################################
#
#                 Cambridge Crystallographic Data Centre
#                                CCDC 
#
#######################################################################
#
# If this CIF has been generated from an entry in the Cambridge 
# Structural Database, then it will include bibliographic, chemical, 
# crystal, experimental, refinement or atomic coordinate data resulting 
# from the CCDC's data processing and validation procedures.
#
#######################################################################

data_VAWYEZ
_symmetry_cell_setting           orthorhombic
_symmetry_space_group_name_H-M   'P b c a'
_symmetry_Int_Tables_number      61
_space_group_name_Hall           '-P 2ac 2ab'
loop_
_symmetry_equiv_pos_site_id
_symmetry_equiv_pos_as_xyz
1 x,y,z
2 1/2-x,-y,1/2+z
3 1/2+x,1/2-y,-z
4 -x,1/2+y,1/2-z
5 -x,-y,-z
6 1/2+x,y,1/2-z
7 1/2-x,1/2+y,z
8 x,1/2-y,1/2+z
_cell_length_a                   15.347(7)
_cell_length_b                   14.820(5)
_cell_length_c                   23.269(2)
_cell_angle_alpha                90
_cell_angle_beta                 90
_cell_angle_gamma                90
_cell_volume                     5292.36
loop_
_atom_site_label
_atom_site_type_symbol
_atom_site_fract_x
_atom_site_fract_y
_atom_site_fract_z
Ag1 Ag 0.61275(2) 0.35013(2) 0.741812(13)
N1 N 1.4439(2) -0.1409(2) 0.84763(14)
C1 C 1.5143(3) -0.1840(3) 0.8672(2)
H1 H 1.5441 -0.2238 0.8419
C2 C 1.5460(3) -0.1739(3) 0.9221(2)
H2 H 1.5962 -0.2061 0.9344
C3 C 1.5037(4) -0.1164(4) 0.9586(2)
H3 H 1.5239 -0.1083 0.9968
C4 C 1.4311(3) -0.0703(4) 0.9392(2)
H4 H 1.4007 -0.0301 0.9639
C5 C 1.4034(3) -0.0836(3) 0.88341(17)
C6 C 1.3259(3) -0.0367(3) 0.86164(17)
H5 H 1.2944 0.0021 0.8866
N2 N 1.3000(2) -0.0467(2) 0.81086(13)
C7 C 1.2228(2) -0.0045(3) 0.78899(16)
C8 C 1.1772(2) 0.0642(3) 0.81604(17)
H6 H 1.1968 0.0868 0.8520
C9 C 1.1032(3) 0.1001(3) 0.79091(18)
H7 H 1.0723 0.1476 0.8093
C10 C 1.0746(3) 0.0662(3) 0.73874(17)
C11 C 1.1206(3) -0.0003(3) 0.71097(17)
H8 H 1.1011 -0.0224 0.6748
C12 C 1.1945(2) -0.0348(3) 0.73549(16)
H9 H 1.2268 -0.0800 0.7158
O1 O 1.00415(18) 0.0997(2) 0.70846(12)
C13 C 0.9310(3) 0.1352(3) 0.73514(17)
C14 C 0.9016(3) 0.1082(3) 0.78842(18)
H10 H 0.9331 0.0646 0.8099
C15 C 0.8257(3) 0.1453(3) 0.81035(17)
H11 H 0.8049 0.1268 0.8470
C16 C 0.7799(2) 0.2094(3) 0.77910(17)
C17 C 0.8091(3) 0.2323(3) 0.72461(17)
H12 H 0.7767 0.2740 0.7022
C18 C 0.8843(3) 0.1954(3) 0.70262(18)
H13 H 0.9037 0.2114 0.6652
N3 N 0.7021(2) 0.2517(2) 0.79829(14)
C19 C 0.6767(3) 0.2479(3) 0.85018(17)
H14 H 0.7106 0.2157 0.8775
C20 C 0.5954(3) 0.2924(3) 0.86893(17)
N4 N 0.5548(2) 0.3449(2) 0.83065(14)
C21 C 0.4814(3) 0.3853(3) 0.84737(19)
H15 H 0.4516 0.4225 0.8205
C22 C 0.4467(3) 0.3757(3) 0.9013(2)
H16 H 0.3946 0.4062 0.9117
C23 C 0.4889(4) 0.3210(4) 0.9400(2)
H17 H 0.4658 0.3122 0.9775
C24 C 0.5651(3) 0.2792(3) 0.92383(19)
H18 H 0.5961 0.2419 0.9500
Ag1C Ag 1.38725(2) -0.14987(2) 0.758188(13)
N1C N 0.5561(2) 0.3591(2) 0.65237(14)
N2C N 0.7000(2) 0.4533(2) 0.68914(13)
Cl1 Cl 0.75243(8) 0.27890(8) 1.04494(5)
O2 O 0.8188(3) 0.3441(3) 1.05474(18)
O3 O 0.7589(3) 0.2097(3) 1.08652(17)
O4 O 0.7633(3) 0.2415(3) 0.98934(15)
O5 O 0.6688(3) 0.3204(3) 1.04918(18)
C25 C 0.7029(4) 0.5203(5) 0.9775(3)
H19 H 0.7017 0.4646 1.0010
H20 H 0.7122 0.5716 1.0040
Cl2 Cl 0.7924(3) 0.5141(4) 0.93078(16)
Cl3 Cl 0.6064(4) 0.5326(5) 0.9468(2)
C26? C 0.7029(4) 0.5203(5) 0.9775(3)
Cl4? Cl 0.7624(5) 0.4798(5) 0.9240(2)
Cl5? Cl 0.5890(6) 0.5580(6) 0.9406(3)
H21? H 0.7321 0.5726 0.9956
H22? H 0.6929 0.4735 1.0071
loop_
_geom_bond_atom_site_label_1
_geom_bond_atom_site_label_2
_geom_bond_site_symmetry_1
_geom_bond_site_symmetry_2
Ag1 N3 1_555 1_555
N1 C1 1_555 1_555
C1 H1 1_555 1_555
C2 C1 1_555 1_555
H2 C2 1_555 1_555
C3 C2 1_555 1_555
H3 C3 1_555 1_555
C4 C3 1_555 1_555
H4 C4 1_555 1_555
C5 N1 1_555 1_555
C6 C5 1_555 1_555
H5 C6 1_555 1_555
N2 C6 1_555 1_555
C7 N2 1_555 1_555
C8 C7 1_555 1_555
H6 C8 1_555 1_555
C9 C8 1_555 1_555
H7 C9 1_555 1_555
C10 C9 1_555 1_555
C11 C10 1_555 1_555
H8 C11 1_555 1_555
C12 C7 1_555 1_555
H9 C12 1_555 1_555
O1 C10 1_555 1_555
C13 O1 1_555 1_555
C14 C13 1_555 1_555
H10 C14 1_555 1_555
C15 C14 1_555 1_555
H11 C15 1_555 1_555
C16 C15 1_555 1_555
C17 C16 1_555 1_555
H12 C17 1_555 1_555
C18 C13 1_555 1_555
H13 C18 1_555 1_555
N3 C16 1_555 1_555
C19 N3 1_555 1_555
H14 C19 1_555 1_555
C20 C19 1_555 1_555
N4 Ag1 1_555 1_555
C21 N4 1_555 1_555
H15 C21 1_555 1_555
C22 C21 1_555 1_555
H16 C22 1_555 1_555
C23 C22 1_555 1_555
H17 C23 1_555 1_555
C24 C20 1_555 1_555
H18 C24 1_555 1_555
Cl1 O2 1_555 1_555
O3 Cl1 1_555 1_555
O4 Cl1 1_555 1_555
O5 Cl1 1_555 1_555
C25 H19 1_555 1_555
H20 C25 1_555 1_555
Cl2 C25 1_555 1_555
Cl3 C25 1_555 1_555
Ag1C N1 1_555 1_555
N1C Ag1 1_555 1_555
N2C Ag1 1_555 1_555
C4 C5 1_555 1_555
N2 Ag1C 1_555 1_555
C11 C12 1_555 1_555
C17 C18 1_555 1_555
C20 N4 1_555 1_555
C23 C24 1_555 1_555

#END
