
#######################################################################
#
#                 Cambridge Crystallographic Data Centre
#                                CCDC 
#
#######################################################################
#
# If this CIF has been generated from an entry in the Cambridge 
# Structural Database, then it will include bibliographic, chemical, 
# crystal, experimental, refinement or atomic coordinate data resulting 
# from the CCDC's data processing and validation procedures.
#
#######################################################################

data_VAXBUS
_symmetry_cell_setting           monoclinic
_symmetry_space_group_name_H-M   'C 2/c'
_symmetry_Int_Tables_number      15
_space_group_name_Hall           '-C 2yn'
loop_
_symmetry_equiv_pos_site_id
_symmetry_equiv_pos_as_xyz
1 x,y,z
2 1/2+x,1/2+y,z
3 -x,y,1/2-z
4 1/2-x,1/2+y,1/2-z
5 -x,-y,-z
6 1/2-x,1/2-y,-z
7 x,-y,1/2+z
8 1/2+x,1/2-y,1/2+z
_cell_length_a                   16.128(2)
_cell_length_b                   6.757(1)
_cell_length_c                   11.580(2)
_cell_angle_alpha                90
_cell_angle_beta                 104.46(1)
_cell_angle_gamma                90
_cell_volume                     1221.98
loop_
_atom_site_label
_atom_site_type_symbol
_atom_site_fract_x
_atom_site_fract_y
_atom_site_fract_z
Cd1 Cd 0.5000 0.13453(16) 0.7500
O1 O 0.5147(3) 0.2375(8) 0.9462(5)
O2 O 0.5030(4) -0.1502(9) 0.8780(5)
C1 C 0.5031(4) 0.1089(13) 1.0190(7)
O3 O 0.5000 0.4943(13) 0.7500
H1 H 0.5089 0.5875 0.8101
N1 N 0.3525(4) 0.0999(11) 0.7122(6)
N2 N 0.3053(4) 0.1073(13) 0.7983(7)
C2 C 0.2261(6) 0.0642(13) 0.7377(9)
H2 H 0.1798 0.0573 0.7719
N3 N 0.2203(4) 0.0319(11) 0.6221(7)
C3 C 0.3015(5) 0.0543(13) 0.6098(8)
H3 H 0.3181 0.0392 0.5389
N4 N 0.1519(4) -0.0336(11) 0.5277(7)
H4 H 0.1119 0.0629 0.5020
H5 H 0.1261 -0.1296 0.5483
Cd1F Cd 0.5000 -0.13453(16) 1.2500
O1D O 0.4853(3) -0.2375(8) 1.0538(5)
O1B O 0.4853(3) 0.2375(8) 0.5538(5)
O2D O 0.4970(4) 0.1502(9) 1.1220(5)
O2B O 0.4970(4) -0.1502(9) 0.6220(5)
C1D C 0.4969(4) -0.1089(13) 0.9810(7)
H1B H 0.4911 0.5875 0.6899
N1B N 0.6475(4) 0.0999(11) 0.7878(6)
N2B N 0.6947(4) 0.1073(13) 0.7017(7)
C2B C 0.7739(6) 0.0642(13) 0.7623(9)
H2B H 0.8202 0.0573 0.7281
N3B N 0.7797(4) 0.0319(11) 0.8779(7)
C3B C 0.6985(5) 0.0543(13) 0.8902(8)
H3B H 0.6819 0.0392 0.9611
N4B N 0.8481(4) -0.0336(11) 0.9723(7)
H4B H 0.8881 0.0629 0.9980
H5B H 0.8739 -0.1296 0.9517
loop_
_geom_bond_atom_site_label_1
_geom_bond_atom_site_label_2
_geom_bond_site_symmetry_1
_geom_bond_site_symmetry_2
Cd1 O1 1_555 1_555
O1 C1 1_555 1_555
O2 Cd1 1_555 1_555
C1 O2D 1_555 1_555
O3 Cd1 1_555 1_555
H1 O3 1_555 1_555
N1 Cd1 1_555 1_555
N2 N1 1_555 1_555
C2 N2 1_555 1_555
H2 C2 1_555 1_555
N3 C2 1_555 1_555
C3 N1 1_555 1_555
H3 C3 1_555 1_555
N4 N3 1_555 1_555
H4 N4 1_555 1_555
H5 N4 1_555 1_555
Cd1F O1D 1_555 1_555
O1D C1D 1_555 1_555
O1B Cd1 1_555 1_555
O2D Cd1F 1_555 1_555
O2B Cd1 1_555 1_555
C1D O2 1_555 1_555
H1B O3 1_555 1_555
N1B Cd1 1_555 1_555
N2B N1B 1_555 1_555
C2B N2B 1_555 1_555
H2B C2B 1_555 1_555
N3B C2B 1_555 1_555
C3B N1B 1_555 1_555
H3B C3B 1_555 1_555
N4B N3B 1_555 1_555
H4B N4B 1_555 1_555
H5B N4B 1_555 1_555
C1 C1D 1_555 1_555
N3 C3 1_555 1_555
N3B C3B 1_555 1_555

#END
