
#######################################################################
#
#                 Cambridge Crystallographic Data Centre
#                                CCDC 
#
#######################################################################
#
# If this CIF has been generated from an entry in the Cambridge 
# Structural Database, then it will include bibliographic, chemical, 
# crystal, experimental, refinement or atomic coordinate data resulting 
# from the CCDC's data processing and validation procedures.
#
#######################################################################

data_VAXCIH
_symmetry_cell_setting           triclinic
_symmetry_space_group_name_H-M   'P -1'
_symmetry_Int_Tables_number      2
_space_group_name_Hall           '-P 1'
loop_
_symmetry_equiv_pos_site_id
_symmetry_equiv_pos_as_xyz
1 x,y,z
2 -x,-y,-z
_cell_length_a                   5.455(1)
_cell_length_b                   7.769(1)
_cell_length_c                   8.002(1)
_cell_angle_alpha                60.93(1)
_cell_angle_beta                 76.34(1)
_cell_angle_gamma                89.64(1)
_cell_volume                     285.661
loop_
_atom_site_label
_atom_site_type_symbol
_atom_site_fract_x
_atom_site_fract_y
_atom_site_fract_z
Zn1 Zn 0.00000 0.00000 0.00000
O1 O 0.298(17) 0.175(23) 0.005(42)
O2 O 0.287(16) -0.180(24) 0.021(44)
C1 C 0.514(62) 0.092(42) 0.013(68)
N1 N 0.154(13) 0.149(24) -0.340(10)
N2 N 0.405(11) 0.218(24) -0.451(10)
C2 C 0.394(11) 0.360(18) -0.627(8)
N3 N 0.152(10) 0.342(23) -0.644(9)
C3 C 0.009(14) 0.221(33) -0.458(10)
N4 N 0.083(18) 0.413(11) -0.818(10)
H1 H 0.541 0.416 -0.738
H2 H -0.163 0.160 -0.426
H3 H 0.095 0.543 -0.895
H4 H 0.128 0.349 -0.885
Zn1_2 Zn 1.00000 0.00000 0.00000
O1A O 0.702(17) -0.175(23) -0.005(42)
O1A_2 O -0.298(17) -0.175(23) -0.005(42)
O2A O 0.713(16) 0.180(24) -0.021(44)
O2A_2 O -0.287(16) 0.180(24) -0.021(44)
C1A C 0.486(62) -0.092(42) -0.013(68)
N1A N -0.154(13) -0.149(24) 0.340(10)
N2A N -0.405(11) -0.218(24) 0.451(10)
C2A C -0.394(11) -0.360(18) 0.627(8)
N3A N -0.152(10) -0.342(23) 0.644(9)
C3A C -0.009(14) -0.221(33) 0.458(10)
N4A N -0.083(18) -0.413(11) 0.818(10)
H1A H -0.541 -0.416 0.738
H2A H 0.163 -0.160 0.426
H3A H -0.095 -0.543 0.895
H4A H -0.128 -0.349 0.885
loop_
_geom_bond_atom_site_label_1
_geom_bond_atom_site_label_2
_geom_bond_site_symmetry_1
_geom_bond_site_symmetry_2
Zn1 O1 1_555 1_555
O1 C1 1_555 1_555
O2 Zn1 1_555 1_555
C1 O2A 1_555 1_555
N1 Zn1 1_555 1_555
N2 N1 1_555 1_555
C2 N2 1_555 1_555
N3 C2 1_555 1_555
C3 N1 1_555 1_555
N4 N3 1_555 1_555
H1 C2 1_555 1_555
H2 C3 1_555 1_555
H3 N4 1_555 1_555
H4 N4 1_555 1_555
Zn1_2 O1A 1_555 1_555
O1A C1A 1_555 1_555
O1A_2 Zn1 1_555 1_555
O2A Zn1_2 1_555 1_555
O2A_2 Zn1 1_555 1_555
C1A O2 1_555 1_555
N1A Zn1 1_555 1_555
N2A N1A 1_555 1_555
C2A N2A 1_555 1_555
N3A C2A 1_555 1_555
C3A N1A 1_555 1_555
N4A N3A 1_555 1_555
H1A C2A 1_555 1_555
H2A C3A 1_555 1_555
H3A N4A 1_555 1_555
H4A N4A 1_555 1_555
C1 C1A 1_555 1_555
N3 C3 1_555 1_555
N3A C3A 1_555 1_555

#END
