
#######################################################################
#
#                 Cambridge Crystallographic Data Centre
#                                CCDC 
#
#######################################################################
#
# If this CIF has been generated from an entry in the Cambridge 
# Structural Database, then it will include bibliographic, chemical, 
# crystal, experimental, refinement or atomic coordinate data resulting 
# from the CCDC's data processing and validation procedures.
#
#######################################################################

data_VAXCED
_symmetry_cell_setting           triclinic
_symmetry_space_group_name_H-M   'P -1'
_symmetry_Int_Tables_number      2
_space_group_name_Hall           '-P 1'
loop_
_symmetry_equiv_pos_site_id
_symmetry_equiv_pos_as_xyz
1 x,y,z
2 -x,-y,-z
_cell_length_a                   5.461(1)
_cell_length_b                   7.741(1)
_cell_length_c                   7.978(1)
_cell_angle_alpha                60.96(1)
_cell_angle_beta                 76.33(1)
_cell_angle_gamma                89.62(1)
_cell_volume                     284.178
loop_
_atom_site_label
_atom_site_type_symbol
_atom_site_fract_x
_atom_site_fract_y
_atom_site_fract_z
Co1 Co 0.00000 0.00000 0.00000
O1 O 0.302(16) 0.182(18) -0.008(31)
O2 O 0.283(15) -0.184(17) 0.031(31)
C1 C 0.506(66) 0.104(35) -0.008(74)
N1 N 0.152(13) 0.152(36) -0.335(9)
N2 N 0.403(12) 0.216(37) -0.444(9)
C2 C 0.400(9) 0.320(26) -0.631(8)
N3 N 0.154(10) 0.322(31) -0.643(8)
C3 C 0.009(13) 0.217(41) -0.456(10)
N4 N 0.078(20) 0.414(12) -0.817(11)
H1 H 0.542 0.340 -0.738
H2 H -0.167 0.170 -0.418
H3 H 0.106 0.545 -0.891
H4 H 0.102 0.351 -0.886
Co1_2 Co 1.00000 0.00000 0.00000
O1A O 0.698(16) -0.182(18) 0.008(31)
O1A_2 O -0.302(16) -0.182(18) 0.008(31)
O2A O 0.717(15) 0.184(17) -0.031(31)
O2A_2 O -0.283(15) 0.184(17) -0.031(31)
C1A C 0.494(66) -0.104(35) 0.008(74)
N1A N -0.152(13) -0.152(36) 0.335(9)
N2A N -0.403(12) -0.216(37) 0.444(9)
C2A C -0.400(9) -0.320(26) 0.631(8)
N3A N -0.154(10) -0.322(31) 0.643(8)
C3A C -0.009(13) -0.217(41) 0.456(10)
N4A N -0.078(20) -0.414(12) 0.817(11)
H1A H -0.542 -0.340 0.738
H2A H 0.167 -0.170 0.418
H3A H -0.106 -0.545 0.891
H4A H -0.102 -0.351 0.886
loop_
_geom_bond_atom_site_label_1
_geom_bond_atom_site_label_2
_geom_bond_site_symmetry_1
_geom_bond_site_symmetry_2
Co1 O1 1_555 1_555
O1 C1 1_555 1_555
O2 Co1 1_555 1_555
C1 O2A 1_555 1_555
N1 Co1 1_555 1_555
N2 N1 1_555 1_555
C2 N2 1_555 1_555
N3 C2 1_555 1_555
C3 N1 1_555 1_555
N4 N3 1_555 1_555
H1 C2 1_555 1_555
H2 C3 1_555 1_555
H3 N4 1_555 1_555
H4 N4 1_555 1_555
Co1_2 O1A 1_555 1_555
O1A C1A 1_555 1_555
O1A_2 Co1 1_555 1_555
O2A Co1_2 1_555 1_555
O2A_2 Co1 1_555 1_555
C1A O2 1_555 1_555
N1A Co1 1_555 1_555
N2A N1A 1_555 1_555
C2A N2A 1_555 1_555
N3A C2A 1_555 1_555
C3A N1A 1_555 1_555
N4A N3A 1_555 1_555
H1A C2A 1_555 1_555
H2A C3A 1_555 1_555
H3A N4A 1_555 1_555
H4A N4A 1_555 1_555
C1 C1A 1_555 1_555
N3 C3 1_555 1_555
N3A C3A 1_555 1_555

#END
