
#######################################################################
#
#                 Cambridge Crystallographic Data Centre
#                                CCDC 
#
#######################################################################
#
# If this CIF has been generated from an entry in the Cambridge 
# Structural Database, then it will include bibliographic, chemical, 
# crystal, experimental, refinement or atomic coordinate data resulting 
# from the CCDC's data processing and validation procedures.
#
#######################################################################

data_VAXCAZ
_symmetry_cell_setting           triclinic
_symmetry_space_group_name_H-M   'P -1'
_symmetry_Int_Tables_number      2
_space_group_name_Hall           '-P 1'
loop_
_symmetry_equiv_pos_site_id
_symmetry_equiv_pos_as_xyz
1 x,y,z
2 -x,-y,-z
_cell_length_a                   5.386(1)
_cell_length_b                   7.716(1)
_cell_length_c                   7.946(1)
_cell_angle_alpha                60.87(1)
_cell_angle_beta                 76.54(1)
_cell_angle_gamma                89.66(1)
_cell_volume                     278.282
loop_
_atom_site_label
_atom_site_type_symbol
_atom_site_fract_x
_atom_site_fract_y
_atom_site_fract_z
Ni1 Ni 0.00000 0.00000 0.00000
O1 O 0.284(20) 0.160(34) 0.030(58)
O2 O 0.295(21) -0.171(33) -0.004(57)
C1 C 0.497(78) 0.087(58) 0.023(86)
N1 N 0.135(13) 0.152(36) -0.322(11)
N2 N 0.390(12) 0.215(32) -0.425(10)
C2 C 0.393(11) 0.334(27) -0.613(8)
N3 N 0.148(10) 0.327(32) -0.633(8)
C3 C -0.006(11) 0.239(54) -0.447(10)
N4 N 0.079(20) 0.405(13) -0.810(11)
H1 H 0.537 0.420 -0.723
H2 H -0.189 0.240 -0.416
H3 H 0.071 0.535 -0.864
H4 H 0.140 0.367 -0.899
Ni1_2 Ni 1.00000 0.00000 0.00000
O1A O 0.716(20) -0.160(34) -0.030(58)
O1A_2 O -0.284(20) -0.160(34) -0.030(58)
O2A O 0.705(21) 0.171(33) 0.004(57)
O2A_2 O -0.295(21) 0.171(33) 0.004(57)
C1A C 0.503(78) -0.087(58) -0.023(86)
N1A N -0.135(13) -0.152(36) 0.322(11)
N2A N -0.390(12) -0.215(32) 0.425(10)
C2A C -0.393(11) -0.334(27) 0.613(8)
N3A N -0.148(10) -0.327(32) 0.633(8)
C3A C 0.006(11) -0.239(54) 0.447(10)
N4A N -0.079(20) -0.405(13) 0.810(11)
H1A H -0.537 -0.420 0.723
H2A H 0.189 -0.240 0.416
H3A H -0.071 -0.535 0.864
H4A H -0.140 -0.367 0.899
loop_
_geom_bond_atom_site_label_1
_geom_bond_atom_site_label_2
_geom_bond_site_symmetry_1
_geom_bond_site_symmetry_2
Ni1 O1 1_555 1_555
O1 C1 1_555 1_555
O2 Ni1 1_555 1_555
C1 O2A 1_555 1_555
N1 Ni1 1_555 1_555
N2 N1 1_555 1_555
C2 N2 1_555 1_555
N3 C2 1_555 1_555
C3 N1 1_555 1_555
N4 N3 1_555 1_555
H1 C2 1_555 1_555
H2 C3 1_555 1_555
H3 N4 1_555 1_555
H4 N4 1_555 1_555
Ni1_2 O1A 1_555 1_555
O1A C1A 1_555 1_555
O1A_2 Ni1 1_555 1_555
O2A Ni1_2 1_555 1_555
O2A_2 Ni1 1_555 1_555
C1A O2 1_555 1_555
N1A Ni1 1_555 1_555
N2A N1A 1_555 1_555
C2A N2A 1_555 1_555
N3A C2A 1_555 1_555
C3A N1A 1_555 1_555
N4A N3A 1_555 1_555
H1A C2A 1_555 1_555
H2A C3A 1_555 1_555
H3A N4A 1_555 1_555
H4A N4A 1_555 1_555
C1 C1A 1_555 1_555
N3 C3 1_555 1_555
N3A C3A 1_555 1_555

#END
