
#######################################################################
#
#                 Cambridge Crystallographic Data Centre
#                                CCDC 
#
#######################################################################
#
# If this CIF has been generated from an entry in the Cambridge 
# Structural Database, then it will include bibliographic, chemical, 
# crystal, experimental, refinement or atomic coordinate data resulting 
# from the CCDC's data processing and validation procedures.
#
#######################################################################

data_VAXHOR01
_symmetry_cell_setting           orthorhombic
_symmetry_space_group_name_H-M   'P n m a'
_symmetry_Int_Tables_number      62
_space_group_name_Hall           '-P 2ac 2n'
loop_
_symmetry_equiv_pos_site_id
_symmetry_equiv_pos_as_xyz
1 x,y,z
2 1/2-x,-y,1/2+z
3 1/2+x,1/2-y,1/2-z
4 -x,1/2+y,-z
5 -x,-y,-z
6 1/2+x,y,1/2-z
7 1/2-x,1/2+y,1/2+z
8 x,1/2-y,z
_cell_length_a                   18.263(18)
_cell_length_b                   6.852(4)
_cell_length_c                   9.564(5)
_cell_angle_alpha                90
_cell_angle_beta                 90
_cell_angle_gamma                90
_cell_volume                     1196.82
loop_
_atom_site_label
_atom_site_type_symbol
_atom_site_fract_x
_atom_site_fract_y
_atom_site_fract_z
O5 O 0.025 0.113 0.027
Ca1 Ca -0.01950 0.75000 0.3942
O1 O -0.10000 0.75000 0.198
O2 O 0.0765 0.59250 0.244
O3 O 0.171 0.395 0.091
O4 O 0.0535 0.906 0.5855
N1 N 0.37800 0.75000 -0.083
C1 C 0.105 0.75000 0.209
C2 C 0.174 0.75000 0.1270
C3 C 0.2075 0.5745 0.093
C4 C 0.275 0.571 0.022
C5 C 0.30700 0.75000 -0.02
C6 C 0.073 0.75000 0.639
C7 C 0.126 0.75000 0.767
Ca1D Ca 0.01950 1.25000 0.6058
Ca1E Ca 0.48050 0.75000 0.1058
Ca1D_2 Ca 0.01950 0.25000 0.6058
O2G O 0.0765 0.90750 0.244
O3G O 0.171 1.105 0.091
O4G O 0.0535 0.594 0.5855
O4D O -0.0535 1.094 0.4145
O4C O -0.0535 0.406 0.4145
N1E N -0.12200 0.75000 0.583
C3G C 0.2075 0.9255 0.093
C4G C 0.275 0.929 0.022
loop_
_geom_bond_atom_site_label_1
_geom_bond_atom_site_label_2
_geom_bond_site_symmetry_1
_geom_bond_site_symmetry_2
Ca1 O1 1_555 1_555
O2 Ca1 1_555 1_555
O3 C3 1_555 1_555
O4 Ca1 1_555 1_555
N1 C5 1_555 1_555
C1 O2 1_555 1_555
C2 C1 1_555 1_555
C3 C2 1_555 1_555
C4 C3 1_555 1_555
C5 C4 1_555 1_555
C6 O4 1_555 1_555
C7 C6 1_555 1_555
Ca1D O4 1_555 1_555
Ca1E N1 1_555 1_555
Ca1D_2 O4G 1_555 1_555
O2G Ca1 1_555 1_555
O3G C3G 1_555 1_555
O4G Ca1 1_555 1_555
O4D Ca1 1_555 1_555
O4C Ca1 1_555 1_555
N1E Ca1 1_555 1_555
C3G C2 1_555 1_555
C4G C5 1_555 1_555
C1 O2G 1_555 1_555
C6 O4G 1_555 1_555
Ca1D O4D 1_555 1_555
Ca1D_2 O4C 1_555 1_555
C3G C4G 1_555 1_555

#END
