
#######################################################################
#
#                 Cambridge Crystallographic Data Centre
#                                CCDC 
#
#######################################################################
#
# If this CIF has been generated from an entry in the Cambridge 
# Structural Database, then it will include bibliographic, chemical, 
# crystal, experimental, refinement or atomic coordinate data resulting 
# from the CCDC's data processing and validation procedures.
#
#######################################################################

data_VAXHOR
_symmetry_cell_setting           monoclinic
_symmetry_space_group_name_H-M   'P 21/n'
_symmetry_Int_Tables_number      14
_space_group_name_Hall           '-P 2yn'
loop_
_symmetry_equiv_pos_site_id
_symmetry_equiv_pos_as_xyz
1 x,y,z
2 1/2-x,1/2+y,1/2-z
3 -x,-y,-z
4 1/2+x,1/2-y,1/2+z
_cell_length_a                   19.530(18)
_cell_length_b                   9.564(5)
_cell_length_c                   6.852(4)
_cell_angle_alpha                90
_cell_angle_beta                 110.75(6)
_cell_angle_gamma                90
_cell_volume                     1196.83
loop_
_atom_site_label
_atom_site_type_symbol
_atom_site_fract_x
_atom_site_fract_y
_atom_site_fract_z
O2 O 0.027(2) 0.031(3) 0.146(7)
O3 O 0.023(2) 0.023(3) 0.416(5)
O3B O -0.023(2) -0.023(3) 0.584(5)
Ca1 Ca 0.4805(2) 0.1058(4) 0.2309(5)
O1 O 0.400(1) 0.302(2) 0.149(2)
O4 O 0.578(1) 0.256(2) 0.169(2)
O5 O 0.575(1) 0.256(1) 0.481(2)
C1 C 0.605(1) 0.291(2) 0.350(3)
C2 C 0.674(1) 0.373(2) 0.423(3)
C3 C 0.708(1) 0.403(2) 0.284(3)
O6 O 0.671(1) 0.409(3) 0.064(4)
O7 O 0.671(1) 0.409(3) 0.774(3)
C4 C 0.774(1) 0.472(2) 0.343(2)
C5 C 0.807(1) 0.520(2) 0.559(3)
N1 N 0.378(1) -0.083(1) 0.126(2)
C6 C 0.776(1) 0.484(2) 0.703(3)
C7 C 0.707(1) 0.411(2) 0.634(3)
O8 O 0.447(1) 0.088(1) 0.540(2)
O9 O 0.446(1) 0.083(1) -0.149(2)
C8 C 0.427(1) 0.139(2) 0.677(2)
C9 C 0.374(1) 0.267(2) 0.625(3)
O8B O 0.553(1) -0.088(1) 0.460(2)
O9B O 0.554(1) -0.083(1) 0.149(2)
N1C N 0.878(1) 0.583(1) 0.626(2)
C5C C 0.307(1) -0.020(2) 0.059(3)
Ca1B Ca 0.5195(2) -0.1058(4) 0.7691(5)
Ca1B_2 Ca 0.5195(2) -0.1058(4) -0.2309(5)
C8_2 C 0.427(1) 0.139(2) -0.323(2)
O9_2 O 0.446(1) 0.083(1) 0.851(2)
C8B C 0.573(1) -0.139(2) 0.323(2)
Ca1C Ca 0.9805(2) 0.3942(4) 0.7309(5)
C4C C 0.274(1) 0.028(2) -0.157(2)
C6C C 0.276(1) 0.016(2) 0.203(3)
O1B O 0.600(1) -0.302(2) 0.851(2)
O4B O 0.422(1) -0.256(2) 0.831(2)
O5B O 0.425(1) -0.256(1) 0.519(2)
N1B N 0.622(1) 0.083(1) 0.874(2)
O9B_2 O 0.554(1) -0.083(1) 1.149(2)
C9B C 0.626(1) -0.267(2) 0.375(3)
O1C O 0.900(1) 0.198(2) 0.649(2)
O4C O 1.078(1) 0.244(2) 0.669(2)
O5C O 1.075(1) 0.244(1) 0.981(2)
O8A O 1.053(1) 0.588(1) 0.960(2)
O8C O 0.947(1) 0.412(1) 1.040(2)
O9A O 1.054(1) 0.583(1) 0.649(2)
O9C O 0.946(1) 0.417(1) 0.351(2)
C3C C 0.208(1) 0.097(2) -0.216(3)
C7C C 0.207(1) 0.089(2) 0.134(3)
C1B C 0.395(1) -0.291(2) 0.650(3)
C5A C 0.693(1) 0.020(2) 0.941(3)
C1C C 1.105(1) 0.209(2) 0.850(3)
Ca1A Ca 1.0195(2) 0.6058(4) 1.2691(5)
C8A C 1.073(1) 0.639(2) 0.823(2)
C8C C 0.927(1) 0.361(2) 1.177(2)
Ca1A_2 Ca 1.0195(2) 0.6058(4) 0.2691(5)
C8C_2 C 0.927(1) 0.361(2) 0.177(2)
C2C C 0.174(1) 0.127(2) -0.077(3)
O6C O 0.171(1) 0.091(3) -0.436(4)
O7C O 0.171(1) 0.091(3) 0.274(3)
C2B C 0.326(1) -0.373(2) 0.577(3)
C4A C 0.726(1) -0.028(2) 1.157(2)
C6A C 0.724(1) -0.016(2) 0.797(3)
C2C_2 C 1.174(1) 0.127(2) 0.923(3)
O1A O 1.100(1) 0.802(2) 1.351(2)
O4A O 0.922(1) 0.756(2) 1.331(2)
O5A O 0.925(1) 0.756(1) 1.019(2)
N1A N 1.122(1) 0.417(1) 1.374(2)
O9A_2 O 1.054(1) 0.583(1) 1.649(2)
O9C_2 O 0.946(1) 0.417(1) 1.351(2)
C9A C 1.126(1) 0.767(2) 0.875(3)
C9C C 0.874(1) 0.233(2) 1.125(3)
C1C_2 C 0.105(1) 0.209(2) -0.150(3)
C3B C 0.292(1) -0.403(2) 0.716(3)
C7B C 0.293(1) -0.411(2) 0.366(3)
C3A C 0.792(1) -0.097(2) 1.216(3)
C7A C 0.793(1) -0.089(2) 0.866(3)
C1A C 0.895(1) 0.791(2) 1.150(3)
C5B C 1.193(1) 0.480(2) 1.441(3)
O6B O 0.329(1) -0.409(3) 0.936(4)
C4B C 0.226(1) -0.472(2) 0.657(2)
O7B O 0.329(1) -0.409(3) 0.226(3)
C6B C 0.224(1) -0.484(2) 0.297(3)
C2A C 0.826(1) -0.127(2) 1.077(3)
O6A O 0.829(1) -0.091(3) 1.436(4)
O7A O 0.829(1) -0.091(3) 0.726(3)
C2A_2 C 0.826(1) 0.873(2) 1.077(3)
C4B_2 C 1.226(1) 0.528(2) 1.657(2)
C6B_2 C 1.224(1) 0.516(2) 1.297(3)
C5B_2 C 0.193(1) -0.520(2) 0.441(3)
C1A_2 C 0.895(1) -0.209(2) 1.150(3)
loop_
_geom_bond_atom_site_label_1
_geom_bond_atom_site_label_2
_geom_bond_site_symmetry_1
_geom_bond_site_symmetry_2
Ca1 O1 1_555 1_555
O3 O3B 1_555 1_555
O4 Ca1 1_555 1_555
O5 Ca1 1_555 1_555
C1 O4 1_555 1_555
C2 C1 1_555 1_555
C3 C2 1_555 1_555
O6 C3 1_555 1_555
O7 C7 1_555 1_555
C4 C3 1_555 1_555
C5 C4 1_555 1_555
N1 Ca1 1_555 1_555
C6 C5 1_555 1_555
C7 C2 1_555 1_555
O8 Ca1 1_555 1_555
O9 Ca1 1_555 1_555
C8 O8 1_555 1_555
C9 C8 1_555 1_555
O8B Ca1 1_555 1_555
O9B Ca1 1_555 1_555
N1C C5 1_555 1_555
C5C N1 1_555 1_555
Ca1B O8 1_555 1_555
Ca1B_2 O9 1_555 1_555
C8_2 O9 1_555 1_555
O9_2 C8 1_555 1_555
C8B O8B 1_555 1_555
Ca1C N1C 1_555 1_555
C4C C5C 1_555 1_555
C6C C5C 1_555 1_555
O1B Ca1B 1_555 1_555
O4B Ca1B 1_555 1_555
O5B Ca1B 1_555 1_555
N1B Ca1B 1_555 1_555
O9B_2 Ca1B 1_555 1_555
C9B C8B 1_555 1_555
O1C Ca1C 1_555 1_555
O4C Ca1C 1_555 1_555
O5C Ca1C 1_555 1_555
O8A Ca1C 1_555 1_555
O8C Ca1C 1_555 1_555
O9A Ca1C 1_555 1_555
O9C Ca1C 1_555 1_555
C3C C4C 1_555 1_555
C7C C6C 1_555 1_555
C1B O4B 1_555 1_555
C5A N1B 1_555 1_555
C1C O4C 1_555 1_555
Ca1A O8A 1_555 1_555
C8A O8A 1_555 1_555
C8C O8C 1_555 1_555
Ca1A_2 O9A 1_555 1_555
C8C_2 O9C 1_555 1_555
C2C C3C 1_555 1_555
O6C C3C 1_555 1_555
O7C C7C 1_555 1_555
C2B C1B 1_555 1_555
C4A C5A 1_555 1_555
C6A C5A 1_555 1_555
C2C_2 C1C 1_555 1_555
O1A Ca1A 1_555 1_555
O4A Ca1A 1_555 1_555
O5A Ca1A 1_555 1_555
N1A Ca1A 1_555 1_555
O9A_2 Ca1A 1_555 1_555
O9C_2 Ca1A 1_555 1_555
C9A C8A 1_555 1_555
C9C C8C 1_555 1_555
C1C_2 C2C 1_555 1_555
C3B C2B 1_555 1_555
C7B C2B 1_555 1_555
C3A C4A 1_555 1_555
C7A C6A 1_555 1_555
C1A O4A 1_555 1_555
C5B N1A 1_555 1_555
O6B C3B 1_555 1_555
C4B C3B 1_555 1_555
O7B C7B 1_555 1_555
C6B C7B 1_555 1_555
C2A C3A 1_555 1_555
O6A C3A 1_555 1_555
O7A C7A 1_555 1_555
C2A_2 C1A 1_555 1_555
C4B_2 C5B 1_555 1_555
C6B_2 C5B 1_555 1_555
C5B_2 C4B 1_555 1_555
C1A_2 C2A 1_555 1_555
O5 C1 1_555 1_555
C6 C7 1_555 1_555
O8B Ca1B 1_555 1_555
O9B Ca1B_2 1_555 1_555
O9B C8B 1_555 1_555
Ca1B O9_2 1_555 1_555
O5B C1B 1_555 1_555
O5C C1C 1_555 1_555
O8C Ca1A 1_555 1_555
O9A C8A 1_555 1_555
O9C Ca1A_2 1_555 1_555
C7C C2C 1_555 1_555
C8C O9C_2 1_555 1_555
O5A C1A 1_555 1_555
C7A C2A 1_555 1_555
C6B C5B_2 1_555 1_555

#END
