
#######################################################################
#
#                 Cambridge Crystallographic Data Centre
#                                CCDC 
#
#######################################################################
#
# If this CIF has been generated from an entry in the Cambridge 
# Structural Database, then it will include bibliographic, chemical, 
# crystal, experimental, refinement or atomic coordinate data resulting 
# from the CCDC's data processing and validation procedures.
#
#######################################################################

data_VAXHIM
_symmetry_cell_setting           monoclinic
_symmetry_space_group_name_H-M   'P 21/n'
_symmetry_Int_Tables_number      14
_space_group_name_Hall           '-P 2yn'
loop_
_symmetry_equiv_pos_site_id
_symmetry_equiv_pos_as_xyz
1 x,y,z
2 1/2-x,1/2+y,1/2-z
3 -x,-y,-z
4 1/2+x,1/2-y,1/2+z
_cell_length_a                   12.589(5)
_cell_length_b                   6.455(2)
_cell_length_c                   12.677(5)
_cell_angle_alpha                90
_cell_angle_beta                 98.748(9)
_cell_angle_gamma                90
_cell_volume                     1018.17
loop_
_atom_site_label
_atom_site_type_symbol
_atom_site_fract_x
_atom_site_fract_y
_atom_site_fract_z
Cu1 Cu 0.5000 0.5000 0.5000
O1 O 0.39627(15) 0.7120(3) 0.52234(15)
O2 O 0.29633(18) 0.6005(3) 0.37480(17)
N1 N 0.58629(17) 0.9286(3) 0.29007(17)
N2 N 0.66427(18) 0.7869(4) 0.27856(19)
N3 N 0.56288(17) 0.6810(3) 0.39946(17)
C1 C 0.6467(2) 0.6416(4) 0.3459(2)
H3 H 0.6889 0.5191 0.3565
C2 C 0.5272(2) 0.8636(4) 0.3613(2)
H4 H 0.4681 0.9366 0.3820
C3 C 0.5708(2) 1.1115(4) 0.2220(2)
H5 H 0.6391 1.1896 0.2276
H6 H 0.5163 1.2028 0.2463
C4 C 0.5345(2) 1.0503(4) 0.1067(2)
C5 C 0.4607(2) 0.8931(5) 0.0795(2)
H7 H 0.4330 0.8188 0.1340
C6 C 0.5731(2) 1.1565(5) 0.0259(2)
H8 H 0.6237 1.2651 0.0433
C7 C 0.2254(2) 0.8681(5) 0.4748(3)
H9 H 0.1593 0.8425 0.4249
H10 H 0.2507 1.0092 0.4647
H11 H 0.2109 0.8521 0.5482
C8 C 0.3102(2) 0.7151(4) 0.4543(2)
Cu1_2 Cu 0.5000 1.5000 -0.5000
O1B O 0.60373(15) 0.2880(3) 0.47766(15)
O2B O 0.70367(18) 0.3995(3) 0.62520(17)
N1B N 0.41371(17) 1.0714(3) -0.29007(17)
N2B N 0.33573(18) 1.2131(4) -0.27856(19)
N3B N 0.43712(17) 1.3190(3) -0.39946(17)
N3B_2 N 0.43712(17) 0.3190(3) 0.60054(17)
C1B C 0.3533(2) 1.3584(4) -0.3459(2)
H3B H 0.3111 1.4809 -0.3565
C2B C 0.4728(2) 1.1364(4) -0.3613(2)
H4B H 0.5319 1.0634 -0.3820
C3B C 0.4292(2) 0.8885(4) -0.2220(2)
H5B H 0.3609 0.8104 -0.2276
H6B H 0.4837 0.7972 -0.2463
C4B C 0.4655(2) 0.9497(4) -0.1067(2)
C5B C 0.5393(2) 1.1069(5) -0.0795(2)
H7B H 0.5670 1.1812 -0.1340
C6B C 0.4269(2) 0.8435(5) -0.0259(2)
H8B H 0.3763 0.7349 -0.0433
C7B C 0.7746(2) 0.1319(5) 0.5252(3)
H9B H 0.8407 0.1575 0.5751
H10B H 0.7493 -0.0092 0.5353
H11B H 0.7891 0.1479 0.4518
C8B C 0.6898(2) 0.2849(4) 0.5457(2)
O3 O 0.3448(2) 0.1974(5) 0.3140(2)
H1 H 0.333(3) 0.313(7) 0.331(3)
H2 H 0.304(4) 0.173(7) 0.260(4)
loop_
_geom_bond_atom_site_label_1
_geom_bond_atom_site_label_2
_geom_bond_site_symmetry_1
_geom_bond_site_symmetry_2
Cu1 O1 1_555 1_555
O1 C8 1_555 1_555
O2 C8 1_555 1_555
O3 H1 1_555 1_555
H2 O3 1_555 1_555
N1 N2 1_555 1_555
N2 C1 1_555 1_555
N3 Cu1 1_555 1_555
C1 N3 1_555 1_555
H3 C1 1_555 1_555
C2 N1 1_555 1_555
H4 C2 1_555 1_555
C3 N1 1_555 1_555
H5 C3 1_555 1_555
H6 C3 1_555 1_555
C4 C3 1_555 1_555
C5 C4 1_555 1_555
H7 C5 1_555 1_555
C6 C4 1_555 1_555
H8 C6 1_555 1_555
C7 H9 1_555 1_555
H10 C7 1_555 1_555
H11 C7 1_555 1_555
C8 C7 1_555 1_555
Cu1_2 N3B 1_555 1_555
O1B Cu1 1_555 1_555
O2B C8B 1_555 1_555
N1B N2B 1_555 1_555
N2B C1B 1_555 1_555
N3B C1B 1_555 1_555
N3B_2 Cu1 1_555 1_555
C1B H3B 1_555 1_555
C2B N1B 1_555 1_555
H4B C2B 1_555 1_555
C3B N1B 1_555 1_555
H5B C3B 1_555 1_555
H6B C3B 1_555 1_555
C4B C3B 1_555 1_555
C5B C6 1_555 1_555
H7B C5B 1_555 1_555
C6B C5 1_555 1_555
H8B C6B 1_555 1_555
C7B H9B 1_555 1_555
H10B C7B 1_555 1_555
H11B C7B 1_555 1_555
C8B O1B 1_555 1_555
N3 C2 1_555 1_555
N3B C2B 1_555 1_555
C4B C5B 1_555 1_555
C4B C6B 1_555 1_555
C7B C8B 1_555 1_555

#END
