
#######################################################################
#
#                 Cambridge Crystallographic Data Centre
#                                CCDC 
#
#######################################################################
#
# If this CIF has been generated from an entry in the Cambridge 
# Structural Database, then it will include bibliographic, chemical, 
# crystal, experimental, refinement or atomic coordinate data resulting 
# from the CCDC's data processing and validation procedures.
#
#######################################################################

data_VAXJIN02
_symmetry_cell_setting           monoclinic
_symmetry_space_group_name_H-M   'P 21/c'
_symmetry_Int_Tables_number      14
_space_group_name_Hall           '-P 2ybc'
loop_
_symmetry_equiv_pos_site_id
_symmetry_equiv_pos_as_xyz
1 x,y,z
2 -x,1/2+y,1/2-z
3 -x,-y,-z
4 x,1/2-y,1/2+z
_cell_length_a                   8.790(4)
_cell_length_b                   14.615(7)
_cell_length_c                   6.955(3)
_cell_angle_alpha                90
_cell_angle_beta                 97.799(8)
_cell_angle_gamma                90
_cell_volume                     885.215
loop_
_atom_site_label
_atom_site_type_symbol
_atom_site_fract_x
_atom_site_fract_y
_atom_site_fract_z
C1 C 1.2365(2) 0.60186(13) 0.3471(3)
C2 C 1.1110(2) 0.61939(12) 0.4625(3)
C3 C 0.9573(2) 0.60600(12) 0.3839(3)
C4 C 0.8403(2) 0.62395(13) 0.4921(3)
H1 H 0.7389 0.6143 0.4380
C5 C 0.8725(2) 0.65608(12) 0.6800(3)
C6 C 1.0247(2) 0.66904(12) 0.7609(3)
H2 H 1.0479 0.6900 0.8878
C7 C 1.1398(2) 0.65084(12) 0.6529(3)
H3 H 1.2410 0.6598 0.7085
H4 H 1.010(4) 0.567(2) 0.160(4)
H5 H 0.672(3) 0.6901(17) 0.723(4)
H6 H 0.571(3) 0.4560(17) 0.315(4)
H7 H 0.430(5) 0.686(3) 0.111(6)
H8 H 0.781(3) 0.713(2) 0.880(4)
H9 H 0.485(3) 0.5359(19) 0.300(4)
H10 H 0.452(4) 0.755(3) 0.015(5)
N1 N 0.7544(2) 0.67205(13) 0.7917(3)
Na1 Na 0.68263(9) 0.54460(6) -0.00114(11)
O1 O 1.20344(16) 0.57226(11) 0.17607(19)
O2 O 1.37381(15) 0.61716(10) 0.4217(2)
O3 O 0.91913(17) 0.57666(11) 0.19852(19)
O4 O 0.53818(16) 0.49345(11) 0.2359(2)
O5 O 0.4906(3) 0.70204(19) 0.0540(4)
N1_2 N 0.7544(2) 0.67205(13) -0.2083(3)
Na1_2 Na 0.68263(9) 0.54460(6) 0.99886(11)
Na1B Na 0.31737(9) 0.45540(6) 0.00114(11)
Na1B_2 Na 1.31737(9) 0.45540(6) 0.00114(11)
O1B O 0.79656(16) 0.42774(11) -0.17607(19)
O4B O 0.46182(16) 0.50655(11) -0.2359(2)
loop_
_geom_bond_atom_site_label_1
_geom_bond_atom_site_label_2
_geom_bond_site_symmetry_1
_geom_bond_site_symmetry_2
C1 C2 1_555 1_555
C2 C3 1_555 1_555
C3 C4 1_555 1_555
C4 H1 1_555 1_555
C5 C4 1_555 1_555
C6 C5 1_555 1_555
H2 C6 1_555 1_555
C7 C2 1_555 1_555
H3 C7 1_555 1_555
H4 O3 1_555 1_555
H5 N1 1_555 1_555
H6 O4 1_555 1_555
H7 O5 1_555 1_555
H8 N1 1_555 1_555
H9 O4 1_555 1_555
H10 O5 1_555 1_555
N1 C5 1_555 1_555
Na1 O3 1_555 1_555
O1 C1 1_555 1_555
O2 C1 1_555 1_555
O3 C3 1_555 1_555
O4 Na1 1_555 1_555
O5 Na1 1_555 1_555
N1_2 Na1 1_555 1_555
Na1_2 N1 1_555 1_555
Na1B O4 1_555 1_555
Na1B_2 O1 1_555 1_555
O1B Na1 1_555 1_555
O4B Na1 1_555 1_555
C6 C7 1_555 1_555
Na1B O4B 1_555 1_555

#END
