
#######################################################################
#
#                 Cambridge Crystallographic Data Centre
#                                CCDC 
#
#######################################################################
#
# If this CIF has been generated from an entry in the Cambridge 
# Structural Database, then it will include bibliographic, chemical, 
# crystal, experimental, refinement or atomic coordinate data resulting 
# from the CCDC's data processing and validation procedures.
#
#######################################################################

data_VAXJIN01
_symmetry_cell_setting           monoclinic
_symmetry_space_group_name_H-M   'P 21/c'
_symmetry_Int_Tables_number      14
_space_group_name_Hall           '-P 2ybc'
loop_
_symmetry_equiv_pos_site_id
_symmetry_equiv_pos_as_xyz
1 x,y,z
2 -x,1/2+y,1/2-z
3 -x,-y,-z
4 x,1/2-y,1/2+z
_cell_length_a                   8.820(2)
_cell_length_b                   14.632(3)
_cell_length_c                   6.948(2)
_cell_angle_alpha                90
_cell_angle_beta                 97.88(3)
_cell_angle_gamma                90
_cell_volume                     888.202
loop_
_atom_site_label
_atom_site_type_symbol
_atom_site_fract_x
_atom_site_fract_y
_atom_site_fract_z
Na1 Na 0.3174(1) 0.04461(5) 0.0015(1)
O1 O 0.3738(1) -0.11705(8) 0.4223(2)
O2 O 0.2033(1) -0.07215(9) 0.1765(2)
O3 O -0.0808(1) -0.07651(9) 0.1986(2)
O4 O 0.4617(1) -0.00676(9) -0.2358(2)
O5 O 0.5097(2) 0.20213(15) -0.0537(3)
N1 N -0.2458(2) -0.17219(11) 0.7911(2)
C1 C 0.1109(2) -0.11928(9) 0.4629(2)
C2 C -0.0428(2) -0.10593(9) 0.3830(2)
C3 C -0.1604(2) -0.12402(10) 0.4919(2)
C4 C -0.1276(2) -0.15581(9) 0.6803(2)
C5 C 0.0247(2) -0.16896(10) 0.7620(2)
C6 C 0.1405(2) -0.15091(10) 0.6531(2)
C7 C 0.2368(2) -0.10192(10) 0.3465(2)
Na1B Na 0.6826(1) -0.04461(5) -0.0015(1)
Na1B_2 Na -0.3174(1) -0.04461(5) -0.0015(1)
Na1B_3 Na -0.3174(1) -0.04461(5) 0.9985(1)
O3B O 0.0808(1) 0.07651(9) -0.1986(2)
O4B O 0.5383(1) 0.00676(9) 0.2358(2)
N1B N 0.2458(2) 0.17219(11) 0.2089(2)
loop_
_geom_bond_atom_site_label_1
_geom_bond_atom_site_label_2
_geom_bond_site_symmetry_1
_geom_bond_site_symmetry_2
Na1 O2 1_555 1_555
O1 C7 1_555 1_555
O2 C7 1_555 1_555
O3 C2 1_555 1_555
O4 Na1 1_555 1_555
O5 Na1 1_555 1_555
N1 C4 1_555 1_555
C1 C2 1_555 1_555
C2 C3 1_555 1_555
C3 C4 1_555 1_555
C4 C5 1_555 1_555
C5 C6 1_555 1_555
C6 C1 1_555 1_555
C7 C1 1_555 1_555
Na1B O4 1_555 1_555
Na1B_2 O3 1_555 1_555
Na1B_3 N1 1_555 1_555
O3B Na1 1_555 1_555
O4B Na1 1_555 1_555
N1B Na1 1_555 1_555
Na1B O4B 1_555 1_555

#END
