
#######################################################################
#
#                 Cambridge Crystallographic Data Centre
#                                CCDC 
#
#######################################################################
#
# If this CIF has been generated from an entry in the Cambridge 
# Structural Database, then it will include bibliographic, chemical, 
# crystal, experimental, refinement or atomic coordinate data resulting 
# from the CCDC's data processing and validation procedures.
#
#######################################################################

data_VAXQUH
_symmetry_cell_setting           monoclinic
_symmetry_space_group_name_H-M   'P 21/n'
_symmetry_Int_Tables_number      14
_space_group_name_Hall           '-P 2yn'
loop_
_symmetry_equiv_pos_site_id
_symmetry_equiv_pos_as_xyz
1 x,y,z
2 1/2-x,1/2+y,1/2-z
3 -x,-y,-z
4 1/2+x,1/2-y,1/2+z
_cell_length_a                   6.3520(17)
_cell_length_b                   14.863(4)
_cell_length_c                   13.441(4)
_cell_angle_alpha                90
_cell_angle_beta                 98.928(4)
_cell_angle_gamma                90
_cell_volume                     1253.59
loop_
_atom_site_label
_atom_site_type_symbol
_atom_site_fract_x
_atom_site_fract_y
_atom_site_fract_z
Cu1 Cu 0.0000 1.0000 0.5000
C1 C -0.3442(7) 1.1474(3) 0.5528(3)
O1 O -0.2268(5) 1.1426(2) 0.4884(2)
C2 C -0.2545(7) 1.1921(3) 0.6542(4)
O2 O -0.0903(5) 1.2351(2) 0.6604(3)
C3 C -0.3759(7) 1.1796(3) 0.7376(3)
C4 C -0.2922(8) 1.2121(3) 0.8336(3)
H1 H -0.1553 1.2394 0.8447
C5 C -0.4084(8) 1.2043(3) 0.9118(3)
H2 H -0.3516 1.2265 0.9767
C6 C -0.6082(8) 1.1642(3) 0.8959(3)
H3 H -0.6879 1.1598 0.9499
C7 C -0.6932(8) 1.1302(3) 0.8013(3)
H4 H -0.8289 1.1019 0.7910
C8 C -0.5766(7) 1.1384(3) 0.7220(3)
C9 C -0.6691(7) 1.1017(3) 0.6212(3)
O3 O -0.8476(5) 1.0630(2) 0.6151(2)
C10 C -0.5591(7) 1.1127(3) 0.5386(3)
N1 N -0.6413(6) 1.0984(2) 0.4392(3)
N2 N -0.8273(6) 1.0655(2) 0.4129(3)
C11 C -0.8932(7) 1.0716(3) 0.3043(3)
C12 C -0.7492(7) 1.0525(3) 0.2389(3)
H5 H -0.6066 1.0359 0.2644
C13 C -0.8174(8) 1.0580(3) 0.1360(3)
H6 H -0.7223 1.0428 0.0906
C14 C -1.0215(8) 1.0853(3) 0.0990(4)
H7 H -1.0664 1.0895 0.0284
C15 C -1.1611(8) 1.1066(3) 0.1648(3)
H8 H -1.3005 1.1272 0.1391
C16 C -1.0992(7) 1.0982(3) 0.2679(3)
H9 H -1.1971 1.1105 0.3129
Cu1_2 Cu -1.0000 1.0000 0.5000
Cu1_3 Cu 1.0000 1.0000 0.5000
C1B C 0.3442(7) 0.8526(3) 0.4472(3)
O1B O 0.2268(5) 0.8574(2) 0.5116(2)
C2B C 0.2545(7) 0.8079(3) 0.3458(4)
O2B O 0.0903(5) 0.7649(2) 0.3396(3)
C3B C 0.3759(7) 0.8204(3) 0.2624(3)
C4B C 0.2922(8) 0.7879(3) 0.1664(3)
H1B H 0.1553 0.7606 0.1553
C5B C 0.4084(8) 0.7957(3) 0.0882(3)
H2B H 0.3516 0.7735 0.0233
C6B C 0.6082(8) 0.8358(3) 0.1041(3)
H3B H 0.6879 0.8402 0.0501
C7B C 0.6932(8) 0.8698(3) 0.1987(3)
H4B H 0.8289 0.8981 0.2090
C8B C 0.5766(7) 0.8616(3) 0.2780(3)
C9B C 0.6691(7) 0.8983(3) 0.3788(3)
O3B O 0.8476(5) 0.9370(2) 0.3849(2)
O3_2 O 0.1524(5) 1.0630(2) 0.6151(2)
O3B_2 O -0.1524(5) 0.9370(2) 0.3849(2)
C10B C 0.5591(7) 0.8873(3) 0.4614(3)
N1B N 0.6413(6) 0.9016(2) 0.5608(3)
N2B N 0.8273(6) 0.9345(2) 0.5871(3)
N2_2 N 0.1727(6) 1.0655(2) 0.4129(3)
N2B_2 N -0.1727(6) 0.9345(2) 0.5871(3)
C11B C 0.8932(7) 0.9284(3) 0.6957(3)
C12B C 0.7492(7) 0.9475(3) 0.7611(3)
H5B H 0.6066 0.9641 0.7356
C13B C 0.8174(8) 0.9420(3) 0.8640(3)
H6B H 0.7223 0.9572 0.9094
C14B C 1.0215(8) 0.9147(3) 0.9010(4)
H7B H 1.0664 0.9105 0.9716
C15B C 1.1611(8) 0.8934(3) 0.8352(3)
H8B H 1.3005 0.8728 0.8609
C16B C 1.0992(7) 0.9018(3) 0.7321(3)
H9B H 1.1971 0.8895 0.6871
loop_
_geom_bond_atom_site_label_1
_geom_bond_atom_site_label_2
_geom_bond_site_symmetry_1
_geom_bond_site_symmetry_2
Cu1 O1 1_555 1_555
C1 O1 1_555 1_555
C2 C1 1_555 1_555
O2 C2 1_555 1_555
C3 C2 1_555 1_555
C4 C3 1_555 1_555
H1 C4 1_555 1_555
C5 C4 1_555 1_555
H2 C5 1_555 1_555
C6 C5 1_555 1_555
H3 C6 1_555 1_555
C7 C6 1_555 1_555
H4 C7 1_555 1_555
C8 C3 1_555 1_555
C9 C8 1_555 1_555
O3 C9 1_555 1_555
C10 C1 1_555 1_555
N1 C10 1_555 1_555
N2 N1 1_555 1_555
C11 N2 1_555 1_555
C12 C11 1_555 1_555
H5 C12 1_555 1_555
C13 C12 1_555 1_555
H6 C13 1_555 1_555
C14 C13 1_555 1_555
H7 C14 1_555 1_555
C15 C14 1_555 1_555
H8 C15 1_555 1_555
C16 C11 1_555 1_555
H9 C16 1_555 1_555
Cu1_2 O3 1_555 1_555
Cu1_3 O3B 1_555 1_555
C1B O1B 1_555 1_555
O1B Cu1 1_555 1_555
C2B C1B 1_555 1_555
O2B C2B 1_555 1_555
C3B C2B 1_555 1_555
C4B C3B 1_555 1_555
H1B C4B 1_555 1_555
C5B C4B 1_555 1_555
H2B C5B 1_555 1_555
C6B C5B 1_555 1_555
H3B C6B 1_555 1_555
C7B C6B 1_555 1_555
H4B C7B 1_555 1_555
C8B C3B 1_555 1_555
C9B C8B 1_555 1_555
O3B C9B 1_555 1_555
O3_2 Cu1 1_555 1_555
O3B_2 Cu1 1_555 1_555
C10B C1B 1_555 1_555
N1B C10B 1_555 1_555
N2B Cu1_3 1_555 1_555
N2_2 Cu1 1_555 1_555
N2B_2 Cu1 1_555 1_555
C11B N2B 1_555 1_555
C12B C11B 1_555 1_555
H5B C12B 1_555 1_555
C13B C12B 1_555 1_555
H6B C13B 1_555 1_555
C14B C13B 1_555 1_555
H7B C14B 1_555 1_555
C15B C14B 1_555 1_555
H8B C15B 1_555 1_555
C16B C11B 1_555 1_555
H9B C16B 1_555 1_555
C7 C8 1_555 1_555
C9 C10 1_555 1_555
N2 Cu1_2 1_555 1_555
C15 C16 1_555 1_555
C7B C8B 1_555 1_555
C9B C10B 1_555 1_555
N1B N2B 1_555 1_555
C15B C16B 1_555 1_555

#END
