
#######################################################################
#
#                 Cambridge Crystallographic Data Centre
#                                CCDC 
#
#######################################################################
#
# If this CIF has been generated from an entry in the Cambridge 
# Structural Database, then it will include bibliographic, chemical, 
# crystal, experimental, refinement or atomic coordinate data resulting 
# from the CCDC's data processing and validation procedures.
#
#######################################################################

data_VAXSIY
_symmetry_cell_setting           triclinic
_symmetry_space_group_name_H-M   'P -1'
_symmetry_Int_Tables_number      2
_space_group_name_Hall           '-P 1'
loop_
_symmetry_equiv_pos_site_id
_symmetry_equiv_pos_as_xyz
1 x,y,z
2 -x,-y,-z
_cell_length_a                   11.030(2)
_cell_length_b                   12.045(2)
_cell_length_c                   20.673(4)
_cell_angle_alpha                81.84(3)
_cell_angle_beta                 81.39(3)
_cell_angle_gamma                74.74(3)
_cell_volume                     2604.66
loop_
_atom_site_label
_atom_site_type_symbol
_atom_site_fract_x
_atom_site_fract_y
_atom_site_fract_z
Zn1 Zn -0.68297(6) 0.43633(5) -0.97893(2)
Zn2 Zn -0.71926(6) 0.60731(5) -0.87244(3)
Zn3 Zn -1.19735(6) -0.03321(6) -0.58837(3)
O1 O -0.8074(3) 0.3765(3) -0.91450(15)
O2 O -0.8178(4) 0.4936(3) -0.83819(17)
O3 O -1.1322(4) 0.0597(3) -0.66511(17)
O4 O -1.0778(5) 0.1523(4) -0.59451(18)
O5 O -0.8568(5) 0.6870(4) -0.9865(2)
O6 O -0.8483(5) 0.7508(4) -0.8927(2)
O7 O -0.6294(5) 0.6702(4) -0.8184(2)
O8 O -0.6275(5) 0.5220(4) -0.7419(2)
O9 O -0.3172(4) 0.9162(4) -0.63101(19)
O10 O -0.3823(6) 0.8114(4) -0.5433(2)
O11 O -1.0596(4) 0.8293(4) -1.56427(18)
O12 O -0.9954(5) 0.7672(4) -1.66240(19)
O13 O -0.4999(4) 0.2411(4) -0.90543(17)
O14 O -0.5493(4) 0.2999(3) -1.00666(17)
O15 O -0.6060(4) 0.5325(3) -0.94237(17)
H1 H -0.6464 0.5164 -0.9052
C1 C -0.8379(4) 0.4076(4) -0.8573(2)
C2 C -0.9019(4) 0.3339(4) -0.8061(2)
C3 C -0.8935(5) 0.3406(4) -0.7403(2)
H2 H -0.8499 0.3904 -0.7293
C4 C -0.9497(5) 0.2737(4) -0.6912(2)
H3 H -0.9427 0.2775 -0.6473
C5 C -0.9670(5) 0.2596(4) -0.8222(2)
H4 H -0.9713 0.2534 -0.8661
C6 C -1.0257(5) 0.1944(4) -0.7726(2)
H5 H -1.0714 0.1462 -0.7834
C7 C -1.0167(4) 0.2005(4) -0.7074(2)
C8 C -1.0795(5) 0.1332(5) -0.6510(2)
C9 C -0.6019(5) 0.6143(5) -0.7634(3)
C10 C -0.5405(5) 0.6740(5) -0.7234(2)
C11 C -0.4775(5) 0.7575(5) -0.7517(2)
H6 H -0.4706 0.7764 -0.7971
C12 C -0.4248(5) 0.8130(5) -0.7134(3)
C13 C -0.5465(5) 0.6440(5) -0.6558(3)
H7 H -0.5860 0.5862 -0.6364
C14 C -0.4946(5) 0.6989(5) -0.6174(2)
H8 H -0.4997 0.6786 -0.5721
C15 C -0.4342(5) 0.7851(5) -0.6460(2)
C16 C -0.3727(6) 0.8407(5) -0.6030(3)
C17 C -0.9959(6) 0.7577(5) -1.6023(2)
C18 C -0.9103(5) 0.6492(5) -1.5711(2)
C19 C -0.8522(6) 0.5563(5) -1.6071(3)
H9 H -0.8620 0.5623 -1.6515
C20 C -0.7813(7) 0.4566(6) -1.5782(3)
H10 H -0.7449 0.3947 -1.6028
C21 C -0.7629(6) 0.4465(6) -1.5132(3)
H11 H -0.7150 0.3782 -1.4933
C22 C -0.8908(5) 0.6406(5) -1.5051(2)
H12 H -0.9271 0.7021 -1.4802
C23 C -0.8173(5) 0.5401(5) -1.4782(2)
C24 C -0.7429(5) 0.6018(5) -1.3868(2)
H13 H -0.7144 0.6580 -1.4162
C25 C -0.7282(5) 0.5933(5) -1.3214(2)
H14 H -0.6893 0.6433 -1.3068
C26 C -0.8356(5) 0.4455(5) -1.3668(3)
H15 H -0.8700 0.3937 -1.3828
C27 C -0.8240(5) 0.4346(5) -1.3014(2)
H16 H -0.8515 0.3765 -1.2732
C28 C -0.7713(5) 0.5100(4) -1.2768(2)
C29 C -0.7602(5) 0.5012(4) -1.2050(2)
C30 C -0.6890(5) 0.5597(5) -1.1806(3)
H17 H -0.6474 0.6085 -1.2091
C31 C -0.6788(5) 0.5466(5) -1.1148(2)
H18 H -0.6282 0.5859 -1.0999
C32 C -0.8288(6) 0.4372(5) -1.1593(3)
H19 H -0.8826 0.3997 -1.1729
C33 C -0.8152(6) 0.4307(5) -1.0941(3)
H20 H -0.8628 0.3892 -1.0640
C34 C -0.4893(5) 0.2267(4) -0.9644(2)
C35 C -0.4075(5) 0.1182(4) -0.9891(2)
C36 C -0.3557(5) 0.0230(5) -0.9460(2)
H21 H -0.3672 0.0293 -0.9010
C37 C -0.2882(5) -0.0795(5) -0.9687(3)
H22 H -0.2569 -0.1426 -0.9391
C38 C -0.2661(5) -0.0901(5) -1.0354(3)
H23 H -0.2202 -0.1593 -1.0514
C39 C -0.3848(4) 0.1087(4) -1.0561(2)
H24 H -0.4167 0.1713 -1.0859
C40 C -0.3152(4) 0.0066(4) -1.0779(2)
C41 C -0.3391(5) -0.0761(4) -1.1747(2)
H25 H -0.3772 -0.1283 -1.1469
C42 C -0.3301(5) -0.0764(4) -1.2413(2)
H26 H -0.3644 -0.1269 -1.2587
C43 C -0.2321(5) 0.0713(4) -1.1880(2)
H27 H -0.1988 0.1210 -1.1695
C44 C -0.2186(4) 0.0722(4) -1.2549(2)
H28 H -0.1755 0.1217 -1.2816
C45 C -0.2698(4) -0.0014(4) -1.2830(2)
C46 C -0.2620(7) 0.0006(7) -1.3556(3)
C47 C -0.1893(7) 0.0581(6) -1.3968(3)
H29 H -0.1439 0.1005 -1.3802
C48 C -0.1807(7) 0.0554(6) -1.4636(3)
H30 H -0.1287 0.0965 -1.4908
C49 C -0.3331(7) -0.0505(6) -1.3830(3)
H31 H -0.3934 -0.0838 -1.3571
C50 C -0.3148(7) -0.0526(6) -1.4507(3)
H32 H -0.3593 -0.0944 -1.4683
C51 C -0.8792(7) 0.7667(6) -0.9516(3)
C52 C -0.9421(5) 0.8878(5) -0.9761(3)
C53 C -0.9999(6) 0.9701(6) -0.9332(3)
H33 H -0.986(6) 0.936(5) -0.883(3)
C54 C -0.9424(6) 0.9194(6) -1.0432(3)
H34 H -0.911(6) 0.865(5) -1.067(3)
N1 N -0.7982(4) 0.5295(4) -1.40868(19)
N2 N -0.7378(4) 0.4804(4) -1.07097(19)
N3 N -0.2932(4) -0.0009(3) -1.14874(18)
N4 N -0.2407(6) -0.0009(5) -1.4910(2)
H45 H -0.381(5) 0.853(5) -0.733(3)
Zn1_2 Zn -0.68297(6) 1.43633(5) -1.97893(2)
Zn1_3 Zn -0.68297(6) -0.56367(5) 0.02107(2)
Zn1_4 Zn -1.68297(6) 0.43633(5) 0.02107(2)
Zn2_2 Zn -0.71926(6) 1.60731(5) -1.87244(3)
Zn2A Zn -1.28074(6) 1.39269(5) -1.12756(3)
Zn2_3 Zn -1.71926(6) -0.39269(5) -0.87244(3)
Zn3_2 Zn -1.19735(6) 0.96679(6) -1.58837(3)
Zn3_3 Zn -0.19735(6) 0.96679(6) -0.58837(3)
Zn3_4 Zn -0.19735(6) -0.03321(6) -1.58837(3)
O1_2 O -0.8074(3) 1.3765(3) -1.91450(15)
O2_2 O -0.8178(4) 1.4936(3) -1.83819(17)
O3_2 O -1.1322(4) 1.0597(3) -1.66511(17)
O4_2 O -1.0778(5) 1.1523(4) -1.59451(18)
O5A O -1.1432(5) 1.3130(4) -1.0135(2)
O6A O -1.1517(5) 1.2492(4) -1.1073(2)
O6_2 O -0.8483(5) 1.7508(4) -1.8927(2)
O7_2 O -1.6294(5) -0.3298(4) -0.8184(2)
O7_3 O -0.6294(5) 1.6702(4) -1.8184(2)
O8_2 O -1.6275(5) -0.4780(4) -0.7419(2)
O9_2 O -1.3172(4) -0.0838(4) -0.63101(19)
O9_3 O -1.3172(4) 0.9162(4) -1.63101(19)
O10_2 O -1.3823(6) -0.1886(4) -0.5433(2)
O11_2 O -1.0596(4) -0.1707(4) -0.56427(18)
O12_2 O -0.9954(5) -0.2328(4) -0.66240(19)
O13_2 O -1.4999(4) 0.2411(4) 0.09457(17)
O14_2 O -1.5493(4) 0.2999(3) -0.00666(17)
O14_3 O -0.5493(4) 1.2999(3) -2.00666(17)
O15_2 O -0.6060(4) 1.5325(3) -1.94237(17)
H1_2 H -0.6464 1.5164 -1.9052
C1_2 C -0.8379(4) 1.4076(4) -1.8573(2)
C2_2 C -0.9019(4) 1.3339(4) -1.8061(2)
C3_2 C -0.8935(5) 1.3406(4) -1.7403(2)
H2_2 H -0.8499 1.3904 -1.7293
C4_2 C -0.9497(5) 1.2737(4) -1.6912(2)
H3_2 H -0.9427 1.2775 -1.6473
C5_2 C -0.9670(5) 1.2596(4) -1.8222(2)
H4_2 H -0.9713 1.2534 -1.8661
C6_2 C -1.0257(5) 1.1944(4) -1.7726(2)
H5_2 H -1.0714 1.1462 -1.7834
C7_2 C -1.0167(4) 1.2005(4) -1.7074(2)
C8_2 C -1.0795(5) 1.1332(5) -1.6510(2)
C9_2 C -1.6019(5) -0.3857(5) -0.7634(3)
C10_2 C -1.5405(5) -0.3260(5) -0.7234(2)
C11_2 C -1.4775(5) -0.2425(5) -0.7517(2)
H6_2 H -1.4706 -0.2236 -0.7971
C12_2 C -1.4248(5) -0.1870(5) -0.7134(3)
C13_2 C -1.5465(5) -0.3560(5) -0.6558(3)
H7_2 H -1.5860 -0.4138 -0.6364
C14_2 C -1.4946(5) -0.3011(5) -0.6174(2)
H8_2 H -1.4997 -0.3214 -0.5721
C15_2 C -1.4342(5) -0.2149(5) -0.6460(2)
C16_2 C -1.3727(6) -0.1593(5) -0.6030(3)
C17_2 C -0.9959(6) -0.2423(5) -0.6023(2)
C18_2 C -0.9103(5) -0.3508(5) -0.5711(2)
C19_2 C -0.8522(6) -0.4437(5) -0.6071(3)
H9_2 H -0.8620 -0.4377 -0.6515
C20_2 C -0.7813(7) -0.5434(6) -0.5782(3)
H10_2 H -0.7449 -0.6053 -0.6028
C21_2 C -0.7629(6) -0.5535(6) -0.5132(3)
H11_2 H -0.7150 -0.6218 -0.4933
C22_2 C -0.8908(5) -0.3594(5) -0.5051(2)
H12_2 H -0.9271 -0.2979 -0.4802
C23_2 C -0.8173(5) -0.4599(5) -0.4782(2)
C24_2 C -0.7429(5) -0.3982(5) -0.3868(2)
H13_2 H -0.7144 -0.3420 -0.4162
C25_2 C -0.7282(5) -0.4067(5) -0.3214(2)
H14_2 H -0.6893 -0.3567 -0.3068
C26_2 C -0.8356(5) -0.5545(5) -0.3668(3)
H15_2 H -0.8700 -0.6063 -0.3828
C27_2 C -0.8240(5) -0.5654(5) -0.3014(2)
H16_2 H -0.8515 -0.6235 -0.2732
C28_2 C -0.7713(5) -0.4900(4) -0.2768(2)
C29_2 C -0.7602(5) -0.4988(4) -0.2050(2)
C30_2 C -0.6890(5) -0.4403(5) -0.1806(3)
H17_2 H -0.6474 -0.3915 -0.2091
C31_2 C -0.6788(5) -0.4534(5) -0.1148(2)
H18_2 H -0.6282 -0.4141 -0.0999
C32_2 C -0.8288(6) -0.5628(5) -0.1593(3)
H19_2 H -0.8826 -0.6003 -0.1729
C33_2 C -0.8152(6) -0.5693(5) -0.0941(3)
H20_2 H -0.8628 -0.6108 -0.0640
C34_2 C -1.4893(5) 0.2267(4) 0.0356(2)
C35_2 C -1.4075(5) 0.1182(4) 0.0109(2)
C36_2 C -1.3557(5) 0.0230(5) 0.0540(2)
H21_2 H -1.3672 0.0293 0.0990
C37_2 C -1.2882(5) -0.0795(5) 0.0313(3)
H22_2 H -1.2569 -0.1426 0.0609
C38_2 C -1.2661(5) -0.0901(5) -0.0354(3)
H23_2 H -1.2202 -0.1593 -0.0514
C39_2 C -1.3848(4) 0.1087(4) -0.0561(2)
H24_2 H -1.4167 0.1713 -0.0859
C40_2 C -1.3152(4) 0.0066(4) -0.0779(2)
C41_2 C -1.3391(5) -0.0761(4) -0.1747(2)
H25_2 H -1.3772 -0.1283 -0.1469
C42_2 C -1.3301(5) -0.0764(4) -0.2413(2)
H26_2 H -1.3644 -0.1269 -0.2587
C43_2 C -1.2321(5) 0.0713(4) -0.1880(2)
H27_2 H -1.1988 0.1210 -0.1695
C44_2 C -1.2186(4) 0.0722(4) -0.2549(2)
H28_2 H -1.1755 0.1217 -0.2816
C45_2 C -1.2698(4) -0.0014(4) -0.2830(2)
C46_2 C -1.2620(7) 0.0006(7) -0.3556(3)
C47_2 C -1.1893(7) 0.0581(6) -0.3968(3)
H29_2 H -1.1439 0.1005 -0.3802
C48_2 C -1.1807(7) 0.0554(6) -0.4636(3)
H30_2 H -1.1287 0.0965 -0.4908
C49_2 C -1.3331(7) -0.0505(6) -0.3830(3)
H31_2 H -1.3934 -0.0838 -0.3571
C50_2 C -1.3148(7) -0.0526(6) -0.4507(3)
H32_2 H -1.3593 -0.0944 -0.4683
C51A C -1.1208(7) 1.2333(6) -1.0484(3)
C52A C -1.0579(5) 1.1122(5) -1.0239(3)
C53A C -1.0001(6) 1.0299(6) -1.0668(3)
H33A H -1.014(6) 1.064(5) -1.117(3)
C54A C -1.0576(6) 1.0806(6) -0.9568(3)
H34A H -1.089(6) 1.135(5) -0.933(3)
N1_2 N -0.7982(4) -0.4705(4) -0.40868(19)
N2_2 N -0.7378(4) -0.5196(4) -0.07097(19)
N2_3 N -0.7378(4) 1.4804(4) -2.07097(19)
N3_2 N -1.2932(4) -0.0009(3) -0.14874(18)
N4_2 N -1.2407(6) -0.0009(5) -0.4910(2)
N4_3 N -1.2407(6) 0.9991(5) -1.4910(2)
H45_2 H -1.381(5) -0.147(5) -0.733(3)
O16 O -0.4285(8) 1.2243(8) -0.5658(3)
H35 H -0.4749 1.2861 -0.5831
H36 H -0.4223 1.2317 -0.6076
O17 O -0.5412(8) 1.2939(8) -0.6868(3)
H37 H -0.4729 1.2422 -0.7035
O18 O -0.4039(7) 1.1851(7) -0.7882(3)
H39 H -0.3472 1.1236 -0.7957
H40 H -0.4048 1.2290 -0.8242
O19 O -0.2006(6) 0.9958(5) -0.7819(2)
H41 H -0.2328 0.9385 -0.7802
H42 H -0.1745 1.0203 -0.7513
O20 O -0.0518(5) 0.7676(5) -0.7872(2)
H43 H -0.0249 0.7723 -0.7515
H44 H 0.0072 0.7621 -0.8190
H38? H -0.4797 1.2872 -0.7174
loop_
_geom_bond_atom_site_label_1
_geom_bond_atom_site_label_2
_geom_bond_site_symmetry_1
_geom_bond_site_symmetry_2
Zn1 O1 1_555 1_555
Zn2 O2 1_555 1_555
Zn3 O3 1_555 1_555
O1 C1 1_555 1_555
O2 C1 1_555 1_555
O3 C8 1_555 1_555
O4 C8 1_555 1_555
O5 C51 1_555 1_555
O6 Zn2 1_555 1_555
O7 Zn2 1_555 1_555
O8 C9 1_555 1_555
O9 C16 1_555 1_555
O10 C16 1_555 1_555
O11 C17 1_555 1_555
O12 C17 1_555 1_555
O13 C34 1_555 1_555
O14 Zn1 1_555 1_555
O15 Zn1 1_555 1_555
H1 O15 1_555 1_555
C1 C2 1_555 1_555
C2 C3 1_555 1_555
C3 H2 1_555 1_555
C4 C3 1_555 1_555
H3 C4 1_555 1_555
C5 C2 1_555 1_555
H4 C5 1_555 1_555
C6 C5 1_555 1_555
H5 C6 1_555 1_555
C7 C4 1_555 1_555
C8 C7 1_555 1_555
C9 O7 1_555 1_555
C10 C9 1_555 1_555
C11 C10 1_555 1_555
H6 C11 1_555 1_555
C12 C11 1_555 1_555
C13 C10 1_555 1_555
H7 C13 1_555 1_555
C14 C13 1_555 1_555
H8 C14 1_555 1_555
C15 C12 1_555 1_555
C16 C15 1_555 1_555
C17 C18 1_555 1_555
C18 C19 1_555 1_555
C19 H9 1_555 1_555
C20 C19 1_555 1_555
H10 C20 1_555 1_555
C21 C20 1_555 1_555
H11 C21 1_555 1_555
C22 C18 1_555 1_555
H12 C22 1_555 1_555
C23 C21 1_555 1_555
C24 H13 1_555 1_555
C25 C24 1_555 1_555
H14 C25 1_555 1_555
C26 H15 1_555 1_555
C27 C26 1_555 1_555
H16 C27 1_555 1_555
C28 C25 1_555 1_555
C29 C28 1_555 1_555
C30 C29 1_555 1_555
H17 C30 1_555 1_555
C31 C30 1_555 1_555
H18 C31 1_555 1_555
C32 C29 1_555 1_555
H19 C32 1_555 1_555
C33 C32 1_555 1_555
H20 C33 1_555 1_555
C34 O14 1_555 1_555
C35 C34 1_555 1_555
C36 C35 1_555 1_555
H21 C36 1_555 1_555
C37 C36 1_555 1_555
H22 C37 1_555 1_555
C38 C37 1_555 1_555
H23 C38 1_555 1_555
C39 C35 1_555 1_555
H24 C39 1_555 1_555
C40 C38 1_555 1_555
C41 H25 1_555 1_555
C42 C41 1_555 1_555
H26 C42 1_555 1_555
C43 H27 1_555 1_555
C44 C43 1_555 1_555
H28 C44 1_555 1_555
C45 C42 1_555 1_555
C46 C45 1_555 1_555
C47 C46 1_555 1_555
H29 C47 1_555 1_555
C48 C47 1_555 1_555
H30 C48 1_555 1_555
C49 C46 1_555 1_555
H31 C49 1_555 1_555
C50 C49 1_555 1_555
H32 C50 1_555 1_555
C51 O6 1_555 1_555
C52 C51 1_555 1_555
C53 C52 1_555 1_555
H33 C53 1_555 1_555
C54 C52 1_555 1_555
H34 C54 1_555 1_555
N1 C23 1_555 1_555
N2 Zn1 1_555 1_555
N3 C40 1_555 1_555
N4 C48 1_555 1_555
O16 H35 1_555 1_555
H36 O16 1_555 1_555
O17 H37 1_555 1_555
O18 H39 1_555 1_555
H40 O18 1_555 1_555
O19 H41 1_555 1_555
H42 O19 1_555 1_555
O20 H43 1_555 1_555
H44 O20 1_555 1_555
H45 C12 1_555 1_555
Zn1_2 O1_2 1_555 1_555
Zn1_3 N2_2 1_555 1_555
Zn1_4 O14_2 1_555 1_555
Zn2_2 O2_2 1_555 1_555
Zn2A O6A 1_555 1_555
Zn2_3 O7_2 1_555 1_555
Zn3_2 O11 1_555 1_555
Zn3_3 O9 1_555 1_555
Zn3_4 N4 1_555 1_555
O1_2 C1_2 1_555 1_555
O2_2 C1_2 1_555 1_555
O3_2 Zn3_2 1_555 1_555
O4_2 C8_2 1_555 1_555
O5A C51A 1_555 1_555
O6A C51A 1_555 1_555
O6_2 Zn2_2 1_555 1_555
O7_2 C9_2 1_555 1_555
O7_3 Zn2_2 1_555 1_555
O8_2 C9_2 1_555 1_555
O9_2 Zn3 1_555 1_555
O9_3 Zn3_2 1_555 1_555
O10_2 C16_2 1_555 1_555
O11_2 Zn3 1_555 1_555
O12_2 C17_2 1_555 1_555
O13_2 C34_2 1_555 1_555
O14_2 C34_2 1_555 1_555
O14_3 Zn1_2 1_555 1_555
O15_2 Zn1_2 1_555 1_555
H1_2 O15_2 1_555 1_555
C1_2 C2_2 1_555 1_555
C2_2 C3_2 1_555 1_555
C3_2 H2_2 1_555 1_555
C4_2 C3_2 1_555 1_555
H3_2 C4_2 1_555 1_555
C5_2 C2_2 1_555 1_555
H4_2 C5_2 1_555 1_555
C6_2 C5_2 1_555 1_555
H5_2 C6_2 1_555 1_555
C7_2 C4_2 1_555 1_555
C8_2 O3_2 1_555 1_555
C9_2 C10_2 1_555 1_555
C10_2 C11_2 1_555 1_555
C11_2 H6_2 1_555 1_555
C12_2 C11_2 1_555 1_555
C13_2 C10_2 1_555 1_555
H7_2 C13_2 1_555 1_555
C14_2 C13_2 1_555 1_555
H8_2 C14_2 1_555 1_555
C15_2 C12_2 1_555 1_555
C16_2 O9_2 1_555 1_555
C17_2 O11_2 1_555 1_555
C18_2 C17_2 1_555 1_555
C19_2 C18_2 1_555 1_555
H9_2 C19_2 1_555 1_555
C20_2 C19_2 1_555 1_555
H10_2 C20_2 1_555 1_555
C21_2 C20_2 1_555 1_555
H11_2 C21_2 1_555 1_555
C22_2 C18_2 1_555 1_555
H12_2 C22_2 1_555 1_555
C23_2 C21_2 1_555 1_555
C24_2 H13_2 1_555 1_555
C25_2 C24_2 1_555 1_555
H14_2 C25_2 1_555 1_555
C26_2 H15_2 1_555 1_555
C27_2 C26_2 1_555 1_555
H16_2 C27_2 1_555 1_555
C28_2 C25_2 1_555 1_555
C29_2 C28_2 1_555 1_555
C30_2 C29_2 1_555 1_555
H17_2 C30_2 1_555 1_555
C31_2 C30_2 1_555 1_555
H18_2 C31_2 1_555 1_555
C32_2 C29_2 1_555 1_555
H19_2 C32_2 1_555 1_555
C33_2 C32_2 1_555 1_555
H20_2 C33_2 1_555 1_555
C34_2 C35_2 1_555 1_555
C35_2 C36_2 1_555 1_555
C36_2 H21_2 1_555 1_555
C37_2 C36_2 1_555 1_555
H22_2 C37_2 1_555 1_555
C38_2 C37_2 1_555 1_555
H23_2 C38_2 1_555 1_555
C39_2 C35_2 1_555 1_555
H24_2 C39_2 1_555 1_555
C40_2 C38_2 1_555 1_555
C41_2 H25_2 1_555 1_555
C42_2 C41_2 1_555 1_555
H26_2 C42_2 1_555 1_555
C43_2 H27_2 1_555 1_555
C44_2 C43_2 1_555 1_555
H28_2 C44_2 1_555 1_555
C45_2 C42_2 1_555 1_555
C46_2 C45_2 1_555 1_555
C47_2 C46_2 1_555 1_555
H29_2 C47_2 1_555 1_555
C48_2 C47_2 1_555 1_555
H30_2 C48_2 1_555 1_555
C49_2 C46_2 1_555 1_555
H31_2 C49_2 1_555 1_555
C50_2 C49_2 1_555 1_555
H32_2 C50_2 1_555 1_555
C51A C52A 1_555 1_555
C52A C53A 1_555 1_555
C53A C54 1_555 1_555
H33A C53A 1_555 1_555
C54A C53 1_555 1_555
H34A C54A 1_555 1_555
N1_2 C23_2 1_555 1_555
N2_2 C31_2 1_555 1_555
N2_3 Zn1_2 1_555 1_555
N3_2 C40_2 1_555 1_555
N4_2 Zn3 1_555 1_555
N4_3 Zn3_2 1_555 1_555
H45_2 C12_2 1_555 1_555
Zn2 O15 1_555 1_555
C6 C7 1_555 1_555
C14 C15 1_555 1_555
C22 C23 1_555 1_555
C24 N1 1_555 1_555
C26 N1 1_555 1_555
C27 C28 1_555 1_555
C31 N2 1_555 1_555
C33 N2 1_555 1_555
C39 C40 1_555 1_555
C41 N3 1_555 1_555
C43 N3 1_555 1_555
C44 C45 1_555 1_555
C50 N4 1_555 1_555
Zn2_2 O15_2 1_555 1_555
C6_2 C7_2 1_555 1_555
C7_2 C8_2 1_555 1_555
C14_2 C15_2 1_555 1_555
C15_2 C16_2 1_555 1_555
C22_2 C23_2 1_555 1_555
C24_2 N1_2 1_555 1_555
C26_2 N1_2 1_555 1_555
C27_2 C28_2 1_555 1_555
C33_2 N2_2 1_555 1_555
C39_2 C40_2 1_555 1_555
C41_2 N3_2 1_555 1_555
C43_2 N3_2 1_555 1_555
C44_2 C45_2 1_555 1_555
C48_2 N4_2 1_555 1_555
C50_2 N4_2 1_555 1_555
C52A C54A 1_555 1_555

#END
