
#######################################################################
#
#                 Cambridge Crystallographic Data Centre
#                                CCDC 
#
#######################################################################
#
# If this CIF has been generated from an entry in the Cambridge 
# Structural Database, then it will include bibliographic, chemical, 
# crystal, experimental, refinement or atomic coordinate data resulting 
# from the CCDC's data processing and validation procedures.
#
#######################################################################

data_VAXTEV
_symmetry_cell_setting           monoclinic
_symmetry_space_group_name_H-M   'C 2/c'
_symmetry_Int_Tables_number      15
_space_group_name_Hall           '-C 2yn'
loop_
_symmetry_equiv_pos_site_id
_symmetry_equiv_pos_as_xyz
1 x,y,z
2 -x,y,1/2-z
3 1/2+x,1/2+y,z
4 1/2-x,1/2+y,1/2-z
5 -x,-y,-z
6 x,-y,1/2+z
7 1/2-x,1/2-y,-z
8 1/2+x,1/2-y,1/2+z
_cell_length_a                   23.681(2)
_cell_length_b                   9.6928(7)
_cell_length_c                   35.389(3)
_cell_angle_alpha                90
_cell_angle_beta                 92.7890(10)
_cell_angle_gamma                90
_cell_volume                     8113.4
loop_
_atom_site_label
_atom_site_type_symbol
_atom_site_fract_x
_atom_site_fract_y
_atom_site_fract_z
Cd1 Cd 0.190550(14) 0.95179(4) -0.675080(9)
O1 O 0.14278(17) 0.8219(4) -0.63174(11)
O2 O 0.19834(15) 0.7014(4) -0.66675(9)
O3 O 0.12449(15) 0.2456(4) -0.54788(10)
O4 O 0.1362(2) 0.1048(5) -0.23377(11)
O5 O 0.20438(14) -0.0460(4) -0.23549(9)
O6 O 0.11810(18) -0.0370(4) -0.40888(10)
O7 O -0.25538(15) -0.4390(4) -0.63012(12)
O8 O -0.20394(15) -0.5464(4) -0.67057(11)
O9 O -0.01079(12) -0.3066(3) -0.55664(9)
C1 C 0.1206(2) 0.0104(5) -0.53039(14)
C2 C 0.1457(2) -0.0198(5) -0.49424(14)
C3 C 0.1208(2) -0.1169(5) -0.47105(13)
C4 C 0.0697(2) -0.1817(5) -0.48354(13)
C5 C 0.04285(19) -0.1441(5) -0.51773(12)
C6 C 0.0682(2) -0.0501(5) -0.54163(12)
C7 C 0.1486(2) 0.1109(5) -0.55628(15)
H1 H 0.1892 0.1114 -0.5513
H2 H 0.1406 0.0866 -0.5826
C8 C 0.2005(3) 0.0570(7) -0.48115(19)
H3 H 0.2324 -0.0033 -0.4834
H4 H 0.1982 0.0846 -0.4552
H5 H 0.2051 0.1371 -0.4966
C9 C 0.1440(2) -0.1420(6) -0.43135(14)
H6 H 0.1340 -0.2335 -0.4228
H7 H 0.1849 -0.1330 -0.4299
C10 C 0.0440(3) -0.2963(6) -0.45889(17)
H8 H 0.0165 -0.3478 -0.4739
H9 H 0.0261 -0.2548 -0.4379
H10 H 0.0734 -0.3572 -0.4496
C11 C -0.01575(19) -0.2003(5) -0.52856(14)
H11 H -0.0328 -0.2379 -0.5064
H12 H -0.0398 -0.1266 -0.5386
C12 C 0.0408(2) -0.0117(6) -0.58005(14)
H13 H 0.0016 -0.0373 -0.5809
H14 H 0.0596 -0.0596 -0.5996
H15 H 0.0440 0.0860 -0.5839
C13 C 0.1667(2) 0.7104(5) -0.63849(14)
C14 C 0.1585(2) 0.5874(5) -0.61417(14)
C15 C 0.1184(2) 0.5906(6) -0.58707(17)
H16 H 0.0979 0.6708 -0.5833
C16 C 0.1090(3) 0.4748(6) -0.56572(17)
H17 H 0.0817 0.4775 -0.5477
C17 C 0.1392(2) 0.3555(5) -0.57047(14)
C18 C 0.1797(2) 0.3532(5) -0.59669(14)
H18 H 0.2008 0.2737 -0.6001
C19 C 0.1893(2) 0.4690(5) -0.61797(14)
H19 H 0.2174 0.4668 -0.6354
C20 C 0.1654(2) 0.0223(6) -0.25114(14)
C21 C 0.1525(2) 0.0012(6) -0.29337(15)
C22 C 0.1748(2) -0.1083(5) -0.31252(14)
H20 H 0.1974 -0.1719 -0.2992
C23 C 0.1643(2) -0.1261(6) -0.35087(14)
H21 H 0.1789 -0.2024 -0.3630
C24 C 0.1322(2) -0.0302(6) -0.37111(14)
C25 C 0.1096(3) 0.0802(6) -0.35254(16)
H22 H 0.0873 0.1443 -0.3660
C26 C 0.1198(3) 0.0958(6) -0.31408(16)
H23 H 0.1045 0.1710 -0.3018
C27 C -0.2080(2) -0.4776(5) -0.64169(16)
C28 C -0.1555(2) -0.4360(5) -0.61745(14)
C29 C -0.1016(2) -0.4622(5) -0.62984(15)
H24 H -0.0970 -0.5092 -0.6524
C30 C -0.0554(2) -0.4176(5) -0.60832(15)
H25 H -0.0195 -0.4343 -0.6169
C31 C -0.06014(19) -0.3496(5) -0.57485(14)
C32 C -0.1128(2) -0.3273(6) -0.56180(15)
H26 H -0.1172 -0.2837 -0.5387
C33 C -0.1594(2) -0.3714(7) -0.58380(17)
H27 H -0.1952 -0.3556 -0.5750
O10 O 0.12003(16) 1.1234(5) -0.66877(12)
N2 N 0.0352(2) 1.2140(6) -0.67598(19)
C35 C 0.0744(3) 1.1131(8) -0.6789(2)
C37 C 0.0465(4) 1.3350(9) -0.6573(3)
H36 H 0.0837 1.3309 -0.6453
H37 H 0.0192 1.3490 -0.6385
H38 H 0.0446 1.4101 -0.6750
C38 C -0.0230(4) 1.2026(12) -0.6920(4)
H39 H -0.0272 1.1176 -0.7058
H40 H -0.0310 1.2788 -0.7088
H41 H -0.0488 1.2039 -0.6719
Cd1E Cd 0.190550(14) 0.04821(4) -0.175080(9)
Cd1B Cd -0.309450(14) -0.54821(4) -0.675080(9)
O4E O 0.1362(2) 0.8952(5) -0.73377(11)
O5E O 0.20438(14) 1.0460(4) -0.73549(9)
O7B O 0.24462(15) 1.0610(4) -0.63012(12)
O8B O 0.29606(15) 0.9536(4) -0.67057(11)
N1 N 0.3044(2) 0.9835(5) -0.27259(15)
H28 H 0.2742 0.9542 -0.2603
H29 H 0.3051 0.9363 -0.2945
C34 C 0.2975(3) 1.1335(7) -0.2813(2)
H30 H 0.2629 1.1478 -0.2960
H31 H 0.3288 1.1647 -0.2953
H32 H 0.2965 1.1846 -0.2581
C36 C 0.3561(3) 0.9525(9) -0.2494(2)
H33 H 0.3578 0.8553 -0.2443
H34 H 0.3555 1.0023 -0.2260
H35 H 0.3885 0.9796 -0.2629
O11 O 0.5000 0.970(2) -0.2500
O12 O 0.5000 0.634(2) -0.2500
loop_
_geom_bond_atom_site_label_1
_geom_bond_atom_site_label_2
_geom_bond_site_symmetry_1
_geom_bond_site_symmetry_2
Cd1 O1 1_555 1_555
O1 C13 1_555 1_555
O2 Cd1 1_555 1_555
O3 C7 1_555 1_555
O4 C20 1_555 1_555
O5 C20 1_555 1_555
O6 C9 1_555 1_555
O7 C27 1_555 1_555
O8 C27 1_555 1_555
O9 C11 1_555 1_555
C1 C2 1_555 1_555
C2 C3 1_555 1_555
C3 C4 1_555 1_555
C4 C5 1_555 1_555
C5 C6 1_555 1_555
C6 C1 1_555 1_555
C7 C1 1_555 1_555
H1 C7 1_555 1_555
H2 C7 1_555 1_555
C8 C2 1_555 1_555
H3 C8 1_555 1_555
H4 C8 1_555 1_555
H5 C8 1_555 1_555
C9 C3 1_555 1_555
H6 C9 1_555 1_555
H7 C9 1_555 1_555
C10 C4 1_555 1_555
H8 C10 1_555 1_555
H9 C10 1_555 1_555
H10 C10 1_555 1_555
C11 C5 1_555 1_555
H11 C11 1_555 1_555
H12 C11 1_555 1_555
C12 C6 1_555 1_555
H13 C12 1_555 1_555
H14 C12 1_555 1_555
H15 C12 1_555 1_555
C13 O2 1_555 1_555
C14 C13 1_555 1_555
C15 C14 1_555 1_555
H16 C15 1_555 1_555
C16 C15 1_555 1_555
H17 C16 1_555 1_555
C17 O3 1_555 1_555
C18 C17 1_555 1_555
H18 C18 1_555 1_555
C19 C14 1_555 1_555
H19 C19 1_555 1_555
C20 C21 1_555 1_555
C21 C22 1_555 1_555
C22 H20 1_555 1_555
C23 C22 1_555 1_555
H21 C23 1_555 1_555
C24 O6 1_555 1_555
C25 C24 1_555 1_555
H22 C25 1_555 1_555
C26 C21 1_555 1_555
H23 C26 1_555 1_555
C27 C28 1_555 1_555
C28 C29 1_555 1_555
C29 H24 1_555 1_555
C30 C29 1_555 1_555
H25 C30 1_555 1_555
C31 O9 1_555 1_555
C32 C31 1_555 1_555
H26 C32 1_555 1_555
C33 C28 1_555 1_555
H27 C33 1_555 1_555
O10 Cd1 1_555 1_555
N1 H28 1_555 1_555
H29 N1 1_555 1_555
N2 C35 1_555 1_555
C34 N1 1_555 1_555
H30 C34 1_555 1_555
H31 C34 1_555 1_555
H32 C34 1_555 1_555
C35 O10 1_555 1_555
C36 N1 1_555 1_555
H33 C36 1_555 1_555
H34 C36 1_555 1_555
H35 C36 1_555 1_555
C37 N2 1_555 1_555
H36 C37 1_555 1_555
H37 C37 1_555 1_555
H38 C37 1_555 1_555
C38 N2 1_555 1_555
H39 C38 1_555 1_555
H40 C38 1_555 1_555
H41 C38 1_555 1_555
Cd1E O4 1_555 1_555
Cd1B O7 1_555 1_555
O4E Cd1 1_555 1_555
O5E Cd1 1_555 1_555
O7B Cd1 1_555 1_555
O8B Cd1 1_555 1_555
O5 Cd1E 1_555 1_555
O8 Cd1B 1_555 1_555
C16 C17 1_555 1_555
C18 C19 1_555 1_555
C23 C24 1_555 1_555
C25 C26 1_555 1_555
C30 C31 1_555 1_555
C32 C33 1_555 1_555

#END
