
#######################################################################
#
#                 Cambridge Crystallographic Data Centre
#                                CCDC 
#
#######################################################################
#
# If this CIF has been generated from an entry in the Cambridge 
# Structural Database, then it will include bibliographic, chemical, 
# crystal, experimental, refinement or atomic coordinate data resulting 
# from the CCDC's data processing and validation procedures.
#
#######################################################################

data_VAXVAS
_symmetry_cell_setting           monoclinic
_symmetry_space_group_name_H-M   'P 21/c'
_symmetry_Int_Tables_number      14
_space_group_name_Hall           '-P 2ybc'
loop_
_symmetry_equiv_pos_site_id
_symmetry_equiv_pos_as_xyz
1 x,y,z
2 -x,1/2+y,1/2-z
3 -x,-y,-z
4 x,1/2-y,1/2+z
_cell_length_a                   8.1126(9)
_cell_length_b                   12.5127(13)
_cell_length_c                   13.4177(17)
_cell_angle_alpha                90
_cell_angle_beta                 111.047(2)
_cell_angle_gamma                90
_cell_volume                     1271.17
loop_
_atom_site_label
_atom_site_type_symbol
_atom_site_fract_x
_atom_site_fract_y
_atom_site_fract_z
Ag1 Ag 0.34785(9) -0.07870(5) 0.06310(5)
N1 N 0.2002(8) 0.0696(5) 0.0493(5)
N2 N 0.5134(8) 0.2740(5) 0.4386(5)
O1 O 0.2847(8) -0.0340(4) 0.2446(4)
C1 C 0.1119(11) 0.1136(7) -0.0458(6)
H1 H 0.1170 0.0802 -0.1066
C2 C 0.0149(11) 0.2047(7) -0.0583(6)
H2 H -0.0463 0.2315 -0.1262
C3 C 0.0081(11) 0.2558(7) 0.0285(7)
H3 H -0.0550 0.3191 0.0216
C4 C 0.0964(10) 0.2123(6) 0.1275(6)
H4 H 0.0919 0.2454 0.1885
C5 C 0.1904(9) 0.1204(6) 0.1356(6)
C6 C 0.2736(9) 0.0633(6) 0.2418(6)
C7 C 0.4303(10) 0.2218(5) 0.3473(6)
H5 H 0.4315 0.2511 0.2839
C8 C 0.3428(9) 0.1263(5) 0.3431(5)
C9 C 0.3335(10) 0.0859(6) 0.4361(6)
H6 H 0.2720 0.0229 0.4349
C10 C 0.4154(11) 0.1388(6) 0.5311(7)
H7 H 0.4100 0.1128 0.5948
C11 C 0.5072(10) 0.2334(6) 0.5286(6)
H8 H 0.5659 0.2689 0.5924
Ag1A Ag 0.65215(9) 0.42130(5) 0.43690(5)
N2A N 0.4866(8) -0.2260(5) 0.0614(5)
Cl1 Cl 0.2236(2) 0.53880(15) 0.22689(16)
O2 O 0.221(4) 0.5589(17) 0.1245(11)
O3 O 0.239(5) 0.4301(7) 0.241(2)
O4 O 0.082(2) 0.5804(17) 0.244(2)
O5 O 0.3788(19) 0.576(2) 0.3016(19)
O6? O 0.268(4) 0.579(2) 0.146(2)
O7? O 0.340(3) 0.457(2) 0.269(3)
O8? O 0.060(2) 0.490(2) 0.196(2)
O9? O 0.203(5) 0.6270(19) 0.282(3)
loop_
_geom_bond_atom_site_label_1
_geom_bond_atom_site_label_2
_geom_bond_site_symmetry_1
_geom_bond_site_symmetry_2
Ag1 N1 1_555 1_555
N1 C1 1_555 1_555
N2 C7 1_555 1_555
O1 C6 1_555 1_555
C1 H1 1_555 1_555
C2 C1 1_555 1_555
H2 C2 1_555 1_555
C3 C2 1_555 1_555
H3 C3 1_555 1_555
C4 C3 1_555 1_555
H4 C4 1_555 1_555
C5 N1 1_555 1_555
C6 C5 1_555 1_555
C7 H5 1_555 1_555
C8 C6 1_555 1_555
C9 C8 1_555 1_555
H6 C9 1_555 1_555
C10 C9 1_555 1_555
H7 C10 1_555 1_555
C11 N2 1_555 1_555
H8 C11 1_555 1_555
Cl1 O2 1_555 1_555
O3 Cl1 1_555 1_555
O4 Cl1 1_555 1_555
O5 Cl1 1_555 1_555
Ag1A N2 1_555 1_555
N2A Ag1 1_555 1_555
C4 C5 1_555 1_555
C7 C8 1_555 1_555
C10 C11 1_555 1_555

#END
