
#######################################################################
#
#                 Cambridge Crystallographic Data Centre
#                                CCDC 
#
#######################################################################
#
# If this CIF has been generated from an entry in the Cambridge 
# Structural Database, then it will include bibliographic, chemical, 
# crystal, experimental, refinement or atomic coordinate data resulting 
# from the CCDC's data processing and validation procedures.
#
#######################################################################

data_VAXVOG
_symmetry_cell_setting           monoclinic
_symmetry_space_group_name_H-M   'P 21/c'
_symmetry_Int_Tables_number      14
_space_group_name_Hall           '-P 2ybc'
loop_
_symmetry_equiv_pos_site_id
_symmetry_equiv_pos_as_xyz
1 x,y,z
2 -x,1/2+y,1/2-z
3 -x,-y,-z
4 x,1/2-y,1/2+z
_cell_length_a                   10.1623(5)
_cell_length_b                   11.5785(5)
_cell_length_c                   19.8500(9)
_cell_angle_alpha                90
_cell_angle_beta                 97.0170(10)
_cell_angle_gamma                90
_cell_volume                     2318.14
loop_
_atom_site_label
_atom_site_type_symbol
_atom_site_fract_x
_atom_site_fract_y
_atom_site_fract_z
Zn1 Zn 0.78083(3) 0.38715(3) 0.131317(17)
N1 N 0.7473(3) 0.5667(2) 0.14806(13)
N2 N 1.1343(3) 0.7177(2) 0.36393(13)
C1 C 0.6584(4) 0.6299(3) 0.10900(18)
H1 H 0.6188 0.5986 0.0684
C2 C 0.6231(4) 0.7399(3) 0.1266(2)
H2 H 0.5627 0.7827 0.0977
C3 C 0.6781(4) 0.7851(3) 0.1870(2)
H3 H 0.6528 0.8578 0.2007
C4 C 0.7727(4) 0.7213(3) 0.22790(18)
H4 H 0.8124 0.7508 0.2690
C5 C 0.8060(3) 0.6132(3) 0.20612(16)
C6 C 0.9046(3) 0.5345(3) 0.24520(15)
C7 C 1.0524(3) 0.6824(3) 0.30977(16)
H5 H 1.0345 0.7326 0.2732
C8 C 0.9930(3) 0.5742(3) 0.30572(16)
C9 C 1.0230(4) 0.4977(3) 0.35955(19)
H6 H 0.9874 0.4236 0.3578
C10 C 1.1066(5) 0.5341(3) 0.4153(2)
H7 H 1.1278 0.4849 0.4521
C11 C 1.1585(4) 0.6440(3) 0.41624(18)
H8 H 1.2128 0.6683 0.4548
O1 O 0.9102(2) 0.43379(19) 0.22727(12)
O8 O 0.6406(3) 0.3707(2) 0.04615(12)
H9 H 0.6648 0.3645 0.0026
H10 H 0.5730 0.3161 0.0433
O9 O 0.9147(3) 0.4391(2) 0.06719(15)
H11 H 0.9651 0.3946 0.0409
H12 H 0.9071 0.5121 0.0475
O10 O 0.6356(3) 0.3448(3) 0.19189(13)
H13 H 0.6558 0.3151 0.2355
H14 H 0.5485 0.3207 0.1804
Zn1A Zn 1.21917(3) 0.88715(3) 0.368683(17)
N2A N 0.8657(3) 0.2177(2) 0.13607(13)
S1 S 0.77338(11) 0.18900(9) 0.36438(5)
C12 C 0.7293(4) 0.0431(5) 0.3456(3)
O2 O 0.7385(4) 0.2049(3) 0.43055(16)
O3 O 0.9110(4) 0.1971(4) 0.35863(19)
O4 O 0.6896(6) 0.2550(4) 0.3161(2)
F1 F 0.6045(3) 0.0218(3) 0.3429(3)
F2 F 0.7896(5) -0.0250(4) 0.3921(4)
F3 F 0.7644(6) 0.0109(5) 0.2882(3)
S2 S 0.35703(10) 0.18719(9) 0.08567(6)
C13 C 0.4004(7) 0.0403(5) 0.1066(3)
O5 O 0.3901(4) 0.2491(3) 0.1470(2)
O6 O 0.4360(5) 0.2201(4) 0.03523(18)
O7 O 0.2195(4) 0.1783(4) 0.0644(3)
F4 F 0.3764(6) -0.0306(4) 0.0575(3)
F5 F 0.5262(6) 0.0329(5) 0.1265(4)
F6 F 0.3385(7) 0.0061(4) 0.1574(3)
O11 O 1.0674(3) 0.3348(3) -0.01762(19)
H15 H 1.0390 0.2616 -0.0005
H16 H 1.0301 0.2981 -0.0596
loop_
_geom_bond_atom_site_label_1
_geom_bond_atom_site_label_2
_geom_bond_site_symmetry_1
_geom_bond_site_symmetry_2
Zn1 N1 1_555 1_555
S1 C12 1_555 1_555
S2 C13 1_555 1_555
N1 C1 1_555 1_555
N2 C7 1_555 1_555
C1 H1 1_555 1_555
C2 C1 1_555 1_555
H2 C2 1_555 1_555
C3 C2 1_555 1_555
H3 C3 1_555 1_555
C4 C3 1_555 1_555
H4 C4 1_555 1_555
C5 N1 1_555 1_555
C6 C5 1_555 1_555
C7 H5 1_555 1_555
C8 C6 1_555 1_555
C9 C8 1_555 1_555
H6 C9 1_555 1_555
C10 C9 1_555 1_555
H7 C10 1_555 1_555
C11 N2 1_555 1_555
H8 C11 1_555 1_555
C12 F1 1_555 1_555
C13 F4 1_555 1_555
O1 Zn1 1_555 1_555
O2 S1 1_555 1_555
O3 S1 1_555 1_555
O4 S1 1_555 1_555
O5 S2 1_555 1_555
O6 S2 1_555 1_555
O7 S2 1_555 1_555
O8 Zn1 1_555 1_555
H9 O8 1_555 1_555
H10 O8 1_555 1_555
O9 Zn1 1_555 1_555
H11 O9 1_555 1_555
H12 O9 1_555 1_555
O10 Zn1 1_555 1_555
H13 O10 1_555 1_555
H14 O10 1_555 1_555
O11 H15 1_555 1_555
H16 O11 1_555 1_555
F2 C12 1_555 1_555
F3 C12 1_555 1_555
F5 C13 1_555 1_555
F6 C13 1_555 1_555
Zn1A N2 1_555 1_555
N2A Zn1 1_555 1_555
C4 C5 1_555 1_555
C6 O1 1_555 1_555
C7 C8 1_555 1_555
C10 C11 1_555 1_555

#END
