
#######################################################################
#
#                 Cambridge Crystallographic Data Centre
#                                CCDC 
#
#######################################################################
#
# If this CIF has been generated from an entry in the Cambridge 
# Structural Database, then it will include bibliographic, chemical, 
# crystal, experimental, refinement or atomic coordinate data resulting 
# from the CCDC's data processing and validation procedures.
#
#######################################################################

data_VAXVIA
_symmetry_cell_setting           monoclinic
_symmetry_space_group_name_H-M   'P 21/n'
_symmetry_Int_Tables_number      14
_space_group_name_Hall           '-P 2yn'
loop_
_symmetry_equiv_pos_site_id
_symmetry_equiv_pos_as_xyz
1 x,y,z
2 1/2-x,1/2+y,1/2-z
3 -x,-y,-z
4 1/2+x,1/2-y,1/2+z
_cell_length_a                   13.0805(8)
_cell_length_b                   11.1580(7)
_cell_length_c                   13.8114(8)
_cell_angle_alpha                90
_cell_angle_beta                 95.3980(10)
_cell_angle_gamma                90
_cell_volume                     2006.86
loop_
_atom_site_label
_atom_site_type_symbol
_atom_site_fract_x
_atom_site_fract_y
_atom_site_fract_z
Co1 Co 0.02121(4) 0.60252(5) 0.26604(4)
O1 O 0.1799(2) 0.6473(3) 0.2779(3)
N1 N 0.0260(3) 0.7849(3) 0.3096(3)
N2 N 0.4451(3) 0.9250(3) 0.2762(3)
C1 C -0.0545(4) 0.8507(5) 0.3282(4)
H1 H -0.1197 0.8172 0.3183
C2 C -0.0447(4) 0.9682(5) 0.3621(4)
H2 H -0.1025 1.0123 0.3740
C3 C 0.0509(5) 1.0177(5) 0.3775(4)
H3 H 0.0589 1.0960 0.4002
C4 C 0.1364(4) 0.9495(4) 0.3590(4)
H4 H 0.2024 0.9806 0.3706
C5 C 0.1209(3) 0.8350(4) 0.3231(3)
C6 C 0.2039(3) 0.7507(4) 0.3008(3)
C7 C 0.3458(3) 0.8931(4) 0.2745(3)
H5 H 0.2962 0.9480 0.2504
C8 C 0.3135(3) 0.7836(4) 0.3065(3)
C9 C 0.3881(4) 0.6995(4) 0.3381(4)
H6 H 0.3694 0.6236 0.3581
C10 C 0.4894(4) 0.7308(5) 0.3394(4)
H7 H 0.5406 0.6764 0.3605
C11 C 0.5150(4) 0.8431(5) 0.3092(4)
H8 H 0.5841 0.8635 0.3117
O2 O -0.1355(3) 0.5736(3) 0.2657(3)
H9 H -0.1906 0.5934 0.2162
H10 H -0.1612 0.5436 0.3247
O3 O 0.0013(4) 0.6577(4) 0.1196(3)
H11 H -0.0045 0.7432 0.1080
H12 H 0.0498 0.6117 0.0857
O4 O 0.0413(3) 0.5445(4) 0.4105(2)
H13 H 0.0534 0.6096 0.4567
H14 H 0.0820 0.4718 0.4182
Co1A Co 0.47879(4) 1.10252(5) 0.23396(4)
N2A N 0.0549(3) 0.4250(3) 0.2238(3)
Cl1 Cl 0.24502(11) 0.30094(14) 0.48685(12)
O5 O 0.1412(3) 0.3159(5) 0.4520(4)
O6 O 0.2684(13) 0.3824(14) 0.5643(9)
O7 O 0.3141(10) 0.3191(16) 0.4193(9)
O8 O 0.2528(10) 0.1866(10) 0.5324(14)
Cl2 Cl 0.20221(10) 0.72316(12) 0.59394(10)
O12 O 0.0964(3) 0.7234(6) 0.5657(5)
O13 O 0.2337(8) 0.8422(6) 0.6079(11)
O14 O 0.2345(10) 0.6536(11) 0.6723(7)
O15 O 0.2442(9) 0.6786(12) 0.5098(6)
O19 O -0.0369(11) 0.8978(10) 0.0924(10)
O21 O 0.1170(8) 0.4968(9) 0.0028(6)
O9? O 0.2658(10) 0.3216(16) 0.5851(6)
O10? O 0.3020(11) 0.3838(13) 0.4350(11)
O11? O 0.2790(10) 0.1870(9) 0.4587(12)
O16? O 0.2354(11) 0.6056(8) 0.6064(15)
O17? O 0.2622(9) 0.7875(16) 0.5365(10)
O18? O 0.2106(7) 0.7742(13) 0.6882(6)
O20? O -0.0351(11) 0.9509(11) 0.0630(10)
loop_
_geom_bond_atom_site_label_1
_geom_bond_atom_site_label_2
_geom_bond_site_symmetry_1
_geom_bond_site_symmetry_2
Co1 O1 1_555 1_555
O1 C6 1_555 1_555
N1 Co1 1_555 1_555
N2 C7 1_555 1_555
C1 N1 1_555 1_555
H1 C1 1_555 1_555
C2 C1 1_555 1_555
H2 C2 1_555 1_555
C3 C2 1_555 1_555
H3 C3 1_555 1_555
C4 C3 1_555 1_555
H4 C4 1_555 1_555
C5 N1 1_555 1_555
C6 C5 1_555 1_555
C7 H5 1_555 1_555
C8 C6 1_555 1_555
C9 C8 1_555 1_555
H6 C9 1_555 1_555
C10 C9 1_555 1_555
H7 C10 1_555 1_555
C11 N2 1_555 1_555
H8 C11 1_555 1_555
O2 Co1 1_555 1_555
H9 O2 1_555 1_555
H10 O2 1_555 1_555
O3 Co1 1_555 1_555
H11 O3 1_555 1_555
H12 O3 1_555 1_555
O4 Co1 1_555 1_555
H13 O4 1_555 1_555
H14 O4 1_555 1_555
Cl1 O5 1_555 1_555
O6 Cl1 1_555 1_555
O7 Cl1 1_555 1_555
O8 Cl1 1_555 1_555
Cl2 O12 1_555 1_555
O13 Cl2 1_555 1_555
O14 Cl2 1_555 1_555
O15 Cl2 1_555 1_555
Co1A N2 1_555 1_555
N2A Co1 1_555 1_555
C4 C5 1_555 1_555
C7 C8 1_555 1_555
C10 C11 1_555 1_555

#END
