
#######################################################################
#
#                 Cambridge Crystallographic Data Centre
#                                CCDC 
#
#######################################################################
#
# If this CIF has been generated from an entry in the Cambridge 
# Structural Database, then it will include bibliographic, chemical, 
# crystal, experimental, refinement or atomic coordinate data resulting 
# from the CCDC's data processing and validation procedures.
#
#######################################################################

data_VAXVEX
_symmetry_cell_setting           rhombohedral
_symmetry_space_group_name_H-M   'R -3 c'
_symmetry_Int_Tables_number      167
_space_group_name_Hall           '-R 3 2"c'
loop_
_symmetry_equiv_pos_site_id
_symmetry_equiv_pos_as_xyz
1 x,y,z
2 -y,x-y,z
3 y,x,1/2-z
4 -x+y,-x,z
5 -x,-x+y,1/2-z
6 x-y,-y,1/2-z
7 1/3+x,2/3+y,2/3+z
8 1/3-y,2/3+x-y,2/3+z
9 1/3+y,2/3+x,1/6-z
10 1/3-x+y,2/3-x,2/3+z
11 1/3-x,2/3-x+y,1/6-z
12 1/3+x-y,2/3-y,1/6-z
13 2/3+x,1/3+y,1/3+z
14 2/3-y,1/3+x-y,1/3+z
15 2/3+y,1/3+x,5/6-z
16 2/3-x+y,1/3-x,1/3+z
17 2/3-x,1/3-x+y,5/6-z
18 2/3+x-y,1/3-y,5/6-z
19 -x,-y,-z
20 y,-x+y,-z
21 -y,-x,1/2+z
22 x-y,x,-z
23 x,x-y,1/2+z
24 -x+y,y,1/2+z
25 2/3-x,1/3-y,1/3-z
26 2/3+y,1/3-x+y,1/3-z
27 2/3-y,1/3-x,5/6+z
28 2/3+x-y,1/3+x,1/3-z
29 2/3+x,1/3+x-y,5/6+z
30 2/3-x+y,1/3+y,5/6+z
31 1/3-x,2/3-y,2/3-z
32 1/3+y,2/3-x+y,2/3-z
33 1/3-y,2/3-x,1/6+z
34 1/3+x-y,2/3+x,2/3-z
35 1/3+x,2/3+x-y,1/6+z
36 1/3-x+y,2/3+y,1/6+z
_cell_length_a                   10.6908(3)
_cell_length_b                   10.6908(3)
_cell_length_c                   92.650(2)
_cell_angle_alpha                90
_cell_angle_beta                 90
_cell_angle_gamma                120
_cell_volume                     9170.57
loop_
_atom_site_label
_atom_site_type_symbol
_atom_site_fract_x
_atom_site_fract_y
_atom_site_fract_z
Cd1 Cd -0.6667 0.6667 1.1667
C1 C -0.4383(8) 0.6668(6) 1.14278(4)
H1 H -0.4933 0.5669 1.1419
C2 C -0.2821(10) 0.8840(8) 1.13932(6)
H2 H -0.2052 0.9676 1.1355
C3 C -0.2658(29) 0.6990(23) 1.1233(2)
C4 C -0.2323(33) 0.5951(26) 1.1254(3)
H3 H -0.2460 0.5527 1.1345
C5 C -0.1788(24) 0.5519(20) 1.11451(15)
H4 H -0.1564 0.4798 1.1164
C6 C -0.1561(21) 0.6079(18) 1.10104(12)
C7 C -0.1937(25) 0.7168(21) 1.09835(13)
H5 H -0.1794 0.7580 1.0893
C8 C -0.2524(25) 0.7619(21) 1.10944(15)
H6 H -0.2809 0.8299 1.1078
C9 C -0.1030(23) 0.5448(20) 1.08943(10)
H7 H -0.1491 0.4415 1.0911
H8 H -0.0001 0.5842 1.0909
N1 N -0.4642(7) 0.7423(4) 1.15192(3)
N2 N -0.3630(9) 0.8835(7) 1.14977(5)
N3 N -0.3213(5) 0.7516(4) 1.13470(3)
Cd1H Cd 0.0000 -0.0000 1.0000
Cd1J Cd 0.0000 2.0001 1.0000
Cd1K Cd -2.0001 -0.0000 1.0000
C1H C 0.0001(6) 0.2284(8) 1.02389(4)
C1A C -0.6668(6) 0.8949(10) 1.14278(4)
C1J C -0.2284(8) 1.7718(10) 1.02389(4)
C1C C -0.8949(10) 0.4383(8) 1.14278(4)
C1K C -1.7718(10) -0.0001(6) 1.02389(4)
H1H H -0.0998 0.1734 1.0248
H1A H -0.5669 0.9398 1.1419
H1J H -0.1734 1.7269 1.0248
H1C H -0.9398 0.4933 1.1419
H1K H -1.7269 0.0998 1.0248
C2H C 0.2173(8) 0.3846(10) 1.02735(6)
C2A C -0.8840(8) 0.8339(13) 1.13932(6)
C2J C -0.3846(10) 1.8328(13) 1.02735(6)
C2C C -0.8339(13) 0.2821(10) 1.13932(6)
C2K C -1.8328(13) -0.2173(8) 1.02735(6)
H2H H 0.3009 0.4615 1.0312
H2A H -0.9676 0.8272 1.1355
H2J H -0.4615 1.8395 1.0312
H2C H -0.8272 0.2052 1.1355
H2K H -1.8395 -0.3009 1.0312
C3H C 0.0323(23) 0.4009(29) 1.0434(2)
C3A C -0.6990(23) 1.0352(37) 1.1233(2)
C3J C -0.4009(29) 1.6315(37) 1.0434(2)
C3C C -1.0352(37) 0.2658(29) 1.1233(2)
C3K C -1.6315(37) -0.0323(23) 1.0434(2)
C4H C -0.0716(26) 0.4344(33) 1.0413(3)
C4A C -0.5951(26) 1.1726(42) 1.1254(3)
C4J C -0.4344(33) 1.4941(42) 1.0413(3)
C4C C -1.1726(42) 0.2323(33) 1.1254(3)
C4K C -1.4941(42) 0.0716(26) 1.0413(3)
H3H H -0.1140 0.4207 1.0322
H3A H -0.5527 1.2013 1.1345
H3J H -0.4207 1.4654 1.0322
H3C H -1.2013 0.2460 1.1345
H3K H -1.4654 0.1140 1.0322
C5H C -0.1148(20) 0.4879(24) 1.05216(15)
C5A C -0.5519(20) 1.2693(31) 1.11451(15)
C5J C -0.4879(24) 1.3974(31) 1.05216(15)
C5C C -1.2693(31) 0.1788(24) 1.11451(15)
C5K C -1.3974(31) 0.1148(20) 1.05216(15)
H4H H -0.1869 0.5103 1.0503
H4A H -0.4798 1.3638 1.1164
H4J H -0.5103 1.3029 1.0503
H4C H -1.3638 0.1564 1.1164
H4K H -1.3029 0.1869 1.0503
C6H C -0.0588(18) 0.5106(21) 1.06563(12)
C6A C -0.6079(18) 1.2360(28) 1.10104(12)
C6J C -0.5106(21) 1.4307(28) 1.06563(12)
C6C C -1.2360(28) 0.1561(21) 1.10104(12)
C6K C -1.4307(28) 0.0588(18) 1.06563(12)
C7H C 0.0501(21) 0.4730(25) 1.06832(13)
C7A C -0.7168(21) 1.0895(33) 1.09835(13)
C7J C -0.4730(25) 1.5772(33) 1.06832(13)
C7C C -1.0895(33) 0.1937(25) 1.09835(13)
C7K C -1.5772(33) -0.0501(21) 1.06832(13)
H5H H 0.0913 0.4873 1.0774
H5A H -0.7580 1.0626 1.0893
H5J H -0.4873 1.6041 1.0774
H5C H -1.0626 0.1794 1.0893
H5K H -1.6041 -0.0913 1.0774
C8H C 0.0952(21) 0.4143(25) 1.05723(15)
C8A C -0.7619(21) 0.9857(33) 1.10944(15)
C8J C -0.4143(25) 1.6810(33) 1.05723(15)
C8C C -0.9857(33) 0.2524(25) 1.10944(15)
C8K C -1.6810(33) -0.0952(21) 1.05723(15)
H6H H 0.1632 0.3858 1.0589
H6A H -0.8299 0.8892 1.1078
H6J H -0.3858 1.7775 1.0589
H6C H -0.8892 0.2809 1.1078
H6K H -1.7775 -0.1632 1.0589
C9H C -0.1219(20) 0.5637(23) 1.07724(10)
C9A C -0.5448(20) 1.3522(30) 1.08943(10)
C9J C -0.5637(23) 1.3145(30) 1.07724(10)
C9C C -1.3522(30) 0.1030(23) 1.08943(10)
C9K C -1.3145(30) 0.1219(20) 1.07724(10)
H7H H -0.2252 0.5176 1.0756
H7A H -0.4415 1.4094 1.0911
H7J H -0.5176 1.2573 1.0756
H7C H -1.4094 0.1491 1.0911
H7K H -1.2573 0.2252 1.0756
H8H H -0.0825 0.6666 1.0758
H8A H -0.5842 1.4157 1.0909
H8J H -0.6666 1.2510 1.0758
H8C H -1.4157 0.0001 1.0909
H8K H -1.2510 0.0825 1.0758
N1H N 0.0756(4) 0.2025(7) 1.01475(3)
N1A N -0.7423(4) 0.7935(8) 1.15192(3)
N1J N -0.2025(7) 1.8732(8) 1.01475(3)
N1C N -0.7935(8) 0.4642(7) 1.15192(3)
N1K N -1.8732(8) -0.0756(4) 1.01475(3)
N1X N -0.8691(7) 0.5910(4) 1.18141(3)
N1Y N -0.5910(4) 0.5398(8) 1.18141(3)
N1AA N -0.5398(8) 0.8691(7) 1.18141(3)
N2H N 0.2168(7) 0.3037(9) 1.01690(5)
N2A N -0.8835(7) 0.7535(11) 1.14977(5)
N2J N -0.3037(9) 1.9132(11) 1.01690(5)
N2C N -0.7535(11) 0.3630(9) 1.14977(5)
N2K N -1.9132(11) -0.2168(7) 1.01690(5)
N3H N 0.0849(4) 0.3454(5) 1.03197(3)
N3A N -0.7516(4) 0.9271(6) 1.13470(3)
N3J N -0.3454(5) 1.7396(6) 1.03197(3)
N3C N -0.9271(6) 0.3213(5) 1.13470(3)
N3K N -1.7396(6) -0.0849(4) 1.03197(3)
Cl1 Cl 1.0000 1.0000 0.94398(2)
O1 O 1.0213(6) 1.1345(4) 0.94930(4)
O2 O 1.0000 1.0000 0.92881(8)
O1A O 0.8655(4) 0.8868(7) 0.94930(4)
O1C O 1.1132(7) 0.9787(6) 0.94930(4)
O4 O 0.6667 0.3333 0.0051(4)
O3? O 0.4345(18) 0.9302(18) 0.99825(18)
C10? C 0.415(3) 0.348(3) 0.9561(4)
C11? C 0.454(3) 0.495(4) 0.9577(4)
C12? C 0.527(2) 0.592(2) 0.9458(2)
C13? C 0.5531(17) 0.5370(19) 0.93339(16)
C14? C 0.516(2) 0.400(2) 0.9326(2)
C15? C 0.452(2) 0.311(2) 0.9445(2)
C16? C 0.6332(14) 0.6439(15) 0.92088(12)
H9? H 0.4335 0.5282 0.9661
H10? H 0.5561 0.6895 0.9465
H11? H 0.5321 0.3632 0.9241
H12? H 0.4339 0.2163 0.9439
H13? H 0.6603 0.7299 0.9266
H14? H 0.7184 0.6338 0.9214
loop_
_geom_bond_atom_site_label_1
_geom_bond_atom_site_label_2
_geom_bond_site_symmetry_1
_geom_bond_site_symmetry_2
Cd1 N1 1_555 1_555
C1 H1 1_555 1_555
C2 H2 1_555 1_555
C3 C4 1_555 1_555
C4 H3 1_555 1_555
C5 C4 1_555 1_555
H4 C5 1_555 1_555
C6 C5 1_555 1_555
C7 C6 1_555 1_555
H5 C7 1_555 1_555
C8 C3 1_555 1_555
H6 C8 1_555 1_555
C9 C6 1_555 1_555
H7 C9 1_555 1_555
H8 C9 1_555 1_555
Cl1 O1 1_555 1_555
N1 C1 1_555 1_555
N2 C2 1_555 1_555
N3 C1 1_555 1_555
O2 Cl1 1_555 1_555
Cd1H N1H 1_555 1_555
Cd1J N1J 1_555 1_555
Cd1K N1K 1_555 1_555
C1H H1H 1_555 1_555
C1A H1A 1_555 1_555
C1J H1J 1_555 1_555
C1C H1C 1_555 1_555
C1K H1K 1_555 1_555
C2H H2H 1_555 1_555
C2A H2A 1_555 1_555
C2J H2J 1_555 1_555
C2C H2C 1_555 1_555
C2K H2K 1_555 1_555
C3H C4H 1_555 1_555
C3A C4A 1_555 1_555
C3J C4J 1_555 1_555
C3C C4C 1_555 1_555
C3K C4K 1_555 1_555
C4H H3H 1_555 1_555
C4A H3A 1_555 1_555
C4J H3J 1_555 1_555
C4C H3C 1_555 1_555
C4K H3K 1_555 1_555
C5H C4H 1_555 1_555
C5A C4A 1_555 1_555
C5J C4J 1_555 1_555
C5C C4C 1_555 1_555
C5K C4K 1_555 1_555
H4H C5H 1_555 1_555
H4A C5A 1_555 1_555
H4J C5J 1_555 1_555
H4C C5C 1_555 1_555
H4K C5K 1_555 1_555
C6H C5H 1_555 1_555
C6A C5A 1_555 1_555
C6J C5J 1_555 1_555
C6C C5C 1_555 1_555
C6K C5K 1_555 1_555
C7H C6H 1_555 1_555
C7A C6A 1_555 1_555
C7J C6J 1_555 1_555
C7C C6C 1_555 1_555
C7K C6K 1_555 1_555
H5H C7H 1_555 1_555
H5A C7A 1_555 1_555
H5J C7J 1_555 1_555
H5C C7C 1_555 1_555
H5K C7K 1_555 1_555
C8H C3H 1_555 1_555
C8A C3A 1_555 1_555
C8J C3J 1_555 1_555
C8C C3C 1_555 1_555
C8K C3K 1_555 1_555
H6H C8H 1_555 1_555
H6A C8A 1_555 1_555
H6J C8J 1_555 1_555
H6C C8C 1_555 1_555
H6K C8K 1_555 1_555
C9H C9 1_555 1_555
C9A C6A 1_555 1_555
C9J C6J 1_555 1_555
C9C C6C 1_555 1_555
C9K C6K 1_555 1_555
H7H C9H 1_555 1_555
H7A C9A 1_555 1_555
H7J C9J 1_555 1_555
H7C C9C 1_555 1_555
H7K C9K 1_555 1_555
H8H C9H 1_555 1_555
H8A C9A 1_555 1_555
H8J C9J 1_555 1_555
H8C C9C 1_555 1_555
H8K C9K 1_555 1_555
N1H C1H 1_555 1_555
N1A Cd1 1_555 1_555
N1J C1J 1_555 1_555
N1C Cd1 1_555 1_555
N1K C1K 1_555 1_555
N1X Cd1 1_555 1_555
N1Y Cd1 1_555 1_555
N1AA Cd1 1_555 1_555
N2H C2H 1_555 1_555
N2A C2A 1_555 1_555
N2J C2J 1_555 1_555
N2C C2C 1_555 1_555
N2K C2K 1_555 1_555
N3H C1H 1_555 1_555
N3A C1A 1_555 1_555
N3J C1J 1_555 1_555
N3C C1C 1_555 1_555
N3K C1K 1_555 1_555
O1A Cl1 1_555 1_555
O1C Cl1 1_555 1_555
C2 N3 1_555 1_555
C3 N3 1_555 1_555
C7 C8 1_555 1_555
N1 N2 1_555 1_555
C1A N1A 1_555 1_555
C1C N1C 1_555 1_555
C2H N3H 1_555 1_555
C2A N3A 1_555 1_555
C2J N3J 1_555 1_555
C2C N3C 1_555 1_555
C2K N3K 1_555 1_555
C3H N3H 1_555 1_555
C3A N3A 1_555 1_555
C3J N3J 1_555 1_555
C3C N3C 1_555 1_555
C3K N3K 1_555 1_555
C6H C9H 1_555 1_555
C7H C8H 1_555 1_555
C7A C8A 1_555 1_555
C7J C8J 1_555 1_555
C7C C8C 1_555 1_555
C7K C8K 1_555 1_555
C9A C9J 1_555 1_555
C9C C9K 1_555 1_555
N1H N2H 1_555 1_555
N1A N2A 1_555 1_555
N1J N2J 1_555 1_555
N1C N2C 1_555 1_555
N1K N2K 1_555 1_555

#END
