
#######################################################################
#
#                 Cambridge Crystallographic Data Centre
#                                CCDC 
#
#######################################################################
#
# If this CIF has been generated from an entry in the Cambridge 
# Structural Database, then it will include bibliographic, chemical, 
# crystal, experimental, refinement or atomic coordinate data resulting 
# from the CCDC's data processing and validation procedures.
#
#######################################################################

data_VAXVAT
_symmetry_cell_setting           triclinic
_symmetry_space_group_name_H-M   'P 1'
_symmetry_Int_Tables_number      1
_space_group_name_Hall           'P 1'
loop_
_symmetry_equiv_pos_site_id
_symmetry_equiv_pos_as_xyz
1 x,y,z
_cell_length_a                   7.529(3)
_cell_length_b                   7.752(3)
_cell_length_c                   10.903(3)
_cell_angle_alpha                71.991(12)
_cell_angle_beta                 76.257(15)
_cell_angle_gamma                83.426(14)
_cell_volume                     587.269
loop_
_atom_site_label
_atom_site_type_symbol
_atom_site_fract_x
_atom_site_fract_y
_atom_site_fract_z
C1 C 0.9889(9) 0.3333(8) 0.8769(6)
C2 C 0.7866(9) 0.3193(8) 0.9152(6)
H1 H 0.7384 0.3840 0.9801
H2 H 0.7591 0.1926 0.9571
C3 C 0.6072(8) 0.6944(8) 0.8344(5)
C4 C 0.5363(8) 0.5147(8) 0.8426(6)
H3 H 0.4714 0.4585 0.9322
H4 H 0.4512 0.5356 0.7847
C5 C 0.6236(9) 0.2306(8) 0.7810(6)
H5 H 0.5523 0.1603 0.8644
H6 H 0.7303 0.1551 0.7572
C6 C 0.5092(8) 0.2643(8) 0.6772(5)
H7 H 0.4329 0.1611 0.7019
H8 H 0.4278 0.3693 0.6829
C7 C 0.7070(9) 0.1288(8) 0.5155(6)
H9 H 0.6222 0.0374 0.5258
H10 H 0.7806 0.0813 0.5816
C8 C 0.8307(8) 0.1706(8) 0.3776(6)
C9 C 0.4578(8) 0.3344(8) 0.4562(6)
H11 H 0.3517 0.2657 0.5086
H12 H 0.5018 0.2952 0.3775
C10 C 0.4025(8) 0.5333(8) 0.4168(6)
H13 H 0.3060 0.5532 0.3681
H14 H 0.3551 0.5721 0.4954
C11 C 0.5284(8) 0.8360(7) 0.3352(6)
H15 H 0.6457 0.8921 0.3073
H16 H 0.4798 0.8355 0.4261
C12 C 0.4026(8) 0.9550(8) 0.2531(6)
C13 C 0.5988(8) 0.6222(8) 0.1968(5)
H17 H 0.6274 0.4952 0.2021
H18 H 0.4889 0.6587 0.1617
C14 C 0.7534(8) 0.7326(8) 0.1040(6)
Mo1 Mo 0.89777(5) 0.58698(4) 0.62806(4)
Mo2 Mo 0.81245(4) 0.53328(4) 0.43138(4)
N1 N 0.6896(7) 0.3920(6) 0.8039(5)
N2 N 0.6045(7) 0.2952(7) 0.5343(5)
N3 N 0.5621(7) 0.6432(6) 0.3332(5)
Na1 Na 1.0376(3) -0.0255(3) 1.1287(2)
O1 O 0.6795(6) 0.6534(6) 0.5572(4)
O2 O 0.9618(6) 0.3873(5) 0.5511(4)
O3 O 0.9455(6) 0.6800(5) 0.3026(4)
O4 O 1.0511(6) 0.7496(6) 0.5540(4)
O5 O 1.0576(6) 0.4381(6) 0.7603(4)
O6 O 1.0842(7) 0.2517(6) 0.9559(4)
O7 O 0.7688(6) 0.7287(6) 0.7641(4)
O8 O 0.5126(7) 0.7953(8) 0.8918(5)
O9 O 0.8797(6) 0.0562(6) 0.3202(4)
O10 O 0.8795(6) 0.3388(6) 0.3281(4)
O11 O 0.7638(6) 0.8923(5) 0.0873(4)
O12 O 0.8741(6) 0.6341(6) 0.0417(4)
H19 H 0.9592 0.6968 -0.0056
O13 O 0.4144(8) 1.1239(6) 0.2496(6)
H20 H 0.3462 1.1898 0.2042
O14 O 0.3038(6) 0.9066(6) 0.1996(5)
O15 O 1.1442(7) -0.1553(7) 0.9309(5)
H21 H 1.2560 -0.1633 0.9357
H22 H 1.1371 -0.0678 0.8621
Na1_2 Na 1.0376(3) 0.9745(3) 0.1287(2)
Na1_3 Na 1.0376(3) -0.0255(3) 0.1287(2)
Na1_4 Na 0.0376(3) 0.9745(3) 0.1287(2)
O3_2 O 0.9455(6) -0.3200(5) 1.3026(4)
O9_2 O 0.8797(6) 0.0562(6) 1.3202(4)
O11_2 O 0.7638(6) -0.1077(5) 1.0873(4)
O14_2 O 1.3038(6) -0.0934(6) 1.1996(5)
O16 O 0.2051(8) 0.3705(7) 0.1346(5)
H23 H 0.1579 0.3565 0.0750
H24 H 0.0958 0.4047 0.1629
O17 O 0.1159(8) 0.0353(7) 0.6715(5)
H25 H 0.0854 0.1434 0.6316
H26 H 0.1075 -0.0495 0.6393
loop_
_geom_bond_atom_site_label_1
_geom_bond_atom_site_label_2
_geom_bond_site_symmetry_1
_geom_bond_site_symmetry_2
C1 C2 1_555 1_555
C2 H1 1_555 1_555
H2 C2 1_555 1_555
C3 C4 1_555 1_555
C4 H3 1_555 1_555
H4 C4 1_555 1_555
C5 H5 1_555 1_555
H6 C5 1_555 1_555
C6 C5 1_555 1_555
H7 C6 1_555 1_555
H8 C6 1_555 1_555
C7 H9 1_555 1_555
H10 C7 1_555 1_555
C8 C7 1_555 1_555
C9 H11 1_555 1_555
H12 C9 1_555 1_555
C10 C9 1_555 1_555
H13 C10 1_555 1_555
H14 C10 1_555 1_555
C11 H15 1_555 1_555
H16 C11 1_555 1_555
C12 C11 1_555 1_555
C13 H17 1_555 1_555
H18 C13 1_555 1_555
C14 C13 1_555 1_555
Mo1 Mo2 1_555 1_555
Mo2 N2 1_555 1_555
N1 C2 1_555 1_555
N2 C6 1_555 1_555
N3 C10 1_555 1_555
Na1 O6 1_555 1_555
O1 Mo1 1_555 1_555
O2 Mo1 1_555 1_555
O3 Mo2 1_555 1_555
O4 Mo1 1_555 1_555
O5 C1 1_555 1_555
O6 C1 1_555 1_555
O7 C3 1_555 1_555
O8 C3 1_555 1_555
O9 C8 1_555 1_555
O10 C8 1_555 1_555
O11 C14 1_555 1_555
O12 C14 1_555 1_555
H19 O12 1_555 1_555
O13 C12 1_555 1_555
H20 O13 1_555 1_555
O14 C12 1_555 1_555
O15 Na1 1_555 1_555
H21 O15 1_555 1_555
H22 O15 1_555 1_555
O16 H23 1_555 1_555
H24 O16 1_555 1_555
O17 H25 1_555 1_555
H26 O17 1_555 1_555
Na1_2 O3 1_555 1_555
Na1_3 O9 1_555 1_555
Na1_4 O14 1_555 1_555
O3_2 Na1 1_555 1_555
O9_2 Na1 1_555 1_555
O11_2 Na1 1_555 1_555
O14_2 Na1 1_555 1_555
C4 N1 1_555 1_555
C5 N1 1_555 1_555
C7 N2 1_555 1_555
C9 N2 1_555 1_555
C11 N3 1_555 1_555
C13 N3 1_555 1_555
Mo1 N1 1_555 1_555
Mo1 O5 1_555 1_555
Mo1 O7 1_555 1_555
Mo2 N3 1_555 1_555
Mo2 O1 1_555 1_555
Mo2 O2 1_555 1_555
Mo2 O10 1_555 1_555
O11 Na1_2 1_555 1_555

#END
