
#######################################################################
#
#                 Cambridge Crystallographic Data Centre
#                                CCDC 
#
#######################################################################
#
# If this CIF has been generated from an entry in the Cambridge 
# Structural Database, then it will include bibliographic, chemical, 
# crystal, experimental, refinement or atomic coordinate data resulting 
# from the CCDC's data processing and validation procedures.
#
#######################################################################

data_VAXVIB
_symmetry_cell_setting           monoclinic
_symmetry_space_group_name_H-M   'P 2/c'
_symmetry_Int_Tables_number      13
_space_group_name_Hall           '-P 2yc'
loop_
_symmetry_equiv_pos_site_id
_symmetry_equiv_pos_as_xyz
1 x,y,z
2 -x,y,1/2-z
3 -x,-y,-z
4 x,-y,1/2+z
_cell_length_a                   15.2257(4)
_cell_length_b                   9.4717(3)
_cell_length_c                   21.6848(8)
_cell_angle_alpha                90
_cell_angle_beta                 124.913(2)
_cell_angle_gamma                90
_cell_volume                     2564.4
loop_
_atom_site_label
_atom_site_type_symbol
_atom_site_fract_x
_atom_site_fract_y
_atom_site_fract_z
Cd1 Cd 0.208710(17) 1.07203(3) 0.091228(12)
O1 O 0.47287(19) 1.0743(3) 0.15482(13)
O2 O 0.31014(18) 1.0606(3) 0.04732(13)
O3 O 0.23787(19) 1.1389(4) 0.24851(13)
O4 O 0.09963(17) 1.1081(3) 0.13036(12)
O5 O 0.0993(2) 0.8963(3) 0.00184(13)
H1 H 0.1089 0.8179 0.0243
H2 H 0.0336 0.9205 -0.0214
O6 O 0.3439(2) 1.2097(3) 0.18677(14)
H3 H 0.4042 1.1877 0.1939
H4 H 0.3313 1.2982 0.1750
N1 N 0.2750(2) 0.8579(3) 0.15886(16)
N2 N 0.2351(2) 0.7282(4) 0.12509(17)
N3 N 0.3718(2) 0.6947(3) 0.24183(15)
N4 N 1.1045(2) 0.2316(3) 0.99487(16)
N5 N 1.0841(3) 0.3634(4) 1.00705(18)
N6 N 0.9969(2) 0.3315(3) 0.88566(16)
C1 C 0.3555(3) 0.8344(4) 0.22795(19)
H5 H 0.3963 0.9046 0.2630
C2 C 0.2938(3) 0.6335(4) 0.1755(2)
H6 H 0.2840 0.5366 0.1675
C3 C 0.4530(3) 0.6286(4) 0.31192(19)
C4 C 0.5224(4) 0.7102(5) 0.3711(2)
H7 H 0.5170 0.8080 0.3667
C5 C 0.6020(4) 0.6490(6) 0.4387(2)
H8 H 0.6485 0.7074 0.4791
C6 C 0.6144(4) 0.5097(5) 0.4479(2)
C7 C 0.5427(6) 0.4295(5) 0.3877(3)
H9 H 0.5474 0.3318 0.3927
C8 C 0.4623(5) 0.4879(5) 0.3187(3)
H10 H 0.4157 0.4300 0.2780
C9 C 0.7038(5) 0.4472(6) 0.5247(3)
H11 H 0.7264 0.3570 0.5171
H12 H 0.7651 0.5101 0.5493
C10 C 0.6661(5) 0.4281(6) 0.5724(3)
H13 H 0.6160 0.3498 0.5535
H14 H 0.6284 0.5124 0.5704
C11 C 0.7602(4) 0.3983(6) 0.6553(3)
C12 C 0.7943(4) 0.2684(6) 0.6832(2)
H15 H 0.7654 0.1916 0.6507
C13 C 0.8709(4) 0.2447(5) 0.7587(2)
H16 H 0.8878 0.1527 0.7769
C14 C 0.9213(3) 0.3534(4) 0.8060(2)
C15 C 0.8928(6) 0.4864(6) 0.7793(3)
H17 H 0.9274 0.5632 0.8110
C16 C 0.8103(6) 0.5074(7) 0.7032(3)
H18 H 0.7897 0.5991 0.6852
C17 C 1.0517(3) 0.2142(4) 0.9224(2)
H19 H 1.0519 0.1316 0.8993
C18 C 1.0205(4) 0.4203(5) 0.9406(2)
H20 H 0.9947 0.5122 0.9327
C19 C 0.4110(3) 1.0575(4) 0.08538(18)
C20 C 0.4577(2) 1.0292(4) 0.04122(17)
C21 C 0.5668(3) 1.0426(4) 0.07436(18)
H21 H 0.6122 1.0712 0.1242
C22 C 0.3920(2) 0.9866(4) -0.03314(18)
H22 H 0.3188 0.9775 -0.0558
C23 C 0.1411(2) 1.1278(4) 0.19992(17)
C24 C -0.0447(2) 1.1325(4) 0.17371(17)
H23 H -0.0755 1.1317 0.1223
C25 C 0.1090(3) 1.1339(4) 0.30067(17)
H24 H 0.1830 1.1361 0.3353
C26 C 0.0662(2) 1.1322(4) 0.22445(17)
Cd1B Cd 0.791290(17) 0.92797(3) -0.091228(12)
Cd1_2 Cd 1.208710(17) 0.07203(3) 1.091228(12)
Cd1A Cd -0.208710(17) 1.07203(3) 0.408772(12)
Cd1_3 Cd -0.791290(17) 2.07203(3) -0.908772(12)
O1B O 0.52713(19) 0.9257(3) -0.15482(13)
O2B O 0.68986(18) 0.9394(3) -0.04732(13)
O3A O -0.23787(19) 1.1389(4) 0.25149(13)
O4A O -0.09963(17) 1.1081(3) 0.36964(12)
O4B O 0.90037(17) 0.8919(3) -0.13036(12)
O5B O 0.9007(2) 1.1037(3) -0.00184(13)
H1B H 0.8911 1.1821 -0.0243
H2B H 0.9664 1.0795 0.0214
O6B O 0.6561(2) 0.7903(3) -0.18677(14)
H3B H 0.5958 0.8123 -0.1939
H4B H 0.6687 0.7018 -0.1750
N1_2 N -0.7250(2) 1.8579(3) -0.84114(16)
N1B N 0.7250(2) 1.1421(3) -0.15886(16)
N2_2 N -0.7649(2) 1.7282(4) -0.87491(17)
N3_2 N -0.6282(2) 1.6947(3) -0.75817(15)
N4_2 N 0.1045(2) 1.2316(3) -0.00513(16)
N4B N 0.8955(2) 0.7684(3) 0.00513(16)
N5_2 N 0.0841(3) 1.3634(4) 0.00705(18)
N6_2 N -0.0031(2) 1.3315(3) -0.11434(16)
C1_2 C -0.6445(3) 1.8344(4) -0.77205(19)
H5_2 H -0.6037 1.9046 -0.7370
C2_2 C -0.7062(3) 1.6335(4) -0.8245(2)
H6_2 H -0.7160 1.5366 -0.8325
C3_2 C -0.5470(3) 1.6286(4) -0.68808(19)
C4_2 C -0.4776(4) 1.7102(5) -0.6289(2)
H7_2 H -0.4830 1.8080 -0.6333
C5_2 C -0.3980(4) 1.6490(6) -0.5613(2)
H8_2 H -0.3515 1.7074 -0.5209
C6_2 C -0.3856(4) 1.5097(5) -0.5521(2)
C7_2 C -0.4573(6) 1.4295(5) -0.6123(3)
H9_2 H -0.4526 1.3318 -0.6073
C8_2 C -0.5377(5) 1.4879(5) -0.6813(3)
H10_2 H -0.5843 1.4300 -0.7220
C9_2 C -0.2962(5) 1.4472(6) -0.4753(3)
H11_2 H -0.2736 1.3570 -0.4829
H12_2 H -0.2349 1.5101 -0.4507
C10_2 C -0.3339(5) 1.4281(6) -0.4276(3)
H13_2 H -0.3840 1.3498 -0.4465
H14_2 H -0.3716 1.5124 -0.4296
C11_2 C -0.2398(4) 1.3983(6) -0.3447(3)
C12_2 C -0.2057(4) 1.2684(6) -0.3168(2)
H15_2 H -0.2346 1.1916 -0.3493
C13_2 C -0.1291(4) 1.2447(5) -0.2413(2)
H16_2 H -0.1122 1.1527 -0.2231
C14_2 C -0.0787(3) 1.3534(4) -0.1940(2)
C15_2 C -0.1072(6) 1.4864(6) -0.2207(3)
H17_2 H -0.0726 1.5632 -0.1890
C16_2 C -0.1897(6) 1.5074(7) -0.2968(3)
H18_2 H -0.2103 1.5991 -0.3148
C17_2 C 0.0517(3) 1.2142(4) -0.0776(2)
H19_2 H 0.0519 1.1316 -0.1007
C18_2 C 0.0205(4) 1.4203(5) -0.0594(2)
H20_2 H -0.0053 1.5122 -0.0673
C19B C 0.5890(3) 0.9425(4) -0.08538(18)
C20B C 0.5423(2) 0.9708(4) -0.04122(17)
C21B C 0.4332(3) 0.9574(4) -0.07436(18)
H21B H 0.3878 0.9288 -0.1242
C22B C 0.6080(2) 1.0134(4) 0.03314(18)
H22B H 0.6812 1.0225 0.0558
C23A C -0.1411(2) 1.1278(4) 0.30008(17)
C24A C 0.0447(2) 1.1325(4) 0.32629(17)
H23A H 0.0755 1.1317 0.3777
C25A C -0.1090(3) 1.1339(4) 0.19933(17)
H24A H -0.1830 1.1361 0.1647
C26A C -0.0662(2) 1.1322(4) 0.27555(17)
loop_
_geom_bond_atom_site_label_1
_geom_bond_atom_site_label_2
_geom_bond_site_symmetry_1
_geom_bond_site_symmetry_2
Cd1 O2 1_555 1_555
O1 C19 1_555 1_555
O2 C19 1_555 1_555
O3 C23 1_555 1_555
O4 Cd1 1_555 1_555
O5 Cd1 1_555 1_555
H1 O5 1_555 1_555
H2 O5 1_555 1_555
O6 Cd1 1_555 1_555
H3 O6 1_555 1_555
H4 O6 1_555 1_555
N1 Cd1 1_555 1_555
N2 N1 1_555 1_555
N3 C1 1_555 1_555
N4 N5 1_555 1_555
N5 C18 1_555 1_555
N6 C14 1_555 1_555
C1 N1 1_555 1_555
H5 C1 1_555 1_555
C2 N2 1_555 1_555
H6 C2 1_555 1_555
C3 N3 1_555 1_555
C4 C3 1_555 1_555
H7 C4 1_555 1_555
C5 C4 1_555 1_555
H8 C5 1_555 1_555
C6 C5 1_555 1_555
C7 C6 1_555 1_555
H9 C7 1_555 1_555
C8 C3 1_555 1_555
H10 C8 1_555 1_555
C9 C6 1_555 1_555
H11 C9 1_555 1_555
H12 C9 1_555 1_555
C10 C9 1_555 1_555
H13 C10 1_555 1_555
H14 C10 1_555 1_555
C11 C10 1_555 1_555
C12 C11 1_555 1_555
H15 C12 1_555 1_555
C13 C12 1_555 1_555
H16 C13 1_555 1_555
C14 C13 1_555 1_555
C15 C14 1_555 1_555
H17 C15 1_555 1_555
C16 C11 1_555 1_555
H18 C16 1_555 1_555
C17 N4 1_555 1_555
H19 C17 1_555 1_555
C18 N6 1_555 1_555
H20 C18 1_555 1_555
C19 C20 1_555 1_555
C20 C21 1_555 1_555
C21 H21 1_555 1_555
C22 C20 1_555 1_555
H22 C22 1_555 1_555
C23 O4 1_555 1_555
C24 H23 1_555 1_555
C25 H24 1_555 1_555
C26 C23 1_555 1_555
Cd1B O2B 1_555 1_555
Cd1_2 N4 1_555 1_555
Cd1A O4A 1_555 1_555
Cd1_3 N1_2 1_555 1_555
O1B C19B 1_555 1_555
O2B C19B 1_555 1_555
O3A C23A 1_555 1_555
O4A C23A 1_555 1_555
O4B Cd1B 1_555 1_555
O5B Cd1B 1_555 1_555
H1B O5B 1_555 1_555
H2B O5B 1_555 1_555
O6B Cd1B 1_555 1_555
H3B O6B 1_555 1_555
H4B O6B 1_555 1_555
N1_2 N2_2 1_555 1_555
N1B Cd1B 1_555 1_555
N2_2 C2_2 1_555 1_555
N3_2 C1_2 1_555 1_555
N4_2 Cd1 1_555 1_555
N4B Cd1B 1_555 1_555
N5_2 N4_2 1_555 1_555
N6_2 C14_2 1_555 1_555
C1_2 N1_2 1_555 1_555
H5_2 C1_2 1_555 1_555
C2_2 N3_2 1_555 1_555
H6_2 C2_2 1_555 1_555
C3_2 N3_2 1_555 1_555
C4_2 C3_2 1_555 1_555
H7_2 C4_2 1_555 1_555
C5_2 C4_2 1_555 1_555
H8_2 C5_2 1_555 1_555
C6_2 C5_2 1_555 1_555
C7_2 C6_2 1_555 1_555
H9_2 C7_2 1_555 1_555
C8_2 C3_2 1_555 1_555
H10_2 C8_2 1_555 1_555
C9_2 C6_2 1_555 1_555
H11_2 C9_2 1_555 1_555
H12_2 C9_2 1_555 1_555
C10_2 C9_2 1_555 1_555
H13_2 C10_2 1_555 1_555
H14_2 C10_2 1_555 1_555
C11_2 C10_2 1_555 1_555
C12_2 C11_2 1_555 1_555
H15_2 C12_2 1_555 1_555
C13_2 C12_2 1_555 1_555
H16_2 C13_2 1_555 1_555
C14_2 C13_2 1_555 1_555
C15_2 C14_2 1_555 1_555
H17_2 C15_2 1_555 1_555
C16_2 C11_2 1_555 1_555
H18_2 C16_2 1_555 1_555
C17_2 N4_2 1_555 1_555
H19_2 C17_2 1_555 1_555
C18_2 N5_2 1_555 1_555
H20_2 C18_2 1_555 1_555
C19B C20B 1_555 1_555
C20B C21B 1_555 1_555
C21B C22 1_555 1_555
H21B C21B 1_555 1_555
C22B C21 1_555 1_555
H22B C22B 1_555 1_555
C23A C26A 1_555 1_555
C24A C25 1_555 1_555
H23A C24A 1_555 1_555
C25A C24 1_555 1_555
H24A C25A 1_555 1_555
C26A C24A 1_555 1_555
N3 C2 1_555 1_555
N6 C17 1_555 1_555
C7 C8 1_555 1_555
C15 C16 1_555 1_555
C24 C26 1_555 1_555
C25 C26 1_555 1_555
N6_2 C17_2 1_555 1_555
N6_2 C18_2 1_555 1_555
C7_2 C8_2 1_555 1_555
C15_2 C16_2 1_555 1_555
C20B C22B 1_555 1_555
C25A C26A 1_555 1_555

#END
