
#######################################################################
#
#                 Cambridge Crystallographic Data Centre
#                                CCDC 
#
#######################################################################
#
# If this CIF has been generated from an entry in the Cambridge 
# Structural Database, then it will include bibliographic, chemical, 
# crystal, experimental, refinement or atomic coordinate data resulting 
# from the CCDC's data processing and validation procedures.
#
#######################################################################

data_VAYCIJ
_symmetry_cell_setting           triclinic
_symmetry_space_group_name_H-M   'P -1'
_symmetry_Int_Tables_number      2
_space_group_name_Hall           '-P 1'
loop_
_symmetry_equiv_pos_site_id
_symmetry_equiv_pos_as_xyz
1 x,y,z
2 -x,-y,-z
_cell_length_a                   6.3752(13)
_cell_length_b                   7.1912(14)
_cell_length_c                   8.2477(16)
_cell_angle_alpha                73.61(3)
_cell_angle_beta                 68.38(3)
_cell_angle_gamma                66.73(3)
_cell_volume                     318.764
loop_
_atom_site_label
_atom_site_type_symbol
_atom_site_fract_x
_atom_site_fract_y
_atom_site_fract_z
Li1 Li 0.8027(8) 0.1840(7) 0.9030(6)
S1 S 0.86824(10) 0.22724(9) 1.25495(7)
O1 O 0.7985(3) 0.3235(3) 1.0925(2)
O2 O 0.8137(4) 0.4153(4) 0.7049(3)
H1 H 0.832(6) 0.398(6) 0.602(2)
H2 H 0.901(6) 0.483(5) 0.698(4)
O3 O 1.0998(3) 0.0674(3) 1.2211(2)
O4 O 0.4355(3) 0.2589(3) 0.9635(2)
H3 H 0.377(5) 0.3881(16) 0.940(4)
H4 H 0.365(5) 0.216(4) 1.068(2)
O5 O 0.8526(3) 0.3772(3) 1.3492(2)
O6 O 0.7732(3) -0.0886(3) 1.1649(2)
H5 H 0.717(5) -0.158(4) 1.134(4)
C1 C 0.6585(4) 0.1028(3) 1.3936(3)
C2 C 0.5238(4) 0.1509(3) 1.5603(3)
H6 H 0.5399 0.2521 1.5999
C3 C 0.6359(4) -0.0480(4) 1.3312(3)
Li1A Li 0.1973(8) -0.1840(7) 2.0970(6)
Li1A_2 Li 1.1973(8) -0.1840(7) 1.0970(6)
Li1_2 Li -0.1973(8) 0.1840(7) 1.9030(6)
S1A S 0.13176(10) -0.22724(9) 1.74505(7)
O1A O 0.2015(3) -0.3235(3) 1.9075(2)
O2A O 0.1863(4) -0.4153(4) 2.2951(3)
H1A H 0.168(6) -0.398(6) 2.398(2)
H2A H 0.099(6) -0.483(5) 2.302(4)
O3A O -0.0998(3) -0.0674(3) 1.7789(2)
O3A_2 O 0.9002(3) -0.0674(3) 0.7789(2)
O3_2 O 0.0998(3) 0.0674(3) 2.2211(2)
O4A O 0.5645(3) -0.2589(3) 2.0365(2)
H3A H 0.623(5) -0.3881(16) 2.060(4)
H4A H 0.635(5) -0.216(4) 1.932(2)
O5A O 0.1474(3) -0.3772(3) 1.6508(2)
O6A O 0.2268(3) 0.0886(3) 1.8351(2)
O6A_2 O 1.2268(3) 0.0886(3) 0.8351(2)
O6_2 O -0.2268(3) -0.0886(3) 2.1649(2)
H5A H 0.283(5) 0.158(4) 1.866(4)
H5A_2 H 1.283(5) 0.158(4) 0.866(4)
H5_2 H -0.283(5) -0.158(4) 2.134(4)
C1A C 0.3415(4) -0.1028(3) 1.6064(3)
C2A C 0.4762(4) -0.1509(3) 1.4397(3)
H6A H 0.4601 -0.2521 1.4001
C3A C 0.3641(4) 0.0480(4) 1.6688(3)
loop_
_geom_bond_atom_site_label_1
_geom_bond_atom_site_label_2
_geom_bond_site_symmetry_1
_geom_bond_site_symmetry_2
Li1 O1 1_555 1_555
S1 O1 1_555 1_555
O2 Li1 1_555 1_555
H1 O2 1_555 1_555
H2 O2 1_555 1_555
O3 S1 1_555 1_555
O4 Li1 1_555 1_555
H3 O4 1_555 1_555
H4 O4 1_555 1_555
O5 S1 1_555 1_555
O6 Li1 1_555 1_555
H5 O6 1_555 1_555
C1 S1 1_555 1_555
C2 C1 1_555 1_555
H6 C2 1_555 1_555
C3 O6 1_555 1_555
Li1A O1A 1_555 1_555
Li1A_2 O3 1_555 1_555
Li1_2 O3A 1_555 1_555
S1A O1A 1_555 1_555
O2A Li1A 1_555 1_555
H1A O2A 1_555 1_555
H2A O2A 1_555 1_555
O3A S1A 1_555 1_555
O3A_2 Li1 1_555 1_555
O3_2 Li1A 1_555 1_555
O4A Li1A 1_555 1_555
H3A O4A 1_555 1_555
H4A O4A 1_555 1_555
O5A S1A 1_555 1_555
O6A Li1A 1_555 1_555
O6A_2 Li1 1_555 1_555
O6_2 Li1A 1_555 1_555
H5A O6A 1_555 1_555
H5A_2 O6A_2 1_555 1_555
H5_2 O6_2 1_555 1_555
C1A S1A 1_555 1_555
C2A C3 1_555 1_555
H6A C2A 1_555 1_555
C3A C2 1_555 1_555
O6 Li1A_2 1_555 1_555
C1 C3 1_555 1_555
Li1A_2 O6A_2 1_555 1_555
Li1_2 O6A 1_555 1_555
Li1_2 O6_2 1_555 1_555
O6A C3A 1_555 1_555
C1A C2A 1_555 1_555
C1A C3A 1_555 1_555

#END
