
#######################################################################
#
#                 Cambridge Crystallographic Data Centre
#                                CCDC 
#
#######################################################################
#
# If this CIF has been generated from an entry in the Cambridge 
# Structural Database, then it will include bibliographic, chemical, 
# crystal, experimental, refinement or atomic coordinate data resulting 
# from the CCDC's data processing and validation procedures.
#
#######################################################################

data_VAYCUV
_symmetry_cell_setting           orthorhombic
_symmetry_space_group_name_H-M   'C m c 21'
_symmetry_Int_Tables_number      36
_space_group_name_Hall           'C 2n -2'
loop_
_symmetry_equiv_pos_site_id
_symmetry_equiv_pos_as_xyz
1 x,y,z
2 -x,-y,1/2+z
3 x,-y,1/2+z
4 -x,y,z
5 1/2+x,1/2+y,z
6 1/2-x,1/2-y,1/2+z
7 1/2+x,1/2-y,1/2+z
8 1/2-x,1/2+y,z
_cell_length_a                   36.593(7)
_cell_length_b                   12.589(3)
_cell_length_c                   10.619(2)
_cell_angle_alpha                90
_cell_angle_beta                 90
_cell_angle_gamma                90
_cell_volume                     4891.85
loop_
_atom_site_label
_atom_site_type_symbol
_atom_site_fract_x
_atom_site_fract_y
_atom_site_fract_z
Li1 Li -0.2535(3) 0.1179(9) 0.6037(11)
Li2 Li -0.1772(3) 0.0056(7) 0.6172(8)
Li3 Li -0.08524(19) 0.0970(4) 0.6113(8)
Li4 Li 0.0000 0.0044(9) 0.6263(13)
Li5 Li 0.0000 0.4737(9) 1.1150(14)
Li6 Li -0.07890(15) 0.3737(5) 1.1266(10)
Li7 Li -0.1600(2) 0.4722(5) 0.1105(8)
S1 S -0.25413(2) 0.26647(7) 0.35840(11)
S2 S -0.07850(2) 0.23778(7) 0.38341(8)
S3 S -0.08794(2) 0.25245(7) 0.85563(9)
O1 O -0.27007(9) 0.2185(5) 0.4642(5)
O2 O -0.23919(17) -0.0265(5) 0.6540(10)
H1 H -0.2170(10) -0.046(10) 0.651(18)
H2 H -0.253(3) -0.075(9) 0.624(16)
O3 O -0.16566(7) 0.0313(3) 0.7882(3)
H3 H -0.1860(5) 0.035(4) 0.825(4)
H4 H -0.1489(8) 0.054(4) 0.836(3)
O4 O -0.26127(10) 0.3799(3) 0.3573(10)
O5 O -0.26588(9) 0.2286(4) 0.2385(4)
O6 O -0.16866(8) -0.1353(3) 0.5561(4)
H5 H -0.1859(8) -0.181(3) 0.554(6)
H6 H -0.1484(6) -0.168(3) 0.566(6)
O7 O -0.20563(8) 0.1146(2) 0.5167(4)
O8 O -0.08382(13) -0.0536(2) 0.6228(6)
H7 H -0.0799(15) -0.112(3) 0.661(7)
H8 H -0.1064(5) -0.040(5) 0.622(8)
O9 O -0.13598(7) 0.1112(2) 0.5375(3)
O10 O 0.0000 0.0153(3) 0.4433(5)
H9 H 0.01892(14) 0.0552(12) 0.440(6)
O11 O -0.06743(8) 0.1385(3) 0.4353(3)
O12 O 0.0000 -0.1446(3) 0.6839(5)
H10 H -0.0189 -0.1788 0.7073
O13 O -0.06720(8) 0.3312(3) 0.4559(4)
O14 O -0.04425(8) 0.4840(2) 1.2381(3)
H11 H -0.0522(14) 0.5474(16) 1.245(4)
H12 H -0.0421(14) 0.458(3) 1.3123(19)
O15 O -0.06500(7) 0.2504(2) 0.2560(4)
O16 O 0.0000 0.5997(4) 1.0292(10)
H13 H 0.01899(14) 0.631(5) 1.057(7)
O17 O -0.12712(6) 0.3782(2) 0.2270(3)
O18 O -0.10804(10) 0.4947(3) 1.0186(4)
H14 H -0.0987(17) 0.556(2) 1.025(5)
H15 H -0.1071(17) 0.474(4) 0.943(2)
O19 O -0.19712(6) 0.3733(2) 0.1983(3)
O20 O -0.16483(9) 0.6207(4) 0.1834(7)
H16 H -0.1828(13) 0.616(7) 0.234(5)
H17 H -0.1466(12) 0.647(6) 0.222(6)
O21 O -0.03518(6) 0.1117(2) 0.6946(3)
O22 O -0.1928(3) 0.4779(4) -0.0414(6)
H18 H -0.1733(19) 0.441(9) -0.05(2)
H19 H -0.211(2) 0.436(9) -0.043(17)
O23 O -0.10279(7) 0.1651(3) 0.7820(3)
O24 O -0.10084(7) 0.24638(19) 0.9866(3)
O25 O -0.09603(6) 0.3565(2) 0.8039(3)
O26 O -0.03510(6) 0.3686(2) 1.0179(3)
C1 C -0.20636(10) 0.2513(3) 0.3674(5)
C2 C -0.18978(10) 0.1780(3) 0.4473(4)
C3 C -0.14783(9) 0.1744(3) 0.4570(4)
C4 C -0.12664(8) 0.2402(2) 0.3780(4)
C5 C -0.14304(8) 0.3114(3) 0.2939(4)
C6 C -0.18588(8) 0.3150(3) 0.2822(4)
C7 C -0.02123(7) 0.1717(3) 0.7759(4)
C8 C -0.04050(9) 0.2393(2) 0.8585(5)
C9 C -0.02066(8) 0.3058(2) 0.9406(4)
Li1_2 Li -0.2535(3) 0.1179(9) 1.6037(11)
Li1E Li -0.2465(3) 0.3821(9) 0.1037(11)
Li1E_2 Li -0.2465(3) 0.3821(9) 1.1037(11)
Li2_2 Li -0.1772(3) 0.0056(7) 1.6172(8)
Li3C Li 0.08524(19) 0.0970(4) 0.6113(8)
Li3_2 Li -0.08524(19) 0.0970(4) 1.6113(8)
Li6C Li 0.07890(15) 0.3737(5) 1.1266(10)
Li6_2 Li -0.07890(15) 0.3737(5) 0.1266(10)
Li7_2 Li -0.1600(2) 0.4722(5) 1.1105(8)
Li7C Li 0.1600(2) 0.4722(5) 1.1105(8)
S1_2 S -0.25413(2) 0.26647(7) 1.35840(11)
S2_2 S -0.07850(2) 0.23778(7) 1.38341(8)
S3C S 0.08794(2) 0.25245(7) 0.85563(9)
O1_2 O -0.27007(9) 0.2185(5) 1.4642(5)
O2_2 O -0.23919(17) -0.0265(5) 1.6540(10)
H1_2 H -0.2170(10) -0.046(10) 1.651(18)
H2_2 H -0.253(3) -0.075(9) 1.624(16)
O3_2 O -0.16566(7) 0.0313(3) 1.7882(3)
H3_2 H -0.1860(5) 0.035(4) 1.825(4)
H4_2 H -0.1489(8) 0.054(4) 1.836(3)
O4_2 O -0.26127(10) 0.3799(3) 1.3573(10)
O5_2 O -0.26588(9) 0.2286(4) 1.2385(4)
O5E O -0.23412(9) 0.2714(4) 0.7385(4)
O5E_2 O -0.23412(9) 0.2714(4) 1.7385(4)
O6_2 O -0.16866(8) -0.1353(3) 1.5561(4)
H5_2 H -0.1859(8) -0.181(3) 1.554(6)
H6_2 H -0.1484(6) -0.168(3) 1.566(6)
O7_2 O -0.20563(8) 0.1146(2) 1.5167(4)
O8C O 0.08382(13) -0.0536(2) 0.6228(6)
H7C H 0.0799(15) -0.112(3) 0.661(7)
H8C H 0.1064(5) -0.040(5) 0.622(8)
O9_2 O -0.13598(7) 0.1112(2) 1.5375(3)
O9C O 0.13598(7) 0.1112(2) 0.5375(3)
H9C H -0.01892(14) 0.0552(12) 0.440(6)
O11_2 O -0.06743(8) 0.1385(3) 1.4353(3)
O11C O 0.06743(8) 0.1385(3) 0.4353(3)
H10C H 0.0189 -0.1788 0.7073
O13_2 O -0.06720(8) 0.3312(3) 1.4559(4)
O14C O 0.04425(8) 0.4840(2) 1.2381(3)
H11C H 0.0522(14) 0.5474(16) 1.245(4)
H12C H 0.0421(14) 0.458(3) 1.3123(19)
O15_2 O -0.06500(7) 0.2504(2) 1.2560(4)
O15C O 0.06500(7) 0.2504(2) 1.2560(4)
H13C H -0.01899(14) 0.631(5) 1.057(7)
O17_2 O -0.12712(6) 0.3782(2) 1.2270(3)
O17C O 0.12712(6) 0.3782(2) 1.2270(3)
O18C O 0.10804(10) 0.4947(3) 1.0186(4)
O18_2 O -0.10804(10) 0.4947(3) 0.0186(4)
H14C H 0.0987(17) 0.556(2) 1.025(5)
H14_2 H -0.0987(17) 0.556(2) 0.025(5)
H15C H 0.1071(17) 0.474(4) 0.943(2)
H15_2 H -0.1071(17) 0.474(4) -0.057(2)
O19_2 O -0.19712(6) 0.3733(2) 1.1983(3)
O19E O -0.30288(6) 0.1267(2) 0.6983(3)
O19E_2 O -0.30288(6) 0.1267(2) 1.6983(3)
O20_2 O -0.16483(9) 0.6207(4) 1.1834(7)
H16_2 H -0.1828(13) 0.616(7) 1.234(5)
H17_2 H -0.1466(12) 0.647(6) 1.222(6)
O21C O 0.03518(6) 0.1117(2) 0.6946(3)
O22_2 O -0.1928(3) 0.4779(4) 0.9586(6)
H18_2 H -0.1733(19) 0.441(9) 0.95(2)
H19_2 H -0.211(2) 0.436(9) 0.957(17)
O23C O 0.10279(7) 0.1651(3) 0.7820(3)
O24C O 0.10084(7) 0.24638(19) 0.9866(3)
O25C O 0.09603(6) 0.3565(2) 0.8039(3)
O26C O 0.03510(6) 0.3686(2) 1.0179(3)
C1_2 C -0.20636(10) 0.2513(3) 1.3674(5)
C2_2 C -0.18978(10) 0.1780(3) 1.4473(4)
C3_2 C -0.14783(9) 0.1744(3) 1.4570(4)
C4_2 C -0.12664(8) 0.2402(2) 1.3780(4)
C5_2 C -0.14304(8) 0.3114(3) 1.2939(4)
C6_2 C -0.18588(8) 0.3150(3) 1.2822(4)
C7C C 0.02123(7) 0.1717(3) 0.7759(4)
C8C C 0.04050(9) 0.2393(2) 0.8585(5)
C9C C 0.02066(8) 0.3058(2) 0.9406(4)
loop_
_geom_bond_atom_site_label_1
_geom_bond_atom_site_label_2
_geom_bond_site_symmetry_1
_geom_bond_site_symmetry_2
Li1 O1 1_555 1_555
Li2 O2 1_555 1_555
Li3 O8 1_555 1_555
Li4 O10 1_555 1_555
Li5 O14 1_555 1_555
Li6 O14 1_555 1_555
Li7 O17 1_555 1_555
S1 O1 1_555 1_555
S2 O11 1_555 1_555
S3 O23 1_555 1_555
O2 Li1 1_555 1_555
H1 O2 1_555 1_555
H2 O2 1_555 1_555
O3 Li2 1_555 1_555
H3 O3 1_555 1_555
H4 O3 1_555 1_555
O4 S1 1_555 1_555
O5 S1 1_555 1_555
O6 Li2 1_555 1_555
H5 O6 1_555 1_555
H6 O6 1_555 1_555
O7 Li1 1_555 1_555
O8 H7 1_555 1_555
H8 O8 1_555 1_555
O9 Li2 1_555 1_555
O10 H9 1_555 1_555
O11 Li3 1_555 1_555
O12 Li4 1_555 1_555
H10 O12 1_555 1_555
O13 S2 1_555 1_555
O14 H11 1_555 1_555
H12 O14 1_555 1_555
O15 S2 1_555 1_555
O16 Li5 1_555 1_555
H13 O16 1_555 1_555
O17 C5 1_555 1_555
O18 Li6 1_555 1_555
H14 O18 1_555 1_555
H15 O18 1_555 1_555
O19 Li7 1_555 1_555
O20 Li7 1_555 1_555
H16 O20 1_555 1_555
H17 O20 1_555 1_555
O21 Li3 1_555 1_555
O22 Li7 1_555 1_555
H18 O22 1_555 1_555
H19 O22 1_555 1_555
O23 Li3 1_555 1_555
O24 Li6 1_555 1_555
O25 S3 1_555 1_555
O26 Li5 1_555 1_555
C1 S1 1_555 1_555
C2 O7 1_555 1_555
C3 O9 1_555 1_555
C4 S2 1_555 1_555
C5 C4 1_555 1_555
C6 O19 1_555 1_555
C7 O21 1_555 1_555
C8 S3 1_555 1_555
C9 O26 1_555 1_555
Li1_2 O1_2 1_555 1_555
Li1E O5 1_555 1_555
Li1E_2 O5_2 1_555 1_555
Li2_2 O2_2 1_555 1_555
Li3C O8C 1_555 1_555
Li3_2 O9_2 1_555 1_555
Li6C O14C 1_555 1_555
Li6_2 O15 1_555 1_555
Li7_2 O18 1_555 1_555
Li7C O17C 1_555 1_555
S1_2 O1_2 1_555 1_555
S2_2 O11_2 1_555 1_555
S3C O23C 1_555 1_555
O2_2 Li1_2 1_555 1_555
H1_2 O2_2 1_555 1_555
H2_2 O2_2 1_555 1_555
O3_2 Li2_2 1_555 1_555
H3_2 O3_2 1_555 1_555
H4_2 O3_2 1_555 1_555
O4_2 S1_2 1_555 1_555
O5_2 S1_2 1_555 1_555
O5E Li1 1_555 1_555
O5E_2 Li1_2 1_555 1_555
O6_2 Li2_2 1_555 1_555
H5_2 O6_2 1_555 1_555
H6_2 O6_2 1_555 1_555
O7_2 Li1_2 1_555 1_555
O8C H7C 1_555 1_555
H8C O8C 1_555 1_555
O9_2 Li2_2 1_555 1_555
O9C Li3C 1_555 1_555
H9C O10 1_555 1_555
O11_2 Li3_2 1_555 1_555
O11C Li3C 1_555 1_555
H10C O12 1_555 1_555
O13_2 S2_2 1_555 1_555
O14C Li5 1_555 1_555
H11C O14C 1_555 1_555
H12C O14C 1_555 1_555
O15_2 Li6 1_555 1_555
O15C Li6C 1_555 1_555
H13C O16 1_555 1_555
O17_2 Li6 1_555 1_555
O17C Li6C 1_555 1_555
O18C Li6C 1_555 1_555
O18_2 Li7 1_555 1_555
H14C O18C 1_555 1_555
H14_2 O18_2 1_555 1_555
H15C O18C 1_555 1_555
H15_2 O18_2 1_555 1_555
O19_2 Li1E_2 1_555 1_555
O19E Li1 1_555 1_555
O19E_2 Li1_2 1_555 1_555
O20_2 Li7_2 1_555 1_555
H16_2 O20_2 1_555 1_555
H17_2 O20_2 1_555 1_555
O21C Li4 1_555 1_555
O22_2 Li7_2 1_555 1_555
H18_2 O22_2 1_555 1_555
H19_2 O22_2 1_555 1_555
O23C Li3C 1_555 1_555
O24C Li6C 1_555 1_555
O25C S3C 1_555 1_555
O26C Li5 1_555 1_555
C1_2 S1_2 1_555 1_555
C2_2 O7_2 1_555 1_555
C3_2 O9_2 1_555 1_555
C4_2 S2_2 1_555 1_555
C5_2 O17_2 1_555 1_555
C6_2 O19_2 1_555 1_555
C7C C7 1_555 1_555
C8C S3C 1_555 1_555
C9C C9 1_555 1_555
Li2 O7 1_555 1_555
Li3 O9 1_555 1_555
Li4 O21 1_555 1_555
Li6 O26 1_555 1_555
S3 O24 1_555 1_555
O17 Li6_2 1_555 1_555
O19 Li1E 1_555 1_555
C1 C2 1_555 1_555
C1 C6 1_555 1_555
C2 C3 1_555 1_555
C3 C4 1_555 1_555
C5 C6 1_555 1_555
C7 C8 1_555 1_555
C8 C9 1_555 1_555
Li2_2 O7_2 1_555 1_555
Li3C O21C 1_555 1_555
Li6C O26C 1_555 1_555
Li6_2 O18_2 1_555 1_555
Li7_2 O17_2 1_555 1_555
Li7_2 O19_2 1_555 1_555
Li7C O18C 1_555 1_555
S2_2 O15_2 1_555 1_555
S3C O24C 1_555 1_555
O21C C7C 1_555 1_555
O26C C9C 1_555 1_555
C1_2 C2_2 1_555 1_555
C1_2 C6_2 1_555 1_555
C2_2 C3_2 1_555 1_555
C3_2 C4_2 1_555 1_555
C4_2 C5_2 1_555 1_555
C5_2 C6_2 1_555 1_555
C7C C8C 1_555 1_555
C8C C9C 1_555 1_555

#END
