
#######################################################################
#
#                 Cambridge Crystallographic Data Centre
#                                CCDC 
#
#######################################################################
#
# If this CIF has been generated from an entry in the Cambridge 
# Structural Database, then it will include bibliographic, chemical, 
# crystal, experimental, refinement or atomic coordinate data resulting 
# from the CCDC's data processing and validation procedures.
#
#######################################################################

data_VAYDAC
_symmetry_cell_setting           orthorhombic
_symmetry_space_group_name_H-M   'C m c a'
_symmetry_Int_Tables_number      64
_space_group_name_Hall           '-C 2ac 2'
loop_
_symmetry_equiv_pos_site_id
_symmetry_equiv_pos_as_xyz
1 x,y,z
2 -x,1/2-y,1/2+z
3 -x,1/2+y,1/2-z
4 x,-y,-z
5 1/2+x,1/2+y,z
6 1/2-x,-y,1/2+z
7 1/2-x,y,1/2-z
8 1/2+x,1/2-y,-z
9 -x,-y,-z
10 x,1/2+y,1/2-z
11 x,1/2-y,1/2+z
12 -x,y,z
13 1/2-x,1/2-y,-z
14 1/2+x,y,1/2-z
15 1/2+x,-y,1/2+z
16 1/2-x,1/2+y,z
_cell_length_a                   18.130(4)
_cell_length_b                   9.0962(18)
_cell_length_c                   13.786(3)
_cell_angle_alpha                90
_cell_angle_beta                 90
_cell_angle_gamma                90
_cell_volume                     2273.51
loop_
_atom_site_label
_atom_site_type_symbol
_atom_site_fract_x
_atom_site_fract_y
_atom_site_fract_z
Li1 Li 0.2500 0.4347(3) 0.7500
S1 S 0.148679(17) 0.68790(3) 0.69272(2)
O1 O 0.18796(5) 0.55350(11) 0.66681(7)
O2 O 0.19025(6) 0.81787(10) 0.66362(8)
O3 O 0.12672(7) 0.69008(11) 0.79374(8)
O4 O 0.13282(6) 0.70543(13) 0.47722(8)
H1 H 0.1289(14) 0.723(2) 0.4176(8)
C1 C 0.06656(7) 0.68891(13) 0.62456(10)
C2 C 0.06657(7) 0.69925(14) 0.52261(10)
C3 C 0.0000 0.7030(2) 0.47254(14)
H4 H 0.0000 0.7080 0.4052
C4 C 0.0000 0.68289(19) 0.67355(14)
H5 H 0.0000 0.6746 0.7408
Li1B Li -0.2500 0.9347(3) 0.7500
Li1I Li 0.2500 0.9347(3) 0.7500
Li1K Li -0.2500 0.4347(3) 0.7500
S1K S -0.148679(17) 0.68790(3) 0.69272(2)
O1K O -0.18796(5) 0.55350(11) 0.66681(7)
O1F O 0.31204(5) 0.55350(11) 0.83319(7)
O2K O -0.19025(6) 0.81787(10) 0.66362(8)
O2I O 0.19025(6) 0.31787(10) 0.83638(8)
O2O O 0.30975(6) 0.31787(10) 0.66362(8)
O3K O -0.12672(7) 0.69008(11) 0.79374(8)
O4K O -0.13282(6) 0.70543(13) 0.47722(8)
H1K H -0.1289(14) 0.723(2) 0.4176(8)
C1K C -0.06656(7) 0.68891(13) 0.62456(10)
C2K C -0.06657(7) 0.69925(14) 0.52261(10)
N1 N 0.27526(11) 0.5000 0.5000
H2 H 0.2448(9) 0.5334(19) 0.5430(13)
H3 H 0.2994(10) 0.5735(16) 0.4781(14)
H2C H 0.2448(9) 0.4666(19) 0.4570(13)
H3C H 0.2994(10) 0.4265(16) 0.5219(14)
loop_
_geom_bond_atom_site_label_1
_geom_bond_atom_site_label_2
_geom_bond_site_symmetry_1
_geom_bond_site_symmetry_2
Li1 O1 1_555 1_555
S1 O1 1_555 1_555
O2 S1 1_555 1_555
O3 S1 1_555 1_555
O4 H1 1_555 1_555
N1 H2 1_555 1_555
H3 N1 1_555 1_555
C1 S1 1_555 1_555
C2 O4 1_555 1_555
C3 C2 1_555 1_555
H4 C3 1_555 1_555
C4 C1 1_555 1_555
H5 C4 1_555 1_555
Li1B O2K 1_555 1_555
Li1I O2 1_555 1_555
Li1K O1K 1_555 1_555
S1K O1K 1_555 1_555
O1F Li1 1_555 1_555
O2K S1K 1_555 1_555
O2I Li1 1_555 1_555
O2O Li1 1_555 1_555
O3K S1K 1_555 1_555
O4K H1K 1_555 1_555
H2C N1 1_555 1_555
H3C N1 1_555 1_555
C1K C4 1_555 1_555
C2K C3 1_555 1_555
C1 C2 1_555 1_555
S1K C1K 1_555 1_555
O4K C2K 1_555 1_555
C1K C2K 1_555 1_555

#END
