
#######################################################################
#
#                 Cambridge Crystallographic Data Centre
#                                CCDC 
#
#######################################################################
#
# If this CIF has been generated from an entry in the Cambridge 
# Structural Database, then it will include bibliographic, chemical, 
# crystal, experimental, refinement or atomic coordinate data resulting 
# from the CCDC's data processing and validation procedures.
#
#######################################################################

data_VAYDUW
_symmetry_cell_setting           triclinic
_symmetry_space_group_name_H-M   'P -1'
_symmetry_Int_Tables_number      2
_space_group_name_Hall           '-P 1'
loop_
_symmetry_equiv_pos_site_id
_symmetry_equiv_pos_as_xyz
1 x,y,z
2 -x,-y,-z
_cell_length_a                   13.576(3)
_cell_length_b                   17.145(3)
_cell_length_c                   18.090(4)
_cell_angle_alpha                86.72(3)
_cell_angle_beta                 79.10(3)
_cell_angle_gamma                77.04(3)
_cell_volume                     4028.87
loop_
_atom_site_label
_atom_site_type_symbol
_atom_site_fract_x
_atom_site_fract_y
_atom_site_fract_z
Dy1 Dy 0.84069(6) 0.54055(4) 0.03466(4)
Dy2 Dy 0.33975(6) 0.53823(4) 0.53150(4)
Dy3 Dy 1.22069(8) -0.00415(5) -0.26096(5)
C1 C 0.7077(14) 0.5637(11) -0.1196(11)
H1 H 0.7431 0.6044 -0.1333
C2 C 0.6531(16) 0.5391(12) -0.1689(11)
H2 H 0.6496 0.5638 -0.2157
C3 C 0.6054(17) 0.4778(12) -0.1459(12)
H3 H 0.5796 0.4558 -0.1820
C4 C 0.5920(16) 0.4458(12) -0.0759(9)
C5 C 0.5411(16) 0.3855(11) -0.0538(10)
H4 H 0.5110 0.3646 -0.0880
C6 C 0.5344(15) 0.3560(12) 0.0179(10)
H5 H 0.4903 0.3219 0.0353
C7 C 0.5929(16) 0.3768(12) 0.0644(9)
C8 C 0.5972(17) 0.3427(13) 0.1342(10)
H6 H 0.5592 0.3041 0.1505
C9 C 0.6549(16) 0.3629(12) 0.1809(12)
H7 H 0.6588 0.3384 0.2277
C10 C 0.7065(17) 0.4211(12) 0.1548(12)
H8 H 0.7419 0.4390 0.1873
C11 C 0.6508(16) 0.4332(13) 0.0410(9)
C12 C 0.6498(16) 0.4698(12) -0.0287(10)
C13 C 0.6927(19) 0.6275(15) 0.1426(16)
C14 C 0.5994(18) 0.6629(14) 0.2026(15)
C15 C 0.5317(18) 0.7310(14) 0.1835(15)
H9 H 0.5432 0.7564 0.1368
C16 C 0.4449(18) 0.7595(14) 0.2382(15)
H10 H 0.3990 0.8064 0.2287
C17 C 0.4263(19) 0.7198(14) 0.3052(15)
H11 H 0.3659 0.7384 0.3391
C18 C 0.4952(18) 0.6528(14) 0.3238(15)
C19 C 0.5849(19) 0.6245(14) 0.2711(15)
H12 H 0.6337 0.5803 0.2826
C20 C 0.4755(19) 0.6125(14) 0.3972(16)
C21 C 0.2516(17) 0.3655(11) 0.5964(13)
H13 H 0.2976 0.3644 0.6287
C22 C 0.2054(16) 0.3003(11) 0.5961(13)
H14 H 0.2153 0.2584 0.6308
C23 C 0.1449(17) 0.2997(13) 0.5433(12)
H15 H 0.1137 0.2567 0.5428
C24 C 0.1288(16) 0.3609(10) 0.4906(11)
C25 C 0.0618(16) 0.3666(10) 0.4398(12)
H16 H 0.0306 0.3241 0.4363
C26 C 0.0406(16) 0.4333(10) 0.3947(12)
H17 H -0.0080 0.4366 0.3640
C27 C 0.0903(12) 0.4960(8) 0.3939(9)
C28 C 0.0753(13) 0.5635(9) 0.3491(9)
H18 H 0.0371 0.5648 0.3113
C29 C 0.1140(15) 0.6286(9) 0.3576(11)
H19 H 0.0999 0.6744 0.3279
C30 C 0.1769(14) 0.6246(9) 0.4134(11)
H20 H 0.2067 0.6674 0.4185
C31 C 0.1516(14) 0.4944(8) 0.4503(10)
C32 C 0.1688(15) 0.4313(12) 0.4973(11)
C33 C 1.0279(19) 0.3959(15) 0.1088(16)
C34 C 1.0069(18) 0.3519(14) 0.1808(15)
C35 C 1.0683(19) 0.2771(14) 0.1924(15)
H21 H 1.1244 0.2556 0.1558
C36 C 1.0459(18) 0.2354(15) 0.2577(15)
H22 H 1.0880 0.1860 0.2658
C37 C 0.9631(18) 0.2651(14) 0.3112(15)
H23 H 0.9508 0.2363 0.3558
C38 C 0.8982(19) 0.3355(14) 0.3009(15)
C39 C 0.9272(19) 0.3789(15) 0.2335(15)
H24 H 0.8871 0.4294 0.2264
C40 C 0.8133(19) 0.3716(15) 0.3584(16)
C41 C 0.5306(19) 0.5977(14) 0.5932(15)
C42 C 0.5440(19) 0.6670(14) 0.6385(15)
C43 C 0.6356(19) 0.6660(14) 0.6592(14)
H25 H 0.6924 0.6255 0.6426
C44 C 0.6442(18) 0.7257(13) 0.7052(14)
H26 H 0.7068 0.7255 0.7191
C45 C 0.5600(18) 0.7844(14) 0.7297(14)
H27 H 0.5644 0.8215 0.7639
C46 C 0.4686(18) 0.7900(14) 0.7051(15)
C47 C 0.4607(18) 0.7316(14) 0.6590(15)
H28 H 0.3998 0.7348 0.6413
C48 C 0.3737(19) 0.8610(14) 0.7203(15)
C49 C 1.1530(12) 0.0494(10) -0.4359(10)
H29 H 1.0922 0.0357 -0.4118
C50 C 1.1618(13) 0.0729(13) -0.5109(11)
H30 H 1.1099 0.0725 -0.5377
C51 C 1.2488(13) 0.0967(13) -0.5439(9)
H31 H 1.2563 0.1117 -0.5945
C52 C 1.3246(11) 0.0994(13) -0.5065(11)
C53 C 1.4168(12) 0.1169(13) -0.5398(9)
H32 H 1.4308 0.1249 -0.5917
C54 C 1.4879(13) 0.1228(13) -0.4978(10)
H33 H 1.5423 0.1464 -0.5190
C55 C 1.4812(14) 0.0945(13) -0.4247(10)
C56 C 1.5605(16) 0.0826(13) -0.3861(12)
H34 H 1.6244 0.0900 -0.4109
C57 C 1.5491(16) 0.0610(13) -0.3152(12)
H35 H 1.5986 0.0632 -0.2867
C58 C 1.4643(15) 0.0358(13) -0.2850(14)
H36 H 1.4607 0.0143 -0.2365
C59 C 1.3922(15) 0.0656(14) -0.3926(9)
C60 C 1.3182(11) 0.0666(14) -0.4319(9)
C61 C 1.0770(19) 0.1401(14) -0.2390(15)
C62 C 0.9986(18) 0.2073(14) -0.2051(15)
C63 C 0.8974(18) 0.2107(14) -0.2056(14)
H37 H 0.8800 0.1704 -0.2294
C64 C 0.8198(19) 0.2717(13) -0.1723(14)
H38 H 0.7520 0.2761 -0.1777
C65 C 0.8462(18) 0.3253(14) -0.1312(14)
H39 H 0.7941 0.3639 -0.1048
C66 C 0.9512(19) 0.3249(14) -0.1266(15)
C67 C 1.0218(19) 0.2692(14) -0.1658(15)
H40 H 1.0905 0.2702 -0.1680
C68 C 0.9737(19) 0.3847(14) -0.0807(15)
C69 C 1.1237(14) -0.1476(11) -0.1465(13)
H41 H 1.1203 -0.1653 -0.1934
C70 C 1.0925(17) -0.1908(13) -0.0819(11)
H42 H 1.0848 -0.2429 -0.0855
C71 C 1.0730(17) -0.1550(11) -0.0118(13)
H43 H 1.0366 -0.1764 0.0303
C72 C 1.1094(17) -0.0864(10) -0.0068(10)
C73 C 1.1009(17) -0.0502(11) 0.0619(9)
H44 H 1.0720 -0.0731 0.1062
C74 C 1.1355(16) 0.0199(11) 0.0645(9)
H45 H 1.1234 0.0466 0.1097
C75 C 1.1884(16) 0.0501(11) -0.0007(11)
C76 C 1.2202(17) 0.1213(11) 0.0019(13)
H46 H 1.2107 0.1471 0.0473
C77 C 1.2659(17) 0.1529(14) -0.0637(11)
H47 H 1.2934 0.1979 -0.0634
C78 C 1.2694(17) 0.1153(12) -0.1302(14)
H48 H 1.3021 0.1357 -0.1746
C79 C 1.1867(17) 0.0195(12) -0.0716(10)
C80 C 1.1508(17) -0.0504(12) -0.0739(10)
N1 N 0.7075(10) 0.5259(7) -0.0501(9)
N2 N 0.7105(12) 0.4551(10) 0.0850(9)
N3 N 0.2304(12) 0.4314(9) 0.5498(9)
N4 N 0.1938(11) 0.5582(8) 0.4597(9)
N5 N 1.2296(10) 0.0454(7) -0.3958(10)
N6 N 1.3827(12) 0.0387(10) -0.3190(9)
N7 N 1.2297(12) 0.0526(10) -0.1352(10)
N8 N 1.1583(10) -0.0817(8) -0.1421(9)
O1 O 0.6966(10) 0.6506(8) 0.0741(7)
O2 O 0.7604(10) 0.5733(8) 0.1645(8)
O3 O 0.3870(10) 0.6233(8) 0.4350(8)
O4 O 0.5503(9) 0.5613(6) 0.4184(7)
O5 O 0.9571(9) 0.4488(7) 0.0903(7)
O6 O 1.1169(11) 0.3802(8) 0.0700(8)
O7 O 0.7623(11) 0.4440(7) 0.3464(8)
O8 O 0.7854(10) 0.3384(8) 0.4191(7)
O9 O 0.4391(10) 0.6027(7) 0.5840(8)
O10 O 0.6034(9) 0.5478(7) 0.5705(7)
O11 O 0.3152(11) 0.8804(7) 0.6746(8)
O12 O 0.3693(13) 0.8990(9) 0.7812(8)
O13 O 1.0539(11) 0.0709(7) -0.2327(7)
O14 O 1.1679(9) 0.1444(7) -0.2646(8)
O15 O 0.9022(10) 0.4389(7) -0.0494(8)
O16 O 1.0661(9) 0.3754(8) -0.0749(8)
O17 O 1.1071(15) -0.0755(11) -0.3047(12)
H53 H 1.1575 -0.1108 -0.3262
H54 H 1.1180 -0.0603 -0.2643
Dy1A Dy 1.15931(6) 0.45945(4) -0.03466(4)
Dy1A_2 Dy 0.15931(6) 0.45945(4) 0.96534(4)
Dy2A Dy 0.66025(6) 0.46177(4) 0.46850(4)
Dy2_2 Dy 1.33975(6) 0.53823(4) -0.46850(4)
Dy3A Dy 0.77931(8) 1.00415(5) 0.26096(5)
Dy3_2 Dy 0.22069(8) 0.99585(5) 0.73904(5)
Dy3A_2 Dy 0.77931(8) 0.00415(5) 0.26096(5)
C1A C 1.2923(14) 0.4363(11) 0.1196(11)
H1A H 1.2569 0.3956 0.1333
C2A C 1.3469(16) 0.4609(12) 0.1689(11)
H2A H 1.3504 0.4362 0.2157
C3A C 1.3946(17) 0.5222(12) 0.1459(12)
H3A H 1.4204 0.5442 0.1820
C4A C 1.4080(16) 0.5542(12) 0.0759(9)
C5A C 1.4589(16) 0.6145(11) 0.0538(10)
H4A H 1.4890 0.6354 0.0880
C6A C 1.4656(15) 0.6440(12) -0.0179(10)
H5A H 1.5097 0.6781 -0.0353
C7A C 1.4071(16) 0.6232(12) -0.0644(9)
C8A C 1.4028(17) 0.6573(13) -0.1342(10)
H6A H 1.4408 0.6959 -0.1505
C9A C 1.3451(16) 0.6371(12) -0.1809(12)
H7A H 1.3412 0.6616 -0.2277
C10A C 1.2935(17) 0.5789(12) -0.1548(12)
H8A H 1.2581 0.5610 -0.1873
C11A C 1.3492(16) 0.5668(13) -0.0410(9)
C12A C 1.3502(16) 0.5302(12) 0.0287(10)
C13A C 0.3073(19) 0.3725(15) 0.8574(16)
C14A C 0.4006(18) 0.3371(14) 0.7974(15)
C15A C 0.4683(18) 0.2690(14) 0.8165(15)
H9A H 0.4568 0.2436 0.8632
C16A C 0.5551(18) 0.2405(14) 0.7618(15)
H10A H 0.6010 0.1936 0.7713
C17A C 0.5737(19) 0.2802(14) 0.6948(15)
H11A H 0.6341 0.2616 0.6609
C18A C 0.5048(18) 0.3472(14) 0.6762(15)
C19A C 0.4151(19) 0.3755(14) 0.7289(15)
H12A H 0.3663 0.4197 0.7174
C20A C 0.5245(19) 0.3875(14) 0.6028(16)
C21A C 0.7484(17) 0.6345(11) 0.4036(13)
H13A H 0.7024 0.6356 0.3713
C22A C 0.7946(16) 0.6997(11) 0.4039(13)
H14A H 0.7847 0.7416 0.3692
C23A C 0.8551(17) 0.7003(13) 0.4567(12)
H15A H 0.8863 0.7433 0.4572
C24A C 0.8712(16) 0.6391(10) 0.5094(11)
C25A C 0.9382(16) 0.6334(10) 0.5602(12)
H16A H 0.9694 0.6759 0.5637
C26A C 0.9594(16) 0.5667(10) 0.6053(12)
H17A H 1.0080 0.5634 0.6360
C27A C 0.9097(12) 0.5040(8) 0.6061(9)
C28A C 0.9247(13) 0.4365(9) 0.6509(9)
H18A H 0.9629 0.4352 0.6887
C29A C 0.8860(15) 0.3714(9) 0.6424(11)
H19A H 0.9001 0.3256 0.6721
C30A C 0.8231(14) 0.3754(9) 0.5866(11)
H20A H 0.7933 0.3326 0.5815
C31A C 0.8484(14) 0.5056(8) 0.5497(10)
C32A C 0.8312(15) 0.5687(12) 0.5027(11)
C33A C 0.9721(19) 0.6041(15) -0.1088(16)
C34A C 0.9931(18) 0.6481(14) -0.1808(15)
C35A C 0.9317(19) 0.7229(14) -0.1924(15)
H21A H 0.8756 0.7444 -0.1558
C36A C 0.9541(18) 0.7646(15) -0.2577(15)
H22A H 0.9120 0.8140 -0.2658
C37A C 1.0369(18) 0.7349(14) -0.3112(15)
H23A H 1.0492 0.7637 -0.3558
C38A C 1.1018(19) 0.6645(14) -0.3009(15)
C39A C 1.0728(19) 0.6211(15) -0.2335(15)
H24A H 1.1129 0.5706 -0.2264
C40A C 1.1867(19) 0.6284(15) -0.3584(16)
C41A C 0.4694(19) 0.4023(14) 0.4068(15)
C42A C 0.4560(19) 0.3330(14) 0.3615(15)
C43A C 0.3644(19) 0.3340(14) 0.3408(14)
H25A H 0.3076 0.3745 0.3574
C44A C 0.3558(18) 0.2743(13) 0.2948(14)
H26A H 0.2932 0.2745 0.2809
C45A C 0.4400(18) 0.2156(14) 0.2703(14)
H27A H 0.4356 0.1785 0.2361
C46A C 0.5314(18) 0.2100(14) 0.2949(15)
C47A C 0.5393(18) 0.2684(14) 0.3410(15)
H28A H 0.6002 0.2652 0.3587
C48A C 0.6263(19) 0.1390(14) 0.2797(15)
C49A C 0.8470(12) 0.9506(10) 0.4359(10)
H29A H 0.9078 0.9643 0.4118
C50A C 0.8382(13) 0.9271(13) 0.5109(11)
H30A H 0.8901 0.9275 0.5377
C51A C 0.7512(13) 0.9033(13) 0.5439(9)
H31A H 0.7437 0.8883 0.5945
C52A C 0.6754(11) 0.9006(13) 0.5065(11)
C53A C 0.5832(12) 0.8831(13) 0.5398(9)
H32A H 0.5692 0.8751 0.5917
C54A C 0.5121(13) 0.8772(13) 0.4978(10)
H33A H 0.4577 0.8536 0.5190
C55A C 0.5188(14) 0.9055(13) 0.4247(10)
C56A C 0.4395(16) 0.9174(13) 0.3861(12)
H34A H 0.3756 0.9100 0.4109
C57A C 0.4509(16) 0.9390(13) 0.3152(12)
H35A H 0.4014 0.9368 0.2867
C58A C 0.5357(15) 0.9642(13) 0.2850(14)
H36A H 0.5393 0.9857 0.2365
C59A C 0.6078(15) 0.9344(14) 0.3926(9)
C60A C 0.6818(11) 0.9334(14) 0.4319(9)
C61A C 0.9230(19) 0.8599(14) 0.2390(15)
C62A C 1.0014(18) 0.7927(14) 0.2051(15)
C63A C 1.1026(18) 0.7893(14) 0.2056(14)
H37A H 1.1200 0.8296 0.2294
C64A C 1.1802(19) 0.7283(13) 0.1723(14)
H38A H 1.2480 0.7239 0.1777
C65A C 1.1538(18) 0.6747(14) 0.1312(14)
H39A H 1.2059 0.6361 0.1048
C66A C 1.0488(19) 0.6751(14) 0.1266(15)
C67A C 0.9782(19) 0.7308(14) 0.1658(15)
H40A H 0.9095 0.7298 0.1680
C68A C 1.0263(19) 0.6153(14) 0.0807(15)
C69A C 0.8763(14) 1.1476(11) 0.1465(13)
H41A H 0.8797 1.1653 0.1934
C70A C 0.9075(17) 1.1908(13) 0.0819(11)
H42A H 0.9152 1.2429 0.0855
C71A C 0.9270(17) 1.1550(11) 0.0118(13)
H43A H 0.9634 1.1764 -0.0303
C72A C 0.8906(17) 1.0864(10) 0.0068(10)
C73A C 0.8991(17) 1.0502(11) -0.0619(9)
H44A H 0.9280 1.0731 -0.1062
C74A C 0.8645(16) 0.9801(11) -0.0645(9)
H45A H 0.8766 0.9534 -0.1097
C75A C 0.8116(16) 0.9499(11) 0.0007(11)
C76A C 0.7798(17) 0.8787(11) -0.0019(13)
H46A H 0.7893 0.8529 -0.0473
C77A C 0.7341(17) 0.8471(14) 0.0637(11)
H47A H 0.7066 0.8021 0.0634
C78A C 0.7306(17) 0.8847(12) 0.1302(14)
H48A H 0.6979 0.8643 0.1746
C79A C 0.8133(17) 0.9805(12) 0.0716(10)
C80A C 0.8492(17) 1.0504(12) 0.0739(10)
N1A N 1.2925(10) 0.4741(7) 0.0501(9)
N2A N 1.2895(12) 0.5449(10) -0.0850(9)
N3A N 0.7696(12) 0.5686(9) 0.4502(9)
N4A N 0.8062(11) 0.4418(8) 0.5403(9)
N5A N 0.7704(10) 0.9546(7) 0.3958(10)
N6A N 0.6173(12) 0.9613(10) 0.3190(9)
N7A N 0.7703(12) 0.9474(10) 0.1352(10)
N8A N 0.8417(10) 1.0817(8) 0.1421(9)
O1A O 0.3034(10) 0.3494(8) 0.9259(7)
O1A_2 O 1.3034(10) 0.3494(8) -0.0741(7)
O2A O 0.2396(10) 0.4267(8) 0.8355(8)
O2A_2 O 1.2396(10) 0.4267(8) -0.1645(8)
O3A O 0.6130(10) 0.3767(8) 0.5650(8)
O4A O 0.4497(9) 0.4387(6) 0.5816(7)
O5A O 1.0429(9) 0.5512(7) -0.0903(7)
O6A O 0.8831(11) 0.6198(8) -0.0700(8)
O7A O 1.2377(11) 0.5560(7) -0.3464(8)
O7A_2 O 0.2377(11) 0.5560(7) 0.6536(8)
O8A O 1.2146(10) 0.6616(8) -0.4191(7)
O8A_2 O 0.2146(10) 0.6616(8) 0.5809(7)
O9A O 0.5609(10) 0.3973(7) 0.4160(8)
O10A O 0.3966(9) 0.4522(7) 0.4295(7)
O11A O 0.6848(11) 0.1196(7) 0.3254(8)
O11_2 O 1.3152(11) -0.1196(7) -0.3254(8)
O11A_2 O 0.6848(11) 1.1196(7) 0.3254(8)
O12A O 0.6307(13) 0.1010(9) 0.2188(8)
O12_2 O 1.3693(13) -0.1010(9) -0.2188(8)
O12A_2 O 0.6307(13) 1.1010(9) 0.2188(8)
O13A O 0.9461(11) 0.9291(7) 0.2327(7)
O14A O 0.8321(9) 0.8556(7) 0.2646(8)
O15A O 1.0978(10) 0.5611(7) 0.0494(8)
O16A O 0.9339(9) 0.6246(8) 0.0749(8)
O17A O 0.8929(15) 1.0755(11) 0.3047(12)
H53A H 0.8425 1.1108 0.3262
H54A H 0.8820 1.0603 0.2643
C81 C 0.5284(12) 0.0286(9) 0.9942(9)
C82 C 0.5282(14) 0.0719(10) 1.0562(9)
H49 H 0.4896 0.0620 1.1026
C83 C 0.5858(15) 0.1302(11) 1.0491(10)
H50 H 0.5865 0.1591 1.0909
C84 C 0.6424(15) 0.1451(11) 0.9797(10)
H51 H 0.6773 0.1867 0.9740
C85 C 0.6471(15) 0.0985(11) 0.9189(9)
H52 H 0.6916 0.1043 0.8741
N9 N 0.5853(11) 0.0428(9) 0.9247(9)
C81A C 0.4716(12) -0.0286(9) 1.0058(9)
C82A C 0.4718(14) -0.0719(10) 0.9438(9)
H49A H 0.5104 -0.0620 0.8974
C83A C 0.4142(15) -0.1302(11) 0.9509(10)
H50A H 0.4135 -0.1591 0.9091
C84A C 0.3576(15) -0.1451(11) 1.0203(10)
H51A H 0.3227 -0.1867 1.0260
C85A C 0.3529(15) -0.0985(11) 1.0811(9)
H52A H 0.3084 -0.1043 1.1259
N9A N 0.4147(11) -0.0428(9) 1.0753(9)
O18 O 0.7846(16) 0.1754(10) 0.4288(12)
H55 H 0.7495 0.1869 0.3946
H56 H 0.8258 0.2059 0.4272
O19 O 0.8475(15) 0.0076(10) 0.7128(11)
H57 H 0.8004 0.0510 0.7102
H58 H 0.8914 0.0102 0.6642
loop_
_geom_bond_atom_site_label_1
_geom_bond_atom_site_label_2
_geom_bond_site_symmetry_1
_geom_bond_site_symmetry_2
Dy1 N1 1_555 1_555
Dy2 N3 1_555 1_555
Dy3 N5 1_555 1_555
C1 H1 1_555 1_555
C2 C1 1_555 1_555
H2 C2 1_555 1_555
C3 C2 1_555 1_555
H3 C3 1_555 1_555
C4 C3 1_555 1_555
C5 C4 1_555 1_555
H4 C5 1_555 1_555
C6 C5 1_555 1_555
H5 C6 1_555 1_555
C7 C6 1_555 1_555
C8 C7 1_555 1_555
H6 C8 1_555 1_555
C9 C8 1_555 1_555
H7 C9 1_555 1_555
C10 C9 1_555 1_555
H8 C10 1_555 1_555
C11 C7 1_555 1_555
C12 C4 1_555 1_555
C13 C14 1_555 1_555
C14 C15 1_555 1_555
C15 H9 1_555 1_555
C16 C15 1_555 1_555
H10 C16 1_555 1_555
C17 C16 1_555 1_555
H11 C17 1_555 1_555
C18 C17 1_555 1_555
C19 C14 1_555 1_555
H12 C19 1_555 1_555
C20 C18 1_555 1_555
C21 H13 1_555 1_555
C22 C21 1_555 1_555
H14 C22 1_555 1_555
C23 C22 1_555 1_555
H15 C23 1_555 1_555
C24 C23 1_555 1_555
C25 C24 1_555 1_555
H16 C25 1_555 1_555
C26 C25 1_555 1_555
H17 C26 1_555 1_555
C27 C26 1_555 1_555
C28 C27 1_555 1_555
H18 C28 1_555 1_555
C29 C28 1_555 1_555
H19 C29 1_555 1_555
C30 C29 1_555 1_555
H20 C30 1_555 1_555
C31 C27 1_555 1_555
C32 C24 1_555 1_555
C33 C34 1_555 1_555
C34 C35 1_555 1_555
C35 H21 1_555 1_555
C36 C35 1_555 1_555
H22 C36 1_555 1_555
C37 C36 1_555 1_555
H23 C37 1_555 1_555
C38 C37 1_555 1_555
C39 C34 1_555 1_555
H24 C39 1_555 1_555
C40 C38 1_555 1_555
C41 C42 1_555 1_555
C42 C43 1_555 1_555
C43 H25 1_555 1_555
C44 C43 1_555 1_555
H26 C44 1_555 1_555
C45 C44 1_555 1_555
H27 C45 1_555 1_555
C46 C45 1_555 1_555
C47 C42 1_555 1_555
H28 C47 1_555 1_555
C48 C46 1_555 1_555
C49 H29 1_555 1_555
C50 C49 1_555 1_555
H30 C50 1_555 1_555
C51 C50 1_555 1_555
H31 C51 1_555 1_555
C52 C51 1_555 1_555
C53 C52 1_555 1_555
H32 C53 1_555 1_555
C54 C53 1_555 1_555
H33 C54 1_555 1_555
C55 C54 1_555 1_555
C56 C55 1_555 1_555
H34 C56 1_555 1_555
C57 C56 1_555 1_555
H35 C57 1_555 1_555
C58 C57 1_555 1_555
H36 C58 1_555 1_555
C59 C55 1_555 1_555
C60 C52 1_555 1_555
C61 C62 1_555 1_555
C62 C63 1_555 1_555
C63 H37 1_555 1_555
C64 C63 1_555 1_555
H38 C64 1_555 1_555
C65 C64 1_555 1_555
H39 C65 1_555 1_555
C66 C65 1_555 1_555
C67 C62 1_555 1_555
H40 C67 1_555 1_555
C68 C66 1_555 1_555
C69 H41 1_555 1_555
C70 C69 1_555 1_555
H42 C70 1_555 1_555
C71 C70 1_555 1_555
H43 C71 1_555 1_555
C72 C71 1_555 1_555
C73 C72 1_555 1_555
H44 C73 1_555 1_555
C74 C73 1_555 1_555
H45 C74 1_555 1_555
C75 C74 1_555 1_555
C76 C75 1_555 1_555
H46 C76 1_555 1_555
C77 C76 1_555 1_555
H47 C77 1_555 1_555
C78 C77 1_555 1_555
H48 C78 1_555 1_555
C79 C75 1_555 1_555
C80 C72 1_555 1_555
C81 C82 1_555 1_555
C82 H49 1_555 1_555
C83 C82 1_555 1_555
H50 C83 1_555 1_555
C84 C83 1_555 1_555
H51 C84 1_555 1_555
C85 C84 1_555 1_555
H52 C85 1_555 1_555
N1 C1 1_555 1_555
N2 Dy1 1_555 1_555
N3 C21 1_555 1_555
N4 Dy2 1_555 1_555
N5 C49 1_555 1_555
N6 Dy3 1_555 1_555
N7 Dy3 1_555 1_555
N8 Dy3 1_555 1_555
N9 C81 1_555 1_555
O1 Dy1 1_555 1_555
O2 Dy1 1_555 1_555
O3 Dy2 1_555 1_555
O4 C20 1_555 1_555
O5 Dy1 1_555 1_555
O6 C33 1_555 1_555
O7 C40 1_555 1_555
O8 C40 1_555 1_555
O9 Dy2 1_555 1_555
O10 C41 1_555 1_555
O11 C48 1_555 1_555
O12 C48 1_555 1_555
O13 Dy3 1_555 1_555
O14 Dy3 1_555 1_555
O15 Dy1 1_555 1_555
O16 C68 1_555 1_555
O17 Dy3 1_555 1_555
H53 O17 1_555 1_555
H54 O17 1_555 1_555
O18 H55 1_555 1_555
H56 O18 1_555 1_555
O19 H57 1_555 1_555
H58 O19 1_555 1_555
Dy1A O6 1_555 1_555
Dy1A_2 O1A 1_555 1_555
Dy2A O4 1_555 1_555
Dy2_2 O7A 1_555 1_555
Dy3A N5A 1_555 1_555
Dy3_2 O11 1_555 1_555
Dy3A_2 O11A 1_555 1_555
C1A H1A 1_555 1_555
C2A C1A 1_555 1_555
H2A C2A 1_555 1_555
C3A C2A 1_555 1_555
H3A C3A 1_555 1_555
C4A C3A 1_555 1_555
C5A C4A 1_555 1_555
H4A C5A 1_555 1_555
C6A C5A 1_555 1_555
H5A C6A 1_555 1_555
C7A C6A 1_555 1_555
C8A C7A 1_555 1_555
H6A C8A 1_555 1_555
C9A C8A 1_555 1_555
H7A C9A 1_555 1_555
C10A C9A 1_555 1_555
H8A C10A 1_555 1_555
C11A C7A 1_555 1_555
C12A C4A 1_555 1_555
C13A C14A 1_555 1_555
C14A C15A 1_555 1_555
C15A H9A 1_555 1_555
C16A C15A 1_555 1_555
H10A C16A 1_555 1_555
C17A C16A 1_555 1_555
H11A C17A 1_555 1_555
C18A C17A 1_555 1_555
C19A C14A 1_555 1_555
H12A C19A 1_555 1_555
C20A C18A 1_555 1_555
C21A H13A 1_555 1_555
C22A C21A 1_555 1_555
H14A C22A 1_555 1_555
C23A C22A 1_555 1_555
H15A C23A 1_555 1_555
C24A C23A 1_555 1_555
C25A C24A 1_555 1_555
H16A C25A 1_555 1_555
C26A C25A 1_555 1_555
H17A C26A 1_555 1_555
C27A C26A 1_555 1_555
C28A C27A 1_555 1_555
H18A C28A 1_555 1_555
C29A C28A 1_555 1_555
H19A C29A 1_555 1_555
C30A C29A 1_555 1_555
H20A C30A 1_555 1_555
C31A C27A 1_555 1_555
C32A C24A 1_555 1_555
C33A C34A 1_555 1_555
C34A C35A 1_555 1_555
C35A H21A 1_555 1_555
C36A C35A 1_555 1_555
H22A C36A 1_555 1_555
C37A C36A 1_555 1_555
H23A C37A 1_555 1_555
C38A C37A 1_555 1_555
C39A C34A 1_555 1_555
H24A C39A 1_555 1_555
C40A C38A 1_555 1_555
C41A C42A 1_555 1_555
C42A C43A 1_555 1_555
C43A H25A 1_555 1_555
C44A C43A 1_555 1_555
H26A C44A 1_555 1_555
C45A C44A 1_555 1_555
H27A C45A 1_555 1_555
C46A C45A 1_555 1_555
C47A C42A 1_555 1_555
H28A C47A 1_555 1_555
C48A C46A 1_555 1_555
C49A H29A 1_555 1_555
C50A C49A 1_555 1_555
H30A C50A 1_555 1_555
C51A C50A 1_555 1_555
H31A C51A 1_555 1_555
C52A C51A 1_555 1_555
C53A C52A 1_555 1_555
H32A C53A 1_555 1_555
C54A C53A 1_555 1_555
H33A C54A 1_555 1_555
C55A C54A 1_555 1_555
C56A C55A 1_555 1_555
H34A C56A 1_555 1_555
C57A C56A 1_555 1_555
H35A C57A 1_555 1_555
C58A C57A 1_555 1_555
H36A C58A 1_555 1_555
C59A C55A 1_555 1_555
C60A C52A 1_555 1_555
C61A C62A 1_555 1_555
C62A C63A 1_555 1_555
C63A H37A 1_555 1_555
C64A C63A 1_555 1_555
H38A C64A 1_555 1_555
C65A C64A 1_555 1_555
H39A C65A 1_555 1_555
C66A C65A 1_555 1_555
C67A C62A 1_555 1_555
H40A C67A 1_555 1_555
C68A C66A 1_555 1_555
C69A H41A 1_555 1_555
C70A C69A 1_555 1_555
H42A C70A 1_555 1_555
C71A C70A 1_555 1_555
H43A C71A 1_555 1_555
C72A C71A 1_555 1_555
C73A C72A 1_555 1_555
H44A C73A 1_555 1_555
C74A C73A 1_555 1_555
H45A C74A 1_555 1_555
C75A C74A 1_555 1_555
C76A C75A 1_555 1_555
H46A C76A 1_555 1_555
C77A C76A 1_555 1_555
H47A C77A 1_555 1_555
C78A C77A 1_555 1_555
H48A C78A 1_555 1_555
C79A C75A 1_555 1_555
C80A C72A 1_555 1_555
C81A C81 1_555 1_555
C82A C81A 1_555 1_555
H49A C82A 1_555 1_555
C83A C82A 1_555 1_555
H50A C83A 1_555 1_555
C84A C83A 1_555 1_555
H51A C84A 1_555 1_555
C85A C84A 1_555 1_555
H52A C85A 1_555 1_555
N1A Dy1A 1_555 1_555
N2A Dy1A 1_555 1_555
N3A Dy2A 1_555 1_555
N4A Dy2A 1_555 1_555
N5A C49A 1_555 1_555
N6A Dy3A 1_555 1_555
N7A Dy3A 1_555 1_555
N8A Dy3A 1_555 1_555
N9A C81A 1_555 1_555
O1A C13A 1_555 1_555
O1A_2 Dy1A 1_555 1_555
O2A Dy1A_2 1_555 1_555
O2A_2 Dy1A 1_555 1_555
O3A Dy2A 1_555 1_555
O4A Dy2 1_555 1_555
O5A Dy1A 1_555 1_555
O6A Dy1 1_555 1_555
O7A C40A 1_555 1_555
O7A_2 Dy2 1_555 1_555
O8A Dy2_2 1_555 1_555
O8A_2 Dy2 1_555 1_555
O9A Dy2A 1_555 1_555
O10A Dy2 1_555 1_555
O11A C48A 1_555 1_555
O11_2 Dy3 1_555 1_555
O11A_2 Dy3A 1_555 1_555
O12A Dy3A_2 1_555 1_555
O12_2 Dy3 1_555 1_555
O12A_2 Dy3A 1_555 1_555
O13A Dy3A 1_555 1_555
O14A Dy3A 1_555 1_555
O15A Dy1A 1_555 1_555
O16A Dy1 1_555 1_555
O17A Dy3A 1_555 1_555
H53A O17A 1_555 1_555
H54A O17A 1_555 1_555
C10 N2 1_555 1_555
C11 C12 1_555 1_555
C11 N2 1_555 1_555
C12 N1 1_555 1_555
C13 O1 1_555 1_555
C13 O2 1_555 1_555
C18 C19 1_555 1_555
C20 O3 1_555 1_555
C30 N4 1_555 1_555
C31 C32 1_555 1_555
C31 N4 1_555 1_555
C32 N3 1_555 1_555
C33 O5 1_555 1_555
C38 C39 1_555 1_555
C41 O9 1_555 1_555
C46 C47 1_555 1_555
C58 N6 1_555 1_555
C59 C60 1_555 1_555
C59 N6 1_555 1_555
C60 N5 1_555 1_555
C61 O13 1_555 1_555
C61 O14 1_555 1_555
C66 C67 1_555 1_555
C68 O15 1_555 1_555
C69 N8 1_555 1_555
C78 N7 1_555 1_555
C79 C80 1_555 1_555
C79 N7 1_555 1_555
C80 N8 1_555 1_555
C85 N9 1_555 1_555
O7 Dy2A 1_555 1_555
O8 Dy2A 1_555 1_555
O10 Dy2A 1_555 1_555
O12 Dy3_2 1_555 1_555
O16 Dy1A 1_555 1_555
C1A N1A 1_555 1_555
C10A N2A 1_555 1_555
C11A C12A 1_555 1_555
C11A N2A 1_555 1_555
C12A N1A 1_555 1_555
C13A O2A 1_555 1_555
C18A C19A 1_555 1_555
C20A O3A 1_555 1_555
C20A O4A 1_555 1_555
C21A N3A 1_555 1_555
C30A N4A 1_555 1_555
C31A C32A 1_555 1_555
C31A N4A 1_555 1_555
C32A N3A 1_555 1_555
C33A O5A 1_555 1_555
C33A O6A 1_555 1_555
C38A C39A 1_555 1_555
C40A O8A 1_555 1_555
C41A O9A 1_555 1_555
C41A O10A 1_555 1_555
C46A C47A 1_555 1_555
C48A O12A 1_555 1_555
C58A N6A 1_555 1_555
C59A C60A 1_555 1_555
C59A N6A 1_555 1_555
C60A N5A 1_555 1_555
C61A O13A 1_555 1_555
C61A O14A 1_555 1_555
C66A C67A 1_555 1_555
C68A O15A 1_555 1_555
C68A O16A 1_555 1_555
C69A N8A 1_555 1_555
C78A N7A 1_555 1_555
C79A C80A 1_555 1_555
C79A N7A 1_555 1_555
C80A N8A 1_555 1_555
C85A N9A 1_555 1_555

#END
