
#######################################################################
#
#                 Cambridge Crystallographic Data Centre
#                                CCDC 
#
#######################################################################
#
# If this CIF has been generated from an entry in the Cambridge 
# Structural Database, then it will include bibliographic, chemical, 
# crystal, experimental, refinement or atomic coordinate data resulting 
# from the CCDC's data processing and validation procedures.
#
#######################################################################

data_VAYDEG
_symmetry_cell_setting           triclinic
_symmetry_space_group_name_H-M   'P -1'
_symmetry_Int_Tables_number      2
_space_group_name_Hall           '-P 1'
loop_
_symmetry_equiv_pos_site_id
_symmetry_equiv_pos_as_xyz
1 x,y,z
2 -x,-y,-z
_cell_length_a                   7.7858(16)
_cell_length_b                   8.8783(18)
_cell_length_c                   9.1955(18)
_cell_angle_alpha                83.00(3)
_cell_angle_beta                 66.68(3)
_cell_angle_gamma                75.45(3)
_cell_volume                     564.81
loop_
_atom_site_label
_atom_site_type_symbol
_atom_site_fract_x
_atom_site_fract_y
_atom_site_fract_z
Li1 Li 0.2809(6) -0.1334(5) 0.9439(5)
Li2 Li 0.2229(6) 0.5351(4) 0.9911(4)
S1 S 0.14097(7) 0.22874(5) 0.88711(5)
S2 S 0.36810(7) 0.42698(5) 0.26867(5)
O1 O 0.2348(2) 0.09903(18) 0.96069(18)
O2 O 0.3856(2) -0.17662(17) 1.12430(19)
H1 H 0.353(3) -0.248(3) 1.192(3)
H2 H 0.5075(15) -0.194(3) 1.081(3)
O3 O 0.1951(3) 0.37323(19) 0.89004(19)
O5 O -0.0672(2) 0.24952(18) 0.95322(18)
O6 O 0.1790(3) -0.07032(18) 0.75355(18)
H5 H 0.149(4) -0.141(3) 0.720(4)
O7 O 0.3446(3) 0.56601(17) 0.34987(19)
O8 O 0.2279(2) 0.44502(19) 0.19534(19)
O9 O 0.5632(2) 0.37470(18) 0.15529(18)
O10 O 0.3869(3) 0.10635(18) 0.21132(18)
H6 H 0.373(5) 0.019(2) 0.196(4)
C1 C 0.2204(3) 0.1881(2) 0.6853(2)
C2 C 0.2233(3) 0.0417(2) 0.6403(2)
C3 C 0.2779(3) 0.0131(2) 0.4809(2)
H7 H 0.2813 -0.0840 0.4504
C4 C 0.3273(3) 0.1298(2) 0.3673(2)
C5 C 0.3213(3) 0.2770(2) 0.4131(2)
C6 C 0.2711(3) 0.3037(2) 0.5716(2)
H8 H 0.2714 0.3999 0.6018
Li1A Li -0.2809(6) 0.1334(5) 1.0561(5)
Li1A_2 Li 0.7191(6) 0.1334(5) 0.0561(5)
Li2A Li -0.2229(6) 0.4649(4) 1.0089(4)
Li2_2 Li 0.2229(6) 0.5351(4) -0.0089(4)
Li2A_2 Li 0.7771(6) 0.4649(4) 0.0089(4)
O5A O 0.0672(2) -0.24952(18) 1.04678(18)
O5A_2 O 0.0672(2) 0.75048(18) 1.04678(18)
O8_2 O 0.2279(2) 0.44502(19) 1.19534(19)
O9A O 0.4368(2) -0.37470(18) 0.84471(18)
O9A_2 O 0.4368(2) 0.62530(18) 0.84471(18)
O10A O 0.6131(3) -0.10635(18) 0.78868(18)
H6A H 0.627(5) -0.019(2) 0.804(4)
O4 O 0.0980(3) -0.2952(2) 0.6516(2)
H3 H 0.162(4) -0.338(4) 0.563(2)
H4 H 0.005(4) -0.338(4) 0.704(3)
loop_
_geom_bond_atom_site_label_1
_geom_bond_atom_site_label_2
_geom_bond_site_symmetry_1
_geom_bond_site_symmetry_2
Li1 O1 1_555 1_555
Li2 O3 1_555 1_555
S1 O1 1_555 1_555
S2 O7 1_555 1_555
O2 Li1 1_555 1_555
H1 O2 1_555 1_555
H2 O2 1_555 1_555
O3 S1 1_555 1_555
O4 H3 1_555 1_555
H4 O4 1_555 1_555
O5 S1 1_555 1_555
O6 Li1 1_555 1_555
H5 O6 1_555 1_555
O8 S2 1_555 1_555
O9 S2 1_555 1_555
O10 H6 1_555 1_555
C1 S1 1_555 1_555
C2 O6 1_555 1_555
C3 C2 1_555 1_555
H7 C3 1_555 1_555
C4 O10 1_555 1_555
C5 S2 1_555 1_555
C6 C1 1_555 1_555
H8 C6 1_555 1_555
Li1A O5 1_555 1_555
Li1A_2 O9 1_555 1_555
Li2A O5 1_555 1_555
Li2_2 O8 1_555 1_555
Li2A_2 O9 1_555 1_555
O5A Li1 1_555 1_555
O5A_2 Li2 1_555 1_555
O8_2 Li2 1_555 1_555
O9A Li1 1_555 1_555
O9A_2 Li2 1_555 1_555
O10A Li1 1_555 1_555
H6A O10A 1_555 1_555
O10 Li1A_2 1_555 1_555
C1 C2 1_555 1_555
C3 C4 1_555 1_555
C4 C5 1_555 1_555
C5 C6 1_555 1_555

#END
