
#######################################################################
#
#                 Cambridge Crystallographic Data Centre
#                                CCDC 
#
#######################################################################
#
# If this CIF has been generated from an entry in the Cambridge 
# Structural Database, then it will include bibliographic, chemical, 
# crystal, experimental, refinement or atomic coordinate data resulting 
# from the CCDC's data processing and validation procedures.
#
#######################################################################

data_VAYGAF
_symmetry_cell_setting           monoclinic
_symmetry_space_group_name_H-M   'P 2/n'
_symmetry_Int_Tables_number      13
_space_group_name_Hall           '-P 2yac'
loop_
_symmetry_equiv_pos_site_id
_symmetry_equiv_pos_as_xyz
1 x,y,z
2 1/2-x,y,1/2-z
3 -x,-y,-z
4 1/2+x,-y,1/2+z
_cell_length_a                   13.5752(16)
_cell_length_b                   10.2329(12)
_cell_length_c                   31.409(4)
_cell_angle_alpha                90
_cell_angle_beta                 98.1560(10)
_cell_angle_gamma                90
_cell_volume                     4319.01
loop_
_atom_site_label
_atom_site_type_symbol
_atom_site_fract_x
_atom_site_fract_y
_atom_site_fract_z
Co1 Co 0.74044(2) 0.03327(3) 1.080980(11)
Co2 Co 0.7500 -0.90458(5) 0.7500
O1 O 0.57510(16) -0.45231(19) 0.93438(6)
O2 O 0.7706(2) -0.4211(3) 0.91696(9)
O3 O 0.8380(2) -0.6113(3) 0.92013(12)
O4 O 0.67601(16) -0.8922(2) 0.80408(6)
O5 O 0.51062(19) -0.9035(3) 0.79365(9)
O6 O 0.72351(13) -0.14571(17) 1.05122(6)
O7 O 0.76476(18) -0.27447(19) 1.10820(7)
O8 O 0.73932(13) -0.75572(17) 1.09332(6)
O9 O 0.70083(13) -0.83656(17) 1.02835(6)
O10 O 0.78542(14) -0.03874(19) 1.14297(6)
H1 H 0.7417 -0.0204 1.1589
H2 H 0.7891 -0.1177 1.1349
N1 N 0.7668(2) -0.5382(3) 0.91196(10)
N2 N 0.58380(15) 0.0318(2) 1.08723(7)
N3 N -0.10599(15) 0.0363(2) 1.06891(8)
N4 N 0.84103(18) -1.0576(2) 0.78393(8)
N5 N 0.85260(18) -1.7504(2) 0.77869(8)
C1 C 0.5813(2) -0.5515(3) 0.90550(9)
C2 C 0.6714(2) -0.5971(3) 0.89443(9)
C3 C 0.6738(2) -0.6987(3) 0.86553(9)
H3 H 0.7348 -0.7296 0.8595
C4 C 0.5869(2) -0.7550(3) 0.84546(9)
C5 C 0.4978(2) -0.7091(4) 0.85615(10)
H4 H 0.4384 -0.7458 0.8432
C6 C 0.4956(3) -0.6092(3) 0.88591(10)
H5 H 0.4346 -0.5808 0.8927
C7 C 0.5906(3) -0.8595(3) 0.81177(10)
C8 C 0.6237(2) -0.4706(3) 0.97634(9)
C9 C 0.6521(2) -0.3599(3) 1.00027(9)
H6 H 0.6398 -0.2773 0.9883
C10 C 0.69880(19) -0.3729(2) 1.04213(9)
C11 C 0.71647(19) -0.4969(2) 1.05962(9)
H7 H 0.7475 -0.5059 1.0878
C12 C 0.68833(19) -0.6070(2) 1.03542(9)
C13 C 0.6408(2) -0.5942(3) 0.99342(9)
H8 H 0.6207 -0.6678 0.9771
C14 C 0.7315(2) -0.2557(3) 1.06945(10)
C15 C 0.71023(18) -0.7398(2) 1.05346(9)
C16 C 0.5441(2) 0.1041(3) 1.11528(11)
H9 H 0.5870 0.1492 1.1359
C17 C 0.4438(2) 0.1169(4) 1.11588(11)
H10 H 0.4205 0.1694 1.1365
C18 C 0.37750(19) 0.0517(3) 1.08594(9)
C19 C 0.4185(2) -0.0228(3) 1.05684(10)
H11 H 0.3774 -0.0689 1.0358
C20 C 0.5199(2) -0.0301(3) 1.05845(10)
H12 H 0.5452 -0.0816 1.0381
C21 C 0.2671(2) 0.0616(4) 1.08716(10)
H13 H 0.2516 0.0107 1.1114
H14 H 0.2515 0.1521 1.0926
C22 C 0.2007(2) 0.0179(4) 1.04819(11)
H15 H 0.2174 -0.0712 1.0414
H16 H 0.2112 0.0728 1.0241
C23 C -0.0498(2) -0.0680(3) 1.07878(11)
H17 H -0.0780 -0.1387 1.0912
C24 C 0.0476(2) -0.0785(4) 1.07187(11)
H18 H 0.0826 -0.1555 1.0789
C25 C 0.0933(2) 0.0243(3) 1.05453(10)
C26 C 0.0358(2) 0.1346(3) 1.04440(11)
H19 H 0.0630 0.2075 1.0328
C27 C -0.0627(2) 0.1360(3) 1.05169(10)
H20 H -0.1004 0.2105 1.0441
C28 C 0.7990(2) -1.1512(3) 0.80474(10)
H21 H 0.7301 -1.1508 0.8030
C29 C 0.8506(3) -1.2480(3) 0.82851(10)
H22 H 0.8167 -1.3115 0.8418
C30 C 0.9537(2) -1.2507(3) 0.83255(9)
C31 C 0.9970(2) -1.1549(3) 0.81097(11)
H23 H 1.0660 -1.1523 0.8126
C32 C 0.9404(2) -1.0627(3) 0.78705(11)
H24 H 0.9726 -1.0007 0.7723
C33 C 1.0157(3) -1.3513(3) 0.85936(11)
H25 H 0.9745 -1.3938 0.8781
H26 H 1.0693 -1.3070 0.8775
C34 C 1.0607(2) -1.4564(3) 0.83300(13)
H27 H 1.0896 -1.4141 0.8100
H28 H 1.1141 -1.5001 0.8514
C35 C 0.8706(2) -1.6427(3) 0.75677(10)
H29 H 0.8366 -1.6324 0.7291
C36 C 0.9360(2) -1.5470(3) 0.77278(11)
H30 H 0.9458 -1.4747 0.7560
C37 C 0.9871(2) -1.5576(3) 0.81362(11)
C38 C 0.9676(2) -1.6674(3) 0.83641(10)
H31 H 0.9997 -1.6791 0.8643
C39 C 0.9014(2) -1.7593(3) 0.81834(9)
H32 H 0.8899 -1.8319 0.8347
Co1A Co 0.75956(2) 0.03327(3) 0.419020(11)
Co1_2 Co 0.74044(2) -0.96673(3) 1.080980(11)
Co1_3 Co -0.25956(2) 0.03327(3) 1.080980(11)
Co1A_2 Co 0.75956(2) -0.96673(3) 0.419020(11)
Co1_4 Co 1.74044(2) 0.03327(3) 1.080980(11)
Co2_2 Co 0.7500 -1.90458(5) 0.7500
Co2_3 Co 0.7500 0.09542(5) 0.7500
O1A O 0.92490(16) -0.45231(19) 0.56562(6)
O2A O 0.7294(2) -0.4211(3) 0.58304(9)
O3A O 0.6620(2) -0.6113(3) 0.57987(12)
O4A O 0.82399(16) -0.8922(2) 0.69592(6)
O5A O 0.98938(19) -0.9035(3) 0.70635(9)
O6A O 0.77649(13) -0.14571(17) 0.44878(6)
O7A O 0.73524(18) -0.27447(19) 0.39180(7)
O8A O 0.76068(13) -0.75572(17) 0.40668(6)
O8_2 O 0.73932(13) 0.24428(17) 1.09332(6)
O8A_2 O 0.76068(13) 0.24428(17) 0.40668(6)
O9A O 0.79917(13) -0.83656(17) 0.47165(6)
O9_2 O 0.70083(13) 0.16344(17) 1.02835(6)
O9A_2 O 0.79917(13) 0.16344(17) 0.47165(6)
O10A O 0.71458(14) -0.03874(19) 0.35703(6)
H1A H 0.7583 -0.0204 0.3411
H2A H 0.7109 -0.1177 0.3651
N1A N 0.7332(2) -0.5382(3) 0.58804(10)
N2_2 N 1.58380(15) 0.0318(2) 1.08723(7)
N2A N 0.91620(15) 0.0318(2) 0.41277(7)
N3_2 N 0.89401(15) 0.0363(2) 1.06891(8)
N3A N 0.60599(15) 0.0363(2) 0.43109(8)
N4_2 N 0.84103(18) -0.0576(2) 0.78393(8)
N4A N 0.65897(18) -1.0576(2) 0.71607(8)
N5_2 N 0.85260(18) -0.7504(2) 0.77869(8)
N5A N 0.64740(18) -0.7504(2) 0.72131(8)
C1A C 0.9187(2) -0.5515(3) 0.59450(9)
C2A C 0.8286(2) -0.5971(3) 0.60557(9)
C3A C 0.8262(2) -0.6987(3) 0.63447(9)
H3A H 0.7652 -0.7296 0.6405
C4A C 0.9131(2) -0.7550(3) 0.65454(9)
C5A C 1.0022(2) -0.7091(4) 0.64385(10)
H4A H 1.0616 -0.7458 0.6568
C6A C 1.0044(3) -0.6092(3) 0.61409(10)
H5A H 1.0654 -0.5808 0.6073
C7A C 0.9094(3) -0.8595(3) 0.68823(10)
C8A C 0.8763(2) -0.4706(3) 0.52366(9)
C9A C 0.8479(2) -0.3599(3) 0.49973(9)
H6A H 0.8602 -0.2773 0.5117
C10A C 0.80120(19) -0.3729(2) 0.45787(9)
C11A C 0.78353(19) -0.4969(2) 0.44038(9)
H7A H 0.7525 -0.5059 0.4122
C12A C 0.81167(19) -0.6070(2) 0.46458(9)
C13A C 0.8592(2) -0.5942(3) 0.50658(9)
H8A H 0.8793 -0.6678 0.5229
C14A C 0.7685(2) -0.2557(3) 0.43055(10)
C15A C 0.78977(18) -0.7398(2) 0.44654(9)
C16_2 C 1.5441(2) 0.1041(3) 1.11528(11)
H9_2 H 1.5870 0.1492 1.1359
C17_2 C 1.4438(2) 0.1169(4) 1.11588(11)
H10_2 H 1.4205 0.1694 1.1365
C18_2 C 1.37750(19) 0.0517(3) 1.08594(9)
C19_2 C 1.4185(2) -0.0228(3) 1.05684(10)
H11_2 H 1.3774 -0.0689 1.0358
C20_2 C 1.5199(2) -0.0301(3) 1.05845(10)
H12_2 H 1.5452 -0.0816 1.0381
C21_2 C 1.2671(2) 0.0616(4) 1.08716(10)
H13_2 H 1.2516 0.0107 1.1114
H14_2 H 1.2515 0.1521 1.0926
C22_2 C 1.2007(2) 0.0179(4) 1.04819(11)
H15_2 H 1.2174 -0.0712 1.0414
H16_2 H 1.2112 0.0728 1.0241
C23_2 C 0.9502(2) -0.0680(3) 1.07878(11)
H17_2 H 0.9220 -0.1387 1.0912
C24_2 C 1.0476(2) -0.0785(4) 1.07187(11)
H18_2 H 1.0826 -0.1555 1.0789
C25_2 C 1.0933(2) 0.0243(3) 1.05453(10)
C26_2 C 1.0358(2) 0.1346(3) 1.04440(11)
H19_2 H 1.0630 0.2075 1.0328
C27_2 C 0.9373(2) 0.1360(3) 1.05169(10)
H20_2 H 0.8996 0.2105 1.0441
C28_2 C 0.7990(2) -0.1512(3) 0.80474(10)
H21_2 H 0.7301 -0.1508 0.8030
C29_2 C 0.8506(3) -0.2480(3) 0.82851(10)
H22_2 H 0.8167 -0.3115 0.8418
C30_2 C 0.9537(2) -0.2507(3) 0.83255(9)
C31_2 C 0.9970(2) -0.1549(3) 0.81097(11)
H23_2 H 1.0660 -0.1523 0.8126
C32_2 C 0.9404(2) -0.0627(3) 0.78705(11)
H24_2 H 0.9726 -0.0007 0.7723
C33_2 C 1.0157(3) -0.3513(3) 0.85936(11)
H25_2 H 0.9745 -0.3938 0.8781
H26_2 H 1.0693 -0.3070 0.8775
C34_2 C 1.0607(2) -0.4564(3) 0.83300(13)
H27_2 H 1.0896 -0.4141 0.8100
H28_2 H 1.1141 -0.5001 0.8514
C35_2 C 0.8706(2) -0.6427(3) 0.75677(10)
H29_2 H 0.8366 -0.6324 0.7291
C36_2 C 0.9360(2) -0.5470(3) 0.77278(11)
H30_2 H 0.9458 -0.4747 0.7560
C37_2 C 0.9871(2) -0.5576(3) 0.81362(11)
C38_2 C 0.9676(2) -0.6674(3) 0.83641(10)
H31_2 H 0.9997 -0.6791 0.8643
C39_2 C 0.9014(2) -0.7593(3) 0.81834(9)
H32_2 H 0.8899 -0.8319 0.8347
loop_
_geom_bond_atom_site_label_1
_geom_bond_atom_site_label_2
_geom_bond_site_symmetry_1
_geom_bond_site_symmetry_2
Co1 O6 1_555 1_555
Co2 O4 1_555 1_555
O1 C1 1_555 1_555
O2 N1 1_555 1_555
O3 N1 1_555 1_555
O4 C7 1_555 1_555
O5 C7 1_555 1_555
O6 C14 1_555 1_555
O7 C14 1_555 1_555
O8 C15 1_555 1_555
O9 C15 1_555 1_555
O10 Co1 1_555 1_555
H1 O10 1_555 1_555
H2 O10 1_555 1_555
N1 C2 1_555 1_555
N2 Co1 1_555 1_555
N3 C23 1_555 1_555
N4 Co2 1_555 1_555
N5 C35 1_555 1_555
C1 C2 1_555 1_555
C2 C3 1_555 1_555
C3 H3 1_555 1_555
C4 C3 1_555 1_555
C5 C4 1_555 1_555
H4 C5 1_555 1_555
C6 C1 1_555 1_555
H5 C6 1_555 1_555
C7 C4 1_555 1_555
C8 O1 1_555 1_555
C9 C8 1_555 1_555
H6 C9 1_555 1_555
C10 C9 1_555 1_555
C11 C10 1_555 1_555
H7 C11 1_555 1_555
C12 C11 1_555 1_555
C13 C8 1_555 1_555
H8 C13 1_555 1_555
C14 C10 1_555 1_555
C15 C12 1_555 1_555
C16 N2 1_555 1_555
H9 C16 1_555 1_555
C17 C16 1_555 1_555
H10 C17 1_555 1_555
C18 C17 1_555 1_555
C19 C18 1_555 1_555
H11 C19 1_555 1_555
C20 N2 1_555 1_555
H12 C20 1_555 1_555
C21 C18 1_555 1_555
H13 C21 1_555 1_555
H14 C21 1_555 1_555
C22 C21 1_555 1_555
H15 C22 1_555 1_555
H16 C22 1_555 1_555
C23 H17 1_555 1_555
C24 C23 1_555 1_555
H18 C24 1_555 1_555
C25 C22 1_555 1_555
C26 C25 1_555 1_555
H19 C26 1_555 1_555
C27 N3 1_555 1_555
H20 C27 1_555 1_555
C28 N4 1_555 1_555
H21 C28 1_555 1_555
C29 C28 1_555 1_555
H22 C29 1_555 1_555
C30 C29 1_555 1_555
C31 C30 1_555 1_555
H23 C31 1_555 1_555
C32 N4 1_555 1_555
H24 C32 1_555 1_555
C33 C30 1_555 1_555
H25 C33 1_555 1_555
H26 C33 1_555 1_555
C34 C33 1_555 1_555
H27 C34 1_555 1_555
H28 C34 1_555 1_555
C35 H29 1_555 1_555
C36 C35 1_555 1_555
H30 C36 1_555 1_555
C37 C34 1_555 1_555
C38 C37 1_555 1_555
H31 C38 1_555 1_555
C39 N5 1_555 1_555
H32 C39 1_555 1_555
Co1A O6A 1_555 1_555
Co1_2 O8 1_555 1_555
Co1_3 N3 1_555 1_555
Co1A_2 O8A 1_555 1_555
Co1_4 N2_2 1_555 1_555
Co2_2 N5 1_555 1_555
Co2_3 N4_2 1_555 1_555
O1A C1A 1_555 1_555
O2A N1A 1_555 1_555
O3A N1A 1_555 1_555
O4A Co2 1_555 1_555
O5A C7A 1_555 1_555
O6A C14A 1_555 1_555
O7A C14A 1_555 1_555
O8A C15A 1_555 1_555
O8_2 Co1 1_555 1_555
O8A_2 Co1A 1_555 1_555
O9A Co1A_2 1_555 1_555
O9_2 Co1 1_555 1_555
O9A_2 Co1A 1_555 1_555
O10A Co1A 1_555 1_555
H1A O10A 1_555 1_555
H2A O10A 1_555 1_555
N1A C2A 1_555 1_555
N2_2 C16_2 1_555 1_555
N2A Co1A 1_555 1_555
N3_2 Co1 1_555 1_555
N3A Co1A 1_555 1_555
N4_2 C28_2 1_555 1_555
N4A Co2 1_555 1_555
N5_2 Co2 1_555 1_555
N5A Co2 1_555 1_555
C1A C2A 1_555 1_555
C2A C3A 1_555 1_555
C3A H3A 1_555 1_555
C4A C3A 1_555 1_555
C5A C4A 1_555 1_555
H4A C5A 1_555 1_555
C6A C1A 1_555 1_555
H5A C6A 1_555 1_555
C7A O4A 1_555 1_555
C8A O1A 1_555 1_555
C9A C8A 1_555 1_555
H6A C9A 1_555 1_555
C10A C9A 1_555 1_555
C11A C10A 1_555 1_555
H7A C11A 1_555 1_555
C12A C11A 1_555 1_555
C13A C8A 1_555 1_555
H8A C13A 1_555 1_555
C14A C10A 1_555 1_555
C15A O9A 1_555 1_555
C16_2 H9_2 1_555 1_555
C17_2 C16_2 1_555 1_555
H10_2 C17_2 1_555 1_555
C18_2 C17_2 1_555 1_555
C19_2 C18_2 1_555 1_555
H11_2 C19_2 1_555 1_555
C20_2 N2_2 1_555 1_555
H12_2 C20_2 1_555 1_555
C21_2 C18_2 1_555 1_555
H13_2 C21_2 1_555 1_555
H14_2 C21_2 1_555 1_555
C22_2 C21_2 1_555 1_555
H15_2 C22_2 1_555 1_555
H16_2 C22_2 1_555 1_555
C23_2 N3_2 1_555 1_555
H17_2 C23_2 1_555 1_555
C24_2 C23_2 1_555 1_555
H18_2 C24_2 1_555 1_555
C25_2 C22_2 1_555 1_555
C26_2 C25_2 1_555 1_555
H19_2 C26_2 1_555 1_555
C27_2 N3_2 1_555 1_555
H20_2 C27_2 1_555 1_555
C28_2 H21_2 1_555 1_555
C29_2 C28_2 1_555 1_555
H22_2 C29_2 1_555 1_555
C30_2 C29_2 1_555 1_555
C31_2 C30_2 1_555 1_555
H23_2 C31_2 1_555 1_555
C32_2 N4_2 1_555 1_555
H24_2 C32_2 1_555 1_555
C33_2 C30_2 1_555 1_555
H25_2 C33_2 1_555 1_555
H26_2 C33_2 1_555 1_555
C34_2 C33_2 1_555 1_555
H27_2 C34_2 1_555 1_555
H28_2 C34_2 1_555 1_555
C35_2 N5_2 1_555 1_555
H29_2 C35_2 1_555 1_555
C36_2 C35_2 1_555 1_555
H30_2 C36_2 1_555 1_555
C37_2 C34_2 1_555 1_555
C38_2 C37_2 1_555 1_555
H31_2 C38_2 1_555 1_555
C39_2 N5_2 1_555 1_555
H32_2 C39_2 1_555 1_555
O9 Co1_2 1_555 1_555
C5 C6 1_555 1_555
C12 C13 1_555 1_555
C19 C20 1_555 1_555
C24 C25 1_555 1_555
C26 C27 1_555 1_555
C31 C32 1_555 1_555
C36 C37 1_555 1_555
C38 C39 1_555 1_555
C4A C7A 1_555 1_555
C5A C6A 1_555 1_555
C12A C13A 1_555 1_555
C12A C15A 1_555 1_555
C19_2 C20_2 1_555 1_555
C24_2 C25_2 1_555 1_555
C26_2 C27_2 1_555 1_555
C31_2 C32_2 1_555 1_555
C36_2 C37_2 1_555 1_555
C38_2 C39_2 1_555 1_555

#END
