
#######################################################################
#
#                 Cambridge Crystallographic Data Centre
#                                CCDC 
#
#######################################################################
#
# If this CIF has been generated from an entry in the Cambridge 
# Structural Database, then it will include bibliographic, chemical, 
# crystal, experimental, refinement or atomic coordinate data resulting 
# from the CCDC's data processing and validation procedures.
#
#######################################################################

data_VAYGOT
_symmetry_cell_setting           monoclinic
_symmetry_space_group_name_H-M   'P 21'
_symmetry_Int_Tables_number      4
_space_group_name_Hall           'P 2yb'
loop_
_symmetry_equiv_pos_site_id
_symmetry_equiv_pos_as_xyz
1 x,y,z
2 -x,1/2+y,-z
_cell_length_a                   11.6891(8)
_cell_length_b                   14.1824(13)
_cell_length_c                   12.0379(8)
_cell_angle_alpha                90
_cell_angle_beta                 92.574(6)
_cell_angle_gamma                90
_cell_volume                     1993.62
loop_
_atom_site_label
_atom_site_type_symbol
_atom_site_fract_x
_atom_site_fract_y
_atom_site_fract_z
Cu1 Cu 0.79789(11) 0.57853(10) 0.07155(10)
Cu2 Cu 0.44826(11) 0.34083(10) 0.29141(10)
F1 F 1.0028(6) 0.3508(8) 0.1785(7)
F2 F 0.6709(8) 0.6138(7) -0.4926(6)
N1 N 0.6836(9) 0.6690(8) 0.1398(8)
N2 N -0.0484(10) 0.6473(10) 0.1238(10)
N3 N 0.3813(9) 0.4095(8) 0.4180(8)
N4 N 0.3687(9) 0.4366(9) 1.1691(8)
O1 O 0.6073(7) 0.3874(7) 0.3267(7)
O2 O 0.6103(10) 0.2700(9) 0.4525(9)
O3 O 0.8065(7) 0.4889(7) 0.1940(7)
O4 O 0.7177(6) 0.3633(6) 0.1142(6)
O5 O 0.7883(12) 0.6276(10) -0.0841(9)
O6 O 0.8738(11) 0.4975(9) -0.0573(9)
O7 O 0.6739(7) 0.7387(6) -0.2946(7)
O8 O 0.5799(8) 0.6169(7) -0.2247(8)
O9 O 0.6622(13) 0.5209(13) -0.0065(13)
H1 H 0.6727 0.4629 0.0082
H2 H 0.6390 0.5265 -0.0741
O10 O 0.5165(7) 0.2739(7) 0.1630(7)
H3 H 0.5871 0.2836 0.1532
H4 H 0.5078 0.2169 0.1830
C1 C 0.6572(10) 0.3247(10) 0.3867(9)
C2 C 0.7784(10) 0.4012(9) 0.1878(9)
C3 C 0.7844(10) 0.3123(9) 0.3743(9)
C4 C 0.8363(8) 0.3428(10) 0.2787(8)
C5 C 0.9505(10) 0.3206(10) 0.2713(10)
C6 C 1.0131(11) 0.2664(11) 0.3491(13)
H5 H 1.0884 0.2493 0.3372
C7 C 0.9618(13) 0.2393(12) 0.4417(13)
H6 H 1.0029 0.2074 0.4978
C8 C 0.8481(12) 0.2595(11) 0.4523(12)
H7 H 0.8120 0.2369 0.5143
C9 C 0.8405(16) 0.5597(14) -0.1244(13)
C10 C 0.6604(11) 0.6535(9) -0.2701(10)
C11 C 0.8346(12) 0.5474(9) -0.2450(11)
C12 C 0.7530(10) 0.5897(9) -0.3145(9)
C13 C 0.7558(11) 0.5753(11) -0.4294(9)
C14 C 0.8348(13) 0.5190(11) -0.4769(12)
H8 H 0.8337 0.5086 -0.5532
C15 C 0.9178(13) 0.4777(12) -0.4044(15)
H9 H 0.9748 0.4413 -0.4347
C16 C 0.9191(12) 0.4881(11) -0.2945(15)
H10 H 0.9741 0.4573 -0.2496
C17 C 0.6525(11) 0.6611(11) 0.2452(10)
H11 H 0.6828 0.6120 0.2884
C18 C 0.5776(11) 0.7225(11) 0.2920(11)
H12 H 0.5594 0.7148 0.3659
C19 C 0.5290(10) 0.7958(9) 0.2300(10)
C20 C 0.5637(11) 0.8027(10) 0.1204(11)
H13 H 0.5342 0.8509 0.0751
C21 C 0.6371(12) 0.7426(11) 0.0799(11)
H14 H 0.6584 0.7506 0.0070
C22 C 0.0214(13) 0.6155(15) 0.2099(14)
H15 H -0.0012 0.5647 0.2525
C23 C 0.1268(16) 0.6593(17) 0.2343(18)
H16 H 0.1722 0.6383 0.2947
C24 C 0.1653(15) 0.7336(17) 0.1700(19)
C25 C 0.0904(17) 0.7673(17) 0.0869(18)
H17 H 0.1113 0.8184 0.0440
C26 C -0.0145(16) 0.7255(15) 0.0677(15)
H18 H -0.0648 0.7516 0.0141
C27 C 0.4394(10) 0.8585(10) 0.2771(11)
H19 H 0.4370 0.9174 0.2362
H20 H 0.4614 0.8727 0.3539
C28 C 0.3201(12) 0.8151(13) 0.2723(14)
H21 H 0.3208 0.7602 0.3204
H22 H 0.2669 0.8603 0.3015
C29 C 0.2773(14) 0.7862(14) 0.1591(15)
H23 H 0.3330 0.7457 0.1253
H24 H 0.2653 0.8413 0.1124
C30 C 0.4210(13) 0.4961(11) 0.4463(12)
H25 H 0.4779 0.5225 0.4046
C31 C 0.3832(14) 0.5446(13) 0.5297(13)
H26 H 0.4141 0.6039 0.5451
C32 C 0.3012(14) 0.5113(13) 0.5936(14)
C33 C 0.2611(14) 0.4187(13) 0.5699(13)
H27 H 0.2074 0.3905 0.6139
C34 C 0.3024(11) 0.3721(11) 0.4816(11)
H28 H 0.2748 0.3120 0.4650
C35 C 0.4301(13) 0.5012(11) 1.1165(11)
H29 H 0.5060 0.5117 1.1397
C36 C 0.3825(13) 0.5524(10) 1.0281(11)
H30 H 0.4276 0.5959 0.9922
C37 C 0.2714(12) 0.5406(10) 0.9924(10)
C38 C 0.2084(11) 0.4739(11) 1.0460(10)
H31 H 0.1329 0.4615 1.0229
C39 C 0.2589(12) 0.4264(10) 1.1337(11)
H32 H 0.2142 0.3840 1.1715
C40 C 0.2434(15) 0.5719(15) 0.6771(13)
H33 H 0.1612 0.5718 0.6619
H34 H 0.2706 0.6364 0.6726
C41 C 0.2710(18) 0.5327(16) 0.7916(14)
H35 H 0.3536 0.5281 0.8018
H36 H 0.2404 0.4693 0.7946
C42 C 0.2257(16) 0.5891(15) 0.8901(11)
H37 H 0.2524 0.6538 0.8883
H38 H 0.1427 0.5892 0.8872
Cu1_2 Cu -0.20211(11) 0.57853(10) 0.07155(10)
Cu2_2 Cu 0.44826(11) 0.34083(10) 1.29141(10)
Cu2A Cu 0.55174(11) 0.84083(10) -0.29141(10)
N2_2 N 0.9516(10) 0.6473(10) 0.1238(10)
N4_2 N 0.3687(9) 0.4366(9) 0.1691(8)
O7A O 0.3261(7) 0.2387(6) 0.2946(7)
loop_
_geom_bond_atom_site_label_1
_geom_bond_atom_site_label_2
_geom_bond_site_symmetry_1
_geom_bond_site_symmetry_2
Cu1 N1 1_555 1_555
Cu2 N3 1_555 1_555
F1 C5 1_555 1_555
F2 C13 1_555 1_555
N1 C17 1_555 1_555
N2 C22 1_555 1_555
N3 C30 1_555 1_555
N4 C35 1_555 1_555
O1 Cu2 1_555 1_555
O2 C1 1_555 1_555
O3 Cu1 1_555 1_555
O4 C2 1_555 1_555
O5 Cu1 1_555 1_555
O6 Cu1 1_555 1_555
O7 C10 1_555 1_555
O8 C10 1_555 1_555
O9 Cu1 1_555 1_555
H1 O9 1_555 1_555
H2 O9 1_555 1_555
O10 Cu2 1_555 1_555
H3 O10 1_555 1_555
H4 O10 1_555 1_555
C1 O1 1_555 1_555
C2 O3 1_555 1_555
C3 C1 1_555 1_555
C4 C2 1_555 1_555
C5 C4 1_555 1_555
C6 C5 1_555 1_555
H5 C6 1_555 1_555
C7 C6 1_555 1_555
H6 C7 1_555 1_555
C8 C3 1_555 1_555
H7 C8 1_555 1_555
C9 O5 1_555 1_555
C10 C12 1_555 1_555
C11 C9 1_555 1_555
C12 C11 1_555 1_555
C13 C12 1_555 1_555
C14 C13 1_555 1_555
H8 C14 1_555 1_555
C15 C14 1_555 1_555
H9 C15 1_555 1_555
C16 C11 1_555 1_555
H10 C16 1_555 1_555
C17 H11 1_555 1_555
C18 C17 1_555 1_555
H12 C18 1_555 1_555
C19 C18 1_555 1_555
C20 C19 1_555 1_555
H13 C20 1_555 1_555
C21 N1 1_555 1_555
H14 C21 1_555 1_555
C22 H15 1_555 1_555
C23 C22 1_555 1_555
H16 C23 1_555 1_555
C24 C23 1_555 1_555
C25 C24 1_555 1_555
H17 C25 1_555 1_555
C26 N2 1_555 1_555
H18 C26 1_555 1_555
C27 C19 1_555 1_555
H19 C27 1_555 1_555
H20 C27 1_555 1_555
C28 C27 1_555 1_555
H21 C28 1_555 1_555
H22 C28 1_555 1_555
C29 C24 1_555 1_555
H23 C29 1_555 1_555
H24 C29 1_555 1_555
C30 H25 1_555 1_555
C31 C30 1_555 1_555
H26 C31 1_555 1_555
C32 C31 1_555 1_555
C33 C32 1_555 1_555
H27 C33 1_555 1_555
C34 N3 1_555 1_555
H28 C34 1_555 1_555
C35 H29 1_555 1_555
C36 C35 1_555 1_555
H30 C36 1_555 1_555
C37 C36 1_555 1_555
C38 C37 1_555 1_555
H31 C38 1_555 1_555
C39 N4 1_555 1_555
H32 C39 1_555 1_555
C40 C32 1_555 1_555
H33 C40 1_555 1_555
H34 C40 1_555 1_555
C41 C40 1_555 1_555
H35 C41 1_555 1_555
H36 C41 1_555 1_555
C42 C37 1_555 1_555
H37 C42 1_555 1_555
H38 C42 1_555 1_555
Cu1_2 N2 1_555 1_555
Cu2_2 N4 1_555 1_555
Cu2A O7 1_555 1_555
N2_2 Cu1 1_555 1_555
N4_2 Cu2 1_555 1_555
O7A Cu2 1_555 1_555
O6 C9 1_555 1_555
C3 C4 1_555 1_555
C7 C8 1_555 1_555
C15 C16 1_555 1_555
C20 C21 1_555 1_555
C25 C26 1_555 1_555
C28 C29 1_555 1_555
C33 C34 1_555 1_555
C38 C39 1_555 1_555
C41 C42 1_555 1_555

#END
