
#######################################################################
#
#                 Cambridge Crystallographic Data Centre
#                                CCDC 
#
#######################################################################
#
# If this CIF has been generated from an entry in the Cambridge 
# Structural Database, then it will include bibliographic, chemical, 
# crystal, experimental, refinement or atomic coordinate data resulting 
# from the CCDC's data processing and validation procedures.
#
#######################################################################

data_VAYHAG
_symmetry_cell_setting           monoclinic
_symmetry_space_group_name_H-M   'P 21'
_symmetry_Int_Tables_number      4
_space_group_name_Hall           'P 2yb'
loop_
_symmetry_equiv_pos_site_id
_symmetry_equiv_pos_as_xyz
1 x,y,z
2 -x,1/2+y,-z
_cell_length_a                   11.5530(17)
_cell_length_b                   14.240(2)
_cell_length_c                   12.0157(18)
_cell_angle_alpha                90
_cell_angle_beta                 95.639(3)
_cell_angle_gamma                90
_cell_volume                     1967.19
loop_
_atom_site_label
_atom_site_type_symbol
_atom_site_fract_x
_atom_site_fract_y
_atom_site_fract_z
C1 C 0.7054(6) 0.0445(5) 0.0101(5)
H1 H 0.7349 0.1041 0.0275
C2 C 0.7531(6) -0.0068(5) -0.0729(5)
H2 H 0.8130 0.0186 -0.1098
C3 C 0.7114(6) -0.0949(5) -0.0999(5)
C4 C 0.6221(6) -0.1289(5) -0.0412(5)
H3 H 0.5920 -0.1886 -0.0560
C5 C 0.5789(6) -0.0736(4) 0.0386(5)
H4 H 0.5182 -0.0972 0.0755
C6 C 0.7590(6) -0.1506(5) -0.1899(5)
H5 H 0.7282 -0.2140 -0.1893
H6 H 0.8429 -0.1544 -0.1749
C7 C 0.7288(6) -0.1080(5) -0.3040(5)
H7 H 0.7559 -0.0435 -0.3022
H8 H 0.6448 -0.1066 -0.3190
C8 C 0.7789(6) -0.1583(6) -0.4012(5)
H9 H 0.8632 -0.1554 -0.3917
H10 H 0.7559 -0.2238 -0.4027
C9 C 0.7347(6) -0.1121(5) -0.5073(5)
C10 C 0.6217(6) -0.1286(4) -0.5551(5)
H11 H 0.5784 -0.1772 -0.5282
C11 C 0.5737(6) -0.0736(5) -0.6418(6)
H12 H 0.4976 -0.0853 -0.6714
C12 C 0.7424(6) 0.0120(5) -0.6414(6)
H13 H 0.7845 0.0598 -0.6714
C13 C 0.7955(6) -0.0397(5) -0.5537(5)
H14 H 0.8716 -0.0263 -0.5255
C14 C 0.3392(5) 0.0886(5) 0.1248(5)
C15 C 0.2120(5) 0.1104(4) 0.1270(5)
C16 C 0.1516(6) 0.1591(5) 0.0405(6)
H15 H 0.1883 0.1746 -0.0226
C17 C 0.0347(6) 0.1857(5) 0.0467(7)
H16 H -0.0056 0.2177 -0.0125
C18 C -0.0195(7) 0.1644(5) 0.1402(7)
H17 H -0.0965 0.1813 0.1457
C19 C 0.0438(6) 0.1173(5) 0.2254(6)
C20 C 0.1576(5) 0.0867(5) 0.2227(5)
C21 C 0.2146(6) 0.0297(5) 0.3196(6)
C22 C 0.6657(6) 0.2761(5) 0.2204(5)
C23 C 0.7587(5) 0.3357(4) 0.1752(5)
C24 C 0.7539(5) 0.3529(5) 0.0612(5)
C25 C 0.8332(6) 0.4049(5) 0.0107(6)
H18 H 0.8274 0.4118 -0.0666
C26 C 0.9222(6) 0.4467(5) 0.0778(6)
H19 H 0.9764 0.4837 0.0458
C27 C 0.9313(6) 0.4339(5) 0.1938(6)
H20 H 0.9915 0.4621 0.2389
C28 C 0.8496(6) 0.3786(4) 0.2414(5)
C29 C 0.8595(5) 0.3627(5) 0.3669(5)
C30 C 1.6872(6) 0.2516(5) 0.7388(5)
H21 H 1.7230 0.2982 0.7843
C31 C 1.6113(6) 0.1924(4) 0.7837(6)
H22 H 1.5964 0.2000 0.8579
C32 C 1.5559(5) 0.1206(4) 0.7198(5)
C33 C 1.5813(6) 0.1154(5) 0.6080(6)
H23 H 1.5461 0.0700 0.5604
C34 C 1.6590(6) 0.1784(5) 0.5693(6)
H24 H 1.6750 0.1735 0.4952
C35 C 1.4686(6) 0.0582(5) 0.7646(6)
H25 H 1.4773 0.0614 0.8457
H26 H 1.4831 -0.0061 0.7433
C36 C 1.3449(5) 0.0849(5) 0.7219(5)
H27 H 1.2916 0.0391 0.7480
H28 H 1.3368 0.0833 0.6408
C37 C 1.3123(5) 0.1826(5) 0.7610(5)
H29 H 1.3184 0.1827 0.8421
H30 H 1.3688 0.2272 0.7381
C38 C 1.1914(6) 0.2167(5) 0.7179(5)
C39 C 1.1442(6) 0.2958(5) 0.7648(5)
H31 H 1.1847 0.3253 0.8258
C40 C 1.0385(6) 0.3301(5) 0.7214(5)
H32 H 1.0092 0.3829 0.7544
C41 C 1.0196(6) 0.2130(5) 0.5903(6)
H33 H 0.9764 0.1834 0.5310
C42 C 1.1255(6) 0.1747(5) 0.6294(6)
H34 H 1.1524 0.1209 0.5964
Co1 Co 0.54698(7) 0.08663(6) 0.19481(7)
Co2 Co 0.81556(8) 0.34705(6) 0.56184(7)
F1 F -0.0086(3) 0.0955(3) 0.3185(4)
F2 F 0.6639(4) 0.3133(3) -0.0043(3)
N1 N 0.6187(5) 0.0118(4) 0.0662(4)
N2 N 0.6330(5) -0.0032(4) -0.6855(4)
N3 N 1.7127(5) 0.2462(4) 0.6323(5)
N4 N 0.9753(5) 0.2915(4) 0.6339(5)
O1 O 0.3806(4) 0.0169(3) 0.1785(3)
O2 O 0.4028(4) 0.1447(3) 0.0790(4)
O3 O 0.1810(4) -0.0555(3) 0.3174(4)
O4 O 0.2810(4) 0.0690(3) 0.3937(3)
O5 O 0.4795(4) 0.1579(3) 0.3314(4)
H35 H 0.484(5) 0.2163(17) 0.320(6)
H36 H 0.415(3) 0.143(4) 0.354(6)
O6 O 0.6652(4) 0.1909(3) 0.1887(4)
O7 O 0.5937(4) 0.3152(3) 0.2766(3)
O8 O 0.8250(4) 0.2858(3) 0.4035(4)
O9 O 0.8975(4) 0.4281(3) 0.4305(4)
O10 O 0.6507(4) 0.4061(3) 0.4902(4)
H37 H 0.658(6) 0.4645(17) 0.502(5)
H38 H 0.630(6) 0.396(4) 0.422(2)
Co1_2 Co 0.54698(7) 0.08663(6) -0.80519(7)
Co2_2 Co 1.81556(8) 0.34705(6) 0.56184(7)
Co2A Co 0.18444(8) -0.15295(6) 0.43816(7)
N2_2 N 0.6330(5) -0.0032(4) 0.3145(4)
N3_2 N 0.7127(5) 0.2462(4) 0.6323(5)
O3A O 0.8190(4) 0.4445(3) 0.6826(4)
loop_
_geom_bond_atom_site_label_1
_geom_bond_atom_site_label_2
_geom_bond_site_symmetry_1
_geom_bond_site_symmetry_2
C1 H1 1_555 1_555
C2 C1 1_555 1_555
H2 C2 1_555 1_555
C3 C2 1_555 1_555
C4 C3 1_555 1_555
H3 C4 1_555 1_555
C5 C4 1_555 1_555
H4 C5 1_555 1_555
C6 C3 1_555 1_555
H5 C6 1_555 1_555
H6 C6 1_555 1_555
C7 C6 1_555 1_555
H7 C7 1_555 1_555
H8 C7 1_555 1_555
C8 C7 1_555 1_555
H9 C8 1_555 1_555
H10 C8 1_555 1_555
C9 C8 1_555 1_555
C10 C9 1_555 1_555
H11 C10 1_555 1_555
C11 C10 1_555 1_555
H12 C11 1_555 1_555
C12 H13 1_555 1_555
C13 C9 1_555 1_555
H14 C13 1_555 1_555
C14 C15 1_555 1_555
C15 C16 1_555 1_555
C16 H15 1_555 1_555
C17 C16 1_555 1_555
H16 C17 1_555 1_555
C18 C17 1_555 1_555
H17 C18 1_555 1_555
C19 C18 1_555 1_555
C20 C15 1_555 1_555
C21 C20 1_555 1_555
C22 C23 1_555 1_555
C23 C24 1_555 1_555
C24 C25 1_555 1_555
C25 H18 1_555 1_555
C26 C25 1_555 1_555
H19 C26 1_555 1_555
C27 C26 1_555 1_555
H20 C27 1_555 1_555
C28 C23 1_555 1_555
C29 C28 1_555 1_555
C30 H21 1_555 1_555
C31 C30 1_555 1_555
H22 C31 1_555 1_555
C32 C31 1_555 1_555
C33 C32 1_555 1_555
H23 C33 1_555 1_555
C34 C33 1_555 1_555
H24 C34 1_555 1_555
C35 C32 1_555 1_555
H25 C35 1_555 1_555
H26 C35 1_555 1_555
C36 C35 1_555 1_555
H27 C36 1_555 1_555
H28 C36 1_555 1_555
C37 C36 1_555 1_555
H29 C37 1_555 1_555
H30 C37 1_555 1_555
C38 C37 1_555 1_555
C39 C38 1_555 1_555
H31 C39 1_555 1_555
C40 C39 1_555 1_555
H32 C40 1_555 1_555
C41 H33 1_555 1_555
C42 C38 1_555 1_555
H34 C42 1_555 1_555
Co1 N1 1_555 1_555
Co2 N4 1_555 1_555
F1 C19 1_555 1_555
F2 C24 1_555 1_555
N1 C1 1_555 1_555
N2 C11 1_555 1_555
N3 C30 1_555 1_555
N4 C40 1_555 1_555
O1 C14 1_555 1_555
O2 C14 1_555 1_555
O3 C21 1_555 1_555
O4 C21 1_555 1_555
O5 Co1 1_555 1_555
H35 O5 1_555 1_555
H36 O5 1_555 1_555
O6 C22 1_555 1_555
O7 C22 1_555 1_555
O8 C29 1_555 1_555
O9 C29 1_555 1_555
O10 Co2 1_555 1_555
H37 O10 1_555 1_555
H38 O10 1_555 1_555
Co1_2 N2 1_555 1_555
Co2_2 N3 1_555 1_555
Co2A O3 1_555 1_555
N2_2 Co1 1_555 1_555
N3_2 Co2 1_555 1_555
O3A Co2 1_555 1_555
C5 N1 1_555 1_555
C12 C13 1_555 1_555
C12 N2 1_555 1_555
C19 C20 1_555 1_555
C27 C28 1_555 1_555
C34 N3 1_555 1_555
C41 C42 1_555 1_555
C41 N4 1_555 1_555
Co1 O1 1_555 1_555
Co1 O2 1_555 1_555
Co1 O6 1_555 1_555
Co2 O8 1_555 1_555
Co2 O9 1_555 1_555

#END
