
#######################################################################
#
#                 Cambridge Crystallographic Data Centre
#                                CCDC 
#
#######################################################################
#
# If this CIF has been generated from an entry in the Cambridge 
# Structural Database, then it will include bibliographic, chemical, 
# crystal, experimental, refinement or atomic coordinate data resulting 
# from the CCDC's data processing and validation procedures.
#
#######################################################################

data_VAYSUK
_symmetry_cell_setting           monoclinic
_symmetry_space_group_name_H-M   'C 2/c'
_symmetry_Int_Tables_number      15
_space_group_name_Hall           '-C 2yn'
loop_
_symmetry_equiv_pos_site_id
_symmetry_equiv_pos_as_xyz
1 x,y,z
2 1/2+x,1/2+y,z
3 -x,y,1/2-z
4 1/2-x,1/2+y,1/2-z
5 -x,-y,-z
6 1/2-x,1/2-y,-z
7 x,-y,1/2+z
8 1/2+x,1/2-y,1/2+z
_cell_length_a                   17.962(4)
_cell_length_b                   6.7649(14)
_cell_length_c                   14.892(3)
_cell_angle_alpha                90
_cell_angle_beta                 95.22(3)
_cell_angle_gamma                90
_cell_volume                     1802.04
loop_
_atom_site_label
_atom_site_type_symbol
_atom_site_fract_x
_atom_site_fract_y
_atom_site_fract_z
Ba1 Ba 0.5000 0.509100(19) 0.2500
O1 O 0.59076(7) 0.1583(2) 0.24979(9)
O2 O 0.65823(7) 0.1199(2) 0.38126(8)
O3 O 0.79051(7) 0.0978(3) 0.44071(8)
H1 H 0.7440(6) 0.108(4) 0.4245(17)
O4 O 0.89967(7) 0.0698(2) 0.38621(9)
O5 O 0.54233(8) 0.3565(2) 0.43014(9)
H2 H 0.5780(10) 0.280(3) 0.4191(15)
H3 H 0.5534(13) 0.412(4) 0.4807(11)
O6 O 0.48618(8) 0.8602(2) 0.14398(10)
H4 H 0.5271(9) 0.894(4) 0.1248(17)
H5 H 0.4697(13) 0.951(3) 0.1752(16)
N1 N 0.83901(8) 0.1019(2) 0.20987(10)
N2 N 0.71985(8) 0.1213(2) 0.15798(9)
H8 H 0.6808 0.1281 0.1202
C1 C 0.79111(10) 0.1111(3) 0.13752(12)
H9 H 0.8050 0.1106 0.0789
C2 C 0.72079(9) 0.1187(2) 0.24976(11)
C3 C 0.79519(9) 0.1059(2) 0.28118(10)
C4 C 0.65125(9) 0.1331(2) 0.29562(12)
C5 C 0.83180(9) 0.0905(3) 0.37362(11)
Ba1A Ba 1.0000 0.009100(19) 0.2500
Ba1A_2 Ba 0.0000 0.009100(19) 0.2500
O1B O 0.40924(7) 0.1583(2) 0.25021(9)
O2B O 0.34177(7) 0.1199(2) 0.11874(8)
O3B O 0.20949(7) 0.0978(3) 0.05929(8)
H1B H 0.2560(6) 0.108(4) 0.0755(17)
O4B O 0.10033(7) 0.0698(2) 0.11379(9)
O4A O 0.39967(7) 0.5698(2) 0.38621(9)
O4C O 0.60033(7) 0.5698(2) 0.11379(9)
O5B O 0.45767(8) 0.3565(2) 0.06986(9)
H2B H 0.4220(10) 0.280(3) 0.0809(15)
H3B H 0.4466(13) 0.412(4) 0.0193(11)
O6B O 0.51382(8) 0.8602(2) 0.35602(10)
H4B H 0.4729(9) 0.894(4) 0.3752(17)
H5B H 0.5303(13) 0.951(3) 0.3248(16)
N1B N 0.16099(8) 0.1019(2) 0.29013(10)
N1A N 0.33901(8) 0.6019(2) 0.20987(10)
N1C N 0.66099(8) 0.6019(2) 0.29013(10)
N2B N 0.28015(8) 0.1213(2) 0.34202(9)
H8B H 0.3192 0.1281 0.3798
C1B C 0.20889(10) 0.1111(3) 0.36248(12)
H9B H 0.1950 0.1106 0.4211
C2B C 0.27921(9) 0.1187(2) 0.25024(11)
C3B C 0.20481(9) 0.1059(2) 0.21882(10)
C4B C 0.34875(9) 0.1331(2) 0.20438(12)
C5B C 0.16820(9) 0.0905(3) 0.12638(11)
O7 O 0.09162(9) 0.6186(3) 0.03906(10)
H6 H 0.0886(17) 0.597(5) -0.0170(8)
H7 H 0.0600(14) 0.706(4) 0.0507(18)
loop_
_geom_bond_atom_site_label_1
_geom_bond_atom_site_label_2
_geom_bond_site_symmetry_1
_geom_bond_site_symmetry_2
Ba1 O1 1_555 1_555
O1 C4 1_555 1_555
O2 C4 1_555 1_555
O3 H1 1_555 1_555
O4 C5 1_555 1_555
O5 Ba1 1_555 1_555
H2 O5 1_555 1_555
H3 O5 1_555 1_555
O6 Ba1 1_555 1_555
H4 O6 1_555 1_555
H5 O6 1_555 1_555
O7 H6 1_555 1_555
H7 O7 1_555 1_555
N1 C1 1_555 1_555
N2 H8 1_555 1_555
C1 N2 1_555 1_555
H9 C1 1_555 1_555
C2 N2 1_555 1_555
C3 N1 1_555 1_555
C4 C2 1_555 1_555
C5 O3 1_555 1_555
Ba1A O4 1_555 1_555
Ba1A_2 O4B 1_555 1_555
O1B Ba1 1_555 1_555
O2B C4B 1_555 1_555
O3B H1B 1_555 1_555
O4B C5B 1_555 1_555
O4A Ba1 1_555 1_555
O4C Ba1 1_555 1_555
O5B Ba1 1_555 1_555
H2B O5B 1_555 1_555
H3B O5B 1_555 1_555
O6B Ba1 1_555 1_555
H4B O6B 1_555 1_555
H5B O6B 1_555 1_555
N1B Ba1A_2 1_555 1_555
N1A Ba1 1_555 1_555
N1C Ba1 1_555 1_555
N2B H8B 1_555 1_555
C1B N1B 1_555 1_555
H9B C1B 1_555 1_555
C2B N2B 1_555 1_555
C3B N1B 1_555 1_555
C4B O1B 1_555 1_555
C5B O3B 1_555 1_555
N1 Ba1A 1_555 1_555
C2 C3 1_555 1_555
C3 C5 1_555 1_555
N2B C1B 1_555 1_555
C2B C3B 1_555 1_555
C2B C4B 1_555 1_555
C3B C5B 1_555 1_555

#END
