
#######################################################################
#
#                 Cambridge Crystallographic Data Centre
#                                CCDC 
#
#######################################################################
#
# If this CIF has been generated from an entry in the Cambridge 
# Structural Database, then it will include bibliographic, chemical, 
# crystal, experimental, refinement or atomic coordinate data resulting 
# from the CCDC's data processing and validation procedures.
#
#######################################################################

data_VAYSUL
_symmetry_cell_setting           triclinic
_symmetry_space_group_name_H-M   'P -1'
_symmetry_Int_Tables_number      2
_space_group_name_Hall           '-P 1'
loop_
_symmetry_equiv_pos_site_id
_symmetry_equiv_pos_as_xyz
1 x,y,z
2 -x,-y,-z
_cell_length_a                   11.166(2)
_cell_length_b                   12.382(2)
_cell_length_c                   26.605(5)
_cell_angle_alpha                99.731(2)
_cell_angle_beta                 92.217(2)
_cell_angle_gamma                111.074(2)
_cell_volume                     3363.1
loop_
_atom_site_label
_atom_site_type_symbol
_atom_site_fract_x
_atom_site_fract_y
_atom_site_fract_z
Sn1 Sn 0.16708(3) 0.08203(3) 0.488215(11)
Sn2 Sn 0.13886(3) 0.06648(3) 0.349017(11)
Sn3 Sn 0.44991(3) 0.14838(3) 0.296940(11)
Sn4 Sn 0.42451(3) 0.09199(3) 0.157125(11)
Sn5 Sn 0.62507(3) 0.09070(3) 0.053171(12)
O1 O 0.0120(3) -0.0852(3) 0.46778(11)
O2 O 0.2503(3) 0.0368(3) 0.40933(11)
O3 O 0.0993(3) 0.1495(3) 0.42975(11)
O4 O 0.2948(3) 0.2214(3) 0.34141(11)
O5 O 0.2612(3) 0.0141(3) 0.28216(11)
O6 O 0.4304(3) 0.2312(2) 0.23398(11)
O7 O 0.5049(3) 0.0562(3) 0.22393(10)
O8 O 0.5199(3) -0.0194(3) 0.10207(11)
O9 O 0.5994(3) 0.2037(3) 0.12980(11)
O10 O 0.4473(3) 0.0766(3) 0.01517(12)
C1 C -0.0068(3) -0.1734(2) 0.42519(10)
C2 C -0.0982(3) -0.1850(3) 0.38562(13)
H1 H -0.1423 -0.1318 0.3880
C3 C -0.1252(3) -0.2745(3) 0.34262(11)
H2 H -0.1877 -0.2824 0.3156
C4 C -0.0607(4) -0.3524(3) 0.33919(12)
H3 H -0.0791 -0.4135 0.3098
C5 C 0.0308(3) -0.3408(3) 0.37876(14)
H4 H 0.0749 -0.3940 0.3764
C6 C 0.0577(3) -0.2513(3) 0.42176(11)
C7 C 0.1612(6) -0.2341(5) 0.4621(2)
H5 H 0.1846 -0.3039 0.4575
H6 H 0.1306 -0.2224 0.4959
H7 H 0.2369 -0.1645 0.4597
C8 C 0.3443(4) -0.0101(4) 0.40116(16)
C9 C 0.3172(5) -0.1128(4) 0.36504(18)
H8 H 0.2340 -0.1505 0.3463
C10 C 0.4106(6) -0.1610(5) 0.3561(2)
H9 H 0.3914 -0.2315 0.3313
C11 C 0.5316(6) -0.1068(6) 0.3831(2)
H10 H 0.5960 -0.1394 0.3771
C12 C 0.5577(5) -0.0059(6) 0.4187(2)
H11 H 0.6411 0.0307 0.4372
C13 C 0.4669(4) 0.0455(4) 0.42885(18)
C14 C 0.5044(5) 0.1573(5) 0.4689(2)
H12 H 0.4975 0.1374 0.5031
H13 H 0.4466 0.1987 0.4632
H14 H 0.5936 0.2082 0.4665
C15 C 0.0200(4) 0.2116(4) 0.42733(16)
C16 C -0.1014(4) 0.1558(4) 0.39848(17)
H15 H -0.1313 0.0739 0.3839
C17 C -0.1778(5) 0.2204(5) 0.39120(19)
H16 H -0.2603 0.1823 0.3719
C18 C -0.1348(5) 0.3387(5) 0.4117(2)
H17 H -0.1855 0.3834 0.4056
C19 C -0.0172(5) 0.3922(5) 0.44120(19)
H18 H 0.0113 0.4740 0.4556
C20 C 0.0611(4) 0.3312(4) 0.45079(17)
C21 C 0.1846(5) 0.3895(4) 0.48610(18)
H19 H 0.2067 0.4751 0.4936
H20 H 0.2541 0.3718 0.4696
H21 H 0.1734 0.3597 0.5181
C22 C 0.3362(4) 0.3355(4) 0.36828(16)
C23 C 0.4465(5) 0.3785(5) 0.40352(19)
H22 H 0.4884 0.3275 0.4108
C24 C 0.4946(5) 0.4965(6) 0.4279(2)
H23 H 0.5697 0.5259 0.4519
C25 C 0.4350(6) 0.5712(5) 0.4178(3)
H24 H 0.4690 0.6521 0.4340
C26 C 0.3259(6) 0.5268(5) 0.3840(2)
H25 H 0.2843 0.5786 0.3775
C27 C 0.2726(5) 0.4101(4) 0.35864(17)
C28 C 0.1534(5) 0.3650(5) 0.3217(2)
H26 H 0.0815 0.3127 0.3367
H27 H 0.1678 0.3211 0.2898
H28 H 0.1325 0.4316 0.3144
C29 C 0.1853(4) -0.0262(4) 0.23562(16)
C30 C 0.1319(4) 0.0472(4) 0.21672(18)
H29 H 0.1477 0.1237 0.2361
C31 C 0.0566(5) 0.0096(5) 0.1702(2)
H30 H 0.0207 0.0600 0.1576
C32 C 0.0334(5) -0.1024(6) 0.1419(2)
H31 H -0.0166 -0.1284 0.1094
C33 C 0.0832(5) -0.1753(5) 0.1612(2)
H32 H 0.0661 -0.2521 0.1418
C34 C 0.1584(4) -0.1398(4) 0.20849(18)
C35 C 0.2062(6) -0.2239(5) 0.2298(2)
H33 H 0.2924 -0.1802 0.2483
H34 H 0.2105 -0.2841 0.2016
H35 H 0.1469 -0.2620 0.2533
C36 C 0.4028(5) 0.3304(4) 0.23282(18)
C37 C 0.3038(5) 0.3251(5) 0.1985(2)
H36 H 0.2530 0.2521 0.1768
C38 C 0.2781(7) 0.4260(7) 0.1956(3)
H37 H 0.2101 0.4221 0.1719
C39 C 0.3519(8) 0.5318(7) 0.2273(3)
H38 H 0.3339 0.6007 0.2260
C40 C 0.4504(8) 0.5370(5) 0.2605(3)
H39 H 0.4996 0.6105 0.2822
C41 C 0.4825(6) 0.4397(4) 0.2641(2)
C42 C 0.5990(6) 0.4513(5) 0.2968(2)
H40 H 0.6342 0.5299 0.3188
H41 H 0.6642 0.4406 0.2749
H42 H 0.5757 0.3911 0.3181
C43 C 0.6001(5) 0.0124(4) 0.23305(17)
C44 C 0.5701(5) -0.1064(5) 0.22574(19)
H43 H 0.4841 -0.1587 0.2136
C45 C 0.6636(6) -0.1524(5) 0.2358(2)
H44 H 0.6416 -0.2354 0.2309
C46 C 0.7894(6) -0.0755(5) 0.2531(2)
H45 H 0.8542 -0.1056 0.2599
C47 C 0.8198(5) 0.0441(5) 0.2604(2)
H46 H 0.9063 0.0957 0.2720
C48 C 0.7279(5) 0.0922(4) 0.25142(18)
C49 C 0.7643(5) 0.2243(5) 0.2616(2)
H47 H 0.7405 0.2501 0.2953
H48 H 0.7185 0.2455 0.2350
H49 H 0.8576 0.2631 0.2610
C50 C 0.4780(5) -0.1390(4) 0.09862(16)
C51 C 0.3472(6) -0.2053(5) 0.0928(2)
H50 H 0.2870 -0.1691 0.0876
C52 C 0.3034(9) -0.3239(6) 0.0945(3)
H51 H 0.2132 -0.3684 0.0914
C53 C 0.3877(12) -0.3769(6) 0.1007(3)
H52 H 0.3571 -0.4584 0.1021
C54 C 0.5195(10) -0.3123(7) 0.1049(2)
H53 H 0.5784 -0.3506 0.1086
C55 C 0.5669(6) -0.1925(5) 0.10366(18)
C56 C 0.7095(7) -0.1221(7) 0.1093(2)
H54 H 0.7338 -0.0937 0.0775
H55 H 0.7567 -0.1721 0.1162
H56 H 0.7311 -0.0545 0.1378
C57 C 0.6777(9) 0.3198(8) 0.1482(3)
C58 C 0.8124(5) 0.3533(5) 0.1587(2)
C59 C 0.8854(6) 0.4717(6) 0.1787(2)
H57 H 0.9759 0.4947 0.1867
C60 C 0.8329(7) 0.5555(6) 0.1872(2)
H58 H 0.8855 0.6352 0.2015
C61 C 0.7023(7) 0.5232(5) 0.1749(2)
H59 H 0.6648 0.5815 0.1800
C62 C 0.6250(5) 0.4064(4) 0.15505(18)
H60 H 0.5352 0.3855 0.1461
C63 C 0.8778(6) 0.2646(6) 0.1503(2)
H61 H 0.9021 0.2569 0.1153
H62 H 0.8182 0.1879 0.1554
H63 H 0.9553 0.2917 0.1748
C64 C 0.3628(5) 0.1300(5) 0.02872(17)
C65 C 0.2392(6) 0.0590(4) 0.03655(17)
H64 H 0.2173 -0.0235 0.0339
C66 C 0.1476(4) 0.1086(5) 0.04821(17)
H65 H 0.0632 0.0601 0.0536
C67 C 0.1796(5) 0.2293(5) 0.05204(16)
H66 H 0.1170 0.2632 0.0600
C68 C 0.3032(5) 0.3003(4) 0.04421(17)
H67 H 0.3251 0.3828 0.0468
C69 C 0.3948(4) 0.2506(5) 0.03255(17)
C70 C 0.5184(11) 0.3214(8) 0.0255(3)
H68 H 0.5210 0.4005 0.0236
H69 H 0.5430 0.2870 -0.0065
H70 H 0.5789 0.3266 0.0543
Sn1A Sn -0.16708(3) -0.08203(3) 0.511785(11)
Sn5A Sn 0.37493(3) -0.09070(3) -0.053171(12)
O1A O -0.0120(3) 0.0852(3) 0.53222(11)
O10A O 0.5527(3) -0.0766(3) -0.01517(12)
loop_
_geom_bond_atom_site_label_1
_geom_bond_atom_site_label_2
_geom_bond_site_symmetry_1
_geom_bond_site_symmetry_2
Sn1 O1 1_555 1_555
Sn2 O2 1_555 1_555
Sn3 O4 1_555 1_555
Sn4 O6 1_555 1_555
Sn5 O8 1_555 1_555
O1 C1 1_555 1_555
O2 Sn1 1_555 1_555
O3 Sn1 1_555 1_555
O4 Sn2 1_555 1_555
O5 Sn2 1_555 1_555
O6 Sn3 1_555 1_555
O7 Sn3 1_555 1_555
O8 Sn4 1_555 1_555
O9 Sn4 1_555 1_555
O10 Sn5 1_555 1_555
C1 C2 1_555 1_555
C2 H1 1_555 1_555
C3 C2 1_555 1_555
H2 C3 1_555 1_555
C4 C3 1_555 1_555
H3 C4 1_555 1_555
C5 C4 1_555 1_555
H4 C5 1_555 1_555
C6 C1 1_555 1_555
C7 C6 1_555 1_555
H5 C7 1_555 1_555
H6 C7 1_555 1_555
H7 C7 1_555 1_555
C8 O2 1_555 1_555
C9 C8 1_555 1_555
H8 C9 1_555 1_555
C10 C9 1_555 1_555
H9 C10 1_555 1_555
C11 C10 1_555 1_555
H10 C11 1_555 1_555
C12 C11 1_555 1_555
H11 C12 1_555 1_555
C13 C8 1_555 1_555
C14 C13 1_555 1_555
H12 C14 1_555 1_555
H13 C14 1_555 1_555
H14 C14 1_555 1_555
C15 O3 1_555 1_555
C16 C15 1_555 1_555
H15 C16 1_555 1_555
C17 C16 1_555 1_555
H16 C17 1_555 1_555
C18 C17 1_555 1_555
H17 C18 1_555 1_555
C19 C18 1_555 1_555
H18 C19 1_555 1_555
C20 C15 1_555 1_555
C21 C20 1_555 1_555
H19 C21 1_555 1_555
H20 C21 1_555 1_555
H21 C21 1_555 1_555
C22 O4 1_555 1_555
C23 C22 1_555 1_555
H22 C23 1_555 1_555
C24 C23 1_555 1_555
H23 C24 1_555 1_555
C25 C24 1_555 1_555
H24 C25 1_555 1_555
C26 C25 1_555 1_555
H25 C26 1_555 1_555
C27 C22 1_555 1_555
C28 C27 1_555 1_555
H26 C28 1_555 1_555
H27 C28 1_555 1_555
H28 C28 1_555 1_555
C29 O5 1_555 1_555
C30 C29 1_555 1_555
H29 C30 1_555 1_555
C31 C30 1_555 1_555
H30 C31 1_555 1_555
C32 C31 1_555 1_555
H31 C32 1_555 1_555
C33 C32 1_555 1_555
H32 C33 1_555 1_555
C34 C29 1_555 1_555
C35 C34 1_555 1_555
H33 C35 1_555 1_555
H34 C35 1_555 1_555
H35 C35 1_555 1_555
C36 O6 1_555 1_555
C37 C36 1_555 1_555
H36 C37 1_555 1_555
C38 C37 1_555 1_555
H37 C38 1_555 1_555
C39 C38 1_555 1_555
H38 C39 1_555 1_555
C40 C39 1_555 1_555
H39 C40 1_555 1_555
C41 C36 1_555 1_555
C42 C41 1_555 1_555
H40 C42 1_555 1_555
H41 C42 1_555 1_555
H42 C42 1_555 1_555
C43 O7 1_555 1_555
C44 C43 1_555 1_555
H43 C44 1_555 1_555
C45 C44 1_555 1_555
H44 C45 1_555 1_555
C46 C45 1_555 1_555
H45 C46 1_555 1_555
C47 C46 1_555 1_555
H46 C47 1_555 1_555
C48 C43 1_555 1_555
C49 C48 1_555 1_555
H47 C49 1_555 1_555
H48 C49 1_555 1_555
H49 C49 1_555 1_555
C50 O8 1_555 1_555
C51 C50 1_555 1_555
H50 C51 1_555 1_555
C52 C51 1_555 1_555
H51 C52 1_555 1_555
C53 C52 1_555 1_555
H52 C53 1_555 1_555
C54 C53 1_555 1_555
H53 C54 1_555 1_555
C55 C50 1_555 1_555
C56 C55 1_555 1_555
H54 C56 1_555 1_555
H55 C56 1_555 1_555
H56 C56 1_555 1_555
C57 O9 1_555 1_555
C58 C57 1_555 1_555
C59 C58 1_555 1_555
H57 C59 1_555 1_555
C60 C59 1_555 1_555
H58 C60 1_555 1_555
C61 C60 1_555 1_555
H59 C61 1_555 1_555
C62 C57 1_555 1_555
H60 C62 1_555 1_555
C63 C58 1_555 1_555
H61 C63 1_555 1_555
H62 C63 1_555 1_555
H63 C63 1_555 1_555
C64 O10 1_555 1_555
C65 C64 1_555 1_555
H64 C65 1_555 1_555
C66 C65 1_555 1_555
H65 C66 1_555 1_555
C67 C66 1_555 1_555
H66 C67 1_555 1_555
C68 C67 1_555 1_555
H67 C68 1_555 1_555
C69 C64 1_555 1_555
C70 C69 1_555 1_555
H68 C70 1_555 1_555
H69 C70 1_555 1_555
H70 C70 1_555 1_555
Sn1A O1 1_555 1_555
Sn5A O10 1_555 1_555
O1A Sn1 1_555 1_555
O10A Sn5 1_555 1_555
Sn2 O3 1_555 1_555
Sn3 O5 1_555 1_555
Sn4 O7 1_555 1_555
Sn5 O9 1_555 1_555
C5 C6 1_555 1_555
C12 C13 1_555 1_555
C19 C20 1_555 1_555
C26 C27 1_555 1_555
C33 C34 1_555 1_555
C40 C41 1_555 1_555
C47 C48 1_555 1_555
C54 C55 1_555 1_555
C61 C62 1_555 1_555
C68 C69 1_555 1_555
Sn1A O1A 1_555 1_555
Sn5A O10A 1_555 1_555

#END
