
#######################################################################
#
#                 Cambridge Crystallographic Data Centre
#                                CCDC 
#
#######################################################################
#
# If this CIF has been generated from an entry in the Cambridge 
# Structural Database, then it will include bibliographic, chemical, 
# crystal, experimental, refinement or atomic coordinate data resulting 
# from the CCDC's data processing and validation procedures.
#
#######################################################################

data_VAYSUK01
_symmetry_cell_setting           monoclinic
_symmetry_space_group_name_H-M   'C 2/c'
_symmetry_Int_Tables_number      15
_space_group_name_Hall           '-C 2yn'
loop_
_symmetry_equiv_pos_site_id
_symmetry_equiv_pos_as_xyz
1 x,y,z
2 1/2+x,1/2+y,z
3 -x,y,1/2-z
4 1/2-x,1/2+y,1/2-z
5 -x,-y,-z
6 1/2-x,1/2-y,-z
7 x,-y,1/2+z
8 1/2+x,1/2-y,1/2+z
_cell_length_a                   17.929(4)
_cell_length_b                   6.7568(14)
_cell_length_c                   14.868(3)
_cell_angle_alpha                90
_cell_angle_beta                 95.18(3)
_cell_angle_gamma                90
_cell_volume                     1793.79
loop_
_atom_site_label
_atom_site_type_symbol
_atom_site_fract_x
_atom_site_fract_y
_atom_site_fract_z
Ba1 Ba 0.5000 0.008971(16) 0.7500
O1 O 0.59070(7) -0.3419(2) 0.74989(9)
N1 N 0.71984(8) -0.3785(2) 0.65791(9)
C1 C 0.83175(9) -0.4098(2) 0.87363(10)
O2 O 0.65800(7) -0.3799(2) 0.88140(8)
O3 O 0.79029(7) -0.4027(3) 0.94052(8)
O4 O 0.48613(9) 0.3602(2) 0.64408(10)
O5 O 0.54239(8) -0.1438(2) 0.92993(9)
N2 N 0.83907(8) -0.3983(2) 0.70985(9)
O6 O 0.89961(7) -0.4300(3) 0.88619(8)
C2 C 0.79111(10) -0.3892(3) 0.63748(11)
C3 C 0.79538(8) -0.3944(2) 0.78104(9)
C4 C 0.72072(8) -0.3813(2) 0.74978(10)
C5 C 0.65124(9) -0.3668(2) 0.79563(11)
H1 H 0.8037(14) -0.393(4) 0.5779(16)
H2 H 0.523(2) 0.388(5) 0.628(2)
H3 H 0.5785(18) -0.209(4) 0.9224(19)
H4 H 0.7413(16) -0.393(4) 0.9220(17)
H5 H 0.552(2) -0.107(6) 0.977(2)
H6 H 0.474(2) 0.444(6) 0.675(2)
H7 H 0.6815(14) -0.375(4) 0.6235(15)
Ba1A Ba 1.0000 -0.491029(16) 0.7500
Ba1A_2 Ba 0.0000 -0.491029(16) 0.7500
O1B O 0.40930(7) -0.3419(2) 0.75011(9)
N1B N 0.28016(8) -0.3785(2) 0.84209(9)
C1B C 0.16825(9) -0.4098(2) 0.62637(10)
O2B O 0.34200(7) -0.3799(2) 0.61860(8)
O3B O 0.20971(7) -0.4027(3) 0.55948(8)
O4B O 0.51387(9) 0.3602(2) 0.85592(10)
O5B O 0.45761(8) -0.1438(2) 0.57007(9)
N2B N 0.16093(8) -0.3983(2) 0.79015(9)
N2A N 0.33907(8) 0.1017(2) 0.70985(9)
N2C N 0.66093(8) 0.1017(2) 0.79015(9)
O6B O 0.10039(7) -0.4300(3) 0.61381(8)
O6A O 0.39961(7) 0.0700(3) 0.88619(8)
O6C O 0.60039(7) 0.0700(3) 0.61381(8)
C2B C 0.20889(10) -0.3892(3) 0.86252(11)
C3B C 0.20462(8) -0.3944(2) 0.71896(9)
C4B C 0.27928(8) -0.3813(2) 0.75022(10)
C5B C 0.34876(9) -0.3668(2) 0.70437(11)
H1B H 0.1963(14) -0.393(4) 0.9221(16)
H2B H 0.477(2) 0.388(5) 0.872(2)
H3B H 0.4215(18) -0.209(4) 0.5776(19)
H4B H 0.2587(16) -0.393(4) 0.5780(17)
H5B H 0.448(2) -0.107(6) 0.523(2)
H6B H 0.526(2) 0.444(6) 0.825(2)
H7B H 0.3185(14) -0.375(4) 0.8765(15)
O7 O 0.09179(10) 0.1189(3) 0.53897(12)
H8 H 0.062(2) 0.204(6) 0.547(2)
H9 H 0.085(2) 0.110(6) 0.489(2)
loop_
_geom_bond_atom_site_label_1
_geom_bond_atom_site_label_2
_geom_bond_site_symmetry_1
_geom_bond_site_symmetry_2
Ba1 O1 1_555 1_555
O1 C5 1_555 1_555
N1 C2 1_555 1_555
C1 O3 1_555 1_555
O2 C5 1_555 1_555
O3 H4 1_555 1_555
O4 Ba1 1_555 1_555
O5 Ba1 1_555 1_555
N2 C2 1_555 1_555
O6 C1 1_555 1_555
C2 H1 1_555 1_555
C3 C1 1_555 1_555
C4 N1 1_555 1_555
C5 C4 1_555 1_555
O7 H8 1_555 1_555
H2 O4 1_555 1_555
H3 O5 1_555 1_555
H5 O5 1_555 1_555
H6 O4 1_555 1_555
H7 N1 1_555 1_555
H9 O7 1_555 1_555
Ba1A N2 1_555 1_555
Ba1A_2 N2B 1_555 1_555
O1B Ba1 1_555 1_555
N1B C2B 1_555 1_555
C1B O3B 1_555 1_555
O2B C5B 1_555 1_555
O3B H4B 1_555 1_555
O4B Ba1 1_555 1_555
O5B Ba1 1_555 1_555
N2B C2B 1_555 1_555
N2A Ba1 1_555 1_555
N2C Ba1 1_555 1_555
O6B Ba1A_2 1_555 1_555
O6A Ba1 1_555 1_555
O6C Ba1 1_555 1_555
C2B H1B 1_555 1_555
C3B C1B 1_555 1_555
C4B N1B 1_555 1_555
C5B O1B 1_555 1_555
H2B O4B 1_555 1_555
H3B O5B 1_555 1_555
H5B O5B 1_555 1_555
H6B O4B 1_555 1_555
H7B N1B 1_555 1_555
N2 C3 1_555 1_555
O6 Ba1A 1_555 1_555
C3 C4 1_555 1_555
C1B O6B 1_555 1_555
N2B C3B 1_555 1_555
C3B C4B 1_555 1_555
C4B C5B 1_555 1_555

#END
