
#######################################################################
#
#                 Cambridge Crystallographic Data Centre
#                                CCDC 
#
#######################################################################
#
# If this CIF has been generated from an entry in the Cambridge 
# Structural Database, then it will include bibliographic, chemical, 
# crystal, experimental, refinement or atomic coordinate data resulting 
# from the CCDC's data processing and validation procedures.
#
#######################################################################

data_VAYVUO
_symmetry_cell_setting           triclinic
_symmetry_space_group_name_H-M   'P -1'
_symmetry_Int_Tables_number      2
_space_group_name_Hall           '-P 1'
loop_
_symmetry_equiv_pos_site_id
_symmetry_equiv_pos_as_xyz
1 x,y,z
2 -x,-y,-z
_cell_length_a                   10.913(4)
_cell_length_b                   13.861(5)
_cell_length_c                   13.935(5)
_cell_angle_alpha                65.148(3)
_cell_angle_beta                 70.187(3)
_cell_angle_gamma                73.344(3)
_cell_volume                     1773.61
loop_
_atom_site_label
_atom_site_type_symbol
_atom_site_fract_x
_atom_site_fract_y
_atom_site_fract_z
Na1 Na 1.5000 0.0000 0.5000
O1 O 1.720(3) 0.027(2) 0.478(3)
O3 O 0.894(4) -0.020(3) 0.286(3)
Mo1 Mo 1.55499(14) 0.51347(11) 0.23282(11)
Mo2 Mo 1.22339(13) 0.52027(11) 0.22562(11)
Mo3 Mo 1.41135(13) 0.26456(11) 0.01813(13)
Mo4 Mo 1.25993(14) 0.74060(11) -0.02578(12)
Mo5 Mo 1.46310(11) 0.27931(9) 0.25009(9)
Mn1 Mn 1.17503(17) 0.50418(14) -0.00305(15)
P1 P 1.5000 0.5000 0.0000
Ag1 Ag 1.3443(2) -0.01336(15) 0.00008(15)
Ag2 Ag 0.9283(2) 0.7676(3) -0.05537(18)
N1 N 1.118(2) 0.2293(18) -0.2663(17)
N2 N 1.1675(17) 0.3161(19) -0.2900(17)
N3 N 1.1111(19) 0.253(3) -0.1076(19)
N4 N 1.242(2) -0.1084(17) 0.3490(16)
N5 N 1.235(2) -0.2043(16) 0.3386(16)
N6 N 1.432(2) 0.0840(16) -0.3490(17)
N7 N 1.4339(17) 0.1774(15) -0.3378(16)
N8 N 1.276(2) -0.0843(15) 0.1713(16)
N9 N 1.395(2) 0.0588(16) -0.1699(14)
O2 O 1.354(2) 0.546(2) 0.041(2)
O4 O 1.460(3) 0.466(2) 0.1155(19)
O5 O 1.518(2) 0.3794(19) 0.0579(19)
O6 O 1.2495(18) 0.3510(16) 0.0396(16)
O7 O 1.134(3) 0.4918(15) 0.1520(17)
O8 O 1.0000 0.5000 0.0000
O9 O 1.5386(17) 0.3674(13) 0.2812(15)
O10 O 1.3949(19) 0.2369(17) 0.1700(16)
O11 O 1.549(2) 0.6592(16) 0.1400(17)
O12 O 1.5990(19) 0.2247(18) 0.0037(16)
O13 O 1.1032(18) 0.5263(16) 0.3355(17)
O14 O 1.3629(19) 0.7628(17) -0.1712(16)
O15 O 1.577(3) 0.541(2) 0.047(2)
O16 O 1.727(2) 0.4836(16) 0.1547(17)
O17 O 1.170(2) 0.6585(16) -0.0445(15)
O18 O 1.2956(16) 0.3667(14) 0.2813(15)
O19 O 1.5723(19) 0.5210(16) 0.3435(17)
O20 O 1.211(2) 0.6655(17) 0.1324(17)
O21 O 1.3638(17) 0.5420(14) 0.2656(15)
O22 O 1.4473(18) 0.1724(14) 0.3682(14)
O23 O 1.376(2) 0.1538(15) 0.0257(15)
O24 O 1.1568(15) 0.8588(13) -0.0416(12)
C1 C 1.079(3) 0.188(3) -0.162(3)
H1 H 1.0364 0.1286 -0.1239
C2 C 1.202(3) -0.299(2) 0.430(2)
H2 H 1.2381 -0.3060 0.4877
H3 H 1.2427 -0.3612 0.4087
C3 C 1.061(3) -0.299(2) 0.473(2)
H4 H 1.0474 -0.3685 0.5310
H5 H 1.0250 -0.2931 0.4155
C4 C 1.261(3) -0.045(2) 0.253(2)
H6 H 1.2639 0.0267 0.2353
C5 C 1.157(2) 0.333(3) -0.195(2)
H7 H 1.1789 0.3920 -0.1943
C6 C 0.986(3) -0.212(3) 0.517(2)
H8 H 0.8921 -0.2105 0.5291
H9 H 1.0069 -0.1440 0.4610
C7 C 1.215(3) 0.386(2) -0.402(2)
H10 H 1.1416 0.4171 -0.4363
H11 H 1.2466 0.4440 -0.4017
C8 C 1.320(2) 0.331(2) -0.4678(18)
H12 H 1.3415 0.3837 -0.5411
H13 H 1.2839 0.2771 -0.4723
C9 C 1.264(3) -0.187(2) 0.2322(18)
H14 H 1.2733 -0.2399 0.2041
C10 C 1.407(2) 0.017(2) -0.246(2)
H15 H 1.3989 -0.0536 -0.2272
C11 C 1.446(2) 0.277(2) -0.4352(16)
H16 H 1.5114 0.2591 -0.4957
H17 H 1.4785 0.3265 -0.4210
C12 C 1.422(2) 0.1603(19) -0.2354(18)
H18 H 1.4302 0.2101 -0.2106
N10 N 1.009(2) -0.220(2) 0.6223(15)
N11 N 1.131(2) -0.227(2) 0.623(2)
C13 C 0.926(2) -0.232(2) 0.718(2)
H19 H 0.8399 -0.2438 0.7373
N12 N 0.989(2) -0.225(2) 0.7857(18)
C14 C 1.122(3) -0.225(3) 0.720(2)
H20 H 1.1931 -0.2232 0.7420
Mo1A Mo 1.44501(14) 0.48653(11) -0.23282(11)
Mo2A Mo 1.77661(13) 0.47973(11) -0.22562(11)
Mo3A Mo 1.58865(13) 0.73544(11) -0.01813(13)
Mo4A Mo 1.74007(14) 0.25940(11) 0.02578(12)
Mo5A Mo 1.53690(11) 0.72069(9) -0.25009(9)
Mn1A Mn 1.82497(17) 0.49582(14) 0.00305(15)
Mn1A_2 Mn 0.82497(17) 0.49582(14) 0.00305(15)
Ag1A Ag 1.6557(2) 1.01336(15) -0.00008(15)
Ag1A_2 Ag 0.6557(2) 1.01336(15) -0.00008(15)
Ag1_2 Ag 1.3443(2) 0.98664(15) -0.99992(15)
Ag2A Ag 2.0717(2) 0.2324(3) 0.05537(18)
Ag2A_2 Ag 1.0717(2) 0.2324(3) 0.05537(18)
Ag2_2 Ag 0.9283(2) -0.2324(3) 0.94463(18)
N1A N 0.882(2) 0.7707(18) 0.2663(17)
N2A N 0.8325(17) 0.6839(19) 0.2900(17)
N3A N 0.8889(19) 0.747(3) 0.1076(19)
N3_2 N 2.1111(19) 0.253(3) -0.1076(19)
N4_2 N 1.242(2) 0.8916(17) -0.6510(16)
N5_2 N 1.235(2) 0.7957(16) -0.6614(16)
N6A N 0.568(2) 0.9160(16) 0.3490(17)
N7A N 0.5661(17) 0.8226(15) 0.3378(16)
N8_2 N 1.276(2) 0.9157(15) -0.8287(16)
N8A N 1.724(2) 1.0843(15) -0.1713(16)
N9A N 0.605(2) 0.9412(16) 0.1699(14)
N9A_2 N 1.605(2) 0.9412(16) 0.1699(14)
O2A O 1.646(2) 0.454(2) -0.041(2)
O4A O 1.540(3) 0.534(2) -0.1155(19)
O5A O 1.482(2) 0.6206(19) -0.0579(19)
O6A O 1.7505(18) 0.6490(16) -0.0396(16)
O7A O 1.866(3) 0.5082(15) -0.1520(17)
O8_2 O 2.0000 0.5000 0.0000
O9A O 1.4614(17) 0.6326(13) -0.2812(15)
O10A O 1.6051(19) 0.7631(17) -0.1700(16)
O11A O 1.451(2) 0.3408(16) -0.1400(17)
O12A O 1.4010(19) 0.7753(18) -0.0037(16)
O13A O 1.8968(18) 0.4737(16) -0.3355(17)
O14A O 1.6371(19) 0.2372(17) 0.1712(16)
O15A O 1.423(3) 0.459(2) -0.047(2)
O16A O 1.273(2) 0.5164(16) -0.1547(17)
O17A O 1.830(2) 0.3415(16) 0.0445(15)
O18A O 1.7044(16) 0.6333(14) -0.2813(15)
O19A O 1.4277(19) 0.4790(16) -0.3435(17)
O20A O 1.789(2) 0.3345(17) -0.1324(17)
O21A O 1.6362(17) 0.4580(14) -0.2656(15)
O22A O 1.5527(18) 0.8276(14) -0.3682(14)
O23A O 1.624(2) 0.8462(15) -0.0257(15)
O24A O 1.8432(15) 0.1412(13) 0.0416(12)
C1A C 0.921(3) 0.812(3) 0.162(3)
H1A H 0.9636 0.8714 0.1239
C2_2 C 1.202(3) 0.701(2) -0.570(2)
H2_2 H 1.2381 0.6940 -0.5123
H3_2 H 1.2427 0.6388 -0.5913
C3_2 C 1.061(3) 0.701(2) -0.527(2)
H4_2 H 1.0474 0.6315 -0.4690
H5_2 H 1.0250 0.7069 -0.5845
C4_2 C 1.261(3) 0.955(2) -0.747(2)
H6_2 H 1.2639 1.0267 -0.7647
C5A C 0.843(2) 0.667(3) 0.195(2)
H7A H 0.8211 0.6080 0.1943
C6_2 C 0.986(3) 0.788(3) -0.483(2)
H8_2 H 0.8921 0.7895 -0.4709
H9_2 H 1.0069 0.8560 -0.5390
C7A C 0.785(3) 0.614(2) 0.402(2)
H10A H 0.8584 0.5829 0.4363
H11A H 0.7534 0.5560 0.4017
C8A C 0.680(2) 0.669(2) 0.4678(18)
H12A H 0.6585 0.6163 0.5411
H13A H 0.7161 0.7229 0.4723
C9_2 C 1.264(3) 0.813(2) -0.7678(18)
H14_2 H 1.2733 0.7601 -0.7959
C10A C 0.593(2) 0.983(2) 0.246(2)
H15A H 0.6011 1.0536 0.2272
C11A C 0.554(2) 0.723(2) 0.4352(16)
H16A H 0.4886 0.7409 0.4957
H17A H 0.5215 0.6735 0.4210
C12A C 0.578(2) 0.8397(19) 0.2354(18)
H18A H 0.5698 0.7899 0.2106
N10_2 N 1.009(2) 0.780(2) -0.3777(15)
N11_2 N 1.131(2) 0.773(2) -0.377(2)
C13_2 C 0.926(2) 0.768(2) -0.282(2)
H19_2 H 0.8399 0.7562 -0.2627
N12_2 N 0.989(2) 0.775(2) -0.2143(18)
N12A N 2.011(2) 0.225(2) 0.2143(18)
C14_2 C 1.122(3) 0.775(3) -0.280(2)
H20_2 H 1.1931 0.7768 -0.2580
Mo6? Mo 1.82497(17) 0.49582(14) 0.00305(15)
Ag3? Ag 1.5000 0.0000 0.5000
loop_
_geom_bond_atom_site_label_1
_geom_bond_atom_site_label_2
_geom_bond_site_symmetry_1
_geom_bond_site_symmetry_2
Mo1 O9 1_555 1_555
Mo2 O2 1_555 1_555
Mo3 O5 1_555 1_555
Mo4 O2 1_555 1_555
Mo5 O4 1_555 1_555
Mn1 O2 1_555 1_555
P1 O2 1_555 1_555
Ag1 N8 1_555 1_555
Ag2 O17 1_555 1_555
N1 N2 1_555 1_555
N2 C5 1_555 1_555
N3 C1 1_555 1_555
N4 N5 1_555 1_555
N5 C2 1_555 1_555
N6 N7 1_555 1_555
N7 C11 1_555 1_555
N8 C4 1_555 1_555
N9 Ag1 1_555 1_555
O2 O4 1_555 1_555
O4 P1 1_555 1_555
O5 Mo5 1_555 1_555
O6 Mo3 1_555 1_555
O7 Mo2 1_555 1_555
O8 Mn1 1_555 1_555
O9 Mo5 1_555 1_555
O10 Mo3 1_555 1_555
O11 Mo1 1_555 1_555
O12 Mo3 1_555 1_555
O13 Mo2 1_555 1_555
O14 Mo4 1_555 1_555
O15 Mo1 1_555 1_555
O16 Mo1 1_555 1_555
O17 Mo4 1_555 1_555
O18 Mo2 1_555 1_555
O19 Mo1 1_555 1_555
O20 Mo2 1_555 1_555
O21 Mo1 1_555 1_555
O22 Mo5 1_555 1_555
O23 Mo3 1_555 1_555
O24 Mo4 1_555 1_555
C1 N1 1_555 1_555
H1 C1 1_555 1_555
C2 H2 1_555 1_555
H3 C2 1_555 1_555
C3 C2 1_555 1_555
H4 C3 1_555 1_555
H5 C3 1_555 1_555
C4 N4 1_555 1_555
H6 C4 1_555 1_555
C5 N3 1_555 1_555
H7 C5 1_555 1_555
C6 C3 1_555 1_555
H8 C6 1_555 1_555
H9 C6 1_555 1_555
C7 N2 1_555 1_555
H10 C7 1_555 1_555
H11 C7 1_555 1_555
C8 C7 1_555 1_555
H12 C8 1_555 1_555
H13 C8 1_555 1_555
C9 N5 1_555 1_555
H14 C9 1_555 1_555
C10 N6 1_555 1_555
H15 C10 1_555 1_555
C11 C8 1_555 1_555
H16 C11 1_555 1_555
H17 C11 1_555 1_555
C12 N7 1_555 1_555
H18 C12 1_555 1_555
N10 C6 1_555 1_555
N11 N10 1_555 1_555
C13 N10 1_555 1_555
H19 C13 1_555 1_555
N12 C13 1_555 1_555
C14 N11 1_555 1_555
H20 C14 1_555 1_555
Mo1A O9A 1_555 1_555
Mo2A O2A 1_555 1_555
Mo3A O11 1_555 1_555
Mo4A O5 1_555 1_555
Mo5A O14 1_555 1_555
Mn1A O15 1_555 1_555
Mn1A_2 O8 1_555 1_555
Ag1A N8A 1_555 1_555
Ag1A_2 N9A 1_555 1_555
Ag1_2 N8_2 1_555 1_555
Ag2A N3_2 1_555 1_555
Ag2A_2 N3 1_555 1_555
Ag2_2 N12 1_555 1_555
N1A N2A 1_555 1_555
N2A C5A 1_555 1_555
N3A Ag2 1_555 1_555
N4_2 N5_2 1_555 1_555
N5_2 C2_2 1_555 1_555
N6A N7A 1_555 1_555
N7A C11A 1_555 1_555
N8_2 C4_2 1_555 1_555
N9A C10A 1_555 1_555
N9A_2 Ag1A 1_555 1_555
O2A P1 1_555 1_555
O4A P1 1_555 1_555
O5A Mo4 1_555 1_555
O6A Mo3A 1_555 1_555
O7A Mo2A 1_555 1_555
O8_2 Mn1A 1_555 1_555
O9A Mo5A 1_555 1_555
O10A Mo3A 1_555 1_555
O11A Mo3 1_555 1_555
O12A Mo4 1_555 1_555
O13A Mo2A 1_555 1_555
O14A Mo5 1_555 1_555
O15A Mo3 1_555 1_555
O16A Mn1 1_555 1_555
O17A Mo4A 1_555 1_555
O18A Mo2A 1_555 1_555
O19A Mo1A 1_555 1_555
O20A Mo2A 1_555 1_555
O21A Mo1A 1_555 1_555
O22A Mo5A 1_555 1_555
O23A Mo3A 1_555 1_555
O24A Mo4A 1_555 1_555
C1A N1A 1_555 1_555
H1A C1A 1_555 1_555
C2_2 H2_2 1_555 1_555
H3_2 C2_2 1_555 1_555
C3_2 C2_2 1_555 1_555
H4_2 C3_2 1_555 1_555
H5_2 C3_2 1_555 1_555
C4_2 N4_2 1_555 1_555
H6_2 C4_2 1_555 1_555
C5A N3A 1_555 1_555
H7A C5A 1_555 1_555
C6_2 C3_2 1_555 1_555
H8_2 C6_2 1_555 1_555
H9_2 C6_2 1_555 1_555
C7A N2A 1_555 1_555
H10A C7A 1_555 1_555
H11A C7A 1_555 1_555
C8A C7A 1_555 1_555
H12A C8A 1_555 1_555
H13A C8A 1_555 1_555
C9_2 N5_2 1_555 1_555
H14_2 C9_2 1_555 1_555
C10A N6A 1_555 1_555
H15A C10A 1_555 1_555
C11A C8A 1_555 1_555
H16A C11A 1_555 1_555
H17A C11A 1_555 1_555
C12A N7A 1_555 1_555
H18A C12A 1_555 1_555
N10_2 C6_2 1_555 1_555
N11_2 N10_2 1_555 1_555
C13_2 N10_2 1_555 1_555
H19_2 C13_2 1_555 1_555
N12_2 Ag2 1_555 1_555
N12A Ag2A 1_555 1_555
C14_2 N11_2 1_555 1_555
H20_2 C14_2 1_555 1_555
Mo2 O21 1_555 1_555
Mo4 O20 1_555 1_555
Mo5 O10 1_555 1_555
Mo5 O18 1_555 1_555
Mn1 O6 1_555 1_555
Mn1 O7 1_555 1_555
Mn1 O17 1_555 1_555
Mn1 O15A 1_555 1_555
P1 O5 1_555 1_555
P1 O15 1_555 1_555
P1 O5A 1_555 1_555
P1 O15A 1_555 1_555
Ag1 O23 1_555 1_555
N8 C9 1_555 1_555
N9 C10 1_555 1_555
N9 C12 1_555 1_555
O2 O5A 1_555 1_555
O4 O5 1_555 1_555
O4 O15 1_555 1_555
O5 O2A 1_555 1_555
O5 O15A 1_555 1_555
O12 Mo4A 1_555 1_555
O15 Mo3A 1_555 1_555
O15 O5A 1_555 1_555
O16 Mn1A 1_555 1_555
N12 C14 1_555 1_555
Mo1A O11A 1_555 1_555
Mo1A O15A 1_555 1_555
Mo1A O16A 1_555 1_555
Mo2A O21A 1_555 1_555
Mo3A O5A 1_555 1_555
Mo3A O12A 1_555 1_555
Mo4A O2A 1_555 1_555
Mo4A O14A 1_555 1_555
Mo4A O20A 1_555 1_555
Mo5A O4A 1_555 1_555
Mo5A O5A 1_555 1_555
Mo5A O10A 1_555 1_555
Mo5A O18A 1_555 1_555
Mn1A O2A 1_555 1_555
Mn1A O6A 1_555 1_555
Mn1A O7A 1_555 1_555
Mn1A O17A 1_555 1_555
Ag1A O23A 1_555 1_555
Ag2A O17A 1_555 1_555
N3A C1A 1_555 1_555
N8_2 C9_2 1_555 1_555
N9A C12A 1_555 1_555
O2A O4A 1_555 1_555
O4A O5A 1_555 1_555
O4A O15A 1_555 1_555
C13_2 N12_2 1_555 1_555
N12_2 C14_2 1_555 1_555

#END
