
#######################################################################
#
#                 Cambridge Crystallographic Data Centre
#                                CCDC 
#
#######################################################################
#
# If this CIF has been generated from an entry in the Cambridge 
# Structural Database, then it will include bibliographic, chemical, 
# crystal, experimental, refinement or atomic coordinate data resulting 
# from the CCDC's data processing and validation procedures.
#
#######################################################################

data_VAYWID
_symmetry_cell_setting           monoclinic
_symmetry_space_group_name_H-M   'P 21/c'
_symmetry_Int_Tables_number      14
_space_group_name_Hall           '-P 2ybc'
loop_
_symmetry_equiv_pos_site_id
_symmetry_equiv_pos_as_xyz
1 x,y,z
2 -x,1/2+y,1/2-z
3 -x,-y,-z
4 x,1/2-y,1/2+z
_cell_length_a                   13.056(1)
_cell_length_b                   22.964(1)
_cell_length_c                   11.808(1)
_cell_angle_alpha                90
_cell_angle_beta                 91.941(5)
_cell_angle_gamma                90
_cell_volume                     3538.22
loop_
_atom_site_label
_atom_site_type_symbol
_atom_site_fract_x
_atom_site_fract_y
_atom_site_fract_z
Ag1 Ag 0.5000 0.5000 0.0000
Ag2 Ag -0.11678(9) 0.29892(6) -0.39013(10)
Ag3 Ag 0.24034(10) 0.28860(6) -0.72693(11)
N1 N 0.4787(11) 0.4710(7) -0.1692(12)
N2 N 0.4163(12) 0.4571(8) -0.3338(14)
N3 N 0.5129(13) 0.4428(8) -0.3450(15)
N4 N 0.1418(9) 0.3755(5) -0.5522(10)
N5 N 0.0073(10) 0.3288(6) -0.4937(10)
N6 N 0.1498(9) 0.3208(5) -0.5948(10)
N7 N -0.2108(9) 0.2687(6) -0.5695(11)
N8 N -0.2637(8) 0.3053(5) -0.6426(11)
C1 C 0.2223(11) 0.4203(7) -0.5633(13)
H1 H 0.1918 0.4588 -0.5629
H2 H 0.2565 0.4152 -0.6342
C2 C 0.2997(12) 0.4140(9) -0.4634(15)
H3 H 0.2637 0.4026 -0.3964
H4 H 0.3481 0.3834 -0.4802
C3 C 0.5457(16) 0.4496(10) -0.244(2)
H5 H 0.3872 0.5597 0.2214
C4 C 0.3548(16) 0.4670(9) -0.4401(18)
H6 H 0.6924 0.5009 0.4308
H7 H 0.6007 0.5238 0.5019
C5 C 0.0576(12) 0.3801(8) -0.4926(12)
H8 H 0.0365 0.4137 -0.4558
C6 C 0.6008(15) 0.5263(9) 0.2324(18)
H9 H 0.6643 0.5139 0.2085
C7 C 0.0691(12) 0.2956(7) -0.5572(13)
H10 H 0.0543 0.2567 -0.5730
C8 C 0.8276(11) 0.2681(7) -1.1376(14)
H11 H 0.8684 0.2990 -1.1120
C9 C 0.7468(11) 0.2128(8) -1.2451(14)
H12 H 0.7168 0.1950 -1.3088
C10 C -0.3224(10) 0.3547(6) -0.6008(13)
H13 H 0.6712 0.1160 -1.1598
H14 H 0.7144 0.1281 -1.0365
C11 C -0.4295(12) 0.3366(7) -0.5651(15)
H15 H 0.5332 0.1291 -1.0419
H16 H 0.5334 0.1804 -1.1296
N9 N 0.8053(9) 0.2595(6) -1.2480(10)
C12 C -0.4255(12) 0.2944(9) -0.4718(15)
H17 H 0.6055 0.1869 -0.9054
H18 H 0.6188 0.2376 -0.9923
N10 N -0.5258(7) 0.2705(5) -0.4417(10)
N11 N -0.5851(10) 0.2420(5) -0.5168(8)
C13 C -0.6659(9) 0.2218(5) -0.4634(11)
H19 H 0.2805 0.2998 -0.9960
N12 N -0.6565(8) 0.2378(5) -0.3553(9)
C14 C 0.4301(9) 0.2321(5) -0.8419(9)
H20 H 0.4554 0.2158 -0.7745
Ag2C Ag 0.88322(9) 0.20108(6) -0.89013(10)
Ag2_2 Ag 0.88322(9) 0.29892(6) -1.39013(10)
Ag2B Ag 1.11678(9) 0.70108(6) 0.39013(10)
Ag2C_2 Ag -0.11678(9) 0.20108(6) -0.89013(10)
Ag3C Ag -0.75966(10) 0.21140(6) -0.22693(11)
Ag3B Ag 0.75966(10) 0.71140(6) 0.72693(11)
N1B N 0.5213(11) 0.5290(7) 0.1692(12)
N2B N 0.5837(12) 0.5429(8) 0.3338(14)
N3B N 0.4871(13) 0.5572(8) 0.3450(15)
N4B N 0.8582(9) 0.6245(5) 0.5522(10)
N5B N 0.9927(10) 0.6712(6) 0.4937(10)
N6B N 0.8502(9) 0.6792(5) 0.5948(10)
N7C N 0.7892(9) 0.2313(6) -1.0695(11)
N7B N 1.2108(9) 0.7313(6) 0.5695(11)
N8C N 0.7363(8) 0.1947(5) -1.1426(11)
C1B C 0.7777(11) 0.5797(7) 0.5633(13)
H1B H 0.8082 0.5412 0.5629
H2B H 0.7435 0.5848 0.6342
C2B C 0.7003(12) 0.5860(9) 0.4634(15)
H3B H 0.7363 0.5974 0.3964
H4B H 0.6519 0.6166 0.4802
C3B C 0.4543(16) 0.5504(10) 0.244(2)
H5B H 0.6128 0.4403 -0.2214
C4B C 0.6452(16) 0.5330(9) 0.4401(18)
H6B H 0.3076 0.4991 -0.4308
H7B H 0.3993 0.4762 -0.5019
C5B C 0.9424(12) 0.6199(8) 0.4926(12)
H8B H 0.9635 0.5863 0.4558
C6B C 0.3992(15) 0.4737(9) -0.2324(18)
H9B H 0.3357 0.4861 -0.2085
C7B C 0.9309(12) 0.7044(7) 0.5572(13)
H10B H 0.9457 0.7433 0.5730
C8C C -0.1724(11) 0.2319(7) -0.6376(14)
H11C H -0.1316 0.2010 -0.6120
C9C C -0.2532(11) 0.2872(8) -0.7451(14)
H12C H -0.2832 0.3050 -0.8088
C10C C 0.6776(10) 0.1453(6) -1.1008(13)
H13C H -0.3288 0.3840 -0.6598
H14C H -0.2856 0.3719 -0.5365
C11C C 0.5705(12) 0.1634(7) -1.0651(15)
H15C H -0.4668 0.3709 -0.5419
H16C H -0.4666 0.3196 -0.6296
N9_2 N -0.1947(9) 0.2595(6) -0.2480(10)
N9C N -0.1947(9) 0.2405(6) -0.7480(10)
N9B N 1.1947(9) 0.7405(6) 0.2480(10)
C12C C 0.5745(12) 0.2056(9) -0.9718(15)
H17C H -0.3945 0.3131 -0.4054
H18C H -0.3812 0.2624 -0.4923
N10C N 0.4742(7) 0.2295(5) -0.9417(10)
N11C N 0.4149(10) 0.2580(5) -1.0168(8)
C13C C 0.3341(9) 0.2782(5) -0.9634(11)
H19C H -0.7195 0.2002 -0.4960
N12C N 0.3435(8) 0.2622(5) -0.8553(9)
N12A N 0.6565(8) 0.7378(5) 0.8553(9)
C14C C -0.5699(9) 0.2679(5) -0.3419(9)
H20C H -0.5446 0.2842 -0.2745
Mo1 Mo 0.01725(10) -0.64377(6) 1.11563(11)
Mo2 Mo 0.10855(9) -0.61559(5) 0.84025(11)
Mo3 Mo 0.08614(9) -0.47117(6) 0.72363(11)
Mo4 Mo 0.24300(9) -0.55899(6) 1.08353(11)
Mo5 Mo 0.22622(9) -0.41630(6) 0.96435(12)
Mo6 Mo -0.13605(10) -0.55829(6) 0.75980(11)
P1 P 0.0000 -0.5000 1.0000
O1 O 0.0112(12) -0.5266(7) 0.8801(15)
O2 O 0.1576(7) -0.6710(4) 0.7690(8)
O3 O 0.3315(7) -0.3772(4) 0.9466(8)
O4 O 0.0271(7) -0.7108(4) 1.1692(8)
O5 O 0.3557(6) -0.5867(4) 1.1240(8)
O6 O -0.0424(7) -0.5074(5) 0.6915(10)
O7 O 0.2818(8) -0.4911(4) 1.0014(9)
O8 O 0.1532(7) -0.6146(5) 1.1442(8)
O9 O 0.2171(8) -0.5946(5) 0.9398(8)
O10 O 0.2000(8) -0.4456(5) 0.8151(9)
O11 O -0.0292(7) -0.6138(5) 0.7791(10)
O12 O 0.2036(9) -0.4050(4) 1.1156(9)
O13 O 0.1357(7) -0.5502(5) 0.7501(9)
O14 O 0.0520(7) -0.6576(5) 0.9640(8)
O15 O -0.0202(7) -0.5999(5) 1.2467(9)
O16 O -0.0530(12) -0.5447(7) 1.0762(14)
O17 O -0.1224(7) -0.6403(5) 1.0710(9)
O18 O 0.2166(8) -0.5084(4) 1.2074(8)
O19 O 0.1052(12) -0.4840(7) 1.0489(13)
O20 O -0.2020(7) -0.5855(4) 0.6497(8)
O21 O 0.0654(12) -0.5555(8) 1.0059(15)
O22 O 0.1273(7) -0.4599(5) 0.5956(8)
Mo1B Mo -0.01725(10) -0.35623(6) 0.88437(11)
Mo2B Mo -0.10855(9) -0.38441(5) 1.15975(11)
Mo3B Mo -0.08614(9) -0.52883(6) 1.27637(11)
Mo4B Mo -0.24300(9) -0.44101(6) 0.91647(11)
Mo5B Mo -0.22622(9) -0.58370(6) 1.03565(12)
Mo6B Mo 0.13605(10) -0.44171(6) 1.24020(11)
O1B O -0.0112(12) -0.4734(7) 1.1199(15)
O2B O -0.1576(7) -0.3290(4) 1.2310(8)
O3B O -0.3315(7) -0.6228(4) 1.0534(8)
O4B O -0.0271(7) -0.2892(4) 0.8308(8)
O5B O -0.3557(6) -0.4133(4) 0.8760(8)
O6B O 0.0424(7) -0.4926(5) 1.3085(10)
O7B O -0.2818(8) -0.5089(4) 0.9986(9)
O8B O -0.1532(7) -0.3854(5) 0.8558(8)
O9B O -0.2171(8) -0.4054(5) 1.0602(8)
O10B O -0.2000(8) -0.5544(5) 1.1849(9)
O11B O 0.0292(7) -0.3862(5) 1.2209(10)
O12B O -0.2036(9) -0.5950(4) 0.8844(9)
O13B O -0.1357(7) -0.4498(5) 1.2499(9)
O14B O -0.0520(7) -0.3424(5) 1.0360(8)
O15B O 0.0202(7) -0.4001(5) 0.7533(9)
O16B O 0.0530(12) -0.4553(7) 0.9238(14)
O17B O 0.1224(7) -0.3597(5) 0.9290(9)
O18B O -0.2166(8) -0.4916(4) 0.7926(8)
O19B O -0.1052(12) -0.5160(7) 0.9511(13)
O20B O 0.2020(7) -0.4145(4) 1.3503(8)
O21B O -0.0654(12) -0.4445(8) 0.9941(15)
O22B O -0.1273(7) -0.5401(5) 1.4044(8)
loop_
_geom_bond_atom_site_label_1
_geom_bond_atom_site_label_2
_geom_bond_site_symmetry_1
_geom_bond_site_symmetry_2
Mo1 O4 1_555 1_555
Mo2 O1 1_555 1_555
Mo3 O1 1_555 1_555
Mo4 O5 1_555 1_555
Mo5 O3 1_555 1_555
Mo6 O1 1_555 1_555
P1 O1 1_555 1_555
Ag1 N1 1_555 1_555
Ag2 N5 1_555 1_555
Ag3 N6 1_555 1_555
N1 C3 1_555 1_555
N2 N3 1_555 1_555
N3 C3 1_555 1_555
N4 N6 1_555 1_555
N5 C5 1_555 1_555
N6 C7 1_555 1_555
N7 Ag2 1_555 1_555
N8 N7 1_555 1_555
C1 N4 1_555 1_555
H1 C1 1_555 1_555
H2 C1 1_555 1_555
C2 C1 1_555 1_555
H3 C2 1_555 1_555
H4 C2 1_555 1_555
C3 H5B 1_555 1_555
H5 C3B 1_555 1_555
C4 N2 1_555 1_555
H6 C4B 1_555 1_555
H7 C4B 1_555 1_555
C5 N4 1_555 1_555
H8 C5 1_555 1_555
C6 H9 1_555 1_555
C7 N5 1_555 1_555
H10 C7 1_555 1_555
C8 H11 1_555 1_555
C9 H12 1_555 1_555
C10 N8 1_555 1_555
H13 C10C 1_555 1_555
H14 C10C 1_555 1_555
C11 C10 1_555 1_555
H15 C11C 1_555 1_555
H16 C11C 1_555 1_555
O1 O21 1_555 1_555
O2 Mo2 1_555 1_555
O6 Mo3 1_555 1_555
O7 Mo4 1_555 1_555
O8 Mo1 1_555 1_555
O9 Mo2 1_555 1_555
O10 Mo3 1_555 1_555
O11 Mo2 1_555 1_555
O12 Mo5 1_555 1_555
O13 Mo2 1_555 1_555
O14 Mo1 1_555 1_555
O15 Mo1 1_555 1_555
O16 Mo1 1_555 1_555
O17 Mo1 1_555 1_555
O18 Mo4 1_555 1_555
O19 Mo4 1_555 1_555
O20 Mo6 1_555 1_555
O21 Mo1 1_555 1_555
O22 Mo3 1_555 1_555
N9 C8 1_555 1_555
C12 C11 1_555 1_555
H17 C12C 1_555 1_555
H18 C12C 1_555 1_555
N10 C12 1_555 1_555
N11 N10 1_555 1_555
C13 N11 1_555 1_555
H19 C13C 1_555 1_555
N12 C13 1_555 1_555
C14 H20 1_555 1_555
Mo1B O4B 1_555 1_555
Mo2B O1B 1_555 1_555
Mo3B O15 1_555 1_555
Mo4B O5B 1_555 1_555
Mo5B O16 1_555 1_555
Mo6B O12 1_555 1_555
Ag2C N7C 1_555 1_555
Ag2_2 N9 1_555 1_555
Ag2B N5B 1_555 1_555
Ag2C_2 N9C 1_555 1_555
Ag3C N12 1_555 1_555
Ag3B N6B 1_555 1_555
N1B Ag1 1_555 1_555
N2B C6 1_555 1_555
N3B N2B 1_555 1_555
N4B N6B 1_555 1_555
N5B C5B 1_555 1_555
N6B C7B 1_555 1_555
N7C C8 1_555 1_555
N7B Ag2B 1_555 1_555
N8C C9 1_555 1_555
C1B N4B 1_555 1_555
H1B C1B 1_555 1_555
H2B C1B 1_555 1_555
C2B C1B 1_555 1_555
H3B C2B 1_555 1_555
H4B C2B 1_555 1_555
C3B N1B 1_555 1_555
C4B N2B 1_555 1_555
H6B C4 1_555 1_555
H7B C4 1_555 1_555
C5B N4B 1_555 1_555
H8B C5B 1_555 1_555
C6B N1 1_555 1_555
H9B C6B 1_555 1_555
C7B N5B 1_555 1_555
H10B C7B 1_555 1_555
C8C N7 1_555 1_555
H11C C8C 1_555 1_555
C9C N8 1_555 1_555
H12C C9C 1_555 1_555
C10C N8C 1_555 1_555
H13C C10 1_555 1_555
H14C C10 1_555 1_555
C11C C10C 1_555 1_555
H15C C11 1_555 1_555
H16C C11 1_555 1_555
O1B P1 1_555 1_555
O2B Mo2B 1_555 1_555
O3B Mo5B 1_555 1_555
O6B Mo3B 1_555 1_555
O7B Mo4B 1_555 1_555
O8B Mo1B 1_555 1_555
O9B Mo2B 1_555 1_555
O10B Mo3B 1_555 1_555
O11B Mo2B 1_555 1_555
O12B Mo6 1_555 1_555
O13B Mo2B 1_555 1_555
O14B Mo1B 1_555 1_555
O15B Mo3 1_555 1_555
O16B Mo3 1_555 1_555
O17B Mo5 1_555 1_555
O18B Mo6 1_555 1_555
O19B Mo6 1_555 1_555
O20B Mo6B 1_555 1_555
O21B P1 1_555 1_555
O22B Mo3B 1_555 1_555
N9_2 Ag2 1_555 1_555
N9C C8C 1_555 1_555
N9B Ag2B 1_555 1_555
C12C C11C 1_555 1_555
H17C C12 1_555 1_555
H18C C12 1_555 1_555
N10C C14 1_555 1_555
N11C N10C 1_555 1_555
C13C N11C 1_555 1_555
H19C C13 1_555 1_555
N12C Ag3 1_555 1_555
N12A Ag3B 1_555 1_555
C14C N10 1_555 1_555
H20C C14C 1_555 1_555
Mo2 O14 1_555 1_555
Mo2 O21 1_555 1_555
Mo3 O13 1_555 1_555
Mo4 O8 1_555 1_555
Mo4 O9 1_555 1_555
Mo4 O21 1_555 1_555
Mo5 O7 1_555 1_555
Mo5 O10 1_555 1_555
Mo5 O19 1_555 1_555
Mo5 O16B 1_555 1_555
Mo6 O6 1_555 1_555
Mo6 O11 1_555 1_555
P1 O16 1_555 1_555
P1 O19 1_555 1_555
P1 O21 1_555 1_555
P1 O16B 1_555 1_555
P1 O19B 1_555 1_555
N2 C6B 1_555 1_555
C2 C4 1_555 1_555
C6 N1B 1_555 1_555
C9 N9 1_555 1_555
O1 O16B 1_555 1_555
O1 O19B 1_555 1_555
O16 O21 1_555 1_555
O16 Mo3B 1_555 1_555
O16 O1B 1_555 1_555
O16 O19B 1_555 1_555
O17 Mo5B 1_555 1_555
O18 Mo6B 1_555 1_555
O19 O21 1_555 1_555
O19 Mo6B 1_555 1_555
O19 O1B 1_555 1_555
O19 O16B 1_555 1_555
N12 C14C 1_555 1_555
C14 N12C 1_555 1_555
Mo1B O15B 1_555 1_555
Mo1B O16B 1_555 1_555
Mo1B O17B 1_555 1_555
Mo1B O21B 1_555 1_555
Mo2B O14B 1_555 1_555
Mo2B O21B 1_555 1_555
Mo3B O1B 1_555 1_555
Mo3B O13B 1_555 1_555
Mo4B O8B 1_555 1_555
Mo4B O9B 1_555 1_555
Mo4B O18B 1_555 1_555
Mo4B O19B 1_555 1_555
Mo4B O21B 1_555 1_555
Mo5B O7B 1_555 1_555
Mo5B O10B 1_555 1_555
Mo5B O12B 1_555 1_555
Mo5B O19B 1_555 1_555
Mo6B O1B 1_555 1_555
Mo6B O6B 1_555 1_555
Mo6B O11B 1_555 1_555
N3B C3B 1_555 1_555
N7C N8C 1_555 1_555
C2B C4B 1_555 1_555
C9C N9C 1_555 1_555
O1B O21B 1_555 1_555
O16B O21B 1_555 1_555
O19B O21B 1_555 1_555
C12C N10C 1_555 1_555
C13C N12C 1_555 1_555

#END
