
#######################################################################
#
#                 Cambridge Crystallographic Data Centre
#                                CCDC 
#
#######################################################################
#
# If this CIF has been generated from an entry in the Cambridge 
# Structural Database, then it will include bibliographic, chemical, 
# crystal, experimental, refinement or atomic coordinate data resulting 
# from the CCDC's data processing and validation procedures.
#
#######################################################################

data_VAYWEZ
_symmetry_cell_setting           monoclinic
_symmetry_space_group_name_H-M   'P 21/c'
_symmetry_Int_Tables_number      14
_space_group_name_Hall           '-P 2ybc'
loop_
_symmetry_equiv_pos_site_id
_symmetry_equiv_pos_as_xyz
1 x,y,z
2 -x,1/2+y,1/2-z
3 -x,-y,-z
4 x,1/2-y,1/2+z
_cell_length_a                   13.119(1)
_cell_length_b                   22.809(1)
_cell_length_c                   11.840(2)
_cell_angle_alpha                90
_cell_angle_beta                 91.946(1)
_cell_angle_gamma                90
_cell_volume                     3540.85
loop_
_atom_site_label
_atom_site_type_symbol
_atom_site_fract_x
_atom_site_fract_y
_atom_site_fract_z
Ag1 Ag 0.5000 0.0000 0.0000
Ag2 Ag 0.24028(9) 0.21330(6) -0.72493(11)
Ag3 Ag -0.11671(9) 0.20169(5) -0.39026(9)
N1 N 0.1495(8) 0.1804(5) -0.5912(10)
N2 N 0.7904(8) 0.2680(5) -1.0702(10)
N3 N 0.8039(8) 0.2379(5) -1.2476(10)
N4 N 0.7375(8) 0.3041(5) -1.1394(9)
N5 N 0.1416(8) 0.1241(5) -0.5521(8)
N6 N 0.0094(9) 0.1698(5) -0.4932(10)
C1 C 0.5535(8) 0.0496(8) -0.2388(10)
H1 H 0.6212 0.0567 -0.2172
N7 N 0.5129(8) 0.0563(8) -0.3402(10)
N8 N 0.4166(8) 0.0420(7) -0.3370(9)
C2 C 0.3977(8) 0.0266(8) -0.2336(9)
H2 H 0.3350 0.0144 -0.2077
N9 N 0.4823(8) 0.0313(7) -0.1728(9)
C3 C 0.3551(16) 0.0314(9) -0.4420(17)
H3 H 0.3986 0.0216 -0.5038
H4 H 0.3073 -0.0004 -0.4317
C4 C 0.3009(12) 0.0866(8) -0.4646(16)
H5 H 0.2675 0.0991 -0.3969
H6 H 0.3497 0.1167 -0.4838
C5 C 0.0665(11) 0.2048(6) -0.5551(12)
H7 H 0.0488 0.2435 -0.5714
C6 C 0.6797(11) 0.3523(6) -1.0961(15)
H8 H 0.7155 0.3681 -1.0299
H9 H 0.6751 0.3830 -1.1527
C7 C 0.5717(11) 0.3342(7) -1.0642(14)
H10 H 0.5376 0.3156 -1.1287
H11 H 0.5332 0.3689 -1.0455
C8 C 0.2208(11) 0.0804(7) -0.5620(14)
H12 H 0.1908 0.0416 -0.5602
H13 H 0.2534 0.0851 -0.6337
C9 C 0.7457(10) 0.2857(6) -1.2449(12)
H14 H 0.7152 0.3037 -1.3080
C10 C 0.8305(10) 0.2304(6) -1.1397(11)
H15 H 0.8743 0.2007 -1.1150
C11 C 0.0575(11) 0.1190(6) -0.4929(12)
H16 H 0.0362 0.0850 -0.4571
C12 C 0.5726(12) 0.2932(9) -0.9669(18)
H17 H 0.6005 0.3137 -0.9010
H18 H 0.6186 0.2611 -0.9827
N10 N 0.4759(10) 0.2689(7) -0.9389(12)
N11 N 0.4193(11) 0.2405(7) -1.0193(12)
C13 C 0.4301(12) 0.2658(8) -0.8405(14)
H19 H 0.4558 0.2818 -0.7731
C14 C 0.3412(13) 0.2229(8) -0.9608(16)
H20 H 0.2873 0.2018 -0.9938
N12 N 0.3441(9) 0.2372(6) -0.8514(11)
Ag2B Ag 0.75972(9) -0.21330(6) 0.72493(11)
Ag2C Ag -0.75972(9) 0.28670(6) -0.22493(11)
Ag3B Ag 1.11671(9) -0.20169(5) 0.39026(9)
Ag3C Ag 0.88329(9) 0.29831(5) -0.89026(9)
Ag3_2 Ag 0.88329(9) 0.20169(5) -1.39026(9)
Ag3C_2 Ag -0.11671(9) 0.29831(5) -0.89026(9)
N1B N 0.8505(8) -0.1804(5) 0.5912(10)
N2C N -0.2096(8) 0.2320(5) -0.5702(10)
N2A N 1.2096(8) -0.2320(5) 0.5702(10)
N3C N -0.1961(8) 0.2621(5) -0.7476(10)
N3_2 N -0.1961(8) 0.2379(5) -0.2476(10)
N3B N 1.1961(8) -0.2379(5) 0.2476(10)
N4C N -0.2625(8) 0.1959(5) -0.6394(9)
N5B N 0.8584(8) -0.1241(5) 0.5521(8)
N6B N 0.9906(9) -0.1698(5) 0.4932(10)
C1B C 0.4465(8) -0.0496(8) 0.2388(10)
H1B H 0.3788 -0.0567 0.2172
N7B N 0.4871(8) -0.0563(8) 0.3402(10)
N8B N 0.5834(8) -0.0420(7) 0.3370(9)
C2B C 0.6023(8) -0.0266(8) 0.2336(9)
H2B H 0.6650 -0.0144 0.2077
N9B N 0.5177(8) -0.0313(7) 0.1728(9)
C3B C 0.6449(16) -0.0314(9) 0.4420(17)
H3B H 0.6014 -0.0216 0.5038
H4B H 0.6927 0.0004 0.4317
C4B C 0.6991(12) -0.0866(8) 0.4646(16)
H5B H 0.7325 -0.0991 0.3969
H6B H 0.6503 -0.1167 0.4838
C5B C 0.9335(11) -0.2048(6) 0.5551(12)
H7B H 0.9512 -0.2435 0.5714
C6C C -0.3203(11) 0.1477(6) -0.5961(15)
H8C H -0.2845 0.1319 -0.5299
H9C H -0.3249 0.1170 -0.6527
C7C C -0.4283(11) 0.1658(7) -0.5642(14)
H10C H -0.4624 0.1844 -0.6287
H11C H -0.4668 0.1311 -0.5455
C8B C 0.7792(11) -0.0804(7) 0.5620(14)
H12B H 0.8092 -0.0416 0.5602
H13B H 0.7466 -0.0851 0.6337
C9C C -0.2543(10) 0.2143(6) -0.7449(12)
H14C H -0.2848 0.1963 -0.8080
C10C C -0.1695(10) 0.2696(6) -0.6397(11)
H15C H -0.1257 0.2993 -0.6150
C11B C 0.9425(11) -0.1190(6) 0.4929(12)
H16B H 0.9638 -0.0850 0.4571
C12C C -0.4274(12) 0.2068(9) -0.4669(18)
H17C H -0.3995 0.1863 -0.4010
H18C H -0.3814 0.2389 -0.4827
N10C N -0.5241(10) 0.2311(7) -0.4389(12)
N11C N -0.5807(11) 0.2595(7) -0.5193(12)
C13C C -0.5699(12) 0.2342(8) -0.3405(14)
H19C H -0.5442 0.2182 -0.2731
C14C C -0.6588(13) 0.2771(8) -0.4608(16)
H20C H -0.7127 0.2982 -0.4938
N12C N -0.6559(9) 0.2628(6) -0.3514(11)
N12B N 0.6559(9) -0.2372(6) 0.8514(11)
W1 W 1.22419(4) -0.08460(2) -0.03586(5)
W2 W 1.08721(4) -0.02760(2) -0.27625(4)
W3 W 0.75743(4) -0.05810(3) -0.08299(5)
W4 W 1.10821(4) 0.11598(2) -0.15819(4)
W5 W 0.98149(4) -0.14291(2) -0.11876(5)
W6 W 0.86464(4) 0.05828(2) -0.24004(4)
P1 P 1.0000 0.0000 0.0000
O1 O 1.0526(11) -0.0457(7) -0.0758(12)
O2 O 1.0099(11) 0.0267(6) -0.1179(12)
O3 O 0.9593(7) 0.0079(5) -0.3083(12)
O4 O 0.7856(8) -0.0086(5) -0.2063(10)
O5 O 0.6444(7) -0.0861(5) -0.1225(9)
O6 O 1.0194(8) -0.0979(5) -0.2460(9)
O7 O 1.0520(8) 0.1573(6) -0.0339(8)
O8 O 0.8463(8) -0.1148(6) -0.1440(8)
O9 O 0.9367(11) -0.0559(7) -0.0075(13)
O10 O 1.1198(8) -0.1406(5) -0.0675(9)
O11 O 1.2819(10) -0.0111(4) 0.0045(9)
O12 O 1.1969(8) -0.0558(5) -0.1839(9)
O13 O 0.9731(7) 0.1128(4) -0.2216(11)
O14 O 1.2021(10) -0.0965(4) 0.1200(8)
O15 O 1.1381(7) 0.0500(5) -0.2469(11)
O16 O 1.1040(11) -0.0153(7) 0.0513(13)
O17 O 1.3309(7) -0.1248(4) -0.0534(9)
O18 O 0.7997(8) 0.0860(4) -0.3527(8)
O19 O 0.7815(9) -0.0941(6) 0.0607(8)
O20 O 1.1591(7) 0.1708(4) -0.2299(9)
O21 O 1.1294(7) -0.0394(5) -0.4061(8)
O22 O 0.9707(8) -0.2109(4) -0.1728(8)
W1B W 0.77581(4) 0.08460(2) 0.03586(5)
W2B W 0.91279(4) 0.02760(2) 0.27625(4)
W3B W 1.24257(4) 0.05810(3) 0.08299(5)
W4B W 0.89179(4) -0.11598(2) 0.15819(4)
W5B W 1.01851(4) 0.14291(2) 0.11876(5)
W6B W 1.13536(4) -0.05828(2) 0.24004(4)
O1B O 0.9474(11) 0.0457(7) 0.0758(12)
O2B O 0.9901(11) -0.0267(6) 0.1179(12)
O3B O 1.0407(7) -0.0079(5) 0.3083(12)
O4B O 1.2144(8) 0.0086(5) 0.2063(10)
O5B O 1.3556(7) 0.0861(5) 0.1225(9)
O6B O 0.9806(8) 0.0979(5) 0.2460(9)
O7B O 0.9480(8) -0.1573(6) 0.0339(8)
O8B O 1.1537(8) 0.1148(6) 0.1440(8)
O9B O 1.0633(11) 0.0559(7) 0.0075(13)
O10B O 0.8802(8) 0.1406(5) 0.0675(9)
O11B O 0.7181(10) 0.0111(4) -0.0045(9)
O12B O 0.8031(8) 0.0558(5) 0.1839(9)
O13B O 1.0269(7) -0.1128(4) 0.2216(11)
O14B O 0.7979(10) 0.0965(4) -0.1200(8)
O15B O 0.8619(7) -0.0500(5) 0.2469(11)
O16B O 0.8960(11) 0.0153(7) -0.0513(13)
O17B O 0.6691(7) 0.1248(4) 0.0534(9)
O18B O 1.2003(8) -0.0860(4) 0.3527(8)
O19B O 1.2185(9) 0.0941(6) -0.0607(8)
O20B O 0.8409(7) -0.1708(4) 0.2299(9)
O21B O 0.8706(7) 0.0394(5) 0.4061(8)
O22B O 1.0293(8) 0.2109(4) 0.1728(8)
loop_
_geom_bond_atom_site_label_1
_geom_bond_atom_site_label_2
_geom_bond_site_symmetry_1
_geom_bond_site_symmetry_2
W1 O1 1_555 1_555
W2 O1 1_555 1_555
W3 O4 1_555 1_555
W4 O2 1_555 1_555
W5 O1 1_555 1_555
W6 O2 1_555 1_555
P1 O1 1_555 1_555
Ag1 N9 1_555 1_555
Ag2 N1 1_555 1_555
Ag3 N6 1_555 1_555
O1 O2 1_555 1_555
O2 W2 1_555 1_555
O3 W2 1_555 1_555
O4 W6 1_555 1_555
O5 W3 1_555 1_555
O6 W2 1_555 1_555
O7 W4 1_555 1_555
O8 W3 1_555 1_555
O9 W3 1_555 1_555
O10 W1 1_555 1_555
O11 W1 1_555 1_555
O12 W1 1_555 1_555
O13 W4 1_555 1_555
O14 W1 1_555 1_555
O15 W2 1_555 1_555
O16 W1 1_555 1_555
O17 W1 1_555 1_555
O18 W6 1_555 1_555
O19 W3 1_555 1_555
O20 W4 1_555 1_555
O21 W2 1_555 1_555
O22 W5 1_555 1_555
N1 N5 1_555 1_555
N2 N4 1_555 1_555
N3 C9 1_555 1_555
N4 C6 1_555 1_555
N5 C8 1_555 1_555
N6 C5 1_555 1_555
C1 H1 1_555 1_555
N7 C1 1_555 1_555
N8 N7 1_555 1_555
C2 N8 1_555 1_555
H2 C2 1_555 1_555
N9 C1 1_555 1_555
C3 N8 1_555 1_555
H3 C3 1_555 1_555
H4 C3 1_555 1_555
C4 C3 1_555 1_555
H5 C4 1_555 1_555
H6 C4 1_555 1_555
C5 N1 1_555 1_555
H7 C5 1_555 1_555
C6 H8 1_555 1_555
H9 C6 1_555 1_555
C7 C6 1_555 1_555
H10 C7 1_555 1_555
H11 C7 1_555 1_555
C8 C4 1_555 1_555
H12 C8 1_555 1_555
H13 C8 1_555 1_555
C9 N4 1_555 1_555
H14 C9 1_555 1_555
C10 N2 1_555 1_555
H15 C10 1_555 1_555
C11 N5 1_555 1_555
H16 C11 1_555 1_555
C12 C7 1_555 1_555
H17 C12 1_555 1_555
H18 C12 1_555 1_555
N10 C12 1_555 1_555
N11 N10 1_555 1_555
C13 N10 1_555 1_555
H19 C13 1_555 1_555
C14 N11 1_555 1_555
H20 C14 1_555 1_555
N12 Ag2 1_555 1_555
W1B O1B 1_555 1_555
W2B O1B 1_555 1_555
W3B O11 1_555 1_555
W4B O9 1_555 1_555
W5B O7 1_555 1_555
W6B O14 1_555 1_555
Ag2B N1B 1_555 1_555
Ag2C N12C 1_555 1_555
Ag3B N2A 1_555 1_555
Ag3C N2 1_555 1_555
Ag3_2 N3 1_555 1_555
Ag3C_2 N3C 1_555 1_555
O1B P1 1_555 1_555
O2B P1 1_555 1_555
O3B W2B 1_555 1_555
O4B W3B 1_555 1_555
O5B W3B 1_555 1_555
O6B W2B 1_555 1_555
O7B W5 1_555 1_555
O8B W3B 1_555 1_555
O9B W4 1_555 1_555
O10B W1B 1_555 1_555
O11B W3 1_555 1_555
O12B W1B 1_555 1_555
O13B W4B 1_555 1_555
O14B W6 1_555 1_555
O15B W2B 1_555 1_555
O16B W3 1_555 1_555
O17B W1B 1_555 1_555
O18B W6B 1_555 1_555
O19B W4 1_555 1_555
O20B W4B 1_555 1_555
O21B W2B 1_555 1_555
O22B W5B 1_555 1_555
N1B N5B 1_555 1_555
N2C Ag3 1_555 1_555
N3C C9C 1_555 1_555
N3_2 Ag3 1_555 1_555
N3B Ag3B 1_555 1_555
N4C N2C 1_555 1_555
N5B C8B 1_555 1_555
N6B Ag3B 1_555 1_555
C1B H1B 1_555 1_555
N7B C1B 1_555 1_555
N8B N7B 1_555 1_555
C2B N8B 1_555 1_555
H2B C2B 1_555 1_555
N9B Ag1 1_555 1_555
C3B N8B 1_555 1_555
H3B C3B 1_555 1_555
H4B C3B 1_555 1_555
C4B C3B 1_555 1_555
H5B C4B 1_555 1_555
H6B C4B 1_555 1_555
C5B N1B 1_555 1_555
H7B C5B 1_555 1_555
C6C N4C 1_555 1_555
H8C C6C 1_555 1_555
H9C C6C 1_555 1_555
C7C C6C 1_555 1_555
H10C C7C 1_555 1_555
H11C C7C 1_555 1_555
C8B C4B 1_555 1_555
H12B C8B 1_555 1_555
H13B C8B 1_555 1_555
C9C N4C 1_555 1_555
H14C C9C 1_555 1_555
C10C N2C 1_555 1_555
H15C C10C 1_555 1_555
C11B N5B 1_555 1_555
H16B C11B 1_555 1_555
C12C C7C 1_555 1_555
H17C C12C 1_555 1_555
H18C C12C 1_555 1_555
N10C C12C 1_555 1_555
N11C N10C 1_555 1_555
C13C N10C 1_555 1_555
H19C C13C 1_555 1_555
C14C N11C 1_555 1_555
H20C C14C 1_555 1_555
N12C C13C 1_555 1_555
N12B Ag2B 1_555 1_555
W2 O12 1_555 1_555
W4 O15 1_555 1_555
W5 O6 1_555 1_555
W5 O8 1_555 1_555
W5 O9 1_555 1_555
W5 O10 1_555 1_555
W6 O3 1_555 1_555
W6 O13 1_555 1_555
W6 O16B 1_555 1_555
P1 O2 1_555 1_555
P1 O9 1_555 1_555
P1 O16 1_555 1_555
P1 O9B 1_555 1_555
P1 O16B 1_555 1_555
O1 O9 1_555 1_555
O1 O16 1_555 1_555
O2 O9B 1_555 1_555
O2 O16B 1_555 1_555
O9 O2B 1_555 1_555
O9 O16B 1_555 1_555
O16 W3B 1_555 1_555
O16 W6B 1_555 1_555
O16 O2B 1_555 1_555
O16 O9B 1_555 1_555
O19 W4B 1_555 1_555
N3 C10 1_555 1_555
N6 C11 1_555 1_555
C2 N9 1_555 1_555
C13 N12 1_555 1_555
C14 N12 1_555 1_555
W1B O11B 1_555 1_555
W1B O14B 1_555 1_555
W1B O16B 1_555 1_555
W2B O2B 1_555 1_555
W2B O12B 1_555 1_555
W3B O9B 1_555 1_555
W3B O19B 1_555 1_555
W4B O2B 1_555 1_555
W4B O7B 1_555 1_555
W4B O15B 1_555 1_555
W5B O1B 1_555 1_555
W5B O6B 1_555 1_555
W5B O8B 1_555 1_555
W5B O9B 1_555 1_555
W5B O10B 1_555 1_555
W6B O2B 1_555 1_555
W6B O3B 1_555 1_555
W6B O4B 1_555 1_555
W6B O13B 1_555 1_555
O1B O2B 1_555 1_555
O1B O9B 1_555 1_555
O1B O16B 1_555 1_555
N3C C10C 1_555 1_555
N6B C5B 1_555 1_555
N6B C11B 1_555 1_555
C1B N9B 1_555 1_555
C2B N9B 1_555 1_555
C14C N12C 1_555 1_555

#END
