
#######################################################################
#
#                 Cambridge Crystallographic Data Centre
#                                CCDC 
#
#######################################################################
#
# If this CIF has been generated from an entry in the Cambridge 
# Structural Database, then it will include bibliographic, chemical, 
# crystal, experimental, refinement or atomic coordinate data resulting 
# from the CCDC's data processing and validation procedures.
#
#######################################################################

data_VAYWAV
_symmetry_cell_setting           triclinic
_symmetry_space_group_name_H-M   'P -1'
_symmetry_Int_Tables_number      2
_space_group_name_Hall           '-P 1'
loop_
_symmetry_equiv_pos_site_id
_symmetry_equiv_pos_as_xyz
1 x,y,z
2 -x,-y,-z
_cell_length_a                   10.906(1)
_cell_length_b                   13.636(1)
_cell_length_c                   13.871(1)
_cell_angle_alpha                64.972(1)
_cell_angle_beta                 73.321(1)
_cell_angle_gamma                69.853(1)
_cell_volume                     1730.38
loop_
_atom_site_label
_atom_site_type_symbol
_atom_site_fract_x
_atom_site_fract_y
_atom_site_fract_z
Na1 Na 0.5000 0.0000 0.5000
O1 O -0.1027(13) 0.7782(10) 0.4748(11)
O3 O 0.7128(10) 0.9729(10) 0.5281(9)
Mo1 Mo 0.77788(9) 0.27004(7) 0.97874(7)
Mo2 Mo 0.41255(9) 0.51240(8) 0.76655(7)
Mo3 Mo 0.45638(8) 0.75550(6) 0.77745(7)
Mo4 Mo 0.44451(9) 0.25967(7) 0.99346(7)
Mo5 Mo 0.73829(9) 0.52874(8) 0.75943(7)
Mn1 Mn 0.82224(11) 0.50371(10) 0.99726(9)
P1 P 0.5000 0.5000 1.0000
Cu1 Cu 0.35124(15) 0.50302(11) 0.48739(12)
Cu2 Cu 0.06439(15) 0.55596(11) 0.75232(15)
N1 N -0.0069(9) 1.2905(7) 0.2628(8)
N2 N 0.1248(10) 0.2570(8) 0.7213(9)
N3 N 0.1633(9) 0.2250(7) 0.8182(8)
N4 N 0.4345(8) 0.1746(7) 0.6714(7)
N5 N 0.0043(9) 1.1233(7) 0.2818(8)
N6 N 0.1275(10) 1.1204(8) 0.2883(10)
N7 N 0.1083(9) 0.4078(8) 0.7563(10)
N8 N 0.4254(10) 0.1649(7) 0.5801(7)
N9 N 0.3987(9) 0.3447(8) 0.5522(8)
O2 O 0.5160(11) 0.5591(9) 0.8780(9)
O4 O 0.8429(7) 0.5465(6) 0.6422(6)
O5 O 0.4402(8) 0.8746(7) 0.6724(6)
O6 O 1.0000 0.5000 1.0000
O7 O 0.6325(8) 0.6762(9) 0.7346(10)
O8 O 0.6488(11) 0.4573(10) 0.9544(9)
O9 O 0.2451(10) 0.5324(9) 0.8486(8)
O10 O 0.4260(9) 0.1464(7) 0.9868(7)
O11 O 0.8995(8) 0.1583(8) 0.9716(7)
O12 O 0.3770(8) 0.5217(6) 0.6527(6)
O13 O 0.5445(12) 0.3793(10) 1.0338(10)
O14 O 0.8274(9) 0.5452(8) 0.8430(8)
O15 O 0.7897(10) 0.3694(8) 0.8337(8)
O16 O 0.6369(8) 0.2317(7) 0.9583(6)
O17 O 0.3955(10) 0.6696(8) 0.7345(8)
O18 O 0.5376(8) 0.7882(8) 0.8627(6)
O19 O 0.7029(7) 0.2181(8) 1.1317(6)
O20 O 0.4495(10) 0.3566(9) 0.8403(8)
O21 O 0.2734(11) 0.3391(9) 1.0189(9)
O22 O 0.5788(12) 0.5470(10) 1.0421(10)
O23 O 0.8571(10) 0.3488(8) 1.0119(8)
O24 O 0.5992(10) 0.5011(9) 0.7235(8)
C1 C 0.1160(12) 1.2236(10) 0.2748(11)
H1 H 0.1859 1.2485 0.2737
C2 C 0.0926(11) 0.3661(10) 0.6888(13)
H2 H 0.0613 0.4119 0.6242
C3 C 0.4198(10) 0.2808(8) 0.6535(9)
H3 H 0.4236 0.3074 0.7039
C4 C 0.4463(10) 0.0772(9) 0.7717(9)
H4 H 0.4710 0.0952 0.8230
H5 H 0.5163 0.0156 0.7574
C5 C 0.1520(11) 0.3151(10) 0.8372(12)
H6 H 0.1717 0.3139 0.8987
C6 C 0.2103(11) 0.1063(9) 0.8834(10)
H7 H 0.1361 0.0726 0.9127
H8 H 0.2437 0.1010 0.9436
C7 C 0.0522(14) 0.9719(10) 0.2098(11)
H9 H 0.0155 0.9127 0.2184
H10 H 0.0385 1.0295 0.1397
C8 C 0.3174(11) 0.0408(8) 0.8212(9)
H11 H 0.2813 0.0438 0.7634
H12 H 0.3389 -0.0369 0.8690
C9 C 0.4043(12) 0.2677(9) 0.5125(9)
H13 H 0.3938 0.2870 0.4420
C10 C -0.0740(11) 1.2252(9) 0.2654(10)
H14 H -0.1622 1.2474 0.2569
C11 C -0.0257(11) 1.0213(9) 0.2947(11)
H15 H -0.0087 0.9656 0.3649
H16 H -0.1194 1.0380 0.2935
C12 C 0.1998(12) 0.9245(9) 0.2090(9)
H17 H 0.2376 0.9830 0.2005
H18 H 0.2391 0.9018 0.1470
N10 N 0.2352(9) 0.8285(7) 0.3064(7)
N11 N 0.2345(10) 0.8435(8) 0.3976(8)
C13 C 0.2670(11) 0.7211(9) 0.3218(10)
H19 H 0.2729 0.6923 0.2702
C14 C 0.2685(12) 0.7397(9) 0.4655(9)
H20 H 0.2776 0.7220 0.5361
N12 N 0.2893(9) 0.6601(7) 0.4224(7)
Mo1A Mo 0.22212(9) 0.72996(7) 1.02126(7)
Mo2A Mo 0.58745(9) 0.48760(8) 1.23345(7)
Mo3A Mo 0.54362(8) 0.24450(6) 1.22255(7)
Mo4A Mo 0.55549(9) 0.74033(7) 1.00654(7)
Mo5A Mo 0.26171(9) 0.47126(8) 1.24057(7)
Mn1A Mn 0.17776(11) 0.49629(10) 1.00274(9)
Mn1A_2 Mn 1.17776(11) 0.49629(10) 1.00274(9)
Cu1A Cu 0.64876(15) 0.49698(11) 1.51261(12)
Cu1A_2 Cu -0.35124(15) 1.49698(11) 0.51261(12)
Cu2A Cu 0.93561(15) 0.44404(11) 1.24768(15)
Cu2A_2 Cu -0.06439(15) 1.44404(11) 0.24768(15)
Cu2_2 Cu 1.06439(15) 0.55596(11) 0.75232(15)
Cu2A_3 Cu -0.06439(15) 0.44404(11) 1.24768(15)
N1A N 0.0069(9) 0.7095(7) 0.7372(8)
N1_2 N 0.9931(9) 0.2905(7) 1.2628(8)
N2A N 0.8752(10) 0.7430(8) 1.2787(9)
N3A N 0.8367(9) 0.7750(7) 1.1818(8)
N4A N 0.5655(8) 0.8254(7) 1.3286(7)
N5A N -0.0043(9) 0.8767(7) 0.7182(8)
N6A N -0.1275(10) 0.8796(8) 0.7117(10)
N7A N 0.8917(9) 0.5922(8) 1.2437(10)
N8A N 0.5746(10) 0.8351(7) 1.4199(7)
N9A N 0.6013(9) 0.6553(8) 1.4478(8)
O2A O 0.4840(11) 0.4409(9) 1.1220(9)
O4A O 0.1571(7) 0.4535(6) 1.3578(6)
O5A O 0.5598(8) 0.1254(7) 1.3276(6)
O6_2 O 0.0000 0.5000 1.0000
O7A O 0.3675(8) 0.3238(9) 1.2654(10)
O8A O 0.3512(11) 0.5427(10) 1.0456(9)
O9A O 0.7549(10) 0.4676(9) 1.1514(8)
O10A O 0.5740(9) 0.8536(7) 1.0132(7)
O11A O 0.1005(8) 0.8417(8) 1.0284(7)
O12A O 0.6230(8) 0.4783(6) 1.3473(6)
O13A O 0.4555(12) 0.6207(10) 0.9662(10)
O14A O 0.1726(9) 0.4548(8) 1.1570(8)
O14_2 O -0.1726(9) 0.5452(8) 0.8430(8)
O14A_2 O 1.1726(9) 0.4548(8) 1.1570(8)
O15A O 0.2103(10) 0.6306(8) 1.1663(8)
O16A O 0.3631(8) 0.7683(7) 1.0417(6)
O17A O 0.6045(10) 0.3304(8) 1.2655(8)
O18A O 0.4624(8) 0.2118(8) 1.1373(6)
O19A O 0.2971(7) 0.7819(8) 0.8683(6)
O20A O 0.5505(10) 0.6434(9) 1.1597(8)
O21A O 0.7266(11) 0.6609(9) 0.9811(9)
O22A O 0.4212(12) 0.4530(10) 0.9579(10)
O23A O 0.1429(10) 0.6512(8) 0.9881(8)
O24A O 0.4008(10) 0.4989(9) 1.2765(8)
C1A C -0.1160(12) 0.7764(10) 0.7252(11)
H1A H -0.1859 0.7515 0.7263
C2A C 0.9074(11) 0.6339(10) 1.3112(13)
H2A H 0.9387 0.5881 1.3758
C3A C 0.5802(10) 0.7192(8) 1.3465(9)
H3A H 0.5764 0.6926 1.2961
C4A C 0.5537(10) 0.9228(9) 1.2283(9)
H4A H 0.5290 0.9048 1.1770
H5A H 0.4837 0.9844 1.2426
C5A C 0.8480(11) 0.6849(10) 1.1628(12)
H6A H 0.8283 0.6861 1.1013
C6A C 0.7897(11) 0.8937(9) 1.1166(10)
H7A H 0.8639 0.9274 1.0873
H8A H 0.7563 0.8990 1.0564
C7A C -0.0522(14) 1.0281(10) 0.7902(11)
H9A H -0.0155 1.0873 0.7816
H10A H -0.0385 0.9705 0.8603
C8A C 0.6826(11) 0.9592(8) 1.1788(9)
H11A H 0.7187 0.9562 1.2366
H12A H 0.6611 1.0369 1.1310
C9A C 0.5957(12) 0.7323(9) 1.4875(9)
H13A H 0.6062 0.7130 1.5580
C10A C 0.0740(11) 0.7748(9) 0.7346(10)
H14A H 0.1622 0.7526 0.7431
C11A C 0.0257(11) 0.9787(9) 0.7053(11)
H15A H 0.0087 1.0344 0.6351
H16A H 0.1194 0.9620 0.7065
C12A C -0.1998(12) 1.0755(9) 0.7910(9)
H17A H -0.2376 1.0170 0.7995
H18A H -0.2391 1.0982 0.8530
N10A N -0.2352(9) 1.1715(7) 0.6936(7)
N11A N -0.2345(10) 1.1565(8) 0.6024(8)
C13A C -0.2670(11) 1.2789(9) 0.6782(10)
H19A H -0.2729 1.3077 0.7298
C14A C -0.2685(12) 1.2603(9) 0.5345(9)
H20A H -0.2776 1.2780 0.4639
N12A N -0.2893(9) 1.3399(7) 0.5776(7)
N12A_2 N 0.7107(9) 0.3399(7) 1.5776(7)
Mo6? Mo 0.82224(11) 0.50371(10) 0.99726(9)
loop_
_geom_bond_atom_site_label_1
_geom_bond_atom_site_label_2
_geom_bond_site_symmetry_1
_geom_bond_site_symmetry_2
Mo1 O8 1_555 1_555
Mo2 O2 1_555 1_555
Mo3 O2 1_555 1_555
Mo4 O10 1_555 1_555
Mo5 O2 1_555 1_555
Mn1 O6 1_555 1_555
P1 O2 1_555 1_555
Cu1 N9 1_555 1_555
Cu2 N7 1_555 1_555
N1 C1 1_555 1_555
N2 N3 1_555 1_555
N3 C5 1_555 1_555
N4 N8 1_555 1_555
N5 N6 1_555 1_555
N6 C1 1_555 1_555
N7 C2 1_555 1_555
N8 C9 1_555 1_555
N9 C3 1_555 1_555
O2 O8 1_555 1_555
O4 Mo5 1_555 1_555
O5 Mo3 1_555 1_555
O6 Mn1A_2 1_555 1_555
O7 Mo3 1_555 1_555
O8 Mo5 1_555 1_555
O9 Mo2 1_555 1_555
O11 Mo1 1_555 1_555
O12 Mo2 1_555 1_555
O13 Mo1 1_555 1_555
O14 Mo5 1_555 1_555
O15 Mo1 1_555 1_555
O16 Mo1 1_555 1_555
O17 Mo2 1_555 1_555
O18 Mo3 1_555 1_555
O19 Mo1 1_555 1_555
O20 Mo2 1_555 1_555
O21 Mo4 1_555 1_555
O22 Mn1 1_555 1_555
O23 Mo1 1_555 1_555
O24 Mo2 1_555 1_555
C1 H1 1_555 1_555
C2 N2 1_555 1_555
H2 C2 1_555 1_555
C3 N4 1_555 1_555
H3 C3 1_555 1_555
C4 N4 1_555 1_555
H4 C4 1_555 1_555
H5 C4 1_555 1_555
C5 N7 1_555 1_555
H6 C5 1_555 1_555
C6 N3 1_555 1_555
H7 C6 1_555 1_555
H8 C6 1_555 1_555
C7 H9 1_555 1_555
H10 C7 1_555 1_555
C8 C4 1_555 1_555
H11 C8 1_555 1_555
H12 C8 1_555 1_555
C9 N9 1_555 1_555
H13 C9 1_555 1_555
C10 N1 1_555 1_555
H14 C10 1_555 1_555
C11 N5 1_555 1_555
H15 C11 1_555 1_555
H16 C11 1_555 1_555
C12 C7 1_555 1_555
H17 C12 1_555 1_555
H18 C12 1_555 1_555
N10 C12 1_555 1_555
N11 N10 1_555 1_555
C13 N10 1_555 1_555
H19 C13 1_555 1_555
C14 N11 1_555 1_555
H20 C14 1_555 1_555
N12 Cu1 1_555 1_555
Mo1A O8A 1_555 1_555
Mo2A O22 1_555 1_555
Mo3A O13 1_555 1_555
Mo4A O18 1_555 1_555
Mo5A O2A 1_555 1_555
Mn1A O9 1_555 1_555
Mn1A_2 O14A_2 1_555 1_555
Cu1A N9A 1_555 1_555
Cu1A_2 N12A 1_555 1_555
Cu2A N1_2 1_555 1_555
Cu2A_2 N1 1_555 1_555
Cu2_2 O14 1_555 1_555
Cu2A_3 O14A 1_555 1_555
N1A Cu2 1_555 1_555
N2A N3A 1_555 1_555
N3A C5A 1_555 1_555
N4A N8A 1_555 1_555
N5A N6A 1_555 1_555
N6A C1A 1_555 1_555
N7A Cu2A 1_555 1_555
N8A C9A 1_555 1_555
N9A C3A 1_555 1_555
O2A P1 1_555 1_555
O4A Mo5A 1_555 1_555
O5A Mo3A 1_555 1_555
O6_2 Mn1A 1_555 1_555
O7A Mo3A 1_555 1_555
O8A P1 1_555 1_555
O9A Mn1 1_555 1_555
O10A Mo4A 1_555 1_555
O11A Mo1A 1_555 1_555
O12A Mo2A 1_555 1_555
O13A Mo3 1_555 1_555
O14A Mo5A 1_555 1_555
O14_2 Cu2 1_555 1_555
O14A_2 Cu2A 1_555 1_555
O15A Mo1A 1_555 1_555
O16A Mo1A 1_555 1_555
O17A Mo2A 1_555 1_555
O18A Mo4 1_555 1_555
O19A Mo3 1_555 1_555
O20A Mo2A 1_555 1_555
O21A Mn1 1_555 1_555
O22A Mo2 1_555 1_555
O23A Mo1A 1_555 1_555
O24A Mo2A 1_555 1_555
C1A N1A 1_555 1_555
H1A C1A 1_555 1_555
C2A N2A 1_555 1_555
H2A C2A 1_555 1_555
C3A N4A 1_555 1_555
H3A C3A 1_555 1_555
C4A N4A 1_555 1_555
H4A C4A 1_555 1_555
H5A C4A 1_555 1_555
C5A N7A 1_555 1_555
H6A C5A 1_555 1_555
C6A N3A 1_555 1_555
H7A C6A 1_555 1_555
H8A C6A 1_555 1_555
C7A H9A 1_555 1_555
H10A C7A 1_555 1_555
C8A C4A 1_555 1_555
H11A C8A 1_555 1_555
H12A C8A 1_555 1_555
C9A N9A 1_555 1_555
H13A C9A 1_555 1_555
C10A N1A 1_555 1_555
H14A C10A 1_555 1_555
C11A N5A 1_555 1_555
H15A C11A 1_555 1_555
H16A C11A 1_555 1_555
C12A C7A 1_555 1_555
H17A C12A 1_555 1_555
H18A C12A 1_555 1_555
N10A C12A 1_555 1_555
N11A N10A 1_555 1_555
C13A N10A 1_555 1_555
H19A C13A 1_555 1_555
C14A N11A 1_555 1_555
H20A C14A 1_555 1_555
N12A C13A 1_555 1_555
N12A_2 Cu1A 1_555 1_555
Mo3 O17 1_555 1_555
Mo4 O13 1_555 1_555
Mo4 O16 1_555 1_555
Mo4 O20 1_555 1_555
Mo4 O22A 1_555 1_555
Mo5 O7 1_555 1_555
Mo5 O15 1_555 1_555
Mo5 O24 1_555 1_555
Mn1 O8 1_555 1_555
Mn1 O14 1_555 1_555
Mn1 O23 1_555 1_555
P1 O8 1_555 1_555
P1 O13 1_555 1_555
P1 O22 1_555 1_555
P1 O13A 1_555 1_555
P1 O22A 1_555 1_555
Cu1 O12 1_555 1_555
Cu2 O9 1_555 1_555
N5 C10 1_555 1_555
O2 O13A 1_555 1_555
O2 O22A 1_555 1_555
O8 O13 1_555 1_555
O13 O2A 1_555 1_555
O13 O22A 1_555 1_555
O19 Mo3A 1_555 1_555
O21 Mn1A 1_555 1_555
O22 Mo4A 1_555 1_555
O22 O2A 1_555 1_555
O22 O13A 1_555 1_555
C6 C8 1_555 1_555
C7 C11 1_555 1_555
C13 N12 1_555 1_555
C14 N12 1_555 1_555
Mo1A O13A 1_555 1_555
Mo1A O19A 1_555 1_555
Mo2A O2A 1_555 1_555
Mo2A O9A 1_555 1_555
Mo3A O2A 1_555 1_555
Mo3A O17A 1_555 1_555
Mo3A O18A 1_555 1_555
Mo4A O13A 1_555 1_555
Mo4A O16A 1_555 1_555
Mo4A O20A 1_555 1_555
Mo4A O21A 1_555 1_555
Mo5A O7A 1_555 1_555
Mo5A O8A 1_555 1_555
Mo5A O15A 1_555 1_555
Mo5A O24A 1_555 1_555
Mn1A O8A 1_555 1_555
Mn1A O14A 1_555 1_555
Mn1A O22A 1_555 1_555
Mn1A O23A 1_555 1_555
Cu1A O12A 1_555 1_555
Cu2A O9A 1_555 1_555
N5A C10A 1_555 1_555
N7A C2A 1_555 1_555
O2A O8A 1_555 1_555
O8A O13A 1_555 1_555
C6A C8A 1_555 1_555
C7A C11A 1_555 1_555
C14A N12A 1_555 1_555

#END
