
#######################################################################
#
#                 Cambridge Crystallographic Data Centre
#                                CCDC 
#
#######################################################################
#
# If this CIF has been generated from an entry in the Cambridge 
# Structural Database, then it will include bibliographic, chemical, 
# crystal, experimental, refinement or atomic coordinate data resulting 
# from the CCDC's data processing and validation procedures.
#
#######################################################################

data_VAYZIE
_symmetry_cell_setting           orthorhombic
_symmetry_space_group_name_H-M   'P c a 21'
_symmetry_Int_Tables_number      29
_space_group_name_Hall           'P 2c -2ac'
loop_
_symmetry_equiv_pos_site_id
_symmetry_equiv_pos_as_xyz
1 x,y,z
2 1/2-x,y,1/2+z
3 1/2+x,-y,z
4 -x,-y,1/2+z
_cell_length_a                   8.616(1)
_cell_length_b                   10.303(2)
_cell_length_c                   16.839(2)
_cell_angle_alpha                90
_cell_angle_beta                 90
_cell_angle_gamma                90
_cell_volume                     1494.81
loop_
_atom_site_label
_atom_site_type_symbol
_atom_site_fract_x
_atom_site_fract_y
_atom_site_fract_z
N2 N 0.2501(7) -0.2232(5) 0.9148(3)
O1 O 0.2527(12) -0.1815(7) 0.9856(4)
O2 O 0.3004(8) -0.3347(6) 0.9038(4)
O3 O 0.2033(9) -0.1614(8) 0.8554(6)
N1 N 0.1131(5) 0.3641(4) 1.1592(2)
C1 C 0.1539(5) 0.4073(5) 1.0879(3)
C2 C 0.1334(7) 0.3215(6) 1.0156(3)
S1 S 0.1510(2) 0.1487(1) 1.0251(1)
C3 C 0.3573(6) 0.1235(6) 1.0324(3)
C4 C 0.4334(7) 0.1527(5) 1.1129(3)
S2 S 0.3643(1) 0.0394(1) 1.1888(1)
C5 C 0.4365(6) 0.1153(6) 1.2794(3)
C6 C 0.3598(5) 0.2433(5) 1.3012(3)
S3 S 0.1553(1) 0.2245(1) 1.3220(1)
C7 C 0.0843(7) 0.3882(6) 1.3039(3)
C8 C 0.1287(5) 0.4417(5) 1.2231(3)
C9 C 0.1832(5) 0.5658(5) 1.2160(3)
C10 C 0.2236(7) 0.6136(6) 1.1422(4)
C11 C 0.2080(7) 0.5333(6) 1.0771(4)
Ag1 Ag 0.0566 0.1411 1.1780
H1 H 0.161(11) 0.350(7) 0.961(6)
H2 H 0.022(11) 0.344(7) 0.987(7)
H3 H 0.357(9) 0.041(9) 1.021(6)
H4 H 0.367(12) 0.199(13) 1.006(7)
H5 H 0.538(11) 0.132(9) 1.107(8)
H6 H 0.389(9) 0.249(8) 1.117(5)
H7 H 0.453(14) 0.052(16) 1.300(9)
H8 H 0.519(13) 0.151(9) 1.277(7)
H9 H 0.352(9) 0.319(9) 1.257(5)
H10 H 0.409(8) 0.295(7) 1.343(5)
H11 H 0.146(11) 0.443(10) 1.338(6)
H12 H 0.002(10) 0.370(6) 1.310(5)
H13 H 0.180(9) 0.617(8) 1.249(6)
H14 H 0.252(12) 0.698(11) 1.131(8)
H15 H 0.240(11) 0.551(10) 1.019(7)
Ag1B Ag 0.5566 -0.1411 1.1780
S2B S -0.1357(1) -0.0394(1) 1.1888(1)
N1B N 0.6131(5) -0.3641(4) 1.1592(2)
S1B S 0.6510(2) -0.1487(1) 1.0251(1)
S2B_2 S 0.8643(1) -0.0394(1) 1.1888(1)
S3B S 0.6553(1) -0.2245(1) 1.3220(1)
C4B C -0.0666(7) -0.1527(5) 1.1129(3)
C5B C -0.0635(6) -0.1153(6) 1.2794(3)
Ag1B_2 Ag -0.4434 -0.1411 1.1780
C1B C 0.6539(5) -0.4073(5) 1.0879(3)
C8B C 0.6287(5) -0.4417(5) 1.2231(3)
C2B C 0.6334(7) -0.3215(6) 1.0156(3)
C3B C 0.8573(6) -0.1235(6) 1.0324(3)
C6B C 0.8598(5) -0.2433(5) 1.3012(3)
C7B C 0.5843(7) -0.3882(6) 1.3039(3)
C3B_2 C -0.1427(6) -0.1235(6) 1.0324(3)
H5B H 0.038(11) -0.132(9) 1.107(8)
H6B H -0.111(9) -0.249(8) 1.117(5)
C6B_2 C -0.1402(5) -0.2433(5) 1.3012(3)
H7B H -0.047(14) -0.052(16) 1.300(9)
H8B H 0.019(13) -0.151(9) 1.277(7)
C11B C 0.7080(7) -0.5333(6) 1.0771(4)
C9B C 0.6832(5) -0.5658(5) 1.2160(3)
H1B H 0.661(11) -0.350(7) 0.961(6)
H2B H 0.522(11) -0.344(7) 0.987(7)
C4B_2 C 0.9334(7) -0.1527(5) 1.1129(3)
H3B H 0.857(9) -0.041(9) 1.021(6)
H4B H 0.867(12) -0.199(13) 1.006(7)
C5B_2 C 0.9365(6) -0.1153(6) 1.2794(3)
H9B H 0.852(9) -0.319(9) 1.257(5)
H10B H 0.909(8) -0.295(7) 1.343(5)
H11B H 0.646(11) -0.443(10) 1.338(6)
H12B H 0.502(10) -0.370(6) 1.310(5)
C10B C 0.7236(7) -0.6136(6) 1.1422(4)
H15B H 0.740(11) -0.551(10) 1.019(7)
H13B H 0.680(9) -0.617(8) 1.249(6)
H14B H 0.752(12) -0.698(11) 1.131(8)
loop_
_geom_bond_atom_site_label_1
_geom_bond_atom_site_label_2
_geom_bond_site_symmetry_1
_geom_bond_site_symmetry_2
N1 C1 1_555 1_555
C1 C2 1_555 1_555
C2 S1 1_555 1_555
S1 C3 1_555 1_555
C3 C4 1_555 1_555
C4 S2 1_555 1_555
S2 C5 1_555 1_555
C5 C6 1_555 1_555
C6 S3 1_555 1_555
S3 C7 1_555 1_555
C7 C8 1_555 1_555
C8 N1 1_555 1_555
C9 C8 1_555 1_555
C10 C9 1_555 1_555
C11 C1 1_555 1_555
Ag1 N1 1_555 1_555
N2 O1 1_555 1_555
O2 N2 1_555 1_555
O3 N2 1_555 1_555
H1 C2 1_555 1_555
H2 C2 1_555 1_555
H3 C3 1_555 1_555
H4 C3 1_555 1_555
H5 C4 1_555 1_555
H6 C4 1_555 1_555
H7 C5 1_555 1_555
H8 C5 1_555 1_555
H9 C6 1_555 1_555
H10 C6 1_555 1_555
H11 C7 1_555 1_555
H12 C7 1_555 1_555
H13 C9 1_555 1_555
H14 C10 1_555 1_555
H15 C11 1_555 1_555
Ag1B S2 1_555 1_555
S2B Ag1 1_555 1_555
N1B Ag1B 1_555 1_555
S1B Ag1B 1_555 1_555
S2B_2 Ag1B 1_555 1_555
S3B Ag1B 1_555 1_555
C4B S2B 1_555 1_555
C5B S2B 1_555 1_555
Ag1B_2 S2B 1_555 1_555
C1B N1B 1_555 1_555
C8B N1B 1_555 1_555
C2B S1B 1_555 1_555
C3B S1B 1_555 1_555
C6B S3B 1_555 1_555
C7B S3B 1_555 1_555
C3B_2 C4B 1_555 1_555
H5B C4B 1_555 1_555
H6B C4B 1_555 1_555
C6B_2 C5B 1_555 1_555
H7B C5B 1_555 1_555
H8B C5B 1_555 1_555
C11B C1B 1_555 1_555
C9B C8B 1_555 1_555
H1B C2B 1_555 1_555
H2B C2B 1_555 1_555
C4B_2 C3B 1_555 1_555
H3B C3B 1_555 1_555
H4B C3B 1_555 1_555
C5B_2 C6B 1_555 1_555
H9B C6B 1_555 1_555
H10B C6B 1_555 1_555
H11B C7B 1_555 1_555
H12B C7B 1_555 1_555
C10B C11B 1_555 1_555
H15B C11B 1_555 1_555
H13B C9B 1_555 1_555
H14B C10B 1_555 1_555
S1 Ag1 1_555 1_555
S2 Ag1 1_555 1_555
S3 Ag1 1_555 1_555
C10 C11 1_555 1_555
C1B C2B 1_555 1_555
C8B C7B 1_555 1_555
C9B C10B 1_555 1_555

#END
