
#######################################################################
#
#                 Cambridge Crystallographic Data Centre
#                                CCDC 
#
#######################################################################
#
# If this CIF has been generated from an entry in the Cambridge 
# Structural Database, then it will include bibliographic, chemical, 
# crystal, experimental, refinement or atomic coordinate data resulting 
# from the CCDC's data processing and validation procedures.
#
#######################################################################

data_VAZGEJ
_symmetry_cell_setting           orthorhombic
_symmetry_space_group_name_H-M   'P n m a'
_symmetry_Int_Tables_number      62
_space_group_name_Hall           '-P 2ac 2n'
loop_
_symmetry_equiv_pos_site_id
_symmetry_equiv_pos_as_xyz
1 x,y,z
2 1/2-x,-y,1/2+z
3 -x,1/2+y,-z
4 1/2+x,1/2-y,1/2-z
5 -x,-y,-z
6 1/2+x,y,1/2-z
7 x,1/2-y,z
8 1/2-x,1/2+y,1/2+z
_cell_length_a                   9.3325(5)
_cell_length_b                   17.6438(9)
_cell_length_c                   10.3499(5)
_cell_angle_alpha                90
_cell_angle_beta                 90
_cell_angle_gamma                90
_cell_volume                     1704.22
loop_
_atom_site_label
_atom_site_type_symbol
_atom_site_fract_x
_atom_site_fract_y
_atom_site_fract_z
Cd1 Cd 0.17040(3) 0.2500 -0.01814(2)
I1 I -0.06708(3) 0.2500 0.13639(2)
I2 I 0.19415(3) 0.2500 -0.27878(2)
N1 N 0.2923(2) 0.35100(10) 0.0652(2)
N2 N 0.4536(3) 0.4386(2) 0.1238(2)
N3 N 0.3283(2) 0.44850(10) 0.1889(2)
C1 C 0.4257(3) 0.3796(2) 0.0505(3)
C2 C 0.2352(3) 0.39590(10) 0.1540(2)
C3 C 0.3078(3) 0.5114(2) 0.2802(3)
C4 C 0.4078(2) 0.50550(10) 0.3944(2)
C5 C 0.5187(2) 0.55760(10) 0.4102(2)
C6 C 0.3897(2) 0.44840(10) 0.4847(2)
H1 H 0.494(3) 0.358(2) -0.006(3)
H2 H 0.141(2) 0.392(2) 0.188(3)
H3 H 0.210(2) 0.507(2) 0.307(3)
H4 H 0.327(3) 0.5570(10) 0.233(3)
H5 H 0.533(3) 0.5970(10) 0.350(2)
H6 H 0.315(2) 0.4120(10) 0.472(3)
Cd1D Cd 0.82960(3) 0.7500 1.01814(2)
N1D N 0.7077(2) 0.64900(10) 0.9348(2)
N1F N 0.2923(2) 0.14900(10) 0.0652(2)
N2D N 0.5464(3) 0.5614(2) 0.8762(2)
N3D N 0.6717(2) 0.55150(10) 0.8111(2)
C1D C 0.5743(3) 0.6204(2) 0.9495(3)
C2D C 0.7648(3) 0.60410(10) 0.8460(2)
C3D C 0.6922(3) 0.4886(2) 0.7198(3)
C4D C 0.5922(2) 0.49450(10) 0.6056(2)
C5D C 0.4813(2) 0.44240(10) 0.5898(2)
C6D C 0.6103(2) 0.55160(10) 0.5153(2)
H1D H 0.506(3) 0.642(2) 1.006(3)
H2D H 0.859(2) 0.608(2) 0.812(3)
H3D H 0.790(2) 0.493(2) 0.693(3)
H4D H 0.673(3) 0.4430(10) 0.767(3)
H5D H 0.467(3) 0.4030(10) 0.650(2)
H6D H 0.685(2) 0.5880(10) 0.528(3)
loop_
_geom_bond_atom_site_label_1
_geom_bond_atom_site_label_2
_geom_bond_site_symmetry_1
_geom_bond_site_symmetry_2
Cd1 I1 1_555 1_555
I2 Cd1 1_555 1_555
N1 Cd1 1_555 1_555
N2 N3 1_555 1_555
N3 C2 1_555 1_555
C1 N1 1_555 1_555
C2 N1 1_555 1_555
C3 N3 1_555 1_555
C4 C3 1_555 1_555
C5 C4 1_555 1_555
C6 C4 1_555 1_555
H1 C1 1_555 1_555
H2 C2 1_555 1_555
H3 C3 1_555 1_555
H4 C3 1_555 1_555
H5 C5 1_555 1_555
H6 C6 1_555 1_555
Cd1D N1D 1_555 1_555
N1D C1D 1_555 1_555
N1F Cd1 1_555 1_555
N2D N3D 1_555 1_555
N3D C2D 1_555 1_555
C1D N2D 1_555 1_555
C2D N1D 1_555 1_555
C3D N3D 1_555 1_555
C4D C3D 1_555 1_555
C5D C6 1_555 1_555
C6D C5 1_555 1_555
H1D C1D 1_555 1_555
H2D C2D 1_555 1_555
H3D C3D 1_555 1_555
H4D C3D 1_555 1_555
H5D C5D 1_555 1_555
H6D C6D 1_555 1_555
N2 C1 1_555 1_555
C4D C5D 1_555 1_555
C4D C6D 1_555 1_555

#END
