
#######################################################################
#
#                 Cambridge Crystallographic Data Centre
#                                CCDC 
#
#######################################################################
#
# If this CIF has been generated from an entry in the Cambridge 
# Structural Database, then it will include bibliographic, chemical, 
# crystal, experimental, refinement or atomic coordinate data resulting 
# from the CCDC's data processing and validation procedures.
#
#######################################################################

data_VAZLOZ
_symmetry_cell_setting           monoclinic
_symmetry_space_group_name_H-M   'P 21/c'
_symmetry_Int_Tables_number      14
_space_group_name_Hall           '-P 2ybc'
loop_
_symmetry_equiv_pos_site_id
_symmetry_equiv_pos_as_xyz
1 x,y,z
2 -x,1/2+y,1/2-z
3 -x,-y,-z
4 x,1/2-y,1/2+z
_cell_length_a                   7.3108(15)
_cell_length_b                   9.7220(19)
_cell_length_c                   15.298(5)
_cell_angle_alpha                90
_cell_angle_beta                 108.75(3)
_cell_angle_gamma                90
_cell_volume                     1029.61
loop_
_atom_site_label
_atom_site_type_symbol
_atom_site_fract_x
_atom_site_fract_y
_atom_site_fract_z
O1 O 0.7253(4) 0.5755(3) 0.5178(2)
Tb1 Tb 0.72039(2) 0.554890(18) 0.357670(12)
O2 O 0.8346(4) 0.3418(3) 0.42326(19)
O3 O 0.9815(4) 0.4699(3) 0.3063(2)
O4 O 1.0113(4) 0.3121(3) 0.57073(19)
O5 O 0.7554(5) 0.7144(3) 0.2381(2)
O6 O 0.6966(4) 0.0862(3) 0.41312(19)
O7 O 0.5211(4) -0.2538(3) 0.35645(19)
O8 O 0.4538(4) -0.0610(3) 0.2740(2)
O9 O 0.5594(4) 0.5460(3) 0.6160(2)
C1 C 0.8901(5) 0.2741(4) 0.4968(3)
C2 C 0.8091(6) 0.1356(4) 0.4963(3)
C3 C 0.8329(6) 0.0376(4) 0.5625(3)
H1 H 0.9020 0.0467 0.6249
C4 C 0.7322(6) -0.0810(4) 0.5180(3)
H2 H 0.7224 -0.1648 0.5454
C5 C 0.6534(6) -0.0478(4) 0.4277(3)
C6 C 0.5343(6) -0.1247(4) 0.3469(3)
C7 C 0.5817(6) 0.5351(4) 0.5384(3)
H3 H 1.032(6) 0.533(4) 0.283(3)
H4 H 1.072(5) 0.434(5) 0.350(2)
H5 H 0.671(5) 0.767(4) 0.207(3)
H6 H 0.866(4) 0.735(5) 0.235(3)
O1B O 0.2747(4) 0.4245(3) 0.4822(2)
Tb1B Tb 0.27961(2) 0.445110(18) 0.642330(12)
Tb1B_2 Tb 1.27961(2) 0.445110(18) 0.642330(12)
Tb1_2 Tb 0.72039(2) -0.445110(18) 0.357670(12)
Tb1A Tb 0.27961(2) 0.054890(18) 0.142330(12)
Tb1B_3 Tb 1.27961(2) 1.445110(18) 0.642330(12)
Tb1C Tb 1.72039(2) 0.945110(18) 0.857670(12)
O2B O 1.1654(4) 0.6582(3) 0.57674(19)
O2B_2 O 0.1654(4) 0.6582(3) 0.57674(19)
O3B O 0.0185(4) 0.5301(3) 0.6937(2)
O4B O 0.9887(4) 0.6879(3) 0.42927(19)
O4_2 O 0.0113(4) 0.3121(3) 0.57073(19)
O5B O 0.2446(5) 0.2856(3) 0.7619(2)
O6B O 1.3034(4) 0.9138(3) 0.58688(19)
O7B O 1.4789(4) 1.2538(3) 0.64355(19)
O7_2 O 0.5211(4) 0.7462(3) 0.35645(19)
O7B_2 O 0.4789(4) 0.2538(3) 0.64355(19)
O8B O 1.5462(4) 1.0610(3) 0.7260(2)
O8A O 0.5462(4) 0.4390(3) 0.2260(2)
O8C O 0.4538(4) 0.5610(3) 0.7740(2)
O9B O 0.4406(4) 0.4540(3) 0.3840(2)
C1B C 1.1099(5) 0.7259(4) 0.5032(3)
C2B C 1.1909(6) 0.8644(4) 0.5037(3)
C3B C 1.1671(6) 0.9624(4) 0.4375(3)
H1B H 1.0980 0.9533 0.3751
C4B C 1.2678(6) 1.0810(4) 0.4820(3)
H2B H 1.2776 1.1648 0.4546
C5B C 1.3466(6) 1.0478(4) 0.5723(3)
C6B C 1.4657(6) 1.1247(4) 0.6531(3)
C7B C 0.4183(6) 0.4649(4) 0.4616(3)
H3B H -0.032(6) 0.467(4) 0.717(3)
H4B H -0.072(5) 0.566(5) 0.650(2)
H5B H 0.329(5) 0.233(4) 0.793(3)
H6B H 0.134(4) 0.265(5) 0.765(3)
O10 O 0.1438(5) 0.8253(4) 0.7399(2)
H7 H 0.149(8) 0.793(5) 0.690(2)
H8 H 0.240(6) 0.790(5) 0.780(3)
loop_
_geom_bond_atom_site_label_1
_geom_bond_atom_site_label_2
_geom_bond_site_symmetry_1
_geom_bond_site_symmetry_2
O1 Tb1 1_555 1_555
Tb1 O2 1_555 1_555
O2 C1 1_555 1_555
O3 Tb1 1_555 1_555
O4 C1 1_555 1_555
O5 Tb1 1_555 1_555
O6 C2 1_555 1_555
O7 C6 1_555 1_555
O8 C6 1_555 1_555
O9 C7 1_555 1_555
C1 C2 1_555 1_555
C2 C3 1_555 1_555
C3 H1 1_555 1_555
C4 C3 1_555 1_555
H2 C4 1_555 1_555
C5 O6 1_555 1_555
C6 C5 1_555 1_555
C7 O1 1_555 1_555
O10 H7 1_555 1_555
H3 O3 1_555 1_555
H4 O3 1_555 1_555
H5 O5 1_555 1_555
H6 O5 1_555 1_555
H8 O10 1_555 1_555
O1B Tb1B 1_555 1_555
Tb1B O9 1_555 1_555
Tb1B_2 O4 1_555 1_555
Tb1_2 O7 1_555 1_555
Tb1A O8 1_555 1_555
Tb1B_3 O7B 1_555 1_555
Tb1C O8B 1_555 1_555
O2B Tb1B_2 1_555 1_555
O2B_2 Tb1B 1_555 1_555
O3B Tb1B 1_555 1_555
O4B Tb1 1_555 1_555
O4_2 Tb1B 1_555 1_555
O5B Tb1B 1_555 1_555
O6B C2B 1_555 1_555
O7B C6B 1_555 1_555
O7_2 Tb1 1_555 1_555
O7B_2 Tb1B 1_555 1_555
O8B C6B 1_555 1_555
O8A Tb1 1_555 1_555
O8C Tb1B 1_555 1_555
O9B Tb1 1_555 1_555
C1B O2B 1_555 1_555
C2B C1B 1_555 1_555
C3B C2B 1_555 1_555
H1B C3B 1_555 1_555
C4B C3B 1_555 1_555
H2B C4B 1_555 1_555
C5B O6B 1_555 1_555
C6B C5B 1_555 1_555
C7B C7 1_555 1_555
H3B O3B 1_555 1_555
H4B O3B 1_555 1_555
H5B O5B 1_555 1_555
H6B O5B 1_555 1_555
C4 C5 1_555 1_555
O1B C7B 1_555 1_555
O4B C1B 1_555 1_555
O9B C7B 1_555 1_555
C4B C5B 1_555 1_555

#END
