
#######################################################################
#
#                 Cambridge Crystallographic Data Centre
#                                CCDC 
#
#######################################################################
#
# If this CIF has been generated from an entry in the Cambridge 
# Structural Database, then it will include bibliographic, chemical, 
# crystal, experimental, refinement or atomic coordinate data resulting 
# from the CCDC's data processing and validation procedures.
#
#######################################################################

data_VAZLEP
_symmetry_cell_setting           monoclinic
_symmetry_space_group_name_H-M   'P 21/c'
_symmetry_Int_Tables_number      14
_space_group_name_Hall           '-P 2ybc'
loop_
_symmetry_equiv_pos_site_id
_symmetry_equiv_pos_as_xyz
1 x,y,z
2 -x,1/2+y,1/2-z
3 -x,-y,-z
4 x,1/2-y,1/2+z
_cell_length_a                   7.3519(15)
_cell_length_b                   9.7295(19)
_cell_length_c                   15.355(5)
_cell_angle_alpha                90
_cell_angle_beta                 108.54(3)
_cell_angle_gamma                90
_cell_volume                     1041.35
loop_
_atom_site_label
_atom_site_type_symbol
_atom_site_fract_x
_atom_site_fract_y
_atom_site_fract_z
O1 O 0.7253(5) 0.5750(3) 0.5182(2)
Eu1 Eu 0.72187(3) 0.55509(2) 0.357260(14)
O2 O 0.8363(5) 0.3402(3) 0.4229(2)
O3 O 0.9862(5) 0.4706(4) 0.3060(2)
O4 O 1.0084(5) 0.3118(3) 0.5708(2)
O5 O 0.7585(5) 0.7179(4) 0.2385(3)
O6 O 0.6964(5) 0.0858(3) 0.4132(2)
O7 O 0.5217(5) -0.2527(3) 0.3572(2)
O8 O 0.4529(5) -0.0605(3) 0.2756(2)
O9 O 0.5570(5) 0.5469(3) 0.6152(2)
C1 C 0.8893(6) 0.2730(5) 0.4964(3)
C2 C 0.8090(7) 0.1351(5) 0.4960(3)
C3 C 0.8321(7) 0.0376(5) 0.5621(3)
H1 H 0.8999 0.0469 0.6243
C4 C 0.7325(7) -0.0807(5) 0.5179(3)
H2 H 0.7232 -0.1646 0.5452
C5 C 0.6536(7) -0.0479(4) 0.4280(3)
C6 C 0.5341(6) -0.1243(5) 0.3477(3)
C7 C 0.5807(7) 0.5349(4) 0.5381(3)
H3 H 1.034(7) 0.534(4) 0.283(4)
H4 H 1.071(5) 0.432(6) 0.349(3)
H5 H 0.680(5) 0.777(5) 0.209(4)
H6 H 0.867(4) 0.740(5) 0.231(4)
O1B O 0.2747(5) 0.4250(3) 0.4818(2)
Eu1B Eu 0.27813(3) 0.44491(2) 0.642740(14)
Eu1B_2 Eu 1.27813(3) 0.44491(2) 0.642740(14)
Eu1_2 Eu 0.72187(3) -0.44491(2) 0.357260(14)
Eu1A Eu 0.27813(3) 0.05509(2) 0.142740(14)
Eu1B_3 Eu 1.27813(3) 1.44491(2) 0.642740(14)
Eu1C Eu 1.72187(3) 0.94491(2) 0.857260(14)
O2B O 1.1637(5) 0.6598(3) 0.5771(2)
O2B_2 O 0.1637(5) 0.6598(3) 0.5771(2)
O3B O 0.0138(5) 0.5294(4) 0.6940(2)
O4B O 0.9916(5) 0.6882(3) 0.4292(2)
O4_2 O 0.0084(5) 0.3118(3) 0.5708(2)
O5B O 0.2415(5) 0.2821(4) 0.7615(3)
O6B O 1.3036(5) 0.9142(3) 0.5868(2)
O7B O 1.4783(5) 1.2527(3) 0.6428(2)
O7_2 O 0.5217(5) 0.7473(3) 0.3572(2)
O7B_2 O 0.4783(5) 0.2527(3) 0.6428(2)
O8B O 1.5471(5) 1.0605(3) 0.7244(2)
O8A O 0.5471(5) 0.4395(3) 0.2244(2)
O8C O 0.4529(5) 0.5605(3) 0.7756(2)
O9B O 0.4430(5) 0.4531(3) 0.3848(2)
C1B C 1.1107(6) 0.7270(5) 0.5036(3)
C2B C 1.1910(7) 0.8649(5) 0.5040(3)
C3B C 1.1679(7) 0.9624(5) 0.4379(3)
H1B H 1.1001 0.9531 0.3757
C4B C 1.2675(7) 1.0807(5) 0.4821(3)
H2B H 1.2768 1.1646 0.4548
C5B C 1.3464(7) 1.0479(4) 0.5720(3)
C6B C 1.4659(6) 1.1243(5) 0.6523(3)
C7B C 0.4193(7) 0.4651(4) 0.4619(3)
H3B H -0.034(7) 0.466(4) 0.717(4)
H4B H -0.071(5) 0.568(6) 0.651(3)
H5B H 0.320(5) 0.223(5) 0.791(4)
H6B H 0.133(4) 0.260(5) 0.769(4)
O10 O 0.1457(5) 0.8242(4) 0.7405(3)
H7 H 0.144(9) 0.793(6) 0.689(2)
H8 H 0.237(7) 0.784(6) 0.781(3)
loop_
_geom_bond_atom_site_label_1
_geom_bond_atom_site_label_2
_geom_bond_site_symmetry_1
_geom_bond_site_symmetry_2
O1 Eu1 1_555 1_555
Eu1 O2 1_555 1_555
O2 C1 1_555 1_555
O3 Eu1 1_555 1_555
O4 C1 1_555 1_555
O5 Eu1 1_555 1_555
O6 C2 1_555 1_555
O7 C6 1_555 1_555
O8 C6 1_555 1_555
O9 C7 1_555 1_555
C1 C2 1_555 1_555
C2 C3 1_555 1_555
C3 H1 1_555 1_555
C4 C3 1_555 1_555
H2 C4 1_555 1_555
C5 O6 1_555 1_555
C6 C5 1_555 1_555
C7 O1 1_555 1_555
H3 O3 1_555 1_555
H4 O3 1_555 1_555
H5 O5 1_555 1_555
H6 O5 1_555 1_555
O10 H7 1_555 1_555
H8 O10 1_555 1_555
O1B Eu1B 1_555 1_555
Eu1B O9 1_555 1_555
Eu1B_2 O4 1_555 1_555
Eu1_2 O7 1_555 1_555
Eu1A O8 1_555 1_555
Eu1B_3 O7B 1_555 1_555
Eu1C O8B 1_555 1_555
O2B Eu1B_2 1_555 1_555
O2B_2 Eu1B 1_555 1_555
O3B Eu1B 1_555 1_555
O4B Eu1 1_555 1_555
O4_2 Eu1B 1_555 1_555
O5B Eu1B 1_555 1_555
O6B C2B 1_555 1_555
O7B C6B 1_555 1_555
O7_2 Eu1 1_555 1_555
O7B_2 Eu1B 1_555 1_555
O8B C6B 1_555 1_555
O8A Eu1 1_555 1_555
O8C Eu1B 1_555 1_555
O9B Eu1 1_555 1_555
C1B O2B 1_555 1_555
C2B C1B 1_555 1_555
C3B C2B 1_555 1_555
H1B C3B 1_555 1_555
C4B C3B 1_555 1_555
H2B C4B 1_555 1_555
C5B O6B 1_555 1_555
C6B C5B 1_555 1_555
C7B C7 1_555 1_555
H3B O3B 1_555 1_555
H4B O3B 1_555 1_555
H5B O5B 1_555 1_555
H6B O5B 1_555 1_555
C4 C5 1_555 1_555
O1B C7B 1_555 1_555
O4B C1B 1_555 1_555
O9B C7B 1_555 1_555
C4B C5B 1_555 1_555

#END
