
#######################################################################
#
#                 Cambridge Crystallographic Data Centre
#                                CCDC 
#
#######################################################################
#
# If this CIF has been generated from an entry in the Cambridge 
# Structural Database, then it will include bibliographic, chemical, 
# crystal, experimental, refinement or atomic coordinate data resulting 
# from the CCDC's data processing and validation procedures.
#
#######################################################################

data_VAZLIT
_symmetry_cell_setting           monoclinic
_symmetry_space_group_name_H-M   'P 21/c'
_symmetry_Int_Tables_number      14
_space_group_name_Hall           '-P 2ybc'
loop_
_symmetry_equiv_pos_site_id
_symmetry_equiv_pos_as_xyz
1 x,y,z
2 -x,1/2+y,1/2-z
3 -x,-y,-z
4 x,1/2-y,1/2+z
_cell_length_a                   7.3173(15)
_cell_length_b                   9.7022(19)
_cell_length_c                   15.306(5)
_cell_angle_alpha                90
_cell_angle_beta                 108.61(3)
_cell_angle_gamma                90
_cell_volume                     1029.82
loop_
_atom_site_label
_atom_site_type_symbol
_atom_site_fract_x
_atom_site_fract_y
_atom_site_fract_z
O1 O 0.7250(5) 0.5757(3) 0.5178(2)
Gd1 Gd 0.72124(3) 0.55505(2) 0.357440(15)
O2 O 0.8355(5) 0.3405(3) 0.4232(2)
O3 O 0.9840(5) 0.4702(4) 0.3061(2)
O4 O 1.0097(5) 0.3118(3) 0.5712(2)
O5 O 0.7577(6) 0.7165(4) 0.2383(3)
O6 O 0.6963(5) 0.0857(3) 0.4131(2)
O7 O 0.5209(5) -0.2529(3) 0.3567(2)
O8 O 0.4533(5) -0.0600(3) 0.2749(2)
O9 O 0.5584(5) 0.5463(4) 0.6159(2)
C1 C 0.8909(7) 0.2734(5) 0.4966(3)
C2 C 0.8082(7) 0.1350(5) 0.4966(3)
C3 C 0.8327(8) 0.0379(5) 0.5619(3)
H1 H 0.9017 0.0470 0.6242
C4 C 0.7338(7) -0.0806(5) 0.5178(3)
H2 H 0.7262 -0.1651 0.5452
C5 C 0.6524(7) -0.0473(5) 0.4281(3)
C6 C 0.5351(7) -0.1243(5) 0.3472(3)
C7 C 0.5813(7) 0.5351(5) 0.5385(3)
H3 H 1.046(7) 0.529(5) 0.286(4)
H4 H 1.062(7) 0.440(6) 0.356(3)
H5 H 0.686(7) 0.782(4) 0.212(4)
H6 H 0.873(4) 0.732(6) 0.240(4)
O1B O 0.2750(5) 0.4243(3) 0.4822(2)
Gd1B Gd 0.27876(3) 0.44495(2) 0.642560(15)
Gd1B_2 Gd 1.27876(3) 0.44495(2) 0.642560(15)
Gd1_2 Gd 0.72124(3) -0.44495(2) 0.357440(15)
Gd1A Gd 0.27876(3) 0.05505(2) 0.142560(15)
Gd1B_3 Gd 1.27876(3) 1.44495(2) 0.642560(15)
Gd1C Gd 1.72124(3) 0.94495(2) 0.857440(15)
O2B O 1.1645(5) 0.6595(3) 0.5768(2)
O2B_2 O 0.1645(5) 0.6595(3) 0.5768(2)
O3B O 0.0160(5) 0.5298(4) 0.6939(2)
O4B O 0.9903(5) 0.6882(3) 0.4288(2)
O4_2 O 0.0097(5) 0.3118(3) 0.5712(2)
O5B O 0.2423(6) 0.2835(4) 0.7617(3)
O6B O 1.3037(5) 0.9143(3) 0.5869(2)
O7B O 1.4791(5) 1.2529(3) 0.6433(2)
O7_2 O 0.5209(5) 0.7471(3) 0.3567(2)
O7B_2 O 0.4791(5) 0.2529(3) 0.6433(2)
O8B O 1.5467(5) 1.0600(3) 0.7251(2)
O8A O 0.5467(5) 0.4400(3) 0.2251(2)
O8C O 0.4533(5) 0.5600(3) 0.7749(2)
O9B O 0.4416(5) 0.4537(4) 0.3841(2)
C1B C 1.1091(7) 0.7266(5) 0.5034(3)
C2B C 1.1918(7) 0.8650(5) 0.5034(3)
C3B C 1.1673(8) 0.9621(5) 0.4381(3)
H1B H 1.0983 0.9530 0.3758
C4B C 1.2662(7) 1.0806(5) 0.4822(3)
H2B H 1.2738 1.1651 0.4548
C5B C 1.3476(7) 1.0473(5) 0.5719(3)
C6B C 1.4649(7) 1.1243(5) 0.6528(3)
C7B C 0.4187(7) 0.4649(5) 0.4615(3)
H3B H -0.046(7) 0.471(5) 0.714(4)
H4B H -0.062(7) 0.560(6) 0.644(3)
H5B H 0.314(7) 0.218(4) 0.788(4)
H6B H 0.127(4) 0.268(6) 0.760(4)
O10 O 0.1438(6) 0.8243(4) 0.7403(3)
H7 H 0.150(8) 0.805(6) 0.6878(19)
H8 H 0.243(6) 0.796(6) 0.782(3)
loop_
_geom_bond_atom_site_label_1
_geom_bond_atom_site_label_2
_geom_bond_site_symmetry_1
_geom_bond_site_symmetry_2
O1 Gd1 1_555 1_555
Gd1 O2 1_555 1_555
O2 C1 1_555 1_555
O3 Gd1 1_555 1_555
O4 C1 1_555 1_555
O5 Gd1 1_555 1_555
O6 C2 1_555 1_555
O7 C6 1_555 1_555
O8 C6 1_555 1_555
O9 C7 1_555 1_555
C1 C2 1_555 1_555
C2 C3 1_555 1_555
C3 H1 1_555 1_555
C4 C3 1_555 1_555
H2 C4 1_555 1_555
C5 O6 1_555 1_555
C6 C5 1_555 1_555
C7 O1 1_555 1_555
O10 H7 1_555 1_555
H3 O3 1_555 1_555
H4 O3 1_555 1_555
H5 O5 1_555 1_555
H6 O5 1_555 1_555
H8 O10 1_555 1_555
O1B Gd1B 1_555 1_555
Gd1B O9 1_555 1_555
Gd1B_2 O4 1_555 1_555
Gd1_2 O7 1_555 1_555
Gd1A O8 1_555 1_555
Gd1B_3 O7B 1_555 1_555
Gd1C O8B 1_555 1_555
O2B Gd1B_2 1_555 1_555
O2B_2 Gd1B 1_555 1_555
O3B Gd1B 1_555 1_555
O4B Gd1 1_555 1_555
O4_2 Gd1B 1_555 1_555
O5B Gd1B 1_555 1_555
O6B C2B 1_555 1_555
O7B C6B 1_555 1_555
O7_2 Gd1 1_555 1_555
O7B_2 Gd1B 1_555 1_555
O8B C6B 1_555 1_555
O8A Gd1 1_555 1_555
O8C Gd1B 1_555 1_555
O9B Gd1 1_555 1_555
C1B O2B 1_555 1_555
C2B C1B 1_555 1_555
C3B C2B 1_555 1_555
H1B C3B 1_555 1_555
C4B C3B 1_555 1_555
H2B C4B 1_555 1_555
C5B O6B 1_555 1_555
C6B C5B 1_555 1_555
C7B C7 1_555 1_555
H3B O3B 1_555 1_555
H4B O3B 1_555 1_555
H5B O5B 1_555 1_555
H6B O5B 1_555 1_555
C4 C5 1_555 1_555
O1B C7B 1_555 1_555
O4B C1B 1_555 1_555
O9B C7B 1_555 1_555
C4B C5B 1_555 1_555

#END
