
#######################################################################
#
#                 Cambridge Crystallographic Data Centre
#                                CCDC 
#
#######################################################################
#
# If this CIF has been generated from an entry in the Cambridge 
# Structural Database, then it will include bibliographic, chemical, 
# crystal, experimental, refinement or atomic coordinate data resulting 
# from the CCDC's data processing and validation procedures.
#
#######################################################################

data_VAZLUF
_symmetry_cell_setting           monoclinic
_symmetry_space_group_name_H-M   'C 2/c'
_symmetry_Int_Tables_number      15
_space_group_name_Hall           '-C 2yn'
loop_
_symmetry_equiv_pos_site_id
_symmetry_equiv_pos_as_xyz
1 x,y,z
2 -x,y,1/2-z
3 1/2+x,1/2+y,z
4 1/2-x,1/2+y,1/2-z
5 -x,-y,-z
6 x,-y,1/2+z
7 1/2-x,1/2-y,-z
8 1/2+x,1/2-y,1/2+z
_cell_length_a                   16.840(3)
_cell_length_b                   10.608(2)
_cell_length_c                   13.713(3)
_cell_angle_alpha                90
_cell_angle_beta                 117.11(3)
_cell_angle_gamma                90
_cell_volume                     2180.54
loop_
_atom_site_label
_atom_site_type_symbol
_atom_site_fract_x
_atom_site_fract_y
_atom_site_fract_z
O1 O 0.1435(3) 1.1879(4) 0.9630(4)
O2 O 0.2303(2) 1.0196(4) 0.9973(3)
C1 C 0.1552(4) 1.0730(5) 0.9619(4)
O3 O 0.1159(2) 1.3776(4) 0.8104(3)
O4 O -0.0589(2) 0.6212(3) 0.8976(3)
Sm1 Sm 0.135570(17) 1.40304(2) 0.99804(2)
O5 O 0.0918(2) 0.8641(3) 0.9281(3)
C2 C 0.0101(3) 0.8072(5) 0.8888(4)
O6 O 0.0771(2) 0.6076(3) 0.9100(4)
O7 O 0.0187(2) 1.3536(3) 0.6354(3)
O9 O 0.2500(3) 1.3101(4) 1.1717(3)
H3 H 0.2272 1.2969 1.2149
H4 H 0.2675 1.2403 1.1573
C3 C -0.0121(3) 1.0141(5) 0.8709(4)
H5 H -0.0395 1.0927 0.8540
C4 C 0.0103(3) 0.6681(5) 0.8996(4)
C5 C -0.0549(3) 0.8960(5) 0.8523(4)
H6 H -0.1161 0.8817 0.8209
C6 C 0.0390(3) 1.3668(5) 0.7344(5)
C7 C 0.0763(3) 0.9908(5) 0.9182(4)
O10 O 0.1888(3) 1.5674(4) 1.1407(4)
H7 H 0.2119 1.6301 1.1214
H8 H 0.1449 1.5958 1.1511
O1F O 0.3565(3) 1.3121(4) 1.0370(4)
O2F O 0.2697(2) 1.4804(4) 1.0027(3)
C1F C 0.3448(4) 1.4270(5) 1.0381(4)
O3A O -0.1159(2) 1.3776(4) 0.6896(3)
O3F O 0.3841(2) 1.1224(4) 1.1896(3)
O4F O 0.5589(2) 1.8788(3) 1.1024(3)
O4D O 0.0589(2) 1.3788(3) 1.1024(3)
O4B O 0.4411(2) 1.1212(3) 0.8976(3)
Sm1F Sm 0.364430(17) 1.09696(2) 1.00196(2)
Sm1D Sm -0.135570(17) 0.59696(2) 1.00196(2)
Sm1_2 Sm 0.135570(17) 0.40304(2) 0.99804(2)
Sm1A Sm -0.135570(17) 1.40304(2) 0.50196(2)
Sm1B Sm 0.635570(17) 1.90304(2) 0.99804(2)
Sm1F_2 Sm 0.364430(17) 2.09696(2) 1.00196(2)
O5F O 0.4082(2) 1.6359(3) 1.0719(3)
C2F C 0.4899(3) 1.6928(5) 1.1112(4)
O6F O 0.4229(2) 1.8924(3) 1.0900(4)
O6_2 O 0.0771(2) 1.6076(3) 0.9100(4)
O6F_2 O 0.4229(2) 0.8924(3) 1.0900(4)
O7A O -0.0187(2) 1.3536(3) 0.8646(3)
O7G O 0.5187(2) 1.1464(3) 1.1354(3)
O9F O 0.2500(3) 1.1899(4) 0.8283(3)
H3F H 0.2728 1.2031 0.7851
H4F H 0.2325 1.2597 0.8427
C3F C 0.5121(3) 1.4859(5) 1.1291(4)
H5F H 0.5395 1.4073 1.1460
C4F C 0.4897(3) 1.8319(5) 1.1004(4)
C5F C 0.5549(3) 1.6040(5) 1.1477(4)
H6F H 0.6161 1.6183 1.1791
C6A C -0.0390(3) 1.3668(5) 0.7656(5)
C7F C 0.4237(3) 1.5092(5) 1.0818(4)
O10F O 0.3112(3) 0.9326(4) 0.8593(4)
H7F H 0.2881 0.8699 0.8786
H8F H 0.3551 0.9042 0.8489
O8 O 0.2711(3) 0.7983(4) 0.1359(3)
H1 H 0.3227 0.7831 0.1409
H2 H 0.2406 0.8423 0.0787
loop_
_geom_bond_atom_site_label_1
_geom_bond_atom_site_label_2
_geom_bond_site_symmetry_1
_geom_bond_site_symmetry_2
O1 C1 1_555 1_555
O2 C1 1_555 1_555
C1 C7 1_555 1_555
O3 Sm1 1_555 1_555
O4 C4 1_555 1_555
Sm1 O1 1_555 1_555
O5 C2 1_555 1_555
C2 C4 1_555 1_555
O6 C4 1_555 1_555
O7 C6 1_555 1_555
O8 H1 1_555 1_555
H2 O8 1_555 1_555
O9 Sm1 1_555 1_555
H3 O9 1_555 1_555
H4 O9 1_555 1_555
C3 H5 1_555 1_555
C5 C2 1_555 1_555
H6 C5 1_555 1_555
C6 O3 1_555 1_555
C7 O5 1_555 1_555
O10 Sm1 1_555 1_555
H7 O10 1_555 1_555
H8 O10 1_555 1_555
O1F C1F 1_555 1_555
O2F Sm1 1_555 1_555
C1F O2F 1_555 1_555
O3A Sm1A 1_555 1_555
O3F Sm1F 1_555 1_555
O4F Sm1B 1_555 1_555
O4D Sm1 1_555 1_555
O4B Sm1F 1_555 1_555
Sm1F O2 1_555 1_555
Sm1D O4 1_555 1_555
Sm1_2 O6 1_555 1_555
Sm1A O7 1_555 1_555
Sm1F_2 O6F 1_555 1_555
O5F C2F 1_555 1_555
C2F C4F 1_555 1_555
O6F C4F 1_555 1_555
O6_2 Sm1 1_555 1_555
O6F_2 Sm1F 1_555 1_555
O7A Sm1 1_555 1_555
O7G Sm1F 1_555 1_555
O9F Sm1F 1_555 1_555
H3F O9F 1_555 1_555
H4F O9F 1_555 1_555
C3F H5F 1_555 1_555
C4F O4F 1_555 1_555
C5F C2F 1_555 1_555
H6F C5F 1_555 1_555
C6A C6 1_555 1_555
C7F C1F 1_555 1_555
O10F Sm1F 1_555 1_555
H7F O10F 1_555 1_555
H8F O10F 1_555 1_555
C3 C5 1_555 1_555
C3 C7 1_555 1_555
O1F Sm1F 1_555 1_555
O3A C6A 1_555 1_555
O5F C7F 1_555 1_555
O7A C6A 1_555 1_555
C3F C5F 1_555 1_555
C3F C7F 1_555 1_555

#END
