
#######################################################################
#
#                 Cambridge Crystallographic Data Centre
#                                CCDC 
#
#######################################################################
#
# If this CIF has been generated from an entry in the Cambridge 
# Structural Database, then it will include bibliographic, chemical, 
# crystal, experimental, refinement or atomic coordinate data resulting 
# from the CCDC's data processing and validation procedures.
#
#######################################################################

data_VAZLAL
_symmetry_cell_setting           monoclinic
_symmetry_space_group_name_H-M   'P 21/c'
_symmetry_Int_Tables_number      14
_space_group_name_Hall           '-P 2ybc'
loop_
_symmetry_equiv_pos_site_id
_symmetry_equiv_pos_as_xyz
1 x,y,z
2 -x,1/2+y,1/2-z
3 -x,-y,-z
4 x,1/2-y,1/2+z
_cell_length_a                   7.4128(15)
_cell_length_b                   9.771(2)
_cell_length_c                   15.395(5)
_cell_angle_alpha                90
_cell_angle_beta                 108.33(3)
_cell_angle_gamma                90
_cell_volume                     1058.49
loop_
_atom_site_label
_atom_site_type_symbol
_atom_site_fract_x
_atom_site_fract_y
_atom_site_fract_z
O1 O 0.7239(5) 0.5725(3) 0.5185(2)
Nd1 Nd 0.72414(4) 0.55530(3) 0.356600(18)
O2 O 0.8394(5) 0.3363(4) 0.4221(2)
O3 O 0.9932(5) 0.4712(4) 0.3056(3)
O4 O 1.0049(5) 0.3103(4) 0.5695(2)
O5 O 0.7628(5) 0.7230(4) 0.2384(3)
O6 O 0.6974(5) 0.0846(3) 0.4138(2)
O7 O 0.5207(5) -0.2512(3) 0.3585(2)
O8 O 0.4520(5) -0.0594(4) 0.2784(2)
O9 O 0.5551(5) 0.5488(4) 0.6141(2)
C1 C 0.8886(7) 0.2712(5) 0.4961(3)
C2 C 0.8098(7) 0.1328(5) 0.4962(3)
C3 C 0.8328(8) 0.0370(5) 0.5613(4)
H1 H 0.9004 0.0465 0.6231
C4 C 0.7345(8) -0.0813(5) 0.5180(3)
H2 H 0.7272 -0.1652 0.5452
C5 C 0.6532(7) -0.0473(5) 0.4288(3)
C6 C 0.5335(7) -0.1239(5) 0.3493(4)
C7 C 0.5809(7) 0.5341(5) 0.5382(3)
H3 H 1.041(6) 0.539(4) 0.286(4)
H4 H 1.081(5) 0.444(6) 0.353(2)
H5 H 0.679(5) 0.772(5) 0.204(3)
H6 H 0.871(4) 0.743(5) 0.232(4)
O1B O 0.2761(5) 0.4275(3) 0.4815(2)
Nd1B Nd 0.27586(4) 0.44470(3) 0.643400(18)
Nd1B_2 Nd 1.27586(4) 0.44470(3) 0.643400(18)
Nd1_2 Nd 0.72414(4) -0.44470(3) 0.356600(18)
Nd1A Nd 0.27586(4) 0.05530(3) 0.143400(18)
Nd1B_3 Nd 1.27586(4) 1.44470(3) 0.643400(18)
Nd1C Nd 1.72414(4) 0.94470(3) 0.856600(18)
O2B O 1.1606(5) 0.6637(4) 0.5779(2)
O2B_2 O 0.1606(5) 0.6637(4) 0.5779(2)
O3B O 0.0068(5) 0.5288(4) 0.6944(3)
O4B O 0.9951(5) 0.6897(4) 0.4305(2)
O4_2 O 0.0049(5) 0.3103(4) 0.5695(2)
O5B O 0.2372(5) 0.2770(4) 0.7616(3)
O6B O 1.3026(5) 0.9154(3) 0.5862(2)
O7B O 1.4793(5) 1.2512(3) 0.6415(2)
O7_2 O 0.5207(5) 0.7488(3) 0.3585(2)
O7B_2 O 0.4793(5) 0.2512(3) 0.6415(2)
O8B O 1.5480(5) 1.0594(4) 0.7216(2)
O8A O 0.5480(5) 0.4406(4) 0.2216(2)
O8C O 0.4520(5) 0.5594(4) 0.7784(2)
O9B O 0.4449(5) 0.4512(4) 0.3859(2)
C1B C 1.1114(7) 0.7288(5) 0.5039(3)
C2B C 1.1902(7) 0.8672(5) 0.5038(3)
C3B C 1.1672(8) 0.9630(5) 0.4387(4)
H1B H 1.0996 0.9535 0.3769
C4B C 1.2655(8) 1.0813(5) 0.4820(3)
H2B H 1.2728 1.1652 0.4548
C5B C 1.3468(7) 1.0473(5) 0.5712(3)
C6B C 1.4665(7) 1.1239(5) 0.6507(4)
C7B C 0.4191(7) 0.4659(5) 0.4618(3)
H3B H -0.041(6) 0.461(4) 0.714(4)
H4B H -0.081(5) 0.556(6) 0.647(2)
H5B H 0.321(5) 0.228(5) 0.796(3)
H6B H 0.129(4) 0.257(5) 0.768(4)
O10 O 0.1496(6) 0.8222(4) 0.7419(3)
H7 H 0.135(8) 0.795(6) 0.6895(18)
H8 H 0.249(6) 0.795(6) 0.781(3)
loop_
_geom_bond_atom_site_label_1
_geom_bond_atom_site_label_2
_geom_bond_site_symmetry_1
_geom_bond_site_symmetry_2
O1 Nd1 1_555 1_555
Nd1 O2 1_555 1_555
O2 C1 1_555 1_555
O3 Nd1 1_555 1_555
O4 C1 1_555 1_555
O5 Nd1 1_555 1_555
O6 C2 1_555 1_555
O7 C6 1_555 1_555
O8 C6 1_555 1_555
O9 C7 1_555 1_555
C1 C2 1_555 1_555
C2 C3 1_555 1_555
C3 H1 1_555 1_555
C4 C3 1_555 1_555
H2 C4 1_555 1_555
C5 O6 1_555 1_555
C6 C5 1_555 1_555
C7 O1 1_555 1_555
O10 H7 1_555 1_555
H3 O3 1_555 1_555
H4 O3 1_555 1_555
H5 O5 1_555 1_555
H6 O5 1_555 1_555
H8 O10 1_555 1_555
O1B Nd1B 1_555 1_555
Nd1B O9 1_555 1_555
Nd1B_2 O4 1_555 1_555
Nd1_2 O7 1_555 1_555
Nd1A O8 1_555 1_555
Nd1B_3 O7B 1_555 1_555
Nd1C O8B 1_555 1_555
O2B Nd1B_2 1_555 1_555
O2B_2 Nd1B 1_555 1_555
O3B Nd1B 1_555 1_555
O4B Nd1 1_555 1_555
O4_2 Nd1B 1_555 1_555
O5B Nd1B 1_555 1_555
O6B C2B 1_555 1_555
O7B C6B 1_555 1_555
O7_2 Nd1 1_555 1_555
O7B_2 Nd1B 1_555 1_555
O8B C6B 1_555 1_555
O8A Nd1 1_555 1_555
O8C Nd1B 1_555 1_555
O9B Nd1 1_555 1_555
C1B O2B 1_555 1_555
C2B C1B 1_555 1_555
C3B C2B 1_555 1_555
H1B C3B 1_555 1_555
C4B C3B 1_555 1_555
H2B C4B 1_555 1_555
C5B O6B 1_555 1_555
C6B C5B 1_555 1_555
C7B C7 1_555 1_555
H3B O3B 1_555 1_555
H4B O3B 1_555 1_555
H5B O5B 1_555 1_555
H6B O5B 1_555 1_555
C4 C5 1_555 1_555
O1B C7B 1_555 1_555
O4B C1B 1_555 1_555
O9B C7B 1_555 1_555
C4B C5B 1_555 1_555

#END
