
#######################################################################
#
#                 Cambridge Crystallographic Data Centre
#                                CCDC 
#
#######################################################################
#
# If this CIF has been generated from an entry in the Cambridge 
# Structural Database, then it will include bibliographic, chemical, 
# crystal, experimental, refinement or atomic coordinate data resulting 
# from the CCDC's data processing and validation procedures.
#
#######################################################################

data_VAZMEQ
_symmetry_cell_setting           monoclinic
_symmetry_space_group_name_H-M   'C 2/c'
_symmetry_Int_Tables_number      15
_space_group_name_Hall           '-C 2yn'
loop_
_symmetry_equiv_pos_site_id
_symmetry_equiv_pos_as_xyz
1 x,y,z
2 -x,y,1/2-z
3 1/2+x,1/2+y,z
4 1/2-x,1/2+y,1/2-z
5 -x,-y,-z
6 x,-y,1/2+z
7 1/2-x,1/2-y,-z
8 1/2+x,1/2-y,1/2+z
_cell_length_a                   16.727(3)
_cell_length_b                   10.537(2)
_cell_length_c                   13.656(3)
_cell_angle_alpha                90
_cell_angle_beta                 117.62(3)
_cell_angle_gamma                90
_cell_volume                     2132.62
loop_
_atom_site_label
_atom_site_type_symbol
_atom_site_fract_x
_atom_site_fract_y
_atom_site_fract_z
O1 O 0.1422(3) 1.1925(4) 0.9614(4)
O2 O 0.2315(2) 1.0230(4) 0.9957(3)
C1 C 0.1555(4) 1.0755(5) 0.9612(5)
O3 O 0.1176(2) 1.3815(4) 0.8127(3)
O4 O -0.0599(3) 0.6206(4) 0.9015(4)
Dy1 Dy 0.135440(16) 1.40340(2) 0.99738(2)
O5 O 0.0915(2) 0.8645(3) 0.9281(3)
C2 C 0.0096(4) 0.8077(5) 0.8899(5)
O6 O 0.0770(3) 0.6064(4) 0.9121(4)
O7 O 0.0191(3) 1.3566(4) 0.6358(3)
O9 O 0.2485(3) 1.3092(5) 1.1688(4)
H3 H 0.2257 1.2964 1.2120
H4 H 0.2659 1.2392 1.1545
C3 C -0.0145(4) 1.0162(5) 0.8697(5)
H5 H -0.0424 1.0952 0.8527
C4 C 0.0094(4) 0.6680(5) 0.9018(5)
C5 C -0.0575(4) 0.8965(5) 0.8515(5)
H6 H -0.1193 0.8813 0.8197
C6 C 0.0398(4) 1.3704(5) 0.7353(5)
C7 C 0.0755(4) 0.9926(5) 0.9170(5)
O10 O 0.1903(3) 1.5646(4) 1.1406(4)
H7 H 0.2022 1.6340 1.1159
H8 H 0.1498 1.5808 1.1616
O1F O 0.3578(3) 1.3075(4) 1.0386(4)
O2F O 0.2685(2) 1.4770(4) 1.0043(3)
C1F C 0.3445(4) 1.4245(5) 1.0388(5)
O3A O -0.1176(2) 1.3815(4) 0.6873(3)
O3F O 0.3824(2) 1.1185(4) 1.1873(3)
O4F O 0.5599(3) 1.8794(4) 1.0985(4)
O4D O 0.0599(3) 1.3794(4) 1.0985(4)
O4B O 0.4401(3) 1.1206(4) 0.9015(4)
Dy1F Dy 0.364560(16) 1.09660(2) 1.00262(2)
Dy1D Dy -0.135440(16) 0.59660(2) 1.00262(2)
Dy1_2 Dy 0.135440(16) 0.40340(2) 0.99738(2)
Dy1A Dy -0.135440(16) 1.40340(2) 0.50262(2)
Dy1B Dy 0.635440(16) 1.90340(2) 0.99738(2)
Dy1F_2 Dy 0.364560(16) 2.09660(2) 1.00262(2)
O5F O 0.4085(2) 1.6355(3) 1.0719(3)
C2F C 0.4904(4) 1.6923(5) 1.1101(5)
O6F O 0.4230(3) 1.8936(4) 1.0879(4)
O6_2 O 0.0770(3) 1.6064(4) 0.9121(4)
O6F_2 O 0.4230(3) 0.8936(4) 1.0879(4)
O7A O -0.0191(3) 1.3566(4) 0.8642(3)
O7G O 0.5191(3) 1.1434(4) 1.1358(3)
O9F O 0.2515(3) 1.1908(5) 0.8312(4)
H3F H 0.2743 1.2036 0.7880
H4F H 0.2341 1.2608 0.8455
C3F C 0.5145(4) 1.4838(5) 1.1303(5)
H5F H 0.5424 1.4048 1.1473
C4F C 0.4906(4) 1.8320(5) 1.0982(5)
C5F C 0.5575(4) 1.6035(5) 1.1485(5)
H6F H 0.6193 1.6187 1.1803
C6A C -0.0398(4) 1.3704(5) 0.7647(5)
C7F C 0.4245(4) 1.5074(5) 1.0830(5)
O10F O 0.3097(3) 0.9354(4) 0.8594(4)
H7F H 0.2978 0.8660 0.8841
H8F H 0.3502 0.9192 0.8384
O8 O 0.2715(3) 0.7974(5) 0.1368(4)
H1 H 0.3232 0.7838 0.1419
H2 H 0.2448 0.8543 0.0888
loop_
_geom_bond_atom_site_label_1
_geom_bond_atom_site_label_2
_geom_bond_site_symmetry_1
_geom_bond_site_symmetry_2
O1 C1 1_555 1_555
O2 C1 1_555 1_555
C1 C7 1_555 1_555
O3 Dy1 1_555 1_555
O4 C4 1_555 1_555
Dy1 O1 1_555 1_555
O5 C2 1_555 1_555
C2 C4 1_555 1_555
O6 C4 1_555 1_555
O7 C6 1_555 1_555
O8 H1 1_555 1_555
H2 O8 1_555 1_555
O9 Dy1 1_555 1_555
H3 O9 1_555 1_555
H4 O9 1_555 1_555
C3 H5 1_555 1_555
C5 C2 1_555 1_555
H6 C5 1_555 1_555
C6 O3 1_555 1_555
C7 O5 1_555 1_555
O10 Dy1 1_555 1_555
H7 O10 1_555 1_555
H8 O10 1_555 1_555
O1F C1F 1_555 1_555
O2F Dy1 1_555 1_555
C1F O2F 1_555 1_555
O3A Dy1A 1_555 1_555
O3F Dy1F 1_555 1_555
O4F Dy1B 1_555 1_555
O4D Dy1 1_555 1_555
O4B Dy1F 1_555 1_555
Dy1F O2 1_555 1_555
Dy1D O4 1_555 1_555
Dy1_2 O6 1_555 1_555
Dy1A O7 1_555 1_555
Dy1F_2 O6F 1_555 1_555
O5F C2F 1_555 1_555
C2F C4F 1_555 1_555
O6F C4F 1_555 1_555
O6_2 Dy1 1_555 1_555
O6F_2 Dy1F 1_555 1_555
O7A Dy1 1_555 1_555
O7G Dy1F 1_555 1_555
O9F Dy1F 1_555 1_555
H3F O9F 1_555 1_555
H4F O9F 1_555 1_555
C3F H5F 1_555 1_555
C4F O4F 1_555 1_555
C5F C2F 1_555 1_555
H6F C5F 1_555 1_555
C6A C6 1_555 1_555
C7F C1F 1_555 1_555
O10F Dy1F 1_555 1_555
H7F O10F 1_555 1_555
H8F O10F 1_555 1_555
C3 C5 1_555 1_555
C3 C7 1_555 1_555
O1F Dy1F 1_555 1_555
O3A C6A 1_555 1_555
O5F C7F 1_555 1_555
O7A C6A 1_555 1_555
C3F C5F 1_555 1_555
C3F C7F 1_555 1_555

#END
