
#######################################################################
#
#                 Cambridge Crystallographic Data Centre
#                                CCDC 
#
#######################################################################
#
# If this CIF has been generated from an entry in the Cambridge 
# Structural Database, then it will include bibliographic, chemical, 
# crystal, experimental, refinement or atomic coordinate data resulting 
# from the CCDC's data processing and validation procedures.
#
#######################################################################

data_VAZMAM
_symmetry_cell_setting           monoclinic
_symmetry_space_group_name_H-M   'C 2/c'
_symmetry_Int_Tables_number      15
_space_group_name_Hall           '-C 2yn'
loop_
_symmetry_equiv_pos_site_id
_symmetry_equiv_pos_as_xyz
1 x,y,z
2 -x,y,1/2-z
3 1/2+x,1/2+y,z
4 1/2-x,1/2+y,1/2-z
5 -x,-y,-z
6 x,-y,1/2+z
7 1/2-x,1/2-y,-z
8 1/2+x,1/2-y,1/2+z
_cell_length_a                   16.775(3)
_cell_length_b                   10.569(2)
_cell_length_c                   13.697(3)
_cell_angle_alpha                90
_cell_angle_beta                 117.53(3)
_cell_angle_gamma                90
_cell_volume                     2153.44
loop_
_atom_site_label
_atom_site_type_symbol
_atom_site_fract_x
_atom_site_fract_y
_atom_site_fract_z
O1 O 0.1429(3) 1.1913(4) 0.9619(3)
O2 O 0.2313(2) 1.0223(3) 0.9960(3)
C1 C 0.1556(3) 1.0751(5) 0.9615(4)
O3 O 0.1171(2) 1.3806(4) 0.8119(3)
O4 O -0.0591(2) 0.6213(3) 0.9005(3)
Tb1 Tb 0.135390(16) 1.40327(2) 0.99748(2)
O5 O 0.0918(2) 0.8645(3) 0.9285(3)
C2 C 0.0097(3) 0.8080(5) 0.8898(4)
O6 O 0.0768(2) 0.6068(3) 0.9112(3)
O7 O 0.0187(2) 1.3559(3) 0.6354(3)
O9 O 0.2487(3) 1.3091(4) 1.1691(3)
H3 H 0.2286 1.3068 1.2159
H4 H 0.2601 1.2343 1.1563
C3 C -0.0133(3) 1.0153(5) 0.8705(4)
H5 H -0.0410 1.0941 0.8532
C4 C 0.0096(3) 0.6672(5) 0.9012(4)
C5 C -0.0567(4) 0.8957(5) 0.8523(4)
H6 H -0.1183 0.8807 0.8210
C6 C 0.0392(3) 1.3702(5) 0.7344(4)
C7 C 0.0751(3) 0.9926(5) 0.9171(4)
O10 O 0.1894(3) 1.5649(4) 1.1403(4)
H7 H 0.2116 1.6281 1.1206
H8 H 0.1456 1.5923 1.1515
O1F O 0.3571(3) 1.3087(4) 1.0381(3)
O2F O 0.2687(2) 1.4777(3) 1.0040(3)
C1F C 0.3444(3) 1.4249(5) 1.0385(4)
O3A O -0.1171(2) 1.3806(4) 0.6881(3)
O3F O 0.3829(2) 1.1194(4) 1.1881(3)
O4F O 0.5591(2) 1.8787(3) 1.0995(3)
O4D O 0.0591(2) 1.3787(3) 1.0995(3)
O4B O 0.4409(2) 1.1213(3) 0.9005(3)
Tb1F Tb 0.364610(16) 1.09673(2) 1.00252(2)
Tb1D Tb -0.135390(16) 0.59673(2) 1.00252(2)
Tb1_2 Tb 0.135390(16) 0.40327(2) 0.99748(2)
Tb1A Tb -0.135390(16) 1.40327(2) 0.50252(2)
Tb1B Tb 0.635390(16) 1.90327(2) 0.99748(2)
Tb1F_2 Tb 0.364610(16) 2.09673(2) 1.00252(2)
O5F O 0.4082(2) 1.6355(3) 1.0715(3)
C2F C 0.4903(3) 1.6920(5) 1.1102(4)
O6F O 0.4232(2) 1.8932(3) 1.0888(3)
O6_2 O 0.0768(2) 1.6068(3) 0.9112(3)
O6F_2 O 0.4232(2) 0.8932(3) 1.0888(3)
O7A O -0.0187(2) 1.3559(3) 0.8646(3)
O7G O 0.5187(2) 1.1441(3) 1.1354(3)
O9F O 0.2513(3) 1.1909(4) 0.8309(3)
H3F H 0.2714 1.1932 0.7841
H4F H 0.2399 1.2657 0.8437
C3F C 0.5133(3) 1.4847(5) 1.1295(4)
H5F H 0.5410 1.4059 1.1468
C4F C 0.4904(3) 1.8328(5) 1.0988(4)
C5F C 0.5567(4) 1.6043(5) 1.1477(4)
H6F H 0.6183 1.6193 1.1790
C6A C -0.0392(3) 1.3702(5) 0.7656(4)
C7F C 0.4249(3) 1.5074(5) 1.0829(4)
O10F O 0.3106(3) 0.9351(4) 0.8597(4)
H7F H 0.2884 0.8719 0.8794
H8F H 0.3544 0.9077 0.8485
O8 O 0.2717(3) 0.7976(4) 0.1374(3)
H1 H 0.3263 0.7899 0.1509
H2 H 0.2441 0.8445 0.0812
loop_
_geom_bond_atom_site_label_1
_geom_bond_atom_site_label_2
_geom_bond_site_symmetry_1
_geom_bond_site_symmetry_2
O1 C1 1_555 1_555
O2 C1 1_555 1_555
C1 C7 1_555 1_555
O3 Tb1 1_555 1_555
O4 C4 1_555 1_555
Tb1 O1 1_555 1_555
O5 C2 1_555 1_555
C2 C4 1_555 1_555
O6 C4 1_555 1_555
O7 C6 1_555 1_555
O8 H1 1_555 1_555
H2 O8 1_555 1_555
O9 Tb1 1_555 1_555
H3 O9 1_555 1_555
H4 O9 1_555 1_555
C3 H5 1_555 1_555
C5 C2 1_555 1_555
H6 C5 1_555 1_555
C6 O3 1_555 1_555
C7 O5 1_555 1_555
O10 Tb1 1_555 1_555
H7 O10 1_555 1_555
H8 O10 1_555 1_555
O1F C1F 1_555 1_555
O2F Tb1 1_555 1_555
C1F O2F 1_555 1_555
O3A Tb1A 1_555 1_555
O3F Tb1F 1_555 1_555
O4F Tb1B 1_555 1_555
O4D Tb1 1_555 1_555
O4B Tb1F 1_555 1_555
Tb1F O2 1_555 1_555
Tb1D O4 1_555 1_555
Tb1_2 O6 1_555 1_555
Tb1A O7 1_555 1_555
Tb1F_2 O6F 1_555 1_555
O5F C2F 1_555 1_555
C2F C4F 1_555 1_555
O6F C4F 1_555 1_555
O6_2 Tb1 1_555 1_555
O6F_2 Tb1F 1_555 1_555
O7A Tb1 1_555 1_555
O7G Tb1F 1_555 1_555
O9F Tb1F 1_555 1_555
H3F O9F 1_555 1_555
H4F O9F 1_555 1_555
C3F H5F 1_555 1_555
C4F O4F 1_555 1_555
C5F C2F 1_555 1_555
H6F C5F 1_555 1_555
C6A C6 1_555 1_555
C7F C1F 1_555 1_555
O10F Tb1F 1_555 1_555
H7F O10F 1_555 1_555
H8F O10F 1_555 1_555
C3 C5 1_555 1_555
C3 C7 1_555 1_555
O1F Tb1F 1_555 1_555
O3A C6A 1_555 1_555
O5F C7F 1_555 1_555
O7A C6A 1_555 1_555
C3F C5F 1_555 1_555
C3F C7F 1_555 1_555

#END
