
#######################################################################
#
#                 Cambridge Crystallographic Data Centre
#                                CCDC 
#
#######################################################################
#
# If this CIF has been generated from an entry in the Cambridge 
# Structural Database, then it will include bibliographic, chemical, 
# crystal, experimental, refinement or atomic coordinate data resulting 
# from the CCDC's data processing and validation procedures.
#
#######################################################################

data_VAZPUI
_symmetry_cell_setting           triclinic
_symmetry_space_group_name_H-M   'P -1'
_symmetry_Int_Tables_number      2
_space_group_name_Hall           '-P 1'
loop_
_symmetry_equiv_pos_site_id
_symmetry_equiv_pos_as_xyz
1 x,y,z
2 -x,-y,-z
_cell_length_a                   7.0290(10)
_cell_length_b                   8.829(2)
_cell_length_c                   11.720(2)
_cell_angle_alpha                80.62(3)
_cell_angle_beta                 72.66(3)
_cell_angle_gamma                76.52(3)
_cell_volume                     671.716
loop_
_atom_site_label
_atom_site_type_symbol
_atom_site_fract_x
_atom_site_fract_y
_atom_site_fract_z
Cd1 Cd 0.72063(3) 0.71871(2) 0.93308(2)
O1 O 0.6866(4) 0.6999(3) 0.7345(2)
O2 O 0.7597(4) 0.4883(2) 0.8533(2)
O3 O 0.7641(3) 0.4861(2) 0.3357(2)
O4 O 0.7316(4) 0.5846(3) 0.1154(2)
O5 O 0.6830(4) 0.8331(3) 0.1424(2)
O6 O 1.0684(4) 0.7203(3) 0.8760(2)
O7 O 0.6953(4) 0.9776(2) 0.8698(2)
O8 O 0.3567(4) 0.7618(3) 1.0025(2)
C1 C 0.7313(4) 0.5544(3) 0.7528(2)
C2 C 0.7616(4) 0.4528(3) 0.6550(2)
C3 C 0.8204(4) 0.2920(3) 0.6745(2)
C4 C 0.8578(5) 0.1995(3) 0.5820(3)
C5 C 0.8373(5) 0.2685(3) 0.4697(2)
C6 C 0.7771(4) 0.4293(3) 0.4505(2)
C7 C 0.7375(4) 0.5233(3) 0.5426(2)
C8 C 0.7096(4) 0.6500(3) 0.3109(2)
C9 C 0.7095(4) 0.6906(4) 0.1799(2)
H1 H 1.0942 0.7910 0.8183
H2 H 1.1348 0.6316 0.8537
H3 H 0.7055 1.0258 0.9242
H4 H 0.5809 1.0138 0.8551
H5 H 0.3211 0.6849 1.0518
H6 H 0.3079 0.7704 0.9431
H7 H 0.8348 0.2459 0.7494
H8 H 0.8965 0.0914 0.5951
H9 H 0.8639 0.2066 0.4075
H10 H 0.6958 0.6312 0.5298
H11 H 0.8056 0.7005 0.3278
H12 H 0.5756 0.6879 0.3621
Cd1_2 Cd 0.72063(3) 0.71871(2) -0.06692(2)
O4_2 O 0.7316(4) 0.5846(3) 1.1154(2)
O9 O 1.3250(10) 0.9316(9) 0.6996(6)
O11 O 1.5700(10) 0.9375(9) 0.5640(7)
O10? O 1.231(2) 0.9510(10) 0.7500(8)
loop_
_geom_bond_atom_site_label_1
_geom_bond_atom_site_label_2
_geom_bond_site_symmetry_1
_geom_bond_site_symmetry_2
Cd1 O1 1_555 1_555
O1 C1 1_555 1_555
O2 Cd1 1_555 1_555
O3 C6 1_555 1_555
O4 C9 1_555 1_555
O5 C9 1_555 1_555
O6 Cd1 1_555 1_555
O7 Cd1 1_555 1_555
O8 Cd1 1_555 1_555
C1 O2 1_555 1_555
C2 C1 1_555 1_555
C3 C2 1_555 1_555
C4 C3 1_555 1_555
C5 C4 1_555 1_555
C6 C5 1_555 1_555
C7 C2 1_555 1_555
C8 O3 1_555 1_555
C9 C8 1_555 1_555
H1 O6 1_555 1_555
H2 O6 1_555 1_555
H3 O7 1_555 1_555
H4 O7 1_555 1_555
H5 O8 1_555 1_555
H6 O8 1_555 1_555
H7 C3 1_555 1_555
H8 C4 1_555 1_555
H9 C5 1_555 1_555
H10 C7 1_555 1_555
H11 C8 1_555 1_555
H12 C8 1_555 1_555
Cd1_2 O4 1_555 1_555
O4_2 Cd1 1_555 1_555
C6 C7 1_555 1_555

#END
