
#######################################################################
#
#                 Cambridge Crystallographic Data Centre
#                                CCDC 
#
#######################################################################
#
# If this CIF has been generated from an entry in the Cambridge 
# Structural Database, then it will include bibliographic, chemical, 
# crystal, experimental, refinement or atomic coordinate data resulting 
# from the CCDC's data processing and validation procedures.
#
#######################################################################

data_VAZQAP
_symmetry_cell_setting           monoclinic
_symmetry_space_group_name_H-M   'P 21/c'
_symmetry_Int_Tables_number      14
_space_group_name_Hall           '-P 2ybc'
loop_
_symmetry_equiv_pos_site_id
_symmetry_equiv_pos_as_xyz
1 x,y,z
2 -x,1/2+y,1/2-z
3 -x,-y,-z
4 x,1/2-y,1/2+z
_cell_length_a                   8.4321(5)
_cell_length_b                   11.6068(7)
_cell_length_c                   16.2351(10)
_cell_angle_alpha                90.0
_cell_angle_beta                 94.8630(10)
_cell_angle_gamma                90.0
_cell_volume                     1583.2
loop_
_atom_site_label
_atom_site_type_symbol
_atom_site_fract_x
_atom_site_fract_y
_atom_site_fract_z
I1 I 0.72936(2) 0.579312(15) 0.069568(12)
Cu1 Cu 0.87384(4) 0.71572(3) 0.17027(2)
P1 P 1.04422(8) 0.63047(6) 0.26493(4)
P2 P 1.18719(9) 0.62129(6) 0.43828(5)
P3 P 1.39471(8) 0.58751(6) 0.29620(5)
P4 P 1.16248(8) 0.40671(6) 0.33530(4)
N1 N 1.0492(3) 0.67457(19) 0.36375(14)
N2 N 1.3636(3) 0.63634(19) 0.39244(15)
N3 N 1.2322(3) 0.64358(19) 0.23728(14)
N4 N 1.3376(3) 0.44569(19) 0.30059(15)
N5 N 1.1578(3) 0.47475(19) 0.42786(14)
N6 N 1.0262(2) 0.48477(18) 0.27578(13)
C1 C 0.9770(4) 0.7866(2) 0.38322(18)
H1 H 1.0461 0.8494 0.3675
H2 H 0.9649 0.7909 0.4426
H3 H 0.8724 0.7938 0.3524
C2 C 1.4423(4) 0.7485(3) 0.4131(2)
H4 H 1.5502 0.7479 0.395
H5 H 1.4477 0.7608 0.473
H6 H 1.3809 0.8109 0.385
C3 C 1.2445(4) 0.6293(3) 0.14700(18)
H7 H 1.2028 0.5535 0.1295
H8 H 1.3562 0.6352 0.1352
H9 H 1.1824 0.6896 0.1169
C4 C 1.4647(4) 0.3604(3) 0.3021(3)
H10 H 1.5276 0.3634 0.3557
H11 H 1.5334 0.377 0.2579
H12 H 1.4183 0.2834 0.2939
C5 C 1.2448(4) 0.4127(2) 0.49809(18)
H13 H 1.234 0.3294 0.4894
H14 H 1.1999 0.4339 0.5497
H15 H 1.3576 0.434 0.5014
C6 C 0.8605(3) 0.4478(2) 0.28647(18)
H16 H 0.8445 0.3689 0.2659
H17 H 0.7857 0.4996 0.2553
H18 H 0.8419 0.4506 0.3452
Cu1A Cu 1.12616(4) 0.21572(3) 0.32973(2)
P4A P 0.83752(8) 0.90671(6) 0.16470(4)
loop_
_geom_bond_atom_site_label_1
_geom_bond_atom_site_label_2
_geom_bond_site_symmetry_1
_geom_bond_site_symmetry_2
I1 Cu1 1_555 1_555
Cu1 P1 1_555 1_555
P1 N1 1_555 1_555
P2 N1 1_555 1_555
P3 N2 1_555 1_555
P4 N4 1_555 1_555
N1 C1 1_555 1_555
N2 P2 1_555 1_555
N3 P1 1_555 1_555
N4 P3 1_555 1_555
N5 P2 1_555 1_555
N6 P1 1_555 1_555
C1 H1 1_555 1_555
H2 C1 1_555 1_555
H3 C1 1_555 1_555
C2 N2 1_555 1_555
H4 C2 1_555 1_555
H5 C2 1_555 1_555
H6 C2 1_555 1_555
C3 N3 1_555 1_555
H7 C3 1_555 1_555
H8 C3 1_555 1_555
H9 C3 1_555 1_555
C4 N4 1_555 1_555
H10 C4 1_555 1_555
H11 C4 1_555 1_555
H12 C4 1_555 1_555
C5 N5 1_555 1_555
H13 C5 1_555 1_555
H14 C5 1_555 1_555
H15 C5 1_555 1_555
C6 N6 1_555 1_555
H16 C6 1_555 1_555
H17 C6 1_555 1_555
H18 C6 1_555 1_555
Cu1A P4 1_555 1_555
P4A Cu1 1_555 1_555
P3 N3 1_555 1_555
P4 N5 1_555 1_555
P4 N6 1_555 1_555

#END
