
#######################################################################
#
#                 Cambridge Crystallographic Data Centre
#                                CCDC 
#
#######################################################################
#
# If this CIF has been generated from an entry in the Cambridge 
# Structural Database, then it will include bibliographic, chemical, 
# crystal, experimental, refinement or atomic coordinate data resulting 
# from the CCDC's data processing and validation procedures.
#
#######################################################################

data_VAZQOD
_symmetry_cell_setting           triclinic
_symmetry_space_group_name_H-M   'P -1'
_symmetry_Int_Tables_number      2
_space_group_name_Hall           '-P 1'
loop_
_symmetry_equiv_pos_site_id
_symmetry_equiv_pos_as_xyz
1 x,y,z
2 -x,-y,-z
_cell_length_a                   7.7486(15)
_cell_length_b                   10.577(2)
_cell_length_c                   10.947(2)
_cell_angle_alpha                103.71(3)
_cell_angle_beta                 101.57(3)
_cell_angle_gamma                108.43(3)
_cell_volume                     789.111
loop_
_atom_site_label
_atom_site_type_symbol
_atom_site_fract_x
_atom_site_fract_y
_atom_site_fract_z
Cd1 Cd 0.21550(8) 0.13174(6) 0.24203(6)
S1 S 0.1860(3) 0.6113(2) 0.2039(2)
O1 O -0.1113(9) 0.0124(6) 0.1333(6)
O2 O 0.2263(11) 0.2568(7) 0.0406(10)
O3 O 0.1526(9) 0.3269(7) 0.2207(9)
O4 O 0.2784(9) 0.9456(6) 0.0900(6)
O5 O 0.1993(9) 0.9063(7) 0.2621(7)
N1 N 0.1869(10) 0.1785(9) 0.4484(8)
N2 N 0.0766(13) 0.1798(8) 0.6174(8)
N3 N 0.5332(9) 0.2600(8) 0.3021(8)
N4 N 0.8273(10) 0.3311(9) 0.2983(9)
C1 C 0.1985(12) 0.3449(10) 0.1212(14)
C2 C 0.6629(12) 0.2187(10) 0.2620(10)
C3 C 0.6190(15) 0.4018(11) 0.3577(11)
C4 C 0.8015(14) 0.4472(11) 0.3620(11)
C5 C 0.2286(11) 0.4832(9) 0.0998(9)
C6 C 0.2954(12) 0.5263(9) 0.0019(9)
C7 C 0.3111(12) 0.6694(8) 0.0178(8)
C8 C 0.2550(10) 0.7282(8) 0.1211(7)
C9 C 0.2438(11) 0.8691(8) 0.1598(8)
C10 C 0.0363(13) 0.1639(10) 0.4944(10)
C11 C 0.3338(14) 0.2176(14) 0.5630(10)
C12 C 0.2646(16) 0.2170(13) 0.6624(10)
H1 H 0.6433 0.1268 0.2162
H2 H 0.5581 0.4599 0.3889
H3 H 0.8920 0.5387 0.4004
H4 H -0.0026 0.1686 0.6627
H5 H 0.9317 0.3296 0.2835
H6 H -0.142(14) 0.049(8) 0.075(6)
H7 H -0.132(14) -0.073(3) 0.096(7)
H8 H 0.3255 0.4714 -0.0639
H9 H 0.3555 0.7179 -0.0374
H10 H -0.0854 0.1441 0.4419
H11 H 0.4618 0.2406 0.5683
H12 H 0.3344 0.2389 0.7495
Cd1_2 Cd 0.21550(8) 1.13174(6) 0.24203(6)
O4_2 O 0.2784(9) -0.0544(6) 0.0900(6)
O5_2 O 0.1993(9) -0.0937(7) 0.2621(7)
loop_
_geom_bond_atom_site_label_1
_geom_bond_atom_site_label_2
_geom_bond_site_symmetry_1
_geom_bond_site_symmetry_2
Cd1 O1 1_555 1_555
S1 C5 1_555 1_555
O1 H6 1_555 1_555
O2 Cd1 1_555 1_555
O3 Cd1 1_555 1_555
O4 C9 1_555 1_555
O5 C9 1_555 1_555
N1 Cd1 1_555 1_555
N2 C10 1_555 1_555
N3 Cd1 1_555 1_555
N4 C2 1_555 1_555
C1 O2 1_555 1_555
C2 N3 1_555 1_555
C3 N3 1_555 1_555
C4 N4 1_555 1_555
C5 C1 1_555 1_555
C6 C5 1_555 1_555
C7 C6 1_555 1_555
C8 S1 1_555 1_555
C9 C8 1_555 1_555
C10 N1 1_555 1_555
C11 N1 1_555 1_555
C12 N2 1_555 1_555
H1 C2 1_555 1_555
H2 C3 1_555 1_555
H3 C4 1_555 1_555
H4 N2 1_555 1_555
H5 N4 1_555 1_555
H7 O1 1_555 1_555
H8 C6 1_555 1_555
H9 C7 1_555 1_555
H10 C10 1_555 1_555
H11 C11 1_555 1_555
H12 C12 1_555 1_555
Cd1_2 O4 1_555 1_555
O4_2 Cd1 1_555 1_555
O5_2 Cd1 1_555 1_555
O3 C1 1_555 1_555
O5 Cd1_2 1_555 1_555
C3 C4 1_555 1_555
C7 C8 1_555 1_555
C11 C12 1_555 1_555

#END
