
#######################################################################
#
#                 Cambridge Crystallographic Data Centre
#                                CCDC 
#
#######################################################################
#
# If this CIF has been generated from an entry in the Cambridge 
# Structural Database, then it will include bibliographic, chemical, 
# crystal, experimental, refinement or atomic coordinate data resulting 
# from the CCDC's data processing and validation procedures.
#
#######################################################################

data_VAZREU
_symmetry_cell_setting           triclinic
_symmetry_space_group_name_H-M   'P -1'
_symmetry_Int_Tables_number      2
_space_group_name_Hall           '-P 1'
loop_
_symmetry_equiv_pos_site_id
_symmetry_equiv_pos_as_xyz
1 x,y,z
2 -x,-y,-z
_cell_length_a                   10.770(14)
_cell_length_b                   11.500(15)
_cell_length_c                   12.816(17)
_cell_angle_alpha                101.761(18)
_cell_angle_beta                 110.643(18)
_cell_angle_gamma                99.283(19)
_cell_volume                     1406.34
loop_
_atom_site_label
_atom_site_type_symbol
_atom_site_fract_x
_atom_site_fract_y
_atom_site_fract_z
Pt1 Pt 0.0000 0.0000 0.0000
K1 K 0.47012(8) 0.71114(8) 0.24762(7)
N1 N 0.4206(4) 0.4373(4) 0.1957(3)
N2 N 0.3468(4) 0.2915(4) -0.1401(4)
O1 O 0.1936(3) 0.6365(3) 0.1143(2)
O2 O 0.3494(3) 0.8189(3) 0.0673(2)
O3 O 0.5611(3) 0.9661(3) 0.2808(3)
O4 O 0.7179(3) 0.8558(2) 0.4391(2)
O5 O 0.5397(3) 0.6736(3) 0.4614(2)
O6 O 0.2881(3) 0.7255(3) 0.3575(3)
S1 S 0.15040(10) 0.16796(9) 0.14409(8)
S2 S 0.08369(10) 0.05935(9) -0.12674(8)
C1 C 0.1667(4) 0.6399(4) -0.0023(4)
H1 H 0.0678 0.6078 -0.0484
C2 C 0.2387(5) 0.5532(4) -0.0471(4)
H2 H 0.2029 0.4714 -0.0445
H3 H 0.3359 0.5791 0.0023
C3 C 0.2189(5) 0.5501(4) -0.1705(4)
H4 H 0.2709 0.4976 -0.1957
H5 H 0.1227 0.5157 -0.2213
C4 C 0.2653(5) 0.6774(5) -0.1796(4)
H6 H 0.3632 0.7092 -0.1342
H7 H 0.2477 0.6736 -0.2600
C5 C 0.1903(5) 0.7615(5) -0.1360(4)
H8 H 0.0933 0.7332 -0.1858
H9 H 0.2235 0.8434 -0.1400
C6 C 0.2094(4) 0.7671(4) -0.0122(4)
H10 H 0.1524 0.8171 0.0101
C7 C 0.3810(6) 0.9487(4) 0.1044(5)
H11 H 0.3560 0.9800 0.0370
H12 H 0.3276 0.9738 0.1480
C8 C 0.5213(6) 0.9994(5) 0.1743(5)
H13 H 0.5411 1.0882 0.1916
H14 H 0.5747 0.9711 0.1319
C9 C 0.7021(5) 1.0099(4) 0.3427(4)
H15 H 0.7286 1.0979 0.3548
H16 H 0.7490 0.9714 0.2987
C10 C 0.7424(5) 0.9826(4) 0.4565(4)
H17 H 0.8389 1.0213 0.5032
H18 H 0.6899 1.0154 0.4978
C11 C 0.7637(4) 0.8215(4) 0.5447(3)
H19 H 0.7428 0.8752 0.6027
C12 C 0.9163(4) 0.8319(4) 0.5921(4)
H20 H 0.9648 0.9142 0.6005
H21 H 0.9451 0.8187 0.6686
C13 C 0.9547(5) 0.7403(5) 0.5144(4)
H22 H 0.9357 0.7590 0.4407
H23 H 1.0523 0.7467 0.5503
C14 C 0.8757(4) 0.6120(5) 0.4936(4)
H24 H 0.8996 0.5911 0.5666
H25 H 0.8997 0.5548 0.4416
C15 C 0.7227(4) 0.6014(4) 0.4405(4)
H26 H 0.6981 0.6179 0.3655
H27 H 0.6725 0.5185 0.4286
C16 C 0.6840(4) 0.6910(4) 0.5189(3)
H28 H 0.7031 0.6697 0.5922
C17 C 0.4741(5) 0.7289(5) 0.5267(4)
H29 H 0.5021 0.8175 0.5438
H30 H 0.4980 0.7078 0.5996
C18 C 0.3238(5) 0.6831(5) 0.4567(4)
H31 H 0.2981 0.5940 0.4336
H32 H 0.2747 0.7119 0.5031
C19 C 0.1492(4) 0.6762(5) 0.2821(4)
H33 H 0.0917 0.7107 0.3168
H34 H 0.1251 0.5879 0.2687
C20 C 0.1256(4) 0.7054(5) 0.1699(4)
H35 H 0.0282 0.6836 0.1216
H36 H 0.1619 0.7925 0.1836
C21 C 0.3409(4) 0.3481(4) 0.1421(4)
C22 C 0.2380(4) 0.2377(3) 0.0743(3)
C23 C 0.2101(4) 0.1916(3) -0.0390(3)
C24 C 0.2859(4) 0.2494(4) -0.0942(4)
K1A K -0.47012(8) -0.71114(8) -0.24762(7)
K1A_2 K 0.52988(8) 0.28886(8) -0.24762(7)
K1_2 K -0.52988(8) -0.28886(8) 0.24762(7)
N1A N -0.4206(4) -0.4373(4) -0.1957(3)
N2A N -0.3468(4) -0.2915(4) 0.1401(4)
N2A_2 N 0.6532(4) 0.7085(4) 0.1401(4)
N2_2 N -0.6532(4) -0.7085(4) -0.1401(4)
O1A O -0.1936(3) -0.6365(3) -0.1143(2)
O2A O -0.3494(3) -0.8189(3) -0.0673(2)
O3A O -0.5611(3) -0.9661(3) -0.2808(3)
O4A O -0.7179(3) -0.8558(2) -0.4391(2)
O5A O -0.5397(3) -0.6736(3) -0.4614(2)
O6A O -0.2881(3) -0.7255(3) -0.3575(3)
S1A S -0.15040(10) -0.16796(9) -0.14409(8)
S2A S -0.08369(10) -0.05935(9) 0.12674(8)
C1A C -0.1667(4) -0.6399(4) 0.0023(4)
H1A H -0.0678 -0.6078 0.0484
C2A C -0.2387(5) -0.5532(4) 0.0471(4)
H2A H -0.2029 -0.4714 0.0445
H3A H -0.3359 -0.5791 -0.0023
C3A C -0.2189(5) -0.5501(4) 0.1705(4)
H4A H -0.2709 -0.4976 0.1957
H5A H -0.1227 -0.5157 0.2213
C4A C -0.2653(5) -0.6774(5) 0.1796(4)
H6A H -0.3632 -0.7092 0.1342
H7A H -0.2477 -0.6736 0.2600
C5A C -0.1903(5) -0.7615(5) 0.1360(4)
H8A H -0.0933 -0.7332 0.1858
H9A H -0.2235 -0.8434 0.1400
C6A C -0.2094(4) -0.7671(4) 0.0122(4)
H10A H -0.1524 -0.8171 -0.0101
C7A C -0.3810(6) -0.9487(4) -0.1044(5)
H11A H -0.3560 -0.9800 -0.0370
H12A H -0.3276 -0.9738 -0.1480
C8A C -0.5213(6) -0.9994(5) -0.1743(5)
H13A H -0.5411 -1.0882 -0.1916
H14A H -0.5747 -0.9711 -0.1319
C9A C -0.7021(5) -1.0099(4) -0.3427(4)
H15A H -0.7286 -1.0979 -0.3548
H16A H -0.7490 -0.9714 -0.2987
C10A C -0.7424(5) -0.9826(4) -0.4565(4)
H17A H -0.8389 -1.0213 -0.5032
H18A H -0.6899 -1.0154 -0.4978
C11A C -0.7637(4) -0.8215(4) -0.5447(3)
H19A H -0.7428 -0.8752 -0.6027
C12A C -0.9163(4) -0.8319(4) -0.5921(4)
H20A H -0.9648 -0.9142 -0.6005
H21A H -0.9451 -0.8187 -0.6686
C13A C -0.9547(5) -0.7403(5) -0.5144(4)
H22A H -0.9357 -0.7590 -0.4407
H23A H -1.0523 -0.7467 -0.5503
C14A C -0.8757(4) -0.6120(5) -0.4936(4)
H24A H -0.8996 -0.5911 -0.5666
H25A H -0.8997 -0.5548 -0.4416
C15A C -0.7227(4) -0.6014(4) -0.4405(4)
H26A H -0.6981 -0.6179 -0.3655
H27A H -0.6725 -0.5185 -0.4286
C16A C -0.6840(4) -0.6910(4) -0.5189(3)
H28A H -0.7031 -0.6697 -0.5922
C17A C -0.4741(5) -0.7289(5) -0.5267(4)
H29A H -0.5021 -0.8175 -0.5438
H30A H -0.4980 -0.7078 -0.5996
C18A C -0.3238(5) -0.6831(5) -0.4567(4)
H31A H -0.2981 -0.5940 -0.4336
H32A H -0.2747 -0.7119 -0.5031
C19A C -0.1492(4) -0.6762(5) -0.2821(4)
H33A H -0.0917 -0.7107 -0.3168
H34A H -0.1251 -0.5879 -0.2687
C20A C -0.1256(4) -0.7054(5) -0.1699(4)
H35A H -0.0282 -0.6836 -0.1216
H36A H -0.1619 -0.7925 -0.1836
C21A C -0.3409(4) -0.3481(4) -0.1421(4)
C22A C -0.2380(4) -0.2377(3) -0.0743(3)
C23A C -0.2101(4) -0.1916(3) 0.0390(3)
C24A C -0.2859(4) -0.2494(4) 0.0942(4)
loop_
_geom_bond_atom_site_label_1
_geom_bond_atom_site_label_2
_geom_bond_site_symmetry_1
_geom_bond_site_symmetry_2
Pt1 S1 1_555 1_555
K1 N1 1_555 1_555
N1 C21 1_555 1_555
N2 C24 1_555 1_555
O1 K1 1_555 1_555
O2 K1 1_555 1_555
O3 K1 1_555 1_555
O4 K1 1_555 1_555
O5 K1 1_555 1_555
O6 K1 1_555 1_555
S1 C22 1_555 1_555
S2 Pt1 1_555 1_555
C1 O1 1_555 1_555
H1 C1 1_555 1_555
C2 C1 1_555 1_555
H2 C2 1_555 1_555
H3 C2 1_555 1_555
C3 C2 1_555 1_555
H4 C3 1_555 1_555
H5 C3 1_555 1_555
C4 C3 1_555 1_555
H6 C4 1_555 1_555
H7 C4 1_555 1_555
C5 C4 1_555 1_555
H8 C5 1_555 1_555
H9 C5 1_555 1_555
C6 O2 1_555 1_555
H10 C6 1_555 1_555
C7 O2 1_555 1_555
H11 C7 1_555 1_555
H12 C7 1_555 1_555
C8 O3 1_555 1_555
H13 C8 1_555 1_555
H14 C8 1_555 1_555
C9 O3 1_555 1_555
H15 C9 1_555 1_555
H16 C9 1_555 1_555
C10 O4 1_555 1_555
H17 C10 1_555 1_555
H18 C10 1_555 1_555
C11 O4 1_555 1_555
H19 C11 1_555 1_555
C12 C11 1_555 1_555
H20 C12 1_555 1_555
H21 C12 1_555 1_555
C13 C12 1_555 1_555
H22 C13 1_555 1_555
H23 C13 1_555 1_555
C14 C13 1_555 1_555
H24 C14 1_555 1_555
H25 C14 1_555 1_555
C15 C14 1_555 1_555
H26 C15 1_555 1_555
H27 C15 1_555 1_555
C16 O5 1_555 1_555
H28 C16 1_555 1_555
C17 O5 1_555 1_555
H29 C17 1_555 1_555
H30 C17 1_555 1_555
C18 O6 1_555 1_555
H31 C18 1_555 1_555
H32 C18 1_555 1_555
C19 O6 1_555 1_555
H33 C19 1_555 1_555
H34 C19 1_555 1_555
C20 O1 1_555 1_555
H35 C20 1_555 1_555
H36 C20 1_555 1_555
C21 C22 1_555 1_555
C22 C23 1_555 1_555
C23 S2 1_555 1_555
C24 C23 1_555 1_555
K1A N1A 1_555 1_555
K1A_2 N2 1_555 1_555
K1_2 N2A 1_555 1_555
N1A C21A 1_555 1_555
N2A C24A 1_555 1_555
N2A_2 K1 1_555 1_555
N2_2 K1A 1_555 1_555
O1A K1A 1_555 1_555
O2A K1A 1_555 1_555
O3A K1A 1_555 1_555
O4A K1A 1_555 1_555
O5A K1A 1_555 1_555
O6A K1A 1_555 1_555
S1A Pt1 1_555 1_555
S2A Pt1 1_555 1_555
C1A O1A 1_555 1_555
H1A C1A 1_555 1_555
C2A C1A 1_555 1_555
H2A C2A 1_555 1_555
H3A C2A 1_555 1_555
C3A C2A 1_555 1_555
H4A C3A 1_555 1_555
H5A C3A 1_555 1_555
C4A C3A 1_555 1_555
H6A C4A 1_555 1_555
H7A C4A 1_555 1_555
C5A C4A 1_555 1_555
H8A C5A 1_555 1_555
H9A C5A 1_555 1_555
C6A O2A 1_555 1_555
H10A C6A 1_555 1_555
C7A O2A 1_555 1_555
H11A C7A 1_555 1_555
H12A C7A 1_555 1_555
C8A O3A 1_555 1_555
H13A C8A 1_555 1_555
H14A C8A 1_555 1_555
C9A O3A 1_555 1_555
H15A C9A 1_555 1_555
H16A C9A 1_555 1_555
C10A O4A 1_555 1_555
H17A C10A 1_555 1_555
H18A C10A 1_555 1_555
C11A O4A 1_555 1_555
H19A C11A 1_555 1_555
C12A C11A 1_555 1_555
H20A C12A 1_555 1_555
H21A C12A 1_555 1_555
C13A C12A 1_555 1_555
H22A C13A 1_555 1_555
H23A C13A 1_555 1_555
C14A C13A 1_555 1_555
H24A C14A 1_555 1_555
H25A C14A 1_555 1_555
C15A C14A 1_555 1_555
H26A C15A 1_555 1_555
H27A C15A 1_555 1_555
C16A O5A 1_555 1_555
H28A C16A 1_555 1_555
C17A O5A 1_555 1_555
H29A C17A 1_555 1_555
H30A C17A 1_555 1_555
C18A O6A 1_555 1_555
H31A C18A 1_555 1_555
H32A C18A 1_555 1_555
C19A O6A 1_555 1_555
H33A C19A 1_555 1_555
H34A C19A 1_555 1_555
C20A O1A 1_555 1_555
H35A C20A 1_555 1_555
H36A C20A 1_555 1_555
C21A C22A 1_555 1_555
C22A S1A 1_555 1_555
C23A S2A 1_555 1_555
C24A C23A 1_555 1_555
C1 C6 1_555 1_555
C5 C6 1_555 1_555
C7 C8 1_555 1_555
C9 C10 1_555 1_555
C11 C16 1_555 1_555
C15 C16 1_555 1_555
C17 C18 1_555 1_555
C19 C20 1_555 1_555
C1A C6A 1_555 1_555
C5A C6A 1_555 1_555
C7A C8A 1_555 1_555
C9A C10A 1_555 1_555
C11A C16A 1_555 1_555
C15A C16A 1_555 1_555
C17A C18A 1_555 1_555
C19A C20A 1_555 1_555
C22A C23A 1_555 1_555

#END
