
#######################################################################
#
#                 Cambridge Crystallographic Data Centre
#                                CCDC 
#
#######################################################################
#
# If this CIF has been generated from an entry in the Cambridge 
# Structural Database, then it will include bibliographic, chemical, 
# crystal, experimental, refinement or atomic coordinate data resulting 
# from the CCDC's data processing and validation procedures.
#
#######################################################################

data_VAZXUR
_symmetry_cell_setting           triclinic
_symmetry_space_group_name_H-M   'P -1'
_symmetry_Int_Tables_number      2
_space_group_name_Hall           '-P 1'
loop_
_symmetry_equiv_pos_site_id
_symmetry_equiv_pos_as_xyz
1 x,y,z
2 -x,-y,-z
_cell_length_a                   8.0022(15)
_cell_length_b                   8.0076(16)
_cell_length_c                   8.7146(19)
_cell_angle_alpha                102.122(6)
_cell_angle_beta                 105.511(6)
_cell_angle_gamma                96.888(7)
_cell_volume                     516.811
loop_
_atom_site_label
_atom_site_type_symbol
_atom_site_fract_x
_atom_site_fract_y
_atom_site_fract_z
Cu1 Cu 0.02311(6) 0.20057(7) 0.13724(6)
O1 O 0.0096(4) 0.3426(4) -0.1405(4)
O2 O -0.0621(4) 0.0853(4) -0.1104(3)
O3 O -0.0396(5) 0.1187(5) -0.3445(4)
N1 N 0.2755(4) 0.3022(4) 0.1787(4)
N2 N 0.3712(4) 0.2215(5) 0.0970(4)
N3 N 0.5252(4) 0.3310(5) 0.1290(4)
N4 N -0.0303(4) 0.1842(5) -0.2009(4)
C1 C 0.3687(5) 0.4665(5) 0.2665(5)
C2 C 0.3288(5) 0.6001(6) 0.3734(5)
H1 H 0.2217 0.5892 0.3965
C3 C 0.4549(6) 0.7490(6) 0.4432(6)
H2 H 0.4327 0.8410 0.5151
C4 C 0.6164(6) 0.7650(6) 0.4083(6)
H3 H 0.6981 0.8679 0.4585
C5 C 0.6588(5) 0.6364(6) 0.3040(6)
H4 H 0.7660 0.6489 0.2811
C6 C 0.5309(5) 0.4844(6) 0.2337(5)
C7 C 0.6665(5) 0.2717(6) 0.0662(5)
H5 H 0.7344 0.3690 0.0458
H6 H 0.6147 0.1846 -0.0376
C8 C 0.7876(5) 0.1957(6) 0.1860(5)
H7 H 0.7708 0.0755 0.1684
C9 C 0.9201(5) 0.2942(6) 0.3183(5)
H8 H 0.9395 0.4147 0.3384
H9 H 0.9915 0.2412 0.3889
Cu1A Cu -0.02311(6) -0.20057(7) -0.13724(6)
Cu1_2 Cu 1.02311(6) 0.20057(7) 0.13724(6)
O2A O 0.0621(4) -0.0853(4) 0.1104(3)
C8_2 C -0.2124(5) 0.1957(6) 0.1860(5)
H7_2 H -0.2292 0.0755 0.1684
C9_2 C -0.0799(5) 0.2942(6) 0.3183(5)
H8_2 H -0.0605 0.4147 0.3384
H9_2 H -0.0085 0.2412 0.3889
loop_
_geom_bond_atom_site_label_1
_geom_bond_atom_site_label_2
_geom_bond_site_symmetry_1
_geom_bond_site_symmetry_2
Cu1 O2 1_555 1_555
O1 N4 1_555 1_555
O2 N4 1_555 1_555
O3 N4 1_555 1_555
N1 Cu1 1_555 1_555
N2 N1 1_555 1_555
N3 N2 1_555 1_555
C1 N1 1_555 1_555
C2 C1 1_555 1_555
H1 C2 1_555 1_555
C3 C2 1_555 1_555
H2 C3 1_555 1_555
C4 C3 1_555 1_555
H3 C4 1_555 1_555
C5 C4 1_555 1_555
H4 C5 1_555 1_555
C6 N3 1_555 1_555
C7 N3 1_555 1_555
H5 C7 1_555 1_555
H6 C7 1_555 1_555
C8 C7 1_555 1_555
H7 C8 1_555 1_555
C9 C8 1_555 1_555
H8 C9 1_555 1_555
H9 C9 1_555 1_555
Cu1A O2 1_555 1_555
Cu1_2 C8 1_555 1_555
O2A Cu1 1_555 1_555
C8_2 Cu1 1_555 1_555
H7_2 C8_2 1_555 1_555
C9_2 Cu1 1_555 1_555
H8_2 C9_2 1_555 1_555
H9_2 C9_2 1_555 1_555
C1 C6 1_555 1_555
C5 C6 1_555 1_555
C9 Cu1_2 1_555 1_555
Cu1A O2A 1_555 1_555
C8_2 C9_2 1_555 1_555

#END
