
#######################################################################
#
#                 Cambridge Crystallographic Data Centre
#                                CCDC 
#
#######################################################################
#
# If this CIF has been generated from an entry in the Cambridge 
# Structural Database, then it will include bibliographic, chemical, 
# crystal, experimental, refinement or atomic coordinate data resulting 
# from the CCDC's data processing and validation procedures.
#
#######################################################################

data_VAZZAZ
_symmetry_cell_setting           monoclinic
_symmetry_space_group_name_H-M   'P 21/c'
_symmetry_Int_Tables_number      14
_space_group_name_Hall           '-P 2ybc'
loop_
_symmetry_equiv_pos_site_id
_symmetry_equiv_pos_as_xyz
1 x,y,z
2 -x,1/2+y,1/2-z
3 -x,-y,-z
4 x,1/2-y,1/2+z
_cell_length_a                   13.5300(3)
_cell_length_b                   8.2930(7)
_cell_length_c                   22.0030(11)
_cell_angle_alpha                90
_cell_angle_beta                 105.205(2)
_cell_angle_gamma                90
_cell_volume                     2382.41
loop_
_atom_site_label
_atom_site_type_symbol
_atom_site_fract_x
_atom_site_fract_y
_atom_site_fract_z
K1 K 1.04837(12) 0.22533(18) 0.96445(8)
P1 P 0.80322(12) 0.2808(2) 1.06345(8)
P2 P 0.73419(12) 0.1694(2) 0.92841(8)
S1 S 0.92016(13) 0.4065(2) 1.04935(9)
S2 S 0.84537(13) 0.0117(2) 0.92718(8)
C1 C 0.7353(5) 0.3925(7) 1.1117(3)
C2 C 0.6540(5) 0.4928(9) 1.0831(3)
H1 H 0.6339 0.5022 1.0395
C3 C 0.6032(6) 0.5784(9) 1.1193(4)
H2 H 0.5485 0.6443 1.0997
C4 C 0.6317(6) 0.5682(8) 1.1841(3)
H3 H 0.5968 0.6262 1.2082
C5 C 0.7124(5) 0.4708(8) 1.2124(3)
H4 H 0.7330 0.4634 1.2561
C6 C 0.7638(5) 0.3833(8) 1.1765(3)
H5 H 0.8184 0.3175 1.1965
C7 C 0.8557(5) 0.1064(7) 1.1131(3)
C8 C 0.7956(5) -0.0294(8) 1.1126(3)
H6 H 0.7216 -0.0240 1.0933
C9 C 0.8369(6) -0.1620(8) 1.1498(3)
H7 H 0.7901 -0.2447 1.1578
C10 C 0.9356(6) -0.1602(9) 1.1869(3)
H8 H 0.9584 -0.2443 1.2188
C11 C 0.9957(6) -0.0272(9) 1.1874(3)
H9 H 1.0629 -0.0264 1.2123
C12 C 0.9566(5) 0.1077(8) 1.1507(3)
H10 H 0.9976 0.1979 1.1512
C13 C 0.6133(4) 0.0845(7) 0.8830(3)
C14 C 0.5672(5) 0.1273(8) 0.8217(3)
H11 H 0.5965 0.2083 0.8029
C15 C 0.4782(5) 0.0529(10) 0.7870(4)
H12 H 0.4499 0.0818 0.7452
C16 C 0.4320(6) -0.0637(10) 0.8146(4)
H13 H 0.3718 -0.1127 0.7919
C17 C 0.4755(6) -0.1070(10) 0.8760(4)
H14 H 0.4440 -0.1849 0.8949
C18 C 0.5664(6) -0.0357(9) 0.9105(4)
H15 H 0.5959 -0.0680 0.9518
C19 C 0.7536(4) 0.3481(8) 0.8837(3)
C20 C 0.8146(5) 0.3417(8) 0.8416(3)
H16 H 0.8447 0.2446 0.8351
C21 C 0.8307(5) 0.4776(9) 0.8096(3)
H17 H 0.8723 0.4721 0.7821
C22 C 0.7861(5) 0.6200(9) 0.8181(3)
H18 H 0.7971 0.7114 0.7963
C23 C 0.7245(6) 0.6291(8) 0.8590(3)
H19 H 0.6931 0.7260 0.8642
C24 C 0.7095(5) 0.4940(8) 0.8922(3)
H20 H 0.6694 0.5012 0.9206
C25 C 0.7108(5) 0.2229(8) 0.9981(3)
H21 H 0.6433 0.2205 1.0008
K1B K 0.95163(12) 0.77467(18) 1.03555(8)
K1B_2 K 0.95163(12) -0.22533(18) 1.03555(8)
S1B S 1.07984(13) 0.5935(2) 0.95065(9)
S2B S 1.15463(13) -0.0117(2) 1.07282(8)
C7B C 1.1443(5) -0.1064(7) 0.8869(3)
C8B C 1.2044(5) 0.0294(8) 0.8874(3)
H6B H 1.2784 0.0240 0.9067
C9B C 1.1631(6) 0.1620(8) 0.8502(3)
H7B H 1.2099 0.2447 0.8422
C10B C 1.0644(6) 0.1602(9) 0.8131(3)
H8B H 1.0416 0.2443 0.7812
C11B C 1.0043(6) 0.0272(9) 0.8126(3)
H9B H 0.9371 0.0264 0.7877
C12B C 1.0434(5) -0.1077(8) 0.8493(3)
H10B H 1.0024 -0.1979 0.8488
loop_
_geom_bond_atom_site_label_1
_geom_bond_atom_site_label_2
_geom_bond_site_symmetry_1
_geom_bond_site_symmetry_2
K1 S1 1_555 1_555
P1 S1 1_555 1_555
P2 S2 1_555 1_555
S1 K1B 1_555 1_555
S2 K1 1_555 1_555
C1 P1 1_555 1_555
C2 C1 1_555 1_555
H1 C2 1_555 1_555
C3 C2 1_555 1_555
H2 C3 1_555 1_555
C4 C3 1_555 1_555
H3 C4 1_555 1_555
C5 C4 1_555 1_555
H4 C5 1_555 1_555
C6 C1 1_555 1_555
H5 C6 1_555 1_555
C7 P1 1_555 1_555
C8 C7 1_555 1_555
H6 C8 1_555 1_555
C9 C8 1_555 1_555
H7 C9 1_555 1_555
C10 C9 1_555 1_555
H8 C10 1_555 1_555
C11 C10 1_555 1_555
H9 C11 1_555 1_555
C12 C7 1_555 1_555
H10 C12 1_555 1_555
C13 P2 1_555 1_555
C14 C13 1_555 1_555
H11 C14 1_555 1_555
C15 C14 1_555 1_555
H12 C15 1_555 1_555
C16 C15 1_555 1_555
H13 C16 1_555 1_555
C17 C16 1_555 1_555
H14 C17 1_555 1_555
C18 C13 1_555 1_555
H15 C18 1_555 1_555
C19 P2 1_555 1_555
C20 C19 1_555 1_555
H16 C20 1_555 1_555
C21 C20 1_555 1_555
H17 C21 1_555 1_555
C22 C21 1_555 1_555
H18 C22 1_555 1_555
C23 C22 1_555 1_555
H19 C23 1_555 1_555
C24 C19 1_555 1_555
H20 C24 1_555 1_555
C25 P1 1_555 1_555
H21 C25 1_555 1_555
K1B S1B 1_555 1_555
K1B_2 S2 1_555 1_555
S1B K1 1_555 1_555
S2B K1 1_555 1_555
C7B K1 1_555 1_555
C8B K1 1_555 1_555
H6B C8B 1_555 1_555
C9B K1 1_555 1_555
H7B C9B 1_555 1_555
C10B K1 1_555 1_555
H8B C10B 1_555 1_555
C11B K1 1_555 1_555
H9B C11B 1_555 1_555
C12B K1 1_555 1_555
H10B C12B 1_555 1_555
P2 C25 1_555 1_555
C5 C6 1_555 1_555
C7 K1B_2 1_555 1_555
C8 K1B_2 1_555 1_555
C9 K1B_2 1_555 1_555
C10 K1B_2 1_555 1_555
C11 C12 1_555 1_555
C11 K1B_2 1_555 1_555
C12 K1B_2 1_555 1_555
C17 C18 1_555 1_555
C23 C24 1_555 1_555
K1B_2 S2B 1_555 1_555
C7B C8B 1_555 1_555
C7B C12B 1_555 1_555
C8B C9B 1_555 1_555
C9B C10B 1_555 1_555
C10B C11B 1_555 1_555
C11B C12B 1_555 1_555

#END
