
#######################################################################
#
#                 Cambridge Crystallographic Data Centre
#                                CCDC 
#
#######################################################################
#
# If this CIF has been generated from an entry in the Cambridge 
# Structural Database, then it will include bibliographic, chemical, 
# crystal, experimental, refinement or atomic coordinate data resulting 
# from the CCDC's data processing and validation procedures.
#
#######################################################################

data_VAZZIG
_symmetry_cell_setting           trigonal
_symmetry_space_group_name_H-M   'P 3'
_symmetry_Int_Tables_number      143
_space_group_name_Hall           'P 3'
loop_
_symmetry_equiv_pos_site_id
_symmetry_equiv_pos_as_xyz
1 x,y,z
2 -y,x-y,z
3 -x+y,-x,z
_cell_length_a                   13.1879(2)
_cell_length_b                   13.1879(2)
_cell_length_c                   5.92910(10)
_cell_angle_alpha                90
_cell_angle_beta                 90
_cell_angle_gamma                120
_cell_volume                     893.04
loop_
_atom_site_label
_atom_site_type_symbol
_atom_site_fract_x
_atom_site_fract_y
_atom_site_fract_z
Gd1 Gd 0.6667 0.3333 0.2049
Co1 Co 0.0000 0.0000 -0.0018(3)
O1 O 0.8045(7) 0.4725(7) 0.4691(13)
O2 O 0.5172(6) 0.2857(6) -0.0854(11)
O3 O 0.4845(6) 0.1405(6) 0.1419(11)
O4 O 0.1134(5) 0.1187(5) 0.1832(10)
O5 O 0.3049(6) 0.2182(7) 0.2519(13)
N1 N 0.1327(6) 0.0144(7) -0.1643(12)
C1 C 0.2347(8) 0.0857(7) -0.0627(14)
C2 C 0.3358(8) 0.0986(8) -0.1380(14)
C3 C 0.3392(8) 0.0415(9) -0.3332(15)
H1 H 0.4097 0.0527 -0.3903
C4 C 0.2365(9) -0.0307(9) -0.4371(18)
H2 H 0.2353 -0.0713 -0.5662
C5 C 0.1324(9) -0.0438(8) -0.3493(16)
H3 H 0.0618 -0.0938 -0.4203
C6 C 0.2205(8) 0.1481(8) 0.1441(16)
C7 C 0.4537(9) 0.1812(9) -0.0149(17)
Co1_2 Co 1.0000 0.0000 -0.0018(3)
Co1_3 Co 1.0000 1.0000 -0.0018(3)
O1A O 0.5275(7) 0.3320(10) 0.4691(13)
O1B O 0.6680(10) 0.1955(7) 0.4691(13)
O2A O 0.7143(6) 0.2315(8) -0.0854(11)
O2B O 0.7685(8) 0.4828(6) -0.0854(11)
O3A O 0.8595(6) 0.3440(8) 0.1419(11)
O3B O 0.6560(8) 0.5155(6) 0.1419(11)
O4A O 0.8813(5) -0.0053(7) 0.1832(10)
O4B O 1.0053(7) 0.8866(5) 0.1832(10)
O4A_2 O -0.1187(5) -0.0053(7) 0.1832(10)
O4B_2 O 0.0053(7) -0.1134(5) 0.1832(10)
O5A O 0.7818(7) 0.0867(9) 0.2519(13)
O5B O 0.9133(9) 0.6951(6) 0.2519(13)
N1A N 0.9856(7) 0.1183(9) -0.1643(12)
N1B N 0.8817(9) 0.8673(6) -0.1643(12)
N1A_2 N -0.0144(7) 0.1183(9) -0.1643(12)
N1B_2 N -0.1183(9) -0.1327(6) -0.1643(12)
C1A C 0.9143(7) 0.1490(11) -0.0627(14)
C1B C 0.8510(11) 0.7653(8) -0.0627(14)
C2A C 0.9014(8) 0.2372(11) -0.1380(14)
C2B C 0.7628(11) 0.6642(8) -0.1380(14)
C3A C 0.9585(9) 0.2977(12) -0.3332(15)
C3B C 0.7023(12) 0.6608(8) -0.3332(15)
H1A H 0.9473 0.3570 -0.3903
H1B H 0.6430 0.5903 -0.3903
C4A C 1.0307(9) 0.2672(13) -0.4371(18)
C4B C 0.7328(13) 0.7635(9) -0.4371(18)
H2A H 1.0713 0.3066 -0.5662
H2B H 0.6934 0.7647 -0.5662
C5A C 1.0438(8) 0.1762(12) -0.3493(16)
C5B C 0.8238(12) 0.8676(9) -0.3493(16)
H3A H 1.0938 0.1556 -0.4203
H3B H 0.8444 0.9382 -0.4203
C6A C 0.8519(8) 0.0724(11) 0.1441(16)
C6B C 0.9276(11) 0.7795(8) 0.1441(16)
C7A C 0.8188(9) 0.2725(13) -0.0149(17)
C7B C 0.7275(13) 0.5463(9) -0.0149(17)
loop_
_geom_bond_atom_site_label_1
_geom_bond_atom_site_label_2
_geom_bond_site_symmetry_1
_geom_bond_site_symmetry_2
Gd1 O1 1_555 1_555
Co1 O4 1_555 1_555
O2 Gd1 1_555 1_555
O3 Gd1 1_555 1_555
O4 C6 1_555 1_555
O5 C6 1_555 1_555
N1 Co1 1_555 1_555
C1 N1 1_555 1_555
C2 C1 1_555 1_555
C3 C2 1_555 1_555
H1 C3 1_555 1_555
C4 C3 1_555 1_555
H2 C4 1_555 1_555
C5 N1 1_555 1_555
H3 C5 1_555 1_555
C6 C1 1_555 1_555
C7 O2 1_555 1_555
Co1_2 O4A 1_555 1_555
Co1_3 O4B 1_555 1_555
O1A Gd1 1_555 1_555
O1B Gd1 1_555 1_555
O2A Gd1 1_555 1_555
O2B Gd1 1_555 1_555
O3A Gd1 1_555 1_555
O3B Gd1 1_555 1_555
O4A C6A 1_555 1_555
O4B C6B 1_555 1_555
O4A_2 Co1 1_555 1_555
O4B_2 Co1 1_555 1_555
O5A C6A 1_555 1_555
O5B C6B 1_555 1_555
N1A Co1_2 1_555 1_555
N1B Co1_3 1_555 1_555
N1A_2 Co1 1_555 1_555
N1B_2 Co1 1_555 1_555
C1A N1A 1_555 1_555
C1B N1B 1_555 1_555
C2A C1A 1_555 1_555
C2B C1B 1_555 1_555
C3A C2A 1_555 1_555
C3B C2B 1_555 1_555
H1A C3A 1_555 1_555
H1B C3B 1_555 1_555
C4A C3A 1_555 1_555
C4B C3B 1_555 1_555
H2A C4A 1_555 1_555
H2B C4B 1_555 1_555
C5A N1A 1_555 1_555
C5B N1B 1_555 1_555
H3A C5A 1_555 1_555
H3B C5B 1_555 1_555
C6A C1A 1_555 1_555
C6B C1B 1_555 1_555
C7A O2A 1_555 1_555
C7B O2B 1_555 1_555
O3 C7 1_555 1_555
C2 C7 1_555 1_555
C4 C5 1_555 1_555
O3A C7A 1_555 1_555
O3B C7B 1_555 1_555
C2A C7A 1_555 1_555
C2B C7B 1_555 1_555
C4A C5A 1_555 1_555
C4B C5B 1_555 1_555

#END
