
#######################################################################
#
#                 Cambridge Crystallographic Data Centre
#                                CCDC 
#
#######################################################################
#
# If this CIF has been generated from an entry in the Cambridge 
# Structural Database, then it will include bibliographic, chemical, 
# crystal, experimental, refinement or atomic coordinate data resulting 
# from the CCDC's data processing and validation procedures.
#
#######################################################################

data_VEBDEN
_symmetry_cell_setting           monoclinic
_symmetry_space_group_name_H-M   'P 21/c'
_symmetry_Int_Tables_number      14
_space_group_name_Hall           '-P 2ybc'
loop_
_symmetry_equiv_pos_site_id
_symmetry_equiv_pos_as_xyz
1 x,y,z
2 -x,1/2+y,1/2-z
3 -x,-y,-z
4 x,1/2-y,1/2+z
_cell_length_a                   6.3188(9)
_cell_length_b                   22.669(2)
_cell_length_c                   12.4931(4)
_cell_angle_alpha                90
_cell_angle_beta                 90.947(6)
_cell_angle_gamma                90
_cell_volume                     1789.28
loop_
_atom_site_label
_atom_site_type_symbol
_atom_site_fract_x
_atom_site_fract_y
_atom_site_fract_z
Cu1 Cu 0.19171(6) 0.649795(16) 0.75335(3)
N1 N 0.4728(3) 0.61015(10) 0.65190(17)
N2 N 0.9331(4) 0.59735(11) 0.72653(19)
H1 H 0.8697 0.6085 0.6628
H2 H 0.9782 0.5590 0.7190
N3 N 0.3409(4) 0.62150(12) 0.89532(19)
H3 H 0.4428 0.6489 0.9134
H4 H 0.2419 0.6221 0.9485
N4 N 0.2826(4) 0.72785(10) 0.6955(2)
H5 H 0.1637 0.7480 0.6728
H6 H 0.3431 0.7492 0.7507
N5 N 0.6003(4) 0.73793(12) 0.3880(2)
H7 H 0.7089 0.7350 0.3379
H8 H 0.6665 0.7639 0.4382
C1 C 0.4778(4) 0.55617(12) 0.6971(2)
C2 C 0.3696(5) 0.50860(12) 0.6506(2)
H9 H 0.3720 0.4708 0.6835
C3 C 0.2594(5) 0.51786(13) 0.5563(3)
H10 H 0.1894 0.4858 0.5219
C4 C 0.2498(4) 0.57375(13) 0.5108(2)
H11 H 0.1712 0.5805 0.4465
C5 C 0.3581(4) 0.61978(12) 0.5616(2)
C6 C 0.5976(4) 0.55235(12) 0.8039(2)
C7 C 0.7728(4) 0.59926(12) 0.8113(2)
H12 H 0.7053 0.6387 0.8099
H13 H 0.8464 0.5950 0.8815
C8 C 0.4422(5) 0.56259(14) 0.8965(2)
H14 H 0.3302 0.5321 0.8927
H15 H 0.5197 0.5575 0.9654
C9 C 0.6953(5) 0.49082(13) 0.8208(3)
H16 H 0.7834 0.4909 0.8861
H17 H 0.7827 0.4808 0.7594
H18 H 0.5821 0.4616 0.8278
C10 C 0.3714(4) 0.68226(12) 0.5172(2)
C11 C 0.4338(4) 0.72639(12) 0.6060(2)
H19 H 0.5758 0.7158 0.6347
H20 H 0.4433 0.7663 0.5745
C12 C 0.5517(5) 0.68028(13) 0.4348(2)
H21 H 0.6811 0.6646 0.4705
H22 H 0.5113 0.6527 0.3766
C13 C 0.1627(5) 0.70184(14) 0.4641(3)
H23 H 0.1271 0.6751 0.4049
H24 H 0.1777 0.7421 0.4367
H25 H 0.0498 0.7008 0.5169
Cu1_2 Cu 1.19171(6) 0.649795(16) 0.75335(3)
N2_2 N -0.0669(4) 0.59735(11) 0.72653(19)
H1_2 H -0.1303 0.6085 0.6628
H2_2 H -0.0218 0.5590 0.7190
P1 P 0.86766(13) 0.63670(3) 0.14655(6)
F1 F 0.8767(3) 0.70180(8) 0.19720(16)
F2 F 0.8573(4) 0.57237(8) 0.09467(18)
F3 F 1.1096(7) 0.6401(2) 0.1175(5)
F4 F 0.9253(9) 0.6088(3) 0.2621(4)
F5 F 0.6211(4) 0.63409(14) 0.1768(5)
F6 F 0.8012(10) 0.66464(18) 0.0333(3)
F7? F 1.125(5) 0.6397(14) 0.161(3)
F8? F 0.862(6) 0.606(2) 0.240(3)
F9? F 0.642(4) 0.6360(9) 0.118(3)
F10? F 0.914(6) 0.6706(12) 0.034(2)
loop_
_geom_bond_atom_site_label_1
_geom_bond_atom_site_label_2
_geom_bond_site_symmetry_1
_geom_bond_site_symmetry_2
Cu1 N1 1_555 1_555
N1 C1 1_555 1_555
N2 H1 1_555 1_555
H2 N2 1_555 1_555
N3 Cu1 1_555 1_555
H3 N3 1_555 1_555
H4 N3 1_555 1_555
N4 Cu1 1_555 1_555
H5 N4 1_555 1_555
H6 N4 1_555 1_555
N5 H7 1_555 1_555
H8 N5 1_555 1_555
C1 C2 1_555 1_555
C2 H9 1_555 1_555
C3 C2 1_555 1_555
H10 C3 1_555 1_555
C4 C3 1_555 1_555
H11 C4 1_555 1_555
C5 N1 1_555 1_555
C6 C1 1_555 1_555
C7 N2 1_555 1_555
H12 C7 1_555 1_555
H13 C7 1_555 1_555
C8 N3 1_555 1_555
H14 C8 1_555 1_555
H15 C8 1_555 1_555
C9 C6 1_555 1_555
H16 C9 1_555 1_555
H17 C9 1_555 1_555
H18 C9 1_555 1_555
C10 C5 1_555 1_555
C11 N4 1_555 1_555
H19 C11 1_555 1_555
H20 C11 1_555 1_555
C12 N5 1_555 1_555
H21 C12 1_555 1_555
H22 C12 1_555 1_555
C13 C10 1_555 1_555
H23 C13 1_555 1_555
H24 C13 1_555 1_555
H25 C13 1_555 1_555
P1 F1 1_555 1_555
F2 P1 1_555 1_555
F3 P1 1_555 1_555
F4 P1 1_555 1_555
F5 P1 1_555 1_555
F6 P1 1_555 1_555
Cu1_2 N2 1_555 1_555
N2_2 Cu1 1_555 1_555
H1_2 N2_2 1_555 1_555
H2_2 N2_2 1_555 1_555
C4 C5 1_555 1_555
C6 C7 1_555 1_555
C6 C8 1_555 1_555
C10 C11 1_555 1_555
C10 C12 1_555 1_555

#END
