
#######################################################################
#
#                 Cambridge Crystallographic Data Centre
#                                CCDC 
#
#######################################################################
#
# If this CIF has been generated from an entry in the Cambridge 
# Structural Database, then it will include bibliographic, chemical, 
# crystal, experimental, refinement or atomic coordinate data resulting 
# from the CCDC's data processing and validation procedures.
#
#######################################################################

data_VEBKIX
_symmetry_cell_setting           orthorhombic
_symmetry_space_group_name_H-M   'P 21 21 21'
_symmetry_Int_Tables_number      19
_space_group_name_Hall           'P 2ac 2ab'
loop_
_symmetry_equiv_pos_site_id
_symmetry_equiv_pos_as_xyz
1 x,y,z
2 1/2-x,-y,1/2+z
3 1/2+x,1/2-y,-z
4 -x,1/2+y,1/2-z
_cell_length_a                   10.7753(6)
_cell_length_b                   11.9414(6)
_cell_length_c                   12.6635(7)
_cell_angle_alpha                90
_cell_angle_beta                 90
_cell_angle_gamma                90
_cell_volume                     1629.44
loop_
_atom_site_label
_atom_site_type_symbol
_atom_site_fract_x
_atom_site_fract_y
_atom_site_fract_z
Ag1 Ag 0.0639(1) 0.5306(1) 0.4187(1)
S1 S 0.2619(1) 0.6022(1) 0.3555(1)
S2 S 0.6308(1) 0.5672(1) -0.0485(1)
O1 O 0.3619(2) 0.6558(2) 0.0547(2)
C1 C 0.5689(3) 0.5332(4) 0.3203(3)
C2 C 0.6549(3) 0.5336(4) 0.2395(3)
C3 C 0.6382(3) 0.4688(4) 0.1498(3)
C4 C 0.5404(3) 0.3935(3) 0.1471(3)
C5 C 0.4534(3) 0.3925(3) 0.2284(3)
C6 C 0.4646(3) 0.4658(3) 0.3129(3)
C7 C 0.3575(3) 0.4785(3) 0.3879(3)
C8 C 0.2539(3) 0.5996(3) 0.2120(3)
C9 C 0.3507(3) 0.6764(3) 0.1661(3)
C10 C 0.4496(4) 0.7277(3) 0.0052(3)
C11 C 0.5850(3) 0.6951(3) 0.0209(3)
C12 C 0.7141(3) 0.4861(4) 0.0526(3)
H1 H 0.5814 0.5793 0.3814
H2 H 0.7276 0.5797 0.2455
H3 H 0.5325 0.3422 0.0891
H4 H 0.3853 0.3408 0.2260
H5 H 0.3887 0.4857 0.4586
H6 H 0.3067 0.4125 0.3850
H7 H 0.2673 0.5246 0.1871
H8 H 0.1729 0.6231 0.1893
H9 H 0.3274 0.7530 0.1780
H10 H 0.4291 0.6634 0.2001
H11 H 0.4379 0.8022 0.0319
H12 H 0.4325 0.7294 -0.0692
H13 H 0.6001 0.6851 0.0951
H14 H 0.6366 0.7556 -0.0029
H15 H 0.7366 0.4146 0.0238
H16 H 0.7892 0.5247 0.0711
Ag1A Ag 0.4361(1) 0.4694(1) -0.0813(1)
S2A S -0.1308(1) 0.4328(1) 0.4515(1)
P1 P 0.0550(1) 0.3177(1) 0.1606(1)
F1 F 0.0169(3) 0.4449(3) 0.1518(4)
F2 F -0.0608(4) 0.2937(4) 0.2310(3)
F3 F -0.0252(3) 0.2914(3) 0.0595(2)
F4 F 0.1721(3) 0.3467(4) 0.0919(2)
F5 F 0.1360(3) 0.3451(3) 0.2616(2)
F6 F 0.0928(5) 0.1925(3) 0.1672(4)
loop_
_geom_bond_atom_site_label_1
_geom_bond_atom_site_label_2
_geom_bond_site_symmetry_1
_geom_bond_site_symmetry_2
Ag1 S1 1_555 1_555
S1 C7 1_555 1_555
S2 C11 1_555 1_555
O1 C9 1_555 1_555
C1 C2 1_555 1_555
C2 C3 1_555 1_555
C3 C4 1_555 1_555
C4 C5 1_555 1_555
C5 C6 1_555 1_555
C6 C1 1_555 1_555
C7 C6 1_555 1_555
C8 S1 1_555 1_555
C9 C8 1_555 1_555
C10 O1 1_555 1_555
C11 C10 1_555 1_555
C12 S2 1_555 1_555
P1 F1 1_555 1_555
F2 P1 1_555 1_555
F3 P1 1_555 1_555
F4 P1 1_555 1_555
F5 P1 1_555 1_555
F6 P1 1_555 1_555
H1 C1 1_555 1_555
H2 C2 1_555 1_555
H3 C4 1_555 1_555
H4 C5 1_555 1_555
H5 C7 1_555 1_555
H6 C7 1_555 1_555
H7 C8 1_555 1_555
H8 C8 1_555 1_555
H9 C9 1_555 1_555
H10 C9 1_555 1_555
H11 C10 1_555 1_555
H12 C10 1_555 1_555
H13 C11 1_555 1_555
H14 C11 1_555 1_555
H15 C12 1_555 1_555
H16 C12 1_555 1_555
Ag1A S2 1_555 1_555
S2A Ag1 1_555 1_555
C3 C12 1_555 1_555

#END
