
#######################################################################
#
#                 Cambridge Crystallographic Data Centre
#                                CCDC 
#
#######################################################################
#
# If this CIF has been generated from an entry in the Cambridge 
# Structural Database, then it will include bibliographic, chemical, 
# crystal, experimental, refinement or atomic coordinate data resulting 
# from the CCDC's data processing and validation procedures.
#
#######################################################################

data_VEBKUJ
_symmetry_cell_setting           monoclinic
_symmetry_space_group_name_H-M   'P 21/c'
_symmetry_Int_Tables_number      14
_space_group_name_Hall           '-P 2ybc'
loop_
_symmetry_equiv_pos_site_id
_symmetry_equiv_pos_as_xyz
1 x,y,z
2 -x,1/2+y,1/2-z
3 -x,-y,-z
4 x,1/2-y,1/2+z
_cell_length_a                   7.4918(3)
_cell_length_b                   23.7428(11)
_cell_length_c                   9.1379(4)
_cell_angle_alpha                90
_cell_angle_beta                 98.6780(10)
_cell_angle_gamma                90
_cell_volume                     1606.81
loop_
_atom_site_label
_atom_site_type_symbol
_atom_site_fract_x
_atom_site_fract_y
_atom_site_fract_z
Ag1 Ag 0.31913(4) 0.339360(11) 0.51071(3)
S1 S 0.30184(12) 0.44038(3) 0.55560(9)
O1 O 0.5327(3) 0.35196(10) 0.7503(3)
C1 C 0.4993(5) 0.45153(14) 0.6953(4)
H1 H 0.6054 0.4557 0.6434
H2 H 0.4832 0.4878 0.7450
C2 C 0.0978(4) 0.37488(14) 0.8175(3)
H3 H 0.0600 0.3523 0.7326
C3 C 0.1099(5) 0.45839(14) 0.6504(4)
H4 H 0.1034 0.4999 0.6594
H5 H -0.0029 0.4456 0.5888
C4 C 0.1297(4) 0.35010(13) 0.9567(4)
C5 C 0.1209(4) 0.43279(14) 0.8018(4)
C6 C 0.1648(5) 0.46621(15) 0.9263(4)
H6 H 0.1771 0.5058 0.9160
C7 C 0.1768(5) 0.38376(15) 1.0807(4)
H7 H 0.1994 0.3670 1.1761
C8 C 0.5447(5) 0.40674(15) 0.8154(4)
H8 H 0.6685 0.4130 0.8683
H9 H 0.4597 0.4097 0.8881
C9 C 0.1909(5) 0.44185(15) 1.0660(4)
H10 H 0.2183 0.4648 1.1516
C10 C 0.6156(4) 0.30884(15) 0.8473(4)
H11 H 0.7337 0.3230 0.8970
H12 H 0.6395 0.2759 0.7865
S2 S 0.29919(11) 0.25176(3) 0.88808(8)
C11 C 0.5072(4) 0.28911(14) 0.9651(3)
H13 H 0.4752 0.3222 1.0220
H14 H 0.5832 0.2638 1.0347
C12 C 0.1232(4) 0.28739(14) 0.9739(4)
H15 H 0.0032 0.2735 0.9279
H16 H 0.1389 0.2779 1.0806
Ag1C Ag 0.31913(4) 0.160640(11) 1.01071(3)
S2C S 0.29919(11) 0.24824(3) 0.38808(8)
P1 P -0.22742(12) 0.36197(4) 0.32600(9)
F1 F -0.1469(3) 0.31244(10) 0.2382(3)
F2 F -0.0395(3) 0.39472(11) 0.3435(3)
F3 F -0.2880(4) 0.39390(11) 0.1742(3)
F4 F -0.4175(3) 0.33029(10) 0.3087(3)
F5 F -0.3086(4) 0.41180(11) 0.4139(3)
F6 F -0.1646(4) 0.32990(13) 0.4777(3)
loop_
_geom_bond_atom_site_label_1
_geom_bond_atom_site_label_2
_geom_bond_site_symmetry_1
_geom_bond_site_symmetry_2
Ag1 S1 1_555 1_555
S1 C1 1_555 1_555
O1 Ag1 1_555 1_555
C1 H1 1_555 1_555
H2 C1 1_555 1_555
C2 H3 1_555 1_555
C3 S1 1_555 1_555
H4 C3 1_555 1_555
H5 C3 1_555 1_555
C4 C2 1_555 1_555
C5 C2 1_555 1_555
C6 C5 1_555 1_555
H6 C6 1_555 1_555
C7 C4 1_555 1_555
H7 C7 1_555 1_555
C8 O1 1_555 1_555
H8 C8 1_555 1_555
H9 C8 1_555 1_555
C9 C6 1_555 1_555
H10 C9 1_555 1_555
C10 O1 1_555 1_555
H11 C10 1_555 1_555
H12 C10 1_555 1_555
S2 C11 1_555 1_555
C11 C10 1_555 1_555
H13 C11 1_555 1_555
H14 C11 1_555 1_555
C12 C4 1_555 1_555
H15 C12 1_555 1_555
H16 C12 1_555 1_555
P1 F1 1_555 1_555
F2 P1 1_555 1_555
F3 P1 1_555 1_555
F4 P1 1_555 1_555
F5 P1 1_555 1_555
F6 P1 1_555 1_555
Ag1C S2 1_555 1_555
S2C Ag1 1_555 1_555
C1 C8 1_555 1_555
C3 C5 1_555 1_555
C7 C9 1_555 1_555
S2 C12 1_555 1_555

#END
