
#######################################################################
#
#                 Cambridge Crystallographic Data Centre
#                                CCDC 
#
#######################################################################
#
# If this CIF has been generated from an entry in the Cambridge 
# Structural Database, then it will include bibliographic, chemical, 
# crystal, experimental, refinement or atomic coordinate data resulting 
# from the CCDC's data processing and validation procedures.
#
#######################################################################

data_VEBNUN
_symmetry_cell_setting           monoclinic
_symmetry_space_group_name_H-M   'P 21/n'
_symmetry_Int_Tables_number      14
_space_group_name_Hall           '-P 2yn'
loop_
_symmetry_equiv_pos_site_id
_symmetry_equiv_pos_as_xyz
1 x,y,z
2 1/2-x,1/2+y,1/2-z
3 -x,-y,-z
4 1/2+x,1/2-y,1/2+z
_cell_length_a                   12.802(3)
_cell_length_b                   7.2170(14)
_cell_length_c                   20.680(4)
_cell_angle_alpha                90
_cell_angle_beta                 104.72(3)
_cell_angle_gamma                90
_cell_volume                     1847.96
loop_
_atom_site_label
_atom_site_type_symbol
_atom_site_fract_x
_atom_site_fract_y
_atom_site_fract_z
Ag1 Ag 0.678370(19) 0.79762(3) 0.176052(11)
O4 O 0.6157(2) 0.7612(3) 0.28497(12)
O5 O 0.6572(2) 0.5287(4) 0.35332(12)
O6 O 0.72747(18) 0.5504(3) 0.26825(11)
N1 N 0.5127(2) 0.6394(4) 0.12668(12)
N2 N 0.4796(2) 0.3925(4) 0.19492(13)
N3 N 0.3985(2) 0.6581(4) 0.20039(13)
N4 N 0.6696(2) 0.7138(3) 0.06771(13)
N5 N 0.8474(2) 0.6814(4) 0.05564(13)
N6 N 0.7525(2) 0.9176(4) 0.00441(13)
N8 N 0.6653(2) 0.6140(4) 0.30315(13)
C1 C 0.5032(2) 0.5622(4) 0.06680(14)
C2 C 0.5880(2) 0.6172(4) 0.03140(15)
C3 C 0.4211(2) 0.4440(4) 0.03426(15)
H1 H 0.3706 0.4041 0.0566
C4 C 0.4621(2) 0.5635(4) 0.17054(15)
C5 C 0.5501(3) 0.2560(5) 0.17684(18)
H2 H 0.5092 0.1795 0.1414
H3 H 0.5815 0.1802 0.2150
H4 H 0.6064 0.3177 0.1622
C6 C 0.4193(3) 0.3576(5) 0.24519(17)
H5 H 0.4660 0.3087 0.2861
H6 H 0.3603 0.2717 0.2286
C7 C 0.3770(3) 0.5511(5) 0.25642(17)
H7 H 0.3004 0.5480 0.2542
H8 H 0.4158 0.6020 0.2992
C8 C 0.3734(3) 0.8537(5) 0.19236(18)
H9 H 0.4135 0.9083 0.1638
H10 H 0.3926 0.9132 0.2353
H11 H 0.2975 0.8692 0.1727
C9 C 0.7535(3) 0.7659(4) 0.04141(15)
C10 C 0.8721(3) 0.5052(5) 0.09039(18)
H12 H 0.8188 0.4791 0.1145
H13 H 0.9422 0.5119 0.1212
H14 H 0.8717 0.4085 0.0585
C11 C 0.9232(3) 0.7750(5) 0.02394(17)
H15 H 0.9373 0.7011 -0.0121
H16 H 0.9910 0.8021 0.0561
C12 C 0.8619(3) 0.9534(4) -0.00268(16)
H17 H 0.8938 1.0599 0.0236
H18 H 0.8615 0.9743 -0.0491
C13 C 0.6722(3) 1.0625(5) -0.00277(18)
H19 H 0.6014 1.0094 -0.0174
H20 H 0.6826 1.1513 -0.0352
H21 H 0.6795 1.1230 0.0395
Ag1A Ag 0.821630(19) 1.29762(3) 0.323948(11)
Ag1A_2 Ag 0.821630(19) 0.29762(3) 0.323948(11)
Ag1B Ag 0.321630(19) 0.20238(3) -0.176052(11)
O4A O 0.8843(2) 1.2612(3) 0.21503(12)
O5A O 0.8428(2) 1.0287(4) 0.14668(12)
O6A O 0.77253(18) 1.0504(3) 0.23175(11)
O6_2 O 0.72747(18) 1.5504(3) 0.26825(11)
N1B N 0.4873(2) 0.3606(4) -0.12668(12)
N1A N 0.9873(2) 1.1394(4) 0.37332(12)
N2B N 0.5204(2) 0.6075(4) -0.19492(13)
N3B N 0.6015(2) 0.3419(4) -0.20039(13)
N4B N 0.3304(2) 0.2862(3) -0.06771(13)
N4A N 0.8304(2) 1.2138(3) 0.43229(13)
N5B N 0.1526(2) 0.3186(4) -0.05564(13)
N6B N 0.2475(2) 0.0824(4) -0.00441(13)
N8A N 0.8347(2) 1.1140(4) 0.19685(13)
C1B C 0.4968(2) 0.4378(4) -0.06680(14)
C2B C 0.4120(2) 0.3828(4) -0.03140(15)
C3B C 0.5789(2) 0.5560(4) -0.03426(15)
H1B H 0.6294 0.5959 -0.0566
C4B C 0.5379(2) 0.4365(4) -0.17054(15)
C5B C 0.4499(3) 0.7440(5) -0.17684(18)
H2B H 0.4908 0.8205 -0.1414
H3B H 0.4185 0.8198 -0.2150
H4B H 0.3936 0.6823 -0.1622
C6B C 0.5807(3) 0.6424(5) -0.24519(17)
H5B H 0.5340 0.6913 -0.2861
H6B H 0.6397 0.7283 -0.2286
C7B C 0.6230(3) 0.4489(5) -0.25642(17)
H7B H 0.6996 0.4520 -0.2542
H8B H 0.5842 0.3980 -0.2992
C8B C 0.6266(3) 0.1463(5) -0.19236(18)
H9B H 0.5865 0.0917 -0.1638
H10B H 0.6074 0.0868 -0.2353
H11B H 0.7025 0.1308 -0.1727
C9B C 0.2465(3) 0.2341(4) -0.04141(15)
C10B C 0.1279(3) 0.4948(5) -0.09039(18)
H12B H 0.1812 0.5209 -0.1145
H13B H 0.0578 0.4881 -0.1212
H14B H 0.1283 0.5915 -0.0585
C11B C 0.0768(3) 0.2250(5) -0.02394(17)
H15B H 0.0627 0.2989 0.0121
H16B H 0.0090 0.1979 -0.0561
C12B C 0.1381(3) 0.0466(4) 0.00268(16)
H17B H 0.1062 -0.0599 -0.0236
H18B H 0.1385 0.0257 0.0491
C13B C 0.3278(3) -0.0625(5) 0.00277(18)
H19B H 0.3986 -0.0094 0.0174
H20B H 0.3174 -0.1513 0.0352
H21B H 0.3205 -0.1230 -0.0395
O1 O 0.1914(2) 0.6215(4) 0.06447(13)
O2 O 0.1372(2) 0.6036(5) 0.15486(14)
O3 O 0.2128(2) 0.3668(4) 0.12027(14)
N7 N 0.1799(2) 0.5308(4) 0.11338(14)
loop_
_geom_bond_atom_site_label_1
_geom_bond_atom_site_label_2
_geom_bond_site_symmetry_1
_geom_bond_site_symmetry_2
Ag1 O6 1_555 1_555
O1 N7 1_555 1_555
O2 N7 1_555 1_555
O3 N7 1_555 1_555
O4 N8 1_555 1_555
O5 N8 1_555 1_555
O6 N8 1_555 1_555
N1 Ag1 1_555 1_555
N2 C4 1_555 1_555
N3 C4 1_555 1_555
N4 Ag1 1_555 1_555
N5 C9 1_555 1_555
N6 C9 1_555 1_555
C1 N1 1_555 1_555
C2 N4 1_555 1_555
C3 C1 1_555 1_555
H1 C3 1_555 1_555
C4 N1 1_555 1_555
C5 N2 1_555 1_555
H2 C5 1_555 1_555
H3 C5 1_555 1_555
H4 C5 1_555 1_555
C6 N2 1_555 1_555
H5 C6 1_555 1_555
H6 C6 1_555 1_555
C7 N3 1_555 1_555
H7 C7 1_555 1_555
H8 C7 1_555 1_555
C8 N3 1_555 1_555
H9 C8 1_555 1_555
H10 C8 1_555 1_555
H11 C8 1_555 1_555
C9 N4 1_555 1_555
C10 N5 1_555 1_555
H12 C10 1_555 1_555
H13 C10 1_555 1_555
H14 C10 1_555 1_555
C11 N5 1_555 1_555
H15 C11 1_555 1_555
H16 C11 1_555 1_555
C12 N6 1_555 1_555
H17 C12 1_555 1_555
H18 C12 1_555 1_555
C13 N6 1_555 1_555
H19 C13 1_555 1_555
H20 C13 1_555 1_555
H21 C13 1_555 1_555
Ag1A O6A 1_555 1_555
Ag1A_2 O6 1_555 1_555
Ag1B N1B 1_555 1_555
O4A N8A 1_555 1_555
O5A N8A 1_555 1_555
O6A Ag1 1_555 1_555
O6_2 Ag1A 1_555 1_555
N1B C1B 1_555 1_555
N1A Ag1A 1_555 1_555
N2B C4B 1_555 1_555
N3B C4B 1_555 1_555
N4B Ag1B 1_555 1_555
N4A Ag1A 1_555 1_555
N5B C9B 1_555 1_555
N6B C9B 1_555 1_555
N8A O6A 1_555 1_555
C1B C2B 1_555 1_555
C2B C3 1_555 1_555
C3B C2 1_555 1_555
H1B C3B 1_555 1_555
C4B N1B 1_555 1_555
C5B N2B 1_555 1_555
H2B C5B 1_555 1_555
H3B C5B 1_555 1_555
H4B C5B 1_555 1_555
C6B N2B 1_555 1_555
H5B C6B 1_555 1_555
H6B C6B 1_555 1_555
C7B N3B 1_555 1_555
H7B C7B 1_555 1_555
H8B C7B 1_555 1_555
C8B N3B 1_555 1_555
H9B C8B 1_555 1_555
H10B C8B 1_555 1_555
H11B C8B 1_555 1_555
C9B N4B 1_555 1_555
C10B N5B 1_555 1_555
H12B C10B 1_555 1_555
H13B C10B 1_555 1_555
H14B C10B 1_555 1_555
C11B N5B 1_555 1_555
H15B C11B 1_555 1_555
H16B C11B 1_555 1_555
C12B N6B 1_555 1_555
H17B C12B 1_555 1_555
H18B C12B 1_555 1_555
C13B N6B 1_555 1_555
H19B C13B 1_555 1_555
H20B C13B 1_555 1_555
H21B C13B 1_555 1_555
C1 C2 1_555 1_555
C6 C7 1_555 1_555
C11 C12 1_555 1_555
N4B C2B 1_555 1_555
C1B C3B 1_555 1_555
C6B C7B 1_555 1_555
C11B C12B 1_555 1_555

#END
