
#######################################################################
#
#                 Cambridge Crystallographic Data Centre
#                                CCDC 
#
#######################################################################
#
# If this CIF has been generated from an entry in the Cambridge 
# Structural Database, then it will include bibliographic, chemical, 
# crystal, experimental, refinement or atomic coordinate data resulting 
# from the CCDC's data processing and validation procedures.
#
#######################################################################

data_VEBPAV
_symmetry_cell_setting           monoclinic
_symmetry_space_group_name_H-M   'P 21/c'
_symmetry_Int_Tables_number      14
_space_group_name_Hall           '-P 2ybc'
loop_
_symmetry_equiv_pos_site_id
_symmetry_equiv_pos_as_xyz
1 x,y,z
2 -x,1/2+y,1/2-z
3 -x,-y,-z
4 x,1/2-y,1/2+z
_cell_length_a                   12.053(2)
_cell_length_b                   22.138(4)
_cell_length_c                   17.106(3)
_cell_angle_alpha                90
_cell_angle_beta                 108.60(3)
_cell_angle_gamma                90
_cell_volume                     4325.98
loop_
_atom_site_label
_atom_site_type_symbol
_atom_site_fract_x
_atom_site_fract_y
_atom_site_fract_z
Ag1 Ag -0.753718(11) 0.263064(5) -0.005154(6)
N1 N -0.67913(10) 0.21047(5) -0.09535(6)
N2 N -0.67362(11) 0.10484(5) -0.08437(7)
N3 N -0.50342(11) 0.16256(6) -0.02863(8)
N4 N -0.79965(11) 0.31296(5) -0.12870(7)
N5 N -0.74405(11) 0.41289(5) -0.14087(7)
N6 N -0.92217(11) 0.39185(5) -0.11888(7)
N7 N -0.83524(10) 0.28926(5) -0.41692(6)
N8 N -0.83522(11) 0.39479(5) -0.42566(7)
N9 N -1.00673(11) 0.33929(6) -0.48832(7)
N10 N -0.71167(10) 0.18788(5) -0.38275(7)
N11 N -0.59175(12) 0.10740(6) -0.39093(7)
N12 N -0.77049(11) 0.08909(5) -0.36835(7)
C1 C -0.71720(12) 0.22594(6) -0.17411(8)
C2 C -0.78123(12) 0.28532(6) -0.19263(8)
C3 C -0.81668(12) 0.30697(6) -0.27334(7)
H1 H -0.8551 0.3439 -0.2848
C4 C -0.79595(12) 0.27456(6) -0.33765(8)
C5 C -0.73088(12) 0.21549(6) -0.31879(8)
C6 C -0.69505(12) 0.19426(6) -0.23831(8)
H2 H -0.6550 0.1578 -0.2266
C7 C -0.61654(13) 0.15719(6) -0.07088(8)
C8 C -0.61798(14) 0.04534(7) -0.08128(10)
H3 H -0.5383 0.0506 -0.0798
H4 H -0.6597 0.0225 -0.1293
H5 H -0.6197 0.0242 -0.0327
C9 C -0.80210(13) 0.10348(7) -0.11586(9)
H6 H -0.8327 0.1382 -0.0961
H7 H -0.8299 0.0675 -0.0970
H8 H -0.8277 0.1039 -0.1751
C10 C -0.43492(15) 0.12012(8) 0.03441(9)
H9 H -0.4870 0.0931 0.0495
H10 H -0.3894 0.1422 0.0822
H11 H -0.3836 0.0973 0.0127
C11 C -0.43940(16) 0.21717(8) -0.03695(13)
H12 H -0.4827 0.2384 -0.0861
H13 H -0.3640 0.2061 -0.0403
H14 H -0.4295 0.2427 0.0101
C12 C -0.82479(12) 0.37374(6) -0.13250(8)
C13 C -0.62400(14) 0.39284(8) -0.12764(10)
H15 H -0.6036 0.3624 -0.0855
H16 H -0.5717 0.4265 -0.1107
H17 H -0.6178 0.3764 -0.1780
C14 C -0.77261(16) 0.47244(7) -0.18072(10)
H18 H -0.8554 0.4750 -0.2085
H19 H -0.7315 0.4776 -0.2200
H20 H -0.7495 0.5036 -0.1396
C15 C -0.93894(15) 0.45250(7) -0.09000(10)
H21 H -0.8641 0.4702 -0.0619
H22 H -0.9840 0.4498 -0.0529
H23 H -0.9797 0.4772 -0.1363
C16 C -1.02099(14) 0.35048(7) -0.13157(10)
H24 H -1.0018 0.3121 -0.1499
H25 H -1.0886 0.3669 -0.1725
H26 H -1.0374 0.3454 -0.0806
C17 C -0.89484(12) 0.34298(6) -0.44251(8)
C18 C -0.70697(13) 0.39448(7) -0.39313(9)
H27 H -0.6776 0.3592 -0.4126
H28 H -0.6824 0.3940 -0.3339
H29 H -0.6770 0.4300 -0.4115
C19 C -0.88796(14) 0.45449(7) -0.42622(9)
H30 H -0.9690 0.4499 -0.4307
H31 H -0.8818 0.4773 -0.4724
H32 H -0.8477 0.4753 -0.3760
C20 C -1.07449(15) 0.28483(8) -0.48534(12)
H33 H -1.0328 0.2610 -0.4383
H34 H -1.0859 0.2617 -0.5347
H35 H -1.1492 0.2962 -0.4810
C21 C -1.07003(14) 0.38340(7) -0.55074(9)
H36 H -1.0154 0.4116 -0.5605
H37 H -1.1256 0.4047 -0.5314
H38 H -1.1104 0.3627 -0.6011
C22 C -0.68890(13) 0.12705(6) -0.37807(8)
C23 C -0.57882(16) 0.04658(7) -0.42095(10)
H39 H -0.6548 0.0299 -0.4483
H40 H -0.5380 0.0213 -0.3752
H41 H -0.5351 0.0488 -0.4590
C24 C -0.49064(14) 0.14710(8) -0.37769(10)
H42 H -0.5039 0.1841 -0.3528
H43 H -0.4795 0.1558 -0.4297
H44 H -0.4221 0.1275 -0.3419
C25 C -0.89074(14) 0.10945(7) -0.38208(10)
H45 H -0.9096 0.1409 -0.4228
H46 H -0.8980 0.1246 -0.3313
H47 H -0.9435 0.0762 -0.4011
C26 C -0.74077(15) 0.03064(7) -0.32545(10)
H48 H -0.6580 0.0288 -0.2976
H49 H -0.7632 -0.0016 -0.3649
H50 H -0.7817 0.0266 -0.2859
Ag1C Ag -0.753718(11) 0.236936(5) -0.505154(6)
N7C N -0.83524(10) 0.21074(5) 0.08308(6)
N10C N -0.71167(10) 0.31212(5) 0.11725(7)
B1 B -0.38818(16) 0.05659(9) -0.18109(11)
F1 F -0.47278(10) 0.10150(5) -0.19386(6)
F2 F -0.34762(9) 0.04107(5) -0.09748(6)
F3 F -0.43902(9) 0.00539(5) -0.22670(6)
F4 F -0.29512(9) 0.07568(5) -0.20596(6)
B2 B -0.13031(18) 0.42694(12) -0.33561(12)
F5 F -0.16508(9) 0.45166(5) -0.41425(6)
F6 F -0.2263(2) 0.41804(13) -0.31046(14)
F7 F -0.06880(18) 0.47816(10) -0.28372(11)
F8 F -0.0580(3) 0.38286(12) -0.32669(14)
B3 B -0.23514(18) 0.10987(9) -0.48295(12)
F9 F -0.24430(13) 0.16936(6) -0.50861(8)
F10 F -0.17359(10) 0.07679(6) -0.52445(7)
F11 F -0.17661(13) 0.10726(6) -0.39923(7)
F12 F -0.34481(11) 0.08473(7) -0.50004(9)
N13 N -0.48894(17) 0.29373(9) -0.30108(14)
C27 C -0.44008(16) 0.33124(9) -0.25886(12)
C28 C -0.37970(19) 0.38059(11) -0.20722(14)
H51 H -0.4300 0.4153 -0.2167
H52 H -0.3101 0.3903 -0.2204
H53 H -0.3590 0.3689 -0.1503
N14 N -0.00554(16) 0.19975(8) -0.21235(14)
C29 C -0.09506(17) 0.21144(9) -0.25437(12)
C30 C -0.2097(2) 0.22917(14) -0.30832(17)
H54 H -0.2127 0.2723 -0.3144
H55 H -0.2684 0.2163 -0.2849
H56 H -0.2240 0.2107 -0.3614
F13? F -0.1733(3) 0.36015(15) -0.3517(2)
F14? F -0.1784(5) 0.4458(2) -0.2845(2)
F15? F -0.0108(3) 0.41572(19) -0.30356(19)
loop_
_geom_bond_atom_site_label_1
_geom_bond_atom_site_label_2
_geom_bond_site_symmetry_1
_geom_bond_site_symmetry_2
Ag1 N1 1_555 1_555
N1 C1 1_555 1_555
N2 C7 1_555 1_555
N3 C7 1_555 1_555
N4 Ag1 1_555 1_555
N5 C12 1_555 1_555
N6 C12 1_555 1_555
N7 C4 1_555 1_555
N8 C17 1_555 1_555
N9 C17 1_555 1_555
N10 C5 1_555 1_555
N11 C22 1_555 1_555
N12 C22 1_555 1_555
C1 C2 1_555 1_555
C2 N4 1_555 1_555
C3 C2 1_555 1_555
H1 C3 1_555 1_555
C4 C3 1_555 1_555
C5 C4 1_555 1_555
C6 C1 1_555 1_555
H2 C6 1_555 1_555
C7 N1 1_555 1_555
C8 N2 1_555 1_555
H3 C8 1_555 1_555
H4 C8 1_555 1_555
H5 C8 1_555 1_555
C9 N2 1_555 1_555
H6 C9 1_555 1_555
H7 C9 1_555 1_555
H8 C9 1_555 1_555
C10 N3 1_555 1_555
H9 C10 1_555 1_555
H10 C10 1_555 1_555
H11 C10 1_555 1_555
C11 N3 1_555 1_555
H12 C11 1_555 1_555
H13 C11 1_555 1_555
H14 C11 1_555 1_555
C12 N4 1_555 1_555
C13 N5 1_555 1_555
H15 C13 1_555 1_555
H16 C13 1_555 1_555
H17 C13 1_555 1_555
C14 N5 1_555 1_555
H18 C14 1_555 1_555
H19 C14 1_555 1_555
H20 C14 1_555 1_555
C15 N6 1_555 1_555
H21 C15 1_555 1_555
H22 C15 1_555 1_555
H23 C15 1_555 1_555
C16 N6 1_555 1_555
H24 C16 1_555 1_555
H25 C16 1_555 1_555
H26 C16 1_555 1_555
C17 N7 1_555 1_555
C18 N8 1_555 1_555
H27 C18 1_555 1_555
H28 C18 1_555 1_555
H29 C18 1_555 1_555
C19 N8 1_555 1_555
H30 C19 1_555 1_555
H31 C19 1_555 1_555
H32 C19 1_555 1_555
C20 N9 1_555 1_555
H33 C20 1_555 1_555
H34 C20 1_555 1_555
H35 C20 1_555 1_555
C21 N9 1_555 1_555
H36 C21 1_555 1_555
H37 C21 1_555 1_555
H38 C21 1_555 1_555
C22 N10 1_555 1_555
C23 N11 1_555 1_555
H39 C23 1_555 1_555
H40 C23 1_555 1_555
H41 C23 1_555 1_555
C24 N11 1_555 1_555
H42 C24 1_555 1_555
H43 C24 1_555 1_555
H44 C24 1_555 1_555
C25 N12 1_555 1_555
H45 C25 1_555 1_555
H46 C25 1_555 1_555
H47 C25 1_555 1_555
C26 N12 1_555 1_555
H48 C26 1_555 1_555
H49 C26 1_555 1_555
H50 C26 1_555 1_555
B1 F1 1_555 1_555
F2 B1 1_555 1_555
F3 B1 1_555 1_555
F4 B1 1_555 1_555
B2 F5 1_555 1_555
F6 B2 1_555 1_555
F7 B2 1_555 1_555
F8 B2 1_555 1_555
B3 F9 1_555 1_555
F10 B3 1_555 1_555
F11 B3 1_555 1_555
F12 B3 1_555 1_555
N13 C27 1_555 1_555
C27 C28 1_555 1_555
C28 H51 1_555 1_555
H52 C28 1_555 1_555
H53 C28 1_555 1_555
N14 C29 1_555 1_555
C29 C30 1_555 1_555
C30 H54 1_555 1_555
H55 C30 1_555 1_555
H56 C30 1_555 1_555
Ag1C N7 1_555 1_555
N7C Ag1 1_555 1_555
N10C Ag1 1_555 1_555
N10 Ag1C 1_555 1_555
C5 C6 1_555 1_555

#END
