
#######################################################################
#
#                 Cambridge Crystallographic Data Centre
#                                CCDC 
#
#######################################################################
#
# If this CIF has been generated from an entry in the Cambridge 
# Structural Database, then it will include bibliographic, chemical, 
# crystal, experimental, refinement or atomic coordinate data resulting 
# from the CCDC's data processing and validation procedures.
#
#######################################################################

data_VEBTON
_symmetry_cell_setting           orthorhombic
_symmetry_space_group_name_H-M   'P 21 21 21'
_symmetry_Int_Tables_number      19
_space_group_name_Hall           'P 2ac 2ab'
loop_
_symmetry_equiv_pos_site_id
_symmetry_equiv_pos_as_xyz
1 x,y,z
2 1/2-x,-y,1/2+z
3 1/2+x,1/2-y,-z
4 -x,1/2+y,1/2-z
_cell_length_a                   6.3252(2)
_cell_length_b                   7.43240(10)
_cell_length_c                   22.3233(5)
_cell_angle_alpha                90
_cell_angle_beta                 90
_cell_angle_gamma                90
_cell_volume                     1049.45
loop_
_atom_site_label
_atom_site_type_symbol
_atom_site_fract_x
_atom_site_fract_y
_atom_site_fract_z
Cu1 Cu 0.39703(10) 0.75313(9) 1.00149(2)
O1 O 0.3259(5) 0.6010(4) 0.93331(13)
O2 O -0.0290(5) 0.5943(5) 0.93072(12)
O3 O 0.6420(7) 0.9307(5) 0.94240(16)
N1 N 0.6465(6) 0.5928(5) 1.01662(16)
N2 N 0.6415(8) 0.2901(7) 0.9854(3)
N3 N 0.6438(6) 0.4379(7) 0.99983(16)
C1 C 0.1508(8) 0.5539(6) 0.91116(19)
C2 C 0.1668(8) 0.4327(7) 0.8576(2)
C3 C -0.0050(9) 0.3344(7) 0.83859(19)
H1 H -0.1355 0.3438 0.8594
C4 C 0.0106(11) 0.2220(8) 0.7893(2)
C5 C 0.1983(10) 0.2130(8) 0.7575(2)
C6 C 0.3700(9) 0.3063(9) 0.7769(3)
C7 C 0.3584(9) 0.4181(8) 0.8266(2)
C8 C 0.6248(10) 0.9286(9) 0.8795(2)
H2 H 0.7534 0.9796 0.8618
H3 H 0.5023 1.0005 0.8673
H4 H 0.6068 0.8045 0.8657
H5 H 0.629(10) 1.006(7) 0.960(2)
H6 H -0.096(7) 0.171(6) 0.7792(19)
H7 H 0.484(9) 0.299(7) 0.7569(18)
H8 H 0.481(8) 0.484(7) 0.8477(18)
H9 H 0.203(7) 0.134(5) 0.7246(19)
Cu1B Cu -0.10297(10) 0.74687(9) 0.99851(2)
Cu1B_2 Cu 0.89703(10) 0.74687(9) 0.99851(2)
O2B O 0.4710(5) 0.9057(5) 1.06928(12)
N1B N 0.1465(6) 0.9072(5) 0.98338(16)
loop_
_geom_bond_atom_site_label_1
_geom_bond_atom_site_label_2
_geom_bond_site_symmetry_1
_geom_bond_site_symmetry_2
Cu1 O1 1_555 1_555
O1 C1 1_555 1_555
O2 C1 1_555 1_555
O3 Cu1 1_555 1_555
N1 Cu1 1_555 1_555
N2 N3 1_555 1_555
N3 N1 1_555 1_555
C1 C2 1_555 1_555
C2 C3 1_555 1_555
C3 H1 1_555 1_555
C4 C3 1_555 1_555
C5 C4 1_555 1_555
C6 C5 1_555 1_555
C7 C2 1_555 1_555
C8 O3 1_555 1_555
H2 C8 1_555 1_555
H3 C8 1_555 1_555
H4 C8 1_555 1_555
H5 O3 1_555 1_555
H6 C4 1_555 1_555
H7 C6 1_555 1_555
H8 C7 1_555 1_555
H9 C5 1_555 1_555
Cu1B O2 1_555 1_555
Cu1B_2 N1 1_555 1_555
O2B Cu1 1_555 1_555
N1B Cu1 1_555 1_555
C6 C7 1_555 1_555
Cu1B N1B 1_555 1_555

#END
