
#######################################################################
#
#                 Cambridge Crystallographic Data Centre
#                                CCDC 
#
#######################################################################
#
# If this CIF has been generated from an entry in the Cambridge 
# Structural Database, then it will include bibliographic, chemical, 
# crystal, experimental, refinement or atomic coordinate data resulting 
# from the CCDC's data processing and validation procedures.
#
#######################################################################

data_VEBTEB01
_symmetry_cell_setting           monoclinic
_symmetry_space_group_name_H-M   'P 21/n'
_symmetry_Int_Tables_number      14
_space_group_name_Hall           '-P 2yn'
loop_
_symmetry_equiv_pos_site_id
_symmetry_equiv_pos_as_xyz
1 x,y,z
2 1/2-x,1/2+y,1/2-z
3 -x,-y,-z
4 1/2+x,1/2-y,1/2+z
_cell_length_a                   12.8831(14)
_cell_length_b                   11.3890(12)
_cell_length_c                   17.0873(18)
_cell_angle_alpha                90
_cell_angle_beta                 104.079(2)
_cell_angle_gamma                90
_cell_volume                     2431.83
loop_
_atom_site_label
_atom_site_type_symbol
_atom_site_fract_x
_atom_site_fract_y
_atom_site_fract_z
Sn1 Sn 1.266319(19) 0.19908(2) -0.282345(14)
O1 O 1.22110(18) 0.0176(2) -0.24841(14)
O2 O 1.18800(19) -0.1285(2) -0.17196(15)
O3 O 1.1398(4) 0.2048(3) -0.0055(2)
C1 C 1.1975(3) -0.0214(3) -0.1855(2)
C2 C 1.1781(3) 0.0647(3) -0.1236(2)
H1 H 1.1137 0.1089 -0.1473
H2 H 1.2371 0.1200 -0.1116
C3 C 1.1660(3) 0.0116(3) -0.0449(2)
H3 H 1.1064 -0.0429 -0.0561
H4 H 1.2302 -0.0323 -0.0204
C4 C 1.1474(4) 0.1027(4) 0.0135(2)
C5 C 1.1399(3) 0.0654(4) 0.0954(2)
C6 C 1.1470(4) -0.0490(5) 0.1200(3)
H5 H 1.1569 -0.1081 0.0849
C7 C 1.1394(5) -0.0766(6) 0.1968(3)
H6 H 1.1447 -0.1546 0.2135
C8 C 1.1242(5) 0.0100(7) 0.2491(3)
H7 H 1.1190 -0.0091 0.3009
C9 C 1.1167(4) 0.1231(7) 0.2242(3)
H8 H 1.1062 0.1821 0.2592
C10 C 1.1244(3) 0.1512(5) 0.1486(3)
H9 H 1.1191 0.2294 0.1323
C11 C 1.1141(3) 0.2675(3) -0.2791(2)
C12 C 1.1011(3) 0.3323(3) -0.2138(2)
H10 H 1.1593 0.3432 -0.1701
C13 C 1.0036(4) 0.3811(4) -0.2121(3)
H11 H 0.9966 0.4246 -0.1676
C14 C 0.9175(4) 0.3652(4) -0.2759(4)
H12 H 0.8517 0.3978 -0.2747
C15 C 0.9273(4) 0.3018(5) -0.3412(3)
H13 H 0.8685 0.2919 -0.3847
C16 C 1.0251(3) 0.2518(4) -0.3432(2)
H14 H 1.0310 0.2076 -0.3876
C17 C 1.3990(3) 0.2042(4) -0.18022(19)
C18 C 1.4500(3) 0.1030(4) -0.1484(3)
H15 H 1.4253 0.0310 -0.1711
C19 C 1.5381(4) 0.1067(5) -0.0827(3)
H16 H 1.5711 0.0372 -0.0613
C20 C 1.5764(4) 0.2114(5) -0.0495(3)
H17 H 1.6361 0.2137 -0.0061
C21 C 1.5269(3) 0.3128(4) -0.0801(2)
H18 H 1.5519 0.3845 -0.0570
C22 C 1.4396(3) 0.3091(4) -0.1455(2)
H19 H 1.4073 0.3791 -0.1667
C23 C 1.2918(3) 0.1257(3) -0.3907(2)
C24 C 1.2325(3) 0.0315(3) -0.4294(2)
H20 H 1.1776 0.0007 -0.4091
C25 C 1.2542(4) -0.0171(4) -0.4981(2)
H21 H 1.2143 -0.0805 -0.5234
C26 C 1.3338(4) 0.0280(5) -0.5285(3)
H22 H 1.3480 -0.0050 -0.5746
C27 C 1.3932(4) 0.1209(5) -0.4922(3)
H23 H 1.4475 0.1517 -0.5134
C28 C 1.3717(3) 0.1687(3) -0.4235(2)
H24 H 1.4124 0.2319 -0.3987
Sn1A Sn 1.233681(19) -0.30092(2) -0.217655(14)
O2A O 1.31200(19) 0.3715(2) -0.32804(15)
loop_
_geom_bond_atom_site_label_1
_geom_bond_atom_site_label_2
_geom_bond_site_symmetry_1
_geom_bond_site_symmetry_2
Sn1 O1 1_555 1_555
O1 C1 1_555 1_555
O2 C1 1_555 1_555
O3 C4 1_555 1_555
C1 C2 1_555 1_555
C2 H1 1_555 1_555
H2 C2 1_555 1_555
C3 C2 1_555 1_555
H3 C3 1_555 1_555
H4 C3 1_555 1_555
C4 C3 1_555 1_555
C5 C4 1_555 1_555
C6 C5 1_555 1_555
H5 C6 1_555 1_555
C7 C6 1_555 1_555
H6 C7 1_555 1_555
C8 C7 1_555 1_555
H7 C8 1_555 1_555
C9 C8 1_555 1_555
H8 C9 1_555 1_555
C10 C5 1_555 1_555
H9 C10 1_555 1_555
C11 Sn1 1_555 1_555
C12 C11 1_555 1_555
H10 C12 1_555 1_555
C13 C12 1_555 1_555
H11 C13 1_555 1_555
C14 C13 1_555 1_555
H12 C14 1_555 1_555
C15 C14 1_555 1_555
H13 C15 1_555 1_555
C16 C11 1_555 1_555
H14 C16 1_555 1_555
C17 Sn1 1_555 1_555
C18 C17 1_555 1_555
H15 C18 1_555 1_555
C19 C18 1_555 1_555
H16 C19 1_555 1_555
C20 C19 1_555 1_555
H17 C20 1_555 1_555
C21 C20 1_555 1_555
H18 C21 1_555 1_555
C22 C17 1_555 1_555
H19 C22 1_555 1_555
C23 Sn1 1_555 1_555
C24 C23 1_555 1_555
H20 C24 1_555 1_555
C25 C24 1_555 1_555
H21 C25 1_555 1_555
C26 C25 1_555 1_555
H22 C26 1_555 1_555
C27 C26 1_555 1_555
H23 C27 1_555 1_555
C28 C23 1_555 1_555
H24 C28 1_555 1_555
Sn1A O2 1_555 1_555
O2A Sn1 1_555 1_555
C9 C10 1_555 1_555
C15 C16 1_555 1_555
C21 C22 1_555 1_555
C27 C28 1_555 1_555

#END
