
#######################################################################
#
#                 Cambridge Crystallographic Data Centre
#                                CCDC 
#
#######################################################################
#
# If this CIF has been generated from an entry in the Cambridge 
# Structural Database, then it will include bibliographic, chemical, 
# crystal, experimental, refinement or atomic coordinate data resulting 
# from the CCDC's data processing and validation procedures.
#
#######################################################################

data_VEBXIK
_symmetry_cell_setting           monoclinic
_symmetry_space_group_name_H-M   'C 2/c'
_symmetry_Int_Tables_number      15
_space_group_name_Hall           '-C 2yn'
loop_
_symmetry_equiv_pos_site_id
_symmetry_equiv_pos_as_xyz
1 x,y,z
2 1/2+x,1/2+y,z
3 -x,y,1/2-z
4 1/2-x,1/2+y,1/2-z
5 -x,-y,-z
6 1/2-x,1/2-y,-z
7 x,-y,1/2+z
8 1/2+x,1/2-y,1/2+z
_cell_length_a                   17.885(4)
_cell_length_b                   25.230(6)
_cell_length_c                   8.832(2)
_cell_angle_alpha                90
_cell_angle_beta                 105.437(4)
_cell_angle_gamma                90
_cell_volume                     3841.56
loop_
_atom_site_label
_atom_site_type_symbol
_atom_site_fract_x
_atom_site_fract_y
_atom_site_fract_z
Ag1 Ag 0.19775(5) 0.20976(3) 0.86827(10)
N1 N 0.2134(5) 0.2718(3) 0.7115(9)
N2 N 0.2838(5) 0.6367(3) 0.4964(9)
C1 C 0.2825(6) 0.2850(4) 0.6960(12)
H1 H 0.3259 0.2686 0.7607
C2 C 0.2933(7) 0.3220(4) 0.5885(13)
H2 H 0.3430 0.3313 0.5841
C3 C 0.2286(7) 0.3450(3) 0.4873(11)
C4 C 0.1595(6) 0.3309(4) 0.5053(12)
H3 H 0.1150 0.3463 0.4413
C5 C 0.1523(6) 0.2943(4) 0.6155(12)
H4 H 0.1030 0.2852 0.6228
C6 C 0.2369(7) 0.3847(3) 0.3643(12)
H5 H 0.1920 0.3822 0.2743
H6 H 0.2824 0.3758 0.3293
C7 C 0.2444(7) 0.4416(3) 0.4261(11)
H7 H 0.2902 0.4445 0.5142
H8 H 0.1996 0.4503 0.4633
C8 C 0.2507(7) 0.4813(3) 0.2976(11)
H9 H 0.2942 0.4717 0.2571
H10 H 0.2040 0.4796 0.2116
C9 C 0.3443(7) 0.6064(4) 0.4913(13)
H11 H 0.3941 0.6195 0.5331
C10 C 0.3357(8) 0.5566(4) 0.4267(14)
H12 H 0.3791 0.5361 0.4276
C11 C 0.2618(7) 0.5371(4) 0.3601(11)
C12 C 0.2024(7) 0.5690(4) 0.3650(11)
H13 H 0.1519 0.5571 0.3226
C13 C 0.2139(7) 0.6178(4) 0.4301(13)
H14 H 0.1710 0.6389 0.4280
S1 S 0.0000 0.20507(18) 0.7500
O1 O 0.0472(5) 0.1750(4) 0.6711(13)
O2 O 0.0556(6) 0.2358(4) 0.8639(14)
Ag1C Ag 0.30225(5) -0.29024(3) 0.63173(10)
Ag1E Ag 0.30225(5) 0.29024(3) 1.13173(10)
Ag1C_2 Ag 0.30225(5) 0.70976(3) 0.63173(10)
Ag1B Ag -0.19775(5) 0.20976(3) 0.63173(10)
Ag1F Ag 0.19775(5) -0.20976(3) 0.36827(10)
N1C N 0.2866(5) -0.2282(3) 0.7885(9)
N2C N 0.2162(5) 0.1367(3) 1.0036(9)
N2_2 N 0.2838(5) -0.3633(3) 0.4964(9)
C1C C 0.2175(6) -0.2150(4) 0.8040(12)
H1C H 0.1741 -0.2314 0.7393
C2C C 0.2067(7) -0.1780(4) 0.9115(13)
H2C H 0.1570 -0.1687 0.9159
C3C C 0.2714(7) -0.1550(3) 1.0127(11)
C4C C 0.3405(6) -0.1691(4) 0.9947(12)
H3C H 0.3850 -0.1537 1.0587
C5C C 0.3477(6) -0.2057(4) 0.8845(12)
H4C H 0.3970 -0.2148 0.8772
C6C C 0.2631(7) -0.1153(3) 1.1357(12)
H5C H 0.3080 -0.1178 1.2257
H6C H 0.2176 -0.1242 1.1707
C7C C 0.2556(7) -0.0584(3) 1.0739(11)
H7C H 0.2098 -0.0555 0.9858
H8C H 0.3004 -0.0497 1.0367
C8C C 0.2493(7) -0.0187(3) 1.2024(11)
H9C H 0.2058 -0.0283 1.2429
H10C H 0.2960 -0.0204 1.2884
C9C C 0.1557(7) 0.1064(4) 1.0087(13)
H11C H 0.1059 0.1195 0.9669
C10C C 0.1643(8) 0.0566(4) 1.0733(14)
H12C H 0.1209 0.0361 1.0724
C11C C 0.2382(7) 0.0371(4) 1.1399(11)
C12C C 0.2976(7) 0.0690(4) 1.1350(11)
H13C H 0.3481 0.0571 1.1774
C13C C 0.2861(7) 0.1178(4) 1.0699(13)
H14C H 0.3290 0.1389 1.0720
O1B O -0.0472(5) 0.1750(4) 0.8289(13)
O2B O -0.0556(6) 0.2358(4) 0.6361(14)
O2C O 0.4444(6) -0.2642(4) 0.6361(14)
O3 O 0.5000 0.5226(12) 0.2500
O4 O 0.0535(7) 0.0696(5) 0.585(2)
O5 O 0.0650(10) 0.3046(8) 1.093(2)
O6 O 0.0000 0.3679(19) 0.7500
O7 O 0.0000 0.474(3) 0.7500
C15 C 0.0000 0.531(3) 0.7500
O8 O 0.0000 0.5000 1.0000
O9? O 0.003(2) 0.1571(18) 1.352(5)
O10? O -0.001(2) 0.2225(15) 1.329(4)
C14? C -0.001(2) 0.2225(15) 1.329(4)
loop_
_geom_bond_atom_site_label_1
_geom_bond_atom_site_label_2
_geom_bond_site_symmetry_1
_geom_bond_site_symmetry_2
Ag1 N1 1_555 1_555
N1 C1 1_555 1_555
N2 C9 1_555 1_555
C1 H1 1_555 1_555
C2 C1 1_555 1_555
H2 C2 1_555 1_555
C3 C2 1_555 1_555
C4 C3 1_555 1_555
H3 C4 1_555 1_555
C5 N1 1_555 1_555
H4 C5 1_555 1_555
C6 C3 1_555 1_555
H5 C6 1_555 1_555
H6 C6 1_555 1_555
C7 C6 1_555 1_555
H7 C7 1_555 1_555
H8 C7 1_555 1_555
C8 C7 1_555 1_555
H9 C8 1_555 1_555
H10 C8 1_555 1_555
C9 H11 1_555 1_555
C10 C9 1_555 1_555
H12 C10 1_555 1_555
C11 C8 1_555 1_555
C12 C11 1_555 1_555
H13 C12 1_555 1_555
C13 N2 1_555 1_555
H14 C13 1_555 1_555
S1 O1 1_555 1_555
O2 Ag1 1_555 1_555
O7 C15 1_555 1_555
Ag1C Ag1F 1_555 1_555
Ag1E Ag1 1_555 1_555
Ag1C_2 N2 1_555 1_555
Ag1B O2B 1_555 1_555
N1C Ag1C 1_555 1_555
N2C Ag1 1_555 1_555
N2_2 Ag1C 1_555 1_555
C1C N1C 1_555 1_555
H1C C1C 1_555 1_555
C2C C1C 1_555 1_555
H2C C2C 1_555 1_555
C3C C2C 1_555 1_555
C4C C3C 1_555 1_555
H3C C4C 1_555 1_555
C5C N1C 1_555 1_555
H4C C5C 1_555 1_555
C6C C3C 1_555 1_555
H5C C6C 1_555 1_555
H6C C6C 1_555 1_555
C7C C6C 1_555 1_555
H7C C7C 1_555 1_555
H8C C7C 1_555 1_555
C8C C7C 1_555 1_555
H9C C8C 1_555 1_555
H10C C8C 1_555 1_555
C9C N2C 1_555 1_555
H11C C9C 1_555 1_555
C10C C9C 1_555 1_555
H12C C10C 1_555 1_555
C11C C8C 1_555 1_555
C12C C11C 1_555 1_555
H13C C12C 1_555 1_555
C13C N2C 1_555 1_555
H14C C13C 1_555 1_555
O1B S1 1_555 1_555
O2B S1 1_555 1_555
O2C Ag1C 1_555 1_555
C4 C5 1_555 1_555
C10 C11 1_555 1_555
C12 C13 1_555 1_555
S1 O2 1_555 1_555
C4C C5C 1_555 1_555
C10C C11C 1_555 1_555
C12C C13C 1_555 1_555

#END
