
#######################################################################
#
#                 Cambridge Crystallographic Data Centre
#                                CCDC 
#
#######################################################################
#
# If this CIF has been generated from an entry in the Cambridge 
# Structural Database, then it will include bibliographic, chemical, 
# crystal, experimental, refinement or atomic coordinate data resulting 
# from the CCDC's data processing and validation procedures.
#
#######################################################################

data_VEBXOP01
_symmetry_cell_setting           monoclinic
_symmetry_space_group_name_H-M   'P 21/c'
_symmetry_Int_Tables_number      14
_space_group_name_Hall           '-P 2ybc'
loop_
_symmetry_equiv_pos_site_id
_symmetry_equiv_pos_as_xyz
1 x,y,z
2 -x,1/2+y,1/2-z
3 -x,-y,-z
4 x,1/2-y,1/2+z
_cell_length_a                   9.004(3)
_cell_length_b                   10.171(4)
_cell_length_c                   19.748(4)
_cell_angle_alpha                90
_cell_angle_beta                 92.37(2)
_cell_angle_gamma                90
_cell_volume                     1806.97
loop_
_atom_site_label
_atom_site_type_symbol
_atom_site_fract_x
_atom_site_fract_y
_atom_site_fract_z
Sn1 Sn 0.08870(3) 0.70064(3) 0.73691(1)
Cl1 Cl 0.37206(13) 1.03877(13) 0.60462(6)
O1 O 0.20689(29) 0.86733(25) 0.69347(14)
O2 O 0.04565(30) 1.01562(26) 0.72682(13)
C1 C 0.1488(4) 0.9787(4) 0.6903(2)
C2 C 0.1979(5) 1.0745(4) 0.6373(2)
C3 C 0.2423(4) 0.5678(4) 0.6960(2)
C4 C 0.2155(5) 0.5070(4) 0.6341(2)
C5 C 0.3163(5) 0.4199(5) 0.6085(2)
C6 C 0.4473(5) 0.3930(5) 0.6444(3)
C7 C 0.4758(5) 0.4506(5) 0.7064(3)
C8 C 0.3747(5) 0.5382(5) 0.7307(2)
C9 C 0.1429(4) 0.7409(4) 0.8410(2)
C10 C 0.1873(5) 0.6365(4) 0.8821(2)
C11 C 0.2344(5) 0.6573(5) 0.9485(2)
C12 C 0.2385(5) 0.7816(5) 0.9753(2)
C13 C 0.1952(5) 0.8859(5) 0.9351(2)
C14 C 0.1490(5) 0.8661(4) 0.8681(2)
C15 C -0.0971(4) 0.7399(4) 0.6694(2)
C16 C -0.0672(5) 0.7634(4) 0.6019(2)
C17 C -0.1802(5) 0.7858(5) 0.5544(2)
C18 C -0.3253(6) 0.7842(5) 0.5725(3)
C19 C -0.3574(5) 0.7625(5) 0.6378(3)
C20 C -0.2442(5) 0.7404(5) 0.6872(2)
H1 H 0.1250 1.0741 0.6004
H2 H 0.2027 1.1605 0.6573
H3 H 0.1251 0.5257 0.6084
H4 H 0.2952 0.3779 0.5657
H5 H 0.5185 0.3341 0.6261
H6 H 0.5652 0.4300 0.7324
H7 H 0.3968 0.5804 0.7735
H8 H 0.1851 0.5488 0.8641
H9 H 0.2649 0.5840 0.9763
H10 H 0.2711 0.7956 1.0216
H11 H 0.1969 0.9733 0.9536
H12 H 0.1210 0.9401 0.8402
H13 H 0.033 0.7639 0.5883
H14 H -0.1572 0.8028 0.5081
H15 H -0.4038 0.7984 0.5389
H16 H -0.4593 0.7622 0.6504
H17 H -0.2686 0.7255 0.7334
O2A O -0.04565(30) 0.51562(26) 0.77318(13)
Sn1A Sn -0.08870(3) 1.20064(3) 0.76309(1)
loop_
_geom_bond_atom_site_label_1
_geom_bond_atom_site_label_2
_geom_bond_site_symmetry_1
_geom_bond_site_symmetry_2
Sn1 O1 1_555 1_555
Cl1 C2 1_555 1_555
O1 C1 1_555 1_555
O2 C1 1_555 1_555
C1 C2 1_555 1_555
C2 H1 1_555 1_555
C3 Sn1 1_555 1_555
C4 C3 1_555 1_555
C5 C4 1_555 1_555
C6 C5 1_555 1_555
C7 C6 1_555 1_555
C8 C3 1_555 1_555
C9 Sn1 1_555 1_555
C10 C9 1_555 1_555
C11 C10 1_555 1_555
C12 C11 1_555 1_555
C13 C12 1_555 1_555
C14 C9 1_555 1_555
C15 Sn1 1_555 1_555
C16 C15 1_555 1_555
C17 C16 1_555 1_555
C18 C17 1_555 1_555
C19 C18 1_555 1_555
C20 C15 1_555 1_555
H2 C2 1_555 1_555
H3 C4 1_555 1_555
H4 C5 1_555 1_555
H5 C6 1_555 1_555
H6 C7 1_555 1_555
H7 C8 1_555 1_555
H8 C10 1_555 1_555
H9 C11 1_555 1_555
H10 C12 1_555 1_555
H11 C13 1_555 1_555
H12 C14 1_555 1_555
H13 C16 1_555 1_555
H14 C17 1_555 1_555
H15 C18 1_555 1_555
H16 C19 1_555 1_555
H17 C20 1_555 1_555
O2A Sn1 1_555 1_555
Sn1A O2 1_555 1_555
C7 C8 1_555 1_555
C13 C14 1_555 1_555
C19 C20 1_555 1_555

#END
