
#######################################################################
#
#                 Cambridge Crystallographic Data Centre
#                                CCDC 
#
#######################################################################
#
# If this CIF has been generated from an entry in the Cambridge 
# Structural Database, then it will include bibliographic, chemical, 
# crystal, experimental, refinement or atomic coordinate data resulting 
# from the CCDC's data processing and validation procedures.
#
#######################################################################

data_VEBXOP
_symmetry_cell_setting           monoclinic
_symmetry_space_group_name_H-M   'P 21/c'
_symmetry_Int_Tables_number      14
_space_group_name_Hall           '-P 2ybc'
loop_
_symmetry_equiv_pos_site_id
_symmetry_equiv_pos_as_xyz
1 x,y,z
2 -x,1/2+y,1/2-z
3 -x,-y,-z
4 x,1/2-y,1/2+z
_cell_length_a                   9.022(3)
_cell_length_b                   10.217(3)
_cell_length_c                   19.780(5)
_cell_angle_alpha                90
_cell_angle_beta                 92.46(2)
_cell_angle_gamma                90
_cell_volume                     1821.6
loop_
_atom_site_label
_atom_site_type_symbol
_atom_site_fract_x
_atom_site_fract_y
_atom_site_fract_z
Sn1 Sn 0.0885 0.7010 0.2368
Cl1 Cl 0.3707(1) 1.0386(1) 0.10475(7)
O1 O 0.2064(3) 0.8683(3) 0.1940(2)
O2 O 0.0463(3) 1.0163(3) 0.2272(1)
C1 C 0.1480(4) 0.9811(4) 0.1912(2)
C2 C 0.1988(6) 1.0756(5) 0.1384(3)
C3 C 0.1429(4) 0.7418(4) 0.3406(2)
C4 C 0.1865(5) 0.6376(4) 0.3821(2)
C5 C 0.2346(6) 0.6571(5) 0.4489(3)
C6 C 0.2388(6) 0.7814(6) 0.4754(2)
C7 C 0.1971(6) 0.8857(5) 0.4347(2)
C8 C 0.1487(5) 0.8676(4) 0.3681(2)
C9 C 0.2412(4) 0.5682(3) 0.1959(2)
C10 C 0.2141(5) 0.5080(4) 0.1343(2)
C11 C 0.3156(6) 0.4214(5) 0.1080(3)
C12 C 0.4479(5) 0.3916(5) 0.1447(3)
C13 C 0.4767(5) 0.4526(6) 0.2057(3)
C14 C 0.3741(5) 0.5398(5) 0.2317(3)
C15 C -0.0963(4) 0.7403(4) 0.1696(2)
C16 C -0.0664(5) 0.7651(5) 0.1022(2)
C17 C -0.1797(7) 0.7858(5) 0.0541(3)
C18 C -0.3227(6) 0.7850(5) 0.0716(3)
C19 C -0.3576(6) 0.7608(7) 0.1376(4)
C20 C -0.2430(5) 0.7405(6) 0.1867(3)
O2A O -0.0463(3) 0.5163(3) 0.2728(1)
Sn1A Sn -0.0885 1.2010 0.2632
loop_
_geom_bond_atom_site_label_1
_geom_bond_atom_site_label_2
_geom_bond_site_symmetry_1
_geom_bond_site_symmetry_2
Sn1 O1 1_555 1_555
Cl1 C2 1_555 1_555
O1 C1 1_555 1_555
O2 C1 1_555 1_555
C1 C2 1_555 1_555
C3 Sn1 1_555 1_555
C4 C3 1_555 1_555
C5 C4 1_555 1_555
C6 C5 1_555 1_555
C7 C6 1_555 1_555
C8 C3 1_555 1_555
C9 Sn1 1_555 1_555
C10 C9 1_555 1_555
C11 C10 1_555 1_555
C12 C11 1_555 1_555
C13 C12 1_555 1_555
C14 C9 1_555 1_555
C15 Sn1 1_555 1_555
C16 C15 1_555 1_555
C17 C16 1_555 1_555
C18 C17 1_555 1_555
C19 C18 1_555 1_555
C20 C15 1_555 1_555
O2A Sn1 1_555 1_555
Sn1A O2 1_555 1_555
C7 C8 1_555 1_555
C13 C14 1_555 1_555
C19 C20 1_555 1_555

#END
