
#######################################################################
#
#                 Cambridge Crystallographic Data Centre
#                                CCDC 
#
#######################################################################
#
# If this CIF has been generated from an entry in the Cambridge 
# Structural Database, then it will include bibliographic, chemical, 
# crystal, experimental, refinement or atomic coordinate data resulting 
# from the CCDC's data processing and validation procedures.
#
#######################################################################

data_VECCUC
_symmetry_cell_setting           triclinic
_symmetry_space_group_name_H-M   'P -1'
_symmetry_Int_Tables_number      2
_space_group_name_Hall           '-P 1'
loop_
_symmetry_equiv_pos_site_id
_symmetry_equiv_pos_as_xyz
1 x,y,z
2 -x,-y,-z
_cell_length_a                   6.7725(3)
_cell_length_b                   8.4145(5)
_cell_length_c                   10.8428(7)
_cell_angle_alpha                99.127(3)
_cell_angle_beta                 106.607(4)
_cell_angle_gamma                110.102(3)
_cell_volume                     532.925
loop_
_atom_site_label
_atom_site_type_symbol
_atom_site_fract_x
_atom_site_fract_y
_atom_site_fract_z
U1 U -0.5000 0.0000 0.0000
Cs1 Cs 0.06654(8) 0.27525(6) 0.43286(4)
O1 O -0.3024(8) 0.2763(6) 0.1797(5)
O2 O -0.0914(8) 0.5643(6) 0.2809(5)
O3 O -0.5706(8) 0.0054(6) -0.2350(5)
O4 O -0.5771(8) 0.1228(7) -0.4066(5)
O5 O -0.2353(8) -0.0042(6) 0.0158(5)
O6 O 0.4200(9) 0.6797(7) 0.5740(5)
H1 H 0.4772 0.7423 0.6625
H2 H 0.4336 0.7428 0.5199
O7 O -0.0913(10) 0.0753(7) 0.6590(6)
H3 H 0.0272 0.1970 0.6900
H4 H -0.2212 0.1015 0.6307
N1 N -0.3660(10) 0.3080(7) -0.0566(6)
C1 C -0.2496(11) 0.4638(9) 0.0409(7)
C2 C -0.1859(13) 0.6225(10) 0.0161(7)
H5 H -0.1089 0.7261 0.0866
C3 C -0.2375(12) 0.6288(9) -0.1173(7)
H6 H -0.1955 0.7362 -0.1373
C4 C -0.3528(11) 0.4704(9) -0.2186(6)
H7 H -0.3911 0.4694 -0.3083
C5 C -0.4105(12) 0.3126(9) -0.1838(7)
C6 C -0.2052(12) 0.4376(9) 0.1797(7)
C7 C -0.5287(12) 0.1333(9) -0.2852(7)
Cs1A Cs -1.06654(8) -0.27525(6) -0.43286(4)
Cs1A_2 Cs -0.06654(8) -0.27525(6) 0.56714(4)
Cs1A_3 Cs -0.06654(8) 0.72475(6) 0.56714(4)
Cs1_2 Cs -0.93346(8) 0.27525(6) -0.56714(4)
Cs1A_4 Cs 0.93346(8) 0.72475(6) 0.56714(4)
Cs1_3 Cs -0.93346(8) -0.72475(6) -0.56714(4)
Cs1_4 Cs -0.93346(8) 0.27525(6) 0.43286(4)
O1A O -0.6976(8) -0.2763(6) -0.1797(5)
O2A O -0.9086(8) -0.5643(6) -0.2809(5)
O2A_2 O 0.0914(8) 0.4357(6) 0.7191(5)
O2_2 O -1.0914(8) -0.4357(6) -0.7191(5)
O3A O -0.4294(8) -0.0054(6) 0.2350(5)
O4A O -0.4229(8) -0.1228(7) 0.4066(5)
O4_2 O 0.4229(8) 0.1228(7) 0.5934(5)
O4A_2 O -1.4229(8) -0.1228(7) -0.5934(5)
O5A O -0.7647(8) 0.0042(6) -0.0158(5)
O6A O -0.4200(9) 0.3203(7) 0.4260(5)
O6A_2 O 0.5800(9) 0.3203(7) 0.4260(5)
O6_2 O -1.5800(9) -0.3203(7) -0.4260(5)
O6_3 O -0.5800(9) -0.3203(7) -0.4260(5)
O6A_3 O -1.4200(9) -0.6797(7) -0.5740(5)
H1A H -0.4772 0.2577 0.3375
H1A_2 H 0.5228 0.2577 0.3375
H1_2 H -1.5228 -0.2577 -0.3375
H1_3 H -0.5228 -0.2577 -0.3375
H1A_3 H -1.4772 -0.7423 -0.6625
H2A H -0.4336 0.2572 0.4801
H2A_2 H 0.5664 0.2572 0.4801
H2_2 H -1.5664 -0.2572 -0.4801
H2_3 H -0.5664 -0.2572 -0.4801
H2A_3 H -1.4336 -0.7428 -0.5199
O7A O 0.0913(10) -0.0753(7) 0.3410(6)
O7A_2 O -0.9087(10) -0.0753(7) -0.6590(6)
O7_2 O -1.0913(10) 0.0753(7) -0.3410(6)
H3A H -0.0272 -0.1970 0.3100
H3A_2 H -1.0272 -0.1970 -0.6900
H3_2 H -0.9728 0.1970 -0.3100
H4A H 0.2212 -0.1015 0.3693
H4A_2 H -0.7788 -0.1015 -0.6307
H4_2 H -1.2212 0.1015 -0.3693
N1A N -0.6340(10) -0.3080(7) 0.0566(6)
C1A C -0.7504(11) -0.4638(9) -0.0409(7)
C2A C -0.8141(13) -0.6225(10) -0.0161(7)
H5A H -0.8911 -0.7261 -0.0866
C3A C -0.7625(12) -0.6288(9) 0.1173(7)
H6A H -0.8045 -0.7362 0.1373
C4A C -0.6472(11) -0.4704(9) 0.2186(6)
H7A H -0.6089 -0.4694 0.3083
C5A C -0.5895(12) -0.3126(9) 0.1838(7)
C6A C -0.7948(12) -0.4376(9) -0.1797(7)
C7A C -0.4713(12) -0.1333(9) 0.2852(7)
loop_
_geom_bond_atom_site_label_1
_geom_bond_atom_site_label_2
_geom_bond_site_symmetry_1
_geom_bond_site_symmetry_2
U1 O1 1_555 1_555
Cs1 O1 1_555 1_555
O1 C6 1_555 1_555
O2 Cs1 1_555 1_555
O3 U1 1_555 1_555
O4 C7 1_555 1_555
O5 U1 1_555 1_555
O6 Cs1 1_555 1_555
H1 O6 1_555 1_555
H2 O6 1_555 1_555
O7 Cs1 1_555 1_555
H3 O7 1_555 1_555
H4 O7 1_555 1_555
N1 U1 1_555 1_555
C1 N1 1_555 1_555
C2 C1 1_555 1_555
H5 C2 1_555 1_555
C3 C2 1_555 1_555
H6 C3 1_555 1_555
C4 C3 1_555 1_555
H7 C4 1_555 1_555
C5 N1 1_555 1_555
C6 O2 1_555 1_555
C7 O3 1_555 1_555
Cs1A O3 1_555 1_555
Cs1A_2 O7 1_555 1_555
Cs1A_3 O2 1_555 1_555
Cs1_2 O4 1_555 1_555
Cs1A_4 O6 1_555 1_555
Cs1_3 O2A 1_555 1_555
Cs1_4 O6A 1_555 1_555
O1A U1 1_555 1_555
O2A Cs1A 1_555 1_555
O2A_2 Cs1 1_555 1_555
O2_2 Cs1A 1_555 1_555
O3A U1 1_555 1_555
O4A Cs1A_2 1_555 1_555
O4_2 Cs1 1_555 1_555
O4A_2 Cs1A 1_555 1_555
O5A U1 1_555 1_555
O6A Cs1 1_555 1_555
O6A_2 Cs1 1_555 1_555
O6_2 Cs1A 1_555 1_555
O6_3 Cs1A 1_555 1_555
O6A_3 Cs1A 1_555 1_555
H1A O6A 1_555 1_555
H1A_2 O6A_2 1_555 1_555
H1_2 O6_2 1_555 1_555
H1_3 O6_3 1_555 1_555
H1A_3 O6A_3 1_555 1_555
H2A O6A 1_555 1_555
H2A_2 O6A_2 1_555 1_555
H2_2 O6_2 1_555 1_555
H2_3 O6_3 1_555 1_555
H2A_3 O6A_3 1_555 1_555
O7A Cs1 1_555 1_555
O7A_2 Cs1A 1_555 1_555
O7_2 Cs1A 1_555 1_555
H3A O7A 1_555 1_555
H3A_2 O7A_2 1_555 1_555
H3_2 O7_2 1_555 1_555
H4A O7A 1_555 1_555
H4A_2 O7A_2 1_555 1_555
H4_2 O7_2 1_555 1_555
N1A U1 1_555 1_555
C1A N1A 1_555 1_555
C2A C1A 1_555 1_555
H5A C2A 1_555 1_555
C3A C2A 1_555 1_555
H6A C3A 1_555 1_555
C4A C3A 1_555 1_555
H7A C4A 1_555 1_555
C5A N1A 1_555 1_555
C6A O1A 1_555 1_555
C7A O3A 1_555 1_555
Cs1 O3A 1_555 1_555
O6 Cs1A_3 1_555 1_555
C1 C6 1_555 1_555
C4 C5 1_555 1_555
C5 C7 1_555 1_555
Cs1A O1A 1_555 1_555
Cs1A_2 O7A 1_555 1_555
Cs1A_3 O2A_2 1_555 1_555
Cs1A_3 O6A 1_555 1_555
Cs1_2 O7A_2 1_555 1_555
Cs1_2 O7_2 1_555 1_555
Cs1A_4 O6A_2 1_555 1_555
Cs1_3 O2_2 1_555 1_555
Cs1_3 O6_3 1_555 1_555
Cs1_3 O6A_3 1_555 1_555
O2A C6A 1_555 1_555
O4A C7A 1_555 1_555
C1A C6A 1_555 1_555
C4A C5A 1_555 1_555
C5A C7A 1_555 1_555

#END
