
#######################################################################
#
#                 Cambridge Crystallographic Data Centre
#                                CCDC 
#
#######################################################################
#
# If this CIF has been generated from an entry in the Cambridge 
# Structural Database, then it will include bibliographic, chemical, 
# crystal, experimental, refinement or atomic coordinate data resulting 
# from the CCDC's data processing and validation procedures.
#
#######################################################################

data_VECDOW01
_symmetry_cell_setting           monoclinic
_symmetry_space_group_name_H-M   'C 2/c'
_symmetry_Int_Tables_number      15
_space_group_name_Hall           '-C 2yn'
loop_
_symmetry_equiv_pos_site_id
_symmetry_equiv_pos_as_xyz
1 x,y,z
2 1/2+x,1/2+y,z
3 -x,y,1/2-z
4 1/2-x,1/2+y,1/2-z
5 -x,-y,-z
6 1/2-x,1/2-y,-z
7 x,-y,1/2+z
8 1/2+x,1/2-y,1/2+z
_cell_length_a                   6.698(1)
_cell_length_b                   13.142(2)
_cell_length_c                   20.668(5)
_cell_angle_alpha                90
_cell_angle_beta                 96.77(2)
_cell_angle_gamma                90
_cell_volume                     1806.62
loop_
_atom_site_label
_atom_site_type_symbol
_atom_site_fract_x
_atom_site_fract_y
_atom_site_fract_z
Bi1 Bi 0.5000 0.55545(1) 0.2500
S1 S 0.3592(1) 0.70450(7) 0.14924(5)
S2 S 0.2159(2) 0.40503(9) 0.20608(6)
S3 S 0.5097(2) 0.35231(7) 0.02692(2)
S4 S 0.2733(2) 0.3150(1) 0.07803(6)
S5 S 0.1583(4) 0.6466(2) 0.3007(1)
N1 N 0.1558(5) 0.5804(3) 0.0512(2)
N2 N 0.5224(5) 0.4462(2) 0.14154(2)
N3 N 0.7853(5) 0.4799(3) 0.0817(2)
N4 N 0.167(3) 0.603(1) 0.295(1)
C1 C 0.2381(5) 0.6294(3) 0.0928(2)
C2 C 0.3533(6) 0.3934(3) 0.1438(2)
C3 C 0.6180(6) 0.4336(3) 0.0887(2)
C4 C 0.0000 0.6249(4) 0.2500
H1 H 0.844(8) 0.475(4) 0.045(3)
H2 H 0.841(8) 0.517(4) 0.110(3)
S5B S -0.1583(4) 0.6466(2) 0.1993(1)
N4B N -0.167(3) 0.603(1) 0.205(1)
S1B S 0.6408(1) 0.70450(7) 0.35076(5)
N1B N 0.8442(5) 0.5804(3) 0.4488(2)
C1B C 0.7619(5) 0.6294(3) 0.4072(2)
S2B S 0.7841(2) 0.40503(9) 0.29392(6)
S3B S 0.4903(2) 0.35231(7) 0.47308(2)
S4B S 0.7267(2) 0.3150(1) 0.42197(6)
N2B N 0.4776(5) 0.4462(2) 0.35846(2)
N3B N 0.2147(5) 0.4799(3) 0.4183(2)
C2B C 0.6467(6) 0.3934(3) 0.3562(2)
C3B C 0.3820(6) 0.4336(3) 0.4113(2)
H1B H 0.156(8) 0.475(4) 0.455(3)
H2B H 0.159(8) 0.517(4) 0.390(3)
S5B_2 S 0.8417(4) 0.6466(2) 0.1993(1)
N4B_2 N 0.833(3) 0.603(1) 0.205(1)
Bi1_2 Bi -0.5000 0.55545(1) 0.2500
loop_
_geom_bond_atom_site_label_1
_geom_bond_atom_site_label_2
_geom_bond_site_symmetry_1
_geom_bond_site_symmetry_2
Bi1 S1 1_555 1_555
S1 C1 1_555 1_555
S2 Bi1 1_555 1_555
S3 S4 1_555 1_555
S4 C2 1_555 1_555
S5 Bi1 1_555 1_555
N1 C1 1_555 1_555
N2 Bi1 1_555 1_555
N3 C3 1_555 1_555
N4 Bi1 1_555 1_555
C2 S2 1_555 1_555
C3 S3 1_555 1_555
C4 S5 1_555 1_555
H1 N3 1_555 1_555
H2 N3 1_555 1_555
S5B C4 1_555 1_555
N4B C4 1_555 1_555
S1B Bi1 1_555 1_555
N1B C1B 1_555 1_555
C1B S1B 1_555 1_555
S2B Bi1 1_555 1_555
S3B S4B 1_555 1_555
S4B C2B 1_555 1_555
N2B Bi1 1_555 1_555
N3B C3B 1_555 1_555
C2B S2B 1_555 1_555
C3B S3B 1_555 1_555
H1B N3B 1_555 1_555
H2B N3B 1_555 1_555
S5B_2 Bi1 1_555 1_555
N4B_2 Bi1 1_555 1_555
Bi1_2 S5B 1_555 1_555
S5 N4 1_555 1_555
N2 C3 1_555 1_555
N2 C2 1_555 1_555
N4 C4 1_555 1_555
S5B N4B 1_555 1_555
N4B Bi1_2 1_555 1_555
N2B C3B 1_555 1_555
N2B C2B 1_555 1_555
S5B_2 N4B_2 1_555 1_555

#END
