
#######################################################################
#
#                 Cambridge Crystallographic Data Centre
#                                CCDC 
#
#######################################################################
#
# If this CIF has been generated from an entry in the Cambridge 
# Structural Database, then it will include bibliographic, chemical, 
# crystal, experimental, refinement or atomic coordinate data resulting 
# from the CCDC's data processing and validation procedures.
#
#######################################################################

data_VECDIR
_symmetry_cell_setting           triclinic
_symmetry_space_group_name_H-M   'P -1'
_symmetry_Int_Tables_number      2
_space_group_name_Hall           '-P 1'
loop_
_symmetry_equiv_pos_site_id
_symmetry_equiv_pos_as_xyz
1 x,y,z
2 -x,-y,-z
_cell_length_a                   8.1436(2)
_cell_length_b                   9.4498(2)
_cell_length_c                   12.3898(4)
_cell_angle_alpha                72.8132(9)
_cell_angle_beta                 76.3392(9)
_cell_angle_gamma                82.1612(13)
_cell_volume                     882.838
loop_
_atom_site_label
_atom_site_type_symbol
_atom_site_fract_x
_atom_site_fract_y
_atom_site_fract_z
Mn1 Mn 0.19524(3) -0.09476(2) 0.00478(2)
N1 N 0.32801(16) -0.27455(14) -0.08165(12)
N2 N 0.08514(15) -0.31356(14) 0.11354(11)
N3 N 0.35558(18) 0.07211(17) -0.12448(14)
N4 N 0.49004(16) 0.09742(13) -0.12024(11)
N5 N 0.62441(18) 0.12642(17) -0.12073(13)
N6 N 0.01533(16) 0.05104(14) 0.09212(12)
N7 N 0.05122(18) 0.13114(15) 0.14077(12)
N8 N 0.0839(3) 0.2075(2) 0.18872(17)
C1 C 0.4535(2) -0.2590(2) -0.17409(16)
H1 H 0.4949 -0.1657 -0.2093
C2 C 0.5252(3) -0.3750(2) -0.22015(17)
H2 H 0.6139 -0.3600 -0.2844
C3 C 0.4642(3) -0.5118(2) -0.17020(17)
H3 H 0.5096 -0.5910 -0.2006
C4 C 0.3344(2) -0.5312(2) -0.07412(17)
H4 H 0.2911 -0.6237 -0.0386
C5 C 0.2695(2) -0.41041(17) -0.03135(15)
C6 C 0.1365(2) -0.42432(17) 0.07357(15)
H5 H 0.0896 -0.5150 0.1109
C7 C -0.0398(2) -0.33165(18) 0.22233(14)
H6 H -0.0938 -0.4236 0.2405
H7 H -0.1266 -0.2502 0.2147
C8 C 0.0466(2) -0.33423(19) 0.31875(15)
H8 H 0.1351 -0.2653 0.2881
H9 H 0.1002 -0.4328 0.3449
C9 C -0.0719(2) -0.2940(2) 0.42210(15)
H10 H -0.1725 -0.3488 0.4432
H11 H -0.0160 -0.3243 0.4872
C10 C -0.1245(2) -0.12900(19) 0.39847(15)
H12 H -0.0235 -0.0744 0.3677
H13 H -0.1920 -0.1019 0.3395
C11 C -0.2252(2) -0.0811(2) 0.50313(16)
H14 H -0.1596 -0.1104 0.5632
H15 H -0.3287 -0.1325 0.5325
C12 C -0.2702(2) 0.0852(2) 0.47672(17)
H16 H -0.3356 0.1142 0.4165
H17 H -0.1666 0.1363 0.4471
C13 C -0.3713(3) 0.1355(2) 0.58087(18)
H18 H -0.4748 0.0842 0.6109
H19 H -0.3057 0.1077 0.6409
C14 C -0.4161(3) 0.3013(3) 0.5524(2)
H20 H -0.3143 0.3528 0.5214
H21 H -0.4756 0.3275 0.6213
H22 H -0.4869 0.3287 0.4965
Mn1A Mn 0.80476(3) 0.09476(2) -0.00478(2)
Mn1A_2 Mn -0.19524(3) 0.09476(2) -0.00478(2)
N5A N 0.37559(18) -0.12642(17) 0.12073(13)
N6A N -0.01533(16) -0.05104(14) -0.09212(12)
loop_
_geom_bond_atom_site_label_1
_geom_bond_atom_site_label_2
_geom_bond_site_symmetry_1
_geom_bond_site_symmetry_2
Mn1 N1 1_555 1_555
N1 C1 1_555 1_555
N2 Mn1 1_555 1_555
N3 Mn1 1_555 1_555
N4 N3 1_555 1_555
N5 N4 1_555 1_555
N6 Mn1 1_555 1_555
N7 N6 1_555 1_555
N8 N7 1_555 1_555
C1 H1 1_555 1_555
C2 C1 1_555 1_555
H2 C2 1_555 1_555
C3 C2 1_555 1_555
H3 C3 1_555 1_555
C4 C3 1_555 1_555
H4 C4 1_555 1_555
C5 N1 1_555 1_555
C6 N2 1_555 1_555
H5 C6 1_555 1_555
C7 N2 1_555 1_555
H6 C7 1_555 1_555
H7 C7 1_555 1_555
C8 C7 1_555 1_555
H8 C8 1_555 1_555
H9 C8 1_555 1_555
C9 C8 1_555 1_555
H10 C9 1_555 1_555
H11 C9 1_555 1_555
C10 C9 1_555 1_555
H12 C10 1_555 1_555
H13 C10 1_555 1_555
C11 C10 1_555 1_555
H14 C11 1_555 1_555
H15 C11 1_555 1_555
C12 C11 1_555 1_555
H16 C12 1_555 1_555
H17 C12 1_555 1_555
C13 C12 1_555 1_555
H18 C13 1_555 1_555
H19 C13 1_555 1_555
C14 C13 1_555 1_555
H20 C14 1_555 1_555
H21 C14 1_555 1_555
H22 C14 1_555 1_555
Mn1A N5 1_555 1_555
Mn1A_2 N6 1_555 1_555
N5A Mn1 1_555 1_555
N6A Mn1 1_555 1_555
C4 C5 1_555 1_555
C5 C6 1_555 1_555
Mn1A_2 N6A 1_555 1_555

#END
