
#######################################################################
#
#                 Cambridge Crystallographic Data Centre
#                                CCDC 
#
#######################################################################
#
# If this CIF has been generated from an entry in the Cambridge 
# Structural Database, then it will include bibliographic, chemical, 
# crystal, experimental, refinement or atomic coordinate data resulting 
# from the CCDC's data processing and validation procedures.
#
#######################################################################

data_VECFOA
_symmetry_cell_setting           triclinic
_symmetry_space_group_name_H-M   'P -1'
_symmetry_Int_Tables_number      2
_space_group_name_Hall           '-P 1'
loop_
_symmetry_equiv_pos_site_id
_symmetry_equiv_pos_as_xyz
1 x,y,z
2 -x,-y,-z
_cell_length_a                   11.3591(13)
_cell_length_b                   13.2282(14)
_cell_length_c                   17.9891(17)
_cell_angle_alpha                70.218(2)
_cell_angle_beta                 86.768(3)
_cell_angle_gamma                72.651(2)
_cell_volume                     2424.83
loop_
_atom_site_label
_atom_site_type_symbol
_atom_site_fract_x
_atom_site_fract_y
_atom_site_fract_z
C1 C -0.6643(4) 0.2676(4) 0.2347(3)
C2 C -0.3002(5) 0.2438(4) 0.2472(3)
C3 C -0.4542(4) 0.2357(4) 0.1324(3)
C4 C -0.4459(5) 0.0778(5) 0.2812(3)
C5 C -0.5068(5) 0.2470(4) 0.3583(3)
C6 C -0.5256(5) 0.4148(4) 0.1992(3)
C7 C 0.1207(5) 0.5448(5) 0.1878(3)
H1 H 0.1847 0.4986 0.2251
C8 C 0.1136(5) 0.6484(5) 0.1605(3)
H2 H 0.1633 0.6751 0.1838
C9 C 0.0349(5) 0.7220(5) 0.0978(3)
H3 H 0.0360 0.7959 0.0733
C10 C -0.0519(4) 0.6755(4) 0.0721(3)
C11 C -0.1391(5) 0.7412(4) 0.0091(3)
H4 H -0.1505 0.8182 -0.0130
C12 C -0.2093(5) 0.6906(4) -0.0209(3)
H5 H -0.2670 0.7345 -0.0627
C13 C -0.1932(4) 0.5750(4) 0.0116(3)
C14 C -0.2583(5) 0.5202(5) -0.0211(3)
H6 H -0.3113 0.5615 -0.0657
C15 C -0.2431(5) 0.4136(4) 0.0116(3)
H7 H -0.2840 0.3778 -0.0098
C16 C -0.1639(5) 0.3516(4) 0.0800(3)
H8 H -0.1569 0.2757 0.1048
C17 C -0.1075(4) 0.5096(4) 0.0751(3)
C18 C -0.0380(5) 0.5602(4) 0.1050(3)
C19 C 0.1598(5) 0.3618(4) 0.3975(3)
H9 H 0.2122 0.2914 0.4002
C20 C 0.1989(5) 0.4205(5) 0.4419(3)
H10 H 0.2677 0.3855 0.4770
C21 C 0.1304(5) 0.5296(5) 0.4299(3)
H11 H 0.1601 0.5753 0.4486
C22 C 0.0152(5) 0.5714(4) 0.3893(3)
C23 C -0.0581(5) 0.6802(5) 0.3827(3)
H12 H -0.0348 0.7210 0.4092
C24 C -0.1673(5) 0.7260(4) 0.3350(3)
H13 H -0.2164 0.7987 0.3290
C25 C -0.2038(5) 0.6632(4) 0.2959(3)
C26 C -0.3210(5) 0.7105(5) 0.2441(3)
H14 H -0.3685 0.7852 0.2319
C27 C -0.3553(5) 0.6349(5) 0.2146(3)
H15 H -0.4333 0.6546 0.1909
C28 C -0.2688(5) 0.5304(5) 0.2222(3)
H16 H -0.2870 0.4851 0.1974
C29 C -0.1304(5) 0.5543(4) 0.3032(3)
C30 C -0.0211(4) 0.5081(4) 0.3497(3)
C31 C 0.2322(5) 0.0746(4) 0.3781(3)
H17 H 0.2565 0.0809 0.3269
C32 C 0.3179(5) 0.0010(5) 0.4433(3)
H18 H 0.3968 -0.0390 0.4346
C33 C 0.2777(5) -0.0100(4) 0.5252(3)
H19 H 0.3302 -0.0514 0.5699
C34 C 0.1489(5) 0.0499(4) 0.5285(3)
C35 C 0.1004(6) 0.0333(4) 0.6040(3)
H20 H 0.1507 -0.0152 0.6485
C36 C -0.0214(5) 0.0881(5) 0.6128(3)
H21 H -0.0528 0.0766 0.6629
C37 C -0.0972(5) 0.1617(4) 0.5451(3)
C38 C -0.2227(5) 0.2133(5) 0.5523(3)
H22 H -0.2622 0.1957 0.5996
C39 C -0.2857(6) 0.2979(5) 0.4781(3)
H23 H -0.3658 0.3439 0.4773
C40 C -0.2253(5) 0.3060(4) 0.4132(3)
H24 H -0.2723 0.3568 0.3679
C41 C -0.0473(5) 0.1776(4) 0.4699(3)
C42 C 0.0758(5) 0.1222(4) 0.4610(3)
Cr1 Cr -0.48205(7) 0.24716(6) 0.24043(5)
N1 N -0.7820(4) 0.2830(4) 0.2308(2)
N2 N -0.1988(4) 0.2476(4) 0.2543(3)
N3 N -0.4435(4) 0.2206(4) 0.0691(3)
N4 N -0.4321(4) -0.0193(4) 0.3053(3)
N5 N -0.5218(5) 0.2407(4) 0.4219(3)
N6 N -0.5563(5) 0.5146(4) 0.1696(3)
N7 N 0.0468(4) 0.4952(4) 0.1689(2)
N8 N -0.0961(4) 0.4014(4) 0.1114(3)
N9 N 0.0578(4) 0.3987(4) 0.3542(3)
N10 N -0.1650(4) 0.4948(4) 0.2623(3)
N11 N 0.1232(4) 0.1318(3) 0.3881(2)
N12 N -0.1174(4) 0.2595(4) 0.3998(3)
Pr1 Pr -0.00161(3) 0.30390(2) 0.262220(16)
O1 O 0.0632(3) 0.1441(3) 0.2042(2)
H25 H 0.1305 0.1535 0.1690
H26 H -0.0059 0.1453 0.1747
N1_2 N 0.2180(4) 0.2830(4) 0.2308(2)
Pr1_2 Pr -1.00161(3) 0.30390(2) 0.262220(16)
O2 O -0.6778(8) 1.0087(7) 0.2171(5)
H27 H -0.6079 1.0215 0.2157
H28 H -0.6718 0.9553 0.1986
O3 O -0.0089(8) 1.0017(6) 0.1627(4)
H29 H -0.0844 1.0025 0.1689
H30 H 0.0278 0.9520 0.1416
O4 O -0.2519(10) -0.0123(8) 0.1082(5)
H31 H -0.1860 0.0082 0.1011
H32 H -0.3022 0.0274 0.0686
O5 O -0.4854(9) 0.9410(7) 0.0826(6)
H33 H -0.5457 1.0006 0.0742
H34 H -0.4782 0.9182 0.0424
O6 O -0.6207(9) 0.8285(7) 0.2782(6)
H35 H -0.5895 0.8538 0.2334
H36 H -0.6873 0.8147 0.2706
O7 O -0.8233(8) 0.9396(8) 0.0633(6)
H37 H -0.7821 0.9181 0.1071
H38 H -0.7869 0.9004 0.0343
O8 O -0.5294(9) 0.5361(9) 0.3772(6)
H39 H -0.5677 0.5886 0.3364
H40 H -0.5639 0.5458 0.4194
loop_
_geom_bond_atom_site_label_1
_geom_bond_atom_site_label_2
_geom_bond_site_symmetry_1
_geom_bond_site_symmetry_2
C1 Cr1 1_555 1_555
C2 Cr1 1_555 1_555
C3 Cr1 1_555 1_555
C4 Cr1 1_555 1_555
C5 Cr1 1_555 1_555
C6 Cr1 1_555 1_555
C7 H1 1_555 1_555
C8 C7 1_555 1_555
H2 C8 1_555 1_555
C9 C8 1_555 1_555
H3 C9 1_555 1_555
C10 C9 1_555 1_555
C11 C10 1_555 1_555
H4 C11 1_555 1_555
C12 C11 1_555 1_555
H5 C12 1_555 1_555
C13 C12 1_555 1_555
C14 C13 1_555 1_555
H6 C14 1_555 1_555
C15 C14 1_555 1_555
H7 C15 1_555 1_555
C16 C15 1_555 1_555
H8 C16 1_555 1_555
C17 C13 1_555 1_555
C18 C10 1_555 1_555
C19 H9 1_555 1_555
C20 C19 1_555 1_555
H10 C20 1_555 1_555
C21 C20 1_555 1_555
H11 C21 1_555 1_555
C22 C21 1_555 1_555
C23 C22 1_555 1_555
H12 C23 1_555 1_555
C24 C23 1_555 1_555
H13 C24 1_555 1_555
C25 C24 1_555 1_555
C26 C25 1_555 1_555
H14 C26 1_555 1_555
C27 C26 1_555 1_555
H15 C27 1_555 1_555
C28 C27 1_555 1_555
H16 C28 1_555 1_555
C29 C25 1_555 1_555
C30 C22 1_555 1_555
C31 H17 1_555 1_555
C32 C31 1_555 1_555
H18 C32 1_555 1_555
C33 C32 1_555 1_555
H19 C33 1_555 1_555
C34 C33 1_555 1_555
C35 C34 1_555 1_555
H20 C35 1_555 1_555
C36 C35 1_555 1_555
H21 C36 1_555 1_555
C37 C36 1_555 1_555
C38 C37 1_555 1_555
H22 C38 1_555 1_555
C39 C38 1_555 1_555
H23 C39 1_555 1_555
C40 C39 1_555 1_555
H24 C40 1_555 1_555
C41 C37 1_555 1_555
C42 C34 1_555 1_555
N1 C1 1_555 1_555
N2 C2 1_555 1_555
N3 C3 1_555 1_555
N4 C4 1_555 1_555
N5 C5 1_555 1_555
N6 C6 1_555 1_555
N7 C7 1_555 1_555
N8 C16 1_555 1_555
N9 C19 1_555 1_555
N10 C28 1_555 1_555
N11 C31 1_555 1_555
N12 C40 1_555 1_555
Pr1 N2 1_555 1_555
O1 Pr1 1_555 1_555
H25 O1 1_555 1_555
H26 O1 1_555 1_555
O2 H27 1_555 1_555
H28 O2 1_555 1_555
O3 H29 1_555 1_555
H30 O3 1_555 1_555
O4 H31 1_555 1_555
H32 O4 1_555 1_555
O5 H33 1_555 1_555
H34 O5 1_555 1_555
O6 H35 1_555 1_555
H36 O6 1_555 1_555
O7 H37 1_555 1_555
H38 O7 1_555 1_555
O8 H39 1_555 1_555
H40 O8 1_555 1_555
N1_2 Pr1 1_555 1_555
Pr1_2 N1 1_555 1_555
C17 C18 1_555 1_555
C17 N8 1_555 1_555
C18 N7 1_555 1_555
C29 C30 1_555 1_555
C29 N10 1_555 1_555
C30 N9 1_555 1_555
C41 C42 1_555 1_555
C41 N12 1_555 1_555
C42 N11 1_555 1_555
N7 Pr1 1_555 1_555
N8 Pr1 1_555 1_555
N9 Pr1 1_555 1_555
N10 Pr1 1_555 1_555
N11 Pr1 1_555 1_555
N12 Pr1 1_555 1_555

#END
