
#######################################################################
#
#                 Cambridge Crystallographic Data Centre
#                                CCDC 
#
#######################################################################
#
# If this CIF has been generated from an entry in the Cambridge 
# Structural Database, then it will include bibliographic, chemical, 
# crystal, experimental, refinement or atomic coordinate data resulting 
# from the CCDC's data processing and validation procedures.
#
#######################################################################

data_VECGAN
_symmetry_cell_setting           triclinic
_symmetry_space_group_name_H-M   'P -1'
_symmetry_Int_Tables_number      2
_space_group_name_Hall           '-P 1'
loop_
_symmetry_equiv_pos_site_id
_symmetry_equiv_pos_as_xyz
1 x,y,z
2 -x,-y,-z
_cell_length_a                   11.3530(17)
_cell_length_b                   13.2230(18)
_cell_length_c                   17.8240(11)
_cell_angle_alpha                70.495(2)
_cell_angle_beta                 86.470(3)
_cell_angle_gamma                72.451(3)
_cell_volume                     2402.53
loop_
_atom_site_label
_atom_site_type_symbol
_atom_site_fract_x
_atom_site_fract_y
_atom_site_fract_z
C1 C 0.3364(4) 0.2669(4) 0.2343(3)
C2 C 0.6999(4) 0.2432(4) 0.2476(3)
C3 C 0.5463(4) 0.2352(4) 0.1324(2)
C4 C 0.5534(4) 0.0779(4) 0.2812(3)
C5 C 0.4940(4) 0.2467(4) 0.3583(3)
C6 C 0.4738(4) 0.4144(4) 0.1990(3)
C7 C 0.1205(4) 0.5445(4) 0.1885(3)
H1 H 0.1835 0.4979 0.2264
C8 C 0.1142(4) 0.6485(4) 0.1610(3)
H2 H 0.1646 0.6750 0.1841
C9 C 0.0346(4) 0.7220(4) 0.0982(3)
H3 H 0.0357 0.7958 0.0735
C10 C -0.0532(3) 0.6756(4) 0.0722(3)
C11 C -0.1394(4) 0.7411(4) 0.0094(2)
H4 H -0.1510 0.8181 -0.0124
C12 C -0.2085(4) 0.6904(4) -0.0208(3)
H5 H -0.2649 0.7340 -0.0634
C13 C -0.1940(4) 0.5752(4) 0.0122(2)
C14 C -0.2582(4) 0.5202(4) -0.0211(3)
H6 H -0.3111 0.5613 -0.0659
C15 C -0.2420(4) 0.4133(4) 0.0116(3)
H7 H -0.2820 0.3773 -0.0105
C16 C -0.1644(4) 0.3519(4) 0.0799(3)
H8 H -0.1580 0.2764 0.1051
C17 C -0.1081(3) 0.5100(3) 0.0753(2)
C18 C -0.0379(4) 0.5613(4) 0.1049(3)
C19 C 0.1597(4) 0.3622(4) 0.3971(2)
H9 H 0.2125 0.2922 0.3990
C20 C 0.1987(4) 0.4202(4) 0.4420(2)
H10 H 0.2666 0.3848 0.4778
C21 C 0.1306(4) 0.5304(4) 0.4294(2)
H11 H 0.1613 0.5767 0.4471
C22 C 0.0146(4) 0.5718(4) 0.3896(3)
C23 C -0.0581(4) 0.6803(4) 0.3819(3)
H12 H -0.0337 0.7221 0.4074
C24 C -0.1679(4) 0.7259(4) 0.3356(3)
H13 H -0.2178 0.7981 0.3308
C25 C -0.2034(4) 0.6631(4) 0.2960(3)
C26 C -0.3209(4) 0.7096(4) 0.2447(3)
H14 H -0.3690 0.7841 0.2331
C27 C -0.3550(4) 0.6345(4) 0.2148(3)
H15 H -0.4326 0.6546 0.1904
C28 C -0.2687(4) 0.5297(4) 0.2230(3)
H16 H -0.2872 0.4835 0.1989
C29 C -0.1305(4) 0.5553(4) 0.3035(3)
C30 C -0.0212(4) 0.5082(4) 0.3503(3)
C31 C 0.2332(4) 0.0742(4) 0.3790(3)
H17 H 0.2588 0.0807 0.3275
C32 C 0.3175(4) 0.0016(4) 0.4436(3)
H18 H 0.3967 -0.0381 0.4346
C33 C 0.2773(4) -0.0096(4) 0.5253(3)
H19 H 0.3298 -0.0504 0.5702
C34 C 0.1488(4) 0.0489(4) 0.5287(3)
C35 C 0.1005(5) 0.0334(4) 0.6045(3)
H20 H 0.1508 -0.0140 0.6494
C36 C -0.0221(5) 0.0883(4) 0.6129(3)
H21 H -0.0545 0.0769 0.6633
C37 C -0.0964(4) 0.1607(4) 0.5456(3)
C38 C -0.2218(4) 0.2140(4) 0.5519(3)
H22 H -0.2615 0.1970 0.5997
C39 C -0.2871(5) 0.2989(4) 0.4777(3)
H23 H -0.3676 0.3447 0.4772
C40 C -0.2252(4) 0.3058(4) 0.4133(3)
H24 H -0.2712 0.3566 0.3676
C41 C -0.0473(4) 0.1776(3) 0.4696(2)
C42 C 0.0749(4) 0.1218(4) 0.4613(3)
Cr1 Cr 0.51824(6) 0.24719(6) 0.24024(4)
N1 N 0.2171(3) 0.2836(3) 0.2308(2)
N2 N 0.8019(3) 0.2470(3) 0.2538(2)
N3 N 0.5562(3) 0.2217(3) 0.0690(2)
N4 N 0.5679(3) -0.0189(3) 0.3053(2)
N5 N 0.4783(4) 0.2408(4) 0.4211(2)
N6 N 0.4428(4) 0.5147(3) 0.1695(2)
N7 N 0.0463(3) 0.4960(3) 0.1684(2)
N8 N -0.0965(4) 0.4021(3) 0.1110(2)
N9 N 0.0585(4) 0.3990(3) 0.3546(2)
N10 N -0.1645(3) 0.4947(3) 0.2626(2)
N11 N 0.1230(3) 0.1314(3) 0.3883(2)
N12 N -0.1180(3) 0.2590(3) 0.4001(2)
Ce1 Ce -0.00151(2) 0.30388(2) 0.262310(14)
O1 O 0.0635(3) 0.1443(3) 0.2035(2)
H25 H -0.0055 0.1169 0.2027
H26 H 0.1305 0.0844 0.2356
N2_2 N -0.1981(3) 0.2470(3) 0.2538(2)
Ce1_2 Ce 0.99849(2) 0.30388(2) 0.262310(14)
O2 O 0.3211(7) 1.0096(6) 0.2168(4)
H27 H 0.3910 1.0224 0.2154
H28 H 0.3271 0.9562 0.1983
O3 O 0.9906(7) 1.0021(6) 0.1628(4)
H29 H 0.9151 1.0029 0.1690
H30 H 1.0273 0.9524 0.1416
O4 O 0.7459(8) -0.0118(7) 0.1079(5)
H31 H 0.8118 0.0087 0.1009
H32 H 0.6955 0.0279 0.0684
O5 O 0.5126(7) 0.9417(6) 0.0821(4)
H33 H 0.4523 1.0013 0.0738
H34 H 0.5199 0.9189 0.0419
O6 O 0.3792(7) 0.8301(6) 0.2774(4)
H35 H 0.4105 0.8554 0.2326
H36 H 0.3126 0.8164 0.2698
O7 O 0.1771(7) 0.9396(7) 0.0632(5)
H37 H 0.2182 0.9181 0.1070
H38 H 0.2134 0.9004 0.0342
O8 O 0.4704(7) 0.5345(8) 0.3781(5)
H39 H 0.4321 0.5871 0.3373
H40 H 0.4359 0.5442 0.4203
loop_
_geom_bond_atom_site_label_1
_geom_bond_atom_site_label_2
_geom_bond_site_symmetry_1
_geom_bond_site_symmetry_2
C1 Cr1 1_555 1_555
C2 Cr1 1_555 1_555
C3 Cr1 1_555 1_555
C4 Cr1 1_555 1_555
C5 Cr1 1_555 1_555
C6 Cr1 1_555 1_555
C7 H1 1_555 1_555
C8 C7 1_555 1_555
H2 C8 1_555 1_555
C9 C8 1_555 1_555
H3 C9 1_555 1_555
C10 C9 1_555 1_555
C11 C10 1_555 1_555
H4 C11 1_555 1_555
C12 C11 1_555 1_555
H5 C12 1_555 1_555
C13 C12 1_555 1_555
C14 C13 1_555 1_555
H6 C14 1_555 1_555
C15 C14 1_555 1_555
H7 C15 1_555 1_555
C16 C15 1_555 1_555
H8 C16 1_555 1_555
C17 C13 1_555 1_555
C18 C10 1_555 1_555
C19 H9 1_555 1_555
C20 C19 1_555 1_555
H10 C20 1_555 1_555
C21 C20 1_555 1_555
H11 C21 1_555 1_555
C22 C21 1_555 1_555
C23 C22 1_555 1_555
H12 C23 1_555 1_555
C24 C23 1_555 1_555
H13 C24 1_555 1_555
C25 C24 1_555 1_555
C26 C25 1_555 1_555
H14 C26 1_555 1_555
C27 C26 1_555 1_555
H15 C27 1_555 1_555
C28 C27 1_555 1_555
H16 C28 1_555 1_555
C29 C25 1_555 1_555
C30 C22 1_555 1_555
C31 H17 1_555 1_555
C32 C31 1_555 1_555
H18 C32 1_555 1_555
C33 C32 1_555 1_555
H19 C33 1_555 1_555
C34 C33 1_555 1_555
C35 C34 1_555 1_555
H20 C35 1_555 1_555
C36 C35 1_555 1_555
H21 C36 1_555 1_555
C37 C36 1_555 1_555
C38 C37 1_555 1_555
H22 C38 1_555 1_555
C39 C38 1_555 1_555
H23 C39 1_555 1_555
C40 C39 1_555 1_555
H24 C40 1_555 1_555
C41 C37 1_555 1_555
C42 C34 1_555 1_555
N1 C1 1_555 1_555
N2 C2 1_555 1_555
N3 C3 1_555 1_555
N4 C4 1_555 1_555
N5 C5 1_555 1_555
N6 C6 1_555 1_555
N7 C7 1_555 1_555
N8 C16 1_555 1_555
N9 C19 1_555 1_555
N10 C28 1_555 1_555
N11 C31 1_555 1_555
N12 C40 1_555 1_555
Ce1 N1 1_555 1_555
O1 Ce1 1_555 1_555
H25 O1 1_555 1_555
H26 O1 1_555 1_555
O2 H27 1_555 1_555
H28 O2 1_555 1_555
O3 H29 1_555 1_555
H30 O3 1_555 1_555
O4 H31 1_555 1_555
H32 O4 1_555 1_555
O5 H33 1_555 1_555
H34 O5 1_555 1_555
O6 H35 1_555 1_555
H36 O6 1_555 1_555
O7 H37 1_555 1_555
H38 O7 1_555 1_555
O8 H39 1_555 1_555
H40 O8 1_555 1_555
N2_2 Ce1 1_555 1_555
Ce1_2 N2 1_555 1_555
C17 C18 1_555 1_555
C17 N8 1_555 1_555
C18 N7 1_555 1_555
C29 C30 1_555 1_555
C29 N10 1_555 1_555
C30 N9 1_555 1_555
C41 C42 1_555 1_555
C41 N12 1_555 1_555
C42 N11 1_555 1_555
N7 Ce1 1_555 1_555
N8 Ce1 1_555 1_555
N9 Ce1 1_555 1_555
N10 Ce1 1_555 1_555
N11 Ce1 1_555 1_555
N12 Ce1 1_555 1_555

#END
