
#######################################################################
#
#                 Cambridge Crystallographic Data Centre
#                                CCDC 
#
#######################################################################
#
# If this CIF has been generated from an entry in the Cambridge 
# Structural Database, then it will include bibliographic, chemical, 
# crystal, experimental, refinement or atomic coordinate data resulting 
# from the CCDC's data processing and validation procedures.
#
#######################################################################

data_VECYIM
_symmetry_cell_setting           monoclinic
_symmetry_space_group_name_H-M   'C 2/c'
_symmetry_Int_Tables_number      15
_space_group_name_Hall           '-C 2yn'
loop_
_symmetry_equiv_pos_site_id
_symmetry_equiv_pos_as_xyz
1 x,y,z
2 1/2+x,1/2+y,z
3 -x,y,1/2-z
4 1/2-x,1/2+y,1/2-z
5 -x,-y,-z
6 1/2-x,1/2-y,-z
7 x,-y,1/2+z
8 1/2+x,1/2-y,1/2+z
_cell_length_a                   13.689(3)
_cell_length_b                   8.3977(14)
_cell_length_c                   11.3004(14)
_cell_angle_alpha                90
_cell_angle_beta                 107.446(13)
_cell_angle_gamma                90
_cell_volume                     1239.29
loop_
_atom_site_label
_atom_site_type_symbol
_atom_site_fract_x
_atom_site_fract_y
_atom_site_fract_z
Ag1 Ag -0.24247(2) -0.19063(4) -0.30070(2)
S1 S 0.0000 -0.14277(14) -0.2500
O1 O -0.07955(19) -0.2438(4) -0.3327(3)
O2 O -0.0462(2) -0.0411(3) -0.1759(3)
N1 N -0.3054(2) -0.1372(3) -0.1418(3)
N2 N -0.1926(2) 0.0712(4) -0.0653(3)
N3 N -0.3079(2) 0.0024(3) 0.0408(3)
C1 C -0.3841(3) -0.2269(4) -0.1320(3)
C2 C -0.4284(3) -0.2053(4) -0.0385(4)
C3 C -0.3858(3) -0.0886(4) 0.0475(3)
C4 C -0.2707(2) -0.0236(4) -0.0548(3)
H1 H -0.403(3) -0.313(5) -0.187(4)
H2 H -0.480(3) -0.268(5) -0.032(4)
H3 H -0.409(3) -0.069(4) 0.117(4)
H4 H -0.152(3) 0.029(5) -0.094(4)
H5 H -0.163(3) 0.115(6) -0.003(4)
Ag1B Ag 0.24247(2) -0.19063(4) -0.19930(2)
Ag1C Ag -0.25753(2) 0.30937(4) -0.19930(2)
Ag1F Ag -0.24247(2) 0.19063(4) 0.19930(2)
Ag1C_2 Ag -0.25753(2) -0.69063(4) -0.19930(2)
Ag1E Ag -0.25753(2) -0.30937(4) -0.69930(2)
O1B O 0.07955(19) -0.2438(4) -0.1673(3)
O2B O 0.0462(2) -0.0411(3) -0.3241(3)
N1C N -0.1946(2) -0.6372(3) -0.3582(3)
N1B N 0.3054(2) -0.1372(3) -0.3582(3)
N2C N -0.3074(2) -0.4288(4) -0.4347(3)
N2A N 0.3074(2) -0.4288(4) -0.0653(3)
N3C N -0.1921(2) -0.4976(3) -0.5408(3)
N3F N -0.3079(2) -0.0024(3) -0.4592(3)
N3D N 0.3079(2) -0.0024(3) -0.0408(3)
C1C C -0.1159(3) -0.7269(4) -0.3680(3)
C2C C -0.0716(3) -0.7053(4) -0.4615(4)
C3C C -0.1142(3) -0.5886(4) -0.5475(3)
C4C C -0.2293(2) -0.5236(4) -0.4452(3)
H1C H -0.097(3) -0.813(5) -0.313(4)
H2C H -0.020(3) -0.768(5) -0.468(4)
H3C H -0.091(3) -0.569(4) -0.617(4)
H4C H -0.348(3) -0.471(5) -0.406(4)
H4A H 0.348(3) -0.471(5) -0.094(4)
H5C H -0.337(3) -0.385(6) -0.497(4)
H5A H 0.337(3) -0.385(6) -0.003(4)
loop_
_geom_bond_atom_site_label_1
_geom_bond_atom_site_label_2
_geom_bond_site_symmetry_1
_geom_bond_site_symmetry_2
Ag1 O1 1_555 1_555
S1 O1 1_555 1_555
O2 S1 1_555 1_555
N1 Ag1 1_555 1_555
N2 C4 1_555 1_555
N3 C3 1_555 1_555
C1 N1 1_555 1_555
C2 C1 1_555 1_555
C3 C2 1_555 1_555
C4 N1 1_555 1_555
H1 C1 1_555 1_555
H2 C2 1_555 1_555
H3 C3 1_555 1_555
H4 N2 1_555 1_555
H5 N2 1_555 1_555
Ag1B O1B 1_555 1_555
Ag1C N2 1_555 1_555
Ag1F N3 1_555 1_555
Ag1C_2 N1C 1_555 1_555
Ag1E N3C 1_555 1_555
O1B S1 1_555 1_555
O2B S1 1_555 1_555
N1C C1C 1_555 1_555
N1B Ag1B 1_555 1_555
N2C Ag1 1_555 1_555
N2A Ag1B 1_555 1_555
N3C C3C 1_555 1_555
N3F Ag1 1_555 1_555
N3D Ag1B 1_555 1_555
C1C C2C 1_555 1_555
C2C C3C 1_555 1_555
C3C H3C 1_555 1_555
C4C N1C 1_555 1_555
H1C C1C 1_555 1_555
H2C C2C 1_555 1_555
H4C N2C 1_555 1_555
H4A N2A 1_555 1_555
H5C N2C 1_555 1_555
H5A N2A 1_555 1_555
N3 C4 1_555 1_555
N2C C4C 1_555 1_555
N3C C4C 1_555 1_555

#END
