
#######################################################################
#
#                 Cambridge Crystallographic Data Centre
#                                CCDC 
#
#######################################################################
#
# If this CIF has been generated from an entry in the Cambridge 
# Structural Database, then it will include bibliographic, chemical, 
# crystal, experimental, refinement or atomic coordinate data resulting 
# from the CCDC's data processing and validation procedures.
#
#######################################################################

data_VECZAG
_symmetry_cell_setting           monoclinic
_symmetry_space_group_name_H-M   'P 21/n'
_symmetry_Int_Tables_number      14
_space_group_name_Hall           '-P 2yn'
loop_
_symmetry_equiv_pos_site_id
_symmetry_equiv_pos_as_xyz
1 x,y,z
2 1/2-x,1/2+y,1/2-z
3 -x,-y,-z
4 1/2+x,1/2-y,1/2+z
_cell_length_a                   10.0393(12)
_cell_length_b                   13.9688(16)
_cell_length_c                   19.893(2)
_cell_angle_alpha                90
_cell_angle_beta                 102.369(2)
_cell_angle_gamma                90
_cell_volume                     2724.98
loop_
_atom_site_label
_atom_site_type_symbol
_atom_site_fract_x
_atom_site_fract_y
_atom_site_fract_z
Si1 Si 0.0000 0.0000 0.0000
W1 W 0.31725(12) 0.11526(8) 0.05407(6)
W2 W -0.04297(16) -0.23589(9) 0.05336(7)
W3 W -0.20907(13) -0.04641(9) 0.11936(7)
W4 W 0.27281(13) -0.11927(10) 0.11056(6)
W5 W 0.10547(12) 0.07379(8) 0.17194(6)
W6 W 0.17052(14) -0.18897(10) -0.06308(8)
Ag1 Ag 0.4225(3) -0.3637(2) 0.13982(14)
Ag2 Ag 0.5224(3) -0.5423(3) 0.07160(16)
Ag3 Ag -0.1078(2) -0.52093(18) 0.04622(13)
Ag4 Ag -0.3920(3) -0.15429(17) 0.27445(12)
S1 S 0.7452(8) -0.5231(5) 0.1462(4)
S2 S 0.2806(7) -0.4902(6) 0.0631(4)
O1 O 0.463(3) 0.1755(19) 0.0784(15)
O2 O 0.516(3) -0.3345(19) 0.0153(16)
O3 O -0.062(3) -0.3489(19) 0.0770(13)
O4 O -0.310(3) -0.066(2) 0.1777(14)
O5 O 0.399(3) -0.1778(18) 0.1615(13)
O6 O 0.160(3) 0.1070(18) 0.2548(13)
O7 O 0.248(2) -0.2814(16) -0.0895(12)
O8 O 0.202(3) 0.219(2) 0.0145(14)
O9 O -0.122(3) -0.165(2) 0.1161(14)
O10 O 0.132(3) -0.209(2) 0.1106(14)
O11 O 0.054(3) -0.262(2) -0.0154(15)
O12 O 0.330(3) 0.079(2) -0.0353(14)
O13 O -0.254(3) 0.086(2) 0.1010(16)
O14 O 0.289(3) -0.170(2) 0.0241(14)
O15 O -0.021(3) 0.171(2) 0.1317(15)
O16 O -0.043(3) -0.0035(19) 0.1792(15)
O17 O 0.236(3) 0.1331(18) 0.1292(14)
O18 O 0.204(3) -0.0455(18) 0.1699(13)
O19 O 0.364(3) -0.0082(19) 0.0859(14)
O20 O 0.111(6) 0.074(4) -0.019(3)
O21 O 0.079(5) -0.110(4) 0.024(3)
O22 O -0.042(6) 0.039(4) 0.071(3)
O23 O -0.127(5) -0.017(4) -0.061(3)
N1 N 0.648(2) -0.3571(18) 0.1913(13)
N2 N 0.698(3) -0.2832(19) 0.2319(14)
N3 N 0.831(2) -0.2924(19) 0.2528(14)
N4 N 0.861(2) -0.3774(17) 0.2270(12)
N5 N 0.085(3) -0.5729(17) 0.1181(13)
N6 N 0.075(3) -0.6333(17) 0.1703(14)
N7 N 0.190(3) -0.6597(18) 0.2021(14)
N8 N 0.280(2) -0.6243(17) 0.1683(13)
C1 C 0.750(3) -0.414(2) 0.1887(17)
C2 C 1.000(3) -0.409(2) 0.2397(18)
H1 H 1.0033 -0.4774 0.2455
H2 H 1.0509 -0.3793 0.2807
H3 H 1.0395 -0.3921 0.2014
C3 C 0.215(3) -0.565(2) 0.1182(17)
C4 C 0.425(3) -0.641(2) 0.1942(18)
H4 H 0.4384 -0.6713 0.2386
H5 H 0.4729 -0.5817 0.1981
H6 H 0.4584 -0.6827 0.1630
W1B W -0.31725(12) -0.11526(8) -0.05407(6)
W2B W 0.04297(16) 0.23589(9) -0.05336(7)
W3B W 0.20907(13) 0.04641(9) -0.11936(7)
W4B W -0.27281(13) 0.11927(10) -0.11056(6)
W5B W -0.10547(12) -0.07379(8) -0.17194(6)
W6B W -0.17052(14) 0.18897(10) 0.06308(8)
Ag1B Ag -0.4225(3) 0.3637(2) -0.13982(14)
Ag1A Ag 0.0775(3) 0.1363(2) 0.36018(14)
Ag1C Ag -0.0775(3) -0.1363(2) -0.36018(14)
Ag1B_2 Ag -0.4225(3) -0.6363(2) -0.13982(14)
Ag1_2 Ag -0.5775(3) -0.3637(2) 0.13982(14)
Ag2_2 Ag -0.4776(3) -0.5423(3) 0.07160(16)
Ag2B Ag 0.4776(3) -0.4577(3) -0.07160(16)
Ag2B_2 Ag -0.5224(3) 0.5423(3) -0.07160(16)
Ag2B_3 Ag -0.5224(3) -0.4577(3) -0.07160(16)
Ag2_3 Ag -0.4776(3) 0.4577(3) 0.07160(16)
Ag3B Ag 0.1078(2) 0.52093(18) -0.04622(13)
Ag3B_2 Ag 0.1078(2) -0.47907(18) -0.04622(13)
Ag3_2 Ag 0.8922(2) -0.52093(18) 0.04622(13)
Ag3_3 Ag -0.1078(2) 0.47907(18) 0.04622(13)
Ag4B Ag 0.3920(3) 0.15429(17) -0.27445(12)
Ag4A Ag 0.8920(3) -0.65429(17) 0.22555(12)
Ag4_2 Ag 0.6080(3) -0.15429(17) 0.27445(12)
Ag4A_2 Ag -0.1080(3) -0.65429(17) 0.22555(12)
Ag4B_2 Ag -0.6080(3) 0.15429(17) -0.27445(12)
Ag4C Ag 0.1080(3) -0.34571(17) -0.22555(12)
S1_2 S -0.2548(8) -0.5231(5) 0.1462(4)
S1A S -0.2452(8) -0.0231(5) 0.3538(4)
S1B S 0.2548(8) 0.5231(5) -0.1462(4)
S1C S 0.2452(8) 0.0231(5) -0.3538(4)
S2B S -0.2806(7) -0.5098(6) -0.0631(4)
S2B_2 S -0.2806(7) 0.4902(6) -0.0631(4)
S2_2 S 0.2806(7) 0.5098(6) 0.0631(4)
S2_3 S -0.7194(7) -0.4902(6) 0.0631(4)
O1B O -0.463(3) -0.1755(19) -0.0784(15)
O2B O -0.516(3) 0.3345(19) -0.0153(16)
O2B_2 O 0.484(3) -0.6655(19) -0.0153(16)
O2B_3 O -0.516(3) -0.6655(19) -0.0153(16)
O3B O 0.062(3) 0.3489(19) -0.0770(13)
O4B O 0.310(3) 0.066(2) -0.1777(14)
O5B O -0.399(3) 0.1778(18) -0.1615(13)
O5_2 O -0.601(3) -0.1778(18) 0.1615(13)
O5B_2 O 0.601(3) 0.1778(18) -0.1615(13)
O6B O -0.160(3) -0.1070(18) -0.2548(13)
O6A O 0.340(3) -0.3930(18) 0.2452(13)
O6C O -0.340(3) 0.3930(18) -0.2452(13)
O7B O -0.248(2) 0.2814(16) 0.0895(12)
O8B O -0.202(3) -0.219(2) -0.0145(14)
O9B O 0.122(3) 0.165(2) -0.1161(14)
O10B O -0.132(3) 0.209(2) -0.1106(14)
O11B O -0.054(3) 0.262(2) 0.0154(15)
O12B O -0.330(3) -0.079(2) 0.0353(14)
O13B O 0.254(3) -0.086(2) -0.1010(16)
O14B O -0.289(3) 0.170(2) -0.0241(14)
O15B O 0.021(3) -0.171(2) -0.1317(15)
O16B O 0.043(3) 0.0035(19) -0.1792(15)
O17B O -0.236(3) -0.1331(18) -0.1292(14)
O18B O -0.204(3) 0.0455(18) -0.1699(13)
O19B O -0.364(3) 0.0082(19) -0.0859(14)
O20B O -0.111(6) -0.074(4) 0.019(3)
O21B O -0.079(5) 0.110(4) -0.024(3)
O22B O 0.042(6) -0.039(4) -0.071(3)
O23B O 0.127(5) 0.017(4) 0.061(3)
N1_2 N -0.352(2) -0.3571(18) 0.1913(13)
N1B N -0.648(2) 0.3571(18) -0.1913(13)
N2_2 N -0.302(3) -0.2832(19) 0.2319(14)
N2B N 0.302(3) 0.2832(19) -0.2319(14)
N3_2 N -0.169(2) -0.2924(19) 0.2528(14)
N4_2 N -0.139(2) -0.3774(17) 0.2270(12)
N5B N -0.085(3) -0.4271(17) -0.1181(13)
N5B_2 N -0.085(3) 0.5729(17) -0.1181(13)
N6B N -0.075(3) -0.3667(17) -0.1703(14)
N6A N -0.575(3) -0.1333(17) 0.3297(14)
N6C N 0.575(3) 0.1333(17) -0.3297(14)
N7B N -0.190(3) -0.3403(18) -0.2021(14)
N8B N -0.280(2) -0.3757(17) -0.1683(13)
C1_2 C -0.250(3) -0.414(2) 0.1887(17)
C2_2 C 0.000(3) -0.409(2) 0.2397(18)
H1_2 H 0.0033 -0.4774 0.2455
H2_2 H 0.0509 -0.3793 0.2807
H3_2 H 0.0395 -0.3921 0.2014
C3B C -0.215(3) -0.435(2) -0.1182(17)
C4B C -0.425(3) -0.359(2) -0.1942(18)
H4B H -0.4384 -0.3287 -0.2386
H5B H -0.4729 -0.4183 -0.1981
H6B H -0.4584 -0.3173 -0.1630
loop_
_geom_bond_atom_site_label_1
_geom_bond_atom_site_label_2
_geom_bond_site_symmetry_1
_geom_bond_site_symmetry_2
Si1 O20 1_555 1_555
W1 O1 1_555 1_555
W2 O3 1_555 1_555
W3 O4 1_555 1_555
W4 O5 1_555 1_555
W5 O6 1_555 1_555
W6 O7 1_555 1_555
Ag1 S2 1_555 1_555
Ag2 S1 1_555 1_555
Ag3 O3 1_555 1_555
Ag4 O4 1_555 1_555
S1 C1 1_555 1_555
S2 Ag2 1_555 1_555
O2 Ag1 1_555 1_555
O5 Ag1 1_555 1_555
O6 Ag1A 1_555 1_555
O8 W1 1_555 1_555
O9 W2 1_555 1_555
O10 W2 1_555 1_555
O11 W2 1_555 1_555
O12 W1 1_555 1_555
O13 W3 1_555 1_555
O14 W4 1_555 1_555
O15 W5 1_555 1_555
O16 W3 1_555 1_555
O17 W1 1_555 1_555
O18 W4 1_555 1_555
O19 W1 1_555 1_555
O20 W1 1_555 1_555
O21 Si1 1_555 1_555
O22 Si1 1_555 1_555
O23 Si1 1_555 1_555
N1 Ag1 1_555 1_555
N2 N1 1_555 1_555
N3 N2 1_555 1_555
N4 N3 1_555 1_555
N5 Ag3 1_555 1_555
N6 N5 1_555 1_555
N7 N6 1_555 1_555
N8 N7 1_555 1_555
C1 N1 1_555 1_555
C2 N4 1_555 1_555
H1 C2 1_555 1_555
H2 C2 1_555 1_555
H3 C2 1_555 1_555
C3 S2 1_555 1_555
C4 N8 1_555 1_555
H4 C4 1_555 1_555
H5 C4 1_555 1_555
H6 C4 1_555 1_555
W1B O23 1_555 1_555
W2B O8 1_555 1_555
W3B O12 1_555 1_555
W4B O23 1_555 1_555
W5B O23 1_555 1_555
W6B O13 1_555 1_555
Ag1B S2B_2 1_555 1_555
Ag1C O6B 1_555 1_555
Ag1B_2 S2B 1_555 1_555
Ag1_2 S2_3 1_555 1_555
Ag2_2 S1_2 1_555 1_555
Ag2B O2 1_555 1_555
Ag2B_2 S2B_2 1_555 1_555
Ag2B_3 S2B 1_555 1_555
Ag2_3 O2B 1_555 1_555
Ag3B S1B 1_555 1_555
Ag3B_2 S2 1_555 1_555
Ag3_2 S1 1_555 1_555
Ag3_3 S2B_2 1_555 1_555
Ag4B S1C 1_555 1_555
Ag4A S1 1_555 1_555
Ag4_2 O5 1_555 1_555
Ag4A_2 N6 1_555 1_555
Ag4B_2 O5B 1_555 1_555
Ag4C N6B 1_555 1_555
S1_2 Ag3 1_555 1_555
S1A Ag4 1_555 1_555
S2B Ag3 1_555 1_555
S2_2 Ag3B 1_555 1_555
S2_3 Ag2_2 1_555 1_555
O1B W1B 1_555 1_555
O2B Ag1B 1_555 1_555
O2B_2 Ag2 1_555 1_555
O2B_3 Ag1B_2 1_555 1_555
O3B W2B 1_555 1_555
O4B W3B 1_555 1_555
O5B W4B 1_555 1_555
O5_2 Ag4 1_555 1_555
O5B_2 Ag4B 1_555 1_555
O6B W5B 1_555 1_555
O6A Ag1 1_555 1_555
O6C Ag1B 1_555 1_555
O7B W6B 1_555 1_555
O8B W2 1_555 1_555
O9B W2B 1_555 1_555
O10B W2B 1_555 1_555
O11B W2B 1_555 1_555
O12B W3 1_555 1_555
O13B W6 1_555 1_555
O14B W4B 1_555 1_555
O15B W6 1_555 1_555
O16B W3B 1_555 1_555
O17B W1B 1_555 1_555
O18B W4B 1_555 1_555
O19B W1B 1_555 1_555
O20B Si1 1_555 1_555
O21B Si1 1_555 1_555
O22B Si1 1_555 1_555
O23B Si1 1_555 1_555
N1_2 Ag1_2 1_555 1_555
N1B Ag1B 1_555 1_555
N2_2 Ag4 1_555 1_555
N2B Ag4B 1_555 1_555
N3_2 N2_2 1_555 1_555
N4_2 N3_2 1_555 1_555
N5B Ag3B_2 1_555 1_555
N5B_2 Ag3B 1_555 1_555
N6B N5B 1_555 1_555
N6A Ag4 1_555 1_555
N6C Ag4B 1_555 1_555
N7B N6B 1_555 1_555
N8B N7B 1_555 1_555
C1_2 S1_2 1_555 1_555
C2_2 N4_2 1_555 1_555
H1_2 C2_2 1_555 1_555
H2_2 C2_2 1_555 1_555
H3_2 C2_2 1_555 1_555
C3B S2B 1_555 1_555
C4B N8B 1_555 1_555
H4B C4B 1_555 1_555
H5B C4B 1_555 1_555
H6B C4B 1_555 1_555
W1 O23B 1_555 1_555
W2 O21 1_555 1_555
W2 O20B 1_555 1_555
W3 O9 1_555 1_555
W3 O22 1_555 1_555
W3 O20B 1_555 1_555
W4 O10 1_555 1_555
W4 O19 1_555 1_555
W4 O21 1_555 1_555
W4 O23B 1_555 1_555
W5 O16 1_555 1_555
W5 O17 1_555 1_555
W5 O18 1_555 1_555
W5 O22 1_555 1_555
W5 O23B 1_555 1_555
W6 O11 1_555 1_555
W6 O14 1_555 1_555
W6 O21 1_555 1_555
W6 O22B 1_555 1_555
O15 W6B 1_555 1_555
O20 W2B 1_555 1_555
O20 W3B 1_555 1_555
O20 O21B 1_555 1_555
O20 O22B 1_555 1_555
O20 O23B 1_555 1_555
O21 O20B 1_555 1_555
O21 O23B 1_555 1_555
O22 W6B 1_555 1_555
O22 O20B 1_555 1_555
O22 O23B 1_555 1_555
O23 O20B 1_555 1_555
O23 O21B 1_555 1_555
O23 O22B 1_555 1_555
N2 Ag4_2 1_555 1_555
N4 C1 1_555 1_555
N5 C3 1_555 1_555
N8 C3 1_555 1_555
W1B O8B 1_555 1_555
W1B O12B 1_555 1_555
W1B O20B 1_555 1_555
W2B O21B 1_555 1_555
W3B O9B 1_555 1_555
W3B O13B 1_555 1_555
W3B O22B 1_555 1_555
W4B O10B 1_555 1_555
W4B O19B 1_555 1_555
W4B O21B 1_555 1_555
W5B O15B 1_555 1_555
W5B O16B 1_555 1_555
W5B O17B 1_555 1_555
W5B O18B 1_555 1_555
W5B O22B 1_555 1_555
W6B O11B 1_555 1_555
W6B O14B 1_555 1_555
W6B O21B 1_555 1_555
Ag1B O5B 1_555 1_555
Ag1_2 O5_2 1_555 1_555
Ag2_2 O2B_3 1_555 1_555
Ag3B O3B 1_555 1_555
Ag4B O4B 1_555 1_555
Ag4A_2 S1_2 1_555 1_555
N1_2 N2_2 1_555 1_555
N1_2 C1_2 1_555 1_555
N4_2 C1_2 1_555 1_555
N5B C3B 1_555 1_555
N8B C3B 1_555 1_555

#END
