
#######################################################################
#
#                 Cambridge Crystallographic Data Centre
#                                CCDC 
#
#######################################################################
#
# If this CIF has been generated from an entry in the Cambridge 
# Structural Database, then it will include bibliographic, chemical, 
# crystal, experimental, refinement or atomic coordinate data resulting 
# from the CCDC's data processing and validation procedures.
#
#######################################################################

data_VECZAF
_symmetry_cell_setting           monoclinic
_symmetry_space_group_name_H-M   'P 21/c'
_symmetry_Int_Tables_number      14
_space_group_name_Hall           '-P 2ybc'
loop_
_symmetry_equiv_pos_site_id
_symmetry_equiv_pos_as_xyz
1 x,y,z
2 -x,1/2+y,1/2-z
3 -x,-y,-z
4 x,1/2-y,1/2+z
_cell_length_a                   7.9107(10)
_cell_length_b                   19.287(2)
_cell_length_c                   12.2767(7)
_cell_angle_alpha                90
_cell_angle_beta                 94.902(8)
_cell_angle_gamma                90
_cell_volume                     1866.25
loop_
_atom_site_label
_atom_site_type_symbol
_atom_site_fract_x
_atom_site_fract_y
_atom_site_fract_z
Ag1 Ag 0.29901(5) 0.419956(15) 0.50449(3)
Ag2 Ag 0.29078(5) 0.659450(17) 0.81365(3)
O1 O 0.1401(5) 0.7584(2) 0.4907(3)
O2 O 0.2058(6) 0.83460(17) 0.6127(3)
O3 O 0.2988(5) 0.73114(16) 0.6358(3)
O4 O 0.4896(6) 0.5286(2) 0.2360(3)
O5 O 0.3671(6) 0.4393(2) 0.2941(4)
O6 O 0.4121(5) 0.5276(2) 0.3956(3)
N1 N 0.1402(4) 0.47861(15) 0.6207(2)
N2 N 0.2571(5) 0.58404(16) 0.5790(3)
H1 H 0.2861 0.5634 0.5189
H2 H 0.2535 0.6294 0.5864
N3 N 0.1308(4) 0.57611(15) 0.7407(2)
N4 N 0.3580(4) 0.30445(15) 0.5053(2)
N5 N 0.5288(5) 0.31205(17) 0.6664(3)
H3 H 0.5161 0.3568 0.6587
H4 H 0.5936 0.2915 0.7231
N6 N 0.4980(4) 0.20469(15) 0.5845(2)
N7 N 0.2103(5) 0.77480(16) 0.5796(3)
N8 N 0.4219(5) 0.49816(18) 0.3057(3)
C1 C 0.1749(5) 0.54548(18) 0.6476(3)
C2 C 0.0325(5) 0.53961(19) 0.8035(3)
C3 C -0.0254(7) 0.5760(2) 0.9015(4)
H5 H -0.0955 0.5475 0.9328
H6 H -0.0829 0.6182 0.8798
H7 H 0.0703 0.5871 0.9518
C4 C -0.0148(5) 0.4723(2) 0.7771(3)
H8 H -0.0864 0.4477 0.8194
C5 C 0.0470(5) 0.44246(19) 0.6866(3)
C6 C 0.0113(6) 0.3681(2) 0.6579(4)
H9 H -0.0643 0.3500 0.7064
H10 H -0.0413 0.3611 0.5918
H11 H 0.1178 0.3431 0.6579
C7 C 0.4618(5) 0.27363(18) 0.5837(3)
C8 C 0.2819(5) 0.26387(19) 0.4261(3)
C9 C 0.1696(7) 0.2983(2) 0.3388(4)
H12 H 0.0931 0.3309 0.3794
H13 H 0.0992 0.2634 0.2962
H14 H 0.2360 0.3245 0.2913
C10 C 0.3104(6) 0.19344(19) 0.4259(3)
H15 H 0.2547 0.1655 0.3725
C11 C 0.4215(5) 0.16509(18) 0.5051(3)
C12 C 0.4641(6) 0.08934(19) 0.5057(4)
H16 H 0.4439 0.0683 0.5825
H17 H 0.4005 0.0614 0.4585
H18 H 0.5815 0.0839 0.4933
Ag1B Ag 0.70099(5) 0.580044(15) 0.49551(3)
Ag2A Ag 0.70922(5) 0.159450(17) 0.68635(3)
O6B O 0.5879(5) 0.4724(2) 0.6044(3)
N6A N 0.5020(4) 0.70469(15) 0.9155(2)
loop_
_geom_bond_atom_site_label_1
_geom_bond_atom_site_label_2
_geom_bond_site_symmetry_1
_geom_bond_site_symmetry_2
Ag1 O5 1_555 1_555
Ag2 O3 1_555 1_555
O1 N7 1_555 1_555
O2 N7 1_555 1_555
O3 N7 1_555 1_555
O4 N8 1_555 1_555
O5 N8 1_555 1_555
O6 Ag1 1_555 1_555
N1 Ag1 1_555 1_555
N2 H1 1_555 1_555
H2 N2 1_555 1_555
N3 Ag2 1_555 1_555
N4 Ag1 1_555 1_555
N5 H3 1_555 1_555
H4 N5 1_555 1_555
N6 C7 1_555 1_555
N8 O6 1_555 1_555
C1 N1 1_555 1_555
C2 N3 1_555 1_555
C3 C2 1_555 1_555
H5 C3 1_555 1_555
H6 C3 1_555 1_555
H7 C3 1_555 1_555
C4 C2 1_555 1_555
H8 C4 1_555 1_555
C5 N1 1_555 1_555
C6 C5 1_555 1_555
H9 C6 1_555 1_555
H10 C6 1_555 1_555
H11 C6 1_555 1_555
C7 N4 1_555 1_555
C8 N4 1_555 1_555
C9 C8 1_555 1_555
H12 C9 1_555 1_555
H13 C9 1_555 1_555
H14 C9 1_555 1_555
C10 C8 1_555 1_555
H15 C10 1_555 1_555
C11 N6 1_555 1_555
C12 C11 1_555 1_555
H16 C12 1_555 1_555
H17 C12 1_555 1_555
H18 C12 1_555 1_555
Ag1B O6 1_555 1_555
Ag2A N6 1_555 1_555
O6B Ag1 1_555 1_555
N6A Ag2 1_555 1_555
N2 C1 1_555 1_555
N3 C1 1_555 1_555
N5 C7 1_555 1_555
C4 C5 1_555 1_555
C10 C11 1_555 1_555
Ag1B O6B 1_555 1_555

#END
