
#######################################################################
#
#                 Cambridge Crystallographic Data Centre
#                                CCDC 
#
#######################################################################
#
# If this CIF has been generated from an entry in the Cambridge 
# Structural Database, then it will include bibliographic, chemical, 
# crystal, experimental, refinement or atomic coordinate data resulting 
# from the CCDC's data processing and validation procedures.
#
#######################################################################

data_VEDBOX
_symmetry_cell_setting           triclinic
_symmetry_space_group_name_H-M   'P -1'
_symmetry_Int_Tables_number      2
_space_group_name_Hall           '-P 1'
loop_
_symmetry_equiv_pos_site_id
_symmetry_equiv_pos_as_xyz
1 x,y,z
2 -x,-y,-z
_cell_length_a                   7.864(3)
_cell_length_b                   9.964(3)
_cell_length_c                   12.842(4)
_cell_angle_alpha                67.521(5)
_cell_angle_beta                 89.856(6)
_cell_angle_gamma                80.711(6)
_cell_volume                     915.675
loop_
_atom_site_label
_atom_site_type_symbol
_atom_site_fract_x
_atom_site_fract_y
_atom_site_fract_z
Eu1 Eu 0.71301(3) 0.67885(2) 0.58826(2)
P1 P 0.68226(18) 0.45713(14) 0.88803(11)
O1 O 0.6924(5) 0.5802(4) 0.7763(3)
O2 O 0.9264(5) 0.8089(4) 0.6236(4)
H1 H 0.9356 0.7682 0.6953
H2 H 0.8940 0.8984 0.6156
O3 O 0.7317(5) 0.5045(5) 0.9849(3)
H3 H 0.6438 0.5283 1.0128
O5 O 0.5096(5) 0.4080(4) 0.9059(3)
O7 O 0.7211(5) -0.2488(4) 1.2059(3)
H8 H 0.7612 -0.2729 1.2706
O8 O 0.6657(5) 0.4361(4) 0.6050(3)
O9 O 0.5392(5) 0.3132(4) 0.5230(3)
O10 O 0.8383(4) 0.6452(4) 0.4228(3)
O11 O 1.0106(5) 0.4866(4) 0.3691(3)
O12 O 0.6668(4) 0.9228(4) 0.4402(3)
O13 O 0.5055(5) 1.1483(4) 0.3726(3)
N1 N 0.6421(6) -0.1618(5) 0.9883(4)
H9 H 0.6222 -0.2438 1.0378
C1 C 0.5979(8) -0.1293(7) 0.8813(5)
H10 H 0.5488 -0.1948 0.8602
C2 C 0.6261(8) 0.0045(7) 0.8004(5)
H11 H 0.5960 0.0283 0.7246
C3 C 0.6965(7) 0.0996(6) 0.8309(5)
H12 H 0.7120 0.1894 0.7761
C4 C 0.7470(7) 0.0650(6) 0.9445(4)
C5 C 0.8255(7) 0.1594(6) 0.9833(5)
C6 C 0.8653(7) 0.1110(6) 1.0965(5)
H13 H 0.9156 0.1711 1.1231
C7 C 0.8339(7) -0.0264(6) 1.1756(5)
H14 H 0.8641 -0.0545 1.2519
C8 C 0.7600(7) -0.1166(6) 1.1402(4)
C9 C 0.7180(7) -0.0719(6) 1.0247(4)
C10 C 0.8556(7) 0.3066(6) 0.9026(5)
H15 H 0.8725 0.3023 0.8290
H16 H 0.9613 0.3271 0.9277
C11 C 0.5602(6) 0.4263(5) 0.5376(4)
C12 C 0.9571(6) 0.5382(5) 0.4394(4)
C13 C 0.5513(6) 1.0207(5) 0.4461(4)
Eu1A Eu 0.28699(3) 0.32115(2) 0.41174(2)
Eu1A_2 Eu 1.28699(3) 0.32115(2) 0.41174(2)
Eu1A_3 Eu 0.28699(3) 1.32115(2) 0.41174(2)
P1A P 0.31774(18) 0.54287(14) 0.11197(11)
O1A O 0.3076(5) 0.4198(4) 0.2237(3)
O2A O 0.0736(5) 0.1911(4) 0.3764(4)
H1A H 0.0644 0.2318 0.3047
H2A H 0.1060 0.1016 0.3844
O3A O 0.2683(5) 0.4955(5) 0.0151(3)
H3A H 0.3562 0.4717 -0.0128
O5A O 0.4904(5) 0.5920(4) 0.0941(3)
O7A O 0.2789(5) 1.2488(4) -0.2059(3)
H8A H 0.2388 1.2729 -0.2706
O8A O 0.3343(5) 0.5639(4) 0.3950(3)
O9A O 0.4608(5) 0.6868(4) 0.4770(3)
O10A O 1.1617(4) 0.3548(4) 0.5772(3)
O10A_2 O 0.1617(4) 0.3548(4) 0.5772(3)
O11A O 0.9894(5) 0.5134(4) 0.6309(3)
O11_2 O 0.0106(5) 0.4866(4) 0.3691(3)
O12A O 0.3332(4) 1.0772(4) 0.5598(3)
O12A_2 O 0.3332(4) 0.0772(4) 0.5598(3)
O13A O 0.4945(5) 0.8517(4) 0.6274(3)
O13_2 O 0.5055(5) 0.1483(4) 0.3726(3)
N1A N 0.3579(6) 1.1618(5) 0.0117(4)
H9A H 0.3778 1.2438 -0.0378
C1A C 0.4021(8) 1.1293(7) 0.1187(5)
H10A H 0.4512 1.1948 0.1398
C2A C 0.3739(8) 0.9955(7) 0.1996(5)
H11A H 0.4040 0.9717 0.2754
C3A C 0.3035(7) 0.9004(6) 0.1691(5)
H12A H 0.2880 0.8106 0.2239
C4A C 0.2530(7) 0.9350(6) 0.0555(4)
C5A C 0.1745(7) 0.8406(6) 0.0167(5)
C6A C 0.1347(7) 0.8890(6) -0.0965(5)
H13A H 0.0844 0.8289 -0.1231
C7A C 0.1661(7) 1.0264(6) -0.1756(5)
H14A H 0.1359 1.0545 -0.2519
C8A C 0.2400(7) 1.1166(6) -0.1402(4)
C9A C 0.2820(7) 1.0719(6) -0.0247(4)
C10A C 0.1444(7) 0.6934(6) 0.0974(5)
H15A H 0.1275 0.6977 0.1710
H16A H 0.0387 0.6729 0.0723
C11A C 0.4398(6) 0.5737(5) 0.4624(4)
C12A C 1.0429(6) 0.4618(5) 0.5606(4)
C13A C 0.4487(6) 0.9793(5) 0.5539(4)
O4 O 0.8661(6) 0.1054(4) 0.5789(4)
H4 H 0.8965 0.1853 0.5351
H5 H 0.7580 0.1211 0.5868
O6 O 0.2369(7) 0.6830(7) 0.7373(5)
H6 H 0.2098 0.7764 0.7036
H7 H 0.1979 0.6415 0.6978
loop_
_geom_bond_atom_site_label_1
_geom_bond_atom_site_label_2
_geom_bond_site_symmetry_1
_geom_bond_site_symmetry_2
Eu1 O1 1_555 1_555
P1 O1 1_555 1_555
O2 Eu1 1_555 1_555
H1 O2 1_555 1_555
H2 O2 1_555 1_555
O3 P1 1_555 1_555
H3 O3 1_555 1_555
O4 H4 1_555 1_555
H5 O4 1_555 1_555
O5 P1 1_555 1_555
O6 H6 1_555 1_555
H7 O6 1_555 1_555
O7 H8 1_555 1_555
O8 Eu1 1_555 1_555
O9 C11 1_555 1_555
O10 Eu1 1_555 1_555
O11 C12 1_555 1_555
O12 Eu1 1_555 1_555
O13 C13 1_555 1_555
N1 H9 1_555 1_555
C1 N1 1_555 1_555
H10 C1 1_555 1_555
C2 C1 1_555 1_555
H11 C2 1_555 1_555
C3 C2 1_555 1_555
H12 C3 1_555 1_555
C4 C3 1_555 1_555
C5 C4 1_555 1_555
C6 C5 1_555 1_555
H13 C6 1_555 1_555
C7 C6 1_555 1_555
H14 C7 1_555 1_555
C8 O7 1_555 1_555
C9 N1 1_555 1_555
C10 P1 1_555 1_555
H15 C10 1_555 1_555
H16 C10 1_555 1_555
C11 O8 1_555 1_555
C12 O10 1_555 1_555
C13 O12 1_555 1_555
Eu1A O9 1_555 1_555
Eu1A_2 O11 1_555 1_555
Eu1A_3 O13 1_555 1_555
P1A O1A 1_555 1_555
O1A Eu1A 1_555 1_555
O2A Eu1A 1_555 1_555
H1A O2A 1_555 1_555
H2A O2A 1_555 1_555
O3A P1A 1_555 1_555
H3A O3A 1_555 1_555
O5A P1A 1_555 1_555
O7A H8A 1_555 1_555
O8A Eu1A 1_555 1_555
O9A Eu1 1_555 1_555
O10A Eu1A_2 1_555 1_555
O10A_2 Eu1A 1_555 1_555
O11A Eu1 1_555 1_555
O11_2 Eu1A 1_555 1_555
O12A Eu1A_3 1_555 1_555
O12A_2 Eu1A 1_555 1_555
O13A Eu1 1_555 1_555
O13_2 Eu1A 1_555 1_555
N1A H9A 1_555 1_555
C1A N1A 1_555 1_555
H10A C1A 1_555 1_555
C2A C1A 1_555 1_555
H11A C2A 1_555 1_555
C3A C2A 1_555 1_555
H12A C3A 1_555 1_555
C4A C3A 1_555 1_555
C5A C4A 1_555 1_555
C6A C5A 1_555 1_555
H13A C6A 1_555 1_555
C7A C6A 1_555 1_555
H14A C7A 1_555 1_555
C8A O7A 1_555 1_555
C9A N1A 1_555 1_555
C10A P1A 1_555 1_555
H15A C10A 1_555 1_555
H16A C10A 1_555 1_555
C11A C11 1_555 1_555
C12A C12 1_555 1_555
C13A C13 1_555 1_555
C4 C9 1_555 1_555
C5 C10 1_555 1_555
C7 C8 1_555 1_555
C8 C9 1_555 1_555
O8A C11A 1_555 1_555
O9A C11A 1_555 1_555
O10A C12A 1_555 1_555
O11A C12A 1_555 1_555
O12A C13A 1_555 1_555
O13A C13A 1_555 1_555
C4A C9A 1_555 1_555
C5A C10A 1_555 1_555
C7A C8A 1_555 1_555
C8A C9A 1_555 1_555

#END
