
#######################################################################
#
#                 Cambridge Crystallographic Data Centre
#                                CCDC 
#
#######################################################################
#
# If this CIF has been generated from an entry in the Cambridge 
# Structural Database, then it will include bibliographic, chemical, 
# crystal, experimental, refinement or atomic coordinate data resulting 
# from the CCDC's data processing and validation procedures.
#
#######################################################################

data_VEDCAK
_symmetry_cell_setting           triclinic
_symmetry_space_group_name_H-M   'P -1'
_symmetry_Int_Tables_number      2
_space_group_name_Hall           '-P 1'
loop_
_symmetry_equiv_pos_site_id
_symmetry_equiv_pos_as_xyz
1 x,y,z
2 -x,-y,-z
_cell_length_a                   7.8354(13)
_cell_length_b                   9.9100(17)
_cell_length_c                   12.852(2)
_cell_angle_alpha                67.780(3)
_cell_angle_beta                 89.721(3)
_cell_angle_gamma                80.236(3)
_cell_volume                     908.529
loop_
_atom_site_label
_atom_site_type_symbol
_atom_site_fract_x
_atom_site_fract_y
_atom_site_fract_z
Tb1 Tb 0.71247(3) 0.67889(3) 0.58671(2)
P1 P 0.68091(19) 0.45909(15) 0.88467(11)
O1 O 0.6898(5) 0.5809(4) 0.7718(3)
O2 O 0.9247(4) 0.8060(4) 0.6223(3)
H1 H 0.9339 0.7653 0.6940
H2 H 0.8923 0.8955 0.6143
O3 O 0.7307(5) 0.5102(4) 0.9804(3)
H3 H 0.6424 0.5342 1.0086
O5 O 0.5074(4) 0.4110(4) 0.9035(3)
O7 O 0.7198(5) -0.2468(4) 1.2063(3)
H8 H 0.7600 -0.2705 1.2708
O8 O 0.6670(5) 0.4361(3) 0.6050(3)
O9 O 0.5397(4) 0.3118(3) 0.5232(3)
O10 O 0.8360(4) 0.6471(4) 0.4233(3)
O11 O 1.0123(4) 0.4869(4) 0.3692(3)
O12 O 0.6675(4) 0.9214(3) 0.4401(3)
O13 O 0.5061(4) 1.1503(3) 0.3744(3)
N1 N 0.6431(5) -0.1620(4) 0.9888(3)
H9 H 0.6232 -0.2436 1.0386
C1 C 0.6009(7) -0.1318(6) 0.8823(4)
H10 H 0.5541 -0.1989 0.8615
C2 C 0.6276(7) 0.0022(6) 0.8015(4)
H11 H 0.5960 0.0258 0.7261
C3 C 0.6986(7) 0.0978(6) 0.8311(4)
H12 H 0.7156 0.1867 0.7759
C4 C 0.7474(6) 0.0659(5) 0.9434(4)
C5 C 0.8244(7) 0.1593(5) 0.9820(4)
C6 C 0.8649(7) 0.1140(6) 1.0952(4)
H13 H 0.9146 0.1757 1.1206
C7 C 0.8342(7) -0.0222(6) 1.1748(4)
H14 H 0.8650 -0.0491 1.2507
C8 C 0.7593(7) -0.1146(5) 1.1405(4)
C9 C 0.7166(6) -0.0703(5) 1.0237(4)
C10 C 0.8542(7) 0.3092(5) 0.9003(4)
H15 H 0.8726 0.3041 0.8271
H16 H 0.9594 0.3301 0.9258
C11 C 0.5599(7) 0.4268(5) 0.5379(4)
C12 C 0.9567(6) 0.5381(5) 0.4393(4)
C13 C 0.5528(6) 1.0191(5) 0.4466(4)
Tb1A Tb 0.28753(3) 0.32111(3) 0.41329(2)
Tb1A_2 Tb 0.28753(3) 1.32111(3) 0.41329(2)
Tb1A_3 Tb 1.28753(3) 0.32111(3) 0.41329(2)
P1A P 0.31909(19) 0.54091(15) 0.11533(11)
O1A O 0.3102(5) 0.4191(4) 0.2282(3)
O2A O 0.0753(4) 0.1940(4) 0.3777(3)
H1A H 0.0661 0.2347 0.3060
H2A H 0.1077 0.1045 0.3857
O3A O 0.2693(5) 0.4898(4) 0.0196(3)
H3A H 0.3576 0.4658 -0.0086
O5A O 0.4926(4) 0.5890(4) 0.0965(3)
O7A O 0.2802(5) 1.2468(4) -0.2063(3)
H8A H 0.2400 1.2705 -0.2708
O8A O 0.3330(5) 0.5639(3) 0.3950(3)
O9A O 0.4603(4) 0.6882(3) 0.4768(3)
O10A O 1.1640(4) 0.3529(4) 0.5767(3)
O10A_2 O 0.1640(4) 0.3529(4) 0.5767(3)
O11A O 0.9877(4) 0.5131(4) 0.6308(3)
O11_2 O 0.0123(4) 0.4869(4) 0.3692(3)
O12A O 0.3325(4) 1.0786(3) 0.5599(3)
O12A_2 O 0.3325(4) 0.0786(3) 0.5599(3)
O13A O 0.4939(4) 0.8497(3) 0.6256(3)
O13_2 O 0.5061(4) 0.1503(3) 0.3744(3)
N1A N 0.3569(5) 1.1620(4) 0.0112(3)
H9A H 0.3768 1.2436 -0.0386
C1A C 0.3991(7) 1.1318(6) 0.1177(4)
H10A H 0.4459 1.1989 0.1385
C2A C 0.3724(7) 0.9978(6) 0.1985(4)
H11A H 0.4040 0.9742 0.2739
C3A C 0.3014(7) 0.9022(6) 0.1689(4)
H12A H 0.2844 0.8133 0.2241
C4A C 0.2526(6) 0.9341(5) 0.0566(4)
C5A C 0.1756(7) 0.8407(5) 0.0180(4)
C6A C 0.1351(7) 0.8860(6) -0.0952(4)
H13A H 0.0854 0.8243 -0.1206
C7A C 0.1658(7) 1.0222(6) -0.1748(4)
H14A H 0.1350 1.0491 -0.2507
C8A C 0.2407(7) 1.1146(5) -0.1405(4)
C9A C 0.2834(6) 1.0703(5) -0.0237(4)
C10A C 0.1458(7) 0.6908(5) 0.0997(4)
H15A H 0.1274 0.6959 0.1729
H16A H 0.0406 0.6699 0.0742
C11A C 0.4401(7) 0.5732(5) 0.4621(4)
C12A C 1.0433(6) 0.4619(5) 0.5607(4)
C13A C 0.4472(6) 0.9809(5) 0.5534(4)
O4 O 0.8689(5) 0.1023(4) 0.5798(3)
H4 H 0.8993 0.1821 0.5361
H5 H 0.7608 0.1179 0.5877
O6 O 0.2379(5) 0.6794(5) 0.7377(3)
H6 H 0.2109 0.7728 0.7040
H7 H 0.1989 0.6380 0.6981
loop_
_geom_bond_atom_site_label_1
_geom_bond_atom_site_label_2
_geom_bond_site_symmetry_1
_geom_bond_site_symmetry_2
Tb1 O1 1_555 1_555
P1 O1 1_555 1_555
O2 Tb1 1_555 1_555
H1 O2 1_555 1_555
H2 O2 1_555 1_555
O3 P1 1_555 1_555
H3 O3 1_555 1_555
O4 H4 1_555 1_555
H5 O4 1_555 1_555
O5 P1 1_555 1_555
O6 H6 1_555 1_555
H7 O6 1_555 1_555
O7 H8 1_555 1_555
O8 Tb1 1_555 1_555
O9 C11 1_555 1_555
O10 Tb1 1_555 1_555
O11 C12 1_555 1_555
O12 Tb1 1_555 1_555
O13 C13 1_555 1_555
N1 H9 1_555 1_555
C1 N1 1_555 1_555
H10 C1 1_555 1_555
C2 C1 1_555 1_555
H11 C2 1_555 1_555
C3 C2 1_555 1_555
H12 C3 1_555 1_555
C4 C3 1_555 1_555
C5 C4 1_555 1_555
C6 C5 1_555 1_555
H13 C6 1_555 1_555
C7 C6 1_555 1_555
H14 C7 1_555 1_555
C8 O7 1_555 1_555
C9 N1 1_555 1_555
C10 P1 1_555 1_555
H15 C10 1_555 1_555
H16 C10 1_555 1_555
C11 O8 1_555 1_555
C12 O10 1_555 1_555
C13 O12 1_555 1_555
Tb1A O9 1_555 1_555
Tb1A_2 O13 1_555 1_555
Tb1A_3 O11 1_555 1_555
P1A O1A 1_555 1_555
O1A Tb1A 1_555 1_555
O2A Tb1A 1_555 1_555
H1A O2A 1_555 1_555
H2A O2A 1_555 1_555
O3A P1A 1_555 1_555
H3A O3A 1_555 1_555
O5A P1A 1_555 1_555
O7A H8A 1_555 1_555
O8A Tb1A 1_555 1_555
O9A Tb1 1_555 1_555
O10A Tb1A_3 1_555 1_555
O10A_2 Tb1A 1_555 1_555
O11A Tb1 1_555 1_555
O11_2 Tb1A 1_555 1_555
O12A Tb1A_2 1_555 1_555
O12A_2 Tb1A 1_555 1_555
O13A Tb1 1_555 1_555
O13_2 Tb1A 1_555 1_555
N1A H9A 1_555 1_555
C1A N1A 1_555 1_555
H10A C1A 1_555 1_555
C2A C1A 1_555 1_555
H11A C2A 1_555 1_555
C3A C2A 1_555 1_555
H12A C3A 1_555 1_555
C4A C3A 1_555 1_555
C5A C4A 1_555 1_555
C6A C5A 1_555 1_555
H13A C6A 1_555 1_555
C7A C6A 1_555 1_555
H14A C7A 1_555 1_555
C8A O7A 1_555 1_555
C9A N1A 1_555 1_555
C10A P1A 1_555 1_555
H15A C10A 1_555 1_555
H16A C10A 1_555 1_555
C11A C11 1_555 1_555
C12A C12 1_555 1_555
C13A C13 1_555 1_555
C4 C9 1_555 1_555
C5 C10 1_555 1_555
C7 C8 1_555 1_555
C8 C9 1_555 1_555
O8A C11A 1_555 1_555
O9A C11A 1_555 1_555
O10A C12A 1_555 1_555
O11A C12A 1_555 1_555
O12A C13A 1_555 1_555
O13A C13A 1_555 1_555
C4A C9A 1_555 1_555
C5A C10A 1_555 1_555
C7A C8A 1_555 1_555
C8A C9A 1_555 1_555

#END
