
#######################################################################
#
#                 Cambridge Crystallographic Data Centre
#                                CCDC 
#
#######################################################################
#
# If this CIF has been generated from an entry in the Cambridge 
# Structural Database, then it will include bibliographic, chemical, 
# crystal, experimental, refinement or atomic coordinate data resulting 
# from the CCDC's data processing and validation procedures.
#
#######################################################################

data_VEDCUE
_symmetry_cell_setting           monoclinic
_symmetry_space_group_name_H-M   'P 21/c'
_symmetry_Int_Tables_number      14
_space_group_name_Hall           '-P 2ybc'
loop_
_symmetry_equiv_pos_site_id
_symmetry_equiv_pos_as_xyz
1 x,y,z
2 -x,1/2+y,1/2-z
3 -x,-y,-z
4 x,1/2-y,1/2+z
_cell_length_a                   7.7723(5)
_cell_length_b                   9.8812(7)
_cell_length_c                   14.8483(11)
_cell_angle_alpha                90
_cell_angle_beta                 90.404(6)
_cell_angle_gamma                90
_cell_volume                     1140.32
loop_
_atom_site_label
_atom_site_type_symbol
_atom_site_fract_x
_atom_site_fract_y
_atom_site_fract_z
Li1 Li -0.5605(8) 0.6592(6) 0.7232(4)
C1 C -0.6422(4) 0.1523(3) 0.5989(2)
O1 O -0.5694(3) 0.1150(2) 0.66867(16)
N1 N -0.7709(5) 0.0849(4) 0.5624(3)
H1 H -0.811(6) 0.106(4) 0.508(3)
H2 H -0.820(5) 0.018(4) 0.596(3)
C2 C -0.5947(5) 0.2815(4) 0.5507(2)
H3 H -0.6064 0.2672 0.4863
H4 H -0.6753 0.3518 0.5677
N2 N -0.4243(4) 0.3275(3) 0.56971(19)
C3 C -0.2732(5) 0.2578(4) 0.5372(3)
H5 H -0.2800 0.2435 0.4726
H6 H -0.2585 0.1712 0.5669
C4 C -0.1280(7) 0.3540(5) 0.5613(4)
H7 H -0.0363 0.3060 0.5924
H8 H -0.0812 0.3950 0.5074
C5 C -0.2034(5) 0.4600(4) 0.6212(3)
H9 H -0.1649 0.4474 0.6829
H10 H -0.1700 0.5497 0.6014
C6 C -0.3921(5) 0.4425(3) 0.6139(2)
O2 O -0.5033(4) 0.5184(3) 0.64182(17)
O3 O -0.4894(3) 0.8312(2) 0.67647(17)
H11 H -0.3541 0.8248 0.6628
H12 H -0.5553 0.9155 0.6703
O4 O -0.8014(4) 0.6442(4) 0.7427(3)
H13 H -0.883(5) 0.695(4) 0.719(3)
H14 H -0.848(6) 0.569(3) 0.763(3)
Li1A Li -0.4395(8) 0.1592(6) 0.7768(4)
O1A O -0.4306(3) 0.6150(2) 0.83133(16)
Br1 Br 0.06739(5) 0.13894(4) 0.34945(3)
loop_
_geom_bond_atom_site_label_1
_geom_bond_atom_site_label_2
_geom_bond_site_symmetry_1
_geom_bond_site_symmetry_2
Li1 O2 1_555 1_555
C1 O1 1_555 1_555
O1 Li1A 1_555 1_555
N1 C1 1_555 1_555
H1 N1 1_555 1_555
H2 N1 1_555 1_555
C2 C1 1_555 1_555
H3 C2 1_555 1_555
H4 C2 1_555 1_555
N2 C2 1_555 1_555
C3 N2 1_555 1_555
H5 C3 1_555 1_555
H6 C3 1_555 1_555
C4 C3 1_555 1_555
H7 C4 1_555 1_555
H8 C4 1_555 1_555
C5 C4 1_555 1_555
H9 C5 1_555 1_555
H10 C5 1_555 1_555
C6 N2 1_555 1_555
O2 C6 1_555 1_555
O3 Li1 1_555 1_555
H11 O3 1_555 1_555
H12 O3 1_555 1_555
O4 Li1 1_555 1_555
H13 O4 1_555 1_555
H14 O4 1_555 1_555
O1A Li1 1_555 1_555
C5 C6 1_555 1_555

#END
