
#######################################################################
#
#                 Cambridge Crystallographic Data Centre
#                                CCDC 
#
#######################################################################
#
# If this CIF has been generated from an entry in the Cambridge 
# Structural Database, then it will include bibliographic, chemical, 
# crystal, experimental, refinement or atomic coordinate data resulting 
# from the CCDC's data processing and validation procedures.
#
#######################################################################

data_VEDDEP
_symmetry_cell_setting           monoclinic
_symmetry_space_group_name_H-M   'P 21/c'
_symmetry_Int_Tables_number      14
_space_group_name_Hall           '-P 2ybc'
loop_
_symmetry_equiv_pos_site_id
_symmetry_equiv_pos_as_xyz
1 x,y,z
2 -x,1/2+y,1/2-z
3 -x,-y,-z
4 x,1/2-y,1/2+z
_cell_length_a                   7.5347(11)
_cell_length_b                   9.7992(12)
_cell_length_c                   14.732(3)
_cell_angle_alpha                90
_cell_angle_beta                 91.596(13)
_cell_angle_gamma                90
_cell_volume                     1087.3
loop_
_atom_site_label
_atom_site_type_symbol
_atom_site_fract_x
_atom_site_fract_y
_atom_site_fract_z
Li1 Li -0.5634(8) 0.6605(6) 0.7244(4)
C1 C -0.6499(5) 0.1488(3) 0.5959(2)
O1 O -0.5762(3) 0.1133(2) 0.66765(17)
N1 N -0.7816(5) 0.0799(4) 0.5581(3)
H1 H -0.816(7) 0.104(5) 0.514(3)
H2 H -0.824(6) 0.011(4) 0.586(3)
C2 C -0.6003(5) 0.2776(3) 0.5472(3)
H3 H -0.6095 0.2612 0.4823
H4 H -0.6854 0.3481 0.5615
N2 N -0.4255(4) 0.3270(3) 0.5692(2)
C3 C -0.2667(6) 0.2589(4) 0.5396(3)
H5 H -0.2717 0.2437 0.4746
H6 H -0.2506 0.1720 0.5703
C4 C -0.1200(7) 0.3565(6) 0.5656(5)
H7 H -0.0719 0.3982 0.5119
H8 H -0.0250 0.3090 0.5983
C5 C -0.2010(5) 0.4635(4) 0.6253(3)
H9 H -0.1627 0.4511 0.6882
H10 H -0.1680 0.5544 0.6060
C6 C -0.3957(5) 0.4423(3) 0.6140(2)
O2 O -0.5131(4) 0.5177(2) 0.64053(18)
O3 O -0.4827(3) 0.8315(2) 0.67782(19)
H11 H -0.3541 0.8248 0.6628
H12 H -0.5553 0.9155 0.6703
O4 O -0.8141(3) 0.6475(3) 0.7433(2)
H13 H -0.8459 0.5517 0.7601
H14 H -0.8809 0.6710 0.6855
Li1A Li -0.4366(8) 0.1605(6) 0.7756(4)
O1A O -0.4238(3) 0.6133(2) 0.83235(17)
Cl1 Cl 0.06606(13) 0.13331(9) 0.34859(7)
loop_
_geom_bond_atom_site_label_1
_geom_bond_atom_site_label_2
_geom_bond_site_symmetry_1
_geom_bond_site_symmetry_2
Li1 O2 1_555 1_555
C1 O1 1_555 1_555
O1 Li1A 1_555 1_555
N1 C1 1_555 1_555
H1 N1 1_555 1_555
H2 N1 1_555 1_555
C2 C1 1_555 1_555
H3 C2 1_555 1_555
H4 C2 1_555 1_555
N2 C2 1_555 1_555
C3 N2 1_555 1_555
H5 C3 1_555 1_555
H6 C3 1_555 1_555
C4 C3 1_555 1_555
H7 C4 1_555 1_555
H8 C4 1_555 1_555
C5 C4 1_555 1_555
H9 C5 1_555 1_555
H10 C5 1_555 1_555
C6 N2 1_555 1_555
O2 C6 1_555 1_555
O3 Li1 1_555 1_555
H11 O3 1_555 1_555
H12 O3 1_555 1_555
O4 Li1 1_555 1_555
H13 O4 1_555 1_555
H14 O4 1_555 1_555
O1A Li1 1_555 1_555
C5 C6 1_555 1_555

#END
