
#######################################################################
#
#                 Cambridge Crystallographic Data Centre
#                                CCDC 
#
#######################################################################
#
# If this CIF has been generated from an entry in the Cambridge 
# Structural Database, then it will include bibliographic, chemical, 
# crystal, experimental, refinement or atomic coordinate data resulting 
# from the CCDC's data processing and validation procedures.
#
#######################################################################

data_VEDDIT
_symmetry_cell_setting           monoclinic
_symmetry_space_group_name_H-M   'C 2/c'
_symmetry_Int_Tables_number      15
_space_group_name_Hall           '-C 2yn'
loop_
_symmetry_equiv_pos_site_id
_symmetry_equiv_pos_as_xyz
1 x,y,z
2 -x,y,1/2-z
3 1/2+x,1/2+y,z
4 1/2-x,1/2+y,1/2-z
5 -x,-y,-z
6 x,-y,1/2+z
7 1/2-x,1/2-y,-z
8 1/2+x,1/2-y,1/2+z
_cell_length_a                   17.3797(4)
_cell_length_b                   16.6989(3)
_cell_length_c                   21.4272(5)
_cell_angle_alpha                90
_cell_angle_beta                 107.578(2)
_cell_angle_gamma                90
_cell_volume                     5928.27
loop_
_atom_site_label
_atom_site_type_symbol
_atom_site_fract_x
_atom_site_fract_y
_atom_site_fract_z
C1 C 0.0574(4) 0.4334(4) 0.8491(3)
C2 C 0.2599(4) 0.5785(5) 0.8645(4)
H1 H 0.3033 0.6117 0.8656
C3 C 0.2688(4) 0.5151(5) 0.9075(3)
C4 C 0.2023(4) 0.4677(4) 0.9035(3)
H2 H 0.2060 0.4256 0.9327
C5 C -0.0089(4) 0.8686(4) 0.9226(3)
C6 C -0.0807(4) 0.3507(4) 0.8388(4)
H3 H -0.1287 0.3244 0.8363
C7 C -0.0007(4) 0.8001(4) 0.8196(3)
H4 H 0.0114 0.8488 0.8038
C8 C -0.0140(4) 0.7952(4) 0.8810(3)
C9 C -0.0818(5) 0.4251(4) 0.8116(4)
H5 H -0.1313 0.4481 0.7896
C10 C -0.0325(4) 0.6549(5) 0.8633(3)
H6 H -0.0426 0.6051 0.8785
C11 C -0.0066(4) 0.3149(4) 0.8703(3)
C12 C -0.0059(4) 0.7316(4) 0.7836(3)
C13 C -0.0012(4) 0.2299(4) 0.8956(3)
C14 C 0.1299(4) 0.4835(4) 0.8554(3)
C15 C -0.0301(5) 0.7213(4) 0.9025(3)
H7 H -0.0392 0.7160 0.9429
C16 C 0.1841(4) 0.5916(5) 0.8191(4)
H8 H 0.1777 0.6355 0.7913
C17 C 0.0621(4) 0.3568(5) 0.8758(3)
H9 H 0.1121 0.3345 0.8974
C18 C 0.3464(4) 0.4941(4) 0.9595(3)
Dy1 Dy -0.021680(19) 0.932300(18) 1.069090(14)
N1 N -0.0209(3) 0.6595(3) 0.8049(2)
N2 N 0.1214(4) 0.5450(3) 0.8138(3)
N3 N -0.0144(3) 0.4660(4) 0.8155(3)
O1 O -0.0304(3) 0.8616(3) 0.9732(2)
O2 O 0.3427(3) 0.4451(3) 1.0023(3)
O3 O 0.4104(3) 0.5269(3) 0.9586(2)
O4 O -0.0630(3) 0.1939(3) 0.8990(2)
O5 O 0.0672(3) 0.1974(3) 0.9115(3)
O6 O 0.0154(3) 0.9324(3) 0.9028(2)
O7 O 0.0639(4) 0.9393(3) 1.1784(3)
H10 H 0.0370 0.9288 1.2113
H11 H 0.0898 0.9912 1.1915
O8 O -0.1127(4) 0.9443(4) 1.1354(3)
H12 H -0.1013 0.9884 1.1632
H13 H -0.1109 0.9001 1.1622
Zn1 Zn 0.0000 0.56101(6) 0.7500
C1A C -0.0574(4) 0.4334(4) 0.6509(3)
C2A C -0.2599(4) 0.5785(5) 0.6355(4)
H1A H -0.3033 0.6117 0.6344
C3A C -0.2688(4) 0.5151(5) 0.5925(3)
C4A C -0.2023(4) 0.4677(4) 0.5965(3)
H2A H -0.2060 0.4256 0.5673
C5A C 0.0089(4) 0.8686(4) 0.5774(3)
C6A C 0.0807(4) 0.3507(4) 0.6612(4)
H3A H 0.1287 0.3244 0.6637
C7A C 0.0007(4) 0.8001(4) 0.6804(3)
H4A H -0.0114 0.8488 0.6962
C8A C 0.0140(4) 0.7952(4) 0.6190(3)
C9A C 0.0818(5) 0.4251(4) 0.6884(4)
H5A H 0.1313 0.4481 0.7104
C10A C 0.0325(4) 0.6549(5) 0.6367(3)
H6A H 0.0426 0.6051 0.6215
C11A C 0.0066(4) 0.3149(4) 0.6297(3)
C12A C 0.0059(4) 0.7316(4) 0.7164(3)
C13A C 0.0012(4) 0.2299(4) 0.6044(3)
C14A C -0.1299(4) 0.4835(4) 0.6446(3)
C15A C 0.0301(5) 0.7213(4) 0.5975(3)
H7A H 0.0392 0.7160 0.5571
C16A C -0.1841(4) 0.5916(5) 0.6809(4)
H8A H -0.1777 0.6355 0.7087
C17A C -0.0621(4) 0.3568(5) 0.6242(3)
H9A H -0.1121 0.3345 0.6026
C18A C -0.3464(4) 0.4941(4) 0.5405(3)
Dy1A Dy 0.021680(19) 0.932300(18) 0.430910(14)
Dy1B Dy 0.478320(19) 0.432300(18) 1.069090(14)
Dy1F Dy 0.521680(19) 0.567700(18) 0.930910(14)
Dy1D Dy 0.021680(19) 0.067700(18) 0.930910(14)
Dy1D_2 Dy 0.021680(19) 1.067700(18) 0.930910(14)
Dy1E Dy -0.021680(19) 1.067700(18) 0.569090(14)
Dy1C Dy -0.478320(19) 0.432300(18) 0.430910(14)
Dy1G Dy -0.521680(19) 0.567700(18) 0.569090(14)
Dy1E_2 Dy -0.021680(19) 0.067700(18) 0.569090(14)
N1A N 0.0209(3) 0.6595(3) 0.6951(2)
N2A N -0.1214(4) 0.5450(3) 0.6862(3)
N3A N 0.0144(3) 0.4660(4) 0.6845(3)
O1A O 0.0304(3) 0.8616(3) 0.5268(2)
O2A O -0.3427(3) 0.4451(3) 0.4977(3)
O2B O -0.1573(3) 0.9451(3) 1.0023(3)
O2C O 0.1573(3) 0.9451(3) 0.4977(3)
O3A O -0.4104(3) 0.5269(3) 0.5414(2)
O3F O 0.0896(3) 0.9731(3) 1.0414(2)
O3B O -0.0896(3) 1.0269(3) 0.9586(2)
O3G O -0.0896(3) 0.9731(3) 0.4586(2)
O3C O 0.0896(3) 1.0269(3) 0.5414(2)
O4A O 0.0630(3) 0.1939(3) 0.6010(2)
O4D O 0.0630(3) 0.8061(3) 1.1010(2)
O4E O -0.0630(3) 0.8061(3) 0.3990(2)
O5A O -0.0672(3) 0.1974(3) 0.5885(3)
O5D O -0.0672(3) 0.8026(3) 1.0885(3)
O5E O 0.0672(3) 0.8026(3) 0.4115(3)
O6A O -0.0154(3) 0.9324(3) 0.5972(2)
O6D O -0.0154(3) 1.0676(3) 1.0972(2)
O6E O 0.0154(3) 1.0676(3) 0.4028(2)
O7A O -0.0639(4) 0.9393(3) 0.3216(3)
H10A H -0.0370 0.9288 0.2887
H11A H -0.0898 0.9912 0.3085
O8A O 0.1127(4) 0.9443(4) 0.3646(3)
H12A H 0.1013 0.9884 0.3368
H13A H 0.1109 0.9001 0.3378
Cl2 Cl 0.3131(2) 0.3987(2) 0.72082(17)
O18 O 0.3166(7) 0.3132(7) 0.7061(6)
O19 O 0.2896(7) 0.4094(7) 0.7778(5)
O20 O 0.3922(5) 0.4369(5) 0.7303(4)
O21 O 0.2577(7) 0.4348(10) 0.6641(7)
O9 O 0.0857(5) 0.1801(4) 0.7684(3)
O10 O 0.2896(9) 0.0932(10) 0.9224(8)
O11 O 0.0879(9) 0.5255(12) 0.0118(7)
O12 O 0.1940(5) 0.2483(6) 0.0330(4)
O13 O 0.2839(12) 0.2196(6) 0.7996(9)
O22 O 0.8568(10) 0.3023(13) 0.9752(8)
Cl1? Cl 0.2616(4) 0.3015(4) 0.8014(3)
O14? O 0.3161(7) 0.3418(8) 0.8568(5)
O15? O 0.2631(11) 0.3417(13) 0.7424(6)
O16? O 0.1815(7) 0.3059(15) 0.8079(11)
O17? O 0.218(3) 0.280(3) 0.827(2)
O23? O 0.8415(9) 0.2200(15) 0.9833(9)
loop_
_geom_bond_atom_site_label_1
_geom_bond_atom_site_label_2
_geom_bond_site_symmetry_1
_geom_bond_site_symmetry_2
C1 C14 1_555 1_555
C2 H1 1_555 1_555
C3 C2 1_555 1_555
C4 C3 1_555 1_555
H2 C4 1_555 1_555
C5 C8 1_555 1_555
C6 H3 1_555 1_555
C7 H4 1_555 1_555
C8 C7 1_555 1_555
C9 C6 1_555 1_555
H5 C9 1_555 1_555
C10 H6 1_555 1_555
C11 C6 1_555 1_555
C12 C7 1_555 1_555
C13 C11 1_555 1_555
C14 C4 1_555 1_555
C15 C8 1_555 1_555
H7 C15 1_555 1_555
C16 C2 1_555 1_555
H8 C16 1_555 1_555
C17 C1 1_555 1_555
H9 C17 1_555 1_555
C18 C3 1_555 1_555
Cl2 O18 1_555 1_555
Dy1 O1 1_555 1_555
N1 C10 1_555 1_555
N2 C14 1_555 1_555
N3 C1 1_555 1_555
O1 C5 1_555 1_555
O2 C18 1_555 1_555
O3 C18 1_555 1_555
O4 C13 1_555 1_555
O5 C13 1_555 1_555
O6 C5 1_555 1_555
O7 Dy1 1_555 1_555
H10 O7 1_555 1_555
H11 O7 1_555 1_555
O8 Dy1 1_555 1_555
H12 O8 1_555 1_555
H13 O8 1_555 1_555
O19 Cl2 1_555 1_555
O20 Cl2 1_555 1_555
O21 Cl2 1_555 1_555
Zn1 N1 1_555 1_555
C1A C14A 1_555 1_555
C2A H1A 1_555 1_555
C3A C2A 1_555 1_555
C4A C3A 1_555 1_555
H2A C4A 1_555 1_555
C5A C8A 1_555 1_555
C6A H3A 1_555 1_555
C7A H4A 1_555 1_555
C8A C7A 1_555 1_555
C9A C6A 1_555 1_555
H5A C9A 1_555 1_555
C10A H6A 1_555 1_555
C11A C6A 1_555 1_555
C12A C12 1_555 1_555
C13A C11A 1_555 1_555
C14A C4A 1_555 1_555
C15A C8A 1_555 1_555
H7A C15A 1_555 1_555
C16A C2A 1_555 1_555
H8A C16A 1_555 1_555
C17A C1A 1_555 1_555
H9A C17A 1_555 1_555
C18A C3A 1_555 1_555
Dy1A O1A 1_555 1_555
Dy1B O2 1_555 1_555
Dy1F O3 1_555 1_555
Dy1D O4 1_555 1_555
Dy1D_2 O6 1_555 1_555
Dy1E O3G 1_555 1_555
Dy1C O2A 1_555 1_555
Dy1G O3A 1_555 1_555
Dy1E_2 O4A 1_555 1_555
N1A Zn1 1_555 1_555
N2A Zn1 1_555 1_555
N3A Zn1 1_555 1_555
O1A C5A 1_555 1_555
O2A C18A 1_555 1_555
O2B Dy1 1_555 1_555
O2C Dy1A 1_555 1_555
O3A C18A 1_555 1_555
O3F Dy1 1_555 1_555
O3B Dy1 1_555 1_555
O3G Dy1A 1_555 1_555
O3C Dy1A 1_555 1_555
O4A C13A 1_555 1_555
O4D Dy1 1_555 1_555
O4E Dy1A 1_555 1_555
O5A C13A 1_555 1_555
O5D Dy1 1_555 1_555
O5E Dy1A 1_555 1_555
O6A C5A 1_555 1_555
O6D Dy1 1_555 1_555
O6E Dy1A 1_555 1_555
O7A Dy1A 1_555 1_555
H10A O7A 1_555 1_555
H11A O7A 1_555 1_555
O8A Dy1A 1_555 1_555
H12A O8A 1_555 1_555
H13A O8A 1_555 1_555
C9 N3 1_555 1_555
C10 C15 1_555 1_555
C11 C17 1_555 1_555
C12 N1 1_555 1_555
C16 N2 1_555 1_555
N2 Zn1 1_555 1_555
N3 Zn1 1_555 1_555
O3 Dy1B 1_555 1_555
O5 Dy1D 1_555 1_555
C1A N3A 1_555 1_555
C7A C12A 1_555 1_555
C9A N3A 1_555 1_555
C10A C15A 1_555 1_555
C10A N1A 1_555 1_555
C11A C17A 1_555 1_555
C12A N1A 1_555 1_555
C14A N2A 1_555 1_555
C16A N2A 1_555 1_555
Dy1D_2 O3F 1_555 1_555
Dy1D_2 O3B 1_555 1_555
Dy1E O3C 1_555 1_555
Dy1E O6A 1_555 1_555
Dy1C O3A 1_555 1_555
Dy1E_2 O5A 1_555 1_555

#END
