
#######################################################################
#
#                 Cambridge Crystallographic Data Centre
#                                CCDC 
#
#######################################################################
#
# If this CIF has been generated from an entry in the Cambridge 
# Structural Database, then it will include bibliographic, chemical, 
# crystal, experimental, refinement or atomic coordinate data resulting 
# from the CCDC's data processing and validation procedures.
#
#######################################################################

data_VEDFUH
_symmetry_cell_setting           orthorhombic
_symmetry_space_group_name_H-M   'P 21 21 21'
_symmetry_Int_Tables_number      19
_space_group_name_Hall           'P 2ac 2ab'
loop_
_symmetry_equiv_pos_site_id
_symmetry_equiv_pos_as_xyz
1 x,y,z
2 1/2-x,-y,1/2+z
3 1/2+x,1/2-y,-z
4 -x,1/2+y,1/2-z
_cell_length_a                   11.379(3)
_cell_length_b                   13.386(4)
_cell_length_c                   25.904(8)
_cell_angle_alpha                90
_cell_angle_beta                 90
_cell_angle_gamma                90
_cell_volume                     3945.68
loop_
_atom_site_label
_atom_site_type_symbol
_atom_site_fract_x
_atom_site_fract_y
_atom_site_fract_z
Co1 Co 0.84432(5) 0.44353(5) 0.42199(2)
Co2 Co 1.09813(5) 0.55392(5) 0.36133(2)
O1 O 0.9163(3) 0.5730(2) 0.38498(12)
H1 H 0.9112 0.6304 0.4090
H2 H 0.8683 0.5890 0.3542
O2 O 0.4715(3) 0.7695(3) 0.56333(16)
O3 O 0.7196(3) 0.6033(3) 0.33633(18)
O4 O 0.6985(3) 0.4510(3) 0.37352(13)
O5 O 0.6460(3) 0.8262(3) 0.59254(15)
O6 O 0.9256(3) 0.3495(3) 0.36743(13)
O7 O 1.0492(3) 0.4363(3) 0.31623(13)
O8 O 1.1407(3) 0.4535(3) 0.42034(14)
O9 O 0.9842(3) 0.4363(3) 0.47309(12)
N1 N 1.2657(4) 0.1820(3) 0.54101(17)
N2 N 0.9317(4) 0.1544(3) 0.20251(16)
N3 N 0.7575(4) 0.5421(3) 0.47677(17)
N4 N 0.2826(4) 0.5436(3) 0.34269(15)
C1 C 0.3400(5) 0.4556(4) 0.3466(2)
H3 H 0.2949 0.3959 0.3478
C2 C 1.2886(7) 0.1982(7) 0.4909(3)
H4 H 1.3447 0.1570 0.4740
C3 C 0.9930(5) 0.2396(4) 0.1960(2)
H5 H 1.0254 0.2536 0.1630
C4 C 1.2322(7) 0.2749(6) 0.4621(3)
H6 H 1.2489 0.2848 0.4266
C5 C 0.6382(5) 0.5496(5) 0.4776(2)
H7 H 0.5935 0.5024 0.4584
C6 C 0.6424(5) 0.6866(4) 0.5353(2)
C7 C 0.9805(5) 0.3654(4) 0.32683(19)
C8 C 1.1505(5) 0.3354(4) 0.4883(2)
C9 C 1.0108(6) 0.3074(4) 0.2355(2)
H8 H 1.0543 0.3667 0.2291
C10 C 0.8876(5) 0.1355(4) 0.24960(19)
H9 H 0.8453 0.0752 0.2550
C11 C 0.3472(5) 0.6262(4) 0.3391(2)
H10 H 0.3083 0.6887 0.3362
C12 C 0.7653(5) 0.6786(5) 0.5359(2)
H11 H 0.8113 0.7227 0.5563
C13 C 1.1857(5) 0.2393(4) 0.5641(2)
H12 H 1.1693 0.2280 0.5996
C14 C 1.0865(5) 0.4151(4) 0.45779(18)
C15 C 0.9662(5) 0.2898(4) 0.2835(2)
C16 C 0.5795(5) 0.7678(4) 0.5656(2)
C17 C 0.8191(5) 0.6045(4) 0.5059(2)
H13 H 0.9023 0.5987 0.5065
C18 C 1.1248(5) 0.3155(4) 0.5387(2)
H14 H 1.0662 0.3529 0.5563
C19 C 0.5789(5) 0.6227(4) 0.5051(2)
H15 H 0.4958 0.6283 0.5030
C20 C 0.9019(6) 0.2021(4) 0.2913(2)
H16 H 0.8685 0.1876 0.3241
C21 C 0.4709(5) 0.6243(4) 0.3394(2)
H17 H 0.5149 0.6843 0.3360
C22 C 0.4587(5) 0.4483(4) 0.34897(19)
H18 H 0.4950 0.3850 0.3535
C23 C 0.5269(4) 0.5337(4) 0.34475(18)
C24 C 0.6586(5) 0.5302(4) 0.35149(19)
Co1B Co 1.34432(5) 0.05647(5) 0.57801(2)
Co2B Co 0.59813(5) 0.94608(5) 0.63867(2)
Co2C Co 0.90187(5) 0.05392(5) 0.13867(2)
Co2_2 Co 0.09813(5) 0.55392(5) 0.36133(2)
O5B O 1.1460(3) 0.6738(3) 0.40746(15)
N1B N 0.7657(4) 0.3180(3) 0.45899(17)
N2C N 1.0683(4) 0.6544(3) 0.29749(16)
N4_2 N 1.2826(4) 0.5436(3) 0.34269(15)
C25 C 1.338(3) 0.439(3) 0.1282(12)
C26 C 1.4511(16) 0.4350(15) 0.1585(7)
C27 C 1.4606(17) 0.3959(15) 0.2039(8)
C28 C 1.6758(16) 0.3941(17) 0.1990(9)
C29 C 1.662(3) 0.429(3) 0.1451(8)
C30 C 1.535(3) 0.4559(17) 0.1248(8)
C32 C 1.5659(12) 0.3658(8) 0.2283(4)
C33 C 1.242(3) 0.356(2) 0.1351(12)
O11 O 1.2265(14) 0.4455(13) 0.1675(6)
C31? C 1.2253(16) 0.1316(17) 0.2794(7)
O10? O 1.2276(12) 0.2087(10) 0.3236(5)
C34? C 1.441(2) 0.3460(14) 0.2366(8)
C35? C 1.4057(15) 0.2548(18) 0.2697(7)
C36? C 1.461(3) 0.176(2) 0.2977(7)
C37? C 1.6022(19) 0.2220(17) 0.2935(9)
C38? C 1.6388(19) 0.3059(13) 0.2610(6)
C39? C 1.2655(17) 0.2494(14) 0.2746(8)
loop_
_geom_bond_atom_site_label_1
_geom_bond_atom_site_label_2
_geom_bond_site_symmetry_1
_geom_bond_site_symmetry_2
Co1 O1 1_555 1_555
Co2 O1 1_555 1_555
O1 H1 1_555 1_555
H2 O1 1_555 1_555
O2 C16 1_555 1_555
O3 C24 1_555 1_555
O4 Co1 1_555 1_555
O5 C16 1_555 1_555
O6 Co1 1_555 1_555
O7 Co2 1_555 1_555
O8 Co2 1_555 1_555
O9 Co1 1_555 1_555
N1 C2 1_555 1_555
N2 C3 1_555 1_555
N3 Co1 1_555 1_555
N4 C1 1_555 1_555
C1 H3 1_555 1_555
C2 H4 1_555 1_555
C3 H5 1_555 1_555
C4 C2 1_555 1_555
H6 C4 1_555 1_555
C5 N3 1_555 1_555
H7 C5 1_555 1_555
C6 C12 1_555 1_555
C7 O6 1_555 1_555
C8 C4 1_555 1_555
C9 C3 1_555 1_555
H8 C9 1_555 1_555
C10 N2 1_555 1_555
H9 C10 1_555 1_555
C11 N4 1_555 1_555
H10 C11 1_555 1_555
C12 H11 1_555 1_555
C13 N1 1_555 1_555
H12 C13 1_555 1_555
C14 O8 1_555 1_555
C15 C7 1_555 1_555
C16 C6 1_555 1_555
C17 N3 1_555 1_555
H13 C17 1_555 1_555
C18 C8 1_555 1_555
H14 C18 1_555 1_555
C19 C5 1_555 1_555
H15 C19 1_555 1_555
C20 C10 1_555 1_555
H16 C20 1_555 1_555
C21 C11 1_555 1_555
H17 C21 1_555 1_555
C22 C1 1_555 1_555
H18 C22 1_555 1_555
C23 C21 1_555 1_555
C24 O4 1_555 1_555
C25 C26 1_555 1_555
C26 C27 1_555 1_555
C27 C32 1_555 1_555
C28 C29 1_555 1_555
C29 C30 1_555 1_555
C30 C26 1_555 1_555
C32 C28 1_555 1_555
C33 C25 1_555 1_555
O11 C25 1_555 1_555
Co1B N1 1_555 1_555
Co2B O5 1_555 1_555
Co2C N2 1_555 1_555
Co2_2 N4 1_555 1_555
O5B Co2 1_555 1_555
N1B Co1 1_555 1_555
N2C Co2 1_555 1_555
N4_2 Co2 1_555 1_555
O7 C7 1_555 1_555
O9 C14 1_555 1_555
C6 C19 1_555 1_555
C8 C14 1_555 1_555
C9 C15 1_555 1_555
C12 C17 1_555 1_555
C13 C18 1_555 1_555
C15 C20 1_555 1_555
C22 C23 1_555 1_555
C23 C24 1_555 1_555
C33 O11 1_555 1_555

#END
