
#######################################################################
#
#                 Cambridge Crystallographic Data Centre
#                                CCDC 
#
#######################################################################
#
# If this CIF has been generated from an entry in the Cambridge 
# Structural Database, then it will include bibliographic, chemical, 
# crystal, experimental, refinement or atomic coordinate data resulting 
# from the CCDC's data processing and validation procedures.
#
#######################################################################

data_VEDLAT
_symmetry_cell_setting           orthorhombic
_symmetry_space_group_name_H-M   'P b c n'
_symmetry_Int_Tables_number      60
_space_group_name_Hall           '-P 2n 2ab'
loop_
_symmetry_equiv_pos_site_id
_symmetry_equiv_pos_as_xyz
1 x,y,z
2 1/2-x,1/2-y,1/2+z
3 1/2+x,1/2-y,-z
4 -x,y,1/2-z
5 -x,-y,-z
6 1/2+x,1/2+y,1/2-z
7 1/2-x,1/2+y,z
8 x,-y,1/2+z
_cell_length_a                   21.398(14)
_cell_length_b                   32.298(14)
_cell_length_c                   20.891(21)
_cell_angle_alpha                90
_cell_angle_beta                 90
_cell_angle_gamma                90
_cell_volume                     14438
loop_
_atom_site_label
_atom_site_type_symbol
_atom_site_fract_x
_atom_site_fract_y
_atom_site_fract_z
C1 C -0.2900(8) 0.5977(5) 0.6599(8)
H1 H -0.3239 0.5973 0.6320
C2 C -0.2205(7) 0.6191(5) 0.7204(6)
H2 H -0.1937 0.6356 0.7444
C3 C -0.1804(11) 0.5500(6) 0.7598(9)
H3 H -0.2047 0.5260 0.7726
H4 H -0.1659 0.5637 0.7983
C4 C -0.1254(10) 0.5359(6) 0.7219(9)
C5 C -0.0796(12) 0.5622(8) 0.7080(13)
H5 H -0.0795 0.5888 0.7250
C6 C -0.0316(12) 0.5492(8) 0.6677(12)
H6 H -0.0021 0.5688 0.6553
C7 C -0.0249(11) 0.5105(7) 0.6453(14)
C8 C -0.0660(14) 0.4834(8) 0.6714(12)
H7 H -0.0600 0.4553 0.6642
C9 C -0.1167(15) 0.4956(7) 0.7083(14)
H8 H -0.1446 0.4759 0.7237
C10 C 0.0252(12) 0.4988(7) 0.5988(16)
C11 C 0.0726(14) 0.5249(8) 0.5847(16)
H9 H 0.0753 0.5500 0.6062
C12 C 0.1172(13) 0.5151(8) 0.5389(18)
H10 H 0.1509 0.5325 0.5315
C13 C 0.1106(14) 0.4801(9) 0.5058(15)
C14 C 0.0624(12) 0.4528(8) 0.5182(17)
H11 H 0.0583 0.4286 0.4945
C15 C 0.0201(12) 0.4622(8) 0.5666(16)
H12 H -0.0115 0.4436 0.5770
C16 C 0.1558(11) 0.4689(6) 0.4482(13)
H13 H 0.1849 0.4914 0.4408
H14 H 0.1317 0.4646 0.4095
C17 C 0.2546(10) 0.3940(5) 0.5067(9)
H15 H 0.2890 0.3849 0.5301
C18 C 0.1743(9) 0.3902(6) 0.4456(8)
H16 H 0.1423 0.3822 0.4182
Co1 Co -0.17170(10) 0.86071(7) 0.56804(10)
Co2 Co -0.17812(9) 0.70668(6) 0.38499(9)
Co3 Co -0.29132(9) 0.69522(6) 0.66417(9)
Co4 Co -0.23617(9) 0.77839(6) 0.61411(9)
Co5 Co -0.23720(9) 0.69809(6) 0.52327(9)
Co6 Co -0.17763(9) 0.78507(6) 0.47357(9)
N1 N -0.2622(6) 0.6333(4) 0.6803(5)
N2 N -0.2647(8) 0.5641(5) 0.6834(7)
N3 N -0.2212(7) 0.5790(4) 0.7226(6)
N4 N 0.2409(9) 0.4335(6) 0.5016(9)
N5 N 0.1907(6) 0.4302(5) 0.4651(8)
N6 N 0.2155(7) 0.3666(5) 0.4755(7)
O1 O -0.3718(4) 0.7411(3) 0.4694(4)
O2 O -0.3235(4) 0.8079(3) 0.4311(4)
O3 O -0.3698(5) 0.8037(3) 0.5423(4)
O4 O -0.2697(4) 0.7653(3) 0.5165(4)
O5 O -0.4752(5) 0.8035(4) 0.6069(5)
O6 O -0.5520(5) 0.7358(4) 0.3915(5)
O7 O -0.4583(6) 0.8647(4) 0.3140(6)
O8 O -0.4469(5) 0.8515(3) 0.4489(5)
O9 O -0.3157(5) 0.8843(3) 0.5093(5)
O10 O -0.3341(6) 0.6541(3) 0.3318(5)
O11 O -0.5481(5) 0.8567(4) 0.5337(6)
O12 O -0.4780(5) 0.7022(3) 0.4894(5)
O13 O -0.3514(4) 0.8163(3) 0.3095(4)
O14 O -0.4253(5) 0.8740(3) 0.5682(5)
O15 O -0.2384(5) 0.9230(3) 0.4188(5)
O16 O -0.4948(5) 0.7835(3) 0.4874(6)
O17 O -0.4300(5) 0.7074(3) 0.3735(5)
O18 O -0.3256(5) 0.9129(4) 0.6366(5)
O19 O -0.3201(4) 0.7576(3) 0.6501(4)
O20 O -0.4469(4) 0.7874(4) 0.3749(5)
O21 O -0.3722(5) 0.8325(3) 0.6583(5)
O22 O -0.2462(4) 0.8458(3) 0.3552(4)
O23 O -0.4309(5) 0.7643(3) 0.7195(5)
O24 O -0.3231(4) 0.6851(3) 0.5670(4)
O25 O -0.4337(5) 0.6428(3) 0.5775(5)
O26 O -0.2101(4) 0.7690(3) 0.3832(5)
O27 O -0.3177(5) 0.7412(3) 0.3420(5)
O28 O -0.2096(4) 0.8466(3) 0.4749(4)
O29 O -0.3501(5) 0.8821(3) 0.3846(5)
O30 O -0.4248(5) 0.7285(3) 0.5966(5)
O31 O -0.2621(5) 0.8411(3) 0.6032(4)
O32 O -0.2661(4) 0.6921(3) 0.4282(5)
O33 O -0.3770(5) 0.6609(3) 0.4594(5)
O34 O -0.2419(5) 0.7875(3) 0.2562(4)
O35 O -0.1574(5) 0.7209(3) 0.4791(4)
O36 O -0.2137(4) 0.7153(3) 0.6154(4)
O37 O -0.1572(5) 0.7981(3) 0.5673(5)
O38 O -0.0835(6) 0.8735(4) 0.5297(6)
O39 O -0.1915(7) 0.9237(4) 0.5668(7)
O40 O -0.1407(6) 0.8661(4) 0.6659(5)
O41 O -0.2023(5) 0.6949(4) 0.2881(5)
O42 O -0.0875(5) 0.7282(3) 0.3507(5)
O43 O -0.3737(5) 0.6764(4) 0.7060(5)
O44 O -0.1480(5) 0.6453(3) 0.3874(5)
O45 O -0.1951(5) 0.7927(4) 0.7044(5)
O46 O -0.0883(5) 0.7988(4) 0.4341(5)
P1 P -0.33259(16) 0.77947(11) 0.49059(15)
W1 W -0.47616(3) 0.83479(2) 0.53033(3)
W2 W -0.27022(3) 0.875180(19) 0.43298(3)
W3 W -0.34136(3) 0.69181(2) 0.38784(3)
W4 W -0.33622(3) 0.86742(2) 0.59494(3)
W5 W -0.47855(3) 0.74255(2) 0.42417(3)
W6 W -0.40085(3) 0.77613(2) 0.64543(3)
W7 W -0.40929(3) 0.84121(2) 0.36715(3)
W8 W -0.27134(3) 0.790520(19) 0.33334(3)
W9 W -0.40338(3) 0.684480(19) 0.53968(3)
Co3A Co -0.20868(9) 0.80478(6) 0.16417(9)
Co5D Co 0.23720(9) 0.30191(6) 0.47673(9)
N6D N -0.2155(7) 0.6334(5) 0.5245(7)
O34A O -0.2581(5) 0.7125(3) 0.7562(4)
loop_
_geom_bond_atom_site_label_1
_geom_bond_atom_site_label_2
_geom_bond_site_symmetry_1
_geom_bond_site_symmetry_2
C1 H1 1_555 1_555
C2 H2 1_555 1_555
C3 H3 1_555 1_555
H4 C3 1_555 1_555
C4 C3 1_555 1_555
C5 C4 1_555 1_555
H5 C5 1_555 1_555
C6 C5 1_555 1_555
H6 C6 1_555 1_555
C7 C6 1_555 1_555
C8 C7 1_555 1_555
H7 C8 1_555 1_555
C9 C4 1_555 1_555
H8 C9 1_555 1_555
C10 C7 1_555 1_555
C11 C10 1_555 1_555
H9 C11 1_555 1_555
C12 C11 1_555 1_555
H10 C12 1_555 1_555
C13 C12 1_555 1_555
C14 C13 1_555 1_555
H11 C14 1_555 1_555
C15 C10 1_555 1_555
H12 C15 1_555 1_555
C16 C13 1_555 1_555
H13 C16 1_555 1_555
H14 C16 1_555 1_555
C17 H15 1_555 1_555
C18 H16 1_555 1_555
Co1 O28 1_555 1_555
Co2 O26 1_555 1_555
Co3 N1 1_555 1_555
Co4 O4 1_555 1_555
Co5 O4 1_555 1_555
Co6 O4 1_555 1_555
N1 C1 1_555 1_555
N2 C1 1_555 1_555
N3 C2 1_555 1_555
N4 C17 1_555 1_555
N5 C16 1_555 1_555
N6 C17 1_555 1_555
O1 P1 1_555 1_555
O2 P1 1_555 1_555
O3 P1 1_555 1_555
O4 P1 1_555 1_555
O5 W1 1_555 1_555
O6 W5 1_555 1_555
O7 W7 1_555 1_555
O8 W1 1_555 1_555
O9 W2 1_555 1_555
O10 W3 1_555 1_555
O11 W1 1_555 1_555
O12 W5 1_555 1_555
O13 W7 1_555 1_555
O14 W1 1_555 1_555
O15 W2 1_555 1_555
O16 W1 1_555 1_555
O17 W3 1_555 1_555
O18 W4 1_555 1_555
O19 Co3 1_555 1_555
O20 W5 1_555 1_555
O21 W4 1_555 1_555
O22 W2 1_555 1_555
O23 W6 1_555 1_555
O24 Co3 1_555 1_555
O25 W9 1_555 1_555
O26 Co6 1_555 1_555
O27 W3 1_555 1_555
O28 Co6 1_555 1_555
O29 W2 1_555 1_555
O30 W6 1_555 1_555
O31 Co1 1_555 1_555
O32 Co2 1_555 1_555
O33 W3 1_555 1_555
O34 W8 1_555 1_555
O35 Co2 1_555 1_555
O36 Co3 1_555 1_555
O37 Co1 1_555 1_555
O38 Co1 1_555 1_555
O39 Co1 1_555 1_555
O40 Co1 1_555 1_555
O41 Co2 1_555 1_555
O42 Co2 1_555 1_555
O43 Co3 1_555 1_555
O44 Co2 1_555 1_555
O45 Co4 1_555 1_555
O46 Co6 1_555 1_555
W1 O3 1_555 1_555
W2 O2 1_555 1_555
W3 O1 1_555 1_555
W4 O3 1_555 1_555
W5 O1 1_555 1_555
W6 O3 1_555 1_555
W7 O2 1_555 1_555
W8 O2 1_555 1_555
W9 O1 1_555 1_555
Co3A O34 1_555 1_555
Co5D N6 1_555 1_555
N6D Co5 1_555 1_555
O34A Co3 1_555 1_555
C2 N1 1_555 1_555
C3 N3 1_555 1_555
C8 C9 1_555 1_555
C14 C15 1_555 1_555
C18 N5 1_555 1_555
C18 N6 1_555 1_555
Co4 O19 1_555 1_555
Co4 O31 1_555 1_555
Co4 O36 1_555 1_555
Co4 O37 1_555 1_555
Co5 O24 1_555 1_555
Co5 O32 1_555 1_555
Co5 O35 1_555 1_555
Co5 O36 1_555 1_555
Co6 O35 1_555 1_555
Co6 O37 1_555 1_555
N2 N3 1_555 1_555
N4 N5 1_555 1_555
O5 W6 1_555 1_555
O8 W7 1_555 1_555
O9 W4 1_555 1_555
O12 W9 1_555 1_555
O13 W8 1_555 1_555
O14 W4 1_555 1_555
O16 W5 1_555 1_555
O17 W5 1_555 1_555
O19 W6 1_555 1_555
O20 W7 1_555 1_555
O21 W6 1_555 1_555
O22 W8 1_555 1_555
O24 W9 1_555 1_555
O26 W8 1_555 1_555
O27 W8 1_555 1_555
O28 W2 1_555 1_555
O29 W7 1_555 1_555
O30 W9 1_555 1_555
O31 W4 1_555 1_555
O32 W3 1_555 1_555
O33 W9 1_555 1_555

#END
