
#######################################################################
#
#                 Cambridge Crystallographic Data Centre
#                                CCDC 
#
#######################################################################
#
# If this CIF has been generated from an entry in the Cambridge 
# Structural Database, then it will include bibliographic, chemical, 
# crystal, experimental, refinement or atomic coordinate data resulting 
# from the CCDC's data processing and validation procedures.
#
#######################################################################

data_VEDMEY
_symmetry_cell_setting           monoclinic
_symmetry_space_group_name_H-M   'P 21/n'
_symmetry_Int_Tables_number      14
_space_group_name_Hall           '-P 2yn'
loop_
_symmetry_equiv_pos_site_id
_symmetry_equiv_pos_as_xyz
1 x,y,z
2 1/2-x,1/2+y,1/2-z
3 -x,-y,-z
4 1/2+x,1/2-y,1/2+z
_cell_length_a                   14.143(2)
_cell_length_b                   12.699(2)
_cell_length_c                   15.039(3)
_cell_angle_alpha                90
_cell_angle_beta                 96.866(3)
_cell_angle_gamma                90
_cell_volume                     2681.66
loop_
_atom_site_label
_atom_site_type_symbol
_atom_site_fract_x
_atom_site_fract_y
_atom_site_fract_z
Co1 Co 0.43260(3) 0.70126(4) 0.15819(3)
Co2 Co 0.5000 0.5000 0.0000
Co3 Co 0.85753(3) 0.61158(4) 0.27672(3)
Co4 Co 0.18750(3) 0.31014(4) 0.19321(3)
S1 S 0.73101(6) 0.44082(7) 0.41017(6)
O1 O 0.39644(16) 0.7693(2) 0.42027(16)
O2 O 0.42431(16) 0.6799(2) 0.30099(16)
O3 O 0.60874(17) 0.7603(2) 0.69869(18)
O4 O 0.75794(16) 0.7142(2) 0.67997(17)
O5 O 0.80010(16) 0.5078(2) 0.37388(17)
O6 O 0.67124(16) 0.3857(2) 0.34010(18)
O7 O 0.77510(18) 0.3736(2) 0.48012(17)
O8 O 0.27534(16) 0.1798(2) 0.15703(17)
H1 H 0.2844 0.1617 0.1043
H2 H 0.3292 0.1730 0.1882
O9 O 0.91695(15) 0.7005(2) 0.18112(16)
H3 H 0.8845 0.7546 0.1639
H4 H 0.9744 0.7216 0.1894
N1 N 0.57184(19) 0.6499(2) 0.1654(2)
N2 N 0.59649(19) 0.5713(2) 0.1096(2)
N3 N 0.72451(19) 0.6137(3) 0.2046(2)
N4 N 0.36760(19) 0.5596(2) 0.14193(19)
N5 N 0.39054(19) 0.4862(2) 0.08130(19)
N6 N 0.27617(19) 0.4196(3) 0.1529(2)
N7 N 0.42261(19) 0.7265(2) 0.0192(2)
N8 N 0.44480(19) 0.6497(2) -0.0399(2)
N9 N 0.38963(19) 0.7886(3) -0.1196(2)
N10 N 0.41760(18) 0.9039(2) 0.2571(2)
N11 N 0.45744(19) 0.8546(2) 0.1883(2)
N12 N 0.53903(19) 1.0009(2) 0.2229(2)
C1 C 0.6878(2) 0.5532(3) 0.1358(2)
H5 H 0.7232 0.5031 0.1090
C2 C 0.6488(2) 0.6730(3) 0.2198(3)
H6 H 0.6509 0.7245 0.2640
C3 C 0.3357(2) 0.4050(3) 0.0897(2)
H7 H 0.3373 0.3438 0.0559
C4 C 0.2993(2) 0.5166(3) 0.1832(3)
H8 H 0.2707 0.5500 0.2280
C5 C 0.4245(2) 0.6902(3) -0.1200(2)
H9 H 0.4334 0.6542 -0.1723
C6 C 0.3904(2) 0.8068(3) -0.0309(2)
H10 H 0.3703 0.8697 -0.0076
C7 C 0.5282(2) 0.9154(3) 0.1705(2)
H11 H 0.5668 0.9005 0.1262
C8 C 0.4681(2) 0.9887(3) 0.2752(3)
H12 H 0.4565 1.0363 0.3196
C9 C 0.5243(2) 0.6497(3) 0.4383(2)
C10 C 0.5526(2) 0.6926(3) 0.5213(3)
H13 H 0.5158 0.7449 0.5435
C11 C 0.6348(2) 0.6588(3) 0.5721(3)
C12 C 0.6872(2) 0.5767(3) 0.5403(3)
H14 H 0.7421 0.5523 0.5742
C13 C 0.6568(2) 0.5319(3) 0.4579(2)
C14 C 0.5751(2) 0.5685(3) 0.4058(2)
H15 H 0.5553 0.5386 0.3502
C15 C 0.4437(2) 0.7017(3) 0.3830(3)
C16 C 0.6679(2) 0.7150(3) 0.6568(3)
Co1B Co 0.56740(3) 0.29874(4) -0.15819(3)
Co1A Co 1.06740(3) 0.20126(4) 0.34181(3)
Co1A_2 Co 0.06740(3) 0.20126(4) 0.34181(3)
Co3B Co 0.14247(3) 0.38842(4) -0.27672(3)
Co3C Co 0.35753(3) 0.88842(4) -0.22328(3)
Co3A Co 0.64247(3) 1.11158(4) 0.22328(3)
Co3A_2 Co 0.64247(3) 0.11158(4) 0.22328(3)
Co3A_3 Co -0.35753(3) 0.11158(4) 0.22328(3)
Co4B Co 0.81250(3) 0.68986(4) -0.19321(3)
Co4A Co 0.31250(3) 0.81014(4) 0.30679(3)
Co4B_2 Co 0.81250(3) 0.68986(4) 0.80679(3)
Co4_2 Co 1.18750(3) 0.31014(4) 0.19321(3)
Co4C Co -0.31250(3) 0.18986(4) -0.30679(3)
S1A S -0.23101(6) -0.05918(7) 0.08983(6)
O1A O 0.10356(16) 0.2693(2) 0.07973(16)
O1C O 0.89644(16) 0.7307(2) -0.07973(16)
O2A O 0.07569(16) 0.1799(2) 0.19901(16)
O2B O 0.57569(16) 0.3201(2) -0.30099(16)
O2C O 0.92431(16) 0.8201(2) -0.19901(16)
O3A O -0.10874(17) 0.2603(2) -0.19869(18)
O4A O -0.25794(16) 0.2142(2) -0.17997(17)
O4B O 0.24206(16) 0.2858(2) 0.32003(17)
O4_2 O 0.75794(16) 0.7142(2) -0.32003(17)
O5A O -0.30010(16) 0.0078(2) 0.12612(17)
O5B O 0.19990(16) 0.4922(2) -0.37388(17)
O6A O -0.17124(16) -0.1143(2) 0.15990(18)
O7A O -0.27510(18) -0.1264(2) 0.01988(17)
O8B O 0.72466(16) 0.8202(2) -0.15703(17)
H1B H 0.7156 0.8383 -0.1043
H2B H 0.6708 0.8270 -0.1882
O9B O 0.08305(15) 0.2995(2) -0.18112(16)
H3B H 0.1155 0.2454 -0.1639
H4B H 0.0256 0.2784 -0.1894
N1B N 0.42816(19) 0.3501(2) -0.1654(2)
N2B N 0.40351(19) 0.4287(2) -0.1096(2)
N3B N 0.27549(19) 0.3863(3) -0.2046(2)
N4B N 0.63240(19) 0.4404(2) -0.14193(19)
N5B N 0.60946(19) 0.5138(2) -0.08130(19)
N6B N 0.72383(19) 0.5804(3) -0.1529(2)
N7B N 0.57739(19) 0.2735(2) -0.0192(2)
N8B N 0.55520(19) 0.3503(2) 0.0399(2)
N9B N 0.61037(19) 0.2114(3) 0.1196(2)
N9C N 0.88963(19) 0.7114(3) 0.3804(2)
N9A N 0.11037(19) 0.2886(3) -0.3804(2)
N10A N 1.08240(18) 0.4039(2) 0.2429(2)
N10A_2 N 0.08240(18) 0.4039(2) 0.2429(2)
N10C N 0.91760(18) 0.5961(2) -0.2429(2)
N11A N 1.04256(19) 0.3546(2) 0.3117(2)
N11B N 0.54256(19) 0.1454(2) -0.1883(2)
N12A N 0.96097(19) 0.5009(2) 0.2771(2)
N12C N 0.03903(19) 0.4991(2) -0.2771(2)
C1B C 0.3122(2) 0.4468(3) -0.1358(2)
H5B H 0.2768 0.4969 -0.1090
C2B C 0.3512(2) 0.3270(3) -0.2198(3)
H6B H 0.3491 0.2755 -0.2640
C3B C 0.6643(2) 0.5950(3) -0.0897(2)
H7B H 0.6627 0.6562 -0.0559
C4B C 0.7007(2) 0.4834(3) -0.1832(3)
H8B H 0.7293 0.4500 -0.2280
C5B C 0.5755(2) 0.3098(3) 0.1200(2)
H9B H 0.5666 0.3458 0.1723
C6B C 0.6096(2) 0.1932(3) 0.0309(2)
H10B H 0.6297 0.1303 0.0076
C7A C 0.9718(2) 0.4154(3) 0.3295(2)
H11A H 0.9332 0.4005 0.3738
C8A C 1.0319(2) 0.4887(3) 0.2248(3)
H12A H 1.0435 0.5363 0.1804
C9A C -0.0243(2) 0.1497(3) 0.0617(2)
C10A C -0.0526(2) 0.1926(3) -0.0213(3)
H13A H -0.0158 0.2449 -0.0435
C11A C -0.1348(2) 0.1588(3) -0.0721(3)
C12A C -0.1872(2) 0.0767(3) -0.0403(3)
H14A H -0.2421 0.0523 -0.0742
C13A C -0.1568(2) 0.0319(3) 0.0421(2)
C14A C -0.0751(2) 0.0685(3) 0.0942(2)
H15A H -0.0553 0.0386 0.1498
C15A C 0.0563(2) 0.2017(3) 0.1170(3)
C16A C -0.1679(2) 0.2150(3) -0.1568(3)
O11 O 0.6622(7) 0.8733(9) 0.4177(8)
O10? O 0.4610(9) 0.9784(10) 0.4987(7)
O12? O 0.4039(8) 0.9718(18) 0.5248(9)
loop_
_geom_bond_atom_site_label_1
_geom_bond_atom_site_label_2
_geom_bond_site_symmetry_1
_geom_bond_site_symmetry_2
Co1 O2 1_555 1_555
Co2 N2 1_555 1_555
Co3 O5 1_555 1_555
Co4 O8 1_555 1_555
S1 O5 1_555 1_555
O1 C15 1_555 1_555
O2 C15 1_555 1_555
O3 C16 1_555 1_555
O4 C16 1_555 1_555
O6 S1 1_555 1_555
O7 S1 1_555 1_555
O8 H1 1_555 1_555
H2 O8 1_555 1_555
O9 Co3 1_555 1_555
H3 O9 1_555 1_555
H4 O9 1_555 1_555
N1 Co1 1_555 1_555
N2 N1 1_555 1_555
N3 Co3 1_555 1_555
N4 Co1 1_555 1_555
N5 Co2 1_555 1_555
N6 Co4 1_555 1_555
N7 Co1 1_555 1_555
N8 Co2 1_555 1_555
N9 C5 1_555 1_555
N10 N11 1_555 1_555
N11 Co1 1_555 1_555
N12 C7 1_555 1_555
C1 N2 1_555 1_555
H5 C1 1_555 1_555
C2 N1 1_555 1_555
H6 C2 1_555 1_555
C3 N5 1_555 1_555
H7 C3 1_555 1_555
C4 N4 1_555 1_555
H8 C4 1_555 1_555
C5 N8 1_555 1_555
H9 C5 1_555 1_555
C6 N7 1_555 1_555
H10 C6 1_555 1_555
C7 N11 1_555 1_555
H11 C7 1_555 1_555
C8 N10 1_555 1_555
H12 C8 1_555 1_555
C9 C10 1_555 1_555
C10 H13 1_555 1_555
C11 C10 1_555 1_555
C12 C11 1_555 1_555
H14 C12 1_555 1_555
C13 S1 1_555 1_555
C14 C9 1_555 1_555
H15 C14 1_555 1_555
C15 C9 1_555 1_555
C16 C11 1_555 1_555
Co1B O2B 1_555 1_555
Co1A N11A 1_555 1_555
Co1A_2 O2A 1_555 1_555
Co3B O5B 1_555 1_555
Co3C N9 1_555 1_555
Co3A N12 1_555 1_555
Co3A_2 N9B 1_555 1_555
Co3A_3 O5A 1_555 1_555
Co4B O1C 1_555 1_555
Co4A O1 1_555 1_555
Co4B_2 O4 1_555 1_555
Co4_2 N10A 1_555 1_555
Co4C O4A 1_555 1_555
S1A O5A 1_555 1_555
O1A Co4 1_555 1_555
O2A Co4 1_555 1_555
O2C Co4B 1_555 1_555
O3A C16A 1_555 1_555
O4A C16A 1_555 1_555
O4B Co4 1_555 1_555
O4_2 Co4B 1_555 1_555
O6A S1A 1_555 1_555
O7A S1A 1_555 1_555
O8B Co4B 1_555 1_555
H1B O8B 1_555 1_555
H2B O8B 1_555 1_555
O9B Co3B 1_555 1_555
H3B O9B 1_555 1_555
H4B O9B 1_555 1_555
N1B Co1B 1_555 1_555
N2B Co2 1_555 1_555
N3B Co3B 1_555 1_555
N4B Co1B 1_555 1_555
N5B Co2 1_555 1_555
N6B Co4B 1_555 1_555
N7B Co1B 1_555 1_555
N8B Co2 1_555 1_555
N9B C5B 1_555 1_555
N9C Co3 1_555 1_555
N9A Co3B 1_555 1_555
N10A N11A 1_555 1_555
N10A_2 Co4 1_555 1_555
N10C Co4B 1_555 1_555
N11A C7A 1_555 1_555
N11B Co1B 1_555 1_555
N12A Co3 1_555 1_555
N12C Co3B 1_555 1_555
C1B N2B 1_555 1_555
H5B C1B 1_555 1_555
C2B N1B 1_555 1_555
H6B C2B 1_555 1_555
C3B N5B 1_555 1_555
H7B C3B 1_555 1_555
C4B N4B 1_555 1_555
H8B C4B 1_555 1_555
C5B N8B 1_555 1_555
H9B C5B 1_555 1_555
C6B N7B 1_555 1_555
H10B C6B 1_555 1_555
C7A N12A 1_555 1_555
H11A C7A 1_555 1_555
C8A N10A 1_555 1_555
H12A C8A 1_555 1_555
C9A C10A 1_555 1_555
C10A H13A 1_555 1_555
C11A C10A 1_555 1_555
C12A C11A 1_555 1_555
H14A C12A 1_555 1_555
C13A S1A 1_555 1_555
C14A C9A 1_555 1_555
H15A C14A 1_555 1_555
C15A O1A 1_555 1_555
C16A C11A 1_555 1_555
O2 Co4A 1_555 1_555
N3 C1 1_555 1_555
N3 C2 1_555 1_555
N4 N5 1_555 1_555
N6 C3 1_555 1_555
N6 C4 1_555 1_555
N7 N8 1_555 1_555
N9 C6 1_555 1_555
N10 Co4A 1_555 1_555
N12 C8 1_555 1_555
C12 C13 1_555 1_555
C13 C14 1_555 1_555
O2A C15A 1_555 1_555
N1B N2B 1_555 1_555
N3B C1B 1_555 1_555
N3B C2B 1_555 1_555
N4B N5B 1_555 1_555
N6B C3B 1_555 1_555
N6B C4B 1_555 1_555
N7B N8B 1_555 1_555
N9B C6B 1_555 1_555
N12A C8A 1_555 1_555
C9A C15A 1_555 1_555
C12A C13A 1_555 1_555
C13A C14A 1_555 1_555

#END
