
#######################################################################
#
#                 Cambridge Crystallographic Data Centre
#                                CCDC 
#
#######################################################################
#
# If this CIF has been generated from an entry in the Cambridge 
# Structural Database, then it will include bibliographic, chemical, 
# crystal, experimental, refinement or atomic coordinate data resulting 
# from the CCDC's data processing and validation procedures.
#
#######################################################################

data_VEDRAY
_symmetry_cell_setting           monoclinic
_symmetry_space_group_name_H-M   'C 2/c'
_symmetry_Int_Tables_number      15
_space_group_name_Hall           '-C 2yn'
loop_
_symmetry_equiv_pos_site_id
_symmetry_equiv_pos_as_xyz
1 x,y,z
2 1/2+x,1/2+y,z
3 -x,y,1/2-z
4 1/2-x,1/2+y,1/2-z
5 -x,-y,-z
6 1/2-x,1/2-y,-z
7 x,-y,1/2+z
8 1/2+x,1/2-y,1/2+z
_cell_length_a                   17.246(3)
_cell_length_b                   6.0882(12)
_cell_length_c                   8.5892(17)
_cell_angle_alpha                90.00
_cell_angle_beta                 95.42(3)
_cell_angle_gamma                90.00
_cell_volume                     897.809
loop_
_atom_site_label
_atom_site_type_symbol
_atom_site_fract_x
_atom_site_fract_y
_atom_site_fract_z
U1 U 0.172503(11) 0.11495(3) 0.63218(2)
F1 F 0.23358(19) -0.2034(5) 0.7093(4)
F2 F 0.2028(2) 0.4066(4) 0.4793(4)
F3 F 0.15480(19) -0.0466(5) 0.3896(3)
O1 O 0.0516(2) 0.2455(6) 0.4872(5)
O2 O -0.0658(2) 0.1466(6) 0.3696(5)
C1 C -0.0045(4) 0.1133(8) 0.4584(7)
O3 O 0.1058(3) 0.4205(6) 0.7505(5)
H1 H 0.0834 0.5135 0.6969
H2 H 0.1330 0.4709 0.8239
U1C U 0.327497(11) 0.61495(3) 0.86782(2)
U1C_2 U 0.327497(11) -0.38505(3) 0.86782(2)
U1E U 0.327497(11) 0.38505(3) 0.36782(2)
U1F U 0.172503(11) -0.11495(3) 0.13218(2)
U1D U -0.172503(11) -0.11495(3) 0.36782(2)
U1F_2 U 0.172503(11) -0.11495(3) 1.13218(2)
F1C F 0.26642(19) 0.2966(5) 0.7907(4)
F1_2 F 0.23358(19) 0.7966(5) 0.7093(4)
F2E F 0.2972(2) 0.0934(4) 0.5207(4)
F2F F 0.2028(2) 0.5934(4) 0.9793(4)
F2C F 0.2972(2) 0.9066(4) 1.0207(4)
F3F F 0.15480(19) 0.0466(5) 0.8896(3)
F3E F 0.34520(19) 0.5466(5) 0.6104(3)
F3C F 0.34520(19) 0.4534(5) 1.1104(3)
O1D O -0.0516(2) -0.2455(6) 0.5128(5)
O1C O 0.4484(2) 0.7455(6) 1.0128(5)
O2D O 0.0658(2) -0.1466(6) 0.6304(5)
O2G O 0.4342(2) 0.3534(6) 0.8696(5)
C1D C 0.0045(4) -0.1133(8) 0.5416(7)
O3C O 0.3942(3) 0.9205(6) 0.7495(5)
H1C H 0.4166 1.0135 0.8031
H2C H 0.3670 0.9709 0.6761
loop_
_geom_bond_atom_site_label_1
_geom_bond_atom_site_label_2
_geom_bond_site_symmetry_1
_geom_bond_site_symmetry_2
U1 F1 1_555 1_555
F1 U1C_2 1_555 1_555
F2 U1 1_555 1_555
F3 U1 1_555 1_555
O1 U1 1_555 1_555
O2 C1 1_555 1_555
C1 O1 1_555 1_555
O3 U1 1_555 1_555
H1 O3 1_555 1_555
H2 O3 1_555 1_555
U1C F1C 1_555 1_555
U1E F2 1_555 1_555
U1F F3 1_555 1_555
U1D O2 1_555 1_555
U1F_2 F3F 1_555 1_555
F1C U1 1_555 1_555
F1_2 U1C 1_555 1_555
F2E U1 1_555 1_555
F2F U1C 1_555 1_555
F2C U1C 1_555 1_555
F3F U1 1_555 1_555
F3E U1C 1_555 1_555
F3C U1C 1_555 1_555
O1D U1D 1_555 1_555
O1C U1C 1_555 1_555
O2D U1 1_555 1_555
O2G U1C 1_555 1_555
C1D C1 1_555 1_555
O3C U1C 1_555 1_555
H1C O3C 1_555 1_555
H2C O3C 1_555 1_555
U1E F2E 1_555 1_555
U1E F3E 1_555 1_555
O1D C1D 1_555 1_555
O2D C1D 1_555 1_555

#END
