
#######################################################################
#
#                 Cambridge Crystallographic Data Centre
#                                CCDC 
#
#######################################################################
#
# If this CIF has been generated from an entry in the Cambridge 
# Structural Database, then it will include bibliographic, chemical, 
# crystal, experimental, refinement or atomic coordinate data resulting 
# from the CCDC's data processing and validation procedures.
#
#######################################################################

data_VEDTUU
_symmetry_cell_setting           triclinic
_symmetry_space_group_name_H-M   'P -1'
_symmetry_Int_Tables_number      2
_space_group_name_Hall           '-P 1'
loop_
_symmetry_equiv_pos_site_id
_symmetry_equiv_pos_as_xyz
1 x,y,z
2 -x,-y,-z
_cell_length_a                   13.2480(2)
_cell_length_b                   14.2262(2)
_cell_length_c                   14.7858(3)
_cell_angle_alpha                92.8510(10)
_cell_angle_beta                 101.9930(10)
_cell_angle_gamma                101.4490(10)
_cell_volume                     2659.54
loop_
_atom_site_label
_atom_site_type_symbol
_atom_site_fract_x
_atom_site_fract_y
_atom_site_fract_z
Ag1 Ag 0.01769(3) 0.49930(2) 0.24643(2)
Ag2 Ag -0.13590(3) 0.58519(2) -0.00418(2)
Ag3 Ag -0.04289(3) 0.64913(2) 0.48893(2)
Ag4 Ag -0.32172(3) 0.91502(3) -0.17805(3)
Cl1 Cl -0.19168(9) 0.81430(8) 0.45883(8)
Cl2 Cl -0.23485(9) 0.79244(9) 0.00534(9)
Cl4 Cl -0.20871(9) 0.43311(8) 0.46248(8)
S1 S -0.16226(8) 0.52769(8) 0.14750(8)
S2 S 0.00861(8) 0.66075(7) 0.33519(8)
S3 S 0.16064(8) 0.43262(7) 0.17737(8)
S4 S 0.01051(8) 0.34306(7) 0.33836(8)
S5 S -0.37476(9) 1.03093(8) -0.07882(8)
O1 O -0.2151(3) 0.7102(3) 0.4361(3)
O2 O -0.0929(3) 0.8413(3) 0.5264(3)
O3 O -0.2757(3) 0.8397(3) 0.4963(3)
O4 O -0.1835(3) 0.8619(3) 0.3765(3)
O5 O -0.1346(3) 0.7640(3) 0.0208(3)
O6 O -0.2841(3) 0.7759(2) -0.0930(3)
O7 O -0.3010(4) 0.7341(5) 0.0544(4)
O8 O -0.2173(4) 0.8926(3) 0.0357(3)
O9 O -0.4448(3) 0.8626(3) -0.3193(3)
O10 O -0.1674(3) 0.9174(2) -0.2269(3)
O15 O -0.1495(3) 0.4639(3) 0.5570(3)
O16 O -0.3156(3) 0.4376(3) 0.4542(3)
O17 O -0.1615(3) 0.4951(3) 0.4018(3)
O18 O -0.2006(3) 0.3361(3) 0.4397(3)
C1 C -0.4176(5) 0.7108(4) -0.3706(4)
H1 H -0.4745 0.6533 -0.3783
H2 H -0.3760 0.7053 -0.4175
H3 H -0.3719 0.7165 -0.3085
C2 C -0.4641(4) 0.7982(4) -0.3823(4)
C3 C -0.5356(5) 0.8043(4) -0.4721(4)
H4 H -0.5561 0.8668 -0.4716
H5 H -0.4991 0.7978 -0.5226
H6 H -0.5988 0.7525 -0.4815
C4 C 0.0027(5) 0.9912(4) -0.2449(5)
H7 H -0.0151 0.9452 -0.3003
H8 H 0.0243 1.0566 -0.2622
H9 H 0.0607 0.9756 -0.1994
C5 C -0.0922(4) 0.9854(4) -0.2032(4)
C6 C -0.0900(5) 1.0650(5) -0.1334(5)
H10 H -0.1369 1.0416 -0.0924
H11 H -0.0177 1.0877 -0.0965
H12 H -0.1137 1.1181 -0.1652
C7 C -0.2785(4) 0.4360(3) 0.1352(3)
C8 C -0.2860(4) 0.3732(3) 0.2038(4)
H13 H -0.2295 0.3794 0.2566
C9 C -0.3757(4) 0.3020(4) 0.1948(5)
H14 H -0.3812 0.2590 0.2415
C10 C -0.4573(5) 0.2934(4) 0.1180(5)
H15 H -0.5191 0.2443 0.1122
C11 C -0.4504(4) 0.3547(5) 0.0496(4)
H16 H -0.5071 0.3479 -0.0032
C12 C -0.3597(4) 0.4272(4) 0.0578(4)
H17 H -0.3541 0.4698 0.0107
C13 C -0.1908(3) 0.6223(3) 0.2211(3)
H18 H -0.2496 0.6482 0.1858
H19 H -0.2130 0.5946 0.2759
C14 C -0.0940(3) 0.7029(3) 0.2531(3)
H20 H -0.1134 0.7581 0.2836
H21 H -0.0663 0.7249 0.1987
C15 C 0.1181(4) 0.7605(3) 0.3474(3)
C16 C 0.1147(4) 0.8480(3) 0.3931(3)
H22 H 0.0553 0.8542 0.4177
C17 C 0.1988(4) 0.9251(4) 0.4021(4)
H23 H 0.1975 0.9849 0.4328
C18 C 0.2855(4) 0.9151(4) 0.3663(4)
H24 H 0.3429 0.9686 0.3717
C19 C 0.2886(4) 0.8273(4) 0.3225(4)
H25 H 0.3491 0.8206 0.2998
C20 C 0.2046(4) 0.7497(3) 0.3117(3)
H26 H 0.2059 0.6902 0.2804
C21 C 0.2972(3) 0.4764(3) 0.2321(3)
C22 C 0.3752(3) 0.4581(3) 0.1868(3)
H27 H 0.3562 0.4239 0.1268
C23 C 0.4796(4) 0.4902(3) 0.2304(4)
H28 H 0.5328 0.4786 0.1997
C24 C 0.5088(4) 0.5392(3) 0.3184(4)
H29 H 0.5814 0.5607 0.3478
C25 C 0.4307(4) 0.5566(3) 0.3633(4)
H30 H 0.4501 0.5897 0.4238
C26 C 0.3244(4) 0.5258(3) 0.3199(4)
H31 H 0.2712 0.5384 0.3502
C27 C 0.1370(4) 0.3116(3) 0.2147(3)
H32 H 0.0707 0.2734 0.1746
H33 H 0.1952 0.2808 0.2054
C28 C 0.1285(3) 0.3078(3) 0.3149(3)
H34 H 0.1917 0.3508 0.3549
H35 H 0.1283 0.2413 0.3320
C29 C -0.0901(3) 0.2398(3) 0.2873(3)
C30 C -0.1300(4) 0.1738(3) 0.3436(3)
H36 H -0.1051 0.1840 0.4092
C31 C -0.2062(4) 0.0931(3) 0.3042(4)
H37 H -0.2335 0.0476 0.3427
C32 C -0.2427(4) 0.0784(4) 0.2087(4)
H38 H -0.2944 0.0224 0.1816
C33 C -0.2037(4) 0.1457(4) 0.1525(4)
H39 H -0.2288 0.1357 0.0870
C34 C -0.1283(4) 0.2272(3) 0.1920(3)
H40 H -0.1029 0.2742 0.1540
C35 C -0.4454(3) 1.1009(3) -0.1553(3)
C36 C -0.4262(4) 1.1992(3) -0.1317(4)
H41 H -0.3779 1.2278 -0.0757
C37 C -0.4787(4) 1.2555(4) -0.1913(4)
H42 H -0.4653 1.3231 -0.1762
C38 C -0.5506(4) 1.2138(4) -0.2726(4)
H43 H -0.5875 1.2525 -0.3120
C39 C -0.5682(4) 1.1150(3) -0.2957(4)
H44 H -0.6168 1.0863 -0.3514
C40 C -0.5153(4) 1.0583(3) -0.2380(3)
H45 H -0.5265 0.9910 -0.2544
C41 C -0.4798(4) 0.9649(3) -0.0294(3)
H46 H -0.4526 0.9171 0.0099
H47 H -0.5385 0.9299 -0.0799
Ag1A Ag -0.01769(3) 0.50070(2) -0.24643(2)
Ag2A Ag 0.13590(3) 0.41481(2) 0.00418(2)
Ag3A Ag 0.04289(3) 0.35087(2) 0.51107(2)
Ag3_2 Ag -0.04289(3) 0.64913(2) -0.51107(2)
Ag3A_2 Ag 0.04289(3) 0.35087(2) -0.48893(2)
Ag4A Ag 0.32172(3) 0.08498(3) 0.17805(3)
Ag4A_2 Ag -0.67828(3) 1.08498(3) 0.17805(3)
Cl1A Cl 0.19168(9) 0.18570(8) 0.54117(8)
Cl2A Cl 0.23485(9) 0.20756(9) -0.00534(9)
Cl4A Cl 0.20871(9) 0.56689(8) 0.53752(8)
S1A S 0.16226(8) 0.47231(8) -0.14750(8)
S2A S -0.00861(8) 0.33925(7) -0.33519(8)
S2A_2 S -0.00861(8) 0.33925(7) 0.66481(8)
S3A S -0.16064(8) 0.56738(7) -0.17737(8)
S4A S -0.01051(8) 0.65694(7) -0.33836(8)
S4A_2 S -0.01051(8) 0.65694(7) 0.66164(8)
S5A S -0.62524(9) 0.96907(8) 0.07882(8)
S5A_2 S 0.37476(9) -0.03093(8) 0.07882(8)
O1A O 0.2151(3) 0.2898(3) 0.5639(3)
O2A O 0.0929(3) 0.1587(3) 0.4736(3)
O3A O 0.2757(3) 0.1603(3) 0.5037(3)
O4A O 0.1835(3) 0.1381(3) 0.6235(3)
O5A O 0.1346(3) 0.2360(3) -0.0208(3)
O6A O 0.2841(3) 0.2241(2) 0.0930(3)
O7A O 0.3010(4) 0.2659(5) -0.0544(4)
O8A O 0.2173(4) 0.1074(3) -0.0357(3)
O9A O 0.4448(3) 0.1374(3) 0.3193(3)
O10A O 0.1674(3) 0.0826(2) 0.2269(3)
O15A O 0.1495(3) 0.5361(3) 0.4430(3)
O16A O 0.3156(3) 0.5624(3) 0.5458(3)
O17A O 0.1615(3) 0.5049(3) 0.5982(3)
O18A O 0.2006(3) 0.6639(3) 0.5603(3)
C1A C 0.4176(5) 0.2892(4) 0.3706(4)
H1A H 0.4745 0.3467 0.3783
H2A H 0.3760 0.2947 0.4175
H3A H 0.3719 0.2835 0.3085
C2A C 0.4641(4) 0.2018(4) 0.3823(4)
C3A C 0.5356(5) 0.1957(4) 0.4721(4)
H4A H 0.5561 0.1332 0.4716
H5A H 0.4991 0.2022 0.5226
H6A H 0.5988 0.2475 0.4815
C4A C -0.0027(5) 0.0088(4) 0.2449(5)
H7A H 0.0151 0.0548 0.3003
H8A H -0.0243 -0.0566 0.2622
H9A H -0.0607 0.0244 0.1994
C5A C 0.0922(4) 0.0146(4) 0.2032(4)
C6A C 0.0900(5) -0.0650(5) 0.1334(5)
H10A H 0.1369 -0.0416 0.0924
H11A H 0.0177 -0.0877 0.0965
H12A H 0.1137 -0.1181 0.1652
C7A C 0.2785(4) 0.5640(3) -0.1352(3)
C8A C 0.2860(4) 0.6268(3) -0.2038(4)
H13A H 0.2295 0.6206 -0.2566
C9A C 0.3757(4) 0.6980(4) -0.1948(5)
H14A H 0.3812 0.7410 -0.2415
C10A C 0.4573(5) 0.7066(4) -0.1180(5)
H15A H 0.5191 0.7557 -0.1122
C11A C 0.4504(4) 0.6453(5) -0.0496(4)
H16A H 0.5071 0.6521 0.0032
C12A C 0.3597(4) 0.5728(4) -0.0578(4)
H17A H 0.3541 0.5302 -0.0107
C13A C 0.1908(3) 0.3777(3) -0.2211(3)
H18A H 0.2496 0.3518 -0.1858
H19A H 0.2130 0.4054 -0.2759
C14A C 0.0940(3) 0.2971(3) -0.2531(3)
H20A H 0.1134 0.2419 -0.2836
H21A H 0.0663 0.2751 -0.1987
C15A C -0.1181(4) 0.2395(3) -0.3474(3)
C16A C -0.1147(4) 0.1520(3) -0.3931(3)
H22A H -0.0553 0.1458 -0.4177
C17A C -0.1988(4) 0.0749(4) -0.4021(4)
H23A H -0.1975 0.0151 -0.4328
C18A C -0.2855(4) 0.0849(4) -0.3663(4)
H24A H -0.3429 0.0314 -0.3717
C19A C -0.2886(4) 0.1727(4) -0.3225(4)
H25A H -0.3491 0.1794 -0.2998
C20A C -0.2046(4) 0.2503(3) -0.3117(3)
H26A H -0.2059 0.3098 -0.2804
C21A C -0.2972(3) 0.5236(3) -0.2321(3)
C22A C -0.3752(3) 0.5419(3) -0.1868(3)
H27A H -0.3562 0.5761 -0.1268
C23A C -0.4796(4) 0.5098(3) -0.2304(4)
H28A H -0.5328 0.5214 -0.1997
C24A C -0.5088(4) 0.4608(3) -0.3184(4)
H29A H -0.5814 0.4393 -0.3478
C25A C -0.4307(4) 0.4434(3) -0.3633(4)
H30A H -0.4501 0.4103 -0.4238
C26A C -0.3244(4) 0.4742(3) -0.3199(4)
H31A H -0.2712 0.4616 -0.3502
C27A C -0.1370(4) 0.6884(3) -0.2147(3)
H32A H -0.0707 0.7266 -0.1746
H33A H -0.1952 0.7192 -0.2054
C28A C -0.1285(3) 0.6922(3) -0.3149(3)
H34A H -0.1917 0.6492 -0.3549
H35A H -0.1283 0.7587 -0.3320
C29A C 0.0901(3) 0.7602(3) -0.2873(3)
C30A C 0.1300(4) 0.8262(3) -0.3436(3)
H36A H 0.1051 0.8160 -0.4092
C31A C 0.2062(4) 0.9069(3) -0.3042(4)
H37A H 0.2335 0.9524 -0.3427
C32A C 0.2427(4) 0.9216(4) -0.2087(4)
H38A H 0.2944 0.9776 -0.1816
C33A C 0.2037(4) 0.8543(4) -0.1525(4)
H39A H 0.2288 0.8643 -0.0870
C34A C 0.1283(4) 0.7728(3) -0.1920(3)
H40A H 0.1029 0.7258 -0.1540
C35A C -0.5546(3) 0.8991(3) 0.1553(3)
C36A C -0.5738(4) 0.8008(3) 0.1317(4)
H41A H -0.6221 0.7722 0.0757
C37A C -0.5213(4) 0.7445(4) 0.1913(4)
H42A H -0.5347 0.6769 0.1762
C38A C -0.4494(4) 0.7862(4) 0.2726(4)
H43A H -0.4125 0.7475 0.3120
C39A C -0.4318(4) 0.8850(3) 0.2957(4)
H44A H -0.3832 0.9137 0.3514
C40A C -0.4847(4) 0.9417(3) 0.2380(3)
H45A H -0.4735 1.0090 0.2544
C41A C -0.5202(4) 1.0351(3) 0.0294(3)
H46A H -0.5474 1.0829 -0.0099
H47A H -0.4615 1.0701 0.0799
Cl3 Cl 0.87646(8) 0.33715(7) 0.94865(8)
O11 O 0.9482(3) 0.3445(3) 0.8865(2)
O12 O 0.7890(3) 0.3793(2) 0.9099(3)
O13 O 0.8399(3) 0.2393(2) 0.9636(3)
O14 O 0.9343(3) 0.3914(3) 1.0362(2)
loop_
_geom_bond_atom_site_label_1
_geom_bond_atom_site_label_2
_geom_bond_site_symmetry_1
_geom_bond_site_symmetry_2
Ag1 S1 1_555 1_555
Ag2 S1 1_555 1_555
Ag3 S2 1_555 1_555
Ag4 S5 1_555 1_555
Cl1 O1 1_555 1_555
Cl2 O5 1_555 1_555
Cl3 O11 1_555 1_555
Cl4 O15 1_555 1_555
S1 C7 1_555 1_555
S2 Ag1 1_555 1_555
S3 Ag1 1_555 1_555
S4 Ag1 1_555 1_555
S5 C35 1_555 1_555
O1 Ag3 1_555 1_555
O2 Cl1 1_555 1_555
O3 Cl1 1_555 1_555
O4 Cl1 1_555 1_555
O5 Ag2 1_555 1_555
O6 Ag4 1_555 1_555
O7 Cl2 1_555 1_555
O8 Cl2 1_555 1_555
O9 Ag4 1_555 1_555
O10 Ag4 1_555 1_555
O12 Cl3 1_555 1_555
O13 Cl3 1_555 1_555
O14 Cl3 1_555 1_555
O16 Cl4 1_555 1_555
O17 Ag3 1_555 1_555
O18 Cl4 1_555 1_555
C1 H1 1_555 1_555
H2 C1 1_555 1_555
H3 C1 1_555 1_555
C2 O9 1_555 1_555
C3 C2 1_555 1_555
H4 C3 1_555 1_555
H5 C3 1_555 1_555
H6 C3 1_555 1_555
C4 H7 1_555 1_555
H8 C4 1_555 1_555
H9 C4 1_555 1_555
C5 O10 1_555 1_555
C6 C5 1_555 1_555
H10 C6 1_555 1_555
H11 C6 1_555 1_555
H12 C6 1_555 1_555
C7 C8 1_555 1_555
C8 H13 1_555 1_555
C9 C8 1_555 1_555
H14 C9 1_555 1_555
C10 C9 1_555 1_555
H15 C10 1_555 1_555
C11 C10 1_555 1_555
H16 C11 1_555 1_555
C12 C7 1_555 1_555
H17 C12 1_555 1_555
C13 S1 1_555 1_555
H18 C13 1_555 1_555
H19 C13 1_555 1_555
C14 S2 1_555 1_555
H20 C14 1_555 1_555
H21 C14 1_555 1_555
C15 S2 1_555 1_555
C16 C15 1_555 1_555
H22 C16 1_555 1_555
C17 C16 1_555 1_555
H23 C17 1_555 1_555
C18 C17 1_555 1_555
H24 C18 1_555 1_555
C19 C18 1_555 1_555
H25 C19 1_555 1_555
C20 C15 1_555 1_555
H26 C20 1_555 1_555
C21 S3 1_555 1_555
C22 C21 1_555 1_555
H27 C22 1_555 1_555
C23 C22 1_555 1_555
H28 C23 1_555 1_555
C24 C23 1_555 1_555
H29 C24 1_555 1_555
C25 C24 1_555 1_555
H30 C25 1_555 1_555
C26 C21 1_555 1_555
H31 C26 1_555 1_555
C27 S3 1_555 1_555
H32 C27 1_555 1_555
H33 C27 1_555 1_555
C28 S4 1_555 1_555
H34 C28 1_555 1_555
H35 C28 1_555 1_555
C29 S4 1_555 1_555
C30 C29 1_555 1_555
H36 C30 1_555 1_555
C31 C30 1_555 1_555
H37 C31 1_555 1_555
C32 C31 1_555 1_555
H38 C32 1_555 1_555
C33 C32 1_555 1_555
H39 C33 1_555 1_555
C34 C29 1_555 1_555
H40 C34 1_555 1_555
C35 C36 1_555 1_555
C36 H41 1_555 1_555
C37 C36 1_555 1_555
H42 C37 1_555 1_555
C38 C37 1_555 1_555
H43 C38 1_555 1_555
C39 C38 1_555 1_555
H44 C39 1_555 1_555
C40 C35 1_555 1_555
H45 C40 1_555 1_555
C41 S5 1_555 1_555
H46 C41 1_555 1_555
H47 C41 1_555 1_555
Ag1A S1A 1_555 1_555
Ag2A S3 1_555 1_555
Ag3A S4 1_555 1_555
Ag3_2 S4A 1_555 1_555
Ag3A_2 S2A 1_555 1_555
Ag4A S5A_2 1_555 1_555
Ag4A_2 S5A 1_555 1_555
Cl1A O1A 1_555 1_555
Cl2A O5A 1_555 1_555
Cl4A O15A 1_555 1_555
S1A Ag2A 1_555 1_555
S2A Ag1A 1_555 1_555
S2A_2 Ag3A 1_555 1_555
S3A Ag2 1_555 1_555
S4A Ag1A 1_555 1_555
S4A_2 Ag3 1_555 1_555
S5A C35A 1_555 1_555
O1A Ag3A 1_555 1_555
O2A Cl1A 1_555 1_555
O3A Cl1A 1_555 1_555
O4A Cl1A 1_555 1_555
O5A Ag2A 1_555 1_555
O6A Ag4A 1_555 1_555
O7A Cl2A 1_555 1_555
O8A Cl2A 1_555 1_555
O9A Ag4A 1_555 1_555
O10A Ag4A 1_555 1_555
O16A Cl4A 1_555 1_555
O17A Ag3A 1_555 1_555
O18A Cl4A 1_555 1_555
C1A H1A 1_555 1_555
H2A C1A 1_555 1_555
H3A C1A 1_555 1_555
C2A O9A 1_555 1_555
C3A C2A 1_555 1_555
H4A C3A 1_555 1_555
H5A C3A 1_555 1_555
H6A C3A 1_555 1_555
C4A H7A 1_555 1_555
H8A C4A 1_555 1_555
H9A C4A 1_555 1_555
C5A O10A 1_555 1_555
C6A C5A 1_555 1_555
H10A C6A 1_555 1_555
H11A C6A 1_555 1_555
H12A C6A 1_555 1_555
C7A S1A 1_555 1_555
C8A C7A 1_555 1_555
H13A C8A 1_555 1_555
C9A C8A 1_555 1_555
H14A C9A 1_555 1_555
C10A C9A 1_555 1_555
H15A C10A 1_555 1_555
C11A C10A 1_555 1_555
H16A C11A 1_555 1_555
C12A C7A 1_555 1_555
H17A C12A 1_555 1_555
C13A S1A 1_555 1_555
H18A C13A 1_555 1_555
H19A C13A 1_555 1_555
C14A S2A 1_555 1_555
H20A C14A 1_555 1_555
H21A C14A 1_555 1_555
C15A S2A 1_555 1_555
C16A C15A 1_555 1_555
H22A C16A 1_555 1_555
C17A C16A 1_555 1_555
H23A C17A 1_555 1_555
C18A C17A 1_555 1_555
H24A C18A 1_555 1_555
C19A C18A 1_555 1_555
H25A C19A 1_555 1_555
C20A C15A 1_555 1_555
H26A C20A 1_555 1_555
C21A S3A 1_555 1_555
C22A C21A 1_555 1_555
H27A C22A 1_555 1_555
C23A C22A 1_555 1_555
H28A C23A 1_555 1_555
C24A C23A 1_555 1_555
H29A C24A 1_555 1_555
C25A C24A 1_555 1_555
H30A C25A 1_555 1_555
C26A C21A 1_555 1_555
H31A C26A 1_555 1_555
C27A S3A 1_555 1_555
H32A C27A 1_555 1_555
H33A C27A 1_555 1_555
C28A S4A 1_555 1_555
H34A C28A 1_555 1_555
H35A C28A 1_555 1_555
C29A S4A 1_555 1_555
C30A C29A 1_555 1_555
H36A C30A 1_555 1_555
C31A C30A 1_555 1_555
H37A C31A 1_555 1_555
C32A C31A 1_555 1_555
H38A C32A 1_555 1_555
C33A C32A 1_555 1_555
H39A C33A 1_555 1_555
C34A C29A 1_555 1_555
H40A C34A 1_555 1_555
C35A C36A 1_555 1_555
C36A H41A 1_555 1_555
C37A C36A 1_555 1_555
H42A C37A 1_555 1_555
C38A C37A 1_555 1_555
H43A C38A 1_555 1_555
C39A C38A 1_555 1_555
H44A C39A 1_555 1_555
C40A C35A 1_555 1_555
H45A C40A 1_555 1_555
C41A C41 1_555 1_555
H46A C41A 1_555 1_555
H47A C41A 1_555 1_555
Cl2 O6 1_555 1_555
Cl4 O17 1_555 1_555
C1 C2 1_555 1_555
C4 C5 1_555 1_555
C11 C12 1_555 1_555
C13 C14 1_555 1_555
C19 C20 1_555 1_555
C25 C26 1_555 1_555
C27 C28 1_555 1_555
C33 C34 1_555 1_555
C39 C40 1_555 1_555
Ag1A S3A 1_555 1_555
Cl2A O6A 1_555 1_555
Cl4A O17A 1_555 1_555
S5A C41A 1_555 1_555
C1A C2A 1_555 1_555
C4A C5A 1_555 1_555
C11A C12A 1_555 1_555
C13A C14A 1_555 1_555
C19A C20A 1_555 1_555
C25A C26A 1_555 1_555
C27A C28A 1_555 1_555
C33A C34A 1_555 1_555
C39A C40A 1_555 1_555

#END
