
#######################################################################
#
#                 Cambridge Crystallographic Data Centre
#                                CCDC 
#
#######################################################################
#
# If this CIF has been generated from an entry in the Cambridge 
# Structural Database, then it will include bibliographic, chemical, 
# crystal, experimental, refinement or atomic coordinate data resulting 
# from the CCDC's data processing and validation procedures.
#
#######################################################################

data_VEDTOO
_symmetry_cell_setting           monoclinic
_symmetry_space_group_name_H-M   'C 2/c'
_symmetry_Int_Tables_number      15
_space_group_name_Hall           '-C 2yn'
loop_
_symmetry_equiv_pos_site_id
_symmetry_equiv_pos_as_xyz
1 x,y,z
2 1/2+x,1/2+y,z
3 -x,y,1/2-z
4 1/2-x,1/2+y,1/2-z
5 -x,-y,-z
6 1/2-x,1/2-y,-z
7 x,-y,1/2+z
8 1/2+x,1/2-y,1/2+z
_cell_length_a                   30.2872(3)
_cell_length_b                   8.87900(10)
_cell_length_c                   18.0509(2)
_cell_angle_alpha                90
_cell_angle_beta                 120.43
_cell_angle_gamma                90
_cell_volume                     4185.57
loop_
_atom_site_label
_atom_site_type_symbol
_atom_site_fract_x
_atom_site_fract_y
_atom_site_fract_z
Ag1 Ag 0.021474(9) 0.45658(4) 0.347742(16)
Ag2 Ag 0.024870(9) -0.08420(4) 0.357610(18)
S1 S 0.04750(3) 0.21765(11) 0.43213(5)
S2 S -0.05269(3) 0.29628(10) 0.53726(5)
F1 F 0.17336(9) 0.5394(3) 0.3332(2)
F2 F 0.14372(10) 0.6769(3) 0.21943(18)
F3 F 0.15155(8) 0.7681(3) 0.33518(15)
F4 F 0.15318(10) 0.0552(3) 0.22951(19)
F5 F 0.12701(10) 0.2504(3) 0.26726(18)
F6 F 0.17198(9) 0.0810(3) 0.36019(17)
O1 O 0.07270(11) 0.5997(4) 0.3172(2)
O2 O 0.05958(9) 0.5326(3) 0.18734(17)
O3 O 0.07405(12) 0.0344(4) 0.3160(2)
O4 O 0.05965(10) -0.0364(3) 0.18625(18)
C1 C 0.08442(14) 0.5870(4) 0.2606(2)
C2 C 0.13859(14) 0.6452(5) 0.2863(2)
C3 C 0.08444(14) 0.0230(4) 0.2585(2)
C4 C 0.13497(14) 0.1020(5) 0.2793(2)
C5 C 0.11581(13) 0.2241(5) 0.4977(2)
C6 C 0.14388(15) 0.3165(4) 0.4755(3)
H1 H 0.1272 0.3826 0.4277
C7 C 0.19737(16) 0.3115(5) 0.5245(3)
H2 H 0.2171 0.3727 0.5088
C8 C 0.22158(14) 0.2197(5) 0.5946(3)
H3 H 0.2579 0.2184 0.6281
C9 C 0.19253(14) 0.1272(6) 0.6169(3)
H4 H 0.2092 0.0633 0.6657
C10 C 0.13961(14) 0.1288(5) 0.5680(3)
H5 H 0.1198 0.0654 0.5825
C11 C 0.02725(13) 0.2575(5) 0.5095(2)
H6 H 0.0414 0.1811 0.5558
H7 H 0.0398 0.3579 0.5357
C12 C -0.12037(14) 0.3026(4) 0.4681(2)
C13 C -0.15153(14) 0.2228(5) 0.4899(3)
H8 H -0.1370 0.1588 0.5388
C14 C -0.20461(15) 0.2381(6) 0.4388(3)
H9 H -0.2263 0.1873 0.4543
C15 C -0.22574(15) 0.3266(5) 0.3658(3)
H10 H -0.2619 0.3341 0.3302
C16 C -0.19407(15) 0.4040(5) 0.3449(3)
H11 H -0.2087 0.4652 0.2949
C17 C -0.14168(14) 0.3941(5) 0.3954(3)
H12 H -0.1202 0.4492 0.3809
C18 C -0.03097(12) 0.2537(5) 0.4617(2)
H13 H -0.0449 0.3289 0.4147
H14 H -0.0433 0.1529 0.4361
Ag1D Ag -0.021474(9) 0.54342(4) 0.652258(16)
Ag1B Ag -0.021474(9) 0.45658(4) 0.152258(16)
Ag2D Ag -0.024870(9) 0.08420(4) 0.642390(18)
Ag2B Ag -0.024870(9) -0.08420(4) 0.142390(18)
S2D S 0.05269(3) 0.70372(10) 0.46274(5)
S2D_2 S 0.05269(3) -0.29628(10) 0.46274(5)
O2B O -0.05958(9) 0.5326(3) 0.31266(17)
O4B O -0.05965(10) -0.0364(3) 0.31375(18)
loop_
_geom_bond_atom_site_label_1
_geom_bond_atom_site_label_2
_geom_bond_site_symmetry_1
_geom_bond_site_symmetry_2
Ag1 S1 1_555 1_555
Ag2 S1 1_555 1_555
S1 C5 1_555 1_555
S2 C12 1_555 1_555
F1 C2 1_555 1_555
F2 C2 1_555 1_555
F3 C2 1_555 1_555
F4 C4 1_555 1_555
F5 C4 1_555 1_555
F6 C4 1_555 1_555
O1 Ag1 1_555 1_555
O2 C1 1_555 1_555
O3 Ag2 1_555 1_555
O4 C3 1_555 1_555
C1 O1 1_555 1_555
C2 C1 1_555 1_555
C3 O3 1_555 1_555
C4 C3 1_555 1_555
C5 C6 1_555 1_555
C6 H1 1_555 1_555
C7 C6 1_555 1_555
H2 C7 1_555 1_555
C8 C7 1_555 1_555
H3 C8 1_555 1_555
C9 C8 1_555 1_555
H4 C9 1_555 1_555
C10 C5 1_555 1_555
H5 C10 1_555 1_555
C11 S1 1_555 1_555
H6 C11 1_555 1_555
H7 C11 1_555 1_555
C12 C13 1_555 1_555
C13 H8 1_555 1_555
C14 C13 1_555 1_555
H9 C14 1_555 1_555
C15 C14 1_555 1_555
H10 C15 1_555 1_555
C16 C15 1_555 1_555
H11 C16 1_555 1_555
C17 C12 1_555 1_555
H12 C17 1_555 1_555
C18 S2 1_555 1_555
H13 C18 1_555 1_555
H14 C18 1_555 1_555
Ag1D S2 1_555 1_555
Ag1B O2 1_555 1_555
Ag2D S2 1_555 1_555
Ag2B O4 1_555 1_555
S2D Ag1 1_555 1_555
S2D_2 Ag2 1_555 1_555
O2B Ag1 1_555 1_555
O4B Ag2 1_555 1_555
C9 C10 1_555 1_555
C11 C18 1_555 1_555
C16 C17 1_555 1_555

#END
