
#######################################################################
#
#                 Cambridge Crystallographic Data Centre
#                                CCDC 
#
#######################################################################
#
# If this CIF has been generated from an entry in the Cambridge 
# Structural Database, then it will include bibliographic, chemical, 
# crystal, experimental, refinement or atomic coordinate data resulting 
# from the CCDC's data processing and validation procedures.
#
#######################################################################

data_VEDVUW
_symmetry_cell_setting           monoclinic
_symmetry_space_group_name_H-M   'C 2/c'
_symmetry_Int_Tables_number      15
_space_group_name_Hall           '-C 2yn'
loop_
_symmetry_equiv_pos_site_id
_symmetry_equiv_pos_as_xyz
1 x,y,z
2 1/2+x,1/2+y,z
3 -x,y,1/2-z
4 1/2-x,1/2+y,1/2-z
5 -x,-y,-z
6 1/2-x,1/2-y,-z
7 x,-y,1/2+z
8 1/2+x,1/2-y,1/2+z
_cell_length_a                   19.1312(2)
_cell_length_b                   17.8749(2)
_cell_length_c                   8.80840(10)
_cell_angle_alpha                90
_cell_angle_beta                 117.0880(10)
_cell_angle_gamma                90
_cell_volume                     2681.78
loop_
_atom_site_label
_atom_site_type_symbol
_atom_site_fract_x
_atom_site_fract_y
_atom_site_fract_z
O2 O 0.2240(4) 0.2162(4) -0.0027(17)
H3 H 0.2720(6) 0.220(2) 0.048(15)
H4 H 0.2092(14) 0.258(3) -0.045(17)
O2E O 0.2760(4) 0.2838(4) 0.0027(17)
H3E H 0.2280(6) 0.280(2) -0.048(15)
H4E H 0.2908(14) 0.242(3) 0.045(17)
Ag1 Ag 0.391874(16) 0.028670(15) 0.17094(3)
O1 O 0.5000 -0.0578(2) 0.2500
H1 H 0.5032(13) -0.0853(9) 0.3273(15)
H2 H 0.492(4) -0.0862(9) 0.171(3)
S1 S 0.33202(6) 0.03372(5) -0.15148(13)
O3 O 0.3851(3) 0.1667(2) 0.2049(5)
O4 O 0.4740(2) 0.11476(19) 0.4430(5)
C1 C 0.4361(3) 0.1681(3) 0.3530(6)
C2 C 0.4557(3) 0.2450(3) 0.4392(6)
C3 C 0.2337(2) 0.0003(2) -0.2323(5)
C4 C 0.2174(3) -0.0705(3) -0.3049(6)
H5 H 0.2569 -0.0984 -0.3165
C5 C 0.1421(3) -0.1001(3) -0.3606(7)
H6 H 0.1307 -0.1487 -0.4095
C6 C 0.0846(3) -0.0598(3) -0.3455(7)
H7 H 0.0336 -0.0806 -0.3831
C7 C 0.1011(3) 0.0116(4) -0.2750(9)
H8 H 0.0610 0.0398 -0.2663
C8 C 0.1760(3) 0.0419(3) -0.2169(7)
H9 H 0.1875 0.0904 -0.1674
C9 C 0.3214(3) 0.1336(2) -0.1972(5)
H10 H 0.2915 0.1560 -0.1418
H11 H 0.3742 0.1567 -0.1453
C10 C 0.2805(3) 0.1532(2) -0.3853(5)
H12 H 0.2281 0.1293 -0.4402
H13 H 0.3115 0.1341 -0.4415
C11 C 0.2717(3) 0.2384(2) -0.4066(6)
H14 H 0.2427 0.2572 -0.3456
H15 H 0.3245 0.2617 -0.3540
F10 F 0.4086(6) 0.2986(5) 0.3503(14)
F11 F 0.4351(6) 0.2356(5) 0.5810(12)
F12 F 0.5274(5) 0.2630(6) 0.5174(16)
Ag1B Ag 0.608126(16) 0.028670(15) 0.32906(3)
Ag1F Ag 0.391874(16) -0.028670(15) -0.32906(3)
Ag1E Ag 0.108126(16) 0.471330(15) -1.17094(3)
Ag1C Ag 0.108126(16) 0.528670(15) -0.67094(3)
S1E S 0.16798(6) 0.46628(5) -0.84852(13)
S1F S 0.33202(6) -0.03372(5) 0.34852(13)
S1D S 0.66798(6) -0.03372(5) 0.15148(13)
S1B S 0.66798(6) 0.03372(5) 0.65148(13)
O3B O 0.6149(3) 0.1667(2) 0.2951(5)
O4B O 0.5260(2) 0.11476(19) 0.0570(5)
C1B C 0.5639(3) 0.1681(3) 0.1470(6)
C2B C 0.5443(3) 0.2450(3) 0.0608(6)
C3E C 0.2663(2) 0.4997(2) -0.7677(5)
C4E C 0.2826(3) 0.5705(3) -0.6951(6)
H5E H 0.2431 0.5984 -0.6835
C5E C 0.3579(3) 0.6001(3) -0.6394(7)
H6E H 0.3693 0.6487 -0.5905
C6E C 0.4154(3) 0.5598(3) -0.6545(7)
H7E H 0.4664 0.5806 -0.6169
C7E C 0.3989(3) 0.4884(4) -0.7250(9)
H8E H 0.4390 0.4602 -0.7337
C8E C 0.3240(3) 0.4581(3) -0.7831(7)
H9E H 0.3125 0.4096 -0.8326
C9E C 0.1786(3) 0.3664(2) -0.8028(5)
H10E H 0.2085 0.3440 -0.8582
H11E H 0.1258 0.3433 -0.8547
C10E C 0.2195(3) 0.3468(2) -0.6147(5)
H12E H 0.2719 0.3707 -0.5598
H13E H 0.1885 0.3659 -0.5585
C11E C 0.2283(3) 0.2616(2) -0.5934(6)
H14E H 0.2573 0.2428 -0.6544
H15E H 0.1755 0.2383 -0.6460
F10B F 0.5914(6) 0.2986(5) 0.1497(14)
F11B F 0.5649(6) 0.2356(5) -0.0810(12)
F12B F 0.4726(5) 0.2630(6) -0.0174(16)
F1? F 0.5184(9) 0.2739(9) 0.419(3)
F2? F 0.3988(10) 0.2943(9) 0.383(2)
F3? F 0.4829(11) 0.2388(9) 0.6080(14)
F4? F 0.4852(8) 0.2894(6) 0.3382(16)
F5? F 0.3992(7) 0.2865(7) 0.432(2)
F6? F 0.5187(7) 0.2492(8) 0.5875(14)
F7? F 0.4408(13) 0.3004(7) 0.320(2)
F8? F 0.4126(11) 0.2617(10) 0.519(3)
F9? F 0.5312(8) 0.2529(12) 0.549(3)
loop_
_geom_bond_atom_site_label_1
_geom_bond_atom_site_label_2
_geom_bond_site_symmetry_1
_geom_bond_site_symmetry_2
Ag1 O1 1_555 1_555
O1 H1 1_555 1_555
H2 O1 1_555 1_555
O2 H3 1_555 1_555
H3 O2E 1_555 1_555
H4 O2 1_555 1_555
S1 Ag1 1_555 1_555
O3 Ag1 1_555 1_555
O4 C1 1_555 1_555
C1 O3 1_555 1_555
C2 C1 1_555 1_555
C3 S1 1_555 1_555
C4 C3 1_555 1_555
H5 C4 1_555 1_555
C5 C4 1_555 1_555
H6 C5 1_555 1_555
C6 C5 1_555 1_555
H7 C6 1_555 1_555
C7 C6 1_555 1_555
H8 C7 1_555 1_555
C8 C3 1_555 1_555
H9 C8 1_555 1_555
C9 S1 1_555 1_555
H10 C9 1_555 1_555
H11 C9 1_555 1_555
C10 C9 1_555 1_555
H12 C10 1_555 1_555
H13 C10 1_555 1_555
C11 C10 1_555 1_555
H14 C11 1_555 1_555
H15 C11 1_555 1_555
F10 C2 1_555 1_555
F11 C2 1_555 1_555
F12 C2 1_555 1_555
Ag1B O1 1_555 1_555
Ag1F S1 1_555 1_555
Ag1E S1E 1_555 1_555
Ag1C S1E 1_555 1_555
O2E O2 1_555 1_555
H3E O2 1_555 1_555
H4E O2 1_555 1_555
S1E C3E 1_555 1_555
S1F Ag1 1_555 1_555
S1D Ag1B 1_555 1_555
S1B Ag1B 1_555 1_555
O3B Ag1B 1_555 1_555
O4B C1B 1_555 1_555
C1B O3B 1_555 1_555
C2B C1B 1_555 1_555
C3E C4E 1_555 1_555
C4E H5E 1_555 1_555
C5E C4E 1_555 1_555
H6E C5E 1_555 1_555
C6E C5E 1_555 1_555
H7E C6E 1_555 1_555
C7E C6E 1_555 1_555
H8E C7E 1_555 1_555
C8E C3E 1_555 1_555
H9E C8E 1_555 1_555
C9E S1E 1_555 1_555
H10E C9E 1_555 1_555
H11E C9E 1_555 1_555
C10E C9E 1_555 1_555
H12E C10E 1_555 1_555
H13E C10E 1_555 1_555
C11E C11 1_555 1_555
H14E C11E 1_555 1_555
H15E C11E 1_555 1_555
F10B C2B 1_555 1_555
F11B C2B 1_555 1_555
F12B C2B 1_555 1_555
H3 H4E 1_555 1_555
H4 O2E 1_555 1_555
H4 H3E 1_555 1_555
C7 C8 1_555 1_555
O2E H3E 1_555 1_555
O2E H4E 1_555 1_555
C7E C8E 1_555 1_555
C10E C11E 1_555 1_555

#END
