
#######################################################################
#
#                 Cambridge Crystallographic Data Centre
#                                CCDC 
#
#######################################################################
#
# If this CIF has been generated from an entry in the Cambridge 
# Structural Database, then it will include bibliographic, chemical, 
# crystal, experimental, refinement or atomic coordinate data resulting 
# from the CCDC's data processing and validation procedures.
#
#######################################################################

data_VEDVUX
_symmetry_cell_setting           monoclinic
_symmetry_space_group_name_H-M   'P 21'
_symmetry_Int_Tables_number      4
_space_group_name_Hall           'P 2yb'
loop_
_symmetry_equiv_pos_site_id
_symmetry_equiv_pos_as_xyz
1 x,y,z
2 -x,1/2+y,-z
_cell_length_a                   6.8443(3)
_cell_length_b                   16.4131(9)
_cell_length_c                   23.3284(10)
_cell_angle_alpha                90
_cell_angle_beta                 93.720(4)
_cell_angle_gamma                90
_cell_volume                     2615.1
loop_
_atom_site_label
_atom_site_type_symbol
_atom_site_fract_x
_atom_site_fract_y
_atom_site_fract_z
Cd1 Cd -0.77680(7) 0.20901(4) -0.07893(2)
Cd2 Cd -2.28262(10) 0.56813(5) -0.56255(3)
C1 C -1.0845(13) 0.2739(8) -0.1415(4)
C2 C -1.2690(12) 0.3095(7) -0.1675(3)
C3 C -1.3962(12) 0.2626(7) -0.2030(3)
H1 H -1.3621 0.2098 -0.2128
C4 C -1.5713(13) 0.2948(7) -0.2234(4)
H2 H -1.6515 0.2642 -0.2489
C5 C -1.6332(13) 0.3707(7) -0.2076(4)
C6 C -1.5111(14) 0.4166(8) -0.1729(4)
H3 H -1.5480 0.4691 -0.1632
C7 C -1.3298(15) 0.3859(7) -0.1514(4)
H4 H -1.2501 0.4172 -0.1262
C8 C -1.8306(12) 0.4041(7) -0.2286(4)
H5 H -1.9150 0.3599 -0.2425
H6 H -1.8916 0.4307 -0.1973
C9 C -1.9735(13) 0.4989(6) -0.2958(4)
C10 C -1.9460(13) 0.5627(8) -0.3321(4)
H7 H -1.8193 0.5779 -0.3397
C11 C -2.1046(14) 0.6057(8) -0.3580(4)
H8 H -2.0846 0.6492 -0.3825
C12 C -2.2931(11) 0.5817(7) -0.3464(3)
C13 C -2.3208(12) 0.5180(6) -0.3098(3)
H9 H -2.4470 0.5029 -0.3016
C14 C -2.1608(13) 0.4757(6) -0.2848(3)
H10 H -2.1804 0.4318 -0.2606
C15 C -2.4474(13) 0.6806(6) -0.4101(3)
H11 H -2.3520 0.7218 -0.3962
C16 C -2.6473(15) 0.7209(10) -0.4171(4)
H12 H -2.6834 0.7406 -0.3805
H13 H -2.7424 0.6818 -0.4317
H14 H -2.6425 0.7656 -0.4435
C17 C -2.3822(16) 0.6465(8) -0.4652(4)
C18 C 0.4634(16) 0.4920(8) 0.3605(4)
C19 C 0.3201(14) 0.4374(7) 0.3265(3)
C20 C 0.3811(16) 0.3655(7) 0.3058(5)
H15 H 0.5121 0.3506 0.3113
C21 C 0.2513(15) 0.3148(7) 0.2770(4)
H16 H 0.2966 0.2670 0.2611
C22 C 0.0603(15) 0.3323(8) 0.2711(4)
C23 C -0.0013(18) 0.4049(10) 0.2897(6)
H17 H -0.1336 0.4179 0.2852
C24 C 0.1309(17) 0.4615(9) 0.3159(5)
H18 H 0.0904 0.5134 0.3256
C25 C -0.0895(16) 0.2683(8) 0.2484(5)
H19 H -0.0212 0.2223 0.2330
H20 H -0.1634 0.2489 0.2797
C26 C -0.3713(18) 0.2501(9) 0.1866(4)
C27 C -0.4902(13) 0.2804(6) 0.1414(4)
H21 H -0.4635 0.3310 0.1257
C28 C -0.6486(15) 0.2355(6) 0.1198(4)
H22 H -0.7275 0.2555 0.0890
C29 C -0.6904(15) 0.1621(7) 0.1432(4)
C30 C -0.5708(14) 0.1319(7) 0.1871(4)
H23 H -0.5964 0.0811 0.2025
C31 C -0.4085(17) 0.1774(8) 0.2092(4)
H24 H -0.3277 0.1569 0.2393
C32 C -0.9794(13) 0.1391(6) 0.0824(4)
H25 H -1.0230 0.1935 0.0932
C33 C -1.1528(15) 0.0813(9) 0.0818(3)
H26 H -1.2031 0.0798 0.1192
H27 H -1.1116 0.0277 0.0714
H28 H -1.2532 0.1000 0.0542
C34 C -0.8973(14) 0.1439(7) 0.0231(4)
C35 C -0.4177(13) 0.0972(7) -0.1071(4)
H29 H -0.3487 0.1155 -0.0739
C36 C -0.4902(16) 0.0304(7) -0.1862(4)
H30 H -0.4850 -0.0045 -0.2175
C37 C -0.6434(12) 0.0783(7) -0.1735(3)
H31 H -0.7612 0.0815 -0.1956
C38 C -0.1541(15) 0.0057(8) -0.1391(4)
H32 H -0.1410 -0.0312 -0.1711
H33 H -0.0558 0.0479 -0.1414
C39 C -0.1169(13) -0.0378(8) -0.0874(4)
H34 H -0.2076 -0.0832 -0.0873
H35 H -0.1457 -0.0022 -0.0558
C40 C 0.0886(13) -0.0707(8) -0.0759(4)
H36 H 0.1148 -0.1106 -0.1051
H37 H 0.1818 -0.0265 -0.0786
C41 C 0.1161(12) -0.1086(8) -0.0190(4)
H38 H 0.0642 -0.0720 0.0088
H39 H 0.0383 -0.1580 -0.0193
C42 C 0.3859(12) -0.2023(7) 0.0157(3)
H40 H 0.3131 -0.2500 0.0115
C43 C 0.4630(14) -0.0757(7) 0.0132(4)
H41 H 0.4589 -0.0196 0.0077
C44 C 0.6138(13) -0.1195(7) 0.0350(3)
H42 H 0.7346 -0.0973 0.0471
C45 C -1.903(3) 0.4888(11) -0.4914(7)
H43 H -1.8656 0.5383 -0.4747
C46 C -1.900(2) 0.3636(10) -0.5167(6)
H44 H -1.8701 0.3086 -0.5201
C47 C -2.046(2) 0.4030(10) -0.5433(5)
H45 H -2.1311 0.3804 -0.5717
C48 C -1.585(2) 0.4079(15) -0.4571(11)
H46 H -1.5029 0.3894 -0.4869
H47 H -1.5329 0.4595 -0.4425
C49 C -1.579(3) 0.3520(14) -0.4136(8)
H48 H -1.6595 0.3051 -0.4247
H49 H -1.6286 0.3758 -0.3793
C50 C -1.354(3) 0.3252(12) -0.4018(7)
H50 H -1.2944 0.3160 -0.4378
H51 H -1.2810 0.3678 -0.3810
C51 C -1.350(2) 0.2525(13) -0.3688(7)
H52 H -1.4389 0.2130 -0.3870
H53 H -1.3924 0.2640 -0.3308
C52 C -1.0578(19) 0.1824(9) -0.4049(5)
H54 H -1.1031 0.1813 -0.4434
C53 C -1.041(2) 0.2102(15) -0.3156(7)
H55 H -1.0625 0.2317 -0.2797
C54 C -0.8930(19) 0.1642(8) -0.3298(5)
H56 H -0.7959 0.1447 -0.3036
N1 N -0.6019(10) 0.1207(5) -0.1243(3)
N2 N -0.3476(12) 0.0433(6) -0.1448(3)
N3 N 0.3173(10) -0.1294(6) 0.0008(3)
N4 N 0.5719(10) -0.1997(5) 0.0375(3)
N5 N -2.0574(14) 0.4802(7) -0.5243(4)
N6 N -1.7999(19) 0.4202(9) -0.4829(6)
N7 N -1.1506(15) 0.2187(9) -0.3639(5)
N8 N -0.8993(13) 0.1493(6) -0.3854(3)
O1 O -1.0336(8) 0.2042(6) -0.1553(2)
O2 O -0.9767(9) 0.3179(4) -0.1079(3)
O3 O -1.8075(8) 0.4597(4) -0.2727(2)
O4 O -2.4609(8) 0.6213(4) -0.3670(2)
O5 O -2.2506(14) 0.6785(5) -0.4905(3)
O6 O -2.4632(12) 0.5870(7) -0.4852(3)
O7 O 0.6144(14) 0.4616(8) 0.3789(5)
O8 O 0.4288(13) 0.5587(8) 0.3738(4)
O9 O -0.2168(10) 0.3014(5) 0.2059(3)
O10 O -0.8424(10) 0.1108(4) 0.1250(2)
O11 O -0.7400(10) 0.1154(5) 0.0126(2)
O12 O -1.0011(9) 0.1835(5) -0.0141(3)
Cd1A Cd 0.77680(7) -0.29099(4) 0.07893(2)
Cd2A Cd -0.71738(10) 0.06813(5) -0.43745(3)
Cd2_2 Cd 0.71738(10) 0.56813(5) 0.43745(3)
N4A N -0.5719(10) 0.3003(5) -0.0375(3)
N8A N -2.1007(13) 0.6493(6) -0.6146(3)
O7_2 O -2.3856(14) 0.4616(8) -0.6211(5)
O8_2 O -2.5712(13) 0.5587(8) -0.6262(4)
loop_
_geom_bond_atom_site_label_1
_geom_bond_atom_site_label_2
_geom_bond_site_symmetry_1
_geom_bond_site_symmetry_2
Cd1 N1 1_555 1_555
Cd2 N5 1_555 1_555
C1 C2 1_555 1_555
C2 C3 1_555 1_555
C3 H1 1_555 1_555
C4 C3 1_555 1_555
H2 C4 1_555 1_555
C5 C4 1_555 1_555
C6 C5 1_555 1_555
H3 C6 1_555 1_555
C7 C2 1_555 1_555
H4 C7 1_555 1_555
C8 C5 1_555 1_555
H5 C8 1_555 1_555
H6 C8 1_555 1_555
C9 C10 1_555 1_555
C10 H7 1_555 1_555
C11 C10 1_555 1_555
H8 C11 1_555 1_555
C12 C11 1_555 1_555
C13 C12 1_555 1_555
H9 C13 1_555 1_555
C14 C9 1_555 1_555
H10 C14 1_555 1_555
C15 H11 1_555 1_555
C16 C15 1_555 1_555
H12 C16 1_555 1_555
H13 C16 1_555 1_555
H14 C16 1_555 1_555
C17 C15 1_555 1_555
C18 C19 1_555 1_555
C19 C20 1_555 1_555
C20 H15 1_555 1_555
C21 C20 1_555 1_555
H16 C21 1_555 1_555
C22 C21 1_555 1_555
C23 C22 1_555 1_555
H17 C23 1_555 1_555
C24 C19 1_555 1_555
H18 C24 1_555 1_555
C25 C22 1_555 1_555
H19 C25 1_555 1_555
H20 C25 1_555 1_555
C26 C27 1_555 1_555
C27 H21 1_555 1_555
C28 C27 1_555 1_555
H22 C28 1_555 1_555
C29 C28 1_555 1_555
C30 C29 1_555 1_555
H23 C30 1_555 1_555
C31 C26 1_555 1_555
H24 C31 1_555 1_555
C32 H25 1_555 1_555
C33 C32 1_555 1_555
H26 C33 1_555 1_555
H27 C33 1_555 1_555
H28 C33 1_555 1_555
C34 C32 1_555 1_555
C35 H29 1_555 1_555
C36 H30 1_555 1_555
C37 C36 1_555 1_555
H31 C37 1_555 1_555
C38 H32 1_555 1_555
H33 C38 1_555 1_555
C39 C38 1_555 1_555
H34 C39 1_555 1_555
H35 C39 1_555 1_555
C40 C39 1_555 1_555
H36 C40 1_555 1_555
H37 C40 1_555 1_555
C41 C40 1_555 1_555
H38 C41 1_555 1_555
H39 C41 1_555 1_555
C42 H40 1_555 1_555
C43 H41 1_555 1_555
C44 C43 1_555 1_555
H42 C44 1_555 1_555
C45 H43 1_555 1_555
C46 H44 1_555 1_555
C47 C46 1_555 1_555
H45 C47 1_555 1_555
C48 H46 1_555 1_555
H47 C48 1_555 1_555
C49 C48 1_555 1_555
H48 C49 1_555 1_555
H49 C49 1_555 1_555
C50 C49 1_555 1_555
H50 C50 1_555 1_555
H51 C50 1_555 1_555
C51 C50 1_555 1_555
H52 C51 1_555 1_555
H53 C51 1_555 1_555
C52 H54 1_555 1_555
C53 H55 1_555 1_555
C54 C53 1_555 1_555
H56 C54 1_555 1_555
N1 C35 1_555 1_555
N2 C35 1_555 1_555
N3 C41 1_555 1_555
N4 C42 1_555 1_555
N5 C45 1_555 1_555
N6 C45 1_555 1_555
N7 C51 1_555 1_555
N8 C52 1_555 1_555
O1 Cd1 1_555 1_555
O2 Cd1 1_555 1_555
O3 C8 1_555 1_555
O4 C12 1_555 1_555
O5 Cd2 1_555 1_555
O6 Cd2 1_555 1_555
O7 C18 1_555 1_555
O8 C18 1_555 1_555
O9 C25 1_555 1_555
O10 C29 1_555 1_555
O11 Cd1 1_555 1_555
O12 Cd1 1_555 1_555
Cd1A N4 1_555 1_555
Cd2A N8 1_555 1_555
Cd2_2 O7 1_555 1_555
N4A Cd1 1_555 1_555
N8A Cd2 1_555 1_555
O7_2 Cd2 1_555 1_555
O8_2 Cd2 1_555 1_555
C1 O1 1_555 1_555
C1 O2 1_555 1_555
C6 C7 1_555 1_555
C9 O3 1_555 1_555
C13 C14 1_555 1_555
C15 O4 1_555 1_555
C17 O5 1_555 1_555
C17 O6 1_555 1_555
C23 C24 1_555 1_555
C26 O9 1_555 1_555
C30 C31 1_555 1_555
C32 O10 1_555 1_555
C34 O11 1_555 1_555
C34 O12 1_555 1_555
C36 N2 1_555 1_555
C37 N1 1_555 1_555
C38 N2 1_555 1_555
C42 N3 1_555 1_555
C43 N3 1_555 1_555
C44 N4 1_555 1_555
C46 N6 1_555 1_555
C47 N5 1_555 1_555
C48 N6 1_555 1_555
C52 N7 1_555 1_555
C53 N7 1_555 1_555
C54 N8 1_555 1_555
O8 Cd2_2 1_555 1_555

#END
