
#######################################################################
#
#                 Cambridge Crystallographic Data Centre
#                                CCDC 
#
#######################################################################
#
# If this CIF has been generated from an entry in the Cambridge 
# Structural Database, then it will include bibliographic, chemical, 
# crystal, experimental, refinement or atomic coordinate data resulting 
# from the CCDC's data processing and validation procedures.
#
#######################################################################

data_VEDVAD
_symmetry_cell_setting           monoclinic
_symmetry_space_group_name_H-M   'P 21'
_symmetry_Int_Tables_number      4
_space_group_name_Hall           'P 2yb'
loop_
_symmetry_equiv_pos_site_id
_symmetry_equiv_pos_as_xyz
1 x,y,z
2 -x,1/2+y,-z
_cell_length_a                   7.6746(5)
_cell_length_b                   5.8610(3)
_cell_length_c                   19.3632(10)
_cell_angle_alpha                90
_cell_angle_beta                 101.186(6)
_cell_angle_gamma                90
_cell_volume                     854.427
loop_
_atom_site_label
_atom_site_type_symbol
_atom_site_fract_x
_atom_site_fract_y
_atom_site_fract_z
Co1 Co 0.33165(5) 0.84615(6) 0.385566(15)
C1 C 0.1343(4) 1.0321(6) 0.28448(14)
C2 C 0.0276(4) 1.1140(5) 0.21596(13)
C3 C 0.0018(4) 0.9690(5) 0.15855(14)
H1 H 0.0504 0.8232 0.1633
C4 C -0.0943(4) 1.0373(5) 0.09480(14)
H2 H -0.1063 0.9396 0.0563
C5 C -0.1740(4) 1.2507(5) 0.08696(14)
C6 C -0.1486(4) 1.3942(5) 0.14461(13)
H3 H -0.2030 1.5367 0.1406
C7 C -0.0446(4) 1.3311(6) 0.20798(12)
H4 H -0.0229 1.4340 0.2452
C8 C -0.2852(4) 1.3320(7) 0.01812(12)
H5 H -0.3983 1.3899 0.0259
H6 H -0.2243 1.4541 -0.0013
C9 C -0.3794(4) 1.1944(5) -0.09960(13)
C10 C -0.3519(4) 1.0285(5) -0.14652(13)
H7 H -0.2967 0.8922 -0.1302
C11 C -0.4071(4) 1.0652(5) -0.21866(14)
H8 H -0.3904 0.9534 -0.2508
C12 C -0.4859(4) 1.2676(5) -0.24124(13)
C13 C -0.5191(4) 1.4312(5) -0.19499(14)
H9 H -0.5764 1.5661 -0.2113
C14 C -0.4651(4) 1.3921(5) -0.12273(13)
H10 H -0.4877 1.5006 -0.0905
C15 C -0.7054(3) 1.3324(7) -0.34865(12)
H11 H -0.7714 1.4180 -0.3187
C16 C -0.7870(5) 1.0992(6) -0.36353(16)
H12 H -0.7848 1.0201 -0.3199
H13 H -0.7207 1.0141 -0.3920
H14 H -0.9077 1.1149 -0.3881
C17 C -0.7069(4) 1.4643(5) -0.41677(14)
O1 O 0.1380(3) 0.8228(4) 0.29701(8)
O2 O 0.2219(3) 1.1694(4) 0.32802(9)
O3 O -0.3135(3) 1.1448(3) -0.02948(9)
O4 O -0.5218(3) 1.3139(4) -0.31402(8)
O5 O -0.8477(3) 1.5526(4) -0.44648(10)
O6 O -0.5627(3) 1.4747(3) -0.43974(9)
O7 O 0.1884(3) 0.9040(3) 0.46204(10)
H15 H 0.182(5) 0.787(4) 0.4916(13)
H16 H 0.080(2) 0.966(6) 0.4521(16)
O8 O 0.3776(4) 0.5140(3) 0.41474(10)
H17 H 0.397(5) 0.477(6) 0.4606(7)
H18 H 0.309(4) 0.401(4) 0.3947(15)
Co1A Co -0.33165(5) 1.34615(6) -0.385566(15)
O4A O 0.5218(3) 0.8139(4) 0.31402(8)
O6A O 0.5627(3) 0.9747(3) 0.43974(9)
loop_
_geom_bond_atom_site_label_1
_geom_bond_atom_site_label_2
_geom_bond_site_symmetry_1
_geom_bond_site_symmetry_2
Co1 O1 1_555 1_555
C1 C2 1_555 1_555
C2 C3 1_555 1_555
C3 H1 1_555 1_555
C4 C3 1_555 1_555
H2 C4 1_555 1_555
C5 C4 1_555 1_555
C6 C5 1_555 1_555
H3 C6 1_555 1_555
C7 C2 1_555 1_555
H4 C7 1_555 1_555
C8 C5 1_555 1_555
H5 C8 1_555 1_555
H6 C8 1_555 1_555
C9 C10 1_555 1_555
C10 H7 1_555 1_555
C11 C10 1_555 1_555
H8 C11 1_555 1_555
C12 C11 1_555 1_555
C13 C12 1_555 1_555
H9 C13 1_555 1_555
C14 C9 1_555 1_555
H10 C14 1_555 1_555
C15 H11 1_555 1_555
C16 C15 1_555 1_555
H12 C16 1_555 1_555
H13 C16 1_555 1_555
H14 C16 1_555 1_555
C17 C15 1_555 1_555
O1 C1 1_555 1_555
O2 Co1 1_555 1_555
O3 C8 1_555 1_555
O4 C12 1_555 1_555
O5 C17 1_555 1_555
O6 C17 1_555 1_555
O7 Co1 1_555 1_555
H15 O7 1_555 1_555
H16 O7 1_555 1_555
O8 Co1 1_555 1_555
H17 O8 1_555 1_555
H18 O8 1_555 1_555
Co1A O4 1_555 1_555
O4A Co1 1_555 1_555
O6A Co1 1_555 1_555
C1 O2 1_555 1_555
C6 C7 1_555 1_555
C9 O3 1_555 1_555
C13 C14 1_555 1_555
C15 O4 1_555 1_555
O6 Co1A 1_555 1_555

#END
