
#######################################################################
#
#                 Cambridge Crystallographic Data Centre
#                                CCDC 
#
#######################################################################
#
# If this CIF has been generated from an entry in the Cambridge 
# Structural Database, then it will include bibliographic, chemical, 
# crystal, experimental, refinement or atomic coordinate data resulting 
# from the CCDC's data processing and validation procedures.
#
#######################################################################

data_VEDVEG
_symmetry_cell_setting           monoclinic
_symmetry_space_group_name_H-M   'P 21/c'
_symmetry_Int_Tables_number      14
_space_group_name_Hall           '-P 2ybc'
loop_
_symmetry_equiv_pos_site_id
_symmetry_equiv_pos_as_xyz
1 x,y,z
2 -x,1/2+y,1/2-z
3 -x,-y,-z
4 x,1/2-y,1/2+z
_cell_length_a                   13.1732(2)
_cell_length_b                   13.8286(2)
_cell_length_c                   8.74950(10)
_cell_angle_alpha                90
_cell_angle_beta                 92.6080(10)
_cell_angle_gamma                90
_cell_volume                     1592.22
loop_
_atom_site_label
_atom_site_type_symbol
_atom_site_fract_x
_atom_site_fract_y
_atom_site_fract_z
Ag1 Ag 0.62013(2) 0.73358(3) 0.17131(4)
Ag2 Ag 0.47459(3) 0.60322(3) -0.07043(4)
S1 S 0.67876(7) 0.82560(7) -0.05819(11)
F1 F 0.1970(2) 0.7109(2) 0.1914(4)
F2 F 0.2760(3) 0.6973(3) 0.4114(4)
F3 F 0.2692(2) 0.8347(2) 0.2942(5)
F4 F 0.8506(2) 0.6097(2) -0.0715(4)
F5 F 0.8053(2) 0.4980(2) -0.2305(3)
F6 F 0.8354(2) 0.4637(2) 0.0067(4)
O1 O 0.3752(2) 0.6401(2) 0.1213(4)
O2 O 0.4525(2) 0.7673(2) 0.2339(4)
O3 O 0.6303(2) 0.5841(2) -0.1676(4)
O4 O 0.6582(3) 0.5442(2) 0.0793(4)
C1 C 0.3794(3) 0.7136(3) 0.1994(5)
C2 C 0.2783(3) 0.7402(3) 0.2730(6)
C3 C 0.6837(3) 0.5531(3) -0.0560(5)
C4 C 0.7949(4) 0.5295(3) -0.0875(6)
C5 C 0.8134(3) 0.8438(3) -0.0463(5)
C6 C 0.8586(4) 0.8943(4) -0.1612(6)
H1 H 0.8189 0.9202 -0.2433
C7 C 0.9632(4) 0.9062(4) -0.1542(7)
H2 H 0.9952 0.9398 -0.2320
C8 C 1.0203(4) 0.8680(5) -0.0308(8)
H3 H 1.0913 0.8753 -0.0259
C9 C 0.9747(4) 0.8205(5) 0.0816(8)
H4 H 1.0141 0.7962 0.1653
C10 C 0.8701(4) 0.8069(4) 0.0756(6)
H5 H 0.8387 0.7729 0.1536
C11 C 0.6333(3) 0.9490(3) -0.0320(5)
H6 H 0.6637 0.9755 0.0633
H7 H 0.6544 0.9895 -0.1168
C12 C 0.5182(3) 0.9509(3) -0.0261(5)
H8 H 0.4877 0.9365 -0.1278
H9 H 0.4962 0.9010 0.0447
Ag1B Ag 0.37987(2) 1.26642(3) -0.17131(4)
Ag1C Ag 0.62013(2) 0.76642(3) -0.32869(4)
Ag1A Ag 0.37987(2) 1.23358(3) 0.32869(4)
Ag2C Ag 0.47459(3) 0.89678(3) 0.42957(4)
Ag2C_2 Ag 0.47459(3) 0.89678(3) -0.57043(4)
S1B S 0.32124(7) 1.17440(7) 0.05819(11)
S1C S 0.67876(7) 0.67440(7) 0.44181(11)
S1A S 0.32124(7) 1.32560(7) -0.44181(11)
F1C F 0.1970(2) 0.7891(2) -0.3086(4)
F2C F 0.2760(3) 0.8027(3) -0.0886(4)
F3C F 0.2692(2) 0.6653(2) -0.2058(5)
F4C F 0.8506(2) 0.8903(2) 0.4285(4)
F5C F 0.8053(2) 1.0020(2) 0.2695(3)
F6C F 0.8354(2) 1.0363(2) 0.5067(4)
O1C O 0.3752(2) 0.8599(2) -0.3787(4)
O1C_2 O 0.3752(2) 0.8599(2) 0.6213(4)
O2C O 0.4525(2) 0.7327(2) -0.2661(4)
O2B O 0.5475(2) 1.2327(2) -0.2339(4)
O3C O 0.6303(2) 0.9159(2) 0.3324(4)
O4C O 0.6582(3) 0.9558(2) 0.5793(4)
C1C C 0.3794(3) 0.7864(3) -0.3006(5)
C2C C 0.2783(3) 0.7598(3) -0.2270(6)
C3C C 0.6837(3) 0.9469(3) 0.4440(5)
C4C C 0.7949(4) 0.9705(3) 0.4125(6)
C5B C 0.1866(3) 1.1562(3) 0.0463(5)
C6B C 0.1414(4) 1.1057(4) 0.1612(6)
H1B H 0.1811 1.0798 0.2433
C7B C 0.0368(4) 1.0938(4) 0.1542(7)
H2B H 0.0048 1.0602 0.2320
C8B C -0.0203(4) 1.1320(5) 0.0308(8)
H3B H -0.0913 1.1247 0.0259
C9B C 0.0253(4) 1.1795(5) -0.0816(8)
H4B H -0.0141 1.2038 -0.1653
C10B C 0.1299(4) 1.1931(4) -0.0756(6)
H5B H 0.1613 1.2271 -0.1536
C11B C 0.3667(3) 1.0510(3) 0.0320(5)
H6B H 0.3363 1.0245 -0.0633
H7B H 0.3456 1.0105 0.1168
C12B C 0.4818(3) 1.0491(3) 0.0261(5)
H8B H 0.5123 1.0635 0.1278
H9B H 0.5038 1.0990 -0.0447
loop_
_geom_bond_atom_site_label_1
_geom_bond_atom_site_label_2
_geom_bond_site_symmetry_1
_geom_bond_site_symmetry_2
Ag1 S1 1_555 1_555
Ag2 O1 1_555 1_555
S1 C5 1_555 1_555
F1 C2 1_555 1_555
F2 C2 1_555 1_555
F3 C2 1_555 1_555
F4 C4 1_555 1_555
F5 C4 1_555 1_555
F6 C4 1_555 1_555
O1 C1 1_555 1_555
O2 Ag1 1_555 1_555
O3 Ag2 1_555 1_555
O4 C3 1_555 1_555
C1 O2 1_555 1_555
C2 C1 1_555 1_555
C3 O3 1_555 1_555
C4 C3 1_555 1_555
C5 C6 1_555 1_555
C6 H1 1_555 1_555
C7 C6 1_555 1_555
H2 C7 1_555 1_555
C8 C7 1_555 1_555
H3 C8 1_555 1_555
C9 C8 1_555 1_555
H4 C9 1_555 1_555
C10 C5 1_555 1_555
H5 C10 1_555 1_555
C11 S1 1_555 1_555
H6 C11 1_555 1_555
H7 C11 1_555 1_555
C12 C11 1_555 1_555
H8 C12 1_555 1_555
H9 C12 1_555 1_555
Ag1B S1B 1_555 1_555
Ag1C S1 1_555 1_555
Ag1A S1B 1_555 1_555
Ag2C O2 1_555 1_555
Ag2C_2 O1C 1_555 1_555
S1B C5B 1_555 1_555
S1C Ag1 1_555 1_555
S1A Ag1B 1_555 1_555
F1C C2C 1_555 1_555
F2C C2C 1_555 1_555
F3C C2C 1_555 1_555
F4C C4C 1_555 1_555
F5C C4C 1_555 1_555
F6C C4C 1_555 1_555
O1C C1C 1_555 1_555
O1C_2 Ag2C 1_555 1_555
O2C Ag2 1_555 1_555
O2B Ag1B 1_555 1_555
O3C Ag2C 1_555 1_555
O4C C3C 1_555 1_555
C1C O2C 1_555 1_555
C2C C1C 1_555 1_555
C3C O3C 1_555 1_555
C4C C3C 1_555 1_555
C5B C6B 1_555 1_555
C6B H1B 1_555 1_555
C7B C6B 1_555 1_555
H2B C7B 1_555 1_555
C8B C7B 1_555 1_555
H3B C8B 1_555 1_555
C9B C8B 1_555 1_555
H4B C9B 1_555 1_555
C10B C5B 1_555 1_555
H5B C10B 1_555 1_555
C11B S1B 1_555 1_555
H6B C11B 1_555 1_555
H7B C11B 1_555 1_555
C12B C12 1_555 1_555
H8B C12B 1_555 1_555
H9B C12B 1_555 1_555
C9 C10 1_555 1_555
Ag1C O2C 1_555 1_555
C9B C10B 1_555 1_555
C11B C12B 1_555 1_555

#END
