
#######################################################################
#
#                 Cambridge Crystallographic Data Centre
#                                CCDC 
#
#######################################################################
#
# If this CIF has been generated from an entry in the Cambridge 
# Structural Database, then it will include bibliographic, chemical, 
# crystal, experimental, refinement or atomic coordinate data resulting 
# from the CCDC's data processing and validation procedures.
#
#######################################################################

data_VEDVEF
_symmetry_cell_setting           triclinic
_symmetry_space_group_name_H-M   'P -1'
_symmetry_Int_Tables_number      2
_space_group_name_Hall           '-P 1'
loop_
_symmetry_equiv_pos_site_id
_symmetry_equiv_pos_as_xyz
1 x,y,z
2 -x,-y,-z
_cell_length_a                   8.695(3)
_cell_length_b                   9.083(5)
_cell_length_c                   10.008(3)
_cell_angle_alpha                91.10(3)
_cell_angle_beta                 99.34(3)
_cell_angle_gamma                108.23(2)
_cell_volume                     738.707
loop_
_atom_site_label
_atom_site_type_symbol
_atom_site_fract_x
_atom_site_fract_y
_atom_site_fract_z
Cd1 Cd 0.12226(3) 0.16954(2) -0.22904(2)
S1 S 0.0333(1) 0.3136(1) -0.0281(1)
S2 S -0.1799(1) 0.1366(1) -0.3670(1)
S3 S 0.4113(1) 0.2013(1) -0.0349(1)
N1 N 0.0372(4) -0.0667(3) -0.1385(3)
N2 N 0.1931(4) 0.0401(4) -0.3979(3)
N3 N 0.4509(3) 0.4446(3) -0.2947(3)
N4 N 0.2887(3) 0.4115(3) -0.2830(3)
C1 C -0.0080(4) 0.1660(3) 0.0681(3)
C2 C -0.1857(4) 0.0337(4) -0.5062(3)
C3 C 0.2515(4) 0.5415(3) -0.3133(3)
C4 C 0.3896(5) 0.6533(4) -0.3444(3)
C5 C 0.5135(4) 0.5907(4) -0.3309(3)
C6 C 0.0843(6) 0.5541(5) -0.3105(5)
C7 C 0.6896(6) 0.6564(6) -0.3507(5)
C8 C 0.5391(5) 0.3348(5) -0.2594(5)
C9 C 0.5775(6) 0.3229(5) -0.1079(7)
C10 C 0.4428(6) 0.0139(5) -0.0580(5)
H1 H 0.378(6) 0.746(6) -0.356(5)
H2 H -0.014(6) 0.478(6) -0.290(5)
H3 H 0.101(7) 0.603(7) -0.261(6)
H4 H 0.060(6) 0.629(5) -0.375(5)
H5 H 0.703(6) 0.587(6) -0.437(5)
H6 H 0.704(7) 0.744(6) -0.352(5)
H7 H 0.484(6) 0.238(6) -0.291(5)
H8 H 0.638(6) 0.369(6) -0.287(5)
H9 H 0.651(6) 0.293(6) -0.109(6)
H10 H 0.610(7) 0.394(6) -0.075(6)
H11 H 0.311(6) -0.080(6) -0.090(5)
H12 H 0.487(6) -0.019(6) -0.120(5)
C1A C 0.0080(4) -0.1660(3) -0.0681(3)
C2A C 0.1857(4) -0.0337(4) -0.4938(3)
N1A N -0.0372(4) 0.0667(3) 0.1385(3)
N2A N -0.1931(4) -0.0401(4) -0.6021(3)
C10A C 0.5572(6) -0.0139(5) 0.0580(5)
S1A S -0.0333(1) -0.3136(1) 0.0281(1)
S2A S 0.1799(1) -0.1366(1) -0.6330(1)
Cd1A Cd -0.12226(3) -0.16954(2) 0.22904(2)
Cd1A_2 Cd -0.12226(3) -0.16954(2) -0.77096(2)
S3A S 0.5887(1) -0.2013(1) 0.0349(1)
H11A H 0.689(6) 0.080(6) 0.090(5)
H12A H 0.513(6) 0.019(6) 0.120(5)
S2A_2 S 0.1799(1) -0.1366(1) 0.3670(1)
S3A_2 S -0.4113(1) -0.2013(1) 0.0349(1)
N2A_2 N -0.1931(4) -0.0401(4) 0.3979(3)
N4A N -0.2887(3) -0.4115(3) 0.2830(3)
Cd1A_3 Cd 0.87774(3) -0.16954(2) 0.22904(2)
C9A C 0.4225(6) -0.3229(5) 0.1079(7)
C8A C 0.4609(5) -0.3348(5) 0.2594(5)
H9A H 0.349(6) -0.293(6) 0.109(6)
H10A H 0.390(7) -0.394(6) 0.075(6)
N3A N 0.5491(3) -0.4446(3) 0.2947(3)
H7A H 0.516(6) -0.238(6) 0.291(5)
H8A H 0.362(6) -0.369(6) 0.287(5)
N4A_2 N 0.7113(3) -0.4115(3) 0.2830(3)
C5A C 0.4865(4) -0.5907(4) 0.3309(3)
C3A C 0.7485(4) -0.5415(3) 0.3133(3)
C4A C 0.6104(5) -0.6533(4) 0.3444(3)
C7A C 0.3104(6) -0.6564(6) 0.3507(5)
C6A C 0.9157(6) -0.5541(5) 0.3105(5)
H1A H 0.622(6) -0.746(6) 0.356(5)
H5A H 0.297(6) -0.587(6) 0.437(5)
H6A H 0.296(7) -0.744(6) 0.352(5)
H2A H 1.014(6) -0.478(6) 0.290(5)
H3A H 0.899(7) -0.603(7) 0.261(6)
H4A H 0.940(6) -0.629(5) 0.375(5)
loop_
_geom_bond_atom_site_label_1
_geom_bond_atom_site_label_2
_geom_bond_site_symmetry_1
_geom_bond_site_symmetry_2
Cd1 S1 1_555 1_555
S1 C1 1_555 1_555
S2 Cd1 1_555 1_555
S3 Cd1 1_555 1_555
N1 Cd1 1_555 1_555
N2 Cd1 1_555 1_555
N3 N4 1_555 1_555
N4 Cd1 1_555 1_555
C1 N1A 1_555 1_555
C2 S2 1_555 1_555
C3 N4 1_555 1_555
C4 C3 1_555 1_555
C5 N3 1_555 1_555
C6 C3 1_555 1_555
C7 C5 1_555 1_555
C8 N3 1_555 1_555
C9 S3 1_555 1_555
C10 S3 1_555 1_555
H1 C4 1_555 1_555
H2 C6 1_555 1_555
H3 C6 1_555 1_555
H4 C6 1_555 1_555
H5 C7 1_555 1_555
H6 C7 1_555 1_555
H7 C8 1_555 1_555
H8 C8 1_555 1_555
H9 C9 1_555 1_555
H10 C9 1_555 1_555
H11 C10 1_555 1_555
H12 C10 1_555 1_555
C1A N1 1_555 1_555
C2A N2 1_555 1_555
N1A Cd1A 1_555 1_555
N2A C2 1_555 1_555
C10A C10 1_555 1_555
S1A C1A 1_555 1_555
S2A C2A 1_555 1_555
Cd1A S1A 1_555 1_555
Cd1A_2 N2A 1_555 1_555
S3A C10A 1_555 1_555
H11A C10A 1_555 1_555
H12A C10A 1_555 1_555
S2A_2 Cd1A 1_555 1_555
S3A_2 Cd1A 1_555 1_555
N2A_2 Cd1A 1_555 1_555
N4A Cd1A 1_555 1_555
Cd1A_3 S3A 1_555 1_555
C9A S3A 1_555 1_555
C8A C9A 1_555 1_555
H9A C9A 1_555 1_555
H10A C9A 1_555 1_555
N3A C8A 1_555 1_555
H7A C8A 1_555 1_555
H8A C8A 1_555 1_555
N4A_2 Cd1A_3 1_555 1_555
C5A N3A 1_555 1_555
C3A N4A_2 1_555 1_555
C4A C5A 1_555 1_555
C7A C5A 1_555 1_555
C6A C3A 1_555 1_555
H1A C4A 1_555 1_555
H5A C7A 1_555 1_555
H6A C7A 1_555 1_555
H2A C6A 1_555 1_555
H3A C6A 1_555 1_555
H4A C6A 1_555 1_555
C4 C5 1_555 1_555
C8 C9 1_555 1_555
S2A Cd1A_2 1_555 1_555
N3A N4A_2 1_555 1_555
C3A C4A 1_555 1_555

#END
