
#######################################################################
#
#                 Cambridge Crystallographic Data Centre
#                                CCDC 
#
#######################################################################
#
# If this CIF has been generated from an entry in the Cambridge 
# Structural Database, then it will include bibliographic, chemical, 
# crystal, experimental, refinement or atomic coordinate data resulting 
# from the CCDC's data processing and validation procedures.
#
#######################################################################

data_VEDVIK
_symmetry_cell_setting           triclinic
_symmetry_space_group_name_H-M   'P -1'
_symmetry_Int_Tables_number      2
_space_group_name_Hall           '-P 1'
loop_
_symmetry_equiv_pos_site_id
_symmetry_equiv_pos_as_xyz
1 x,y,z
2 -x,-y,-z
_cell_length_a                   9.7118(5)
_cell_length_b                   11.3140(6)
_cell_length_c                   14.0734(6)
_cell_angle_alpha                111.128(3)
_cell_angle_beta                 91.177(3)
_cell_angle_gamma                107.772(3)
_cell_volume                     1358.67
loop_
_atom_site_label
_atom_site_type_symbol
_atom_site_fract_x
_atom_site_fract_y
_atom_site_fract_z
Ag1 Ag 0.02178(4) 0.32608(4) -0.00018(3)
Ag2 Ag -0.13092(4) -0.11807(4) -0.04500(3)
S1 S -0.15519(13) 0.49692(12) 0.07199(9)
S2 S -0.15984(13) 0.09547(12) -0.07591(9)
F1 F 0.4190(6) 0.6490(4) 0.2790(4)
F2 F 0.5097(5) 0.5057(6) 0.2902(5)
F3 F 0.2060(8) 0.5710(8) 0.3799(5)
F4 F 0.4203(8) 0.6210(7) 0.4608(4)
F5 F 0.2843(11) 0.4133(7) 0.3836(4)
F6 F -0.0790(7) 0.2299(5) 0.3491(4)
F7 F -0.0941(6) 0.0332(6) 0.3428(4)
F8 F -0.3492(8) 0.1355(10) 0.2560(5)
F9 F -0.3728(9) -0.0590(9) 0.2612(6)
F10 F -0.3225(7) 0.1185(7) 0.4016(4)
O1 O 0.1775(5) 0.4548(4) 0.1515(3)
O2 O 0.2963(5) 0.3125(4) 0.1523(4)
O3 O -0.1556(5) -0.0716(5) 0.1281(3)
O4 O -0.0559(5) 0.1447(5) 0.1541(3)
C1 C 0.2716(7) 0.4206(6) 0.1853(4)
C2 C 0.3781(9) 0.5286(7) 0.2841(5)
C3 C 0.3230(14) 0.5293(11) 0.3796(7)
C4 C -0.1163(7) 0.0521(8) 0.1793(5)
C5 C -0.1499(9) 0.0931(8) 0.2933(6)
C6 C -0.3017(12) 0.0695(15) 0.3029(7)
C7 C -0.1518(5) 0.5612(5) 0.2068(4)
C8 C -0.1424(7) 0.4842(7) 0.2616(5)
H1 H -0.1400 0.3968 0.2267
C9 C -0.1365(9) 0.5333(9) 0.3660(5)
H2 H -0.1317 0.4789 0.4022
C10 C -0.1376(8) 0.6604(9) 0.4186(5)
H3 H -0.1333 0.6932 0.4906
C11 C -0.1449(8) 0.7411(7) 0.3655(5)
H4 H -0.1452 0.8290 0.4014
C12 C -0.1517(6) 0.6912(6) 0.2591(4)
H5 H -0.1563 0.7454 0.2226
C13 C -0.3486(5) 0.4295(5) 0.0187(4)
H6 H -0.3590 0.3743 -0.0547
H7 H -0.4008 0.3703 0.0523
C14 C -0.4221(5) 0.5343(5) 0.0302(4)
H8 H -0.3649 0.6008 0.0041
H9 H -0.4263 0.5815 0.1032
C15 C -0.2173(6) 0.0488(5) -0.2101(4)
C16 C -0.2127(7) 0.1476(7) -0.2474(5)
H10 H -0.1798 0.2390 -0.2034
C17 C -0.2581(9) 0.1074(9) -0.3520(6)
H11 H -0.2543 0.1723 -0.3798
C18 C -0.3084(9) -0.0270(8) -0.4148(5)
H12 H -0.3401 -0.0528 -0.4851
C19 C -0.3134(9) -0.1222(8) -0.3778(5)
H13 H -0.3474 -0.2135 -0.4222
C20 C -0.2677(7) -0.0851(6) -0.2730(5)
H14 H -0.2715 -0.1509 -0.2462
C21 C -0.3217(5) 0.1172(5) -0.0181(4)
H15 H -0.3681 0.1588 -0.0534
H16 H -0.2911 0.1790 0.0542
C22 C -0.4332(5) -0.0131(5) -0.0233(4)
H17 H -0.4632 -0.0765 -0.0952
H18 H -0.3893 -0.0537 0.0144
Ag1A Ag -1.02178(4) 0.67392(4) 0.00018(3)
Ag1A_2 Ag -0.02178(4) 0.67392(4) 0.00018(3)
Ag1_2 Ag -0.97822(4) 0.32608(4) -0.00018(3)
Ag1A_3 Ag -1.02178(4) -0.32608(4) 0.00018(3)
Ag1A_4 Ag -0.02178(4) -0.32608(4) 0.00018(3)
Ag2A Ag -0.86908(4) 0.11807(4) 0.04500(3)
Ag2A_2 Ag 0.13092(4) 0.11807(4) 0.04500(3)
S1A S -0.84481(13) 0.50308(12) -0.07199(9)
S1A_2 S 0.15519(13) 0.50308(12) -0.07199(9)
S1_2 S -1.15519(13) 0.49692(12) 0.07199(9)
S2A S -0.84016(13) -0.09547(12) 0.07591(9)
S2A_2 S -0.84016(13) 0.90453(12) 0.07591(9)
F1A F -0.4190(6) -0.6490(4) -0.2790(4)
F2A F -0.5097(5) -0.5057(6) -0.2902(5)
F3A F -0.2060(8) -0.5710(8) -0.3799(5)
F4A F -0.4203(8) -0.6210(7) -0.4608(4)
F5A F -0.2843(11) -0.4133(7) -0.3836(4)
F6A F 0.0790(7) -0.2299(5) -0.3491(4)
F7A F 0.0941(6) -0.0332(6) -0.3428(4)
F8A F 0.3492(8) -0.1355(10) -0.2560(5)
F9A F 0.3728(9) 0.0590(9) -0.2612(6)
F10A F 0.3225(7) -0.1185(7) -0.4016(4)
O1A O -0.1775(5) -0.4548(4) -0.1515(3)
O1A_2 O -1.1775(5) 0.5452(4) -0.1515(3)
O2A O -0.2963(5) -0.3125(4) -0.1523(4)
O2_2 O -0.7037(5) 0.3125(4) 0.1523(4)
O3A O 0.1556(5) 0.0716(5) -0.1281(3)
O3A_2 O -0.8444(5) 0.0716(5) -0.1281(3)
O4A O 0.0559(5) -0.1447(5) -0.1541(3)
O4_2 O -1.0559(5) 0.1447(5) 0.1541(3)
C1A C -0.2716(7) -0.4206(6) -0.1853(4)
C2A C -0.3781(9) -0.5286(7) -0.2841(5)
C3A C -0.3230(14) -0.5293(11) -0.3796(7)
C4A C 0.1163(7) -0.0521(8) -0.1793(5)
C5A C 0.1499(9) -0.0931(8) -0.2933(6)
C6A C 0.3017(12) -0.0695(15) -0.3029(7)
C7A C -0.8482(5) 0.4388(5) -0.2068(4)
C8A C -0.8576(7) 0.5158(7) -0.2616(5)
H1A H -0.8600 0.6032 -0.2267
C9A C -0.8635(9) 0.4667(9) -0.3660(5)
H2A H -0.8683 0.5211 -0.4022
C10A C -0.8624(8) 0.3396(9) -0.4186(5)
H3A H -0.8667 0.3068 -0.4906
C11A C -0.8551(8) 0.2589(7) -0.3655(5)
H4A H -0.8548 0.1710 -0.4014
C12A C -0.8483(6) 0.3088(6) -0.2591(4)
H5A H -0.8437 0.2546 -0.2226
C13A C -0.6514(5) 0.5705(5) -0.0187(4)
H6A H -0.6410 0.6257 0.0547
H7A H -0.5992 0.6297 -0.0523
C14A C -0.5779(5) 0.4657(5) -0.0302(4)
H8A H -0.6351 0.3992 -0.0041
H9A H -0.5737 0.4185 -0.1032
C15A C -0.7827(6) -0.0488(5) 0.2101(4)
C16A C -0.7873(7) -0.1476(7) 0.2474(5)
H10A H -0.8202 -0.2390 0.2034
C17A C -0.7419(9) -0.1074(9) 0.3520(6)
H11A H -0.7457 -0.1723 0.3798
C18A C -0.6916(9) 0.0270(8) 0.4148(5)
H12A H -0.6599 0.0528 0.4851
C19A C -0.6866(9) 0.1222(8) 0.3778(5)
H13A H -0.6526 0.2135 0.4222
C20A C -0.7323(7) 0.0851(6) 0.2730(5)
H14A H -0.7285 0.1509 0.2462
C21A C -0.6783(5) -0.1172(5) 0.0181(4)
H15A H -0.6319 -0.1588 0.0534
H16A H -0.7089 -0.1790 -0.0542
C22A C -0.5668(5) 0.0131(5) 0.0233(4)
H17A H -0.5368 0.0765 0.0952
H18A H -0.6107 0.0537 -0.0144
loop_
_geom_bond_atom_site_label_1
_geom_bond_atom_site_label_2
_geom_bond_site_symmetry_1
_geom_bond_site_symmetry_2
Ag1 S1 1_555 1_555
Ag2 S2 1_555 1_555
S1 C7 1_555 1_555
S2 Ag1 1_555 1_555
F1 C2 1_555 1_555
F2 C2 1_555 1_555
F3 C3 1_555 1_555
F4 C3 1_555 1_555
F5 C3 1_555 1_555
F6 C5 1_555 1_555
F7 C5 1_555 1_555
F8 C6 1_555 1_555
F9 C6 1_555 1_555
F10 C6 1_555 1_555
O1 Ag1 1_555 1_555
O2 C1 1_555 1_555
O3 Ag2 1_555 1_555
O4 C4 1_555 1_555
C1 O1 1_555 1_555
C2 C1 1_555 1_555
C3 C2 1_555 1_555
C4 O3 1_555 1_555
C5 C4 1_555 1_555
C6 C5 1_555 1_555
C7 C8 1_555 1_555
C8 H1 1_555 1_555
C9 C8 1_555 1_555
H2 C9 1_555 1_555
C10 C9 1_555 1_555
H3 C10 1_555 1_555
C11 C10 1_555 1_555
H4 C11 1_555 1_555
C12 C7 1_555 1_555
H5 C12 1_555 1_555
C13 S1 1_555 1_555
H6 C13 1_555 1_555
H7 C13 1_555 1_555
C14 C13 1_555 1_555
H8 C14 1_555 1_555
H9 C14 1_555 1_555
C15 S2 1_555 1_555
C16 C15 1_555 1_555
H10 C16 1_555 1_555
C17 C16 1_555 1_555
H11 C17 1_555 1_555
C18 C17 1_555 1_555
H12 C18 1_555 1_555
C19 C18 1_555 1_555
H13 C19 1_555 1_555
C20 C15 1_555 1_555
H14 C20 1_555 1_555
C21 S2 1_555 1_555
H15 C21 1_555 1_555
H16 C21 1_555 1_555
C22 C21 1_555 1_555
H17 C22 1_555 1_555
H18 C22 1_555 1_555
Ag1A S1A 1_555 1_555
Ag1A_2 S1 1_555 1_555
Ag1_2 S1A 1_555 1_555
Ag1A_3 S2A 1_555 1_555
Ag1A_4 O1A 1_555 1_555
Ag2A S2A 1_555 1_555
Ag2A_2 O2 1_555 1_555
S1A C7A 1_555 1_555
S1A_2 Ag1 1_555 1_555
S1_2 Ag1A 1_555 1_555
S2A C15A 1_555 1_555
S2A_2 Ag1A 1_555 1_555
F1A C2A 1_555 1_555
F2A C2A 1_555 1_555
F3A C3A 1_555 1_555
F4A C3A 1_555 1_555
F5A C3A 1_555 1_555
F6A C5A 1_555 1_555
F7A C5A 1_555 1_555
F8A C6A 1_555 1_555
F9A C6A 1_555 1_555
F10A C6A 1_555 1_555
O1A C1A 1_555 1_555
O1A_2 Ag1A 1_555 1_555
O2A Ag2 1_555 1_555
O2_2 Ag2A 1_555 1_555
O3A Ag2A_2 1_555 1_555
O3A_2 Ag2A 1_555 1_555
O4A Ag2 1_555 1_555
O4_2 Ag2A 1_555 1_555
C1A O2A 1_555 1_555
C2A C1A 1_555 1_555
C3A C2A 1_555 1_555
C4A O3A 1_555 1_555
C5A C4A 1_555 1_555
C6A C5A 1_555 1_555
C7A C8A 1_555 1_555
C8A H1A 1_555 1_555
C9A C8A 1_555 1_555
H2A C9A 1_555 1_555
C10A C9A 1_555 1_555
H3A C10A 1_555 1_555
C11A C10A 1_555 1_555
H4A C11A 1_555 1_555
C12A C7A 1_555 1_555
H5A C12A 1_555 1_555
C13A S1A 1_555 1_555
H6A C13A 1_555 1_555
H7A C13A 1_555 1_555
C14A C14 1_555 1_555
H8A C14A 1_555 1_555
H9A C14A 1_555 1_555
C15A C16A 1_555 1_555
C16A H10A 1_555 1_555
C17A C16A 1_555 1_555
H11A C17A 1_555 1_555
C18A C17A 1_555 1_555
H12A C18A 1_555 1_555
C19A C18A 1_555 1_555
H13A C19A 1_555 1_555
C20A C15A 1_555 1_555
H14A C20A 1_555 1_555
C21A S2A 1_555 1_555
H15A C21A 1_555 1_555
H16A C21A 1_555 1_555
C22A C22 1_555 1_555
H17A C22A 1_555 1_555
H18A C22A 1_555 1_555
O4 Ag2A_2 1_555 1_555
C11 C12 1_555 1_555
C19 C20 1_555 1_555
Ag1A_2 S1A_2 1_555 1_555
Ag1_2 S1_2 1_555 1_555
O4A C4A 1_555 1_555
C11A C12A 1_555 1_555
C13A C14A 1_555 1_555
C19A C20A 1_555 1_555
C21A C22A 1_555 1_555

#END
