
#######################################################################
#
#                 Cambridge Crystallographic Data Centre
#                                CCDC 
#
#######################################################################
#
# If this CIF has been generated from an entry in the Cambridge 
# Structural Database, then it will include bibliographic, chemical, 
# crystal, experimental, refinement or atomic coordinate data resulting 
# from the CCDC's data processing and validation procedures.
#
#######################################################################

data_VEDWAD
_symmetry_cell_setting           triclinic
_symmetry_space_group_name_H-M   'P -1'
_symmetry_Int_Tables_number      2
_space_group_name_Hall           '-P 1'
loop_
_symmetry_equiv_pos_site_id
_symmetry_equiv_pos_as_xyz
1 x,y,z
2 -x,-y,-z
_cell_length_a                   10.27860(10)
_cell_length_b                   13.02410(10)
_cell_length_c                   13.30400(10)
_cell_angle_alpha                116.3660(10)
_cell_angle_beta                 111.1930(10)
_cell_angle_gamma                92.9340(10)
_cell_volume                     1439.23
loop_
_atom_site_label
_atom_site_type_symbol
_atom_site_fract_x
_atom_site_fract_y
_atom_site_fract_z
Ag1 Ag 0.62441(2) 0.427826(18) 0.467100(18)
Ag2 Ag 1.01478(2) 0.414364(18) 0.385687(19)
S1 S 0.74653(8) 0.35345(6) 0.32121(6)
S2 S 0.50579(8) 0.36443(6) -0.42745(6)
F1 F 0.9768(3) 0.7974(2) 0.8439(2)
F2 F 0.8058(3) 0.8686(2) 0.8900(2)
F3 F 0.9379(3) 0.6370(3) 0.9179(3)
F4 F 0.7855(3) 0.7201(3) 0.9782(2)
F5 F 1.0021(3) 0.8210(3) 1.0580(2)
F6 F 1.0273(3) 0.14983(18) 0.5295(2)
F7 F 0.8593(2) 0.19648(19) 0.5896(2)
F8 F 1.2298(3) 0.3149(3) 0.7642(3)
F9 F 1.0597(5) 0.3531(3) 0.8210(2)
F10 F 1.0921(3) 0.1776(2) 0.7537(2)
O1 O 0.7747(2) 0.61997(19) 0.6392(2)
O2 O 1.0874(2) 0.3589(2) 0.5451(2)
O3 O 0.9166(3) 0.4100(2) 0.6134(2)
O4 O 0.6169(2) 0.6480(2) 0.7237(2)
C1 C 0.7366(3) 0.6681(3) 0.7244(3)
C2 C 0.8528(4) 0.7684(3) 0.8512(3)
C3 C 0.8938(5) 0.7353(5) 0.9532(4)
C4 C 0.9987(3) 0.3468(3) 0.5849(3)
C5 C 0.9934(3) 0.2403(3) 0.6080(3)
C6 C 1.0952(5) 0.2718(3) 0.7391(4)
C7 C 0.6940(4) 0.1951(3) 0.2434(3)
C8 C 0.5497(4) 0.1366(3) 0.1927(3)
H1 H 0.4787 0.1801 0.1978
C9 C 0.5115(5) 0.0144(3) 0.1346(4)
H2 H 0.4131 -0.0267 0.0980
C10 C 0.6159(5) -0.0486(3) 0.1296(4)
H3 H 0.5889 -0.1325 0.0905
C11 C 0.7593(5) 0.0102(3) 0.1812(4)
H4 H 0.8304 -0.0334 0.1771
C12 C 0.7990(4) 0.1331(3) 0.2392(3)
H5 H 0.8973 0.1741 0.2755
C13 C 0.4240(3) 0.2091(3) -0.5219(3)
C14 C 0.2807(4) 0.1703(3) -0.5516(3)
H6 H 0.2281 0.2255 -0.5225
C15 C 0.2136(4) 0.0490(3) -0.6249(4)
H7 H 0.1151 0.0214 -0.6456
C16 C 0.2909(4) -0.0310(3) -0.6675(3)
H8 H 0.2455 -0.1134 -0.7172
C17 C 0.4336(4) 0.0091(3) -0.6377(3)
H9 H 0.4862 -0.0461 -0.6668
C18 C 0.5013(4) 0.1294(3) -0.5657(3)
H10 H 0.5992 0.1568 -0.5467
C19 C 0.6441(3) 0.3718(3) -0.2897(3)
H11 H 0.6875 0.3039 -0.3153
H12 H 0.7214 0.4456 -0.2448
C20 C 0.5810(4) 0.3693(3) -0.2039(3)
H13 H 0.4963 0.3004 -0.2523
H14 H 0.5467 0.4418 -0.1722
C21 C 0.6867(4) 0.3618(3) -0.0934(3)
H15 H 0.7088 0.2835 -0.1234
H16 H 0.7779 0.4233 -0.0516
C22 C 0.6244(3) 0.3794(3) -0.0006(3)
H17 H 0.5262 0.3260 -0.0460
H18 H 0.6152 0.4618 0.0373
C23 C 0.7143(3) 0.3556(3) 0.1035(3)
H19 H 0.7147 0.2708 0.0676
H20 H 0.8151 0.4031 0.1448
C24 C 0.6526(3) 0.3874(3) 0.1988(3)
H21 H 0.5498 0.3438 0.1556
H22 H 0.6574 0.4732 0.2373
Ag1_2 Ag 0.62441(2) 0.427826(18) -0.532900(18)
Ag1A Ag 0.37559(2) 0.572174(18) 0.532900(18)
Ag2A Ag 0.98522(2) 0.585636(18) 0.614313(19)
S2_2 S 0.50579(8) 0.36443(6) 0.57255(6)
O1A O 1.2253(2) 0.38003(19) 0.3608(2)
O3A O 1.0834(3) 0.5900(2) 0.3866(2)
O4A O 0.3831(2) 0.3520(2) 0.2763(2)
loop_
_geom_bond_atom_site_label_1
_geom_bond_atom_site_label_2
_geom_bond_site_symmetry_1
_geom_bond_site_symmetry_2
Ag1 S1 1_555 1_555
Ag2 S1 1_555 1_555
S1 C7 1_555 1_555
S2 C13 1_555 1_555
F1 C2 1_555 1_555
F2 C2 1_555 1_555
F3 C3 1_555 1_555
F4 C3 1_555 1_555
F5 C3 1_555 1_555
F6 C5 1_555 1_555
F7 C5 1_555 1_555
F8 C6 1_555 1_555
F9 C6 1_555 1_555
F10 C6 1_555 1_555
O1 Ag1 1_555 1_555
O2 Ag2 1_555 1_555
O3 C4 1_555 1_555
O4 C1 1_555 1_555
C1 O1 1_555 1_555
C2 C1 1_555 1_555
C3 C2 1_555 1_555
C4 O2 1_555 1_555
C5 C4 1_555 1_555
C6 C5 1_555 1_555
C7 C8 1_555 1_555
C8 H1 1_555 1_555
C9 C8 1_555 1_555
H2 C9 1_555 1_555
C10 C9 1_555 1_555
H3 C10 1_555 1_555
C11 C10 1_555 1_555
H4 C11 1_555 1_555
C12 C7 1_555 1_555
H5 C12 1_555 1_555
C13 C14 1_555 1_555
C14 H6 1_555 1_555
C15 C14 1_555 1_555
H7 C15 1_555 1_555
C16 C15 1_555 1_555
H8 C16 1_555 1_555
C17 C16 1_555 1_555
H9 C17 1_555 1_555
C18 C13 1_555 1_555
H10 C18 1_555 1_555
C19 S2 1_555 1_555
H11 C19 1_555 1_555
H12 C19 1_555 1_555
C20 C19 1_555 1_555
H13 C20 1_555 1_555
H14 C20 1_555 1_555
C21 C20 1_555 1_555
H15 C21 1_555 1_555
H16 C21 1_555 1_555
C22 C21 1_555 1_555
H17 C22 1_555 1_555
H18 C22 1_555 1_555
C23 C22 1_555 1_555
H19 C23 1_555 1_555
H20 C23 1_555 1_555
C24 S1 1_555 1_555
H21 C24 1_555 1_555
H22 C24 1_555 1_555
Ag1_2 S2 1_555 1_555
Ag1A O4 1_555 1_555
Ag2A O1 1_555 1_555
S2_2 Ag1 1_555 1_555
O1A Ag2 1_555 1_555
O3A Ag2 1_555 1_555
O4A Ag1 1_555 1_555
O3 Ag2A 1_555 1_555
C11 C12 1_555 1_555
C17 C18 1_555 1_555
C23 C24 1_555 1_555

#END
