
#######################################################################
#
#                 Cambridge Crystallographic Data Centre
#                                CCDC 
#
#######################################################################
#
# If this CIF has been generated from an entry in the Cambridge 
# Structural Database, then it will include bibliographic, chemical, 
# crystal, experimental, refinement or atomic coordinate data resulting 
# from the CCDC's data processing and validation procedures.
#
#######################################################################

data_VEDWOR
_symmetry_cell_setting           monoclinic
_symmetry_space_group_name_H-M   'P 21/c'
_symmetry_Int_Tables_number      14
_space_group_name_Hall           '-P 2ybc'
loop_
_symmetry_equiv_pos_site_id
_symmetry_equiv_pos_as_xyz
1 x,y,z
2 -x,1/2+y,1/2-z
3 -x,-y,-z
4 x,1/2-y,1/2+z
_cell_length_a                   8.32240(10)
_cell_length_b                   10.80900(10)
_cell_length_c                   25.6623(3)
_cell_angle_alpha                90
_cell_angle_beta                 96.4990(10)
_cell_angle_gamma                90
_cell_volume                     2293.66
loop_
_atom_site_label
_atom_site_type_symbol
_atom_site_fract_x
_atom_site_fract_y
_atom_site_fract_z
Ag1 Ag 0.05299(4) 0.12050(3) 0.282836(11)
Ag2 Ag 0.55077(4) 0.20049(3) 0.274280(11)
S1 S 0.28997(11) 0.26162(9) 0.30617(3)
S2 S 0.21649(11) 0.56039(9) 0.19290(3)
S3 S 0.76956(12) 0.32727(9) 0.18047(4)
S4 S 0.25898(12) -0.01430(9) 0.18628(3)
F1 F 0.8085(4) 0.1276(2) 0.12546(10)
F2 F 0.9339(3) 0.2880(3) 0.10102(11)
F3 F 0.6757(3) 0.2725(2) 0.08232(9)
F4 F 0.1706(3) 0.0327(2) 0.08719(9)
F5 F 0.2777(3) 0.1882(2) 0.13073(10)
F6 F 0.4282(3) 0.0395(2) 0.10937(10)
O1 O 0.6168(3) 0.2759(3) 0.19248(11)
O2 O 0.9080(3) 0.2917(3) 0.21603(11)
O3 O 0.7627(4) 0.4562(3) 0.16609(12)
O4 O 0.1090(3) 0.0381(3) 0.20072(11)
O5 O 0.4026(3) 0.0190(3) 0.22079(11)
O6 O 0.2484(4) -0.1430(3) 0.17125(11)
C1 C 0.7992(5) 0.2494(4) 0.11889(16)
C2 C 0.2853(5) 0.0661(4) 0.12513(16)
C3 C 0.3103(5) 0.2944(4) 0.37491(15)
C4 C 0.4550(5) 0.2675(4) 0.40504(16)
H1 H 0.5427 0.2325 0.3894
C5 C 0.4695(6) 0.2924(4) 0.45809(17)
H2 H 0.5678 0.2739 0.4792
C6 C 0.3432(6) 0.3437(5) 0.48073(17)
H3 H 0.3547 0.3605 0.5173
C7 C 0.1993(6) 0.3709(4) 0.45043(17)
H4 H 0.1125 0.4065 0.4663
C8 C 0.1814(5) 0.3462(4) 0.39689(16)
H5 H 0.0829 0.3644 0.3759
C9 C 0.2413(5) 0.4138(4) 0.27795(14)
H6 H 0.1289 0.4367 0.2830
H7 H 0.3152 0.4769 0.2953
C10 C 0.2237(5) 0.5406(4) 0.12431(15)
C11 C 0.1128(5) 0.6039(4) 0.08999(16)
H8 H 0.0293 0.6508 0.1030
C12 C 0.1239(5) 0.5988(4) 0.03672(16)
H9 H 0.0498 0.6442 0.0132
C13 C 0.2429(5) 0.5276(4) 0.01736(16)
H10 H 0.2483 0.5230 -0.0194
C14 C 0.3538(6) 0.4632(4) 0.05171(16)
H11 H 0.4350 0.4144 0.0385
C15 C 0.3460(5) 0.4703(4) 0.10570(15)
H12 H 0.4228 0.4278 0.1294
C16 C 0.2604(5) 0.4069(4) 0.21984(15)
H13 H 0.1844 0.3455 0.2022
H14 H 0.3720 0.3821 0.2147
Ag1A Ag -0.05299(4) 0.62050(3) 0.217164(11)
Ag2A Ag 0.44923(4) 0.70049(3) 0.225720(11)
S2A S -0.21649(11) 0.06039(9) 0.30710(3)
S2A_2 S 0.78351(11) 0.06039(9) 0.30710(3)
loop_
_geom_bond_atom_site_label_1
_geom_bond_atom_site_label_2
_geom_bond_site_symmetry_1
_geom_bond_site_symmetry_2
Ag1 S1 1_555 1_555
Ag2 S1 1_555 1_555
S1 C3 1_555 1_555
S2 C10 1_555 1_555
S3 O1 1_555 1_555
S4 O4 1_555 1_555
F1 C1 1_555 1_555
F2 C1 1_555 1_555
F3 C1 1_555 1_555
F4 C2 1_555 1_555
F5 C2 1_555 1_555
F6 C2 1_555 1_555
O1 Ag2 1_555 1_555
O2 S3 1_555 1_555
O3 S3 1_555 1_555
O4 Ag1 1_555 1_555
O5 S4 1_555 1_555
O6 S4 1_555 1_555
C1 S3 1_555 1_555
C2 S4 1_555 1_555
C3 C4 1_555 1_555
C4 H1 1_555 1_555
C5 C4 1_555 1_555
H2 C5 1_555 1_555
C6 C5 1_555 1_555
H3 C6 1_555 1_555
C7 C6 1_555 1_555
H4 C7 1_555 1_555
C8 C3 1_555 1_555
H5 C8 1_555 1_555
C9 S1 1_555 1_555
H6 C9 1_555 1_555
H7 C9 1_555 1_555
C10 C11 1_555 1_555
C11 H8 1_555 1_555
C12 C11 1_555 1_555
H9 C12 1_555 1_555
C13 C12 1_555 1_555
H10 C13 1_555 1_555
C14 C13 1_555 1_555
H11 C14 1_555 1_555
C15 C10 1_555 1_555
H12 C15 1_555 1_555
C16 S2 1_555 1_555
H13 C16 1_555 1_555
H14 C16 1_555 1_555
Ag1A S2 1_555 1_555
Ag2A S2 1_555 1_555
S2A Ag1 1_555 1_555
S2A_2 Ag2 1_555 1_555
C7 C8 1_555 1_555
C9 C16 1_555 1_555
C14 C15 1_555 1_555

#END
