
#######################################################################
#
#                 Cambridge Crystallographic Data Centre
#                                CCDC 
#
#######################################################################
#
# If this CIF has been generated from an entry in the Cambridge 
# Structural Database, then it will include bibliographic, chemical, 
# crystal, experimental, refinement or atomic coordinate data resulting 
# from the CCDC's data processing and validation procedures.
#
#######################################################################

data_VEDWIL
_symmetry_cell_setting           monoclinic
_symmetry_space_group_name_H-M   'P 21/n'
_symmetry_Int_Tables_number      14
_space_group_name_Hall           '-P 2yn'
loop_
_symmetry_equiv_pos_site_id
_symmetry_equiv_pos_as_xyz
1 x,y,z
2 1/2-x,1/2+y,1/2-z
3 -x,-y,-z
4 1/2+x,1/2-y,1/2+z
_cell_length_a                   5.55560(10)
_cell_length_b                   18.6523(4)
_cell_length_c                   21.9144(5)
_cell_angle_alpha                90
_cell_angle_beta                 90.723(2)
_cell_angle_gamma                90
_cell_volume                     2270.69
loop_
_atom_site_label
_atom_site_type_symbol
_atom_site_fract_x
_atom_site_fract_y
_atom_site_fract_z
Ag1 Ag 0.80095(6) 0.292907(16) 0.221673(13)
S1 S 0.80435(19) 0.26885(6) 0.33444(5)
S2 S 0.75729(19) 0.22556(6) 0.12381(5)
O1 O 0.4937(5) 0.38784(17) 0.21640(15)
O2 O 0.1034(5) 0.39148(16) 0.21974(14)
O3 O 0.2867(5) 0.28871(15) 0.21570(13)
N1 N 0.2950(6) 0.3561(2) 0.21722(15)
C1 C 0.8029(8) 0.1726(2) 0.33989(18)
C2 C 0.9782(8) 0.1308(2) 0.31252(19)
H1 H 1.1073 0.1530 0.2917
C3 C 0.9645(8) 0.0568(2) 0.3157(2)
H2 H 1.0866 0.0281 0.2981
C4 C 0.7699(8) 0.0244(2) 0.3448(2)
H3 H 0.7580 -0.0263 0.3465
C5 C 0.5948(8) 0.0667(3) 0.3713(2)
H4 H 0.4620 0.0448 0.3908
C6 C 0.6119(8) 0.1411(2) 0.36954(19)
H5 H 0.4934 0.1700 0.3885
C7 C 1.1110(8) 0.2918(2) 0.35840(19)
H6 H 1.2259 0.2619 0.3354
H7 H 1.1427 0.3426 0.3481
C8 C 1.1549(8) 0.2808(2) 0.42670(19)
H8 H 1.3289 0.2867 0.4356
H9 H 1.1106 0.2310 0.4374
C9 C 1.0137(8) 0.3323(2) 0.46708(18)
H10 H 0.8415 0.3303 0.4550
H11 H 1.0274 0.3160 0.5100
C10 C 1.0992(8) 0.4096(2) 0.46331(19)
H12 H 1.0872 0.4256 0.4203
H13 H 1.2710 0.4116 0.4757
C11 C 0.9577(8) 0.4614(2) 0.50301(18)
H14 H 0.7851 0.4587 0.4914
H15 H 0.9737 0.4464 0.5462
C12 C 0.7629(8) 0.1329(2) 0.14279(18)
C13 C 0.9386(8) 0.0855(2) 0.12432(19)
H16 H 1.0698 0.1017 0.1006
C14 C 0.9205(8) 0.0141(2) 0.1409(2)
H17 H 1.0405 -0.0187 0.1281
C15 C 0.7318(9) -0.0105(2) 0.1758(2)
H18 H 0.7223 -0.0597 0.1869
C16 C 0.5560(9) 0.0376(3) 0.1944(2)
H19 H 0.4258 0.0212 0.2184
C17 C 0.5691(8) 0.1088(2) 0.17847(18)
H20 H 0.4488 0.1415 0.1913
C18 C 1.0332(8) 0.2423(2) 0.08264(18)
H21 H 1.1749 0.2289 0.1080
H22 H 1.0358 0.2137 0.0446
C19 C 1.0387(8) 0.3226(2) 0.0679(2)
H23 H 0.9047 0.3338 0.0392
H24 H 1.0115 0.3500 0.1059
C20 C 1.2732(8) 0.3476(2) 0.0400(2)
H25 H 1.2903 0.3258 -0.0010
H26 H 1.4101 0.3312 0.0658
C21 C 1.2804(8) 0.4294(2) 0.0343(2)
H27 H 1.1364 0.4452 0.0109
H28 H 1.2699 0.4503 0.0757
C22 C 1.5034(8) 0.4593(2) 0.0036(2)
H29 H 1.5188 0.4371 -0.0372
H30 H 1.6476 0.4460 0.0281
Ag1B Ag 1.19905(6) 0.707093(16) 0.778327(13)
Ag1_2 Ag -0.19905(6) 0.292907(16) 0.221673(13)
Ag1B_2 Ag 2.19905(6) 0.707093(16) -0.221673(13)
Ag1_3 Ag 1.80095(6) 0.292907(16) 0.221673(13)
S1B S 1.19565(19) 0.73115(6) 0.66556(5)
S2B S 2.24271(19) 0.77444(6) -0.12381(5)
S2B_2 S 1.24271(19) 0.77444(6) 0.87619(5)
O1_2 O 1.4937(5) 0.38784(17) 0.21640(15)
O1B O 1.5063(5) 0.61216(17) 0.78360(15)
O2_2 O 1.1034(5) 0.39148(16) 0.21974(14)
O2B O 0.8966(5) 0.60852(16) 0.78026(14)
O3_2 O 1.2867(5) 0.28871(15) 0.21570(13)
N1_2 N 1.2950(6) 0.3561(2) 0.21722(15)
C1B C 1.1971(8) 0.8274(2) 0.66011(18)
C2B C 1.0218(8) 0.8692(2) 0.68748(19)
H1B H 0.8927 0.8470 0.7083
C3B C 1.0355(8) 0.9432(2) 0.6843(2)
H2B H 0.9134 0.9719 0.7019
C4B C 1.2301(8) 0.9756(2) 0.6552(2)
H3B H 1.2420 1.0263 0.6535
C5B C 1.4052(8) 0.9333(3) 0.6287(2)
H4B H 1.5380 0.9552 0.6092
C6B C 1.3881(8) 0.8589(2) 0.63046(19)
H5B H 1.5066 0.8300 0.6115
C7B C 0.8890(8) 0.7082(2) 0.64160(19)
H6B H 0.7741 0.7381 0.6646
H7B H 0.8573 0.6574 0.6519
C8B C 0.8451(8) 0.7192(2) 0.57330(19)
H8B H 0.6711 0.7133 0.5644
H9B H 0.8894 0.7690 0.5626
C9B C 0.9863(8) 0.6677(2) 0.53292(18)
H10B H 1.1585 0.6697 0.5450
H11B H 0.9726 0.6840 0.4900
C10B C 0.9008(8) 0.5904(2) 0.53669(19)
H12B H 0.9128 0.5744 0.5797
H13B H 0.7290 0.5884 0.5243
C11B C 1.0423(8) 0.5386(2) 0.49699(18)
H14B H 1.2149 0.5413 0.5086
H15B H 1.0263 0.5536 0.4538
C12B C 2.2371(8) 0.8671(2) -0.14279(18)
C13B C 2.0614(8) 0.9145(2) -0.12432(19)
H16B H 1.9302 0.8983 -0.1006
C14B C 2.0795(8) 0.9859(2) -0.1409(2)
H17B H 1.9595 1.0187 -0.1281
C15B C 2.2682(9) 1.0105(2) -0.1758(2)
H18B H 2.2777 1.0597 -0.1869
C16B C 2.4440(9) 0.9624(3) -0.1944(2)
H19B H 2.5742 0.9788 -0.2184
C17B C 2.4309(8) 0.8912(2) -0.17847(18)
H20B H 2.5512 0.8585 -0.1913
C18B C 1.9668(8) 0.7577(2) -0.08264(18)
H21B H 1.8251 0.7711 -0.1080
H22B H 1.9642 0.7863 -0.0446
C19B C 1.9613(8) 0.6774(2) -0.0679(2)
H23B H 2.0953 0.6662 -0.0392
H24B H 1.9885 0.6500 -0.1059
C20B C 1.7268(8) 0.6524(2) -0.0400(2)
H25B H 1.7097 0.6742 0.0010
H26B H 1.5899 0.6688 -0.0658
C21B C 1.7196(8) 0.5706(2) -0.0343(2)
H27B H 1.8636 0.5548 -0.0109
H28B H 1.7301 0.5497 -0.0757
C22B C 1.4966(8) 0.5407(2) -0.0036(2)
H29B H 1.4812 0.5629 0.0372
H30B H 1.3524 0.5540 -0.0281
loop_
_geom_bond_atom_site_label_1
_geom_bond_atom_site_label_2
_geom_bond_site_symmetry_1
_geom_bond_site_symmetry_2
Ag1 S1 1_555 1_555
S1 C1 1_555 1_555
S2 Ag1 1_555 1_555
O1 Ag1 1_555 1_555
O2 N1 1_555 1_555
O3 N1 1_555 1_555
N1 O1 1_555 1_555
C1 C2 1_555 1_555
C2 H1 1_555 1_555
C3 C2 1_555 1_555
H2 C3 1_555 1_555
C4 C3 1_555 1_555
H3 C4 1_555 1_555
C5 C4 1_555 1_555
H4 C5 1_555 1_555
C6 C1 1_555 1_555
H5 C6 1_555 1_555
C7 S1 1_555 1_555
H6 C7 1_555 1_555
H7 C7 1_555 1_555
C8 C7 1_555 1_555
H8 C8 1_555 1_555
H9 C8 1_555 1_555
C9 C8 1_555 1_555
H10 C9 1_555 1_555
H11 C9 1_555 1_555
C10 C9 1_555 1_555
H12 C10 1_555 1_555
H13 C10 1_555 1_555
C11 C10 1_555 1_555
H14 C11 1_555 1_555
H15 C11 1_555 1_555
C12 S2 1_555 1_555
C13 C12 1_555 1_555
H16 C13 1_555 1_555
C14 C13 1_555 1_555
H17 C14 1_555 1_555
C15 C14 1_555 1_555
H18 C15 1_555 1_555
C16 C15 1_555 1_555
H19 C16 1_555 1_555
C17 C12 1_555 1_555
H20 C17 1_555 1_555
C18 S2 1_555 1_555
H21 C18 1_555 1_555
H22 C18 1_555 1_555
C19 C18 1_555 1_555
H23 C19 1_555 1_555
H24 C19 1_555 1_555
C20 C19 1_555 1_555
H25 C20 1_555 1_555
H26 C20 1_555 1_555
C21 C20 1_555 1_555
H27 C21 1_555 1_555
H28 C21 1_555 1_555
C22 C21 1_555 1_555
H29 C22 1_555 1_555
H30 C22 1_555 1_555
Ag1B S1B 1_555 1_555
Ag1_2 O2 1_555 1_555
Ag1B_2 S2B 1_555 1_555
Ag1_3 O1_2 1_555 1_555
S1B C1B 1_555 1_555
S2B C12B 1_555 1_555
S2B_2 Ag1B 1_555 1_555
O1_2 N1_2 1_555 1_555
O1B Ag1B 1_555 1_555
O2_2 Ag1 1_555 1_555
O2B Ag1B 1_555 1_555
O3_2 N1_2 1_555 1_555
N1_2 O2_2 1_555 1_555
C1B C2B 1_555 1_555
C2B H1B 1_555 1_555
C3B C2B 1_555 1_555
H2B C3B 1_555 1_555
C4B C3B 1_555 1_555
H3B C4B 1_555 1_555
C5B C4B 1_555 1_555
H4B C5B 1_555 1_555
C6B C1B 1_555 1_555
H5B C6B 1_555 1_555
C7B S1B 1_555 1_555
H6B C7B 1_555 1_555
H7B C7B 1_555 1_555
C8B C7B 1_555 1_555
H8B C8B 1_555 1_555
H9B C8B 1_555 1_555
C9B C8B 1_555 1_555
H10B C9B 1_555 1_555
H11B C9B 1_555 1_555
C10B C9B 1_555 1_555
H12B C10B 1_555 1_555
H13B C10B 1_555 1_555
C11B C11 1_555 1_555
H14B C11B 1_555 1_555
H15B C11B 1_555 1_555
C12B C13B 1_555 1_555
C13B H16B 1_555 1_555
C14B C13B 1_555 1_555
H17B C14B 1_555 1_555
C15B C14B 1_555 1_555
H18B C15B 1_555 1_555
C16B C15B 1_555 1_555
H19B C16B 1_555 1_555
C17B C12B 1_555 1_555
H20B C17B 1_555 1_555
C18B S2B 1_555 1_555
H21B C18B 1_555 1_555
H22B C18B 1_555 1_555
C19B C18B 1_555 1_555
H23B C19B 1_555 1_555
H24B C19B 1_555 1_555
C20B C19B 1_555 1_555
H25B C20B 1_555 1_555
H26B C20B 1_555 1_555
C21B C20B 1_555 1_555
H27B C21B 1_555 1_555
H28B C21B 1_555 1_555
C22B C22 1_555 1_555
H29B C22B 1_555 1_555
H30B C22B 1_555 1_555
C5 C6 1_555 1_555
C16 C17 1_555 1_555
C5B C6B 1_555 1_555
C10B C11B 1_555 1_555
C16B C17B 1_555 1_555
C21B C22B 1_555 1_555

#END
