
#######################################################################
#
#                 Cambridge Crystallographic Data Centre
#                                CCDC 
#
#######################################################################
#
# If this CIF has been generated from an entry in the Cambridge 
# Structural Database, then it will include bibliographic, chemical, 
# crystal, experimental, refinement or atomic coordinate data resulting 
# from the CCDC's data processing and validation procedures.
#
#######################################################################

data_VEDWEH
_symmetry_cell_setting           triclinic
_symmetry_space_group_name_H-M   'P -1'
_symmetry_Int_Tables_number      2
_space_group_name_Hall           '-P 1'
loop_
_symmetry_equiv_pos_site_id
_symmetry_equiv_pos_as_xyz
1 x,y,z
2 -x,-y,-z
_cell_length_a                   5.0167(3)
_cell_length_b                   12.0797(5)
_cell_length_c                   13.1304(5)
_cell_angle_alpha                95.093(3)
_cell_angle_beta                 91.816(3)
_cell_angle_gamma                98.354(3)
_cell_volume                     783.351
loop_
_atom_site_label
_atom_site_type_symbol
_atom_site_fract_x
_atom_site_fract_y
_atom_site_fract_z
Ag1 Ag 1.22851(6) 0.06022(2) 0.94775(2)
S1 S 0.72752(19) 0.13917(8) 0.90471(7)
F1 F 0.5862(6) -0.1707(2) 0.6733(2)
F2 F 0.9889(6) -0.2179(3) 0.6600(2)
F3 F 0.4187(6) -0.3440(2) 0.7737(2)
F4 F 0.8300(6) -0.3754(2) 0.8075(2)
F5 F 0.5116(8) -0.5208(3) 0.6621(3)
F6 F 0.5142(7) -0.3866(3) 0.5651(2)
F7 F 0.8859(7) -0.4408(3) 0.6109(3)
O1 O 1.0910(7) -0.0830(3) 0.8267(3)
O2 O 0.7001(7) -0.1515(3) 0.8919(2)
C1 C 0.8691(9) -0.1426(3) 0.8250(3)
C2 C 0.7795(9) -0.2153(4) 0.7226(3)
C3 C 0.6664(9) -0.3390(4) 0.7371(3)
C4 C 0.6466(11) -0.4232(4) 0.6409(4)
C5 C 0.7804(9) 0.2808(3) 0.9694(3)
H1 H 0.8108 0.2760 1.0436
H2 H 0.9459 0.3229 0.9444
C6 C 0.5476(8) 0.3464(3) 0.9538(3)
H3 H 0.3856 0.3096 0.9854
H4 H 0.5051 0.3463 0.8796
C7 C 0.6198(8) 0.4680(3) 1.0019(3)
H5 H 0.6829 0.4677 1.0741
H6 H 0.7693 0.5070 0.9651
C8 C 0.7252(9) 0.1624(4) 0.7721(3)
C9 C 0.5260(14) 0.1042(7) 0.7076(5)
H7 H 0.3873 0.0534 0.7333
C10 C 0.5259(16) 0.1192(8) 0.6038(5)
H8 H 0.3859 0.0788 0.5589
C11 C 0.7252(12) 0.1915(5) 0.5657(4)
H9 H 0.7246 0.2015 0.4947
C12 C 0.9225(16) 0.2485(6) 0.6301(5)
H10 H 1.0596 0.3001 0.6044
C13 C 0.9277(15) 0.2327(6) 0.7337(5)
H11 H 1.0721 0.2709 0.7779
Ag1A Ag -0.22851(6) 0.93978(2) 1.05225(2)
Ag1_2 Ag 0.22851(6) 0.06022(2) 0.94775(2)
Ag1A_2 Ag 0.77149(6) -0.06022(2) 1.05225(2)
Ag1A_3 Ag 0.77149(6) 0.93978(2) 1.05225(2)
S1A S 0.27248(19) 0.86083(8) 1.09529(7)
S1_2 S 1.72752(19) 0.13917(8) 0.90471(7)
S1A_2 S -0.72752(19) 0.86083(8) 1.09529(7)
F1A F 1.4138(6) 0.1707(2) 1.3267(2)
F2A F 1.0111(6) 0.2179(3) 1.3400(2)
F3A F 1.5813(6) 0.3440(2) 1.2263(2)
F4A F 1.1700(6) 0.3754(2) 1.1925(2)
F5A F 1.4884(8) 0.5208(3) 1.3379(3)
F6A F 1.4858(7) 0.3866(3) 1.4349(2)
F7A F 1.1141(7) 0.4408(3) 1.3891(3)
O1A O 0.9090(7) 0.0830(3) 1.1733(3)
O1A_2 O -0.0910(7) 1.0830(3) 1.1733(3)
O2A O 1.2999(7) 0.1515(3) 1.1081(2)
O2_2 O -0.2999(7) 0.8485(3) 0.8919(2)
C1A C 1.1309(9) 0.1426(3) 1.1750(3)
C2A C 1.2205(9) 0.2153(4) 1.2774(3)
C3A C 1.3336(9) 0.3390(4) 1.2629(3)
C4A C 1.3534(11) 0.4232(4) 1.3591(4)
C5A C 0.2196(9) 0.7192(3) 1.0306(3)
H1A H 0.1892 0.7240 0.9564
H2A H 0.0541 0.6771 1.0556
C6A C 0.4524(8) 0.6536(3) 1.0462(3)
H3A H 0.6144 0.6904 1.0146
H4A H 0.4949 0.6537 1.1204
C7A C 0.3802(8) 0.5320(3) 0.9981(3)
H5A H 0.3171 0.5323 0.9259
H6A H 0.2307 0.4930 1.0349
C8A C 0.2748(9) 0.8376(4) 1.2279(3)
C9A C 0.4740(14) 0.8958(7) 1.2924(5)
H7A H 0.6127 0.9466 1.2667
C10A C 0.4741(16) 0.8808(8) 1.3962(5)
H8A H 0.6141 0.9212 1.4411
C11A C 0.2748(12) 0.8085(5) 1.4343(4)
H9A H 0.2754 0.7985 1.5053
C12A C 0.0775(16) 0.7515(6) 1.3699(5)
H10A H -0.0596 0.6999 1.3956
C13A C 0.0723(15) 0.7673(6) 1.2663(5)
H11A H -0.0721 0.7291 1.2221
loop_
_geom_bond_atom_site_label_1
_geom_bond_atom_site_label_2
_geom_bond_site_symmetry_1
_geom_bond_site_symmetry_2
Ag1 S1 1_555 1_555
S1 C5 1_555 1_555
F1 C2 1_555 1_555
F2 C2 1_555 1_555
F3 C3 1_555 1_555
F4 C3 1_555 1_555
F5 C4 1_555 1_555
F6 C4 1_555 1_555
F7 C4 1_555 1_555
O1 Ag1 1_555 1_555
O2 C1 1_555 1_555
C1 O1 1_555 1_555
C2 C1 1_555 1_555
C3 C2 1_555 1_555
C4 C3 1_555 1_555
C5 H1 1_555 1_555
H2 C5 1_555 1_555
C6 C5 1_555 1_555
H3 C6 1_555 1_555
H4 C6 1_555 1_555
C7 C6 1_555 1_555
H5 C7 1_555 1_555
H6 C7 1_555 1_555
C8 S1 1_555 1_555
C9 C8 1_555 1_555
H7 C9 1_555 1_555
C10 C9 1_555 1_555
H8 C10 1_555 1_555
C11 C10 1_555 1_555
H9 C11 1_555 1_555
C12 C11 1_555 1_555
H10 C12 1_555 1_555
C13 C8 1_555 1_555
H11 C13 1_555 1_555
Ag1A S1A 1_555 1_555
Ag1_2 S1 1_555 1_555
Ag1A_2 O2 1_555 1_555
Ag1A_3 S1A 1_555 1_555
S1A C5A 1_555 1_555
S1_2 Ag1 1_555 1_555
S1A_2 Ag1A 1_555 1_555
F1A C2A 1_555 1_555
F2A C2A 1_555 1_555
F3A C3A 1_555 1_555
F4A C3A 1_555 1_555
F5A C4A 1_555 1_555
F6A C4A 1_555 1_555
F7A C4A 1_555 1_555
O1A Ag1A_2 1_555 1_555
O1A_2 Ag1A 1_555 1_555
O2A Ag1 1_555 1_555
O2_2 Ag1A 1_555 1_555
C1A O1A 1_555 1_555
C2A C1A 1_555 1_555
C3A C2A 1_555 1_555
C4A C3A 1_555 1_555
C5A H1A 1_555 1_555
H2A C5A 1_555 1_555
C6A C5A 1_555 1_555
H3A C6A 1_555 1_555
H4A C6A 1_555 1_555
C7A C7 1_555 1_555
H5A C7A 1_555 1_555
H6A C7A 1_555 1_555
C8A S1A 1_555 1_555
C9A C8A 1_555 1_555
H7A C9A 1_555 1_555
C10A C9A 1_555 1_555
H8A C10A 1_555 1_555
C11A C10A 1_555 1_555
H9A C11A 1_555 1_555
C12A C11A 1_555 1_555
H10A C12A 1_555 1_555
C13A C8A 1_555 1_555
H11A C13A 1_555 1_555
C12 C13 1_555 1_555
O2A C1A 1_555 1_555
C6A C7A 1_555 1_555
C12A C13A 1_555 1_555

#END
