
#######################################################################
#
#                 Cambridge Crystallographic Data Centre
#                                CCDC 
#
#######################################################################
#
# If this CIF has been generated from an entry in the Cambridge 
# Structural Database, then it will include bibliographic, chemical, 
# crystal, experimental, refinement or atomic coordinate data resulting 
# from the CCDC's data processing and validation procedures.
#
#######################################################################

data_VEDWAE
_symmetry_cell_setting           monoclinic
_symmetry_space_group_name_H-M   'P 21'
_symmetry_Int_Tables_number      4
_space_group_name_Hall           'P 2yb'
loop_
_symmetry_equiv_pos_site_id
_symmetry_equiv_pos_as_xyz
1 x,y,z
2 -x,1/2+y,-z
_cell_length_a                   6.5495(5)
_cell_length_b                   16.5696(13)
_cell_length_c                   23.432(2)
_cell_angle_alpha                90
_cell_angle_beta                 91.632(8)
_cell_angle_gamma                90
_cell_volume                     2541.87
loop_
_atom_site_label
_atom_site_type_symbol
_atom_site_fract_x
_atom_site_fract_y
_atom_site_fract_z
Zn1 Zn 0.7644(2) 0.56030(6) 0.57202(6)
Zn2 Zn 2.2704(2) 0.19554(6) 1.07373(6)
C1 C 1.062(2) 0.5082(8) 0.6485(6)
C2 C 1.1975(17) 0.4439(7) 0.6769(5)
C3 C 1.383(2) 0.4663(9) 0.6994(6)
H1 H 1.4204 0.5205 0.6993
C4 C 1.519(2) 0.4094(9) 0.7226(6)
H2 H 1.6459 0.4249 0.7378
C5 C 1.4586(19) 0.3281(7) 0.7225(5)
C6 C 1.271(2) 0.3091(7) 0.7033(6)
H3 H 1.2256 0.2563 0.7070
C7 C 1.142(2) 0.3662(8) 0.6778(6)
H4 H 1.0178 0.3504 0.6614
C8 C 1.606(2) 0.2632(8) 0.7431(6)
H5 H 1.5299 0.2162 0.7548
H6 H 1.6920 0.2474 0.7119
C9 C 1.890(2) 0.2423(9) 0.8053(6)
C10 C 1.999(2) 0.2659(8) 0.8522(6)
H7 H 1.9603 0.3132 0.8703
C11 C 2.1656(19) 0.2232(6) 0.8748(6)
H8 H 2.2414 0.2427 0.9060
C12 C 2.215(2) 0.1497(7) 0.8490(5)
C13 C 2.0988(19) 0.1255(7) 0.8031(5)
H9 H 2.1336 0.0775 0.7853
C14 C 1.934(2) 0.1671(7) 0.7817(6)
H10 H 1.8532 0.1459 0.7520
C15 C 2.4888(19) 0.1220(8) 0.9163(5)
H11 H 2.5404 0.1769 0.9107
C16 C 2.666(2) 0.0633(11) 0.9202(5)
H12 H 2.7438 0.0671 0.8863
H13 H 2.6140 0.0094 0.9239
H14 H 2.7511 0.0762 0.9529
C17 C 2.369(2) 0.1182(7) 0.9705(6)
C18 C -0.428(3) 0.2452(12) 0.1438(9)
C19 C -0.2472(17) 0.2933(7) 0.1653(5)
C20 C -0.2112(17) 0.3699(7) 0.1471(5)
H15 H -0.3043 0.3949 0.1221
C21 C -0.036(2) 0.4114(8) 0.1655(5)
H16 H -0.0128 0.4630 0.1516
C22 C 0.098(2) 0.3787(10) 0.2025(6)
C23 C 0.069(2) 0.2989(10) 0.2204(6)
H17 H 0.1655 0.2738 0.2442
C24 C -0.106(2) 0.2579(9) 0.2023(6)
H18 H -0.1276 0.2056 0.2152
C25 C 0.299(2) 0.4183(10) 0.2206(6)
H19 H 0.4116 0.3817 0.2143
H20 H 0.3199 0.4668 0.1984
C26 C 0.4609(17) 0.4738(7) 0.3014(5)
C27 C 0.4183(18) 0.5377(8) 0.3375(6)
H21 H 0.2841 0.5542 0.3422
C28 C 0.5801(16) 0.5774(8) 0.3670(5)
H22 H 0.5513 0.6177 0.3932
C29 C 0.7810(14) 0.5570(7) 0.3574(4)
C30 C 0.8163(17) 0.4959(6) 0.3186(4)
H23 H 0.9500 0.4815 0.3110
C31 C 0.6591(16) 0.4564(7) 0.2914(5)
H24 H 0.6886 0.4162 0.2651
C32 C 0.9151(18) 0.6636(7) 0.4168(5)
H25 H 0.8225 0.7000 0.3956
C33 C 1.123(2) 0.7036(8) 0.4234(6)
H26 H 1.1743 0.7156 0.3863
H27 H 1.2162 0.6677 0.4431
H28 H 1.1110 0.7526 0.4448
C34 C 0.8212(19) 0.6424(8) 0.4736(5)
C35 C 0.443(2) 0.6757(8) 0.5999(6)
H29 H 0.3838 0.6663 0.5639
C36 C 0.482(2) 0.7163(10) 0.6853(7)
H30 H 0.4619 0.7393 0.7209
C37 C 0.640(2) 0.6701(8) 0.6696(6)
H31 H 0.7537 0.6577 0.6927
C38 C 0.159(2) 0.7606(9) 0.6316(6)
H32 H 0.1306 0.7886 0.6669
H33 H 0.0550 0.7192 0.6261
C39 C 0.142(2) 0.8200(7) 0.5825(6)
H34 H 0.2240 0.8674 0.5915
H35 H 0.1943 0.7955 0.5483
C40 C -0.078(2) 0.8446(9) 0.5720(6)
H36 H -0.1328 0.8673 0.6065
H37 H -0.1593 0.7981 0.5609
C41 C -0.083(2) 0.9096(8) 0.5227(7)
H38 H -0.0348 0.9610 0.5377
H39 H 0.0087 0.8931 0.4930
C42 C -0.400(2) 0.8631(8) 0.4708(6)
H40 H -0.3685 0.8084 0.4682
C43 C -0.559(2) 0.8980(8) 0.4482(6)
H41 H -0.6617 0.8722 0.4270
C44 C -0.385(2) 0.9910(8) 0.4898(7)
H42 H -0.3353 1.0401 0.5036
C45 C 1.932(2) 0.0847(9) 1.0985(7)
H43 H 1.8683 0.0978 1.0638
C46 C 1.994(3) 0.0317(10) 1.1805(7)
H44 H 1.9850 0.0004 1.2132
C47 C 2.146(3) 0.0806(11) 1.1684(7)
H45 H 2.2585 0.0911 1.1922
C48 C 1.652(3) -0.0044(11) 1.1324(8)
H46 H 1.6289 -0.0329 1.1679
H47 H 1.5486 0.0375 1.1290
C49 C 1.621(2) -0.0568(12) 1.0889(9)
H48 H 1.7095 -0.1029 1.0963
H49 H 1.6696 -0.0310 1.0547
C50 C 1.407(2) -0.0896(9) 1.0748(7)
H50 H 1.3651 -0.1240 1.1059
H51 H 1.3119 -0.0447 1.0722
C51 C 1.393(2) -0.1357(10) 1.0214(7)
H52 H 1.4595 -0.1050 0.9919
H53 H 1.4691 -0.1856 1.0267
C52 C 1.0424(19) -0.1015(8) 0.9861(6)
H54 H 1.0486 -0.0458 0.9907
C53 C 0.8858(19) -0.1450(8) 0.9625(7)
H55 H 0.7662 -0.1225 0.9472
C54 C 1.113(2) -0.2255(9) 0.9859(6)
H56 H 1.1848 -0.2736 0.9899
N1 N 0.6099(17) 0.6444(6) 0.6156(5)
N2 N 0.3578(17) 0.7221(7) 0.6372(5)
N3 N -0.2879(15) 0.9191(6) 0.4985(5)
N4 N -0.5517(16) 0.9835(6) 0.4607(5)
N5 N 2.1126(15) 0.1131(6) 1.1159(4)
N6 N 1.8540(18) 0.0350(6) 1.1371(5)
N7 N 1.1855(19) -0.1554(7) 1.0014(5)
N8 N 0.9231(16) -0.2203(6) 0.9638(5)
O1 O 1.0825(17) 0.5801(6) 0.6615(6)
O2 O 0.9314(14) 0.4810(6) 0.6123(4)
O3 O 1.7280(18) 0.2895(6) 0.7883(4)
O4 O 2.3660(13) 0.0986(5) 0.8682(3)
O5 O 2.4487(13) 0.1601(6) 1.0119(4)
O6 O 2.2051(14) 0.0864(6) 0.9731(4)
O7 O -0.5480(17) 0.2804(7) 0.1080(5)
O8 O -0.4583(16) 0.1775(7) 0.1608(5)
O9 O 0.2893(13) 0.4368(6) 0.2765(4)
O10 O 0.9498(10) 0.5918(4) 0.3823(3)
O11 O 0.6498(13) 0.6659(5) 0.4849(4)
O12 O 0.9332(14) 0.5967(6) 0.5064(4)
Zn1A Zn -0.7644(2) 1.06030(6) 0.42798(6)
Zn2A Zn 0.7296(2) -0.30446(6) 0.92627(6)
Zn2_2 Zn -0.7296(2) 0.19554(6) 0.07373(6)
N4A N 0.5517(16) 0.4835(6) 0.5393(5)
N8A N 2.0769(16) 0.2797(6) 1.0362(5)
O7_2 O 2.4520(17) 0.2804(7) 1.1080(5)
loop_
_geom_bond_atom_site_label_1
_geom_bond_atom_site_label_2
_geom_bond_site_symmetry_1
_geom_bond_site_symmetry_2
Zn1 N1 1_555 1_555
Zn2 N5 1_555 1_555
C1 C2 1_555 1_555
C2 C3 1_555 1_555
C3 H1 1_555 1_555
C4 C3 1_555 1_555
H2 C4 1_555 1_555
C5 C4 1_555 1_555
C6 C5 1_555 1_555
H3 C6 1_555 1_555
C7 C2 1_555 1_555
H4 C7 1_555 1_555
C8 C5 1_555 1_555
H5 C8 1_555 1_555
H6 C8 1_555 1_555
C9 C10 1_555 1_555
C10 H7 1_555 1_555
C11 C10 1_555 1_555
H8 C11 1_555 1_555
C12 C11 1_555 1_555
C13 C12 1_555 1_555
H9 C13 1_555 1_555
C14 C9 1_555 1_555
H10 C14 1_555 1_555
C15 H11 1_555 1_555
C16 C15 1_555 1_555
H12 C16 1_555 1_555
H13 C16 1_555 1_555
H14 C16 1_555 1_555
C17 C15 1_555 1_555
C18 C19 1_555 1_555
C19 C20 1_555 1_555
C20 H15 1_555 1_555
C21 C20 1_555 1_555
H16 C21 1_555 1_555
C22 C21 1_555 1_555
C23 C22 1_555 1_555
H17 C23 1_555 1_555
C24 C19 1_555 1_555
H18 C24 1_555 1_555
C25 C22 1_555 1_555
H19 C25 1_555 1_555
H20 C25 1_555 1_555
C26 C27 1_555 1_555
C27 H21 1_555 1_555
C28 C27 1_555 1_555
H22 C28 1_555 1_555
C29 C28 1_555 1_555
C30 C29 1_555 1_555
H23 C30 1_555 1_555
C31 C26 1_555 1_555
H24 C31 1_555 1_555
C32 H25 1_555 1_555
C33 C32 1_555 1_555
H26 C33 1_555 1_555
H27 C33 1_555 1_555
H28 C33 1_555 1_555
C34 C32 1_555 1_555
C35 H29 1_555 1_555
C36 H30 1_555 1_555
C37 C36 1_555 1_555
H31 C37 1_555 1_555
C38 H32 1_555 1_555
H33 C38 1_555 1_555
C39 C38 1_555 1_555
H34 C39 1_555 1_555
H35 C39 1_555 1_555
C40 C39 1_555 1_555
H36 C40 1_555 1_555
H37 C40 1_555 1_555
C41 C40 1_555 1_555
H38 C41 1_555 1_555
H39 C41 1_555 1_555
C42 H40 1_555 1_555
C43 C42 1_555 1_555
H41 C43 1_555 1_555
C44 H42 1_555 1_555
C45 H43 1_555 1_555
C46 H44 1_555 1_555
C47 C46 1_555 1_555
H45 C47 1_555 1_555
C48 H46 1_555 1_555
H47 C48 1_555 1_555
C49 C48 1_555 1_555
H48 C49 1_555 1_555
H49 C49 1_555 1_555
C50 C49 1_555 1_555
H50 C50 1_555 1_555
H51 C50 1_555 1_555
C51 C50 1_555 1_555
H52 C51 1_555 1_555
H53 C51 1_555 1_555
C52 H54 1_555 1_555
C53 C52 1_555 1_555
H55 C53 1_555 1_555
C54 H56 1_555 1_555
N1 C35 1_555 1_555
N2 C35 1_555 1_555
N3 C41 1_555 1_555
N4 C43 1_555 1_555
N5 C45 1_555 1_555
N6 C45 1_555 1_555
N7 C51 1_555 1_555
N8 C53 1_555 1_555
O1 C1 1_555 1_555
O2 Zn1 1_555 1_555
O3 C8 1_555 1_555
O4 C12 1_555 1_555
O5 Zn2 1_555 1_555
O6 C17 1_555 1_555
O7 C18 1_555 1_555
O8 C18 1_555 1_555
O9 C25 1_555 1_555
O10 C29 1_555 1_555
O11 C34 1_555 1_555
O12 Zn1 1_555 1_555
Zn1A N4 1_555 1_555
Zn2A N8 1_555 1_555
Zn2_2 O7 1_555 1_555
N4A Zn1 1_555 1_555
N8A Zn2 1_555 1_555
O7_2 Zn2 1_555 1_555
C1 O2 1_555 1_555
C6 C7 1_555 1_555
C9 O3 1_555 1_555
C13 C14 1_555 1_555
C15 O4 1_555 1_555
C17 O5 1_555 1_555
C23 C24 1_555 1_555
C26 O9 1_555 1_555
C30 C31 1_555 1_555
C32 O10 1_555 1_555
C34 O12 1_555 1_555
C36 N2 1_555 1_555
C37 N1 1_555 1_555
C38 N2 1_555 1_555
C42 N3 1_555 1_555
C44 N3 1_555 1_555
C44 N4 1_555 1_555
C46 N6 1_555 1_555
C47 N5 1_555 1_555
C48 N6 1_555 1_555
C52 N7 1_555 1_555
C54 N7 1_555 1_555
C54 N8 1_555 1_555

#END
