
#######################################################################
#
#                 Cambridge Crystallographic Data Centre
#                                CCDC 
#
#######################################################################
#
# If this CIF has been generated from an entry in the Cambridge 
# Structural Database, then it will include bibliographic, chemical, 
# crystal, experimental, refinement or atomic coordinate data resulting 
# from the CCDC's data processing and validation procedures.
#
#######################################################################

data_VEDWEI
_symmetry_cell_setting           orthorhombic
_symmetry_space_group_name_H-M   'P 21 21 21'
_symmetry_Int_Tables_number      19
_space_group_name_Hall           'P 2ac 2ab'
loop_
_symmetry_equiv_pos_site_id
_symmetry_equiv_pos_as_xyz
1 x,y,z
2 1/2-x,-y,1/2+z
3 1/2+x,1/2-y,-z
4 -x,1/2+y,1/2-z
_cell_length_a                   7.2789(2)
_cell_length_b                   16.8823(5)
_cell_length_c                   23.5500(8)
_cell_angle_alpha                90
_cell_angle_beta                 90
_cell_angle_gamma                90
_cell_volume                     2893.93
loop_
_atom_site_label
_atom_site_type_symbol
_atom_site_fract_x
_atom_site_fract_y
_atom_site_fract_z
Cd1 Cd 0.19358(4) 0.39688(2) 0.827971(14)
C1 C 0.4689(6) 0.3771(3) 0.7509(2)
C2 C 0.6306(5) 0.3716(2) 0.71198(17)
C3 C 0.6330(6) 0.3194(3) 0.6666(2)
H1 H 0.5302 0.2885 0.6590
C4 C 0.7864(7) 0.3130(3) 0.6326(2)
H2 H 0.7862 0.2778 0.6023
C5 C 0.9403(6) 0.3583(3) 0.64328(18)
C6 C 0.9369(6) 0.4109(3) 0.68743(17)
H3 H 1.0391 0.4425 0.6946
C7 C 0.7838(6) 0.4176(3) 0.72120(18)
H4 H 0.7837 0.4540 0.7509
C8 C 1.1104(6) 0.3479(3) 0.60877(18)
H5 H 1.2030 0.3857 0.6207
H6 H 1.1591 0.2949 0.6142
C9 C 1.2123(7) 0.3581(2) 0.51268(18)
C10 C 1.1710(7) 0.3751(2) 0.45756(17)
H7 H 1.0498 0.3843 0.4470
C11 C 1.3094(7) 0.3786(2) 0.41721(18)
H8 H 1.2812 0.3905 0.3797
C12 C 1.4895(6) 0.3643(3) 0.43290(19)
C13 C 1.5290(7) 0.3435(3) 0.48751(19)
H9 H 1.6491 0.3311 0.4976
C14 C 1.3922(7) 0.3407(3) 0.5278(2)
H10 H 1.4202 0.3272 0.5651
C15 C 1.6046(7) 0.3886(3) 0.33891(18)
H11 H 1.5192 0.3505 0.3219
C16 C 1.7886(8) 0.3845(3) 0.3085(2)
H12 H 1.8370 0.3317 0.3113
H13 H 1.8727 0.4210 0.3258
H14 H 1.7722 0.3980 0.2692
C17 C 1.5238(6) 0.4723(3) 0.3347(2)
C18 C 0.5049(6) 0.4358(3) 0.92110(18)
H15 H 0.5849 0.4483 0.8917
C19 C 0.3931(7) 0.4212(4) 1.0054(2)
H16 H 0.3790 0.4211 1.0446
C20 C 0.2674(6) 0.3991(4) 0.9674(2)
H17 H 0.1503 0.3806 0.9760
C21 C 0.7126(7) 0.4802(3) 0.99906(19)
H18 H 0.6816 0.5316 1.0149
H19 H 0.7979 0.4890 0.9680
C22 C 0.8069(7) 0.4319(3) 1.04394(18)
C23 C 0.8776(7) 0.4690(3) 1.0912(2)
H20 H 0.8656 0.5236 1.0949
C24 C 0.9660(7) 0.4265(3) 1.1331(2)
H21 H 1.0101 0.4526 1.1651
C25 C 0.9896(6) 0.3467(3) 1.1282(2)
C26 C 0.9228(8) 0.3104(3) 1.0803(3)
H22 H 0.9389 0.2560 1.0761
C27 C 0.8332(9) 0.3514(3) 1.0386(2)
H23 H 0.7901 0.3250 1.0066
C28 C 1.0653(7) 0.2988(4) 1.1767(3)
H24 H 1.0418 0.3272 1.2117
H25 H 0.9984 0.2491 1.1786
C29 C 1.4012(9) 0.3281(4) 1.1889(3)
H26 H 1.3927 0.3809 1.2000
C30 C 1.5540(8) 0.2850(4) 1.1852(3)
H27 H 1.6712 0.3034 1.1938
C31 C 1.3361(6) 0.2113(3) 1.1619(2)
H28 H 1.2678 0.1674 1.1509
N1 N 0.3371(5) 0.4076(2) 0.91371(15)
N2 N 0.5453(5) 0.4439(2) 0.97638(16)
N3 N 1.2626(5) 0.2809(2) 1.1736(2)
N4 N 1.5146(5) 0.2107(2) 1.16726(19)
O1 O 0.3297(5) 0.33882(19) 0.74212(13)
O2 O 0.4836(4) 0.4207(2) 0.79358(14)
O3 O 1.0666(4) 0.3600(2) 0.55048(13)
O4 O 1.6388(4) 0.36733(18) 0.39661(12)
O5 O 1.4047(5) 0.48355(19) 0.29671(14)
O6 O 1.5733(5) 0.52510(19) 0.36806(14)
Cd1B Cd 1.69358(4) 0.10312(2) 1.172029(14)
Cd1A Cd 1.30642(4) 0.60312(2) 0.327971(14)
N4B N 0.0146(5) 0.2893(2) 0.83274(19)
O5A O 0.0953(5) 0.51645(19) 0.79671(14)
O6A O -0.0733(5) 0.47490(19) 0.86806(14)
loop_
_geom_bond_atom_site_label_1
_geom_bond_atom_site_label_2
_geom_bond_site_symmetry_1
_geom_bond_site_symmetry_2
Cd1 N1 1_555 1_555
C1 C2 1_555 1_555
C2 C3 1_555 1_555
C3 H1 1_555 1_555
C4 C3 1_555 1_555
H2 C4 1_555 1_555
C5 C4 1_555 1_555
C6 C5 1_555 1_555
H3 C6 1_555 1_555
C7 C2 1_555 1_555
H4 C7 1_555 1_555
C8 C5 1_555 1_555
H5 C8 1_555 1_555
H6 C8 1_555 1_555
C9 C10 1_555 1_555
C10 H7 1_555 1_555
C11 C10 1_555 1_555
H8 C11 1_555 1_555
C12 C11 1_555 1_555
C13 C12 1_555 1_555
H9 C13 1_555 1_555
C14 C9 1_555 1_555
H10 C14 1_555 1_555
C15 H11 1_555 1_555
C16 C15 1_555 1_555
H12 C16 1_555 1_555
H13 C16 1_555 1_555
H14 C16 1_555 1_555
C17 C15 1_555 1_555
C18 H15 1_555 1_555
C19 H16 1_555 1_555
C20 C19 1_555 1_555
H17 C20 1_555 1_555
C21 H18 1_555 1_555
H19 C21 1_555 1_555
C22 C21 1_555 1_555
C23 C22 1_555 1_555
H20 C23 1_555 1_555
C24 C23 1_555 1_555
H21 C24 1_555 1_555
C25 C24 1_555 1_555
C26 C25 1_555 1_555
H22 C26 1_555 1_555
C27 C22 1_555 1_555
H23 C27 1_555 1_555
C28 C25 1_555 1_555
H24 C28 1_555 1_555
H25 C28 1_555 1_555
C29 H26 1_555 1_555
C30 C29 1_555 1_555
H27 C30 1_555 1_555
C31 H28 1_555 1_555
N1 C18 1_555 1_555
N2 C18 1_555 1_555
N3 C28 1_555 1_555
N4 C30 1_555 1_555
O1 Cd1 1_555 1_555
O2 Cd1 1_555 1_555
O3 C8 1_555 1_555
O4 C12 1_555 1_555
O5 C17 1_555 1_555
O6 C17 1_555 1_555
Cd1B N4 1_555 1_555
Cd1A O5 1_555 1_555
N4B Cd1 1_555 1_555
O5A Cd1 1_555 1_555
O6A Cd1 1_555 1_555
C1 O1 1_555 1_555
C1 O2 1_555 1_555
C6 C7 1_555 1_555
C9 O3 1_555 1_555
C13 C14 1_555 1_555
C15 O4 1_555 1_555
C19 N2 1_555 1_555
C20 N1 1_555 1_555
C21 N2 1_555 1_555
C26 C27 1_555 1_555
C29 N3 1_555 1_555
C31 N3 1_555 1_555
C31 N4 1_555 1_555
O6 Cd1A 1_555 1_555

#END
