
#######################################################################
#
#                 Cambridge Crystallographic Data Centre
#                                CCDC 
#
#######################################################################
#
# If this CIF has been generated from an entry in the Cambridge 
# Structural Database, then it will include bibliographic, chemical, 
# crystal, experimental, refinement or atomic coordinate data resulting 
# from the CCDC's data processing and validation procedures.
#
#######################################################################

data_VEDWOS
_symmetry_cell_setting           orthorhombic
_symmetry_space_group_name_H-M   'P 21 21 21'
_symmetry_Int_Tables_number      19
_space_group_name_Hall           'P 2ac 2ab'
loop_
_symmetry_equiv_pos_site_id
_symmetry_equiv_pos_as_xyz
1 x,y,z
2 1/2-x,-y,1/2+z
3 1/2+x,1/2-y,-z
4 -x,1/2+y,1/2-z
_cell_length_a                   7.2266(2)
_cell_length_b                   15.4580(4)
_cell_length_c                   24.9598(5)
_cell_angle_alpha                90
_cell_angle_beta                 90
_cell_angle_gamma                90
_cell_volume                     2788.23
loop_
_atom_site_label
_atom_site_type_symbol
_atom_site_fract_x
_atom_site_fract_y
_atom_site_fract_z
Cd1 Cd 0.14581(4) 0.95616(2) 0.309811(11)
C1 C 0.4546(6) 0.9596(4) 0.24728(14)
C2 C 0.6309(5) 0.9527(3) 0.21522(12)
C3 C 0.6635(6) 0.8790(3) 0.18454(14)
H1 H 0.5763 0.8348 0.1840
C4 C 0.8228(6) 0.8711(3) 0.15500(15)
H2 H 0.8394 0.8224 0.1336
C5 C 0.9582(6) 0.9333(3) 0.15627(15)
C6 C 0.9272(6) 1.0070(3) 0.18743(17)
H3 H 1.0159 1.0505 0.1888
C7 C 0.7645(6) 1.0153(3) 0.21639(16)
H4 H 0.7458 1.0646 0.2371
C8 C 1.1383(7) 0.9233(3) 0.12746(15)
H5 H 1.2037 0.9781 0.1270
H6 H 1.2149 0.8812 0.1458
C9 C 1.2567(6) 0.8832(3) 0.04163(16)
C10 C 1.2206(6) 0.8634(3) -0.01123(16)
H7 H 1.0992 0.8571 -0.0230
C11 C 1.3674(7) 0.8527(3) -0.04700(15)
H8 H 1.3430 0.8405 -0.0828
C12 C 1.5473(6) 0.8600(3) -0.02991(16)
C13 C 1.5824(7) 0.8775(3) 0.02350(16)
H9 H 1.7038 0.8809 0.0358
C14 C 1.4374(7) 0.8898(3) 0.05848(17)
H10 H 1.4621 0.9028 0.0941
C15 C 1.6793(6) 0.8433(3) -0.11775(14)
H11 H 1.5972 0.7943 -0.1252
C16 C 1.8679(7) 0.8247(3) -0.14070(16)
H12 H 1.9164 0.7729 -0.1249
H13 H 1.9493 0.8722 -0.1331
H14 H 1.8581 0.8172 -0.1788
C17 C 1.5962(6) 0.9254(3) -0.14217(15)
C18 C -0.1978(6) 0.8291(3) 0.31611(18)
H15 H -0.2550 0.8683 0.3391
C19 C -0.1506(8) 0.7172(3) 0.26628(16)
H16 H -0.1658 0.6651 0.2482
C20 C -0.0017(7) 0.7684(3) 0.26508(16)
H17 H 0.1056 0.7575 0.2457
C21 C -0.4602(7) 0.7265(3) 0.3138(2)
H18 H -0.5067 0.6889 0.2858
H19 H -0.5425 0.7759 0.3163
C22 C -0.4628(8) 0.6785(4) 0.3660(2)
H20 H -0.4175 0.6202 0.3602
H21 H -0.3793 0.7068 0.3909
C23 C -0.6514(9) 0.6740(4) 0.3906(2)
H22 H -0.6888 0.7322 0.4003
H23 H -0.7373 0.6535 0.3636
C24 C -0.6700(9) 0.6198(5) 0.4372(2)
H24 H -0.5719 0.6343 0.4622
H25 H -0.6519 0.5601 0.4264
C25 C -0.8540(10) 0.6263(5) 0.4665(2)
H26 H -0.8600 0.6816 0.4848
H27 H -0.9534 0.6247 0.4404
C26 C -0.8833(8) 0.5577(4) 0.5055(2)
H28 H -0.7762 0.5542 0.5288
H29 H -0.8944 0.5030 0.4867
C27 C -1.0655(7) 0.5539(3) 0.59109(16)
H30 H -0.9687 0.5344 0.6124
C28 C -1.3291(7) 0.5952(3) 0.56488(17)
H31 H -1.4537 0.6102 0.5651
C29 C -1.2203(8) 0.5974(4) 0.5221(2)
H32 H -1.2542 0.6136 0.4876
N1 N -0.0315(5) 0.8395(2) 0.29693(12)
N2 N -0.2763(5) 0.7564(2) 0.29916(14)
N3 N -1.0500(6) 0.5714(3) 0.53831(14)
N4 N -1.2324(5) 0.5678(3) 0.60838(13)
O1 O 0.3506(5) 0.8964(2) 0.24938(13)
O2 O 0.4177(5) 1.0277(3) 0.27080(15)
O3 O 1.1042(4) 0.8955(2) 0.07414(10)
O4 O 1.7030(4) 0.8514(2) -0.06113(10)
O5 O 1.4798(4) 0.9151(2) -0.17888(11)
O6 O 1.6475(5) 0.9964(2) -0.12525(11)
Cd1B Cd -1.35419(4) 0.54384(2) 0.690189(11)
Cd1A Cd 1.35419(4) 1.04384(2) -0.190189(11)
N4B N 0.2676(5) 0.9322(3) 0.39162(13)
O5A O 0.0202(4) 1.0849(2) 0.32112(11)
loop_
_geom_bond_atom_site_label_1
_geom_bond_atom_site_label_2
_geom_bond_site_symmetry_1
_geom_bond_site_symmetry_2
Cd1 N1 1_555 1_555
C1 C2 1_555 1_555
C2 C3 1_555 1_555
C3 H1 1_555 1_555
C4 C3 1_555 1_555
H2 C4 1_555 1_555
C5 C4 1_555 1_555
C6 C5 1_555 1_555
H3 C6 1_555 1_555
C7 C2 1_555 1_555
H4 C7 1_555 1_555
C8 C5 1_555 1_555
H5 C8 1_555 1_555
H6 C8 1_555 1_555
C9 C10 1_555 1_555
C10 H7 1_555 1_555
C11 C10 1_555 1_555
H8 C11 1_555 1_555
C12 C11 1_555 1_555
C13 C12 1_555 1_555
H9 C13 1_555 1_555
C14 C9 1_555 1_555
H10 C14 1_555 1_555
C15 H11 1_555 1_555
C16 C15 1_555 1_555
H12 C16 1_555 1_555
H13 C16 1_555 1_555
H14 C16 1_555 1_555
C17 C15 1_555 1_555
C18 H15 1_555 1_555
C19 H16 1_555 1_555
C20 C19 1_555 1_555
H17 C20 1_555 1_555
C21 H18 1_555 1_555
H19 C21 1_555 1_555
C22 C21 1_555 1_555
H20 C22 1_555 1_555
H21 C22 1_555 1_555
C23 C22 1_555 1_555
H22 C23 1_555 1_555
H23 C23 1_555 1_555
C24 C23 1_555 1_555
H24 C24 1_555 1_555
H25 C24 1_555 1_555
C25 C24 1_555 1_555
H26 C25 1_555 1_555
H27 C25 1_555 1_555
C26 C25 1_555 1_555
H28 C26 1_555 1_555
H29 C26 1_555 1_555
C27 H30 1_555 1_555
C28 H31 1_555 1_555
C29 C28 1_555 1_555
H32 C29 1_555 1_555
N1 C18 1_555 1_555
N2 C18 1_555 1_555
N3 C26 1_555 1_555
N4 C27 1_555 1_555
O1 Cd1 1_555 1_555
O2 Cd1 1_555 1_555
O3 C8 1_555 1_555
O4 C12 1_555 1_555
O5 C17 1_555 1_555
O6 C17 1_555 1_555
Cd1B N4 1_555 1_555
Cd1A O5 1_555 1_555
N4B Cd1 1_555 1_555
O5A Cd1 1_555 1_555
C1 O1 1_555 1_555
C1 O2 1_555 1_555
C6 C7 1_555 1_555
C9 O3 1_555 1_555
C13 C14 1_555 1_555
C15 O4 1_555 1_555
C19 N2 1_555 1_555
C20 N1 1_555 1_555
C21 N2 1_555 1_555
C27 N3 1_555 1_555
C28 N4 1_555 1_555
C29 N3 1_555 1_555

#END
