
#######################################################################
#
#                 Cambridge Crystallographic Data Centre
#                                CCDC 
#
#######################################################################
#
# If this CIF has been generated from an entry in the Cambridge 
# Structural Database, then it will include bibliographic, chemical, 
# crystal, experimental, refinement or atomic coordinate data resulting 
# from the CCDC's data processing and validation procedures.
#
#######################################################################

data_VEDYAE
_symmetry_cell_setting           cubic
_symmetry_space_group_name_H-M   'P 21 3'
_symmetry_Int_Tables_number      198
_space_group_name_Hall           'P 2ac 2ab 3'
loop_
_symmetry_equiv_pos_site_id
_symmetry_equiv_pos_as_xyz
1 x,y,z
2 z,x,y
3 y,z,x
4 1/2+x,1/2-y,-z
5 1/2+z,1/2-x,-y
6 1/2+y,1/2-z,-x
7 -x,1/2+y,1/2-z
8 -z,1/2+x,1/2-y
9 -y,1/2+z,1/2-x
10 1/2-x,-y,1/2+z
11 1/2-z,-x,1/2+y
12 1/2-y,-z,1/2+x
_cell_length_a                   19.943(3)
_cell_length_b                   19.943(3)
_cell_length_c                   19.943(3)
_cell_angle_alpha                90
_cell_angle_beta                 90
_cell_angle_gamma                90
_cell_volume                     7931.79
loop_
_atom_site_label
_atom_site_type_symbol
_atom_site_fract_x
_atom_site_fract_y
_atom_site_fract_z
Tl1 Tl 0.35204(8) 0.35204(8) 0.35204(8)
Tl2 Tl 0.38974(8) 0.61026(8) 0.11026(8)
Tl3 Tl 0.58837(8) 0.40670(8) 0.10674(8)
Tl4 Tl 0.35507(8) 0.16592(8) 0.14423(8)
Tl5 Tl 0.14382(9) 0.14382(9) 0.14382(9)
Tl6 Tl 0.36526(11) 0.39667(9) 0.12160(10)
S1 S 0.4818(5) 0.5013(4) 0.1471(5)
S2 S 0.3857(5) 0.2786(4) 0.2290(4)
S3 S 0.4779(4) 0.3737(5) 0.0182(5)
S4 S 0.2513(6) 0.1158(7) 0.2402(6)
C1 C 0.4904(24) 0.5067(20) 0.2362(20)
C2 C 0.4854(18) 0.5662(20) 0.2691(20)
C3 C 0.4943(18) 0.5707(20) 0.3334(19)
C4 C 0.5083(18) 0.5104(22) 0.3740(24)
C5 C 0.5100(18) 0.4516(22) 0.3413(20)
C6 C 0.5000(18) 0.4491(20) 0.2696(19)
C7 C 0.4750(20) 0.2661(16) 0.2407(16)
C8 C 0.5084(19) 0.2531(20) 0.1831(22)
C9 C 0.5829(17) 0.2407(16) 0.1828(18)
C10 C 0.6100(19) 0.2472(16) 0.2452(16)
C11 C 0.5750(20) 0.2589(20) 0.3032(22)
C12 C 0.5080(17) 0.2663(16) 0.2989(18)
C13 C 0.4847(23) 0.2908(23) 0.0003(22)
C14 C 0.5466(25) 0.2543(24) 0.0030(23)
C15 C 0.5535(21) 0.1880(19) -0.0109(19)
C16 C 0.4971(18) 0.1493(22) -0.0181(19)
C17 C 0.4361(22) 0.1802(21) -0.0201(21)
C18 C 0.4287(24) 0.2479(24) -0.0070(23)
C19 C 0.2523(18) 0.0270(18) 0.2437(16)
C20 C 0.1920(22) -0.0108(20) 0.2496(20)
C21 C 0.1939(20) -0.0831(18) 0.2532(18)
C22 C 0.2567(20) -0.1141(23) 0.2423(20)
C23 C 0.3141(24) -0.0806(22) 0.2394(21)
C24 C 0.3179(20) -0.0106(18) 0.2368(17)
S2A S 0.2290(4) 0.3857(5) 0.2786(4)
C7A C 0.2407(16) 0.4750(20) 0.2661(16)
C8A C 0.1831(22) 0.5084(19) 0.2531(20)
C9A C 0.1828(18) 0.5829(17) 0.2407(16)
C10A C 0.2452(16) 0.6100(19) 0.2472(16)
C11A C 0.3032(22) 0.5750(20) 0.2589(20)
C12A C 0.2989(18) 0.5080(17) 0.2663(16)
S2B S 0.2786(4) 0.2290(4) 0.3857(5)
C7B C 0.2661(16) 0.2407(16) 0.4750(20)
C8B C 0.2531(20) 0.1831(22) 0.5084(19)
C9B C 0.2407(16) 0.1828(18) 0.5829(17)
C10B C 0.2472(16) 0.2452(16) 0.6100(19)
C11B C 0.2589(20) 0.3032(22) 0.5750(20)
C12B C 0.2663(16) 0.2989(18) 0.5080(17)
Tl4A Tl 0.14423(8) 0.35507(8) 0.16592(8)
Tl4B Tl 0.16592(8) 0.14423(8) 0.35507(8)
Tl6A Tl 0.12160(10) 0.36526(11) 0.39667(9)
Tl6B Tl 0.39667(9) 0.12160(10) 0.36526(11)
S4A S 0.2402(6) 0.2513(6) 0.1158(7)
C19A C 0.2437(16) 0.2523(18) 0.0270(18)
C20A C 0.2496(20) 0.1920(22) -0.0108(20)
C21A C 0.2532(18) 0.1939(20) -0.0831(18)
C22A C 0.2423(20) 0.2567(20) -0.1141(23)
C23A C 0.2394(21) 0.3141(24) -0.0806(22)
C24A C 0.2368(17) 0.3179(20) -0.0106(18)
S1J S 0.3529(5) 0.5182(5) 0.0013(4)
C1J C 0.2638(20) 0.5096(24) 0.0067(20)
C2J C 0.2309(20) 0.5146(18) 0.0662(20)
C3J C 0.1666(19) 0.5057(18) 0.0707(20)
C4J C 0.1260(24) 0.4917(18) 0.0104(22)
C5J C 0.1587(20) 0.4900(18) -0.0484(22)
C6J C 0.2304(19) 0.5000(18) -0.0509(20)
S4B S 0.1158(7) 0.2402(6) 0.2513(6)
C19B C 0.0270(18) 0.2437(16) 0.2523(18)
C20B C -0.0108(20) 0.2496(20) 0.1920(22)
C21B C -0.0831(18) 0.2532(18) 0.1939(20)
C22B C -0.1141(23) 0.2423(20) 0.2567(20)
C23B C -0.0806(22) 0.2394(21) 0.3141(24)
C24B C -0.0106(18) 0.2368(17) 0.3179(20)
S1A S 0.1471(5) 0.4818(5) 0.5013(4)
C1A C 0.2362(20) 0.4904(24) 0.5067(20)
C2A C 0.2691(20) 0.4854(18) 0.5662(20)
C3A C 0.3334(19) 0.4943(18) 0.5707(20)
C4A C 0.3740(24) 0.5083(18) 0.5104(22)
C5A C 0.3413(20) 0.5100(18) 0.4516(22)
C6A C 0.2696(19) 0.5000(18) 0.4491(20)
S3A S 0.0182(5) 0.4779(4) 0.3737(5)
C13A C 0.0003(22) 0.4847(23) 0.2908(23)
C14A C 0.0030(23) 0.5466(25) 0.2543(24)
C15A C -0.0109(19) 0.5535(21) 0.1880(19)
C16A C -0.0181(19) 0.4971(18) 0.1493(22)
C17A C -0.0201(21) 0.4361(22) 0.1802(21)
C18A C -0.0070(23) 0.4287(24) 0.2479(24)
S3B S 0.3737(5) 0.0182(5) 0.4779(4)
C13B C 0.2908(23) 0.0003(22) 0.4847(23)
C14B C 0.2543(24) 0.0030(23) 0.5466(25)
C15B C 0.1880(19) -0.0109(19) 0.5535(21)
C16B C 0.1493(22) -0.0181(19) 0.4971(18)
C17B C 0.1802(21) -0.0201(21) 0.4361(22)
C18B C 0.2479(24) -0.0070(23) 0.4287(24)
Tl3J Tl 0.39326(8) 0.41163(8) -0.09330(8)
Tl3A Tl 0.10674(8) 0.58837(8) 0.40670(8)
S1H S 0.4987(4) 0.6471(5) 0.0182(5)
S3H S 0.6263(5) 0.5182(5) 0.0221(4)
Tl6H Tl 0.60333(9) 0.62160(10) 0.13474(11)
S1E S 0.0013(4) 0.3529(5) 0.5182(5)
S1B S 0.5013(4) 0.1471(5) 0.4818(5)
S1F S 0.5182(5) 0.0013(4) 0.3529(5)
Tl6J Tl 0.37840(10) 0.63474(11) -0.10333(9)
Tl2A Tl 0.11026(8) 0.38974(8) 0.61026(8)
Tl6I Tl 0.13474(11) 0.60333(9) 0.62160(10)
Tl3E Tl -0.09330(8) 0.39326(8) 0.41163(8)
Tl3B Tl 0.40670(8) 0.10674(8) 0.58837(8)
Tl3F Tl 0.41163(8) -0.09330(8) 0.39326(8)
S3J S 0.4818(5) 0.5221(4) -0.1263(5)
S3I S 0.0221(4) 0.6263(5) 0.5182(5)
loop_
_geom_bond_atom_site_label_1
_geom_bond_atom_site_label_2
_geom_bond_site_symmetry_1
_geom_bond_site_symmetry_2
Tl1 S2 1_555 1_555
Tl2 S1 1_555 1_555
Tl3 S1 1_555 1_555
Tl4 S2 1_555 1_555
Tl5 S4 1_555 1_555
Tl6 S1 1_555 1_555
S1 C1 1_555 1_555
S2 Tl6 1_555 1_555
S3 Tl3 1_555 1_555
S4 Tl4 1_555 1_555
C1 C2 1_555 1_555
C2 C3 1_555 1_555
C3 C4 1_555 1_555
C4 C5 1_555 1_555
C5 C6 1_555 1_555
C6 C1 1_555 1_555
C7 S2 1_555 1_555
C8 C7 1_555 1_555
C9 C8 1_555 1_555
C10 C9 1_555 1_555
C11 C10 1_555 1_555
C12 C7 1_555 1_555
C13 S3 1_555 1_555
C14 C13 1_555 1_555
C15 C14 1_555 1_555
C16 C15 1_555 1_555
C17 C16 1_555 1_555
C18 C13 1_555 1_555
C19 S4 1_555 1_555
C20 C19 1_555 1_555
C21 C20 1_555 1_555
C22 C21 1_555 1_555
C23 C22 1_555 1_555
C24 C19 1_555 1_555
S2A Tl1 1_555 1_555
C7A S2A 1_555 1_555
C8A C7A 1_555 1_555
C9A C8A 1_555 1_555
C10A C9A 1_555 1_555
C11A C10A 1_555 1_555
C12A C7A 1_555 1_555
S2B Tl1 1_555 1_555
C7B S2B 1_555 1_555
C8B C7B 1_555 1_555
C9B C8B 1_555 1_555
C10B C9B 1_555 1_555
C11B C10B 1_555 1_555
C12B C7B 1_555 1_555
Tl4A S2A 1_555 1_555
Tl4B S4 1_555 1_555
Tl6A S2A 1_555 1_555
Tl6B S2B 1_555 1_555
S4A Tl4 1_555 1_555
C19A S4A 1_555 1_555
C20A C19A 1_555 1_555
C21A C20A 1_555 1_555
C22A C21A 1_555 1_555
C23A C22A 1_555 1_555
C24A C19A 1_555 1_555
S1J Tl2 1_555 1_555
C1J S1J 1_555 1_555
C2J C1J 1_555 1_555
C3J C2J 1_555 1_555
C4J C3J 1_555 1_555
C5J C4J 1_555 1_555
C6J C1J 1_555 1_555
S4B Tl5 1_555 1_555
C19B S4B 1_555 1_555
C20B C19B 1_555 1_555
C21B C20B 1_555 1_555
C22B C21B 1_555 1_555
C23B C22B 1_555 1_555
C24B C19B 1_555 1_555
S1A Tl6A 1_555 1_555
C1A S1A 1_555 1_555
C2A C1A 1_555 1_555
C3A C2A 1_555 1_555
C4A C3A 1_555 1_555
C5A C4A 1_555 1_555
C6A C1A 1_555 1_555
S3A Tl6A 1_555 1_555
C13A S3A 1_555 1_555
C14A C13A 1_555 1_555
C15A C14A 1_555 1_555
C16A C15A 1_555 1_555
C17A C16A 1_555 1_555
C18A C13A 1_555 1_555
S3B Tl6B 1_555 1_555
C13B S3B 1_555 1_555
C14B C13B 1_555 1_555
C15B C14B 1_555 1_555
C16B C15B 1_555 1_555
C17B C16B 1_555 1_555
C18B C13B 1_555 1_555
Tl3J S3 1_555 1_555
Tl3A S1A 1_555 1_555
S1H Tl2 1_555 1_555
S3H Tl3 1_555 1_555
Tl6H S1 1_555 1_555
S1E Tl6A 1_555 1_555
S1B Tl6B 1_555 1_555
S1F Tl6B 1_555 1_555
Tl6J S1J 1_555 1_555
Tl2A S1A 1_555 1_555
Tl6I S1A 1_555 1_555
Tl3E S3A 1_555 1_555
Tl3B S3B 1_555 1_555
Tl3F S3B 1_555 1_555
S3J Tl3J 1_555 1_555
S3I Tl3A 1_555 1_555
Tl5 S4A 1_555 1_555
Tl6 S1J 1_555 1_555
Tl6 S3 1_555 1_555
C11 C12 1_555 1_555
C17 C18 1_555 1_555
C23 C24 1_555 1_555
C11A C12A 1_555 1_555
S2B Tl4B 1_555 1_555
C11B C12B 1_555 1_555
Tl4A S4B 1_555 1_555
Tl4A S4A 1_555 1_555
Tl4B S4B 1_555 1_555
C23A C24A 1_555 1_555
S1J Tl3J 1_555 1_555
C5J C6J 1_555 1_555
C23B C24B 1_555 1_555
C5A C6A 1_555 1_555
S3A Tl3A 1_555 1_555
C17A C18A 1_555 1_555
C17B C18B 1_555 1_555
S1H Tl6H 1_555 1_555
S1H Tl6J 1_555 1_555
S3H Tl6H 1_555 1_555
S1E Tl2A 1_555 1_555
S1E Tl3E 1_555 1_555
S1B Tl3B 1_555 1_555
S1F Tl3F 1_555 1_555
Tl6J S3J 1_555 1_555
Tl6I S3I 1_555 1_555

#END
