
#######################################################################
#
#                 Cambridge Crystallographic Data Centre
#                                CCDC 
#
#######################################################################
#
# If this CIF has been generated from an entry in the Cambridge 
# Structural Database, then it will include bibliographic, chemical, 
# crystal, experimental, refinement or atomic coordinate data resulting 
# from the CCDC's data processing and validation procedures.
#
#######################################################################

data_VEDYEJ
_symmetry_cell_setting           monoclinic
_symmetry_space_group_name_H-M   'P 21/n'
_symmetry_Int_Tables_number      14
_space_group_name_Hall           '-P 2yn'
loop_
_symmetry_equiv_pos_site_id
_symmetry_equiv_pos_as_xyz
1 x,y,z
2 1/2-x,1/2+y,1/2-z
3 -x,-y,-z
4 1/2+x,1/2-y,1/2+z
_cell_length_a                   9.2047(5)
_cell_length_b                   18.3674(10)
_cell_length_c                   10.8366(7)
_cell_angle_alpha                90
_cell_angle_beta                 93.798(5)
_cell_angle_gamma                90
_cell_volume                     1828.08
loop_
_atom_site_label
_atom_site_type_symbol
_atom_site_fract_x
_atom_site_fract_y
_atom_site_fract_z
Cu1 Cu 0.73340(3) 0.837148(15) 0.75659(2)
N1 N 0.7938(2) 0.84167(9) 0.57956(18)
C1 C 0.8574(4) 0.90180(14) 0.5383(3)
H1 H 0.8641 0.9426 0.5893
C2 C 0.9133(3) 0.90573(14) 0.4237(3)
H2 H 0.9595 0.9480 0.3999
C3 C 0.9008(2) 0.84705(11) 0.3442(2)
C4 C 0.8292(3) 0.78708(12) 0.3850(2)
H3 H 0.8159 0.7466 0.3339
C5 C 0.7770(3) 0.78628(12) 0.5012(2)
H4 H 0.7277 0.7451 0.5259
C6 C 0.9630(2) 0.84916(13) 0.2185(2)
H5 H 0.9790 0.7997 0.1910
H6 H 0.8927 0.8717 0.1597
N2 N 1.09936(19) 0.88918(10) 0.21940(18)
H7 H 1.100(3) 0.9376(2) 0.206(2)
C7 C 1.2269(2) 0.85542(11) 0.25093(15)
O1 O 1.23594(15) 0.78890(8) 0.26205(13)
N3 N 1.3441(2) 0.89933(10) 0.26897(18)
H8 H 1.337(3) 0.94812(16) 0.273(2)
C8 C 1.4893(2) 0.86848(14) 0.2869(2)
H9 H 1.4839 0.8215 0.3272
H10 H 1.5499 0.9002 0.3403
C9 C 1.5574(2) 0.85943(12) 0.16449(19)
C10 C 1.5855(3) 0.92012(12) 0.0929(2)
H11 H 1.5667 0.9666 0.1219
C11 C 1.6413(3) 0.91129(11) -0.0212(2)
H12 H 1.6596 0.9524 -0.0679
N4 N 1.6701(2) 0.84494(9) -0.06720(17)
C12 C 1.6481(3) 0.78718(11) 0.0031(2)
H13 H 1.6719 0.7414 -0.0261
C13 C 1.5911(3) 0.79231(12) 0.1184(2)
H14 H 1.5758 0.7505 0.1641
C14 C 0.9839(3) 0.90591(12) 0.8413(2)
O2 O 0.94028(19) 0.84137(7) 0.81921(16)
O3 O 0.9060(2) 0.96025(9) 0.8190(2)
C15 C 1.1362(3) 0.91524(17) 0.8983(3)
H15 H 1.1391 0.9559 0.9541
H16 H 1.2015 0.9239 0.8344
H17 H 1.1652 0.8719 0.9429
C16 C 0.4838(3) 0.90118(12) 0.6659(2)
O4 O 0.52784(18) 0.83700(7) 0.69193(16)
O5 O 0.5553(3) 0.95574(10) 0.6909(2)
C17 C 0.3346(4) 0.90754(19) 0.6004(3)
H18 H 0.3360 0.9445 0.5378
H19 H 0.2652 0.9205 0.6590
H20 H 0.3077 0.8618 0.5628
Cu1C Cu 1.23340(3) 0.662852(15) 0.25659(2)
Cu1_2 Cu 1.73340(3) 0.837148(15) -0.24341(2)
O1C O 0.73594(15) 0.71110(8) 0.76205(13)
N4_2 N 0.6701(2) 0.84494(9) 0.93280(17)
loop_
_geom_bond_atom_site_label_1
_geom_bond_atom_site_label_2
_geom_bond_site_symmetry_1
_geom_bond_site_symmetry_2
Cu1 N1 1_555 1_555
N1 C1 1_555 1_555
C1 H1 1_555 1_555
C2 C1 1_555 1_555
H2 C2 1_555 1_555
C3 C2 1_555 1_555
C4 C3 1_555 1_555
H3 C4 1_555 1_555
C5 N1 1_555 1_555
H4 C5 1_555 1_555
C6 C3 1_555 1_555
H5 C6 1_555 1_555
H6 C6 1_555 1_555
N2 C6 1_555 1_555
H7 N2 1_555 1_555
C7 N2 1_555 1_555
O1 C7 1_555 1_555
N3 C7 1_555 1_555
H8 N3 1_555 1_555
C8 N3 1_555 1_555
H9 C8 1_555 1_555
H10 C8 1_555 1_555
C9 C8 1_555 1_555
C10 C9 1_555 1_555
H11 C10 1_555 1_555
C11 C10 1_555 1_555
H12 C11 1_555 1_555
N4 C11 1_555 1_555
C12 N4 1_555 1_555
H13 C12 1_555 1_555
C13 C9 1_555 1_555
H14 C13 1_555 1_555
C14 O2 1_555 1_555
O2 Cu1 1_555 1_555
O3 C14 1_555 1_555
C15 C14 1_555 1_555
H15 C15 1_555 1_555
H16 C15 1_555 1_555
H17 C15 1_555 1_555
C16 O4 1_555 1_555
O4 Cu1 1_555 1_555
O5 C16 1_555 1_555
C17 C16 1_555 1_555
H18 C17 1_555 1_555
H19 C17 1_555 1_555
H20 C17 1_555 1_555
Cu1C O1 1_555 1_555
Cu1_2 N4 1_555 1_555
O1C Cu1 1_555 1_555
N4_2 Cu1 1_555 1_555
C4 C5 1_555 1_555
C12 C13 1_555 1_555

#END
