
#######################################################################
#
#                 Cambridge Crystallographic Data Centre
#                                CCDC 
#
#######################################################################
#
# If this CIF has been generated from an entry in the Cambridge 
# Structural Database, then it will include bibliographic, chemical, 
# crystal, experimental, refinement or atomic coordinate data resulting 
# from the CCDC's data processing and validation procedures.
#
#######################################################################

data_VEDYIN
_symmetry_cell_setting           monoclinic
_symmetry_space_group_name_H-M   'C 2/c'
_symmetry_Int_Tables_number      15
_space_group_name_Hall           '-C 2yn'
loop_
_symmetry_equiv_pos_site_id
_symmetry_equiv_pos_as_xyz
1 x,y,z
2 1/2+x,1/2+y,z
3 -x,y,1/2-z
4 1/2-x,1/2+y,1/2-z
5 -x,-y,-z
6 1/2-x,1/2-y,-z
7 x,-y,1/2+z
8 1/2+x,1/2-y,1/2+z
_cell_length_a                   13.6925(7)
_cell_length_b                   47.613(2)
_cell_length_c                   14.3110(9)
_cell_angle_alpha                90
_cell_angle_beta                 105.693(5)
_cell_angle_gamma                90
_cell_volume                     8982.15
loop_
_atom_site_label
_atom_site_type_symbol
_atom_site_fract_x
_atom_site_fract_y
_atom_site_fract_z
Cu1 Cu 0.75038(4) 0.083232(13) 0.49983(4)
O1 O 0.6733(2) 0.12550(5) 0.57920(19)
H1 H 0.701(3) 0.1428(4) 0.585(3)
H2 H 0.625(3) 0.1270(11) 0.611(3)
O2 O 0.8271(2) 0.04100(5) 0.4208(2)
H3 H 0.800(3) 0.0238(4) 0.422(3)
H4 H 0.872(4) 0.0417(16) 0.386(4)
N1 N 0.7930(2) 0.06543(7) 0.6346(3)
C1 C 0.7868(3) 0.07843(10) 0.7165(4)
H5 H 0.7545 0.0962 0.7107
C2 C 0.8243(3) 0.06750(8) 0.8070(3)
H6 H 0.8169 0.0774 0.8623
C3 C 0.8735(3) 0.04159(8) 0.8177(3)
C4 C 0.8758(3) 0.02688(7) 0.7343(3)
H7 H 0.9044 0.0086 0.7382
C5 C 0.8349(3) 0.03972(9) 0.6452(3)
H8 H 0.8367 0.0297 0.5883
C6 C 0.9254(3) 0.02977(9) 0.9158(3)
H9 H 0.9255 0.0090 0.9111
H10 H 0.9970 0.0361 0.9343
N2 N 0.8792(2) 0.03775(7) 0.9920(2)
H11 H 0.916(3) 0.0477(9) 1.043(2)
C7 C 0.7892(3) 0.02662(8) 0.9944(3)
O3 O 0.73990(18) 0.01072(5) 0.92915(19)
N3 N 0.7554(2) 0.03410(7) 1.0720(3)
H12 H 0.794(3) 0.0460(7) 1.116(2)
C8 C 0.6705(3) 0.01901(9) 1.0936(3)
H13 H 0.6884 0.0148 1.1640
H14 H 0.6611 0.0009 1.0585
C9 C 0.5709(3) 0.03491(7) 1.0664(3)
C10 C 0.5422(3) 0.05344(8) 0.9893(3)
H15 H 0.5862 0.0573 0.9497
C11 C 0.4476(3) 0.06645(9) 0.9708(3)
H16 H 0.4276 0.0787 0.9166
N4 N 0.6167(2) 0.06245(7) 0.4742(3)
C12 C 0.5878(3) 0.04422(9) 0.3991(3)
H17 H 0.6323 0.0411 0.3594
C13 C 0.5028(3) 0.03004(9) 1.1222(3)
H18 H 0.5192 0.0170 1.1745
N5 N 0.7071(2) 0.10118(7) 0.3653(2)
C14 C 0.7134(3) 0.08796(9) 0.2839(4)
H19 H 0.7458 0.0702 0.2893
C15 C 0.6740(3) 0.09958(8) 0.1920(3)
H20 H 0.6798 0.0898 0.1359
C16 C 0.6266(2) 0.12545(7) 0.1830(3)
C17 C 0.6233(3) 0.13922(8) 0.2659(3)
H21 H 0.5925 0.1572 0.2622
C18 C 0.6651(3) 0.12678(8) 0.3553(3)
H22 H 0.6639 0.1369 0.4122
C19 C 0.5731(3) 0.13703(7) 0.0834(2)
H23 H 0.5021 0.1303 0.0651
H24 H 0.5715 0.1578 0.0875
N6 N 0.6199(2) 0.12925(7) 0.0076(2)
H25 H 0.581(3) 0.1222(10) -0.0486(19)
C20 C 0.7099(3) 0.14033(7) 0.0049(3)
O4 O 0.76007(17) 0.15597(5) 0.07153(18)
N7 N 0.7444(2) 0.13288(7) -0.0712(2)
H26 H 0.714(3) 0.1201(7) -0.116(2)
C21 C 0.8272(3) 0.14774(8) -0.0939(3)
H27 H 0.8366 0.1659 -0.0591
H28 H 0.8082 0.1518 -0.1643
C22 C 0.9277(3) 0.13207(8) -0.0677(3)
C23 C 0.9552(3) 0.11382(8) 0.0097(3)
H29 H 0.9112 0.1103 0.0496
C24 C 1.0498(3) 0.10062(8) 0.0277(3)
H30 H 1.0693 0.0884 0.0820
N8 N 0.8857(2) 0.10413(8) 0.5260(3)
C25 C 0.9133(3) 0.12210(10) 0.6015(3)
H31 H 0.8690 0.1248 0.6415
C26 C 0.9952(3) 0.13683(8) -0.1226(3)
H32 H 0.9794 0.1500 -0.1743
Cu1B Cu 0.24962(4) 0.083232(13) 1.00017(4)
Cu1B_2 Cu 1.24962(4) 0.083232(13) 0.00017(4)
O1B O 0.3267(2) 0.12550(5) 0.92080(19)
H1B H 0.299(3) 0.1428(4) 0.915(3)
H2B H 0.375(3) 0.1270(11) 0.889(3)
O2B O 0.1729(2) 0.04100(5) 1.0792(2)
H3B H 0.200(3) 0.0238(4) 1.078(3)
H4B H 0.128(4) 0.0417(16) 1.114(4)
N1B N 0.2070(2) 0.06543(7) 0.8654(3)
C1B C 0.2132(3) 0.07843(10) 0.7835(4)
H5B H 0.2455 0.0962 0.7893
C2B C 0.1757(3) 0.06750(8) 0.6930(3)
H6B H 0.1831 0.0774 0.6377
C3B C 0.1265(3) 0.04159(8) 0.6823(3)
C4B C 0.1242(3) 0.02688(7) 0.7657(3)
H7B H 0.0956 0.0086 0.7618
C5B C 0.1651(3) 0.03972(9) 0.8548(3)
H8B H 0.1633 0.0297 0.9117
C6B C 0.0746(3) 0.02977(9) 0.5842(3)
H9B H 0.0745 0.0090 0.5889
H10B H 0.0030 0.0361 0.5657
N2B N 0.1208(2) 0.03775(7) 0.5080(2)
H11B H 0.084(3) 0.0477(9) 0.457(2)
C7B C 0.2108(3) 0.02662(8) 0.5056(3)
O3B O 0.26010(18) 0.01072(5) 0.57085(19)
N3B N 0.2446(2) 0.03410(7) 0.4280(3)
H12B H 0.206(3) 0.0460(7) 0.384(2)
C8B C 0.3295(3) 0.01901(9) 0.4064(3)
H13B H 0.3116 0.0148 0.3360
H14B H 0.3389 0.0009 0.4415
C9B C 0.4291(3) 0.03491(7) 0.4336(3)
C10B C 0.4578(3) 0.05344(8) 0.5107(3)
H15B H 0.4138 0.0573 0.5503
C11B C 0.5524(3) 0.06645(9) 0.5292(3)
H16B H 0.5724 0.0787 0.5834
N4B N 0.3833(2) 0.06245(7) 1.0258(3)
C12B C 0.4122(3) 0.04422(9) 1.1009(3)
H17B H 0.3677 0.0411 1.1406
C13B C 0.4972(3) 0.03004(9) 0.3778(3)
H18B H 0.4808 0.0170 0.3255
N5B N 0.2929(2) 0.10118(7) 1.1347(2)
N5B_2 N 1.2929(2) 0.10118(7) 0.1347(2)
C14B C 1.2866(3) 0.08796(9) 0.2161(4)
H19B H 1.2542 0.0702 0.2107
C15B C 1.3260(3) 0.09958(8) 0.3080(3)
H20B H 1.3202 0.0898 0.3641
C16B C 1.3734(2) 0.12545(7) 0.3170(3)
C17B C 1.3767(3) 0.13922(8) 0.2341(3)
H21B H 1.4075 0.1572 0.2378
C18B C 1.3349(3) 0.12678(8) 0.1447(3)
H22B H 1.3361 0.1369 0.0878
C19B C 1.4269(3) 0.13703(7) 0.4166(2)
H23B H 1.4979 0.1303 0.4349
H24B H 1.4285 0.1578 0.4125
N6B N 1.3801(2) 0.12925(7) 0.4924(2)
H25B H 1.419(3) 0.1222(10) 0.5486(19)
C20B C 1.2901(3) 0.14033(7) 0.4951(3)
O4B O 1.23993(17) 0.15597(5) 0.42847(18)
N7B N 1.2556(2) 0.13288(7) 0.5712(2)
H26B H 1.286(3) 0.1201(7) 0.616(2)
C21B C 1.1728(3) 0.14774(8) 0.5939(3)
H27B H 1.1634 0.1659 0.5591
H28B H 1.1918 0.1518 0.6643
C22B C 1.0723(3) 0.13207(8) 0.5677(3)
C23B C 1.0448(3) 0.11382(8) 0.4903(3)
H29B H 1.0888 0.1103 0.4504
C24B C 0.9502(3) 0.10062(8) 0.4723(3)
H30B H 0.9307 0.0884 0.4180
N8B N 1.1143(2) 0.10413(8) -0.0260(3)
N8B_2 N 0.1143(2) 0.10413(8) 0.9740(3)
C25B C 1.0867(3) 0.12210(10) -0.1015(3)
H31B H 1.1310 0.1248 -0.1415
C26B C 1.0048(3) 0.13683(8) 0.6226(3)
H32B H 1.0206 0.1500 0.6743
Cu2 Cu 0.2500 0.2500 0.5000
O5 O 0.17368(18) 0.29200(5) 0.57893(15)
H33 H 0.199(2) 0.3096(3) 0.583(2)
H34 H 0.130(3) 0.2962(10) 0.614(3)
N9 N 0.29327(19) 0.23213(6) 0.63495(15)
C27 C 0.2865(3) 0.24530(7) 0.7157(2)
H35 H 0.2540 0.2631 0.7097
C28 C 0.3248(2) 0.23407(7) 0.80733(19)
H36 H 0.3176 0.2439 0.8628
C29 C 0.3741(2) 0.20822(6) 0.81763(18)
C30 C 0.3764(2) 0.19405(7) 0.73371(19)
H37 H 0.4063 0.1759 0.7374
C31 C 0.3348(2) 0.20649(7) 0.6445(2)
H38 H 0.3357 0.1964 0.5875
C32 C 0.4263(2) 0.19628(7) 0.91688(18)
H39 H 0.4264 0.1755 0.9124
H40 H 0.4978 0.2026 0.9358
N10 N 0.3792(2) 0.20434(6) 0.99200(16)
H41 H 0.423(2) 0.2116(7) 1.0449(15)
C33 C 0.2888(2) 0.19312(6) 0.99427(18)
O6 O 0.23972(16) 0.17765(5) 0.92858(14)
N11 N 0.2562(2) 0.20052(6) 1.07188(17)
H42 H 0.2962(19) 0.2101(6) 1.1221(14)
C34 C 0.1718(2) 0.18568(7) 1.0934(2)
H43 H 0.1903 0.1813 1.1637
H44 H 0.1623 0.1676 1.0580
C35 C 0.0717(2) 0.20124(7) 1.06763(19)
C36 C 0.0420(2) 0.21982(7) 0.98975(19)
H45 H 0.0858 0.2236 0.9500
C37 C -0.0522(2) 0.23280(7) 0.97071(19)
H46 H -0.0730 0.2447 0.9155
N12 N 0.38583(19) 0.27074(5) 0.52669(15)
C38 C 0.4132(2) 0.28872(7) 0.6013(2)
H47 H 0.3686 0.2916 0.6410
C39 C 0.0040(3) 0.19685(7) 1.1224(2)
H48 H 0.0200 0.1839 1.1747
Cu2G Cu -0.2500 0.2500 1.0000
Cu2G_2 Cu 0.7500 0.2500 0.0000
O5E O 0.32632(18) 0.20800(5) 0.42107(15)
O5G O -0.32632(18) 0.20800(5) 1.07893(15)
O5B O -0.17368(18) 0.29200(5) 0.92107(15)
H33E H 0.301(2) 0.1904(3) 0.417(2)
H33G H -0.301(2) 0.1904(3) 1.083(2)
H33B H -0.199(2) 0.3096(3) 0.917(2)
H34E H 0.370(3) 0.2038(10) 0.386(3)
H34G H -0.370(3) 0.2038(10) 1.114(3)
H34B H -0.130(3) 0.2962(10) 0.886(3)
N9E N 0.20673(19) 0.26787(6) 0.36505(15)
N9G N -0.20673(19) 0.26787(6) 1.13495(15)
N9B N -0.29327(19) 0.23213(6) 0.86505(15)
N9G_2 N 0.79327(19) 0.26787(6) 0.13495(15)
C27E C 0.2135(3) 0.25470(7) 0.2843(2)
C27B C -0.2865(3) 0.24530(7) 0.7843(2)
C27G C 0.7865(3) 0.25470(7) 0.2157(2)
H35E H 0.2460 0.2369 0.2903
H35B H -0.2540 0.2631 0.7903
H35G H 0.7540 0.2369 0.2097
C28E C 0.1752(2) 0.26593(7) 0.19267(19)
C28B C -0.3248(2) 0.23407(7) 0.69267(19)
C28G C 0.8248(2) 0.26593(7) 0.30733(19)
H36E H 0.1824 0.2561 0.1372
H36B H -0.3176 0.2439 0.6372
H36G H 0.8176 0.2561 0.3628
C29E C 0.1259(2) 0.29178(6) 0.18237(18)
C29B C -0.3741(2) 0.20822(6) 0.68237(18)
C29G C 0.8741(2) 0.29178(6) 0.31763(18)
C30E C 0.1236(2) 0.30595(7) 0.26629(19)
C30B C -0.3764(2) 0.19405(7) 0.76629(19)
C30G C 0.8764(2) 0.30595(7) 0.23371(19)
H37E H 0.0937 0.3241 0.2626
H37B H -0.4063 0.1759 0.7626
H37G H 0.9063 0.3241 0.2374
C31E C 0.1652(2) 0.29351(7) 0.3555(2)
C31B C -0.3348(2) 0.20649(7) 0.8555(2)
C31G C 0.8348(2) 0.29351(7) 0.1445(2)
H38E H 0.1643 0.3036 0.4125
H38B H -0.3357 0.1964 0.9125
H38G H 0.8357 0.3036 0.0875
C32E C 0.0737(2) 0.30372(7) 0.08312(18)
C32B C -0.4263(2) 0.19628(7) 0.58312(18)
C32G C 0.9263(2) 0.30372(7) 0.41688(18)
H39E H 0.0736 0.3245 0.0876
H39B H -0.4264 0.1755 0.5876
H39G H 0.9264 0.3245 0.4124
H40E H 0.0022 0.2974 0.0642
H40B H -0.4978 0.2026 0.5642
H40G H 0.9978 0.2974 0.4358
N10E N 0.1208(2) 0.29566(6) 0.00800(16)
N10G N 0.8792(2) 0.29566(6) 0.49200(16)
N10B N -0.3792(2) 0.20434(6) 0.50800(16)
H41E H 0.077(2) 0.2884(7) -0.0449(15)
H41G H 0.923(2) 0.2884(7) 0.5449(15)
H41B H -0.423(2) 0.2116(7) 0.4551(15)
C33G C 0.7888(2) 0.30688(6) 0.49427(18)
C33E C 0.2112(2) 0.30688(6) 0.00573(18)
C33B C -0.2888(2) 0.19312(6) 0.50573(18)
O6G O 0.73972(16) 0.32235(5) 0.42858(14)
O6E O 0.26028(16) 0.32235(5) 0.07142(14)
O6B O -0.23972(16) 0.17765(5) 0.57142(14)
N11G N 0.7562(2) 0.29948(6) 0.57188(17)
N11B N -0.2562(2) 0.20052(6) 0.42812(17)
N11E N 0.2438(2) 0.29948(6) -0.07188(17)
H42G H 0.7962(19) 0.2899(6) 0.6221(14)
H42B H -0.2962(19) 0.2101(6) 0.3779(14)
H42E H 0.2038(19) 0.2899(6) -0.1221(14)
C34G C 0.6718(2) 0.31432(7) 0.5934(2)
C34B C -0.1718(2) 0.18568(7) 0.4066(2)
C34E C 0.3282(2) 0.31432(7) -0.0934(2)
H43G H 0.6903 0.3187 0.6637
H43B H -0.1903 0.1813 0.3363
H43E H 0.3097 0.3187 -0.1637
H44G H 0.6623 0.3324 0.5580
H44B H -0.1623 0.1676 0.4420
H44E H 0.3377 0.3324 -0.0580
C35G C 0.5717(2) 0.29876(7) 0.56763(19)
C35B C -0.0717(2) 0.20124(7) 0.43237(19)
C35E C 0.4283(2) 0.29876(7) -0.06763(19)
C36G C 0.5420(2) 0.28018(7) 0.48975(19)
C36B C -0.0420(2) 0.21982(7) 0.51025(19)
C36E C 0.4580(2) 0.28018(7) 0.01025(19)
H45G H 0.5858 0.2764 0.4500
H45B H -0.0858 0.2236 0.5500
H45E H 0.4142 0.2764 0.0500
C37G C 0.4478(2) 0.26720(7) 0.47071(19)
C37B C 0.0522(2) 0.23280(7) 0.52929(19)
C37E C 0.5522(2) 0.26720(7) 0.02929(19)
H46G H 0.4270 0.2553 0.4155
H46B H 0.0730 0.2447 0.5845
H46E H 0.5730 0.2553 0.0845
N12E N 0.11417(19) 0.22926(5) 0.47331(15)
N12G N -0.11417(19) 0.22926(5) 1.02669(15)
N12B N -0.38583(19) 0.27074(5) 0.97331(15)
N12B_2 N 0.61417(19) 0.27074(5) -0.02669(15)
C38G C -0.0868(2) 0.21128(7) 1.1013(2)
C38E C 0.0868(2) 0.21128(7) 0.3987(2)
C38B C 0.5868(2) 0.28872(7) -0.1013(2)
H47G H -0.1314 0.2084 1.1410
H47E H 0.1314 0.2084 0.3590
H47B H 0.6314 0.2916 -0.1410
C39G C 0.5040(3) 0.30315(7) 0.6224(2)
C39B C -0.0040(3) 0.19685(7) 0.3776(2)
C39E C 0.4960(3) 0.30315(7) -0.1224(2)
H48G H 0.5200 0.3161 0.6747
H48B H -0.0200 0.1839 0.3253
H48E H 0.4800 0.3161 -0.1747
S1 S 0.5000 0.22136(2) 0.2500
O7 O 0.58510(19) 0.23856(6) 0.30443(18)
O8 O 0.4676(2) 0.20320(6) 0.31906(16)
O7B O 0.41490(19) 0.23856(6) 0.19557(18)
O8B O 0.5324(2) 0.20320(6) 0.18094(16)
S2 S 0.0000 0.05496(3) 0.2500
O9 O 0.0844(3) 0.07215(7) 0.3041(3)
O10 O -0.0334(2) 0.03631(6) 0.3183(2)
O9B O -0.0844(3) 0.07215(7) 0.1959(3)
O10B O 0.0334(2) 0.03631(6) 0.1817(2)
S3 S 0.5000 0.11203(3) 0.7500
O11 O 0.4163(2) 0.09446(6) 0.6965(2)
O12 O 0.5312(2) 0.13002(6) 0.6806(2)
O11B O 0.5837(2) 0.09446(6) 0.8035(2)
O12B O 0.4688(2) 0.13002(6) 0.8194(2)
O13 O 0.8986(3) 0.13869(12) 0.2503(2)
O14 O 0.0894(6) 0.2021(2) 0.7575(4)
O16 O 0.3863(6) 0.0213(3) 0.7584(5)
O15? O 0.1147(5) 0.1865(3) 0.7413(4)
O17? O 0.4135(6) 0.0361(2) 0.7381(6)
loop_
_geom_bond_atom_site_label_1
_geom_bond_atom_site_label_2
_geom_bond_site_symmetry_1
_geom_bond_site_symmetry_2
Cu1 O1 1_555 1_555
O1 H1 1_555 1_555
H2 O1 1_555 1_555
O2 Cu1 1_555 1_555
H3 O2 1_555 1_555
H4 O2 1_555 1_555
N1 Cu1 1_555 1_555
C1 N1 1_555 1_555
H5 C1 1_555 1_555
C2 C1 1_555 1_555
H6 C2 1_555 1_555
C3 C2 1_555 1_555
C4 C3 1_555 1_555
H7 C4 1_555 1_555
C5 N1 1_555 1_555
H8 C5 1_555 1_555
C6 C3 1_555 1_555
H9 C6 1_555 1_555
H10 C6 1_555 1_555
N2 C6 1_555 1_555
H11 N2 1_555 1_555
C7 N2 1_555 1_555
O3 C7 1_555 1_555
N3 C7 1_555 1_555
H12 N3 1_555 1_555
C8 N3 1_555 1_555
H13 C8 1_555 1_555
H14 C8 1_555 1_555
C9 C8 1_555 1_555
C10 C9 1_555 1_555
H15 C10 1_555 1_555
C11 C10 1_555 1_555
H16 C11 1_555 1_555
N4 Cu1 1_555 1_555
C12 N4 1_555 1_555
H17 C12 1_555 1_555
C13 C9 1_555 1_555
H18 C13 1_555 1_555
N5 Cu1 1_555 1_555
C14 N5 1_555 1_555
H19 C14 1_555 1_555
C15 C14 1_555 1_555
H20 C15 1_555 1_555
C16 C15 1_555 1_555
C17 C16 1_555 1_555
H21 C17 1_555 1_555
C18 N5 1_555 1_555
H22 C18 1_555 1_555
C19 C16 1_555 1_555
H23 C19 1_555 1_555
H24 C19 1_555 1_555
N6 C19 1_555 1_555
H25 N6 1_555 1_555
C20 N6 1_555 1_555
O4 C20 1_555 1_555
N7 C20 1_555 1_555
H26 N7 1_555 1_555
C21 N7 1_555 1_555
H27 C21 1_555 1_555
H28 C21 1_555 1_555
C22 C21 1_555 1_555
C23 C22 1_555 1_555
H29 C23 1_555 1_555
C24 C23 1_555 1_555
H30 C24 1_555 1_555
N8 Cu1 1_555 1_555
C25 N8 1_555 1_555
H31 C25 1_555 1_555
C26 C22 1_555 1_555
H32 C26 1_555 1_555
Cu2 O5 1_555 1_555
O5 H33 1_555 1_555
H34 O5 1_555 1_555
N9 Cu2 1_555 1_555
C27 N9 1_555 1_555
H35 C27 1_555 1_555
C28 C27 1_555 1_555
H36 C28 1_555 1_555
C29 C28 1_555 1_555
C30 C29 1_555 1_555
H37 C30 1_555 1_555
C31 N9 1_555 1_555
H38 C31 1_555 1_555
C32 C29 1_555 1_555
H39 C32 1_555 1_555
H40 C32 1_555 1_555
N10 C32 1_555 1_555
H41 N10 1_555 1_555
C33 N10 1_555 1_555
O6 C33 1_555 1_555
N11 C33 1_555 1_555
H42 N11 1_555 1_555
C34 N11 1_555 1_555
H43 C34 1_555 1_555
H44 C34 1_555 1_555
C35 C34 1_555 1_555
C36 C35 1_555 1_555
H45 C36 1_555 1_555
C37 C36 1_555 1_555
H46 C37 1_555 1_555
N12 Cu2 1_555 1_555
C38 N12 1_555 1_555
H47 C38 1_555 1_555
C39 C35 1_555 1_555
H48 C39 1_555 1_555
S1 O7 1_555 1_555
O8 S1 1_555 1_555
S2 O9 1_555 1_555
O10 S2 1_555 1_555
S3 O11 1_555 1_555
O12 S3 1_555 1_555
Cu1B O1B 1_555 1_555
Cu1B_2 N5B_2 1_555 1_555
O1B H1B 1_555 1_555
H2B O1B 1_555 1_555
O2B Cu1B 1_555 1_555
H3B O2B 1_555 1_555
H4B O2B 1_555 1_555
N1B Cu1B 1_555 1_555
C1B N1B 1_555 1_555
H5B C1B 1_555 1_555
C2B C1B 1_555 1_555
H6B C2B 1_555 1_555
C3B C2B 1_555 1_555
C4B C3B 1_555 1_555
H7B C4B 1_555 1_555
C5B N1B 1_555 1_555
H8B C5B 1_555 1_555
C6B C3B 1_555 1_555
H9B C6B 1_555 1_555
H10B C6B 1_555 1_555
N2B C6B 1_555 1_555
H11B N2B 1_555 1_555
C7B N2B 1_555 1_555
O3B C7B 1_555 1_555
N3B C7B 1_555 1_555
H12B N3B 1_555 1_555
C8B N3B 1_555 1_555
H13B C8B 1_555 1_555
H14B C8B 1_555 1_555
C9B C8B 1_555 1_555
C10B C9B 1_555 1_555
H15B C10B 1_555 1_555
C11B N4 1_555 1_555
H16B C11B 1_555 1_555
N4B C11 1_555 1_555
C12B C13 1_555 1_555
H17B C12B 1_555 1_555
C13B C12 1_555 1_555
H18B C13B 1_555 1_555
N5B Cu1B 1_555 1_555
N5B_2 C14B 1_555 1_555
C14B H19B 1_555 1_555
C15B C14B 1_555 1_555
H20B C15B 1_555 1_555
C16B C15B 1_555 1_555
C17B C16B 1_555 1_555
H21B C17B 1_555 1_555
C18B N5B_2 1_555 1_555
H22B C18B 1_555 1_555
C19B C16B 1_555 1_555
H23B C19B 1_555 1_555
H24B C19B 1_555 1_555
N6B C19B 1_555 1_555
H25B N6B 1_555 1_555
C20B N6B 1_555 1_555
O4B C20B 1_555 1_555
N7B C20B 1_555 1_555
H26B N7B 1_555 1_555
C21B N7B 1_555 1_555
H27B C21B 1_555 1_555
H28B C21B 1_555 1_555
C22B C21B 1_555 1_555
C23B C22B 1_555 1_555
H29B C23B 1_555 1_555
C24B N8 1_555 1_555
H30B C24B 1_555 1_555
N8B C24 1_555 1_555
N8B_2 Cu1B 1_555 1_555
C25B C26 1_555 1_555
H31B C25B 1_555 1_555
C26B C25 1_555 1_555
H32B C26B 1_555 1_555
Cu2G O5G 1_555 1_555
Cu2G_2 N9G_2 1_555 1_555
O5E Cu2 1_555 1_555
O5G H33G 1_555 1_555
O5B Cu2G 1_555 1_555
H33E O5E 1_555 1_555
H33B O5B 1_555 1_555
H34E O5E 1_555 1_555
H34G O5G 1_555 1_555
H34B O5B 1_555 1_555
N9E Cu2 1_555 1_555
N9G Cu2G 1_555 1_555
N9B Cu2G 1_555 1_555
N9G_2 C27G 1_555 1_555
C27E N9E 1_555 1_555
C27B N9B 1_555 1_555
C27G H35G 1_555 1_555
H35E C27E 1_555 1_555
H35B C27B 1_555 1_555
C28E C27E 1_555 1_555
C28B C27B 1_555 1_555
C28G C27G 1_555 1_555
H36E C28E 1_555 1_555
H36B C28B 1_555 1_555
H36G C28G 1_555 1_555
C29E C28E 1_555 1_555
C29B C28B 1_555 1_555
C29G C28G 1_555 1_555
C30E C29E 1_555 1_555
C30B C29B 1_555 1_555
C30G C29G 1_555 1_555
H37E C30E 1_555 1_555
H37B C30B 1_555 1_555
H37G C30G 1_555 1_555
C31E N9E 1_555 1_555
C31B N9B 1_555 1_555
C31G N9G_2 1_555 1_555
H38E C31E 1_555 1_555
H38B C31B 1_555 1_555
H38G C31G 1_555 1_555
C32E C29E 1_555 1_555
C32B C29B 1_555 1_555
C32G C29G 1_555 1_555
H39E C32E 1_555 1_555
H39B C32B 1_555 1_555
H39G C32G 1_555 1_555
H40E C32E 1_555 1_555
H40B C32B 1_555 1_555
H40G C32G 1_555 1_555
N10E C32E 1_555 1_555
N10G C32G 1_555 1_555
N10B C32B 1_555 1_555
H41E N10E 1_555 1_555
H41G N10G 1_555 1_555
H41B N10B 1_555 1_555
C33G N10G 1_555 1_555
C33E N10E 1_555 1_555
C33B N10B 1_555 1_555
O6G C33G 1_555 1_555
O6E C33E 1_555 1_555
O6B C33B 1_555 1_555
N11G C33G 1_555 1_555
N11B C33B 1_555 1_555
N11E C33E 1_555 1_555
H42G N11G 1_555 1_555
H42B N11B 1_555 1_555
H42E N11E 1_555 1_555
C34G N11G 1_555 1_555
C34B N11B 1_555 1_555
C34E N11E 1_555 1_555
H43G C34G 1_555 1_555
H43B C34B 1_555 1_555
H43E C34E 1_555 1_555
H44G C34G 1_555 1_555
H44B C34B 1_555 1_555
H44E C34E 1_555 1_555
C35G C34G 1_555 1_555
C35B C34B 1_555 1_555
C35E C34E 1_555 1_555
C36G C35G 1_555 1_555
C36B C35B 1_555 1_555
C36E C35E 1_555 1_555
H45G C36G 1_555 1_555
H45B C36B 1_555 1_555
H45E C36E 1_555 1_555
C37G N12 1_555 1_555
C37B C36B 1_555 1_555
C37E C36E 1_555 1_555
H46G C37G 1_555 1_555
H46B C37B 1_555 1_555
H46E C37E 1_555 1_555
N12E Cu2 1_555 1_555
N12G C37 1_555 1_555
N12B Cu2G 1_555 1_555
N12B_2 Cu2G_2 1_555 1_555
C38G C39 1_555 1_555
C38E N12E 1_555 1_555
C38B N12B_2 1_555 1_555
H47G C38G 1_555 1_555
H47E C38E 1_555 1_555
H47B C38B 1_555 1_555
C39G C38 1_555 1_555
C39B C35B 1_555 1_555
C39E C35E 1_555 1_555
H48G C39G 1_555 1_555
H48B C39B 1_555 1_555
H48E C39E 1_555 1_555
O7B S1 1_555 1_555
O8B S1 1_555 1_555
O9B S2 1_555 1_555
O10B S2 1_555 1_555
O11B S3 1_555 1_555
O12B S3 1_555 1_555
C4 C5 1_555 1_555
C17 C18 1_555 1_555
C30 C31 1_555 1_555
Cu1B N4B 1_555 1_555
Cu1B_2 N8B 1_555 1_555
C4B C5B 1_555 1_555
C9B C13B 1_555 1_555
C10B C11B 1_555 1_555
N4B C12B 1_555 1_555
C17B C18B 1_555 1_555
C22B C26B 1_555 1_555
C23B C24B 1_555 1_555
N8B C25B 1_555 1_555
Cu2G N12G 1_555 1_555
C30E C31E 1_555 1_555
C30B C31B 1_555 1_555
C30G C31G 1_555 1_555
C35G C39G 1_555 1_555
C36G C37G 1_555 1_555
C37B N12E 1_555 1_555
C37E N12B_2 1_555 1_555
N12G C38G 1_555 1_555
C38E C39B 1_555 1_555
C38B C39E 1_555 1_555

#END
