
#######################################################################
#
#                 Cambridge Crystallographic Data Centre
#                                CCDC 
#
#######################################################################
#
# If this CIF has been generated from an entry in the Cambridge 
# Structural Database, then it will include bibliographic, chemical, 
# crystal, experimental, refinement or atomic coordinate data resulting 
# from the CCDC's data processing and validation procedures.
#
#######################################################################

data_VEFBAL
_symmetry_cell_setting           monoclinic
_symmetry_space_group_name_H-M   'P 21/n'
_symmetry_Int_Tables_number      14
_space_group_name_Hall           '-P 2yn'
loop_
_symmetry_equiv_pos_site_id
_symmetry_equiv_pos_as_xyz
1 x,y,z
2 1/2-x,1/2+y,1/2-z
3 -x,-y,-z
4 1/2+x,1/2-y,1/2+z
_cell_length_a                   19.845(15)
_cell_length_b                   17.581(14)
_cell_length_c                   22.370(18)
_cell_angle_alpha                90
_cell_angle_beta                 95.424(16)
_cell_angle_gamma                90
_cell_volume                     7769.83
loop_
_atom_site_label
_atom_site_type_symbol
_atom_site_fract_x
_atom_site_fract_y
_atom_site_fract_z
Co1 Co 1.08510(4) 0.07311(5) 0.18362(4)
Co2 Co 0.58891(4) -0.02388(5) 0.24555(4)
Mn1 Mn 0.83420(5) 0.01842(6) 0.21313(5)
Mn2 Mn 1.33584(5) 0.03444(6) 0.22482(6)
O1 O 1.1086(3) 0.2089(4) 0.3238(3)
O2 O 1.0923(3) -0.1489(3) 0.1918(3)
O3 O 0.8679(3) -0.1027(3) 0.2113(3)
O4 O 0.8147(3) -0.0179(3) 0.1169(3)
O5 O 0.6089(3) 0.1966(3) 0.2647(3)
O6 O 0.5346(3) -0.1271(3) 0.0922(3)
O7 O 1.3872(3) 0.0936(4) 0.1532(4)
O8 O 1.3672(3) 0.1494(3) 0.2610(3)
N1 N 1.0880(3) 0.1042(4) 0.2634(3)
N2 N 1.0922(3) -0.0241(3) 0.2158(3)
N3 N 1.0876(3) 0.0189(3) 0.1085(3)
N4 N 1.0772(2) 0.1805(3) 0.1676(3)
N5 N 0.9340(3) 0.0534(3) 0.1856(3)
N6 N 1.2370(3) 0.0822(3) 0.1940(3)
N7 N 0.8154(3) 0.1089(3) 0.2765(3)
N8 N 0.8784(3) -0.0139(4) 0.3042(3)
N9 N 0.7768(3) 0.1106(4) 0.1648(3)
N10 N 0.7366(3) -0.0336(3) 0.2293(3)
N11 N 0.5910(2) 0.0786(3) 0.2253(3)
N12 N 0.5685(3) -0.0383(3) 0.1637(2)
N13 N 0.5802(2) -0.1342(3) 0.2484(2)
N14 N 0.6141(3) 0.0152(3) 0.3267(3)
N15 N 1.4400(3) -0.0047(3) 0.2550(3)
N16 N 1.2888(3) -0.0721(4) 0.2483(5)
N17 N 1.3302(5) -0.0390(6) 0.1428(5)
N18 N 1.3145(4) 0.0387(4) 0.3207(4)
C1 C 1.0901(4) 0.0453(5) 0.3048(4)
C2 C 1.0923(4) -0.0249(5) 0.2773(5)
C3 C 1.0933(4) -0.0897(5) 0.3144(5)
H4 H 1.0959 -0.1382 0.2983
C4 C 1.0905(6) -0.0798(9) 0.3733(7)
H5 H 1.0914 -0.1227 0.3976
C5 C 1.0864(6) -0.0107(10) 0.3995(6)
H6 H 1.0837 -0.0066 0.4406
C6 C 1.0863(5) 0.0516(7) 0.3650(5)
H7 H 1.0836 0.0995 0.3823
C7 C 1.0961(4) 0.1776(5) 0.2743(4)
C8 C 1.0872(3) 0.2214(4) 0.2178(4)
C9 C 1.0845(4) 0.2984(4) 0.2161(4)
H8 H 1.0928 0.3260 0.2515
C10 C 1.0699(4) 0.3350(4) 0.1645(5)
H9 H 1.0683 0.3878 0.1636
C11 C 1.0575(4) 0.2945(4) 0.1136(4)
H10 H 1.0463 0.3184 0.0769
C12 C 1.0620(4) 0.2164(4) 0.1178(4)
H11 H 1.0536 0.1880 0.0828
C13 C 1.0902(4) 0.0446(5) 0.0535(5)
H12 H 1.0905 0.0969 0.0472
C14 C 1.0926(5) -0.0033(6) 0.0048(5)
H13 H 1.0947 0.0163 -0.0336
C15 C 1.0918(5) -0.0780(6) 0.0139(6)
H14 H 1.0918 -0.1115 -0.0182
C16 C 1.0908(5) -0.1042(5) 0.0692(5)
H15 H 1.0910 -0.1564 0.0759
C17 C 1.0897(4) -0.0554(4) 0.1169(4)
C18 C 1.0915(4) -0.0811(4) 0.1794(4)
C19 C 1.1809(4) 0.0809(4) 0.1888(4)
C20 C 0.9897(3) 0.0627(3) 0.1814(3)
C21 C 0.8342(4) 0.0995(5) 0.3335(4)
C22 C 0.8226(6) 0.1560(7) 0.3743(5)
H16 H 0.8366 0.1499 0.4149
C23 C 0.7909(7) 0.2196(7) 0.3542(6)
H17 H 0.7836 0.2585 0.3811
C24 C 0.7696(5) 0.2279(5) 0.2960(6)
H18 H 0.7466 0.2714 0.2820
C25 C 0.7830(4) 0.1692(4) 0.2569(4)
C26 C 0.7648(4) 0.1699(4) 0.1918(5)
C27 C 0.7361(5) 0.2430(5) 0.1622(5)
H19 H 0.7120 0.2310 0.1241
H20 H 0.7725 0.2773 0.1562
H21 H 0.7057 0.2665 0.1876
C28 C 0.7622(4) 0.1001(6) 0.1002(4)
H22 H 0.7987 0.1209 0.0793
H23 H 0.7207 0.1263 0.0862
C29 C 0.7552(5) 0.0177(6) 0.0880(4)
H24 H 0.7149 -0.0020 0.1040
H25 H 0.7518 0.0082 0.0451
C30 C 0.8159(6) -0.0984(5) 0.1137(5)
H26 H 0.8197 -0.1145 0.0727
H27 H 0.7745 -0.1193 0.1267
C31 C 0.8745(5) -0.1254(5) 0.1529(6)
H28 H 0.8770 -0.1805 0.1510
H29 H 0.9158 -0.1046 0.1396
C32 C 0.9234(4) -0.1167(5) 0.2510(5)
H30 H 0.9628 -0.0908 0.2383
H31 H 0.9329 -0.1708 0.2530
C33 C 0.9080(5) -0.0880(5) 0.3109(5)
H32 H 0.8769 -0.1224 0.3281
H33 H 0.9493 -0.0856 0.3377
C34 C 0.8698(5) 0.0287(6) 0.3479(4)
C35 C 0.8885(7) 0.0087(8) 0.4131(5)
H34 H 0.8917 -0.0456 0.4173
H35 H 0.8544 0.0276 0.4369
H36 H 0.9313 0.0314 0.4265
C36 C 0.6813(3) -0.0333(3) 0.2359(3)
C37 C 1.4953(4) -0.0139(4) 0.2535(3)
C38 C 0.5781(3) 0.0919(4) 0.1648(3)
C39 C 0.5764(4) 0.1623(4) 0.1373(4)
H37 H 0.5833 0.2064 0.1599
C40 C 0.5644(5) 0.1657(6) 0.0756(5)
H38 H 0.5629 0.2130 0.0570
C41 C 0.5550(5) 0.1040(6) 0.0421(5)
H39 H 0.5481 0.1084 0.0005
C42 C 0.5554(4) 0.0327(5) 0.0686(4)
H40 H 0.5483 -0.0109 0.0452
C43 C 0.5664(3) 0.0277(4) 0.1299(3)
C44 C 0.5522(4) -0.1076(4) 0.1434(4)
C45 C 0.5612(3) -0.1616(4) 0.1945(3)
C46 C 0.5499(4) -0.2378(4) 0.1853(4)
H41 H 0.5366 -0.2564 0.1471
C47 C 0.5584(3) -0.2850(4) 0.2325(4)
H42 H 0.5508 -0.3369 0.2276
C48 C 0.5778(3) -0.2564(4) 0.2870(4)
H43 H 0.5841 -0.2885 0.3200
C49 C 0.5881(3) -0.1817(4) 0.2937(3)
H44 H 0.6013 -0.1628 0.3319
C50 C 0.6308(6) -0.0219(5) 0.3764(4)
H45 H 0.6270 -0.0747 0.3763
C51 C 0.6529(9) 0.0127(6) 0.4270(5)
H46 H 0.6661 -0.0158 0.4611
C52 C 0.6563(7) 0.0909(6) 0.4291(5)
H47 H 0.6691 0.1168 0.4646
C53 C 0.6404(6) 0.1275(5) 0.3774(4)
H48 H 0.6439 0.1802 0.3763
C54 C 0.6194(4) 0.0896(4) 0.3266(3)
C55 C 0.6050(3) 0.1276(4) 0.2683(4)
C56 C 1.2803(4) -0.1237(5) 0.2043(8)
C57 C 1.2559(7) -0.1925(8) 0.2191(10)
H49 H 1.2468 -0.2290 0.1894
C58 C 1.2454(7) -0.2078(9) 0.2719(11)
H50 H 1.2328 -0.2571 0.2811
C59 C 1.2520(6) -0.1528(9) 0.3182(8)
H51 H 1.2412 -0.1619 0.3571
C60 C 1.2759(5) -0.0848(6) 0.2996(7)
C61 C 1.2874(5) -0.0196(8) 0.3425(5)
C62 C 1.2705(8) -0.0287(10) 0.4025(6)
H52 H 1.3042 -0.0596 0.4246
H53 H 1.2271 -0.0530 0.4022
H54 H 1.2688 0.0202 0.4213
C63 C 1.3274(6) 0.1077(8) 0.3524(5)
H55 H 1.3421 0.0971 0.3942
H56 H 1.2865 0.1381 0.3508
C64 C 1.3815(6) 0.1499(6) 0.3240(6)
H57 H 1.3837 0.2020 0.3385
H58 H 1.4251 0.1261 0.3349
C65 C 1.4174(5) 0.1803(6) 0.2317(7)
H59 H 1.4599 0.1545 0.2429
H60 H 1.4229 0.2338 0.2417
C66 C 1.3976(6) 0.1712(6) 0.1658(8)
H61 H 1.3564 0.1995 0.1544
H62 H 1.4331 0.1908 0.1431
C67 C 1.3641(7) 0.0714(11) 0.0943(7)
H63 H 1.3193 0.0919 0.0832
H64 H 1.3945 0.0901 0.0661
C68 C 1.3625(8) -0.0066(11) 0.0938(6)
H65 H 1.4085 -0.0256 0.0953
H66 H 1.3387 -0.0235 0.0563
C69 C 1.3037(8) -0.1024(10) 0.1454(8)
C70 C 1.2947(9) -0.1540(9) 0.0959(7)
H67 H 1.2922 -0.1259 0.0589
H68 H 1.2536 -0.1821 0.0980
H69 H 1.3323 -0.1885 0.0974
Co2_2 Co 1.58891(4) -0.02388(5) 0.24555(4)
C37_2 C 0.4953(4) -0.0139(4) 0.2535(3)
Cl1 Cl 0.1388(2) 0.7094(2) 0.97667(17)
O9 O 0.0943(12) 0.6642(15) 0.9868(10)
O10 O 0.1732(13) 0.6675(11) 0.9454(12)
O11 O 0.1701(7) 0.7456(7) 1.0213(6)
O12 O 0.1118(9) 0.7589(8) 0.9358(5)
Cl2 Cl 0.2328(2) 0.2329(2) 0.02253(15)
O13 O 0.2776(7) 0.1904(9) -0.0101(6)
O14 O 0.1904(12) 0.2445(8) -0.0231(8)
O15 O 0.2663(11) 0.2908(12) 0.0349(10)
O16 O 0.2198(7) 0.1908(10) 0.0673(8)
O17 O 0.0607(13) 0.2018(14) 0.9660(8)
H1 H 0.0375 0.1913 0.9934
C71 C 0.0174(12) 0.2590(17) 0.917(3)
H70 H 0.0116 0.2350 0.8788
H71 H 0.0416 0.3059 0.9145
H72 H -0.0262 0.2693 0.9310
O18 O 0.5535(15) 0.718(2) 0.0147(11)
H2 H 0.5304 0.7354 0.0418
H3 H 0.5830 0.7489 0.0074
loop_
_geom_bond_atom_site_label_1
_geom_bond_atom_site_label_2
_geom_bond_site_symmetry_1
_geom_bond_site_symmetry_2
Co1 N1 1_555 1_555
Co2 N11 1_555 1_555
Mn1 O3 1_555 1_555
Mn2 O7 1_555 1_555
Cl1 O9 1_555 1_555
Cl2 O13 1_555 1_555
O1 C7 1_555 1_555
O2 C18 1_555 1_555
O3 C31 1_555 1_555
O4 Mn1 1_555 1_555
O5 C55 1_555 1_555
O6 C44 1_555 1_555
O7 C66 1_555 1_555
O8 Mn2 1_555 1_555
O10 Cl1 1_555 1_555
O11 Cl1 1_555 1_555
O12 Cl1 1_555 1_555
O14 Cl2 1_555 1_555
O15 Cl2 1_555 1_555
O16 Cl2 1_555 1_555
O17 H1 1_555 1_555
O18 H2 1_555 1_555
H3 O18 1_555 1_555
N1 C1 1_555 1_555
N2 Co1 1_555 1_555
N3 Co1 1_555 1_555
N4 Co1 1_555 1_555
N5 Mn1 1_555 1_555
N6 Mn2 1_555 1_555
N7 Mn1 1_555 1_555
N8 Mn1 1_555 1_555
N9 Mn1 1_555 1_555
N10 Mn1 1_555 1_555
N11 C38 1_555 1_555
N12 Co2 1_555 1_555
N13 Co2 1_555 1_555
N14 Co2 1_555 1_555
N15 Mn2 1_555 1_555
N16 Mn2 1_555 1_555
N17 Mn2 1_555 1_555
N18 Mn2 1_555 1_555
C1 C2 1_555 1_555
C2 N2 1_555 1_555
C3 C2 1_555 1_555
H4 C3 1_555 1_555
C4 C3 1_555 1_555
H5 C4 1_555 1_555
C5 C4 1_555 1_555
H6 C5 1_555 1_555
C6 C1 1_555 1_555
H7 C6 1_555 1_555
C7 N1 1_555 1_555
C8 N4 1_555 1_555
C9 C8 1_555 1_555
H8 C9 1_555 1_555
C10 C9 1_555 1_555
H9 C10 1_555 1_555
C11 C10 1_555 1_555
H10 C11 1_555 1_555
C12 N4 1_555 1_555
H11 C12 1_555 1_555
C13 N3 1_555 1_555
H12 C13 1_555 1_555
C14 C13 1_555 1_555
H13 C14 1_555 1_555
C15 C14 1_555 1_555
H14 C15 1_555 1_555
C16 C15 1_555 1_555
H15 C16 1_555 1_555
C17 N3 1_555 1_555
C18 N2 1_555 1_555
C19 Co1 1_555 1_555
C20 Co1 1_555 1_555
C21 N7 1_555 1_555
C22 C21 1_555 1_555
H16 C22 1_555 1_555
C23 C22 1_555 1_555
H17 C23 1_555 1_555
C24 C23 1_555 1_555
H18 C24 1_555 1_555
C25 N7 1_555 1_555
C26 N9 1_555 1_555
C27 C26 1_555 1_555
H19 C27 1_555 1_555
H20 C27 1_555 1_555
H21 C27 1_555 1_555
C28 N9 1_555 1_555
H22 C28 1_555 1_555
H23 C28 1_555 1_555
C29 O4 1_555 1_555
H24 C29 1_555 1_555
H25 C29 1_555 1_555
C30 O4 1_555 1_555
H26 C30 1_555 1_555
H27 C30 1_555 1_555
C31 C30 1_555 1_555
H28 C31 1_555 1_555
H29 C31 1_555 1_555
C32 O3 1_555 1_555
H30 C32 1_555 1_555
H31 C32 1_555 1_555
C33 N8 1_555 1_555
H32 C33 1_555 1_555
H33 C33 1_555 1_555
C34 N8 1_555 1_555
C35 C34 1_555 1_555
H34 C35 1_555 1_555
H35 C35 1_555 1_555
H36 C35 1_555 1_555
C36 Co2 1_555 1_555
C37 N15 1_555 1_555
C38 C39 1_555 1_555
C39 H37 1_555 1_555
C40 C39 1_555 1_555
H38 C40 1_555 1_555
C41 C40 1_555 1_555
H39 C41 1_555 1_555
C42 C41 1_555 1_555
H40 C42 1_555 1_555
C43 N12 1_555 1_555
C44 N12 1_555 1_555
C45 N13 1_555 1_555
C46 C45 1_555 1_555
H41 C46 1_555 1_555
C47 C46 1_555 1_555
H42 C47 1_555 1_555
C48 C47 1_555 1_555
H43 C48 1_555 1_555
C49 N13 1_555 1_555
H44 C49 1_555 1_555
C50 N14 1_555 1_555
H45 C50 1_555 1_555
C51 C50 1_555 1_555
H46 C51 1_555 1_555
C52 C51 1_555 1_555
H47 C52 1_555 1_555
C53 C52 1_555 1_555
H48 C53 1_555 1_555
C54 N14 1_555 1_555
C55 N11 1_555 1_555
C56 N16 1_555 1_555
C57 C56 1_555 1_555
H49 C57 1_555 1_555
C58 C57 1_555 1_555
H50 C58 1_555 1_555
C59 C58 1_555 1_555
H51 C59 1_555 1_555
C60 N16 1_555 1_555
C61 N18 1_555 1_555
C62 C61 1_555 1_555
H52 C62 1_555 1_555
H53 C62 1_555 1_555
H54 C62 1_555 1_555
C63 N18 1_555 1_555
H55 C63 1_555 1_555
H56 C63 1_555 1_555
C64 O8 1_555 1_555
H57 C64 1_555 1_555
H58 C64 1_555 1_555
C65 O8 1_555 1_555
H59 C65 1_555 1_555
H60 C65 1_555 1_555
C66 C65 1_555 1_555
H61 C66 1_555 1_555
H62 C66 1_555 1_555
C67 O7 1_555 1_555
H63 C67 1_555 1_555
H64 C67 1_555 1_555
C68 N17 1_555 1_555
H65 C68 1_555 1_555
H66 C68 1_555 1_555
C69 N17 1_555 1_555
C70 C69 1_555 1_555
H67 C70 1_555 1_555
H68 C70 1_555 1_555
H69 C70 1_555 1_555
C71 O17 1_555 1_555
H70 C71 1_555 1_555
H71 C71 1_555 1_555
H72 C71 1_555 1_555
Co2_2 C37 1_555 1_555
C37_2 Co2 1_555 1_555
N5 C20 1_555 1_555
N6 C19 1_555 1_555
N10 C36 1_555 1_555
C5 C6 1_555 1_555
C7 C8 1_555 1_555
C11 C12 1_555 1_555
C16 C17 1_555 1_555
C17 C18 1_555 1_555
C21 C34 1_555 1_555
C24 C25 1_555 1_555
C25 C26 1_555 1_555
C28 C29 1_555 1_555
C32 C33 1_555 1_555
C38 C43 1_555 1_555
C42 C43 1_555 1_555
C44 C45 1_555 1_555
C48 C49 1_555 1_555
C53 C54 1_555 1_555
C54 C55 1_555 1_555
C56 C69 1_555 1_555
C59 C60 1_555 1_555
C60 C61 1_555 1_555
C63 C64 1_555 1_555
C67 C68 1_555 1_555

#END
