
#######################################################################
#
#                 Cambridge Crystallographic Data Centre
#                                CCDC 
#
#######################################################################
#
# If this CIF has been generated from an entry in the Cambridge 
# Structural Database, then it will include bibliographic, chemical, 
# crystal, experimental, refinement or atomic coordinate data resulting 
# from the CCDC's data processing and validation procedures.
#
#######################################################################

data_VEFBEP
_symmetry_cell_setting           monoclinic
_symmetry_space_group_name_H-M   'P 21/c'
_symmetry_Int_Tables_number      14
_space_group_name_Hall           '-P 2ybc'
loop_
_symmetry_equiv_pos_site_id
_symmetry_equiv_pos_as_xyz
1 x,y,z
2 -x,1/2+y,1/2-z
3 -x,-y,-z
4 x,1/2-y,1/2+z
_cell_length_a                   11.469(3)
_cell_length_b                   17.759(4)
_cell_length_c                   20.278(5)
_cell_angle_alpha                90
_cell_angle_beta                 98.897(5)
_cell_angle_gamma                90
_cell_volume                     4080.49
loop_
_atom_site_label
_atom_site_type_symbol
_atom_site_fract_x
_atom_site_fract_y
_atom_site_fract_z
Co1 Co 0.09456(16) 0.30906(7) -0.40265(7)
Mn1 Mn 0.09531(18) 0.25637(9) -0.15390(8)
O1 O -0.1894(11) 0.4418(6) -0.4202(5)
O2 O 0.0816(9) 0.0852(5) -0.4044(5)
N1 N 0.0904(10) 0.3126(5) -0.2528(5)
N2 N 0.1050(9) 0.2044(5) -0.0515(5)
N3 N -0.0659(9) 0.3386(6) -0.4209(4)
N4 N 0.0305(13) 0.2110(5) -0.4068(4)
N5 N 0.2474(12) 0.2566(5) -0.3819(4)
N6 N 0.1251(13) 0.4182(5) -0.4058(4)
N7 N -0.0966(15) 0.2327(8) -0.1823(6)
N8 N 0.060(3) 0.1418(9) -0.2095(7)
N9 N 0.2788(18) 0.1975(10) -0.1540(10)
H3 H 0.2871 0.1655 -0.1185
N10 N 0.2361(14) 0.3442(8) -0.1123(7)
H4 H 0.2466 0.3756 -0.1463
N11 N -0.0039(18) 0.3496(7) -0.1141(7)
C1 C 0.0902(11) 0.3147(6) -0.3092(6)
C2 C 0.1048(10) 0.1979(5) 0.0043(6)
C3 C -0.1473(16) 0.2786(8) -0.4326(6)
C4 C -0.0918(15) 0.2085(7) -0.4251(6)
C5 C -0.1618(17) 0.1430(8) -0.4360(7)
H5 H -0.1265 0.0959 -0.4293
C6 C -0.2812(19) 0.1479(10) -0.4564(8)
C7 C -0.3647(18) 0.0791(10) -0.4713(11)
H6 H -0.4438 0.0963 -0.4860
H7 H -0.3626 0.0495 -0.4316
H8 H -0.3391 0.0488 -0.5057
C8 C -0.3340(17) 0.2185(11) -0.4656(8)
H9 H -0.4150 0.2223 -0.4795
C9 C -0.2661(18) 0.2833(9) -0.4539(7)
H10 H -0.3018 0.3303 -0.4606
C10 C 0.1053(15) 0.1542(7) -0.4012(6)
C11 C 0.2309(14) 0.1810(7) -0.3869(5)
C12 C 0.3239(18) 0.1326(8) -0.3763(7)
H11 H 0.3119 0.0809 -0.3803
C13 C 0.4351(18) 0.1611(10) -0.3598(7)
H12 H 0.5000 0.1291 -0.3527
C14 C 0.4501(16) 0.2391(9) -0.3538(8)
H13 H 0.5249 0.2598 -0.3424
C15 C 0.3538(16) 0.2836(8) -0.3649(7)
H14 H 0.3635 0.3354 -0.3604
C16 C -0.0928(17) 0.4113(8) -0.4182(6)
C17 C 0.0169(16) 0.4549(6) -0.4127(5)
C18 C 0.0153(17) 0.5334(7) -0.4200(6)
H15 H -0.0559 0.5594 -0.4242
C19 C 0.1178(18) 0.5714(8) -0.4208(6)
H16 H 0.1163 0.6235 -0.4260
C20 C 0.2239(16) 0.5338(8) -0.4142(7)
H17 H 0.2947 0.5593 -0.4142
C21 C 0.2205(15) 0.4558(7) -0.4074(7)
H18 H 0.2912 0.4294 -0.4038
C22 C -0.130(2) 0.1688(9) -0.2144(7)
C23 C -0.242(3) 0.1453(18) -0.2363(11)
H19 H -0.2630 0.1028 -0.2621
C24 C -0.330(2) 0.203(2) -0.2101(17)
H20 H -0.4099 0.1922 -0.2163
C25 C -0.290(3) 0.2657(17) -0.1796(13)
H21 H -0.3427 0.3008 -0.1672
C26 C -0.1580(19) 0.2803(10) -0.1648(8)
C27 C -0.126(2) 0.3508(13) -0.1311(9)
C28 C -0.190(2) 0.4098(12) -0.1153(13)
H22 H -0.2482 0.4226 -0.1530
H23 H -0.1392 0.4522 -0.1035
H24 H -0.2289 0.3966 -0.0783
C29 C 0.060(2) 0.4106(10) -0.0850(8)
H25 H 0.0233 0.4288 -0.0479
H26 H 0.0572 0.4509 -0.1174
C30 C 0.184(2) 0.3900(11) -0.0608(9)
H27 H 0.1880 0.3611 -0.0200
H28 H 0.2300 0.4355 -0.0508
C31 C 0.345(2) 0.3115(16) -0.0885(13)
H29 H 0.3421 0.2881 -0.0455
H30 H 0.4058 0.3496 -0.0829
C32 C 0.370(2) 0.2541(18) -0.1371(15)
H31 H 0.3831 0.2795 -0.1777
H32 H 0.4434 0.2289 -0.1190
C33 C 0.277(3) 0.1525(15) -0.2087(11)
H33 H 0.3490 0.1231 -0.2044
H34 H 0.2726 0.1834 -0.2485
C34 C 0.172(3) 0.1005(11) -0.2150(8)
H35 H 0.1631 0.0749 -0.2577
H36 H 0.1850 0.0625 -0.1802
C35 C -0.036(3) 0.1195(15) -0.2292(10)
C36 C -0.062(2) 0.0421(8) -0.2612(7)
H37 H -0.0007 0.0074 -0.2434
H38 H -0.0644 0.0461 -0.3087
H39 H -0.1364 0.0243 -0.2518
Co1C Co 0.09456(16) 0.19094(7) 0.09735(7)
C2C C 0.1048(10) 0.3021(5) -0.4957(6)
O3 O 0.341(2) 0.0463(16) -0.7141(18)
O4 O 0.478(3) 0.1059(11) -0.7389(14)
O5 O 0.517(3) 0.0400(13) -0.6634(12)
O6 O 0.4692(17) -0.0221(9) -0.7560(10)
Cl1 Cl 0.4536(6) 0.0421(3) -0.7199(3)
O7 O 0.413(4) 0.460(6) -0.563(4)
H1 H 0.4540 0.4221 -0.5599
H2 H 0.3416 0.4512 -0.5638
loop_
_geom_bond_atom_site_label_1
_geom_bond_atom_site_label_2
_geom_bond_site_symmetry_1
_geom_bond_site_symmetry_2
Co1 N3 1_555 1_555
Mn1 N1 1_555 1_555
O1 C16 1_555 1_555
O2 C10 1_555 1_555
O3 Cl1 1_555 1_555
O4 Cl1 1_555 1_555
O5 Cl1 1_555 1_555
O6 Cl1 1_555 1_555
O7 H1 1_555 1_555
H2 O7 1_555 1_555
N1 C1 1_555 1_555
N2 Mn1 1_555 1_555
N3 C3 1_555 1_555
N4 Co1 1_555 1_555
N5 Co1 1_555 1_555
N6 Co1 1_555 1_555
N7 Mn1 1_555 1_555
N8 Mn1 1_555 1_555
N9 Mn1 1_555 1_555
H3 N9 1_555 1_555
N10 Mn1 1_555 1_555
H4 N10 1_555 1_555
N11 Mn1 1_555 1_555
C1 Co1 1_555 1_555
C2 N2 1_555 1_555
C3 C4 1_555 1_555
C4 N4 1_555 1_555
C5 C4 1_555 1_555
H5 C5 1_555 1_555
C6 C5 1_555 1_555
C7 C6 1_555 1_555
H6 C7 1_555 1_555
H7 C7 1_555 1_555
H8 C7 1_555 1_555
C8 C6 1_555 1_555
H9 C8 1_555 1_555
C9 C3 1_555 1_555
H10 C9 1_555 1_555
C10 N4 1_555 1_555
C11 N5 1_555 1_555
C12 C11 1_555 1_555
H11 C12 1_555 1_555
C13 C12 1_555 1_555
H12 C13 1_555 1_555
C14 C13 1_555 1_555
H13 C14 1_555 1_555
C15 N5 1_555 1_555
H14 C15 1_555 1_555
C16 N3 1_555 1_555
C17 N6 1_555 1_555
C18 C17 1_555 1_555
H15 C18 1_555 1_555
C19 C18 1_555 1_555
H16 C19 1_555 1_555
C20 C19 1_555 1_555
H17 C20 1_555 1_555
C21 N6 1_555 1_555
H18 C21 1_555 1_555
C22 N7 1_555 1_555
C23 C22 1_555 1_555
H19 C23 1_555 1_555
C24 C23 1_555 1_555
H20 C24 1_555 1_555
C25 C24 1_555 1_555
H21 C25 1_555 1_555
C26 N7 1_555 1_555
C27 N11 1_555 1_555
C28 C27 1_555 1_555
H22 C28 1_555 1_555
H23 C28 1_555 1_555
H24 C28 1_555 1_555
C29 N11 1_555 1_555
H25 C29 1_555 1_555
H26 C29 1_555 1_555
C30 N10 1_555 1_555
H27 C30 1_555 1_555
H28 C30 1_555 1_555
C31 N10 1_555 1_555
H29 C31 1_555 1_555
H30 C31 1_555 1_555
C32 N9 1_555 1_555
H31 C32 1_555 1_555
H32 C32 1_555 1_555
C33 N9 1_555 1_555
H33 C33 1_555 1_555
H34 C33 1_555 1_555
C34 N8 1_555 1_555
H35 C34 1_555 1_555
H36 C34 1_555 1_555
C35 N8 1_555 1_555
C36 C35 1_555 1_555
H37 C36 1_555 1_555
H38 C36 1_555 1_555
H39 C36 1_555 1_555
Co1C C2 1_555 1_555
C2C Co1 1_555 1_555
C8 C9 1_555 1_555
C10 C11 1_555 1_555
C14 C15 1_555 1_555
C16 C17 1_555 1_555
C20 C21 1_555 1_555
C22 C35 1_555 1_555
C25 C26 1_555 1_555
C26 C27 1_555 1_555
C29 C30 1_555 1_555
C31 C32 1_555 1_555
C33 C34 1_555 1_555

#END
