
#######################################################################
#
#                 Cambridge Crystallographic Data Centre
#                                CCDC 
#
#######################################################################
#
# If this CIF has been generated from an entry in the Cambridge 
# Structural Database, then it will include bibliographic, chemical, 
# crystal, experimental, refinement or atomic coordinate data resulting 
# from the CCDC's data processing and validation procedures.
#
#######################################################################

data_VEFGUJ
_symmetry_cell_setting           triclinic
_symmetry_space_group_name_H-M   'P -1'
_symmetry_Int_Tables_number      2
_space_group_name_Hall           '-P 1'
loop_
_symmetry_equiv_pos_site_id
_symmetry_equiv_pos_as_xyz
1 x,y,z
2 -x,-y,-z
_cell_length_a                   7.228(3)
_cell_length_b                   10.800(4)
_cell_length_c                   13.795(5)
_cell_angle_alpha                112.361(5)
_cell_angle_beta                 101.523(5)
_cell_angle_gamma                93.377(5)
_cell_volume                     964.949
loop_
_atom_site_label
_atom_site_type_symbol
_atom_site_fract_x
_atom_site_fract_y
_atom_site_fract_z
Ag1 Ag 0.50996(6) 0.66626(4) -0.01932(3)
N1 N 0.3275(5) 0.9445(4) 0.1026(3)
H1 H 0.3673 0.9217 0.1556
N2 N 0.3082(5) 0.8479(4) 0.0016(3)
C4 C 0.2913(6) 1.0703(5) 0.1275(4)
C5 C 0.3072(8) 1.1050(5) 0.3262(4)
H5 H 0.2933 1.0149 0.3173
C6 C 0.2021(8) 0.7714(6) -0.2881(4)
H6 H 0.2125 0.8500 -0.3006
C7 C 0.1682(10) 0.6384(7) -0.3701(5)
H7 H 0.1535 0.6203 -0.4429
C8 C 0.1596(9) 0.5420(7) -0.3325(5)
H8 H 0.1398 0.4499 -0.3760
C9 C 0.2178(7) 0.7693(5) -0.1869(4)
C10 C 0.2494(6) 0.8807(5) -0.0817(4)
C11 C 0.2150(6) 1.0136(5) -0.0659(4)
C12 C 0.2385(6) 1.1124(5) 0.0436(4)
C13 C 0.3380(10) 1.3362(7) 0.4166(6)
H9 H 0.3497 1.4184 0.4751
C14 C 0.3071(7) 1.1523(5) 0.2416(4)
C15 C 0.3320(12) 1.2189(8) 0.4253(6)
H10 H 0.3430 1.2113 0.4911
C16 C 0.1526(8) 1.0770(6) -0.1352(5)
H11 H 0.1246 1.0372 -0.2102
C17 C 0.1398(8) 1.2100(6) -0.0721(5)
H12 H 0.0425 1.2566 -0.0985
C18 C 0.1914(7) 1.2357(5) 0.0377(5)
H13 H 0.1209 1.2926 0.0872
Cl1 Cl 0.3874(3) 0.65852(15) 0.19833(13)
O1 O 0.3980(8) 0.8012(4) 0.2286(4)
O2 O 0.4812(12) 0.6296(6) 0.2925(4)
O3 O 0.1892(10) 0.6003(6) 0.1927(7)
O4 O 0.4446(9) 0.5723(4) 0.1029(4)
S1 S 0.1886(2) 0.60600(14) -0.19672(12)
S2 S 0.3229(3) 1.32383(16) 0.29087(15)
Ag1A Ag 0.49004(6) 1.33374(4) 0.01932(3)
Ag1A_2 Ag 0.49004(6) 0.33374(4) 0.01932(3)
N1A N 0.6725(5) 1.0555(4) -0.1026(3)
H1A H 0.6327 1.0783 -0.1556
N2A N 0.6918(5) 1.1521(4) -0.0016(3)
C4A C 0.7087(6) 0.9297(5) -0.1275(4)
C5A C 0.6928(8) 0.8950(5) -0.3262(4)
H5A H 0.7067 0.9851 -0.3173
C6A C 0.7979(8) 1.2286(6) 0.2881(4)
H6A H 0.7875 1.1500 0.3006
C7A C 0.8318(10) 1.3616(7) 0.3701(5)
H7A H 0.8465 1.3797 0.4429
C8A C 0.8404(9) 1.4580(7) 0.3325(5)
H8A H 0.8602 1.5501 0.3760
C9A C 0.7822(7) 1.2307(5) 0.1869(4)
C10A C 0.7506(6) 1.1193(5) 0.0817(4)
C11A C 0.7850(6) 0.9864(5) 0.0659(4)
C12A C 0.7615(6) 0.8876(5) -0.0436(4)
C13A C 0.6620(10) 0.6638(7) -0.4166(6)
H9A H 0.6503 0.5816 -0.4751
C14A C 0.6929(7) 0.8477(5) -0.2416(4)
C15A C 0.6680(12) 0.7811(8) -0.4253(6)
H10A H 0.6570 0.7887 -0.4911
C16A C 0.8474(8) 0.9230(6) 0.1352(5)
H11A H 0.8754 0.9628 0.2102
C17A C 0.8602(8) 0.7900(6) 0.0721(5)
H12A H 0.9575 0.7434 0.0985
C18A C 0.8086(7) 0.7643(5) -0.0377(5)
H13A H 0.8791 0.7074 -0.0872
Cl1A Cl 0.6126(3) 0.34148(15) -0.19833(13)
O1A O 0.6020(8) 0.1988(4) -0.2286(4)
O2A O 0.5188(12) 0.3704(6) -0.2925(4)
O3A O 0.8108(10) 0.3997(6) -0.1927(7)
O4A O 0.5554(9) 0.4277(4) -0.1029(4)
O4_2 O 0.4446(9) 1.5723(4) 0.1029(4)
O4A_2 O 0.5554(9) 1.4277(4) -0.1029(4)
S1A S 0.8114(2) 1.39400(14) 0.19672(12)
S2A S 0.6771(3) 0.67617(16) -0.29087(15)
C1 C 0.838(3) 0.972(3) 0.430(2)
H2 H 0.7234 0.9533 0.3793
C2 C 0.967(5) 0.884(2) 0.4027(14)
H3 H 0.9361 0.8080 0.3378
C3 C 0.859(4) 1.089(3) 0.528(3)
H4 H 0.7635 1.1424 0.5420
C1A C 1.162(3) 1.028(3) 0.570(2)
H2A H 1.2766 1.0467 0.6207
C2A C 1.033(5) 1.116(2) 0.5973(14)
H3A H 1.0639 1.1920 0.6622
C3A C 1.141(4) 0.911(3) 0.472(3)
H4A H 1.2365 0.8576 0.4580
loop_
_geom_bond_atom_site_label_1
_geom_bond_atom_site_label_2
_geom_bond_site_symmetry_1
_geom_bond_site_symmetry_2
Ag1 N2 1_555 1_555
N1 H1 1_555 1_555
N2 N1 1_555 1_555
C1 H2 1_555 1_555
C2 C1 1_555 1_555
H3 C2 1_555 1_555
C3 C1 1_555 1_555
H4 C3 1_555 1_555
C4 N1 1_555 1_555
C5 H5 1_555 1_555
C6 H6 1_555 1_555
C7 C6 1_555 1_555
H7 C7 1_555 1_555
C8 C7 1_555 1_555
H8 C8 1_555 1_555
C9 C6 1_555 1_555
C10 N2 1_555 1_555
C11 C10 1_555 1_555
C12 C4 1_555 1_555
C13 H9 1_555 1_555
C14 C4 1_555 1_555
C15 C5 1_555 1_555
H10 C15 1_555 1_555
C16 C11 1_555 1_555
H11 C16 1_555 1_555
C17 C16 1_555 1_555
H12 C17 1_555 1_555
C18 C12 1_555 1_555
H13 C18 1_555 1_555
Cl1 O1 1_555 1_555
O2 Cl1 1_555 1_555
O3 Cl1 1_555 1_555
O4 Ag1 1_555 1_555
S1 Ag1 1_555 1_555
S2 C13 1_555 1_555
Ag1A C17 1_555 1_555
Ag1A_2 O4 1_555 1_555
N1A H1A 1_555 1_555
N2A Ag1A 1_555 1_555
C1A H2A 1_555 1_555
C2A C3 1_555 1_555
H3A C2A 1_555 1_555
C3A C2 1_555 1_555
H4A C3A 1_555 1_555
C4A N1A 1_555 1_555
C5A H5A 1_555 1_555
C6A H6A 1_555 1_555
C7A C6A 1_555 1_555
H7A C7A 1_555 1_555
C8A C7A 1_555 1_555
H8A C8A 1_555 1_555
C9A C6A 1_555 1_555
C10A N2A 1_555 1_555
C11A C10A 1_555 1_555
C12A C4A 1_555 1_555
C13A H9A 1_555 1_555
C14A C4A 1_555 1_555
C15A C5A 1_555 1_555
H10A C15A 1_555 1_555
C16A C11A 1_555 1_555
H11A C16A 1_555 1_555
C17A Ag1 1_555 1_555
H12A C17A 1_555 1_555
C18A Ag1 1_555 1_555
H13A C18A 1_555 1_555
Cl1A O1A 1_555 1_555
O2A Cl1A 1_555 1_555
O3A Cl1A 1_555 1_555
O4A Ag1 1_555 1_555
O4_2 Ag1A 1_555 1_555
O4A_2 Ag1A 1_555 1_555
S1A Ag1A 1_555 1_555
S2A C13A 1_555 1_555
C5 C14 1_555 1_555
C8 S1 1_555 1_555
C9 C10 1_555 1_555
C9 S1 1_555 1_555
C11 C12 1_555 1_555
C13 C15 1_555 1_555
C14 S2 1_555 1_555
C17 C18 1_555 1_555
C18 Ag1A 1_555 1_555
Cl1 O4 1_555 1_555
Ag1A_2 O4A 1_555 1_555
N1A N2A 1_555 1_555
C1A C2A 1_555 1_555
C1A C3A 1_555 1_555
C5A C14A 1_555 1_555
C8A S1A 1_555 1_555
C9A C10A 1_555 1_555
C9A S1A 1_555 1_555
C11A C12A 1_555 1_555
C12A C18A 1_555 1_555
C13A C15A 1_555 1_555
C14A S2A 1_555 1_555
C16A C17A 1_555 1_555
C17A C18A 1_555 1_555
Cl1A O4A 1_555 1_555

#END
