
#######################################################################
#
#                 Cambridge Crystallographic Data Centre
#                                CCDC 
#
#######################################################################
#
# If this CIF has been generated from an entry in the Cambridge 
# Structural Database, then it will include bibliographic, chemical, 
# crystal, experimental, refinement or atomic coordinate data resulting 
# from the CCDC's data processing and validation procedures.
#
#######################################################################

data_VEFGOD
_symmetry_cell_setting           triclinic
_symmetry_space_group_name_H-M   'P -1'
_symmetry_Int_Tables_number      2
_space_group_name_Hall           '-P 1'
loop_
_symmetry_equiv_pos_site_id
_symmetry_equiv_pos_as_xyz
1 x,y,z
2 -x,-y,-z
_cell_length_a                   7.262(2)
_cell_length_b                   12.546(3)
_cell_length_c                   13.309(4)
_cell_angle_alpha                114.817(4)
_cell_angle_beta                 99.764(4)
_cell_angle_gamma                92.531(4)
_cell_volume                     1075.6
loop_
_atom_site_label
_atom_site_type_symbol
_atom_site_fract_x
_atom_site_fract_y
_atom_site_fract_z
Ag1 Ag 0.55950(15) 0.25762(10) 0.05206(11)
C1 C 0.9074(17) 0.3637(13) 0.1073(12)
H1 H 1.0119 0.3339 0.1405
C2 C 0.8849(16) 0.4885(11) 0.1571(11)
H2 H 0.9208 0.5422 0.2329
C3 C 0.7971(17) 0.5111(11) 0.0662(10)
C4 C 0.7322(17) 0.6123(11) 0.0574(10)
C5 C 0.7603(15) 0.7284(11) 0.1554(11)
C6 C 0.792(2) 0.7571(15) 0.2695(13)
H3 H 0.7947 0.7022 0.2996
C7 C 0.821(3) 0.8807(17) 0.3339(17)
C8 C 0.807(2) 0.9396(13) 0.2728(15)
H4 H 0.8174 1.0218 0.3036
C9 C 0.8396(18) 0.3136(11) -0.0061(12)
H5 H 0.9030 0.2523 -0.0568
C10 C 0.7687(16) 0.4017(11) -0.0370(11)
C11 C 0.6929(19) 0.4030(10) -0.1398(10)
C12 C 0.680(2) 0.3113(13) -0.2483(12)
C13 C 0.669(2) 0.3210(15) -0.3556(11)
H6 H 0.6685 0.3900 -0.3656
C14 C 0.659(3) 0.2061(17) -0.4389(14)
H7 H 0.6418 0.1903 -0.5149
C15 C 0.675(3) 0.1178(19) -0.4056(18)
H8 H 0.6769 0.0390 -0.4546
N1 N 0.6370(14) 0.5096(11) -0.1321(10)
H9 H 0.5871 0.5111 -0.1948
N2 N 0.6513(13) 0.6114(8) -0.0380(8)
S1 S 0.6890(7) 0.1658(4) -0.2700(5)
S2 S 0.7670(6) 0.8542(3) 0.1352(4)
H10 H 0.862(14) 0.917(10) 0.398(9)
C16 C 0.659(3) 0.0729(19) 0.0661(17)
H13 H 0.7683 0.1235 0.1117
C17 C 0.494(3) 0.075(2) 0.1086(19)
H14 H 0.4959 0.1270 0.1833
C18 C 0.657(3) -0.008(2) -0.0473(18)
H15 H 0.7656 -0.0116 -0.0767
Ag1A Ag 0.44050(15) 0.74238(10) -0.05206(11)
Ag1A_2 Ag 0.44050(15) -0.25762(10) -0.05206(11)
C1A C 0.0926(17) 0.6363(13) -0.1073(12)
H1A H -0.0119 0.6661 -0.1405
C2A C 0.1151(16) 0.5115(11) -0.1571(11)
H2A H 0.0792 0.4578 -0.2329
C3A C 0.2029(17) 0.4889(11) -0.0662(10)
C4A C 0.2678(17) 0.3877(11) -0.0574(10)
C5A C 0.2397(15) 0.2716(11) -0.1554(11)
C6A C 0.208(2) 0.2429(15) -0.2695(13)
H3A H 0.2053 0.2978 -0.2996
C7A C 0.179(3) 0.1193(17) -0.3339(17)
C8A C 0.193(2) 0.0604(13) -0.2728(15)
H4A H 0.1826 -0.0218 -0.3036
C9A C 0.1604(18) 0.6864(11) 0.0061(12)
H5A H 0.0970 0.7477 0.0568
C10A C 0.2313(16) 0.5983(11) 0.0370(11)
C11A C 0.3071(19) 0.5970(10) 0.1398(10)
C12A C 0.320(2) 0.6887(13) 0.2483(12)
C13A C 0.331(2) 0.6790(15) 0.3556(11)
H6A H 0.3315 0.6100 0.3656
C14A C 0.341(3) 0.7939(17) 0.4389(14)
H7A H 0.3582 0.8097 0.5149
C15A C 0.325(3) 0.8822(19) 0.4056(18)
H8A H 0.3231 0.9610 0.4546
N1A N 0.3630(14) 0.4904(11) 0.1321(10)
H9A H 0.4129 0.4889 0.1948
N2A N 0.3487(13) 0.3886(8) 0.0380(8)
S1A S 0.3110(7) 0.8342(4) 0.2700(5)
S2A S 0.2330(6) 0.1458(3) -0.1352(4)
H10A H 0.138(14) 0.083(10) -0.398(9)
C16A C 0.341(3) -0.0729(19) -0.0661(17)
C16A_2 C 0.341(3) 0.9271(19) -0.0661(17)
H13A H 0.2317 -0.1235 -0.1117
H13A_2 H 0.2317 0.8765 -0.1117
C17A C 0.506(3) -0.075(2) -0.1086(19)
C17A_2 C 0.506(3) 0.925(2) -0.1086(19)
H14A H 0.5041 -0.1270 -0.1833
H14A_2 H 0.5041 0.8730 -0.1833
C18A C 0.343(3) 0.008(2) 0.0473(18)
H15A H 0.2344 0.0116 0.0767
F2 F 0.820(4) 0.8423(19) 0.5847(19)
F3 F 0.817(2) 0.6169(13) 0.4509(9)
F5 F 0.840(4) 0.5819(19) 0.6365(18)
F6 F 0.599(3) 0.711(4) 0.613(3)
F8 F 0.928(4) 0.806(2) 0.7476(17)
F10 F 1.112(2) 0.731(2) 0.6148(19)
Sb1 Sb 0.86094(18) 0.70676(12) 0.60282(11)
O1 O 0.5643(18) 0.3968(14) 0.2716(11)
H11 H 0.503(15) 0.437(10) 0.327(7)
H12 H 0.47(2) 0.339(14) 0.244(17)
F1? F 0.906(7) 0.812(4) 0.551(4)
F4? F 0.943(7) 0.566(3) 0.615(3)
F7? F 0.611(6) 0.649(7) 0.574(5)
F9? F 0.840(7) 0.771(4) 0.758(3)
loop_
_geom_bond_atom_site_label_1
_geom_bond_atom_site_label_2
_geom_bond_site_symmetry_1
_geom_bond_site_symmetry_2
Ag1 C1 1_555 1_555
C1 H1 1_555 1_555
C2 C1 1_555 1_555
H2 C2 1_555 1_555
C3 C2 1_555 1_555
C4 C3 1_555 1_555
C5 C4 1_555 1_555
C6 C5 1_555 1_555
H3 C6 1_555 1_555
C7 C6 1_555 1_555
C8 C7 1_555 1_555
H4 C8 1_555 1_555
C9 Ag1 1_555 1_555
H5 C9 1_555 1_555
C10 C3 1_555 1_555
C11 C10 1_555 1_555
C12 C11 1_555 1_555
C13 C12 1_555 1_555
H6 C13 1_555 1_555
C14 C13 1_555 1_555
H7 C14 1_555 1_555
C15 C14 1_555 1_555
H8 C15 1_555 1_555
F2 Sb1 1_555 1_555
F3 Sb1 1_555 1_555
F5 Sb1 1_555 1_555
F6 Sb1 1_555 1_555
F8 Sb1 1_555 1_555
F10 Sb1 1_555 1_555
N1 C11 1_555 1_555
H9 N1 1_555 1_555
N2 C4 1_555 1_555
O1 H11 1_555 1_555
S1 C12 1_555 1_555
S2 C5 1_555 1_555
H10 C7 1_555 1_555
H12 O1 1_555 1_555
C16 Ag1 1_555 1_555
H13 C16 1_555 1_555
C17 Ag1 1_555 1_555
H14 C17 1_555 1_555
C18 C16 1_555 1_555
H15 C18 1_555 1_555
Ag1A N2 1_555 1_555
Ag1A_2 C16A 1_555 1_555
C1A Ag1A 1_555 1_555
H1A C1A 1_555 1_555
C2A C1A 1_555 1_555
H2A C2A 1_555 1_555
C3A C2A 1_555 1_555
C4A C3A 1_555 1_555
C5A C4A 1_555 1_555
C6A C5A 1_555 1_555
H3A C6A 1_555 1_555
C7A C6A 1_555 1_555
C8A C7A 1_555 1_555
H4A C8A 1_555 1_555
C9A Ag1A 1_555 1_555
H5A C9A 1_555 1_555
C10A C3A 1_555 1_555
C11A C10A 1_555 1_555
C12A C11A 1_555 1_555
C13A C12A 1_555 1_555
H6A C13A 1_555 1_555
C14A C13A 1_555 1_555
H7A C14A 1_555 1_555
C15A C14A 1_555 1_555
H8A C15A 1_555 1_555
N1A C11A 1_555 1_555
H9A N1A 1_555 1_555
N2A Ag1 1_555 1_555
S1A C12A 1_555 1_555
S2A Ag1 1_555 1_555
H10A C7A 1_555 1_555
C16A H13A 1_555 1_555
C16A_2 Ag1A 1_555 1_555
H13A_2 C16A_2 1_555 1_555
C17A C18 1_555 1_555
C17A_2 Ag1A 1_555 1_555
H14A C17A 1_555 1_555
H14A_2 C17A_2 1_555 1_555
C18A C17 1_555 1_555
H15A C18A 1_555 1_555
C1 C9 1_555 1_555
C8 S2 1_555 1_555
C9 C10 1_555 1_555
C15 S1 1_555 1_555
N1 N2 1_555 1_555
S2 Ag1A 1_555 1_555
C16 C17 1_555 1_555
Ag1A_2 C17A 1_555 1_555
C1A C9A 1_555 1_555
C4A N2A 1_555 1_555
C5A S2A 1_555 1_555
C8A S2A 1_555 1_555
C9A C10A 1_555 1_555
C15A S1A 1_555 1_555
N1A N2A 1_555 1_555
C16A C17A 1_555 1_555
C16A C18A 1_555 1_555
C16A_2 C17A_2 1_555 1_555

#END
