
#######################################################################
#
#                 Cambridge Crystallographic Data Centre
#                                CCDC 
#
#######################################################################
#
# If this CIF has been generated from an entry in the Cambridge 
# Structural Database, then it will include bibliographic, chemical, 
# crystal, experimental, refinement or atomic coordinate data resulting 
# from the CCDC's data processing and validation procedures.
#
#######################################################################

data_VEFHOE
_symmetry_cell_setting           monoclinic
_symmetry_space_group_name_H-M   'P 21/c'
_symmetry_Int_Tables_number      14
_space_group_name_Hall           '-P 2ybc'
loop_
_symmetry_equiv_pos_site_id
_symmetry_equiv_pos_as_xyz
1 x,y,z
2 -x,1/2+y,1/2-z
3 -x,-y,-z
4 x,1/2-y,1/2+z
_cell_length_a                   22.412(3)
_cell_length_b                   19.241(3)
_cell_length_c                   13.0265(18)
_cell_angle_alpha                90.00
_cell_angle_beta                 90.00
_cell_angle_gamma                90.00
_cell_volume                     5617.41
loop_
_atom_site_label
_atom_site_type_symbol
_atom_site_fract_x
_atom_site_fract_y
_atom_site_fract_z
Ag1 Ag 0.82601(5) 0.56111(5) 0.69178(7)
Ag2 Ag 0.67400(5) 0.43905(5) 1.19187(7)
N1 N 0.7810(3) 0.4451(3) 1.0378(6)
N2 N 0.7302(3) 0.4820(4) 1.0612(5)
N3 N 0.7694(3) 0.5180(4) 0.5607(5)
N4 N 0.7197(3) 0.5554(3) 0.5383(5)
C1 C 0.7357(4) 0.4276(4) 0.4532(7)
C2 C 0.7304(4) 0.3629(5) 0.4049(7)
H1 H 0.7580 0.3269 0.4081
C3 C 0.6769(5) 0.3617(5) 0.3513(8)
H2 H 0.6538 0.3185 0.3507
C4 C 0.6448(5) 0.4271(5) 0.3634(7)
H3 H 0.6021 0.4252 0.3789
C5 C 0.6826(4) 0.4676(4) 0.4295(6)
C6 C 0.6762(4) 0.5333(5) 0.4715(6)
C7 C 0.6257(4) 0.5781(5) 0.4517(7)
C8 C 0.6269(3) 0.6605(3) 0.4253(4)
H4 H 0.6589 0.6911 0.4214
C9 C 0.5628(7) 0.6731(8) 0.4094(11)
H5 H 0.5488 0.7171 0.3925
C10 C 0.5263(8) 0.6210(9) 0.4195(12)
H6 H 0.4853 0.6252 0.4101
C11 C 0.7164(4) 0.6211(5) 0.5909(7)
C12 C 0.6750(5) 0.6327(5) 0.6645(8)
H7 H 0.6481 0.5979 0.6822
C13 C 0.6729(6) 0.6962(7) 0.7131(9)
H8 H 0.6439 0.7046 0.7628
C14 C 0.7135(6) 0.7473(6) 0.6883(10)
H9 H 0.7123 0.7901 0.7213
C15 C 0.7553(6) 0.7346(5) 0.6154(9)
H10 H 0.7828 0.7691 0.5987
C16 C 0.7578(5) 0.6712(5) 0.5654(8)
H11 H 0.7867 0.6626 0.5158
C17 C 0.8240(5) 0.6384(5) 0.8508(8)
H12 H 0.8471 0.6816 0.8505
C18 C 0.8545(4) 0.5745(5) 0.8642(7)
H13 H 0.8973 0.5767 0.8790
C19 C 0.7777(4) 0.4567(4) 0.5201(6)
C20 C 0.8328(4) 0.4206(5) 0.5490(7)
C21 C 0.8767(3) 0.3881(4) 0.4723(7)
H14 H 0.8739 0.3845 0.4013
C22 C 0.9251(6) 0.3640(7) 0.5430(14)
H15 H 0.9583 0.3400 0.5190
C23 C 0.9181(6) 0.3786(7) 0.6423(12)
H16 H 0.9466 0.3677 0.6915
C24 C 0.5807(5) 0.6227(6) 1.1406(12)
H17 H 0.5517 0.6336 1.1890
C25 C 0.5750(5) 0.6374(7) 1.0424(13)
H18 H 0.5425 0.6625 1.0181
C26 C 0.6233(3) 0.6122(4) 0.9710(7)
H19 H 0.6260 0.6155 0.9000
C27 C 0.6671(4) 0.5793(5) 1.0491(8)
C28 C 0.7233(4) 0.5432(5) 1.0197(6)
C29 C 0.7644(4) 0.5733(5) 0.9530(6)
C30 C 0.7697(4) 0.6363(5) 0.9050(7)
H20 H 0.7418 0.6720 0.9078
C31 C 0.8182(4) 0.5309(4) 0.9302(6)
C32 C 0.8233(4) 0.4671(5) 0.9712(6)
C33 C 0.8743(4) 0.4215(5) 0.9507(7)
C34 C 0.8729(3) 0.3398(3) 0.9252(4)
H21 H 0.8408 0.3093 0.9206
C35 C 0.9410(7) 0.3263(8) 0.9102(11)
H22 H 0.9554 0.2823 0.8943
C36 C 0.9747(8) 0.3758(9) 0.9202(13)
H23 H 1.0158 0.3716 0.9123
C37 C 0.7834(4) 0.3791(5) 1.0907(7)
C38 C 0.8258(4) 0.3674(5) 1.1639(8)
H24 H 0.8529 0.4020 1.1811
C39 C 0.8279(6) 0.3037(6) 1.2119(9)
H25 H 0.8571 0.2947 1.2608
C40 C 0.7871(7) 0.2537(6) 1.1875(10)
H26 H 0.7882 0.2112 1.2214
C41 C 0.7453(6) 0.2648(6) 1.1152(10)
H27 H 0.7182 0.2299 1.0987
C42 C 0.7427(4) 0.3287(5) 1.0653(8)
H28 H 0.7139 0.3371 1.0155
S1 S 0.64297(16) 0.58358(19) 1.1699(3)
S2 S 0.9428(2) 0.4503(3) 0.9487(4)
S3 S 0.85700(16) 0.41614(18) 0.6700(3)
S4 S 0.55720(19) 0.5501(3) 0.4491(4)
Ag2_2 Ag 0.67400(5) 0.43905(5) 0.19187(7)
C3_2 C 0.6769(5) 0.3617(5) 1.3513(8)
H2_2 H 0.6538 0.3185 1.3507
C4_2 C 0.6448(5) 0.4271(5) 1.3634(7)
H3_2 H 0.6021 0.4252 1.3789
Sb1 Sb 0.36023(3) 0.59930(4) 0.23847(6)
F1 F 0.2841(5) 0.5850(8) 0.2783(14)
F2 F 0.3853(5) 0.5250(5) 0.3162(9)
F3 F 0.3538(7) 0.5503(7) 0.1198(9)
F4 F 0.3695(7) 0.6528(7) 0.3567(8)
F5 F 0.3366(6) 0.6798(7) 0.1718(10)
F6 F 0.4390(4) 0.6207(7) 0.2092(10)
Sb2 Sb 0.13973(3) 0.40065(4) 0.73848(6)
F7 F 0.2188(5) 0.4144(8) 0.7755(13)
F8 F 0.1637(6) 0.3196(7) 0.6719(10)
F9 F 0.1467(6) 0.4476(8) 0.6181(9)
F10 F 0.0613(4) 0.3852(6) 0.7067(10)
F11 F 0.1143(6) 0.4750(5) 0.8168(9)
F12 F 0.1313(6) 0.3475(7) 0.8556(9)
C43 C 0.5746(6) 0.3629(12) 0.0894(13)
H29 H 0.5984 0.3488 0.0348
C44 C 0.5535(8) 0.4301(10) 0.0938(16)
H30 H 0.5654 0.4628 0.0453
C45 C 0.5164(7) 0.4475(9) 0.1674(15)
H31 H 0.5011 0.4924 0.1672
C46 C 0.4994(6) 0.4058(10) 0.2410(16)
H32 H 0.4731 0.4197 0.2922
C47 C 0.5245(10) 0.3360(12) 0.2373(15)
C48 C 0.5614(6) 0.3207(9) 0.1599(16)
H33 H 0.5783 0.2766 0.1579
C49 C 0.5143(17) 0.303(2) 0.310(3)
H34 H 0.5055 0.2564 0.2899
H35 H 0.4806 0.3229 0.3448
H36 H 0.5484 0.3038 0.3544
C50 C 1.0012(6) 0.5927(11) 0.7396(16)
H37 H 1.0276 0.5772 0.7897
C51 C 0.9845(8) 0.5514(9) 0.6688(16)
H38 H 0.9987 0.5060 0.6691
C52 C 0.9481(8) 0.5707(10) 0.5955(17)
H39 H 0.9393 0.5387 0.5442
C53 C 0.9245(7) 0.6288(12) 0.5902(12)
H40 H 0.8967 0.6376 0.5387
C54 C 0.9388(7) 0.6820(9) 0.6608(17)
H41 H 0.9233 0.7267 0.6558
C55 C 0.9802(8) 0.6613(11) 0.7427(14)
C56 C 0.9952(13) 0.7070(16) 0.822(2)
H42 H 1.0147 0.6820 0.8756
H43 H 0.9596 0.7284 0.8478
H44 H 1.0215 0.7422 0.7955
loop_
_geom_bond_atom_site_label_1
_geom_bond_atom_site_label_2
_geom_bond_site_symmetry_1
_geom_bond_site_symmetry_2
Ag1 N3 1_555 1_555
Ag2 N2 1_555 1_555
Sb1 F1 1_555 1_555
Sb2 F7 1_555 1_555
N1 N2 1_555 1_555
N2 C28 1_555 1_555
N3 N4 1_555 1_555
N4 C6 1_555 1_555
C1 C2 1_555 1_555
C2 H1 1_555 1_555
C3 C2 1_555 1_555
H2 C3 1_555 1_555
C4 C3 1_555 1_555
H3 C4 1_555 1_555
C5 C1 1_555 1_555
C6 C5 1_555 1_555
C7 C6 1_555 1_555
C8 C7 1_555 1_555
H4 C8 1_555 1_555
C9 C8 1_555 1_555
H5 C9 1_555 1_555
C10 C9 1_555 1_555
H6 C10 1_555 1_555
C11 N4 1_555 1_555
C12 C11 1_555 1_555
H7 C12 1_555 1_555
C13 C12 1_555 1_555
H8 C13 1_555 1_555
C14 C13 1_555 1_555
H9 C14 1_555 1_555
C15 C14 1_555 1_555
H10 C15 1_555 1_555
C16 C11 1_555 1_555
H11 C16 1_555 1_555
C17 Ag1 1_555 1_555
H12 C17 1_555 1_555
C18 Ag1 1_555 1_555
H13 C18 1_555 1_555
C19 N3 1_555 1_555
C20 C19 1_555 1_555
C21 C20 1_555 1_555
H14 C21 1_555 1_555
C22 C21 1_555 1_555
H15 C22 1_555 1_555
C23 C22 1_555 1_555
H16 C23 1_555 1_555
C24 H17 1_555 1_555
C25 C24 1_555 1_555
H18 C25 1_555 1_555
C26 C25 1_555 1_555
H19 C26 1_555 1_555
C27 C26 1_555 1_555
C28 C27 1_555 1_555
C29 C28 1_555 1_555
C30 C17 1_555 1_555
H20 C30 1_555 1_555
C31 C18 1_555 1_555
C32 N1 1_555 1_555
C33 C32 1_555 1_555
C34 C33 1_555 1_555
H21 C34 1_555 1_555
C35 C34 1_555 1_555
H22 C35 1_555 1_555
C36 C35 1_555 1_555
H23 C36 1_555 1_555
C37 N1 1_555 1_555
C38 C37 1_555 1_555
H24 C38 1_555 1_555
C39 C38 1_555 1_555
H25 C39 1_555 1_555
C40 C39 1_555 1_555
H26 C40 1_555 1_555
C41 C40 1_555 1_555
H27 C41 1_555 1_555
C42 C37 1_555 1_555
H28 C42 1_555 1_555
C43 H29 1_555 1_555
C44 C43 1_555 1_555
H30 C44 1_555 1_555
C45 C44 1_555 1_555
H31 C45 1_555 1_555
C46 C45 1_555 1_555
H32 C46 1_555 1_555
C47 C46 1_555 1_555
C48 C43 1_555 1_555
H33 C48 1_555 1_555
C49 C47 1_555 1_555
H34 C49 1_555 1_555
H35 C49 1_555 1_555
H36 C49 1_555 1_555
C50 H37 1_555 1_555
C51 C50 1_555 1_555
H38 C51 1_555 1_555
C52 C51 1_555 1_555
H39 C52 1_555 1_555
C53 C52 1_555 1_555
H40 C53 1_555 1_555
C54 C53 1_555 1_555
H41 C54 1_555 1_555
C55 C50 1_555 1_555
C56 C55 1_555 1_555
H42 C56 1_555 1_555
H43 C56 1_555 1_555
H44 C56 1_555 1_555
S1 Ag2 1_555 1_555
S2 C33 1_555 1_555
S3 Ag1 1_555 1_555
S4 C7 1_555 1_555
F2 Sb1 1_555 1_555
F3 Sb1 1_555 1_555
F4 Sb1 1_555 1_555
F5 Sb1 1_555 1_555
F6 Sb1 1_555 1_555
F8 Sb2 1_555 1_555
F9 Sb2 1_555 1_555
F10 Sb2 1_555 1_555
F11 Sb2 1_555 1_555
F12 Sb2 1_555 1_555
Ag2_2 C3 1_555 1_555
C3_2 Ag2 1_555 1_555
H2_2 C3_2 1_555 1_555
C4_2 Ag2 1_555 1_555
H3_2 C4_2 1_555 1_555
C1 C19 1_555 1_555
C4 C5 1_555 1_555
C4 Ag2_2 1_555 1_555
C10 S4 1_555 1_555
C15 C16 1_555 1_555
C17 C18 1_555 1_555
C20 S3 1_555 1_555
C23 S3 1_555 1_555
C24 S1 1_555 1_555
C27 S1 1_555 1_555
C29 C30 1_555 1_555
C29 C31 1_555 1_555
C31 C32 1_555 1_555
C36 S2 1_555 1_555
C41 C42 1_555 1_555
C47 C48 1_555 1_555
C54 C55 1_555 1_555
C3_2 C4_2 1_555 1_555

#END
