
#######################################################################
#
#                 Cambridge Crystallographic Data Centre
#                                CCDC 
#
#######################################################################
#
# If this CIF has been generated from an entry in the Cambridge 
# Structural Database, then it will include bibliographic, chemical, 
# crystal, experimental, refinement or atomic coordinate data resulting 
# from the CCDC's data processing and validation procedures.
#
#######################################################################

data_VEFHIY
_symmetry_cell_setting           orthorhombic
_symmetry_space_group_name_H-M   'P b c a'
_symmetry_Int_Tables_number      61
_space_group_name_Hall           '-P 2ac 2ab'
loop_
_symmetry_equiv_pos_site_id
_symmetry_equiv_pos_as_xyz
1 x,y,z
2 1/2-x,-y,1/2+z
3 -x,1/2+y,1/2-z
4 1/2+x,1/2-y,-z
5 -x,-y,-z
6 1/2+x,y,1/2-z
7 x,1/2-y,1/2+z
8 1/2-x,1/2+y,z
_cell_length_a                   18.884(3)
_cell_length_b                   12.9143(18)
_cell_length_c                   22.152(3)
_cell_angle_alpha                90
_cell_angle_beta                 90
_cell_angle_gamma                90
_cell_volume                     5402.29
loop_
_atom_site_label
_atom_site_type_symbol
_atom_site_fract_x
_atom_site_fract_y
_atom_site_fract_z
C1 C 0.6330(9) 0.9138(10) 0.4223(5)
C19 C 0.6847(7) 0.8408(12) 0.4355(5)
H12 H 0.7293 0.8452 0.4177
H13 H 0.6423 0.9676 0.3954
C20 C 0.5717(9) 0.9066(12) 0.4483(7)
H14 H 0.5379 0.9568 0.4398
C21 C 0.5553(8) 0.8342(15) 0.4849(7)
H15 H 0.5094 0.8331 0.5001
C22 C 0.5989(10) 0.7616(13) 0.5023(5)
H16 H 0.5861 0.7119 0.5306
C23 C 0.6695(10) 0.7631(11) 0.4744(7)
C24 C 0.7069(19) 0.690(2) 0.4894(13)
H17 H 0.7422 0.6775 0.4590
H18 H 0.6781 0.6288 0.4939
H19 H 0.7296 0.7049 0.5272
Ag1 Ag 0.56469(4) 0.80582(5) 0.32635(3)
N1 N 0.5195(3) 0.9348(4) 0.2697(2)
N2 N 0.5564(3) 0.9595(4) 0.2181(2)
C2 C 0.3765(5) 0.8552(9) 0.4196(5)
H1 H 0.3630 0.8060 0.4480
C3 C 0.3632(6) 0.9575(10) 0.4268(4)
H2 H 0.3399 0.9834 0.4605
C4 C 0.3877(3) 1.0239(5) 0.3784(2)
H3 H 0.3842 1.0956 0.3753
C5 C 0.4203(4) 0.9489(6) 0.3340(3)
C6 C 0.4564(4) 0.9764(5) 0.2775(3)
C7 C 0.4256(3) 1.0430(5) 0.2346(3)
C8 C 0.3604(4) 1.0904(6) 0.2300(3)
H4 H 0.3243 1.0868 0.2584
C9 C 0.3578(4) 1.1441(6) 0.1761(4)
H5 H 0.3137 1.1434 0.1527
C10 C 0.4237(4) 1.1326(6) 0.1451(3)
H6 H 0.4219 1.1174 0.1018
C11 C 0.4662(3) 1.0665(5) 0.1820(3)
C12 C 0.5339(4) 1.0245(5) 0.1740(3)
C13 C 0.6234(4) 0.9063(6) 0.2159(3)
C14 C 0.6342(4) 0.8283(6) 0.1734(4)
H7 H 0.5990 0.8100 0.1461
C15 C 0.6994(5) 0.7792(7) 0.1733(4)
H8 H 0.7087 0.7286 0.1445
C16 C 0.7496(5) 0.8034(7) 0.2141(5)
H9 H 0.7925 0.7682 0.2135
C17 C 0.7384(4) 0.8784(7) 0.2561(4)
H10 H 0.7736 0.8935 0.2842
C18 C 0.6750(4) 0.9326(6) 0.2576(3)
H11 H 0.6674 0.9849 0.2857
S1 S 0.41707(15) 0.8249(2) 0.35863(13)
C29 C 0.5794(5) 1.0455(6) 0.1229(3)
C30 C 0.657(3) 1.058(4) 0.1232(19)
H23 H 0.6886 1.0487 0.1552
C31 C 0.6739(7) 1.0889(9) 0.0574(6)
H24 H 0.7178 1.1121 0.0441
C32 C 0.6176(9) 1.0784(10) 0.0225(5)
H25 H 0.6210 1.0845 -0.0192
S3 S 0.5461(10) 1.0557(14) 0.0536(6)
Ag1B Ag 0.43531(4) 1.30582(5) 0.17365(3)
C9B C 0.6422(4) 0.6441(6) 0.3239(4)
H5B H 0.6863 0.6434 0.3473
C10B C 0.5763(4) 0.6326(6) 0.3549(3)
H6B H 0.5781 0.6174 0.3982
F1 F 0.1418(6) 0.1715(9) 0.6337(6)
F2 F 0.0813(8) 0.2234(12) 0.7049(5)
F3 F 0.0317(5) 0.1995(8) 0.6177(6)
F4 F 0.0523(8) 0.3683(9) 0.6452(6)
F5 F 0.1602(7) 0.3261(9) 0.6633(6)
F6 F 0.1097(6) 0.2947(8) 0.5766(4)
P1 P 0.09285(14) 0.2676(2) 0.64307(12)
C25? C 0.5794(5) 1.0455(6) 0.1229(3)
C26? C 0.557(3) 1.052(5) 0.063(2)
H20? H 0.5109 1.0410 0.0498
C27? C 0.6176(9) 1.0784(10) 0.0225(5)
H21? H 0.6161 1.0861 -0.0192
C28? C 0.6739(7) 1.0889(9) 0.0574(6)
H22? H 0.7173 1.1090 0.0414
S2? S 0.6656(8) 1.0673(12) 0.1240(7)
loop_
_geom_bond_atom_site_label_1
_geom_bond_atom_site_label_2
_geom_bond_site_symmetry_1
_geom_bond_site_symmetry_2
C1 C19 1_555 1_555
Ag1 N1 1_555 1_555
N1 N2 1_555 1_555
N2 C12 1_555 1_555
C2 H1 1_555 1_555
C3 C2 1_555 1_555
H2 C3 1_555 1_555
C4 C3 1_555 1_555
H3 C4 1_555 1_555
C5 C4 1_555 1_555
C6 N1 1_555 1_555
C7 C6 1_555 1_555
C8 C7 1_555 1_555
H4 C8 1_555 1_555
C9 C8 1_555 1_555
H5 C9 1_555 1_555
C10 C9 1_555 1_555
H6 C10 1_555 1_555
C11 C7 1_555 1_555
C12 C11 1_555 1_555
C13 N2 1_555 1_555
C14 C13 1_555 1_555
H7 C14 1_555 1_555
C15 C14 1_555 1_555
H8 C15 1_555 1_555
C16 C15 1_555 1_555
H9 C16 1_555 1_555
C17 C16 1_555 1_555
H10 C17 1_555 1_555
C18 C13 1_555 1_555
H11 C18 1_555 1_555
C19 H12 1_555 1_555
H13 C1 1_555 1_555
C20 C1 1_555 1_555
H14 C20 1_555 1_555
C21 C20 1_555 1_555
H15 C21 1_555 1_555
C22 C21 1_555 1_555
H16 C22 1_555 1_555
C23 C19 1_555 1_555
C24 C23 1_555 1_555
H17 C24 1_555 1_555
H18 C24 1_555 1_555
H19 C24 1_555 1_555
F1 P1 1_555 1_555
F2 P1 1_555 1_555
F3 P1 1_555 1_555
F4 P1 1_555 1_555
F5 P1 1_555 1_555
F6 P1 1_555 1_555
S1 Ag1 1_555 1_555
C29 C12 1_555 1_555
C30 C29 1_555 1_555
H23 C30 1_555 1_555
C31 C30 1_555 1_555
H24 C31 1_555 1_555
C32 C31 1_555 1_555
H25 C32 1_555 1_555
S3 C29 1_555 1_555
Ag1B C9 1_555 1_555
C9B Ag1 1_555 1_555
H5B C9B 1_555 1_555
C10B Ag1 1_555 1_555
H6B C10B 1_555 1_555
C2 S1 1_555 1_555
C5 C6 1_555 1_555
C5 S1 1_555 1_555
C10 C11 1_555 1_555
C10 Ag1B 1_555 1_555
C17 C18 1_555 1_555
C22 C23 1_555 1_555
C32 S3 1_555 1_555
C9B C10B 1_555 1_555

#END
