
#######################################################################
#
#                 Cambridge Crystallographic Data Centre
#                                CCDC 
#
#######################################################################
#
# If this CIF has been generated from an entry in the Cambridge 
# Structural Database, then it will include bibliographic, chemical, 
# crystal, experimental, refinement or atomic coordinate data resulting 
# from the CCDC's data processing and validation procedures.
#
#######################################################################

data_VEFHAQ
_symmetry_cell_setting           triclinic
_symmetry_space_group_name_H-M   'P -1'
_symmetry_Int_Tables_number      2
_space_group_name_Hall           '-P 1'
loop_
_symmetry_equiv_pos_site_id
_symmetry_equiv_pos_as_xyz
1 x,y,z
2 -x,-y,-z
_cell_length_a                   7.228(3)
_cell_length_b                   10.800(4)
_cell_length_c                   13.795(5)
_cell_angle_alpha                112.361(5)
_cell_angle_beta                 101.523(5)
_cell_angle_gamma                93.377(5)
_cell_volume                     964.949
loop_
_atom_site_label
_atom_site_type_symbol
_atom_site_fract_x
_atom_site_fract_y
_atom_site_fract_z
Ag1 Ag 0.50993(5) 0.66622(3) -0.01932(3)
N1 N 0.3266(5) 0.9438(3) 0.1019(3)
H1 H 0.3653 0.9206 0.1548
N2 N 0.3081(5) 0.8482(3) 0.0016(3)
C1 C 0.1599(8) 0.5418(6) -0.3327(4)
H2 H 0.1411 0.4497 -0.3762
C2 C 0.1674(9) 0.6386(6) -0.3697(4)
H3 H 0.1515 0.6207 -0.4426
C3 C 0.2018(7) 0.7713(5) -0.2882(4)
H4 H 0.2123 0.8498 -0.3008
C4 C 0.2178(6) 0.7693(4) -0.1871(4)
C5 C 0.2496(6) 0.8809(4) -0.0814(3)
C6 C 0.2148(6) 1.0134(4) -0.0658(4)
C7 C 0.1529(7) 1.0769(5) -0.1354(4)
H5 H 0.1256 1.0370 -0.2104
C8 C 0.1395(7) 1.2099(5) -0.0725(5)
H6 H 0.0421 1.2563 -0.0991
C9 C 0.1917(6) 1.2358(5) 0.0382(4)
H7 H 0.1213 1.2926 0.0878
C10 C 0.2386(6) 1.1124(4) 0.0436(4)
C11 C 0.2909(6) 1.0706(4) 0.1274(4)
C12 C 0.3074(6) 1.1522(4) 0.2418(4)
C13 C 0.3080(7) 1.1048(4) 0.3262(3)
H8 H 0.2950 1.0148 0.3176
C14 C 0.3320(11) 1.2187(7) 0.4244(5)
H9 H 0.3426 1.2111 0.4902
C15 C 0.3381(9) 1.3373(7) 0.4161(5)
H10 H 0.3499 1.4196 0.4746
O1 O 0.3988(7) 0.8009(4) 0.2287(3)
O2 O 0.4830(11) 0.6315(5) 0.2927(4)
H14 H 0.4768 0.5495 0.2753
O3 O 0.1896(9) 0.6021(6) 0.1932(6)
H15 H 0.1820 0.5201 0.1757
O4 O 0.4449(8) 0.5725(4) 0.1034(4)
P1 P 0.3874(3) 0.65855(14) 0.19839(12)
S1 S 0.1886(2) 0.60598(13) -0.19660(11)
S2 S 0.3228(2) 1.32372(14) 0.29111(14)
Ag1A Ag 0.49007(5) 1.33378(3) 0.01932(3)
Ag1A_2 Ag 0.49007(5) 0.33378(3) 0.01932(3)
N1A N 0.6734(5) 1.0562(3) -0.1019(3)
H1A H 0.6347 1.0794 -0.1548
N2A N 0.6919(5) 1.1518(3) -0.0016(3)
C1A C 0.8401(8) 1.4582(6) 0.3327(4)
H2A H 0.8589 1.5503 0.3762
C2A C 0.8326(9) 1.3614(6) 0.3697(4)
H3A H 0.8485 1.3793 0.4426
C3A C 0.7982(7) 1.2287(5) 0.2882(4)
H4A H 0.7877 1.1502 0.3008
C4A C 0.7822(6) 1.2307(4) 0.1871(4)
C5A C 0.7504(6) 1.1191(4) 0.0814(3)
C6A C 0.7852(6) 0.9866(4) 0.0658(4)
C7A C 0.8471(7) 0.9231(5) 0.1354(4)
H5A H 0.8744 0.9630 0.2104
C8A C 0.8605(7) 0.7901(5) 0.0725(5)
H6A H 0.9579 0.7437 0.0991
C9A C 0.8083(6) 0.7642(5) -0.0382(4)
H7A H 0.8787 0.7074 -0.0878
C10A C 0.7614(6) 0.8876(4) -0.0436(4)
C11A C 0.7091(6) 0.9294(4) -0.1274(4)
C12A C 0.6926(6) 0.8478(4) -0.2418(4)
C13A C 0.6920(7) 0.8952(4) -0.3262(3)
H8A H 0.7050 0.9852 -0.3176
C14A C 0.6680(11) 0.7813(7) -0.4244(5)
H9A H 0.6574 0.7889 -0.4902
C15A C 0.6619(9) 0.6627(7) -0.4161(5)
H10A H 0.6501 0.5804 -0.4746
O1A O 0.6012(7) 0.1991(4) -0.2287(3)
O2A O 0.5170(11) 0.3685(5) -0.2927(4)
H14A H 0.5232 0.4505 -0.2753
O3A O 0.8104(9) 0.3979(6) -0.1932(6)
H15A H 0.8180 0.4799 -0.1757
O4A O 0.5551(8) 0.4275(4) -0.1034(4)
O4_2 O 0.4449(8) 1.5725(4) 0.1034(4)
O4A_2 O 0.5551(8) 1.4275(4) -0.1034(4)
P1A P 0.6126(3) 0.34145(14) -0.19839(12)
S1A S 0.8114(2) 1.39402(13) 0.19660(11)
S2A S 0.6772(2) 0.67628(14) -0.29111(14)
C16 C -0.164(3) 0.974(3) 0.432(2)
H11 H -0.2805 0.9559 0.3817
C17 C -0.036(5) 0.887(2) 0.4028(16)
H12 H -0.0655 0.8110 0.3377
C18 C -0.139(4) 1.084(3) 0.525(2)
H13 H -0.2345 1.1379 0.5397
C16A C 0.164(3) 1.026(3) 0.568(2)
H11A H 0.2805 1.0441 0.6183
C17A C 0.036(5) 1.113(2) 0.5972(16)
H12A H 0.0655 1.1890 0.6623
C18A C 0.139(4) 0.916(3) 0.475(2)
H13A H 0.2345 0.8621 0.4603
loop_
_geom_bond_atom_site_label_1
_geom_bond_atom_site_label_2
_geom_bond_site_symmetry_1
_geom_bond_site_symmetry_2
Ag1 N2 1_555 1_555
N1 H1 1_555 1_555
N2 N1 1_555 1_555
C1 H2 1_555 1_555
C2 C1 1_555 1_555
H3 C2 1_555 1_555
C3 C2 1_555 1_555
H4 C3 1_555 1_555
C4 C3 1_555 1_555
C5 N2 1_555 1_555
C6 C5 1_555 1_555
C7 C6 1_555 1_555
H5 C7 1_555 1_555
C8 C7 1_555 1_555
H6 C8 1_555 1_555
C9 C8 1_555 1_555
H7 C9 1_555 1_555
C10 C6 1_555 1_555
C11 N1 1_555 1_555
C12 C11 1_555 1_555
C13 C12 1_555 1_555
H8 C13 1_555 1_555
C14 C13 1_555 1_555
H9 C14 1_555 1_555
C15 C14 1_555 1_555
H10 C15 1_555 1_555
C16 H11 1_555 1_555
C17 C16 1_555 1_555
H12 C17 1_555 1_555
C18 C16 1_555 1_555
H13 C18 1_555 1_555
O1 P1 1_555 1_555
O2 H14 1_555 1_555
O3 H15 1_555 1_555
O4 Ag1 1_555 1_555
P1 O2 1_555 1_555
S1 Ag1 1_555 1_555
S2 C12 1_555 1_555
Ag1A C8 1_555 1_555
Ag1A_2 O4 1_555 1_555
N1A H1A 1_555 1_555
N2A Ag1A 1_555 1_555
C1A H2A 1_555 1_555
C2A C1A 1_555 1_555
H3A C2A 1_555 1_555
C3A C2A 1_555 1_555
H4A C3A 1_555 1_555
C4A C3A 1_555 1_555
C5A N2A 1_555 1_555
C6A C5A 1_555 1_555
C7A C6A 1_555 1_555
H5A C7A 1_555 1_555
C8A Ag1 1_555 1_555
H6A C8A 1_555 1_555
C9A Ag1 1_555 1_555
H7A C9A 1_555 1_555
C10A C6A 1_555 1_555
C11A N1A 1_555 1_555
C12A C11A 1_555 1_555
C13A C12A 1_555 1_555
H8A C13A 1_555 1_555
C14A C13A 1_555 1_555
H9A C14A 1_555 1_555
C15A C14A 1_555 1_555
H10A C15A 1_555 1_555
C16A H11A 1_555 1_555
C17A C18 1_555 1_555
H12A C17A 1_555 1_555
C18A C17 1_555 1_555
H13A C18A 1_555 1_555
O1A P1A 1_555 1_555
O2A H14A 1_555 1_555
O3A H15A 1_555 1_555
O4A Ag1 1_555 1_555
O4_2 Ag1A 1_555 1_555
O4A_2 Ag1A 1_555 1_555
P1A O2A 1_555 1_555
S1A Ag1A 1_555 1_555
S2A C12A 1_555 1_555
C1 S1 1_555 1_555
C4 C5 1_555 1_555
C4 S1 1_555 1_555
C9 C10 1_555 1_555
C9 Ag1A 1_555 1_555
C10 C11 1_555 1_555
C15 S2 1_555 1_555
O3 P1 1_555 1_555
O4 P1 1_555 1_555
Ag1A_2 O4A 1_555 1_555
N1A N2A 1_555 1_555
C1A S1A 1_555 1_555
C4A C5A 1_555 1_555
C4A S1A 1_555 1_555
C7A C8A 1_555 1_555
C8A C9A 1_555 1_555
C9A C10A 1_555 1_555
C10A C11A 1_555 1_555
C15A S2A 1_555 1_555
C16A C17A 1_555 1_555
C16A C18A 1_555 1_555
O3A P1A 1_555 1_555
O4A P1A 1_555 1_555

#END
