
#######################################################################
#
#                 Cambridge Crystallographic Data Centre
#                                CCDC 
#
#######################################################################
#
# If this CIF has been generated from an entry in the Cambridge 
# Structural Database, then it will include bibliographic, chemical, 
# crystal, experimental, refinement or atomic coordinate data resulting 
# from the CCDC's data processing and validation procedures.
#
#######################################################################

data_VEFJEW
_symmetry_cell_setting           monoclinic
_symmetry_space_group_name_H-M   'C 2/c'
_symmetry_Int_Tables_number      15
_space_group_name_Hall           '-C 2yn'
loop_
_symmetry_equiv_pos_site_id
_symmetry_equiv_pos_as_xyz
1 x,y,z
2 1/2+x,1/2+y,z
3 -x,y,1/2-z
4 1/2-x,1/2+y,1/2-z
5 -x,-y,-z
6 1/2-x,1/2-y,-z
7 x,-y,1/2+z
8 1/2+x,1/2-y,1/2+z
_cell_length_a                   23.755(2)
_cell_length_b                   13.5252(12)
_cell_length_c                   18.0666(17)
_cell_angle_alpha                90
_cell_angle_beta                 108.540(2)
_cell_angle_gamma                90
_cell_volume                     5503.39
loop_
_atom_site_label
_atom_site_type_symbol
_atom_site_fract_x
_atom_site_fract_y
_atom_site_fract_z
Ag1 Ag 0.26415(3) 0.60259(4) 0.26180(4)
N1 N 0.0658(4) 0.3883(6) -0.0758(6)
N2 N 0.3090(2) 0.4566(3) 0.2559(3)
N3 N 0.3436(2) 0.4145(3) 0.3249(3)
C1 C 0.3360(3) 0.2572(4) 0.2700(4)
C2 C 0.3387(3) 0.1526(4) 0.2584(5)
H1 H 0.3720 0.1132 0.2911
C3 C 0.3155(3) 0.1359(4) 0.1790(5)
H2 H 0.3310 0.0832 0.1537
C4 C 0.2935(3) 0.2243(4) 0.1396(4)
H3 H 0.2746 0.2315 0.0862
C5 C 0.3052(3) 0.2981(4) 0.1945(4)
C6 C 0.2907(3) 0.3991(4) 0.1921(4)
C7 C 0.2533(3) 0.4513(4) 0.1213(4)
C8 C 0.2011(3) 0.4117(4) 0.0755(4)
H4 H 0.1888 0.3503 0.0880
C9 C 0.1663(3) 0.4624(5) 0.0107(4)
C10 C 0.1098(4) 0.4216(6) -0.0365(6)
C11 C 0.1843(3) 0.5521(5) -0.0089(4)
H5 H 0.1609 0.5856 -0.0529
C12 C 0.2364(4) 0.5917(5) 0.0359(5)
H6 H 0.2487 0.6524 0.0224
C13 C 0.2707(3) 0.5439(4) 0.0999(4)
H7 H 0.3062 0.5723 0.1303
C14 C 0.3666(3) 0.4888(4) 0.3846(4)
C15 C 0.3296(3) 0.5264(5) 0.4237(4)
H8 H 0.2913 0.5022 0.4139
C16 C 0.3515(4) 0.6011(6) 0.4779(5)
H9 H 0.3277 0.6271 0.5053
C17 C 0.4079(5) 0.6369(6) 0.4915(5)
H10 H 0.4217 0.6887 0.5265
C18 C 0.4446(4) 0.5957(6) 0.4528(6)
H11 H 0.4834 0.6180 0.4637
C19 C 0.4233(3) 0.5220(5) 0.3986(4)
H12 H 0.4473 0.4951 0.3718
C20 C 0.3563(2) 0.3181(4) 0.3350(4)
C21 C 0.3916(3) 0.2797(4) 0.4122(4)
C22 C 0.4381(3) 0.2103(4) 0.4228(4)
H13 H 0.4524 0.1861 0.3840
C23 C 0.4597(3) 0.1831(5) 0.5055(5)
H14 H 0.4909 0.1390 0.5259
C24 C 0.4312(3) 0.2267(5) 0.5491(4)
H15 H 0.4401 0.2156 0.6024
C25 C 0.4033(4) 0.8592(6) 0.2691(6)
O1 O 0.3458(3) 0.7489(4) 0.1564(3)
O2 O 0.2952(3) 0.8886(4) 0.1888(4)
O3 O 0.3184(2) 0.7489(4) 0.2742(3)
F1 F 0.4439(2) 0.7949(5) 0.2949(4)
F2 F 0.4207(2) 0.9204(4) 0.2228(4)
F3 F 0.3986(3) 0.9153(4) 0.3272(4)
S1 S 0.37696(10) 0.30459(15) 0.49749(12)
S2 S 0.33247(9) 0.80594(13) 0.21517(12)
Ag1C Ag 0.23585(3) 0.10259(4) 0.23820(4)
C2C C 0.1613(3) 0.6526(4) 0.2416(5)
H1C H 0.1280 0.6132 0.2089
C3C C 0.1845(3) 0.6359(4) 0.3210(5)
H2C H 0.1690 0.5832 0.3463
loop_
_geom_bond_atom_site_label_1
_geom_bond_atom_site_label_2
_geom_bond_site_symmetry_1
_geom_bond_site_symmetry_2
Ag1 N2 1_555 1_555
N1 C10 1_555 1_555
N2 N3 1_555 1_555
N3 C14 1_555 1_555
C1 C2 1_555 1_555
C2 H1 1_555 1_555
C3 C2 1_555 1_555
H2 C3 1_555 1_555
C4 C3 1_555 1_555
H3 C4 1_555 1_555
C5 C1 1_555 1_555
C6 N2 1_555 1_555
C7 C6 1_555 1_555
C8 C7 1_555 1_555
H4 C8 1_555 1_555
C9 C8 1_555 1_555
C10 C9 1_555 1_555
C11 C9 1_555 1_555
H5 C11 1_555 1_555
C12 C11 1_555 1_555
H6 C12 1_555 1_555
C13 C7 1_555 1_555
H7 C13 1_555 1_555
C14 C15 1_555 1_555
C15 H8 1_555 1_555
C16 C15 1_555 1_555
H9 C16 1_555 1_555
C17 C16 1_555 1_555
H10 C17 1_555 1_555
C18 C17 1_555 1_555
H11 C18 1_555 1_555
C19 C14 1_555 1_555
H12 C19 1_555 1_555
C20 N3 1_555 1_555
C21 C20 1_555 1_555
C22 C21 1_555 1_555
H13 C22 1_555 1_555
C23 C22 1_555 1_555
H14 C23 1_555 1_555
C24 C23 1_555 1_555
H15 C24 1_555 1_555
C25 F1 1_555 1_555
O1 S2 1_555 1_555
O2 S2 1_555 1_555
O3 Ag1 1_555 1_555
F2 C25 1_555 1_555
F3 C25 1_555 1_555
S1 C21 1_555 1_555
S2 C25 1_555 1_555
Ag1C C2 1_555 1_555
C2C Ag1 1_555 1_555
H1C C2C 1_555 1_555
C3C Ag1 1_555 1_555
H2C C3C 1_555 1_555
C1 C20 1_555 1_555
C3 Ag1C 1_555 1_555
C4 C5 1_555 1_555
C5 C6 1_555 1_555
C12 C13 1_555 1_555
C18 C19 1_555 1_555
C24 S1 1_555 1_555
O3 S2 1_555 1_555
C2C C3C 1_555 1_555

#END
