
#######################################################################
#
#                 Cambridge Crystallographic Data Centre
#                                CCDC 
#
#######################################################################
#
# If this CIF has been generated from an entry in the Cambridge 
# Structural Database, then it will include bibliographic, chemical, 
# crystal, experimental, refinement or atomic coordinate data resulting 
# from the CCDC's data processing and validation procedures.
#
#######################################################################

data_VEFJIA
_symmetry_cell_setting           triclinic
_symmetry_space_group_name_H-M   'P -1'
_symmetry_Int_Tables_number      2
_space_group_name_Hall           '-P 1'
loop_
_symmetry_equiv_pos_site_id
_symmetry_equiv_pos_as_xyz
1 x,y,z
2 -x,-y,-z
_cell_length_a                   12.5677(10)
_cell_length_b                   13.8217(12)
_cell_length_c                   15.4528(13)
_cell_angle_alpha                80.297(2)
_cell_angle_beta                 66.647(2)
_cell_angle_gamma                83.489(2)
_cell_volume                     2425.89
loop_
_atom_site_label
_atom_site_type_symbol
_atom_site_fract_x
_atom_site_fract_y
_atom_site_fract_z
Ag1 Ag -0.86202(8) -0.20360(11) -0.06176(9)
Ag2 Ag -0.26817(8) -0.38064(9) -0.39726(8)
N1 N 0.4120(7) -0.1989(6) -0.1608(6)
N2 N 0.3174(7) -0.2175(7) -0.1785(6)
N3 N -0.1259(9) -0.3671(9) -0.3376(8)
N4 N 0.9765(9) -0.1862(9) -0.0918(8)
C1 C 0.5426(9) -0.2166(8) -0.3161(8)
C2 C 0.6436(10) -0.2200(9) -0.3994(8)
H1 H 0.6954 -0.1659 -0.4162
C3 C 0.6076(10) -0.2361(10) -0.4689(9)
H2 H 0.6562 -0.2397 -0.5320
C4 C 0.4868(11) -0.2463(9) -0.4310(9)
H3 H 0.4434 -0.2593 -0.4641
C5 C 0.4452(9) -0.2340(8) -0.3386(7)
C6 C 0.3350(9) -0.2374(8) -0.2653(8)
C7 C 0.2308(9) -0.2629(9) -0.2794(8)
C8 C 0.1889(10) -0.2022(10) -0.3398(9)
H4 H 0.2240 -0.1436 -0.3711
C9 C 0.0955(10) -0.2276(10) -0.3542(8)
H5 H 0.0650 -0.1853 -0.3932
C10 C 0.0471(10) -0.3170(10) -0.3101(9)
C11 C -0.0515(10) -0.3427(10) -0.3274(8)
C12 C 0.0882(10) -0.3783(10) -0.2480(9)
H6 H 0.0540 -0.4374 -0.2173
C13 C 0.1813(10) -0.3501(10) -0.2324(8)
H7 H 0.2096 -0.3900 -0.1907
C14 C 0.3795(9) -0.1668(10) -0.0668(9)
C15 C 0.3399(9) -0.2290(10) 0.0109(9)
H8 H 0.3306 -0.2936 0.0064
C16 C 0.3122(11) -0.2020(12) 0.0974(11)
H9 H 0.2809 -0.2464 0.1523
C17 C 0.3310(12) -0.1075(14) 0.1032(11)
H10 H 0.3142 -0.0882 0.1622
C18 C 0.3747(10) -0.0415(12) 0.0215(12)
H11 H 0.3874 0.0224 0.0252
C19 C 0.3990(9) -0.0704(11) -0.0646(10)
H12 H 0.4279 -0.0269 -0.1204
C20 C 0.5222(9) -0.2008(8) -0.2262(8)
C21 C 0.6175(8) -0.1931(8) -0.1939(8)
C22 C 0.6254(9) -0.2588(9) -0.1193(8)
H13 H 0.5701 -0.3056 -0.0879
C23 C 0.7180(10) -0.2548(10) -0.0906(9)
H14 H 0.7235 -0.2970 -0.0388
C24 C 0.8007(9) -0.1864(10) -0.1417(9)
C25 C 0.8988(10) -0.1869(10) -0.1133(9)
C26 C 0.79452(6) -0.12205(5) -0.21586(5)
H15 H 0.8508 -0.0763 -0.2480
C27 C 0.70270(6) -0.12562(5) -0.24306(5)
H16 H 0.6978 -0.0825 -0.2947
C28 C -0.15920(6) -0.50793(5) -0.49846(5)
H17 H -0.0798 -0.5247 -0.5021
C29 C -0.23668(6) -0.57978(5) -0.45281(5)
H18 H -0.2279 -0.6255 -0.4042
C30 C -0.32718(6) -0.58326(5) -0.47980(5)
H19 H -0.3819 -0.6303 -0.4477
C31 C -0.33849(6) -0.51887(5) -0.55303(5)
H20 H -0.3994 -0.5236 -0.5716
C32 C -0.26031(6) -0.44683(5) -0.59978(5)
H21 H -0.2683 -0.4020 -0.6492
C33 C -0.16981(6) -0.44286(5) -0.57151(5)
H22 H -0.0997 -0.4115 -0.6180
Sb1 Sb -0.51390(6) -0.52882(5) -0.17823(5)
F1 F -0.37758(6) -0.46654(5) -0.21745(5)
F2 F -0.59088(6) -0.41425(5) -0.12848(5)
F3 F -0.65276(6) -0.58588(5) -0.14127(5)
F4 F -0.50533(6) -0.57931(5) -0.06425(5)
F5 F -0.43521(6) -0.63562(5) -0.22822(5)
F6 F -0.51879(6) -0.47400(5) -0.29241(5)
Ag1_2 Ag 0.13798(8) -0.20360(11) -0.06176(9)
Ag1_3 Ag 1.13798(8) -0.20360(11) -0.06176(9)
Ag2_2 Ag -1.26817(8) -0.38064(9) -0.39726(8)
Ag2_3 Ag 0.73183(8) -0.38064(9) -0.39726(8)
N1_2 N -0.5880(7) -0.1989(6) -0.1608(6)
N2_2 N -0.6826(7) -0.2175(7) -0.1785(6)
N3_2 N -1.1259(9) -0.3671(9) -0.3376(8)
N4_2 N -0.0235(9) -0.1862(9) -0.0918(8)
N4_3 N -1.0235(9) -0.1862(9) -0.0918(8)
C1_2 C -0.4574(9) -0.2166(8) -0.3161(8)
C2_2 C -0.3564(10) -0.2200(9) -0.3994(8)
C2_3 C -1.3564(10) -0.2200(9) -0.3994(8)
H1_2 H -0.3046 -0.1659 -0.4162
H1_3 H -1.3046 -0.1659 -0.4162
C3_2 C -0.3924(10) -0.2361(10) -0.4689(9)
C3_3 C -1.3924(10) -0.2361(10) -0.4689(9)
H2_2 H -0.3438 -0.2397 -0.5320
H2_3 H -1.3438 -0.2397 -0.5320
C4_2 C -0.5132(11) -0.2463(9) -0.4310(9)
H3_2 H -0.5566 -0.2593 -0.4641
C5_2 C -0.5548(9) -0.2340(8) -0.3386(7)
C6_2 C -0.6650(9) -0.2374(8) -0.2653(8)
C7_2 C -0.7692(9) -0.2629(9) -0.2794(8)
C8_2 C -0.8111(10) -0.2022(10) -0.3398(9)
H4_2 H -0.7760 -0.1436 -0.3711
C9_2 C -0.9045(10) -0.2276(10) -0.3542(8)
H5_2 H -0.9350 -0.1853 -0.3932
C10_2 C -0.9529(10) -0.3170(10) -0.3101(9)
C11_2 C -1.0515(10) -0.3427(10) -0.3274(8)
C12_2 C -0.9118(10) -0.3783(10) -0.2480(9)
H6_2 H -0.9460 -0.4374 -0.2173
C13_2 C -0.8187(10) -0.3501(10) -0.2324(8)
H7_2 H -0.7904 -0.3900 -0.1907
C14_2 C -0.6205(9) -0.1668(10) -0.0668(9)
C15_2 C -0.6601(9) -0.2290(10) 0.0109(9)
H8_2 H -0.6694 -0.2936 0.0064
C16_2 C -0.6878(11) -0.2020(12) 0.0974(11)
H9_2 H -0.7191 -0.2464 0.1523
C17_2 C -0.6690(12) -0.1075(14) 0.1032(11)
H10_2 H -0.6858 -0.0882 0.1622
C18_2 C -0.6253(10) -0.0415(12) 0.0215(12)
H11_2 H -0.6126 0.0224 0.0252
C19_2 C -0.6010(9) -0.0704(11) -0.0646(10)
H12_2 H -0.5721 -0.0269 -0.1204
C20_2 C -0.4778(9) -0.2008(8) -0.2262(8)
C21_2 C -0.3825(8) -0.1931(8) -0.1939(8)
C22_2 C -0.3746(9) -0.2588(9) -0.1193(8)
H13_2 H -0.4299 -0.3056 -0.0879
C23_2 C -0.2820(10) -0.2548(10) -0.0906(9)
H14_2 H -0.2765 -0.2970 -0.0388
C24_2 C -0.1993(9) -0.1864(10) -0.1417(9)
C25_2 C -0.1012(10) -0.1869(10) -0.1133(9)
C26_2 C -0.20548(6) -0.12205(5) -0.21586(5)
H15_2 H -0.1492 -0.0763 -0.2480
C27_2 C -0.29730(6) -0.12562(5) -0.24306(5)
H16_2 H -0.3022 -0.0825 -0.2947
C28_2 C -1.15920(6) -0.50793(5) -0.49846(5)
H17_2 H -1.0798 -0.5247 -0.5021
C29_2 C -1.23668(6) -0.57978(5) -0.45281(5)
H18_2 H -1.2279 -0.6255 -0.4042
C30_2 C -1.32718(6) -0.58326(5) -0.47980(5)
H19_2 H -1.3819 -0.6303 -0.4477
C31_2 C -1.33849(6) -0.51887(5) -0.55303(5)
H20_2 H -1.3994 -0.5236 -0.5716
C32_2 C -1.26031(6) -0.44683(5) -0.59978(5)
H21_2 H -1.2683 -0.4020 -0.6492
C33_2 C -1.16981(6) -0.44286(5) -0.57151(5)
H22_2 H -1.0997 -0.4115 -0.6180
Sb1_2 Sb -1.51390(6) -0.52882(5) -0.17823(5)
F1_2 F -1.37758(6) -0.46654(5) -0.21745(5)
F2_2 F -1.59088(6) -0.41425(5) -0.12848(5)
F3_2 F -1.65276(6) -0.58588(5) -0.14127(5)
F4_2 F -1.50533(6) -0.57931(5) -0.06425(5)
F5_2 F -1.43521(6) -0.63562(5) -0.22822(5)
F6_2 F -1.51879(6) -0.47400(5) -0.29241(5)
C34 C 0.12912(6) -0.40220(5) -0.82526(5)
H23 H 0.1594 -0.4056 -0.7787
C35 C 0.17632(6) -0.46084(5) -0.89530(5)
H24 H 0.2374 -0.5057 -0.8955
C36 C 0.13381(6) -0.45380(5) -0.96540(5)
H25 H 0.1663 -0.4923 -1.0144
C37 C 0.04300(6) -0.38902(5) -0.96122(5)
H26 H 0.0145 -0.3826 -1.0091
C38 C -0.00784(6) -0.33311(5) -0.88965(5)
H27 H -0.0728 -0.2921 -0.8870
C39 C 0.03559(6) -0.33732(5) -0.82369(5)
H28 H 0.0035 -0.2968 -0.7763
C40 C 0.11974(6) 0.00420(5) -1.05273(5)
H29 H 0.1990 0.0064 -1.0887
C41 C 0.08016(6) -0.04152(5) -0.96433(5)
H30 H 0.1326 -0.0697 -0.9373
C42 C 0.04021(6) 0.04841(5) -1.08985(5)
H31 H 0.0659 0.0830 -1.1509
C40A C -0.11974(6) -0.00420(5) -0.94727(5)
H29A H -0.1990 -0.0064 -0.9113
C41A C -0.08016(6) 0.04152(5) -1.03567(5)
H30A H -0.1326 0.0697 -1.0627
C42A C -0.04021(6) -0.04841(5) -0.91015(5)
H31A H -0.0659 -0.0830 -0.8491
C43 C 0.41200(6) -0.84542(5) -0.26594(5)
H32 H 0.3606 -0.8076 -0.2209
C44 C 0.52742(6) -0.83674(5) -0.29705(5)
H33 H 0.5545 -0.7922 -0.2726
C45 C 0.60573(6) -0.89043(5) -0.36257(5)
H34 H 0.6849 -0.8829 -0.3828
C46 C 0.56453(6) -0.95730(5) -0.39884(5)
H35 H 0.6158 -0.9945 -0.4446
C47 C 0.44881(6) -0.96704(5) -0.36624(5)
H36 H 0.4218 -1.0134 -0.3887
C48 C 0.37085(6) -0.91227(5) -0.30247(5)
H37 H 0.2916 -0.9188 -0.2833
Sb2 Sb 0.01417(6) -0.86847(5) -0.38633(5)
F7 F 0.12258(6) -0.80975(5) -0.36561(5)
F8 F -0.07436(6) -0.75776(5) -0.36509(5)
F9 F -0.05356(6) -0.89352(5) -0.26437(5)
F10 F -0.09914(6) -0.92302(5) -0.40090(5)
F11 F 0.09556(6) -0.97185(5) -0.39541(5)
F12 F 0.07471(6) -0.83385(5) -0.51083(5)
loop_
_geom_bond_atom_site_label_1
_geom_bond_atom_site_label_2
_geom_bond_site_symmetry_1
_geom_bond_site_symmetry_2
Ag1 N2_2 1_555 1_555
Ag2 N3 1_555 1_555
N1 N2 1_555 1_555
N2 C6 1_555 1_555
N3 C11 1_555 1_555
N4 C25 1_555 1_555
C1 C2 1_555 1_555
C2 H1 1_555 1_555
C3 C2 1_555 1_555
H2 C3 1_555 1_555
C4 C3 1_555 1_555
H3 C4 1_555 1_555
C5 C1 1_555 1_555
C6 C5 1_555 1_555
C7 C6 1_555 1_555
C8 C7 1_555 1_555
H4 C8 1_555 1_555
C9 C8 1_555 1_555
H5 C9 1_555 1_555
C10 C9 1_555 1_555
C11 C10 1_555 1_555
C12 C10 1_555 1_555
H6 C12 1_555 1_555
C13 C7 1_555 1_555
H7 C13 1_555 1_555
C14 N1 1_555 1_555
C15 C14 1_555 1_555
H8 C15 1_555 1_555
C16 C15 1_555 1_555
H9 C16 1_555 1_555
C17 C16 1_555 1_555
H10 C17 1_555 1_555
C18 C17 1_555 1_555
H11 C18 1_555 1_555
C19 C14 1_555 1_555
H12 C19 1_555 1_555
C20 N1 1_555 1_555
C21 C20 1_555 1_555
C22 C21 1_555 1_555
H13 C22 1_555 1_555
C23 C22 1_555 1_555
H14 C23 1_555 1_555
C24 C23 1_555 1_555
C25 C24 1_555 1_555
C26 C24 1_555 1_555
H15 C26 1_555 1_555
C27 C21 1_555 1_555
H16 C27 1_555 1_555
C28 Ag2 1_555 1_555
H17 C28 1_555 1_555
C29 C28 1_555 1_555
H18 C29 1_555 1_555
C30 C29 1_555 1_555
H19 C30 1_555 1_555
C31 C30 1_555 1_555
H20 C31 1_555 1_555
C32 C31 1_555 1_555
H21 C32 1_555 1_555
C33 Ag2 1_555 1_555
H22 C33 1_555 1_555
C34 H23 1_555 1_555
C35 C34 1_555 1_555
H24 C35 1_555 1_555
C36 C35 1_555 1_555
H25 C36 1_555 1_555
C37 C36 1_555 1_555
H26 C37 1_555 1_555
C38 C37 1_555 1_555
H27 C38 1_555 1_555
C39 C34 1_555 1_555
H28 C39 1_555 1_555
C40 H29 1_555 1_555
C41 C40 1_555 1_555
H30 C41 1_555 1_555
C42 C40 1_555 1_555
H31 C42 1_555 1_555
C43 H32 1_555 1_555
C44 C43 1_555 1_555
H33 C44 1_555 1_555
C45 C44 1_555 1_555
H34 C45 1_555 1_555
C46 C45 1_555 1_555
H35 C46 1_555 1_555
C47 C46 1_555 1_555
H36 C47 1_555 1_555
C48 C43 1_555 1_555
H37 C48 1_555 1_555
Sb1 F1 1_555 1_555
Sb2 F7 1_555 1_555
F1 Ag2 1_555 1_555
F2 Sb1 1_555 1_555
F3 Sb1 1_555 1_555
F4 Sb1 1_555 1_555
F5 Sb1 1_555 1_555
F6 Sb1 1_555 1_555
F8 Sb2 1_555 1_555
F9 Sb2 1_555 1_555
F10 Sb2 1_555 1_555
F11 Sb2 1_555 1_555
F12 Sb2 1_555 1_555
Ag1_2 N2 1_555 1_555
Ag1_3 N4 1_555 1_555
Ag2_2 N3_2 1_555 1_555
Ag2_3 C2 1_555 1_555
N1_2 N2_2 1_555 1_555
N2_2 C6_2 1_555 1_555
N3_2 C11_2 1_555 1_555
N4_2 Ag1_2 1_555 1_555
N4_3 Ag1 1_555 1_555
C1_2 C2_2 1_555 1_555
C2_2 Ag2 1_555 1_555
C2_3 Ag2_2 1_555 1_555
H1_2 C2_2 1_555 1_555
H1_3 C2_3 1_555 1_555
C3_2 Ag2 1_555 1_555
C3_3 Ag2_2 1_555 1_555
H2_2 C3_2 1_555 1_555
H2_3 C3_3 1_555 1_555
C4_2 C3_2 1_555 1_555
H3_2 C4_2 1_555 1_555
C5_2 C1_2 1_555 1_555
C6_2 C5_2 1_555 1_555
C7_2 C6_2 1_555 1_555
C8_2 C7_2 1_555 1_555
H4_2 C8_2 1_555 1_555
C9_2 C8_2 1_555 1_555
H5_2 C9_2 1_555 1_555
C10_2 C9_2 1_555 1_555
C11_2 C10_2 1_555 1_555
C12_2 C10_2 1_555 1_555
H6_2 C12_2 1_555 1_555
C13_2 C7_2 1_555 1_555
H7_2 C13_2 1_555 1_555
C14_2 N1_2 1_555 1_555
C15_2 C14_2 1_555 1_555
H8_2 C15_2 1_555 1_555
C16_2 C15_2 1_555 1_555
H9_2 C16_2 1_555 1_555
C17_2 C16_2 1_555 1_555
H10_2 C17_2 1_555 1_555
C18_2 C17_2 1_555 1_555
H11_2 C18_2 1_555 1_555
C19_2 C14_2 1_555 1_555
H12_2 C19_2 1_555 1_555
C20_2 N1_2 1_555 1_555
C21_2 C20_2 1_555 1_555
C22_2 C21_2 1_555 1_555
H13_2 C22_2 1_555 1_555
C23_2 C22_2 1_555 1_555
H14_2 C23_2 1_555 1_555
C24_2 C23_2 1_555 1_555
C25_2 N4_2 1_555 1_555
C26_2 C24_2 1_555 1_555
H15_2 C26_2 1_555 1_555
C27_2 C21_2 1_555 1_555
H16_2 C27_2 1_555 1_555
C28_2 Ag2_2 1_555 1_555
H17_2 C28_2 1_555 1_555
C29_2 C28_2 1_555 1_555
H18_2 C29_2 1_555 1_555
C30_2 C29_2 1_555 1_555
H19_2 C30_2 1_555 1_555
C31_2 C30_2 1_555 1_555
H20_2 C31_2 1_555 1_555
C32_2 C31_2 1_555 1_555
H21_2 C32_2 1_555 1_555
C33_2 Ag2_2 1_555 1_555
H22_2 C33_2 1_555 1_555
C40A H29A 1_555 1_555
C41A C42 1_555 1_555
H30A C41A 1_555 1_555
C42A C41 1_555 1_555
H31A C42A 1_555 1_555
Sb1_2 F1_2 1_555 1_555
F1_2 Ag2_2 1_555 1_555
F2_2 Sb1_2 1_555 1_555
F3_2 Sb1_2 1_555 1_555
F4_2 Sb1_2 1_555 1_555
F5_2 Sb1_2 1_555 1_555
F6_2 Sb1_2 1_555 1_555
C1 C20 1_555 1_555
C3 Ag2_3 1_555 1_555
C4 C5 1_555 1_555
C12 C13 1_555 1_555
C18 C19 1_555 1_555
C26 C27 1_555 1_555
C28 C33 1_555 1_555
C32 C33 1_555 1_555
C38 C39 1_555 1_555
C47 C48 1_555 1_555
C1_2 C20_2 1_555 1_555
C2_2 C3_2 1_555 1_555
C2_3 C3_3 1_555 1_555
C4_2 C5_2 1_555 1_555
C12_2 C13_2 1_555 1_555
C18_2 C19_2 1_555 1_555
C24_2 C25_2 1_555 1_555
C26_2 C27_2 1_555 1_555
C28_2 C33_2 1_555 1_555
C32_2 C33_2 1_555 1_555
C40A C41A 1_555 1_555
C40A C42A 1_555 1_555

#END
