
#######################################################################
#
#                 Cambridge Crystallographic Data Centre
#                                CCDC 
#
#######################################################################
#
# If this CIF has been generated from an entry in the Cambridge 
# Structural Database, then it will include bibliographic, chemical, 
# crystal, experimental, refinement or atomic coordinate data resulting 
# from the CCDC's data processing and validation procedures.
#
#######################################################################

data_VEFJAS
_symmetry_cell_setting           triclinic
_symmetry_space_group_name_H-M   'P -1'
_symmetry_Int_Tables_number      2
_space_group_name_Hall           '-P 1'
loop_
_symmetry_equiv_pos_site_id
_symmetry_equiv_pos_as_xyz
1 x,y,z
2 -x,-y,-z
_cell_length_a                   7.6547(12)
_cell_length_b                   11.7027(19)
_cell_length_c                   17.768(3)
_cell_angle_alpha                72.093(3)
_cell_angle_beta                 77.580(2)
_cell_angle_gamma                78.561(2)
_cell_volume                     1464.08
loop_
_atom_site_label
_atom_site_type_symbol
_atom_site_fract_x
_atom_site_fract_y
_atom_site_fract_z
Ag1 Ag 0.64468(8) 0.89369(5) 0.68100(3)
N1 N 0.4067(7) 0.7685(5) 0.8414(3)
N2 N 0.4670(7) 0.7527(5) 0.7654(3)
N3 N 0.4275(10) 0.9506(6) 0.4192(4)
C1 C 0.3797(10) 0.5536(6) 0.8158(4)
C2 C 0.3439(11) 0.4409(7) 0.8200(5)
H1 H 0.3701 0.4046 0.7783
C3 C 0.2622(11) 0.3921(7) 0.8970(5)
H2 H 0.2265 0.3155 0.9156
C4 C 0.2395(10) 0.4719(7) 0.9439(5)
H3 H 0.1861 0.4595 0.9975
C5 C 0.3142(9) 0.5750(6) 0.8932(4)
C6 C 0.3228(8) 0.6851(6) 0.9043(4)
C7 C 0.2454(9) 0.7173(6) 0.9788(4)
C8 C 0.2761(8) 0.6419(6) 1.0601(4)
H4 H 0.3495 0.5676 1.0735
C9 C 0.1687(14) 0.7080(11) 1.1128(6)
H5 H 0.1675 0.6803 1.1678
C10 C 0.0707(14) 0.8105(10) 1.0801(7)
H6 H -0.0067 0.8589 1.1097
C11 C 0.4504(9) 0.8775(6) 0.8482(4)
C12 C 0.5579(10) 0.8738(7) 0.9006(4)
H7 H 0.6020 0.7998 0.9336
C13 C 0.6017(12) 0.9801(9) 0.9047(6)
H8 H 0.6741 0.9787 0.9409
C14 C 0.5370(13) 1.0883(8) 0.8546(6)
H9 H 0.5698 1.1599 0.8561
C15 C 0.4278(13) 1.0931(7) 0.8037(5)
H10 H 0.3848 1.1676 0.7709
C16 C 0.3792(10) 0.9888(6) 0.7997(4)
H11 H 0.3006 0.9918 0.7656
C17 C 0.4485(9) 0.6513(6) 0.7518(4)
C18 C 0.5008(10) 0.6491(6) 0.6670(4)
C19 C 0.5938(10) 0.5481(7) 0.6455(5)
H12 H 0.6238 0.4778 0.6852
C20 C 0.6439(12) 0.5489(8) 0.5659(5)
H13 H 0.7060 0.4792 0.5524
C21 C 0.6024(12) 0.6515(7) 0.5071(5)
H14 H 0.6383 0.6526 0.4534
C22 C 0.5062(10) 0.7545(7) 0.5275(4)
C23 C 0.4624(10) 0.8641(7) 0.4666(4)
C24 C 0.4550(9) 0.7524(6) 0.6073(4)
H15 H 0.3891 0.8210 0.6210
C25 C 0.974(2) 0.8503(12) 0.6549(9)
H16 H 1.0334 0.9230 0.6315
C26 C 0.999(3) 0.7765(16) 0.6043(9)
H17 H 1.0114 0.8078 0.5489
C27 C 1.005(3) 0.6530(15) 0.6416(11)
H18 H 1.0286 0.5979 0.6112
C28 C 0.977(2) 0.6149(13) 0.7198(10)
H19 H 0.9785 0.5318 0.7425
C29 C 0.945(3) 0.6844(16) 0.7714(9)
H20 H 0.9201 0.6520 0.8267
C30 C 0.953(2) 0.8129(13) 0.7341(9)
H21 H 0.9940 0.8593 0.7626
S1 S 0.0988(4) 0.8433(2) 0.98401(16)
Ag1A Ag 0.35532(8) 1.10631(5) 0.31900(3)
N3A N 0.5725(10) 1.0494(6) 0.5808(4)
F1 F 1.1382(11) 0.1346(8) 0.6275(5)
F2 F 0.9741(10) 0.1106(7) 0.7475(4)
F3 F 0.8447(12) 0.1448(11) 0.6432(7)
F4 F 0.8079(11) 0.2854(7) 0.7065(4)
F5 F 1.1093(17) 0.2635(11) 0.6946(7)
F6 F 0.9921(12) 0.3189(8) 0.5864(5)
P1 P 0.9744(4) 0.2106(3) 0.66526(17)
loop_
_geom_bond_atom_site_label_1
_geom_bond_atom_site_label_2
_geom_bond_site_symmetry_1
_geom_bond_site_symmetry_2
Ag1 N2 1_555 1_555
N1 N2 1_555 1_555
N2 C17 1_555 1_555
N3 C23 1_555 1_555
C1 C2 1_555 1_555
C2 H1 1_555 1_555
C3 C2 1_555 1_555
H2 C3 1_555 1_555
C4 C3 1_555 1_555
H3 C4 1_555 1_555
C5 C1 1_555 1_555
C6 N1 1_555 1_555
C7 C6 1_555 1_555
C8 C7 1_555 1_555
H4 C8 1_555 1_555
C9 C8 1_555 1_555
H5 C9 1_555 1_555
C10 C9 1_555 1_555
H6 C10 1_555 1_555
C11 N1 1_555 1_555
C12 C11 1_555 1_555
H7 C12 1_555 1_555
C13 C12 1_555 1_555
H8 C13 1_555 1_555
C14 C13 1_555 1_555
H9 C14 1_555 1_555
C15 C14 1_555 1_555
H10 C15 1_555 1_555
C16 C11 1_555 1_555
H11 C16 1_555 1_555
C17 C1 1_555 1_555
C18 C17 1_555 1_555
C19 C18 1_555 1_555
H12 C19 1_555 1_555
C20 C19 1_555 1_555
H13 C20 1_555 1_555
C21 C20 1_555 1_555
H14 C21 1_555 1_555
C22 C21 1_555 1_555
C23 C22 1_555 1_555
C24 C18 1_555 1_555
H15 C24 1_555 1_555
C25 Ag1 1_555 1_555
H16 C25 1_555 1_555
C26 C25 1_555 1_555
H17 C26 1_555 1_555
C27 C26 1_555 1_555
H18 C27 1_555 1_555
C28 C27 1_555 1_555
H19 C28 1_555 1_555
C29 C28 1_555 1_555
H20 C29 1_555 1_555
C30 Ag1 1_555 1_555
H21 C30 1_555 1_555
F1 P1 1_555 1_555
F2 P1 1_555 1_555
F3 P1 1_555 1_555
F4 P1 1_555 1_555
F5 P1 1_555 1_555
F6 P1 1_555 1_555
S1 C7 1_555 1_555
Ag1A N3 1_555 1_555
N3A Ag1 1_555 1_555
C4 C5 1_555 1_555
C5 C6 1_555 1_555
C10 S1 1_555 1_555
C15 C16 1_555 1_555
C22 C24 1_555 1_555
C25 C30 1_555 1_555
C29 C30 1_555 1_555

#END
