
#######################################################################
#
#                 Cambridge Crystallographic Data Centre
#                                CCDC 
#
#######################################################################
#
# If this CIF has been generated from an entry in the Cambridge 
# Structural Database, then it will include bibliographic, chemical, 
# crystal, experimental, refinement or atomic coordinate data resulting 
# from the CCDC's data processing and validation procedures.
#
#######################################################################

data_VEFJOG
_symmetry_cell_setting           triclinic
_symmetry_space_group_name_H-M   'P -1'
_symmetry_Int_Tables_number      2
_space_group_name_Hall           '-P 1'
loop_
_symmetry_equiv_pos_site_id
_symmetry_equiv_pos_as_xyz
1 x,y,z
2 -x,-y,-z
_cell_length_a                   10.410(3)
_cell_length_b                   13.126(4)
_cell_length_c                   19.282(6)
_cell_angle_alpha                86.692(6)
_cell_angle_beta                 78.256(6)
_cell_angle_gamma                76.867(5)
_cell_volume                     2511.92
loop_
_atom_site_label
_atom_site_type_symbol
_atom_site_fract_x
_atom_site_fract_y
_atom_site_fract_z
Ag1 Ag 0.91086(6) 0.81448(5) 0.38315(4)
Ag2 Ag 1.71961(8) 0.62813(6) -0.14838(4)
N1 N 1.0000(6) 0.7304(5) 0.2234(4)
H1 H 1.0055 0.7948 0.2183
N2 N 0.9358(6) 0.7022(5) 0.2884(3)
N3 N 0.9882(7) 0.3040(5) 0.5357(4)
N4 N 1.5402(9) 0.6092(7) -0.0632(5)
N5 N 0.6009(6) 0.8964(4) 0.3758(3)
H2 H 0.6352 0.9214 0.3358
N6 N 0.6757(6) 0.8842(4) 0.4271(4)
N7 N 0.9928(7) 1.0503(5) 0.6041(4)
N8 N 0.3330(9) 1.1958(6) 0.1679(4)
O1 O 1.6566(7) 0.4099(5) -0.2132(4)
O2 O 1.7201(10) 0.4313(8) -0.3360(4)
O3 O 1.6929(9) 0.5721(6) -0.2585(5)
C1 C 0.9729(7) 0.5327(6) 0.2392(4)
C2 C 0.9626(8) 0.4310(6) 0.2310(5)
H3 H 0.9208 0.3900 0.2654
C3 C 1.0267(9) 0.4008(6) 0.1614(5)
H4 H 0.9893 0.3559 0.1357
C4 C 1.0780(8) 0.4841(6) 0.1252(5)
H5 H 1.0683 0.4992 0.0760
C5 C 1.0427(8) 0.5674(6) 0.1735(5)
C6 C 1.0556(7) 0.6694(6) 0.1665(4)
C7 C 1.1236(8) 0.7177(6) 0.1026(4)
C8 C 1.2468(9) 0.6641(6) 0.0681(5)
H6 H 1.2866 0.6001 0.0862
C9 C 1.3127(9) 0.7050(7) 0.0061(5)
C10 C 1.4398(11) 0.6505(8) -0.0318(5)
C11 C 1.2547(11) 0.8032(8) -0.0186(5)
H7 H 1.2984 0.8320 -0.0593
C12 C 1.1339(11) 0.8567(8) 0.0172(6)
H8 H 1.0951 0.9221 0.0007
C13 C 1.0685(9) 0.8149(7) 0.0776(5)
H9 H 0.9863 0.8526 0.1017
C14 C 0.9255(7) 0.6025(6) 0.2953(4)
C15 C 0.8579(8) 0.5699(5) 0.3656(4)
C16 C 0.7267(8) 0.6153(5) 0.3932(4)
H10 H 0.6810 0.6703 0.3688
C17 C 0.6614(8) 0.5808(6) 0.4564(5)
H11 H 0.5723 0.6123 0.4748
C18 C 0.7300(9) 0.4987(6) 0.4924(4)
H12 H 0.6862 0.4742 0.5348
C19 C 0.8629(8) 0.4529(6) 0.4658(5)
C20 C 0.9323(9) 0.3690(6) 0.5045(4)
C21 C 0.9244(8) 0.4882(6) 0.4023(4)
H13 H 1.0130 0.4563 0.3835
C22 C 0.6217(8) 0.8533(5) 0.4907(5)
C23 C 0.4917(8) 0.8313(5) 0.5041(4)
C24 C 0.4066(8) 0.8028(6) 0.5650(5)
H14 H 0.4234 0.7955 0.6108
C25 C 0.2923(8) 0.7878(6) 0.5435(5)
H15 H 0.2199 0.7682 0.5738
C26 C 0.3002(7) 0.8057(6) 0.4706(5)
H16 H 0.2371 0.7988 0.4443
C27 C 0.4228(7) 0.8364(5) 0.4450(5)
C28 C 0.4805(8) 0.8741(5) 0.3801(4)
C29 C 0.4171(7) 0.8968(6) 0.3180(5)
C30 C 0.4120(7) 0.9918(6) 0.2825(4)
H17 H 0.4527 1.0412 0.2966
C31 C 0.3467(8) 1.0133(6) 0.2263(5)
C32 C 0.3396(9) 1.1130(7) 0.1922(5)
C33 C 0.2883(8) 0.9414(7) 0.2033(5)
H18 H 0.2470 0.9566 0.1643
C34 C 0.2909(9) 0.8472(7) 0.2380(5)
H19 H 0.2491 0.7987 0.2237
C35 C 0.3570(8) 0.8244(6) 0.2951(5)
H20 H 0.3607 0.7598 0.3181
C36 C 0.7062(7) 0.8439(5) 0.5444(4)
C37 C 0.7140(7) 0.7618(6) 0.5939(4)
H21 H 0.6622 0.7127 0.5939
C38 C 0.7957(8) 0.7516(6) 0.6425(4)
H22 H 0.7992 0.6961 0.6748
C39 C 0.8725(8) 0.8239(6) 0.6431(4)
H23 H 0.9290 0.8171 0.6756
C40 C 0.8654(7) 0.9070(6) 0.5953(4)
C41 C 0.9396(8) 0.9872(6) 0.6000(4)
C42 C 0.7827(7) 0.9171(5) 0.5457(4)
H24 H 0.7789 0.9728 0.5135
C44 C 1.478(2) 0.5195(13) -0.2745(10)
F1 F 1.4370(9) 0.4397(8) -0.2862(6)
F2 F 1.4732(9) 0.5816(7) -0.3322(6)
F3 F 1.4137(11) 0.5682(10) -0.2221(7)
S1 S 1.6584(3) 0.4789(2) -0.27144(16)
Ag1A Ag 1.08914(6) 0.18552(5) 0.61685(4)
Ag1A_2 Ag 1.08914(6) 1.18552(5) 0.61685(4)
Ag2A Ag 0.28039(8) 1.37187(6) 0.14838(4)
Ag2A_2 Ag 1.28039(8) 0.37187(6) 0.14838(4)
N3A N 1.0118(7) 0.6960(5) 0.4643(4)
N7A N 1.0072(7) 0.9497(5) 0.3959(4)
N8A N 1.6670(9) 0.8042(6) -0.1679(4)
C3A C 1.9733(9) 0.5992(6) -0.1614(5)
H4A H 2.0107 0.6441 -0.1357
C4A C 1.9220(8) 0.5159(6) -0.1252(5)
H5A H 1.9317 0.5008 -0.0760
O4 O 0.8173(8) 0.0148(6) 0.1371(4)
O5 O 0.9501(7) -0.0493(5) 0.2304(4)
O6 O 0.7150(8) 0.0101(6) 0.2630(4)
C43 C 0.8529(16) 0.1418(12) 0.2178(10)
F4 F 0.8603(8) 0.1580(6) 0.2863(5)
F5 F 0.9661(11) 0.1527(7) 0.1804(7)
F6 F 0.7621(10) 0.2127(5) 0.1986(5)
S2 S 0.8302(3) 0.01539(19) 0.21234(17)
C45 C 0.8172(14) 0.6911(13) 0.0322(9)
H25 H 0.9029 0.6519 0.0145
C46 C 0.7856(18) 0.7886(15) 0.0071(9)
H26 H 0.8462 0.8088 -0.0306
C47 C 0.672(2) 0.8604(12) 0.0323(13)
H27 H 0.6509 0.9296 0.0170
C48 C 0.5961(19) 0.8141(16) 0.0835(13)
H28 H 0.5127 0.8550 0.1034
C49 C 0.625(2) 0.7169(18) 0.1096(12)
H29 H 0.5658 0.6989 0.1490
C50 C 0.734(2) 0.6430(11) 0.0822(10)
H30 H 0.7502 0.5724 0.0947
loop_
_geom_bond_atom_site_label_1
_geom_bond_atom_site_label_2
_geom_bond_site_symmetry_1
_geom_bond_site_symmetry_2
Ag1 N2 1_555 1_555
Ag2 N4 1_555 1_555
N1 H1 1_555 1_555
N2 N1 1_555 1_555
N3 C20 1_555 1_555
N4 C10 1_555 1_555
N5 H2 1_555 1_555
N6 Ag1 1_555 1_555
N7 C41 1_555 1_555
N8 C32 1_555 1_555
O1 S1 1_555 1_555
O2 S1 1_555 1_555
O3 Ag2 1_555 1_555
O4 S2 1_555 1_555
O5 S2 1_555 1_555
O6 S2 1_555 1_555
C1 C2 1_555 1_555
C2 H3 1_555 1_555
C3 C2 1_555 1_555
H4 C3 1_555 1_555
C4 C3 1_555 1_555
H5 C4 1_555 1_555
C5 C1 1_555 1_555
C6 N1 1_555 1_555
C7 C6 1_555 1_555
C8 C7 1_555 1_555
H6 C8 1_555 1_555
C9 C8 1_555 1_555
C10 C9 1_555 1_555
C11 C9 1_555 1_555
H7 C11 1_555 1_555
C12 C11 1_555 1_555
H8 C12 1_555 1_555
C13 C7 1_555 1_555
H9 C13 1_555 1_555
C14 N2 1_555 1_555
C15 C14 1_555 1_555
C16 C15 1_555 1_555
H10 C16 1_555 1_555
C17 C16 1_555 1_555
H11 C17 1_555 1_555
C18 C17 1_555 1_555
H12 C18 1_555 1_555
C19 C18 1_555 1_555
C20 C19 1_555 1_555
C21 C15 1_555 1_555
H13 C21 1_555 1_555
C22 N6 1_555 1_555
C23 C22 1_555 1_555
C24 C23 1_555 1_555
H14 C24 1_555 1_555
C25 C24 1_555 1_555
H15 C25 1_555 1_555
C26 C25 1_555 1_555
H16 C26 1_555 1_555
C27 C23 1_555 1_555
C28 N5 1_555 1_555
C29 C28 1_555 1_555
C30 C29 1_555 1_555
H17 C30 1_555 1_555
C31 C30 1_555 1_555
C32 C31 1_555 1_555
C33 C31 1_555 1_555
H18 C33 1_555 1_555
C34 C33 1_555 1_555
H19 C34 1_555 1_555
C35 C29 1_555 1_555
H20 C35 1_555 1_555
C36 C22 1_555 1_555
C37 C36 1_555 1_555
H21 C37 1_555 1_555
C38 C37 1_555 1_555
H22 C38 1_555 1_555
C39 C38 1_555 1_555
H23 C39 1_555 1_555
C40 C39 1_555 1_555
C41 C40 1_555 1_555
C42 C36 1_555 1_555
H24 C42 1_555 1_555
C43 F4 1_555 1_555
C44 F1 1_555 1_555
C45 H25 1_555 1_555
C46 C45 1_555 1_555
H26 C46 1_555 1_555
C47 C46 1_555 1_555
H27 C47 1_555 1_555
C48 C47 1_555 1_555
H28 C48 1_555 1_555
C49 C48 1_555 1_555
H29 C49 1_555 1_555
C50 C45 1_555 1_555
H30 C50 1_555 1_555
F2 C44 1_555 1_555
F3 C44 1_555 1_555
F5 C43 1_555 1_555
F6 C43 1_555 1_555
S1 O3 1_555 1_555
S2 C43 1_555 1_555
Ag1A N3 1_555 1_555
Ag1A_2 N7 1_555 1_555
Ag2A N8 1_555 1_555
Ag2A_2 C3 1_555 1_555
N3A Ag1 1_555 1_555
N7A Ag1 1_555 1_555
N8A Ag2 1_555 1_555
C3A Ag2 1_555 1_555
H4A C3A 1_555 1_555
C4A Ag2 1_555 1_555
H5A C4A 1_555 1_555
N5 N6 1_555 1_555
C1 C14 1_555 1_555
C4 C5 1_555 1_555
C4 Ag2A_2 1_555 1_555
C5 C6 1_555 1_555
C12 C13 1_555 1_555
C19 C21 1_555 1_555
C26 C27 1_555 1_555
C27 C28 1_555 1_555
C34 C35 1_555 1_555
C40 C42 1_555 1_555
C44 S1 1_555 1_555
C49 C50 1_555 1_555
C3A C4A 1_555 1_555

#END
