
#######################################################################
#
#                 Cambridge Crystallographic Data Centre
#                                CCDC 
#
#######################################################################
#
# If this CIF has been generated from an entry in the Cambridge 
# Structural Database, then it will include bibliographic, chemical, 
# crystal, experimental, refinement or atomic coordinate data resulting 
# from the CCDC's data processing and validation procedures.
#
#######################################################################

data_VEFMAW
_symmetry_cell_setting           rhombohedral
_symmetry_space_group_name_H-M   'R -3'
_symmetry_Int_Tables_number      148
_space_group_name_Hall           '-R 3'
loop_
_symmetry_equiv_pos_site_id
_symmetry_equiv_pos_as_xyz
1 x,y,z
2 -y,x-y,z
3 -x+y,-x,z
4 2/3+x,1/3+y,1/3+z
5 2/3-y,1/3+x-y,1/3+z
6 2/3-x+y,1/3-x,1/3+z
7 1/3+x,2/3+y,2/3+z
8 1/3-y,2/3+x-y,2/3+z
9 1/3-x+y,2/3-x,2/3+z
10 -x,-y,-z
11 y,-x+y,-z
12 x-y,x,-z
13 1/3-x,2/3-y,2/3-z
14 1/3+y,2/3-x+y,2/3-z
15 1/3+x-y,2/3+x,2/3-z
16 2/3-x,1/3-y,1/3-z
17 2/3+y,1/3-x+y,1/3-z
18 2/3+x-y,1/3+x,1/3-z
_cell_length_a                   38.8481(11)
_cell_length_b                   38.8481(11)
_cell_length_c                   28.3192(9)
_cell_angle_alpha                90
_cell_angle_beta                 90
_cell_angle_gamma                120
_cell_volume                     37012.7
loop_
_atom_site_label
_atom_site_type_symbol
_atom_site_fract_x
_atom_site_fract_y
_atom_site_fract_z
O15 O 0.32076(5) 0.25395(6) 0.84112(8)
C45 C 0.34837(7) 0.25300(7) 0.82016(10)
H32 H 0.3427 0.2394 0.7908
N4 N 0.38475(6) 0.26959(6) 0.83603(8)
C46 C 0.39687(9) 0.29149(10) 0.87880(12)
H33 H 0.3934 0.3147 0.8763
H34 H 0.4249 0.3002 0.8848
H35 H 0.3807 0.2746 0.9049
C47 C 0.41580(7) 0.26893(8) 0.80757(10)
H36 H 0.4036 0.2478 0.7839
H37 H 0.4332 0.2639 0.8281
H38 H 0.4315 0.2946 0.7917
O16 O 0.31774(6) -0.01437(7) 0.00764(9)
C48 C 0.33263(9) 0.02246(11) 0.02568(15)
H39 H 0.3254 0.0403 0.0122
N5 N 0.35683(5) 0.03368(5) 0.06133(7)
C49 C 0.37047(12) 0.01033(11) 0.08479(16)
H40 H 0.3569 -0.0166 0.0717
H41 H 0.3647 0.0092 0.1186
H42 H 0.3992 0.0223 0.0802
C50 C 0.37587(12) 0.07460(11) 0.07791(16)
H43 H 0.3625 0.0879 0.0640
H44 H 0.4039 0.0885 0.0685
H45 H 0.3740 0.0749 0.1124
O17 O 0.44906(17) 0.17761(14) 0.32304(17)
C51 C 0.40797(11) 0.15792(9) 0.31723(14)
H46 H 0.3983 0.1672 0.2924
N6 N 0.38031(8) 0.12710(6) 0.34280(8)
C52 C 0.38204(17) 0.10838(11) 0.38673(13)
H47 H 0.4064 0.1264 0.4038
H48 H 0.3819 0.0836 0.3796
H49 H 0.3589 0.1025 0.4063
C53 C 0.33751(10) 0.10618(8) 0.32832(13)
H50 H 0.3346 0.1179 0.2990
H51 H 0.3216 0.1090 0.3533
H52 H 0.3283 0.0779 0.3232
O18 O 0.54647(12) 0.22078(14) 0.1962(2)
C54 C 0.52337(14) 0.22646(16) 0.2236(2)
H53 H 0.5207 0.2178 0.2555
N7 N 0.50372(10) 0.24316(11) 0.21030(14)
C55 C 0.47361(13) 0.24555(15) 0.2370(2)
H54 H 0.4497 0.2364 0.2176
H55 H 0.4834 0.2732 0.2466
H56 H 0.4671 0.2287 0.2652
C56 C 0.5099(2) 0.2603(2) 0.16272(19)
H57 H 0.5239 0.2894 0.1650
H58 H 0.4842 0.2509 0.1473
H59 H 0.5259 0.2521 0.1441
N8 N 0.33060(8) 0.91150(11) 0.85003(9)
H60 H 0.3177 0.9019 0.8784
H61 H 0.3558 0.9321 0.8561
C57 C 0.33265(13) 0.87851(14) 0.82270(17)
H62 H 0.3063 0.8545 0.8225
H63 H 0.3518 0.8727 0.8380
H64 H 0.3411 0.8873 0.7902
C58 C 0.30813(14) 0.92586(18) 0.82001(18)
H65 H 0.3142 0.9249 0.7866
H66 H 0.3161 0.9533 0.8287
H67 H 0.2795 0.9087 0.8252
Co1 Co 0.5000 0.0000 0.0000
Co2 Co 0.603230(6) 0.060100(8) 0.012650(7)
Co3 Co 0.500560(7) -0.034060(5) 0.479340(6)
O1 O 0.54702(3) 0.04770(3) 0.04070(3)
O2 O 0.59831(3) 0.06757(4) 0.08828(4)
O3 O 0.48764(4) -0.00957(6) 0.42334(4)
O4 O 0.48610(4) 0.04240(5) 0.45398(4)
O5 O 0.34079(4) 0.11622(4) 0.19847(7)
O6 O 0.39266(4) 0.16888(3) 0.16596(4)
O7 O 0.52843(3) -0.03263(3) -0.00152(3)
O8 O 0.59060(3) 0.00306(3) 0.02655(4)
O9 O 0.58637(4) -0.24952(3) -0.11947(4)
O10 O 0.57141(8) -0.29736(4) -0.06899(5)
O11 O 0.63841(4) -0.17069(3) 0.26883(3)
O12 O 0.61624(4) -0.12764(3) 0.27720(4)
O13 O 0.66234(3) 0.07557(5) 0.00226(5)
N1 N 0.61939(10) 0.11894(9) -0.00221(12)
H1 H 0.6367 0.1261 -0.0276
N2 N 0.47405(4) 0.07107(4) 0.23465(5)
N3 N 0.56057(4) -0.17153(4) 0.06687(5)
C1 C 0.49546(4) 0.06560(5) 0.19712(5)
C2 C 0.47961(4) 0.05773(5) 0.15184(5)
H2 H 0.4539 0.0545 0.1464
C3 C 0.50094(4) 0.05447(4) 0.11431(5)
H3 H 0.4900 0.0495 0.0833
C4 C 0.53837(4) 0.05855(4) 0.12217(5)
C5 C 0.55310(4) 0.06548(5) 0.16797(6)
H4 H 0.5783 0.0681 0.1737
C6 C 0.53215(5) 0.06873(5) 0.20550(5)
H5 H 0.5426 0.0730 0.2366
C7 C 0.47471(4) 0.05775(5) 0.28094(5)
C8 C 0.47396(5) 0.02253(5) 0.28789(5)
H6 H 0.4714 0.0064 0.2614
C9 C 0.47676(3) 0.00979(3) 0.33303(3)
H7 H 0.4776 -0.0140 0.3372
C10 C 0.47817(3) 0.03245(3) 0.37183(3)
C11 C 0.47849(3) 0.06820(3) 0.36523(3)
H8 H 0.4807 0.0844 0.3916
C12 C 0.47576(5) 0.08013(5) 0.31962(6)
H9 H 0.4745 0.1038 0.3150
C13 C 0.45000(4) 0.08749(4) 0.22416(5)
C14 C 0.41237(5) 0.07092(5) 0.24132(6)
H10 H 0.4023 0.0486 0.2618
C15 C 0.38820(5) 0.08687(5) 0.22880(7)
H11 H 0.3615 0.0747 0.2400
C16 C 0.40282(4) 0.11986(4) 0.20058(5)
C17 C 0.44183(5) 0.13804(5) 0.18470(6)
H12 H 0.4519 0.1613 0.1657
C18 C 0.46605(5) 0.12273(5) 0.19623(6)
H13 H 0.4928 0.1354 0.1858
C19 C 0.56223(4) 0.05782(4) 0.08184(5)
C20 C 0.48419(4) 0.02082(5) 0.42032(5)
C21 C 0.37733(4) 0.13695(4) 0.18673(6)
C22 C 0.56014(4) -0.13586(4) 0.05344(5)
C23 C 0.59347(4) -0.09886(5) 0.06231(6)
H14 H 0.6163 -0.0973 0.0766
C24 C 0.59329(2) -0.06470(2) 0.05038(3)
H15 H 0.6159 -0.0396 0.0572
C25 C 0.56043(2) -0.06646(2) 0.02847(3)
C26 C 0.52719(2) -0.10308(2) 0.01864(3)
H16 H 0.5045 -0.1048 0.0035
C27 C 0.52752(5) -0.13809(5) 0.03176(6)
H17 H 0.5050 -0.1633 0.0255
C28 C 0.56227(4) -0.19530(4) 0.03056(5)
C29 C 0.56854(4) -0.18246(4) -0.01640(5)
H18 H 0.5704 -0.1578 -0.0242
C30 C 0.57208(5) -0.20495(4) -0.05157(5)
H19 H 0.5765 -0.1956 -0.0832
C31 C 0.56930(5) -0.24106(4) -0.04106(5)
C32 C 0.56152(6) -0.25491(5) 0.00564(6)
H20 H 0.5591 -0.2799 0.0133
C33 C 0.55746(5) -0.23257(5) 0.04030(5)
H21 H 0.5512 -0.2427 0.0716
C34 C 0.57439(4) -0.17134(4) 0.11321(5)
C35 C 0.60540(4) -0.17830(4) 0.12360(5)
H22 H 0.6163 -0.1869 0.0993
C36 C 0.62067(4) -0.17287(4) 0.16923(5)
H23 H 0.6418 -0.1778 0.1758
C37 C 0.60526(4) -0.16028(4) 0.20519(5)
C38 C 0.57303(5) -0.15497(5) 0.19548(6)
H24 H 0.5620 -0.1468 0.2200
C39 C 0.55664(5) -0.16153(5) 0.15019(6)
H25 H 0.5337 -0.1594 0.1444
C40 C 0.55991(3) -0.02865(4) 0.01689(4)
C41 C 0.57642(6) -0.26424(5) -0.07913(6)
C42 C 0.62139(4) -0.15258(4) 0.25453(5)
C43 C 0.64181(14) 0.14978(12) 0.03489(17)
H26 H 0.6236 0.1471 0.0605
H27 H 0.6632 0.1461 0.0474
H28 H 0.6530 0.1763 0.0209
C44 C 0.58676(15) 0.12616(13) -0.0188(2)
H29 H 0.5980 0.1498 -0.0391
H30 H 0.5670 0.1030 -0.0368
H31 H 0.5737 0.1304 0.0085
Co1D Co 0.6667 -0.1667 0.3333
Co1G Co 0.3333 0.1667 -0.3333
Co2I Co 0.396770(6) -0.060100(8) -0.012650(7)
Co2D Co 0.606567(8) -0.123537(10) 0.345983(7)
Co2M Co 0.393433(8) 0.123537(10) -0.345983(7)
Co3I Co 0.499440(7) 0.034060(5) -0.479340(6)
Co3I_2 Co 0.499440(7) 0.034060(5) 0.520660(6)
Co3M Co 0.299273(5) 0.132047(9) 0.187327(6)
Co3G Co 0.367393(5) 0.201287(9) 0.146007(6)
Co3P Co 0.632607(5) -0.201287(9) -0.146007(6)
Co3_2 Co 0.500560(7) -0.034060(5) -0.520660(6)
Co3D Co 0.700727(5) -0.132047(9) -0.187327(6)
O1I O 0.45298(3) -0.04770(3) -0.04070(3)
O2I O 0.40169(3) -0.06757(4) -0.08828(4)
O3I O 0.51236(4) 0.00957(6) -0.42334(4)
O4I O 0.51390(4) -0.04240(5) -0.45398(4)
O4I_2 O 0.51390(4) -0.04240(5) 0.54602(4)
O4_2 O 0.48610(4) 0.04240(5) -0.54602(4)
O5I O 0.65921(4) -0.11622(4) -0.19847(7)
O5N O 0.55790(6) 0.00746(4) 0.46820(7)
O5E O 0.44210(6) -0.00746(4) -0.46820(7)
O6I O 0.60734(4) -0.16888(3) -0.16596(4)
O6E O 0.44289(5) -0.05933(4) 0.49929(4)
O6N O 0.55711(5) 0.05933(4) -0.49929(4)
O7I O 0.47157(3) 0.03263(3) 0.00152(3)
O8I O 0.40940(3) -0.00306(3) -0.02655(4)
O9I O 0.41363(4) 0.24952(3) 0.11947(4)
O9Q O 0.50256(5) -0.08030(4) 0.45280(4)
O9H O 0.49744(5) 0.08030(4) -0.45280(4)
O10I O 0.42859(8) 0.29736(4) 0.06899(5)
O11I O 0.36159(4) 0.17069(3) -0.26883(3)
O11H O 0.52423(5) 0.02826(4) -0.06450(3)
O11Q O 0.47577(5) -0.02826(4) 0.06450(3)
O12I O 0.38376(4) 0.12764(3) -0.27720(4)
O12H O 0.58945(5) 0.05043(4) -0.05613(4)
O12Q O 0.41055(5) -0.05043(4) 0.05613(4)
O13I O 0.33766(3) -0.07557(5) -0.00226(5)
N1I N 0.38061(10) -0.11894(9) 0.00221(12)
H1I H 0.3633 -0.1261 0.0276
N2I N 0.52595(4) -0.07107(4) -0.23465(5)
N3I N 0.43943(4) 0.17153(4) -0.06687(5)
C1I C 0.50454(4) -0.06560(5) -0.19712(5)
C2I C 0.52039(4) -0.05773(5) -0.15184(5)
H2I H 0.5461 -0.0545 -0.1464
C3I C 0.49906(4) -0.05447(4) -0.11431(5)
H3I H 0.5100 -0.0495 -0.0833
C4I C 0.46163(4) -0.05855(4) -0.12217(5)
C5I C 0.44690(4) -0.06548(5) -0.16797(6)
H4I H 0.4217 -0.0681 -0.1737
C6I C 0.46785(5) -0.06873(5) -0.20550(5)
H5I H 0.4574 -0.0730 -0.2366
C7I C 0.52529(4) -0.05775(5) -0.28094(5)
C8I C 0.52604(5) -0.02253(5) -0.28789(5)
H6I H 0.5286 -0.0064 -0.2614
C9I C 0.52324(3) -0.00979(3) -0.33303(3)
H7I H 0.5224 0.0140 -0.3372
C10I C 0.52183(3) -0.03245(3) -0.37183(3)
C11I C 0.52151(3) -0.06820(3) -0.36523(3)
H8I H 0.5193 -0.0844 -0.3916
C12I C 0.52424(5) -0.08013(5) -0.31962(6)
H9I H 0.5255 -0.1038 -0.3150
C13I C 0.55000(4) -0.08749(4) -0.22416(5)
C14I C 0.58763(5) -0.07092(5) -0.24132(6)
H10I H 0.5977 -0.0486 -0.2618
C15I C 0.61180(5) -0.08687(5) -0.22880(7)
H11I H 0.6385 -0.0747 -0.2400
C16I C 0.59718(4) -0.11986(4) -0.20058(5)
C17I C 0.55817(5) -0.13804(5) -0.18470(6)
H12I H 0.5481 -0.1613 -0.1657
C18I C 0.53395(5) -0.12273(5) -0.19623(6)
H13I H 0.5072 -0.1354 -0.1858
C19I C 0.43777(4) -0.05782(4) -0.08184(5)
C20I C 0.51581(4) -0.02082(5) -0.42032(5)
C21I C 0.62267(4) -0.13695(4) -0.18673(6)
C22I C 0.43986(4) 0.13586(4) -0.05344(5)
C23I C 0.40653(4) 0.09886(5) -0.06231(6)
H14I H 0.3837 0.0973 -0.0766
C24I C 0.40671(2) 0.06470(2) -0.05038(3)
H15I H 0.3841 0.0396 -0.0572
C25I C 0.43957(2) 0.06646(2) -0.02847(3)
C26I C 0.47281(2) 0.10308(2) -0.01864(3)
H16I H 0.4955 0.1048 -0.0035
C27I C 0.47248(5) 0.13809(5) -0.03176(6)
H17I H 0.4950 0.1633 -0.0255
C28I C 0.43773(4) 0.19530(4) -0.03056(5)
C29I C 0.43146(4) 0.18246(4) 0.01640(5)
H18I H 0.4296 0.1578 0.0242
C30I C 0.42792(5) 0.20495(4) 0.05157(5)
H19I H 0.4235 0.1956 0.0832
C31I C 0.43070(5) 0.24106(4) 0.04106(5)
C32I C 0.43848(6) 0.25491(5) -0.00564(6)
H20I H 0.4409 0.2799 -0.0133
C33I C 0.44254(5) 0.23257(5) -0.04030(5)
H21I H 0.4488 0.2427 -0.0716
C34I C 0.42561(4) 0.17134(4) -0.11321(5)
C35I C 0.39460(4) 0.17830(4) -0.12360(5)
H22I H 0.3837 0.1869 -0.0993
C36I C 0.37933(4) 0.17287(4) -0.16923(5)
H23I H 0.3582 0.1778 -0.1758
C37I C 0.39474(4) 0.16028(4) -0.20519(5)
C38I C 0.42697(5) 0.15497(5) -0.19548(6)
H24I H 0.4380 0.1468 -0.2200
C39I C 0.44336(5) 0.16153(5) -0.15019(6)
H25I H 0.4663 0.1594 -0.1444
C40I C 0.44009(3) 0.02865(4) -0.01689(4)
C41I C 0.42358(6) 0.26424(5) 0.07913(6)
C42I C 0.37861(4) 0.15258(4) -0.25453(5)
C43I C 0.35819(14) -0.14978(12) -0.03489(17)
H26I H 0.3764 -0.1471 -0.0605
H27I H 0.3368 -0.1461 -0.0474
H28I H 0.3470 -0.1763 -0.0209
C44I C 0.41324(15) -0.12616(13) 0.0188(2)
H29I H 0.4020 -0.1498 0.0391
H30I H 0.4330 -0.1030 0.0368
H31I H 0.4263 -0.1304 -0.0085
O14? O 0.54417(15) -0.16646(11) 0.33969(13)
C59? C 0.31903(15) 0.94571(17) 0.8700(3)
C60? C 0.32194(17) 0.9041(2) 0.8093(2)
H68? H 0.3240 0.8982 0.8823
H69? H 0.3619 0.9325 0.8644
H70? H 0.3164 0.9567 0.8399
H71? H 0.3372 0.9674 0.8907
H72? H 0.2929 0.9309 0.8851
H73? H 0.2929 0.8881 0.8074
H74? H 0.3335 0.8877 0.7999
H75? H 0.3315 0.9269 0.7880
N9? N 0.33472(8) 0.91911(12) 0.86142(9)
loop_
_geom_bond_atom_site_label_1
_geom_bond_atom_site_label_2
_geom_bond_site_symmetry_1
_geom_bond_site_symmetry_2
Co1 O1 1_555 1_555
Co2 O1 1_555 1_555
Co3 O3 1_555 1_555
O1 C19 1_555 1_555
O2 Co2 1_555 1_555
O3 C20 1_555 1_555
O4 C20 1_555 1_555
O5 C21 1_555 1_555
O6 C21 1_555 1_555
O7 Co1 1_555 1_555
O8 Co2 1_555 1_555
O9 C41 1_555 1_555
O10 C41 1_555 1_555
O11 C42 1_555 1_555
O12 C42 1_555 1_555
O13 Co2 1_555 1_555
N1 Co2 1_555 1_555
H1 N1 1_555 1_555
N2 C1 1_555 1_555
N3 C22 1_555 1_555
C1 C2 1_555 1_555
C2 H2 1_555 1_555
C3 C2 1_555 1_555
H3 C3 1_555 1_555
C4 C3 1_555 1_555
C5 C4 1_555 1_555
H4 C5 1_555 1_555
C6 C1 1_555 1_555
H5 C6 1_555 1_555
C7 N2 1_555 1_555
C8 C7 1_555 1_555
H6 C8 1_555 1_555
C9 C8 1_555 1_555
H7 C9 1_555 1_555
C10 C9 1_555 1_555
C11 C10 1_555 1_555
H8 C11 1_555 1_555
C12 C7 1_555 1_555
H9 C12 1_555 1_555
C13 N2 1_555 1_555
C14 C13 1_555 1_555
H10 C14 1_555 1_555
C15 C14 1_555 1_555
H11 C15 1_555 1_555
C16 C15 1_555 1_555
C17 C16 1_555 1_555
H12 C17 1_555 1_555
C18 C13 1_555 1_555
H13 C18 1_555 1_555
C19 O2 1_555 1_555
C20 C10 1_555 1_555
C21 C16 1_555 1_555
C22 C23 1_555 1_555
C23 H14 1_555 1_555
C24 C23 1_555 1_555
H15 C24 1_555 1_555
C25 C24 1_555 1_555
C26 C25 1_555 1_555
H16 C26 1_555 1_555
C27 C22 1_555 1_555
H17 C27 1_555 1_555
C28 N3 1_555 1_555
C29 C28 1_555 1_555
H18 C29 1_555 1_555
C30 C29 1_555 1_555
H19 C30 1_555 1_555
C31 C30 1_555 1_555
C32 C31 1_555 1_555
H20 C32 1_555 1_555
C33 C28 1_555 1_555
H21 C33 1_555 1_555
C34 N3 1_555 1_555
C35 C34 1_555 1_555
H22 C35 1_555 1_555
C36 C35 1_555 1_555
H23 C36 1_555 1_555
C37 C36 1_555 1_555
C38 C37 1_555 1_555
H24 C38 1_555 1_555
C39 C34 1_555 1_555
H25 C39 1_555 1_555
C40 O7 1_555 1_555
C41 C31 1_555 1_555
C42 C37 1_555 1_555
C43 N1 1_555 1_555
H26 C43 1_555 1_555
H27 C43 1_555 1_555
H28 C43 1_555 1_555
C44 N1 1_555 1_555
H29 C44 1_555 1_555
H30 C44 1_555 1_555
H31 C44 1_555 1_555
O15 C45 1_555 1_555
C45 H32 1_555 1_555
N4 C45 1_555 1_555
C46 N4 1_555 1_555
H33 C46 1_555 1_555
H34 C46 1_555 1_555
H35 C46 1_555 1_555
C47 N4 1_555 1_555
H36 C47 1_555 1_555
H37 C47 1_555 1_555
H38 C47 1_555 1_555
O16 C48 1_555 1_555
C48 H39 1_555 1_555
N5 C48 1_555 1_555
C49 N5 1_555 1_555
H40 C49 1_555 1_555
H41 C49 1_555 1_555
H42 C49 1_555 1_555
C50 N5 1_555 1_555
H43 C50 1_555 1_555
H44 C50 1_555 1_555
H45 C50 1_555 1_555
O17 C51 1_555 1_555
C51 H46 1_555 1_555
N6 C51 1_555 1_555
C52 N6 1_555 1_555
H47 C52 1_555 1_555
H48 C52 1_555 1_555
H49 C52 1_555 1_555
C53 N6 1_555 1_555
H50 C53 1_555 1_555
H51 C53 1_555 1_555
H52 C53 1_555 1_555
O18 C54 1_555 1_555
C54 H53 1_555 1_555
N7 C54 1_555 1_555
C55 N7 1_555 1_555
H54 C55 1_555 1_555
H55 C55 1_555 1_555
H56 C55 1_555 1_555
C56 N7 1_555 1_555
H57 C56 1_555 1_555
H58 C56 1_555 1_555
H59 C56 1_555 1_555
N8 H60 1_555 1_555
H61 N8 1_555 1_555
C57 N8 1_555 1_555
H62 C57 1_555 1_555
H63 C57 1_555 1_555
H64 C57 1_555 1_555
C58 N8 1_555 1_555
H65 C58 1_555 1_555
H66 C58 1_555 1_555
H67 C58 1_555 1_555
Co1D O11 1_555 1_555
Co1G O11I 1_555 1_555
Co2I O1I 1_555 1_555
Co2D O12 1_555 1_555
Co2M O12I 1_555 1_555
Co3I O3I 1_555 1_555
Co3I_2 O4 1_555 1_555
Co3M O5 1_555 1_555
Co3G O6 1_555 1_555
Co3P O9 1_555 1_555
Co3_2 O4I 1_555 1_555
Co3D O5I 1_555 1_555
O1I Co1 1_555 1_555
O2I Co2I 1_555 1_555
O3I C20I 1_555 1_555
O4I C20I 1_555 1_555
O4I_2 Co3 1_555 1_555
O4_2 Co3I 1_555 1_555
O5I C21I 1_555 1_555
O5N Co3 1_555 1_555
O5E Co3I 1_555 1_555
O6I Co3P 1_555 1_555
O6E Co3 1_555 1_555
O6N Co3I 1_555 1_555
O7I Co1 1_555 1_555
O8I Co2I 1_555 1_555
O9I Co3G 1_555 1_555
O9Q Co3 1_555 1_555
O9H Co3I 1_555 1_555
O10I C41I 1_555 1_555
O11I C42I 1_555 1_555
O11H Co1 1_555 1_555
O11Q Co1 1_555 1_555
O12I C42I 1_555 1_555
O12H Co2 1_555 1_555
O12Q Co2I 1_555 1_555
O13I Co2I 1_555 1_555
N1I Co2I 1_555 1_555
H1I N1I 1_555 1_555
N2I C1I 1_555 1_555
N3I C22I 1_555 1_555
C1I C2I 1_555 1_555
C2I H2I 1_555 1_555
C3I C2I 1_555 1_555
H3I C3I 1_555 1_555
C4I C3I 1_555 1_555
C5I C4I 1_555 1_555
H4I C5I 1_555 1_555
C6I C1I 1_555 1_555
H5I C6I 1_555 1_555
C7I N2I 1_555 1_555
C8I C7I 1_555 1_555
H6I C8I 1_555 1_555
C9I C8I 1_555 1_555
H7I C9I 1_555 1_555
C10I C9I 1_555 1_555
C11I C10I 1_555 1_555
H8I C11I 1_555 1_555
C12I C7I 1_555 1_555
H9I C12I 1_555 1_555
C13I N2I 1_555 1_555
C14I C13I 1_555 1_555
H10I C14I 1_555 1_555
C15I C14I 1_555 1_555
H11I C15I 1_555 1_555
C16I C15I 1_555 1_555
C17I C16I 1_555 1_555
H12I C17I 1_555 1_555
C18I C13I 1_555 1_555
H13I C18I 1_555 1_555
C19I O1I 1_555 1_555
C20I C10I 1_555 1_555
C21I O6I 1_555 1_555
C22I C23I 1_555 1_555
C23I H14I 1_555 1_555
C24I C23I 1_555 1_555
H15I C24I 1_555 1_555
C25I C24I 1_555 1_555
C26I C25I 1_555 1_555
H16I C26I 1_555 1_555
C27I C22I 1_555 1_555
H17I C27I 1_555 1_555
C28I N3I 1_555 1_555
C29I C28I 1_555 1_555
H18I C29I 1_555 1_555
C30I C29I 1_555 1_555
H19I C30I 1_555 1_555
C31I C30I 1_555 1_555
C32I C31I 1_555 1_555
H20I C32I 1_555 1_555
C33I C28I 1_555 1_555
H21I C33I 1_555 1_555
C34I N3I 1_555 1_555
C35I C34I 1_555 1_555
H22I C35I 1_555 1_555
C36I C35I 1_555 1_555
H23I C36I 1_555 1_555
C37I C36I 1_555 1_555
C38I C37I 1_555 1_555
H24I C38I 1_555 1_555
C39I C34I 1_555 1_555
H25I C39I 1_555 1_555
C40I O7I 1_555 1_555
C41I O9I 1_555 1_555
C42I C37I 1_555 1_555
C43I N1I 1_555 1_555
H26I C43I 1_555 1_555
H27I C43I 1_555 1_555
H28I C43I 1_555 1_555
C44I N1I 1_555 1_555
H29I C44I 1_555 1_555
H30I C44I 1_555 1_555
H31I C44I 1_555 1_555
O8 C40 1_555 1_555
C4 C19 1_555 1_555
C5 C6 1_555 1_555
C11 C12 1_555 1_555
C17 C18 1_555 1_555
C25 C40 1_555 1_555
C26 C27 1_555 1_555
C32 C33 1_555 1_555
C38 C39 1_555 1_555
O2I C19I 1_555 1_555
O8I C40I 1_555 1_555
C4I C19I 1_555 1_555
C5I C6I 1_555 1_555
C11I C12I 1_555 1_555
C16I C21I 1_555 1_555
C17I C18I 1_555 1_555
C25I C40I 1_555 1_555
C26I C27I 1_555 1_555
C31I C41I 1_555 1_555
C32I C33I 1_555 1_555
C38I C39I 1_555 1_555

#END
