
#######################################################################
#
#                 Cambridge Crystallographic Data Centre
#                                CCDC 
#
#######################################################################
#
# If this CIF has been generated from an entry in the Cambridge 
# Structural Database, then it will include bibliographic, chemical, 
# crystal, experimental, refinement or atomic coordinate data resulting 
# from the CCDC's data processing and validation procedures.
#
#######################################################################

data_VEFQOO
_symmetry_cell_setting           orthorhombic
_symmetry_space_group_name_H-M   'P b c a'
_symmetry_Int_Tables_number      61
_space_group_name_Hall           '-P 2ac 2ab'
loop_
_symmetry_equiv_pos_site_id
_symmetry_equiv_pos_as_xyz
1 x,y,z
2 1/2-x,-y,1/2+z
3 -x,1/2+y,1/2-z
4 1/2+x,1/2-y,-z
5 -x,-y,-z
6 1/2+x,y,1/2-z
7 x,1/2-y,1/2+z
8 1/2-x,1/2+y,z
_cell_length_a                   15.064(3)
_cell_length_b                   18.596(4)
_cell_length_c                   19.534(4)
_cell_angle_alpha                90
_cell_angle_beta                 90
_cell_angle_gamma                90
_cell_volume                     5472.06
loop_
_atom_site_label
_atom_site_type_symbol
_atom_site_fract_x
_atom_site_fract_y
_atom_site_fract_z
Co1 Co 0.98267(4) 0.19363(3) 0.30916(3)
N1 N 0.9316(2) 0.10464(16) 0.36943(16)
N2 N 0.9280(2) 0.24522(17) 0.39717(17)
N3 N 1.1064(2) 0.16499(18) 0.36098(18)
N4 N 1.0512(2) 0.13055(17) 0.23350(17)
C1 C 1.0164(3) -0.1837(2) 0.2896(2)
C2 C 0.9889(3) -0.1086(2) 0.3114(2)
C3 C 0.9412(3) -0.0639(2) 0.2670(2)
H1 H 0.9236 -0.0807 0.2242
C4 C 0.9204(3) 0.0057(2) 0.2873(2)
H2 H 0.8896 0.0359 0.2577
C5 C 0.9454(3) 0.0305(2) 0.3517(2)
C6 C 0.8989(3) 0.1229(2) 0.4273(2)
H3 H 0.8770 0.0884 0.4573
C7 C 0.8966(3) 0.2000(2) 0.4456(2)
C8 C 0.8671(3) 0.2237(3) 0.5098(2)
H4 H 0.8447 0.1916 0.5420
C9 C 0.8724(3) 0.2970(3) 0.5238(3)
H5 H 0.8545 0.3146 0.5661
C10 C 0.9040(3) 0.3429(3) 0.4747(3)
H6 H 0.9076 0.3920 0.4833
C11 C 0.9304(3) 0.3154(2) 0.4123(2)
H7 H 0.9509 0.3473 0.3791
C12 C 0.9919(3) -0.0141(2) 0.3959(2)
H8 H 1.0085 0.0021 0.4390
C13 C 1.0132(3) -0.0833(2) 0.3748(2)
H9 H 1.0447 -0.1132 0.4043
C14 C 1.2074(3) 0.2213(3) 0.6391(3)
C15 C 1.1771(3) 0.2057(3) 0.5674(2)
C16 C 1.1750(3) 0.1351(3) 0.5425(2)
H10 H 1.1892 0.0970 0.5713
C17 C 1.1521(3) 0.1218(2) 0.4753(2)
H11 H 1.1508 0.0748 0.4592
C18 C 1.1309(3) 0.1782(2) 0.4315(2)
C19 C 1.1516(3) 0.1194(2) 0.3269(2)
H12 H 1.2021 0.0992 0.3463
C20 C 1.1253(3) 0.0984(2) 0.2576(2)
C21 C 1.1718(3) 0.0478(3) 0.2200(3)
H13 H 1.2219 0.0258 0.2383
C22 C 1.1428(4) 0.0304(3) 0.1548(3)
H14 H 1.1726 -0.0040 0.1290
C23 C 1.0692(4) 0.0647(3) 0.1288(3)
H15 H 1.0494 0.0551 0.0847
C24 C 1.0253(3) 0.1140(3) 0.1699(2)
H16 H 0.9752 0.1367 0.1524
C25 C 1.1542(3) 0.2619(3) 0.5246(3)
H17 H 1.1550 0.3088 0.5410
C26 C 1.1297(3) 0.2485(2) 0.4565(2)
H18 H 1.1127 0.2862 0.4281
O1 O 0.9835(2) -0.20903(14) 0.23469(16)
O2 O 0.86200(19) 0.18341(14) 0.25234(15)
O3 O 1.0721(2) -0.21580(16) 0.32681(17)
O5 O 1.2183(2) 0.2823(2) 0.66115(19)
O6 O 1.2245(3) 0.1631(2) 0.67643(19)
H19 H 0.8201 0.1974 0.2767
H20 H 0.8727 0.2158 0.2247
Co1B Co 1.01733(4) -0.30637(3) 0.19084(3)
O1B O 1.0165(2) 0.29097(14) 0.26531(16)
Cl1 Cl 1.18101(9) 0.03115(7) -0.07345(6)
O7 O 1.2570(6) 0.0569(5) -0.0974(7)
O8 O 1.2005(8) 0.0230(4) -0.0087(3)
O9 O 1.1171(5) 0.0803(3) -0.0865(5)
O10 O 1.1669(3) -0.0353(2) -0.1054(3)
O4 O 1.2433(4) 0.1836(3) 0.8079(2)
H21 H 1.2678 0.1495 0.7867
H22 H 1.1956 0.1958 0.7891
H23 H 1.2739 0.2133 0.8415
loop_
_geom_bond_atom_site_label_1
_geom_bond_atom_site_label_2
_geom_bond_site_symmetry_1
_geom_bond_site_symmetry_2
Co1 N1 1_555 1_555
Cl1 O7 1_555 1_555
N1 C5 1_555 1_555
N2 Co1 1_555 1_555
N3 Co1 1_555 1_555
N4 Co1 1_555 1_555
C1 C2 1_555 1_555
C2 C3 1_555 1_555
C3 H1 1_555 1_555
C4 C3 1_555 1_555
H2 C4 1_555 1_555
C5 C4 1_555 1_555
C6 N1 1_555 1_555
H3 C6 1_555 1_555
C7 N2 1_555 1_555
C8 C7 1_555 1_555
H4 C8 1_555 1_555
C9 C8 1_555 1_555
H5 C9 1_555 1_555
C10 C9 1_555 1_555
H6 C10 1_555 1_555
C11 N2 1_555 1_555
H7 C11 1_555 1_555
C12 C5 1_555 1_555
H8 C12 1_555 1_555
C13 C2 1_555 1_555
H9 C13 1_555 1_555
C14 C15 1_555 1_555
C15 C16 1_555 1_555
C16 H10 1_555 1_555
C17 C16 1_555 1_555
H11 C17 1_555 1_555
C18 N3 1_555 1_555
C19 N3 1_555 1_555
H12 C19 1_555 1_555
C20 N4 1_555 1_555
C21 C20 1_555 1_555
H13 C21 1_555 1_555
C22 C21 1_555 1_555
H14 C22 1_555 1_555
C23 C22 1_555 1_555
H15 C23 1_555 1_555
C24 N4 1_555 1_555
H16 C24 1_555 1_555
C25 C15 1_555 1_555
H17 C25 1_555 1_555
C26 C18 1_555 1_555
H18 C26 1_555 1_555
O1 C1 1_555 1_555
O2 Co1 1_555 1_555
O3 C1 1_555 1_555
O4 H21 1_555 1_555
O5 C14 1_555 1_555
O6 C14 1_555 1_555
O8 Cl1 1_555 1_555
O9 Cl1 1_555 1_555
O10 Cl1 1_555 1_555
H19 O2 1_555 1_555
H20 O2 1_555 1_555
H22 O4 1_555 1_555
H23 O4 1_555 1_555
Co1B O1 1_555 1_555
O1B Co1 1_555 1_555
C6 C7 1_555 1_555
C10 C11 1_555 1_555
C12 C13 1_555 1_555
C17 C18 1_555 1_555
C19 C20 1_555 1_555
C23 C24 1_555 1_555
C25 C26 1_555 1_555

#END
