
#######################################################################
#
#                 Cambridge Crystallographic Data Centre
#                                CCDC 
#
#######################################################################
#
# If this CIF has been generated from an entry in the Cambridge 
# Structural Database, then it will include bibliographic, chemical, 
# crystal, experimental, refinement or atomic coordinate data resulting 
# from the CCDC's data processing and validation procedures.
#
#######################################################################

data_VEFRUV
_symmetry_cell_setting           monoclinic
_symmetry_space_group_name_H-M   'P 21/n'
_symmetry_Int_Tables_number      14
_space_group_name_Hall           '-P 2yn'
loop_
_symmetry_equiv_pos_site_id
_symmetry_equiv_pos_as_xyz
1 x,y,z
2 1/2-x,1/2+y,1/2-z
3 -x,-y,-z
4 1/2+x,1/2-y,1/2+z
_cell_length_a                   7.3478(5)
_cell_length_b                   14.5990(9)
_cell_length_c                   14.3445(9)
_cell_angle_alpha                90
_cell_angle_beta                 98.9170(10)
_cell_angle_gamma                90
_cell_volume                     1520.14
loop_
_atom_site_label
_atom_site_type_symbol
_atom_site_fract_x
_atom_site_fract_y
_atom_site_fract_z
N1 N 0.82028(19) 0.44894(9) 0.59162(10)
C1 C 0.6840(2) 0.42681(9) 0.61435(9)
Zn1 Zn 0.0000 0.5000 0.5000
C2 C 0.4106(2) -0.16257(9) 0.59284(10)
C3 C 0.1049(2) 0.20680(9) 0.46061(10)
C4 C 0.4966(2) -0.32195(10) 0.60651(11)
H1 H 0.5106 -0.3797 0.5780
C5 C 0.5405(2) -0.31173(10) 0.70302(11)
C6 C 0.0816(2) 0.29476(9) 0.49393(10)
H2 H 0.1144 0.3057 0.5597
C7 C 0.0546(2) 0.19076(10) 0.36508(11)
H3 H 0.0683 0.1316 0.3394
C8 C 0.5243(2) -0.22649(10) 0.74495(11)
H4 H 0.5577 -0.2195 0.8112
C9 C -0.0329(2) 0.34791(10) 0.34654(10)
H5 H -0.0809 0.3968 0.3063
C10 C 0.4321(2) -0.24736(10) 0.55154(11)
H6 H 0.4023 -0.2541 0.4851
C11 C -0.0162(2) 0.26258(11) 0.30756(10)
H7 H -0.0529 0.2531 0.2418
C12 C 0.4596(2) -0.15255(10) 0.68985(11)
H8 H 0.4485 -0.0945 0.7183
N2 N 0.01580(16) 0.36471(7) 0.43882(8)
C13 C 0.6029(3) -0.38964(11) 0.76099(12)
N3 N 0.6516(3) -0.45140(11) 0.80703(12)
C14 C 0.1886(2) 0.13920(9) 0.53396(11)
C15 C 0.3340(2) -0.08707(10) 0.53182(11)
H9 H 0.3125 -0.0954 0.4653
N4 N 0.2206(2) 0.05400(8) 0.50206(9)
N5 N 0.2961(2) -0.01099(8) 0.56621(10)
O1 O 0.2280(2) 0.16078(8) 0.61570(9)
N6 N 0.23688(18) 0.46845(9) 0.60496(10)
C16 C 0.3813(2) 0.43644(9) 0.62118(9)
N7 N 0.53774(18) 0.39375(9) 0.64252(10)
H10 H 0.196(3) 0.0387(14) 0.4462(14)
N1_2 N -0.17972(19) 0.44894(9) 0.59162(10)
N1B N 0.17972(19) 0.55106(9) 0.40838(10)
C1_2 C -0.3160(2) 0.42681(9) 0.61435(9)
Zn1_2 Zn 1.0000 0.5000 0.5000
Zn1_3 Zn -1.0000 0.5000 0.5000
C2B C -0.4106(2) 1.16257(9) 0.40716(10)
C3B C -0.1049(2) 0.79320(9) 0.53939(10)
C4B C -0.4966(2) 1.32195(10) 0.39349(11)
H1B H -0.5106 1.3797 0.4220
C5B C -0.5405(2) 1.31173(10) 0.29698(11)
C6B C -0.0816(2) 0.70524(9) 0.50607(10)
H2B H -0.1144 0.6943 0.4403
C7B C -0.0546(2) 0.80924(10) 0.63492(11)
H3B H -0.0683 0.8684 0.6606
C8B C -0.5243(2) 1.22649(10) 0.25505(11)
H4B H -0.5577 1.2195 0.1888
C9B C 0.0329(2) 0.65209(10) 0.65346(10)
H5B H 0.0809 0.6032 0.6937
C10B C -0.4321(2) 1.24736(10) 0.44846(11)
H6B H -0.4023 1.2541 0.5149
C11B C 0.0162(2) 0.73742(11) 0.69244(10)
H7B H 0.0529 0.7469 0.7582
C12B C -0.4596(2) 1.15255(10) 0.31015(11)
H8B H -0.4485 1.0945 0.2817
N2B N -0.01580(16) 0.63529(7) 0.56118(8)
C13B C -0.6029(3) 1.38964(11) 0.23901(12)
N3B N -0.6516(3) 1.45140(11) 0.19297(12)
C14B C -0.1886(2) 0.86080(9) 0.46604(11)
C15B C -0.3340(2) 1.08707(10) 0.46818(11)
H9B H -0.3125 1.0954 0.5347
N4B N -0.2206(2) 0.94600(8) 0.49794(9)
N5B N -0.2961(2) 1.01099(8) 0.43379(10)
O1B O -0.2280(2) 0.83922(8) 0.38430(9)
N6_2 N -0.76312(18) 0.46845(9) 0.60496(10)
N6B N -0.23688(18) 0.53155(9) 0.39504(10)
C16_2 C -0.6187(2) 0.43644(9) 0.62118(9)
N7_2 N -0.46226(18) 0.39375(9) 0.64252(10)
H10B H -0.196(3) 0.9613(14) 0.5538(14)
loop_
_geom_bond_atom_site_label_1
_geom_bond_atom_site_label_2
_geom_bond_site_symmetry_1
_geom_bond_site_symmetry_2
N1 C1 1_555 1_555
C1 N7 1_555 1_555
Zn1 N2 1_555 1_555
C2 C10 1_555 1_555
C3 C6 1_555 1_555
C4 H1 1_555 1_555
C5 C4 1_555 1_555
C6 H2 1_555 1_555
C7 C3 1_555 1_555
H3 C7 1_555 1_555
C8 C5 1_555 1_555
H4 C8 1_555 1_555
C9 H5 1_555 1_555
C10 C4 1_555 1_555
H6 C10 1_555 1_555
C11 C7 1_555 1_555
H7 C11 1_555 1_555
C12 C2 1_555 1_555
H8 C12 1_555 1_555
N2 C6 1_555 1_555
C13 C5 1_555 1_555
N3 C13 1_555 1_555
C14 C3 1_555 1_555
C15 C2 1_555 1_555
H9 C15 1_555 1_555
N4 C14 1_555 1_555
N5 C15 1_555 1_555
O1 C14 1_555 1_555
N6 Zn1 1_555 1_555
C16 N6 1_555 1_555
N7 C16 1_555 1_555
H10 N4 1_555 1_555
N1_2 Zn1 1_555 1_555
N1B Zn1 1_555 1_555
C1_2 N1_2 1_555 1_555
Zn1_2 N1 1_555 1_555
Zn1_3 N6_2 1_555 1_555
C2B C10B 1_555 1_555
C3B C6B 1_555 1_555
C4B H1B 1_555 1_555
C5B C4B 1_555 1_555
C6B H2B 1_555 1_555
C7B C3B 1_555 1_555
H3B C7B 1_555 1_555
C8B C5B 1_555 1_555
H4B C8B 1_555 1_555
C9B H5B 1_555 1_555
C10B C4B 1_555 1_555
H6B C10B 1_555 1_555
C11B C7B 1_555 1_555
H7B C11B 1_555 1_555
C12B C2B 1_555 1_555
H8B C12B 1_555 1_555
N2B Zn1 1_555 1_555
C13B C5B 1_555 1_555
N3B C13B 1_555 1_555
C14B C3B 1_555 1_555
C15B C2B 1_555 1_555
H9B C15B 1_555 1_555
N4B C14B 1_555 1_555
N5B C15B 1_555 1_555
O1B C14B 1_555 1_555
N6_2 C16_2 1_555 1_555
N6B Zn1 1_555 1_555
C16_2 N7_2 1_555 1_555
N7_2 C1_2 1_555 1_555
H10B N4B 1_555 1_555
C8 C12 1_555 1_555
C9 C11 1_555 1_555
C9 N2 1_555 1_555
N4 N5 1_555 1_555
C6B N2B 1_555 1_555
C8B C12B 1_555 1_555
C9B C11B 1_555 1_555
C9B N2B 1_555 1_555
N4B N5B 1_555 1_555

#END
