
#######################################################################
#
#                 Cambridge Crystallographic Data Centre
#                                CCDC 
#
#######################################################################
#
# If this CIF has been generated from an entry in the Cambridge 
# Structural Database, then it will include bibliographic, chemical, 
# crystal, experimental, refinement or atomic coordinate data resulting 
# from the CCDC's data processing and validation procedures.
#
#######################################################################

data_VEFSAC
_symmetry_cell_setting           monoclinic
_symmetry_space_group_name_H-M   'P 21/n'
_symmetry_Int_Tables_number      14
_space_group_name_Hall           '-P 2yn'
loop_
_symmetry_equiv_pos_site_id
_symmetry_equiv_pos_as_xyz
1 x,y,z
2 1/2-x,1/2+y,1/2-z
3 -x,-y,-z
4 1/2+x,1/2-y,1/2+z
_cell_length_a                   7.5384(8)
_cell_length_b                   14.7820(16)
_cell_length_c                   14.4587(15)
_cell_angle_alpha                90
_cell_angle_beta                 100.910(2)
_cell_angle_gamma                90
_cell_volume                     1582.05
loop_
_atom_site_label
_atom_site_type_symbol
_atom_site_fract_x
_atom_site_fract_y
_atom_site_fract_z
N1 N -0.2582(4) 0.0337(2) 0.6222(2)
C1 C -0.1182(5) 0.0661(2) 0.6290(2)
Cd1 Cd 0.5000 0.0000 0.5000
C2 C 0.6097(4) 0.2992(2) 0.4609(2)
C3 C 0.9145(5) 0.6640(2) 0.5950(2)
C4 C 0.4663(5) 0.1616(2) 0.3459(2)
H1 H 0.4157 0.1139 0.3052
C5 C 1.0427(5) 0.8120(2) 0.7051(2)
C6 C 0.5871(5) 0.2125(2) 0.4926(2)
H2 H 0.6232 0.2007 0.5580
C7 C 0.6938(5) 0.3654(2) 0.5350(2)
C8 C 0.5556(5) 0.3159(2) 0.3660(2)
H3 H 0.5681 0.3745 0.3411
C9 C 0.8404(5) 0.5888(2) 0.5344(2)
H4 H 0.8203 0.5964 0.4680
C10 C 0.9612(5) 0.6548(2) 0.6922(2)
H5 H 0.9490 0.5979 0.7209
C11 C 0.9994(5) 0.8209(2) 0.6091(2)
H6 H 1.0130 0.8776 0.5803
C12 C 0.9364(5) 0.7473(2) 0.5546(2)
H7 H 0.9072 0.7536 0.4881
C13 C 1.0251(5) 0.7285(2) 0.7467(2)
H8 H 1.0573 0.7223 0.8132
C14 C 0.4829(5) 0.2458(2) 0.3076(2)
H9 H 0.4449 0.2555 0.2419
C15 C 1.1043(6) 0.8895(2) 0.7633(3)
N2 N 0.5176(3) 0.14417(16) 0.43663(18)
N3 N 0.7276(4) 0.44922(18) 0.5038(2)
N4 N 0.8022(4) 0.51372(16) 0.56802(19)
O1 O 0.7332(5) 0.34424(17) 0.61733(18)
N5 N 0.3022(4) 0.0520(2) 0.5925(2)
N6 N 1.1515(6) 0.9508(2) 0.8085(2)
C16 C 0.1725(5) 0.0746(2) 0.6146(2)
N7 N 0.0333(4) 0.10933(19) 0.6417(2)
H10 H 0.700(5) 0.464(2) 0.4431(14)
N1B N 0.2582(4) -0.0337(2) 0.3778(2)
N1_2 N 0.7418(4) 0.0337(2) 0.6222(2)
C1_2 C 0.8818(5) 0.0661(2) 0.6290(2)
Cd1_2 Cd -0.5000 0.0000 0.5000
Cd1_3 Cd 1.5000 0.0000 0.5000
C2B C 0.3903(4) -0.2992(2) 0.5391(2)
C3B C 0.0855(5) -0.6640(2) 0.4050(2)
C4B C 0.5337(5) -0.1616(2) 0.6541(2)
H1B H 0.5843 -0.1139 0.6948
C5B C -0.0427(5) -0.8120(2) 0.2949(2)
C6B C 0.4129(5) -0.2125(2) 0.5074(2)
H2B H 0.3768 -0.2007 0.4420
C7B C 0.3062(5) -0.3654(2) 0.4650(2)
C8B C 0.4444(5) -0.3159(2) 0.6340(2)
H3B H 0.4319 -0.3745 0.6589
C9B C 0.1596(5) -0.5888(2) 0.4656(2)
H4B H 0.1797 -0.5964 0.5320
C10B C 0.0388(5) -0.6548(2) 0.3078(2)
H5B H 0.0510 -0.5979 0.2791
C11B C 0.0006(5) -0.8209(2) 0.3909(2)
H6B H -0.0130 -0.8776 0.4197
C12B C 0.0636(5) -0.7473(2) 0.4454(2)
H7B H 0.0928 -0.7536 0.5119
C13B C -0.0251(5) -0.7285(2) 0.2533(2)
H8B H -0.0573 -0.7223 0.1868
C14B C 0.5171(5) -0.2458(2) 0.6924(2)
H9B H 0.5551 -0.2555 0.7581
C15B C -0.1043(6) -0.8895(2) 0.2367(3)
N2B N 0.4824(3) -0.14417(16) 0.56337(18)
N3B N 0.2724(4) -0.44922(18) 0.4962(2)
N4B N 0.1978(4) -0.51372(16) 0.43198(19)
O1B O 0.2668(5) -0.34424(17) 0.38267(18)
N5B N 0.6978(4) -0.0520(2) 0.4075(2)
N5_2 N 1.3022(4) 0.0520(2) 0.5925(2)
N6B N -0.1515(6) -0.9508(2) 0.1915(2)
C16_2 C 1.1725(5) 0.0746(2) 0.6146(2)
N7_2 N 1.0333(4) 0.10933(19) 0.6417(2)
H10B H 0.300(5) -0.464(2) 0.5569(14)
loop_
_geom_bond_atom_site_label_1
_geom_bond_atom_site_label_2
_geom_bond_site_symmetry_1
_geom_bond_site_symmetry_2
N1 C1 1_555 1_555
C1 N7 1_555 1_555
Cd1 N2 1_555 1_555
C2 C6 1_555 1_555
C3 C9 1_555 1_555
C4 H1 1_555 1_555
C5 C11 1_555 1_555
C6 H2 1_555 1_555
C7 C2 1_555 1_555
C8 C2 1_555 1_555
H3 C8 1_555 1_555
C9 H4 1_555 1_555
C10 C3 1_555 1_555
H5 C10 1_555 1_555
C11 H6 1_555 1_555
C12 C3 1_555 1_555
H7 C12 1_555 1_555
C13 C5 1_555 1_555
H8 C13 1_555 1_555
C14 C4 1_555 1_555
H9 C14 1_555 1_555
C15 C5 1_555 1_555
N2 C4 1_555 1_555
N3 C7 1_555 1_555
N4 C9 1_555 1_555
O1 C7 1_555 1_555
N5 Cd1 1_555 1_555
N6 C15 1_555 1_555
C16 N5 1_555 1_555
N7 C16 1_555 1_555
H10 N3 1_555 1_555
N1B Cd1 1_555 1_555
N1_2 Cd1 1_555 1_555
C1_2 N1_2 1_555 1_555
Cd1_2 N1 1_555 1_555
Cd1_3 N5_2 1_555 1_555
C2B C6B 1_555 1_555
C3B C9B 1_555 1_555
C4B H1B 1_555 1_555
C5B C11B 1_555 1_555
C6B H2B 1_555 1_555
C7B C2B 1_555 1_555
C8B C2B 1_555 1_555
H3B C8B 1_555 1_555
C9B H4B 1_555 1_555
C10B C3B 1_555 1_555
H5B C10B 1_555 1_555
C11B H6B 1_555 1_555
C12B C3B 1_555 1_555
H7B C12B 1_555 1_555
C13B C5B 1_555 1_555
H8B C13B 1_555 1_555
C14B C4B 1_555 1_555
H9B C14B 1_555 1_555
C15B C5B 1_555 1_555
N2B Cd1 1_555 1_555
N3B C7B 1_555 1_555
N4B C9B 1_555 1_555
O1B C7B 1_555 1_555
N5B Cd1 1_555 1_555
N5_2 C16_2 1_555 1_555
N6B C15B 1_555 1_555
C16_2 N7_2 1_555 1_555
N7_2 C1_2 1_555 1_555
H10B N3B 1_555 1_555
C6 N2 1_555 1_555
C8 C14 1_555 1_555
C10 C13 1_555 1_555
C11 C12 1_555 1_555
N3 N4 1_555 1_555
C4B N2B 1_555 1_555
C6B N2B 1_555 1_555
C8B C14B 1_555 1_555
C10B C13B 1_555 1_555
C11B C12B 1_555 1_555
N3B N4B 1_555 1_555

#END
