
#######################################################################
#
#                 Cambridge Crystallographic Data Centre
#                                CCDC 
#
#######################################################################
#
# If this CIF has been generated from an entry in the Cambridge 
# Structural Database, then it will include bibliographic, chemical, 
# crystal, experimental, refinement or atomic coordinate data resulting 
# from the CCDC's data processing and validation procedures.
#
#######################################################################

data_VEFTEH
_symmetry_cell_setting           monoclinic
_symmetry_space_group_name_H-M   'C 2/c'
_symmetry_Int_Tables_number      15
_space_group_name_Hall           '-C 2yn'
loop_
_symmetry_equiv_pos_site_id
_symmetry_equiv_pos_as_xyz
1 x,y,z
2 -x,y,1/2-z
3 1/2+x,1/2+y,z
4 1/2-x,1/2+y,1/2-z
5 -x,-y,-z
6 x,-y,1/2+z
7 1/2-x,1/2-y,-z
8 1/2+x,1/2-y,1/2+z
_cell_length_a                   14.602(5)
_cell_length_b                   17.978(6)
_cell_length_c                   16.997(6)
_cell_angle_alpha                90
_cell_angle_beta                 106.590(5)
_cell_angle_gamma                90
_cell_volume                     4276.22
loop_
_atom_site_label
_atom_site_type_symbol
_atom_site_fract_x
_atom_site_fract_y
_atom_site_fract_z
Ni1 Ni -0.13386(5) 0.42290(4) 0.03831(4)
Br1 Br -0.14161(7) 0.14313(4) -0.28819(6)
O1 O -0.1270(3) 0.4896(2) -0.3848(2)
O2 O -0.1096(4) 0.3909(3) -0.4593(3)
O3 O -0.1320(3) 0.4533(2) -0.0924(2)
O4 O -0.1352(3) 0.3390(2) -0.0472(2)
N1 N -0.1333(3) 0.3473(2) 0.1306(3)
N2 N 0.2157(3) 0.0680(2) 0.4961(3)
C1 C -0.1231(4) 0.3709(3) -0.3254(3)
C2 C -0.1247(4) 0.3993(3) -0.2497(3)
H1 H -0.1234 0.4505 -0.2421
C3 C -0.1281(4) 0.3529(3) -0.1849(3)
C4 C -0.1316(4) 0.2759(3) -0.1967(4)
H2 H -0.1342 0.2438 -0.1544
C5 C -0.1313(4) 0.2488(3) -0.2713(4)
C6 C -0.1264(4) 0.2939(3) -0.3364(4)
H3 H -0.1254 0.2732 -0.3863
C7 C -0.1196(4) 0.4207(3) -0.3967(3)
C8 C -0.1314(4) 0.3836(3) -0.1039(3)
C9 C -0.1406(4) 0.2736(3) 0.1142(4)
H4 H -0.1493 0.2579 0.0604
C10 C -0.1358(4) 0.2207(3) 0.1739(4)
H5 H -0.1412 0.1706 0.1596
C11 C -0.1230(4) 0.2411(3) 0.2549(4)
C12 C -0.1163(5) 0.3170(3) 0.2712(4)
H6 H -0.1084 0.3340 0.3244
C13 C -0.1212(5) 0.3666(3) 0.2092(4)
H7 H -0.1159 0.4170 0.2222
C14 C -0.1142(5) 0.1876(3) 0.3254(4)
H8 H -0.1661 0.1976 0.3490
H9 H -0.0550 0.1983 0.3673
C15 C -0.1156(4) 0.1051(3) 0.3057(4)
H10 H -0.0705 0.0954 0.2747
H11 H -0.1788 0.0916 0.2716
C16 C -0.0898(4) 0.0564(4) 0.3840(4)
H12 H -0.1248 0.0738 0.4211
H13 H -0.1087 0.0053 0.3693
C17 C 0.1759(5) 0.0167(3) 0.4396(4)
H14 H 0.2156 -0.0170 0.4237
C18 C 0.0783(5) 0.0114(4) 0.4039(4)
H15 H 0.0541 -0.0246 0.3641
C19 C 0.0161(4) 0.0592(3) 0.4268(4)
C20 C 0.0566(4) 0.1099(3) 0.4883(4)
H16 H 0.0180 0.1421 0.5075
C21 C 0.1556(4) 0.1122(3) 0.5211(4)
H17 H 0.1813 0.1463 0.5627
O5 O 0.0136(3) 0.4247(2) 0.0690(2)
H18 H 0.0310 0.4106 0.0297
H19 H 0.0420 0.4630 0.0899
Ni1G Ni 0.36614(5) 0.07710(4) 0.53831(4)
Ni1E Ni -0.13386(5) 0.57710(4) -0.46169(4)
O1E O -0.1270(3) 0.5104(2) 0.1152(2)
N2G N -0.2843(3) 0.4320(2) -0.0039(3)
loop_
_geom_bond_atom_site_label_1
_geom_bond_atom_site_label_2
_geom_bond_site_symmetry_1
_geom_bond_site_symmetry_2
Ni1 O3 1_555 1_555
Br1 C5 1_555 1_555
O1 C7 1_555 1_555
O2 C7 1_555 1_555
O3 C8 1_555 1_555
O4 Ni1 1_555 1_555
N1 Ni1 1_555 1_555
N2 C17 1_555 1_555
C1 C2 1_555 1_555
C2 H1 1_555 1_555
C3 C2 1_555 1_555
C4 C3 1_555 1_555
H2 C4 1_555 1_555
C5 C4 1_555 1_555
C6 C1 1_555 1_555
H3 C6 1_555 1_555
C7 C1 1_555 1_555
C8 O4 1_555 1_555
C9 N1 1_555 1_555
H4 C9 1_555 1_555
C10 C9 1_555 1_555
H5 C10 1_555 1_555
C11 C10 1_555 1_555
C12 C11 1_555 1_555
H6 C12 1_555 1_555
C13 N1 1_555 1_555
H7 C13 1_555 1_555
C14 C11 1_555 1_555
H8 C14 1_555 1_555
H9 C14 1_555 1_555
C15 C14 1_555 1_555
H10 C15 1_555 1_555
H11 C15 1_555 1_555
C16 C15 1_555 1_555
H12 C16 1_555 1_555
H13 C16 1_555 1_555
C17 H14 1_555 1_555
C18 C17 1_555 1_555
H15 C18 1_555 1_555
C19 C16 1_555 1_555
C20 C19 1_555 1_555
H16 C20 1_555 1_555
C21 N2 1_555 1_555
H17 C21 1_555 1_555
O5 Ni1 1_555 1_555
H18 O5 1_555 1_555
H19 O5 1_555 1_555
Ni1G N2 1_555 1_555
Ni1E O1 1_555 1_555
O1E Ni1 1_555 1_555
N2G Ni1 1_555 1_555
C3 C8 1_555 1_555
C5 C6 1_555 1_555
C12 C13 1_555 1_555
C18 C19 1_555 1_555
C20 C21 1_555 1_555

#END
