
#######################################################################
#
#                 Cambridge Crystallographic Data Centre
#                                CCDC 
#
#######################################################################
#
# If this CIF has been generated from an entry in the Cambridge 
# Structural Database, then it will include bibliographic, chemical, 
# crystal, experimental, refinement or atomic coordinate data resulting 
# from the CCDC's data processing and validation procedures.
#
#######################################################################

data_VEFTAD
_symmetry_cell_setting           monoclinic
_symmetry_space_group_name_H-M   'C 2/c'
_symmetry_Int_Tables_number      15
_space_group_name_Hall           '-C 2yn'
loop_
_symmetry_equiv_pos_site_id
_symmetry_equiv_pos_as_xyz
1 x,y,z
2 -x,y,1/2-z
3 1/2+x,1/2+y,z
4 1/2-x,1/2+y,1/2-z
5 -x,-y,-z
6 x,-y,1/2+z
7 1/2-x,1/2-y,-z
8 1/2+x,1/2-y,1/2+z
_cell_length_a                   14.279(12)
_cell_length_b                   18.573(16)
_cell_length_c                   16.228(14)
_cell_angle_alpha                90
_cell_angle_beta                 99.777(10)
_cell_angle_gamma                90
_cell_volume                     4241.22
loop_
_atom_site_label
_atom_site_type_symbol
_atom_site_fract_x
_atom_site_fract_y
_atom_site_fract_z
Co1 Co 0.13447(3) 0.583105(19) 0.96458(2)
Br1 Br 0.12989(4) 0.846811(19) 1.32713(3)
O1 O 0.12010(15) 0.67490(11) 1.05222(12)
O2 O 0.11390(14) 0.56284(11) 1.09242(11)
O3 O 0.15346(16) 0.59215(12) 1.48726(12)
O4 O 0.14302(15) 0.50482(10) 1.39208(12)
O5 O -0.01443(13) 0.56971(10) 0.92396(11)
H1 H -0.0237 0.5276 0.9090
H2 H -0.0529 0.5813 0.9556
N1 N 0.13936(16) 0.65657(11) 0.86544(13)
N2 N -0.21344(15) 0.91900(11) 0.50723(13)
C1 C 0.11598(19) 0.62961(16) 1.10825(17)
C2 C 0.11912(18) 0.65370(14) 1.19731(16)
C3 C 0.12592(17) 0.60332(14) 1.26101(15)
H3 H 0.1247 0.5545 1.2480
C4 C 0.13461(17) 0.62461(13) 1.34420(15)
C5 C 0.13568(19) 0.69757(15) 1.36333(17)
H4 H 0.1417 0.7127 1.4186
C6 C 0.1277(2) 0.74732(15) 1.29944(19)
C7 C 0.1198(2) 0.72667(15) 1.21700(18)
H5 H 0.1150 0.7611 1.1749
C8 C 0.14468(19) 0.56997(16) 1.41420(17)
C9 C 0.1458(2) 0.72740(14) 0.87846(17)
H6 H 0.1552 0.7440 0.9333
C10 C 0.1394(2) 0.77737(14) 0.81501(17)
H7 H 0.1451 0.8262 0.8277
C11 C 0.12438(18) 0.75516(14) 0.73273(16)
C12 C 0.1196(2) 0.68212(16) 0.71941(17)
H8 H 0.1116 0.6642 0.6651
C13 C 0.1265(2) 0.63521(15) 0.78584(17)
H9 H 0.1219 0.5861 0.7746
C14 C 0.1114(2) 0.80539(15) 0.65829(17)
H10 H 0.0507 0.7947 0.6237
H11 H 0.1604 0.7948 0.6254
C15 C 0.1145(2) 0.88533(16) 0.67741(18)
H12 H 0.1777 0.8981 0.7056
H13 H 0.0703 0.8959 0.7150
C16 C 0.0891(2) 0.93148(17) 0.5979(2)
H14 H 0.1072 0.9811 0.6108
H15 H 0.1245 0.9144 0.5558
C17 C -0.0160(2) 0.92809(15) 0.56358(18)
C18 C -0.0802(2) 0.97033(15) 0.59700(18)
H16 H -0.0582 1.0027 0.6396
C19 C -0.1762(2) 0.96498(14) 0.56794(17)
H17 H -0.2172 0.9945 0.5914
C20 C -0.1511(2) 0.87904(16) 0.47457(17)
H18 H -0.1745 0.8472 0.4318
C21 C -0.0542(2) 0.88214(17) 0.50047(19)
H19 H -0.0145 0.8530 0.4751
Co1E Co 0.13447(3) 0.416895(19) 1.46458(2)
Co1G Co -0.36553(3) 0.916895(19) 0.46458(2)
O4E O 0.14302(15) 0.49518(10) 0.89208(12)
N2G N 0.28656(15) 0.58100(11) 1.00723(13)
loop_
_geom_bond_atom_site_label_1
_geom_bond_atom_site_label_2
_geom_bond_site_symmetry_1
_geom_bond_site_symmetry_2
Co1 O1 1_555 1_555
Br1 C6 1_555 1_555
O1 C1 1_555 1_555
O2 Co1 1_555 1_555
O3 C8 1_555 1_555
O4 C8 1_555 1_555
O5 Co1 1_555 1_555
H1 O5 1_555 1_555
H2 O5 1_555 1_555
N1 Co1 1_555 1_555
N2 C19 1_555 1_555
C1 O2 1_555 1_555
C2 C1 1_555 1_555
C3 C2 1_555 1_555
H3 C3 1_555 1_555
C4 C3 1_555 1_555
C5 C4 1_555 1_555
H4 C5 1_555 1_555
C6 C5 1_555 1_555
C7 C2 1_555 1_555
H5 C7 1_555 1_555
C8 C4 1_555 1_555
C9 N1 1_555 1_555
H6 C9 1_555 1_555
C10 C9 1_555 1_555
H7 C10 1_555 1_555
C11 C10 1_555 1_555
C12 C11 1_555 1_555
H8 C12 1_555 1_555
C13 N1 1_555 1_555
H9 C13 1_555 1_555
C14 C11 1_555 1_555
H10 C14 1_555 1_555
H11 C14 1_555 1_555
C15 C14 1_555 1_555
H12 C15 1_555 1_555
H13 C15 1_555 1_555
C16 C15 1_555 1_555
H14 C16 1_555 1_555
H15 C16 1_555 1_555
C17 C16 1_555 1_555
C18 C17 1_555 1_555
H16 C18 1_555 1_555
C19 C18 1_555 1_555
H17 C19 1_555 1_555
C20 N2 1_555 1_555
H18 C20 1_555 1_555
C21 C17 1_555 1_555
H19 C21 1_555 1_555
Co1E O4 1_555 1_555
Co1G N2 1_555 1_555
O4E Co1 1_555 1_555
N2G Co1 1_555 1_555
C6 C7 1_555 1_555
C12 C13 1_555 1_555
C20 C21 1_555 1_555

#END
