
#######################################################################
#
#                 Cambridge Crystallographic Data Centre
#                                CCDC 
#
#######################################################################
#
# If this CIF has been generated from an entry in the Cambridge 
# Structural Database, then it will include bibliographic, chemical, 
# crystal, experimental, refinement or atomic coordinate data resulting 
# from the CCDC's data processing and validation procedures.
#
#######################################################################

data_VEFTOR
_symmetry_cell_setting           monoclinic
_symmetry_space_group_name_H-M   'P 21/n'
_symmetry_Int_Tables_number      14
_space_group_name_Hall           '-P 2yn'
loop_
_symmetry_equiv_pos_site_id
_symmetry_equiv_pos_as_xyz
1 x,y,z
2 1/2-x,1/2+y,1/2-z
3 -x,-y,-z
4 1/2+x,1/2-y,1/2+z
_cell_length_a                   8.8470(18)
_cell_length_b                   7.3875(15)
_cell_length_c                   34.624(7)
_cell_angle_alpha                90
_cell_angle_beta                 91.85(3)
_cell_angle_gamma                90
_cell_volume                     2261.75
loop_
_atom_site_label
_atom_site_type_symbol
_atom_site_fract_x
_atom_site_fract_y
_atom_site_fract_z
Cd1 Cd -0.19400(4) 0.43908(6) 0.213868(10)
N1 N 0.0553(5) 0.4252(6) 0.20702(13)
N2 N 0.2943(5) 0.5002(7) 0.20358(14)
N3 N 0.4527(6) 0.5951(7) 0.12785(14)
H1 H 0.3644 0.6382 0.1223
N4 N 0.6490(5) 0.4945(6) 0.16318(12)
O1 O -0.2799(6) 0.8870(6) 0.15171(12)
O2 O -0.1742(5) 1.1417(5) 0.18620(12)
O3 O -0.4203(5) 1.0292(6) 0.20268(13)
S1 S -0.16977(16) 0.81453(19) 0.22895(4)
S2 S -0.27355(16) 0.98465(19) 0.18771(4)
C1 C 0.1514(6) 0.5598(8) 0.20419(16)
H2 H 0.1237 0.6811 0.2028
C2 C 0.1433(7) 0.2705(8) 0.20796(17)
H3 H 0.1066 0.1529 0.2097
C3 C 0.2909(6) 0.3158(9) 0.20594(19)
H4 H 0.3732 0.2375 0.2061
C4 C 0.4312(6) 0.6121(8) 0.19936(17)
H5 H 0.4987 0.5942 0.2217
H6 H 0.4028 0.7389 0.1985
C5 C 0.5120(7) 0.5645(7) 0.16338(15)
C6 C 0.6839(7) 0.4816(8) 0.12413(15)
C7 C 0.8138(7) 0.4215(9) 0.10702(18)
H7 H 0.8962 0.3799 0.1219
C8 C 0.8173(9) 0.4255(10) 0.06719(19)
H8 H 0.9028 0.3847 0.0549
C9 C 0.6941(9) 0.4899(11) 0.04532(19)
H9 H 0.7007 0.4942 0.0186
C10 C 0.5640(9) 0.5469(10) 0.06158(18)
H10 H 0.4813 0.5858 0.0465
C11 C 0.5606(7) 0.5443(8) 0.10161(17)
Cd1_2 Cd 0.80600(4) 0.43908(6) 0.213868(10)
Cd1_3 Cd -0.19400(4) 1.43908(6) 0.213868(10)
Cd1A Cd -0.30600(4) 0.93908(6) 0.286132(10)
N4_2 N -0.3510(5) 0.4945(6) 0.16318(12)
O2_2 O -0.1742(5) 0.1417(5) 0.18620(12)
S1A S -0.33023(16) 0.31453(19) 0.27105(4)
N5 N 0.0139(7) 0.8310(9) 0.07227(18)
O4 O 0.1677(7) 0.7255(14) 0.1198(2)
C12 C 0.0545(10) 0.8041(14) 0.1083(3)
H11 H -0.0090 0.8491 0.1269
C13 C 0.1017(12) 0.7615(16) 0.0411(3)
H12 H 0.1897 0.7007 0.0515
H13 H 0.1322 0.8598 0.0250
H14 H 0.0414 0.6777 0.0260
C14 C -0.1261(10) 0.9284(12) 0.0626(3)
H15 H -0.1727 0.9659 0.0859
H16 H -0.1938 0.8504 0.0482
H17 H -0.1037 1.0330 0.0473
N6 N 0.6438(10) 0.8584(10) 0.9240(2)
O5 O 0.8170(9) 0.7263(12) 0.9630(2)
C15 C 0.7613(14) 0.7660(17) 0.9318(4)
H18 H 0.8119 0.7225 0.9106
C16 C 0.5515(19) 0.914(2) 0.9575(6)
H19 H 0.6038 0.8813 0.9812
H20 H 0.4554 0.8539 0.9560
H21 H 0.5362 1.0427 0.9569
C17 C 0.579(2) 0.9000(16) 0.8881(5)
H22 H 0.6457 0.8616 0.8683
H23 H 0.5638 1.0283 0.8862
H24 H 0.4841 0.8388 0.8849
loop_
_geom_bond_atom_site_label_1
_geom_bond_atom_site_label_2
_geom_bond_site_symmetry_1
_geom_bond_site_symmetry_2
Cd1 N1 1_555 1_555
N1 C1 1_555 1_555
N2 C1 1_555 1_555
N3 H1 1_555 1_555
N4 C5 1_555 1_555
N5 C12 1_555 1_555
N6 C15 1_555 1_555
O1 S2 1_555 1_555
O2 S2 1_555 1_555
O3 S2 1_555 1_555
O4 C12 1_555 1_555
O5 C15 1_555 1_555
S1 Cd1 1_555 1_555
S2 S1 1_555 1_555
C1 H2 1_555 1_555
C2 N1 1_555 1_555
H3 C2 1_555 1_555
C3 N2 1_555 1_555
H4 C3 1_555 1_555
C4 N2 1_555 1_555
H5 C4 1_555 1_555
H6 C4 1_555 1_555
C5 N3 1_555 1_555
C6 N4 1_555 1_555
C7 C6 1_555 1_555
H7 C7 1_555 1_555
C8 C7 1_555 1_555
H8 C8 1_555 1_555
C9 C8 1_555 1_555
H9 C9 1_555 1_555
C10 C9 1_555 1_555
H10 C10 1_555 1_555
C11 N3 1_555 1_555
C12 H11 1_555 1_555
C13 N5 1_555 1_555
H12 C13 1_555 1_555
H13 C13 1_555 1_555
H14 C13 1_555 1_555
C14 N5 1_555 1_555
H15 C14 1_555 1_555
H16 C14 1_555 1_555
H17 C14 1_555 1_555
C15 H18 1_555 1_555
C16 N6 1_555 1_555
H19 C16 1_555 1_555
H20 C16 1_555 1_555
H21 C16 1_555 1_555
C17 N6 1_555 1_555
H22 C17 1_555 1_555
H23 C17 1_555 1_555
H24 C17 1_555 1_555
Cd1_2 N4 1_555 1_555
Cd1_3 O2 1_555 1_555
Cd1A S1 1_555 1_555
N4_2 Cd1 1_555 1_555
O2_2 Cd1 1_555 1_555
S1A Cd1 1_555 1_555
C2 C3 1_555 1_555
C4 C5 1_555 1_555
C6 C11 1_555 1_555
C10 C11 1_555 1_555

#END
