
#######################################################################
#
#                 Cambridge Crystallographic Data Centre
#                                CCDC 
#
#######################################################################
#
# If this CIF has been generated from an entry in the Cambridge 
# Structural Database, then it will include bibliographic, chemical, 
# crystal, experimental, refinement or atomic coordinate data resulting 
# from the CCDC's data processing and validation procedures.
#
#######################################################################

data_VEFTIL
_symmetry_cell_setting           monoclinic
_symmetry_space_group_name_H-M   'P 21'
_symmetry_Int_Tables_number      4
_space_group_name_Hall           'P 2yb'
loop_
_symmetry_equiv_pos_site_id
_symmetry_equiv_pos_as_xyz
1 x,y,z
2 -x,1/2+y,-z
_cell_length_a                   9.4407(19)
_cell_length_b                   10.169(2)
_cell_length_c                   16.405(3)
_cell_angle_alpha                90
_cell_angle_beta                 90.97(3)
_cell_angle_gamma                90
_cell_volume                     1574.69
loop_
_atom_site_label
_atom_site_type_symbol
_atom_site_fract_x
_atom_site_fract_y
_atom_site_fract_z
Cd1 Cd 0.02737(10) 0.30666(10) -0.22490(7)
Cd2 Cd 0.12769(10) 0.66386(11) -0.29814(7)
Br1 Br 0.14719(17) 0.42189(16) -0.37803(10)
Br2 Br -0.09842(19) 0.22899(18) -0.08376(11)
Br3 Br 0.06594(16) 0.56330(15) -0.15714(10)
Br4 Br -0.07862(15) 0.77294(18) -0.37758(12)
O1 O 0.0019(14) 0.0999(11) -0.2870(7)
H1 H -0.0072 0.0279 -0.2612
H2 H 0.0135 0.0839 -0.3373
O2 O 0.1644(11) 0.8795(11) -0.2176(7)
H3 H 0.2343 0.9314 -0.2227
H4 H 0.1143 0.9044 -0.1779
N1 N 0.2581(13) 0.2600(11) -0.1946(8)
N2 N 0.4756(12) 0.1782(14) -0.1985(8)
N3 N 0.4617(13) -0.1026(15) -0.1560(8)
N4 N 0.6970(12) -0.1062(14) -0.1457(8)
H5 H 0.7836 -0.0825 -0.1518
N5 N -0.1836(11) 0.3680(12) -0.2832(7)
N6 N -0.3970(12) 0.4652(12) -0.2936(7)
N7 N -0.6527(11) 0.7255(11) -0.3395(7)
N8 N -0.4208(12) 0.7328(12) -0.3532(8)
H6 H -0.3332 0.7101 -0.3490
C1 C 0.3416(16) 0.1767(17) -0.2344(10)
H7 H 0.3142 0.1258 -0.2790
C2 C 0.3388(17) 0.3126(17) -0.1355(9)
H8 H 0.3076 0.3737 -0.0976
C3 C 0.4751(17) 0.2639(18) -0.1384(10)
H9 H 0.5512 0.2870 -0.1046
C4 C 0.5883(15) 0.0880(17) -0.2219(10)
H10 H 0.6797 0.1290 -0.2119
H11 H 0.5798 0.0688 -0.2797
C5 C 0.5793(15) -0.0400(14) -0.1733(9)
C6 C 0.6511(18) -0.2202(16) -0.1056(8)
C7 C 0.7179(18) -0.3205(18) -0.0629(11)
H12 H 0.8159 -0.3232 -0.0564
C8 C 0.636(2) -0.4124(18) -0.0318(11)
H13 H 0.6800 -0.4830 -0.0058
C9 C 0.490(2) -0.4119(17) -0.0348(10)
H14 H 0.4392 -0.4782 -0.0096
C10 C 0.4209(18) -0.3123(17) -0.0755(9)
H15 H 0.3225 -0.3114 -0.0793
C11 C 0.5016(15) -0.2106(15) -0.1116(8)
C12 C -0.2758(14) 0.4515(15) -0.2474(10)
H16 H -0.2588 0.4939 -0.1980
C13 C -0.2516(16) 0.3216(13) -0.3551(9)
H17 H -0.2161 0.2608 -0.3918
C14 C -0.3826(17) 0.3854(16) -0.3599(9)
H18 H -0.4494 0.3752 -0.4017
C15 C -0.5213(15) 0.5431(15) -0.2722(10)
H19 H -0.5150 0.5665 -0.2150
H20 H -0.6059 0.4902 -0.2804
C16 C -0.5339(12) 0.6660(14) -0.3223(8)
C17 C -0.4725(15) 0.8456(15) -0.3898(9)
C18 C -0.4054(14) 0.9521(16) -0.4298(10)
H21 H -0.3077 0.9552 -0.4360
C19 C -0.4939(17) 1.0520(17) -0.4593(11)
H22 H -0.4534 1.1232 -0.4858
C20 C -0.6410(16) 1.0492(17) -0.4508(10)
H23 H -0.6960 1.1184 -0.4706
C21 C -0.7064(15) 0.9411(16) -0.4120(10)
H24 H -0.8044 0.9367 -0.4078
C22 C -0.6210(13) 0.8426(13) -0.3805(8)
Cd2_2 Cd -0.87231(10) 0.66386(11) -0.29814(7)
N7_2 N 0.3473(11) 0.7255(11) -0.3395(7)
O3 O -0.0367(15) 0.1081(12) -0.4525(7)
H25 H -0.0616 0.0372 -0.4761
H26 H -0.0082 0.1490 -0.4943
O4 O 0.0014(14) 0.4161(13) 0.0773(8)
H27 H -0.0724 0.3683 0.0761
H28 H -0.0344 0.4896 0.0633
loop_
_geom_bond_atom_site_label_1
_geom_bond_atom_site_label_2
_geom_bond_site_symmetry_1
_geom_bond_site_symmetry_2
Cd1 Br1 1_555 1_555
Cd2 Br1 1_555 1_555
Br2 Cd1 1_555 1_555
Br3 Cd1 1_555 1_555
Br4 Cd2 1_555 1_555
O1 Cd1 1_555 1_555
H1 O1 1_555 1_555
H2 O1 1_555 1_555
O2 Cd2 1_555 1_555
H3 O2 1_555 1_555
H4 O2 1_555 1_555
N1 Cd1 1_555 1_555
N2 C1 1_555 1_555
N3 C5 1_555 1_555
N4 H5 1_555 1_555
N5 Cd1 1_555 1_555
N6 C12 1_555 1_555
N7 C16 1_555 1_555
N8 H6 1_555 1_555
C1 N1 1_555 1_555
H7 C1 1_555 1_555
C2 N1 1_555 1_555
H8 C2 1_555 1_555
C3 N2 1_555 1_555
H9 C3 1_555 1_555
C4 N2 1_555 1_555
H10 C4 1_555 1_555
H11 C4 1_555 1_555
C5 N4 1_555 1_555
C6 N4 1_555 1_555
C7 C6 1_555 1_555
H12 C7 1_555 1_555
C8 C7 1_555 1_555
H13 C8 1_555 1_555
C9 C8 1_555 1_555
H14 C9 1_555 1_555
C10 C9 1_555 1_555
H15 C10 1_555 1_555
C11 N3 1_555 1_555
C12 N5 1_555 1_555
H16 C12 1_555 1_555
C13 N5 1_555 1_555
H17 C13 1_555 1_555
C14 N6 1_555 1_555
H18 C14 1_555 1_555
C15 N6 1_555 1_555
H19 C15 1_555 1_555
H20 C15 1_555 1_555
C16 N8 1_555 1_555
C17 N8 1_555 1_555
C18 C17 1_555 1_555
H21 C18 1_555 1_555
C19 C18 1_555 1_555
H22 C19 1_555 1_555
C20 C19 1_555 1_555
H23 C20 1_555 1_555
C21 C20 1_555 1_555
H24 C21 1_555 1_555
C22 N7 1_555 1_555
O3 H25 1_555 1_555
H26 O3 1_555 1_555
O4 H27 1_555 1_555
H28 O4 1_555 1_555
Cd2_2 N7 1_555 1_555
N7_2 Cd2 1_555 1_555
Cd2 Br3 1_555 1_555
C2 C3 1_555 1_555
C4 C5 1_555 1_555
C6 C11 1_555 1_555
C10 C11 1_555 1_555
C13 C14 1_555 1_555
C15 C16 1_555 1_555
C17 C22 1_555 1_555
C21 C22 1_555 1_555

#END
