
#######################################################################
#
#                 Cambridge Crystallographic Data Centre
#                                CCDC 
#
#######################################################################
#
# If this CIF has been generated from an entry in the Cambridge 
# Structural Database, then it will include bibliographic, chemical, 
# crystal, experimental, refinement or atomic coordinate data resulting 
# from the CCDC's data processing and validation procedures.
#
#######################################################################

data_VEFTEF
_symmetry_cell_setting           monoclinic
_symmetry_space_group_name_H-M   'P 21'
_symmetry_Int_Tables_number      4
_space_group_name_Hall           'P 2yb'
loop_
_symmetry_equiv_pos_site_id
_symmetry_equiv_pos_as_xyz
1 x,y,z
2 -x,1/2+y,-z
_cell_length_a                   12.090(5)
_cell_length_b                   9.971(5)
_cell_length_c                   4.132(2)
_cell_angle_alpha                90
_cell_angle_beta                 98.50(3)
_cell_angle_gamma                90
_cell_volume                     492.639
loop_
_atom_site_label
_atom_site_type_symbol
_atom_site_fract_x
_atom_site_fract_y
_atom_site_fract_z
I1 I 0.2074(1) 0.2519(3) -0.0024(3)
Cu1 Cu 0.2161(2) 0.4009 0.4954(7)
N1 N 0.210(1) 0.604(2) 0.516(4)
C1 C 0.126(2) 0.661(2) 0.623(4)
N2 N 0.044(1) 0.576(2) 0.724(4)
C2 C 0.116(2) 0.804(2) 0.627(5)
C3 C 0.200(2) 0.889(2) 0.528(5)
C4 C 0.294(2) 0.817(2) 0.413(4)
C5 C 0.382(2) 0.885(2) 0.313(5)
C6 C 0.468(2) 0.822(2) 0.219(5)
C7 C 0.469(2) 0.683(2) 0.201(5)
C8 C 0.383(2) 0.609(2) 0.316(4)
C9 C 0.294(2) 0.676(2) 0.417(4)
H1 H -0.019 0.615 0.802
H2 H 0.053 0.481 0.716
H3 H 0.052 0.847 0.698
H4 H 0.196 0.989 0.529
H5 H 0.382 0.982 0.313
H6 H 0.529 0.873 0.159
H7 H 0.530 0.636 0.105
H8 H 0.387 0.508 0.325
Cu1_2 Cu 0.2161(2) 0.4009 -0.5046(7)
I1_2 I 0.2074(1) 0.2519(3) 0.9976(3)
loop_
_geom_bond_atom_site_label_1
_geom_bond_atom_site_label_2
_geom_bond_site_symmetry_1
_geom_bond_site_symmetry_2
I1 Cu1 1_555 1_555
Cu1 N1 1_555 1_555
N1 C1 1_555 1_555
C1 N2 1_555 1_555
N2 H1 1_555 1_555
C2 C1 1_555 1_555
C3 C2 1_555 1_555
C4 C3 1_555 1_555
C5 C4 1_555 1_555
C6 C5 1_555 1_555
C7 C6 1_555 1_555
C8 C7 1_555 1_555
C9 N1 1_555 1_555
H2 N2 1_555 1_555
H3 C2 1_555 1_555
H4 C3 1_555 1_555
H5 C5 1_555 1_555
H6 C6 1_555 1_555
H7 C7 1_555 1_555
H8 C8 1_555 1_555
Cu1_2 I1 1_555 1_555
I1_2 Cu1 1_555 1_555
C4 C9 1_555 1_555
C8 C9 1_555 1_555

#END
