
#######################################################################
#
#                 Cambridge Crystallographic Data Centre
#                                CCDC 
#
#######################################################################
#
# If this CIF has been generated from an entry in the Cambridge 
# Structural Database, then it will include bibliographic, chemical, 
# crystal, experimental, refinement or atomic coordinate data resulting 
# from the CCDC's data processing and validation procedures.
#
#######################################################################

data_VEFZEN
_symmetry_cell_setting           orthorhombic
_symmetry_space_group_name_H-M   'P 21 21 2'
_symmetry_Int_Tables_number      18
_space_group_name_Hall           'P 2 2ab'
loop_
_symmetry_equiv_pos_site_id
_symmetry_equiv_pos_as_xyz
1 x,y,z
2 -x,-y,z
3 1/2+x,1/2-y,-z
4 1/2-x,1/2+y,-z
_cell_length_a                   10.49250(10)
_cell_length_b                   11.47820(10)
_cell_length_c                   12.3333(2)
_cell_angle_alpha                90
_cell_angle_beta                 90
_cell_angle_gamma                90
_cell_volume                     1485.36
loop_
_atom_site_label
_atom_site_type_symbol
_atom_site_fract_x
_atom_site_fract_y
_atom_site_fract_z
Nb1 Nb 0.00000 -0.5 -0.720170(12)
Mn1 Mn -0.33830(2) -0.45260(2) -0.380199(17)
O1 O -0.5 -0.5 -0.27311(10)
N1 N -0.5 -0.5 -0.16380(12)
C1 C -0.5 -0.5 0.06016(15)
O2 O -0.5 -0.5 0.51360(11)
N2 N -0.5 -0.5 0.40426(13)
C2 C -0.12916(16) -0.45883(14) -0.57883(13)
C3 C -0.15554(18) -0.38176(14) -0.77831(14)
O3 O -0.28865(16) -0.64114(13) -0.39495(14)
O4 O -0.20365(15) -0.44721(16) -0.25018(12)
N3 N -0.19850(15) -0.43637(14) -0.51027(12)
N4 N 0.11120(16) -0.23294(13) -0.64253(14)
C4 C -0.53446(19) -0.40365(15) -0.11017(14)
H1 H -0.5585 -0.3375 -0.1485
C5 C -0.57811(18) -0.42486(15) 0.23937(13)
H2 H -0.6314 -0.3732 0.203
C6 C -0.57708(17) -0.42641(15) 0.35150(13)
H3 H -0.6299 -0.3764 0.3902
C7 C -0.5345(2) -0.40192(15) 0.00141(13)
H4 H -0.5579 -0.3343 0.0378
C8 C 0.07508(17) -0.32365(14) -0.66581(13)
N5 N -0.23385(19) -0.32056(17) -0.80896(15)
C9 C -0.5 -0.5 0.18040(15)
C10 C 0.0861(2) -0.41265(17) -0.86451(15)
N6 N 0.1295(3) -0.3670(2) -0.93831(18)
H5 H -0.167(3) -0.5150(19) -0.232(2)
H7 H -0.223(3) -0.408(2) -0.1913(17)
H11 H -0.2079(18) -0.661(3) -0.395(3)
H12 H -0.337(3) -0.695(3) -0.365(3)
Nb1_2 Nb -1.00000 -0.5 -0.720170(12)
Mn1A Mn -0.66170(2) -0.54740(2) -0.380199(17)
Mn1_2 Mn -0.33830(2) -0.45260(2) 0.619801(17)
Mn1A_2 Mn -0.66170(2) -0.54740(2) 0.619801(17)
Mn1B Mn 0.16170(2) -0.04740(2) -0.619801(17)
Mn1C Mn -0.16170(2) -0.95260(2) -0.619801(17)
O2_2 O -0.5 -0.5 -0.48640(11)
C2A C -0.87084(16) -0.54117(14) -0.57883(13)
C2A_2 C 0.12916(16) -0.54117(14) -0.57883(13)
C3A C 0.15554(18) -0.61824(14) -0.77831(14)
O3A O -0.71135(16) -0.35886(13) -0.39495(14)
O4A O -0.79635(15) -0.55279(16) -0.25018(12)
N3A N -0.80150(15) -0.56363(14) -0.51027(12)
N4A N -0.11120(16) -0.76706(13) -0.64253(14)
N4B N -0.38880(16) -0.26706(13) -0.35747(14)
N4C N -0.61120(16) -0.73294(13) -0.35747(14)
C4A C -0.46554(19) -0.59635(15) -0.11017(14)
H1A H -0.4415 -0.6625 -0.1485
C5A C -0.42189(18) -0.57514(15) 0.23937(13)
H2A H -0.3686 -0.6268 0.203
C6A C -0.42292(17) -0.57359(15) 0.35150(13)
H3A H -0.3701 -0.6236 0.3902
C7A C -0.4655(2) -0.59808(15) 0.00141(13)
H4A H -0.4421 -0.6657 0.0378
C8A C -0.07508(17) -0.67635(14) -0.66581(13)
N5A N 0.23385(19) -0.67944(17) -0.80896(15)
C10A C -0.0861(2) -0.58735(17) -0.86451(15)
N6A N -0.1295(3) -0.6330(2) -0.93831(18)
H5A H -0.833(3) -0.4850(19) -0.232(2)
H7A H -0.777(3) -0.592(2) -0.1913(17)
H11A H -0.7921(18) -0.339(3) -0.395(3)
H12A H -0.663(3) -0.305(3) -0.365(3)
O5 O -0.0341(2) -0.6842(2) -0.38673(17)
H9 H -0.014(4) -0.660(3) -0.3166(17)
H14 H 0.013(6) -0.632(4) -0.429(3)
O6 O -0.2135(3) -0.3361(2) -0.05927(16)
H6 H -0.201(4) -0.389(3) -0.007(3)
H10 H -0.272(5) -0.281(4) -0.046(4)
O7 O -0.08475(19) -0.64107(17) -0.17040(15)
H8 H -0.148(3) -0.691(2) -0.174(3)
H13 H -0.052(4) -0.630(5) -0.102(2)
loop_
_geom_bond_atom_site_label_1
_geom_bond_atom_site_label_2
_geom_bond_site_symmetry_1
_geom_bond_site_symmetry_2
Nb1 C2 1_555 1_555
Mn1 O1 1_555 1_555
O1 N1 1_555 1_555
N1 C4 1_555 1_555
C1 C7 1_555 1_555
O2 N2 1_555 1_555
N2 C6 1_555 1_555
C2 N3 1_555 1_555
C3 Nb1 1_555 1_555
O3 Mn1 1_555 1_555
O4 Mn1 1_555 1_555
N3 Mn1 1_555 1_555
N4 C8 1_555 1_555
C4 H1 1_555 1_555
C5 H2 1_555 1_555
C6 C5 1_555 1_555
H3 C6 1_555 1_555
C7 C4 1_555 1_555
H4 C7 1_555 1_555
C8 Nb1 1_555 1_555
N5 C3 1_555 1_555
C9 C1 1_555 1_555
C10 Nb1 1_555 1_555
O5 H9 1_555 1_555
O6 H6 1_555 1_555
O7 H8 1_555 1_555
N6 C10 1_555 1_555
H5 O4 1_555 1_555
H7 O4 1_555 1_555
H10 O6 1_555 1_555
H11 O3 1_555 1_555
H12 O3 1_555 1_555
H13 O7 1_555 1_555
H14 O5 1_555 1_555
Nb1_2 C2A 1_555 1_555
Mn1A O1 1_555 1_555
Mn1_2 O2 1_555 1_555
Mn1A_2 O2 1_555 1_555
Mn1B N4 1_555 1_555
Mn1C N4A 1_555 1_555
O2_2 Mn1 1_555 1_555
C2A N3A 1_555 1_555
C2A_2 Nb1 1_555 1_555
C3A Nb1 1_555 1_555
O3A Mn1A 1_555 1_555
O4A Mn1A 1_555 1_555
N3A Mn1A 1_555 1_555
N4A C8A 1_555 1_555
N4B Mn1 1_555 1_555
N4C Mn1A 1_555 1_555
C4A N1 1_555 1_555
H1A C4A 1_555 1_555
C5A C9 1_555 1_555
H2A C5A 1_555 1_555
C6A N2 1_555 1_555
H3A C6A 1_555 1_555
C7A C1 1_555 1_555
H4A C7A 1_555 1_555
C8A Nb1 1_555 1_555
N5A C3A 1_555 1_555
C10A Nb1 1_555 1_555
N6A C10A 1_555 1_555
H5A O4A 1_555 1_555
H7A O4A 1_555 1_555
H11A O3A 1_555 1_555
H12A O3A 1_555 1_555
C5 C9 1_555 1_555
Mn1A O2_2 1_555 1_555
C4A C7A 1_555 1_555
C5A C6A 1_555 1_555

#END
