
#######################################################################
#
#                 Cambridge Crystallographic Data Centre
#                                CCDC 
#
#######################################################################
#
# If this CIF has been generated from an entry in the Cambridge 
# Structural Database, then it will include bibliographic, chemical, 
# crystal, experimental, refinement or atomic coordinate data resulting 
# from the CCDC's data processing and validation procedures.
#
#######################################################################

data_VEGCAN
_symmetry_cell_setting           cubic
_symmetry_space_group_name_H-M   'F m -3 m'
_symmetry_Int_Tables_number      225
_space_group_name_Hall           '-F 4 2 3'
loop_
_symmetry_equiv_pos_site_id
_symmetry_equiv_pos_as_xyz
1 x,y,z
2 -y,x,z
3 -x,-y,z
4 y,-x,z
5 x,-y,-z
6 y,x,-z
7 -x,y,-z
8 -y,-x,-z
9 z,x,y
10 -x,z,y
11 -z,-x,y
12 x,-z,y
13 z,-x,-y
14 x,z,-y
15 -z,x,-y
16 -x,-z,-y
17 y,z,x
18 -z,-y,-x
19 -z,y,x
20 z,y,-x
21 z,-y,x
22 y,-z,-x
23 -y,-z,x
24 -y,z,-x
25 x,1/2+y,1/2+z
26 -y,1/2+x,1/2+z
27 -x,1/2-y,1/2+z
28 y,1/2-x,1/2+z
29 x,1/2-y,1/2-z
30 y,1/2+x,1/2-z
31 -x,1/2+y,1/2-z
32 -y,1/2-x,1/2-z
33 z,1/2+x,1/2+y
34 -x,1/2+z,1/2+y
35 -z,1/2-x,1/2+y
36 x,1/2-z,1/2+y
37 z,1/2-x,1/2-y
38 x,1/2+z,1/2-y
39 -z,1/2+x,1/2-y
40 -x,1/2-z,1/2-y
41 y,1/2+z,1/2+x
42 -z,1/2-y,1/2-x
43 -z,1/2+y,1/2+x
44 z,1/2+y,1/2-x
45 z,1/2-y,1/2+x
46 y,1/2-z,1/2-x
47 -y,1/2-z,1/2+x
48 -y,1/2+z,1/2-x
49 1/2+x,y,1/2+z
50 1/2-y,x,1/2+z
51 1/2-x,-y,1/2+z
52 1/2+y,-x,1/2+z
53 1/2+x,-y,1/2-z
54 1/2+y,x,1/2-z
55 1/2-x,y,1/2-z
56 1/2-y,-x,1/2-z
57 1/2+z,x,1/2+y
58 1/2-x,z,1/2+y
59 1/2-z,-x,1/2+y
60 1/2+x,-z,1/2+y
61 1/2+z,-x,1/2-y
62 1/2+x,z,1/2-y
63 1/2-z,x,1/2-y
64 1/2-x,-z,1/2-y
65 1/2+y,z,1/2+x
66 1/2-z,-y,1/2-x
67 1/2-z,y,1/2+x
68 1/2+z,y,1/2-x
69 1/2+z,-y,1/2+x
70 1/2+y,-z,1/2-x
71 1/2-y,-z,1/2+x
72 1/2-y,z,1/2-x
73 1/2+x,1/2+y,z
74 1/2-y,1/2+x,z
75 1/2-x,1/2-y,z
76 1/2+y,1/2-x,z
77 1/2+x,1/2-y,-z
78 1/2+y,1/2+x,-z
79 1/2-x,1/2+y,-z
80 1/2-y,1/2-x,-z
81 1/2+z,1/2+x,y
82 1/2-x,1/2+z,y
83 1/2-z,1/2-x,y
84 1/2+x,1/2-z,y
85 1/2+z,1/2-x,-y
86 1/2+x,1/2+z,-y
87 1/2-z,1/2+x,-y
88 1/2-x,1/2-z,-y
89 1/2+y,1/2+z,x
90 1/2-z,1/2-y,-x
91 1/2-z,1/2+y,x
92 1/2+z,1/2+y,-x
93 1/2+z,1/2-y,x
94 1/2+y,1/2-z,-x
95 1/2-y,1/2-z,x
96 1/2-y,1/2+z,-x
97 -x,-y,-z
98 y,-x,-z
99 x,y,-z
100 -y,x,-z
101 -x,y,z
102 -y,-x,z
103 x,-y,z
104 y,x,z
105 -z,-x,-y
106 x,-z,-y
107 z,x,-y
108 -x,z,-y
109 -z,x,y
110 -x,-z,y
111 z,-x,y
112 x,z,y
113 -y,-z,-x
114 z,y,x
115 z,-y,-x
116 -z,-y,x
117 -z,y,-x
118 -y,z,x
119 y,z,-x
120 y,-z,x
121 -x,1/2-y,1/2-z
122 y,1/2-x,1/2-z
123 x,1/2+y,1/2-z
124 -y,1/2+x,1/2-z
125 -x,1/2+y,1/2+z
126 -y,1/2-x,1/2+z
127 x,1/2-y,1/2+z
128 y,1/2+x,1/2+z
129 -z,1/2-x,1/2-y
130 x,1/2-z,1/2-y
131 z,1/2+x,1/2-y
132 -x,1/2+z,1/2-y
133 -z,1/2+x,1/2+y
134 -x,1/2-z,1/2+y
135 z,1/2-x,1/2+y
136 x,1/2+z,1/2+y
137 -y,1/2-z,1/2-x
138 z,1/2+y,1/2+x
139 z,1/2-y,1/2-x
140 -z,1/2-y,1/2+x
141 -z,1/2+y,1/2-x
142 -y,1/2+z,1/2+x
143 y,1/2+z,1/2-x
144 y,1/2-z,1/2+x
145 1/2-x,-y,1/2-z
146 1/2+y,-x,1/2-z
147 1/2+x,y,1/2-z
148 1/2-y,x,1/2-z
149 1/2-x,y,1/2+z
150 1/2-y,-x,1/2+z
151 1/2+x,-y,1/2+z
152 1/2+y,x,1/2+z
153 1/2-z,-x,1/2-y
154 1/2+x,-z,1/2-y
155 1/2+z,x,1/2-y
156 1/2-x,z,1/2-y
157 1/2-z,x,1/2+y
158 1/2-x,-z,1/2+y
159 1/2+z,-x,1/2+y
160 1/2+x,z,1/2+y
161 1/2-y,-z,1/2-x
162 1/2+z,y,1/2+x
163 1/2+z,-y,1/2-x
164 1/2-z,-y,1/2+x
165 1/2-z,y,1/2-x
166 1/2-y,z,1/2+x
167 1/2+y,z,1/2-x
168 1/2+y,-z,1/2+x
169 1/2-x,1/2-y,-z
170 1/2+y,1/2-x,-z
171 1/2+x,1/2+y,-z
172 1/2-y,1/2+x,-z
173 1/2-x,1/2+y,z
174 1/2-y,1/2-x,z
175 1/2+x,1/2-y,z
176 1/2+y,1/2+x,z
177 1/2-z,1/2-x,-y
178 1/2+x,1/2-z,-y
179 1/2+z,1/2+x,-y
180 1/2-x,1/2+z,-y
181 1/2-z,1/2+x,y
182 1/2-x,1/2-z,y
183 1/2+z,1/2-x,y
184 1/2+x,1/2+z,y
185 1/2-y,1/2-z,-x
186 1/2+z,1/2+y,x
187 1/2+z,1/2-y,-x
188 1/2-z,1/2-y,x
189 1/2-z,1/2+y,-x
190 1/2-y,1/2+z,x
191 1/2+y,1/2+z,-x
192 1/2+y,1/2-z,x
_cell_length_a                   49.840(6)
_cell_length_b                   49.840(6)
_cell_length_c                   49.840(6)
_cell_angle_alpha                90
_cell_angle_beta                 90
_cell_angle_gamma                90
_cell_volume                     123804
loop_
_atom_site_label
_atom_site_type_symbol
_atom_site_fract_x
_atom_site_fract_y
_atom_site_fract_z
Hf1 Hf 0.215213(4) 0.5000 0.215213(4)
Hf2 Hf 0.225069(3) 0.464689(4) 0.274931(3)
S1 S 0.08896(7) 0.41104(7) 0.18539(7)
S2 S 0.14141(3) 0.41380(4) 0.25047(4)
O1 O 0.23303(8) 0.46503(14) 0.23303(8)
O2 O 0.18025(5) 0.47340(5) 0.21769(5)
O3 O 0.22690(10) 0.42154(9) 0.27310(10)
O4 O 0.18636(7) 0.45045(8) 0.25601(7)
O5 O 0.25755(9) 0.5000 0.20842(13)
O6 O 0.19434(7) 0.46658(16) 0.30566(7)
C1 C 0.15074(12) 0.43874(12) 0.22801(13)
C2 C 0.13430(14) 0.44060(13) 0.20691(14)
H1 H 0.1359 0.4535 0.1935
C3 C 0.11419(16) 0.42050(15) 0.20759(15)
C4 C 0.17426(9) 0.45565(9) 0.23446(10)
C5 C 0.11570(13) 0.40462(13) 0.22956(14)
Hf1WB Hf 0.0000 0.284787(4) 0.215213(4)
Hf1FA Hf 0.215213(4) 0.715213(4) 0.0000
Hf2T Hf 0.274931(3) 0.535311(4) 0.225069(3)
Hf2BB Hf 0.274931(3) 0.464689(4) 0.225069(3)
Hf2SB Hf 0.035311(4) 0.274931(3) 0.274931(3)
Hf2MB Hf 0.225069(3) 0.535311(4) 0.274931(3)
Hf2KB Hf 0.274931(3) 0.725069(3) 0.035311(4)
S1T S 0.18539(7) 0.58896(7) 0.08896(7)
S2QF S 0.08620(4) 0.35859(3) 0.25047(4)
S2T S 0.25047(4) 0.58620(4) 0.14141(3)
S2ZD S 0.25047(4) 0.64141(3) 0.08620(4)
O1T O 0.23303(8) 0.53497(14) 0.23303(8)
O1BB O 0.26697(8) 0.46503(14) 0.26697(8)
O1MB O 0.26697(8) 0.53497(14) 0.26697(8)
O2QF O 0.02660(5) 0.31975(5) 0.21769(5)
O2T O 0.21769(5) 0.52660(5) 0.18025(5)
O2ZD O 0.21769(5) 0.68025(5) 0.02660(5)
O2XC O 0.18025(5) 0.52660(5) 0.21769(5)
O2ID O 0.21769(5) 0.47340(5) 0.18025(5)
O3T O 0.27310(10) 0.57846(9) 0.22690(10)
O4QF O 0.04955(8) 0.31364(7) 0.25601(7)
O4T O 0.25601(7) 0.54955(8) 0.18636(7)
O4ZD O 0.25601(7) 0.68636(7) 0.04955(8)
O4HF O 0.24399(7) 0.45045(8) 0.31364(7)
O4NE O 0.31364(7) 0.54955(8) 0.24399(7)
O5T O 0.20842(13) 0.5000 0.25755(9)
O5BB O 0.24245(9) 0.5000 0.29158(13)
O5MB O 0.29158(13) 0.5000 0.24245(9)
O6T O 0.30566(7) 0.53342(16) 0.19434(7)
C1QF C 0.06126(12) 0.34926(12) 0.22801(13)
C1T C 0.22801(13) 0.56126(12) 0.15074(12)
C1ZD C 0.22801(13) 0.65074(12) 0.06126(12)
C2QF C 0.05940(13) 0.36570(14) 0.20691(14)
C2T C 0.20691(14) 0.55940(13) 0.13430(14)
C2ZD C 0.20691(14) 0.63430(14) 0.05940(13)
H1QF H 0.0465 0.3641 0.1935
H1T H 0.1935 0.5465 0.1359
H1ZD H 0.1935 0.6359 0.0465
C3QF C 0.07950(15) 0.38581(16) 0.20759(15)
C3T C 0.20759(15) 0.57950(15) 0.11419(16)
C3ZD C 0.20759(15) 0.61419(16) 0.07950(15)
C4QF C 0.04435(9) 0.32574(9) 0.23446(10)
C4T C 0.23446(10) 0.54435(9) 0.17426(9)
C4ZD C 0.23446(10) 0.67426(9) 0.04435(9)
C5QF C 0.09538(13) 0.38430(13) 0.22956(14)
C5T C 0.22956(14) 0.59538(13) 0.11570(13)
C5ZD C 0.22956(14) 0.61570(13) 0.09538(13)
loop_
_geom_bond_atom_site_label_1
_geom_bond_atom_site_label_2
_geom_bond_site_symmetry_1
_geom_bond_site_symmetry_2
Hf1 O1 1_555 1_555
Hf2 O1 1_555 1_555
S1 C3 1_555 1_555
S2 C1 1_555 1_555
O1 Hf2BB 1_555 1_555
O2 Hf1 1_555 1_555
O3 Hf2 1_555 1_555
O4 Hf2 1_555 1_555
O5 Hf1 1_555 1_555
O6 Hf2 1_555 1_555
C1 C2 1_555 1_555
C2 H1 1_555 1_555
C3 C2 1_555 1_555
C4 O2 1_555 1_555
C5 S2 1_555 1_555
Hf1WB O2QF 1_555 1_555
Hf1FA O2ZD 1_555 1_555
Hf2T O5 1_555 1_555
Hf2BB O5 1_555 1_555
Hf2SB O4QF 1_555 1_555
Hf2MB O1T 1_555 1_555
Hf2KB O4ZD 1_555 1_555
S1T C3T 1_555 1_555
S2QF C1QF 1_555 1_555
S2T C1T 1_555 1_555
S2ZD C1ZD 1_555 1_555
O1T Hf1 1_555 1_555
O1BB Hf2 1_555 1_555
O1MB Hf2T 1_555 1_555
O2QF C4QF 1_555 1_555
O2T Hf1 1_555 1_555
O2ZD C4ZD 1_555 1_555
O2XC Hf1 1_555 1_555
O2ID Hf1 1_555 1_555
O3T Hf2T 1_555 1_555
O4QF C4QF 1_555 1_555
O4T Hf2T 1_555 1_555
O4ZD C4ZD 1_555 1_555
O4HF Hf2 1_555 1_555
O4NE Hf2T 1_555 1_555
O5T Hf1 1_555 1_555
O5BB Hf2 1_555 1_555
O5MB Hf2T 1_555 1_555
O6T Hf2T 1_555 1_555
C1QF C2QF 1_555 1_555
C1T C2T 1_555 1_555
C1ZD C2ZD 1_555 1_555
C2QF H1QF 1_555 1_555
C2T H1T 1_555 1_555
C2ZD H1ZD 1_555 1_555
C3QF S1 1_555 1_555
C3T C2T 1_555 1_555
C3ZD S1T 1_555 1_555
C4QF C1QF 1_555 1_555
C4T O2T 1_555 1_555
C4ZD C1ZD 1_555 1_555
C5QF C5 1_555 1_555
C5T S2T 1_555 1_555
C5ZD S2ZD 1_555 1_555
Hf2 O5T 1_555 1_555
O4 C4 1_555 1_555
C1 C4 1_555 1_555
C3 C5 1_555 1_555
Hf2T O1T 1_555 1_555
Hf2BB O1BB 1_555 1_555
Hf2BB O5MB 1_555 1_555
Hf2MB O1MB 1_555 1_555
Hf2MB O5T 1_555 1_555
Hf2MB O5BB 1_555 1_555
S2QF C5QF 1_555 1_555
O4T C4T 1_555 1_555
C1T C4T 1_555 1_555
C2QF C3QF 1_555 1_555
C2ZD C3ZD 1_555 1_555
C3QF C5QF 1_555 1_555
C3T C5T 1_555 1_555
C3ZD C5ZD 1_555 1_555
C5T C5ZD 1_555 1_555

#END
