
#######################################################################
#
#                 Cambridge Crystallographic Data Centre
#                                CCDC 
#
#######################################################################
#
# If this CIF has been generated from an entry in the Cambridge 
# Structural Database, then it will include bibliographic, chemical, 
# crystal, experimental, refinement or atomic coordinate data resulting 
# from the CCDC's data processing and validation procedures.
#
#######################################################################

data_VEGJOI
_symmetry_cell_setting           triclinic
_symmetry_space_group_name_H-M   'P -1'
_symmetry_Int_Tables_number      2
_space_group_name_Hall           '-P 1'
loop_
_symmetry_equiv_pos_site_id
_symmetry_equiv_pos_as_xyz
1 x,y,z
2 -x,-y,-z
_cell_length_a                   9.189(3)
_cell_length_b                   11.486(4)
_cell_length_c                   17.918(6)
_cell_angle_alpha                80.253(6)
_cell_angle_beta                 81.343(5)
_cell_angle_gamma                86.819(5)
_cell_volume                     1841.75
loop_
_atom_site_label
_atom_site_type_symbol
_atom_site_fract_x
_atom_site_fract_y
_atom_site_fract_z
La1 La 0.17373(3) 1.16752(3) 0.481842(15)
O1 O -0.0337(6) 1.1730(5) 0.4332(3)
O2 O -0.2430(6) 0.9323(5) -0.3815(3)
O3 O 0.2284(6) 1.2297(5) -0.4063(3)
O4 O -0.1357(7) 0.9989(5) 0.4414(3)
O5 O -0.4596(7) 1.0185(6) -0.3925(4)
O6 O -0.0581(7) 1.4295(6) -0.1065(3)
O7 O -0.7697(6) 1.3293(5) 0.4046(3)
O8 O 0.4187(6) 1.1324(5) 0.4852(3)
O9 O 0.0077(6) 1.2694(6) -0.4352(3)
O10 O -0.3445(7) 1.2244(6) -0.1049(3)
O11 O -0.6335(8) 1.4803(6) 0.4087(4)
C1 C -0.0926(8) 1.0966(6) 0.4035(4)
C2 C -0.5949(9) 1.3960(7) 0.2961(4)
C3 C -0.1166(8) 1.1256(6) 0.3229(4)
C4 C -0.6699(9) 1.4026(7) 0.3756(4)
C5 C -0.3474(8) 0.9990(7) -0.3603(4)
C6 C -0.0316(9) 1.3903(7) -0.1763(4)
C7 C -0.0536(9) 1.2243(7) 0.2759(4)
H1 H -0.0020 1.2758 0.2964
C8 C -0.3438(8) 1.0534(7) -0.2911(4)
C9 C 0.0532(8) 1.3107(7) -0.3149(4)
C10 C 0.0986(8) 1.2676(7) -0.3898(4)
C11 C -0.2039(11) 1.4280(9) -0.0678(4)
H2 H -0.2715 1.4425 -0.1053
H3 H -0.2183 1.4918 -0.0379
C12 C -0.6314(10) 1.3143(7) 0.2552(4)
H4 H -0.7012 1.2585 0.2777
C13 C -0.3357(10) 1.1608(8) -0.1633(4)
O12 O -0.3997(11) 1.4124(7) 0.0731(4)
C14 C 0.1474(10) 1.2962(9) -0.2614(5)
H5 H 0.2393 1.2595 -0.2715
C15 C -0.2320(10) 1.0294(8) -0.2481(5)
H6 H -0.1564 0.9766 -0.2621
C16 C -0.5653(12) 1.3141(8) 0.1806(5)
H7 H -0.5885 1.2570 0.1535
C17 C -0.2423(12) 1.3090(8) -0.0136(4)
C18 C -0.2322(12) 1.2056(8) -0.0574(5)
H8 H -0.1363 1.2018 -0.0882
H9 H -0.2463 1.1318 -0.0221
C19 C -0.4507(10) 1.1848(9) -0.2055(5)
H10 H -0.5271 1.2368 -0.1913
C20 C -0.4524(10) 1.1311(8) -0.2693(5)
H11 H -0.5298 1.1487 -0.2977
C21 C -0.1219(10) 1.4050(9) -0.2291(4)
H12 H -0.2128 1.4437 -0.2198
C22 C -0.0806(10) 1.3627(9) -0.2983(4)
H13 H -0.1466 1.3705 -0.3336
C23 C 0.1061(10) 1.3362(9) -0.1918(5)
H14 H 0.1707 1.3267 -0.1557
C24 C -0.2276(11) 1.0821(9) -0.1832(5)
H15 H -0.1512 1.0631 -0.1542
C25 C -0.4910(11) 1.4788(9) 0.2617(5)
H16 H -0.4647 1.5341 0.2892
O13 O -0.1701(16) 1.1840(7) 0.0953(4)
C26 C -0.1304(17) 1.2907(10) 0.0430(5)
H17 H -0.0314 1.2826 0.0162
H18 H -0.1347 1.3572 0.0702
C27 C -0.3981(14) 1.3198(10) 0.0280(6)
H19 H -0.4675 1.3385 -0.0084
H20 H -0.4250 1.2458 0.0609
C28 C -0.0673(12) 1.2465(8) 0.1984(4)
H23 H -0.0217 1.3107 0.1665
C29 C -0.4655(12) 1.3982(9) 0.1469(5)
C30 C -0.1919(11) 1.0506(8) 0.2907(5)
H24 H -0.2330 0.9835 0.3213
C31 C -0.2078(14) 1.0729(9) 0.2139(5)
H25 H -0.2576 1.0211 0.1928
C32 C -0.1484(16) 1.1730(9) 0.1697(5)
C33 C -0.4269(13) 1.4798(10) 0.1877(6)
H26 H -0.3574 1.5357 0.1650
La1A La -0.17373(3) 0.83248(3) -0.481842(15)
La1_2 La 0.17373(3) 1.16752(3) -0.518158(15)
La1A_2 La -0.17373(3) 0.83248(3) 0.518158(15)
La1_3 La -0.82627(3) 1.16752(3) 0.481842(15)
O2A O 0.2430(6) 1.0677(5) 0.3815(3)
O3_2 O 0.2284(6) 1.2297(5) 0.5937(3)
O4A O 0.1357(7) 1.0011(5) 0.5586(3)
O7_2 O 0.2303(6) 1.3293(5) 0.4046(3)
O9_2 O 0.0077(6) 1.2694(6) 0.5648(3)
N1 N 0.7623(9) 0.3789(7) 0.4983(4)
H21 H 0.8467 0.3420 0.5104
H22 H 0.7400 0.4345 0.5284
C34 C 0.6488(14) 0.2956(12) 0.5167(10)
H27 H 0.6417 0.2632 0.5701
H28 H 0.6720 0.2334 0.4868
H29 H 0.5566 0.3335 0.5063
C35 C 0.791(2) 0.4387(12) 0.4194(7)
H30 H 0.8691 0.4932 0.4146
H31 H 0.7039 0.4809 0.4055
H32 H 0.8205 0.3815 0.3862
loop_
_geom_bond_atom_site_label_1
_geom_bond_atom_site_label_2
_geom_bond_site_symmetry_1
_geom_bond_site_symmetry_2
La1 O1 1_555 1_555
O1 C1 1_555 1_555
O2 C5 1_555 1_555
O3 C10 1_555 1_555
O4 C1 1_555 1_555
O5 C5 1_555 1_555
O6 C6 1_555 1_555
O7 C4 1_555 1_555
O8 La1 1_555 1_555
O9 C10 1_555 1_555
O10 C13 1_555 1_555
O11 C4 1_555 1_555
C1 C3 1_555 1_555
C2 C4 1_555 1_555
C3 C7 1_555 1_555
C5 C8 1_555 1_555
C6 C21 1_555 1_555
C7 H1 1_555 1_555
C8 C15 1_555 1_555
C9 C10 1_555 1_555
C11 O6 1_555 1_555
H2 C11 1_555 1_555
H3 C11 1_555 1_555
C12 C2 1_555 1_555
H4 C12 1_555 1_555
C13 C19 1_555 1_555
O12 C27 1_555 1_555
C14 C9 1_555 1_555
H5 C14 1_555 1_555
C15 H6 1_555 1_555
C16 C12 1_555 1_555
H7 C16 1_555 1_555
C17 C11 1_555 1_555
C18 O10 1_555 1_555
H8 C18 1_555 1_555
H9 C18 1_555 1_555
C19 H10 1_555 1_555
C20 C8 1_555 1_555
H11 C20 1_555 1_555
C21 H12 1_555 1_555
C22 C9 1_555 1_555
H13 C22 1_555 1_555
C23 C6 1_555 1_555
H14 C23 1_555 1_555
C24 C13 1_555 1_555
H15 C24 1_555 1_555
C25 C2 1_555 1_555
H16 C25 1_555 1_555
O13 C26 1_555 1_555
C26 C17 1_555 1_555
H17 C26 1_555 1_555
H18 C26 1_555 1_555
C27 C17 1_555 1_555
H19 C27 1_555 1_555
H20 C27 1_555 1_555
N1 H21 1_555 1_555
H22 N1 1_555 1_555
C28 C7 1_555 1_555
H23 C28 1_555 1_555
C29 O12 1_555 1_555
C30 C3 1_555 1_555
H24 C30 1_555 1_555
C31 C30 1_555 1_555
H25 C31 1_555 1_555
C32 O13 1_555 1_555
C33 C25 1_555 1_555
H26 C33 1_555 1_555
C34 N1 1_555 1_555
H27 C34 1_555 1_555
H28 C34 1_555 1_555
H29 C34 1_555 1_555
C35 N1 1_555 1_555
H30 C35 1_555 1_555
H31 C35 1_555 1_555
H32 C35 1_555 1_555
La1A O2 1_555 1_555
La1_2 O3 1_555 1_555
La1A_2 O4 1_555 1_555
La1_3 O7 1_555 1_555
O2A La1 1_555 1_555
O3_2 La1 1_555 1_555
O4A La1 1_555 1_555
O7_2 La1 1_555 1_555
O9_2 La1 1_555 1_555
O9 La1_2 1_555 1_555
C14 C23 1_555 1_555
C15 C24 1_555 1_555
C16 C29 1_555 1_555
C17 C18 1_555 1_555
C19 C20 1_555 1_555
C21 C22 1_555 1_555
C28 C32 1_555 1_555
C29 C33 1_555 1_555
C31 C32 1_555 1_555

#END
