
#######################################################################
#
#                 Cambridge Crystallographic Data Centre
#                                CCDC 
#
#######################################################################
#
# If this CIF has been generated from an entry in the Cambridge 
# Structural Database, then it will include bibliographic, chemical, 
# crystal, experimental, refinement or atomic coordinate data resulting 
# from the CCDC's data processing and validation procedures.
#
#######################################################################

data_VEGJUO
_symmetry_cell_setting           triclinic
_symmetry_space_group_name_H-M   'P -1'
_symmetry_Int_Tables_number      2
_space_group_name_Hall           '-P 1'
loop_
_symmetry_equiv_pos_site_id
_symmetry_equiv_pos_as_xyz
1 x,y,z
2 -x,-y,-z
_cell_length_a                   9.3193(11)
_cell_length_b                   11.8459(14)
_cell_length_c                   17.601(2)
_cell_angle_alpha                82.597(2)
_cell_angle_beta                 82.102(2)
_cell_angle_gamma                87.194(2)
_cell_volume                     1907.63
loop_
_atom_site_label
_atom_site_type_symbol
_atom_site_fract_x
_atom_site_fract_y
_atom_site_fract_z
Y1 Y 0.32590(6) 0.83531(5) 0.51280(3)
C1 C 0.7377(9) 0.6639(6) 0.0127(4)
C2 C 0.6947(8) 0.5495(6) 0.0616(4)
H3 H 0.7082 0.4893 0.0286
H4 H 0.7587 0.5321 0.1010
C3 C 0.7236(9) 0.7632(7) 0.0632(4)
H5 H 0.7435 0.8350 0.0310
H6 H 0.6264 0.7680 0.0907
C4 C 0.6427(13) 0.6872(8) -0.0509(4)
H7 H 0.6504 0.6242 -0.0816
H8 H 0.5421 0.6973 -0.0291
C5 C 0.8963(12) 0.6542(8) -0.0239(5)
H9 H 0.9271 0.7265 -0.0523
H10 H 0.9587 0.6327 0.0158
C6 C 0.5163(8) 0.5884(6) 0.1698(3)
C7 C 0.6057(9) 0.5684(7) 0.2267(4)
H11 H 0.6912 0.5252 0.2189
C8 C 0.5662(8) 0.6137(7) 0.2959(4)
H12 H 0.6284 0.6030 0.3335
C9 C 0.4366(7) 0.6743(6) 0.3103(3)
C10 C 0.3475(8) 0.6903(8) 0.2532(4)
H13 H 0.2596 0.7302 0.2620
C11 C 0.3854(8) 0.6487(9) 0.1837(4)
H14 H 0.3237 0.6608 0.1459
C12 C 0.3952(7) 0.7238(6) 0.3840(3)
C13 C 0.8208(8) 0.8089(6) 0.1733(4)
C14 C 0.9423(8) 0.7985(7) 0.2115(4)
H15 H 1.0188 0.7492 0.1966
C15 C 0.9497(8) 0.8608(7) 0.2710(4)
H16 H 1.0326 0.8545 0.2954
C16 C 0.8369(7) 0.9325(6) 0.2955(3)
C17 C 0.7148(8) 0.9420(7) 0.2567(4)
H17 H 0.6382 0.9913 0.2714
C18 C 0.7067(9) 0.8783(7) 0.1963(4)
H18 H 0.6238 0.8831 0.1719
C19 C 0.8462(7) 0.9974(6) 0.3614(4)
C20 C 1.1788(8) 0.6097(6) -0.3820(4)
C21 C 1.1011(7) 0.6057(6) -0.3012(4)
C22 C 1.0125(9) 0.5181(7) -0.2702(4)
H19 H 0.9933 0.4639 -0.3009
C23 C 0.9522(10) 0.5096(8) -0.1951(5)
H20 H 0.8973 0.4468 -0.1744
C24 C 0.9695(10) 0.5883(7) -0.1502(4)
C25 C 1.0577(10) 0.6790(7) -0.1796(5)
H21 H 1.0720 0.7344 -0.1487
C26 C 1.1245(8) 0.6864(6) -0.2553(4)
H22 H 1.1853 0.7462 -0.2751
C27 C 0.5940(6) 0.9048(6) -0.4048(3)
C28 C 0.6171(7) 0.8709(5) -0.3230(3)
C29 C 0.5475(7) 0.7809(6) -0.2802(4)
H23 H 0.4860 0.7394 -0.3026
C30 C 0.5676(9) 0.7506(7) -0.2035(4)
H24 H 0.5181 0.6900 -0.1742
C31 C 0.6605(12) 0.8104(8) -0.1711(4)
C32 C 0.7241(13) 0.9042(8) -0.2126(5)
H25 H 0.7808 0.9481 -0.1890
C33 C 0.7063(9) 0.9349(7) -0.2883(4)
H26 H 0.7529 0.9976 -0.3165
O1 O 0.5474(5) 0.5511(4) 0.0983(2)
O2 O 0.0802(5) 0.8645(4) 0.5112(3)
H33 H 0.0449 0.8993 0.5492
H34 H 0.0653 0.9046 0.4692
O3 O 0.8260(5) 0.7398(5) 0.1160(3)
O4 O 0.6921(11) 0.7876(6) -0.0968(3)
O5 O 0.9040(10) 0.5673(6) -0.0756(3)
O6 O 0.2714(5) 0.7690(4) 0.3975(3)
O7 O 0.4841(5) 0.7206(4) 0.4323(2)
O8 O 0.7395(5) 1.0609(4) 0.3840(2)
O9 O 0.9611(5) 0.9869(5) 0.3903(3)
O10 O 0.6361(5) 1.0020(4) -0.4363(3)
O11 O 0.5369(4) 0.8370(4) -0.4390(2)
O12 O 1.2690(5) 0.6819(4) -0.4063(3)
O13 O 1.1476(8) 0.5349(6) -0.4198(3)
Y1A Y 0.67410(6) 1.16469(5) -0.51280(3)
Y1_2 Y 0.32590(6) 0.83531(5) -0.48720(3)
Y1_3 Y 1.32590(6) 0.83531(5) -0.48720(3)
Y1A_2 Y -0.32590(6) 1.16469(5) 0.48720(3)
Y1A_3 Y 0.67410(6) 1.16469(5) 0.48720(3)
C1A C 0.2623(9) 1.3361(6) -0.0127(4)
C2A C 0.3053(8) 1.4505(6) -0.0616(4)
H3A H 0.2918 1.5107 -0.0286
H4A H 0.2413 1.4679 -0.1010
C3A C 0.2764(9) 1.2368(7) -0.0632(4)
H5A H 0.2565 1.1650 -0.0310
H6A H 0.3736 1.2320 -0.0907
C4A C 0.3573(13) 1.3128(8) 0.0509(4)
H7A H 0.3496 1.3758 0.0816
H8A H 0.4579 1.3027 0.0291
C5A C 0.1037(12) 1.3458(8) 0.0239(5)
H9A H 0.0729 1.2735 0.0523
H10A H 0.0413 1.3673 -0.0158
C6A C 0.4837(8) 1.4116(6) -0.1698(3)
C7A C 0.3943(9) 1.4316(7) -0.2267(4)
H11A H 0.3088 1.4748 -0.2189
C8A C 0.4338(8) 1.3863(7) -0.2959(4)
H12A H 0.3716 1.3970 -0.3335
C9A C 0.5634(7) 1.3257(6) -0.3103(3)
C10A C 0.6525(8) 1.3097(8) -0.2532(4)
H13A H 0.7404 1.2698 -0.2620
C11A C 0.6146(8) 1.3513(9) -0.1837(4)
H14A H 0.6763 1.3392 -0.1459
C12A C 0.6048(7) 1.2762(6) -0.3840(3)
C13A C 0.1792(8) 1.1911(6) -0.1733(4)
C14A C 0.0577(8) 1.2015(7) -0.2115(4)
H15A H -0.0188 1.2508 -0.1966
C15A C 0.0503(8) 1.1392(7) -0.2710(4)
H16A H -0.0326 1.1455 -0.2954
C16A C 0.1631(7) 1.0675(6) -0.2955(3)
C17A C 0.2852(8) 1.0580(7) -0.2567(4)
H17A H 0.3618 1.0087 -0.2714
C18A C 0.2933(9) 1.1217(7) -0.1963(4)
H18A H 0.3762 1.1169 -0.1719
C19A C 0.1538(7) 1.0026(6) -0.3614(4)
C20A C -0.1788(8) 1.3903(6) 0.3820(4)
C21A C -0.1011(7) 1.3943(6) 0.3012(4)
C22A C -0.0125(9) 1.4819(7) 0.2702(4)
H19A H 0.0067 1.5361 0.3009
C23A C 0.0478(10) 1.4904(8) 0.1951(5)
H20A H 0.1027 1.5532 0.1744
C24A C 0.0305(10) 1.4117(7) 0.1502(4)
C25A C -0.0577(10) 1.3210(7) 0.1796(5)
H21A H -0.0720 1.2656 0.1487
C26A C -0.1245(8) 1.3136(6) 0.2553(4)
H22A H -0.1853 1.2538 0.2751
C27A C 0.4060(6) 1.0952(6) 0.4048(3)
C28A C 0.3829(7) 1.1291(5) 0.3230(3)
C29A C 0.4525(7) 1.2191(6) 0.2802(4)
H23A H 0.5140 1.2606 0.3026
C30A C 0.4324(9) 1.2494(7) 0.2035(4)
H24A H 0.4819 1.3100 0.1742
C31A C 0.3395(12) 1.1896(8) 0.1711(4)
C32A C 0.2759(13) 1.0958(8) 0.2126(5)
H25A H 0.2192 1.0519 0.1890
C33A C 0.2937(9) 1.0651(7) 0.2883(4)
H26A H 0.2471 1.0024 0.3165
O1A O 0.4526(5) 1.4489(4) -0.0983(2)
O2A O 0.9198(5) 1.1355(4) -0.5112(3)
H33A H 0.9551 1.1007 -0.5492
H34A H 0.9347 1.0954 -0.4692
O3A O 0.1740(5) 1.2602(5) -0.1160(3)
O4A O 0.3079(11) 1.2124(6) 0.0968(3)
O5A O 0.0960(10) 1.4327(6) 0.0756(3)
O6A O 0.7286(5) 1.2310(4) -0.3975(3)
O7A O 0.5159(5) 1.2794(4) -0.4323(2)
O8A O 0.2605(5) 0.9391(4) -0.3840(2)
O8_2 O 0.7395(5) 1.0609(4) -0.6160(2)
O8A_2 O 0.2605(5) 0.9391(4) 0.6160(2)
O9A O 0.0389(5) 1.0131(5) -0.3903(3)
O10A O 0.3639(5) 0.9980(4) 0.4363(3)
O11A O 0.4631(4) 1.1630(4) 0.4390(2)
O11_2 O 0.5369(4) 0.8370(4) 0.5610(2)
O11A_2 O 0.4631(4) 1.1630(4) -0.5610(2)
O12A O -0.2690(5) 1.3181(4) 0.4063(3)
O12_2 O 0.2690(5) 0.6819(4) 0.5937(3)
O12A_2 O 0.7310(5) 1.3181(4) -0.5937(3)
O13A O -0.1476(8) 1.4651(6) 0.4198(3)
N1 N 0.2683(7) 0.3722(6) 0.4977(4)
H1 H 0.3569 0.3352 0.5112
H2 H 0.2468 0.4341 0.5280
C34 C 0.1558(12) 0.2944(10) 0.5186(9)
H27 H 0.1500 0.2675 0.5727
H28 H 0.1752 0.2311 0.4893
H29 H 0.0655 0.3315 0.5080
C35 C 0.288(2) 0.4174(11) 0.4188(6)
H30 H 0.3653 0.4702 0.4096
H31 H 0.2002 0.4561 0.4056
H32 H 0.3121 0.3567 0.3876
loop_
_geom_bond_atom_site_label_1
_geom_bond_atom_site_label_2
_geom_bond_site_symmetry_1
_geom_bond_site_symmetry_2
Y1 O2 1_555 1_555
N1 H1 1_555 1_555
H2 N1 1_555 1_555
C1 C2 1_555 1_555
C2 H3 1_555 1_555
H4 C2 1_555 1_555
C3 C1 1_555 1_555
H5 C3 1_555 1_555
H6 C3 1_555 1_555
C4 C1 1_555 1_555
H7 C4 1_555 1_555
H8 C4 1_555 1_555
C5 C1 1_555 1_555
H9 C5 1_555 1_555
H10 C5 1_555 1_555
C6 C7 1_555 1_555
C7 H11 1_555 1_555
C8 C7 1_555 1_555
H12 C8 1_555 1_555
C9 C8 1_555 1_555
C10 C9 1_555 1_555
H13 C10 1_555 1_555
C11 C6 1_555 1_555
H14 C11 1_555 1_555
C12 C9 1_555 1_555
C13 C14 1_555 1_555
C14 H15 1_555 1_555
C15 C14 1_555 1_555
H16 C15 1_555 1_555
C16 C15 1_555 1_555
C17 C16 1_555 1_555
H17 C17 1_555 1_555
C18 C13 1_555 1_555
H18 C18 1_555 1_555
C19 C16 1_555 1_555
C20 C21 1_555 1_555
C21 C22 1_555 1_555
C22 H19 1_555 1_555
C23 C22 1_555 1_555
H20 C23 1_555 1_555
C24 C23 1_555 1_555
C25 C24 1_555 1_555
H21 C25 1_555 1_555
C26 C21 1_555 1_555
H22 C26 1_555 1_555
C27 C28 1_555 1_555
C28 C29 1_555 1_555
C29 H23 1_555 1_555
C30 C29 1_555 1_555
H24 C30 1_555 1_555
C31 C30 1_555 1_555
C32 C31 1_555 1_555
H25 C32 1_555 1_555
C33 C28 1_555 1_555
H26 C33 1_555 1_555
C34 N1 1_555 1_555
H27 C34 1_555 1_555
H28 C34 1_555 1_555
H29 C34 1_555 1_555
C35 N1 1_555 1_555
H30 C35 1_555 1_555
H31 C35 1_555 1_555
H32 C35 1_555 1_555
O1 C2 1_555 1_555
O2 H33 1_555 1_555
H34 O2 1_555 1_555
O3 C3 1_555 1_555
O4 C4 1_555 1_555
O5 C5 1_555 1_555
O6 Y1 1_555 1_555
O7 Y1 1_555 1_555
O8 C19 1_555 1_555
O9 C19 1_555 1_555
O10 C27 1_555 1_555
O11 C27 1_555 1_555
O12 C20 1_555 1_555
O13 C20 1_555 1_555
Y1A O10 1_555 1_555
Y1_2 O11 1_555 1_555
Y1_3 O12 1_555 1_555
Y1A_2 O12A 1_555 1_555
Y1A_3 O8 1_555 1_555
C1A C2A 1_555 1_555
C2A H3A 1_555 1_555
H4A C2A 1_555 1_555
C3A C1A 1_555 1_555
H5A C3A 1_555 1_555
H6A C3A 1_555 1_555
C4A C1A 1_555 1_555
H7A C4A 1_555 1_555
H8A C4A 1_555 1_555
C5A C1A 1_555 1_555
H9A C5A 1_555 1_555
H10A C5A 1_555 1_555
C6A C7A 1_555 1_555
C7A H11A 1_555 1_555
C8A C7A 1_555 1_555
H12A C8A 1_555 1_555
C9A C8A 1_555 1_555
C10A C9A 1_555 1_555
H13A C10A 1_555 1_555
C11A C6A 1_555 1_555
H14A C11A 1_555 1_555
C12A C9A 1_555 1_555
C13A C14A 1_555 1_555
C14A H15A 1_555 1_555
C15A C14A 1_555 1_555
H16A C15A 1_555 1_555
C16A C15A 1_555 1_555
C17A C16A 1_555 1_555
H17A C17A 1_555 1_555
C18A C13A 1_555 1_555
H18A C18A 1_555 1_555
C19A C16A 1_555 1_555
C20A C21A 1_555 1_555
C21A C22A 1_555 1_555
C22A H19A 1_555 1_555
C23A C22A 1_555 1_555
H20A C23A 1_555 1_555
C24A C23A 1_555 1_555
C25A C24A 1_555 1_555
H21A C25A 1_555 1_555
C26A C21A 1_555 1_555
H22A C26A 1_555 1_555
C27A C28A 1_555 1_555
C28A C29A 1_555 1_555
C29A H23A 1_555 1_555
C30A C29A 1_555 1_555
H24A C30A 1_555 1_555
C31A C30A 1_555 1_555
C32A C31A 1_555 1_555
H25A C32A 1_555 1_555
C33A C28A 1_555 1_555
H26A C33A 1_555 1_555
O1A C2A 1_555 1_555
O2A Y1A 1_555 1_555
H33A O2A 1_555 1_555
H34A O2A 1_555 1_555
O3A C3A 1_555 1_555
O4A C4A 1_555 1_555
O5A C5A 1_555 1_555
O6A Y1A 1_555 1_555
O7A Y1A 1_555 1_555
O8A Y1_2 1_555 1_555
O8_2 Y1A 1_555 1_555
O8A_2 Y1 1_555 1_555
O9A C19A 1_555 1_555
O10A Y1 1_555 1_555
O11A Y1A_3 1_555 1_555
O11_2 Y1 1_555 1_555
O11A_2 Y1A 1_555 1_555
O12A C20A 1_555 1_555
O12_2 Y1 1_555 1_555
O12A_2 Y1A 1_555 1_555
O13A C20A 1_555 1_555
C6 O1 1_555 1_555
C10 C11 1_555 1_555
C12 O6 1_555 1_555
C12 O7 1_555 1_555
C13 O3 1_555 1_555
C17 C18 1_555 1_555
C24 O5 1_555 1_555
C25 C26 1_555 1_555
C31 O4 1_555 1_555
C32 C33 1_555 1_555
C6A O1A 1_555 1_555
C10A C11A 1_555 1_555
C12A O6A 1_555 1_555
C12A O7A 1_555 1_555
C13A O3A 1_555 1_555
C17A C18A 1_555 1_555
C19A O8A 1_555 1_555
C24A O5A 1_555 1_555
C25A C26A 1_555 1_555
C27A O10A 1_555 1_555
C27A O11A 1_555 1_555
C31A O4A 1_555 1_555
C32A C33A 1_555 1_555

#END
