
#######################################################################
#
#                 Cambridge Crystallographic Data Centre
#                                CCDC 
#
#######################################################################
#
# If this CIF has been generated from an entry in the Cambridge 
# Structural Database, then it will include bibliographic, chemical, 
# crystal, experimental, refinement or atomic coordinate data resulting 
# from the CCDC's data processing and validation procedures.
#
#######################################################################

data_VEGLOJ
_symmetry_cell_setting           triclinic
_symmetry_space_group_name_H-M   'P -1'
_symmetry_Int_Tables_number      2
_space_group_name_Hall           '-P 1'
loop_
_symmetry_equiv_pos_site_id
_symmetry_equiv_pos_as_xyz
1 x,y,z
2 -x,-y,-z
_cell_length_a                   7.9451(16)
_cell_length_b                   9.0421(18)
_cell_length_c                   10.538(2)
_cell_angle_alpha                72.22(3)
_cell_angle_beta                 84.09(3)
_cell_angle_gamma                84.01(3)
_cell_volume                     714.935
loop_
_atom_site_label
_atom_site_type_symbol
_atom_site_fract_x
_atom_site_fract_y
_atom_site_fract_z
C1 C 0.0612(7) 0.0401(6) 0.2534(5)
C2 C -0.0140(8) 0.0124(7) 0.1376(5)
H1 H -0.1304 -0.0164 0.1664
C3 C -0.0205(9) 0.1559(7) 0.0177(6)
H2 H 0.0924 0.1921 -0.0071
H3 H -0.0937 0.2379 0.0411
C4 C 0.0869(9) -0.1235(7) 0.1021(6)
H4 H 0.0809 -0.2159 0.1787
H5 H 0.2050 -0.1009 0.0814
C5 C 0.4567(6) 0.3221(6) 0.7366(5)
H6 H 0.4788 0.2583 0.8277
C6 C 0.5901(7) 0.4400(6) 0.6932(6)
H7 H 0.7016 0.3859 0.6890
H8 H 0.5701 0.5090 0.6046
C7 C 0.5854(7) 0.5351(6) 0.7898(6)
H9 H 0.6677 0.6128 0.7572
H10 H 0.6172 0.4673 0.8761
C8 C 0.2717(7) 0.5010(6) 0.8431(6)
H11 H 0.2854 0.4314 0.9325
H12 H 0.1607 0.5570 0.8433
C9 C 0.4079(7) 0.6171(6) 0.8068(5)
H13 H 0.4087 0.6581 0.8828
C10 C 0.2807(7) 0.4052(6) 0.7456(6)
H14 H 0.2547 0.4732 0.6579
H15 H 0.1967 0.3289 0.7751
C11 C 0.4678(7) 0.2115(6) 0.6533(5)
C12 C 0.3691(7) 0.7549(6) 0.6866(6)
O1 O 0.0075(4) -0.0361(4) 0.3730(4)
O2 O 0.1766(5) 0.1289(5) 0.2350(4)
O3 O 0.3334(5) 0.1828(5) 0.6143(4)
O4 O 0.6133(5) 0.1504(5) 0.6283(4)
O5 O 0.2246(5) 0.7814(5) 0.6450(5)
O6 O 0.4831(5) 0.8512(4) 0.6328(4)
O7 O 0.0731(5) 0.3089(5) 0.4242(5)
Pr1 Pr 0.25493(3) 0.04192(3) 0.47339(3)
C1A C -0.0612(7) -0.0401(6) -0.2534(5)
C2A C 0.0140(8) -0.0124(7) -0.1376(5)
H1A H 0.1304 0.0164 -0.1664
C3A C 0.0205(9) -0.1559(7) -0.0177(6)
H2A H -0.0924 -0.1921 0.0071
H3A H 0.0937 -0.2379 -0.0411
C4A C -0.0869(9) 0.1235(7) -0.1021(6)
H4A H -0.0809 0.2159 -0.1787
H5A H -0.2050 0.1009 -0.0814
C5A C 0.5433(6) -0.3221(6) 0.2634(5)
H6A H 0.5212 -0.2583 0.1723
C6A C 0.4099(7) -0.4400(6) 0.3068(6)
H7A H 0.2984 -0.3859 0.3110
H8A H 0.4299 -0.5090 0.3954
C7A C 0.4146(7) -0.5351(6) 0.2102(6)
H9A H 0.3323 -0.6128 0.2428
H10A H 0.3828 -0.4673 0.1239
C8A C 0.7283(7) -0.5010(6) 0.1569(6)
H11A H 0.7146 -0.4314 0.0675
H12A H 0.8393 -0.5570 0.1567
C9A C 0.5921(7) -0.6171(6) 0.1932(5)
H13A H 0.5913 -0.6581 0.1172
C10A C 0.7193(7) -0.4052(6) 0.2544(6)
H14A H 0.7453 -0.4732 0.3421
H15A H 0.8033 -0.3289 0.2249
C11A C 0.5322(7) -0.2115(6) 0.3467(5)
C12A C 0.6309(7) -0.7549(6) 0.3134(6)
O1A O -0.0075(4) 0.0361(4) -0.3730(4)
O1A_2 O -0.0075(4) 0.0361(4) 0.6270(4)
O1_2 O 0.0075(4) -0.0361(4) -0.6270(4)
O2A O -0.1766(5) -0.1289(5) -0.2350(4)
O3A O 0.6666(5) -0.1828(5) 0.3857(4)
O3A_2 O -0.3334(5) -0.1828(5) -0.6143(4)
O4A O 0.3867(5) -0.1504(5) 0.3717(4)
O4_2 O -0.3867(5) 0.1504(5) -0.3717(4)
O5A O 0.7754(5) -0.7814(5) 0.3550(5)
O5_2 O 0.2246(5) -0.2186(5) 0.6450(5)
O5A_2 O -0.2246(5) 0.2186(5) -0.6450(5)
O6A O 0.5169(5) -0.8512(4) 0.3672(4)
O6_2 O 0.4831(5) -0.1488(4) 0.6328(4)
O6A_2 O 0.5169(5) 0.1488(4) 0.3672(4)
O6_3 O -0.5169(5) -0.1488(4) -0.3672(4)
O6A_3 O -0.4831(5) 0.1488(4) -0.6328(4)
O7A O -0.0731(5) -0.3089(5) -0.4242(5)
Pr1A Pr -0.25493(3) -0.04192(3) -0.47339(3)
Pr1A_2 Pr -0.25493(3) -0.04192(3) 0.52661(3)
Pr1A_3 Pr 0.74507(3) -0.04192(3) 0.52661(3)
Pr1_2 Pr 0.25493(3) 1.04192(3) 0.47339(3)
Pr1A_4 Pr 0.74507(3) 0.95808(3) 0.52661(3)
Pr1_3 Pr 0.25493(3) 0.04192(3) -0.52661(3)
Pr1A_5 Pr 0.74507(3) -1.04192(3) 0.52661(3)
Pr1_4 Pr 0.25493(3) -0.95808(3) 0.47339(3)
O8 O 0.4967(12) 0.1018(12) 0.0775(10)
loop_
_geom_bond_atom_site_label_1
_geom_bond_atom_site_label_2
_geom_bond_site_symmetry_1
_geom_bond_site_symmetry_2
C1 C2 1_555 1_555
C2 H1 1_555 1_555
C3 C2 1_555 1_555
H2 C3 1_555 1_555
H3 C3 1_555 1_555
C4 C2 1_555 1_555
H4 C4 1_555 1_555
H5 C4 1_555 1_555
C5 H6 1_555 1_555
C6 C5 1_555 1_555
H7 C6 1_555 1_555
H8 C6 1_555 1_555
C7 C6 1_555 1_555
H9 C7 1_555 1_555
H10 C7 1_555 1_555
C8 H11 1_555 1_555
H12 C8 1_555 1_555
C9 C7 1_555 1_555
H13 C9 1_555 1_555
C10 C5 1_555 1_555
H14 C10 1_555 1_555
H15 C10 1_555 1_555
C11 C5 1_555 1_555
C12 C9 1_555 1_555
O1 C1 1_555 1_555
O2 C1 1_555 1_555
O3 C11 1_555 1_555
O4 C11 1_555 1_555
O5 C12 1_555 1_555
O6 C12 1_555 1_555
O7 Pr1 1_555 1_555
Pr1 O1 1_555 1_555
C1A C2A 1_555 1_555
C2A H1A 1_555 1_555
C3A C4 1_555 1_555
H2A C3A 1_555 1_555
H3A C3A 1_555 1_555
C4A C3 1_555 1_555
H4A C4A 1_555 1_555
H5A C4A 1_555 1_555
C5A H6A 1_555 1_555
C6A C5A 1_555 1_555
H7A C6A 1_555 1_555
H8A C6A 1_555 1_555
C7A C6A 1_555 1_555
H9A C7A 1_555 1_555
H10A C7A 1_555 1_555
C8A H11A 1_555 1_555
H12A C8A 1_555 1_555
C9A C7A 1_555 1_555
H13A C9A 1_555 1_555
C10A C5A 1_555 1_555
H14A C10A 1_555 1_555
H15A C10A 1_555 1_555
C11A C5A 1_555 1_555
C12A C9A 1_555 1_555
O1A C1A 1_555 1_555
O1A_2 Pr1 1_555 1_555
O1_2 Pr1A 1_555 1_555
O2A C1A 1_555 1_555
O3A C11A 1_555 1_555
O3A_2 Pr1A 1_555 1_555
O4A Pr1 1_555 1_555
O4_2 Pr1A 1_555 1_555
O5A C12A 1_555 1_555
O5_2 Pr1 1_555 1_555
O5A_2 Pr1A 1_555 1_555
O6A C12A 1_555 1_555
O6_2 Pr1 1_555 1_555
O6A_2 Pr1 1_555 1_555
O6_3 Pr1A 1_555 1_555
O6A_3 Pr1A 1_555 1_555
O7A Pr1A 1_555 1_555
Pr1A O1A 1_555 1_555
Pr1A_2 O1 1_555 1_555
Pr1A_3 O4 1_555 1_555
Pr1_2 O5 1_555 1_555
Pr1A_4 O6 1_555 1_555
Pr1_3 O1A 1_555 1_555
Pr1A_5 O5A 1_555 1_555
Pr1_4 O6A 1_555 1_555
C8 C9 1_555 1_555
C8 C10 1_555 1_555
O2 Pr1 1_555 1_555
O3 Pr1 1_555 1_555
O6 Pr1_2 1_555 1_555
C2A C3A 1_555 1_555
C2A C4A 1_555 1_555
C8A C9A 1_555 1_555
C8A C10A 1_555 1_555
C11A O4A 1_555 1_555
O1A_2 Pr1A_2 1_555 1_555
O1_2 Pr1_3 1_555 1_555
O2A Pr1A 1_555 1_555
O3A Pr1A_3 1_555 1_555
O6A Pr1A_5 1_555 1_555
O6_2 Pr1A_3 1_555 1_555
O6A_2 Pr1A_3 1_555 1_555

#END
