
#######################################################################
#
#                 Cambridge Crystallographic Data Centre
#                                CCDC 
#
#######################################################################
#
# If this CIF has been generated from an entry in the Cambridge 
# Structural Database, then it will include bibliographic, chemical, 
# crystal, experimental, refinement or atomic coordinate data resulting 
# from the CCDC's data processing and validation procedures.
#
#######################################################################

data_VEGMEB
_symmetry_cell_setting           monoclinic
_symmetry_space_group_name_H-M   'P 21/c'
_symmetry_Int_Tables_number      14
_space_group_name_Hall           '-P 2ybc'
loop_
_symmetry_equiv_pos_site_id
_symmetry_equiv_pos_as_xyz
1 x,y,z
2 -x,1/2+y,1/2-z
3 -x,-y,-z
4 x,1/2-y,1/2+z
_cell_length_a                   11.134(2)
_cell_length_b                   16.751(3)
_cell_length_c                   9.859(2)
_cell_angle_alpha                90
_cell_angle_beta                 106.73(3)
_cell_angle_gamma                90
_cell_volume                     1760.93
loop_
_atom_site_label
_atom_site_type_symbol
_atom_site_fract_x
_atom_site_fract_y
_atom_site_fract_z
Ag1 Ag 0.07534(2) 0.240163(17) 0.93479(3)
C1 C -0.1012(3) 0.3196(2) 1.0836(3)
H1 H -0.0676 0.3671 1.0564
C2 C -0.1912(3) 0.32687(19) 1.1527(3)
H2 H -0.2189 0.3783 1.1713
C3 C -0.2424(3) 0.25865(19) 1.1959(4)
C4 C -0.1956(3) 0.18536(19) 1.1665(4)
H3 H -0.2261 0.1370 1.1946
C5 C -0.1056(3) 0.1836(2) 1.0972(4)
H4 H -0.0746 0.1330 1.0795
C6 C -0.3472(3) 0.2634(2) 1.2619(4)
H5 H -0.3451 0.2160 1.3226
H6 H -0.3369 0.3115 1.3224
C7 C -0.4742(3) 0.2670(2) 1.1465(4)
H7 H -0.4804 0.2213 1.0811
H8 H -0.4781 0.3167 1.0909
C8 C -0.5830(3) 0.26494(18) 1.2060(3)
C9 C -0.6115(3) 0.19535(18) 1.2710(3)
H9 H -0.5627 0.1484 1.2747
C10 C -0.7099(3) 0.19555(18) 1.3289(3)
H10 H -0.7280 0.1477 1.3710
C11 C -0.7560(3) 0.32608(18) 1.2658(3)
H11 H -0.8067 0.3720 1.2632
C12 C -0.6593(3) 0.33050(17) 1.2050(3)
H12 H -0.6447 0.3789 1.1619
N1 N -0.0579(3) 0.24945(14) 1.0522(3)
N2 N -0.7818(3) 0.25969(14) 1.3289(3)
O1 O 0.0468(2) 0.08164(14) 0.9042(2)
H13 H -0.0215 0.0619 0.8836
H14 H 0.0848 0.0600 0.9761
Ag1C Ag -0.92466(2) 0.259837(17) 1.43479(3)
N2C N 0.2182(3) 0.24031(14) 0.8289(3)
C13 C 0.2964(3) 0.00227(17) 0.1763(3)
C14 C 0.3452(3) 0.0166(2) 0.0496(3)
H15 H 0.2905 -0.0127 -0.0323
H16 H 0.3364 0.0742 0.0263
C15 C 0.4792(3) -0.0071(2) 0.0651(3)
H17 H 0.5349 0.0232 0.1449
H18 H 0.4893 -0.0645 0.0895
O2 O 0.1797(2) 0.01046(14) 0.1579(2)
O3 O 0.3728(2) -0.01521(14) 0.2940(2)
C13B C 0.7036(3) -0.00227(17) -0.1763(3)
C14B C 0.6548(3) -0.0166(2) -0.0496(3)
H15B H 0.7095 0.0127 0.0323
H16B H 0.6636 -0.0742 -0.0263
C15B C 0.5208(3) 0.0071(2) -0.0651(3)
H17B H 0.4651 -0.0232 -0.1449
H18B H 0.5107 0.0645 -0.0895
O2B O 0.8203(2) -0.01046(14) -0.1579(2)
O3B O 0.6272(2) 0.01521(14) -0.2940(2)
O4 O 0.1654(2) -0.00583(15) 0.6287(3)
H19 H 0.2320 -0.0214 0.6240
H20 H 0.1327 0.0148 0.5539
O5 O 0.0663(2) 0.06799(15) 0.3657(3)
H21 H 0.0924 0.0494 0.3048
H22 H -0.0010 0.0474 0.3510
O6 O 0.6111(2) 0.04484(16) 0.4229(2)
H23 H 0.6199 0.0283 0.5013
H24 H 0.5538 0.0140 0.4015
loop_
_geom_bond_atom_site_label_1
_geom_bond_atom_site_label_2
_geom_bond_site_symmetry_1
_geom_bond_site_symmetry_2
Ag1 N1 1_555 1_555
C1 H1 1_555 1_555
C2 C1 1_555 1_555
H2 C2 1_555 1_555
C3 C2 1_555 1_555
C4 C3 1_555 1_555
H3 C4 1_555 1_555
C5 C4 1_555 1_555
H4 C5 1_555 1_555
C6 C3 1_555 1_555
H5 C6 1_555 1_555
H6 C6 1_555 1_555
C7 C6 1_555 1_555
H7 C7 1_555 1_555
H8 C7 1_555 1_555
C8 C7 1_555 1_555
C9 C8 1_555 1_555
H9 C9 1_555 1_555
C10 C9 1_555 1_555
H10 C10 1_555 1_555
C11 H11 1_555 1_555
C12 C8 1_555 1_555
H12 C12 1_555 1_555
N1 C1 1_555 1_555
N2 C10 1_555 1_555
O1 Ag1 1_555 1_555
H13 O1 1_555 1_555
H14 O1 1_555 1_555
C13 C14 1_555 1_555
C14 H15 1_555 1_555
H16 C14 1_555 1_555
C15 C14 1_555 1_555
H17 C15 1_555 1_555
H18 C15 1_555 1_555
O2 C13 1_555 1_555
O3 C13 1_555 1_555
O4 H19 1_555 1_555
H20 O4 1_555 1_555
O5 H21 1_555 1_555
H22 O5 1_555 1_555
O6 H23 1_555 1_555
H24 O6 1_555 1_555
Ag1C N2 1_555 1_555
N2C Ag1 1_555 1_555
C13B C14B 1_555 1_555
C14B H15B 1_555 1_555
H16B C14B 1_555 1_555
C15B C15 1_555 1_555
H17B C15B 1_555 1_555
H18B C15B 1_555 1_555
O2B C13B 1_555 1_555
O3B C13B 1_555 1_555
C5 N1 1_555 1_555
C11 C12 1_555 1_555
C11 N2 1_555 1_555
C14B C15B 1_555 1_555

#END
