
#######################################################################
#
#                 Cambridge Crystallographic Data Centre
#                                CCDC 
#
#######################################################################
#
# If this CIF has been generated from an entry in the Cambridge 
# Structural Database, then it will include bibliographic, chemical, 
# crystal, experimental, refinement or atomic coordinate data resulting 
# from the CCDC's data processing and validation procedures.
#
#######################################################################

data_VEGNAY
_symmetry_cell_setting           monoclinic
_symmetry_space_group_name_H-M   'P 21/n'
_symmetry_Int_Tables_number      14
_space_group_name_Hall           '-P 2yn'
loop_
_symmetry_equiv_pos_site_id
_symmetry_equiv_pos_as_xyz
1 x,y,z
2 1/2-x,1/2+y,1/2-z
3 -x,-y,-z
4 1/2+x,1/2-y,1/2+z
_cell_length_a                   5.3340(2)
_cell_length_b                   14.2250(3)
_cell_length_c                   13.0920(4)
_cell_angle_alpha                90
_cell_angle_beta                 92.1210(14)
_cell_angle_gamma                90
_cell_volume                     992.69
loop_
_atom_site_label
_atom_site_type_symbol
_atom_site_fract_x
_atom_site_fract_y
_atom_site_fract_z
Ca1 Ca 0.85412(8) 0.23299(3) 0.52271(3)
P1 P 0.54601(12) 0.17863(4) 0.26977(4)
C1 C 0.6742(4) 0.07483(14) 0.20935(17)
H1 H 0.5943 0.0717 0.1412
H2 H 0.8446 0.0768 0.2020
N1 N 0.6078(4) -0.01465(12) 0.26270(14)
H3 H 0.4459 -0.0093 0.2812
O1 O 0.8037(3) -0.13001(11) 0.49894(11)
O2 O 0.3778(3) -0.14965(11) 0.04363(12)
O3 O 0.4233(3) -0.11076(12) 0.42196(13)
O4 O 0.7049(3) 0.20275(11) 0.36230(12)
O5 O 0.5167(3) 0.25029(11) 0.18680(12)
C2 C 0.6517(4) -0.09727(15) 0.43085(17)
O6 O 0.5885(3) 0.35891(12) 0.54737(13)
H4 H 0.4426 0.3591 0.5190
H5 H 0.6186 0.4194 0.5689
O7 O 0.2812(3) 0.14172(12) 0.30347(12)
H6 H 0.2653 0.1445 0.3746
O8 O 0.2080(3) -0.03528(12) 0.13653(13)
C3 C 0.3761(4) -0.09232(14) 0.11700(17)
C4 C 0.7741(4) -0.03154(16) 0.35510(17)
H7 H 0.9294 -0.0567 0.3293
H8 H 0.8113 0.0253 0.3886
C5 C 0.6045(4) -0.09715(15) 0.19119(17)
H9 H 0.7563 -0.1009 0.1588
H10 H 0.5845 -0.1543 0.2349
Ca1B Ca 0.14588(8) -0.23299(3) 0.47729(3)
Ca1_2 Ca -0.14588(8) 0.23299(3) 0.52271(3)
Ca1A Ca 0.64588(8) -0.26701(3) -0.02271(3)
Ca1A_2 Ca 0.64588(8) -0.26701(3) 0.97729(3)
Ca1B_2 Ca 1.14588(8) -0.23299(3) 0.47729(3)
Ca1C Ca 0.35412(8) 0.26701(3) 0.02271(3)
Ca1C_2 Ca 0.35412(8) 0.26701(3) 1.02271(3)
P1B P 0.45399(12) -0.17863(4) 0.73023(4)
C1B C 0.3258(4) -0.07483(14) 0.79065(17)
H1B H 0.4057 -0.0717 0.8588
H2B H 0.1554 -0.0768 0.7980
N1B N 0.3922(4) 0.01465(12) 0.73730(14)
H3B H 0.5541 0.0093 0.7188
O1B O 0.1963(3) 0.13001(11) 0.50106(11)
O1_2 O -0.1963(3) -0.13001(11) 0.49894(11)
O1B_2 O 1.1963(3) 0.13001(11) 0.50106(11)
O2B O 0.6222(3) 0.14965(11) 0.95637(12)
O2A O 1.1222(3) 0.35035(11) 0.45637(12)
O2C O -0.1222(3) -0.35035(11) 0.54363(12)
O3B O 0.5767(3) 0.11076(12) 0.57804(13)
O4B O 0.2951(3) -0.20275(11) 0.63770(12)
O5B O 0.4833(3) -0.25029(11) 0.81320(12)
O5A O -0.0167(3) -0.24971(11) 0.31320(12)
O5C O 1.0167(3) 0.24971(11) 0.68680(12)
C2B C 0.3483(4) 0.09727(15) 0.56915(17)
O6B O 0.4115(3) -0.35891(12) 0.45263(13)
H4B H 0.5574 -0.3591 0.4810
H5B H 0.3814 -0.4194 0.4311
O7B O 0.7188(3) -0.14172(12) 0.69653(12)
H6B H 0.7347 -0.1445 0.6254
O8B O 0.7920(3) 0.03528(12) 0.86347(13)
C3B C 0.6239(4) 0.09232(14) 0.88300(17)
C4B C 0.2259(4) 0.03154(16) 0.64490(17)
H7B H 0.0706 0.0567 0.6707
H8B H 0.1887 -0.0253 0.6114
C5B C 0.3955(4) 0.09715(15) 0.80881(17)
H9B H 0.2437 0.1009 0.8412
H10B H 0.4155 0.1543 0.7651
loop_
_geom_bond_atom_site_label_1
_geom_bond_atom_site_label_2
_geom_bond_site_symmetry_1
_geom_bond_site_symmetry_2
Ca1 O4 1_555 1_555
P1 C1 1_555 1_555
C1 H1 1_555 1_555
H2 C1 1_555 1_555
N1 C1 1_555 1_555
H3 N1 1_555 1_555
O1 C2 1_555 1_555
O2 C3 1_555 1_555
O3 C2 1_555 1_555
O4 P1 1_555 1_555
O5 P1 1_555 1_555
C2 C4 1_555 1_555
O6 Ca1 1_555 1_555
H4 O6 1_555 1_555
H5 O6 1_555 1_555
O7 P1 1_555 1_555
H6 O7 1_555 1_555
O8 C3 1_555 1_555
C3 C5 1_555 1_555
C4 N1 1_555 1_555
H7 C4 1_555 1_555
H8 C4 1_555 1_555
C5 N1 1_555 1_555
H9 C5 1_555 1_555
H10 C5 1_555 1_555
Ca1B O3 1_555 1_555
Ca1_2 O1B 1_555 1_555
Ca1A O2 1_555 1_555
Ca1A_2 O5B 1_555 1_555
Ca1B_2 O1 1_555 1_555
Ca1C O5 1_555 1_555
Ca1C_2 O2B 1_555 1_555
P1B C1B 1_555 1_555
C1B H1B 1_555 1_555
H2B C1B 1_555 1_555
N1B C1B 1_555 1_555
H3B N1B 1_555 1_555
O1B C2B 1_555 1_555
O1_2 Ca1B 1_555 1_555
O1B_2 Ca1 1_555 1_555
O2B C3B 1_555 1_555
O2A Ca1 1_555 1_555
O2C Ca1B 1_555 1_555
O3B Ca1 1_555 1_555
O4B Ca1B 1_555 1_555
O5B P1B 1_555 1_555
O5A Ca1B 1_555 1_555
O5C Ca1 1_555 1_555
C2B O3B 1_555 1_555
O6B Ca1B 1_555 1_555
H4B O6B 1_555 1_555
H5B O6B 1_555 1_555
O7B P1B 1_555 1_555
H6B O7B 1_555 1_555
O8B C3B 1_555 1_555
C3B C5B 1_555 1_555
C4B N1B 1_555 1_555
H7B C4B 1_555 1_555
H8B C4B 1_555 1_555
C5B N1B 1_555 1_555
H9B C5B 1_555 1_555
H10B C5B 1_555 1_555
P1B O4B 1_555 1_555
C2B C4B 1_555 1_555

#END
