
#######################################################################
#
#                 Cambridge Crystallographic Data Centre
#                                CCDC 
#
#######################################################################
#
# If this CIF has been generated from an entry in the Cambridge 
# Structural Database, then it will include bibliographic, chemical, 
# crystal, experimental, refinement or atomic coordinate data resulting 
# from the CCDC's data processing and validation procedures.
#
#######################################################################

data_VEGNUS
_symmetry_cell_setting           orthorhombic
_symmetry_space_group_name_H-M   'P b c n'
_symmetry_Int_Tables_number      60
_space_group_name_Hall           '-P 2n 2ab'
loop_
_symmetry_equiv_pos_site_id
_symmetry_equiv_pos_as_xyz
1 x,y,z
2 1/2-x,1/2-y,1/2+z
3 1/2+x,1/2-y,-z
4 -x,y,1/2-z
5 -x,-y,-z
6 1/2+x,1/2+y,1/2-z
7 1/2-x,1/2+y,z
8 x,-y,1/2+z
_cell_length_a                   21.9927(5)
_cell_length_b                   12.7858(3)
_cell_length_c                   11.2203(3)
_cell_angle_alpha                90
_cell_angle_beta                 90
_cell_angle_gamma                90
_cell_volume                     3155.08
loop_
_atom_site_label
_atom_site_type_symbol
_atom_site_fract_x
_atom_site_fract_y
_atom_site_fract_z
Ag1 Ag 0.535851(6) 1.038482(11) 0.607366(13)
N1 N 0.32168(7) 1.05075(13) 0.65289(14)
N2 N 0.56573(7) 0.89032(13) 0.68617(13)
N3 N 0.56077(8) 0.72087(13) 0.72575(14)
N4 N 0.47154(7) 1.16602(13) 0.59964(13)
N5 N 0.38202(7) 1.23832(12) 0.63547(13)
N6 N 0.39250(8) 0.96324(12) 0.55318(14)
C1 C 0.29738(10) 0.95501(16) 0.62663(18)
H1 H 0.2588 0.9309 0.6464
C2 C 0.34128(9) 0.90215(16) 0.56566(17)
H2 H 0.3372 0.8344 0.5366
C3 C 0.37895(8) 1.05206(14) 0.60792(15)
C4 C 0.29516(9) 1.14147(16) 0.71326(18)
H3 H 0.3084 1.1433 0.7957
H4 H 0.2512 1.1367 0.7120
C5 C 0.53340(9) 0.62273(16) 0.76747(18)
H5 H 0.5373 0.6172 0.8533
H6 H 0.5540 0.5635 0.7314
C6 C 0.62040(8) 0.84300(16) 0.65756(16)
H7 H 0.6541 0.8776 0.6268
C7 C 0.61784(9) 0.73882(16) 0.68071(17)
H8 H 0.6484 0.6898 0.6686
C8 C 0.53119(8) 0.81399(15) 0.72868(15)
C9 C 0.31563(9) 1.24032(16) 0.64944(18)
H9 H 0.2964 1.2445 0.5718
H10 H 0.3037 1.3013 0.6952
C10 C 0.42289(10) 1.31861(15) 0.62702(17)
H11 H 0.4147 1.3897 0.6342
C11 C 0.47797(9) 1.27345(16) 0.60592(16)
H12 H 0.5144 1.3095 0.5971
C12 C 0.41274(8) 1.14827(14) 0.61613(15)
Ag1C Ag 0.464149(6) 1.038482(11) 0.892634(13)
Ag1D Ag 0.464149(6) 0.961518(11) 0.392634(13)
Ag1G Ag 0.535851(6) 0.961518(11) 1.107366(13)
N1C N 0.67832(7) 1.05075(13) 0.84711(14)
N2C N 0.43427(7) 0.89032(13) 0.81383(13)
N3C N 0.43923(8) 0.72087(13) 0.77425(14)
N4C N 0.52846(7) 1.16602(13) 0.90036(13)
N5C N 0.61798(7) 1.23832(12) 0.86453(13)
N6C N 0.60750(8) 0.96324(12) 0.94682(14)
N6D N 0.60750(8) 1.03676(12) 0.44682(14)
N6G N 0.39250(8) 1.03676(12) 1.05318(14)
C1C C 0.70262(10) 0.95501(16) 0.87337(18)
H1C H 0.7412 0.9309 0.8536
C2C C 0.65872(9) 0.90215(16) 0.93434(17)
H2C H 0.6628 0.8344 0.9634
C3C C 0.62105(8) 1.05206(14) 0.89208(15)
C4C C 0.70484(9) 1.14147(16) 0.78674(18)
H3C H 0.6916 1.1433 0.7043
H4C H 0.7488 1.1367 0.7880
C5C C 0.46660(9) 0.62273(16) 0.73253(18)
H5C H 0.4627 0.6172 0.6467
H6C H 0.4460 0.5635 0.7686
C6C C 0.37960(8) 0.84300(16) 0.84244(16)
H7C H 0.3459 0.8776 0.8732
C7C C 0.38216(9) 0.73882(16) 0.81929(17)
H8C H 0.3516 0.6898 0.8314
C8C C 0.46881(8) 0.81399(15) 0.77132(15)
C9C C 0.68437(9) 1.24032(16) 0.85056(18)
H9C H 0.7036 1.2445 0.9282
H10C H 0.6963 1.3013 0.8048
C10C C 0.57711(10) 1.31861(15) 0.87298(17)
H11C H 0.5853 1.3897 0.8658
C11C C 0.52203(9) 1.27345(16) 0.89408(16)
H12C H 0.4856 1.3095 0.9029
C12C C 0.58726(8) 1.14827(14) 0.88387(15)
P1 P 0.33982(2) 0.57101(4) 0.43846(4)
F1 F 0.27065(6) 0.60784(11) 0.42475(12)
F2 F 0.34043(6) 0.53474(9) 0.30140(10)
F3 F 0.31832(6) 0.45642(10) 0.47624(12)
F4 F 0.40949(5) 0.53528(10) 0.45150(12)
F5 F 0.36236(6) 0.68540(10) 0.39928(11)
F6 F 0.33928(7) 0.60726(11) 0.57495(11)
loop_
_geom_bond_atom_site_label_1
_geom_bond_atom_site_label_2
_geom_bond_site_symmetry_1
_geom_bond_site_symmetry_2
Ag1 N2 1_555 1_555
N1 C1 1_555 1_555
N2 C6 1_555 1_555
N3 C5 1_555 1_555
N4 Ag1 1_555 1_555
N5 C9 1_555 1_555
N6 C2 1_555 1_555
C1 H1 1_555 1_555
C2 C1 1_555 1_555
H2 C2 1_555 1_555
C3 N1 1_555 1_555
C4 N1 1_555 1_555
H3 C4 1_555 1_555
H4 C4 1_555 1_555
C5 H5 1_555 1_555
H6 C5 1_555 1_555
C6 H7 1_555 1_555
C7 N3 1_555 1_555
H8 C7 1_555 1_555
C8 N2 1_555 1_555
C9 C4 1_555 1_555
H9 C9 1_555 1_555
H10 C9 1_555 1_555
C10 N5 1_555 1_555
H11 C10 1_555 1_555
C11 N4 1_555 1_555
H12 C11 1_555 1_555
C12 N4 1_555 1_555
P1 F1 1_555 1_555
F2 P1 1_555 1_555
F3 P1 1_555 1_555
F4 P1 1_555 1_555
F5 P1 1_555 1_555
F6 P1 1_555 1_555
Ag1C Ag1G 1_555 1_555
Ag1D Ag1 1_555 1_555
Ag1G N6C 1_555 1_555
N1C C1C 1_555 1_555
N2C Ag1C 1_555 1_555
N3C C5C 1_555 1_555
N4C Ag1C 1_555 1_555
N5C C9C 1_555 1_555
N6C C2C 1_555 1_555
N6D Ag1 1_555 1_555
N6G Ag1C 1_555 1_555
C1C H1C 1_555 1_555
C2C C1C 1_555 1_555
H2C C2C 1_555 1_555
C3C N1C 1_555 1_555
C4C N1C 1_555 1_555
H3C C4C 1_555 1_555
H4C C4C 1_555 1_555
C5C C5 1_555 1_555
H5C C5C 1_555 1_555
H6C C5C 1_555 1_555
C6C N2C 1_555 1_555
H7C C6C 1_555 1_555
C7C N3C 1_555 1_555
H8C C7C 1_555 1_555
C8C C8 1_555 1_555
C9C C4C 1_555 1_555
H9C C9C 1_555 1_555
H10C C9C 1_555 1_555
C10C N5C 1_555 1_555
H11C C10C 1_555 1_555
C11C N4C 1_555 1_555
H12C C11C 1_555 1_555
C12C N4C 1_555 1_555
N3 C8 1_555 1_555
N5 C12 1_555 1_555
N6 C3 1_555 1_555
N6 Ag1D 1_555 1_555
C3 C12 1_555 1_555
C6 C7 1_555 1_555
C10 C11 1_555 1_555
N2C C8C 1_555 1_555
N3C C8C 1_555 1_555
N5C C12C 1_555 1_555
N6C C3C 1_555 1_555
C3C C12C 1_555 1_555
C6C C7C 1_555 1_555
C10C C11C 1_555 1_555

#END
