
#######################################################################
#
#                 Cambridge Crystallographic Data Centre
#                                CCDC 
#
#######################################################################
#
# If this CIF has been generated from an entry in the Cambridge 
# Structural Database, then it will include bibliographic, chemical, 
# crystal, experimental, refinement or atomic coordinate data resulting 
# from the CCDC's data processing and validation procedures.
#
#######################################################################

data_VEGPII
_symmetry_cell_setting           monoclinic
_symmetry_space_group_name_H-M   'C 2/m'
_symmetry_Int_Tables_number      12
_space_group_name_Hall           '-C 2y'
loop_
_symmetry_equiv_pos_site_id
_symmetry_equiv_pos_as_xyz
1 x,y,z
2 -x,y,-z
3 1/2+x,1/2+y,z
4 1/2-x,1/2+y,-z
5 -x,-y,-z
6 x,-y,z
7 1/2-x,1/2-y,-z
8 1/2+x,1/2-y,z
_cell_length_a                   19.686(3)
_cell_length_b                   28.643(4)
_cell_length_c                   19.816(3)
_cell_angle_alpha                90
_cell_angle_beta                 112.198(3)
_cell_angle_gamma                90
_cell_volume                     10345.4
loop_
_atom_site_label
_atom_site_type_symbol
_atom_site_fract_x
_atom_site_fract_y
_atom_site_fract_z
Ru1 Ru -0.20780(2) 0.278752(13) 0.02472(3)
Ru2 Ru 0.44043(3) 0.5000 0.46012(4)
O1 O -0.27751(19) 0.30655(11) 0.0697(2)
O2 O -0.35979(18) 0.24997(12) 0.0225(2)
O3 O -0.15954(19) 0.23782(11) 0.11548(19)
O4 O -0.24181(19) 0.18113(11) 0.0670(2)
O5 O 0.4763(3) 0.5000 0.3743(3)
O6 O 0.5944(3) 0.5000 0.4545(3)
O7 O 0.4416(2) 0.42803(12) 0.4626(2)
N1 N -0.1299(2) 0.33812(13) 0.0836(3)
N2 N -0.0459(3) 0.5000 0.1492(3)
N3 N 0.0609(3) 0.45806(14) 0.2215(3)
N4 N 0.3195(3) 0.5000 0.3790(4)
C1 C -0.3376(3) 0.28719(17) 0.0592(4)
C2 C -0.3850(4) 0.30757(19) 0.0954(4)
C3 C -0.3611(5) 0.3482(3) 0.1370(5)
C4 C -0.4029(6) 0.3686(3) 0.1711(6)
C5 C -0.4700(5) 0.3477(3) 0.1645(6)
C6 C -0.4935(4) 0.3069(3) 0.1254(5)
C7 C -0.4489(4) 0.2872(2) 0.0930(4)
C8 C -0.1848(3) 0.19744(17) 0.1175(3)
C9 C -0.1455(3) 0.16807(18) 0.1820(4)
C10 C -0.0953(4) 0.1883(3) 0.2440(4)
C11 C -0.0566(5) 0.1607(3) 0.3036(4)
C12 C -0.0691(5) 0.1134(3) 0.3009(5)
C13 C -0.1207(4) 0.0929(3) 0.2389(5)
C14 C -0.1599(3) 0.1203(2) 0.1799(4)
C15 C -0.1589(3) 0.38050(16) 0.0637(4)
C16 C -0.1213(3) 0.42027(17) 0.0936(4)
C17 C -0.0496(3) 0.41667(16) 0.1459(3)
C18 C -0.0221(3) 0.37349(18) 0.1655(4)
C19 C -0.0628(3) 0.33537(17) 0.1342(3)
C20 C -0.0089(3) 0.46037(16) 0.1742(3)
C21 C 0.0932(4) 0.5000 0.2442(4)
C22 C 0.1708(4) 0.5000 0.2910(4)
C23 C 0.2090(3) 0.54115(17) 0.3132(4)
C24 C 0.2830(3) 0.53999(17) 0.3586(4)
C25 C 0.5453(6) 0.5000 0.3915(6)
C26 C 0.5690(7) 0.5000 0.3269(7)
C27 C 0.5293(8) 0.5000 0.2596(8)
C28 C 0.5567(9) 0.5000 0.2049(8)
C29 C 0.6211(10) 0.5000 0.2155(9)
C30 C 0.6726(9) 0.5000 0.2860(9)
C31 C 0.6421(9) 0.5000 0.3408(9)
C32 C 0.5000 0.4072(3) 0.5000
C33 C 0.5000 0.3554(3) 0.5000
C34 C 0.5658(4) 0.3313(3) 0.5243(5)
C35 C 0.5647(6) 0.2813(3) 0.5234(7)
C36 C 0.5000 0.2579(4) 0.5000
H1 H -0.3156 0.3619 0.1418
H2 H -0.3868 0.3965 0.1986
H3 H -0.4995 0.3619 0.1873
H4 H -0.5387 0.2927 0.1209
H5 H -0.4633 0.2584 0.0679
H6 H -0.0872 0.2210 0.2459
H7 H -0.0216 0.1744 0.3462
H8 H -0.0423 0.0944 0.3416
H9 H -0.1289 0.0602 0.2373
H10 H -0.1964 0.1068 0.1381
H11 H -0.2071 0.3830 0.0277
H12 H -0.1434 0.4500 0.0792
H13 H 0.0260 0.3697 0.2013
H14 H -0.0423 0.3053 0.1492
H15 H 0.1850 0.5702 0.2977
H16 H 0.3081 0.5686 0.3755
H17 H 0.4775 0.5000 0.2459
H18 H 0.5227 0.5000 0.1558
H19 H 0.6365 0.5000 0.1755
H20 H 0.7239 0.5000 0.2970
H21 H 0.6751 0.5000 0.3903
H22 H 0.6111 0.3477 0.5412
H23 H 0.6096 0.2645 0.5394
H24 H 0.5000 0.2247 0.5000
Ru1E Ru -0.20780(2) 0.721248(13) 0.02472(3)
Ru1A Ru 1.20780(2) 0.278752(13) 0.97528(3)
Ru1D Ru 1.20780(2) 0.721248(13) 0.97528(3)
Ru1F Ru -0.29220(2) 0.221248(13) -0.02472(3)
Ru1C Ru -0.29220(2) 0.778752(13) -0.02472(3)
Ru1G Ru 1.29220(2) 0.221248(13) 1.02472(3)
Ru1B Ru 1.29220(2) 0.778752(13) 1.02472(3)
Ru2A Ru 0.55957(3) 0.5000 0.53988(4)
O1F O -0.22249(19) 0.19345(11) -0.0697(2)
O1E O -0.27751(19) 0.69345(11) 0.0697(2)
O1C O -0.22249(19) 0.80655(11) -0.0697(2)
O1A O 1.27751(19) 0.30655(11) 0.9303(2)
O1D O 1.27751(19) 0.69345(11) 0.9303(2)
O2F O -0.14021(18) 0.25003(12) -0.0225(2)
O2E O -0.35979(18) 0.75003(12) 0.0225(2)
O2C O -0.14021(18) 0.74997(12) -0.0225(2)
O2G O 1.14021(18) 0.25003(12) 1.0225(2)
O2B O 1.14021(18) 0.74997(12) 1.0225(2)
O3F O -0.34046(19) 0.26218(11) -0.11548(19)
O3E O -0.15954(19) 0.76218(11) 0.11548(19)
O3C O -0.34046(19) 0.73782(11) -0.11548(19)
O3A O 1.15954(19) 0.23782(11) 0.88452(19)
O3D O 1.15954(19) 0.76218(11) 0.88452(19)
O4F O -0.25819(19) 0.31887(11) -0.0670(2)
O4E O -0.24181(19) 0.81887(11) 0.0670(2)
O4C O -0.25819(19) 0.68113(11) -0.0670(2)
O4G O 1.25819(19) 0.31887(11) 1.0670(2)
O4B O 1.25819(19) 0.68113(11) 1.0670(2)
O5A O 0.5237(3) 0.5000 0.6257(3)
O6A O 0.4056(3) 0.5000 0.5455(3)
O7A O 0.5584(2) 0.42803(12) 0.5374(2)
O7E O 0.4416(2) 0.57197(12) 0.4626(2)
O7D O 0.5584(2) 0.57197(12) 0.5374(2)
N1E N -0.1299(2) 0.66188(13) 0.0836(3)
N1A N 1.1299(2) 0.33812(13) 0.9164(3)
N1D N 1.1299(2) 0.66188(13) 0.9164(3)
N2A N 1.0459(3) 0.5000 0.8508(3)
N3E N 0.0609(3) 0.54194(14) 0.2215(3)
N3A N 0.9391(3) 0.45806(14) 0.7785(3)
N3D N 0.9391(3) 0.54194(14) 0.7785(3)
N4A N 0.6805(3) 0.5000 0.6210(4)
C1F C -0.1624(3) 0.21281(17) -0.0592(4)
C1E C -0.3376(3) 0.71281(17) 0.0592(4)
C1C C -0.1624(3) 0.78719(17) -0.0592(4)
C2F C -0.1150(4) 0.19243(19) -0.0954(4)
C2E C -0.3850(4) 0.69243(19) 0.0954(4)
C2C C -0.1150(4) 0.80757(19) -0.0954(4)
C3F C -0.1389(5) 0.1518(3) -0.1370(5)
C3E C -0.3611(5) 0.6518(3) 0.1370(5)
C3C C -0.1389(5) 0.8482(3) -0.1370(5)
C4F C -0.0971(6) 0.1314(3) -0.1711(6)
C4E C -0.4029(6) 0.6314(3) 0.1711(6)
C4C C -0.0971(6) 0.8686(3) -0.1711(6)
C5F C -0.0300(5) 0.1523(3) -0.1645(6)
C5E C -0.4700(5) 0.6523(3) 0.1645(6)
C5C C -0.0300(5) 0.8477(3) -0.1645(6)
C6F C -0.0065(4) 0.1931(3) -0.1254(5)
C6E C -0.4935(4) 0.6931(3) 0.1254(5)
C6C C -0.0065(4) 0.8069(3) -0.1254(5)
C7F C -0.0511(4) 0.2128(2) -0.0930(4)
C7E C -0.4489(4) 0.7128(2) 0.0930(4)
C7C C -0.0511(4) 0.7872(2) -0.0930(4)
C8F C -0.3152(3) 0.30256(17) -0.1175(3)
C8E C -0.1848(3) 0.80256(17) 0.1175(3)
C8C C -0.3152(3) 0.69744(17) -0.1175(3)
C9F C -0.3545(3) 0.33193(18) -0.1820(4)
C9E C -0.1455(3) 0.83193(18) 0.1820(4)
C9C C -0.3545(3) 0.66807(18) -0.1820(4)
C10F C -0.4047(4) 0.3117(3) -0.2440(4)
C10E C -0.0953(4) 0.8117(3) 0.2440(4)
C10C C -0.4047(4) 0.6883(3) -0.2440(4)
C11F C -0.4434(5) 0.3393(3) -0.3036(4)
C11E C -0.0566(5) 0.8393(3) 0.3036(4)
C11C C -0.4434(5) 0.6607(3) -0.3036(4)
C12F C -0.4309(5) 0.3866(3) -0.3009(5)
C12E C -0.0691(5) 0.8866(3) 0.3009(5)
C12C C -0.4309(5) 0.6134(3) -0.3009(5)
C13F C -0.3793(4) 0.4071(3) -0.2389(5)
C13E C -0.1207(4) 0.9071(3) 0.2389(5)
C13C C -0.3793(4) 0.5929(3) -0.2389(5)
C14F C -0.3401(3) 0.3797(2) -0.1799(4)
C14E C -0.1599(3) 0.8797(2) 0.1799(4)
C14C C -0.3401(3) 0.6203(2) -0.1799(4)
C15E C -0.1589(3) 0.61950(16) 0.0637(4)
C15A C 1.1589(3) 0.38050(16) 0.9363(4)
C15D C 1.1589(3) 0.61950(16) 0.9363(4)
C16E C -0.1213(3) 0.57973(17) 0.0936(4)
C16A C 1.1213(3) 0.42027(17) 0.9064(4)
C16D C 1.1213(3) 0.57973(17) 0.9064(4)
C17E C -0.0496(3) 0.58333(16) 0.1459(3)
C17A C 1.0496(3) 0.41667(16) 0.8541(3)
C17D C 1.0496(3) 0.58333(16) 0.8541(3)
C18E C -0.0221(3) 0.62651(18) 0.1655(4)
C18A C 1.0221(3) 0.37349(18) 0.8345(4)
C18D C 1.0221(3) 0.62651(18) 0.8345(4)
C19E C -0.0628(3) 0.66463(17) 0.1342(3)
C19A C 1.0628(3) 0.33537(17) 0.8658(3)
C19D C 1.0628(3) 0.66463(17) 0.8658(3)
C20E C -0.0089(3) 0.53963(16) 0.1742(3)
C20A C 1.0089(3) 0.46037(16) 0.8258(3)
C20D C 1.0089(3) 0.53963(16) 0.8258(3)
C21A C 0.9068(4) 0.5000 0.7558(4)
C22A C 0.8292(4) 0.5000 0.7090(4)
C23E C 0.2090(3) 0.45885(17) 0.3132(4)
C23A C 0.7910(3) 0.54115(17) 0.6868(4)
C23D C 0.7910(3) 0.45885(17) 0.6868(4)
C24E C 0.2830(3) 0.46001(17) 0.3586(4)
C24A C 0.7170(3) 0.53999(17) 0.6414(4)
C24D C 0.7170(3) 0.46001(17) 0.6414(4)
C25A C 0.4547(6) 0.5000 0.6085(6)
C26A C 0.4310(7) 0.5000 0.6731(7)
C27A C 0.4707(8) 0.5000 0.7404(8)
C28A C 0.4433(9) 0.5000 0.7951(8)
C29A C 0.3789(10) 0.5000 0.7845(9)
C30A C 0.3274(9) 0.5000 0.7140(9)
C31A C 0.3579(9) 0.5000 0.6592(9)
C32D C 0.5000 0.5928(3) 0.5000
C33D C 0.5000 0.6446(3) 0.5000
C34A C 0.4342(4) 0.3313(3) 0.4757(5)
C34E C 0.5658(4) 0.6687(3) 0.5243(5)
C34D C 0.4342(4) 0.6687(3) 0.4757(5)
C35A C 0.4353(6) 0.2813(3) 0.4766(7)
C35E C 0.5647(6) 0.7187(3) 0.5234(7)
C35D C 0.4353(6) 0.7187(3) 0.4766(7)
C36D C 0.5000 0.7421(4) 0.5000
H1F H -0.1844 0.1381 -0.1418
H1E H -0.3156 0.6381 0.1418
H1C H -0.1844 0.8619 -0.1418
H2F H -0.1132 0.1035 -0.1986
H2E H -0.3868 0.6035 0.1986
H2C H -0.1132 0.8965 -0.1986
H3F H -0.0005 0.1381 -0.1873
H3E H -0.4995 0.6381 0.1873
H3C H -0.0005 0.8619 -0.1873
H4F H 0.0387 0.2073 -0.1209
H4E H -0.5387 0.7073 0.1209
H4C H 0.0387 0.7927 -0.1209
H5F H -0.0367 0.2416 -0.0679
H5E H -0.4633 0.7416 0.0679
H5C H -0.0367 0.7584 -0.0679
H6F H -0.4128 0.2790 -0.2459
H6E H -0.0872 0.7790 0.2459
H6C H -0.4128 0.7210 -0.2459
H7F H -0.4784 0.3256 -0.3462
H7E H -0.0216 0.8256 0.3462
H7C H -0.4784 0.6744 -0.3462
H8F H -0.4577 0.4056 -0.3416
H8E H -0.0423 0.9056 0.3416
H8C H -0.4577 0.5944 -0.3416
H9F H -0.3711 0.4398 -0.2373
H9E H -0.1289 0.9398 0.2373
H9C H -0.3711 0.5602 -0.2373
H10F H -0.3036 0.3932 -0.1381
H10E H -0.1964 0.8932 0.1381
H10C H -0.3036 0.6068 -0.1381
H11E H -0.2071 0.6170 0.0277
H11A H 1.2071 0.3830 0.9723
H11D H 1.2071 0.6170 0.9723
H12E H -0.1434 0.5500 0.0792
H12A H 1.1434 0.4500 0.9208
H12D H 1.1434 0.5500 0.9208
H13E H 0.0260 0.6303 0.2013
H13A H 0.9740 0.3697 0.7987
H13D H 0.9740 0.6303 0.7987
H14E H -0.0423 0.6947 0.1492
H14A H 1.0423 0.3053 0.8508
H14D H 1.0423 0.6947 0.8508
H15E H 0.1850 0.4298 0.2977
H15A H 0.8150 0.5702 0.7023
H15D H 0.8150 0.4298 0.7023
H16E H 0.3081 0.4314 0.3755
H16A H 0.6919 0.5686 0.6245
H16D H 0.6919 0.4314 0.6245
H17A H 0.5225 0.5000 0.7541
H18A H 0.4773 0.5000 0.8442
H19A H 0.3635 0.5000 0.8245
H20A H 0.2761 0.5000 0.7030
H21A H 0.3249 0.5000 0.6097
H22A H 0.3889 0.3477 0.4588
H22E H 0.6111 0.6523 0.5412
H22D H 0.3889 0.6523 0.4588
H23A H 0.3904 0.2645 0.4606
H23E H 0.6096 0.7355 0.5394
H23D H 0.3904 0.7355 0.4606
H24D H 0.5000 0.7753 0.5000
C37 C 0.0349(3) 0.37258(18) 0.0254(4)
C38 C 0.0732(3) 0.41407(18) 0.0527(4)
C39 C 0.1468(3) 0.41532(19) 0.1041(4)
C40 C 0.1808(3) 0.4565(2) 0.1269(4)
C41 C 0.1460(4) 0.5000 0.1020(5)
C42 C 0.0741(4) 0.5000 0.0498(4)
C43 C 0.0371(3) 0.45711(16) 0.0259(3)
H25 H 0.0584 0.3436 0.0430
H26 H 0.1721 0.3870 0.1225
H27 H 0.2300 0.4564 0.1611
C37E C 0.0349(3) 0.62742(18) 0.0254(4)
C37D C -0.0349(3) 0.62742(18) -0.0254(4)
C37A C -0.0349(3) 0.37258(18) -0.0254(4)
C38E C 0.0732(3) 0.58593(18) 0.0527(4)
C38D C -0.0732(3) 0.58593(18) -0.0527(4)
C38A C -0.0732(3) 0.41407(18) -0.0527(4)
C39E C 0.1468(3) 0.58468(19) 0.1041(4)
C39D C -0.1468(3) 0.58468(19) -0.1041(4)
C39A C -0.1468(3) 0.41532(19) -0.1041(4)
C40E C 0.1808(3) 0.5435(2) 0.1269(4)
C40D C -0.1808(3) 0.5435(2) -0.1269(4)
C40A C -0.1808(3) 0.4565(2) -0.1269(4)
C41A C -0.1460(4) 0.5000 -0.1020(5)
C42A C -0.0741(4) 0.5000 -0.0498(4)
C43A C -0.0371(3) 0.45711(16) -0.0259(3)
C43D C -0.0371(3) 0.54289(16) -0.0259(3)
C43E C 0.0371(3) 0.54289(16) 0.0259(3)
H25E H 0.0584 0.6564 0.0430
H25A H -0.0584 0.3436 -0.0430
H25D H -0.0584 0.6564 -0.0430
H26A H -0.1721 0.3870 -0.1225
H26D H -0.1721 0.6130 -0.1225
H26E H 0.1721 0.6130 0.1225
H27A H -0.2300 0.4564 -0.1611
H27D H -0.2300 0.5436 -0.1611
H27E H 0.2300 0.5436 0.1611
loop_
_geom_bond_atom_site_label_1
_geom_bond_atom_site_label_2
_geom_bond_site_symmetry_1
_geom_bond_site_symmetry_2
Ru1 O1 1_555 1_555
Ru2 O5 1_555 1_555
O1 C1 1_555 1_555
O2 C1 1_555 1_555
O3 Ru1 1_555 1_555
O4 C8 1_555 1_555
O5 C25 1_555 1_555
O6 C25 1_555 1_555
O7 Ru2 1_555 1_555
N1 Ru1 1_555 1_555
N2 C20 1_555 1_555
N3 C20 1_555 1_555
N4 Ru2 1_555 1_555
C1 C2 1_555 1_555
C2 C3 1_555 1_555
C3 C4 1_555 1_555
C4 C5 1_555 1_555
C5 C6 1_555 1_555
C6 C7 1_555 1_555
C7 C2 1_555 1_555
C8 O3 1_555 1_555
C9 C8 1_555 1_555
C10 C9 1_555 1_555
C11 C10 1_555 1_555
C12 C11 1_555 1_555
C13 C12 1_555 1_555
C14 C9 1_555 1_555
C15 N1 1_555 1_555
C16 C15 1_555 1_555
C17 C16 1_555 1_555
C18 C17 1_555 1_555
C19 N1 1_555 1_555
C20 C17 1_555 1_555
C21 N3 1_555 1_555
C22 C21 1_555 1_555
C23 C22 1_555 1_555
C24 N4 1_555 1_555
C25 C26 1_555 1_555
C26 C27 1_555 1_555
C27 C28 1_555 1_555
C28 C29 1_555 1_555
C29 C30 1_555 1_555
C30 C31 1_555 1_555
C31 C26 1_555 1_555
C32 O7 1_555 1_555
C33 C32 1_555 1_555
C34 C33 1_555 1_555
C35 C34 1_555 1_555
C36 C35 1_555 1_555
C37 C38 1_555 1_555
C38 C39 1_555 1_555
C39 C40 1_555 1_555
C40 C41 1_555 1_555
C41 C42 1_555 1_555
C42 C43 1_555 1_555
C43 C38 1_555 1_555
H1 C3 1_555 1_555
H2 C4 1_555 1_555
H3 C5 1_555 1_555
H4 C6 1_555 1_555
H5 C7 1_555 1_555
H6 C10 1_555 1_555
H7 C11 1_555 1_555
H8 C12 1_555 1_555
H9 C13 1_555 1_555
H10 C14 1_555 1_555
H11 C15 1_555 1_555
H12 C16 1_555 1_555
H13 C18 1_555 1_555
H14 C19 1_555 1_555
H15 C23 1_555 1_555
H16 C24 1_555 1_555
H17 C27 1_555 1_555
H18 C28 1_555 1_555
H19 C29 1_555 1_555
H20 C30 1_555 1_555
H21 C31 1_555 1_555
H22 C34 1_555 1_555
H23 C35 1_555 1_555
H24 C36 1_555 1_555
H25 C37 1_555 1_555
H26 C39 1_555 1_555
H27 C40 1_555 1_555
Ru1E Ru1C 1_555 1_555
Ru1A Ru1G 1_555 1_555
Ru1D Ru1B 1_555 1_555
Ru1F Ru1 1_555 1_555
Ru1C O1C 1_555 1_555
Ru2A Ru2 1_555 1_555
O1F Ru1F 1_555 1_555
O1E Ru1E 1_555 1_555
O1C C1C 1_555 1_555
O1A Ru1A 1_555 1_555
O1D Ru1D 1_555 1_555
O2F Ru1 1_555 1_555
O2E Ru1C 1_555 1_555
O2C Ru1E 1_555 1_555
O2G Ru1A 1_555 1_555
O2B Ru1D 1_555 1_555
O3F Ru1F 1_555 1_555
O3E Ru1E 1_555 1_555
O3C Ru1C 1_555 1_555
O3A Ru1A 1_555 1_555
O3D Ru1D 1_555 1_555
O4F Ru1 1_555 1_555
O4E Ru1C 1_555 1_555
O4C Ru1E 1_555 1_555
O4G Ru1A 1_555 1_555
O4B Ru1D 1_555 1_555
O5A Ru2A 1_555 1_555
O6A Ru2 1_555 1_555
O7A C32 1_555 1_555
O7E Ru2 1_555 1_555
O7D Ru2A 1_555 1_555
N1E Ru1E 1_555 1_555
N1A Ru1A 1_555 1_555
N1D Ru1D 1_555 1_555
N2A C20A 1_555 1_555
N3E C21 1_555 1_555
N3A C20A 1_555 1_555
N3D C20D 1_555 1_555
N4A Ru2A 1_555 1_555
C1F O1F 1_555 1_555
C1E O1E 1_555 1_555
C1C O2C 1_555 1_555
C2F C1F 1_555 1_555
C2E C1E 1_555 1_555
C2C C1C 1_555 1_555
C3F C2F 1_555 1_555
C3E C2E 1_555 1_555
C3C C2C 1_555 1_555
C4F C3F 1_555 1_555
C4E C3E 1_555 1_555
C4C C3C 1_555 1_555
C5F C4F 1_555 1_555
C5E C4E 1_555 1_555
C5C C4C 1_555 1_555
C6F C5F 1_555 1_555
C6E C5E 1_555 1_555
C6C C5C 1_555 1_555
C7F C2F 1_555 1_555
C7E C2E 1_555 1_555
C7C C2C 1_555 1_555
C8F O3F 1_555 1_555
C8E O3E 1_555 1_555
C8C O3C 1_555 1_555
C9F C8F 1_555 1_555
C9E C8E 1_555 1_555
C9C C8C 1_555 1_555
C10F C9F 1_555 1_555
C10E C9E 1_555 1_555
C10C C9C 1_555 1_555
C11F C10F 1_555 1_555
C11E C10E 1_555 1_555
C11C C10C 1_555 1_555
C12F C11F 1_555 1_555
C12E C11E 1_555 1_555
C12C C11C 1_555 1_555
C13F C12F 1_555 1_555
C13E C12E 1_555 1_555
C13C C12C 1_555 1_555
C14F C9F 1_555 1_555
C14E C9E 1_555 1_555
C14C C9C 1_555 1_555
C15E N1E 1_555 1_555
C15A N1A 1_555 1_555
C15D N1D 1_555 1_555
C16E C15E 1_555 1_555
C16A C15A 1_555 1_555
C16D C15D 1_555 1_555
C17E C16E 1_555 1_555
C17A C16A 1_555 1_555
C17D C16D 1_555 1_555
C18E C17E 1_555 1_555
C18A C17A 1_555 1_555
C18D C17D 1_555 1_555
C19E N1E 1_555 1_555
C19A N1A 1_555 1_555
C19D N1D 1_555 1_555
C20E N2 1_555 1_555
C20A C17A 1_555 1_555
C20D N2A 1_555 1_555
C21A N3A 1_555 1_555
C22A C21A 1_555 1_555
C23E C22 1_555 1_555
C23A C22A 1_555 1_555
C23D C22A 1_555 1_555
C24E N4 1_555 1_555
C24A N4A 1_555 1_555
C24D N4A 1_555 1_555
C25A O5A 1_555 1_555
C26A C25A 1_555 1_555
C27A C26A 1_555 1_555
C28A C27A 1_555 1_555
C29A C28A 1_555 1_555
C30A C29A 1_555 1_555
C31A C26A 1_555 1_555
C32D O7E 1_555 1_555
C33D C32D 1_555 1_555
C34A C33 1_555 1_555
C34E C33D 1_555 1_555
C34D C33D 1_555 1_555
C35A C36 1_555 1_555
C35E C34E 1_555 1_555
C35D C34D 1_555 1_555
C36D C35E 1_555 1_555
C37E C37D 1_555 1_555
C37D C38D 1_555 1_555
C37A C37 1_555 1_555
C38E C37E 1_555 1_555
C38D C39D 1_555 1_555
C38A C37A 1_555 1_555
C39E C38E 1_555 1_555
C39D C40D 1_555 1_555
C39A C38A 1_555 1_555
C40E C41 1_555 1_555
C40D C41A 1_555 1_555
C40A C39A 1_555 1_555
C41A C40A 1_555 1_555
C42A C41A 1_555 1_555
C43A C43 1_555 1_555
C43D C38D 1_555 1_555
C43E C42 1_555 1_555
H1F C3F 1_555 1_555
H1E C3E 1_555 1_555
H1C C3C 1_555 1_555
H2F C4F 1_555 1_555
H2E C4E 1_555 1_555
H2C C4C 1_555 1_555
H3F C5F 1_555 1_555
H3E C5E 1_555 1_555
H3C C5C 1_555 1_555
H4F C6F 1_555 1_555
H4E C6E 1_555 1_555
H4C C6C 1_555 1_555
H5F C7F 1_555 1_555
H5E C7E 1_555 1_555
H5C C7C 1_555 1_555
H6F C10F 1_555 1_555
H6E C10E 1_555 1_555
H6C C10C 1_555 1_555
H7F C11F 1_555 1_555
H7E C11E 1_555 1_555
H7C C11C 1_555 1_555
H8F C12F 1_555 1_555
H8E C12E 1_555 1_555
H8C C12C 1_555 1_555
H9F C13F 1_555 1_555
H9E C13E 1_555 1_555
H9C C13C 1_555 1_555
H10F C14F 1_555 1_555
H10E C14E 1_555 1_555
H10C C14C 1_555 1_555
H11E C15E 1_555 1_555
H11A C15A 1_555 1_555
H11D C15D 1_555 1_555
H12E C16E 1_555 1_555
H12A C16A 1_555 1_555
H12D C16D 1_555 1_555
H13E C18E 1_555 1_555
H13A C18A 1_555 1_555
H13D C18D 1_555 1_555
H14E C19E 1_555 1_555
H14A C19A 1_555 1_555
H14D C19D 1_555 1_555
H15E C23E 1_555 1_555
H15A C23A 1_555 1_555
H15D C23D 1_555 1_555
H16E C24E 1_555 1_555
H16A C24A 1_555 1_555
H16D C24D 1_555 1_555
H17A C27A 1_555 1_555
H18A C28A 1_555 1_555
H19A C29A 1_555 1_555
H20A C30A 1_555 1_555
H21A C31A 1_555 1_555
H22A C34A 1_555 1_555
H22E C34E 1_555 1_555
H22D C34D 1_555 1_555
H23A C35A 1_555 1_555
H23E C35E 1_555 1_555
H23D C35D 1_555 1_555
H24D C36D 1_555 1_555
H25E C37E 1_555 1_555
H25A C37A 1_555 1_555
H25D C37D 1_555 1_555
H26A C39A 1_555 1_555
H26D C39D 1_555 1_555
H26E C39E 1_555 1_555
H27A C40A 1_555 1_555
H27D C40D 1_555 1_555
H27E C40E 1_555 1_555
O2 Ru1F 1_555 1_555
O4 Ru1F 1_555 1_555
O6 Ru2A 1_555 1_555
C13 C14 1_555 1_555
C18 C19 1_555 1_555
C23 C24 1_555 1_555
Ru2A O7A 1_555 1_555
O2F C1F 1_555 1_555
O2E C1E 1_555 1_555
O4F C8F 1_555 1_555
O4E C8E 1_555 1_555
O4C C8C 1_555 1_555
O6A C25A 1_555 1_555
O7D C32D 1_555 1_555
N3E C20E 1_555 1_555
N3D C21A 1_555 1_555
C6F C7F 1_555 1_555
C6E C7E 1_555 1_555
C6C C7C 1_555 1_555
C13F C14F 1_555 1_555
C13E C14E 1_555 1_555
C13C C14C 1_555 1_555
C17E C20E 1_555 1_555
C17D C20D 1_555 1_555
C18E C19E 1_555 1_555
C18A C19A 1_555 1_555
C18D C19D 1_555 1_555
C23E C24E 1_555 1_555
C23A C24A 1_555 1_555
C23D C24D 1_555 1_555
C30A C31A 1_555 1_555
C34A C35A 1_555 1_555
C35D C36D 1_555 1_555
C38E C43E 1_555 1_555
C38A C43A 1_555 1_555
C39E C40E 1_555 1_555
C42A C43A 1_555 1_555
C42A C43D 1_555 1_555
C43D C43E 1_555 1_555

#END
