
#######################################################################
#
#                 Cambridge Crystallographic Data Centre
#                                CCDC 
#
#######################################################################
#
# If this CIF has been generated from an entry in the Cambridge 
# Structural Database, then it will include bibliographic, chemical, 
# crystal, experimental, refinement or atomic coordinate data resulting 
# from the CCDC's data processing and validation procedures.
#
#######################################################################

data_VEGPUS
_symmetry_cell_setting           monoclinic
_symmetry_space_group_name_H-M   'P 21'
_symmetry_Int_Tables_number      4
_space_group_name_Hall           'P 2yb'
loop_
_symmetry_equiv_pos_site_id
_symmetry_equiv_pos_as_xyz
1 x,y,z
2 -x,1/2+y,-z
_cell_length_a                   5.780(1)
_cell_length_b                   7.676(1)
_cell_length_c                   12.731(2)
_cell_angle_alpha                90
_cell_angle_beta                 100.26(1)
_cell_angle_gamma                90
_cell_volume                     555.808
loop_
_atom_site_label
_atom_site_type_symbol
_atom_site_fract_x
_atom_site_fract_y
_atom_site_fract_z
K1 K 0.0227(2) -0.5643 -0.0253(1)
S1 S -0.4589(2) 0.2497(3) 0.1245(1)
O1 O -0.6897(6) 0.1919(6) 0.0837(3)
O2 O -0.2889(6) 0.2188(6) 0.0573(3)
O3 O -0.4532(7) 0.4290(7) 0.1610(3)
O4 O -0.0191(7) -0.3974(6) 0.1656(3)
O5 O 0.3515(8) -0.4739(6) 0.3426(3)
O6 O 0.5202(6) -0.1830(6) 0.4689(3)
O7 O 0.1535(7) 0.0645(6) 0.4936(3)
O8 O -0.0610(6) -0.1305(5) 0.2346(3)
O9 O -0.3891(6) 0.1370(6) 0.2276(3)
C1 C 0.0097(11) -0.3047(8) 0.2608(5)
C2 C 0.2677(9) -0.3021(8) 0.3160(3)
C3 C 0.2808(9) -0.1969(8) 0.4168(4)
C4 C 0.1767(9) -0.0170(7) 0.3955(4)
C5 C -0.0645(9) -0.0243(7) 0.3267(4)
C6 C -0.1474(10) 0.1525(9) 0.2875(5)
H1 H -0.155(10) -0.404(9) 0.145(4)
H2 H 0.370(10) -0.512(9) 0.286(5)
H3 H 0.536(11) -0.124(9) 0.516(5)
H4 H 0.268(9) 0.134(9) 0.502(5)
H5 H -0.101(9) -0.351(8) 0.316(4)
H6 H 0.371(9) -0.245(8) 0.267(4)
H7 H 0.194(9) -0.252(9) 0.457(4)
H8 H 0.282(9) 0.039(8) 0.364(4)
H9 H -0.191(8) -0.074(8) 0.373(4)
H10 H -0.031(9) 0.200(8) 0.247(5)
H11 H -0.128(9) 0.242(9) 0.344(4)
K1A K -1.0227(2) -0.0643 0.0253(1)
K1_2 K 0.0227(2) 0.4357 -0.0253(1)
K1A_2 K -0.0227(2) -0.0643 0.0253(1)
K1_3 K -0.9773(2) 0.4357 -0.0253(1)
O1_2 O 0.3103(6) -0.8081(6) 0.0837(3)
O1A O -0.3103(6) -0.3081(6) -0.0837(3)
O2_2 O -0.2889(6) -0.7812(6) 0.0573(3)
O2A O 0.2889(6) -0.2812(6) -0.0573(3)
O8A O 0.0610(6) -0.6305(5) -0.2346(3)
loop_
_geom_bond_atom_site_label_1
_geom_bond_atom_site_label_2
_geom_bond_site_symmetry_1
_geom_bond_site_symmetry_2
K1 O4 1_555 1_555
S1 O1 1_555 1_555
O1 K1A 1_555 1_555
O2 S1 1_555 1_555
O3 S1 1_555 1_555
O4 C1 1_555 1_555
O5 C2 1_555 1_555
O6 C3 1_555 1_555
O7 C4 1_555 1_555
O8 C1 1_555 1_555
O9 S1 1_555 1_555
C1 C2 1_555 1_555
C2 C3 1_555 1_555
C3 C4 1_555 1_555
C4 C5 1_555 1_555
C5 O8 1_555 1_555
C6 O9 1_555 1_555
H1 O4 1_555 1_555
H2 O5 1_555 1_555
H3 O6 1_555 1_555
H4 O7 1_555 1_555
H5 C1 1_555 1_555
H6 C2 1_555 1_555
H7 C3 1_555 1_555
H8 C4 1_555 1_555
H9 C5 1_555 1_555
H10 C6 1_555 1_555
H11 C6 1_555 1_555
K1_2 O2 1_555 1_555
K1A_2 O2 1_555 1_555
K1_3 O1 1_555 1_555
O1_2 K1 1_555 1_555
O1A K1 1_555 1_555
O2_2 K1 1_555 1_555
O2A K1 1_555 1_555
O8A K1 1_555 1_555
O8 K1A_2 1_555 1_555
C5 C6 1_555 1_555
K1A_2 O1A 1_555 1_555
K1A_2 O2A 1_555 1_555

#END
