
#######################################################################
#
#                 Cambridge Crystallographic Data Centre
#                                CCDC 
#
#######################################################################
#
# If this CIF has been generated from an entry in the Cambridge 
# Structural Database, then it will include bibliographic, chemical, 
# crystal, experimental, refinement or atomic coordinate data resulting 
# from the CCDC's data processing and validation procedures.
#
#######################################################################

data_VEGPUU
_symmetry_cell_setting           monoclinic
_symmetry_space_group_name_H-M   'C 2/m'
_symmetry_Int_Tables_number      12
_space_group_name_Hall           '-C 2y'
loop_
_symmetry_equiv_pos_site_id
_symmetry_equiv_pos_as_xyz
1 x,y,z
2 -x,y,-z
3 1/2+x,1/2+y,z
4 1/2-x,1/2+y,-z
5 -x,-y,-z
6 x,-y,z
7 1/2-x,1/2-y,-z
8 1/2+x,1/2-y,z
_cell_length_a                   19.732(3)
_cell_length_b                   28.950(3)
_cell_length_c                   20.193(3)
_cell_angle_alpha                90
_cell_angle_beta                 113.269(2)
_cell_angle_gamma                90
_cell_volume                     10596.8
loop_
_atom_site_label
_atom_site_type_symbol
_atom_site_fract_x
_atom_site_fract_y
_atom_site_fract_z
Ru1 Ru -0.208421(13) 0.278997(8) 0.024848(15)
Ru2 Ru 0.442650(19) 0.5000 0.454407(19)
F1 F -0.3845(4) 0.4038(3) 0.1982(5)
F2 F 0.0113(9) 0.1765(5) 0.3530(6)
F3 F -0.12688(19) 0.04984(12) 0.2315(3)
F4 F 0.5471(4) 0.5000 0.1596(3)
F5 F 0.3758(7) 0.2624(4) 0.4263(10)
O1 O -0.27883(13) 0.30563(8) 0.06789(14)
O2 O -0.35984(12) 0.24844(8) 0.02081(14)
O3 O -0.15655(12) 0.23893(8) 0.11550(13)
O4 O -0.23819(12) 0.18124(8) 0.06637(14)
O5 O 0.49103(19) 0.5000 0.38048(19)
O6 O 0.60377(19) 0.5000 0.4703(2)
O7 O 0.44343(12) 0.42860(9) 0.45557(13)
N1 N -0.13275(14) 0.33868(9) 0.08136(17)
N2 N -0.0475(2) 0.5000 0.1445(2)
N3 N 0.06124(15) 0.45872(9) 0.21245(16)
N4 N 0.3238(2) 0.5000 0.3688(2)
C8 C -0.33932(19) 0.28486(12) 0.0578(2)
C9 C -0.3870(3) 0.30546(15) 0.0909(3)
C10 C -0.3656(4) 0.3471(3) 0.1264(5)
C11 C -0.4093(5) 0.3654(3) 0.1570(6)
C12 C -0.4747(4) 0.3456(3) 0.1524(5)
C13 C -0.4932(3) 0.3037(2) 0.1201(4)
C14 C -0.4483(3) 0.28299(16) 0.0886(3)
C15 C -0.18195(18) 0.19865(11) 0.11624(19)
C16 C -0.1406(2) 0.16898(13) 0.1799(2)
C17 C -0.0866(3) 0.18802(16) 0.2407(3)
C18 C -0.0471(4) 0.1592(2) 0.2989(3)
C19 C -0.0596(3) 0.11248(19) 0.2958(3)
C20 C -0.1138(3) 0.09447(15) 0.2348(3)
C21 C -0.1542(2) 0.12187(13) 0.1765(3)
C22 C -0.16316(18) 0.38103(11) 0.0637(2)
C23 C -0.12423(18) 0.42096(11) 0.0917(2)
C24 C -0.05157(17) 0.41797(11) 0.14090(19)
C25 C -0.02045(18) 0.37422(11) 0.1606(2)
C26 C -0.06275(19) 0.33598(12) 0.1296(3)
C27 C -0.00878(17) 0.46107(10) 0.16861(18)
C28 C 0.0943(2) 0.5000 0.2330(3)
C29 C 0.1739(2) 0.5000 0.2798(3)
C30 C 0.21277(19) 0.54124(12) 0.3033(3)
C31 C 0.2866(2) 0.53941(13) 0.3466(3)
C32 C 0.5600(3) 0.5000 0.4039(3)
C33 C 0.5953(3) 0.5000 0.3511(3)
C34 C 0.5528(4) 0.5000 0.2779(4)
C35 C 0.5895(5) 0.5000 0.2341(4)
C36 C 0.6598(6) 0.5000 0.2523(6)
C37 C 0.7034(5) 0.5000 0.3262(6)
C38 C 0.6731(4) 0.5000 0.3764(5)
C39 C 0.5000 0.40828(18) 0.5000
C40 C 0.5000 0.3574(2) 0.5000
C41 C 0.4364(4) 0.33300(19) 0.4649(5)
C42 C 0.4375(5) 0.2841(3) 0.4670(7)
C43 C 0.5000 0.2599(3) 0.5000
H4 H -0.3219 0.3623 0.1293
H5 H -0.5058 0.3609 0.1713
H6 H -0.5363 0.2884 0.1186
H7 H -0.4609 0.2536 0.0661
H8 H -0.0764 0.2202 0.2429
H9 H -0.0314 0.0930 0.3349
H10 H -0.1909 0.1086 0.1347
H11 H -0.2132 0.3834 0.0309
H12 H -0.1470 0.4503 0.0774
H13 H 0.0289 0.3708 0.1948
H14 H -0.0412 0.3063 0.1430
H15 H 0.1885 0.5701 0.2894
H16 H 0.3126 0.5677 0.3616
H17 H 0.5004 0.5000 0.2594
H18 H 0.6809 0.5000 0.2175
H19 H 0.7556 0.5000 0.3419
H20 H 0.7032 0.5000 0.4265
H21 H 0.3915 0.3489 0.4392
H22 H 0.5000 0.2271 0.5000
Ru1E Ru -0.208421(13) 0.721003(8) 0.024848(15)
Ru1F Ru -0.291579(13) 0.221003(8) -0.024848(15)
Ru1C Ru -0.291579(13) 0.778997(8) -0.024848(15)
Ru1A Ru 1.208421(13) 0.278997(8) 0.975152(15)
Ru1D Ru 1.208421(13) 0.721003(8) 0.975152(15)
Ru2A Ru 0.557350(19) 0.5000 0.545593(19)
F1F F -0.1155(4) 0.0962(3) -0.1982(5)
F1E F -0.3845(4) 0.5962(3) 0.1982(5)
F1C F -0.1155(4) 0.9038(3) -0.1982(5)
F2F F -0.5113(9) 0.3235(5) -0.3530(6)
F2E F 0.0113(9) 0.8235(5) 0.3530(6)
F2C F -0.5113(9) 0.6765(5) -0.3530(6)
F3F F -0.37312(19) 0.45016(12) -0.2315(3)
F3E F -0.12688(19) 0.95016(12) 0.2315(3)
F3C F -0.37312(19) 0.54984(12) -0.2315(3)
F4A F 0.4529(4) 0.5000 0.8404(3)
F5A F 0.6242(7) 0.2624(4) 0.5737(10)
F5E F 0.3758(7) 0.7376(4) 0.4263(10)
F5D F 0.6242(7) 0.7376(4) 0.5737(10)
O1F O -0.22117(13) 0.19437(8) -0.06789(14)
O1E O -0.27883(13) 0.69437(8) 0.06789(14)
O1C O -0.22117(13) 0.80563(8) -0.06789(14)
O2F O -0.14016(12) 0.25156(8) -0.02081(14)
O2E O -0.35984(12) 0.75156(8) 0.02081(14)
O2C O -0.14016(12) 0.74844(8) -0.02081(14)
O3F O -0.34345(12) 0.26107(8) -0.11550(13)
O3E O -0.15655(12) 0.76107(8) 0.11550(13)
O3C O -0.34345(12) 0.73893(8) -0.11550(13)
O4F O -0.26181(12) 0.31876(8) -0.06637(14)
O4E O -0.23819(12) 0.81876(8) 0.06637(14)
O4C O -0.26181(12) 0.68124(8) -0.06637(14)
O5A O 0.50897(19) 0.5000 0.61952(19)
O6A O 0.39623(19) 0.5000 0.5297(2)
O7A O 0.55657(12) 0.42860(9) 0.54443(13)
O7E O 0.44343(12) 0.57140(9) 0.45557(13)
O7D O 0.55657(12) 0.57140(9) 0.54443(13)
N1E N -0.13275(14) 0.66132(9) 0.08136(17)
N1A N 1.13275(14) 0.33868(9) 0.91864(17)
N1D N 1.13275(14) 0.66132(9) 0.91864(17)
N1F N -0.36725(14) 0.16132(9) -0.08136(17)
N1C N -0.36725(14) 0.83868(9) -0.08136(17)
N2A N 1.0475(2) 0.5000 0.8555(2)
N3E N 0.06124(15) 0.54128(9) 0.21245(16)
N3A N 0.93876(15) 0.45872(9) 0.78755(16)
N3D N 0.93876(15) 0.54128(9) 0.78755(16)
N4A N 0.6762(2) 0.5000 0.6312(2)
C8F C -0.16068(19) 0.21514(12) -0.0578(2)
C8E C -0.33932(19) 0.71514(12) 0.0578(2)
C8C C -0.16068(19) 0.78486(12) -0.0578(2)
C9F C -0.1130(3) 0.19454(15) -0.0909(3)
C9E C -0.3870(3) 0.69454(15) 0.0909(3)
C9C C -0.1130(3) 0.80546(15) -0.0909(3)
C10F C -0.1344(4) 0.1529(3) -0.1264(5)
C10E C -0.3656(4) 0.6529(3) 0.1264(5)
C10C C -0.1344(4) 0.8471(3) -0.1264(5)
C11F C -0.0907(5) 0.1346(3) -0.1570(6)
C11E C -0.4093(5) 0.6346(3) 0.1570(6)
C11C C -0.0907(5) 0.8654(3) -0.1570(6)
C12F C -0.0253(4) 0.1544(3) -0.1524(5)
C12E C -0.4747(4) 0.6544(3) 0.1524(5)
C12C C -0.0253(4) 0.8456(3) -0.1524(5)
C13F C -0.0068(3) 0.1963(2) -0.1201(4)
C13E C -0.4932(3) 0.6963(2) 0.1201(4)
C13C C -0.0068(3) 0.8037(2) -0.1201(4)
C14F C -0.0517(3) 0.21701(16) -0.0886(3)
C14E C -0.4483(3) 0.71701(16) 0.0886(3)
C14C C -0.0517(3) 0.78299(16) -0.0886(3)
C15F C -0.31805(18) 0.30135(11) -0.11624(19)
C15E C -0.18195(18) 0.80135(11) 0.11624(19)
C15C C -0.31805(18) 0.69865(11) -0.11624(19)
C16F C -0.3594(2) 0.33102(13) -0.1799(2)
C16E C -0.1406(2) 0.83102(13) 0.1799(2)
C16C C -0.3594(2) 0.66898(13) -0.1799(2)
C17F C -0.4134(3) 0.31198(16) -0.2407(3)
C17E C -0.0866(3) 0.81198(16) 0.2407(3)
C17C C -0.4134(3) 0.68802(16) -0.2407(3)
C18F C -0.4529(4) 0.3408(2) -0.2989(3)
C18E C -0.0471(4) 0.8408(2) 0.2989(3)
C18C C -0.4529(4) 0.6592(2) -0.2989(3)
C19F C -0.4404(3) 0.38752(19) -0.2958(3)
C19E C -0.0596(3) 0.88752(19) 0.2958(3)
C19C C -0.4404(3) 0.61248(19) -0.2958(3)
C20F C -0.3862(3) 0.40553(15) -0.2348(3)
C20E C -0.1138(3) 0.90553(15) 0.2348(3)
C20C C -0.3862(3) 0.59447(15) -0.2348(3)
C21F C -0.3458(2) 0.37813(13) -0.1765(3)
C21E C -0.1542(2) 0.87813(13) 0.1765(3)
C21C C -0.3458(2) 0.62187(13) -0.1765(3)
C22E C -0.16316(18) 0.61897(11) 0.0637(2)
C22A C 1.16316(18) 0.38103(11) 0.9363(2)
C22D C 1.16316(18) 0.61897(11) 0.9363(2)
C23E C -0.12423(18) 0.57904(11) 0.0917(2)
C23A C 1.12423(18) 0.42096(11) 0.9083(2)
C23D C 1.12423(18) 0.57904(11) 0.9083(2)
C24E C -0.05157(17) 0.58203(11) 0.14090(19)
C24A C 1.05157(17) 0.41797(11) 0.85910(19)
C24D C 1.05157(17) 0.58203(11) 0.85910(19)
C25E C -0.02045(18) 0.62578(11) 0.1606(2)
C25A C 1.02045(18) 0.37422(11) 0.8394(2)
C25D C 1.02045(18) 0.62578(11) 0.8394(2)
C26E C -0.06275(19) 0.66402(12) 0.1296(3)
C26A C 1.06275(19) 0.33598(12) 0.8704(3)
C26D C 1.06275(19) 0.66402(12) 0.8704(3)
C27E C -0.00878(17) 0.53893(10) 0.16861(18)
C27A C 1.00878(17) 0.46107(10) 0.83139(18)
C27D C 1.00878(17) 0.53893(10) 0.83139(18)
C28A C 0.9057(2) 0.5000 0.7670(3)
C29A C 0.8261(2) 0.5000 0.7202(3)
C30E C 0.21277(19) 0.45876(12) 0.3033(3)
C30A C 0.78723(19) 0.54124(12) 0.6967(3)
C30D C 0.78723(19) 0.45876(12) 0.6967(3)
C31E C 0.2866(2) 0.46059(13) 0.3466(3)
C31A C 0.7134(2) 0.53941(13) 0.6534(3)
C31D C 0.7134(2) 0.46059(13) 0.6534(3)
C32A C 0.4400(3) 0.5000 0.5961(3)
C33A C 0.4047(3) 0.5000 0.6489(3)
C34A C 0.4472(4) 0.5000 0.7221(4)
C35A C 0.4105(5) 0.5000 0.7659(4)
C36A C 0.3402(6) 0.5000 0.7477(6)
C37A C 0.2966(5) 0.5000 0.6738(6)
C38A C 0.3269(4) 0.5000 0.6236(5)
C39D C 0.5000 0.59172(18) 0.5000
C40D C 0.5000 0.6426(2) 0.5000
C41A C 0.5636(4) 0.33300(19) 0.5351(5)
C41E C 0.4364(4) 0.66700(19) 0.4649(5)
C41D C 0.5636(4) 0.66700(19) 0.5351(5)
C42A C 0.5625(5) 0.2841(3) 0.5330(7)
C42E C 0.4375(5) 0.7159(3) 0.4670(7)
C42D C 0.5625(5) 0.7159(3) 0.5330(7)
C43D C 0.5000 0.7401(3) 0.5000
H4F H -0.1781 0.1377 -0.1293
H4E H -0.3219 0.6377 0.1293
H4C H -0.1781 0.8623 -0.1293
H5F H 0.0058 0.1391 -0.1713
H5E H -0.5058 0.6391 0.1713
H5C H 0.0058 0.8609 -0.1713
H6F H 0.0363 0.2116 -0.1186
H6E H -0.5363 0.7116 0.1186
H6C H 0.0363 0.7884 -0.1186
H7F H -0.0391 0.2464 -0.0661
H7E H -0.4609 0.7464 0.0661
H7C H -0.0391 0.7536 -0.0661
H8F H -0.4236 0.2798 -0.2429
H8E H -0.0764 0.7798 0.2429
H8C H -0.4236 0.7202 -0.2429
H9F H -0.4686 0.4070 -0.3349
H9E H -0.0314 0.9070 0.3349
H9C H -0.4686 0.5930 -0.3349
H10F H -0.3091 0.3914 -0.1347
H10E H -0.1909 0.8914 0.1347
H10C H -0.3091 0.6086 -0.1347
H11E H -0.2132 0.6166 0.0309
H11A H 1.2132 0.3834 0.9691
H11D H 1.2132 0.6166 0.9691
H12E H -0.1470 0.5497 0.0774
H12A H 1.1470 0.4503 0.9226
H12D H 1.1470 0.5497 0.9226
H13E H 0.0289 0.6292 0.1948
H13A H 0.9711 0.3708 0.8052
H13D H 0.9711 0.6292 0.8052
H14E H -0.0412 0.6937 0.1430
H14A H 1.0412 0.3063 0.8570
H14D H 1.0412 0.6937 0.8570
H15E H 0.1885 0.4299 0.2894
H15A H 0.8115 0.5701 0.7106
H15D H 0.8115 0.4299 0.7106
H16E H 0.3126 0.4323 0.3616
H16A H 0.6874 0.5677 0.6384
H16D H 0.6874 0.4323 0.6384
H17A H 0.4996 0.5000 0.7406
H18A H 0.3191 0.5000 0.7825
H19A H 0.2444 0.5000 0.6581
H20A H 0.2968 0.5000 0.5735
H21A H 0.6085 0.3489 0.5608
H21E H 0.3915 0.6511 0.4392
H21D H 0.6085 0.6511 0.5608
H22D H 0.5000 0.7729 0.5000
C1 C 0.0362(2) 0.37302(12) 0.0232(3)
C2 C 0.07525(19) 0.41536(13) 0.0495(2)
C3 C 0.14971(19) 0.41620(13) 0.0981(2)
C4 C 0.1857(2) 0.45694(14) 0.1217(3)
C5 C 0.1502(3) 0.5000 0.0978(3)
C6 C 0.0746(3) 0.5000 0.0497(3)
C7 C 0.03764(19) 0.45729(12) 0.0248(2)
H1 H 0.0612 0.3444 0.0383
H2 H 0.1752 0.3879 0.1147
H3 H 0.2357 0.4565 0.1550
C1A C -0.0362(2) 0.37302(12) -0.0232(3)
C1D C -0.0362(2) 0.62698(12) -0.0232(3)
C1E C 0.0362(2) 0.62698(12) 0.0232(3)
C2A C -0.07525(19) 0.41536(13) -0.0495(2)
C2D C -0.07525(19) 0.58464(13) -0.0495(2)
C2E C 0.07525(19) 0.58464(13) 0.0495(2)
C3A C -0.14971(19) 0.41620(13) -0.0981(2)
C3D C -0.14971(19) 0.58380(13) -0.0981(2)
C3E C 0.14971(19) 0.58380(13) 0.0981(2)
C4A C -0.1857(2) 0.45694(14) -0.1217(3)
C4D C -0.1857(2) 0.54306(14) -0.1217(3)
C4E C 0.1857(2) 0.54306(14) 0.1217(3)
C5A C -0.1502(3) 0.5000 -0.0978(3)
C6A C -0.0746(3) 0.5000 -0.0497(3)
C7E C 0.03764(19) 0.54271(12) 0.0248(2)
C7D C -0.03764(19) 0.54271(12) -0.0248(2)
C7A C -0.03764(19) 0.45729(12) -0.0248(2)
H1E H 0.0612 0.6556 0.0383
H1D H -0.0612 0.6556 -0.0383
H1A H -0.0612 0.3444 -0.0383
H2E H 0.1752 0.6121 0.1147
H2D H -0.1752 0.6121 -0.1147
H2A H -0.1752 0.3879 -0.1147
H3E H 0.2357 0.5435 0.1550
H3D H -0.2357 0.5435 -0.1550
H3A H -0.2357 0.4565 -0.1550
loop_
_geom_bond_atom_site_label_1
_geom_bond_atom_site_label_2
_geom_bond_site_symmetry_1
_geom_bond_site_symmetry_2
C1 C2 1_555 1_555
C2 C3 1_555 1_555
C3 C4 1_555 1_555
C4 C5 1_555 1_555
C5 C6 1_555 1_555
C6 C7 1_555 1_555
C7 C2 1_555 1_555
H1 C1 1_555 1_555
H2 C3 1_555 1_555
H3 C4 1_555 1_555
Ru1 O1 1_555 1_555
Ru2 O5 1_555 1_555
F1 C11 1_555 1_555
F2 C18 1_555 1_555
F3 C20 1_555 1_555
F4 C35 1_555 1_555
F5 C42 1_555 1_555
O1 C8 1_555 1_555
O2 C8 1_555 1_555
O3 Ru1 1_555 1_555
O4 C15 1_555 1_555
O5 C32 1_555 1_555
O6 C32 1_555 1_555
O7 Ru2 1_555 1_555
N1 Ru1 1_555 1_555
N2 C27 1_555 1_555
N3 C27 1_555 1_555
N4 Ru2 1_555 1_555
C8 C9 1_555 1_555
C9 C10 1_555 1_555
C10 C11 1_555 1_555
C11 C12 1_555 1_555
C12 C13 1_555 1_555
C13 C14 1_555 1_555
C14 C9 1_555 1_555
C15 O3 1_555 1_555
C16 C15 1_555 1_555
C17 C16 1_555 1_555
C18 C17 1_555 1_555
C19 C18 1_555 1_555
C20 C19 1_555 1_555
C21 C16 1_555 1_555
C22 N1 1_555 1_555
C23 C22 1_555 1_555
C24 C23 1_555 1_555
C25 C24 1_555 1_555
C26 N1 1_555 1_555
C27 C24 1_555 1_555
C28 N3 1_555 1_555
C29 C28 1_555 1_555
C30 C29 1_555 1_555
C31 N4 1_555 1_555
C32 C33 1_555 1_555
C33 C34 1_555 1_555
C34 C35 1_555 1_555
C35 C36 1_555 1_555
C36 C37 1_555 1_555
C37 C38 1_555 1_555
C38 C33 1_555 1_555
C39 O7 1_555 1_555
C40 C39 1_555 1_555
C41 C40 1_555 1_555
C42 C41 1_555 1_555
C43 C42 1_555 1_555
H4 C10 1_555 1_555
H5 C12 1_555 1_555
H6 C13 1_555 1_555
H7 C14 1_555 1_555
H8 C17 1_555 1_555
H9 C19 1_555 1_555
H10 C21 1_555 1_555
H11 C22 1_555 1_555
H12 C23 1_555 1_555
H13 C25 1_555 1_555
H14 C26 1_555 1_555
H15 C30 1_555 1_555
H16 C31 1_555 1_555
H17 C34 1_555 1_555
H18 C36 1_555 1_555
H19 C37 1_555 1_555
H20 C38 1_555 1_555
H21 C41 1_555 1_555
H22 C43 1_555 1_555
C1A C1 1_555 1_555
C1D C1E 1_555 1_555
C1E C2E 1_555 1_555
C2A C1A 1_555 1_555
C2D C1D 1_555 1_555
C2E C3E 1_555 1_555
C3A C2A 1_555 1_555
C3D C2D 1_555 1_555
C3E C4E 1_555 1_555
C4A C3A 1_555 1_555
C4D C3D 1_555 1_555
C4E C5 1_555 1_555
C5A C4A 1_555 1_555
C6A C5A 1_555 1_555
C7E C6 1_555 1_555
C7D C2D 1_555 1_555
C7A C7 1_555 1_555
H1E C1E 1_555 1_555
H1D C1D 1_555 1_555
H1A C1A 1_555 1_555
H2E C3E 1_555 1_555
H2D C3D 1_555 1_555
H2A C3A 1_555 1_555
H3E C4E 1_555 1_555
H3D C4D 1_555 1_555
H3A C4A 1_555 1_555
Ru1E Ru1C 1_555 1_555
Ru1F Ru1 1_555 1_555
Ru1C O1C 1_555 1_555
Ru1A N1A 1_555 1_555
Ru1D N1D 1_555 1_555
Ru2A Ru2 1_555 1_555
F1F C11F 1_555 1_555
F1E C11E 1_555 1_555
F1C C11C 1_555 1_555
F2F C18F 1_555 1_555
F2E C18E 1_555 1_555
F2C C18C 1_555 1_555
F3F C20F 1_555 1_555
F3E C20E 1_555 1_555
F3C C20C 1_555 1_555
F4A C35A 1_555 1_555
F5A C42A 1_555 1_555
F5E C42E 1_555 1_555
F5D C42D 1_555 1_555
O1F Ru1F 1_555 1_555
O1E Ru1E 1_555 1_555
O1C C8C 1_555 1_555
O2F Ru1 1_555 1_555
O2E Ru1C 1_555 1_555
O2C Ru1E 1_555 1_555
O3F Ru1F 1_555 1_555
O3E Ru1E 1_555 1_555
O3C Ru1C 1_555 1_555
O4F Ru1 1_555 1_555
O4E Ru1C 1_555 1_555
O4C Ru1E 1_555 1_555
O5A Ru2A 1_555 1_555
O6A Ru2 1_555 1_555
O7A C39 1_555 1_555
O7E Ru2 1_555 1_555
O7D Ru2A 1_555 1_555
N1E Ru1E 1_555 1_555
N1A C22A 1_555 1_555
N1D C22D 1_555 1_555
N1F Ru1F 1_555 1_555
N1C Ru1C 1_555 1_555
N2A C27A 1_555 1_555
N3E C28 1_555 1_555
N3A C27A 1_555 1_555
N3D C27D 1_555 1_555
N4A Ru2A 1_555 1_555
C8F O1F 1_555 1_555
C8E O1E 1_555 1_555
C8C O2C 1_555 1_555
C9F C8F 1_555 1_555
C9E C8E 1_555 1_555
C9C C8C 1_555 1_555
C10F C9F 1_555 1_555
C10E C9E 1_555 1_555
C10C C9C 1_555 1_555
C11F C10F 1_555 1_555
C11E C10E 1_555 1_555
C11C C10C 1_555 1_555
C12F C11F 1_555 1_555
C12E C11E 1_555 1_555
C12C C11C 1_555 1_555
C13F C12F 1_555 1_555
C13E C12E 1_555 1_555
C13C C12C 1_555 1_555
C14F C9F 1_555 1_555
C14E C9E 1_555 1_555
C14C C9C 1_555 1_555
C15F O3F 1_555 1_555
C15E O3E 1_555 1_555
C15C O3C 1_555 1_555
C16F C15F 1_555 1_555
C16E C15E 1_555 1_555
C16C C15C 1_555 1_555
C17F C16F 1_555 1_555
C17E C16E 1_555 1_555
C17C C16C 1_555 1_555
C18F C17F 1_555 1_555
C18E C17E 1_555 1_555
C18C C17C 1_555 1_555
C19F C18F 1_555 1_555
C19E C18E 1_555 1_555
C19C C18C 1_555 1_555
C20F C19F 1_555 1_555
C20E C19E 1_555 1_555
C20C C19C 1_555 1_555
C21F C16F 1_555 1_555
C21E C16E 1_555 1_555
C21C C16C 1_555 1_555
C22E N1E 1_555 1_555
C22A C23A 1_555 1_555
C22D C23D 1_555 1_555
C23E C22E 1_555 1_555
C23A C24A 1_555 1_555
C23D C24D 1_555 1_555
C24E C23E 1_555 1_555
C24A C25A 1_555 1_555
C24D C25D 1_555 1_555
C25E C24E 1_555 1_555
C25A C26A 1_555 1_555
C25D C26D 1_555 1_555
C26E N1E 1_555 1_555
C26A N1A 1_555 1_555
C26D N1D 1_555 1_555
C27E N2 1_555 1_555
C27A C24A 1_555 1_555
C27D N2A 1_555 1_555
C28A N3A 1_555 1_555
C29A C28A 1_555 1_555
C30E C29 1_555 1_555
C30A C29A 1_555 1_555
C30D C29A 1_555 1_555
C31E N4 1_555 1_555
C31A N4A 1_555 1_555
C31D N4A 1_555 1_555
C32A O5A 1_555 1_555
C33A C32A 1_555 1_555
C34A C33A 1_555 1_555
C35A C34A 1_555 1_555
C36A C35A 1_555 1_555
C37A C36A 1_555 1_555
C38A C33A 1_555 1_555
C39D O7E 1_555 1_555
C40D C39D 1_555 1_555
C41A C40 1_555 1_555
C41E C40D 1_555 1_555
C41D C40D 1_555 1_555
C42A C43 1_555 1_555
C42E C41E 1_555 1_555
C42D C41D 1_555 1_555
C43D C42E 1_555 1_555
H4F C10F 1_555 1_555
H4E C10E 1_555 1_555
H4C C10C 1_555 1_555
H5F C12F 1_555 1_555
H5E C12E 1_555 1_555
H5C C12C 1_555 1_555
H6F C13F 1_555 1_555
H6E C13E 1_555 1_555
H6C C13C 1_555 1_555
H7F C14F 1_555 1_555
H7E C14E 1_555 1_555
H7C C14C 1_555 1_555
H8F C17F 1_555 1_555
H8E C17E 1_555 1_555
H8C C17C 1_555 1_555
H9F C19F 1_555 1_555
H9E C19E 1_555 1_555
H9C C19C 1_555 1_555
H10F C21F 1_555 1_555
H10E C21E 1_555 1_555
H10C C21C 1_555 1_555
H11E C22E 1_555 1_555
H11A C22A 1_555 1_555
H11D C22D 1_555 1_555
H12E C23E 1_555 1_555
H12A C23A 1_555 1_555
H12D C23D 1_555 1_555
H13E C25E 1_555 1_555
H13A C25A 1_555 1_555
H13D C25D 1_555 1_555
H14E C26E 1_555 1_555
H14A C26A 1_555 1_555
H14D C26D 1_555 1_555
H15E C30E 1_555 1_555
H15A C30A 1_555 1_555
H15D C30D 1_555 1_555
H16E C31E 1_555 1_555
H16A C31A 1_555 1_555
H16D C31D 1_555 1_555
H17A C34A 1_555 1_555
H18A C36A 1_555 1_555
H19A C37A 1_555 1_555
H20A C38A 1_555 1_555
H21A C41A 1_555 1_555
H21E C41E 1_555 1_555
H21D C41D 1_555 1_555
H22D C43D 1_555 1_555
O2 Ru1F 1_555 1_555
O4 Ru1F 1_555 1_555
O6 Ru2A 1_555 1_555
C20 C21 1_555 1_555
C25 C26 1_555 1_555
C30 C31 1_555 1_555
C2A C7A 1_555 1_555
C2E C7E 1_555 1_555
C4D C5A 1_555 1_555
C6A C7D 1_555 1_555
C6A C7A 1_555 1_555
C7E C7D 1_555 1_555
Ru2A O7A 1_555 1_555
O2F C8F 1_555 1_555
O2E C8E 1_555 1_555
O4F C15F 1_555 1_555
O4E C15E 1_555 1_555
O4C C15C 1_555 1_555
O6A C32A 1_555 1_555
O7D C39D 1_555 1_555
N3E C27E 1_555 1_555
N3D C28A 1_555 1_555
C13F C14F 1_555 1_555
C13E C14E 1_555 1_555
C13C C14C 1_555 1_555
C20F C21F 1_555 1_555
C20E C21E 1_555 1_555
C20C C21C 1_555 1_555
C24E C27E 1_555 1_555
C24D C27D 1_555 1_555
C25E C26E 1_555 1_555
C30E C31E 1_555 1_555
C30A C31A 1_555 1_555
C30D C31D 1_555 1_555
C37A C38A 1_555 1_555
C41A C42A 1_555 1_555
C42D C43D 1_555 1_555

#END
