
#######################################################################
#
#                 Cambridge Crystallographic Data Centre
#                                CCDC 
#
#######################################################################
#
# If this CIF has been generated from an entry in the Cambridge 
# Structural Database, then it will include bibliographic, chemical, 
# crystal, experimental, refinement or atomic coordinate data resulting 
# from the CCDC's data processing and validation procedures.
#
#######################################################################

data_VEGPOO
_symmetry_cell_setting           monoclinic
_symmetry_space_group_name_H-M   'C 2/m'
_symmetry_Int_Tables_number      12
_space_group_name_Hall           '-C 2y'
loop_
_symmetry_equiv_pos_site_id
_symmetry_equiv_pos_as_xyz
1 x,y,z
2 -x,y,-z
3 1/2+x,1/2+y,z
4 1/2-x,1/2+y,-z
5 -x,-y,-z
6 x,-y,z
7 1/2-x,1/2-y,-z
8 1/2+x,1/2-y,z
_cell_length_a                   19.738(3)
_cell_length_b                   28.910(4)
_cell_length_c                   19.689(3)
_cell_angle_alpha                90
_cell_angle_beta                 112.663(3)
_cell_angle_gamma                90
_cell_volume                     10367.6
loop_
_atom_site_label
_atom_site_type_symbol
_atom_site_fract_x
_atom_site_fract_y
_atom_site_fract_z
C37 C 0.0358(3) 0.37279(16) 0.0235(4)
C38 C 0.0743(3) 0.41500(18) 0.0502(4)
C39 C 0.1489(3) 0.4162(2) 0.0998(4)
C40 C 0.1847(3) 0.4567(3) 0.1236(4)
C41 C 0.1492(4) 0.5000 0.0985(4)
C42 C 0.0744(3) 0.5000 0.0500(4)
C43 C 0.0374(3) 0.45749(16) 0.0252(3)
H16 H 0.0607 0.3442 0.0388
H17 H 0.1743 0.3879 0.1166
H18 H 0.2343 0.4562 0.1577
C37A C -0.0358(3) 0.37279(16) -0.0235(4)
C37D C -0.0358(3) 0.62721(16) -0.0235(4)
C37E C 0.0358(3) 0.62721(16) 0.0235(4)
C38A C -0.0743(3) 0.41500(18) -0.0502(4)
C38D C -0.0743(3) 0.58500(18) -0.0502(4)
C38E C 0.0743(3) 0.58500(18) 0.0502(4)
C39A C -0.1489(3) 0.4162(2) -0.0998(4)
C39D C -0.1489(3) 0.5838(2) -0.0998(4)
C39E C 0.1489(3) 0.5838(2) 0.0998(4)
C40A C -0.1847(3) 0.4567(3) -0.1236(4)
C40D C -0.1847(3) 0.5433(3) -0.1236(4)
C40E C 0.1847(3) 0.5433(3) 0.1236(4)
C41A C -0.1492(4) 0.5000 -0.0985(4)
C42A C -0.0744(3) 0.5000 -0.0500(4)
C43E C 0.0374(3) 0.54251(16) 0.0252(3)
C43D C -0.0374(3) 0.54251(16) -0.0252(3)
C43A C -0.0374(3) 0.45749(16) -0.0252(3)
H16E H 0.0607 0.6558 0.0388
H16D H -0.0607 0.6558 -0.0388
H16A H -0.0607 0.3442 -0.0388
H17E H 0.1743 0.6121 0.1166
H17D H -0.1743 0.6121 -0.1166
H17A H -0.1743 0.3879 -0.1166
H18E H 0.2343 0.5438 0.1577
H18D H -0.2343 0.5438 -0.1577
H18A H -0.2343 0.4562 -0.1577
Ru1 Ru -0.207818(17) 0.278430(11) 0.02643(2)
Ru2 Ru 0.44291(3) 0.5000 0.45436(3)
F1 F -0.3070(8) 0.3746(6) 0.1434(13)
F2 F -0.4585(5) 0.2395(3) 0.0801(6)
F3 F -0.0872(6) 0.2283(3) 0.2616(4)
F4 F 0.5047(11) 0.5000 0.2457(7)
F5 F 0.3682(6) 0.3505(3) 0.4534(8)
O1 O -0.27815(17) 0.30545(11) 0.0705(2)
O2 O -0.36087(17) 0.24955(12) 0.0188(2)
O3 O -0.15939(17) 0.23755(12) 0.11816(19)
O4 O -0.24251(18) 0.18153(12) 0.0662(2)
O5 O 0.4914(4) 0.5000 0.3766(3)
O6 O 0.6017(3) 0.5000 0.4684(4)
O7 O 0.4439(2) 0.42843(13) 0.4558(2)
N1 N -0.1322(2) 0.33855(13) 0.0843(3)
N2 N -0.0476(3) 0.5000 0.1495(3)
N3 N 0.0605(2) 0.45920(13) 0.2176(3)
N4 N 0.3243(3) 0.5000 0.3693(4)
C1 C -0.3399(3) 0.28562(17) 0.0574(4)
C2 C -0.3876(3) 0.3069(2) 0.0923(4)
C3 C -0.3726(5) 0.3511(3) 0.1243(7)
C4 C -0.4123(5) 0.3697(4) 0.1620(7)
C5 C -0.4750(5) 0.3477(4) 0.1590(7)
C6 C -0.4938(4) 0.3051(3) 0.1252(5)
C7 C -0.4475(4) 0.2853(3) 0.0948(4)
C8 C -0.1854(3) 0.19755(18) 0.1179(3)
C9 C -0.1469(4) 0.1661(3) 0.1790(4)
C10 C -0.1003(5) 0.1829(4) 0.2468(5)
C11 C -0.0588(7) 0.1535(5) 0.3050(6)
C12 C -0.0682(6) 0.1077(4) 0.2930(6)
C13 C -0.1149(5) 0.0878(4) 0.2254(6)
C14 C -0.1547(4) 0.1180(3) 0.1684(6)
C15 C -0.1622(3) 0.38060(16) 0.0673(3)
C16 C -0.1242(3) 0.42060(16) 0.0962(4)
C17 C -0.0509(3) 0.41758(16) 0.1454(3)
C18 C -0.0209(3) 0.37431(16) 0.1646(3)
C19 C -0.0617(3) 0.33563(16) 0.1330(3)
C20 C -0.0089(3) 0.46097(15) 0.1735(3)
C21 C 0.0931(4) 0.5000 0.2386(4)
C22 C 0.1731(4) 0.5000 0.2855(4)
C23 C 0.2127(3) 0.54134(18) 0.3071(4)
C24 C 0.2861(3) 0.54014(19) 0.3491(4)
C25 C 0.5618(7) 0.5000 0.4050(7)
C26 C 0.5997(9) 0.5000 0.3488(9)
C27 C 0.5740(12) 0.5000 0.2811(11)
C28 C 0.6108(12) 0.5000 0.2334(10)
C29 C 0.6860(12) 0.4644(9) 0.2688(11)
C30 C 0.7190(12) 0.4652(9) 0.3333(12)
C31 C 0.6762(13) 0.4650(10) 0.3829(12)
C32 C 0.5000 0.4083(3) 0.5000
C33 C 0.5000 0.3573(3) 0.5000
C34 C 0.4350(5) 0.3320(3) 0.4770(5)
C35 C 0.4366(6) 0.2839(3) 0.4793(7)
C36 C 0.5000 0.2608(4) 0.5000
H1 H -0.3963 0.3973 0.1898
H2 H -0.5057 0.3619 0.1802
H3 H -0.5371 0.2896 0.1228
H4 H -0.0257 0.1654 0.3507
H5 H -0.0418 0.0874 0.3323
H6 H -0.1190 0.0552 0.2189
H7 H -0.1871 0.1060 0.1225
H8 H -0.2118 0.3830 0.0337
H9 H -0.1474 0.4499 0.0829
H10 H 0.0280 0.3710 0.1997
H11 H -0.0397 0.3060 0.1457
H12 H 0.1884 0.5702 0.2924
H13 H 0.3115 0.5686 0.3649
H14 H 0.3919 0.2672 0.4660
H15 H 0.5000 0.2280 0.5000
Ru1E Ru -0.207818(17) 0.721570(11) 0.02643(2)
Ru1A Ru 1.207818(17) 0.278430(11) 0.97357(2)
Ru1D Ru 1.207818(17) 0.721570(11) 0.97357(2)
Ru1F Ru -0.292182(17) 0.221570(11) -0.02643(2)
Ru1C Ru -0.292182(17) 0.778430(11) -0.02643(2)
Ru1G Ru 1.292182(17) 0.221570(11) 1.02643(2)
Ru1B Ru 1.292182(17) 0.778430(11) 1.02643(2)
Ru2A Ru 0.55709(3) 0.5000 0.54564(3)
F1F F -0.1930(8) 0.1254(6) -0.1434(13)
F1E F -0.3070(8) 0.6254(6) 0.1434(13)
F1C F -0.1930(8) 0.8746(6) -0.1434(13)
F2F F -0.0415(5) 0.2605(3) -0.0801(6)
F2E F -0.4585(5) 0.7605(3) 0.0801(6)
F2C F -0.0415(5) 0.7395(3) -0.0801(6)
F3F F -0.4128(6) 0.2717(3) -0.2616(4)
F3E F -0.0872(6) 0.7717(3) 0.2616(4)
F3C F -0.4128(6) 0.7283(3) -0.2616(4)
F4A F 0.4953(11) 0.5000 0.7543(7)
F5A F 0.6318(6) 0.3505(3) 0.5466(8)
F5E F 0.3682(6) 0.6495(3) 0.4534(8)
F5D F 0.6318(6) 0.6495(3) 0.5466(8)
O1F O -0.22185(17) 0.19455(11) -0.0705(2)
O1E O -0.27815(17) 0.69455(11) 0.0705(2)
O1C O -0.22185(17) 0.80545(11) -0.0705(2)
O1A O 1.27815(17) 0.30545(11) 0.9295(2)
O1D O 1.27815(17) 0.69455(11) 0.9295(2)
O2F O -0.13913(17) 0.25045(12) -0.0188(2)
O2E O -0.36087(17) 0.75045(12) 0.0188(2)
O2C O -0.13913(17) 0.74955(12) -0.0188(2)
O2G O 1.13913(17) 0.25045(12) 1.0188(2)
O2B O 1.13913(17) 0.74955(12) 1.0188(2)
O3F O -0.34061(17) 0.26245(12) -0.11816(19)
O3E O -0.15939(17) 0.76245(12) 0.11816(19)
O3C O -0.34061(17) 0.73755(12) -0.11816(19)
O3A O 1.15939(17) 0.23755(12) 0.88184(19)
O3D O 1.15939(17) 0.76245(12) 0.88184(19)
O4F O -0.25749(18) 0.31847(12) -0.0662(2)
O4E O -0.24251(18) 0.81847(12) 0.0662(2)
O4C O -0.25749(18) 0.68153(12) -0.0662(2)
O4G O 1.25749(18) 0.31847(12) 1.0662(2)
O4B O 1.25749(18) 0.68153(12) 1.0662(2)
O5A O 0.5086(4) 0.5000 0.6234(3)
O6A O 0.3983(3) 0.5000 0.5316(4)
O7A O 0.5561(2) 0.42843(13) 0.5442(2)
O7E O 0.4439(2) 0.57157(13) 0.4558(2)
O7D O 0.5561(2) 0.57157(13) 0.5442(2)
N1E N -0.1322(2) 0.66145(13) 0.0843(3)
N1A N 1.1322(2) 0.33855(13) 0.9157(3)
N1D N 1.1322(2) 0.66145(13) 0.9157(3)
N2A N 1.0476(3) 0.5000 0.8505(3)
N3E N 0.0605(2) 0.54080(13) 0.2176(3)
N3A N 0.9395(2) 0.45920(13) 0.7824(3)
N3D N 0.9395(2) 0.54080(13) 0.7824(3)
N4A N 0.6757(3) 0.5000 0.6307(4)
C1F C -0.1601(3) 0.21438(17) -0.0574(4)
C1E C -0.3399(3) 0.71438(17) 0.0574(4)
C1C C -0.1601(3) 0.78562(17) -0.0574(4)
C2F C -0.1124(3) 0.1931(2) -0.0923(4)
C2E C -0.3876(3) 0.6931(2) 0.0923(4)
C2C C -0.1124(3) 0.8069(2) -0.0923(4)
C3F C -0.1274(5) 0.1489(3) -0.1243(7)
C3E C -0.3726(5) 0.6489(3) 0.1243(7)
C3C C -0.1274(5) 0.8511(3) -0.1243(7)
C4F C -0.0877(5) 0.1303(4) -0.1620(7)
C4E C -0.4123(5) 0.6303(4) 0.1620(7)
C4C C -0.0877(5) 0.8697(4) -0.1620(7)
C5F C -0.0250(5) 0.1523(4) -0.1590(7)
C5E C -0.4750(5) 0.6523(4) 0.1590(7)
C5C C -0.0250(5) 0.8477(4) -0.1590(7)
C6F C -0.0062(4) 0.1949(3) -0.1252(5)
C6E C -0.4938(4) 0.6949(3) 0.1252(5)
C6C C -0.0062(4) 0.8051(3) -0.1252(5)
C7F C -0.0525(4) 0.2147(3) -0.0948(4)
C7E C -0.4475(4) 0.7147(3) 0.0948(4)
C7C C -0.0525(4) 0.7853(3) -0.0948(4)
C8F C -0.3146(3) 0.30245(18) -0.1179(3)
C8E C -0.1854(3) 0.80245(18) 0.1179(3)
C8C C -0.3146(3) 0.69755(18) -0.1179(3)
C9F C -0.3531(4) 0.3339(3) -0.1790(4)
C9E C -0.1469(4) 0.8339(3) 0.1790(4)
C9C C -0.3531(4) 0.6661(3) -0.1790(4)
C10F C -0.3997(5) 0.3171(4) -0.2468(5)
C10E C -0.1003(5) 0.8171(4) 0.2468(5)
C10C C -0.3997(5) 0.6829(4) -0.2468(5)
C11F C -0.4412(7) 0.3465(5) -0.3050(6)
C11E C -0.0588(7) 0.8465(5) 0.3050(6)
C11C C -0.4412(7) 0.6535(5) -0.3050(6)
C12F C -0.4318(6) 0.3923(4) -0.2930(6)
C12E C -0.0682(6) 0.8923(4) 0.2930(6)
C12C C -0.4318(6) 0.6077(4) -0.2930(6)
C13F C -0.3851(5) 0.4122(4) -0.2254(6)
C13E C -0.1149(5) 0.9122(4) 0.2254(6)
C13C C -0.3851(5) 0.5878(4) -0.2254(6)
C14F C -0.3453(4) 0.3820(3) -0.1684(6)
C14E C -0.1547(4) 0.8820(3) 0.1684(6)
C14C C -0.3453(4) 0.6180(3) -0.1684(6)
C15E C -0.1622(3) 0.61940(16) 0.0673(3)
C15A C 1.1622(3) 0.38060(16) 0.9327(3)
C15D C 1.1622(3) 0.61940(16) 0.9327(3)
C16E C -0.1242(3) 0.57940(16) 0.0962(4)
C16A C 1.1242(3) 0.42060(16) 0.9038(4)
C16D C 1.1242(3) 0.57940(16) 0.9038(4)
C17E C -0.0509(3) 0.58242(16) 0.1454(3)
C17A C 1.0509(3) 0.41758(16) 0.8546(3)
C17D C 1.0509(3) 0.58242(16) 0.8546(3)
C18E C -0.0209(3) 0.62569(16) 0.1646(3)
C18A C 1.0209(3) 0.37431(16) 0.8354(3)
C18D C 1.0209(3) 0.62569(16) 0.8354(3)
C19E C -0.0617(3) 0.66437(16) 0.1330(3)
C19A C 1.0617(3) 0.33563(16) 0.8670(3)
C19D C 1.0617(3) 0.66437(16) 0.8670(3)
C20E C -0.0089(3) 0.53903(15) 0.1735(3)
C20A C 1.0089(3) 0.46097(15) 0.8265(3)
C20D C 1.0089(3) 0.53903(15) 0.8265(3)
C21A C 0.9069(4) 0.5000 0.7614(4)
C22A C 0.8269(4) 0.5000 0.7145(4)
C23E C 0.2127(3) 0.45866(18) 0.3071(4)
C23A C 0.7873(3) 0.54134(18) 0.6929(4)
C23D C 0.7873(3) 0.45866(18) 0.6929(4)
C24E C 0.2861(3) 0.45986(19) 0.3491(4)
C24A C 0.7139(3) 0.54014(19) 0.6509(4)
C24D C 0.7139(3) 0.45986(19) 0.6509(4)
C25A C 0.4382(7) 0.5000 0.5950(7)
C26A C 0.4003(9) 0.5000 0.6512(9)
C27A C 0.4260(12) 0.5000 0.7189(11)
C28A C 0.3892(12) 0.5000 0.7666(10)
C29E C 0.6860(12) 0.5356(9) 0.2688(11)
C29A C 0.3140(12) 0.4644(9) 0.7312(11)
C29D C 0.3140(12) 0.5356(9) 0.7312(11)
C30E C 0.7190(12) 0.5348(9) 0.3333(12)
C30A C 0.2810(12) 0.4652(9) 0.6667(12)
C30D C 0.2810(12) 0.5348(9) 0.6667(12)
C31E C 0.6762(13) 0.5350(10) 0.3829(12)
C31A C 0.3238(13) 0.4650(10) 0.6171(12)
C31D C 0.3238(13) 0.5350(10) 0.6171(12)
C32D C 0.5000 0.5917(3) 0.5000
C33D C 0.5000 0.6427(3) 0.5000
C34A C 0.5650(5) 0.3320(3) 0.5230(5)
C34E C 0.4350(5) 0.6680(3) 0.4770(5)
C34D C 0.5650(5) 0.6680(3) 0.5230(5)
C35A C 0.5634(6) 0.2839(3) 0.5207(7)
C35E C 0.4366(6) 0.7161(3) 0.4793(7)
C35D C 0.5634(6) 0.7161(3) 0.5207(7)
C36D C 0.5000 0.7392(4) 0.5000
H1F H -0.1037 0.1027 -0.1898
H1E H -0.3963 0.6027 0.1898
H1C H -0.1037 0.8973 -0.1898
H2F H 0.0057 0.1381 -0.1802
H2E H -0.5057 0.6381 0.1802
H2C H 0.0057 0.8619 -0.1802
H3F H 0.0371 0.2104 -0.1228
H3E H -0.5371 0.7104 0.1228
H3C H 0.0371 0.7896 -0.1228
H4F H -0.4743 0.3346 -0.3507
H4E H -0.0257 0.8346 0.3507
H4C H -0.4743 0.6654 -0.3507
H5F H -0.4582 0.4126 -0.3323
H5E H -0.0418 0.9126 0.3323
H5C H -0.4582 0.5874 -0.3323
H6F H -0.3810 0.4448 -0.2189
H6E H -0.1190 0.9448 0.2189
H6C H -0.3810 0.5552 -0.2189
H7F H -0.3129 0.3940 -0.1225
H7E H -0.1871 0.8940 0.1225
H7C H -0.3129 0.6060 -0.1225
H8E H -0.2118 0.6170 0.0337
H8A H 1.2118 0.3830 0.9663
H8D H 1.2118 0.6170 0.9663
H9E H -0.1474 0.5501 0.0829
H9A H 1.1474 0.4499 0.9171
H9D H 1.1474 0.5501 0.9171
H10E H 0.0280 0.6290 0.1997
H10A H 0.9720 0.3710 0.8003
H10D H 0.9720 0.6290 0.8003
H11E H -0.0397 0.6940 0.1457
H11A H 1.0397 0.3060 0.8543
H11D H 1.0397 0.6940 0.8543
H12E H 0.1884 0.4298 0.2924
H12A H 0.8116 0.5702 0.7076
H12D H 0.8116 0.4298 0.7076
H13E H 0.3115 0.4314 0.3649
H13A H 0.6885 0.5686 0.6351
H13D H 0.6885 0.4314 0.6351
H14A H 0.6081 0.2672 0.5340
H14E H 0.3919 0.7328 0.4660
H14D H 0.6081 0.7328 0.5340
H15D H 0.5000 0.7720 0.5000
loop_
_geom_bond_atom_site_label_1
_geom_bond_atom_site_label_2
_geom_bond_site_symmetry_1
_geom_bond_site_symmetry_2
Ru1 O1 1_555 1_555
Ru2 O5 1_555 1_555
F1 C3 1_555 1_555
F2 C7 1_555 1_555
F3 C10 1_555 1_555
F4 C27 1_555 1_555
F5 C34 1_555 1_555
O1 C1 1_555 1_555
O2 C1 1_555 1_555
O3 Ru1 1_555 1_555
O4 C8 1_555 1_555
O5 C25 1_555 1_555
O6 C25 1_555 1_555
O7 Ru2 1_555 1_555
N1 Ru1 1_555 1_555
N2 C20 1_555 1_555
N3 C20 1_555 1_555
N4 Ru2 1_555 1_555
C1 C2 1_555 1_555
C2 C3 1_555 1_555
C3 C4 1_555 1_555
C4 C5 1_555 1_555
C5 C6 1_555 1_555
C6 C7 1_555 1_555
C7 C2 1_555 1_555
C8 O3 1_555 1_555
C9 C8 1_555 1_555
C10 C9 1_555 1_555
C11 C10 1_555 1_555
C12 C11 1_555 1_555
C13 C12 1_555 1_555
C14 C9 1_555 1_555
C15 N1 1_555 1_555
C16 C15 1_555 1_555
C17 C16 1_555 1_555
C18 C17 1_555 1_555
C19 N1 1_555 1_555
C20 C17 1_555 1_555
C21 N3 1_555 1_555
C22 C21 1_555 1_555
C23 C22 1_555 1_555
C24 N4 1_555 1_555
C25 C26 1_555 1_555
C26 C27 1_555 1_555
C27 C28 1_555 1_555
C28 C29 1_555 1_555
C29 C30 1_555 1_555
C30 C31 1_555 1_555
C31 C26 1_555 1_555
C32 O7 1_555 1_555
C33 C32 1_555 1_555
C34 C33 1_555 1_555
C35 C34 1_555 1_555
C36 C35 1_555 1_555
C37 C38 1_555 1_555
C38 C39 1_555 1_555
C39 C40 1_555 1_555
C40 C41 1_555 1_555
C41 C42 1_555 1_555
C42 C43 1_555 1_555
C43 C38 1_555 1_555
H1 C4 1_555 1_555
H2 C5 1_555 1_555
H3 C6 1_555 1_555
H4 C11 1_555 1_555
H5 C12 1_555 1_555
H6 C13 1_555 1_555
H7 C14 1_555 1_555
H8 C15 1_555 1_555
H9 C16 1_555 1_555
H10 C18 1_555 1_555
H11 C19 1_555 1_555
H12 C23 1_555 1_555
H13 C24 1_555 1_555
H14 C35 1_555 1_555
H15 C36 1_555 1_555
H16 C37 1_555 1_555
H17 C39 1_555 1_555
H18 C40 1_555 1_555
Ru1E Ru1C 1_555 1_555
Ru1A Ru1G 1_555 1_555
Ru1D Ru1B 1_555 1_555
Ru1F Ru1 1_555 1_555
Ru1C O1C 1_555 1_555
Ru2A Ru2 1_555 1_555
F1F C3F 1_555 1_555
F1E C3E 1_555 1_555
F1C C3C 1_555 1_555
F2F C7F 1_555 1_555
F2E C7E 1_555 1_555
F2C C7C 1_555 1_555
F3F C10F 1_555 1_555
F3E C10E 1_555 1_555
F3C C10C 1_555 1_555
F4A C27A 1_555 1_555
F5A C34A 1_555 1_555
F5E C34E 1_555 1_555
F5D C34D 1_555 1_555
O1F Ru1F 1_555 1_555
O1E Ru1E 1_555 1_555
O1C C1C 1_555 1_555
O1A Ru1A 1_555 1_555
O1D Ru1D 1_555 1_555
O2F Ru1 1_555 1_555
O2E Ru1C 1_555 1_555
O2C Ru1E 1_555 1_555
O2G Ru1A 1_555 1_555
O2B Ru1D 1_555 1_555
O3F Ru1F 1_555 1_555
O3E Ru1E 1_555 1_555
O3C Ru1C 1_555 1_555
O3A Ru1A 1_555 1_555
O3D Ru1D 1_555 1_555
O4F Ru1 1_555 1_555
O4E Ru1C 1_555 1_555
O4C Ru1E 1_555 1_555
O4G Ru1A 1_555 1_555
O4B Ru1D 1_555 1_555
O5A Ru2A 1_555 1_555
O6A Ru2 1_555 1_555
O7A C32 1_555 1_555
O7E Ru2 1_555 1_555
O7D Ru2A 1_555 1_555
N1E Ru1E 1_555 1_555
N1A Ru1A 1_555 1_555
N1D Ru1D 1_555 1_555
N2A C20A 1_555 1_555
N3E C21 1_555 1_555
N3A C20A 1_555 1_555
N3D C20D 1_555 1_555
N4A Ru2A 1_555 1_555
C1F O1F 1_555 1_555
C1E O1E 1_555 1_555
C1C O2C 1_555 1_555
C2F C1F 1_555 1_555
C2E C1E 1_555 1_555
C2C C1C 1_555 1_555
C3F C2F 1_555 1_555
C3E C2E 1_555 1_555
C3C C2C 1_555 1_555
C4F C3F 1_555 1_555
C4E C3E 1_555 1_555
C4C C3C 1_555 1_555
C5F C4F 1_555 1_555
C5E C4E 1_555 1_555
C5C C4C 1_555 1_555
C6F C5F 1_555 1_555
C6E C5E 1_555 1_555
C6C C5C 1_555 1_555
C7F C2F 1_555 1_555
C7E C2E 1_555 1_555
C7C C2C 1_555 1_555
C8F O3F 1_555 1_555
C8E O3E 1_555 1_555
C8C O3C 1_555 1_555
C9F C8F 1_555 1_555
C9E C8E 1_555 1_555
C9C C8C 1_555 1_555
C10F C9F 1_555 1_555
C10E C9E 1_555 1_555
C10C C9C 1_555 1_555
C11F C10F 1_555 1_555
C11E C10E 1_555 1_555
C11C C10C 1_555 1_555
C12F C11F 1_555 1_555
C12E C11E 1_555 1_555
C12C C11C 1_555 1_555
C13F C12F 1_555 1_555
C13E C12E 1_555 1_555
C13C C12C 1_555 1_555
C14F C9F 1_555 1_555
C14E C9E 1_555 1_555
C14C C9C 1_555 1_555
C15E N1E 1_555 1_555
C15A N1A 1_555 1_555
C15D N1D 1_555 1_555
C16E C15E 1_555 1_555
C16A C15A 1_555 1_555
C16D C15D 1_555 1_555
C17E C16E 1_555 1_555
C17A C16A 1_555 1_555
C17D C16D 1_555 1_555
C18E C17E 1_555 1_555
C18A C17A 1_555 1_555
C18D C17D 1_555 1_555
C19E N1E 1_555 1_555
C19A N1A 1_555 1_555
C19D N1D 1_555 1_555
C20E N2 1_555 1_555
C20A C17A 1_555 1_555
C20D N2A 1_555 1_555
C21A N3A 1_555 1_555
C22A C21A 1_555 1_555
C23E C22 1_555 1_555
C23A C22A 1_555 1_555
C23D C22A 1_555 1_555
C24E N4 1_555 1_555
C24A N4A 1_555 1_555
C24D N4A 1_555 1_555
C25A O5A 1_555 1_555
C26A C25A 1_555 1_555
C27A C26A 1_555 1_555
C28A C27A 1_555 1_555
C29E C28 1_555 1_555
C29A C28A 1_555 1_555
C29D C28A 1_555 1_555
C30E C29E 1_555 1_555
C30A C29A 1_555 1_555
C30D C29D 1_555 1_555
C31E C26 1_555 1_555
C31A C26A 1_555 1_555
C31D C26A 1_555 1_555
C32D O7E 1_555 1_555
C33D C32D 1_555 1_555
C34A C33 1_555 1_555
C34E C33D 1_555 1_555
C34D C33D 1_555 1_555
C35A C36 1_555 1_555
C35E C34E 1_555 1_555
C35D C34D 1_555 1_555
C36D C35E 1_555 1_555
C37A C37 1_555 1_555
C37D C37E 1_555 1_555
C37E C38E 1_555 1_555
C38A C37A 1_555 1_555
C38D C37D 1_555 1_555
C38E C39E 1_555 1_555
C39A C38A 1_555 1_555
C39D C38D 1_555 1_555
C39E C40E 1_555 1_555
C40A C39A 1_555 1_555
C40D C39D 1_555 1_555
C40E C41 1_555 1_555
C41A C40A 1_555 1_555
C42A C41A 1_555 1_555
C43E C42 1_555 1_555
C43D C38D 1_555 1_555
C43A C43 1_555 1_555
H1F C4F 1_555 1_555
H1E C4E 1_555 1_555
H1C C4C 1_555 1_555
H2F C5F 1_555 1_555
H2E C5E 1_555 1_555
H2C C5C 1_555 1_555
H3F C6F 1_555 1_555
H3E C6E 1_555 1_555
H3C C6C 1_555 1_555
H4F C11F 1_555 1_555
H4E C11E 1_555 1_555
H4C C11C 1_555 1_555
H5F C12F 1_555 1_555
H5E C12E 1_555 1_555
H5C C12C 1_555 1_555
H6F C13F 1_555 1_555
H6E C13E 1_555 1_555
H6C C13C 1_555 1_555
H7F C14F 1_555 1_555
H7E C14E 1_555 1_555
H7C C14C 1_555 1_555
H8E C15E 1_555 1_555
H8A C15A 1_555 1_555
H8D C15D 1_555 1_555
H9E C16E 1_555 1_555
H9A C16A 1_555 1_555
H9D C16D 1_555 1_555
H10E C18E 1_555 1_555
H10A C18A 1_555 1_555
H10D C18D 1_555 1_555
H11E C19E 1_555 1_555
H11A C19A 1_555 1_555
H11D C19D 1_555 1_555
H12E C23E 1_555 1_555
H12A C23A 1_555 1_555
H12D C23D 1_555 1_555
H13E C24E 1_555 1_555
H13A C24A 1_555 1_555
H13D C24D 1_555 1_555
H14A C35A 1_555 1_555
H14E C35E 1_555 1_555
H14D C35D 1_555 1_555
H15D C36D 1_555 1_555
H16E C37E 1_555 1_555
H16D C37D 1_555 1_555
H16A C37A 1_555 1_555
H17E C39E 1_555 1_555
H17D C39D 1_555 1_555
H17A C39A 1_555 1_555
H18E C40E 1_555 1_555
H18D C40D 1_555 1_555
H18A C40A 1_555 1_555
O2 Ru1F 1_555 1_555
O4 Ru1F 1_555 1_555
O6 Ru2A 1_555 1_555
C13 C14 1_555 1_555
C18 C19 1_555 1_555
C23 C24 1_555 1_555
Ru2A O7A 1_555 1_555
O2F C1F 1_555 1_555
O2E C1E 1_555 1_555
O4F C8F 1_555 1_555
O4E C8E 1_555 1_555
O4C C8C 1_555 1_555
O6A C25A 1_555 1_555
O7D C32D 1_555 1_555
N3E C20E 1_555 1_555
N3D C21A 1_555 1_555
C6F C7F 1_555 1_555
C6E C7E 1_555 1_555
C6C C7C 1_555 1_555
C13F C14F 1_555 1_555
C13E C14E 1_555 1_555
C13C C14C 1_555 1_555
C17E C20E 1_555 1_555
C17D C20D 1_555 1_555
C18E C19E 1_555 1_555
C18A C19A 1_555 1_555
C18D C19D 1_555 1_555
C23E C24E 1_555 1_555
C23A C24A 1_555 1_555
C23D C24D 1_555 1_555
C30E C31E 1_555 1_555
C30A C31A 1_555 1_555
C30D C31D 1_555 1_555
C34A C35A 1_555 1_555
C35D C36D 1_555 1_555
C38A C43A 1_555 1_555
C38E C43E 1_555 1_555
C40D C41A 1_555 1_555
C42A C43D 1_555 1_555
C42A C43A 1_555 1_555
C43E C43D 1_555 1_555

#END
