
#######################################################################
#
#                 Cambridge Crystallographic Data Centre
#                                CCDC 
#
#######################################################################
#
# If this CIF has been generated from an entry in the Cambridge 
# Structural Database, then it will include bibliographic, chemical, 
# crystal, experimental, refinement or atomic coordinate data resulting 
# from the CCDC's data processing and validation procedures.
#
#######################################################################

data_VEGQIJ
_symmetry_cell_setting           monoclinic
_symmetry_space_group_name_H-M   'P 21/n'
_symmetry_Int_Tables_number      14
_space_group_name_Hall           '-P 2yn'
loop_
_symmetry_equiv_pos_site_id
_symmetry_equiv_pos_as_xyz
1 x,y,z
2 1/2-x,1/2+y,1/2-z
3 -x,-y,-z
4 1/2+x,1/2-y,1/2+z
_cell_length_a                   5.9496(3)
_cell_length_b                   12.2417(8)
_cell_length_c                   13.8473(7)
_cell_angle_alpha                90
_cell_angle_beta                 102.234(4)
_cell_angle_gamma                90
_cell_volume                     985.64
loop_
_atom_site_label
_atom_site_type_symbol
_atom_site_fract_x
_atom_site_fract_y
_atom_site_fract_z
Cd1 Cd 0.39355(3) 0.841494(13) 0.521245(13)
N1 N 0.0415(3) 0.89164(17) 0.42664(16)
C1 C -0.1484(4) 0.91893(17) 0.40917(16)
S1 S -0.42188(9) 0.95710(4) 0.38080(4)
N2 N -0.2419(3) 0.80433(19) 0.60476(17)
C2 C -0.0498(4) 0.78254(18) 0.62879(17)
S2 S 0.22318(10) 0.74862(5) 0.66495(5)
N3 N 0.3820(3) 0.67958(15) 0.43231(16)
C3 C 0.5458(5) 0.6518(2) 0.3847(2)
H1 H 0.6665 0.7003 0.3851
C4 C 0.5440(5) 0.5542(2) 0.3346(2)
H2 H 0.6608 0.5379 0.3016
C5 C 0.3691(5) 0.4816(2) 0.3339(2)
H3 H 0.3661 0.4148 0.3017
C6 C 0.1994(5) 0.5094(2) 0.3816(3)
H4 H 0.0771 0.4621 0.3817
C7 C 0.2112(5) 0.6086(2) 0.4297(2)
H5 H 0.0942 0.6268 0.4620
Cd1B Cd -0.39355(3) 1.158506(13) 0.478755(13)
Cd1_2 Cd -0.60645(3) 0.841494(13) 0.521245(13)
Cd1B_2 Cd 0.60645(3) 1.158506(13) 0.478755(13)
N1B N -0.0415(3) 1.10836(17) 0.57336(16)
C1B C 0.1484(4) 1.08107(17) 0.59083(16)
S1B S 0.42188(9) 1.04290(4) 0.61920(4)
S1_2 S 0.57812(9) 0.95710(4) 0.38080(4)
S1B_2 S -0.57812(9) 1.04290(4) 0.61920(4)
N2B N 0.2419(3) 1.19567(19) 0.39524(17)
N2_2 N 0.7581(3) 0.80433(19) 0.60476(17)
N2B_2 N -0.7581(3) 1.19567(19) 0.39524(17)
C2B C 0.0498(4) 1.21746(18) 0.37121(17)
S2B S -0.22318(10) 1.25138(5) 0.33505(5)
N3B N -0.3820(3) 1.32042(15) 0.56769(16)
C3B C -0.5458(5) 1.3482(2) 0.6153(2)
H1B H -0.6665 1.2997 0.6149
C4B C -0.5440(5) 1.4458(2) 0.6654(2)
H2B H -0.6608 1.4621 0.6984
C5B C -0.3691(5) 1.5184(2) 0.6661(2)
H3B H -0.3661 1.5852 0.6983
C6B C -0.1994(5) 1.4906(2) 0.6184(3)
H4B H -0.0771 1.5379 0.6183
C7B C -0.2112(5) 1.3914(2) 0.5703(2)
H5B H -0.0942 1.3732 0.5380
loop_
_geom_bond_atom_site_label_1
_geom_bond_atom_site_label_2
_geom_bond_site_symmetry_1
_geom_bond_site_symmetry_2
Cd1 N1 1_555 1_555
N1 C1 1_555 1_555
C1 S1 1_555 1_555
S1 Cd1B 1_555 1_555
N2 C2 1_555 1_555
C2 S2 1_555 1_555
S2 Cd1 1_555 1_555
N3 Cd1 1_555 1_555
C3 N3 1_555 1_555
H1 C3 1_555 1_555
C4 C3 1_555 1_555
H2 C4 1_555 1_555
C5 C4 1_555 1_555
H3 C5 1_555 1_555
C6 C5 1_555 1_555
H4 C6 1_555 1_555
C7 N3 1_555 1_555
H5 C7 1_555 1_555
Cd1B N1B 1_555 1_555
Cd1_2 S1 1_555 1_555
Cd1B_2 S1B 1_555 1_555
N1B C1B 1_555 1_555
C1B S1B 1_555 1_555
S1B Cd1 1_555 1_555
S1_2 Cd1 1_555 1_555
S1B_2 Cd1B 1_555 1_555
N2B Cd1B_2 1_555 1_555
N2_2 Cd1 1_555 1_555
N2B_2 Cd1B 1_555 1_555
C2B N2B 1_555 1_555
S2B Cd1B 1_555 1_555
N3B Cd1B 1_555 1_555
C3B N3B 1_555 1_555
H1B C3B 1_555 1_555
C4B C3B 1_555 1_555
H2B C4B 1_555 1_555
C5B C4B 1_555 1_555
H3B C5B 1_555 1_555
C6B C5B 1_555 1_555
H4B C6B 1_555 1_555
C7B N3B 1_555 1_555
H5B C7B 1_555 1_555
N2 Cd1_2 1_555 1_555
C6 C7 1_555 1_555
Cd1_2 S1B_2 1_555 1_555
Cd1B_2 S1_2 1_555 1_555
C2B S2B 1_555 1_555
C6B C7B 1_555 1_555

#END
