
#######################################################################
#
#                 Cambridge Crystallographic Data Centre
#                                CCDC 
#
#######################################################################
#
# If this CIF has been generated from an entry in the Cambridge 
# Structural Database, then it will include bibliographic, chemical, 
# crystal, experimental, refinement or atomic coordinate data resulting 
# from the CCDC's data processing and validation procedures.
#
#######################################################################

data_VEGQEE
_symmetry_cell_setting           triclinic
_symmetry_space_group_name_H-M   'P -1'
_symmetry_Int_Tables_number      2
_space_group_name_Hall           '-P 1'
loop_
_symmetry_equiv_pos_site_id
_symmetry_equiv_pos_as_xyz
1 x,y,z
2 -x,-y,-z
_cell_length_a                   10.376(4)
_cell_length_b                   14.152(5)
_cell_length_c                   18.151(7)
_cell_angle_alpha                75.767(6)
_cell_angle_beta                 74.094(6)
_cell_angle_gamma                69.456(6)
_cell_volume                     2366.86
loop_
_atom_site_label
_atom_site_type_symbol
_atom_site_fract_x
_atom_site_fract_y
_atom_site_fract_z
Ag1 Ag -0.17362(7) 0.39751(4) 0.11840(4)
Ag2 Ag -0.67188(7) 0.11133(5) 0.39149(3)
N1 N 0.1078(6) 0.2238(4) 0.1611(3)
N2 N -0.0256(6) 0.2706(4) 0.1968(3)
N3 N -0.5302(6) 0.1858(4) 0.2806(3)
N4 N -0.3985(7) 0.1264(4) 0.2574(3)
C1 C -0.4492(9) 0.4094(8) 0.3354(5)
H1 H -0.5312 0.4645 0.3377
C2 C -0.4400(9) 0.3148(8) 0.3789(5)
H2 H -0.5144 0.2987 0.4160
C3 C -0.3071(9) 0.2450(7) 0.3616(4)
H3 H -0.2844 0.1767 0.3851
C4 C -0.2127(8) 0.2866(6) 0.3069(4)
C5 C -0.0669(8) 0.2359(5) 0.2714(4)
C6 C 0.0226(8) 0.1538(5) 0.3125(4)
C7 C 0.0123(10) 0.1053(7) 0.3896(4)
H4 H -0.0660 0.1213 0.4295
C8 C 0.1370(10) 0.0298(6) 0.3969(5)
H5 H 0.1354 -0.0349 0.4319
C9 C 0.2338(10) 0.0285(6) 0.3263(5)
H6 H 0.2922 -0.0377 0.3110
C10 C 0.1626(8) 0.1057(5) 0.2709(4)
C11 C 0.2031(8) 0.1437(5) 0.1942(4)
C12 C 0.3410(9) 0.1103(6) 0.1427(5)
C13 C 0.4021(8) 0.1686(7) 0.0786(5)
H7 H 0.3599 0.2373 0.0610
C14 C 0.5373(11) 0.1099(10) 0.0434(7)
H8 H 0.5941 0.1361 -0.0003
C15 C 0.5730(12) 0.0160(11) 0.0786(7)
H9 H 0.6588 -0.0318 0.0629
C16 C -0.9583(9) 0.4032(7) 0.3401(6)
H10 H -1.0415 0.4182 0.3771
C17 C -0.9474(10) 0.4421(6) 0.2656(6)
H11 H -1.0219 0.4897 0.2447
C18 C -0.8137(9) 0.4049(6) 0.2212(5)
H12 H -0.7904 0.4243 0.1676
C19 C -0.7205(8) 0.3373(5) 0.2639(4)
C20 C -0.5750(7) 0.2776(5) 0.2370(4)
C21 C -0.4858(8) 0.3105(5) 0.1706(4)
C22 C -0.5015(9) 0.4027(6) 0.1183(4)
H13 H -0.5812 0.4596 0.1203
C23 C -0.3760(9) 0.3942(6) 0.0624(4)
H14 H -0.3803 0.4246 0.0081
C24 C -0.2792(8) 0.2956(6) 0.0796(4)
H15 H -0.2252 0.2579 0.0367
C25 C -0.3474(8) 0.2444(5) 0.1468(4)
C26 C -0.3042(8) 0.1500(5) 0.1930(4)
C27 C -0.1663(8) 0.0726(6) 0.1825(5)
C28 C -0.1023(9) 0.0011(6) 0.2399(6)
H16 H -0.1423 -0.0058 0.2927
C29 C 0.0297(14) -0.0585(8) 0.2073(10)
H17 H 0.0896 -0.1095 0.2365
C30 C 0.0622(12) -0.0356(9) 0.1303(9)
H18 H 0.1462 -0.0696 0.1001
C31 C -0.6418(19) 0.2124(9) 0.6221(8)
C32 C -0.1106(16) 0.7206(8) 0.1130(7)
O1 O -0.6702(9) 0.1541(6) 0.5099(4)
O2 O -0.4447(9) 0.1063(8) 0.5356(6)
O3 O -0.6026(12) 0.0272(5) 0.6180(4)
O4 O -0.1514(9) 0.5591(5) 0.1085(4)
O5 O -0.1062(11) 0.6695(6) -0.0111(4)
O6 O 0.0750(9) 0.5742(6) 0.0520(5)
F1 F -0.7768(11) 0.2243(7) 0.6615(5)
F2 F -0.6424(15) 0.2958(6) 0.5870(6)
F3 F -0.5823(12) 0.1828(8) 0.6817(6)
F4 F -0.2435(11) 0.7740(5) 0.1227(6)
F5 F -0.0441(11) 0.7863(6) 0.0763(5)
F6 F -0.0843(15) 0.6889(6) 0.1802(5)
S1 S 0.4491(3) -0.0120(2) 0.15611(19)
S2 S -0.2925(2) 0.41443(17) 0.27639(13)
S3 S -0.0623(3) 0.0595(2) 0.09365(19)
S4 S -0.8018(2) 0.32228(17) 0.36043(12)
S5 S -0.5923(3) 0.11395(16) 0.56568(12)
S6 S -0.0738(3) 0.61997(15) 0.05961(11)
Ag2_2 Ag 0.32812(7) 0.11133(5) 0.39149(3)
C8_2 C -0.8630(10) 0.0298(6) 0.3969(5)
H5_2 H -0.8646 -0.0349 0.4319
C9_2 C -0.7662(10) 0.0285(6) 0.3263(5)
H6_2 H -0.7078 -0.0377 0.3110
C33 C 0.250(2) 0.5423(10) 0.4759(10)
H19 H 0.2989 0.4737 0.4891
C34 C 0.128(3) 0.5685(18) 0.4503(13)
H20 H 0.0964 0.5178 0.4434
C35 C 0.0514(16) 0.669(2) 0.4346(13)
H21 H -0.0320 0.6873 0.4174
C36 C 0.099(3) 0.7429(10) 0.4446(12)
H22 H 0.0427 0.8109 0.4398
C37 C 0.228(3) 0.7164(18) 0.4615(11)
H23 H 0.2684 0.7668 0.4588
C38 C 0.2989(12) 0.616(2) 0.4821(8)
H24 H 0.3809 0.5987 0.5006
C39 C 0.667(2) 0.3181(15) 0.7387(6)
H25 H 0.7012 0.3154 0.6860
C40 C 0.7497(14) 0.3305(15) 0.7811(11)
H26 H 0.8335 0.3448 0.7565
C41 C 0.7064(17) 0.3213(9) 0.8605(10)
H27 H 0.7676 0.3164 0.8913
C42 C 0.574(2) 0.3197(12) 0.8930(6)
H28 H 0.5421 0.3167 0.9465
C43 C 0.4849(14) 0.322(2) 0.8488(13)
H29 H 0.3897 0.3329 0.8702
C44 C 0.537(2) 0.3097(12) 0.7719(11)
H30 H 0.4850 0.2957 0.7441
loop_
_geom_bond_atom_site_label_1
_geom_bond_atom_site_label_2
_geom_bond_site_symmetry_1
_geom_bond_site_symmetry_2
Ag1 N2 1_555 1_555
Ag2 N3 1_555 1_555
N1 N2 1_555 1_555
N2 C5 1_555 1_555
N3 N4 1_555 1_555
N4 C26 1_555 1_555
C1 H1 1_555 1_555
C2 C1 1_555 1_555
H2 C2 1_555 1_555
C3 C2 1_555 1_555
H3 C3 1_555 1_555
C4 C3 1_555 1_555
C5 C4 1_555 1_555
C6 C5 1_555 1_555
C7 C6 1_555 1_555
H4 C7 1_555 1_555
C8 C7 1_555 1_555
H5 C8 1_555 1_555
C9 C8 1_555 1_555
H6 C9 1_555 1_555
C10 C6 1_555 1_555
C11 N1 1_555 1_555
C12 C11 1_555 1_555
C13 C12 1_555 1_555
H7 C13 1_555 1_555
C14 C13 1_555 1_555
H8 C14 1_555 1_555
C15 C14 1_555 1_555
H9 C15 1_555 1_555
C16 H10 1_555 1_555
C17 C16 1_555 1_555
H11 C17 1_555 1_555
C18 C17 1_555 1_555
H12 C18 1_555 1_555
C19 C18 1_555 1_555
C20 N3 1_555 1_555
C21 C20 1_555 1_555
C22 C21 1_555 1_555
H13 C22 1_555 1_555
C23 Ag1 1_555 1_555
H14 C23 1_555 1_555
C24 Ag1 1_555 1_555
H15 C24 1_555 1_555
C25 C21 1_555 1_555
C26 C25 1_555 1_555
C27 C26 1_555 1_555
C28 C27 1_555 1_555
H16 C28 1_555 1_555
C29 C28 1_555 1_555
H17 C29 1_555 1_555
C30 C29 1_555 1_555
H18 C30 1_555 1_555
C31 F1 1_555 1_555
C32 F4 1_555 1_555
C33 H19 1_555 1_555
C34 C33 1_555 1_555
H20 C34 1_555 1_555
C35 C34 1_555 1_555
H21 C35 1_555 1_555
C36 C35 1_555 1_555
H22 C36 1_555 1_555
C37 C36 1_555 1_555
H23 C37 1_555 1_555
C38 C33 1_555 1_555
H24 C38 1_555 1_555
C39 H25 1_555 1_555
C40 C39 1_555 1_555
H26 C40 1_555 1_555
C41 C40 1_555 1_555
H27 C41 1_555 1_555
C42 C41 1_555 1_555
H28 C42 1_555 1_555
C43 C42 1_555 1_555
H29 C43 1_555 1_555
C44 C39 1_555 1_555
H30 C44 1_555 1_555
O1 Ag2 1_555 1_555
O2 S5 1_555 1_555
O3 S5 1_555 1_555
O4 Ag1 1_555 1_555
O5 S6 1_555 1_555
O6 S6 1_555 1_555
F2 C31 1_555 1_555
F3 C31 1_555 1_555
F5 C32 1_555 1_555
F6 C32 1_555 1_555
S1 C12 1_555 1_555
S2 Ag1 1_555 1_555
S3 C27 1_555 1_555
S4 Ag2 1_555 1_555
S5 C31 1_555 1_555
S6 C32 1_555 1_555
Ag2_2 C8 1_555 1_555
C8_2 Ag2 1_555 1_555
H5_2 C8_2 1_555 1_555
C9_2 Ag2 1_555 1_555
H6_2 C9_2 1_555 1_555
C1 S2 1_555 1_555
C4 S2 1_555 1_555
C9 C10 1_555 1_555
C9 Ag2_2 1_555 1_555
C10 C11 1_555 1_555
C15 S1 1_555 1_555
C16 S4 1_555 1_555
C19 C20 1_555 1_555
C19 S4 1_555 1_555
C22 C23 1_555 1_555
C23 C24 1_555 1_555
C24 C25 1_555 1_555
C30 S3 1_555 1_555
C37 C38 1_555 1_555
C43 C44 1_555 1_555
O1 S5 1_555 1_555
O4 S6 1_555 1_555
C8_2 C9_2 1_555 1_555

#END
