
#######################################################################
#
#                 Cambridge Crystallographic Data Centre
#                                CCDC 
#
#######################################################################
#
# If this CIF has been generated from an entry in the Cambridge 
# Structural Database, then it will include bibliographic, chemical, 
# crystal, experimental, refinement or atomic coordinate data resulting 
# from the CCDC's data processing and validation procedures.
#
#######################################################################

data_VEGWOV
_symmetry_cell_setting           triclinic
_symmetry_space_group_name_H-M   'P -1'
_symmetry_Int_Tables_number      2
_space_group_name_Hall           '-P 1'
loop_
_symmetry_equiv_pos_site_id
_symmetry_equiv_pos_as_xyz
1 x,y,z
2 -x,-y,-z
_cell_length_a                   9.0076(14)
_cell_length_b                   9.0531(14)
_cell_length_c                   10.020(3)
_cell_angle_alpha                101.061(3)
_cell_angle_beta                 109.377(3)
_cell_angle_gamma                109.873(2)
_cell_volume                     680.834
loop_
_atom_site_label
_atom_site_type_symbol
_atom_site_fract_x
_atom_site_fract_y
_atom_site_fract_z
Fe1 Fe 1.26072(10) 1.24197(9) 0.53144(8)
Fe2 Fe 1.0000 1.0000 0.0000
P1 P 1.27633(17) 0.96175(17) 0.30275(15)
P2 P 0.91344(17) 0.89539(17) 0.26267(15)
O1 O 1.3926(4) 0.8703(5) 0.2908(4)
H1 H 1.4634 0.8842 0.3788
O2 O 1.2268(4) 1.0139(5) 0.1688(4)
O3 O 1.3721(4) 1.1018(4) 0.4550(4)
O4 O 1.0030(4) 1.0722(4) 0.3758(4)
O5 O 0.7576(4) 0.7828(4) 0.2843(4)
O6 O 0.8505(4) 0.8847(4) 0.1004(4)
O7 O 1.1195(5) 0.7823(4) 0.4431(4)
H2 H 1.0791 0.8296 0.4943
O8 O 1.2721(4) 1.3924(4) 0.4011(4)
O9 O 1.4694(5) 1.5592(5) 0.3415(4)
O10 O 1.0148(5) 1.2364(5) 0.1219(4)
H3 H 0.9196 1.2186 0.1309
H4 H 1.0996 1.2775 0.2092
N1 N 0.5478(6) 0.3213(6) 0.0002(5)
H5 H 0.4545 0.2868 -0.0885
C1 C 1.0767(6) 0.8095(6) 0.3014(5)
C2 C 1.0137(7) 0.6402(6) 0.1790(6)
H6 H 1.1034 0.6031 0.2081
H7 H 1.0030 0.6593 0.0846
C3 C 0.8444(7) 0.5030(6) 0.1542(6)
C4 C 0.8298(7) 0.4293(7) 0.2626(6)
H8 H 0.9295 0.4648 0.3568
C5 C 0.6734(8) 0.3044(8) 0.2376(7)
H9 H 0.6620 0.2538 0.3134
C6 C 0.5315(8) 0.2518(8) 0.1042(7)
H10 H 0.4208 0.1630 0.0826
C7 C 0.6978(7) 0.4426(6) 0.0216(6)
H11 H 0.7048 0.4919 -0.0558
C8 C 1.4252(7) 1.4870(6) 0.4243(6)
Fe1A Fe 0.73928(10) 0.75803(9) -0.53144(8)
Fe1_2 Fe 1.26072(10) 1.24197(9) -0.46856(8)
Fe1A_2 Fe 0.73928(10) 0.75803(9) 0.46856(8)
Fe1A_3 Fe 1.73928(10) 1.75803(9) 0.46856(8)
P1A P 0.72367(17) 1.03825(17) -0.30275(15)
P2A P 1.08656(17) 1.10461(17) -0.26267(15)
O1A O 0.6074(4) 1.1297(5) -0.2908(4)
H1A H 0.5366 1.1158 -0.3788
O2A O 0.7732(4) 0.9861(5) -0.1688(4)
O3A O 0.6279(4) 0.8982(4) -0.4550(4)
O4A O 0.9970(4) 0.9278(4) -0.3758(4)
O5A O 1.2424(4) 1.2172(4) -0.2843(4)
O5_2 O 0.7576(4) 0.7828(4) -0.7157(4)
O5A_2 O 1.2424(4) 1.2172(4) 0.7157(4)
O6A O 1.1495(4) 1.1153(4) -0.1004(4)
O7A O 0.8805(5) 1.2177(4) -0.4431(4)
H2A H 0.9209 1.1704 -0.4943
O8A O 1.7279(4) 1.6076(4) 0.5989(4)
O8A_2 O 0.7279(4) 0.6076(4) -0.4011(4)
O9A O 1.5306(5) 1.4408(5) 0.6585(4)
O9_2 O 0.4694(5) 0.5592(5) -0.6585(4)
O10A O 0.9852(5) 0.7636(5) -0.1219(4)
H3A H 1.0804 0.7814 -0.1309
H4A H 0.9004 0.7225 -0.2092
N1A N 1.4522(6) 1.6787(6) -0.0002(5)
H5A H 1.5455 1.7132 0.0885
C1A C 0.9233(6) 1.1905(6) -0.3014(5)
C2A C 0.9863(7) 1.3598(6) -0.1790(6)
H6A H 0.8966 1.3969 -0.2081
H7A H 0.9970 1.3407 -0.0846
C3A C 1.1556(7) 1.4970(6) -0.1542(6)
C4A C 1.1702(7) 1.5707(7) -0.2626(6)
H8A H 1.0705 1.5352 -0.3568
C5A C 1.3266(8) 1.6956(8) -0.2376(7)
H9A H 1.3380 1.7462 -0.3134
C6A C 1.4685(8) 1.7482(8) -0.1042(7)
H10A H 1.5792 1.8370 -0.0826
C7A C 1.3022(7) 1.5574(6) -0.0216(6)
H11A H 1.2952 1.5081 0.0558
C8A C 1.5748(7) 1.5130(6) 0.5757(6)
loop_
_geom_bond_atom_site_label_1
_geom_bond_atom_site_label_2
_geom_bond_site_symmetry_1
_geom_bond_site_symmetry_2
Fe1 O3 1_555 1_555
Fe2 O2 1_555 1_555
P1 O1 1_555 1_555
P2 O4 1_555 1_555
O1 H1 1_555 1_555
O2 P1 1_555 1_555
O3 P1 1_555 1_555
O4 Fe1 1_555 1_555
O5 P2 1_555 1_555
O6 Fe2 1_555 1_555
O7 H2 1_555 1_555
O8 Fe1 1_555 1_555
O9 C8 1_555 1_555
O10 Fe2 1_555 1_555
H3 O10 1_555 1_555
H4 O10 1_555 1_555
N1 H5 1_555 1_555
C1 P1 1_555 1_555
C2 C1 1_555 1_555
H6 C2 1_555 1_555
H7 C2 1_555 1_555
C3 C2 1_555 1_555
C4 C3 1_555 1_555
H8 C4 1_555 1_555
C5 C4 1_555 1_555
H9 C5 1_555 1_555
C6 N1 1_555 1_555
H10 C6 1_555 1_555
C7 N1 1_555 1_555
H11 C7 1_555 1_555
C8 O8 1_555 1_555
Fe1A O3A 1_555 1_555
Fe1_2 O5A 1_555 1_555
Fe1A_2 O5 1_555 1_555
Fe1A_3 O9 1_555 1_555
P1A O1A 1_555 1_555
P2A O4A 1_555 1_555
O1A H1A 1_555 1_555
O2A Fe2 1_555 1_555
O3A P1A 1_555 1_555
O4A Fe1A 1_555 1_555
O5A P2A 1_555 1_555
O5_2 Fe1A 1_555 1_555
O5A_2 Fe1 1_555 1_555
O6A Fe2 1_555 1_555
O7A H2A 1_555 1_555
O8A Fe1A_3 1_555 1_555
O8A_2 Fe1A 1_555 1_555
O9A Fe1 1_555 1_555
O9_2 Fe1A 1_555 1_555
O10A Fe2 1_555 1_555
H3A O10A 1_555 1_555
H4A O10A 1_555 1_555
N1A H5A 1_555 1_555
C1A P1A 1_555 1_555
C2A C1A 1_555 1_555
H6A C2A 1_555 1_555
H7A C2A 1_555 1_555
C3A C2A 1_555 1_555
C4A C3A 1_555 1_555
H8A C4A 1_555 1_555
C5A C4A 1_555 1_555
H9A C5A 1_555 1_555
C6A N1A 1_555 1_555
H10A C6A 1_555 1_555
C7A N1A 1_555 1_555
H11A C7A 1_555 1_555
C8A C8 1_555 1_555
P2 O6 1_555 1_555
P2 C1 1_555 1_555
O7 C1 1_555 1_555
C3 C7 1_555 1_555
C5 C6 1_555 1_555
P1A O2A 1_555 1_555
P2A O6A 1_555 1_555
P2A C1A 1_555 1_555
O7A C1A 1_555 1_555
O8A C8A 1_555 1_555
O9A C8A 1_555 1_555
C3A C7A 1_555 1_555
C5A C6A 1_555 1_555

#END
