
#######################################################################
#
#                 Cambridge Crystallographic Data Centre
#                                CCDC 
#
#######################################################################
#
# If this CIF has been generated from an entry in the Cambridge 
# Structural Database, then it will include bibliographic, chemical, 
# crystal, experimental, refinement or atomic coordinate data resulting 
# from the CCDC's data processing and validation procedures.
#
#######################################################################

data_VEGWEK
_symmetry_cell_setting           triclinic
_symmetry_space_group_name_H-M   'P -1'
_symmetry_Int_Tables_number      2
_space_group_name_Hall           '-P 1'
loop_
_symmetry_equiv_pos_site_id
_symmetry_equiv_pos_as_xyz
1 x,y,z
2 -x,-y,-z
_cell_length_a                   14.073(3)
_cell_length_b                   14.311(3)
_cell_length_c                   21.752(4)
_cell_angle_alpha                85.20(3)
_cell_angle_beta                 82.32(3)
_cell_angle_gamma                62.48(3)
_cell_volume                     3849.08
loop_
_atom_site_label
_atom_site_type_symbol
_atom_site_fract_x
_atom_site_fract_y
_atom_site_fract_z
W1 W -0.70577(9) -0.23552(8) 0.25816(4)
W2 W -0.78183(8) -0.42164(10) 0.23992(4)
W3 W -0.71099(7) -0.39897(8) 0.37992(3)
W4 W -0.49999(7) -0.33444(8) 0.12541(3)
W5 W -0.57806(7) -0.52129(8) 0.10606(3)
W6 W -0.58183(9) -0.69953(9) 0.23638(4)
W7 W -0.51331(7) -0.67619(7) 0.37706(3)
W8 W -0.43113(6) -0.47552(7) 0.39789(3)
W9 W -0.42756(8) -0.30979(8) 0.27704(4)
W10 W -0.31666(7) -0.59318(8) 0.12287(3)
W11 W -0.32323(8) -0.76987(8) 0.25359(4)
W12 W -0.24320(7) -0.56760(9) 0.27374(4)
Si1 Si -0.5088(5) -0.5003(5) 0.2534(2)
O1 O -0.7833(13) -0.1024(12) 0.2533(7)
O2 O -0.9043(13) -0.4037(15) 0.2259(8)
O3 O -0.7949(12) -0.3627(13) 0.4471(7)
O4 O -0.8097(15) -0.2754(15) 0.2347(8)
O5 O -0.8080(13) -0.4078(13) 0.3293(7)
O6 O -0.7518(13) -0.2596(13) 0.3446(7)
O7 O -0.7065(12) -0.4438(13) 0.1618(6)
O8 O -0.7084(13) -0.5690(13) 0.2529(7)
O9 O -0.6444(11) -0.5467(10) 0.3861(6)
O10 O -0.5848(11) -0.4032(10) 0.4010(6)
O11 O -0.5800(12) -0.2479(13) 0.2855(7)
O12 O -0.6318(12) -0.2665(13) 0.1787(7)
O13 O -0.5705(12) -0.3938(12) 0.0835(7)
O14 O -0.5624(12) -0.6419(12) 0.1586(7)
O15 O -0.5822(13) -0.7222(14) 0.3246(8)
O16 O -0.4430(11) -0.6025(11) 0.3995(6)
O17 O -0.4299(12) -0.3484(11) 0.3644(7)
O18 O -0.4342(12) -0.3165(12) 0.1914(6)
O19 O -0.5037(14) -0.2369(13) 0.0741(7)
O20 O -0.6269(14) -0.5399(15) 0.0435(7)
O21 O -0.6336(14) -0.7806(14) 0.2217(8)
O22 O -0.5243(12) -0.7444(12) 0.4413(7)
O23 O -0.4095(12) -0.4675(12) 0.4711(6)
O24 O -0.4022(14) -0.2074(13) 0.2795(7)
O25 O -0.3669(11) -0.4481(12) 0.0980(7)
O26 O -0.4255(12) -0.5957(12) 0.0811(7)
O27 O -0.4329(13) -0.7987(13) 0.2299(7)
O28 O -0.3793(13) -0.7788(12) 0.3394(7)
O29 O -0.2844(12) -0.5518(13) 0.3616(7)
O30 O -0.2820(12) -0.4194(13) 0.2665(7)
O31 O -0.3142(14) -0.7096(14) 0.1752(8)
O32 O -0.2605(13) -0.6890(13) 0.2803(7)
O33 O -0.2589(13) -0.5631(12) 0.1898(7)
O34 O -0.2071(13) -0.6516(13) 0.0711(7)
O35 O -0.2188(14) -0.8889(14) 0.2468(8)
O36 O -0.1086(12) -0.6118(13) 0.2741(7)
O37 O -0.6348(11) -0.4194(12) 0.2757(7)
O38 O -0.4861(12) -0.4930(12) 0.1808(7)
O39 O -0.4901(12) -0.6184(12) 0.2745(7)
O40 O -0.4323(12) -0.4726(12) 0.2889(7)
Cu1 Cu 0.0094(14) -0.0266(17) 0.7497(10)
Cu2 Cu -0.3255(3) -0.0802(3) 0.26958(12)
Cu3 Cu -0.2896(4) -0.0596(3) 0.76516(13)
Cu4 Cu 0.0852(3) -0.6588(3) 0.25764(12)
Cu5 Cu 0.1207(3) -0.6420(3) 0.75408(12)
Cl1 Cl -0.0862(9) -0.1528(7) 0.7492(4)
N1 N -0.0196(16) -0.9863(16) 0.3384(9)
C1 C 0.028(2) -1.077(2) 0.3700(13)
H1 H 0.0509 -1.1389 0.3493
C2 C 0.044(2) -1.083(2) 0.4305(12)
H2 H 0.0910 -1.1477 0.4474
C3 C -0.0063(17) -0.9979(18) 0.4663(9)
C4 C -0.067(2) -0.901(2) 0.4356(11)
H3 H -0.1033 -0.8392 0.4575
C5 C -0.072(2) -0.900(2) 0.3744(12)
H4 H -0.1144 -0.8364 0.3553
N2 N 0.0057(18) -0.9847(18) 0.1630(10)
C6 C 0.055(2) -1.082(2) 0.1327(12)
H5 H 0.0857 -1.1449 0.1556
C7 C 0.057(2) -1.085(2) 0.0708(12)
H6 H 0.0982 -1.1496 0.0520
C8 C 0.0029(18) -0.9980(18) 0.0328(9)
C9 C -0.052(2) -0.912(2) 0.0646(12)
H7 H -0.0961 -0.8515 0.0432
C10 C -0.049(2) -0.903(2) 0.1281(12)
H8 H -0.0880 -0.8373 0.1459
N3 N -0.3245(15) -0.0747(14) 0.3574(8)
C11 C -0.3569(17) -0.1280(17) 0.3975(10)
H9 H -0.3783 -0.1741 0.3832
C12 C -0.3614(18) -0.1201(17) 0.4604(10)
H10 H -0.3896 -0.1574 0.4873
C13 C -0.3250(15) -0.0582(14) 0.4844(8)
C14 C -0.288(2) -0.0069(19) 0.4410(11)
H11 H -0.2613 0.0366 0.4535
C15 C -0.2872(19) -0.0173(17) 0.3787(11)
H12 H -0.2589 0.0183 0.3505
N4 N -0.3176(17) -0.0429(16) 0.6783(9)
C16 C -0.3767(19) -0.0768(18) 0.6577(10)
H13 H -0.4166 -0.1006 0.6863
C17 C -0.385(2) -0.0800(19) 0.5961(11)
H14 H -0.4336 -0.1003 0.5846
C18 C -0.3247(18) -0.0552(17) 0.5522(10)
C19 C -0.258(3) -0.018(2) 0.5753(14)
H15 H -0.2186 0.0069 0.5472
C20 C -0.252(3) -0.017(3) 0.6372(16)
H16 H -0.2035 0.0016 0.6510
N5 N -0.3259(16) -0.0661(15) 0.1823(8)
C21 C -0.3818(19) -0.0965(19) 0.1530(10)
H17 H -0.4254 -0.1215 0.1770
C22 C -0.381(2) -0.0947(19) 0.0901(11)
H18 H -0.4214 -0.1211 0.0734
C23 C -0.3243(17) -0.0554(16) 0.0516(9)
C24 C -0.262(2) -0.025(2) 0.0809(14)
H19 H -0.2192 0.0015 0.0577
C25 C -0.265(2) -0.034(2) 0.1477(13)
H20 H -0.2204 -0.0158 0.1664
N6 N -0.3083(18) -0.0541(17) 0.8548(9)
C26 C -0.348(2) -0.107(2) 0.8890(13)
H21 H -0.3746 -0.1440 0.8698
C27 C -0.354(2) -0.112(2) 0.9543(11)
H22 H -0.3815 -0.1540 0.9765
C28 C -0.3214(17) -0.0570(16) -0.0153(10)
C29 C -0.279(2) 0.000(2) -0.0538(13)
H23 H -0.2526 0.0390 -0.0362
C30 C -0.274(2) -0.001(2) 0.8833(12)
H24 H -0.2451 0.0391 0.8595
N7 N 0.0910(15) -0.6425(15) 0.1692(8)
C31 C 0.028(2) -0.665(2) 0.1407(12)
H25 H -0.0229 -0.6801 0.1645
C32 C 0.034(2) -0.666(2) 0.0762(12)
H26 H -0.0119 -0.6834 0.0581
C33 C 0.1058(16) -0.6417(15) 0.0400(8)
C34 C 0.1678(18) -0.6120(18) 0.0685(10)
H27 H 0.2145 -0.5897 0.0454
C35 C 0.160(2) -0.616(2) 0.1330(12)
H28 H 0.2049 -0.5990 0.1521
N8 N 0.1217(15) -0.6492(15) 0.8412(8)
C36 C 0.055(2) -0.674(2) -0.1198(14)
H29 H 0.0090 -0.6929 -0.1366
C37 C 0.048(2) -0.672(2) -0.0562(13)
H30 H 0.0017 -0.6924 -0.0313
C38 C 0.1110(15) -0.6411(15) -0.0299(8)
C39 C 0.175(2) -0.6147(19) -0.0679(11)
H31 H 0.2194 -0.5932 -0.0516
C40 C 0.1795(19) -0.6175(19) -0.1327(11)
H32 H 0.2252 -0.5961 -0.1578
N9 N 0.0916(15) -0.6538(15) 0.3439(8)
C41 C 0.029(2) -0.677(2) 0.3858(14)
H33 H -0.0201 -0.6957 0.3720
C42 C 0.031(2) -0.677(2) 0.4496(12)
H34 H -0.0156 -0.6943 1.4766
C43 C 0.1000(15) -0.6513(16) 0.4733(9)
C44 C 0.158(2) -0.621(2) 0.4295(13)
H35 H 0.2020 -0.5961 0.4425
C45 C 0.157(2) -0.625(2) 0.3663(14)
H36 H 0.2029 -0.6076 0.3390
N10 N 0.1174(14) -0.6443(14) 0.6673(8)
C46 C 0.0601(19) -0.680(2) 0.6451(11)
H37 H 0.0201 -0.7041 0.6737
C47 C 0.0529(19) -0.6867(19) 0.5840(11)
H38 H 0.0126 -0.7171 0.5721
C48 C 0.1055(16) -0.6479(15) 0.5404(9)
C49 C 0.162(2) -0.604(2) 0.5628(12)
H39 H 0.1986 -0.5737 0.5360
C50 C 0.164(2) -0.605(2) 0.6253(13)
H40 H 0.2028 -0.5747 0.6393
W1_2 W -0.70577(9) -0.23552(8) 1.25816(4)
W2_2 W -0.78183(8) -0.42164(10) 1.23992(4)
W3_2 W -0.71099(7) -0.39897(8) 1.37992(3)
W4_2 W -0.49999(7) -0.33444(8) 1.12541(3)
W5_2 W -0.57806(7) -0.52129(8) 1.10606(3)
W6_2 W -0.58183(9) -0.69953(9) 1.23638(4)
W7_2 W -0.51331(7) -0.67619(7) 1.37706(3)
W8_2 W -0.43113(6) -0.47552(7) 1.39789(3)
W9_2 W -0.42756(8) -0.30979(8) 1.27704(4)
W10_2 W -0.31666(7) -0.59318(8) 1.12287(3)
W11_2 W -0.32323(8) -0.76987(8) 1.25359(4)
W12_2 W -0.24320(7) -0.56760(9) 1.27374(4)
Si1_2 Si -0.5088(5) -0.5003(5) 1.2534(2)
O1_2 O -0.7833(13) -0.1024(12) 1.2533(7)
O2_2 O -0.9043(13) -0.4037(15) 1.2259(8)
O3_2 O -0.7949(12) -0.3627(13) 1.4471(7)
O4_2 O -0.8097(15) -0.2754(15) 1.2347(8)
O5_2 O -0.8080(13) -0.4078(13) 1.3293(7)
O6_2 O -0.7518(13) -0.2596(13) 1.3446(7)
O7_2 O -0.7065(12) -0.4438(13) 1.1618(6)
O8_2 O -0.7084(13) -0.5690(13) 1.2529(7)
O9_2 O -0.6444(11) -0.5467(10) 1.3861(6)
O10_2 O -0.5848(11) -0.4032(10) 1.4010(6)
O11_2 O -0.5800(12) -0.2479(13) 1.2855(7)
O12_2 O -0.6318(12) -0.2665(13) 1.1787(7)
O13_2 O -0.5705(12) -0.3938(12) 1.0835(7)
O14_2 O -0.5624(12) -0.6419(12) 1.1586(7)
O15_2 O -0.5822(13) -0.7222(14) 1.3246(8)
O16_2 O -0.4430(11) -0.6025(11) 1.3995(6)
O17_2 O -0.4299(12) -0.3484(11) 1.3644(7)
O18_2 O -0.4342(12) -0.3165(12) 1.1914(6)
O19_2 O -0.5037(14) -0.2369(13) 1.0741(7)
O20_2 O -0.6269(14) -0.5399(15) 1.0435(7)
O21_2 O -0.6336(14) -0.7806(14) 1.2217(8)
O22_2 O -0.5243(12) -0.7444(12) 1.4413(7)
O23_2 O -0.4095(12) -0.4675(12) 1.4711(6)
O24_2 O -0.4022(14) -0.2074(13) 1.2795(7)
O25_2 O -0.3669(11) -0.4481(12) 1.0980(7)
O26_2 O -0.4255(12) -0.5957(12) 1.0811(7)
O27_2 O -0.4329(13) -0.7987(13) 1.2299(7)
O28_2 O -0.3793(13) -0.7788(12) 1.3394(7)
O29_2 O -0.2844(12) -0.5518(13) 1.3616(7)
O30_2 O -0.2820(12) -0.4194(13) 1.2665(7)
O31_2 O -0.3142(14) -0.7096(14) 1.1752(8)
O32_2 O -0.2605(13) -0.6890(13) 1.2803(7)
O33_2 O -0.2589(13) -0.5631(12) 1.1898(7)
O34_2 O -0.2071(13) -0.6516(13) 1.0711(7)
O35_2 O -0.2188(14) -0.8889(14) 1.2468(8)
O36_2 O -0.1086(12) -0.6118(13) 1.2741(7)
O37_2 O -0.6348(11) -0.4194(12) 1.2757(7)
O38_2 O -0.4861(12) -0.4930(12) 1.1808(7)
O39_2 O -0.4901(12) -0.6184(12) 1.2745(7)
O40_2 O -0.4323(12) -0.4726(12) 1.2889(7)
Cu1A Cu -0.0094(14) -0.9734(17) 0.2503(10)
Cu1_2 Cu 0.0094(14) -1.0266(17) -0.2503(10)
Cu1_3 Cu 0.0094(14) -1.0266(17) 0.7497(10)
Cu2_2 Cu -0.3255(3) -0.0802(3) 1.26958(12)
Cu2A Cu 0.3255(3) -0.9198(3) 0.73042(12)
Cu3_2 Cu -0.2896(4) -0.0596(3) -0.23484(13)
Cu3A Cu 0.2896(4) -0.9404(3) 0.23484(13)
Cu4A Cu -0.0852(3) -0.3412(3) 0.74236(12)
Cu4_2 Cu 0.0852(3) -0.6588(3) 1.25764(12)
Cu5_2 Cu 0.1207(3) -0.6420(3) -0.24592(12)
Cu5_3 Cu 0.1207(3) -0.6420(3) 1.75408(12)
Cl1A Cl 0.0862(9) -0.8472(7) 0.2508(4)
Cl1A_2 Cl 0.0862(9) -0.8472(7) 1.2508(4)
N1A N 0.0196(16) -0.0137(16) 0.6616(9)
N1A_2 N 0.0196(16) -1.0137(16) 0.6616(9)
C1A C -0.028(2) -0.923(2) 0.6300(13)
H1A H -0.0509 -0.8611 0.6507
C2A C -0.044(2) -0.917(2) 0.5695(12)
H2A H -0.0910 -0.8523 0.5526
C3A C 0.0063(17) -1.0021(18) 0.5337(9)
C4A C 0.067(2) -1.099(2) 0.5644(11)
H3A H 0.1033 -1.1608 0.5425
C5A C 0.072(2) -1.100(2) 0.6256(12)
H4A H 0.1144 -1.1636 0.6447
N2A N -0.0057(18) -0.0153(18) 0.8370(10)
N2A_2 N -0.0057(18) -1.0153(18) -0.1630(10)
C6A C -0.055(2) -0.918(2) -0.1327(12)
H5A H -0.0857 -0.8551 -0.1556
C7A C -0.057(2) -0.915(2) -0.0708(12)
H6A H -0.0982 -0.8504 -0.0520
C8A C -0.0029(18) -1.0020(18) -0.0328(9)
C9A C 0.052(2) -1.088(2) -0.0646(12)
H7A H 0.0961 -1.1485 -0.0432
C10A C 0.049(2) -1.097(2) -0.1281(12)
H8A H 0.0880 -1.1627 -0.1459
N3_2 N -0.3245(15) -0.0747(14) 1.3574(8)
N3A N 0.3245(15) -0.9253(14) 0.6426(8)
C11A C 0.3569(17) -0.8720(17) 0.6025(10)
H9A H 0.3783 -0.8259 0.6168
C12A C 0.3614(18) -0.8799(17) 0.5396(10)
H10A H 0.3896 -0.8426 0.5127
C13A C 0.3250(15) -0.9418(14) 0.5156(8)
C14A C 0.288(2) -0.9931(19) 0.5590(11)
H11A H 0.2613 -1.0366 0.5465
C15A C 0.2872(19) -0.9827(17) 0.6213(11)
H12A H 0.2589 -1.0183 0.6495
N4A N 0.3176(17) -0.9571(16) 0.3217(9)
C16A C 0.3767(19) -0.9232(18) 0.3423(10)
H13A H 0.4166 -0.8994 0.3137
C17A C 0.385(2) -0.9200(19) 0.4039(11)
H14A H 0.4336 -0.8997 0.4154
C18A C 0.3247(18) -0.9448(17) 0.4478(10)
C19A C 0.258(3) -0.982(2) 0.4247(14)
H15A H 0.2186 -1.0069 0.4528
C20A C 0.252(3) -0.983(3) 0.3628(16)
H16A H 0.2035 -1.0016 0.3490
N5_2 N -0.3259(16) -0.0661(15) 1.1823(8)
C21_2 C -0.3818(19) -0.0965(19) 1.1530(10)
H17_2 H -0.4254 -0.1215 1.1770
C22_2 C -0.381(2) -0.0947(19) 1.0901(11)
H18_2 H -0.4214 -0.1211 1.0734
C23_2 C -0.3243(17) -0.0554(16) 1.0516(9)
C24_2 C -0.262(2) -0.025(2) 1.0809(14)
H19_2 H -0.2192 0.0015 1.0577
C25_2 C -0.265(2) -0.034(2) 1.1477(13)
H20_2 H -0.2204 -0.0158 1.1664
N6_2 N -0.3083(18) -0.0541(17) -0.1452(9)
N6A N 0.3083(18) -0.9459(17) 0.1452(9)
C26_2 C -0.348(2) -0.107(2) -0.1110(13)
H21_2 H -0.3746 -0.1440 -0.1302
C27_2 C -0.354(2) -0.112(2) -0.0457(11)
H22_2 H -0.3815 -0.1540 -0.0235
C28_2 C -0.3214(17) -0.0570(16) 0.9847(10)
C29_2 C -0.279(2) 0.000(2) 0.9462(13)
H23_2 H -0.2526 0.0390 0.9638
C30_2 C -0.274(2) -0.001(2) -0.1167(12)
H24_2 H -0.2451 0.0391 -0.1405
N7_2 N 0.0910(15) -0.6425(15) 1.1692(8)
C31_2 C 0.028(2) -0.665(2) 1.1407(12)
H25_2 H -0.0229 -0.6801 1.1645
C32_2 C 0.034(2) -0.666(2) 1.0762(12)
H26_2 H -0.0119 -0.6834 1.0581
C33_2 C 0.1058(16) -0.6417(15) 1.0400(8)
C34_2 C 0.1678(18) -0.6120(18) 1.0685(10)
H27_2 H 0.2145 -0.5897 1.0454
C35_2 C 0.160(2) -0.616(2) 1.1330(12)
H28_2 H 0.2049 -0.5990 1.1521
N8_2 N 0.1217(15) -0.6492(15) -0.1588(8)
N8_3 N 0.1217(15) -0.6492(15) 1.8412(8)
C36_2 C 0.055(2) -0.674(2) 0.8802(14)
H29_2 H 0.0090 -0.6929 0.8634
C37_2 C 0.048(2) -0.672(2) 0.9438(13)
H30_2 H 0.0017 -0.6924 0.9687
C38_2 C 0.1110(15) -0.6411(15) 0.9701(8)
C39_2 C 0.175(2) -0.6147(19) 0.9321(11)
H31_2 H 0.2194 -0.5932 0.9484
C40_2 C 0.1795(19) -0.6175(19) 0.8673(11)
H32_2 H 0.2252 -0.5961 0.8422
N9_2 N 0.0916(15) -0.6538(15) 1.3439(8)
C41_2 C 0.029(2) -0.677(2) 1.3858(14)
H33_2 H -0.0201 -0.6957 1.3720
C42_2 C 0.031(2) -0.677(2) 1.4496(12)
H34_2 H -0.0156 -0.6943 0.4766
C43_2 C 0.1000(15) -0.6513(16) 1.4733(9)
C44_2 C 0.158(2) -0.621(2) 1.4295(13)
H35_2 H 0.2020 -0.5961 1.4425
C45_2 C 0.157(2) -0.625(2) 1.3663(14)
H36_2 H 0.2029 -0.6076 1.3390
N10_2 N 0.1174(14) -0.6443(14) 1.6673(8)
C46_2 C 0.0601(19) -0.680(2) 1.6451(11)
H37_2 H 0.0201 -0.7041 1.6737
C47_2 C 0.0529(19) -0.6867(19) 1.5840(11)
H38_2 H 0.0126 -0.7171 1.5721
C48_2 C 0.1055(16) -0.6479(15) 1.5404(9)
C49_2 C 0.162(2) -0.604(2) 1.5628(12)
H39_2 H 0.1986 -0.5737 1.5360
C50_2 C 0.164(2) -0.605(2) 1.6253(13)
H40_2 H 0.2028 -0.5747 1.6393
O41 O -0.686(3) -0.225(3) 0.4915(18)
O42 O -0.305(3) -0.782(3) 0.0072(17)
O43 O -0.092(3) -0.151(3) 0.2464(19)
Cu6? Cu -0.0258(9) -0.0333(12) 0.7515(7)
Cu7? Cu 0.045(2) 0.020(2) 0.7496(12)
loop_
_geom_bond_atom_site_label_1
_geom_bond_atom_site_label_2
_geom_bond_site_symmetry_1
_geom_bond_site_symmetry_2
W1 O1 1_555 1_555
W2 O2 1_555 1_555
W3 O3 1_555 1_555
W4 O12 1_555 1_555
W5 O7 1_555 1_555
W6 O8 1_555 1_555
W7 O9 1_555 1_555
W8 O10 1_555 1_555
W9 O11 1_555 1_555
W10 O25 1_555 1_555
W11 O27 1_555 1_555
W12 O29 1_555 1_555
Si1 O37 1_555 1_555
O4 W1 1_555 1_555
O5 W2 1_555 1_555
O6 W1 1_555 1_555
O7 W2 1_555 1_555
O8 W2 1_555 1_555
O9 W3 1_555 1_555
O10 W3 1_555 1_555
O11 W1 1_555 1_555
O12 W1 1_555 1_555
O13 W4 1_555 1_555
O14 W5 1_555 1_555
O15 W6 1_555 1_555
O16 W7 1_555 1_555
O17 W8 1_555 1_555
O18 W4 1_555 1_555
O19 W4 1_555 1_555
O20 W5 1_555 1_555
O21 W6 1_555 1_555
O22 W7 1_555 1_555
O23 W8 1_555 1_555
O24 W9 1_555 1_555
O25 W4 1_555 1_555
O26 W5 1_555 1_555
O27 W6 1_555 1_555
O28 W7 1_555 1_555
O29 W8 1_555 1_555
O30 W9 1_555 1_555
O31 W10 1_555 1_555
O32 W11 1_555 1_555
O33 W10 1_555 1_555
O34 W10 1_555 1_555
O35 W11 1_555 1_555
O36 W12 1_555 1_555
O37 W1 1_555 1_555
O38 W4 1_555 1_555
O39 W6 1_555 1_555
O40 W8 1_555 1_555
Cu1 Cl1 1_555 1_555
Cu2 O24 1_555 1_555
Cu3 Cl1 1_555 1_555
Cu4 O36 1_555 1_555
Cu5 N8 1_555 1_555
Cl1 Cu4A 1_555 1_555
N1 C1 1_555 1_555
C1 H1 1_555 1_555
C2 C1 1_555 1_555
H2 C2 1_555 1_555
C3 C2 1_555 1_555
C4 C3 1_555 1_555
H3 C4 1_555 1_555
C5 N1 1_555 1_555
H4 C5 1_555 1_555
N2 C6 1_555 1_555
C6 H5 1_555 1_555
C7 C6 1_555 1_555
H6 C7 1_555 1_555
C8 C7 1_555 1_555
C9 C8 1_555 1_555
H7 C9 1_555 1_555
C10 N2 1_555 1_555
H8 C10 1_555 1_555
N3 Cu2 1_555 1_555
C11 N3 1_555 1_555
H9 C11 1_555 1_555
C12 C11 1_555 1_555
H10 C12 1_555 1_555
C13 C12 1_555 1_555
C14 C13 1_555 1_555
H11 C14 1_555 1_555
C15 N3 1_555 1_555
H12 C15 1_555 1_555
N4 Cu3 1_555 1_555
C16 N4 1_555 1_555
H13 C16 1_555 1_555
C17 C16 1_555 1_555
H14 C17 1_555 1_555
C18 C13 1_555 1_555
C19 C18 1_555 1_555
H15 C19 1_555 1_555
C20 N4 1_555 1_555
H16 C20 1_555 1_555
N5 Cu2 1_555 1_555
C21 N5 1_555 1_555
H17 C21 1_555 1_555
C22 C21 1_555 1_555
H18 C22 1_555 1_555
C23 C22 1_555 1_555
C24 C23 1_555 1_555
H19 C24 1_555 1_555
C25 N5 1_555 1_555
H20 C25 1_555 1_555
N6 Cu3 1_555 1_555
C26 N6 1_555 1_555
H21 C26 1_555 1_555
C27 C26 1_555 1_555
H22 C27 1_555 1_555
C28 C23 1_555 1_555
C29 C28 1_555 1_555
H23 C29 1_555 1_555
C30 N6 1_555 1_555
H24 C30 1_555 1_555
N7 Cu4 1_555 1_555
C31 N7 1_555 1_555
H25 C31 1_555 1_555
C32 C31 1_555 1_555
H26 C32 1_555 1_555
C33 C32 1_555 1_555
C34 C33 1_555 1_555
H27 C34 1_555 1_555
C35 N7 1_555 1_555
H28 C35 1_555 1_555
N8 C36_2 1_555 1_555
C36 H29 1_555 1_555
C37 C36 1_555 1_555
H30 C37 1_555 1_555
C38 C33 1_555 1_555
C39 C38 1_555 1_555
H31 C39 1_555 1_555
C40 C39 1_555 1_555
H32 C40 1_555 1_555
N9 Cu4 1_555 1_555
C41 N9 1_555 1_555
H33 C41 1_555 1_555
C42 C41 1_555 1_555
H34 C42_2 1_555 1_555
C43 C42 1_555 1_555
C44 C43 1_555 1_555
H35 C44 1_555 1_555
C45 N9 1_555 1_555
H36 C45 1_555 1_555
N10 Cu5 1_555 1_555
C46 N10 1_555 1_555
H37 C46 1_555 1_555
C47 C46 1_555 1_555
H38 C47 1_555 1_555
C48 C43 1_555 1_555
C49 C48 1_555 1_555
H39 C49 1_555 1_555
C50 N10 1_555 1_555
H40 C50 1_555 1_555
W1_2 O1_2 1_555 1_555
W2_2 O2_2 1_555 1_555
W3_2 O3_2 1_555 1_555
W4_2 O12_2 1_555 1_555
W5_2 O7_2 1_555 1_555
W6_2 O8_2 1_555 1_555
W7_2 O9_2 1_555 1_555
W8_2 O10_2 1_555 1_555
W9_2 O11_2 1_555 1_555
W10_2 O25_2 1_555 1_555
W11_2 O27_2 1_555 1_555
W12_2 O29_2 1_555 1_555
Si1_2 O37_2 1_555 1_555
O4_2 W1_2 1_555 1_555
O5_2 W2_2 1_555 1_555
O6_2 W1_2 1_555 1_555
O7_2 W2_2 1_555 1_555
O8_2 W2_2 1_555 1_555
O9_2 W3_2 1_555 1_555
O10_2 W3_2 1_555 1_555
O11_2 W1_2 1_555 1_555
O12_2 W1_2 1_555 1_555
O13_2 W4_2 1_555 1_555
O14_2 W5_2 1_555 1_555
O15_2 W6_2 1_555 1_555
O16_2 W7_2 1_555 1_555
O17_2 W8_2 1_555 1_555
O18_2 W4_2 1_555 1_555
O19_2 W4_2 1_555 1_555
O20_2 W5_2 1_555 1_555
O21_2 W6_2 1_555 1_555
O22_2 W7_2 1_555 1_555
O23_2 W8_2 1_555 1_555
O24_2 W9_2 1_555 1_555
O25_2 W4_2 1_555 1_555
O26_2 W5_2 1_555 1_555
O27_2 W6_2 1_555 1_555
O28_2 W7_2 1_555 1_555
O29_2 W8_2 1_555 1_555
O30_2 W9_2 1_555 1_555
O31_2 W10_2 1_555 1_555
O32_2 W11_2 1_555 1_555
O33_2 W10_2 1_555 1_555
O34_2 W10_2 1_555 1_555
O35_2 W11_2 1_555 1_555
O36_2 W12_2 1_555 1_555
O37_2 W1_2 1_555 1_555
O38_2 W4_2 1_555 1_555
O39_2 W6_2 1_555 1_555
O40_2 W8_2 1_555 1_555
Cu1A N1 1_555 1_555
Cu1_2 N2A_2 1_555 1_555
Cu1_3 N1A_2 1_555 1_555
Cu2_2 O24_2 1_555 1_555
Cu2A N3A 1_555 1_555
Cu3_2 N6_2 1_555 1_555
Cu3A Cl1A 1_555 1_555
Cu4_2 O36_2 1_555 1_555
Cu5_2 N8_2 1_555 1_555
Cu5_3 N8_3 1_555 1_555
Cl1A Cu4 1_555 1_555
Cl1A_2 Cu4_2 1_555 1_555
N1A Cu1 1_555 1_555
N1A_2 C1A 1_555 1_555
C1A H1A 1_555 1_555
C2A C1A 1_555 1_555
H2A C2A 1_555 1_555
C3A C3 1_555 1_555
C4A C3A 1_555 1_555
H3A C4A 1_555 1_555
C5A N1A_2 1_555 1_555
H4A C5A 1_555 1_555
N2A Cu1 1_555 1_555
N2A_2 C6A 1_555 1_555
C6A H5A 1_555 1_555
C7A C6A 1_555 1_555
H6A C7A 1_555 1_555
C8A C8 1_555 1_555
C9A C8A 1_555 1_555
H7A C9A 1_555 1_555
C10A N2A_2 1_555 1_555
H8A C10A 1_555 1_555
N3_2 Cu2_2 1_555 1_555
N3A C11A 1_555 1_555
C11A H9A 1_555 1_555
C12A C11A 1_555 1_555
H10A C12A 1_555 1_555
C13A C12A 1_555 1_555
C14A C13A 1_555 1_555
H11A C14A 1_555 1_555
C15A N3A 1_555 1_555
H12A C15A 1_555 1_555
N4A Cu3A 1_555 1_555
C16A N4A 1_555 1_555
H13A C16A 1_555 1_555
C17A C16A 1_555 1_555
H14A C17A 1_555 1_555
C18A C13A 1_555 1_555
C19A C18A 1_555 1_555
H15A C19A 1_555 1_555
C20A N4A 1_555 1_555
H16A C20A 1_555 1_555
N5_2 Cu2_2 1_555 1_555
C21_2 N5_2 1_555 1_555
H17_2 C21_2 1_555 1_555
C22_2 C21_2 1_555 1_555
H18_2 C22_2 1_555 1_555
C23_2 C22_2 1_555 1_555
C24_2 C23_2 1_555 1_555
H19_2 C24_2 1_555 1_555
C25_2 N5_2 1_555 1_555
H20_2 C25_2 1_555 1_555
N6_2 C26_2 1_555 1_555
N6A Cu3A 1_555 1_555
C26_2 H21_2 1_555 1_555
C27_2 C28 1_555 1_555
H22_2 C27_2 1_555 1_555
C28_2 C27 1_555 1_555
C29_2 C30 1_555 1_555
H23_2 C29_2 1_555 1_555
C30_2 C29 1_555 1_555
H24_2 C30_2 1_555 1_555
N7_2 Cu4_2 1_555 1_555
C31_2 N7_2 1_555 1_555
H25_2 C31_2 1_555 1_555
C32_2 C31_2 1_555 1_555
H26_2 C32_2 1_555 1_555
C33_2 C32_2 1_555 1_555
C34_2 C33_2 1_555 1_555
H27_2 C34_2 1_555 1_555
C35_2 N7_2 1_555 1_555
H28_2 C35_2 1_555 1_555
N8_2 C36 1_555 1_555
C36_2 H29_2 1_555 1_555
C37_2 C36_2 1_555 1_555
H30_2 C37_2 1_555 1_555
C38_2 C33_2 1_555 1_555
C39_2 C38_2 1_555 1_555
H31_2 C39_2 1_555 1_555
C40_2 N8 1_555 1_555
H32_2 C40_2 1_555 1_555
N9_2 Cu4_2 1_555 1_555
C41_2 N9_2 1_555 1_555
H33_2 C41_2 1_555 1_555
C42_2 C41_2 1_555 1_555
H34_2 C42 1_555 1_555
C43_2 C42_2 1_555 1_555
C44_2 C43_2 1_555 1_555
H35_2 C44_2 1_555 1_555
C45_2 N9_2 1_555 1_555
H36_2 C45_2 1_555 1_555
N10_2 Cu5_3 1_555 1_555
C46_2 N10_2 1_555 1_555
H37_2 C46_2 1_555 1_555
C47_2 C46_2 1_555 1_555
H38_2 C47_2 1_555 1_555
C48_2 C43_2 1_555 1_555
C49_2 C48_2 1_555 1_555
H39_2 C49_2 1_555 1_555
C50_2 N10_2 1_555 1_555
H40_2 C50_2 1_555 1_555
W2 O4 1_555 1_555
W2 O37 1_555 1_555
W3 O5 1_555 1_555
W3 O6 1_555 1_555
W3 O37 1_555 1_555
W5 O13 1_555 1_555
W5 O38 1_555 1_555
W6 O14 1_555 1_555
W7 O15 1_555 1_555
W7 O39 1_555 1_555
W8 O16 1_555 1_555
W9 O17 1_555 1_555
W9 O18 1_555 1_555
W9 O40 1_555 1_555
W10 O26 1_555 1_555
W10 O38 1_555 1_555
W11 O28 1_555 1_555
W11 O31 1_555 1_555
W11 O39 1_555 1_555
W12 O30 1_555 1_555
W12 O32 1_555 1_555
W12 O33 1_555 1_555
W12 O40 1_555 1_555
Si1 O38 1_555 1_555
Si1 O39 1_555 1_555
Si1 O40 1_555 1_555
C4 C5 1_555 1_555
N2 Cu1A 1_555 1_555
C9 C10 1_555 1_555
C14 C15 1_555 1_555
C17 C18 1_555 1_555
C19 C20 1_555 1_555
C24 C25 1_555 1_555
C34 C35 1_555 1_555
C37 C38 1_555 1_555
C40 N8_2 1_555 1_555
C44 C45 1_555 1_555
C47 C48 1_555 1_555
C49 C50 1_555 1_555
W2_2 O4_2 1_555 1_555
W2_2 O37_2 1_555 1_555
W3_2 O5_2 1_555 1_555
W3_2 O6_2 1_555 1_555
W3_2 O37_2 1_555 1_555
W5_2 O13_2 1_555 1_555
W5_2 O38_2 1_555 1_555
W6_2 O14_2 1_555 1_555
W7_2 O15_2 1_555 1_555
W7_2 O39_2 1_555 1_555
W8_2 O16_2 1_555 1_555
W9_2 O17_2 1_555 1_555
W9_2 O18_2 1_555 1_555
W9_2 O40_2 1_555 1_555
W10_2 O26_2 1_555 1_555
W10_2 O38_2 1_555 1_555
W11_2 O28_2 1_555 1_555
W11_2 O31_2 1_555 1_555
W11_2 O39_2 1_555 1_555
W12_2 O30_2 1_555 1_555
W12_2 O32_2 1_555 1_555
W12_2 O33_2 1_555 1_555
W12_2 O40_2 1_555 1_555
Si1_2 O38_2 1_555 1_555
Si1_2 O39_2 1_555 1_555
Si1_2 O40_2 1_555 1_555
Cu1A Cl1A 1_555 1_555
C2A C3A 1_555 1_555
C4A C5A 1_555 1_555
C7A C8A 1_555 1_555
C9A C10A 1_555 1_555
C14A C15A 1_555 1_555
C17A C18A 1_555 1_555
C19A C20A 1_555 1_555
C23_2 C28_2 1_555 1_555
C24_2 C25_2 1_555 1_555
N6_2 C30_2 1_555 1_555
C26_2 C27_2 1_555 1_555
C28_2 C29_2 1_555 1_555
C34_2 C35_2 1_555 1_555
C37_2 C38_2 1_555 1_555
C39_2 C40_2 1_555 1_555
C44_2 C45_2 1_555 1_555
C47_2 C48_2 1_555 1_555
C49_2 C50_2 1_555 1_555

#END
