
#######################################################################
#
#                 Cambridge Crystallographic Data Centre
#                                CCDC 
#
#######################################################################
#
# If this CIF has been generated from an entry in the Cambridge 
# Structural Database, then it will include bibliographic, chemical, 
# crystal, experimental, refinement or atomic coordinate data resulting 
# from the CCDC's data processing and validation procedures.
#
#######################################################################

data_VEGWUB
_symmetry_cell_setting           triclinic
_symmetry_space_group_name_H-M   'P -1'
_symmetry_Int_Tables_number      2
_space_group_name_Hall           '-P 1'
loop_
_symmetry_equiv_pos_site_id
_symmetry_equiv_pos_as_xyz
1 x,y,z
2 -x,-y,-z
_cell_length_a                   8.9878(13)
_cell_length_b                   8.9936(13)
_cell_length_c                   9.906(2)
_cell_angle_alpha                100.295(3)
_cell_angle_beta                 109.135(2)
_cell_angle_gamma                110.215(2)
_cell_volume                     670.284
loop_
_atom_site_label
_atom_site_type_symbol
_atom_site_fract_x
_atom_site_fract_y
_atom_site_fract_z
Co1 Co 1.25683(7) 1.23820(7) 0.52282(6)
Co2 Co 1.0000 1.0000 0.0000
P1 P 1.27577(12) 0.96318(13) 0.30286(10)
P2 P 0.91194(12) 0.89285(12) 0.26377(10)
O1 O 1.3931(3) 0.8733(4) 0.2886(3)
H1 H 1.4639 0.8872 0.3766
O2 O 1.2257(3) 1.0194(4) 0.1686(3)
O3 O 1.3717(3) 1.1023(3) 0.4566(3)
O4 O 1.0036(3) 1.0722(3) 0.3748(3)
O5 O 0.7567(3) 0.7816(3) 0.2878(3)
O6 O 0.8498(3) 0.8823(3) 0.0995(3)
O7 O 1.1192(4) 0.7794(3) 0.4459(3)
H2 H 1.0788 0.8268 0.4972
O8 O 1.2726(4) 1.3948(4) 0.4000(3)
O9 O 1.4734(4) 1.5650(4) 0.3416(3)
O10 O 1.0156(4) 1.2320(4) 0.1205(3)
H3 H 0.9205 1.2142 0.1295
H4 H 1.1005 1.2731 0.2077
N1 N 0.5490(4) 0.3213(5) -0.0036(4)
H5 H 0.4557 0.2867 -0.0923
C1 C 1.0766(5) 0.8085(5) 0.3023(4)
C2 C 1.0168(5) 0.6402(5) 0.1807(4)
H6 H 1.1065 0.6030 0.2098
H7 H 1.0061 0.6593 0.0862
C3 C 0.8446(5) 0.5020(5) 0.1542(4)
C4 C 0.8283(5) 0.4254(5) 0.2620(5)
H8 H 0.9280 0.4608 0.3562
C5 C 0.6703(6) 0.2969(6) 0.2336(5)
H9 H 0.6589 0.2464 0.3093
C6 C 0.5300(6) 0.2467(6) 0.0975(5)
H10 H 0.4192 0.1579 0.0758
C7 C 0.6994(5) 0.4439(5) 0.0190(5)
H11 H 0.7064 0.4932 -0.0584
C8 C 1.4285(5) 1.4900(5) 0.4251(4)
Co1A Co 0.74317(7) 0.76180(7) -0.52282(6)
Co1_2 Co 1.25683(7) 1.23820(7) -0.47718(6)
Co1A_2 Co 0.74317(7) 0.76180(7) 0.47718(6)
Co1A_3 Co 1.74317(7) 1.76180(7) 0.47718(6)
P1A P 0.72423(12) 1.03682(13) -0.30286(10)
P2A P 1.08806(12) 1.10715(12) -0.26377(10)
O1A O 0.6069(3) 1.1267(4) -0.2886(3)
H1A H 0.5361 1.1128 -0.3766
O2A O 0.7743(3) 0.9806(4) -0.1686(3)
O3A O 0.6283(3) 0.8977(3) -0.4566(3)
O4A O 0.9964(3) 0.9278(3) -0.3748(3)
O5A O 1.2433(3) 1.2184(3) -0.2878(3)
O5_2 O 0.7567(3) 0.7816(3) -0.7122(3)
O5A_2 O 1.2433(3) 1.2184(3) 0.7122(3)
O6A O 1.1502(3) 1.1177(3) -0.0995(3)
O7A O 0.8808(4) 1.2206(3) -0.4459(3)
H2A H 0.9212 1.1732 -0.4972
O8A O 1.7274(4) 1.6052(4) 0.6000(3)
O8A_2 O 0.7274(4) 0.6052(4) -0.4000(3)
O9A O 1.5266(4) 1.4350(4) 0.6584(3)
O9_2 O 0.4734(4) 0.5650(4) -0.6584(3)
O10A O 0.9844(4) 0.7680(4) -0.1205(3)
H3A H 1.0795 0.7858 -0.1295
H4A H 0.8995 0.7269 -0.2077
N1A N 1.4510(4) 1.6787(5) 0.0036(4)
H5A H 1.5443 1.7133 0.0923
C1A C 0.9234(5) 1.1915(5) -0.3023(4)
C2A C 0.9832(5) 1.3598(5) -0.1807(4)
H6A H 0.8935 1.3970 -0.2098
H7A H 0.9939 1.3407 -0.0862
C3A C 1.1554(5) 1.4980(5) -0.1542(4)
C4A C 1.1717(5) 1.5746(5) -0.2620(5)
H8A H 1.0720 1.5392 -0.3562
C5A C 1.3297(6) 1.7031(6) -0.2336(5)
H9A H 1.3411 1.7536 -0.3093
C6A C 1.4700(6) 1.7533(6) -0.0975(5)
H10A H 1.5808 1.8421 -0.0758
C7A C 1.3006(5) 1.5561(5) -0.0190(5)
H11A H 1.2936 1.5068 0.0584
C8A C 1.5715(5) 1.5100(5) 0.5749(4)
loop_
_geom_bond_atom_site_label_1
_geom_bond_atom_site_label_2
_geom_bond_site_symmetry_1
_geom_bond_site_symmetry_2
Co1 O3 1_555 1_555
Co2 O2 1_555 1_555
P1 O1 1_555 1_555
P2 O4 1_555 1_555
O1 H1 1_555 1_555
O2 P1 1_555 1_555
O3 P1 1_555 1_555
O4 Co1 1_555 1_555
O5 P2 1_555 1_555
O6 Co2 1_555 1_555
O7 H2 1_555 1_555
O8 Co1 1_555 1_555
O9 C8 1_555 1_555
O10 Co2 1_555 1_555
H3 O10 1_555 1_555
H4 O10 1_555 1_555
N1 H5 1_555 1_555
C1 P1 1_555 1_555
C2 C1 1_555 1_555
H6 C2 1_555 1_555
H7 C2 1_555 1_555
C3 C2 1_555 1_555
C4 C3 1_555 1_555
H8 C4 1_555 1_555
C5 C4 1_555 1_555
H9 C5 1_555 1_555
C6 N1 1_555 1_555
H10 C6 1_555 1_555
C7 N1 1_555 1_555
H11 C7 1_555 1_555
C8 O8 1_555 1_555
Co1A O3A 1_555 1_555
Co1_2 O5A 1_555 1_555
Co1A_2 O5 1_555 1_555
Co1A_3 O9 1_555 1_555
P1A O1A 1_555 1_555
P2A O4A 1_555 1_555
O1A H1A 1_555 1_555
O2A Co2 1_555 1_555
O3A P1A 1_555 1_555
O4A Co1A 1_555 1_555
O5A P2A 1_555 1_555
O5_2 Co1A 1_555 1_555
O5A_2 Co1 1_555 1_555
O6A Co2 1_555 1_555
O7A H2A 1_555 1_555
O8A Co1A_3 1_555 1_555
O8A_2 Co1A 1_555 1_555
O9A Co1 1_555 1_555
O9_2 Co1A 1_555 1_555
O10A Co2 1_555 1_555
H3A O10A 1_555 1_555
H4A O10A 1_555 1_555
N1A H5A 1_555 1_555
C1A P1A 1_555 1_555
C2A C1A 1_555 1_555
H6A C2A 1_555 1_555
H7A C2A 1_555 1_555
C3A C2A 1_555 1_555
C4A C3A 1_555 1_555
H8A C4A 1_555 1_555
C5A C4A 1_555 1_555
H9A C5A 1_555 1_555
C6A N1A 1_555 1_555
H10A C6A 1_555 1_555
C7A N1A 1_555 1_555
H11A C7A 1_555 1_555
C8A C8 1_555 1_555
P2 O6 1_555 1_555
P2 C1 1_555 1_555
O7 C1 1_555 1_555
C3 C7 1_555 1_555
C5 C6 1_555 1_555
P1A O2A 1_555 1_555
P2A O6A 1_555 1_555
P2A C1A 1_555 1_555
O7A C1A 1_555 1_555
O8A C8A 1_555 1_555
O9A C8A 1_555 1_555
C3A C7A 1_555 1_555
C5A C6A 1_555 1_555

#END
