
#######################################################################
#
#                 Cambridge Crystallographic Data Centre
#                                CCDC 
#
#######################################################################
#
# If this CIF has been generated from an entry in the Cambridge 
# Structural Database, then it will include bibliographic, chemical, 
# crystal, experimental, refinement or atomic coordinate data resulting 
# from the CCDC's data processing and validation procedures.
#
#######################################################################

data_VEGWOU
_symmetry_cell_setting           orthorhombic
_symmetry_space_group_name_H-M   'P n n a'
_symmetry_Int_Tables_number      52
_space_group_name_Hall           '-P 2a 2bc'
loop_
_symmetry_equiv_pos_site_id
_symmetry_equiv_pos_as_xyz
1 x,y,z
2 1/2-x,-y,z
3 x,1/2-y,1/2-z
4 1/2-x,1/2+y,1/2-z
5 -x,-y,-z
6 1/2+x,y,-z
7 -x,1/2+y,1/2+z
8 1/2+x,1/2-y,1/2+z
_cell_length_a                   9.1781(11)
_cell_length_b                   14.1634(16)
_cell_length_c                   14.0439(19)
_cell_angle_alpha                90
_cell_angle_beta                 90
_cell_angle_gamma                90
_cell_volume                     1825.61
loop_
_atom_site_label
_atom_site_type_symbol
_atom_site_fract_x
_atom_site_fract_y
_atom_site_fract_z
Zn1 Zn 0.16030(7) 0.2500 0.2500
O2 O -0.0336(4) 0.3998(3) 0.2007(2)
O3 O 0.0419(3) 0.3321(2) 0.3339(2)
O4 O -0.1611(3) 0.4498(3) 0.6371(2)
N1 N 0.2839(4) 0.3069(3) 0.1456(2)
N2 N 0.4355(4) 0.3875(3) 0.0553(2)
N3 N -0.2500 0.5000 0.5952(4)
C1 C -0.0388(5) 0.3896(3) 0.2876(3)
C2 C -0.1470(4) 0.4456(3) 0.3440(3)
C3 C -0.1475(5) 0.4450(3) 0.4437(3)
H1 H -0.0796 0.4079 0.4785
C4 C -0.2500 0.5000 0.4902(4)
C5 C -0.2500 0.5000 0.2967(4)
H2 H -0.2500 0.5000 0.2290
C6 C 0.2845(6) 0.2689(3) 0.0550(3)
H3 H 0.2278 0.2163 0.0352
C7 C 0.3771(6) 0.3173(3) -0.0011(3)
H4 H 0.3980 0.3055 -0.0663
C8 C 0.5386(5) 0.4593(3) 0.0239(3)
H5 H 0.6087 0.4308 -0.0214
H6 H 0.5941 0.4830 0.0794
C9 C 0.3753(5) 0.3790(3) 0.1418(3)
H7 H 0.3956 0.4197 0.1939
Zn1A Zn -0.66030(7) 0.7500 0.2500
Zn1F Zn 0.83970(7) 0.7500 -0.2500
O2A O -0.4664(4) 0.6002(3) 0.2007(2)
O3A O -0.5419(3) 0.6679(2) 0.3339(2)
O3B O 0.0419(3) 0.1679(2) 0.1661(2)
O4A O -0.3389(3) 0.5502(3) 0.6371(2)
N1D N 0.7161(4) 0.6931(3) -0.1456(2)
N1B N 0.2839(4) 0.1931(3) 0.3544(2)
N2D N 0.5645(4) 0.6125(3) -0.0553(2)
C1A C -0.4612(5) 0.6104(3) 0.2876(3)
C2A C -0.3530(4) 0.5544(3) 0.3440(3)
C3A C -0.3525(5) 0.5550(3) 0.4437(3)
H1A H -0.4204 0.5921 0.4785
C6D C 0.7155(6) 0.7311(3) -0.0550(3)
H3D H 0.7722 0.7837 -0.0352
C7D C 0.6229(6) 0.6827(3) 0.0011(3)
H4D H 0.6020 0.6945 0.0663
C8D C 0.4614(5) 0.5407(3) -0.0239(3)
H5D H 0.3913 0.5692 0.0214
H6D H 0.4059 0.5170 -0.0794
C9D C 0.6247(5) 0.6210(3) -0.1418(3)
H7D H 0.6044 0.5803 -0.1939
O1 O 0.639(3) 0.2500 0.2500
loop_
_geom_bond_atom_site_label_1
_geom_bond_atom_site_label_2
_geom_bond_site_symmetry_1
_geom_bond_site_symmetry_2
Zn1 O3 1_555 1_555
O2 C1 1_555 1_555
O3 C1 1_555 1_555
O4 N3 1_555 1_555
N1 Zn1 1_555 1_555
N2 C7 1_555 1_555
N3 C4 1_555 1_555
C1 C2 1_555 1_555
C2 C3 1_555 1_555
C3 H1 1_555 1_555
C4 C3 1_555 1_555
C5 C2 1_555 1_555
H2 C5 1_555 1_555
C6 N1 1_555 1_555
H3 C6 1_555 1_555
C7 C6 1_555 1_555
H4 C7 1_555 1_555
C8 N2 1_555 1_555
H5 C8 1_555 1_555
H6 C8 1_555 1_555
C9 N1 1_555 1_555
H7 C9 1_555 1_555
Zn1A O3A 1_555 1_555
Zn1F N1D 1_555 1_555
O2A C1A 1_555 1_555
O3A C1A 1_555 1_555
O3B Zn1 1_555 1_555
O4A N3 1_555 1_555
N1D C6D 1_555 1_555
N1B Zn1 1_555 1_555
N2D C7D 1_555 1_555
C1A C2A 1_555 1_555
C2A C5 1_555 1_555
C3A C4 1_555 1_555
H1A C3A 1_555 1_555
C6D H3D 1_555 1_555
C7D C6D 1_555 1_555
H4D C7D 1_555 1_555
C8D C8 1_555 1_555
H5D C8D 1_555 1_555
H6D C8D 1_555 1_555
C9D N1D 1_555 1_555
H7D C9D 1_555 1_555
N2 C9 1_555 1_555
N2D C8D 1_555 1_555
N2D C9D 1_555 1_555
C2A C3A 1_555 1_555

#END
