
#######################################################################
#
#                 Cambridge Crystallographic Data Centre
#                                CCDC 
#
#######################################################################
#
# If this CIF has been generated from an entry in the Cambridge 
# Structural Database, then it will include bibliographic, chemical, 
# crystal, experimental, refinement or atomic coordinate data resulting 
# from the CCDC's data processing and validation procedures.
#
#######################################################################

data_VEGXAI
_symmetry_cell_setting           triclinic
_symmetry_space_group_name_H-M   'P -1'
_symmetry_Int_Tables_number      2
_space_group_name_Hall           '-P 1'
loop_
_symmetry_equiv_pos_site_id
_symmetry_equiv_pos_as_xyz
1 x,y,z
2 -x,-y,-z
_cell_length_a                   8.9851(11)
_cell_length_b                   9.0670(11)
_cell_length_c                   9.880(2)
_cell_angle_alpha                100.371(2)
_cell_angle_beta                 108.901(2)
_cell_angle_gamma                110.549(2)
_cell_volume                     672.715
loop_
_atom_site_label
_atom_site_type_symbol
_atom_site_fract_x
_atom_site_fract_y
_atom_site_fract_z
Zn1 Zn 1.25993(7) 1.23449(6) 0.52454(6)
Zn2 Zn 1.0000 1.0000 0.0000
P1 P 1.27652(14) 0.96371(14) 0.30230(12)
P2 P 0.91274(14) 0.89221(14) 0.26365(12)
O1 O 1.3940(4) 0.8754(4) 0.2874(4)
H1 H 1.4648 0.8893 0.3754
O2 O 1.2261(4) 1.0209(4) 0.1691(4)
O3 O 1.3724(4) 1.1011(4) 0.4567(3)
O4 O 1.0052(4) 1.0708(4) 0.3745(3)
O5 O 0.7574(4) 0.7798(4) 0.2885(3)
O6 O 0.8501(4) 0.8804(4) 0.0990(3)
O7 O 1.1199(4) 0.7807(4) 0.4461(4)
H2 H 1.0795 0.8281 0.4973
O8 O 1.2716(4) 1.3926(4) 0.4045(4)
O9 O 1.4674(5) 1.5636(4) 0.3414(4)
O10 O 1.0160(5) 1.2309(4) 0.1224(4)
H3 H 0.9208 1.2130 0.1315
H4 H 1.1009 1.2719 0.2097
N1 N 0.5488(5) 0.3231(5) -0.0031(5)
H5 H 0.4555 0.2885 -0.0918
C1 C 1.0767(6) 0.8085(6) 0.3016(5)
C2 C 1.0171(6) 0.6409(5) 0.1806(5)
H6 H 1.1068 0.6037 0.2097
H7 H 1.0064 0.6599 0.0861
C3 C 0.8468(6) 0.5032(6) 0.1547(5)
C4 C 0.8303(7) 0.4267(6) 0.2625(6)
H8 H 0.9300 0.4621 0.3567
C5 C 0.6709(7) 0.2999(7) 0.2354(6)
H9 H 0.6595 0.2493 0.3111
C6 C 0.5302(7) 0.2485(7) 0.0993(7)
H10 H 0.4194 0.1598 0.0776
C7 C 0.6999(6) 0.4459(6) 0.0193(5)
H11 H 0.7069 0.4952 -0.0580
C8 C 1.4250(6) 1.4882(5) 0.4256(5)
Zn1A Zn 0.74007(7) 0.76551(6) -0.52454(6)
Zn1_2 Zn 1.25993(7) 1.23449(6) -0.47546(6)
Zn1A_2 Zn 0.74007(7) 0.76551(6) 0.47546(6)
Zn1A_3 Zn 1.74007(7) 1.76551(6) 0.47546(6)
P1A P 0.72348(14) 1.03629(14) -0.30230(12)
P2A P 1.08726(14) 1.10779(14) -0.26365(12)
O1A O 0.6060(4) 1.1246(4) -0.2874(4)
H1A H 0.5352 1.1107 -0.3754
O2A O 0.7739(4) 0.9791(4) -0.1691(4)
O3A O 0.6276(4) 0.8989(4) -0.4567(3)
O4A O 0.9948(4) 0.9292(4) -0.3745(3)
O5A O 1.2426(4) 1.2202(4) -0.2885(3)
O5_2 O 0.7574(4) 0.7798(4) -0.7115(3)
O5A_2 O 1.2426(4) 1.2202(4) 0.7115(3)
O6A O 1.1499(4) 1.1196(4) -0.0990(3)
O7A O 0.8801(4) 1.2193(4) -0.4461(4)
H2A H 0.9205 1.1719 -0.4973
O8A O 1.7284(4) 1.6074(4) 0.5955(4)
O8A_2 O 0.7284(4) 0.6074(4) -0.4045(4)
O9A O 1.5326(5) 1.4364(4) 0.6586(4)
O9_2 O 0.4674(5) 0.5636(4) -0.6586(4)
O10A O 0.9840(5) 0.7691(4) -0.1224(4)
H3A H 1.0792 0.7870 -0.1315
H4A H 0.8991 0.7281 -0.2097
N1A N 1.4512(5) 1.6769(5) 0.0031(5)
H5A H 1.5445 1.7115 0.0918
C1A C 0.9233(6) 1.1915(6) -0.3016(5)
C2A C 0.9829(6) 1.3591(5) -0.1806(5)
H6A H 0.8932 1.3963 -0.2097
H7A H 0.9936 1.3401 -0.0861
C3A C 1.1532(6) 1.4968(6) -0.1547(5)
C4A C 1.1697(7) 1.5733(6) -0.2625(6)
H8A H 1.0700 1.5379 -0.3567
C5A C 1.3291(7) 1.7001(7) -0.2354(6)
H9A H 1.3405 1.7507 -0.3111
C6A C 1.4698(7) 1.7515(7) -0.0993(7)
H10A H 1.5806 1.8402 -0.0776
C7A C 1.3001(6) 1.5541(6) -0.0193(5)
H11A H 1.2931 1.5048 0.0580
C8A C 1.5750(6) 1.5118(5) 0.5744(5)
loop_
_geom_bond_atom_site_label_1
_geom_bond_atom_site_label_2
_geom_bond_site_symmetry_1
_geom_bond_site_symmetry_2
Zn1 O3 1_555 1_555
Zn2 O2 1_555 1_555
P1 O1 1_555 1_555
P2 O4 1_555 1_555
O1 H1 1_555 1_555
O2 P1 1_555 1_555
O3 P1 1_555 1_555
O4 Zn1 1_555 1_555
O5 P2 1_555 1_555
O6 Zn2 1_555 1_555
O7 H2 1_555 1_555
O8 Zn1 1_555 1_555
O9 C8 1_555 1_555
O10 Zn2 1_555 1_555
H3 O10 1_555 1_555
H4 O10 1_555 1_555
N1 H5 1_555 1_555
C1 P1 1_555 1_555
C2 C1 1_555 1_555
H6 C2 1_555 1_555
H7 C2 1_555 1_555
C3 C2 1_555 1_555
C4 C3 1_555 1_555
H8 C4 1_555 1_555
C5 C4 1_555 1_555
H9 C5 1_555 1_555
C6 N1 1_555 1_555
H10 C6 1_555 1_555
C7 N1 1_555 1_555
H11 C7 1_555 1_555
C8 O8 1_555 1_555
Zn1A O3A 1_555 1_555
Zn1_2 O5A 1_555 1_555
Zn1A_2 O5 1_555 1_555
Zn1A_3 O9 1_555 1_555
P1A O1A 1_555 1_555
P2A O4A 1_555 1_555
O1A H1A 1_555 1_555
O2A Zn2 1_555 1_555
O3A P1A 1_555 1_555
O4A Zn1A 1_555 1_555
O5A P2A 1_555 1_555
O5_2 Zn1A 1_555 1_555
O5A_2 Zn1 1_555 1_555
O6A Zn2 1_555 1_555
O7A H2A 1_555 1_555
O8A Zn1A_3 1_555 1_555
O8A_2 Zn1A 1_555 1_555
O9A Zn1 1_555 1_555
O9_2 Zn1A 1_555 1_555
O10A Zn2 1_555 1_555
H3A O10A 1_555 1_555
H4A O10A 1_555 1_555
N1A H5A 1_555 1_555
C1A P1A 1_555 1_555
C2A C1A 1_555 1_555
H6A C2A 1_555 1_555
H7A C2A 1_555 1_555
C3A C2A 1_555 1_555
C4A C3A 1_555 1_555
H8A C4A 1_555 1_555
C5A C4A 1_555 1_555
H9A C5A 1_555 1_555
C6A N1A 1_555 1_555
H10A C6A 1_555 1_555
C7A N1A 1_555 1_555
H11A C7A 1_555 1_555
C8A C8 1_555 1_555
P2 O6 1_555 1_555
P2 C1 1_555 1_555
O7 C1 1_555 1_555
C3 C7 1_555 1_555
C5 C6 1_555 1_555
P1A O2A 1_555 1_555
P2A O6A 1_555 1_555
P2A C1A 1_555 1_555
O7A C1A 1_555 1_555
O8A C8A 1_555 1_555
O9A C8A 1_555 1_555
C3A C7A 1_555 1_555
C5A C6A 1_555 1_555

#END
