
#######################################################################
#
#                 Cambridge Crystallographic Data Centre
#                                CCDC 
#
#######################################################################
#
# If this CIF has been generated from an entry in the Cambridge 
# Structural Database, then it will include bibliographic, chemical, 
# crystal, experimental, refinement or atomic coordinate data resulting 
# from the CCDC's data processing and validation procedures.
#
#######################################################################

data_VEGXEM
_symmetry_cell_setting           triclinic
_symmetry_space_group_name_H-M   'P -1'
_symmetry_Int_Tables_number      2
_space_group_name_Hall           '-P 1'
loop_
_symmetry_equiv_pos_site_id
_symmetry_equiv_pos_as_xyz
1 x,y,z
2 -x,-y,-z
_cell_length_a                   8.689(3)
_cell_length_b                   9.088(3)
_cell_length_c                   9.476(5)
_cell_angle_alpha                109.937(5)
_cell_angle_beta                 100.801(5)
_cell_angle_gamma                110.262(4)
_cell_volume                     619.047
loop_
_atom_site_label
_atom_site_type_symbol
_atom_site_fract_x
_atom_site_fract_y
_atom_site_fract_z
Cu1 Cu 1.26089(11) 0.75334(11) 1.02332(10)
Cu2 Cu 1.0000 0.5000 0.5000
P1 P 0.9548(2) 0.7750(2) 0.7953(2)
P2 P 0.8952(2) 0.4235(2) 0.7651(2)
O1 O 0.8578(6) 0.8879(6) 0.7809(6)
H1 H 0.8751 0.9602 0.8742
O2 O 1.1102(6) 0.8784(6) 0.9490(6)
O3 O 0.9904(7) 0.7098(6) 0.6424(6)
O4 O 0.7865(6) 0.2677(6) 0.7892(5)
O5 O 1.0844(6) 0.5165(5) 0.8765(5)
O6 O 0.8758(6) 0.3589(6) 0.5897(5)
O7 O 0.7801(7) 0.6307(6) 0.9575(6)
H2 H 0.7092 0.5406 0.9604
O8 O 1.4493(6) 0.9935(6) 1.1676(6)
O9 O 1.6187(6) 1.2204(6) 1.1356(6)
N1 N 0.3128(8) 0.0408(8) 0.4899(8)
H3 H 0.2878 -0.0512 0.4054
C1 C 0.8008(9) 0.5807(9) 0.8040(8)
C2 C 0.6240(9) 0.5141(9) 0.6754(9)
H4 H 0.6428 0.5005 0.5760
H5 H 0.5830 0.6018 0.7042
C3 C 0.4807(9) 0.3424(9) 0.6479(8)
C4 C 0.3903(11) 0.3329(10) 0.7515(10)
H6 H 0.4156 0.4331 0.8413
C5 C 0.2607(11) 0.1721(10) 0.7208(11)
H7 H 0.1962 0.1632 0.7919
C6 C 0.2243(11) 0.0259(10) 0.5873(10)
H8 H 0.1383 -0.0824 0.5656
C7 C 0.4398(9) 0.1927(9) 0.5168(9)
H9 H 0.5024 0.1969 0.4437
C8 C 1.5194(9) 1.0622(8) 1.0873(8)
Cu1A Cu 0.73911(11) 0.24666(11) -0.02332(10)
Cu1A_2 Cu 0.73911(11) 0.24666(11) 0.97668(10)
Cu1A_3 Cu 1.73911(11) 1.24666(11) 0.97668(10)
Cu1_2 Cu 1.26089(11) 0.75334(11) 0.02332(10)
P1A P 1.0452(2) 0.2250(2) 0.2047(2)
P2A P 1.1048(2) 0.5765(2) 0.2349(2)
O1A O 1.1422(6) 0.1121(6) 0.2191(6)
H1A H 1.1249 0.0398 0.1258
O2A O 0.8898(6) 0.1216(6) 0.0510(6)
O3A O 1.0096(7) 0.2902(6) 0.3576(6)
O4A O 1.2135(6) 0.7323(6) 0.2108(5)
O4A_2 O 1.2135(6) 0.7323(6) 1.2108(5)
O4_2 O 0.7865(6) 0.2677(6) -0.2108(5)
O5A O 0.9156(6) 0.4835(5) 0.1235(5)
O6A O 1.1242(6) 0.6411(6) 0.4103(5)
O7A O 1.2199(7) 0.3693(6) 0.0425(6)
H2A H 1.2908 0.4594 0.0396
O8A O 1.5507(6) 1.0065(6) 0.8324(6)
O8A_2 O 0.5507(6) 0.0065(6) -0.1676(6)
O9A O 1.3813(6) 0.7796(6) 0.8644(6)
O9_2 O 0.6187(6) 0.2204(6) 0.1356(6)
N1A N 1.6872(8) 0.9592(8) 0.5101(8)
H3A H 1.7122 1.0512 0.5946
C1A C 1.1992(9) 0.4193(9) 0.1960(8)
C2A C 1.3760(9) 0.4859(9) 0.3246(9)
H4A H 1.3572 0.4995 0.4240
H5A H 1.4170 0.3982 0.2958
C3A C 1.5193(9) 0.6576(9) 0.3521(8)
C4A C 1.6097(11) 0.6671(10) 0.2485(10)
H6A H 1.5844 0.5669 0.1587
C5A C 1.7393(11) 0.8279(10) 0.2792(11)
H7A H 1.8038 0.8368 0.2081
C6A C 1.7757(11) 0.9741(10) 0.4127(10)
H8A H 1.8617 1.0824 0.4344
C7A C 1.5602(9) 0.8073(9) 0.4832(9)
H9A H 1.4976 0.8031 0.5563
C8A C 1.4806(9) 0.9378(8) 0.9127(8)
loop_
_geom_bond_atom_site_label_1
_geom_bond_atom_site_label_2
_geom_bond_site_symmetry_1
_geom_bond_site_symmetry_2
Cu1 O2 1_555 1_555
Cu2 O3 1_555 1_555
P1 O1 1_555 1_555
P2 O4 1_555 1_555
O1 H1 1_555 1_555
O2 P1 1_555 1_555
O3 P1 1_555 1_555
O4 Cu1A_2 1_555 1_555
O5 Cu1 1_555 1_555
O6 Cu2 1_555 1_555
O7 H2 1_555 1_555
O8 Cu1 1_555 1_555
O9 C8 1_555 1_555
N1 H3 1_555 1_555
C1 P1 1_555 1_555
C2 C1 1_555 1_555
H4 C2 1_555 1_555
H5 C2 1_555 1_555
C3 C2 1_555 1_555
C4 C3 1_555 1_555
H6 C4 1_555 1_555
C5 C4 1_555 1_555
H7 C5 1_555 1_555
C6 N1 1_555 1_555
H8 C6 1_555 1_555
C7 N1 1_555 1_555
H9 C7 1_555 1_555
C8 O8 1_555 1_555
Cu1A O2A 1_555 1_555
Cu1A_3 O9 1_555 1_555
Cu1_2 O4A 1_555 1_555
P1A O1A 1_555 1_555
P2A O4A 1_555 1_555
O1A H1A 1_555 1_555
O2A P1A 1_555 1_555
O3A Cu2 1_555 1_555
O4A_2 Cu1 1_555 1_555
O4_2 Cu1A 1_555 1_555
O5A Cu1A 1_555 1_555
O6A Cu2 1_555 1_555
O7A H2A 1_555 1_555
O8A Cu1A_3 1_555 1_555
O8A_2 Cu1A 1_555 1_555
O9A Cu1 1_555 1_555
O9_2 Cu1A 1_555 1_555
N1A H3A 1_555 1_555
C1A P1A 1_555 1_555
C2A C1A 1_555 1_555
H4A C2A 1_555 1_555
H5A C2A 1_555 1_555
C3A C2A 1_555 1_555
C4A C3A 1_555 1_555
H6A C4A 1_555 1_555
C5A C4A 1_555 1_555
H7A C5A 1_555 1_555
C6A N1A 1_555 1_555
H8A C6A 1_555 1_555
C7A N1A 1_555 1_555
H9A C7A 1_555 1_555
C8A C8 1_555 1_555
P2 O5 1_555 1_555
P2 O6 1_555 1_555
P2 C1 1_555 1_555
O7 C1 1_555 1_555
C3 C7 1_555 1_555
C5 C6 1_555 1_555
P1A O3A 1_555 1_555
P2A O5A 1_555 1_555
P2A O6A 1_555 1_555
P2A C1A 1_555 1_555
O7A C1A 1_555 1_555
O8A C8A 1_555 1_555
O9A C8A 1_555 1_555
C3A C7A 1_555 1_555
C5A C6A 1_555 1_555

#END
