
#######################################################################
#
#                 Cambridge Crystallographic Data Centre
#                                CCDC 
#
#######################################################################
#
# If this CIF has been generated from an entry in the Cambridge 
# Structural Database, then it will include bibliographic, chemical, 
# crystal, experimental, refinement or atomic coordinate data resulting 
# from the CCDC's data processing and validation procedures.
#
#######################################################################

data_VEGXIP
_symmetry_cell_setting           monoclinic
_symmetry_space_group_name_H-M   'P 21/c'
_symmetry_Int_Tables_number      14
_space_group_name_Hall           '-P 2ybc'
loop_
_symmetry_equiv_pos_site_id
_symmetry_equiv_pos_as_xyz
1 x,y,z
2 -x,1/2+y,1/2-z
3 -x,-y,-z
4 x,1/2-y,1/2+z
_cell_length_a                   5.89520(10)
_cell_length_b                   17.0261(4)
_cell_length_c                   15.4362(4)
_cell_angle_alpha                90
_cell_angle_beta                 93.714(2)
_cell_angle_gamma                90
_cell_volume                     1546.11
loop_
_atom_site_label
_atom_site_type_symbol
_atom_site_fract_x
_atom_site_fract_y
_atom_site_fract_z
Hg1 Hg 0.50000 0.50000 0.50000
P1 P -0.00440(18) 0.57991(7) 0.36822(7)
O1 O 0.2423(5) 0.55807(19) 0.37916(19)
O2 O -0.1688(5) 0.5451(2) 0.4270(2)
N1 N 0.5084(6) 0.6095(2) 0.5746(2)
C1 C 0.3336(9) 0.6586(3) 0.5688(3)
H1 H 0.1999 0.6424 0.5388
C2 C 0.3407(12) 0.7319(4) 0.6048(4)
H2 H 0.2164 0.7655 0.5981
C3 C 0.5351(12) 0.7544(4) 0.6511(4)
H3 H 0.5443 0.8037 0.6772
C4 C 0.7148(11) 0.7046(4) 0.6589(4)
H4 H 0.8478 0.7189 0.6907
C5 C 0.6966(9) 0.6330(3) 0.6190(3)
H5 H 0.8212 0.5994 0.6231
C6 C -0.0227(7) 0.6857(3) 0.3734(3)
C7 C 0.1512(9) 0.7333(3) 0.3475(4)
H6 H 0.2827 0.7104 0.3289
C8 C 0.1329(12) 0.8142(4) 0.3487(4)
H7 H 0.2509 0.845 0.3304
C9 C -0.0576(14) 0.8491(4) 0.3766(5)
H8 H -0.0687 0.9036 0.3775
C10 C -0.2304(13) 0.8045(4) 0.4030(4)
H9 H -0.3595 0.8288 0.4219
C11 C -0.2173(10) 0.7224(4) 0.4021(4)
H10 H -0.3369 0.6923 0.4204
C12 C -0.1027(6) 0.5605(2) 0.2565(3)
C13 C 0.0310(7) 0.5801(3) 0.1891(3)
H11 H 0.1752 0.6007 0.2021
C14 C -0.0445(9) 0.5696(3) 0.1024(3)
H12 H 0.0473 0.5833 0.058
C15 C -0.2592(10) 0.5383(4) 0.0837(3)
H13 H -0.3129 0.5314 0.0262
C16 C -0.3925(10) 0.5176(3) 0.1492(4)
H14 H -0.5345 0.4953 0.1358
C17 C -0.3186(8) 0.5294(3) 0.2357(3)
H15 H -0.4129 0.5166 0.2796
Hg1_2 Hg -0.50000 0.50000 0.50000
Hg1_3 Hg 1.50000 0.50000 0.50000
P1B P 1.00440(18) 0.42009(7) 0.63178(7)
O1B O 0.7577(5) 0.44193(19) 0.62084(19)
O2B O 1.1688(5) 0.4549(2) 0.5730(2)
O2_2 O 0.8312(5) 0.5451(2) 0.4270(2)
O2B_2 O 0.1688(5) 0.4549(2) 0.5730(2)
N1B N 0.4916(6) 0.3905(2) 0.4254(2)
C1B C 0.6664(9) 0.3414(3) 0.4312(3)
H1B H 0.8001 0.3576 0.4612
C2B C 0.6593(12) 0.2681(4) 0.3952(4)
H2B H 0.7836 0.2345 0.4019
C3B C 0.4649(12) 0.2456(4) 0.3489(4)
H3B H 0.4557 0.1963 0.3228
C4B C 0.2852(11) 0.2954(4) 0.3411(4)
H4B H 0.1522 0.2811 0.3093
C5B C 0.3034(9) 0.3670(3) 0.3810(3)
H5B H 0.1788 0.4006 0.3769
C6B C 1.0227(7) 0.3143(3) 0.6266(3)
C7B C 0.8488(9) 0.2667(3) 0.6525(4)
H6B H 0.7173 0.2896 0.6711
C8B C 0.8671(12) 0.1858(4) 0.6513(4)
H7B H 0.7491 0.155 0.6696
C9B C 1.0576(14) 0.1509(4) 0.6234(5)
H8B H 1.0687 0.0964 0.6225
C10B C 1.2304(13) 0.1955(4) 0.5970(4)
H9B H 1.3595 0.1712 0.5781
C11B C 1.2173(10) 0.2776(4) 0.5979(4)
H10B H 1.3369 0.3077 0.5796
C12B C 1.1027(6) 0.4395(2) 0.7435(3)
C13B C 0.9690(7) 0.4199(3) 0.8109(3)
H11B H 0.8248 0.3993 0.7979
C14B C 1.0445(9) 0.4304(3) 0.8976(3)
H12B H 0.9527 0.4167 0.942
C15B C 1.2592(10) 0.4617(4) 0.9163(3)
H13B H 1.3129 0.4686 0.9738
C16B C 1.3925(10) 0.4824(3) 0.8508(4)
H14B H 1.5345 0.5047 0.8642
C17B C 1.3186(8) 0.4706(3) 0.7643(3)
H15B H 1.4129 0.4834 0.7204
loop_
_geom_bond_atom_site_label_1
_geom_bond_atom_site_label_2
_geom_bond_site_symmetry_1
_geom_bond_site_symmetry_2
Hg1 O1 1_555 1_555
P1 O1 1_555 1_555
O2 P1 1_555 1_555
N1 Hg1 1_555 1_555
C1 N1 1_555 1_555
H1 C1 1_555 1_555
C2 C1 1_555 1_555
H2 C2 1_555 1_555
C3 C2 1_555 1_555
H3 C3 1_555 1_555
C4 C3 1_555 1_555
H4 C4 1_555 1_555
C5 N1 1_555 1_555
H5 C5 1_555 1_555
C6 P1 1_555 1_555
C7 C6 1_555 1_555
H6 C7 1_555 1_555
C8 C7 1_555 1_555
H7 C8 1_555 1_555
C9 C8 1_555 1_555
H8 C9 1_555 1_555
C10 C9 1_555 1_555
H9 C10 1_555 1_555
C11 C6 1_555 1_555
H10 C11 1_555 1_555
C12 P1 1_555 1_555
C13 C12 1_555 1_555
H11 C13 1_555 1_555
C14 C13 1_555 1_555
H12 C14 1_555 1_555
C15 C14 1_555 1_555
H13 C15 1_555 1_555
C16 C15 1_555 1_555
H14 C16 1_555 1_555
C17 C12 1_555 1_555
H15 C17 1_555 1_555
Hg1_2 O2 1_555 1_555
Hg1_3 O2B 1_555 1_555
P1B O1B 1_555 1_555
O1B Hg1 1_555 1_555
O2B P1B 1_555 1_555
O2_2 Hg1 1_555 1_555
O2B_2 Hg1 1_555 1_555
N1B Hg1 1_555 1_555
C1B N1B 1_555 1_555
H1B C1B 1_555 1_555
C2B C1B 1_555 1_555
H2B C2B 1_555 1_555
C3B C2B 1_555 1_555
H3B C3B 1_555 1_555
C4B C3B 1_555 1_555
H4B C4B 1_555 1_555
C5B N1B 1_555 1_555
H5B C5B 1_555 1_555
C6B P1B 1_555 1_555
C7B C6B 1_555 1_555
H6B C7B 1_555 1_555
C8B C7B 1_555 1_555
H7B C8B 1_555 1_555
C9B C8B 1_555 1_555
H8B C9B 1_555 1_555
C10B C9B 1_555 1_555
H9B C10B 1_555 1_555
C11B C6B 1_555 1_555
H10B C11B 1_555 1_555
C12B P1B 1_555 1_555
C13B C12B 1_555 1_555
H11B C13B 1_555 1_555
C14B C13B 1_555 1_555
H12B C14B 1_555 1_555
C15B C14B 1_555 1_555
H13B C15B 1_555 1_555
C16B C15B 1_555 1_555
H14B C16B 1_555 1_555
C17B C12B 1_555 1_555
H15B C17B 1_555 1_555
C4 C5 1_555 1_555
C10 C11 1_555 1_555
C16 C17 1_555 1_555
C4B C5B 1_555 1_555
C10B C11B 1_555 1_555
C16B C17B 1_555 1_555

#END
