
#######################################################################
#
#                 Cambridge Crystallographic Data Centre
#                                CCDC 
#
#######################################################################
#
# If this CIF has been generated from an entry in the Cambridge 
# Structural Database, then it will include bibliographic, chemical, 
# crystal, experimental, refinement or atomic coordinate data resulting 
# from the CCDC's data processing and validation procedures.
#
#######################################################################

data_VEGYIR
_symmetry_cell_setting           monoclinic
_symmetry_space_group_name_H-M   'C 2/c'
_symmetry_Int_Tables_number      15
_space_group_name_Hall           '-C 2yn'
loop_
_symmetry_equiv_pos_site_id
_symmetry_equiv_pos_as_xyz
1 x,y,z
2 -x,y,1/2-z
3 1/2+x,1/2+y,z
4 1/2-x,1/2+y,1/2-z
5 -x,-y,-z
6 x,-y,1/2+z
7 1/2-x,1/2-y,-z
8 1/2+x,1/2-y,1/2+z
_cell_length_a                   31.9337(15)
_cell_length_b                   7.3362(3)
_cell_length_c                   22.4953(11)
_cell_angle_alpha                90
_cell_angle_beta                 95.275(2)
_cell_angle_gamma                90
_cell_volume                     5247.7
loop_
_atom_site_label
_atom_site_type_symbol
_atom_site_fract_x
_atom_site_fract_y
_atom_site_fract_z
Mn1 Mn -0.222835(14) -0.21556(6) 0.249706(19)
O1 O -0.17091(6) -0.4069(3) 0.25964(9)
O2 O -0.18730(7) -0.0486(3) 0.31615(10)
O3 O -0.23505(7) 0.1666(3) 0.31559(10)
O4 O -0.20150(8) 1.0511(3) 0.68446(11)
O5 O -0.24242(8) 0.8075(4) 0.68417(11)
O6 O -0.12344(7) -0.2534(3) 0.31908(12)
C1 C -0.09979(8) 0.5063(3) 0.52018(11)
C2 C -0.12965(8) 0.6176(4) 0.55626(11)
C3 C -0.03809(9) -0.7745(3) 0.26127(14)
C4 C -0.16398(10) 0.5281(4) 0.57696(13)
C5 C -0.17320(9) 0.2045(4) 0.38073(12)
C6 C -0.06882(10) 0.6265(4) 0.48929(14)
C7 C -0.12414(10) 0.8006(4) 0.57036(14)
C8 C -0.06227(9) -0.5049(4) 0.30817(14)
C9 C -0.10230(9) -0.5303(4) 0.28050(12)
C10 C -0.11049(10) -0.6853(4) 0.24604(15)
C11 C -0.20022(9) 0.1032(4) 0.33407(13)
C12 C -0.21147(10) 0.8929(5) 0.66802(14)
C13 C -0.13548(10) -0.3930(4) 0.28536(13)
C14 C 0.0000 -0.8962(5) 0.2500
C15 C -0.03052(10) -0.6245(4) 0.29860(14)
C16 C -0.19072(10) 0.6156(4) 0.61201(13)
C17 C -0.07871(10) -0.8072(4) 0.23728(15)
C18 C -0.18453(9) 0.7991(4) 0.62620(12)
C19 C -0.16087(10) 0.4714(4) 0.44121(13)
C20 C -0.15120(10) 0.8889(4) 0.60496(13)
C21 C -0.11299(11) 0.2243(4) 0.45267(16)
C22 C -0.07389(10) 0.3835(4) 0.56578(13)
C23 C -0.12482(9) 0.3947(3) 0.47064(12)
C24 C -0.13676(11) 0.1312(4) 0.40816(15)
C25 C -0.18459(10) 0.3784(4) 0.39703(13)
C26 C 0.00892(11) -1.0184(4) 0.30557(18)
F1 F -0.09706(6) 0.2500(2) 0.58542(9)
F2 F -0.05881(6) 0.4790(2) 0.61365(8)
F3 F -0.04085(6) 0.3054(2) 0.54433(9)
F4 F -0.04667(6) 0.5296(2) 0.45268(8)
F5 F -0.08892(7) 0.7547(2) 0.45553(8)
F6 F -0.04086(6) 0.7117(2) 0.52732(8)
F7 F 0.03561(7) -1.1550(2) 0.29676(11)
F8 F 0.02518(6) -0.9239(3) 0.35247(9)
F9 F -0.02652(7) -1.0939(3) 0.32163(11)
H1 H -0.1480(14) -0.167(6) 0.3215(18)
H2 H -0.1461(8) 1.010(4) 0.6176(11)
H3 H -0.1030(9) 0.868(4) 0.5582(13)
H4 H -0.1704(9) 0.400(4) 0.5687(13)
H5 H -0.2154(9) 0.549(4) 0.6270(13)
H6 H -0.2085(9) 0.433(4) 0.3779(12)
H7 H -0.1280(10) 0.003(4) 0.3996(14)
H8 H -0.0533(10) -0.404(5) 0.3330(14)
H9 H 0.0006(10) -0.611(4) 0.3177(13)
H10 H -0.0844(9) -0.914(4) 0.2149(13)
H11 H -0.1418(12) -0.704(5) 0.2307(17)
H12 H -0.0897(11) 0.167(4) 0.4748(15)
H13 H -0.1688(9) 0.594(4) 0.4510(12)
Mn1A Mn 0.222835(14) -0.21556(6) 0.250294(19)
Mn1C Mn -0.277165(14) 0.28444(6) 0.250294(19)
Mn1E Mn -0.222835(14) 1.21556(6) 0.749706(19)
Mn1F Mn -0.277165(14) 0.71556(6) 0.750294(19)
Mn1C_2 Mn -0.277165(14) -0.71556(6) 0.250294(19)
Mn1F_2 Mn -0.277165(14) 0.71556(6) -0.249706(19)
Mn1E_2 Mn -0.222835(14) 0.21556(6) -0.250294(19)
O1A O 0.17091(6) -0.4069(3) 0.24036(9)
O2C O -0.31270(7) -0.5486(3) 0.18385(10)
O2A O 0.18730(7) -0.0486(3) 0.18385(10)
O3C O -0.26495(7) -0.3334(3) 0.18441(10)
O3B O 0.26495(7) -0.3334(3) 0.31559(10)
O4C O -0.29850(8) 0.5511(3) -0.18446(11)
O4E O -0.20150(8) -0.0511(3) 0.18446(11)
O4D O 0.20150(8) -0.0511(3) 0.31554(11)
O5C O -0.25758(8) 0.3075(4) -0.18417(11)
O5F O -0.25758(8) -0.3075(4) 0.31583(11)
O5G O 0.25758(8) -0.3075(4) 0.18417(11)
O6A O 0.12344(7) -0.2534(3) 0.18092(12)
C1C C -0.40021(8) 0.0063(3) -0.02018(11)
C2C C -0.37035(8) 0.1176(4) -0.05626(11)
C3A C 0.03809(9) -0.7745(3) 0.23873(14)
C4C C -0.33602(10) 0.0281(4) -0.07696(13)
C5C C -0.32680(9) -0.2955(4) 0.11927(12)
C6C C -0.43118(10) 0.1265(4) 0.01071(14)
C7C C -0.37586(10) 0.3006(4) -0.07036(14)
C8A C 0.06227(9) -0.5049(4) 0.19183(14)
C9A C 0.10230(9) -0.5303(4) 0.21950(12)
C10A C 0.11049(10) -0.6853(4) 0.25396(15)
C11C C -0.29978(9) -0.3968(4) 0.16593(13)
C12C C -0.28853(10) 0.3929(5) -0.16802(14)
C13A C 0.13548(10) -0.3930(4) 0.21464(13)
C15A C 0.03052(10) -0.6245(4) 0.20140(14)
C16C C -0.30928(10) 0.1156(4) -0.11201(13)
C17A C 0.07871(10) -0.8072(4) 0.26272(15)
C18C C -0.31547(9) 0.2991(4) -0.12620(12)
C19C C -0.33913(10) -0.0286(4) 0.05879(13)
C20C C -0.34880(10) 0.3889(4) -0.10496(13)
C21C C -0.38701(11) -0.2757(4) 0.04733(16)
C22C C -0.42611(10) -0.1165(4) -0.06578(13)
C23C C -0.37518(9) -0.1053(3) 0.02936(12)
C24C C -0.36324(11) -0.3688(4) 0.09184(15)
C25C C -0.31541(10) -0.1216(4) 0.10297(13)
C26A C -0.00892(11) -1.0184(4) 0.19443(18)
F1C F -0.40294(6) -0.2500(2) -0.08542(9)
F2C F -0.44119(6) -0.0210(2) -0.11365(8)
F3C F -0.45915(6) -0.1946(2) -0.04433(9)
F4C F -0.45333(6) 0.0296(2) 0.04732(8)
F5C F -0.41108(7) 0.2547(2) 0.04447(8)
F6C F -0.45914(6) 0.2117(2) -0.02732(8)
F7A F -0.03561(7) -1.1550(2) 0.20324(11)
F8A F -0.02518(6) -0.9239(3) 0.14753(9)
F9A F 0.02652(7) -1.0939(3) 0.17837(11)
H1A H 0.1480(14) -0.167(6) 0.1785(18)
H2C H -0.3539(8) 0.510(4) -0.1176(11)
H3C H -0.3970(9) 0.368(4) -0.0582(13)
H4C H -0.3296(9) -0.100(4) -0.0687(13)
H5C H -0.2846(9) 0.049(4) -0.1270(13)
H6C H -0.2915(9) -0.067(4) 0.1221(12)
H7C H -0.3720(10) -0.497(4) 0.1004(14)
H8A H 0.0533(10) -0.404(5) 0.1670(14)
H9A H -0.0006(10) -0.611(4) 0.1823(13)
H10A H 0.0844(9) -0.914(4) 0.2851(13)
H11A H 0.1418(12) -0.704(5) 0.2693(17)
H12C H -0.4103(11) -0.333(4) 0.0252(15)
H13C H -0.3312(9) 0.094(4) 0.0490(12)
loop_
_geom_bond_atom_site_label_1
_geom_bond_atom_site_label_2
_geom_bond_site_symmetry_1
_geom_bond_site_symmetry_2
Mn1 O1 1_555 1_555
O1 C13 1_555 1_555
O2 Mn1 1_555 1_555
O3 C11 1_555 1_555
O4 C12 1_555 1_555
O5 C12 1_555 1_555
O6 C13 1_555 1_555
C1 C2 1_555 1_555
C2 C4 1_555 1_555
C3 C14 1_555 1_555
C4 C16 1_555 1_555
C5 C11 1_555 1_555
C6 C1 1_555 1_555
C7 C2 1_555 1_555
C8 C9 1_555 1_555
C9 C10 1_555 1_555
C10 C17 1_555 1_555
C11 O2 1_555 1_555
C12 C18 1_555 1_555
C13 C9 1_555 1_555
C14 C26 1_555 1_555
C15 C3 1_555 1_555
C16 C18 1_555 1_555
C17 C3 1_555 1_555
C18 C20 1_555 1_555
C19 C23 1_555 1_555
C20 C7 1_555 1_555
C21 C23 1_555 1_555
C22 C1 1_555 1_555
C23 C1 1_555 1_555
C24 C5 1_555 1_555
C25 C5 1_555 1_555
C26 F7 1_555 1_555
F1 C22 1_555 1_555
F2 C22 1_555 1_555
F3 C22 1_555 1_555
F4 C6 1_555 1_555
F5 C6 1_555 1_555
F6 C6 1_555 1_555
F8 C26 1_555 1_555
F9 C26 1_555 1_555
H1 O6 1_555 1_555
H2 C20 1_555 1_555
H3 C7 1_555 1_555
H4 C4 1_555 1_555
H5 C16 1_555 1_555
H6 C25 1_555 1_555
H7 C24 1_555 1_555
H8 C8 1_555 1_555
H9 C15 1_555 1_555
H10 C17 1_555 1_555
H11 C10 1_555 1_555
H12 C21 1_555 1_555
H13 C19 1_555 1_555
Mn1A O1A 1_555 1_555
Mn1C O3 1_555 1_555
Mn1E O4 1_555 1_555
Mn1F O5 1_555 1_555
Mn1C_2 O2C 1_555 1_555
Mn1F_2 O4C 1_555 1_555
Mn1E_2 O5C 1_555 1_555
O1A C13A 1_555 1_555
O2C C11C 1_555 1_555
O2A Mn1A 1_555 1_555
O3C Mn1 1_555 1_555
O3B Mn1A 1_555 1_555
O4C C12C 1_555 1_555
O4E Mn1 1_555 1_555
O4D Mn1A 1_555 1_555
O5C C12C 1_555 1_555
O5F Mn1 1_555 1_555
O5G Mn1A 1_555 1_555
O6A C13A 1_555 1_555
C1C C2C 1_555 1_555
C2C C4C 1_555 1_555
C3A C14 1_555 1_555
C4C C16C 1_555 1_555
C5C C11C 1_555 1_555
C6C C1C 1_555 1_555
C7C C2C 1_555 1_555
C8A C9A 1_555 1_555
C9A C10A 1_555 1_555
C10A C17A 1_555 1_555
C11C O3C 1_555 1_555
C12C C18C 1_555 1_555
C13A C9A 1_555 1_555
C15A C3A 1_555 1_555
C16C C18C 1_555 1_555
C17A C3A 1_555 1_555
C18C C20C 1_555 1_555
C19C C23C 1_555 1_555
C20C C7C 1_555 1_555
C21C C23C 1_555 1_555
C22C C1C 1_555 1_555
C23C C1C 1_555 1_555
C24C C5C 1_555 1_555
C25C C5C 1_555 1_555
C26A C14 1_555 1_555
F1C C22C 1_555 1_555
F2C C22C 1_555 1_555
F3C C22C 1_555 1_555
F4C C6C 1_555 1_555
F5C C6C 1_555 1_555
F6C C6C 1_555 1_555
F7A C26A 1_555 1_555
F8A C26A 1_555 1_555
F9A C26A 1_555 1_555
H1A O6A 1_555 1_555
H2C C20C 1_555 1_555
H3C C7C 1_555 1_555
H4C C4C 1_555 1_555
H5C C16C 1_555 1_555
H6C C25C 1_555 1_555
H7C C24C 1_555 1_555
H8A C8A 1_555 1_555
H9A C15A 1_555 1_555
H10A C17A 1_555 1_555
H11A C10A 1_555 1_555
H12C C21C 1_555 1_555
H13C C19C 1_555 1_555
C8 C15 1_555 1_555
C19 C25 1_555 1_555
C21 C24 1_555 1_555
C8A C15A 1_555 1_555
C19C C25C 1_555 1_555
C21C C24C 1_555 1_555

#END
