
#######################################################################
#
#                 Cambridge Crystallographic Data Centre
#                                CCDC 
#
#######################################################################
#
# If this CIF has been generated from an entry in the Cambridge 
# Structural Database, then it will include bibliographic, chemical, 
# crystal, experimental, refinement or atomic coordinate data resulting 
# from the CCDC's data processing and validation procedures.
#
#######################################################################

data_VEGZIS
_symmetry_cell_setting           monoclinic
_symmetry_space_group_name_H-M   'P 21/n'
_symmetry_Int_Tables_number      14
_space_group_name_Hall           '-P 2yn'
loop_
_symmetry_equiv_pos_site_id
_symmetry_equiv_pos_as_xyz
1 x,y,z
2 1/2-x,1/2+y,1/2-z
3 -x,-y,-z
4 1/2+x,1/2-y,1/2+z
_cell_length_a                   11.29900(10)
_cell_length_b                   15.7788(2)
_cell_length_c                   16.5709(2)
_cell_angle_alpha                90
_cell_angle_beta                 109.1390(10)
_cell_angle_gamma                90
_cell_volume                     2791.04
loop_
_atom_site_label
_atom_site_type_symbol
_atom_site_fract_x
_atom_site_fract_y
_atom_site_fract_z
Cd1 Cd 0.580011(19) 0.447281(12) 0.182768(13)
N1 N 0.7123(2) 0.53132(14) 0.13321(15)
N2 N 0.8109(2) 0.54916(15) -0.05382(14)
H1 H 0.7459 0.5234 -0.0867
N3 N 0.8933(3) 0.40593(16) -0.47603(15)
H2 H 0.9359 0.3718 -0.4368
N4 N 0.7377(2) 0.38369(14) -0.70866(15)
O1 O 0.9957(2) 0.60649(14) -0.05035(14)
O2 O 0.8169(3) 0.53779(15) -0.49854(16)
O3 O 0.40845(18) 0.54123(12) 0.15396(13)
O4 O 0.5630(2) 0.56134(13) 0.27278(13)
O5 O 0.0662(2) 0.85749(13) 0.29064(15)
O6 O 0.0451(2) 0.74612(13) 0.36703(15)
O7 O 0.5655(2) 0.36324(15) 0.06959(15)
C1 C 0.7947(3) 0.58154(19) 0.18926(19)
H3 H 0.7886 0.5886 0.2435
C2 C 0.8880(3) 0.62302(18) 0.16891(18)
H4 H 0.9437 0.6577 0.2091
C3 C 0.8993(3) 0.61340(18) 0.08944(18)
H5 H 0.9631 0.6405 0.0755
C4 C 0.8136(3) 0.56253(16) 0.03038(17)
C5 C 0.7216(3) 0.52316(17) 0.05541(17)
H6 H 0.6633 0.4893 0.0159
C6 C 0.8980(3) 0.57177(17) -0.08985(19)
C7 C 0.8611(3) 0.54854(19) -0.18322(18)
H7 H 0.7727 0.5606 -0.2103
H8 H 0.8730 0.4881 -0.1880
C8 C 0.9346(3) 0.5952(2) -0.2309(2)
H9 H 1.0213 0.5769 -0.2095
H10 H 0.9326 0.6554 -0.2197
C9 C 0.8833(4) 0.5801(2) -0.3267(2)
H11 H 0.7936 0.5897 -0.3461
H12 H 0.9202 0.6214 -0.3548
C10 C 0.9080(3) 0.4930(2) -0.35393(19)
H13 H 0.8645 0.4519 -0.3303
H14 H 0.9970 0.4812 -0.3302
C11 C 0.8671(3) 0.4816(2) -0.4497(2)
C12 C 0.8592(3) 0.37573(18) -0.56049(18)
C13 C 0.9113(3) 0.3005(2) -0.5755(2)
H15 H 0.9708 0.2725 -0.5311
C14 C 0.8742(4) 0.2676(2) -0.6570(2)
H16 H 0.9072 0.2165 -0.6679
C15 C 0.7885(3) 0.3105(2) -0.7218(2)
H17 H 0.7647 0.2882 -0.7768
C16 C 0.7726(3) 0.41534(19) -0.62897(19)
H18 H 0.7369 0.4659 -0.6196
C17 C 0.4530(3) 0.57596(17) 0.22613(18)
C18 C 0.3708(3) 0.63509(16) 0.25555(18)
C19 C 0.2790(3) 0.67860(18) 0.19435(19)
H19 H 0.2729 0.6732 0.1372
C20 C 0.1941(3) 0.73121(18) 0.21666(19)
H20 H 0.1327 0.7603 0.1743
C21 C 0.2014(2) 0.73982(16) 0.30085(18)
C22 C 0.0966(3) 0.78573(18) 0.32159(19)
C23 C 0.2991(3) 0.70008(16) 0.36615(17)
C24 C 0.3173(3) 0.7137(2) 0.4540(2)
H21 H 0.2639 0.7507 0.4690
C25 C 0.4099(3) 0.6747(2) 0.5171(2)
H22 H 0.4204 0.6861 0.5740
C26 C 0.4890(3) 0.6177(2) 0.4958(2)
H23 H 0.5506 0.5895 0.5387
C27 C 0.4764(3) 0.6030(2) 0.4117(2)
H24 H 0.5293 0.5641 0.3988
C28 C 0.3846(3) 0.64567(16) 0.34371(18)
H25 H 0.6375(13) 0.349(2) 0.0695(17)
H26 H 0.538(4) 0.3148(10) 0.0789(16)
Cd1_2 Cd 0.580011(19) 0.447281(12) -0.817232(13)
Cd1A Cd -0.080011(19) 0.947281(12) 0.317232(13)
N4_2 N 0.7377(2) 0.38369(14) 0.29134(15)
O5A O 0.4338(2) 0.35749(13) 0.20936(15)
O8 O 0.7497(3) 0.16580(17) 0.1170(2)
H27 H 0.718(4) 0.133(2) 0.0747(18)
H28 H 0.817(3) 0.142(3) 0.149(3)
O9 O 0.7754(3) 0.3165(2) 0.0386(2)
H29 H 0.843(3) 0.344(3) 0.059(4)
H30 H 0.784(5) 0.2655(13) 0.057(3)
loop_
_geom_bond_atom_site_label_1
_geom_bond_atom_site_label_2
_geom_bond_site_symmetry_1
_geom_bond_site_symmetry_2
Cd1 N1 1_555 1_555
N1 C1 1_555 1_555
N2 H1 1_555 1_555
N3 H2 1_555 1_555
N4 C15 1_555 1_555
O1 C6 1_555 1_555
O2 C11 1_555 1_555
O3 Cd1 1_555 1_555
O4 Cd1 1_555 1_555
O5 C22 1_555 1_555
O6 C22 1_555 1_555
O7 Cd1 1_555 1_555
C1 H3 1_555 1_555
C2 C1 1_555 1_555
H4 C2 1_555 1_555
C3 C2 1_555 1_555
H5 C3 1_555 1_555
C4 N2 1_555 1_555
C5 N1 1_555 1_555
H6 C5 1_555 1_555
C6 N2 1_555 1_555
C7 C6 1_555 1_555
H7 C7 1_555 1_555
H8 C7 1_555 1_555
C8 C7 1_555 1_555
H9 C8 1_555 1_555
H10 C8 1_555 1_555
C9 C8 1_555 1_555
H11 C9 1_555 1_555
H12 C9 1_555 1_555
C10 C9 1_555 1_555
H13 C10 1_555 1_555
H14 C10 1_555 1_555
C11 N3 1_555 1_555
C12 N3 1_555 1_555
C13 C12 1_555 1_555
H15 C13 1_555 1_555
C14 C13 1_555 1_555
H16 C14 1_555 1_555
C15 C14 1_555 1_555
H17 C15 1_555 1_555
C16 N4 1_555 1_555
H18 C16 1_555 1_555
C17 O3 1_555 1_555
C18 C17 1_555 1_555
C19 C18 1_555 1_555
H19 C19 1_555 1_555
C20 C19 1_555 1_555
H20 C20 1_555 1_555
C21 C20 1_555 1_555
C22 C21 1_555 1_555
C23 C21 1_555 1_555
C24 C23 1_555 1_555
H21 C24 1_555 1_555
C25 C24 1_555 1_555
H22 C25 1_555 1_555
C26 C25 1_555 1_555
H23 C26 1_555 1_555
C27 C26 1_555 1_555
H24 C27 1_555 1_555
C28 C18 1_555 1_555
O8 H27 1_555 1_555
O9 H29 1_555 1_555
H25 O7 1_555 1_555
H26 O7 1_555 1_555
H28 O8 1_555 1_555
H30 O9 1_555 1_555
Cd1_2 N4 1_555 1_555
Cd1A O5 1_555 1_555
N4_2 Cd1 1_555 1_555
O5A Cd1 1_555 1_555
O4 C17 1_555 1_555
C3 C4 1_555 1_555
C4 C5 1_555 1_555
C10 C11 1_555 1_555
C12 C16 1_555 1_555
C23 C28 1_555 1_555
C27 C28 1_555 1_555

#END
