
#######################################################################
#
#                 Cambridge Crystallographic Data Centre
#                                CCDC 
#
#######################################################################
#
# If this CIF has been generated from an entry in the Cambridge 
# Structural Database, then it will include bibliographic, chemical, 
# crystal, experimental, refinement or atomic coordinate data resulting 
# from the CCDC's data processing and validation procedures.
#
#######################################################################

data_VEGZAK
_symmetry_cell_setting           monoclinic
_symmetry_space_group_name_H-M   'P 21/c'
_symmetry_Int_Tables_number      14
_space_group_name_Hall           '-P 2ybc'
loop_
_symmetry_equiv_pos_site_id
_symmetry_equiv_pos_as_xyz
1 x,y,z
2 -x,1/2+y,1/2-z
3 -x,-y,-z
4 x,1/2-y,1/2+z
_cell_length_a                   12.230(2)
_cell_length_b                   14.6964(15)
_cell_length_c                   18.117(3)
_cell_angle_alpha                90
_cell_angle_beta                 94.946(14)
_cell_angle_gamma                90
_cell_volume                     3244.17
loop_
_atom_site_label
_atom_site_type_symbol
_atom_site_fract_x
_atom_site_fract_y
_atom_site_fract_z
Cd1 Cd 0.37774(3) 0.49788(3) 0.24069(2)
O1 O 0.7735(4) 0.2579(3) 0.0308(2)
O2 O 1.2464(3) 0.2463(3) -0.0039(2)
O3 O 0.3554(4) 0.3474(2) 0.2820(2)
O4 O 0.2487(3) 0.3963(2) 0.1881(2)
O5 O 0.0589(3) -0.0020(3) 0.2171(3)
O6 O 0.3508(4) -0.3552(2) 0.1927(2)
O7 O 0.2497(3) -0.3991(2) 0.2795(2)
N1 N 0.5012(4) 0.4673(3) 0.1557(3)
N2 N 0.7509(4) 0.4100(3) 0.0191(2)
H1 H 0.7748 0.4574 -0.0023
N3 N 1.5049(4) 0.0304(3) 0.1583(3)
N4 N 1.2631(3) 0.0935(3) -0.0122(2)
H2 H 1.2390 0.0468 -0.0372
C1 C 0.5445(5) 0.3845(4) 0.1534(4)
H3 H 0.5194 0.3404 0.1846
C2 C 0.6226(5) 0.3598(4) 0.1086(3)
H4 H 0.6476 0.3001 0.1081
C3 C 0.6649(4) 0.4250(4) 0.0634(3)
C4 C 0.6198(5) 0.5116(3) 0.0656(3)
H5 H 0.6446 0.5575 0.0360
C5 C 0.5398(5) 0.5293(4) 0.1107(3)
H6 H 0.5103 0.5877 0.1104
C6 C 0.8027(5) 0.3293(4) 0.0053(3)
C7 C 0.8956(5) 0.3381(4) -0.0423(3)
H7 H 0.9393 0.3908 -0.0265
H8 H 0.8665 0.3481 -0.0931
C8 C 0.9700(4) 0.2531(4) -0.0390(3)
H9 H 1.0108 0.2503 0.0093
H10 H 0.9243 0.1991 -0.0446
C9 C 1.4645(5) -0.0303(3) 0.1085(3)
H11 H 1.4914 -0.0895 0.1124
C10 C 1.3861(4) -0.0115(3) 0.0521(3)
H12 H 1.3600 -0.0572 0.0198
C11 C 1.3458(4) 0.0767(3) 0.0434(3)
C12 C 1.3906(5) 0.1415(4) 0.0926(3)
H13 H 1.3695 0.2022 0.0879
C13 C 1.4663(5) 0.1147(4) 0.1483(3)
H14 H 1.4931 0.1589 0.1819
C14 C 1.2150(5) 0.1746(4) -0.0324(3)
C15 C 1.1253(5) 0.1692(4) -0.0937(3)
H15 H 1.0815 0.1153 -0.0868
H16 H 1.1578 0.1627 -0.1404
C16 C 1.0501(4) 0.2525(4) -0.0981(3)
H17 H 1.0948 0.3071 -0.0932
H18 H 1.0093 0.2541 -0.1464
C17 C 0.2792(5) 0.3342(3) 0.2329(3)
C18 C 0.2235(4) 0.2438(3) 0.2264(3)
C19 C 0.2554(5) 0.1756(4) 0.2766(3)
H19 H 0.3127 0.1862 0.3127
C20 C 0.2030(5) 0.0918(4) 0.2739(3)
H20 H 0.2240 0.0463 0.3079
C21 C 0.1190(5) 0.0780(3) 0.2194(3)
C22 C 0.0884(4) 0.1434(4) 0.1679(3)
H21 H 0.0330 0.1317 0.1306
C23 C 0.1406(4) 0.2271(3) 0.1718(3)
H22 H 0.1195 0.2722 0.1374
C24 C 0.1177(5) -0.0831(3) 0.2241(3)
C25 C 0.2025(5) -0.0996(4) 0.1804(4)
H23 H 0.2246 -0.0548 0.1486
C26 C 0.2538(5) -0.1824(3) 0.1842(3)
H24 H 0.3098 -0.1941 0.1540
C27 C 0.2234(4) -0.2486(3) 0.2324(3)
C28 C 0.1384(5) -0.2305(4) 0.2760(3)
H25 H 0.1166 -0.2747 0.3084
C29 C 0.0861(5) -0.1475(4) 0.2717(3)
H26 H 0.0293 -0.1356 0.3012
C30 C 0.2771(4) -0.3392(4) 0.2349(3)
Cd1_2 Cd 0.37774(3) -0.50212(3) 0.24069(2)
Cd1A Cd 1.62226(3) -0.00212(3) 0.25931(2)
O6_2 O 0.3508(4) 0.6448(2) 0.1927(2)
O7_2 O 0.2497(3) 0.6009(2) 0.2795(2)
N3A N 0.4951(4) 0.5304(3) 0.3417(3)
C30_2 C 0.2771(4) 0.6608(4) 0.2349(3)
O8 O 0.1710(5) 0.4229(3) 0.0419(3)
H27 H 0.197(8) 0.416(6) 0.088(5)
H28 H 0.190(5) 0.377(4) 0.020(3)
O9 O 0.1814(5) -0.4250(3) 0.4200(3)
H29 H 0.178(6) -0.378(5) 0.439(4)
H30 H 0.211(8) -0.437(6) 0.371(5)
loop_
_geom_bond_atom_site_label_1
_geom_bond_atom_site_label_2
_geom_bond_site_symmetry_1
_geom_bond_site_symmetry_2
Cd1 O3 1_555 1_555
O1 C6 1_555 1_555
O2 C14 1_555 1_555
O3 C17 1_555 1_555
O4 Cd1 1_555 1_555
O5 C21 1_555 1_555
O6 C30 1_555 1_555
O7 C30 1_555 1_555
N1 Cd1 1_555 1_555
N2 H1 1_555 1_555
N3 C9 1_555 1_555
N4 H2 1_555 1_555
C1 N1 1_555 1_555
H3 C1 1_555 1_555
C2 C1 1_555 1_555
H4 C2 1_555 1_555
C3 N2 1_555 1_555
C4 C3 1_555 1_555
H5 C4 1_555 1_555
C5 N1 1_555 1_555
H6 C5 1_555 1_555
C6 N2 1_555 1_555
C7 C6 1_555 1_555
H7 C7 1_555 1_555
H8 C7 1_555 1_555
C8 C7 1_555 1_555
H9 C8 1_555 1_555
H10 C8 1_555 1_555
C9 H11 1_555 1_555
C10 C9 1_555 1_555
H12 C10 1_555 1_555
C11 N4 1_555 1_555
C12 C11 1_555 1_555
H13 C12 1_555 1_555
C13 N3 1_555 1_555
H14 C13 1_555 1_555
C14 N4 1_555 1_555
C15 C14 1_555 1_555
H15 C15 1_555 1_555
H16 C15 1_555 1_555
C16 C8 1_555 1_555
H17 C16 1_555 1_555
H18 C16 1_555 1_555
C17 O4 1_555 1_555
C18 C17 1_555 1_555
C19 C18 1_555 1_555
H19 C19 1_555 1_555
C20 C19 1_555 1_555
H20 C20 1_555 1_555
C21 C20 1_555 1_555
C22 C21 1_555 1_555
H21 C22 1_555 1_555
C23 C18 1_555 1_555
H22 C23 1_555 1_555
C24 O5 1_555 1_555
C25 C24 1_555 1_555
H23 C25 1_555 1_555
C26 C25 1_555 1_555
H24 C26 1_555 1_555
C27 C26 1_555 1_555
C28 C27 1_555 1_555
H25 C28 1_555 1_555
C29 C24 1_555 1_555
H26 C29 1_555 1_555
C30 C27 1_555 1_555
O8 H27 1_555 1_555
O9 H29 1_555 1_555
H28 O8 1_555 1_555
H30 O9 1_555 1_555
Cd1_2 O6 1_555 1_555
Cd1A N3 1_555 1_555
O6_2 Cd1 1_555 1_555
O7_2 Cd1 1_555 1_555
N3A Cd1 1_555 1_555
C30_2 O6_2 1_555 1_555
O7 Cd1_2 1_555 1_555
C2 C3 1_555 1_555
C4 C5 1_555 1_555
C10 C11 1_555 1_555
C12 C13 1_555 1_555
C15 C16 1_555 1_555
C22 C23 1_555 1_555
C28 C29 1_555 1_555
O7_2 C30_2 1_555 1_555

#END
