
#######################################################################
#
#                 Cambridge Crystallographic Data Centre
#                                CCDC 
#
#######################################################################
#
# If this CIF has been generated from an entry in the Cambridge 
# Structural Database, then it will include bibliographic, chemical, 
# crystal, experimental, refinement or atomic coordinate data resulting 
# from the CCDC's data processing and validation procedures.
#
#######################################################################

data_VEHHOG01
_symmetry_cell_setting           triclinic
_symmetry_space_group_name_H-M   'P -1'
_symmetry_Int_Tables_number      2
_space_group_name_Hall           '-P 1'
loop_
_symmetry_equiv_pos_site_id
_symmetry_equiv_pos_as_xyz
1 x,y,z
2 -x,-y,-z
_cell_length_a                   6.9260(3)
_cell_length_b                   8.0610(3)
_cell_length_c                   13.9690(6)
_cell_angle_alpha                73.533(2)
_cell_angle_beta                 89.662(2)
_cell_angle_gamma                81.120(2)
_cell_volume                     738.353
loop_
_atom_site_label
_atom_site_type_symbol
_atom_site_fract_x
_atom_site_fract_y
_atom_site_fract_z
Cu1 Cu 0.56551(11) 0.52212(10) 0.08319(6)
Fe1 Fe 1.0000 1.0000 0.0000
N1 N 0.8160(8) 0.8108(7) 0.0616(4)
N2 N 0.7839(8) 1.1978(7) 0.0333(4)
C1 C 0.7211(10) 0.7035(8) 0.0788(5)
N3 N 0.8603(8) 1.0489(7) -0.1517(4)
N4 N 0.3585(8) 0.4637(7) 0.1910(4)
C2 C 0.6818(9) 1.3147(8) 0.0440(4)
C3 C 0.0459(10) 0.3790(9) 0.2325(5)
H1 H -0.0662 0.3453 0.2126
C4 C 0.1939(10) 0.4139(9) 0.1677(5)
H2 H 0.1789 0.4023 0.1040
C5 C 0.3795(10) 0.4757(10) 0.2850(5)
H3 H 0.4949 0.5054 0.3041
C6 C 0.2370(12) 0.4457(11) 0.3522(6)
C7 C 0.9795(12) 1.0603(10) -0.2246(5)
H4 H 1.1112 1.0601 -0.2119
C8 C 0.6733(11) 1.0475(10) -0.1696(6)
H5 H 0.5888 1.0371 -0.1170
C9 C 0.0657(11) 0.3945(11) 0.3266(6)
H6 H -0.0320 0.3717 0.3722
C10 C 0.9149(13) 1.0733(11) -0.3227(6)
C11 C 0.2617(13) 0.4599(14) 0.4537(7)
N5 N 0.2819(13) 0.4809(17) 0.5285(6)
C12 C 0.7237(14) 1.0690(13) -0.3402(7)
H7 H 0.6775 1.0715 -0.4030
C13 C 0.6002(13) 1.0607(14) -0.2622(7)
H8 H 0.4670 1.0641 -0.2727
C14 C 1.0610(16) 1.0691(16) -0.3933(7)
N6 N 1.1899(17) 1.0666(18) -0.4478(7)
Cu1A Cu 1.43449(11) 1.47788(10) -0.08319(6)
Cu1_2 Cu 0.56551(11) 1.52212(10) 0.08319(6)
Cu1A_2 Cu 0.43449(11) 1.47788(10) -0.08319(6)
Cu1_3 Cu 1.56551(11) 0.52212(10) 0.08319(6)
Cu1A_3 Cu 1.43449(11) 0.47788(10) -0.08319(6)
N1A N 1.1840(8) 1.1892(7) -0.0616(4)
N2A N 1.2161(8) 0.8022(7) -0.0333(4)
C1A C 1.2789(10) 1.2965(8) -0.0788(5)
N3A N 1.1397(8) 0.9511(7) 0.1517(4)
N4A N 1.6415(8) 1.5363(7) -0.1910(4)
C2A C 1.3182(9) 0.6853(8) -0.0440(4)
C2_2 C 0.6818(9) 0.3147(8) 0.0440(4)
C2A_2 C 0.3182(9) 0.6853(8) -0.0440(4)
C2_3 C 1.6818(9) 1.3147(8) 0.0440(4)
C2A_3 C 1.3182(9) 1.6853(8) -0.0440(4)
C3A C 1.9541(10) 1.6210(9) -0.2325(5)
H1A H 2.0662 1.6547 -0.2126
C4A C 1.8061(10) 1.5861(9) -0.1677(5)
H2A H 1.8211 1.5977 -0.1040
C5A C 1.6205(10) 1.5243(10) -0.2850(5)
H3A H 1.5051 1.4946 -0.3041
C6A C 1.7630(12) 1.5543(11) -0.3522(6)
C7A C 1.0205(12) 0.9397(10) 0.2246(5)
H4A H 0.8888 0.9399 0.2119
C8A C 1.3267(11) 0.9525(10) 0.1696(6)
H5A H 1.4112 0.9629 0.1170
C9A C 1.9343(11) 1.6055(11) -0.3266(6)
H6A H 2.0320 1.6283 -0.3722
C10A C 1.0851(13) 0.9267(11) 0.3227(6)
C11A C 1.7383(13) 1.5401(14) -0.4537(7)
N5A N 1.7181(13) 1.5191(17) -0.5285(6)
C12A C 1.2763(14) 0.9310(13) 0.3402(7)
H7A H 1.3225 0.9285 0.4030
C13A C 1.3998(13) 0.9393(14) 0.2622(7)
H8A H 1.5330 0.9359 0.2727
C14A C 0.9390(16) 0.9309(16) 0.3933(7)
N6A N 0.8101(17) 0.9334(18) 0.4478(7)
loop_
_geom_bond_atom_site_label_1
_geom_bond_atom_site_label_2
_geom_bond_site_symmetry_1
_geom_bond_site_symmetry_2
Cu1 C1 1_555 1_555
Fe1 N1 1_555 1_555
N1 C1 1_555 1_555
N2 Fe1 1_555 1_555
N3 Fe1 1_555 1_555
N4 Cu1 1_555 1_555
C2 N2 1_555 1_555
C3 H1 1_555 1_555
C4 N4 1_555 1_555
H2 C4 1_555 1_555
C5 N4 1_555 1_555
H3 C5 1_555 1_555
C6 C5 1_555 1_555
C7 N3 1_555 1_555
H4 C7 1_555 1_555
C8 N3 1_555 1_555
H5 C8 1_555 1_555
C9 C3 1_555 1_555
H6 C9 1_555 1_555
C10 C7 1_555 1_555
C11 C6 1_555 1_555
N5 C11 1_555 1_555
C12 C10 1_555 1_555
H7 C12 1_555 1_555
C13 C8 1_555 1_555
H8 C13 1_555 1_555
C14 C10 1_555 1_555
N6 C14 1_555 1_555
Cu1A C1A 1_555 1_555
Cu1_2 C2 1_555 1_555
Cu1A_2 C2 1_555 1_555
Cu1_3 C2A 1_555 1_555
Cu1A_3 C2A 1_555 1_555
N1A Fe1 1_555 1_555
N2A Fe1 1_555 1_555
C1A N1A 1_555 1_555
N3A Fe1 1_555 1_555
N4A Cu1A 1_555 1_555
C2A N2A 1_555 1_555
C2_2 Cu1 1_555 1_555
C2A_2 Cu1 1_555 1_555
C2_3 Cu1A 1_555 1_555
C2A_3 Cu1A 1_555 1_555
C3A H1A 1_555 1_555
C4A N4A 1_555 1_555
H2A C4A 1_555 1_555
C5A N4A 1_555 1_555
H3A C5A 1_555 1_555
C6A C5A 1_555 1_555
C7A N3A 1_555 1_555
H4A C7A 1_555 1_555
C8A N3A 1_555 1_555
H5A C8A 1_555 1_555
C9A C3A 1_555 1_555
H6A C9A 1_555 1_555
C10A C7A 1_555 1_555
C11A C6A 1_555 1_555
N5A C11A 1_555 1_555
C12A C10A 1_555 1_555
H7A C12A 1_555 1_555
C13A C8A 1_555 1_555
H8A C13A 1_555 1_555
C14A C10A 1_555 1_555
N6A C14A 1_555 1_555
C3 C4 1_555 1_555
C6 C9 1_555 1_555
C12 C13 1_555 1_555
C3A C4A 1_555 1_555
C6A C9A 1_555 1_555
C12A C13A 1_555 1_555

#END
