
#######################################################################
#
#                 Cambridge Crystallographic Data Centre
#                                CCDC 
#
#######################################################################
#
# If this CIF has been generated from an entry in the Cambridge 
# Structural Database, then it will include bibliographic, chemical, 
# crystal, experimental, refinement or atomic coordinate data resulting 
# from the CCDC's data processing and validation procedures.
#
#######################################################################

data_VEHHOG
_symmetry_cell_setting           triclinic
_symmetry_space_group_name_H-M   'P -1'
_symmetry_Int_Tables_number      2
_space_group_name_Hall           '-P 1'
loop_
_symmetry_equiv_pos_site_id
_symmetry_equiv_pos_as_xyz
1 x,y,z
2 -x,-y,-z
_cell_length_a                   6.8490(3)
_cell_length_b                   7.7800(4)
_cell_length_c                   13.7260(8)
_cell_angle_alpha                73.765(2)
_cell_angle_beta                 84.770(2)
_cell_angle_gamma                80.681(2)
_cell_volume                     692.146
loop_
_atom_site_label
_atom_site_type_symbol
_atom_site_fract_x
_atom_site_fract_y
_atom_site_fract_z
Fe1 Fe 1.0000 0.0000 0.0000
Cu1 Cu 0.43163(8) 0.39568(8) 0.08271(4)
N1 N 0.8004(5) 0.2171(5) -0.0256(3)
C1 C 0.7571(7) 0.2137(7) 0.3590(4)
N2 N 1.1731(5) 0.1289(5) 0.0519(3)
N3 N 0.8806(5) -0.0923(5) 0.1410(3)
N4 N 0.6350(6) 0.3546(5) 0.1928(3)
C2 C 0.6111(7) 0.2513(6) 0.2887(4)
H1 H 0.4932 0.2035 0.3085
C3 C 0.9554(7) 0.3931(6) 0.2324(4)
H2 H 1.0711 0.4438 0.2105
C4 C 0.6862(7) -0.0981(7) 0.1614(4)
H3 H 0.5999 -0.0505 0.1088
C5 C 0.9333(7) 0.2861(7) 0.3299(4)
H4 H 1.0334 0.2627 0.3753
C6 C 0.6895(7) 0.3483(6) -0.0388(4)
C7 C 0.9353(8) -0.2449(7) 0.3151(4)
C8 C 1.0028(8) -0.1634(7) 0.2178(4)
H5 H 1.1376 -0.1575 0.2050
C9 C 0.8043(7) 0.4242(6) 0.1676(4)
H6 H 0.8209 0.4983 0.1022
N5 N 1.2049(8) -0.4101(8) 0.4424(4)
C10 C 0.7334(8) -0.2517(7) 0.3373(4)
H7 H 0.6848 -0.3068 0.4021
C11 C 0.6096(8) -0.1727(7) 0.2582(4)
H8 H 0.4734 -0.1694 0.2700
C12 C 0.7286(8) 0.0983(7) 0.4596(4)
C13 C 1.0814(9) -0.3352(8) 0.3884(4)
N6 N 0.7106(7) 0.0044(8) 0.5397(4)
C14 C 1.2739(7) 0.2166(6) 0.0741(4)
Cu1A Cu 1.56837(8) -0.39568(8) -0.08271(4)
Cu1A_2 Cu 0.56837(8) 0.60432(8) -0.08271(4)
Cu1_2 Cu 1.43163(8) 0.39568(8) 0.08271(4)
Cu1_3 Cu 1.43163(8) -0.60432(8) 0.08271(4)
Cu1A_3 Cu 0.56837(8) -0.39568(8) -0.08271(4)
N1A N 1.1996(5) -0.2171(5) 0.0256(3)
C1A C 1.2429(7) -0.2137(7) -0.3590(4)
N2A N 0.8269(5) -0.1289(5) -0.0519(3)
N3A N 1.1194(5) 0.0923(5) -0.1410(3)
N4A N 1.3650(6) -0.3546(5) -0.1928(3)
C2A C 1.3889(7) -0.2513(6) -0.2887(4)
H1A H 1.5068 -0.2035 -0.3085
C3A C 1.0446(7) -0.3931(6) -0.2324(4)
H2A H 0.9289 -0.4438 -0.2105
C4A C 1.3138(7) 0.0981(7) -0.1614(4)
H3A H 1.4001 0.0505 -0.1088
C5A C 1.0667(7) -0.2861(7) -0.3299(4)
H4A H 0.9666 -0.2627 -0.3753
C6A C 1.3105(7) -0.3483(6) 0.0388(4)
C6A_2 C 0.3105(7) 0.6517(6) 0.0388(4)
C6_2 C 1.6895(7) -0.6517(6) -0.0388(4)
C7A C 1.0647(8) 0.2449(7) -0.3151(4)
C8A C 0.9972(8) 0.1634(7) -0.2178(4)
H5A H 0.8624 0.1575 -0.2050
C9A C 1.1957(7) -0.4242(6) -0.1676(4)
H6A H 1.1791 -0.4983 -0.1022
N5A N 0.7951(8) 0.4101(8) -0.4424(4)
C10A C 1.2666(8) 0.2517(7) -0.3373(4)
H7A H 1.3152 0.3068 -0.4021
C11A C 1.3904(8) 0.1727(7) -0.2582(4)
H8A H 1.5266 0.1694 -0.2700
C12A C 1.2714(8) -0.0983(7) -0.4596(4)
C13A C 0.9186(9) 0.3352(8) -0.3884(4)
N6A N 1.2894(7) -0.0044(8) -0.5397(4)
C14A C 0.7261(7) -0.2166(6) -0.0741(4)
C14_2 C 0.2739(7) 0.2166(6) 0.0741(4)
C14A_2 C 1.7261(7) -0.2166(6) -0.0741(4)
loop_
_geom_bond_atom_site_label_1
_geom_bond_atom_site_label_2
_geom_bond_site_symmetry_1
_geom_bond_site_symmetry_2
Fe1 N1 1_555 1_555
Cu1 N4 1_555 1_555
N1 C6 1_555 1_555
C1 C2 1_555 1_555
N2 Fe1 1_555 1_555
N3 Fe1 1_555 1_555
N4 C2 1_555 1_555
C2 H1 1_555 1_555
C3 H2 1_555 1_555
C4 N3 1_555 1_555
H3 C4 1_555 1_555
C5 C1 1_555 1_555
H4 C5 1_555 1_555
C6 Cu1 1_555 1_555
C7 C8 1_555 1_555
C8 N3 1_555 1_555
H5 C8 1_555 1_555
C9 N4 1_555 1_555
H6 C9 1_555 1_555
N5 C13 1_555 1_555
C10 C7 1_555 1_555
H7 C10 1_555 1_555
C11 C4 1_555 1_555
H8 C11 1_555 1_555
C12 C1 1_555 1_555
C13 C7 1_555 1_555
N6 C12 1_555 1_555
C14 N2 1_555 1_555
Cu1A N4A 1_555 1_555
Cu1A_2 C6 1_555 1_555
Cu1_2 C14 1_555 1_555
Cu1_3 C6A 1_555 1_555
Cu1A_3 C14A 1_555 1_555
N1A Fe1 1_555 1_555
C1A C2A 1_555 1_555
N2A Fe1 1_555 1_555
N3A Fe1 1_555 1_555
N4A C2A 1_555 1_555
C2A H1A 1_555 1_555
C3A H2A 1_555 1_555
C4A N3A 1_555 1_555
H3A C4A 1_555 1_555
C5A C1A 1_555 1_555
H4A C5A 1_555 1_555
C6A Cu1A 1_555 1_555
C6A_2 Cu1 1_555 1_555
C6_2 Cu1A 1_555 1_555
C7A C8A 1_555 1_555
C8A N3A 1_555 1_555
H5A C8A 1_555 1_555
C9A N4A 1_555 1_555
H6A C9A 1_555 1_555
N5A C13A 1_555 1_555
C10A C7A 1_555 1_555
H7A C10A 1_555 1_555
C11A C4A 1_555 1_555
H8A C11A 1_555 1_555
C12A C1A 1_555 1_555
C13A C7A 1_555 1_555
N6A C12A 1_555 1_555
C14A N2A 1_555 1_555
C14_2 Cu1 1_555 1_555
C14A_2 Cu1A 1_555 1_555
C3 C5 1_555 1_555
C3 C9 1_555 1_555
C10 C11 1_555 1_555
Cu1A_2 C6A_2 1_555 1_555
Cu1_3 C6_2 1_555 1_555
N1A C6A 1_555 1_555
C3A C5A 1_555 1_555
C3A C9A 1_555 1_555
C10A C11A 1_555 1_555

#END
