
#######################################################################
#
#                 Cambridge Crystallographic Data Centre
#                                CCDC 
#
#######################################################################
#
# If this CIF has been generated from an entry in the Cambridge 
# Structural Database, then it will include bibliographic, chemical, 
# crystal, experimental, refinement or atomic coordinate data resulting 
# from the CCDC's data processing and validation procedures.
#
#######################################################################

data_VEHKAU
_symmetry_cell_setting           monoclinic
_symmetry_space_group_name_H-M   'C 2/c'
_symmetry_Int_Tables_number      15
_space_group_name_Hall           '-C 2yn'
loop_
_symmetry_equiv_pos_site_id
_symmetry_equiv_pos_as_xyz
1 x,y,z
2 1/2+x,1/2+y,z
3 -x,y,1/2-z
4 1/2-x,1/2+y,1/2-z
5 -x,-y,-z
6 1/2-x,1/2-y,-z
7 x,-y,1/2+z
8 1/2+x,1/2-y,1/2+z
_cell_length_a                   9.383(3)
_cell_length_b                   12.429(3)
_cell_length_c                   6.757(4)
_cell_angle_alpha                90
_cell_angle_beta                 128.48(5)
_cell_angle_gamma                90
_cell_volume                     616.874
loop_
_atom_site_label
_atom_site_type_symbol
_atom_site_fract_x
_atom_site_fract_y
_atom_site_fract_z
Cu1 Cu 0.0000 0.0000 0.0000
Cl1 Cl 0.2304(2) -0.0671(1) 0.0045(2)
N1 N -0.0103(6) -0.1424(3) 0.1425(7)
C1 C -0.0160(8) -0.3329(5) 0.1347(11)
C2 C -0.0263(8) -0.2344(4) 0.0347(10)
Cu1B Cu 0.0000 0.0000 0.5000
Cu1B_2 Cu 0.0000 0.0000 -0.5000
Cl1D Cl -0.2304(2) 0.0671(1) -0.0045(2)
Cl1B Cl -0.2304(2) -0.0671(1) 0.4955(2)
Cl1F Cl 0.2304(2) 0.0671(1) 0.5045(2)
N1D N 0.0103(6) 0.1424(3) -0.1425(7)
N1B N 0.0103(6) -0.1424(3) 0.3575(7)
N1F N -0.0103(6) 0.1424(3) -0.3575(7)
N1F_2 N -0.0103(6) 0.1424(3) 0.6425(7)
C1B C 0.0160(8) -0.3329(5) 0.3653(11)
C1D C 0.0160(8) 0.3329(5) -0.1347(11)
C1F C -0.0160(8) 0.3329(5) -0.3653(11)
C2D C 0.0263(8) 0.2344(4) -0.0347(10)
C2B C 0.0263(8) -0.2344(4) 0.4653(10)
C2F C -0.0263(8) 0.2344(4) -0.4653(10)
loop_
_geom_bond_atom_site_label_1
_geom_bond_atom_site_label_2
_geom_bond_site_symmetry_1
_geom_bond_site_symmetry_2
Cu1 Cl1 1_555 1_555
N1 Cu1 1_555 1_555
C1 C2 1_555 1_555
C2 N1 1_555 1_555
Cu1B Cl1B 1_555 1_555
Cu1B_2 N1F 1_555 1_555
Cl1D Cu1 1_555 1_555
Cl1F Cu1B 1_555 1_555
N1D Cu1 1_555 1_555
N1B N1 1_555 1_555
N1F N1D 1_555 1_555
N1F_2 Cu1B 1_555 1_555
C1B C1 1_555 1_555
C1D C1F 1_555 1_555
C1F C2F 1_555 1_555
C2D N1D 1_555 1_555
C2B N1B 1_555 1_555
C2F N1F 1_555 1_555
Cu1B N1B 1_555 1_555
C1B C2B 1_555 1_555
C1D C2D 1_555 1_555

#END
