
#######################################################################
#
#                 Cambridge Crystallographic Data Centre
#                                CCDC 
#
#######################################################################
#
# If this CIF has been generated from an entry in the Cambridge 
# Structural Database, then it will include bibliographic, chemical, 
# crystal, experimental, refinement or atomic coordinate data resulting 
# from the CCDC's data processing and validation procedures.
#
#######################################################################

data_VEHKOK
_symmetry_cell_setting           orthorhombic
_symmetry_space_group_name_H-M   'P n m a'
_symmetry_Int_Tables_number      62
_space_group_name_Hall           '-P 2ac 2n'
loop_
_symmetry_equiv_pos_site_id
_symmetry_equiv_pos_as_xyz
1 x,y,z
2 1/2-x,-y,1/2+z
3 1/2+x,1/2-y,1/2-z
4 -x,1/2+y,-z
5 -x,-y,-z
6 1/2+x,y,1/2-z
7 1/2-x,1/2+y,1/2+z
8 x,1/2-y,z
_cell_length_a                   17.441(5)
_cell_length_b                   35.188(5)
_cell_length_c                   17.398(5)
_cell_angle_alpha                90
_cell_angle_beta                 90
_cell_angle_gamma                90
_cell_volume                     10677.4
loop_
_atom_site_label
_atom_site_type_symbol
_atom_site_fract_x
_atom_site_fract_y
_atom_site_fract_z
C26 C 0.7260(7) 0.0732(3) 0.3837(6)
H9 H 0.7490 0.0951 0.3590
H10 H 0.7000 0.0584 0.3446
C27 C 0.7916(6) 0.0479(3) 0.4224(7)
H11 H 0.8276 0.0642 0.4481
H12 H 0.8177 0.0336 0.3834
H13 H 0.7690 0.0309 0.4589
C28 C 0.6105(6) 0.1104(3) 0.4074(6)
H14 H 0.5722 0.1170 0.4456
H15 H 0.5852 0.0968 0.3662
C29 C 0.6467(9) 0.1467(3) 0.3757(6)
H16 H 0.6838 0.1561 0.4117
H17 H 0.6076 0.1655 0.3677
H18 H 0.6716 0.1412 0.3277
N1 N 0.6693(4) 0.08617(19) 0.4422(4)
H19 H 0.6467 0.0658 0.4640
H20 H 0.6937 0.0992 0.4794
Zn1 Zn 0.95740(9) 0.2500 0.61969(9)
Zn2 Zn 0.79949(4) 0.203540(17) 0.58114(4)
Zn3 Zn 0.80261(3) 0.086729(17) 0.17906(3)
Zn4 Zn 0.81468(4) 0.128661(17) 0.01275(4)
Zn5 Zn 0.86511(4) 0.036084(18) 0.02641(4)
O1 O 0.9747(4) 0.2011(3) 0.5534(4)
O2 O 0.8664(2) 0.19242(13) 0.4948(2)
O3 O 1.2070(2) 0.13473(13) 0.4554(3)
O4 O 1.2023(2) 0.11003(13) 0.3378(2)
O5 O 0.9564(3) 0.0927(2) 0.2091(3)
O6 O 0.8506(2) 0.11388(12) 0.2626(2)
O7 O 0.8520(2) 0.18007(12) 0.0160(3)
O8 O 0.9581(3) 0.14881(14) 0.0069(4)
O9 O 1.1994(2) 0.28136(11) -0.0409(3)
O10 O 0.8075(3) 0.10869(11) 0.9088(2)
O11 O 0.8143(3) 0.04571(12) 0.9267(2)
O12 O 0.7130(3) -0.01034(12) 0.5943(2)
O13 O 0.7210(3) -0.03532(11) 0.7113(2)
O14 O 0.7459(4) 0.12762(13) 0.5559(3)
O15 O 0.7899(3) 0.16169(11) 0.6535(2)
O16 O 0.8378(3) 0.2500 0.6333(3)
O17 O 0.9805(3) 0.04725(13) 0.0222(3)
O18 O 1.0932(2) 0.01784(12) 0.0064(3)
O19 O 0.85700(19) 0.08879(9) 0.0798(2)
O20 O 1.037(2) 0.2500 0.683(2)
C1 C 0.9370(4) 0.1878(2) 0.5013(4)
C2 C 1.1727(3) 0.12579(16) 0.3940(3)
C3 C 0.9222(4) 0.10985(19) 0.2610(4)
C4 C 0.9749(3) 0.1639(2) 0.4405(4)
C5 C 1.0528(3) 0.15640(18) 0.4463(4)
H1 H 1.0805 0.1658 0.4878
C6 C 1.0900(3) 0.13482(17) 0.3900(3)
C7 C 1.0459(3) 0.12035(18) 0.3288(3)
H2 H 1.0695 0.1066 0.2899
C8 C 0.9676(3) 0.12647(19) 0.3262(4)
C9 C 0.9332(3) 0.14831(18) 0.3818(3)
H3 H 0.8807 0.1526 0.3795
C10 C 0.9241(4) 0.17883(18) 0.0102(4)
C11 C 1.1679(5) 0.2500 -0.0351(5)
C12 C 0.9268(5) 0.2500 0.0123(5)
H4 H 0.8744 0.2500 0.0222
C13 C 0.9669(3) 0.21563(16) 0.0047(4)
C14 C 1.0451(3) 0.21630(16) -0.0076(4)
H5 H 1.0720 0.1935 -0.0099
C15 C 1.0840(5) 0.2500 -0.0165(6)
C16 C 0.8023(3) 0.07580(17) 0.8870(3)
C17 C 0.7247(4) -0.00832(16) 0.6652(3)
C18 C 0.7667(4) 0.13066(17) 0.6236(4)
C19 C 0.7667(4) 0.09753(16) 0.6763(4)
C20 C 0.7465(4) 0.06140(17) 0.6485(4)
H6 H 0.7337 0.0584 0.5969
C21 C 0.7454(4) 0.03002(15) 0.6972(3)
C22 C 0.7642(4) 0.03443(15) 0.7726(3)
H7 H 0.7641 0.0133 0.8047
C23 C 0.7836(3) 0.06987(16) 0.8029(3)
C24 C 0.7836(4) 0.10098(15) 0.7539(3)
H8 H 0.7953 0.1249 0.7736
C25 C 1.0207(4) 0.01898(18) 0.0094(4)
Zn1C Zn 1.04260(9) -0.2500 -0.61969(9)
Zn2D Zn 1.20051(4) -0.203540(17) -0.58114(4)
Zn2B Zn 1.29949(4) 0.296460(17) -0.08114(4)
Zn2E Zn 1.29949(4) 0.203540(17) -0.08114(4)
Zn2G Zn 0.79949(4) 0.296460(17) 0.58114(4)
Zn3D Zn 1.19739(3) -0.086729(17) -0.17906(3)
Zn3A Zn 0.69739(3) -0.086729(17) -0.32094(3)
Zn3A_2 Zn 0.69739(3) -0.086729(17) 0.67906(3)
Zn3E Zn 1.30261(3) 0.086729(17) -0.67906(3)
Zn3E_2 Zn 1.30261(3) 0.086729(17) 0.32094(3)
Zn4D Zn 1.18532(4) -0.128661(17) -0.01275(4)
Zn4_2 Zn 0.81468(4) 0.128661(17) 1.01275(4)
Zn4A Zn 0.68532(4) -0.128661(17) -0.48725(4)
Zn4D_2 Zn 1.18532(4) -0.128661(17) -1.01275(4)
Zn4E Zn 1.31468(4) 0.128661(17) 0.48725(4)
Zn4G Zn 0.81468(4) 0.371339(17) 0.01275(4)
Zn5D Zn 1.13489(4) -0.036084(18) -0.02641(4)
Zn5_2 Zn 0.86511(4) 0.036084(18) 1.02641(4)
Zn5A Zn 0.63489(4) -0.036084(18) 0.52641(4)
Zn5D_2 Zn 1.13489(4) -0.036084(18) -1.02641(4)
Zn5E Zn 1.36511(4) 0.036084(18) -0.52641(4)
O1D O 1.0253(4) -0.2011(3) -0.5534(4)
O1G O 0.9747(4) 0.2989(3) 0.5534(4)
O2D O 1.1336(2) -0.19242(13) -0.4948(2)
O3D O 0.7930(2) -0.13473(13) -0.4554(3)
O3A O 1.2930(2) -0.13473(13) -0.0446(3)
O3E O 0.7070(2) 0.13473(13) 0.0446(3)
O4D O 0.7977(2) -0.11003(13) -0.3378(2)
O4A O 1.2977(2) -0.11003(13) -0.1622(2)
O4E O 0.7023(2) 0.11003(13) 0.1622(2)
O5D O 1.0436(3) -0.0927(2) -0.2091(3)
O6D O 1.1494(2) -0.11388(12) -0.2626(2)
O7G O 0.8520(2) 0.31993(12) 0.0160(3)
O7D O 1.1480(2) -0.18007(12) -0.0160(3)
O8G O 0.9581(3) 0.35119(14) 0.0069(4)
O9G O 1.1994(2) 0.21864(11) -0.0409(3)
O9B O 0.6994(2) 0.21864(11) 0.5409(3)
O9F O 1.3006(2) -0.21864(11) -0.5409(3)
O10D O 1.1925(3) -0.10869(11) -0.9088(2)
O10_2 O 0.8075(3) 0.10869(11) -0.0912(2)
O10D_2 O 1.1925(3) -0.10869(11) 0.0912(2)
O11D O 1.1857(3) -0.04571(12) -0.9267(2)
O11_2 O 0.8143(3) 0.04571(12) -0.0733(2)
O11D_2 O 1.1857(3) -0.04571(12) 0.0733(2)
O12D O 1.2870(3) 0.01034(12) -0.5943(2)
O12A O 0.7870(3) 0.01034(12) 0.0943(2)
O12E O 1.2130(3) -0.01034(12) -0.0943(2)
O13D O 1.2790(3) 0.03532(11) -0.7113(2)
O13A O 0.7790(3) 0.03532(11) 0.2113(2)
O13E O 1.2210(3) -0.03532(11) -0.2113(2)
O14D O 1.2541(4) -0.12762(13) -0.5559(3)
O15D O 1.2101(3) -0.16169(11) -0.6535(2)
O16C O 1.1622(3) -0.2500 -0.6333(3)
O17D O 1.0195(3) -0.04725(13) -0.0222(3)
O18D O 0.9068(2) -0.01784(12) -0.0064(3)
O19D O 1.14300(19) -0.08879(9) -0.0798(2)
C1D C 1.0630(4) -0.1878(2) -0.5013(4)
C2D C 0.8273(3) -0.12579(16) -0.3940(3)
C3D C 1.0778(4) -0.10985(19) -0.2610(4)
C4D C 1.0251(3) -0.1639(2) -0.4405(4)
C5D C 0.9472(3) -0.15640(18) -0.4463(4)
H1D H 0.9195 -0.1658 -0.4878
C6D C 0.9100(3) -0.13482(17) -0.3900(3)
C7D C 0.9541(3) -0.12035(18) -0.3288(3)
H2D H 0.9305 -0.1066 -0.2899
C8D C 1.0324(3) -0.12647(19) -0.3262(4)
C9D C 1.0668(3) -0.14831(18) -0.3818(3)
H3D H 1.1193 -0.1526 -0.3795
C10G C 0.9241(4) 0.32117(18) 0.0102(4)
C13G C 0.9669(3) 0.28437(16) 0.0047(4)
C14G C 1.0451(3) 0.28370(16) -0.0076(4)
H5G H 1.0720 0.3065 -0.0099
C16D C 1.1977(3) -0.07580(17) -0.8870(3)
C17D C 1.2753(4) 0.00832(16) -0.6652(3)
C18D C 1.2333(4) -0.13066(17) -0.6236(4)
C19D C 1.2333(4) -0.09753(16) -0.6763(4)
C20D C 1.2535(4) -0.06140(17) -0.6485(4)
H6D H 1.2663 -0.0584 -0.5969
C21D C 1.2546(4) -0.03002(15) -0.6972(3)
C22D C 1.2358(4) -0.03443(15) -0.7726(3)
H7D H 1.2359 -0.0133 -0.8047
C23D C 1.2164(3) -0.06987(16) -0.8029(3)
C24D C 1.2164(4) -0.10098(15) -0.7539(3)
H8D H 1.2047 -0.1249 -0.7736
C25D C 0.9793(4) -0.01898(18) -0.0094(4)
O21? O 0.960(2) 0.2889(13) 0.695(2)
loop_
_geom_bond_atom_site_label_1
_geom_bond_atom_site_label_2
_geom_bond_site_symmetry_1
_geom_bond_site_symmetry_2
Zn1 O1 1_555 1_555
Zn2 O2 1_555 1_555
Zn3 O6 1_555 1_555
Zn4 O7 1_555 1_555
Zn5 O17 1_555 1_555
O1 C1 1_555 1_555
O2 C1 1_555 1_555
O3 C2 1_555 1_555
O4 C2 1_555 1_555
O5 C3 1_555 1_555
O6 C3 1_555 1_555
O7 C10 1_555 1_555
O8 C10 1_555 1_555
O9 C11 1_555 1_555
O10 C16 1_555 1_555
O11 C16 1_555 1_555
O12 C17 1_555 1_555
O13 C17 1_555 1_555
O14 C18 1_555 1_555
O15 Zn2 1_555 1_555
O16 Zn1 1_555 1_555
O17 C25 1_555 1_555
O18 C25 1_555 1_555
O19 Zn3 1_555 1_555
O20 Zn1 1_555 1_555
C1 C4 1_555 1_555
C2 C6 1_555 1_555
C3 C8 1_555 1_555
C4 C5 1_555 1_555
C5 H1 1_555 1_555
C6 C5 1_555 1_555
C7 C6 1_555 1_555
H2 C7 1_555 1_555
C8 C7 1_555 1_555
C9 C4 1_555 1_555
H3 C9 1_555 1_555
C10 C13 1_555 1_555
C11 C15 1_555 1_555
C12 H4 1_555 1_555
C13 C12 1_555 1_555
C14 C13 1_555 1_555
H5 C14 1_555 1_555
C15 C14 1_555 1_555
C16 C23 1_555 1_555
C17 C21 1_555 1_555
C18 O15 1_555 1_555
C19 C18 1_555 1_555
C20 C19 1_555 1_555
H6 C20 1_555 1_555
C21 C20 1_555 1_555
C22 C21 1_555 1_555
H7 C22 1_555 1_555
C23 C22 1_555 1_555
C24 C19 1_555 1_555
H8 C24 1_555 1_555
C25 C25D 1_555 1_555
C26 H9 1_555 1_555
H10 C26 1_555 1_555
C27 C26 1_555 1_555
H11 C27 1_555 1_555
H12 C27 1_555 1_555
H13 C27 1_555 1_555
C28 H14 1_555 1_555
H15 C28 1_555 1_555
C29 C28 1_555 1_555
H16 C29 1_555 1_555
H17 C29 1_555 1_555
H18 C29 1_555 1_555
N1 C26 1_555 1_555
H19 N1 1_555 1_555
H20 N1 1_555 1_555
Zn1C O1D 1_555 1_555
Zn2D O2D 1_555 1_555
Zn2B O9 1_555 1_555
Zn2E O9G 1_555 1_555
Zn2G O16 1_555 1_555
Zn3D O4A 1_555 1_555
Zn3A O4D 1_555 1_555
Zn3A_2 O13 1_555 1_555
Zn3E O13D 1_555 1_555
Zn3E_2 O4 1_555 1_555
Zn4D O3A 1_555 1_555
Zn4_2 O10 1_555 1_555
Zn4A O3D 1_555 1_555
Zn4D_2 O10D 1_555 1_555
Zn4E O3 1_555 1_555
Zn4G O7G 1_555 1_555
Zn5D O18 1_555 1_555
Zn5_2 O11 1_555 1_555
Zn5A O12 1_555 1_555
Zn5D_2 O11D 1_555 1_555
Zn5E O12D 1_555 1_555
O1D C1D 1_555 1_555
O1G Zn1 1_555 1_555
O2D C1D 1_555 1_555
O3D C2D 1_555 1_555
O3E Zn4 1_555 1_555
O4D C2D 1_555 1_555
O4E Zn3 1_555 1_555
O5D C3D 1_555 1_555
O6D Zn3D 1_555 1_555
O7G C10G 1_555 1_555
O7D Zn4D 1_555 1_555
O8G C10G 1_555 1_555
O9G C11 1_555 1_555
O9B Zn2 1_555 1_555
O9F Zn2D 1_555 1_555
O10D C16D 1_555 1_555
O10_2 Zn4 1_555 1_555
O10D_2 Zn4D 1_555 1_555
O11D C16D 1_555 1_555
O11_2 Zn5 1_555 1_555
O11D_2 Zn5D 1_555 1_555
O12D C17D 1_555 1_555
O12A Zn5 1_555 1_555
O12E Zn5D 1_555 1_555
O13D C17D 1_555 1_555
O13A Zn3 1_555 1_555
O13E Zn3D 1_555 1_555
O14D C18D 1_555 1_555
O15D Zn2D 1_555 1_555
O16C Zn1C 1_555 1_555
O17D Zn5D 1_555 1_555
O18D Zn5 1_555 1_555
O19D Zn3D 1_555 1_555
C1D C4D 1_555 1_555
C2D C6D 1_555 1_555
C3D O6D 1_555 1_555
C4D C5D 1_555 1_555
C5D H1D 1_555 1_555
C6D C5D 1_555 1_555
C7D C6D 1_555 1_555
H2D C7D 1_555 1_555
C8D C3D 1_555 1_555
C9D C4D 1_555 1_555
H3D C9D 1_555 1_555
C10G C13G 1_555 1_555
C13G C12 1_555 1_555
C14G C15 1_555 1_555
H5G C14G 1_555 1_555
C16D C23D 1_555 1_555
C17D C21D 1_555 1_555
C18D O15D 1_555 1_555
C19D C18D 1_555 1_555
C20D C19D 1_555 1_555
H6D C20D 1_555 1_555
C21D C20D 1_555 1_555
C22D C21D 1_555 1_555
H7D C22D 1_555 1_555
C23D C22D 1_555 1_555
C24D C19D 1_555 1_555
H8D C24D 1_555 1_555
C25D O17D 1_555 1_555
Zn2 O16 1_555 1_555
Zn4 O19 1_555 1_555
Zn5 O19 1_555 1_555
C8 C9 1_555 1_555
C23 C24 1_555 1_555
C28 N1 1_555 1_555
Zn2D O16C 1_555 1_555
Zn4D O19D 1_555 1_555
Zn5D O19D 1_555 1_555
O18D C25D 1_555 1_555
C7D C8D 1_555 1_555
C8D C9D 1_555 1_555
C13G C14G 1_555 1_555
C23D C24D 1_555 1_555

#END
