
#######################################################################
#
#                 Cambridge Crystallographic Data Centre
#                                CCDC 
#
#######################################################################
#
# If this CIF has been generated from an entry in the Cambridge 
# Structural Database, then it will include bibliographic, chemical, 
# crystal, experimental, refinement or atomic coordinate data resulting 
# from the CCDC's data processing and validation procedures.
#
#######################################################################

data_VEHLAV10
_symmetry_cell_setting           orthorhombic
_symmetry_space_group_name_H-M   'P 21 21 21'
_symmetry_Int_Tables_number      19
_space_group_name_Hall           'P 2ac 2ab'
loop_
_symmetry_equiv_pos_site_id
_symmetry_equiv_pos_as_xyz
1 x,y,z
2 1/2+x,1/2-y,-z
3 -x,1/2+y,1/2-z
4 1/2-x,-y,1/2+z
_cell_length_a                   11.339(1)
_cell_length_b                   13.122(1)
_cell_length_c                   17.451(1)
_cell_angle_alpha                90
_cell_angle_beta                 90
_cell_angle_gamma                90
_cell_volume                     2596.54
loop_
_atom_site_label
_atom_site_type_symbol
_atom_site_fract_x
_atom_site_fract_y
_atom_site_fract_z
S3 S 0.9246(1) 0.2494(1) 0.09142(9)
F1 F 1.1424(4) 0.2529(4) 0.1422(3)
F2 F 1.1112(4) 0.3471(3) 0.0430(3)
F3 F 1.1209(5) 0.1830(4) 0.0309(3)
O2 O 0.8791(4) 0.2570(4) 0.0150(3)
O3 O 0.9110(5) 0.1497(3) 0.1250(3)
O4 O 0.8959(6) 0.3326(4) 0.1401(3)
C17 C 1.0833(7) 0.2577(6) 0.0761(5)
O5 O 0.0254(6) 0.0257(4) 0.2326(3)
C18 C -0.0555(7) 0.0226(6) 0.2942(5)
H23 H 0.012(7) 0.061(5) 0.202(4)
H24 H -0.0226(7) -0.0167(6) 0.3370(5)
H25 H -0.1248(7) -0.0128(6) 0.2738(5)
H26 H -0.0786(7) 0.0904(6) 0.3124(5)
Ag1 Ag 0.48387(3) 0.24356(3) 0.41073(2)
S1 S 0.6113(1) 0.0772(1) 0.3177(1)
S2 S 0.3202(1) 0.1673(1) 0.33279(9)
O1 O 0.4193(4) 0.2665(3) 0.5507(2)
N1 N 0.5851(4) 0.3882(3) 0.4132(3)
N2 N 0.6295(5) 0.5449(4) 0.4464(3)
N3 N 0.9034(4) 0.3354(4) 0.3452(3)
N4 N 0.5616(4) 0.1101(4) 0.4878(3)
C1 C 0.5674(7) 0.4599(5) 0.4644(4)
C2 C 0.6870(6) 0.5262(5) 0.3788(4)
C3 C 0.6610(5) 0.4282(5) 0.3586(3)
C4 C 0.7051(5) 0.3684(5) 0.2926(3)
C5 C 0.7974(5) 0.2881(4) 0.3153(4)
C6 C 0.4547(5) 0.1943(4) 0.5898(4)
C7 C 0.5683(6) 0.1386(5) 0.5680(3)
C8 C 0.5872(6) 0.0189(5) 0.4688(4)
C9 C 0.5954(6) -0.0114(5) 0.3897(4)
C10 C 0.5950(7) -0.1088(5) 0.3596(4)
C11 C 0.6076(7) -0.1094(6) 0.2797(5)
C12 C 0.6186(6) -0.0160(5) 0.2481(4)
C13 C 0.6393(7) 0.0148(7) 0.1661(4)
C14 C 0.6738(6) 0.2118(5) 0.5767(4)
C15 C 0.1883(5) 0.2458(6) 0.3437(3)
C16 C 0.2813(6) 0.0554(5) 0.3880(4)
H1 H 0.504(6) 0.447(5) 0.507(4)
H2 H 0.610(6) 0.591(5) 0.478(4)
H3 H 0.735(6) 0.571(5) 0.357(4)
H4 H 0.741(6) 0.420(5) 0.255(4)
H5 H 0.636(6) 0.326(5) 0.270(4)
H6 H 0.808(5) 0.245(5) 0.273(4)
H7 H 0.761(6) 0.232(5) 0.353(4)
H8 H 0.928(7) 0.374(5) 0.326(4)
H9 H 0.580(6) 0.088(5) 0.601(4)
H10 H 0.593(6) -0.035(5) 0.508(4)
H11 H 0.585(6) -0.170(5) 0.391(4)
H12 H 0.610(6) -0.156(6) 0.253(4)
H13 H 0.5960(7) 0.0778(7) 0.1552(4)
H14 H 0.6129(7) -0.0390(7) 0.1311(4)
H15 H 0.7239(7) 0.0266(7) 0.1589(4)
H16 H 0.756(6) 0.169(5) 0.566(4)
H17 H 0.667(6) 0.265(5) 0.551(4)
H18 H 0.196(6) 0.303(5) 0.309(4)
H19 H 0.128(6) 0.196(5) 0.330(4)
H20 H 0.3470(6) 0.0084(5) 0.3789(4)
H21 H 0.2073(6) 0.0229(5) 0.3723(4)
H22 H 0.2775(6) 0.0724(5) 0.4426(4)
C6A C 0.9547(5) 0.3057(4) 0.4102(4)
N3A N 0.4034(4) 0.1646(4) 0.6548(3)
C15A C 0.6883(5) 0.2542(6) 0.6563(3)
C14A C 0.1738(6) 0.2882(5) 0.4233(4)
O1A O 0.9193(4) 0.2335(3) 0.4493(2)
C7A C 1.0683(6) 0.3614(5) 0.4320(3)
C5A C 0.2974(5) 0.2119(4) 0.6847(4)
H8A H 0.428(7) 0.126(5) 0.674(4)
S2A S 0.8202(1) 0.3327(1) 0.66721(9)
H18A H 0.696(6) 0.197(5) 0.691(4)
H19A H 0.628(6) 0.304(5) 0.670(4)
C7A_2 C 0.0683(6) 0.3614(5) 0.4320(3)
H16A H 0.256(6) 0.331(5) 0.434(4)
H17A H 0.167(6) 0.235(5) 0.449(4)
Ag1A Ag 0.98387(3) 0.25644(3) 0.58927(2)
N4A N 1.0616(4) 0.3899(4) 0.5122(3)
C14A_2 C 1.1738(6) 0.2882(5) 0.4233(4)
H9A H 1.080(6) 0.412(5) 0.399(4)
C4A C 0.2051(5) 0.1316(5) 0.7074(3)
H6A H 0.308(5) 0.255(5) 0.727(4)
H7A H 0.261(6) 0.268(5) 0.647(4)
C16A C 0.7813(6) 0.4446(5) 0.6120(4)
N1A N 1.0851(4) 0.1118(3) 0.5868(3)
C8A C 1.0872(6) 0.4811(5) 0.5312(4)
C3A C 0.1610(5) 0.0718(5) 0.6414(3)
H4A H 0.241(6) 0.080(5) 0.745(4)
H5A H 0.136(6) 0.174(5) 0.730(4)
H20A H 0.8470(6) 0.4916(5) 0.6211(4)
H21A H 0.7073(6) 0.4771(5) 0.6277(4)
H22A H 0.7775(6) 0.4276(5) 0.5574(4)
C1A C 1.0674(7) 0.0401(5) 0.5356(4)
C3A_2 C 1.1610(5) 0.0718(5) 0.6414(3)
C9A C 1.0954(6) 0.5114(5) 0.6103(4)
H10A H 1.093(6) 0.535(5) 0.492(4)
N1A_2 N 0.0851(4) 0.1118(3) 0.5868(3)
C2A C 0.1870(6) -0.0262(5) 0.6212(4)
N2A N 1.1295(5) -0.0449(4) 0.5536(3)
H1A H 1.004(6) 0.053(5) 0.493(4)
S1A S 1.1113(1) 0.4228(1) 0.6823(1)
C10A C 1.0950(7) 0.6088(5) 0.6404(4)
N2A_2 N 0.1295(5) -0.0449(4) 0.5536(3)
H3A H 0.235(6) -0.071(5) 0.643(4)
C2A_2 C 1.1870(6) -0.0262(5) 0.6212(4)
H2A H 1.110(6) -0.091(5) 0.522(4)
C12A C 1.1186(6) 0.5160(5) 0.7519(4)
C11A C 1.1076(7) 0.6094(6) 0.7203(5)
H11A H 1.085(6) 0.670(5) 0.609(4)
C13A C 1.1393(7) 0.4852(7) 0.8339(4)
H12A H 1.110(6) 0.656(6) 0.747(4)
H13A H 1.0960(7) 0.4222(7) 0.8448(4)
H14A H 1.1129(7) 0.5390(7) 0.8689(4)
H15A H 1.2239(7) 0.4734(7) 0.8411(4)
loop_
_geom_bond_atom_site_label_1
_geom_bond_atom_site_label_2
_geom_bond_site_symmetry_1
_geom_bond_site_symmetry_2
Ag1 S2 1_555 1_555
S1 C9 1_555 1_555
S2 C15 1_555 1_555
O1 Ag1 1_555 1_555
N1 Ag1 1_555 1_555
N2 C1 1_555 1_555
N3 C5 1_555 1_555
N4 Ag1 1_555 1_555
C1 N1 1_555 1_555
C2 N2 1_555 1_555
C3 N1 1_555 1_555
C4 C3 1_555 1_555
C5 C4 1_555 1_555
C6 O1 1_555 1_555
C7 N4 1_555 1_555
C8 N4 1_555 1_555
C9 C8 1_555 1_555
C10 C9 1_555 1_555
C11 C10 1_555 1_555
C12 S1 1_555 1_555
C13 C12 1_555 1_555
C14 C7 1_555 1_555
C15 H18 1_555 1_555
C16 S2 1_555 1_555
S3 O2 1_555 1_555
F1 C17 1_555 1_555
F2 C17 1_555 1_555
F3 C17 1_555 1_555
O3 S3 1_555 1_555
O4 S3 1_555 1_555
C17 S3 1_555 1_555
O5 C18 1_555 1_555
C18 H24 1_555 1_555
H1 C1 1_555 1_555
H2 N2 1_555 1_555
H3 C2 1_555 1_555
H4 C4 1_555 1_555
H5 C4 1_555 1_555
H6 C5 1_555 1_555
H7 C5 1_555 1_555
H8 N3 1_555 1_555
H9 C7 1_555 1_555
H10 C8 1_555 1_555
H11 C10 1_555 1_555
H12 C11 1_555 1_555
H13 C13 1_555 1_555
H14 C13 1_555 1_555
H15 C13 1_555 1_555
H16 C14 1_555 1_555
H17 C14 1_555 1_555
H19 C15 1_555 1_555
H20 C16 1_555 1_555
H21 C16 1_555 1_555
H22 C16 1_555 1_555
H23 O5 1_555 1_555
H25 C18 1_555 1_555
H26 C18 1_555 1_555
C6A N3 1_555 1_555
N3A C6 1_555 1_555
C15A C14 1_555 1_555
C14A C15 1_555 1_555
O1A C6A 1_555 1_555
C7A C6A 1_555 1_555
C5A N3A 1_555 1_555
H8A N3A 1_555 1_555
S2A C15A 1_555 1_555
H18A C15A 1_555 1_555
H19A C15A 1_555 1_555
C7A_2 C14A 1_555 1_555
H16A C14A 1_555 1_555
H17A C14A 1_555 1_555
Ag1A O1A 1_555 1_555
N4A C7A 1_555 1_555
C14A_2 C7A 1_555 1_555
H9A C7A 1_555 1_555
C4A C5A 1_555 1_555
H6A C5A 1_555 1_555
H7A C5A 1_555 1_555
C16A S2A 1_555 1_555
N1A Ag1A 1_555 1_555
C8A N4A 1_555 1_555
C3A C4A 1_555 1_555
H4A C4A 1_555 1_555
H5A C4A 1_555 1_555
H20A C16A 1_555 1_555
H21A C16A 1_555 1_555
H22A C16A 1_555 1_555
C1A N1A 1_555 1_555
C3A_2 N1A 1_555 1_555
C9A C8A 1_555 1_555
H10A C8A 1_555 1_555
N1A_2 C3A 1_555 1_555
C2A C3A 1_555 1_555
N2A C1A 1_555 1_555
H1A C1A 1_555 1_555
S1A C9A 1_555 1_555
C10A C9A 1_555 1_555
N2A_2 C2A 1_555 1_555
H3A C2A 1_555 1_555
C2A_2 N2A 1_555 1_555
H2A N2A 1_555 1_555
C12A S1A 1_555 1_555
C11A C10A 1_555 1_555
H11A C10A 1_555 1_555
C13A C12A 1_555 1_555
H12A C11A 1_555 1_555
H13A C13A 1_555 1_555
H14A C13A 1_555 1_555
H15A C13A 1_555 1_555
C2 C3 1_555 1_555
C6 C7 1_555 1_555
C11 C12 1_555 1_555
S2A Ag1A 1_555 1_555
Ag1A N4A 1_555 1_555
C12A C11A 1_555 1_555

#END
