
#######################################################################
#
#                 Cambridge Crystallographic Data Centre
#                                CCDC 
#
#######################################################################
#
# If this CIF has been generated from an entry in the Cambridge 
# Structural Database, then it will include bibliographic, chemical, 
# crystal, experimental, refinement or atomic coordinate data resulting 
# from the CCDC's data processing and validation procedures.
#
#######################################################################

data_VEHMUS
_symmetry_cell_setting           triclinic
_symmetry_space_group_name_H-M   'P -1'
_symmetry_Int_Tables_number      2
_space_group_name_Hall           '-P 1'
loop_
_symmetry_equiv_pos_site_id
_symmetry_equiv_pos_as_xyz
1 x,y,z
2 -x,-y,-z
_cell_length_a                   8.893(2)
_cell_length_b                   9.167(2)
_cell_length_c                   11.326(3)
_cell_angle_alpha                101.69(2)
_cell_angle_beta                 112.91(2)
_cell_angle_gamma                99.21(2)
_cell_volume                     803.096
loop_
_atom_site_label
_atom_site_type_symbol
_atom_site_fract_x
_atom_site_fract_y
_atom_site_fract_z
Zn1 Zn 0.48718(4) 0.67007(4) -0.00499(3)
Zn2 Zn 0.34817(4) 0.57285(4) 0.18767(3)
O1 O 0.3515(3) 0.4848(2) 0.0082(2)
O2 O 0.3121(3) 0.7996(2) -0.0352(2)
O3 O 0.2567(3) 0.7487(3) 0.1316(2)
O4 O 0.2426(3) 0.5526(2) 0.3102(2)
O5 O -0.0221(3) 0.5511(3) 0.1798(2)
O6 O 0.5971(2) 0.6956(2) 0.3103(2)
O7 O 0.6485(3) 0.8169(3) 0.1712(2)
N1 N 0.5990(3) 0.6463(3) -0.2229(3)
N2 N 0.5166(3) 0.7263(3) -0.1634(3)
N3 N 0.5395(3) 0.8316(3) -0.3139(3)
C1 C 0.6104(4) 0.7108(4) -0.3122(3)
H1 H 0.6605 0.6786 -0.3677
C2 C 0.4811(4) 0.8366(4) -0.2192(3)
H2 H 0.4248 0.9071 -0.1972
C3 C 0.5182(4) 0.9218(4) -0.4077(3)
C4 C 0.6600(4) 1.0208(4) -0.3973(3)
H3 H 0.7661 1.0335 -0.3288
C5 C 0.3595(4) 0.8997(4) -0.5088(3)
H4 H 0.2662 0.8316 -0.5137
C6 C 0.2357(4) 0.8090(4) 0.0386(3)
C7 C 0.1120(4) 0.9074(3) 0.0161(3)
C8 C 0.1233(4) 1.0231(4) -0.0443(3)
H5 H 0.2066 1.0384 -0.0743
C9 C -0.0132(4) 0.8835(4) 0.0611(3)
H6 H -0.0224 0.8060 0.1017
C10 C 0.0883(4) 0.5422(3) 0.2849(3)
C11 C 0.0436(4) 0.5207(3) 0.3965(3)
C12 C 0.1667(4) 0.5294(4) 0.5224(3)
H7 H 0.2797 0.5486 0.5380
C13 C -0.1243(4) 0.4898(4) 0.3755(3)
H8 H -0.2088 0.4819 0.2921
C14 C 0.6851(4) 0.7946(4) 0.2848(3)
C15 C 0.8492(4) 0.9008(4) 0.3967(3)
C16 C 0.9224(4) 0.8688(4) 0.5187(3)
H9 H 0.8703 0.7808 0.5313
C17 C 0.9283(4) 1.0331(4) 0.3789(3)
H10 H 0.8806 1.0555 0.2979
H11 H 0.247(2) 0.478(5) -0.050(3)
Zn1A Zn 0.51282(4) 0.32993(4) 0.00499(3)
Zn1A_2 Zn -0.48718(4) 1.32993(4) 0.00499(3)
Zn1A_3 Zn 1.51282(4) 1.32993(4) 1.00499(3)
Zn1A_4 Zn 0.51282(4) 1.32993(4) -0.99501(3)
Zn2A Zn 0.65183(4) 0.42715(4) -0.18767(3)
Zn2A_2 Zn -0.34817(4) 1.42715(4) -0.18767(3)
Zn2A_3 Zn -0.34817(4) 0.42715(4) 0.81233(3)
Zn2A_4 Zn 1.65183(4) 1.42715(4) 0.81233(3)
Zn2_2 Zn 0.34817(4) 1.57285(4) -0.81233(3)
O1A O 0.6485(3) 0.5152(2) -0.0082(2)
O2A O -0.3121(3) 1.2004(2) 0.0352(2)
O2A_2 O 0.6879(3) 0.2004(2) 0.0352(2)
O3A O -0.2567(3) 1.2513(3) -0.1316(2)
O3A_2 O 0.7433(3) 0.2513(3) -0.1316(2)
O4A O -0.2426(3) 0.4474(2) 0.6898(2)
O4A_2 O 0.7574(3) 0.4474(2) -0.3102(2)
O5A O 0.0221(3) 0.4489(3) 0.8202(2)
O6A O 1.4029(2) 1.3044(2) 0.6897(2)
O6A_2 O 0.4029(2) 0.3044(2) -0.3103(2)
O7A O 1.3515(3) 1.1831(3) 0.8288(2)
O7A_2 O 0.3515(3) 0.1831(3) -0.1712(2)
N1A N 0.4010(3) 1.3537(3) -0.7771(3)
N1A_2 N 0.4010(3) 0.3537(3) 0.2229(3)
N2A N 0.4834(3) 1.2737(3) -0.8366(3)
N2A_2 N 0.4834(3) 0.2737(3) 0.1634(3)
N3A N 0.4605(3) 1.1684(3) -0.6861(3)
C1A C 0.3896(4) 1.2892(4) -0.6878(3)
H1A H 0.3395 1.3214 -0.6323
C2A C 0.5189(4) 1.1634(4) -0.7808(3)
H2A H 0.5752 1.0929 -0.8028
C3A C 0.4818(4) 1.0782(4) -0.5923(3)
C4A C 0.3400(4) 0.9792(4) -0.6027(3)
H3A H 0.2339 0.9665 -0.6712
C5A C 0.6405(4) 1.1003(4) -0.4912(3)
H4A H 0.7338 1.1684 -0.4863
C6A C -0.2357(4) 1.1910(4) -0.0386(3)
C7A C -0.1120(4) 1.0926(3) -0.0161(3)
C8A C -0.1233(4) 0.9769(4) 0.0443(3)
H5A H -0.2066 0.9616 0.0743
C9A C 0.0132(4) 1.1165(4) -0.0611(3)
H6A H 0.0224 1.1940 -0.1017
C10A C -0.0883(4) 0.4578(3) 0.7151(3)
C11A C -0.0436(4) 0.4793(3) 0.6035(3)
C12A C -0.1667(4) 0.4706(4) 0.4776(3)
H7A H -0.2797 0.4514 0.4620
C13A C 0.1243(4) 0.5102(4) 0.6245(3)
H8A H 0.2088 0.5181 0.7079
C14A C 1.3149(4) 1.2054(4) 0.7152(3)
C15A C 1.1508(4) 1.0992(4) 0.6033(3)
C16A C 1.0776(4) 1.1312(4) 0.4813(3)
H9A H 1.1297 1.2192 0.4687
C17A C 1.0717(4) 0.9669(4) 0.6211(3)
H10A H 1.1194 0.9445 0.7021
H11A H 0.753(2) 0.522(5) 0.050(3)
loop_
_geom_bond_atom_site_label_1
_geom_bond_atom_site_label_2
_geom_bond_site_symmetry_1
_geom_bond_site_symmetry_2
Zn1 O1 1_555 1_555
Zn2 O1 1_555 1_555
O1 H11 1_555 1_555
O2 Zn1 1_555 1_555
O3 Zn2 1_555 1_555
O4 Zn2 1_555 1_555
O5 C10 1_555 1_555
O6 Zn2 1_555 1_555
O7 Zn1 1_555 1_555
N1 N2 1_555 1_555
N2 Zn1 1_555 1_555
N3 C1 1_555 1_555
C1 N1 1_555 1_555
H1 C1 1_555 1_555
C2 N2 1_555 1_555
H2 C2 1_555 1_555
C3 N3 1_555 1_555
C4 C3 1_555 1_555
H3 C4 1_555 1_555
C5 C3 1_555 1_555
H4 C5 1_555 1_555
C6 O2 1_555 1_555
C7 C6 1_555 1_555
C8 C7 1_555 1_555
H5 C8 1_555 1_555
C9 C7 1_555 1_555
H6 C9 1_555 1_555
C10 O4 1_555 1_555
C11 C10 1_555 1_555
C12 C11 1_555 1_555
H7 C12 1_555 1_555
C13 C11 1_555 1_555
H8 C13 1_555 1_555
C14 O6 1_555 1_555
C15 C14 1_555 1_555
C16 C15 1_555 1_555
H9 C16 1_555 1_555
C17 C15 1_555 1_555
H10 C17 1_555 1_555
Zn1A O1 1_555 1_555
Zn1A_2 O2A 1_555 1_555
Zn1A_3 O7A 1_555 1_555
Zn1A_4 N2A 1_555 1_555
Zn2A N1 1_555 1_555
Zn2A_2 O3A 1_555 1_555
Zn2A_3 O4A 1_555 1_555
Zn2A_4 O6A 1_555 1_555
Zn2_2 N1A 1_555 1_555
O1A Zn1 1_555 1_555
O2A C6A 1_555 1_555
O2A_2 Zn1A 1_555 1_555
O3A C6A 1_555 1_555
O3A_2 Zn2A 1_555 1_555
O4A C10A 1_555 1_555
O4A_2 Zn2A 1_555 1_555
O5A C10A 1_555 1_555
O6A C14A 1_555 1_555
O6A_2 Zn2A 1_555 1_555
O7A C14A 1_555 1_555
O7A_2 Zn1A 1_555 1_555
N1A N2A 1_555 1_555
N1A_2 Zn2 1_555 1_555
N2A C2A 1_555 1_555
N2A_2 Zn1A 1_555 1_555
N3A C1A 1_555 1_555
C1A N1A 1_555 1_555
H1A C1A 1_555 1_555
C2A N3A 1_555 1_555
H2A C2A 1_555 1_555
C3A N3A 1_555 1_555
C4A C5 1_555 1_555
H3A C4A 1_555 1_555
C5A C4 1_555 1_555
H4A C5A 1_555 1_555
C6A C7A 1_555 1_555
C7A C8A 1_555 1_555
C8A C9 1_555 1_555
H5A C8A 1_555 1_555
C9A C8 1_555 1_555
H6A C9A 1_555 1_555
C10A C11A 1_555 1_555
C11A C12A 1_555 1_555
C12A C13 1_555 1_555
H7A C12A 1_555 1_555
C13A C12 1_555 1_555
H8A C13A 1_555 1_555
C14A C15A 1_555 1_555
C15A C16A 1_555 1_555
C16A C17 1_555 1_555
H9A C16A 1_555 1_555
C17A C16 1_555 1_555
H10A C17A 1_555 1_555
H11A O1A 1_555 1_555
O3 C6 1_555 1_555
O7 C14 1_555 1_555
N3 C2 1_555 1_555
Zn1A O1A 1_555 1_555
Zn2A O1A 1_555 1_555
N1A_2 N2A_2 1_555 1_555
C3A C4A 1_555 1_555
C3A C5A 1_555 1_555
C7A C9A 1_555 1_555
C11A C13A 1_555 1_555
C15A C17A 1_555 1_555

#END
