
#######################################################################
#
#                 Cambridge Crystallographic Data Centre
#                                CCDC 
#
#######################################################################
#
# If this CIF has been generated from an entry in the Cambridge 
# Structural Database, then it will include bibliographic, chemical, 
# crystal, experimental, refinement or atomic coordinate data resulting 
# from the CCDC's data processing and validation procedures.
#
#######################################################################

data_VEHMIF
_symmetry_cell_setting           monoclinic
_symmetry_space_group_name_H-M   'C 2/c'
_symmetry_Int_Tables_number      15
_space_group_name_Hall           '-C 2yn'
loop_
_symmetry_equiv_pos_site_id
_symmetry_equiv_pos_as_xyz
1 x,y,z
2 1/2+x,1/2+y,z
3 -x,y,1/2-z
4 1/2-x,1/2+y,1/2-z
5 -x,-y,-z
6 1/2-x,1/2-y,-z
7 x,-y,1/2+z
8 1/2+x,1/2-y,1/2+z
_cell_length_a                   35.42(6)
_cell_length_b                   5.697(9)
_cell_length_c                   14.286(24)
_cell_angle_alpha                90
_cell_angle_beta                 114.96(5)
_cell_angle_gamma                90
_cell_volume                     2613.5
loop_
_atom_site_label
_atom_site_type_symbol
_atom_site_fract_x
_atom_site_fract_y
_atom_site_fract_z
C1 C -0.1526 0.67 0.4373
C2 C -0.1876 0.35 0.4
C3 C -0.1876 0.35 0.4893
C4 C -0.1516 0.67 0.5333
C5 C -0.2056 0.155 0.32
Mo1 Mo 0.0000 0.6396 0.2500
Mo2 Mo 0.0376 0.1691 0.4795
Mo3 Mo -0.0631 0.2825 0.3093
N1 N -0.1658 0.5000 0.3673
N2 N -0.1658 0.5000 0.5703
Co1 Co -0.1678 0.49 0.2173
O1 O 0.0144 0.8277 0.3546
O2 O -0.2077 0.1817 0.2127
O3 O -0.15 0.85 0.22
O4 O 0.005 0.328 0.3543
O5 O 0.0562 0.5429 0.272
O6 O 0.0446 0.3927 0.5674
O7 O -0.033 0.1094 0.4402
O8 O 0.0868 0.1156 0.4884
O9 O -0.1128 0.3361 0.3006
O10 O -0.0736 0.0535 0.226
O11 O -0.225 0.65 0.2
O12 O -0.2227 -0.0083 0.3394
C1F C -0.1526 0.33 -0.0627
C2F C -0.1876 0.65 -0.1
C3F C -0.1876 0.65 -0.0107
C4F C -0.1516 0.33 0.0333
C5F C -0.2056 0.845 -0.18
Mo2B Mo -0.0376 0.1691 0.0205
Mo2D Mo -0.0376 -0.1691 0.5205
Mo2D_2 Mo -0.0376 0.8309 0.5205
Mo3B Mo 0.0631 0.2825 0.1907
Mo3D Mo 0.0631 0.7175 0.6907
Mo3D_2 Mo 0.0631 -0.2825 0.6907
N1F N -0.1658 0.5000 -0.1327
N1B N 0.1658 0.5000 0.1327
N2F N -0.1658 0.5000 0.0703
N2D N 0.1658 0.5000 0.4297
Co1B Co 0.1678 0.49 0.2827
Co1F Co -0.1678 0.51 0.7173
Co1F_2 Co -0.1678 0.51 -0.2827
O1B O -0.0144 0.8277 0.1454
O2F O -0.2077 0.8183 -0.2873
O2B O 0.2077 0.1817 0.2873
O3B O 0.15 0.85 0.28
O4B O -0.005 0.328 0.1457
O5B O -0.0562 0.5429 0.228
O6D O -0.0446 0.6073 0.4326
O6B O -0.0446 0.3927 -0.0674
O6F O 0.0446 0.6073 0.0674
O7D O 0.033 -0.1094 0.5598
O7F O -0.033 -0.1094 -0.0598
O7B O 0.033 0.1094 0.0598
O8B O -0.0868 0.1156 0.0116
O9B O 0.1128 0.3361 0.1994
O10B O 0.0736 0.0535 0.274
O11B O 0.225 0.65 0.3
O12F O -0.2227 1.0083 -0.1606
loop_
_geom_bond_atom_site_label_1
_geom_bond_atom_site_label_2
_geom_bond_site_symmetry_1
_geom_bond_site_symmetry_2
C1 C4 1_555 1_555
C2 C3 1_555 1_555
C3 N2 1_555 1_555
C4 N2 1_555 1_555
C5 C2 1_555 1_555
Mo1 O1 1_555 1_555
Mo2 O4 1_555 1_555
Mo3 O4 1_555 1_555
N1 C1 1_555 1_555
N2 Co1F 1_555 1_555
Co1 N1 1_555 1_555
O2 C5 1_555 1_555
O3 Co1 1_555 1_555
O4 Mo1 1_555 1_555
O5 Mo1 1_555 1_555
O6 Mo2 1_555 1_555
O7 Mo2 1_555 1_555
O8 Mo2 1_555 1_555
O9 Mo3 1_555 1_555
O10 Mo3 1_555 1_555
O11 Co1 1_555 1_555
O12 C5 1_555 1_555
C1F C4F 1_555 1_555
C2F C3F 1_555 1_555
C3F N2F 1_555 1_555
C4F N2F 1_555 1_555
C5F C2F 1_555 1_555
Mo2B O4B 1_555 1_555
Mo2D O7 1_555 1_555
Mo2D_2 O6D 1_555 1_555
Mo3B O5 1_555 1_555
Mo3D O6 1_555 1_555
Mo3D_2 O7D 1_555 1_555
N1F C1F 1_555 1_555
N1B Co1B 1_555 1_555
N2F Co1 1_555 1_555
N2D Co1B 1_555 1_555
Co1B O2B 1_555 1_555
Co1F_2 N1F 1_555 1_555
O1B Mo1 1_555 1_555
O2F C5F 1_555 1_555
O3B Co1B 1_555 1_555
O4B Mo1 1_555 1_555
O5B Mo1 1_555 1_555
O6D Mo3 1_555 1_555
O6B Mo2B 1_555 1_555
O6F Mo3B 1_555 1_555
O7D Mo2 1_555 1_555
O7F Mo2B 1_555 1_555
O7B Mo2B 1_555 1_555
O8B Mo2B 1_555 1_555
O9B Mo3B 1_555 1_555
O10B Mo3B 1_555 1_555
O11B Co1B 1_555 1_555
O12F C5F 1_555 1_555
C2 N1 1_555 1_555
Mo3 O7 1_555 1_555
Mo3 O5B 1_555 1_555
Co1 O2 1_555 1_555
Co1 O9 1_555 1_555
C2F N1F 1_555 1_555
Mo2D O7D 1_555 1_555
Mo3B O4B 1_555 1_555
Mo3B O7B 1_555 1_555
Co1B O9B 1_555 1_555
Co1F_2 O2F 1_555 1_555

#END
