
#######################################################################
#
#                 Cambridge Crystallographic Data Centre
#                                CCDC 
#
#######################################################################
#
# If this CIF has been generated from an entry in the Cambridge 
# Structural Database, then it will include bibliographic, chemical, 
# crystal, experimental, refinement or atomic coordinate data resulting 
# from the CCDC's data processing and validation procedures.
#
#######################################################################

data_VEHMOL
_symmetry_cell_setting           monoclinic
_symmetry_space_group_name_H-M   'C c'
_symmetry_Int_Tables_number      9
_space_group_name_Hall           'C -2yc'
loop_
_symmetry_equiv_pos_site_id
_symmetry_equiv_pos_as_xyz
1 x,y,z
2 x,-y,1/2+z
3 1/2+x,1/2+y,z
4 1/2+x,1/2-y,1/2+z
_cell_length_a                   33.217(4)
_cell_length_b                   5.6416(8)
_cell_length_c                   13.9824(18)
_cell_angle_alpha                90
_cell_angle_beta                 99.407(8)
_cell_angle_gamma                90
_cell_volume                     2585.02
loop_
_atom_site_label
_atom_site_type_symbol
_atom_site_fract_x
_atom_site_fract_y
_atom_site_fract_z
Mo1 Mo 0.311661(18) 0.70332(12) 0.40205(4)
Mo2 Mo 0.218670(19) 0.82786(13) 0.43461(4)
Mo3 Mo 0.25117(3) 0.35852(8) 0.25444(6)
Mo4 Mo 0.192100(19) 1.27989(12) 0.60823(4)
Mo5 Mo 0.286130(19) 1.16463(12) 0.57954(4)
Ni1 Ni 0.41366(3) 0.47859(15) 0.49767(6)
O1 O 0.46735(16) 0.9917(9) 0.3584(4)
O2 O 0.44213(15) 0.7880(8) 0.4713(4)
O5 O 0.35894(18) 0.6404(10) 0.4752(4)
O6 O 0.28370(16) 0.8862(10) 0.4915(4)
O7 O 0.30599(16) 0.4486(10) 0.3118(4)
O8 O 0.32369(18) 0.9299(11) 0.3341(4)
O9 O 0.22236(16) 1.0983(10) 0.5235(4)
O10 O 0.21103(18) 0.6014(10) 0.5120(4)
O11 O 0.17104(18) 0.8776(10) 0.3727(4)
O12 O 0.24686(18) 0.6708(9) 0.3502(4)
O13 O 0.23626(19) 1.1691(9) 0.3396(4)
O14 O 0.19554(16) 0.4593(10) 0.1975(4)
O15 O 0.26569(18) 0.1689(9) 0.1721(4)
O16 O 0.25636(18) 0.6735(9) 0.1622(4)
O17 O 0.17983(16) 1.0585(10) 0.6794(4)
O18 O 0.14783(17) 1.3129(9) 0.5260(4)
O19 O 0.29284(17) 0.3847(10) 0.5002(4)
O20 O 0.33466(18) 1.1183(11) 0.6392(4)
O21 O 0.38764(16) 0.1565(9) 0.5068(4)
H1 H 0.3642 0.1938 0.5391
H2 H 0.3984 0.0305 0.4962
O22 O 0.47028(16) 0.3116(9) 0.5209(4)
H3 H 0.4917 0.3995 0.5024
H4 H 0.4680 0.1887 0.4743
N1 N 0.41527(17) 0.4873(10) 0.1506(4)
N2 N 0.41007(18) 0.4615(10) 0.3466(4)
C1 C 0.4312(2) 0.6320(12) 0.3115(5)
C2 C 0.4348(2) 0.6442(15) 0.2147(6)
H11 H 0.4508 0.7619 0.1934
C3 C 0.3925(2) 0.3230(12) 0.1847(5)
H12 H 0.3777 0.2164 0.1418
C4 C 0.3902(2) 0.3074(13) 0.2833(5)
H13 H 0.3747 0.1882 0.3052
C5 C 0.4490(2) 0.8177(12) 0.3850(5)
Mo3_2 Mo 0.25117(3) 1.35852(8) 0.25444(6)
Mo4_2 Mo 0.192100(19) 0.27989(12) 0.60823(4)
Mo4A Mo 0.192100(19) 0.72011(12) 0.10823(4)
Mo5A Mo 0.286130(19) -0.16463(12) 0.07954(4)
Mo5A_2 Mo 0.286130(19) 0.83537(12) 0.07954(4)
Mo5_2 Mo 0.286130(19) 0.16463(12) 0.57954(4)
Ni1A Ni 0.41366(3) 0.52141(15) -0.00233(6)
O10_2 O 0.21103(18) 1.6014(10) 0.5120(4)
O13_2 O 0.23626(19) 0.1691(9) 0.3396(4)
O14A O 0.19554(16) 1.5407(10) 0.6975(4)
O15A O 0.26569(18) 0.8311(9) 0.6721(4)
O16A O 0.25636(18) 1.3265(9) 0.6622(4)
O19_2 O 0.29284(17) 1.3847(10) 0.5002(4)
N1A N 0.41527(17) 0.5127(10) 0.6506(4)
Ni2 Ni 0.57773(3) 1.03966(16) 0.27792(7)
O3 O 0.55087(14) 0.7306(8) 0.3053(3)
O4 O 0.52352(16) 0.5308(9) 0.4170(4)
O23 O 0.51982(15) 1.2003(9) 0.2529(3)
H5 H 0.4990 1.0905 0.2610
H6 H 0.5202 1.3470 0.2776
O24 O 0.59984(14) 1.3620(8) 0.2552(3)
H7 H 0.5971 1.4981 0.2786
H8 H 0.6285 1.3811 0.2623
O25 O 0.63467(15) 0.8799(8) 0.3064(4)
H9 H 0.6437 0.8761 0.3745
H10 H 0.6527 0.9576 0.2705
N3 N 0.57858(17) 1.0693(10) 0.4289(4)
N4 N 0.57530(18) 1.0317(10) 0.6267(4)
C6 C 0.5587(2) 0.8918(12) 0.4639(5)
C7 C 0.5568(2) 0.8737(13) 0.5609(5)
H14 H 0.5423 0.7486 0.5822
C8 C 0.5954(2) 1.2074(12) 0.5926(5)
H15 H 0.6086 1.3194 0.6355
C9 C 0.5971(2) 1.2280(13) 0.4925(5)
H16 H 0.6113 1.3535 0.4707
C10 C 0.5427(2) 0.7025(12) 0.3918(5)
Ni2A Ni 0.57773(3) 0.96034(16) 0.77792(7)
N4A N 0.57530(18) 0.9683(10) 0.1267(4)
loop_
_geom_bond_atom_site_label_1
_geom_bond_atom_site_label_2
_geom_bond_site_symmetry_1
_geom_bond_site_symmetry_2
Mo1 O5 1_555 1_555
Mo2 O6 1_555 1_555
Mo3 O7 1_555 1_555
Mo4 O9 1_555 1_555
Mo5 O6 1_555 1_555
Ni1 O2 1_555 1_555
Ni2 O3 1_555 1_555
O1 C5 1_555 1_555
O2 C5 1_555 1_555
O3 C10 1_555 1_555
O4 C10 1_555 1_555
O5 Ni1 1_555 1_555
O6 Mo1 1_555 1_555
O7 Mo1 1_555 1_555
O8 Mo1 1_555 1_555
O9 Mo2 1_555 1_555
O10 Mo2 1_555 1_555
O11 Mo2 1_555 1_555
O12 Mo1 1_555 1_555
O13 Mo2 1_555 1_555
O14 Mo3 1_555 1_555
O15 Mo3 1_555 1_555
O16 Mo3 1_555 1_555
O17 Mo4 1_555 1_555
O18 Mo4 1_555 1_555
O19 Mo1 1_555 1_555
O20 Mo5 1_555 1_555
O21 Ni1 1_555 1_555
H1 O21 1_555 1_555
H2 O21 1_555 1_555
O22 Ni1 1_555 1_555
H3 O22 1_555 1_555
H4 O22 1_555 1_555
O23 Ni2 1_555 1_555
H5 O23 1_555 1_555
H6 O23 1_555 1_555
O24 Ni2 1_555 1_555
H7 O24 1_555 1_555
H8 O24 1_555 1_555
O25 Ni2 1_555 1_555
H9 O25 1_555 1_555
H10 O25 1_555 1_555
N1 C2 1_555 1_555
N2 Ni1 1_555 1_555
N3 Ni2 1_555 1_555
N4 C7 1_555 1_555
C1 N2 1_555 1_555
C2 C1 1_555 1_555
H11 C2 1_555 1_555
C3 N1 1_555 1_555
H12 C3 1_555 1_555
C4 N2 1_555 1_555
H13 C4 1_555 1_555
C5 C1 1_555 1_555
C6 N3 1_555 1_555
C7 C6 1_555 1_555
H14 C7 1_555 1_555
C8 N4 1_555 1_555
H15 C8 1_555 1_555
C9 N3 1_555 1_555
H16 C9 1_555 1_555
C10 C6 1_555 1_555
Mo3_2 O13 1_555 1_555
Mo4_2 O10 1_555 1_555
Mo4A O14 1_555 1_555
Mo5A O15 1_555 1_555
Mo5A_2 O16 1_555 1_555
Mo5_2 O19 1_555 1_555
Ni1A N1 1_555 1_555
Ni2A N4 1_555 1_555
O10_2 Mo4 1_555 1_555
O13_2 Mo3 1_555 1_555
O14A Mo4 1_555 1_555
O15A Mo5 1_555 1_555
O16A Mo4 1_555 1_555
O19_2 Mo5 1_555 1_555
N1A Ni1 1_555 1_555
N4A Ni2 1_555 1_555
Mo2 O12 1_555 1_555
Mo3 O12 1_555 1_555
Mo5 O9 1_555 1_555
Mo5 O16A 1_555 1_555
O16 Mo4A 1_555 1_555
C3 C4 1_555 1_555
C8 C9 1_555 1_555

#END
