
#######################################################################
#
#                 Cambridge Crystallographic Data Centre
#                                CCDC 
#
#######################################################################
#
# If this CIF has been generated from an entry in the Cambridge 
# Structural Database, then it will include bibliographic, chemical, 
# crystal, experimental, refinement or atomic coordinate data resulting 
# from the CCDC's data processing and validation procedures.
#
#######################################################################

data_VEHNAZ
_symmetry_cell_setting           tetragonal
_symmetry_space_group_name_H-M   'I 41 m d'
_symmetry_Int_Tables_number      109
_space_group_name_Hall           'I 4bw -2'
loop_
_symmetry_equiv_pos_site_id
_symmetry_equiv_pos_as_xyz
1 x,y,z
2 -y,1/2+x,1/4+z
3 -x,-y,z
4 y,1/2-x,1/4+z
5 -x,y,z
6 x,-y,z
7 -y,1/2-x,1/4+z
8 y,1/2+x,1/4+z
9 1/2+x,1/2+y,1/2+z
10 1/2-y,x,3/4+z
11 1/2-x,1/2-y,1/2+z
12 1/2+y,-x,3/4+z
13 1/2-x,1/2+y,1/2+z
14 1/2+x,1/2-y,1/2+z
15 1/2-y,-x,3/4+z
16 1/2+y,x,3/4+z
_cell_length_a                   22.2357(3)
_cell_length_b                   22.2357(3)
_cell_length_c                   33.9623(5)
_cell_angle_alpha                90
_cell_angle_beta                 90
_cell_angle_gamma                90
_cell_volume                     16791.9
loop_
_atom_site_label
_atom_site_type_symbol
_atom_site_fract_x
_atom_site_fract_y
_atom_site_fract_z
Cl1 Cl 0.5000 0.67651(18) 0.74286(10)
Co1 Co 0.30504(4) 1.5000 0.61813(3)
Co2 Co 0.07082(3) 1.08730(3) 1.12300(2)
C1 C 0.1434(3) 1.1502(3) 1.05280(18)
H1 H 0.1182 1.1833 1.0499
C2 C 0.2165(3) 1.0871(3) 1.04391(16)
H2 H 0.2504 1.0683 1.0336
C3 C 0.2077(3) 1.1671(4) 0.9923(2)
C4 C 0.2253(4) 1.1298(5) 0.9601(2)
H3 H 0.2242 1.0881 0.9615
C5 C 0.2444(4) 1.1603(5) 0.9260(2)
H4 H 0.2558 1.1382 0.9040
C6 C 0.2466(5) 1.2223(6) 0.9245(4)
C7 C 0.2292(5) 1.2552(5) 0.9574(3)
H5 H 0.2321 1.2970 0.9571
C8 C 0.2081(5) 1.2271(5) 0.9898(3)
H6 H 0.1936 1.2498 1.0108
C9 C 0.2724(6) 1.2493(5) 0.8862(4)
H7 H 0.2620 1.2230 0.8645
H8 H 0.3160 1.2499 0.8882
C10 C 0.2517(5) 1.3106(4) 0.8766(3)
H9 H 0.2091 1.3149 0.8821
H10 H 0.2736 1.3403 0.8919
C11 C 0.2649(6) 1.3190(5) 0.8305(3)
C12 C 0.3206(5) 1.3315(4) 0.8230(3)
H11 H 0.3494 1.3245 0.8423
C13 C 0.3387(5) 1.3549(4) 0.7871(2)
H12 H 0.3790 1.3631 0.7824
C14 C 0.2977(4) 1.3655(4) 0.7595(2)
C15 C 0.2369(5) 1.3514(5) 0.7669(3)
H13 H 0.2077 1.3569 0.7477
C16 C 0.2220(5) 1.3291(6) 0.8037(3)
H14 H 0.1820 1.3212 0.8098
C17 C 0.2799(3) 1.4221(3) 0.69685(17)
H15 H 0.2408 1.4345 0.7019
C18 C 0.3674(3) 1.3797(3) 0.70237(15)
H16 H 0.3994 1.3573 0.7123
C19 C 0.0000 1.2003(4) 1.1330(3)
H17 H 0.0000 1.2416 1.1376
C20 C 0.0000 1.0602(4) 1.04341(16)
N1 N 0.1397(2) 1.1113(2) 1.08105(13)
N2 N 0.1883(2) 1.0707(2) 1.07567(12)
N3 N 0.1888(2) 1.1360(2) 1.02804(14)
N4 N 0.3117(2) 1.4357(2) 0.66453(13)
N5 N 0.3674(2) 1.4078(2) 0.66928(13)
N6 N 0.3135(3) 1.3878(3) 0.72078(15)
O1 O 0.3995(2) 1.5000 0.61101(12)
O2 O 0.0000 1.0580(3) 1.15812(14)
O3 O 0.05080(17) 1.17662(16) 1.13038(13)
O4 O 0.0000 1.0814(2) 1.07736(13)
O5 O -0.0496(3) 1.0391(4) 1.0336(3)
O6 O 0.2035(2) 1.5000 0.62024(16)
Co1J Co 0.19496(4) 1.0000 0.11813(3)
Co1J_2 Co 0.19496(4) 1.0000 1.11813(3)
Co1J_3 Co 0.19496(4) 2.0000 1.11813(3)
Co1J_4 Co 0.19496(4) 2.0000 0.11813(3)
Co2J Co 0.42918(3) 1.41270(3) 0.62300(2)
Co2E Co 0.07082(3) 1.91270(3) 1.12300(2)
Co2L Co 0.42918(3) 1.58730(3) 0.62300(2)
Co2D Co -0.07082(3) 1.08730(3) 1.12300(2)
Co2E_2 Co 0.07082(3) 0.91270(3) 1.12300(2)
Co2B Co -0.07082(3) 0.91270(3) 1.12300(2)
Co2_2 Co 0.07082(3) 1.08730(3) 0.12300(2)
Co2E_3 Co 0.07082(3) 1.91270(3) 0.12300(2)
Co2M Co 0.57082(3) 1.41270(3) 0.62300(2)
C1J C 0.3566(3) 1.3498(3) 0.55280(18)
C1E C 0.1434(3) 1.8498(3) 1.05280(18)
C1L C 0.3566(3) 1.6502(3) 0.55280(18)
H1J H 0.3818 1.3167 0.5499
H1E H 0.1182 1.8167 1.0499
H1L H 0.3818 1.6833 0.5499
C2J C 0.2835(3) 1.4129(3) 0.54391(16)
C2E C 0.2165(3) 1.9129(3) 1.04391(16)
C2L C 0.2835(3) 1.5871(3) 0.54391(16)
H2J H 0.2496 1.4317 0.5336
H2E H 0.2504 1.9317 1.0336
H2L H 0.2496 1.5683 0.5336
C3J C 0.2923(3) 1.3329(4) 0.4923(2)
C3E C 0.2077(3) 1.8329(4) 0.9923(2)
C3L C 0.2923(3) 1.6671(4) 0.4923(2)
C4J C 0.2747(4) 1.3702(5) 0.4601(2)
C4E C 0.2253(4) 1.8702(5) 0.9601(2)
C4L C 0.2747(4) 1.6298(5) 0.4601(2)
H3J H 0.2758 1.4119 0.4615
H3E H 0.2242 1.9119 0.9615
H3L H 0.2758 1.5881 0.4615
C5J C 0.2556(4) 1.3397(5) 0.4260(2)
C5E C 0.2444(4) 1.8397(5) 0.9260(2)
C5L C 0.2556(4) 1.6603(5) 0.4260(2)
H4J H 0.2442 1.3618 0.4040
H4E H 0.2558 1.8618 0.9040
H4L H 0.2442 1.6382 0.4040
C6J C 0.2534(5) 1.2777(6) 0.4245(4)
C6E C 0.2466(5) 1.7777(6) 0.9245(4)
C6L C 0.2534(5) 1.7223(6) 0.4245(4)
C7J C 0.2708(5) 1.2448(5) 0.4574(3)
C7E C 0.2292(5) 1.7448(5) 0.9574(3)
C7L C 0.2708(5) 1.7552(5) 0.4574(3)
H5J H 0.2679 1.2030 0.4571
H5E H 0.2321 1.7030 0.9571
H5L H 0.2679 1.7970 0.4571
C8J C 0.2919(5) 1.2729(5) 0.4898(3)
C8E C 0.2081(5) 1.7729(5) 0.9898(3)
C8L C 0.2919(5) 1.7271(5) 0.4898(3)
H6J H 0.3064 1.2502 0.5108
H6E H 0.1936 1.7502 1.0108
H6L H 0.3064 1.7498 0.5108
C9J C 0.2276(6) 1.2507(5) 0.3862(4)
C9E C 0.2724(6) 1.7507(5) 0.8862(4)
C9L C 0.2276(6) 1.7493(5) 0.3862(4)
H7J H 0.2380 1.2770 0.3645
H7E H 0.2620 1.7770 0.8645
H7L H 0.2380 1.7230 0.3645
H8J H 0.1840 1.2501 0.3882
H8E H 0.3160 1.7501 0.8882
H8L H 0.1840 1.7499 0.3882
C10J C 0.2483(5) 1.1894(4) 0.3766(3)
C10E C 0.2517(5) 1.6894(4) 0.8766(3)
C10L C 0.2483(5) 1.8106(4) 0.3766(3)
H9J H 0.2909 1.1851 0.3821
H9E H 0.2091 1.6851 0.8821
H9L H 0.2909 1.8149 0.3821
H10J H 0.2264 1.1597 0.3919
H10E H 0.2736 1.6597 0.8919
H10L H 0.2264 1.8403 0.3919
C11J C 0.2351(6) 1.1810(5) 0.3305(3)
C11E C 0.2649(6) 1.6810(5) 0.8305(3)
C11L C 0.2351(6) 1.8190(5) 0.3305(3)
C12J C 0.1794(5) 1.1685(4) 0.3230(3)
C12E C 0.3206(5) 1.6685(4) 0.8230(3)
C12L C 0.1794(5) 1.8315(4) 0.3230(3)
H11J H 0.1506 1.1755 0.3423
H11E H 0.3494 1.6755 0.8423
H11L H 0.1506 1.8245 0.3423
C13J C 0.1613(5) 1.1451(4) 0.2871(2)
C13E C 0.3387(5) 1.6451(4) 0.7871(2)
C13L C 0.1613(5) 1.8549(4) 0.2871(2)
H12J H 0.1210 1.1369 0.2824
H12E H 0.3790 1.6369 0.7824
H12L H 0.1210 1.8631 0.2824
C14J C 0.2023(4) 1.1345(4) 0.2595(2)
C14E C 0.2977(4) 1.6345(4) 0.7595(2)
C14L C 0.2023(4) 1.8655(4) 0.2595(2)
C15J C 0.2631(5) 1.1486(5) 0.2669(3)
C15E C 0.2369(5) 1.6486(5) 0.7669(3)
C15L C 0.2631(5) 1.8514(5) 0.2669(3)
H13J H 0.2923 1.1431 0.2477
H13E H 0.2077 1.6431 0.7477
H13L H 0.2923 1.8569 0.2477
C16J C 0.2780(5) 1.1709(6) 0.3037(3)
C16E C 0.2220(5) 1.6709(6) 0.8037(3)
C16L C 0.2780(5) 1.8291(6) 0.3037(3)
H14J H 0.3180 1.1788 0.3098
H14E H 0.1820 1.6788 0.8098
H14L H 0.3180 1.8212 0.3098
C17J C 0.2201(3) 1.0779(3) 0.19685(17)
C17E C 0.2799(3) 1.5779(3) 0.69685(17)
C17L C 0.2201(3) 1.9221(3) 0.19685(17)
H15J H 0.2592 1.0655 0.2019
H15E H 0.2408 1.5655 0.7019
H15L H 0.2592 1.9345 0.2019
C18J C 0.1326(3) 1.1203(3) 0.20237(15)
C18E C 0.3674(3) 1.6203(3) 0.70237(15)
C18L C 0.1326(3) 1.8797(3) 0.20237(15)
H16J H 0.1006 1.1427 0.2123
H16E H 0.3994 1.6427 0.7123
H16L H 0.1006 1.8573 0.2123
C19J C 0.5000 1.2997(4) 0.6330(3)
H17J H 0.5000 1.2584 0.6376
C20B C 0.0000 0.9398(4) 1.04341(16)
N1J N 0.3603(2) 1.3887(2) 0.58105(13)
N1E N 0.1397(2) 1.8887(2) 1.08105(13)
N1L N 0.3603(2) 1.6113(2) 0.58105(13)
N2J N 0.3117(2) 1.4293(2) 0.57567(12)
N2E N 0.1883(2) 1.9293(2) 1.07567(12)
N2L N 0.3117(2) 1.5707(2) 0.57567(12)
N2_2 N 0.1883(2) 1.0707(2) 0.07567(12)
N2E_2 N 0.1883(2) 0.9293(2) 0.07567(12)
N3J N 0.3112(2) 1.3640(2) 0.52804(14)
N3E N 0.1888(2) 1.8640(2) 1.02804(14)
N3L N 0.3112(2) 1.6360(2) 0.52804(14)
N4J N 0.1883(2) 1.0643(2) 0.16453(13)
N4E N 0.3117(2) 1.5643(2) 0.66453(13)
N4L N 0.1883(2) 1.9357(2) 0.16453(13)
N4L_2 N 0.1883(2) 0.9357(2) 0.16453(13)
N5J N 0.1326(2) 1.0922(2) 0.16928(13)
N5E N 0.3674(2) 1.5922(2) 0.66928(13)
N5L N 0.1326(2) 1.9078(2) 0.16928(13)
N5J_2 N 0.1326(2) 1.0922(2) 1.16928(13)
N5L_2 N 0.1326(2) 1.9078(2) 1.16928(13)
N6J N 0.1865(3) 1.1122(3) 0.22078(15)
N6E N 0.3135(3) 1.6122(3) 0.72078(15)
N6L N 0.1865(3) 1.8878(3) 0.22078(15)
O1J O 0.1005(2) 1.0000 1.11101(12)
O1J_2 O 0.1005(2) 1.0000 0.11101(12)
O1J_3 O 0.1005(2) 2.0000 1.11101(12)
O2J O 0.5000 1.4420(3) 0.65812(14)
O2B O 0.0000 1.9420(3) 1.15812(14)
O2H O 0.5000 1.5580(3) 0.65812(14)
O3D O -0.05080(17) 1.17662(16) 1.13038(13)
O3J O 0.44920(17) 1.32338(16) 0.63038(13)
O3M O 0.55080(17) 1.32338(16) 0.63038(13)
O3E O 0.05080(17) 1.82338(16) 1.13038(13)
O3L O 0.44920(17) 1.67662(16) 0.63038(13)
O4B O 0.0000 0.9186(2) 1.07736(13)
O4J O 0.5000 1.4186(2) 0.57736(13)
O4B_2 O 0.0000 1.9186(2) 1.07736(13)
O4H O 0.5000 1.5814(2) 0.57736(13)
O5E O -0.0496(3) 0.9609(4) 1.0336(3)
O5B O 0.0496(3) 0.9609(4) 1.0336(3)
O5D O 0.0496(3) 1.0391(4) 1.0336(3)
O6J O 0.2965(2) 1.0000 0.12024(16)
loop_
_geom_bond_atom_site_label_1
_geom_bond_atom_site_label_2
_geom_bond_site_symmetry_1
_geom_bond_site_symmetry_2
Co1 N4 1_555 1_555
Co2 N1 1_555 1_555
C1 H1 1_555 1_555
C2 H2 1_555 1_555
C3 C4 1_555 1_555
C4 H3 1_555 1_555
C5 C4 1_555 1_555
H4 C5 1_555 1_555
C6 C5 1_555 1_555
C7 C6 1_555 1_555
H5 C7 1_555 1_555
C8 C3 1_555 1_555
H6 C8 1_555 1_555
C9 C6 1_555 1_555
H7 C9 1_555 1_555
H8 C9 1_555 1_555
C10 C9 1_555 1_555
H9 C10 1_555 1_555
H10 C10 1_555 1_555
C11 C10 1_555 1_555
C12 C11 1_555 1_555
H11 C12 1_555 1_555
C13 C12 1_555 1_555
H12 C13 1_555 1_555
C14 C13 1_555 1_555
C15 C14 1_555 1_555
H13 C15 1_555 1_555
C16 C11 1_555 1_555
H14 C16 1_555 1_555
C17 H15 1_555 1_555
C18 H16 1_555 1_555
C19 H17 1_555 1_555
C20 O4 1_555 1_555
N1 C1 1_555 1_555
N2 C2 1_555 1_555
N3 C1 1_555 1_555
N4 C17 1_555 1_555
N5 C18 1_555 1_555
N6 C14 1_555 1_555
O1 Co1 1_555 1_555
O2 Co2 1_555 1_555
O3 Co2 1_555 1_555
O4 Co2 1_555 1_555
O5 C20 1_555 1_555
O6 Co1 1_555 1_555
Co1J N2_2 1_555 1_555
Co1J_2 N2 1_555 1_555
Co1J_3 N2E 1_555 1_555
Co1J_4 N4L 1_555 1_555
Co2J N5 1_555 1_555
Co2E N1E 1_555 1_555
Co2L O1 1_555 1_555
Co2D O2 1_555 1_555
Co2E_2 O1J 1_555 1_555
Co2B O4B 1_555 1_555
Co2_2 N5J 1_555 1_555
Co2E_3 N5L 1_555 1_555
Co2M O2J 1_555 1_555
C1J H1J 1_555 1_555
C1E H1E 1_555 1_555
C1L H1L 1_555 1_555
C2J H2J 1_555 1_555
C2E H2E 1_555 1_555
C2L H2L 1_555 1_555
C3J C4J 1_555 1_555
C3E C4E 1_555 1_555
C3L C4L 1_555 1_555
C4J H3J 1_555 1_555
C4E H3E 1_555 1_555
C4L H3L 1_555 1_555
C5J C4J 1_555 1_555
C5E C4E 1_555 1_555
C5L C4L 1_555 1_555
H4J C5J 1_555 1_555
H4E C5E 1_555 1_555
H4L C5L 1_555 1_555
C6J C5J 1_555 1_555
C6E C5E 1_555 1_555
C6L C5L 1_555 1_555
C7J C6J 1_555 1_555
C7E C6E 1_555 1_555
C7L C6L 1_555 1_555
H5J C7J 1_555 1_555
H5E C7E 1_555 1_555
H5L C7L 1_555 1_555
C8J C3J 1_555 1_555
C8E C3E 1_555 1_555
C8L C3L 1_555 1_555
H6J C8J 1_555 1_555
H6E C8E 1_555 1_555
H6L C8L 1_555 1_555
C9J C6J 1_555 1_555
C9E C6E 1_555 1_555
C9L C6L 1_555 1_555
H7J C9J 1_555 1_555
H7E C9E 1_555 1_555
H7L C9L 1_555 1_555
H8J C9J 1_555 1_555
H8E C9E 1_555 1_555
H8L C9L 1_555 1_555
C10J C9J 1_555 1_555
C10E C9E 1_555 1_555
C10L C9L 1_555 1_555
H9J C10J 1_555 1_555
H9E C10E 1_555 1_555
H9L C10L 1_555 1_555
H10J C10J 1_555 1_555
H10E C10E 1_555 1_555
H10L C10L 1_555 1_555
C11J C10J 1_555 1_555
C11E C10E 1_555 1_555
C11L C10L 1_555 1_555
C12J C11J 1_555 1_555
C12E C11E 1_555 1_555
C12L C11L 1_555 1_555
H11J C12J 1_555 1_555
H11E C12E 1_555 1_555
H11L C12L 1_555 1_555
C13J C12J 1_555 1_555
C13E C12E 1_555 1_555
C13L C12L 1_555 1_555
H12J C13J 1_555 1_555
H12E C13E 1_555 1_555
H12L C13L 1_555 1_555
C14J C13J 1_555 1_555
C14E C13E 1_555 1_555
C14L C13L 1_555 1_555
C15J C14J 1_555 1_555
C15E C14E 1_555 1_555
C15L C14L 1_555 1_555
H13J C15J 1_555 1_555
H13E C15E 1_555 1_555
H13L C15L 1_555 1_555
C16J C11J 1_555 1_555
C16E C11E 1_555 1_555
C16L C11L 1_555 1_555
H14J C16J 1_555 1_555
H14E C16E 1_555 1_555
H14L C16L 1_555 1_555
C17J H15J 1_555 1_555
C17E H15E 1_555 1_555
C17L H15L 1_555 1_555
C18J H16J 1_555 1_555
C18E H16E 1_555 1_555
C18L H16L 1_555 1_555
C19J H17J 1_555 1_555
C20B O4B 1_555 1_555
N1J Co2J 1_555 1_555
N1E C1E 1_555 1_555
N1L Co2L 1_555 1_555
N2J Co1 1_555 1_555
N2E C2E 1_555 1_555
N2L Co1 1_555 1_555
N2E_2 Co1J 1_555 1_555
N3J C1J 1_555 1_555
N3E C1E 1_555 1_555
N3L C1L 1_555 1_555
N4J Co1J 1_555 1_555
N4E Co1 1_555 1_555
N4L C17L 1_555 1_555
N4L_2 Co1J 1_555 1_555
N5J C18J 1_555 1_555
N5E Co2L 1_555 1_555
N5L C18L 1_555 1_555
N5J_2 Co2 1_555 1_555
N5L_2 Co2E 1_555 1_555
N6J C14J 1_555 1_555
N6E C14E 1_555 1_555
N6L C14L 1_555 1_555
O1J Co2 1_555 1_555
O1J_2 Co1J 1_555 1_555
O1J_3 Co1J_3 1_555 1_555
O2J Co2J 1_555 1_555
O2B Co2E 1_555 1_555
O2H Co2L 1_555 1_555
O3D C19 1_555 1_555
O3J Co2J 1_555 1_555
O3M Co2M 1_555 1_555
O3E Co2E 1_555 1_555
O3L Co2L 1_555 1_555
O4B Co2E_2 1_555 1_555
O4J Co2J 1_555 1_555
O4B_2 Co2E 1_555 1_555
O4H Co2L 1_555 1_555
O5E O5 1_555 1_555
O5B C20B 1_555 1_555
O5D C20 1_555 1_555
O6J Co1J 1_555 1_555
C2 N3 1_555 1_555
C3 N3 1_555 1_555
C7 C8 1_555 1_555
C15 C16 1_555 1_555
C17 N6 1_555 1_555
C18 N6 1_555 1_555
C19 O3 1_555 1_555
N1 N2 1_555 1_555
N4 N5 1_555 1_555
O1 Co2J 1_555 1_555
O4 Co2D 1_555 1_555
Co1J_2 O1J 1_555 1_555
Co2E O1J_3 1_555 1_555
Co2D O3D 1_555 1_555
Co2_2 O1J_2 1_555 1_555
Co2M O4J 1_555 1_555
C1J N1J 1_555 1_555
C1L N1L 1_555 1_555
C2J N2J 1_555 1_555
C2J N3J 1_555 1_555
C2E N3E 1_555 1_555
C2L N2L 1_555 1_555
C2L N3L 1_555 1_555
C3J N3J 1_555 1_555
C3E N3E 1_555 1_555
C3L N3L 1_555 1_555
C7J C8J 1_555 1_555
C7E C8E 1_555 1_555
C7L C8L 1_555 1_555
C15J C16J 1_555 1_555
C15E C16E 1_555 1_555
C15L C16L 1_555 1_555
C17J N4J 1_555 1_555
C17J N6J 1_555 1_555
C17E N4E 1_555 1_555
C17E N6E 1_555 1_555
C17L N6L 1_555 1_555
C18J N6J 1_555 1_555
C18E N5E 1_555 1_555
C18E N6E 1_555 1_555
C18L N6L 1_555 1_555
C19J O3J 1_555 1_555
C19J O3M 1_555 1_555
C20B O5E 1_555 1_555
N1J N2J 1_555 1_555
N1E N2E 1_555 1_555
N1L N2L 1_555 1_555
N4J N5J 1_555 1_555
N4E N5E 1_555 1_555
N4L N5L 1_555 1_555
O5B O5D 1_555 1_555

#END
