
#######################################################################
#
#                 Cambridge Crystallographic Data Centre
#                                CCDC 
#
#######################################################################
#
# If this CIF has been generated from an entry in the Cambridge 
# Structural Database, then it will include bibliographic, chemical, 
# crystal, experimental, refinement or atomic coordinate data resulting 
# from the CCDC's data processing and validation procedures.
#
#######################################################################

data_VEHNED
_symmetry_cell_setting           hexagonal
_symmetry_space_group_name_H-M   'P 63/m'
_symmetry_Int_Tables_number      176
_space_group_name_Hall           '-P 6c'
loop_
_symmetry_equiv_pos_site_id
_symmetry_equiv_pos_as_xyz
1 x,y,z
2 -x,-y,1/2+z
3 -y,x-y,z
4 -x+y,-x,z
5 x-y,x,1/2+z
6 y,-x+y,1/2+z
7 -x,-y,-z
8 x,y,1/2-z
9 y,-x+y,-z
10 x-y,x,-z
11 -x+y,-x,1/2-z
12 -y,x-y,1/2-z
_cell_length_a                   12.606(3)
_cell_length_b                   12.606(3)
_cell_length_c                   19.668(4)
_cell_angle_alpha                90
_cell_angle_beta                 90
_cell_angle_gamma                120
_cell_volume                     2706.73
loop_
_atom_site_label
_atom_site_type_symbol
_atom_site_fract_x
_atom_site_fract_y
_atom_site_fract_z
Ni1 Ni 0.3333 0.6667 0.57657(7)
O1 O 0.4711(5) 0.6743(5) 0.5129(2)
O2 O 0.6275(5) 0.6406(6) 0.5196(3)
O3 O 0.5227(5) 0.4900(5) 0.6275(2)
N1 N 0.3751(5) 0.5486(5) 0.6266(3)
C1 C 0.5289(7) 0.6272(7) 0.5397(4)
C2 C 0.4700(7) 0.5472(6) 0.6045(4)
C3 C 0.3218(6) 0.4865(6) 0.6888(3)
C4 C 0.2107(7) 0.3803(6) 0.6889(4)
H1 H 0.1728 0.3435 0.6481
C5 C 0.3773(9) 0.5368(10) 0.7500
H2 H 0.4545 0.6066 0.7500
C6 C 0.1557(11) 0.3287(10) 0.7500
H3 H 0.0797 0.2574 0.7500
Na1 Na 0.3117(4) 0.4897(4) 0.43253(17)
Na2 Na 0.8006(15) 0.8268(14) 0.4652(9)
O4 O 0.3333 0.6667 0.3545(6)
O5 O 0.1342(9) 0.3665(11) 0.3675(7)
Ni1J Ni 0.3334 0.6667 0.92343(7)
O1G O 0.4711(5) 0.6743(5) 0.9871(2)
O1B O 0.3257(5) 0.7968(7) 0.5129(2)
O1K O 0.3257(5) 0.7968(7) 0.9871(2)
O1C O 0.2032(7) 0.5289(5) 0.5129(2)
O1J O 0.2032(7) 0.5289(5) 0.9871(2)
O1H O -0.3257(5) 0.2032(7) 0.4871(2)
O1I O 0.7968(7) 0.4711(5) 0.4871(2)
O1F O 0.5289(5) 0.3257(5) 0.4871(2)
O1I_2 O -0.2032(7) 0.4711(5) 0.4871(2)
O2G O 0.6275(5) 0.6406(6) 0.9804(3)
O2B O 0.3594(6) 0.9869(8) 0.5196(3)
O2K O 0.3594(6) 0.9869(8) 0.9804(3)
O2C O 0.0131(8) 0.3725(5) 0.5196(3)
O2J O 0.0131(8) 0.3725(5) 0.9804(3)
O2H O 0.6406(6) 1.0131(8) 0.4804(3)
O2I O 0.9869(8) 0.6275(5) 0.4804(3)
O2F O 0.3725(5) 0.3594(6) 0.4804(3)
O2I_2 O -0.0131(8) 0.6275(5) 0.4804(3)
O3G O 0.5227(5) 0.4900(5) 0.8725(2)
O3B O 0.5100(5) 1.0327(7) 0.6275(2)
O3K O 0.5100(5) 1.0327(7) 0.8725(2)
O3C O -0.0327(7) 0.4773(5) 0.6275(2)
O3J O -0.0327(7) 0.4773(5) 0.8725(2)
O3H O 0.4900(5) 0.9673(7) 0.3725(2)
O3F O 0.4773(5) 0.5100(5) 0.3725(2)
O3I O 0.0327(7) 0.5227(5) 0.3725(2)
N1G N 0.3751(5) 0.5486(5) 0.8734(3)
N1B N 0.4514(5) 0.8265(7) 0.6266(3)
N1K N 0.4514(5) 0.8265(7) 0.8734(3)
N1C N 0.1735(7) 0.6249(5) 0.6266(3)
N1J N 0.1735(7) 0.6249(5) 0.8734(3)
C1G C 0.5289(7) 0.6272(7) 0.9603(4)
C1B C 0.3728(7) 0.9017(10) 0.5397(4)
C1K C 0.3728(7) 0.9017(10) 0.9603(4)
C1C C 0.0983(10) 0.4711(7) 0.5397(4)
C1J C 0.0983(10) 0.4711(7) 0.9603(4)
C2G C 0.4700(7) 0.5472(6) 0.8955(4)
C2B C 0.4528(6) 0.9228(9) 0.6045(4)
C2K C 0.4528(6) 0.9228(9) 0.8955(4)
C2C C 0.0772(9) 0.5300(7) 0.6045(4)
C2J C 0.0772(9) 0.5300(7) 0.8955(4)
C3G C 0.3218(6) 0.4865(6) 0.8112(3)
C3B C 0.5135(6) 0.8353(8) 0.6888(3)
C3K C 0.5135(6) 0.8353(8) 0.8112(3)
C3C C 0.1647(8) 0.6782(6) 0.6888(3)
C3J C 0.1647(8) 0.6782(6) 0.8112(3)
C4G C 0.2107(7) 0.3803(6) 0.8111(4)
C4B C 0.6197(6) 0.8304(9) 0.6889(4)
C4K C 0.6197(6) 0.8304(9) 0.8111(4)
C4C C 0.1696(9) 0.7893(7) 0.6889(4)
C4J C 0.1696(9) 0.7893(7) 0.8111(4)
H1G H 0.1728 0.3435 0.8519
H1B H 0.6565 0.8293 0.6481
H1K H 0.6565 0.8293 0.8519
H1C H 0.1707 0.8272 0.6481
H1J H 0.1707 0.8272 0.8519
C5B C 0.4632(10) 0.8405(13) 0.7500
C5C C 0.1595(13) 0.6227(9) 0.7500
H2B H 0.3934 0.8479 0.7500
H2C H 0.1521 0.5455 0.7500
C6B C 0.6713(10) 0.8270(15) 0.7500
C6C C 0.1730(15) 0.8443(11) 0.7500
H3B H 0.7426 0.8223 0.7500
H3C H 0.1777 0.9203 0.7500
Na1B Na 0.5103(4) 0.8220(6) 0.43253(17)
Na1C Na 0.1780(6) 0.6883(4) 0.43253(17)
Na1F Na 0.6883(4) 0.5103(4) 0.56747(17)
Na1I Na -0.1780(6) 0.3117(4) 0.56747(17)
Na1A Na 0.6883(4) 0.5103(4) 0.93253(17)
Na1D Na -0.1780(6) 0.3117(4) 0.93253(17)
Na1E Na 0.4897(4) 1.1780(6) 0.93253(17)
Na1F_2 Na -0.3117(4) 0.5103(4) 0.56747(17)
Na1G Na 0.3117(4) 0.4897(4) 1.06747(17)
Na1H Na -0.5103(4) 0.1780(6) 0.56747(17)
Na1H_2 Na 0.4897(4) 1.1780(6) 0.56747(17)
Na1J Na 0.1780(6) 0.6883(4) 1.06747(17)
Na1K Na 0.5103(4) 0.8220(6) 1.06747(17)
Na2B Na 0.1732(14) 0.9738(21) 0.4652(9)
Na2C Na 0.0262(21) 0.1994(15) 0.4652(9)
Na2I Na 0.9738(21) 0.8006(15) 0.5348(9)
Na2G Na 0.8006(15) 0.8268(14) 1.0348(9)
Na2K Na 0.1732(14) 0.9738(21) 1.0348(9)
Na2H Na -0.1732(14) 0.0262(21) 0.5348(9)
Na2J Na 0.0262(21) 0.1994(15) 1.0348(9)
O4I O -0.3334 0.3333 0.6455(6)
O4I_2 O 0.6666 0.3333 0.6455(6)
O5B O 0.6335(11) 0.7677(14) 0.3675(7)
O5C O 0.2323(14) 0.8658(9) 0.3675(7)
O5F O 0.8658(9) 0.6335(11) 0.6325(7)
O5I O -0.2323(14) 0.1342(9) 0.6325(7)
O5J O 0.2323(14) 0.8658(9) 1.1325(7)
O5K O 0.6335(11) 0.7677(14) 1.1325(7)
O6 O 0.873(8) 0.936(5) 0.341(5)
O7 O 0.600(2) 0.476(2) 0.7500
O8 O 0.1541(18) 0.351(2) 0.2500
loop_
_geom_bond_atom_site_label_1
_geom_bond_atom_site_label_2
_geom_bond_site_symmetry_1
_geom_bond_site_symmetry_2
Ni1 O1 1_555 1_555
O1 C1 1_555 1_555
O2 C1 1_555 1_555
O3 C2 1_555 1_555
N1 Ni1 1_555 1_555
C1 C2 1_555 1_555
C2 N1 1_555 1_555
C3 N1 1_555 1_555
C4 C3 1_555 1_555
H1 C4 1_555 1_555
C5 C3 1_555 1_555
H2 C5 1_555 1_555
C6 C4 1_555 1_555
H3 C6 1_555 1_555
Na1 O1 1_555 1_555
Na2 O2 1_555 1_555
O4 Na1 1_555 1_555
O5 Na1 1_555 1_555
Ni1J O1G 1_555 1_555
O1G C1G 1_555 1_555
O1B Ni1 1_555 1_555
O1K Ni1J 1_555 1_555
O1C Ni1 1_555 1_555
O1J Ni1J 1_555 1_555
O1H Na1I 1_555 1_555
O1I Na1F 1_555 1_555
O1F Na1F 1_555 1_555
O1I_2 Na1I 1_555 1_555
O2G C1G 1_555 1_555
O2B C1B 1_555 1_555
O2K C1K 1_555 1_555
O2C C1C 1_555 1_555
O2J C1J 1_555 1_555
O2H Na1B 1_555 1_555
O2I Na2I 1_555 1_555
O2F Na1 1_555 1_555
O2I_2 Na1C 1_555 1_555
O3G C2G 1_555 1_555
O3B C2B 1_555 1_555
O3K C2K 1_555 1_555
O3C C2C 1_555 1_555
O3J C2J 1_555 1_555
O3H Na1B 1_555 1_555
O3F Na1 1_555 1_555
O3I Na1C 1_555 1_555
N1G Ni1J 1_555 1_555
N1B Ni1 1_555 1_555
N1K Ni1J 1_555 1_555
N1C Ni1 1_555 1_555
N1J Ni1J 1_555 1_555
C1G C2G 1_555 1_555
C1B O1B 1_555 1_555
C1K O1K 1_555 1_555
C1C O1C 1_555 1_555
C1J O1J 1_555 1_555
C2G N1G 1_555 1_555
C2B N1B 1_555 1_555
C2K N1K 1_555 1_555
C2C N1C 1_555 1_555
C2J N1J 1_555 1_555
C3G C5 1_555 1_555
C3B N1B 1_555 1_555
C3K N1K 1_555 1_555
C3C N1C 1_555 1_555
C3J N1J 1_555 1_555
C4G C6 1_555 1_555
C4B C3B 1_555 1_555
C4K C3K 1_555 1_555
C4C C3C 1_555 1_555
C4J C3J 1_555 1_555
H1G C4G 1_555 1_555
H1B C4B 1_555 1_555
H1K C4K 1_555 1_555
H1C C4C 1_555 1_555
H1J C4J 1_555 1_555
C5B C3B 1_555 1_555
C5C C3C 1_555 1_555
H2B C5B 1_555 1_555
H2C C5C 1_555 1_555
C6B C4B 1_555 1_555
C6C C4C 1_555 1_555
H3B C6B 1_555 1_555
H3C C6C 1_555 1_555
Na1B O1 1_555 1_555
Na1C O4 1_555 1_555
Na1F O2 1_555 1_555
Na1I O2C 1_555 1_555
Na1A O2G 1_555 1_555
Na1D O2J 1_555 1_555
Na1E O2K 1_555 1_555
Na1F_2 O1I_2 1_555 1_555
Na1G O1G 1_555 1_555
Na1H O1H 1_555 1_555
Na1H_2 O2B 1_555 1_555
Na1J O1K 1_555 1_555
Na1K O1G 1_555 1_555
Na2B O2B 1_555 1_555
Na2C O5 1_555 1_555
Na2I O5F 1_555 1_555
Na2G O2G 1_555 1_555
Na2K O2K 1_555 1_555
Na2H O5I 1_555 1_555
Na2J O2J 1_555 1_555
O4I Na1I 1_555 1_555
O4I_2 Na1F 1_555 1_555
O5B Na2 1_555 1_555
O5C Na1C 1_555 1_555
O5F Na1F 1_555 1_555
O5I Na1I 1_555 1_555
O5J Na1J 1_555 1_555
O5K Na1K 1_555 1_555
O3 Na1F 1_555 1_555
Na1 O1C 1_555 1_555
O4 Na1B 1_555 1_555
O1B Na1B 1_555 1_555
O1B Na1C 1_555 1_555
O1K Na1K 1_555 1_555
O1C Na1C 1_555 1_555
O1J Na1G 1_555 1_555
O1J Na1J 1_555 1_555
O2C Na2C 1_555 1_555
O3G Na1A 1_555 1_555
O3B Na1H_2 1_555 1_555
O3K Na1E 1_555 1_555
O3C Na1I 1_555 1_555
O3J Na1D 1_555 1_555
N1G C3G 1_555 1_555
C1B C2B 1_555 1_555
C1K C2K 1_555 1_555
C1C C2C 1_555 1_555
C1J C2J 1_555 1_555
C3G C4G 1_555 1_555
C3K C5B 1_555 1_555
C3J C5C 1_555 1_555
C4K C6B 1_555 1_555
C4J C6C 1_555 1_555
Na1B O5B 1_555 1_555
Na1F_2 O4I 1_555 1_555
Na1H O4I 1_555 1_555
Na2B O5C 1_555 1_555
Na2G O5K 1_555 1_555
Na2K O5J 1_555 1_555

#END
