
#######################################################################
#
#                 Cambridge Crystallographic Data Centre
#                                CCDC 
#
#######################################################################
#
# If this CIF has been generated from an entry in the Cambridge 
# Structural Database, then it will include bibliographic, chemical, 
# crystal, experimental, refinement or atomic coordinate data resulting 
# from the CCDC's data processing and validation procedures.
#
#######################################################################

data_VEHNUT
_symmetry_cell_setting           monoclinic
_symmetry_space_group_name_H-M   'P 21/n'
_symmetry_Int_Tables_number      14
_space_group_name_Hall           '-P 2yn'
loop_
_symmetry_equiv_pos_site_id
_symmetry_equiv_pos_as_xyz
1 x,y,z
2 1/2-x,1/2+y,1/2-z
3 -x,-y,-z
4 1/2+x,1/2-y,1/2+z
_cell_length_a                   12.1516(5)
_cell_length_b                   10.0138(3)
_cell_length_c                   17.5544(5)
_cell_angle_alpha                90
_cell_angle_beta                 107.844(4)
_cell_angle_gamma                90
_cell_volume                     2033.33
loop_
_atom_site_label
_atom_site_type_symbol
_atom_site_fract_x
_atom_site_fract_y
_atom_site_fract_z
Cd1 Cd 0.207278(18) 0.06282(2) 0.124668(11)
N1 N 0.3456(2) 0.2323(2) 0.13458(13)
N2 N 0.2709(2) 0.0574(2) 0.01076(14)
O1 O 0.30210(18) 0.0069(2) 0.25364(11)
O2 O 0.4169(2) -0.0802(2) 0.19106(12)
O3 O 0.38497(18) -0.2783(2) 0.31693(11)
O4 O 0.46296(18) -0.3119(2) 0.44532(11)
O5 O 0.1090(2) -0.1322(2) 0.09680(12)
C1 C 0.4978(3) -0.0300(3) 0.32890(16)
C2 C 0.5235(2) -0.1191(3) 0.38864(16)
C3 C 0.6200(3) -0.0985(3) 0.46541(18)
H1 H 0.6786 -0.1662 0.4694
H2 H 0.5898 -0.1109 0.5101
C4 C 0.6760(3) 0.0374(3) 0.4725(2)
H3 H 0.6307 0.1010 0.4920
H4 H 0.7526 0.0332 0.5112
C5 C 0.6857(3) 0.0849(4) 0.3935(2)
H5 H 0.7339 0.0235 0.3751
H6 H 0.7225 0.1719 0.4004
C6 C 0.5677(3) 0.0943(3) 0.3310(2)
H7 H 0.5263 0.1704 0.3429
H8 H 0.5774 0.1085 0.2788
C7 C 0.3978(3) -0.0401(3) 0.25304(17)
C8 C 0.4534(2) -0.2432(3) 0.38268(15)
C9 C 0.3771(3) 0.3211(3) 0.19318(18)
H9 H 0.3395 0.3209 0.2320
C10 C 0.4638(3) 0.4142(4) 0.1993(2)
H10 H 0.4828 0.4763 0.2407
C11 C 0.5200(4) 0.4129(4) 0.1439(2)
H11 H 0.5796 0.4734 0.1478
C12 C 0.4897(3) 0.3211(4) 0.0802(2)
C13 C 0.5422(3) 0.3152(4) 0.0182(2)
H12 H 0.6016 0.3744 0.0194
C14 C 0.5091(3) 0.2278(4) -0.0415(2)
H13 H 0.5471 0.2254 -0.0801
C15 C 0.4154(3) 0.1370(4) -0.04713(19)
C16 C 0.3731(4) 0.0474(4) -0.1111(2)
H14 H 0.4079 0.0421 -0.1513
C17 C 0.2812(4) -0.0313(5) -0.1136(2)
H15 H 0.2511 -0.0892 -0.1564
C18 C 0.2320(4) -0.0245(4) -0.05121(19)
H16 H 0.1695 -0.0795 -0.0533
C19 C 0.3616(3) 0.1383(3) 0.01311(17)
C20 C 0.4001(3) 0.2318(3) 0.07861(17)
Cd1A Cd 0.292722(18) -0.43718(2) 0.375332(11)
O3A O 0.11503(18) 0.2217(2) 0.18307(11)
O4A O 0.03704(18) 0.1881(2) 0.05468(11)
C8A C 0.0466(2) 0.2568(3) 0.11732(15)
O6 O 0.2687(2) 0.6781(2) 0.14624(12)
O7 O 0.6216(8) 0.7220(9) 0.2447(4)
loop_
_geom_bond_atom_site_label_1
_geom_bond_atom_site_label_2
_geom_bond_site_symmetry_1
_geom_bond_site_symmetry_2
Cd1 N1 1_555 1_555
N1 C9 1_555 1_555
N2 Cd1 1_555 1_555
O1 Cd1 1_555 1_555
O2 C7 1_555 1_555
O3 C8 1_555 1_555
O4 C8 1_555 1_555
O5 Cd1 1_555 1_555
C1 C2 1_555 1_555
C2 C3 1_555 1_555
C3 H1 1_555 1_555
H2 C3 1_555 1_555
C4 C3 1_555 1_555
H3 C4 1_555 1_555
H4 C4 1_555 1_555
C5 C4 1_555 1_555
H5 C5 1_555 1_555
H6 C5 1_555 1_555
C6 C1 1_555 1_555
H7 C6 1_555 1_555
H8 C6 1_555 1_555
C7 O1 1_555 1_555
C8 C2 1_555 1_555
C9 H9 1_555 1_555
C10 C9 1_555 1_555
H10 C10 1_555 1_555
C11 C10 1_555 1_555
H11 C11 1_555 1_555
C12 C11 1_555 1_555
C13 C12 1_555 1_555
H12 C13 1_555 1_555
C14 C13 1_555 1_555
H13 C14 1_555 1_555
C15 C14 1_555 1_555
C16 C15 1_555 1_555
H14 C16 1_555 1_555
C17 C16 1_555 1_555
H15 C17 1_555 1_555
C18 N2 1_555 1_555
H16 C18 1_555 1_555
C19 N2 1_555 1_555
C20 N1 1_555 1_555
Cd1A O3 1_555 1_555
O3A Cd1 1_555 1_555
O4A Cd1 1_555 1_555
C8A O3A 1_555 1_555
O4 Cd1A 1_555 1_555
C1 C7 1_555 1_555
C5 C6 1_555 1_555
C12 C20 1_555 1_555
C15 C19 1_555 1_555
C17 C18 1_555 1_555
C19 C20 1_555 1_555
O4A C8A 1_555 1_555

#END
