
#######################################################################
#
#                 Cambridge Crystallographic Data Centre
#                                CCDC 
#
#######################################################################
#
# If this CIF has been generated from an entry in the Cambridge 
# Structural Database, then it will include bibliographic, chemical, 
# crystal, experimental, refinement or atomic coordinate data resulting 
# from the CCDC's data processing and validation procedures.
#
#######################################################################

data_VEHPEF
_symmetry_cell_setting           rhombohedral
_symmetry_space_group_name_H-M   'R 3 2'
_symmetry_Int_Tables_number      155
_space_group_name_Hall           'R 3 2"'
loop_
_symmetry_equiv_pos_site_id
_symmetry_equiv_pos_as_xyz
1 x,y,z
2 -y,x-y,z
3 -x+y,-x,z
4 y,x,-z
5 -x,-x+y,-z
6 x-y,-y,-z
7 2/3+x,1/3+y,1/3+z
8 2/3-y,1/3+x-y,1/3+z
9 2/3-x+y,1/3-x,1/3+z
10 2/3+y,1/3+x,1/3-z
11 2/3-x,1/3-x+y,1/3-z
12 2/3+x-y,1/3-y,1/3-z
13 1/3+x,2/3+y,2/3+z
14 1/3-y,2/3+x-y,2/3+z
15 1/3-x+y,2/3-x,2/3+z
16 1/3+y,2/3+x,2/3-z
17 1/3-x,2/3-x+y,2/3-z
18 1/3+x-y,2/3-y,2/3-z
_cell_length_a                   18.2300(4)
_cell_length_b                   18.2300(4)
_cell_length_c                   17.1118(5)
_cell_angle_alpha                90
_cell_angle_beta                 90
_cell_angle_gamma                120
_cell_volume                     4924.93
loop_
_atom_site_label
_atom_site_type_symbol
_atom_site_fract_x
_atom_site_fract_y
_atom_site_fract_z
Zn1 Zn 1.0000 0.63560(5) 1.0000
N1 N 0.9302(4) 0.5252(4) 0.9372(3)
O1 O 0.9457(8) 0.6459(10) 1.0921(7)
O2 O 0.8847(8) 0.6624(11) 0.9962(6)
C1 C 0.8237(8) 0.6548(10) 1.1296(6)
C2 C 0.7416(8) 0.6375(11) 1.0876(7)
H1 H 0.7571 0.6674 1.0381
H2 H 0.7089 0.5774 1.0760
C3 C 0.6879(8) 0.6612(10) 1.1291(8)
H3 H 0.6967 0.7135 1.1060
H4 H 0.6299 0.6183 1.1179
C4 C 0.8832(11) 0.6524(15) 1.0706(9)
C5 C 0.9493(4) 0.5197(4) 0.8626(4)
H5 H 0.9944 0.5668 0.8395
C6 C 0.9042(5) 0.4464(4) 0.8183(4)
H6 H 0.9156 0.4460 0.7654
C7 C 0.8428(4) 0.3748(5) 0.8544(4)
C8 C 0.8227(6) 0.3793(5) 0.9322(4)
H7 H 0.7800 0.3325 0.9579
C9 C 0.8684(6) 0.4556(5) 0.9689(5)
H8 H 0.8548 0.4588 1.0207
Zn1M Zn 0.69773(5) 0.03107(5) 0.6667
Zn1G Zn 1.03107(5) 0.69773(5) 1.3333
N1Q N 0.7383(6) 0.1415(4) 0.7295(3)
N1D N 1.0698(4) 0.5950(6) 1.0628(3)
O1K O 0.9665(13) 0.6874(10) 1.2412(7)
O1D O 1.0543(8) 0.7002(13) 0.9079(7)
O2K O 0.8890(14) 0.6709(11) 1.3371(6)
O2D O 1.1153(8) 0.7777(14) 1.0038(6)
C1K C 0.8356(13) 0.6785(10) 1.2037(6)
C2K C 0.7708(14) 0.6958(11) 1.2457(7)
H1K H 0.7564 0.6659 1.2952
H2K H 0.7982 0.7559 1.2573
C3K C 0.6934(13) 0.6721(10) 1.2042(8)
H3K H 0.6499 0.6198 1.2273
H4K H 0.6783 0.7150 1.2154
C4K C 0.8975(19) 0.6809(15) 1.2627(9)
C5Q C 0.7629(6) 0.1470(4) 0.8041(4)
H5Q H 0.7609 0.0999 0.8272
C6Q C 0.7911(6) 0.2203(4) 0.8484(4)
H6Q H 0.8029 0.2207 0.9013
C7Q C 0.8013(6) 0.2919(5) 0.8123(4)
C8Q C 0.7767(8) 0.2874(5) 0.7345(4)
H7Q H 0.7808 0.3342 0.7088
C9Q C 0.7461(8) 0.2111(5) 0.6978(5)
H8Q H 0.7293 0.2079 0.6460
loop_
_geom_bond_atom_site_label_1
_geom_bond_atom_site_label_2
_geom_bond_site_symmetry_1
_geom_bond_site_symmetry_2
Zn1 N1 1_555 1_555
N1 C5 1_555 1_555
O1 Zn1 1_555 1_555
O2 Zn1 1_555 1_555
C1 C2 1_555 1_555
C2 H1 1_555 1_555
H2 C2 1_555 1_555
C3 C2 1_555 1_555
H3 C3 1_555 1_555
H4 C3 1_555 1_555
C4 O1 1_555 1_555
C5 H5 1_555 1_555
C6 C5 1_555 1_555
H6 C6 1_555 1_555
C7 C6 1_555 1_555
C8 C7 1_555 1_555
H7 C8 1_555 1_555
C9 N1 1_555 1_555
H8 C9 1_555 1_555
Zn1M N1Q 1_555 1_555
Zn1G O1K 1_555 1_555
N1Q C5Q 1_555 1_555
N1D Zn1 1_555 1_555
O1K C4K 1_555 1_555
O1D Zn1 1_555 1_555
O2K Zn1G 1_555 1_555
O2D Zn1 1_555 1_555
C1K C1 1_555 1_555
C2K C1K 1_555 1_555
H1K C2K 1_555 1_555
H2K C2K 1_555 1_555
C3K C3 1_555 1_555
H3K C3K 1_555 1_555
H4K C3K 1_555 1_555
C4K O2K 1_555 1_555
C5Q H5Q 1_555 1_555
C6Q C5Q 1_555 1_555
H6Q C6Q 1_555 1_555
C7Q C7 1_555 1_555
C8Q C7Q 1_555 1_555
H7Q C8Q 1_555 1_555
C9Q N1Q 1_555 1_555
H8Q C9Q 1_555 1_555
O2 C4 1_555 1_555
C1 C4 1_555 1_555
C8 C9 1_555 1_555
C1K C4K 1_555 1_555
C2K C3K 1_555 1_555
C6Q C7Q 1_555 1_555
C8Q C9Q 1_555 1_555

#END
