
#######################################################################
#
#                 Cambridge Crystallographic Data Centre
#                                CCDC 
#
#######################################################################
#
# If this CIF has been generated from an entry in the Cambridge 
# Structural Database, then it will include bibliographic, chemical, 
# crystal, experimental, refinement or atomic coordinate data resulting 
# from the CCDC's data processing and validation procedures.
#
#######################################################################

data_VEHPUU
_symmetry_cell_setting           monoclinic
_symmetry_space_group_name_H-M   'P 21/c'
_symmetry_Int_Tables_number      14
_space_group_name_Hall           '-P 2ybc'
loop_
_symmetry_equiv_pos_site_id
_symmetry_equiv_pos_as_xyz
1 x,y,z
2 -x,1/2+y,1/2-z
3 -x,-y,-z
4 x,1/2-y,1/2+z
_cell_length_a                   4.7109(5)
_cell_length_b                   31.858(3)
_cell_length_c                   11.002(1)
_cell_angle_alpha                90
_cell_angle_beta                 96.008(8)
_cell_angle_gamma                90
_cell_volume                     1642.11
loop_
_atom_site_label
_atom_site_type_symbol
_atom_site_fract_x
_atom_site_fract_y
_atom_site_fract_z
Cu1 Cu 0.499(2) 0.1958(2) 0.5890(6)
O1 O 0.68515 0.17704 0.75584
O2 O 0.98073 0.1997 0.93007
O3 O 1.29181 0.28265 0.99211
O4 O 0.89418 0.30276 1.01101
N1 N 0.5605 0.2519 0.666
N2 N 0.7767 0.3257 0.7736
N3 N 0.3983 0.1361 0.5754
C1 C 0.11732 0.00659 0.51945
C2 C 0.7835 0.2053 0.823
C3 C 0.7326 0.2507 0.7706
C4 C 0.4905 0.2902 0.6133
C5 C 0.6025 0.3267 0.6714
C6 C 0.8448 0.2879 0.8247
C7 C 1.0317 0.2916 0.9428
C8 C 0.2511 0.1162 0.6628
C9 C 0.4477 0.115 0.4685
C10 C 0.35 0.074 0.449
C11 C 0.1534 0.0752 0.6432
C12 C 0.2029 0.0541 0.5363
H1 H 0.3687 0.2919 0.539
H2 H 0.5511 0.3532 0.6359
H3 H 0.2667 -0.013 0.5394
H4 H 0.5479 0.1286 0.4091
H5 H 0.3837 0.0596 0.3762
H6 H 0.2175 0.1306 0.7356
H7 H 0.0532 0.0616 0.7027
Cu1C Cu -0.501(2) 0.3042(2) 0.0890(6)
Cu1C_2 Cu 1.499(2) 0.3042(2) 1.0890(6)
Cu1C_3 Cu 0.499(2) 0.3042(2) 1.0890(6)
Cu1B Cu -0.499(2) -0.1958(2) 0.4110(6)
Cu1_2 Cu -0.501(2) 0.1958(2) 0.5890(6)
O1C O -0.31485 0.32296 0.25584
O2C O -0.01927 0.3003 0.43007
O3C O 0.29181 0.21735 0.49211
O3_2 O -0.70819 0.28265 -0.00789
O4C O -0.10582 0.19724 0.51101
O4C_2 O 0.89418 0.19724 0.51101
O4_2 O -0.10582 0.30276 0.01101
N1C N -0.4395 0.2481 0.166
N2C N -0.2233 0.1743 0.2736
N3B N -0.3983 -0.1361 0.4246
N3C N -0.6017 0.3639 0.0754
C1B C -0.11732 -0.00659 0.48055
C2C C -0.2165 0.2947 0.323
C3C C -0.2674 0.2493 0.2706
C4C C -0.5095 0.2098 0.1133
C5C C -0.3975 0.1733 0.1714
C6C C -0.1552 0.2121 0.3247
C7C C 0.0317 0.2084 0.4428
C8B C -0.2511 -0.1162 0.3372
C9B C -0.4477 -0.115 0.5315
C10B C -0.35 -0.074 0.551
C11B C -0.1534 -0.0752 0.3568
C12B C -0.2029 -0.0541 0.4637
H1C H -0.6313 0.2081 0.039
H2C H -0.4489 0.1468 0.1359
H3B H -0.2667 0.013 0.4606
H4B H -0.5479 -0.1286 0.5909
H5B H -0.3837 -0.0596 0.6238
H6B H -0.2175 -0.1306 0.2644
H7B H -0.0532 -0.0616 0.2973
O5 O 0.665(6) 0.9022(8) 1.075(2)
O6 O 0.573(8) 1.0153(9) 0.124(3)
O7 O 0.041(7) 1.0479(8) 0.032(3)
loop_
_geom_bond_atom_site_label_1
_geom_bond_atom_site_label_2
_geom_bond_site_symmetry_1
_geom_bond_site_symmetry_2
Cu1 O1 1_555 1_555
O1 C2 1_555 1_555
O2 C2 1_555 1_555
O3 C7 1_555 1_555
O4 C7 1_555 1_555
N1 Cu1 1_555 1_555
N2 C5 1_555 1_555
N3 Cu1 1_555 1_555
C1 C12 1_555 1_555
C2 C3 1_555 1_555
C3 N1 1_555 1_555
C4 N1 1_555 1_555
C5 C4 1_555 1_555
C6 N2 1_555 1_555
C7 C6 1_555 1_555
C8 N3 1_555 1_555
C9 N3 1_555 1_555
C10 C9 1_555 1_555
C11 C8 1_555 1_555
C12 C10 1_555 1_555
H1 C4 1_555 1_555
H2 C5 1_555 1_555
H3 C1 1_555 1_555
H4 C9 1_555 1_555
H5 C10 1_555 1_555
H6 C8 1_555 1_555
H7 C11 1_555 1_555
Cu1C O1C 1_555 1_555
Cu1C_2 O3 1_555 1_555
Cu1C_3 O4 1_555 1_555
Cu1B N3B 1_555 1_555
Cu1_2 O4C 1_555 1_555
O1C C2C 1_555 1_555
O2C C2C 1_555 1_555
O3C Cu1 1_555 1_555
O3_2 Cu1C 1_555 1_555
O4C C7C 1_555 1_555
O4C_2 Cu1 1_555 1_555
O4_2 Cu1C 1_555 1_555
N1C Cu1C 1_555 1_555
N2C C5C 1_555 1_555
N3B C8B 1_555 1_555
N3C Cu1C 1_555 1_555
C1B C1 1_555 1_555
C2C C3C 1_555 1_555
C3C N1C 1_555 1_555
C4C N1C 1_555 1_555
C5C C4C 1_555 1_555
C6C N2C 1_555 1_555
C7C O3C 1_555 1_555
C8B C11B 1_555 1_555
C9B N3B 1_555 1_555
C10B C9B 1_555 1_555
C11B C12B 1_555 1_555
C12B C1B 1_555 1_555
H1C C4C 1_555 1_555
H2C C5C 1_555 1_555
H3B C1B 1_555 1_555
H4B C9B 1_555 1_555
H5B C10B 1_555 1_555
H6B C8B 1_555 1_555
H7B C11B 1_555 1_555
C3 C6 1_555 1_555
C11 C12 1_555 1_555
C3C C6C 1_555 1_555
C6C C7C 1_555 1_555
C10B C12B 1_555 1_555

#END
