
#######################################################################
#
#                 Cambridge Crystallographic Data Centre
#                                CCDC 
#
#######################################################################
#
# If this CIF has been generated from an entry in the Cambridge 
# Structural Database, then it will include bibliographic, chemical, 
# crystal, experimental, refinement or atomic coordinate data resulting 
# from the CCDC's data processing and validation procedures.
#
#######################################################################

data_VEHXIR
_symmetry_cell_setting           orthorhombic
_symmetry_space_group_name_H-M   'P b c a'
_symmetry_Int_Tables_number      61
_space_group_name_Hall           '-P 2ac 2ab'
loop_
_symmetry_equiv_pos_site_id
_symmetry_equiv_pos_as_xyz
1 x,y,z
2 1/2-x,-y,1/2+z
3 1/2+x,1/2-y,-z
4 -x,1/2+y,1/2-z
5 -x,-y,-z
6 1/2+x,y,1/2-z
7 1/2-x,1/2+y,z
8 x,1/2-y,1/2+z
_cell_length_a                   29.0009(4)
_cell_length_b                   23.0305(3)
_cell_length_c                   29.8285(4)
_cell_angle_alpha                90
_cell_angle_beta                 90
_cell_angle_gamma                90
_cell_volume                     19922.6
loop_
_atom_site_label
_atom_site_type_symbol
_atom_site_fract_x
_atom_site_fract_y
_atom_site_fract_z
Pr1 Pr 0.228637(16) 0.15824(2) 0.333482(17)
Pr2 Pr 0.268364(18) 0.18853(2) 0.488404(17)
Pr3 Pr 0.305947(17) 0.33169(2) 0.374728(17)
Pr4 Pr 0.144705(18) 0.30062(2) 0.419132(17)
Sb1 Sb 0.13808(2) 0.26324(3) 0.29875(2)
Sb2 Sb 0.11125(2) 0.15264(3) 0.38311(2)
Sb3 Sb 0.20292(2) 0.07142(2) 0.43535(2)
Sb4 Sb 0.32289(2) 0.09514(2) 0.40357(2)
Sb5 Sb 0.34879(2) 0.20213(3) 0.31785(2)
Sb6 Sb 0.25717(2) 0.28627(3) 0.26559(2)
Sb7 Sb 0.19663(2) 0.39540(2) 0.32945(2)
Sb8 Sb 0.13990(2) 0.18003(3) 0.49915(2)
Sb9 Sb 0.38142(2) 0.22790(3) 0.43410(2)
Sb10 Sb 0.31952(2) 0.33567(3) 0.49879(2)
Sb11 Sb 0.22934(2) 0.42176(2) 0.44766(2)
Sb12 Sb 0.20022(2) 0.31343(3) 0.52960(2)
Cl1 Cl 0.23597(7) 0.24786(9) 0.40445(7)
Cl2 Cl 0.27704(9) 0.14911(13) 0.24682(9)
Cl3 Cl 0.25004(9) 0.02802(10) 0.33874(10)
Cl4 Cl 0.28439(10) 0.06727(10) 0.50806(10)
Cl5 Cl 0.21662(11) 0.18760(13) 0.57488(9)
Cl6 Cl 0.39278(9) 0.36544(12) 0.41828(9)
Cl7 Cl 0.36097(10) 0.33376(12) 0.29002(10)
Cl8 Cl 0.12838(10) 0.42616(11) 0.40779(9)
Cl9 Cl 0.08632(13) 0.31024(16) 0.49629(12)
Cl10 Cl 0.05967(9) 0.27855(13) 0.37289(11)
Cl11 Cl 0.41622(10) 0.12807(14) 0.37290(11)
Cl12 Cl 0.25714(11) 0.41899(11) 0.54567(9)
Cl13 Cl 0.17234(12) 0.35889(14) 0.23678(10)
Cl14 Cl 0.09827(10) 0.07017(12) 0.45585(9)
O1 O 0.2028(2) 0.2409(3) 0.2857(2)
O2 O 0.1493(2) 0.2119(2) 0.3516(2)
O3 O 0.1712(2) 0.1119(3) 0.3855(2)
O4 O 0.2570(2) 0.1188(3) 0.4166(2)
O5 O 0.3115(2) 0.1420(3) 0.3488(2)
O6 O 0.2885(2) 0.2445(3) 0.3163(2)
O7 O 0.2518(2) 0.3502(3) 0.3104(2)
O8 O 0.1599(2) 0.3256(3) 0.3424(2)
O9 O 0.1210(2) 0.1999(2) 0.4367(2)
O10 O 0.1937(2) 0.1340(3) 0.4793(2)
O11 O 0.3380(2) 0.1614(2) 0.4434(2)
O12 O 0.3571(2) 0.2472(3) 0.3731(2)
O13 O 0.3265(2) 0.2728(3) 0.4540(2)
O14 O 0.2285(2) 0.3840(3) 0.3881(2)
O15 O 0.1810(2) 0.2483(3) 0.4896(2)
O16 O 0.2883(2) 0.3782(3) 0.4499(2)
O17 O 0.1926(2) 0.3571(3) 0.4724(2)
O18 O 0.2640(2) 0.2898(3) 0.5161(2)
O19 O 0.3242(3) 0.4371(3) 0.3589(3)
H1 H 0.3019 0.4604 0.3548
O20 O 0.1706(3) -0.1987(3) 0.0395(2)
O21 O 0.1027(3) -0.2361(5) 0.0228(3)
O22 O 0.0479(3) -0.0712(4) 0.1838(3)
O23 O 0.1749(3) 0.1087(3) 0.2860(3)
O24 O 0.1186(3) 0.1663(4) 0.2640(4)
C1 C 0.1284(4) -0.2042(5) 0.0464(3)
C2 C 0.1081(3) -0.1697(4) 0.0839(3)
C3 C 0.0648(4) -0.1823(5) 0.1021(4)
H2 H 0.0482 -0.2136 0.0907
C4 C 0.0465(4) -0.1508(4) 0.1352(4)
H3 H 0.0181 -0.1609 0.1472
C5 C 0.0701(3) -0.1033(4) 0.1515(4)
C6 C 0.1128(4) -0.0883(5) 0.1329(4)
H4 H 0.1283 -0.0553 0.1427
C7 C 0.1315(4) -0.1220(5) 0.1006(4)
H5 H 0.1606 -0.1130 0.0894
C8 C 0.0721(4) -0.0238(5) 0.2030(4)
C9 C 0.1074(4) -0.0343(5) 0.2323(4)
H6 H 0.1169 -0.0721 0.2384
C10 C 0.1286(4) 0.0120(4) 0.2526(4)
H7 H 0.1529 0.0058 0.2723
C11 C 0.1137(3) 0.0687(4) 0.2438(3)
C12 C 0.0781(4) 0.0770(5) 0.2148(4)
H8 H 0.0678 0.1144 0.2088
C13 C 0.0571(4) 0.0305(5) 0.1945(4)
H9 H 0.0327 0.0364 0.1748
C14 C 0.1367(3) 0.1187(4) 0.2666(3)
Pr2A Pr 0.231636(18) -0.18853(2) -0.011596(17)
O20A O 0.3294(3) 0.1987(3) 0.5395(2)
Fe1 Fe 0.43059(4) 0.40702(6) 0.65873(4)
N1 N 0.4513(3) 0.3765(4) 0.6001(3)
N2 N 0.3987(3) 0.4646(4) 0.6210(3)
N3 N 0.4833(3) 0.4611(3) 0.6635(2)
N4 N 0.4138(3) 0.4456(4) 0.7150(3)
N5 N 0.4576(3) 0.3436(3) 0.6941(3)
N6 N 0.3782(3) 0.3516(4) 0.6566(3)
C15 C 0.4799(4) 0.3335(4) 0.5931(4)
H10 H 0.4906 0.3121 0.6174
C16 C 0.4948(4) 0.3190(6) 0.5502(4)
H11 H 0.5168 0.2901 0.5463
C17 C 0.4772(5) 0.3468(6) 0.5140(4)
H12 H 0.4856 0.3356 0.4852
C18 C 0.4466(5) 0.3921(6) 0.5203(3)
H13 H 0.4351 0.4127 0.4959
C19 C 0.4333(4) 0.4063(5) 0.5638(3)
C20 C 0.4021(3) 0.4539(5) 0.5758(4)
C21 C 0.3770(5) 0.4855(6) 0.5450(5)
H14 H 0.3788 0.4772 0.5146
C22 C 0.3485(5) 0.5310(7) 0.5610(5)
H15 H 0.3311 0.5527 0.5409
C23 C 0.3464(4) 0.5432(6) 0.6059(5)
H16 H 0.3282 0.5734 0.6166
C24 C 0.3727(4) 0.5086(5) 0.6354(4)
H17 H 0.3718 0.5167 0.6659
C25 C 0.5162(4) 0.4707(5) 0.6329(3)
H18 H 0.5173 0.4460 0.6082
C26 C 0.5484(4) 0.5139(5) 0.6351(4)
H19 H 0.5714 0.5177 0.6136
C27 C 0.5451(4) 0.5516(5) 0.6710(4)
H20 H 0.5653 0.5828 0.6735
C28 C 0.5119(4) 0.5430(5) 0.7030(4)
H21 H 0.5102 0.5675 0.7277
C29 C 0.4813(3) 0.4985(4) 0.6984(3)
C30 C 0.4431(3) 0.4860(5) 0.7300(3)
C31 C 0.4371(4) 0.5148(5) 0.7710(3)
H22 H 0.4578 0.5431 0.7804
C32 C 0.3994(4) 0.5000(5) 0.7971(4)
H23 H 0.3953 0.5164 0.8253
C33 C 0.3684(4) 0.4608(5) 0.7807(4)
H24 H 0.3417 0.4525 0.7968
C34 C 0.3763(3) 0.4338(5) 0.7405(4)
H25 H 0.3552 0.4064 0.7304
C35 C 0.4983(3) 0.3425(5) 0.7145(3)
H26 H 0.5180 0.3741 0.7112
C36 C 0.5124(4) 0.2964(5) 0.7403(4)
H27 H 0.5417 0.2969 0.7530
C37 C 0.4851(4) 0.2512(5) 0.7475(4)
H28 H 0.4942 0.2211 0.7663
C38 C 0.4425(4) 0.2501(5) 0.7262(4)
H29 H 0.4228 0.2186 0.7299
C39 C 0.4299(3) 0.2961(4) 0.6995(3)
C40 C 0.3855(3) 0.3000(4) 0.6767(3)
C41 C 0.3550(4) 0.2545(4) 0.6729(4)
H30 H 0.3612 0.2195 0.6874
C42 C 0.3152(4) 0.2606(6) 0.6476(4)
H31 H 0.2946 0.2301 0.6439
C43 C 0.3079(4) 0.3134(6) 0.6285(4)
H32 H 0.2814 0.3192 0.6116
C44 C 0.3378(4) 0.3573(5) 0.6335(4)
H33 H 0.3308 0.3930 0.6206
N7 N 0.2158(5) 0.0008(6) 0.1298(5)
H34 H 0.2046 0.0094 0.1039
C45 C 0.2333(6) -0.0508(9) 0.1360(6)
H35 H 0.2355 -0.0765 0.1120
C46 C 0.2481(6) -0.0669(9) 0.1769(6)
H36 H 0.2584 -0.1044 0.1827
C47 C 0.2470(6) -0.0244(9) 0.2098(6)
H37 H 0.2587 -0.0334 0.2380
C48 C 0.2300(6) 0.0290(9) 0.2028(6)
H38 H 0.2293 0.0557 0.2262
C49 C 0.2149(6) 0.0431(9) 0.1643(6)
C50 C 0.1953(6) 0.0995(8) 0.1560(6)
H39 H 0.1893 0.1186 0.1840
H40 H 0.1670 0.0953 0.1396
H41 H 0.2166 0.1223 0.1387
N8 N 0.4756(7) 0.0658(9) 0.5398(7)
H42 H 0.4712 0.0988 0.5269
C51 C 0.5128(7) 0.0583(12) 0.5685(8)
H43 H 0.5330 0.0889 0.5738
C52 C 0.5198(7) 0.0051(13) 0.5894(7)
H44 H 0.5447 0.0001 0.6086
C53 C 0.4896(9) -0.0406(11) 0.5815(8)
H45 H 0.4943 -0.0763 0.5954
C54 C 0.4524(8) -0.0331(9) 0.5527(8)
H46 H 0.4322 -0.0637 0.5474
C55 C 0.4454(5) 0.0201(9) 0.5319(6)
C56 C 0.4095(8) 0.0478(14) 0.4951(8)
H47 H 0.4172 0.0877 0.4899
H48 H 0.3786 0.0452 0.5065
H49 H 0.4117 0.0266 0.4675
O25 O 0.4784(8) 0.1748(13) 0.4974(8)
H50 H 0.4741 0.2035 0.5148
H51 H 0.5003 0.1521 0.5046
N9 N 0.0478(11) 0.2369(11) 0.1323(13)
H52 H 0.0462 0.1999 0.1363
C57 C 0.0094(9) 0.2673(12) 0.1173(12)
H53 H -0.0181 0.2477 0.1115
C58 C 0.0119(10) 0.3270(12) 0.1109(10)
H54 H -0.0138 0.3473 0.1008
C59 C 0.0529(12) 0.3562(11) 0.1195(11)
H55 H 0.0546 0.3962 0.1153
C60 C 0.0913(10) 0.3258(14) 0.1346(13)
H56 H 0.1187 0.3454 0.1404
C61 C 0.0887(9) 0.2661(13) 0.1410(13)
C62 C 0.1348(12) 0.241(2) 0.158(2)
H57 H 0.1571 0.2714 0.1612
H58 H 0.1460 0.2121 0.1378
H59 H 0.1300 0.2232 0.1872
C63? C 0.5031(7) 0.0107(13) 0.5720(8)
C64? C 0.5112(7) 0.0641(13) 0.5518(8)
C65? C 0.4779(9) 0.0885(10) 0.5239(9)
C66? C 0.4367(7) 0.0594(10) 0.5163(7)
C67? C 0.4286(6) 0.0060(9) 0.5366(6)
C68? C 0.3841(7) -0.0268(13) 0.5327(10)
C69? C 0.0099(10) 0.2402(12) 0.1311(12)
C70? C 0.0024(10) 0.2998(13) 0.1307(11)
C71? C 0.0390(12) 0.3378(11) 0.1374(11)
C72? C 0.0832(11) 0.3161(13) 0.1444(12)
C73? C 0.0907(9) 0.2565(14) 0.1447(13)
C74? C 0.1272(11) 0.227(2) 0.1526(19)
H60? H 0.0824 0.1387 0.0662
H61? H 0.0923 0.1450 0.1086
H62? H 0.5253 -0.0056 0.5906
H63? H 0.5388 0.0836 0.5568
H64? H 0.4833 0.1242 0.5104
H65? H 0.4144 0.0757 0.4977
H66? H 0.3636 -0.0065 0.5128
H67? H 0.3700 -0.0300 0.5617
H68? H 0.3900 -0.0649 0.5210
H69? H -0.0146 0.2148 0.1266
H70? H -0.0271 0.3143 0.1260
H71? H 0.0340 0.3776 0.1371
H72? H 0.1077 0.3415 0.1488
H73? H 0.1527 0.2530 0.1573
H74? H 0.1336 0.2023 0.1275
H75? H 0.1227 0.2039 0.1790
H76? H 0.4568 -0.0514 0.5769
H77? H 0.0588 0.1817 0.1383
N10? N 0.4618(7) -0.0184(9) 0.5644(7)
N11? N 0.0541(11) 0.2186(11) 0.1381(13)
O26? O 0.0809(9) 0.1200(12) 0.0908(10)
loop_
_geom_bond_atom_site_label_1
_geom_bond_atom_site_label_2
_geom_bond_site_symmetry_1
_geom_bond_site_symmetry_2
Pr1 Cl1 1_555 1_555
Pr2 Cl1 1_555 1_555
Pr3 Cl1 1_555 1_555
Pr4 Cl1 1_555 1_555
Sb1 Cl13 1_555 1_555
Sb2 Cl14 1_555 1_555
Sb3 Cl14 1_555 1_555
Sb4 Cl11 1_555 1_555
Sb5 Cl11 1_555 1_555
Sb6 Cl13 1_555 1_555
Sb7 Cl13 1_555 1_555
Sb8 Cl14 1_555 1_555
Sb9 Cl11 1_555 1_555
Sb10 Cl12 1_555 1_555
Sb11 Cl12 1_555 1_555
Sb12 Cl12 1_555 1_555
Cl2 Pr1 1_555 1_555
Cl3 Pr1 1_555 1_555
Cl4 Pr2 1_555 1_555
Cl5 Pr2 1_555 1_555
Cl6 Pr3 1_555 1_555
Cl7 Pr3 1_555 1_555
Cl8 Pr4 1_555 1_555
Cl9 Pr4 1_555 1_555
Cl10 Pr4 1_555 1_555
O1 Pr1 1_555 1_555
O2 Pr1 1_555 1_555
O3 Pr1 1_555 1_555
O4 Pr1 1_555 1_555
O5 Pr1 1_555 1_555
O6 Pr1 1_555 1_555
O7 Pr3 1_555 1_555
O8 Pr4 1_555 1_555
O9 Pr4 1_555 1_555
O10 Pr2 1_555 1_555
O11 Pr2 1_555 1_555
O12 Pr3 1_555 1_555
O13 Pr2 1_555 1_555
O14 Pr3 1_555 1_555
O15 Pr2 1_555 1_555
O16 Pr3 1_555 1_555
O17 Pr4 1_555 1_555
O18 Pr2 1_555 1_555
O19 Pr3 1_555 1_555
H1 O19 1_555 1_555
O20 C1 1_555 1_555
O21 C1 1_555 1_555
O22 C5 1_555 1_555
O23 Pr1 1_555 1_555
O24 Sb1 1_555 1_555
C1 C2 1_555 1_555
C2 C3 1_555 1_555
C3 H2 1_555 1_555
C4 C3 1_555 1_555
H3 C4 1_555 1_555
C5 C4 1_555 1_555
C6 C5 1_555 1_555
H4 C6 1_555 1_555
C7 C2 1_555 1_555
H5 C7 1_555 1_555
C8 O22 1_555 1_555
C9 C8 1_555 1_555
H6 C9 1_555 1_555
C10 C9 1_555 1_555
H7 C10 1_555 1_555
C11 C10 1_555 1_555
C12 C11 1_555 1_555
H8 C12 1_555 1_555
C13 C8 1_555 1_555
H9 C13 1_555 1_555
C14 O23 1_555 1_555
Fe1 N1 1_555 1_555
N1 C15 1_555 1_555
N2 Fe1 1_555 1_555
N3 Fe1 1_555 1_555
N4 Fe1 1_555 1_555
N5 Fe1 1_555 1_555
N6 Fe1 1_555 1_555
C15 H10 1_555 1_555
C16 C15 1_555 1_555
H11 C16 1_555 1_555
C17 C16 1_555 1_555
H12 C17 1_555 1_555
C18 C17 1_555 1_555
H13 C18 1_555 1_555
C19 N1 1_555 1_555
C20 N2 1_555 1_555
C21 C20 1_555 1_555
H14 C21 1_555 1_555
C22 C21 1_555 1_555
H15 C22 1_555 1_555
C23 C22 1_555 1_555
H16 C23 1_555 1_555
C24 N2 1_555 1_555
H17 C24 1_555 1_555
C25 N3 1_555 1_555
H18 C25 1_555 1_555
C26 C25 1_555 1_555
H19 C26 1_555 1_555
C27 C26 1_555 1_555
H20 C27 1_555 1_555
C28 C27 1_555 1_555
H21 C28 1_555 1_555
C29 N3 1_555 1_555
C30 N4 1_555 1_555
C31 C30 1_555 1_555
H22 C31 1_555 1_555
C32 C31 1_555 1_555
H23 C32 1_555 1_555
C33 C32 1_555 1_555
H24 C33 1_555 1_555
C34 N4 1_555 1_555
H25 C34 1_555 1_555
C35 N5 1_555 1_555
H26 C35 1_555 1_555
C36 C35 1_555 1_555
H27 C36 1_555 1_555
C37 C36 1_555 1_555
H28 C37 1_555 1_555
C38 C37 1_555 1_555
H29 C38 1_555 1_555
C39 N5 1_555 1_555
C40 N6 1_555 1_555
C41 C40 1_555 1_555
H30 C41 1_555 1_555
C42 C41 1_555 1_555
H31 C42 1_555 1_555
C43 C42 1_555 1_555
H32 C43 1_555 1_555
C44 N6 1_555 1_555
H33 C44 1_555 1_555
N7 H34 1_555 1_555
C45 N7 1_555 1_555
H35 C45 1_555 1_555
C46 C45 1_555 1_555
H36 C46 1_555 1_555
C47 C46 1_555 1_555
H37 C47 1_555 1_555
C48 C47 1_555 1_555
H38 C48 1_555 1_555
C49 N7 1_555 1_555
C50 C49 1_555 1_555
H39 C50 1_555 1_555
H40 C50 1_555 1_555
H41 C50 1_555 1_555
N8 H42 1_555 1_555
C51 N8 1_555 1_555
H43 C51 1_555 1_555
C52 C51 1_555 1_555
H44 C52 1_555 1_555
C53 C52 1_555 1_555
H45 C53 1_555 1_555
C54 C53 1_555 1_555
H46 C54 1_555 1_555
C55 N8 1_555 1_555
C56 C55 1_555 1_555
H47 C56 1_555 1_555
H48 C56 1_555 1_555
H49 C56 1_555 1_555
O25 H50 1_555 1_555
H51 O25 1_555 1_555
N9 H52 1_555 1_555
C57 N9 1_555 1_555
H53 C57 1_555 1_555
C58 C57 1_555 1_555
H54 C58 1_555 1_555
C59 C58 1_555 1_555
H55 C59 1_555 1_555
C60 C59 1_555 1_555
H56 C60 1_555 1_555
C61 N9 1_555 1_555
C62 C61 1_555 1_555
H57 C62 1_555 1_555
H58 C62 1_555 1_555
H59 C62 1_555 1_555
Pr2A O20 1_555 1_555
O20A Pr2 1_555 1_555
Pr2 O4 1_555 1_555
Pr3 O6 1_555 1_555
Pr3 O13 1_555 1_555
Pr4 O2 1_555 1_555
Pr4 O15 1_555 1_555
Sb1 O1 1_555 1_555
Sb1 O2 1_555 1_555
Sb1 O8 1_555 1_555
Sb2 O2 1_555 1_555
Sb2 O3 1_555 1_555
Sb2 O9 1_555 1_555
Sb3 O3 1_555 1_555
Sb3 O4 1_555 1_555
Sb3 O10 1_555 1_555
Sb4 O4 1_555 1_555
Sb4 O5 1_555 1_555
Sb4 O11 1_555 1_555
Sb5 O5 1_555 1_555
Sb5 O6 1_555 1_555
Sb5 O12 1_555 1_555
Sb6 O1 1_555 1_555
Sb6 O6 1_555 1_555
Sb6 O7 1_555 1_555
Sb7 O7 1_555 1_555
Sb7 O8 1_555 1_555
Sb7 O14 1_555 1_555
Sb8 O9 1_555 1_555
Sb8 O10 1_555 1_555
Sb8 O15 1_555 1_555
Sb9 O11 1_555 1_555
Sb9 O12 1_555 1_555
Sb9 O13 1_555 1_555
Sb10 O13 1_555 1_555
Sb10 O16 1_555 1_555
Sb10 O18 1_555 1_555
Sb11 O14 1_555 1_555
Sb11 O16 1_555 1_555
Sb11 O17 1_555 1_555
Sb12 O15 1_555 1_555
Sb12 O17 1_555 1_555
Sb12 O18 1_555 1_555
O24 C14 1_555 1_555
C6 C7 1_555 1_555
C11 C14 1_555 1_555
C12 C13 1_555 1_555
C18 C19 1_555 1_555
C19 C20 1_555 1_555
C23 C24 1_555 1_555
C28 C29 1_555 1_555
C29 C30 1_555 1_555
C33 C34 1_555 1_555
C38 C39 1_555 1_555
C39 C40 1_555 1_555
C43 C44 1_555 1_555
C48 C49 1_555 1_555
C54 C55 1_555 1_555
C60 C61 1_555 1_555

#END
