
#######################################################################
#
#                 Cambridge Crystallographic Data Centre
#                                CCDC 
#
#######################################################################
#
# If this CIF has been generated from an entry in the Cambridge 
# Structural Database, then it will include bibliographic, chemical, 
# crystal, experimental, refinement or atomic coordinate data resulting 
# from the CCDC's data processing and validation procedures.
#
#######################################################################

data_VEHXEM01
_symmetry_cell_setting           monoclinic
_symmetry_space_group_name_H-M   'P 21/n'
_symmetry_Int_Tables_number      14
_space_group_name_Hall           '-P 2yn'
loop_
_symmetry_equiv_pos_site_id
_symmetry_equiv_pos_as_xyz
1 x,y,z
2 1/2-x,1/2+y,1/2-z
3 -x,-y,-z
4 1/2+x,1/2-y,1/2+z
_cell_length_a                   12.8453(4)
_cell_length_b                   19.1818(7)
_cell_length_c                   16.0316(5)
_cell_angle_alpha                90
_cell_angle_beta                 100.794(2)
_cell_angle_gamma                90
_cell_volume                     3880.23
loop_
_atom_site_label
_atom_site_type_symbol
_atom_site_fract_x
_atom_site_fract_y
_atom_site_fract_z
U1 U 0.880406(8) 0.756081(6) 0.040461(7)
K1 K 0.63450(5) 0.74760(4) -0.21147(4)
I1 I 0.470670(16) 0.853239(11) -0.109442(13)
I2 I 0.770214(15) 0.864509(11) -0.322674(12)
O1 O 0.78238(16) 0.75407(11) -0.05945(12)
O2 O 0.98022(16) 0.75901(11) 0.13917(12)
N1 N 0.78792(19) 0.86238(13) 0.09781(15)
N2 N 0.96417(19) 0.86656(13) -0.01241(15)
N3 N 1.02398(19) 0.71923(13) -0.04615(16)
N4 N 0.88402(19) 0.62092(14) 0.04056(15)
N5 N 0.73298(19) 0.71086(14) 0.11755(15)
N6 N 0.7712(2) 0.62622(16) -0.27500(17)
N7 N 0.5251(2) 0.63389(15) -0.14665(16)
C1 C 0.8053(2) 0.87492(17) 0.18156(19)
H1 H 0.8539 0.8470 0.2169
C2 C 0.7548(2) 0.92715(18) 0.2179(2)
H2 H 0.7685 0.9339 0.2764
C3 C 0.6832(2) 0.96934(18) 0.1654(2)
H3 H 0.6487 1.0055 0.1878
C4 C 0.6642(2) 0.95677(18) 0.0796(2)
H4 H 0.6161 0.9841 0.0430
C5 C 0.7173(2) 0.90300(18) 0.0482(2)
H5 H 0.7033 0.8947 -0.0099
C6 C 0.9276(2) 0.88970(17) -0.09197(19)
H6 H 0.8643 0.8714 -0.1216
C7 C 0.9790(3) 0.93893(17) -0.1313(2)
H7 H 0.9506 0.9538 -0.1861
C8 C 1.0744(3) 0.96624(19) -0.0881(2)
H8 H 1.1113 0.9992 -0.1136
C9 C 1.1129(3) 0.94317(18) -0.0065(2)
H9 H 1.1766 0.9602 0.0240
C10 C 1.0552(2) 0.89426(17) 0.0290(2)
H10 H 1.0808 0.8798 0.0844
C11 C 1.1260(2) 0.73396(17) -0.0156(2)
H11 H 1.1450 0.7489 0.0403
C12 C 1.2040(3) 0.72788(18) -0.0637(2)
H12 H 1.2737 0.7398 -0.0409
C13 C 1.1776(3) 0.70421(19) -0.1450(2)
H13 H 1.2287 0.7003 -0.1789
C14 C 1.0727(3) 0.68590(18) -0.1767(2)
H14 H 1.0531 0.6676 -0.2311
C15 C 0.9992(3) 0.69543(17) -0.12593(19)
H15 H 0.9288 0.6849 -0.1479
C16 C 0.9504(2) 0.58279(18) 0.0977(2)
H16 H 1.0014 0.6057 0.1370
C17 C 0.9459(3) 0.51093(18) 0.1004(2)
H17 H 0.9926 0.4863 0.1413
C18 C 0.8718(3) 0.47592(18) 0.0422(2)
H18 H 0.8679 0.4275 0.0427
C19 C 0.8036(3) 0.51438(18) -0.0168(2)
H19 H 0.7527 0.4923 -0.0570
C20 C 0.8117(2) 0.58597(18) -0.01562(19)
H20 H 0.7650 0.6114 -0.0556
C21 C 0.7565(2) 0.67602(17) 0.19140(19)
H21 H 0.8273 0.6668 0.2137
C22 C 0.6812(3) 0.65344(18) 0.2356(2)
H22 H 0.7008 0.6299 0.2868
C23 C 0.5756(3) 0.66630(18) 0.2025(2)
H23 H 0.5229 0.6514 0.2311
C24 C 0.5495(2) 0.70179(17) 0.1263(2)
H24 H 0.4791 0.7112 0.1028
C25 C 0.6300(2) 0.72296(17) 0.0857(2)
H25 H 0.6123 0.7465 0.0343
C26 C 0.8170(3) 0.65594(19) -0.3341(2)
H26 H 0.8058 0.7033 -0.3445
C27 C 0.8801(3) 0.6203(2) -0.3808(2)
H27 H 0.9101 0.6431 -0.4216
C28 C 0.8976(3) 0.5498(2) -0.3653(2)
H28 H 0.9400 0.5242 -0.3953
C29 C 0.8506(3) 0.51867(19) -0.3046(2)
H29 H 0.8603 0.4714 -0.2927
C30 C 0.7892(3) 0.5586(2) -0.2618(2)
H30 H 0.7581 0.5368 -0.2209
C31 C 0.5418(3) 0.56878(19) -0.1692(2)
H31 H 0.5881 0.5617 -0.2066
C32 C 0.4949(3) 0.5111(2) -0.1407(2)
H32 H 0.5094 0.4664 -0.1582
C33 C 0.4255(3) 0.52152(19) -0.0853(2)
H33 H 0.3915 0.4840 -0.0652
C34 C 0.4078(3) 0.58877(19) -0.0603(2)
H34 H 0.3620 0.5976 -0.0230
C35 C 0.4604(2) 0.64280(17) -0.09258(19)
H35 H 0.4494 0.6880 -0.0750
K1C K 1.13450(5) 0.75240(4) 0.28853(4)
O2C O 0.48022(16) 0.74099(11) -0.36083(12)
loop_
_geom_bond_atom_site_label_1
_geom_bond_atom_site_label_2
_geom_bond_site_symmetry_1
_geom_bond_site_symmetry_2
U1 O1 1_555 1_555
K1 I1 1_555 1_555
I2 K1 1_555 1_555
O1 K1 1_555 1_555
O2 U1 1_555 1_555
N1 U1 1_555 1_555
N2 U1 1_555 1_555
N3 U1 1_555 1_555
N4 U1 1_555 1_555
N5 U1 1_555 1_555
N6 K1 1_555 1_555
N7 K1 1_555 1_555
C1 N1 1_555 1_555
H1 C1 1_555 1_555
C2 C1 1_555 1_555
H2 C2 1_555 1_555
C3 C2 1_555 1_555
H3 C3 1_555 1_555
C4 C3 1_555 1_555
H4 C4 1_555 1_555
C5 N1 1_555 1_555
H5 C5 1_555 1_555
C6 N2 1_555 1_555
H6 C6 1_555 1_555
C7 C6 1_555 1_555
H7 C7 1_555 1_555
C8 C7 1_555 1_555
H8 C8 1_555 1_555
C9 C8 1_555 1_555
H9 C9 1_555 1_555
C10 N2 1_555 1_555
H10 C10 1_555 1_555
C11 N3 1_555 1_555
H11 C11 1_555 1_555
C12 C11 1_555 1_555
H12 C12 1_555 1_555
C13 C12 1_555 1_555
H13 C13 1_555 1_555
C14 C13 1_555 1_555
H14 C14 1_555 1_555
C15 N3 1_555 1_555
H15 C15 1_555 1_555
C16 N4 1_555 1_555
H16 C16 1_555 1_555
C17 C16 1_555 1_555
H17 C17 1_555 1_555
C18 C17 1_555 1_555
H18 C18 1_555 1_555
C19 C18 1_555 1_555
H19 C19 1_555 1_555
C20 N4 1_555 1_555
H20 C20 1_555 1_555
C21 N5 1_555 1_555
H21 C21 1_555 1_555
C22 C21 1_555 1_555
H22 C22 1_555 1_555
C23 C22 1_555 1_555
H23 C23 1_555 1_555
C24 C23 1_555 1_555
H24 C24 1_555 1_555
C25 N5 1_555 1_555
H25 C25 1_555 1_555
C26 N6 1_555 1_555
H26 C26 1_555 1_555
C27 C26 1_555 1_555
H27 C27 1_555 1_555
C28 C27 1_555 1_555
H28 C28 1_555 1_555
C29 C28 1_555 1_555
H29 C29 1_555 1_555
C30 N6 1_555 1_555
H30 C30 1_555 1_555
C31 N7 1_555 1_555
H31 C31 1_555 1_555
C32 C31 1_555 1_555
H32 C32 1_555 1_555
C33 C32 1_555 1_555
H33 C33 1_555 1_555
C34 C33 1_555 1_555
H34 C34 1_555 1_555
C35 N7 1_555 1_555
H35 C35 1_555 1_555
K1C O2 1_555 1_555
O2C K1 1_555 1_555
C4 C5 1_555 1_555
C9 C10 1_555 1_555
C14 C15 1_555 1_555
C19 C20 1_555 1_555
C24 C25 1_555 1_555
C29 C30 1_555 1_555
C34 C35 1_555 1_555

#END
