
#######################################################################
#
#                 Cambridge Crystallographic Data Centre
#                                CCDC 
#
#######################################################################
#
# If this CIF has been generated from an entry in the Cambridge 
# Structural Database, then it will include bibliographic, chemical, 
# crystal, experimental, refinement or atomic coordinate data resulting 
# from the CCDC's data processing and validation procedures.
#
#######################################################################

data_VEHXEN
_symmetry_cell_setting           tetragonal
_symmetry_space_group_name_H-M   'P 42/n'
_symmetry_Int_Tables_number      86
_space_group_name_Hall           '-P 4bc'
loop_
_symmetry_equiv_pos_site_id
_symmetry_equiv_pos_as_xyz
1 x,y,z
2 -y,1/2+x,1/2+z
3 1/2-x,1/2-y,z
4 1/2+y,-x,1/2+z
5 -x,-y,-z
6 y,1/2-x,1/2-z
7 1/2+x,1/2+y,-z
8 1/2-y,x,1/2-z
_cell_length_a                   43.6051(6)
_cell_length_b                   43.6051(6)
_cell_length_c                   19.3474(5)
_cell_angle_alpha                90
_cell_angle_beta                 90
_cell_angle_gamma                90
_cell_volume                     36787.2
loop_
_atom_site_label
_atom_site_type_symbol
_atom_site_fract_x
_atom_site_fract_y
_atom_site_fract_z
N7 N 0.4142(6) 0.1902(8) 0.8076(11)
H25 H 0.4006 0.1927 0.8394
C37 C 0.4351(7) 0.2135(5) 0.7938(14)
C38 C 0.4571(6) 0.2095(6) 0.7426(16)
H26 H 0.4711 0.2251 0.7333
C39 C 0.4582(6) 0.1823(8) 0.7051(12)
H27 H 0.4729 0.1797 0.6708
C40 C 0.4372(7) 0.1591(6) 0.7189(14)
H28 H 0.4379 0.1409 0.6938
C41 C 0.4152(6) 0.1630(6) 0.7702(15)
H29 H 0.4012 0.1475 0.7794
C42 C 0.4377(9) 0.2433(7) 0.8375(18)
H30 H 0.4210 0.2441 0.8700
H31 H 0.4367 0.2608 0.8074
H32 H 0.4568 0.2434 0.8619
O1 O 0.4207(4) 0.2041(4) 0.0068(9)
H33 H 0.4345 0.2088 0.0336
H34 H 0.4209 0.1853 0.0093
Pr1 Pr 0.52697(2) 0.12422(2) 0.21303(5)
Pr2 Pr 0.54545(2) 0.23385(2) 0.22163(4)
Pr3 Pr 0.60463(2) 0.16364(2) 0.36442(4)
Pr4 Pr 0.49938(2) 0.18246(2) 0.41574(5)
Pr5 Pr 0.26260(2) 0.30311(2) 0.83946(5)
Sb1 Sb 0.57482(3) 0.08465(3) 0.34213(6)
Sb2 Sb 0.49445(3) 0.09804(3) 0.38296(6)
Sb3 Sb 0.45123(2) 0.15139(3) 0.27570(6)
Sb4 Sb 0.48688(3) 0.18869(3) 0.12909(5)
Sb5 Sb 0.56658(3) 0.17528(3) 0.08978(6)
Sb6 Sb 0.61153(3) 0.12326(3) 0.19612(6)
Sb7 Sb 0.55395(3) 0.12746(3) 0.49505(5)
Sb8 Sb 0.46580(2) 0.23307(3) 0.28221(5)
Sb9 Sb 0.62516(3) 0.20479(3) 0.20290(6)
Sb10 Sb 0.52603(3) 0.26213(2) 0.39429(5)
Sb11 Sb 0.60610(3) 0.24832(3) 0.35748(5)
Sb12 Sb 0.56884(2) 0.20941(3) 0.50331(5)
Sb13 Sb 0.34198(3) 0.27006(2) 0.81504(5)
Sb14 Sb 0.32060(3) 0.18961(3) 0.81677(5)
Sb15 Sb 0.29051(3) 0.24148(3) 0.94883(5)
Cl1 Cl 0.54430(9) 0.17510(10) 0.3041(2)
Cl2 Cl 0.51090(12) 0.12267(14) 0.0680(2)
Cl3 Cl 0.55825(16) 0.06792(15) 0.1794(3)
Cl4 Cl 0.47202(11) 0.08485(11) 0.2282(3)
Cl5 Cl 0.52985(12) 0.23783(13) 0.0692(2)
Cl6 Cl 0.51233(12) 0.29128(11) 0.2387(3)
Cl7 Cl 0.66070(10) 0.19996(12) 0.3510(2)
Cl8 Cl 0.64554(12) 0.10987(13) 0.3363(3)
Cl9 Cl 0.51087(12) 0.17907(12) 0.5695(2)
Cl10 Cl 0.26486(12) 0.30314(11) 0.9970(2)
Cl11 Cl 0.2500 0.2500 0.7500
Cl12 Cl 0.63628(12) 0.16481(15) 0.0818(2)
Cl13 Cl 0.57662(12) 0.28144(11) 0.4898(2)
Cl14 Cl 0.54153(13) 0.05956(12) 0.4712(3)
S1 S 0.64044(11) 0.33515(11) 0.1511(2)
S2 S 0.39918(11) 0.17418(11) 0.5585(2)
S3 S 0.39423(13) 0.25530(14) 0.5249(3)
O2 O 0.4866(2) 0.1370(2) 0.3313(5)
O3 O 0.4797(2) 0.1556(2) 0.1981(5)
O4 O 0.5303(2) 0.1792(2) 0.1519(5)
O5 O 0.5739(2) 0.1381(3) 0.1483(5)
O6 O 0.5822(2) 0.1185(3) 0.2746(5)
O7 O 0.5316(2) 0.0949(2) 0.3212(5)
O8 O 0.5144(2) 0.1282(2) 0.4474(5)
O9 O 0.4631(2) 0.1907(2) 0.3178(5)
O10 O 0.4909(2) 0.2206(2) 0.1995(5)
O11 O 0.5850(2) 0.2047(3) 0.1549(5)
O12 O 0.6208(3) 0.1630(2) 0.2416(5)
O13 O 0.5788(2) 0.1170(2) 0.4126(5)
O14 O 0.5592(2) 0.1699(2) 0.4569(4)
O15 O 0.5071(2) 0.2322(2) 0.3273(5)
O16 O 0.5998(2) 0.2176(2) 0.2836(5)
O17 O 0.5965(2) 0.2139(2) 0.4217(5)
O18 O 0.5330(2) 0.2247(2) 0.4496(5)
O19 O 0.5629(2) 0.2580(2) 0.3356(5)
O20 O 0.3110(2) 0.2859(2) 0.7497(5)
O21 O 0.3060(2) 0.2716(2) 0.8813(5)
O22 O 0.2500 0.2500 0.9035(7)
O23 O 0.2899(2) 0.2068(2) 0.8817(5)
O24 O 0.3305(2) 0.2292(2) 0.7733(5)
O25 O 0.4697(3) 0.2318(3) 0.4395(9)
O26 O 0.4256(5) 0.2432(4) 0.3922(8)
O27 O 0.3810(4) 0.2733(4) 0.7185(7)
O28 O 0.3495(3) 0.2668(3) 0.6367(7)
O29 O 0.4442(3) 0.1158(3) 0.4457(6)
O30 O 0.4513(3) 0.1654(3) 0.4607(6)
O31 O 0.3371(5) 0.1583(4) 0.6956(9)
O32 O 0.3431(3) 0.1989(3) 0.6354(6)
O33 O 0.6554(3) 0.3742(3) -0.0256(6)
O34 O 0.6653(3) 0.3924(3) 0.0783(6)
O35 O 0.5822(3) 0.2694(3) 0.1839(6)
O36 O 0.6219(3) 0.2832(3) 0.2474(6)
C43 C 0.4434(4) 0.2401(5) 0.4434(10)
C44 C 0.4316(5) 0.2467(5) 0.5099(11)
C45 C 0.4488(6) 0.2478(5) 0.5685(11)
H35 H 0.4697 0.2438 0.5715
C46 C 0.4305(6) 0.2554(5) 0.6203(12)
H36 H 0.4387 0.2577 0.6643
C47 C 0.3994(5) 0.2601(5) 0.6106(10)
C48 C 0.3755(4) 0.2675(5) 0.6565(8)
C49 C 0.4383(4) 0.1403(3) 0.4709(10)
C50 C 0.4127(4) 0.1408(4) 0.5235(9)
C51 C 0.3960(4) 0.1156(5) 0.5496(10)
H37 H 0.3993 0.0953 0.5367
C52 C 0.3739(5) 0.1252(5) 0.5977(9)
H38 H 0.3615 0.1115 0.6217
C53 C 0.3721(4) 0.1557(5) 0.6065(10)
C54 C 0.3498(5) 0.1718(4) 0.6493(10)
C55 C 0.6527(4) 0.3738(4) 0.0385(9)
C56 C 0.6356(4) 0.3482(4) 0.0671(8)
C57 C 0.6143(4) 0.3312(4) 0.0343(8)
H39 H 0.6086 0.3346 -0.0114
C58 C 0.6013(4) 0.3079(4) 0.0753(9)
H40 H 0.5860 0.2947 0.0600
C59 C 0.6136(4) 0.3067(4) 0.1395(8)
C60 C 0.6063(4) 0.2844(3) 0.1954(7)
Pr1B Pr -0.02697(2) 0.37578(2) 0.21303(5)
Pr2B Pr -0.04545(2) 0.26615(2) 0.22163(4)
Pr3B Pr -0.10463(2) 0.33636(2) 0.36442(4)
Pr4B Pr 0.00062(2) 0.31754(2) 0.41574(5)
Pr5B Pr 0.23740(2) 0.19689(2) 0.83946(5)
Sb1B Sb -0.07482(3) 0.41535(3) 0.34213(6)
Sb2B Sb 0.00555(3) 0.40196(3) 0.38296(6)
Sb3B Sb 0.04877(2) 0.34861(3) 0.27570(6)
Sb4B Sb 0.01312(3) 0.31131(3) 0.12909(5)
Sb5B Sb -0.06658(3) 0.32472(3) 0.08978(6)
Sb6B Sb -0.11153(3) 0.37674(3) 0.19612(6)
Sb7B Sb -0.05395(3) 0.37254(3) 0.49505(5)
Sb8B Sb 0.03420(2) 0.26693(3) 0.28221(5)
Sb9B Sb -0.12516(3) 0.29521(3) 0.20290(6)
Sb10B Sb -0.02603(3) 0.23787(2) 0.39429(5)
Sb11B Sb -0.10610(3) 0.25168(3) 0.35748(5)
Sb12B Sb -0.06884(2) 0.29059(3) 0.50331(5)
Sb13B Sb 0.15802(3) 0.22994(2) 0.81504(5)
Sb14B Sb 0.17940(3) 0.31039(3) 0.81677(5)
Sb15B Sb 0.20949(3) 0.25852(3) 0.94883(5)
Cl1B Cl -0.04430(9) 0.32490(10) 0.3041(2)
Cl2B Cl -0.01090(12) 0.37733(14) 0.0680(2)
Cl3B Cl -0.05825(16) 0.43208(15) 0.1794(3)
Cl4B Cl 0.02798(11) 0.41515(11) 0.2282(3)
Cl5B Cl -0.02985(12) 0.26217(13) 0.0692(2)
Cl6B Cl -0.01233(12) 0.20872(11) 0.2387(3)
Cl7B Cl -0.16070(10) 0.30004(12) 0.3510(2)
Cl8B Cl -0.14554(12) 0.39013(13) 0.3363(3)
Cl9B Cl -0.01087(12) 0.32093(12) 0.5695(2)
Cl10B Cl 0.23514(12) 0.19686(11) 0.9970(2)
Cl12B Cl -0.13628(12) 0.33519(15) 0.0818(2)
Cl13B Cl -0.07662(12) 0.21856(11) 0.4898(2)
Cl14B Cl -0.04153(13) 0.44044(12) 0.4712(3)
S1B S -0.14044(11) 0.16485(11) 0.1511(2)
S2B S 0.10082(11) 0.32582(11) 0.5585(2)
S3B S 0.10577(13) 0.24470(14) 0.5249(3)
O2B O 0.0134(2) 0.3630(2) 0.3313(5)
O3B O 0.0203(2) 0.3444(2) 0.1981(5)
O4B O -0.0303(2) 0.3208(2) 0.1519(5)
O5B O -0.0739(2) 0.3619(3) 0.1483(5)
O6B O -0.0822(2) 0.3815(3) 0.2746(5)
O7B O -0.0316(2) 0.4051(2) 0.3212(5)
O8B O -0.0144(2) 0.3718(2) 0.4474(5)
O9B O 0.0369(2) 0.3093(2) 0.3178(5)
O10B O 0.0091(2) 0.2794(2) 0.1995(5)
O11B O -0.0850(2) 0.2953(3) 0.1549(5)
O12B O -0.1208(3) 0.3370(2) 0.2416(5)
O13B O -0.0788(2) 0.3830(2) 0.4126(5)
O14B O -0.0592(2) 0.3301(2) 0.4569(4)
O15B O -0.0071(2) 0.2678(2) 0.3273(5)
O16B O -0.0998(2) 0.2824(2) 0.2836(5)
O17B O -0.0965(2) 0.2861(2) 0.4217(5)
O18B O -0.0330(2) 0.2753(2) 0.4496(5)
O19B O -0.0629(2) 0.2420(2) 0.3356(5)
O20B O 0.1890(2) 0.2141(2) 0.7497(5)
O21B O 0.1940(2) 0.2284(2) 0.8813(5)
O23B O 0.2101(2) 0.2932(2) 0.8817(5)
O24B O 0.1695(2) 0.2708(2) 0.7733(5)
O25B O 0.0303(3) 0.2682(3) 0.4395(9)
O26B O 0.0744(5) 0.2568(4) 0.3922(8)
O27B O 0.1190(4) 0.2267(4) 0.7185(7)
O28B O 0.1505(3) 0.2332(3) 0.6367(7)
O29B O 0.0558(3) 0.3842(3) 0.4457(6)
O30B O 0.0487(3) 0.3346(3) 0.4607(6)
O31B O 0.1629(5) 0.3417(4) 0.6956(9)
O32B O 0.1569(3) 0.3011(3) 0.6354(6)
O33B O -0.1554(3) 0.1258(3) -0.0256(6)
O34B O -0.1653(3) 0.1076(3) 0.0783(6)
O35B O -0.0822(3) 0.2306(3) 0.1839(6)
O36B O -0.1219(3) 0.2168(3) 0.2474(6)
C43B C 0.0566(4) 0.2599(5) 0.4434(10)
C44B C 0.0684(5) 0.2533(5) 0.5099(11)
C45B C 0.0512(6) 0.2522(5) 0.5685(11)
H35B H 0.0303 0.2562 0.5715
C46B C 0.0695(6) 0.2446(5) 0.6203(12)
H36B H 0.0613 0.2423 0.6643
C47B C 0.1006(5) 0.2399(5) 0.6106(10)
C48B C 0.1245(4) 0.2325(5) 0.6565(8)
C49B C 0.0617(4) 0.3597(3) 0.4709(10)
C50B C 0.0873(4) 0.3592(4) 0.5235(9)
C51B C 0.1040(4) 0.3844(5) 0.5496(10)
H37B H 0.1007 0.4047 0.5367
C52B C 0.1261(5) 0.3748(5) 0.5977(9)
H38B H 0.1385 0.3885 0.6217
C53B C 0.1279(4) 0.3443(5) 0.6065(10)
C54B C 0.1502(5) 0.3282(4) 0.6493(10)
C55B C -0.1527(4) 0.1262(4) 0.0385(9)
C56B C -0.1356(4) 0.1518(4) 0.0671(8)
C57B C -0.1143(4) 0.1688(4) 0.0343(8)
H39B H -0.1086 0.1654 -0.0114
C58B C -0.1013(4) 0.1921(4) 0.0753(9)
H40B H -0.0860 0.2053 0.0600
C59B C -0.1136(4) 0.1933(4) 0.1395(8)
C60B C -0.1063(4) 0.2156(3) 0.1954(7)
Pr1E Pr 0.12422(2) -0.02697(2) 1.28697(5)
Pr2E Pr 0.23385(2) -0.04545(2) 1.27837(4)
Pr3E Pr 0.16364(2) -0.10463(2) 1.13558(4)
Pr4E Pr 0.18246(2) 0.00062(2) 1.08426(5)
Pr5E Pr 0.30311(2) 0.23740(2) 0.66054(5)
Sb1E Sb 0.08465(3) -0.07482(3) 1.15787(6)
Sb2E Sb 0.09804(3) 0.00555(3) 1.11704(6)
Sb3E Sb 0.15139(3) 0.04877(2) 1.22430(6)
Sb4E Sb 0.18869(3) 0.01312(3) 1.37091(5)
Sb5E Sb 0.17528(3) -0.06658(3) 1.41022(6)
Sb6E Sb 0.12326(3) -0.11153(3) 1.30388(6)
Sb7E Sb 0.12746(3) -0.05395(3) 1.00495(5)
Sb8E Sb 0.23307(3) 0.03420(2) 1.21779(5)
Sb9E Sb 0.20479(3) -0.12516(3) 1.29710(6)
Sb10E Sb 0.26213(2) -0.02603(3) 1.10571(5)
Sb11E Sb 0.24832(3) -0.10610(3) 1.14252(5)
Sb12E Sb 0.20941(3) -0.06884(2) 0.99669(5)
Sb13E Sb 0.27006(2) 0.15802(3) 0.68496(5)
Sb14E Sb 0.18961(3) 0.17940(3) 0.68323(5)
Sb15E Sb 0.24148(3) 0.20949(3) 0.55117(5)
Cl1E Cl 0.17510(10) -0.04430(9) 1.1959(2)
Cl2E Cl 0.12267(14) -0.01090(12) 1.4320(2)
Cl3E Cl 0.06792(15) -0.05825(16) 1.3206(3)
Cl4E Cl 0.08485(11) 0.02798(11) 1.2718(3)
Cl5E Cl 0.23783(13) -0.02985(12) 1.4308(2)
Cl6E Cl 0.29128(11) -0.01233(12) 1.2613(3)
Cl7E Cl 0.19996(12) -0.16070(10) 1.1490(2)
Cl8E Cl 0.10987(13) -0.14554(12) 1.1637(3)
Cl9E Cl 0.17907(12) -0.01087(12) 0.9305(2)
Cl10E Cl 0.30314(11) 0.23514(12) 0.5030(2)
Cl12E Cl 0.16481(15) -0.13628(12) 1.4182(2)
Cl13E Cl 0.28144(11) -0.07662(12) 1.0102(2)
Cl14E Cl 0.05956(12) -0.04153(13) 1.0288(3)
S1E S 0.33515(11) -0.14044(11) 1.3489(2)
S2E S 0.17418(11) 0.10082(11) 0.9415(2)
S3E S 0.25530(14) 0.10577(13) 0.9751(3)
O2E O 0.1370(2) 0.0134(2) 1.1687(5)
O3E O 0.1556(2) 0.0203(2) 1.3019(5)
O4E O 0.1792(2) -0.0303(2) 1.3481(5)
O5E O 0.1381(3) -0.0739(2) 1.3517(5)
O6E O 0.1185(3) -0.0822(2) 1.2254(5)
O7E O 0.0949(2) -0.0316(2) 1.1788(5)
O8E O 0.1282(2) -0.0144(2) 1.0526(5)
O9E O 0.1907(2) 0.0369(2) 1.1822(5)
O10E O 0.2206(2) 0.0091(2) 1.3005(5)
O11E O 0.2047(3) -0.0850(2) 1.3451(5)
O12E O 0.1630(2) -0.1208(3) 1.2584(5)
O13E O 0.1170(2) -0.0788(2) 1.0874(5)
O14E O 0.1699(2) -0.0592(2) 1.0431(4)
O15E O 0.2322(2) -0.0071(2) 1.1727(5)
O16E O 0.2176(2) -0.0998(2) 1.2164(5)
O17E O 0.2139(2) -0.0965(2) 1.0783(5)
O18E O 0.2247(2) -0.0330(2) 1.0504(5)
O19E O 0.2580(2) -0.0629(2) 1.1644(5)
O20E O 0.2859(2) 0.1890(2) 0.7503(5)
O21E O 0.2716(2) 0.1940(2) 0.6187(5)
O22E O 0.2500 0.2500 0.5965(7)
O23E O 0.2068(2) 0.2101(2) 0.6183(5)
O24E O 0.2292(2) 0.1695(2) 0.7267(5)
O25E O 0.2318(3) 0.0303(3) 1.0605(9)
O26E O 0.2432(4) 0.0744(5) 1.1078(8)
O27E O 0.2733(4) 0.1190(4) 0.7815(7)
O28E O 0.2668(3) 0.1505(3) 0.8633(7)
O29E O 0.1158(3) 0.0558(3) 1.0543(6)
O30E O 0.1654(3) 0.0487(3) 1.0393(6)
O31E O 0.1583(4) 0.1629(5) 0.8044(9)
O32E O 0.1989(3) 0.1569(3) 0.8646(6)
O33E O 0.3742(3) -0.1554(3) 1.5256(6)
O34E O 0.3924(3) -0.1653(3) 1.4217(6)
O35E O 0.2694(3) -0.0822(3) 1.3161(6)
O36E O 0.2832(3) -0.1219(3) 1.2526(6)
C43E C 0.2401(5) 0.0566(4) 1.0566(10)
C44E C 0.2467(5) 0.0684(5) 0.9901(11)
C45E C 0.2478(5) 0.0512(6) 0.9315(11)
H35E H 0.2438 0.0303 0.9285
C46E C 0.2554(5) 0.0695(6) 0.8797(12)
H36E H 0.2577 0.0613 0.8357
C47E C 0.2601(5) 0.1006(5) 0.8894(10)
C48E C 0.2675(5) 0.1245(4) 0.8435(8)
C49E C 0.1403(3) 0.0617(4) 1.0291(10)
C50E C 0.1408(4) 0.0873(4) 0.9765(9)
C51E C 0.1156(5) 0.1040(4) 0.9504(10)
H37E H 0.0953 0.1007 0.9633
C52E C 0.1252(5) 0.1261(5) 0.9023(9)
H38E H 0.1115 0.1385 0.8783
C53E C 0.1557(5) 0.1279(4) 0.8935(10)
C54E C 0.1718(4) 0.1502(5) 0.8507(10)
C55E C 0.3738(4) -0.1527(4) 1.4615(9)
C56E C 0.3482(4) -0.1356(4) 1.4329(8)
C57E C 0.3312(4) -0.1143(4) 1.4657(8)
H39E H 0.3346 -0.1086 1.5114
C58E C 0.3079(4) -0.1013(4) 1.4247(9)
H40E H 0.2947 -0.0860 1.4400
C59E C 0.3067(4) -0.1136(4) 1.3605(8)
C60E C 0.2844(3) -0.1063(4) 1.3046(7)
Pr1G Pr 0.37578(2) 0.52697(2) 1.28697(5)
Pr2G Pr 0.26615(2) 0.54545(2) 1.27837(4)
Pr3G Pr 0.33636(2) 0.60463(2) 1.13558(4)
Pr4G Pr 0.31754(2) 0.49938(2) 1.08426(5)
Pr5G Pr 0.19689(2) 0.26260(2) 0.66054(5)
Sb1G Sb 0.41535(3) 0.57482(3) 1.15787(6)
Sb2G Sb 0.40196(3) 0.49445(3) 1.11704(6)
Sb3G Sb 0.34861(3) 0.45123(2) 1.22430(6)
Sb4G Sb 0.31131(3) 0.48688(3) 1.37091(5)
Sb5G Sb 0.32472(3) 0.56658(3) 1.41022(6)
Sb6G Sb 0.37674(3) 0.61153(3) 1.30388(6)
Sb7G Sb 0.37254(3) 0.55395(3) 1.00495(5)
Sb8G Sb 0.26693(3) 0.46580(2) 1.21779(5)
Sb9G Sb 0.29521(3) 0.62516(3) 1.29710(6)
Sb10G Sb 0.23787(2) 0.52603(3) 1.10571(5)
Sb11G Sb 0.25168(3) 0.60610(3) 1.14252(5)
Sb12G Sb 0.29059(3) 0.56884(2) 0.99669(5)
Sb13G Sb 0.22994(2) 0.34198(3) 0.68496(5)
Sb14G Sb 0.31039(3) 0.32060(3) 0.68323(5)
Sb15G Sb 0.25852(3) 0.29051(3) 0.55117(5)
Cl1G Cl 0.32490(10) 0.54430(9) 1.1959(2)
Cl2G Cl 0.37733(14) 0.51090(12) 1.4320(2)
Cl3G Cl 0.43208(15) 0.55825(16) 1.3206(3)
Cl4G Cl 0.41515(11) 0.47202(11) 1.2718(3)
Cl5G Cl 0.26217(13) 0.52985(12) 1.4308(2)
Cl6G Cl 0.20872(11) 0.51233(12) 1.2613(3)
Cl7G Cl 0.30004(12) 0.66070(10) 1.1490(2)
Cl8G Cl 0.39013(13) 0.64554(12) 1.1637(3)
Cl9G Cl 0.32093(12) 0.51087(12) 0.9305(2)
Cl10G Cl 0.19686(11) 0.26486(12) 0.5030(2)
Cl12G Cl 0.33519(15) 0.63628(12) 1.4182(2)
Cl13G Cl 0.21856(11) 0.57662(12) 1.0102(2)
Cl14G Cl 0.44044(12) 0.54153(13) 1.0288(3)
S1G S 0.16485(11) 0.64044(11) 1.3489(2)
S2G S 0.32582(11) 0.39918(11) 0.9415(2)
S3G S 0.24470(14) 0.39423(13) 0.9751(3)
O2G O 0.3630(2) 0.4866(2) 1.1687(5)
O3G O 0.3444(2) 0.4797(2) 1.3019(5)
O4G O 0.3208(2) 0.5303(2) 1.3481(5)
O5G O 0.3619(3) 0.5739(2) 1.3517(5)
O6G O 0.3815(3) 0.5822(2) 1.2254(5)
O7G O 0.4051(2) 0.5316(2) 1.1788(5)
O8G O 0.3718(2) 0.5144(2) 1.0526(5)
O9G O 0.3093(2) 0.4631(2) 1.1822(5)
O10G O 0.2794(2) 0.4909(2) 1.3005(5)
O11G O 0.2953(3) 0.5850(2) 1.3451(5)
O12G O 0.3370(2) 0.6208(3) 1.2584(5)
O13G O 0.3830(2) 0.5788(2) 1.0874(5)
O14G O 0.3301(2) 0.5592(2) 1.0431(4)
O15G O 0.2678(2) 0.5071(2) 1.1727(5)
O16G O 0.2824(2) 0.5998(2) 1.2164(5)
O17G O 0.2861(2) 0.5965(2) 1.0783(5)
O18G O 0.2753(2) 0.5330(2) 1.0504(5)
O19G O 0.2420(2) 0.5629(2) 1.1644(5)
O20G O 0.2141(2) 0.3110(2) 0.7503(5)
O21G O 0.2284(2) 0.3060(2) 0.6187(5)
O23G O 0.2932(2) 0.2899(2) 0.6183(5)
O24G O 0.2708(2) 0.3305(2) 0.7267(5)
O25G O 0.2682(3) 0.4697(3) 1.0605(9)
O26G O 0.2568(4) 0.4256(5) 1.1078(8)
O27G O 0.2267(4) 0.3810(4) 0.7815(7)
O28G O 0.2332(3) 0.3495(3) 0.8633(7)
O29G O 0.3842(3) 0.4442(3) 1.0543(6)
O30G O 0.3346(3) 0.4513(3) 1.0393(6)
O31G O 0.3417(4) 0.3371(5) 0.8044(9)
O32G O 0.3011(3) 0.3431(3) 0.8646(6)
O33G O 0.1258(3) 0.6554(3) 1.5256(6)
O34G O 0.1076(3) 0.6653(3) 1.4217(6)
O35G O 0.2306(3) 0.5822(3) 1.3161(6)
O36G O 0.2168(3) 0.6219(3) 1.2526(6)
C43G C 0.2599(5) 0.4434(4) 1.0566(10)
C44G C 0.2533(5) 0.4316(5) 0.9901(11)
C45G C 0.2522(5) 0.4488(6) 0.9315(11)
H35G H 0.2562 0.4697 0.9285
C46G C 0.2446(5) 0.4305(6) 0.8797(12)
H36G H 0.2423 0.4387 0.8357
C47G C 0.2399(5) 0.3994(5) 0.8894(10)
C48G C 0.2325(5) 0.3755(4) 0.8435(8)
C49G C 0.3597(3) 0.4383(4) 1.0291(10)
C50G C 0.3592(4) 0.4127(4) 0.9765(9)
C51G C 0.3844(5) 0.3960(4) 0.9504(10)
H37G H 0.4047 0.3993 0.9633
C52G C 0.3748(5) 0.3739(5) 0.9023(9)
H38G H 0.3885 0.3615 0.8783
C53G C 0.3443(5) 0.3721(4) 0.8935(10)
C54G C 0.3282(4) 0.3498(5) 0.8507(10)
C55G C 0.1262(4) 0.6527(4) 1.4615(9)
C56G C 0.1518(4) 0.6356(4) 1.4329(8)
C57G C 0.1688(4) 0.6143(4) 1.4657(8)
H39G H 0.1654 0.6086 1.5114
C58G C 0.1921(4) 0.6013(4) 1.4247(9)
H40G H 0.2053 0.5860 1.4400
C59G C 0.1933(4) 0.6136(4) 1.3605(8)
C60G C 0.2156(3) 0.6063(4) 1.3046(7)
Pr3A Pr -0.16364(2) 0.10463(2) -0.13558(4)
Pr3C Pr 0.66364(2) 0.39537(2) -0.13558(4)
Pr3D Pr 0.39537(2) -0.16364(2) 1.63558(4)
Pr3F Pr 0.10463(2) 0.66364(2) 1.63558(4)
O33A O 0.6258(3) 0.1554(3) 0.4744(6)
O33C O -0.1258(3) 0.3446(3) 0.4744(6)
O33D O 0.3446(3) 0.6258(3) 1.0256(6)
O33F O 0.1554(3) -0.1258(3) 1.0256(6)
Cl15 Cl 0.41964(11) 0.19962(13) 0.1864(3)
Cl16 Cl 0.35939(12) 0.22231(11) 0.9295(2)
Fe1 Fe 0.53845(6) 0.09558(6) 0.78558(11)
N1 N 0.5680(3) 0.0975(3) 0.8628(7)
N2 N 0.5753(4) 0.0814(3) 0.7348(7)
N3 N 0.5053(3) 0.1139(3) 0.8414(6)
N4 N 0.5473(3) 0.1384(3) 0.7651(7)
N5 N 0.5269(3) 0.0537(3) 0.8065(7)
N6 N 0.5115(3) 0.0887(4) 0.7056(7)
C1 C 0.5642(5) 0.1042(4) 0.9307(9)
H1 H 0.5447 0.1091 0.9466
C2 C 0.5891(6) 0.1040(5) 0.9785(10)
H2 H 0.5858 0.1092 1.0245
C3 C 0.6172(5) 0.0962(5) 0.9573(11)
H3 H 0.6331 0.0956 0.9892
C4 C 0.6231(5) 0.0890(4) 0.8890(11)
C5 C 0.6516(5) 0.0819(5) 0.8618(13)
H4 H 0.6685 0.0832 0.8908
C6 C 0.6561(5) 0.0733(5) 0.7975(14)
H5 H 0.6756 0.0680 0.7819
C7 C 0.6295(5) 0.0721(4) 0.7510(11)
C8 C 0.6315(5) 0.0634(5) 0.6778(13)
H6 H 0.6499 0.0573 0.6581
C9 C 0.6044(6) 0.0647(4) 0.6390(11)
H7 H 0.6051 0.0599 0.5921
C10 C 0.5774(5) 0.0727(4) 0.6679(9)
H8 H 0.5597 0.0721 0.6411
C11 C 0.6013(4) 0.0809(4) 0.7747(9)
C12 C 0.5981(5) 0.0901(4) 0.8431(9)
C13 C 0.5342(4) 0.0356(4) 0.8600(9)
H9 H 0.5465 0.0437 0.8948
C14 C 0.5245(6) 0.0054(5) 0.8662(13)
H10 H 0.5289 -0.0052 0.9068
C15 C 0.5086(7) -0.0095(6) 0.8154(14)
H11 H 0.5038 -0.0303 0.8175
C16 C 0.5000(5) 0.0095(6) 0.7591(12)
C17 C 0.4835(7) -0.0027(6) 0.7043(14)
H12 H 0.4772 -0.0230 0.7056
C18 C 0.4769(6) 0.0139(7) 0.6518(12)
H13 H 0.4669 0.0047 0.6147
C19 C 0.4842(5) 0.0474(6) 0.6471(11)
C20 C 0.4771(6) 0.0691(6) 0.5975(12)
H14 H 0.4661 0.0626 0.5591
C21 C 0.4850(5) 0.0989(5) 0.6009(9)
H15 H 0.4783 0.1129 0.5679
C22 C 0.5038(5) 0.1082(5) 0.6556(8)
H16 H 0.5110 0.1283 0.6571
C23 C 0.5008(4) 0.0592(5) 0.7009(9)
C24 C 0.5098(4) 0.0401(4) 0.7564(10)
C25 C 0.4842(4) 0.0998(5) 0.8753(9)
H17 H 0.4825 0.0786 0.8730
C26 C 0.4631(5) 0.1175(5) 0.9169(10)
H18 H 0.4466 0.1078 0.9383
C27 C 0.4673(5) 0.1485(5) 0.9252(11)
H19 H 0.4546 0.1600 0.9539
C28 C 0.4914(6) 0.1620(5) 0.8887(11)
C29 C 0.4966(6) 0.1945(6) 0.8941(12)
H20 H 0.4843 0.2066 0.9226
C30 C 0.5177(7) 0.2062(6) 0.8602(12)
H21 H 0.5222 0.2269 0.8657
C31 C 0.5348(6) 0.1886(6) 0.8137(11)
C32 C 0.5573(6) 0.1999(5) 0.7661(13)
H22 H 0.5620 0.2207 0.7677
C33 C 0.5723(6) 0.1824(5) 0.7186(12)
H23 H 0.5851 0.1909 0.6852
C34 C 0.5676(5) 0.1520(4) 0.7227(10)
H24 H 0.5793 0.1395 0.6942
C35 C 0.5309(4) 0.1578(4) 0.8065(10)
C36 C 0.5087(4) 0.1441(4) 0.8482(9)
C61? C 0.4594(4) 0.3604(4) 0.2952(8)
loop_
_geom_bond_atom_site_label_1
_geom_bond_atom_site_label_2
_geom_bond_site_symmetry_1
_geom_bond_site_symmetry_2
Fe1 N1 1_555 1_555
N1 C1 1_555 1_555
N2 Fe1 1_555 1_555
N3 Fe1 1_555 1_555
N4 Fe1 1_555 1_555
N5 Fe1 1_555 1_555
N6 Fe1 1_555 1_555
C1 H1 1_555 1_555
C2 C1 1_555 1_555
H2 C2 1_555 1_555
C3 C2 1_555 1_555
H3 C3 1_555 1_555
C4 C3 1_555 1_555
C5 C4 1_555 1_555
H4 C5 1_555 1_555
C6 C5 1_555 1_555
H5 C6 1_555 1_555
C7 C6 1_555 1_555
C8 C7 1_555 1_555
H6 C8 1_555 1_555
C9 C8 1_555 1_555
H7 C9 1_555 1_555
C10 N2 1_555 1_555
H8 C10 1_555 1_555
C11 N2 1_555 1_555
C12 N1 1_555 1_555
C13 N5 1_555 1_555
H9 C13 1_555 1_555
C14 C13 1_555 1_555
H10 C14 1_555 1_555
C15 C14 1_555 1_555
H11 C15 1_555 1_555
C16 C15 1_555 1_555
C17 C16 1_555 1_555
H12 C17 1_555 1_555
C18 C17 1_555 1_555
H13 C18 1_555 1_555
C19 C18 1_555 1_555
C20 C19 1_555 1_555
H14 C20 1_555 1_555
C21 C20 1_555 1_555
H15 C21 1_555 1_555
C22 N6 1_555 1_555
H16 C22 1_555 1_555
C23 N6 1_555 1_555
C24 N5 1_555 1_555
C25 N3 1_555 1_555
H17 C25 1_555 1_555
C26 C25 1_555 1_555
H18 C26 1_555 1_555
C27 C26 1_555 1_555
H19 C27 1_555 1_555
C28 C27 1_555 1_555
C29 C28 1_555 1_555
H20 C29 1_555 1_555
C30 C29 1_555 1_555
H21 C30 1_555 1_555
C31 C30 1_555 1_555
C32 C31 1_555 1_555
H22 C32 1_555 1_555
C33 C32 1_555 1_555
H23 C33 1_555 1_555
C34 N4 1_555 1_555
H24 C34 1_555 1_555
C35 N4 1_555 1_555
C36 N3 1_555 1_555
N7 H25 1_555 1_555
C37 N7 1_555 1_555
C38 C37 1_555 1_555
H26 C38 1_555 1_555
C39 C38 1_555 1_555
H27 C39 1_555 1_555
C40 C39 1_555 1_555
H28 C40 1_555 1_555
C41 N7 1_555 1_555
H29 C41 1_555 1_555
C42 C37 1_555 1_555
H30 C42 1_555 1_555
H31 C42 1_555 1_555
H32 C42 1_555 1_555
O1 H33 1_555 1_555
H34 O1 1_555 1_555
Pr1 Cl1 1_555 1_555
Pr2 Cl1 1_555 1_555
Pr3 Cl1 1_555 1_555
Pr4 Cl1 1_555 1_555
Pr5 Cl10 1_555 1_555
Sb1 O6 1_555 1_555
Sb2 O2 1_555 1_555
Sb3 O2 1_555 1_555
Sb4 O3 1_555 1_555
Sb5 O4 1_555 1_555
Sb6 O5 1_555 1_555
Sb7 Cl14 1_555 1_555
Sb8 O9 1_555 1_555
Sb9 Cl12 1_555 1_555
Sb10 Cl13 1_555 1_555
Sb11 O16 1_555 1_555
Sb12 O14 1_555 1_555
Sb13 O20 1_555 1_555
Sb14 O23 1_555 1_555
Sb15 O21 1_555 1_555
Cl2 Pr1 1_555 1_555
Cl3 Pr1 1_555 1_555
Cl4 Pr1 1_555 1_555
Cl5 Pr2 1_555 1_555
Cl6 Pr2 1_555 1_555
Cl7 Pr3 1_555 1_555
Cl8 Pr3 1_555 1_555
Cl9 Pr4 1_555 1_555
Cl11 Pr5 1_555 1_555
S1 C56 1_555 1_555
S2 C50 1_555 1_555
S3 C44 1_555 1_555
O2 Pr1 1_555 1_555
O3 Pr1 1_555 1_555
O4 Pr1 1_555 1_555
O5 Pr1 1_555 1_555
O6 Pr1 1_555 1_555
O7 Pr1 1_555 1_555
O8 Pr4 1_555 1_555
O9 Pr4 1_555 1_555
O10 Pr2 1_555 1_555
O11 Pr2 1_555 1_555
O12 Pr3 1_555 1_555
O13 Pr3 1_555 1_555
O14 Pr3 1_555 1_555
O15 Pr2 1_555 1_555
O16 Pr2 1_555 1_555
O17 Pr3 1_555 1_555
O18 Pr4 1_555 1_555
O19 Pr2 1_555 1_555
O20 Pr5 1_555 1_555
O21 Pr5 1_555 1_555
O22 Pr5 1_555 1_555
O23 Sb15 1_555 1_555
O24 Sb13 1_555 1_555
O25 Pr4 1_555 1_555
O26 C43 1_555 1_555
O27 Sb13 1_555 1_555
O28 C48 1_555 1_555
O29 C49 1_555 1_555
O30 Pr4 1_555 1_555
O31 C54 1_555 1_555
O32 C54 1_555 1_555
O33 C55 1_555 1_555
O34 C55 1_555 1_555
O35 Pr2 1_555 1_555
O36 C60 1_555 1_555
C43 O25 1_555 1_555
C44 C43 1_555 1_555
C45 C44 1_555 1_555
H35 C45 1_555 1_555
C46 C45 1_555 1_555
H36 C46 1_555 1_555
C47 S3 1_555 1_555
C48 O27 1_555 1_555
C49 O30 1_555 1_555
C50 C49 1_555 1_555
C51 C50 1_555 1_555
H37 C51 1_555 1_555
C52 C51 1_555 1_555
H38 C52 1_555 1_555
C53 S2 1_555 1_555
C54 C53 1_555 1_555
C55 C56 1_555 1_555
C56 C57 1_555 1_555
C57 H39 1_555 1_555
C58 C57 1_555 1_555
H40 C58 1_555 1_555
C59 S1 1_555 1_555
C60 O35 1_555 1_555
Pr1B Cl1B 1_555 1_555
Pr2B Cl1B 1_555 1_555
Pr3B Cl1B 1_555 1_555
Pr4B Cl1B 1_555 1_555
Pr5B Cl11 1_555 1_555
Sb1B O6B 1_555 1_555
Sb2B O2B 1_555 1_555
Sb3B O2B 1_555 1_555
Sb4B O3B 1_555 1_555
Sb5B O4B 1_555 1_555
Sb6B O5B 1_555 1_555
Sb7B Cl14B 1_555 1_555
Sb8B O9B 1_555 1_555
Sb9B Cl12B 1_555 1_555
Sb10B Cl13B 1_555 1_555
Sb11B O16B 1_555 1_555
Sb12B O14B 1_555 1_555
Sb13B O20B 1_555 1_555
Sb14B O23B 1_555 1_555
Sb15B O22 1_555 1_555
Cl2B Pr1B 1_555 1_555
Cl3B Pr1B 1_555 1_555
Cl4B Pr1B 1_555 1_555
Cl5B Pr2B 1_555 1_555
Cl6B Pr2B 1_555 1_555
Cl7B Pr3B 1_555 1_555
Cl8B Pr3B 1_555 1_555
Cl9B Pr4B 1_555 1_555
Cl10B Pr5B 1_555 1_555
S1B C56B 1_555 1_555
S2B C50B 1_555 1_555
S3B C44B 1_555 1_555
O2B Pr1B 1_555 1_555
O3B Pr1B 1_555 1_555
O4B Pr1B 1_555 1_555
O5B Pr1B 1_555 1_555
O6B Pr1B 1_555 1_555
O7B Pr1B 1_555 1_555
O8B Pr4B 1_555 1_555
O9B Pr4B 1_555 1_555
O10B Pr2B 1_555 1_555
O11B Pr2B 1_555 1_555
O12B Pr3B 1_555 1_555
O13B Pr3B 1_555 1_555
O14B Pr3B 1_555 1_555
O15B Pr2B 1_555 1_555
O16B Pr2B 1_555 1_555
O17B Pr3B 1_555 1_555
O18B Pr4B 1_555 1_555
O19B Pr2B 1_555 1_555
O20B Pr5B 1_555 1_555
O21B Pr5B 1_555 1_555
O23B Pr5 1_555 1_555
O24B Sb13B 1_555 1_555
O25B Pr4B 1_555 1_555
O26B C43B 1_555 1_555
O27B Sb13B 1_555 1_555
O28B C48B 1_555 1_555
O29B C49B 1_555 1_555
O30B Pr4B 1_555 1_555
O31B C54B 1_555 1_555
O32B C54B 1_555 1_555
O33B C55B 1_555 1_555
O34B C55B 1_555 1_555
O35B Pr2B 1_555 1_555
O36B C60B 1_555 1_555
C43B O25B 1_555 1_555
C44B C43B 1_555 1_555
C45B C44B 1_555 1_555
H35B C45B 1_555 1_555
C46B C45B 1_555 1_555
H36B C46B 1_555 1_555
C47B S3B 1_555 1_555
C48B O27B 1_555 1_555
C49B O30B 1_555 1_555
C50B C49B 1_555 1_555
C51B C50B 1_555 1_555
H37B C51B 1_555 1_555
C52B C51B 1_555 1_555
H38B C52B 1_555 1_555
C53B S2B 1_555 1_555
C54B C53B 1_555 1_555
C55B C56B 1_555 1_555
C56B C57B 1_555 1_555
C57B H39B 1_555 1_555
C58B C57B 1_555 1_555
H40B C58B 1_555 1_555
C59B S1B 1_555 1_555
C60B O35B 1_555 1_555
Pr1E Cl1E 1_555 1_555
Pr2E Cl1E 1_555 1_555
Pr3E Cl1E 1_555 1_555
Pr4E Cl1E 1_555 1_555
Pr5E Cl11 1_555 1_555
Sb1E O6E 1_555 1_555
Sb2E O2E 1_555 1_555
Sb3E O2E 1_555 1_555
Sb4E O3E 1_555 1_555
Sb5E O4E 1_555 1_555
Sb6E O5E 1_555 1_555
Sb7E Cl14E 1_555 1_555
Sb8E O9E 1_555 1_555
Sb9E Cl12E 1_555 1_555
Sb10E Cl13E 1_555 1_555
Sb11E O16E 1_555 1_555
Sb12E O14E 1_555 1_555
Sb13E O20E 1_555 1_555
Sb14E O20B 1_555 1_555
Sb15E O21E 1_555 1_555
Cl2E Pr1E 1_555 1_555
Cl3E Pr1E 1_555 1_555
Cl4E Pr1E 1_555 1_555
Cl5E Pr2E 1_555 1_555
Cl6E Pr2E 1_555 1_555
Cl7E Pr3E 1_555 1_555
Cl8E Pr3E 1_555 1_555
Cl9E Pr4E 1_555 1_555
Cl10E Pr5E 1_555 1_555
S1E C56E 1_555 1_555
S2E C50E 1_555 1_555
S3E C44E 1_555 1_555
O2E Pr1E 1_555 1_555
O3E Pr1E 1_555 1_555
O4E Pr1E 1_555 1_555
O5E Pr1E 1_555 1_555
O6E Pr1E 1_555 1_555
O7E Pr1E 1_555 1_555
O8E Pr4E 1_555 1_555
O9E Pr4E 1_555 1_555
O10E Pr2E 1_555 1_555
O11E Pr2E 1_555 1_555
O12E Pr3E 1_555 1_555
O13E Pr3E 1_555 1_555
O14E Pr3E 1_555 1_555
O15E Pr2E 1_555 1_555
O16E Pr2E 1_555 1_555
O17E Pr3E 1_555 1_555
O18E Pr4E 1_555 1_555
O19E Pr2E 1_555 1_555
O20E Sb14 1_555 1_555
O21E Pr5E 1_555 1_555
O22E Pr5E 1_555 1_555
O23E Sb14E 1_555 1_555
O24E Pr5B 1_555 1_555
O25E Pr4E 1_555 1_555
O26E C43E 1_555 1_555
O27E Sb13E 1_555 1_555
O28E Pr5B 1_555 1_555
O29E C49E 1_555 1_555
O30E Pr4E 1_555 1_555
O31E C54E 1_555 1_555
O32E Pr5B 1_555 1_555
O33E C55E 1_555 1_555
O34E C55E 1_555 1_555
O35E Pr2E 1_555 1_555
O36E C60E 1_555 1_555
C43E O25E 1_555 1_555
C44E C43E 1_555 1_555
C45E C44E 1_555 1_555
H35E C45E 1_555 1_555
C46E C45E 1_555 1_555
H36E C46E 1_555 1_555
C47E S3E 1_555 1_555
C48E O27E 1_555 1_555
C49E O30E 1_555 1_555
C50E C49E 1_555 1_555
C51E C50E 1_555 1_555
H37E C51E 1_555 1_555
C52E C51E 1_555 1_555
H38E C52E 1_555 1_555
C53E S2E 1_555 1_555
C54E O32E 1_555 1_555
C55E C56E 1_555 1_555
C56E C57E 1_555 1_555
C57E H39E 1_555 1_555
C58E C57E 1_555 1_555
H40E C58E 1_555 1_555
C59E S1E 1_555 1_555
C60E O35E 1_555 1_555
Pr1G Cl1G 1_555 1_555
Pr2G Cl1G 1_555 1_555
Pr3G Cl1G 1_555 1_555
Pr4G Cl1G 1_555 1_555
Pr5G Cl11 1_555 1_555
Sb1G O6G 1_555 1_555
Sb2G O2G 1_555 1_555
Sb3G O2G 1_555 1_555
Sb4G O3G 1_555 1_555
Sb5G O4G 1_555 1_555
Sb6G O5G 1_555 1_555
Sb7G Cl14G 1_555 1_555
Sb8G O9G 1_555 1_555
Sb9G Cl12G 1_555 1_555
Sb10G Cl13G 1_555 1_555
Sb11G O16G 1_555 1_555
Sb12G O14G 1_555 1_555
Sb13G O20G 1_555 1_555
Sb14G O20 1_555 1_555
Sb15G O22E 1_555 1_555
Cl2G Pr1G 1_555 1_555
Cl3G Pr1G 1_555 1_555
Cl4G Pr1G 1_555 1_555
Cl5G Pr2G 1_555 1_555
Cl6G Pr2G 1_555 1_555
Cl7G Pr3G 1_555 1_555
Cl8G Pr3G 1_555 1_555
Cl9G Pr4G 1_555 1_555
Cl10G Pr5G 1_555 1_555
S1G C56G 1_555 1_555
S2G C50G 1_555 1_555
S3G C44G 1_555 1_555
O2G Pr1G 1_555 1_555
O3G Pr1G 1_555 1_555
O4G Pr1G 1_555 1_555
O5G Pr1G 1_555 1_555
O6G Pr1G 1_555 1_555
O7G Pr1G 1_555 1_555
O8G Pr4G 1_555 1_555
O9G Pr4G 1_555 1_555
O10G Pr2G 1_555 1_555
O11G Pr2G 1_555 1_555
O12G Pr3G 1_555 1_555
O13G Pr3G 1_555 1_555
O14G Pr3G 1_555 1_555
O15G Pr2G 1_555 1_555
O16G Pr2G 1_555 1_555
O17G Pr3G 1_555 1_555
O18G Pr4G 1_555 1_555
O19G Pr2G 1_555 1_555
O20G Pr5 1_555 1_555
O21G Pr5G 1_555 1_555
O23G Pr5E 1_555 1_555
O24G Pr5 1_555 1_555
O25G Pr4G 1_555 1_555
O26G C43G 1_555 1_555
O27G Sb13G 1_555 1_555
O28G Pr5 1_555 1_555
O29G C49G 1_555 1_555
O30G Pr4G 1_555 1_555
O31G C54G 1_555 1_555
O32G Pr5 1_555 1_555
O33G C55G 1_555 1_555
O34G C55G 1_555 1_555
O35G Pr2G 1_555 1_555
O36G C60G 1_555 1_555
C43G O25G 1_555 1_555
C44G C43G 1_555 1_555
C45G C44G 1_555 1_555
H35G C45G 1_555 1_555
C46G C45G 1_555 1_555
H36G C46G 1_555 1_555
C47G S3G 1_555 1_555
C48G O27G 1_555 1_555
C49G O30G 1_555 1_555
C50G C49G 1_555 1_555
C51G C50G 1_555 1_555
H37G C51G 1_555 1_555
C52G C51G 1_555 1_555
H38G C52G 1_555 1_555
C53G S2G 1_555 1_555
C54G O32G 1_555 1_555
C55G C56G 1_555 1_555
C56G C57G 1_555 1_555
C57G H39G 1_555 1_555
C58G C57G 1_555 1_555
H40G C58G 1_555 1_555
C59G S1G 1_555 1_555
C60G O35G 1_555 1_555
Pr3A O33B 1_555 1_555
Pr3C O33 1_555 1_555
Pr3D O33E 1_555 1_555
Pr3F O33G 1_555 1_555
O33A Pr3 1_555 1_555
O33C Pr3B 1_555 1_555
O33D Pr3G 1_555 1_555
O33F Pr3E 1_555 1_555
C4 C12 1_555 1_555
C7 C11 1_555 1_555
C9 C10 1_555 1_555
C11 C12 1_555 1_555
C16 C24 1_555 1_555
C19 C23 1_555 1_555
C21 C22 1_555 1_555
C23 C24 1_555 1_555
C28 C36 1_555 1_555
C31 C35 1_555 1_555
C33 C34 1_555 1_555
C35 C36 1_555 1_555
C40 C41 1_555 1_555
Pr2 O4 1_555 1_555
Pr3 O6 1_555 1_555
Pr3 O16 1_555 1_555
Pr4 O2 1_555 1_555
Pr4 O14 1_555 1_555
Pr4 O15 1_555 1_555
Sb1 O7 1_555 1_555
Sb1 O13 1_555 1_555
Sb2 O7 1_555 1_555
Sb2 O8 1_555 1_555
Sb3 O3 1_555 1_555
Sb3 O9 1_555 1_555
Sb4 O4 1_555 1_555
Sb4 O10 1_555 1_555
Sb5 O5 1_555 1_555
Sb5 O11 1_555 1_555
Sb6 O6 1_555 1_555
Sb6 O12 1_555 1_555
Sb7 O8 1_555 1_555
Sb7 O13 1_555 1_555
Sb7 O14 1_555 1_555
Sb8 O10 1_555 1_555
Sb8 O15 1_555 1_555
Sb9 O11 1_555 1_555
Sb9 O12 1_555 1_555
Sb9 O16 1_555 1_555
Sb10 O15 1_555 1_555
Sb10 O18 1_555 1_555
Sb10 O19 1_555 1_555
Sb11 O17 1_555 1_555
Sb11 O19 1_555 1_555
Sb12 O17 1_555 1_555
Sb12 O18 1_555 1_555
Sb13 O21 1_555 1_555
Sb14 O24 1_555 1_555
Sb15 O22 1_555 1_555
O20 Pr5E 1_555 1_555
O22 Pr5B 1_555 1_555
O23 Pr5B 1_555 1_555
O24 Pr5E 1_555 1_555
O28 Pr5E 1_555 1_555
O32 Pr5E 1_555 1_555
C46 C47 1_555 1_555
C47 C48 1_555 1_555
C52 C53 1_555 1_555
C58 C59 1_555 1_555
C59 C60 1_555 1_555
Pr2B O4B 1_555 1_555
Pr3B O6B 1_555 1_555
Pr3B O16B 1_555 1_555
Pr4B O2B 1_555 1_555
Pr4B O14B 1_555 1_555
Pr4B O15B 1_555 1_555
Pr5B O20E 1_555 1_555
Sb1B O7B 1_555 1_555
Sb1B O13B 1_555 1_555
Sb2B O7B 1_555 1_555
Sb2B O8B 1_555 1_555
Sb3B O3B 1_555 1_555
Sb3B O9B 1_555 1_555
Sb4B O4B 1_555 1_555
Sb4B O10B 1_555 1_555
Sb5B O5B 1_555 1_555
Sb5B O11B 1_555 1_555
Sb6B O6B 1_555 1_555
Sb6B O12B 1_555 1_555
Sb7B O8B 1_555 1_555
Sb7B O13B 1_555 1_555
Sb7B O14B 1_555 1_555
Sb8B O10B 1_555 1_555
Sb8B O15B 1_555 1_555
Sb9B O11B 1_555 1_555
Sb9B O12B 1_555 1_555
Sb9B O16B 1_555 1_555
Sb10B O15B 1_555 1_555
Sb10B O18B 1_555 1_555
Sb10B O19B 1_555 1_555
Sb11B O17B 1_555 1_555
Sb11B O19B 1_555 1_555
Sb12B O17B 1_555 1_555
Sb12B O18B 1_555 1_555
Sb13B O21B 1_555 1_555
Sb14B O24B 1_555 1_555
Sb14B O20G 1_555 1_555
Sb15B O21B 1_555 1_555
Sb15B O23B 1_555 1_555
O20B Pr5G 1_555 1_555
O24B Pr5G 1_555 1_555
O28B Pr5G 1_555 1_555
O32B Pr5G 1_555 1_555
C46B C47B 1_555 1_555
C47B C48B 1_555 1_555
C52B C53B 1_555 1_555
C58B C59B 1_555 1_555
C59B C60B 1_555 1_555
Pr2E O4E 1_555 1_555
Pr3E O6E 1_555 1_555
Pr3E O16E 1_555 1_555
Pr4E O2E 1_555 1_555
Pr4E O14E 1_555 1_555
Pr4E O15E 1_555 1_555
Pr5E O20E 1_555 1_555
Sb1E O7E 1_555 1_555
Sb1E O13E 1_555 1_555
Sb2E O7E 1_555 1_555
Sb2E O8E 1_555 1_555
Sb3E O3E 1_555 1_555
Sb3E O9E 1_555 1_555
Sb4E O4E 1_555 1_555
Sb4E O10E 1_555 1_555
Sb5E O5E 1_555 1_555
Sb5E O11E 1_555 1_555
Sb6E O6E 1_555 1_555
Sb6E O12E 1_555 1_555
Sb7E O8E 1_555 1_555
Sb7E O13E 1_555 1_555
Sb7E O14E 1_555 1_555
Sb8E O10E 1_555 1_555
Sb8E O15E 1_555 1_555
Sb9E O11E 1_555 1_555
Sb9E O12E 1_555 1_555
Sb9E O16E 1_555 1_555
Sb10E O15E 1_555 1_555
Sb10E O18E 1_555 1_555
Sb10E O19E 1_555 1_555
Sb11E O17E 1_555 1_555
Sb11E O19E 1_555 1_555
Sb12E O17E 1_555 1_555
Sb12E O18E 1_555 1_555
Sb13E O21E 1_555 1_555
Sb13E O24E 1_555 1_555
Sb14E O24E 1_555 1_555
Sb15E O22E 1_555 1_555
Sb15E O23E 1_555 1_555
O22E Pr5G 1_555 1_555
O23E Pr5G 1_555 1_555
O28E C48E 1_555 1_555
C46E C47E 1_555 1_555
C47E C48E 1_555 1_555
C52E C53E 1_555 1_555
C53E C54E 1_555 1_555
C58E C59E 1_555 1_555
C59E C60E 1_555 1_555
Pr2G O4G 1_555 1_555
Pr3G O6G 1_555 1_555
Pr3G O16G 1_555 1_555
Pr4G O2G 1_555 1_555
Pr4G O14G 1_555 1_555
Pr4G O15G 1_555 1_555
Pr5G O20G 1_555 1_555
Sb1G O7G 1_555 1_555
Sb1G O13G 1_555 1_555
Sb2G O7G 1_555 1_555
Sb2G O8G 1_555 1_555
Sb3G O3G 1_555 1_555
Sb3G O9G 1_555 1_555
Sb4G O4G 1_555 1_555
Sb4G O10G 1_555 1_555
Sb5G O5G 1_555 1_555
Sb5G O11G 1_555 1_555
Sb6G O6G 1_555 1_555
Sb6G O12G 1_555 1_555
Sb7G O8G 1_555 1_555
Sb7G O13G 1_555 1_555
Sb7G O14G 1_555 1_555
Sb8G O10G 1_555 1_555
Sb8G O15G 1_555 1_555
Sb9G O11G 1_555 1_555
Sb9G O12G 1_555 1_555
Sb9G O16G 1_555 1_555
Sb10G O15G 1_555 1_555
Sb10G O18G 1_555 1_555
Sb10G O19G 1_555 1_555
Sb11G O17G 1_555 1_555
Sb11G O19G 1_555 1_555
Sb12G O17G 1_555 1_555
Sb12G O18G 1_555 1_555
Sb13G O21G 1_555 1_555
Sb13G O24G 1_555 1_555
Sb14G O23G 1_555 1_555
Sb14G O24G 1_555 1_555
Sb15G O21G 1_555 1_555
Sb15G O23G 1_555 1_555
O28G C48G 1_555 1_555
C46G C47G 1_555 1_555
C47G C48G 1_555 1_555
C52G C53G 1_555 1_555
C53G C54G 1_555 1_555
C58G C59G 1_555 1_555
C59G C60G 1_555 1_555

#END
