
#######################################################################
#
#                 Cambridge Crystallographic Data Centre
#                                CCDC 
#
#######################################################################
#
# If this CIF has been generated from an entry in the Cambridge 
# Structural Database, then it will include bibliographic, chemical, 
# crystal, experimental, refinement or atomic coordinate data resulting 
# from the CCDC's data processing and validation procedures.
#
#######################################################################

data_VEHXEM
_symmetry_cell_setting           monoclinic
_symmetry_space_group_name_H-M   'P 21/n'
_symmetry_Int_Tables_number      14
_space_group_name_Hall           '-P 2yn'
loop_
_symmetry_equiv_pos_site_id
_symmetry_equiv_pos_as_xyz
1 x,y,z
2 1/2-x,1/2+y,1/2-z
3 -x,-y,-z
4 1/2+x,1/2-y,1/2+z
_cell_length_a                   12.9427(18)
_cell_length_b                   19.328(3)
_cell_length_c                   16.081(2)
_cell_angle_alpha                90
_cell_angle_beta                 100.639(2)
_cell_angle_gamma                90
_cell_volume                     3953.62
loop_
_atom_site_label
_atom_site_type_symbol
_atom_site_fract_x
_atom_site_fract_y
_atom_site_fract_z
U1 U 0.379358(7) 0.244346(4) 1.041001(5)
I1 I 0.270615(14) 0.134027(9) 0.678501(11)
I2 I -0.030492(15) 0.146566(10) 0.890021(12)
K1 K 0.13364(4) 0.25099(3) 0.78888(3)
O1 O 0.28226(14) 0.24600(8) 0.94211(11)
O2 O 0.47813(13) 0.24176(8) 1.13872(11)
N1 N 0.38328(16) 0.37889(11) 1.04208(13)
N2 N 0.23243(15) 0.28867(11) 1.11836(13)
N3 N 0.28821(15) 0.13818(10) 1.09718(12)
N4 N 0.46431(16) 0.13463(10) 0.98801(13)
N5 N 0.52198(17) 0.28149(11) 0.95416(13)
N6 N 0.02728(19) 0.36618(13) 0.85298(15)
N7 N 0.2710(2) 0.37181(15) 0.72422(17)
C1 C 0.3138(2) 0.41446(15) 0.98579(18)
H1 H 0.271(2) 0.3861(14) 0.9490(17)
C2 C 0.3070(3) 0.48493(16) 0.9849(2)
H2 H 0.261(2) 0.5067(16) 0.9454(18)
C3 C 0.3737(3) 0.52198(17) 1.0435(2)
H3 H 0.371(2) 0.5721(19) 1.0430(18)
C4 C 0.4456(3) 0.48697(17) 1.1026(2)
H4 H 0.492(2) 0.5077(16) 1.1435(19)
C5 C 0.4482(2) 0.41589(16) 1.0995(2)
H5 H 0.497(2) 0.3927(16) 1.1317(18)
C6 C 0.1308(2) 0.27813(16) 1.08659(19)
H6 H 0.120(2) 0.2538(13) 1.0397(19)
C7 C 0.0514(2) 0.29969(16) 1.1258(2)
H7 H -0.014(2) 0.2912(15) 1.1039(17)
C8 C 0.0764(2) 0.33389(16) 1.2014(2)
H8 H 0.024(2) 0.3447(15) 1.2270(18)
C9 C 0.1801(2) 0.34618(16) 1.2350(2)
H9 H 0.200(2) 0.3645(14) 1.2875(18)
C10 C 0.2550(2) 0.32266(15) 1.19195(17)
H10 H 0.323(2) 0.3290(13) 1.2146(15)
C11 C 0.3055(2) 0.12364(15) 1.18008(17)
H11 H 0.356(2) 0.1510(15) 1.2136(16)
C12 C 0.2554(2) 0.07198(16) 1.21485(19)
H12 H 0.267(2) 0.0665(15) 1.2705(19)
C13 C 0.1834(2) 0.03157(16) 1.16293(19)
H13 H 0.144(2) -0.0050(16) 1.1841(18)
C14 C 0.1642(2) 0.04585(16) 1.0783(2)
H14 H 0.121(2) 0.0228(16) 1.0424(19)
C15 C 0.2169(2) 0.09906(15) 1.04774(18)
H15 H 0.2084(19) 0.1074(12) 0.9939(16)
C16 C 0.5540(2) 0.10777(15) 1.0292(2)
H16 H 0.573(2) 0.1231(14) 1.0758(18)
C17 C 0.6111(2) 0.05895(16) 0.9946(2)
H17 H 0.668(2) 0.0444(17) 1.024(2)
C18 C 0.5737(3) 0.03664(17) 0.9143(2)
H18 H 0.605(3) 0.0045(19) 0.888(2)
C19 C 0.4810(3) 0.06220(15) 0.8714(2)
H19 H 0.452(2) 0.0476(15) 0.8203(18)
C20 C 0.4293(2) 0.11132(14) 0.90965(17)
H20 H 0.3707(19) 0.1302(13) 0.8807(15)
C21 C 0.6229(2) 0.26911(15) 0.9842(2)
H21 H 0.638(2) 0.2575(13) 1.034(2)
C22 C 0.7002(3) 0.27478(18) 0.9366(2)
H22 H 0.765(3) 0.2658(15) 0.959(2)
C23 C 0.6735(3) 0.29735(18) 0.8557(2)
H23 H 0.720(2) 0.3030(17) 0.8267(19)
C24 C 0.5703(3) 0.31308(17) 0.8239(2)
H24 H 0.554(2) 0.3274(16) 0.771(2)
C25 C 0.4978(3) 0.30356(15) 0.87411(18)
H25 H 0.432(2) 0.3101(14) 0.8559(16)
C26 C 0.0434(3) 0.43117(19) 0.8316(2)
H26 H 0.083(2) 0.4377(16) 0.7961(19)
C27 C -0.0036(3) 0.48750(19) 0.8596(2)
H27 H 0.016(2) 0.5284(16) 0.8459(18)
C28 C -0.0724(3) 0.47723(18) 0.9129(2)
H28 H -0.106(2) 0.5134(16) 0.9312(18)
C29 C -0.0903(2) 0.41075(17) 0.9371(2)
H29 H -0.131(2) 0.4027(15) 0.9740(17)
C30 C -0.0391(2) 0.35763(17) 0.90568(19)
H30 H -0.048(2) 0.3143(16) 0.9194(17)
C31 C 0.2905(3) 0.4391(2) 0.7370(2)
H31 H 0.258(2) 0.4596(16) 0.7784(19)
C32 C 0.3503(3) 0.4775(2) 0.6945(2)
H32 H 0.362(3) 0.523(2) 0.7068(19)
C33 C 0.3950(3) 0.4467(2) 0.6342(2)
H33 H 0.440(3) 0.4671(18) 0.608(2)
C34 C 0.3782(3) 0.3778(2) 0.6185(2)
H34 H 0.407(3) 0.354(2) 0.578(2)
C35 C 0.3150(3) 0.3423(2) 0.6651(2)
H35 H 0.302(2) 0.2996(18) 0.6578(19)
K1C K 0.63364(4) 0.24901(3) 1.28888(3)
O2C O -0.02187(13) 0.25824(8) 0.63872(11)
loop_
_geom_bond_atom_site_label_1
_geom_bond_atom_site_label_2
_geom_bond_site_symmetry_1
_geom_bond_site_symmetry_2
U1 O1 1_555 1_555
I1 K1 1_555 1_555
I2 K1 1_555 1_555
K1 O1 1_555 1_555
O2 U1 1_555 1_555
N1 U1 1_555 1_555
N2 U1 1_555 1_555
N3 U1 1_555 1_555
N4 U1 1_555 1_555
N5 U1 1_555 1_555
N6 K1 1_555 1_555
N7 K1 1_555 1_555
C1 N1 1_555 1_555
H1 C1 1_555 1_555
C2 C1 1_555 1_555
H2 C2 1_555 1_555
C3 C2 1_555 1_555
H3 C3 1_555 1_555
C4 C3 1_555 1_555
H4 C4 1_555 1_555
C5 N1 1_555 1_555
H5 C5 1_555 1_555
C6 N2 1_555 1_555
H6 C6 1_555 1_555
C7 C6 1_555 1_555
H7 C7 1_555 1_555
C8 C7 1_555 1_555
H8 C8 1_555 1_555
C9 C8 1_555 1_555
H9 C9 1_555 1_555
C10 N2 1_555 1_555
H10 C10 1_555 1_555
C11 N3 1_555 1_555
H11 C11 1_555 1_555
C12 C11 1_555 1_555
H12 C12 1_555 1_555
C13 C12 1_555 1_555
H13 C13 1_555 1_555
C14 C13 1_555 1_555
H14 C14 1_555 1_555
C15 N3 1_555 1_555
H15 C15 1_555 1_555
C16 N4 1_555 1_555
H16 C16 1_555 1_555
C17 C16 1_555 1_555
H17 C17 1_555 1_555
C18 C17 1_555 1_555
H18 C18 1_555 1_555
C19 C18 1_555 1_555
H19 C19 1_555 1_555
C20 N4 1_555 1_555
H20 C20 1_555 1_555
C21 N5 1_555 1_555
H21 C21 1_555 1_555
C22 C21 1_555 1_555
H22 C22 1_555 1_555
C23 C22 1_555 1_555
H23 C23 1_555 1_555
C24 C23 1_555 1_555
H24 C24 1_555 1_555
C25 N5 1_555 1_555
H25 C25 1_555 1_555
C26 N6 1_555 1_555
H26 C26 1_555 1_555
C27 C26 1_555 1_555
H27 C27 1_555 1_555
C28 C27 1_555 1_555
H28 C28 1_555 1_555
C29 C28 1_555 1_555
H29 C29 1_555 1_555
C30 N6 1_555 1_555
H30 C30 1_555 1_555
C31 N7 1_555 1_555
H31 C31 1_555 1_555
C32 C31 1_555 1_555
H32 C32 1_555 1_555
C33 C32 1_555 1_555
H33 C33 1_555 1_555
C34 C33 1_555 1_555
H34 C34 1_555 1_555
C35 N7 1_555 1_555
H35 C35 1_555 1_555
K1C O2 1_555 1_555
O2C K1 1_555 1_555
C4 C5 1_555 1_555
C9 C10 1_555 1_555
C14 C15 1_555 1_555
C19 C20 1_555 1_555
C24 C25 1_555 1_555
C29 C30 1_555 1_555
C34 C35 1_555 1_555

#END
