
#######################################################################
#
#                 Cambridge Crystallographic Data Centre
#                                CCDC 
#
#######################################################################
#
# If this CIF has been generated from an entry in the Cambridge 
# Structural Database, then it will include bibliographic, chemical, 
# crystal, experimental, refinement or atomic coordinate data resulting 
# from the CCDC's data processing and validation procedures.
#
#######################################################################

data_VEJBAP
_symmetry_cell_setting           triclinic
_symmetry_space_group_name_H-M   'P -1'
_symmetry_Int_Tables_number      2
_space_group_name_Hall           '-P 1'
loop_
_symmetry_equiv_pos_site_id
_symmetry_equiv_pos_as_xyz
1 x,y,z
2 -x,-y,-z
_cell_length_a                   10.863(5)
_cell_length_b                   12.385(5)
_cell_length_c                   15.883(5)
_cell_angle_alpha                99.882(5)
_cell_angle_beta                 96.920(5)
_cell_angle_gamma                101.044(5)
_cell_volume                     2040.03
loop_
_atom_site_label
_atom_site_type_symbol
_atom_site_fract_x
_atom_site_fract_y
_atom_site_fract_z
O1 O 0.4163(18) -1.584(2) -0.592(2)
H1 H 0.4285 -1.5176 -0.6162
H2 H 0.4537 -1.6390 -0.6236
O2 O -0.3829(15) -1.6344(14) -0.2944(12)
H3 H -0.4347 -1.6555 -0.3391
O3 O 0.2901(19) -1.8317(17) -0.5944(18)
H4 H 0.3713 -1.8149 -0.6130
H5 H 0.3019 -1.8402 -0.5352
O4 O -0.2799(15) -1.7545(14) -0.3656(12)
O5 O -0.0224(13) -1.5809(12) -0.3657(12)
O6 O 0.203(2) -1.6280(17) -0.7583(12)
H6 H 0.2405 -1.5498 -0.7532
H7 H 0.2596 -1.6724 -0.7812
O7 O 0.0174(16) -1.8140(13) -0.3650(11)
O8 O -0.0962(16) -1.9791(14) -0.3583(13)
O9 O 0.2123(17) -1.4615(13) -0.5282(12)
H8 H 0.1341 -1.4428 -0.5149
H9 H 0.2715 -1.4490 -0.4757
O10 O 0.4297(16) -1.676(2) -0.4129(11)
O11 O -0.0170(15) -1.7934(13) -0.5400(10)
H10 H -0.0205 -1.7825 -0.5986
H11 H -0.0271 -1.7335 -0.4961
O12 O 0.2270(14) -1.6599(13) -0.4423(9)
O13 O 0.0376(14) -1.3983(13) -0.3446(12)
C1 C -0.193(2) -1.6520(19) -0.2257(15)
H12 H -0.1702 -1.5707 -0.2103
H13 H -0.2281 -1.6797 -0.1783
C2 C 0.2669(19) -1.5656(17) -0.1181(13)
H14 H 0.3510 -1.5715 -0.1301
H15 H 0.2599 -1.4882 -0.1155
C3 C 0.250(2) -1.5977(19) -0.0309(16)
H16 H 0.3160 -1.5501 0.0139
H17 H 0.2570 -1.6749 -0.0332
C4 C 0.325(2) -1.659(2) -0.3930(17)
C5 C -0.095(2) -1.8220(17) -0.2501(15)
H18 H -0.0470 -1.8396 -0.2005
H19 H -0.1840 -1.8525 -0.2503
C6 C 0.317(2) -1.6393(19) -0.2951(14)
H20 H 0.3856 -1.5778 -0.2644
H21 H 0.3269 -1.7061 -0.2732
C7 C 0.019(2) -1.6570(19) -0.0796(14)
H22 H 0.0226 -1.7351 -0.0818
H23 H -0.0640 -1.6479 -0.0670
C8 C 0.120(2) -1.584(2) -0.0087(16)
H24 H 0.1133 -1.5063 -0.0034
H25 H 0.1084 -1.6064 0.0460
C9 C 0.186(2) -1.4967(18) -0.2924(16)
H26 H 0.2022 -1.4456 -0.2367
H27 H 0.2518 -1.4715 -0.3252
C10 C 0.0369(19) -1.626(2) -0.1713(16)
H28 H 0.0340 -1.5469 -0.1675
C11 C 0.1692(17) -1.6401(17) -0.1895(13)
H29 H 0.1749 -1.7182 -0.1902
C12 C -0.285(2) -1.686(2) -0.3015(16)
C13 C 0.059(2) -1.4935(19) -0.3401(15)
C14 C -0.057(2) -1.8797(19) -0.3302(15)
N1 N 0.1913(14) -1.6121(13) -0.2787(10)
N2 N -0.0744(14) -1.6962(14) -0.2386(10)
O37 O 0.0503(17) -1.8382(15) -0.7171(11)
H30 H 0.0207 -1.8718 -0.7771
H31 H 0.1412 -1.8146 -0.7078
O38 O 0.217(2) -1.965(2) -0.4182(18)
H32 H 0.2782 -2.0040 -0.4404
H33 H 0.2430 -1.9090 -0.3660
Sr1 Sr 0.17275(19) -1.66616(17) -0.60287(14)
Sr2 Sr 0.0000 -2.0000 -0.5000
O1A O -0.4163(18) -2.416(2) -0.408(2)
H1A H -0.4285 -2.4824 -0.3838
H2A H -0.4537 -2.3610 -0.3764
O2A O 0.3829(15) -2.3656(14) -0.7056(12)
H3A H 0.4347 -2.3445 -0.6609
O3A O -0.2901(19) -2.1683(17) -0.4056(18)
H4A H -0.3713 -2.1851 -0.3870
H5A H -0.3019 -2.1598 -0.4648
O4A O 0.2799(15) -2.2455(14) -0.6344(12)
O5A O 0.0224(13) -2.4191(12) -0.6343(12)
O6A O -0.203(2) -2.3720(17) -0.2417(12)
H6A H -0.2405 -2.4502 -0.2468
H7A H -0.2596 -2.3276 -0.2188
O7A O -0.0174(16) -2.1860(13) -0.6350(11)
O8A O 0.0962(16) -2.0209(14) -0.6417(13)
O9A O -0.2123(17) -2.5385(13) -0.4718(12)
H8A H -0.1341 -2.5572 -0.4851
H9A H -0.2715 -2.5510 -0.5243
O10A O -0.4297(16) -2.324(2) -0.5871(11)
O11A O 0.0170(15) -2.2066(13) -0.4600(10)
H10A H 0.0205 -2.2175 -0.4014
H11A H 0.0271 -2.2665 -0.5039
O12A O -0.2270(14) -2.3401(13) -0.5577(9)
O13A O -0.0376(14) -2.6017(13) -0.6554(12)
O13A_2 O -0.0376(14) -1.6017(13) -0.6554(12)
O13_2 O 0.0376(14) -2.3983(13) -0.3446(12)
C1A C 0.193(2) -2.3480(19) -0.7743(15)
H12A H 0.1702 -2.4293 -0.7897
H13A H 0.2281 -2.3203 -0.8217
C2A C -0.2669(19) -2.4344(17) -0.8819(13)
H14A H -0.3510 -2.4285 -0.8699
H15A H -0.2599 -2.5118 -0.8845
C3A C -0.250(2) -2.4023(19) -0.9691(16)
H16A H -0.3160 -2.4499 -1.0139
H17A H -0.2570 -2.3251 -0.9668
C4A C -0.325(2) -2.341(2) -0.6070(17)
C5A C 0.095(2) -2.1780(17) -0.7499(15)
H18A H 0.0470 -2.1604 -0.7995
H19A H 0.1840 -2.1475 -0.7497
C6A C -0.317(2) -2.3607(19) -0.7049(14)
H20A H -0.3856 -2.4222 -0.7356
H21A H -0.3269 -2.2939 -0.7268
C7A C -0.019(2) -2.3430(19) -0.9204(14)
H22A H -0.0226 -2.2649 -0.9182
H23A H 0.0640 -2.3521 -0.9330
C8A C -0.120(2) -2.416(2) -0.9913(16)
H24A H -0.1133 -2.4937 -0.9966
H25A H -0.1084 -2.3936 -1.0460
C9A C -0.186(2) -2.5033(18) -0.7076(16)
H26A H -0.2022 -2.5544 -0.7633
H27A H -0.2518 -2.5285 -0.6748
C10A C -0.0369(19) -2.374(2) -0.8287(16)
H28A H -0.0340 -2.4531 -0.8325
C11A C -0.1692(17) -2.3599(17) -0.8105(13)
H29A H -0.1749 -2.2818 -0.8098
C12A C 0.285(2) -2.314(2) -0.6985(16)
C13A C -0.059(2) -2.5065(19) -0.6599(15)
C14A C 0.057(2) -2.1203(19) -0.6698(15)
N1A N -0.1913(14) -2.3879(13) -0.7213(10)
N2A N 0.0744(14) -2.3038(14) -0.7614(10)
O37A O -0.0503(17) -2.1618(15) -0.2829(11)
H30A H -0.0207 -2.1282 -0.2229
H31A H -0.1412 -2.1854 -0.2922
O38A O -0.217(2) -2.035(2) -0.5818(18)
H32A H -0.2782 -1.9960 -0.5596
H33A H -0.2430 -2.0910 -0.6340
Sr1A Sr -0.17275(19) -2.33384(17) -0.39713(14)
Sr1A_2 Sr -0.17275(19) -1.33384(17) -0.39713(14)
Sr1_2 Sr 0.17275(19) -2.66616(17) -0.60287(14)
N3 N 0.389(4) -1.068(4) -0.495(3)
N4 N 0.4086(17) -1.2824(18) -0.4293(16)
O36 O -0.2247(14) -0.7841(14) -0.6610(12)
W1 W 0.26022(8) 0.05019(7) -0.14756(6)
W2 W 0.50119(9) -0.25399(7) -0.14019(6)
W3 W 0.78598(7) 0.20443(7) 0.07258(6)
W4 W 0.78597(8) -0.05005(7) -0.06804(6)
W5 W 0.54555(9) -0.00048(7) -0.21634(6)
W6 W 0.54516(9) 0.25354(7) -0.07566(6)
O14 O 0.571(2) -0.058(2) -0.0768(16)
O15 O 0.466(2) 0.058(2) -0.0820(17)
O16 O 0.568(2) 0.133(2) 0.0291(19)
O17 O 0.3697(15) 0.1912(14) -0.1227(13)
O18 O 0.7150(16) 0.2631(16) -0.0156(12)
O19 O 0.350(2) -0.0200(18) -0.0300(15)
O20 O 0.3693(15) -0.0023(13) -0.2231(15)
O21 O 0.1961(19) -0.1034(11) -0.1501(9)
O22 O 0.5839(15) 0.1536(13) -0.1715(15)
O23 O 0.3208(15) -0.2639(16) -0.1444(11)
O24 O 0.5013(16) -0.1575(16) -0.2185(14)
O25 O 0.6790(17) -0.1952(14) -0.1101(13)
O26 O 0.7128(17) -0.0051(15) -0.1640(14)
O27 O 0.8351(17) 0.1020(12) -0.0116(10)
O28 O 0.1952(16) 0.0869(12) -0.0447(11)
O29 O 0.5006(17) -0.2965(18) -0.0335(10)
O30 O 0.5644(13) 0.3712(12) -0.1130(11)
O31 O 0.9242(15) -0.0752(13) -0.0980(11)
O32 O 0.9212(15) 0.3019(13) 0.1096(10)
O33 O 0.1488(17) 0.0739(13) -0.2190(9)
O34 O 0.5650(14) 0.0024(12) -0.3195(10)
O35 O 0.4999(14) -0.3737(12) -0.2083(10)
Si1 Si 0.5000 0.0000 0.0000
W1A W 0.73978(8) -0.05019(7) 0.14756(6)
W2A W 0.49881(9) 0.25399(7) 0.14019(6)
W3A W 0.21402(7) -0.20443(7) -0.07258(6)
W4A W 0.21403(8) 0.05005(7) 0.06804(6)
W5A W 0.45445(9) 0.00048(7) 0.21634(6)
W6A W 0.45484(9) -0.25354(7) 0.07566(6)
O14A O 0.429(2) 0.058(2) 0.0768(16)
O15A O 0.534(2) -0.058(2) 0.0820(17)
O16A O 0.432(2) -0.133(2) -0.0291(19)
O17A O 0.6303(15) -0.1912(14) 0.1227(13)
O18A O 0.2850(16) -0.2631(16) 0.0156(12)
O19A O 0.650(2) 0.0200(18) 0.0300(15)
O20A O 0.6307(15) 0.0023(13) 0.2231(15)
O21A O 0.8039(19) 0.1034(11) 0.1501(9)
O22A O 0.4161(15) -0.1536(13) 0.1715(15)
O23A O 0.6792(15) 0.2639(16) 0.1444(11)
O24A O 0.4987(16) 0.1575(16) 0.2185(14)
O25A O 0.3210(17) 0.1952(14) 0.1101(13)
O26A O 0.2872(17) 0.0051(15) 0.1640(14)
O27A O 0.1649(17) -0.1020(12) 0.0116(10)
O28A O 0.8048(16) -0.0869(12) 0.0447(11)
O29A O 0.4994(17) 0.2965(18) 0.0335(10)
O30A O 0.4356(13) -0.3712(12) 0.1130(11)
O31A O 0.0758(15) 0.0752(13) 0.0980(11)
O32A O 0.0788(15) -0.3019(13) -0.1096(10)
O33A O 0.8512(17) -0.0739(13) 0.2190(9)
O34A O 0.4350(14) -0.0024(12) 0.3195(10)
O35A O 0.5001(14) 0.3737(12) 0.2083(10)
Sr3? Sr -0.0597(11) -1.0330(9) -0.5038(7)
N5? N 0.511(6) -1.101(5) -0.530(4)
loop_
_geom_bond_atom_site_label_1
_geom_bond_atom_site_label_2
_geom_bond_site_symmetry_1
_geom_bond_site_symmetry_2
W1 O15 1_555 1_555
W2 O14 1_555 1_555
W3 O16 1_555 1_555
W4 O14 1_555 1_555
W5 O14 1_555 1_555
W6 O15 1_555 1_555
O1 H1 1_555 1_555
H2 O1 1_555 1_555
O2 H3 1_555 1_555
O3 H4 1_555 1_555
H5 O3 1_555 1_555
O4 C12 1_555 1_555
O5 C13 1_555 1_555
O6 H6 1_555 1_555
H7 O6 1_555 1_555
O7 C14 1_555 1_555
O8 C14 1_555 1_555
O9 H8 1_555 1_555
H9 O9 1_555 1_555
O10 C4 1_555 1_555
O11 H10 1_555 1_555
H11 O11 1_555 1_555
O12 C4 1_555 1_555
O13 C13 1_555 1_555
O14 Si1 1_555 1_555
O15 W5 1_555 1_555
O16 W6 1_555 1_555
O17 W1 1_555 1_555
O18 W3 1_555 1_555
O19 W1 1_555 1_555
O20 W1 1_555 1_555
O21 W1 1_555 1_555
O22 W5 1_555 1_555
O23 W2 1_555 1_555
O24 W2 1_555 1_555
O25 W2 1_555 1_555
O26 W4 1_555 1_555
O27 W3 1_555 1_555
O28 W1 1_555 1_555
O29 W2 1_555 1_555
O30 W6 1_555 1_555
O31 W4 1_555 1_555
O32 W3 1_555 1_555
O33 W1 1_555 1_555
O34 W5 1_555 1_555
O35 W2 1_555 1_555
C1 H12 1_555 1_555
H13 C1 1_555 1_555
C2 H14 1_555 1_555
H15 C2 1_555 1_555
C3 C2 1_555 1_555
H16 C3 1_555 1_555
H17 C3 1_555 1_555
C4 C6 1_555 1_555
C5 H18 1_555 1_555
H19 C5 1_555 1_555
C6 H20 1_555 1_555
H21 C6 1_555 1_555
C7 H22 1_555 1_555
H23 C7 1_555 1_555
C8 C3 1_555 1_555
H24 C8 1_555 1_555
H25 C8 1_555 1_555
C9 H26 1_555 1_555
H27 C9 1_555 1_555
C10 C7 1_555 1_555
H28 C10 1_555 1_555
C11 C2 1_555 1_555
H29 C11 1_555 1_555
C12 O2 1_555 1_555
C13 C9 1_555 1_555
C14 C5 1_555 1_555
N1 C6 1_555 1_555
N2 C1 1_555 1_555
O37 H30 1_555 1_555
H31 O37 1_555 1_555
O38 H32 1_555 1_555
H33 O38 1_555 1_555
Sr1 O1 1_555 1_555
Si1 O15 1_555 1_555
Sr2 O8 1_555 1_555
W1A O15A 1_555 1_555
W2A O16 1_555 1_555
W3A O19 1_555 1_555
W4A O19 1_555 1_555
W5A O14A 1_555 1_555
W6A O29 1_555 1_555
O1A H1A 1_555 1_555
H2A O1A 1_555 1_555
O2A H3A 1_555 1_555
O3A H4A 1_555 1_555
H5A O3A 1_555 1_555
O4A C12A 1_555 1_555
O5A C13A 1_555 1_555
O6A H6A 1_555 1_555
H7A O6A 1_555 1_555
O7A C14A 1_555 1_555
O8A Sr2 1_555 1_555
O9A H8A 1_555 1_555
H9A O9A 1_555 1_555
O10A C4A 1_555 1_555
O11A H10A 1_555 1_555
H11A O11A 1_555 1_555
O12A C4A 1_555 1_555
O13A C13A 1_555 1_555
O13A_2 Sr1 1_555 1_555
O13_2 Sr1A 1_555 1_555
O14A Si1 1_555 1_555
O15A Si1 1_555 1_555
O16A W2 1_555 1_555
O17A W1A 1_555 1_555
O18A W3A 1_555 1_555
O19A W3 1_555 1_555
O20A W1A 1_555 1_555
O21A W3 1_555 1_555
O22A W5A 1_555 1_555
O23A W3 1_555 1_555
O24A W2A 1_555 1_555
O25A W2A 1_555 1_555
O26A W4A 1_555 1_555
O27A W3A 1_555 1_555
O28A W4 1_555 1_555
O29A W6 1_555 1_555
O30A W6A 1_555 1_555
O31A W4A 1_555 1_555
O32A W3A 1_555 1_555
O33A W1A 1_555 1_555
O34A W5A 1_555 1_555
O35A W2A 1_555 1_555
C1A H12A 1_555 1_555
H13A C1A 1_555 1_555
C2A H14A 1_555 1_555
H15A C2A 1_555 1_555
C3A C2A 1_555 1_555
H16A C3A 1_555 1_555
H17A C3A 1_555 1_555
C4A C6A 1_555 1_555
C5A H18A 1_555 1_555
H19A C5A 1_555 1_555
C6A H20A 1_555 1_555
H21A C6A 1_555 1_555
C7A H22A 1_555 1_555
H23A C7A 1_555 1_555
C8A C3A 1_555 1_555
H24A C8A 1_555 1_555
H25A C8A 1_555 1_555
C9A H26A 1_555 1_555
H27A C9A 1_555 1_555
C10A C7A 1_555 1_555
H28A C10A 1_555 1_555
C11A C2A 1_555 1_555
H29A C11A 1_555 1_555
C12A O2A 1_555 1_555
C13A C9A 1_555 1_555
C14A O8A 1_555 1_555
N1A C6A 1_555 1_555
N2A C1A 1_555 1_555
O37A H30A 1_555 1_555
H31A O37A 1_555 1_555
O38A Sr2 1_555 1_555
H32A O38A 1_555 1_555
H33A O38A 1_555 1_555
Sr1A O1A 1_555 1_555
Sr1A_2 O13 1_555 1_555
Sr1_2 O13A 1_555 1_555
W4 O25 1_555 1_555
W4 O27 1_555 1_555
W4 O19A 1_555 1_555
W5 O20 1_555 1_555
W5 O24 1_555 1_555
W5 O26 1_555 1_555
W6 O17 1_555 1_555
W6 O18 1_555 1_555
W6 O22 1_555 1_555
O3 Sr1 1_555 1_555
O6 Sr1 1_555 1_555
O9 Sr1 1_555 1_555
O11 Sr1 1_555 1_555
O12 Sr1 1_555 1_555
O16 Si1 1_555 1_555
O19 Si1 1_555 1_555
O21 W3A 1_555 1_555
O23 W3A 1_555 1_555
O28 W4A 1_555 1_555
C1 C12 1_555 1_555
C5 N2 1_555 1_555
C7 C8 1_555 1_555
C9 N1 1_555 1_555
C10 C11 1_555 1_555
C10 N2 1_555 1_555
C11 N1 1_555 1_555
O37 Sr1 1_555 1_555
O38 Sr2 1_555 1_555
Si1 O16A 1_555 1_555
Si1 O19A 1_555 1_555
W1A O19A 1_555 1_555
W1A O21A 1_555 1_555
W1A O28A 1_555 1_555
W2A O14A 1_555 1_555
W2A O23A 1_555 1_555
W2A O29A 1_555 1_555
W3A O16A 1_555 1_555
W4A O14A 1_555 1_555
W4A O25A 1_555 1_555
W4A O27A 1_555 1_555
W5A O15A 1_555 1_555
W5A O20A 1_555 1_555
W5A O24A 1_555 1_555
W5A O26A 1_555 1_555
W6A O15A 1_555 1_555
W6A O16A 1_555 1_555
W6A O17A 1_555 1_555
W6A O18A 1_555 1_555
W6A O22A 1_555 1_555
O3A Sr1A 1_555 1_555
O6A Sr1A 1_555 1_555
O9A Sr1A 1_555 1_555
O11A Sr1A 1_555 1_555
O12A Sr1A 1_555 1_555
C1A C12A 1_555 1_555
C5A C14A 1_555 1_555
C5A N2A 1_555 1_555
C7A C8A 1_555 1_555
C9A N1A 1_555 1_555
C10A C11A 1_555 1_555
C10A N2A 1_555 1_555
C11A N1A 1_555 1_555
O37A Sr1A 1_555 1_555

#END
