
#######################################################################
#
#                 Cambridge Crystallographic Data Centre
#                                CCDC 
#
#######################################################################
#
# If this CIF has been generated from an entry in the Cambridge 
# Structural Database, then it will include bibliographic, chemical, 
# crystal, experimental, refinement or atomic coordinate data resulting 
# from the CCDC's data processing and validation procedures.
#
#######################################################################

data_VEJCAQ
_symmetry_cell_setting           triclinic
_symmetry_space_group_name_H-M   'P -1'
_symmetry_Int_Tables_number      2
_space_group_name_Hall           '-P 1'
loop_
_symmetry_equiv_pos_site_id
_symmetry_equiv_pos_as_xyz
1 x,y,z
2 -x,-y,-z
_cell_length_a                   11.250(5)
_cell_length_b                   12.430(5)
_cell_length_c                   16.820(5)
_cell_angle_alpha                91.142(5)
_cell_angle_beta                 94.896(5)
_cell_angle_gamma                102.639(5)
_cell_volume                     2284.89
loop_
_atom_site_label
_atom_site_type_symbol
_atom_site_fract_x
_atom_site_fract_y
_atom_site_fract_z
N1 N 1.4705(16) -0.3445(15) 0.7446(12)
N2 N 1.2172(15) -0.4876(14) 0.7367(10)
O7 O 0.697(2) -0.5138(17) 0.4994(13)
H1 H 0.6373 -0.4793 0.4723
H2 H 0.7191 -0.5652 0.4632
O10 O 0.9318(13) -0.5254(13) 0.6092(9)
O20 O 1.1124(15) -0.5622(14) 0.5923(10)
O22 O 1.0888(14) -0.3219(14) 0.5186(10)
H3 H 1.0995 -0.2601 0.4845
H4 H 1.1113 -0.3828 0.4924
O25 O 1.7381(17) -0.3772(19) 0.6522(12)
O26 O 1.3518(19) -0.7194(14) 0.6949(12)
O29 O 1.372(2) -0.1419(14) 0.6172(12)
O33 O 1.426(4) -0.940(2) 0.711(3)
H5 H 1.3637 -0.9245 0.7420
H6 H 1.4840 -0.9691 0.7448
O34 O 1.701(3) -0.862(3) 0.689(2)
H7 H 1.6767 -0.9259 0.7196
H8 H 1.7664 -0.8102 0.7182
O35 O 1.563(3) -0.755(3) 0.8091(15)
H9 H 1.4992 -0.7229 0.8265
H10 H 1.6412 -0.7097 0.8283
O36 O 1.704(2) -0.615(2) 0.6924(19)
H11 H 1.7342 -0.5869 0.6434
H12 H 1.7680 -0.6382 0.7243
O37 O 0.822(2) -0.2259(16) 0.4812(15)
H13 H 0.7349 -0.2371 0.4718
H14 H 0.8578 -0.2187 0.4312
O38 O 0.9787(17) -0.2593(18) 0.6549(13)
H15 H 0.9539 -0.1901 0.6539
H16 H 1.0649 -0.2467 0.6496
O39 O 1.4900(17) -0.6489(15) 0.5525(11)
H17 H 1.4916 -0.6845 0.5015
H18 H 1.5504 -0.5808 0.5575
O40 O 1.3976(14) -0.5399(12) 0.6632(10)
O42 O 1.2895(14) -0.3201(13) 0.6328(10)
O43 O 1.444(9) -0.904(5) 0.560(7)
H19 H 1.3576 -0.9184 0.5654
H20 H 1.4728 -0.9705 0.5683
O44 O 1.609(10) -0.839(7) 0.546(2)
H21 H 1.5654 -0.8258 0.4976
H22 H 1.6074 -0.9165 0.5495
O45 O 1.5722(17) -0.3204(18) 0.6074(11)
Ca1 Ca 0.8704(4) -0.3764(4) 0.5461(3)
Ca2 Ca 1.5361(5) -0.7714(4) 0.6606(3)
C1 C 1.414(2) -0.388(2) 0.8123(12)
H23 H 1.4329 -0.4606 0.8183
C2 C 1.466(2) -0.323(3) 0.8907(14)
H24 H 1.5533 -0.3201 0.8978
H25 H 1.4565 -0.2475 0.8854
C3 C 1.409(2) -0.368(3) 0.9672(16)
H26 H 1.4452 -0.3182 1.0125
H27 H 1.4274 -0.4393 0.9774
C4 C 1.270(2) -0.379(2) 0.9585(15)
H28 H 1.2514 -0.3069 0.9522
H29 H 1.2353 -0.4103 1.0059
C5 C 1.603(2) -0.359(2) 0.7439(14)
H30 H 1.6089 -0.4301 0.7642
H31 H 1.6572 -0.3021 0.7784
C6 C 1.454(2) -0.2304(18) 0.7253(16)
H32 H 1.4262 -0.1977 0.7709
H33 H 1.5325 -0.1847 0.7148
C7 C 1.0815(17) -0.4845(16) 0.7187(12)
H34 H 1.0322 -0.5306 0.7549
H35 H 1.0708 -0.4096 0.7255
C8 C 1.642(2) -0.3504(19) 0.6587(15)
C9 C 1.2716(18) -0.4089(16) 0.8093(12)
H36 H 1.2487 -0.3383 0.7995
C10 C 1.234(2) -0.6018(17) 0.7428(14)
H37 H 1.2507 -0.6167 0.7985
H38 H 1.1581 -0.6525 0.7225
C11 C 1.363(2) -0.2332(18) 0.6529(16)
C12 C 1.335(2) -0.6211(17) 0.6972(14)
C13 C 1.216(2) -0.453(2) 0.8856(14)
H39 H 1.2308 -0.5266 0.8940
H40 H 1.1282 -0.4599 0.8791
C14 C 1.0407(18) -0.5277(17) 0.6308(12)
N1A N 0.5295(16) -0.6555(15) 0.2554(12)
N2A N 0.7828(15) -0.5124(14) 0.2633(10)
O7A O 1.303(2) -0.4862(17) 0.5006(13)
H1A H 1.3627 -0.5207 0.5277
H2A H 1.2809 -0.4348 0.5368
O10A O 1.0682(13) -0.4746(13) 0.3908(9)
O20A O 0.8876(15) -0.4378(14) 0.4077(10)
O22A O 0.9112(14) -0.6781(14) 0.4814(10)
H3A H 0.9005 -0.7399 0.5155
H4A H 0.8887 -0.6172 0.5076
O25A O 0.2619(17) -0.6228(19) 0.3478(12)
O25_2 O 0.7381(17) -0.3772(19) 0.6522(12)
O25A_2 O 1.2619(17) -0.6228(19) 0.3478(12)
O26A O 0.6482(19) -0.2806(14) 0.3051(12)
O29A O 0.628(2) -0.8581(14) 0.3828(12)
O33A O 0.574(4) -0.060(2) 0.289(3)
H5A H 0.6363 -0.0755 0.2580
H6A H 0.5160 -0.0309 0.2552
O34A O 0.299(3) -0.138(3) 0.311(2)
H7A H 0.3233 -0.0741 0.2804
H8A H 0.2336 -0.1898 0.2818
O35A O 0.437(3) -0.245(3) 0.1909(15)
H9A H 0.5008 -0.2771 0.1735
H10A H 0.3588 -0.2903 0.1717
O36A O 0.296(2) -0.385(2) 0.3076(19)
H11A H 0.2658 -0.4131 0.3566
H12A H 0.2320 -0.3618 0.2757
O37A O 1.178(2) -0.7741(16) 0.5188(15)
H13A H 1.2651 -0.7629 0.5282
H14A H 1.1422 -0.7813 0.5688
O38A O 1.0213(17) -0.7407(18) 0.3451(13)
H15A H 1.0461 -0.8099 0.3461
H16A H 0.9351 -0.7533 0.3504
O39A O 0.5100(17) -0.3511(15) 0.4475(11)
H17A H 0.5084 -0.3155 0.4985
H18A H 0.4496 -0.4192 0.4425
O40A O 0.6024(14) -0.4601(12) 0.3368(10)
O42A O 0.7105(14) -0.6799(13) 0.3672(10)
O43A O 0.556(9) -0.096(5) 0.440(7)
H19A H 0.6424 -0.0816 0.4346
H20A H 0.5272 -0.0295 0.4317
O44A O 0.391(10) -0.161(7) 0.454(2)
H21A H 0.4346 -0.1742 0.5024
H22A H 0.3926 -0.0835 0.4505
O45A O 0.4278(17) -0.6796(18) 0.3926(11)
Ca1A Ca 1.1296(4) -0.6236(4) 0.4539(3)
Ca1_2 Ca 1.8704(4) -0.3764(4) 0.5461(3)
Ca1A_2 Ca 0.1296(4) -0.6236(4) 0.4539(3)
Ca2A Ca 0.4639(5) -0.2286(4) 0.3394(3)
C1A C 0.586(2) -0.612(2) 0.1877(12)
H23A H 0.5671 -0.5394 0.1817
C2A C 0.534(2) -0.677(3) 0.1093(14)
H24A H 0.4467 -0.6799 0.1022
H25A H 0.5435 -0.7525 0.1146
C3A C 0.591(2) -0.632(3) 0.0328(16)
H26A H 0.5548 -0.6818 -0.0125
H27A H 0.5726 -0.5607 0.0226
C4A C 0.730(2) -0.621(2) 0.0415(15)
H28A H 0.7486 -0.6931 0.0478
H29A H 0.7647 -0.5897 -0.0059
C5A C 0.397(2) -0.641(2) 0.2561(14)
H30A H 0.3911 -0.5699 0.2358
H31A H 0.3428 -0.6979 0.2216
C6A C 0.546(2) -0.7696(18) 0.2747(16)
H32A H 0.5738 -0.8023 0.2291
H33A H 0.4675 -0.8153 0.2852
C7A C 0.9185(17) -0.5155(16) 0.2813(12)
H34A H 0.9678 -0.4694 0.2451
H35A H 0.9292 -0.5904 0.2745
C8A C 0.358(2) -0.6496(19) 0.3413(15)
C9A C 0.7284(18) -0.5911(16) 0.1907(12)
H36A H 0.7513 -0.6617 0.2005
C10A C 0.766(2) -0.3982(17) 0.2572(14)
H37A H 0.7493 -0.3833 0.2015
H38A H 0.8419 -0.3475 0.2775
C11A C 0.637(2) -0.7668(18) 0.3471(16)
C12A C 0.665(2) -0.3789(17) 0.3028(14)
C13A C 0.784(2) -0.547(2) 0.1144(14)
H39A H 0.7692 -0.4734 0.1060
H40A H 0.8718 -0.5401 0.1209
C14A C 0.9593(18) -0.4723(17) 0.3692(12)
O2 O 0.873(2) -0.1227(17) 0.3141(14)
O4 O 0.865(2) 0.0735(18) 0.3964(16)
O6 O 0.108(4) -0.155(5) 0.395(4)
O8 O 0.711(6) -0.070(3) 0.552(2)
Si1 Si 0.0000 0.0000 0.0000
W1 W 0.07571(9) 0.27762(7) 0.07611(6)
W2 W -0.17216(9) 0.08652(8) 0.14369(6)
W3 W -0.05794(9) 0.21529(8) -0.12141(7)
W4 W 0.13080(9) 0.06064(8) 0.19713(6)
W5 W 0.30537(8) -0.02266(8) 0.05347(7)
W6 W 0.24598(8) 0.18921(8) -0.06890(6)
O1 O -0.218(2) 0.1580(15) -0.0914(17)
O3 O 0.333(3) 0.1150(16) 0.0036(14)
O5 O 0.207(2) 0.274(3) 0.0162(12)
O9 O -0.0780(15) 0.2252(16) 0.1191(12)
O11 O 0.272(2) 0.0490(16) 0.1463(19)
O12 O 0.1481(15) 0.2053(16) 0.1553(13)
O13 O -0.097(2) 0.030(2) -0.0752(17)
O14 O 0.1131(19) 0.2295(19) -0.1298(13)
O15 O -0.0359(17) 0.0594(18) 0.2087(14)
O16 O -0.046(3) -0.127(2) 0.0177(17)
O17 O 0.007(3) 0.078(2) 0.0739(17)
O18 O 0.1955(18) 0.0936(18) 0.2906(11)
O19 O -0.2537(19) 0.1281(17) 0.2127(12)
O21 O 0.3572(15) 0.2800(14) -0.1052(11)
O23 O -0.0819(17) 0.3161(14) -0.1807(11)
O24 O 0.4486(15) -0.0350(15) 0.0814(11)
O27 O -0.016(2) 0.288(3) -0.0212(13)
O28 O 0.1103(18) 0.4076(15) 0.1121(17)
O30 O -0.087(2) 0.0926(16) -0.1995(18)
O31 O -0.233(3) -0.0685(16) 0.1445(15)
O32 O 0.136(2) 0.013(2) -0.0363(15)
O41 O -0.275(3) 0.0927(15) 0.0498(14)
W1A W -0.07571(9) -0.27762(7) -0.07611(6)
W2A W 0.17216(9) -0.08652(8) -0.14369(6)
W3A W 0.05794(9) -0.21529(8) 0.12141(7)
W4A W -0.13080(9) -0.06064(8) -0.19713(6)
W5A W -0.30537(8) 0.02266(8) -0.05347(7)
W6A W -0.24598(8) -0.18921(8) 0.06890(6)
O1A O 0.218(2) -0.1580(15) 0.0914(17)
O3A O -0.333(3) -0.1150(16) -0.0036(14)
O5A O -0.207(2) -0.274(3) -0.0162(12)
O9A O 0.0780(15) -0.2252(16) -0.1191(12)
O11A O -0.272(2) -0.0490(16) -0.1463(19)
O12A O -0.1481(15) -0.2053(16) -0.1553(13)
O13A O 0.097(2) -0.030(2) 0.0752(17)
O14A O -0.1131(19) -0.2295(19) 0.1298(13)
O15A O 0.0359(17) -0.0594(18) -0.2087(14)
O16A O 0.046(3) 0.127(2) -0.0177(17)
O17A O -0.007(3) -0.078(2) -0.0739(17)
O18A O -0.1955(18) -0.0936(18) -0.2906(11)
O19A O 0.2537(19) -0.1281(17) -0.2127(12)
O21A O -0.3572(15) -0.2800(14) 0.1052(11)
O23A O 0.0819(17) -0.3161(14) 0.1807(11)
O24A O -0.4486(15) 0.0350(15) -0.0814(11)
O27A O 0.016(2) -0.288(3) 0.0212(13)
O28A O -0.1103(18) -0.4076(15) -0.1121(17)
O30A O 0.087(2) -0.0926(16) 0.1995(18)
O31A O 0.233(3) 0.0685(16) -0.1445(15)
O32A O -0.136(2) -0.013(2) 0.0363(15)
O41A O 0.275(3) -0.0927(15) -0.0498(14)
loop_
_geom_bond_atom_site_label_1
_geom_bond_atom_site_label_2
_geom_bond_site_symmetry_1
_geom_bond_site_symmetry_2
Si1 O13 1_555 1_555
N1 C1 1_555 1_555
N2 C7 1_555 1_555
W1 O5 1_555 1_555
W2 O9 1_555 1_555
W3 O1 1_555 1_555
W4 O11 1_555 1_555
W5 O3 1_555 1_555
W6 O3 1_555 1_555
O1 W5A 1_555 1_555
O5 W6 1_555 1_555
O7 H1 1_555 1_555
H2 O7 1_555 1_555
O9 W1 1_555 1_555
O10 Ca1 1_555 1_555
O11 W5 1_555 1_555
O12 W1 1_555 1_555
O13 W3 1_555 1_555
O14 W3 1_555 1_555
O15 W2 1_555 1_555
O16 Si1 1_555 1_555
O17 Si1 1_555 1_555
O18 W4 1_555 1_555
O19 W2 1_555 1_555
O20 C14 1_555 1_555
O21 W6 1_555 1_555
O22 H3 1_555 1_555
H4 O22 1_555 1_555
O23 W3 1_555 1_555
O24 W5 1_555 1_555
O25 C8 1_555 1_555
O26 Ca2 1_555 1_555
O27 W1 1_555 1_555
O28 W1 1_555 1_555
O29 C11 1_555 1_555
O30 W3 1_555 1_555
O31 W2 1_555 1_555
O32 Si1 1_555 1_555
O33 H5 1_555 1_555
H6 O33 1_555 1_555
O34 H7 1_555 1_555
H8 O34 1_555 1_555
O35 H9 1_555 1_555
H10 O35 1_555 1_555
O36 H11 1_555 1_555
H12 O36 1_555 1_555
O37 H13 1_555 1_555
H14 O37 1_555 1_555
O38 H15 1_555 1_555
H16 O38 1_555 1_555
O39 H17 1_555 1_555
H18 O39 1_555 1_555
O40 C12 1_555 1_555
O41 W2 1_555 1_555
O42 C11 1_555 1_555
O43 H19 1_555 1_555
H20 O43 1_555 1_555
O44 H21 1_555 1_555
H22 O44 1_555 1_555
O45 C8 1_555 1_555
Ca1 O7 1_555 1_555
Ca2 O33 1_555 1_555
C1 H23 1_555 1_555
C2 C1 1_555 1_555
H24 C2 1_555 1_555
H25 C2 1_555 1_555
C3 C2 1_555 1_555
H26 C3 1_555 1_555
H27 C3 1_555 1_555
C4 C3 1_555 1_555
H28 C4 1_555 1_555
H29 C4 1_555 1_555
C5 N1 1_555 1_555
H30 C5 1_555 1_555
H31 C5 1_555 1_555
C6 N1 1_555 1_555
H32 C6 1_555 1_555
H33 C6 1_555 1_555
C7 H34 1_555 1_555
H35 C7 1_555 1_555
C8 C5 1_555 1_555
C9 N2 1_555 1_555
H36 C9 1_555 1_555
C10 N2 1_555 1_555
H37 C10 1_555 1_555
H38 C10 1_555 1_555
C11 C6 1_555 1_555
C12 O26 1_555 1_555
C13 C4 1_555 1_555
H39 C13 1_555 1_555
H40 C13 1_555 1_555
C14 O10 1_555 1_555
N1A C1A 1_555 1_555
N2A C7A 1_555 1_555
W1A O16 1_555 1_555
W2A O32 1_555 1_555
W3A O16 1_555 1_555
W4A O13 1_555 1_555
W5A O13 1_555 1_555
W6A O16 1_555 1_555
O1A W5 1_555 1_555
O3A W5A 1_555 1_555
O5A W1A 1_555 1_555
O7A H1A 1_555 1_555
H2A O7A 1_555 1_555
O9A W1A 1_555 1_555
O10A Ca1A 1_555 1_555
O11A W4A 1_555 1_555
O12A W1A 1_555 1_555
O13A Si1 1_555 1_555
O14A W3A 1_555 1_555
O15A W2A 1_555 1_555
O16A Si1 1_555 1_555
O17A Si1 1_555 1_555
O18A W4A 1_555 1_555
O19A W2A 1_555 1_555
O20A Ca1 1_555 1_555
O21A W6A 1_555 1_555
O22A H3A 1_555 1_555
H4A O22A 1_555 1_555
O23A W3A 1_555 1_555
O24A W5A 1_555 1_555
O25A Ca1A_2 1_555 1_555
O25_2 Ca1 1_555 1_555
O25A_2 Ca1A 1_555 1_555
O26A Ca2A 1_555 1_555
O27A W1A 1_555 1_555
O28A W1A 1_555 1_555
O29A C11A 1_555 1_555
O30A W4 1_555 1_555
O31A W6 1_555 1_555
O32A Si1 1_555 1_555
O33A H5A 1_555 1_555
H6A O33A 1_555 1_555
O34A H7A 1_555 1_555
H8A O34A 1_555 1_555
O35A H9A 1_555 1_555
H10A O35A 1_555 1_555
O36A H11A 1_555 1_555
H12A O36A 1_555 1_555
O37A H13A 1_555 1_555
H14A O37A 1_555 1_555
O38A H15A 1_555 1_555
H16A O38A 1_555 1_555
O39A H17A 1_555 1_555
H18A O39A 1_555 1_555
O40A C12A 1_555 1_555
O41A W5 1_555 1_555
O42A C11A 1_555 1_555
O43A H19A 1_555 1_555
H20A O43A 1_555 1_555
O44A H21A 1_555 1_555
H22A O44A 1_555 1_555
O45A C8A 1_555 1_555
Ca1A O20 1_555 1_555
Ca1_2 O25 1_555 1_555
Ca2A O33A 1_555 1_555
C1A H23A 1_555 1_555
C2A C1A 1_555 1_555
H24A C2A 1_555 1_555
H25A C2A 1_555 1_555
C3A C2A 1_555 1_555
H26A C3A 1_555 1_555
H27A C3A 1_555 1_555
C4A C3A 1_555 1_555
H28A C4A 1_555 1_555
H29A C4A 1_555 1_555
C5A N1A 1_555 1_555
H30A C5A 1_555 1_555
H31A C5A 1_555 1_555
C6A N1A 1_555 1_555
H32A C6A 1_555 1_555
H33A C6A 1_555 1_555
C7A H34A 1_555 1_555
H35A C7A 1_555 1_555
C8A O25A 1_555 1_555
C9A N2A 1_555 1_555
H36A C9A 1_555 1_555
C10A N2A 1_555 1_555
H37A C10A 1_555 1_555
H38A C10A 1_555 1_555
C11A C6A 1_555 1_555
C12A O26A 1_555 1_555
C13A C4A 1_555 1_555
H39A C13A 1_555 1_555
H40A C13A 1_555 1_555
C14A O10A 1_555 1_555
W1 O17 1_555 1_555
W1 O16A 1_555 1_555
W2 O17 1_555 1_555
W2 O32A 1_555 1_555
W3 O27 1_555 1_555
W3 O16A 1_555 1_555
W4 O12 1_555 1_555
W4 O15 1_555 1_555
W4 O17 1_555 1_555
W4 O13A 1_555 1_555
W5 O32 1_555 1_555
W5 O13A 1_555 1_555
W6 O14 1_555 1_555
W6 O32 1_555 1_555
W6 O16A 1_555 1_555
O16 O17A 1_555 1_555
O17 O16A 1_555 1_555
O22 Ca1 1_555 1_555
O30 W4A 1_555 1_555
O31 W6A 1_555 1_555
O34 Ca2 1_555 1_555
O35 Ca2 1_555 1_555
O36 Ca2 1_555 1_555
O37 Ca1 1_555 1_555
O38 Ca1 1_555 1_555
O39 Ca2 1_555 1_555
O41 W5A 1_555 1_555
O43 Ca2 1_555 1_555
O44 Ca2 1_555 1_555
C1 C9 1_555 1_555
C7 C14 1_555 1_555
C9 C13 1_555 1_555
C10 C12 1_555 1_555
W1A O17A 1_555 1_555
W2A O9A 1_555 1_555
W2A O17A 1_555 1_555
W2A O31A 1_555 1_555
W2A O41A 1_555 1_555
W3A O1A 1_555 1_555
W3A O13A 1_555 1_555
W3A O27A 1_555 1_555
W3A O30A 1_555 1_555
W4A O12A 1_555 1_555
W4A O15A 1_555 1_555
W4A O17A 1_555 1_555
W5A O11A 1_555 1_555
W5A O32A 1_555 1_555
W6A O3A 1_555 1_555
W6A O5A 1_555 1_555
W6A O14A 1_555 1_555
W6A O32A 1_555 1_555
O7A Ca1A 1_555 1_555
O20A C14A 1_555 1_555
O22A Ca1A 1_555 1_555
O34A Ca2A 1_555 1_555
O35A Ca2A 1_555 1_555
O36A Ca2A 1_555 1_555
O37A Ca1A 1_555 1_555
O38A Ca1A 1_555 1_555
O39A Ca2A 1_555 1_555
O43A Ca2A 1_555 1_555
O44A Ca2A 1_555 1_555
C1A C9A 1_555 1_555
C5A C8A 1_555 1_555
C7A C14A 1_555 1_555
C9A C13A 1_555 1_555
C10A C12A 1_555 1_555

#END
