
#######################################################################
#
#                 Cambridge Crystallographic Data Centre
#                                CCDC 
#
#######################################################################
#
# If this CIF has been generated from an entry in the Cambridge 
# Structural Database, then it will include bibliographic, chemical, 
# crystal, experimental, refinement or atomic coordinate data resulting 
# from the CCDC's data processing and validation procedures.
#
#######################################################################

data_VEJCEU
_symmetry_cell_setting           orthorhombic
_symmetry_space_group_name_H-M   'P n a 21'
_symmetry_Int_Tables_number      33
_space_group_name_Hall           'P 2c -2n'
loop_
_symmetry_equiv_pos_site_id
_symmetry_equiv_pos_as_xyz
1 x,y,z
2 -x,-y,1/2+z
3 1/2+x,1/2-y,z
4 1/2-x,1/2+y,1/2+z
_cell_length_a                   21.899(5)
_cell_length_b                   20.306(5)
_cell_length_c                   22.900(5)
_cell_angle_alpha                90
_cell_angle_beta                 90
_cell_angle_gamma                90
_cell_volume                     10183.2
loop_
_atom_site_label
_atom_site_type_symbol
_atom_site_fract_x
_atom_site_fract_y
_atom_site_fract_z
P1 P 0.24073(9) -0.01454(11) 0.07547(9)
O2 O 0.2719(3) -0.0607(3) 0.1205(3)
O10 O 0.2121(3) -0.0536(3) 0.0245(2)
O19 O 0.2901(3) 0.0319(3) 0.0493(3)
O24 O 0.1907(3) 0.0256(3) 0.1066(3)
N1 N 0.1586(5) 0.1833(6) 0.3744(5)
C17 C 0.1953(7) 0.1173(7) 0.3675(7)
H9 H 0.1696 0.0812 0.3804
H10 H 0.2038 0.1105 0.3264
C18 C 0.2553(7) 0.1140(10) 0.4008(9)
H11 H 0.2492 0.1300 0.4403
H12 H 0.2852 0.1420 0.3819
C19 C 0.2796(13) 0.0415(12) 0.4028(8)
H13 H 0.2464 0.0118 0.4125
H14 H 0.2953 0.0292 0.3647
C20 C 0.331(2) 0.035(3) 0.449(2)
H15 H 0.3632 0.0662 0.4409
H16 H 0.3478 -0.0087 0.4485
H17 H 0.3150 0.0439 0.4875
C21 C 0.1404(8) 0.1958(10) 0.4385(8)
H18 H 0.1084 0.2288 0.4391
H19 H 0.1754 0.2142 0.4587
C22 C 0.1167(9) 0.1317(14) 0.4752(8)
H20 H 0.0803 0.1121 0.4584
H21 H 0.1482 0.0986 0.4800
C23 C 0.1031(10) 0.1698(12) 0.5327(7)
H22 H 0.1402 0.1876 0.5498
H23 H 0.0742 0.2053 0.5263
C24 C 0.0768(11) 0.1175(12) 0.5693(11)
H24 H 0.0536 0.0878 0.5453
H25 H 0.0505 0.1367 0.5982
H26 H 0.1091 0.0937 0.5883
C25 C 0.2006(7) 0.2387(7) 0.3583(8)
H27 H 0.2357 0.2376 0.3840
H28 H 0.1795 0.2801 0.3649
C26 C 0.2231(7) 0.2369(9) 0.2945(7)
H29 H 0.1885 0.2329 0.2683
H30 H 0.2494 0.1990 0.2887
C27 C 0.2599(11) 0.3030(13) 0.2804(14)
H31 H 0.2325 0.3402 0.2845
H32 H 0.2924 0.3081 0.3089
C28 C 0.2878(11) 0.3039(12) 0.2188(15)
C29 C 0.1007(6) 0.1793(8) 0.3349(8)
H33 H 0.0826 0.2229 0.3351
H34 H 0.1152 0.1717 0.2955
C30 C 0.0494(7) 0.1318(9) 0.3445(8)
H35 H 0.0259 0.1451 0.3784
H36 H 0.0657 0.0882 0.3518
C31 C 0.0089(11) 0.1307(13) 0.2912(12)
H37 H 0.0339 0.1210 0.2573
H38 H -0.0084 0.1742 0.2857
C32 C -0.0441(12) 0.0797(14) 0.2940(14)
N2 N 0.0073(5) 0.2638(6) -0.0044(6)
C33 C 0.0767(5) 0.2701(8) 0.0034(8)
H39 H 0.0953 0.2646 -0.0348
H40 H 0.0901 0.2333 0.0272
C34 C 0.1038(11) 0.3337(9) 0.0307(10)
H41 H 0.0964 0.3339 0.0725
H42 H 0.0839 0.3720 0.0140
C35 C 0.1741(11) 0.3372(14) 0.0188(13)
C36 C 0.227(3) 0.387(3) 0.031(4)
C37 C -0.0241(8) 0.2709(11) 0.0548(8)
H43 H -0.0678 0.2729 0.0480
H44 H -0.0121 0.3130 0.0713
C38 C -0.0124(10) 0.2176(10) 0.1013(8)
H45 H 0.0295 0.2204 0.1148
H46 H -0.0186 0.1743 0.0844
C39 C -0.0566(13) 0.2273(14) 0.1534(12)
H47 H -0.0975 0.2339 0.1384
H48 H -0.0569 0.1875 0.1767
C40 C -0.0401(14) 0.2852(14) 0.1926(15)
C41 C -0.0167(7) 0.3165(9) -0.0425(7)
H49 H -0.0046 0.3586 -0.0262
H50 H -0.0609 0.3146 -0.0416
C42 C 0.0040(14) 0.3144(15) -0.1068(13)
H51 H -0.0144 0.2764 -0.1254
H52 H 0.0479 0.3084 -0.1079
C43 C -0.0124(14) 0.3768(17) -0.1428(14)
H53 H -0.0391 0.3617 -0.1739
H54 H -0.0374 0.4037 -0.1173
C44 C 0.033(2) 0.424(3) -0.171(3)
C45 C -0.0016(9) 0.1952(9) -0.0314(10)
H55 H 0.0199 0.1636 -0.0072
H56 H 0.0179 0.1950 -0.0695
C46 C -0.0693(11) 0.1701(14) -0.0393(14)
H57 H -0.0884 0.1626 -0.0017
H58 H -0.0934 0.2020 -0.0608
C47 C -0.0640(18) 0.1057(15) -0.0734(19)
H59 H -0.0421 0.0722 -0.0517
H60 H -0.0449 0.1120 -0.1112
C48 C -0.132(2) 0.090(4) -0.079(4)
O49 O 0.1757(9) -0.3998(11) 0.2000(10)
Mo1 Mo 0.30011(3) 0.15869(4) 0.05147(4)
Mo2 Mo 0.40531(3) 0.03496(4) 0.07802(4)
Mo3 Mo 0.17500(3) 0.14934(4) 0.12304(3)
Mo4 Mo -0.07563(3) -0.02777(4) -0.42115(4)
Mo5 Mo 0.71900(3) 0.18666(4) 0.62388(4)
Mo6 Mo 0.15970(4) 0.01616(4) 0.21365(3)
Mo7 Mo -0.09833(3) 0.05528(4) -0.50529(4)
Mo8 Mo 0.24327(4) -0.07348(4) 0.22891(3)
Mo9 Mo 0.67920(4) -0.04400(4) 0.44348(4)
Mo10 Mo 0.75911(4) 0.04614(4) 0.41562(4)
Mo11 Mo 0.38606(4) -0.06355(4) 0.14966(4)
Mo12 Mo 0.79392(4) 0.17735(4) 0.50449(4)
Zn1 Zn 0.17200(5) 0.10698(6) -0.02705(5)
Zn2 Zn -0.12522(5) 0.13538(5) -0.36784(5)
Zn3 Zn 0.30616(5) 0.08923(6) 0.19161(5)
Zn4 Zn 0.64192(5) 0.11810(6) 0.50512(5)
O1 O -0.0899(3) 0.0673(3) -0.4219(3)
O3 O 0.2487(3) 0.0227(3) 0.2234(3)
O4 O 0.2662(3) 0.1422(3) 0.1315(3)
O5 O 0.1624(3) 0.2302(4) 0.1338(4)
O6 O -0.0784(3) -0.0177(3) -0.3321(3)
O7 O 0.6788(3) 0.0523(3) 0.4502(3)
O8 O 0.3380(3) -0.0675(3) 0.2280(3)
O9 O 0.7099(3) 0.1692(3) 0.5368(3)
O11 O 0.7112(4) 0.2693(4) 0.6276(4)
O12 O 0.1118(3) 0.0407(3) 0.0019(3)
O13 O 0.3679(3) 0.0315(3) 0.1545(3)
O14 O -0.1461(3) 0.0455(4) -0.5824(3)
O15 O 0.1034(3) 0.1212(3) 0.0914(3)
O16 O 0.2324(3) 0.0467(3) -0.0644(3)
O17 O -0.1626(3) 0.0770(3) -0.3072(3)
O18 O -0.1938(3) 0.1764(3) -0.4080(3)
O20 O 0.3110(3) 0.1350(4) -0.0245(3)
O21 O 0.2096(3) 0.1505(3) 0.0406(3)
O22 O 0.7471(3) 0.1631(4) 0.6957(3)
O23 O 0.6415(3) 0.1569(3) 0.6341(3)
O25 O 0.3739(3) 0.1275(3) 0.0784(3)
O26 O -0.1269(3) 0.1482(4) -0.5042(3)
O27 O 0.1415(3) 0.1625(4) -0.0895(3)
O28 O 0.7641(3) 0.1411(4) 0.4363(3)
O29 O 0.7977(4) 0.2589(4) 0.4882(4)
O30 O -0.0613(3) 0.1855(4) -0.3280(3)
O31 O 0.6049(3) 0.0610(4) 0.5651(4)
O32 O 0.4576(4) -0.0750(5) 0.1757(4)
O33 O 0.3100(4) 0.2408(4) 0.0511(4)
O34 O 0.1307(4) 0.0175(4) 0.2806(3)
O35 O 0.5766(3) 0.1606(4) 0.4642(4)
O36 O -0.0280(4) 0.0636(4) -0.5336(5)
O37 O -0.0001(3) -0.0390(4) -0.4299(4)
O38 O 0.3413(4) 0.1393(4) 0.2541(4)
O39 O 0.4024(3) 0.0395(3) -0.0114(3)
O40 O 0.1664(3) 0.1114(3) 0.1948(3)
O41 O 0.7482(5) 0.0492(5) 0.3443(4)
O42 O 0.6513(4) -0.0606(4) 0.3771(4)
O43 O 0.2337(4) -0.0913(5) 0.2987(3)
O44 O 0.5384(4) 0.0595(4) 0.4423(4)
O45 O 0.4790(3) 0.0484(4) 0.0877(4)
O46 O 0.1135(5) 0.0686(5) -0.1343(5)
O47 O 0.3822(4) 0.0465(5) 0.2855(4)
O48 O -0.0248(4) 0.0869(4) -0.3024(4)
C1 C 0.4857(4) 0.1530(5) 0.4076(5)
C2 C 0.4709(5) 0.2170(6) 0.4164(5)
H1 H 0.4926 0.2420 0.4434
C3 C 0.4223(5) 0.2459(6) 0.3844(6)
H2 H 0.4114 0.2895 0.3910
C4 C 0.3919(5) 0.2097(6) 0.3440(6)
H3 H 0.3601 0.2288 0.3231
C5 C 0.4070(5) 0.1463(6) 0.3336(4)
C6 C 0.4542(5) 0.1165(7) 0.3660(6)
H4 H 0.4643 0.0726 0.3596
C7 C 0.3751(5) 0.1065(6) 0.2872(5)
C8 C 0.5379(5) 0.1220(6) 0.4402(5)
C9 C 0.0945(4) 0.1694(5) -0.1835(4)
C10 C 0.1160(5) 0.2321(6) -0.1940(6)
H5 H 0.1464 0.2493 -0.1701
C11 C 0.0932(6) 0.2705(6) -0.2401(6)
H6 H 0.1090 0.3123 -0.2471
C12 C 0.0467(6) 0.2454(5) -0.2751(4)
H7 H 0.0313 0.2704 -0.3057
C13 C 0.0227(5) 0.1809(5) -0.2638(5)
C14 C 0.0498(5) 0.1430(5) -0.2186(4)
H8 H 0.0371 0.0998 -0.2126
C15 C 0.1196(4) 0.1299(4) -0.1324(4)
C16 C -0.0250(5) 0.1465(6) -0.3009(4)
Mo1A Mo 0.69989(3) -0.15869(4) 0.55147(4)
Mo1A_2 Mo -0.30011(3) -0.15869(4) -0.44853(4)
Mo2A Mo 0.59469(3) -0.03496(4) 0.57802(4)
Mo2A_2 Mo -0.40531(3) -0.03496(4) -0.42198(4)
Mo3A Mo -0.17500(3) -0.14934(4) -0.37696(3)
Mo3A_2 Mo 0.82500(3) -0.14934(4) 0.62304(3)
Mo4A Mo 0.07563(3) 0.02777(4) 0.07885(4)
Mo4_2 Mo 0.92437(3) -0.02777(4) 0.57885(4)
Mo5_2 Mo -0.28100(3) 0.18666(4) -0.37612(4)
Mo5A Mo 0.28100(3) -0.18666(4) 0.12388(4)
Mo6A Mo -0.15970(4) -0.01616(4) -0.28635(3)
Mo6A_2 Mo 0.84030(4) -0.01616(4) 0.71365(3)
Mo7A Mo 0.09833(3) -0.05528(4) -0.00529(4)
Mo7_2 Mo 0.90167(3) 0.05528(4) 0.49471(4)
Mo8A Mo -0.24327(4) 0.07348(4) -0.27109(3)
Mo8A_2 Mo 0.75673(4) 0.07348(4) 0.72891(3)
Mo9A Mo 0.32080(4) 0.04400(4) -0.05652(4)
Mo9_2 Mo -0.32080(4) -0.04400(4) -0.55652(4)
Mo10_2 Mo -0.24089(4) 0.04614(4) -0.58438(4)
Mo10A Mo 0.24089(4) -0.04614(4) -0.08438(4)
Mo11A Mo 0.61394(4) 0.06355(4) 0.64966(4)
Mo11A_2 Mo -0.38606(4) 0.06355(4) -0.35034(4)
Mo12_2 Mo -0.20608(4) 0.17735(4) -0.49551(4)
Mo12A Mo 0.20608(4) -0.17735(4) 0.00449(4)
Zn1A Zn -0.17200(5) -0.10698(6) -0.52705(5)
Zn1A_2 Zn 0.82800(5) -0.10698(6) 0.47295(5)
Zn2_2 Zn 0.87478(5) 0.13538(5) 0.63216(5)
Zn2A Zn 0.12522(5) -0.13538(5) 0.13216(5)
Zn3A Zn -0.30616(5) -0.08923(6) -0.30839(5)
Zn3A_2 Zn 0.69384(5) -0.08923(6) 0.69161(5)
Zn4A Zn 0.35808(5) -0.11810(6) 0.00512(5)
Zn4_2 Zn -0.35808(5) 0.11810(6) -0.49488(5)
O1A O 0.0899(3) -0.0673(3) 0.0781(3)
O1_2 O 0.9101(3) 0.0673(3) 0.5781(3)
O3A O -0.2487(3) -0.0227(3) -0.2766(3)
O3A_2 O 0.7513(3) -0.0227(3) 0.7234(3)
O4A O -0.2662(3) -0.1422(3) -0.3685(3)
O4A_2 O 0.7338(3) -0.1422(3) 0.6315(3)
O5A O -0.1624(3) -0.2302(4) -0.3662(4)
O5A_2 O 0.8376(3) -0.2302(4) 0.6338(4)
O6A O 0.0784(3) 0.0177(3) 0.1679(3)
O6_2 O 0.9216(3) -0.0177(3) 0.6679(3)
O7_2 O -0.3212(3) 0.0523(3) -0.5498(3)
O7A O 0.3212(3) -0.0523(3) -0.0498(3)
O8A O -0.3380(3) 0.0675(3) -0.2720(3)
O8A_2 O 0.6620(3) 0.0675(3) 0.7280(3)
O9_2 O -0.2901(3) 0.1692(3) -0.4632(3)
O9A O 0.2901(3) -0.1692(3) 0.0368(3)
O11_2 O -0.2888(4) 0.2693(4) -0.3724(4)
O11A O 0.2888(4) -0.2693(4) 0.1276(4)
O12A O -0.1118(3) -0.0407(3) -0.4981(3)
O12A_2 O 0.8882(3) -0.0407(3) 0.5019(3)
O13A O 0.6321(3) -0.0315(3) 0.6545(3)
O13A_2 O -0.3679(3) -0.0315(3) -0.3455(3)
O14_2 O 0.8539(3) 0.0455(4) 0.4176(3)
O14A O 0.1461(3) -0.0455(4) -0.0824(3)
O15A O -0.1034(3) -0.1212(3) -0.4086(3)
O15A_2 O 0.8966(3) -0.1212(3) 0.5914(3)
O16A O 0.7676(3) -0.0467(3) 0.4356(3)
O16A_2 O -0.2324(3) -0.0467(3) -0.5644(3)
O17A O 0.1626(3) -0.0770(3) 0.1928(3)
O17_2 O 0.8374(3) 0.0770(3) 0.6928(3)
O18_2 O 0.8062(3) 0.1764(3) 0.5920(3)
O18A O 0.1938(3) -0.1764(3) 0.0920(3)
O20A O 0.6890(3) -0.1350(4) 0.4755(3)
O20A_2 O -0.3110(3) -0.1350(4) -0.5245(3)
O21A O -0.2096(3) -0.1505(3) -0.4594(3)
O21A_2 O 0.7904(3) -0.1505(3) 0.5406(3)
O22A O 0.2529(3) -0.1631(4) 0.1957(3)
O22_2 O -0.2529(3) 0.1631(4) -0.3043(3)
O23A O 0.3585(3) -0.1569(3) 0.1341(3)
O23_2 O -0.3585(3) 0.1569(3) -0.3659(3)
O25A O 0.6261(3) -0.1275(3) 0.5784(3)
O25A_2 O -0.3739(3) -0.1275(3) -0.4216(3)
O26_2 O 0.8731(3) 0.1482(4) 0.4958(3)
O26A O 0.1269(3) -0.1482(4) -0.0042(3)
O27A O -0.1415(3) -0.1625(4) -0.5895(3)
O27A_2 O 0.8585(3) -0.1625(4) 0.4105(3)
O28_2 O -0.2359(3) 0.1411(4) -0.5637(3)
O28A O 0.2359(3) -0.1411(4) -0.0637(3)
O29_2 O -0.2023(4) 0.2589(4) -0.5118(4)
O29A O 0.2023(4) -0.2589(4) -0.0118(4)
O30_2 O 0.9387(3) 0.1855(4) 0.6720(3)
O30A O 0.0613(3) -0.1855(4) 0.1720(3)
O31A O 0.3951(3) -0.0610(4) 0.0651(4)
O31_2 O -0.3951(3) 0.0610(4) -0.4349(4)
O32A O 0.5424(4) 0.0750(5) 0.6757(4)
O32A_2 O -0.4576(4) 0.0750(5) -0.3243(4)
O33A O 0.6900(4) -0.2408(4) 0.5511(4)
O33A_2 O -0.3100(4) -0.2408(4) -0.4489(4)
O34A O -0.1307(4) -0.0175(4) -0.2194(3)
O34A_2 O 0.8693(4) -0.0175(4) 0.7806(3)
O35A O 0.4234(3) -0.1606(4) -0.0358(4)
O35_2 O -0.4234(3) 0.1606(4) -0.5358(4)
O36A O 0.0280(4) -0.0636(4) -0.0336(5)
O36_2 O 0.9720(4) 0.0636(4) 0.4664(5)
O37A O 0.0001(3) 0.0390(4) 0.0701(4)
O37_2 O 0.9999(3) -0.0390(4) 0.5701(4)
O38A O -0.3413(4) -0.1393(4) -0.2459(4)
O38A_2 O 0.6587(4) -0.1393(4) 0.7541(4)
O39A O 0.5976(3) -0.0395(3) 0.4886(3)
O39A_2 O -0.4024(3) -0.0395(3) -0.5114(3)
O40A O -0.1664(3) -0.1114(3) -0.3052(3)
O40A_2 O 0.8336(3) -0.1114(3) 0.6948(3)
O41_2 O -0.2518(5) 0.0492(5) -0.6557(4)
O41A O 0.2518(5) -0.0492(5) -0.1557(4)
O42A O 0.3487(4) 0.0606(4) -0.1229(4)
O42_2 O -0.3487(4) -0.0606(4) -0.6229(4)
O43A O -0.2337(4) 0.0913(5) -0.2013(3)
O43A_2 O 0.7663(4) 0.0913(5) 0.7987(3)
O44A O 0.4616(4) -0.0595(4) -0.0577(4)
O44_2 O -0.4616(4) 0.0595(4) -0.5577(4)
O45A O 0.5210(3) -0.0484(4) 0.5877(4)
O45A_2 O -0.4790(3) -0.0484(4) -0.4123(4)
O46A O -0.1135(5) -0.0686(5) -0.6343(5)
O46A_2 O 0.8865(5) -0.0686(5) 0.3657(5)
O47A O -0.3822(4) -0.0465(5) -0.2145(4)
O47A_2 O 0.6178(4) -0.0465(5) 0.7855(4)
O48_2 O 0.9752(4) 0.0869(4) 0.6976(4)
O48A O 0.0248(4) -0.0869(4) 0.1976(4)
C1A C 0.5143(4) -0.1530(5) -0.0924(5)
C1_2 C -0.5143(4) 0.1530(5) -0.5924(5)
C1A_2 C -0.4857(4) -0.1530(5) -0.0924(5)
C1A_3 C 0.5143(4) -0.1530(5) 0.9076(5)
C2A C 0.5291(5) -0.2170(6) -0.0836(5)
C2_2 C -0.5291(5) 0.2170(6) -0.5836(5)
H1A H 0.5074 -0.2420 -0.0566
H1_2 H -0.5074 0.2420 -0.5566
C3A C 0.5777(5) -0.2459(6) -0.1156(6)
C3A_2 C -0.4223(5) -0.2459(6) -0.1156(6)
C3_2 C -0.5777(5) 0.2459(6) -0.6156(6)
C3A_3 C 0.5777(5) -0.2459(6) 0.8844(6)
H2A H 0.5886 -0.2895 -0.1090
C4A C -0.3919(5) -0.2097(6) -0.1560(6)
C4A_2 C 0.6081(5) -0.2097(6) 0.8440(6)
C4A_3 C 0.6081(5) -0.2097(6) -0.1560(6)
H3A H -0.3601 -0.2288 -0.1769
H3A_2 H 0.6399 -0.2288 0.8231
C5A C -0.4070(5) -0.1463(6) -0.1664(4)
C5A_2 C 0.5930(5) -0.1463(6) 0.8336(4)
C5A_3 C 0.5930(5) -0.1463(6) -0.1664(4)
C5_2 C -0.5930(5) 0.1463(6) -0.6664(4)
C6A C 0.5458(5) -0.1165(7) -0.1340(6)
C6A_2 C -0.4542(5) -0.1165(7) -0.1340(6)
C6_2 C -0.5458(5) 0.1165(7) -0.6340(6)
C6A_3 C 0.5458(5) -0.1165(7) 0.8660(6)
H4A H 0.5357 -0.0726 -0.1404
H4A_2 H -0.4643 -0.0726 -0.1404
H4_2 H -0.5357 0.0726 -0.6404
H4A_3 H 0.5357 -0.0726 0.8596
C7A C -0.3751(5) -0.1065(6) -0.2128(5)
C7A_2 C 0.6249(5) -0.1065(6) 0.7872(5)
C7A_3 C 0.6249(5) -0.1065(6) -0.2128(5)
C8A C 0.4621(5) -0.1220(6) -0.0598(5)
C8_2 C -0.4621(5) 0.1220(6) -0.5598(5)
C9A C -0.0945(4) -0.1694(5) -0.6835(4)
C9A_2 C 0.9055(4) -0.1694(5) 0.3165(4)
C9_2 C 1.0945(4) 0.1694(5) 0.8165(4)
C9A_3 C -0.0945(4) -0.1694(5) 0.3165(4)
C10A C -0.1160(5) -0.2321(6) -0.6940(6)
C10A_2 C 0.8840(5) -0.2321(6) 0.3060(6)
C10_2 C 1.1160(5) 0.2321(6) 0.8060(6)
C10A_3 C -0.1160(5) -0.2321(6) 0.3060(6)
H5A H -0.1464 -0.2493 -0.6701
H5A_2 H 0.8536 -0.2493 0.3299
C11A C -0.0932(6) -0.2705(6) -0.7401(6)
C11_2 C 1.0932(6) 0.2705(6) 0.7599(6)
C11A_2 C -0.0932(6) -0.2705(6) 0.2599(6)
C11A_3 C 0.9068(6) -0.2705(6) 0.2599(6)
H6A H -0.1090 -0.3123 -0.7471
H6_2 H 1.1090 0.3123 0.7529
H6A_2 H -0.1090 -0.3123 0.2529
H6A_3 H 0.8910 -0.3123 0.2529
C12_2 C 1.0467(6) 0.2454(5) 0.7249(4)
C12A C -0.0467(6) -0.2454(5) 0.2249(4)
C12A_2 C -0.0467(6) -0.2454(5) -0.7751(4)
C12A_3 C 0.9533(6) -0.2454(5) 0.2249(4)
H7_2 H 1.0313 0.2704 0.6943
H7A H -0.0313 -0.2704 0.1943
C13_2 C 1.0227(5) 0.1809(5) 0.7362(5)
C13A C -0.0227(5) -0.1809(5) 0.2362(5)
C13A_2 C -0.0227(5) -0.1809(5) -0.7638(5)
C13A_3 C 0.9773(5) -0.1809(5) 0.2362(5)
C14A C -0.0498(5) -0.1430(5) -0.7186(4)
C14_2 C 1.0498(5) 0.1430(5) 0.7814(4)
C14A_2 C -0.0498(5) -0.1430(5) 0.2814(4)
C14A_3 C 0.9502(5) -0.1430(5) 0.2814(4)
H8A H -0.0371 -0.0998 -0.7126
H8_2 H 1.0371 0.0998 0.7874
H8A_2 H -0.0371 -0.0998 0.2874
H8A_3 H 0.9629 -0.0998 0.2874
C15A C -0.1196(4) -0.1299(4) -0.6324(4)
C15A_2 C 0.8804(4) -0.1299(4) 0.3676(4)
C15_2 C 1.1196(4) 0.1299(4) 0.8676(4)
C15A_3 C -0.1196(4) -0.1299(4) 0.3676(4)
C16_2 C 0.9750(5) 0.1465(6) 0.6991(4)
C16A C 0.0250(5) -0.1465(6) 0.1991(4)
C16A_2 C 0.0250(5) -0.1465(6) -0.8009(4)
C16A_3 C 1.0250(5) -0.1465(6) 0.1991(4)
C49? C 0.206(4) 0.341(4) -0.041(2)
loop_
_geom_bond_atom_site_label_1
_geom_bond_atom_site_label_2
_geom_bond_site_symmetry_1
_geom_bond_site_symmetry_2
Mo1 O4 1_555 1_555
Mo2 O13 1_555 1_555
Mo3 O4 1_555 1_555
Mo4 O1 1_555 1_555
Mo5 O9 1_555 1_555
Mo6 O3 1_555 1_555
Mo7 O1 1_555 1_555
Mo8 O3 1_555 1_555
Mo9 O7 1_555 1_555
Mo10 O7 1_555 1_555
Mo11 O8 1_555 1_555
Mo12 O9 1_555 1_555
Zn1 O12 1_555 1_555
Zn2 O1 1_555 1_555
Zn3 O3 1_555 1_555
Zn4 O7 1_555 1_555
P1 O2 1_555 1_555
O4 Zn3 1_555 1_555
O5 Mo3 1_555 1_555
O6 Mo4 1_555 1_555
O8 Mo8 1_555 1_555
O9 Zn4 1_555 1_555
O10 P1 1_555 1_555
O11 Mo5 1_555 1_555
O12 Mo4A 1_555 1_555
O13 Mo11 1_555 1_555
O14 Mo7 1_555 1_555
O15 Mo3 1_555 1_555
O16 Zn1 1_555 1_555
O17 Zn2 1_555 1_555
O18 Zn2 1_555 1_555
O19 P1 1_555 1_555
O20 Mo1 1_555 1_555
O21 Mo1 1_555 1_555
O22 Mo5 1_555 1_555
O23 Mo5 1_555 1_555
O24 P1 1_555 1_555
O25 Mo1 1_555 1_555
O26 Mo7 1_555 1_555
O27 Zn1 1_555 1_555
O28 Mo10 1_555 1_555
O29 Mo12 1_555 1_555
O30 Zn2 1_555 1_555
O31 Zn4 1_555 1_555
O32 Mo11 1_555 1_555
O33 Mo1 1_555 1_555
O34 Mo6 1_555 1_555
O35 Zn4 1_555 1_555
O36 Mo7 1_555 1_555
O37 Mo4 1_555 1_555
O38 Zn3 1_555 1_555
O39 Mo2 1_555 1_555
O40 Mo3 1_555 1_555
O41 Mo10 1_555 1_555
O42 Mo9 1_555 1_555
O43 Mo8 1_555 1_555
O44 C8 1_555 1_555
O45 Mo2 1_555 1_555
O46 C15 1_555 1_555
O47 C7 1_555 1_555
O48 C16 1_555 1_555
C1 C2 1_555 1_555
C2 H1 1_555 1_555
C3 C2 1_555 1_555
H2 C3 1_555 1_555
C4 C3 1_555 1_555
H3 C4 1_555 1_555
C5 C4 1_555 1_555
C6 C1 1_555 1_555
H4 C6 1_555 1_555
C7 O38 1_555 1_555
C8 O35 1_555 1_555
C9 C10 1_555 1_555
C10 H5 1_555 1_555
C11 C10 1_555 1_555
H6 C11 1_555 1_555
C12 C11 1_555 1_555
H7 C12 1_555 1_555
C13 C12 1_555 1_555
C14 C9 1_555 1_555
H8 C14 1_555 1_555
C15 O27 1_555 1_555
C16 O30 1_555 1_555
N1 C17 1_555 1_555
C17 H9 1_555 1_555
H10 C17 1_555 1_555
C18 C17 1_555 1_555
H11 C18 1_555 1_555
H12 C18 1_555 1_555
C19 C18 1_555 1_555
H13 C19 1_555 1_555
H14 C19 1_555 1_555
C20 C19 1_555 1_555
H15 C20 1_555 1_555
H16 C20 1_555 1_555
H17 C20 1_555 1_555
C21 N1 1_555 1_555
H18 C21 1_555 1_555
H19 C21 1_555 1_555
C22 C21 1_555 1_555
H20 C22 1_555 1_555
H21 C22 1_555 1_555
C23 C22 1_555 1_555
H22 C23 1_555 1_555
H23 C23 1_555 1_555
C24 C23 1_555 1_555
H24 C24 1_555 1_555
H25 C24 1_555 1_555
H26 C24 1_555 1_555
C25 N1 1_555 1_555
H27 C25 1_555 1_555
H28 C25 1_555 1_555
C26 C25 1_555 1_555
H29 C26 1_555 1_555
H30 C26 1_555 1_555
C27 C26 1_555 1_555
H31 C27 1_555 1_555
H32 C27 1_555 1_555
C28 C27 1_555 1_555
C29 N1 1_555 1_555
H33 C29 1_555 1_555
H34 C29 1_555 1_555
C30 C29 1_555 1_555
H35 C30 1_555 1_555
H36 C30 1_555 1_555
C31 C30 1_555 1_555
H37 C31 1_555 1_555
H38 C31 1_555 1_555
C32 C31 1_555 1_555
N2 C33 1_555 1_555
C33 H39 1_555 1_555
H40 C33 1_555 1_555
C34 C33 1_555 1_555
H41 C34 1_555 1_555
H42 C34 1_555 1_555
C35 C34 1_555 1_555
C36 C35 1_555 1_555
C37 N2 1_555 1_555
H43 C37 1_555 1_555
H44 C37 1_555 1_555
C38 C37 1_555 1_555
H45 C38 1_555 1_555
H46 C38 1_555 1_555
C39 C38 1_555 1_555
H47 C39 1_555 1_555
H48 C39 1_555 1_555
C40 C39 1_555 1_555
C41 N2 1_555 1_555
H49 C41 1_555 1_555
H50 C41 1_555 1_555
C42 C41 1_555 1_555
H51 C42 1_555 1_555
H52 C42 1_555 1_555
C43 C42 1_555 1_555
H53 C43 1_555 1_555
H54 C43 1_555 1_555
C44 C43 1_555 1_555
C45 N2 1_555 1_555
H55 C45 1_555 1_555
H56 C45 1_555 1_555
C46 C45 1_555 1_555
H57 C46 1_555 1_555
H58 C46 1_555 1_555
C47 C46 1_555 1_555
H59 C47 1_555 1_555
H60 C47 1_555 1_555
C48 C47 1_555 1_555
Mo1A O4A_2 1_555 1_555
Mo1A_2 O4A 1_555 1_555
Mo2A O31 1_555 1_555
Mo2A_2 O13A_2 1_555 1_555
Mo3A O4A 1_555 1_555
Mo3A_2 O4A_2 1_555 1_555
Mo4A O15 1_555 1_555
Mo4_2 O1_2 1_555 1_555
Mo5_2 O18 1_555 1_555
Mo5A O9A 1_555 1_555
Mo6A O6 1_555 1_555
Mo6A_2 O3A_2 1_555 1_555
Mo7A O12 1_555 1_555
Mo7_2 O1_2 1_555 1_555
Mo8A O17 1_555 1_555
Mo8A_2 O22 1_555 1_555
Mo9A O16 1_555 1_555
Mo9_2 O7_2 1_555 1_555
Mo10_2 O14 1_555 1_555
Mo10A O16 1_555 1_555
Mo11A O23 1_555 1_555
Mo11A_2 O8A 1_555 1_555
Mo12_2 O18 1_555 1_555
Mo12A O9A 1_555 1_555
Zn1A O12A 1_555 1_555
Zn1A_2 O12A_2 1_555 1_555
Zn2_2 O1_2 1_555 1_555
Zn2A O1A 1_555 1_555
Zn3A O3A 1_555 1_555
Zn3A_2 O3A_2 1_555 1_555
Zn4A O7A 1_555 1_555
Zn4_2 O7_2 1_555 1_555
O1A Mo4A 1_555 1_555
O3A Mo6A 1_555 1_555
O3A_2 Mo8A_2 1_555 1_555
O4A Zn3A 1_555 1_555
O4A_2 Zn3A_2 1_555 1_555
O5A Mo3A 1_555 1_555
O5A_2 Mo3A_2 1_555 1_555
O6A Mo6 1_555 1_555
O6_2 Mo4_2 1_555 1_555
O7_2 Mo10_2 1_555 1_555
O7A Mo9A 1_555 1_555
O8A Mo8A 1_555 1_555
O8A_2 Mo8A_2 1_555 1_555
O9_2 Mo5_2 1_555 1_555
O9A Zn4A 1_555 1_555
O11_2 Mo5_2 1_555 1_555
O11A Mo5A 1_555 1_555
O12A Mo4 1_555 1_555
O12A_2 Mo4_2 1_555 1_555
O13A Mo2A 1_555 1_555
O13A_2 Mo11A_2 1_555 1_555
O14_2 Mo10 1_555 1_555
O14A Mo7A 1_555 1_555
O15A Mo4 1_555 1_555
O15A_2 Mo3A_2 1_555 1_555
O16A Mo9 1_555 1_555
O16A_2 Mo9_2 1_555 1_555
O17A Mo6 1_555 1_555
O17_2 Mo6A_2 1_555 1_555
O18_2 Mo5 1_555 1_555
O18A Mo5A 1_555 1_555
O20A Mo9 1_555 1_555
O20A_2 Mo1A_2 1_555 1_555
O21A Mo1A_2 1_555 1_555
O21A_2 Mo1A 1_555 1_555
O22A Mo8 1_555 1_555
O22_2 Mo5_2 1_555 1_555
O23A Mo11 1_555 1_555
O23_2 Mo5_2 1_555 1_555
O25A Mo1A 1_555 1_555
O25A_2 Mo1A_2 1_555 1_555
O26_2 Mo12 1_555 1_555
O26A Mo7A 1_555 1_555
O27A Zn1A 1_555 1_555
O27A_2 Zn1A_2 1_555 1_555
O28_2 Mo10_2 1_555 1_555
O28A Mo10A 1_555 1_555
O29_2 Mo12_2 1_555 1_555
O29A Mo12A 1_555 1_555
O30_2 Zn2_2 1_555 1_555
O30A Zn2A 1_555 1_555
O31A Mo2 1_555 1_555
O31_2 Mo2A_2 1_555 1_555
O32A Mo11A 1_555 1_555
O32A_2 Mo11A_2 1_555 1_555
O33A Mo1A 1_555 1_555
O33A_2 Mo1A_2 1_555 1_555
O34A Mo6A 1_555 1_555
O34A_2 Mo6A_2 1_555 1_555
O35A Zn4A 1_555 1_555
O35_2 Zn4_2 1_555 1_555
O36A Mo7A 1_555 1_555
O36_2 Mo7_2 1_555 1_555
O37A Mo4A 1_555 1_555
O37_2 Mo4_2 1_555 1_555
O38A Zn3A 1_555 1_555
O38A_2 Zn3A_2 1_555 1_555
O39A Mo9 1_555 1_555
O39A_2 Mo2A_2 1_555 1_555
O40A Mo3A 1_555 1_555
O40A_2 Mo3A_2 1_555 1_555
O41_2 Mo10_2 1_555 1_555
O41A Mo10A 1_555 1_555
O42A Mo9A 1_555 1_555
O42_2 Mo9_2 1_555 1_555
O43A Mo8A 1_555 1_555
O43A_2 Mo8A_2 1_555 1_555
O44A C8A 1_555 1_555
O44_2 C8_2 1_555 1_555
O45A Mo2A 1_555 1_555
O45A_2 Mo2A_2 1_555 1_555
O46A C15A 1_555 1_555
O46A_2 C15A_2 1_555 1_555
O47A C7A 1_555 1_555
O47A_2 C7A_2 1_555 1_555
O48_2 C16_2 1_555 1_555
O48A C16A 1_555 1_555
C1A C2A 1_555 1_555
C1_2 C2_2 1_555 1_555
C1A_2 C6A_2 1_555 1_555
C1A_3 C6A_3 1_555 1_555
C2A H1A 1_555 1_555
C2_2 H1_2 1_555 1_555
C3A C2A 1_555 1_555
C3A_2 C4A 1_555 1_555
C3_2 C2_2 1_555 1_555
C3A_3 C4A_2 1_555 1_555
H2A C3A 1_555 1_555
C4A H3A 1_555 1_555
C4A_2 H3A_2 1_555 1_555
C4A_3 C3A 1_555 1_555
C5A C4A 1_555 1_555
C5A_2 C4A_2 1_555 1_555
C5A_3 C4A_3 1_555 1_555
C5_2 C6_2 1_555 1_555
C6A C1A 1_555 1_555
C6A_2 C5A 1_555 1_555
C6_2 C1_2 1_555 1_555
C6A_3 C5A_2 1_555 1_555
H4A C6A 1_555 1_555
H4A_2 C6A_2 1_555 1_555
H4_2 C6_2 1_555 1_555
H4A_3 C6A_3 1_555 1_555
C7A O38A 1_555 1_555
C7A_2 O38A_2 1_555 1_555
C7A_3 C5A_3 1_555 1_555
C8A O35A 1_555 1_555
C8_2 O35_2 1_555 1_555
C9A C10A 1_555 1_555
C9A_2 C10A_2 1_555 1_555
C9_2 C10_2 1_555 1_555
C9A_3 C10A_3 1_555 1_555
C10A H5A 1_555 1_555
C10A_2 H5A_2 1_555 1_555
C10_2 C11_2 1_555 1_555
C10A_3 C11A_2 1_555 1_555
C11A C10A 1_555 1_555
C11_2 H6_2 1_555 1_555
C11A_2 H6A_2 1_555 1_555
C11A_3 C10A_2 1_555 1_555
H6A C11A 1_555 1_555
H6A_3 C11A_3 1_555 1_555
C12_2 C11_2 1_555 1_555
C12A C11A_2 1_555 1_555
C12A_2 C11A 1_555 1_555
C12A_3 C11A_3 1_555 1_555
H7_2 C12_2 1_555 1_555
H7A C12A 1_555 1_555
C13_2 C12_2 1_555 1_555
C13A C12A 1_555 1_555
C13A_2 C12A_2 1_555 1_555
C13A_3 C12A_3 1_555 1_555
C14A C9A 1_555 1_555
C14_2 C9_2 1_555 1_555
C14A_2 C9A_3 1_555 1_555
C14A_3 C9A_2 1_555 1_555
H8A C14A 1_555 1_555
H8_2 C14_2 1_555 1_555
H8A_2 C14A_2 1_555 1_555
H8A_3 C14A_3 1_555 1_555
C15A O27A 1_555 1_555
C15A_2 O27A_2 1_555 1_555
C15_2 C9_2 1_555 1_555
C15A_3 C9A_3 1_555 1_555
C16_2 O30_2 1_555 1_555
C16A O30A 1_555 1_555
C16A_2 C13A_2 1_555 1_555
C16A_3 C13A_3 1_555 1_555
Mo2 O25 1_555 1_555
Mo3 O21 1_555 1_555
Mo6 O40 1_555 1_555
Mo7 O12A 1_555 1_555
Mo8 O17A 1_555 1_555
Mo10 O16A 1_555 1_555
Mo11 O31A 1_555 1_555
Mo12 O28 1_555 1_555
Mo12 O18_2 1_555 1_555
Zn1 O21 1_555 1_555
Zn3 O13 1_555 1_555
O17 Mo6A 1_555 1_555
O20 Mo9A 1_555 1_555
O26 Mo12_2 1_555 1_555
O31 Mo11A 1_555 1_555
O39 Mo9A 1_555 1_555
C1 C8 1_555 1_555
C5 C6 1_555 1_555
C5 C7 1_555 1_555
C9 C15 1_555 1_555
C13 C14 1_555 1_555
C13 C16 1_555 1_555
Mo1A O20A 1_555 1_555
Mo2A O25A 1_555 1_555
Mo2A O39A 1_555 1_555
Mo2A_2 O25A_2 1_555 1_555
Mo3A O15A 1_555 1_555
Mo3A O21A 1_555 1_555
Mo3A_2 O21A_2 1_555 1_555
Mo4A O6A 1_555 1_555
Mo4_2 O15A_2 1_555 1_555
Mo5A O22A 1_555 1_555
Mo5A O23A 1_555 1_555
Mo6A O40A 1_555 1_555
Mo6A_2 O6_2 1_555 1_555
Mo6A_2 O40A_2 1_555 1_555
Mo7A O1A 1_555 1_555
Mo7_2 O12A_2 1_555 1_555
Mo7_2 O14_2 1_555 1_555
Mo7_2 O26_2 1_555 1_555
Mo8A O3A 1_555 1_555
Mo8A O22_2 1_555 1_555
Mo8A_2 O17_2 1_555 1_555
Mo9_2 O20A_2 1_555 1_555
Mo9_2 O39A_2 1_555 1_555
Mo10_2 O16A_2 1_555 1_555
Mo10A O7A 1_555 1_555
Mo10A O14A 1_555 1_555
Mo11A O8A_2 1_555 1_555
Mo11A O13A 1_555 1_555
Mo11A_2 O23_2 1_555 1_555
Mo11A_2 O31_2 1_555 1_555
Mo12_2 O9_2 1_555 1_555
Mo12_2 O28_2 1_555 1_555
Mo12A O18A 1_555 1_555
Mo12A O26A 1_555 1_555
Mo12A O28A 1_555 1_555
Zn1A O16A_2 1_555 1_555
Zn1A O21A 1_555 1_555
Zn1A_2 O16A 1_555 1_555
Zn1A_2 O21A_2 1_555 1_555
Zn2_2 O17_2 1_555 1_555
Zn2_2 O18_2 1_555 1_555
Zn2A O17A 1_555 1_555
Zn2A O18A 1_555 1_555
Zn3A O13A_2 1_555 1_555
Zn3A_2 O13A 1_555 1_555
Zn4A O31A 1_555 1_555
Zn4_2 O9_2 1_555 1_555
Zn4_2 O31_2 1_555 1_555
C1A C8A 1_555 1_555
C1_2 C8_2 1_555 1_555
C5A C7A 1_555 1_555
C5A_2 C7A_2 1_555 1_555
C5A_3 C6A 1_555 1_555
C9A C15A 1_555 1_555
C9A_2 C15A_2 1_555 1_555
C13_2 C14_2 1_555 1_555
C13_2 C16_2 1_555 1_555
C13A C14A_2 1_555 1_555
C13A C16A 1_555 1_555
C13A_2 C14A 1_555 1_555
C13A_3 C14A_3 1_555 1_555

#END
