
#######################################################################
#
#                 Cambridge Crystallographic Data Centre
#                                CCDC 
#
#######################################################################
#
# If this CIF has been generated from an entry in the Cambridge 
# Structural Database, then it will include bibliographic, chemical, 
# crystal, experimental, refinement or atomic coordinate data resulting 
# from the CCDC's data processing and validation procedures.
#
#######################################################################

data_VEJCIY
_symmetry_cell_setting           orthorhombic
_symmetry_space_group_name_H-M   'P c a b'
_symmetry_Int_Tables_number      61
_space_group_name_Hall           '-P 2bc 2ac'
loop_
_symmetry_equiv_pos_site_id
_symmetry_equiv_pos_as_xyz
1 x,y,z
2 -x,1/2-y,1/2+z
3 1/2+x,-y,1/2-z
4 1/2-x,1/2+y,-z
5 -x,-y,-z
6 x,1/2+y,1/2-z
7 1/2-x,y,1/2+z
8 1/2+x,1/2-y,z
_cell_length_a                   17.5630(15)
_cell_length_b                   30.229(2)
_cell_length_c                   31.886(3)
_cell_angle_alpha                90
_cell_angle_beta                 90
_cell_angle_gamma                90
_cell_volume                     16928.7
loop_
_atom_site_label
_atom_site_type_symbol
_atom_site_fract_x
_atom_site_fract_y
_atom_site_fract_z
Mo1 Mo 0.92057(3) 0.680218(18) 0.070401(16)
Mo2 Mo 0.56451(3) 0.679797(18) 0.069670(16)
Mo3 Mo 0.84442(3) 0.739957(18) 0.112384(16)
Mo4 Mo 0.63840(3) 0.740202(18) 0.112331(16)
Mo5 Mo 0.93488(3) 0.682090(18) 0.460160(16)
Mo6 Mo 0.92082(3) 0.681884(18) -0.039294(16)
Mo7 Mo 0.86067(3) 0.743410(18) 0.419100(16)
Mo8 Mo 0.65391(3) 0.743640(18) 0.420020(16)
Mo9 Mo 1.24249(3) 0.676120(16) 0.067070(15)
Mo10 Mo 1.24201(3) 0.674190(16) -0.032660(15)
Mo11 Mo 0.66597(3) 0.597270(17) 0.514620(16)
Mo12 Mo 0.84812(3) 0.597280(17) 0.513610(16)
Zn1 Zn 1.07500(4) 0.71151(2) 0.01642(2)
Zn2 Zn 0.75704(4) 0.63832(2) 0.42561(2)
Zn3 Zn 0.91008(4) 0.78873(2) 0.01672(2)
Zn4 Zn 0.74166(4) 0.63474(2) 0.10418(2)
O1 O 0.9769(2) 0.68002(13) 0.01560(12)
O2 O 0.7575(2) 0.60314(12) 0.47637(11)
O3 O 0.6542(2) 0.67654(14) 0.10491(12)
O4 O 0.7594(3) 0.60125(14) 0.37634(12)
O6 O 0.8451(2) 0.67978(13) 0.42423(12)
O8 O 0.7380(2) 0.59665(14) 0.15323(13)
O10 O 0.7419(2) 0.60220(12) 0.05163(11)
O11 O 0.9170(2) 0.75064(15) 0.37779(13)
O12 O 0.6698(2) 0.67910(13) 0.42451(11)
O13 O 1.1733(2) 0.68005(13) 0.01710(12)
O14 O 1.0744(2) 0.75553(14) 0.06224(12)
O15 O 1.0082(2) 0.81843(13) 0.01482(12)
O16 O 0.8292(2) 0.67609(13) 0.10600(12)
O17 O 0.9081(2) 0.74413(13) 0.06294(12)
O18 O 0.5801(2) 0.74533(17) 0.15336(13)
O19 O 1.0757(2) 0.75451(14) -0.03078(12)
O20 O 0.9016(2) 0.74666(15) 0.15352(13)
O21 O 0.5970(2) 0.75219(15) 0.37897(14)
O22 O 0.7407(2) 0.73738(13) 0.14430(11)
O23 O 0.8110(2) 0.81923(12) 0.01754(12)
O24 O 0.8624(2) 0.54193(13) 0.51197(14)
O25 O 0.9096(2) 0.74620(13) -0.03043(12)
O26 O 0.8946(2) 0.61792(14) 0.05673(12)
O27 O 0.7576(2) 0.74117(13) 0.38755(12)
O29 O 1.2445(2) 0.62097(13) 0.07732(14)
O30 O 1.2389(2) 0.61895(13) -0.04050(14)
O31 O 0.8214(2) 0.80329(13) 0.09957(12)
O32 O 0.9947(2) 0.67251(13) 0.10288(13)
O33 O 0.5927(2) 0.61567(13) 0.05613(12)
O34 O 0.9069(2) 0.61872(13) 0.47139(11)
O35 O 0.8919(2) 0.61688(14) -0.02852(13)
O36 O 0.6805(2) 0.80686(13) 0.43497(13)
O37 O 0.6657(2) 0.80335(14) 0.09921(12)
O38 O 0.9936(2) 0.67405(15) -0.07102(13)
O39 O 0.8343(2) 0.80534(13) 0.43449(12)
O40 O 0.6508(2) 0.54155(14) 0.51465(14)
O41 O 0.4905(2) 0.67087(15) 0.10183(13)
O42 O 0.7500(3) 0.66480(13) 0.34024(13)
O43 O 1.0083(2) 0.67537(13) 0.42706(13)
O44 O 0.7417(3) 0.66076(15) 0.18870(13)
O45 O 0.7683(5) 0.45450(19) 0.23840(18)
O46 O 0.7948(5) 0.46201(17) 0.30319(17)
C1 C 0.7415(4) 0.6193(2) 0.18731(18)
C2 C 0.7470(4) 0.5948(2) 0.22724(18)
C3 C 0.7471(4) 0.6190(2) 0.26422(17)
H1 H 0.7419 0.6497 0.2638
C4 C 0.7552(4) 0.5963(2) 0.30205(18)
C5 C 0.7534(4) 0.6242(2) 0.34232(18)
C6 C 0.7690(4) 0.5517(2) 0.30259(18)
H2 H 0.7838 0.5381 0.3275
C7 C 0.7611(5) 0.5265(2) 0.26614(19)
C8 C 0.7804(7) 0.4774(2) 0.2670(2)
C9 C 0.7534(4) 0.5492(2) 0.22855(19)
H3 H 0.7525 0.5333 0.2036
Mo1F Mo 0.57943(3) 0.680218(18) 0.570401(16)
Mo1G Mo 0.42057(3) 0.819782(18) 0.070401(16)
Mo1A Mo 1.07943(3) 0.819782(18) 0.570401(16)
Mo1G_2 Mo 1.42057(3) 0.819782(18) 0.070401(16)
Mo1_2 Mo -0.07943(3) 0.680218(18) 0.070401(16)
Mo1F_2 Mo 1.57943(3) 0.680218(18) 0.570401(16)
Mo1A_2 Mo 0.07943(3) 0.819782(18) 0.570401(16)
Mo1_3 Mo 1.92057(3) 0.680218(18) 0.070401(16)
Mo2G Mo 1.06451(3) 0.820203(18) 0.069670(16)
Mo2F Mo 0.93549(3) 0.679797(18) 0.569670(16)
Mo2A Mo 0.43549(3) 0.820203(18) 0.569670(16)
Mo2_2 Mo 1.56451(3) 0.679797(18) 0.069670(16)
Mo2G_2 Mo 0.06451(3) 0.820203(18) 0.069670(16)
Mo2A_2 Mo 1.43549(3) 0.820203(18) 0.569670(16)
Mo2F_2 Mo -0.06451(3) 0.679797(18) 0.569670(16)
Mo3G Mo 1.34442(3) 0.760043(18) 0.112384(16)
Mo3G_2 Mo 0.34442(3) 0.760043(18) 0.112384(16)
Mo3A Mo 1.15558(3) 0.760043(18) 0.612384(16)
Mo3F Mo 0.65558(3) 0.739957(18) 0.612384(16)
Mo3A_2 Mo 0.15558(3) 0.760043(18) 0.612384(16)
Mo3_2 Mo 1.84442(3) 0.739957(18) 0.112384(16)
Mo3_3 Mo -0.15558(3) 0.739957(18) 0.112384(16)
Mo3F_2 Mo 1.65558(3) 0.739957(18) 0.612384(16)
Mo4G Mo 1.13840(3) 0.759798(18) 0.112331(16)
Mo4F Mo 0.86160(3) 0.740202(18) 0.612331(16)
Mo4A Mo 0.36160(3) 0.759798(18) 0.612331(16)
Mo4G_2 Mo 0.13840(3) 0.759798(18) 0.112331(16)
Mo4A_2 Mo 1.36160(3) 0.759798(18) 0.612331(16)
Mo4_2 Mo 1.63840(3) 0.740202(18) 0.112331(16)
Mo4F_2 Mo -0.13840(3) 0.740202(18) 0.612331(16)
Mo5A Mo 1.06512(3) 0.817910(18) -0.039840(16)
Mo5F Mo 0.56512(3) 0.682090(18) -0.039840(16)
Mo5G Mo 0.43488(3) 0.817910(18) 0.460160(16)
Mo5F_2 Mo 1.56512(3) 0.682090(18) -0.039840(16)
Mo5A_2 Mo 0.06512(3) 0.817910(18) -0.039840(16)
Mo5G_2 Mo 1.43488(3) 0.817910(18) 0.460160(16)
Mo5_2 Mo -0.06512(3) 0.682090(18) 0.460160(16)
Mo6F Mo 0.57918(3) 0.681884(18) 0.460706(16)
Mo6G Mo 0.42082(3) 0.818116(18) -0.039294(16)
Mo6A Mo 1.07918(3) 0.818116(18) 0.460706(16)
Mo6G_2 Mo 1.42082(3) 0.818116(18) -0.039294(16)
Mo6_2 Mo -0.07918(3) 0.681884(18) -0.039294(16)
Mo6F_2 Mo 1.57918(3) 0.681884(18) 0.460706(16)
Mo6A_2 Mo 0.07918(3) 0.818116(18) 0.460706(16)
Mo6_3 Mo 1.92082(3) 0.681884(18) -0.039294(16)
Mo7A Mo 1.13933(3) 0.756590(18) -0.080900(16)
Mo7F Mo 0.63933(3) 0.743410(18) -0.080900(16)
Mo7G Mo 0.36067(3) 0.756590(18) 0.419100(16)
Mo7A_2 Mo 0.13933(3) 0.756590(18) -0.080900(16)
Mo7G_2 Mo 1.36067(3) 0.756590(18) 0.419100(16)
Mo7F_2 Mo 1.63933(3) 0.743410(18) -0.080900(16)
Mo7_2 Mo -0.13933(3) 0.743410(18) 0.419100(16)
Mo8F Mo 0.84609(3) 0.743640(18) -0.079980(16)
Mo8A Mo 1.34609(3) 0.756360(18) -0.079980(16)
Mo8A_2 Mo 0.34609(3) 0.756360(18) -0.079980(16)
Mo8G Mo 1.15391(3) 0.756360(18) 0.420020(16)
Mo8G_2 Mo 0.15391(3) 0.756360(18) 0.420020(16)
Mo8F_2 Mo 1.84609(3) 0.743640(18) -0.079980(16)
Mo8F_3 Mo -0.15391(3) 0.743640(18) -0.079980(16)
Mo8_2 Mo 1.65391(3) 0.743640(18) 0.420020(16)
Mo9G Mo 0.74249(3) 0.823880(16) 0.067070(15)
Mo9A Mo 0.75751(3) 0.823880(16) 0.567070(15)
Mo9_2 Mo 0.24249(3) 0.676120(16) 0.067070(15)
Mo9F Mo 1.25751(3) 0.676120(16) 0.567070(15)
Mo9F_2 Mo 0.25751(3) 0.676120(16) 0.567070(15)
Mo9G_2 Mo 1.74249(3) 0.823880(16) 0.067070(15)
Mo10G Mo 0.74201(3) 0.825810(16) -0.032660(15)
Mo10A Mo 0.75799(3) 0.825810(16) 0.467340(15)
Mo10_2 Mo 0.24201(3) 0.674190(16) -0.032660(15)
Mo10F Mo 1.25799(3) 0.674190(16) 0.467340(15)
Mo10F_2 Mo 0.25799(3) 0.674190(16) 0.467340(15)
Mo10G_2 Mo 1.74201(3) 0.825810(16) -0.032660(15)
Mo11F Mo 0.83403(3) 0.597270(17) 0.014620(16)
Mo11A Mo 1.33403(3) 0.902730(17) 0.014620(16)
Mo11A_2 Mo 0.33403(3) 0.902730(17) 0.014620(16)
Mo11G Mo 1.16597(3) 0.902730(17) 0.514620(16)
Mo11G_2 Mo 0.16597(3) 0.902730(17) 0.514620(16)
Mo11F_2 Mo 1.83403(3) 0.597270(17) 0.014620(16)
Mo11F_3 Mo -0.16597(3) 0.597270(17) 0.014620(16)
Mo11_2 Mo 1.66597(3) 0.597270(17) 0.514620(16)
Mo12F Mo 0.65188(3) 0.597280(17) 0.013610(16)
Mo12A Mo 1.15188(3) 0.902720(17) 0.013610(16)
Mo12G Mo 0.34812(3) 0.902720(17) 0.513610(16)
Mo12F_2 Mo 1.65188(3) 0.597280(17) 0.013610(16)
Mo12A_2 Mo 0.15188(3) 0.902720(17) 0.013610(16)
Mo12G_2 Mo 1.34812(3) 0.902720(17) 0.513610(16)
Mo12_2 Mo -0.15188(3) 0.597280(17) 0.513610(16)
Zn1G Zn 0.57500(4) 0.78849(2) 0.01642(2)
Zn1A Zn 0.92500(4) 0.78849(2) 0.51642(2)
Zn1F Zn 0.42500(4) 0.71151(2) 0.51642(2)
Zn1_2 Zn 0.07500(4) 0.71151(2) 0.01642(2)
Zn1F_2 Zn 1.42500(4) 0.71151(2) 0.51642(2)
Zn1G_2 Zn 1.57500(4) 0.78849(2) 0.01642(2)
Zn1A_2 Zn -0.07500(4) 0.78849(2) 0.51642(2)
Zn1_3 Zn 2.07500(4) 0.71151(2) 0.01642(2)
Zn2F Zn 0.74296(4) 0.63832(2) -0.07439(2)
Zn2A Zn 1.24296(4) 0.86168(2) -0.07439(2)
Zn2A_2 Zn 0.24296(4) 0.86168(2) -0.07439(2)
Zn2G Zn 1.25704(4) 0.86168(2) 0.42561(2)
Zn2G_2 Zn 0.25704(4) 0.86168(2) 0.42561(2)
Zn2F_2 Zn 1.74296(4) 0.63832(2) -0.07439(2)
Zn2F_3 Zn -0.25704(4) 0.63832(2) -0.07439(2)
Zn2_2 Zn 1.75704(4) 0.63832(2) 0.42561(2)
Zn2F_4 Zn 0.74296(4) 0.63832(2) 0.92561(2)
Zn2_3 Zn -0.24296(4) 0.63832(2) 0.42561(2)
Zn3G Zn 0.41008(4) 0.71127(2) 0.01672(2)
Zn3A Zn 1.08992(4) 0.71127(2) 0.51672(2)
Zn3F Zn 0.58992(4) 0.78873(2) 0.51672(2)
Zn3G_2 Zn 1.41008(4) 0.71127(2) 0.01672(2)
Zn3A_2 Zn 0.08992(4) 0.71127(2) 0.51672(2)
Zn3_2 Zn -0.08992(4) 0.78873(2) 0.01672(2)
Zn3F_2 Zn 1.58992(4) 0.78873(2) 0.51672(2)
Zn3_3 Zn 1.91008(4) 0.78873(2) 0.01672(2)
Zn4F Zn 0.75834(4) 0.63474(2) 0.60418(2)
Zn4G Zn 1.24166(4) 0.86526(2) 0.10418(2)
Zn4G_2 Zn 0.24166(4) 0.86526(2) 0.10418(2)
Zn4A Zn 1.25834(4) 0.86526(2) 0.60418(2)
Zn4A_2 Zn 0.25834(4) 0.86526(2) 0.60418(2)
Zn4_2 Zn 1.74166(4) 0.63474(2) 0.10418(2)
Zn4_3 Zn -0.25834(4) 0.63474(2) 0.10418(2)
Zn4F_2 Zn 1.75834(4) 0.63474(2) 0.60418(2)
Zn4F_3 Zn 0.75834(4) 0.63474(2) -0.39582(2)
Zn4F_4 Zn -0.24166(4) 0.63474(2) 0.60418(2)
Zn4A_3 Zn 1.25834(4) 0.86526(2) -0.39582(2)
O1F O 0.5231(2) 0.68002(13) 0.51560(12)
O1G O 0.4769(2) 0.81998(13) 0.01560(12)
O1A O 1.0231(2) 0.81998(13) 0.51560(12)
O1G_2 O 1.4769(2) 0.81998(13) 0.01560(12)
O1_2 O -0.0231(2) 0.68002(13) 0.01560(12)
O1F_2 O 1.5231(2) 0.68002(13) 0.51560(12)
O1A_2 O 0.0231(2) 0.81998(13) 0.51560(12)
O1_3 O 1.9769(2) 0.68002(13) 0.01560(12)
O2F O 0.7425(2) 0.60314(12) -0.02363(11)
O2A O 1.2425(2) 0.89686(12) -0.02363(11)
O2A_2 O 0.2425(2) 0.89686(12) -0.02363(11)
O2G O 1.2575(2) 0.89686(12) 0.47637(11)
O2G_2 O 0.2575(2) 0.89686(12) 0.47637(11)
O2F_2 O 1.7425(2) 0.60314(12) -0.02363(11)
O2F_3 O -0.2575(2) 0.60314(12) -0.02363(11)
O2_2 O 1.7575(2) 0.60314(12) 0.47637(11)
O2F_4 O 0.7425(2) 0.60314(12) 0.97637(11)
O3G O 1.1542(2) 0.82346(14) 0.10491(12)
O3F O 0.8458(2) 0.67654(14) 0.60491(12)
O3A O 0.3458(2) 0.82346(14) 0.60491(12)
O3_2 O 1.6542(2) 0.67654(14) 0.10491(12)
O3G_2 O 0.1542(2) 0.82346(14) 0.10491(12)
O3A_2 O 1.3458(2) 0.82346(14) 0.60491(12)
O3F_2 O -0.1542(2) 0.67654(14) 0.60491(12)
O3_3 O -0.3458(2) 0.67654(14) 0.10491(12)
O3F_3 O 1.8458(2) 0.67654(14) 0.60491(12)
O3F_4 O 0.8458(2) 0.67654(14) -0.39509(12)
O4F O 0.7406(3) 0.60125(14) -0.12366(12)
O4A O 1.2406(3) 0.89875(14) -0.12366(12)
O4A_2 O 0.2406(3) 0.89875(14) -0.12366(12)
O4G O 1.2594(3) 0.89875(14) 0.37634(12)
O4G_2 O 0.2594(3) 0.89875(14) 0.37634(12)
O4F_2 O 1.7406(3) 0.60125(14) -0.12366(12)
O4F_3 O 0.7406(3) 0.60125(14) 0.87634(12)
O4F_4 O -0.2594(3) 0.60125(14) -0.12366(12)
O4_2 O 1.7594(3) 0.60125(14) 0.37634(12)
O6A O 1.1549(2) 0.82022(13) -0.07577(12)
O6F O 0.6549(2) 0.67978(13) -0.07577(12)
O6G O 0.3451(2) 0.82022(13) 0.42423(12)
O6F_2 O 1.6549(2) 0.67978(13) -0.07577(12)
O6A_2 O 0.1549(2) 0.82022(13) -0.07577(12)
O6G_2 O 1.3451(2) 0.82022(13) 0.42423(12)
O6_2 O -0.1549(2) 0.67978(13) 0.42423(12)
O6F_3 O -0.3451(2) 0.67978(13) -0.07577(12)
O6_3 O 1.8451(2) 0.67978(13) 0.42423(12)
O6F_4 O 0.6549(2) 0.67978(13) 0.92423(12)
O8F O 0.7620(2) 0.59665(14) 0.65323(13)
O8G O 1.2380(2) 0.90335(14) 0.15323(13)
O8G_2 O 0.2380(2) 0.90335(14) 0.15323(13)
O8A O 1.2620(2) 0.90335(14) 0.65323(13)
O8A_2 O 0.2620(2) 0.90335(14) 0.65323(13)
O8_2 O 1.7380(2) 0.59665(14) 0.15323(13)
O8F_2 O 0.7620(2) 0.59665(14) -0.34677(13)
O8A_3 O 1.2620(2) 0.90335(14) -0.34677(13)
O8_3 O -0.2620(2) 0.59665(14) 0.15323(13)
O8F_3 O 1.7620(2) 0.59665(14) 0.65323(13)
O10F O 0.7581(2) 0.60220(12) 0.55163(11)
O10G O 1.2419(2) 0.89780(12) 0.05163(11)
O10G_2 O 0.2419(2) 0.89780(12) 0.05163(11)
O10A O 1.2581(2) 0.89780(12) 0.55163(11)
O10A_2 O 0.2581(2) 0.89780(12) 0.55163(11)
O10_2 O 1.7419(2) 0.60220(12) 0.05163(11)
O10_3 O -0.2581(2) 0.60220(12) 0.05163(11)
O10F_2 O 1.7581(2) 0.60220(12) 0.55163(11)
O10F_3 O 0.7581(2) 0.60220(12) -0.44837(11)
O11A O 1.0830(2) 0.74936(15) -0.12221(13)
O11F O 0.5830(2) 0.75064(15) -0.12221(13)
O11G O 0.4170(2) 0.74936(15) 0.37779(13)
O11A_2 O 0.0830(2) 0.74936(15) -0.12221(13)
O11G_2 O 1.4170(2) 0.74936(15) 0.37779(13)
O11F_2 O 1.5830(2) 0.75064(15) -0.12221(13)
O12F O 0.8302(2) 0.67910(13) -0.07549(11)
O12A O 1.3302(2) 0.82090(13) -0.07549(11)
O12A_2 O 0.3302(2) 0.82090(13) -0.07549(11)
O12G O 1.1698(2) 0.82090(13) 0.42451(11)
O12G_2 O 0.1698(2) 0.82090(13) 0.42451(11)
O12F_2 O 1.8302(2) 0.67910(13) -0.07549(11)
O12F_3 O -0.1698(2) 0.67910(13) -0.07549(11)
O12_2 O 1.6698(2) 0.67910(13) 0.42451(11)
O12F_4 O 0.8302(2) 0.67910(13) 0.92451(11)
O13G O 0.6733(2) 0.81995(13) 0.01710(12)
O13A O 0.8267(2) 0.81995(13) 0.51710(12)
O13F O 0.3267(2) 0.68005(13) 0.51710(12)
O13_2 O 0.1733(2) 0.68005(13) 0.01710(12)
O13F_2 O 1.3267(2) 0.68005(13) 0.51710(12)
O13G_2 O 1.6733(2) 0.81995(13) 0.01710(12)
O13A_2 O -0.1733(2) 0.81995(13) 0.51710(12)
O13_3 O 2.1733(2) 0.68005(13) 0.01710(12)
O14G O 0.5744(2) 0.74447(14) 0.06224(12)
O14A O 0.9256(2) 0.74447(14) 0.56224(12)
O14F O 0.4256(2) 0.75553(14) 0.56224(12)
O14G_2 O 1.5744(2) 0.74447(14) 0.06224(12)
O14_2 O 0.0744(2) 0.75553(14) 0.06224(12)
O14F_2 O 1.4256(2) 0.75553(14) 0.56224(12)
O14A_2 O -0.0744(2) 0.74447(14) 0.56224(12)
O14_3 O 2.0744(2) 0.75553(14) 0.06224(12)
O15G O 0.5082(2) 0.68157(13) 0.01482(12)
O15A O 0.9918(2) 0.68157(13) 0.51482(12)
O15F O 0.4918(2) 0.81843(13) 0.51482(12)
O15G_2 O 1.5082(2) 0.68157(13) 0.01482(12)
O15A_2 O -0.0082(2) 0.68157(13) 0.51482(12)
O15_2 O 0.0082(2) 0.81843(13) 0.01482(12)
O15F_2 O 1.4918(2) 0.81843(13) 0.51482(12)
O15_3 O 2.0082(2) 0.81843(13) 0.01482(12)
O16G O 1.3292(2) 0.82391(13) 0.10600(12)
O16F O 0.6708(2) 0.67609(13) 0.60600(12)
O16G_2 O 0.3292(2) 0.82391(13) 0.10600(12)
O16A O 1.1708(2) 0.82391(13) 0.60600(12)
O16A_2 O 0.1708(2) 0.82391(13) 0.60600(12)
O16_2 O 1.8292(2) 0.67609(13) 0.10600(12)
O16_3 O -0.1708(2) 0.67609(13) 0.10600(12)
O16F_2 O 1.6708(2) 0.67609(13) 0.60600(12)
O16F_3 O 0.6708(2) 0.67609(13) -0.39400(12)
O17G O 0.4081(2) 0.75587(13) 0.06294(12)
O17A O 1.0919(2) 0.75587(13) 0.56294(12)
O17F O 0.5919(2) 0.74413(13) 0.56294(12)
O17G_2 O 1.4081(2) 0.75587(13) 0.06294(12)
O17A_2 O 0.0919(2) 0.75587(13) 0.56294(12)
O17_2 O -0.0919(2) 0.74413(13) 0.06294(12)
O17F_2 O 1.5919(2) 0.74413(13) 0.56294(12)
O17_3 O 1.9081(2) 0.74413(13) 0.06294(12)
O18G O 1.0801(2) 0.75467(17) 0.15336(13)
O18F O 0.9199(2) 0.74533(17) 0.65336(13)
O18A O 0.4199(2) 0.75467(17) 0.65336(13)
O18G_2 O 0.0801(2) 0.75467(17) 0.15336(13)
O18A_2 O 1.4199(2) 0.75467(17) 0.65336(13)
O18_2 O 1.5801(2) 0.74533(17) 0.15336(13)
O19A O 0.9243(2) 0.74549(14) 0.46922(12)
O19G O 0.5757(2) 0.74549(14) -0.03078(12)
O19F O 0.4243(2) 0.75451(14) 0.46922(12)
O19G_2 O 1.5757(2) 0.74549(14) -0.03078(12)
O19_2 O 0.0757(2) 0.75451(14) -0.03078(12)
O19F_2 O 1.4243(2) 0.75451(14) 0.46922(12)
O19A_2 O -0.0757(2) 0.74549(14) 0.46922(12)
O19_3 O 2.0757(2) 0.75451(14) -0.03078(12)
O20G O 1.4016(2) 0.75334(15) 0.15352(13)
O20G_2 O 0.4016(2) 0.75334(15) 0.15352(13)
O20A O 1.0984(2) 0.75334(15) 0.65352(13)
O20F O 0.5984(2) 0.74666(15) 0.65352(13)
O20A_2 O 0.0984(2) 0.75334(15) 0.65352(13)
O20_2 O 1.9016(2) 0.74666(15) 0.15352(13)
O20_3 O -0.0984(2) 0.74666(15) 0.15352(13)
O20F_2 O 1.5984(2) 0.74666(15) 0.65352(13)
O21F O 0.9030(2) 0.75219(15) -0.12103(14)
O21A O 1.4030(2) 0.74781(15) -0.12103(14)
O21A_2 O 0.4030(2) 0.74781(15) -0.12103(14)
O21G O 1.0970(2) 0.74781(15) 0.37897(14)
O21G_2 O 0.0970(2) 0.74781(15) 0.37897(14)
O21F_2 O 1.9030(2) 0.75219(15) -0.12103(14)
O21F_3 O -0.0970(2) 0.75219(15) -0.12103(14)
O21_2 O 1.5970(2) 0.75219(15) 0.37897(14)
O22G O 1.2407(2) 0.76262(13) 0.14430(11)
O22G_2 O 0.2407(2) 0.76262(13) 0.14430(11)
O22F O 0.7593(2) 0.73738(13) 0.64430(11)
O22A O 1.2593(2) 0.76262(13) 0.64430(11)
O22A_2 O 0.2593(2) 0.76262(13) 0.64430(11)
O22_2 O 1.7407(2) 0.73738(13) 0.14430(11)
O22_3 O -0.2593(2) 0.73738(13) 0.14430(11)
O22F_2 O 1.7593(2) 0.73738(13) 0.64430(11)
O23G O 1.3110(2) 0.68077(12) 0.01754(12)
O23F O 0.6890(2) 0.81923(12) 0.51754(12)
O23G_2 O 0.3110(2) 0.68077(12) 0.01754(12)
O23A O 1.1890(2) 0.68077(12) 0.51754(12)
O23A_2 O 0.1890(2) 0.68077(12) 0.51754(12)
O23_2 O 1.8110(2) 0.81923(12) 0.01754(12)
O23_3 O -0.1890(2) 0.81923(12) 0.01754(12)
O23F_2 O 1.6890(2) 0.81923(12) 0.51754(12)
O24F O 0.6376(2) 0.54193(13) 0.01197(14)
O24A O 1.1376(2) 0.95807(13) 0.01197(14)
O24G O 0.3624(2) 0.95807(13) 0.51197(14)
O24F_2 O 1.6376(2) 0.54193(13) 0.01197(14)
O24A_2 O 0.1376(2) 0.95807(13) 0.01197(14)
O24G_2 O 1.3624(2) 0.95807(13) 0.51197(14)
O25F O 0.5904(2) 0.74620(13) 0.46957(12)
O25G O 0.4096(2) 0.75380(13) -0.03043(12)
O25A O 1.0904(2) 0.75380(13) 0.46957(12)
O25G_2 O 1.4096(2) 0.75380(13) -0.03043(12)
O25A_2 O 0.0904(2) 0.75380(13) 0.46957(12)
O25_2 O -0.0904(2) 0.74620(13) -0.03043(12)
O25F_2 O 1.5904(2) 0.74620(13) 0.46957(12)
O25_3 O 1.9096(2) 0.74620(13) -0.03043(12)
O26F O 0.6054(2) 0.61792(14) 0.55673(12)
O26G O 0.3946(2) 0.88208(14) 0.05673(12)
O26A O 1.1054(2) 0.88208(14) 0.55673(12)
O26G_2 O 1.3946(2) 0.88208(14) 0.05673(12)
O26_2 O -0.1054(2) 0.61792(14) 0.05673(12)
O26F_2 O 1.6054(2) 0.61792(14) 0.55673(12)
O26A_2 O 0.1054(2) 0.88208(14) 0.55673(12)
O26_3 O 1.8946(2) 0.61792(14) 0.05673(12)
O27A O 1.2424(2) 0.75883(13) -0.11245(12)
O27F O 0.7424(2) 0.74117(13) -0.11245(12)
O27A_2 O 0.2424(2) 0.75883(13) -0.11245(12)
O27G O 1.2576(2) 0.75883(13) 0.38755(12)
O27G_2 O 0.2576(2) 0.75883(13) 0.38755(12)
O27F_2 O 1.7424(2) 0.74117(13) -0.11245(12)
O27F_3 O -0.2576(2) 0.74117(13) -0.11245(12)
O27_2 O 1.7576(2) 0.74117(13) 0.38755(12)
O29G O 0.7445(2) 0.87903(13) 0.07732(14)
O29A O 0.7555(2) 0.87903(13) 0.57732(14)
O29_2 O 0.2445(2) 0.62097(13) 0.07732(14)
O29F O 1.2555(2) 0.62097(13) 0.57732(14)
O29F_2 O 0.2555(2) 0.62097(13) 0.57732(14)
O29G_2 O 1.7445(2) 0.87903(13) 0.07732(14)
O30G O 0.7389(2) 0.88105(13) -0.04050(14)
O30A O 0.7611(2) 0.88105(13) 0.45950(14)
O30_2 O 0.2389(2) 0.61895(13) -0.04050(14)
O30F O 1.2611(2) 0.61895(13) 0.45950(14)
O30F_2 O 0.2611(2) 0.61895(13) 0.45950(14)
O30G_2 O 1.7389(2) 0.88105(13) -0.04050(14)
O31G O 1.3214(2) 0.69671(13) 0.09957(12)
O31F O 0.6786(2) 0.80329(13) 0.59957(12)
O31G_2 O 0.3214(2) 0.69671(13) 0.09957(12)
O31A O 1.1786(2) 0.69671(13) 0.59957(12)
O31A_2 O 0.1786(2) 0.69671(13) 0.59957(12)
O31_2 O 1.8214(2) 0.80329(13) 0.09957(12)
O31_3 O -0.1786(2) 0.80329(13) 0.09957(12)
O31F_2 O 1.6786(2) 0.80329(13) 0.59957(12)
O32F O 0.5053(2) 0.67251(13) 0.60288(13)
O32G O 0.4947(2) 0.82749(13) 0.10288(13)
O32A O 1.0053(2) 0.82749(13) 0.60288(13)
O32G_2 O 1.4947(2) 0.82749(13) 0.10288(13)
O32_2 O -0.0053(2) 0.67251(13) 0.10288(13)
O32F_2 O 1.5053(2) 0.67251(13) 0.60288(13)
O32A_2 O 0.0053(2) 0.82749(13) 0.60288(13)
O32_3 O 1.9947(2) 0.67251(13) 0.10288(13)
O33F O 0.9073(2) 0.61567(13) 0.55613(12)
O33G O 1.0927(2) 0.88433(13) 0.05613(12)
O33A O 0.4073(2) 0.88433(13) 0.55613(12)
O33_2 O 1.5927(2) 0.61567(13) 0.05613(12)
O33G_2 O 0.0927(2) 0.88433(13) 0.05613(12)
O33A_2 O 1.4073(2) 0.88433(13) 0.55613(12)
O33F_2 O -0.0927(2) 0.61567(13) 0.55613(12)
O34F O 0.5931(2) 0.61872(13) -0.02861(11)
O34A O 1.0931(2) 0.88128(13) -0.02861(11)
O34G O 0.4069(2) 0.88128(13) 0.47139(11)
O34F_2 O 1.5931(2) 0.61872(13) -0.02861(11)
O34A_2 O 0.0931(2) 0.88128(13) -0.02861(11)
O34G_2 O 1.4069(2) 0.88128(13) 0.47139(11)
O34_2 O -0.0931(2) 0.61872(13) 0.47139(11)
O35F O 0.6081(2) 0.61688(14) 0.47148(13)
O35G O 0.3919(2) 0.88312(14) -0.02852(13)
O35A O 1.1081(2) 0.88312(14) 0.47148(13)
O35G_2 O 1.3919(2) 0.88312(14) -0.02852(13)
O35_2 O -0.1081(2) 0.61688(14) -0.02852(13)
O35F_2 O 1.6081(2) 0.61688(14) 0.47148(13)
O35A_2 O 0.1081(2) 0.88312(14) 0.47148(13)
O35_3 O 1.8919(2) 0.61688(14) -0.02852(13)
O36A O 1.3195(2) 0.69314(13) -0.06503(13)
O36F O 0.8195(2) 0.80686(13) -0.06503(13)
O36A_2 O 0.3195(2) 0.69314(13) -0.06503(13)
O36G O 1.1805(2) 0.69314(13) 0.43497(13)
O36G_2 O 0.1805(2) 0.69314(13) 0.43497(13)
O36F_2 O 1.8195(2) 0.80686(13) -0.06503(13)
O36F_3 O -0.1805(2) 0.80686(13) -0.06503(13)
O36_2 O 1.6805(2) 0.80686(13) 0.43497(13)
O37G O 1.1657(2) 0.69665(14) 0.09921(12)
O37F O 0.8343(2) 0.80335(14) 0.59921(12)
O37G_2 O 0.1657(2) 0.69665(14) 0.09921(12)
O37A O 1.3343(2) 0.69665(14) 0.59921(12)
O37A_2 O 0.3343(2) 0.69665(14) 0.59921(12)
O37_2 O 1.6657(2) 0.80335(14) 0.09921(12)
O38F O 0.5064(2) 0.67405(15) 0.42898(13)
O38G O 0.4936(2) 0.82595(15) -0.07102(13)
O38A O 1.0064(2) 0.82595(15) 0.42898(13)
O38G_2 O 1.4936(2) 0.82595(15) -0.07102(13)
O38_2 O -0.0064(2) 0.67405(15) -0.07102(13)
O38F_2 O 1.5064(2) 0.67405(15) 0.42898(13)
O38A_2 O 0.0064(2) 0.82595(15) 0.42898(13)
O38_3 O 1.9936(2) 0.67405(15) -0.07102(13)
O39A O 1.1657(2) 0.69466(13) -0.06551(12)
O39F O 0.6657(2) 0.80534(13) -0.06551(12)
O39A_2 O 0.1657(2) 0.69466(13) -0.06551(12)
O39G O 1.3343(2) 0.69466(13) 0.43449(12)
O39G_2 O 0.3343(2) 0.69466(13) 0.43449(12)
O39F_2 O 1.6657(2) 0.80534(13) -0.06551(12)
O40F O 0.8492(2) 0.54155(14) 0.01465(14)
O40A O 1.3492(2) 0.95845(14) 0.01465(14)
O40A_2 O 0.3492(2) 0.95845(14) 0.01465(14)
O40G O 1.1508(2) 0.95845(14) 0.51465(14)
O40G_2 O 0.1508(2) 0.95845(14) 0.51465(14)
O40F_2 O 1.8492(2) 0.54155(14) 0.01465(14)
O40F_3 O -0.1508(2) 0.54155(14) 0.01465(14)
O40_2 O 1.6508(2) 0.54155(14) 0.51465(14)
O41G O 0.9905(2) 0.82913(15) 0.10183(13)
O41F O 1.0095(2) 0.67087(15) 0.60183(13)
O41A O 0.5095(2) 0.82913(15) 0.60183(13)
O41_2 O 1.4905(2) 0.67087(15) 0.10183(13)
O41G_2 O -0.0095(2) 0.82913(15) 0.10183(13)
O41A_2 O 1.5095(2) 0.82913(15) 0.60183(13)
O41F_2 O 0.0095(2) 0.67087(15) 0.60183(13)
O42F O 0.7500(3) 0.66480(13) -0.15976(13)
O42A O 1.2500(3) 0.83520(13) -0.15976(13)
O42A_2 O 0.2500(3) 0.83520(13) -0.15976(13)
O42G O 1.2500(3) 0.83520(13) 0.34024(13)
O42G_2 O 0.2500(3) 0.83520(13) 0.34024(13)
O42F_2 O 1.7500(3) 0.66480(13) -0.15976(13)
O42F_3 O 0.7500(3) 0.66480(13) 0.84024(13)
O43A O 0.9917(2) 0.82463(13) -0.07294(13)
O43F O 0.4917(2) 0.67537(13) -0.07294(13)
O43G O 0.5083(2) 0.82463(13) 0.42706(13)
O43F_2 O 1.4917(2) 0.67537(13) -0.07294(13)
O43A_2 O -0.0083(2) 0.82463(13) -0.07294(13)
O43G_2 O 1.5083(2) 0.82463(13) 0.42706(13)
O43_2 O 0.0083(2) 0.67537(13) 0.42706(13)
O44F O 0.7583(3) 0.66076(15) 0.68870(13)
O44G O 1.2417(3) 0.83924(15) 0.18870(13)
O44G_2 O 0.2417(3) 0.83924(15) 0.18870(13)
O44A O 1.2583(3) 0.83924(15) 0.68870(13)
O44F_2 O 0.7583(3) 0.66076(15) -0.31130(13)
O44A_2 O 0.2583(3) 0.83924(15) 0.68870(13)
O44_2 O 1.7417(3) 0.66076(15) 0.18870(13)
O44A_3 O 1.2583(3) 0.83924(15) -0.31130(13)
O45F O 0.7317(5) 0.45450(19) -0.26160(18)
O45F_2 O 0.7317(5) 0.45450(19) 0.73840(18)
O45G O 1.2683(5) 1.04550(19) 0.23840(18)
O45A O 1.2317(5) 1.04550(19) -0.26160(18)
O46F O 0.7052(5) 0.46201(17) -0.19681(17)
O46F_2 O 0.7052(5) 0.46201(17) 0.80319(17)
O46G O 1.2948(5) 1.03799(17) 0.30319(17)
O46A O 1.2052(5) 1.03799(17) -0.19681(17)
C1F C 0.7585(4) 0.6193(2) 0.68731(18)
C1G C 1.2415(4) 0.8807(2) 0.18731(18)
C1G_2 C 0.2415(4) 0.8807(2) 0.18731(18)
C1A C 1.2585(4) 0.8807(2) 0.68731(18)
C1F_2 C 0.7585(4) 0.6193(2) -0.31269(18)
C1A_2 C 0.2585(4) 0.8807(2) 0.68731(18)
C1_2 C 1.7415(4) 0.6193(2) 0.18731(18)
C1A_3 C 1.2585(4) 0.8807(2) -0.31269(18)
C2F C 0.7530(4) 0.5948(2) 0.72724(18)
C2G C 1.2470(4) 0.9052(2) 0.22724(18)
C2F_2 C 0.7530(4) 0.5948(2) -0.27276(18)
C2A C 1.2530(4) 0.9052(2) -0.27276(18)
C2G_2 C 0.2470(4) 0.9052(2) 0.22724(18)
C2A_2 C 1.2530(4) 0.9052(2) 0.72724(18)
C2A_3 C 0.2530(4) 0.9052(2) 0.72724(18)
C2_2 C 1.7470(4) 0.5948(2) 0.22724(18)
C2A_4 C 0.2530(4) 0.9052(2) -0.27276(18)
C2F_3 C 1.7530(4) 0.5948(2) -0.27276(18)
C3F C 0.7529(4) 0.6190(2) -0.23578(17)
C3F_2 C 0.7529(4) 0.6190(2) 0.76422(17)
C3G C 1.2471(4) 0.8810(2) 0.26422(17)
C3A C 1.2529(4) 0.8810(2) -0.23578(17)
C3G_2 C 0.2471(4) 0.8810(2) 0.26422(17)
C3A_2 C 0.2529(4) 0.8810(2) -0.23578(17)
C3A_3 C 1.2529(4) 0.8810(2) 0.76422(17)
C3A_4 C 0.2529(4) 0.8810(2) 0.76422(17)
C3_2 C 1.7471(4) 0.6190(2) 0.26422(17)
C3F_3 C 1.7529(4) 0.6190(2) -0.23578(17)
H1F H 0.7581 0.6497 -0.2362
H1F_2 H 0.7581 0.6497 0.7638
H1G H 1.2419 0.8503 0.2638
H1A H 1.2581 0.8503 -0.2362
H1G_2 H 0.2419 0.8503 0.2638
H1A_2 H 0.2581 0.8503 -0.2362
H1A_3 H 1.2581 0.8503 0.7638
H1A_4 H 0.2581 0.8503 0.7638
H1_2 H 1.7419 0.6497 0.2638
H1F_3 H 1.7581 0.6497 -0.2362
C4F C 0.7448(4) 0.5963(2) -0.19795(18)
C4A C 1.2448(4) 0.9037(2) -0.19795(18)
C4F_2 C 0.7448(4) 0.5963(2) 0.80205(18)
C4G C 1.2552(4) 0.9037(2) 0.30205(18)
C4A_2 C 0.2448(4) 0.9037(2) -0.19795(18)
C4G_2 C 0.2552(4) 0.9037(2) 0.30205(18)
C4F_3 C 1.7448(4) 0.5963(2) -0.19795(18)
C4A_3 C 1.2448(4) 0.9037(2) 0.80205(18)
C4A_4 C 0.2448(4) 0.9037(2) 0.80205(18)
C4_2 C 1.7552(4) 0.5963(2) 0.30205(18)
C5F C 0.7466(4) 0.6242(2) -0.15768(18)
C5A C 1.2466(4) 0.8758(2) -0.15768(18)
C5A_2 C 0.2466(4) 0.8758(2) -0.15768(18)
C5G C 1.2534(4) 0.8758(2) 0.34232(18)
C5G_2 C 0.2534(4) 0.8758(2) 0.34232(18)
C5F_2 C 1.7466(4) 0.6242(2) -0.15768(18)
C5F_3 C 0.7466(4) 0.6242(2) 0.84232(18)
C6F C 0.7310(4) 0.5517(2) -0.19741(18)
C6A C 1.2310(4) 0.9483(2) -0.19741(18)
C6F_2 C 0.7310(4) 0.5517(2) 0.80259(18)
C6G C 1.2690(4) 0.9483(2) 0.30259(18)
C6A_2 C 0.2310(4) 0.9483(2) -0.19741(18)
C6G_2 C 0.2690(4) 0.9483(2) 0.30259(18)
C6F_3 C 1.7310(4) 0.5517(2) -0.19741(18)
H2F H 0.7162 0.5381 -0.1725
H2A H 1.2162 0.9619 -0.1725
H2F_2 H 0.7162 0.5381 0.8275
H2G H 1.2838 0.9619 0.3275
H2A_2 H 0.2162 0.9619 -0.1725
H2G_2 H 0.2838 0.9619 0.3275
H2F_3 H 1.7162 0.5381 -0.1725
C7F C 0.7389(5) 0.5265(2) -0.23386(19)
C7F_2 C 0.7389(5) 0.5265(2) 0.76614(19)
C7G C 1.2611(5) 0.9735(2) 0.26614(19)
C7A C 1.2389(5) 0.9735(2) -0.23386(19)
C7G_2 C 0.2611(5) 0.9735(2) 0.26614(19)
C7A_2 C 0.2389(5) 0.9735(2) -0.23386(19)
C7A_3 C 1.2389(5) 0.9735(2) 0.76614(19)
C7A_4 C 0.2389(5) 0.9735(2) 0.76614(19)
C7_2 C 1.7611(5) 0.5265(2) 0.26614(19)
C7F_3 C 1.7389(5) 0.5265(2) -0.23386(19)
C8F C 0.7196(7) 0.4774(2) -0.2330(2)
C8F_2 C 0.7196(7) 0.4774(2) 0.7670(2)
C8G C 1.2804(7) 1.0226(2) 0.2670(2)
C8A C 1.2196(7) 1.0226(2) -0.2330(2)
C9F C 0.7466(4) 0.5492(2) 0.72855(19)
C9G C 1.2534(4) 0.9508(2) 0.22855(19)
C9F_2 C 0.7466(4) 0.5492(2) -0.27145(19)
C9A C 1.2466(4) 0.9508(2) -0.27145(19)
C9G_2 C 0.2534(4) 0.9508(2) 0.22855(19)
C9A_2 C 1.2466(4) 0.9508(2) 0.72855(19)
C9A_3 C 0.2466(4) 0.9508(2) 0.72855(19)
C9_2 C 1.7534(4) 0.5492(2) 0.22855(19)
H3F H 0.7475 0.5333 0.7036
H3G H 1.2525 0.9667 0.2036
H3F_2 H 0.7475 0.5333 -0.2964
H3A H 1.2475 0.9667 -0.2964
H3G_2 H 0.2525 0.9667 0.2036
H3A_2 H 1.2475 0.9667 0.7036
H3A_3 H 0.2475 0.9667 0.7036
H3_2 H 1.7525 0.5333 0.2036
P1 P 0.74259(7) 0.71125(5) 0.01564(4)
O5 O 0.7425(2) 0.73957(12) 0.05572(12)
O7 O 0.8153(2) 0.68271(12) 0.01535(12)
O9 O 0.7422(2) 0.74090(12) -0.02376(11)
O28 O 0.6706(2) 0.68119(12) 0.01559(11)
loop_
_geom_bond_atom_site_label_1
_geom_bond_atom_site_label_2
_geom_bond_site_symmetry_1
_geom_bond_site_symmetry_2
Mo1 O1 1_555 1_555
Mo2 O3 1_555 1_555
Mo3 O16 1_555 1_555
Mo4 O3 1_555 1_555
Mo5 O6 1_555 1_555
Mo6 O1 1_555 1_555
Mo7 O6 1_555 1_555
Mo8 O12 1_555 1_555
Mo9 O13 1_555 1_555
Mo10 O13 1_555 1_555
Mo11 O2 1_555 1_555
Mo12 O2 1_555 1_555
Zn1 O1 1_555 1_555
Zn2 O2 1_555 1_555
Zn3 O15 1_555 1_555
Zn4 O3 1_555 1_555
P1 O5 1_555 1_555
O4 Zn2 1_555 1_555
O6 Zn2 1_555 1_555
O7 P1 1_555 1_555
O8 Zn4 1_555 1_555
O9 P1 1_555 1_555
O10 Zn4 1_555 1_555
O11 Mo7 1_555 1_555
O12 Zn2 1_555 1_555
O13 Zn1 1_555 1_555
O14 Zn1 1_555 1_555
O15 Mo2G 1_555 1_555
O16 Mo1 1_555 1_555
O17 Mo1 1_555 1_555
O18 Mo4 1_555 1_555
O19 Zn1 1_555 1_555
O20 Mo3 1_555 1_555
O21 Mo8 1_555 1_555
O22 Mo3 1_555 1_555
O23 Zn3 1_555 1_555
O24 Mo12 1_555 1_555
O25 Mo6 1_555 1_555
O26 Mo1 1_555 1_555
O27 Mo7 1_555 1_555
O28 P1 1_555 1_555
O29 Mo9 1_555 1_555
O30 Mo10 1_555 1_555
O31 Mo3 1_555 1_555
O32 Mo1 1_555 1_555
O33 Mo2 1_555 1_555
O34 Mo5 1_555 1_555
O35 Mo6 1_555 1_555
O36 Mo8 1_555 1_555
O37 Mo4 1_555 1_555
O38 Mo6 1_555 1_555
O39 Mo7 1_555 1_555
O40 Mo11 1_555 1_555
O41 Mo2 1_555 1_555
O42 C5 1_555 1_555
O43 Mo5 1_555 1_555
O44 C1 1_555 1_555
O45 C8 1_555 1_555
O46 C8 1_555 1_555
C1 O8 1_555 1_555
C2 C1 1_555 1_555
C3 C2 1_555 1_555
H1 C3 1_555 1_555
C4 C3 1_555 1_555
C5 O4 1_555 1_555
C6 C4 1_555 1_555
H2 C6 1_555 1_555
C7 C6 1_555 1_555
C8 C7 1_555 1_555
C9 C2 1_555 1_555
H3 C9 1_555 1_555
Mo1F O1F 1_555 1_555
Mo1G O1G 1_555 1_555
Mo1A O1A 1_555 1_555
Mo1G_2 O1G_2 1_555 1_555
Mo1_2 O1_2 1_555 1_555
Mo1F_2 O1F_2 1_555 1_555
Mo1A_2 O1A_2 1_555 1_555
Mo1_3 O1_3 1_555 1_555
Mo2G O14 1_555 1_555
Mo2F O3F 1_555 1_555
Mo2A O3A 1_555 1_555
Mo2_2 O3_2 1_555 1_555
Mo2G_2 O3G_2 1_555 1_555
Mo2A_2 O3A_2 1_555 1_555
Mo2F_2 O3F_2 1_555 1_555
Mo3G O16G 1_555 1_555
Mo3G_2 O16G_2 1_555 1_555
Mo3A O16A 1_555 1_555
Mo3F O16F 1_555 1_555
Mo3A_2 O16A_2 1_555 1_555
Mo3_2 O16_2 1_555 1_555
Mo3_3 O16_3 1_555 1_555
Mo3F_2 O16F_2 1_555 1_555
Mo4G O14 1_555 1_555
Mo4F O3F 1_555 1_555
Mo4A O3A 1_555 1_555
Mo4G_2 O3G_2 1_555 1_555
Mo4A_2 O3A_2 1_555 1_555
Mo4_2 O3_2 1_555 1_555
Mo4F_2 O3F_2 1_555 1_555
Mo5A O15 1_555 1_555
Mo5F O6F 1_555 1_555
Mo5G O6G 1_555 1_555
Mo5F_2 O6F_2 1_555 1_555
Mo5A_2 O6A_2 1_555 1_555
Mo5G_2 O6G_2 1_555 1_555
Mo5_2 O6_2 1_555 1_555
Mo6F O12 1_555 1_555
Mo6G O1G 1_555 1_555
Mo6A O1A 1_555 1_555
Mo6G_2 O1G_2 1_555 1_555
Mo6_2 O1_2 1_555 1_555
Mo6F_2 O1F_2 1_555 1_555
Mo6A_2 O1A_2 1_555 1_555
Mo6_3 O1_3 1_555 1_555
Mo7A O19 1_555 1_555
Mo7F O6F 1_555 1_555
Mo7G O6G 1_555 1_555
Mo7A_2 O6A_2 1_555 1_555
Mo7G_2 O6G_2 1_555 1_555
Mo7F_2 O6F_2 1_555 1_555
Mo7_2 O6_2 1_555 1_555
Mo8F O25 1_555 1_555
Mo8A O12A 1_555 1_555
Mo8A_2 O12A_2 1_555 1_555
Mo8G O12G 1_555 1_555
Mo8G_2 O12G_2 1_555 1_555
Mo8F_2 O12F_2 1_555 1_555
Mo8F_3 O12F_3 1_555 1_555
Mo8_2 O12_2 1_555 1_555
Mo9G O23 1_555 1_555
Mo9A O13A 1_555 1_555
Mo9_2 O13_2 1_555 1_555
Mo9F O13F_2 1_555 1_555
Mo9F_2 O13F 1_555 1_555
Mo9G_2 O13G_2 1_555 1_555
Mo10G O23 1_555 1_555
Mo10A O36 1_555 1_555
Mo10_2 O13_2 1_555 1_555
Mo10F O13F_2 1_555 1_555
Mo10F_2 O13F 1_555 1_555
Mo10G_2 O13G_2 1_555 1_555
Mo11F O10 1_555 1_555
Mo11A O2A 1_555 1_555
Mo11A_2 O2A_2 1_555 1_555
Mo11G O2G 1_555 1_555
Mo11G_2 O2G_2 1_555 1_555
Mo11F_2 O2F_2 1_555 1_555
Mo11F_3 O2F_3 1_555 1_555
Mo11_2 O2_2 1_555 1_555
Mo12F O10 1_555 1_555
Mo12A O2A 1_555 1_555
Mo12G O2G_2 1_555 1_555
Mo12F_2 O2F_2 1_555 1_555
Mo12A_2 O2A_2 1_555 1_555
Mo12G_2 O2G 1_555 1_555
Mo12_2 O33F_2 1_555 1_555
Zn1G O1G 1_555 1_555
Zn1A O1A 1_555 1_555
Zn1F O1F 1_555 1_555
Zn1_2 O1_2 1_555 1_555
Zn1F_2 O1F_2 1_555 1_555
Zn1G_2 O1G_2 1_555 1_555
Zn1A_2 O1A_2 1_555 1_555
Zn1_3 O1_3 1_555 1_555
Zn2F O2F 1_555 1_555
Zn2A O2A 1_555 1_555
Zn2A_2 O2A_2 1_555 1_555
Zn2G O2G 1_555 1_555
Zn2G_2 O2G_2 1_555 1_555
Zn2F_2 O2F_2 1_555 1_555
Zn2F_3 O2F_3 1_555 1_555
Zn2_2 O2_2 1_555 1_555
Zn2F_4 O2F_4 1_555 1_555
Zn2_3 O6_2 1_555 1_555
Zn3G O15G 1_555 1_555
Zn3A O15A 1_555 1_555
Zn3F O15F 1_555 1_555
Zn3G_2 O15G_2 1_555 1_555
Zn3A_2 O15A_2 1_555 1_555
Zn3_2 O15_2 1_555 1_555
Zn3F_2 O15F_2 1_555 1_555
Zn3_3 O15_3 1_555 1_555
Zn4F O3F 1_555 1_555
Zn4G O3G 1_555 1_555
Zn4G_2 O3G_2 1_555 1_555
Zn4A O3A_2 1_555 1_555
Zn4A_2 O3A 1_555 1_555
Zn4_2 O3_2 1_555 1_555
Zn4_3 O3_3 1_555 1_555
Zn4F_2 O3F_3 1_555 1_555
Zn4F_3 O3F_4 1_555 1_555
Zn4F_4 O3F_2 1_555 1_555
Zn4A_3 O8A_3 1_555 1_555
O1F Mo6F 1_555 1_555
O2F Mo11F 1_555 1_555
O3G Mo2G 1_555 1_555
O4F Zn2F 1_555 1_555
O4A Zn2A 1_555 1_555
O4A_2 Zn2A_2 1_555 1_555
O4G Zn2G 1_555 1_555
O4G_2 Zn2G_2 1_555 1_555
O4F_2 Zn2F_2 1_555 1_555
O4F_3 Zn2F_4 1_555 1_555
O4F_4 Zn2F_3 1_555 1_555
O4_2 Zn2_2 1_555 1_555
O6A Mo5A 1_555 1_555
O6F Zn2F 1_555 1_555
O6G Zn2G_2 1_555 1_555
O6F_2 Zn2F_2 1_555 1_555
O6A_2 Zn2A_2 1_555 1_555
O6G_2 Zn2G 1_555 1_555
O6F_3 Zn2F_3 1_555 1_555
O6_3 Zn2_2 1_555 1_555
O6F_4 Zn2F_4 1_555 1_555
O8F Zn4F 1_555 1_555
O8G Zn4G 1_555 1_555
O8G_2 Zn4G_2 1_555 1_555
O8A Zn4A 1_555 1_555
O8A_2 Zn4A_2 1_555 1_555
O8_2 Zn4_2 1_555 1_555
O8F_2 Zn4F_3 1_555 1_555
O8A_3 C1A_3 1_555 1_555
O8_3 Zn4_3 1_555 1_555
O8F_3 Zn4F_2 1_555 1_555
O10F Mo11 1_555 1_555
O10G Mo11A 1_555 1_555
O10G_2 Mo11A_2 1_555 1_555
O10A Mo11G 1_555 1_555
O10A_2 Mo11G_2 1_555 1_555
O10_2 Mo11F_2 1_555 1_555
O10_3 Mo11F_3 1_555 1_555
O10F_2 Mo11_2 1_555 1_555
O10F_3 Zn4F_3 1_555 1_555
O11A Mo7A 1_555 1_555
O11F Mo7F 1_555 1_555
O11G Mo7G 1_555 1_555
O11A_2 Mo7A_2 1_555 1_555
O11G_2 Mo7G_2 1_555 1_555
O11F_2 Mo7F_2 1_555 1_555
O12F Mo6 1_555 1_555
O12A Mo6G_2 1_555 1_555
O12A_2 Mo6G 1_555 1_555
O12G Mo6A 1_555 1_555
O12G_2 Mo6A_2 1_555 1_555
O12F_2 Mo6_3 1_555 1_555
O12F_3 Mo6_2 1_555 1_555
O12_2 Mo6F_2 1_555 1_555
O12F_4 Zn2F_4 1_555 1_555
O13G Mo9G 1_555 1_555
O13A Mo10A 1_555 1_555
O13F Zn1F 1_555 1_555
O13_2 Zn1_2 1_555 1_555
O13F_2 Zn1F_2 1_555 1_555
O13G_2 Zn1G_2 1_555 1_555
O13A_2 Zn1A_2 1_555 1_555
O13_3 Zn1_3 1_555 1_555
O14G Mo2 1_555 1_555
O14A Mo2F 1_555 1_555
O14F Mo2A 1_555 1_555
O14G_2 Mo2_2 1_555 1_555
O14_2 Mo2G_2 1_555 1_555
O14F_2 Mo2A_2 1_555 1_555
O14A_2 Mo2F_2 1_555 1_555
O14_3 Zn1_3 1_555 1_555
O15G Mo2 1_555 1_555
O15A Mo5 1_555 1_555
O15F Mo2A 1_555 1_555
O15G_2 Mo2_2 1_555 1_555
O15A_2 Mo2F_2 1_555 1_555
O15_2 Mo2G_2 1_555 1_555
O15F_2 Mo2A_2 1_555 1_555
O16G Mo1G_2 1_555 1_555
O16F Mo1F 1_555 1_555
O16G_2 Mo1G 1_555 1_555
O16A Mo1A 1_555 1_555
O16A_2 Mo1A_2 1_555 1_555
O16_2 Mo1_3 1_555 1_555
O16_3 Mo1_2 1_555 1_555
O16F_2 Mo1F_2 1_555 1_555
O16F_3 Zn4F_3 1_555 1_555
O17G Mo1G 1_555 1_555
O17A Mo1A 1_555 1_555
O17F Mo1F 1_555 1_555
O17G_2 Mo1G_2 1_555 1_555
O17A_2 Mo1A_2 1_555 1_555
O17_2 Mo1_2 1_555 1_555
O17F_2 Mo1F_2 1_555 1_555
O17_3 Mo1_3 1_555 1_555
O18G Mo4G 1_555 1_555
O18F Mo4F 1_555 1_555
O18A Mo4A 1_555 1_555
O18G_2 Mo4G_2 1_555 1_555
O18A_2 Mo4A_2 1_555 1_555
O18_2 Mo4_2 1_555 1_555
O19A Mo5 1_555 1_555
O19G Mo5F 1_555 1_555
O19F Mo5G 1_555 1_555
O19G_2 Mo5F_2 1_555 1_555
O19_2 Mo5A_2 1_555 1_555
O19F_2 Mo5G_2 1_555 1_555
O19A_2 Mo5_2 1_555 1_555
O19_3 Zn1_3 1_555 1_555
O20G Mo3G 1_555 1_555
O20G_2 Mo3G_2 1_555 1_555
O20A Mo3A 1_555 1_555
O20F Mo3F 1_555 1_555
O20A_2 Mo3A_2 1_555 1_555
O20_2 Mo3_2 1_555 1_555
O20_3 Mo3_3 1_555 1_555
O20F_2 Mo3F_2 1_555 1_555
O21F Mo8F 1_555 1_555
O21A Mo8A 1_555 1_555
O21A_2 Mo8A_2 1_555 1_555
O21G Mo8G 1_555 1_555
O21G_2 Mo8G_2 1_555 1_555
O21F_2 Mo8F_2 1_555 1_555
O21F_3 Mo8F_3 1_555 1_555
O21_2 Mo8_2 1_555 1_555
O22G Mo3G 1_555 1_555
O22G_2 Mo3G_2 1_555 1_555
O22F Mo3F 1_555 1_555
O22A Mo3A 1_555 1_555
O22A_2 Mo3A_2 1_555 1_555
O22_2 Mo3_2 1_555 1_555
O22_3 Mo3_3 1_555 1_555
O22F_2 Mo3F_2 1_555 1_555
O23G Mo9 1_555 1_555
O23F Mo9A 1_555 1_555
O23G_2 Mo9_2 1_555 1_555
O23A Mo9F 1_555 1_555
O23A_2 Mo9F_2 1_555 1_555
O23_2 Mo9G_2 1_555 1_555
O23_3 Zn3_2 1_555 1_555
O23F_2 Zn3F_2 1_555 1_555
O24F Mo12F 1_555 1_555
O24A Mo12A 1_555 1_555
O24G Mo12G 1_555 1_555
O24F_2 Mo12F_2 1_555 1_555
O24A_2 Mo12A_2 1_555 1_555
O24G_2 Mo12G_2 1_555 1_555
O25F Mo8 1_555 1_555
O25G Mo6G 1_555 1_555
O25A Mo6A 1_555 1_555
O25G_2 Mo6G_2 1_555 1_555
O25A_2 Mo6A_2 1_555 1_555
O25_2 Mo6_2 1_555 1_555
O25F_2 Mo6F_2 1_555 1_555
O25_3 Mo6_3 1_555 1_555
O26F Mo11 1_555 1_555
O26G Mo1G 1_555 1_555
O26A Mo1A 1_555 1_555
O26G_2 Mo1G_2 1_555 1_555
O26_2 Mo1_2 1_555 1_555
O26F_2 Mo1F_2 1_555 1_555
O26A_2 Mo1A_2 1_555 1_555
O26_3 Mo1_3 1_555 1_555
O27A Mo7A 1_555 1_555
O27F Mo7F 1_555 1_555
O27A_2 Mo7A_2 1_555 1_555
O27G Mo7G_2 1_555 1_555
O27G_2 Mo7G 1_555 1_555
O27F_2 Mo7F_2 1_555 1_555
O27F_3 Mo8F_3 1_555 1_555
O27_2 Mo8_2 1_555 1_555
O29G Mo9G 1_555 1_555
O29A Mo9A 1_555 1_555
O29_2 Mo9_2 1_555 1_555
O29F Mo9F 1_555 1_555
O29F_2 Mo9F_2 1_555 1_555
O29G_2 Mo9G_2 1_555 1_555
O30G Mo10G 1_555 1_555
O30A Mo10A 1_555 1_555
O30_2 Mo10_2 1_555 1_555
O30F Mo10F 1_555 1_555
O30F_2 Mo10F_2 1_555 1_555
O30G_2 Mo10G_2 1_555 1_555
O31G Mo9 1_555 1_555
O31F Mo3F 1_555 1_555
O31G_2 Mo3G_2 1_555 1_555
O31A Mo3A 1_555 1_555
O31A_2 Mo3A_2 1_555 1_555
O31_2 Mo3_2 1_555 1_555
O31_3 Mo3_3 1_555 1_555
O31F_2 Mo3F_2 1_555 1_555
O32F Mo1F 1_555 1_555
O32G Mo1G 1_555 1_555
O32A Mo1A 1_555 1_555
O32G_2 Mo1G_2 1_555 1_555
O32_2 Mo1_2 1_555 1_555
O32F_2 Mo1F_2 1_555 1_555
O32A_2 Mo1A_2 1_555 1_555
O32_3 Mo1_3 1_555 1_555
O33F Mo12 1_555 1_555
O33G Mo2G 1_555 1_555
O33A Mo2A 1_555 1_555
O33_2 Mo2_2 1_555 1_555
O33G_2 Mo2G_2 1_555 1_555
O33A_2 Mo2A_2 1_555 1_555
O33F_2 Mo2F_2 1_555 1_555
O34F Mo5F 1_555 1_555
O34A Mo5A 1_555 1_555
O34G Mo5G 1_555 1_555
O34F_2 Mo5F_2 1_555 1_555
O34A_2 Mo5A_2 1_555 1_555
O34G_2 Mo5G_2 1_555 1_555
O34_2 Mo5_2 1_555 1_555
O35F Mo11 1_555 1_555
O35G Mo6G 1_555 1_555
O35A Mo6A 1_555 1_555
O35G_2 Mo6G_2 1_555 1_555
O35_2 Mo6_2 1_555 1_555
O35F_2 Mo6F_2 1_555 1_555
O35A_2 Mo6A_2 1_555 1_555
O35_3 Mo6_3 1_555 1_555
O36A Mo10 1_555 1_555
O36F Mo8F 1_555 1_555
O36A_2 Mo8A_2 1_555 1_555
O36G Mo8G 1_555 1_555
O36G_2 Mo8G_2 1_555 1_555
O36F_2 Mo8F_2 1_555 1_555
O36F_3 Mo8F_3 1_555 1_555
O36_2 Mo8_2 1_555 1_555
O37G Mo9 1_555 1_555
O37F Mo4F 1_555 1_555
O37G_2 Mo4G_2 1_555 1_555
O37A Mo4A_2 1_555 1_555
O37A_2 Mo4A 1_555 1_555
O37_2 Mo4_2 1_555 1_555
O38F Mo6F 1_555 1_555
O38G Mo6G 1_555 1_555
O38A Mo6A 1_555 1_555
O38G_2 Mo6G_2 1_555 1_555
O38_2 Mo6_2 1_555 1_555
O38F_2 Mo6F_2 1_555 1_555
O38A_2 Mo6A_2 1_555 1_555
O38_3 Mo6_3 1_555 1_555
O39A Mo10 1_555 1_555
O39F Mo7F 1_555 1_555
O39A_2 Mo7A_2 1_555 1_555
O39G Mo7G_2 1_555 1_555
O39G_2 Mo7G 1_555 1_555
O39F_2 Mo7F_2 1_555 1_555
O40F Mo11F 1_555 1_555
O40A Mo11A 1_555 1_555
O40A_2 Mo11A_2 1_555 1_555
O40G Mo11G 1_555 1_555
O40G_2 Mo11G_2 1_555 1_555
O40F_2 Mo11F_2 1_555 1_555
O40F_3 Mo11F_3 1_555 1_555
O40_2 Mo11_2 1_555 1_555
O41G Mo2G 1_555 1_555
O41F Mo2F 1_555 1_555
O41A Mo2A 1_555 1_555
O41_2 Mo2_2 1_555 1_555
O41G_2 Mo2G_2 1_555 1_555
O41A_2 Mo2A_2 1_555 1_555
O41F_2 Mo2F_2 1_555 1_555
O42F C5F 1_555 1_555
O42A C5A 1_555 1_555
O42A_2 C5A_2 1_555 1_555
O42G C5G 1_555 1_555
O42G_2 C5G_2 1_555 1_555
O42F_2 C5F_2 1_555 1_555
O42F_3 C5F_3 1_555 1_555
O43A Mo5A 1_555 1_555
O43F Mo5F 1_555 1_555
O43G Mo5G 1_555 1_555
O43F_2 Mo5F_2 1_555 1_555
O43A_2 Mo5A_2 1_555 1_555
O43G_2 Mo5G_2 1_555 1_555
O43_2 Mo5_2 1_555 1_555
O44F C1F 1_555 1_555
O44G C1G 1_555 1_555
O44G_2 C1G_2 1_555 1_555
O44A C1A 1_555 1_555
O44F_2 C1F_2 1_555 1_555
O44A_2 C1A_2 1_555 1_555
O44_2 C1_2 1_555 1_555
O44A_3 C1A_3 1_555 1_555
O45F C8F 1_555 1_555
O45F_2 C8F_2 1_555 1_555
O45G C8G 1_555 1_555
O45A C8A 1_555 1_555
O46F C8F 1_555 1_555
O46F_2 C8F_2 1_555 1_555
O46G C8G 1_555 1_555
O46A C8A 1_555 1_555
C1F O8F 1_555 1_555
C1G O8G 1_555 1_555
C1G_2 O8G_2 1_555 1_555
C1A O8A 1_555 1_555
C1F_2 O8F_2 1_555 1_555
C1A_2 O8A_2 1_555 1_555
C1_2 O8_2 1_555 1_555
C1A_3 C2A 1_555 1_555
C2F C1F 1_555 1_555
C2G C1G 1_555 1_555
C2F_2 C1F_2 1_555 1_555
C2A C3A 1_555 1_555
C2G_2 C1G_2 1_555 1_555
C2A_2 C1A 1_555 1_555
C2A_3 C1A_2 1_555 1_555
C2_2 C1_2 1_555 1_555
C2A_4 C3A_2 1_555 1_555
C2F_3 C3F_3 1_555 1_555
C3F C2F_2 1_555 1_555
C3F_2 C2F 1_555 1_555
C3G C2G 1_555 1_555
C3A H1A 1_555 1_555
C3G_2 C2G_2 1_555 1_555
C3A_2 H1A_2 1_555 1_555
C3A_3 C2A_2 1_555 1_555
C3A_4 C2A_3 1_555 1_555
C3_2 C2_2 1_555 1_555
C3F_3 H1F_3 1_555 1_555
H1F C3F 1_555 1_555
H1F_2 C3F_2 1_555 1_555
H1G C3G 1_555 1_555
H1G_2 C3G_2 1_555 1_555
H1A_3 C3A_3 1_555 1_555
H1A_4 C3A_4 1_555 1_555
H1_2 C3_2 1_555 1_555
C4F C3F 1_555 1_555
C4A C3A 1_555 1_555
C4F_2 C3F_2 1_555 1_555
C4G C3G 1_555 1_555
C4A_2 C3A_2 1_555 1_555
C4G_2 C3G_2 1_555 1_555
C4F_3 C3F_3 1_555 1_555
C4A_3 C3A_3 1_555 1_555
C4A_4 C3A_4 1_555 1_555
C4_2 C3_2 1_555 1_555
C5F O4F 1_555 1_555
C5A O4A 1_555 1_555
C5A_2 O4A_2 1_555 1_555
C5G O4G 1_555 1_555
C5G_2 O4G_2 1_555 1_555
C5F_2 O4F_2 1_555 1_555
C5F_3 O4F_3 1_555 1_555
C6F C4F 1_555 1_555
C6A C4A 1_555 1_555
C6F_2 C4F_2 1_555 1_555
C6G C4G 1_555 1_555
C6A_2 C4A_2 1_555 1_555
C6G_2 C4G_2 1_555 1_555
C6F_3 C4F_3 1_555 1_555
H2F C6F 1_555 1_555
H2A C6A 1_555 1_555
H2F_2 C6F_2 1_555 1_555
H2G C6G 1_555 1_555
H2A_2 C6A_2 1_555 1_555
H2G_2 C6G_2 1_555 1_555
H2F_3 C6F_3 1_555 1_555
C7F C6F 1_555 1_555
C7F_2 C6F_2 1_555 1_555
C7G C6G 1_555 1_555
C7A C6A 1_555 1_555
C7G_2 C6G_2 1_555 1_555
C7A_2 C6A_2 1_555 1_555
C7A_3 C9A_2 1_555 1_555
C7A_4 C9A_3 1_555 1_555
C7_2 C9_2 1_555 1_555
C7F_3 C6F_3 1_555 1_555
C8F C7F 1_555 1_555
C8F_2 C7F_2 1_555 1_555
C8G C7G 1_555 1_555
C8A C7A 1_555 1_555
C9F C2F 1_555 1_555
C9G C2G 1_555 1_555
C9F_2 C2F_2 1_555 1_555
C9A C2A 1_555 1_555
C9G_2 C2G_2 1_555 1_555
C9A_2 C2A_2 1_555 1_555
C9A_3 C2A_3 1_555 1_555
C9_2 C2_2 1_555 1_555
H3F C9F 1_555 1_555
H3G C9G 1_555 1_555
H3F_2 C9F_2 1_555 1_555
H3A C9A 1_555 1_555
H3G_2 C9G_2 1_555 1_555
H3A_2 C9A_2 1_555 1_555
H3A_3 C9A_3 1_555 1_555
H3_2 C9_2 1_555 1_555
Mo3 O17 1_555 1_555
Mo4 O22 1_555 1_555
Mo4 O14G 1_555 1_555
Mo7 O19A 1_555 1_555
Mo8 O27 1_555 1_555
Mo10 O23G 1_555 1_555
Mo12 O34 1_555 1_555
Mo12 O10F 1_555 1_555
Zn3 O17 1_555 1_555
Zn3 O25 1_555 1_555
Zn4 O16 1_555 1_555
O19 Mo5A 1_555 1_555
O26 Mo11F 1_555 1_555
O31 Mo9G 1_555 1_555
O33 Mo12F 1_555 1_555
O35 Mo11F 1_555 1_555
O37 Mo9G 1_555 1_555
O39 Mo10A 1_555 1_555
C4 C5 1_555 1_555
C7 C9 1_555 1_555
Mo1F O26F 1_555 1_555
Mo2F O15A 1_555 1_555
Mo2F O33F 1_555 1_555
Mo3G O17G_2 1_555 1_555
Mo3G O31G 1_555 1_555
Mo3G_2 O17G 1_555 1_555
Mo3A O17A 1_555 1_555
Mo3F O17F 1_555 1_555
Mo3A_2 O17A_2 1_555 1_555
Mo3_2 O17_3 1_555 1_555
Mo3_3 O17_2 1_555 1_555
Mo3F_2 O17F_2 1_555 1_555
Mo4G O3G 1_555 1_555
Mo4G O22G 1_555 1_555
Mo4G O37G 1_555 1_555
Mo4F O14A 1_555 1_555
Mo4F O22F 1_555 1_555
Mo4A O14F 1_555 1_555
Mo4A O22A_2 1_555 1_555
Mo4G_2 O14_2 1_555 1_555
Mo4G_2 O22G_2 1_555 1_555
Mo4A_2 O14F_2 1_555 1_555
Mo4A_2 O22A 1_555 1_555
Mo4_2 O14G_2 1_555 1_555
Mo4_2 O22_2 1_555 1_555
Mo4F_2 O14A_2 1_555 1_555
Mo5F O15G 1_555 1_555
Mo5G O15F 1_555 1_555
Mo5F_2 O15G_2 1_555 1_555
Mo5A_2 O15_2 1_555 1_555
Mo5G_2 O15F_2 1_555 1_555
Mo5_2 O15A_2 1_555 1_555
Mo6F O25F 1_555 1_555
Mo6F O35F 1_555 1_555
Mo7A O6A 1_555 1_555
Mo7A O39A 1_555 1_555
Mo7F O19G 1_555 1_555
Mo7G O19F 1_555 1_555
Mo7A_2 O19_2 1_555 1_555
Mo7G_2 O19F_2 1_555 1_555
Mo7F_2 O19G_2 1_555 1_555
Mo7_2 O19A_2 1_555 1_555
Mo8F O12F 1_555 1_555
Mo8F O27F 1_555 1_555
Mo8A O25G_2 1_555 1_555
Mo8A O27A 1_555 1_555
Mo8A O36A 1_555 1_555
Mo8A_2 O25G 1_555 1_555
Mo8A_2 O27A_2 1_555 1_555
Mo8G O25A 1_555 1_555
Mo8G O27G 1_555 1_555
Mo8G_2 O25A_2 1_555 1_555
Mo8G_2 O27G_2 1_555 1_555
Mo8F_2 O25_3 1_555 1_555
Mo8F_2 O27F_2 1_555 1_555
Mo8F_3 O25_2 1_555 1_555
Mo8_2 O25F_2 1_555 1_555
Mo9A O31F 1_555 1_555
Mo9A O37F 1_555 1_555
Mo9_2 O31G_2 1_555 1_555
Mo9_2 O37G_2 1_555 1_555
Mo9F O31A 1_555 1_555
Mo9F O37A 1_555 1_555
Mo9F_2 O31A_2 1_555 1_555
Mo9F_2 O37A_2 1_555 1_555
Mo9G_2 O31_2 1_555 1_555
Mo9G_2 O37_2 1_555 1_555
Mo10G O13G 1_555 1_555
Mo10G O36F 1_555 1_555
Mo10G O39F 1_555 1_555
Mo10A O23F 1_555 1_555
Mo10_2 O23G_2 1_555 1_555
Mo10_2 O36A_2 1_555 1_555
Mo10_2 O39A_2 1_555 1_555
Mo10F O23A 1_555 1_555
Mo10F O36G 1_555 1_555
Mo10F O39G 1_555 1_555
Mo10F_2 O23A_2 1_555 1_555
Mo10F_2 O36G_2 1_555 1_555
Mo10F_2 O39G_2 1_555 1_555
Mo10G_2 O23_2 1_555 1_555
Mo10G_2 O36F_2 1_555 1_555
Mo10G_2 O39F_2 1_555 1_555
Mo11A O26G_2 1_555 1_555
Mo11A O35G_2 1_555 1_555
Mo11A_2 O26G 1_555 1_555
Mo11A_2 O35G 1_555 1_555
Mo11G O26A 1_555 1_555
Mo11G O35A 1_555 1_555
Mo11G_2 O26A_2 1_555 1_555
Mo11G_2 O35A_2 1_555 1_555
Mo11F_2 O26_3 1_555 1_555
Mo11F_2 O35_3 1_555 1_555
Mo11F_3 O26_2 1_555 1_555
Mo11F_3 O35_2 1_555 1_555
Mo11_2 O26F_2 1_555 1_555
Mo11_2 O35F_2 1_555 1_555
Mo12F O2F 1_555 1_555
Mo12F O34F 1_555 1_555
Mo12A O10G 1_555 1_555
Mo12A O33G 1_555 1_555
Mo12A O34A 1_555 1_555
Mo12G O10A_2 1_555 1_555
Mo12G O33A 1_555 1_555
Mo12G O34G 1_555 1_555
Mo12F_2 O10_2 1_555 1_555
Mo12F_2 O33_2 1_555 1_555
Mo12F_2 O34F_2 1_555 1_555
Mo12A_2 O10G_2 1_555 1_555
Mo12A_2 O33G_2 1_555 1_555
Mo12A_2 O34A_2 1_555 1_555
Mo12G_2 O10A 1_555 1_555
Mo12G_2 O33A_2 1_555 1_555
Mo12G_2 O34G_2 1_555 1_555
Mo12_2 O34_2 1_555 1_555
Zn1G O13G 1_555 1_555
Zn1G O14G 1_555 1_555
Zn1G O19G 1_555 1_555
Zn1A O13A 1_555 1_555
Zn1A O14A 1_555 1_555
Zn1A O19A 1_555 1_555
Zn1F O14F 1_555 1_555
Zn1F O19F 1_555 1_555
Zn1_2 O14_2 1_555 1_555
Zn1_2 O19_2 1_555 1_555
Zn1F_2 O14F_2 1_555 1_555
Zn1F_2 O19F_2 1_555 1_555
Zn1G_2 O14G_2 1_555 1_555
Zn1G_2 O19G_2 1_555 1_555
Zn1A_2 O14A_2 1_555 1_555
Zn1A_2 O19A_2 1_555 1_555
Zn2F O12F 1_555 1_555
Zn2A O6A 1_555 1_555
Zn2A O12A 1_555 1_555
Zn2A_2 O12A_2 1_555 1_555
Zn2G O12G 1_555 1_555
Zn2G_2 O12G_2 1_555 1_555
Zn2F_2 O12F_2 1_555 1_555
Zn2F_3 O12F_3 1_555 1_555
Zn2_2 O12_2 1_555 1_555
Zn3G O17G 1_555 1_555
Zn3G O23G_2 1_555 1_555
Zn3G O25G 1_555 1_555
Zn3A O17A 1_555 1_555
Zn3A O23A 1_555 1_555
Zn3A O25A 1_555 1_555
Zn3F O17F 1_555 1_555
Zn3F O23F 1_555 1_555
Zn3F O25F 1_555 1_555
Zn3G_2 O17G_2 1_555 1_555
Zn3G_2 O23G 1_555 1_555
Zn3G_2 O25G_2 1_555 1_555
Zn3A_2 O17A_2 1_555 1_555
Zn3A_2 O23A_2 1_555 1_555
Zn3A_2 O25A_2 1_555 1_555
Zn3_2 O17_2 1_555 1_555
Zn3_2 O25_2 1_555 1_555
Zn3F_2 O17F_2 1_555 1_555
Zn3F_2 O25F_2 1_555 1_555
Zn3_3 O17_3 1_555 1_555
Zn3_3 O23_2 1_555 1_555
Zn3_3 O25_3 1_555 1_555
Zn4F O10F 1_555 1_555
Zn4F O16F 1_555 1_555
Zn4G O10G 1_555 1_555
Zn4G O16G 1_555 1_555
Zn4G_2 O10G_2 1_555 1_555
Zn4G_2 O16G_2 1_555 1_555
Zn4A O10A 1_555 1_555
Zn4A O16A 1_555 1_555
Zn4A_2 O10A_2 1_555 1_555
Zn4A_2 O16A_2 1_555 1_555
Zn4_2 O10_2 1_555 1_555
Zn4_2 O16_2 1_555 1_555
Zn4_3 O10_3 1_555 1_555
Zn4_3 O16_3 1_555 1_555
Zn4F_2 O10F_2 1_555 1_555
Zn4F_2 O16F_2 1_555 1_555
C4F C5F 1_555 1_555
C4A C5A 1_555 1_555
C4F_2 C5F_3 1_555 1_555
C4G C5G 1_555 1_555
C4A_2 C5A_2 1_555 1_555
C4G_2 C5G_2 1_555 1_555
C4F_3 C5F_2 1_555 1_555
C7F C9F_2 1_555 1_555
C7F_2 C9F 1_555 1_555
C7G C9G 1_555 1_555
C7A C9A 1_555 1_555
C7G_2 C9G_2 1_555 1_555

#END
