
#######################################################################
#
#                 Cambridge Crystallographic Data Centre
#                                CCDC 
#
#######################################################################
#
# If this CIF has been generated from an entry in the Cambridge 
# Structural Database, then it will include bibliographic, chemical, 
# crystal, experimental, refinement or atomic coordinate data resulting 
# from the CCDC's data processing and validation procedures.
#
#######################################################################

data_VEJHID
_symmetry_cell_setting           cubic
_symmetry_space_group_name_H-M   'P m -3 m'
_symmetry_Int_Tables_number      221
_space_group_name_Hall           '-P 4 2 3'
loop_
_symmetry_equiv_pos_site_id
_symmetry_equiv_pos_as_xyz
1 x,y,z
2 -y,x,z
3 -x,-y,z
4 y,-x,z
5 x,-z,y
6 x,-y,-z
7 x,z,-y
8 z,y,-x
9 -x,y,-z
10 -z,y,x
11 z,x,y
12 y,z,x
13 -y,-z,x
14 z,-x,-y
15 -y,z,-x
16 -z,-x,y
17 -z,x,-y
18 y,-z,-x
19 y,x,-z
20 -y,-x,-z
21 -x,z,y
22 -x,-z,-y
23 z,-y,x
24 -z,-y,-x
25 -x,-y,-z
26 y,-x,-z
27 x,y,-z
28 -y,x,-z
29 -x,z,-y
30 -x,y,z
31 -x,-z,y
32 -z,-y,x
33 x,-y,z
34 z,-y,-x
35 -z,-x,-y
36 -y,-z,-x
37 y,z,-x
38 -z,x,y
39 y,-z,x
40 z,x,-y
41 z,-x,y
42 -y,z,x
43 -y,-x,z
44 y,x,z
45 x,-z,-y
46 x,z,y
47 -z,y,-x
48 z,y,x
_cell_length_a                   22.521(15)
_cell_length_b                   22.521(15)
_cell_length_c                   22.521(15)
_cell_angle_alpha                90
_cell_angle_beta                 90
_cell_angle_gamma                90
_cell_volume                     11422.5
loop_
_atom_site_label
_atom_site_type_symbol
_atom_site_fract_x
_atom_site_fract_y
_atom_site_fract_z
Cd1 Cd 0.28534(10) 0.28534(10) -0.28534(10)
Cd2 Cd 0.0000 0.0000 -0.4620(3)
N1 N 0.0000(9) 0.0957 -0.5000
O1 O 0.2251(5) 0.2251(6) -0.3446(5)
C1 C 0.0509(8) 0.1309(7) -0.5000
C2 C 0.0301(9) 0.1927(4) -0.5000
H1 H 0.0542 0.2262 -0.5000
C3 C 0.2216(5) 0.2216(5) -0.4470(4)
C4 C 0.1091(7) 0.1091(7) -0.5000
C5 C 0.1560(6) 0.1560(6) -0.5000
C6 C 0.2427(5) 0.2427(5) -0.5000
H2 H 0.2719 0.2719 -0.5000
C7 C 0.1777(5) 0.1777(5) -0.4469(4)
H3 H 0.1632 0.1632 -0.4111
O2 O 0.2829(5) 0.2829(7) -0.3924(5)
C8 C 0.2445(6) 0.2445(9) -0.3894(6)
O3 O 0.0000 0.0000 -0.3560(9)
Cd1D Cd 0.28534(10) 0.28534(10) -0.71466(10)
Cd1E Cd 0.28534(10) -0.28534(10) -0.71466(10)
Cd1C Cd 0.28534(10) -0.28534(10) -0.28534(10)
Cd1S Cd -0.28534(10) -0.28534(10) -0.71466(10)
Cd1B Cd -0.28534(10) -0.28534(10) -0.28534(10)
Cd1H Cd -0.28534(10) 0.28534(10) -0.71466(10)
Cd1A Cd -0.28534(10) 0.28534(10) -0.28534(10)
Cd1A_2 Cd 0.71466(10) 0.28534(10) -0.28534(10)
Cd1H_2 Cd 0.71466(10) 0.28534(10) 0.28534(10)
Cd1D_2 Cd 0.28534(10) 0.28534(10) 0.28534(10)
Cd1S_2 Cd 0.71466(10) -0.28534(10) 0.28534(10)
Cd1E_2 Cd 0.28534(10) -0.28534(10) 0.28534(10)
Cd1B_2 Cd 0.71466(10) -0.28534(10) -0.28534(10)
Cd1C_2 Cd 0.28534(10) 0.71466(10) -0.28534(10)
Cd1B_3 Cd -0.28534(10) 0.71466(10) -0.28534(10)
Cd1S_3 Cd -0.28534(10) 0.71466(10) 0.28534(10)
Cd1H_3 Cd -0.28534(10) 0.28534(10) 0.28534(10)
Cd1E_3 Cd 0.28534(10) 0.71466(10) 0.28534(10)
Cd2E Cd 0.0000 0.0000 -0.5380(3)
Cd2I Cd 0.4620(3) 0.0000 0.0000
Cd2D Cd 0.0000 0.4620(3) 0.0000
Cd2G Cd 0.5380(3) 0.0000 0.0000
Cd2F Cd 0.0000 0.5380(3) 0.0000
N1A N -0.0957 0.0000(9) -0.5000
N1B N 0.0000(9) -0.0957 -0.5000
N1C N 0.0957 0.0000(9) -0.5000
N1M N 0.5000 0.0000(9) -0.0957
N1V N 0.5000 -0.0957 0.0000(9)
N1J N 0.5000 0.0000(9) 0.0957
N1G N 0.5000 0.0957 0.0000(9)
N1K N 0.0957 0.5000 0.0000(9)
N1D N 0.0000(9) 0.5000 0.0957
N1L N -0.0957 0.5000 0.0000(9)
N1F N 0.0000(9) 0.5000 -0.0957
O1R O 0.2251(6) 0.2251(5) -0.6554(5)
O1E O 0.2251(5) -0.2251(6) -0.6554(5)
O1C O 0.2251(6) -0.2251(5) -0.3446(5)
O1S O -0.2251(6) -0.2251(5) -0.6554(5)
O1B O -0.2251(5) -0.2251(6) -0.3446(5)
O1H O -0.2251(5) 0.2251(6) -0.6554(5)
O1A O -0.2251(6) 0.2251(5) -0.3446(5)
O1P O 0.3446(5) 0.2251(5) -0.2251(6)
O1G O 0.6554(5) 0.2251(6) -0.2251(5)
O1J O 0.6554(5) 0.2251(5) 0.2251(6)
O1I O 0.3446(5) 0.2251(6) 0.2251(5)
O1V O 0.6554(5) -0.2251(6) 0.2251(5)
O1O O 0.3446(5) -0.2251(5) 0.2251(6)
O1M O 0.6554(5) -0.2251(5) -0.2251(6)
O1W O 0.3446(5) -0.2251(6) -0.2251(5)
O1Q O 0.2251(6) 0.3446(5) -0.2251(5)
O1F O 0.2251(5) 0.6554(5) -0.2251(6)
O1N O -0.2251(6) 0.6554(5) -0.2251(5)
O1U O -0.2251(5) 0.3446(5) -0.2251(6)
O1T O -0.2251(5) 0.6554(5) 0.2251(6)
O1L O -0.2251(6) 0.3446(5) 0.2251(5)
O1K O 0.2251(6) 0.6554(5) 0.2251(5)
O1D O 0.2251(5) 0.3446(5) 0.2251(6)
O1D_2 O 0.2251(5) 0.3446(5) -0.7749(6)
O1I_2 O 0.3446(5) 0.2251(6) -0.7749(5)
O1O_2 O 0.3446(5) -0.2251(5) -0.7749(6)
O1K_2 O 0.2251(6) -0.3446(5) -0.7749(5)
O1F_2 O 0.2251(5) -0.3446(5) -0.2251(6)
O1T_2 O -0.2251(5) -0.3446(5) -0.7749(6)
O1V_2 O -0.3446(5) -0.2251(6) -0.7749(5)
O1M_2 O -0.3446(5) -0.2251(5) -0.2251(6)
O1N_2 O -0.2251(6) -0.3446(5) -0.2251(5)
O1J_2 O -0.3446(5) 0.2251(5) -0.7749(6)
O1L_2 O -0.2251(6) 0.3446(5) -0.7749(5)
O1G_2 O -0.3446(5) 0.2251(6) -0.2251(5)
C1H C -0.0509(8) 0.1309(7) -0.5000
C1A C -0.1309(7) 0.0509(8) -0.5000
C1S C -0.1309(7) -0.0509(8) -0.5000
C1B C -0.0509(8) -0.1309(7) -0.5000
C1E C 0.0509(8) -0.1309(7) -0.5000
C1C C 0.1309(7) -0.0509(8) -0.5000
C1R C 0.1309(7) 0.0509(8) -0.5000
C1P C 0.5000 0.0509(8) -0.1309(7)
C1M C 0.5000 -0.0509(8) -0.1309(7)
C1W C 0.5000 -0.1309(7) -0.0509(8)
C1V C 0.5000 -0.1309(7) 0.0509(8)
C1O C 0.5000 -0.0509(8) 0.1309(7)
C1J C 0.5000 0.0509(8) 0.1309(7)
C1I C 0.5000 0.1309(7) 0.0509(8)
C1G C 0.5000 0.1309(7) -0.0509(8)
C1Q C 0.1309(7) 0.5000 -0.0509(8)
C1K C 0.1309(7) 0.5000 0.0509(8)
C1D C 0.0509(8) 0.5000 0.1309(7)
C1T C -0.0509(8) 0.5000 0.1309(7)
C1L C -0.1309(7) 0.5000 0.0509(8)
C1N C -0.1309(7) 0.5000 -0.0509(8)
C1U C -0.0509(8) 0.5000 -0.1309(7)
C1F C 0.0509(8) 0.5000 -0.1309(7)
C2H C -0.0301(9) 0.1927(4) -0.5000
C2S C -0.1927(4) -0.0301(9) -0.5000
C2A C -0.1927(4) 0.0301(9) -0.5000
C2E C 0.0301(9) -0.1927(4) -0.5000
C2B C -0.0301(9) -0.1927(4) -0.5000
C2R C 0.1927(4) 0.0301(9) -0.5000
C2C C 0.1927(4) -0.0301(9) -0.5000
C2P C 0.5000 0.0301(9) -0.1927(4)
C2M C 0.5000 -0.0301(9) -0.1927(4)
C2V C 0.5000 -0.1927(4) 0.0301(9)
C2W C 0.5000 -0.1927(4) -0.0301(9)
C2J C 0.5000 0.0301(9) 0.1927(4)
C2O C 0.5000 -0.0301(9) 0.1927(4)
C2G C 0.5000 0.1927(4) -0.0301(9)
C2I C 0.5000 0.1927(4) 0.0301(9)
C2Q C 0.1927(4) 0.5000 -0.0301(9)
C2K C 0.1927(4) 0.5000 0.0301(9)
C2T C -0.0301(9) 0.5000 0.1927(4)
C2D C 0.0301(9) 0.5000 0.1927(4)
C2N C -0.1927(4) 0.5000 -0.0301(9)
C2L C -0.1927(4) 0.5000 0.0301(9)
C2F C 0.0301(9) 0.5000 -0.1927(4)
C2U C -0.0301(9) 0.5000 -0.1927(4)
H1S H -0.2262 -0.0542 -0.5000
H1A H -0.2262 0.0542 -0.5000
H1E H 0.0542 -0.2262 -0.5000
H1R H 0.2262 0.0542 -0.5000
H1C H 0.2262 -0.0542 -0.5000
H1B H -0.0542 -0.2262 -0.5000
H1H H -0.0542 0.2262 -0.5000
H1P H 0.5000 0.0542 -0.2262
H1V H 0.5000 -0.2262 0.0542
H1W H 0.5000 -0.2262 -0.0542
H1J H 0.5000 0.0542 0.2262
H1G H 0.5000 0.2262 -0.0542
H1I H 0.5000 0.2262 0.0542
H1O H 0.5000 -0.0542 0.2262
H1M H 0.5000 -0.0542 -0.2262
H1Q H 0.2262 0.5000 -0.0542
H1T H -0.0542 0.5000 0.2262
H1D H 0.0542 0.5000 0.2262
H1N H -0.2262 0.5000 -0.0542
H1F H 0.0542 0.5000 -0.2262
H1U H -0.0542 0.5000 -0.2262
H1L H -0.2262 0.5000 0.0542
H1K H 0.2262 0.5000 0.0542
C3R C 0.2216(5) 0.2216(5) -0.5530(4)
C3C C 0.2216(5) -0.2216(5) -0.4470(4)
C3E C 0.2216(5) -0.2216(5) -0.5530(4)
C3B C -0.2216(5) -0.2216(5) -0.4470(4)
C3S C -0.2216(5) -0.2216(5) -0.5530(4)
C3A C -0.2216(5) 0.2216(5) -0.4470(4)
C3H C -0.2216(5) 0.2216(5) -0.5530(4)
C3P C 0.4470(4) 0.2216(5) -0.2216(5)
C3G C 0.5530(4) 0.2216(5) -0.2216(5)
C3I C 0.4470(4) 0.2216(5) 0.2216(5)
C3J C 0.5530(4) 0.2216(5) 0.2216(5)
C3O C 0.4470(4) -0.2216(5) 0.2216(5)
C3V C 0.5530(4) -0.2216(5) 0.2216(5)
C3W C 0.4470(4) -0.2216(5) -0.2216(5)
C3M C 0.5530(4) -0.2216(5) -0.2216(5)
C3Q C 0.2216(5) 0.4470(4) -0.2216(5)
C3F C 0.2216(5) 0.5530(4) -0.2216(5)
C3U C -0.2216(5) 0.4470(4) -0.2216(5)
C3N C -0.2216(5) 0.5530(4) -0.2216(5)
C3L C -0.2216(5) 0.4470(4) 0.2216(5)
C3T C -0.2216(5) 0.5530(4) 0.2216(5)
C3D C 0.2216(5) 0.4470(4) 0.2216(5)
C3K C 0.2216(5) 0.5530(4) 0.2216(5)
C4A C -0.1091(7) 0.1091(7) -0.5000
C4B C -0.1091(7) -0.1091(7) -0.5000
C4C C 0.1091(7) -0.1091(7) -0.5000
C4G C 0.5000 0.1091(7) -0.1091(7)
C4M C 0.5000 -0.1091(7) -0.1091(7)
C4O C 0.5000 -0.1091(7) 0.1091(7)
C4I C 0.5000 0.1091(7) 0.1091(7)
C4F C 0.1091(7) 0.5000 -0.1091(7)
C4D C 0.1091(7) 0.5000 0.1091(7)
C4L C -0.1091(7) 0.5000 0.1091(7)
C4N C -0.1091(7) 0.5000 -0.1091(7)
C5C C 0.1560(6) -0.1560(6) -0.5000
C5B C -0.1560(6) -0.1560(6) -0.5000
C5A C -0.1560(6) 0.1560(6) -0.5000
C5G C 0.5000 0.1560(6) -0.1560(6)
C5I C 0.5000 0.1560(6) 0.1560(6)
C5O C 0.5000 -0.1560(6) 0.1560(6)
C5M C 0.5000 -0.1560(6) -0.1560(6)
C5F C 0.1560(6) 0.5000 -0.1560(6)
C5N C -0.1560(6) 0.5000 -0.1560(6)
C5L C -0.1560(6) 0.5000 0.1560(6)
C5D C 0.1560(6) 0.5000 0.1560(6)
C6C C 0.2427(5) -0.2427(5) -0.5000
C6B C -0.2427(5) -0.2427(5) -0.5000
C6A C -0.2427(5) 0.2427(5) -0.5000
C6G C 0.5000 0.2427(5) -0.2427(5)
C6I C 0.5000 0.2427(5) 0.2427(5)
C6O C 0.5000 -0.2427(5) 0.2427(5)
C6M C 0.5000 -0.2427(5) -0.2427(5)
C6F C 0.2427(5) 0.5000 -0.2427(5)
C6N C -0.2427(5) 0.5000 -0.2427(5)
C6L C -0.2427(5) 0.5000 0.2427(5)
C6D C 0.2427(5) 0.5000 0.2427(5)
H2C H 0.2719 -0.2719 -0.5000
H2B H -0.2719 -0.2719 -0.5000
H2A H -0.2719 0.2719 -0.5000
H2G H 0.5000 0.2719 -0.2719
H2I H 0.5000 0.2719 0.2719
H2O H 0.5000 -0.2719 0.2719
H2M H 0.5000 -0.2719 -0.2719
H2F H 0.2719 0.5000 -0.2719
H2N H -0.2719 0.5000 -0.2719
H2L H -0.2719 0.5000 0.2719
H2D H 0.2719 0.5000 0.2719
C7R C 0.1777(5) 0.1777(5) -0.5531(4)
C7C C 0.1777(5) -0.1777(5) -0.4469(4)
C7E C 0.1777(5) -0.1777(5) -0.5531(4)
C7B C -0.1777(5) -0.1777(5) -0.4469(4)
C7S C -0.1777(5) -0.1777(5) -0.5531(4)
C7A C -0.1777(5) 0.1777(5) -0.4469(4)
C7H C -0.1777(5) 0.1777(5) -0.5531(4)
C7P C 0.4469(4) 0.1777(5) -0.1777(5)
C7G C 0.5531(4) 0.1777(5) -0.1777(5)
C7I C 0.4469(4) 0.1777(5) 0.1777(5)
C7J C 0.5531(4) 0.1777(5) 0.1777(5)
C7O C 0.4469(4) -0.1777(5) 0.1777(5)
C7V C 0.5531(4) -0.1777(5) 0.1777(5)
C7W C 0.4469(4) -0.1777(5) -0.1777(5)
C7M C 0.5531(4) -0.1777(5) -0.1777(5)
C7Q C 0.1777(5) 0.4469(4) -0.1777(5)
C7F C 0.1777(5) 0.5531(4) -0.1777(5)
C7U C -0.1777(5) 0.4469(4) -0.1777(5)
C7N C -0.1777(5) 0.5531(4) -0.1777(5)
C7L C -0.1777(5) 0.4469(4) 0.1777(5)
C7T C -0.1777(5) 0.5531(4) 0.1777(5)
C7D C 0.1777(5) 0.4469(4) 0.1777(5)
C7K C 0.1777(5) 0.5531(4) 0.1777(5)
H3R H 0.1632 0.1632 -0.5889
H3E H 0.1632 -0.1632 -0.5889
H3C H 0.1632 -0.1632 -0.4111
H3S H -0.1632 -0.1632 -0.5889
H3B H -0.1632 -0.1632 -0.4111
H3H H -0.1632 0.1632 -0.5889
H3A H -0.1632 0.1632 -0.4111
H3P H 0.4111 0.1632 -0.1632
H3G H 0.5889 0.1632 -0.1632
H3J H 0.5889 0.1632 0.1632
H3I H 0.4111 0.1632 0.1632
H3V H 0.5889 -0.1632 0.1632
H3O H 0.4111 -0.1632 0.1632
H3M H 0.5889 -0.1632 -0.1632
H3W H 0.4111 -0.1632 -0.1632
H3Q H 0.1632 0.4111 -0.1632
H3F H 0.1632 0.5889 -0.1632
H3N H -0.1632 0.5889 -0.1632
H3U H -0.1632 0.4111 -0.1632
H3T H -0.1632 0.5889 0.1632
H3L H -0.1632 0.4111 0.1632
H3K H 0.1632 0.5889 0.1632
H3D H 0.1632 0.4111 0.1632
O2R O 0.2829(7) 0.2829(5) -0.6076(5)
O2E O 0.2829(5) -0.2829(7) -0.6076(5)
O2C O 0.2829(7) -0.2829(5) -0.3924(5)
O2S O -0.2829(7) -0.2829(5) -0.6076(5)
O2B O -0.2829(5) -0.2829(7) -0.3924(5)
O2H O -0.2829(5) 0.2829(7) -0.6076(5)
O2A O -0.2829(7) 0.2829(5) -0.3924(5)
O2P O 0.3924(5) 0.2829(5) -0.2829(7)
O2G O 0.6076(5) 0.2829(7) -0.2829(5)
O2J O 0.6076(5) 0.2829(5) 0.2829(7)
O2I O 0.3924(5) 0.2829(7) 0.2829(5)
O2V O 0.6076(5) -0.2829(7) 0.2829(5)
O2O O 0.3924(5) -0.2829(5) 0.2829(7)
O2M O 0.6076(5) -0.2829(5) -0.2829(7)
O2W O 0.3924(5) -0.2829(7) -0.2829(5)
O2Q O 0.2829(7) 0.3924(5) -0.2829(5)
O2F O 0.2829(5) 0.6076(5) -0.2829(7)
O2N O -0.2829(7) 0.6076(5) -0.2829(5)
O2U O -0.2829(5) 0.3924(5) -0.2829(7)
O2T O -0.2829(5) 0.6076(5) 0.2829(7)
O2L O -0.2829(7) 0.3924(5) 0.2829(5)
O2K O 0.2829(7) 0.6076(5) 0.2829(5)
O2D O 0.2829(5) 0.3924(5) 0.2829(7)
O2D_2 O 0.2829(5) 0.3924(5) -0.7171(7)
O2I_2 O 0.3924(5) 0.2829(7) -0.7171(5)
O2O_2 O 0.3924(5) -0.2829(5) -0.7171(7)
O2K_2 O 0.2829(7) -0.3924(5) -0.7171(5)
O2F_2 O 0.2829(5) -0.3924(5) -0.2829(7)
O2T_2 O -0.2829(5) -0.3924(5) -0.7171(7)
O2V_2 O -0.3924(5) -0.2829(7) -0.7171(5)
O2M_2 O -0.3924(5) -0.2829(5) -0.2829(7)
O2N_2 O -0.2829(7) -0.3924(5) -0.2829(5)
O2J_2 O -0.3924(5) 0.2829(5) -0.7171(7)
O2L_2 O -0.2829(7) 0.3924(5) -0.7171(5)
O2G_2 O -0.3924(5) 0.2829(7) -0.2829(5)
C8R C 0.2445(9) 0.2445(6) -0.6106(6)
C8E C 0.2445(6) -0.2445(9) -0.6106(6)
C8C C 0.2445(9) -0.2445(6) -0.3894(6)
C8S C -0.2445(9) -0.2445(6) -0.6106(6)
C8B C -0.2445(6) -0.2445(9) -0.3894(6)
C8H C -0.2445(6) 0.2445(9) -0.6106(6)
C8A C -0.2445(9) 0.2445(6) -0.3894(6)
C8P C 0.3894(6) 0.2445(6) -0.2445(9)
C8G C 0.6106(6) 0.2445(9) -0.2445(6)
C8J C 0.6106(6) 0.2445(6) 0.2445(9)
C8I C 0.3894(6) 0.2445(9) 0.2445(6)
C8V C 0.6106(6) -0.2445(9) 0.2445(6)
C8O C 0.3894(6) -0.2445(6) 0.2445(9)
C8M C 0.6106(6) -0.2445(6) -0.2445(9)
C8W C 0.3894(6) -0.2445(9) -0.2445(6)
C8Q C 0.2445(9) 0.3894(6) -0.2445(6)
C8F C 0.2445(6) 0.6106(6) -0.2445(9)
C8N C -0.2445(9) 0.6106(6) -0.2445(6)
C8U C -0.2445(6) 0.3894(6) -0.2445(9)
C8T C -0.2445(6) 0.6106(6) 0.2445(9)
C8L C -0.2445(9) 0.3894(6) 0.2445(6)
C8K C 0.2445(9) 0.6106(6) 0.2445(6)
C8D C 0.2445(6) 0.3894(6) 0.2445(9)
O3E O 0.0000 0.0000 -0.6440(9)
O3I O 0.3560(9) 0.0000 0.0000
O3D O 0.0000 0.3560(9) 0.0000
O3G O 0.6440(9) 0.0000 0.0000
O3F O 0.0000 0.6440(9) 0.0000
loop_
_geom_bond_atom_site_label_1
_geom_bond_atom_site_label_2
_geom_bond_site_symmetry_1
_geom_bond_site_symmetry_2
Cd1 O1 1_555 1_555
Cd2 N1 1_555 1_555
N1 C1 1_555 1_555
O1 C8 1_555 1_555
C1 C2 1_555 1_555
C2 H1 1_555 1_555
C3 C6 1_555 1_555
C4 C1 1_555 1_555
C5 C4 1_555 1_555
C6 H2 1_555 1_555
C7 C3 1_555 1_555
H3 C7 1_555 1_555
O2 Cd1 1_555 1_555
C8 C3 1_555 1_555
O3 Cd2 1_555 1_555
Cd1D O1R 1_555 1_555
Cd1E O1E 1_555 1_555
Cd1C O1C 1_555 1_555
Cd1S O1S 1_555 1_555
Cd1B O1B 1_555 1_555
Cd1H O1H 1_555 1_555
Cd1A O1A 1_555 1_555
Cd1A_2 O1G 1_555 1_555
Cd1H_2 O1J 1_555 1_555
Cd1D_2 O1I 1_555 1_555
Cd1S_2 O1V 1_555 1_555
Cd1E_2 O1O 1_555 1_555
Cd1B_2 O1M 1_555 1_555
Cd1C_2 O1F 1_555 1_555
Cd1B_3 O1N 1_555 1_555
Cd1S_3 O1T 1_555 1_555
Cd1H_3 O1L 1_555 1_555
Cd1E_3 O1K 1_555 1_555
Cd2E Cd2 1_555 1_555
Cd2I Cd2G 1_555 1_555
Cd2D Cd2F 1_555 1_555
Cd2G N1M 1_555 1_555
Cd2F N1K 1_555 1_555
N1A Cd2 1_555 1_555
N1B Cd2 1_555 1_555
N1C Cd2 1_555 1_555
N1M Cd2I 1_555 1_555
N1V Cd2I 1_555 1_555
N1J Cd2I 1_555 1_555
N1G Cd2I 1_555 1_555
N1K Cd2D 1_555 1_555
N1D Cd2D 1_555 1_555
N1L Cd2D 1_555 1_555
N1F Cd2D 1_555 1_555
O1R C8R 1_555 1_555
O1E C8E 1_555 1_555
O1C C8C 1_555 1_555
O1S C8S 1_555 1_555
O1B C8B 1_555 1_555
O1H C8H 1_555 1_555
O1A C8A 1_555 1_555
O1P Cd1 1_555 1_555
O1G C8G 1_555 1_555
O1J C8J 1_555 1_555
O1I C8I 1_555 1_555
O1V C8V 1_555 1_555
O1O C8O 1_555 1_555
O1M C8M 1_555 1_555
O1W Cd1C 1_555 1_555
O1Q Cd1 1_555 1_555
O1F C8F 1_555 1_555
O1N C8N 1_555 1_555
O1U Cd1A 1_555 1_555
O1T C8T 1_555 1_555
O1L C8L 1_555 1_555
O1K C8K 1_555 1_555
O1D Cd1D_2 1_555 1_555
O1D_2 Cd1D 1_555 1_555
O1I_2 Cd1D 1_555 1_555
O1O_2 Cd1E 1_555 1_555
O1K_2 Cd1E 1_555 1_555
O1F_2 Cd1C 1_555 1_555
O1T_2 Cd1S 1_555 1_555
O1V_2 Cd1S 1_555 1_555
O1M_2 Cd1B 1_555 1_555
O1N_2 Cd1B 1_555 1_555
O1J_2 Cd1H 1_555 1_555
O1L_2 Cd1H 1_555 1_555
O1G_2 Cd1A 1_555 1_555
C1H N1 1_555 1_555
C1A N1A 1_555 1_555
C1S N1A 1_555 1_555
C1B N1B 1_555 1_555
C1E N1B 1_555 1_555
C1C N1C 1_555 1_555
C1R C4 1_555 1_555
C1P N1M 1_555 1_555
C1M N1M 1_555 1_555
C1W N1V 1_555 1_555
C1V N1V 1_555 1_555
C1O N1J 1_555 1_555
C1J N1J 1_555 1_555
C1I N1G 1_555 1_555
C1G N1G 1_555 1_555
C1Q N1K 1_555 1_555
C1K N1K 1_555 1_555
C1D N1D 1_555 1_555
C1T N1D 1_555 1_555
C1L N1L 1_555 1_555
C1N N1L 1_555 1_555
C1U N1F 1_555 1_555
C1F N1F 1_555 1_555
C2H C2 1_555 1_555
C2S C1S 1_555 1_555
C2A C1A 1_555 1_555
C2E C1E 1_555 1_555
C2B C1B 1_555 1_555
C2R C1R 1_555 1_555
C2C C1C 1_555 1_555
C2P C1P 1_555 1_555
C2M C1M 1_555 1_555
C2V C1V 1_555 1_555
C2W C1W 1_555 1_555
C2J C1J 1_555 1_555
C2O C1O 1_555 1_555
C2G C1G 1_555 1_555
C2I C1I 1_555 1_555
C2Q C1Q 1_555 1_555
C2K C1K 1_555 1_555
C2T C1T 1_555 1_555
C2D C1D 1_555 1_555
C2N C1N 1_555 1_555
C2L C1L 1_555 1_555
C2F C1F 1_555 1_555
C2U C1U 1_555 1_555
H1S C2S 1_555 1_555
H1A C2A 1_555 1_555
H1E C2E 1_555 1_555
H1R C2R 1_555 1_555
H1C C2C 1_555 1_555
H1B C2B 1_555 1_555
H1H C2H 1_555 1_555
H1P C2P 1_555 1_555
H1V C2V 1_555 1_555
H1W C2W 1_555 1_555
H1J C2J 1_555 1_555
H1G C2G 1_555 1_555
H1I C2I 1_555 1_555
H1O C2O 1_555 1_555
H1M C2M 1_555 1_555
H1Q C2Q 1_555 1_555
H1T C2T 1_555 1_555
H1D C2D 1_555 1_555
H1N C2N 1_555 1_555
H1F C2F 1_555 1_555
H1U C2U 1_555 1_555
H1L C2L 1_555 1_555
H1K C2K 1_555 1_555
C3R C6 1_555 1_555
C3C C6C 1_555 1_555
C3E C6C 1_555 1_555
C3B C6B 1_555 1_555
C3S C6B 1_555 1_555
C3A C6A 1_555 1_555
C3H C6A 1_555 1_555
C3P C6G 1_555 1_555
C3G C6G 1_555 1_555
C3I C6I 1_555 1_555
C3J C6I 1_555 1_555
C3O C6O 1_555 1_555
C3V C6O 1_555 1_555
C3W C6M 1_555 1_555
C3M C6M 1_555 1_555
C3Q C6F 1_555 1_555
C3F C6F 1_555 1_555
C3U C6N 1_555 1_555
C3N C6N 1_555 1_555
C3L C6L 1_555 1_555
C3T C6L 1_555 1_555
C3D C6D 1_555 1_555
C3K C6D 1_555 1_555
C4A C1H 1_555 1_555
C4B C1S 1_555 1_555
C4C C1E 1_555 1_555
C4G C1P 1_555 1_555
C4M C1M 1_555 1_555
C4O C1V 1_555 1_555
C4I C1J 1_555 1_555
C4F C1Q 1_555 1_555
C4D C1K 1_555 1_555
C4L C1T 1_555 1_555
C4N C1N 1_555 1_555
C5C C4C 1_555 1_555
C5B C4B 1_555 1_555
C5A C4A 1_555 1_555
C5G C4G 1_555 1_555
C5I C4I 1_555 1_555
C5O C4O 1_555 1_555
C5M C4M 1_555 1_555
C5F C4F 1_555 1_555
C5N C4N 1_555 1_555
C5L C4L 1_555 1_555
C5D C4D 1_555 1_555
C6C H2C 1_555 1_555
C6B H2B 1_555 1_555
C6A H2A 1_555 1_555
C6G H2G 1_555 1_555
C6I H2I 1_555 1_555
C6O H2O 1_555 1_555
C6M H2M 1_555 1_555
C6F H2F 1_555 1_555
C6N H2N 1_555 1_555
C6L H2L 1_555 1_555
C6D H2D 1_555 1_555
C7R C5 1_555 1_555
C7C C3C 1_555 1_555
C7E C3E 1_555 1_555
C7B C3B 1_555 1_555
C7S C3S 1_555 1_555
C7A C3A 1_555 1_555
C7H C3H 1_555 1_555
C7P C3P 1_555 1_555
C7G C3G 1_555 1_555
C7I C3I 1_555 1_555
C7J C3J 1_555 1_555
C7O C3O 1_555 1_555
C7V C3V 1_555 1_555
C7W C3W 1_555 1_555
C7M C3M 1_555 1_555
C7Q C3Q 1_555 1_555
C7F C3F 1_555 1_555
C7U C3U 1_555 1_555
C7N C3N 1_555 1_555
C7L C3L 1_555 1_555
C7T C3T 1_555 1_555
C7D C3D 1_555 1_555
C7K C3K 1_555 1_555
H3R C7R 1_555 1_555
H3E C7E 1_555 1_555
H3C C7C 1_555 1_555
H3S C7S 1_555 1_555
H3B C7B 1_555 1_555
H3H C7H 1_555 1_555
H3A C7A 1_555 1_555
H3P C7P 1_555 1_555
H3G C7G 1_555 1_555
H3J C7J 1_555 1_555
H3I C7I 1_555 1_555
H3V C7V 1_555 1_555
H3O C7O 1_555 1_555
H3M C7M 1_555 1_555
H3W C7W 1_555 1_555
H3Q C7Q 1_555 1_555
H3F C7F 1_555 1_555
H3N C7N 1_555 1_555
H3U C7U 1_555 1_555
H3T C7T 1_555 1_555
H3L C7L 1_555 1_555
H3K C7K 1_555 1_555
H3D C7D 1_555 1_555
O2R Cd1D 1_555 1_555
O2E Cd1E 1_555 1_555
O2C Cd1C 1_555 1_555
O2S Cd1S 1_555 1_555
O2B Cd1B 1_555 1_555
O2H Cd1H 1_555 1_555
O2A Cd1A 1_555 1_555
O2P Cd1 1_555 1_555
O2G Cd1A_2 1_555 1_555
O2J Cd1H_2 1_555 1_555
O2I Cd1D_2 1_555 1_555
O2V Cd1S_2 1_555 1_555
O2O Cd1E_2 1_555 1_555
O2M Cd1B_2 1_555 1_555
O2W Cd1C 1_555 1_555
O2Q Cd1 1_555 1_555
O2F Cd1C_2 1_555 1_555
O2N Cd1B_3 1_555 1_555
O2U Cd1A 1_555 1_555
O2T Cd1S_3 1_555 1_555
O2L Cd1H_3 1_555 1_555
O2K Cd1E_3 1_555 1_555
O2D Cd1D_2 1_555 1_555
O2D_2 Cd1D 1_555 1_555
O2I_2 Cd1D 1_555 1_555
O2O_2 Cd1E 1_555 1_555
O2K_2 Cd1E 1_555 1_555
O2F_2 Cd1C 1_555 1_555
O2T_2 Cd1S 1_555 1_555
O2V_2 Cd1S 1_555 1_555
O2M_2 Cd1B 1_555 1_555
O2N_2 Cd1B 1_555 1_555
O2J_2 Cd1H 1_555 1_555
O2L_2 Cd1H 1_555 1_555
O2G_2 Cd1A 1_555 1_555
C8R C3R 1_555 1_555
C8E C3E 1_555 1_555
C8C C3C 1_555 1_555
C8S C3S 1_555 1_555
C8B C3B 1_555 1_555
C8H C3H 1_555 1_555
C8A C3A 1_555 1_555
C8P O1P 1_555 1_555
C8G C3G 1_555 1_555
C8J C3J 1_555 1_555
C8I C3I 1_555 1_555
C8V C3V 1_555 1_555
C8O C3O 1_555 1_555
C8M C3M 1_555 1_555
C8W O1W 1_555 1_555
C8Q O1Q 1_555 1_555
C8F C3F 1_555 1_555
C8N C3N 1_555 1_555
C8U O1U 1_555 1_555
C8T C3T 1_555 1_555
C8L C3L 1_555 1_555
C8K C3K 1_555 1_555
C8D O1D 1_555 1_555
O3E Cd2E 1_555 1_555
O3I Cd2I 1_555 1_555
O3D Cd2D 1_555 1_555
O3G Cd2G 1_555 1_555
O3F Cd2F 1_555 1_555
N1 Cd2E 1_555 1_555
C5 C7 1_555 1_555
O2 C8 1_555 1_555
Cd2E N1A 1_555 1_555
Cd2E N1B 1_555 1_555
Cd2E N1C 1_555 1_555
Cd2G N1V 1_555 1_555
Cd2G N1J 1_555 1_555
Cd2G N1G 1_555 1_555
Cd2F N1D 1_555 1_555
Cd2F N1L 1_555 1_555
Cd2F N1F 1_555 1_555
N1C C1R 1_555 1_555
C1H C2H 1_555 1_555
C1A C4A 1_555 1_555
C1B C4B 1_555 1_555
C1C C4C 1_555 1_555
C1W C4M 1_555 1_555
C1O C4O 1_555 1_555
C1I C4I 1_555 1_555
C1G C4G 1_555 1_555
C1D C4D 1_555 1_555
C1L C4L 1_555 1_555
C1U C4N 1_555 1_555
C1F C4F 1_555 1_555
C2S C2A 1_555 1_555
C2E C2B 1_555 1_555
C2R C2C 1_555 1_555
C2P C2M 1_555 1_555
C2V C2W 1_555 1_555
C2J C2O 1_555 1_555
C2G C2I 1_555 1_555
C2Q C2K 1_555 1_555
C2T C2D 1_555 1_555
C2N C2L 1_555 1_555
C2F C2U 1_555 1_555
C3R C7R 1_555 1_555
C3P C8P 1_555 1_555
C3W C8W 1_555 1_555
C3Q C8Q 1_555 1_555
C3U C8U 1_555 1_555
C3D C8D 1_555 1_555
C5C C7C 1_555 1_555
C5C C7E 1_555 1_555
C5B C7B 1_555 1_555
C5B C7S 1_555 1_555
C5A C7A 1_555 1_555
C5A C7H 1_555 1_555
C5G C7P 1_555 1_555
C5G C7G 1_555 1_555
C5I C7I 1_555 1_555
C5I C7J 1_555 1_555
C5O C7O 1_555 1_555
C5O C7V 1_555 1_555
C5M C7W 1_555 1_555
C5M C7M 1_555 1_555
C5F C7Q 1_555 1_555
C5F C7F 1_555 1_555
C5N C7U 1_555 1_555
C5N C7N 1_555 1_555
C5L C7L 1_555 1_555
C5L C7T 1_555 1_555
C5D C7D 1_555 1_555
C5D C7K 1_555 1_555
O2R C8R 1_555 1_555
O2E C8E 1_555 1_555
O2C C8C 1_555 1_555
O2S C8S 1_555 1_555
O2B C8B 1_555 1_555
O2H C8H 1_555 1_555
O2A C8A 1_555 1_555
O2P C8P 1_555 1_555
O2G C8G 1_555 1_555
O2J C8J 1_555 1_555
O2I C8I 1_555 1_555
O2V C8V 1_555 1_555
O2O C8O 1_555 1_555
O2M C8M 1_555 1_555
O2W C8W 1_555 1_555
O2Q C8Q 1_555 1_555
O2F C8F 1_555 1_555
O2N C8N 1_555 1_555
O2U C8U 1_555 1_555
O2T C8T 1_555 1_555
O2L C8L 1_555 1_555
O2K C8K 1_555 1_555
O2D C8D 1_555 1_555

#END
