
#######################################################################
#
#                 Cambridge Crystallographic Data Centre
#                                CCDC 
#
#######################################################################
#
# If this CIF has been generated from an entry in the Cambridge 
# Structural Database, then it will include bibliographic, chemical, 
# crystal, experimental, refinement or atomic coordinate data resulting 
# from the CCDC's data processing and validation procedures.
#
#######################################################################

data_VEJKUR
_symmetry_cell_setting           triclinic
_symmetry_space_group_name_H-M   'P -1'
_symmetry_Int_Tables_number      2
_space_group_name_Hall           '-P 1'
loop_
_symmetry_equiv_pos_site_id
_symmetry_equiv_pos_as_xyz
1 x,y,z
2 -x,-y,-z
_cell_length_a                   7.34710(10)
_cell_length_b                   8.6909(2)
_cell_length_c                   13.8638(7)
_cell_angle_alpha                85.914(15)
_cell_angle_beta                 75.119(12)
_cell_angle_gamma                65.103(11)
_cell_volume                     775.358
loop_
_atom_site_label
_atom_site_type_symbol
_atom_site_fract_x
_atom_site_fract_y
_atom_site_fract_z
Co1 Co -0.5000 0.5000 0.5000
O1 O -0.2415(4) 0.5658(3) 0.45278(19)
N1 N 0.1373(4) -0.0271(3) 0.25022(19)
C1 C -0.1361(5) 0.1871(4) 0.3808(2)
Co2 Co 0.30680(6) 0.08811(6) 0.32613(3)
O2 O -0.3265(3) 0.2786(3) 0.40821(17)
C2 C -0.0688(5) 0.0240(4) 0.3216(2)
H1 H -0.0648 -0.0681 0.3685
H2 H -0.1729 0.0389 0.2842
O3 O 0.0013(4) 0.2210(3) 0.4006(2)
C3 C 0.2584(6) -0.2128(4) 0.2529(3)
H3 H 0.3782 -0.2522 0.1937
H4 H 0.1704 -0.2723 0.2507
O4 O 0.2616(5) 0.3548(4) 0.2886(2)
C4 C 0.3349(5) -0.2549(4) 0.3477(2)
O5 O 0.4170(5) 0.1293(4) 0.4381(2)
C5 C 0.1264(5) 0.0376(4) 0.1521(2)
O6 O 0.3645(4) -0.1446(3) 0.38599(18)
C6 C 0.2702(5) -0.0518(4) 0.0660(2)
H5 H 0.3749 -0.1609 0.0714
O7 O 0.3708(4) -0.4019(3) 0.37905(17)
C7 C 0.2640(4) 0.0152(4) -0.0278(2)
O8 O 0.5266(4) -0.2433(3) -0.10777(18)
C8 C 0.1094(5) 0.1724(4) -0.0374(2)
H6 H 0.1021 0.2177 -0.1014
O9 O 0.4521(3) -0.0114(3) -0.19829(16)
C9 C -0.0348(5) 0.2630(4) 0.0481(2)
O10 O -0.2297(5) 0.4654(4) -0.0486(2)
C10 C -0.0259(5) 0.1966(4) 0.1424(2)
H7 H -0.1245 0.2605 0.2002
O11 O -0.3046(4) 0.5320(4) 0.1130(2)
C11 C 0.4263(5) -0.0878(4) -0.1175(2)
C12 C -0.2037(5) 0.4329(4) 0.0422(2)
H8 H -0.2241 0.6056 0.3967
H9 H -0.1463 0.4812 0.4486
H10 H 0.3329 0.3430 0.2265
H11 H 0.2848 0.4108 0.3126
H12 H 0.4478 0.0556 0.4883
H13 H 0.3209 0.2247 0.4693
H14 H -0.3000 0.5624 -0.0492
Co1_2 Co 0.5000 -0.5000 0.5000
Co1_3 Co -1.5000 1.5000 0.5000
O1A O -0.7585(4) 0.4342(3) 0.54722(19)
N1A N -1.1373(4) 1.0271(3) 0.74978(19)
C1A C -0.8639(5) 0.8129(4) 0.6192(2)
Co2A Co -1.30680(6) 0.91189(6) 0.67387(3)
Co2A_2 Co 0.69320(6) -0.08811(6) -0.32613(3)
Co2_2 Co -1.69320(6) 1.08811(6) 1.32613(3)
O2A O -0.6735(3) 0.7214(3) 0.59179(17)
C2A C -0.9312(5) 0.9760(4) 0.6784(2)
H1A H -0.9352 1.0681 0.6315
H2A H -0.8271 0.9611 0.7158
O3A O -1.0013(4) 0.7790(3) 0.5994(2)
C3A C -1.2584(6) 1.2128(4) 0.7471(3)
H3A H -1.3782 1.2522 0.8063
H4A H -1.1704 1.2723 0.7493
O4A O -1.2616(5) 0.6452(4) 0.7114(2)
C4A C -1.3349(5) 1.2549(4) 0.6523(2)
O5A O -1.4170(5) 0.8707(4) 0.5619(2)
C5A C -1.1264(5) 0.9624(4) 0.8479(2)
O6A O -1.3645(4) 1.1446(3) 0.61401(18)
C6A C -1.2702(5) 1.0518(4) 0.9340(2)
H5A H -1.3749 1.1609 0.9286
O7A O -1.3708(4) 1.4019(3) 0.62095(17)
O7_2 O -0.6292(4) 0.5981(3) 0.37905(17)
O7A_2 O -0.3708(4) 0.4019(3) 0.62095(17)
C7A C -1.2640(4) 0.9848(4) 1.0278(2)
O8A O -1.5266(4) 1.2433(3) 1.10777(18)
C8A C -1.1094(5) 0.8276(4) 1.0374(2)
H6A H -1.1021 0.7823 1.1014
O9A O -1.4521(3) 1.0114(3) 1.19829(16)
O9A_2 O 0.5479(3) 0.0114(3) 0.19829(16)
O9_2 O -1.5479(3) 0.9886(3) 0.80171(16)
C9A C -0.9652(5) 0.7370(4) 0.9519(2)
O10A O -0.7703(5) 0.5346(4) 1.0486(2)
C10A C -0.9741(5) 0.8034(4) 0.8576(2)
H7A H -0.8755 0.7395 0.7998
O11A O -0.6954(4) 0.4680(4) 0.8870(2)
C11A C -1.4263(5) 1.0878(4) 1.1175(2)
C12A C -0.7963(5) 0.5671(4) 0.9578(2)
H8A H -0.7759 0.3944 0.6033
H9A H -0.8537 0.5188 0.5514
H10A H -1.3329 0.6570 0.7735
H11A H -1.2848 0.5892 0.6874
H12A H -1.4478 0.9444 0.5117
H13A H -1.3209 0.7753 0.5307
H14A H -0.7000 0.4376 1.0492
O12 O 0.8510(7) 0.6302(7) 0.2616(3)
H15 H 0.8003 0.5879 0.2178
H16 H 0.9807 0.5582 0.2475
loop_
_geom_bond_atom_site_label_1
_geom_bond_atom_site_label_2
_geom_bond_site_symmetry_1
_geom_bond_site_symmetry_2
Co1 O1 1_555 1_555
O1 H8 1_555 1_555
N1 Co2 1_555 1_555
C1 O2 1_555 1_555
Co2 O3 1_555 1_555
O2 Co1 1_555 1_555
C2 N1 1_555 1_555
H1 C2 1_555 1_555
H2 C2 1_555 1_555
O3 C1 1_555 1_555
C3 N1 1_555 1_555
H3 C3 1_555 1_555
H4 C3 1_555 1_555
O4 Co2 1_555 1_555
C4 C3 1_555 1_555
O5 Co2 1_555 1_555
C5 N1 1_555 1_555
O6 Co2 1_555 1_555
C6 C5 1_555 1_555
H5 C6 1_555 1_555
O7 C4 1_555 1_555
C7 C6 1_555 1_555
O8 C11 1_555 1_555
C8 C7 1_555 1_555
H6 C8 1_555 1_555
O9 C11 1_555 1_555
C9 C8 1_555 1_555
O10 C12 1_555 1_555
C10 C5 1_555 1_555
H7 C10 1_555 1_555
O11 C12 1_555 1_555
C11 C7 1_555 1_555
C12 C9 1_555 1_555
H9 O1 1_555 1_555
H10 O4 1_555 1_555
H11 O4 1_555 1_555
H12 O5 1_555 1_555
H13 O5 1_555 1_555
H14 O10 1_555 1_555
O12 H15 1_555 1_555
H16 O12 1_555 1_555
Co1_2 O7 1_555 1_555
Co1_3 O7A 1_555 1_555
O1A Co1 1_555 1_555
N1A Co2A 1_555 1_555
C1A O2A 1_555 1_555
Co2A O3A 1_555 1_555
Co2A_2 O9 1_555 1_555
Co2_2 O9A 1_555 1_555
O2A Co1 1_555 1_555
C2A N1A 1_555 1_555
H1A C2A 1_555 1_555
H2A C2A 1_555 1_555
O3A C1A 1_555 1_555
C3A N1A 1_555 1_555
H3A C3A 1_555 1_555
H4A C3A 1_555 1_555
O4A Co2A 1_555 1_555
C4A C3A 1_555 1_555
O5A Co2A 1_555 1_555
C5A N1A 1_555 1_555
O6A Co2A 1_555 1_555
C6A C5A 1_555 1_555
H5A C6A 1_555 1_555
O7A C4A 1_555 1_555
O7_2 Co1 1_555 1_555
O7A_2 Co1 1_555 1_555
C7A C6A 1_555 1_555
O8A C11A 1_555 1_555
C8A C7A 1_555 1_555
H6A C8A 1_555 1_555
O9A C11A 1_555 1_555
O9A_2 Co2 1_555 1_555
O9_2 Co2A 1_555 1_555
C9A C8A 1_555 1_555
O10A C12A 1_555 1_555
C10A C5A 1_555 1_555
H7A C10A 1_555 1_555
O11A C12A 1_555 1_555
C11A C7A 1_555 1_555
C12A C9A 1_555 1_555
H8A O1A 1_555 1_555
H9A O1A 1_555 1_555
H10A O4A 1_555 1_555
H11A O4A 1_555 1_555
H12A O5A 1_555 1_555
H13A O5A 1_555 1_555
H14A O10A 1_555 1_555
C1 C2 1_555 1_555
C4 O6 1_555 1_555
C9 C10 1_555 1_555
C1A C2A 1_555 1_555
C4A O6A 1_555 1_555
C9A C10A 1_555 1_555

#END
