
#######################################################################
#
#                 Cambridge Crystallographic Data Centre
#                                CCDC 
#
#######################################################################
#
# If this CIF has been generated from an entry in the Cambridge 
# Structural Database, then it will include bibliographic, chemical, 
# crystal, experimental, refinement or atomic coordinate data resulting 
# from the CCDC's data processing and validation procedures.
#
#######################################################################

data_VEJKOL
_symmetry_cell_setting           triclinic
_symmetry_space_group_name_H-M   'P -1'
_symmetry_Int_Tables_number      2
_space_group_name_Hall           '-P 1'
loop_
_symmetry_equiv_pos_site_id
_symmetry_equiv_pos_as_xyz
1 x,y,z
2 -x,-y,-z
_cell_length_a                   7.7389(9)
_cell_length_b                   10.6022(13)
_cell_length_c                   20.719(2)
_cell_angle_alpha                96.054(6)
_cell_angle_beta                 90.734(3)
_cell_angle_gamma                103.936(6)
_cell_volume                     1639.45
loop_
_atom_site_label
_atom_site_type_symbol
_atom_site_fract_x
_atom_site_fract_y
_atom_site_fract_z
Zn1 Zn 0.02731(10) -0.22230(7) 0.21989(4)
K1 K 0.2234(2) -0.06483(17) 0.45351(9)
O1 O -0.0493(6) -0.2699(5) 0.3086(2)
N1 N -0.1592(7) -0.0834(5) 0.2462(3)
C1 C -0.0497(9) 0.0429(6) 0.2731(3)
Zn2 Zn 0.0000 0.0000 0.0000
O2 O -0.2271(7) -0.2448(5) 0.3905(2)
N2 N 0.6494(7) 0.3069(5) 0.1528(3)
C2 C 0.0405(8) 0.1317(6) 0.2305(3)
H1 H 0.0264 0.1093 0.1848
Zn3 Zn 0.48604(11) 0.46382(8) 0.14134(4)
O3 O -0.0207(7) -0.1651(5) 0.1308(2)
C3 C 0.1493(8) 0.2513(6) 0.2562(3)
Zn4 Zn -0.17323(11) -0.37661(8) 0.44504(4)
O4 O -0.1623(7) -0.0469(5) 0.0770(2)
C4 C 0.1694(9) 0.2861(6) 0.3220(3)
H2 H 0.2414 0.3694 0.3386
O5 O 0.2242(7) -0.0373(5) 0.0518(3)
C5 C 0.0848(9) 0.2001(6) 0.3648(3)
O6 O -0.0538(8) -0.1910(5) -0.0433(3)
C6 C -0.0224(9) 0.0783(7) 0.3391(3)
H3 H -0.0779 0.0184 0.3680
O7 O 0.2538(6) 0.3007(5) 0.1512(2)
C7 C -0.2740(9) -0.1540(7) 0.2940(3)
H4 H -0.3774 -0.2168 0.2708
H5 H -0.3199 -0.0907 0.3233
O8 O 0.3682(8) 0.6076(6) 0.1215(3)
C8 C -0.1733(9) -0.2273(6) 0.3341(3)
O9 O 0.3570(6) 0.4465(4) 0.2336(2)
C9 C -0.2525(9) -0.0835(7) 0.1834(3)
H6 H -0.2892 -0.0003 0.1831
H7 H -0.3616 -0.1558 0.1788
O10 O 0.1867(7) 0.3476(4) 0.4597(2)
C10 C -0.1367(10) -0.0994(7) 0.1261(3)
O11 O 0.0509(7) 0.1416(5) 0.4712(2)
C11 C 0.2553(9) 0.3377(6) 0.2107(3)
O12 O 0.1050(7) -0.3370(5) 0.4451(2)
C12 C 0.1068(9) 0.2298(7) 0.4370(3)
O13 O -0.4800(7) -0.4409(6) 0.4384(3)
C13 C 0.6575(9) 0.2712(6) 0.3307(3)
O14 O 0.8204(7) 0.4688(5) 0.3850(3)
C14 C 0.5474(9) 0.1474(6) 0.3322(3)
H8 H 0.5274 0.1112 0.3722
O15 O 0.7025(7) 0.3095(5) 0.4453(2)
C15 C 0.4664(8) 0.0764(6) 0.2751(3)
O16 O 0.3242(7) -0.1028(5) 0.3310(2)
C16 C 0.4978(8) 0.1284(6) 0.2163(3)
H9 H 0.4393 0.0799 0.1776
O17 O 0.2700(6) -0.1152(5) 0.2242(2)
C17 C 0.6130(8) 0.2497(6) 0.2130(3)
O18 O 0.6152(8) 0.2533(5) -0.0191(2)
C18 C 0.6888(9) 0.3214(6) 0.2711(3)
H10 H 0.7637 0.4065 0.2701
O19 O 0.5418(7) 0.4086(5) 0.0487(2)
C19 C 0.7345(9) 0.3546(7) 0.3923(3)
O20 O 0.7282(6) 0.5779(4) 0.1758(2)
C20 C 0.3429(9) -0.0570(6) 0.2781(3)
O21 O 1.0188(6) 0.5931(4) 0.1826(2)
C21 C 0.5920(10) 0.2175(7) 0.0921(3)
H11 H 0.6776 0.1626 0.0829
H12 H 0.4733 0.1591 0.0973
O22 O 0.5356(8) -0.1422(5) 0.4813(3)
C22 C 0.5831(10) 0.2985(8) 0.0357(4)
C23 C 0.8348(8) 0.3844(6) 0.1501(3)
H13 H 0.9123 0.3496 0.1783
H14 H 0.8743 0.3731 0.1051
C24 C 0.8596(8) 0.5276(6) 0.1709(3)
H15 H 0.5537 -0.1876 0.4460
H16 H 0.5199 -0.1965 0.5105
H17 H 0.3901 0.6698 0.0969
H18 H 0.2721 0.6009 0.1414
H19 H -0.5481 -0.4276 0.4075
H20 H 0.1709 -0.3588 0.4733
H21 H 0.1627 -0.2608 0.4337
H22 H -0.5479 -0.4735 0.4687
H23 H 0.2853 -0.0930 0.0325
H24 H 0.1577 -0.0906 0.0775
H25 H -0.0621 -0.2677 -0.0304
H26 H -0.1318 -0.2076 -0.0779
Zn1A Zn -0.02731(10) 0.22230(7) -0.21989(4)
Zn1_2 Zn 1.02731(10) 0.77770(7) 0.21989(4)
Zn1_3 Zn -0.97269(10) -1.22230(7) 0.21989(4)
K1A K -0.2234(2) 0.06483(17) -0.45351(9)
K1A_2 K -0.2234(2) 0.06483(17) 0.54649(9)
K1A_3 K 0.7766(2) 0.06483(17) 0.54649(9)
K1_2 K 0.2234(2) -0.06483(17) -0.54649(9)
K1_3 K -0.7766(2) -1.06483(17) 0.45351(9)
O1A O 0.0493(6) 0.2699(5) -0.3086(2)
N1A N 0.1592(7) 0.0834(5) -0.2462(3)
C1A C 0.0497(9) -0.0429(6) -0.2731(3)
O2A O 0.2271(7) 0.2448(5) -0.3905(2)
N2_2 N -0.3506(7) -0.6931(5) 0.1528(3)
N2A N -0.6494(7) -0.3069(5) -0.1528(3)
C2A C -0.0405(8) -0.1317(6) -0.2305(3)
H1A H -0.0264 -0.1093 -0.1848
Zn3A Zn -0.48604(11) -0.46382(8) -0.14134(4)
Zn3_2 Zn -0.51396(11) -0.53618(8) 0.14134(4)
O3A O 0.0207(7) 0.1651(5) -0.1308(2)
C3A C -0.1493(8) -0.2513(6) -0.2562(3)
Zn4A Zn 0.17323(11) 0.37661(8) -0.44504(4)
Zn4A_2 Zn 0.17323(11) 0.37661(8) 0.55496(4)
Zn4_2 Zn 0.82677(11) 0.62339(8) 0.44504(4)
Zn4_3 Zn -0.17323(11) -0.37661(8) -0.55496(4)
O4A O 0.1623(7) 0.0469(5) -0.0770(2)
C4A C -0.1694(9) -0.2861(6) -0.3220(3)
H2A H -0.2414 -0.3694 -0.3386
O5A O -0.2242(7) 0.0373(5) -0.0518(3)
C5A C -0.0848(9) -0.2001(6) -0.3648(3)
O6A O 0.0538(8) 0.1910(5) 0.0433(3)
C6A C 0.0224(9) -0.0783(7) -0.3391(3)
H3A H 0.0779 -0.0184 -0.3680
O7A O -0.2538(6) -0.3007(5) -0.1512(2)
C7A C 0.2740(9) 0.1540(7) -0.2940(3)
H4A H 0.3774 0.2168 -0.2708
H5A H 0.3199 0.0907 -0.3233
O8A O -0.3682(8) -0.6076(6) -0.1215(3)
C8A C 0.1733(9) 0.2273(6) -0.3341(3)
O9A O -0.3570(6) -0.4465(4) -0.2336(2)
C9A C 0.2525(9) 0.0835(7) -0.1834(3)
H6A H 0.2892 0.0003 -0.1831
H7A H 0.3616 0.1558 -0.1788
O10A O -0.1867(7) -0.3476(4) -0.4597(2)
O10A_2 O -0.1867(7) -0.3476(4) 0.5403(2)
O10_2 O 0.1867(7) 0.3476(4) -0.5403(2)
C10A C 0.1367(10) 0.0994(7) -0.1261(3)
O11A O -0.0509(7) -0.1416(5) -0.4712(2)
O11A_2 O -0.0509(7) -0.1416(5) 0.5288(2)
O11_2 O 0.0509(7) 0.1416(5) -0.5288(2)
C11A C -0.2553(9) -0.3377(6) -0.2107(3)
O12A O -0.1050(7) 0.3370(5) -0.4451(2)
C12A C -0.1068(9) -0.2298(7) -0.4370(3)
O13A O 0.4800(7) 0.4409(6) -0.4384(3)
C13_2 C -0.3425(9) -0.7288(6) 0.3307(3)
O14_2 O -0.1796(7) -0.5312(5) 0.3850(3)
O14A O 0.1796(7) 0.5312(5) -0.3850(3)
C14_2 C -0.4526(9) -0.8526(6) 0.3322(3)
H8_2 H -0.4726 -0.8888 0.3722
O15_2 O -0.2975(7) -0.6905(5) 0.4453(2)
C15_2 C -0.5336(8) -0.9236(6) 0.2751(3)
O16_2 O -0.6758(7) -1.1028(5) 0.3310(2)
O16A O -0.3242(7) 0.1028(5) -0.3310(2)
C16_2 C -0.5022(8) -0.8716(6) 0.2163(3)
H9_2 H -0.5607 -0.9201 0.1776
O17_2 O -0.7300(6) -1.1152(5) 0.2242(2)
O17A O -0.2700(6) 0.1152(5) -0.2242(2)
C17_2 C -0.3870(8) -0.7503(6) 0.2130(3)
O18_2 O -0.3848(8) -0.7467(5) -0.0191(2)
C18_2 C -0.3112(9) -0.6786(6) 0.2711(3)
H10_2 H -0.2363 -0.5935 0.2701
O19_2 O -0.4582(7) -0.5914(5) 0.0487(2)
O19A O -0.5418(7) -0.4086(5) -0.0487(2)
C19_2 C -0.2655(9) -0.6454(7) 0.3923(3)
O20_2 O -0.2718(6) -0.4221(4) 0.1758(2)
O20A O -0.7282(6) -0.5779(4) -0.1758(2)
C20_2 C -0.6571(9) -1.0570(6) 0.2781(3)
O21_2 O 0.0188(6) -0.4069(4) 0.1826(2)
O21A O -0.0188(6) 0.4069(4) -0.1826(2)
C21_2 C -0.4080(10) -0.7825(7) 0.0921(3)
H11_2 H -0.3224 -0.8374 0.0829
H12_2 H -0.5267 -0.8409 0.0973
O22A O 0.4644(8) 0.1422(5) 0.5187(3)
O22_2 O -0.4644(8) -0.1422(5) -0.5187(3)
O22A_2 O -0.5356(8) 0.1422(5) -0.4813(3)
C22_2 C -0.4169(10) -0.7015(8) 0.0357(4)
C23_2 C -0.1652(8) -0.6156(6) 0.1501(3)
H13_2 H -0.0877 -0.6504 0.1783
H14_2 H -0.1257 -0.6269 0.1051
C24_2 C -0.1404(8) -0.4724(6) 0.1709(3)
H15A H 0.4463 0.1876 0.5540
H15_2 H -0.4463 -0.1876 -0.5540
H15A_2 H -0.5537 0.1876 -0.4460
H16A H 0.4801 0.1965 0.4895
H16_2 H -0.4801 -0.1965 -0.4895
H16A_2 H -0.5199 0.1965 -0.5105
H17A H -0.3901 -0.6698 -0.0969
H18A H -0.2721 -0.6009 -0.1414
H19A H 0.5481 0.4276 -0.4075
H20A H -0.1709 0.3588 -0.4733
H21A H -0.1627 0.2608 -0.4337
H22A H 0.5479 0.4735 -0.4687
H23A H -0.2853 0.0930 -0.0325
H24A H -0.1577 0.0906 -0.0775
H25A H 0.0621 0.2677 0.0304
H26A H 0.1318 0.2076 0.0779
O23 O 0.3304(7) 0.6314(5) 0.3388(3)
H27 H 0.2139 0.6096 0.3352
H28 H 0.3557 0.7139 0.3320
O24 O 0.8742(12) 0.5920(8) 0.0174(4)
H29 H 0.9392 0.6266 0.0537
H30 H 0.8617 0.5071 0.0143
loop_
_geom_bond_atom_site_label_1
_geom_bond_atom_site_label_2
_geom_bond_site_symmetry_1
_geom_bond_site_symmetry_2
Zn1 O1 1_555 1_555
K1 O11 1_555 1_555
O1 C8 1_555 1_555
N1 Zn1 1_555 1_555
C1 N1 1_555 1_555
Zn2 O4 1_555 1_555
O2 Zn4 1_555 1_555
N2 Zn3 1_555 1_555
C2 C1 1_555 1_555
H1 C2 1_555 1_555
Zn3 O7 1_555 1_555
O3 Zn1 1_555 1_555
C3 C2 1_555 1_555
Zn4 O12 1_555 1_555
O4 C10 1_555 1_555
C4 C3 1_555 1_555
H2 C4 1_555 1_555
O5 Zn2 1_555 1_555
C5 C4 1_555 1_555
O6 Zn2 1_555 1_555
C6 C1 1_555 1_555
H3 C6 1_555 1_555
O7 C11 1_555 1_555
C7 N1 1_555 1_555
H4 C7 1_555 1_555
H5 C7 1_555 1_555
O8 Zn3 1_555 1_555
C8 O2 1_555 1_555
O9 Zn3 1_555 1_555
C9 N1 1_555 1_555
H6 C9 1_555 1_555
H7 C9 1_555 1_555
O10 C12 1_555 1_555
C10 O3 1_555 1_555
O11 C12 1_555 1_555
C11 C3 1_555 1_555
O12 K1 1_555 1_555
C12 C5 1_555 1_555
O13 Zn4 1_555 1_555
C13 C14 1_555 1_555
O14 C19 1_555 1_555
C14 H8 1_555 1_555
O15 C19 1_555 1_555
C15 C14 1_555 1_555
O16 K1 1_555 1_555
C16 C15 1_555 1_555
H9 C16 1_555 1_555
O17 Zn1 1_555 1_555
C17 N2 1_555 1_555
O18 C22 1_555 1_555
C18 C13 1_555 1_555
H10 C18 1_555 1_555
O19 Zn3 1_555 1_555
C19 C13 1_555 1_555
O20 Zn3 1_555 1_555
C20 C15 1_555 1_555
O21 C24 1_555 1_555
C21 N2 1_555 1_555
H11 C21 1_555 1_555
H12 C21 1_555 1_555
O22 K1 1_555 1_555
C22 O19 1_555 1_555
O23 H27 1_555 1_555
C23 N2 1_555 1_555
H13 C23 1_555 1_555
H14 C23 1_555 1_555
O24 H29 1_555 1_555
C24 O20 1_555 1_555
H15 O22 1_555 1_555
H16 O22 1_555 1_555
H17 O8 1_555 1_555
H18 O8 1_555 1_555
H19 O13 1_555 1_555
H20 O12 1_555 1_555
H21 O12 1_555 1_555
H22 O13 1_555 1_555
H23 O5 1_555 1_555
H24 O5 1_555 1_555
H25 O6 1_555 1_555
H26 O6 1_555 1_555
H28 O23 1_555 1_555
H30 O24 1_555 1_555
Zn1A O1A 1_555 1_555
Zn1_2 O21 1_555 1_555
Zn1_3 O17_2 1_555 1_555
K1A O11A 1_555 1_555
K1A_2 O11 1_555 1_555
K1A_3 O22 1_555 1_555
K1_2 O11A 1_555 1_555
K1_3 O16_2 1_555 1_555
O1A C8A 1_555 1_555
N1A Zn1A 1_555 1_555
C1A N1A 1_555 1_555
O2A Zn4A 1_555 1_555
N2_2 Zn3_2 1_555 1_555
N2A Zn3A 1_555 1_555
C2A C1A 1_555 1_555
H1A C2A 1_555 1_555
Zn3A O7A 1_555 1_555
Zn3_2 O19_2 1_555 1_555
O3A Zn1A 1_555 1_555
C3A C2A 1_555 1_555
Zn4A O10_2 1_555 1_555
Zn4A_2 O10 1_555 1_555
Zn4_2 O14 1_555 1_555
Zn4_3 O10A 1_555 1_555
O4A Zn2 1_555 1_555
C4A C3A 1_555 1_555
H2A C4A 1_555 1_555
O5A Zn2 1_555 1_555
C5A C4A 1_555 1_555
O6A Zn2 1_555 1_555
C6A C1A 1_555 1_555
H3A C6A 1_555 1_555
O7A C11A 1_555 1_555
C7A N1A 1_555 1_555
H4A C7A 1_555 1_555
H5A C7A 1_555 1_555
O8A Zn3A 1_555 1_555
C8A O2A 1_555 1_555
O9A Zn3A 1_555 1_555
C9A N1A 1_555 1_555
H6A C9A 1_555 1_555
H7A C9A 1_555 1_555
O10A C12A 1_555 1_555
O10A_2 Zn4 1_555 1_555
C10A O3A 1_555 1_555
O11A C12A 1_555 1_555
O11A_2 K1 1_555 1_555
O11_2 K1A 1_555 1_555
C11A C3A 1_555 1_555
O12A K1A 1_555 1_555
C12A C5A 1_555 1_555
O13A Zn4A 1_555 1_555
C13_2 C14_2 1_555 1_555
O14_2 Zn4 1_555 1_555
O14A Zn4A 1_555 1_555
C14_2 H8_2 1_555 1_555
O15_2 C19_2 1_555 1_555
C15_2 C14_2 1_555 1_555
O16_2 C20_2 1_555 1_555
O16A K1A 1_555 1_555
C16_2 C15_2 1_555 1_555
H9_2 C16_2 1_555 1_555
O17_2 C20_2 1_555 1_555
O17A Zn1A 1_555 1_555
C17_2 N2_2 1_555 1_555
O18_2 C22_2 1_555 1_555
C18_2 C13_2 1_555 1_555
H10_2 C18_2 1_555 1_555
O19_2 C22_2 1_555 1_555
O19A Zn3A 1_555 1_555
C19_2 C13_2 1_555 1_555
O20_2 Zn3_2 1_555 1_555
O20A Zn3A 1_555 1_555
C20_2 C15_2 1_555 1_555
O21_2 Zn1 1_555 1_555
O21A Zn1A 1_555 1_555
C21_2 N2_2 1_555 1_555
H11_2 C21_2 1_555 1_555
H12_2 C21_2 1_555 1_555
O22A K1 1_555 1_555
O22_2 K1A 1_555 1_555
O22A_2 K1A 1_555 1_555
C22_2 C21_2 1_555 1_555
C23_2 N2_2 1_555 1_555
H13_2 C23_2 1_555 1_555
H14_2 C23_2 1_555 1_555
C24_2 O20_2 1_555 1_555
H15A O22A 1_555 1_555
H15_2 O22_2 1_555 1_555
H15A_2 O22A_2 1_555 1_555
H16A O22A 1_555 1_555
H16_2 O22_2 1_555 1_555
H16A_2 O22A_2 1_555 1_555
H17A O8A 1_555 1_555
H18A O8A 1_555 1_555
H19A O13A 1_555 1_555
H20A O12A 1_555 1_555
H21A O12A 1_555 1_555
H22A O13A 1_555 1_555
H23A O5A 1_555 1_555
H24A O5A 1_555 1_555
H25A O6A 1_555 1_555
H26A O6A 1_555 1_555
C5 C6 1_555 1_555
C7 C8 1_555 1_555
O9 C11 1_555 1_555
C9 C10 1_555 1_555
O16 C20 1_555 1_555
C16 C17 1_555 1_555
O17 C20 1_555 1_555
C17 C18 1_555 1_555
C21 C22 1_555 1_555
C23 C24 1_555 1_555
K1A_2 O11A_2 1_555 1_555
K1A_3 O22A 1_555 1_555
K1_2 O11_2 1_555 1_555
Zn4A O12A 1_555 1_555
O4A C10A 1_555 1_555
C5A C6A 1_555 1_555
C7A C8A 1_555 1_555
O9A C11A 1_555 1_555
C9A C10A 1_555 1_555
O14_2 C19_2 1_555 1_555
C16_2 C17_2 1_555 1_555
C17_2 C18_2 1_555 1_555
O21_2 C24_2 1_555 1_555
C23_2 C24_2 1_555 1_555

#END
