
#######################################################################
#
#                 Cambridge Crystallographic Data Centre
#                                CCDC 
#
#######################################################################
#
# If this CIF has been generated from an entry in the Cambridge 
# Structural Database, then it will include bibliographic, chemical, 
# crystal, experimental, refinement or atomic coordinate data resulting 
# from the CCDC's data processing and validation procedures.
#
#######################################################################

data_VEJLAY
_symmetry_cell_setting           triclinic
_symmetry_space_group_name_H-M   'P -1'
_symmetry_Int_Tables_number      2
_space_group_name_Hall           '-P 1'
loop_
_symmetry_equiv_pos_site_id
_symmetry_equiv_pos_as_xyz
1 x,y,z
2 -x,-y,-z
_cell_length_a                   7.1637(5)
_cell_length_b                   10.014
_cell_length_c                   12.3475(7)
_cell_angle_alpha                70.188(10)
_cell_angle_beta                 88.077(15)
_cell_angle_gamma                80.202(13)
_cell_volume                     820.914
loop_
_atom_site_label
_atom_site_type_symbol
_atom_site_fract_x
_atom_site_fract_y
_atom_site_fract_z
Cu1 Cu 0.51926(6) 0.68922(4) -0.35823(4)
O1 O 0.5982(4) 0.8734(3) -0.3923(2)
N1 N 0.7789(4) 0.6051(3) -0.2708(2)
C1 C 0.7606(5) 0.5770(3) -0.1472(3)
Cu2 Cu 0.76604(6) -0.03932(4) 0.16840(4)
O2 O 0.8532(4) 0.9746(3) -0.3965(2)
C2 C 0.7441(5) 0.4403(3) -0.0708(3)
H1 H 0.7428 0.3634 -0.0993
H2 H 0.3253 0.7250 -0.5203
H3 H 0.4101 0.0128 0.1409
H4 H 1.1075 -0.0158 0.1185
O3 O 0.5046(4) 0.4876(3) -0.3312(2)
C3 C 0.7297(5) 0.4162(3) 0.0464(3)
O4 O 0.6877(4) 0.2743(3) -0.2973(3)
C4 C 0.7325(5) 0.5275(3) 0.0892(3)
H5 H 0.7246 0.5105 0.1696
O5 O 0.7472(4) 0.1669(3) 0.0866(2)
C5 C 0.7469(5) 0.6640(4) 0.0133(3)
O6 O 0.6810(4) 0.2515(3) 0.2316(2)
C6 C 0.7596(5) 0.6899(4) -0.1049(3)
H6 H 0.7674 0.7839 -0.1563
O7 O 0.7744(4) 0.7586(3) 0.1643(2)
C7 C 0.7736(6) 0.8682(4) -0.3747(3)
H7 H 0.4349 -0.1082 0.2365
H8 H 1.1253 -0.1292 0.2077
O8 O 0.7285(4) 0.9136(2) -0.0131(2)
C8 C 0.8952(5) 0.7188(4) -0.3282(3)
H10 H 0.9634 0.6960 -0.3925
H11 H 0.9908 0.7191 -0.2723
H12 H 0.2695 0.8395 -0.5145
O9 O 0.3118(4) 0.7589(3) -0.4768(2)
C9 C 0.8362(5) 0.4699(4) -0.2992(3)
H13 H 0.9247 0.3997 -0.2386
H14 H 0.9026 0.4919 -0.3732
O10 O 0.4950(4) -0.0306(3) 0.1995(2)
C10 C 0.6625(6) 0.4045(4) -0.3081(3)
O11 O 1.0401(4) -0.0656(3) 0.1609(3)
C11 C 0.7158(5) 0.2677(4) 0.1291(3)
O12 O 0.7970(5) -0.0649(3) 0.3587(2)
C12 C 0.7506(5) 0.7852(4) 0.0576(3)
H16 H 0.8699 -0.0368 0.3716
H17 H 0.7084 0.0063 0.3416
Cu1A Cu 0.48074(6) 0.31078(4) 0.35823(4)
Cu2_2 Cu 0.76604(6) 0.96068(4) 0.16840(4)
O6A O 0.3190(4) 0.7485(3) -0.2316(2)
O7_2 O 0.7744(4) -0.2414(3) 0.1643(2)
O8_2 O 0.7285(4) -0.0864(2) -0.0131(2)
H9 H 0.2680 0.2664 0.6009
H15 H 0.3187 0.3634 0.6186
O13 O 0.2709(6) 0.3558(4) 0.5518(3)
loop_
_geom_bond_atom_site_label_1
_geom_bond_atom_site_label_2
_geom_bond_site_symmetry_1
_geom_bond_site_symmetry_2
Cu1 O1 1_555 1_555
O1 C7 1_555 1_555
N1 Cu1 1_555 1_555
C1 N1 1_555 1_555
Cu2 O5 1_555 1_555
O2 C7 1_555 1_555
C2 C1 1_555 1_555
H1 C2 1_555 1_555
H2 O9 1_555 1_555
H3 O10 1_555 1_555
H4 O11 1_555 1_555
O3 Cu1 1_555 1_555
C3 C2 1_555 1_555
O4 C10 1_555 1_555
C4 C3 1_555 1_555
H5 C4 1_555 1_555
O5 C11 1_555 1_555
C5 C4 1_555 1_555
O6 C11 1_555 1_555
C6 C1 1_555 1_555
H6 C6 1_555 1_555
O7 C12 1_555 1_555
C7 C8 1_555 1_555
H7 O10 1_555 1_555
H8 O11 1_555 1_555
H9 O13 1_555 1_555
O8 C12 1_555 1_555
C8 N1 1_555 1_555
H10 C8 1_555 1_555
H11 C8 1_555 1_555
H12 O9 1_555 1_555
O9 Cu1 1_555 1_555
C9 N1 1_555 1_555
H13 C9 1_555 1_555
H14 C9 1_555 1_555
O10 Cu2 1_555 1_555
C10 O3 1_555 1_555
O11 Cu2 1_555 1_555
C11 C3 1_555 1_555
O12 Cu2 1_555 1_555
C12 C5 1_555 1_555
H15 O13 1_555 1_555
H16 O12 1_555 1_555
H17 O12 1_555 1_555
Cu1A O6 1_555 1_555
Cu2_2 O7 1_555 1_555
O6A Cu1 1_555 1_555
O7_2 Cu2 1_555 1_555
O8_2 Cu2 1_555 1_555
C5 C6 1_555 1_555
O8 Cu2_2 1_555 1_555
C9 C10 1_555 1_555

#END
