
#######################################################################
#
#                 Cambridge Crystallographic Data Centre
#                                CCDC 
#
#######################################################################
#
# If this CIF has been generated from an entry in the Cambridge 
# Structural Database, then it will include bibliographic, chemical, 
# crystal, experimental, refinement or atomic coordinate data resulting 
# from the CCDC's data processing and validation procedures.
#
#######################################################################

data_VEJPUX
_symmetry_cell_setting           triclinic
_symmetry_space_group_name_H-M   'P -1'
_symmetry_Int_Tables_number      2
_space_group_name_Hall           '-P 1'
loop_
_symmetry_equiv_pos_site_id
_symmetry_equiv_pos_as_xyz
1 x,y,z
2 -x,-y,-z
_cell_length_a                   9.9364(7)
_cell_length_b                   10.2290(7)
_cell_length_c                   13.7624(9)
_cell_angle_alpha                77.8000(10)
_cell_angle_beta                 81.6940(10)
_cell_angle_gamma                64.0920(10)
_cell_volume                     1227.64
loop_
_atom_site_label
_atom_site_type_symbol
_atom_site_fract_x
_atom_site_fract_y
_atom_site_fract_z
Co1 Co 0.89773(3) 0.17513(3) 0.734361(17)
N1 N 0.90043(19) -0.02306(18) 0.82912(12)
N2 N 0.81261(18) 0.24542(18) 0.87179(12)
N3 N 0.74814(19) 0.1868(2) 1.03139(12)
H1 H 0.7419 0.1298 1.0848
N4 N 0.90296(18) 0.37843(17) 0.66643(11)
N5 N 0.83067(17) 0.60757(17) 0.58261(11)
O1 O 0.32805(19) 0.7619(2) 0.32603(12)
O2 O 0.11753(17) 0.89565(19) 0.39891(12)
O3 O 0.12318(16) 1.06594(18) 0.71425(13)
O4 O 0.33111(18) 0.95833(19) 0.79445(11)
C1 C 0.5755(2) 0.7951(2) 0.53743(14)
C2 C 0.4968(2) 0.7869(2) 0.46514(14)
H2 H 0.5487 0.7446 0.4098
C3 C 0.3411(2) 0.8412(2) 0.47437(14)
C4 C 0.2628(2) 0.9065(2) 0.55719(14)
H3 H 0.1586 0.9467 0.5626
C5 C 0.3415(2) 0.91111(19) 0.63145(13)
C6 C 0.4970(2) 0.8547(2) 0.62160(13)
H4 H 0.5492 0.8566 0.6717
C7 C 0.7422(2) 0.7490(2) 0.52181(15)
H5 H 0.7716 0.7419 0.4521
H6 H 0.7654 0.8247 0.5374
C8 C 0.7988(2) 0.4891(2) 0.61307(14)
H7 H 0.7121 0.4860 0.5979
C9 C 1.0114(2) 0.4288(2) 0.67228(13)
C10 C 0.9688(2) 0.5704(2) 0.61732(13)
C11 C 1.0591(2) 0.6469(2) 0.60327(15)
H8 H 1.0315 0.7397 0.5642
C12 C 1.1917(3) 0.5763(3) 0.65100(18)
H9 H 1.2558 0.6227 0.6432
C13 C 1.2327(2) 0.4376(3) 0.71052(17)
H10 H 1.3217 0.3955 0.7428
C14 C 1.1443(2) 0.3615(2) 0.72257(15)
H11 H 1.1718 0.2693 0.7625
C15 C 0.2575(2) 0.8324(2) 0.39497(15)
C16 C 0.2581(2) 0.9829(2) 0.72071(14)
C17 C 0.9527(3) -0.1560(2) 0.80355(17)
H12 H 0.9828 -0.1655 0.7372
C18 C 0.9639(3) -0.2799(3) 0.8713(2)
H13 H 1.0003 -0.3709 0.8508
C19 C 0.9205(3) -0.2673(3) 0.96963(19)
H14 H 0.9281 -0.3499 1.0166
C20 C 0.8652(2) -0.1299(3) 0.99774(16)
H15 H 0.8341 -0.1179 1.0636
C21 C 0.8576(2) -0.0111(2) 0.92499(14)
C22 C 0.8056(2) 0.1394(2) 0.94370(13)
C23 C 0.7539(2) 0.3721(2) 0.91520(15)
C24 C 0.7137(2) 0.3349(3) 1.01575(15)
C25 C 0.6514(3) 0.4393(3) 1.07923(18)
H16 H 0.6272 0.4132 1.1461
C26 C 0.6274(3) 0.5807(3) 1.0392(2)
H17 H 0.5855 0.6528 1.0797
C27 C 0.6640(3) 0.6203(3) 0.9392(2)
H18 H 0.6444 0.7183 0.9143
C28 C 0.7289(3) 0.5170(2) 0.87558(18)
H19 H 0.7546 0.5437 0.8091
Co1A Co 0.10227(3) 0.82487(3) 0.265639(17)
Co1_2 Co -0.10227(3) 1.17513(3) 0.734361(17)
Co1A_2 Co 1.10227(3) -0.17513(3) 0.265639(17)
N1A N 0.09957(19) 1.02306(18) 0.17088(12)
N2A N 0.18739(18) 0.75458(18) 0.12821(12)
N3A N 0.25186(19) 0.8132(2) -0.03139(12)
H1A H 0.2581 0.8702 -0.0848
N4A N 0.09704(18) 0.62157(17) 0.33357(11)
N5A N 0.16933(17) 0.39243(17) 0.41739(11)
O1A O 0.67195(19) 0.2381(2) 0.67397(12)
O2A O 0.88247(17) 0.10435(19) 0.60109(12)
O3A O 0.87682(16) -0.06594(18) 0.28575(13)
O3_2 O 1.12318(16) 0.06594(18) 0.71425(13)
O3A_2 O -0.12318(16) 0.93406(18) 0.28575(13)
O4A O 0.66889(18) 0.04167(19) 0.20555(11)
C1A C 0.4245(2) 0.2049(2) 0.46257(14)
C2A C 0.5032(2) 0.2131(2) 0.53486(14)
H2A H 0.4513 0.2554 0.5902
C3A C 0.6589(2) 0.1588(2) 0.52563(14)
C4A C 0.7372(2) 0.0935(2) 0.44281(14)
H3A H 0.8414 0.0533 0.4374
C5A C 0.6585(2) 0.08889(19) 0.36855(13)
C6A C 0.5030(2) 0.1453(2) 0.37840(13)
H4A H 0.4508 0.1434 0.3283
C7A C 0.2578(2) 0.2510(2) 0.47819(15)
H5A H 0.2284 0.2581 0.5479
H6A H 0.2346 0.1753 0.4626
C8A C 0.2012(2) 0.5109(2) 0.38693(14)
H7A H 0.2879 0.5140 0.4021
C9A C -0.0114(2) 0.5712(2) 0.32772(13)
C10A C 0.0312(2) 0.4296(2) 0.38268(13)
C11A C -0.0591(2) 0.3531(2) 0.39673(15)
H8A H -0.0315 0.2603 0.4358
C12A C -0.1917(3) 0.4237(3) 0.34900(18)
H9A H -0.2558 0.3773 0.3568
C13A C -0.2327(2) 0.5624(3) 0.28948(17)
H10A H -0.3217 0.6045 0.2572
C14A C -0.1443(2) 0.6385(2) 0.27743(15)
H11A H -0.1718 0.7307 0.2375
C15A C 0.7425(2) 0.1676(2) 0.60503(15)
C16A C 0.7419(2) 0.0171(2) 0.27929(14)
C17A C 0.0473(3) 1.1560(2) 0.19645(17)
H12A H 0.0172 1.1655 0.2628
C18A C 0.0361(3) 1.2799(3) 0.1287(2)
H13A H -0.0003 1.3709 0.1492
C19A C 0.0795(3) 1.2673(3) 0.03037(19)
H14A H 0.0719 1.3499 -0.0166
C20A C 0.1348(2) 1.1299(3) 0.00226(16)
H15A H 0.1659 1.1179 -0.0636
C21A C 0.1424(2) 1.0111(2) 0.07501(14)
C22A C 0.1944(2) 0.8606(2) 0.05630(13)
C23A C 0.2461(2) 0.6279(2) 0.08480(15)
C24A C 0.2863(2) 0.6651(3) -0.01575(15)
C25A C 0.3486(3) 0.5607(3) -0.07923(18)
H16A H 0.3728 0.5868 -0.1461
C26A C 0.3726(3) 0.4193(3) -0.0392(2)
H17A H 0.4145 0.3472 -0.0797
C27A C 0.3360(3) 0.3797(3) 0.0608(2)
H18A H 0.3556 0.2817 0.0857
C28A C 0.2711(3) 0.4830(2) 0.12442(18)
H19A H 0.2454 0.4563 0.1909
O5 O 0.4809(5) 0.9087(6) 0.1651(3)
O6? O 0.507(2) 0.969(2) 0.0460(12)
loop_
_geom_bond_atom_site_label_1
_geom_bond_atom_site_label_2
_geom_bond_site_symmetry_1
_geom_bond_site_symmetry_2
Co1 N1 1_555 1_555
N1 C17 1_555 1_555
N2 Co1 1_555 1_555
N3 H1 1_555 1_555
N4 Co1 1_555 1_555
N5 C7 1_555 1_555
O1 C15 1_555 1_555
O2 C15 1_555 1_555
O3 C16 1_555 1_555
O4 C16 1_555 1_555
C1 C2 1_555 1_555
C2 H2 1_555 1_555
C3 C2 1_555 1_555
C4 C3 1_555 1_555
H3 C4 1_555 1_555
C5 C4 1_555 1_555
C6 C1 1_555 1_555
H4 C6 1_555 1_555
C7 C1 1_555 1_555
H5 C7 1_555 1_555
H6 C7 1_555 1_555
C8 N4 1_555 1_555
H7 C8 1_555 1_555
C9 N4 1_555 1_555
C10 N5 1_555 1_555
C11 C10 1_555 1_555
H8 C11 1_555 1_555
C12 C11 1_555 1_555
H9 C12 1_555 1_555
C13 C12 1_555 1_555
H10 C13 1_555 1_555
C14 C9 1_555 1_555
H11 C14 1_555 1_555
C15 C3 1_555 1_555
C16 C5 1_555 1_555
C17 H12 1_555 1_555
C18 C17 1_555 1_555
H13 C18 1_555 1_555
C19 C18 1_555 1_555
H14 C19 1_555 1_555
C20 C19 1_555 1_555
H15 C20 1_555 1_555
C21 N1 1_555 1_555
C22 N2 1_555 1_555
C23 N2 1_555 1_555
C24 N3 1_555 1_555
C25 C24 1_555 1_555
H16 C25 1_555 1_555
C26 C25 1_555 1_555
H17 C26 1_555 1_555
C27 C26 1_555 1_555
H18 C27 1_555 1_555
C28 C23 1_555 1_555
H19 C28 1_555 1_555
Co1A O1 1_555 1_555
Co1_2 O3 1_555 1_555
Co1A_2 O3A 1_555 1_555
N1A Co1A 1_555 1_555
N2A Co1A 1_555 1_555
N3A H1A 1_555 1_555
N4A Co1A 1_555 1_555
N5A C7A 1_555 1_555
O1A Co1 1_555 1_555
O2A Co1 1_555 1_555
O3A C16A 1_555 1_555
O3_2 Co1 1_555 1_555
O3A_2 Co1A 1_555 1_555
O4A C16A 1_555 1_555
C1A C2A 1_555 1_555
C2A H2A 1_555 1_555
C3A C2A 1_555 1_555
C4A C3A 1_555 1_555
H3A C4A 1_555 1_555
C5A C4A 1_555 1_555
C6A C1A 1_555 1_555
H4A C6A 1_555 1_555
C7A C1A 1_555 1_555
H5A C7A 1_555 1_555
H6A C7A 1_555 1_555
C8A N4A 1_555 1_555
H7A C8A 1_555 1_555
C9A N4A 1_555 1_555
C10A N5A 1_555 1_555
C11A C10A 1_555 1_555
H8A C11A 1_555 1_555
C12A C11A 1_555 1_555
H9A C12A 1_555 1_555
C13A C12A 1_555 1_555
H10A C13A 1_555 1_555
C14A C9A 1_555 1_555
H11A C14A 1_555 1_555
C15A O1A 1_555 1_555
C16A C5A 1_555 1_555
C17A N1A 1_555 1_555
H12A C17A 1_555 1_555
C18A C17A 1_555 1_555
H13A C18A 1_555 1_555
C19A C18A 1_555 1_555
H14A C19A 1_555 1_555
C20A C19A 1_555 1_555
H15A C20A 1_555 1_555
C21A N1A 1_555 1_555
C22A N2A 1_555 1_555
C23A N2A 1_555 1_555
C24A N3A 1_555 1_555
C25A C24A 1_555 1_555
H16A C25A 1_555 1_555
C26A C25A 1_555 1_555
H17A C26A 1_555 1_555
C27A C26A 1_555 1_555
H18A C27A 1_555 1_555
C28A C23A 1_555 1_555
H19A C28A 1_555 1_555
N3 C22 1_555 1_555
N5 C8 1_555 1_555
O2 Co1A 1_555 1_555
C5 C6 1_555 1_555
C9 C10 1_555 1_555
C13 C14 1_555 1_555
C20 C21 1_555 1_555
C21 C22 1_555 1_555
C23 C24 1_555 1_555
C27 C28 1_555 1_555
N3A C22A 1_555 1_555
N5A C8A 1_555 1_555
O2A C15A 1_555 1_555
C3A C15A 1_555 1_555
C5A C6A 1_555 1_555
C9A C10A 1_555 1_555
C13A C14A 1_555 1_555
C20A C21A 1_555 1_555
C21A C22A 1_555 1_555
C23A C24A 1_555 1_555
C27A C28A 1_555 1_555

#END
