
#######################################################################
#
#                 Cambridge Crystallographic Data Centre
#                                CCDC 
#
#######################################################################
#
# If this CIF has been generated from an entry in the Cambridge 
# Structural Database, then it will include bibliographic, chemical, 
# crystal, experimental, refinement or atomic coordinate data resulting 
# from the CCDC's data processing and validation procedures.
#
#######################################################################

data_VEJPEH
_symmetry_cell_setting           orthorhombic
_symmetry_space_group_name_H-M   'A b a 2'
_symmetry_Int_Tables_number      41
_space_group_name_Hall           'A 2 -2ab'
loop_
_symmetry_equiv_pos_site_id
_symmetry_equiv_pos_as_xyz
1 x,y,z
2 -x,-y,z
3 1/2+x,1/2-y,z
4 1/2-x,1/2+y,z
5 x,1/2+y,1/2+z
6 -x,1/2-y,1/2+z
7 1/2+x,-y,1/2+z
8 1/2-x,y,1/2+z
_cell_length_a                   12.951(3)
_cell_length_b                   21.656(4)
_cell_length_c                   8.2868(16)
_cell_angle_alpha                90
_cell_angle_beta                 90
_cell_angle_gamma                90
_cell_volume                     2324.17
loop_
_atom_site_label
_atom_site_type_symbol
_atom_site_fract_x
_atom_site_fract_y
_atom_site_fract_z
Cd1 Cd 0.0000 0.5000 1.2284(3)
N1 N 0.3875(3) 0.95486(18) 0.3963(6)
N2 N 0.2379(4) 0.9211(2) 0.4806(7)
H1 H 0.1715 0.9225 0.5022
O1 O 0.1335(3) 0.56198(18) 1.1167(6)
O2 O -0.0245(4) 0.5810(2) 1.0436(7)
C1 C 0.1683(5) 0.7498(2) 0.7612(6)
C2 C 0.0654(6) 0.7376(3) 0.7855(9)
H2 H 0.0156 0.7641 0.7438
C3 C 0.0357(6) 0.6861(3) 0.8718(10)
H3 H -0.0343 0.6783 0.8860
C4 C 0.1061(4) 0.6461(2) 0.9374(7)
C5 C 0.2095(4) 0.6574(3) 0.9144(8)
H4 H 0.2586 0.6309 0.9581
C6 C 0.2408(5) 0.7092(3) 0.8244(9)
H5 H 0.3107 0.7164 0.8071
C7 C 0.1958(5) 0.8067(3) 0.6715(7)
H6 H 0.1416 0.8329 0.6447
C8 C 0.2861(5) 0.8237(3) 0.6271(8)
H7 H 0.3409 0.7980 0.6540
C9 C 0.3107(4) 0.8798(2) 0.5382(7)
C10 C 0.4021(4) 0.9016(3) 0.4844(7)
H8 H 0.4659 0.8833 0.5040
C11 C 0.2874(4) 0.9649(2) 0.3969(8)
H9 H 0.2553 0.9981 0.3461
C12 C 0.0701(5) 0.5926(2) 1.0373(7)
Cd1B Cd -0.5000 0.0000 0.2284(3)
Cd1B_2 Cd 0.5000 1.0000 0.2284(3)
N1A N -0.3875(3) 0.04514(18) 0.3963(6)
N1B N -0.1125(3) 0.54514(18) 1.3963(6)
N1C N 0.1125(3) 0.45486(18) 1.3963(6)
N2A N -0.2379(4) 0.0789(2) 0.4806(7)
H1A H -0.1715 0.0775 0.5022
O1A O -0.1335(3) 0.43802(18) 1.1167(6)
O2A O 0.0245(4) 0.4190(2) 1.0436(7)
C1A C -0.1683(5) 0.2502(2) 0.7612(6)
C2A C -0.0654(6) 0.2624(3) 0.7855(9)
H2A H -0.0156 0.2359 0.7438
C3A C -0.0357(6) 0.3139(3) 0.8718(10)
H3A H 0.0343 0.3217 0.8860
C4A C -0.1061(4) 0.3539(2) 0.9374(7)
C5A C -0.2095(4) 0.3426(3) 0.9144(8)
H4A H -0.2586 0.3691 0.9581
C6A C -0.2408(5) 0.2908(3) 0.8244(9)
H5A H -0.3107 0.2836 0.8071
C7A C -0.1958(5) 0.1933(3) 0.6715(7)
H6A H -0.1416 0.1671 0.6447
C8A C -0.2861(5) 0.1763(3) 0.6271(8)
H7A H -0.3409 0.2020 0.6540
C9A C -0.3107(4) 0.1202(2) 0.5382(7)
C10A C -0.4021(4) 0.0984(3) 0.4844(7)
H8A H -0.4659 0.1167 0.5040
C11A C -0.2874(4) 0.0351(2) 0.3969(8)
H9A H -0.2553 0.0019 0.3461
C12A C -0.0701(5) 0.4074(2) 1.0373(7)
loop_
_geom_bond_atom_site_label_1
_geom_bond_atom_site_label_2
_geom_bond_site_symmetry_1
_geom_bond_site_symmetry_2
Cd1 O1 1_555 1_555
N1 C10 1_555 1_555
N2 H1 1_555 1_555
O1 C12 1_555 1_555
O2 Cd1 1_555 1_555
C1 C2 1_555 1_555
C2 H2 1_555 1_555
C3 C2 1_555 1_555
H3 C3 1_555 1_555
C4 C3 1_555 1_555
C5 C4 1_555 1_555
H4 C5 1_555 1_555
C6 C1 1_555 1_555
H5 C6 1_555 1_555
C7 C1 1_555 1_555
H6 C7 1_555 1_555
C8 C7 1_555 1_555
H7 C8 1_555 1_555
C9 N2 1_555 1_555
C10 C9 1_555 1_555
H8 C10 1_555 1_555
C11 N1 1_555 1_555
H9 C11 1_555 1_555
C12 O2 1_555 1_555
Cd1B N1A 1_555 1_555
Cd1B_2 N1 1_555 1_555
N1A C10A 1_555 1_555
N1B Cd1 1_555 1_555
N1C Cd1 1_555 1_555
N2A H1A 1_555 1_555
O1A Cd1 1_555 1_555
O2A Cd1 1_555 1_555
C1A C2A 1_555 1_555
C2A H2A 1_555 1_555
C3A C2A 1_555 1_555
H3A C3A 1_555 1_555
C4A C3A 1_555 1_555
C5A C4A 1_555 1_555
H4A C5A 1_555 1_555
C6A C1A 1_555 1_555
H5A C6A 1_555 1_555
C7A C1A 1_555 1_555
H6A C7A 1_555 1_555
C8A C7A 1_555 1_555
H7A C8A 1_555 1_555
C9A N2A 1_555 1_555
C10A C9A 1_555 1_555
H8A C10A 1_555 1_555
C11A N1A 1_555 1_555
H9A C11A 1_555 1_555
C12A O1A 1_555 1_555
N2 C11 1_555 1_555
C4 C12 1_555 1_555
C5 C6 1_555 1_555
C8 C9 1_555 1_555
N2A C11A 1_555 1_555
O2A C12A 1_555 1_555
C4A C12A 1_555 1_555
C5A C6A 1_555 1_555
C8A C9A 1_555 1_555

#END
