
#######################################################################
#
#                 Cambridge Crystallographic Data Centre
#                                CCDC 
#
#######################################################################
#
# If this CIF has been generated from an entry in the Cambridge 
# Structural Database, then it will include bibliographic, chemical, 
# crystal, experimental, refinement or atomic coordinate data resulting 
# from the CCDC's data processing and validation procedures.
#
#######################################################################

data_VEJPIL
_symmetry_cell_setting           orthorhombic
_symmetry_space_group_name_H-M   'A b a 2'
_symmetry_Int_Tables_number      41
_space_group_name_Hall           'A 2 -2ab'
loop_
_symmetry_equiv_pos_site_id
_symmetry_equiv_pos_as_xyz
1 x,y,z
2 -x,-y,z
3 1/2+x,1/2-y,z
4 1/2-x,1/2+y,z
5 x,1/2+y,1/2+z
6 -x,1/2-y,1/2+z
7 1/2+x,-y,1/2+z
8 1/2-x,y,1/2+z
_cell_length_a                   12.849(3)
_cell_length_b                   21.151(5)
_cell_length_c                   8.3701(19)
_cell_angle_alpha                90
_cell_angle_beta                 90
_cell_angle_gamma                90
_cell_volume                     2274.74
loop_
_atom_site_label
_atom_site_type_symbol
_atom_site_fract_x
_atom_site_fract_y
_atom_site_fract_z
Mn1 Mn 0.0000 0.5000 0.18392(11)
N1 N 0.10588(19) 0.45569(11) 0.3494(3)
N2 N 0.2576(2) 0.42235(10) 0.4415(4)
H1 H 0.3341 0.4219 0.4399
O1 O 0.52747(15) 0.07721(9) 1.0057(3)
O2 O 0.37016(16) 0.06124(10) 1.0906(3)
C1 C 0.3304(3) 0.24944(13) 0.7245(4)
C2 C 0.2592(2) 0.20813(14) 0.7908(4)
H2 H 0.1885 0.2150 0.7741
C3 C 0.2905(2) 0.15672(14) 0.8816(4)
H3 H 0.2411 0.1301 0.9272
C4 C 0.3959(2) 0.14499(14) 0.9044(4)
C5 C 0.4660(2) 0.18567(15) 0.8351(4)
H4 H 0.5368 0.1783 0.8481
C6 C 0.4343(3) 0.23695(15) 0.7473(4)
H5 H 0.4839 0.2636 0.7025
C7 C 0.3007(2) 0.30682(13) 0.6356(3)
H6 H 0.3547 0.3343 0.6101
C8 C 0.2088(3) 0.32373(14) 0.5884(4)
H7 H 0.1537 0.2974 0.6155
C9 C 0.1843(2) 0.37986(14) 0.4977(4)
C10 C 0.0918(2) 0.40205(15) 0.4391(4)
H8 H 0.0276 0.3832 0.4578
C11 C 0.2078(2) 0.46624(13) 0.3531(4)
H9 H 0.2406 0.4996 0.3013
C12 C 0.4313(2) 0.09168(13) 1.0054(4)
Mn1B Mn -0.5000 1.0000 1.18392(11)
Mn1B_2 Mn 0.5000 0.0000 1.18392(11)
N1A N -0.10588(19) 0.54431(11) 0.3494(3)
N2A N -0.2576(2) 0.57765(10) 0.4415(4)
H1A H -0.3341 0.5781 0.4399
O1A O -0.52747(15) 0.92279(9) 1.0057(3)
O1B O 0.02747(15) 0.42279(9) 0.0057(3)
O1C O -0.02747(15) 0.57721(9) 0.0057(3)
O2A O -0.37016(16) 0.93876(10) 1.0906(3)
O2B O -0.12984(16) 0.43876(10) 0.0906(3)
O2C O 0.12984(16) 0.56124(10) 0.0906(3)
C1A C -0.3304(3) 0.75056(13) 0.7245(4)
C2A C -0.2592(2) 0.79187(14) 0.7908(4)
H2A H -0.1885 0.7850 0.7741
C3A C -0.2905(2) 0.84328(14) 0.8816(4)
H3A H -0.2411 0.8699 0.9272
C4A C -0.3959(2) 0.85501(14) 0.9044(4)
C5A C -0.4660(2) 0.81433(15) 0.8351(4)
H4A H -0.5368 0.8217 0.8481
C6A C -0.4343(3) 0.76305(15) 0.7473(4)
H5A H -0.4839 0.7364 0.7025
C7A C -0.3007(2) 0.69318(13) 0.6356(3)
H6A H -0.3547 0.6657 0.6101
C8A C -0.2088(3) 0.67627(14) 0.5884(4)
H7A H -0.1537 0.7026 0.6155
C9A C -0.1843(2) 0.62014(14) 0.4977(4)
C10A C -0.0918(2) 0.59795(15) 0.4391(4)
H8A H -0.0276 0.6168 0.4578
C11A C -0.2078(2) 0.53376(13) 0.3531(4)
H9A H -0.2406 0.5004 0.3013
C12A C -0.4313(2) 0.90832(13) 1.0054(4)
loop_
_geom_bond_atom_site_label_1
_geom_bond_atom_site_label_2
_geom_bond_site_symmetry_1
_geom_bond_site_symmetry_2
Mn1 N1 1_555 1_555
N1 C10 1_555 1_555
N2 H1 1_555 1_555
O1 C12 1_555 1_555
O2 C12 1_555 1_555
C1 C2 1_555 1_555
C2 H2 1_555 1_555
C3 C2 1_555 1_555
H3 C3 1_555 1_555
C4 C3 1_555 1_555
C5 C4 1_555 1_555
H4 C5 1_555 1_555
C6 C1 1_555 1_555
H5 C6 1_555 1_555
C7 C1 1_555 1_555
H6 C7 1_555 1_555
C8 C7 1_555 1_555
H7 C8 1_555 1_555
C9 N2 1_555 1_555
C10 C9 1_555 1_555
H8 C10 1_555 1_555
C11 N1 1_555 1_555
H9 C11 1_555 1_555
C12 C4 1_555 1_555
Mn1B O1A 1_555 1_555
Mn1B_2 O1 1_555 1_555
N1A Mn1 1_555 1_555
N2A H1A 1_555 1_555
O1A C12A 1_555 1_555
O1B Mn1 1_555 1_555
O1C Mn1 1_555 1_555
O2A Mn1B 1_555 1_555
O2B Mn1 1_555 1_555
O2C Mn1 1_555 1_555
C1A C2A 1_555 1_555
C2A H2A 1_555 1_555
C3A C2A 1_555 1_555
H3A C3A 1_555 1_555
C4A C3A 1_555 1_555
C5A C4A 1_555 1_555
H4A C5A 1_555 1_555
C6A C1A 1_555 1_555
H5A C6A 1_555 1_555
C7A C1A 1_555 1_555
H6A C7A 1_555 1_555
C8A C7A 1_555 1_555
H7A C8A 1_555 1_555
C9A N2A 1_555 1_555
C10A N1A 1_555 1_555
H8A C10A 1_555 1_555
C11A N1A 1_555 1_555
H9A C11A 1_555 1_555
C12A O2A 1_555 1_555
N2 C11 1_555 1_555
O2 Mn1B_2 1_555 1_555
C5 C6 1_555 1_555
C8 C9 1_555 1_555
N2A C11A 1_555 1_555
C4A C12A 1_555 1_555
C5A C6A 1_555 1_555
C8A C9A 1_555 1_555
C9A C10A 1_555 1_555

#END
