
#######################################################################
#
#                 Cambridge Crystallographic Data Centre
#                                CCDC 
#
#######################################################################
#
# If this CIF has been generated from an entry in the Cambridge 
# Structural Database, then it will include bibliographic, chemical, 
# crystal, experimental, refinement or atomic coordinate data resulting 
# from the CCDC's data processing and validation procedures.
#
#######################################################################

data_VEJSEK
_symmetry_cell_setting           monoclinic
_symmetry_space_group_name_H-M   'P 21/c'
_symmetry_Int_Tables_number      14
_space_group_name_Hall           '-P 2ybc'
loop_
_symmetry_equiv_pos_site_id
_symmetry_equiv_pos_as_xyz
1 x,y,z
2 -x,1/2+y,1/2-z
3 -x,-y,-z
4 x,1/2-y,1/2+z
_cell_length_a                   18.841(4)
_cell_length_b                   10.611(2)
_cell_length_c                   12.404(3)
_cell_angle_alpha                90
_cell_angle_beta                 107.55(3)
_cell_angle_gamma                90
_cell_volume                     2364.4
loop_
_atom_site_label
_atom_site_type_symbol
_atom_site_fract_x
_atom_site_fract_y
_atom_site_fract_z
Zn1 Zn 0.73797(4) 0.97054(6) 0.78006(6)
Zn2 Zn 0.74319(4) 1.02837(6) 0.52349(6)
O1 O 0.8470(2) 1.0302(4) 0.6162(4)
O2 O 0.8436(2) 0.9862(4) 0.7926(4)
O3 O 0.6821(2) 0.9845(4) 0.6204(3)
H1 H 0.6728 0.9060 0.6182
N1 N 0.7209(3) 1.1098(4) 0.8791(4)
N2 N 0.7192(3) 1.2976(4) 0.9649(4)
N3 N 0.8715(3) 1.2936(5) 0.9055(5)
N4 N 0.9032(4) 1.2035(6) 0.9759(6)
N5 N 0.9718(4) 1.2352(7) 1.0236(7)
N6 N 0.9854(4) 1.3497(7) 0.9896(7)
N7 N 0.7135(3) 0.7989(4) 0.8241(4)
N8 N 0.7188(3) 0.6113(4) 0.9099(4)
N9 N 0.8397(3) 0.8211(5) 1.0551(4)
N10 N 0.8570(4) 0.9445(6) 1.0701(6)
N11 N 0.8497(4) 0.9803(6) 1.1675(5)
N12 N 0.8280(4) 0.8751(7) 1.2124(5)
C1 C 0.9215(4) 1.3838(8) 0.9166(8)
H2 H 0.9129 1.4604 0.8785
C2 C 0.7939(3) 1.2867(6) 0.8306(5)
H3 H 0.7921 1.2362 0.7647
H4 H 0.7764 1.3707 0.8051
C3 C 0.7442(3) 1.2294(5) 0.8917(5)
C4 C 0.6778(3) 1.0971(5) 0.9538(5)
C5 C 0.6404(4) 0.9922(6) 0.9777(6)
H5 H 0.6413 0.9146 0.9433
C6 C 0.6018(4) 1.0106(6) 1.0555(6)
H6 H 0.5769 0.9426 1.0749
C7 C 0.5989(4) 1.1260(6) 1.1053(6)
H7 H 0.5712 1.1343 1.1554
C8 C 0.6366(3) 1.2300(6) 1.0821(5)
H8 H 0.6354 1.3075 1.1166
C9 C 0.6765(3) 1.2131(5) 1.0046(5)
C10 C 0.8209(4) 0.7827(6) 1.1448(5)
H9 H 0.8052 0.7020 1.1561
C11 C 0.8351(3) 0.7383(6) 0.9587(5)
H10 H 0.8601 0.6592 0.9852
H11 H 0.8596 0.7776 0.9089
C12 C 0.7561(3) 0.7147(5) 0.8966(5)
C13 C 0.6420(3) 0.7465(5) 0.7886(5)
C14 C 0.5751(3) 0.7912(6) 0.7186(5)
H12 H 0.5725 0.8679 0.6813
C15 C 0.5127(4) 0.7198(6) 0.7058(6)
H13 H 0.4672 0.7479 0.6585
C16 C 0.5164(4) 0.6053(6) 0.7625(6)
H14 H 0.4727 0.5597 0.7527
C17 C 0.5812(4) 0.5577(6) 0.8316(6)
H15 H 0.5829 0.4809 0.8684
C18 C 0.6455(3) 0.6305(5) 0.8444(5)
C19 C 0.8778(4) 1.0054(6) 0.7199(6)
C20 C 0.9608(4) 1.0035(10) 0.7610(7)
H16 H 0.9781 0.9183 0.7617
H17 H 0.9778 1.0376 0.8361
H18 H 0.9801 1.0534 0.7115
Zn2C Zn 0.74319(4) 0.47163(6) 1.02349(6)
Zn2C_2 Zn 0.74319(4) 1.47163(6) 1.02349(6)
N2C N 0.7192(3) 1.2024(4) 0.4649(4)
N8C N 0.7188(3) 0.8887(4) 0.4099(4)
loop_
_geom_bond_atom_site_label_1
_geom_bond_atom_site_label_2
_geom_bond_site_symmetry_1
_geom_bond_site_symmetry_2
Zn1 O2 1_555 1_555
Zn2 O1 1_555 1_555
O1 C19 1_555 1_555
O2 C19 1_555 1_555
O3 Zn1 1_555 1_555
H1 O3 1_555 1_555
N1 Zn1 1_555 1_555
N2 C3 1_555 1_555
N3 N4 1_555 1_555
N4 N5 1_555 1_555
N5 N6 1_555 1_555
N6 C1 1_555 1_555
N7 Zn1 1_555 1_555
N8 C12 1_555 1_555
N9 N10 1_555 1_555
N10 N11 1_555 1_555
N11 N12 1_555 1_555
N12 C10 1_555 1_555
C1 N3 1_555 1_555
H2 C1 1_555 1_555
C2 N3 1_555 1_555
H3 C2 1_555 1_555
H4 C2 1_555 1_555
C3 N1 1_555 1_555
C4 N1 1_555 1_555
C5 C4 1_555 1_555
H5 C5 1_555 1_555
C6 C5 1_555 1_555
H6 C6 1_555 1_555
C7 C6 1_555 1_555
H7 C7 1_555 1_555
C8 C7 1_555 1_555
H8 C8 1_555 1_555
C9 N2 1_555 1_555
C10 N9 1_555 1_555
H9 C10 1_555 1_555
C11 N9 1_555 1_555
H10 C11 1_555 1_555
H11 C11 1_555 1_555
C12 N7 1_555 1_555
C13 N7 1_555 1_555
C14 C13 1_555 1_555
H12 C14 1_555 1_555
C15 C14 1_555 1_555
H13 C15 1_555 1_555
C16 C15 1_555 1_555
H14 C16 1_555 1_555
C17 C16 1_555 1_555
H15 C17 1_555 1_555
C18 N8 1_555 1_555
C19 C20 1_555 1_555
C20 H16 1_555 1_555
H17 C20 1_555 1_555
H18 C20 1_555 1_555
Zn2C N8 1_555 1_555
Zn2C_2 N2 1_555 1_555
N2C Zn2 1_555 1_555
N8C Zn2 1_555 1_555
Zn2 O3 1_555 1_555
C2 C3 1_555 1_555
C4 C9 1_555 1_555
C8 C9 1_555 1_555
C11 C12 1_555 1_555
C13 C18 1_555 1_555
C17 C18 1_555 1_555

#END
