
#######################################################################
#
#                 Cambridge Crystallographic Data Centre
#                                CCDC 
#
#######################################################################
#
# If this CIF has been generated from an entry in the Cambridge 
# Structural Database, then it will include bibliographic, chemical, 
# crystal, experimental, refinement or atomic coordinate data resulting 
# from the CCDC's data processing and validation procedures.
#
#######################################################################

data_VEJYEP
_symmetry_cell_setting           monoclinic
_symmetry_space_group_name_H-M   'P 21/n'
_symmetry_Int_Tables_number      14
_space_group_name_Hall           '-P 2yn'
loop_
_symmetry_equiv_pos_site_id
_symmetry_equiv_pos_as_xyz
1 x,y,z
2 1/2-x,1/2+y,1/2-z
3 -x,-y,-z
4 1/2+x,1/2-y,1/2+z
_cell_length_a                   9.7405(19)
_cell_length_b                   15.266(3)
_cell_length_c                   14.936(3)
_cell_angle_alpha                90
_cell_angle_beta                 98.62(3)
_cell_angle_gamma                90
_cell_volume                     2195.87
loop_
_atom_site_label
_atom_site_type_symbol
_atom_site_fract_x
_atom_site_fract_y
_atom_site_fract_z
C1 C 0.1733(3) 0.86471(17) 0.9015(2)
H1 H 0.2190 0.8560 0.8489
H2 H 0.0883 0.8306 0.8950
H3 H 0.2344 0.8460 0.9555
C2 C 0.1364(5) 0.9681(3) 0.9105(3)
C3 C -0.0808(2) 0.93023(18) 0.83641(17)
H4 H -0.0534 0.8691 0.8365
H5 H -0.1047 0.9504 0.7745
H6 H -0.1606 0.9364 0.8677
C4 C 0.0080(4) 1.08278(15) 0.8893(2)
H7 H 0.0781 1.1071 0.9357
H8 H -0.0834 1.0933 0.9055
H9 H 0.0146 1.1105 0.8317
N1 N 0.0320(3) 0.9815(3) 0.8816(2)
O1 O 0.2360(2) 1.00961(15) 0.94713(14)
C5 C 0.53008(16) 0.90801(12) 0.84328(11)
H10 H 0.5166 0.9318 0.8994
C6 C 0.54922(19) 0.89866(12) 0.70551(12)
H11 H 0.5524 0.9119 0.6444
C7 C 0.5737(2) 0.81934(12) 0.74432(13)
H12 H 0.5962 0.7683 0.7145
C8 C 0.6107(2) 1.18162(12) 0.51820(12)
H13 H 0.6036 1.2054 0.4596
C9 C 0.68632(18) 1.13613(11) 0.64793(11)
H14 H 0.7483 1.1223 0.7005
C10 C 0.04354(19) 1.04530(11) 0.61625(12)
H15 H -0.0333 1.0142 0.5865
C11 C 0.55590(18) 1.28158(11) 0.91618(13)
H16 H 0.6026 1.3339 0.9346
C12 C 0.1680(2) 1.01015(11) 0.65047(12)
H17 H 0.1929 0.9509 0.6473
C13 C 0.17558(18) 1.14622(11) 0.67618(11)
H18 H 0.2085 1.2020 0.6956
C14 C 0.50403(18) 1.14793(12) 0.55661(12)
H19 H 0.4106 1.1461 0.5293
C15 C 0.42709(17) 1.17049(11) 0.91013(12)
H20 H 0.3626 1.1291 0.9249
C16 C 0.56909(19) 1.23624(12) 0.84016(12)
H21 H 0.6256 1.2520 0.7970
N2 N 0.56081(13) 0.82495(9) 0.83356(9)
N3 N 0.51939(13) 0.95578(8) 0.76862(10)
N4 N 0.72772(13) 1.17526(8) 0.57785(9)
N5 N 0.04784(14) 1.13279(9) 0.63199(9)
N6 N 0.46551(13) 1.24006(9) 0.96133(9)
N7 N 0.25111(12) 1.07550(10) 0.69024(8)
N8 N 0.48714(14) 1.16439(9) 0.83677(9)
N9 N 0.55330(14) 1.11771(8) 0.63990(9)
Zn1 Zn 0.453172(19) 1.076070(13) 0.738978(13)
Zn2 Zn 0.58453(2) 0.726053(12) 0.920520(13)
N4A N 0.77228(13) 0.67526(8) 0.92215(9)
N5A N 0.45216(14) 0.63279(9) 0.86801(9)
N6B N 0.53449(13) 0.75994(9) 1.03867(9)
Zn2A Zn 0.91547(2) 1.226053(12) 0.579480(13)
Zn2A_2 Zn -0.08453(2) 1.226053(12) 0.579480(13)
Zn2B Zn 0.41547(2) 1.273947(12) 1.079480(13)
loop_
_geom_bond_atom_site_label_1
_geom_bond_atom_site_label_2
_geom_bond_site_symmetry_1
_geom_bond_site_symmetry_2
C1 H1 1_555 1_555
H2 C1 1_555 1_555
H3 C1 1_555 1_555
C2 C1 1_555 1_555
C3 H4 1_555 1_555
H5 C3 1_555 1_555
H6 C3 1_555 1_555
C4 H7 1_555 1_555
H8 C4 1_555 1_555
H9 C4 1_555 1_555
N1 C2 1_555 1_555
O1 C2 1_555 1_555
C5 H10 1_555 1_555
C6 H11 1_555 1_555
C7 C6 1_555 1_555
H12 C7 1_555 1_555
C8 H13 1_555 1_555
C9 H14 1_555 1_555
C10 H15 1_555 1_555
C11 H16 1_555 1_555
C12 C10 1_555 1_555
H17 C12 1_555 1_555
C13 H18 1_555 1_555
C14 C8 1_555 1_555
H19 C14 1_555 1_555
C15 H20 1_555 1_555
C16 C11 1_555 1_555
H21 C16 1_555 1_555
N2 C5 1_555 1_555
N3 C5 1_555 1_555
N4 C8 1_555 1_555
N5 C10 1_555 1_555
N6 C11 1_555 1_555
N7 C12 1_555 1_555
N8 C15 1_555 1_555
N9 C9 1_555 1_555
Zn1 N3 1_555 1_555
Zn2 N2 1_555 1_555
N4A Zn2 1_555 1_555
N5A Zn2 1_555 1_555
N6B Zn2 1_555 1_555
Zn2A N4 1_555 1_555
Zn2A_2 N5 1_555 1_555
Zn2B N6 1_555 1_555
C3 N1 1_555 1_555
C4 N1 1_555 1_555
C6 N3 1_555 1_555
C7 N2 1_555 1_555
C9 N4 1_555 1_555
C13 N5 1_555 1_555
C13 N7 1_555 1_555
C14 N9 1_555 1_555
C15 N6 1_555 1_555
C16 N8 1_555 1_555
N7 Zn1 1_555 1_555
N8 Zn1 1_555 1_555
N9 Zn1 1_555 1_555

#END
