
#######################################################################
#
#                 Cambridge Crystallographic Data Centre
#                                CCDC 
#
#######################################################################
#
# If this CIF has been generated from an entry in the Cambridge 
# Structural Database, then it will include bibliographic, chemical, 
# crystal, experimental, refinement or atomic coordinate data resulting 
# from the CCDC's data processing and validation procedures.
#
#######################################################################

data_VEJYUF01
_symmetry_cell_setting           orthorhombic
_symmetry_space_group_name_H-M   'P b c a'
_symmetry_Int_Tables_number      61
_space_group_name_Hall           '-P 2ac 2ab'
loop_
_symmetry_equiv_pos_site_id
_symmetry_equiv_pos_as_xyz
1 x,y,z
2 1/2-x,-y,1/2+z
3 -x,1/2+y,1/2-z
4 1/2+x,1/2-y,-z
5 -x,-y,-z
6 1/2+x,y,1/2-z
7 x,1/2-y,1/2+z
8 1/2-x,1/2+y,z
_cell_length_a                   15.379(5)
_cell_length_b                   15.449(5)
_cell_length_c                   18.407(6)
_cell_angle_alpha                90
_cell_angle_beta                 90
_cell_angle_gamma                90
_cell_volume                     4373.32
loop_
_atom_site_label
_atom_site_type_symbol
_atom_site_fract_x
_atom_site_fract_y
_atom_site_fract_z
Zn1 Zn 0.20052(3) 0.13963(3) 0.40614(3)
Zn2 Zn 0.50879(3) 0.33582(3) 0.31534(3)
N1 N 0.4424(2) 0.2358(2) 0.3542(2)
N2 N 0.3259(2) 0.1619(2) 0.3882(2)
N3 N 0.1000(2) 0.1330(2) 0.61329(18)
N4 N 0.1723(2) 0.1238(2) 0.50974(18)
N5 N 0.0765(2) -0.0678(2) 0.30859(18)
N6 N 0.1626(2) 0.0371(2) 0.34885(19)
N7 N 0.0617(2) 0.3115(2) 0.27986(18)
N8 N 0.1336(2) 0.2390(2) 0.36498(18)
C1 C 0.3565(3) 0.2346(3) 0.3606(2)
H1 H 0.3212 0.2806 0.3468
C2 C 0.3966(3) 0.1135(3) 0.4031(3)
H2 H 0.3964 0.0588 0.4243
C3 C 0.4684(3) 0.1582(4) 0.3820(3)
H3 H 0.5255 0.1391 0.3859
C4 C 0.1049(3) 0.1541(3) 0.5448(2)
H4 H 0.0632 0.1884 0.5223
C5 C 0.2155(4) 0.0787(5) 0.5614(3)
H5 H 0.2670 0.0482 0.5546
C6 C 0.1716(4) 0.0854(5) 0.6240(3)
H6 H 0.1883 0.0609 0.6680
C7 C 0.0952(3) -0.0127(3) 0.3620(2)
H7 H 0.0633 -0.0097 0.4048
C8 C 0.1895(4) 0.0127(4) 0.2823(3)
H8 H 0.2364 0.0360 0.2572
C9 C 0.1373(4) -0.0510(4) 0.2579(3)
H9 H 0.1424 -0.0788 0.2133
C10 C 0.0979(3) 0.2375(3) 0.2994(2)
H10 H 0.0982 0.1887 0.2698
C11 C 0.0759(4) 0.3644(3) 0.3371(3)
H11 H 0.0585 0.4219 0.3401
C12 C 0.1195(4) 0.3206(4) 0.3894(3)
H12 H 0.1367 0.3426 0.4342
Zn2C Zn 0.00879(3) 0.16418(3) 0.68466(3)
Zn2G Zn -0.00879(3) -0.16418(3) 0.31534(3)
Zn2E Zn 0.00879(3) 0.33582(3) 0.18466(3)
N3C N 0.6000(2) 0.3670(2) 0.38671(18)
N5G N 0.4235(2) 0.4322(2) 0.30859(18)
N7E N 0.5617(2) 0.3115(2) 0.22014(18)
N9 N 0.8209(5) 0.1823(6) 0.4001(4)
C13 C 0.7285(7) 0.1624(9) 0.3883(7)
H13 H 0.7019 0.1734 0.3439
C14 C 0.8662(13) 0.1910(15) 0.3282(8)
H14 H 0.9271 0.2010 0.3360
H15 H 0.8418 0.2389 0.3019
H16 H 0.8585 0.1388 0.3007
C15 C 0.8677(13) 0.1621(15) 0.4668(8)
H17 H 0.8273 0.1590 0.5065
H18 H 0.9099 0.2064 0.4762
H19 H 0.8966 0.1074 0.4615
O1 O 0.6900(5) 0.1327(5) 0.4362(5)
loop_
_geom_bond_atom_site_label_1
_geom_bond_atom_site_label_2
_geom_bond_site_symmetry_1
_geom_bond_site_symmetry_2
Zn1 N2 1_555 1_555
Zn2 N1 1_555 1_555
N1 C1 1_555 1_555
N2 C1 1_555 1_555
N3 C4 1_555 1_555
N4 Zn1 1_555 1_555
N5 C7 1_555 1_555
N6 Zn1 1_555 1_555
N7 C10 1_555 1_555
N8 Zn1 1_555 1_555
C1 H1 1_555 1_555
C2 N2 1_555 1_555
H2 C2 1_555 1_555
C3 N1 1_555 1_555
H3 C3 1_555 1_555
C4 N4 1_555 1_555
H4 C4 1_555 1_555
C5 N4 1_555 1_555
H5 C5 1_555 1_555
C6 N3 1_555 1_555
H6 C6 1_555 1_555
C7 N6 1_555 1_555
H7 C7 1_555 1_555
C8 N6 1_555 1_555
H8 C8 1_555 1_555
C9 N5 1_555 1_555
H9 C9 1_555 1_555
C10 N8 1_555 1_555
H10 C10 1_555 1_555
C11 N7 1_555 1_555
H11 C11 1_555 1_555
C12 N8 1_555 1_555
H12 C12 1_555 1_555
N9 C13 1_555 1_555
C13 H13 1_555 1_555
C14 N9 1_555 1_555
H14 C14 1_555 1_555
H15 C14 1_555 1_555
H16 C14 1_555 1_555
C15 N9 1_555 1_555
H17 C15 1_555 1_555
H18 C15 1_555 1_555
H19 C15 1_555 1_555
O1 C13 1_555 1_555
Zn2C N3 1_555 1_555
Zn2G N5 1_555 1_555
Zn2E N7 1_555 1_555
N3C Zn2 1_555 1_555
N5G Zn2 1_555 1_555
N7E Zn2 1_555 1_555
C2 C3 1_555 1_555
C5 C6 1_555 1_555
C8 C9 1_555 1_555
C11 C12 1_555 1_555

#END
