
#######################################################################
#
#                 Cambridge Crystallographic Data Centre
#                                CCDC 
#
#######################################################################
#
# If this CIF has been generated from an entry in the Cambridge 
# Structural Database, then it will include bibliographic, chemical, 
# crystal, experimental, refinement or atomic coordinate data resulting 
# from the CCDC's data processing and validation procedures.
#
#######################################################################

data_VEJYUF02
_symmetry_cell_setting           orthorhombic
_symmetry_space_group_name_H-M   'P b c a'
_symmetry_Int_Tables_number      61
_space_group_name_Hall           '-P 2ac 2ab'
loop_
_symmetry_equiv_pos_site_id
_symmetry_equiv_pos_as_xyz
1 x,y,z
2 1/2+x,1/2-y,-z
3 -x,1/2+y,1/2-z
4 1/2-x,-y,1/2+z
5 -x,-y,-z
6 1/2-x,1/2+y,z
7 x,1/2-y,1/2+z
8 1/2+x,y,1/2-z
_cell_length_a                   15.3486(14)
_cell_length_b                   15.1069(17)
_cell_length_c                   18.3430(19)
_cell_angle_alpha                90
_cell_angle_beta                 90
_cell_angle_gamma                90
_cell_volume                     4253.19
loop_
_atom_site_label
_atom_site_type_symbol
_atom_site_fract_x
_atom_site_fract_y
_atom_site_fract_z
Zn1 Zn 0.20565(15) 0.13848(17) 0.40844(13)
Zn2 Zn 0.51268(15) 0.33706(17) 0.31330(13)
N1 N 0.4461(8) 0.2344(10) 0.3538(8)
N2 N 0.3306(6) 0.1608(9) 0.3901(9)
N3 N 0.1058(8) 0.1310(11) 0.6165(6)
N4 N 0.1790(10) 0.1225(13) 0.5127(6)
N5 N 0.0759(9) -0.0669(10) 0.3053(8)
N6 N 0.1630(10) 0.0369(10) 0.3492(7)
N7 N 0.0644(11) 0.3127(10) 0.2824(7)
N8 N 0.1395(10) 0.2406(9) 0.3660(7)
C1 C 0.3614(8) 0.2341(10) 0.3611(10)
C2 C 0.4004(9) 0.1135(10) 0.4048(12)
C3 C 0.4718(7) 0.1586(12) 0.3826(12)
C4 C 0.1096(10) 0.1520(13) 0.5474(7)
C5 C 0.2223(12) 0.0812(18) 0.5639(9)
C6 C 0.1790(13) 0.0874(18) 0.6278(7)
C7 C 0.0966(11) -0.0157(12) 0.3606(7)
C8 C 0.1898(12) 0.0146(14) 0.2834(9)
C9 C 0.1353(13) -0.0473(14) 0.2564(8)
C10 C 0.1033(13) 0.2385(10) 0.3011(8)
C11 C 0.0791(16) 0.3661(9) 0.3374(10)
C12 C 0.1217(15) 0.3208(11) 0.3899(8)
H1 H 0.3261 0.2811 0.3469
H2 H 0.4007 0.0582 0.4271
H3 H 0.5291 0.1394 0.3866
H4 H 0.0668 0.1855 0.5244
H5 H 0.2752 0.0523 0.5573
H6 H 0.1973 0.0643 0.6723
H7 H 0.0662 -0.0168 0.4045
H8 H 0.2384 0.0376 0.2598
H9 H 0.1391 -0.0719 0.2100
H10 H 0.1054 0.1890 0.2710
H11 H 0.0633 0.4254 0.3396
H12 H 0.1358 0.3428 0.4358
Zn2E Zn -0.01268(15) -0.16294(17) 0.31330(13)
Zn2A Zn 0.01268(15) 0.16294(17) 0.68670(13)
Zn2G Zn 0.01268(15) 0.33706(17) 0.18670(13)
N3A N 0.6058(8) 0.3690(11) 0.3835(6)
N5E N 0.4241(9) 0.4331(10) 0.3053(8)
N7G N 0.5644(11) 0.3127(10) 0.2176(7)
N9 N 0.8223(18) 0.1775(18) 0.3981(16)
C13 C 0.7287(19) 0.162(3) 0.3868(17)
C14 C 0.867(3) 0.192(3) 0.327(2)
C15 C 0.869(2) 0.157(4) 0.465(2)
O1 O 0.6902(16) 0.128(2) 0.4332(17)
H13 H 0.7013 0.1794 0.3439
H14 H 0.9279 0.2014 0.3344
H15 H 0.8420 0.2424 0.3028
H16 H 0.8589 0.1404 0.2963
H17 H 0.9296 0.1728 0.4590
H18 H 0.8450 0.1903 0.5047
H19 H 0.8648 0.0950 0.4751
loop_
_geom_bond_atom_site_label_1
_geom_bond_atom_site_label_2
_geom_bond_site_symmetry_1
_geom_bond_site_symmetry_2
Zn1 N2 1_555 1_555
Zn2 N1 1_555 1_555
N1 C1 1_555 1_555
N2 C1 1_555 1_555
N3 C4 1_555 1_555
N4 Zn1 1_555 1_555
N5 C7 1_555 1_555
N6 Zn1 1_555 1_555
N7 C10 1_555 1_555
N8 Zn1 1_555 1_555
C1 H1 1_555 1_555
C2 N2 1_555 1_555
C3 N1 1_555 1_555
C4 N4 1_555 1_555
C5 N4 1_555 1_555
C6 N3 1_555 1_555
C7 N6 1_555 1_555
C8 N6 1_555 1_555
C9 N5 1_555 1_555
C10 N8 1_555 1_555
C11 N7 1_555 1_555
C12 N8 1_555 1_555
H2 C2 1_555 1_555
H3 C3 1_555 1_555
H4 C4 1_555 1_555
H5 C5 1_555 1_555
H6 C6 1_555 1_555
H7 C7 1_555 1_555
H8 C8 1_555 1_555
H9 C9 1_555 1_555
H10 C10 1_555 1_555
H11 C11 1_555 1_555
H12 C12 1_555 1_555
N9 C13 1_555 1_555
C13 O1 1_555 1_555
C14 N9 1_555 1_555
C15 N9 1_555 1_555
H13 C13 1_555 1_555
H14 C14 1_555 1_555
H15 C14 1_555 1_555
H16 C14 1_555 1_555
H17 C15 1_555 1_555
H18 C15 1_555 1_555
H19 C15 1_555 1_555
Zn2E N5 1_555 1_555
Zn2A N3 1_555 1_555
Zn2G N7 1_555 1_555
N3A Zn2 1_555 1_555
N5E Zn2 1_555 1_555
N7G Zn2 1_555 1_555
C2 C3 1_555 1_555
C5 C6 1_555 1_555
C8 C9 1_555 1_555
C11 C12 1_555 1_555

#END
