
#######################################################################
#
#                 Cambridge Crystallographic Data Centre
#                                CCDC 
#
#######################################################################
#
# If this CIF has been generated from an entry in the Cambridge 
# Structural Database, then it will include bibliographic, chemical, 
# crystal, experimental, refinement or atomic coordinate data resulting 
# from the CCDC's data processing and validation procedures.
#
#######################################################################

data_VEJYUV05
_symmetry_cell_setting           monoclinic
_symmetry_space_group_name_H-M   'P 21/c'
_symmetry_Int_Tables_number      14
_space_group_name_Hall           '-P 2ybc'
loop_
_symmetry_equiv_pos_site_id
_symmetry_equiv_pos_as_xyz
1 x,y,z
2 -x,1/2+y,1/2-z
3 -x,-y,-z
4 x,1/2-y,1/2+z
_cell_length_a                   17.450(5)
_cell_length_b                   13.912(5)
_cell_length_c                   14.118(5)
_cell_angle_alpha                90
_cell_angle_beta                 102.18(3)
_cell_angle_gamma                90
_cell_volume                     3350.2
loop_
_atom_site_label
_atom_site_type_symbol
_atom_site_fract_x
_atom_site_fract_y
_atom_site_fract_z
Zn1 Zn 0.2055(6) 1.0291(7) 0.3997(8)
Zn2 Zn 0.0635(6) 0.7239(6) 0.5924(8)
Zn3 Zn 0.2924(6) 0.9574(7) 0.8590(8)
Zn4 Zn 0.4145(6) 1.1932(7) 0.2062(8)
C1 C 0.328(2) 1.126(2) 0.335(2)
C2 C 0.384(3) 1.0142(19) 0.4278(17)
C3 C 0.4379(19) 1.057(3) 0.386(2)
C4 C 0.120(3) 0.873(5) 0.4777(12)
C5 C 0.238(2) 0.838(5) 0.4713(11)
C6 C 0.201(4) 0.757(3) 0.4917(11)
C7 C 0.072(3) 1.158(3) 0.4117(16)
C8 C 0.113(4) 1.287(3) 0.4878(19)
C9 C 0.176(2) 1.231(4) 0.483(2)
C10 C 0.132(2) 0.909(3) 0.217(5)
C11 C 0.0650(16) 1.008(5) 0.117(3)
C12 C 0.103(2) 1.057(3) 0.196(4)
C13 C 0.175(3) 0.845(2) 0.727(3)
C14 C 0.118(3) 0.891(2) 0.838(2)
C15 C 0.067(2) 0.839(2) 0.773(4)
C16 C 0.355(2) 1.082(2) 0.024(3)
C17 C 0.268(3) 1.092(2) 0.109(3)
C18 C 0.238(2) 1.042(2) 0.028(4)
C19 C 0.556(3) 1.113(3) 0.1669(19)
C20 C 0.600(3) 1.215(4) 0.0804(18)
C21 C 0.534(3) 1.251(3) 0.103(3)
C22 C 0.3503(15) 1.370(4) 0.285(3)
C23 C 0.3280(13) 1.469(3) 0.167(4)
C24 C 0.3564(15) 1.387(5) 0.136(3)
N1 N 0.314(2) 1.058(3) 0.396(2)
N2 N 0.403(3) 1.128(2) 0.3267(19)
N3 N 0.187(4) 0.912(3) 0.4623(9)
N4 N 0.127(3) 0.779(4) 0.4962(9)
N5 N 0.151(4) 1.149(3) 0.435(2)
N6 N 0.047(3) 1.242(4) 0.443(3)
N7 N 0.1453(17) 0.996(5) 0.261(3)
N8 N 0.083(3) 0.914(4) 0.130(4)
N9 N 0.102(3) 0.8091(17) 0.702(3)
N10 N 0.187(2) 0.896(2) 0.809(3)
N11 N 0.292(3) 1.0343(17) -0.027(2)
N12 N 0.342(3) 1.1179(16) 0.108(3)
N13 N 0.615(2) 1.127(4) 0.121(3)
N14 N 0.505(2) 1.186(5) 0.158(3)
N15 N 0.3238(11) 1.459(4) 0.261(4)
N16 N 0.3709(10) 1.323(3) 0.211(5)
H1 H 0.2891 1.1689 0.3014
H2 H 0.3934 0.9622 0.4723
H3 H 0.4917 1.0394 0.3961
H4 H 0.0735 0.9089 0.4759
H5 H 0.2908 0.8416 0.4644
H6 H 0.2244 0.6946 0.5012
H7 H 0.0384 1.1107 0.3771
H8 H 0.1156 1.3483 0.5179
H9 H 0.2295 1.2470 0.5094
H10 H 0.1543 0.8511 0.2462
H11 H 0.0314 1.0348 0.0620
H12 H 0.0994 1.1249 0.2050
H13 H 0.2137 0.8357 0.6892
H14 H 0.1080 0.9201 0.8953
H15 H 0.0141 0.8251 0.7773
H16 H 0.4028 1.0885 0.0027
H17 H 0.2413 1.1073 0.1597
H18 H 0.1861 1.0155 0.0123
H19 H 0.5509 1.0560 0.2027
H20 H 0.6311 1.2468 0.0420
H21 H 0.5110 1.3116 0.0827
H22 H 0.3542 1.3427 0.3472
H23 H 0.3132 1.5252 0.1287
H24 H 0.3648 1.3759 0.0729
Zn1B Zn -0.2055(6) 0.9709(7) 0.6003(8)
Zn2B Zn -0.0635(6) 1.2761(6) 0.4076(8)
Zn2A Zn -0.0635(6) 1.2239(6) 0.9076(8)
Zn2C Zn 0.0635(6) 0.7761(6) 0.0924(8)
Zn3B Zn -0.2924(6) 1.0426(7) 0.1410(8)
Zn3_2 Zn -0.7076(6) 0.9574(7) 0.8590(8)
Zn3_3 Zn 0.2924(6) 0.9574(7) -0.1410(8)
Zn3B_2 Zn -0.2924(6) 1.0426(7) 1.1410(8)
Zn3B_3 Zn 0.7076(6) 1.0426(7) 0.1410(8)
Zn3A Zn -0.2924(6) 0.4574(7) 0.6410(8)
Zn3C Zn 0.2924(6) 1.5426(7) 0.3590(8)
Zn4B Zn -0.4145(6) 0.8068(7) 0.7938(8)
C1B C -0.328(2) 0.874(2) 0.665(2)
C2B C -0.384(3) 0.9858(19) 0.5722(17)
C3B C -0.4379(19) 0.943(3) 0.614(2)
C4B C -0.120(3) 1.127(5) 0.5223(12)
C5B C -0.238(2) 1.162(5) 0.5287(11)
C6B C -0.201(4) 1.243(3) 0.5083(11)
C7B C -0.072(3) 0.842(3) 0.5883(16)
C8B C -0.113(4) 0.713(3) 0.5122(19)
C9B C -0.176(2) 0.769(4) 0.517(2)
C10B C -0.132(2) 1.091(3) 0.783(5)
C11B C -0.0650(16) 0.992(5) 0.883(3)
C12B C -0.103(2) 0.943(3) 0.804(4)
C13B C -0.175(3) 1.155(2) 0.273(3)
C14B C -0.118(3) 1.109(2) 0.162(2)
C15B C -0.067(2) 1.161(2) 0.227(4)
C16B C -0.355(2) 0.918(2) 0.976(3)
C17B C -0.268(3) 0.908(2) 0.891(3)
C18B C -0.238(2) 0.958(2) 0.972(4)
C19B C -0.556(3) 0.887(3) 0.8331(19)
C20B C -0.600(3) 0.785(4) 0.9196(18)
C21B C -0.534(3) 0.749(3) 0.897(3)
C22B C -0.3503(15) 0.630(4) 0.715(3)
C23B C -0.3280(13) 0.531(3) 0.833(4)
C24B C -0.3564(15) 0.613(5) 0.864(3)
N1B N -0.314(2) 0.942(3) 0.604(2)
N2B N -0.403(3) 0.872(2) 0.6733(19)
N3B N -0.187(4) 1.088(3) 0.5377(9)
N4B N -0.127(3) 1.221(4) 0.5038(9)
N5B N -0.151(4) 0.851(3) 0.565(2)
N6B N -0.047(3) 0.758(4) 0.557(3)
N7B N -0.1453(17) 1.004(5) 0.739(3)
N8B N -0.083(3) 1.086(4) 0.870(4)
N8A N -0.083(3) 1.414(4) 0.370(4)
N8C N 0.083(3) 0.586(4) 0.630(4)
N9B N -0.102(3) 1.1909(17) 0.298(3)
N10B N -0.187(2) 1.104(2) 0.191(3)
N11B N -0.292(3) 0.9657(17) 1.027(2)
N11_2 N 0.292(3) 1.0343(17) 0.973(2)
N11B_2 N -0.292(3) 0.9657(17) 0.027(2)
N12B N -0.342(3) 0.8821(16) 0.892(3)
N13B N -0.615(2) 0.873(4) 0.879(3)
N13_2 N -0.385(2) 1.127(4) 0.121(3)
N13B_2 N 0.385(2) 0.873(4) 0.879(3)
N14B N -0.505(2) 0.814(5) 0.842(3)
N15B N -0.3238(11) 0.541(4) 0.739(4)
N15A N -0.3238(11) 0.959(4) 0.239(4)
N15C N 0.3238(11) 1.041(4) 0.761(4)
N16B N -0.3709(10) 0.677(3) 0.789(5)
H1B H -0.2891 0.8311 0.6986
H2B H -0.3934 1.0378 0.5277
H3B H -0.4917 0.9606 0.6039
H4B H -0.0735 1.0911 0.5241
H5B H -0.2908 1.1584 0.5356
H6B H -0.2244 1.3054 0.4988
H7B H -0.0384 0.8893 0.6229
H8B H -0.1156 0.6517 0.4821
H9B H -0.2295 0.7530 0.4906
H10B H -0.1543 1.1489 0.7538
H11B H -0.0314 0.9652 0.9380
H12B H -0.0994 0.8751 0.7950
H13B H -0.2137 1.1643 0.3108
H14B H -0.1080 1.0799 0.1047
H15B H -0.0141 1.1749 0.2227
H16B H -0.4028 0.9115 0.9973
H17B H -0.2413 0.8927 0.8403
H18B H -0.1861 0.9845 0.9877
H19B H -0.5509 0.9440 0.7973
H20B H -0.6311 0.7532 0.9580
H21B H -0.5110 0.6884 0.9173
H22B H -0.3542 0.6573 0.6528
H23B H -0.3132 0.4748 0.8713
H24B H -0.3648 0.6241 0.9271
C25 C 0.314(4) 0.648(6) 0.714(7)
C26 C 0.453(4) 0.616(5) 0.677(7)
C27 C 0.386(5) 0.780(4) 0.662(8)
N17 N 0.383(4) 0.676(4) 0.672(4)
O1 O 0.431(4) 0.812(4) 0.621(6)
H25 H 0.2755 0.6981 0.7019
H26 H 0.3315 0.6389 0.7825
H27 H 0.2922 0.5895 0.6844
H28 H 0.4891 0.6481 0.6448
H29 H 0.4777 0.6046 0.7433
H30 H 0.4384 0.5552 0.6453
H31 H 0.3490 0.8219 0.6865
C28 C 0.169(4) 1.350(6) 0.187(7)
C29 C 0.071(5) 1.459(6) 0.099(5)
C30 C 0.039(4) 1.358(6) 0.241(6)
N18 N 0.095(3) 1.397(4) 0.187(4)
O2 O 0.163(4) 1.287(5) 0.239(6)
H32 H 0.0220 1.4895 0.1000
H33 H 0.1107 1.5075 0.0998
H34 H 0.0664 1.4206 0.0420
H35 H -0.0067 1.3984 0.2326
H36 H 0.0628 1.3545 0.3091
H37 H 0.0235 1.2944 0.2178
H38 H 0.2117 1.3668 0.1541
loop_
_geom_bond_atom_site_label_1
_geom_bond_atom_site_label_2
_geom_bond_site_symmetry_1
_geom_bond_site_symmetry_2
Zn1 N1 1_555 1_555
Zn2 N4 1_555 1_555
Zn3 N10 1_555 1_555
Zn4 N2 1_555 1_555
C1 N1 1_555 1_555
C2 C3 1_555 1_555
C3 N2 1_555 1_555
C4 N3 1_555 1_555
C5 C6 1_555 1_555
C6 N4 1_555 1_555
C7 N5 1_555 1_555
C8 C9 1_555 1_555
C9 N5 1_555 1_555
C10 N7 1_555 1_555
C11 C12 1_555 1_555
C12 N7 1_555 1_555
C13 N9 1_555 1_555
C14 C15 1_555 1_555
C15 N9 1_555 1_555
C16 N11 1_555 1_555
C17 C18 1_555 1_555
C18 N11 1_555 1_555
C19 N13 1_555 1_555
C20 C21 1_555 1_555
C21 N14 1_555 1_555
C22 N15 1_555 1_555
C23 C24 1_555 1_555
C24 N16 1_555 1_555
N1 C2 1_555 1_555
N2 C1 1_555 1_555
N3 Zn1 1_555 1_555
N4 C4 1_555 1_555
N5 Zn1 1_555 1_555
N6 C7 1_555 1_555
N7 Zn1 1_555 1_555
N8 C10 1_555 1_555
N9 Zn2 1_555 1_555
N10 C13 1_555 1_555
N11 Zn3_3 1_555 1_555
N12 Zn4 1_555 1_555
N13 C20 1_555 1_555
N14 Zn4 1_555 1_555
N15 C23 1_555 1_555
N16 Zn4 1_555 1_555
H1 C1 1_555 1_555
H2 C2 1_555 1_555
H3 C3 1_555 1_555
H4 C4 1_555 1_555
H5 C5 1_555 1_555
H6 C6 1_555 1_555
H7 C7 1_555 1_555
H8 C8 1_555 1_555
H9 C9 1_555 1_555
H10 C10 1_555 1_555
H11 C11 1_555 1_555
H12 C12 1_555 1_555
H13 C13 1_555 1_555
H14 C14 1_555 1_555
H15 C15 1_555 1_555
H16 C16 1_555 1_555
H17 C17 1_555 1_555
H18 C18 1_555 1_555
H19 C19 1_555 1_555
H20 C20 1_555 1_555
H21 C21 1_555 1_555
H22 C22 1_555 1_555
H23 C23 1_555 1_555
H24 C24 1_555 1_555
C25 N17 1_555 1_555
C26 N17 1_555 1_555
C27 N17 1_555 1_555
O1 C27 1_555 1_555
H25 C25 1_555 1_555
H26 C25 1_555 1_555
H27 C25 1_555 1_555
H28 C26 1_555 1_555
H29 C26 1_555 1_555
H30 C26 1_555 1_555
H31 C27 1_555 1_555
C28 N18 1_555 1_555
C29 N18 1_555 1_555
C30 N18 1_555 1_555
O2 C28 1_555 1_555
H32 C29 1_555 1_555
H33 C29 1_555 1_555
H34 C29 1_555 1_555
H35 C30 1_555 1_555
H36 C30 1_555 1_555
H37 C30 1_555 1_555
H38 C28 1_555 1_555
Zn1B N1B 1_555 1_555
Zn2B N6 1_555 1_555
Zn2A N8B 1_555 1_555
Zn2C N8 1_555 1_555
Zn3B N10B 1_555 1_555
Zn3_2 N13B 1_555 1_555
Zn3B_2 N11B 1_555 1_555
Zn3B_3 N13 1_555 1_555
Zn3A N15B 1_555 1_555
Zn3C N15 1_555 1_555
Zn4B N2B 1_555 1_555
C1B N1B 1_555 1_555
C2B C3B 1_555 1_555
C3B N2B 1_555 1_555
C4B N3B 1_555 1_555
C5B C6B 1_555 1_555
C6B N4B 1_555 1_555
C7B N5B 1_555 1_555
C8B C9B 1_555 1_555
C9B N5B 1_555 1_555
C10B N7B 1_555 1_555
C11B C12B 1_555 1_555
C12B N7B 1_555 1_555
C13B N9B 1_555 1_555
C14B C15B 1_555 1_555
C15B N9B 1_555 1_555
C16B N11B 1_555 1_555
C17B C18B 1_555 1_555
C18B N11B 1_555 1_555
C19B N13B 1_555 1_555
C20B C21B 1_555 1_555
C21B N14B 1_555 1_555
C22B N15B 1_555 1_555
C23B C24B 1_555 1_555
C24B N16B 1_555 1_555
N1B C2B 1_555 1_555
N2B C1B 1_555 1_555
N3B Zn1B 1_555 1_555
N4B Zn2B 1_555 1_555
N5B Zn1B 1_555 1_555
N6B Zn2 1_555 1_555
N7B Zn1B 1_555 1_555
N8B C10B 1_555 1_555
N8A Zn2B 1_555 1_555
N8C Zn2 1_555 1_555
N9B Zn2B 1_555 1_555
N10B C13B 1_555 1_555
N11_2 Zn3 1_555 1_555
N11B_2 Zn3B 1_555 1_555
N12B Zn4B 1_555 1_555
N13B C20B 1_555 1_555
N13_2 Zn3B 1_555 1_555
N13B_2 Zn3 1_555 1_555
N14B Zn4B 1_555 1_555
N15B C23B 1_555 1_555
N15A Zn3B 1_555 1_555
N15C Zn3 1_555 1_555
N16B Zn4B 1_555 1_555
H1B C1B 1_555 1_555
H2B C2B 1_555 1_555
H3B C3B 1_555 1_555
H4B C4B 1_555 1_555
H5B C5B 1_555 1_555
H6B C6B 1_555 1_555
H7B C7B 1_555 1_555
H8B C8B 1_555 1_555
H9B C9B 1_555 1_555
H10B C10B 1_555 1_555
H11B C11B 1_555 1_555
H12B C12B 1_555 1_555
H13B C13B 1_555 1_555
H14B C14B 1_555 1_555
H15B C15B 1_555 1_555
H16B C16B 1_555 1_555
H17B C17B 1_555 1_555
H18B C18B 1_555 1_555
H19B C19B 1_555 1_555
H20B C20B 1_555 1_555
H21B C21B 1_555 1_555
H22B C22B 1_555 1_555
H23B C23B 1_555 1_555
H24B C24B 1_555 1_555
C5 N3 1_555 1_555
C8 N6 1_555 1_555
C11 N8 1_555 1_555
C14 N10 1_555 1_555
C16 N12 1_555 1_555
C17 N12 1_555 1_555
C19 N14 1_555 1_555
C22 N16 1_555 1_555
C4B N4B 1_555 1_555
C5B N3B 1_555 1_555
C7B N6B 1_555 1_555
C8B N6B 1_555 1_555
C11B N8B 1_555 1_555
C14B N10B 1_555 1_555
C16B N12B 1_555 1_555
C17B N12B 1_555 1_555
C19B N14B 1_555 1_555
C22B N16B 1_555 1_555

#END
