
#######################################################################
#
#                 Cambridge Crystallographic Data Centre
#                                CCDC 
#
#######################################################################
#
# If this CIF has been generated from an entry in the Cambridge 
# Structural Database, then it will include bibliographic, chemical, 
# crystal, experimental, refinement or atomic coordinate data resulting 
# from the CCDC's data processing and validation procedures.
#
#######################################################################

data_VEJYUV04
_symmetry_cell_setting           monoclinic
_symmetry_space_group_name_H-M   'P 21/c'
_symmetry_Int_Tables_number      14
_space_group_name_Hall           '-P 2ybc'
loop_
_symmetry_equiv_pos_site_id
_symmetry_equiv_pos_as_xyz
1 x,y,z
2 -x,1/2+y,1/2-z
3 -x,-y,-z
4 x,1/2-y,1/2+z
_cell_length_a                   17.4068(18)
_cell_length_b                   14.0783(17)
_cell_length_c                   14.5050(17)
_cell_angle_alpha                90
_cell_angle_beta                 101.853(9)
_cell_angle_gamma                90
_cell_volume                     3478.78
loop_
_atom_site_label
_atom_site_type_symbol
_atom_site_fract_x
_atom_site_fract_y
_atom_site_fract_z
Zn1 Zn 0.2036(6) 1.0287(6) 0.3943(7)
Zn2 Zn 0.0662(6) 0.7312(6) 0.5968(7)
Zn3 Zn 0.2919(6) 0.9628(7) 0.8567(7)
Zn4 Zn 0.4113(6) 1.1924(6) 0.2016(7)
C1 C 0.317(2) 1.123(2) 0.329(2)
C2 C 0.381(3) 1.0214(17) 0.4236(17)
C3 C 0.4307(19) 1.064(3) 0.376(2)
C4 C 0.122(2) 0.875(4) 0.4817(16)
C5 C 0.240(2) 0.835(4) 0.4799(16)
C6 C 0.204(3) 0.761(3) 0.5129(13)
C7 C 0.070(3) 1.160(3) 0.4054(15)
C8 C 0.115(3) 1.285(2) 0.4818(17)
C9 C 0.176(2) 1.228(3) 0.4750(18)
C10 C 0.139(2) 0.906(4) 0.232(4)
C11 C 0.0740(15) 0.982(5) 0.115(3)
C12 C 0.102(2) 1.045(3) 0.185(4)
C13 C 0.180(3) 0.860(3) 0.737(3)
C14 C 0.120(3) 0.893(2) 0.847(3)
C15 C 0.073(2) 0.837(3) 0.783(4)
C16 C 0.356(2) 1.083(2) 0.021(3)
C17 C 0.271(3) 1.092(2) 0.107(3)
C18 C 0.2405(19) 1.039(2) 0.030(3)
C19 C 0.559(3) 1.119(3) 0.175(2)
C20 C 0.599(3) 1.201(4) 0.071(2)
C21 C 0.532(3) 1.241(2) 0.088(3)
C22 C 0.3391(12) 1.366(3) 0.280(2)
C23 C 0.3286(12) 1.467(3) 0.169(3)
C24 C 0.3573(11) 1.386(4) 0.140(2)
N1 N 0.308(2) 1.058(3) 0.394(2)
N2 N 0.391(3) 1.129(2) 0.3162(19)
N3 N 0.189(3) 0.908(3) 0.4597(11)
N4 N 0.129(3) 0.786(4) 0.5144(13)
N5 N 0.149(3) 1.148(3) 0.427(2)
N6 N 0.047(2) 1.242(4) 0.438(2)
N7 N 0.1435(17) 0.998(5) 0.260(3)
N8 N 0.097(2) 0.894(3) 0.145(5)
N9 N 0.110(4) 0.8154(19) 0.713(3)
N10 N 0.188(3) 0.908(2) 0.818(4)
N11 N 0.294(3) 1.0329(18) -0.025(2)
N12 N 0.344(3) 1.1196(16) 0.102(3)
N13 N 0.616(2) 1.123(3) 0.126(3)
N14 N 0.5064(19) 1.190(4) 0.154(3)
N15 N 0.3169(8) 1.456(3) 0.257(3)
N16 N 0.3642(9) 1.321(2) 0.210(3)
H1 H 0.2755 1.1616 0.2951
H2 H 0.3931 0.9726 0.4695
H3 H 0.4851 1.0500 0.3855
H4 H 0.0754 0.9117 0.4772
H5 H 0.2921 0.8362 0.4696
H6 H 0.2275 0.7015 0.5307
H7 H 0.0364 1.1109 0.3758
H8 H 0.1164 1.3470 0.5071
H9 H 0.2294 1.2452 0.4975
H10 H 0.1578 0.8506 0.2669
H11 H 0.0460 1.0055 0.0560
H12 H 0.0991 1.1124 0.1873
H13 H 0.2160 0.8564 0.6964
H14 H 0.1109 0.9186 0.9046
H15 H 0.0224 0.8172 0.7920
H16 H 0.4043 1.0896 0.0001
H17 H 0.2432 1.1087 0.1548
H18 H 0.1900 1.0108 0.0161
H19 H 0.5568 1.0719 0.2211
H20 H 0.6281 1.2239 0.0270
H21 H 0.5069 1.2957 0.0571
H22 H 0.3377 1.3362 0.3381
H23 H 0.3188 1.5248 0.1341
H24 H 0.3693 1.3764 0.0796
Zn1B Zn -0.2036(6) 0.9713(6) 0.6057(7)
Zn2B Zn -0.0662(6) 1.2688(6) 0.4032(7)
Zn2A Zn -0.0662(6) 1.2312(6) 0.9032(7)
Zn2C Zn 0.0662(6) 0.7688(6) 0.0968(7)
Zn3B Zn -0.2919(6) 1.0372(7) 0.1433(7)
Zn3_2 Zn -0.7081(6) 0.9628(7) 0.8567(7)
Zn3_3 Zn 0.2919(6) 0.9628(7) -0.1433(7)
Zn3B_2 Zn -0.2919(6) 1.0372(7) 1.1433(7)
Zn3B_3 Zn 0.7081(6) 1.0372(7) 0.1433(7)
Zn3A Zn -0.2919(6) 0.4628(7) 0.6433(7)
Zn3C Zn 0.2919(6) 1.5372(7) 0.3567(7)
Zn4B Zn -0.4113(6) 0.8076(6) 0.7984(7)
C1B C -0.317(2) 0.877(2) 0.671(2)
C2B C -0.381(3) 0.9786(17) 0.5764(17)
C3B C -0.4307(19) 0.936(3) 0.624(2)
C4B C -0.122(2) 1.125(4) 0.5183(16)
C5B C -0.240(2) 1.165(4) 0.5201(16)
C6B C -0.204(3) 1.239(3) 0.4871(13)
C7B C -0.070(3) 0.840(3) 0.5946(15)
C8B C -0.115(3) 0.715(2) 0.5182(17)
C9B C -0.176(2) 0.772(3) 0.5250(18)
C10B C -0.139(2) 1.094(4) 0.768(4)
C11B C -0.0740(15) 1.018(5) 0.885(3)
C12B C -0.102(2) 0.955(3) 0.815(4)
C13B C -0.180(3) 1.140(3) 0.263(3)
C14B C -0.120(3) 1.107(2) 0.153(3)
C15B C -0.073(2) 1.163(3) 0.217(4)
C16B C -0.356(2) 0.917(2) 0.979(3)
C17B C -0.271(3) 0.908(2) 0.893(3)
C18B C -0.2405(19) 0.961(2) 0.970(3)
C19B C -0.559(3) 0.881(3) 0.825(2)
C20B C -0.599(3) 0.799(4) 0.929(2)
C21B C -0.532(3) 0.759(2) 0.912(3)
C22B C -0.3391(12) 0.634(3) 0.720(2)
C23B C -0.3286(12) 0.533(3) 0.831(3)
C24B C -0.3573(11) 0.614(4) 0.860(2)
N1B N -0.308(2) 0.942(3) 0.606(2)
N2B N -0.391(3) 0.871(2) 0.6838(19)
N3B N -0.189(3) 1.092(3) 0.5403(11)
N4B N -0.129(3) 1.214(4) 0.4856(13)
N5B N -0.149(3) 0.852(3) 0.573(2)
N6B N -0.047(2) 0.758(4) 0.562(2)
N7B N -0.1435(17) 1.002(5) 0.740(3)
N8B N -0.097(2) 1.106(3) 0.855(5)
N8A N -0.097(2) 1.394(3) 0.355(5)
N8C N 0.097(2) 0.606(3) 0.645(5)
N9B N -0.110(4) 1.1846(19) 0.287(3)
N10B N -0.188(3) 1.092(2) 0.182(4)
N11B N -0.294(3) 0.9671(18) 1.025(2)
N11_2 N 0.294(3) 1.0329(18) 0.975(2)
N11B_2 N -0.294(3) 0.9671(18) 0.025(2)
N12B N -0.344(3) 0.8804(16) 0.898(3)
N13B N -0.616(2) 0.877(3) 0.874(3)
N13_2 N -0.384(2) 1.123(3) 0.126(3)
N13B_2 N 0.384(2) 0.877(3) 0.874(3)
N14B N -0.5064(19) 0.810(4) 0.846(3)
N15B N -0.3169(8) 0.544(3) 0.743(3)
N15A N -0.3169(8) 0.956(3) 0.243(3)
N15C N 0.3169(8) 1.044(3) 0.757(3)
N16B N -0.3642(9) 0.679(2) 0.790(3)
H1B H -0.2755 0.8384 0.7049
H2B H -0.3931 1.0274 0.5305
H3B H -0.4851 0.9500 0.6145
H4B H -0.0754 1.0883 0.5228
H5B H -0.2921 1.1638 0.5304
H6B H -0.2275 1.2985 0.4693
H7B H -0.0364 0.8891 0.6242
H8B H -0.1164 0.6530 0.4929
H9B H -0.2294 0.7548 0.5025
H10B H -0.1578 1.1494 0.7331
H11B H -0.0460 0.9945 0.9440
H12B H -0.0991 0.8876 0.8127
H13B H -0.2160 1.1436 0.3036
H14B H -0.1109 1.0814 0.0954
H15B H -0.0224 1.1828 0.2080
H16B H -0.4043 0.9104 0.9999
H17B H -0.2432 0.8913 0.8452
H18B H -0.1900 0.9892 0.9839
H19B H -0.5568 0.9281 0.7789
H20B H -0.6281 0.7761 0.9730
H21B H -0.5069 0.7043 0.9429
H22B H -0.3377 0.6638 0.6619
H23B H -0.3188 0.4752 0.8659
H24B H -0.3693 0.6236 0.9204
C25 C 0.329(5) 0.647(7) 0.730(7)
C26 C 0.467(5) 0.618(5) 0.689(7)
C27 C 0.372(4) 0.750(6) 0.618(7)
N17 N 0.389(4) 0.662(4) 0.671(4)
O1 O 0.425(5) 0.797(5) 0.609(6)
H25 H 0.2822 0.6806 0.7029
H26 H 0.3527 0.6753 0.7895
H27 H 0.3160 0.5817 0.7409
H28 H 0.4928 0.6292 0.6379
H29 H 0.4981 0.6444 0.7461
H30 H 0.4614 0.5507 0.6975
H31 H 0.3243 0.7497 0.5686
C28 C 0.167(5) 1.345(7) 0.194(8)
C29 C 0.075(5) 1.457(6) 0.103(5)
C30 C 0.036(5) 1.370(6) 0.246(6)
N18 N 0.094(4) 1.398(4) 0.191(4)
O2 O 0.174(5) 1.280(5) 0.244(6)
H32 H 0.0258 1.4882 0.1006
H33 H 0.1153 1.5033 0.1025
H34 H 0.0712 1.4157 0.0496
H35 H -0.0089 1.4106 0.2326
H36 H 0.0594 1.3732 0.3121
H37 H 0.0203 1.3054 0.2301
H38 H 0.2094 1.3695 0.1661
loop_
_geom_bond_atom_site_label_1
_geom_bond_atom_site_label_2
_geom_bond_site_symmetry_1
_geom_bond_site_symmetry_2
Zn1 N1 1_555 1_555
Zn2 N4 1_555 1_555
Zn3 N10 1_555 1_555
Zn4 N2 1_555 1_555
C1 N1 1_555 1_555
C2 C3 1_555 1_555
C3 N2 1_555 1_555
C4 N3 1_555 1_555
C5 C6 1_555 1_555
C6 N4 1_555 1_555
C7 N5 1_555 1_555
C8 C9 1_555 1_555
C9 N5 1_555 1_555
C10 N7 1_555 1_555
C11 C12 1_555 1_555
C12 N7 1_555 1_555
C13 N9 1_555 1_555
C14 C15 1_555 1_555
C15 N9 1_555 1_555
C16 N11 1_555 1_555
C17 C18 1_555 1_555
C18 N11 1_555 1_555
C19 N13 1_555 1_555
C20 C21 1_555 1_555
C21 N14 1_555 1_555
C22 N15 1_555 1_555
C23 C24 1_555 1_555
C24 N16 1_555 1_555
N1 C2 1_555 1_555
N2 C1 1_555 1_555
N3 Zn1 1_555 1_555
N4 C4 1_555 1_555
N5 Zn1 1_555 1_555
N6 C7 1_555 1_555
N7 Zn1 1_555 1_555
N8 C10 1_555 1_555
N9 Zn2 1_555 1_555
N10 C13 1_555 1_555
N11 Zn3_3 1_555 1_555
N12 Zn4 1_555 1_555
N13 C20 1_555 1_555
N14 Zn4 1_555 1_555
N15 C23 1_555 1_555
N16 Zn4 1_555 1_555
H1 C1 1_555 1_555
H2 C2 1_555 1_555
H3 C3 1_555 1_555
H4 C4 1_555 1_555
H5 C5 1_555 1_555
H6 C6 1_555 1_555
H7 C7 1_555 1_555
H8 C8 1_555 1_555
H9 C9 1_555 1_555
H10 C10 1_555 1_555
H11 C11 1_555 1_555
H12 C12 1_555 1_555
H13 C13 1_555 1_555
H14 C14 1_555 1_555
H15 C15 1_555 1_555
H16 C16 1_555 1_555
H17 C17 1_555 1_555
H18 C18 1_555 1_555
H19 C19 1_555 1_555
H20 C20 1_555 1_555
H21 C21 1_555 1_555
H22 C22 1_555 1_555
H23 C23 1_555 1_555
H24 C24 1_555 1_555
C25 N17 1_555 1_555
C26 N17 1_555 1_555
C27 N17 1_555 1_555
O1 C27 1_555 1_555
H25 C25 1_555 1_555
H26 C25 1_555 1_555
H27 C25 1_555 1_555
H28 C26 1_555 1_555
H29 C26 1_555 1_555
H30 C26 1_555 1_555
H31 C27 1_555 1_555
C28 N18 1_555 1_555
C29 N18 1_555 1_555
C30 N18 1_555 1_555
O2 C28 1_555 1_555
H32 C29 1_555 1_555
H33 C29 1_555 1_555
H34 C29 1_555 1_555
H35 C30 1_555 1_555
H36 C30 1_555 1_555
H37 C30 1_555 1_555
H38 C28 1_555 1_555
Zn1B N1B 1_555 1_555
Zn2B N6 1_555 1_555
Zn2A N8B 1_555 1_555
Zn2C N8 1_555 1_555
Zn3B N10B 1_555 1_555
Zn3_2 N13B 1_555 1_555
Zn3B_2 N11B 1_555 1_555
Zn3B_3 N13 1_555 1_555
Zn3A N15B 1_555 1_555
Zn3C N15 1_555 1_555
Zn4B N2B 1_555 1_555
C1B N1B 1_555 1_555
C2B C3B 1_555 1_555
C3B N2B 1_555 1_555
C4B N3B 1_555 1_555
C5B C6B 1_555 1_555
C6B N4B 1_555 1_555
C7B N5B 1_555 1_555
C8B C9B 1_555 1_555
C9B N5B 1_555 1_555
C10B N7B 1_555 1_555
C11B C12B 1_555 1_555
C12B N7B 1_555 1_555
C13B N9B 1_555 1_555
C14B C15B 1_555 1_555
C15B N9B 1_555 1_555
C16B N11B 1_555 1_555
C17B C18B 1_555 1_555
C18B N11B 1_555 1_555
C19B N13B 1_555 1_555
C20B C21B 1_555 1_555
C21B N14B 1_555 1_555
C22B N15B 1_555 1_555
C23B C24B 1_555 1_555
C24B N16B 1_555 1_555
N1B C2B 1_555 1_555
N2B C1B 1_555 1_555
N3B Zn1B 1_555 1_555
N4B Zn2B 1_555 1_555
N5B Zn1B 1_555 1_555
N6B Zn2 1_555 1_555
N7B Zn1B 1_555 1_555
N8B C10B 1_555 1_555
N8A Zn2B 1_555 1_555
N8C Zn2 1_555 1_555
N9B Zn2B 1_555 1_555
N10B C13B 1_555 1_555
N11_2 Zn3 1_555 1_555
N11B_2 Zn3B 1_555 1_555
N12B Zn4B 1_555 1_555
N13B C20B 1_555 1_555
N13_2 Zn3B 1_555 1_555
N13B_2 Zn3 1_555 1_555
N14B Zn4B 1_555 1_555
N15B C23B 1_555 1_555
N15A Zn3B 1_555 1_555
N15C Zn3 1_555 1_555
N16B Zn4B 1_555 1_555
H1B C1B 1_555 1_555
H2B C2B 1_555 1_555
H3B C3B 1_555 1_555
H4B C4B 1_555 1_555
H5B C5B 1_555 1_555
H6B C6B 1_555 1_555
H7B C7B 1_555 1_555
H8B C8B 1_555 1_555
H9B C9B 1_555 1_555
H10B C10B 1_555 1_555
H11B C11B 1_555 1_555
H12B C12B 1_555 1_555
H13B C13B 1_555 1_555
H14B C14B 1_555 1_555
H15B C15B 1_555 1_555
H16B C16B 1_555 1_555
H17B C17B 1_555 1_555
H18B C18B 1_555 1_555
H19B C19B 1_555 1_555
H20B C20B 1_555 1_555
H21B C21B 1_555 1_555
H22B C22B 1_555 1_555
H23B C23B 1_555 1_555
H24B C24B 1_555 1_555
C5 N3 1_555 1_555
C8 N6 1_555 1_555
C11 N8 1_555 1_555
C14 N10 1_555 1_555
C16 N12 1_555 1_555
C17 N12 1_555 1_555
C19 N14 1_555 1_555
C22 N16 1_555 1_555
C4B N4B 1_555 1_555
C5B N3B 1_555 1_555
C7B N6B 1_555 1_555
C8B N6B 1_555 1_555
C11B N8B 1_555 1_555
C14B N10B 1_555 1_555
C16B N12B 1_555 1_555
C17B N12B 1_555 1_555
C19B N14B 1_555 1_555
C22B N16B 1_555 1_555

#END
