
#######################################################################
#
#                 Cambridge Crystallographic Data Centre
#                                CCDC 
#
#######################################################################
#
# If this CIF has been generated from an entry in the Cambridge 
# Structural Database, then it will include bibliographic, chemical, 
# crystal, experimental, refinement or atomic coordinate data resulting 
# from the CCDC's data processing and validation procedures.
#
#######################################################################

data_VEJYUV03
_symmetry_cell_setting           monoclinic
_symmetry_space_group_name_H-M   'P 21/c'
_symmetry_Int_Tables_number      14
_space_group_name_Hall           '-P 2ybc'
loop_
_symmetry_equiv_pos_site_id
_symmetry_equiv_pos_as_xyz
1 x,y,z
2 -x,1/2+y,1/2-z
3 -x,-y,-z
4 x,1/2-y,1/2+z
_cell_length_a                   17.563(8)
_cell_length_b                   13.825(8)
_cell_length_c                   13.882(8)
_cell_angle_alpha                90
_cell_angle_beta                 102.36(5)
_cell_angle_gamma                90
_cell_volume                     3292.54
loop_
_atom_site_label
_atom_site_type_symbol
_atom_site_fract_x
_atom_site_fract_y
_atom_site_fract_z
Zn1 Zn 0.2043(9) 1.0289(9) 0.3984(10)
Zn2 Zn 0.0601(8) 0.7218(9) 0.5873(10)
Zn3 Zn 0.2915(8) 0.9545(9) 0.8588(10)
Zn4 Zn 0.4189(9) 1.1919(10) 0.2088(11)
C1 C 0.328(3) 1.121(3) 0.327(3)
C2 C 0.389(4) 1.015(2) 0.426(2)
C3 C 0.441(2) 1.062(3) 0.383(3)
C4 C 0.116(4) 0.866(6) 0.4776(16)
C5 C 0.231(3) 0.825(7) 0.4675(15)
C6 C 0.193(5) 0.745(4) 0.4885(15)
C7 C 0.075(4) 1.166(5) 0.4267(18)
C8 C 0.126(5) 1.296(3) 0.4923(19)
C9 C 0.184(3) 1.234(6) 0.483(2)
C10 C 0.133(3) 0.916(3) 0.212(7)
C11 C 0.063(2) 1.021(7) 0.122(5)
C12 C 0.102(4) 1.065(3) 0.205(6)
C13 C 0.179(4) 0.845(4) 0.730(4)
C14 C 0.114(5) 0.905(4) 0.829(3)
C15 C 0.068(3) 0.841(5) 0.769(5)
C16 C 0.359(3) 1.085(3) 0.032(5)
C17 C 0.268(4) 1.100(3) 0.111(3)
C18 C 0.243(3) 1.039(3) 0.034(4)
C19 C 0.544(4) 1.121(4) 0.153(2)
C20 C 0.598(4) 1.224(6) 0.075(2)
C21 C 0.531(5) 1.262(4) 0.090(3)
C22 C 0.357(2) 1.389(5) 0.287(3)
C23 C 0.3234(19) 1.468(5) 0.152(6)
C24 C 0.357(2) 1.384(6) 0.133(4)
N1 N 0.317(3) 1.052(3) 0.390(3)
N2 N 0.404(3) 1.129(3) 0.320(2)
N3 N 0.183(5) 0.902(4) 0.4605(10)
N4 N 0.120(4) 0.770(6) 0.4951(11)
N5 N 0.152(5) 1.151(4) 0.442(3)
N6 N 0.057(3) 1.254(6) 0.457(3)
N7 N 0.146(2) 0.999(6) 0.264(4)
N8 N 0.082(4) 0.927(6) 0.125(5)
N9 N 0.108(5) 0.803(3) 0.706(3)
N10 N 0.185(4) 0.908(4) 0.805(5)
N11 N 0.300(4) 1.029(3) -0.016(3)
N12 N 0.341(4) 1.129(2) 0.111(4)
N13 N 0.608(3) 1.134(5) 0.115(3)
N14 N 0.495(3) 1.198(7) 0.139(3)
N15 N 0.3227(17) 1.472(4) 0.249(6)
N16 N 0.3785(14) 1.333(3) 0.218(6)
H1 H 0.2876 1.1592 0.2899
H2 H 0.4014 0.9645 0.4732
H3 H 0.4958 1.0496 0.3961
H4 H 0.0709 0.9036 0.4775
H5 H 0.2835 0.8270 0.4588
H6 H 0.2146 0.6819 0.4973
H7 H 0.0361 1.1201 0.3982
H8 H 0.1352 1.3593 0.5196
H9 H 0.2389 1.2453 0.5021
H10 H 0.1565 0.8561 0.2356
H11 H 0.0283 1.0521 0.0688
H12 H 0.0979 1.1317 0.2204
H13 H 0.2197 0.8321 0.6970
H14 H 0.0993 0.9414 0.8802
H15 H 0.0154 0.8260 0.7713
H16 H 0.4072 1.0925 0.0133
H17 H 0.2379 1.1181 0.1578
H18 H 0.1937 1.0078 0.0181
H19 H 0.5346 1.0645 0.1871
H20 H 0.6337 1.2545 0.0418
H21 H 0.5109 1.3242 0.0678
H22 H 0.3633 1.3731 0.3546
H23 H 0.3044 1.5156 0.1037
H24 H 0.3655 1.3625 0.0713
Zn1B Zn -0.2043(9) 0.9711(9) 0.6016(10)
Zn2B Zn -0.0601(8) 1.2782(9) 0.4127(10)
Zn2A Zn -0.0601(8) 1.2218(9) 0.9127(10)
Zn2C Zn 0.0601(8) 0.7782(9) 0.0873(10)
Zn3B Zn -0.2915(8) 1.0455(9) 0.1412(10)
Zn3_2 Zn -0.7085(8) 0.9545(9) 0.8588(10)
Zn3_3 Zn 0.2915(8) 0.9545(9) -0.1412(10)
Zn3B_2 Zn -0.2915(8) 1.0455(9) 1.1412(10)
Zn3B_3 Zn 0.7085(8) 1.0455(9) 0.1412(10)
Zn3A Zn -0.2915(8) 0.4545(9) 0.6412(10)
Zn3C Zn 0.2915(8) 1.5455(9) 0.3588(10)
Zn4B Zn -0.4189(9) 0.8081(10) 0.7912(11)
C1B C -0.328(3) 0.879(3) 0.673(3)
C2B C -0.389(4) 0.985(2) 0.574(2)
C3B C -0.441(2) 0.938(3) 0.617(3)
C4B C -0.116(4) 1.134(6) 0.5224(16)
C5B C -0.231(3) 1.175(7) 0.5325(15)
C6B C -0.193(5) 1.255(4) 0.5115(15)
C7B C -0.075(4) 0.834(5) 0.5733(18)
C8B C -0.126(5) 0.704(3) 0.5077(19)
C9B C -0.184(3) 0.766(6) 0.517(2)
C10B C -0.133(3) 1.084(3) 0.788(7)
C11B C -0.063(2) 0.979(7) 0.878(5)
C12B C -0.102(4) 0.935(3) 0.795(6)
C13B C -0.179(4) 1.155(4) 0.270(4)
C14B C -0.114(5) 1.095(4) 0.171(3)
C15B C -0.068(3) 1.159(5) 0.231(5)
C16B C -0.359(3) 0.915(3) 0.968(5)
C17B C -0.268(4) 0.900(3) 0.889(3)
C18B C -0.243(3) 0.961(3) 0.966(4)
C19B C -0.544(4) 0.879(4) 0.847(2)
C20B C -0.598(4) 0.776(6) 0.925(2)
C21B C -0.531(5) 0.738(4) 0.910(3)
C22B C -0.357(2) 0.611(5) 0.713(3)
C23B C -0.3234(19) 0.532(5) 0.848(6)
C24B C -0.357(2) 0.616(6) 0.867(4)
N1B N -0.317(3) 0.948(3) 0.610(3)
N2B N -0.404(3) 0.871(3) 0.680(2)
N3B N -0.183(5) 1.098(4) 0.5395(10)
N4B N -0.120(4) 1.230(6) 0.5049(11)
N5B N -0.152(5) 0.849(4) 0.558(3)
N6B N -0.057(3) 0.746(6) 0.543(3)
N7B N -0.146(2) 1.001(6) 0.736(4)
N8B N -0.082(4) 1.073(6) 0.875(5)
N8A N -0.082(4) 1.427(6) 0.375(5)
N8C N 0.082(4) 0.573(6) 0.625(5)
N9B N -0.108(5) 1.197(3) 0.294(3)
N10B N -0.185(4) 1.092(4) 0.195(5)
N11B N -0.300(4) 0.971(3) 1.016(3)
N11_2 N 0.300(4) 1.029(3) 0.984(3)
N11B_2 N -0.300(4) 0.971(3) 0.016(3)
N12B N -0.341(4) 0.871(2) 0.889(4)
N13B N -0.608(3) 0.866(5) 0.885(3)
N13_2 N -0.392(3) 1.134(5) 0.115(3)
N13B_2 N 0.392(3) 0.866(5) 0.885(3)
N14B N -0.495(3) 0.802(7) 0.861(3)
N15B N -0.3227(17) 0.528(4) 0.751(6)
N15A N -0.3227(17) 0.972(4) 0.251(6)
N15C N 0.3227(17) 1.028(4) 0.749(6)
N16B N -0.3785(14) 0.667(3) 0.782(6)
H1B H -0.2876 0.8408 0.7101
H2B H -0.4014 1.0355 0.5268
H3B H -0.4958 0.9504 0.6039
H4B H -0.0709 1.0964 0.5225
H5B H -0.2835 1.1730 0.5412
H6B H -0.2146 1.3181 0.5027
H7B H -0.0361 0.8799 0.6018
H8B H -0.1352 0.6407 0.4804
H9B H -0.2389 0.7547 0.4979
H10B H -0.1565 1.1439 0.7644
H11B H -0.0283 0.9479 0.9312
H12B H -0.0979 0.8683 0.7796
H13B H -0.2197 1.1679 0.3030
H14B H -0.0993 1.0586 0.1198
H15B H -0.0154 1.1740 0.2287
H16B H -0.4072 0.9075 0.9867
H17B H -0.2379 0.8819 0.8422
H18B H -0.1937 0.9922 0.9819
H19B H -0.5346 0.9355 0.8129
H20B H -0.6337 0.7455 0.9582
H21B H -0.5109 0.6758 0.9322
H22B H -0.3633 0.6269 0.6454
H23B H -0.3044 0.4844 0.8963
H24B H -0.3655 0.6375 0.9287
C25 C 0.314(7) 0.658(8) 0.714(9)
C26 C 0.441(7) 0.626(6) 0.648(10)
C27 C 0.363(5) 0.784(6) 0.622(10)
N17 N 0.370(5) 0.682(5) 0.650(6)
O1 O 0.419(6) 0.826(5) 0.615(8)
H25 H 0.2724 0.7047 0.7027
H26 H 0.3401 0.6597 0.7824
H27 H 0.2930 0.5947 0.6977
H28 H 0.4684 0.6550 0.6028
H29 H 0.4740 0.6261 0.7133
H30 H 0.4269 0.5611 0.6286
H31 H 0.3121 0.8170 0.6097
C28 C 0.169(4) 1.363(7) 0.197(9)
C29 C 0.066(6) 1.465(8) 0.105(6)
C30 C 0.037(6) 1.354(8) 0.246(8)
N18 N 0.091(4) 1.401(4) 0.194(5)
O2 O 0.158(6) 1.287(6) 0.227(7)
H32 H 0.0152 1.4892 0.1039
H33 H 0.1022 1.5175 0.1076
H34 H 0.0656 1.4272 0.0465
H35 H -0.0109 1.3899 0.2348
H36 H 0.0598 1.3523 0.3149
H37 H 0.0268 1.2894 0.2213
H38 H 0.2159 1.3913 0.1795
loop_
_geom_bond_atom_site_label_1
_geom_bond_atom_site_label_2
_geom_bond_site_symmetry_1
_geom_bond_site_symmetry_2
Zn1 N1 1_555 1_555
Zn2 N4 1_555 1_555
Zn3 N10 1_555 1_555
Zn4 N2 1_555 1_555
C1 N1 1_555 1_555
C2 C3 1_555 1_555
C3 N2 1_555 1_555
C4 N3 1_555 1_555
C5 C6 1_555 1_555
C6 N4 1_555 1_555
C7 N5 1_555 1_555
C8 C9 1_555 1_555
C9 N5 1_555 1_555
C10 N7 1_555 1_555
C11 C12 1_555 1_555
C12 N7 1_555 1_555
C13 N9 1_555 1_555
C14 C15 1_555 1_555
C15 N9 1_555 1_555
C16 N11 1_555 1_555
C17 C18 1_555 1_555
C18 N11 1_555 1_555
C19 N13 1_555 1_555
C20 C21 1_555 1_555
C21 N14 1_555 1_555
C22 N15 1_555 1_555
C23 C24 1_555 1_555
C24 N16 1_555 1_555
N1 C2 1_555 1_555
N2 C1 1_555 1_555
N3 Zn1 1_555 1_555
N4 C4 1_555 1_555
N5 Zn1 1_555 1_555
N6 C7 1_555 1_555
N7 Zn1 1_555 1_555
N8 C10 1_555 1_555
N9 Zn2 1_555 1_555
N10 C13 1_555 1_555
N11 Zn3_3 1_555 1_555
N12 Zn4 1_555 1_555
N13 C20 1_555 1_555
N14 Zn4 1_555 1_555
N15 C23 1_555 1_555
N16 Zn4 1_555 1_555
H1 C1 1_555 1_555
H2 C2 1_555 1_555
H3 C3 1_555 1_555
H4 C4 1_555 1_555
H5 C5 1_555 1_555
H6 C6 1_555 1_555
H7 C7 1_555 1_555
H8 C8 1_555 1_555
H9 C9 1_555 1_555
H10 C10 1_555 1_555
H11 C11 1_555 1_555
H12 C12 1_555 1_555
H13 C13 1_555 1_555
H14 C14 1_555 1_555
H15 C15 1_555 1_555
H16 C16 1_555 1_555
H17 C17 1_555 1_555
H18 C18 1_555 1_555
H19 C19 1_555 1_555
H20 C20 1_555 1_555
H21 C21 1_555 1_555
H22 C22 1_555 1_555
H23 C23 1_555 1_555
H24 C24 1_555 1_555
C25 N17 1_555 1_555
C26 N17 1_555 1_555
C27 N17 1_555 1_555
O1 C27 1_555 1_555
H25 C25 1_555 1_555
H26 C25 1_555 1_555
H27 C25 1_555 1_555
H28 C26 1_555 1_555
H29 C26 1_555 1_555
H30 C26 1_555 1_555
H31 C27 1_555 1_555
C28 N18 1_555 1_555
C29 N18 1_555 1_555
C30 N18 1_555 1_555
O2 C28 1_555 1_555
H32 C29 1_555 1_555
H33 C29 1_555 1_555
H34 C29 1_555 1_555
H35 C30 1_555 1_555
H36 C30 1_555 1_555
H37 C30 1_555 1_555
H38 C28 1_555 1_555
Zn1B N1B 1_555 1_555
Zn2B N6 1_555 1_555
Zn2A N8B 1_555 1_555
Zn2C N8 1_555 1_555
Zn3B N10B 1_555 1_555
Zn3_2 N13B 1_555 1_555
Zn3B_2 N11B 1_555 1_555
Zn3B_3 N13 1_555 1_555
Zn3A N15B 1_555 1_555
Zn3C N15 1_555 1_555
Zn4B N2B 1_555 1_555
C1B N1B 1_555 1_555
C2B C3B 1_555 1_555
C3B N2B 1_555 1_555
C4B N3B 1_555 1_555
C5B C6B 1_555 1_555
C6B N4B 1_555 1_555
C7B N5B 1_555 1_555
C8B C9B 1_555 1_555
C9B N5B 1_555 1_555
C10B N7B 1_555 1_555
C11B C12B 1_555 1_555
C12B N7B 1_555 1_555
C13B N9B 1_555 1_555
C14B C15B 1_555 1_555
C15B N9B 1_555 1_555
C16B N11B 1_555 1_555
C17B C18B 1_555 1_555
C18B N11B 1_555 1_555
C19B N13B 1_555 1_555
C20B C21B 1_555 1_555
C21B N14B 1_555 1_555
C22B N15B 1_555 1_555
C23B C24B 1_555 1_555
C24B N16B 1_555 1_555
N1B C2B 1_555 1_555
N2B C1B 1_555 1_555
N3B Zn1B 1_555 1_555
N4B Zn2B 1_555 1_555
N5B Zn1B 1_555 1_555
N6B Zn2 1_555 1_555
N7B Zn1B 1_555 1_555
N8B C10B 1_555 1_555
N8A Zn2B 1_555 1_555
N8C Zn2 1_555 1_555
N9B Zn2B 1_555 1_555
N10B C13B 1_555 1_555
N11_2 Zn3 1_555 1_555
N11B_2 Zn3B 1_555 1_555
N12B Zn4B 1_555 1_555
N13B C20B 1_555 1_555
N13_2 Zn3B 1_555 1_555
N13B_2 Zn3 1_555 1_555
N14B Zn4B 1_555 1_555
N15B C23B 1_555 1_555
N15A Zn3B 1_555 1_555
N15C Zn3 1_555 1_555
N16B Zn4B 1_555 1_555
H1B C1B 1_555 1_555
H2B C2B 1_555 1_555
H3B C3B 1_555 1_555
H4B C4B 1_555 1_555
H5B C5B 1_555 1_555
H6B C6B 1_555 1_555
H7B C7B 1_555 1_555
H8B C8B 1_555 1_555
H9B C9B 1_555 1_555
H10B C10B 1_555 1_555
H11B C11B 1_555 1_555
H12B C12B 1_555 1_555
H13B C13B 1_555 1_555
H14B C14B 1_555 1_555
H15B C15B 1_555 1_555
H16B C16B 1_555 1_555
H17B C17B 1_555 1_555
H18B C18B 1_555 1_555
H19B C19B 1_555 1_555
H20B C20B 1_555 1_555
H21B C21B 1_555 1_555
H22B C22B 1_555 1_555
H23B C23B 1_555 1_555
H24B C24B 1_555 1_555
C5 N3 1_555 1_555
C8 N6 1_555 1_555
C11 N8 1_555 1_555
C14 N10 1_555 1_555
C16 N12 1_555 1_555
C17 N12 1_555 1_555
C19 N14 1_555 1_555
C22 N16 1_555 1_555
C4B N4B 1_555 1_555
C5B N3B 1_555 1_555
C7B N6B 1_555 1_555
C8B N6B 1_555 1_555
C11B N8B 1_555 1_555
C14B N10B 1_555 1_555
C16B N12B 1_555 1_555
C17B N12B 1_555 1_555
C19B N14B 1_555 1_555
C22B N16B 1_555 1_555

#END
