
#######################################################################
#
#                 Cambridge Crystallographic Data Centre
#                                CCDC 
#
#######################################################################
#
# If this CIF has been generated from an entry in the Cambridge 
# Structural Database, then it will include bibliographic, chemical, 
# crystal, experimental, refinement or atomic coordinate data resulting 
# from the CCDC's data processing and validation procedures.
#
#######################################################################

data_VEJYUF07
_symmetry_cell_setting           monoclinic
_symmetry_space_group_name_H-M   'P 21/c'
_symmetry_Int_Tables_number      14
_space_group_name_Hall           '-P 2ybc'
loop_
_symmetry_equiv_pos_site_id
_symmetry_equiv_pos_as_xyz
1 x,y,z
2 -x,1/2+y,1/2-z
3 -x,-y,-z
4 x,1/2-y,1/2+z
_cell_length_a                   17.608(5)
_cell_length_b                   14.411(5)
_cell_length_c                   14.703(5)
_cell_angle_alpha                90
_cell_angle_beta                 100.90(2)
_cell_angle_gamma                90
_cell_volume                     3663.56
loop_
_atom_site_label
_atom_site_type_symbol
_atom_site_fract_x
_atom_site_fract_y
_atom_site_fract_z
Zn1 Zn 0.2000(5) 1.0256(6) 0.3854(6)
Zn2 Zn 0.0690(5) 0.7434(6) 0.6028(6)
Zn3 Zn 0.2948(5) 0.9691(6) 0.8514(6)
Zn4 Zn 0.4090(5) 1.1922(6) 0.1936(6)
C1 C 0.3174(18) 1.1212(17) 0.3209(16)
C2 C 0.383(2) 1.0236(14) 0.4128(14)
C3 C 0.4318(16) 1.069(2) 0.367(2)
C4 C 0.123(2) 0.881(3) 0.4812(15)
C5 C 0.2400(19) 0.843(4) 0.4792(16)
C6 C 0.205(3) 0.772(2) 0.5157(13)
C7 C 0.064(2) 1.147(2) 0.4011(11)
C8 C 0.108(3) 1.2739(18) 0.4645(12)
C9 C 0.1685(18) 1.218(3) 0.4584(13)
C10 C 0.1410(15) 0.896(3) 0.237(4)
C11 C 0.0834(11) 0.964(4) 0.114(2)
C12 C 0.1084(16) 1.029(2) 0.179(4)
C13 C 0.183(2) 0.867(2) 0.733(3)
C14 C 0.130(3) 0.8994(19) 0.848(2)
C15 C 0.0808(18) 0.845(2) 0.789(3)
C16 C 0.358(2) 1.083(2) 0.014(3)
C17 C 0.274(3) 1.103(2) 0.099(2)
C18 C 0.2431(18) 1.0469(19) 0.028(3)
C19 C 0.553(3) 1.122(3) 0.1824(19)
C20 C 0.598(2) 1.196(3) 0.079(2)
C21 C 0.532(3) 1.238(2) 0.092(3)
C22 C 0.3396(10) 1.364(3) 0.271(2)
C23 C 0.3292(10) 1.468(2) 0.167(3)
C24 C 0.3545(10) 1.389(3) 0.133(2)
N1 N 0.3101(18) 1.0559(19) 0.3840(18)
N2 N 0.391(2) 1.1316(16) 0.3089(15)
N3 N 0.188(3) 0.913(2) 0.4572(11)
N4 N 0.131(3) 0.795(3) 0.5173(13)
N5 N 0.142(2) 1.137(2) 0.4185(14)
N6 N 0.0411(18) 1.229(3) 0.4283(15)
N7 N 0.1454(13) 0.987(4) 0.258(3)
N8 N 0.1037(19) 0.879(3) 0.150(4)
N9 N 0.114(3) 0.8245(16) 0.715(2)
N10 N 0.195(2) 0.9143(16) 0.814(3)
N11 N 0.296(3) 1.0339(17) -0.0271(19)
N12 N 0.347(2) 1.1267(16) 0.091(3)
N13 N 0.612(2) 1.122(3) 0.136(3)
N14 N 0.5030(18) 1.192(3) 0.158(3)
N15 N 0.3194(8) 1.453(3) 0.255(3)
N16 N 0.3612(8) 1.322(2) 0.198(3)
H1 H 0.2750 1.1569 0.2899
H2 H 0.3980 0.9754 0.4565
H3 H 0.4859 1.0594 0.3739
H4 H 0.0771 0.9165 0.4702
H5 H 0.2926 0.8415 0.4727
H6 H 0.2278 0.7150 0.5403
H7 H 0.0297 1.1017 0.3688
H8 H 0.1109 1.3333 0.4931
H9 H 0.2213 1.2318 0.4820
H10 H 0.1627 0.8499 0.2801
H11 H 0.0555 0.9743 0.0530
H12 H 0.1006 1.0940 0.1698
H13 H 0.2189 0.8663 0.6928
H14 H 0.1202 0.9223 0.9055
H15 H 0.0316 0.8236 0.7971
H16 H 0.4041 1.0867 -0.0108
H17 H 0.2491 1.1236 0.1476
H18 H 0.1927 1.0210 0.0189
H19 H 0.5462 1.0779 0.2283
H20 H 0.6305 1.2138 0.0374
H21 H 0.5111 1.2921 0.0593
H22 H 0.3383 1.3341 0.3287
H23 H 0.3199 1.5250 0.1336
H24 H 0.3660 1.3809 0.0726
Zn1B Zn -0.2000(5) 0.9744(6) 0.6146(6)
Zn2B Zn -0.0690(5) 1.2566(6) 0.3972(6)
Zn2A Zn -0.0690(5) 1.2434(6) 0.8972(6)
Zn2C Zn 0.0690(5) 0.7566(6) 0.1028(6)
Zn3B Zn -0.2948(5) 1.0309(6) 0.1486(6)
Zn3_2 Zn -0.7052(5) 0.9691(6) 0.8514(6)
Zn3_3 Zn 0.2948(5) 0.9691(6) -0.1486(6)
Zn3B_2 Zn -0.2948(5) 1.0309(6) 1.1486(6)
Zn3B_3 Zn 0.7052(5) 1.0309(6) 0.1486(6)
Zn3A Zn -0.2948(5) 0.4691(6) 0.6486(6)
Zn3C Zn 0.2948(5) 1.5309(6) 0.3514(6)
Zn4B Zn -0.4090(5) 0.8078(6) 0.8064(6)
C1B C -0.3174(18) 0.8788(17) 0.6791(16)
C2B C -0.383(2) 0.9764(14) 0.5872(14)
C3B C -0.4318(16) 0.931(2) 0.633(2)
C4B C -0.123(2) 1.119(3) 0.5188(15)
C5B C -0.2400(19) 1.157(4) 0.5208(16)
C6B C -0.205(3) 1.228(2) 0.4843(13)
C7B C -0.064(2) 0.853(2) 0.5989(11)
C8B C -0.108(3) 0.7261(18) 0.5355(12)
C9B C -0.1685(18) 0.782(3) 0.5416(13)
C10B C -0.1410(15) 1.104(3) 0.763(4)
C11B C -0.0834(11) 1.036(4) 0.886(2)
C12B C -0.1084(16) 0.971(2) 0.821(4)
C13B C -0.183(2) 1.133(2) 0.267(3)
C14B C -0.130(3) 1.1006(19) 0.152(2)
C15B C -0.0808(18) 1.155(2) 0.211(3)
C16B C -0.358(2) 0.917(2) 0.986(3)
C17B C -0.274(3) 0.897(2) 0.901(2)
C18B C -0.2431(18) 0.9531(19) 0.972(3)
C19B C -0.553(3) 0.878(3) 0.8176(19)
C20B C -0.598(2) 0.804(3) 0.921(2)
C21B C -0.532(3) 0.762(2) 0.908(3)
C22B C -0.3396(10) 0.636(3) 0.729(2)
C23B C -0.3292(10) 0.532(2) 0.833(3)
C24B C -0.3545(10) 0.611(3) 0.867(2)
N1B N -0.3101(18) 0.9441(19) 0.6160(18)
N2B N -0.391(2) 0.8684(16) 0.6911(15)
N3B N -0.188(3) 1.087(2) 0.5428(11)
N4B N -0.131(3) 1.205(3) 0.4827(13)
N5B N -0.142(2) 0.863(2) 0.5815(14)
N6B N -0.0411(18) 0.771(3) 0.5717(15)
N7B N -0.1454(13) 1.013(4) 0.742(3)
N8B N -0.1037(19) 1.121(3) 0.850(4)
N8A N -0.1037(19) 1.379(3) 0.350(4)
N8C N 0.1037(19) 0.621(3) 0.650(4)
N9B N -0.114(3) 1.1755(16) 0.285(2)
N10B N -0.195(2) 1.0857(16) 0.186(3)
N11B N -0.296(3) 0.9661(17) 1.0271(19)
N11_2 N 0.296(3) 1.0339(17) 0.9729(19)
N11B_2 N -0.296(3) 0.9661(17) 0.0271(19)
N12B N -0.347(2) 0.8733(16) 0.909(3)
N13B N -0.612(2) 0.878(3) 0.864(3)
N13_2 N -0.388(2) 1.122(3) 0.136(3)
N13B_2 N 0.388(2) 0.878(3) 0.864(3)
N14B N -0.5030(18) 0.808(3) 0.842(3)
N15B N -0.3194(8) 0.547(3) 0.745(3)
N15A N -0.3194(8) 0.953(3) 0.245(3)
N15C N 0.3194(8) 1.047(3) 0.755(3)
N16B N -0.3612(8) 0.678(2) 0.802(3)
H1B H -0.2750 0.8431 0.7101
H2B H -0.3980 1.0246 0.5435
H3B H -0.4859 0.9406 0.6261
H4B H -0.0771 1.0835 0.5298
H5B H -0.2926 1.1585 0.5273
H6B H -0.2278 1.2850 0.4597
H7B H -0.0297 0.8983 0.6312
H8B H -0.1109 0.6667 0.5069
H9B H -0.2213 0.7682 0.5180
H10B H -0.1627 1.1501 0.7199
H11B H -0.0555 1.0257 0.9470
H12B H -0.1006 0.9060 0.8302
H13B H -0.2189 1.1337 0.3072
H14B H -0.1202 1.0777 0.0945
H15B H -0.0316 1.1764 0.2029
H16B H -0.4041 0.9133 1.0108
H17B H -0.2491 0.8764 0.8524
H18B H -0.1927 0.9790 0.9811
H19B H -0.5462 0.9221 0.7717
H20B H -0.6305 0.7862 0.9626
H21B H -0.5111 0.7079 0.9407
H22B H -0.3383 0.6659 0.6713
H23B H -0.3199 0.4750 0.8664
H24B H -0.3660 0.6191 0.9274
C25 C 0.327(5) 0.655(7) 0.718(7)
C26 C 0.456(5) 0.622(5) 0.659(7)
C27 C 0.372(4) 0.767(5) 0.617(7)
N17 N 0.383(4) 0.673(4) 0.655(4)
O1 O 0.426(5) 0.813(4) 0.617(6)
H25 H 0.2812 0.6912 0.6961
H26 H 0.3528 0.6786 0.7766
H27 H 0.3127 0.5915 0.7244
H28 H 0.4795 0.6365 0.6064
H29 H 0.4887 0.6438 0.7143
H30 H 0.4487 0.5566 0.6621
H31 H 0.3249 0.7711 0.5695
C28 C 0.168(4) 1.331(5) 0.197(6)
C29 C 0.086(4) 1.440(6) 0.099(5)
C30 C 0.038(4) 1.368(6) 0.241(6)
N18 N 0.099(3) 1.388(3) 0.189(3)
O2 O 0.164(4) 1.259(4) 0.232(5)
H32 H 0.0388 1.4753 0.0890
H33 H 0.1292 1.4818 0.1037
H34 H 0.0857 1.3989 0.0474
H35 H -0.0032 1.4118 0.2216
H36 H 0.0533 1.3696 0.3068
H37 H 0.0204 1.3069 0.2212
H38 H 0.2152 1.3610 0.1839
loop_
_geom_bond_atom_site_label_1
_geom_bond_atom_site_label_2
_geom_bond_site_symmetry_1
_geom_bond_site_symmetry_2
Zn1 N1 1_555 1_555
Zn2 N4 1_555 1_555
Zn3 N10 1_555 1_555
Zn4 N2 1_555 1_555
C1 N1 1_555 1_555
C2 C3 1_555 1_555
C3 N2 1_555 1_555
C4 N3 1_555 1_555
C5 C6 1_555 1_555
C6 N4 1_555 1_555
C7 N5 1_555 1_555
C8 C9 1_555 1_555
C9 N5 1_555 1_555
C10 N7 1_555 1_555
C11 C12 1_555 1_555
C12 N7 1_555 1_555
C13 N9 1_555 1_555
C14 C15 1_555 1_555
C15 N9 1_555 1_555
C16 N11 1_555 1_555
C17 C18 1_555 1_555
C18 N11 1_555 1_555
C19 N13 1_555 1_555
C20 C21 1_555 1_555
C21 N14 1_555 1_555
C22 N15 1_555 1_555
C23 C24 1_555 1_555
C24 N16 1_555 1_555
N1 C2 1_555 1_555
N2 C1 1_555 1_555
N3 Zn1 1_555 1_555
N4 C4 1_555 1_555
N5 Zn1 1_555 1_555
N6 C7 1_555 1_555
N7 Zn1 1_555 1_555
N8 C10 1_555 1_555
N9 Zn2 1_555 1_555
N10 C13 1_555 1_555
N11 Zn3_3 1_555 1_555
N12 Zn4 1_555 1_555
N13 C20 1_555 1_555
N14 Zn4 1_555 1_555
N15 C23 1_555 1_555
N16 Zn4 1_555 1_555
H1 C1 1_555 1_555
H2 C2 1_555 1_555
H3 C3 1_555 1_555
H4 C4 1_555 1_555
H5 C5 1_555 1_555
H6 C6 1_555 1_555
H7 C7 1_555 1_555
H8 C8 1_555 1_555
H9 C9 1_555 1_555
H10 C10 1_555 1_555
H11 C11 1_555 1_555
H12 C12 1_555 1_555
H13 C13 1_555 1_555
H14 C14 1_555 1_555
H15 C15 1_555 1_555
H16 C16 1_555 1_555
H17 C17 1_555 1_555
H18 C18 1_555 1_555
H19 C19 1_555 1_555
H20 C20 1_555 1_555
H21 C21 1_555 1_555
H22 C22 1_555 1_555
H23 C23 1_555 1_555
H24 C24 1_555 1_555
C25 N17 1_555 1_555
C26 N17 1_555 1_555
C27 N17 1_555 1_555
O1 C27 1_555 1_555
H25 C25 1_555 1_555
H26 C25 1_555 1_555
H27 C25 1_555 1_555
H28 C26 1_555 1_555
H29 C26 1_555 1_555
H30 C26 1_555 1_555
H31 C27 1_555 1_555
C28 N18 1_555 1_555
C29 N18 1_555 1_555
C30 N18 1_555 1_555
O2 C28 1_555 1_555
H32 C29 1_555 1_555
H33 C29 1_555 1_555
H34 C29 1_555 1_555
H35 C30 1_555 1_555
H36 C30 1_555 1_555
H37 C30 1_555 1_555
H38 C28 1_555 1_555
Zn1B N1B 1_555 1_555
Zn2B N6 1_555 1_555
Zn2A N8B 1_555 1_555
Zn2C N8 1_555 1_555
Zn3B N10B 1_555 1_555
Zn3_2 N13B 1_555 1_555
Zn3B_2 N11B 1_555 1_555
Zn3B_3 N13 1_555 1_555
Zn3A N15B 1_555 1_555
Zn3C N15 1_555 1_555
Zn4B N2B 1_555 1_555
C1B N1B 1_555 1_555
C2B C3B 1_555 1_555
C3B N2B 1_555 1_555
C4B N3B 1_555 1_555
C5B C6B 1_555 1_555
C6B N4B 1_555 1_555
C7B N5B 1_555 1_555
C8B C9B 1_555 1_555
C9B N5B 1_555 1_555
C10B N7B 1_555 1_555
C11B C12B 1_555 1_555
C12B N7B 1_555 1_555
C13B N9B 1_555 1_555
C14B C15B 1_555 1_555
C15B N9B 1_555 1_555
C16B N11B 1_555 1_555
C17B C18B 1_555 1_555
C18B N11B 1_555 1_555
C19B N13B 1_555 1_555
C20B C21B 1_555 1_555
C21B N14B 1_555 1_555
C22B N15B 1_555 1_555
C23B C24B 1_555 1_555
C24B N16B 1_555 1_555
N1B C2B 1_555 1_555
N2B C1B 1_555 1_555
N3B Zn1B 1_555 1_555
N4B Zn2B 1_555 1_555
N5B Zn1B 1_555 1_555
N6B Zn2 1_555 1_555
N7B Zn1B 1_555 1_555
N8B C10B 1_555 1_555
N8A Zn2B 1_555 1_555
N8C Zn2 1_555 1_555
N9B Zn2B 1_555 1_555
N10B C13B 1_555 1_555
N11_2 Zn3 1_555 1_555
N11B_2 Zn3B 1_555 1_555
N12B Zn4B 1_555 1_555
N13B C20B 1_555 1_555
N13_2 Zn3B 1_555 1_555
N13B_2 Zn3 1_555 1_555
N14B Zn4B 1_555 1_555
N15B C23B 1_555 1_555
N15A Zn3B 1_555 1_555
N15C Zn3 1_555 1_555
N16B Zn4B 1_555 1_555
H1B C1B 1_555 1_555
H2B C2B 1_555 1_555
H3B C3B 1_555 1_555
H4B C4B 1_555 1_555
H5B C5B 1_555 1_555
H6B C6B 1_555 1_555
H7B C7B 1_555 1_555
H8B C8B 1_555 1_555
H9B C9B 1_555 1_555
H10B C10B 1_555 1_555
H11B C11B 1_555 1_555
H12B C12B 1_555 1_555
H13B C13B 1_555 1_555
H14B C14B 1_555 1_555
H15B C15B 1_555 1_555
H16B C16B 1_555 1_555
H17B C17B 1_555 1_555
H18B C18B 1_555 1_555
H19B C19B 1_555 1_555
H20B C20B 1_555 1_555
H21B C21B 1_555 1_555
H22B C22B 1_555 1_555
H23B C23B 1_555 1_555
H24B C24B 1_555 1_555
C5 N3 1_555 1_555
C8 N6 1_555 1_555
C11 N8 1_555 1_555
C14 N10 1_555 1_555
C16 N12 1_555 1_555
C17 N12 1_555 1_555
C19 N14 1_555 1_555
C22 N16 1_555 1_555
C4B N4B 1_555 1_555
C5B N3B 1_555 1_555
C7B N6B 1_555 1_555
C8B N6B 1_555 1_555
C11B N8B 1_555 1_555
C14B N10B 1_555 1_555
C16B N12B 1_555 1_555
C17B N12B 1_555 1_555
C19B N14B 1_555 1_555
C22B N16B 1_555 1_555

#END
