
#######################################################################
#
#                 Cambridge Crystallographic Data Centre
#                                CCDC 
#
#######################################################################
#
# If this CIF has been generated from an entry in the Cambridge 
# Structural Database, then it will include bibliographic, chemical, 
# crystal, experimental, refinement or atomic coordinate data resulting 
# from the CCDC's data processing and validation procedures.
#
#######################################################################

data_VEJYIT01
_symmetry_cell_setting           orthorhombic
_symmetry_space_group_name_H-M   'P b c a'
_symmetry_Int_Tables_number      61
_space_group_name_Hall           '-P 2ac 2ab'
loop_
_symmetry_equiv_pos_site_id
_symmetry_equiv_pos_as_xyz
1 x,y,z
2 1/2-x,-y,1/2+z
3 -x,1/2+y,1/2-z
4 1/2+x,1/2-y,-z
5 -x,-y,-z
6 1/2+x,y,1/2-z
7 x,1/2-y,1/2+z
8 1/2-x,1/2+y,z
_cell_length_a                   9.801(3)
_cell_length_b                   24.104(8)
_cell_length_c                   24.356(8)
_cell_angle_alpha                90
_cell_angle_beta                 90
_cell_angle_gamma                90
_cell_volume                     5753.94
loop_
_atom_site_label
_atom_site_type_symbol
_atom_site_fract_x
_atom_site_fract_y
_atom_site_fract_z
Zn1 Zn -0.02466(7) 0.17578(3) 0.50056(3)
Zn2 Zn -0.00040(8) -0.00059(3) 0.67663(3)
N1 N 0.1068(5) 0.2381(2) 0.5158(2)
N2 N 0.2909(5) 0.2919(2) 0.5156(2)
N3 N -0.0436(6) 0.1318(2) 0.5693(2)
N4 N -0.0351(6) 0.0684(2) 0.6357(2)
N5 N 0.0362(6) 0.0675(2) 0.3699(2)
N6 N 0.0309(6) 0.1327(2) 0.4348(2)
N7 N -0.1252(5) -0.0072(2) 0.7411(2)
N8 N -0.3091(5) -0.0082(2) 0.7954(2)
C1 C 0.2288(6) 0.2467(3) 0.4952(3)
H1 H 0.2685 0.2237 0.4691
C2 C 0.2004(8) 0.3119(3) 0.5522(3)
H2 H 0.2130 0.3433 0.5738
C3 C 0.0885(7) 0.2793(3) 0.5526(3)
H3 H 0.0118 0.2844 0.5745
C4 C -0.0127(6) 0.0801(3) 0.5825(3)
H4 H 0.0212 0.0544 0.5575
C5 C -0.0106(6) 0.0827(3) 0.4190(3)
H5 H -0.0671 0.0604 0.4403
C6 C 0.1081(9) 0.1513(3) 0.3924(3)
H6 H 0.1516 0.1856 0.3907
C7 C 0.1114(9) 0.1122(3) 0.3533(3)
H7 H 0.1576 0.1150 0.3201
C8 C -0.2541(6) 0.0093(3) 0.7484(3)
H8 H -0.3010 0.0310 0.7231
C9 C -0.0966(7) -0.0375(3) 0.7876(3)
H9 H -0.0148 -0.0555 0.7950
C10 C -0.2076(7) -0.0365(3) 0.8206(3)
H10 H -0.2133 -0.0528 0.8552
C20 C -0.0861(12) 0.1162(4) 0.6567(3)
H32 H -0.1127 0.1218 0.6929
C21 C -0.0917(12) 0.1541(4) 0.6162(3)
H33 H -0.1240 0.1902 0.6200
Zn1C Zn 0.47534(7) 0.32422(3) 0.49944(3)
Zn2D Zn 0.00040(8) 0.00059(3) 0.32337(3)
Zn2E Zn -0.50040(8) -0.00059(3) 0.82337(3)
N2C N -0.2091(5) 0.2081(2) 0.4844(2)
N5D N -0.0362(6) -0.0675(2) 0.6301(2)
N8E N 0.1909(5) -0.0082(2) 0.7046(2)
N9 N 0.4254(9) 0.1476(3) 0.6369(4)
C11 C 0.2899(17) 0.1326(9) 0.6180(9)
H11 H 0.2503 0.1064 0.6430
H12 H 0.2960 0.1163 0.5821
H13 H 0.2338 0.1652 0.6164
C12 C 0.5009(18) 0.1853(7) 0.6081(7)
H14 H 0.5879 0.1901 0.6257
H15 H 0.4537 0.2202 0.6072
H16 H 0.5144 0.1721 0.5713
C13 C 0.4541(15) 0.1186(6) 0.6873(6)
H17 H 0.3917 0.0964 0.7058
O1 O 0.5734(11) 0.1271(6) 0.7031(5)
N10 N -0.3525(10) -0.0152(6) 0.5472(4)
C14 C -0.379(2) 0.0197(9) 0.5954(8)
H18 H -0.3444 0.0564 0.5889
H19 H -0.3339 0.0040 0.6268
H20 H -0.4752 0.0214 0.6021
C15 C -0.411(2) -0.0689(10) 0.5668(12)
H21 H -0.4024 -0.0963 0.5384
H22 H -0.5054 -0.0639 0.5758
H23 H -0.3622 -0.0810 0.5989
C16 C -0.2205(16) -0.0147(12) 0.5186(7)
H24 H -0.1360 -0.0246 0.5329
O2 O -0.2461(12) 0.0021(4) 0.4706(5)
N11 N -0.2937(13) -0.2143(5) 0.7510(4)
C17 C -0.357(3) -0.1644(9) 0.7752(9)
H25 H -0.4093 -0.1456 0.7477
H26 H -0.2864 -0.1401 0.7886
H27 H -0.4150 -0.1751 0.8050
C18 C -0.300(2) -0.2388(7) 0.6960(7)
H28 H -0.2596 -0.2710 0.6826
C19 C -0.221(3) -0.2358(13) 0.8011(9)
H29 H -0.1724 -0.2692 0.7919
H30 H -0.2861 -0.2436 0.8294
H31 H -0.1573 -0.2084 0.8139
O3 O -0.3747(19) -0.2034(8) 0.6716(7)
loop_
_geom_bond_atom_site_label_1
_geom_bond_atom_site_label_2
_geom_bond_site_symmetry_1
_geom_bond_site_symmetry_2
Zn1 N1 1_555 1_555
Zn2 N4 1_555 1_555
N1 C1 1_555 1_555
N2 C1 1_555 1_555
N3 Zn1 1_555 1_555
N4 C4 1_555 1_555
N5 C5 1_555 1_555
N6 Zn1 1_555 1_555
N7 Zn2 1_555 1_555
N8 C8 1_555 1_555
N9 C11 1_555 1_555
N10 C14 1_555 1_555
N11 C17 1_555 1_555
C1 H1 1_555 1_555
C2 N2 1_555 1_555
H2 C2 1_555 1_555
C3 N1 1_555 1_555
H3 C3 1_555 1_555
C4 N3 1_555 1_555
H4 C4 1_555 1_555
C5 N6 1_555 1_555
H5 C5 1_555 1_555
C6 N6 1_555 1_555
H6 C6 1_555 1_555
C7 N5 1_555 1_555
H7 C7 1_555 1_555
C8 N7 1_555 1_555
H8 C8 1_555 1_555
C9 N7 1_555 1_555
H9 C9 1_555 1_555
C10 N8 1_555 1_555
H10 C10 1_555 1_555
C11 H11 1_555 1_555
H12 C11 1_555 1_555
H13 C11 1_555 1_555
C12 N9 1_555 1_555
H14 C12 1_555 1_555
H15 C12 1_555 1_555
H16 C12 1_555 1_555
C13 N9 1_555 1_555
H17 C13 1_555 1_555
C14 H18 1_555 1_555
H19 C14 1_555 1_555
H20 C14 1_555 1_555
C15 N10 1_555 1_555
H21 C15 1_555 1_555
H22 C15 1_555 1_555
H23 C15 1_555 1_555
C16 N10 1_555 1_555
H24 C16 1_555 1_555
C17 H25 1_555 1_555
H26 C17 1_555 1_555
H27 C17 1_555 1_555
C18 N11 1_555 1_555
H28 C18 1_555 1_555
C19 N11 1_555 1_555
H29 C19 1_555 1_555
H30 C19 1_555 1_555
H31 C19 1_555 1_555
O1 C13 1_555 1_555
O2 C16 1_555 1_555
O3 C18 1_555 1_555
C20 N4 1_555 1_555
H32 C20 1_555 1_555
C21 N3 1_555 1_555
H33 C21 1_555 1_555
Zn1C N2 1_555 1_555
Zn2D N5 1_555 1_555
Zn2E N8 1_555 1_555
N2C Zn1 1_555 1_555
N5D Zn2 1_555 1_555
N8E Zn2 1_555 1_555
C2 C3 1_555 1_555
C6 C7 1_555 1_555
C9 C10 1_555 1_555
C20 C21 1_555 1_555

#END
