
#######################################################################
#
#                 Cambridge Crystallographic Data Centre
#                                CCDC 
#
#######################################################################
#
# If this CIF has been generated from an entry in the Cambridge 
# Structural Database, then it will include bibliographic, chemical, 
# crystal, experimental, refinement or atomic coordinate data resulting 
# from the CCDC's data processing and validation procedures.
#
#######################################################################

data_VEJZEQ
_symmetry_cell_setting           rhombohedral
_symmetry_space_group_name_H-M   'R -3'
_symmetry_Int_Tables_number      148
_space_group_name_Hall           '-R 3'
loop_
_symmetry_equiv_pos_site_id
_symmetry_equiv_pos_as_xyz
1 x,y,z
2 -y,x-y,z
3 -x+y,-x,z
4 2/3+x,1/3+y,1/3+z
5 2/3-y,1/3+x-y,1/3+z
6 2/3-x+y,1/3-x,1/3+z
7 1/3+x,2/3+y,2/3+z
8 1/3-y,2/3+x-y,2/3+z
9 1/3-x+y,2/3-x,2/3+z
10 -x,-y,-z
11 y,-x+y,-z
12 x-y,x,-z
13 1/3-x,2/3-y,2/3-z
14 1/3+y,2/3-x+y,2/3-z
15 1/3+x-y,2/3+x,2/3-z
16 2/3-x,1/3-y,1/3-z
17 2/3+y,1/3-x+y,1/3-z
18 2/3+x-y,1/3+x,1/3-z
_cell_length_a                   22.9437(16)
_cell_length_b                   22.9437(16)
_cell_length_c                   15.747(2)
_cell_angle_alpha                90
_cell_angle_beta                 90
_cell_angle_gamma                120
_cell_volume                     7178.86
loop_
_atom_site_label
_atom_site_type_symbol
_atom_site_fract_x
_atom_site_fract_y
_atom_site_fract_z
C1 C 0.3294(4) 0.0288(4) 0.1756(4)
H1 H 0.3333 0.0710 0.1714
C2 C 0.3367(3) -0.0544(3) 0.2234(5)
C3 C 0.3476(4) -0.0994(4) 0.2714(5)
H2 H 0.3675 -0.0883 0.3249
C4 C 0.3270(5) -0.1606(4) 0.2345(7)
H3 H 0.3346 -0.1915 0.2635
C5 C 0.3926(4) 0.2006(4) 0.3394(4)
H4 H 0.3659 0.1891 0.3878
C6 C 0.4522(4) 0.1957(4) 0.2377(5)
C7 C 0.4870(4) 0.1794(4) 0.1800(5)
H5 H 0.4863 0.1385 0.1829
C8 C 0.5228(6) 0.2258(5) 0.1181(7)
H6 H 0.5476 0.2167 0.0789
C9 C 0.4524(4) 0.2567(4) 0.2328(4)
C10 C 0.4887(5) 0.3038(5) 0.1702(6)
H7 H 0.4899 0.3448 0.1672
C11 C 0.5226(6) 0.2864(6) 0.1129(7)
H8 H 0.5463 0.3162 0.0692
C12 C 0.3040(4) -0.0723(3) 0.1454(5)
C13 C 0.2837(4) -0.1348(4) 0.1106(6)
H9 H 0.2628 -0.1467 0.0578
C14 C 0.2952(4) -0.1791(5) 0.1564(7)
H10 H 0.2816 -0.2217 0.1348
Co1 Co 0.39885(5) 0.07006(5) 0.34075(6)
N1 N 0.3526(3) 0.0112(3) 0.2427(4)
N2 N 0.4124(3) 0.1597(3) 0.3063(4)
N3 N 0.4129(3) 0.2583(3) 0.2999(4)
N4 N 0.3004(3) -0.0175(3) 0.1149(3)
C1E C 0.3661(6) 0.0039(4) 0.5089(4)
H1E H 0.4044 0.0000 0.5047
C2E C 0.2756(4) -0.0034(3) 0.5567(5)
C3E C 0.2197(6) -0.0143(4) 0.6047(5)
H2E H 0.2109 -0.0342 0.6582
C4E C 0.1791(6) 0.0063(5) 0.5678(7)
H3E H 0.1406 -0.0013 0.5968
C5N C 0.5253(6) 0.0593(4) 0.3273(4)
H4N H 0.5101 0.0326 0.2789
C6N C 0.5898(6) 0.1189(4) 0.4290(5)
C7N C 0.6409(6) 0.1537(4) 0.4867(5)
H5N H 0.6811 0.1530 0.4838
C8N C 0.6303(8) 0.1895(6) 0.5486(7)
H6N H 0.6642 0.2143 0.5878
C9N C 0.5290(6) 0.1191(4) 0.4339(4)
C10N C 0.5182(7) 0.1554(5) 0.4965(6)
H7N H 0.4784 0.1566 0.4995
C11N C 0.5695(8) 0.1893(6) 0.5538(7)
H8N H 0.5634 0.2130 0.5975
C12E C 0.2904(5) 0.0293(4) 0.4787(5)
C13E C 0.2482(6) 0.0496(4) 0.4439(6)
H9E H 0.2572 0.0705 0.3911
C14E C 0.1924(6) 0.0381(4) 0.4897(7)
H10E H 0.1634 0.0517 0.4681
Co1E Co 0.33788(7) -0.06552(5) 0.67408(6)
Co1N Co 0.66212(7) 0.06552(5) 0.32592(6)
Co1M Co 0.40339(5) 0.33788(7) 0.32592(6)
Co1G Co 0.26327(5) -0.00454(7) 0.00742(6)
N1E N 0.3253(4) -0.0193(3) 0.5760(4)
N1G N 0.3221(3) 0.0081(4) -0.0906(4)
N2N N 0.5860(4) 0.0791(3) 0.3604(4)
N2G N 0.1736(3) -0.0806(4) -0.0270(4)
N3N N 0.4879(4) 0.0796(3) 0.3668(4)
N3O N 0.2538(3) 0.0750(3) 0.0334(4)
N4E N 0.3488(4) 0.0329(3) 0.4482(3)
O1 O 0.1965(9) 0.855(2) 0.416(3)
O2 O 0.6667 0.3333 0.3333
O3? O 0.1667 0.8333 0.3333
O4? O 0.1775(15) 0.7817(13) 0.389(4)
loop_
_geom_bond_atom_site_label_1
_geom_bond_atom_site_label_2
_geom_bond_site_symmetry_1
_geom_bond_site_symmetry_2
C1 H1 1_555 1_555
C2 C3 1_555 1_555
C3 H2 1_555 1_555
C4 C3 1_555 1_555
H3 C4 1_555 1_555
C5 H4 1_555 1_555
C6 C7 1_555 1_555
C7 H5 1_555 1_555
C8 C7 1_555 1_555
H6 C8 1_555 1_555
C9 C6 1_555 1_555
C10 C9 1_555 1_555
H7 C10 1_555 1_555
C11 C8 1_555 1_555
H8 C11 1_555 1_555
C12 C2 1_555 1_555
C13 C12 1_555 1_555
H9 C13 1_555 1_555
C14 C4 1_555 1_555
H10 C14 1_555 1_555
Co1 N1 1_555 1_555
N1 C1 1_555 1_555
N2 C5 1_555 1_555
N3 C5 1_555 1_555
N4 C1 1_555 1_555
C1E H1E 1_555 1_555
C2E C3E 1_555 1_555
C3E H2E 1_555 1_555
C4E C3E 1_555 1_555
H3E C4E 1_555 1_555
C5N H4N 1_555 1_555
C6N C7N 1_555 1_555
C7N H5N 1_555 1_555
C8N C7N 1_555 1_555
H6N C8N 1_555 1_555
C9N C6N 1_555 1_555
C10N C9N 1_555 1_555
H7N C10N 1_555 1_555
C11N C8N 1_555 1_555
H8N C11N 1_555 1_555
C12E C2E 1_555 1_555
C13E C12E 1_555 1_555
H9E C13E 1_555 1_555
C14E C4E 1_555 1_555
H10E C14E 1_555 1_555
Co1E N1E 1_555 1_555
Co1N N2N 1_555 1_555
Co1M N3 1_555 1_555
Co1G N4 1_555 1_555
N1E C1E 1_555 1_555
N1G Co1G 1_555 1_555
N2N C5N 1_555 1_555
N2G Co1G 1_555 1_555
N3N Co1 1_555 1_555
N3O Co1G 1_555 1_555
N4E Co1 1_555 1_555
C2 N1 1_555 1_555
C6 N2 1_555 1_555
C9 N3 1_555 1_555
C10 C11 1_555 1_555
C12 N4 1_555 1_555
C13 C14 1_555 1_555
Co1 N2 1_555 1_555
C1E N4E 1_555 1_555
C2E N1E 1_555 1_555
C5N N3N 1_555 1_555
C6N N2N 1_555 1_555
C9N N3N 1_555 1_555
C10N C11N 1_555 1_555
C12E N4E 1_555 1_555
C13E C14E 1_555 1_555

#END
