
#######################################################################
#
#                 Cambridge Crystallographic Data Centre
#                                CCDC 
#
#######################################################################
#
# If this CIF has been generated from an entry in the Cambridge 
# Structural Database, then it will include bibliographic, chemical, 
# crystal, experimental, refinement or atomic coordinate data resulting 
# from the CCDC's data processing and validation procedures.
#
#######################################################################

data_VEJZIU
_symmetry_cell_setting           tetragonal
_symmetry_space_group_name_H-M   'I 4/m m m'
_symmetry_Int_Tables_number      139
_space_group_name_Hall           '-I 4 2'
loop_
_symmetry_equiv_pos_site_id
_symmetry_equiv_pos_as_xyz
1 x,y,z
2 -y,x,z
3 y,-x,z
4 y,x,-z
5 1/2+x,1/2+y,1/2+z
6 1/2-y,1/2+x,1/2+z
7 1/2+y,1/2-x,1/2+z
8 1/2+y,1/2+x,1/2-z
9 -x,-y,z
10 -x,y,-z
11 x,-y,-z
12 -y,-x,-z
13 1/2-x,1/2-y,1/2+z
14 1/2-x,1/2+y,1/2-z
15 1/2+x,1/2-y,1/2-z
16 1/2-y,1/2-x,1/2-z
17 -x,-y,-z
18 y,-x,-z
19 -y,x,-z
20 -y,-x,z
21 1/2-x,1/2-y,1/2-z
22 1/2+y,1/2-x,1/2-z
23 1/2-y,1/2+x,1/2-z
24 1/2-y,1/2-x,1/2+z
25 x,y,-z
26 x,-y,z
27 -x,y,z
28 y,x,z
29 1/2+x,1/2+y,1/2-z
30 1/2+x,1/2-y,1/2+z
31 1/2-x,1/2+y,1/2+z
32 1/2+y,1/2+x,1/2+z
_cell_length_a                   27.0608(18)
_cell_length_b                   27.0608(18)
_cell_length_c                   19.406(3)
_cell_angle_alpha                90
_cell_angle_beta                 90
_cell_angle_gamma                90
_cell_volume                     14210.8
loop_
_atom_site_label
_atom_site_type_symbol
_atom_site_fract_x
_atom_site_fract_y
_atom_site_fract_z
C1 C 0.3671(3) 0.1045(3) 0.2279(5)
H1 H 0.3756 0.0732 0.2106
C2 C 0.3282(3) 0.1718(3) 0.2500
H2 H 0.3036 0.1964 0.2500
C3 C 0.1874(2) 0.1874(2) 0.1477(5)
H3 H 0.1936 0.1936 0.1009
C4 C 0.1918(3) 0.1576(3) 0.2479(4)
H4 H 0.2013 0.1386 0.2863
C5 C 0.2009(8) 0.0250(6) 0.1709(11)
H5 H 0.1728 0.0454 0.1734
C6 C 0.3327(10) 0.1419(10) 0.0358(8)
H6 H 0.3586 0.1523 0.0646
C7 C 0.2684(4) 0.0000 0.1521(5)
H7 H 0.2990 0.0000 0.1292
C8 C 0.2654(4) 0.1075(4) 0.0000
H8 H 0.2379 0.0864 0.0000
N1 N 0.3242(2) 0.1300(2) 0.2134(3)
N2 N 0.2114(2) 0.1538(2) 0.1832(3)
N3 N 0.2488(2) 0.0409(2) 0.1668(3)
N4 N 0.2861(2) 0.1233(2) 0.0571(3)
Zn1 Zn 0.26787(3) 0.11096(3) 0.15461(4)
C1O C 0.3955(3) 0.1329(3) 0.2721(5)
H1O H 0.4268 0.1244 0.2894
C4AA C 0.1576(3) 0.1918(3) 0.2479(4)
H4AA H 0.1386 0.2013 0.2863
C5Y C 0.2009(8) -0.0250(6) 0.1709(11)
H5Y H 0.1728 -0.0454 0.1734
C6X C 0.3327(10) 0.1419(10) -0.0358(8)
H6X H 0.3586 0.1523 -0.0646
N1O N 0.3700(2) 0.1758(2) 0.2866(3)
N1X N 0.3242(2) 0.1300(2) -0.2134(3)
N2AA N 0.1538(2) 0.2114(2) 0.1832(3)
N2X N 0.2114(2) 0.1538(2) -0.1832(3)
N3Y N 0.2488(2) -0.0409(2) 0.1668(3)
N3X N 0.2488(2) 0.0409(2) -0.1668(3)
N4X N 0.2861(2) 0.1233(2) -0.0571(3)
Zn1O Zn 0.38904(3) 0.23213(3) 0.34539(4)
Zn1AA Zn 0.11096(3) 0.26787(3) 0.15461(4)
Zn1Y Zn 0.26787(3) -0.11096(3) 0.15461(4)
Zn1X Zn 0.26787(3) 0.11096(3) -0.15461(4)
O1 O 0.3917(15) 0.0000 0.0000
O2 O 0.3924(9) 0.0000 0.1341(13)
O3 O 0.5000 0.0000 0.2500
O4 O 0.306(2) 0.0000 0.380(3)
O5 O 0.303(2) 0.303(2) 0.0000
O6 O 0.1270(18) 0.1270(18) 0.0000
C9? C 0.2136(10) 0.0255(8) 0.2226(19)
H9? H 0.1953 0.0464 0.2516
C10? C 0.3158(8) 0.1635(10) 0.0354(8)
H10? H 0.3324 0.1860 0.0641
loop_
_geom_bond_atom_site_label_1
_geom_bond_atom_site_label_2
_geom_bond_site_symmetry_1
_geom_bond_site_symmetry_2
C1 H1 1_555 1_555
C2 H2 1_555 1_555
C3 H3 1_555 1_555
C4 H4 1_555 1_555
C5 H5 1_555 1_555
C6 H6 1_555 1_555
C7 H7 1_555 1_555
C8 H8 1_555 1_555
N1 C1 1_555 1_555
N2 C3 1_555 1_555
N3 C5 1_555 1_555
N4 C6 1_555 1_555
Zn1 N1 1_555 1_555
C1O C1 1_555 1_555
H1O C1O 1_555 1_555
C4AA C4 1_555 1_555
H4AA C4AA 1_555 1_555
C5Y C5 1_555 1_555
H5Y C5Y 1_555 1_555
C6X C6 1_555 1_555
H6X C6X 1_555 1_555
N1O C2 1_555 1_555
N1X Zn1X 1_555 1_555
N2AA C3 1_555 1_555
N2X Zn1X 1_555 1_555
N3Y C7 1_555 1_555
N3X Zn1X 1_555 1_555
N4X C8 1_555 1_555
Zn1O N1O 1_555 1_555
Zn1AA N2AA 1_555 1_555
Zn1Y N3Y 1_555 1_555
Zn1X N4X 1_555 1_555
C2 N1 1_555 1_555
C4 N2 1_555 1_555
C7 N3 1_555 1_555
C8 N4 1_555 1_555
N2 Zn1 1_555 1_555
N3 Zn1 1_555 1_555
N4 Zn1 1_555 1_555
C1O N1O 1_555 1_555
C4AA N2AA 1_555 1_555
C5Y N3Y 1_555 1_555
C6X N4X 1_555 1_555

#END
