
#######################################################################
#
#                 Cambridge Crystallographic Data Centre
#                                CCDC 
#
#######################################################################
#
# If this CIF has been generated from an entry in the Cambridge 
# Structural Database, then it will include bibliographic, chemical, 
# crystal, experimental, refinement or atomic coordinate data resulting 
# from the CCDC's data processing and validation procedures.
#
#######################################################################

data_VEJZAM
_symmetry_cell_setting           cubic
_symmetry_space_group_name_H-M   'I a -3 d'
_symmetry_Int_Tables_number      230
_space_group_name_Hall           '-I 4bd 2c 3'
loop_
_symmetry_equiv_pos_site_id
_symmetry_equiv_pos_as_xyz
1 x,y,z
2 z,x,y
3 y,z,x
4 3/4+y,1/4+x,1/4-z
5 1/4+y,1/4-x,3/4+z
6 1/4-y,3/4+x,1/4+z
7 3/4+x,1/4+z,1/4-y
8 1/4-x,3/4+z,1/4+y
9 1/4+x,1/4-z,3/4+y
10 3/4+z,1/4+y,1/4-x
11 1/4+z,1/4-y,3/4+x
12 1/4-z,3/4+y,1/4+x
13 1/2+x,1/2+y,1/2+z
14 1/2+z,1/2+x,1/2+y
15 1/2+y,1/2+z,1/2+x
16 1/4+y,3/4+x,3/4-z
17 1/4-y,1/4-x,1/4-z
18 3/4+y,3/4-x,1/4+z
19 3/4-y,1/4+x,3/4+z
20 1/4+x,3/4+z,3/4-y
21 3/4-x,1/4+z,3/4+y
22 1/4-x,1/4-z,1/4-y
23 3/4+x,3/4-z,1/4+y
24 1/4+z,3/4+y,3/4-x
25 3/4+z,3/4-y,1/4+x
26 3/4-z,1/4+y,3/4+x
27 1/4-z,1/4-y,1/4-x
28 1/2-x,-y,1/2+z
29 -x,1/2+y,1/2-z
30 1/2+x,1/2-y,-z
31 1/2+z,1/2-x,-y
32 1/2-z,-x,1/2+y
33 -z,1/2+x,1/2-y
34 -y,1/2+z,1/2-x
35 1/2+y,1/2-z,-x
36 1/2-y,-z,1/2+x
37 3/4-y,3/4-x,3/4-z
38 3/4-x,3/4-z,3/4-y
39 3/4-z,3/4-y,3/4-x
40 -x,1/2-y,z
41 1/2-x,y,-z
42 x,-y,1/2-z
43 z,-x,1/2-y
44 -z,1/2-x,y
45 1/2-z,x,-y
46 1/2-y,z,-x
47 y,-z,1/2-x
48 -y,1/2-z,x
49 -x,-y,-z
50 -z,-x,-y
51 -y,-z,-x
52 1/4-y,3/4-x,3/4+z
53 3/4-y,3/4+x,1/4-z
54 3/4+y,1/4-x,3/4-z
55 1/4-x,3/4-z,3/4+y
56 3/4+x,1/4-z,3/4-y
57 3/4-x,3/4+z,1/4-y
58 1/4-z,3/4-y,3/4+x
59 3/4-z,3/4+y,1/4-x
60 3/4+z,1/4-y,3/4-x
61 1/2-x,1/2-y,1/2-z
62 1/2-z,1/2-x,1/2-y
63 1/2-y,1/2-z,1/2-x
64 3/4-y,1/4-x,1/4+z
65 3/4+y,3/4+x,3/4+z
66 1/4-y,1/4+x,3/4-z
67 1/4+y,3/4-x,1/4-z
68 3/4-x,1/4-z,1/4+y
69 1/4+x,3/4-z,1/4-y
70 3/4+x,3/4+z,3/4+y
71 1/4-x,1/4+z,3/4-y
72 3/4-z,1/4-y,1/4+x
73 1/4-z,1/4+y,3/4-x
74 1/4+z,3/4-y,1/4-x
75 3/4+z,3/4+y,3/4+x
76 1/2+x,y,1/2-z
77 x,1/2-y,1/2+z
78 1/2-x,1/2+y,z
79 1/2-z,1/2+x,y
80 1/2+z,x,1/2-y
81 z,1/2-x,1/2+y
82 y,1/2-z,1/2+x
83 1/2-y,1/2+z,x
84 1/2+y,z,1/2-x
85 1/4+y,1/4+x,1/4+z
86 1/4+x,1/4+z,1/4+y
87 1/4+z,1/4+y,1/4+x
88 x,1/2+y,-z
89 1/2+x,-y,z
90 -x,y,1/2+z
91 -z,x,1/2+y
92 z,1/2+x,-y
93 1/2+z,-x,y
94 1/2+y,-z,x
95 -y,z,1/2+x
96 y,1/2+z,-x
_cell_length_a                   21.9619(6)
_cell_length_b                   21.9619(6)
_cell_length_c                   21.9619(6)
_cell_angle_alpha                90
_cell_angle_beta                 90
_cell_angle_gamma                90
_cell_volume                     10592.8
loop_
_atom_site_label
_atom_site_type_symbol
_atom_site_fract_x
_atom_site_fract_y
_atom_site_fract_z
In1 In 0.0000 0.0000 0.0000
Zn1 Zn 0.0000 -0.2500 0.1250
N1 N -0.18179(6) 0.07479(6) -0.03164(6)
N2 N -0.09355(6) 0.02433(6) -0.03055(6)
C1 C -0.13226(7) 0.05945(7) 0.00029(7)
C2 C -0.12034(8) 0.01639(8) -0.08652(8)
C3 C -0.17394(8) 0.04685(8) -0.08718(8)
H1 H -0.1274(8) 0.0718(8) 0.0395(8)
H2 H -0.1000(10) -0.0044(10) -0.1158(11)
H3 H -0.2014(10) 0.0518(10) -0.1177(10)
In1C In -0.2500 0.2500 0.2500
In1Q In -0.2500 -0.2500 0.2500
In1E In 0.2500 -0.2500 0.2500
In1IC In 0.0000 -0.5000 0.0000
In1O In 0.2500 -0.2500 -0.2500
In1JC In 0.5000 0.0000 0.0000
Zn1B Zn -0.2500 0.1250 0.0000
Zn1A Zn 0.1250 0.0000 -0.2500
Zn1G Zn 0.2500 -0.1250 0.0000
Zn1D Zn 0.0000 0.2500 -0.1250
Zn1I Zn -0.1250 0.0000 0.2500
N1A N -0.03164(6) -0.18179(6) 0.07479(6)
N1B N 0.07479(6) -0.03164(6) -0.18179(6)
N1VA N 0.18179(6) -0.07479(6) 0.03164(6)
N1WA N 0.03164(6) 0.18179(6) -0.07479(6)
N1XA N -0.07479(6) 0.03164(6) 0.18179(6)
N1DB N -0.06821(6) -0.28164(6) 0.17521(6)
N1PB N 0.06821(6) -0.21836(6) 0.17521(6)
N1QA N 0.03164(6) -0.31821(6) 0.07479(6)
N1K N 0.28164(6) -0.17521(6) 0.06821(6)
N1W N 0.21836(6) -0.17521(6) -0.06821(6)
N1JC N 0.31821(6) -0.07479(6) -0.03164(6)
N1C N -0.17521(6) 0.06821(6) 0.28164(6)
N1Q N -0.17521(6) -0.06821(6) 0.21836(6)
N1PC N -0.07479(6) -0.03164(6) 0.31821(6)
N2A N -0.03055(6) -0.09355(6) 0.02433(6)
N2B N 0.02433(6) -0.03055(6) -0.09355(6)
N2VA N 0.09355(6) -0.02433(6) 0.03055(6)
N2WA N 0.03055(6) 0.09355(6) -0.02433(6)
N2XA N -0.02433(6) 0.03055(6) 0.09355(6)
N2SB N -0.21945(6) 0.22567(6) 0.15645(6)
N2DB N -0.15645(6) -0.28055(6) 0.22567(6)
N2PB N 0.15645(6) -0.21945(6) 0.22567(6)
N2QA N 0.03055(6) -0.40645(6) 0.02433(6)
N2W N 0.21945(6) -0.22567(6) -0.15645(6)
N2JC N 0.40645(6) -0.02433(6) -0.03055(6)
N2C N -0.22567(6) 0.15645(6) 0.28055(6)
N2F N -0.34355(6) 0.21945(6) 0.22567(6)
N2I N -0.28055(6) 0.27433(6) 0.34355(6)
N2KB N -0.27433(6) 0.34355(6) 0.21945(6)
N2OB N -0.15645(6) 0.28055(6) 0.27433(6)
C1A C 0.00029(7) -0.13226(7) 0.05945(7)
C1B C 0.05945(7) 0.00029(7) -0.13226(7)
C1VA C 0.13226(7) -0.05945(7) -0.00029(7)
C1WA C -0.00029(7) 0.13226(7) -0.05945(7)
C1XA C -0.05945(7) -0.00029(7) 0.13226(7)
C1DB C -0.11774(7) -0.24971(7) 0.19055(7)
C1PB C 0.11774(7) -0.25029(7) 0.19055(7)
C1QA C -0.00029(7) -0.36774(7) 0.05945(7)
C1W C 0.25029(7) -0.19055(7) -0.11774(7)
C1JC C 0.36774(7) -0.05945(7) 0.00029(7)
C1C C -0.19055(7) 0.11774(7) 0.24971(7)
C2A C -0.08652(8) -0.12034(8) 0.01639(8)
C2B C 0.01639(8) -0.08652(8) -0.12034(8)
C2VA C 0.12034(8) -0.01639(8) 0.08652(8)
C2WA C 0.08652(8) 0.12034(8) -0.01639(8)
C2XA C -0.01639(8) 0.08652(8) 0.12034(8)
C2DB C -0.12966(8) -0.33652(8) 0.23361(8)
C2PB C 0.12966(8) -0.16348(8) 0.23361(8)
C2QA C 0.08652(8) -0.37966(8) 0.01639(8)
C2W C 0.16348(8) -0.23361(8) -0.12966(8)
C2JC C 0.37966(8) -0.01639(8) -0.08652(8)
C2C C -0.23361(8) 0.12966(8) 0.33652(8)
C3A C -0.08718(8) -0.17394(8) 0.04685(8)
C3B C 0.04685(8) -0.08718(8) -0.17394(8)
C3VA C 0.17394(8) -0.04685(8) 0.08718(8)
C3WA C 0.08718(8) 0.17394(8) -0.04685(8)
C3XA C -0.04685(8) 0.08718(8) 0.17394(8)
C3DB C -0.07606(8) -0.33718(8) 0.20315(8)
C3PB C 0.07606(8) -0.16282(8) 0.20315(8)
C3QA C 0.08718(8) -0.32606(8) 0.04685(8)
C3W C 0.16282(8) -0.20315(8) -0.07606(8)
C3JC C 0.32606(8) -0.04685(8) -0.08718(8)
C3C C -0.20315(8) 0.07606(8) 0.33718(8)
H1A H 0.0395(8) -0.1274(8) 0.0718(8)
H1B H 0.0718(8) 0.0395(8) -0.1274(8)
H1VA H 0.1274(8) -0.0718(8) -0.0395(8)
H1WA H -0.0395(8) 0.1274(8) -0.0718(8)
H1XA H -0.0718(8) -0.0395(8) 0.1274(8)
H1DB H -0.1226(8) -0.2105(8) 0.1782(8)
H1PB H 0.1226(8) -0.2895(8) 0.1782(8)
H1QA H -0.0395(8) -0.3726(8) 0.0718(8)
H1W H 0.2895(8) -0.1782(8) -0.1226(8)
H1JC H 0.3726(8) -0.0718(8) 0.0395(8)
H1C H -0.1782(8) 0.1226(8) 0.2105(8)
H2A H -0.1158(11) -0.1000(10) -0.0044(10)
H2B H -0.0044(10) -0.1158(11) -0.1000(10)
H2VA H 0.1000(10) 0.0044(10) 0.1158(11)
H2WA H 0.1158(11) 0.1000(10) 0.0044(10)
H2XA H 0.0044(10) 0.1158(11) 0.1000(10)
H2DB H -0.1500(10) -0.3658(11) 0.2544(10)
H2PB H 0.1500(10) -0.1342(11) 0.2544(10)
H2QA H 0.1158(11) -0.4000(10) -0.0044(10)
H2W H 0.1342(11) -0.2544(10) -0.1500(10)
H2JC H 0.4000(10) 0.0044(10) -0.1158(11)
H2C H -0.2544(10) 0.1500(10) 0.3658(11)
H3A H -0.1177(10) -0.2014(10) 0.0518(10)
H3B H 0.0518(10) -0.1177(10) -0.2014(10)
H3VA H 0.2014(10) -0.0518(10) 0.1177(10)
H3WA H 0.1177(10) 0.2014(10) -0.0518(10)
H3XA H -0.0518(10) 0.1177(10) 0.2014(10)
H3DB H -0.0486(10) -0.3677(10) 0.1982(10)
H3PB H 0.0486(10) -0.1323(10) 0.1982(10)
H3QA H 0.1177(10) -0.2986(10) 0.0518(10)
H3W H 0.1323(10) -0.1982(10) -0.0486(10)
H3JC H 0.2986(10) -0.0518(10) -0.1177(10)
H3C H -0.1982(10) 0.0486(10) 0.3677(10)
loop_
_geom_bond_atom_site_label_1
_geom_bond_atom_site_label_2
_geom_bond_site_symmetry_1
_geom_bond_site_symmetry_2
In1 N2 1_555 1_555
Zn1 N1A 1_555 1_555
N1 C1 1_555 1_555
N2 C1 1_555 1_555
C1 H1 1_555 1_555
C2 N2 1_555 1_555
C3 N1 1_555 1_555
H2 C2 1_555 1_555
H3 C3 1_555 1_555
In1C N2SB 1_555 1_555
In1Q N2DB 1_555 1_555
In1E N2PB 1_555 1_555
In1IC N2QA 1_555 1_555
In1O N2W 1_555 1_555
In1JC N2JC 1_555 1_555
Zn1B N1 1_555 1_555
Zn1A N1B 1_555 1_555
Zn1G N1VA 1_555 1_555
Zn1D N1WA 1_555 1_555
Zn1I N1XA 1_555 1_555
N1A C1A 1_555 1_555
N1B C1B 1_555 1_555
N1VA C1VA 1_555 1_555
N1WA C1WA 1_555 1_555
N1XA C1XA 1_555 1_555
N1DB Zn1 1_555 1_555
N1PB Zn1 1_555 1_555
N1QA Zn1 1_555 1_555
N1K Zn1G 1_555 1_555
N1W Zn1G 1_555 1_555
N1JC Zn1G 1_555 1_555
N1C Zn1I 1_555 1_555
N1Q Zn1I 1_555 1_555
N1PC Zn1I 1_555 1_555
N2A In1 1_555 1_555
N2B In1 1_555 1_555
N2VA In1 1_555 1_555
N2WA In1 1_555 1_555
N2XA In1 1_555 1_555
N2DB C1DB 1_555 1_555
N2PB C1PB 1_555 1_555
N2QA C1QA 1_555 1_555
N2W C1W 1_555 1_555
N2JC C1JC 1_555 1_555
N2C In1C 1_555 1_555
N2F In1C 1_555 1_555
N2I In1C 1_555 1_555
N2KB In1C 1_555 1_555
N2OB In1C 1_555 1_555
C1A N2A 1_555 1_555
C1B N2B 1_555 1_555
C1VA N2VA 1_555 1_555
C1WA N2WA 1_555 1_555
C1XA N2XA 1_555 1_555
C1DB N1DB 1_555 1_555
C1PB N1PB 1_555 1_555
C1QA N1QA 1_555 1_555
C1W N1W 1_555 1_555
C1JC N1JC 1_555 1_555
C1C N1C 1_555 1_555
C2A N2A 1_555 1_555
C2B N2B 1_555 1_555
C2VA N2VA 1_555 1_555
C2WA N2WA 1_555 1_555
C2XA N2XA 1_555 1_555
C2DB N2DB 1_555 1_555
C2PB N2PB 1_555 1_555
C2QA N2QA 1_555 1_555
C2W N2W 1_555 1_555
C2JC N2JC 1_555 1_555
C2C N2C 1_555 1_555
C3A N1A 1_555 1_555
C3B N1B 1_555 1_555
C3VA N1VA 1_555 1_555
C3WA N1WA 1_555 1_555
C3XA N1XA 1_555 1_555
C3DB N1DB 1_555 1_555
C3PB N1PB 1_555 1_555
C3QA N1QA 1_555 1_555
C3W N1W 1_555 1_555
C3JC N1JC 1_555 1_555
C3C N1C 1_555 1_555
H1A C1A 1_555 1_555
H1B C1B 1_555 1_555
H1VA C1VA 1_555 1_555
H1WA C1WA 1_555 1_555
H1XA C1XA 1_555 1_555
H1DB C1DB 1_555 1_555
H1PB C1PB 1_555 1_555
H1QA C1QA 1_555 1_555
H1W C1W 1_555 1_555
H1JC C1JC 1_555 1_555
H1C C1C 1_555 1_555
H2A C2A 1_555 1_555
H2B C2B 1_555 1_555
H2VA C2VA 1_555 1_555
H2WA C2WA 1_555 1_555
H2XA C2XA 1_555 1_555
H2DB C2DB 1_555 1_555
H2PB C2PB 1_555 1_555
H2QA C2QA 1_555 1_555
H2W C2W 1_555 1_555
H2JC C2JC 1_555 1_555
H2C C2C 1_555 1_555
H3A C3A 1_555 1_555
H3B C3B 1_555 1_555
H3VA C3VA 1_555 1_555
H3WA C3WA 1_555 1_555
H3XA C3XA 1_555 1_555
H3DB C3DB 1_555 1_555
H3PB C3PB 1_555 1_555
H3QA C3QA 1_555 1_555
H3W C3W 1_555 1_555
H3JC C3JC 1_555 1_555
H3C C3C 1_555 1_555
C2 C3 1_555 1_555
N2C C1C 1_555 1_555
C2A C3A 1_555 1_555
C2B C3B 1_555 1_555
C2VA C3VA 1_555 1_555
C2WA C3WA 1_555 1_555
C2XA C3XA 1_555 1_555
C2DB C3DB 1_555 1_555
C2PB C3PB 1_555 1_555
C2QA C3QA 1_555 1_555
C2W C3W 1_555 1_555
C2JC C3JC 1_555 1_555
C2C C3C 1_555 1_555

#END
