
#######################################################################
#
#                 Cambridge Crystallographic Data Centre
#                                CCDC 
#
#######################################################################
#
# If this CIF has been generated from an entry in the Cambridge 
# Structural Database, then it will include bibliographic, chemical, 
# crystal, experimental, refinement or atomic coordinate data resulting 
# from the CCDC's data processing and validation procedures.
#
#######################################################################

data_VEKFOH
_symmetry_cell_setting           tetragonal
_symmetry_space_group_name_H-M   'I 41/a'
_symmetry_Int_Tables_number      88
_space_group_name_Hall           '-I 4ad'
loop_
_symmetry_equiv_pos_site_id
_symmetry_equiv_pos_as_xyz
1 x,y,z
2 3/4-y,1/4+x,1/4+z
3 1/2+x,1/2+y,1/2+z
4 1/4-y,3/4+x,3/4+z
5 1/4+y,1/4-x,1/4+z
6 1/2-x,-y,1/2+z
7 3/4+y,3/4-x,3/4+z
8 -x,1/2-y,z
9 -x,-y,-z
10 1/4+y,3/4-x,3/4-z
11 1/2-x,1/2-y,1/2-z
12 3/4+y,1/4-x,1/4-z
13 3/4-y,3/4+x,3/4-z
14 1/2+x,y,1/2-z
15 1/4-y,1/4+x,1/4-z
16 x,1/2+y,-z
_cell_length_a                   22.5966(16)
_cell_length_b                   22.5966(16)
_cell_length_c                   11.692(2)
_cell_angle_alpha                90
_cell_angle_beta                 90
_cell_angle_gamma                90
_cell_volume                     5970.01
loop_
_atom_site_label
_atom_site_type_symbol
_atom_site_fract_x
_atom_site_fract_y
_atom_site_fract_z
Ag1 Ag 0.783237(17) 0.258366(18) 0.10778(3)
Ag2 Ag 0.699983(17) 0.245957(18) -0.08266(4)
Ag3 Ag 0.957650(15) 0.200270(14) -0.26660(3)
Ag4 Ag 0.452520(17) 0.197590(17) 0.26151(3)
O1 O 0.83025(14) 0.30071(16) -0.0347(3)
O2 O 0.75846(15) 0.30908(17) -0.1640(3)
O3 O 0.89040(13) 0.27419(13) -0.2950(3)
O4 O 0.95288(14) 0.33297(17) -0.2001(3)
O5 O 0.65701(13) 0.18312(13) 0.0339(2)
O6 O 0.70411(14) 0.21404(14) 0.1907(3)
O7 O 0.54969(14) 0.19210(14) 0.2011(3)
O8 O 0.56161(14) 0.13341(14) 0.3529(3)
C1 C 0.80893(18) 0.31885(18) -0.1267(4)
C2 C 0.90181(18) 0.31894(19) -0.2342(3)
C3 C 0.66814(17) 0.18096(17) 0.1391(3)
C4 C 0.57913(19) 0.15508(17) 0.2593(3)
C5 C 0.85071(17) 0.35810(17) -0.1980(4)
C6 C 0.8651(2) 0.41757(19) -0.1371(4)
H1 H 0.8525 0.4190 -0.0578
H2 H 0.9060 0.4299 -0.1448
C7 C 0.8228(3) 0.4488(2) -0.2196(5)
H3 H 0.8398 0.4834 -0.2558
H4 H 0.7846 0.4580 -0.1861
C8 C 0.8219(2) 0.3939(2) -0.2970(4)
H5 H 0.8467 0.3974 -0.3643
H6 H 0.7824 0.3807 -0.3172
C9 C 0.63721(18) 0.13321(18) 0.2096(4)
C10 C 0.6260(2) 0.07268(18) 0.1477(4)
H7 H 0.5845 0.0635 0.1365
H8 H 0.6482 0.0680 0.0772
C11 C 0.6537(3) 0.0414(2) 0.2501(5)
H9 H 0.6845 0.0134 0.2292
H10 H 0.6250 0.0230 0.3004
C12 C 0.6778(2) 0.1003(2) 0.2952(4)
H11 H 0.7197 0.1060 0.2811
H12 H 0.6681 0.1078 0.3748
Ag1J Ag 0.716763(17) 0.241634(18) 0.39222(3)
Ag3G Ag 1.042350(15) 0.299730(14) -0.26660(3)
Ag4L Ag 0.552410(17) 0.202520(17) 0.48849(3)
O4G O 1.04712(14) 0.16703(17) -0.2001(3)
O6J O 0.79589(14) 0.28596(14) 0.3093(3)
O8I O 0.38341(14) 0.18839(14) 0.3971(3)
loop_
_geom_bond_atom_site_label_1
_geom_bond_atom_site_label_2
_geom_bond_site_symmetry_1
_geom_bond_site_symmetry_2
Ag1 Ag2 1_555 1_555
Ag2 O2 1_555 1_555
Ag3 O3 1_555 1_555
Ag4 O7 1_555 1_555
O1 Ag1 1_555 1_555
O2 C1 1_555 1_555
O3 C2 1_555 1_555
O4 C2 1_555 1_555
O5 Ag2 1_555 1_555
O6 Ag1 1_555 1_555
O7 C4 1_555 1_555
O8 C4 1_555 1_555
C1 O1 1_555 1_555
C2 C5 1_555 1_555
C3 O5 1_555 1_555
C4 C9 1_555 1_555
C5 C1 1_555 1_555
C6 C5 1_555 1_555
H1 C6 1_555 1_555
H2 C6 1_555 1_555
C7 C6 1_555 1_555
H3 C7 1_555 1_555
H4 C7 1_555 1_555
C8 C5 1_555 1_555
H5 C8 1_555 1_555
H6 C8 1_555 1_555
C9 C3 1_555 1_555
C10 C9 1_555 1_555
H7 C10 1_555 1_555
H8 C10 1_555 1_555
C11 C10 1_555 1_555
H9 C11 1_555 1_555
H10 C11 1_555 1_555
C12 C9 1_555 1_555
H11 C12 1_555 1_555
H12 C12 1_555 1_555
Ag1J O6 1_555 1_555
Ag3G Ag3 1_555 1_555
Ag4L O8 1_555 1_555
O4G Ag3 1_555 1_555
O6J Ag1 1_555 1_555
O8I Ag4 1_555 1_555
O4 Ag3G 1_555 1_555
O6 C3 1_555 1_555
C7 C8 1_555 1_555
C11 C12 1_555 1_555
Ag1J O6J 1_555 1_555

#END
