
#######################################################################
#
#                 Cambridge Crystallographic Data Centre
#                                CCDC 
#
#######################################################################
#
# If this CIF has been generated from an entry in the Cambridge 
# Structural Database, then it will include bibliographic, chemical, 
# crystal, experimental, refinement or atomic coordinate data resulting 
# from the CCDC's data processing and validation procedures.
#
#######################################################################

data_VEKSOU
_symmetry_cell_setting           cubic
_symmetry_space_group_name_H-M   'P 41 3 2'
_symmetry_Int_Tables_number      213
_space_group_name_Hall           'P 4bd 2ab 3'
loop_
_symmetry_equiv_pos_site_id
_symmetry_equiv_pos_as_xyz
1 x,y,z
2 1/4+x,1/4-z,3/4+y
3 3/4+x,1/4+z,1/4-y
4 3/4+z,1/4+y,1/4-x
5 1/2+y,1/2-z,-x
6 -z,1/2+x,1/2-y
7 1/4+z,1/4-y,3/4+x
8 1/4+y,1/4-x,3/4+z
9 1/2-z,-x,1/2+y
10 1/2+x,1/2-y,-z
11 1/4-y,3/4+x,1/4+z
12 1/4-x,3/4+z,1/4+y
13 -x,1/2+y,1/2-z
14 1/2-y,-z,1/2+x
15 1/2-x,-y,1/2+z
16 3/4-y,3/4-x,3/4-z
17 -y,1/2+z,1/2-x
18 3/4-x,3/4-z,3/4-y
19 3/4-z,3/4-y,3/4-x
20 1/2+z,1/2-x,-y
21 z,x,y
22 3/4+y,1/4+x,1/4-z
23 y,z,x
24 1/4-z,3/4+y,1/4+x
_cell_length_a                   15.4830(6)
_cell_length_b                   15.4830(6)
_cell_length_c                   15.4830(6)
_cell_angle_alpha                90
_cell_angle_beta                 90
_cell_angle_gamma                90
_cell_volume                     3711.64
loop_
_atom_site_label
_atom_site_type_symbol
_atom_site_fract_x
_atom_site_fract_y
_atom_site_fract_z
Fe1 Fe 0.8510 0.3510 0.1490
C7 C 0.6890 0.3750 0.0610
C8 C 0.7600 0.3750 -0.0100
O1 O 0.7158(4) 0.3615(5) 0.1346(4)
O2 O 0.8363(4) 0.3656(5) 0.0130(4)
Fe1B Fe 0.6010 0.3990 -0.1010
Fe1C Fe 0.8990 0.6010 0.3990
Fe1A Fe 1.1010 0.1010 0.1010
C7D C 0.8750 0.4390 0.3110
C7A C 0.9390 0.1890 0.1250
C8D C 0.8750 0.5100 0.2400
C8A C 1.0100 0.2600 0.1250
O1R O 0.6154(4) 0.3885(5) 0.0342(4)
O1D O 0.8615(5) 0.3654(4) 0.2842(4)
O1J O 0.8885(5) 0.4658(4) 0.3846(4)
O1E O 0.8654(4) 0.2158(4) 0.1385(5)
O1A O 0.9658(4) 0.1154(4) 0.1115(5)
O1B O 0.4658(4) 0.3846(4) -0.1115(5)
O1G O 0.6115(5) 0.5342(4) -0.1154(4)
O2R O 0.7370(4) 0.3844(5) -0.0863(4)
O2D O 0.8656(5) 0.4870(4) 0.1637(4)
O2J O 0.8844(5) 0.5863(4) 0.2630(4)
O2E O 0.9870(4) 0.3363(4) 0.1344(5)
O2A O 1.0863(4) 0.2370(4) 0.1156(5)
O2B O 0.5863(4) 0.2630(4) -0.1156(5)
O2G O 0.6156(5) 0.4137(4) -0.2370(4)
O3 O 0.6250 -0.1250 0.1250
Ir1 Ir 0.6250 0.1250 0.3750
N1 N 0.6125(6) 0.1234(6) 0.2425(4)
C2 C 0.6805(7) 0.1239(7) 0.1850(6)
H1 H 0.7370 0.1219 0.2055
C3 C 0.6648(10) 0.1274(7) 0.0953(7)
H2 H 0.7105 0.1299 0.0564
C4 C 0.5809(9) 0.1272(7) 0.0661(7)
H3 H 0.5706 0.1273 0.0069
C5 C 0.5118(7) 0.1268(7) 0.1223(7)
H4 H 0.4554 0.1270 0.1015
C6 C 0.5284(6) 0.1260(6) 0.2122(6)
N1F N 0.4925(4) 0.1266(6) 0.3625(6)
N1D N 0.6234(6) 0.2575(4) 0.3875(6)
N1O N 0.6266(6) 0.1375(6) 0.5075(4)
N1E N 0.7575(4) 0.1125(6) 0.3766(6)
N1K N 0.6375(6) -0.0075(4) 0.3734(6)
C2F C 0.4350(6) 0.1261(7) 0.4305(7)
C2D C 0.6239(7) 0.3150(6) 0.3195(7)
C2O C 0.6261(7) 0.0695(7) 0.5650(6)
C2E C 0.8150(6) 0.1805(7) 0.3761(7)
C2K C 0.5695(7) -0.0650(6) 0.3739(7)
H1F H 0.4555 0.1281 0.4870
H1D H 0.6219 0.2945 0.2630
H1O H 0.6281 0.0130 0.5445
H1E H 0.7945 0.2370 0.3781
H1K H 0.5130 -0.0445 0.3719
C3F C 0.3453(7) 0.1226(7) 0.4148(10)
C3D C 0.6274(7) 0.4047(7) 0.3352(10)
C3O C 0.6226(7) 0.0852(10) 0.6547(7)
C3E C 0.9047(7) 0.1648(10) 0.3726(7)
C3K C 0.5852(10) -0.1547(7) 0.3774(7)
H2F H 0.3064 0.1201 0.4605
H2D H 0.6299 0.4436 0.2895
H2O H 0.6201 0.0395 0.6936
H2E H 0.9436 0.2105 0.3701
H2K H 0.5395 -0.1936 0.3799
C4F C 0.3161(7) 0.1228(7) 0.3309(9)
C4D C 0.6272(7) 0.4339(7) 0.4191(9)
C4O C 0.6228(7) 0.1691(9) 0.6839(7)
C4E C 0.9339(7) 0.0809(9) 0.3728(7)
C4K C 0.6691(9) -0.1839(7) 0.3772(7)
H3F H 0.2569 0.1227 0.3206
H3D H 0.6273 0.4931 0.4294
H3O H 0.6227 0.1794 0.7431
H3E H 0.9931 0.0706 0.3727
H3K H 0.6794 -0.2431 0.3773
C5F C 0.3723(7) 0.1232(7) 0.2618(7)
C5D C 0.6268(7) 0.3777(7) 0.4882(7)
C5O C 0.6232(7) 0.2382(7) 0.6277(7)
C5E C 0.8777(7) 0.0118(7) 0.3732(7)
C5K C 0.7382(7) -0.1277(7) 0.3768(7)
H4F H 0.3515 0.1230 0.2054
H4D H 0.6270 0.3985 0.5446
H4O H 0.6230 0.2946 0.6485
H4E H 0.8985 -0.0446 0.3730
H4K H 0.7946 -0.1485 0.3770
C6F C 0.4622(6) 0.1240(6) 0.2784(6)
C6D C 0.6260(6) 0.2878(6) 0.4716(6)
C6O C 0.6240(6) 0.2216(6) 0.5378(6)
C6E C 0.7878(6) 0.0284(6) 0.3740(6)
C6K C 0.7216(6) -0.0378(6) 0.3760(6)
Mn1? Mn 0.8510 0.3510 0.1490
C1? C 0.6125(6) 0.1234(6) 0.2425(4)
loop_
_geom_bond_atom_site_label_1
_geom_bond_atom_site_label_2
_geom_bond_site_symmetry_1
_geom_bond_site_symmetry_2
Ir1 N1 1_555 1_555
Fe1 O1 1_555 1_555
N1 C2 1_555 1_555
C2 H1 1_555 1_555
C3 C2 1_555 1_555
H2 C3 1_555 1_555
C4 C3 1_555 1_555
H3 C4 1_555 1_555
C5 C4 1_555 1_555
H4 C5 1_555 1_555
C6 N1 1_555 1_555
C7 C8 1_555 1_555
C8 O2 1_555 1_555
O1 C7 1_555 1_555
O2 Fe1 1_555 1_555
Fe1B O1R 1_555 1_555
Fe1C O1J 1_555 1_555
Fe1A O1A 1_555 1_555
N1F Ir1 1_555 1_555
N1D Ir1 1_555 1_555
N1O Ir1 1_555 1_555
N1E Ir1 1_555 1_555
N1K Ir1 1_555 1_555
C2F N1F 1_555 1_555
C2D N1D 1_555 1_555
C2O N1O 1_555 1_555
C2E N1E 1_555 1_555
C2K N1K 1_555 1_555
H1F C2F 1_555 1_555
H1D C2D 1_555 1_555
H1O C2O 1_555 1_555
H1E C2E 1_555 1_555
H1K C2K 1_555 1_555
C3F C2F 1_555 1_555
C3D C2D 1_555 1_555
C3O C2O 1_555 1_555
C3E C2E 1_555 1_555
C3K C2K 1_555 1_555
H2F C3F 1_555 1_555
H2D C3D 1_555 1_555
H2O C3O 1_555 1_555
H2E C3E 1_555 1_555
H2K C3K 1_555 1_555
C4F C3F 1_555 1_555
C4D C3D 1_555 1_555
C4O C3O 1_555 1_555
C4E C3E 1_555 1_555
C4K C3K 1_555 1_555
H3F C4F 1_555 1_555
H3D C4D 1_555 1_555
H3O C4O 1_555 1_555
H3E C4E 1_555 1_555
H3K C4K 1_555 1_555
C5F C4F 1_555 1_555
C5D C4D 1_555 1_555
C5O C4O 1_555 1_555
C5E C4E 1_555 1_555
C5K C4K 1_555 1_555
H4F C5F 1_555 1_555
H4D C5D 1_555 1_555
H4O C5O 1_555 1_555
H4E C5E 1_555 1_555
H4K C5K 1_555 1_555
C6F C6 1_555 1_555
C6D N1D 1_555 1_555
C6O N1O 1_555 1_555
C6E N1E 1_555 1_555
C6K N1K 1_555 1_555
C7D C8D 1_555 1_555
C7A C8A 1_555 1_555
C8D O2D 1_555 1_555
C8A O2E 1_555 1_555
O1R C7 1_555 1_555
O1D Fe1 1_555 1_555
O1J C7D 1_555 1_555
O1E Fe1 1_555 1_555
O1A C7A 1_555 1_555
O1B Fe1B 1_555 1_555
O1G Fe1B 1_555 1_555
O2R C8 1_555 1_555
O2D Fe1 1_555 1_555
O2J Fe1C 1_555 1_555
O2E Fe1 1_555 1_555
O2A Fe1A 1_555 1_555
O2B Fe1B 1_555 1_555
O2G Fe1B 1_555 1_555
C5 C6 1_555 1_555
Fe1B O2R 1_555 1_555
N1F C6F 1_555 1_555
C5F C6F 1_555 1_555
C5D C6D 1_555 1_555
C5O C6O 1_555 1_555
C5E C6E 1_555 1_555
C5K C6K 1_555 1_555
C6D C6O 1_555 1_555
C6E C6K 1_555 1_555
C7D O1D 1_555 1_555
C7A O1E 1_555 1_555
C8D O2J 1_555 1_555
C8A O2A 1_555 1_555

#END
