
#######################################################################
#
#                 Cambridge Crystallographic Data Centre
#                                CCDC 
#
#######################################################################
#
# If this CIF has been generated from an entry in the Cambridge 
# Structural Database, then it will include bibliographic, chemical, 
# crystal, experimental, refinement or atomic coordinate data resulting 
# from the CCDC's data processing and validation procedures.
#
#######################################################################

data_VEKSUA
_symmetry_cell_setting           cubic
_symmetry_space_group_name_H-M   'P 43 3 2'
_symmetry_Int_Tables_number      212
_space_group_name_Hall           'P 4acd 2ab 3'
loop_
_symmetry_equiv_pos_site_id
_symmetry_equiv_pos_as_xyz
1 x,y,z
2 3/4+x,3/4-z,1/4+y
3 1/4+x,3/4+z,3/4-y
4 1/4+z,3/4+y,3/4-x
5 1/2+y,1/2-z,-x
6 -z,1/2+x,1/2-y
7 3/4+z,3/4-y,1/4+x
8 3/4+y,3/4-x,1/4+z
9 1/2-z,-x,1/2+y
10 1/2+x,1/2-y,-z
11 3/4-y,1/4+x,3/4+z
12 3/4-x,1/4+z,3/4+y
13 -x,1/2+y,1/2-z
14 1/2-y,-z,1/2+x
15 1/2-x,-y,1/2+z
16 1/4-y,1/4-x,1/4-z
17 -y,1/2+z,1/2-x
18 1/4-x,1/4-z,1/4-y
19 1/4-z,1/4-y,1/4-x
20 1/2+z,1/2-x,-y
21 z,x,y
22 1/4+y,3/4+x,3/4-z
23 y,z,x
24 3/4-z,1/4+y,3/4+x
_cell_length_a                   15.4360(6)
_cell_length_b                   15.4360(6)
_cell_length_c                   15.4360(6)
_cell_angle_alpha                90
_cell_angle_beta                 90
_cell_angle_gamma                90
_cell_volume                     3677.94
loop_
_atom_site_label
_atom_site_type_symbol
_atom_site_fract_x
_atom_site_fract_y
_atom_site_fract_z
Cr1 Cr 0.3520 0.3520 0.3520
C7 C 0.2620 0.3750 0.5120
C8 C 0.1900 0.3750 0.4400
O1 O 0.3362(5) 0.3644(6) 0.4867(5)
O2 O 0.2151(6) 0.3608(6) 0.3660(6)
Cr1A Cr 0.1020 0.3980 0.6020
Cr1B Cr 0.6020 0.1020 0.3980
Cr1J Cr 0.3980 0.6020 0.1020
C7B C 0.5120 0.2620 0.3750
C7J C 0.3750 0.5120 0.2620
C8B C 0.4400 0.1900 0.3750
C8J C 0.3750 0.4400 0.1900
O1F O 0.2367(5) 0.3856(6) 0.5862(5)
O1T O 0.4867(5) 0.3362(5) 0.3644(6)
O1B O 0.5862(5) 0.2367(5) 0.3856(6)
O1V O 0.3644(6) 0.4867(5) 0.3362(5)
O1J O 0.3856(6) 0.5862(5) 0.2367(5)
O1A O 0.0862(5) 0.2633(5) 0.6144(6)
O1G O 0.1144(6) 0.4138(5) 0.7367(5)
O2F O 0.1160(6) 0.3892(6) 0.4651(6)
O2T O 0.3660(6) 0.2151(6) 0.3608(6)
O2B O 0.4651(6) 0.1160(6) 0.3892(6)
O2V O 0.3608(6) 0.3660(6) 0.2151(6)
O2J O 0.3892(6) 0.4651(6) 0.1160(6)
O2A O -0.0349(6) 0.3840(6) 0.6108(6)
O2G O 0.1108(6) 0.5349(6) 0.6160(6)
O3 O 0.8750 0.3750 0.1250
Ir1 Ir 0.1250 0.1250 0.1250
N1 N 0.1130(8) 0.1221(8) 0.2580(6)
C2 C 0.1802(10) 0.1271(10) 0.3179(10)
H1 H 0.2370 0.1302 0.2983
C3 C 0.1641(13) 0.1274(11) 0.4061(9)
H2 H 0.2098 0.1273 0.4454
C4 C 0.0780(15) 0.1279(11) 0.4355(10)
H3 H 0.0672 0.1266 0.4947
C5 C 0.0126(10) 0.1302(10) 0.3814(11)
H4 H -0.0437 0.1346 0.4023
C6 C 0.0282(8) 0.1259(10) 0.2896(9)
N1R N -0.0080(6) 0.1279(8) 0.1370(8)
N1O N 0.1279(8) 0.1370(8) -0.0080(6)
N1V N 0.1221(8) 0.2580(6) 0.1130(8)
N1Q N 0.1370(8) -0.0080(6) 0.1279(8)
N1T N 0.2580(6) 0.1130(8) 0.1221(8)
C2R C -0.0679(10) 0.1229(10) 0.0698(10)
C2O C 0.1229(10) 0.0698(10) -0.0679(10)
C2V C 0.1271(10) 0.3179(10) 0.1802(10)
C2Q C 0.0698(10) -0.0679(10) 0.1229(10)
C2T C 0.3179(10) 0.1802(10) 0.1271(10)
H1R H -0.0483 0.1198 0.0130
H1O H 0.1198 0.0130 -0.0483
H1V H 0.1302 0.2983 0.2370
H1Q H 0.0130 -0.0483 0.1198
H1T H 0.2983 0.2370 0.1302
C3R C -0.1561(9) 0.1226(11) 0.0859(13)
C3O C 0.1226(11) 0.0859(13) -0.1561(9)
C3V C 0.1274(11) 0.4061(9) 0.1641(13)
C3Q C 0.0859(13) -0.1561(9) 0.1226(11)
C3T C 0.4061(9) 0.1641(13) 0.1274(11)
H2R H -0.1954 0.1227 0.0402
H2O H 0.1227 0.0402 -0.1954
H2V H 0.1273 0.4454 0.2098
H2Q H 0.0402 -0.1954 0.1227
H2T H 0.4454 0.2098 0.1273
C4R C -0.1855(10) 0.1221(11) 0.1720(15)
C4O C 0.1221(11) 0.1720(15) -0.1855(10)
C4V C 0.1279(11) 0.4355(10) 0.0780(15)
C4Q C 0.1720(15) -0.1855(10) 0.1221(11)
C4T C 0.4355(10) 0.0780(15) 0.1279(11)
H3R H -0.2447 0.1234 0.1828
H3O H 0.1234 0.1828 -0.2447
H3V H 0.1266 0.4947 0.0672
H3Q H 0.1828 -0.2447 0.1234
H3T H 0.4947 0.0672 0.1266
C5R C -0.1314(11) 0.1198(10) 0.2374(10)
C5O C 0.1198(10) 0.2374(10) -0.1314(11)
C5V C 0.1302(10) 0.3814(11) 0.0126(10)
C5Q C 0.2374(10) -0.1314(11) 0.1198(10)
C5T C 0.3814(11) 0.0126(10) 0.1302(10)
H4R H -0.1523 0.1154 0.2937
H4O H 0.1154 0.2937 -0.1523
H4V H 0.1346 0.4023 -0.0437
H4Q H 0.2937 -0.1523 0.1154
H4T H 0.4023 -0.0437 0.1346
C6R C -0.0396(9) 0.1241(10) 0.2218(8)
C6O C 0.1241(10) 0.2218(8) -0.0396(9)
C6V C 0.1259(10) 0.2896(9) 0.0282(8)
C6Q C 0.2218(8) -0.0396(9) 0.1241(10)
C6T C 0.2896(9) 0.0282(8) 0.1259(10)
Mn1? Mn 0.3520 0.3520 0.3520
C1? C 0.1130(8) 0.1221(8) 0.2580(6)
loop_
_geom_bond_atom_site_label_1
_geom_bond_atom_site_label_2
_geom_bond_site_symmetry_1
_geom_bond_site_symmetry_2
Ir1 N1 1_555 1_555
Cr1 O1 1_555 1_555
N1 C2 1_555 1_555
C2 H1 1_555 1_555
C3 C2 1_555 1_555
H2 C3 1_555 1_555
C4 C3 1_555 1_555
H3 C4 1_555 1_555
C5 C4 1_555 1_555
H4 C5 1_555 1_555
C6 N1 1_555 1_555
C7 C8 1_555 1_555
C8 O2 1_555 1_555
O1 C7 1_555 1_555
O2 Cr1 1_555 1_555
Cr1A O1F 1_555 1_555
Cr1B O1B 1_555 1_555
Cr1J O1J 1_555 1_555
N1R Ir1 1_555 1_555
N1O Ir1 1_555 1_555
N1V Ir1 1_555 1_555
N1Q Ir1 1_555 1_555
N1T Ir1 1_555 1_555
C2R N1R 1_555 1_555
C2O N1O 1_555 1_555
C2V N1V 1_555 1_555
C2Q N1Q 1_555 1_555
C2T N1T 1_555 1_555
H1R C2R 1_555 1_555
H1O C2O 1_555 1_555
H1V C2V 1_555 1_555
H1Q C2Q 1_555 1_555
H1T C2T 1_555 1_555
C3R C2R 1_555 1_555
C3O C2O 1_555 1_555
C3V C2V 1_555 1_555
C3Q C2Q 1_555 1_555
C3T C2T 1_555 1_555
H2R C3R 1_555 1_555
H2O C3O 1_555 1_555
H2V C3V 1_555 1_555
H2Q C3Q 1_555 1_555
H2T C3T 1_555 1_555
C4R C3R 1_555 1_555
C4O C3O 1_555 1_555
C4V C3V 1_555 1_555
C4Q C3Q 1_555 1_555
C4T C3T 1_555 1_555
H3R C4R 1_555 1_555
H3O C4O 1_555 1_555
H3V C4V 1_555 1_555
H3Q C4Q 1_555 1_555
H3T C4T 1_555 1_555
C5R C4R 1_555 1_555
C5O C4O 1_555 1_555
C5V C4V 1_555 1_555
C5Q C4Q 1_555 1_555
C5T C4T 1_555 1_555
H4R C5R 1_555 1_555
H4O C5O 1_555 1_555
H4V C5V 1_555 1_555
H4Q C5Q 1_555 1_555
H4T C5T 1_555 1_555
C6R C6 1_555 1_555
C6O N1O 1_555 1_555
C6V N1V 1_555 1_555
C6Q N1Q 1_555 1_555
C6T N1T 1_555 1_555
C7B C8B 1_555 1_555
C7J C8J 1_555 1_555
C8B O2T 1_555 1_555
C8J O2V 1_555 1_555
O1F C7 1_555 1_555
O1T Cr1 1_555 1_555
O1B C7B 1_555 1_555
O1V Cr1 1_555 1_555
O1J C7J 1_555 1_555
O1A Cr1A 1_555 1_555
O1G Cr1A 1_555 1_555
O2F C8 1_555 1_555
O2T Cr1 1_555 1_555
O2B Cr1B 1_555 1_555
O2V Cr1 1_555 1_555
O2J Cr1J 1_555 1_555
O2A Cr1A 1_555 1_555
O2G Cr1A 1_555 1_555
C5 C6 1_555 1_555
Cr1A O2F 1_555 1_555
N1R C6R 1_555 1_555
C5R C6R 1_555 1_555
C5O C6O 1_555 1_555
C5V C6V 1_555 1_555
C5Q C6Q 1_555 1_555
C5T C6T 1_555 1_555
C6O C6V 1_555 1_555
C6Q C6T 1_555 1_555
C7B O1T 1_555 1_555
C7J O1V 1_555 1_555
C8B O2B 1_555 1_555
C8J O2J 1_555 1_555

#END
