
#######################################################################
#
#                 Cambridge Crystallographic Data Centre
#                                CCDC 
#
#######################################################################
#
# If this CIF has been generated from an entry in the Cambridge 
# Structural Database, then it will include bibliographic, chemical, 
# crystal, experimental, refinement or atomic coordinate data resulting 
# from the CCDC's data processing and validation procedures.
#
#######################################################################

data_VEKVIR
_symmetry_cell_setting           monoclinic
_symmetry_space_group_name_H-M   'P 21/c'
_symmetry_Int_Tables_number      14
_space_group_name_Hall           '-P 2ybc'
loop_
_symmetry_equiv_pos_site_id
_symmetry_equiv_pos_as_xyz
1 x,y,z
2 -x,1/2+y,1/2-z
3 -x,-y,-z
4 x,1/2-y,1/2+z
_cell_length_a                   6.4153(4)
_cell_length_b                   21.6454(14)
_cell_length_c                   7.3783(5)
_cell_angle_alpha                90
_cell_angle_beta                 113.0790(10)
_cell_angle_gamma                90
_cell_volume                     942.563
loop_
_atom_site_label
_atom_site_type_symbol
_atom_site_fract_x
_atom_site_fract_y
_atom_site_fract_z
Ni1 Ni 0.09501(4) 0.402131(11) -0.14937(3)
O1 O -0.0989(2) 0.34784(6) -0.37972(18)
O2 O 0.0254(2) 0.36958(7) -0.61668(19)
O3 O -0.3762(2) 0.45488(7) -0.6652(2)
O4 O -0.7080(2) 0.45491(6) -0.91757(19)
O5 O 0.3313(2) 0.41950(6) -0.2790(2)
H1 H 0.2521 0.4052 -0.3927
H2 H 0.3566 0.4581 -0.2761
O6 O -0.0859(2) 0.47756(7) -0.2882(2)
H3 H -0.1477 0.4938 -0.2167
H4 H -0.1754 0.4672 -0.4037
O7 O -0.1390(3) 0.38443(8) -0.0235(2)
H5 H -0.0906 0.3858 0.1014
H6 H -0.2678 0.4007 -0.0873
N1 N -0.6943(2) 0.33526(7) -0.9747(2)
C1 C -0.3335(3) 0.32346(9) -0.7077(2)
C2 C -0.5145(3) 0.35948(8) -0.8272(3)
C3 C -0.7055(3) 0.27389(9) -1.0023(3)
H7 H -0.8297 0.2572 -1.1049
C4 C -0.5389(3) 0.23501(9) -0.8833(3)
H8 H -0.5533 0.1925 -0.9019
C5 C -0.3503(3) 0.25961(9) -0.7365(3)
H9 H -0.2348 0.2338 -0.6568
C6 C -0.1182(3) 0.35028(8) -0.5555(3)
C7 C -0.5310(3) 0.42864(9) -0.7999(3)
Ni1_2 Ni -0.90499(4) 0.402131(11) -1.14937(3)
O4_2 O 0.2920(2) 0.45491(6) 0.08243(19)
N1_2 N 0.3057(2) 0.33526(7) 0.0253(2)
loop_
_geom_bond_atom_site_label_1
_geom_bond_atom_site_label_2
_geom_bond_site_symmetry_1
_geom_bond_site_symmetry_2
Ni1 O1 1_555 1_555
O1 C6 1_555 1_555
O2 C6 1_555 1_555
O3 C7 1_555 1_555
O4 C7 1_555 1_555
O5 Ni1 1_555 1_555
H1 O5 1_555 1_555
H2 O5 1_555 1_555
O6 Ni1 1_555 1_555
H3 O6 1_555 1_555
H4 O6 1_555 1_555
O7 Ni1 1_555 1_555
H5 O7 1_555 1_555
H6 O7 1_555 1_555
N1 C2 1_555 1_555
C1 C2 1_555 1_555
C2 C7 1_555 1_555
C3 N1 1_555 1_555
H7 C3 1_555 1_555
C4 C3 1_555 1_555
H8 C4 1_555 1_555
C5 C1 1_555 1_555
H9 C5 1_555 1_555
C6 C1 1_555 1_555
Ni1_2 O4 1_555 1_555
O4_2 Ni1 1_555 1_555
N1_2 Ni1 1_555 1_555
N1 Ni1_2 1_555 1_555
C4 C5 1_555 1_555

#END
