
#######################################################################
#
#                 Cambridge Crystallographic Data Centre
#                                CCDC 
#
#######################################################################
#
# If this CIF has been generated from an entry in the Cambridge 
# Structural Database, then it will include bibliographic, chemical, 
# crystal, experimental, refinement or atomic coordinate data resulting 
# from the CCDC's data processing and validation procedures.
#
#######################################################################

data_VELBUK
_symmetry_cell_setting           triclinic
_symmetry_space_group_name_H-M   'P -1'
_symmetry_Int_Tables_number      2
_space_group_name_Hall           '-P 1'
loop_
_symmetry_equiv_pos_site_id
_symmetry_equiv_pos_as_xyz
1 x,y,z
2 -x,-y,-z
_cell_length_a                   11.5439(4)
_cell_length_b                   11.7317(4)
_cell_length_c                   13.5571(5)
_cell_angle_alpha                67.2740(10)
_cell_angle_beta                 72.757(2)
_cell_angle_gamma                77.826(2)
_cell_volume                     1607.67
loop_
_atom_site_label
_atom_site_type_symbol
_atom_site_fract_x
_atom_site_fract_y
_atom_site_fract_z
C1 C 0.51876(8) 0.85145(8) 0.18422(7)
C2 C 0.42589(9) 0.80180(8) 0.27432(7)
H1 H 0.3851 0.7416 0.2723
C3 C 0.44797(8) 0.92102(8) 0.36654(8)
H2 H 0.426 0.9425 0.4302
C4 C 0.53848(8) 0.98044(8) 0.27905(7)
C5 C 0.57504(8) 0.94326(8) 0.18827(7)
H3 H 0.6383 0.9801 0.1289
C6 C 0.58910(8) 1.08956(8) 0.27796(7)
C7 C 0.55563(8) 0.81459(8) 0.08449(7)
C8 C 0.52072(8) 0.70814(8) 0.08405(7)
H4 H 0.4721 0.6584 0.1493
C9 C 0.62400(8) 0.74314(8) -0.09652(7)
H5 H 0.6466 0.7197 -0.1592
C10 C 0.66567(8) 0.84837(8) -0.10350(7)
C11 C 0.62935(8) 0.88528(8) -0.01268(7)
H6 H 0.6545 0.9584 -0.0165
C12 C 0.75082(8) 0.92088(8) -0.20840(7)
C13 C -0.03273(8) 0.65141(8) 0.81995(7)
C14 C 0.04592(9) 0.71521(9) 0.72344(7)
H7 H 0.0791 0.7823 0.7226
C15 C 0.02816(8) 0.59291(9) 0.63202(8)
H8 H 0.047 0.5746 0.567
C16 C -0.04932(8) 0.52162(8) 0.72463(7)
C17 C -0.07922(8) 0.55229(8) 0.81822(7)
H9 H -0.132 0.5054 0.882
C18 C -0.09321(8) 0.40943(8) 0.72440(7)
C19 C -0.06375(8) 0.68423(8) 0.92132(7)
C20 C -0.02671(8) 0.79010(8) 0.92135(7)
H10 H 0.0215 0.8396 0.8556
C21 C -0.12469(8) 0.75442(8) 1.10327(7)
H11 H -0.1457 0.7777 1.1659
C22 C -0.16616(8) 0.64789(8) 1.11110(7)
C23 C -0.13448(8) 0.61311(8) 1.01957(7)
H12 H -0.1611 0.5406 1.0238
C24 C -0.24607(8) 0.57191(9) 1.21722(7)
Co1 Co 0.231328(12) 0.765749(12) 0.497440(10)
Co2 Co 0.50000 0.50000 0.00000
Co3 Co 0.00000 1.00000 1.00000
N1 N 0.39043(7) 0.83449(7) 0.36450(6)
N2 N 0.55268(7) 0.67247(7) -0.00453(6)
N3 N 0.07768(7) 0.68737(7) 0.63130(6)
N4 N -0.05580(7) 0.82566(7) 1.00985(6)
O1 O 0.31834(7) 0.73863(7) 0.61713(6)
O2 O 0.29003(7) 0.58565(6) 0.50147(6)
O3 O 0.13427(6) 0.79853(6) 0.38093(5)
O4 O 0.16670(8) 0.94769(7) 0.48968(6)
O5 O 0.66806(6) 1.14201(6) 0.19390(5)
O6 O 0.54550(6) 1.12331(6) 0.36048(5)
O7 O 0.36919(6) 0.60357(6) -0.08887(5)
H13 H 0.3454 0.571 -0.1219
H14 H 0.3652 0.6824 -0.1188
O8 O 0.36925(6) 0.49396(6) 0.14502(5)
O9 O 0.79307(6) 1.00975(6) -0.20487(5)
O10 O 0.77289(7) 0.88742(6) -0.28900(5)
O11 O -0.16965(6) 0.35277(6) 0.80864(5)
O12 O -0.04840(7) 0.37762(6) 0.64159(6)
O13 O 0.12706(6) 1.00726(6) 0.85085(5)
H15 H 0.1901 0.9595 0.8522
H16 H 0.0969 1.0428 0.7915
O14 O 0.13590(6) 0.89978(6) 1.08087(5)
H17 H 0.1613 0.9341 1.1115
H18 H 0.1409 0.8173 1.114
O15 O -0.28590(7) 0.48093(6) 1.21534(5)
O16 O -0.26867(7) 0.60380(6) 1.29997(5)
H27 H 0.3053(10) 0.5525(10) 0.1504(9)
H28 H 0.3743(11) 0.4452(11) 0.2045(10)
H29 H 0.3133(10) 0.6787(11) 0.6604(9)
H30 H 0.3710(11) 0.7751(12) 0.6245(10)
H31 H 0.3499(11) 0.5530(11) 0.4704(9)
H32 H 0.2867(15) 0.5303(16) 0.5597(13)
H33 H 0.1604(8) 0.8438(8) 0.3303(7)
H34 H 0.1113(11) 0.7398(12) 0.3671(10)
H35 H 0.1828(9) 0.9912(10) 0.4339(8)
H36 H 0.1500(12) 0.9764(12) 0.5431(10)
C1A C 0.48124(8) 0.14855(8) -0.18422(7)
C2A C 0.57411(9) 0.19820(8) -0.27432(7)
H1A H 0.6149 0.2584 -0.2723
C3A C 0.55203(8) 0.07898(8) -0.36654(8)
H2A H 0.574 0.0575 -0.4302
C4A C 0.46152(8) 0.01956(8) -0.27905(7)
C5A C 0.42496(8) 0.05674(8) -0.18827(7)
H3A H 0.3617 0.0199 -0.1289
C6A C 0.41090(8) -0.08956(8) -0.27796(7)
C7A C 0.44437(8) 0.18541(8) -0.08449(7)
C8A C 0.47928(8) 0.29186(8) -0.08405(7)
H4A H 0.5279 0.3416 -0.1493
C9A C 0.37600(8) 0.25686(8) 0.09652(7)
H5A H 0.3534 0.2803 0.1592
C10A C 0.33433(8) 0.15163(8) 0.10350(7)
C11A C 0.37065(8) 0.11472(8) 0.01268(7)
H6A H 0.3455 0.0416 0.0165
C12A C 0.24918(8) 0.07912(8) 0.20840(7)
C13A C 1.03273(8) 0.34859(8) -0.81995(7)
C14A C 0.95408(9) 0.28479(9) -0.72344(7)
H7A H 0.9209 0.2177 -0.7226
C15A C 0.97184(8) 0.40709(9) -0.63202(8)
H8A H 0.953 0.4254 -0.567
C16A C 1.04932(8) 0.47838(8) -0.72463(7)
C17A C 1.07922(8) 0.44771(8) -0.81822(7)
H9A H 1.132 0.4946 -0.882
C18A C 1.09321(8) 0.59057(8) -0.72440(7)
C19A C 1.06375(8) 0.31577(8) -0.92132(7)
C20A C 1.02671(8) 0.20990(8) -0.92135(7)
H10A H 0.9785 0.1604 -0.8556
C21A C 1.12469(8) 0.24558(8) -1.10327(7)
H11A H 1.1457 0.2223 -1.1659
C22A C 1.16616(8) 0.35211(8) -1.11110(7)
C23A C 1.13448(8) 0.38689(8) -1.01957(7)
H12A H 1.1611 0.4594 -1.0238
C24A C 1.24607(8) 0.42809(9) -1.21722(7)
Co1A Co 0.768672(12) 0.234251(12) -0.497440(10)
Co3_2 Co 1.00000 0.00000 -1.00000
N1A N 0.60957(7) 0.16551(7) -0.36450(6)
N2A N 0.44732(7) 0.32753(7) 0.00453(6)
N3A N 0.92232(7) 0.31263(7) -0.63130(6)
N4A N 1.05580(7) 0.17434(7) -1.00985(6)
N4A_2 N 0.05580(7) 1.17434(7) 0.99015(6)
O1A O 0.68166(7) 0.26137(7) -0.61713(6)
O2A O 0.70997(7) 0.41435(6) -0.50147(6)
O3A O 0.86573(6) 0.20147(6) -0.38093(5)
O4A O 0.83330(8) 0.05231(7) -0.48968(6)
O5A O 0.33194(6) -0.14201(6) -0.19390(5)
O6A O 0.45450(6) -0.12331(6) -0.36048(5)
O7A O 0.63081(6) 0.39643(6) 0.08887(5)
H13A H 0.6546 0.429 0.1219
H14A H 0.6348 0.3176 0.1188
O8A O 0.63075(6) 0.50604(6) -0.14502(5)
O9A O 0.20693(6) -0.00975(6) 0.20487(5)
O10A O 0.22711(7) 0.11258(6) 0.28900(5)
O11A O 1.16965(6) 0.64723(6) -0.80864(5)
O12A O 1.04840(7) 0.62238(6) -0.64159(6)
O13A O -0.12706(6) 0.99274(6) 1.14915(5)
H15A H -0.1901 1.0405 1.1478
H16A H -0.0969 0.9572 1.2085
O14A O -0.13590(6) 1.10022(6) 0.91913(5)
H17A H -0.1613 1.0659 0.8885
H18A H -0.1409 1.1827 0.886
O15A O 1.28590(7) 0.51907(6) -1.21534(5)
O16A O 1.26867(7) 0.39620(6) -1.29997(5)
H27A H 0.6947(10) 0.4475(10) -0.1504(9)
H28A H 0.6257(11) 0.5548(11) -0.2045(10)
H29A H 0.6867(10) 0.3213(11) -0.6604(9)
H30A H 0.6290(11) 0.2249(12) -0.6245(10)
H31A H 0.6501(11) 0.4470(11) -0.4704(9)
H32A H 0.7133(15) 0.4697(16) -0.5597(13)
H33A H 0.8396(8) 0.1562(8) -0.3303(7)
H34A H 0.8887(11) 0.2602(12) -0.3671(10)
H35A H 0.8172(9) 0.0088(10) -0.4339(8)
H36A H 0.8500(12) 0.0236(12) -0.5431(10)
O17 O 0.63447(10) 0.67683(9) 0.64500(8)
H19 H 0.7011 0.6933 0.5969
H20 H 0.5879 0.7446 0.6387
O18 O 0.10235(9) 1.07132(8) 0.63996(7)
H21 H 0.0692 1.1444 0.6359
H22 H 0.0467 1.0286 0.6487
O19 O 0.19786(10) 0.29973(10) 0.56517(9)
H23 H 0.1757 0.2301 0.6113
H24 H 0.2856 0.2463 0.5357
O20 O 0.53295(9) 0.48595(9) 0.64186(8)
H25 H 0.456 0.4996 0.6635
H26 H 0.5649 0.542 0.6467
loop_
_geom_bond_atom_site_label_1
_geom_bond_atom_site_label_2
_geom_bond_site_symmetry_1
_geom_bond_site_symmetry_2
C1 C2 1_555 1_555
C2 H1 1_555 1_555
C3 H2 1_555 1_555
C4 C3 1_555 1_555
C5 C1 1_555 1_555
H3 C5 1_555 1_555
C6 C4 1_555 1_555
C7 C1 1_555 1_555
C8 C7 1_555 1_555
H4 C8 1_555 1_555
C9 H5 1_555 1_555
C10 C9 1_555 1_555
C11 C7 1_555 1_555
H6 C11 1_555 1_555
C12 C10 1_555 1_555
C13 C14 1_555 1_555
C14 H7 1_555 1_555
C15 H8 1_555 1_555
C16 C15 1_555 1_555
C17 C13 1_555 1_555
H9 C17 1_555 1_555
C18 C16 1_555 1_555
C19 C13 1_555 1_555
C20 C19 1_555 1_555
H10 C20 1_555 1_555
C21 H11 1_555 1_555
C22 C21 1_555 1_555
C23 C19 1_555 1_555
H12 C23 1_555 1_555
C24 C22 1_555 1_555
Co1 N1 1_555 1_555
Co2 N2 1_555 1_555
Co3 N4 1_555 1_555
N1 C2 1_555 1_555
N2 C8 1_555 1_555
N3 C14 1_555 1_555
N4 C20 1_555 1_555
O1 Co1 1_555 1_555
O2 Co1 1_555 1_555
O3 Co1 1_555 1_555
O4 Co1 1_555 1_555
O5 C6 1_555 1_555
O6 C6 1_555 1_555
O7 Co2 1_555 1_555
H13 O7 1_555 1_555
H14 O7 1_555 1_555
O8 Co2 1_555 1_555
O9 C12 1_555 1_555
O10 C12 1_555 1_555
O11 C18 1_555 1_555
O12 C18 1_555 1_555
O13 Co3 1_555 1_555
H15 O13 1_555 1_555
H16 O13 1_555 1_555
O14 Co3 1_555 1_555
H17 O14 1_555 1_555
H18 O14 1_555 1_555
O15 C24 1_555 1_555
O16 C24 1_555 1_555
O17 H19 1_555 1_555
H20 O17 1_555 1_555
O18 H21 1_555 1_555
H22 O18 1_555 1_555
O19 H23 1_555 1_555
H24 O19 1_555 1_555
O20 H25 1_555 1_555
H26 O20 1_555 1_555
H27 O8 1_555 1_555
H28 O8 1_555 1_555
H29 O1 1_555 1_555
H30 O1 1_555 1_555
H31 O2 1_555 1_555
H32 O2 1_555 1_555
H33 O3 1_555 1_555
H34 O3 1_555 1_555
H35 O4 1_555 1_555
H36 O4 1_555 1_555
C1A C2A 1_555 1_555
C2A H1A 1_555 1_555
C3A H2A 1_555 1_555
C4A C3A 1_555 1_555
C5A C1A 1_555 1_555
H3A C5A 1_555 1_555
C6A C4A 1_555 1_555
C7A C1A 1_555 1_555
C8A C7A 1_555 1_555
H4A C8A 1_555 1_555
C9A H5A 1_555 1_555
C10A C9A 1_555 1_555
C11A C7A 1_555 1_555
H6A C11A 1_555 1_555
C12A C10A 1_555 1_555
C13A C14A 1_555 1_555
C14A H7A 1_555 1_555
C15A H8A 1_555 1_555
C16A C15A 1_555 1_555
C17A C13A 1_555 1_555
H9A C17A 1_555 1_555
C18A C16A 1_555 1_555
C19A C13A 1_555 1_555
C20A C19A 1_555 1_555
H10A C20A 1_555 1_555
C21A H11A 1_555 1_555
C22A C21A 1_555 1_555
C23A C19A 1_555 1_555
H12A C23A 1_555 1_555
C24A C22A 1_555 1_555
Co1A N1A 1_555 1_555
Co3_2 N4A 1_555 1_555
N1A C2A 1_555 1_555
N2A Co2 1_555 1_555
N3A C14A 1_555 1_555
N4A C20A 1_555 1_555
N4A_2 Co3 1_555 1_555
O1A Co1A 1_555 1_555
O2A Co1A 1_555 1_555
O3A Co1A 1_555 1_555
O4A Co1A 1_555 1_555
O5A C6A 1_555 1_555
O6A C6A 1_555 1_555
O7A Co2 1_555 1_555
H13A O7A 1_555 1_555
H14A O7A 1_555 1_555
O8A Co2 1_555 1_555
O9A C12A 1_555 1_555
O10A C12A 1_555 1_555
O11A C18A 1_555 1_555
O12A C18A 1_555 1_555
O13A Co3 1_555 1_555
H15A O13A 1_555 1_555
H16A O13A 1_555 1_555
O14A Co3 1_555 1_555
H17A O14A 1_555 1_555
H18A O14A 1_555 1_555
O15A C24A 1_555 1_555
O16A C24A 1_555 1_555
H27A O8A 1_555 1_555
H28A O8A 1_555 1_555
H29A O1A 1_555 1_555
H30A O1A 1_555 1_555
H31A O2A 1_555 1_555
H32A O2A 1_555 1_555
H33A O3A 1_555 1_555
H34A O3A 1_555 1_555
H35A O4A 1_555 1_555
H36A O4A 1_555 1_555
C3 N1 1_555 1_555
C4 C5 1_555 1_555
C9 N2 1_555 1_555
C10 C11 1_555 1_555
C15 N3 1_555 1_555
C16 C17 1_555 1_555
C21 N4 1_555 1_555
C22 C23 1_555 1_555
Co1 N3 1_555 1_555
C3A N1A 1_555 1_555
C4A C5A 1_555 1_555
C8A N2A 1_555 1_555
C9A N2A 1_555 1_555
C10A C11A 1_555 1_555
C15A N3A 1_555 1_555
C16A C17A 1_555 1_555
C21A N4A 1_555 1_555
C22A C23A 1_555 1_555
Co1A N3A 1_555 1_555

#END
