
#######################################################################
#
#                 Cambridge Crystallographic Data Centre
#                                CCDC 
#
#######################################################################
#
# If this CIF has been generated from an entry in the Cambridge 
# Structural Database, then it will include bibliographic, chemical, 
# crystal, experimental, refinement or atomic coordinate data resulting 
# from the CCDC's data processing and validation procedures.
#
#######################################################################

data_VELBOE
_symmetry_cell_setting           monoclinic
_symmetry_space_group_name_H-M   'C 2/c'
_symmetry_Int_Tables_number      15
_space_group_name_Hall           '-C 2yn'
loop_
_symmetry_equiv_pos_site_id
_symmetry_equiv_pos_as_xyz
1 x,y,z
2 1/2+x,1/2+y,z
3 -x,y,1/2-z
4 1/2-x,1/2+y,1/2-z
5 -x,-y,-z
6 1/2-x,1/2-y,-z
7 x,-y,1/2+z
8 1/2+x,1/2-y,1/2+z
_cell_length_a                   12.9150(7)
_cell_length_b                   7.4386(5)
_cell_length_c                   12.0353(6)
_cell_angle_alpha                90
_cell_angle_beta                 98.277(5)
_cell_angle_gamma                90
_cell_volume                     1144.18
loop_
_atom_site_label
_atom_site_type_symbol
_atom_site_fract_x
_atom_site_fract_y
_atom_site_fract_z
C1 C 0.0308(2) 1.5946(4) 0.3070(2)
C2 C 0.0829(2) 1.4426(4) 0.3530(3)
H1 H 0.0768 1.3342 0.3108
C3 C 0.1474(2) 1.5928(4) 0.5165(3)
H2 H 0.1837 1.5898 0.5909
C4 C 0.1022(2) 1.7525(4) 0.4755(3)
C5 C 0.0438(2) 1.7529(4) 0.3696(3)
H3 H 0.0124 1.8612 0.3395
C6 C 0.1293(2) 1.9244(4) 0.5391(3)
Co1 Co 0.25000 1.2500 0.50000
N1 N 0.14177(19) 1.4426(3) 0.4551(2)
O1 O 0.28317(18) 1.2260(3) 0.3174(2)
O2 O 0.13519(16) 2.0621(3) 0.47679(18)
O3 O 0.14723(17) 1.9219(3) 0.64426(18)
H4 H 0.237(4) 1.190(6) 0.257(4)
H5 H 0.299(5) 1.351(9) 0.302(5)
C1B C -0.0308(2) 1.5946(4) 0.1930(2)
C2B C -0.0829(2) 1.4426(4) 0.1470(3)
H1B H -0.0768 1.3342 0.1892
C3B C -0.1474(2) 1.5928(4) -0.0165(3)
H2B H -0.1837 1.5898 -0.0909
C4B C -0.1022(2) 1.7525(4) 0.0245(3)
C5B C -0.0438(2) 1.7529(4) 0.1304(3)
H3B H -0.0124 1.8612 0.1605
C6B C -0.1293(2) 1.9244(4) -0.0391(3)
Co1_2 Co 0.25000 2.2500 0.50000
Co1G Co -0.25000 1.2500 0.00000
Co1G_2 Co -0.25000 2.2500 0.00000
N1B N -0.14177(19) 1.4426(3) 0.0449(2)
N1E N 0.35823(19) 1.0574(3) 0.5449(2)
O1E O 0.21683(18) 1.2740(3) 0.6826(2)
O2B O -0.13519(16) 2.0621(3) 0.02321(18)
O2_2 O 0.13519(16) 1.0621(3) 0.47679(18)
O2E O 0.36481(16) 1.4379(3) 0.52321(18)
O3B O -0.14723(17) 1.9219(3) -0.14426(18)
H4E H 0.263(4) 1.310(6) 0.743(4)
H5E H 0.201(5) 1.149(9) 0.698(5)
loop_
_geom_bond_atom_site_label_1
_geom_bond_atom_site_label_2
_geom_bond_site_symmetry_1
_geom_bond_site_symmetry_2
C1 C2 1_555 1_555
C2 H1 1_555 1_555
C3 H2 1_555 1_555
C4 C3 1_555 1_555
C5 C1 1_555 1_555
H3 C5 1_555 1_555
C6 C4 1_555 1_555
Co1 N1 1_555 1_555
N1 C2 1_555 1_555
O1 Co1 1_555 1_555
O2 C6 1_555 1_555
O3 C6 1_555 1_555
H4 O1 1_555 1_555
H5 O1 1_555 1_555
C1B C1 1_555 1_555
C2B C1B 1_555 1_555
H1B C2B 1_555 1_555
C3B H2B 1_555 1_555
C4B C3B 1_555 1_555
C5B C1B 1_555 1_555
H3B C5B 1_555 1_555
C6B C4B 1_555 1_555
Co1_2 O2 1_555 1_555
Co1G N1B 1_555 1_555
Co1G_2 O2B 1_555 1_555
N1B C2B 1_555 1_555
N1E Co1 1_555 1_555
O1E Co1 1_555 1_555
O2B C6B 1_555 1_555
O2_2 Co1 1_555 1_555
O2E Co1 1_555 1_555
O3B C6B 1_555 1_555
H4E O1E 1_555 1_555
H5E O1E 1_555 1_555
C3 N1 1_555 1_555
C4 C5 1_555 1_555
C3B N1B 1_555 1_555
C4B C5B 1_555 1_555

#END
