
#######################################################################
#
#                 Cambridge Crystallographic Data Centre
#                                CCDC 
#
#######################################################################
#
# If this CIF has been generated from an entry in the Cambridge 
# Structural Database, then it will include bibliographic, chemical, 
# crystal, experimental, refinement or atomic coordinate data resulting 
# from the CCDC's data processing and validation procedures.
#
#######################################################################

data_VELBAQ
_symmetry_cell_setting           triclinic
_symmetry_space_group_name_H-M   'P 1'
_symmetry_Int_Tables_number      1
_space_group_name_Hall           'P 1'
loop_
_symmetry_equiv_pos_site_id
_symmetry_equiv_pos_as_xyz
1 x,y,z
_cell_length_a                   15.1376(18)
_cell_length_b                   15.2092(18)
_cell_length_c                   26.300(3)
_cell_angle_alpha                73.271(2)
_cell_angle_beta                 77.508(2)
_cell_angle_gamma                82.596(2)
_cell_volume                     5647.14
loop_
_atom_site_label
_atom_site_type_symbol
_atom_site_fract_x
_atom_site_fract_y
_atom_site_fract_z
Zn3 Zn 0.389840(14) -0.461214(14) 0.361877(9)
Zn4 Zn 0.354173(14) -0.517217(14) 0.481847(9)
Mn3 Mn 0.39840(2) -0.55100(3) -0.068445(14)
Cl3 Cl 0.38584(9) -0.69232(11) -0.03791(6)
O11 O 0.52400(10) -0.48001(10) 0.36268(5)
O12 O 0.49158(9) -0.49841(9) 0.45470(5)
O13 O 1.25181(9) -0.45442(11) 0.38745(5)
O14 O 1.22846(10) -0.52509(9) 0.47532(5)
O15 O 0.37879(9) -0.64824(9) 0.47344(5)
O16 O 0.38001(10) -0.59959(11) 0.38539(6)
O17 O 0.33291(10) -1.37577(9) 0.46351(6)
O18 O 0.39303(10) -1.33886(10) 0.37489(5)
O19 O 0.31393(14) -0.52039(19) -0.01063(7)
O20 O 0.30518(14) -0.53212(16) -0.11229(7)
N5 N 0.38921(11) -0.44288(12) 0.28342(7)
N6 N 0.50676(14) -0.55121(14) -0.03468(8)
N7 N 0.50089(13) -0.53214(15) -0.13431(7)
N8 N 0.34707(10) -0.53440(11) -0.43707(6)
C67 C 0.54663(14) -0.48694(14) 0.40979(7)
C68 C 0.63912(13) -0.48256(14) 0.41164(9)
C69 C 0.70711(15) -0.46340(16) 0.36322(8)
H59 H 0.6893 -0.4494 0.3291
C70 C 0.79457(16) -0.46483(18) 0.36497(9)
H60 H 0.8384 -0.4551 0.3324
C71 C 0.82286(13) -0.48070(15) 0.41504(9)
C72 C 0.75712(14) -0.50424(15) 0.46674(9)
H61 H 0.7756 -0.5211 0.5008
C73 C 0.66213(13) -0.49989(14) 0.46209(8)
H62 H 0.6160 -0.5089 0.4936
C74 C 0.92282(14) -0.48112(16) 0.42023(8)
C75 C 0.97966(14) -0.42061(16) 0.37894(9)
H63 H 0.9576 -0.3801 0.3487
C76 C 1.06788(14) -0.42285(16) 0.38431(8)
H64 H 1.1075 -0.3823 0.3574
C77 C 1.10245(13) -0.48438(14) 0.42930(8)
C78 C 1.04359(17) -0.54132(18) 0.46861(10)
H65 H 1.0649 -0.5814 0.4992
C79 C 0.95722(15) -0.54128(17) 0.46450(9)
H66 H 0.9184 -0.5823 0.4917
C80 C 1.20441(14) -0.49057(14) 0.43015(9)
C81 C 0.37899(13) -0.65992(13) 0.42932(7)
C82 C 0.37112(14) -0.75657(14) 0.42673(7)
C83 C 0.37260(15) -0.78281(15) 0.37884(9)
H67 H 0.3771 -0.7376 0.3450
C84 C 0.36777(16) -0.86986(16) 0.38150(9)
H68 H 0.3725 -0.8844 0.3482
C85 C 0.35698(17) -0.93887(15) 0.42560(8)
C86 C 0.36164(16) -0.92161(15) 0.47155(10)
H69 H 0.3569 -0.9711 0.5035
C87 C 0.37345(16) -0.83260(14) 0.47532(9)
H70 H 0.3824 -0.8231 0.5079
C88 C 0.35700(17) -1.04063(16) 0.42545(9)
C89 C 0.4042(2) -1.06542(16) 0.37677(10)
H71 H 0.4384 -1.0231 0.3476
C90 C 0.39609(18) -1.15634(16) 0.37538(10)
H72 H 0.4178 -1.1740 0.3428
C91 C 0.35813(16) -1.21708(15) 0.41973(9)
C92 C 0.3238(2) -1.18494(17) 0.46368(9)
H73 H 0.3008 -1.2283 0.4965
C93 C 0.3202(2) -1.10272(16) 0.46423(10)
H74 H 0.2879 -1.0862 0.4957
C94 C 0.36220(15) -1.32115(14) 0.41851(8)
C95 C 0.44814(15) -0.47618(15) 0.25187(9)
H75 H 0.5013 -0.5024 0.2659
C96 C 0.45028(15) -0.48196(18) 0.20039(9)
H76 H 0.5028 -0.5055 0.1799
C97 C 0.37385(19) -0.4525(2) 0.18089(10)
C98 C 0.30414(16) -0.39842(16) 0.21117(9)
H77 H 0.2553 -0.3616 0.1965
C99 C 0.31711(16) -0.40691(19) 0.26104(9)
H78 H 0.2677 -0.3839 0.2839
C100 C 0.3610(2) -0.4686(2) 0.12917(10)
C101 C 0.42842(16) -0.4888(2) 0.09135(10)
H79 H 0.4881 -0.4921 0.0982
C102 C 0.42180(16) -0.5050(2) 0.04464(9)
C103 C 0.33074(17) -0.4989(2) 0.03449(8)
C104 C 0.2529(2) -0.4537(2) 0.06323(12)
C105 C 0.26612(19) -0.4541(2) 0.11242(10)
H80 H 0.2143 -0.4450 0.1386
C106 C 0.50076(17) -0.52573(19) 0.01063(9)
H81 H 0.5564 -0.5214 0.0206
C107 C 0.1520(2) -0.4672(3) 0.06108(13)
C108 C 0.1515(2) -0.3806(3) 0.00602(12)
H82 H 0.0949 -0.3773 -0.0070
H83 H 0.2032 -0.3902 -0.0220
H84 H 0.1562 -0.3229 0.0145
C109 C 0.0886(3) -0.4683(4) 0.11450(16)
H85 H 0.0272 -0.4784 0.1121
H86 H 0.0881 -0.4092 0.1226
H87 H 0.1096 -0.5180 0.1433
C110 C 0.1356(2) -0.5499(3) 0.05529(13)
H88 H 0.0755 -0.5453 0.0461
H89 H 0.1379 -0.5977 0.0892
H90 H 0.1818 -0.5659 0.0263
C111 C 0.58983(18) -0.5706(2) -0.07080(10)
H91 H 0.5918 -0.6372 -0.0694
C112 C 0.58375(17) -0.5207(2) -0.12420(9)
H92 H 0.5786 -0.4550 -0.1231
C113 C 0.67371(17) -0.5281(2) -0.16714(9)
H93 H 0.6791 -0.5894 -0.1741
H94 H 0.6675 -0.4814 -0.2015
C114 C 0.75816(15) -0.5156(2) -0.15195(9)
H95 H 0.8107 -0.5338 -0.1775
H96 H 0.7610 -0.4498 -0.1545
C115 C 0.7637(2) -0.5706(3) -0.09709(13)
H97 H 0.8200 -0.5574 -0.0882
H98 H 0.7694 -0.6363 -0.0967
C116 C 0.6844(2) -0.5563(3) -0.05220(12)
H99 H 0.6824 -0.4936 -0.0477
H100 H 0.6911 -0.6015 -0.0175
C117 C 0.48285(19) -0.52405(19) -0.18348(11)
H101 H 0.5323 -0.5083 -0.2128
C118 C 0.39948(16) -0.53578(17) -0.19809(8)
C119 C 0.40261(17) -0.53319(18) -0.24986(9)
H102 H 0.4600 -0.5276 -0.2734
C120 C 0.33143(16) -0.53783(19) -0.27054(9)
C121 C 0.25007(18) -0.5445(2) -0.23550(10)
H103 H 0.1981 -0.5511 -0.2485
C122 C 0.2382(2) -0.5423(2) -0.18163(11)
C123 C 0.32054(15) -0.53667(19) -0.16292(8)
C124 C 0.1409(2) -0.5323(4) -0.13744(18)
C125 C 0.06822(17) -0.5230(3) -0.18088(10)
H104 H 0.0078 -0.4999 -0.1656
H105 H 0.0645 -0.5836 -0.1861
H106 H 0.0908 -0.4802 -0.2158
C126 C 0.1289(2) -0.6003(3) -0.09260(11)
H107 H 0.0728 -0.5868 -0.0687
H108 H 0.1803 -0.6070 -0.0743
H109 H 0.1249 -0.6577 -0.1016
C127 C 0.1344(2) -0.4211(4) -0.14505(17)
H110 H 0.0741 -0.4015 -0.1275
H111 H 0.1445 -0.3889 -0.1837
H112 H 0.1806 -0.4062 -0.1285
C128 C 0.33432(16) -0.54316(16) -0.32898(8)
C129 C 0.41771(17) -0.54580(17) -0.36293(9)
H113 H 0.4709 -0.5492 -0.3486
C130 C 0.42761(14) -0.54377(14) -0.41708(8)
H114 H 0.4856 -0.5484 -0.4393
C131 C 0.26666(17) -0.52655(16) -0.40602(9)
H115 H 0.2139 -0.5149 -0.4217
C132 C 0.25731(15) -0.53493(17) -0.35087(8)
H116 H 0.1988 -0.5350 -0.3286
Zn3_2 Zn 1.389840(14) -0.461214(14) 0.361877(9)
Zn3_3 Zn 0.389840(14) -1.461214(14) 0.361877(9)
Zn4_2 Zn 1.354173(14) -0.517217(14) 0.481847(9)
Zn4_3 Zn 0.354173(14) -1.517217(14) 0.481847(9)
Zn4_4 Zn 0.354173(14) -0.517217(14) -0.518153(9)
O13_2 O 0.25181(9) -0.45442(11) 0.38745(5)
O14_2 O 0.22846(10) -0.52509(9) 0.47532(5)
O17_2 O 0.33291(10) -0.37577(9) 0.46351(6)
O18_2 O 0.39303(10) -0.33886(10) 0.37489(5)
N8_2 N 0.34707(10) -0.53440(11) 0.56293(6)
Zn1 Zn 0.681994(13) -0.742906(13) 0.580835(8)
Zn2 Zn 0.646528(13) -0.799012(13) 0.700983(8)
Mn1 Mn 0.64323(5) -0.73135(6) 0.13389(2)
Cl1 Cl 0.64859(16) -0.82362(18) 0.15523(8)
O1 O 0.65444(10) -0.65629(8) 0.67865(5)
O2 O 0.65779(9) -0.61337(9) 0.59000(5)
O3 O 0.65018(10) 0.06998(9) 0.69013(6)
O4 O 0.70757(9) 0.11372(8) 0.60200(5)
O5 O 0.81474(8) -0.73802(10) 0.58887(5)
O6 O 0.78346(9) -0.81173(9) 0.67852(5)
O7 O 1.55018(9) -0.76152(10) 0.61138(5)
O8 O 1.51234(8) -0.78333(10) 0.69958(5)
O9 O 0.72226(11) -0.79723(15) 0.08449(6)
O10 O 0.72728(11) -0.74999(15) 0.18117(6)
N1 N 0.64924(11) -0.81994(12) -0.21780(6)
N2 N 0.53142(13) -0.77639(16) 0.11304(7)
N3 N 0.53797(13) -0.73362(15) 0.20162(6)
N4 N 0.68784(10) -0.72839(10) 0.50345(6)
C1 C 0.65902(14) -0.59541(14) 0.63608(8)
C2 C 0.65858(14) -0.49918(13) 0.63650(8)
C3 C 0.66665(17) -0.48637(15) 0.68267(8)
H1 H 0.6693 -0.5367 0.7138
C4 C 0.67143(19) -0.38976(15) 0.68430(9)
H2 H 0.6757 -0.3781 0.7172
C5 C 0.66979(16) -0.31951(14) 0.63998(8)
C6 C 0.66184(16) -0.33917(14) 0.59096(8)
H3 H 0.6580 -0.2912 0.5589
C7 C 0.65999(18) -0.42742(17) 0.59195(10)
H4 H 0.6596 -0.4405 0.5588
C8 C 0.67853(18) -0.22604(14) 0.64209(8)
C9 C 0.64729(17) -0.19571(16) 0.68790(9)
H5 H 0.6258 -0.2400 0.7206
C10 C 0.64507(17) -0.10857(14) 0.68944(8)
H6 H 0.6162 -0.0918 0.7215
C11 C 0.68509(15) -0.04111(13) 0.64403(8)
C12 C 0.72224(18) -0.06211(13) 0.59692(9)
H7 H 0.7510 -0.0170 0.5668
C13 C 0.7173(2) -0.15662(15) 0.59308(9)
H8 H 0.7387 -0.1721 0.5598
C14 C 0.68148(13) 0.05662(14) 0.64368(8)
C15 C 0.83907(13) -0.77796(14) 0.63448(8)
C16 C 0.93520(14) -0.78141(16) 0.63883(8)
C17 C 0.96554(14) -0.83147(18) 0.68059(10)
H9 H 0.9257 -0.8664 0.7105
C18 C 1.06106(16) -0.8344(2) 0.68174(10)
H10 H 1.0845 -0.8778 0.7105
C19 C 1.11954(13) -0.77580(17) 0.64225(8)
C20 C 1.08626(14) -0.72059(19) 0.60286(10)
H11 H 1.1241 -0.6780 0.5761
C21 C 0.99098(14) -0.72110(18) 0.59774(10)
H12 H 0.9683 -0.6816 0.5674
C22 C 1.21080(15) -0.77552(16) 0.64396(8)
C23 C 1.23726(13) -0.79802(17) 0.69433(9)
H13 H 1.1929 -0.8164 0.7262
C24 C 1.32909(15) -0.79416(18) 0.69918(10)
H14 H 1.3455 -0.8046 0.7334
C25 C 1.39210(13) -0.77472(16) 0.65220(8)
C26 C 1.36338(13) -0.75943(15) 0.60401(8)
H15 H 1.4067 -0.7459 0.5713
C27 C 1.27903(14) -0.76289(16) 0.60182(8)
H16 H 1.2650 -0.7558 0.5673
C28 C 1.49566(13) -0.77408(14) 0.65493(8)
C29 C 0.57736(15) -0.77463(15) -0.18959(8)
H17 H 0.5248 -0.7456 -0.2034
C30 C 0.59323(16) -0.77739(17) -0.13555(9)
H18 H 0.5486 -0.7468 -0.1139
C31 C 0.66790(14) -0.82101(15) -0.11451(7)
C32 C 0.73228(19) -0.8546(2) -0.14869(10)
H19 H 0.7893 -0.8743 -0.1381
C33 C 0.72310(16) -0.86355(15) -0.19957(8)
H20 H 0.7667 -0.8983 -0.2193
C34 C 0.67977(15) -0.82104(16) -0.06130(8)
C35 C 0.60224(18) -0.80672(17) -0.02331(9)
H21 H 0.5420 -0.8023 -0.0294
C36 C 0.62513(17) -0.7990(2) 0.02819(9)
C37 C 0.70675(17) -0.80585(17) 0.04145(10)
C38 C 0.78347(17) -0.8090(3) -0.00601(9)
C39 C 0.76414(17) -0.82598(19) -0.05051(8)
H22 H 0.8137 -0.8426 -0.0759
C40 C 0.53403(16) -0.7930(2) 0.06775(9)
H23 H 0.4793 -0.8017 0.0583
C41 C 0.87989(18) -0.8277(2) 0.01055(10)
C42 C 0.8971(2) -0.7424(2) 0.02632(12)
H24 H 0.8480 -0.7314 0.0554
H25 H 0.8993 -0.6887 -0.0052
H26 H 0.9551 -0.7527 0.0388
C43 C 0.95521(17) -0.8381(3) -0.04010(10)
H27 H 0.9430 -0.8896 -0.0523
H28 H 1.0150 -0.8498 -0.0298
H29 H 0.9542 -0.7812 -0.0694
C44 C 0.9002(3) -0.8987(3) 0.05535(12)
H30 H 0.8576 -0.8921 0.0881
H31 H 0.9623 -0.8949 0.0595
H32 H 0.8949 -0.9585 0.0496
C45 C 0.44613(16) -0.7773(2) 0.15079(8)
H33 H 0.4439 -0.8421 0.1740
C46 C 0.44489(18) -0.7227(3) 0.18757(11)
H34 H 0.4449 -0.6592 0.1626
C47 C 0.36749(15) -0.7133(2) 0.22914(10)
H35 H 0.3750 -0.6634 0.2448
H36 H 0.3613 -0.7713 0.2584
C48 C 0.27876(19) -0.6892(2) 0.20159(10)
H37 H 0.2234 -0.6940 0.2300
H38 H 0.2791 -0.6253 0.1782
C49 C 0.27768(18) -0.7550(3) 0.16820(10)
H39 H 0.2696 -0.8175 0.1929
H40 H 0.2244 -0.7369 0.1503
C50 C 0.35948(15) -0.7593(2) 0.12647(9)
H41 H 0.3623 -0.7005 0.0977
H42 H 0.3559 -0.8091 0.1098
C51 C 0.54769(16) -0.71664(18) 0.24495(9)
H43 H 0.4956 -0.6980 0.2679
C52 C 0.63508(17) -0.72480(19) 0.26014(8)
C53 C 0.62866(15) -0.71524(16) 0.31498(8)
H44 H 0.5710 -0.7057 0.3365
C54 C 0.71006(14) -0.72045(15) 0.33594(8)
C55 C 0.79666(16) -0.73558(18) 0.30002(9)
H45 H 0.8512 -0.7397 0.3132
C56 C 0.80318(14) -0.74380(18) 0.25034(8)
C57 C 0.72675(18) -0.7462(2) 0.22920(10)
C58 C 0.89650(18) -0.74262(19) 0.21262(8)
C59 C 0.9725(2) -0.7356(3) 0.23580(14)
H46 H 0.9767 -0.7884 0.2673
H47 H 0.9641 -0.6786 0.2471
H48 H 1.0285 -0.7351 0.2088
C60 C 0.9170(2) -0.8227(2) 0.19491(14)
H49 H 0.9132 -0.8767 0.2263
H50 H 0.9786 -0.8219 0.1734
H51 H 0.8736 -0.8254 0.1727
C61 C 0.9096(2) -0.6726(3) 0.16482(11)
H52 H 0.8613 -0.6704 0.1449
H53 H 0.9685 -0.6843 0.1427
H54 H 0.9081 -0.6136 0.1732
C62 C 0.70200(13) -0.72186(15) 0.39085(8)
C63 C 0.61742(15) -0.72104(16) 0.42664(8)
H55 H 0.5616 -0.7172 0.4149
C64 C 0.62085(16) -0.72636(17) 0.48190(9)
H56 H 0.5636 -0.7287 0.5057
C65 C 0.76559(17) -0.72311(16) 0.46750(9)
H57 H 0.8196 -0.7176 0.4789
C66 C 0.77163(17) -0.72517(19) 0.41508(9)
H58 H 0.8308 -0.7293 0.3941
Zn1_2 Zn 0.681994(13) 0.257094(13) 0.580835(8)
Zn1_3 Zn 1.681994(13) -0.742906(13) 0.580835(8)
Zn2_2 Zn 0.646528(13) 0.200988(13) 0.700983(8)
Zn2_3 Zn 1.646528(13) -0.799012(13) 0.700983(8)
Zn2_4 Zn 0.646528(13) -0.799012(13) -0.299017(8)
O3_2 O 0.65018(10) -0.93002(9) 0.69013(6)
O4_2 O 0.70757(9) -0.88628(8) 0.60200(5)
O7_2 O 0.55018(9) -0.76152(10) 0.61138(5)
O8_2 O 0.51234(8) -0.78333(10) 0.69958(5)
N1_2 N 0.64924(11) -0.81994(12) 0.78220(6)
Mn2? Mn 0.63483(5) -0.78441(6) 0.15067(3)
Cl2? Cl 0.6377(3) -0.9450(3) 0.19920(16)
loop_
_geom_bond_atom_site_label_1
_geom_bond_atom_site_label_2
_geom_bond_site_symmetry_1
_geom_bond_site_symmetry_2
Zn1 O2 1_555 1_555
Zn2 O1 1_555 1_555
Zn3 O11 1_555 1_555
Zn4 O12 1_555 1_555
Mn1 Cl1 1_555 1_555
Mn3 Cl3 1_555 1_555
O1 C1 1_555 1_555
O2 C1 1_555 1_555
O3 C14 1_555 1_555
O4 C14 1_555 1_555
O5 Zn1 1_555 1_555
O6 Zn2 1_555 1_555
O7 C28 1_555 1_555
O8 C28 1_555 1_555
O9 Mn1 1_555 1_555
O10 Mn1 1_555 1_555
O11 C67 1_555 1_555
O12 C67 1_555 1_555
O13 C80 1_555 1_555
O14 C80 1_555 1_555
O15 Zn4 1_555 1_555
O16 Zn3 1_555 1_555
O17 C94 1_555 1_555
O18 C94 1_555 1_555
O19 Mn3 1_555 1_555
O20 Mn3 1_555 1_555
N1 C29 1_555 1_555
N2 Mn1 1_555 1_555
N3 Mn1 1_555 1_555
N4 Zn1 1_555 1_555
N5 Zn3 1_555 1_555
N6 Mn3 1_555 1_555
N7 Mn3 1_555 1_555
N8 C130 1_555 1_555
C1 C2 1_555 1_555
C2 C3 1_555 1_555
C3 H1 1_555 1_555
C4 C3 1_555 1_555
H2 C4 1_555 1_555
C5 C4 1_555 1_555
C6 C5 1_555 1_555
H3 C6 1_555 1_555
C7 C2 1_555 1_555
H4 C7 1_555 1_555
C8 C5 1_555 1_555
C9 C8 1_555 1_555
H5 C9 1_555 1_555
C10 C9 1_555 1_555
H6 C10 1_555 1_555
C11 C10 1_555 1_555
C12 C11 1_555 1_555
H7 C12 1_555 1_555
C13 C8 1_555 1_555
H8 C13 1_555 1_555
C14 C11 1_555 1_555
C15 O5 1_555 1_555
C16 C15 1_555 1_555
C17 C16 1_555 1_555
H9 C17 1_555 1_555
C18 C17 1_555 1_555
H10 C18 1_555 1_555
C19 C18 1_555 1_555
C20 C19 1_555 1_555
H11 C20 1_555 1_555
C21 C16 1_555 1_555
H12 C21 1_555 1_555
C22 C19 1_555 1_555
C23 C22 1_555 1_555
H13 C23 1_555 1_555
C24 C23 1_555 1_555
H14 C24 1_555 1_555
C25 C24 1_555 1_555
C26 C25 1_555 1_555
H15 C26 1_555 1_555
C27 C22 1_555 1_555
H16 C27 1_555 1_555
C28 C25 1_555 1_555
C29 H17 1_555 1_555
C30 C29 1_555 1_555
H18 C30 1_555 1_555
C31 C30 1_555 1_555
C32 C31 1_555 1_555
H19 C32 1_555 1_555
C33 N1 1_555 1_555
H20 C33 1_555 1_555
C34 C31 1_555 1_555
C35 C34 1_555 1_555
H21 C35 1_555 1_555
C36 C35 1_555 1_555
C37 O9 1_555 1_555
C38 C37 1_555 1_555
C39 C34 1_555 1_555
H22 C39 1_555 1_555
C40 N2 1_555 1_555
H23 C40 1_555 1_555
C41 C38 1_555 1_555
C42 C41 1_555 1_555
H24 C42 1_555 1_555
H25 C42 1_555 1_555
H26 C42 1_555 1_555
C43 C41 1_555 1_555
H27 C43 1_555 1_555
H28 C43 1_555 1_555
H29 C43 1_555 1_555
C44 C41 1_555 1_555
H30 C44 1_555 1_555
H31 C44 1_555 1_555
H32 C44 1_555 1_555
C45 N2 1_555 1_555
H33 C45 1_555 1_555
C46 N3 1_555 1_555
H34 C46 1_555 1_555
C47 C46 1_555 1_555
H35 C47 1_555 1_555
H36 C47 1_555 1_555
C48 C47 1_555 1_555
H37 C48 1_555 1_555
H38 C48 1_555 1_555
C49 C48 1_555 1_555
H39 C49 1_555 1_555
H40 C49 1_555 1_555
C50 C45 1_555 1_555
H41 C50 1_555 1_555
H42 C50 1_555 1_555
C51 N3 1_555 1_555
H43 C51 1_555 1_555
C52 C51 1_555 1_555
C53 C52 1_555 1_555
H44 C53 1_555 1_555
C54 C53 1_555 1_555
C55 C54 1_555 1_555
H45 C55 1_555 1_555
C56 C55 1_555 1_555
C57 O10 1_555 1_555
C58 C56 1_555 1_555
C59 C58 1_555 1_555
H46 C59 1_555 1_555
H47 C59 1_555 1_555
H48 C59 1_555 1_555
C60 C58 1_555 1_555
H49 C60 1_555 1_555
H50 C60 1_555 1_555
H51 C60 1_555 1_555
C61 C58 1_555 1_555
H52 C61 1_555 1_555
H53 C61 1_555 1_555
H54 C61 1_555 1_555
C62 C54 1_555 1_555
C63 C62 1_555 1_555
H55 C63 1_555 1_555
C64 N4 1_555 1_555
H56 C64 1_555 1_555
C65 N4 1_555 1_555
H57 C65 1_555 1_555
C66 C62 1_555 1_555
H58 C66 1_555 1_555
C67 C68 1_555 1_555
C68 C69 1_555 1_555
C69 H59 1_555 1_555
C70 C69 1_555 1_555
H60 C70 1_555 1_555
C71 C70 1_555 1_555
C72 C71 1_555 1_555
H61 C72 1_555 1_555
C73 C68 1_555 1_555
H62 C73 1_555 1_555
C74 C71 1_555 1_555
C75 C74 1_555 1_555
H63 C75 1_555 1_555
C76 C75 1_555 1_555
H64 C76 1_555 1_555
C77 C76 1_555 1_555
C78 C77 1_555 1_555
H65 C78 1_555 1_555
C79 C74 1_555 1_555
H66 C79 1_555 1_555
C80 C77 1_555 1_555
C81 O15 1_555 1_555
C82 C81 1_555 1_555
C83 C82 1_555 1_555
H67 C83 1_555 1_555
C84 C83 1_555 1_555
H68 C84 1_555 1_555
C85 C84 1_555 1_555
C86 C85 1_555 1_555
H69 C86 1_555 1_555
C87 C82 1_555 1_555
H70 C87 1_555 1_555
C88 C85 1_555 1_555
C89 C88 1_555 1_555
H71 C89 1_555 1_555
C90 C89 1_555 1_555
H72 C90 1_555 1_555
C91 C90 1_555 1_555
C92 C91 1_555 1_555
H73 C92 1_555 1_555
C93 C88 1_555 1_555
H74 C93 1_555 1_555
C94 C91 1_555 1_555
C95 N5 1_555 1_555
H75 C95 1_555 1_555
C96 C95 1_555 1_555
H76 C96 1_555 1_555
C97 C96 1_555 1_555
C98 C97 1_555 1_555
H77 C98 1_555 1_555
C99 N5 1_555 1_555
H78 C99 1_555 1_555
C100 C97 1_555 1_555
C101 C100 1_555 1_555
H79 C101 1_555 1_555
C102 C101 1_555 1_555
C103 O19 1_555 1_555
C104 C103 1_555 1_555
C105 C100 1_555 1_555
H80 C105 1_555 1_555
C106 N6 1_555 1_555
H81 C106 1_555 1_555
C107 C104 1_555 1_555
C108 C107 1_555 1_555
H82 C108 1_555 1_555
H83 C108 1_555 1_555
H84 C108 1_555 1_555
C109 C107 1_555 1_555
H85 C109 1_555 1_555
H86 C109 1_555 1_555
H87 C109 1_555 1_555
C110 C107 1_555 1_555
H88 C110 1_555 1_555
H89 C110 1_555 1_555
H90 C110 1_555 1_555
C111 N6 1_555 1_555
H91 C111 1_555 1_555
C112 N7 1_555 1_555
H92 C112 1_555 1_555
C113 C112 1_555 1_555
H93 C113 1_555 1_555
H94 C113 1_555 1_555
C114 C113 1_555 1_555
H95 C114 1_555 1_555
H96 C114 1_555 1_555
C115 C114 1_555 1_555
H97 C115 1_555 1_555
H98 C115 1_555 1_555
C116 C111 1_555 1_555
H99 C116 1_555 1_555
H100 C116 1_555 1_555
C117 N7 1_555 1_555
H101 C117 1_555 1_555
C118 C117 1_555 1_555
C119 C118 1_555 1_555
H102 C119 1_555 1_555
C120 C119 1_555 1_555
C121 C120 1_555 1_555
H103 C121 1_555 1_555
C122 C121 1_555 1_555
C123 O20 1_555 1_555
C124 C122 1_555 1_555
C125 C124 1_555 1_555
H104 C125 1_555 1_555
H105 C125 1_555 1_555
H106 C125 1_555 1_555
C126 C124 1_555 1_555
H107 C126 1_555 1_555
H108 C126 1_555 1_555
H109 C126 1_555 1_555
C127 C124 1_555 1_555
H110 C127 1_555 1_555
H111 C127 1_555 1_555
H112 C127 1_555 1_555
C128 C120 1_555 1_555
C129 C128 1_555 1_555
H113 C129 1_555 1_555
C130 C129 1_555 1_555
H114 C130 1_555 1_555
C131 N8 1_555 1_555
H115 C131 1_555 1_555
C132 C128 1_555 1_555
H116 C132 1_555 1_555
Zn1_2 O4 1_555 1_555
Zn1_3 O7 1_555 1_555
Zn2_2 O3 1_555 1_555
Zn2_3 O8 1_555 1_555
Zn2_4 N1 1_555 1_555
Zn3_2 O13 1_555 1_555
Zn3_3 O18 1_555 1_555
Zn4_2 O14 1_555 1_555
Zn4_3 O17 1_555 1_555
Zn4_4 N8 1_555 1_555
O3_2 Zn2 1_555 1_555
O4_2 Zn1 1_555 1_555
O7_2 Zn1 1_555 1_555
O8_2 Zn2 1_555 1_555
O13_2 Zn3 1_555 1_555
O14_2 Zn4 1_555 1_555
O17_2 Zn4 1_555 1_555
O18_2 Zn3 1_555 1_555
N1_2 Zn2 1_555 1_555
N8_2 Zn4 1_555 1_555
O6 C15 1_555 1_555
O16 C81 1_555 1_555
C6 C7 1_555 1_555
C12 C13 1_555 1_555
C20 C21 1_555 1_555
C26 C27 1_555 1_555
C32 C33 1_555 1_555
C36 C37 1_555 1_555
C36 C40 1_555 1_555
C38 C39 1_555 1_555
C45 C46 1_555 1_555
C49 C50 1_555 1_555
C52 C57 1_555 1_555
C56 C57 1_555 1_555
C63 C64 1_555 1_555
C65 C66 1_555 1_555
C72 C73 1_555 1_555
C78 C79 1_555 1_555
C86 C87 1_555 1_555
C92 C93 1_555 1_555
C98 C99 1_555 1_555
C102 C103 1_555 1_555
C102 C106 1_555 1_555
C104 C105 1_555 1_555
C111 C112 1_555 1_555
C115 C116 1_555 1_555
C118 C123 1_555 1_555
C122 C123 1_555 1_555
C131 C132 1_555 1_555

#END
