
#######################################################################
#
#                 Cambridge Crystallographic Data Centre
#                                CCDC 
#
#######################################################################
#
# If this CIF has been generated from an entry in the Cambridge 
# Structural Database, then it will include bibliographic, chemical, 
# crystal, experimental, refinement or atomic coordinate data resulting 
# from the CCDC's data processing and validation procedures.
#
#######################################################################

data_VELDIA
_symmetry_cell_setting           triclinic
_symmetry_space_group_name_H-M   'P -1'
_symmetry_Int_Tables_number      2
_space_group_name_Hall           '-P 1'
loop_
_symmetry_equiv_pos_site_id
_symmetry_equiv_pos_as_xyz
1 x,y,z
2 -x,-y,-z
_cell_length_a                   7.0341(7)
_cell_length_b                   7.8999(8)
_cell_length_c                   5.0822(5)
_cell_angle_alpha                99.464(6)
_cell_angle_beta                 102.641(7)
_cell_angle_gamma                126.918(6)
_cell_volume                     203.853
loop_
_atom_site_label
_atom_site_type_symbol
_atom_site_fract_x
_atom_site_fract_y
_atom_site_fract_z
Zn1 Zn 0.00000 0.00000 0.00000
O1 O -0.675(4) -0.354(3) -0.708(5)
O2 O -0.282(3) -0.214(4) -0.411(4)
O3 O 0.147(4) 0.263(4) -0.133(3)
N1 N -0.278(1) 0.031(3) 0.034(5)
C1 C -0.709(5) -0.136(2) -0.261(3)
C2 C -0.504(3) -0.269(4) -0.456(5)
C3 C -0.501(3) -0.122(4) -0.207(4)
H1 H -0.826 -0.189 -0.447
H2 H 0.174 0.384 -0.059
H3 H 0.236 0.285 -0.233
Zn1_2 Zn -1.00000 0.00000 0.00000
O1A O -0.325(4) 0.354(3) 0.708(5)
O2A O -0.718(3) 0.214(4) 0.411(4)
O2A_2 O 0.282(3) 0.214(4) 0.411(4)
O3A O -0.147(4) -0.263(4) 0.133(3)
N1A N -0.722(1) -0.031(3) -0.034(5)
N1A_2 N 0.278(1) -0.031(3) -0.034(5)
C1A C -0.291(5) 0.136(2) 0.261(3)
C2A C -0.496(3) 0.269(4) 0.456(5)
C3A C -0.499(3) 0.122(4) 0.207(4)
H1A H -0.174 0.189 0.447
H2A H -0.174 -0.384 0.059
H3A H -0.236 -0.285 0.233
loop_
_geom_bond_atom_site_label_1
_geom_bond_atom_site_label_2
_geom_bond_site_symmetry_1
_geom_bond_site_symmetry_2
Zn1 O2 1_555 1_555
O1 C2 1_555 1_555
O2 C2 1_555 1_555
O3 Zn1 1_555 1_555
N1 Zn1 1_555 1_555
C1 C3 1_555 1_555
C2 C3 1_555 1_555
C3 N1 1_555 1_555
H1 C1 1_555 1_555
H2 O3 1_555 1_555
H3 O3 1_555 1_555
Zn1_2 O2A 1_555 1_555
O1A C2A 1_555 1_555
O2A C2A 1_555 1_555
O2A_2 Zn1 1_555 1_555
O3A Zn1 1_555 1_555
N1A C1 1_555 1_555
N1A_2 Zn1 1_555 1_555
C1A N1 1_555 1_555
C2A C3A 1_555 1_555
C3A N1A 1_555 1_555
H1A C1A 1_555 1_555
H2A O3A 1_555 1_555
H3A O3A 1_555 1_555
Zn1_2 N1A 1_555 1_555
C1A C3A 1_555 1_555

#END
