
#######################################################################
#
#                 Cambridge Crystallographic Data Centre
#                                CCDC 
#
#######################################################################
#
# If this CIF has been generated from an entry in the Cambridge 
# Structural Database, then it will include bibliographic, chemical, 
# crystal, experimental, refinement or atomic coordinate data resulting 
# from the CCDC's data processing and validation procedures.
#
#######################################################################

data_VELDUM
_symmetry_cell_setting           triclinic
_symmetry_space_group_name_H-M   'P -1'
_symmetry_Int_Tables_number      2
_space_group_name_Hall           '-P 1'
loop_
_symmetry_equiv_pos_site_id
_symmetry_equiv_pos_as_xyz
1 x,y,z
2 -x,-y,-z
_cell_length_a                   6.285(2)
_cell_length_b                   6.857(2)
_cell_length_c                   6.950(1)
_cell_angle_alpha                71.11(2)
_cell_angle_beta                 88.14(2)
_cell_angle_gamma                70.80(2)
_cell_volume                     266.705
loop_
_atom_site_label
_atom_site_type_symbol
_atom_site_fract_x
_atom_site_fract_y
_atom_site_fract_z
Cu1 Cu 0.0000 0.0000 0.0000
N1 N -0.0058(4) -0.2990(3) 0.0041(3)
C1 C 0.1572(4) -0.4119(4) -0.0853(4)
C2 C -0.1642(4) -0.3853(4) 0.0883(4)
H1 H -0.281(6) -0.314(5) 0.151(5)
C3 C 0.3343(4) -0.3098(4) -0.1816(4)
O1 O 0.3173(3) -0.1298(3) -0.1638(3)
O2 O 0.4808(3) -0.4163(3) -0.2681(3)
N2 N -0.1795(5) 0.1490(4) -0.2732(4)
H2 H -0.230(6) 0.066(6) -0.301(6)
H3 H -0.295(7) 0.243(6) -0.273(6)
H4 H -0.092(6) 0.198(6) -0.366(6)
Cu1_2 Cu 0.0000 -1.0000 0.0000
N1A N 0.0058(4) -0.7010(3) -0.0041(3)
N1A_2 N 0.0058(4) 0.2990(3) -0.0041(3)
C1A C -0.1572(4) -0.5881(4) 0.0853(4)
C2A C 0.1642(4) -0.6147(4) -0.0883(4)
H1A H 0.281(6) -0.686(5) -0.151(5)
C3A C -0.3343(4) -0.6902(4) 0.1816(4)
O1A O -0.3173(3) -0.8702(3) 0.1638(3)
O1A_2 O -0.3173(3) 0.1298(3) 0.1638(3)
O2A O -0.4808(3) -0.5837(3) 0.2681(3)
N2A N 0.1795(5) -0.1490(4) 0.2732(4)
H2A H 0.230(6) -0.066(6) 0.301(6)
H3A H 0.295(7) -0.243(6) 0.273(6)
H4A H 0.092(6) -0.198(6) 0.366(6)
O3 O 0.7800(4) 0.8001(4) 0.5435(4)
H5 H 0.719(8) 0.885(7) 0.455(7)
H6 H 0.686(8) 0.735(7) 0.612(7)
loop_
_geom_bond_atom_site_label_1
_geom_bond_atom_site_label_2
_geom_bond_site_symmetry_1
_geom_bond_site_symmetry_2
Cu1 N1 1_555 1_555
N1 C1 1_555 1_555
C1 C3 1_555 1_555
C2 N1 1_555 1_555
H1 C2 1_555 1_555
C3 O1 1_555 1_555
O1 Cu1 1_555 1_555
O2 C3 1_555 1_555
N2 Cu1 1_555 1_555
H2 N2 1_555 1_555
H3 N2 1_555 1_555
H4 N2 1_555 1_555
O3 H5 1_555 1_555
H6 O3 1_555 1_555
Cu1_2 N1A 1_555 1_555
N1A C1A 1_555 1_555
N1A_2 Cu1 1_555 1_555
C1A C2 1_555 1_555
C2A C1 1_555 1_555
H1A C2A 1_555 1_555
C3A C1A 1_555 1_555
O1A Cu1_2 1_555 1_555
O1A_2 Cu1 1_555 1_555
O2A C3A 1_555 1_555
N2A Cu1 1_555 1_555
H2A N2A 1_555 1_555
H3A N2A 1_555 1_555
H4A N2A 1_555 1_555
N1A C2A 1_555 1_555
C3A O1A 1_555 1_555

#END
