
#######################################################################
#
#                 Cambridge Crystallographic Data Centre
#                                CCDC 
#
#######################################################################
#
# If this CIF has been generated from an entry in the Cambridge 
# Structural Database, then it will include bibliographic, chemical, 
# crystal, experimental, refinement or atomic coordinate data resulting 
# from the CCDC's data processing and validation procedures.
#
#######################################################################

data_VELDEW
_symmetry_cell_setting           triclinic
_symmetry_space_group_name_H-M   'P -1'
_symmetry_Int_Tables_number      2
_space_group_name_Hall           '-P 1'
loop_
_symmetry_equiv_pos_site_id
_symmetry_equiv_pos_as_xyz
1 x,y,z
2 -x,-y,-z
_cell_length_a                   7.147(1)
_cell_length_b                   7.999(2)
_cell_length_c                   5.043(1)
_cell_angle_alpha                99.349(8)
_cell_angle_beta                 102.560(9)
_cell_angle_gamma                127.407(8)
_cell_volume                     206.771
loop_
_atom_site_label
_atom_site_type_symbol
_atom_site_fract_x
_atom_site_fract_y
_atom_site_fract_z
Fe1 Fe 0.00000 0.00000 0.00000
O1 O -0.690(4) -0.367(3) -0.707(4)
O2 O -0.298(3) -0.216(2) -0.427(4)
C1 C -0.719(4) -0.143(4) -0.263(5)
C2 C -0.501(7) -0.245(6) -0.478(8)
N1 N -0.306(3) 0.011(3) 0.042(3)
C3 C -0.505(3) -0.122(4) -0.220(5)
O3 O 0.160(4) 0.278(2) -0.146(4)
H1 H 0.23 0.411 -0.05
H2 H 0.21 0.278 -0.28
H3 H -0.878 -0.269 -0.41
Fe1_2 Fe -1.00000 0.00000 0.00000
O1A O -0.310(4) 0.367(3) 0.707(4)
O2A O -0.702(3) 0.216(2) 0.427(4)
O2A_2 O 0.298(3) 0.216(2) 0.427(4)
C1A C -0.281(4) 0.143(4) 0.263(5)
C2A C -0.499(7) 0.245(6) 0.478(8)
N1A N -0.694(3) -0.011(3) -0.042(3)
N1A_2 N 0.306(3) -0.011(3) -0.042(3)
C3A C -0.495(3) 0.122(4) 0.220(5)
O3A O -0.160(4) -0.278(2) 0.146(4)
H1A H -0.23 -0.411 0.05
H2A H -0.21 -0.278 0.28
H3A H -0.122 0.269 0.41
loop_
_geom_bond_atom_site_label_1
_geom_bond_atom_site_label_2
_geom_bond_site_symmetry_1
_geom_bond_site_symmetry_2
Fe1 O2 1_555 1_555
O1 C2 1_555 1_555
O2 C2 1_555 1_555
C1 C3 1_555 1_555
C2 C3 1_555 1_555
N1 Fe1 1_555 1_555
C3 N1 1_555 1_555
O3 Fe1 1_555 1_555
H1 O3 1_555 1_555
H2 O3 1_555 1_555
H3 C1 1_555 1_555
Fe1_2 O2A 1_555 1_555
O1A C2A 1_555 1_555
O2A C2A 1_555 1_555
O2A_2 Fe1 1_555 1_555
C1A N1 1_555 1_555
C2A C3A 1_555 1_555
N1A C1 1_555 1_555
N1A_2 Fe1 1_555 1_555
C3A C1A 1_555 1_555
O3A Fe1 1_555 1_555
H1A O3A 1_555 1_555
H2A O3A 1_555 1_555
H3A C1A 1_555 1_555
Fe1_2 N1A 1_555 1_555
N1A C3A 1_555 1_555

#END
