
#######################################################################
#
#                 Cambridge Crystallographic Data Centre
#                                CCDC 
#
#######################################################################
#
# If this CIF has been generated from an entry in the Cambridge 
# Structural Database, then it will include bibliographic, chemical, 
# crystal, experimental, refinement or atomic coordinate data resulting 
# from the CCDC's data processing and validation procedures.
#
#######################################################################

data_VELDOG
_symmetry_cell_setting           monoclinic
_symmetry_space_group_name_H-M   'P 21/c'
_symmetry_Int_Tables_number      14
_space_group_name_Hall           '-P 2ybc'
loop_
_symmetry_equiv_pos_site_id
_symmetry_equiv_pos_as_xyz
1 x,y,z
2 -x,1/2+y,1/2-z
3 -x,-y,-z
4 x,1/2-y,1/2+z
_cell_length_a                   6.469(1)
_cell_length_b                   12.866(2)
_cell_length_c                   12.587(3)
_cell_angle_alpha                90
_cell_angle_beta                 113.96(2)
_cell_angle_gamma                90
_cell_volume                     957.344
loop_
_atom_site_label
_atom_site_type_symbol
_atom_site_fract_x
_atom_site_fract_y
_atom_site_fract_z
Cu1 Cu 0.0000 -1.0000 0.0000
Cu2 Cu -0.5000 -0.5000 0.0000
N1 N -0.2158(4) -0.83863(17) -0.0134(2)
C1 C -0.0638(4) -0.7663(2) 0.0439(2)
C2 C -0.1304(5) -0.6651(2) 0.0530(3)
H1 H -0.032(4) -0.616(2) 0.093(2)
N2 N -0.3480(4) -0.63816(16) 0.0057(2)
C3 C -0.5016(4) -0.7107(2) -0.0517(2)
C4 C -0.4318(5) -0.8108(2) -0.0603(3)
H2 H -0.532(5) -0.858(2) -0.101(2)
C5 C 0.1842(5) -0.7986(2) 0.0951(2)
O1 O 0.2290(3) -0.89020(14) 0.07827(18)
O2 O 0.3258(3) -0.73294(14) 0.14976(17)
C6 C -0.7454(5) -0.6744(2) -0.1033(3)
O3 O -0.7741(3) -0.57920(14) -0.08576(18)
O4 O -0.8949(3) -0.73629(14) -0.15673(17)
N3 N 0.0028(5) -1.0358(2) 0.1546(3)
H3 H 0.135(5) -1.034(2) 0.202(3)
H4 H -0.033(5) -1.092(2) 0.152(3)
H5 H -0.065(5) -0.988(2) 0.171(3)
O5 O -0.5133(4) -0.53576(17) 0.1821(2)
H6 H -0.567(6) -0.584(2) 0.181(3)
H7 H -0.565(6) -0.492(2) 0.201(3)
Cu2_2 Cu 0.5000 -1.5000 0.0000
N1B N 0.2158(4) -1.16137(17) 0.0134(2)
C1B C 0.0638(4) -1.2337(2) -0.0439(2)
C2B C 0.1304(5) -1.3349(2) -0.0530(3)
H1B H 0.032(4) -1.384(2) -0.093(2)
N2B N 0.3480(4) -1.36184(16) -0.0057(2)
N2B_2 N -0.6520(4) -0.36184(16) -0.0057(2)
C3B C 0.5016(4) -1.2893(2) 0.0517(2)
C4B C 0.4318(5) -1.1892(2) 0.0603(3)
H2B H 0.532(5) -1.142(2) 0.101(2)
C5B C -0.1842(5) -1.2014(2) -0.0951(2)
O1B O -0.2290(3) -1.10980(14) -0.07827(18)
O2B O -0.3258(3) -1.26706(14) -0.14976(17)
C6B C 0.7454(5) -1.3256(2) 0.1033(3)
O3B O 0.7741(3) -1.42080(14) 0.08576(18)
O3B_2 O -0.2259(3) -0.42080(14) 0.08576(18)
O4B O 0.8949(3) -1.26371(14) 0.15673(17)
N3B N -0.0028(5) -0.9642(2) -0.1546(3)
H3B H -0.135(5) -0.966(2) -0.202(3)
H4B H 0.033(5) -0.908(2) -0.152(3)
H5B H 0.065(5) -1.012(2) -0.171(3)
O5B O -0.4867(4) -0.46424(17) -0.1821(2)
H6B H -0.433(6) -0.416(2) -0.181(3)
H7B H -0.435(6) -0.508(2) -0.201(3)
O6 O -0.2862(4) -0.8845(2) 0.2363(3)
H8 H -0.401(6) -0.851(3) 0.202(3)
H9 H -0.202(7) -0.855(3) 0.275(4)
loop_
_geom_bond_atom_site_label_1
_geom_bond_atom_site_label_2
_geom_bond_site_symmetry_1
_geom_bond_site_symmetry_2
Cu1 N1 1_555 1_555
Cu2 N2 1_555 1_555
N1 C1 1_555 1_555
C1 C2 1_555 1_555
C2 H1 1_555 1_555
N2 C2 1_555 1_555
C3 N2 1_555 1_555
C4 N1 1_555 1_555
H2 C4 1_555 1_555
C5 C1 1_555 1_555
O1 Cu1 1_555 1_555
O2 C5 1_555 1_555
C6 C3 1_555 1_555
O3 Cu2 1_555 1_555
O4 C6 1_555 1_555
N3 Cu1 1_555 1_555
H3 N3 1_555 1_555
H4 N3 1_555 1_555
H5 N3 1_555 1_555
O5 Cu2 1_555 1_555
H6 O5 1_555 1_555
H7 O5 1_555 1_555
O6 H8 1_555 1_555
H9 O6 1_555 1_555
Cu2_2 N2B 1_555 1_555
N1B Cu1 1_555 1_555
C1B N1B 1_555 1_555
C2B C1B 1_555 1_555
H1B C2B 1_555 1_555
N2B C2B 1_555 1_555
N2B_2 Cu2 1_555 1_555
C3B N2B 1_555 1_555
C4B N1B 1_555 1_555
H2B C4B 1_555 1_555
C5B C1B 1_555 1_555
O1B Cu1 1_555 1_555
O2B C5B 1_555 1_555
C6B C3B 1_555 1_555
O3B Cu2_2 1_555 1_555
O3B_2 Cu2 1_555 1_555
O4B C6B 1_555 1_555
N3B Cu1 1_555 1_555
H3B N3B 1_555 1_555
H4B N3B 1_555 1_555
H5B N3B 1_555 1_555
O5B Cu2 1_555 1_555
H6B O5B 1_555 1_555
H7B O5B 1_555 1_555
C3 C4 1_555 1_555
C5 O1 1_555 1_555
C6 O3 1_555 1_555
C3B C4B 1_555 1_555
C5B O1B 1_555 1_555
C6B O3B 1_555 1_555

#END
