
#######################################################################
#
#                 Cambridge Crystallographic Data Centre
#                                CCDC 
#
#######################################################################
#
# If this CIF has been generated from an entry in the Cambridge 
# Structural Database, then it will include bibliographic, chemical, 
# crystal, experimental, refinement or atomic coordinate data resulting 
# from the CCDC's data processing and validation procedures.
#
#######################################################################

data_VELFEY
_symmetry_cell_setting           triclinic
_symmetry_space_group_name_H-M   'P -1'
_symmetry_Int_Tables_number      2
_space_group_name_Hall           '-P 1'
loop_
_symmetry_equiv_pos_site_id
_symmetry_equiv_pos_as_xyz
1 x,y,z
2 -x,-y,-z
_cell_length_a                   8.319(1)
_cell_length_b                   11.904(1)
_cell_length_c                   13.646(2)
_cell_angle_alpha                87.24(1)
_cell_angle_beta                 73.13(1)
_cell_angle_gamma                84.15(1)
_cell_volume                     1286.22
loop_
_atom_site_label
_atom_site_type_symbol
_atom_site_fract_x
_atom_site_fract_y
_atom_site_fract_z
Cu1 Cu 0.17353(6) 0.24781(4) 0.39944(3)
Cu2 Cu -0.17493(6) 0.04821(4) -0.03111(3)
O1 O 0.3493(4) 0.0843(3) 0.3582(3)
H1 H 0.447 0.086 0.328
H2 H 0.318 0.033 0.335
N1 N -0.0212(4) 0.1736(3) 0.3798(2)
C1 C -0.0406(5) 0.1930(3) 0.2861(3)
C2 C -0.1572(5) 0.1381(3) 0.2562(3)
N2 N -0.2564(4) 0.0677(3) 0.3204(2)
C3 C -0.2369(5) 0.0522(4) 0.4141(3)
H3 H -0.306 0.005 0.461
C4 C -0.1180(5) 0.1037(3) 0.4439(3)
H4 H -0.106 0.090 0.509
C5 C 0.0709(5) 0.2772(4) 0.2214(3)
O2 O 0.1806(4) 0.3084(3) 0.2609(2)
O3 O 0.0497(5) 0.3099(3) 0.1394(2)
C6 C -0.1877(5) 0.1470(3) 0.1515(3)
O4 O -0.0944(3) 0.0764(2) 0.08639(18)
O5 O -0.3042(5) 0.2111(3) 0.1382(3)
N3 N -0.0639(4) 0.1799(3) 0.8876(2)
C7 C -0.0656(4) 0.1802(3) 0.7892(2)
C8 C 0.0071(4) 0.2625(3) 0.7205(2)
N4 N 0.0803(4) 0.3451(3) 0.7495(2)
C9 C 0.0807(5) 0.3435(4) 0.8475(3)
H5 H 0.131 0.400 0.869
C10 C 0.0100(5) 0.2620(3) 0.9172(3)
H6 H 0.013 0.264 0.985
C11 C -0.1595(4) 0.0870(3) 0.7663(3)
O6 O -0.2183(4) 0.0205(2) 0.8405(2)
O7 O -0.1784(4) 0.0843(3) 0.6800(2)
C12 C 0.0054(5) 0.2732(3) 0.6088(3)
O8 O 0.1172(3) 0.2101(3) 0.5477(2)
O9 O -0.0963(4) 0.3455(3) 0.5887(2)
N5 N 0.3686(4) 0.3244(3) 0.4072(2)
C13 C 0.4366(6) 0.4051(4) 0.3402(3)
H7 H 0.382 0.431 0.292
C14 C 0.5813(6) 0.4513(4) 0.3388(3)
H8 H 0.623 0.506 0.290
C15 C 0.6668(5) 0.4156(3) 0.4109(3)
C16 C 0.5943(5) 0.3323(3) 0.4812(3)
H9 H 0.645 0.306 0.531
C17 C 0.4504(5) 0.2903(4) 0.4764(3)
H10 H 0.406 0.235 0.524
N6 N 0.8098(4) 0.4573(3) 0.4119(3)
H11 H 0.852 0.508 0.367
H12 H 0.859 0.434 0.457
N7 N -0.3167(4) -0.0710(3) 0.0432(2)
C18 C -0.3547(6) -0.0872(4) 0.1470(3)
H13 H -0.317 -0.037 0.184
C19 C -0.4428(6) -0.1714(4) 0.2009(3)
H14 H -0.462 -0.178 0.271
C20 C -0.5057(5) -0.2491(4) 0.1493(3)
C21 C -0.4681(6) -0.2330(4) 0.0417(3)
H15 H -0.505 -0.282 0.003
C22 C -0.3773(6) -0.1461(4) -0.0054(3)
H16 H -0.355 -0.138 -0.076
N8 N -0.5966(5) -0.3312(3) 0.2001(3)
H17 H -0.618 -0.338 0.266
H18 H -0.634 -0.378 0.167
Cu2A Cu 0.17493(6) -0.04821(4) 0.03111(3)
Cu2_2 Cu -0.17493(6) 0.04821(4) 0.96889(3)
O4A O 0.0944(3) -0.0764(2) -0.08639(18)
N3_2 N -0.0639(4) 0.1799(3) -0.1124(2)
O6_2 O -0.2183(4) 0.0205(2) -0.1595(2)
O10 O 0.3147(6) 0.4847(4) 0.1074(3)
H19 H 0.283 0.428 0.133
H20 H 0.321 0.489 0.045
O11 O 0.3104(8) 0.5497(4) -0.0842(4)
H21 H 0.417 0.559 -0.099
H22 H 0.259 0.610 -0.103
loop_
_geom_bond_atom_site_label_1
_geom_bond_atom_site_label_2
_geom_bond_site_symmetry_1
_geom_bond_site_symmetry_2
Cu1 O1 1_555 1_555
Cu2 O4 1_555 1_555
O1 H1 1_555 1_555
H2 O1 1_555 1_555
N1 Cu1 1_555 1_555
C1 N1 1_555 1_555
C2 C1 1_555 1_555
N2 C2 1_555 1_555
C3 N2 1_555 1_555
H3 C3 1_555 1_555
C4 N1 1_555 1_555
H4 C4 1_555 1_555
C5 C1 1_555 1_555
O2 Cu1 1_555 1_555
O3 C5 1_555 1_555
C6 C2 1_555 1_555
O4 C6 1_555 1_555
O5 C6 1_555 1_555
N3 C7 1_555 1_555
C7 C8 1_555 1_555
C8 N4 1_555 1_555
N4 C9 1_555 1_555
C9 H5 1_555 1_555
C10 N3 1_555 1_555
H6 C10 1_555 1_555
C11 C7 1_555 1_555
O6 C11 1_555 1_555
O7 C11 1_555 1_555
C12 C8 1_555 1_555
O8 Cu1 1_555 1_555
O9 C12 1_555 1_555
N5 Cu1 1_555 1_555
C13 N5 1_555 1_555
H7 C13 1_555 1_555
C14 C13 1_555 1_555
H8 C14 1_555 1_555
C15 C14 1_555 1_555
C16 C15 1_555 1_555
H9 C16 1_555 1_555
C17 N5 1_555 1_555
H10 C17 1_555 1_555
N6 C15 1_555 1_555
H11 N6 1_555 1_555
H12 N6 1_555 1_555
N7 Cu2 1_555 1_555
C18 N7 1_555 1_555
H13 C18 1_555 1_555
C19 C18 1_555 1_555
H14 C19 1_555 1_555
C20 C19 1_555 1_555
C21 C20 1_555 1_555
H15 C21 1_555 1_555
C22 N7 1_555 1_555
H16 C22 1_555 1_555
N8 C20 1_555 1_555
H17 N8 1_555 1_555
H18 N8 1_555 1_555
O10 H19 1_555 1_555
H20 O10 1_555 1_555
O11 H21 1_555 1_555
H22 O11 1_555 1_555
Cu2A O4 1_555 1_555
Cu2_2 N3 1_555 1_555
O4A Cu2 1_555 1_555
N3_2 Cu2 1_555 1_555
O6_2 Cu2 1_555 1_555
C3 C4 1_555 1_555
C5 O2 1_555 1_555
C9 C10 1_555 1_555
O6 Cu2_2 1_555 1_555
C12 O8 1_555 1_555
C16 C17 1_555 1_555
C21 C22 1_555 1_555
Cu2A O4A 1_555 1_555

#END
