
#######################################################################
#
#                 Cambridge Crystallographic Data Centre
#                                CCDC 
#
#######################################################################
#
# If this CIF has been generated from an entry in the Cambridge 
# Structural Database, then it will include bibliographic, chemical, 
# crystal, experimental, refinement or atomic coordinate data resulting 
# from the CCDC's data processing and validation procedures.
#
#######################################################################

data_VELFOI
_symmetry_cell_setting           monoclinic
_symmetry_space_group_name_H-M   'P 21/c'
_symmetry_Int_Tables_number      14
_space_group_name_Hall           '-P 2ybc'
loop_
_symmetry_equiv_pos_site_id
_symmetry_equiv_pos_as_xyz
1 x,y,z
2 -x,1/2+y,1/2-z
3 -x,-y,-z
4 x,1/2-y,1/2+z
_cell_length_a                   10.710(3)
_cell_length_b                   13.672(3)
_cell_length_c                   9.374(2)
_cell_angle_alpha                90
_cell_angle_beta                 93.18(2)
_cell_angle_gamma                90
_cell_volume                     1370.49
loop_
_atom_site_label
_atom_site_type_symbol
_atom_site_fract_x
_atom_site_fract_y
_atom_site_fract_z
Cu1 Cu 0.60732(4) 0.57924(2) 0.58396(4)
N1 N 0.4858(2) 0.6335(2) 0.7167(3)
C1 C 0.4837(3) 0.7321(2) 0.7153(3)
C2 C 0.4033(3) 0.7830(2) 0.7967(3)
N2 N 0.3257(3) 0.7367(2) 0.8828(3)
C3 C 0.3311(4) 0.6392(2) 0.8838(3)
H1 H 0.276(3) 0.611(2) 0.941(3)
C4 C 0.4098(3) 0.5874(2) 0.8013(3)
H2 H 0.419(3) 0.524(2) 0.802(3)
C5 C 0.5732(3) 0.7781(2) 0.6183(3)
O1 O 0.6375(2) 0.7170(2) 0.5483(2)
O2 O 0.5814(2) 0.8668(2) 0.6084(2)
C6 C 0.3840(3) 0.8921(2) 0.7944(3)
O3 O 0.4467(2) 0.9426(1) 0.8876(2)
O4 O 0.3009(2) 0.9245(2) 0.7113(2)
N3 N 0.7483(2) 0.5423(2) 0.4731(3)
C7 C 0.8079(4) 0.6040(3) 0.3936(4)
H3 H 0.784(3) 0.664(3) 0.384(4)
N4 N 0.8965(3) 0.5596(2) 0.3252(3)
H4 H 0.937(4) 0.589(3) 0.262(4)
C8 C 0.8951(4) 0.4642(3) 0.3626(4)
H5 H 0.958(4) 0.421(3) 0.341(4)
C9 C 0.8058(3) 0.4531(3) 0.4533(4)
H6 H 0.778(3) 0.402(3) 0.497(4)
Cu1C Cu 0.60732(4) 0.92076(2) 1.08396(4)
Cu1A Cu 0.39268(4) 1.07924(2) 0.91604(4)
O3C O 0.4467(2) 0.5574(1) 0.3876(2)
O3A O 0.5533(2) 0.4426(1) 0.6124(2)
O5 O 0.7617(3) 0.6167(2) 0.8763(3)
H7 H 0.7010 0.6231 0.9392
H8 H 0.7597 0.5475 0.8521
O6 O 0.9345(3) 0.3227(2) 0.8211(3)
H9 H 0.8729 0.3364 0.7991
H10 H 0.9454 0.3187 0.8950
O7 O 1.0028(3) 0.6867(2) 0.8983(3)
H11 H 0.9165 0.6751 0.8937
H12 H 1.0265 0.7263 0.8226
loop_
_geom_bond_atom_site_label_1
_geom_bond_atom_site_label_2
_geom_bond_site_symmetry_1
_geom_bond_site_symmetry_2
Cu1 N1 1_555 1_555
N1 C1 1_555 1_555
C1 C2 1_555 1_555
C2 N2 1_555 1_555
N2 C3 1_555 1_555
C3 H1 1_555 1_555
C4 N1 1_555 1_555
H2 C4 1_555 1_555
C5 C1 1_555 1_555
O1 Cu1 1_555 1_555
O2 C5 1_555 1_555
C6 C2 1_555 1_555
O3 C6 1_555 1_555
O4 C6 1_555 1_555
N3 Cu1 1_555 1_555
C7 N3 1_555 1_555
H3 C7 1_555 1_555
N4 C7 1_555 1_555
H4 N4 1_555 1_555
C8 N4 1_555 1_555
H5 C8 1_555 1_555
C9 N3 1_555 1_555
H6 C9 1_555 1_555
O5 H7 1_555 1_555
H8 O5 1_555 1_555
O6 H9 1_555 1_555
H10 O6 1_555 1_555
O7 H11 1_555 1_555
H12 O7 1_555 1_555
Cu1C O3 1_555 1_555
Cu1A O3 1_555 1_555
O3C Cu1 1_555 1_555
O3A Cu1 1_555 1_555
C3 C4 1_555 1_555
C5 O1 1_555 1_555
C8 C9 1_555 1_555

#END
