
#######################################################################
#
#                 Cambridge Crystallographic Data Centre
#                                CCDC 
#
#######################################################################
#
# If this CIF has been generated from an entry in the Cambridge 
# Structural Database, then it will include bibliographic, chemical, 
# crystal, experimental, refinement or atomic coordinate data resulting 
# from the CCDC's data processing and validation procedures.
#
#######################################################################

data_VELFUO
_symmetry_cell_setting           triclinic
_symmetry_space_group_name_H-M   'P -1'
_symmetry_Int_Tables_number      2
_space_group_name_Hall           '-P 1'
loop_
_symmetry_equiv_pos_site_id
_symmetry_equiv_pos_as_xyz
1 x,y,z
2 -x,-y,-z
_cell_length_a                   7.3114(6)
_cell_length_b                   8.0108(7)
_cell_length_c                   5.0255(4)
_cell_angle_alpha                98.994(6)
_cell_angle_beta                 102.404(7)
_cell_angle_gamma                127.770(6)
_cell_volume                     210.849
loop_
_atom_site_label
_atom_site_type_symbol
_atom_site_fract_x
_atom_site_fract_y
_atom_site_fract_z
Mn1 Mn 0.00000 0.00000 0.00000
O1 O -0.687(2) -0.3698(19) -0.703(2)
O2 O -0.304(2) -0.2182(16) -0.430(2)
C1 C -0.713(3) -0.140(3) -0.253(4)
C2 C -0.498(5) -0.247(4) -0.472(5)
N1 N -0.291(3) 0.023(2) 0.027(3)
C3 C -0.508(3) -0.123(3) -0.208(4)
O3 O 0.166(2) 0.2791(15) -0.147(3)
H1 H 0.247 0.416 -0.039
H2 H 0.230 0.276 -0.27
H3 H -0.865 -0.254 -0.415
Mn1_2 Mn -1.00000 0.00000 0.00000
O1A O -0.313(2) 0.3698(19) 0.703(2)
O2A O -0.696(2) 0.2182(16) 0.430(2)
O2A_2 O 0.304(2) 0.2182(16) 0.430(2)
C1A C -0.287(3) 0.140(3) 0.253(4)
C2A C -0.502(5) 0.247(4) 0.472(5)
N1A N -0.709(3) -0.023(2) -0.027(3)
N1A_2 N 0.291(3) -0.023(2) -0.027(3)
C3A C -0.492(3) 0.123(3) 0.208(4)
O3A O -0.166(2) -0.2791(15) 0.147(3)
H1A H -0.247 -0.416 0.039
H2A H -0.230 -0.276 0.27
H3A H -0.135 0.254 0.415
loop_
_geom_bond_atom_site_label_1
_geom_bond_atom_site_label_2
_geom_bond_site_symmetry_1
_geom_bond_site_symmetry_2
Mn1 O2 1_555 1_555
O1 C2 1_555 1_555
O2 C2 1_555 1_555
C1 C3 1_555 1_555
C2 C3 1_555 1_555
N1 Mn1 1_555 1_555
C3 N1 1_555 1_555
O3 Mn1 1_555 1_555
H1 O3 1_555 1_555
H2 O3 1_555 1_555
H3 C1 1_555 1_555
Mn1_2 O2A 1_555 1_555
O1A C2A 1_555 1_555
O2A C2A 1_555 1_555
O2A_2 Mn1 1_555 1_555
C1A N1 1_555 1_555
C2A C3A 1_555 1_555
N1A C1 1_555 1_555
N1A_2 Mn1 1_555 1_555
C3A C1A 1_555 1_555
O3A Mn1 1_555 1_555
H1A O3A 1_555 1_555
H2A O3A 1_555 1_555
H3A C1A 1_555 1_555
Mn1_2 N1A 1_555 1_555
N1A C3A 1_555 1_555

#END
