
#######################################################################
#
#                 Cambridge Crystallographic Data Centre
#                                CCDC 
#
#######################################################################
#
# If this CIF has been generated from an entry in the Cambridge 
# Structural Database, then it will include bibliographic, chemical, 
# crystal, experimental, refinement or atomic coordinate data resulting 
# from the CCDC's data processing and validation procedures.
#
#######################################################################

data_VELGAV
_symmetry_cell_setting           monoclinic
_symmetry_space_group_name_H-M   'P 21/n'
_symmetry_Int_Tables_number      14
_space_group_name_Hall           '-P 2yn'
loop_
_symmetry_equiv_pos_site_id
_symmetry_equiv_pos_as_xyz
1 x,y,z
2 1/2-x,1/2+y,1/2-z
3 -x,-y,-z
4 1/2+x,1/2-y,1/2+z
_cell_length_a                   11.7880(17)
_cell_length_b                   17.887(3)
_cell_length_c                   14.158(2)
_cell_angle_alpha                90
_cell_angle_beta                 93.988(2)
_cell_angle_gamma                90
_cell_volume                     2978.01
loop_
_atom_site_label
_atom_site_type_symbol
_atom_site_fract_x
_atom_site_fract_y
_atom_site_fract_z
Cu1 Cu 0.70017(4) 0.52138(3) 0.78378(3)
Cu2 Cu 0.38193(4) 0.54220(2) 0.51920(3)
V1 V 0.38272(5) 0.33606(3) 0.82621(4)
V2 V 0.29035(5) 0.70981(3) 0.76132(4)
P1 P 0.48389(8) 0.45024(5) 0.68795(6)
P2 P 0.48971(7) 0.61281(5) 0.70016(6)
O1 O 0.6050(2) 0.44305(13) 0.72716(18)
O2 O 0.4142(2) 0.38109(13) 0.71160(17)
O3 O 0.4754(2) 0.46180(13) 0.58144(16)
O4 O 0.4623(2) 0.61921(13) 0.59459(17)
O5 O 0.4411(2) 0.68147(13) 0.74989(18)
O6 O 0.61459(19) 0.60613(13) 0.72900(17)
O7 O 0.3771(3) 0.39872(16) 0.9077(2)
O8 O 0.4853(3) 0.28011(16) 0.8566(2)
O9 O 0.2480(2) 0.28963(15) 0.81125(19)
O10 O 0.2092(2) 0.64022(16) 0.7318(2)
O11 O 0.2789(2) 0.72947(17) 0.87203(19)
O12 O 0.6238(3) 0.5145(2) 0.9246(2)
N1 N 0.8303(2) 0.58847(19) 0.8218(2)
N2 N 0.8156(3) 0.44166(19) 0.8201(2)
N3 N 0.2599(3) 0.61460(16) 0.4747(2)
N4 N 0.2647(3) 0.46813(16) 0.4680(2)
C1 C 0.8349(4) 0.6623(2) 0.8192(3)
H1 H 0.7703 0.6887 0.7974
C2 C 0.9324(4) 0.7016(3) 0.8479(3)
H2 H 0.9328 0.7536 0.8460
C3 C 1.0280(4) 0.6632(3) 0.8791(3)
H3 H 1.0938 0.6891 0.8989
C4 C 1.0269(3) 0.5856(3) 0.8813(3)
C5 C 1.1227(4) 0.5386(4) 0.9103(3)
H4 H 1.1916 0.5609 0.9303
C6 C 1.1152(4) 0.4643(4) 0.9093(4)
H5 H 1.1788 0.4360 0.9285
C7 C 1.0121(4) 0.4272(3) 0.8795(3)
C8 C 0.9968(5) 0.3504(3) 0.8749(3)
H6 H 1.0574 0.3187 0.8919
C9 C 0.8939(5) 0.3212(3) 0.8458(3)
H7 H 0.8835 0.2696 0.8440
C10 C 0.8042(4) 0.3686(3) 0.8187(3)
H8 H 0.7341 0.3480 0.7990
C11 C 0.9175(3) 0.4706(3) 0.8514(3)
C12 C 0.9253(3) 0.5503(3) 0.8520(3)
C13 C 0.2588(3) 0.6879(2) 0.4836(3)
H9 H 0.3229 0.7117 0.5113
C14 C 0.1653(4) 0.7309(2) 0.4530(3)
H10 H 0.1676 0.7825 0.4603
C15 C 0.0698(4) 0.6972(2) 0.4122(3)
H11 H 0.0073 0.7257 0.3909
C16 C 0.0673(3) 0.6193(2) 0.4028(3)
C17 C -0.0280(3) 0.5770(3) 0.3643(3)
H12 H -0.0933 0.6020 0.3412
C18 C -0.0256(3) 0.5018(3) 0.3607(3)
H13 H -0.0891 0.4760 0.3353
C19 C 0.0730(3) 0.4609(2) 0.3953(3)
C20 C 0.0806(4) 0.3833(2) 0.3975(3)
H14 H 0.0198 0.3543 0.3736
C21 C 0.1777(4) 0.3500(2) 0.4350(3)
H15 H 0.1829 0.2981 0.4374
C22 C 0.2692(4) 0.3940(2) 0.4700(3)
H16 H 0.3349 0.3708 0.4954
C23 C 0.1679(3) 0.5012(2) 0.4316(2)
C24 C 0.1649(3) 0.5805(2) 0.4350(2)
C25 C 0.4210(3) 0.53020(18) 0.7408(2)
H17 H 0.4310 0.5269 0.8093
H18 H 0.3402 0.5321 0.7226
H19 H 0.611(4) 0.541(2) 0.964(3)
H20 H 0.618(5) 0.470(3) 0.944(4)
Cu2B Cu 0.61807(4) 0.45780(2) 0.48080(3)
V2A V 0.20965(5) 0.20981(3) 0.73868(4)
O3B O 0.5246(2) 0.53820(13) 0.41856(16)
O9A O 0.2520(2) 0.78963(15) 0.68875(19)
O13 O 0.3924(16) 0.6308(12) -0.0093(10)
O14? O 0.3615(12) 0.6318(10) 0.0208(9)
loop_
_geom_bond_atom_site_label_1
_geom_bond_atom_site_label_2
_geom_bond_site_symmetry_1
_geom_bond_site_symmetry_2
Cu1 O1 1_555 1_555
Cu2 O3 1_555 1_555
V1 O2 1_555 1_555
V2 O5 1_555 1_555
P1 O1 1_555 1_555
P2 O4 1_555 1_555
O2 P1 1_555 1_555
O3 P1 1_555 1_555
O4 Cu2 1_555 1_555
O5 P2 1_555 1_555
O6 Cu1 1_555 1_555
O7 V1 1_555 1_555
O8 V1 1_555 1_555
O9 V1 1_555 1_555
O10 V2 1_555 1_555
O11 V2 1_555 1_555
O12 Cu1 1_555 1_555
N1 Cu1 1_555 1_555
N2 Cu1 1_555 1_555
N3 Cu2 1_555 1_555
N4 Cu2 1_555 1_555
C1 N1 1_555 1_555
H1 C1 1_555 1_555
C2 C1 1_555 1_555
H2 C2 1_555 1_555
C3 C2 1_555 1_555
H3 C3 1_555 1_555
C4 C3 1_555 1_555
C5 C4 1_555 1_555
H4 C5 1_555 1_555
C6 C5 1_555 1_555
H5 C6 1_555 1_555
C7 C6 1_555 1_555
C8 C7 1_555 1_555
H6 C8 1_555 1_555
C9 C8 1_555 1_555
H7 C9 1_555 1_555
C10 N2 1_555 1_555
H8 C10 1_555 1_555
C11 N2 1_555 1_555
C12 N1 1_555 1_555
C13 N3 1_555 1_555
H9 C13 1_555 1_555
C14 C13 1_555 1_555
H10 C14 1_555 1_555
C15 C14 1_555 1_555
H11 C15 1_555 1_555
C16 C15 1_555 1_555
C17 C16 1_555 1_555
H12 C17 1_555 1_555
C18 C17 1_555 1_555
H13 C18 1_555 1_555
C19 C18 1_555 1_555
C20 C19 1_555 1_555
H14 C20 1_555 1_555
C21 C20 1_555 1_555
H15 C21 1_555 1_555
C22 N4 1_555 1_555
H16 C22 1_555 1_555
C23 N4 1_555 1_555
C24 N3 1_555 1_555
C25 P1 1_555 1_555
H17 C25 1_555 1_555
H18 C25 1_555 1_555
H19 O12 1_555 1_555
H20 O12 1_555 1_555
Cu2B O3 1_555 1_555
V2A O9 1_555 1_555
O3B Cu2 1_555 1_555
O9A V2 1_555 1_555
P2 O6 1_555 1_555
P2 C25 1_555 1_555
C4 C12 1_555 1_555
C7 C11 1_555 1_555
C9 C10 1_555 1_555
C11 C12 1_555 1_555
C16 C24 1_555 1_555
C19 C23 1_555 1_555
C21 C22 1_555 1_555
C23 C24 1_555 1_555
Cu2B O3B 1_555 1_555

#END
