
#######################################################################
#
#                 Cambridge Crystallographic Data Centre
#                                CCDC 
#
#######################################################################
#
# If this CIF has been generated from an entry in the Cambridge 
# Structural Database, then it will include bibliographic, chemical, 
# crystal, experimental, refinement or atomic coordinate data resulting 
# from the CCDC's data processing and validation procedures.
#
#######################################################################

data_VELJOM
_symmetry_cell_setting           monoclinic
_symmetry_space_group_name_H-M   'C c'
_symmetry_Int_Tables_number      9
_space_group_name_Hall           'C -2yc'
loop_
_symmetry_equiv_pos_site_id
_symmetry_equiv_pos_as_xyz
1 x,y,z
2 x,-y,1/2+z
3 1/2+x,1/2+y,z
4 1/2+x,1/2-y,1/2+z
_cell_length_a                   15.5029(3)
_cell_length_b                   9.7175(2)
_cell_length_c                   16.6259(4)
_cell_angle_alpha                90
_cell_angle_beta                 104.3267(8)
_cell_angle_gamma                90
_cell_volume                     2426.79
loop_
_atom_site_label
_atom_site_type_symbol
_atom_site_fract_x
_atom_site_fract_y
_atom_site_fract_z
Cr1 Cr 0.04872(4) 0.88105(6) 0.33783(3)
O1 O -0.2281(2) 0.7104(4) 0.5855(2)
N1 N -0.0982(4) 0.8990(5) 0.4449(3)
N2 N 0.1436(3) 1.1511(4) 0.4287(3)
N3 N -0.0732(3) 1.0513(5) 0.1860(3)
N4 N 0.1931(4) 0.8587(5) 0.2276(4)
N5 N -0.0025(2) 0.6890(3) 0.2969(2)
N6 N 0.1267(2) 0.7516(4) 0.4263(2)
N7 N -0.0562(3) 0.5502(4) 0.5251(3)
N8 N 0.0648(3) 0.6878(4) 0.6416(3)
C1 C -0.0469(4) 0.8962(4) 0.4057(3)
C2 C 0.1082(3) 1.0583(5) 0.3937(3)
C3 C -0.0316(3) 0.9909(5) 0.2408(3)
C4 C 0.1438(3) 0.8674(4) 0.2675(3)
C5 C -0.0768(3) 0.6675(5) 0.2370(3)
H1 H -0.1066 0.7427 0.2084
C6 C -0.1106(3) 0.5367(5) 0.2164(3)
H2 H -0.1625 0.5245 0.1748
C7 C -0.0670(3) 0.4270(5) 0.2576(3)
H3 H -0.0889 0.3386 0.2442
C8 C 0.0104(3) 0.4462(4) 0.3200(3)
H4 H 0.0408 0.3712 0.3483
C9 C 0.0419(3) 0.5800(4) 0.3396(3)
C10 C 0.1166(3) 0.6152(4) 0.4091(3)
C11 C 0.1735(3) 0.5183(5) 0.4565(3)
H5 H 0.1678 0.4255 0.4424
C12 C 0.2375(3) 0.5612(5) 0.5236(3)
H6 H 0.2755 0.4977 0.5563
C13 C 0.2455(3) 0.6980(6) 0.5425(3)
H7 H 0.2884 0.7284 0.5885
C14 C 0.1891(3) 0.7908(5) 0.4925(3)
H8 H 0.1950 0.8839 0.5056
C15 C -0.1165(4) 0.4877(7) 0.4661(4)
H9 H -0.1632 0.5402 0.4352
C16 C -0.1145(5) 0.3503(8) 0.4475(5)
H10 H -0.1582 0.3100 0.4055
C17 C -0.0436(5) 0.2740(7) 0.4948(6)
H11 H -0.0395 0.1803 0.4850
C18 C 0.0194(4) 0.3365(6) 0.5550(5)
H12 H 0.0669 0.2861 0.5864
C19 C 0.0124(3) 0.4770(5) 0.5694(3)
C20 C 0.0798(3) 0.5532(5) 0.6340(3)
C21 C 0.1531(4) 0.4874(6) 0.6833(4)
H13 H 0.1616 0.3937 0.6770
C22 C 0.2134(4) 0.5616(8) 0.7415(4)
H14 H 0.2631 0.5187 0.7750
C23 C 0.1994(4) 0.7005(8) 0.7500(4)
H15 H 0.2389 0.7537 0.7890
C24 C 0.1248(4) 0.7568(6) 0.6985(4)
H16 H 0.1152 0.8506 0.7037
Na1 Na -0.08530(11) 0.78069(18) 0.57451(11)
H17 H -0.247(4) 0.702(11) 0.635(2)
H18 H -0.280(3) 0.693(6) 0.542(2)
N3A N -0.0732(3) 0.9487(5) 0.6860(3)
Na1A Na -0.08530(11) 1.21931(18) 0.07451(11)
loop_
_geom_bond_atom_site_label_1
_geom_bond_atom_site_label_2
_geom_bond_site_symmetry_1
_geom_bond_site_symmetry_2
Cr1 N5 1_555 1_555
O1 Na1 1_555 1_555
N1 C1 1_555 1_555
N2 C2 1_555 1_555
N3 C3 1_555 1_555
N4 C4 1_555 1_555
N5 C5 1_555 1_555
N6 Cr1 1_555 1_555
N7 C15 1_555 1_555
N8 C20 1_555 1_555
C1 Cr1 1_555 1_555
C2 Cr1 1_555 1_555
C3 Cr1 1_555 1_555
C4 Cr1 1_555 1_555
C5 H1 1_555 1_555
C6 C5 1_555 1_555
H2 C6 1_555 1_555
C7 C6 1_555 1_555
H3 C7 1_555 1_555
C8 C7 1_555 1_555
H4 C8 1_555 1_555
C9 N5 1_555 1_555
C10 N6 1_555 1_555
C11 C10 1_555 1_555
H5 C11 1_555 1_555
C12 C11 1_555 1_555
H6 C12 1_555 1_555
C13 C12 1_555 1_555
H7 C13 1_555 1_555
C14 N6 1_555 1_555
H8 C14 1_555 1_555
C15 H9 1_555 1_555
C16 C15 1_555 1_555
H10 C16 1_555 1_555
C17 C16 1_555 1_555
H11 C17 1_555 1_555
C18 C17 1_555 1_555
H12 C18 1_555 1_555
C19 N7 1_555 1_555
C20 C19 1_555 1_555
C21 C20 1_555 1_555
H13 C21 1_555 1_555
C22 C21 1_555 1_555
H14 C22 1_555 1_555
C23 C22 1_555 1_555
H15 C23 1_555 1_555
C24 N8 1_555 1_555
H16 C24 1_555 1_555
Na1 N1 1_555 1_555
H17 O1 1_555 1_555
H18 O1 1_555 1_555
N3A Na1 1_555 1_555
Na1A N3 1_555 1_555
N7 Na1 1_555 1_555
N8 Na1 1_555 1_555
C8 C9 1_555 1_555
C9 C10 1_555 1_555
C13 C14 1_555 1_555
C18 C19 1_555 1_555
C23 C24 1_555 1_555

#END
