
#######################################################################
#
#                 Cambridge Crystallographic Data Centre
#                                CCDC 
#
#######################################################################
#
# If this CIF has been generated from an entry in the Cambridge 
# Structural Database, then it will include bibliographic, chemical, 
# crystal, experimental, refinement or atomic coordinate data resulting 
# from the CCDC's data processing and validation procedures.
#
#######################################################################

data_VELJAY
_symmetry_cell_setting           triclinic
_symmetry_space_group_name_H-M   'P -1'
_symmetry_Int_Tables_number      2
_space_group_name_Hall           '-P 1'
loop_
_symmetry_equiv_pos_site_id
_symmetry_equiv_pos_as_xyz
1 x,y,z
2 -x,-y,-z
_cell_length_a                   7.7927(2)
_cell_length_b                   11.9503(3)
_cell_length_c                   12.6843(4)
_cell_angle_alpha                70.7925(10)
_cell_angle_beta                 82.4865(10)
_cell_angle_gamma                78.227(2)
_cell_volume                     1089.42
loop_
_atom_site_label
_atom_site_type_symbol
_atom_site_fract_x
_atom_site_fract_y
_atom_site_fract_z
Mn1 Mn 0.31122(6) 0.73051(4) -0.00103(4)
Cr1 Cr -0.26225(6) 0.80832(5) 0.26158(4)
O1 O 0.3108(3) 0.5377(2) 0.0771(2)
O2 O 0.4625(3) 0.3566(2) 0.0806(2)
O3 O 0.1528(3) 0.7228(3) -0.1302(2)
N1 N 0.0745(4) 0.7576(3) 0.1044(3)
N2 N -0.0110(5) 0.8859(4) 0.3918(3)
N3 N 0.3173(4) 0.9154(3) -0.1087(3)
N4 N 0.4800(4) 0.7481(3) 0.1177(2)
N5 N -0.2340(4) 0.6347(3) 0.3709(2)
N6 N -0.4531(3) 0.8325(3) 0.3841(2)
C1 C -0.0495(4) 0.7725(3) 0.1587(3)
C2 C -0.0988(4) 0.8541(3) 0.3477(3)
C3 C 0.3024(4) 1.0134(3) -0.1631(3)
C4 C 0.5729(4) 0.7691(3) 0.1687(3)
C5 C -0.1298(5) 0.5357(3) 0.3609(4)
H2 H -0.0615 0.5392 0.2944
C6 C -0.1190(6) 0.4259(4) 0.4471(5)
H3 H -0.0454 0.3578 0.4373
C7 C -0.2177(7) 0.4195(5) 0.5459(5)
H4 H -0.2095 0.3473 0.6040
C8 C -0.3290(6) 0.5203(4) 0.5591(4)
C9 C -0.3346(5) 0.6268(4) 0.4688(3)
C10 C -0.4504(4) 0.7328(4) 0.4755(3)
C11 C -0.5572(6) 0.7326(5) 0.5739(3)
C12 C -0.6669(6) 0.8403(6) 0.5736(4)
H5 H -0.7388 0.8449 0.6372
C13 C -0.6699(5) 0.9391(5) 0.4809(4)
H6 H -0.7453 1.0104 0.4806
C14 C -0.5604(4) 0.9326(4) 0.3876(3)
H7 H -0.5621 1.0008 0.3252
C15 C -0.5403(8) 0.6187(7) 0.6640(4)
H8 H -0.6098 0.6152 0.7300
C16 C -0.4318(8) 0.5192(6) 0.6577(4)
H9 H -0.4246 0.4495 0.7187
C17 C 0.4334(4) 0.4686(3) 0.0459(3)
H13 H 0.066(4) 0.791(2) -0.153(4)
H14 H 0.110(4) 0.656(2) -0.117(3)
Mn1A Mn 0.68878(6) 0.26949(4) 0.00103(4)
Mn1A_2 Mn -0.31122(6) 1.26949(4) 0.00103(4)
Mn1_2 Mn -0.68878(6) 0.73051(4) -0.00103(4)
Cr1A Cr 0.26225(6) 1.19168(5) -0.26158(4)
Cr1_2 Cr 0.73775(6) 0.80832(5) 0.26158(4)
Cr1A_2 Cr 1.26225(6) 0.19168(5) -0.26158(4)
O1A O 0.6892(3) 0.4623(2) -0.0771(2)
O2A O 0.5375(3) 0.6434(2) -0.0806(2)
O3A O 0.8472(3) 0.2772(3) 0.1302(2)
N1A N 0.9255(4) 0.2424(3) -0.1044(3)
N2A N 0.0110(5) 1.1141(4) -0.3918(3)
N3A N -0.3173(4) 1.0846(3) 0.1087(3)
N3A_2 N 0.6827(4) 0.0846(3) 0.1087(3)
N4_2 N -0.5200(4) 0.7481(3) 0.1177(2)
N4A N 0.5200(4) 0.2519(3) -0.1177(2)
N5A N 0.2340(4) 1.3653(3) -0.3709(2)
N6A N 0.4531(3) 1.1675(3) -0.3841(2)
C1A C 1.0495(4) 0.2275(3) -0.1587(3)
C1A_2 C 0.0495(4) 1.2275(3) -0.1587(3)
C2A C 0.0988(4) 1.1459(3) -0.3477(3)
C3A C -0.3024(4) 0.9866(3) 0.1631(3)
C4_2 C -0.4271(4) 0.7691(3) 0.1687(3)
C4A C 0.4271(4) 1.2309(3) -0.1687(3)
C5A C 0.1298(5) 1.4643(3) -0.3609(4)
H2A H 0.0615 1.4608 -0.2944
C6A C 0.1190(6) 1.5741(4) -0.4471(5)
H3A H 0.0454 1.6422 -0.4373
C7A C 0.2177(7) 1.5805(5) -0.5459(5)
H4A H 0.2095 1.6527 -0.6040
C8A C 0.3290(6) 1.4797(4) -0.5591(4)
C9A C 0.3346(5) 1.3732(4) -0.4688(3)
C10A C 0.4504(4) 1.2672(4) -0.4755(3)
C11A C 0.5572(6) 1.2674(5) -0.5739(3)
C12A C 0.6669(6) 1.1597(6) -0.5736(4)
H5A H 0.7388 1.1551 -0.6372
C13A C 0.6699(5) 1.0609(5) -0.4809(4)
H6A H 0.7453 0.9896 -0.4806
C14A C 0.5604(4) 1.0674(4) -0.3876(3)
H7A H 0.5621 0.9992 -0.3252
C15A C 0.5403(8) 1.3813(7) -0.6640(4)
H8A H 0.6098 1.3848 -0.7300
C16A C 0.4318(8) 1.4808(6) -0.6577(4)
H9A H 0.4246 1.5505 -0.7187
C17A C 0.5666(4) 0.5314(3) -0.0459(3)
H13A H 0.934(4) 0.209(2) 0.153(4)
H14A H 0.890(4) 0.344(2) 0.117(3)
O4 O -0.1085(4) 0.9118(3) -0.2160(3)
H1 H -0.0868 0.9691 -0.2698
C18 C -0.1982(6) 0.9543(5) -0.1280(4)
H10 H -0.1152 0.9734 -0.0898
H11 H -0.2576 0.8931 -0.0763
H12 H -0.2825 1.0251 -0.1585
O5 O 0.7496(7) 0.7515(7) -0.2811(5)
H19 H 0.842(4) 0.682(2) -0.269(4)
H20 H 0.820(7) 0.815(4) -0.285(9)
C19 C 0.0444(10) 0.5030(8) -0.1007(7)
H15 H 0.1624 0.4746 -0.1249
H16 H -0.0183 0.4366 -0.0713
H17 H 0.0469 0.5389 -0.0436
O6 O -0.0319(14) 0.5804(11) -0.1830(8)
H18 H -0.0946 0.6342 -0.1622
loop_
_geom_bond_atom_site_label_1
_geom_bond_atom_site_label_2
_geom_bond_site_symmetry_1
_geom_bond_site_symmetry_2
Mn1 O1 1_555 1_555
Cr1 N5 1_555 1_555
O1 C17 1_555 1_555
O2 C17 1_555 1_555
O3 Mn1 1_555 1_555
O4 H1 1_555 1_555
O5 H19 1_555 1_555
N1 Mn1 1_555 1_555
N2 C2 1_555 1_555
N3 Mn1 1_555 1_555
N4 Mn1 1_555 1_555
N5 C5 1_555 1_555
N6 Cr1 1_555 1_555
C1 Cr1 1_555 1_555
C2 Cr1 1_555 1_555
C3 N3 1_555 1_555
C4 N4 1_555 1_555
C5 H2 1_555 1_555
C6 C5 1_555 1_555
H3 C6 1_555 1_555
C7 C6 1_555 1_555
H4 C7 1_555 1_555
C8 C7 1_555 1_555
C9 N5 1_555 1_555
C10 N6 1_555 1_555
C11 C10 1_555 1_555
C12 C11 1_555 1_555
H5 C12 1_555 1_555
C13 C12 1_555 1_555
H6 C13 1_555 1_555
C14 N6 1_555 1_555
H7 C14 1_555 1_555
C15 C11 1_555 1_555
H8 C15 1_555 1_555
C16 C8 1_555 1_555
H9 C16 1_555 1_555
C17 C17A 1_555 1_555
C18 O4 1_555 1_555
H10 C18 1_555 1_555
H11 C18 1_555 1_555
H12 C18 1_555 1_555
H13 O3 1_555 1_555
H14 O3 1_555 1_555
C19 H15 1_555 1_555
H16 C19 1_555 1_555
H17 C19 1_555 1_555
O6 C19 1_555 1_555
H18 O6 1_555 1_555
H20 O5 1_555 1_555
Mn1A O2 1_555 1_555
Mn1A_2 N3A 1_555 1_555
Mn1_2 N4_2 1_555 1_555
Cr1A C3 1_555 1_555
Cr1_2 C4 1_555 1_555
Cr1A_2 C1A 1_555 1_555
O1A Mn1A 1_555 1_555
O2A Mn1 1_555 1_555
O3A Mn1A 1_555 1_555
N1A Mn1A 1_555 1_555
N2A C2A 1_555 1_555
N3A C3A 1_555 1_555
N3A_2 Mn1A 1_555 1_555
N4_2 C4_2 1_555 1_555
N4A Mn1A 1_555 1_555
N5A Cr1A 1_555 1_555
N6A Cr1A 1_555 1_555
C1A N1A 1_555 1_555
C1A_2 Cr1A 1_555 1_555
C2A Cr1A 1_555 1_555
C3A Cr1 1_555 1_555
C4_2 Cr1 1_555 1_555
C4A Cr1A 1_555 1_555
C5A N5A 1_555 1_555
H2A C5A 1_555 1_555
C6A C5A 1_555 1_555
H3A C6A 1_555 1_555
C7A C6A 1_555 1_555
H4A C7A 1_555 1_555
C8A C7A 1_555 1_555
C9A N5A 1_555 1_555
C10A N6A 1_555 1_555
C11A C10A 1_555 1_555
C12A C11A 1_555 1_555
H5A C12A 1_555 1_555
C13A C12A 1_555 1_555
H6A C13A 1_555 1_555
C14A N6A 1_555 1_555
H7A C14A 1_555 1_555
C15A C11A 1_555 1_555
H8A C15A 1_555 1_555
C16A C8A 1_555 1_555
H9A C16A 1_555 1_555
C17A O1A 1_555 1_555
H13A O3A 1_555 1_555
H14A O3A 1_555 1_555
N1 C1 1_555 1_555
C8 C9 1_555 1_555
C9 C10 1_555 1_555
C13 C14 1_555 1_555
C15 C16 1_555 1_555
O2A C17A 1_555 1_555
C8A C9A 1_555 1_555
C9A C10A 1_555 1_555
C13A C14A 1_555 1_555
C15A C16A 1_555 1_555

#END
