
#######################################################################
#
#                 Cambridge Crystallographic Data Centre
#                                CCDC 
#
#######################################################################
#
# If this CIF has been generated from an entry in the Cambridge 
# Structural Database, then it will include bibliographic, chemical, 
# crystal, experimental, refinement or atomic coordinate data resulting 
# from the CCDC's data processing and validation procedures.
#
#######################################################################

data_VELJEC
_symmetry_cell_setting           triclinic
_symmetry_space_group_name_H-M   'P -1'
_symmetry_Int_Tables_number      2
_space_group_name_Hall           '-P 1'
loop_
_symmetry_equiv_pos_site_id
_symmetry_equiv_pos_as_xyz
1 x,y,z
2 -x,-y,-z
_cell_length_a                   7.9061(2)
_cell_length_b                   11.9199(3)
_cell_length_c                   12.5702(4)
_cell_angle_alpha                66.3780(14)
_cell_angle_beta                 80.6314(12)
_cell_angle_gamma                80.0802(14)
_cell_volume                     1063.34
loop_
_atom_site_label
_atom_site_type_symbol
_atom_site_fract_x
_atom_site_fract_y
_atom_site_fract_z
Mn1 Mn 0.18746(5) 0.77925(3) 0.98320(3)
Cr1 Cr 0.77247(5) 0.69706(4) 0.72100(3)
O1 O -0.0258(3) 0.84687(17) 1.08697(18)
O2 O -0.1602(3) 1.01864(17) 1.10698(17)
O3 O 0.3587(4) 0.7972(3) 1.0975(3)
N1 N 0.4272(3) 0.7540(2) 0.8733(2)
N2 N 0.1849(3) 0.5858(2) 1.1025(2)
N3 N 0.0188(3) 0.7603(2) 0.8664(2)
N4 N 0.5174(4) 0.6072(3) 0.6078(3)
N5 N 0.9649(3) 0.6779(2) 0.5943(2)
N6 N 0.7580(3) 0.8734(2) 0.5957(2)
C1 C 0.5541(4) 0.7343(2) 0.8232(2)
C2 C 0.1965(3) 0.4843(3) 1.1646(2)
C3 C -0.0673(4) 0.7399(3) 0.8131(2)
C4 C 0.6078(4) 0.6432(3) 0.6450(3)
C5 C 1.0721(4) 0.5753(3) 0.6021(3)
H2 H 1.0742 0.5092 0.6738
C6 C 1.1791(4) 0.5642(4) 0.5081(4)
H3 H 1.2544 0.4927 0.5169
C7 C 1.1733(5) 0.6576(5) 0.4039(4)
H4 H 1.2419 0.6507 0.3387
C8 C 1.0638(5) 0.7648(4) 0.3940(3)
H5 H 1.0589 0.8303 0.3220
C9 C 0.9636(4) 0.7743(3) 0.4896(3)
C10 C 0.8521(4) 0.8862(3) 0.4910(2)
C11 C 0.8450(5) 0.9994(3) 0.3983(3)
H6 H 0.9083 1.0072 0.3271
C12 C 0.7454(5) 1.0995(4) 0.4112(3)
H7 H 0.7391 1.1753 0.3486
C13 C 0.6540(5) 1.0875(3) 0.5178(3)
H8 H 0.5886 1.1554 0.5290
C14 C 0.6618(4) 0.9728(3) 0.6075(3)
H9 H 0.5980 0.9641 0.6788
C15 C -0.0541(4) 0.9605(3) 1.0563(2)
H17 H 0.455(4) 0.744(3) 1.127(3)
H18 H 0.366(5) 0.874(2) 1.102(4)
Mn1A Mn -0.18746(5) 1.22075(3) 1.01680(3)
Mn1A_2 Mn 0.81254(5) 0.22075(3) 1.01680(3)
Mn1_2 Mn 1.18746(5) 0.77925(3) 0.98320(3)
Cr1A Cr 0.22753(5) 0.30294(4) 1.27900(3)
Cr1_2 Cr -0.22753(5) 0.69706(4) 0.72100(3)
Cr1A_2 Cr -0.77247(5) 1.30294(4) 1.27900(3)
O1A O 0.0258(3) 1.15313(17) 0.91303(18)
O2A O 0.1602(3) 0.98136(17) 0.89302(17)
O3A O -0.3587(4) 1.2028(3) 0.9025(3)
N1A N -0.4272(3) 1.2460(2) 1.1267(2)
N2A N 0.8151(3) 0.4142(2) 0.8975(2)
N2A_2 N -0.1849(3) 1.4142(2) 0.8975(2)
N3_2 N 1.0188(3) 0.7603(2) 0.8664(2)
N3A N -0.0188(3) 1.2397(2) 1.1336(2)
N4A N 0.4826(4) 0.3928(3) 1.3922(3)
N5A N 0.0351(3) 0.3221(2) 1.4057(2)
N6A N 0.2420(3) 0.1266(2) 1.4043(2)
C1A C -0.5541(4) 1.2657(2) 1.1768(2)
C1A_2 C 0.4459(4) 0.2657(2) 1.1768(2)
C2A C 0.8035(3) 0.5157(3) 0.8354(2)
C3_2 C 0.9327(4) 0.7399(3) 0.8131(2)
C3A C 0.0673(4) 0.2601(3) 1.1869(2)
C4A C 0.3922(4) 0.3568(3) 1.3550(3)
C5A C -0.0721(4) 0.4247(3) 1.3979(3)
H2A H -0.0742 0.4908 1.3262
C6A C -0.1791(4) 0.4358(4) 1.4919(4)
H3A H -0.2544 0.5073 1.4831
C7A C -0.1733(5) 0.3424(5) 1.5961(4)
H4A H -0.2419 0.3493 1.6613
C8A C -0.0638(5) 0.2352(4) 1.6060(3)
H5A H -0.0589 0.1697 1.6780
C9A C 0.0364(4) 0.2257(3) 1.5104(3)
C10A C 0.1479(4) 0.1138(3) 1.5090(2)
C11A C 0.1550(5) 0.0006(3) 1.6017(3)
H6A H 0.0917 -0.0072 1.6729
C12A C 0.2546(5) -0.0995(4) 1.5888(3)
H7A H 0.2609 -0.1753 1.6514
C13A C 0.3460(5) -0.0875(3) 1.4822(3)
H8A H 0.4114 -0.1554 1.4710
C14A C 0.3382(4) 0.0272(3) 1.3925(3)
H9A H 0.4020 0.0359 1.3212
C15A C 0.0541(4) 1.0395(3) 0.9437(2)
H17A H -0.455(4) 1.256(3) 0.873(3)
H18A H -0.366(5) 1.126(2) 0.898(4)
O4 O 1.6482(10) 0.8221(11) 0.2778(5)
H14 H 1.567(3) 0.8848(17) 0.236(2)
H15 H 1.593(7) 0.748(3) 0.315(7)
O5 O 0.6114(5) 0.6108(4) 1.2061(3)
H1 H 0.5790 0.5521 1.2634
C16 C 0.7042(6) 0.5677(6) 1.1189(4)
H10 H 0.7685 0.6310 1.0620
H11 H 0.6240 0.5477 1.0813
H12 H 0.7820 0.4955 1.1552
O6 O 0.367(2) 1.0058(10) 1.1287(8)
H13 H 0.2687(19) 0.977(2) 1.1721(19)
H16 H 0.469(2) 0.953(3) 1.172(3)
loop_
_geom_bond_atom_site_label_1
_geom_bond_atom_site_label_2
_geom_bond_site_symmetry_1
_geom_bond_site_symmetry_2
Mn1 O1 1_555 1_555
Cr1 N5 1_555 1_555
O1 C15 1_555 1_555
O2 C15 1_555 1_555
O3 Mn1 1_555 1_555
O4 H14 1_555 1_555
O5 H1 1_555 1_555
O6 H13 1_555 1_555
N1 Mn1 1_555 1_555
N2 Mn1 1_555 1_555
N3 Mn1 1_555 1_555
N4 C4 1_555 1_555
N5 C5 1_555 1_555
N6 Cr1 1_555 1_555
C1 Cr1 1_555 1_555
C2 N2 1_555 1_555
C3 N3 1_555 1_555
C4 Cr1 1_555 1_555
C5 H2 1_555 1_555
C6 C5 1_555 1_555
H3 C6 1_555 1_555
C7 C6 1_555 1_555
H4 C7 1_555 1_555
C8 C7 1_555 1_555
H5 C8 1_555 1_555
C9 N5 1_555 1_555
C10 N6 1_555 1_555
C11 C10 1_555 1_555
H6 C11 1_555 1_555
C12 C11 1_555 1_555
H7 C12 1_555 1_555
C13 C12 1_555 1_555
H8 C13 1_555 1_555
C14 N6 1_555 1_555
H9 C14 1_555 1_555
C15 C15A 1_555 1_555
C16 O5 1_555 1_555
H10 C16 1_555 1_555
H11 C16 1_555 1_555
H12 C16 1_555 1_555
H15 O4 1_555 1_555
H16 O6 1_555 1_555
H17 O3 1_555 1_555
H18 O3 1_555 1_555
Mn1A O2 1_555 1_555
Mn1A_2 N2A 1_555 1_555
Mn1_2 N3_2 1_555 1_555
Cr1A C2 1_555 1_555
Cr1_2 C3 1_555 1_555
Cr1A_2 C1A 1_555 1_555
O1A Mn1A 1_555 1_555
O2A Mn1 1_555 1_555
O3A Mn1A 1_555 1_555
N1A Mn1A 1_555 1_555
N2A C2A 1_555 1_555
N2A_2 Mn1A 1_555 1_555
N3_2 C3_2 1_555 1_555
N3A Mn1A 1_555 1_555
N4A C4A 1_555 1_555
N5A Cr1A 1_555 1_555
N6A Cr1A 1_555 1_555
C1A N1A 1_555 1_555
C1A_2 Cr1A 1_555 1_555
C2A Cr1 1_555 1_555
C3_2 Cr1 1_555 1_555
C3A Cr1A 1_555 1_555
C4A Cr1A 1_555 1_555
C5A N5A 1_555 1_555
H2A C5A 1_555 1_555
C6A C5A 1_555 1_555
H3A C6A 1_555 1_555
C7A C6A 1_555 1_555
H4A C7A 1_555 1_555
C8A C7A 1_555 1_555
H5A C8A 1_555 1_555
C9A N5A 1_555 1_555
C10A N6A 1_555 1_555
C11A C10A 1_555 1_555
H6A C11A 1_555 1_555
C12A C11A 1_555 1_555
H7A C12A 1_555 1_555
C13A C12A 1_555 1_555
H8A C13A 1_555 1_555
C14A N6A 1_555 1_555
H9A C14A 1_555 1_555
C15A O1A 1_555 1_555
H17A O3A 1_555 1_555
H18A O3A 1_555 1_555
N1 C1 1_555 1_555
C8 C9 1_555 1_555
C9 C10 1_555 1_555
C13 C14 1_555 1_555
O2A C15A 1_555 1_555
C8A C9A 1_555 1_555
C9A C10A 1_555 1_555
C13A C14A 1_555 1_555

#END
