
#######################################################################
#
#                 Cambridge Crystallographic Data Centre
#                                CCDC 
#
#######################################################################
#
# If this CIF has been generated from an entry in the Cambridge 
# Structural Database, then it will include bibliographic, chemical, 
# crystal, experimental, refinement or atomic coordinate data resulting 
# from the CCDC's data processing and validation procedures.
#
#######################################################################

data_VELLUU
_symmetry_cell_setting           triclinic
_symmetry_space_group_name_H-M   'P -1'
_symmetry_Int_Tables_number      2
_space_group_name_Hall           '-P 1'
loop_
_symmetry_equiv_pos_site_id
_symmetry_equiv_pos_as_xyz
1 x,y,z
2 -x,-y,-z
_cell_length_a                   8.2017(4)
_cell_length_b                   10.0447(3)
_cell_length_c                   11.0222(5)
_cell_angle_alpha                87.892(3)
_cell_angle_beta                 89.505(2)
_cell_angle_gamma                73.464(3)
_cell_volume                     869.902
loop_
_atom_site_label
_atom_site_type_symbol
_atom_site_fract_x
_atom_site_fract_y
_atom_site_fract_z
Nd1 Nd 0.39086(3) 0.33312(3) 0.54647(3)
O1 O 0.6334(5) 0.1586(3) 0.4271(3)
H1 H 0.609(6) 0.086(3) 0.445(4)
H2 H 0.730(5) 0.318(4) 0.637(5)
H3 H 0.721(5) 0.190(2) 0.675(5)
O2 O 0.3158(5) 0.2488(4) 0.3549(4)
O3 O 0.3757(6) 0.2243(5) 0.1602(4)
O4 O 0.5334(4) 0.4418(3) 0.3896(3)
O5 O 0.7276(5) 0.5007(3) 0.2791(4)
O6 O 0.5883(5) -0.0848(3) 0.4046(4)
O7 O 0.6572(5) -0.2009(3) 0.2389(3)
O8 O 0.0905(4) 0.3351(3) 0.5691(3)
O9 O -0.1821(4) 0.4568(3) 0.5463(4)
O10 O 0.6641(5) 0.2722(4) 0.6632(4)
C1 C 0.6111(7) 0.1685(5) 0.2990(5)
C2 C 0.4193(7) 0.2173(5) 0.2686(5)
C3 C 0.6988(7) 0.2752(5) 0.2500(5)
H10 H 0.8207 0.2352 0.2590
H11 H 0.6748 0.2907 0.1638
C4 C 0.6496(7) 0.4141(5) 0.3087(5)
C5 C 0.6940(7) 0.0280(5) 0.2420(5)
H12 H 0.6664 0.0365 0.1562
H13 H 0.8165 0.0079 0.2492
C6 C 0.6420(7) -0.0929(5) 0.2966(5)
C7 C -0.0251(7) 0.4399(5) 0.5335(5)
Nd1A Nd 0.60914(3) 0.66688(3) 0.45353(3)
Nd1A_2 Nd 0.60914(3) -0.33312(3) 0.45353(3)
Nd1A_3 Nd -0.39086(3) 0.66688(3) 0.45353(3)
Nd1_2 Nd 0.39086(3) 1.33312(3) 0.54647(3)
O1A O 0.3666(5) 0.8414(3) 0.5729(3)
H1A H 0.391(6) 0.914(3) 0.555(4)
H2A H 0.270(5) 0.682(4) 0.363(5)
H3A H 0.279(5) 0.810(2) 0.325(5)
O2A O 0.6842(5) 0.7512(4) 0.6451(4)
O3A O 0.6243(6) 0.7757(5) 0.8398(4)
O4A O 0.4666(4) 0.5582(3) 0.6104(3)
O5A O 0.2724(5) 0.4993(3) 0.7209(4)
O6A O 0.4117(5) 1.0848(3) 0.5954(4)
O6A_2 O 0.4117(5) 0.0848(3) 0.5954(4)
O6_2 O 0.5883(5) 0.9152(3) 0.4046(4)
O7A O 0.3428(5) 1.2009(3) 0.7611(3)
O7A_2 O 0.3428(5) 0.2009(3) 0.7611(3)
O7_2 O 0.6572(5) 0.7991(3) 0.2389(3)
O8A O -0.0905(4) 0.6649(3) 0.4309(3)
O8A_2 O 0.9095(4) 0.6649(3) 0.4309(3)
O9A O 0.1821(4) 0.5432(3) 0.4537(4)
O9_2 O 0.8179(4) 0.4568(3) 0.5463(4)
O10A O 0.3359(5) 0.7278(4) 0.3368(4)
C1A C 0.3889(7) 0.8315(5) 0.7010(5)
C2A C 0.5807(7) 0.7827(5) 0.7314(5)
C3A C 0.3012(7) 0.7248(5) 0.7500(5)
H10A H 0.1793 0.7648 0.7410
H11A H 0.3252 0.7093 0.8362
C4A C 0.3504(7) 0.5859(5) 0.6913(5)
C5A C 0.3060(7) 0.9720(5) 0.7580(5)
H12A H 0.3336 0.9635 0.8438
H13A H 0.1835 0.9921 0.7508
C6A C 0.3580(7) 1.0929(5) 0.7034(5)
C7A C 0.0251(7) 0.5601(5) 0.4665(5)
O11 O 0.5457(8) 0.2426(7) -0.0481(5)
O12 O 0.1243(11) -0.0616(8) 0.0915(8)
O13 O 0.127(4) 0.042(4) 0.345(2)
O15 O -0.010(2) 0.0992(17) 0.5153(18)
N1 N 0.0516(7) 0.4560(6) 0.1574(5)
H4 H -0.0515 0.4677 0.1813
H5 H 0.1189 0.3734 0.1514
N2 N 0.2635(7) 0.5457(6) 0.0876(5)
H6 H 0.3291 0.4631 0.0782
H7 H 0.2995 0.6165 0.0696
N3 N 0.0046(8) 0.6918(6) 0.1386(6)
H8 H -0.0987 0.7048 0.1624
H9 H 0.0419 0.7619 0.1204
C8 C 0.1062(9) 0.5641(8) 0.1300(6)
O14? O 0.152(4) 0.024(4) 0.296(2)
loop_
_geom_bond_atom_site_label_1
_geom_bond_atom_site_label_2
_geom_bond_site_symmetry_1
_geom_bond_site_symmetry_2
Nd1 O1 1_555 1_555
O1 H1 1_555 1_555
H2 O10 1_555 1_555
H3 O10 1_555 1_555
O2 Nd1 1_555 1_555
O3 C2 1_555 1_555
O4 Nd1 1_555 1_555
O5 C4 1_555 1_555
O6 C6 1_555 1_555
O7 C6 1_555 1_555
O8 Nd1 1_555 1_555
O9 C7 1_555 1_555
O10 Nd1 1_555 1_555
N1 H4 1_555 1_555
H5 N1 1_555 1_555
N2 H6 1_555 1_555
H7 N2 1_555 1_555
N3 H8 1_555 1_555
H9 N3 1_555 1_555
C1 O1 1_555 1_555
C2 O2 1_555 1_555
C3 C1 1_555 1_555
H10 C3 1_555 1_555
H11 C3 1_555 1_555
C4 O4 1_555 1_555
C5 C1 1_555 1_555
H12 C5 1_555 1_555
H13 C5 1_555 1_555
C6 C5 1_555 1_555
C7 O8 1_555 1_555
C8 N1 1_555 1_555
Nd1A O4 1_555 1_555
Nd1A_2 O6 1_555 1_555
Nd1A_3 O9 1_555 1_555
Nd1_2 O6A 1_555 1_555
O1A Nd1A 1_555 1_555
H1A O1A 1_555 1_555
H2A O10A 1_555 1_555
H3A O10A 1_555 1_555
O2A Nd1A 1_555 1_555
O3A C2A 1_555 1_555
O4A Nd1 1_555 1_555
O5A Nd1 1_555 1_555
O6A C6A 1_555 1_555
O6A_2 Nd1 1_555 1_555
O6_2 Nd1A 1_555 1_555
O7A Nd1_2 1_555 1_555
O7A_2 Nd1 1_555 1_555
O7_2 Nd1A 1_555 1_555
O8A Nd1A_3 1_555 1_555
O8A_2 Nd1A 1_555 1_555
O9A Nd1 1_555 1_555
O9_2 Nd1A 1_555 1_555
O10A Nd1A 1_555 1_555
C1A O1A 1_555 1_555
C2A O2A 1_555 1_555
C3A C1A 1_555 1_555
H10A C3A 1_555 1_555
H11A C3A 1_555 1_555
C4A O4A 1_555 1_555
C5A C1A 1_555 1_555
H12A C5A 1_555 1_555
H13A C5A 1_555 1_555
C6A O7A 1_555 1_555
C7A C7 1_555 1_555
O5 Nd1A 1_555 1_555
O7 Nd1A_2 1_555 1_555
N2 C8 1_555 1_555
N3 C8 1_555 1_555
C1 C2 1_555 1_555
C3 C4 1_555 1_555
Nd1A O4A 1_555 1_555
O5A C4A 1_555 1_555
O8A C7A 1_555 1_555
O9A C7A 1_555 1_555
C1A C2A 1_555 1_555
C3A C4A 1_555 1_555
C5A C6A 1_555 1_555

#END
