
#######################################################################
#
#                 Cambridge Crystallographic Data Centre
#                                CCDC 
#
#######################################################################
#
# If this CIF has been generated from an entry in the Cambridge 
# Structural Database, then it will include bibliographic, chemical, 
# crystal, experimental, refinement or atomic coordinate data resulting 
# from the CCDC's data processing and validation procedures.
#
#######################################################################

data_VELMAB
_symmetry_cell_setting           triclinic
_symmetry_space_group_name_H-M   'P -1'
_symmetry_Int_Tables_number      2
_space_group_name_Hall           '-P 1'
loop_
_symmetry_equiv_pos_site_id
_symmetry_equiv_pos_as_xyz
1 x,y,z
2 -x,-y,-z
_cell_length_a                   6.8545(14)
_cell_length_b                   8.2037(16)
_cell_length_c                   14.324(3)
_cell_angle_alpha                105.15(3)
_cell_angle_beta                 98.85(3)
_cell_angle_gamma                94.75(3)
_cell_volume                     761.804
loop_
_atom_site_label
_atom_site_type_symbol
_atom_site_fract_x
_atom_site_fract_y
_atom_site_fract_z
C1 C 0.5215(4) 0.1974(3) 0.45163(18)
C2 C 0.5227(4) 0.0834(3) 0.5167(2)
H1 H 0.5572 0.1319 0.5843
C3 C 0.8855(4) 0.7796(3) 0.40894(19)
C4 C 1.0009(4) 0.9534(3) 0.45482(19)
H2 H 1.0785 0.9984 0.4174
C5 C 0.9314(4) 0.2689(3) 0.3154(2)
H3 H 0.9972 0.2846 0.3796
C6 C 1.0068(4) 0.1686(4) 0.2380(2)
H4 H 1.1205 0.1177 0.2508
C7 C 0.9126(4) 0.1452(4) 0.1432(2)
H5 H 0.9616 0.0783 0.0911
C8 C 0.7407(4) 0.2234(3) 0.12526(18)
C9 C 0.6736(4) 0.3193(3) 0.20734(17)
C10 C 0.4922(3) 0.3980(3) 0.19465(17)
C11 C 0.3856(4) 0.3802(3) 0.10069(18)
C12 C 0.2121(4) 0.4586(4) 0.0927(2)
H6 H 0.1380 0.4501 0.0311
C13 C 0.1521(4) 0.5479(4) 0.1764(2)
H7 H 0.0376 0.6010 0.1723
C14 C 0.2655(4) 0.5577(3) 0.26741(19)
H8 H 0.2231 0.6169 0.3239
C15 C 0.6313(4) 0.2064(3) 0.02759(18)
C16 C 0.4575(4) 0.2833(3) 0.01517(18)
C17 C 0.4205(5) 0.1800(4) -0.1502(2)
H9 H 0.3525 0.1668 -0.2136
C18 C 0.5931(5) 0.1021(4) -0.1377(2)
H10 H 0.6336 0.0389 -0.1938
N1 N 0.4319(3) 0.4861(2) 0.27739(14)
N2 N 0.7686(3) 0.3429(2) 0.30046(15)
N3 N 0.3515(4) 0.2704(3) -0.07611(17)
N4 N 0.7006(4) 0.1125(3) -0.05255(17)
O1 O 0.5927(3) 0.3551(2) 0.49522(12)
O2 O 0.4590(3) 0.1413(2) 0.36308(14)
O3 O 0.8164(3) 0.7028(2) 0.46611(13)
O4 O 0.8614(3) 0.7240(2) 0.31916(14)
Cu1 Cu 0.62610(4) 0.49731(4) 0.40534(2)
C1A C 0.4785(4) -0.1974(3) 0.54837(18)
C2A C 0.4773(4) -0.0834(3) 0.4833(2)
H1A H 0.4428 -0.1319 0.4157
C3A C 1.1145(4) 1.2204(3) 0.59106(19)
C4A C 0.9991(4) 1.0466(3) 0.54518(19)
H2A H 0.9215 1.0016 0.5826
C5A C 0.0686(4) -0.2689(3) 0.6846(2)
H3A H 0.0028 -0.2846 0.6204
C6A C -0.0068(4) -0.1686(4) 0.7620(2)
H4A H -0.1205 -0.1177 0.7492
C7A C 0.0874(4) -0.1452(4) 0.8568(2)
H5A H 0.0384 -0.0783 0.9089
C8A C 0.2593(4) -0.2234(3) 0.87474(18)
C9A C 0.3264(4) -0.3193(3) 0.79266(17)
C10A C 0.5078(3) -0.3980(3) 0.80535(17)
C11A C 0.6144(4) -0.3802(3) 0.89931(18)
C12A C 0.7879(4) -0.4586(4) 0.9073(2)
H6A H 0.8620 -0.4501 0.9689
C13A C 0.8479(4) -0.5479(4) 0.8236(2)
H7A H 0.9624 -0.6010 0.8277
C14A C 0.7345(4) -0.5577(3) 0.73259(19)
H8A H 0.7769 -0.6169 0.6761
C15A C 0.3687(4) -0.2064(3) 0.97241(18)
C16A C 0.5425(4) -0.2833(3) 0.98483(18)
C17A C 0.5795(5) -0.1800(4) 1.1502(2)
H9A H 0.6475 -0.1668 1.2136
C18A C 0.4069(5) -0.1021(4) 1.1377(2)
H10A H 0.3664 -0.0389 1.1938
N1A N 0.5681(3) -0.4861(2) 0.72261(14)
N2A N 0.2314(3) -0.3429(2) 0.69954(15)
N3A N 0.6485(4) -0.2704(3) 1.07611(17)
N4A N 0.2994(4) -0.1125(3) 1.05255(17)
O1A O 0.4073(3) -0.3551(2) 0.50478(12)
O1A_2 O 0.4073(3) 0.6449(2) 0.50478(12)
O1_2 O 0.5927(3) -0.6449(2) 0.49522(12)
O2A O 0.5410(3) -0.1413(2) 0.63692(14)
O3A O 1.1836(3) 1.2972(2) 0.53389(13)
O3A_2 O 0.1836(3) -0.7028(2) 0.53389(13)
O4A O 1.1386(3) 1.2760(2) 0.68084(14)
Cu1A Cu 0.37390(4) -0.49731(4) 0.59466(2)
Cu1A_2 Cu 0.37390(4) 0.50269(4) 0.59466(2)
Cu1_2 Cu 0.62610(4) -0.50269(4) 0.40534(2)
Cu1A_3 Cu 1.37390(4) 1.50269(4) 0.59466(2)
loop_
_geom_bond_atom_site_label_1
_geom_bond_atom_site_label_2
_geom_bond_site_symmetry_1
_geom_bond_site_symmetry_2
C1 C2 1_555 1_555
C2 H1 1_555 1_555
C3 C4 1_555 1_555
C4 H2 1_555 1_555
C5 H3 1_555 1_555
C6 C5 1_555 1_555
H4 C6 1_555 1_555
C7 C6 1_555 1_555
H5 C7 1_555 1_555
C8 C7 1_555 1_555
C9 C8 1_555 1_555
C10 C9 1_555 1_555
C11 C10 1_555 1_555
C12 C11 1_555 1_555
H6 C12 1_555 1_555
C13 C12 1_555 1_555
H7 C13 1_555 1_555
C14 C13 1_555 1_555
H8 C14 1_555 1_555
C15 C8 1_555 1_555
C16 C11 1_555 1_555
C17 H9 1_555 1_555
C18 C17 1_555 1_555
H10 C18 1_555 1_555
N1 C10 1_555 1_555
N2 C5 1_555 1_555
N3 C16 1_555 1_555
N4 C15 1_555 1_555
O1 C1 1_555 1_555
O2 C1 1_555 1_555
O3 C3 1_555 1_555
O4 C3 1_555 1_555
Cu1 N1 1_555 1_555
C1A C2A 1_555 1_555
C2A C2 1_555 1_555
H1A C2A 1_555 1_555
C3A C4A 1_555 1_555
C4A C4 1_555 1_555
H2A C4A 1_555 1_555
C5A H3A 1_555 1_555
C6A C5A 1_555 1_555
H4A C6A 1_555 1_555
C7A C6A 1_555 1_555
H5A C7A 1_555 1_555
C8A C7A 1_555 1_555
C9A C8A 1_555 1_555
C10A C9A 1_555 1_555
C11A C10A 1_555 1_555
C12A C11A 1_555 1_555
H6A C12A 1_555 1_555
C13A C12A 1_555 1_555
H7A C13A 1_555 1_555
C14A C13A 1_555 1_555
H8A C14A 1_555 1_555
C15A C8A 1_555 1_555
C16A C11A 1_555 1_555
C17A H9A 1_555 1_555
C18A C17A 1_555 1_555
H10A C18A 1_555 1_555
N1A C10A 1_555 1_555
N2A C5A 1_555 1_555
N3A C16A 1_555 1_555
N4A C15A 1_555 1_555
O1A C1A 1_555 1_555
O1A_2 Cu1 1_555 1_555
O1_2 Cu1A 1_555 1_555
O2A C1A 1_555 1_555
O3A C3A 1_555 1_555
O3A_2 Cu1A 1_555 1_555
O4A C3A 1_555 1_555
Cu1A N1A 1_555 1_555
Cu1A_2 O1 1_555 1_555
Cu1_2 O1A 1_555 1_555
Cu1A_3 O3A 1_555 1_555
C9 N2 1_555 1_555
C14 N1 1_555 1_555
C15 C16 1_555 1_555
C17 N3 1_555 1_555
C18 N4 1_555 1_555
N2 Cu1 1_555 1_555
O1 Cu1 1_555 1_555
O3 Cu1 1_555 1_555
C9A N2A 1_555 1_555
C14A N1A 1_555 1_555
C15A C16A 1_555 1_555
C17A N3A 1_555 1_555
C18A N4A 1_555 1_555
N2A Cu1A 1_555 1_555
O1A Cu1A 1_555 1_555
O1A_2 Cu1A_2 1_555 1_555
O1_2 Cu1_2 1_555 1_555

#END
