
#######################################################################
#
#                 Cambridge Crystallographic Data Centre
#                                CCDC 
#
#######################################################################
#
# If this CIF has been generated from an entry in the Cambridge 
# Structural Database, then it will include bibliographic, chemical, 
# crystal, experimental, refinement or atomic coordinate data resulting 
# from the CCDC's data processing and validation procedures.
#
#######################################################################

data_VELMEF
_symmetry_cell_setting           monoclinic
_symmetry_space_group_name_H-M   'C 2/c'
_symmetry_Int_Tables_number      15
_space_group_name_Hall           '-C 2yn'
loop_
_symmetry_equiv_pos_site_id
_symmetry_equiv_pos_as_xyz
1 x,y,z
2 1/2+x,1/2+y,z
3 -x,y,1/2-z
4 1/2-x,1/2+y,1/2-z
5 -x,-y,-z
6 1/2-x,1/2-y,-z
7 x,-y,1/2+z
8 1/2+x,1/2-y,1/2+z
_cell_length_a                   9.4657(14)
_cell_length_b                   16.749(3)
_cell_length_c                   17.181(3)
_cell_angle_alpha                90
_cell_angle_beta                 101.714(2)
_cell_angle_gamma                90
_cell_volume                     2667.16
loop_
_atom_site_label
_atom_site_type_symbol
_atom_site_fract_x
_atom_site_fract_y
_atom_site_fract_z
Cd1 Cd 0.5000 0.57839(3) 0.2500
N1 N 0.3738(4) 0.5464(3) 0.3522(2)
N2 N 0.1907(5) 0.6434(3) 0.3466(3)
H1 H 0.2133 0.6628 0.3037
H2 H 0.1024 0.6588 0.3508
N3 N 0.6339(4) 0.4804(3) 0.3357(2)
N4 N 0.8564(5) 0.4684(3) 0.2965(3)
H3 H 0.9304 0.4388 0.3033
H4 H 0.8678 0.5189 0.3001
O1 O 0.6595(4) 0.6791(2) 0.29369(19)
O2 O 0.8835(4) 0.6381(2) 0.3454(2)
S1 S 0.18941(17) 0.51355(12) 0.43969(9)
S2 S 0.75036(19) 0.34167(11) 0.36213(13)
C1 C 0.4148(6) 0.4742(3) 0.3896(3)
C2 C 0.3296(6) 0.4483(4) 0.4383(4)
H5 H 0.3446 0.4012 0.4675
C3 C 0.2547(5) 0.5739(4) 0.3725(3)
C4 C 0.5436(6) 0.4346(4) 0.3726(3)
C5 C 0.5883(7) 0.3600(4) 0.3898(5)
H6 H 0.5384 0.3226 0.4137
C6 C 0.7483(6) 0.4396(3) 0.3281(3)
C7 C 0.7590(5) 0.7127(3) 0.4279(3)
C8 C 0.8780(5) 0.7154(3) 0.4902(3)
H7 H 0.9643 0.6920 0.4842
C9 C 0.6303(5) 0.7476(3) 0.4387(3)
H8 H 0.5492 0.7459 0.3978
C10 C 0.7692(6) 0.6734(3) 0.3503(3)
Cd1G Cd 1.0000 0.92161(3) 0.7500
N1B N 0.6262(4) 0.5464(3) 0.1478(2)
N2B N 0.8093(5) 0.6434(3) 0.1534(3)
H1B H 0.7867 0.6628 0.1963
H2B H 0.8976 0.6588 0.1492
N3B N 0.3661(4) 0.4804(3) 0.1643(2)
N4B N 0.1436(5) 0.4684(3) 0.2035(3)
H3B H 0.0696 0.4388 0.1967
H4B H 0.1322 0.5189 0.1999
O1E O 0.8405(4) 0.8209(2) 0.70631(19)
O1B O 0.3405(4) 0.6791(2) 0.20631(19)
O2E O 0.6165(4) 0.8619(2) 0.6546(2)
S1B S 0.81059(17) 0.51355(12) 0.06031(9)
S2B S 0.24964(19) 0.34167(11) 0.13787(13)
C1B C 0.5852(6) 0.4742(3) 0.1104(3)
C2B C 0.6704(6) 0.4483(4) 0.0617(4)
H5B H 0.6554 0.4012 0.0325
C3B C 0.7453(5) 0.5739(4) 0.1275(3)
C4B C 0.4564(6) 0.4346(4) 0.1274(3)
C5B C 0.4117(7) 0.3600(4) 0.1102(5)
H6B H 0.4616 0.3226 0.0863
C6B C 0.2517(6) 0.4396(3) 0.1719(3)
C7E C 0.7410(5) 0.7873(3) 0.5721(3)
C8E C 0.6220(5) 0.7846(3) 0.5098(3)
H7E H 0.5357 0.8080 0.5158
C9E C 0.8697(5) 0.7524(3) 0.5613(3)
H8E H 0.9508 0.7541 0.6022
C10E C 0.7308(6) 0.8266(3) 0.6497(3)
O3 O 0.5000 0.8252(3) 0.2500
H9 H 0.5664 0.7886 0.2722
H9B H 0.4336 0.7886 0.2278
loop_
_geom_bond_atom_site_label_1
_geom_bond_atom_site_label_2
_geom_bond_site_symmetry_1
_geom_bond_site_symmetry_2
Cd1 N1 1_555 1_555
N1 C1 1_555 1_555
N2 H1 1_555 1_555
H2 N2 1_555 1_555
N3 Cd1 1_555 1_555
N4 H3 1_555 1_555
H4 N4 1_555 1_555
O1 Cd1 1_555 1_555
O2 C10 1_555 1_555
S1 C2 1_555 1_555
S2 C5 1_555 1_555
C1 C2 1_555 1_555
C2 H5 1_555 1_555
C3 N1 1_555 1_555
C4 N3 1_555 1_555
C5 C4 1_555 1_555
H6 C5 1_555 1_555
C6 N3 1_555 1_555
C7 C8 1_555 1_555
C8 H7 1_555 1_555
C9 C7 1_555 1_555
H8 C9 1_555 1_555
C10 O1 1_555 1_555
O3 H9 1_555 1_555
Cd1G O1E 1_555 1_555
N1B Cd1 1_555 1_555
N2B H1B 1_555 1_555
H2B N2B 1_555 1_555
N3B Cd1 1_555 1_555
N4B H3B 1_555 1_555
H4B N4B 1_555 1_555
O1E C10E 1_555 1_555
O1B Cd1 1_555 1_555
O2E C10E 1_555 1_555
S1B C2B 1_555 1_555
S2B C5B 1_555 1_555
C1B N1B 1_555 1_555
C2B C1B 1_555 1_555
H5B C2B 1_555 1_555
C3B N1B 1_555 1_555
C4B N3B 1_555 1_555
C5B C4B 1_555 1_555
H6B C5B 1_555 1_555
C6B N3B 1_555 1_555
C7E C8E 1_555 1_555
C8E C9 1_555 1_555
H7E C8E 1_555 1_555
C9E C8 1_555 1_555
H8E C9E 1_555 1_555
C10E C7E 1_555 1_555
H9B O3 1_555 1_555
N2 C3 1_555 1_555
N4 C6 1_555 1_555
S1 C3 1_555 1_555
S2 C6 1_555 1_555
C1 C4 1_555 1_555
C7 C10 1_555 1_555
N2B C3B 1_555 1_555
N4B C6B 1_555 1_555
S1B C3B 1_555 1_555
S2B C6B 1_555 1_555
C1B C4B 1_555 1_555
C7E C9E 1_555 1_555

#END
