
#######################################################################
#
#                 Cambridge Crystallographic Data Centre
#                                CCDC 
#
#######################################################################
#
# If this CIF has been generated from an entry in the Cambridge 
# Structural Database, then it will include bibliographic, chemical, 
# crystal, experimental, refinement or atomic coordinate data resulting 
# from the CCDC's data processing and validation procedures.
#
#######################################################################

data_VELVIS
_symmetry_cell_setting           rhombohedral
_symmetry_space_group_name_H-M   'R -3'
_symmetry_Int_Tables_number      148
_space_group_name_Hall           '-R 3'
loop_
_symmetry_equiv_pos_site_id
_symmetry_equiv_pos_as_xyz
1 x,y,z
2 -y,x-y,z
3 -x+y,-x,z
4 2/3+x,1/3+y,1/3+z
5 2/3-y,1/3+x-y,1/3+z
6 2/3-x+y,1/3-x,1/3+z
7 1/3+x,2/3+y,2/3+z
8 1/3-y,2/3+x-y,2/3+z
9 1/3-x+y,2/3-x,2/3+z
10 -x,-y,-z
11 y,-x+y,-z
12 x-y,x,-z
13 1/3-x,2/3-y,2/3-z
14 1/3+y,2/3-x+y,2/3-z
15 1/3+x-y,2/3+x,2/3-z
16 2/3-x,1/3-y,1/3-z
17 2/3+y,1/3-x+y,1/3-z
18 2/3+x-y,1/3+x,1/3-z
_cell_length_a                   22.989(3)
_cell_length_b                   22.989(3)
_cell_length_c                   15.763(3)
_cell_angle_alpha                90
_cell_angle_beta                 90
_cell_angle_gamma                120
_cell_volume                     7214.56
loop_
_atom_site_label
_atom_site_type_symbol
_atom_site_fract_x
_atom_site_fract_y
_atom_site_fract_z
C1 C 0.6995(3) 0.0285(3) 0.1763(3)
H1 H 0.7382 0.0703 0.1720
C2 C 0.6088(3) -0.0548(3) 0.2264(3)
C3 C 0.5529(3) -0.0986(3) 0.2722(3)
H2 H 0.5436 -0.0869 0.3248
C4 C 0.5117(3) -0.1604(3) 0.2370(4)
H3 H 0.4738 -0.1913 0.2667
C5 C 0.5251(3) -0.1785(3) 0.1563(4)
H4 H 0.4960 -0.2210 0.1345
C6 C 0.6222(3) -0.0726(3) 0.1463(3)
C7 C 0.5800(3) -0.1346(3) 0.1101(4)
H5 H 0.5886 -0.1459 0.0567
C8 C 0.8082(3) 0.2012(3) 0.3398(3)
H6 H 0.8244 0.1897 0.3871
C9 C 0.8034(3) 0.2570(3) 0.2361(3)
C10 C 0.8140(3) 0.3039(3) 0.1701(4)
H7 H 0.8544 0.3440 0.1658
C11 C 0.7443(3) 0.1972(3) 0.2400(3)
C12 C 0.6905(4) 0.1797(3) 0.1802(4)
H8 H 0.6505 0.1389 0.1832
C13 C 0.7637(4) 0.2886(4) 0.1138(4)
H9 H 0.7702 0.3194 0.0714
C14 C 0.7017(4) 0.2271(4) 0.1175(4)
H10 H 0.6683 0.2184 0.0780
N1 N 0.6589(2) 0.0113(2) 0.2433(2)
N2 N 0.7480(2) 0.1604(2) 0.3092(2)
N3 N 0.6812(2) -0.0181(2) 0.1152(2)
N4 N 0.8445(2) 0.2590(2) 0.3006(2)
Zn1 Zn 0.67190(3) 0.07047(3) 0.34160(4)
C1D C 0.6382(3) 0.0043(4) 0.5096(3)
H1D H 0.5964 0.0012 0.5053
C2D C 0.7215(3) -0.0031(4) 0.5597(3)
C3D C 0.7653(3) -0.0152(4) 0.6055(3)
H2D H 0.7536 -0.0362 0.6581
C4D C 0.8271(3) 0.0054(4) 0.5703(4)
H3D H 0.8580 -0.0016 0.6000
C5D C 0.8452(3) 0.0369(4) 0.4896(4)
H4D H 0.8877 0.0503 0.4678
C6D C 0.7393(3) 0.0281(4) 0.4796(3)
C7D C 0.8013(3) 0.0479(4) 0.4434(4)
H5D H 0.8126 0.0678 0.3900
C8M C 0.5345(3) 0.0597(4) 0.3269(3)
H6M H 0.5230 0.0320 0.2796
C9M C 0.5903(3) 0.1203(4) 0.4306(3)
C10M C 0.6372(3) 0.1566(4) 0.4966(4)
H7M H 0.6773 0.1563 0.5009
C11M C 0.5305(3) 0.1196(4) 0.4267(3)
C12M C 0.5130(3) 0.1559(5) 0.4865(4)
H8M H 0.4722 0.1551 0.4835
C13M C 0.6219(4) 0.1916(6) 0.5529(4)
H9M H 0.6527 0.2159 0.5953
C14M C 0.5604(4) 0.1921(6) 0.5492(4)
H10M H 0.5517 0.2168 0.5887
N1D N 0.6554(2) -0.0191(3) 0.5766(2)
N1H N 0.6857(3) 0.0078(2) -0.0900(2)
N2M N 0.4937(2) 0.0791(3) 0.3575(2)
N2H N 0.7457(3) -0.0813(2) -0.0241(2)
N3D N 0.6848(2) 0.0326(3) 0.4485(2)
N4M N 0.5923(2) 0.0812(3) 0.3661(2)
N4O N 0.8222(2) 0.0743(2) 0.0327(2)
Zn1D Zn 0.59620(3) -0.06524(4) 0.67493(4)
Zn1M Zn 0.40380(3) 0.06524(4) 0.32507(4)
Zn1H Zn 0.73190(4) -0.00523(3) 0.00827(4)
Zn1N Zn 0.93476(4) 0.33857(3) 0.32507(4)
O1 O 0.0000 0.0000 0.642(2)
O2 O 0.6667 0.3333 0.3333
O3 O 0.7832(7) 0.1794(8) 0.6104(17)
O4? O 0.8416 0.1646 0.6568
O5? O 0.8167(13) 0.1389(6) 0.7535(12)
loop_
_geom_bond_atom_site_label_1
_geom_bond_atom_site_label_2
_geom_bond_site_symmetry_1
_geom_bond_site_symmetry_2
C1 H1 1_555 1_555
C2 C3 1_555 1_555
C3 H2 1_555 1_555
C4 C3 1_555 1_555
H3 C4 1_555 1_555
C5 C4 1_555 1_555
H4 C5 1_555 1_555
C6 C2 1_555 1_555
C7 C5 1_555 1_555
H5 C7 1_555 1_555
C8 H6 1_555 1_555
C9 C10 1_555 1_555
C10 H7 1_555 1_555
C11 C9 1_555 1_555
C12 C11 1_555 1_555
H8 C12 1_555 1_555
C13 C10 1_555 1_555
H9 C13 1_555 1_555
C14 C12 1_555 1_555
H10 C14 1_555 1_555
N1 C1 1_555 1_555
N2 C8 1_555 1_555
N3 C1 1_555 1_555
N4 C8 1_555 1_555
Zn1 N1 1_555 1_555
C1D H1D 1_555 1_555
C2D C3D 1_555 1_555
C3D H2D 1_555 1_555
C4D C3D 1_555 1_555
H3D C4D 1_555 1_555
C5D C4D 1_555 1_555
H4D C5D 1_555 1_555
C6D C2D 1_555 1_555
C7D C5D 1_555 1_555
H5D C7D 1_555 1_555
C8M H6M 1_555 1_555
C9M C10M 1_555 1_555
C10M H7M 1_555 1_555
C11M C9M 1_555 1_555
C12M C11M 1_555 1_555
H8M C12M 1_555 1_555
C13M C10M 1_555 1_555
H9M C13M 1_555 1_555
C14M C12M 1_555 1_555
H10M C14M 1_555 1_555
N1D C1D 1_555 1_555
N1H Zn1H 1_555 1_555
N2M C8M 1_555 1_555
N2H Zn1H 1_555 1_555
N3D Zn1 1_555 1_555
N4M Zn1 1_555 1_555
N4O Zn1H 1_555 1_555
Zn1D N1D 1_555 1_555
Zn1M N2M 1_555 1_555
Zn1H N3 1_555 1_555
Zn1N N4 1_555 1_555
C2 N1 1_555 1_555
C6 C7 1_555 1_555
C6 N3 1_555 1_555
C9 N4 1_555 1_555
C11 N2 1_555 1_555
C13 C14 1_555 1_555
N2 Zn1 1_555 1_555
C1D N3D 1_555 1_555
C2D N1D 1_555 1_555
C6D C7D 1_555 1_555
C6D N3D 1_555 1_555
C8M N4M 1_555 1_555
C9M N4M 1_555 1_555
C11M N2M 1_555 1_555
C13M C14M 1_555 1_555

#END
