
#######################################################################
#
#                 Cambridge Crystallographic Data Centre
#                                CCDC 
#
#######################################################################
#
# If this CIF has been generated from an entry in the Cambridge 
# Structural Database, then it will include bibliographic, chemical, 
# crystal, experimental, refinement or atomic coordinate data resulting 
# from the CCDC's data processing and validation procedures.
#
#######################################################################

data_VELXIU
_symmetry_cell_setting           monoclinic
_symmetry_space_group_name_H-M   'P 2/n'
_symmetry_Int_Tables_number      13
_space_group_name_Hall           '-P 2yac'
loop_
_symmetry_equiv_pos_site_id
_symmetry_equiv_pos_as_xyz
1 x,y,z
2 1/2-x,y,1/2-z
3 -x,-y,-z
4 1/2+x,-y,1/2+z
_cell_length_a                   9.877(4)
_cell_length_b                   11.393(4)
_cell_length_c                   21.763(10)
_cell_angle_alpha                90
_cell_angle_beta                 93.25(2)
_cell_angle_gamma                90
_cell_volume                     2445.02
loop_
_atom_site_label
_atom_site_type_symbol
_atom_site_fract_x
_atom_site_fract_y
_atom_site_fract_z
Co1 Co 0.2500 0.41393(6) 0.7500
Co2 Co 0.7500 0.31832(6) 0.7500
O1 O 0.3754(3) 0.4246(2) 0.67616(12)
O2 O 0.5585(3) 0.3218(2) 0.70774(12)
O3 O 0.8117(3) 0.6744(3) 0.46762(15)
H1 H 0.8745 0.6921 0.4448
O4 O 0.8562(3) 0.4932(3) 0.43549(14)
O5 O 0.8670(3) 0.3073(2) 0.66635(12)
O6 O 0.9744(3) 0.2298(2) 0.58815(13)
O7 O 0.2883(4) 0.0158(3) 0.55021(17)
H2 H 0.2252 -0.0308 0.5397
O8 O 0.4020(4) -0.1517(3) 0.56993(17)
O9 O 0.0991(3) 0.4209(2) 0.68095(13)
H3 H 0.1101 0.4407 0.6444
H4 H 0.0277 0.3809 0.6813
N1 N 0.2500 0.2264(4) 0.7500
N2 N 0.2500 -0.3960(4) 0.7500
N3 N 0.7500 0.1330(4) 0.7500
N4 N 0.7500 -0.4921(4) 0.7500
C1 C 0.4937(4) 0.3882(3) 0.67011(19)
C2 C 0.5626(4) 0.4306(3) 0.61440(18)
C3 C 0.5648(4) 0.5508(4) 0.6015(2)
H5 H 0.5147 0.6034 0.6253
C4 C 0.6390(5) 0.5939(4) 0.5545(2)
H6 H 0.6421 0.6759 0.5469
C5 C 0.7093(4) 0.5164(4) 0.51813(19)
C6 C 0.7000(4) 0.3966(4) 0.52806(19)
H7 H 0.7431 0.3439 0.5015
C7 C 0.6284(4) 0.3520(4) 0.57649(18)
C8 C 0.6283(4) 0.2216(3) 0.58604(18)
C9 C 0.7505(5) 0.1661(3) 0.60259(18)
C10 C 0.7573(5) 0.0438(4) 0.6040(2)
H8 H 0.8419 0.0061 0.6129
C11 C 0.6425(5) -0.0222(4) 0.5926(2)
H9 H 0.6475 -0.1054 0.5944
C12 C 0.5196(5) 0.0321(4) 0.5787(2)
C13 C 0.5121(5) 0.1542(4) 0.57437(19)
H10 H 0.4279 0.1912 0.5635
C14 C 0.7980(5) 0.5582(4) 0.4692(2)
C15 C 0.8737(4) 0.2387(3) 0.61998(19)
C16 C 0.3992(6) -0.0446(5) 0.5661(2)
C17 C 0.2191(4) 0.1657(3) 0.69861(19)
H11 H 0.1982 0.2075 0.6615
C18 C 0.2163(5) 0.0440(3) 0.6972(2)
H12 H 0.1912 0.0045 0.6598
C19 C 0.2500 -0.0206(5) 0.7500
C20 C 0.2500 -0.1506(5) 0.7500
C21 C 0.2423(5) -0.2149(3) 0.80408(19)
H13 H 0.2363 -0.1755 0.8423
C22 C 0.2434(4) -0.3355(3) 0.80205(19)
H14 H 0.2392 -0.3777 0.8396
C23 C 0.8664(4) 0.0715(3) 0.75564(19)
H15 H 0.9495 0.1134 0.7599
C24 C 0.8710(4) -0.0498(3) 0.7555(2)
H16 H 0.9557 -0.0894 0.7592
C25 C 0.7500 -0.1139(5) 0.7500
C26 C 0.7500 -0.2438(5) 0.7500
C27 C 0.8538(5) -0.3083(4) 0.7272(2)
H17 H 0.9288 -0.2691 0.7110
C28 C 0.8499(5) -0.4287(4) 0.7277(2)
H18 H 0.9231 -0.4698 0.7110
Co1_2 Co 0.2500 -0.58607(6) 0.7500
Co2_2 Co 0.7500 -0.68168(6) 0.7500
Co2_3 Co -0.2500 0.31832(6) 0.7500
O1A O 0.1246(3) 0.4246(2) 0.82384(12)
O2A O -0.0585(3) 0.3218(2) 0.79226(12)
O2A_2 O 0.9415(3) 0.3218(2) 0.79226(12)
O3A O -0.3117(3) 0.6744(3) 1.03238(15)
H1A H -0.3745 0.6921 1.0552
O4A O -0.3562(3) 0.4932(3) 1.06451(14)
O5A O -0.3670(3) 0.3073(2) 0.83365(12)
O5A_2 O 0.6330(3) 0.3073(2) 0.83365(12)
O6A O -0.4744(3) 0.2298(2) 0.91185(13)
O7A O 0.2117(4) 0.0158(3) 0.94979(17)
H2A H 0.2748 -0.0308 0.9603
O8A O 0.0980(4) -0.1517(3) 0.93007(17)
O9A O 0.4009(3) 0.4209(2) 0.81905(13)
H3A H 0.3899 0.4407 0.8556
H4A H 0.4723 0.3809 0.8187
N2_2 N 0.2500 0.6040(4) 0.7500
N4_2 N 0.7500 0.5079(4) 0.7500
C1A C 0.0063(4) 0.3882(3) 0.82989(19)
C2A C -0.0626(4) 0.4306(3) 0.88560(18)
C3A C -0.0648(4) 0.5508(4) 0.8985(2)
H5A H -0.0147 0.6034 0.8747
C4A C -0.1390(5) 0.5939(4) 0.9455(2)
H6A H -0.1421 0.6759 0.9531
C5A C -0.2093(4) 0.5164(4) 0.98187(19)
C6A C -0.2000(4) 0.3966(4) 0.97194(19)
H7A H -0.2431 0.3439 0.9985
C7A C -0.1284(4) 0.3520(4) 0.92351(18)
C8A C -0.1283(4) 0.2216(3) 0.91396(18)
C9A C -0.2505(5) 0.1661(3) 0.89741(18)
C10A C -0.2573(5) 0.0438(4) 0.8960(2)
H8A H -0.3419 0.0061 0.8871
C11A C -0.1425(5) -0.0222(4) 0.9074(2)
H9A H -0.1475 -0.1054 0.9056
C12A C -0.0196(5) 0.0321(4) 0.9213(2)
C13A C -0.0121(5) 0.1542(4) 0.92563(19)
H10A H 0.0721 0.1912 0.9365
C14A C -0.2980(5) 0.5582(4) 1.0308(2)
C15A C -0.3737(4) 0.2387(3) 0.88002(19)
C16A C 0.1008(6) -0.0446(5) 0.9339(2)
C17A C 0.2809(4) 0.1657(3) 0.80139(19)
H11A H 0.3018 0.2075 0.8385
C18A C 0.2837(5) 0.0440(3) 0.8028(2)
H12A H 0.3088 0.0045 0.8402
C21A C 0.2577(5) -0.2149(3) 0.69592(19)
H13A H 0.2637 -0.1755 0.6577
C22A C 0.2566(4) -0.3355(3) 0.69795(19)
H14A H 0.2608 -0.3777 0.6604
C23A C 0.6336(4) 0.0715(3) 0.74436(19)
H15A H 0.5505 0.1134 0.7401
C24A C 0.6290(4) -0.0498(3) 0.7445(2)
H16A H 0.5443 -0.0894 0.7408
C27A C 0.6462(5) -0.3083(4) 0.7728(2)
H17A H 0.5712 -0.2691 0.7890
C28A C 0.6501(5) -0.4287(4) 0.7723(2)
H18A H 0.5769 -0.4698 0.7890
O10 O 1.0629(4) 0.8981(4) 0.51962(19)
H19 H 1.0460 0.8547 0.4889
O11 O 0.9850(8) 0.7148(7) 0.5938(3)
loop_
_geom_bond_atom_site_label_1
_geom_bond_atom_site_label_2
_geom_bond_site_symmetry_1
_geom_bond_site_symmetry_2
Co1 O1 1_555 1_555
Co2 O2 1_555 1_555
O1 C1 1_555 1_555
O2 C1 1_555 1_555
O3 H1 1_555 1_555
O4 C14 1_555 1_555
O5 Co2 1_555 1_555
O6 C15 1_555 1_555
O7 H2 1_555 1_555
O8 C16 1_555 1_555
O9 Co1 1_555 1_555
H3 O9 1_555 1_555
H4 O9 1_555 1_555
N1 Co1 1_555 1_555
N2 C22 1_555 1_555
N3 Co2 1_555 1_555
N4 C28 1_555 1_555
C1 C2 1_555 1_555
C2 C3 1_555 1_555
C3 H5 1_555 1_555
C4 C3 1_555 1_555
H6 C4 1_555 1_555
C5 C4 1_555 1_555
C6 C5 1_555 1_555
H7 C6 1_555 1_555
C7 C2 1_555 1_555
C8 C7 1_555 1_555
C9 C8 1_555 1_555
C10 C9 1_555 1_555
H8 C10 1_555 1_555
C11 C10 1_555 1_555
H9 C11 1_555 1_555
C12 C11 1_555 1_555
C13 C8 1_555 1_555
H10 C13 1_555 1_555
C14 O3 1_555 1_555
C15 O5 1_555 1_555
C16 O7 1_555 1_555
C17 N1 1_555 1_555
H11 C17 1_555 1_555
C18 C17 1_555 1_555
H12 C18 1_555 1_555
C19 C18 1_555 1_555
C20 C19 1_555 1_555
C21 C20 1_555 1_555
H13 C21 1_555 1_555
C22 C21 1_555 1_555
H14 C22 1_555 1_555
C23 N3 1_555 1_555
H15 C23 1_555 1_555
C24 C23 1_555 1_555
H16 C24 1_555 1_555
C25 C24 1_555 1_555
C26 C25 1_555 1_555
C27 C26 1_555 1_555
H17 C27 1_555 1_555
C28 C27 1_555 1_555
H18 C28 1_555 1_555
O10 H19 1_555 1_555
Co1_2 N2 1_555 1_555
Co2_2 N4 1_555 1_555
Co2_3 O2A 1_555 1_555
O1A Co1 1_555 1_555
O2A C1A 1_555 1_555
O2A_2 Co2 1_555 1_555
O3A H1A 1_555 1_555
O4A C14A 1_555 1_555
O5A Co2_3 1_555 1_555
O5A_2 Co2 1_555 1_555
O6A C15A 1_555 1_555
O7A H2A 1_555 1_555
O8A C16A 1_555 1_555
O9A Co1 1_555 1_555
H3A O9A 1_555 1_555
H4A O9A 1_555 1_555
N2_2 Co1 1_555 1_555
N4_2 Co2 1_555 1_555
C1A O1A 1_555 1_555
C2A C1A 1_555 1_555
C3A C2A 1_555 1_555
H5A C3A 1_555 1_555
C4A C3A 1_555 1_555
H6A C4A 1_555 1_555
C5A C4A 1_555 1_555
C6A C5A 1_555 1_555
H7A C6A 1_555 1_555
C7A C2A 1_555 1_555
C8A C7A 1_555 1_555
C9A C8A 1_555 1_555
C10A C9A 1_555 1_555
H8A C10A 1_555 1_555
C11A C10A 1_555 1_555
H9A C11A 1_555 1_555
C12A C11A 1_555 1_555
C13A C8A 1_555 1_555
H10A C13A 1_555 1_555
C14A O3A 1_555 1_555
C15A O5A 1_555 1_555
C16A O7A 1_555 1_555
C17A N1 1_555 1_555
H11A C17A 1_555 1_555
C18A C19 1_555 1_555
H12A C18A 1_555 1_555
C21A C20 1_555 1_555
H13A C21A 1_555 1_555
C22A N2 1_555 1_555
H14A C22A 1_555 1_555
C23A N3 1_555 1_555
H15A C23A 1_555 1_555
C24A C25 1_555 1_555
H16A C24A 1_555 1_555
C27A C26 1_555 1_555
H17A C27A 1_555 1_555
C28A N4 1_555 1_555
H18A C28A 1_555 1_555
C5 C14 1_555 1_555
C6 C7 1_555 1_555
C9 C15 1_555 1_555
C12 C13 1_555 1_555
C12 C16 1_555 1_555
C5A C14A 1_555 1_555
C6A C7A 1_555 1_555
C9A C15A 1_555 1_555
C12A C13A 1_555 1_555
C12A C16A 1_555 1_555
C17A C18A 1_555 1_555
C21A C22A 1_555 1_555
C23A C24A 1_555 1_555
C27A C28A 1_555 1_555

#END
