
#######################################################################
#
#                 Cambridge Crystallographic Data Centre
#                                CCDC 
#
#######################################################################
#
# If this CIF has been generated from an entry in the Cambridge 
# Structural Database, then it will include bibliographic, chemical, 
# crystal, experimental, refinement or atomic coordinate data resulting 
# from the CCDC's data processing and validation procedures.
#
#######################################################################

data_VEMBIZ
_symmetry_cell_setting           monoclinic
_symmetry_space_group_name_H-M   'P 21/n'
_symmetry_Int_Tables_number      14
_space_group_name_Hall           '-P 2yn'
loop_
_symmetry_equiv_pos_site_id
_symmetry_equiv_pos_as_xyz
1 x,y,z
2 1/2-x,1/2+y,1/2-z
3 -x,-y,-z
4 1/2+x,1/2-y,1/2+z
_cell_length_a                   9.6038(15)
_cell_length_b                   10.4719(17)
_cell_length_c                   12.790(2)
_cell_angle_alpha                90
_cell_angle_beta                 108.154(2)
_cell_angle_gamma                90
_cell_volume                     1222.26
loop_
_atom_site_label
_atom_site_type_symbol
_atom_site_fract_x
_atom_site_fract_y
_atom_site_fract_z
Cu1 Cu 0.55291(3) 0.59745(3) 0.12974(2)
O1 O 0.64999(17) 0.48477(16) 0.04768(13)
O2 O 0.8701(2) 0.51986(18) 0.16808(14)
O3 O 1.03738(17) 0.20538(16) 0.27797(13)
O4 O 0.81240(18) 0.18046(16) 0.16343(14)
N1 N 0.4963(2) 0.4463(2) 0.20065(15)
N2 N 0.4966(2) 0.2554(2) 0.27081(17)
H1 H 0.5227 0.1784 0.2911
N3 N 0.6115(2) 0.7564(2) 0.06892(16)
N4 N 0.6815(2) 0.9552(2) 0.06549(17)
H2 H 0.6929 1.0354 0.0802
C1 C 0.7879(3) 0.4664(2) 0.08501(18)
C2 C 0.8511(3) 0.3714(2) 0.02246(19)
H3 H 0.8825 0.4166 -0.0325
H4 H 0.7754 0.3113 -0.0155
H5 H 1.0196 0.2398 0.0547
H6 H 1.0588 0.3574 0.1345
C3 C 0.9815(3) 0.2981(3) 0.0988(2)
C4 C 0.9398(3) 0.2224(2) 0.1853(2)
C5 C 0.5611(3) 0.3334(2) 0.21841(19)
H7 H 0.6419 0.3114 0.1968
C6 C 0.3805(3) 0.3200(3) 0.2868(2)
H8 H 0.3141 0.2889 0.3202
C7 C 0.3823(3) 0.4377(3) 0.2441(2)
H9 H 0.3166 0.5030 0.2441
C8 C 0.6089(3) 0.8734(2) 0.1082(2)
H10 H 0.5620 0.8952 0.1593
C9 C 0.7347(3) 0.8899(3) -0.0056(2)
H11 H 0.7899 0.9229 -0.0475
C10 C 0.6914(3) 0.7672(3) -0.0032(2)
H12 H 0.7124 0.7005 -0.0440
Cu1A Cu 0.94709(3) 0.09745(3) 0.37026(2)
O3A O 0.46262(17) 0.70538(16) 0.22203(13)
loop_
_geom_bond_atom_site_label_1
_geom_bond_atom_site_label_2
_geom_bond_site_symmetry_1
_geom_bond_site_symmetry_2
Cu1 O1 1_555 1_555
O1 C1 1_555 1_555
O2 C1 1_555 1_555
O3 C4 1_555 1_555
O4 C4 1_555 1_555
N1 Cu1 1_555 1_555
N2 H1 1_555 1_555
N3 Cu1 1_555 1_555
N4 H2 1_555 1_555
C1 C2 1_555 1_555
C2 H3 1_555 1_555
H4 C2 1_555 1_555
H5 C3 1_555 1_555
H6 C3 1_555 1_555
C3 C2 1_555 1_555
C4 C3 1_555 1_555
C5 N1 1_555 1_555
H7 C5 1_555 1_555
C6 N2 1_555 1_555
H8 C6 1_555 1_555
C7 N1 1_555 1_555
H9 C7 1_555 1_555
C8 N3 1_555 1_555
H10 C8 1_555 1_555
C9 N4 1_555 1_555
H11 C9 1_555 1_555
C10 N3 1_555 1_555
H12 C10 1_555 1_555
Cu1A O3 1_555 1_555
O3A Cu1 1_555 1_555
N2 C5 1_555 1_555
N4 C8 1_555 1_555
C6 C7 1_555 1_555
C9 C10 1_555 1_555

#END
