
#######################################################################
#
#                 Cambridge Crystallographic Data Centre
#                                CCDC 
#
#######################################################################
#
# If this CIF has been generated from an entry in the Cambridge 
# Structural Database, then it will include bibliographic, chemical, 
# crystal, experimental, refinement or atomic coordinate data resulting 
# from the CCDC's data processing and validation procedures.
#
#######################################################################

data_VEMGOK
_symmetry_cell_setting           orthorhombic
_symmetry_space_group_name_H-M   'P b c n'
_symmetry_Int_Tables_number      60
_space_group_name_Hall           '-P 2n 2ab'
loop_
_symmetry_equiv_pos_site_id
_symmetry_equiv_pos_as_xyz
1 x,y,z
2 1/2-x,1/2-y,1/2+z
3 -x,y,1/2-z
4 1/2+x,1/2-y,-z
5 -x,-y,-z
6 1/2+x,1/2+y,1/2-z
7 x,-y,1/2+z
8 1/2-x,1/2+y,z
_cell_length_a                   15.8628(18)
_cell_length_b                   11.9594(8)
_cell_length_c                   21.3058(15)
_cell_angle_alpha                90
_cell_angle_beta                 90
_cell_angle_gamma                90
_cell_volume                     4041.91
loop_
_atom_site_label
_atom_site_type_symbol
_atom_site_fract_x
_atom_site_fract_y
_atom_site_fract_z
Mn1 Mn 0.0000 0.45035(5) 0.2500
Mn2 Mn -0.01433(2) 0.35276(3) 0.032517(19)
As1 As 0.029714(17) 0.57741(2) 0.115034(12)
S1 S 0.10100(5) 0.59261(8) 0.19968(4)
S2 S -0.06761(4) 0.45477(6) 0.13429(3)
S3 S 0.10373(4) 0.50872(5) 0.03755(3)
S4 S -0.02277(5) 0.72886(6) 0.07837(4)
N1 N -0.10320(14) 0.21186(18) 0.05199(11)
N2 N 0.06228(14) 0.21231(18) 0.07330(11)
N3 N 0.0837(2) 0.3008(3) 0.24468(14)
C1 C -0.18728(18) 0.2189(3) 0.04603(15)
H1 H -0.2103 0.2865 0.0329
C2 C -0.2407(2) 0.1324(3) 0.05822(17)
H2 H -0.2987 0.1413 0.0547
C3 C -0.2067(2) 0.0320(3) 0.07581(19)
H3 H -0.2414 -0.0290 0.0839
C4 C -0.1205(2) 0.0223(3) 0.08135(18)
H4 H -0.0965 -0.0456 0.0929
C5 C -0.06968(19) 0.1144(2) 0.06965(13)
C6 C 0.02288(18) 0.1131(2) 0.07834(14)
C7 C 0.0683(2) 0.0177(3) 0.0916(2)
H5 H 0.0411 -0.0510 0.0946
C8 C 0.1542(2) 0.0248(3) 0.1005(2)
H6 H 0.1853 -0.0393 0.1091
C9 C 0.1936(2) 0.1258(3) 0.09658(19)
H7 H 0.2513 0.1325 0.1033
C10 C 0.14495(18) 0.2175(3) 0.08236(15)
H8 H 0.1713 0.2867 0.0789
C11 C 0.1677(3) 0.3101(4) 0.2489(2)
H9 H 0.1907 0.3807 0.2422
C12 C 0.2254(5) 0.2210(6) 0.2629(3)
H10 H 0.2835 0.2254 0.2677
C13 C 0.1765(5) 0.1304(6) 0.2675(3)
H11 H 0.2090 0.0685 0.2781
C14 C 0.0962(5) 0.1010(6) 0.2618(3)
H12 H 0.0762 0.0280 0.2638
C15 C 0.0430(3) 0.2010(4) 0.2516(2)
Mn2B Mn 0.01433(2) 0.35276(3) 0.467483(19)
Mn2D Mn 0.01433(2) 0.64724(3) -0.032517(19)
Mn2F Mn -0.01433(2) 0.64724(3) 0.532517(19)
As1B As -0.029714(17) 0.57741(2) 0.384966(12)
S1B S -0.10100(5) 0.59261(8) 0.30032(4)
S2B S 0.06761(4) 0.45477(6) 0.36571(3)
S3B S -0.10373(4) 0.50872(5) 0.46245(3)
S3D S -0.10373(4) 0.49128(5) -0.03755(3)
S3F S 0.10373(4) 0.49128(5) 0.53755(3)
S4B S 0.02277(5) 0.72886(6) 0.42163(4)
S4D S 0.02277(5) 0.27114(6) -0.07837(4)
S4F S -0.02277(5) 0.27114(6) 0.57837(4)
N1B N 0.10320(14) 0.21186(18) 0.44801(11)
N2B N -0.06228(14) 0.21231(18) 0.42670(11)
N3B N -0.0837(2) 0.3008(3) 0.25532(14)
C1B C 0.18728(18) 0.2189(3) 0.45397(15)
H1B H 0.2103 0.2865 0.4671
C2B C 0.2407(2) 0.1324(3) 0.44178(17)
H2B H 0.2987 0.1413 0.4453
C3B C 0.2067(2) 0.0320(3) 0.42419(19)
H3B H 0.2414 -0.0290 0.4161
C4B C 0.1205(2) 0.0223(3) 0.41865(18)
H4B H 0.0965 -0.0456 0.4071
C5B C 0.06968(19) 0.1144(2) 0.43035(13)
C6B C -0.02288(18) 0.1131(2) 0.42166(14)
C7B C -0.0683(2) 0.0177(3) 0.4084(2)
H5B H -0.0411 -0.0510 0.4054
C8B C -0.1542(2) 0.0248(3) 0.3995(2)
H6B H -0.1853 -0.0393 0.3909
C9B C -0.1936(2) 0.1258(3) 0.40342(19)
H7B H -0.2513 0.1325 0.3967
C10B C -0.14495(18) 0.2175(3) 0.41764(15)
H8B H -0.1713 0.2867 0.4211
C11B C -0.1677(3) 0.3101(4) 0.2511(2)
H9B H -0.1907 0.3807 0.2578
C12B C -0.2254(5) 0.2210(6) 0.2371(3)
H10B H -0.2835 0.2254 0.2323
C13B C -0.1765(5) 0.1304(6) 0.2325(3)
H11B H -0.2090 0.0685 0.2219
C14B C -0.0962(5) 0.1010(6) 0.2382(3)
H12B H -0.0762 0.0280 0.2362
C15B C -0.0430(3) 0.2010(4) 0.2484(2)
O1 O 0.0450(6) 0.8356(5) 0.2678(4)
loop_
_geom_bond_atom_site_label_1
_geom_bond_atom_site_label_2
_geom_bond_site_symmetry_1
_geom_bond_site_symmetry_2
Mn1 S1 1_555 1_555
Mn2 S2 1_555 1_555
As1 S1 1_555 1_555
S2 Mn1 1_555 1_555
S3 Mn2 1_555 1_555
S4 As1 1_555 1_555
N1 Mn2 1_555 1_555
N2 Mn2 1_555 1_555
N3 Mn1 1_555 1_555
C1 N1 1_555 1_555
H1 C1 1_555 1_555
C2 C1 1_555 1_555
H2 C2 1_555 1_555
C3 C2 1_555 1_555
H3 C3 1_555 1_555
C4 C3 1_555 1_555
H4 C4 1_555 1_555
C5 N1 1_555 1_555
C6 N2 1_555 1_555
C7 C6 1_555 1_555
H5 C7 1_555 1_555
C8 C7 1_555 1_555
H6 C8 1_555 1_555
C9 C8 1_555 1_555
H7 C9 1_555 1_555
C10 N2 1_555 1_555
H8 C10 1_555 1_555
C11 N3 1_555 1_555
H9 C11 1_555 1_555
C12 C11 1_555 1_555
H10 C12 1_555 1_555
C13 C12 1_555 1_555
H11 C13 1_555 1_555
C14 C13 1_555 1_555
H12 C14 1_555 1_555
C15 N3 1_555 1_555
Mn2B S2B 1_555 1_555
Mn2D S3 1_555 1_555
Mn2F S3B 1_555 1_555
As1B S1B 1_555 1_555
S1B Mn1 1_555 1_555
S2B Mn1 1_555 1_555
S3B Mn2B 1_555 1_555
S3D Mn2 1_555 1_555
S3F Mn2B 1_555 1_555
S4B Mn2F 1_555 1_555
S4D Mn2 1_555 1_555
S4F Mn2B 1_555 1_555
N1B Mn2B 1_555 1_555
N2B Mn2B 1_555 1_555
N3B Mn1 1_555 1_555
C1B N1B 1_555 1_555
H1B C1B 1_555 1_555
C2B C1B 1_555 1_555
H2B C2B 1_555 1_555
C3B C2B 1_555 1_555
H3B C3B 1_555 1_555
C4B C3B 1_555 1_555
H4B C4B 1_555 1_555
C5B N1B 1_555 1_555
C6B N2B 1_555 1_555
C7B C6B 1_555 1_555
H5B C7B 1_555 1_555
C8B C7B 1_555 1_555
H6B C8B 1_555 1_555
C9B C8B 1_555 1_555
H7B C9B 1_555 1_555
C10B N2B 1_555 1_555
H8B C10B 1_555 1_555
C11B N3B 1_555 1_555
H9B C11B 1_555 1_555
C12B C11B 1_555 1_555
H10B C12B 1_555 1_555
C13B C12B 1_555 1_555
H11B C13B 1_555 1_555
C14B C13B 1_555 1_555
H12B C14B 1_555 1_555
C15B C15 1_555 1_555
As1 S2 1_555 1_555
As1 S3 1_555 1_555
S4 Mn2D 1_555 1_555
C4 C5 1_555 1_555
C5 C6 1_555 1_555
C9 C10 1_555 1_555
C14 C15 1_555 1_555
Mn2D S3D 1_555 1_555
Mn2F S3F 1_555 1_555
As1B S2B 1_555 1_555
As1B S3B 1_555 1_555
As1B S4B 1_555 1_555
N3B C15B 1_555 1_555
C4B C5B 1_555 1_555
C5B C6B 1_555 1_555
C9B C10B 1_555 1_555
C14B C15B 1_555 1_555

#END
