
#######################################################################
#
#                 Cambridge Crystallographic Data Centre
#                                CCDC 
#
#######################################################################
#
# If this CIF has been generated from an entry in the Cambridge 
# Structural Database, then it will include bibliographic, chemical, 
# crystal, experimental, refinement or atomic coordinate data resulting 
# from the CCDC's data processing and validation procedures.
#
#######################################################################

data_VEMLUV
_symmetry_cell_setting           triclinic
_symmetry_space_group_name_H-M   'P -1'
_symmetry_Int_Tables_number      2
_space_group_name_Hall           '-P 1'
loop_
_symmetry_equiv_pos_site_id
_symmetry_equiv_pos_as_xyz
1 x,y,z
2 -x,-y,-z
_cell_length_a                   10.425(2)
_cell_length_b                   16.352(4)
_cell_length_c                   19.299(4)
_cell_angle_alpha                74.687(4)
_cell_angle_beta                 82.887(5)
_cell_angle_gamma                78.480(5)
_cell_volume                     3100.36
loop_
_atom_site_label
_atom_site_type_symbol
_atom_site_fract_x
_atom_site_fract_y
_atom_site_fract_z
O7 O 0.878(5) 0.733(3) 0.200(2)
O8 O 0.954(7) 0.846(5) 0.090(4)
O9 O 1.121(6) 0.978(4) 0.034(3)
Mn1 Mn 0.45406(17) 0.83138(10) 0.68529(8)
Mn2 Mn 0.71167(16) 0.63594(10) 0.63996(8)
O1 O 0.4962(10) 0.9077(6) 0.7536(5)
O2 O 0.2621(9) 0.8354(5) 0.7415(4)
O3 O 0.3673(8) 0.9467(5) 0.6132(4)
O4 O 0.6898(8) 0.5049(5) 0.6604(4)
O5 O 0.8228(8) 0.6357(5) 0.5372(4)
O6 O 0.8947(9) 0.5916(6) 0.6936(5)
N1 N 0.474(5) 0.947(2) 0.865(2)
N2 N 0.0484(14) 0.8807(11) 0.7642(7)
N3 N 0.3472(11) 1.0921(7) 0.5846(5)
N4 N 0.6721(15) 0.3718(12) 0.7370(9)
N5 N 0.9880(10) 0.6621(7) 0.4513(5)
N6 N 1.046(2) 0.5903(16) 0.7681(13)
N7 N 0.4827(11) 0.6854(7) 0.8341(5)
N8 N 0.5285(10) 0.7089(6) 0.7651(4)
N9 N 0.6086(10) 0.6425(6) 0.7478(5)
N10 N 0.6203(10) 0.5750(6) 0.8063(5)
N11 N 0.5084(8) 0.6774(5) 0.5951(4)
N12 N 0.4267(8) 0.7435(5) 0.6171(4)
N13 N 0.3085(9) 0.7457(6) 0.6013(5)
N14 N 0.3031(10) 0.6830(6) 0.5700(5)
N15 N 0.8518(9) 0.8005(6) 0.5832(5)
N16 N 0.7417(9) 0.7733(6) 0.6186(5)
N17 N 0.6529(9) 0.8398(6) 0.6269(4)
N18 N 0.6991(9) 0.9144(5) 0.5984(5)
C1 C 0.5420(14) 0.6051(8) 0.8563(6)
C2 C 0.8209(11) 0.8864(6) 0.5732(6)
C3 C 0.4271(12) 0.6422(7) 0.5668(5)
C4 C 0.485(5) 0.8910(16) 0.8137(14)
C5 C 0.444(4) 0.903(3) 0.945(2)
C6 C 0.549(5) 0.825(3) 0.9749(19)
C7 C 0.617(6) 0.979(4) 0.840(3)
C8 C 0.516(4) 1.081(3) 0.813(2)
C9 C 0.1554(16) 0.8517(10) 0.7231(7)
C10 C 0.065(2) 0.8936(16) 0.8341(14)
C11 C 0.097(3) 0.814(2) 0.8894(17)
C12 C -0.076(3) 0.8920(16) 0.7411(12)
C13 C -0.124(3) 0.996(2) 0.7092(17)
C14 C 0.4145(14) 1.0145(9) 0.5865(6)
C15 C 0.2020(15) 1.1049(10) 0.6131(8)
C16 C 0.208(3) 1.0998(18) 0.6955(14)
C18 C 0.4133(14) 1.1685(9) 0.5497(7)
C19 C 0.457(3) 1.2052(19) 0.6081(16)
C21 C 0.728(2) 0.4459(11) 0.7142(10)
C22 C 0.5669(19) 0.3548(14) 0.6965(11)
C23 C 0.4322(17) 0.4063(14) 0.7193(12)
C24 C 0.725(3) 0.3003(17) 0.7985(14)
C25 C 0.609(5) 0.312(3) 0.855(3)
C26 C 0.9356(14) 0.6516(8) 0.5180(7)
C27 C 0.9103(15) 0.6549(10) 0.3937(8)
C28 C 0.923(4) 0.568(2) 0.376(2)
C30 C 1.1234(15) 0.6778(10) 0.4342(8)
C31 C 1.1310(17) 0.7706(12) 0.3848(9)
C32 C 0.977(4) 0.623(2) 0.7052(19)
C33 C 1.054(3) 0.4941(15) 0.8063(16)
C34 C 0.941(3) 0.4743(17) 0.8642(15)
C35 C 1.167(3) 0.6262(15) 0.7773(17)
C36 C 1.299(2) 0.569(2) 0.7643(17)
C37 C 0.5196(15) 0.5509(8) 0.9303(6)
C38 C 0.4219(17) 0.5798(9) 0.9783(7)
H1 H 0.3688 0.6334 0.9643
C39 C 0.5966(16) 0.4719(10) 0.9520(6)
H2 H 0.6622 0.4522 0.9200
C40 C 0.9136(11) 0.9447(7) 0.5358(5)
C41 C 0.8657(11) 1.0323(7) 0.5094(6)
H3 H 0.7768 1.0543 0.5157
C42 C 1.0444(12) 0.9129(7) 0.5272(6)
H4 H 1.0750 0.8546 0.5456
C43 C 0.4660(11) 0.5687(7) 0.5323(5)
C44 C 0.3791(12) 0.5177(7) 0.5326(6)
H5 H 0.2952 0.5293 0.5546
C45 C 0.5895(11) 0.5514(7) 0.4987(6)
H6 H 0.6511 0.5860 0.4972
C39A C 0.4034(16) 0.5281(10) 1.0480(6)
C37A C 0.4804(15) 0.4491(8) 1.0697(6)
C1A C 0.4580(14) 0.3949(8) 1.1437(6)
N7A N 0.5173(11) 0.3146(7) 1.1659(5)
N8A N 0.4715(10) 0.2911(6) 1.2349(4)
N9A N 0.3914(10) 0.3575(6) 1.2522(5)
N10A N 0.3797(10) 0.4250(6) 1.1937(5)
C38A C 0.5781(17) 0.4202(9) 1.0217(7)
H1A H 0.6312 0.3666 1.0357
H2A H 0.3378 0.5478 1.0800
C45A C 0.4105(11) 0.4486(7) 0.5013(6)
C43A C 0.5340(11) 0.4313(7) 0.4677(5)
C3A C 0.5729(12) 0.3578(7) 0.4332(5)
N11A N 0.4916(8) 0.3226(5) 0.4049(4)
N12A N 0.5733(8) 0.2565(5) 0.3829(4)
N13A N 0.6915(9) 0.2543(6) 0.3987(5)
N14A N 0.6969(10) 0.3170(6) 0.4300(5)
C44A C 0.6209(12) 0.4823(7) 0.4674(6)
H5A H 0.7048 0.4707 0.4454
H6A H 0.3489 0.4140 0.5028
C42A C 0.9556(12) 1.0871(7) 0.4728(6)
C40A C 1.0864(11) 1.0553(7) 0.4642(5)
C2A C 1.1791(11) 1.1136(6) 0.4268(6)
N15A N 1.1482(9) 1.1995(6) 0.4168(5)
N16A N 1.2583(9) 1.2267(6) 0.3814(5)
N17A N 1.3471(9) 1.1602(6) 0.3731(4)
N18A N 1.3009(9) 1.0856(5) 0.4016(5)
C41A C 1.1343(11) 0.9677(7) 0.4906(6)
H3A H 1.2232 0.9457 0.4843
H4A H 0.9250 1.1454 0.4544
Mn1A Mn 0.54594(17) 0.16862(10) 1.31471(8)
Mn2A Mn 0.28833(16) 0.36406(10) 1.36004(8)
O1A O 0.5038(10) 0.0923(6) 1.2464(5)
N1A N 0.526(5) 0.053(2) 1.135(2)
C4A C 0.515(5) 0.1090(16) 1.1863(14)
C5A C 0.556(4) 0.097(3) 1.055(2)
C6A C 0.451(5) 0.175(3) 1.0251(19)
C7A C 0.383(6) 0.021(4) 1.160(3)
C8A C 0.484(4) -0.081(3) 1.187(2)
O2A O 0.7379(9) 0.1646(5) 1.2585(4)
N2A N 0.9516(14) 0.1193(11) 1.2358(7)
C9A C 0.8446(16) 0.1483(10) 1.2769(7)
C10A C 0.935(2) 0.1064(16) 1.1659(14)
C11A C 0.903(3) 0.186(2) 1.1106(17)
C12A C 1.076(3) 0.1080(16) 1.2589(12)
C13A C 1.124(3) 0.004(2) 1.2908(17)
O3A O 0.6327(8) 0.0533(5) 1.3868(4)
N3A N 0.6528(11) -0.0921(7) 1.4154(5)
C14A C 0.5855(14) -0.0145(9) 1.4135(6)
C15A C 0.7980(15) -0.1049(10) 1.3869(8)
C16A C 0.792(3) -0.0998(18) 1.3045(14)
C18A C 0.5867(14) -0.1685(9) 1.4503(7)
C19A C 0.543(3) -0.2052(19) 1.3919(16)
O4A O 0.3102(8) 0.4951(5) 1.3396(4)
N4A N 0.3279(15) 0.6282(12) 1.2630(9)
C21A C 0.272(2) 0.5541(11) 1.2858(10)
C22A C 0.4331(19) 0.6452(14) 1.3035(11)
C23A C 0.5678(17) 0.5937(14) 1.2807(12)
C24A C 0.275(3) 0.6997(17) 1.2015(14)
C25A C 0.391(5) 0.688(3) 1.145(3)
O5A O 0.1772(8) 0.3643(5) 1.4628(4)
N5A N 0.0120(10) 0.3379(7) 1.5487(5)
C26A C 0.0644(14) 0.3484(8) 1.4820(7)
C27A C 0.0897(15) 0.3451(10) 1.6063(8)
C28A C 0.077(4) 0.432(2) 1.624(2)
C30A C -0.1234(15) 0.3222(10) 1.5658(8)
C31A C -0.1310(17) 0.2294(12) 1.6152(9)
O6A O 0.1053(9) 0.4084(6) 1.3064(5)
N6A N -0.046(2) 0.4097(16) 1.2319(13)
C32A C 0.023(4) 0.377(2) 1.2948(19)
C33A C -0.054(3) 0.5059(15) 1.1937(16)
C34A C 0.059(3) 0.5257(17) 1.1358(15)
C35A C -0.167(3) 0.3738(15) 1.2227(17)
C36A C -0.299(2) 0.431(2) 1.2357(17)
Mn2A_2 Mn 0.28833(16) 0.36406(10) 0.36004(8)
Mn1A_2 Mn 0.54594(17) 0.16862(10) 0.31471(8)
Mn2A_3 Mn 1.28833(16) 1.36406(10) 0.36004(8)
Mn1A_3 Mn 1.54594(17) 1.16862(10) 0.31471(8)
N12A_2 N 0.5733(8) 0.2565(5) 1.3829(4)
N17A_2 N 0.3471(9) 0.1602(6) 1.3731(4)
N11A_2 N 0.4916(8) 0.3226(5) 1.4049(4)
N16A_2 N 0.2583(9) 0.2267(6) 1.3814(5)
C17? C 0.173(7) 1.081(5) 0.688(4)
C20? C 0.506(4) 1.184(2) 0.5897(19)
C29? C 0.938(2) 0.5544(16) 0.4044(14)
loop_
_geom_bond_atom_site_label_1
_geom_bond_atom_site_label_2
_geom_bond_site_symmetry_1
_geom_bond_site_symmetry_2
Mn1 O1 1_555 1_555
Mn2 O4 1_555 1_555
O1 C4 1_555 1_555
O2 Mn1 1_555 1_555
O3 Mn1 1_555 1_555
O4 C21 1_555 1_555
O5 Mn2 1_555 1_555
O6 Mn2 1_555 1_555
N1 C4 1_555 1_555
N2 C9 1_555 1_555
N3 C14 1_555 1_555
N4 C21 1_555 1_555
N5 C26 1_555 1_555
N6 C32 1_555 1_555
N7 N8 1_555 1_555
N8 Mn1 1_555 1_555
N9 Mn2 1_555 1_555
N10 N9 1_555 1_555
N11 Mn2 1_555 1_555
N12 Mn1 1_555 1_555
N13 N12 1_555 1_555
N14 N13 1_555 1_555
N15 N16 1_555 1_555
N16 Mn2 1_555 1_555
N17 Mn1 1_555 1_555
N18 N17 1_555 1_555
C1 N7 1_555 1_555
C2 N15 1_555 1_555
C3 N11 1_555 1_555
C5 N1 1_555 1_555
C6 C5 1_555 1_555
C7 N1 1_555 1_555
C8 C7 1_555 1_555
C9 O2 1_555 1_555
C10 N2 1_555 1_555
C11 C10 1_555 1_555
C12 N2 1_555 1_555
C13 C12 1_555 1_555
C14 O3 1_555 1_555
C15 N3 1_555 1_555
C16 C15 1_555 1_555
C18 N3 1_555 1_555
C19 C18 1_555 1_555
C22 N4 1_555 1_555
C23 C22 1_555 1_555
C24 N4 1_555 1_555
C25 C24 1_555 1_555
C26 O5 1_555 1_555
C27 N5 1_555 1_555
C28 C27 1_555 1_555
C30 N5 1_555 1_555
C31 C30 1_555 1_555
C32 O6 1_555 1_555
C33 N6 1_555 1_555
C34 C33 1_555 1_555
C35 N6 1_555 1_555
C36 C35 1_555 1_555
C37 C1 1_555 1_555
C38 C37 1_555 1_555
H1 C38 1_555 1_555
C39 C37 1_555 1_555
H2 C39 1_555 1_555
C40 C2 1_555 1_555
C41 C40 1_555 1_555
H3 C41 1_555 1_555
C42 C40 1_555 1_555
H4 C42 1_555 1_555
C43 C3 1_555 1_555
C44 C43 1_555 1_555
H5 C44 1_555 1_555
C45 C43 1_555 1_555
H6 C45 1_555 1_555
C39A C38 1_555 1_555
C37A C39A 1_555 1_555
C1A C37A 1_555 1_555
N7A C1A 1_555 1_555
N8A N7A 1_555 1_555
N9A N8A 1_555 1_555
N10A C1A 1_555 1_555
C38A C39 1_555 1_555
H1A C38A 1_555 1_555
H2A C39A 1_555 1_555
C45A C44 1_555 1_555
C43A C45A 1_555 1_555
C3A C43A 1_555 1_555
N11A C3A 1_555 1_555
N12A N11A 1_555 1_555
N13A N12A 1_555 1_555
N14A C3A 1_555 1_555
C44A C45 1_555 1_555
H5A C44A 1_555 1_555
H6A C45A 1_555 1_555
C42A C41 1_555 1_555
C40A C42A 1_555 1_555
C2A C40A 1_555 1_555
N15A C2A 1_555 1_555
N16A N15A 1_555 1_555
N17A N16A 1_555 1_555
N18A C2A 1_555 1_555
C41A C42 1_555 1_555
H3A C41A 1_555 1_555
H4A C42A 1_555 1_555
Mn1A N8A 1_555 1_555
Mn2A N9A 1_555 1_555
O1A Mn1A 1_555 1_555
N1A C4A 1_555 1_555
C4A O1A 1_555 1_555
C5A N1A 1_555 1_555
C6A C5A 1_555 1_555
C7A N1A 1_555 1_555
C8A C7A 1_555 1_555
O2A Mn1A 1_555 1_555
N2A C9A 1_555 1_555
C9A O2A 1_555 1_555
C10A N2A 1_555 1_555
C11A C10A 1_555 1_555
C12A N2A 1_555 1_555
C13A C12A 1_555 1_555
O3A Mn1A 1_555 1_555
N3A C14A 1_555 1_555
C14A O3A 1_555 1_555
C15A N3A 1_555 1_555
C16A C15A 1_555 1_555
C18A N3A 1_555 1_555
C19A C18A 1_555 1_555
O4A Mn2A 1_555 1_555
N4A C21A 1_555 1_555
C21A O4A 1_555 1_555
C22A N4A 1_555 1_555
C23A C22A 1_555 1_555
C24A N4A 1_555 1_555
C25A C24A 1_555 1_555
O5A Mn2A 1_555 1_555
N5A C26A 1_555 1_555
C26A O5A 1_555 1_555
C27A N5A 1_555 1_555
C28A C27A 1_555 1_555
C30A N5A 1_555 1_555
C31A C30A 1_555 1_555
O6A Mn2A 1_555 1_555
N6A C32A 1_555 1_555
C32A O6A 1_555 1_555
C33A N6A 1_555 1_555
C34A C33A 1_555 1_555
C35A N6A 1_555 1_555
C36A C35A 1_555 1_555
Mn2A_2 N11A 1_555 1_555
Mn1A_2 N12A 1_555 1_555
Mn2A_3 N16A 1_555 1_555
Mn1A_3 N17A 1_555 1_555
N12A_2 Mn1A 1_555 1_555
N17A_2 Mn1A 1_555 1_555
N11A_2 Mn2A 1_555 1_555
N16A_2 Mn2A 1_555 1_555
N8 N9 1_555 1_555
N10 C1 1_555 1_555
N11 N12 1_555 1_555
N14 C3 1_555 1_555
N16 N17 1_555 1_555
N18 C2 1_555 1_555
C37A C38A 1_555 1_555
N9A N10A 1_555 1_555
C43A C44A 1_555 1_555
N13A N14A 1_555 1_555
C40A C41A 1_555 1_555
N17A N18A 1_555 1_555
N12A_2 N11A_2 1_555 1_555
N17A_2 N16A_2 1_555 1_555

#END
