
#######################################################################
#
#                 Cambridge Crystallographic Data Centre
#                                CCDC 
#
#######################################################################
#
# If this CIF has been generated from an entry in the Cambridge 
# Structural Database, then it will include bibliographic, chemical, 
# crystal, experimental, refinement or atomic coordinate data resulting 
# from the CCDC's data processing and validation procedures.
#
#######################################################################

data_VEMNUW
_symmetry_cell_setting           orthorhombic
_symmetry_space_group_name_H-M   'P b c n'
_symmetry_Int_Tables_number      60
_space_group_name_Hall           '-P 2n 2ab'
loop_
_symmetry_equiv_pos_site_id
_symmetry_equiv_pos_as_xyz
1 x,y,z
2 1/2-x,1/2+y,z
3 x,-y,1/2+z
4 1/2-x,1/2-y,1/2+z
5 -x,-y,-z
6 1/2+x,1/2-y,-z
7 -x,y,1/2-z
8 1/2+x,1/2+y,1/2-z
_cell_length_a                   19.881(2)
_cell_length_b                   14.488(2)
_cell_length_c                   17.049(2)
_cell_angle_alpha                90
_cell_angle_beta                 90
_cell_angle_gamma                90
_cell_volume                     4910.72
loop_
_atom_site_label
_atom_site_type_symbol
_atom_site_fract_x
_atom_site_fract_y
_atom_site_fract_z
Zn1 Zn 0.23079(3) -0.34531(5) 0.37931(4)
Zn2 Zn 0.32734(3) -0.16452(5) 0.39904(4)
O1 O 0.2054(2) -0.2819(3) 0.2842(2)
O2 O 0.2762(2) -0.1639(3) 0.3023(2)
C1 C 0.2317(3) -0.2058(4) 0.2642(4)
C2 C 0.2069(3) -0.1681(4) 0.1899(3)
C3 C 0.2268(3) -0.0929(4) 0.1525(3)
C4 C 0.2808(3) -0.0295(5) 0.1795(5)
C5 C 0.1956(3) -0.0663(5) 0.0758(3)
O3 O 0.3213(2) -0.3885(2) 0.3780(2)
O4 O 0.3893(2) -0.2703(2) 0.4047(2)
C6 C 0.3780(3) -0.3552(4) 0.3918(3)
C7 C 0.4374(3) -0.4136(4) 0.3938(4)
C8 C 0.4425(3) -0.5047(4) 0.3822(4)
C9 C 0.3844(4) -0.5658(5) 0.3667(6)
C10 C 0.5092(4) -0.5507(5) 0.3865(6)
O5 O 0.2006(2) -0.2758(3) 0.4696(2)
O6 O 0.2743(2) -0.1633(3) 0.4940(2)
C11 C 0.2235(3) -0.2108(4) 0.5113(3)
C12 C 0.1906(3) -0.1902(4) 0.5857(3)
C13 C 0.1317(3) -0.2167(5) 0.6122(4)
C14 C 0.0835(4) -0.2744(6) 0.5670(5)
C15 C 0.1079(4) -0.1883(6) 0.6919(4)
O7 O 0.1855(2) -0.4642(2) 0.3864(2)
O8 O 0.1056(2) -0.5674(2) 0.3906(3)
C16 C 0.1238(2) -0.4839(4) 0.3838(4)
C17 C 0.0741(3) -0.4100(4) 0.3735(4)
C18 C 0.0093(3) -0.4141(4) 0.3731(5)
C19 C -0.0331(4) -0.3283(5) 0.3635(7)
C20 C -0.0308(4) -0.4979(6) 0.3814(9)
H1 H 0.1715 -0.2024 0.1650
H2 H 0.3200 -0.0542 0.2048
H3 H 0.2591 0.0136 0.2139
H4 H 0.2939 0.0013 0.1321
H5 H 0.1658 -0.1146 0.0594
H6 H 0.2320 -0.0610 0.0390
H7 H 0.1714 -0.0089 0.0780
H8 H 0.4789 -0.3825 0.4052
H9 H 0.3394 -0.5418 0.3647
H10 H 0.3865 -0.6149 0.4044
H11 H 0.3968 -0.5889 0.3160
H12 H 0.5470 -0.5125 0.3997
H13 H 0.5154 -0.5758 0.3349
H14 H 0.5056 -0.6001 0.4238
H15 H 0.2159 -0.1514 0.6205
H16 H 0.0809 -0.2576 0.5127
H17 H 0.0390 -0.2768 0.5887
H18 H 0.1043 -0.3339 0.5718
H19 H 0.1427 -0.1599 0.7225
H20 H 0.0958 -0.2464 0.7151
H21 H 0.0692 -0.1487 0.6906
H22 H 0.0926 -0.3495 0.3660
H23 H -0.0069 -0.2753 0.3491
H24 H -0.0552 -0.3169 0.4126
H25 H -0.0662 -0.3401 0.3237
H26 H -0.0145 -0.5354 0.3391
H27 H -0.0790 -0.4951 0.3793
H28 H -0.0171 -0.5243 0.4305
O8A O 0.3944(2) -0.0674(2) 0.3906(3)
Zn2A Zn 0.17266(3) -0.66452(5) 0.39904(4)
loop_
_geom_bond_atom_site_label_1
_geom_bond_atom_site_label_2
_geom_bond_site_symmetry_1
_geom_bond_site_symmetry_2
Zn1 O1 1_555 1_555
Zn2 O2 1_555 1_555
O1 C1 1_555 1_555
O2 C1 1_555 1_555
C1 C2 1_555 1_555
C2 C3 1_555 1_555
C3 C4 1_555 1_555
C4 H2 1_555 1_555
C5 C3 1_555 1_555
O3 Zn1 1_555 1_555
O4 Zn2 1_555 1_555
C6 O3 1_555 1_555
C7 C6 1_555 1_555
C8 C7 1_555 1_555
C9 C8 1_555 1_555
C10 C8 1_555 1_555
O5 Zn1 1_555 1_555
O6 Zn2 1_555 1_555
C11 O5 1_555 1_555
C12 C11 1_555 1_555
C13 C12 1_555 1_555
C14 C13 1_555 1_555
C15 C13 1_555 1_555
O7 Zn1 1_555 1_555
O8 C16 1_555 1_555
C16 O7 1_555 1_555
C17 C16 1_555 1_555
C18 C17 1_555 1_555
C19 C18 1_555 1_555
C20 C18 1_555 1_555
H1 C2 1_555 1_555
H3 C4 1_555 1_555
H4 C4 1_555 1_555
H5 C5 1_555 1_555
H6 C5 1_555 1_555
H7 C5 1_555 1_555
H8 C7 1_555 1_555
H9 C9 1_555 1_555
H10 C9 1_555 1_555
H11 C9 1_555 1_555
H12 C10 1_555 1_555
H13 C10 1_555 1_555
H14 C10 1_555 1_555
H15 C12 1_555 1_555
H16 C14 1_555 1_555
H17 C14 1_555 1_555
H18 C14 1_555 1_555
H19 C15 1_555 1_555
H20 C15 1_555 1_555
H21 C15 1_555 1_555
H22 C17 1_555 1_555
H23 C19 1_555 1_555
H24 C19 1_555 1_555
H25 C19 1_555 1_555
H26 C20 1_555 1_555
H27 C20 1_555 1_555
H28 C20 1_555 1_555
O8A Zn2 1_555 1_555
Zn2A O8 1_555 1_555
O4 C6 1_555 1_555
O6 C11 1_555 1_555

#END
