
#######################################################################
#
#                 Cambridge Crystallographic Data Centre
#                                CCDC 
#
#######################################################################
#
# If this CIF has been generated from an entry in the Cambridge 
# Structural Database, then it will include bibliographic, chemical, 
# crystal, experimental, refinement or atomic coordinate data resulting 
# from the CCDC's data processing and validation procedures.
#
#######################################################################

data_VEMSUC01
_symmetry_cell_setting           orthorhombic
_symmetry_space_group_name_H-M   'P b c a'
_symmetry_Int_Tables_number      61
_space_group_name_Hall           '-P 2ac 2ab'
loop_
_symmetry_equiv_pos_site_id
_symmetry_equiv_pos_as_xyz
1 x,y,z
2 1/2-x,-y,1/2+z
3 -x,1/2+y,1/2-z
4 1/2+x,1/2-y,-z
5 -x,-y,-z
6 1/2+x,y,1/2-z
7 x,1/2-y,1/2+z
8 1/2-x,1/2+y,z
_cell_length_a                   14.0636(6)
_cell_length_b                   15.9152(7)
_cell_length_c                   16.5858(7)
_cell_angle_alpha                90
_cell_angle_beta                 90
_cell_angle_gamma                90
_cell_volume                     3712.32
loop_
_atom_site_label
_atom_site_type_symbol
_atom_site_fract_x
_atom_site_fract_y
_atom_site_fract_z
Ni1 Ni 0.47904(3) 0.81749(2) 0.39336(2)
Ni2 Ni 0.5000 1.0000 0.5000
C1 C 0.2570(2) 0.99550(18) 0.34118(18)
C2 C 0.2210(2) 1.07275(19) 0.36604(19)
H1 H 0.2459 1.0986 0.4131
C3 C 0.1490(2) 1.11270(19) 0.32273(19)
C4 C 0.1138(2) 1.07383(18) 0.25408(19)
H2 H 0.0682 1.1023 0.2218
C5 C 0.1440(2) 0.99350(18) 0.23144(18)
C6 C 0.2160(2) 0.95491(19) 0.27540(19)
H3 H 0.2374 0.9005 0.2604
C7 C 0.3434(2) 0.95928(18) 0.38255(18)
C8 C 0.1073(2) 1.19382(19) 0.3497(2)
C9 C 0.0962(2) 0.95317(18) 0.15954(18)
O1 O 0.36893(14) 0.99442(13) 0.44679(13)
O2 O 0.38201(15) 0.89734(14) 0.34818(14)
O3 O 0.13047(17) 1.22470(14) 0.41659(14)
O4 O 0.04497(16) 1.22877(13) 0.30538(13)
O5 O 0.06409(15) 1.00261(13) 0.10890(12)
O6 O 0.09141(15) 0.87368(13) 0.15982(13)
C10 C 0.5815(3) 0.8024(2) 0.6145(2)
H4 H 0.6494 0.7887 0.6165
H5 H 0.5452 0.7588 0.6425
H6 H 0.5706 0.8567 0.6407
C11 C 0.5499(2) 0.80715(19) 0.5281(2)
O7 O 0.56826(17) 0.75021(14) 0.47981(14)
O8 O 0.49763(14) 0.86860(14) 0.50511(13)
Ni1D Ni 0.52096(3) 1.18251(2) 0.60664(2)
Ni1G Ni 0.02096(3) 1.31749(2) 0.39336(2)
Ni1E Ni -0.02096(3) 0.81749(2) 0.10664(2)
Ni1C Ni 0.97904(3) 0.68251(2) 0.60664(2)
Ni1A Ni 1.02096(3) 1.18251(2) 0.89336(2)
Ni2A Ni 0.0000 1.0000 0.0000
Ni2A_2 Ni 1.0000 1.0000 1.0000
C1D C 0.7430(2) 1.00450(18) 0.65882(18)
C2D C 0.7790(2) 0.92725(19) 0.63396(19)
H1D H 0.7541 0.9014 0.5869
C3D C 0.8510(2) 0.88730(19) 0.67727(19)
C4D C 0.8862(2) 0.92617(18) 0.74592(19)
H2D H 0.9318 0.8977 0.7782
C5D C 0.8560(2) 1.00650(18) 0.76856(18)
C6D C 0.7840(2) 1.04509(19) 0.72460(19)
H3D H 0.7626 1.0995 0.7396
C7D C 0.6566(2) 1.04072(18) 0.61745(18)
C8D C 0.8927(2) 0.80618(19) 0.6503(2)
C9D C 0.9038(2) 1.04683(18) 0.84046(18)
O1D O 0.63107(14) 1.00558(13) 0.55321(13)
O2D O 0.61799(15) 1.10266(14) 0.65182(14)
O3D O 0.86953(17) 0.77530(14) 0.58341(14)
O3G O 0.36953(17) 0.72470(14) 0.41659(14)
O3C O 0.63047(17) 1.27530(14) 0.58341(14)
O4D O 0.95503(16) 0.77123(13) 0.69462(13)
O4G O 0.45503(16) 0.72877(13) 0.30538(13)
O4C O 0.54497(16) 1.27123(13) 0.69462(13)
O5D O 0.93591(15) 0.99739(13) 0.89110(12)
O5A O 0.43591(15) 0.99739(13) 0.60890(12)
O5E O 0.56409(15) 1.00261(13) 0.39110(12)
O6D O 0.90859(15) 1.12632(13) 0.84018(13)
O6E O 0.59141(15) 0.87368(13) 0.34018(13)
O6A O 0.40859(15) 1.12632(13) 0.65982(13)
C10D C 0.4185(3) 1.1976(2) 0.3855(2)
H4D H 0.3506 1.2113 0.3835
H5D H 0.4548 1.2412 0.3575
H6D H 0.4294 1.1433 0.3593
C11D C 0.4501(2) 1.19285(19) 0.4719(2)
O7D O 0.43174(17) 1.24979(14) 0.52019(14)
O8D O 0.50237(14) 1.13140(14) 0.49489(13)
N1 N -0.2332(5) 1.1534(5) 0.3907(4)
N2 N -0.1662(6) 1.0310(5) 0.3927(4)
C12 C -0.0726(15) 0.9149(14) 0.3881(13)
H7 H -0.0736 0.8591 0.4132
H8 H -0.0158 0.9454 0.4058
H9 H -0.0715 0.9088 0.3293
C13 C -0.1451(10) 0.9548(8) 0.4086(7)
H10 H -0.1474 0.9505 0.4681
H11 H -0.1994 0.9212 0.3884
C14 C -0.2870(6) 1.2323(6) 0.3968(5)
H12 H -0.3370 1.2262 0.4376
H13 H -0.3160 1.2453 0.3445
H14 H -0.2441 1.2779 0.4125
C15 C -0.2211(5) 1.0845(5) 0.4164(4)
H15 H -0.2594 1.0693 0.4612
C16 C -0.1564(5) 1.1524(4) 0.3318(4)
H16 H -0.1384 1.1974 0.2975
C17 C -0.1186(4) 1.0810(4) 0.3349(4)
H17 H -0.0660 1.0632 0.3032
loop_
_geom_bond_atom_site_label_1
_geom_bond_atom_site_label_2
_geom_bond_site_symmetry_1
_geom_bond_site_symmetry_2
Ni1 O2 1_555 1_555
Ni2 O1 1_555 1_555
C1 C2 1_555 1_555
C2 H1 1_555 1_555
C3 C2 1_555 1_555
C4 C3 1_555 1_555
H2 C4 1_555 1_555
C5 C4 1_555 1_555
C6 C1 1_555 1_555
H3 C6 1_555 1_555
C7 C1 1_555 1_555
C8 C3 1_555 1_555
C9 C5 1_555 1_555
O1 C7 1_555 1_555
O2 C7 1_555 1_555
O3 C8 1_555 1_555
O4 C8 1_555 1_555
O5 C9 1_555 1_555
O6 C9 1_555 1_555
C10 H4 1_555 1_555
H5 C10 1_555 1_555
H6 C10 1_555 1_555
C11 C10 1_555 1_555
O7 Ni1 1_555 1_555
O8 Ni1 1_555 1_555
N1 C14 1_555 1_555
N2 C13 1_555 1_555
C12 H7 1_555 1_555
H8 C12 1_555 1_555
H9 C12 1_555 1_555
C13 C12 1_555 1_555
H10 C13 1_555 1_555
H11 C13 1_555 1_555
C14 H12 1_555 1_555
H13 C14 1_555 1_555
H14 C14 1_555 1_555
C15 N1 1_555 1_555
H15 C15 1_555 1_555
C16 N1 1_555 1_555
H16 C16 1_555 1_555
C17 N2 1_555 1_555
H17 C17 1_555 1_555
Ni1D O2D 1_555 1_555
Ni1G O3 1_555 1_555
Ni1E O6 1_555 1_555
Ni1C O3D 1_555 1_555
Ni1A O6D 1_555 1_555
Ni2A O5 1_555 1_555
Ni2A_2 O5D 1_555 1_555
C1D C2D 1_555 1_555
C2D H1D 1_555 1_555
C3D C2D 1_555 1_555
C4D C3D 1_555 1_555
H2D C4D 1_555 1_555
C5D C4D 1_555 1_555
C6D C1D 1_555 1_555
H3D C6D 1_555 1_555
C7D C1D 1_555 1_555
C8D C3D 1_555 1_555
C9D C5D 1_555 1_555
O1D Ni2 1_555 1_555
O2D C7D 1_555 1_555
O3D C8D 1_555 1_555
O3G Ni1 1_555 1_555
O3C Ni1D 1_555 1_555
O4D Ni1C 1_555 1_555
O4G Ni1 1_555 1_555
O4C Ni1D 1_555 1_555
O5D C9D 1_555 1_555
O5A Ni2 1_555 1_555
O5E Ni2 1_555 1_555
O6D C9D 1_555 1_555
O6E Ni1 1_555 1_555
O6A Ni1D 1_555 1_555
C10D H4D 1_555 1_555
H5D C10D 1_555 1_555
H6D C10D 1_555 1_555
C11D C10D 1_555 1_555
O7D Ni1D 1_555 1_555
O8D Ni2 1_555 1_555
Ni2 O8 1_555 1_555
C5 C6 1_555 1_555
O4 Ni1G 1_555 1_555
C11 O7 1_555 1_555
C11 O8 1_555 1_555
N2 C15 1_555 1_555
C16 C17 1_555 1_555
Ni1D O8D 1_555 1_555
C5D C6D 1_555 1_555
C7D O1D 1_555 1_555
C8D O4D 1_555 1_555
C11D O7D 1_555 1_555
C11D O8D 1_555 1_555

#END
