
#######################################################################
#
#                 Cambridge Crystallographic Data Centre
#                                CCDC 
#
#######################################################################
#
# If this CIF has been generated from an entry in the Cambridge 
# Structural Database, then it will include bibliographic, chemical, 
# crystal, experimental, refinement or atomic coordinate data resulting 
# from the CCDC's data processing and validation procedures.
#
#######################################################################

data_VEMSUC
_symmetry_cell_setting           orthorhombic
_symmetry_space_group_name_H-M   'P b c a'
_symmetry_Int_Tables_number      61
_space_group_name_Hall           '-P 2ac 2ab'
loop_
_symmetry_equiv_pos_site_id
_symmetry_equiv_pos_as_xyz
1 x,y,z
2 1/2-x,-y,1/2+z
3 -x,1/2+y,1/2-z
4 1/2+x,1/2-y,-z
5 -x,-y,-z
6 1/2+x,y,1/2-z
7 x,1/2-y,1/2+z
8 1/2-x,1/2+y,z
_cell_length_a                   13.9666(8)
_cell_length_b                   15.9302(9)
_cell_length_c                   16.6479(9)
_cell_angle_alpha                90
_cell_angle_beta                 90
_cell_angle_gamma                90
_cell_volume                     3704
loop_
_atom_site_label
_atom_site_type_symbol
_atom_site_fract_x
_atom_site_fract_y
_atom_site_fract_z
Ni1 Ni 0.52002(3) 0.68241(2) 0.89366(2)
Ni2 Ni 0.5000 0.5000 1.0000
C1 C 0.7427(2) 0.50364(19) 0.84052(19)
C2 C 0.7842(2) 0.5446(2) 0.77493(19)
H1 H 0.7634 0.5993 0.7605
C3 C 0.8556(2) 0.50540(19) 0.73091(18)
C4 C 0.8867(2) 0.42561(19) 0.75304(19)
H2 H 0.9324 0.3972 0.7207
C5 C 0.8514(2) 0.3872(2) 0.82192(19)
C6 C 0.7791(2) 0.42668(19) 0.86568(19)
H3 H 0.7546 0.4009 0.9129
C7 C 0.6568(2) 0.54060(19) 0.88260(19)
C8 C 0.9025(2) 0.54632(19) 0.65949(18)
C9 C 0.8937(2) 0.3055(2) 0.8495(2)
C10 C 0.4497(2) 0.6932(2) 1.0283(2)
C11 C 0.4186(3) 0.6976(2) 1.1149(2)
H4 H 0.3502 0.7107 1.1175
H5 H 0.4551 0.7415 1.1426
H6 H 0.4305 0.6434 1.1409
O1 O 0.63181(15) 0.50584(14) 0.94717(13)
O2 O 0.61705(16) 0.60206(14) 0.84815(14)
O3 O 0.90642(16) 0.62584(14) 0.65864(14)
O4 O 0.93622(16) 0.49663(13) 0.60851(12)
O5 O 0.95606(16) 0.27044(14) 0.80548(14)
O6 O 0.86994(17) 0.27449(15) 0.91583(14)
O7 O 0.50215(15) 0.63133(14) 1.00461(13)
O8 O 0.43062(17) 0.74991(15) 0.97981(14)
Ni1D Ni 0.47998(3) 0.31759(2) 1.10634(2)
Ni1E Ni 1.02002(3) 0.68241(2) 0.60634(2)
Ni1G Ni 0.97998(3) 0.18241(2) 0.89366(2)
Ni1A Ni -0.02002(3) 0.31759(2) 1.39366(2)
Ni1C Ni 0.02002(3) 0.81759(2) 1.10634(2)
Ni2E Ni 1.0000 0.5000 0.5000
Ni2E_2 Ni 0.0000 0.5000 1.5000
C1D C 0.2573(2) 0.49636(19) 1.15948(19)
C2D C 0.2158(2) 0.4554(2) 1.22507(19)
H1D H 0.2366 0.4007 1.2395
C3D C 0.1444(2) 0.49460(19) 1.26909(18)
C4D C 0.1133(2) 0.57439(19) 1.24696(19)
H2D H 0.0676 0.6028 1.2793
C5D C 0.1486(2) 0.6128(2) 1.17808(19)
C6D C 0.2209(2) 0.57332(19) 1.13432(19)
H3D H 0.2454 0.5991 1.0871
C7D C 0.3432(2) 0.45940(19) 1.11740(19)
C8D C 0.0975(2) 0.45368(19) 1.34051(18)
C9D C 0.1063(2) 0.6945(2) 1.1505(2)
C10D C 0.5503(2) 0.3068(2) 0.9717(2)
C11D C 0.5814(3) 0.3024(2) 0.8851(2)
H4D H 0.6498 0.2893 0.8825
H5D H 0.5449 0.2585 0.8574
H6D H 0.5695 0.3566 0.8591
O1D O 0.36819(15) 0.49416(14) 1.05283(13)
O2D O 0.38295(16) 0.39794(14) 1.15185(14)
O3D O 0.09358(16) 0.37416(14) 1.34136(14)
O3E O 0.40642(16) 0.62584(14) 0.84136(14)
O3A O 0.59358(16) 0.37416(14) 1.15864(14)
O4D O 0.06378(16) 0.50337(13) 1.39149(12)
O4E O 0.43622(16) 0.49663(13) 0.89149(12)
O4A O 0.56378(16) 0.50337(13) 1.10851(12)
O5D O 0.04394(16) 0.72956(14) 1.19452(14)
O5G O 0.54394(16) 0.77044(14) 0.80548(14)
O5C O 0.45606(16) 0.22956(14) 1.19452(14)
O6D O 0.13006(17) 0.72551(15) 1.08417(14)
O6G O 0.63006(17) 0.77449(15) 0.91583(14)
O6C O 0.36994(17) 0.22551(15) 1.08417(14)
O7D O 0.49785(15) 0.36867(14) 0.99539(13)
O8D O 0.56938(17) 0.25009(15) 1.02019(14)
N1 N 0.7371(4) 0.3245(5) 0.6197(3)
C12 C 0.7430(4) 0.3969(5) 0.5790(3)
H7 H 0.7879 0.4096 0.5379
N2 N 0.6745(4) 0.4484(4) 0.6065(3)
C13 C 0.6261(3) 0.4077(4) 0.6642(3)
H8 H 0.5737 0.4294 0.6941
C14 C 0.6648(4) 0.3312(4) 0.6724(3)
H9 H 0.6446 0.2890 0.7091
C15 C 0.7966(6) 0.2558(9) 0.6045(6)
H10 H 0.8421 0.2703 0.5619
H11 H 0.7576 0.2079 0.5874
H12 H 0.8317 0.2411 0.6535
C16 C 0.6631(13) 0.5254(11) 0.5817(7)
H13 H 0.7275 0.5513 0.5835
H14 H 0.6457 0.5212 0.5242
C17 C 0.596(4) 0.589(3) 0.617(2)
H15 H 0.6019 0.6421 0.5868
H16 H 0.6130 0.5993 0.6732
H17 H 0.5303 0.5688 0.6134
C18? C 0.6631(13) 0.5254(11) 0.5817(7)
H18? H 0.7147 0.5397 0.5434
H19? H 0.6682 0.5641 0.6281
C19? C 0.564(3) 0.5379(19) 0.5403(18)
H20? H 0.5616 0.5941 0.5164
H21? H 0.5133 0.5320 0.5802
H22? H 0.5562 0.4956 0.4982
loop_
_geom_bond_atom_site_label_1
_geom_bond_atom_site_label_2
_geom_bond_site_symmetry_1
_geom_bond_site_symmetry_2
Ni1 O2 1_555 1_555
Ni2 O1 1_555 1_555
C1 C2 1_555 1_555
C2 H1 1_555 1_555
C3 C2 1_555 1_555
C4 C3 1_555 1_555
H2 C4 1_555 1_555
C5 C4 1_555 1_555
C6 C1 1_555 1_555
H3 C6 1_555 1_555
C7 C1 1_555 1_555
C8 C3 1_555 1_555
C9 C5 1_555 1_555
C10 C11 1_555 1_555
C11 H4 1_555 1_555
H5 C11 1_555 1_555
H6 C11 1_555 1_555
O1 C7 1_555 1_555
O2 C7 1_555 1_555
O3 C8 1_555 1_555
O4 C8 1_555 1_555
O5 C9 1_555 1_555
O6 C9 1_555 1_555
O7 Ni1 1_555 1_555
O8 Ni1 1_555 1_555
N1 C12 1_555 1_555
C12 H7 1_555 1_555
N2 C12 1_555 1_555
C13 N2 1_555 1_555
H8 C13 1_555 1_555
C14 N1 1_555 1_555
H9 C14 1_555 1_555
C15 N1 1_555 1_555
H10 C15 1_555 1_555
H11 C15 1_555 1_555
H12 C15 1_555 1_555
C16 N2 1_555 1_555
H13 C16 1_555 1_555
H14 C16 1_555 1_555
C17 C16 1_555 1_555
H15 C17 1_555 1_555
H16 C17 1_555 1_555
H17 C17 1_555 1_555
Ni1D O2D 1_555 1_555
Ni1E O3 1_555 1_555
Ni1G O5 1_555 1_555
Ni1A O3D 1_555 1_555
Ni1C O5D 1_555 1_555
Ni2E O4 1_555 1_555
Ni2E_2 O4D 1_555 1_555
C1D C2D 1_555 1_555
C2D H1D 1_555 1_555
C3D C2D 1_555 1_555
C4D C3D 1_555 1_555
H2D C4D 1_555 1_555
C5D C4D 1_555 1_555
C6D C1D 1_555 1_555
H3D C6D 1_555 1_555
C7D C1D 1_555 1_555
C8D C3D 1_555 1_555
C9D C5D 1_555 1_555
C10D C11D 1_555 1_555
C11D H4D 1_555 1_555
H5D C11D 1_555 1_555
H6D C11D 1_555 1_555
O1D Ni2 1_555 1_555
O2D C7D 1_555 1_555
O3D C8D 1_555 1_555
O3E Ni1 1_555 1_555
O3A Ni1D 1_555 1_555
O4D C8D 1_555 1_555
O4E Ni2 1_555 1_555
O4A Ni2 1_555 1_555
O5D C9D 1_555 1_555
O5G Ni1 1_555 1_555
O5C Ni1D 1_555 1_555
O6D Ni1C 1_555 1_555
O6G Ni1 1_555 1_555
O6C Ni1D 1_555 1_555
O7D Ni2 1_555 1_555
O8D Ni1D 1_555 1_555
Ni2 O7 1_555 1_555
C5 C6 1_555 1_555
C10 O7 1_555 1_555
C10 O8 1_555 1_555
O6 Ni1G 1_555 1_555
C13 C14 1_555 1_555
Ni1D O7D 1_555 1_555
C5D C6D 1_555 1_555
C7D O1D 1_555 1_555
C9D O6D 1_555 1_555
C10D O7D 1_555 1_555
C10D O8D 1_555 1_555

#END
