
#######################################################################
#
#                 Cambridge Crystallographic Data Centre
#                                CCDC 
#
#######################################################################
#
# If this CIF has been generated from an entry in the Cambridge 
# Structural Database, then it will include bibliographic, chemical, 
# crystal, experimental, refinement or atomic coordinate data resulting 
# from the CCDC's data processing and validation procedures.
#
#######################################################################

data_VEMVAK
_symmetry_cell_setting           monoclinic
_symmetry_space_group_name_H-M   'P 21/n'
_symmetry_Int_Tables_number      14
_space_group_name_Hall           '-P 2yn'
loop_
_symmetry_equiv_pos_site_id
_symmetry_equiv_pos_as_xyz
1 x,y,z
2 1/2-x,1/2+y,1/2-z
3 -x,-y,-z
4 1/2+x,1/2-y,1/2+z
_cell_length_a                   5.849(2)
_cell_length_b                   7.720(5)
_cell_length_c                   22.573(5)
_cell_angle_alpha                90
_cell_angle_beta                 83.16(1)
_cell_angle_gamma                90
_cell_volume                     1012.01
loop_
_atom_site_label
_atom_site_type_symbol
_atom_site_fract_x
_atom_site_fract_y
_atom_site_fract_z
Ag1 Ag 0.1390(1) 0.0575(1) 0.0510
S1 S -0.3607(2) -0.0916(2) 0.0952(1)
N1 N -0.2416(8) 0.0811(7) 0.0633(2)
N2 N -0.5887(14) -0.0064(10) 0.3546(3)
O1 O -0.5635(7) -0.1444(6) 0.0692(2)
O2 O -0.1781(8) -0.2188(6) 0.0898(2)
O3 O -0.5770(7) 0.2411(6) 0.0800(2)
C1 C -0.4410(10) -0.0484(8) 0.1713(3)
C2 C -0.6390(11) -0.1223(9) 0.2001(3)
C3 C -0.6878(12) -0.1083(10) 0.2610(3)
C4 C -0.5418(11) -0.0183(8) 0.2947(3)
C5 C -0.3445(12) 0.0577(10) 0.2642(3)
C6 C -0.2928(11) 0.0416(9) 0.2039(3)
C7 C -0.3694(10) 0.2284(8) 0.0598(3)
C8 C -0.2410(12) 0.3784(9) 0.0304(3)
H1 H -0.729(11) -0.194(9) 0.178(3)
H2 H -0.803(11) -0.160(9) 0.278(3)
H3 H -0.251(12) 0.117(9) 0.286(3)
H4 H -0.177(14) 0.106(11) 0.184(4)
H5 H -0.522(16) 0.044(13) 0.375(4)
H6 H -0.703(14) -0.052(12) 0.375(4)
H7 H -0.306 0.478 0.045
H8 H -0.081 0.382 0.036
H9 H -0.251 0.376 -0.009
O1_2 O 0.4365(7) -0.1444(6) 0.0692(2)
O3_2 O 0.4230(7) 0.2411(6) 0.0800(2)
Ag1_2 Ag -0.8610(1) 0.0575(1) 0.0510
loop_
_geom_bond_atom_site_label_1
_geom_bond_atom_site_label_2
_geom_bond_site_symmetry_1
_geom_bond_site_symmetry_2
Ag1 N1 1_555 1_555
S1 N1 1_555 1_555
N1 C7 1_555 1_555
N2 C4 1_555 1_555
O1 S1 1_555 1_555
O2 S1 1_555 1_555
O3 C7 1_555 1_555
C1 S1 1_555 1_555
C2 C1 1_555 1_555
C3 C2 1_555 1_555
C4 C3 1_555 1_555
C5 C4 1_555 1_555
C6 C1 1_555 1_555
C7 C8 1_555 1_555
C8 H7 1_555 1_555
H1 C2 1_555 1_555
H2 C3 1_555 1_555
H3 C5 1_555 1_555
H4 C6 1_555 1_555
H5 N2 1_555 1_555
H6 N2 1_555 1_555
H8 C8 1_555 1_555
H9 C8 1_555 1_555
O1_2 Ag1 1_555 1_555
O3_2 Ag1 1_555 1_555
Ag1_2 O1 1_555 1_555
O3 Ag1_2 1_555 1_555
C5 C6 1_555 1_555

#END
