
#######################################################################
#
#                 Cambridge Crystallographic Data Centre
#                                CCDC 
#
#######################################################################
#
# If this CIF has been generated from an entry in the Cambridge 
# Structural Database, then it will include bibliographic, chemical, 
# crystal, experimental, refinement or atomic coordinate data resulting 
# from the CCDC's data processing and validation procedures.
#
#######################################################################

data_VEMXES03
_symmetry_cell_setting           monoclinic
_symmetry_space_group_name_H-M   'P 21/n'
_symmetry_Int_Tables_number      14
_space_group_name_Hall           '-P 2yn'
loop_
_symmetry_equiv_pos_site_id
_symmetry_equiv_pos_as_xyz
1 x,y,z
2 1/2-x,1/2+y,1/2-z
3 -x,-y,-z
4 1/2+x,1/2-y,1/2+z
_cell_length_a                   8.149(2)
_cell_length_b                   15.727(3)
_cell_length_c                   11.222(3)
_cell_angle_alpha                90
_cell_angle_beta                 107.63(3)
_cell_angle_gamma                90
_cell_volume                     1370.65
loop_
_atom_site_label
_atom_site_type_symbol
_atom_site_fract_x
_atom_site_fract_y
_atom_site_fract_z
Fe1 Fe 0.0000 0.0000 0.5000
N1 N 0.3702(3) -0.02757(14) 0.8440(2)
N2 N 0.4194(3) 0.04118(14) 0.7935(2)
N3 N 0.3220(3) 0.05906(14) 0.6799(2)
N4 N 0.2004(3) -0.00019(15) 0.6528(2)
N5 N 0.6512(3) -0.06129(15) 0.6934(2)
N6 N 0.7526(3) -0.00035(15) 0.75948(19)
N7 N 0.8721(3) 0.02645(14) 0.7120(2)
N8 N 0.8496(3) -0.01819(14) 0.6082(2)
N9 N -0.0202(3) 0.12105(16) 0.5224(2)
C1 C 0.5770(3) 0.08892(17) 0.8540(3)
H1 H 0.5713 0.1120 0.9347
H2 H 0.5867 0.1374 0.8002
C2 C 0.7348(3) 0.03221(18) 0.8765(3)
H3 H 0.8391 0.0651 0.9208
H4 H 0.7251 -0.0161 0.9306
C3 C 0.2327(4) -0.05170(18) 0.7534(3)
H5 H 0.1645 -0.0997 0.7585
C4 C 0.7166(4) -0.07162(18) 0.5997(3)
H6 H 0.6749 -0.1118 0.5343
C5 C -0.0189(4) 0.1863(2) 0.5660(3)
C6 C -0.0093(4) 0.26581(19) 0.6337(3)
H7 H -0.1252 0.2917 0.6130
H8 H 0.0673 0.3059 0.6079
C7 C 0.0600(6) 0.2503(2) 0.7743(3)
H9 H 0.0440 0.3016 0.8191
H10 H 0.1828 0.2364 0.7971
H11 H -0.0025 0.2028 0.7971
Fe1_2 Fe -1.0000 0.0000 0.5000
Fe1_3 Fe 1.0000 0.0000 0.5000
N1B N -0.3702(3) 0.02757(14) 0.1560(2)
N2B N -0.4194(3) -0.04118(14) 0.2065(2)
N3B N -0.3220(3) -0.05906(14) 0.3201(2)
N4B N -0.2004(3) 0.00019(15) 0.3472(2)
N5B N -0.6512(3) 0.06129(15) 0.3066(2)
N6B N -0.7526(3) 0.00035(15) 0.24052(19)
N7B N -0.8721(3) -0.02645(14) 0.2880(2)
N8B N -0.8496(3) 0.01819(14) 0.3918(2)
N8_2 N -0.1504(3) -0.01819(14) 0.6082(2)
N8B_2 N 0.1504(3) 0.01819(14) 0.3918(2)
N9B N 0.0202(3) -0.12105(16) 0.4776(2)
C1B C -0.5770(3) -0.08892(17) 0.1460(3)
H1B H -0.5713 -0.1120 0.0653
H2B H -0.5867 -0.1374 0.1998
C2B C -0.7348(3) -0.03221(18) 0.1235(3)
H3B H -0.8391 -0.0651 0.0792
H4B H -0.7251 0.0161 0.0694
C3B C -0.2327(4) 0.05170(18) 0.2466(3)
H5B H -0.1645 0.0997 0.2415
C4B C -0.7166(4) 0.07162(18) 0.4003(3)
H6B H -0.6749 0.1118 0.4657
C5B C 0.0189(4) -0.1863(2) 0.4340(3)
C6B C 0.0093(4) -0.26581(19) 0.3663(3)
H7B H 0.1252 -0.2917 0.3870
H8B H -0.0673 -0.3059 0.3921
C7B C -0.0600(6) -0.2503(2) 0.2257(3)
H9B H -0.0440 -0.3016 0.1809
H10B H -0.1828 -0.2364 0.2029
H11B H 0.0025 -0.2028 0.2029
Cl1 Cl -0.00577(10) 0.22043(5) 0.09928(7)
O1 O 0.0854(3) 0.29588(12) 0.08599(19)
O2 O -0.1802(3) 0.22495(14) 0.0184(2)
O3 O 0.0760(3) 0.14686(13) 0.0657(2)
O4 O -0.0051(4) 0.21334(15) 0.2265(2)
loop_
_geom_bond_atom_site_label_1
_geom_bond_atom_site_label_2
_geom_bond_site_symmetry_1
_geom_bond_site_symmetry_2
Fe1 N4 1_555 1_555
Cl1 O1 1_555 1_555
O2 Cl1 1_555 1_555
O3 Cl1 1_555 1_555
O4 Cl1 1_555 1_555
N1 N2 1_555 1_555
N2 N3 1_555 1_555
N3 N4 1_555 1_555
N4 C3 1_555 1_555
N5 N6 1_555 1_555
N6 N7 1_555 1_555
N7 N8 1_555 1_555
N8 C4 1_555 1_555
N9 Fe1 1_555 1_555
C1 N2 1_555 1_555
H1 C1 1_555 1_555
H2 C1 1_555 1_555
C2 N6 1_555 1_555
H3 C2 1_555 1_555
H4 C2 1_555 1_555
C3 N1 1_555 1_555
H5 C3 1_555 1_555
C4 N5 1_555 1_555
H6 C4 1_555 1_555
C5 N9 1_555 1_555
C6 C5 1_555 1_555
H7 C6 1_555 1_555
H8 C6 1_555 1_555
C7 C6 1_555 1_555
H9 C7 1_555 1_555
H10 C7 1_555 1_555
H11 C7 1_555 1_555
Fe1_2 N8B 1_555 1_555
Fe1_3 N8 1_555 1_555
N1B N2B 1_555 1_555
N2B N3B 1_555 1_555
N3B N4B 1_555 1_555
N4B Fe1 1_555 1_555
N5B N6B 1_555 1_555
N6B N7B 1_555 1_555
N7B N8B 1_555 1_555
N8B C4B 1_555 1_555
N8_2 Fe1 1_555 1_555
N8B_2 Fe1 1_555 1_555
N9B Fe1 1_555 1_555
C1B N2B 1_555 1_555
H1B C1B 1_555 1_555
H2B C1B 1_555 1_555
C2B N6B 1_555 1_555
H3B C2B 1_555 1_555
H4B C2B 1_555 1_555
C3B N1B 1_555 1_555
H5B C3B 1_555 1_555
C4B N5B 1_555 1_555
H6B C4B 1_555 1_555
C5B N9B 1_555 1_555
C6B C5B 1_555 1_555
H7B C6B 1_555 1_555
H8B C6B 1_555 1_555
C7B C6B 1_555 1_555
H9B C7B 1_555 1_555
H10B C7B 1_555 1_555
H11B C7B 1_555 1_555
C1 C2 1_555 1_555
N4B C3B 1_555 1_555
C1B C2B 1_555 1_555

#END
