
#######################################################################
#
#                 Cambridge Crystallographic Data Centre
#                                CCDC 
#
#######################################################################
#
# If this CIF has been generated from an entry in the Cambridge 
# Structural Database, then it will include bibliographic, chemical, 
# crystal, experimental, refinement or atomic coordinate data resulting 
# from the CCDC's data processing and validation procedures.
#
#######################################################################

data_VEMXES02
_symmetry_cell_setting           monoclinic
_symmetry_space_group_name_H-M   'P 21/n'
_symmetry_Int_Tables_number      14
_space_group_name_Hall           '-P 2yn'
loop_
_symmetry_equiv_pos_site_id
_symmetry_equiv_pos_as_xyz
1 x,y,z
2 1/2-x,1/2+y,1/2-z
3 -x,-y,-z
4 1/2+x,1/2-y,1/2+z
_cell_length_a                   8.144(2)
_cell_length_b                   15.725(3)
_cell_length_c                   11.217(3)
_cell_angle_alpha                90
_cell_angle_beta                 107.64(3)
_cell_angle_gamma                90
_cell_volume                     1368.95
loop_
_atom_site_label
_atom_site_type_symbol
_atom_site_fract_x
_atom_site_fract_y
_atom_site_fract_z
Fe1 Fe 0.0000 0.0000 0.5000
N1 N 0.3704(3) -0.02766(14) 0.8440(2)
N2 N 0.4197(3) 0.04151(13) 0.7938(2)
N3 N 0.3220(3) 0.05943(14) 0.6795(2)
N4 N 0.2005(3) 0.00002(14) 0.65267(19)
N5 N 0.6516(3) -0.06146(14) 0.6940(2)
N6 N 0.7533(3) -0.00039(14) 0.75992(19)
N7 N 0.8727(3) 0.02664(14) 0.7123(2)
N8 N 0.8503(3) -0.01851(13) 0.6081(2)
N9 N -0.0203(3) 0.12108(15) 0.52247(19)
C1 C 0.5776(3) 0.08934(17) 0.8544(3)
H1 H 0.5719 0.1124 0.9352
H2 H 0.5873 0.1378 0.8007
C2 C 0.7352(3) 0.03257(18) 0.8769(2)
H3 H 0.8395 0.0654 0.9211
H4 H 0.7254 -0.0156 0.9312
C3 C 0.2324(3) -0.05206(17) 0.7531(3)
H5 H 0.1642 -0.1002 0.7579
C4 C 0.7165(3) -0.07140(17) 0.5998(3)
H6 H 0.6738 -0.1112 0.5340
C5 C -0.0186(3) 0.18642(18) 0.5661(3)
C6 C -0.0081(4) 0.26628(18) 0.6344(3)
H7 H -0.1237 0.2927 0.6133
H8 H 0.0698 0.3061 0.6095
C7 C 0.0595(5) 0.2501(2) 0.7749(3)
H9 H 0.0444 0.3015 0.8200
H10 H 0.1821 0.2355 0.7981
H11 H -0.0046 0.2030 0.7969
Fe1_2 Fe -1.0000 0.0000 0.5000
Fe1_3 Fe 1.0000 0.0000 0.5000
N1B N -0.3704(3) 0.02766(14) 0.1560(2)
N2B N -0.4197(3) -0.04151(13) 0.2062(2)
N3B N -0.3220(3) -0.05943(14) 0.3205(2)
N4B N -0.2005(3) -0.00002(14) 0.34733(19)
N5B N -0.6516(3) 0.06146(14) 0.3060(2)
N6B N -0.7533(3) 0.00039(14) 0.24008(19)
N7B N -0.8727(3) -0.02664(14) 0.2877(2)
N8B N -0.8503(3) 0.01851(13) 0.3919(2)
N8_2 N -0.1497(3) -0.01851(13) 0.6081(2)
N8B_2 N 0.1497(3) 0.01851(13) 0.3919(2)
N9B N 0.0203(3) -0.12108(15) 0.47753(19)
C1B C -0.5776(3) -0.08934(17) 0.1456(3)
H1B H -0.5719 -0.1124 0.0648
H2B H -0.5873 -0.1378 0.1993
C2B C -0.7352(3) -0.03257(18) 0.1231(2)
H3B H -0.8395 -0.0654 0.0789
H4B H -0.7254 0.0156 0.0688
C3B C -0.2324(3) 0.05206(17) 0.2469(3)
H5B H -0.1642 0.1002 0.2421
C4B C -0.7165(3) 0.07140(17) 0.4002(3)
H6B H -0.6738 0.1112 0.4660
C5B C 0.0186(3) -0.18642(18) 0.4339(3)
C6B C 0.0081(4) -0.26628(18) 0.3656(3)
H7B H 0.1237 -0.2927 0.3867
H8B H -0.0698 -0.3061 0.3905
C7B C -0.0595(5) -0.2501(2) 0.2251(3)
H9B H -0.0444 -0.3015 0.1800
H10B H -0.1821 -0.2355 0.2019
H11B H 0.0046 -0.2030 0.2031
Cl1 Cl -0.00539(9) 0.22073(4) 0.09916(6)
O1 O 0.0869(2) 0.29647(12) 0.08666(18)
O2 O -0.1801(2) 0.22537(13) 0.0177(2)
O3 O 0.0766(3) 0.14692(13) 0.0660(2)
O4 O -0.0054(3) 0.21343(14) 0.2269(2)
loop_
_geom_bond_atom_site_label_1
_geom_bond_atom_site_label_2
_geom_bond_site_symmetry_1
_geom_bond_site_symmetry_2
Fe1 N4 1_555 1_555
Cl1 O1 1_555 1_555
O2 Cl1 1_555 1_555
O3 Cl1 1_555 1_555
O4 Cl1 1_555 1_555
N1 N2 1_555 1_555
N2 N3 1_555 1_555
N3 N4 1_555 1_555
N4 C3 1_555 1_555
N5 N6 1_555 1_555
N6 N7 1_555 1_555
N7 N8 1_555 1_555
N8 C4 1_555 1_555
N9 Fe1 1_555 1_555
C1 N2 1_555 1_555
H1 C1 1_555 1_555
H2 C1 1_555 1_555
C2 N6 1_555 1_555
H3 C2 1_555 1_555
H4 C2 1_555 1_555
C3 N1 1_555 1_555
H5 C3 1_555 1_555
C4 N5 1_555 1_555
H6 C4 1_555 1_555
C5 N9 1_555 1_555
C6 C5 1_555 1_555
H7 C6 1_555 1_555
H8 C6 1_555 1_555
C7 C6 1_555 1_555
H9 C7 1_555 1_555
H10 C7 1_555 1_555
H11 C7 1_555 1_555
Fe1_2 N8B 1_555 1_555
Fe1_3 N8 1_555 1_555
N1B N2B 1_555 1_555
N2B N3B 1_555 1_555
N3B N4B 1_555 1_555
N4B Fe1 1_555 1_555
N5B N6B 1_555 1_555
N6B N7B 1_555 1_555
N7B N8B 1_555 1_555
N8B C4B 1_555 1_555
N8_2 Fe1 1_555 1_555
N8B_2 Fe1 1_555 1_555
N9B Fe1 1_555 1_555
C1B N2B 1_555 1_555
H1B C1B 1_555 1_555
H2B C1B 1_555 1_555
C2B N6B 1_555 1_555
H3B C2B 1_555 1_555
H4B C2B 1_555 1_555
C3B N1B 1_555 1_555
H5B C3B 1_555 1_555
C4B N5B 1_555 1_555
H6B C4B 1_555 1_555
C5B N9B 1_555 1_555
C6B C5B 1_555 1_555
H7B C6B 1_555 1_555
H8B C6B 1_555 1_555
C7B C6B 1_555 1_555
H9B C7B 1_555 1_555
H10B C7B 1_555 1_555
H11B C7B 1_555 1_555
C1 C2 1_555 1_555
N4B C3B 1_555 1_555
C1B C2B 1_555 1_555

#END
