
#######################################################################
#
#                 Cambridge Crystallographic Data Centre
#                                CCDC 
#
#######################################################################
#
# If this CIF has been generated from an entry in the Cambridge 
# Structural Database, then it will include bibliographic, chemical, 
# crystal, experimental, refinement or atomic coordinate data resulting 
# from the CCDC's data processing and validation procedures.
#
#######################################################################

data_VEMXES07
_symmetry_cell_setting           monoclinic
_symmetry_space_group_name_H-M   'P 21/n'
_symmetry_Int_Tables_number      14
_space_group_name_Hall           '-P 2yn'
loop_
_symmetry_equiv_pos_site_id
_symmetry_equiv_pos_as_xyz
1 x,y,z
2 1/2-x,1/2+y,1/2-z
3 -x,-y,-z
4 1/2+x,1/2-y,1/2+z
_cell_length_a                   8.287(2)
_cell_length_b                   15.054(3)
_cell_length_c                   11.692(3)
_cell_angle_alpha                90
_cell_angle_beta                 106.24(3)
_cell_angle_gamma                90
_cell_volume                     1400.41
loop_
_atom_site_label
_atom_site_type_symbol
_atom_site_fract_x
_atom_site_fract_y
_atom_site_fract_z
Fe1 Fe 0.0000 0.0000 0.5000
N1 N 0.35567(18) -0.01216(10) 0.85494(13)
N2 N 0.41385(16) 0.05243(9) 0.79813(11)
N3 N 0.32673(16) 0.06504(9) 0.68598(11)
N4 N 0.20337(17) 0.00607(9) 0.66644(12)
N5 N 0.63195(17) -0.05945(10) 0.69258(12)
N6 N 0.73505(17) 0.00172(8) 0.75777(12)
N7 N 0.85267(16) 0.02902(10) 0.71133(12)
N8 N 0.82838(17) -0.01661(10) 0.60968(12)
N9 N -0.02629(17) 0.14219(10) 0.51609(12)
C1 C 0.57053(19) 0.09984(11) 0.85252(13)
H1 H 0.5669 0.1253 0.9298
H2 H 0.5839 0.1492 0.8000
C2 C 0.71888(19) 0.03667(11) 0.87187(13)
H3 H 0.8234 0.0683 0.9138
H4 H 0.7037 -0.0134 0.9228
C3 C 0.2232(2) -0.03987(11) 0.76950(14)
H5 H 0.1507 -0.0864 0.7793
C4 C 0.6946(2) -0.06961(11) 0.60024(14)
H6 H 0.6505 -0.1092 0.5359
C5 C -0.0224(2) 0.20016(11) 0.58095(15)
C6 C -0.0114(2) 0.27049(13) 0.67078(17)
H7 H -0.1196 0.2744 0.6909
H8 H 0.0090 0.3284 0.6371
C7 C 0.1304(2) 0.25171(13) 0.78424(16)
H9 H 0.1292 0.2969 0.8443
H10 H 0.2388 0.2534 0.7659
H11 H 0.1140 0.1929 0.8151
Fe1_2 Fe -1.0000 0.0000 0.5000
Fe1_3 Fe 1.0000 0.0000 0.5000
N1B N -0.35567(18) 0.01216(10) 0.14506(13)
N2B N -0.41385(16) -0.05243(9) 0.20187(11)
N3B N -0.32673(16) -0.06504(9) 0.31402(11)
N4B N -0.20337(17) -0.00607(9) 0.33356(12)
N5B N -0.63195(17) 0.05945(10) 0.30742(12)
N6B N -0.73505(17) -0.00172(8) 0.24223(12)
N7B N -0.85267(16) -0.02902(10) 0.28867(12)
N8B N -0.82838(17) 0.01661(10) 0.39032(12)
N8_2 N -0.17162(17) -0.01661(10) 0.60968(12)
N8B_2 N 0.17162(17) 0.01661(10) 0.39032(12)
N9B N 0.02629(17) -0.14219(10) 0.48391(12)
C1B C -0.57053(19) -0.09984(11) 0.14748(13)
H1B H -0.5669 -0.1253 0.0702
H2B H -0.5839 -0.1492 0.2000
C2B C -0.71888(19) -0.03667(11) 0.12813(13)
H3B H -0.8234 -0.0683 0.0862
H4B H -0.7037 0.0134 0.0772
C3B C -0.2232(2) 0.03987(11) 0.23050(14)
H5B H -0.1507 0.0864 0.2207
C4B C -0.6946(2) 0.06961(11) 0.39976(14)
H6B H -0.6505 0.1092 0.4641
C5B C 0.0224(2) -0.20016(11) 0.41905(15)
C6B C 0.0114(2) -0.27049(13) 0.32922(17)
H7B H 0.1196 -0.2744 0.3091
H8B H -0.0090 -0.3284 0.3629
C7B C -0.1304(2) -0.25171(13) 0.21576(16)
H9B H -0.1292 -0.2969 0.1557
H10B H -0.2388 -0.2534 0.2341
H11B H -0.1140 -0.1929 0.1849
Cl1 Cl 0.00946(5) 0.21270(3) 0.09223(3)
O1 O 0.08302(16) 0.29668(8) 0.07458(11)
O2 O -0.16892(16) 0.21551(9) 0.03831(12)
O3 O 0.08011(16) 0.14113(9) 0.03862(12)
O4 O 0.04339(17) 0.19583(9) 0.21983(11)
loop_
_geom_bond_atom_site_label_1
_geom_bond_atom_site_label_2
_geom_bond_site_symmetry_1
_geom_bond_site_symmetry_2
Fe1 N4 1_555 1_555
Cl1 O1 1_555 1_555
O2 Cl1 1_555 1_555
O3 Cl1 1_555 1_555
O4 Cl1 1_555 1_555
N1 N2 1_555 1_555
N2 N3 1_555 1_555
N3 N4 1_555 1_555
N4 C3 1_555 1_555
N5 N6 1_555 1_555
N6 N7 1_555 1_555
N7 N8 1_555 1_555
N8 C4 1_555 1_555
N9 Fe1 1_555 1_555
C1 N2 1_555 1_555
H1 C1 1_555 1_555
H2 C1 1_555 1_555
C2 N6 1_555 1_555
H3 C2 1_555 1_555
H4 C2 1_555 1_555
C3 N1 1_555 1_555
H5 C3 1_555 1_555
C4 N5 1_555 1_555
H6 C4 1_555 1_555
C5 N9 1_555 1_555
C6 C5 1_555 1_555
H7 C6 1_555 1_555
H8 C6 1_555 1_555
C7 C6 1_555 1_555
H9 C7 1_555 1_555
H10 C7 1_555 1_555
H11 C7 1_555 1_555
Fe1_2 N8B 1_555 1_555
Fe1_3 N8 1_555 1_555
N1B N2B 1_555 1_555
N2B N3B 1_555 1_555
N3B N4B 1_555 1_555
N4B Fe1 1_555 1_555
N5B N6B 1_555 1_555
N6B N7B 1_555 1_555
N7B N8B 1_555 1_555
N8B C4B 1_555 1_555
N8_2 Fe1 1_555 1_555
N8B_2 Fe1 1_555 1_555
N9B Fe1 1_555 1_555
C1B N2B 1_555 1_555
H1B C1B 1_555 1_555
H2B C1B 1_555 1_555
C2B N6B 1_555 1_555
H3B C2B 1_555 1_555
H4B C2B 1_555 1_555
C3B N1B 1_555 1_555
H5B C3B 1_555 1_555
C4B N5B 1_555 1_555
H6B C4B 1_555 1_555
C5B N9B 1_555 1_555
C6B C5B 1_555 1_555
H7B C6B 1_555 1_555
H8B C6B 1_555 1_555
C7B C6B 1_555 1_555
H9B C7B 1_555 1_555
H10B C7B 1_555 1_555
H11B C7B 1_555 1_555
C1 C2 1_555 1_555
N4B C3B 1_555 1_555
C1B C2B 1_555 1_555

#END
