
#######################################################################
#
#                 Cambridge Crystallographic Data Centre
#                                CCDC 
#
#######################################################################
#
# If this CIF has been generated from an entry in the Cambridge 
# Structural Database, then it will include bibliographic, chemical, 
# crystal, experimental, refinement or atomic coordinate data resulting 
# from the CCDC's data processing and validation procedures.
#
#######################################################################

data_VENBEV
_symmetry_cell_setting           orthorhombic
_symmetry_space_group_name_H-M   'P n a b'
_symmetry_Int_Tables_number      60
_space_group_name_Hall           '-P 2bc 2n'
loop_
_symmetry_equiv_pos_site_id
_symmetry_equiv_pos_as_xyz
1 x,y,z
2 1/2-x,1/2+y,1/2+z
3 1/2+x,-y,z
4 -x,1/2-y,1/2+z
5 -x,-y,-z
6 1/2+x,1/2-y,1/2-z
7 1/2-x,y,-z
8 x,1/2+y,1/2-z
_cell_length_a                   10.020(1)
_cell_length_b                   12.065(1)
_cell_length_c                   16.589(1)
_cell_angle_alpha                90
_cell_angle_beta                 90
_cell_angle_gamma                90
_cell_volume                     2005.47
loop_
_atom_site_label
_atom_site_type_symbol
_atom_site_fract_x
_atom_site_fract_y
_atom_site_fract_z
Cu1 Cu -0.00480(9) 0.12933(7) 0.22359(5)
N1 N -0.0935(5) 0.1620(4) 0.1129(3)
O1 O 0.1614(5) 0.3686(4) 0.0966(3)
O2 O 0.1381(4) 0.2214(4) 0.1787(3)
O3 O -0.1699(4) 0.0482(3) 0.2439(3)
O4 O -0.3851(5) 0.0453(4) 0.2061(3)
C1 C -0.1021(6) -0.0245(5) 0.0532(4)
C2 C 0.0567(6) 0.1044(5) 0.0003(4)
C3 C -0.0476(6) 0.0809(5) 0.0546(3)
C4 C -0.0471(6) 0.2771(5) 0.0964(4)
C5 C 0.0981(7) 0.2910(5) 0.1255(4)
C6 C -0.2673(7) 0.0756(5) 0.1981(4)
C7 C -0.2393(6) 0.1551(5) 0.1298(4)
O5 O 0.0911(5) 0.1018(5) 0.3279(3)
O6 O -0.0933(5) 0.2844(4) 0.2837(3)
H1 H 0.102 0.175 0.001
H2 H -0.163 -0.046 0.094
H3 H -0.103 0.332 0.129
H4 H -0.057 0.295 0.039
H5 H -0.281 0.130 0.079
H6 H -0.273 0.223 0.150
C2D C -0.0567(6) -0.1044(5) -0.0003(4)
C3D C 0.0476(6) -0.0809(5) -0.0546(3)
N1D N 0.0935(5) -0.1620(4) -0.1129(3)
Cu1D Cu 0.00480(9) -0.12933(7) -0.22359(5)
O2D O -0.1381(4) -0.2214(4) -0.1787(3)
C5D C -0.0981(7) -0.2910(5) -0.1255(4)
O1D O -0.1614(5) -0.3686(4) -0.0966(3)
C4D C 0.0471(6) -0.2771(5) -0.0964(4)
C7D C 0.2393(6) -0.1551(5) -0.1298(4)
C6D C 0.2673(7) -0.0756(5) -0.1981(4)
O3D O 0.1699(4) -0.0482(3) -0.2439(3)
O4F O -0.1149(5) 0.0453(4) -0.2061(3)
Cu1B Cu -0.50480(9) -0.12933(7) 0.22359(5)
O4B O 0.1149(5) -0.0453(4) 0.2061(3)
O5D O -0.0911(5) -0.1018(5) -0.3279(3)
O6D O 0.0933(5) -0.2844(4) -0.2837(3)
O4D O 0.3851(5) -0.0453(4) -0.2061(3)
H5D H 0.281 -0.130 -0.079
H6D H 0.273 -0.223 -0.150
H3D H 0.103 -0.332 -0.129
H4D H 0.057 -0.295 -0.039
C1D C 0.1021(6) 0.0245(5) -0.0532(4)
H2D H 0.163 0.046 -0.094
H1D H -0.102 -0.175 -0.001
Cu1F Cu 0.50480(9) 0.12933(7) -0.22359(5)
O7 O 0.4070(5) 0.4477(5) 0.0618(3)
loop_
_geom_bond_atom_site_label_1
_geom_bond_atom_site_label_2
_geom_bond_site_symmetry_1
_geom_bond_site_symmetry_2
Cu1 N1 1_555 1_555
N1 C3 1_555 1_555
O1 C5 1_555 1_555
O2 Cu1 1_555 1_555
O3 Cu1 1_555 1_555
O4 C6 1_555 1_555
C1 C3 1_555 1_555
C2 C3 1_555 1_555
C4 N1 1_555 1_555
C5 O2 1_555 1_555
C6 O3 1_555 1_555
C7 N1 1_555 1_555
O5 Cu1 1_555 1_555
O6 Cu1 1_555 1_555
H1 C2 1_555 1_555
H2 C1 1_555 1_555
H3 C4 1_555 1_555
H4 C4 1_555 1_555
H5 C7 1_555 1_555
H6 C7 1_555 1_555
C2D C1 1_555 1_555
C3D C2D 1_555 1_555
N1D C3D 1_555 1_555
Cu1D N1D 1_555 1_555
O2D Cu1D 1_555 1_555
C5D O2D 1_555 1_555
O1D C5D 1_555 1_555
C4D N1D 1_555 1_555
C7D N1D 1_555 1_555
C6D C7D 1_555 1_555
O3D Cu1D 1_555 1_555
O4F Cu1D 1_555 1_555
Cu1B O4 1_555 1_555
O4B Cu1 1_555 1_555
O5D Cu1D 1_555 1_555
O6D Cu1D 1_555 1_555
O4D C6D 1_555 1_555
H5D C7D 1_555 1_555
H6D C7D 1_555 1_555
H3D C4D 1_555 1_555
H4D C4D 1_555 1_555
C1D C2 1_555 1_555
H2D C1D 1_555 1_555
H1D C2D 1_555 1_555
Cu1F O4D 1_555 1_555
C4 C5 1_555 1_555
C6 C7 1_555 1_555
C3D C1D 1_555 1_555
C5D C4D 1_555 1_555
C6D O3D 1_555 1_555

#END
