
#######################################################################
#
#                 Cambridge Crystallographic Data Centre
#                                CCDC 
#
#######################################################################
#
# If this CIF has been generated from an entry in the Cambridge 
# Structural Database, then it will include bibliographic, chemical, 
# crystal, experimental, refinement or atomic coordinate data resulting 
# from the CCDC's data processing and validation procedures.
#
#######################################################################

data_VENCOH
_symmetry_cell_setting           monoclinic
_symmetry_space_group_name_H-M   'P 21/c'
_symmetry_Int_Tables_number      14
_space_group_name_Hall           '-P 2ybc'
loop_
_symmetry_equiv_pos_site_id
_symmetry_equiv_pos_as_xyz
1 x,y,z
2 -x,1/2+y,1/2-z
3 -x,-y,-z
4 x,1/2-y,1/2+z
_cell_length_a                   19.874(4)
_cell_length_b                   5.3600(11)
_cell_length_c                   9.5420(19)
_cell_angle_alpha                90
_cell_angle_beta                 97.41(3)
_cell_angle_gamma                90
_cell_volume                     1007.97
loop_
_atom_site_label
_atom_site_type_symbol
_atom_site_fract_x
_atom_site_fract_y
_atom_site_fract_z
Mn1 Mn 0.5000 0.5000 0.5000
O1 O 0.47978(8) 0.2540(3) 0.66672(18)
N1 N 0.41113(10) 0.6891(4) 0.5892(2)
H1 H 0.4257 0.8278 0.6369
H2 H 0.3791 0.7334 0.5181
O2 O 0.42479(10) 0.2129(4) 0.8548(2)
C1 C 0.32035(12) 0.3768(5) 0.6060(3)
H3 H 0.3312 0.3251 0.5141
H4 H 0.3122 0.2271 0.6584
C2 C 0.38229(15) 0.5135(4) 0.6845(3)
H5 H 0.3682 0.6060 0.7644
C3 C 0.14513(12) 0.6385(5) 0.5128(3)
C4 C 0.19623(14) 0.4639(5) 0.4905(3)
N2 N 0.17275(12) 0.7996(5) 0.6152(3)
H6 H 0.1520 0.9236 0.6477
C5 C 0.43387(12) 0.3145(5) 0.7402(3)
C6 C 0.23920(13) 0.7320(5) 0.6583(3)
H7 H 0.2683 0.8141 0.7274
C7 C 0.25626(15) 0.5272(5) 0.5851(4)
C8 C 0.18039(14) 0.2723(5) 0.3916(3)
H8 H 0.2130 0.1558 0.3745
C9 C 0.07985(14) 0.6263(7) 0.4396(4)
H9 H 0.0470 0.7431 0.4549
C10 C 0.11501(15) 0.2594(6) 0.3197(4)
H10 H 0.1040 0.1322 0.2545
C11 C 0.06568(16) 0.4345(7) 0.3435(4)
H11 H 0.0224 0.4217 0.2938
Mn1C Mn 0.5000 0.0000 1.0000
Mn1C_2 Mn 0.5000 1.0000 0.0000
O1B O 0.52022(8) 0.7460(3) 0.33328(18)
N1B N 0.58887(10) 0.3109(4) 0.4108(2)
H1B H 0.5743 0.1722 0.3631
H2B H 0.6209 0.2666 0.4819
O2B O 0.57521(10) 0.7871(4) 0.1452(2)
O2C O 0.42479(10) 0.2871(4) 0.3548(2)
O2A O 0.57521(10) 0.7129(4) 0.6452(2)
C1B C 0.67965(12) 0.6232(5) 0.3940(3)
H3B H 0.6688 0.6749 0.4859
H4B H 0.6878 0.7729 0.3416
C2B C 0.61771(15) 0.4865(4) 0.3155(3)
H5B H 0.6318 0.3940 0.2356
C3B C 0.85487(12) 0.3615(5) 0.4872(3)
C4B C 0.80377(14) 0.5361(5) 0.5095(3)
N2B N 0.82725(12) 0.2004(5) 0.3848(3)
H6B H 0.8480 0.0764 0.3523
C5B C 0.56613(12) 0.6855(5) 0.2598(3)
C6B C 0.76080(13) 0.2680(5) 0.3417(3)
H7B H 0.7317 0.1859 0.2726
C7B C 0.74374(15) 0.4728(5) 0.4149(4)
C8B C 0.81961(14) 0.7277(5) 0.6084(3)
H8B H 0.7870 0.8442 0.6255
C9B C 0.92015(14) 0.3737(7) 0.5604(4)
H9B H 0.9530 0.2569 0.5451
C10B C 0.88499(15) 0.7406(6) 0.6803(4)
H10B H 0.8960 0.8678 0.7455
C11B C 0.93432(16) 0.5655(7) 0.6565(4)
H11B H 0.9776 0.5783 0.7062
loop_
_geom_bond_atom_site_label_1
_geom_bond_atom_site_label_2
_geom_bond_site_symmetry_1
_geom_bond_site_symmetry_2
Mn1 O1 1_555 1_555
O1 C5 1_555 1_555
N1 Mn1 1_555 1_555
H1 N1 1_555 1_555
H2 N1 1_555 1_555
O2 C5 1_555 1_555
C1 H3 1_555 1_555
H4 C1 1_555 1_555
C2 N1 1_555 1_555
H5 C2 1_555 1_555
C3 C4 1_555 1_555
C4 C7 1_555 1_555
N2 C3 1_555 1_555
H6 N2 1_555 1_555
C5 C2 1_555 1_555
C6 N2 1_555 1_555
H7 C6 1_555 1_555
C7 C1 1_555 1_555
C8 C4 1_555 1_555
H8 C8 1_555 1_555
C9 C3 1_555 1_555
H9 C9 1_555 1_555
C10 C8 1_555 1_555
H10 C10 1_555 1_555
C11 C9 1_555 1_555
H11 C11 1_555 1_555
Mn1C O2 1_555 1_555
Mn1C_2 O2B 1_555 1_555
O1B Mn1 1_555 1_555
N1B Mn1 1_555 1_555
H1B N1B 1_555 1_555
H2B N1B 1_555 1_555
O2B C5B 1_555 1_555
O2C Mn1 1_555 1_555
O2A Mn1 1_555 1_555
C1B H3B 1_555 1_555
H4B C1B 1_555 1_555
C2B N1B 1_555 1_555
H5B C2B 1_555 1_555
C3B C4B 1_555 1_555
C4B C7B 1_555 1_555
N2B C3B 1_555 1_555
H6B N2B 1_555 1_555
C5B O1B 1_555 1_555
C6B N2B 1_555 1_555
H7B C6B 1_555 1_555
C7B C1B 1_555 1_555
C8B C4B 1_555 1_555
H8B C8B 1_555 1_555
C9B C3B 1_555 1_555
H9B C9B 1_555 1_555
C10B C8B 1_555 1_555
H10B C10B 1_555 1_555
C11B C9B 1_555 1_555
H11B C11B 1_555 1_555
C1 C2 1_555 1_555
C6 C7 1_555 1_555
C10 C11 1_555 1_555
C1B C2B 1_555 1_555
C2B C5B 1_555 1_555
C6B C7B 1_555 1_555
C10B C11B 1_555 1_555

#END
