
#######################################################################
#
#                 Cambridge Crystallographic Data Centre
#                                CCDC 
#
#######################################################################
#
# If this CIF has been generated from an entry in the Cambridge 
# Structural Database, then it will include bibliographic, chemical, 
# crystal, experimental, refinement or atomic coordinate data resulting 
# from the CCDC's data processing and validation procedures.
#
#######################################################################

data_VENCAS
_symmetry_cell_setting           monoclinic
_symmetry_space_group_name_H-M   'P 21/a'
_symmetry_Int_Tables_number      14
_space_group_name_Hall           '-P 2yab'
loop_
_symmetry_equiv_pos_site_id
_symmetry_equiv_pos_as_xyz
1 x,y,z
2 1/2-x,1/2+y,-z
3 -x,-y,-z
4 1/2+x,1/2-y,z
_cell_length_a                   9.041(1)
_cell_length_b                   15.634(2)
_cell_length_c                   9.874(2)
_cell_angle_alpha                90
_cell_angle_beta                 93.85(1)
_cell_angle_gamma                90
_cell_volume                     1392.51
loop_
_atom_site_label
_atom_site_type_symbol
_atom_site_fract_x
_atom_site_fract_y
_atom_site_fract_z
O1 O 0.2659(6) -0.2148(3) 0.0865(5)
K1 K 0.4048(1) -0.0392(1) 0.1968(1)
K2 K 0.4908(2) -0.2048(1) -0.0911(1)
C1 C 0.7268(6) -0.1921(3) 0.5072(5)
C2 C 0.7780(8) -0.2813(4) 0.4730(6)
C3 C 0.8868(7) -0.2117(5) 0.4799(7)
C4 C 0.6382(6) -0.1450(3) 0.3973(5)
C5 C 0.6944(6) -0.1758(3) 0.6531(5)
O2 O 0.6504(5) -0.1593(3) 0.2769(4)
O3 O 0.5498(5) -0.0857(3) 0.4361(4)
O4 O 0.5993(4) -0.1173(3) 0.6745(4)
O5 O 0.7593(5) -0.2130(3) 0.7446(4)
C6 C 0.1161(6) 0.0078(4) -0.1819(5)
C7 C 0.0607(9) -0.0778(5) -0.2351(7)
C8 C 0.1281(10) -0.0182(5) -0.3291(7)
C9 C 0.2581(6) 0.0072(4) -0.0951(4)
C10 C 0.0028(6) 0.0745(4) -0.1545(7)
O6 O 0.3527(4) -0.0478(3) -0.1058(4)
O7 O 0.2759(5) 0.0672(3) -0.0051(4)
O8 O 0.0289(6) 0.1302(3) -0.0616(5)
O9 O -0.1166(5) 0.0745(4) -0.2203(6)
H1 H 0.255(12) -0.247(6) 0.163(7)
H2 H 0.218(9) -0.170(3) 0.116(9)
H3 H 0.775(6) -0.319(4) 0.550(6)
H4 H 0.744(7) -0.303(4) 0.384(7)
H5 H 0.920(6) -0.189(4) 0.396(6)
H6 H 0.960(8) -0.204(5) 0.549(7)
H7 H 0.547(8) -0.089(5) 0.539(8)
H8 H 0.117(6) -0.122(4) -0.214(6)
H9 H -0.048(7) -0.087(4) -0.241(6)
H10 H 0.228(7) -0.028(4) -0.350(6)
H11 H 0.063(7) 0.008(4) -0.386(6)
H12 H 0.181(6) 0.093(4) -0.015(6)
K2C K -0.0092(2) -0.2952(1) -0.0911(1)
K2B K 0.5092(2) 0.2048(1) 0.0911(1)
O4B O 0.4007(4) 0.1173(3) 0.3255(4)
O6B O 0.6473(4) 0.0478(3) 0.1058(4)
O9B O 0.1166(5) -0.0745(4) 0.2203(6)
O1C O 0.7659(6) -0.2852(3) 0.0865(5)
K1B K 0.5952(1) 0.0392(1) -0.1968(1)
O4_2 O 0.5993(4) -0.1173(3) -0.3255(4)
O5_2 O 0.7593(5) -0.2130(3) -0.2554(4)
O5C O 0.2593(5) -0.2870(3) -0.2554(4)
O7B O 0.7241(5) -0.0672(3) 0.0051(4)
O8A O 0.4711(6) -0.3698(3) 0.0616(5)
K1B_2 K 0.5952(1) 0.0392(1) 0.8032(1)
K2_2 K 0.4908(2) -0.2048(1) 0.9089(1)
K2C_2 K 0.9908(2) -0.2952(1) 0.9089(1)
K2A K 0.0092(2) 0.2952(1) 0.0911(1)
K1B_3 K -0.4048(1) 0.0392(1) -0.1968(1)
H1C H 0.755(12) -0.253(6) 0.163(7)
H2C H 0.718(9) -0.330(3) 0.116(9)
H12B H 0.819(6) -0.093(4) 0.015(6)
loop_
_geom_bond_atom_site_label_1
_geom_bond_atom_site_label_2
_geom_bond_site_symmetry_1
_geom_bond_site_symmetry_2
O1 K1 1_555 1_555
K1 O2 1_555 1_555
K2 O1 1_555 1_555
C1 C2 1_555 1_555
C2 C3 1_555 1_555
C3 C1 1_555 1_555
C4 C1 1_555 1_555
C5 C1 1_555 1_555
O2 C4 1_555 1_555
O3 K1 1_555 1_555
O4 C5 1_555 1_555
O5 C5 1_555 1_555
C6 C7 1_555 1_555
C7 C8 1_555 1_555
C8 C6 1_555 1_555
C9 C6 1_555 1_555
C10 C6 1_555 1_555
O6 K1 1_555 1_555
O7 K1 1_555 1_555
O8 C10 1_555 1_555
O9 C10 1_555 1_555
H1 O1 1_555 1_555
H2 O1 1_555 1_555
H3 C2 1_555 1_555
H4 C2 1_555 1_555
H5 C3 1_555 1_555
H6 C3 1_555 1_555
H7 O3 1_555 1_555
H8 C7 1_555 1_555
H9 C7 1_555 1_555
H10 C8 1_555 1_555
H11 C8 1_555 1_555
H12 O7 1_555 1_555
K2C O1 1_555 1_555
K2B O7 1_555 1_555
O4B K1 1_555 1_555
O6B K1 1_555 1_555
O9B K1 1_555 1_555
O1C K2 1_555 1_555
K1B O6 1_555 1_555
O4_2 K2 1_555 1_555
O5_2 K2 1_555 1_555
O5C K2 1_555 1_555
O7B K2 1_555 1_555
O8A K2 1_555 1_555
K1B_2 O4 1_555 1_555
K2_2 O4 1_555 1_555
K2C_2 O5 1_555 1_555
K2A O8 1_555 1_555
K1B_3 O9 1_555 1_555
H1C O1C 1_555 1_555
H2C O1C 1_555 1_555
H12B O7B 1_555 1_555
K2 O6 1_555 1_555
C4 O3 1_555 1_555
O5 K2_2 1_555 1_555
C9 O6 1_555 1_555
C9 O7 1_555 1_555
K2C O5C 1_555 1_555
K2B O4B 1_555 1_555
K2B O6B 1_555 1_555
O6B K1B 1_555 1_555
K1B O4_2 1_555 1_555
K1B O7B 1_555 1_555

#END
