
#######################################################################
#
#                 Cambridge Crystallographic Data Centre
#                                CCDC 
#
#######################################################################
#
# If this CIF has been generated from an entry in the Cambridge 
# Structural Database, then it will include bibliographic, chemical, 
# crystal, experimental, refinement or atomic coordinate data resulting 
# from the CCDC's data processing and validation procedures.
#
#######################################################################

data_VENCOH01
_symmetry_cell_setting           monoclinic
_symmetry_space_group_name_H-M   'P 21/c'
_symmetry_Int_Tables_number      14
_space_group_name_Hall           '-P 2ybc'
loop_
_symmetry_equiv_pos_site_id
_symmetry_equiv_pos_as_xyz
1 x,y,z
2 -x,1/2+y,1/2-z
3 -x,-y,-z
4 x,1/2-y,1/2+z
_cell_length_a                   19.696(3)
_cell_length_b                   5.3181(9)
_cell_length_c                   9.4770(17)
_cell_angle_alpha                90
_cell_angle_beta                 97.326(2)
_cell_angle_gamma                90
_cell_volume                     984.568
loop_
_atom_site_label
_atom_site_type_symbol
_atom_site_fract_x
_atom_site_fract_y
_atom_site_fract_z
Mn1 Mn 0.5000 0.5000 0.5000
N1 N 0.41130(14) 0.6876(5) 0.5896(3)
H1 H 0.4260 0.8271 0.6379
H2 H 0.3790 0.7329 0.5182
N2 N 0.17276(17) 0.7996(6) 0.6146(4)
H3 H 0.1519 0.9252 0.6468
O1 O 0.48006(12) 0.2537(4) 0.6666(2)
O2 O 0.42503(13) 0.2114(5) 0.8550(3)
C1 C 0.43377(18) 0.3133(7) 0.7401(4)
C2 C 0.38217(16) 0.5109(6) 0.6849(4)
H4 H 0.3680 0.6041 0.7655
C3 C 0.32044(18) 0.3779(7) 0.6065(4)
H5 H 0.3315 0.3265 0.5139
H6 H 0.3120 0.2266 0.6587
C4 C 0.2393(2) 0.7326(7) 0.6586(4)
H7 H 0.2685 0.8154 0.7284
C5 C 0.25629(18) 0.5278(6) 0.5854(4)
C6 C 0.19653(18) 0.4634(6) 0.4907(4)
C7 C 0.14486(19) 0.6387(7) 0.5131(4)
C8 C 0.0798(2) 0.6256(9) 0.4394(5)
H8 H 0.0464 0.7430 0.4542
C9 C 0.0662(2) 0.4344(9) 0.3440(5)
H9 H 0.0226 0.4215 0.2937
C10 C 0.1154(2) 0.2592(9) 0.3198(5)
H10 H 0.1045 0.1316 0.2537
C11 C 0.1797(2) 0.2726(7) 0.3926(4)
H11 H 0.2124 0.1535 0.3763
Mn1C Mn 0.5000 0.0000 1.0000
Mn1C_2 Mn 0.5000 1.0000 0.0000
N1B N 0.58870(14) 0.3124(5) 0.4104(3)
H1B H 0.5740 0.1729 0.3621
H2B H 0.6210 0.2671 0.4818
N2B N 0.82724(17) 0.2004(6) 0.3854(4)
H3B H 0.8481 0.0748 0.3532
O1B O 0.51994(12) 0.7463(4) 0.3334(2)
O2B O 0.57497(13) 0.7886(5) 0.1450(3)
O2C O 0.42503(13) 0.2886(5) 0.3550(3)
O2A O 0.57497(13) 0.7114(5) 0.6450(3)
C1B C 0.56623(18) 0.6867(7) 0.2599(4)
C2B C 0.61783(16) 0.4891(6) 0.3151(4)
H4B H 0.6320 0.3959 0.2345
C3B C 0.67956(18) 0.6221(7) 0.3935(4)
H5B H 0.6685 0.6735 0.4861
H6B H 0.6880 0.7734 0.3413
C4B C 0.7607(2) 0.2674(7) 0.3414(4)
H7B H 0.7315 0.1846 0.2716
C5B C 0.74371(18) 0.4722(6) 0.4146(4)
C6B C 0.80347(18) 0.5366(6) 0.5093(4)
C7B C 0.85514(19) 0.3613(7) 0.4869(4)
C8B C 0.9202(2) 0.3744(9) 0.5606(5)
H8B H 0.9536 0.2570 0.5458
C9B C 0.9338(2) 0.5656(9) 0.6560(5)
H9B H 0.9774 0.5785 0.7063
C10B C 0.8846(2) 0.7408(9) 0.6802(5)
H10B H 0.8955 0.8684 0.7463
C11B C 0.8203(2) 0.7274(7) 0.6074(4)
H11B H 0.7876 0.8465 0.6237
loop_
_geom_bond_atom_site_label_1
_geom_bond_atom_site_label_2
_geom_bond_site_symmetry_1
_geom_bond_site_symmetry_2
Mn1 N1 1_555 1_555
N1 H1 1_555 1_555
H2 N1 1_555 1_555
N2 H3 1_555 1_555
O1 Mn1 1_555 1_555
O2 C1 1_555 1_555
C1 O1 1_555 1_555
C2 N1 1_555 1_555
H4 C2 1_555 1_555
C3 C2 1_555 1_555
H5 C3 1_555 1_555
H6 C3 1_555 1_555
C4 N2 1_555 1_555
H7 C4 1_555 1_555
C5 C3 1_555 1_555
C6 C5 1_555 1_555
C7 N2 1_555 1_555
C8 C7 1_555 1_555
H8 C8 1_555 1_555
C9 C8 1_555 1_555
H9 C9 1_555 1_555
C10 C9 1_555 1_555
H10 C10 1_555 1_555
C11 C6 1_555 1_555
H11 C11 1_555 1_555
Mn1C O2 1_555 1_555
Mn1C_2 O2B 1_555 1_555
N1B Mn1 1_555 1_555
H1B N1B 1_555 1_555
H2B N1B 1_555 1_555
N2B H3B 1_555 1_555
O1B Mn1 1_555 1_555
O2B C1B 1_555 1_555
O2C Mn1 1_555 1_555
O2A Mn1 1_555 1_555
C1B O1B 1_555 1_555
C2B N1B 1_555 1_555
H4B C2B 1_555 1_555
C3B C2B 1_555 1_555
H5B C3B 1_555 1_555
H6B C3B 1_555 1_555
C4B N2B 1_555 1_555
H7B C4B 1_555 1_555
C5B C3B 1_555 1_555
C6B C5B 1_555 1_555
C7B N2B 1_555 1_555
C8B C7B 1_555 1_555
H8B C8B 1_555 1_555
C9B C8B 1_555 1_555
H9B C9B 1_555 1_555
C10B C9B 1_555 1_555
H10B C10B 1_555 1_555
C11B C6B 1_555 1_555
H11B C11B 1_555 1_555
C1 C2 1_555 1_555
C4 C5 1_555 1_555
C6 C7 1_555 1_555
C10 C11 1_555 1_555
C1B C2B 1_555 1_555
C4B C5B 1_555 1_555
C6B C7B 1_555 1_555
C10B C11B 1_555 1_555

#END
