
#######################################################################
#
#                 Cambridge Crystallographic Data Centre
#                                CCDC 
#
#######################################################################
#
# If this CIF has been generated from an entry in the Cambridge 
# Structural Database, then it will include bibliographic, chemical, 
# crystal, experimental, refinement or atomic coordinate data resulting 
# from the CCDC's data processing and validation procedures.
#
#######################################################################

data_VENDUN01
_symmetry_cell_setting           orthorhombic
_symmetry_space_group_name_H-M   'P n n a'
_symmetry_Int_Tables_number      52
_space_group_name_Hall           '-P 2a 2bc'
loop_
_symmetry_equiv_pos_site_id
_symmetry_equiv_pos_as_xyz
1 x,y,z
2 1/2+x,y,-z
3 1/2+x,1/2-y,1/2+z
4 -x,1/2+y,1/2+z
5 -x,-y,-z
6 1/2-x,-y,z
7 1/2-x,1/2+y,1/2-z
8 x,1/2-y,1/2-z
_cell_length_a                   20.8203(6)
_cell_length_b                   13.3986(5)
_cell_length_c                   8.1907(3)
_cell_angle_alpha                90
_cell_angle_beta                 90
_cell_angle_gamma                90
_cell_volume                     2284.9
loop_
_atom_site_label
_atom_site_type_symbol
_atom_site_fract_x
_atom_site_fract_y
_atom_site_fract_z
Cu1 Cu 0.50563(3) 0.7500 0.2500
K1 K 0.71508(7) 0.7500 -0.2500
K2 K 0.7500 1.0000 0.02404(16)
O1 O 0.57892(13) 0.76519(19) 0.0634(4)
O2 O 0.64580(13) 0.8815(2) -0.0312(4)
O3 O 0.42778(12) 0.80344(19) 0.4106(3)
O4 O 0.37631(14) 0.9446(2) 0.4706(4)
O5 O 0.81413(14) 0.8086(2) -0.0389(4)
O6 O 0.67421(16) 0.6318(3) 0.0414(6)
O7 O 0.78948(16) 0.8785(3) 0.2838(4)
O8 O 0.7505(5) 0.9739(5) -0.2979(8)
N1 N 0.51104(14) 0.8941(2) 0.2258(4)
C1 C 0.55858(16) 0.9320(3) 0.1338(4)
C2 C 0.56674(17) 1.0337(3) 0.1213(5)
H1 H 0.6001 1.0600 0.0593
C3 C 0.52438(19) 1.0964(3) 0.2027(5)
H2 H 0.5291 1.1653 0.1950
C4 C 0.47493(19) 1.0560(3) 0.2957(5)
H3 H 0.4460 1.0972 0.3497
C5 C 0.46964(16) 0.9531(3) 0.3062(4)
C6 C 0.59897(17) 0.8544(3) 0.0476(5)
C7 C 0.42010(17) 0.8964(3) 0.4044(4)
O8E O 0.7495(5) 1.0261(5) -0.2979(8)
O1G O 0.57892(13) 0.73481(19) 0.4366(4)
O2G O 0.64580(13) 0.6185(2) 0.5312(4)
O3G O 0.42778(12) 0.69656(19) 0.0894(3)
O4G O 0.37631(14) 0.5554(2) 0.0294(4)
N1G N 0.51104(14) 0.6059(2) 0.2742(4)
C1G C 0.55858(16) 0.5680(3) 0.3662(4)
C2G C 0.56674(17) 0.4663(3) 0.3787(5)
H1G H 0.6001 0.4400 0.4407
C3G C 0.52438(19) 0.4036(3) 0.2973(5)
H2G H 0.5291 0.3347 0.3050
C4G C 0.47493(19) 0.4440(3) 0.2043(5)
H3G H 0.4460 0.4028 0.1503
C5G C 0.46964(16) 0.5469(3) 0.1938(4)
C6G C 0.59897(17) 0.6456(3) 0.4524(5)
C7G C 0.42010(17) 0.6036(3) 0.0956(4)
O5G O 0.81413(14) 0.6914(2) -0.4611(4)
O6G O 0.67421(16) 0.8682(3) -0.5414(6)
O7E O 0.71052(16) 1.1215(3) 0.2838(4)
O2G_2 O 0.64580(13) 0.6185(2) -0.4688(4)
O8G O 0.7505(5) 0.5261(5) -0.2021(8)
O2E O 0.85420(13) 1.1185(2) -0.0312(4)
O5E O 0.68587(14) 1.1914(2) -0.0389(4)
K1E K 0.78492(7) 1.2500 -0.2500
K1_2 K 0.71508(7) 0.7500 0.7500
K2F K 0.7500 0.5000 0.47596(16)
K2F_2 K 0.7500 0.5000 -0.52404(16)
loop_
_geom_bond_atom_site_label_1
_geom_bond_atom_site_label_2
_geom_bond_site_symmetry_1
_geom_bond_site_symmetry_2
Cu1 O1 1_555 1_555
K1 O2 1_555 1_555
K2 O2 1_555 1_555
O1 C6 1_555 1_555
O2 C6 1_555 1_555
O3 Cu1 1_555 1_555
O4 C7 1_555 1_555
O5 K1 1_555 1_555
O6 K1 1_555 1_555
O7 K2 1_555 1_555
O8 K1 1_555 1_555
N1 Cu1 1_555 1_555
C1 N1 1_555 1_555
C2 C1 1_555 1_555
H1 C2 1_555 1_555
C3 C2 1_555 1_555
H2 C3 1_555 1_555
C4 C3 1_555 1_555
H3 C4 1_555 1_555
C5 N1 1_555 1_555
C6 C1 1_555 1_555
C7 O3 1_555 1_555
O8E K2 1_555 1_555
O1G Cu1 1_555 1_555
O2G C6G 1_555 1_555
O3G Cu1 1_555 1_555
O4G C7G 1_555 1_555
N1G Cu1 1_555 1_555
C1G N1G 1_555 1_555
C2G C1G 1_555 1_555
H1G C2G 1_555 1_555
C3G C2G 1_555 1_555
H2G C3G 1_555 1_555
C4G C3G 1_555 1_555
H3G C4G 1_555 1_555
C5G N1G 1_555 1_555
C6G O1G 1_555 1_555
C7G O3G 1_555 1_555
O5G K1 1_555 1_555
O6G K1 1_555 1_555
O7E K2 1_555 1_555
O2G_2 K1 1_555 1_555
O8G K1 1_555 1_555
O2E K2 1_555 1_555
O5E K2 1_555 1_555
K1E O8E 1_555 1_555
K1_2 O2G 1_555 1_555
K2F O2G 1_555 1_555
K2F_2 O5G 1_555 1_555
K2 O5 1_555 1_555
K2 O8 1_555 1_555
O8 O8E 1_555 1_555
C4 C5 1_555 1_555
C5 C7 1_555 1_555
C1G C6G 1_555 1_555
C4G C5G 1_555 1_555
C5G C7G 1_555 1_555
O2G_2 K2F_2 1_555 1_555
O8G K2F_2 1_555 1_555
O2E K1E 1_555 1_555
O5E K1E 1_555 1_555

#END
