
#######################################################################
#
#                 Cambridge Crystallographic Data Centre
#                                CCDC 
#
#######################################################################
#
# If this CIF has been generated from an entry in the Cambridge 
# Structural Database, then it will include bibliographic, chemical, 
# crystal, experimental, refinement or atomic coordinate data resulting 
# from the CCDC's data processing and validation procedures.
#
#######################################################################

data_VENDUN03
_symmetry_cell_setting           orthorhombic
_symmetry_space_group_name_H-M   'P n n a'
_symmetry_Int_Tables_number      52
_space_group_name_Hall           '-P 2a 2bc'
loop_
_symmetry_equiv_pos_site_id
_symmetry_equiv_pos_as_xyz
1 x,y,z
2 1/2-x,-y,z
3 1/2-x,1/2+y,1/2-z
4 x,1/2-y,1/2-z
5 -x,-y,-z
6 1/2+x,y,-z
7 1/2+x,1/2-y,1/2+z
8 -x,1/2+y,1/2+z
_cell_length_a                   20.8272(5)
_cell_length_b                   13.4041(3)
_cell_length_c                   8.1916(2)
_cell_angle_alpha                90
_cell_angle_beta                 90
_cell_angle_gamma                90
_cell_volume                     2286.85
loop_
_atom_site_label
_atom_site_type_symbol
_atom_site_fract_x
_atom_site_fract_y
_atom_site_fract_z
C1 C 0.40113(8) 0.14558(14) 0.04750(19)
C2 C 0.44148(7) 0.06787(12) 0.13403(18)
C3 C 0.43325(9) -0.03393(13) 0.12158(19)
H1 H 0.3998 -0.0601 0.0598
C4 C 0.47556(10) -0.09667(14) 0.2024(2)
H2 H 0.4709 -0.1655 0.1945
C5 C 0.52523(9) -0.05603(14) 0.2956(2)
H3 H 0.5543 -0.0970 0.3497
C6 C 0.53017(8) 0.04643(13) 0.30541(18)
C7 C 0.58004(8) 0.10333(13) 0.40420(19)
Cu1 Cu 0.494382(14) 0.2500 0.2500
H4 H 0.1825(12) 0.102(2) 0.362(3)
H5 H 0.345(2) 0.430(2) 0.017(5)
H6 H 0.2485(10) 0.127(2) 0.336(3)
K1 K 0.28485(4) 0.2500 -0.2500
K2 K 0.2500 0.0000 0.02403(7)
N1 N 0.48905(7) 0.10613(13) 0.22597(15)
O1 O 0.42134(7) 0.23455(10) 0.06311(18)
O2 O 0.35401(6) 0.11846(11) -0.03144(15)
O3 O 0.57203(6) 0.19630(9) 0.41084(15)
O4 O 0.62387(7) 0.05510(11) 0.47026(16)
O5 O 0.18607(7) 0.19122(12) -0.03995(17)
O6 O 0.32517(9) 0.36789(15) 0.0402(4)
H7 H 0.3565 0.3414 0.0826
O7 O 0.21052(9) 0.12109(13) 0.28189(18)
O8 O 0.2500 0.0000 -0.2970(3)
H8 H 0.1507(11) 0.228(2) -0.065(3)
H9 H 0.1936(15) 0.188(3) 0.071(2)
C1C C 0.40113(8) 0.35442(14) 0.45250(19)
C2C C 0.44148(7) 0.43213(12) 0.36597(18)
C3C C 0.43325(9) 0.53393(13) 0.37842(19)
H1C H 0.3998 0.5601 0.4402
C4C C 0.47556(10) 0.59667(14) 0.2976(2)
H2C H 0.4709 0.6655 0.3055
C5C C 0.52523(9) 0.55603(14) 0.2044(2)
H3C H 0.5543 0.5970 0.1503
C6C C 0.53017(8) 0.45357(13) 0.19459(18)
C7C C 0.58004(8) 0.39667(13) 0.09580(19)
H4A H 0.3175(12) -0.102(2) 0.362(3)
H5C H 0.345(2) 0.070(2) -0.517(5)
H6A H 0.2515(10) -0.127(2) 0.336(3)
K1_2 K 0.28485(4) 0.2500 0.7500
K2B K 0.2500 0.5000 0.47597(7)
K2B_2 K 0.2500 0.5000 -0.52403(7)
N1C N 0.48905(7) 0.39387(13) 0.27403(15)
O1C O 0.42134(7) 0.26545(10) 0.43689(18)
O2C O 0.35401(6) 0.38154(11) 0.53144(15)
O2C_2 O 0.35401(6) 0.38154(11) -0.46856(15)
O2A O 0.14599(6) -0.11846(11) -0.03144(15)
O3C O 0.57203(6) 0.30370(9) 0.08916(15)
O4C O 0.62387(7) 0.44490(11) 0.02974(16)
O5C O 0.18607(7) 0.30878(12) -0.46005(17)
O5A O 0.31393(7) -0.19122(12) -0.03995(17)
O6C O 0.32517(9) 0.13211(15) -0.5402(4)
H7C H 0.3565 0.1586 -0.5826
O7A O 0.28948(9) -0.12109(13) 0.28189(18)
H8C H 0.1507(11) 0.272(2) -0.435(3)
H8A H 0.3493(11) -0.228(2) -0.065(3)
H9C H 0.1936(15) 0.312(3) -0.571(2)
H9A H 0.3064(15) -0.188(3) 0.071(2)
loop_
_geom_bond_atom_site_label_1
_geom_bond_atom_site_label_2
_geom_bond_site_symmetry_1
_geom_bond_site_symmetry_2
C1 C2 1_555 1_555
C2 C3 1_555 1_555
C3 H1 1_555 1_555
C4 C3 1_555 1_555
H2 C4 1_555 1_555
C5 C4 1_555 1_555
H3 C5 1_555 1_555
C6 C5 1_555 1_555
C7 C6 1_555 1_555
Cu1 N1 1_555 1_555
H4 O7 1_555 1_555
H5 O6 1_555 1_555
H6 O7 1_555 1_555
K1 O2 1_555 1_555
K2 O2 1_555 1_555
N1 C2 1_555 1_555
O1 C1 1_555 1_555
O2 C1 1_555 1_555
O3 C7 1_555 1_555
O4 C7 1_555 1_555
O5 K1 1_555 1_555
O6 K1 1_555 1_555
H7 O6 1_555 1_555
O7 K2 1_555 1_555
O8 K2 1_555 1_555
H8 O5 1_555 1_555
H9 O5 1_555 1_555
C1C C2C 1_555 1_555
C2C C3C 1_555 1_555
C3C H1C 1_555 1_555
C4C C3C 1_555 1_555
H2C C4C 1_555 1_555
C5C C4C 1_555 1_555
H3C C5C 1_555 1_555
C6C C5C 1_555 1_555
C7C C6C 1_555 1_555
H4A O7A 1_555 1_555
H5C O6C 1_555 1_555
H6A O7A 1_555 1_555
K1_2 O2C 1_555 1_555
K2B O2C 1_555 1_555
K2B_2 O2C_2 1_555 1_555
N1C Cu1 1_555 1_555
O1C Cu1 1_555 1_555
O2C C1C 1_555 1_555
O2C_2 K1 1_555 1_555
O2A K2 1_555 1_555
O3C Cu1 1_555 1_555
O4C C7C 1_555 1_555
O5C K1 1_555 1_555
O5A K2 1_555 1_555
O6C K1 1_555 1_555
H7C O6C 1_555 1_555
O7A K2 1_555 1_555
H8C O5C 1_555 1_555
H8A O5A 1_555 1_555
H9C O5C 1_555 1_555
H9A O5A 1_555 1_555
C6 N1 1_555 1_555
Cu1 O1 1_555 1_555
Cu1 O3 1_555 1_555
K2 O5 1_555 1_555
C1C O1C 1_555 1_555
C2C N1C 1_555 1_555
C6C N1C 1_555 1_555
C7C O3C 1_555 1_555
K2B_2 O5C 1_555 1_555

#END
