
#######################################################################
#
#                 Cambridge Crystallographic Data Centre
#                                CCDC 
#
#######################################################################
#
# If this CIF has been generated from an entry in the Cambridge 
# Structural Database, then it will include bibliographic, chemical, 
# crystal, experimental, refinement or atomic coordinate data resulting 
# from the CCDC's data processing and validation procedures.
#
#######################################################################

data_VENDUO
_symmetry_cell_setting           triclinic
_symmetry_space_group_name_H-M   'P -1'
_symmetry_Int_Tables_number      2
_space_group_name_Hall           '-P 1'
loop_
_symmetry_equiv_pos_site_id
_symmetry_equiv_pos_as_xyz
1 x,y,z
2 -x,-y,-z
_cell_length_a                   7.0190(10)
_cell_length_b                   10.2250(10)
_cell_length_c                   11.6000(11)
_cell_angle_alpha                104.25(5)
_cell_angle_beta                 101.92(5)
_cell_angle_gamma                96.60(5)
_cell_volume                     777.351
loop_
_atom_site_label
_atom_site_type_symbol
_atom_site_fract_x
_atom_site_fract_y
_atom_site_fract_z
Sr1 Sr 0.22239(3) 0.53296(2) 0.404229(19)
O1 O 0.0962(2) 0.40164(17) 0.55366(15)
O2 O 0.4185(2) 0.41841(18) 0.58477(15)
C1 C 0.2585(3) 0.3790(2) 0.60830(19)
C2 C 0.2562(3) 0.2998(3) 0.7023(2)
H1 H 0.1453 0.3171 0.7384
H2 H 0.2338 0.2027 0.6606
C3 C 0.4409(4) 0.3331(3) 0.8037(2)
H3 H 0.4629 0.4299 0.8464
H4 H 0.5522 0.3163 0.7681
C4 C 0.4350(4) 0.2516(3) 0.8957(3)
H5 H 0.3317 0.2750 0.9371
H6 H 0.4011 0.1548 0.8523
C5 C 0.6270(4) 0.2766(3) 0.9900(2)
O3 O 0.7753(3) 0.3456(3) 0.9890(2)
O4 O 0.6209(3) 0.2119(3) 1.0738(2)
H7 H 0.745(4) 0.236(4) 1.135(3)
O5 O 0.2530(3) 0.78936(17) 0.37239(18)
O6 O 0.2908(4) 0.9437(2) 0.5509(2)
H8 H 0.317(6) 0.868(3) 0.581(3)
C6 C 0.2484(4) 0.9037(2) 0.4297(3)
C7 C 0.1856(5) 1.0143(3) 0.3741(3)
H9 H 0.0526 1.0237 0.3822
H10 H 0.2719 1.1002 0.4211
C8 C 0.1875(6) 0.9926(3) 0.2428(3)
H11 H 0.1393 0.8965 0.2001
H12 H 0.3232 1.0139 0.2375
C9 C 0.0652(6) 1.0771(3) 0.1782(3)
H13 H -0.0734 1.0393 0.1646
H14 H 0.0933 1.0681 0.0985
C10 C 0.0984(4) 1.2272(2) 0.2449(2)
O7 O -0.0502(2) 1.28635(19) 0.24726(16)
O8 O 0.2697(3) 1.28941(18) 0.29563(17)
O9 O 0.0980(3) 0.5216(2) 0.17615(18)
H15 H -0.003(4) 0.452(3) 0.124(3)
H16 H 0.146(5) 0.572(3) 0.127(3)
O10 O 0.3432(2) 0.72398(18) 0.62259(16)
H17 H 0.260(4) 0.712(3) 0.672(2)
H18 H 0.471(3) 0.725(3) 0.665(3)
Sr1A Sr -0.22239(3) 0.46704(2) 0.595771(19)
Sr1A_2 Sr 0.77761(3) 0.46704(2) 0.595771(19)
Sr1_2 Sr 0.22239(3) 1.53296(2) 0.404229(19)
O1A O -0.0962(2) 0.59836(17) 0.44634(15)
O2A O 0.5815(2) 0.58159(18) 0.41523(15)
O7_2 O -0.0502(2) 0.28635(19) 0.24726(16)
O8_2 O 0.2697(3) 0.28941(18) 0.29563(17)
loop_
_geom_bond_atom_site_label_1
_geom_bond_atom_site_label_2
_geom_bond_site_symmetry_1
_geom_bond_site_symmetry_2
Sr1 O1 1_555 1_555
O1 C1 1_555 1_555
O2 Sr1 1_555 1_555
C1 O2 1_555 1_555
C2 C1 1_555 1_555
H1 C2 1_555 1_555
H2 C2 1_555 1_555
C3 C2 1_555 1_555
H3 C3 1_555 1_555
H4 C3 1_555 1_555
C4 C3 1_555 1_555
H5 C4 1_555 1_555
H6 C4 1_555 1_555
C5 C4 1_555 1_555
O3 C5 1_555 1_555
O4 C5 1_555 1_555
H7 O4 1_555 1_555
O5 Sr1 1_555 1_555
O6 H8 1_555 1_555
C6 O5 1_555 1_555
C7 C6 1_555 1_555
H9 C7 1_555 1_555
H10 C7 1_555 1_555
C8 C7 1_555 1_555
H11 C8 1_555 1_555
H12 C8 1_555 1_555
C9 C8 1_555 1_555
H13 C9 1_555 1_555
H14 C9 1_555 1_555
C10 C9 1_555 1_555
O7 C10 1_555 1_555
O8 C10 1_555 1_555
O9 Sr1 1_555 1_555
H15 O9 1_555 1_555
H16 O9 1_555 1_555
O10 Sr1 1_555 1_555
H17 O10 1_555 1_555
H18 O10 1_555 1_555
Sr1A O1 1_555 1_555
Sr1A_2 O2 1_555 1_555
Sr1_2 O7 1_555 1_555
O1A Sr1 1_555 1_555
O2A Sr1 1_555 1_555
O7_2 Sr1 1_555 1_555
O8_2 Sr1 1_555 1_555
O6 C6 1_555 1_555
O8 Sr1_2 1_555 1_555
Sr1A O1A 1_555 1_555
Sr1A_2 O2A 1_555 1_555

#END
