
#######################################################################
#
#                 Cambridge Crystallographic Data Centre
#                                CCDC 
#
#######################################################################
#
# If this CIF has been generated from an entry in the Cambridge 
# Structural Database, then it will include bibliographic, chemical, 
# crystal, experimental, refinement or atomic coordinate data resulting 
# from the CCDC's data processing and validation procedures.
#
#######################################################################

data_VENFAW
_symmetry_cell_setting           orthorhombic
_symmetry_space_group_name_H-M   'P b c a'
_symmetry_Int_Tables_number      61
_space_group_name_Hall           '-P 2ac 2ab'
loop_
_symmetry_equiv_pos_site_id
_symmetry_equiv_pos_as_xyz
1 x,y,z
2 1/2-x,-y,1/2+z
3 1/2+x,1/2-y,-z
4 -x,1/2+y,1/2-z
5 -x,-y,-z
6 1/2+x,y,1/2-z
7 1/2-x,1/2+y,z
8 x,1/2-y,1/2+z
_cell_length_a                   13.6100(2)
_cell_length_b                   21.1060(3)
_cell_length_c                   17.5730(3)
_cell_angle_alpha                90
_cell_angle_beta                 90
_cell_angle_gamma                90
_cell_volume                     5047.89
loop_
_atom_site_label
_atom_site_type_symbol
_atom_site_fract_x
_atom_site_fract_y
_atom_site_fract_z
K1 K 0.32899(6) 0.63984(4) 0.32048(5)
O1 O 0.03601(16) 0.46047(10) 0.61597(12)
H1 H 0.0245 0.4377 0.6542
O2 O 0.21897(17) 0.59656(12) 0.44330(14)
O3 O -0.18735(16) 0.74268(10) 0.61676(13)
O4 O -0.14184(15) 0.52344(10) 0.69281(13)
H2 H -0.1462 0.4862 0.7094
O5 O 0.49403(15) 0.60471(10) 0.24059(12)
O6 O 0.65655(16) 0.59633(10) 0.23424(13)
N1 N 0.00694(18) 0.64723(11) 0.54463(13)
N2 N 0.11790(19) 0.54268(12) 0.52490(14)
H3 H 0.0635 0.5472 0.5514
N3 N -0.14907(18) 0.63872(11) 0.63950(14)
H4 H -0.1019 0.6108 0.633
N4 N 0.3715(3) 0.7545(2) 0.2052(2)
N5 N 0.4598(3) 0.58325(18) 0.4408(2)
C1 C 0.1195(2) 0.44041(14) 0.58171(16)
C2 C 0.1607(2) 0.38097(16) 0.59291(19)
H5 H 0.1313 0.3521 0.6276
C3 C 0.2448(3) 0.36378(16) 0.55337(19)
H6 H 0.2729 0.3231 0.561
C4 C 0.2878(3) 0.40571(17) 0.5028(2)
H7 H 0.3452 0.3934 0.4758
C5 C 0.2486(2) 0.46531(17) 0.49105(18)
H8 H 0.2788 0.4939 0.4564
C6 C 0.1638(2) 0.48308(15) 0.53076(17)
C7 C 0.1456(2) 0.59359(15) 0.48446(17)
C8 C 0.0810(2) 0.65075(15) 0.49447(17)
C9 C 0.1018(2) 0.70516(16) 0.45264(19)
H9 H 0.1543 0.7056 0.417
C10 C 0.0446(3) 0.75849(16) 0.46388(19)
H10 H 0.0575 0.7963 0.4364
C11 C -0.0316(2) 0.75581(15) 0.51580(18)
H11 H -0.0716 0.7919 0.5251
C12 C -0.0483(2) 0.69926(13) 0.55413(16)
C13 C -0.1347(2) 0.69564(13) 0.60721(16)
C14 C -0.2309(2) 0.61816(14) 0.68278(16)
C15 C -0.3139(2) 0.65442(15) 0.69736(18)
H12 H -0.3174 0.6969 0.6796
C16 C -0.3917(2) 0.62870(16) 0.73790(19)
H13 H -0.4486 0.6535 0.7474
C17 C -0.3868(2) 0.56729(15) 0.76450(18)
H14 H -0.4403 0.5499 0.7923
C18 C -0.3037(2) 0.53074(15) 0.75074(18)
H15 H -0.3002 0.4886 0.7697
C19 C -0.2254(2) 0.55555(14) 0.70935(16)
C20 C 0.5794(2) 0.62540(14) 0.25225(17)
C21 C 0.5892(3) 0.68904(15) 0.2908(2)
H16 H 0.5745 0.6846 0.3451
H17 H 0.5429 0.7191 0.2678
H18 H 0.6564 0.7048 0.2844
C22 C 0.3376(3) 0.79010(18) 0.1655(2)
C23 C 0.2917(4) 0.8356(2) 0.1151(3)
H19 H 0.2528 0.8131 0.0767
H20 H 0.3425 0.861 0.0899
H21 H 0.2486 0.8635 0.1446
C24 C 0.5035(3) 0.5437(2) 0.4138(2)
C25 C 0.5612(4) 0.4924(2) 0.3796(2)
H22 H 0.6299 0.5058 0.3748
H23 H 0.5349 0.4824 0.3291
H24 H 0.5575 0.4547 0.4121
K1B K -0.17101(6) 0.86016(4) 0.67952(5)
K1E K 0.82899(6) 0.63984(4) 0.17952(5)
O3B O 0.31265(16) 0.75732(10) 0.38324(13)
O6E O 0.15655(16) 0.59633(10) 0.26576(13)
loop_
_geom_bond_atom_site_label_1
_geom_bond_atom_site_label_2
_geom_bond_site_symmetry_1
_geom_bond_site_symmetry_2
K1 O2 1_555 1_555
O1 H1 1_555 1_555
O2 C7 1_555 1_555
O3 C13 1_555 1_555
O4 H2 1_555 1_555
O5 K1 1_555 1_555
O6 C20 1_555 1_555
N1 C8 1_555 1_555
N2 H3 1_555 1_555
N3 H4 1_555 1_555
N4 K1 1_555 1_555
N5 K1 1_555 1_555
C1 O1 1_555 1_555
C2 C1 1_555 1_555
H5 C2 1_555 1_555
C3 C2 1_555 1_555
H6 C3 1_555 1_555
C4 C3 1_555 1_555
H7 C4 1_555 1_555
C5 C4 1_555 1_555
H8 C5 1_555 1_555
C6 N2 1_555 1_555
C7 N2 1_555 1_555
C8 C7 1_555 1_555
C9 C8 1_555 1_555
H9 C9 1_555 1_555
C10 C9 1_555 1_555
H10 C10 1_555 1_555
C11 C10 1_555 1_555
H11 C11 1_555 1_555
C12 N1 1_555 1_555
C13 N3 1_555 1_555
C14 N3 1_555 1_555
C15 C14 1_555 1_555
H12 C15 1_555 1_555
C16 C15 1_555 1_555
H13 C16 1_555 1_555
C17 C16 1_555 1_555
H14 C17 1_555 1_555
C18 C17 1_555 1_555
H15 C18 1_555 1_555
C19 O4 1_555 1_555
C20 O5 1_555 1_555
C21 C20 1_555 1_555
H16 C21 1_555 1_555
H17 C21 1_555 1_555
H18 C21 1_555 1_555
C22 N4 1_555 1_555
C23 C22 1_555 1_555
H19 C23 1_555 1_555
H20 C23 1_555 1_555
H21 C23 1_555 1_555
C24 N5 1_555 1_555
C25 C24 1_555 1_555
H22 C25 1_555 1_555
H23 C25 1_555 1_555
H24 C25 1_555 1_555
K1B O3 1_555 1_555
K1E O6 1_555 1_555
O3B K1 1_555 1_555
O6E K1 1_555 1_555
C1 C6 1_555 1_555
C5 C6 1_555 1_555
C11 C12 1_555 1_555
C12 C13 1_555 1_555
C14 C19 1_555 1_555
C18 C19 1_555 1_555

#END
