
#######################################################################
#
#                 Cambridge Crystallographic Data Centre
#                                CCDC 
#
#######################################################################
#
# If this CIF has been generated from an entry in the Cambridge 
# Structural Database, then it will include bibliographic, chemical, 
# crystal, experimental, refinement or atomic coordinate data resulting 
# from the CCDC's data processing and validation procedures.
#
#######################################################################

data_VENRAJ
_symmetry_cell_setting           monoclinic
_symmetry_space_group_name_H-M   'C 2/c'
_symmetry_Int_Tables_number      15
_space_group_name_Hall           '-C 2yn'
loop_
_symmetry_equiv_pos_site_id
_symmetry_equiv_pos_as_xyz
1 x,y,z
2 -x,y,1/2-z
3 1/2+x,1/2+y,z
4 1/2-x,1/2+y,1/2-z
5 -x,-y,-z
6 x,-y,1/2+z
7 1/2-x,1/2-y,-z
8 1/2+x,1/2-y,1/2+z
_cell_length_a                   24.4913(10)
_cell_length_b                   4.34232(12)
_cell_length_c                   14.20752(55)
_cell_angle_alpha                90
_cell_angle_beta                 78.8847(26)
_cell_angle_gamma                90
_cell_volume                     1482.61
loop_
_atom_site_label
_atom_site_type_symbol
_atom_site_fract_x
_atom_site_fract_y
_atom_site_fract_z
Cu1 Cu 0.00000 0.3743(13) 0.25000
N1 N 0.07710(19) 0.3643(19) 0.29070(43)
C1 C 0.08795(26) 0.5419(13) 0.36227(37)
H1 H 0.05801 0.68073 0.41107
N2 N 0.14107(14) 0.5173(11) 0.36248(33)
N3 N 0.16628(18) 0.3265(18) 0.29219(45)
C2 C 0.12586(28) 0.2412(14) 0.25135(37)
H2 H 0.13128 0.08372 0.19060
C3 C 0.17441(17) 0.68577(86) 0.42981(33)
H3 H 0.19885 0.87018 0.39024
H4 H 0.14549 0.78267 0.49046
C4 C 0.21326(13) 0.46154(72) 0.46659(21)
C5 C 0.26166(17) 0.35676(85) 0.40470(27)
H5 H 0.27092 0.43828 0.33085
C6 C 0.20222(17) 0.35081(86) 0.56230(32)
H6 H 0.16493 0.42895 0.61111
N4 N -0.05761(29) -0.1803(18) 0.47014(63)
N5 N -0.04402(16) -0.09846(92) 0.39637(39)
N6 N -0.03032(30) -0.0148(19) 0.32153(70)
Cu1F Cu 0.50000 0.1257(13) 0.75000
N1F N 0.42290(19) 0.1357(19) 0.70930(43)
N1A N -0.07710(19) 0.3643(19) 0.20930(43)
C1F C 0.41205(26) -0.0419(13) 0.63773(37)
H1F H 0.44199 -0.18073 0.58893
N2F N 0.35893(14) -0.0173(11) 0.63752(33)
N3F N 0.33372(18) 0.1735(18) 0.70781(45)
C2F C 0.37414(28) 0.2588(14) 0.74865(37)
H2F H 0.36872 0.41628 0.80940
C3F C 0.32559(17) -0.18577(86) 0.57019(33)
H3F H 0.30115 -0.37018 0.60976
H4F H 0.35451 -0.28267 0.50954
C4F C 0.28674(13) 0.03846(72) 0.53341(21)
C5F C 0.23834(17) 0.14324(85) 0.59530(27)
H5F H 0.22908 0.06172 0.66915
C6F C 0.29778(17) 0.14919(86) 0.43770(32)
H6F H 0.33507 0.07105 0.38889
N4A N 0.05761(29) -0.1803(18) 0.02986(63)
N5A N 0.04402(16) -0.09846(92) 0.10363(39)
N6A N 0.03032(30) -0.0148(19) 0.17847(70)
loop_
_geom_bond_atom_site_label_1
_geom_bond_atom_site_label_2
_geom_bond_site_symmetry_1
_geom_bond_site_symmetry_2
Cu1 N1 1_555 1_555
N1 C1 1_555 1_555
C1 H1 1_555 1_555
N2 C1 1_555 1_555
N3 N2 1_555 1_555
C2 N1 1_555 1_555
H2 C2 1_555 1_555
C3 N2 1_555 1_555
H3 C3 1_555 1_555
H4 C3 1_555 1_555
C4 C3 1_555 1_555
C5 C4 1_555 1_555
H5 C5 1_555 1_555
C6 C4 1_555 1_555
H6 C6 1_555 1_555
N4 N5 1_555 1_555
N5 N6 1_555 1_555
N6 Cu1 1_555 1_555
Cu1F N1F 1_555 1_555
N1F C1F 1_555 1_555
N1A Cu1 1_555 1_555
C1F H1F 1_555 1_555
N2F C1F 1_555 1_555
N3F N2F 1_555 1_555
C2F N1F 1_555 1_555
H2F C2F 1_555 1_555
C3F N2F 1_555 1_555
H3F C3F 1_555 1_555
H4F C3F 1_555 1_555
C4F C3F 1_555 1_555
C5F C6 1_555 1_555
H5F C5F 1_555 1_555
C6F C5 1_555 1_555
H6F C6F 1_555 1_555
N4A N5A 1_555 1_555
N5A N6A 1_555 1_555
N6A Cu1 1_555 1_555
N3 C2 1_555 1_555
N3F C2F 1_555 1_555
C4F C5F 1_555 1_555
C4F C6F 1_555 1_555

#END
