
#######################################################################
#
#                 Cambridge Crystallographic Data Centre
#                                CCDC 
#
#######################################################################
#
# If this CIF has been generated from an entry in the Cambridge 
# Structural Database, then it will include bibliographic, chemical, 
# crystal, experimental, refinement or atomic coordinate data resulting 
# from the CCDC's data processing and validation procedures.
#
#######################################################################

data_VENWOB
_symmetry_cell_setting           monoclinic
_symmetry_space_group_name_H-M   'C 2/c'
_symmetry_Int_Tables_number      15
_space_group_name_Hall           '-C 2yn'
loop_
_symmetry_equiv_pos_site_id
_symmetry_equiv_pos_as_xyz
1 x,y,z
2 1/2+x,1/2+y,z
3 -x,y,1/2-z
4 1/2-x,1/2+y,1/2-z
5 -x,-y,-z
6 1/2-x,1/2-y,-z
7 x,-y,1/2+z
8 1/2+x,1/2-y,1/2+z
_cell_length_a                   14.3431(3)
_cell_length_b                   16.5223(4)
_cell_length_c                   14.6397(3)
_cell_angle_alpha                90
_cell_angle_beta                 111.6554(10)
_cell_angle_gamma                90
_cell_volume                     3224.47
loop_
_atom_site_label
_atom_site_type_symbol
_atom_site_fract_x
_atom_site_fract_y
_atom_site_fract_z
Au1 Au 0.011714(19) 0.479403(14) 0.156429(17)
Ag1 Ag 0.04585(4) 0.58598(3) 0.02717(4)
C1 C 0.1526(5) 0.5299(3) 0.2080(4)
C2 C 0.1786(5) 0.6057(4) 0.2515(4)
C3 C 0.2745(5) 0.6331(4) 0.2930(5)
C4 C 0.3534(6) 0.5845(5) 0.2920(6)
C5 C 0.3315(5) 0.5082(5) 0.2510(6)
C6 C 0.2346(5) 0.4832(4) 0.2097(5)
F1 F 0.1059(3) 0.6551(2) 0.2564(3)
F2 F 0.2951(4) 0.7066(3) 0.3343(3)
F3 F 0.4480(4) 0.6104(4) 0.3322(4)
F4 F 0.4073(4) 0.4599(4) 0.2535(5)
F5 F 0.2186(3) 0.4072(2) 0.1723(3)
C7 C -0.1309(5) 0.4279(3) 0.0942(4)
C8 C -0.1519(6) 0.3485(4) 0.1124(4)
C9 C -0.2482(6) 0.3218(4) 0.0921(5)
C10 C -0.3269(6) 0.3726(4) 0.0516(6)
C11 C -0.3107(5) 0.4500(5) 0.0304(6)
C12 C -0.2135(5) 0.4762(4) 0.0519(5)
F6 F -0.0764(4) 0.2962(2) 0.1527(3)
F7 F -0.2646(4) 0.2439(3) 0.1117(4)
F8 F -0.4214(4) 0.3466(4) 0.0313(4)
F9 F -0.3893(4) 0.5012(3) -0.0104(4)
F10 F -0.2019(3) 0.5547(2) 0.0315(3)
N1 N -0.0359(5) 0.6945(3) 0.0441(5)
C13 C -0.0741(6) 0.7461(4) 0.0662(5)
C14 C -0.1222(7) 0.8130(5) 0.0963(8)
H1 H -0.1370 0.7972 0.1526
H2 H -0.1833 0.8271 0.0434
H3 H -0.0780 0.8589 0.1128
Au1B Au -0.011714(19) 0.479403(14) 0.343571(17)
Au1D Au -0.011714(19) 0.520597(14) -0.156429(17)
Ag1D Ag -0.04585(4) 0.41402(3) -0.02717(4)
C7D C 0.1309(5) 0.5721(3) -0.0942(4)
loop_
_geom_bond_atom_site_label_1
_geom_bond_atom_site_label_2
_geom_bond_site_symmetry_1
_geom_bond_site_symmetry_2
Au1 Ag1 1_555 1_555
Ag1 C1 1_555 1_555
C1 Au1 1_555 1_555
C2 C1 1_555 1_555
C3 C2 1_555 1_555
C4 C3 1_555 1_555
C5 C4 1_555 1_555
C6 C1 1_555 1_555
F1 C2 1_555 1_555
F2 C3 1_555 1_555
F3 C4 1_555 1_555
F4 C5 1_555 1_555
F5 C6 1_555 1_555
C7 Au1 1_555 1_555
C8 C7 1_555 1_555
C9 C8 1_555 1_555
C10 C9 1_555 1_555
C11 C10 1_555 1_555
C12 C7 1_555 1_555
F6 C8 1_555 1_555
F7 C9 1_555 1_555
F8 C10 1_555 1_555
F9 C11 1_555 1_555
F10 C12 1_555 1_555
N1 Ag1 1_555 1_555
C13 N1 1_555 1_555
C14 C13 1_555 1_555
H1 C14 1_555 1_555
H2 C14 1_555 1_555
H3 C14 1_555 1_555
Au1B Au1 1_555 1_555
Au1D Ag1 1_555 1_555
Ag1D Au1 1_555 1_555
C7D Ag1 1_555 1_555
Ag1 Ag1D 1_555 1_555
C5 C6 1_555 1_555
C7 Ag1D 1_555 1_555
C11 C12 1_555 1_555
Au1D Ag1D 1_555 1_555
Au1D C7D 1_555 1_555

#END
