
#######################################################################
#
#                 Cambridge Crystallographic Data Centre
#                                CCDC 
#
#######################################################################
#
# If this CIF has been generated from an entry in the Cambridge 
# Structural Database, then it will include bibliographic, chemical, 
# crystal, experimental, refinement or atomic coordinate data resulting 
# from the CCDC's data processing and validation procedures.
#
#######################################################################

data_VEPFUR10
_symmetry_cell_setting           monoclinic
_symmetry_space_group_name_H-M   'P 21/c'
_symmetry_Int_Tables_number      14
_space_group_name_Hall           '-P 2ybc'
loop_
_symmetry_equiv_pos_site_id
_symmetry_equiv_pos_as_xyz
1 x,y,z
2 -x,1/2+y,1/2-z
3 -x,-y,-z
4 x,1/2-y,1/2+z
_cell_length_a                   12.484(7)
_cell_length_b                   11.573(5)
_cell_length_c                   9.645(4)
_cell_angle_alpha                90
_cell_angle_beta                 108.91(5)
_cell_angle_gamma                90
_cell_volume                     1318.28
loop_
_atom_site_label
_atom_site_type_symbol
_atom_site_fract_x
_atom_site_fract_y
_atom_site_fract_z
Cu1 Cu 0.23642(7) 0.08527(7) 0.66313(9)
O1 O 0.1337(3) 0.0093(4) 0.7446(5)
O2 O 0.3279(3) 0.1618(4) 0.5546(5)
O3 O 0.3192(4) 0.2170(4) 0.8737(5)
N1 N 0.1156(4) 0.1789(4) 0.5326(5)
N2 N 0.3587(4) -0.0291(5) 0.7452(6)
N3 N 0.4759(5) -0.1590(5) 0.8725(7)
C1 C 0.0273(5) 0.0330(5) 0.7211(7)
C2 C -0.0372(5) 0.1129(5) 0.6139(7)
C3 C -0.1512(6) 0.1319(7) 0.5976(8)
C4 C -0.2022(6) 0.0781(8) 0.6858(9)
C5 C -0.1404(7) 0.0022(8) 0.7908(8)
C6 C -0.0287(6) -0.0216(6) 0.8078(7)
C7 C 0.0100(5) 0.1765(5) 0.5200(7)
C8 C 0.1519(5) 0.2498(6) 0.4315(7)
C9 C 0.2754(5) 0.2302(5) 0.4527(6)
C10 C 0.3906(6) -0.0882(6) 0.8696(8)
C11 C 0.5001(7) -0.1445(7) 0.7453(9)
C12 C 0.4298(6) -0.0644(7) 0.6679(8)
C13 C 0.3429(6) -0.0797(7) 0.9918(8)
H1 H -0.201(3) 0.190(4) 0.513(4)
H2 H -0.290(3) 0.095(3) 0.675(3)
H3 H -0.180(3) -0.038(4) 0.860(4)
H4 H 0.017(4) -0.084(4) 0.890(5)
H5 H -0.048(3) 0.227(3) 0.433(4)
H6 H 0.111 0.228 0.336
H7 H 0.147 0.333 0.448
H8 H 0.518 -0.218 0.959
H9 H 0.548 -0.187 0.720
H10 H 0.428 -0.031 0.561
H11 H 0.252 -0.102 0.952
H12 H 0.355 0.010 1.037
H13 H 0.389 -0.141 1.081
C9C C 0.2754(5) 0.2698(5) 0.9527(6)
O3C O 0.3192(4) 0.2830(4) 0.3737(5)
O2C O 0.3279(3) 0.3382(4) 1.0546(5)
C8C C 0.1519(5) 0.2502(6) 0.9315(7)
Cu1C Cu 0.23642(7) 0.41473(7) 0.16313(9)
Cu1C_2 Cu 0.23642(7) 0.41473(7) 1.16313(9)
N1C N 0.1156(4) 0.3211(4) 1.0326(5)
H6C H 0.111 0.272 0.836
H7C H 0.147 0.167 0.948
C7C C 0.0100(5) 0.3235(5) 1.0200(7)
C2C C -0.0372(5) 0.3871(5) 1.1139(7)
H5C H -0.048(3) 0.273(3) 0.933(4)
C1C C 0.0273(5) 0.4670(5) 1.2211(7)
C3C C -0.1512(6) 0.3681(7) 1.0976(8)
C4C C -0.2022(6) 0.4219(8) 1.1858(9)
H1C H -0.201(3) 0.310(4) 1.013(4)
C5C C -0.1404(7) 0.4978(8) 1.2908(8)
H2C H -0.290(3) 0.405(3) 1.175(3)
O1C O 0.1337(3) 0.4907(4) 1.2446(5)
O3C_2 O 0.3192(4) 0.2830(4) 1.3737(5)
N2C N 0.3587(4) 0.5291(5) 1.2452(6)
C6C C -0.0287(6) 0.5216(6) 1.3078(7)
H3C H -0.180(3) 0.538(4) 1.360(4)
C10C C 0.3906(6) 0.5882(6) 1.3696(8)
C12C C 0.4298(6) 0.5644(7) 1.1679(8)
H4C H 0.017(4) 0.584(4) 1.390(5)
N3C N 0.4759(5) 0.6590(5) 1.3725(7)
C13C C 0.3429(6) 0.5797(7) 1.4918(8)
C11C C 0.5001(7) 0.6445(7) 1.2453(9)
H10C H 0.428 0.531 1.061
H8C H 0.518 0.718 1.459
H11C H 0.252 0.602 1.452
H12C H 0.355 0.490 1.537
H13C H 0.389 0.641 1.581
H9C H 0.548 0.687 1.220
loop_
_geom_bond_atom_site_label_1
_geom_bond_atom_site_label_2
_geom_bond_site_symmetry_1
_geom_bond_site_symmetry_2
Cu1 O1 1_555 1_555
O1 C1 1_555 1_555
O2 Cu1 1_555 1_555
O3 Cu1 1_555 1_555
N1 Cu1 1_555 1_555
N2 Cu1 1_555 1_555
N3 C10 1_555 1_555
C1 C2 1_555 1_555
C2 C3 1_555 1_555
C3 C4 1_555 1_555
C4 C5 1_555 1_555
C5 C6 1_555 1_555
C6 C1 1_555 1_555
C7 N1 1_555 1_555
C8 N1 1_555 1_555
C9 O2 1_555 1_555
C10 N2 1_555 1_555
C11 N3 1_555 1_555
C12 N2 1_555 1_555
C13 C10 1_555 1_555
H1 C3 1_555 1_555
H2 C4 1_555 1_555
H3 C5 1_555 1_555
H4 C6 1_555 1_555
H5 C7 1_555 1_555
H6 C8 1_555 1_555
H7 C8 1_555 1_555
H8 N3 1_555 1_555
H9 C11 1_555 1_555
H10 C12 1_555 1_555
H11 C13 1_555 1_555
H12 C13 1_555 1_555
H13 C13 1_555 1_555
C9C O3 1_555 1_555
O3C C9 1_555 1_555
O2C C9C 1_555 1_555
C8C C9C 1_555 1_555
Cu1C O3C 1_555 1_555
Cu1C_2 O2C 1_555 1_555
N1C C8C 1_555 1_555
H6C C8C 1_555 1_555
H7C C8C 1_555 1_555
C7C N1C 1_555 1_555
C2C C7C 1_555 1_555
H5C C7C 1_555 1_555
C1C C2C 1_555 1_555
C3C C2C 1_555 1_555
C4C C3C 1_555 1_555
H1C C3C 1_555 1_555
C5C C4C 1_555 1_555
H2C C4C 1_555 1_555
O1C Cu1C_2 1_555 1_555
O3C_2 Cu1C_2 1_555 1_555
N2C Cu1C_2 1_555 1_555
C6C C1C 1_555 1_555
H3C C5C 1_555 1_555
C10C N2C 1_555 1_555
C12C N2C 1_555 1_555
H4C C6C 1_555 1_555
N3C C10C 1_555 1_555
C13C C10C 1_555 1_555
C11C C12C 1_555 1_555
H10C C12C 1_555 1_555
H8C N3C 1_555 1_555
H11C C13C 1_555 1_555
H12C C13C 1_555 1_555
H13C C13C 1_555 1_555
H9C C11C 1_555 1_555
C2 C7 1_555 1_555
C8 C9 1_555 1_555
C11 C12 1_555 1_555
Cu1C_2 N1C 1_555 1_555
C1C O1C 1_555 1_555
C5C C6C 1_555 1_555
N3C C11C 1_555 1_555

#END
