
#######################################################################
#
#                 Cambridge Crystallographic Data Centre
#                                CCDC 
#
#######################################################################
#
# If this CIF has been generated from an entry in the Cambridge 
# Structural Database, then it will include bibliographic, chemical, 
# crystal, experimental, refinement or atomic coordinate data resulting 
# from the CCDC's data processing and validation procedures.
#
#######################################################################

data_VEPFAX11
_symmetry_cell_setting           triclinic
_symmetry_space_group_name_H-M   'P -1'
_symmetry_Int_Tables_number      2
_space_group_name_Hall           '-P 1'
loop_
_symmetry_equiv_pos_site_id
_symmetry_equiv_pos_as_xyz
1 x,y,z
2 -x,-y,-z
_cell_length_a                   8.2937(8)
_cell_length_b                   9.4832(9)
_cell_length_c                   11.8774(13)
_cell_angle_alpha                74.953(9)
_cell_angle_beta                 83.537(9)
_cell_angle_gamma                70.676(9)
_cell_volume                     850.949
loop_
_atom_site_label
_atom_site_type_symbol
_atom_site_fract_x
_atom_site_fract_y
_atom_site_fract_z
Cu1 Cu 0.18755(5) 0.04237(4) 0.06302(3)
K1 K 0.60249(9) -0.31888(8) -0.06184(7)
S1 S 0.56109(11) 0.03765(10) -0.24394(7)
O1 O 0.2938(3) -0.1593(3) 0.0298(2)
O2 O 0.3039(3) -0.4043(3) 0.0882(2)
O3 O 0.0734(3) 0.2419(3) 0.0887(2)
N1 N 0.3199(3) 0.1282(3) -0.0703(2)
N2 N 0.0436(3) -0.0579(3) 0.1687(2)
C1 C 0.4201(4) 0.0900(4) -0.1435(3)
C2 C 0.2422(4) -0.2697(4) 0.0939(3)
C3 C 0.0959(4) -0.2252(4) 0.1827(3)
H1 H -0.0032 -0.2542 0.1666
C4 C -0.0961(4) 0.0125(4) 0.2185(3)
H2 H -0.1653 -0.0471 0.2605
C5 C -0.1546(4) 0.1754(4) 0.2149(3)
C6 C -0.0681(4) 0.2800(4) 0.1516(3)
C7 C -0.1425(4) 0.4362(4) 0.1572(3)
H3 H -0.0886 0.5094 0.1159
C8 C -0.2905(4) 0.4839(4) 0.2208(3)
H4 H -0.3370 0.5894 0.2224
C9 C -0.3741(4) 0.3802(4) 0.2833(3)
H5 H -0.4764 0.4143 0.3272
C10 C -0.3060(4) 0.2287(4) 0.2802(3)
H6 H -0.3617 0.1576 0.3230
C11 C 0.1600(4) -0.3152(4) 0.3070(3)
H7 H 0.2062 -0.4263 0.3090
H8 H 0.2543 -0.2824 0.3241
C12 C 0.0220(4) -0.2908(4) 0.3999(3)
C13 C 0.0229(4) -0.2089(4) 0.4817(3)
H9 H 0.1166 -0.1725 0.4823
C14 C -0.1111(5) -0.1802(4) 0.5621(3)
H10 H -0.1081 -0.1254 0.6180
C15 C -0.2490(5) -0.2308(5) 0.5615(3)
H11 H -0.3424 -0.2082 0.6153
C16 C -0.2508(4) -0.3148(4) 0.4823(3)
H12 H -0.3443 -0.3517 0.4826
C17 C -0.1165(4) -0.3446(4) 0.4030(3)
H13 H -0.1182 -0.4029 0.3494
K1A K 0.39751(9) -0.68112(8) 0.06184(7)
K1A_2 K 0.39751(9) 0.31888(8) 0.06184(7)
O2A O 0.6961(3) -0.5957(3) -0.0882(2)
O3A O 0.9266(3) -0.2419(3) -0.0887(2)
N1A N 0.6801(3) -0.1282(3) 0.0703(2)
loop_
_geom_bond_atom_site_label_1
_geom_bond_atom_site_label_2
_geom_bond_site_symmetry_1
_geom_bond_site_symmetry_2
Cu1 O1 1_555 1_555
K1 S1 1_555 1_555
S1 C1 1_555 1_555
O1 K1 1_555 1_555
O2 K1 1_555 1_555
O3 Cu1 1_555 1_555
N1 Cu1 1_555 1_555
N2 Cu1 1_555 1_555
C1 N1 1_555 1_555
C2 O1 1_555 1_555
C3 N2 1_555 1_555
H1 C3 1_555 1_555
C4 N2 1_555 1_555
H2 C4 1_555 1_555
C5 C4 1_555 1_555
C6 O3 1_555 1_555
C7 C6 1_555 1_555
H3 C7 1_555 1_555
C8 C7 1_555 1_555
H4 C8 1_555 1_555
C9 C8 1_555 1_555
H5 C9 1_555 1_555
C10 C5 1_555 1_555
H6 C10 1_555 1_555
C11 C3 1_555 1_555
H7 C11 1_555 1_555
H8 C11 1_555 1_555
C12 C11 1_555 1_555
C13 C12 1_555 1_555
H9 C13 1_555 1_555
C14 C13 1_555 1_555
H10 C14 1_555 1_555
C15 C14 1_555 1_555
H11 C15 1_555 1_555
C16 C15 1_555 1_555
H12 C16 1_555 1_555
C17 C12 1_555 1_555
H13 C17 1_555 1_555
K1A O2 1_555 1_555
K1A_2 O3 1_555 1_555
O2A K1 1_555 1_555
O3A K1 1_555 1_555
N1A K1 1_555 1_555
O2 C2 1_555 1_555
N1 K1A_2 1_555 1_555
C2 C3 1_555 1_555
C5 C6 1_555 1_555
C9 C10 1_555 1_555
C16 C17 1_555 1_555
K1A O2A 1_555 1_555

#END
