
#######################################################################
#
#                 Cambridge Crystallographic Data Centre
#                                CCDC 
#
#######################################################################
#
# If this CIF has been generated from an entry in the Cambridge 
# Structural Database, then it will include bibliographic, chemical, 
# crystal, experimental, refinement or atomic coordinate data resulting 
# from the CCDC's data processing and validation procedures.
#
#######################################################################

data_VEPFAX10
_symmetry_cell_setting           triclinic
_symmetry_space_group_name_H-M   'P -1'
_symmetry_Int_Tables_number      2
_space_group_name_Hall           '-P 1'
loop_
_symmetry_equiv_pos_site_id
_symmetry_equiv_pos_as_xyz
1 x,y,z
2 -x,-y,-z
_cell_length_a                   8.283(4)
_cell_length_b                   9.477(6)
_cell_length_c                   12.271(5)
_cell_angle_alpha                74.251(41)
_cell_angle_beta                 82.351(34)
_cell_angle_gamma                70.475(40)
_cell_volume                     872.822
loop_
_atom_site_label
_atom_site_type_symbol
_atom_site_fract_x
_atom_site_fract_y
_atom_site_fract_z
Cu1 Cu 0.18679(4) 0.03636(3) 0.06271(3)
S1 S 0.4384(1) -0.0439(1) 0.2412(1)
O1 O 0.0769(2) 0.2361(2) 0.0883(1)
O2 O 0.2902(2) -0.1664(2) 0.0320(1)
O3 O 0.2931(2) -0.4094(2) 0.0897(1)
N1 N 0.0405(2) -0.0613(2) 0.1679(1)
N2 N 0.3224(3) 0.1202(2) -0.0679(2)
C1 C 0.2346(3) -0.2738(2) 0.0945(2)
C2 C 0.0896(3) -0.2297(2) 0.1832(2)
C3 C -0.0990(3) 0.0099(2) 0.2170(2)
C4 C -0.1541(3) 0.1736(2) 0.2132(2)
C5 C -0.3067(3) 0.2285(3) 0.2756(2)
C6 C -0.3712(3) 0.3813(3) 0.2791(2)
C7 C -0.2846(3) 0.4820(3) 0.2173(2)
C8 C -0.1341(3) 0.4332(2) 0.1541(2)
C9 C -0.0649(3) 0.2763(2) 0.1500(2)
C10 C 0.5798(3) -0.0876(2) 0.1403(2)
C11 C 0.1557(3) -0.3199(3) 0.3012(2)
C12 C 0.0209(3) -0.2923(2) 0.3956(2)
C13 C -0.1244(4) -0.3399(3) 0.4040(2)
C14 C -0.2549(4) -0.3057(3) 0.4856(2)
C15 C -0.2396(4) -0.2276(4) 0.5622(2)
C16 C -0.0971(4) -0.1842(3) 0.5565(2)
C17 C 0.0330(4) -0.2147(3) 0.4737(2)
C10A C 0.4202(3) 0.0876(2) -0.1403(2)
N2A N 0.6776(3) -0.1202(2) 0.0679(2)
S1A S 0.5616(1) 0.0439(1) -0.2412(1)
Cu1A Cu 0.81321(4) -0.03636(3) -0.06271(3)
O1A O 0.9231(2) -0.2361(2) -0.0883(1)
O2A O 0.7098(2) 0.1664(2) -0.0320(1)
N1A N 0.9595(2) 0.0613(2) -0.1679(1)
C9A C 1.0649(3) -0.2763(2) -0.1500(2)
C1A C 0.7654(3) 0.2738(2) -0.0945(2)
C2A C 0.9104(3) 0.2297(2) -0.1832(2)
C3A C 1.0990(3) -0.0099(2) -0.2170(2)
C4A C 1.1541(3) -0.1736(2) -0.2132(2)
C8A C 1.1341(3) -0.4332(2) -0.1541(2)
O3A O 0.7069(2) 0.4094(2) -0.0897(1)
C11A C 0.8443(3) 0.3199(3) -0.3012(2)
C5A C 1.3067(3) -0.2285(3) -0.2756(2)
C7A C 1.2846(3) -0.4820(3) -0.2173(2)
C12A C 0.9791(3) 0.2923(2) -0.3956(2)
C6A C 1.3712(3) -0.3813(3) -0.2791(2)
C13A C 1.1244(4) 0.3399(3) -0.4040(2)
C17A C 0.9670(4) 0.2147(3) -0.4737(2)
C14A C 1.2549(4) 0.3057(3) -0.4856(2)
C16A C 1.0971(4) 0.1842(3) -0.5565(2)
C15A C 1.2396(4) 0.2276(4) -0.5622(2)
K1 K 0.3961(1) 0.3166(1) 0.0594(1)
loop_
_geom_bond_atom_site_label_1
_geom_bond_atom_site_label_2
_geom_bond_site_symmetry_1
_geom_bond_site_symmetry_2
Cu1 S1 1_555 1_555
S1 C10 1_555 1_555
O1 Cu1 1_555 1_555
O2 Cu1 1_555 1_555
O3 C1 1_555 1_555
N1 Cu1 1_555 1_555
N2 Cu1 1_555 1_555
C1 O2 1_555 1_555
C2 N1 1_555 1_555
C3 N1 1_555 1_555
C4 C3 1_555 1_555
C5 C4 1_555 1_555
C6 C5 1_555 1_555
C7 C6 1_555 1_555
C8 C7 1_555 1_555
C9 O1 1_555 1_555
C10 N2A 1_555 1_555
C11 C2 1_555 1_555
C12 C11 1_555 1_555
C13 C12 1_555 1_555
C14 C13 1_555 1_555
C15 C14 1_555 1_555
C16 C15 1_555 1_555
C17 C12 1_555 1_555
C10A N2 1_555 1_555
N2A Cu1A 1_555 1_555
S1A C10A 1_555 1_555
Cu1A S1A 1_555 1_555
O1A Cu1A 1_555 1_555
O2A Cu1A 1_555 1_555
N1A Cu1A 1_555 1_555
C9A O1A 1_555 1_555
C1A O2A 1_555 1_555
C2A N1A 1_555 1_555
C3A N1A 1_555 1_555
C4A C9A 1_555 1_555
C8A C9A 1_555 1_555
O3A C1A 1_555 1_555
C11A C2A 1_555 1_555
C5A C4A 1_555 1_555
C7A C8A 1_555 1_555
C12A C11A 1_555 1_555
C6A C5A 1_555 1_555
C13A C12A 1_555 1_555
C17A C12A 1_555 1_555
C14A C13A 1_555 1_555
C16A C17A 1_555 1_555
C15A C14A 1_555 1_555
C1 C2 1_555 1_555
C4 C9 1_555 1_555
C8 C9 1_555 1_555
C16 C17 1_555 1_555
C1A C2A 1_555 1_555
C3A C4A 1_555 1_555
C7A C6A 1_555 1_555
C16A C15A 1_555 1_555

#END
