
#######################################################################
#
#                 Cambridge Crystallographic Data Centre
#                                CCDC 
#
#######################################################################
#
# If this CIF has been generated from an entry in the Cambridge 
# Structural Database, then it will include bibliographic, chemical, 
# crystal, experimental, refinement or atomic coordinate data resulting 
# from the CCDC's data processing and validation procedures.
#
#######################################################################

data_VEPJIL
_symmetry_cell_setting           monoclinic
_symmetry_space_group_name_H-M   'P 21/c'
_symmetry_Int_Tables_number      14
_space_group_name_Hall           '-P 2ybc'
loop_
_symmetry_equiv_pos_site_id
_symmetry_equiv_pos_as_xyz
1 x,y,z
2 -x,1/2+y,1/2-z
3 -x,-y,-z
4 x,1/2-y,1/2+z
_cell_length_a                   12.139(3)
_cell_length_b                   25.449(6)
_cell_length_c                   9.828(2)
_cell_angle_alpha                90
_cell_angle_beta                 92.826(5)
_cell_angle_gamma                90
_cell_volume                     3032.43
loop_
_atom_site_label
_atom_site_type_symbol
_atom_site_fract_x
_atom_site_fract_y
_atom_site_fract_z
Sm1 Sm -0.037997(9) 0.073848(4) 0.603924(11)
O1 O -0.03752(15) -0.00428(7) 1.24590(17)
N1 N -0.14263(18) 0.12041(8) 1.1542(2)
C1 C -0.05291(19) 0.04409(9) 1.2557(2)
O2 O -0.03233(15) 0.07308(6) 1.35698(17)
N2 N 0.33549(18) 0.00711(9) 0.3628(2)
C2 C -0.10633(19) 0.07163(9) 1.1311(2)
O3 O -0.17822(14) 0.05908(7) 0.77253(16)
N3 N 0.1031(2) 0.25811(9) 0.5511(2)
C3 C -0.1207(2) 0.04895(9) 1.0048(2)
H1 H -0.0964 0.0148 0.9914
O4 O 0.13893(14) 0.00155(7) 0.47364(17)
C4 C -0.1722(2) 0.07710(9) 0.8947(2)
O5 O 0.16349(15) 0.07812(6) 0.57731(19)
C5 C -0.2194(2) 0.12750(10) 0.9259(2)
O6 O 0.56739(16) 0.11348(8) 0.4954(2)
C6 C -0.2807(2) 0.15727(11) 0.8279(3)
H2 H -0.2938 0.1438 0.7407
O7 O 0.00791(15) 0.16436(7) 0.53499(18)
C7 C -0.3211(2) 0.20550(11) 0.8590(3)
H3 H -0.3629 0.2243 0.7937
O8 O -0.11169(15) 0.19144(7) 0.36875(18)
C8 C -0.2997(3) 0.22697(11) 0.9898(3)
H4 H -0.3261 0.2603 1.0096
O9 O 0.01734(16) 0.37781(7) 0.29441(17)
C9 C -0.2406(2) 0.19935(11) 1.0879(3)
H5 H -0.2267 0.2137 1.1740
O10 O -0.20888(16) 0.11654(8) 0.5154(2)
C10 C -0.2010(2) 0.14888(9) 1.0573(2)
C11 C 0.19632(19) 0.04064(9) 0.5073(2)
C12 C 0.3121(2) 0.04276(9) 0.4583(2)
C13 C 0.3892(2) 0.07817(9) 0.5044(3)
H6 H 0.3711 0.1018 0.5720
C14 C 0.4963(2) 0.08029(10) 0.4526(3)
C15 C 0.5185(2) 0.04195(10) 0.3474(3)
C16 C 0.6208(2) 0.03895(12) 0.2865(3)
H7 H 0.6763 0.0628 0.3115
C17 C 0.6398(3) 0.00135(14) 0.1907(3)
H8 H 0.7079 -0.0001 0.1514
C18 C 0.5577(3) -0.03479(14) 0.1517(3)
H9 H 0.5718 -0.0604 0.0874
C19 C 0.4571(2) -0.03277(12) 0.2069(3)
H10 H 0.4023 -0.0566 0.1793
C20 C 0.4365(2) 0.00552(10) 0.3061(2)
C21 C -0.0306(2) 0.19724(9) 0.4504(2)
C22 C 0.0243(2) 0.25084(9) 0.4532(2)
C23 C -0.0072(2) 0.28985(9) 0.3639(2)
H11 H -0.0620 0.2834 0.2964
C24 C 0.0434(2) 0.34022(9) 0.3739(2)
C25 C 0.1254(2) 0.34763(10) 0.4829(3)
C26 C 0.1787(3) 0.39645(11) 0.5035(3)
H12 H 0.1599 0.4247 0.4469
C27 C 0.2574(4) 0.40242(14) 0.6058(4)
H13 H 0.2928 0.4346 0.6183
C28 C 0.2853(4) 0.36034(16) 0.6921(4)
H14 H 0.3387 0.3651 0.7621
C29 C 0.2358(3) 0.31240(14) 0.6759(3)
H15 H 0.2555 0.2846 0.7336
C30 C 0.1546(2) 0.30578(11) 0.5707(3)
H16 H -0.269(3) 0.1119(13) 0.512(3)
H17 H -0.193(3) 0.1410(13) 0.462(3)
H20 H 0.293(2) -0.0117(11) 0.335(3)
H21 H -0.127(3) 0.1330(13) 1.231(3)
H22 H 0.127(3) 0.2320(13) 0.599(3)
Sm1B Sm 0.037997(9) -0.073848(4) 0.396076(11)
Sm1_2 Sm -0.037997(9) 0.073848(4) 1.603924(11)
Sm1B_2 Sm 0.037997(9) -0.073848(4) 1.396076(11)
Sm1C Sm -0.037997(9) 0.426152(4) 0.103924(11)
O1B O 0.03752(15) 0.00428(7) 0.75410(17)
O2_2 O -0.03233(15) 0.07308(6) 0.35698(17)
O4B O -0.13893(14) -0.00155(7) 0.52636(17)
O9C O 0.01734(16) 0.12219(7) 0.79441(17)
O11 O 0.2418(2) 0.17970(10) 0.6847(3)
H18 H 0.295(3) 0.1832(14) 0.654(4)
H19 H 0.221(3) 0.1517(14) 0.658(3)
O12 O 0.4055(4) 0.2150(3) 0.8992(5)
O13 O 0.4549(3) 0.20356(14) 0.5934(4)
loop_
_geom_bond_atom_site_label_1
_geom_bond_atom_site_label_2
_geom_bond_site_symmetry_1
_geom_bond_site_symmetry_2
Sm1 O3 1_555 1_555
O1 C1 1_555 1_555
N1 C2 1_555 1_555
C1 O2 1_555 1_555
O2 Sm1_2 1_555 1_555
N2 C12 1_555 1_555
C2 C1 1_555 1_555
O3 C4 1_555 1_555
N3 C22 1_555 1_555
C3 C2 1_555 1_555
H1 C3 1_555 1_555
O4 C11 1_555 1_555
C4 C3 1_555 1_555
O5 Sm1 1_555 1_555
C5 C4 1_555 1_555
O6 C14 1_555 1_555
C6 C5 1_555 1_555
H2 C6 1_555 1_555
O7 Sm1 1_555 1_555
C7 C6 1_555 1_555
H3 C7 1_555 1_555
O8 C21 1_555 1_555
C8 C7 1_555 1_555
H4 C8 1_555 1_555
O9 C24 1_555 1_555
C9 C8 1_555 1_555
H5 C9 1_555 1_555
O10 Sm1 1_555 1_555
C10 N1 1_555 1_555
O11 H18 1_555 1_555
C11 O5 1_555 1_555
C12 C11 1_555 1_555
C13 C12 1_555 1_555
H6 C13 1_555 1_555
C14 C13 1_555 1_555
C15 C14 1_555 1_555
C16 C15 1_555 1_555
H7 C16 1_555 1_555
C17 C16 1_555 1_555
H8 C17 1_555 1_555
C18 C17 1_555 1_555
H9 C18 1_555 1_555
C19 C18 1_555 1_555
H10 C19 1_555 1_555
C20 N2 1_555 1_555
C21 O7 1_555 1_555
C22 C21 1_555 1_555
C23 C22 1_555 1_555
H11 C23 1_555 1_555
C24 C23 1_555 1_555
C25 C24 1_555 1_555
C26 C25 1_555 1_555
H12 C26 1_555 1_555
C27 C26 1_555 1_555
H13 C27 1_555 1_555
C28 C27 1_555 1_555
H14 C28 1_555 1_555
C29 C28 1_555 1_555
H15 C29 1_555 1_555
C30 N3 1_555 1_555
H16 O10 1_555 1_555
H17 O10 1_555 1_555
H19 O11 1_555 1_555
H20 N2 1_555 1_555
H21 N1 1_555 1_555
H22 N3 1_555 1_555
Sm1B O4 1_555 1_555
Sm1B_2 O1 1_555 1_555
Sm1C O9 1_555 1_555
O1B Sm1 1_555 1_555
O2_2 Sm1 1_555 1_555
O4B Sm1 1_555 1_555
O9C Sm1 1_555 1_555
C5 C10 1_555 1_555
C9 C10 1_555 1_555
C15 C20 1_555 1_555
C19 C20 1_555 1_555
C25 C30 1_555 1_555
C29 C30 1_555 1_555

#END
