
#######################################################################
#
#                 Cambridge Crystallographic Data Centre
#                                CCDC 
#
#######################################################################
#
# If this CIF has been generated from an entry in the Cambridge 
# Structural Database, then it will include bibliographic, chemical, 
# crystal, experimental, refinement or atomic coordinate data resulting 
# from the CCDC's data processing and validation procedures.
#
#######################################################################

data_VEPJUX
_symmetry_cell_setting           monoclinic
_symmetry_space_group_name_H-M   'P 21/c'
_symmetry_Int_Tables_number      14
_space_group_name_Hall           '-P 2ybc'
loop_
_symmetry_equiv_pos_site_id
_symmetry_equiv_pos_as_xyz
1 x,y,z
2 -x,1/2+y,1/2-z
3 -x,-y,-z
4 x,1/2-y,1/2+z
_cell_length_a                   12.129(3)
_cell_length_b                   25.379(6)
_cell_length_c                   9.818(2)
_cell_angle_alpha                90
_cell_angle_beta                 92.835(4)
_cell_angle_gamma                90
_cell_volume                     3018.5
loop_
_atom_site_label
_atom_site_type_symbol
_atom_site_fract_x
_atom_site_fract_y
_atom_site_fract_z
Gd1 Gd 0.538687(9) 0.074034(4) 0.895513(10)
O1 O 0.53248(16) 0.07293(6) 0.14095(17)
N1 N 0.64284(18) 0.12020(8) 0.3439(2)
C1 C 0.55283(19) 0.04358(9) 0.2421(2)
O2 O 0.53742(15) -0.00463(7) 0.25192(17)
N2 N 0.16518(17) 0.00723(9) 1.1376(2)
C2 C 0.6060(2) 0.07124(9) 0.3673(2)
O3 O 0.67689(15) 0.05897(7) 0.72661(17)
N3 N 0.3977(2) 0.25816(9) 0.9489(2)
C3 C 0.6196(2) 0.04859(10) 0.4939(2)
H1 H 0.5946 0.0144 0.5075
O4 O 0.33912(15) 0.07772(7) 0.9244(2)
C4 C 0.6716(2) 0.07687(9) 0.6046(2)
O5 O 0.36162(14) 0.00077(7) 1.02809(17)
C5 C 0.7192(2) 0.12723(10) 0.5729(2)
O6 O -0.06716(16) 0.11336(9) 1.0013(2)
C6 C 0.7815(2) 0.15695(12) 0.6711(3)
H2 H 0.7950 0.1433 0.7582
O7 O 0.49284(16) 0.16403(7) 0.96464(18)
C7 C 0.8221(3) 0.20538(12) 0.6398(3)
H3 H 0.8640 0.2242 0.7051
O8 O 0.61355(16) 0.19135(7) 1.12956(19)
C8 C 0.8007(3) 0.22689(12) 0.5092(3)
H4 H 0.8270 0.2603 0.4896
O9 O 0.48380(16) 0.37790(7) 1.20686(18)
C9 C 0.7417(3) 0.19925(11) 0.4104(3)
H5 H 0.7285 0.2136 0.3239
O10 O 0.70839(16) 0.11623(8) 0.9820(2)
C10 C 0.7013(2) 0.14881(10) 0.4416(2)
C11 C 0.30566(19) 0.04016(9) 0.9938(2)
C12 C 0.18908(19) 0.04265(10) 1.0421(2)
C13 C 0.1125(2) 0.07842(10) 0.9940(3)
H6 H 0.1311 0.1020 0.9265
C14 C 0.0041(2) 0.08026(10) 1.0456(3)
C15 C -0.0177(2) 0.04235(11) 1.1517(3)
C16 C -0.1209(2) 0.03923(13) 1.2123(3)
H7 H -0.1765 0.0629 1.1862
C17 C -0.1403(3) 0.00201(15) 1.3086(3)
H8 H -0.2086 0.0007 1.3476
C18 C -0.0579(3) -0.03421(15) 1.3489(3)
H9 H -0.0724 -0.0598 1.4134
C19 C 0.0435(2) -0.03229(13) 1.2942(3)
H10 H 0.0985 -0.0560 1.3227
C20 C 0.0642(2) 0.00593(11) 1.1941(3)
C21 C 0.5316(2) 0.19697(10) 1.0483(2)
C22 C 0.4771(2) 0.25080(10) 1.0468(2)
C23 C 0.5082(2) 0.28989(10) 1.1363(3)
H11 H 0.5630 0.2834 1.2038
C24 C 0.4579(2) 0.34028(10) 1.1273(2)
C25 C 0.3751(2) 0.34783(10) 1.0179(3)
C26 C 0.3222(3) 0.39676(12) 0.9985(3)
H12 H 0.3409 0.4249 1.0556
C27 C 0.2428(4) 0.40280(15) 0.8951(4)
H13 H 0.2074 0.4351 0.8824
C28 C 0.2150(4) 0.36078(17) 0.8091(4)
H14 H 0.1612 0.3656 0.7395
C29 C 0.2644(3) 0.31275(15) 0.8239(4)
H15 H 0.2448 0.2851 0.7656
C30 C 0.3463(3) 0.30600(11) 0.9302(3)
H16 H 0.628(3) 0.1331(12) 0.264(3)
H17 H 0.211(3) -0.0118(13) 1.168(3)
H18 H 0.372(3) 0.2320(15) 0.904(4)
H19 H 0.777(4) 0.1135(16) 0.988(4)
H20 H 0.697(3) 0.1405(17) 1.042(4)
Gd1B Gd 0.461313(9) -0.074034(4) 0.104487(10)
Gd1_2 Gd 0.538687(9) 0.074034(4) -0.104487(10)
Gd1B_2 Gd 0.461313(9) -0.074034(4) 1.104487(10)
Gd1C Gd 0.538687(9) 0.425966(4) 1.395513(10)
O1_2 O 0.53248(16) 0.07293(6) 1.14095(17)
O2B O 0.46258(15) 0.00463(7) 0.74808(17)
O5B O 0.63838(14) -0.00077(7) 0.97191(17)
O9C O 0.48380(16) 0.12210(7) 0.70686(18)
O11 O 0.2600(2) 0.17975(10) 0.8146(3)
H21 H 0.276(4) 0.1497(18) 0.838(4)
H22 H 0.199(4) 0.1816(17) 0.855(4)
O12 O 0.0946(5) 0.2169(3) 0.6017(6)
O13 O 0.0452(3) 0.20338(15) 0.9041(4)
loop_
_geom_bond_atom_site_label_1
_geom_bond_atom_site_label_2
_geom_bond_site_symmetry_1
_geom_bond_site_symmetry_2
Gd1 O3 1_555 1_555
O1 C1 1_555 1_555
N1 C2 1_555 1_555
C1 O2 1_555 1_555
O2 Gd1B 1_555 1_555
N2 C12 1_555 1_555
C2 C1 1_555 1_555
O3 C4 1_555 1_555
N3 C22 1_555 1_555
C3 C2 1_555 1_555
H1 C3 1_555 1_555
O4 Gd1 1_555 1_555
C4 C3 1_555 1_555
O5 C11 1_555 1_555
C5 C4 1_555 1_555
O6 C14 1_555 1_555
C6 C5 1_555 1_555
H2 C6 1_555 1_555
O7 Gd1 1_555 1_555
C7 C6 1_555 1_555
H3 C7 1_555 1_555
O8 C21 1_555 1_555
C8 C7 1_555 1_555
H4 C8 1_555 1_555
O9 C24 1_555 1_555
C9 C8 1_555 1_555
H5 C9 1_555 1_555
O10 Gd1 1_555 1_555
C10 N1 1_555 1_555
O11 H21 1_555 1_555
C11 O4 1_555 1_555
C12 C11 1_555 1_555
C13 C12 1_555 1_555
H6 C13 1_555 1_555
C14 C13 1_555 1_555
C15 C14 1_555 1_555
C16 C15 1_555 1_555
H7 C16 1_555 1_555
C17 C16 1_555 1_555
H8 C17 1_555 1_555
C18 C17 1_555 1_555
H9 C18 1_555 1_555
C19 C18 1_555 1_555
H10 C19 1_555 1_555
C20 N2 1_555 1_555
C21 O7 1_555 1_555
C22 C21 1_555 1_555
C23 C22 1_555 1_555
H11 C23 1_555 1_555
C24 C23 1_555 1_555
C25 C24 1_555 1_555
C26 C25 1_555 1_555
H12 C26 1_555 1_555
C27 C26 1_555 1_555
H13 C27 1_555 1_555
C28 C27 1_555 1_555
H14 C28 1_555 1_555
C29 C28 1_555 1_555
H15 C29 1_555 1_555
C30 N3 1_555 1_555
H16 N1 1_555 1_555
H17 N2 1_555 1_555
H18 N3 1_555 1_555
H19 O10 1_555 1_555
H20 O10 1_555 1_555
H22 O11 1_555 1_555
Gd1_2 O1 1_555 1_555
Gd1B_2 O5 1_555 1_555
Gd1C O9 1_555 1_555
O1_2 Gd1 1_555 1_555
O2B Gd1 1_555 1_555
O5B Gd1 1_555 1_555
O9C Gd1 1_555 1_555
C5 C10 1_555 1_555
C9 C10 1_555 1_555
C15 C20 1_555 1_555
C19 C20 1_555 1_555
C25 C30 1_555 1_555
C29 C30 1_555 1_555

#END
