
#######################################################################
#
#                 Cambridge Crystallographic Data Centre
#                                CCDC 
#
#######################################################################
#
# If this CIF has been generated from an entry in the Cambridge 
# Structural Database, then it will include bibliographic, chemical, 
# crystal, experimental, refinement or atomic coordinate data resulting 
# from the CCDC's data processing and validation procedures.
#
#######################################################################

data_VEPJEH
_symmetry_cell_setting           monoclinic
_symmetry_space_group_name_H-M   'P 21/c'
_symmetry_Int_Tables_number      14
_space_group_name_Hall           '-P 2ybc'
loop_
_symmetry_equiv_pos_site_id
_symmetry_equiv_pos_as_xyz
1 x,y,z
2 -x,1/2+y,1/2-z
3 -x,-y,-z
4 x,1/2-y,1/2+z
_cell_length_a                   12.131(2)
_cell_length_b                   25.337(5)
_cell_length_c                   9.8149(18)
_cell_angle_alpha                90
_cell_angle_beta                 92.879(4)
_cell_angle_gamma                90
_cell_volume                     3012.93
loop_
_atom_site_label
_atom_site_type_symbol
_atom_site_fract_x
_atom_site_fract_y
_atom_site_fract_z
Tb1 Tb -0.539110(12) -0.074140(6) -0.395220(16)
O1 O -0.34092(19) -0.07737(9) -0.4251(3)
N1 N -0.1659(2) -0.00728(11) -0.6379(3)
H1 H -0.2156 0.0151 -0.6650
C1 C -0.3061(3) -0.03993(13) -0.4941(3)
O2 O -0.36188(19) -0.00013(9) -0.5292(2)
N2 N -0.6432(2) -0.12016(11) 0.1567(3)
H2 H -0.6300 -0.1341 0.2357
C2 C -0.1896(3) -0.04284(13) -0.5414(4)
O3 O 0.0666(2) -0.11367(11) -0.5010(3)
N3 N -0.3974(3) -0.25821(12) -0.4486(3)
H3 H -0.3782 -0.2322 -0.3962
C3 C -0.1129(3) -0.07835(14) -0.4941(4)
H4 H -0.1314 -0.1020 -0.4265
O5 O -0.4936(2) -0.16390(9) -0.4639(3)
C4 C -0.0046(3) -0.08039(14) -0.5449(4)
O6 O -0.4832(2) -0.37824(9) -0.7074(3)
C5 C 0.0178(3) -0.04243(15) -0.6515(4)
O7 O -0.6147(2) -0.19162(10) -0.6287(3)
C6 C 0.1207(3) -0.03962(17) -0.7120(4)
H5 H 0.1760 -0.0635 -0.6863
O8 O -0.7078(2) -0.11604(10) -0.4810(3)
C7 C 0.1399(4) -0.00212(19) -0.8080(5)
H6 H 0.2084 -0.0006 -0.8462
O9 O -0.6761(2) -0.05890(9) -0.2262(2)
C8 C 0.0575(4) 0.03416(19) -0.8497(5)
H7 H 0.0715 0.0594 -0.9155
O10 O -0.5328(2) -0.07296(9) 0.3605(2)
C9 C -0.0433(3) 0.03243(17) -0.7935(4)
H8 H -0.0979 0.0565 -0.8208
O11 O -0.5367(2) 0.00490(9) 0.2496(2)
C10 C -0.0642(3) -0.00586(14) -0.6943(4)
C11 C -0.5528(3) -0.04365(13) 0.2594(3)
C12 C -0.6058(3) -0.07123(12) 0.1341(3)
C13 C -0.6195(3) -0.04868(13) 0.0070(3)
H9 H -0.5946 -0.0145 -0.0066
C14 C -0.6711(3) -0.07681(13) -0.1038(4)
C15 C -0.7191(3) -0.12741(13) -0.0723(4)
C16 C -0.7816(3) -0.15729(15) -0.1707(4)
H10 H -0.7952 -0.1437 -0.2580
C17 C -0.8220(3) -0.20556(16) -0.1390(4)
H11 H -0.8634 -0.2246 -0.2046
C18 C -0.8018(4) -0.22689(17) -0.0086(4)
H12 H -0.8289 -0.2602 0.0114
C19 C -0.7014(3) -0.14881(13) 0.0592(4)
C20 C -0.5326(3) -0.19714(13) -0.5485(4)
C21 C -0.4772(3) -0.25100(12) -0.5463(4)
C22 C -0.5087(3) -0.28995(13) -0.6364(4)
H13 H -0.5637 -0.2834 -0.7037
C23 C -0.4577(3) -0.34046(13) -0.6275(3)
C24 C -0.3743(3) -0.34786(14) -0.5183(4)
C25 C -0.3207(4) -0.39718(16) -0.4993(5)
H14 H -0.3392 -0.4254 -0.5567
C26 C -0.7423(3) -0.19917(15) 0.0897(4)
H15 H -0.7290 -0.2136 0.1761
C27 C -0.2421(5) -0.40310(19) -0.3968(5)
H16 H -0.2070 -0.4355 -0.3843
C28 C -0.2136(5) -0.3610(2) -0.3099(6)
H17 H -0.1591 -0.3657 -0.2409
C29 C -0.2644(4) -0.31295(19) -0.3247(5)
H18 H -0.2456 -0.2852 -0.2659
C30 C -0.3453(3) -0.30634(15) -0.4299(4)
H19 H -0.7776 -0.1057 -0.4800
H20 H -0.7013 -0.1441 -0.5353
Tb1B Tb -0.460890(12) 0.074140(6) -0.604780(16)
Tb1C Tb -0.539110(12) -0.425860(6) -0.895220(16)
Tb1B_2 Tb -0.460890(12) 0.074140(6) 0.395220(16)
Tb1_2 Tb -0.539110(12) -0.074140(6) 0.604780(16)
O2B O -0.63812(19) 0.00013(9) -0.4708(2)
O6C O -0.4832(2) -0.12176(9) -0.2074(3)
O10_2 O -0.5328(2) -0.07296(9) -0.6395(2)
O11B O -0.4633(2) -0.00490(9) -0.2496(2)
O4 O -1.0958(5) -0.2162(3) -1.1010(6)
O12 O -0.0461(3) -0.20344(16) -0.4020(5)
O13 O -0.2602(3) -0.17907(12) -0.3150(3)
H21 H -0.1941 -0.1878 -0.3535
H22 H -0.2867 -0.1484 -0.3618
loop_
_geom_bond_atom_site_label_1
_geom_bond_atom_site_label_2
_geom_bond_site_symmetry_1
_geom_bond_site_symmetry_2
Tb1 O1 1_555 1_555
O1 C1 1_555 1_555
N1 H1 1_555 1_555
C1 O2 1_555 1_555
O2 Tb1B 1_555 1_555
N2 H2 1_555 1_555
C2 N1 1_555 1_555
O3 C4 1_555 1_555
N3 H3 1_555 1_555
C3 C2 1_555 1_555
H4 C3 1_555 1_555
O5 Tb1 1_555 1_555
C4 C3 1_555 1_555
O6 C23 1_555 1_555
C5 C4 1_555 1_555
O7 C20 1_555 1_555
C6 C5 1_555 1_555
H5 C6 1_555 1_555
O8 Tb1 1_555 1_555
C7 C6 1_555 1_555
H6 C7 1_555 1_555
O9 Tb1 1_555 1_555
C8 C7 1_555 1_555
H7 C8 1_555 1_555
O10 C11 1_555 1_555
C9 C8 1_555 1_555
H8 C9 1_555 1_555
O11 C11 1_555 1_555
C10 N1 1_555 1_555
C11 C12 1_555 1_555
O13 H21 1_555 1_555
C12 N2 1_555 1_555
C13 C12 1_555 1_555
H9 C13 1_555 1_555
C14 O9 1_555 1_555
C15 C14 1_555 1_555
C16 C15 1_555 1_555
H10 C16 1_555 1_555
C17 C16 1_555 1_555
H11 C17 1_555 1_555
C18 C17 1_555 1_555
H12 C18 1_555 1_555
C19 N2 1_555 1_555
C20 O5 1_555 1_555
C21 N3 1_555 1_555
C22 C21 1_555 1_555
H13 C22 1_555 1_555
C23 C22 1_555 1_555
C24 C23 1_555 1_555
C25 C24 1_555 1_555
H14 C25 1_555 1_555
C26 C18 1_555 1_555
H15 C26 1_555 1_555
C27 C25 1_555 1_555
H16 C27 1_555 1_555
C28 C27 1_555 1_555
H17 C28 1_555 1_555
C29 C28 1_555 1_555
H18 C29 1_555 1_555
C30 N3 1_555 1_555
H19 O8 1_555 1_555
H20 O8 1_555 1_555
H22 O13 1_555 1_555
Tb1C O6 1_555 1_555
Tb1B_2 O11 1_555 1_555
Tb1_2 O10 1_555 1_555
O2B Tb1 1_555 1_555
O6C Tb1 1_555 1_555
O10_2 Tb1 1_555 1_555
O11B Tb1 1_555 1_555
C1 C2 1_555 1_555
C5 C10 1_555 1_555
C9 C10 1_555 1_555
C13 C14 1_555 1_555
C15 C19 1_555 1_555
C19 C26 1_555 1_555
C20 C21 1_555 1_555
C24 C30 1_555 1_555
C29 C30 1_555 1_555

#END
