
#######################################################################
#
#                 Cambridge Crystallographic Data Centre
#                                CCDC 
#
#######################################################################
#
# If this CIF has been generated from an entry in the Cambridge 
# Structural Database, then it will include bibliographic, chemical, 
# crystal, experimental, refinement or atomic coordinate data resulting 
# from the CCDC's data processing and validation procedures.
#
#######################################################################

data_VEPKOS
_symmetry_cell_setting           monoclinic
_symmetry_space_group_name_H-M   'P 21/c'
_symmetry_Int_Tables_number      14
_space_group_name_Hall           '-P 2ybc'
loop_
_symmetry_equiv_pos_site_id
_symmetry_equiv_pos_as_xyz
1 x,y,z
2 -x,1/2+y,1/2-z
3 -x,-y,-z
4 x,1/2-y,1/2+z
_cell_length_a                   7.930(2)
_cell_length_b                   11.564(3)
_cell_length_c                   14.913(4)
_cell_angle_alpha                90
_cell_angle_beta                 105.548(11)
_cell_angle_gamma                90
_cell_volume                     1317.52
loop_
_atom_site_label
_atom_site_type_symbol
_atom_site_fract_x
_atom_site_fract_y
_atom_site_fract_z
Tm1 Tm 0.975102(17) 0.102817(10) 0.176853(9)
O1 O 0.9512(3) 0.29873(18) 0.13916(15)
N1 N 1.6805(3) 0.1828(2) 0.46564(18)
H1 H 1.7689 0.1962 0.5124
C1 C 0.9756(4) 0.3743(3) 0.2028(2)
O2 O 0.9696(4) 0.22231(18) 0.31012(15)
C2 C 0.9835(4) 0.3284(3) 0.3012(2)
O3 O 0.9924(3) 0.47946(19) 0.19407(15)
C3 C 1.3888(4) 0.1432(3) 0.3153(2)
O4 O 1.0023(3) 0.40548(16) 0.36320(16)
C4 C 1.4981(4) 0.0478(3) 0.3610(2)
O5 O 1.2580(3) 0.1248(2) 0.24621(16)
C5 C 1.4633(5) -0.0672(3) 0.3314(2)
H2 H 1.3689 -0.0838 0.2807
O6 O 1.5860(3) 0.47716(19) 0.41431(16)
C6 C 1.5680(5) -0.1554(3) 0.3771(3)
H3 H 1.5441 -0.2314 0.3573
O7 O 1.7663(3) 0.39176(17) 0.53622(16)
C7 C 1.7112(5) -0.1311(3) 0.4535(3)
H4 H 1.7802 -0.1914 0.4845
O8 O 1.1193(3) 0.11190(17) 0.05955(16)
C8 C 1.7504(4) -0.0199(3) 0.4830(2)
H5 H 1.8467 -0.0043 0.5329
O9 O 0.6985(3) 0.0746(2) 0.20140(17)
C9 C 1.6432(4) 0.0706(3) 0.4370(2)
C10 C 1.5839(4) 0.2723(3) 0.4233(2)
C11 C 1.4407(4) 0.2554(3) 0.3499(2)
H6 H 1.3757 0.3190 0.3219
C12 C 1.6481(4) 0.3916(2) 0.4614(2)
H7 H 0.5972 0.0465 0.1681
H8 H 1.0693 0.1076 -0.0001
H9 H 1.2201 0.0834 0.0645
Tm1A Tm 1.024898(17) 0.602817(10) 0.323147(9)
Tm1C Tm 1.975102(17) 0.397183(10) 0.676853(9)
O3A O 1.0076(3) -0.02054(19) 0.30593(15)
O4A O 0.9977(3) -0.09452(16) 0.13680(16)
O7C O 0.7663(3) 0.10824(17) 0.03622(16)
loop_
_geom_bond_atom_site_label_1
_geom_bond_atom_site_label_2
_geom_bond_site_symmetry_1
_geom_bond_site_symmetry_2
Tm1 O1 1_555 1_555
O1 C1 1_555 1_555
N1 H1 1_555 1_555
C1 C2 1_555 1_555
O2 Tm1 1_555 1_555
C2 O2 1_555 1_555
O3 C1 1_555 1_555
C3 C4 1_555 1_555
O4 C2 1_555 1_555
C4 C5 1_555 1_555
O5 Tm1 1_555 1_555
C5 H2 1_555 1_555
O6 C12 1_555 1_555
C6 C5 1_555 1_555
H3 C6 1_555 1_555
O7 C12 1_555 1_555
C7 C6 1_555 1_555
H4 C7 1_555 1_555
O8 Tm1 1_555 1_555
C8 C7 1_555 1_555
H5 C8 1_555 1_555
O9 Tm1 1_555 1_555
C9 N1 1_555 1_555
C10 N1 1_555 1_555
C11 C3 1_555 1_555
H6 C11 1_555 1_555
C12 C10 1_555 1_555
H7 O9 1_555 1_555
H8 O8 1_555 1_555
H9 O8 1_555 1_555
Tm1A O3 1_555 1_555
Tm1C O7 1_555 1_555
O3A Tm1 1_555 1_555
O4A Tm1 1_555 1_555
O7C Tm1 1_555 1_555
C3 O5 1_555 1_555
O4 Tm1A 1_555 1_555
C4 C9 1_555 1_555
C8 C9 1_555 1_555
C10 C11 1_555 1_555

#END
