
#######################################################################
#
#                 Cambridge Crystallographic Data Centre
#                                CCDC 
#
#######################################################################
#
# If this CIF has been generated from an entry in the Cambridge 
# Structural Database, then it will include bibliographic, chemical, 
# crystal, experimental, refinement or atomic coordinate data resulting 
# from the CCDC's data processing and validation procedures.
#
#######################################################################

data_VEPKIM
_symmetry_cell_setting           monoclinic
_symmetry_space_group_name_H-M   'P 21/c'
_symmetry_Int_Tables_number      14
_space_group_name_Hall           '-P 2ybc'
loop_
_symmetry_equiv_pos_site_id
_symmetry_equiv_pos_as_xyz
1 x,y,z
2 -x,1/2+y,1/2-z
3 -x,-y,-z
4 x,1/2-y,1/2+z
_cell_length_a                   7.9055(12)
_cell_length_b                   11.8535(17)
_cell_length_c                   15.099(3)
_cell_angle_alpha                90
_cell_angle_beta                 104.729(3)
_cell_angle_gamma                90
_cell_volume                     1368.4
loop_
_atom_site_label
_atom_site_type_symbol
_atom_site_fract_x
_atom_site_fract_y
_atom_site_fract_z
Sm1 Sm 0.480134(13) 0.604562(9) 0.175637(7)
O1 O 0.5090(2) 0.47894(15) 0.30554(11)
O2 O 0.5004(3) 0.40384(13) 0.13783(11)
O3 O 0.5477(2) 0.30312(13) 0.36025(11)
O4 O 0.5288(3) 0.22578(14) 0.19144(12)
O5 O 0.7726(2) 0.62384(16) 0.24662(12)
O6 O 1.0875(2) 0.96723(15) 0.41430(12)
O7 O 1.2693(2) 0.88501(14) 0.53357(12)
O8 O 0.6329(2) 0.61329(14) 0.05468(11)
O9 O 0.1895(2) 0.5708(2) 0.19819(14)
N1 N 1.1842(2) 0.67996(17) 0.46606(13)
H1 H 1.2704 0.6930 0.5127
C1 C 0.5250(3) 0.37563(19) 0.29720(16)
C2 C 0.5174(3) 0.32972(19) 0.19985(15)
C3 C 0.9002(3) 0.6415(2) 0.31590(15)
C4 C 1.0058(3) 0.5486(2) 0.36238(15)
C5 C 0.9716(3) 0.4353(2) 0.33382(17)
H2 H 0.8791 0.4189 0.2836
C6 C 1.0736(4) 0.3497(2) 0.37945(19)
H3 H 1.0503 0.2755 0.3600
C7 C 1.2132(4) 0.3733(2) 0.45550(19)
H4 H 1.2810 0.3144 0.4863
C8 C 1.2512(3) 0.4818(2) 0.48503(17)
H5 H 1.3443 0.4967 0.5353
C9 C 1.1477(3) 0.5705(2) 0.43827(15)
C10 C 1.0905(3) 0.7673(2) 0.42316(15)
C11 C 0.9500(3) 0.7513(2) 0.34948(16)
H6 H 0.8867 0.8133 0.3212
C12 C 1.1522(3) 0.88415(19) 0.45987(16)
H7 H 0.5807 0.6046 0.0001
H8 H 0.7245 0.5715 0.0624
H9 H 0.0927 0.5421 0.1606
Sm1A Sm 0.519866(13) 0.104562(9) 0.324363(7)
Sm1C Sm 1.480134(13) 0.895438(9) 0.675637(7)
O3A O 0.4523(2) 0.80312(13) 0.13975(11)
O4A O 0.4712(3) 0.72578(14) 0.30856(12)
O7C O 0.2693(2) 0.61499(14) 0.03357(12)
loop_
_geom_bond_atom_site_label_1
_geom_bond_atom_site_label_2
_geom_bond_site_symmetry_1
_geom_bond_site_symmetry_2
Sm1 O1 1_555 1_555
O1 C1 1_555 1_555
O2 Sm1 1_555 1_555
O3 C1 1_555 1_555
O4 C2 1_555 1_555
O5 Sm1 1_555 1_555
O6 C12 1_555 1_555
O7 C12 1_555 1_555
O8 Sm1 1_555 1_555
O9 Sm1 1_555 1_555
N1 H1 1_555 1_555
C1 C2 1_555 1_555
C2 O2 1_555 1_555
C3 O5 1_555 1_555
C4 C3 1_555 1_555
C5 C4 1_555 1_555
H2 C5 1_555 1_555
C6 C5 1_555 1_555
H3 C6 1_555 1_555
C7 C6 1_555 1_555
H4 C7 1_555 1_555
C8 C7 1_555 1_555
H5 C8 1_555 1_555
C9 N1 1_555 1_555
C10 N1 1_555 1_555
C11 C3 1_555 1_555
H6 C11 1_555 1_555
C12 C10 1_555 1_555
H7 O8 1_555 1_555
H8 O8 1_555 1_555
H9 O9 1_555 1_555
Sm1A O3 1_555 1_555
Sm1C O7 1_555 1_555
O3A Sm1 1_555 1_555
O4A Sm1 1_555 1_555
O7C Sm1 1_555 1_555
O4 Sm1A 1_555 1_555
C4 C9 1_555 1_555
C8 C9 1_555 1_555
C10 C11 1_555 1_555

#END
