
#######################################################################
#
#                 Cambridge Crystallographic Data Centre
#                                CCDC 
#
#######################################################################
#
# If this CIF has been generated from an entry in the Cambridge 
# Structural Database, then it will include bibliographic, chemical, 
# crystal, experimental, refinement or atomic coordinate data resulting 
# from the CCDC's data processing and validation procedures.
#
#######################################################################

data_VEPKUY
_symmetry_cell_setting           monoclinic
_symmetry_space_group_name_H-M   'P 21/c'
_symmetry_Int_Tables_number      14
_space_group_name_Hall           '-P 2ybc'
loop_
_symmetry_equiv_pos_site_id
_symmetry_equiv_pos_as_xyz
1 x,y,z
2 -x,1/2+y,1/2-z
3 -x,-y,-z
4 x,1/2-y,1/2+z
_cell_length_a                   7.9262(7)
_cell_length_b                   11.6805(8)
_cell_length_c                   14.9892(12)
_cell_angle_alpha                90
_cell_angle_beta                 105.178(5)
_cell_angle_gamma                90
_cell_volume                     1339.32
loop_
_atom_site_label
_atom_site_type_symbol
_atom_site_fract_x
_atom_site_fract_y
_atom_site_fract_z
Dy1 Dy 0.976670(16) 0.603676(9) 0.176431(8)
O1 O 1.0075(3) 0.47927(17) 0.30600(14)
N1 N 1.6816(3) 0.68175(19) 0.46581(16)
H1 H 1.7691 0.6949 0.5125
C1 C 1.0248(4) 0.3748(2) 0.2974(2)
O2 O 0.9994(3) 0.40496(14) 0.13730(14)
C2 C 1.0181(4) 0.3290(2) 0.19924(19)
O3 O 1.0482(3) 0.30051(15) 0.36060(14)
C3 C 1.3928(4) 0.6425(2) 0.31531(19)
O4 O 1.0306(3) 0.22385(17) 0.19054(14)
C4 C 1.5011(4) 0.5483(2) 0.36193(19)
O5 O 1.2630(3) 0.62461(18) 0.24626(15)
C5 C 1.4663(4) 0.4336(3) 0.3324(2)
H2 H 1.3727 0.4172 0.2820
O6 O 1.5866(3) 0.97351(17) 0.41426(14)
C6 C 1.5705(4) 0.3466(3) 0.3780(2)
H3 H 1.5471 0.2713 0.3584
O7 O 1.7672(3) 0.88910(15) 0.53534(15)
C7 C 1.7122(5) 0.3708(3) 0.4542(2)
H4 H 1.7807 0.3111 0.4850
O8 O 1.1237(3) 0.61259(15) 0.05748(15)
C8 C 1.7509(4) 0.4807(2) 0.4836(2)
H5 H 1.8460 0.4961 0.5335
O9 O 0.6951(3) 0.5737(2) 0.20043(16)
C9 C 1.6444(4) 0.5705(2) 0.4372(2)
C10 C 1.5861(4) 0.7705(2) 0.42327(19)
C11 C 1.4437(4) 0.7540(2) 0.34970(19)
H6 H 1.3793 0.8169 0.3218
C12 C 1.6500(4) 0.8886(2) 0.4607(2)
H7 H 1.2219 0.5832 0.0687
H8 H 1.0747 0.6070 0.0005
H9 H 0.6019 0.5444 0.1630
Dy1A Dy 1.023330(16) 0.103676(9) 0.323569(8)
Dy1C Dy 1.976670(16) 0.896324(9) 0.676431(8)
O3A O 0.9518(3) 0.80051(15) 0.13940(14)
O4A O 0.9694(3) 0.72385(17) 0.30946(14)
O7C O 0.7672(3) 0.61090(15) 0.03534(15)
loop_
_geom_bond_atom_site_label_1
_geom_bond_atom_site_label_2
_geom_bond_site_symmetry_1
_geom_bond_site_symmetry_2
Dy1 O1 1_555 1_555
O1 C1 1_555 1_555
N1 H1 1_555 1_555
C1 C2 1_555 1_555
O2 Dy1 1_555 1_555
C2 O2 1_555 1_555
O3 C1 1_555 1_555
C3 C4 1_555 1_555
O4 C2 1_555 1_555
C4 C5 1_555 1_555
O5 Dy1 1_555 1_555
C5 H2 1_555 1_555
O6 C12 1_555 1_555
C6 C5 1_555 1_555
H3 C6 1_555 1_555
O7 C12 1_555 1_555
C7 C6 1_555 1_555
H4 C7 1_555 1_555
O8 Dy1 1_555 1_555
C8 C7 1_555 1_555
H5 C8 1_555 1_555
O9 Dy1 1_555 1_555
C9 N1 1_555 1_555
C10 N1 1_555 1_555
C11 C3 1_555 1_555
H6 C11 1_555 1_555
C12 C10 1_555 1_555
H7 O8 1_555 1_555
H8 O8 1_555 1_555
H9 O9 1_555 1_555
Dy1A O3 1_555 1_555
Dy1C O7 1_555 1_555
O3A Dy1 1_555 1_555
O4A Dy1 1_555 1_555
O7C Dy1 1_555 1_555
C3 O5 1_555 1_555
O4 Dy1A 1_555 1_555
C4 C9 1_555 1_555
C8 C9 1_555 1_555
C10 C11 1_555 1_555

#END
