
#######################################################################
#
#                 Cambridge Crystallographic Data Centre
#                                CCDC 
#
#######################################################################
#
# If this CIF has been generated from an entry in the Cambridge 
# Structural Database, then it will include bibliographic, chemical, 
# crystal, experimental, refinement or atomic coordinate data resulting 
# from the CCDC's data processing and validation procedures.
#
#######################################################################

data_VEPLEJ
_symmetry_cell_setting           monoclinic
_symmetry_space_group_name_H-M   'P 21/c'
_symmetry_Int_Tables_number      14
_space_group_name_Hall           '-P 2ybc'
loop_
_symmetry_equiv_pos_site_id
_symmetry_equiv_pos_as_xyz
1 x,y,z
2 -x,1/2+y,1/2-z
3 -x,-y,-z
4 x,1/2-y,1/2+z
_cell_length_a                   7.936(3)
_cell_length_b                   11.523(4)
_cell_length_c                   14.890(5)
_cell_angle_alpha                90
_cell_angle_beta                 105.696(17)
_cell_angle_gamma                90
_cell_volume                     1310.86
loop_
_atom_site_label
_atom_site_type_symbol
_atom_site_fract_x
_atom_site_fract_y
_atom_site_fract_z
Yb1 Yb 0.974764(14) 0.897536(8) 0.177005(7)
O1 O 0.9516(3) 0.70237(15) 0.13940(12)
O2 O 0.9711(3) 0.77874(16) 0.31087(13)
O3 O 0.9922(3) 0.52073(16) 0.19394(13)
O4 O 1.0023(3) 0.59430(14) 0.36360(13)
O5 O 1.2561(3) 0.87546(17) 0.24622(14)
O6 O 1.5853(3) 0.52171(16) 0.41425(13)
O7 O 1.7663(3) 0.60754(15) 0.53672(13)
O8 O 1.1180(3) 0.88814(15) 0.05986(13)
O9 O 0.6991(3) 0.9243(2) 0.20140(15)
N1 N 1.6806(3) 0.81696(19) 0.46579(15)
H1 H 1.7692 0.8036 0.5127
C1 C 0.9837(3) 0.6719(2) 0.30144(17)
C2 C 0.9756(3) 0.6269(2) 0.20260(18)
C3 C 1.3878(4) 0.8569(2) 0.31527(18)
C4 C 1.4978(4) 0.9521(2) 0.36106(17)
C5 C 1.4629(4) 1.0683(3) 0.3312(2)
H2 H 1.3683 1.0852 0.2805
C6 C 1.5684(4) 1.1562(3) 0.3770(2)
H3 H 1.5448 1.2326 0.3575
C7 C 1.7118(4) 1.1313(3) 0.4532(2)
H4 H 1.7818 1.1917 0.4840
C8 C 1.7504(4) 1.0202(2) 0.48301(19)
H5 H 1.8465 1.0046 0.5332
C9 C 1.6430(4) 0.9294(2) 0.43686(18)
C10 C 1.5840(4) 0.7275(2) 0.42342(17)
C11 C 1.4395(4) 0.7441(2) 0.34994(18)
H6 H 1.3740 0.6803 0.3222
C12 C 1.6488(4) 0.6078(2) 0.46167(18)
H7 H 1.2165 0.9211 0.0744
H8 H 0.6032 0.9623 0.1613
H9 H 1.0483 0.8884 0.0005
Yb1A Yb 1.025236(14) 0.397536(8) 0.322995(7)
Yb1C Yb 1.974764(14) 0.602464(8) 0.677005(7)
O3A O 1.0078(3) 1.02073(16) 0.30606(13)
O4A O 0.9977(3) 1.09430(14) 0.13640(13)
O7C O 0.7663(3) 0.89246(15) 0.03672(13)
loop_
_geom_bond_atom_site_label_1
_geom_bond_atom_site_label_2
_geom_bond_site_symmetry_1
_geom_bond_site_symmetry_2
Yb1 O1 1_555 1_555
O1 C2 1_555 1_555
O2 Yb1 1_555 1_555
O3 C2 1_555 1_555
O4 C1 1_555 1_555
O5 Yb1 1_555 1_555
O6 C12 1_555 1_555
O7 C12 1_555 1_555
O8 Yb1 1_555 1_555
O9 Yb1 1_555 1_555
N1 H1 1_555 1_555
C1 O2 1_555 1_555
C2 C1 1_555 1_555
C3 O5 1_555 1_555
C4 C3 1_555 1_555
C5 C4 1_555 1_555
H2 C5 1_555 1_555
C6 C5 1_555 1_555
H3 C6 1_555 1_555
C7 C6 1_555 1_555
H4 C7 1_555 1_555
C8 C7 1_555 1_555
H5 C8 1_555 1_555
C9 N1 1_555 1_555
C10 N1 1_555 1_555
C11 C3 1_555 1_555
H6 C11 1_555 1_555
C12 C10 1_555 1_555
H7 O8 1_555 1_555
H8 O9 1_555 1_555
H9 O8 1_555 1_555
Yb1A O3 1_555 1_555
Yb1C O7 1_555 1_555
O3A Yb1 1_555 1_555
O4A Yb1 1_555 1_555
O7C Yb1 1_555 1_555
O4 Yb1A 1_555 1_555
C4 C9 1_555 1_555
C8 C9 1_555 1_555
C10 C11 1_555 1_555

#END
