
#######################################################################
#
#                 Cambridge Crystallographic Data Centre
#                                CCDC 
#
#######################################################################
#
# If this CIF has been generated from an entry in the Cambridge 
# Structural Database, then it will include bibliographic, chemical, 
# crystal, experimental, refinement or atomic coordinate data resulting 
# from the CCDC's data processing and validation procedures.
#
#######################################################################

data_VEPLAF
_symmetry_cell_setting           monoclinic
_symmetry_space_group_name_H-M   'P 21/c'
_symmetry_Int_Tables_number      14
_space_group_name_Hall           '-P 2ybc'
loop_
_symmetry_equiv_pos_site_id
_symmetry_equiv_pos_as_xyz
1 x,y,z
2 -x,1/2+y,1/2-z
3 -x,-y,-z
4 x,1/2-y,1/2+z
_cell_length_a                   7.9003(14)
_cell_length_b                   11.960(2)
_cell_length_c                   15.170(3)
_cell_angle_alpha                90
_cell_angle_beta                 104.444(3)
_cell_angle_gamma                90
_cell_volume                     1388.07
loop_
_atom_site_label
_atom_site_type_symbol
_atom_site_fract_x
_atom_site_fract_y
_atom_site_fract_z
Nd1 Nd 0.982512(13) 0.394960(8) 0.175046(7)
O1 O 1.0102(2) 0.52157(13) 0.30540(11)
O2 O 1.0011(2) 0.59700(12) 0.13824(10)
O3 O 1.0480(2) 0.69551(12) 0.36000(10)
O4 O 1.0278(3) 0.77268(13) 0.19199(11)
O5 O 1.2784(2) 0.37664(15) 0.24659(11)
O6 O 1.5883(2) 0.03614(14) 0.41426(12)
O7 O 1.7708(2) 0.11717(13) 0.53235(11)
O8 O 1.1387(2) 0.38661(13) 0.05316(11)
O9 O 0.6875(2) 0.4320(2) 0.19687(13)
N1 N 1.6856(2) 0.32096(16) 0.46618(12)
H1 H 1.7708 0.3080 0.5128
C1 C 1.0170(3) 0.66985(17) 0.19990(14)
C2 C 1.0254(3) 0.62388(17) 0.29728(14)
C3 C 1.4046(3) 0.35947(19) 0.31601(14)
C4 C 1.5090(3) 0.45140(19) 0.36301(14)
C5 C 1.4749(3) 0.5637(2) 0.33474(16)
H2 H 1.3832 0.5799 0.2847
C6 C 1.5758(4) 0.6486(2) 0.38049(18)
H3 H 1.5528 0.7221 0.3612
C7 C 1.7144(4) 0.6250(2) 0.45670(18)
H4 H 1.7812 0.6834 0.4878
C8 C 1.7521(3) 0.5172(2) 0.48560(16)
H5 H 1.8446 0.5022 0.5356
C9 C 1.6491(3) 0.42962(18) 0.43857(14)
C10 C 1.5929(3) 0.23447(18) 0.42286(14)
C11 C 1.4540(3) 0.25066(19) 0.34921(15)
H6 H 1.3913 0.1893 0.3207
C12 C 1.6538(3) 0.11856(18) 0.45931(14)
H7 H 1.0864 0.3953 -0.0026
H8 H 1.2269 0.4331 0.0547
H9 H 0.6001 0.4618 0.1531
Nd1A Nd 1.017488(13) 0.894960(8) 0.324954(7)
Nd1C Nd 1.982512(13) 0.105040(8) 0.675046(7)
O3A O 0.9520(2) 0.19551(12) 0.14000(10)
O4A O 0.9722(3) 0.27268(13) 0.30801(11)
O7C O 0.7708(2) 0.38283(13) 0.03235(11)
loop_
_geom_bond_atom_site_label_1
_geom_bond_atom_site_label_2
_geom_bond_site_symmetry_1
_geom_bond_site_symmetry_2
Nd1 O1 1_555 1_555
O1 C2 1_555 1_555
O2 Nd1 1_555 1_555
O3 C2 1_555 1_555
O4 C1 1_555 1_555
O5 Nd1 1_555 1_555
O6 C12 1_555 1_555
O7 C12 1_555 1_555
O8 Nd1 1_555 1_555
O9 Nd1 1_555 1_555
N1 H1 1_555 1_555
C1 O2 1_555 1_555
C2 C1 1_555 1_555
C3 O5 1_555 1_555
C4 C3 1_555 1_555
C5 C4 1_555 1_555
H2 C5 1_555 1_555
C6 C5 1_555 1_555
H3 C6 1_555 1_555
C7 C6 1_555 1_555
H4 C7 1_555 1_555
C8 C7 1_555 1_555
H5 C8 1_555 1_555
C9 N1 1_555 1_555
C10 N1 1_555 1_555
C11 C3 1_555 1_555
H6 C11 1_555 1_555
C12 C10 1_555 1_555
H7 O8 1_555 1_555
H8 O8 1_555 1_555
H9 O9 1_555 1_555
Nd1A O3 1_555 1_555
Nd1C O7 1_555 1_555
O3A Nd1 1_555 1_555
O4A Nd1 1_555 1_555
O7C Nd1 1_555 1_555
O4 Nd1A 1_555 1_555
C4 C9 1_555 1_555
C8 C9 1_555 1_555
C10 C11 1_555 1_555

#END
