
#######################################################################
#
#                 Cambridge Crystallographic Data Centre
#                                CCDC 
#
#######################################################################
#
# If this CIF has been generated from an entry in the Cambridge 
# Structural Database, then it will include bibliographic, chemical, 
# crystal, experimental, refinement or atomic coordinate data resulting 
# from the CCDC's data processing and validation procedures.
#
#######################################################################

data_VEPNIN
_symmetry_cell_setting           monoclinic
_symmetry_space_group_name_H-M   'P 21/c'
_symmetry_Int_Tables_number      14
_space_group_name_Hall           '-P 2ybc'
loop_
_symmetry_equiv_pos_site_id
_symmetry_equiv_pos_as_xyz
1 x,y,z
2 -x,1/2+y,1/2-z
3 -x,-y,-z
4 x,1/2-y,1/2+z
_cell_length_a                   10.453(1)
_cell_length_b                   5.539(1)
_cell_length_c                   14.587(2)
_cell_angle_alpha                90
_cell_angle_beta                 96.47(2)
_cell_angle_gamma                90
_cell_volume                     839.196
loop_
_atom_site_label
_atom_site_type_symbol
_atom_site_fract_x
_atom_site_fract_y
_atom_site_fract_z
Co1 Co 0.0000 0.0000 0.00000
P1 P 0.1585(1) 0.4935(2) 0.05239(7)
O1 O 0.0970(3) 0.2618(6) 0.0831(2)
O2 O 0.0993(3) 0.7255(6) 0.0816(2)
O3 O 0.1540(3) -0.0184(7) -0.0888(2)
C1 C 0.3274(4) 0.4873(9) 0.0936(3)
C2 C 0.4009(5) 0.2895(9) 0.0705(3)
C3 C 0.5334(5) 0.290(1) 0.0957(4)
C4 C 0.5917(5) 0.479(1) 0.1451(4)
C5 C 0.5195(5) 0.673(1) 0.1702(4)
C6 C 0.3873(4) 0.6782(9) 0.1429(3)
C7 C 0.1576(4) 0.0464(8) -0.1703(3)
N1 N 0.0748(5) 0.190(1) -0.2166(3)
H1 H 0.158(4) 0.478(9) -0.041(3)
H2 H 0.352(4) 0.159(9) 0.036(3)
H3 H 0.584(5) 0.15(1) 0.080(4)
H4 H 0.689(6) 0.50(1) 0.163(4)
H5 H 0.563(6) 0.80(1) 0.204(4)
H6 H 0.335(5) 0.82(1) 0.162(3)
H7 H 0.226(5) 0.00(1) -0.209(3)
H8 H 0.088(5) 0.21(1) -0.267(4)
H9 H 0.012(5) 0.27(1) -0.189(4)
P1B P -0.1585(1) -0.4935(2) -0.05239(7)
O1B O -0.0970(3) -0.2618(6) -0.0831(2)
O2B O -0.0993(3) -0.7255(6) -0.0816(2)
C1B C -0.3274(4) -0.4873(9) -0.0936(3)
C2B C -0.4009(5) -0.2895(9) -0.0705(3)
C3B C -0.5334(5) -0.290(1) -0.0957(4)
C4B C -0.5917(5) -0.479(1) -0.1451(4)
C5B C -0.5195(5) -0.673(1) -0.1702(4)
C6B C -0.3873(4) -0.6782(9) -0.1429(3)
H1B H -0.158(4) -0.478(9) 0.041(3)
H2B H -0.352(4) -0.159(9) -0.036(3)
H3B H -0.584(5) -0.15(1) -0.080(4)
H4B H -0.689(6) -0.50(1) -0.163(4)
H5B H -0.563(6) -0.80(1) -0.204(4)
H6B H -0.335(5) -0.82(1) -0.162(3)
O3B O -0.1540(3) 0.0184(7) 0.0888(2)
C7B C -0.1576(4) -0.0464(8) 0.1703(3)
N1B N -0.0748(5) -0.190(1) 0.2166(3)
H7B H -0.226(5) 0.00(1) 0.209(3)
H8B H -0.088(5) -0.21(1) 0.267(4)
H9B H -0.012(5) -0.27(1) 0.189(4)
O2_2 O 0.0993(3) -0.2745(6) 0.0816(2)
O2B_2 O -0.0993(3) 0.2745(6) -0.0816(2)
Co1_2 Co 0.0000 1.0000 0.00000
Co1_3 Co 0.0000 -1.0000 0.00000
loop_
_geom_bond_atom_site_label_1
_geom_bond_atom_site_label_2
_geom_bond_site_symmetry_1
_geom_bond_site_symmetry_2
Co1 O1 1_555 1_555
P1 O1 1_555 1_555
O2 P1 1_555 1_555
O3 Co1 1_555 1_555
C1 P1 1_555 1_555
C2 C1 1_555 1_555
C3 C2 1_555 1_555
C4 C3 1_555 1_555
C5 C4 1_555 1_555
C6 C1 1_555 1_555
C7 O3 1_555 1_555
N1 C7 1_555 1_555
H1 P1 1_555 1_555
H2 C2 1_555 1_555
H3 C3 1_555 1_555
H4 C4 1_555 1_555
H5 C5 1_555 1_555
H6 C6 1_555 1_555
H7 C7 1_555 1_555
H8 N1 1_555 1_555
H9 N1 1_555 1_555
P1B O1B 1_555 1_555
O1B Co1 1_555 1_555
O2B P1B 1_555 1_555
C1B P1B 1_555 1_555
C2B C1B 1_555 1_555
C3B C2B 1_555 1_555
C4B C3B 1_555 1_555
C5B C4B 1_555 1_555
C6B C1B 1_555 1_555
H1B P1B 1_555 1_555
H2B C2B 1_555 1_555
H3B C3B 1_555 1_555
H4B C4B 1_555 1_555
H5B C5B 1_555 1_555
H6B C6B 1_555 1_555
O3B Co1 1_555 1_555
C7B O3B 1_555 1_555
N1B C7B 1_555 1_555
H7B C7B 1_555 1_555
H8B N1B 1_555 1_555
H9B N1B 1_555 1_555
O2_2 Co1 1_555 1_555
O2B_2 Co1 1_555 1_555
Co1_2 O2 1_555 1_555
Co1_3 O2B 1_555 1_555
C5 C6 1_555 1_555
C5B C6B 1_555 1_555

#END
