
#######################################################################
#
#                 Cambridge Crystallographic Data Centre
#                                CCDC 
#
#######################################################################
#
# If this CIF has been generated from an entry in the Cambridge 
# Structural Database, then it will include bibliographic, chemical, 
# crystal, experimental, refinement or atomic coordinate data resulting 
# from the CCDC's data processing and validation procedures.
#
#######################################################################

data_VEPZEV
_symmetry_cell_setting           monoclinic
_symmetry_space_group_name_H-M   'P 21/c'
_symmetry_Int_Tables_number      14
_space_group_name_Hall           '-P 2ybc'
loop_
_symmetry_equiv_pos_site_id
_symmetry_equiv_pos_as_xyz
1 x,y,z
2 -x,1/2+y,1/2-z
3 -x,-y,-z
4 x,1/2-y,1/2+z
_cell_length_a                   19.230(4)
_cell_length_b                   21.211(5)
_cell_length_c                   16.851(4)
_cell_angle_alpha                90
_cell_angle_beta                 108.48(2)
_cell_angle_gamma                90
_cell_volume                     6518.89
loop_
_atom_site_label
_atom_site_type_symbol
_atom_site_fract_x
_atom_site_fract_y
_atom_site_fract_z
Cu1 Cu 0.36290(7) 0.13690(5) 0.24680(7)
Cu2 Cu -0.14620(7) 0.11980(5) 0.23610(7)
O1 O 0.3418(4) 0.2246(3) 0.2592(4)
O2 O 0.3611(3) 0.1493(3) 0.1323(4)
O3 O 0.3860(3) 0.0491(3) 0.2339(4)
O4 O 0.3655(3) 0.1239(3) 0.3623(4)
O5 O -0.1805(4) 0.2056(3) 0.2385(4)
O6 O -0.1451(4) 0.1284(3) 0.1209(4)
O7 O -0.1116(4) 0.0342(3) 0.2325(4)
O8 O -0.1451(4) 0.1107(3) 0.3514(4)
O9 O 0.2332(4) 0.1164(4) 0.2024(5)
O10 O -0.2654(4) 0.0725(4) 0.2102(5)
O11 O -0.0261(4) 0.1649(4) 0.2639(6)
O12 O -0.5034(4) 0.1477(4) 0.3035(5)
N1 N 0.1774(4) 0.0815(4) 0.1674(5)
N2 N -0.3326(4) 0.0782(4) 0.1692(5)
N3 N 0.0393(5) 0.1704(4) 0.3100(6)
N4 N -0.4431(5) 0.1779(4) 0.3335(5)
C1 C 0.3279(6) 0.2651(5) 0.2022(7)
C2 C 0.3264(6) 0.2567(5) 0.1201(6)
C3 C 0.3437(5) 0.1993(5) 0.0932(5)
C4 C 0.3063(14) 0.3279(7) 0.2247(10)
C5 C 0.3430(6) 0.1951(5) 0.0025(6)
C6 C 0.3990(5) 0.0084(4) 0.2912(6)
C7 C 0.3994(6) 0.0172(5) 0.3724(6)
C8 C 0.3815(5) 0.0731(5) 0.4011(6)
C9 C 0.4116(8) -0.0555(5) 0.2620(8)
C10 C 0.3838(8) 0.0769(6) 0.4886(8)
C11 C -0.1800(6) 0.2469(5) 0.1868(7)
C12 C -0.1630(6) 0.2381(5) 0.1128(6)
C13 C -0.1471(5) 0.1795(5) 0.0844(6)
C14 C -0.1961(12) 0.3120(7) 0.2068(11)
C15 C -0.1364(8) 0.1762(8) 0.0018(8)
C16 C -0.1065(6) -0.0065(5) 0.2881(7)
C17 C -0.1179(7) 0.0020(6) 0.3638(7)
C18 C -0.1372(6) 0.0607(6) 0.3906(7)
C19 C -0.0830(10) -0.0703(6) 0.2675(9)
C20 C -0.1412(13) 0.0635(10) 0.4733(11)
C21 C 0.1577(6) 0.0643(6) 0.0771(7)
C22 C 0.0867(8) 0.0286(7) 0.0661(8)
C23 C 0.1001(8) -0.0022(6) 0.1490(12)
C24 C 0.1398(7) 0.0462(6) 0.2170(8)
C25 C 0.1451(9) 0.1262(7) 0.0261(8)
C26 C 0.2183(7) 0.0240(6) 0.0661(8)
C27 C 0.1969(8) 0.0161(7) 0.2958(9)
C28 C 0.0819(7) 0.0872(5) 0.2388(7)
C29 C -0.3655(6) 0.0555(6) 0.0840(8)
C30 C -0.4425(8) 0.0575(9) 0.0770(9)
C31 C -0.4539(6) 0.1006(7) 0.1409(8)
C32 C -0.3840(6) 0.0984(5) 0.2142(6)
C33 C -0.3429(10) 0.0996(7) 0.0264(8)
C34 C -0.3404(9) -0.0109(6) 0.0733(10)
C35 C -0.3859(7) 0.0493(5) 0.2807(8)
C36 C -0.3554(6) 0.1631(5) 0.2536(6)
C37 C 0.0612(7) 0.2020(8) 0.3915(9)
C38 C 0.1397(7) 0.2152(8) 0.4031(10)
C39 C 0.1618(7) 0.1613(8) 0.3545(9)
C40 C 0.0984(6) 0.1540(5) 0.2776(7)
C41 C 0.0130(9) 0.2639(9) 0.3800(12)
C42 C 0.0463(14) 0.1543(14) 0.4539(10)
C43 C 0.1008(7) 0.2025(6) 0.2089(10)
C44 C -0.4157(6) 0.1921(6) 0.4261(7)
C45 C -0.3418(6) 0.2219(6) 0.4307(7)
C46 C -0.3552(7) 0.2541(5) 0.3496(8)
C47 C -0.4056(6) 0.2102(5) 0.2849(6)
C48 C -0.4060(8) 0.1293(6) 0.4774(8)
C49 C -0.4696(8) 0.2392(6) 0.4459(9)
C50 C -0.4633(7) 0.2468(6) 0.2120(8)
F1 F 0.2920(10) 0.3698(4) 0.1749(6)
F2 F 0.2771(10) 0.3317(5) 0.2756(10)
F3 F 0.3689(11) 0.3524(6) 0.2828(13)
F4 F 0.3280(5) 0.2481(3) -0.0389(4)
F5 F 0.2905(5) 0.1566(4) -0.0409(4)
F6 F 0.4023(4) 0.1705(4) -0.0045(4)
F7 F 0.4317(7) -0.0972(4) 0.3182(5)
F8 F 0.3559(6) -0.0801(4) 0.2088(7)
F9 F 0.4529(7) -0.0583(4) 0.2227(10)
F10 F 0.3191(6) 0.0915(6) 0.4960(5)
F11 F 0.4216(6) 0.1252(5) 0.5311(4)
F12 F 0.4127(7) 0.0314(4) 0.5354(5)
F13 F -0.1951(8) 0.3545(4) 0.1600(7)
F14 F -0.1742(11) 0.3272(5) 0.2794(7)
F15 F -0.2692(10) 0.3134(6) 0.1976(13)
F16 F -0.1399(6) 0.2277(4) -0.0376(5)
F17 F -0.1889(6) 0.1423(5) -0.0514(5)
F18 F -0.0798(6) 0.1446(5) 0.0028(5)
F19 F -0.0235(8) -0.0711(4) 0.2550(12)
F20 F -0.0817(7) -0.1144(4) 0.3185(6)
F21 F -0.1280(8) -0.0910(5) 0.1974(7)
F22 F -0.2043(9) 0.0810(12) 0.4738(7)
F23 F -0.1269(13) 0.0204(7) 0.5195(8)
F24 F -0.1069(12) 0.1069(9) 0.5203(8)
H1 H 0.3132 0.2910 0.0819
H2 H 0.4128 -0.0173 0.4102
H3 H -0.1621 0.2741 0.0798
H4 H -0.1127 -0.0333 0.3999
H5 H 0.0728 0.0533 0.0165
H6 H 0.1296 -0.0383 0.1523
H7 H 0.0546 -0.0137 0.1555
H8 H 0.0658 0.0631 0.2770
H9 H 0.0429 0.0924 0.1880
H10 H -0.4581 0.0166 0.0844
H11 H -0.4690 0.0728 0.0228
H12 H -0.4940 0.0858 0.1574
H13 H -0.4634 0.1419 0.1196
H14 H -0.3407 0.1855 0.2127
H15 H -0.3139 0.1547 0.3007
H16 H 0.1674 0.2130 0.4612
H17 H 0.1456 0.2550 0.3817
H18 H 0.1707 0.1238 0.3859
H19 H 0.2042 0.1732 0.3406
H20 H -0.3053 0.1905 0.4381
H21 H -0.3271 0.2515 0.4752
H22 H -0.3103 0.2600 0.3382
H23 H -0.3781 0.2936 0.3499
O12_2 O 0.4966(4) 0.1477(4) 0.3035(5)
Cu1_2 Cu -0.63710(7) 0.13690(5) 0.24680(7)
loop_
_geom_bond_atom_site_label_1
_geom_bond_atom_site_label_2
_geom_bond_site_symmetry_1
_geom_bond_site_symmetry_2
Cu1 O1 1_555 1_555
Cu2 O5 1_555 1_555
O1 C1 1_555 1_555
O2 Cu1 1_555 1_555
O3 Cu1 1_555 1_555
O4 Cu1 1_555 1_555
O5 C11 1_555 1_555
O6 Cu2 1_555 1_555
O7 Cu2 1_555 1_555
O8 Cu2 1_555 1_555
O9 Cu1 1_555 1_555
O10 Cu2 1_555 1_555
O11 Cu2 1_555 1_555
O12 N4 1_555 1_555
N1 O9 1_555 1_555
N2 O10 1_555 1_555
N3 O11 1_555 1_555
N4 C44 1_555 1_555
C1 C2 1_555 1_555
C2 C3 1_555 1_555
C3 O2 1_555 1_555
C4 C1 1_555 1_555
C5 C3 1_555 1_555
C6 O3 1_555 1_555
C7 C6 1_555 1_555
C8 O4 1_555 1_555
C9 C6 1_555 1_555
C10 C8 1_555 1_555
C11 C12 1_555 1_555
C12 C13 1_555 1_555
C13 O6 1_555 1_555
C14 C11 1_555 1_555
C15 C13 1_555 1_555
C16 O7 1_555 1_555
C17 C16 1_555 1_555
C18 O8 1_555 1_555
C19 C16 1_555 1_555
C20 C18 1_555 1_555
C21 N1 1_555 1_555
C22 C21 1_555 1_555
C23 C22 1_555 1_555
C24 N1 1_555 1_555
C25 C21 1_555 1_555
C26 C21 1_555 1_555
C27 C24 1_555 1_555
C28 C24 1_555 1_555
C29 N2 1_555 1_555
C30 C29 1_555 1_555
C31 C30 1_555 1_555
C32 N2 1_555 1_555
C33 C29 1_555 1_555
C34 C29 1_555 1_555
C35 C32 1_555 1_555
C36 C32 1_555 1_555
C37 N3 1_555 1_555
C38 C37 1_555 1_555
C39 C38 1_555 1_555
C40 N3 1_555 1_555
C41 C37 1_555 1_555
C42 C37 1_555 1_555
C43 C40 1_555 1_555
C44 C45 1_555 1_555
C45 C46 1_555 1_555
C46 C47 1_555 1_555
C47 N4 1_555 1_555
C48 C44 1_555 1_555
C49 C44 1_555 1_555
C50 C47 1_555 1_555
F1 C4 1_555 1_555
F2 C4 1_555 1_555
F3 C4 1_555 1_555
F4 C5 1_555 1_555
F5 C5 1_555 1_555
F6 C5 1_555 1_555
F7 C9 1_555 1_555
F8 C9 1_555 1_555
F9 C9 1_555 1_555
F10 C10 1_555 1_555
F11 C10 1_555 1_555
F12 C10 1_555 1_555
F13 C14 1_555 1_555
F14 C14 1_555 1_555
F15 C14 1_555 1_555
F16 C15 1_555 1_555
F17 C15 1_555 1_555
F18 C15 1_555 1_555
F19 C19 1_555 1_555
F20 C19 1_555 1_555
F21 C19 1_555 1_555
F22 C20 1_555 1_555
F23 C20 1_555 1_555
F24 C20 1_555 1_555
H1 C2 1_555 1_555
H2 C7 1_555 1_555
H3 C12 1_555 1_555
H4 C17 1_555 1_555
H5 C22 1_555 1_555
H6 C23 1_555 1_555
H7 C23 1_555 1_555
H8 C28 1_555 1_555
H9 C28 1_555 1_555
H10 C30 1_555 1_555
H11 C30 1_555 1_555
H12 C31 1_555 1_555
H13 C31 1_555 1_555
H14 C36 1_555 1_555
H15 C36 1_555 1_555
H16 C38 1_555 1_555
H17 C38 1_555 1_555
H18 C39 1_555 1_555
H19 C39 1_555 1_555
H20 C45 1_555 1_555
H21 C45 1_555 1_555
H22 C46 1_555 1_555
H23 C46 1_555 1_555
O12_2 Cu1 1_555 1_555
Cu1_2 O12 1_555 1_555
C7 C8 1_555 1_555
C17 C18 1_555 1_555
C23 C24 1_555 1_555
C28 C40 1_555 1_555
C31 C32 1_555 1_555
C36 C47 1_555 1_555
C39 C40 1_555 1_555

#END
