
#######################################################################
#
#                 Cambridge Crystallographic Data Centre
#                                CCDC 
#
#######################################################################
#
# If this CIF has been generated from an entry in the Cambridge 
# Structural Database, then it will include bibliographic, chemical, 
# crystal, experimental, refinement or atomic coordinate data resulting 
# from the CCDC's data processing and validation procedures.
#
#######################################################################

data_VEQBAU
_symmetry_cell_setting           monoclinic
_symmetry_space_group_name_H-M   'P 21/a'
_symmetry_Int_Tables_number      14
_space_group_name_Hall           '-P 2yab'
loop_
_symmetry_equiv_pos_site_id
_symmetry_equiv_pos_as_xyz
1 x,y,z
2 1/2-x,1/2+y,-z
3 -x,-y,-z
4 1/2+x,1/2-y,z
_cell_length_a                   13.472(2)
_cell_length_b                   18.812(3)
_cell_length_c                   14.538(4)
_cell_angle_alpha                90
_cell_angle_beta                 106.17(1)
_cell_angle_gamma                90
_cell_volume                     3538.68
loop_
_atom_site_label
_atom_site_type_symbol
_atom_site_fract_x
_atom_site_fract_y
_atom_site_fract_z
Zn1 Zn 0.25417(4) 0.40995(3) 0.25698(4)
O1 O 0.3861(3) 0.4702(2) 0.3167(3)
O2 O 0.1613(3) 0.4979(2) 0.2309(3)
N1 N 0.2933(3) 0.3977(2) 0.1247(3)
N2 N 0.1390(3) 0.3295(2) 0.1726(3)
N3 N -0.2940(3) 0.1138(2) 0.3821(3)
N4 N -0.1528(3) 0.1863(2) 0.3176(3)
N5 N 0.4673(4) 0.5704(2) 0.3858(3)
N6 N 0.0963(4) 0.5978(2) 0.1491(4)
C1 C 0.3683(4) 0.4330(3) 0.0992(4)
C2 C 0.4031(5) 0.4115(3) 0.0216(4)
C3 C 0.3589(5) 0.3535(3) -0.0321(4)
C4 C 0.2801(4) 0.3179(3) -0.0077(4)
C5 C 0.2506(4) 0.3411(3) 0.0715(4)
C6 C 0.1686(4) 0.3053(3) 0.1026(4)
C7 C 0.0622(4) 0.2931(2) 0.2058(3)
C8 C 0.0704(4) 0.2194(2) 0.2230(4)
C9 C -0.0008(4) 0.1854(2) 0.2600(4)
C10 C -0.0798(4) 0.2237(2) 0.2806(3)
C11 C -0.0882(4) 0.2972(2) 0.2631(4)
C12 C -0.0164(4) 0.3312(2) 0.2269(4)
C13 C -0.3660(4) 0.0800(3) 0.4121(4)
C14 C -0.4015(5) 0.1046(3) 0.4881(5)
C15 C -0.3625(5) 0.1661(3) 0.5324(5)
C16 C -0.2869(5) 0.2021(3) 0.5033(5)
C17 C -0.2553(4) 0.1747(3) 0.4272(4)
C18 C -0.1780(4) 0.2106(3) 0.3898(4)
C19 C 0.3857(4) 0.5337(3) 0.3413(4)
C20 C 0.5697(5) 0.5401(3) 0.4088(5)
C21 C 0.4593(6) 0.6448(3) 0.4120(6)
C22 C 0.1256(4) 0.5309(3) 0.1530(4)
C23 C 0.1066(6) 0.6406(3) 0.2348(5)
C24 C 0.0539(6) 0.6325(4) 0.0561(5)
H1 H 0.3984 0.4737 0.1348
H2 H 0.4573 0.4367 0.0060
H3 H 0.3821 0.3383 -0.0849
H4 H 0.2468 0.2785 -0.0443
H5 H 0.1372 0.2637 0.0702
H6 H 0.1247 0.1931 0.2091
H7 H 0.0043 0.1356 0.2713
H8 H -0.1431 0.3233 0.2762
H9 H -0.0211 0.3811 0.2164
H10 H -0.3944 0.0373 0.3806
H11 H -0.4522 0.0787 0.5083
H12 H -0.3869 0.1843 0.5830
H13 H -0.2573 0.2446 0.5346
H14 H -0.1460 0.2528 0.4199
H15 H 0.3209 0.5574 0.3264
H16 H 0.6022 0.5532 0.3611
H17 H 0.5650 0.4897 0.4111
H18 H 0.6093 0.5573 0.4693
H19 H 0.5045 0.6730 0.3873
H20 H 0.4780 0.6491 0.4798
H21 H 0.3902 0.6607 0.3860
H22 H 0.1197 0.5063 0.0946
H23 H 0.0448 0.6669 0.2285
H24 H 0.1187 0.6104 0.2891
H25 H 0.1630 0.6725 0.2425
H26 H 0.0552 0.6001 0.0062
H27 H 0.0943 0.6731 0.0518
H28 H -0.0154 0.6466 0.0497
N3C N 0.2060(3) 0.3862(2) 0.3821(3)
N4C N 0.3472(3) 0.3137(2) 0.3176(3)
Zn1C Zn -0.24583(4) 0.09005(3) 0.25698(4)
Cl1 Cl 0.2998(1) 0.10094(8) 0.4697(1)
O4 O 0.3743(3) 0.1489(2) 0.5283(3)
O5 O 0.2279(4) 0.1390(2) 0.3945(3)
O6 O 0.3531(4) 0.0510(3) 0.4265(4)
O7 O 0.2480(5) 0.0660(4) 0.5294(4)
Cl2 Cl 0.4030(1) 0.65188(8) 0.1268(1)
O8 O 0.4809(5) 0.6014(3) 0.1643(4)
O9 O 0.3198(5) 0.6363(5) 0.1564(6)
O10 O 0.4382(7) 0.7173(3) 0.1478(7)
O11 O 0.3751(6) 0.6497(4) 0.0233(4)
O3 O 0.1128(4) 0.4887(3) 0.9250(4)
N7 N 0.2233(5) 0.5001(3) 0.8316(4)
C25 C 0.1895(6) 0.5156(4) 0.9062(5)
C26 C 0.1703(9) 0.4458(5) 0.7647(6)
C27 C 0.3152(6) 0.5309(4) 0.8166(5)
H29 H 0.2269 0.5505 0.9494
H30 H 0.1024 0.4395 0.7706
H31 H 0.1669 0.4600 0.7013
H32 H 0.2072 0.4022 0.7788
H33 H 0.3617 0.4942 0.8111
H34 H 0.2975 0.5583 0.7594
H35 H 0.3474 0.5607 0.8692
loop_
_geom_bond_atom_site_label_1
_geom_bond_atom_site_label_2
_geom_bond_site_symmetry_1
_geom_bond_site_symmetry_2
Zn1 O1 1_555 1_555
Cl1 O4 1_555 1_555
Cl2 O8 1_555 1_555
O1 C19 1_555 1_555
O2 Zn1 1_555 1_555
O3 C25 1_555 1_555
O5 Cl1 1_555 1_555
O6 Cl1 1_555 1_555
O7 Cl1 1_555 1_555
O9 Cl2 1_555 1_555
O10 Cl2 1_555 1_555
O11 Cl2 1_555 1_555
N1 Zn1 1_555 1_555
N2 Zn1 1_555 1_555
N3 C13 1_555 1_555
N4 C10 1_555 1_555
N5 C19 1_555 1_555
N6 C22 1_555 1_555
N7 C25 1_555 1_555
C1 N1 1_555 1_555
C2 C1 1_555 1_555
C3 C2 1_555 1_555
C4 C3 1_555 1_555
C5 N1 1_555 1_555
C6 N2 1_555 1_555
C7 N2 1_555 1_555
C8 C7 1_555 1_555
C9 C8 1_555 1_555
C10 C9 1_555 1_555
C11 C10 1_555 1_555
C12 C7 1_555 1_555
C13 C14 1_555 1_555
C14 C15 1_555 1_555
C15 C16 1_555 1_555
C16 C17 1_555 1_555
C17 N3 1_555 1_555
C18 N4 1_555 1_555
C19 H15 1_555 1_555
C20 N5 1_555 1_555
C21 N5 1_555 1_555
C22 O2 1_555 1_555
C23 N6 1_555 1_555
C24 N6 1_555 1_555
C25 H29 1_555 1_555
C26 N7 1_555 1_555
C27 N7 1_555 1_555
H1 C1 1_555 1_555
H2 C2 1_555 1_555
H3 C3 1_555 1_555
H4 C4 1_555 1_555
H5 C6 1_555 1_555
H6 C8 1_555 1_555
H7 C9 1_555 1_555
H8 C11 1_555 1_555
H9 C12 1_555 1_555
H10 C13 1_555 1_555
H11 C14 1_555 1_555
H12 C15 1_555 1_555
H13 C16 1_555 1_555
H14 C18 1_555 1_555
H16 C20 1_555 1_555
H17 C20 1_555 1_555
H18 C20 1_555 1_555
H19 C21 1_555 1_555
H20 C21 1_555 1_555
H21 C21 1_555 1_555
H22 C22 1_555 1_555
H23 C23 1_555 1_555
H24 C23 1_555 1_555
H25 C23 1_555 1_555
H26 C24 1_555 1_555
H27 C24 1_555 1_555
H28 C24 1_555 1_555
H30 C26 1_555 1_555
H31 C26 1_555 1_555
H32 C26 1_555 1_555
H33 C27 1_555 1_555
H34 C27 1_555 1_555
H35 C27 1_555 1_555
N3C Zn1 1_555 1_555
N4C Zn1 1_555 1_555
Zn1C N3 1_555 1_555
N4 Zn1C 1_555 1_555
C4 C5 1_555 1_555
C5 C6 1_555 1_555
C11 C12 1_555 1_555
C17 C18 1_555 1_555

#END
