
#######################################################################
#
#                 Cambridge Crystallographic Data Centre
#                                CCDC 
#
#######################################################################
#
# If this CIF has been generated from an entry in the Cambridge 
# Structural Database, then it will include bibliographic, chemical, 
# crystal, experimental, refinement or atomic coordinate data resulting 
# from the CCDC's data processing and validation procedures.
#
#######################################################################

data_VEQGOO
_symmetry_cell_setting           tetragonal
_symmetry_space_group_name_H-M   'P -4'
_symmetry_Int_Tables_number      81
_space_group_name_Hall           'P -4'
loop_
_symmetry_equiv_pos_site_id
_symmetry_equiv_pos_as_xyz
1 x,y,z
2 -x,-y,z
3 y,-x,-z
4 -y,x,-z
_cell_length_a                   8.898(3)
_cell_length_b                   8.898(3)
_cell_length_c                   7.679(3)
_cell_angle_alpha                90
_cell_angle_beta                 90
_cell_angle_gamma                90
_cell_volume                     607.98
loop_
_atom_site_label
_atom_site_type_symbol
_atom_site_fract_x
_atom_site_fract_y
_atom_site_fract_z
C1 C 0.0573(9) 0.7647(8) 0.1861(9)
C2 C -0.0822(9) 0.7057(8) 0.2787(9)
C3 C 0.076(3) 0.5054(15) -0.2964(14)
H1 H 0.1067 0.6100 -0.3023
H2 H 0.1177 0.4532 -0.3964
Co1 Co 0.0000 0.5000 0.04855(17)
N1 N 0.1321(18) 0.4362(9) -0.1328(12)
H3 H 0.2267 0.4666 -0.1106
H4 H 0.1316 0.3353 -0.1416
O1 O 0.1019(8) 0.6843(7) 0.0583(8)
O2 O 0.1161(6) 0.8832(6) 0.2375(7)
O3 O -0.1303(7) 0.5805(7) 0.2253(8)
O4 O -0.1397(7) 0.7818(6) 0.3975(8)
Ca1 Ca 0.0000 1.0000 0.5000
C1A C -0.0573(9) 1.2353(8) 0.1861(9)
C1B C -0.2353(8) 0.9427(9) 0.8139(9)
C1C C 0.2353(8) 1.0573(9) 0.8139(9)
C2A C 0.0822(9) 1.2943(8) 0.2787(9)
C2B C -0.2943(8) 1.0822(9) 0.7213(9)
C2C C 0.2943(8) 0.9178(9) 0.7213(9)
C3A C -0.076(3) 0.4946(15) -0.2964(14)
C3A_2 C -0.076(3) 1.4946(15) -0.2964(14)
C3_2 C 0.076(3) 1.5054(15) -0.2964(14)
H1A H -0.1067 0.3900 -0.3023
H1A_2 H -0.1067 1.3900 -0.3023
H1_2 H 0.1067 1.6100 -0.3023
H2A H -0.1177 0.5468 -0.3964
H2A_2 H -0.1177 1.5468 -0.3964
H2_2 H 0.1177 1.4532 -0.3964
Co1_2 Co 0.0000 1.5000 0.04855(17)
Co1B Co -0.5000 1.0000 0.95145(17)
Co1B_2 Co 0.5000 1.0000 0.95145(17)
N1A N -0.1321(18) 0.5638(9) -0.1328(12)
N1A_2 N -0.1321(18) 1.5638(9) -0.1328(12)
N1_2 N 0.1321(18) 1.4362(9) -0.1328(12)
H3A H -0.2267 0.5334 -0.1106
H3A_2 H -0.2267 1.5334 -0.1106
H3_2 H 0.2267 1.4666 -0.1106
H4A H -0.1316 0.6647 -0.1416
H4A_2 H -0.1316 1.6647 -0.1416
H4_2 H 0.1316 1.3353 -0.1416
O1A O -0.1019(8) 1.3157(7) 0.0583(8)
O1B O -0.3157(7) 0.8981(8) 0.9417(8)
O1C O 0.3157(7) 1.1019(8) 0.9417(8)
O1A_2 O -0.1019(8) 0.3157(7) 0.0583(8)
O1_2 O 0.1019(8) 1.6843(7) 0.0583(8)
O2A O -0.1161(6) 1.1168(6) 0.2375(7)
O2B O -0.1168(6) 0.8839(6) 0.7625(7)
O2C O 0.1168(6) 1.1161(6) 0.7625(7)
O3A O 0.1303(7) 1.4195(7) 0.2253(8)
O3B O -0.4195(7) 1.1303(7) 0.7747(8)
O3C O 0.4195(7) 0.8697(7) 0.7747(8)
O3A_2 O 0.1303(7) 0.4195(7) 0.2253(8)
O3_2 O -0.1303(7) 1.5805(7) 0.2253(8)
O4A O 0.1397(7) 1.2182(6) 0.3975(8)
O4B O -0.2182(6) 1.1397(7) 0.6025(8)
O4C O 0.2182(6) 0.8603(7) 0.6025(8)
loop_
_geom_bond_atom_site_label_1
_geom_bond_atom_site_label_2
_geom_bond_site_symmetry_1
_geom_bond_site_symmetry_2
C1 C2 1_555 1_555
C2 O3 1_555 1_555
C3 H1 1_555 1_555
H2 C3 1_555 1_555
Co1 N1 1_555 1_555
N1 C3 1_555 1_555
H3 N1 1_555 1_555
H4 N1 1_555 1_555
O1 C1 1_555 1_555
O2 C1 1_555 1_555
O3 Co1 1_555 1_555
O4 C2 1_555 1_555
Ca1 O2 1_555 1_555
C1A C2A 1_555 1_555
C1B C2B 1_555 1_555
C1C C2C 1_555 1_555
C2A O3A 1_555 1_555
C2B O3B 1_555 1_555
C2C O3C 1_555 1_555
C3A C3 1_555 1_555
C3A_2 C3_2 1_555 1_555
C3_2 H1_2 1_555 1_555
H1A C3A 1_555 1_555
H1A_2 C3A_2 1_555 1_555
H2A C3A 1_555 1_555
H2A_2 C3A_2 1_555 1_555
H2_2 C3_2 1_555 1_555
Co1_2 N1A_2 1_555 1_555
Co1B O1B 1_555 1_555
Co1B_2 O1C 1_555 1_555
N1A Co1 1_555 1_555
N1A_2 C3A_2 1_555 1_555
N1_2 C3_2 1_555 1_555
H3A N1A 1_555 1_555
H3A_2 N1A_2 1_555 1_555
H3_2 N1_2 1_555 1_555
H4A N1A 1_555 1_555
H4A_2 N1A_2 1_555 1_555
H4_2 N1_2 1_555 1_555
O1A C1A 1_555 1_555
O1B C1B 1_555 1_555
O1C C1C 1_555 1_555
O1A_2 Co1 1_555 1_555
O1_2 Co1_2 1_555 1_555
O2A Ca1 1_555 1_555
O2B Ca1 1_555 1_555
O2C Ca1 1_555 1_555
O3A Co1_2 1_555 1_555
O3B Co1B 1_555 1_555
O3C Co1B_2 1_555 1_555
O3A_2 Co1 1_555 1_555
O3_2 Co1_2 1_555 1_555
O4A Ca1 1_555 1_555
O4B Ca1 1_555 1_555
O4C Ca1 1_555 1_555
Co1 O1 1_555 1_555
O4 Ca1 1_555 1_555
C1A O2A 1_555 1_555
C1B O2B 1_555 1_555
C1C O2C 1_555 1_555
C2A O4A 1_555 1_555
C2B O4B 1_555 1_555
C2C O4C 1_555 1_555
C3A N1A 1_555 1_555
Co1_2 N1_2 1_555 1_555
Co1_2 O1A 1_555 1_555

#END
