
#######################################################################
#
#                 Cambridge Crystallographic Data Centre
#                                CCDC 
#
#######################################################################
#
# If this CIF has been generated from an entry in the Cambridge 
# Structural Database, then it will include bibliographic, chemical, 
# crystal, experimental, refinement or atomic coordinate data resulting 
# from the CCDC's data processing and validation procedures.
#
#######################################################################

data_VEQLEK
_symmetry_cell_setting           triclinic
_symmetry_space_group_name_H-M   'P -1'
_symmetry_Int_Tables_number      2
_space_group_name_Hall           '-P 1'
loop_
_symmetry_equiv_pos_site_id
_symmetry_equiv_pos_as_xyz
1 x,y,z
2 -x,-y,-z
_cell_length_a                   9.821(5)
_cell_length_b                   13.084(5)
_cell_length_c                   14.705(5)
_cell_angle_alpha                105.249(5)
_cell_angle_beta                 95.688(5)
_cell_angle_gamma                94.273(5)
_cell_volume                     1804.08
loop_
_atom_site_label
_atom_site_type_symbol
_atom_site_fract_x
_atom_site_fract_y
_atom_site_fract_z
Ni1 Ni 0.09452(2) 0.493762(19) 0.327810(17)
O1 O 0.00596(15) 0.32405(12) 0.28837(11)
O2 O -0.10279(16) 0.45499(12) 0.36368(12)
O3 O 0.1812(2) 0.46879(17) 0.45462(13)
N1 N -0.14097(18) 0.59106(14) 0.11515(13)
C1 C 0.0284(2) 0.87308(17) 0.56391(15)
H1 H -0.0455 0.8365 0.5809
N2 N -0.00546(17) 0.51212(13) 0.20103(12)
O4 O 0.13397(16) 0.65493(11) 0.38833(11)
N3 N -0.71234(17) 0.48204(14) 0.28441(12)
C2 C 0.0675(2) 0.97927(17) 0.60978(15)
O5 O 0.0174(2) 1.12994(14) 0.71881(14)
C3 C -0.6441(2) 0.22125(17) 0.12652(15)
N4 N -0.3523(3) -0.00287(17) 0.20828(16)
O6 O 0.4041(2) 1.00314(18) 0.41437(17)
N5 N -0.49797(17) 0.53279(14) 0.26425(13)
C4 C -0.6614(2) 0.39678(16) 0.22372(14)
N6 N -0.0102(2) 1.03383(17) 0.68593(15)
C5 C -0.0978(2) 0.35803(17) 0.32459(15)
C6 C -0.5112(2) 0.25542(18) 0.10856(15)
N7 N -0.5674(2) 0.2878(2) 0.40685(17)
O7 O 0.3934(2) 1.13647(16) 0.53517(19)
C7 C -0.2229(2) 0.28204(16) 0.31975(15)
C8 C -0.7183(2) 0.29216(17) 0.18444(15)
H2 H -0.8051 0.2699 0.1968
C9 C -0.5278(2) 0.42837(17) 0.20905(14)
C10 C -0.3333(2) 0.31845(17) 0.36697(16)
H3 H -0.3289 0.3884 0.4041
C11 C -0.1431(2) 0.48678(17) 0.06084(15)
N8 N 0.3550(2) 1.04619(18) 0.48582(19)
O8 O -0.67871(19) 0.2347(2) 0.38180(17)
C12 C -0.1875(2) 0.32702(19) -0.06561(16)
C13 C -0.3473(2) 0.10993(17) 0.26140(16)
C14 C -0.1037(2) 0.27566(18) -0.01073(16)
C15 C -0.0588(2) 0.43776(17) 0.11504(15)
C16 C 0.1017(2) 0.82157(16) 0.49174(14)
C17 C -0.2289(2) 0.17680(17) 0.26700(15)
H4 H -0.1550 0.1516 0.2360
C18 C -0.0400(2) 0.33114(17) 0.07861(16)
H5 H 0.0152 0.2973 0.1142
C19 C -0.2555(3) 0.2666(2) -0.16350(18)
H6 H -0.3082 0.3129 -0.1903
H7 H -0.3152 0.2070 -0.1592
H8 H -0.1863 0.2416 -0.2032
C20 C -0.3640(2) 0.69056(18) 0.23740(18)
C21 C -0.3648(2) 0.59906(19) 0.28348(18)
H9 H -0.3418 0.6280 0.3516
H10 H -0.2941 0.5544 0.2605
C22 C -0.4523(2) 0.35850(18) 0.15072(16)
H11 H -0.3643 0.3806 0.1404
C23 C -0.4495(2) 0.24832(19) 0.35754(16)
C24 C -0.4607(2) 0.14399(19) 0.30419(17)
H12 H -0.5408 0.0986 0.2973
C25 C -0.0577(2) 0.60048(17) 0.19648(16)
H13 H -0.0390 0.6637 0.2448
C26 C -0.2292(2) 0.66962(18) 0.09379(18)
H14 H -0.2422 0.6598 0.0257
H15 H -0.1834 0.7406 0.1233
C27 C 0.1737(3) 1.03772(17) 0.58610(16)
H16 H 0.1972 1.1096 0.6169
C28 C 0.2435(2) 0.98446(18) 0.51450(17)
C29 C -0.4313(3) 0.1781(2) 0.04412(19)
H17 H -0.3442 0.2137 0.0396
H18 H -0.4827 0.1526 -0.0179
H19 H -0.4164 0.1191 0.0699
C30 C -0.6115(2) 0.55906(17) 0.30692(15)
H20 H -0.6172 0.6255 0.3483
C31 C 0.2115(2) 0.87749(17) 0.46748(15)
H21 H 0.2626 0.8438 0.4205
C32 C -0.2076(2) 0.43266(18) -0.02937(16)
H22 H -0.2631 0.4668 -0.0645
C33 C -0.3698(2) 0.66054(19) 0.12897(18)
H23 H -0.4121 0.5879 0.1033
H24 H -0.4281 0.7064 0.1045
O9 O -0.0981(3) 0.98160(19) 0.71095(17)
C34 C -0.0841(3) 0.1598(2) -0.04776(19)
H25 H -0.0245 0.1387 -0.0016
H26 H -0.0435 0.1489 -0.1059
H27 H -0.1716 0.1177 -0.0594
O10 O -0.4589(3) -0.05979(18) 0.2008(2)
C35 C 0.0530(3) 0.70676(18) 0.43882(17)
O11 O -0.0664(3) 0.67773(19) 0.4442(3)
O12 O -0.2498(3) -0.03429(16) 0.17468(17)
C36 C -0.7064(3) 0.1075(2) 0.0851(2)
H28 H -0.7962 0.0992 0.1044
H29 H -0.6487 0.0608 0.1074
H30 H -0.7139 0.0900 0.0170
O13 O -0.5469(2) 0.3704(2) 0.4695(2)
H31 H 0.143(4) 0.481(3) 0.497(3)
H32 H 0.206(5) 0.421(4) 0.451(4)
Ni1_2 Ni -0.90548(2) 0.493762(19) 0.327810(17)
N3_2 N 0.28766(17) 0.48204(14) 0.28441(12)
loop_
_geom_bond_atom_site_label_1
_geom_bond_atom_site_label_2
_geom_bond_site_symmetry_1
_geom_bond_site_symmetry_2
Ni1 O1 1_555 1_555
O1 C5 1_555 1_555
O2 Ni1 1_555 1_555
O3 Ni1 1_555 1_555
N1 C11 1_555 1_555
C1 H1 1_555 1_555
N2 Ni1 1_555 1_555
O4 Ni1 1_555 1_555
N3 C4 1_555 1_555
C2 C1 1_555 1_555
O5 N6 1_555 1_555
C3 C6 1_555 1_555
N4 C13 1_555 1_555
O6 N8 1_555 1_555
N5 C9 1_555 1_555
C4 C8 1_555 1_555
N6 C2 1_555 1_555
C5 O2 1_555 1_555
C6 C22 1_555 1_555
N7 O8 1_555 1_555
O7 N8 1_555 1_555
C7 C5 1_555 1_555
C8 C3 1_555 1_555
H2 C8 1_555 1_555
C9 C4 1_555 1_555
C10 C7 1_555 1_555
H3 C10 1_555 1_555
C11 C15 1_555 1_555
N8 C28 1_555 1_555
C12 C14 1_555 1_555
C13 C17 1_555 1_555
C14 C18 1_555 1_555
C15 N2 1_555 1_555
C16 C1 1_555 1_555
C17 C7 1_555 1_555
H4 C17 1_555 1_555
C18 C15 1_555 1_555
H5 C18 1_555 1_555
C19 C12 1_555 1_555
H6 C19 1_555 1_555
H7 C19 1_555 1_555
H8 C19 1_555 1_555
C20 C21 1_555 1_555
C21 N5 1_555 1_555
H9 C21 1_555 1_555
H10 C21 1_555 1_555
C22 C9 1_555 1_555
H11 C22 1_555 1_555
C23 N7 1_555 1_555
C24 C13 1_555 1_555
H12 C24 1_555 1_555
C25 N1 1_555 1_555
H13 C25 1_555 1_555
C26 N1 1_555 1_555
H14 C26 1_555 1_555
H15 C26 1_555 1_555
C27 C2 1_555 1_555
H16 C27 1_555 1_555
C28 C27 1_555 1_555
C29 C6 1_555 1_555
H17 C29 1_555 1_555
H18 C29 1_555 1_555
H19 C29 1_555 1_555
C30 N3 1_555 1_555
H20 C30 1_555 1_555
C31 C16 1_555 1_555
H21 C31 1_555 1_555
C32 C11 1_555 1_555
H22 C32 1_555 1_555
C33 C20 1_555 1_555
H23 C33 1_555 1_555
H24 C33 1_555 1_555
O9 N6 1_555 1_555
C34 C14 1_555 1_555
H25 C34 1_555 1_555
H26 C34 1_555 1_555
H27 C34 1_555 1_555
O10 N4 1_555 1_555
C35 O4 1_555 1_555
O11 C35 1_555 1_555
O12 N4 1_555 1_555
C36 C3 1_555 1_555
H28 C36 1_555 1_555
H29 C36 1_555 1_555
H30 C36 1_555 1_555
O13 N7 1_555 1_555
H31 O3 1_555 1_555
H32 O3 1_555 1_555
Ni1_2 N3 1_555 1_555
N3_2 Ni1 1_555 1_555
N2 C25 1_555 1_555
N5 C30 1_555 1_555
C10 C23 1_555 1_555
C12 C32 1_555 1_555
C16 C35 1_555 1_555
C23 C24 1_555 1_555
C26 C33 1_555 1_555
C28 C31 1_555 1_555

#END
