
#######################################################################
#
#                 Cambridge Crystallographic Data Centre
#                                CCDC 
#
#######################################################################
#
# If this CIF has been generated from an entry in the Cambridge 
# Structural Database, then it will include bibliographic, chemical, 
# crystal, experimental, refinement or atomic coordinate data resulting 
# from the CCDC's data processing and validation procedures.
#
#######################################################################

data_VEQSOZ
_symmetry_cell_setting           monoclinic
_symmetry_space_group_name_H-M   'A m'
_symmetry_Int_Tables_number      8
_space_group_name_Hall           'A -2y'
loop_
_symmetry_equiv_pos_site_id
_symmetry_equiv_pos_as_xyz
1 x,y,z
2 x,-y,z
3 x,1/2+y,1/2+z
4 x,1/2-y,1/2+z
_cell_length_a                   3.7528(8)
_cell_length_b                   22.259(5)
_cell_length_c                   32.295(7)
_cell_angle_alpha                90
_cell_angle_beta                 92.65(3)
_cell_angle_gamma                90
_cell_volume                     2694.83
loop_
_atom_site_label
_atom_site_type_symbol
_atom_site_fract_x
_atom_site_fract_y
_atom_site_fract_z
Ag1 Ag 0.7353(5) 0.0000 0.79811(15)
N1 N 1.013(4) 0.0851(9) 0.8139(9)
N2 N 3.387(7) 0.5000 1.2398(13)
C1 C 2.412(6) 0.5000 1.0191(8)
C2 C 2.230(4) 0.5000 0.9787(6)
C3 C 2.142(3) 0.4458(6) 0.9573(5)
C4 C 1.966(3) 0.4463(6) 0.9198(5)
C5 C 1.885(5) 0.5000 0.8969(7)
C6 C 1.579(4) 0.2383(8) 0.8958(8)
H1 H 1.6557 0.2417 0.9235
C7 C 1.444(4) 0.1834(9) 0.8816(7)
H2 H 1.4434 0.1490 0.8979
C8 C 1.312(3) 0.1846(8) 0.8414(6)
C9 C 1.315(4) 0.2331(8) 0.8133(8)
H3 H 1.2241 0.2302 0.7860
C10 C 1.466(4) 0.2861(9) 0.8299(7)
H4 H 1.4725 0.3203 0.8134
C11 C 1.604(3) 0.2886(9) 0.8700(5)
C12 C 1.852(4) 0.3906(8) 0.8996(6)
C13 C 1.738(4) 0.3444(8) 0.8847(8)
C14 C 1.136(6) 0.1249(11) 0.8282(10)
C15 C 3.068(5) 0.5000 1.1711(11)
C16 C 2.741(5) 0.5000 1.0916(9)
C17 C 2.821(4) 0.5527(9) 1.1116(8)
H5 H 2.7574 0.5888 1.0988
C18 C 2.993(4) 0.5540(9) 1.1505(8)
H6 H 3.0578 0.5904 1.1627
C19 C 2.561(6) 0.5000 1.0506(9)
C20 C 3.227(9) 0.5000 1.2136(16)
O1 O 1.716(12) 0.5000 0.8598(16)
O2 O 2.256(8) 0.3946(16) 0.9777(11)
C18A C 2.993(4) 0.4460(9) 1.1505(8)
C17A C 2.821(4) 0.4473(9) 1.1116(8)
H5A H 2.7574 0.4112 1.0988
H6A H 3.0578 0.4096 1.1627
C3A C 2.142(3) 0.5542(6) 0.9573(5)
C4A C 1.966(3) 0.5537(6) 0.9198(5)
C12A C 1.852(4) 0.6094(8) 0.8996(6)
C13A C 1.738(4) 0.6556(8) 0.8847(8)
C11A C 1.604(3) 0.7114(9) 0.8700(5)
C6A C 1.579(4) 0.7617(8) 0.8958(8)
C7A C 1.444(4) 0.8166(9) 0.8816(7)
C8A C 1.312(3) 0.8154(8) 0.8414(6)
C14A C 1.136(6) 0.8751(11) 0.8282(10)
N1A N 1.013(4) 0.9149(9) 0.8139(9)
C9A C 1.315(4) 0.7669(8) 0.8133(8)
C10A C 1.466(4) 0.7139(9) 0.8299(7)
H4A H 1.4725 0.6797 0.8134
H3A H 1.2241 0.7698 0.7860
H2A H 1.4434 0.8510 0.8979
H1A H 1.6557 0.7583 0.9235
O2A O 2.256(8) 0.6054(16) 0.9777(11)
N2B N 0.387(7) 0.0000 0.7398(13)
N1A_2 N 1.013(4) -0.0851(9) 0.8139(9)
Ag1B Ag 3.7353(5) 0.5000 1.29811(15)
Ag1A Ag 0.7353(5) 1.0000 0.79811(15)
S1 S 0.577(7) 0.2108(11) 0.6961(7)
S2 S 0.081(11) 0.0000 0.8947(12)
loop_
_geom_bond_atom_site_label_1
_geom_bond_atom_site_label_2
_geom_bond_site_symmetry_1
_geom_bond_site_symmetry_2
Ag1 N1 1_555 1_555
N1 C14 1_555 1_555
N2 C20 1_555 1_555
C1 C2 1_555 1_555
C2 C3 1_555 1_555
C3 C4 1_555 1_555
C4 C5 1_555 1_555
C5 O1 1_555 1_555
C6 H1 1_555 1_555
C7 C6 1_555 1_555
H2 C7 1_555 1_555
C8 C7 1_555 1_555
C9 C8 1_555 1_555
H3 C9 1_555 1_555
C10 C9 1_555 1_555
H4 C10 1_555 1_555
C11 C6 1_555 1_555
C12 C4 1_555 1_555
C13 C11 1_555 1_555
C14 C8 1_555 1_555
C15 C18 1_555 1_555
C16 C17 1_555 1_555
C17 H5 1_555 1_555
C18 C17 1_555 1_555
H6 C18 1_555 1_555
C19 C1 1_555 1_555
C20 C15 1_555 1_555
O2 C3 1_555 1_555
C18A C15 1_555 1_555
C17A C16 1_555 1_555
H5A C17A 1_555 1_555
H6A C18A 1_555 1_555
C3A C2 1_555 1_555
C4A C5 1_555 1_555
C12A C4A 1_555 1_555
C13A C12A 1_555 1_555
C11A C13A 1_555 1_555
C6A C11A 1_555 1_555
C7A C6A 1_555 1_555
C8A C7A 1_555 1_555
C14A C8A 1_555 1_555
N1A C14A 1_555 1_555
C9A C8A 1_555 1_555
C10A C11A 1_555 1_555
H4A C10A 1_555 1_555
H3A C9A 1_555 1_555
H2A C7A 1_555 1_555
H1A C6A 1_555 1_555
O2A C3A 1_555 1_555
N2B Ag1 1_555 1_555
N1A_2 Ag1 1_555 1_555
Ag1B N2 1_555 1_555
Ag1A N1A 1_555 1_555
C10 C11 1_555 1_555
C12 C13 1_555 1_555
C16 C19 1_555 1_555
C18A C17A 1_555 1_555
C3A C4A 1_555 1_555
C9A C10A 1_555 1_555

#END
