
#######################################################################
#
#                 Cambridge Crystallographic Data Centre
#                                CCDC 
#
#######################################################################
#
# If this CIF has been generated from an entry in the Cambridge 
# Structural Database, then it will include bibliographic, chemical, 
# crystal, experimental, refinement or atomic coordinate data resulting 
# from the CCDC's data processing and validation procedures.
#
#######################################################################

data_VEQSUF
_symmetry_cell_setting           triclinic
_symmetry_space_group_name_H-M   'P -1'
_symmetry_Int_Tables_number      2
_space_group_name_Hall           '-P 1'
loop_
_symmetry_equiv_pos_site_id
_symmetry_equiv_pos_as_xyz
1 x,y,z
2 -x,-y,-z
_cell_length_a                   14.3765(11)
_cell_length_b                   27.628(2)
_cell_length_c                   27.648(2)
_cell_angle_alpha                66.549(2)
_cell_angle_beta                 84.674(3)
_cell_angle_gamma                79.620(3)
_cell_volume                     9906.95
loop_
_atom_site_label
_atom_site_type_symbol
_atom_site_fract_x
_atom_site_fract_y
_atom_site_fract_z
Ag1 Ag 0.02973(18) 0.71141(10) 0.71992(9)
N4 N -0.0384(19) 0.6661(11) 0.7966(12)
C52 C -0.052(3) 0.6455(15) 0.8406(18)
C53 C -0.080(2) 0.6213(13) 0.8945(13)
C54 C -0.072(2) 0.5644(13) 0.9155(13)
H28 H -0.0471 0.5443 0.8949
C55 C -0.116(3) 0.6502(17) 0.9221(16)
H29 H -0.1244 0.6881 0.9056
C56 C -0.101(2) 0.5393(13) 0.9692(12)
H30 H -0.0941 0.5015 0.9863
C57 C -0.142(2) 0.6253(15) 0.9761(14)
H31 H -0.1604 0.6452 0.9976
C58 C -0.141(2) 0.5718(13) 0.9956(13)
C59 C -0.169(2) 0.5441(13) 1.0501(14)
C60 C -0.198(2) 0.5172(13) 1.0959(14)
C61 C -0.2327(18) 0.4894(11) 1.1455(11)
C62 C -0.2330(18) 0.4367(11) 1.1589(11)
H32 H -0.2092 0.4201 1.1351
C63 C -0.262(2) 0.5158(14) 1.1769(13)
H33 H -0.2579 0.5525 1.1665
C64 C -0.2707(18) 0.4062(11) 1.2106(10)
H34 H -0.2719 0.3691 1.2211
C65 C -0.301(2) 0.4851(13) 1.2271(13)
H35 H -0.3260 0.5029 1.2498
C66 C -0.3051(17) 0.4317(10) 1.2444(10)
N5 N -0.0144(17) -0.2120(11) 1.6642(10)
C67 C -0.040(2) -0.1679(14) 1.6364(12)
C68 C -0.080(2) -0.1142(12) 1.6042(12)
C69 C -0.146(2) -0.0807(13) 1.6220(13)
H36 H -0.1705 -0.0947 1.6571
C70 C -0.0502(19) -0.0921(11) 1.5507(11)
H37 H -0.0055 -0.1136 1.5372
C71 C -0.176(2) -0.0290(13) 1.5906(13)
H38 H -0.2192 -0.0071 1.6045
C72 C -0.0843(17) -0.0395(10) 1.5168(11)
H39 H -0.0670 -0.0261 1.4804
C73 C -0.144(2) -0.0077(12) 1.5388(12)
C74 C -0.184(2) 0.0462(15) 1.5045(13)
C75 C -0.211(2) 0.0909(16) 1.4795(13)
C76 C -0.247(2) 0.1434(14) 1.4499(14)
C77 C -0.327(2) 0.1728(13) 1.4677(13)
H40 H -0.3584 0.1534 1.4994
C78 C -0.208(2) 0.1764(12) 1.4030(12)
H41 H -0.1571 0.1608 1.3870
C79 C -0.359(2) 0.2246(12) 1.4435(12)
H42 H -0.4148 0.2389 1.4580
C80 C -0.241(2) 0.2324(12) 1.3770(12)
H43 H -0.2102 0.2518 1.3449
C81 C -0.3172(18) 0.2602(11) 1.3971(10)
N6 N -0.9173(18) 0.6634(10) 1.6737(10)
C82 C -0.878(2) 0.6391(11) 1.6504(11)
C83 C -0.829(2) 0.6110(13) 1.6187(12)
C84 C -0.798(2) 0.6427(13) 1.5670(12)
H44 H -0.8058 0.6806 1.5540
C85 C -0.818(2) 0.5569(12) 1.6366(12)
H45 H -0.8426 0.5371 1.6706
C86 C -0.755(2) 0.6135(12) 1.5363(12)
H46 H -0.7379 0.6329 1.5006
C87 C -0.7703(19) 0.5294(12) 1.6043(11)
H47 H -0.7630 0.4915 1.6169
C88 C -0.736(2) 0.5579(12) 1.5558(12)
C89 C -0.692(2) 0.5296(12) 1.5237(12)
C90 C -0.650(2) 0.5107(13) 1.4952(14)
C91 C -0.5945(18) 0.4819(11) 1.4650(10)
C92 C -0.5356(19) 0.5093(12) 1.4234(11)
H48 H -0.5321 0.5460 1.4139
C93 C -0.604(2) 0.4304(12) 1.4763(12)
H49 H -0.6444 0.4128 1.5047
C94 C -0.4833(18) 0.4799(11) 1.3972(10)
H50 H -0.4398 0.4971 1.3705
C95 C -0.5522(19) 0.4019(12) 1.4445(10)
H51 H -0.5605 0.3669 1.4495
C96 C -0.4882(18) 0.4310(11) 1.4056(10)
C97 C -0.4326(17) 0.4017(10) 1.3777(10)
C98 C -0.4032(17) 0.3461(10) 1.3984(10)
H52 H -0.4217 0.3268 1.4338
C99 C -0.3484(18) 0.3160(11) 1.3713(11)
C100 C -0.3198(19) 0.3445(12) 1.3214(11)
H53 H -0.2815 0.3258 1.3026
C101 C -0.3432(19) 0.3989(11) 1.2968(11)
C102 C -0.4031(19) 0.4266(12) 1.3266(11)
H54 H -0.4225 0.4641 1.3094
S1 S 0.1611(8) 0.7505(5) 0.7887(5)
O1 O 0.1693(15) 0.7206(9) 0.7546(9)
O2 O 0.0557(19) 0.7771(11) 0.7932(10)
O3 O 0.218(2) 0.7962(12) 0.7742(11)
C103 C 0.1762(16) 0.7070(8) 0.8501(6)
F1 F 0.1843(17) 0.7383(8) 0.8818(10)
F2 F 0.2631(14) 0.6947(12) 0.8541(13)
F3 F 0.1163(15) 0.6720(9) 0.8723(10)
N5_2 N -0.0144(17) 0.7880(11) 0.6642(10)
N6_2 N 0.0827(18) 0.6634(10) 0.6737(10)
Ag1_2 Ag 0.02973(18) -0.28859(10) 1.71992(9)
Ag1_3 Ag -0.97027(18) 0.71141(10) 1.71992(9)
Ag2 Ag -0.17691(18) 0.71750(9) 0.61789(9)
N1 N -0.2023(17) 0.6741(10) 0.7001(11)
C1 C -0.221(2) 0.6509(14) 0.7436(15)
C2 C -0.2549(19) 0.6222(12) 0.7986(11)
C3 C -0.228(2) 0.5688(13) 0.8206(12)
H1 H -0.1869 0.5510 0.8020
C4 C -0.298(2) 0.6521(13) 0.8263(12)
H2 H -0.3091 0.6901 0.8120
C5 C -0.264(2) 0.5390(13) 0.8727(12)
H3 H -0.2552 0.5011 0.8874
C6 C -0.323(2) 0.6198(13) 0.8789(12)
H4 H -0.3511 0.6374 0.9011
C7 C -0.3089(18) 0.5676(11) 0.8988(11)
C8 C -0.342(2) 0.5407(14) 0.9512(15)
C9 C -0.371(2) 0.5149(12) 0.9934(14)
C10 C -0.4076(19) 0.4877(12) 1.0462(11)
C11 C -0.411(2) 0.4332(13) 1.0673(12)
H5 H -0.3850 0.4126 1.0473
C12 C -0.4397(19) 0.5152(12) 1.0776(11)
H6 H -0.4386 0.5525 1.0639
C13 C -0.4502(19) 0.4083(12) 1.1164(12)
H7 H -0.4546 0.3714 1.1286
C14 C -0.476(2) 0.4894(14) 1.1316(14)
H8 H -0.4928 0.5080 1.1543
C15 C -0.4827(18) 0.4351(11) 1.1475(11)
N2 N -0.2133(18) -0.1971(11) 1.5845(10)
C16 C -0.251(2) -0.1539(13) 1.5590(12)
C17 C -0.288(2) -0.1024(13) 1.5221(13)
C18 C -0.345(2) -0.0660(12) 1.5423(13)
H9 H -0.3596 -0.0769 1.5790
C19 C -0.267(2) -0.0858(13) 1.4691(13)
H10 H -0.2338 -0.1100 1.4544
C20 C -0.379(2) -0.0148(13) 1.5078(12)
H11 H -0.4204 0.0082 1.5212
C21 C -0.296(2) -0.0295(13) 1.4363(13)
H12 H -0.2741 -0.0158 1.4007
C22 C -0.355(2) 0.0041(13) 1.4552(13)
C23 C -0.385(2) 0.0544(15) 1.4214(13)
C24 C -0.412(2) 0.0998(14) 1.3937(12)
C25 C -0.444(2) 0.1574(12) 1.3642(12)
C26 C -0.5206(19) 0.1885(11) 1.3822(11)
H13 H -0.5507 0.1720 1.4154
C27 C -0.394(2) 0.1848(13) 1.3198(12)
H14 H -0.3392 0.1668 1.3088
C28 C -0.549(2) 0.2398(13) 1.3534(12)
H15 H -0.6065 0.2578 1.3627
C29 C -0.424(2) 0.2386(12) 1.2913(12)
H16 H -0.3930 0.2555 1.2584
C30 C -0.4939(19) 0.2681(11) 1.3082(11)
N3 N -1.0779(16) 0.6695(9) 1.5805(9)
C31 C -1.043(2) 0.6465(11) 1.5543(11)
C32 C -1.0030(19) 0.6213(12) 1.5203(11)
C33 C -0.974(2) 0.6542(13) 1.4700(12)
H17 H -0.9847 0.6920 1.4585
C34 C -0.9791(19) 0.5634(11) 1.5405(12)
H18 H -0.9959 0.5415 1.5755
C35 C -0.926(2) 0.6287(12) 1.4366(12)
H19 H -0.9088 0.6489 1.4012
C36 C -0.9310(19) 0.5418(12) 1.5065(11)
H20 H -0.9143 0.5042 1.5171
C37 C -0.908(2) 0.5760(13) 1.4569(12)
C38 C -0.860(2) 0.5515(12) 1.4238(13)
C39 C -0.822(2) 0.5278(11) 1.3952(11)
C40 C -0.767(2) 0.4962(13) 1.3665(11)
C41 C -0.708(2) 0.5237(13) 1.3223(12)
H21 H -0.7028 0.5601 1.3130
C42 C -0.7639(19) 0.4467(12) 1.3808(11)
H22 H -0.7953 0.4283 1.4130
C43 C -0.660(2) 0.4954(12) 1.2941(12)
H23 H -0.6253 0.5139 1.2632
C44 C -0.7175(18) 0.4171(11) 1.3527(10)
H24 H -0.7247 0.3809 1.3626
C45 C -0.6585(18) 0.4428(11) 1.3084(10)
C46 C -0.6045(19) 0.4107(11) 1.2824(11)
C47 C -0.5772(18) 0.3563(11) 1.3054(11)
H25 H -0.5962 0.3378 1.3410
C48 C -0.5213(19) 0.3265(11) 1.2780(11)
C49 C -0.4958(17) 0.3508(10) 1.2278(10)
H26 H -0.4627 0.3301 1.2093
C50 C -0.5176(18) 0.4081(10) 1.2007(10)
C51 C -0.5738(17) 0.4360(10) 1.2290(10)
H27 H -0.5919 0.4735 1.2116
S2 S -0.3392(7) 0.7443(4) 0.5128(4)
O4 O -0.2961(15) 0.7112(9) 0.5630(9)
O5 O -0.3322(15) 0.7996(9) 0.4914(9)
O6 O -0.4299(15) 0.7335(8) 0.5057(8)
C104 C -0.2747(10) 0.7121(7) 0.4746(5)
F4 F -0.3051(12) 0.7400(7) 0.4202(7)
F5 F -0.1804(11) 0.7311(7) 0.4620(8)
F6 F -0.2636(14) 0.6676(6) 0.4814(7)
N2_2 N -0.2133(18) 0.8029(11) 0.5845(10)
N3_2 N -0.0779(16) 0.6695(9) 0.5805(9)
Ag2_2 Ag -0.17691(18) -0.28250(9) 1.61789(9)
Ag2_3 Ag -1.17691(18) 0.71750(9) 1.61789(9)
C105 C 0.910(3) 0.038(2) 0.361(2)
H55 H 0.8670 0.0377 0.3895
C106 C 0.908(4) 0.090(2) 0.318(2)
H56 H 0.8657 0.1216 0.3147
C107 C 0.990(4) 0.083(2) 0.280(2)
H57 H 1.0042 0.1139 0.2514
C108 C 1.039(4) 0.037(2) 0.286(2)
H58 H 1.0769 0.0357 0.2560
C109 C 1.043(4) -0.005(2) 0.327(2)
H59 H 1.0936 -0.0340 0.3318
C110 C 0.961(3) -0.010(2) 0.369(2)
H60 H 0.9488 -0.0423 0.3967
C111 C -0.032(3) 1.5419(16) -0.2663(15)
H61 H -0.0339 1.5758 -0.2947
C112 C 0.021(2) 1.5304(15) -0.2215(15)
H62 H 0.0607 1.5545 -0.2220
C113 C 0.016(3) 1.4862(17) -0.1782(17)
H63 H 0.0499 1.4790 -0.1477
C114 C -0.046(3) 1.448(2) -0.179(2)
H64 H -0.0534 1.4169 -0.1492
C115 C -0.095(3) 1.4616(19) -0.2275(19)
H65 H -0.1366 1.4399 -0.2302
C116 C -0.077(3) 1.5074(19) -0.2695(19)
H66 H -0.0996 1.5137 -0.3030
C117 C 0.639(3) 0.8619(16) 0.7197(16)
H67 H 0.5793 0.8784 0.7044
C118 C 0.685(3) 0.8164(15) 0.7154(14)
H68 H 0.6577 0.7981 0.6987
C119 C 0.774(3) 0.7985(15) 0.7371(14)
H69 H 0.8078 0.7685 0.7312
C120 C 0.818(3) 0.8160(14) 0.7644(14)
H70 H 0.8791 0.8001 0.7784
C121 C 0.767(3) 0.8597(16) 0.7703(15)
H71 H 0.7908 0.8737 0.7920
C122 C 0.683(3) 0.8841(18) 0.7471(17)
H72 H 0.6538 0.9168 0.7495
C123 C 0.494(3) 0.0989(19) 0.5856(17)
H73 H 0.4451 0.1129 0.5608
C124 C 0.524(3) 0.043(2) 0.6099(19)
H74 H 0.4943 0.0179 0.6030
C125 C 0.588(4) 0.029(2) 0.6392(19)
H75 H 0.6047 -0.0089 0.6576
C126 C 0.644(3) 0.063(2) 0.6507(18)
H76 H 0.6988 0.0490 0.6719
C127 C 0.608(4) 0.119(2) 0.626(2)
H77 H 0.6364 0.1452 0.6312
C128 C 0.537(4) 0.133(2) 0.5980(19)
H78 H 0.5107 0.1694 0.5840
C129 C 0.423(4) 0.705(2) 0.4307(19)
H79 H 0.4829 0.7069 0.4408
C130 C 0.420(3) 0.6614(19) 0.4183(18)
H80 H 0.4737 0.6342 0.4289
C131 C 0.357(4) 0.6514(19) 0.3946(18)
H81 H 0.3624 0.6211 0.3858
C132 C 0.277(4) 0.693(2) 0.384(2)
H82 H 0.2264 0.6953 0.3628
C133 C 0.278(5) 0.732(3) 0.406(2)
H83 H 0.2187 0.7537 0.4052
C134 C 0.353(5) 0.745(3) 0.431(3)
H84 H 0.3515 0.7726 0.4429
C135 C 0.198(5) 0.387(3) 0.620(3)
H85 H 0.2157 0.3790 0.5894
C136 C 0.269(5) 0.374(2) 0.665(3)
H86 H 0.3308 0.3540 0.6656
C137 C 0.230(5) 0.397(3) 0.712(3)
H87 H 0.2659 0.3966 0.7392
C138 C 0.130(4) 0.418(2) 0.701(2)
H88 H 0.0947 0.4278 0.7276
C139 C 0.087(4) 0.424(2) 0.663(3)
H89 H 0.0250 0.4433 0.6611
C140 C 0.109(5) 0.409(2) 0.627(2)
H90 H 0.0617 0.4141 0.6032
C141 C 0.030(3) 0.7832(16) 0.5120(17)
H91 H 0.0253 0.7616 0.5485
C142 C -0.046(3) 0.7961(17) 0.4800(19)
H92 H -0.1048 0.7843 0.4938
C143 C -0.035(4) 0.825(2) 0.431(2)
H93 H -0.0785 0.8307 0.4045
C144 C 0.067(7) 0.850(3) 0.419(3)
H94 H 0.0708 0.8818 0.3883
C145 C 0.134(6) 0.832(4) 0.445(4)
H95 H 0.1965 0.8386 0.4340
C146 C 0.107(4) 0.800(2) 0.492(2)
H96 H 0.1557 0.7876 0.5174
C147 C -0.555(5) 1.716(2) -0.081(3)
H97 H -0.6085 1.6993 -0.0649
C148 C -0.488(4) 1.709(2) -0.051(2)
H98 H -0.5005 1.6885 -0.0148
C149 C -0.398(5) 1.726(3) -0.061(3)
H99 H -0.3494 1.7172 -0.0364
C150 C -0.396(4) 1.757(2) -0.112(3)
H100 H -0.3449 1.7769 -0.1244
C151 C -0.469(4) 1.763(2) -0.152(2)
H101 H -0.4548 1.7791 -0.1887
C152 C -0.558(4) 1.745(2) -0.134(3)
H102 H -0.6103 1.7516 -0.1558
C153 C 0.115(7) 0.614(4) 0.010(3)
H103 H 0.0768 0.5969 -0.0019
C154 C 0.213(6) 0.606(3) 0.018(3)
H104 H 0.2503 0.5885 -0.0020
C155 C 0.265(4) 0.620(4) 0.050(4)
H105 H 0.3305 0.6053 0.0512
C156 C 0.240(10) 0.652(7) 0.079(5)
H106 H 0.2702 0.6564 0.1058
C157 C 0.153(10) 0.674(5) 0.054(6)
H107 H 0.1270 0.7077 0.0553
C158 C 0.096(7) 0.656(4) 0.028(5)
H108 H 0.0344 0.6757 0.0211
loop_
_geom_bond_atom_site_label_1
_geom_bond_atom_site_label_2
_geom_bond_site_symmetry_1
_geom_bond_site_symmetry_2
Ag1 N4 1_555 1_555
Ag2 N1 1_555 1_555
N1 C1 1_555 1_555
C1 C2 1_555 1_555
C2 C3 1_555 1_555
C3 H1 1_555 1_555
C4 C2 1_555 1_555
H2 C4 1_555 1_555
C5 C3 1_555 1_555
H3 C5 1_555 1_555
C6 C4 1_555 1_555
H4 C6 1_555 1_555
C7 C5 1_555 1_555
C8 C7 1_555 1_555
C9 C8 1_555 1_555
C10 C9 1_555 1_555
C11 C10 1_555 1_555
H5 C11 1_555 1_555
C12 C10 1_555 1_555
H6 C12 1_555 1_555
C13 C11 1_555 1_555
H7 C13 1_555 1_555
C14 C12 1_555 1_555
H8 C14 1_555 1_555
C15 C13 1_555 1_555
N2 C16 1_555 1_555
C16 C17 1_555 1_555
C17 C18 1_555 1_555
C18 H9 1_555 1_555
C19 C17 1_555 1_555
H10 C19 1_555 1_555
C20 C18 1_555 1_555
H11 C20 1_555 1_555
C21 C19 1_555 1_555
H12 C21 1_555 1_555
C22 C20 1_555 1_555
C23 C22 1_555 1_555
C24 C23 1_555 1_555
C25 C24 1_555 1_555
C26 C25 1_555 1_555
H13 C26 1_555 1_555
C27 C25 1_555 1_555
H14 C27 1_555 1_555
C28 C26 1_555 1_555
H15 C28 1_555 1_555
C29 C27 1_555 1_555
H16 C29 1_555 1_555
C30 C28 1_555 1_555
N3 C31 1_555 1_555
C31 C32 1_555 1_555
C32 C33 1_555 1_555
C33 H17 1_555 1_555
C34 C32 1_555 1_555
H18 C34 1_555 1_555
C35 C33 1_555 1_555
H19 C35 1_555 1_555
C36 C34 1_555 1_555
H20 C36 1_555 1_555
C37 C35 1_555 1_555
C38 C37 1_555 1_555
C39 C38 1_555 1_555
C40 C39 1_555 1_555
C41 C40 1_555 1_555
H21 C41 1_555 1_555
C42 C40 1_555 1_555
H22 C42 1_555 1_555
C43 C41 1_555 1_555
H23 C43 1_555 1_555
C44 C42 1_555 1_555
H24 C44 1_555 1_555
C45 C43 1_555 1_555
C46 C45 1_555 1_555
C47 C46 1_555 1_555
H25 C47 1_555 1_555
C48 C30 1_555 1_555
C49 C48 1_555 1_555
H26 C49 1_555 1_555
C50 C15 1_555 1_555
C51 C46 1_555 1_555
H27 C51 1_555 1_555
N4 C52 1_555 1_555
C52 C53 1_555 1_555
C53 C54 1_555 1_555
C54 H28 1_555 1_555
C55 C53 1_555 1_555
H29 C55 1_555 1_555
C56 C54 1_555 1_555
H30 C56 1_555 1_555
C57 C55 1_555 1_555
H31 C57 1_555 1_555
C58 C56 1_555 1_555
C59 C58 1_555 1_555
C60 C59 1_555 1_555
C61 C60 1_555 1_555
C62 C61 1_555 1_555
H32 C62 1_555 1_555
C63 C61 1_555 1_555
H33 C63 1_555 1_555
C64 C62 1_555 1_555
H34 C64 1_555 1_555
C65 C63 1_555 1_555
H35 C65 1_555 1_555
C66 C64 1_555 1_555
N5 C67 1_555 1_555
C67 C68 1_555 1_555
C68 C69 1_555 1_555
C69 H36 1_555 1_555
C70 C68 1_555 1_555
H37 C70 1_555 1_555
C71 C69 1_555 1_555
H38 C71 1_555 1_555
C72 C70 1_555 1_555
H39 C72 1_555 1_555
C73 C71 1_555 1_555
C74 C73 1_555 1_555
C75 C74 1_555 1_555
C76 C75 1_555 1_555
C77 C76 1_555 1_555
H40 C77 1_555 1_555
C78 C76 1_555 1_555
H41 C78 1_555 1_555
C79 C77 1_555 1_555
H42 C79 1_555 1_555
C80 C78 1_555 1_555
H43 C80 1_555 1_555
C81 C79 1_555 1_555
N6 C82 1_555 1_555
C82 C83 1_555 1_555
C83 C84 1_555 1_555
C84 H44 1_555 1_555
C85 C83 1_555 1_555
H45 C85 1_555 1_555
C86 C84 1_555 1_555
H46 C86 1_555 1_555
C87 C85 1_555 1_555
H47 C87 1_555 1_555
C88 C86 1_555 1_555
C89 C88 1_555 1_555
C90 C89 1_555 1_555
C91 C90 1_555 1_555
C92 C91 1_555 1_555
H48 C92 1_555 1_555
C93 C91 1_555 1_555
H49 C93 1_555 1_555
C94 C92 1_555 1_555
H50 C94 1_555 1_555
C95 C93 1_555 1_555
H51 C95 1_555 1_555
C96 C94 1_555 1_555
C97 C96 1_555 1_555
C98 C97 1_555 1_555
H52 C98 1_555 1_555
C99 C81 1_555 1_555
C100 C99 1_555 1_555
H53 C100 1_555 1_555
C101 C66 1_555 1_555
C102 C97 1_555 1_555
H54 C102 1_555 1_555
S1 O1 1_555 1_555
O1 Ag1 1_555 1_555
O2 S1 1_555 1_555
O3 S1 1_555 1_555
C103 S1 1_555 1_555
F1 C103 1_555 1_555
F2 C103 1_555 1_555
F3 C103 1_555 1_555
S2 O4 1_555 1_555
O4 Ag2 1_555 1_555
O5 S2 1_555 1_555
O6 S2 1_555 1_555
C104 S2 1_555 1_555
F4 C104 1_555 1_555
F5 C104 1_555 1_555
F6 C104 1_555 1_555
C105 H55 1_555 1_555
C106 C105 1_555 1_555
H56 C106 1_555 1_555
C107 C106 1_555 1_555
H57 C107 1_555 1_555
C108 C107 1_555 1_555
H58 C108 1_555 1_555
C109 C108 1_555 1_555
H59 C109 1_555 1_555
C110 C105 1_555 1_555
H60 C110 1_555 1_555
C111 H61 1_555 1_555
C112 C111 1_555 1_555
H62 C112 1_555 1_555
C113 C112 1_555 1_555
H63 C113 1_555 1_555
C114 C113 1_555 1_555
H64 C114 1_555 1_555
C115 C114 1_555 1_555
H65 C115 1_555 1_555
C116 C111 1_555 1_555
H66 C116 1_555 1_555
C117 H67 1_555 1_555
C118 C117 1_555 1_555
H68 C118 1_555 1_555
C119 C118 1_555 1_555
H69 C119 1_555 1_555
C120 C119 1_555 1_555
H70 C120 1_555 1_555
C121 C120 1_555 1_555
H71 C121 1_555 1_555
C122 C117 1_555 1_555
H72 C122 1_555 1_555
C123 H73 1_555 1_555
C124 C123 1_555 1_555
H74 C124 1_555 1_555
C125 C124 1_555 1_555
H75 C125 1_555 1_555
C126 C125 1_555 1_555
H76 C126 1_555 1_555
C127 C126 1_555 1_555
H77 C127 1_555 1_555
C128 C123 1_555 1_555
H78 C128 1_555 1_555
C129 H79 1_555 1_555
C130 C129 1_555 1_555
H80 C130 1_555 1_555
C131 C130 1_555 1_555
H81 C131 1_555 1_555
C132 C131 1_555 1_555
H82 C132 1_555 1_555
C133 C132 1_555 1_555
H83 C133 1_555 1_555
C134 C129 1_555 1_555
H84 C134 1_555 1_555
C135 H85 1_555 1_555
C136 C135 1_555 1_555
H86 C136 1_555 1_555
C137 C136 1_555 1_555
H87 C137 1_555 1_555
C138 C137 1_555 1_555
H88 C138 1_555 1_555
C139 C138 1_555 1_555
H89 C139 1_555 1_555
C140 C135 1_555 1_555
H90 C140 1_555 1_555
C141 H91 1_555 1_555
C142 C141 1_555 1_555
H92 C142 1_555 1_555
C143 C142 1_555 1_555
H93 C143 1_555 1_555
C144 C143 1_555 1_555
H94 C144 1_555 1_555
C145 C144 1_555 1_555
H95 C145 1_555 1_555
C146 C141 1_555 1_555
H96 C146 1_555 1_555
C147 H97 1_555 1_555
C148 C147 1_555 1_555
H98 C148 1_555 1_555
C149 C148 1_555 1_555
H99 C149 1_555 1_555
C150 C149 1_555 1_555
H100 C150 1_555 1_555
C151 C150 1_555 1_555
H101 C151 1_555 1_555
C152 C147 1_555 1_555
H102 C152 1_555 1_555
C153 H103 1_555 1_555
C154 C153 1_555 1_555
H104 C154 1_555 1_555
C155 C154 1_555 1_555
H105 C155 1_555 1_555
C156 C155 1_555 1_555
H106 C156 1_555 1_555
C157 C156 1_555 1_555
H107 C157 1_555 1_555
C158 C153 1_555 1_555
H108 C158 1_555 1_555
N5_2 Ag1 1_555 1_555
N6_2 Ag1 1_555 1_555
N2_2 Ag2 1_555 1_555
N3_2 Ag2 1_555 1_555
Ag2_2 N2 1_555 1_555
Ag2_3 N3 1_555 1_555
Ag1_2 N5 1_555 1_555
Ag1_3 N6 1_555 1_555
C6 C7 1_555 1_555
C14 C15 1_555 1_555
C21 C22 1_555 1_555
C29 C30 1_555 1_555
C36 C37 1_555 1_555
C44 C45 1_555 1_555
C47 C48 1_555 1_555
C49 C50 1_555 1_555
C50 C51 1_555 1_555
C57 C58 1_555 1_555
C65 C66 1_555 1_555
C72 C73 1_555 1_555
C80 C81 1_555 1_555
C87 C88 1_555 1_555
C95 C96 1_555 1_555
C98 C99 1_555 1_555
C100 C101 1_555 1_555
C101 C102 1_555 1_555
C109 C110 1_555 1_555
C115 C116 1_555 1_555
C121 C122 1_555 1_555
C127 C128 1_555 1_555
C133 C134 1_555 1_555
C139 C140 1_555 1_555
C145 C146 1_555 1_555
C151 C152 1_555 1_555
C157 C158 1_555 1_555

#END
