
#######################################################################
#
#                 Cambridge Crystallographic Data Centre
#                                CCDC 
#
#######################################################################
#
# If this CIF has been generated from an entry in the Cambridge 
# Structural Database, then it will include bibliographic, chemical, 
# crystal, experimental, refinement or atomic coordinate data resulting 
# from the CCDC's data processing and validation procedures.
#
#######################################################################

data_VEQXAS
_symmetry_cell_setting           monoclinic
_symmetry_space_group_name_H-M   'C 2/c'
_symmetry_Int_Tables_number      15
_space_group_name_Hall           '-C 2yn'
loop_
_symmetry_equiv_pos_site_id
_symmetry_equiv_pos_as_xyz
1 x,y,z
2 -x,y,1/2-z
3 1/2+x,1/2+y,z
4 1/2-x,1/2+y,1/2-z
5 -x,-y,-z
6 x,-y,1/2+z
7 1/2-x,1/2-y,-z
8 1/2+x,1/2-y,1/2+z
_cell_length_a                   45.392(7)
_cell_length_b                   8.5806(10)
_cell_length_c                   24.489(4)
_cell_angle_alpha                90
_cell_angle_beta                 109.881(5)
_cell_angle_gamma                90
_cell_volume                     8969.77
loop_
_atom_site_label
_atom_site_type_symbol
_atom_site_fract_x
_atom_site_fract_y
_atom_site_fract_z
C1 C 0.90819(7) 0.5020(4) 1.29814(14)
C2 C 0.91917(8) 0.6569(4) 1.30434(15)
C3 C 0.94735(9) 0.6972(4) 1.34722(16)
H1 H 0.9542 0.7998 1.3496
C4 C 0.96543(9) 0.5890(4) 1.38649(17)
C5 C 0.95441(8) 0.4360(4) 1.38210(15)
H2 H 0.9658 0.3620 1.4086
C6 C 0.92662(8) 0.3915(4) 1.33892(15)
C7 C 0.90027(9) 0.7842(4) 1.26514(16)
H3 H 0.8837 0.8165 1.2785
H4 H 0.8915 0.7453 1.2262
H5 H 0.9136 0.8714 1.2658
C8 C 0.99621(10) 0.6349(5) 1.43137(19)
H6 H 0.9934 0.6497 1.4682
H7 H 1.0035 0.7302 1.4198
H8 H 1.0114 0.5541 1.4348
C9 C 0.91583(8) 0.2240(4) 1.33516(16)
H9 H 0.9130 0.1840 1.2971
H10 H 0.8964 0.2187 1.3424
H11 H 0.9313 0.1629 1.3636
C10 C 0.92425(8) 0.3535(4) 1.16434(14)
C11 C 0.95240(8) 0.4400(4) 1.17479(15)
C12 C 0.98046(8) 0.3654(5) 1.17937(15)
H12 H 0.9986 0.4245 1.1864
C13 C 0.98197(9) 0.2037(5) 1.17357(16)
C14 C 0.95459(9) 0.1191(4) 1.16255(16)
H13 H 0.9551 0.0116 1.1580
C15 C 0.92616(8) 0.1900(4) 1.15807(15)
C16 C 0.95256(9) 0.6155(4) 1.18195(17)
H14 H 0.9706 0.6584 1.1755
H15 H 0.9532 0.6405 1.2206
H16 H 0.9339 0.6586 1.1543
C17 C 1.01267(9) 0.1243(5) 1.18039(19)
H17 H 1.0147 0.1107 1.1429
H18 H 1.0132 0.0244 1.1984
H19 H 1.0296 0.1874 1.2043
C18 C 0.89763(8) 0.0875(4) 1.14435(16)
H20 H 0.9035 -0.0120 1.1628
H21 H 0.8887 0.0733 1.1031
H22 H 0.8825 0.1357 1.1584
C19 C 0.83423(8) 0.4872(4) 1.07210(14)
C20 C 0.82770(8) 0.6478(4) 1.05911(15)
C21 C 0.80245(8) 0.6947(4) 1.01131(15)
H23 H 0.7990 0.8006 1.0037
C22 C 0.78221(8) 0.5878(5) 0.97462(16)
C23 C 0.78787(8) 0.4310(4) 0.98682(15)
H24 H 0.7744 0.3580 0.9629
C24 C 0.81322(8) 0.3790(4) 1.03411(15)
C25 C 0.84887(9) 0.7698(4) 1.09749(16)
H25 H 0.8401 0.8714 1.0859
H26 H 0.8692 0.7640 1.0938
H27 H 0.8507 0.7515 1.1372
C26 C 0.75458(9) 0.6425(5) 0.92314(17)
H28 H 0.7407 0.5565 0.9080
H29 H 0.7620 0.6821 0.8935
H30 H 0.7436 0.7233 0.9354
C27 C 0.81778(9) 0.2054(4) 1.04406(17)
H31 H 0.8360 0.1728 1.0356
H32 H 0.7997 0.1513 1.0191
H33 H 0.8205 0.1820 1.0838
C28 C 0.92651(9) 0.3566(5) 1.02791(16)
H34 H 0.9345 0.3844 0.9976
H35 H 0.9164 0.2569 1.0195
H36 H 0.9435 0.3514 1.0643
C29 C 0.86731(8) 0.4729(4) 0.96358(15)
H37 H 0.8618 0.3633 0.9589
H38 H 0.8490 0.5307 0.9637
C30 C 0.87686(8) 0.5269(4) 0.91256(14)
H39 H 0.8953 0.4698 0.9127
H40 H 0.8822 0.6366 0.9172
C31 C 0.81765(9) 0.6401(5) 0.84733(16)
H41 H 0.8272 0.7414 0.8535
H42 H 0.8105 0.6151 0.8789
H43 H 0.8002 0.6399 0.8116
C32 C 0.81743(8) 0.3941(4) 1.20956(14)
C33 C 0.80830(8) 0.2356(4) 1.20959(15)
C34 C 0.77716(9) 0.1954(5) 1.19951(16)
H44 H 0.7719 0.0909 1.2002
C35 C 0.75377(9) 0.3078(5) 1.18850(16)
C36 C 0.76229(8) 0.4648(5) 1.18896(16)
H45 H 0.7470 0.5414 1.1826
C37 C 0.79327(8) 0.5082(4) 1.19885(15)
C38 C 0.83239(9) 0.1073(4) 1.22362(18)
H46 H 0.8360 0.0702 1.2623
H47 H 0.8249 0.0233 1.1966
H48 H 0.8516 0.1468 1.2209
C39 C 0.71987(9) 0.2613(6) 1.17488(19)
H49 H 0.7106 0.2400 1.1341
H50 H 0.7188 0.1697 1.1966
H51 H 0.7087 0.3448 1.1853
C40 C 0.80096(8) 0.6797(4) 1.19727(16)
H52 H 0.8034 0.7037 1.1608
H53 H 0.7842 0.7412 1.2017
H54 H 0.8201 0.7027 1.2283
S1 S 0.89867(2) 0.50152(10) 1.03247(4)
S2 S 0.845888(19) 0.49747(10) 0.84346(4)
Cu1 Cu 0.900895(9) 0.42780(5) 1.215763(17)
Cu2 Cu 0.881225(9) 0.43534(5) 1.109305(17)
Cu3 Cu 0.861540(9) 0.45388(4) 1.262640(17)
Cu4 Cu 0.841920(9) 0.43453(5) 1.156140(17)
S2E S 0.845888(19) 0.50253(10) 1.34346(4)
Cu3E Cu 0.861540(9) 0.54612(4) 0.762640(17)
C41 C 0.91581(11) -0.0036(5) 0.96273(18)
C42 C 0.89939(14) -0.0803(5) 0.9929(2)
H55 H 0.9103 -0.1361 1.0262
C43 C 0.86704(14) -0.0757(6) 0.9747(2)
H56 H 0.8565 -0.1285 0.9956
C44 C 0.85038(12) 0.0064(5) 0.9258(2)
H57 H 0.8286 0.0095 0.9138
C45 C 0.86613(10) 0.0845(5) 0.89455(18)
H58 H 0.8551 0.1402 0.8613
C46 C 0.89873(10) 0.0786(5) 0.91345(18)
H59 H 0.9093 0.1312 0.8925
C47 C 0.95099(12) -0.0069(6) 0.9831(2)
H60 H 0.9583 0.0633 0.9599
H61 H 0.9580 -0.1106 0.9793
H62 H 0.9592 0.0247 1.0230
loop_
_geom_bond_atom_site_label_1
_geom_bond_atom_site_label_2
_geom_bond_site_symmetry_1
_geom_bond_site_symmetry_2
C1 C2 1_555 1_555
C2 C3 1_555 1_555
C3 H1 1_555 1_555
C4 C3 1_555 1_555
C5 C4 1_555 1_555
H2 C5 1_555 1_555
C6 C1 1_555 1_555
C7 C2 1_555 1_555
H3 C7 1_555 1_555
H4 C7 1_555 1_555
H5 C7 1_555 1_555
C8 C4 1_555 1_555
H6 C8 1_555 1_555
H7 C8 1_555 1_555
H8 C8 1_555 1_555
C9 C6 1_555 1_555
H9 C9 1_555 1_555
H10 C9 1_555 1_555
H11 C9 1_555 1_555
C10 C11 1_555 1_555
C11 C12 1_555 1_555
C12 H12 1_555 1_555
C13 C12 1_555 1_555
C14 C13 1_555 1_555
H13 C14 1_555 1_555
C15 C10 1_555 1_555
C16 C11 1_555 1_555
H14 C16 1_555 1_555
H15 C16 1_555 1_555
H16 C16 1_555 1_555
C17 C13 1_555 1_555
H17 C17 1_555 1_555
H18 C17 1_555 1_555
H19 C17 1_555 1_555
C18 C15 1_555 1_555
H20 C18 1_555 1_555
H21 C18 1_555 1_555
H22 C18 1_555 1_555
C19 C20 1_555 1_555
C20 C21 1_555 1_555
C21 H23 1_555 1_555
C22 C21 1_555 1_555
C23 C22 1_555 1_555
H24 C23 1_555 1_555
C24 C19 1_555 1_555
C25 C20 1_555 1_555
H25 C25 1_555 1_555
H26 C25 1_555 1_555
H27 C25 1_555 1_555
C26 C22 1_555 1_555
H28 C26 1_555 1_555
H29 C26 1_555 1_555
H30 C26 1_555 1_555
C27 C24 1_555 1_555
H31 C27 1_555 1_555
H32 C27 1_555 1_555
H33 C27 1_555 1_555
C28 H34 1_555 1_555
H35 C28 1_555 1_555
H36 C28 1_555 1_555
C29 H37 1_555 1_555
H38 C29 1_555 1_555
C30 C29 1_555 1_555
H39 C30 1_555 1_555
H40 C30 1_555 1_555
C31 H41 1_555 1_555
H42 C31 1_555 1_555
H43 C31 1_555 1_555
C32 C33 1_555 1_555
C33 C34 1_555 1_555
C34 H44 1_555 1_555
C35 C34 1_555 1_555
C36 C35 1_555 1_555
H45 C36 1_555 1_555
C37 C32 1_555 1_555
C38 C33 1_555 1_555
H46 C38 1_555 1_555
H47 C38 1_555 1_555
H48 C38 1_555 1_555
C39 C35 1_555 1_555
H49 C39 1_555 1_555
H50 C39 1_555 1_555
H51 C39 1_555 1_555
C40 C37 1_555 1_555
H52 C40 1_555 1_555
H53 C40 1_555 1_555
H54 C40 1_555 1_555
C41 C42 1_555 1_555
C42 H55 1_555 1_555
C43 C42 1_555 1_555
H56 C43 1_555 1_555
C44 C43 1_555 1_555
H57 C44 1_555 1_555
C45 C44 1_555 1_555
H58 C45 1_555 1_555
C46 C41 1_555 1_555
H59 C46 1_555 1_555
C47 C41 1_555 1_555
H60 C47 1_555 1_555
H61 C47 1_555 1_555
H62 C47 1_555 1_555
S1 C28 1_555 1_555
S2 C30 1_555 1_555
Cu1 C1 1_555 1_555
Cu2 C10 1_555 1_555
Cu3 C1 1_555 1_555
Cu4 C19 1_555 1_555
S2E Cu3 1_555 1_555
Cu3E S2 1_555 1_555
C5 C6 1_555 1_555
C10 Cu1 1_555 1_555
C14 C15 1_555 1_555
C19 Cu2 1_555 1_555
C23 C24 1_555 1_555
C29 S1 1_555 1_555
C31 S2 1_555 1_555
C32 Cu3 1_555 1_555
C32 Cu4 1_555 1_555
C36 C37 1_555 1_555
C45 C46 1_555 1_555
S1 Cu2 1_555 1_555

#END
