
#######################################################################
#
#                 Cambridge Crystallographic Data Centre
#                                CCDC 
#
#######################################################################
#
# If this CIF has been generated from an entry in the Cambridge 
# Structural Database, then it will include bibliographic, chemical, 
# crystal, experimental, refinement or atomic coordinate data resulting 
# from the CCDC's data processing and validation procedures.
#
#######################################################################

data_VEQXIA
_symmetry_cell_setting           orthorhombic
_symmetry_space_group_name_H-M   'P b c a'
_symmetry_Int_Tables_number      61
_space_group_name_Hall           '-P 2ac 2ab'
loop_
_symmetry_equiv_pos_site_id
_symmetry_equiv_pos_as_xyz
1 x,y,z
2 1/2-x,-y,1/2+z
3 1/2+x,1/2-y,-z
4 -x,1/2+y,1/2-z
5 -x,-y,-z
6 1/2+x,y,1/2-z
7 1/2-x,1/2+y,z
8 x,1/2-y,1/2+z
_cell_length_a                   8.8918(15)
_cell_length_b                   10.1881(19)
_cell_length_c                   21.641(4)
_cell_angle_alpha                90
_cell_angle_beta                 90
_cell_angle_gamma                90
_cell_volume                     1960.47
loop_
_atom_site_label
_atom_site_type_symbol
_atom_site_fract_x
_atom_site_fract_y
_atom_site_fract_z
C1 C -0.2354(6) -0.0450(5) -0.18263(19)
H1 H -0.3019 -0.1049 -0.1651
C2 C -0.2138(7) -0.0433(6) -0.2458(2)
H2 H -0.2638 -0.1036 -0.2706
C3 C -0.1188(7) 0.0468(7) -0.2720(2)
H3 H -0.1064 0.0490 -0.3147
C4 C -0.0427(7) 0.1329(6) -0.2356(3)
H4 H 0.0220 0.1936 -0.2536
C5 C -0.0606(5) 0.1312(4) -0.1718(2)
H5 H -0.0071 0.1894 -0.1471
C6 C -0.1587(4) 0.0421(3) -0.14549(16)
C7 C -0.1894(4) -0.1225(3) -0.04172(18)
H6 H -0.1955 -0.1282 0.0029
H7 H -0.2791 -0.1630 -0.0587
C8 C -0.0573(4) -0.1952(3) -0.06287(15)
C9 C 0.0603(5) -0.2324(4) -0.0823(2)
S1 S -0.18483(9) 0.04958(8) -0.06432(4)
Cl1 Cl -0.08073(10) -0.41890(8) 0.06659(4)
Cu1 Cu -0.05375(5) -0.39535(4) -0.05180(2)
H8 H 0.137(6) -0.242(5) -0.095(2)
S1F S -0.31517(9) -0.45042(8) -0.06432(4)
Cl1D Cl 0.08073(10) -0.58110(8) -0.06659(4)
Cu1F Cu -0.44625(5) 0.10465(4) -0.05180(2)
Cu1D Cu 0.05375(5) -0.60465(4) 0.05180(2)
loop_
_geom_bond_atom_site_label_1
_geom_bond_atom_site_label_2
_geom_bond_site_symmetry_1
_geom_bond_site_symmetry_2
C1 H1 1_555 1_555
C2 C1 1_555 1_555
H2 C2 1_555 1_555
C3 C2 1_555 1_555
H3 C3 1_555 1_555
C4 C3 1_555 1_555
H4 C4 1_555 1_555
C5 C4 1_555 1_555
H5 C5 1_555 1_555
C6 C1 1_555 1_555
C7 H6 1_555 1_555
H7 C7 1_555 1_555
C8 C7 1_555 1_555
C9 C8 1_555 1_555
S1 C6 1_555 1_555
Cl1 Cu1 1_555 1_555
Cu1 C8 1_555 1_555
H8 C9 1_555 1_555
S1F Cu1 1_555 1_555
Cl1D Cu1 1_555 1_555
Cu1F S1 1_555 1_555
Cu1D Cl1 1_555 1_555
C5 C6 1_555 1_555
C7 S1 1_555 1_555
C9 Cu1 1_555 1_555
Cl1D Cu1D 1_555 1_555

#END
