
#######################################################################
#
#                 Cambridge Crystallographic Data Centre
#                                CCDC 
#
#######################################################################
#
# If this CIF has been generated from an entry in the Cambridge 
# Structural Database, then it will include bibliographic, chemical, 
# crystal, experimental, refinement or atomic coordinate data resulting 
# from the CCDC's data processing and validation procedures.
#
#######################################################################

data_VEQYEX
_symmetry_cell_setting           monoclinic
_symmetry_space_group_name_H-M   'P 21/c'
_symmetry_Int_Tables_number      14
_space_group_name_Hall           '-P 2ybc'
loop_
_symmetry_equiv_pos_site_id
_symmetry_equiv_pos_as_xyz
1 x,y,z
2 -x,1/2+y,1/2-z
3 -x,-y,-z
4 x,1/2-y,1/2+z
_cell_length_a                   9.7397(8)
_cell_length_b                   16.3895(15)
_cell_length_c                   18.6474(17)
_cell_angle_alpha                90
_cell_angle_beta                 93.2890(10)
_cell_angle_gamma                90
_cell_volume                     2971.76
loop_
_atom_site_label
_atom_site_type_symbol
_atom_site_fract_x
_atom_site_fract_y
_atom_site_fract_z
Sn1 Sn 1.01248(3) 0.688256(19) 0.231776(17)
Cl1 Cl 1.4260(3) 0.43799(13) 0.04876(12)
N1 N 0.9856(4) 0.5053(2) 0.3595(2)
N2 N 1.0482(4) 0.4534(2) 0.31240(19)
O1 O 0.9501(4) 0.6383(2) 0.4330(2)
H1 H 0.9835 0.6094 0.4026
O2 O 1.0903(3) 0.30572(19) 0.27176(17)
O3 O 1.1359(3) 0.5589(2) 0.24797(17)
C1 C 1.3215(6) 0.4000(4) 0.1130(3)
C2 C 1.2659(5) 0.4520(3) 0.1608(3)
H2 H 1.2831 0.5077 0.1579
C3 C 1.1837(4) 0.4223(3) 0.2141(2)
C4 C 1.1618(5) 0.3379(3) 0.2192(3)
C5 C 1.2174(5) 0.2874(3) 0.1671(3)
H3 H 1.2002 0.2316 0.1681
C6 C 1.2961(6) 0.3182(4) 0.1149(3)
H4 H 1.3319 0.2836 0.0811
C7 C 1.1219(4) 0.4851(3) 0.2596(2)
C8 C 0.9068(5) 0.4691(3) 0.4026(2)
H5 H 0.8956 0.4129 0.3989
C9 C 0.8348(4) 0.5125(3) 0.4568(2)
C10 C 0.8607(5) 0.5941(3) 0.4699(3)
C11 C 0.7976(5) 0.6366(4) 0.5246(3)
H6 H 0.8171 0.6914 0.5328
C12 C 0.7081(6) 0.5969(4) 0.5655(3)
H7 H 0.6662 0.6255 0.6013
C13 C 0.6767(5) 0.5141(4) 0.5554(3)
C14 C 0.5829(6) 0.4728(5) 0.5975(3)
H8 H 0.5421 0.5012 0.6338
C15 C 0.5505(6) 0.3933(5) 0.5868(3)
H9 H 0.4883 0.3677 0.6154
C16 C 0.6108(6) 0.3500(4) 0.5326(3)
H10 H 0.5887 0.2954 0.5249
C17 C 0.7024(5) 0.3877(4) 0.4907(3)
H11 H 0.7419 0.3577 0.4549
C18 C 0.7389(5) 0.4701(3) 0.4999(2)
C19 C 1.1478(5) 0.7247(3) 0.3202(3)
H12 H 1.0983 0.7608 0.3509
H13 H 1.1740 0.6766 0.3482
C20 C 1.2772(6) 0.7676(4) 0.2988(3)
H14 H 1.3341 0.7786 0.3421
H15 H 1.3279 0.7303 0.2698
C21 C 1.2577(6) 0.8447(4) 0.2588(3)
H16 H 1.2055 0.8818 0.2872
H17 H 1.2031 0.8337 0.2147
C22 C 1.3894(7) 0.8871(5) 0.2397(4)
H18 H 1.4325 0.9115 0.2821
H19 H 1.3683 0.9286 0.2045
H20 H 1.4508 0.8479 0.2206
C23 C 1.0883(6) 0.7043(3) 0.1269(3)
H21 H 1.0503 0.7547 0.1070
H22 H 1.1873 0.7112 0.1324
C24 C 1.0587(6) 0.6376(3) 0.0728(3)
H23 H 0.9600 0.6339 0.0631
H24 H 1.0898 0.5861 0.0936
C25 C 1.1265(8) 0.6503(4) 0.0024(3)
H25 H 1.0907 0.7000 -0.0197
H26 H 1.2245 0.6578 0.0126
C26 C 1.1057(9) 0.5821(5) -0.0499(4)
H27 H 1.1455 0.5331 -0.0297
H28 H 1.1491 0.5954 -0.0934
H29 H 1.0090 0.5740 -0.0605
C27 C 0.8318(5) 0.6148(3) 0.2261(3)
H30 H 0.8527 0.5620 0.2059
H31 H 0.8014 0.6060 0.2741
C28 C 0.7136(7) 0.6565(5) 0.1786(5)
H32 H 0.6965 0.7098 0.1989
H33 H 0.7467 0.6653 0.1311
C29 C 0.5899(9) 0.6157(6) 0.1707(6)
H34 H 0.5518 0.6081 0.2171
H35 H 0.6031 0.5625 0.1494
C30 C 0.4885(9) 0.6690(6) 0.1201(5)
H36 H 0.4722 0.7204 0.1429
H37 H 0.4030 0.6405 0.1119
H38 H 0.5291 0.6783 0.0751
Sn1A Sn 0.98752(3) 0.188256(19) 0.268224(17)
O2A O 0.9097(3) 0.80572(19) 0.22824(17)
loop_
_geom_bond_atom_site_label_1
_geom_bond_atom_site_label_2
_geom_bond_site_symmetry_1
_geom_bond_site_symmetry_2
Sn1 O3 1_555 1_555
Cl1 C1 1_555 1_555
N1 N2 1_555 1_555
N2 C7 1_555 1_555
O1 H1 1_555 1_555
O2 C4 1_555 1_555
O3 C7 1_555 1_555
C1 C2 1_555 1_555
C2 H2 1_555 1_555
C3 C2 1_555 1_555
C4 C3 1_555 1_555
C5 C4 1_555 1_555
H3 C5 1_555 1_555
C6 C1 1_555 1_555
H4 C6 1_555 1_555
C7 C3 1_555 1_555
C8 N1 1_555 1_555
H5 C8 1_555 1_555
C9 C8 1_555 1_555
C10 O1 1_555 1_555
C11 C10 1_555 1_555
H6 C11 1_555 1_555
C12 C11 1_555 1_555
H7 C12 1_555 1_555
C13 C12 1_555 1_555
C14 C13 1_555 1_555
H8 C14 1_555 1_555
C15 C14 1_555 1_555
H9 C15 1_555 1_555
C16 C15 1_555 1_555
H10 C16 1_555 1_555
C17 C16 1_555 1_555
H11 C17 1_555 1_555
C18 C9 1_555 1_555
C19 Sn1 1_555 1_555
H12 C19 1_555 1_555
H13 C19 1_555 1_555
C20 C19 1_555 1_555
H14 C20 1_555 1_555
H15 C20 1_555 1_555
C21 C20 1_555 1_555
H16 C21 1_555 1_555
H17 C21 1_555 1_555
C22 C21 1_555 1_555
H18 C22 1_555 1_555
H19 C22 1_555 1_555
H20 C22 1_555 1_555
C23 Sn1 1_555 1_555
H21 C23 1_555 1_555
H22 C23 1_555 1_555
C24 C23 1_555 1_555
H23 C24 1_555 1_555
H24 C24 1_555 1_555
C25 C24 1_555 1_555
H25 C25 1_555 1_555
H26 C25 1_555 1_555
C26 C25 1_555 1_555
H27 C26 1_555 1_555
H28 C26 1_555 1_555
H29 C26 1_555 1_555
C27 Sn1 1_555 1_555
H30 C27 1_555 1_555
H31 C27 1_555 1_555
C28 C27 1_555 1_555
H32 C28 1_555 1_555
H33 C28 1_555 1_555
C29 C28 1_555 1_555
H34 C29 1_555 1_555
H35 C29 1_555 1_555
C30 C29 1_555 1_555
H36 C30 1_555 1_555
H37 C30 1_555 1_555
H38 C30 1_555 1_555
Sn1A O2 1_555 1_555
O2A Sn1 1_555 1_555
C5 C6 1_555 1_555
C9 C10 1_555 1_555
C13 C18 1_555 1_555
C17 C18 1_555 1_555

#END
