
#######################################################################
#
#                 Cambridge Crystallographic Data Centre
#                                CCDC 
#
#######################################################################
#
# If this CIF has been generated from an entry in the Cambridge 
# Structural Database, then it will include bibliographic, chemical, 
# crystal, experimental, refinement or atomic coordinate data resulting 
# from the CCDC's data processing and validation procedures.
#
#######################################################################

data_VERPIT
_symmetry_cell_setting           monoclinic
_symmetry_space_group_name_H-M   'C 2/c'
_symmetry_Int_Tables_number      15
_space_group_name_Hall           '-C 2yn'
loop_
_symmetry_equiv_pos_site_id
_symmetry_equiv_pos_as_xyz
1 x,y,z
2 -x,y,1/2-z
3 1/2+x,1/2+y,z
4 1/2-x,1/2+y,1/2-z
5 -x,-y,-z
6 x,-y,1/2+z
7 1/2-x,1/2-y,-z
8 1/2+x,1/2-y,1/2+z
_cell_length_a                   27.6680(14)
_cell_length_b                   12.5270(6)
_cell_length_c                   29.3747(16)
_cell_angle_alpha                90
_cell_angle_beta                 111.282(2)
_cell_angle_gamma                90
_cell_volume                     9486.88
loop_
_atom_site_label
_atom_site_type_symbol
_atom_site_fract_x
_atom_site_fract_y
_atom_site_fract_z
O11 O 0.0266(4) 0.5091(8) 0.3022(4)
H46 H 0.0080 0.4937 0.3183
C41 C 0.0000 0.4741(13) 0.2500
H47 H 0.0256 0.4271 0.2461
H48 H 0.0000 0.5495 0.2500
O11A O -0.0266(4) 0.5091(8) 0.1978(4)
H46A H -0.0080 0.4937 0.1817
H47A H -0.0256 0.4271 0.2539
Mn1 Mn -0.12312(2) -0.14971(4) 0.28772(2)
Mn2 Mn -0.12434(3) -0.17076(6) 0.39756(2)
Mn3 Mn -0.04269(2) -0.31085(5) 0.36705(2)
Mn4 Mn -0.17848(2) -0.43069(5) 0.31804(2)
O1 O -0.09332(10) -0.2040(2) 0.35174(9)
O2 O -0.15416(11) -0.0983(2) 0.22293(9)
O3 O -0.03685(10) -0.2995(2) 0.30439(9)
O4 O -0.15227(12) -0.1362(3) 0.44436(10)
O5 O -0.16742(11) -0.0537(2) 0.30546(10)
O6 O 0.01878(11) -0.3885(2) 0.38512(10)
O7 O -0.06925(12) -0.2372(3) 0.44895(10)
O8 O -0.26525(11) -0.4506(2) 0.28076(10)
H1 H -0.2790 -0.5127 0.2833
H2 H -0.2841 -0.3996 0.2648
O9 O -0.18967(14) -0.5616(3) 0.36131(13)
O10 O -0.07032(14) -0.0098(4) 0.41612(15)
N1 N -0.07517(12) -0.2446(2) 0.26790(11)
N2 N -0.17381(13) -0.0719(3) 0.34939(11)
N3 N -0.03401(13) -0.2977(3) 0.43752(12)
N4 N -0.18027(13) -0.2914(3) 0.27026(11)
N5 N -0.21320(13) -0.2902(3) 0.23013(12)
N6 N -0.24515(16) -0.2881(3) 0.19137(14)
N7 N -0.17948(14) -0.3143(3) 0.37399(12)
N8 N -0.20675(14) -0.3363(3) 0.39647(13)
N9 N -0.23208(16) -0.3582(4) 0.41894(17)
N10 N -0.09251(13) -0.4468(3) 0.35386(13)
N11 N -0.07269(14) -0.5349(3) 0.35972(14)
N12 N -0.05430(18) -0.6187(4) 0.3661(2)
N13 N 0.16976(14) 0.4596(3) 0.24026(14)
N14 N -0.05789(13) -0.0198(3) 0.30105(13)
N15 N -0.17037(14) -0.6964(3) 0.41716(13)
N16 N 0.01384(15) 0.0476(4) 0.43985(16)
C1 C -0.14671(15) -0.1281(3) 0.18238(14)
C2 C -0.17587(16) -0.0783(3) 0.13825(15)
H3 H -0.2002 -0.0246 0.1380
C3 C -0.16994(17) -0.1056(4) 0.09522(15)
H4 H -0.1896 -0.0693 0.0659
C4 C -0.13553(18) -0.1857(4) 0.09400(16)
H5 H -0.1326 -0.2063 0.0640
C5 C -0.10618(17) -0.2340(3) 0.13659(15)
H6 H -0.0820 -0.2874 0.1361
C6 C -0.11076(15) -0.2067(3) 0.18139(14)
C7 C -0.07581(15) -0.2590(3) 0.22474(13)
H7 H -0.0514 -0.3080 0.2207
C8 C -0.19534(16) -0.0831(4) 0.44051(15)
C9 C -0.21324(18) -0.0886(4) 0.47936(16)
H8 H -0.1959 -0.1324 0.5068
C10 C -0.25613(17) -0.0302(4) 0.47778(17)
H9 H -0.2677 -0.0341 0.5045
C11 C -0.28255(18) 0.0335(4) 0.43855(17)
H10 H -0.3117 0.0740 0.4383
C12 C -0.26611(17) 0.0377(3) 0.39939(17)
H11 H -0.2841 0.0819 0.3722
C13 C -0.22352(15) -0.0220(3) 0.39909(15)
C14 C -0.21032(15) -0.0172(3) 0.35594(14)
H12 H -0.2299 0.0297 0.3305
C15 C 0.04589(15) -0.4384(3) 0.42672(15)
C16 C 0.08182(16) -0.5159(4) 0.42613(17)
H13 H 0.0863 -0.5328 0.3964
C17 C 0.11099(17) -0.5683(4) 0.46874(19)
H14 H 0.1351 -0.6214 0.4678
C18 C 0.10557(18) -0.5446(5) 0.51263(19)
H15 H 0.1261 -0.5803 0.5418
C19 C 0.07057(18) -0.4696(5) 0.51353(18)
H16 H 0.0671 -0.4531 0.5438
C20 C 0.03933(16) -0.4156(4) 0.47127(16)
C21 C 0.00034(17) -0.3428(5) 0.47454(15)
H17 H 0.0000 -0.3271 0.5061
C22 C 0.19541(18) 0.3675(4) 0.25582(17)
H18 H 0.2177 0.3422 0.2401
C23 C 0.19089(19) 0.3078(4) 0.29366(18)
H19 H 0.2098 0.2431 0.3031
C24 C 0.15914(17) 0.3416(3) 0.31776(16)
C25 C 0.1321(2) 0.4348(3) 0.30076(19)
H20 H 0.1088 0.4608 0.3154
C26 C 0.1382(2) 0.4903(4) 0.2632(2)
H21 H 0.1190 0.5544 0.2528
C27 C 0.15472(18) 0.2817(3) 0.36090(17)
H22 H 0.1442 0.3326 0.3814
H23 H 0.1893 0.2532 0.3809
C28 C 0.11565(17) 0.1889(3) 0.34647(19)
H24 H 0.1229 0.1437 0.3220
H25 H 0.1206 0.1444 0.3757
C29 C 0.05938(18) 0.2263(3) 0.3253(2)
H26 H 0.0538 0.2793 0.3479
H27 H 0.0537 0.2631 0.2940
C30 C -0.06953(18) 0.0846(3) 0.2971(2)
H28 H -0.1048 0.1045 0.2887
C31 C -0.03326(19) 0.1646(3) 0.3046(2)
H29 H -0.0438 0.2372 0.3016
C32 C 0.01891(17) 0.1389(3) 0.31638(17)
C33 C 0.03108(17) 0.0312(3) 0.31982(16)
H30 H 0.0660 0.0090 0.3274
C34 C -0.00777(16) -0.0439(3) 0.31218(15)
H31 H 0.0017 -0.1171 0.3150
C35 C -0.1734(3) -0.6391(5) 0.3795(2)
H32 H -0.1560 -0.6746 0.3612
C36 C -0.1918(3) -0.6649(9) 0.4519(3)
H33 H -0.2156 -0.6049 0.4390
H34 H -0.1640 -0.6430 0.4821
H35 H -0.2109 -0.7249 0.4588
C37 C -0.1413(3) -0.7906(6) 0.4260(4)
H36 H -0.1320 -0.8072 0.3976
H37 H -0.1618 -0.8492 0.4316
H38 H -0.1096 -0.7813 0.4548
C38 C -0.0233(2) -0.0364(6) 0.4297(3)
H39 H -0.0131 -0.1092 0.4331
C39 C -0.0018(4) 0.1486(6) 0.4447(4)
H40 H -0.0340 0.1458 0.4513
H41 H -0.0077 0.1884 0.4144
H42 H 0.0252 0.1844 0.4718
C40 C 0.0669(3) 0.0112(8) 0.4556(4)
H43 H 0.0674 -0.0656 0.4494
H44 H 0.0842 0.0250 0.4906
H45 H 0.0851 0.0495 0.4375
Mn1A Mn 0.12312(2) 0.85029(4) 0.21228(2)
Mn1A_2 Mn 0.12312(2) -1.14971(4) 0.21228(2)
Mn2A Mn 0.12434(3) 0.82924(6) 0.10244(2)
Mn3A Mn 0.04269(2) 0.68915(5) 0.13295(2)
Mn4A Mn 0.17848(2) 0.56931(5) 0.18196(2)
O1A O 0.09332(10) 0.7960(2) 0.14826(9)
O2A O 0.15416(11) 0.9017(2) 0.27707(9)
O3A O 0.03685(10) 0.7005(2) 0.19561(9)
O4A O 0.15227(12) 0.8638(3) 0.05564(10)
O5A O 0.16742(11) 0.9463(2) 0.19454(10)
O6A O -0.01878(11) 0.6115(2) 0.11488(10)
O7A O 0.06925(12) 0.7628(3) 0.05105(10)
O8A O 0.26525(11) 0.5494(2) 0.21924(10)
H1A H 0.2790 0.4873 0.2167
H2A H 0.2841 0.6004 0.2352
O9A O 0.18967(14) 0.4384(3) 0.13869(13)
O10A O 0.07032(14) 0.9902(4) 0.08388(15)
N1A N 0.07517(12) 0.7554(2) 0.23210(11)
N2A N 0.17381(13) 0.9281(3) 0.15061(11)
N3A N 0.03401(13) 0.7023(3) 0.06248(12)
N4A N 0.18027(13) 0.7086(3) 0.22974(11)
N5A N 0.21320(13) 0.7098(3) 0.26987(12)
N6A N 0.24515(16) 0.7119(3) 0.30863(14)
N7A N 0.17948(14) 0.6857(3) 0.12601(12)
N8A N 0.20675(14) 0.6637(3) 0.10353(13)
N9A N 0.23208(16) 0.6418(4) 0.08106(17)
N10A N 0.09251(13) 0.5532(3) 0.14614(13)
N11A N 0.07269(14) 0.4651(3) 0.14028(14)
N12A N 0.05430(18) 0.3813(4) 0.1339(2)
N13A N -0.16976(14) -0.5404(3) 0.25974(14)
N14A N 0.05789(13) -1.0198(3) 0.19895(13)
N14A_2 N 0.05789(13) 0.9802(3) 0.19895(13)
N15A N 0.17037(14) 0.3036(3) 0.08284(13)
N16A N -0.01384(15) 1.0476(4) 0.06015(16)
C1A C 0.14671(15) 0.8719(3) 0.31762(14)
C2A C 0.17587(16) 0.9217(3) 0.36175(15)
H3A H 0.2002 0.9754 0.3620
C3A C 0.16994(17) 0.8944(4) 0.40478(15)
H4A H 0.1896 0.9307 0.4341
C4A C 0.13553(18) 0.8143(4) 0.40600(16)
H5A H 0.1326 0.7937 0.4360
C5A C 0.10618(17) 0.7660(3) 0.36341(15)
H6A H 0.0820 0.7126 0.3639
C6A C 0.11076(15) 0.7933(3) 0.31861(14)
C7A C 0.07581(15) 0.7410(3) 0.27526(13)
H7A H 0.0514 0.6920 0.2793
C8A C 0.19534(16) 0.9169(4) 0.05949(15)
C9A C 0.21324(18) 0.9114(4) 0.02064(16)
H8A H 0.1959 0.8676 -0.0068
C10A C 0.25613(17) 0.9698(4) 0.02222(17)
H9A H 0.2677 0.9659 -0.0045
C11A C 0.28255(18) 1.0335(4) 0.06145(17)
H10A H 0.3117 1.0740 0.0617
C12A C 0.26611(17) 1.0377(3) 0.10061(17)
H11A H 0.2841 1.0819 0.1278
C13A C 0.22352(15) 0.9780(3) 0.10091(15)
C14A C 0.21032(15) 0.9828(3) 0.14406(14)
H12A H 0.2299 1.0297 0.1695
C15A C -0.04589(15) 0.5616(3) 0.07328(15)
C16A C -0.08182(16) 0.4841(4) 0.07387(17)
H13A H -0.0863 0.4672 0.1036
C17A C -0.11099(17) 0.4317(4) 0.03126(19)
H14A H -0.1351 0.3786 0.0322
C18A C -0.10557(18) 0.4554(5) -0.01263(19)
H15A H -0.1261 0.4197 -0.0418
C19A C -0.07057(18) 0.5304(5) -0.01353(18)
H16A H -0.0671 0.5469 -0.0438
C20A C -0.03933(16) 0.5844(4) 0.02873(16)
C21A C -0.00034(17) 0.6572(5) 0.02546(15)
H17A H 0.0000 0.6729 -0.0061
C22A C -0.19541(18) -0.6325(4) 0.24418(17)
H18A H -0.2177 -0.6578 0.2599
C23A C -0.19089(19) -0.6922(4) 0.20634(18)
H19A H -0.2098 -0.7569 0.1969
C24A C -0.15914(17) -0.6584(3) 0.18224(16)
C25A C -0.1321(2) -0.5652(3) 0.19924(19)
H20A H -0.1088 -0.5392 0.1846
C26A C -0.1382(2) -0.5097(4) 0.2368(2)
H21A H -0.1190 -0.4456 0.2472
C27A C -0.15472(18) -0.7183(3) 0.13910(17)
H22A H -0.1442 -0.6674 0.1186
H23A H -0.1893 -0.7468 0.1191
C28A C -0.11565(17) -0.8111(3) 0.15353(19)
H24A H -0.1229 -0.8563 0.1780
H25A H -0.1206 -0.8556 0.1243
C29A C -0.05938(18) -0.7737(3) 0.1747(2)
H26A H -0.0538 -0.7207 0.1521
H27A H -0.0537 -0.7369 0.2060
C30A C 0.06953(18) -0.9154(3) 0.2029(2)
H28A H 0.1048 -0.8955 0.2113
C31A C 0.03326(19) -0.8354(3) 0.1954(2)
H29A H 0.0438 -0.7628 0.1984
C32A C -0.01891(17) -0.8611(3) 0.18362(17)
C33A C -0.03108(17) -0.9688(3) 0.18018(16)
H30A H -0.0660 -0.9910 0.1726
C34A C 0.00777(16) -1.0439(3) 0.18782(15)
H31A H -0.0017 -1.1171 0.1850
C35A C 0.1734(3) 0.3609(5) 0.1205(2)
H32A H 0.1560 0.3254 0.1388
C36A C 0.1918(3) 0.3351(9) 0.0481(3)
H33A H 0.2156 0.3951 0.0610
H34A H 0.1640 0.3570 0.0179
H35A H 0.2109 0.2751 0.0412
C37A C 0.1413(3) 0.2094(6) 0.0740(4)
H36A H 0.1320 0.1928 0.1024
H37A H 0.1618 0.1508 0.0684
H38A H 0.1096 0.2187 0.0452
C38A C 0.0233(2) 0.9636(6) 0.0703(3)
H39A H 0.0131 0.8908 0.0669
C39A C 0.0018(4) 1.1486(6) 0.0553(4)
H40A H 0.0340 1.1458 0.0487
H41A H 0.0077 1.1884 0.0856
H42A H -0.0252 1.1844 0.0282
C40A C -0.0669(3) 1.0112(8) 0.0444(4)
H43A H -0.0674 0.9344 0.0506
H44A H -0.0842 1.0250 0.0094
H45A H -0.0851 1.0495 0.0625
C42? C 0.0387(3) 1.0671(8) 0.0848(4)
C43? C -0.0470(5) 1.1406(10) 0.0623(4)
C44? C -0.0394(6) 0.9603(9) 0.0373(5)
H49? H 0.0509 1.1325 0.1014
H50? H -0.0252 1.2041 0.0736
H51? H -0.0646 1.1246 0.0851
H52? H -0.0729 1.1540 0.0297
H53? H -0.0256 0.8974 0.0577
H54? H -0.0348 0.9519 0.0060
H55? H -0.0764 0.9680 0.0316
loop_
_geom_bond_atom_site_label_1
_geom_bond_atom_site_label_2
_geom_bond_site_symmetry_1
_geom_bond_site_symmetry_2
Mn1 O1 1_555 1_555
Mn2 O1 1_555 1_555
Mn3 O1 1_555 1_555
Mn4 O8 1_555 1_555
O2 Mn1 1_555 1_555
O3 Mn3 1_555 1_555
O4 Mn2 1_555 1_555
O5 Mn1 1_555 1_555
O6 Mn3 1_555 1_555
O7 Mn2 1_555 1_555
O8 H1 1_555 1_555
H2 O8 1_555 1_555
O9 Mn4 1_555 1_555
O10 Mn2 1_555 1_555
N1 Mn1 1_555 1_555
N2 Mn2 1_555 1_555
N3 Mn3 1_555 1_555
N4 Mn1 1_555 1_555
N5 N4 1_555 1_555
N6 N5 1_555 1_555
N7 Mn2 1_555 1_555
N8 N7 1_555 1_555
N9 N8 1_555 1_555
N10 Mn3 1_555 1_555
N11 N10 1_555 1_555
N12 N11 1_555 1_555
N13 C22 1_555 1_555
N14 Mn1 1_555 1_555
N15 C35 1_555 1_555
N16 C38 1_555 1_555
C1 O2 1_555 1_555
C2 C1 1_555 1_555
H3 C2 1_555 1_555
C3 C2 1_555 1_555
H4 C3 1_555 1_555
C4 C3 1_555 1_555
H5 C4 1_555 1_555
C5 C4 1_555 1_555
H6 C5 1_555 1_555
C6 C1 1_555 1_555
C7 N1 1_555 1_555
H7 C7 1_555 1_555
C8 O4 1_555 1_555
C9 C8 1_555 1_555
H8 C9 1_555 1_555
C10 C9 1_555 1_555
H9 C10 1_555 1_555
C11 C10 1_555 1_555
H10 C11 1_555 1_555
C12 C11 1_555 1_555
H11 C12 1_555 1_555
C13 C8 1_555 1_555
C14 N2 1_555 1_555
H12 C14 1_555 1_555
C15 O6 1_555 1_555
C16 C15 1_555 1_555
H13 C16 1_555 1_555
C17 C16 1_555 1_555
H14 C17 1_555 1_555
C18 C17 1_555 1_555
H15 C18 1_555 1_555
C19 C18 1_555 1_555
H16 C19 1_555 1_555
C20 C15 1_555 1_555
C21 N3 1_555 1_555
H17 C21 1_555 1_555
C22 H18 1_555 1_555
C23 C22 1_555 1_555
H19 C23 1_555 1_555
C24 C23 1_555 1_555
C25 C24 1_555 1_555
H20 C25 1_555 1_555
C26 N13 1_555 1_555
H21 C26 1_555 1_555
C27 C24 1_555 1_555
H22 C27 1_555 1_555
H23 C27 1_555 1_555
C28 C27 1_555 1_555
H24 C28 1_555 1_555
H25 C28 1_555 1_555
C29 C28 1_555 1_555
H26 C29 1_555 1_555
H27 C29 1_555 1_555
C30 N14 1_555 1_555
H28 C30 1_555 1_555
C31 C30 1_555 1_555
H29 C31 1_555 1_555
C32 C29 1_555 1_555
C33 C32 1_555 1_555
H30 C33 1_555 1_555
C34 N14 1_555 1_555
H31 C34 1_555 1_555
C35 O9 1_555 1_555
H32 C35 1_555 1_555
C36 N15 1_555 1_555
H33 C36 1_555 1_555
H34 C36 1_555 1_555
H35 C36 1_555 1_555
C37 N15 1_555 1_555
H36 C37 1_555 1_555
H37 C37 1_555 1_555
H38 C37 1_555 1_555
C38 O10 1_555 1_555
H39 C38 1_555 1_555
C39 N16 1_555 1_555
H40 C39 1_555 1_555
H41 C39 1_555 1_555
H42 C39 1_555 1_555
C40 N16 1_555 1_555
H43 C40 1_555 1_555
H44 C40 1_555 1_555
H45 C40 1_555 1_555
O11 H46 1_555 1_555
C41 O11 1_555 1_555
H47 C41 1_555 1_555
H48 C41 1_555 1_555
Mn1A O1A 1_555 1_555
Mn1A_2 N14A 1_555 1_555
Mn2A O1A 1_555 1_555
Mn3A O1A 1_555 1_555
Mn4A N13 1_555 1_555
O2A Mn1A 1_555 1_555
O3A Mn3A 1_555 1_555
O4A Mn2A 1_555 1_555
O5A Mn1A 1_555 1_555
O6A Mn3A 1_555 1_555
O7A Mn2A 1_555 1_555
O8A Mn4A 1_555 1_555
H1A O8A 1_555 1_555
H2A O8A 1_555 1_555
O9A Mn4A 1_555 1_555
O10A Mn2A 1_555 1_555
N1A Mn1A 1_555 1_555
N2A Mn2A 1_555 1_555
N3A Mn3A 1_555 1_555
N4A Mn1A 1_555 1_555
N5A N4A 1_555 1_555
N6A N5A 1_555 1_555
N7A Mn2A 1_555 1_555
N8A N7A 1_555 1_555
N9A N8A 1_555 1_555
N10A Mn3A 1_555 1_555
N11A N10A 1_555 1_555
N12A N11A 1_555 1_555
N13A Mn4 1_555 1_555
N14A C30A 1_555 1_555
N14A_2 Mn1A 1_555 1_555
N15A C35A 1_555 1_555
N16A C38A 1_555 1_555
C1A O2A 1_555 1_555
C2A C1A 1_555 1_555
H3A C2A 1_555 1_555
C3A C2A 1_555 1_555
H4A C3A 1_555 1_555
C4A C3A 1_555 1_555
H5A C4A 1_555 1_555
C5A C4A 1_555 1_555
H6A C5A 1_555 1_555
C6A C1A 1_555 1_555
C7A N1A 1_555 1_555
H7A C7A 1_555 1_555
C8A O4A 1_555 1_555
C9A C8A 1_555 1_555
H8A C9A 1_555 1_555
C10A C9A 1_555 1_555
H9A C10A 1_555 1_555
C11A C10A 1_555 1_555
H10A C11A 1_555 1_555
C12A C11A 1_555 1_555
H11A C12A 1_555 1_555
C13A C8A 1_555 1_555
C14A N2A 1_555 1_555
H12A C14A 1_555 1_555
C15A O6A 1_555 1_555
C16A C15A 1_555 1_555
H13A C16A 1_555 1_555
C17A C16A 1_555 1_555
H14A C17A 1_555 1_555
C18A C17A 1_555 1_555
H15A C18A 1_555 1_555
C19A C18A 1_555 1_555
H16A C19A 1_555 1_555
C20A C15A 1_555 1_555
C21A N3A 1_555 1_555
H17A C21A 1_555 1_555
C22A N13A 1_555 1_555
H18A C22A 1_555 1_555
C23A C22A 1_555 1_555
H19A C23A 1_555 1_555
C24A C23A 1_555 1_555
C25A C24A 1_555 1_555
H20A C25A 1_555 1_555
C26A N13A 1_555 1_555
H21A C26A 1_555 1_555
C27A C24A 1_555 1_555
H22A C27A 1_555 1_555
H23A C27A 1_555 1_555
C28A C27A 1_555 1_555
H24A C28A 1_555 1_555
H25A C28A 1_555 1_555
C29A C28A 1_555 1_555
H26A C29A 1_555 1_555
H27A C29A 1_555 1_555
C30A H28A 1_555 1_555
C31A C30A 1_555 1_555
H29A C31A 1_555 1_555
C32A C29A 1_555 1_555
C33A C32A 1_555 1_555
H30A C33A 1_555 1_555
C34A N14A 1_555 1_555
H31A C34A 1_555 1_555
C35A O9A 1_555 1_555
H32A C35A 1_555 1_555
C36A N15A 1_555 1_555
H33A C36A 1_555 1_555
H34A C36A 1_555 1_555
H35A C36A 1_555 1_555
C37A N15A 1_555 1_555
H36A C37A 1_555 1_555
H37A C37A 1_555 1_555
H38A C37A 1_555 1_555
C38A O10A 1_555 1_555
H39A C38A 1_555 1_555
C39A N16A 1_555 1_555
H40A C39A 1_555 1_555
H41A C39A 1_555 1_555
H42A C39A 1_555 1_555
C40A N16A 1_555 1_555
H43A C40A 1_555 1_555
H44A C40A 1_555 1_555
H45A C40A 1_555 1_555
O11A C41 1_555 1_555
H46A O11A 1_555 1_555
H47A C41 1_555 1_555
Mn4 N4 1_555 1_555
Mn4 N7 1_555 1_555
Mn4 N10 1_555 1_555
O3 N1 1_555 1_555
O5 N2 1_555 1_555
O7 N3 1_555 1_555
C5 C6 1_555 1_555
C6 C7 1_555 1_555
C12 C13 1_555 1_555
C13 C14 1_555 1_555
C19 C20 1_555 1_555
C20 C21 1_555 1_555
C25 C26 1_555 1_555
C31 C32 1_555 1_555
C33 C34 1_555 1_555
Mn4A N4A 1_555 1_555
Mn4A N7A 1_555 1_555
Mn4A N10A 1_555 1_555
O3A N1A 1_555 1_555
O5A N2A 1_555 1_555
O7A N3A 1_555 1_555
C5A C6A 1_555 1_555
C6A C7A 1_555 1_555
C12A C13A 1_555 1_555
C13A C14A 1_555 1_555
C19A C20A 1_555 1_555
C20A C21A 1_555 1_555
C25A C26A 1_555 1_555
C31A C32A 1_555 1_555
C33A C34A 1_555 1_555

#END
