
#######################################################################
#
#                 Cambridge Crystallographic Data Centre
#                                CCDC 
#
#######################################################################
#
# If this CIF has been generated from an entry in the Cambridge 
# Structural Database, then it will include bibliographic, chemical, 
# crystal, experimental, refinement or atomic coordinate data resulting 
# from the CCDC's data processing and validation procedures.
#
#######################################################################

data_VERQOA01
_symmetry_cell_setting           rhombohedral
_symmetry_space_group_name_H-M   'R -3'
_symmetry_Int_Tables_number      148
_space_group_name_Hall           '-R 3'
loop_
_symmetry_equiv_pos_site_id
_symmetry_equiv_pos_as_xyz
1 x,y,z
2 -y,x-y,z
3 -x+y,-x,z
4 2/3+x,1/3+y,1/3+z
5 2/3-y,1/3+x-y,1/3+z
6 2/3-x+y,1/3-x,1/3+z
7 1/3+x,2/3+y,2/3+z
8 1/3-y,2/3+x-y,2/3+z
9 1/3-x+y,2/3-x,2/3+z
10 -x,-y,-z
11 y,-x+y,-z
12 x-y,x,-z
13 1/3-x,2/3-y,2/3-z
14 1/3+y,2/3-x+y,2/3-z
15 1/3+x-y,2/3+x,2/3-z
16 2/3-x,1/3-y,1/3-z
17 2/3+y,1/3-x+y,1/3-z
18 2/3+x-y,1/3+x,1/3-z
_cell_length_a                   8.6386(4)
_cell_length_b                   8.6386(4)
_cell_length_c                   23.807(2)
_cell_angle_alpha                90
_cell_angle_beta                 90
_cell_angle_gamma                120
_cell_volume                     1538.59
loop_
_atom_site_label
_atom_site_type_symbol
_atom_site_fract_x
_atom_site_fract_y
_atom_site_fract_z
Sm1 Sm 0.6667 0.3333 0.140202(14)
N1 N 0.3694(5) 0.0982(5) 0.11770(15)
N2 N 0.4528(5) 0.0686(5) 0.07518(16)
N3 N 0.1980(5) -0.0260(5) 0.11932(16)
C1 C 0.3278(6) -0.0794(6) 0.0482(2)
C2 C 0.1688(6) -0.1382(6) 0.0766(2)
H1 H 0.052(8) -0.245(8) 0.068(3)
H2 H 0.363(10) -0.124(10) 0.020(4)
Sm1O Sm -0.0000 0.0000 0.193131(14)
Sm1Q Sm 1.0001 1.0000 0.193131(14)
N1O N 0.2973(5) 0.2351(5) 0.21563(15)
N1Q N 0.9379(7) 0.7027(5) 0.21563(15)
N1A N 0.9018(5) 0.2712(7) 0.11770(15)
N1B N 0.7288(7) 0.6306(5) 0.11770(15)
N2O N 0.2139(5) 0.2647(5) 0.25815(16)
N2Q N 1.0509(7) 0.7861(5) 0.25815(16)
N2A N 0.9314(5) 0.3842(7) 0.07518(16)
N2B N 0.6158(7) 0.5472(5) 0.07518(16)
N3O N 0.4687(5) 0.3593(5) 0.21401(16)
N3Q N 0.8907(7) 0.5313(5) 0.21401(16)
N3P N 0.6407(5) 0.1093(7) 0.21401(16)
C1O C 0.3389(6) 0.4127(6) 0.2851(2)
C1Q C 1.0739(8) 0.6611(6) 0.2851(2)
C2O C 0.4979(6) 0.4715(6) 0.2567(2)
C2Q C 0.9737(8) 0.5021(6) 0.2567(2)
H1O H 0.615(8) 0.578(8) 0.265(3)
H1Q H 0.964(11) 0.385(8) 0.265(3)
H2O H 0.304(10) 0.457(10) 0.313(4)
H2Q H 1.154(14) 0.696(10) 0.313(4)
loop_
_geom_bond_atom_site_label_1
_geom_bond_atom_site_label_2
_geom_bond_site_symmetry_1
_geom_bond_site_symmetry_2
Sm1 N1 1_555 1_555
N1 N2 1_555 1_555
N2 Sm1 1_555 1_555
N3 N1 1_555 1_555
C1 N2 1_555 1_555
C2 N3 1_555 1_555
H1 C2 1_555 1_555
H2 C1 1_555 1_555
Sm1O N3 1_555 1_555
Sm1Q N1Q 1_555 1_555
N1O Sm1O 1_555 1_555
N1Q N2Q 1_555 1_555
N1A Sm1 1_555 1_555
N1B Sm1 1_555 1_555
N2O Sm1O 1_555 1_555
N2Q Sm1Q 1_555 1_555
N2A Sm1 1_555 1_555
N2B Sm1 1_555 1_555
N3O Sm1 1_555 1_555
N3Q Sm1 1_555 1_555
N3P Sm1 1_555 1_555
C1O N2O 1_555 1_555
C1Q N2Q 1_555 1_555
C2O N3O 1_555 1_555
C2Q N3Q 1_555 1_555
H1O C2O 1_555 1_555
H1Q C2Q 1_555 1_555
H2O C1O 1_555 1_555
H2Q C1Q 1_555 1_555
C1 C2 1_555 1_555
N1O N2O 1_555 1_555
N1O N3O 1_555 1_555
N1Q N3Q 1_555 1_555
N1A N2A 1_555 1_555
N1B N2B 1_555 1_555
C1O C2O 1_555 1_555
C1Q C2Q 1_555 1_555

#END
