
#######################################################################
#
#                 Cambridge Crystallographic Data Centre
#                                CCDC 
#
#######################################################################
#
# If this CIF has been generated from an entry in the Cambridge 
# Structural Database, then it will include bibliographic, chemical, 
# crystal, experimental, refinement or atomic coordinate data resulting 
# from the CCDC's data processing and validation procedures.
#
#######################################################################

data_VERQAL
_symmetry_cell_setting           orthorhombic
_symmetry_space_group_name_H-M   'P b c a'
_symmetry_Int_Tables_number      61
_space_group_name_Hall           '-P 2ac 2ab'
loop_
_symmetry_equiv_pos_site_id
_symmetry_equiv_pos_as_xyz
1 x,y,z
2 1/2-x,-y,1/2+z
3 -x,1/2+y,1/2-z
4 1/2+x,1/2-y,-z
5 -x,-y,-z
6 1/2+x,y,1/2-z
7 x,1/2-y,1/2+z
8 1/2-x,1/2+y,z
_cell_length_a                   12.3650(11)
_cell_length_b                   7.8430(7)
_cell_length_c                   28.896(3)
_cell_angle_alpha                90
_cell_angle_beta                 90
_cell_angle_gamma                90
_cell_volume                     2802.3
loop_
_atom_site_label
_atom_site_type_symbol
_atom_site_fract_x
_atom_site_fract_y
_atom_site_fract_z
Cu1 Cu 0.41778(4) 0.52497(7) 0.653426(17)
Cu2 Cu 0.49740(4) 0.67700(7) 0.562909(18)
N1 N 0.5655(2) 0.4645(4) 0.63366(10)
N2 N 0.6029(2) 0.5472(4) 0.59537(10)
N3 N 0.6086(3) 0.0872(4) 0.77662(11)
N4 N 0.9091(3) 0.7401(4) 0.48663(11)
N5 N 0.2772(3) 0.4509(5) 0.63265(13)
S1 S 0.06127(8) 0.34488(13) 0.63392(4)
C1 C 0.5382(3) 0.2059(5) 0.70638(13)
H1 H 0.4795 0.2179 0.6865
C2 C 0.5281(3) 0.1123(5) 0.74644(13)
H2 H 0.4613 0.0634 0.7529
C3 C 0.7038(3) 0.1568(5) 0.76526(13)
H3 H 0.7619 0.1389 0.7851
C4 C 0.7212(3) 0.2528(5) 0.72630(13)
H4 H 0.7893 0.2978 0.7203
C5 C 0.6363(3) 0.2824(4) 0.69576(12)
C6 C 0.6509(3) 0.3887(5) 0.65449(12)
C7 C 0.7446(3) 0.4256(4) 0.63034(12)
H5 H 0.8147 0.3917 0.6375
C8 C 0.7115(3) 0.5240(4) 0.59313(12)
C9 C 0.7777(3) 0.5972(5) 0.55584(12)
C10 C 0.8883(3) 0.6187(5) 0.56222(13)
H6 H 0.9208 0.5847 0.5897
C11 C 0.9492(3) 0.6904(5) 0.52764(14)
H7 H 1.0228 0.7054 0.5329
C12 C 0.8019(3) 0.7185(5) 0.48046(14)
H8 H 0.7714 0.7529 0.4526
C13 C 0.7353(3) 0.6476(5) 0.51360(13)
H9 H 0.6620 0.6337 0.5076
C14 C 0.1879(3) 0.4088(5) 0.63264(14)
Cu1B Cu 0.58222(4) 0.02497(7) 0.846574(17)
Cu1G Cu 0.08222(4) 0.02497(7) 0.653426(17)
Cu2C Cu 0.99740(4) 0.82300(7) 0.437091(18)
Cu2G Cu 0.00260(4) 0.17700(7) 0.562909(18)
N3B N 0.3914(3) 0.5872(4) 0.72338(11)
N4C N 0.4091(3) 0.7599(4) 0.51337(11)
S1G S 0.43873(8) 0.84488(13) 0.63392(4)
loop_
_geom_bond_atom_site_label_1
_geom_bond_atom_site_label_2
_geom_bond_site_symmetry_1
_geom_bond_site_symmetry_2
Cu1 N1 1_555 1_555
Cu2 N2 1_555 1_555
N1 N2 1_555 1_555
N2 C8 1_555 1_555
N3 C2 1_555 1_555
N4 C11 1_555 1_555
N5 Cu1 1_555 1_555
S1 C14 1_555 1_555
C1 H1 1_555 1_555
C2 C1 1_555 1_555
H2 C2 1_555 1_555
C3 N3 1_555 1_555
H3 C3 1_555 1_555
C4 C3 1_555 1_555
H4 C4 1_555 1_555
C5 C1 1_555 1_555
C6 N1 1_555 1_555
C7 C6 1_555 1_555
H5 C7 1_555 1_555
C8 C7 1_555 1_555
C9 C8 1_555 1_555
C10 C9 1_555 1_555
H6 C10 1_555 1_555
C11 C10 1_555 1_555
H7 C11 1_555 1_555
C12 N4 1_555 1_555
H8 C12 1_555 1_555
C13 C9 1_555 1_555
H9 C13 1_555 1_555
C14 N5 1_555 1_555
Cu1B N3 1_555 1_555
Cu1G S1 1_555 1_555
Cu2C N4 1_555 1_555
Cu2G S1 1_555 1_555
N3B Cu1 1_555 1_555
N4C Cu2 1_555 1_555
S1G Cu1 1_555 1_555
Cu2 S1G 1_555 1_555
C4 C5 1_555 1_555
C5 C6 1_555 1_555
C12 C13 1_555 1_555

#END
