
#######################################################################
#
#                 Cambridge Crystallographic Data Centre
#                                CCDC 
#
#######################################################################
#
# If this CIF has been generated from an entry in the Cambridge 
# Structural Database, then it will include bibliographic, chemical, 
# crystal, experimental, refinement or atomic coordinate data resulting 
# from the CCDC's data processing and validation procedures.
#
#######################################################################

data_VERXUM
_symmetry_cell_setting           monoclinic
_symmetry_space_group_name_H-M   'P 21/c'
_symmetry_Int_Tables_number      14
_space_group_name_Hall           '-P 2ybc'
loop_
_symmetry_equiv_pos_site_id
_symmetry_equiv_pos_as_xyz
1 x,y,z
2 -x,1/2+y,1/2-z
3 -x,-y,-z
4 x,1/2-y,1/2+z
_cell_length_a                   8.4172(14)
_cell_length_b                   20.228(3)
_cell_length_c                   8.4801(12)
_cell_angle_alpha                90
_cell_angle_beta                 104.225(4)
_cell_angle_gamma                90
_cell_volume                     1399.58
loop_
_atom_site_label
_atom_site_type_symbol
_atom_site_fract_x
_atom_site_fract_y
_atom_site_fract_z
Co1 Co 0.0000 0.5000 0.5000
O1 O 0.51465(19) 0.53547(9) 0.7705(2)
N1 N 0.1425(2) 0.58300(8) 0.0908(2)
N2 N -0.0206(2) 0.58522(10) 0.0228(2)
N3 N 0.0295(2) 0.54673(8) 0.2787(2)
N4 N 0.8049(2) 0.83585(8) 0.2075(2)
N5 N 0.9323(2) 0.80170(9) 0.1740(2)
N6 N 0.9241(2) 0.90596(8) 0.0795(2)
N7 N 0.2450(2) 0.52289(10) 0.6056(2)
C1 C 0.3759(3) 0.65474(10) 0.0745(2)
C2 C 0.5225(3) 0.63983(11) 0.1823(3)
H1 H 0.5513 0.5949 0.2064
C3 C 0.6286(3) 0.68923(11) 0.2560(3)
H2 H 0.7295 0.6778 0.3294
C4 C 0.5894(3) 0.75483(10) 0.2239(2)
C5 C 0.4433(3) 0.76981(11) 0.1139(3)
H3 H 0.4149 0.8147 0.0891
C6 C 0.3377(3) 0.72038(12) 0.0394(3)
H4 H 0.2383 0.7317 -0.0365
C7 C 0.2626(3) 0.59985(12) -0.0031(3)
H5 H 0.2036 0.6134 -0.1142
H6 H 0.3283 0.5601 -0.0126
C8 C 0.7032(3) 0.80811(11) 0.3082(3)
H7 H 0.6376 0.8440 0.3403
H8 H 0.7753 0.7897 0.4088
C9 C -0.0825(3) 0.56267(11) 0.1410(3)
H9 H -0.1970 0.5580 0.1298
C10 C 0.1695(3) 0.56017(11) 0.2417(2)
H10 H 0.2748 0.5543 0.3131
C11 C 0.9988(3) 0.84645(11) 0.0966(3)
H11 H 1.0922 0.8374 0.0560
C12 C 0.8025(2) 0.89687(10) 0.1510(2)
H12 H 0.7245 0.9296 0.1605
C13 C 0.3773(3) 0.52924(10) 0.6847(3)
Co1C Co 1.0000 1.0000 0.0000
Co1C_2 Co -1.0000 0.0000 1.0000
O1B O -0.51465(19) 0.46453(9) 0.2295(2)
N1B N -0.1425(2) 0.41700(8) 0.9092(2)
N2B N 0.0206(2) 0.41478(10) 0.9772(2)
N3B N -0.0295(2) 0.45327(8) 0.7213(2)
N4B N -0.8049(2) 0.16415(8) 0.7925(2)
N5B N -0.9323(2) 0.19830(9) 0.8260(2)
N6B N -0.9241(2) 0.09404(8) 0.9205(2)
N6C N -0.0759(2) 0.59404(8) 0.5795(2)
N6A N 0.0759(2) 0.40596(8) 0.4205(2)
N7B N -0.2450(2) 0.47711(10) 0.3944(2)
C1B C -0.3759(3) 0.34526(10) 0.9255(2)
C2B C -0.5225(3) 0.36017(11) 0.8177(3)
H1B H -0.5513 0.4051 0.7936
C3B C -0.6286(3) 0.31077(11) 0.7440(3)
H2B H -0.7295 0.3222 0.6706
C4B C -0.5894(3) 0.24517(10) 0.7761(2)
C5B C -0.4433(3) 0.23019(11) 0.8861(3)
H3B H -0.4149 0.1853 0.9109
C6B C -0.3377(3) 0.27962(12) 0.9606(3)
H4B H -0.2383 0.2683 1.0365
C7B C -0.2626(3) 0.40015(12) 1.0031(3)
H5B H -0.2036 0.3866 1.1142
H6B H -0.3283 0.4399 1.0126
C8B C -0.7032(3) 0.19189(11) 0.6918(3)
H7B H -0.6376 0.1560 0.6597
H8B H -0.7753 0.2103 0.5912
C9B C 0.0825(3) 0.43733(11) 0.8590(3)
H9B H 0.1970 0.4420 0.8702
C10B C -0.1695(3) 0.43983(11) 0.7583(2)
H10B H -0.2748 0.4457 0.6869
C11B C -0.9988(3) 0.15355(11) 0.9034(3)
H11B H -1.0922 0.1626 0.9440
C12B C -0.8025(2) 0.10313(10) 0.8490(2)
H12B H -0.7245 0.0704 0.8395
C13B C -0.3773(3) 0.47076(10) 0.3153(3)
loop_
_geom_bond_atom_site_label_1
_geom_bond_atom_site_label_2
_geom_bond_site_symmetry_1
_geom_bond_site_symmetry_2
Co1 N3 1_555 1_555
O1 C13 1_555 1_555
N1 N2 1_555 1_555
N2 C9 1_555 1_555
N3 C9 1_555 1_555
N4 N5 1_555 1_555
N5 C11 1_555 1_555
N6 C11 1_555 1_555
N7 Co1 1_555 1_555
C1 C2 1_555 1_555
C2 H1 1_555 1_555
C3 C2 1_555 1_555
H2 C3 1_555 1_555
C4 C3 1_555 1_555
C5 C4 1_555 1_555
H3 C5 1_555 1_555
C6 C1 1_555 1_555
H4 C6 1_555 1_555
C7 N1 1_555 1_555
H5 C7 1_555 1_555
H6 C7 1_555 1_555
C8 N4 1_555 1_555
H7 C8 1_555 1_555
H8 C8 1_555 1_555
C9 H9 1_555 1_555
C10 N1 1_555 1_555
H10 C10 1_555 1_555
C11 H11 1_555 1_555
C12 N4 1_555 1_555
H12 C12 1_555 1_555
C13 N7 1_555 1_555
Co1C N6 1_555 1_555
Co1C_2 N6B 1_555 1_555
O1B C13B 1_555 1_555
N1B N2B 1_555 1_555
N2B C9B 1_555 1_555
N3B Co1 1_555 1_555
N4B N5B 1_555 1_555
N5B C11B 1_555 1_555
N6B C11B 1_555 1_555
N6C Co1 1_555 1_555
N6A Co1 1_555 1_555
N7B Co1 1_555 1_555
C1B C2B 1_555 1_555
C2B H1B 1_555 1_555
C3B C2B 1_555 1_555
H2B C3B 1_555 1_555
C4B C3B 1_555 1_555
C5B C4B 1_555 1_555
H3B C5B 1_555 1_555
C6B C1B 1_555 1_555
H4B C6B 1_555 1_555
C7B N1B 1_555 1_555
H5B C7B 1_555 1_555
H6B C7B 1_555 1_555
C8B N4B 1_555 1_555
H7B C8B 1_555 1_555
H8B C8B 1_555 1_555
C9B N3B 1_555 1_555
H9B C9B 1_555 1_555
C10B N1B 1_555 1_555
H10B C10B 1_555 1_555
C11B H11B 1_555 1_555
C12B N4B 1_555 1_555
H12B C12B 1_555 1_555
C13B N7B 1_555 1_555
N3 C10 1_555 1_555
N6 C12 1_555 1_555
C1 C7 1_555 1_555
C4 C8 1_555 1_555
C5 C6 1_555 1_555
N3B C10B 1_555 1_555
N6B C12B 1_555 1_555
C1B C7B 1_555 1_555
C4B C8B 1_555 1_555
C5B C6B 1_555 1_555

#END
