
#######################################################################
#
#                 Cambridge Crystallographic Data Centre
#                                CCDC 
#
#######################################################################
#
# If this CIF has been generated from an entry in the Cambridge 
# Structural Database, then it will include bibliographic, chemical, 
# crystal, experimental, refinement or atomic coordinate data resulting 
# from the CCDC's data processing and validation procedures.
#
#######################################################################

data_VESCIF
_symmetry_cell_setting           monoclinic
_symmetry_space_group_name_H-M   'C 2/c'
_symmetry_Int_Tables_number      15
_space_group_name_Hall           '-C 2yn'
loop_
_symmetry_equiv_pos_site_id
_symmetry_equiv_pos_as_xyz
1 x,y,z
2 1/2+x,1/2+y,z
3 -x,y,1/2-z
4 1/2-x,1/2+y,1/2-z
5 -x,-y,-z
6 1/2-x,1/2-y,-z
7 x,-y,1/2+z
8 1/2+x,1/2-y,1/2+z
_cell_length_a                   24.20(1)
_cell_length_b                   9.067(4)
_cell_length_c                   12.101(6)
_cell_angle_alpha                90
_cell_angle_beta                 105.79(1)
_cell_angle_gamma                90
_cell_volume                     2555.03
loop_
_atom_site_label
_atom_site_type_symbol
_atom_site_fract_x
_atom_site_fract_y
_atom_site_fract_z
Ag1 Ag 0.0124(1) 0.4682(1) 0.3879(1)
S1 S 0.0545(1) 0.7045(3) 0.3818(2)
P1 P 0.0764(1) 0.7676(3) 0.5469(2)
C1 C -0.0211(4) 0.2438(10) 0.3801(8)
C2 C 0.1421(3) 0.5954(8) 0.7312(6)
C3 C 0.1923(3) 0.5252(8) 0.7930(6)
C4 C 0.2412(3) 0.5285(8) 0.7530(6)
C5 C 0.2398(3) 0.6021(8) 0.6510(6)
C6 C 0.1896(3) 0.6723(8) 0.5891(6)
C7 C 0.1408(3) 0.6689(8) 0.6292(6)
C8 C 0.1281(3) 1.0050(7) 0.4634(5)
C9 C 0.1484(3) 1.1493(7) 0.4654(5)
C10 C 0.1412(3) 1.2477(7) 0.5490(5)
C11 C 0.1137(3) 1.2018(7) 0.6306(5)
C12 C 0.0934(3) 1.0575(7) 0.6285(5)
C13 C 0.1007(3) 0.9591(7) 0.5449(5)
Ag1D Ag -0.0124(1) 0.5318(1) 0.6121(1)
Ag1B Ag -0.0124(1) 0.4682(1) 0.1121(1)
C1D C 0.0211(4) 0.7562(10) 0.6199(8)
P1D P -0.0764(1) 0.2324(3) 0.4531(2)
Ag1F Ag 0.0124(1) 0.5318(1) 0.8879(1)
S1D S -0.0545(1) 0.2955(3) 0.6182(2)
Ag1F_2 Ag 0.0124(1) 0.5318(1) -0.1121(1)
S1B S -0.0545(1) 0.7045(3) 0.1182(2)
C1B C 0.0211(4) 0.2438(10) 0.1199(8)
C7D C -0.1408(3) 0.3311(8) 0.3708(6)
C13D C -0.1007(3) 0.0409(7) 0.4551(5)
P1B P -0.0764(1) 0.7676(3) -0.0469(2)
P1F P 0.0764(1) 0.2324(3) 0.0469(2)
C2D C -0.1421(3) 0.4046(8) 0.2688(6)
C6D C -0.1896(3) 0.3277(8) 0.4109(6)
C8D C -0.1281(3) -0.0050(7) 0.5366(5)
C12D C -0.0934(3) -0.0575(7) 0.3715(5)
C1F C -0.0211(4) 0.7562(10) -0.1199(8)
C7B C -0.1408(3) 0.6689(8) -0.1292(6)
C13B C -0.1007(3) 0.9591(7) -0.0449(5)
S1F S 0.0545(1) 0.2955(3) -0.1182(2)
C7F C 0.1408(3) 0.3311(8) 0.1292(6)
C13F C 0.1007(3) 0.0409(7) 0.0449(5)
C3D C -0.1923(3) 0.4748(8) 0.2070(6)
C5D C -0.2398(3) 0.3979(8) 0.3490(6)
C9D C -0.1484(3) -0.1493(7) 0.5346(5)
C11D C -0.1137(3) -0.2018(7) 0.3694(5)
C2B C -0.1421(3) 0.5954(8) -0.2312(6)
C6B C -0.1896(3) 0.6723(8) -0.0891(6)
C8B C -0.1281(3) 1.0050(7) 0.0366(5)
C12B C -0.0934(3) 1.0575(7) -0.1285(5)
C2F C 0.1421(3) 0.4046(8) 0.2312(6)
C6F C 0.1896(3) 0.3277(8) 0.0891(6)
C8F C 0.1281(3) -0.0050(7) -0.0366(5)
C12F C 0.0934(3) -0.0575(7) 0.1285(5)
C4D C -0.2412(3) 0.4715(8) 0.2470(6)
C10D C -0.1412(3) -0.2477(7) 0.4510(5)
C3B C -0.1923(3) 0.5252(8) -0.2930(6)
C5B C -0.2398(3) 0.6021(8) -0.1510(6)
C9B C -0.1484(3) 1.1493(7) 0.0346(5)
C11B C -0.1137(3) 1.2018(7) -0.1306(5)
C3F C 0.1923(3) 0.4748(8) 0.2930(6)
C5F C 0.2398(3) 0.3979(8) 0.1510(6)
C9F C 0.1484(3) -0.1493(7) -0.0346(5)
C11F C 0.1137(3) -0.2018(7) 0.1306(5)
C4B C -0.2412(3) 0.5285(8) -0.2530(6)
C10B C -0.1412(3) 1.2477(7) -0.0490(5)
C4F C 0.2412(3) 0.4715(8) 0.2530(6)
C10F C 0.1412(3) -0.2477(7) 0.0490(5)
Ag1D_2 Ag -0.0124(1) 0.5318(1) -0.3879(1)
loop_
_geom_bond_atom_site_label_1
_geom_bond_atom_site_label_2
_geom_bond_site_symmetry_1
_geom_bond_site_symmetry_2
Ag1 S1 1_555 1_555
S1 P1 1_555 1_555
P1 C7 1_555 1_555
C1 Ag1 1_555 1_555
C2 C3 1_555 1_555
C3 C4 1_555 1_555
C4 C5 1_555 1_555
C5 C6 1_555 1_555
C6 C7 1_555 1_555
C7 C2 1_555 1_555
C8 C9 1_555 1_555
C9 C10 1_555 1_555
C10 C11 1_555 1_555
C11 C12 1_555 1_555
C12 C13 1_555 1_555
C13 P1 1_555 1_555
Ag1D Ag1 1_555 1_555
Ag1B Ag1 1_555 1_555
C1D P1 1_555 1_555
P1D C1 1_555 1_555
Ag1F Ag1D 1_555 1_555
S1D Ag1D 1_555 1_555
Ag1F_2 Ag1B 1_555 1_555
S1B Ag1B 1_555 1_555
C1B Ag1B 1_555 1_555
C7D P1D 1_555 1_555
C13D P1D 1_555 1_555
P1B S1B 1_555 1_555
P1F C1B 1_555 1_555
C2D C7D 1_555 1_555
C6D C7D 1_555 1_555
C8D C13D 1_555 1_555
C12D C13D 1_555 1_555
C1F Ag1F_2 1_555 1_555
C7B P1B 1_555 1_555
C13B P1B 1_555 1_555
S1F Ag1F_2 1_555 1_555
C7F P1F 1_555 1_555
C13F P1F 1_555 1_555
C3D C2D 1_555 1_555
C5D C6D 1_555 1_555
C9D C8D 1_555 1_555
C11D C12D 1_555 1_555
C2B C7B 1_555 1_555
C6B C7B 1_555 1_555
C8B C13B 1_555 1_555
C12B C13B 1_555 1_555
C2F C7F 1_555 1_555
C6F C7F 1_555 1_555
C8F C13F 1_555 1_555
C12F C13F 1_555 1_555
C4D C3D 1_555 1_555
C10D C9D 1_555 1_555
C3B C2B 1_555 1_555
C5B C6B 1_555 1_555
C9B C8B 1_555 1_555
C11B C12B 1_555 1_555
C3F C2F 1_555 1_555
C5F C6F 1_555 1_555
C9F C8F 1_555 1_555
C11F C12F 1_555 1_555
C4B C3B 1_555 1_555
C10B C9B 1_555 1_555
C4F C3F 1_555 1_555
C10F C9F 1_555 1_555
Ag1D_2 Ag1F_2 1_555 1_555
C8 C13 1_555 1_555
Ag1D C1D 1_555 1_555
P1D S1D 1_555 1_555
P1B C1F 1_555 1_555
P1F S1F 1_555 1_555
C5D C4D 1_555 1_555
C11D C10D 1_555 1_555
C5B C4B 1_555 1_555
C11B C10B 1_555 1_555
C5F C4F 1_555 1_555
C11F C10F 1_555 1_555

#END
