
#######################################################################
#
#                 Cambridge Crystallographic Data Centre
#                                CCDC 
#
#######################################################################
#
# If this CIF has been generated from an entry in the Cambridge 
# Structural Database, then it will include bibliographic, chemical, 
# crystal, experimental, refinement or atomic coordinate data resulting 
# from the CCDC's data processing and validation procedures.
#
#######################################################################

data_VESVUL
_symmetry_cell_setting           monoclinic
_symmetry_space_group_name_H-M   'C 2'
_symmetry_Int_Tables_number      5
_space_group_name_Hall           'C 2y'
loop_
_symmetry_equiv_pos_site_id
_symmetry_equiv_pos_as_xyz
1 x,y,z
2 -x,y,-z
3 1/2+x,1/2+y,z
4 1/2-x,1/2+y,-z
_cell_length_a                   19.8677(14)
_cell_length_b                   5.2047(4)
_cell_length_c                   13.8276(10)
_cell_angle_alpha                90
_cell_angle_beta                 128.451(2)
_cell_angle_gamma                90
_cell_volume                     1119.77
loop_
_atom_site_label
_atom_site_type_symbol
_atom_site_fract_x
_atom_site_fract_y
_atom_site_fract_z
Ag1 Ag 0.332115(9) 0.82522(6) 0.419778(13)
O1 O 0.37806(11) 1.0960(4) 0.59806(17)
O2 O 0.50600(13) 0.9610(4) 0.6622(2)
N1 N 0.26242(13) 0.4751(4) 0.39277(18)
H1 H 0.2993 0.3653 0.4573
H2 H 0.2190 0.5160 0.3964
N2 N 0.36571(13) 0.1594(5) 0.3575(2)
H3 H 0.4001 0.2692 0.4232
H4 H 0.3971 0.1023 0.3335
C1 C 0.22459(13) 0.3372(8) 0.27594(19)
H5 H 0.2067 0.1626 0.2825
C2 C 0.29064(14) 0.3035(8) 0.25453(19)
H6 H 0.3105 0.4777 0.2514
C3 C 0.25173(18) 0.1686(6) 0.1327(3)
H7 H 0.2950 0.1595 0.1190
H8 H 0.2360 -0.0093 0.1367
C4 C 0.17264(16) 0.3082(12) 0.0255(2)
H9 H 0.1469 0.2097 -0.0514
H10 H 0.1896 0.4790 0.0156
C5 C 0.10619(15) 0.3420(11) 0.0457(2)
H11 H 0.0839 0.1716 0.0453
H12 H 0.0574 0.4446 -0.0228
C6 C 0.14502(16) 0.4766(6) 0.1683(2)
H13 H 0.1605 0.6550 0.1645
H14 H 0.1017 0.4842 0.1819
C7 C 0.45890(16) 1.1098(5) 0.6677(2)
C8 C 0.50002(18) 1.3312(17) 0.7594(3)
H15 H 0.5599 1.2886 0.8278
H16 H 0.4685 1.3607 0.7915
H17 H 0.4981 1.4870 0.7179
Ag1_2 Ag 0.332115(9) -0.17478(6) 0.419778(13)
N2_2 N 0.36571(13) 1.1594(5) 0.3575(2)
H3_2 H 0.4001 1.2692 0.4232
H4_2 H 0.3971 1.1023 0.3335
O3 O 0.0000 0.1106(6) 0.5000
H18 H 0.0026 0.1918 0.5486
H18A H -0.0026 0.1918 0.4514
loop_
_geom_bond_atom_site_label_1
_geom_bond_atom_site_label_2
_geom_bond_site_symmetry_1
_geom_bond_site_symmetry_2
Ag1 O1 1_555 1_555
O1 C7 1_555 1_555
O2 C7 1_555 1_555
N1 Ag1 1_555 1_555
H1 N1 1_555 1_555
H2 N1 1_555 1_555
N2 H3 1_555 1_555
H4 N2 1_555 1_555
C1 N1 1_555 1_555
H5 C1 1_555 1_555
C2 N2 1_555 1_555
H6 C2 1_555 1_555
C3 C2 1_555 1_555
H7 C3 1_555 1_555
H8 C3 1_555 1_555
C4 C3 1_555 1_555
H9 C4 1_555 1_555
H10 C4 1_555 1_555
C5 C4 1_555 1_555
H11 C5 1_555 1_555
H12 C5 1_555 1_555
C6 C1 1_555 1_555
H13 C6 1_555 1_555
H14 C6 1_555 1_555
C7 C8 1_555 1_555
C8 H15 1_555 1_555
H16 C8 1_555 1_555
H17 C8 1_555 1_555
O3 H18 1_555 1_555
Ag1_2 N2 1_555 1_555
N2_2 Ag1 1_555 1_555
H3_2 N2_2 1_555 1_555
H4_2 N2_2 1_555 1_555
H18A O3 1_555 1_555
C1 C2 1_555 1_555
C5 C6 1_555 1_555

#END
