
#######################################################################
#
#                 Cambridge Crystallographic Data Centre
#                                CCDC 
#
#######################################################################
#
# If this CIF has been generated from an entry in the Cambridge 
# Structural Database, then it will include bibliographic, chemical, 
# crystal, experimental, refinement or atomic coordinate data resulting 
# from the CCDC's data processing and validation procedures.
#
#######################################################################

data_VESWIA
_symmetry_cell_setting           monoclinic
_symmetry_space_group_name_H-M   'P 21/c'
_symmetry_Int_Tables_number      14
_space_group_name_Hall           '-P 2ybc'
loop_
_symmetry_equiv_pos_site_id
_symmetry_equiv_pos_as_xyz
1 x,y,z
2 -x,1/2+y,1/2-z
3 -x,-y,-z
4 x,1/2-y,1/2+z
_cell_length_a                   11.108(3)
_cell_length_b                   9.137(3)
_cell_length_c                   9.755(3)
_cell_angle_alpha                90
_cell_angle_beta                 100.108(5)
_cell_angle_gamma                90
_cell_volume                     974.705
loop_
_atom_site_label
_atom_site_type_symbol
_atom_site_fract_x
_atom_site_fract_y
_atom_site_fract_z
Ag1 Ag 0.12093(4) 0.08829(4) 0.53813(4)
N1 N 0.1459(5) 0.0867(5) 0.3231(5)
H1 H 0.1570 -0.0085 0.2975
H2 H 0.0752 0.1203 0.2686
N2 N 0.1292(5) 0.4012(5) 0.2613(5)
H3 H 0.1252 0.4950 0.2946
H4 H 0.0616 0.3515 0.2790
C1 C 0.2473(5) 0.1734(5) 0.2928(5)
H5 H 0.2466 0.1711 0.1901
C2 C 0.2387(4) 0.3304(5) 0.3380(5)
H6 H 0.2339 0.3317 0.4395
C3 C 0.3506(5) 0.4178(5) 0.3162(6)
H7 H 0.3533 0.4232 0.2154
H8 H 0.3444 0.5188 0.3509
C4 C 0.4680(5) 0.3472(6) 0.3923(6)
H9 H 0.5395 0.4030 0.3726
H10 H 0.4690 0.3503 0.4939
C5 C 0.4767(5) 0.1904(6) 0.3462(6)
H11 H 0.5510 0.1448 0.4001
H12 H 0.4841 0.1883 0.2465
C6 C 0.3652(5) 0.1032(5) 0.3671(5)
H13 H 0.3630 0.0964 0.4679
H14 H 0.3715 0.0027 0.3312
Ag1C Ag 0.12093(4) 0.41171(4) 0.03813(4)
N2C N 0.1292(5) 0.0988(5) 0.7613(5)
H3C H 0.1252 0.0050 0.7946
H4C H 0.0616 0.1485 0.7790
B1 B 0.1472(5) 0.8074(6) 0.0381(6)
F1 F 0.2192(3) 0.9291(3) 0.0670(4)
F2 F 0.2141(4) 0.6937(4) -0.0017(4)
F3 F 0.0502(3) 0.8395(4) -0.0706(4)
F4 F 0.0989(3) 0.7677(4) 0.1542(3)
loop_
_geom_bond_atom_site_label_1
_geom_bond_atom_site_label_2
_geom_bond_site_symmetry_1
_geom_bond_site_symmetry_2
Ag1 N1 1_555 1_555
N1 H1 1_555 1_555
H2 N1 1_555 1_555
N2 H3 1_555 1_555
H4 N2 1_555 1_555
C1 N1 1_555 1_555
H5 C1 1_555 1_555
C2 N2 1_555 1_555
H6 C2 1_555 1_555
C3 C2 1_555 1_555
H7 C3 1_555 1_555
H8 C3 1_555 1_555
C4 C3 1_555 1_555
H9 C4 1_555 1_555
H10 C4 1_555 1_555
C5 C4 1_555 1_555
H11 C5 1_555 1_555
H12 C5 1_555 1_555
C6 C1 1_555 1_555
H13 C6 1_555 1_555
H14 C6 1_555 1_555
B1 F1 1_555 1_555
F2 B1 1_555 1_555
F3 B1 1_555 1_555
F4 B1 1_555 1_555
Ag1C N2 1_555 1_555
N2C Ag1 1_555 1_555
H3C N2C 1_555 1_555
H4C N2C 1_555 1_555
C1 C2 1_555 1_555
C5 C6 1_555 1_555

#END
