
#######################################################################
#
#                 Cambridge Crystallographic Data Centre
#                                CCDC 
#
#######################################################################
#
# If this CIF has been generated from an entry in the Cambridge 
# Structural Database, then it will include bibliographic, chemical, 
# crystal, experimental, refinement or atomic coordinate data resulting 
# from the CCDC's data processing and validation procedures.
#
#######################################################################

data_VESWEW
_symmetry_cell_setting           orthorhombic
_symmetry_space_group_name_H-M   'P 21 21 2'
_symmetry_Int_Tables_number      18
_space_group_name_Hall           'P 2 2ab'
loop_
_symmetry_equiv_pos_site_id
_symmetry_equiv_pos_as_xyz
1 x,y,z
2 -x,-y,z
3 1/2+x,1/2-y,-z
4 1/2-x,1/2+y,-z
_cell_length_a                   16.793(9)
_cell_length_b                   8.058(4)
_cell_length_c                   11.766(6)
_cell_angle_alpha                90
_cell_angle_beta                 90
_cell_angle_gamma                90
_cell_volume                     1592.15
loop_
_atom_site_label
_atom_site_type_symbol
_atom_site_fract_x
_atom_site_fract_y
_atom_site_fract_z
Ag1 Ag 0.0000 0.5000 0.12507(7)
Ag2 Ag 0.31206(3) 0.29978(6) 0.13683(5)
N1 N 0.1897(3) 0.2399(6) 0.1632(4)
H1 H 0.1619 0.2664 0.0983
H2 H 0.1855 0.1270 0.1735
N2 N 0.1226(4) 0.5755(7) 0.1488(5)
H3 H 0.1517 0.5407 0.0870
H4 H 0.1246 0.6896 0.1503
N3 N 0.4347(4) 0.3780(8) 0.1325(5)
H5 H 0.4670 0.2866 0.1237
H6 H 0.4426 0.4465 0.0709
C1 C 0.1511(4) 0.3240(8) 0.2611(5)
H7 H 0.0929 0.2977 0.2595
C2 C 0.1609(5) 0.5117(9) 0.2526(5)
H8 H 0.2191 0.5379 0.2490
C3 C 0.1259(5) 0.5966(9) 0.3561(7)
H9 H 0.0676 0.5778 0.3578
H10 H 0.1352 0.7177 0.3506
C4 C 0.1627(5) 0.5315(11) 0.4655(6)
H11 H 0.1386 0.5881 0.5317
H12 H 0.2207 0.5539 0.4659
C5 C 0.1477(6) 0.3436(10) 0.4731(6)
H13 H 0.1709 0.2993 0.5443
H14 H 0.0897 0.3214 0.4741
C6 C 0.1855(4) 0.2588(8) 0.3713(6)
H15 H 0.2437 0.2782 0.3723
H16 H 0.1763 0.1376 0.3762
C7 C 0.4570(4) 0.4655(9) 0.2357(5)
H17 H 0.4204 0.5628 0.2430
C8 C 0.4454(5) 0.3607(9) 0.3388(6)
H18 H 0.4836 0.2673 0.3372
H19 H 0.3909 0.3136 0.3379
C9 C 0.4570(5) 0.4587(11) 0.4469(6)
H20 H 0.4516 0.3843 0.5135
H21 H 0.4158 0.5460 0.4526
O1 O 0.0000 0.5000 -0.1023(8)
H22 H -0.0415 0.4721 -0.1362
Ag2A Ag -0.31206(3) 0.70022(6) 0.13683(5)
Ag2A_2 Ag 0.68794(3) 0.70022(6) 0.13683(5)
N1A N -0.1897(3) 0.7601(6) 0.1632(4)
H1A H -0.1619 0.7336 0.0983
H2A H -0.1855 0.8730 0.1735
N2A N -0.1226(4) 0.4245(7) 0.1488(5)
H3A H -0.1517 0.4593 0.0870
H4A H -0.1246 0.3104 0.1503
N3A N 0.5653(4) 0.6220(8) 0.1325(5)
N3A_2 N -0.4347(4) 0.6220(8) 0.1325(5)
H5A H 0.5330 0.7134 0.1237
H5A_2 H -0.4670 0.7134 0.1237
H6A H 0.5574 0.5535 0.0709
H6A_2 H -0.4426 0.5535 0.0709
C1A C -0.1511(4) 0.6760(8) 0.2611(5)
H7A H -0.0929 0.7023 0.2595
C2A C -0.1609(5) 0.4883(9) 0.2526(5)
H8A H -0.2191 0.4621 0.2490
C3A C -0.1259(5) 0.4034(9) 0.3561(7)
H9A H -0.0676 0.4222 0.3578
H10A H -0.1352 0.2823 0.3506
C4A C -0.1627(5) 0.4685(11) 0.4655(6)
H11A H -0.1386 0.4119 0.5317
H12A H -0.2207 0.4461 0.4659
C5A C -0.1477(6) 0.6564(10) 0.4731(6)
H13A H -0.1709 0.7007 0.5443
H14A H -0.0897 0.6786 0.4741
C6A C -0.1855(4) 0.7412(8) 0.3713(6)
H15A H -0.2437 0.7218 0.3723
H16A H -0.1763 0.8624 0.3762
C7A C 0.5430(4) 0.5345(9) 0.2357(5)
H17A H 0.5796 0.4372 0.2430
C8A C 0.5546(5) 0.6393(9) 0.3388(6)
H18A H 0.5164 0.7327 0.3372
H19A H 0.6091 0.6864 0.3379
C9A C 0.5430(5) 0.5413(11) 0.4469(6)
H20A H 0.5484 0.6157 0.5135
H21A H 0.5842 0.4540 0.4526
H22A H 0.0415 0.5279 -0.1362
F1 F 0.3147(3) 0.6907(6) 0.1074(5)
F2 F 0.3727(6) 0.8767(10) 0.2228(6)
F3 F 0.2430(5) 0.8689(8) 0.2189(6)
F4 F 0.3050(4) 0.9611(6) 0.0652(4)
B1 B 0.3141(7) 0.8493(11) 0.1504(8)
F5 F -0.0249(3) 0.8700(6) 0.0870(4)
F6 F 0.0607(5) 0.9487(9) 0.2177(8)
B2 B 0.0000 1.0000 0.1552(9)
F5A F 0.0249(3) 1.1300(6) 0.0870(4)
F6A F -0.0607(5) 1.0513(9) 0.2177(8)
loop_
_geom_bond_atom_site_label_1
_geom_bond_atom_site_label_2
_geom_bond_site_symmetry_1
_geom_bond_site_symmetry_2
Ag1 N2 1_555 1_555
Ag2 N1 1_555 1_555
N1 H1 1_555 1_555
H2 N1 1_555 1_555
N2 H3 1_555 1_555
H4 N2 1_555 1_555
N3 Ag2 1_555 1_555
H5 N3 1_555 1_555
H6 N3 1_555 1_555
C1 N1 1_555 1_555
H7 C1 1_555 1_555
C2 N2 1_555 1_555
H8 C2 1_555 1_555
C3 C2 1_555 1_555
H9 C3 1_555 1_555
H10 C3 1_555 1_555
C4 C3 1_555 1_555
H11 C4 1_555 1_555
H12 C4 1_555 1_555
C5 C4 1_555 1_555
H13 C5 1_555 1_555
H14 C5 1_555 1_555
C6 C1 1_555 1_555
H15 C6 1_555 1_555
H16 C6 1_555 1_555
C7 N3 1_555 1_555
H17 C7 1_555 1_555
C8 C7 1_555 1_555
H18 C8 1_555 1_555
H19 C8 1_555 1_555
C9 C8 1_555 1_555
H20 C9 1_555 1_555
H21 C9 1_555 1_555
F1 B1 1_555 1_555
F2 B1 1_555 1_555
F3 B1 1_555 1_555
F4 B1 1_555 1_555
F5 B2 1_555 1_555
F6 B2 1_555 1_555
B2 F5A 1_555 1_555
O1 Ag1 1_555 1_555
H22 O1 1_555 1_555
Ag2A N1A 1_555 1_555
Ag2A_2 N3A 1_555 1_555
N1A H1A 1_555 1_555
H2A N1A 1_555 1_555
N2A Ag1 1_555 1_555
H3A N2A 1_555 1_555
H4A N2A 1_555 1_555
N3A H5A 1_555 1_555
N3A_2 Ag2A 1_555 1_555
H5A_2 N3A_2 1_555 1_555
H6A N3A 1_555 1_555
H6A_2 N3A_2 1_555 1_555
C1A N1A 1_555 1_555
H7A C1A 1_555 1_555
C2A N2A 1_555 1_555
H8A C2A 1_555 1_555
C3A C2A 1_555 1_555
H9A C3A 1_555 1_555
H10A C3A 1_555 1_555
C4A C3A 1_555 1_555
H11A C4A 1_555 1_555
H12A C4A 1_555 1_555
C5A C4A 1_555 1_555
H13A C5A 1_555 1_555
H14A C5A 1_555 1_555
C6A C1A 1_555 1_555
H15A C6A 1_555 1_555
H16A C6A 1_555 1_555
C7A C7 1_555 1_555
H17A C7A 1_555 1_555
C8A C7A 1_555 1_555
H18A C8A 1_555 1_555
H19A C8A 1_555 1_555
C9A C9 1_555 1_555
H20A C9A 1_555 1_555
H21A C9A 1_555 1_555
F6A B2 1_555 1_555
H22A O1 1_555 1_555
C1 C2 1_555 1_555
C5 C6 1_555 1_555
N3A C7A 1_555 1_555
C1A C2A 1_555 1_555
C5A C6A 1_555 1_555
C8A C9A 1_555 1_555

#END
