
#######################################################################
#
#                 Cambridge Crystallographic Data Centre
#                                CCDC 
#
#######################################################################
#
# If this CIF has been generated from an entry in the Cambridge 
# Structural Database, then it will include bibliographic, chemical, 
# crystal, experimental, refinement or atomic coordinate data resulting 
# from the CCDC's data processing and validation procedures.
#
#######################################################################

data_VETCON
_symmetry_cell_setting           monoclinic
_symmetry_space_group_name_H-M   'C 2/c'
_symmetry_Int_Tables_number      15
_space_group_name_Hall           '-C 2yn'
loop_
_symmetry_equiv_pos_site_id
_symmetry_equiv_pos_as_xyz
1 x,y,z
2 1/2+x,1/2+y,z
3 -x,y,1/2-z
4 1/2-x,1/2+y,1/2-z
5 -x,-y,-z
6 1/2-x,1/2-y,-z
7 x,-y,1/2+z
8 1/2+x,1/2-y,1/2+z
_cell_length_a                   14.504(3)
_cell_length_b                   8.9191(16)
_cell_length_c                   13.749(2)
_cell_angle_alpha                90
_cell_angle_beta                 112.446(2)
_cell_angle_gamma                90
_cell_volume                     1643.86
loop_
_atom_site_label
_atom_site_type_symbol
_atom_site_fract_x
_atom_site_fract_y
_atom_site_fract_z
Co1 Co 0.2500 0.7500 0.0000
N1 N 0.72167(19) 0.7531(3) 0.1537(2)
N2 N 0.38272(13) 0.8824(2) 0.06983(13)
N3 N 0.31293(14) 0.5965(2) 0.12636(14)
N4 N 0.39789(15) 0.4683(3) 0.29536(16)
N5 N 0.31969(14) 0.3676(2) 0.41202(14)
C1 C 0.65115(19) 0.8177(3) 0.14666(19)
C2 C 0.55987(16) 0.8963(3) 0.13289(17)
C3 C 0.55745(18) 1.0501(3) 0.14693(17)
H1 H 0.6160 1.1060 0.1726
C4 C 0.46634(18) 1.1172(3) 0.12183(18)
H2 H 0.4622 1.2200 0.1307
C5 C 0.38049(17) 1.0313(3) 0.08324(17)
H3 H 0.3191 1.0784 0.0660
C6 C 0.47124(16) 0.8174(3) 0.09581(16)
H4 H 0.4737 0.7140 0.0887
C7 C 0.34827(16) 0.5355(3) 0.20574(17)
C8 C 0.35108(16) 0.4180(2) 0.35361(16)
Co1F Co 0.2500 0.2500 0.5000
Co1F_2 Co 0.2500 1.2500 -0.5000
N1E N -0.22167(19) 0.7469(3) -0.1537(2)
N2E N 0.11728(13) 0.6176(2) -0.06983(13)
N3E N 0.18707(14) 0.9035(2) -0.12636(14)
N4E N 0.10211(15) 1.0317(3) -0.29536(16)
N5E N 0.18031(14) 1.1324(2) -0.41202(14)
N5F N 0.31969(14) 0.6324(2) -0.08798(14)
N5C N 0.18031(14) 0.8676(2) 0.08798(14)
C1E C -0.15115(19) 0.6823(3) -0.14666(19)
C2E C -0.05987(16) 0.6037(3) -0.13289(17)
C3E C -0.05745(18) 0.4499(3) -0.14693(17)
H1E H -0.1160 0.3940 -0.1726
C4E C 0.03366(18) 0.3828(3) -0.12183(18)
H2E H 0.0378 0.2800 -0.1307
C5E C 0.11951(17) 0.4687(3) -0.08324(17)
H3E H 0.1809 0.4216 -0.0660
C6E C 0.02876(16) 0.6826(3) -0.09581(16)
H4E H 0.0263 0.7860 -0.0887
C7E C 0.15173(16) 0.9645(3) -0.20574(17)
C8E C 0.14892(16) 1.0820(2) -0.35361(16)
loop_
_geom_bond_atom_site_label_1
_geom_bond_atom_site_label_2
_geom_bond_site_symmetry_1
_geom_bond_site_symmetry_2
Co1 N2 1_555 1_555
N1 C1 1_555 1_555
N2 C5 1_555 1_555
N3 Co1 1_555 1_555
N4 C7 1_555 1_555
N5 C8 1_555 1_555
C1 C2 1_555 1_555
C2 C3 1_555 1_555
C3 H1 1_555 1_555
C4 C3 1_555 1_555
H2 C4 1_555 1_555
C5 C4 1_555 1_555
H3 C5 1_555 1_555
C6 N2 1_555 1_555
H4 C6 1_555 1_555
C7 N3 1_555 1_555
C8 N4 1_555 1_555
Co1F N5 1_555 1_555
Co1F_2 N5E 1_555 1_555
N1E C1E 1_555 1_555
N2E Co1 1_555 1_555
N3E Co1 1_555 1_555
N4E C7E 1_555 1_555
N5E C8E 1_555 1_555
N5F Co1 1_555 1_555
N5C Co1 1_555 1_555
C1E C2E 1_555 1_555
C2E C3E 1_555 1_555
C3E H1E 1_555 1_555
C4E C3E 1_555 1_555
H2E C4E 1_555 1_555
C5E N2E 1_555 1_555
H3E C5E 1_555 1_555
C6E N2E 1_555 1_555
H4E C6E 1_555 1_555
C7E N3E 1_555 1_555
C8E N4E 1_555 1_555
C2 C6 1_555 1_555
C2E C6E 1_555 1_555
C4E C5E 1_555 1_555

#END
