
#######################################################################
#
#                 Cambridge Crystallographic Data Centre
#                                CCDC 
#
#######################################################################
#
# If this CIF has been generated from an entry in the Cambridge 
# Structural Database, then it will include bibliographic, chemical, 
# crystal, experimental, refinement or atomic coordinate data resulting 
# from the CCDC's data processing and validation procedures.
#
#######################################################################

data_VETCIH
_symmetry_cell_setting           monoclinic
_symmetry_space_group_name_H-M   'C 2/c'
_symmetry_Int_Tables_number      15
_space_group_name_Hall           '-C 2yn'
loop_
_symmetry_equiv_pos_site_id
_symmetry_equiv_pos_as_xyz
1 x,y,z
2 1/2+x,1/2+y,z
3 -x,y,1/2-z
4 1/2-x,1/2+y,1/2-z
5 -x,-y,-z
6 1/2-x,1/2-y,-z
7 x,-y,1/2+z
8 1/2+x,1/2-y,1/2+z
_cell_length_a                   14.547(7)
_cell_length_b                   8.957(4)
_cell_length_c                   13.859(7)
_cell_angle_alpha                90
_cell_angle_beta                 112.609(7)
_cell_angle_gamma                90
_cell_volume                     1667.02
loop_
_atom_site_label
_atom_site_type_symbol
_atom_site_fract_x
_atom_site_fract_y
_atom_site_fract_z
Fe1 Fe 0.2500 0.2500 0.0000
N1 N 0.38466(13) 0.3869(2) 0.07140(13)
N2 N 0.72254(17) 0.2570(3) 0.15464(18)
N3 N 0.17836(14) 0.3708(2) 0.08770(14)
N4 N 0.09997(14) 0.4721(2) 0.20221(15)
N5 N 0.18507(14) 0.5972(2) 0.37101(14)
C1 C 0.38322(18) 0.5351(3) 0.08541(17)
H1 H 0.3221 0.5821 0.0691
C2 C 0.46845(19) 0.6205(3) 0.12298(18)
H2 H 0.4644 0.7228 0.1320
C3 C 0.55929(19) 0.5537(3) 0.14695(17)
H3 H 0.6177 0.6094 0.1721
C4 C 0.56155(17) 0.4004(3) 0.13258(16)
C5 C 0.47286(16) 0.3221(3) 0.09621(16)
H4 H 0.4751 0.2191 0.0888
C6 C 0.65265(19) 0.3216(3) 0.14712(18)
C7 C 0.14668(16) 0.4214(2) 0.14487(16)
C8 C 0.14954(17) 0.5374(3) 0.29191(17)
Fe1F Fe 0.2500 0.7500 0.5000
Fe1F_2 Fe 0.2500 -0.2500 -0.5000
N1E N 0.11534(13) 0.1131(2) -0.07140(13)
N2E N -0.22254(17) 0.2430(3) -0.15464(18)
N3E N 0.32164(14) 0.1292(2) -0.08770(14)
N4E N 0.40003(14) 0.0279(2) -0.20221(15)
N5E N 0.31493(14) -0.0972(2) -0.37101(14)
N5F N 0.18507(14) 0.4028(2) -0.12899(14)
N5C N 0.31493(14) 0.0972(2) 0.12899(14)
C1E C 0.11678(18) -0.0351(3) -0.08541(17)
H1E H 0.1779 -0.0821 -0.0691
C2E C 0.03155(19) -0.1205(3) -0.12298(18)
H2E H 0.0356 -0.2228 -0.1320
C3E C -0.05929(19) -0.0537(3) -0.14695(17)
H3E H -0.1177 -0.1094 -0.1721
C4E C -0.06155(17) 0.0996(3) -0.13258(16)
C5E C 0.02714(16) 0.1779(3) -0.09621(16)
H4E H 0.0249 0.2809 -0.0888
C6E C -0.15265(19) 0.1784(3) -0.14712(18)
C7E C 0.35332(16) 0.0786(2) -0.14487(16)
C8E C 0.35046(17) -0.0374(3) -0.29191(17)
loop_
_geom_bond_atom_site_label_1
_geom_bond_atom_site_label_2
_geom_bond_site_symmetry_1
_geom_bond_site_symmetry_2
Fe1 N1 1_555 1_555
N1 C1 1_555 1_555
N2 C6 1_555 1_555
N3 Fe1 1_555 1_555
N4 C7 1_555 1_555
N5 C8 1_555 1_555
C1 H1 1_555 1_555
C2 C1 1_555 1_555
H2 C2 1_555 1_555
C3 C2 1_555 1_555
H3 C3 1_555 1_555
C4 C3 1_555 1_555
C5 N1 1_555 1_555
H4 C5 1_555 1_555
C6 C4 1_555 1_555
C7 N3 1_555 1_555
C8 N4 1_555 1_555
Fe1F N5 1_555 1_555
Fe1F_2 N5E 1_555 1_555
N1E Fe1 1_555 1_555
N2E C6E 1_555 1_555
N3E Fe1 1_555 1_555
N4E C7E 1_555 1_555
N5E C8E 1_555 1_555
N5F Fe1 1_555 1_555
N5C Fe1 1_555 1_555
C1E N1E 1_555 1_555
H1E C1E 1_555 1_555
C2E C1E 1_555 1_555
H2E C2E 1_555 1_555
C3E C2E 1_555 1_555
H3E C3E 1_555 1_555
C4E C3E 1_555 1_555
C5E N1E 1_555 1_555
H4E C5E 1_555 1_555
C6E C4E 1_555 1_555
C7E N3E 1_555 1_555
C8E N4E 1_555 1_555
C4 C5 1_555 1_555
C4E C5E 1_555 1_555

#END
