
#######################################################################
#
#                 Cambridge Crystallographic Data Centre
#                                CCDC 
#
#######################################################################
#
# If this CIF has been generated from an entry in the Cambridge 
# Structural Database, then it will include bibliographic, chemical, 
# crystal, experimental, refinement or atomic coordinate data resulting 
# from the CCDC's data processing and validation procedures.
#
#######################################################################

data_VETDAA
_symmetry_cell_setting           monoclinic
_symmetry_space_group_name_H-M   'C 2/c'
_symmetry_Int_Tables_number      15
_space_group_name_Hall           '-C 2yn'
loop_
_symmetry_equiv_pos_site_id
_symmetry_equiv_pos_as_xyz
1 x,y,z
2 1/2+x,1/2+y,z
3 -x,y,1/2-z
4 1/2-x,1/2+y,1/2-z
5 -x,-y,-z
6 1/2-x,1/2-y,-z
7 x,-y,1/2+z
8 1/2+x,1/2-y,1/2+z
_cell_length_a                   13.4474(5)
_cell_length_b                   11.7566(2)
_cell_length_c                   19.5380(6)
_cell_angle_alpha                90
_cell_angle_beta                 92.930(2)
_cell_angle_gamma                90
_cell_volume                     3084.84
loop_
_atom_site_label
_atom_site_type_symbol
_atom_site_fract_x
_atom_site_fract_y
_atom_site_fract_z
Cu1 Cu 0.63853(6) 0.73861(6) 0.06365(4)
O1 O 0.7383(7) 0.8744(13) 0.0201(6)
O3 O 0.8337(6) 0.9487(6) -0.0506(4)
O4 O 0.5387(7) 0.8686(8) 0.1114(5)
O5 O 0.4961(6) 0.6933(7) 0.1312(4)
N1 N 0.7436(7) 0.7339(6) 0.1580(5)
N2 N 1.0414(6) 0.7508(7) 0.4657(5)
C1 C 0.7945(8) 0.8243(8) 0.1775(5)
H2 H 0.7902 0.8882 0.1494
C2 C 0.8540(7) 0.8309(8) 0.2369(6)
H3 H 0.8879 0.8975 0.2488
C3 C 0.8616(7) 0.7360(7) 0.2781(6)
C4 C 0.8112(8) 0.6397(8) 0.2583(6)
H4 H 0.8158 0.5742 0.2849
C5 C 0.7525(9) 0.6416(9) 0.1970(6)
H5 H 0.7186 0.5759 0.1831
C6 C 1.0014(9) 0.8425(10) 0.4386(6)
H6 H 1.0134 0.9118 0.4605
C7 C 0.9404(8) 0.8408(9) 0.3772(6)
H7 H 0.9123 0.9075 0.3594
C8 C 0.9240(7) 0.7396(7) 0.3450(6)
C9 C 0.9640(9) 0.6425(9) 0.3738(6)
H8 H 0.9513 0.5719 0.3538
C10 C 1.0242(8) 0.6519(9) 0.4338(6)
H9 H 1.0535 0.5865 0.4523
C11 C 0.7503(12) 1.0782(18) 0.0157(8)
H10 H 0.7021 1.0780 0.0503
H11 H 0.7242 1.1194 -0.0237
H12 H 0.8103 1.1141 0.0334
C12 C 0.7721(8) 0.9607(10) -0.0040(5)
C13 C 0.3887(11) 0.8415(15) 0.1729(9)
H13 H 0.3877 0.9231 0.1713
H14 H 0.3931 0.8168 0.2198
H15 H 0.3288 0.8122 0.1506
C14 C 0.4809(8) 0.7965(10) 0.1355(6)
Cu1E Cu 0.86147(6) 0.76139(6) -0.06365(4)
Cu1G Cu 1.13853(6) 0.76139(6) 0.56365(4)
Cu1G_2 Cu 0.13853(6) 0.76139(6) -0.43635(4)
O1E O 0.7617(7) 0.6256(13) -0.0201(6)
O3E O 0.6663(6) 0.5513(6) 0.0506(4)
O4E O 0.9613(7) 0.6314(8) -0.1114(5)
O5E O 1.0039(6) 0.8067(7) -0.1312(4)
N1G N 0.2436(7) 0.7661(6) -0.3420(5)
N1E N 0.7564(7) 0.7661(6) -0.1580(5)
N2G N 0.5414(6) 0.7492(7) -0.0343(5)
N2B N 0.9586(6) 0.7508(7) 0.0343(5)
C1G C 0.2945(8) 0.6757(8) -0.3225(5)
H2G H 0.2902 0.6118 -0.3506
C2G C 0.3540(7) 0.6691(8) -0.2631(6)
H3G H 0.3879 0.6025 -0.2512
C3G C 0.3616(7) 0.7640(7) -0.2219(6)
C4G C 0.3112(8) 0.8603(8) -0.2417(6)
H4G H 0.3158 0.9258 -0.2151
C5G C 0.2525(9) 0.8584(9) -0.3030(6)
H5G H 0.2186 0.9241 -0.3169
C6G C 0.5014(9) 0.6575(10) -0.0614(6)
H6G H 0.5134 0.5882 -0.0395
C7G C 0.4404(8) 0.6592(9) -0.1228(6)
H7G H 0.4123 0.5925 -0.1406
C8G C 0.4240(7) 0.7604(7) -0.1550(6)
C9G C 0.4640(9) 0.8575(9) -0.1262(6)
H8G H 0.4513 0.9281 -0.1462
C10G C 0.5242(8) 0.8481(9) -0.0662(6)
H9G H 0.5535 0.9135 -0.0477
C11E C 0.7497(12) 0.4218(18) -0.0157(8)
H10E H 0.7979 0.4220 -0.0503
H11E H 0.7758 0.3806 0.0237
H12E H 0.6897 0.3859 -0.0334
C12E C 0.7279(8) 0.5393(10) 0.0040(5)
C13E C 1.1113(11) 0.6585(15) -0.1729(9)
H13E H 1.1123 0.5769 -0.1713
H14E H 1.1069 0.6832 -0.2198
H15E H 1.1712 0.6878 -0.1506
C14E C 1.0191(8) 0.7035(10) -0.1355(6)
O2 O 0.5000 0.5554(9) 0.2500
H1 H 0.548(9) 0.579(13) 0.276(8)
H1B H 0.452(9) 0.579(13) 0.224(8)
loop_
_geom_bond_atom_site_label_1
_geom_bond_atom_site_label_2
_geom_bond_site_symmetry_1
_geom_bond_site_symmetry_2
Cu1 O1 1_555 1_555
O1 C12 1_555 1_555
O2 H1 1_555 1_555
O3 C12 1_555 1_555
O4 Cu1 1_555 1_555
O5 Cu1 1_555 1_555
N1 Cu1 1_555 1_555
N2 C6 1_555 1_555
C1 N1 1_555 1_555
H2 C1 1_555 1_555
C2 C1 1_555 1_555
H3 C2 1_555 1_555
C3 C2 1_555 1_555
C4 C3 1_555 1_555
H4 C4 1_555 1_555
C5 N1 1_555 1_555
H5 C5 1_555 1_555
C6 H6 1_555 1_555
C7 C6 1_555 1_555
H7 C7 1_555 1_555
C8 C3 1_555 1_555
C9 C8 1_555 1_555
H8 C9 1_555 1_555
C10 N2 1_555 1_555
H9 C10 1_555 1_555
C11 H10 1_555 1_555
H11 C11 1_555 1_555
H12 C11 1_555 1_555
C12 C11 1_555 1_555
C13 H13 1_555 1_555
H14 C13 1_555 1_555
H15 C13 1_555 1_555
C14 O4 1_555 1_555
Cu1E O3 1_555 1_555
Cu1G N2 1_555 1_555
Cu1G_2 N1G 1_555 1_555
O1E Cu1E 1_555 1_555
H1B O2 1_555 1_555
O3E Cu1 1_555 1_555
O4E Cu1E 1_555 1_555
O5E Cu1E 1_555 1_555
N1G C1G 1_555 1_555
N1E Cu1E 1_555 1_555
N2G Cu1 1_555 1_555
N2B Cu1E 1_555 1_555
C1G H2G 1_555 1_555
C2G C1G 1_555 1_555
H3G C2G 1_555 1_555
C3G C2G 1_555 1_555
C4G C3G 1_555 1_555
H4G C4G 1_555 1_555
C5G N1G 1_555 1_555
H5G C5G 1_555 1_555
C6G N2G 1_555 1_555
H6G C6G 1_555 1_555
C7G C6G 1_555 1_555
H7G C7G 1_555 1_555
C8G C3G 1_555 1_555
C9G C8G 1_555 1_555
H8G C9G 1_555 1_555
C10G N2G 1_555 1_555
H9G C10G 1_555 1_555
C11E H10E 1_555 1_555
H11E C11E 1_555 1_555
H12E C11E 1_555 1_555
C12E O1E 1_555 1_555
C13E H13E 1_555 1_555
H14E C13E 1_555 1_555
H15E C13E 1_555 1_555
C14E O4E 1_555 1_555
O5 C14 1_555 1_555
C4 C5 1_555 1_555
C7 C8 1_555 1_555
C9 C10 1_555 1_555
C13 C14 1_555 1_555
O3E C12E 1_555 1_555
O5E C14E 1_555 1_555
C4G C5G 1_555 1_555
C7G C8G 1_555 1_555
C9G C10G 1_555 1_555
C11E C12E 1_555 1_555
C13E C14E 1_555 1_555

#END
