
#######################################################################
#
#                 Cambridge Crystallographic Data Centre
#                                CCDC 
#
#######################################################################
#
# If this CIF has been generated from an entry in the Cambridge 
# Structural Database, then it will include bibliographic, chemical, 
# crystal, experimental, refinement or atomic coordinate data resulting 
# from the CCDC's data processing and validation procedures.
#
#######################################################################

data_VETFUV
_symmetry_cell_setting           tetragonal
_symmetry_space_group_name_H-M   'P 43 21 2'
_symmetry_Int_Tables_number      96
_space_group_name_Hall           'P 4nw 2abw'
loop_
_symmetry_equiv_pos_site_id
_symmetry_equiv_pos_as_xyz
1 x,y,z
2 1/2-y,1/2+x,3/4+z
3 -x,-y,1/2+z
4 1/2+y,1/2-x,1/4+z
5 y,x,-z
6 1/2+x,1/2-y,1/4-z
7 -y,-x,1/2-z
8 1/2-x,1/2+y,3/4-z
_cell_length_a                   14.028(1)
_cell_length_b                   14.028(1)
_cell_length_c                   55.295(8)
_cell_angle_alpha                90
_cell_angle_beta                 90
_cell_angle_gamma                90
_cell_volume                     10881.2
loop_
_atom_site_label
_atom_site_type_symbol
_atom_site_fract_x
_atom_site_fract_y
_atom_site_fract_z
Cd1 Cd 0.48687(4) 0.76099(4) 0.13882(1)
Cd2 Cd 0.76907(4) 0.72209(4) 0.15192(1)
Cd3 Cd 0.58335(4) 0.64753(4) 0.20399(1)
Cd4 Cd 0.49245(4) 0.50755(4) 0.24999
S1 S 0.3412(1) 0.8775(1) 0.1322
S2 S 0.4364(2) 0.6997(2) 0.0983(1)
S3 S 0.5148(1) 0.6880(1) 0.2466
S4 S 0.5624(2) 0.4618(1) 0.2095
S5 S 0.6408(1) 0.8465(1) 0.1462
S6 S 0.4379(1) 0.7054(1) 0.1810
S7 S 0.7549(1) 0.6846(2) 0.1969
C1 C 0.3625(3) 0.9985(4) 0.1263(1)
C2 C 0.3317(4) 1.0614(6) 0.1442(2)
C3 C 0.3449(6) 1.1594(5) 0.1414(2)
C4 C 0.3890(6) 1.1946(4) 0.1205(2)
C5 C 0.4198(5) 1.1316(5) 0.1026(2)
C6 C 0.4065(4) 1.0336(5) 0.1055(1)
C7 C 0.4401(6) 0.9688(7) 0.0861(2)
C8 C 0.4544(4) 0.5841(4) 0.0870(1)
C9 C 0.3793(4) 0.5188(5) 0.0864(1)
C10 C 0.3943(5) 0.4270(5) 0.0774(2)
C11 C 0.4843(6) 0.4005(4) 0.0689(1)
C12 C 0.5593(5) 0.4659(5) 0.0695(1)
C13 C 0.5444(4) 0.5576(4) 0.0785(1)
C14 C 0.6256(5) 0.6252(7) 0.0789(2)
C15 C 0.6123(3) 0.7234(3) 0.2642(1)
C16 C 0.6860(4) 0.6596(4) 0.2694(1)
C17 C 0.7633(4) 0.6889(6) 0.2834(1)
C18 C 0.7670(4) 0.7820(6) 0.2923(1)
C19 C 0.6934(5) 0.8458(4) 0.2872(1)
C20 C 0.6160(4) 0.8165(3) 0.2731(1)
C21 C 0.5391(6) 0.8860(5) 0.2680(2)
C22 C 0.6725(4) 0.4036(4) 0.2155(1)
C23 C 0.7515(5) 0.4563(4) 0.2231(1)
C24 C 0.8378(4) 0.4103(6) 0.2278(1)
C25 C 0.8452(4) 0.3117(6) 0.2249(1)
C26 C 0.7661(5) 0.2591(4) 0.2173(1)
C27 C 0.6797(5) 0.3050(4) 0.2127(1)
C28 C 0.5972(7) 0.2470(6) 0.2047(2)
C29 C 0.6733(2) 0.9319(3) 0.1241(1)
C30 C 0.7158(3) 0.9024(3) 0.1026(1)
C31 C 0.7416(4) 0.9696(4) 0.0851(1)
C32 C 0.7248(3) 1.0664(4) 0.0893(1)
C33 C 0.6822(4) 1.0959(3) 0.1108(1)
C34 C 0.6565(3) 1.0286(3) 0.1283(1)
C35 C 0.6115(5) 1.0624(4) 0.1510(1)
C36 C 0.4023(3) 0.8096(3) 0.1968(1)
C37 C 0.4541(3) 0.8937(3) 0.1938(1)
C38 C 0.4267(4) 0.9762(3) 0.2061(1)
C39 C 0.3475(4) 0.9745(3) 0.2214(1)
C40 C 0.2957(3) 0.8903(4) 0.2244(1)
C41 C 0.3231(3) 0.8079(3) 0.2121(1)
C42 C 0.2665(4) 0.7197(4) 0.2156(1)
C43 C 0.7858(4) 0.7935(4) 0.2111(1)
C44 C 0.7172(4) 0.8649(5) 0.2138(1)
C45 C 0.7411(7) 0.9508(5) 0.2250(1)
C46 C 0.8336(7) 0.9654(4) 0.2335(1)
C47 C 0.9021(5) 0.8940(6) 0.2309(1)
C48 C 0.8783(4) 0.8081(5) 0.2197(1)
C49 C 0.9528(5) 0.7337(7) 0.2172(1)
H1 H 0.3001(5) 1.0362(8) 0.1591(2)
H2 H 0.3229(7) 1.2044(7) 0.1542(2)
H3 H 0.3984(7) 1.2647(4) 0.1185(3)
H4 H 0.4513(6) 1.1568(7) 0.0877(2)
H5 H 0.4736(40) 1.0127(28) 0.0728(8)
H6 H 0.3845(25) 0.9345(39) 0.0792(9)
H7 H 0.4852(40) 0.9250(35) 0.0937(6)
H8 H 0.3149(4) 0.5377(7) 0.0924(2)
H9 H 0.3405(7) 0.3803(6) 0.0770(2)
H10 H 0.4949(8) 0.3349(4) 0.0625(2)
H11 H 0.6238(6) 0.4469(7) 0.0635(2)
H12 H 0.6820(32) 0.5962(33) 0.0706(11)
H13 H 0.6431(39) 0.6426(46) 0.0968(7)
H14 H 0.6070(29) 0.6875(31) 0.0702(13)
H15 H 0.6833(5) 0.5930(4) 0.2630(2)
H16 H 0.8160(5) 0.6432(7) 0.2871(2)
H17 H 0.8224(5) 0.8029(8) 0.3024(1)
H18 H 0.6960(7) 0.9124(5) 0.2936(1)
H19 H 0.5507(28) 0.9475(26) 0.2761(9)
H20 H 0.4757(24) 0.8593(28) 0.2734(10)
H21 H 0.5384(35) 0.8994(36) 0.2498(6)
H22 H 0.7463(7) 0.5269(4) 0.2251(2)
H23 H 0.8944(5) 0.4480(8) 0.2332(2)
H24 H 0.9069(5) 0.2788(8) 0.2282(2)
H25 H 0.7713(8) 0.1884(4) 0.2153(2)
H26 H 0.6217(28) 0.1822(28) 0.2018(12)
H27 H 0.5682(38) 0.2750(36) 0.1894(9)
H28 H 0.5482(31) 0.2459(44) 0.2180(8)
H29 H 0.7278(5) 0.8331(3) 0.0996(1)
H30 H 0.7720(5) 0.9485(5) 0.0697(1)
H31 H 0.7432(4) 1.1145(5) 0.0768(1)
H32 H 0.6702(5) 1.1651(3) 0.1138(1)
H33 H 0.6019(32) 1.1297(20) 0.1498(6)
H34 H 0.6514(25) 1.0483(33) 0.1644(5)
H35 H 0.5504(23) 1.0314(32) 0.1527(6)
H36 H 0.5108(4) 0.8950(5) 0.1829(1)
H37 H 0.4638(5) 1.0365(3) 0.2040(2)
H38 H 0.3278(6) 1.0335(3) 0.2302(1)
H39 H 0.2389(4) 0.8891(5) 0.2353(1)
H40 H 0.2138(25) 0.7336(20) 0.2269(7)
H41 H 0.2387(31) 0.6983(26) 0.1995(5)
H42 H 0.3067(20) 0.6678(21) 0.2234(9)
H43 H 0.6510(4) 0.8545(7) 0.2076(1)
H44 H 0.6920(8) 1.0020(6) 0.2268(2)
H45 H 0.8507(9) 1.0269(5) 0.2416(1)
H46 H 0.9683(6) 0.9044(7) 0.2371(1)
H47 H 1.0112(26) 0.7547(24) 0.2263(8)
H48 H 0.9692(28) 0.7246(25) 0.1993(6)
H49 H 0.9290(15) 0.6717(14) 0.2242(6)
S3F S 0.3120(1) 0.4852(1) 0.2534
C15F C 0.2766(3) 0.3877(3) 0.2358(1)
C16F C 0.3404(4) 0.3140(4) 0.2306(1)
C17F C 0.3111(6) 0.2367(4) 0.2166(1)
C18F C 0.2180(6) 0.2330(4) 0.2077(1)
C19F C 0.1542(4) 0.3066(5) 0.2128(1)
C20F C 0.1835(3) 0.3840(4) 0.2269(1)
C21F C 0.1140(5) 0.4609(6) 0.2320(2)
H15F H 0.4070(4) 0.3167(5) 0.2370(2)
H16F H 0.3568(7) 0.1840(5) 0.2129(2)
H17F H 0.1971(8) 0.1776(5) 0.1976(1)
H18F H 0.0876(5) 0.3040(7) 0.2064(1)
H19F H 0.0525(26) 0.4493(28) 0.2239(9)
H20F H 0.1407(28) 0.5243(24) 0.2266(10)
H21F H 0.1006(36) 0.4616(35) 0.2502(6)
S4F S 0.5382(1) 0.4376(2) 0.2905
C22F C 0.5964(4) 0.3275(4) 0.2845(1)
C23F C 0.5437(4) 0.2485(5) 0.2769(1)
C24F C 0.5897(6) 0.1622(4) 0.2722(1)
C25F C 0.6883(6) 0.1548(4) 0.2751(1)
C26F C 0.7409(4) 0.2339(5) 0.2827(1)
C27F C 0.6950(4) 0.3203(5) 0.2873(1)
C28F C 0.7530(6) 0.4028(7) 0.2953(2)
H22F H 0.4731(4) 0.2537(7) 0.2749(2)
H23F H 0.5520(8) 0.1056(5) 0.2668(2)
H24F H 0.7212(8) 0.0931(5) 0.2718(2)
H25F H 0.8116(4) 0.2287(8) 0.2847(2)
H26F H 0.8178(28) 0.3783(28) 0.2982(12)
H27F H 0.7250(36) 0.4318(38) 0.3106(9)
H28F H 0.7541(44) 0.4518(31) 0.2820(8)
Cd3F Cd 0.35247(4) 0.41665(4) 0.29601(1)
S6F S 0.2946(1) 0.5621(1) 0.3190
C36F C 0.1904(3) 0.5977(3) 0.3032(1)
C37F C 0.1063(3) 0.5459(3) 0.3062(1)
C38F C 0.0238(3) 0.5733(4) 0.2939(1)
C39F C 0.0255(3) 0.6525(4) 0.2786(1)
C40F C 0.1097(4) 0.7043(3) 0.2756(1)
C41F C 0.1921(3) 0.6769(3) 0.2879(1)
C42F C 0.2803(4) 0.7335(4) 0.2844(1)
H36F H 0.1050(5) 0.4892(4) 0.3171(1)
H37F H -0.0365(3) 0.5362(5) 0.2960(2)
H38F H -0.0335(3) 0.6722(6) 0.2698(1)
H39F H 0.1109(5) 0.7611(4) 0.2647(1)
H40F H 0.2664(20) 0.7862(25) 0.2731(7)
H41F H 0.3017(26) 0.7613(31) 0.3005(5)
H42F H 0.3322(21) 0.6933(20) 0.2766(9)
S7F S 0.3154(2) 0.2451(1) 0.3031
C43F C 0.2065(4) 0.2142(4) 0.2889(1)
C44F C 0.1351(5) 0.2828(4) 0.2862(1)
C45F C 0.0492(5) 0.2589(7) 0.2750(1)
C46F C 0.0346(4) 0.1664(7) 0.2665(1)
C47F C 0.1060(6) 0.0979(5) 0.2691(1)
C48F C 0.1919(5) 0.1217(4) 0.2803(1)
C49F C 0.2663(7) 0.0472(5) 0.2828(1)
H43F H 0.1455(7) 0.3490(4) 0.2924(1)
H44F H -0.0020(6) 0.3080(8) 0.2732(2)
H45F H -0.0269(5) 0.1493(9) 0.2584(1)
H46F H 0.0956(7) 0.0317(6) 0.2629(1)
H47F H 0.2453(24) -0.0112(26) 0.2737(8)
H48F H 0.2754(25) 0.0308(28) 0.3007(6)
H49F H 0.3283(14) 0.0710(15) 0.2758(6)
Cd1F Cd 0.23901(4) 0.51313(4) 0.36118(1)
Cd2F Cd 0.27791(4) 0.23093(4) 0.34808(1)
S1E S 0.8412(1) 0.6225(1) 0.1178
C1E C 0.8625(3) 0.5015(4) 0.1237(1)
C2E C 0.8317(4) 0.4386(6) 0.1058(2)
C3E C 0.8449(6) 0.3406(5) 0.1086(2)
C4E C 0.8890(6) 0.3054(4) 0.1295(2)
C5E C 0.9198(5) 0.3684(5) 0.1474(2)
C6E C 0.9065(4) 0.4664(5) 0.1445(1)
C7E C 0.9401(6) 0.5312(7) 0.1639(2)
H1E H 0.8001(5) 0.4638(8) 0.0909(2)
H2E H 0.8229(7) 0.2956(7) 0.0958(2)
H3E H 0.8984(7) 0.2353(4) 0.1315(3)
H4E H 0.9513(6) 0.3432(7) 0.1623(2)
H5E H 0.9736(40) 0.4873(28) 0.1772(8)
H6E H 0.8845(25) 0.5655(39) 0.1708(9)
H7E H 0.9852(40) 0.5750(35) 0.1563(6)
S2E S 0.9364(2) 0.8003(2) 0.1517(1)
C8E C 0.9544(4) 0.9159(4) 0.1630(1)
C9E C 0.8793(4) 0.9812(5) 0.1636(1)
C10E C 0.8943(5) 1.0730(5) 0.1726(2)
C11E C 0.9843(6) 1.0995(4) 0.1811(1)
C12E C 1.0593(5) 1.0341(5) 0.1805(1)
C13E C 1.0444(4) 0.9424(4) 0.1715(1)
C14E C 1.1256(5) 0.8748(7) 0.1711(2)
H8E H 0.8149(4) 0.9623(7) 0.1576(2)
H9E H 0.8405(7) 1.1197(6) 0.1730(2)
H10E H 0.9949(8) 1.1651(4) 0.1875(2)
H11E H 1.1238(6) 1.0531(7) 0.1865(2)
H12E H 1.1820(32) 0.9038(33) 0.1794(11)
H13E H 1.1431(39) 0.8574(46) 0.1532(7)
H14E H 1.1070(29) 0.8125(31) 0.1798(13)
S5F S 0.1535(1) 0.3592(1) 0.3538
C29F C 0.0681(3) 0.3267(2) 0.3759(1)
C30F C 0.0976(3) 0.2842(3) 0.3974(1)
C31F C 0.0304(4) 0.2584(4) 0.4149(1)
C32F C -0.0664(4) 0.2752(3) 0.4107(1)
C33F C -0.0959(3) 0.3178(4) 0.3892(1)
C34F C -0.0286(3) 0.3435(3) 0.3717(1)
C35F C -0.0624(4) 0.3885(5) 0.3490(1)
H29F H 0.1669(3) 0.2722(5) 0.4004(1)
H30F H 0.0515(5) 0.2280(5) 0.4303(1)
H31F H -0.1145(5) 0.2568(4) 0.4232(1)
H32F H -0.1651(3) 0.3298(5) 0.3862(1)
H33F H -0.1297(20) 0.3981(32) 0.3502(6)
H34F H -0.0483(33) 0.3486(25) 0.3356(5)
H35F H -0.0314(32) 0.4496(23) 0.3473(6)
Cd2E Cd 0.26907(4) 0.77791(4) 0.09808(1)
S1F S 0.1225(1) 0.6588(1) 0.3678
S2F S 0.3003(2) 0.5636(2) 0.4017(1)
S1C S 0.3775(1) 0.1588(1) 0.3822
S2C S 0.1997(2) 0.0636(2) 0.3483(1)
Cd1E Cd 0.98687(4) 0.73901(4) 0.11118(1)
O1 O 0.6159(5) 0.6035(4) 0.1518(1)
N1 N 0.5697(6) 0.4512(5) 0.1438(2)
C57 C 0.6335(8) 0.5218(7) 0.1467(2)
C58 C 0.4644(9) 0.4667(8) 0.1477(3)
C59 C 0.5991(11) 0.3532(8) 0.1382(3)
S8? S 0.9077(7) 0.8560(7) 0.1398(2)
C50? C 0.9838(13) 0.9120(12) 0.1599(2)
C51? C 1.0743(15) 0.8716(16) 0.1621(4)
C52? C 1.1402(14) 0.9109(22) 0.1782(5)
C53? C 1.1156(18) 0.9905(22) 0.1921(4)
C54? C 1.0250(20) 1.0308(17) 0.1898(4)
C55? C 0.9592(14) 0.9916(14) 0.1737(3)
C56? C 0.8637(18) 1.0362(22) 0.1717(7)
H50? H 1.0920(21) 0.8146(19) 0.1522(6)
H51? H 1.2051(15) 0.8820(29) 0.1799(7)
H52? H 1.1628(24) 1.0186(28) 0.2036(5)
H53? H 1.0074(28) 1.0878(20) 0.1996(5)
loop_
_geom_bond_atom_site_label_1
_geom_bond_atom_site_label_2
_geom_bond_site_symmetry_1
_geom_bond_site_symmetry_2
Cd1 S1 1_555 1_555
Cd2 S5 1_555 1_555
Cd3 S3 1_555 1_555
Cd4 S3 1_555 1_555
S1 C1 1_555 1_555
S2 Cd1 1_555 1_555
S3 C15 1_555 1_555
S4 Cd3 1_555 1_555
S5 Cd1 1_555 1_555
S6 Cd1 1_555 1_555
S7 Cd2 1_555 1_555
C1 C2 1_555 1_555
C2 C3 1_555 1_555
C3 C4 1_555 1_555
C4 C5 1_555 1_555
C5 C6 1_555 1_555
C6 C1 1_555 1_555
C7 C6 1_555 1_555
C8 S2 1_555 1_555
C9 C8 1_555 1_555
C10 C9 1_555 1_555
C11 C10 1_555 1_555
C12 C11 1_555 1_555
C13 C8 1_555 1_555
C14 C13 1_555 1_555
C15 C16 1_555 1_555
C16 C17 1_555 1_555
C17 C18 1_555 1_555
C18 C19 1_555 1_555
C19 C20 1_555 1_555
C20 C15 1_555 1_555
C21 C20 1_555 1_555
C22 S4 1_555 1_555
C23 C22 1_555 1_555
C24 C23 1_555 1_555
C25 C24 1_555 1_555
C26 C25 1_555 1_555
C27 C22 1_555 1_555
C28 C27 1_555 1_555
C29 S5 1_555 1_555
C30 C29 1_555 1_555
C31 C30 1_555 1_555
C32 C31 1_555 1_555
C33 C32 1_555 1_555
C34 C29 1_555 1_555
C35 C34 1_555 1_555
C36 S6 1_555 1_555
C37 C36 1_555 1_555
C38 C37 1_555 1_555
C39 C38 1_555 1_555
C40 C39 1_555 1_555
C41 C36 1_555 1_555
C42 C41 1_555 1_555
C43 S7 1_555 1_555
C44 C43 1_555 1_555
C45 C44 1_555 1_555
C46 C45 1_555 1_555
C47 C46 1_555 1_555
C48 C43 1_555 1_555
C49 C48 1_555 1_555
O1 C57 1_555 1_555
N1 C57 1_555 1_555
C58 N1 1_555 1_555
C59 N1 1_555 1_555
H1 C2 1_555 1_555
H2 C3 1_555 1_555
H3 C4 1_555 1_555
H4 C5 1_555 1_555
H5 C7 1_555 1_555
H6 C7 1_555 1_555
H7 C7 1_555 1_555
H8 C9 1_555 1_555
H9 C10 1_555 1_555
H10 C11 1_555 1_555
H11 C12 1_555 1_555
H12 C14 1_555 1_555
H13 C14 1_555 1_555
H14 C14 1_555 1_555
H15 C16 1_555 1_555
H16 C17 1_555 1_555
H17 C18 1_555 1_555
H18 C19 1_555 1_555
H19 C21 1_555 1_555
H20 C21 1_555 1_555
H21 C21 1_555 1_555
H22 C23 1_555 1_555
H23 C24 1_555 1_555
H24 C25 1_555 1_555
H25 C26 1_555 1_555
H26 C28 1_555 1_555
H27 C28 1_555 1_555
H28 C28 1_555 1_555
H29 C30 1_555 1_555
H30 C31 1_555 1_555
H31 C32 1_555 1_555
H32 C33 1_555 1_555
H33 C35 1_555 1_555
H34 C35 1_555 1_555
H35 C35 1_555 1_555
H36 C37 1_555 1_555
H37 C38 1_555 1_555
H38 C39 1_555 1_555
H39 C40 1_555 1_555
H40 C42 1_555 1_555
H41 C42 1_555 1_555
H42 C42 1_555 1_555
H43 C44 1_555 1_555
H44 C45 1_555 1_555
H45 C46 1_555 1_555
H46 C47 1_555 1_555
H47 C49 1_555 1_555
H48 C49 1_555 1_555
H49 C49 1_555 1_555
S3F Cd4 1_555 1_555
C15F S3F 1_555 1_555
C16F C15F 1_555 1_555
C17F C16F 1_555 1_555
C18F C17F 1_555 1_555
C19F C18F 1_555 1_555
C20F C15F 1_555 1_555
C21F C20F 1_555 1_555
H15F C16F 1_555 1_555
H16F C17F 1_555 1_555
H17F C18F 1_555 1_555
H18F C19F 1_555 1_555
H19F C21F 1_555 1_555
H20F C21F 1_555 1_555
H21F C21F 1_555 1_555
S4F Cd4 1_555 1_555
C22F S4F 1_555 1_555
C23F C22F 1_555 1_555
C24F C23F 1_555 1_555
C25F C24F 1_555 1_555
C26F C25F 1_555 1_555
C27F C22F 1_555 1_555
C28F C27F 1_555 1_555
H22F C23F 1_555 1_555
H23F C24F 1_555 1_555
H24F C25F 1_555 1_555
H25F C26F 1_555 1_555
H26F C28F 1_555 1_555
H27F C28F 1_555 1_555
H28F C28F 1_555 1_555
Cd3F S3F 1_555 1_555
S6F Cd3F 1_555 1_555
C36F S6F 1_555 1_555
C37F C36F 1_555 1_555
C38F C37F 1_555 1_555
C39F C38F 1_555 1_555
C40F C39F 1_555 1_555
C41F C36F 1_555 1_555
C42F C41F 1_555 1_555
H36F C37F 1_555 1_555
H37F C38F 1_555 1_555
H38F C39F 1_555 1_555
H39F C40F 1_555 1_555
H40F C42F 1_555 1_555
H41F C42F 1_555 1_555
H42F C42F 1_555 1_555
S7F Cd3F 1_555 1_555
C43F S7F 1_555 1_555
C44F C43F 1_555 1_555
C45F C44F 1_555 1_555
C46F C45F 1_555 1_555
C47F C46F 1_555 1_555
C48F C43F 1_555 1_555
C49F C48F 1_555 1_555
H43F C44F 1_555 1_555
H44F C45F 1_555 1_555
H45F C46F 1_555 1_555
H46F C47F 1_555 1_555
H47F C49F 1_555 1_555
H48F C49F 1_555 1_555
H49F C49F 1_555 1_555
Cd1F S6F 1_555 1_555
Cd2F S7F 1_555 1_555
S1E Cd2 1_555 1_555
C1E S1E 1_555 1_555
C2E C1E 1_555 1_555
C3E C2E 1_555 1_555
C4E C3E 1_555 1_555
C5E C4E 1_555 1_555
C6E C1E 1_555 1_555
C7E C6E 1_555 1_555
H1E C2E 1_555 1_555
H2E C3E 1_555 1_555
H3E C4E 1_555 1_555
H4E C5E 1_555 1_555
H5E C7E 1_555 1_555
H6E C7E 1_555 1_555
H7E C7E 1_555 1_555
S2E Cd2 1_555 1_555
C8E S2E 1_555 1_555
C9E C8E 1_555 1_555
C10E C9E 1_555 1_555
C11E C10E 1_555 1_555
C12E C11E 1_555 1_555
C13E C8E 1_555 1_555
C14E C13E 1_555 1_555
H8E C9E 1_555 1_555
H9E C10E 1_555 1_555
H10E C11E 1_555 1_555
H11E C12E 1_555 1_555
H12E C14E 1_555 1_555
H13E C14E 1_555 1_555
H14E C14E 1_555 1_555
S5F Cd1F 1_555 1_555
C29F S5F 1_555 1_555
C30F C29F 1_555 1_555
C31F C30F 1_555 1_555
C32F C31F 1_555 1_555
C33F C32F 1_555 1_555
C34F C29F 1_555 1_555
C35F C34F 1_555 1_555
H29F C30F 1_555 1_555
H30F C31F 1_555 1_555
H31F C32F 1_555 1_555
H32F C33F 1_555 1_555
H33F C35F 1_555 1_555
H34F C35F 1_555 1_555
H35F C35F 1_555 1_555
Cd2E S1 1_555 1_555
S1F Cd1F 1_555 1_555
S2F Cd1F 1_555 1_555
S1C Cd2F 1_555 1_555
S2C Cd2F 1_555 1_555
Cd1E S1E 1_555 1_555
Cd3 S6 1_555 1_555
Cd3 S7 1_555 1_555
Cd4 S4 1_555 1_555
S2 Cd2E 1_555 1_555
C12 C13 1_555 1_555
C26 C27 1_555 1_555
C33 C34 1_555 1_555
C40 C41 1_555 1_555
C47 C48 1_555 1_555
C19F C20F 1_555 1_555
S4F Cd3F 1_555 1_555
C26F C27F 1_555 1_555
C40F C41F 1_555 1_555
C47F C48F 1_555 1_555
Cd2F S5F 1_555 1_555
C5E C6E 1_555 1_555
S2E Cd1E 1_555 1_555
C12E C13E 1_555 1_555
C33F C34F 1_555 1_555

#END
