
#######################################################################
#
#                 Cambridge Crystallographic Data Centre
#                                CCDC 
#
#######################################################################
#
# If this CIF has been generated from an entry in the Cambridge 
# Structural Database, then it will include bibliographic, chemical, 
# crystal, experimental, refinement or atomic coordinate data resulting 
# from the CCDC's data processing and validation procedures.
#
#######################################################################

data_VETMUE
_symmetry_cell_setting           triclinic
_symmetry_space_group_name_H-M   'P -1'
_symmetry_Int_Tables_number      2
_space_group_name_Hall           '-P 1'
loop_
_symmetry_equiv_pos_site_id
_symmetry_equiv_pos_as_xyz
1 x,y,z
2 -x,-y,-z
_cell_length_a                   6.5097(8)
_cell_length_b                   7.7895(10)
_cell_length_c                   26.391(3)
_cell_angle_alpha                90.503(3)
_cell_angle_beta                 92.045(3)
_cell_angle_gamma                94.912(3)
_cell_volume                     1332.36
loop_
_atom_site_label
_atom_site_type_symbol
_atom_site_fract_x
_atom_site_fract_y
_atom_site_fract_z
C1 C -1.0347(5) 0.0651(4) -0.21139(12)
H1 H -1.0586 -0.0143 -0.2394
H2 H -1.0194 0.1807 -0.2238
H3 H -1.1496 0.0529 -0.1895
C2 C -0.8393(4) 0.0270(3) -0.18191(10)
H4 H -0.8552 -0.0909 -0.1701
H5 H -0.7249 0.0363 -0.2046
C3 C -0.7872(4) 0.1455(3) -0.13695(10)
H6 H -0.8975 0.1313 -0.1132
H7 H -0.7786 0.2639 -0.1483
C4 C -0.5851(4) 0.1119(3) -0.10983(9)
H8 H -0.5911 -0.0087 -0.1007
H9 H -0.4744 0.1327 -0.1332
C5 C -0.5326(4) 0.2206(3) -0.06240(9)
H10 H -0.6403 0.1969 -0.0383
H11 H -0.5301 0.3414 -0.0712
C6 C -0.3264(4) 0.1872(4) -0.03734(9)
H12 H -0.3287 0.0658 -0.0293
H13 H -0.2192 0.2122 -0.0615
C7 C -0.2705(4) 0.2915(3) 0.01054(9)
H14 H -0.3769 0.2663 0.0349
H15 H -0.2679 0.4130 0.0027
C8 C -0.0635(4) 0.2560(3) 0.03469(9)
H16 H -0.0670 0.1345 0.0427
H17 H 0.0422 0.2800 0.0101
C9 C -0.0030(4) 0.3601(3) 0.08252(9)
H18 H 0.0035 0.4817 0.0746
H19 H -0.1088 0.3374 0.1071
C10 C 0.2030(4) 0.3191(4) 0.10589(9)
H20 H 0.3077 0.3403 0.0809
H21 H 0.1953 0.1974 0.1138
C11 C 0.2709(4) 0.4221(3) 0.15392(9)
H22 H 0.2787 0.5441 0.1464
H23 H 0.1684 0.3998 0.1794
C12 C 0.4775(4) 0.3771(4) 0.17497(10)
H24 H 0.5758 0.3938 0.1483
H25 H 0.4656 0.2553 0.1828
C13 C 0.5683(3) 0.4741(3) 0.22165(8)
C14 C 0.4809(3) 0.6136(3) 0.24251(8)
H26 H 0.3604 0.6485 0.2274
C15 C 0.5665(3) 0.7033(3) 0.28516(8)
C16 C 0.7474(3) 0.6502(2) 0.30728(8)
C17 C 0.8420(3) 0.5118(3) 0.28714(8)
C18 C 0.7498(3) 0.4263(3) 0.24487(8)
H27 H 0.8116 0.3335 0.2315
C19 C 0.4649(4) 0.8539(3) 0.30617(10)
H28 H 0.3425 0.8707 0.2861
H29 H 0.5586 0.9558 0.3052
H30 H 0.4289 0.8311 0.3406
C20 C 1.0452(3) 0.4632(3) 0.30992(8)
H31 H 1.1055 0.3872 0.2864
H32 H 1.1386 0.5666 0.3141
C21 C 1.2340(3) 0.3598(3) 0.38184(8)
H33 H 1.3299 0.3534 0.3547
H34 H 1.2304 0.2515 0.3998
C22 C 0.9088(3) 0.2117(3) 0.35477(8)
H35 H 0.9937 0.1288 0.3402
H36 H 0.7911 0.2216 0.3317
C23 C 1.3176(3) 0.5042(3) 0.41856(8)
C24 C 0.8322(3) 0.1445(2) 0.40528(8)
Na1 Na 0.85166(12) 0.54714(10) 0.42372(3)
Na2 Na 1.46304(14) 0.73345(13) 0.50507(4)
O1 O 0.8442(3) 0.7283(2) 0.34932(6)
H37 H 0.799(4) 0.815(4) 0.3577(10)
O2 O 1.2053(2) 0.6171(2) 0.43134(7)
O3 O 1.4989(2) 0.4942(2) 0.43540(6)
O4 O 0.8383(2) 0.24286(18) 0.44293(5)
O5 O 0.7602(3) -0.01123(19) 0.40519(6)
N1 N 1.0276(2) 0.3776(2) 0.35909(6)
O6 O 0.8255(3) 0.7653(2) 0.48576(7)
H38 H 0.829(4) 0.846(4) 0.4685(10)
H39 H 0.923(5) 0.773(4) 0.5065(12)
O7 O 1.3788(4) 0.9663(3) 0.44626(9)
H40 H 1.294(4) 0.939(3) 0.4327(9)
H41 H 1.523(7) 0.969(6) 0.4276(17)
Na1_2 Na 1.85166(12) 0.54714(10) 0.42372(3)
Na2A Na 1.53696(14) 0.26655(13) 0.49493(4)
Na2A_2 Na 0.53696(14) 0.26655(13) 0.49493(4)
Na2_2 Na 0.46304(14) 0.73345(13) 0.50507(4)
Na2A_3 Na 1.53696(14) 1.26655(13) 0.49493(4)
O3_2 O 0.4989(2) 0.4942(2) 0.43540(6)
O3A O 1.5011(2) 0.5058(2) 0.56460(6)
O4A O 1.1617(2) 0.75714(18) 0.55707(5)
O6_2 O 1.8255(3) 0.7653(2) 0.48576(7)
H38_2 H 1.829(4) 0.846(4) 0.4685(10)
H39_2 H 1.923(5) 0.773(4) 0.5065(12)
O7A O 1.6212(4) 1.0337(3) 0.55374(9)
H40A H 1.706(4) 1.061(3) 0.5673(9)
H41A H 1.477(7) 1.031(6) 0.5724(17)
loop_
_geom_bond_atom_site_label_1
_geom_bond_atom_site_label_2
_geom_bond_site_symmetry_1
_geom_bond_site_symmetry_2
C1 H1 1_555 1_555
H2 C1 1_555 1_555
H3 C1 1_555 1_555
C2 C1 1_555 1_555
H4 C2 1_555 1_555
H5 C2 1_555 1_555
C3 C2 1_555 1_555
H6 C3 1_555 1_555
H7 C3 1_555 1_555
C4 C3 1_555 1_555
H8 C4 1_555 1_555
H9 C4 1_555 1_555
C5 C4 1_555 1_555
H10 C5 1_555 1_555
H11 C5 1_555 1_555
C6 C5 1_555 1_555
H12 C6 1_555 1_555
H13 C6 1_555 1_555
C7 C6 1_555 1_555
H14 C7 1_555 1_555
H15 C7 1_555 1_555
C8 C7 1_555 1_555
H16 C8 1_555 1_555
H17 C8 1_555 1_555
C9 C8 1_555 1_555
H18 C9 1_555 1_555
H19 C9 1_555 1_555
C10 C9 1_555 1_555
H20 C10 1_555 1_555
H21 C10 1_555 1_555
C11 C10 1_555 1_555
H22 C11 1_555 1_555
H23 C11 1_555 1_555
C12 C11 1_555 1_555
H24 C12 1_555 1_555
H25 C12 1_555 1_555
C13 C12 1_555 1_555
C14 C13 1_555 1_555
H26 C14 1_555 1_555
C15 C14 1_555 1_555
C16 C15 1_555 1_555
C17 C16 1_555 1_555
C18 C13 1_555 1_555
H27 C18 1_555 1_555
C19 C15 1_555 1_555
H28 C19 1_555 1_555
H29 C19 1_555 1_555
H30 C19 1_555 1_555
C20 C17 1_555 1_555
H31 C20 1_555 1_555
H32 C20 1_555 1_555
C21 H33 1_555 1_555
H34 C21 1_555 1_555
C22 H35 1_555 1_555
H36 C22 1_555 1_555
C23 C21 1_555 1_555
C24 C22 1_555 1_555
Na1 O1 1_555 1_555
Na2 O2 1_555 1_555
O1 C16 1_555 1_555
H37 O1 1_555 1_555
O2 C23 1_555 1_555
O3 C23 1_555 1_555
O4 C24 1_555 1_555
O5 C24 1_555 1_555
N1 C20 1_555 1_555
O6 Na1 1_555 1_555
H38 O6 1_555 1_555
H39 O6 1_555 1_555
O7 Na2 1_555 1_555
H40 O7 1_555 1_555
H41 O7 1_555 1_555
Na1_2 O3 1_555 1_555
Na2A O3 1_555 1_555
Na2A_2 O4 1_555 1_555
Na2_2 O6 1_555 1_555
Na2A_3 O7 1_555 1_555
O3_2 Na1 1_555 1_555
O3A Na2 1_555 1_555
O4A Na2 1_555 1_555
O6_2 Na2 1_555 1_555
H38_2 O6_2 1_555 1_555
H39_2 O6_2 1_555 1_555
O7A Na2 1_555 1_555
H40A O7A 1_555 1_555
H41A O7A 1_555 1_555
C17 C18 1_555 1_555
C21 N1 1_555 1_555
C22 N1 1_555 1_555
Na1 O2 1_555 1_555
Na1 O4 1_555 1_555
Na1 N1 1_555 1_555
Na2 O3 1_555 1_555
Na1_2 O6_2 1_555 1_555
Na2A O3A 1_555 1_555
Na2A_2 O3_2 1_555 1_555
Na2_2 O3_2 1_555 1_555
Na2A_3 O7A 1_555 1_555

#END
