
#######################################################################
#
#                 Cambridge Crystallographic Data Centre
#                                CCDC 
#
#######################################################################
#
# If this CIF has been generated from an entry in the Cambridge 
# Structural Database, then it will include bibliographic, chemical, 
# crystal, experimental, refinement or atomic coordinate data resulting 
# from the CCDC's data processing and validation procedures.
#
#######################################################################

data_VETNEP
_symmetry_cell_setting           orthorhombic
_symmetry_space_group_name_H-M   'P b c a'
_symmetry_Int_Tables_number      61
_space_group_name_Hall           '-P 2ac 2ab'
loop_
_symmetry_equiv_pos_site_id
_symmetry_equiv_pos_as_xyz
1 x,y,z
2 1/2-x,-y,1/2+z
3 -x,1/2+y,1/2-z
4 1/2+x,1/2-y,-z
5 -x,-y,-z
6 1/2+x,y,1/2-z
7 x,1/2-y,1/2+z
8 1/2-x,1/2+y,z
_cell_length_a                   19.7366(11)
_cell_length_b                   21.3012(12)
_cell_length_c                   26.6102(15)
_cell_angle_alpha                90
_cell_angle_beta                 90
_cell_angle_gamma                90
_cell_volume                     11187.3
loop_
_atom_site_label
_atom_site_type_symbol
_atom_site_fract_x
_atom_site_fract_y
_atom_site_fract_z
Cl2 Cl 0.12070(8) 0.08155(9) 0.83366(6)
O5 O 0.0677(3) 0.0359(3) 0.8312(2)
O6 O 0.1634(6) 0.0717(5) 0.8759(5)
O7 O 0.1564(3) 0.0840(3) 0.7863(2)
O8 O 0.0837(7) 0.1397(5) 0.8410(4)
Cl3 Cl 0.0367(3) 0.2553(3) 0.7554(2)
Cl4 Cl 0.1002(3) 0.1819(5) 0.6947(2)
Cl5 Cl 0.1863(4) 0.2664(3) 0.7435(2)
C1 C 0.1111(7) 0.2113(9) 0.7513(5)
O9 O 0.0608(10) 0.0178(10) 0.6603(10)
C2 C 0.1137(6) 0.0694(7) 0.6577(5)
H1 H 0.1419 0.0966 0.6366
H2 H 0.1386 0.0583 0.6883
Cd1 Cd 0.874900(18) 0.017150(16) 0.746732(13)
S1 S 0.86814(9) 0.51513(7) 0.44458(6)
S2 S 0.85483(8) 0.51753(6) 1.04775(5)
O10 O 0.77123(18) 0.27380(18) 0.58304(16)
O11 O 0.98269(18) 0.76416(18) 0.58419(15)
O12 O 0.77117(18) 0.28246(17) 0.90108(16)
O13 O 0.98210(19) 0.76104(18) 0.90842(16)
O14 O 0.7569(2) 0.0014(2) 0.74563(16)
O15 O 0.9904(2) 0.0373(2) 0.7438(2)
N1 N 0.8636(2) 0.0990(2) 0.68858(18)
N2 N 0.8833(2) 0.2959(2) 0.58410(18)
N3 N 0.8709(2) 0.7461(2) 0.57191(17)
N4 N 0.8859(2) 0.9368(2) 0.68720(19)
N5 N 0.8602(2) 0.0975(2) 0.80703(18)
N6 N 0.8830(2) 0.2965(2) 0.91115(18)
N7 N 0.8693(2) 0.7465(2) 0.91807(19)
N8 N 0.8927(2) 0.9399(2) 0.80676(18)
C3 C 0.9044(4) 0.1493(3) 0.6917(3)
C4 C 0.8965(3) 0.2026(3) 0.6629(3)
C5 C 0.8429(3) 0.2055(2) 0.62970(19)
C6 C 0.8006(3) 0.1536(3) 0.6260(2)
C7 C 0.8131(3) 0.1010(3) 0.6555(2)
C8 C 0.8288(3) 0.2619(2) 0.5970(2)
C9 C 0.8783(2) 0.3493(2) 0.5521(2)
C10 C 0.8682(3) 0.4087(3) 0.5720(2)
C11 C 0.8647(3) 0.4607(3) 0.5403(2)
C12 C 0.8726(3) 0.4537(3) 0.4890(2)
C13 C 0.8824(3) 0.3939(3) 0.4692(2)
C14 C 0.8846(3) 0.3421(3) 0.5004(2)
C15 C 0.8709(3) 0.5834(2) 0.4829(2)
C16 C 0.9314(3) 0.6042(3) 0.5037(2)
C17 C 0.9332(3) 0.6573(3) 0.5334(2)
C18 C 0.8746(3) 0.6920(2) 0.54082(19)
C19 C 0.8149(3) 0.6727(2) 0.5181(2)
H3 H 0.7748 0.6968 0.5222
C20 C 0.8134(3) 0.6187(3) 0.4897(2)
C21 C 0.9229(3) 0.7783(2) 0.59115(19)
C22 C 0.9062(3) 0.8337(2) 0.6244(2)
C23 C 0.9592(3) 0.8630(4) 0.6479(4)
H4 H 1.0041 0.8479 0.6435
C24 C 0.9471(4) 0.9146(4) 0.6781(4)
H5 H 0.9848 0.9352 0.6930
C25 C 0.8350(3) 0.9088(3) 0.6640(2)
H6 H 0.7906 0.9247 0.6693
C26 C 0.8426(3) 0.8581(3) 0.6327(2)
C27 C 0.9138(3) 0.1316(3) 0.8228(2)
C28 C 0.9069(3) 0.1865(3) 0.8495(2)
C29 C 0.8430(3) 0.2080(2) 0.86197(19)
C30 C 0.7886(3) 0.1728(3) 0.8467(3)
H7 H 0.7437 0.1855 0.8548
C31 C 0.7999(3) 0.1186(3) 0.8193(3)
C32 C 0.8294(2) 0.2659(2) 0.89224(19)
C33 C 0.8770(2) 0.3500(2) 0.9423(2)
C34 C 0.8994(3) 0.3483(3) 0.9914(2)
C35 C 0.8948(3) 0.4001(3) 1.0222(2)
C36 C 0.8651(3) 0.4556(2) 1.0041(2)
C37 C 0.8429(3) 0.4581(3) 0.9548(2)
C38 C 0.8494(3) 0.4058(3) 0.9237(2)
H8 H 0.8351 0.4080 0.8896
C39 C 0.8602(3) 0.5850(2) 1.0084(2)
C40 C 0.9216(3) 0.6034(3) 0.9888(3)
C41 C 0.9268(3) 0.6560(3) 0.9587(3)
C42 C 0.8689(3) 0.6920(2) 0.9484(2)
C43 C 0.8072(3) 0.6734(3) 0.9689(2)
C44 C 0.8029(3) 0.6204(3) 0.9982(2)
C45 C 0.9239(3) 0.7779(2) 0.9006(2)
C46 C 0.9101(3) 0.8345(2) 0.8689(2)
C47 C 0.9635(4) 0.8668(4) 0.8492(4)
H9 H 1.0083 0.8531 0.8561
C48 C 0.9536(4) 0.9190(4) 0.8196(4)
H10 H 0.9922 0.9412 0.8077
C49 C 0.8417(3) 0.9116(4) 0.8279(3)
H11 H 0.7976 0.9278 0.8219
C50 C 0.8476(3) 0.8595(4) 0.8584(3)
H12 H 0.8081 0.8408 0.8723
H13 H 0.933(4) 0.148(4) 0.713(3)
H14 H 0.925(3) 0.239(3) 0.666(2)
H15 H 0.920(3) 0.290(3) 0.591(2)
H16 H 0.835(3) 0.758(2) 0.5727(19)
H17 H 0.756(4) 0.156(4) 0.603(3)
H18 H 0.784(3) 0.061(3) 0.654(3)
H19 H 0.920(4) 0.294(3) 0.906(3)
H20 H 1.016(4) 0.032(3) 0.764(3)
H21 H 1.011(3) 0.034(3) 0.719(3)
H22 H 0.842(4) 0.761(3) 0.916(3)
H23 H 0.864(3) 0.411(3) 0.607(3)
H24 H 0.856(3) 0.502(3) 0.555(3)
H25 H 0.892(3) 0.382(3) 0.433(2)
H26 H 0.7260 0.0207 0.7364
H27 H 0.888(3) 0.305(3) 0.488(2)
H28 H 0.972(4) 0.581(4) 0.501(3)
H29 H 0.972(3) 0.668(3) 0.549(2)
H30 H 0.777(3) 0.613(3) 0.479(2)
H31 H 0.807(5) 0.833(4) 0.620(3)
H32 H 0.958(3) 0.118(3) 0.814(2)
H33 H 0.941(4) 0.208(3) 0.857(3)
H34 H 0.762(5) 0.102(5) 0.809(4)
H35 H 0.917(3) 0.313(3) 1.001(2)
H36 H 0.911(3) 0.396(3) 1.056(3)
H37 H 0.822(3) 0.500(3) 0.941(2)
H38 H 0.959(4) 0.585(3) 0.995(3)
H39 H 0.970(3) 0.668(3) 0.949(2)
H40 H 0.770(3) 0.694(3) 0.960(2)
H41 H 0.768(3) 0.612(3) 1.010(2)
Cd1_2 Cd 0.874900(18) 1.017150(16) 0.746732(13)
N4_2 N 0.8859(2) -0.0632(2) 0.68720(19)
N8_2 N 0.8927(2) -0.0601(2) 0.80676(18)
Cl1 Cl 0.63946(8) 0.86718(8) 0.75672(7)
O1 O 0.6227(5) 0.8142(5) 0.7813(5)
O2 O 0.6254(7) 0.8579(7) 0.7078(5)
O3 O 0.6019(6) 0.9200(5) 0.7694(6)
O4 O 0.7063(4) 0.8803(4) 0.7568(5)
O16? O 0.2325(11) 0.2327(10) 0.7731(8)
O17? O 0.0538(4) 0.1012(4) 0.6707(3)
H42? H 0.0204 0.0823 0.6584
H43? H 0.1024 0.0311 0.6391
H44? H 0.724(5) -0.009(11) 0.743(8)
Cl6? Cl 0.12070(8) 0.08155(9) 0.83366(6)
O18? O 0.0677(3) 0.0359(3) 0.8312(2)
O19? O 0.1707(19) 0.042(3) 0.8626(17)
O20? O 0.1564(3) 0.0840(3) 0.7863(2)
O21? O 0.113(2) 0.1510(14) 0.8345(14)
O22? O 0.658(2) 0.9153(15) 0.7932(13)
loop_
_geom_bond_atom_site_label_1
_geom_bond_atom_site_label_2
_geom_bond_site_symmetry_1
_geom_bond_site_symmetry_2
Cl1 O1 1_555 1_555
O2 Cl1 1_555 1_555
O3 Cl1 1_555 1_555
O4 Cl1 1_555 1_555
Cl2 O5 1_555 1_555
O6 Cl2 1_555 1_555
O7 Cl2 1_555 1_555
O8 Cl2 1_555 1_555
Cl3 C1 1_555 1_555
Cl4 C1 1_555 1_555
Cl5 C1 1_555 1_555
O9 C2 1_555 1_555
C2 H1 1_555 1_555
H2 C2 1_555 1_555
Cd1 O14 1_555 1_555
S1 C12 1_555 1_555
S2 C36 1_555 1_555
O10 C8 1_555 1_555
O11 C21 1_555 1_555
O12 C32 1_555 1_555
O13 C45 1_555 1_555
O14 H26 1_555 1_555
O15 Cd1 1_555 1_555
N1 Cd1 1_555 1_555
N2 C8 1_555 1_555
N3 C18 1_555 1_555
N4 C24 1_555 1_555
N5 Cd1 1_555 1_555
N6 C32 1_555 1_555
N7 C42 1_555 1_555
N8 C48 1_555 1_555
C3 N1 1_555 1_555
C4 C3 1_555 1_555
C5 C4 1_555 1_555
C6 C5 1_555 1_555
C7 N1 1_555 1_555
C8 C5 1_555 1_555
C9 N2 1_555 1_555
C10 C9 1_555 1_555
C11 C10 1_555 1_555
C12 C11 1_555 1_555
C13 C12 1_555 1_555
C14 C9 1_555 1_555
C15 S1 1_555 1_555
C16 C15 1_555 1_555
C17 C16 1_555 1_555
C18 C17 1_555 1_555
C19 C18 1_555 1_555
H3 C19 1_555 1_555
C20 C15 1_555 1_555
C21 N3 1_555 1_555
C22 C21 1_555 1_555
C23 C22 1_555 1_555
H4 C23 1_555 1_555
C24 C23 1_555 1_555
H5 C24 1_555 1_555
C25 N4 1_555 1_555
H6 C25 1_555 1_555
C26 C22 1_555 1_555
C27 N5 1_555 1_555
C28 C27 1_555 1_555
C29 C28 1_555 1_555
C30 C29 1_555 1_555
H7 C30 1_555 1_555
C31 N5 1_555 1_555
C32 C29 1_555 1_555
C33 N6 1_555 1_555
C34 C33 1_555 1_555
C35 C34 1_555 1_555
C36 C35 1_555 1_555
C37 C36 1_555 1_555
C38 C33 1_555 1_555
H8 C38 1_555 1_555
C39 S2 1_555 1_555
C40 C39 1_555 1_555
C41 C40 1_555 1_555
C42 C41 1_555 1_555
C43 C42 1_555 1_555
C44 C39 1_555 1_555
C45 N7 1_555 1_555
C46 C45 1_555 1_555
C47 C46 1_555 1_555
H9 C47 1_555 1_555
C48 C47 1_555 1_555
H10 C48 1_555 1_555
C49 N8 1_555 1_555
H11 C49 1_555 1_555
C50 C46 1_555 1_555
H12 C50 1_555 1_555
H13 C3 1_555 1_555
H14 C4 1_555 1_555
H15 N2 1_555 1_555
H16 N3 1_555 1_555
H17 C6 1_555 1_555
H18 C7 1_555 1_555
H19 N6 1_555 1_555
H20 O15 1_555 1_555
H21 O15 1_555 1_555
H22 N7 1_555 1_555
H23 C10 1_555 1_555
H24 C11 1_555 1_555
H25 C13 1_555 1_555
H27 C14 1_555 1_555
H28 C16 1_555 1_555
H29 C17 1_555 1_555
H30 C20 1_555 1_555
H31 C26 1_555 1_555
H32 C27 1_555 1_555
H33 C28 1_555 1_555
H34 C31 1_555 1_555
H35 C34 1_555 1_555
H36 C35 1_555 1_555
H37 C37 1_555 1_555
H38 C40 1_555 1_555
H39 C41 1_555 1_555
H40 C43 1_555 1_555
H41 C44 1_555 1_555
Cd1_2 N4 1_555 1_555
N4_2 Cd1 1_555 1_555
N8_2 Cd1 1_555 1_555
N8 Cd1_2 1_555 1_555
C6 C7 1_555 1_555
C13 C14 1_555 1_555
C19 C20 1_555 1_555
C25 C26 1_555 1_555
C30 C31 1_555 1_555
C37 C38 1_555 1_555
C43 C44 1_555 1_555
C49 C50 1_555 1_555

#END
