
#######################################################################
#
#                 Cambridge Crystallographic Data Centre
#                                CCDC 
#
#######################################################################
#
# If this CIF has been generated from an entry in the Cambridge 
# Structural Database, then it will include bibliographic, chemical, 
# crystal, experimental, refinement or atomic coordinate data resulting 
# from the CCDC's data processing and validation procedures.
#
#######################################################################

data_VETNIT
_symmetry_cell_setting           orthorhombic
_symmetry_space_group_name_H-M   'C c c a'
_symmetry_Int_Tables_number      68
_space_group_name_Hall           '-C 2b 2bc'
loop_
_symmetry_equiv_pos_site_id
_symmetry_equiv_pos_as_xyz
1 x,y,z
2 1/2-x,-y,z
3 -x,y,1/2-z
4 1/2+x,-y,1/2-z
5 1/2+x,1/2+y,z
6 -x,1/2-y,z
7 1/2-x,1/2+y,1/2-z
8 x,1/2-y,1/2-z
9 -x,-y,-z
10 1/2+x,y,-z
11 x,-y,1/2+z
12 1/2-x,y,1/2+z
13 1/2-x,1/2-y,-z
14 x,1/2+y,-z
15 1/2+x,1/2-y,1/2+z
16 -x,1/2+y,1/2+z
_cell_length_a                   22.025(2)
_cell_length_b                   23.563(3)
_cell_length_c                   9.8021(11)
_cell_angle_alpha                90
_cell_angle_beta                 90
_cell_angle_gamma                90
_cell_volume                     5087.05
loop_
_atom_site_label
_atom_site_type_symbol
_atom_site_fract_x
_atom_site_fract_y
_atom_site_fract_z
Cd1 Cd 0.5000 0.2500 0.2500
O1 O 0.0000 0.53271(9) 0.2500
O2 O 0.24018(6) 0.41431(7) 0.05394(14)
O3 O 0.5000 0.2500 0.4892(4)
N1 N 0.42149(8) 0.31643(8) 0.2506(2)
N2 N 0.22019(8) 0.41698(8) 0.28063(17)
C1 C 0.41472(10) 0.35125(9) 0.1439(3)
C2 C 0.36100(10) 0.37925(9) 0.1162(2)
C3 C 0.31204(9) 0.37205(8) 0.2037(2)
C4 C 0.31902(9) 0.33666(9) 0.3158(2)
C5 C 0.37407(10) 0.30970(9) 0.3351(2)
C6 C 0.25393(9) 0.40274(8) 0.17201(19)
C7 C 0.16388(9) 0.44613(9) 0.27030(18)
C8 C 0.11847(9) 0.42609(9) 0.1842(2)
C9 C 0.06336(9) 0.45411(10) 0.1779(2)
C10 C 0.05360(9) 0.50183(9) 0.2577(2)
C11 C 0.09824(9) 0.52157(9) 0.3439(2)
C12 C 0.15376(9) 0.49356(9) 0.3506(2)
H1 H 0.4488(13) 0.3564(11) 0.084(3)
H2 H 0.3576(12) 0.4031(11) 0.039(3)
H3 H 0.2346(11) 0.4121(10) 0.366(3)
H4 H 0.501(3) 0.272(3) 0.528(7)
H5 H 0.2878(12) 0.3308(12) 0.379(3)
H6 H 0.3779(12) 0.2838(11) 0.413(3)
H7 H 0.1265(12) 0.3930(12) 0.130(3)
H8 H 0.0333(14) 0.4398(12) 0.119(3)
H9 H 0.0903(12) 0.5548(12) 0.397(3)
H10 H 0.1850(11) 0.5064(11) 0.409(3)
Cd1_2 Cd -0.5000 0.2500 0.2500
O1E O 0.0000 -0.03271(9) 0.2500
O2B O -0.24018(6) 0.41431(7) 0.44606(14)
O2E O -0.24018(6) 0.08569(7) 0.05394(14)
O2G O 0.24018(6) 0.08569(7) 0.44606(14)
O3B O 0.5000 0.2500 0.0108(4)
N1B N -0.42149(8) 0.31643(8) 0.2494(2)
N1E N -0.42149(8) 0.18357(8) 0.2506(2)
N1G N 0.42149(8) 0.18357(8) 0.2494(2)
N1B_2 N 0.57851(8) 0.31643(8) 0.2494(2)
N1E_2 N 0.57851(8) 0.18357(8) 0.2506(2)
N2B N -0.22019(8) 0.41698(8) 0.21937(17)
N2E N -0.22019(8) 0.08302(8) 0.28063(17)
N2G N 0.22019(8) 0.08302(8) 0.21937(17)
C1B C -0.41472(10) 0.35125(9) 0.3561(3)
C1E C -0.41472(10) 0.14875(9) 0.1439(3)
C1G C 0.41472(10) 0.14875(9) 0.3561(3)
C2B C -0.36100(10) 0.37925(9) 0.3838(2)
C2E C -0.36100(10) 0.12075(9) 0.1162(2)
C2G C 0.36100(10) 0.12075(9) 0.3838(2)
C3B C -0.31204(9) 0.37205(8) 0.2963(2)
C3E C -0.31204(9) 0.12795(8) 0.2037(2)
C3G C 0.31204(9) 0.12795(8) 0.2963(2)
C4B C -0.31902(9) 0.33666(9) 0.1842(2)
C4E C -0.31902(9) 0.16334(9) 0.3158(2)
C4G C 0.31902(9) 0.16334(9) 0.1842(2)
C5B C -0.37407(10) 0.30970(9) 0.1649(2)
C5E C -0.37407(10) 0.19030(9) 0.3351(2)
C5G C 0.37407(10) 0.19030(9) 0.1649(2)
C6B C -0.25393(9) 0.40274(8) 0.32799(19)
C6E C -0.25393(9) 0.09726(8) 0.17201(19)
C6G C 0.25393(9) 0.09726(8) 0.32799(19)
C7B C -0.16388(9) 0.44613(9) 0.22970(18)
C7E C -0.16388(9) 0.05387(9) 0.27030(18)
C7G C 0.16388(9) 0.05387(9) 0.22970(18)
C8B C -0.11847(9) 0.42609(9) 0.3158(2)
C8E C -0.11847(9) 0.07391(9) 0.1842(2)
C8G C 0.11847(9) 0.07391(9) 0.3158(2)
C9B C -0.06336(9) 0.45411(10) 0.3221(2)
C9E C -0.06336(9) 0.04589(10) 0.1779(2)
C9G C 0.06336(9) 0.04589(10) 0.3221(2)
C10B C -0.05360(9) 0.50183(9) 0.2423(2)
C10E C -0.05360(9) -0.00183(9) 0.2577(2)
C10G C 0.05360(9) -0.00183(9) 0.2423(2)
C11B C -0.09824(9) 0.52157(9) 0.1561(2)
C11E C -0.09824(9) -0.02157(9) 0.3439(2)
C11G C 0.09824(9) -0.02157(9) 0.1561(2)
C12B C -0.15376(9) 0.49356(9) 0.1494(2)
C12E C -0.15376(9) 0.00644(9) 0.3506(2)
C12G C 0.15376(9) 0.00644(9) 0.1494(2)
H1B H -0.4488(13) 0.3564(11) 0.416(3)
H1E H -0.4488(13) 0.1436(11) 0.084(3)
H1G H 0.4488(13) 0.1436(11) 0.416(3)
H2B H -0.3576(12) 0.4031(11) 0.461(3)
H2E H -0.3576(12) 0.0969(11) 0.039(3)
H2G H 0.3576(12) 0.0969(11) 0.461(3)
H3B H -0.2346(11) 0.4121(10) 0.134(3)
H3E H -0.2346(11) 0.0879(10) 0.366(3)
H3G H 0.2346(11) 0.0879(10) 0.134(3)
H4E H 0.499(3) 0.228(3) 0.528(7)
H4G H 0.501(3) 0.228(3) -0.028(7)
H4B H 0.499(3) 0.272(3) -0.028(7)
H5B H -0.2878(12) 0.3308(12) 0.121(3)
H5E H -0.2878(12) 0.1692(12) 0.379(3)
H5G H 0.2878(12) 0.1692(12) 0.121(3)
H6B H -0.3779(12) 0.2838(11) 0.087(3)
H6E H -0.3779(12) 0.2162(11) 0.413(3)
H6G H 0.3779(12) 0.2162(11) 0.087(3)
H7B H -0.1265(12) 0.3930(12) 0.370(3)
H7E H -0.1265(12) 0.1070(12) 0.130(3)
H7G H 0.1265(12) 0.1070(12) 0.370(3)
H8B H -0.0333(14) 0.4398(12) 0.381(3)
H8E H -0.0333(14) 0.0602(12) 0.119(3)
H8G H 0.0333(14) 0.0602(12) 0.381(3)
H9B H -0.0903(12) 0.5548(12) 0.103(3)
H9E H -0.0903(12) -0.0548(12) 0.397(3)
H9G H 0.0903(12) -0.0548(12) 0.103(3)
H10B H -0.1850(11) 0.5064(11) 0.091(3)
H10E H -0.1850(11) -0.0064(11) 0.409(3)
H10G H 0.1850(11) -0.0064(11) 0.091(3)
Cl1 Cl 0.64066(6) 0.2500 0.7500
O4 O 0.5985(3) 0.2134(2) 0.8349(5)
O5 O 0.6720(3) 0.2137(2) 0.6677(5)
O4G O 0.5985(3) 0.2866(2) 0.6651(5)
O5G O 0.6720(3) 0.2863(2) 0.8323(5)
O6 O 0.5050(4) 0.3318(3) 0.6476(8)
Cl2? Cl 0.64066(6) 0.2500 0.7500
O7? O 0.6161(8) 0.2058(5) 0.719(2)
O8? O 0.6837(6) 0.2649(9) 0.6186(13)
loop_
_geom_bond_atom_site_label_1
_geom_bond_atom_site_label_2
_geom_bond_site_symmetry_1
_geom_bond_site_symmetry_2
Cd1 O3 1_555 1_555
O1 C10 1_555 1_555
O2 C6 1_555 1_555
O3 H4 1_555 1_555
N1 Cd1 1_555 1_555
N2 C6 1_555 1_555
C1 N1 1_555 1_555
C2 C1 1_555 1_555
C3 C2 1_555 1_555
C4 C3 1_555 1_555
C5 N1 1_555 1_555
C6 C3 1_555 1_555
C7 N2 1_555 1_555
C8 C7 1_555 1_555
C9 C8 1_555 1_555
C10 C9 1_555 1_555
C11 C10 1_555 1_555
C12 C7 1_555 1_555
H1 C1 1_555 1_555
H2 C2 1_555 1_555
H3 N2 1_555 1_555
H5 C4 1_555 1_555
H6 C5 1_555 1_555
H7 C8 1_555 1_555
H8 C9 1_555 1_555
H9 C11 1_555 1_555
H10 C12 1_555 1_555
Cl1 O4 1_555 1_555
O5 Cl1 1_555 1_555
Cd1_2 N1B 1_555 1_555
O1E C10E 1_555 1_555
O2B C6B 1_555 1_555
O2E C6E 1_555 1_555
O2G C6G 1_555 1_555
O3B Cd1 1_555 1_555
N1B C1B 1_555 1_555
N1E Cd1_2 1_555 1_555
N1G Cd1 1_555 1_555
N1B_2 Cd1 1_555 1_555
N1E_2 Cd1 1_555 1_555
N2B C6B 1_555 1_555
N2E C6E 1_555 1_555
N2G C6G 1_555 1_555
C1B C2B 1_555 1_555
C1E N1E 1_555 1_555
C1G N1G 1_555 1_555
C2B C3B 1_555 1_555
C2E C1E 1_555 1_555
C2G C1G 1_555 1_555
C3B C4B 1_555 1_555
C3E C2E 1_555 1_555
C3G C2G 1_555 1_555
C4B C5B 1_555 1_555
C4E C3E 1_555 1_555
C4G C3G 1_555 1_555
C5B N1B 1_555 1_555
C5E N1E 1_555 1_555
C5G N1G 1_555 1_555
C6B C3B 1_555 1_555
C6E C3E 1_555 1_555
C6G C3G 1_555 1_555
C7B N2B 1_555 1_555
C7E N2E 1_555 1_555
C7G N2G 1_555 1_555
C8B C7B 1_555 1_555
C8E C7E 1_555 1_555
C8G C7G 1_555 1_555
C9B C8B 1_555 1_555
C9E C8E 1_555 1_555
C9G C8G 1_555 1_555
C10B O1 1_555 1_555
C10E C9E 1_555 1_555
C10G O1E 1_555 1_555
C11B C10B 1_555 1_555
C11E C10E 1_555 1_555
C11G C10G 1_555 1_555
C12B C7B 1_555 1_555
C12E C7E 1_555 1_555
C12G C7G 1_555 1_555
H1B C1B 1_555 1_555
H1E C1E 1_555 1_555
H1G C1G 1_555 1_555
H2B C2B 1_555 1_555
H2E C2E 1_555 1_555
H2G C2G 1_555 1_555
H3B N2B 1_555 1_555
H3E N2E 1_555 1_555
H3G N2G 1_555 1_555
H4E O3 1_555 1_555
H4G O3B 1_555 1_555
H4B O3B 1_555 1_555
H5B C4B 1_555 1_555
H5E C4E 1_555 1_555
H5G C4G 1_555 1_555
H6B C5B 1_555 1_555
H6E C5E 1_555 1_555
H6G C5G 1_555 1_555
H7B C8B 1_555 1_555
H7E C8E 1_555 1_555
H7G C8G 1_555 1_555
H8B C9B 1_555 1_555
H8E C9E 1_555 1_555
H8G C9G 1_555 1_555
H9B C11B 1_555 1_555
H9E C11E 1_555 1_555
H9G C11G 1_555 1_555
H10B C12B 1_555 1_555
H10E C12E 1_555 1_555
H10G C12G 1_555 1_555
O4G Cl1 1_555 1_555
O5G Cl1 1_555 1_555
C4 C5 1_555 1_555
C11 C12 1_555 1_555
C4E C5E 1_555 1_555
C4G C5G 1_555 1_555
C9B C10B 1_555 1_555
C9G C10G 1_555 1_555
C11B C12B 1_555 1_555
C11E C12E 1_555 1_555
C11G C12G 1_555 1_555

#END
