
#######################################################################
#
#                 Cambridge Crystallographic Data Centre
#                                CCDC 
#
#######################################################################
#
# If this CIF has been generated from an entry in the Cambridge 
# Structural Database, then it will include bibliographic, chemical, 
# crystal, experimental, refinement or atomic coordinate data resulting 
# from the CCDC's data processing and validation procedures.
#
#######################################################################

data_VETNOZ
_symmetry_cell_setting           orthorhombic
_symmetry_space_group_name_H-M   'P b c a'
_symmetry_Int_Tables_number      61
_space_group_name_Hall           '-P 2ac 2ab'
loop_
_symmetry_equiv_pos_site_id
_symmetry_equiv_pos_as_xyz
1 x,y,z
2 1/2-x,-y,1/2+z
3 -x,1/2+y,1/2-z
4 1/2+x,1/2-y,-z
5 -x,-y,-z
6 1/2+x,y,1/2-z
7 x,1/2-y,1/2+z
8 1/2-x,1/2+y,z
_cell_length_a                   19.7468(16)
_cell_length_b                   21.2986(17)
_cell_length_c                   26.321(2)
_cell_angle_alpha                90
_cell_angle_beta                 90
_cell_angle_gamma                90
_cell_volume                     11070.1
loop_
_atom_site_label
_atom_site_type_symbol
_atom_site_fract_x
_atom_site_fract_y
_atom_site_fract_z
Cl2 Cl 0.12205(4) 0.58142(5) 0.66857(3)
O5 O 0.15516(14) 0.58260(13) 0.71770(10)
O6 O 0.1630(3) 0.5751(3) 0.6262(2)
O7 O 0.06572(14) 0.54009(15) 0.66978(12)
O8 O 0.0846(3) 0.6434(3) 0.6629(3)
Cl3 Cl 0.10220(15) 0.68059(16) 0.80677(11)
Cl4 Cl 0.1848(2) 0.77402(14) 0.75767(13)
Cl5 Cl 0.03344(16) 0.75621(15) 0.73961(14)
C1 C 0.1087(5) 0.7187(5) 0.7509(4)
O9 O 0.0644(16) 0.5446(19) 0.8374(9)
C2 C 0.1154(3) 0.5735(3) 0.8433(3)
H1 H 0.1427 0.6002 0.8656
H2 H 0.1412 0.5635 0.8126
Cd1 Cd 0.877022(9) 0.519830(9) 0.755286(7)
O10 O 0.76874(9) 0.78562(9) 0.60292(8)
O11 O 0.98472(9) 1.26327(9) 0.59217(9)
O12 O 0.76930(9) 0.77635(9) 0.91930(8)
O13 O 0.98525(9) 1.26644(9) 0.91891(8)
O14 O 0.99233(12) 0.54032(12) 0.75924(11)
O15 O 0.75923(11) 0.50128(12) 0.75540(9)
N1 N 0.86128(12) 0.59913(11) 0.69376(9)
N2 N 0.88025(11) 0.79864(10) 0.58857(9)
N3 N 0.87184(11) 1.24926(11) 0.58300(9)
N4 N 0.89689(12) 1.44319(11) 0.69411(9)
N5 N 0.86333(12) 0.60202(11) 0.81283(9)
N6 N 0.88135(11) 0.79723(11) 0.92031(9)
N7 N 0.87363(11) 1.24823(11) 0.93160(9)
N8 N 0.88764(12) 1.44107(12) 0.81687(10)
C3 C 0.91364(14) 0.63150(13) 0.67541(11)
C4 C 0.90662(14) 0.68685(13) 0.64841(11)
C5 C 0.84238(13) 0.70960(12) 0.63842(10)
C6 C 0.78795(15) 0.67565(16) 0.65665(14)
C7 C 0.79948(16) 0.62128(16) 0.68398(15)
C8 C 0.82736(13) 0.76838(11) 0.60875(10)
C9 C 0.87316(12) 0.85446(12) 0.55922(11)
C10 C 0.89570(15) 0.85492(14) 0.50947(11)
C11 C 0.89038(15) 0.90931(13) 0.48062(11)
C12 C 0.86169(14) 0.96369(12) 0.50071(11)
C13 C 0.84043(16) 0.96245(13) 0.55089(12)
C14 C 0.84575(15) 0.90850(13) 0.58010(12)
C15 C 0.85289(17) 1.02160(12) 0.46761(12)
C16 C 0.85905(15) 1.08262(12) 0.49649(11)
C17 C 0.92138(15) 1.10325(14) 0.51413(13)
C18 C 0.92829(14) 1.15779(14) 0.54262(12)
C19 C 0.87090(13) 1.19353(12) 0.55352(11)
C20 C 0.80827(13) 1.17393(13) 0.53540(11)
C21 C 0.80242(14) 1.11884(12) 0.50719(11)
C22 C 0.92659(13) 1.28024(12) 0.60008(10)
C23 C 0.91348(13) 1.33817(12) 0.63158(10)
C24 C 0.96791(16) 1.36673(16) 0.65497(16)
C25 C 0.95810(17) 1.41811(17) 0.68611(17)
C26 C 0.84528(15) 1.41841(15) 0.66920(12)
C27 C 0.85075(15) 1.36673(15) 0.63810(13)
C28 C 0.81302(15) 0.60349(14) 0.84613(12)
C29 C 0.79945(14) 0.65535(14) 0.87623(12)
C30 C 0.84149(13) 0.70769(12) 0.87326(10)
C31 C 0.89492(17) 0.70582(15) 0.83915(13)
C32 C 0.90354(18) 0.65264(16) 0.80954(13)
C33 C 0.82727(13) 0.76389(12) 0.90605(10)
C34 C 0.87613(12) 0.85271(12) 0.95104(11)
C35 C 0.88245(15) 0.84820(13) 1.00334(11)
C36 C 0.88098(15) 0.90232(13) 1.03278(11)
C37 C 0.87287(13) 0.96108(13) 1.01077(11)
C38 C 0.86620(18) 0.96443(14) 0.95866(12)
C39 C 0.86766(17) 0.91060(14) 0.92868(12)
C40 C 0.87171(19) 1.01850(13) 1.04498(12)
C41 C 0.87357(15) 1.08039(13) 1.01720(11)
C42 C 0.81549(16) 1.11537(13) 1.00929(12)
C43 C 0.81707(14) 1.17106(13) 0.98234(11)
C44 C 0.87730(12) 1.19276(12) 0.96107(10)
C45 C 0.93657(14) 1.15892(13) 0.96979(12)
C46 C 0.93399(16) 1.10378(14) 0.99772(12)
C47 C 0.92548(13) 1.28065(12) 0.91212(10)
C48 C 0.90863(13) 1.33700(12) 0.87981(11)
C49 C 0.84476(14) 1.36110(14) 0.87152(12)
C50 C 0.83680(14) 1.41237(14) 0.83966(11)
C51 C 0.94977(19) 1.4192(2) 0.8263(2)
C52 C 0.96227(18) 1.3682(2) 0.8573(2)
H3 H 0.9547(18) 0.6163(16) 0.6823(13)
H4 H 0.949(2) 0.708(2) 0.6324(17)
H5 H 0.9196(19) 0.7857(16) 0.5902(13)
H6 H 0.835(2) 1.2639(17) 0.5904(14)
H7 H 0.744(2) 0.6926(19) 0.6480(16)
H8 H 0.761(2) 0.597(2) 0.6994(17)
H9 H 1.014(3) 0.543(2) 0.789(2)
H10 H 1.019(2) 0.5355(19) 0.7415(15)
H11 H 0.9224(19) 0.7878(16) 0.9140(13)
H12 H 0.742(2) 0.472(2) 0.7505(14)
H13 H 0.723(2) 0.5176(18) 0.7667(15)
H14 H 0.8341(18) 1.2602(16) 0.9270(12)
H15 H 0.914(2) 0.8200(19) 0.4984(15)
H16 H 0.9047(18) 0.9127(16) 0.4467(14)
H17 H 0.822(2) 0.997(2) 0.5649(16)
H18 H 0.8320(18) 0.9075(16) 0.6125(14)
H19 H 0.8856(18) 1.0195(17) 0.4414(16)
H20 H 0.8078(17) 1.0183(15) 0.4553(13)
H21 H 0.957(2) 1.079(2) 0.5080(16)
H22 H 0.9718(17) 1.1711(16) 0.5563(13)
H23 H 0.7718(19) 1.1962(17) 0.5429(14)
H24 H 0.7575(18) 1.1075(15) 0.4947(12)
H25 H 1.016(2) 1.3443(18) 0.6501(15)
H26 H 0.997(3) 1.438(3) 0.699(2)
H27 H 0.7991(19) 1.4417(17) 0.6731(14)
H28 H 0.805(2) 1.343(2) 0.6198(18)
H29 H 0.7876(18) 0.5633(17) 0.8487(13)
H30 H 0.7595(17) 0.6532(16) 0.9007(13)
H31 H 0.9269(18) 0.7418(17) 0.8365(13)
H32 H 0.937(2) 0.648(2) 0.7829(17)
H33 H 0.8874(18) 0.8089(18) 1.0178(15)
H34 H 0.8863(17) 0.9010(16) 1.0670(14)
H35 H 0.8587(19) 1.002(2) 0.9426(15)
H36 H 0.860(2) 0.9130(19) 0.8941(16)
H37 H 0.835(2) 1.016(2) 1.0665(18)
H38 H 0.909(2) 1.0133(18) 1.0689(17)
H39 H 0.7735(18) 1.1017(16) 1.0223(13)
H40 H 0.778(2) 1.1944(18) 0.9786(14)
H41 H 0.9809(18) 1.1715(16) 0.9563(13)
H42 H 0.9731(19) 1.0822(17) 1.0033(14)
H43 H 0.805(2) 1.3389(18) 0.8889(15)
H44 H 0.7900(18) 1.4294(16) 0.8329(13)
H45 H 0.989(3) 1.444(3) 0.812(2)
H46 H 1.016(3) 1.352(2) 0.8625(19)
Cd1_2 Cd 0.877022(9) 1.519830(9) 0.755286(7)
N4_2 N 0.89689(12) 0.44319(11) 0.69411(9)
N8_2 N 0.88764(12) 0.44107(12) 0.81687(10)
Cl1 Cl 0.35919(4) 0.86873(4) 0.75549(3)
O1 O 0.3973(2) 0.9223(2) 0.7697(2)
O2 O 0.28939(15) 0.88145(14) 0.76531(15)
O3 O 0.3796(2) 0.8154(2) 0.78224(18)
O4 O 0.3686(2) 0.8596(2) 0.70323(15)
O16? O 0.0543(2) 0.60606(19) 0.82960(16)
H47? H 0.0642 0.6406 0.8162
O17? O 0.2278(5) 0.7405(4) 0.7251(3)
H48? H 0.1038 0.5346 0.8612
Cl6? Cl 0.0793(3) 0.7227(3) 0.7908(2)
O18? O 0.1726(4) 0.5342(6) 0.6423(4)
O19? O 0.1223(6) 0.6372(6) 0.6513(5)
loop_
_geom_bond_atom_site_label_1
_geom_bond_atom_site_label_2
_geom_bond_site_symmetry_1
_geom_bond_site_symmetry_2
Cl1 O1 1_555 1_555
O2 Cl1 1_555 1_555
O3 Cl1 1_555 1_555
O4 Cl1 1_555 1_555
Cl2 O5 1_555 1_555
O6 Cl2 1_555 1_555
O7 Cl2 1_555 1_555
O8 Cl2 1_555 1_555
Cl3 C1 1_555 1_555
Cl4 C1 1_555 1_555
Cl5 C1 1_555 1_555
O9 C2 1_555 1_555
C2 H1 1_555 1_555
H2 C2 1_555 1_555
Cd1 O14 1_555 1_555
O10 C8 1_555 1_555
O11 C22 1_555 1_555
O12 C33 1_555 1_555
O13 C47 1_555 1_555
O14 H9 1_555 1_555
O15 Cd1 1_555 1_555
N1 Cd1 1_555 1_555
N2 C8 1_555 1_555
N3 C19 1_555 1_555
N4 C25 1_555 1_555
N5 Cd1 1_555 1_555
N6 C33 1_555 1_555
N7 C44 1_555 1_555
N8 C50 1_555 1_555
C3 N1 1_555 1_555
C4 C3 1_555 1_555
C5 C4 1_555 1_555
C6 C5 1_555 1_555
C7 N1 1_555 1_555
C8 C5 1_555 1_555
C9 N2 1_555 1_555
C10 C9 1_555 1_555
C11 C10 1_555 1_555
C12 C11 1_555 1_555
C13 C12 1_555 1_555
C14 C9 1_555 1_555
C15 C12 1_555 1_555
C16 C15 1_555 1_555
C17 C16 1_555 1_555
C18 C17 1_555 1_555
C19 C18 1_555 1_555
C20 C19 1_555 1_555
C21 C16 1_555 1_555
C22 N3 1_555 1_555
C23 C22 1_555 1_555
C24 C23 1_555 1_555
C25 C24 1_555 1_555
C26 N4 1_555 1_555
C27 C23 1_555 1_555
C28 N5 1_555 1_555
C29 C28 1_555 1_555
C30 C29 1_555 1_555
C31 C30 1_555 1_555
C32 N5 1_555 1_555
C33 C30 1_555 1_555
C34 N6 1_555 1_555
C35 C34 1_555 1_555
C36 C35 1_555 1_555
C37 C36 1_555 1_555
C38 C37 1_555 1_555
C39 C34 1_555 1_555
C40 C37 1_555 1_555
C41 C40 1_555 1_555
C42 C41 1_555 1_555
C43 C42 1_555 1_555
C44 C43 1_555 1_555
C45 C44 1_555 1_555
C46 C41 1_555 1_555
C47 N7 1_555 1_555
C48 C47 1_555 1_555
C49 C48 1_555 1_555
C50 C49 1_555 1_555
C51 N8 1_555 1_555
C52 C48 1_555 1_555
H3 C3 1_555 1_555
H4 C4 1_555 1_555
H5 N2 1_555 1_555
H6 N3 1_555 1_555
H7 C6 1_555 1_555
H8 C7 1_555 1_555
H10 O14 1_555 1_555
H11 N6 1_555 1_555
H12 O15 1_555 1_555
H13 O15 1_555 1_555
H14 N7 1_555 1_555
H15 C10 1_555 1_555
H16 C11 1_555 1_555
H17 C13 1_555 1_555
H18 C14 1_555 1_555
H19 C15 1_555 1_555
H20 C15 1_555 1_555
H21 C17 1_555 1_555
H22 C18 1_555 1_555
H23 C20 1_555 1_555
H24 C21 1_555 1_555
H25 C24 1_555 1_555
H26 C25 1_555 1_555
H27 C26 1_555 1_555
H28 C27 1_555 1_555
H29 C28 1_555 1_555
H30 C29 1_555 1_555
H31 C31 1_555 1_555
H32 C32 1_555 1_555
H33 C35 1_555 1_555
H34 C36 1_555 1_555
H35 C38 1_555 1_555
H36 C39 1_555 1_555
H37 C40 1_555 1_555
H38 C40 1_555 1_555
H39 C42 1_555 1_555
H40 C43 1_555 1_555
H41 C45 1_555 1_555
H42 C46 1_555 1_555
H43 C49 1_555 1_555
H44 C50 1_555 1_555
H45 C51 1_555 1_555
H46 C52 1_555 1_555
Cd1_2 N4 1_555 1_555
N4_2 Cd1 1_555 1_555
N8_2 Cd1 1_555 1_555
N8 Cd1_2 1_555 1_555
C6 C7 1_555 1_555
C13 C14 1_555 1_555
C20 C21 1_555 1_555
C26 C27 1_555 1_555
C31 C32 1_555 1_555
C38 C39 1_555 1_555
C45 C46 1_555 1_555
C51 C52 1_555 1_555

#END
