
#######################################################################
#
#                 Cambridge Crystallographic Data Centre
#                                CCDC 
#
#######################################################################
#
# If this CIF has been generated from an entry in the Cambridge 
# Structural Database, then it will include bibliographic, chemical, 
# crystal, experimental, refinement or atomic coordinate data resulting 
# from the CCDC's data processing and validation procedures.
#
#######################################################################

data_VETSOE
_symmetry_cell_setting           cubic
_symmetry_space_group_name_H-M   'F m -3 c'
_symmetry_Int_Tables_number      226
_space_group_name_Hall           '-F 4c 2 3'
loop_
_symmetry_equiv_pos_site_id
_symmetry_equiv_pos_as_xyz
1 x,y,z
2 -x,-y,z
3 -x,y,-z
4 x,-y,-z
5 z,x,y
6 z,-x,-y
7 -z,-x,y
8 -z,x,-y
9 y,z,x
10 -y,z,-x
11 y,-z,-x
12 -y,-z,x
13 1/2+y,1/2+x,1/2-z
14 1/2-y,1/2-x,1/2-z
15 1/2+y,1/2-x,1/2+z
16 1/2-y,1/2+x,1/2+z
17 1/2+x,1/2+z,1/2-y
18 1/2-x,1/2+z,1/2+y
19 1/2-x,1/2-z,1/2-y
20 1/2+x,1/2-z,1/2+y
21 1/2+z,1/2+y,1/2-x
22 1/2+z,1/2-y,1/2+x
23 1/2-z,1/2+y,1/2+x
24 1/2-z,1/2-y,1/2-x
25 x,1/2+y,1/2+z
26 -x,1/2-y,1/2+z
27 -x,1/2+y,1/2-z
28 x,1/2-y,1/2-z
29 z,1/2+x,1/2+y
30 z,1/2-x,1/2-y
31 -z,1/2-x,1/2+y
32 -z,1/2+x,1/2-y
33 y,1/2+z,1/2+x
34 -y,1/2+z,1/2-x
35 y,1/2-z,1/2-x
36 -y,1/2-z,1/2+x
37 1/2+y,x,-z
38 1/2-y,-x,-z
39 1/2+y,-x,z
40 1/2-y,x,z
41 1/2+x,z,-y
42 1/2-x,z,y
43 1/2-x,-z,-y
44 1/2+x,-z,y
45 1/2+z,y,-x
46 1/2+z,-y,x
47 1/2-z,y,x
48 1/2-z,-y,-x
49 1/2+x,y,1/2+z
50 1/2-x,-y,1/2+z
51 1/2-x,y,1/2-z
52 1/2+x,-y,1/2-z
53 1/2+z,x,1/2+y
54 1/2+z,-x,1/2-y
55 1/2-z,-x,1/2+y
56 1/2-z,x,1/2-y
57 1/2+y,z,1/2+x
58 1/2-y,z,1/2-x
59 1/2+y,-z,1/2-x
60 1/2-y,-z,1/2+x
61 y,1/2+x,-z
62 -y,1/2-x,-z
63 y,1/2-x,z
64 -y,1/2+x,z
65 x,1/2+z,-y
66 -x,1/2+z,y
67 -x,1/2-z,-y
68 x,1/2-z,y
69 z,1/2+y,-x
70 z,1/2-y,x
71 -z,1/2+y,x
72 -z,1/2-y,-x
73 1/2+x,1/2+y,z
74 1/2-x,1/2-y,z
75 1/2-x,1/2+y,-z
76 1/2+x,1/2-y,-z
77 1/2+z,1/2+x,y
78 1/2+z,1/2-x,-y
79 1/2-z,1/2-x,y
80 1/2-z,1/2+x,-y
81 1/2+y,1/2+z,x
82 1/2-y,1/2+z,-x
83 1/2+y,1/2-z,-x
84 1/2-y,1/2-z,x
85 y,x,1/2-z
86 -y,-x,1/2-z
87 y,-x,1/2+z
88 -y,x,1/2+z
89 x,z,1/2-y
90 -x,z,1/2+y
91 -x,-z,1/2-y
92 x,-z,1/2+y
93 z,y,1/2-x
94 z,-y,1/2+x
95 -z,y,1/2+x
96 -z,-y,1/2-x
97 -x,-y,-z
98 x,y,-z
99 x,-y,z
100 -x,y,z
101 -z,-x,-y
102 -z,x,y
103 z,x,-y
104 z,-x,y
105 -y,-z,-x
106 y,-z,x
107 -y,z,x
108 y,z,-x
109 1/2-y,1/2-x,1/2+z
110 1/2+y,1/2+x,1/2+z
111 1/2-y,1/2+x,1/2-z
112 1/2+y,1/2-x,1/2-z
113 1/2-x,1/2-z,1/2+y
114 1/2+x,1/2-z,1/2-y
115 1/2+x,1/2+z,1/2+y
116 1/2-x,1/2+z,1/2-y
117 1/2-z,1/2-y,1/2+x
118 1/2-z,1/2+y,1/2-x
119 1/2+z,1/2-y,1/2-x
120 1/2+z,1/2+y,1/2+x
121 -x,1/2-y,1/2-z
122 x,1/2+y,1/2-z
123 x,1/2-y,1/2+z
124 -x,1/2+y,1/2+z
125 -z,1/2-x,1/2-y
126 -z,1/2+x,1/2+y
127 z,1/2+x,1/2-y
128 z,1/2-x,1/2+y
129 -y,1/2-z,1/2-x
130 y,1/2-z,1/2+x
131 -y,1/2+z,1/2+x
132 y,1/2+z,1/2-x
133 1/2-y,-x,z
134 1/2+y,x,z
135 1/2-y,x,-z
136 1/2+y,-x,-z
137 1/2-x,-z,y
138 1/2+x,-z,-y
139 1/2+x,z,y
140 1/2-x,z,-y
141 1/2-z,-y,x
142 1/2-z,y,-x
143 1/2+z,-y,-x
144 1/2+z,y,x
145 1/2-x,-y,1/2-z
146 1/2+x,y,1/2-z
147 1/2+x,-y,1/2+z
148 1/2-x,y,1/2+z
149 1/2-z,-x,1/2-y
150 1/2-z,x,1/2+y
151 1/2+z,x,1/2-y
152 1/2+z,-x,1/2+y
153 1/2-y,-z,1/2-x
154 1/2+y,-z,1/2+x
155 1/2-y,z,1/2+x
156 1/2+y,z,1/2-x
157 -y,1/2-x,z
158 y,1/2+x,z
159 -y,1/2+x,-z
160 y,1/2-x,-z
161 -x,1/2-z,y
162 x,1/2-z,-y
163 x,1/2+z,y
164 -x,1/2+z,-y
165 -z,1/2-y,x
166 -z,1/2+y,-x
167 z,1/2-y,-x
168 z,1/2+y,x
169 1/2-x,1/2-y,-z
170 1/2+x,1/2+y,-z
171 1/2+x,1/2-y,z
172 1/2-x,1/2+y,z
173 1/2-z,1/2-x,-y
174 1/2-z,1/2+x,y
175 1/2+z,1/2+x,-y
176 1/2+z,1/2-x,y
177 1/2-y,1/2-z,-x
178 1/2+y,1/2-z,x
179 1/2-y,1/2+z,x
180 1/2+y,1/2+z,-x
181 -y,-x,1/2+z
182 y,x,1/2+z
183 -y,x,1/2-z
184 y,-x,1/2-z
185 -x,-z,1/2+y
186 x,-z,1/2-y
187 x,z,1/2+y
188 -x,z,1/2-y
189 -z,-y,1/2+x
190 -z,y,1/2-x
191 z,-y,1/2-x
192 z,y,1/2+x
_cell_length_a                   50.621(6)
_cell_length_b                   50.621(6)
_cell_length_c                   50.621(6)
_cell_angle_alpha                90
_cell_angle_beta                 90
_cell_angle_gamma                90
_cell_volume                     129716
loop_
_atom_site_label
_atom_site_type_symbol
_atom_site_fract_x
_atom_site_fract_y
_atom_site_fract_z
Mn2 Mn 1.0000 0.300027(19) 0.236358(17)
Cl1 Cl 1.01079(5) 0.2500 0.2500
O1 O 0.97044(7) 0.31718(8) 0.25816(7)
O2 O 0.97952(12) 0.29596(15) 0.29791(13)
C1 C 0.96256(11) 0.30836(14) 0.27920(13)
C2 C 0.93842(9) 0.32043(10) 0.29094(9)
C3 C 0.92749(9) 0.30857(9) 0.31312(10)
H1 H 0.9354 0.2932 0.3204
C4 C 0.90515(8) 0.31923(9) 0.32448(8)
C5 C 0.89279(9) 0.34196(8) 0.31380(8)
C6 C 0.90320(9) 0.35353(10) 0.29155(9)
H2 H 0.8950 0.3686 0.2839
C7 C 0.92633(9) 0.34253(9) 0.28036(8)
H3 H 0.9338 0.3506 0.2651
C8 C 0.89050(10) 0.30901(9) 0.34874(9)
C9 C 0.86789(8) 0.32900(8) 0.35054(9)
C10 C 0.86920(8) 0.34778(9) 0.33055(8)
C11 C 0.91102(13) 0.31112(16) 0.37134(14)
H4 H 0.9161 0.3297 0.3738
H5 H 0.9267 0.3007 0.3668
H6 H 0.9033 0.3043 0.3877
C12 C 0.87912(13) 0.28059(10) 0.34044(11)
H7 H 0.8664 0.2827 0.3260
H8 H 0.8703 0.2725 0.3557
H9 H 0.8937 0.2693 0.3346
Mn2XB Mn 0.736358(17) 0.5000 0.300027(19)
Mn2DB Mn 0.800027(19) 0.236358(17) 0.5000
Mn2JC Mn 1.0000 0.236358(17) 0.199973(19)
Mn2RA Mn 0.736358(17) 0.300027(19) 0.0000
Mn2L Mn 0.800027(19) 0.5000 0.263642(17)
Mn2ZB Mn 1.263642(17) 0.5000 0.300027(19)
Mn2EB Mn 1.199973(19) 0.236358(17) 0.5000
Mn2TA Mn 1.263642(17) 0.300027(19) 0.0000
Mn2M Mn 1.199973(19) 0.5000 0.263642(17)
Mn2OB Mn 1.0000 0.263642(17) 0.300027(19)
Mn2PC Mn 0.763642(17) 0.300027(19) 0.5000
Mn2AA Mn 1.0000 0.199973(19) 0.263642(17)
Mn2DC Mn 0.800027(19) 0.263642(17) 0.0000
Mn2EA Mn 0.763642(17) 0.5000 0.199973(19)
Mn2NC Mn 1.236358(17) 0.300027(19) 0.5000
Mn2EC Mn 1.199973(19) 0.263642(17) 0.0000
Mn2CA Mn 1.236358(17) 0.5000 0.199973(19)
Mn2KB Mn 0.699973(19) 0.5000 0.236358(17)
Mn2OA Mn 0.5000 0.236358(17) 0.300027(19)
Mn2XA Mn 0.5000 0.300027(19) 0.263642(17)
Mn2IA Mn 0.699973(19) 0.263642(17) 0.5000
Mn2FB Mn 0.800027(19) 0.763642(17) 0.5000
Mn2QC Mn 0.763642(17) 0.699973(19) 0.5000
Mn2A Mn 1.0000 0.699973(19) 0.236358(17)
Mn2MB Mn 1.0000 0.736358(17) 0.300027(19)
Mn2QA Mn 0.5000 0.763642(17) 0.300027(19)
Mn2YA Mn 0.5000 0.699973(19) 0.263642(17)
Mn2GA Mn 0.699973(19) 0.736358(17) 0.5000
Mn2U Mn 0.736358(17) 0.199973(19) 0.5000
Mn2LA Mn 0.800027(19) 0.0000 0.236358(17)
Mn2F Mn 0.763642(17) 0.0000 0.300027(19)
Cl1UC Cl 0.98921(5) 0.2500 0.2500
Cl1L Cl 0.7500 0.51079(5) 0.2500
Cl1GD Cl 0.7500 0.48921(5) 0.2500
Cl1U Cl 0.7500 0.2500 0.51079(5)
Cl1ND Cl 0.7500 0.2500 0.48921(5)
Cl1I Cl 0.7500 0.2500 -0.01079(5)
Cl1BD Cl 0.7500 0.2500 0.01079(5)
Cl1FD Cl 1.2500 0.51079(5) 0.2500
Cl1M Cl 1.2500 0.48921(5) 0.2500
Cl1LD Cl 1.2500 0.2500 0.51079(5)
Cl1W Cl 1.2500 0.2500 0.48921(5)
Cl1CD Cl 1.2500 0.2500 -0.01079(5)
Cl1H Cl 1.2500 0.2500 0.01079(5)
O1XB O 0.75816(7) 0.47044(7) 0.31718(8)
O1DB O 0.81718(8) 0.25816(7) 0.47044(7)
O1JC O 0.97044(7) 0.25816(7) 0.18282(8)
O1RA O 0.75816(7) 0.31718(8) 0.02956(7)
O1L O 0.81718(8) 0.47044(7) 0.24184(7)
O1UC O 1.02956(7) 0.31718(8) 0.25816(7)
O1QF O 1.24184(7) 0.47044(7) 0.31718(8)
O1XE O 1.18282(8) 0.25816(7) 0.47044(7)
O1EG O 1.02956(7) 0.25816(7) 0.18282(8)
O1KE O 1.24184(7) 0.31718(8) 0.02956(7)
O1FD O 1.18282(8) 0.47044(7) 0.24184(7)
O1KB O 0.68282(8) 0.47044(7) 0.25816(7)
O1OA O 0.52956(7) 0.25816(7) 0.31718(8)
O1PC O 0.74184(7) 0.31718(8) 0.47044(7)
O1SF O 0.75816(7) 0.52956(7) 0.31718(8)
O1WE O 0.81718(8) 0.74184(7) 0.47044(7)
O1TC O 0.97044(7) 0.68282(8) 0.25816(7)
O1ZE O 0.68282(8) 0.52956(7) 0.25816(7)
O1FE O 0.52956(7) 0.74184(7) 0.31718(8)
O1FG O 0.74184(7) 0.68282(8) 0.47044(7)
O1U O 0.75816(7) 0.18282(8) 0.47044(7)
O1LA O 0.81718(8) 0.02956(7) 0.25816(7)
O1OB O 0.97044(7) 0.24184(7) 0.31718(8)
O1YE O 0.81718(8) 0.25816(7) 0.52956(7)
O1ME O 0.75816(7) 0.31718(8) -0.02956(7)
O1GD O 0.81718(8) 0.52956(7) 0.24184(7)
O1ZB O 1.24184(7) 0.52956(7) 0.31718(8)
O1EB O 1.18282(8) 0.25816(7) 0.52956(7)
O1TA O 1.24184(7) 0.31718(8) -0.02956(7)
O1M O 1.18282(8) 0.52956(7) 0.24184(7)
O1DF O 1.02956(7) 0.24184(7) 0.31718(8)
O1GG O 0.74184(7) 0.31718(8) 0.52956(7)
O2XB O 0.79791(13) 0.47952(12) 0.29596(15)
O2DB O 0.79596(15) 0.29791(13) 0.47952(12)
O2JC O 0.97952(12) 0.29791(13) 0.20404(15)
O2RA O 0.79791(13) 0.29596(15) 0.02048(12)
O2L O 0.79596(15) 0.47952(12) 0.20209(13)
O2UC O 1.02048(12) 0.29596(15) 0.29791(13)
O2QF O 1.20209(13) 0.47952(12) 0.29596(15)
O2XE O 1.20404(15) 0.29791(13) 0.47952(12)
O2EG O 1.02048(12) 0.29791(13) 0.20404(15)
O2KE O 1.20209(13) 0.29596(15) 0.02048(12)
O2FD O 1.20404(15) 0.47952(12) 0.20209(13)
O2KB O 0.70404(15) 0.47952(12) 0.29791(13)
O2OA O 0.52048(12) 0.29791(13) 0.29596(15)
O2PC O 0.70209(13) 0.29596(15) 0.47952(12)
O2SF O 0.79791(13) 0.52048(12) 0.29596(15)
O2WE O 0.79596(15) 0.70209(13) 0.47952(12)
O2TC O 0.97952(12) 0.70404(15) 0.29791(13)
O2ZE O 0.70404(15) 0.52048(12) 0.29791(13)
O2FE O 0.52048(12) 0.70209(13) 0.29596(15)
O2FG O 0.70209(13) 0.70404(15) 0.47952(12)
O2U O 0.79791(13) 0.20404(15) 0.47952(12)
O2LA O 0.79596(15) 0.02048(12) 0.29791(13)
O2OB O 0.97952(12) 0.20209(13) 0.29596(15)
O2ND O 0.79791(13) 0.20404(15) 0.52048(12)
O2AA O 0.97952(12) 0.20404(15) 0.20209(13)
O2PD O 1.02048(12) 0.20404(15) 0.20209(13)
O2I O 0.70404(15) 0.29791(13) 0.02048(12)
O2BD O 0.70404(15) 0.29791(13) -0.02048(12)
O2AF O 1.29596(15) 0.47952(12) 0.29791(13)
O2JB O 1.29596(15) 0.52048(12) 0.29791(13)
O2LD O 1.20209(13) 0.20404(15) 0.47952(12)
O2W O 1.20209(13) 0.20404(15) 0.52048(12)
O2CD O 1.29596(15) 0.29791(13) 0.02048(12)
O2H O 1.29596(15) 0.29791(13) -0.02048(12)
O2ZB O 1.20209(13) 0.52048(12) 0.29596(15)
O2YE O 0.79596(15) 0.29791(13) 0.52048(12)
C1XB C 0.77920(13) 0.46256(11) 0.30836(14)
C1DB C 0.80836(14) 0.27920(13) 0.46256(11)
C1JC C 0.96256(11) 0.27920(13) 0.19164(14)
C1RA C 0.77920(13) 0.30836(14) 0.03744(11)
C1L C 0.80836(14) 0.46256(11) 0.22080(13)
C1UC C 1.03744(11) 0.30836(14) 0.27920(13)
C1QF C 1.22080(13) 0.46256(11) 0.30836(14)
C1XE C 1.19164(14) 0.27920(13) 0.46256(11)
C1EG C 1.03744(11) 0.27920(13) 0.19164(14)
C1KE C 1.22080(13) 0.30836(14) 0.03744(11)
C1FD C 1.19164(14) 0.46256(11) 0.22080(13)
C1KB C 0.69164(14) 0.46256(11) 0.27920(13)
C1OA C 0.53744(11) 0.27920(13) 0.30836(14)
C1PC C 0.72080(13) 0.30836(14) 0.46256(11)
C1SF C 0.77920(13) 0.53744(11) 0.30836(14)
C1WE C 0.80836(14) 0.72080(13) 0.46256(11)
C1TC C 0.96256(11) 0.69164(14) 0.27920(13)
C1ZE C 0.69164(14) 0.53744(11) 0.27920(13)
C1FE C 0.53744(11) 0.72080(13) 0.30836(14)
C1FG C 0.72080(13) 0.69164(14) 0.46256(11)
C1U C 0.77920(13) 0.19164(14) 0.46256(11)
C1LA C 0.80836(14) 0.03744(11) 0.27920(13)
C1OB C 0.96256(11) 0.22080(13) 0.30836(14)
C2XB C 0.79094(9) 0.43842(9) 0.32043(10)
C2DB C 0.82043(10) 0.29094(9) 0.43842(9)
C2JC C 0.93842(9) 0.29094(9) 0.17957(10)
C2RA C 0.79094(9) 0.32043(10) 0.06158(9)
C2L C 0.82043(10) 0.43842(9) 0.20906(9)
C2UC C 1.06158(9) 0.32043(10) 0.29094(9)
C2QF C 1.20906(9) 0.43842(9) 0.32043(10)
C2XE C 1.17957(10) 0.29094(9) 0.43842(9)
C2EG C 1.06158(9) 0.29094(9) 0.17957(10)
C2KE C 1.20906(9) 0.32043(10) 0.06158(9)
C2FD C 1.17957(10) 0.43842(9) 0.20906(9)
C2KB C 0.67957(10) 0.43842(9) 0.29094(9)
C2OA C 0.56158(9) 0.29094(9) 0.32043(10)
C2PC C 0.70906(9) 0.32043(10) 0.43842(9)
C2SF C 0.79094(9) 0.56158(9) 0.32043(10)
C2WE C 0.82043(10) 0.70906(9) 0.43842(9)
C2TC C 0.93842(9) 0.67957(10) 0.29094(9)
C2ZE C 0.67957(10) 0.56158(9) 0.29094(9)
C2FE C 0.56158(9) 0.70906(9) 0.32043(10)
C2FG C 0.70906(9) 0.67957(10) 0.43842(9)
C2U C 0.79094(9) 0.17957(10) 0.43842(9)
C2LA C 0.82043(10) 0.06158(9) 0.29094(9)
C2OB C 0.93842(9) 0.20906(9) 0.32043(10)
C3XB C 0.81312(10) 0.42749(9) 0.30857(9)
C3DB C 0.80857(9) 0.31312(10) 0.42749(9)
C3JC C 0.92749(9) 0.31312(10) 0.19143(9)
C3RA C 0.81312(10) 0.30857(9) 0.07251(9)
C3L C 0.80857(9) 0.42749(9) 0.18688(10)
C3UC C 1.07251(9) 0.30857(9) 0.31312(10)
C3QF C 1.18688(10) 0.42749(9) 0.30857(9)
C3XE C 1.19143(9) 0.31312(10) 0.42749(9)
C3EG C 1.07251(9) 0.31312(10) 0.19143(9)
C3KE C 1.18688(10) 0.30857(9) 0.07251(9)
C3FD C 1.19143(9) 0.42749(9) 0.18688(10)
C3KB C 0.69143(9) 0.42749(9) 0.31312(10)
C3OA C 0.57251(9) 0.31312(10) 0.30857(9)
C3PC C 0.68688(10) 0.30857(9) 0.42749(9)
C3SF C 0.81312(10) 0.57251(9) 0.30857(9)
C3WE C 0.80857(9) 0.68688(10) 0.42749(9)
C3TC C 0.92749(9) 0.69143(9) 0.31312(10)
C3ZE C 0.69143(9) 0.57251(9) 0.31312(10)
C3FE C 0.57251(9) 0.68688(10) 0.30857(9)
C3FG C 0.68688(10) 0.69143(9) 0.42749(9)
C3U C 0.81312(10) 0.19143(9) 0.42749(9)
C3LA C 0.80857(9) 0.07251(9) 0.31312(10)
C3OB C 0.92749(9) 0.18688(10) 0.30857(9)
H1DB H 0.7932 0.3204 0.4354
H1XB H 0.8204 0.4354 0.2932
H1JC H 0.9354 0.3204 0.2068
H1L H 0.7932 0.4354 0.1796
H1RA H 0.8204 0.2932 0.0646
H1UC H 1.0646 0.2932 0.3204
H1XE H 1.2068 0.3204 0.4354
H1QF H 1.1796 0.4354 0.2932
H1EG H 1.0646 0.3204 0.2068
H1FD H 1.2068 0.4354 0.1796
H1KE H 1.1796 0.2932 0.0646
H1KB H 0.7068 0.4354 0.3204
H1PC H 0.6796 0.2932 0.4354
H1OA H 0.5646 0.3204 0.2932
H1SF H 0.8204 0.5646 0.2932
H1TC H 0.9354 0.7068 0.3204
H1WE H 0.7932 0.6796 0.4354
H1ZE H 0.7068 0.5646 0.3204
H1FG H 0.6796 0.7068 0.4354
H1FE H 0.5646 0.6796 0.2932
H1U H 0.8204 0.2068 0.4354
H1OB H 0.9354 0.1796 0.2932
H1LA H 0.7932 0.0646 0.3204
C4XB C 0.82448(8) 0.40515(8) 0.31923(9)
C4DB C 0.81923(9) 0.32448(8) 0.40515(8)
C4JC C 0.90515(8) 0.32448(8) 0.18077(9)
C4RA C 0.82448(8) 0.31923(9) 0.09485(8)
C4L C 0.81923(9) 0.40515(8) 0.17552(8)
C4UC C 1.09485(8) 0.31923(9) 0.32448(8)
C4QF C 1.17552(8) 0.40515(8) 0.31923(9)
C4XE C 1.18077(9) 0.32448(8) 0.40515(8)
C4EG C 1.09485(8) 0.32448(8) 0.18077(9)
C4KE C 1.17552(8) 0.31923(9) 0.09485(8)
C4FD C 1.18077(9) 0.40515(8) 0.17552(8)
C4KB C 0.68077(9) 0.40515(8) 0.32448(8)
C4OA C 0.59485(8) 0.32448(8) 0.31923(9)
C4PC C 0.67552(8) 0.31923(9) 0.40515(8)
C4SF C 0.82448(8) 0.59485(8) 0.31923(9)
C4WE C 0.81923(9) 0.67552(8) 0.40515(8)
C4TC C 0.90515(8) 0.68077(9) 0.32448(8)
C4ZE C 0.68077(9) 0.59485(8) 0.32448(8)
C4FE C 0.59485(8) 0.67552(8) 0.31923(9)
C4FG C 0.67552(8) 0.68077(9) 0.40515(8)
C4U C 0.82448(8) 0.18077(9) 0.40515(8)
C4LA C 0.81923(9) 0.09485(8) 0.32448(8)
C4OB C 0.90515(8) 0.17552(8) 0.31923(9)
C5XB C 0.81380(8) 0.39279(9) 0.34196(8)
C5DB C 0.84196(8) 0.31380(8) 0.39279(9)
C5JC C 0.89279(9) 0.31380(8) 0.15804(8)
C5RA C 0.81380(8) 0.34196(8) 0.10721(9)
C5L C 0.84196(8) 0.39279(9) 0.18620(8)
C5UC C 1.10721(9) 0.34196(8) 0.31380(8)
C5QF C 1.18620(8) 0.39279(9) 0.34196(8)
C5XE C 1.15804(8) 0.31380(8) 0.39279(9)
C5EG C 1.10721(9) 0.31380(8) 0.15804(8)
C5KE C 1.18620(8) 0.34196(8) 0.10721(9)
C5FD C 1.15804(8) 0.39279(9) 0.18620(8)
C5KB C 0.65804(8) 0.39279(9) 0.31380(8)
C5OA C 0.60721(9) 0.31380(8) 0.34196(8)
C5PC C 0.68620(8) 0.34196(8) 0.39279(9)
C5SF C 0.81380(8) 0.60721(9) 0.34196(8)
C5WE C 0.84196(8) 0.68620(8) 0.39279(9)
C5TC C 0.89279(9) 0.65804(8) 0.31380(8)
C5ZE C 0.65804(8) 0.60721(9) 0.31380(8)
C5FE C 0.60721(9) 0.68620(8) 0.34196(8)
C5FG C 0.68620(8) 0.65804(8) 0.39279(9)
C5U C 0.81380(8) 0.15804(8) 0.39279(9)
C5LA C 0.84196(8) 0.10721(9) 0.31380(8)
C5OB C 0.89279(9) 0.18620(8) 0.34196(8)
C6XB C 0.79155(9) 0.40320(9) 0.35353(10)
C6DB C 0.85353(10) 0.29155(9) 0.40320(9)
C6JC C 0.90320(9) 0.29155(9) 0.14647(10)
C6RA C 0.79155(9) 0.35353(10) 0.09680(9)
C6L C 0.85353(10) 0.40320(9) 0.20845(9)
C6UC C 1.09680(9) 0.35353(10) 0.29155(9)
C6QF C 1.20845(9) 0.40320(9) 0.35353(10)
C6XE C 1.14647(10) 0.29155(9) 0.40320(9)
C6EG C 1.09680(9) 0.29155(9) 0.14647(10)
C6KE C 1.20845(9) 0.35353(10) 0.09680(9)
C6FD C 1.14647(10) 0.40320(9) 0.20845(9)
C6KB C 0.64647(10) 0.40320(9) 0.29155(9)
C6OA C 0.59680(9) 0.29155(9) 0.35353(10)
C6PC C 0.70845(9) 0.35353(10) 0.40320(9)
C6SF C 0.79155(9) 0.59680(9) 0.35353(10)
C6WE C 0.85353(10) 0.70845(9) 0.40320(9)
C6TC C 0.90320(9) 0.64647(10) 0.29155(9)
C6ZE C 0.64647(10) 0.59680(9) 0.29155(9)
C6FE C 0.59680(9) 0.70845(9) 0.35353(10)
C6FG C 0.70845(9) 0.64647(10) 0.40320(9)
C6U C 0.79155(9) 0.14647(10) 0.40320(9)
C6LA C 0.85353(10) 0.09680(9) 0.29155(9)
C6OB C 0.90320(9) 0.20845(9) 0.35353(10)
H2DB H 0.8686 0.2839 0.3950
H2XB H 0.7839 0.3950 0.3686
H2JC H 0.8950 0.2839 0.1314
H2L H 0.8686 0.3950 0.2161
H2RA H 0.7839 0.3686 0.1050
H2UC H 1.1050 0.3686 0.2839
H2XE H 1.1314 0.2839 0.3950
H2QF H 1.2161 0.3950 0.3686
H2EG H 1.1050 0.2839 0.1314
H2FD H 1.1314 0.3950 0.2161
H2KE H 1.2161 0.3686 0.1050
H2KB H 0.6314 0.3950 0.2839
H2PC H 0.7161 0.3686 0.3950
H2OA H 0.6050 0.2839 0.3686
H2SF H 0.7839 0.6050 0.3686
H2TC H 0.8950 0.6314 0.2839
H2WE H 0.8686 0.7161 0.3950
H2ZE H 0.6314 0.6050 0.2839
H2FG H 0.7161 0.6314 0.3950
H2FE H 0.6050 0.7161 0.3686
H2U H 0.7839 0.1314 0.3950
H2OB H 0.8950 0.2161 0.3686
H2LA H 0.8686 0.1050 0.2839
C7XB C 0.78036(8) 0.42633(9) 0.34253(9)
C7DB C 0.84253(9) 0.28036(8) 0.42633(9)
C7JC C 0.92633(9) 0.28036(8) 0.15747(9)
C7RA C 0.78036(8) 0.34253(9) 0.07367(9)
C7L C 0.84253(9) 0.42633(9) 0.21964(8)
C7UC C 1.07367(9) 0.34253(9) 0.28036(8)
C7QF C 1.21964(8) 0.42633(9) 0.34253(9)
C7XE C 1.15747(9) 0.28036(8) 0.42633(9)
C7EG C 1.07367(9) 0.28036(8) 0.15747(9)
C7KE C 1.21964(8) 0.34253(9) 0.07367(9)
C7FD C 1.15747(9) 0.42633(9) 0.21964(8)
C7KB C 0.65747(9) 0.42633(9) 0.28036(8)
C7OA C 0.57367(9) 0.28036(8) 0.34253(9)
C7PC C 0.71964(8) 0.34253(9) 0.42633(9)
C7SF C 0.78036(8) 0.57367(9) 0.34253(9)
C7WE C 0.84253(9) 0.71964(8) 0.42633(9)
C7TC C 0.92633(9) 0.65747(9) 0.28036(8)
C7ZE C 0.65747(9) 0.57367(9) 0.28036(8)
C7FE C 0.57367(9) 0.71964(8) 0.34253(9)
C7FG C 0.71964(8) 0.65747(9) 0.42633(9)
C7U C 0.78036(8) 0.15747(9) 0.42633(9)
C7LA C 0.84253(9) 0.07367(9) 0.28036(8)
C7OB C 0.92633(9) 0.21964(8) 0.34253(9)
H3DB H 0.8506 0.2651 0.4338
H3XB H 0.7651 0.4338 0.3506
H3JC H 0.9338 0.2651 0.1494
H3L H 0.8506 0.4338 0.2349
H3RA H 0.7651 0.3506 0.0662
H3UC H 1.0662 0.3506 0.2651
H3XE H 1.1494 0.2651 0.4338
H3QF H 1.2349 0.4338 0.3506
H3EG H 1.0662 0.2651 0.1494
H3FD H 1.1494 0.4338 0.2349
H3KE H 1.2349 0.3506 0.0662
H3KB H 0.6494 0.4338 0.2651
H3PC H 0.7349 0.3506 0.4338
H3OA H 0.5662 0.2651 0.3506
H3SF H 0.7651 0.5662 0.3506
H3TC H 0.9338 0.6494 0.2651
H3WE H 0.8506 0.7349 0.4338
H3ZE H 0.6494 0.5662 0.2651
H3FG H 0.7349 0.6494 0.4338
H3FE H 0.5662 0.7349 0.3506
H3U H 0.7651 0.1494 0.4338
H3OB H 0.9338 0.2349 0.3506
H3LA H 0.8506 0.0662 0.2651
C8XB C 0.84874(9) 0.39050(10) 0.30901(9)
C8DB C 0.80901(9) 0.34874(9) 0.39050(10)
C8JC C 0.89050(10) 0.34874(9) 0.19099(9)
C8RA C 0.84874(9) 0.30901(9) 0.10950(10)
C8L C 0.80901(9) 0.39050(10) 0.15126(9)
C8UC C 1.10950(10) 0.30901(9) 0.34874(9)
C8QF C 1.15126(9) 0.39050(10) 0.30901(9)
C8XE C 1.19099(9) 0.34874(9) 0.39050(10)
C8EG C 1.10950(10) 0.34874(9) 0.19099(9)
C8KE C 1.15126(9) 0.30901(9) 0.10950(10)
C8FD C 1.19099(9) 0.39050(10) 0.15126(9)
C8KB C 0.69099(9) 0.39050(10) 0.34874(9)
C8OA C 0.60950(10) 0.34874(9) 0.30901(9)
C8PC C 0.65126(9) 0.30901(9) 0.39050(10)
C8SF C 0.84874(9) 0.60950(10) 0.30901(9)
C8WE C 0.80901(9) 0.65126(9) 0.39050(10)
C8TC C 0.89050(10) 0.69099(9) 0.34874(9)
C8ZE C 0.69099(9) 0.60950(10) 0.34874(9)
C8FE C 0.60950(10) 0.65126(9) 0.30901(9)
C8FG C 0.65126(9) 0.69099(9) 0.39050(10)
C8U C 0.84874(9) 0.19099(9) 0.39050(10)
C8LA C 0.80901(9) 0.10950(10) 0.34874(9)
C8OB C 0.89050(10) 0.15126(9) 0.30901(9)
C9XB C 0.85054(9) 0.36789(8) 0.32900(8)
C9DB C 0.82900(8) 0.35054(9) 0.36789(8)
C9JC C 0.86789(8) 0.35054(9) 0.17100(8)
C9RA C 0.85054(9) 0.32900(8) 0.13211(8)
C9L C 0.82900(8) 0.36789(8) 0.14946(9)
C9UC C 1.13211(8) 0.32900(8) 0.35054(9)
C9QF C 1.14946(9) 0.36789(8) 0.32900(8)
C9XE C 1.17100(8) 0.35054(9) 0.36789(8)
C9EG C 1.13211(8) 0.35054(9) 0.17100(8)
C9KE C 1.14946(9) 0.32900(8) 0.13211(8)
C9FD C 1.17100(8) 0.36789(8) 0.14946(9)
C9KB C 0.67100(8) 0.36789(8) 0.35054(9)
C9OA C 0.63211(8) 0.35054(9) 0.32900(8)
C9PC C 0.64946(9) 0.32900(8) 0.36789(8)
C9SF C 0.85054(9) 0.63211(8) 0.32900(8)
C9WE C 0.82900(8) 0.64946(9) 0.36789(8)
C9TC C 0.86789(8) 0.67100(8) 0.35054(9)
C9ZE C 0.67100(8) 0.63211(8) 0.35054(9)
C9FE C 0.63211(8) 0.64946(9) 0.32900(8)
C9FG C 0.64946(9) 0.67100(8) 0.36789(8)
C9U C 0.85054(9) 0.17100(8) 0.36789(8)
C9LA C 0.82900(8) 0.13211(8) 0.35054(9)
C9OB C 0.86789(8) 0.14946(9) 0.32900(8)
C10XB C 0.83055(8) 0.36920(8) 0.34778(9)
C10DB C 0.84778(9) 0.33055(8) 0.36920(8)
C10JC C 0.86920(8) 0.33055(8) 0.15222(9)
C10RA C 0.83055(8) 0.34778(9) 0.13080(8)
C10L C 0.84778(9) 0.36920(8) 0.16945(8)
C10UC C 1.13080(8) 0.34778(9) 0.33055(8)
C10QF C 1.16945(8) 0.36920(8) 0.34778(9)
C10XE C 1.15222(9) 0.33055(8) 0.36920(8)
C10EG C 1.13080(8) 0.33055(8) 0.15222(9)
C10KE C 1.16945(8) 0.34778(9) 0.13080(8)
C10FD C 1.15222(9) 0.36920(8) 0.16945(8)
C10KB C 0.65222(9) 0.36920(8) 0.33055(8)
C10OA C 0.63080(8) 0.33055(8) 0.34778(9)
C10PC C 0.66945(8) 0.34778(9) 0.36920(8)
C10SF C 0.83055(8) 0.63080(8) 0.34778(9)
C10WE C 0.84778(9) 0.66945(8) 0.36920(8)
C10TC C 0.86920(8) 0.65222(9) 0.33055(8)
C10ZE C 0.65222(9) 0.63080(8) 0.33055(8)
C10FE C 0.63080(8) 0.66945(8) 0.34778(9)
C10FG C 0.66945(8) 0.65222(9) 0.36920(8)
C10U C 0.83055(8) 0.15222(9) 0.36920(8)
C10LA C 0.84778(9) 0.13080(8) 0.33055(8)
C10OB C 0.86920(8) 0.16945(8) 0.34778(9)
C11DB C 0.81112(16) 0.37134(14) 0.41102(13)
C11XB C 0.87134(14) 0.41102(13) 0.31112(16)
C11JC C 0.91102(13) 0.37134(14) 0.18888(16)
C11L C 0.81112(16) 0.41102(13) 0.12866(14)
C11RA C 0.87134(14) 0.31112(16) 0.08898(13)
C11UC C 1.08898(13) 0.31112(16) 0.37134(14)
C11XE C 1.18888(16) 0.37134(14) 0.41102(13)
C11QF C 1.12866(14) 0.41102(13) 0.31112(16)
C11EG C 1.08898(13) 0.37134(14) 0.18888(16)
C11FD C 1.18888(16) 0.41102(13) 0.12866(14)
C11KE C 1.12866(14) 0.31112(16) 0.08898(13)
C11KB C 0.68888(16) 0.41102(13) 0.37134(14)
C11PC C 0.62866(14) 0.31112(16) 0.41102(13)
C11OA C 0.58898(13) 0.37134(14) 0.31112(16)
C11SF C 0.87134(14) 0.58898(13) 0.31112(16)
C11TC C 0.91102(13) 0.68888(16) 0.37134(14)
C11WE C 0.81112(16) 0.62866(14) 0.41102(13)
C11ZE C 0.68888(16) 0.58898(13) 0.37134(14)
C11FG C 0.62866(14) 0.68888(16) 0.41102(13)
C11FE C 0.58898(13) 0.62866(14) 0.31112(16)
C11U C 0.87134(14) 0.18888(16) 0.41102(13)
C11OB C 0.91102(13) 0.12866(14) 0.31112(16)
C11LA C 0.81112(16) 0.08898(13) 0.37134(14)
H4DB H 0.8297 0.3738 0.4161
H4XB H 0.8738 0.4161 0.3297
H4JC H 0.9161 0.3738 0.1703
H4L H 0.8297 0.4161 0.1262
H4RA H 0.8738 0.3297 0.0839
H4UC H 1.0839 0.3297 0.3738
H4XE H 1.1703 0.3738 0.4161
H4QF H 1.1262 0.4161 0.3297
H4EG H 1.0839 0.3738 0.1703
H4FD H 1.1703 0.4161 0.1262
H4KE H 1.1262 0.3297 0.0839
H4KB H 0.6703 0.4161 0.3738
H4PC H 0.6262 0.3297 0.4161
H4OA H 0.5839 0.3738 0.3297
H4SF H 0.8738 0.5839 0.3297
H4TC H 0.9161 0.6703 0.3738
H4WE H 0.8297 0.6262 0.4161
H4ZE H 0.6703 0.5839 0.3738
H4FG H 0.6262 0.6703 0.4161
H4FE H 0.5839 0.6262 0.3297
H4U H 0.8738 0.1703 0.4161
H4OB H 0.9161 0.1262 0.3297
H4LA H 0.8297 0.0839 0.3738
H5DB H 0.8007 0.3668 0.4267
H5XB H 0.8668 0.4267 0.3007
H5JC H 0.9267 0.3668 0.1993
H5L H 0.8007 0.4267 0.1332
H5RA H 0.8668 0.3007 0.0733
H5UC H 1.0733 0.3007 0.3668
H5XE H 1.1993 0.3668 0.4267
H5QF H 1.1332 0.4267 0.3007
H5EG H 1.0733 0.3668 0.1993
H5FD H 1.1993 0.4267 0.1332
H5KE H 1.1332 0.3007 0.0733
H5KB H 0.6993 0.4267 0.3668
H5PC H 0.6332 0.3007 0.4267
H5OA H 0.5733 0.3668 0.3007
H5SF H 0.8668 0.5733 0.3007
H5TC H 0.9267 0.6993 0.3668
H5WE H 0.8007 0.6332 0.4267
H5ZE H 0.6993 0.5733 0.3668
H5FG H 0.6332 0.6993 0.4267
H5FE H 0.5733 0.6332 0.3007
H5U H 0.8668 0.1993 0.4267
H5OB H 0.9267 0.1332 0.3007
H5LA H 0.8007 0.0733 0.3668
H6DB H 0.8043 0.3877 0.4033
H6XB H 0.8877 0.4033 0.3043
H6JC H 0.9033 0.3877 0.1957
H6L H 0.8043 0.4033 0.1123
H6RA H 0.8877 0.3043 0.0967
H6UC H 1.0967 0.3043 0.3877
H6XE H 1.1957 0.3877 0.4033
H6QF H 1.1123 0.4033 0.3043
H6EG H 1.0967 0.3877 0.1957
H6FD H 1.1957 0.4033 0.1123
H6KE H 1.1123 0.3043 0.0967
H6KB H 0.6957 0.4033 0.3877
H6PC H 0.6123 0.3043 0.4033
H6OA H 0.5967 0.3877 0.3043
H6SF H 0.8877 0.5967 0.3043
H6TC H 0.9033 0.6957 0.3877
H6WE H 0.8043 0.6123 0.4033
H6ZE H 0.6957 0.5967 0.3877
H6FG H 0.6123 0.6957 0.4033
H6FE H 0.5967 0.6123 0.3043
H6U H 0.8877 0.1957 0.4033
H6OB H 0.9033 0.1123 0.3043
H6LA H 0.8043 0.0967 0.3877
C12DB C 0.78059(10) 0.34044(11) 0.37912(13)
C12XB C 0.84044(11) 0.37912(13) 0.28059(10)
C12JC C 0.87912(13) 0.34044(11) 0.21941(10)
C12L C 0.78059(10) 0.37912(13) 0.15956(11)
C12RA C 0.84044(11) 0.28059(10) 0.12088(13)
C12UC C 1.12088(13) 0.28059(10) 0.34044(11)
C12XE C 1.21941(10) 0.34044(11) 0.37912(13)
C12QF C 1.15956(11) 0.37912(13) 0.28059(10)
C12EG C 1.12088(13) 0.34044(11) 0.21941(10)
C12FD C 1.21941(10) 0.37912(13) 0.15956(11)
C12KE C 1.15956(11) 0.28059(10) 0.12088(13)
C12KB C 0.71941(10) 0.37912(13) 0.34044(11)
C12PC C 0.65956(11) 0.28059(10) 0.37912(13)
C12OA C 0.62088(13) 0.34044(11) 0.28059(10)
C12SF C 0.84044(11) 0.62088(13) 0.28059(10)
C12TC C 0.87912(13) 0.71941(10) 0.34044(11)
C12WE C 0.78059(10) 0.65956(11) 0.37912(13)
C12ZE C 0.71941(10) 0.62088(13) 0.34044(11)
C12FG C 0.65956(11) 0.71941(10) 0.37912(13)
C12FE C 0.62088(13) 0.65956(11) 0.28059(10)
C12U C 0.84044(11) 0.21941(10) 0.37912(13)
C12OB C 0.87912(13) 0.15956(11) 0.28059(10)
C12LA C 0.78059(10) 0.12088(13) 0.34044(11)
H7DB H 0.7827 0.3260 0.3664
H7XB H 0.8260 0.3664 0.2827
H7JC H 0.8664 0.3260 0.2173
H7L H 0.7827 0.3664 0.1740
H7RA H 0.8260 0.2827 0.1336
H7UC H 1.1336 0.2827 0.3260
H7XE H 1.2173 0.3260 0.3664
H7QF H 1.1740 0.3664 0.2827
H7EG H 1.1336 0.3260 0.2173
H7FD H 1.2173 0.3664 0.1740
H7KE H 1.1740 0.2827 0.1336
H7KB H 0.7173 0.3664 0.3260
H7PC H 0.6740 0.2827 0.3664
H7OA H 0.6336 0.3260 0.2827
H7SF H 0.8260 0.6336 0.2827
H7TC H 0.8664 0.7173 0.3260
H7WE H 0.7827 0.6740 0.3664
H7ZE H 0.7173 0.6336 0.3260
H7FG H 0.6740 0.7173 0.3664
H7FE H 0.6336 0.6740 0.2827
H7U H 0.8260 0.2173 0.3664
H7OB H 0.8664 0.1740 0.2827
H7LA H 0.7827 0.1336 0.3260
H8DB H 0.7725 0.3557 0.3703
H8XB H 0.8557 0.3703 0.2725
H8JC H 0.8703 0.3557 0.2275
H8L H 0.7725 0.3703 0.1443
H8RA H 0.8557 0.2725 0.1297
H8UC H 1.1297 0.2725 0.3557
H8XE H 1.2275 0.3557 0.3703
H8QF H 1.1443 0.3703 0.2725
H8EG H 1.1297 0.3557 0.2275
H8FD H 1.2275 0.3703 0.1443
H8KE H 1.1443 0.2725 0.1297
H8KB H 0.7275 0.3703 0.3557
H8PC H 0.6443 0.2725 0.3703
H8OA H 0.6297 0.3557 0.2725
H8SF H 0.8557 0.6297 0.2725
H8TC H 0.8703 0.7275 0.3557
H8WE H 0.7725 0.6443 0.3703
H8ZE H 0.7275 0.6297 0.3557
H8FG H 0.6443 0.7275 0.3703
H8FE H 0.6297 0.6443 0.2725
H8U H 0.8557 0.2275 0.3703
H8OB H 0.8703 0.1443 0.2725
H8LA H 0.7725 0.1297 0.3557
H9DB H 0.7693 0.3346 0.3937
H9XB H 0.8346 0.3937 0.2693
H9JC H 0.8937 0.3346 0.2307
H9L H 0.7693 0.3937 0.1654
H9RA H 0.8346 0.2693 0.1063
H9UC H 1.1063 0.2693 0.3346
H9XE H 1.2307 0.3346 0.3937
H9QF H 1.1654 0.3937 0.2693
H9EG H 1.1063 0.3346 0.2307
H9FD H 1.2307 0.3937 0.1654
H9KE H 1.1654 0.2693 0.1063
H9KB H 0.7307 0.3937 0.3346
H9PC H 0.6654 0.2693 0.3937
H9OA H 0.6063 0.3346 0.2693
H9SF H 0.8346 0.6063 0.2693
H9TC H 0.8937 0.7307 0.3346
H9WE H 0.7693 0.6654 0.3937
H9ZE H 0.7307 0.6063 0.3346
H9FG H 0.6654 0.7307 0.3937
H9FE H 0.6063 0.6654 0.2693
H9U H 0.8346 0.2307 0.3937
H9OB H 0.8937 0.1654 0.2693
H9LA H 0.7693 0.1063 0.3346
Mn1 Mn 0.7500 0.2500 0.2500
O3? O 0.96661(14) 0.28520(18) 0.2827(2)
loop_
_geom_bond_atom_site_label_1
_geom_bond_atom_site_label_2
_geom_bond_site_symmetry_1
_geom_bond_site_symmetry_2
Mn2 Cl1 1_555 1_555
Cl1 Mn2JC 1_555 1_555
O1 Mn2 1_555 1_555
O2 C1 1_555 1_555
C1 O1 1_555 1_555
C2 C1 1_555 1_555
C3 C2 1_555 1_555
H1 C3 1_555 1_555
C4 C3 1_555 1_555
C5 C4 1_555 1_555
C6 C5 1_555 1_555
H2 C6 1_555 1_555
C7 C2 1_555 1_555
H3 C7 1_555 1_555
C8 C4 1_555 1_555
C9 C8 1_555 1_555
C10 C5 1_555 1_555
C11 C8 1_555 1_555
H4 C11 1_555 1_555
H5 C11 1_555 1_555
H6 C11 1_555 1_555
C12 C8 1_555 1_555
H7 C12 1_555 1_555
H8 C12 1_555 1_555
H9 C12 1_555 1_555
Mn2XB Cl1L 1_555 1_555
Mn2DB Cl1U 1_555 1_555
Mn2JC Cl1UC 1_555 1_555
Mn2RA Cl1I 1_555 1_555
Mn2L Cl1L 1_555 1_555
Mn2ZB Cl1FD 1_555 1_555
Mn2EB Cl1LD 1_555 1_555
Mn2TA Cl1CD 1_555 1_555
Mn2M Cl1FD 1_555 1_555
Mn2OB Cl1 1_555 1_555
Mn2PC Cl1U 1_555 1_555
Mn2AA Cl1 1_555 1_555
Mn2DC Cl1I 1_555 1_555
Mn2EA Cl1L 1_555 1_555
Mn2NC Cl1LD 1_555 1_555
Mn2EC Cl1CD 1_555 1_555
Mn2CA Cl1FD 1_555 1_555
Mn2KB Cl1L 1_555 1_555
Mn2OA O1OA 1_555 1_555
Mn2XA O2OA 1_555 1_555
Mn2IA Cl1U 1_555 1_555
Mn2FB O1WE 1_555 1_555
Mn2QC O1FG 1_555 1_555
Mn2A O1TC 1_555 1_555
Mn2MB O2TC 1_555 1_555
Mn2QA O1FE 1_555 1_555
Mn2YA O2FE 1_555 1_555
Mn2GA O2FG 1_555 1_555
Mn2U Cl1U 1_555 1_555
Mn2LA O1LA 1_555 1_555
Mn2F O2LA 1_555 1_555
Cl1UC Mn2 1_555 1_555
Cl1L Cl1GD 1_555 1_555
Cl1GD Mn2XB 1_555 1_555
Cl1U Cl1ND 1_555 1_555
Cl1ND Mn2DB 1_555 1_555
Cl1I Cl1BD 1_555 1_555
Cl1BD Mn2RA 1_555 1_555
Cl1FD Cl1M 1_555 1_555
Cl1M Mn2ZB 1_555 1_555
Cl1LD Cl1W 1_555 1_555
Cl1W Mn2EB 1_555 1_555
Cl1CD Cl1H 1_555 1_555
Cl1H Mn2TA 1_555 1_555
O1XB Mn2XB 1_555 1_555
O1DB Mn2DB 1_555 1_555
O1JC Mn2JC 1_555 1_555
O1RA Mn2RA 1_555 1_555
O1L Mn2L 1_555 1_555
O1UC Mn2 1_555 1_555
O1QF Mn2ZB 1_555 1_555
O1XE Mn2EB 1_555 1_555
O1EG Mn2JC 1_555 1_555
O1KE Mn2TA 1_555 1_555
O1FD Mn2M 1_555 1_555
O1KB Mn2KB 1_555 1_555
O1OA C1OA 1_555 1_555
O1PC Mn2PC 1_555 1_555
O1SF Mn2XB 1_555 1_555
O1WE C1WE 1_555 1_555
O1TC C1TC 1_555 1_555
O1ZE Mn2KB 1_555 1_555
O1FE C1FE 1_555 1_555
O1FG C1FG 1_555 1_555
O1U Mn2U 1_555 1_555
O1LA C1LA 1_555 1_555
O1OB Mn2OB 1_555 1_555
O1YE Mn2DB 1_555 1_555
O1ME Mn2RA 1_555 1_555
O1GD Mn2L 1_555 1_555
O1ZB Mn2ZB 1_555 1_555
O1EB Mn2EB 1_555 1_555
O1TA Mn2TA 1_555 1_555
O1M Mn2M 1_555 1_555
O1DF Mn2OB 1_555 1_555
O1GG Mn2PC 1_555 1_555
O2XB Mn2L 1_555 1_555
O2DB Mn2PC 1_555 1_555
O2JC Mn2 1_555 1_555
O2RA Mn2DC 1_555 1_555
O2L Mn2EA 1_555 1_555
O2UC Mn2OB 1_555 1_555
O2QF Mn2M 1_555 1_555
O2XE Mn2NC 1_555 1_555
O2EG Mn2 1_555 1_555
O2KE Mn2EC 1_555 1_555
O2FD Mn2CA 1_555 1_555
O2KB Mn2XB 1_555 1_555
O2OA C1OA 1_555 1_555
O2PC Mn2IA 1_555 1_555
O2SF Mn2L 1_555 1_555
O2WE Mn2QC 1_555 1_555
O2TC C1TC 1_555 1_555
O2ZE Mn2XB 1_555 1_555
O2FE C1FE 1_555 1_555
O2FG C1FG 1_555 1_555
O2U Mn2DB 1_555 1_555
O2LA C1LA 1_555 1_555
O2OB Mn2AA 1_555 1_555
O2ND Mn2DB 1_555 1_555
O2AA Mn2JC 1_555 1_555
O2PD Mn2JC 1_555 1_555
O2I Mn2RA 1_555 1_555
O2BD Mn2RA 1_555 1_555
O2AF Mn2ZB 1_555 1_555
O2JB Mn2ZB 1_555 1_555
O2LD Mn2EB 1_555 1_555
O2W Mn2EB 1_555 1_555
O2CD Mn2TA 1_555 1_555
O2H Mn2TA 1_555 1_555
O2ZB Mn2M 1_555 1_555
O2YE Mn2PC 1_555 1_555
C1XB O1XB 1_555 1_555
C1DB O1DB 1_555 1_555
C1JC O1JC 1_555 1_555
C1RA O1RA 1_555 1_555
C1L O1L 1_555 1_555
C1UC O1UC 1_555 1_555
C1QF O1QF 1_555 1_555
C1XE O1XE 1_555 1_555
C1EG O1EG 1_555 1_555
C1KE O1KE 1_555 1_555
C1FD O1FD 1_555 1_555
C1KB O1KB 1_555 1_555
C1OA C2OA 1_555 1_555
C1PC O1PC 1_555 1_555
C1SF O1SF 1_555 1_555
C1WE O2WE 1_555 1_555
C1TC C2TC 1_555 1_555
C1ZE O1ZE 1_555 1_555
C1FE C2FE 1_555 1_555
C1FG C2FG 1_555 1_555
C1U O1U 1_555 1_555
C1LA C2LA 1_555 1_555
C1OB O1OB 1_555 1_555
C2XB C1XB 1_555 1_555
C2DB C1DB 1_555 1_555
C2JC C1JC 1_555 1_555
C2RA C1RA 1_555 1_555
C2L C1L 1_555 1_555
C2UC C1UC 1_555 1_555
C2QF C1QF 1_555 1_555
C2XE C1XE 1_555 1_555
C2EG C1EG 1_555 1_555
C2KE C1KE 1_555 1_555
C2FD C1FD 1_555 1_555
C2KB C1KB 1_555 1_555
C2OA C3OA 1_555 1_555
C2PC C1PC 1_555 1_555
C2SF C1SF 1_555 1_555
C2WE C1WE 1_555 1_555
C2TC C3TC 1_555 1_555
C2ZE C1ZE 1_555 1_555
C2FE C3FE 1_555 1_555
C2FG C3FG 1_555 1_555
C2U C1U 1_555 1_555
C2LA C3LA 1_555 1_555
C2OB C1OB 1_555 1_555
C3XB C2XB 1_555 1_555
C3DB C2DB 1_555 1_555
C3JC C2JC 1_555 1_555
C3RA C2RA 1_555 1_555
C3L C2L 1_555 1_555
C3UC C2UC 1_555 1_555
C3QF C2QF 1_555 1_555
C3XE C2XE 1_555 1_555
C3EG C2EG 1_555 1_555
C3KE C2KE 1_555 1_555
C3FD C2FD 1_555 1_555
C3KB C2KB 1_555 1_555
C3OA H1OA 1_555 1_555
C3PC C2PC 1_555 1_555
C3SF C2SF 1_555 1_555
C3WE C2WE 1_555 1_555
C3TC H1TC 1_555 1_555
C3ZE C2ZE 1_555 1_555
C3FE H1FE 1_555 1_555
C3FG H1FG 1_555 1_555
C3U C2U 1_555 1_555
C3LA H1LA 1_555 1_555
C3OB C2OB 1_555 1_555
H1DB C3DB 1_555 1_555
H1XB C3XB 1_555 1_555
H1JC C3JC 1_555 1_555
H1L C3L 1_555 1_555
H1RA C3RA 1_555 1_555
H1UC C3UC 1_555 1_555
H1XE C3XE 1_555 1_555
H1QF C3QF 1_555 1_555
H1EG C3EG 1_555 1_555
H1FD C3FD 1_555 1_555
H1KE C3KE 1_555 1_555
H1KB C3KB 1_555 1_555
H1PC C3PC 1_555 1_555
H1SF C3SF 1_555 1_555
H1WE C3WE 1_555 1_555
H1ZE C3ZE 1_555 1_555
H1U C3U 1_555 1_555
H1OB C3OB 1_555 1_555
C4XB C3XB 1_555 1_555
C4DB C3DB 1_555 1_555
C4JC C3JC 1_555 1_555
C4RA C3RA 1_555 1_555
C4L C3L 1_555 1_555
C4UC C3UC 1_555 1_555
C4QF C3QF 1_555 1_555
C4XE C3XE 1_555 1_555
C4EG C3EG 1_555 1_555
C4KE C3KE 1_555 1_555
C4FD C3FD 1_555 1_555
C4KB C3KB 1_555 1_555
C4OA C3OA 1_555 1_555
C4PC C3PC 1_555 1_555
C4SF C3SF 1_555 1_555
C4WE C3WE 1_555 1_555
C4TC C3TC 1_555 1_555
C4ZE C3ZE 1_555 1_555
C4FE C3FE 1_555 1_555
C4FG C3FG 1_555 1_555
C4U C3U 1_555 1_555
C4LA C3LA 1_555 1_555
C4OB C3OB 1_555 1_555
C5XB C4XB 1_555 1_555
C5DB C4DB 1_555 1_555
C5JC C4JC 1_555 1_555
C5RA C4RA 1_555 1_555
C5L C4L 1_555 1_555
C5UC C4UC 1_555 1_555
C5QF C4QF 1_555 1_555
C5XE C4XE 1_555 1_555
C5EG C4EG 1_555 1_555
C5KE C4KE 1_555 1_555
C5FD C4FD 1_555 1_555
C5KB C4KB 1_555 1_555
C5OA C4OA 1_555 1_555
C5PC C4PC 1_555 1_555
C5SF C4SF 1_555 1_555
C5WE C4WE 1_555 1_555
C5TC C4TC 1_555 1_555
C5ZE C4ZE 1_555 1_555
C5FE C4FE 1_555 1_555
C5FG C4FG 1_555 1_555
C5U C4U 1_555 1_555
C5LA C4LA 1_555 1_555
C5OB C4OB 1_555 1_555
C6XB C5XB 1_555 1_555
C6DB C5DB 1_555 1_555
C6JC C5JC 1_555 1_555
C6RA C5RA 1_555 1_555
C6L C5L 1_555 1_555
C6UC C5UC 1_555 1_555
C6QF C5QF 1_555 1_555
C6XE C5XE 1_555 1_555
C6EG C5EG 1_555 1_555
C6KE C5KE 1_555 1_555
C6FD C5FD 1_555 1_555
C6KB C5KB 1_555 1_555
C6OA C5OA 1_555 1_555
C6PC C5PC 1_555 1_555
C6SF C5SF 1_555 1_555
C6WE C5WE 1_555 1_555
C6TC C5TC 1_555 1_555
C6ZE C5ZE 1_555 1_555
C6FE C5FE 1_555 1_555
C6FG C5FG 1_555 1_555
C6U C5U 1_555 1_555
C6LA C5LA 1_555 1_555
C6OB C5OB 1_555 1_555
H2DB C6DB 1_555 1_555
H2XB C6XB 1_555 1_555
H2JC C6JC 1_555 1_555
H2L C6L 1_555 1_555
H2RA C6RA 1_555 1_555
H2UC C6UC 1_555 1_555
H2XE C6XE 1_555 1_555
H2QF C6QF 1_555 1_555
H2EG C6EG 1_555 1_555
H2FD C6FD 1_555 1_555
H2KE C6KE 1_555 1_555
H2KB C6KB 1_555 1_555
H2PC C6PC 1_555 1_555
H2OA C6OA 1_555 1_555
H2SF C6SF 1_555 1_555
H2TC C6TC 1_555 1_555
H2WE C6WE 1_555 1_555
H2ZE C6ZE 1_555 1_555
H2FG C6FG 1_555 1_555
H2FE C6FE 1_555 1_555
H2U C6U 1_555 1_555
H2OB C6OB 1_555 1_555
H2LA C6LA 1_555 1_555
C7XB C2XB 1_555 1_555
C7DB C2DB 1_555 1_555
C7JC C2JC 1_555 1_555
C7RA C2RA 1_555 1_555
C7L C2L 1_555 1_555
C7UC C2UC 1_555 1_555
C7QF C2QF 1_555 1_555
C7XE C2XE 1_555 1_555
C7EG C2EG 1_555 1_555
C7KE C2KE 1_555 1_555
C7FD C2FD 1_555 1_555
C7KB C2KB 1_555 1_555
C7OA C2OA 1_555 1_555
C7PC C2PC 1_555 1_555
C7SF C2SF 1_555 1_555
C7WE C2WE 1_555 1_555
C7TC C2TC 1_555 1_555
C7ZE C2ZE 1_555 1_555
C7FE C2FE 1_555 1_555
C7FG C2FG 1_555 1_555
C7U C2U 1_555 1_555
C7LA C2LA 1_555 1_555
C7OB C2OB 1_555 1_555
H3DB C7DB 1_555 1_555
H3XB C7XB 1_555 1_555
H3JC C7JC 1_555 1_555
H3L C7L 1_555 1_555
H3RA C7RA 1_555 1_555
H3UC C7UC 1_555 1_555
H3XE C7XE 1_555 1_555
H3QF C7QF 1_555 1_555
H3EG C7EG 1_555 1_555
H3FD C7FD 1_555 1_555
H3KE C7KE 1_555 1_555
H3KB C7KB 1_555 1_555
H3PC C7PC 1_555 1_555
H3OA C7OA 1_555 1_555
H3SF C7SF 1_555 1_555
H3TC C7TC 1_555 1_555
H3WE C7WE 1_555 1_555
H3ZE C7ZE 1_555 1_555
H3FG C7FG 1_555 1_555
H3FE C7FE 1_555 1_555
H3U C7U 1_555 1_555
H3OB C7OB 1_555 1_555
H3LA C7LA 1_555 1_555
C8XB C4XB 1_555 1_555
C8DB C4DB 1_555 1_555
C8JC C4JC 1_555 1_555
C8RA C4RA 1_555 1_555
C8L C4L 1_555 1_555
C8UC C4UC 1_555 1_555
C8QF C4QF 1_555 1_555
C8XE C4XE 1_555 1_555
C8EG C4EG 1_555 1_555
C8KE C4KE 1_555 1_555
C8FD C4FD 1_555 1_555
C8KB C4KB 1_555 1_555
C8OA C4OA 1_555 1_555
C8PC C4PC 1_555 1_555
C8SF C4SF 1_555 1_555
C8WE C4WE 1_555 1_555
C8TC C4TC 1_555 1_555
C8ZE C4ZE 1_555 1_555
C8FE C4FE 1_555 1_555
C8FG C4FG 1_555 1_555
C8U C4U 1_555 1_555
C8LA C4LA 1_555 1_555
C8OB C4OB 1_555 1_555
C9XB C10 1_555 1_555
C9DB C8DB 1_555 1_555
C9JC C8JC 1_555 1_555
C9RA C8RA 1_555 1_555
C9L C8L 1_555 1_555
C9UC C8UC 1_555 1_555
C9QF C8QF 1_555 1_555
C9XE C8XE 1_555 1_555
C9EG C8EG 1_555 1_555
C9KE C8KE 1_555 1_555
C9FD C8FD 1_555 1_555
C9KB C8KB 1_555 1_555
C9OA C8OA 1_555 1_555
C9PC C8PC 1_555 1_555
C9SF C8SF 1_555 1_555
C9WE C8WE 1_555 1_555
C9TC C8TC 1_555 1_555
C9ZE C8ZE 1_555 1_555
C9FE C8FE 1_555 1_555
C9FG C8FG 1_555 1_555
C9U C8U 1_555 1_555
C9LA C8LA 1_555 1_555
C9OB C8OB 1_555 1_555
C10XB C5XB 1_555 1_555
C10DB C9 1_555 1_555
C10JC C5JC 1_555 1_555
C10RA C5RA 1_555 1_555
C10L C5L 1_555 1_555
C10UC C5UC 1_555 1_555
C10QF C5QF 1_555 1_555
C10XE C5XE 1_555 1_555
C10EG C5EG 1_555 1_555
C10KE C5KE 1_555 1_555
C10FD C5FD 1_555 1_555
C10KB C5KB 1_555 1_555
C10OA C5OA 1_555 1_555
C10PC C5PC 1_555 1_555
C10SF C5SF 1_555 1_555
C10WE C5WE 1_555 1_555
C10TC C5TC 1_555 1_555
C10ZE C5ZE 1_555 1_555
C10FE C5FE 1_555 1_555
C10FG C5FG 1_555 1_555
C10U C5U 1_555 1_555
C10LA C5LA 1_555 1_555
C10OB C5OB 1_555 1_555
C11DB C8DB 1_555 1_555
C11XB C8XB 1_555 1_555
C11JC C8JC 1_555 1_555
C11L C8L 1_555 1_555
C11RA C8RA 1_555 1_555
C11UC C8UC 1_555 1_555
C11XE C8XE 1_555 1_555
C11QF C8QF 1_555 1_555
C11EG C8EG 1_555 1_555
C11FD C8FD 1_555 1_555
C11KE C8KE 1_555 1_555
C11KB C8KB 1_555 1_555
C11PC C8PC 1_555 1_555
C11OA C8OA 1_555 1_555
C11SF C8SF 1_555 1_555
C11TC C8TC 1_555 1_555
C11WE C8WE 1_555 1_555
C11ZE C8ZE 1_555 1_555
C11FG C8FG 1_555 1_555
C11FE C8FE 1_555 1_555
C11U C8U 1_555 1_555
C11OB C8OB 1_555 1_555
C11LA C8LA 1_555 1_555
H4DB C11DB 1_555 1_555
H4XB C11XB 1_555 1_555
H4JC C11JC 1_555 1_555
H4L C11L 1_555 1_555
H4RA C11RA 1_555 1_555
H4UC C11UC 1_555 1_555
H4XE C11XE 1_555 1_555
H4QF C11QF 1_555 1_555
H4EG C11EG 1_555 1_555
H4FD C11FD 1_555 1_555
H4KE C11KE 1_555 1_555
H4KB C11KB 1_555 1_555
H4PC C11PC 1_555 1_555
H4OA C11OA 1_555 1_555
H4SF C11SF 1_555 1_555
H4TC C11TC 1_555 1_555
H4WE C11WE 1_555 1_555
H4ZE C11ZE 1_555 1_555
H4FG C11FG 1_555 1_555
H4FE C11FE 1_555 1_555
H4U C11U 1_555 1_555
H4OB C11OB 1_555 1_555
H4LA C11LA 1_555 1_555
H5DB C11DB 1_555 1_555
H5XB C11XB 1_555 1_555
H5JC C11JC 1_555 1_555
H5L C11L 1_555 1_555
H5RA C11RA 1_555 1_555
H5UC C11UC 1_555 1_555
H5XE C11XE 1_555 1_555
H5QF C11QF 1_555 1_555
H5EG C11EG 1_555 1_555
H5FD C11FD 1_555 1_555
H5KE C11KE 1_555 1_555
H5KB C11KB 1_555 1_555
H5PC C11PC 1_555 1_555
H5OA C11OA 1_555 1_555
H5SF C11SF 1_555 1_555
H5TC C11TC 1_555 1_555
H5WE C11WE 1_555 1_555
H5ZE C11ZE 1_555 1_555
H5FG C11FG 1_555 1_555
H5FE C11FE 1_555 1_555
H5U C11U 1_555 1_555
H5OB C11OB 1_555 1_555
H5LA C11LA 1_555 1_555
H6DB C11DB 1_555 1_555
H6XB C11XB 1_555 1_555
H6JC C11JC 1_555 1_555
H6L C11L 1_555 1_555
H6RA C11RA 1_555 1_555
H6UC C11UC 1_555 1_555
H6XE C11XE 1_555 1_555
H6QF C11QF 1_555 1_555
H6EG C11EG 1_555 1_555
H6FD C11FD 1_555 1_555
H6KE C11KE 1_555 1_555
H6KB C11KB 1_555 1_555
H6PC C11PC 1_555 1_555
H6OA C11OA 1_555 1_555
H6SF C11SF 1_555 1_555
H6TC C11TC 1_555 1_555
H6WE C11WE 1_555 1_555
H6ZE C11ZE 1_555 1_555
H6FG C11FG 1_555 1_555
H6FE C11FE 1_555 1_555
H6U C11U 1_555 1_555
H6OB C11OB 1_555 1_555
H6LA C11LA 1_555 1_555
C12DB C8DB 1_555 1_555
C12XB C8XB 1_555 1_555
C12JC C8JC 1_555 1_555
C12L C8L 1_555 1_555
C12RA C8RA 1_555 1_555
C12UC C8UC 1_555 1_555
C12XE C8XE 1_555 1_555
C12QF C8QF 1_555 1_555
C12EG C8EG 1_555 1_555
C12FD C8FD 1_555 1_555
C12KE C8KE 1_555 1_555
C12KB C8KB 1_555 1_555
C12PC C8PC 1_555 1_555
C12OA C8OA 1_555 1_555
C12SF C8SF 1_555 1_555
C12TC C8TC 1_555 1_555
C12WE C8WE 1_555 1_555
C12ZE C8ZE 1_555 1_555
C12FG C8FG 1_555 1_555
C12FE C8FE 1_555 1_555
C12U C8U 1_555 1_555
C12OB C8OB 1_555 1_555
C12LA C8LA 1_555 1_555
H7DB C12DB 1_555 1_555
H7XB C12XB 1_555 1_555
H7JC C12JC 1_555 1_555
H7L C12L 1_555 1_555
H7RA C12RA 1_555 1_555
H7UC C12UC 1_555 1_555
H7XE C12XE 1_555 1_555
H7QF C12QF 1_555 1_555
H7EG C12EG 1_555 1_555
H7FD C12FD 1_555 1_555
H7KE C12KE 1_555 1_555
H7KB C12KB 1_555 1_555
H7PC C12PC 1_555 1_555
H7OA C12OA 1_555 1_555
H7SF C12SF 1_555 1_555
H7TC C12TC 1_555 1_555
H7WE C12WE 1_555 1_555
H7ZE C12ZE 1_555 1_555
H7FG C12FG 1_555 1_555
H7FE C12FE 1_555 1_555
H7U C12U 1_555 1_555
H7OB C12OB 1_555 1_555
H7LA C12LA 1_555 1_555
H8DB C12DB 1_555 1_555
H8XB C12XB 1_555 1_555
H8JC C12JC 1_555 1_555
H8L C12L 1_555 1_555
H8RA C12RA 1_555 1_555
H8UC C12UC 1_555 1_555
H8XE C12XE 1_555 1_555
H8QF C12QF 1_555 1_555
H8EG C12EG 1_555 1_555
H8FD C12FD 1_555 1_555
H8KE C12KE 1_555 1_555
H8KB C12KB 1_555 1_555
H8PC C12PC 1_555 1_555
H8OA C12OA 1_555 1_555
H8SF C12SF 1_555 1_555
H8TC C12TC 1_555 1_555
H8WE C12WE 1_555 1_555
H8ZE C12ZE 1_555 1_555
H8FG C12FG 1_555 1_555
H8FE C12FE 1_555 1_555
H8U C12U 1_555 1_555
H8OB C12OB 1_555 1_555
H8LA C12LA 1_555 1_555
H9DB C12DB 1_555 1_555
H9XB C12XB 1_555 1_555
H9JC C12JC 1_555 1_555
H9L C12L 1_555 1_555
H9RA C12RA 1_555 1_555
H9UC C12UC 1_555 1_555
H9XE C12XE 1_555 1_555
H9QF C12QF 1_555 1_555
H9EG C12EG 1_555 1_555
H9FD C12FD 1_555 1_555
H9KE C12KE 1_555 1_555
H9KB C12KB 1_555 1_555
H9PC C12PC 1_555 1_555
H9OA C12OA 1_555 1_555
H9SF C12SF 1_555 1_555
H9TC C12TC 1_555 1_555
H9WE C12WE 1_555 1_555
H9ZE C12ZE 1_555 1_555
H9FG C12FG 1_555 1_555
H9FE C12FE 1_555 1_555
H9U C12U 1_555 1_555
H9OB C12OB 1_555 1_555
H9LA C12LA 1_555 1_555
Cl1 Cl1UC 1_555 1_555
O2 Mn2OB 1_555 1_555
C6 C7 1_555 1_555
C9 C10 1_555 1_555
Mn2L Cl1GD 1_555 1_555
Mn2M Cl1M 1_555 1_555
Mn2OB Cl1UC 1_555 1_555
Mn2PC Cl1ND 1_555 1_555
Mn2AA Cl1UC 1_555 1_555
Mn2DC Cl1BD 1_555 1_555
Mn2EA Cl1GD 1_555 1_555
Mn2NC Cl1W 1_555 1_555
Mn2EC Cl1H 1_555 1_555
Mn2CA Cl1M 1_555 1_555
Mn2KB Cl1GD 1_555 1_555
Mn2IA Cl1ND 1_555 1_555
Mn2U Cl1ND 1_555 1_555
O2XB C1XB 1_555 1_555
O2DB C1DB 1_555 1_555
O2JC C1JC 1_555 1_555
O2RA C1RA 1_555 1_555
O2L C1L 1_555 1_555
O2UC C1UC 1_555 1_555
O2QF C1QF 1_555 1_555
O2XE C1XE 1_555 1_555
O2EG C1EG 1_555 1_555
O2KE C1KE 1_555 1_555
O2FD C1FD 1_555 1_555
O2KB C1KB 1_555 1_555
O2PC C1PC 1_555 1_555
O2SF C1SF 1_555 1_555
O2ZE C1ZE 1_555 1_555
O2U C1U 1_555 1_555
O2OB C1OB 1_555 1_555
C5DB C10DB 1_555 1_555
C6XB C7XB 1_555 1_555
C6DB C7DB 1_555 1_555
C6JC C7JC 1_555 1_555
C6RA C7RA 1_555 1_555
C6L C7L 1_555 1_555
C6UC C7UC 1_555 1_555
C6QF C7QF 1_555 1_555
C6XE C7XE 1_555 1_555
C6EG C7EG 1_555 1_555
C6KE C7KE 1_555 1_555
C6FD C7FD 1_555 1_555
C6KB C7KB 1_555 1_555
C6OA C7OA 1_555 1_555
C6PC C7PC 1_555 1_555
C6SF C7SF 1_555 1_555
C6WE C7WE 1_555 1_555
C6TC C7TC 1_555 1_555
C6ZE C7ZE 1_555 1_555
C6FE C7FE 1_555 1_555
C6FG C7FG 1_555 1_555
C6U C7U 1_555 1_555
C6LA C7LA 1_555 1_555
C6OB C7OB 1_555 1_555
C8XB C9XB 1_555 1_555
C9XB C10XB 1_555 1_555
C9DB C10XB 1_555 1_555
C9DB C10DB 1_555 1_555
C9JC C10JC 1_555 1_555
C9JC C10L 1_555 1_555
C9RA C10JC 1_555 1_555
C9RA C10RA 1_555 1_555
C9L C10RA 1_555 1_555
C9L C10L 1_555 1_555
C9UC C10UC 1_555 1_555
C9UC C10XE 1_555 1_555
C9QF C10UC 1_555 1_555
C9QF C10QF 1_555 1_555
C9XE C10QF 1_555 1_555
C9XE C10XE 1_555 1_555
C9EG C10EG 1_555 1_555
C9EG C10FD 1_555 1_555
C9KE C10EG 1_555 1_555
C9KE C10KE 1_555 1_555
C9FD C10KE 1_555 1_555
C9FD C10FD 1_555 1_555
C9KB C10KB 1_555 1_555
C9KB C10PC 1_555 1_555
C9OA C10KB 1_555 1_555
C9OA C10OA 1_555 1_555
C9PC C10OA 1_555 1_555
C9PC C10PC 1_555 1_555
C9SF C10SF 1_555 1_555
C9SF C10TC 1_555 1_555
C9WE C10SF 1_555 1_555
C9WE C10WE 1_555 1_555
C9TC C10WE 1_555 1_555
C9TC C10TC 1_555 1_555
C9ZE C10ZE 1_555 1_555
C9ZE C10FG 1_555 1_555
C9FE C10ZE 1_555 1_555
C9FE C10FE 1_555 1_555
C9FG C10FE 1_555 1_555
C9FG C10FG 1_555 1_555
C9U C10U 1_555 1_555
C9U C10OB 1_555 1_555
C9LA C10U 1_555 1_555
C9LA C10LA 1_555 1_555
C9OB C10LA 1_555 1_555
C9OB C10OB 1_555 1_555

#END
