
#######################################################################
#
#                 Cambridge Crystallographic Data Centre
#                                CCDC 
#
#######################################################################
#
# If this CIF has been generated from an entry in the Cambridge 
# Structural Database, then it will include bibliographic, chemical, 
# crystal, experimental, refinement or atomic coordinate data resulting 
# from the CCDC's data processing and validation procedures.
#
#######################################################################

data_VETSUK
_symmetry_cell_setting           cubic
_symmetry_space_group_name_H-M   'F m -3 c'
_symmetry_Int_Tables_number      226
_space_group_name_Hall           '-F 4c 2 3'
loop_
_symmetry_equiv_pos_site_id
_symmetry_equiv_pos_as_xyz
1 x,y,z
2 -x,-y,z
3 -x,y,-z
4 x,-y,-z
5 z,x,y
6 z,-x,-y
7 -z,-x,y
8 -z,x,-y
9 y,z,x
10 -y,z,-x
11 y,-z,-x
12 -y,-z,x
13 1/2+y,1/2+x,1/2-z
14 1/2-y,1/2-x,1/2-z
15 1/2+y,1/2-x,1/2+z
16 1/2-y,1/2+x,1/2+z
17 1/2+x,1/2+z,1/2-y
18 1/2-x,1/2+z,1/2+y
19 1/2-x,1/2-z,1/2-y
20 1/2+x,1/2-z,1/2+y
21 1/2+z,1/2+y,1/2-x
22 1/2+z,1/2-y,1/2+x
23 1/2-z,1/2+y,1/2+x
24 1/2-z,1/2-y,1/2-x
25 x,1/2+y,1/2+z
26 -x,1/2-y,1/2+z
27 -x,1/2+y,1/2-z
28 x,1/2-y,1/2-z
29 z,1/2+x,1/2+y
30 z,1/2-x,1/2-y
31 -z,1/2-x,1/2+y
32 -z,1/2+x,1/2-y
33 y,1/2+z,1/2+x
34 -y,1/2+z,1/2-x
35 y,1/2-z,1/2-x
36 -y,1/2-z,1/2+x
37 1/2+y,x,-z
38 1/2-y,-x,-z
39 1/2+y,-x,z
40 1/2-y,x,z
41 1/2+x,z,-y
42 1/2-x,z,y
43 1/2-x,-z,-y
44 1/2+x,-z,y
45 1/2+z,y,-x
46 1/2+z,-y,x
47 1/2-z,y,x
48 1/2-z,-y,-x
49 1/2+x,y,1/2+z
50 1/2-x,-y,1/2+z
51 1/2-x,y,1/2-z
52 1/2+x,-y,1/2-z
53 1/2+z,x,1/2+y
54 1/2+z,-x,1/2-y
55 1/2-z,-x,1/2+y
56 1/2-z,x,1/2-y
57 1/2+y,z,1/2+x
58 1/2-y,z,1/2-x
59 1/2+y,-z,1/2-x
60 1/2-y,-z,1/2+x
61 y,1/2+x,-z
62 -y,1/2-x,-z
63 y,1/2-x,z
64 -y,1/2+x,z
65 x,1/2+z,-y
66 -x,1/2+z,y
67 -x,1/2-z,-y
68 x,1/2-z,y
69 z,1/2+y,-x
70 z,1/2-y,x
71 -z,1/2+y,x
72 -z,1/2-y,-x
73 1/2+x,1/2+y,z
74 1/2-x,1/2-y,z
75 1/2-x,1/2+y,-z
76 1/2+x,1/2-y,-z
77 1/2+z,1/2+x,y
78 1/2+z,1/2-x,-y
79 1/2-z,1/2-x,y
80 1/2-z,1/2+x,-y
81 1/2+y,1/2+z,x
82 1/2-y,1/2+z,-x
83 1/2+y,1/2-z,-x
84 1/2-y,1/2-z,x
85 y,x,1/2-z
86 -y,-x,1/2-z
87 y,-x,1/2+z
88 -y,x,1/2+z
89 x,z,1/2-y
90 -x,z,1/2+y
91 -x,-z,1/2-y
92 x,-z,1/2+y
93 z,y,1/2-x
94 z,-y,1/2+x
95 -z,y,1/2+x
96 -z,-y,1/2-x
97 -x,-y,-z
98 x,y,-z
99 x,-y,z
100 -x,y,z
101 -z,-x,-y
102 -z,x,y
103 z,x,-y
104 z,-x,y
105 -y,-z,-x
106 y,-z,x
107 -y,z,x
108 y,z,-x
109 1/2-y,1/2-x,1/2+z
110 1/2+y,1/2+x,1/2+z
111 1/2-y,1/2+x,1/2-z
112 1/2+y,1/2-x,1/2-z
113 1/2-x,1/2-z,1/2+y
114 1/2+x,1/2-z,1/2-y
115 1/2+x,1/2+z,1/2+y
116 1/2-x,1/2+z,1/2-y
117 1/2-z,1/2-y,1/2+x
118 1/2-z,1/2+y,1/2-x
119 1/2+z,1/2-y,1/2-x
120 1/2+z,1/2+y,1/2+x
121 -x,1/2-y,1/2-z
122 x,1/2+y,1/2-z
123 x,1/2-y,1/2+z
124 -x,1/2+y,1/2+z
125 -z,1/2-x,1/2-y
126 -z,1/2+x,1/2+y
127 z,1/2+x,1/2-y
128 z,1/2-x,1/2+y
129 -y,1/2-z,1/2-x
130 y,1/2-z,1/2+x
131 -y,1/2+z,1/2+x
132 y,1/2+z,1/2-x
133 1/2-y,-x,z
134 1/2+y,x,z
135 1/2-y,x,-z
136 1/2+y,-x,-z
137 1/2-x,-z,y
138 1/2+x,-z,-y
139 1/2+x,z,y
140 1/2-x,z,-y
141 1/2-z,-y,x
142 1/2-z,y,-x
143 1/2+z,-y,-x
144 1/2+z,y,x
145 1/2-x,-y,1/2-z
146 1/2+x,y,1/2-z
147 1/2+x,-y,1/2+z
148 1/2-x,y,1/2+z
149 1/2-z,-x,1/2-y
150 1/2-z,x,1/2+y
151 1/2+z,x,1/2-y
152 1/2+z,-x,1/2+y
153 1/2-y,-z,1/2-x
154 1/2+y,-z,1/2+x
155 1/2-y,z,1/2+x
156 1/2+y,z,1/2-x
157 -y,1/2-x,z
158 y,1/2+x,z
159 -y,1/2+x,-z
160 y,1/2-x,-z
161 -x,1/2-z,y
162 x,1/2-z,-y
163 x,1/2+z,y
164 -x,1/2+z,-y
165 -z,1/2-y,x
166 -z,1/2+y,-x
167 z,1/2-y,-x
168 z,1/2+y,x
169 1/2-x,1/2-y,-z
170 1/2+x,1/2+y,-z
171 1/2+x,1/2-y,z
172 1/2-x,1/2+y,z
173 1/2-z,1/2-x,-y
174 1/2-z,1/2+x,y
175 1/2+z,1/2+x,-y
176 1/2+z,1/2-x,y
177 1/2-y,1/2-z,-x
178 1/2+y,1/2-z,x
179 1/2-y,1/2+z,x
180 1/2+y,1/2+z,-x
181 -y,-x,1/2+z
182 y,x,1/2+z
183 -y,x,1/2-z
184 y,-x,1/2-z
185 -x,-z,1/2+y
186 x,-z,1/2-y
187 x,z,1/2+y
188 -x,z,1/2-y
189 -z,-y,1/2+x
190 -z,y,1/2-x
191 z,-y,1/2-x
192 z,y,1/2+x
_cell_length_a                   49.821(3)
_cell_length_b                   49.821(3)
_cell_length_c                   49.821(3)
_cell_angle_alpha                90
_cell_angle_beta                 90
_cell_angle_gamma                90
_cell_volume                     123662
loop_
_atom_site_label
_atom_site_type_symbol
_atom_site_fract_x
_atom_site_fract_y
_atom_site_fract_z
Co2 Co 0.23671(4) 0.0000 0.20384(5)
Cl1 Cl 0.2500 0.0094(2) 0.2500
O1 O 0.2538(2) 0.02872(19) 0.1808(2)
O2 O 0.2764(4) 0.0341(4) 0.2126(4)
O3 O 0.2967(4) 0.0186(3) 0.2058(4)
C1 C 0.2749(4) 0.0368(3) 0.1895(4)
C2 C 0.2916(3) 0.0602(3) 0.1801(3)
C3 C 0.28019(17) 0.0715(2) 0.1555(3)
H1 H 0.2650 0.0631 0.1476
C4 C 0.3136(2) 0.0722(3) 0.1902(2)
H2 H 0.3214 0.0650 0.2060
C5 C 0.2912(2) 0.0945(2) 0.14321(19)
H3 H 0.2838 0.1021 0.1274
C6 C 0.3138(2) 0.1052(2) 0.1558(2)
C7 C 0.32468(18) 0.0931(2) 0.1792(2)
C8 C 0.3489(2) 0.1067(2) 0.18862(18)
C9 C 0.3718(2) 0.08663(19) 0.1889(2)
H4 H 0.3743 0.0792 0.1709
H5 H 0.3676 0.0721 0.2015
H6 H 0.3883 0.0956 0.1946
C10 C 0.34393(19) 0.1177(2) 0.2166(2)
H7 H 0.3288 0.1302 0.2162
H8 H 0.3600 0.1271 0.2229
H9 H 0.3398 0.1029 0.2289
C11 C 0.3524(2) 0.12885(16) 0.16843(18)
C12 C 0.37210(17) 0.1492(2) 0.1685(2)
Co2EB Co 0.5000 0.20384(5) 0.26329(4)
Co2ZB Co 0.29616(5) 0.26329(4) 0.0000
Co2EC Co 0.5000 0.29616(5) 0.23671(4)
Co2NC Co 0.20384(5) 0.0000 0.26329(4)
Co2D Co 0.20384(5) 0.23671(4) 0.0000
Co2H Co 0.0000 0.20384(5) 0.23671(4)
Co2M Co 0.5000 0.26329(4) 0.29616(5)
Co2R Co 0.26329(4) 0.29616(5) 0.5000
Co2CA Co 0.20384(5) 0.26329(4) 0.5000
Co2HA Co 0.0000 0.29616(5) 0.26329(4)
Co2FC Co 0.0000 0.23671(4) 0.29616(5)
Co2W Co 0.29616(5) 0.5000 0.26329(4)
Co2AA Co 0.23671(4) 0.5000 0.29616(5)
Co2MA Co 0.5000 0.23671(4) 0.20384(5)
Co2OA Co 0.26329(4) 0.20384(5) 0.0000
Co2TA Co 0.29616(5) 0.0000 0.23671(4)
Co2XA Co 0.26329(4) 0.0000 0.29616(5)
Co2CB Co 0.29616(5) 0.23671(4) 0.5000
Co2JB Co 0.0000 0.26329(4) 0.20384(5)
Co2OB Co 0.23671(4) 0.29616(5) 0.0000
Co2QB Co 0.20384(5) 0.5000 0.23671(4)
Co2UB Co 0.26329(4) 0.5000 0.20384(5)
Co2JC Co 0.23671(4) 0.20384(5) 0.5000
Cl1TC Cl 0.2500 -0.0094(2) 0.2500
Cl1H Cl 0.0094(2) 0.2500 0.2500
Cl1BD Cl -0.0094(2) 0.2500 0.2500
Cl1M Cl 0.4906(2) 0.2500 0.2500
Cl1GD Cl 0.5094(2) 0.2500 0.2500
Cl1XC Cl 0.2500 0.2500 -0.0094(2)
Cl1HD Cl 0.2500 0.2500 0.5094(2)
Cl1D Cl 0.2500 0.2500 0.0094(2)
Cl1R Cl 0.2500 0.2500 0.4906(2)
O1EB O 0.47128(19) 0.1808(2) 0.2462(2)
O1ZB O 0.3192(2) 0.2462(2) 0.02872(19)
O1MA O 0.47128(19) 0.2538(2) 0.1808(2)
O1W O 0.3192(2) 0.47128(19) 0.2462(2)
O1OB O 0.2538(2) 0.3192(2) 0.02872(19)
O1OA O 0.2462(2) 0.1808(2) 0.02872(19)
O1JB O 0.02872(19) 0.2462(2) 0.1808(2)
O1NC O 0.1808(2) 0.02872(19) 0.2462(2)
O1TA O 0.3192(2) 0.02872(19) 0.2538(2)
O1JC O 0.2538(2) 0.1808(2) 0.47128(19)
O1M O 0.47128(19) 0.2462(2) 0.3192(2)
O1XA O 0.2462(2) 0.02872(19) 0.3192(2)
O1H O 0.02872(19) 0.1808(2) 0.2538(2)
O1CA O 0.1808(2) 0.2462(2) 0.47128(19)
O1CB O 0.3192(2) 0.2538(2) 0.47128(19)
O1AA O 0.2538(2) 0.47128(19) 0.3192(2)
O1EC O 0.47128(19) 0.3192(2) 0.2538(2)
O1UB O 0.2462(2) 0.47128(19) 0.1808(2)
O1HA O 0.02872(19) 0.3192(2) 0.2462(2)
O1D O 0.1808(2) 0.2538(2) 0.02872(19)
O1R O 0.2462(2) 0.3192(2) 0.47128(19)
O1FC O 0.02872(19) 0.2538(2) 0.3192(2)
O1QB O 0.1808(2) 0.47128(19) 0.2538(2)
O1TC O 0.2538(2) -0.02872(19) 0.1808(2)
O1XC O 0.1808(2) 0.2538(2) -0.02872(19)
O1BD O -0.02872(19) 0.1808(2) 0.2538(2)
O1GD O 0.52872(19) 0.2462(2) 0.3192(2)
O1HD O 0.2462(2) 0.3192(2) 0.52872(19)
O1WD O 0.1808(2) 0.2462(2) 0.52872(19)
O1XD O -0.02872(19) 0.3192(2) 0.2462(2)
O1YE O 0.52872(19) 0.1808(2) 0.2462(2)
O1PF O 0.3192(2) 0.2462(2) -0.02872(19)
O1UF O 0.52872(19) 0.3192(2) 0.2538(2)
O1ZF O -0.02872(19) 0.2538(2) 0.3192(2)
O1HG O 0.1808(2) -0.02872(19) 0.2462(2)
O2EB O 0.4659(4) 0.2126(4) 0.2236(4)
O2ZB O 0.2874(4) 0.2236(4) 0.0341(4)
O2MA O 0.4659(4) 0.2764(4) 0.2126(4)
O2W O 0.2874(4) 0.4659(4) 0.2236(4)
O2OB O 0.2764(4) 0.2874(4) 0.0341(4)
O2OA O 0.2236(4) 0.2126(4) 0.0341(4)
O2JB O 0.0341(4) 0.2236(4) 0.2126(4)
O2NC O 0.2126(4) 0.0341(4) 0.2236(4)
O2TA O 0.2874(4) 0.0341(4) 0.2764(4)
O2JC O 0.2764(4) 0.2126(4) 0.4659(4)
O2M O 0.4659(4) 0.2236(4) 0.2874(4)
O2XA O 0.2236(4) 0.0341(4) 0.2874(4)
O2H O 0.0341(4) 0.2126(4) 0.2764(4)
O2CA O 0.2126(4) 0.2236(4) 0.4659(4)
O2CB O 0.2874(4) 0.2764(4) 0.4659(4)
O2AA O 0.2764(4) 0.4659(4) 0.2874(4)
O2EC O 0.4659(4) 0.2874(4) 0.2764(4)
O2UB O 0.2236(4) 0.4659(4) 0.2126(4)
O2HA O 0.0341(4) 0.2874(4) 0.2236(4)
O2D O 0.2126(4) 0.2764(4) 0.0341(4)
O2R O 0.2236(4) 0.2874(4) 0.4659(4)
O2FC O 0.0341(4) 0.2764(4) 0.2874(4)
O2QB O 0.2126(4) 0.4659(4) 0.2764(4)
O2BD O -0.0341(4) 0.2126(4) 0.2764(4)
O2GD O 0.5341(4) 0.2236(4) 0.2874(4)
O2HD O 0.2236(4) 0.2874(4) 0.5341(4)
O2CE O 0.5341(4) 0.2764(4) 0.2126(4)
O2IE O 0.2236(4) 0.2126(4) -0.0341(4)
O2NE O 0.2236(4) -0.0341(4) 0.2874(4)
O2SE O 0.2874(4) 0.2764(4) 0.5341(4)
O2ZE O -0.0341(4) 0.2236(4) 0.2126(4)
O2EF O 0.2764(4) 0.2874(4) -0.0341(4)
O2UF O 0.5341(4) 0.2874(4) 0.2764(4)
O2ZF O -0.0341(4) 0.2764(4) 0.2874(4)
O2HG O 0.2126(4) -0.0341(4) 0.2236(4)
O3EB O 0.4814(3) 0.2058(4) 0.2033(4)
O3ZB O 0.2942(4) 0.2033(4) 0.0186(3)
O3MA O 0.4814(3) 0.2967(4) 0.2058(4)
O3OB O 0.2967(4) 0.2942(4) 0.0186(3)
O3OA O 0.2033(4) 0.2058(4) 0.0186(3)
O3JB O 0.0186(3) 0.2033(4) 0.2058(4)
O3NC O 0.2058(4) 0.0186(3) 0.2033(4)
O3TA O 0.2942(4) 0.0186(3) 0.2967(4)
O3JC O 0.2967(4) 0.2058(4) 0.4814(3)
O3M O 0.4814(3) 0.2033(4) 0.2942(4)
O3XA O 0.2033(4) 0.0186(3) 0.2942(4)
O3H O 0.0186(3) 0.2058(4) 0.2967(4)
O3CA O 0.2058(4) 0.2033(4) 0.4814(3)
O3CB O 0.2942(4) 0.2967(4) 0.4814(3)
O3EC O 0.4814(3) 0.2942(4) 0.2967(4)
O3HA O 0.0186(3) 0.2942(4) 0.2033(4)
O3D O 0.2058(4) 0.2967(4) 0.0186(3)
O3R O 0.2033(4) 0.2942(4) 0.4814(3)
O3FC O 0.0186(3) 0.2967(4) 0.2942(4)
O3BD O -0.0186(3) 0.2058(4) 0.2967(4)
O3GD O 0.5186(3) 0.2033(4) 0.2942(4)
O3HD O 0.2033(4) 0.2942(4) 0.5186(3)
O3CE O 0.5186(3) 0.2967(4) 0.2058(4)
O3IE O 0.2033(4) 0.2058(4) -0.0186(3)
O3NE O 0.2033(4) -0.0186(3) 0.2942(4)
O3SE O 0.2942(4) 0.2967(4) 0.5186(3)
O3ZE O -0.0186(3) 0.2033(4) 0.2058(4)
O3EF O 0.2967(4) 0.2942(4) -0.0186(3)
O3UF O 0.5186(3) 0.2942(4) 0.2967(4)
O3ZF O -0.0186(3) 0.2967(4) 0.2942(4)
O3HG O 0.2058(4) -0.0186(3) 0.2033(4)
C1EB C 0.4632(3) 0.1895(4) 0.2251(4)
C1ZB C 0.3105(4) 0.2251(4) 0.0368(3)
C1MA C 0.4632(3) 0.2749(4) 0.1895(4)
C1W C 0.3105(4) 0.4632(3) 0.2251(4)
C1OB C 0.2749(4) 0.3105(4) 0.0368(3)
C1OA C 0.2251(4) 0.1895(4) 0.0368(3)
C1JB C 0.0368(3) 0.2251(4) 0.1895(4)
C1NC C 0.1895(4) 0.0368(3) 0.2251(4)
C1TA C 0.3105(4) 0.0368(3) 0.2749(4)
C1JC C 0.2749(4) 0.1895(4) 0.4632(3)
C1M C 0.4632(3) 0.2251(4) 0.3105(4)
C1XA C 0.2251(4) 0.0368(3) 0.3105(4)
C1H C 0.0368(3) 0.1895(4) 0.2749(4)
C1CA C 0.1895(4) 0.2251(4) 0.4632(3)
C1CB C 0.3105(4) 0.2749(4) 0.4632(3)
C1AA C 0.2749(4) 0.4632(3) 0.3105(4)
C1EC C 0.4632(3) 0.3105(4) 0.2749(4)
C1UB C 0.2251(4) 0.4632(3) 0.1895(4)
C1HA C 0.0368(3) 0.3105(4) 0.2251(4)
C1D C 0.1895(4) 0.2749(4) 0.0368(3)
C1R C 0.2251(4) 0.3105(4) 0.4632(3)
C1FC C 0.0368(3) 0.2749(4) 0.3105(4)
C1QB C 0.1895(4) 0.4632(3) 0.2749(4)
C2EB C 0.4398(3) 0.1801(3) 0.2084(3)
C2ZB C 0.3199(3) 0.2084(3) 0.0602(3)
C2MA C 0.4398(3) 0.2916(3) 0.1801(3)
C2W C 0.3199(3) 0.4398(3) 0.2084(3)
C2OB C 0.2916(3) 0.3199(3) 0.0602(3)
C2OA C 0.2084(3) 0.1801(3) 0.0602(3)
C2JB C 0.0602(3) 0.2084(3) 0.1801(3)
C2NC C 0.1801(3) 0.0602(3) 0.2084(3)
C2TA C 0.3199(3) 0.0602(3) 0.2916(3)
C2JC C 0.2916(3) 0.1801(3) 0.4398(3)
C2M C 0.4398(3) 0.2084(3) 0.3199(3)
C2XA C 0.2084(3) 0.0602(3) 0.3199(3)
C2H C 0.0602(3) 0.1801(3) 0.2916(3)
C2CA C 0.1801(3) 0.2084(3) 0.4398(3)
C2CB C 0.3199(3) 0.2916(3) 0.4398(3)
C2AA C 0.2916(3) 0.4398(3) 0.3199(3)
C2EC C 0.4398(3) 0.3199(3) 0.2916(3)
C2UB C 0.2084(3) 0.4398(3) 0.1801(3)
C2HA C 0.0602(3) 0.3199(3) 0.2084(3)
C2D C 0.1801(3) 0.2916(3) 0.0602(3)
C2R C 0.2084(3) 0.3199(3) 0.4398(3)
C2FC C 0.0602(3) 0.2916(3) 0.3199(3)
C2QB C 0.1801(3) 0.4398(3) 0.2916(3)
C3EB C 0.4285(2) 0.1555(3) 0.21981(17)
C3ZB C 0.3445(3) 0.21981(17) 0.0715(2)
C3MA C 0.4285(2) 0.28019(17) 0.1555(3)
C3W C 0.3445(3) 0.4285(2) 0.21981(17)
C3OB C 0.28019(17) 0.3445(3) 0.0715(2)
C3OA C 0.21981(17) 0.1555(3) 0.0715(2)
C3JB C 0.0715(2) 0.21981(17) 0.1555(3)
C3NC C 0.1555(3) 0.0715(2) 0.21981(17)
C3TA C 0.3445(3) 0.0715(2) 0.28019(17)
C3JC C 0.28019(17) 0.1555(3) 0.4285(2)
C3M C 0.4285(2) 0.21981(17) 0.3445(3)
C3XA C 0.21981(17) 0.0715(2) 0.3445(3)
C3H C 0.0715(2) 0.1555(3) 0.28019(17)
C3CA C 0.1555(3) 0.21981(17) 0.4285(2)
C3CB C 0.3445(3) 0.28019(17) 0.4285(2)
C3AA C 0.28019(17) 0.4285(2) 0.3445(3)
C3EC C 0.4285(2) 0.3445(3) 0.28019(17)
C3UB C 0.21981(17) 0.4285(2) 0.1555(3)
C3HA C 0.0715(2) 0.3445(3) 0.21981(17)
C3D C 0.1555(3) 0.28019(17) 0.0715(2)
C3R C 0.21981(17) 0.3445(3) 0.4285(2)
C3FC C 0.0715(2) 0.28019(17) 0.3445(3)
C3QB C 0.1555(3) 0.4285(2) 0.28019(17)
H1EB H 0.4369 0.1476 0.2350
H1ZB H 0.3524 0.2350 0.0631
H1MA H 0.4369 0.2650 0.1476
H1W H 0.3524 0.4369 0.2350
H1OB H 0.2650 0.3524 0.0631
H1OA H 0.2350 0.1476 0.0631
H1JB H 0.0631 0.2350 0.1476
H1NC H 0.1476 0.0631 0.2350
H1TA H 0.3524 0.0631 0.2650
H1JC H 0.2650 0.1476 0.4369
H1M H 0.4369 0.2350 0.3524
H1XA H 0.2350 0.0631 0.3524
H1H H 0.0631 0.1476 0.2650
H1CA H 0.1476 0.2350 0.4369
H1CB H 0.3524 0.2650 0.4369
H1AA H 0.2650 0.4369 0.3524
H1EC H 0.4369 0.3524 0.2650
H1UB H 0.2350 0.4369 0.1476
H1HA H 0.0631 0.3524 0.2350
H1D H 0.1476 0.2650 0.0631
H1R H 0.2350 0.3524 0.4369
H1FC H 0.0631 0.2650 0.3524
H1QB H 0.1476 0.4369 0.2650
C4EB C 0.4278(3) 0.1902(2) 0.1864(2)
C4ZB C 0.3098(2) 0.1864(2) 0.0722(3)
C4MA C 0.4278(3) 0.3136(2) 0.1902(2)
C4W C 0.3098(2) 0.4278(3) 0.1864(2)
C4OB C 0.3136(2) 0.3098(2) 0.0722(3)
C4OA C 0.1864(2) 0.1902(2) 0.0722(3)
C4JB C 0.0722(3) 0.1864(2) 0.1902(2)
C4NC C 0.1902(2) 0.0722(3) 0.1864(2)
C4TA C 0.3098(2) 0.0722(3) 0.3136(2)
C4JC C 0.3136(2) 0.1902(2) 0.4278(3)
C4M C 0.4278(3) 0.1864(2) 0.3098(2)
C4XA C 0.1864(2) 0.0722(3) 0.3098(2)
C4H C 0.0722(3) 0.1902(2) 0.3136(2)
C4CA C 0.1902(2) 0.1864(2) 0.4278(3)
C4CB C 0.3098(2) 0.3136(2) 0.4278(3)
C4AA C 0.3136(2) 0.4278(3) 0.3098(2)
C4EC C 0.4278(3) 0.3098(2) 0.3136(2)
C4UB C 0.1864(2) 0.4278(3) 0.1902(2)
C4HA C 0.0722(3) 0.3098(2) 0.1864(2)
C4D C 0.1902(2) 0.3136(2) 0.0722(3)
C4R C 0.1864(2) 0.3098(2) 0.4278(3)
C4FC C 0.0722(3) 0.3136(2) 0.3098(2)
C4QB C 0.1902(2) 0.4278(3) 0.3136(2)
H2EB H 0.4350 0.2060 0.1786
H2ZB H 0.2940 0.1786 0.0650
H2MA H 0.4350 0.3214 0.2060
H2W H 0.2940 0.4350 0.1786
H2OB H 0.3214 0.2940 0.0650
H2OA H 0.1786 0.2060 0.0650
H2JB H 0.0650 0.1786 0.2060
H2NC H 0.2060 0.0650 0.1786
H2TA H 0.2940 0.0650 0.3214
H2JC H 0.3214 0.2060 0.4350
H2M H 0.4350 0.1786 0.2940
H2XA H 0.1786 0.0650 0.2940
H2H H 0.0650 0.2060 0.3214
H2CA H 0.2060 0.1786 0.4350
H2CB H 0.2940 0.3214 0.4350
H2AA H 0.3214 0.4350 0.2940
H2EC H 0.4350 0.2940 0.3214
H2UB H 0.1786 0.4350 0.2060
H2HA H 0.0650 0.2940 0.1786
H2D H 0.2060 0.3214 0.0650
H2R H 0.1786 0.2940 0.4350
H2FC H 0.0650 0.3214 0.2940
H2QB H 0.2060 0.4350 0.3214
C5EB C 0.4055(2) 0.14321(19) 0.2088(2)
C5ZB C 0.35679(19) 0.2088(2) 0.0945(2)
C5MA C 0.4055(2) 0.2912(2) 0.14321(19)
C5W C 0.35679(19) 0.4055(2) 0.2088(2)
C5OB C 0.2912(2) 0.35679(19) 0.0945(2)
C5OA C 0.2088(2) 0.14321(19) 0.0945(2)
C5JB C 0.0945(2) 0.2088(2) 0.14321(19)
C5NC C 0.14321(19) 0.0945(2) 0.2088(2)
C5TA C 0.35679(19) 0.0945(2) 0.2912(2)
C5JC C 0.2912(2) 0.14321(19) 0.4055(2)
C5M C 0.4055(2) 0.2088(2) 0.35679(19)
C5XA C 0.2088(2) 0.0945(2) 0.35679(19)
C5H C 0.0945(2) 0.14321(19) 0.2912(2)
C5CA C 0.14321(19) 0.2088(2) 0.4055(2)
C5CB C 0.35679(19) 0.2912(2) 0.4055(2)
C5AA C 0.2912(2) 0.4055(2) 0.35679(19)
C5EC C 0.4055(2) 0.35679(19) 0.2912(2)
C5UB C 0.2088(2) 0.4055(2) 0.14321(19)
C5HA C 0.0945(2) 0.35679(19) 0.2088(2)
C5D C 0.14321(19) 0.2912(2) 0.0945(2)
C5R C 0.2088(2) 0.35679(19) 0.4055(2)
C5FC C 0.0945(2) 0.2912(2) 0.35679(19)
C5QB C 0.14321(19) 0.4055(2) 0.2912(2)
H3EB H 0.3979 0.1274 0.2162
H3ZB H 0.3726 0.2162 0.1021
H3MA H 0.3979 0.2838 0.1274
H3W H 0.3726 0.3979 0.2162
H3OB H 0.2838 0.3726 0.1021
H3OA H 0.2162 0.1274 0.1021
H3JB H 0.1021 0.2162 0.1274
H3NC H 0.1274 0.1021 0.2162
H3TA H 0.3726 0.1021 0.2838
H3JC H 0.2838 0.1274 0.3979
H3M H 0.3979 0.2162 0.3726
H3XA H 0.2162 0.1021 0.3726
H3H H 0.1021 0.1274 0.2838
H3CA H 0.1274 0.2162 0.3979
H3CB H 0.3726 0.2838 0.3979
H3AA H 0.2838 0.3979 0.3726
H3EC H 0.3979 0.3726 0.2838
H3UB H 0.2162 0.3979 0.1274
H3HA H 0.1021 0.3726 0.2162
H3D H 0.1274 0.2838 0.1021
H3R H 0.2162 0.3726 0.3979
H3FC H 0.1021 0.2838 0.3726
H3QB H 0.1274 0.3979 0.2838
C6EB C 0.3948(2) 0.1558(2) 0.1862(2)
C6ZB C 0.3442(2) 0.1862(2) 0.1052(2)
C6MA C 0.3948(2) 0.3138(2) 0.1558(2)
C6W C 0.3442(2) 0.3948(2) 0.1862(2)
C6OB C 0.3138(2) 0.3442(2) 0.1052(2)
C6OA C 0.1862(2) 0.1558(2) 0.1052(2)
C6JB C 0.1052(2) 0.1862(2) 0.1558(2)
C6NC C 0.1558(2) 0.1052(2) 0.1862(2)
C6TA C 0.3442(2) 0.1052(2) 0.3138(2)
C6JC C 0.3138(2) 0.1558(2) 0.3948(2)
C6M C 0.3948(2) 0.1862(2) 0.3442(2)
C6XA C 0.1862(2) 0.1052(2) 0.3442(2)
C6H C 0.1052(2) 0.1558(2) 0.3138(2)
C6CA C 0.1558(2) 0.1862(2) 0.3948(2)
C6CB C 0.3442(2) 0.3138(2) 0.3948(2)
C6AA C 0.3138(2) 0.3948(2) 0.3442(2)
C6EC C 0.3948(2) 0.3442(2) 0.3138(2)
C6UB C 0.1862(2) 0.3948(2) 0.1558(2)
C6HA C 0.1052(2) 0.3442(2) 0.1862(2)
C6D C 0.1558(2) 0.3138(2) 0.1052(2)
C6R C 0.1862(2) 0.3442(2) 0.3948(2)
C6FC C 0.1052(2) 0.3138(2) 0.3442(2)
C6QB C 0.1558(2) 0.3948(2) 0.3138(2)
C7EB C 0.4069(2) 0.1792(2) 0.17532(18)
C7ZB C 0.3208(2) 0.17532(18) 0.0931(2)
C7MA C 0.4069(2) 0.32468(18) 0.1792(2)
C7W C 0.3208(2) 0.4069(2) 0.17532(18)
C7OB C 0.32468(18) 0.3208(2) 0.0931(2)
C7OA C 0.17532(18) 0.1792(2) 0.0931(2)
C7JB C 0.0931(2) 0.17532(18) 0.1792(2)
C7NC C 0.1792(2) 0.0931(2) 0.17532(18)
C7TA C 0.3208(2) 0.0931(2) 0.32468(18)
C7JC C 0.32468(18) 0.1792(2) 0.4069(2)
C7M C 0.4069(2) 0.17532(18) 0.3208(2)
C7XA C 0.17532(18) 0.0931(2) 0.3208(2)
C7H C 0.0931(2) 0.1792(2) 0.32468(18)
C7CA C 0.1792(2) 0.17532(18) 0.4069(2)
C7CB C 0.3208(2) 0.32468(18) 0.4069(2)
C7AA C 0.32468(18) 0.4069(2) 0.3208(2)
C7EC C 0.4069(2) 0.3208(2) 0.32468(18)
C7UB C 0.17532(18) 0.4069(2) 0.1792(2)
C7HA C 0.0931(2) 0.3208(2) 0.17532(18)
C7D C 0.1792(2) 0.32468(18) 0.0931(2)
C7R C 0.17532(18) 0.3208(2) 0.4069(2)
C7FC C 0.0931(2) 0.32468(18) 0.3208(2)
C7QB C 0.1792(2) 0.4069(2) 0.32468(18)
C8EB C 0.3933(2) 0.18862(18) 0.1511(2)
C8ZB C 0.31138(18) 0.1511(2) 0.1067(2)
C8MA C 0.3933(2) 0.3489(2) 0.18862(18)
C8W C 0.31138(18) 0.3933(2) 0.1511(2)
C8OB C 0.3489(2) 0.31138(18) 0.1067(2)
C8OA C 0.1511(2) 0.18862(18) 0.1067(2)
C8JB C 0.1067(2) 0.1511(2) 0.18862(18)
C8NC C 0.18862(18) 0.1067(2) 0.1511(2)
C8TA C 0.31138(18) 0.1067(2) 0.3489(2)
C8JC C 0.3489(2) 0.18862(18) 0.3933(2)
C8M C 0.3933(2) 0.1511(2) 0.31138(18)
C8XA C 0.1511(2) 0.1067(2) 0.31138(18)
C8H C 0.1067(2) 0.18862(18) 0.3489(2)
C8CA C 0.18862(18) 0.1511(2) 0.3933(2)
C8CB C 0.31138(18) 0.3489(2) 0.3933(2)
C8AA C 0.3489(2) 0.3933(2) 0.31138(18)
C8EC C 0.3933(2) 0.31138(18) 0.3489(2)
C8UB C 0.1511(2) 0.3933(2) 0.18862(18)
C8HA C 0.1067(2) 0.31138(18) 0.1511(2)
C8D C 0.18862(18) 0.3489(2) 0.1067(2)
C8R C 0.1511(2) 0.31138(18) 0.3933(2)
C8FC C 0.1067(2) 0.3489(2) 0.31138(18)
C8QB C 0.18862(18) 0.3933(2) 0.3489(2)
C9EB C 0.41337(19) 0.1889(2) 0.1282(2)
C9ZB C 0.3111(2) 0.1282(2) 0.08663(19)
C9MA C 0.41337(19) 0.3718(2) 0.1889(2)
C9W C 0.3111(2) 0.41337(19) 0.1282(2)
C9OB C 0.3718(2) 0.3111(2) 0.08663(19)
C9OA C 0.1282(2) 0.1889(2) 0.08663(19)
C9JB C 0.08663(19) 0.1282(2) 0.1889(2)
C9NC C 0.1889(2) 0.08663(19) 0.1282(2)
C9TA C 0.3111(2) 0.08663(19) 0.3718(2)
C9JC C 0.3718(2) 0.1889(2) 0.41337(19)
C9M C 0.41337(19) 0.1282(2) 0.3111(2)
C9XA C 0.1282(2) 0.08663(19) 0.3111(2)
C9H C 0.08663(19) 0.1889(2) 0.3718(2)
C9CA C 0.1889(2) 0.1282(2) 0.41337(19)
C9CB C 0.3111(2) 0.3718(2) 0.41337(19)
C9AA C 0.3718(2) 0.41337(19) 0.3111(2)
C9EC C 0.41337(19) 0.3111(2) 0.3718(2)
C9UB C 0.1282(2) 0.41337(19) 0.1889(2)
C9HA C 0.08663(19) 0.3111(2) 0.1282(2)
C9D C 0.1889(2) 0.3718(2) 0.08663(19)
C9R C 0.1282(2) 0.3111(2) 0.41337(19)
C9FC C 0.08663(19) 0.3718(2) 0.3111(2)
C9QB C 0.1889(2) 0.41337(19) 0.3718(2)
H4EB H 0.4208 0.1709 0.1257
H4ZB H 0.3291 0.1257 0.0792
H4MA H 0.4208 0.3743 0.1709
H4W H 0.3291 0.4208 0.1257
H4OB H 0.3743 0.3291 0.0792
H4OA H 0.1257 0.1709 0.0792
H4JB H 0.0792 0.1257 0.1709
H4NC H 0.1709 0.0792 0.1257
H4TA H 0.3291 0.0792 0.3743
H4JC H 0.3743 0.1709 0.4208
H4M H 0.4208 0.1257 0.3291
H4XA H 0.1257 0.0792 0.3291
H4H H 0.0792 0.1709 0.3743
H4CA H 0.1709 0.1257 0.4208
H4CB H 0.3291 0.3743 0.4208
H4AA H 0.3743 0.4208 0.3291
H4EC H 0.4208 0.3291 0.3743
H4UB H 0.1257 0.4208 0.1709
H4HA H 0.0792 0.3291 0.1257
H4D H 0.1709 0.3743 0.0792
H4R H 0.1257 0.3291 0.4208
H4FC H 0.0792 0.3743 0.3291
H4QB H 0.1709 0.4208 0.3743
H5EB H 0.4279 0.2015 0.1324
H5ZB H 0.2985 0.1324 0.0721
H5MA H 0.4279 0.3676 0.2015
H5W H 0.2985 0.4279 0.1324
H5OB H 0.3676 0.2985 0.0721
H5OA H 0.1324 0.2015 0.0721
H5JB H 0.0721 0.1324 0.2015
H5NC H 0.2015 0.0721 0.1324
H5TA H 0.2985 0.0721 0.3676
H5JC H 0.3676 0.2015 0.4279
H5M H 0.4279 0.1324 0.2985
H5XA H 0.1324 0.0721 0.2985
H5H H 0.0721 0.2015 0.3676
H5CA H 0.2015 0.1324 0.4279
H5CB H 0.2985 0.3676 0.4279
H5AA H 0.3676 0.4279 0.2985
H5EC H 0.4279 0.2985 0.3676
H5UB H 0.1324 0.4279 0.2015
H5HA H 0.0721 0.2985 0.1324
H5D H 0.2015 0.3676 0.0721
H5R H 0.1324 0.2985 0.4279
H5FC H 0.0721 0.3676 0.2985
H5QB H 0.2015 0.4279 0.3676
H6EB H 0.4044 0.1946 0.1117
H6ZB H 0.3054 0.1117 0.0956
H6MA H 0.4044 0.3883 0.1946
H6W H 0.3054 0.4044 0.1117
H6OB H 0.3883 0.3054 0.0956
H6OA H 0.1117 0.1946 0.0956
H6JB H 0.0956 0.1117 0.1946
H6NC H 0.1946 0.0956 0.1117
H6TA H 0.3054 0.0956 0.3883
H6JC H 0.3883 0.1946 0.4044
H6M H 0.4044 0.1117 0.3054
H6XA H 0.1117 0.0956 0.3054
H6H H 0.0956 0.1946 0.3883
H6CA H 0.1946 0.1117 0.4044
H6CB H 0.3054 0.3883 0.4044
H6AA H 0.3883 0.4044 0.3054
H6EC H 0.4044 0.3054 0.3883
H6UB H 0.1117 0.4044 0.1946
H6HA H 0.0956 0.3054 0.1117
H6D H 0.1946 0.3883 0.0956
H6R H 0.1117 0.3054 0.4044
H6FC H 0.0956 0.3883 0.3054
H6QB H 0.1946 0.4044 0.3883
C10EB C 0.3823(2) 0.2166(2) 0.15607(19)
C10ZB C 0.2834(2) 0.15607(19) 0.1177(2)
C10MA C 0.3823(2) 0.34393(19) 0.2166(2)
C10W C 0.2834(2) 0.3823(2) 0.15607(19)
C10OB C 0.34393(19) 0.2834(2) 0.1177(2)
C10OA C 0.15607(19) 0.2166(2) 0.1177(2)
C10JB C 0.1177(2) 0.15607(19) 0.2166(2)
C10NC C 0.2166(2) 0.1177(2) 0.15607(19)
C10TA C 0.2834(2) 0.1177(2) 0.34393(19)
C10JC C 0.34393(19) 0.2166(2) 0.3823(2)
C10M C 0.3823(2) 0.15607(19) 0.2834(2)
C10XA C 0.15607(19) 0.1177(2) 0.2834(2)
C10H C 0.1177(2) 0.2166(2) 0.34393(19)
C10CA C 0.2166(2) 0.15607(19) 0.3823(2)
C10CB C 0.2834(2) 0.34393(19) 0.3823(2)
C10AA C 0.34393(19) 0.3823(2) 0.2834(2)
C10EC C 0.3823(2) 0.2834(2) 0.34393(19)
C10UB C 0.15607(19) 0.3823(2) 0.2166(2)
C10HA C 0.1177(2) 0.2834(2) 0.15607(19)
C10D C 0.2166(2) 0.34393(19) 0.1177(2)
C10R C 0.15607(19) 0.2834(2) 0.3823(2)
C10FC C 0.1177(2) 0.34393(19) 0.2834(2)
C10QB C 0.2166(2) 0.3823(2) 0.34393(19)
H7EB H 0.3698 0.2162 0.1712
H7ZB H 0.2838 0.1712 0.1302
H7MA H 0.3698 0.3288 0.2162
H7W H 0.2838 0.3698 0.1712
H7OB H 0.3288 0.2838 0.1302
H7OA H 0.1712 0.2162 0.1302
H7JB H 0.1302 0.1712 0.2162
H7NC H 0.2162 0.1302 0.1712
H7TA H 0.2838 0.1302 0.3288
H7JC H 0.3288 0.2162 0.3698
H7M H 0.3698 0.1712 0.2838
H7XA H 0.1712 0.1302 0.2838
H7H H 0.1302 0.2162 0.3288
H7CA H 0.2162 0.1712 0.3698
H7CB H 0.2838 0.3288 0.3698
H7AA H 0.3288 0.3698 0.2838
H7EC H 0.3698 0.2838 0.3288
H7UB H 0.1712 0.3698 0.2162
H7HA H 0.1302 0.2838 0.1712
H7D H 0.2162 0.3288 0.1302
H7R H 0.1712 0.2838 0.3698
H7FC H 0.1302 0.3288 0.2838
H7QB H 0.2162 0.3698 0.3288
H8EB H 0.3729 0.2229 0.1400
H8ZB H 0.2771 0.1400 0.1271
H8MA H 0.3729 0.3600 0.2229
H8W H 0.2771 0.3729 0.1400
H8OB H 0.3600 0.2771 0.1271
H8OA H 0.1400 0.2229 0.1271
H8JB H 0.1271 0.1400 0.2229
H8NC H 0.2229 0.1271 0.1400
H8TA H 0.2771 0.1271 0.3600
H8JC H 0.3600 0.2229 0.3729
H8M H 0.3729 0.1400 0.2771
H8XA H 0.1400 0.1271 0.2771
H8H H 0.1271 0.2229 0.3600
H8CA H 0.2229 0.1400 0.3729
H8CB H 0.2771 0.3600 0.3729
H8AA H 0.3600 0.3729 0.2771
H8EC H 0.3729 0.2771 0.3600
H8UB H 0.1400 0.3729 0.2229
H8HA H 0.1271 0.2771 0.1400
H8D H 0.2229 0.3600 0.1271
H8R H 0.1400 0.2771 0.3729
H8FC H 0.1271 0.3600 0.2771
H8QB H 0.2229 0.3729 0.3600
H9EB H 0.3971 0.2289 0.1602
H9ZB H 0.2711 0.1602 0.1029
H9MA H 0.3971 0.3398 0.2289
H9W H 0.2711 0.3971 0.1602
H9OB H 0.3398 0.2711 0.1029
H9OA H 0.1602 0.2289 0.1029
H9JB H 0.1029 0.1602 0.2289
H9NC H 0.2289 0.1029 0.1602
H9TA H 0.2711 0.1029 0.3398
H9JC H 0.3398 0.2289 0.3971
H9M H 0.3971 0.1602 0.2711
H9XA H 0.1602 0.1029 0.2711
H9H H 0.1029 0.2289 0.3398
H9CA H 0.2289 0.1602 0.3971
H9CB H 0.2711 0.3398 0.3971
H9AA H 0.3398 0.3971 0.2711
H9EC H 0.3971 0.2711 0.3398
H9UB H 0.1602 0.3971 0.2289
H9HA H 0.1029 0.2711 0.1602
H9D H 0.2289 0.3398 0.1029
H9R H 0.1602 0.2711 0.3971
H9FC H 0.1029 0.3398 0.2711
H9QB H 0.2289 0.3971 0.3398
C11EB C 0.37115(16) 0.16843(18) 0.1476(2)
C11ZB C 0.33157(18) 0.1476(2) 0.12885(16)
C11MA C 0.37115(16) 0.3524(2) 0.16843(18)
C11W C 0.33157(18) 0.37115(16) 0.1476(2)
C11OB C 0.3524(2) 0.33157(18) 0.12885(16)
C11OA C 0.1476(2) 0.16843(18) 0.12885(16)
C11JB C 0.12885(16) 0.1476(2) 0.16843(18)
C11NC C 0.16843(18) 0.12885(16) 0.1476(2)
C11TA C 0.33157(18) 0.12885(16) 0.3524(2)
C11JC C 0.3524(2) 0.16843(18) 0.37115(16)
C11M C 0.37115(16) 0.1476(2) 0.33157(18)
C11XA C 0.1476(2) 0.12885(16) 0.33157(18)
C11H C 0.12885(16) 0.16843(18) 0.3524(2)
C11CA C 0.16843(18) 0.1476(2) 0.37115(16)
C11CB C 0.33157(18) 0.3524(2) 0.37115(16)
C11AA C 0.3524(2) 0.37115(16) 0.33157(18)
C11EC C 0.37115(16) 0.33157(18) 0.3524(2)
C11UB C 0.1476(2) 0.37115(16) 0.16843(18)
C11HA C 0.12885(16) 0.33157(18) 0.1476(2)
C11D C 0.16843(18) 0.3524(2) 0.12885(16)
C11R C 0.1476(2) 0.33157(18) 0.37115(16)
C11FC C 0.12885(16) 0.3524(2) 0.33157(18)
C11QB C 0.16843(18) 0.37115(16) 0.3524(2)
C12EB C 0.3508(2) 0.1685(2) 0.12790(17)
C12ZB C 0.3315(2) 0.12790(17) 0.1492(2)
C12MA C 0.3508(2) 0.37210(17) 0.1685(2)
C12W C 0.3315(2) 0.3508(2) 0.12790(17)
C12OB C 0.37210(17) 0.3315(2) 0.1492(2)
C12OA C 0.12790(17) 0.1685(2) 0.1492(2)
C12JB C 0.1492(2) 0.12790(17) 0.1685(2)
C12NC C 0.1685(2) 0.1492(2) 0.12790(17)
C12TA C 0.3315(2) 0.1492(2) 0.37210(17)
C12JC C 0.37210(17) 0.1685(2) 0.3508(2)
C12M C 0.3508(2) 0.12790(17) 0.3315(2)
C12XA C 0.12790(17) 0.1492(2) 0.3315(2)
C12H C 0.1492(2) 0.1685(2) 0.37210(17)
C12CA C 0.1685(2) 0.12790(17) 0.3508(2)
C12CB C 0.3315(2) 0.37210(17) 0.3508(2)
C12AA C 0.37210(17) 0.3508(2) 0.3315(2)
C12EC C 0.3508(2) 0.3315(2) 0.37210(17)
C12UB C 0.12790(17) 0.3508(2) 0.1685(2)
C12HA C 0.1492(2) 0.3315(2) 0.12790(17)
C12D C 0.1685(2) 0.37210(17) 0.1492(2)
C12R C 0.12790(17) 0.3315(2) 0.3508(2)
C12FC C 0.1492(2) 0.37210(17) 0.3315(2)
C12QB C 0.1685(2) 0.3508(2) 0.37210(17)
Co1 Co 0.2500 0.2500 0.2500
loop_
_geom_bond_atom_site_label_1
_geom_bond_atom_site_label_2
_geom_bond_site_symmetry_1
_geom_bond_site_symmetry_2
Co2 Cl1 1_555 1_555
Cl1 Co2NC 1_555 1_555
O1 Co2 1_555 1_555
O2 O3 1_555 1_555
O3 C1 1_555 1_555
C1 O1 1_555 1_555
C2 C1 1_555 1_555
C3 C2 1_555 1_555
H1 C3 1_555 1_555
C4 C2 1_555 1_555
H2 C4 1_555 1_555
C5 C3 1_555 1_555
H3 C5 1_555 1_555
C6 C5 1_555 1_555
C7 C4 1_555 1_555
C8 C7 1_555 1_555
C9 C8 1_555 1_555
H4 C9 1_555 1_555
H5 C9 1_555 1_555
H6 C9 1_555 1_555
C10 C8 1_555 1_555
H7 C10 1_555 1_555
H8 C10 1_555 1_555
H9 C10 1_555 1_555
C11 C8 1_555 1_555
C12 C11 1_555 1_555
Co2EB Cl1M 1_555 1_555
Co2ZB Cl1XC 1_555 1_555
Co2EC Cl1M 1_555 1_555
Co2NC Cl1TC 1_555 1_555
Co2D Cl1XC 1_555 1_555
Co2H Cl1H 1_555 1_555
Co2M Cl1M 1_555 1_555
Co2R Cl1HD 1_555 1_555
Co2CA Cl1HD 1_555 1_555
Co2HA Cl1H 1_555 1_555
Co2FC Cl1H 1_555 1_555
Co2W O1W 1_555 1_555
Co2AA O1AA 1_555 1_555
Co2MA Cl1M 1_555 1_555
Co2OA Cl1XC 1_555 1_555
Co2TA Cl1 1_555 1_555
Co2XA Cl1 1_555 1_555
Co2CB Cl1HD 1_555 1_555
Co2JB Cl1H 1_555 1_555
Co2OB Cl1XC 1_555 1_555
Co2QB O1QB 1_555 1_555
Co2UB O1UB 1_555 1_555
Co2JC Cl1HD 1_555 1_555
Cl1TC Co2 1_555 1_555
Cl1H Cl1BD 1_555 1_555
Cl1BD Co2H 1_555 1_555
Cl1M Cl1GD 1_555 1_555
Cl1GD Co2EB 1_555 1_555
Cl1XC Cl1D 1_555 1_555
Cl1HD Cl1R 1_555 1_555
Cl1D Co2ZB 1_555 1_555
Cl1R Co2R 1_555 1_555
O1EB Co2EB 1_555 1_555
O1ZB Co2ZB 1_555 1_555
O1MA Co2MA 1_555 1_555
O1W C1W 1_555 1_555
O1OB Co2OB 1_555 1_555
O1OA Co2OA 1_555 1_555
O1JB Co2JB 1_555 1_555
O1NC Co2NC 1_555 1_555
O1TA Co2TA 1_555 1_555
O1JC Co2JC 1_555 1_555
O1M Co2M 1_555 1_555
O1XA Co2XA 1_555 1_555
O1H Co2H 1_555 1_555
O1CA Co2CA 1_555 1_555
O1CB Co2CB 1_555 1_555
O1AA C1AA 1_555 1_555
O1EC Co2EC 1_555 1_555
O1UB C1UB 1_555 1_555
O1HA Co2HA 1_555 1_555
O1D Co2D 1_555 1_555
O1R Co2R 1_555 1_555
O1FC Co2FC 1_555 1_555
O1QB C1QB 1_555 1_555
O1TC Co2 1_555 1_555
O1XC Co2D 1_555 1_555
O1BD Co2H 1_555 1_555
O1GD Co2M 1_555 1_555
O1HD Co2R 1_555 1_555
O1WD Co2CA 1_555 1_555
O1XD Co2HA 1_555 1_555
O1YE Co2EB 1_555 1_555
O1PF Co2ZB 1_555 1_555
O1UF Co2EC 1_555 1_555
O1ZF Co2FC 1_555 1_555
O1HG Co2NC 1_555 1_555
O2EB Co2MA 1_555 1_555
O2ZB Co2OA 1_555 1_555
O2MA Co2EC 1_555 1_555
O2W Co2UB 1_555 1_555
O2OB Co2ZB 1_555 1_555
O2OA Co2D 1_555 1_555
O2JB Co2H 1_555 1_555
O2NC Co2 1_555 1_555
O2TA Co2XA 1_555 1_555
O2JC Co2CB 1_555 1_555
O2M Co2EB 1_555 1_555
O2XA Co2NC 1_555 1_555
O2H Co2FC 1_555 1_555
O2CA Co2JC 1_555 1_555
O2CB Co2R 1_555 1_555
O2AA Co2W 1_555 1_555
O2EC Co2M 1_555 1_555
O2UB Co2QB 1_555 1_555
O2HA Co2JB 1_555 1_555
O2D Co2OB 1_555 1_555
O2R Co2CA 1_555 1_555
O2FC Co2HA 1_555 1_555
O2QB Co2AA 1_555 1_555
O2BD Co2FC 1_555 1_555
O2GD Co2EB 1_555 1_555
O2HD Co2CA 1_555 1_555
O2CE Co2EC 1_555 1_555
O2IE Co2D 1_555 1_555
O2NE Co2NC 1_555 1_555
O2SE Co2R 1_555 1_555
O2ZE Co2H 1_555 1_555
O2EF Co2ZB 1_555 1_555
O2UF Co2M 1_555 1_555
O2ZF Co2HA 1_555 1_555
O2HG Co2 1_555 1_555
O3EB Co2MA 1_555 1_555
O3ZB Co2OA 1_555 1_555
O3MA Co2EC 1_555 1_555
O3OB Co2ZB 1_555 1_555
O3OA Co2D 1_555 1_555
O3JB Co2H 1_555 1_555
O3NC Co2 1_555 1_555
O3TA Co2XA 1_555 1_555
O3JC Co2CB 1_555 1_555
O3M Co2EB 1_555 1_555
O3XA Co2NC 1_555 1_555
O3H Co2FC 1_555 1_555
O3CA Co2JC 1_555 1_555
O3CB Co2R 1_555 1_555
O3EC Co2M 1_555 1_555
O3HA Co2JB 1_555 1_555
O3D Co2OB 1_555 1_555
O3R Co2CA 1_555 1_555
O3FC Co2HA 1_555 1_555
O3BD Co2FC 1_555 1_555
O3GD Co2EB 1_555 1_555
O3HD Co2CA 1_555 1_555
O3CE Co2EC 1_555 1_555
O3IE Co2D 1_555 1_555
O3NE Co2NC 1_555 1_555
O3SE Co2R 1_555 1_555
O3ZE Co2H 1_555 1_555
O3EF Co2ZB 1_555 1_555
O3UF Co2M 1_555 1_555
O3ZF Co2HA 1_555 1_555
O3HG Co2 1_555 1_555
C1EB O1EB 1_555 1_555
C1ZB O1ZB 1_555 1_555
C1MA O1MA 1_555 1_555
C1W O2W 1_555 1_555
C1OB O1OB 1_555 1_555
C1OA O1OA 1_555 1_555
C1JB O1JB 1_555 1_555
C1NC O1NC 1_555 1_555
C1TA O1TA 1_555 1_555
C1JC O1JC 1_555 1_555
C1M O1M 1_555 1_555
C1XA O1XA 1_555 1_555
C1H O1H 1_555 1_555
C1CA O1CA 1_555 1_555
C1CB O1CB 1_555 1_555
C1AA O2AA 1_555 1_555
C1EC O1EC 1_555 1_555
C1UB O2UB 1_555 1_555
C1HA O1HA 1_555 1_555
C1D O1D 1_555 1_555
C1R O1R 1_555 1_555
C1FC O1FC 1_555 1_555
C1QB O2QB 1_555 1_555
C2EB C1EB 1_555 1_555
C2ZB C1ZB 1_555 1_555
C2MA C1MA 1_555 1_555
C2W C1W 1_555 1_555
C2OB C1OB 1_555 1_555
C2OA C1OA 1_555 1_555
C2JB C1JB 1_555 1_555
C2NC C1NC 1_555 1_555
C2TA C1TA 1_555 1_555
C2JC C1JC 1_555 1_555
C2M C1M 1_555 1_555
C2XA C1XA 1_555 1_555
C2H C1H 1_555 1_555
C2CA C1CA 1_555 1_555
C2CB C1CB 1_555 1_555
C2AA C1AA 1_555 1_555
C2EC C1EC 1_555 1_555
C2UB C1UB 1_555 1_555
C2HA C1HA 1_555 1_555
C2D C1D 1_555 1_555
C2R C1R 1_555 1_555
C2FC C1FC 1_555 1_555
C2QB C1QB 1_555 1_555
C3EB C2EB 1_555 1_555
C3ZB C2ZB 1_555 1_555
C3MA C2MA 1_555 1_555
C3W C2W 1_555 1_555
C3OB C2OB 1_555 1_555
C3OA C2OA 1_555 1_555
C3JB C2JB 1_555 1_555
C3NC C2NC 1_555 1_555
C3TA C2TA 1_555 1_555
C3JC C2JC 1_555 1_555
C3M C2M 1_555 1_555
C3XA C2XA 1_555 1_555
C3H C2H 1_555 1_555
C3CA C2CA 1_555 1_555
C3CB C2CB 1_555 1_555
C3AA C2AA 1_555 1_555
C3EC C2EC 1_555 1_555
C3UB C2UB 1_555 1_555
C3HA C2HA 1_555 1_555
C3D C2D 1_555 1_555
C3R C2R 1_555 1_555
C3FC C2FC 1_555 1_555
C3QB C2QB 1_555 1_555
H1EB C3EB 1_555 1_555
H1ZB C3ZB 1_555 1_555
H1MA C3MA 1_555 1_555
H1W C3W 1_555 1_555
H1OB C3OB 1_555 1_555
H1OA C3OA 1_555 1_555
H1JB C3JB 1_555 1_555
H1NC C3NC 1_555 1_555
H1TA C3TA 1_555 1_555
H1JC C3JC 1_555 1_555
H1M C3M 1_555 1_555
H1XA C3XA 1_555 1_555
H1H C3H 1_555 1_555
H1CA C3CA 1_555 1_555
H1CB C3CB 1_555 1_555
H1AA C3AA 1_555 1_555
H1EC C3EC 1_555 1_555
H1UB C3UB 1_555 1_555
H1HA C3HA 1_555 1_555
H1D C3D 1_555 1_555
H1R C3R 1_555 1_555
H1FC C3FC 1_555 1_555
H1QB C3QB 1_555 1_555
C4EB C2EB 1_555 1_555
C4ZB C2ZB 1_555 1_555
C4MA C2MA 1_555 1_555
C4W C2W 1_555 1_555
C4OB C2OB 1_555 1_555
C4OA C2OA 1_555 1_555
C4JB C2JB 1_555 1_555
C4NC C2NC 1_555 1_555
C4TA C2TA 1_555 1_555
C4JC C2JC 1_555 1_555
C4M C2M 1_555 1_555
C4XA C2XA 1_555 1_555
C4H C2H 1_555 1_555
C4CA C2CA 1_555 1_555
C4CB C2CB 1_555 1_555
C4AA C2AA 1_555 1_555
C4EC C2EC 1_555 1_555
C4UB C2UB 1_555 1_555
C4HA C2HA 1_555 1_555
C4D C2D 1_555 1_555
C4R C2R 1_555 1_555
C4FC C2FC 1_555 1_555
C4QB C2QB 1_555 1_555
H2EB C4EB 1_555 1_555
H2ZB C4ZB 1_555 1_555
H2MA C4MA 1_555 1_555
H2W C4W 1_555 1_555
H2OB C4OB 1_555 1_555
H2OA C4OA 1_555 1_555
H2JB C4JB 1_555 1_555
H2NC C4NC 1_555 1_555
H2TA C4TA 1_555 1_555
H2JC C4JC 1_555 1_555
H2M C4M 1_555 1_555
H2XA C4XA 1_555 1_555
H2H C4H 1_555 1_555
H2CA C4CA 1_555 1_555
H2CB C4CB 1_555 1_555
H2AA C4AA 1_555 1_555
H2EC C4EC 1_555 1_555
H2UB C4UB 1_555 1_555
H2HA C4HA 1_555 1_555
H2D C4D 1_555 1_555
H2R C4R 1_555 1_555
H2FC C4FC 1_555 1_555
H2QB C4QB 1_555 1_555
C5EB C3EB 1_555 1_555
C5ZB C3ZB 1_555 1_555
C5MA C3MA 1_555 1_555
C5W C3W 1_555 1_555
C5OB C3OB 1_555 1_555
C5OA C3OA 1_555 1_555
C5JB C3JB 1_555 1_555
C5NC C3NC 1_555 1_555
C5TA C3TA 1_555 1_555
C5JC C3JC 1_555 1_555
C5M C3M 1_555 1_555
C5XA C3XA 1_555 1_555
C5H C3H 1_555 1_555
C5CA C3CA 1_555 1_555
C5CB C3CB 1_555 1_555
C5AA C3AA 1_555 1_555
C5EC C3EC 1_555 1_555
C5UB C3UB 1_555 1_555
C5HA C3HA 1_555 1_555
C5D C3D 1_555 1_555
C5R C3R 1_555 1_555
C5FC C3FC 1_555 1_555
C5QB C3QB 1_555 1_555
H3EB C5EB 1_555 1_555
H3ZB C5ZB 1_555 1_555
H3MA C5MA 1_555 1_555
H3W C5W 1_555 1_555
H3OB C5OB 1_555 1_555
H3OA C5OA 1_555 1_555
H3JB C5JB 1_555 1_555
H3NC C5NC 1_555 1_555
H3TA C5TA 1_555 1_555
H3JC C5JC 1_555 1_555
H3M C5M 1_555 1_555
H3XA C5XA 1_555 1_555
H3H C5H 1_555 1_555
H3CA C5CA 1_555 1_555
H3CB C5CB 1_555 1_555
H3AA C5AA 1_555 1_555
H3EC C5EC 1_555 1_555
H3UB C5UB 1_555 1_555
H3HA C5HA 1_555 1_555
H3D C5D 1_555 1_555
H3R C5R 1_555 1_555
H3FC C5FC 1_555 1_555
H3QB C5QB 1_555 1_555
C6EB C12 1_555 1_555
C6ZB C5ZB 1_555 1_555
C6MA C5MA 1_555 1_555
C6W C5W 1_555 1_555
C6OB C5OB 1_555 1_555
C6OA C5OA 1_555 1_555
C6JB C5JB 1_555 1_555
C6NC C5NC 1_555 1_555
C6TA C5TA 1_555 1_555
C6JC C5JC 1_555 1_555
C6M C5M 1_555 1_555
C6XA C5XA 1_555 1_555
C6H C5H 1_555 1_555
C6CA C5CA 1_555 1_555
C6CB C5CB 1_555 1_555
C6AA C5AA 1_555 1_555
C6EC C5EC 1_555 1_555
C6UB C5UB 1_555 1_555
C6HA C5HA 1_555 1_555
C6D C5D 1_555 1_555
C6R C5R 1_555 1_555
C6FC C5FC 1_555 1_555
C6QB C5QB 1_555 1_555
C7EB C4EB 1_555 1_555
C7ZB C4ZB 1_555 1_555
C7MA C4MA 1_555 1_555
C7W C4W 1_555 1_555
C7OB C4OB 1_555 1_555
C7OA C4OA 1_555 1_555
C7JB C4JB 1_555 1_555
C7NC C4NC 1_555 1_555
C7TA C4TA 1_555 1_555
C7JC C4JC 1_555 1_555
C7M C4M 1_555 1_555
C7XA C4XA 1_555 1_555
C7H C4H 1_555 1_555
C7CA C4CA 1_555 1_555
C7CB C4CB 1_555 1_555
C7AA C4AA 1_555 1_555
C7EC C4EC 1_555 1_555
C7UB C4UB 1_555 1_555
C7HA C4HA 1_555 1_555
C7D C4D 1_555 1_555
C7R C4R 1_555 1_555
C7FC C4FC 1_555 1_555
C7QB C4QB 1_555 1_555
C8EB C7EB 1_555 1_555
C8ZB C7ZB 1_555 1_555
C8MA C7MA 1_555 1_555
C8W C7W 1_555 1_555
C8OB C7OB 1_555 1_555
C8OA C7OA 1_555 1_555
C8JB C7JB 1_555 1_555
C8NC C7NC 1_555 1_555
C8TA C7TA 1_555 1_555
C8JC C7JC 1_555 1_555
C8M C7M 1_555 1_555
C8XA C7XA 1_555 1_555
C8H C7H 1_555 1_555
C8CA C7CA 1_555 1_555
C8CB C7CB 1_555 1_555
C8AA C7AA 1_555 1_555
C8EC C7EC 1_555 1_555
C8UB C7UB 1_555 1_555
C8HA C7HA 1_555 1_555
C8D C7D 1_555 1_555
C8R C7R 1_555 1_555
C8FC C7FC 1_555 1_555
C8QB C7QB 1_555 1_555
C9EB C8EB 1_555 1_555
C9ZB C8ZB 1_555 1_555
C9MA C8MA 1_555 1_555
C9W C8W 1_555 1_555
C9OB C8OB 1_555 1_555
C9OA C8OA 1_555 1_555
C9JB C8JB 1_555 1_555
C9NC C8NC 1_555 1_555
C9TA C8TA 1_555 1_555
C9JC C8JC 1_555 1_555
C9M C8M 1_555 1_555
C9XA C8XA 1_555 1_555
C9H C8H 1_555 1_555
C9CA C8CA 1_555 1_555
C9CB C8CB 1_555 1_555
C9AA C8AA 1_555 1_555
C9EC C8EC 1_555 1_555
C9UB C8UB 1_555 1_555
C9HA C8HA 1_555 1_555
C9D C8D 1_555 1_555
C9R C8R 1_555 1_555
C9FC C8FC 1_555 1_555
C9QB C8QB 1_555 1_555
H4EB C9EB 1_555 1_555
H4ZB C9ZB 1_555 1_555
H4MA C9MA 1_555 1_555
H4W C9W 1_555 1_555
H4OB C9OB 1_555 1_555
H4OA C9OA 1_555 1_555
H4JB C9JB 1_555 1_555
H4NC C9NC 1_555 1_555
H4TA C9TA 1_555 1_555
H4JC C9JC 1_555 1_555
H4M C9M 1_555 1_555
H4XA C9XA 1_555 1_555
H4H C9H 1_555 1_555
H4CA C9CA 1_555 1_555
H4CB C9CB 1_555 1_555
H4AA C9AA 1_555 1_555
H4EC C9EC 1_555 1_555
H4UB C9UB 1_555 1_555
H4HA C9HA 1_555 1_555
H4D C9D 1_555 1_555
H4R C9R 1_555 1_555
H4FC C9FC 1_555 1_555
H4QB C9QB 1_555 1_555
H5EB C9EB 1_555 1_555
H5ZB C9ZB 1_555 1_555
H5MA C9MA 1_555 1_555
H5W C9W 1_555 1_555
H5OB C9OB 1_555 1_555
H5OA C9OA 1_555 1_555
H5JB C9JB 1_555 1_555
H5NC C9NC 1_555 1_555
H5TA C9TA 1_555 1_555
H5JC C9JC 1_555 1_555
H5M C9M 1_555 1_555
H5XA C9XA 1_555 1_555
H5H C9H 1_555 1_555
H5CA C9CA 1_555 1_555
H5CB C9CB 1_555 1_555
H5AA C9AA 1_555 1_555
H5EC C9EC 1_555 1_555
H5UB C9UB 1_555 1_555
H5HA C9HA 1_555 1_555
H5D C9D 1_555 1_555
H5R C9R 1_555 1_555
H5FC C9FC 1_555 1_555
H5QB C9QB 1_555 1_555
H6EB C9EB 1_555 1_555
H6ZB C9ZB 1_555 1_555
H6MA C9MA 1_555 1_555
H6W C9W 1_555 1_555
H6OB C9OB 1_555 1_555
H6OA C9OA 1_555 1_555
H6JB C9JB 1_555 1_555
H6NC C9NC 1_555 1_555
H6TA C9TA 1_555 1_555
H6JC C9JC 1_555 1_555
H6M C9M 1_555 1_555
H6XA C9XA 1_555 1_555
H6H C9H 1_555 1_555
H6CA C9CA 1_555 1_555
H6CB C9CB 1_555 1_555
H6AA C9AA 1_555 1_555
H6EC C9EC 1_555 1_555
H6UB C9UB 1_555 1_555
H6HA C9HA 1_555 1_555
H6D C9D 1_555 1_555
H6R C9R 1_555 1_555
H6FC C9FC 1_555 1_555
H6QB C9QB 1_555 1_555
C10EB C8EB 1_555 1_555
C10ZB C8ZB 1_555 1_555
C10MA C8MA 1_555 1_555
C10W C8W 1_555 1_555
C10OB C8OB 1_555 1_555
C10OA C8OA 1_555 1_555
C10JB C8JB 1_555 1_555
C10NC C8NC 1_555 1_555
C10TA C8TA 1_555 1_555
C10JC C8JC 1_555 1_555
C10M C8M 1_555 1_555
C10XA C8XA 1_555 1_555
C10H C8H 1_555 1_555
C10CA C8CA 1_555 1_555
C10CB C8CB 1_555 1_555
C10AA C8AA 1_555 1_555
C10EC C8EC 1_555 1_555
C10UB C8UB 1_555 1_555
C10HA C8HA 1_555 1_555
C10D C8D 1_555 1_555
C10R C8R 1_555 1_555
C10FC C8FC 1_555 1_555
C10QB C8QB 1_555 1_555
H7EB C10EB 1_555 1_555
H7ZB C10ZB 1_555 1_555
H7MA C10MA 1_555 1_555
H7W C10W 1_555 1_555
H7OB C10OB 1_555 1_555
H7OA C10OA 1_555 1_555
H7JB C10JB 1_555 1_555
H7NC C10NC 1_555 1_555
H7TA C10TA 1_555 1_555
H7JC C10JC 1_555 1_555
H7M C10M 1_555 1_555
H7XA C10XA 1_555 1_555
H7H C10H 1_555 1_555
H7CA C10CA 1_555 1_555
H7CB C10CB 1_555 1_555
H7AA C10AA 1_555 1_555
H7EC C10EC 1_555 1_555
H7UB C10UB 1_555 1_555
H7HA C10HA 1_555 1_555
H7D C10D 1_555 1_555
H7R C10R 1_555 1_555
H7FC C10FC 1_555 1_555
H7QB C10QB 1_555 1_555
H8EB C10EB 1_555 1_555
H8ZB C10ZB 1_555 1_555
H8MA C10MA 1_555 1_555
H8W C10W 1_555 1_555
H8OB C10OB 1_555 1_555
H8OA C10OA 1_555 1_555
H8JB C10JB 1_555 1_555
H8NC C10NC 1_555 1_555
H8TA C10TA 1_555 1_555
H8JC C10JC 1_555 1_555
H8M C10M 1_555 1_555
H8XA C10XA 1_555 1_555
H8H C10H 1_555 1_555
H8CA C10CA 1_555 1_555
H8CB C10CB 1_555 1_555
H8AA C10AA 1_555 1_555
H8EC C10EC 1_555 1_555
H8UB C10UB 1_555 1_555
H8HA C10HA 1_555 1_555
H8D C10D 1_555 1_555
H8R C10R 1_555 1_555
H8FC C10FC 1_555 1_555
H8QB C10QB 1_555 1_555
H9EB C10EB 1_555 1_555
H9ZB C10ZB 1_555 1_555
H9MA C10MA 1_555 1_555
H9W C10W 1_555 1_555
H9OB C10OB 1_555 1_555
H9OA C10OA 1_555 1_555
H9JB C10JB 1_555 1_555
H9NC C10NC 1_555 1_555
H9TA C10TA 1_555 1_555
H9JC C10JC 1_555 1_555
H9M C10M 1_555 1_555
H9XA C10XA 1_555 1_555
H9H C10H 1_555 1_555
H9CA C10CA 1_555 1_555
H9CB C10CB 1_555 1_555
H9AA C10AA 1_555 1_555
H9EC C10EC 1_555 1_555
H9UB C10UB 1_555 1_555
H9HA C10HA 1_555 1_555
H9D C10D 1_555 1_555
H9R C10R 1_555 1_555
H9FC C10FC 1_555 1_555
H9QB C10QB 1_555 1_555
C11EB C12 1_555 1_555
C11ZB C8ZB 1_555 1_555
C11MA C8MA 1_555 1_555
C11W C8W 1_555 1_555
C11OB C8OB 1_555 1_555
C11OA C8OA 1_555 1_555
C11JB C8JB 1_555 1_555
C11NC C8NC 1_555 1_555
C11TA C8TA 1_555 1_555
C11JC C8JC 1_555 1_555
C11M C8M 1_555 1_555
C11XA C8XA 1_555 1_555
C11H C8H 1_555 1_555
C11CA C8CA 1_555 1_555
C11CB C8CB 1_555 1_555
C11AA C8AA 1_555 1_555
C11EC C8EC 1_555 1_555
C11UB C8UB 1_555 1_555
C11HA C8HA 1_555 1_555
C11D C8D 1_555 1_555
C11R C8R 1_555 1_555
C11FC C8FC 1_555 1_555
C11QB C8QB 1_555 1_555
C12EB C6ZB 1_555 1_555
C12ZB C6 1_555 1_555
C12MA C6W 1_555 1_555
C12W C6OB 1_555 1_555
C12OB C6MA 1_555 1_555
C12OA C6JB 1_555 1_555
C12JB C6NC 1_555 1_555
C12NC C6OA 1_555 1_555
C12TA C6JC 1_555 1_555
C12JC C6M 1_555 1_555
C12M C6TA 1_555 1_555
C12XA C6H 1_555 1_555
C12H C6CA 1_555 1_555
C12CA C6XA 1_555 1_555
C12CB C6AA 1_555 1_555
C12AA C6EC 1_555 1_555
C12EC C6CB 1_555 1_555
C12UB C6HA 1_555 1_555
C12HA C6D 1_555 1_555
C12D C6UB 1_555 1_555
C12R C6FC 1_555 1_555
C12FC C6QB 1_555 1_555
C12QB C6R 1_555 1_555
Cl1 Cl1TC 1_555 1_555
O2 C1 1_555 1_555
O2 Co2TA 1_555 1_555
O3 Co2TA 1_555 1_555
C6 C7 1_555 1_555
C11 C12ZB 1_555 1_555
Co2EC Cl1GD 1_555 1_555
Co2D Cl1D 1_555 1_555
Co2M Cl1GD 1_555 1_555
Co2CA Cl1R 1_555 1_555
Co2HA Cl1BD 1_555 1_555
Co2FC Cl1BD 1_555 1_555
Co2MA Cl1GD 1_555 1_555
Co2OA Cl1D 1_555 1_555
Co2TA Cl1TC 1_555 1_555
Co2XA Cl1TC 1_555 1_555
Co2CB Cl1R 1_555 1_555
Co2JB Cl1BD 1_555 1_555
Co2OB Cl1D 1_555 1_555
Co2JC Cl1R 1_555 1_555
O2EB O3EB 1_555 1_555
O2EB C1EB 1_555 1_555
O2ZB O3ZB 1_555 1_555
O2ZB C1ZB 1_555 1_555
O2MA O3MA 1_555 1_555
O2MA C1MA 1_555 1_555
O2OB O3OB 1_555 1_555
O2OB C1OB 1_555 1_555
O2OA O3OA 1_555 1_555
O2OA C1OA 1_555 1_555
O2JB O3JB 1_555 1_555
O2JB C1JB 1_555 1_555
O2NC O3NC 1_555 1_555
O2NC C1NC 1_555 1_555
O2TA O3TA 1_555 1_555
O2TA C1TA 1_555 1_555
O2JC O3JC 1_555 1_555
O2JC C1JC 1_555 1_555
O2M O3M 1_555 1_555
O2M C1M 1_555 1_555
O2XA O3XA 1_555 1_555
O2XA C1XA 1_555 1_555
O2H O3H 1_555 1_555
O2H C1H 1_555 1_555
O2CA O3CA 1_555 1_555
O2CA C1CA 1_555 1_555
O2CB O3CB 1_555 1_555
O2CB C1CB 1_555 1_555
O2EC O3EC 1_555 1_555
O2EC C1EC 1_555 1_555
O2HA O3HA 1_555 1_555
O2HA C1HA 1_555 1_555
O2D O3D 1_555 1_555
O2D C1D 1_555 1_555
O2R O3R 1_555 1_555
O2R C1R 1_555 1_555
O2FC O3FC 1_555 1_555
O2FC C1FC 1_555 1_555
O2BD O3BD 1_555 1_555
O2GD O3GD 1_555 1_555
O2HD O3HD 1_555 1_555
O2CE O3CE 1_555 1_555
O2IE O3IE 1_555 1_555
O2NE O3NE 1_555 1_555
O2SE O3SE 1_555 1_555
O2ZE O3ZE 1_555 1_555
O2EF O3EF 1_555 1_555
O2UF O3UF 1_555 1_555
O2ZF O3ZF 1_555 1_555
O2HG O3HG 1_555 1_555
O3EB C1EB 1_555 1_555
O3ZB C1ZB 1_555 1_555
O3MA C1MA 1_555 1_555
O3OB C1OB 1_555 1_555
O3OA C1OA 1_555 1_555
O3JB C1JB 1_555 1_555
O3NC C1NC 1_555 1_555
O3TA C1TA 1_555 1_555
O3JC C1JC 1_555 1_555
O3M C1M 1_555 1_555
O3XA C1XA 1_555 1_555
O3H C1H 1_555 1_555
O3CA C1CA 1_555 1_555
O3CB C1CB 1_555 1_555
O3EC C1EC 1_555 1_555
O3HA C1HA 1_555 1_555
O3D C1D 1_555 1_555
O3R C1R 1_555 1_555
O3FC C1FC 1_555 1_555
C5EB C6EB 1_555 1_555
C6EB C7EB 1_555 1_555
C6ZB C7ZB 1_555 1_555
C6MA C7MA 1_555 1_555
C6W C7W 1_555 1_555
C6OB C7OB 1_555 1_555
C6OA C7OA 1_555 1_555
C6JB C7JB 1_555 1_555
C6NC C7NC 1_555 1_555
C6TA C7TA 1_555 1_555
C6JC C7JC 1_555 1_555
C6M C7M 1_555 1_555
C6XA C7XA 1_555 1_555
C6H C7H 1_555 1_555
C6CA C7CA 1_555 1_555
C6CB C7CB 1_555 1_555
C6AA C7AA 1_555 1_555
C6EC C7EC 1_555 1_555
C6UB C7UB 1_555 1_555
C6HA C7HA 1_555 1_555
C6D C7D 1_555 1_555
C6R C7R 1_555 1_555
C6FC C7FC 1_555 1_555
C6QB C7QB 1_555 1_555
C8EB C11EB 1_555 1_555
C11EB C12EB 1_555 1_555
C11ZB C12EB 1_555 1_555
C11ZB C12ZB 1_555 1_555
C11MA C12MA 1_555 1_555
C11MA C12OB 1_555 1_555
C11W C12MA 1_555 1_555
C11W C12W 1_555 1_555
C11OB C12W 1_555 1_555
C11OB C12OB 1_555 1_555
C11OA C12OA 1_555 1_555
C11OA C12NC 1_555 1_555
C11JB C12OA 1_555 1_555
C11JB C12JB 1_555 1_555
C11NC C12JB 1_555 1_555
C11NC C12NC 1_555 1_555
C11TA C12TA 1_555 1_555
C11TA C12M 1_555 1_555
C11JC C12TA 1_555 1_555
C11JC C12JC 1_555 1_555
C11M C12JC 1_555 1_555
C11M C12M 1_555 1_555
C11XA C12XA 1_555 1_555
C11XA C12CA 1_555 1_555
C11H C12XA 1_555 1_555
C11H C12H 1_555 1_555
C11CA C12H 1_555 1_555
C11CA C12CA 1_555 1_555
C11CB C12CB 1_555 1_555
C11CB C12EC 1_555 1_555
C11AA C12CB 1_555 1_555
C11AA C12AA 1_555 1_555
C11EC C12AA 1_555 1_555
C11EC C12EC 1_555 1_555
C11UB C12UB 1_555 1_555
C11UB C12D 1_555 1_555
C11HA C12UB 1_555 1_555
C11HA C12HA 1_555 1_555
C11D C12HA 1_555 1_555
C11D C12D 1_555 1_555
C11R C12R 1_555 1_555
C11R C12QB 1_555 1_555
C11FC C12R 1_555 1_555
C11FC C12FC 1_555 1_555
C11QB C12FC 1_555 1_555
C11QB C12QB 1_555 1_555

#END
