
#######################################################################
#
#                 Cambridge Crystallographic Data Centre
#                                CCDC 
#
#######################################################################
#
# If this CIF has been generated from an entry in the Cambridge 
# Structural Database, then it will include bibliographic, chemical, 
# crystal, experimental, refinement or atomic coordinate data resulting 
# from the CCDC's data processing and validation procedures.
#
#######################################################################

data_VETTIZ
_symmetry_cell_setting           cubic
_symmetry_space_group_name_H-M   'F m -3 c'
_symmetry_Int_Tables_number      226
_space_group_name_Hall           '-F 4c 2 3'
loop_
_symmetry_equiv_pos_site_id
_symmetry_equiv_pos_as_xyz
1 x,y,z
2 -x,-y,z
3 -x,y,-z
4 x,-y,-z
5 z,x,y
6 z,-x,-y
7 -z,-x,y
8 -z,x,-y
9 y,z,x
10 -y,z,-x
11 y,-z,-x
12 -y,-z,x
13 1/2+y,1/2+x,1/2-z
14 1/2-y,1/2-x,1/2-z
15 1/2+y,1/2-x,1/2+z
16 1/2-y,1/2+x,1/2+z
17 1/2+x,1/2+z,1/2-y
18 1/2-x,1/2+z,1/2+y
19 1/2-x,1/2-z,1/2-y
20 1/2+x,1/2-z,1/2+y
21 1/2+z,1/2+y,1/2-x
22 1/2+z,1/2-y,1/2+x
23 1/2-z,1/2+y,1/2+x
24 1/2-z,1/2-y,1/2-x
25 x,1/2+y,1/2+z
26 -x,1/2-y,1/2+z
27 -x,1/2+y,1/2-z
28 x,1/2-y,1/2-z
29 z,1/2+x,1/2+y
30 z,1/2-x,1/2-y
31 -z,1/2-x,1/2+y
32 -z,1/2+x,1/2-y
33 y,1/2+z,1/2+x
34 -y,1/2+z,1/2-x
35 y,1/2-z,1/2-x
36 -y,1/2-z,1/2+x
37 1/2+y,x,-z
38 1/2-y,-x,-z
39 1/2+y,-x,z
40 1/2-y,x,z
41 1/2+x,z,-y
42 1/2-x,z,y
43 1/2-x,-z,-y
44 1/2+x,-z,y
45 1/2+z,y,-x
46 1/2+z,-y,x
47 1/2-z,y,x
48 1/2-z,-y,-x
49 1/2+x,y,1/2+z
50 1/2-x,-y,1/2+z
51 1/2-x,y,1/2-z
52 1/2+x,-y,1/2-z
53 1/2+z,x,1/2+y
54 1/2+z,-x,1/2-y
55 1/2-z,-x,1/2+y
56 1/2-z,x,1/2-y
57 1/2+y,z,1/2+x
58 1/2-y,z,1/2-x
59 1/2+y,-z,1/2-x
60 1/2-y,-z,1/2+x
61 y,1/2+x,-z
62 -y,1/2-x,-z
63 y,1/2-x,z
64 -y,1/2+x,z
65 x,1/2+z,-y
66 -x,1/2+z,y
67 -x,1/2-z,-y
68 x,1/2-z,y
69 z,1/2+y,-x
70 z,1/2-y,x
71 -z,1/2+y,x
72 -z,1/2-y,-x
73 1/2+x,1/2+y,z
74 1/2-x,1/2-y,z
75 1/2-x,1/2+y,-z
76 1/2+x,1/2-y,-z
77 1/2+z,1/2+x,y
78 1/2+z,1/2-x,-y
79 1/2-z,1/2-x,y
80 1/2-z,1/2+x,-y
81 1/2+y,1/2+z,x
82 1/2-y,1/2+z,-x
83 1/2+y,1/2-z,-x
84 1/2-y,1/2-z,x
85 y,x,1/2-z
86 -y,-x,1/2-z
87 y,-x,1/2+z
88 -y,x,1/2+z
89 x,z,1/2-y
90 -x,z,1/2+y
91 -x,-z,1/2-y
92 x,-z,1/2+y
93 z,y,1/2-x
94 z,-y,1/2+x
95 -z,y,1/2+x
96 -z,-y,1/2-x
97 -x,-y,-z
98 x,y,-z
99 x,-y,z
100 -x,y,z
101 -z,-x,-y
102 -z,x,y
103 z,x,-y
104 z,-x,y
105 -y,-z,-x
106 y,-z,x
107 -y,z,x
108 y,z,-x
109 1/2-y,1/2-x,1/2+z
110 1/2+y,1/2+x,1/2+z
111 1/2-y,1/2+x,1/2-z
112 1/2+y,1/2-x,1/2-z
113 1/2-x,1/2-z,1/2+y
114 1/2+x,1/2-z,1/2-y
115 1/2+x,1/2+z,1/2+y
116 1/2-x,1/2+z,1/2-y
117 1/2-z,1/2-y,1/2+x
118 1/2-z,1/2+y,1/2-x
119 1/2+z,1/2-y,1/2-x
120 1/2+z,1/2+y,1/2+x
121 -x,1/2-y,1/2-z
122 x,1/2+y,1/2-z
123 x,1/2-y,1/2+z
124 -x,1/2+y,1/2+z
125 -z,1/2-x,1/2-y
126 -z,1/2+x,1/2+y
127 z,1/2+x,1/2-y
128 z,1/2-x,1/2+y
129 -y,1/2-z,1/2-x
130 y,1/2-z,1/2+x
131 -y,1/2+z,1/2+x
132 y,1/2+z,1/2-x
133 1/2-y,-x,z
134 1/2+y,x,z
135 1/2-y,x,-z
136 1/2+y,-x,-z
137 1/2-x,-z,y
138 1/2+x,-z,-y
139 1/2+x,z,y
140 1/2-x,z,-y
141 1/2-z,-y,x
142 1/2-z,y,-x
143 1/2+z,-y,-x
144 1/2+z,y,x
145 1/2-x,-y,1/2-z
146 1/2+x,y,1/2-z
147 1/2+x,-y,1/2+z
148 1/2-x,y,1/2+z
149 1/2-z,-x,1/2-y
150 1/2-z,x,1/2+y
151 1/2+z,x,1/2-y
152 1/2+z,-x,1/2+y
153 1/2-y,-z,1/2-x
154 1/2+y,-z,1/2+x
155 1/2-y,z,1/2+x
156 1/2+y,z,1/2-x
157 -y,1/2-x,z
158 y,1/2+x,z
159 -y,1/2+x,-z
160 y,1/2-x,-z
161 -x,1/2-z,y
162 x,1/2-z,-y
163 x,1/2+z,y
164 -x,1/2+z,-y
165 -z,1/2-y,x
166 -z,1/2+y,-x
167 z,1/2-y,-x
168 z,1/2+y,x
169 1/2-x,1/2-y,-z
170 1/2+x,1/2+y,-z
171 1/2+x,1/2-y,z
172 1/2-x,1/2+y,z
173 1/2-z,1/2-x,-y
174 1/2-z,1/2+x,y
175 1/2+z,1/2+x,-y
176 1/2+z,1/2-x,y
177 1/2-y,1/2-z,-x
178 1/2+y,1/2-z,x
179 1/2-y,1/2+z,x
180 1/2+y,1/2+z,-x
181 -y,-x,1/2+z
182 y,x,1/2+z
183 -y,x,1/2-z
184 y,-x,1/2-z
185 -x,-z,1/2+y
186 x,-z,1/2-y
187 x,z,1/2+y
188 -x,z,1/2-y
189 -z,-y,1/2+x
190 -z,y,1/2-x
191 z,-y,1/2-x
192 z,y,1/2+x
_cell_length_a                   50.983(6)
_cell_length_b                   50.983(6)
_cell_length_c                   50.983(6)
_cell_angle_alpha                90
_cell_angle_beta                 90
_cell_angle_gamma                90
_cell_volume                     132518
loop_
_atom_site_label
_atom_site_type_symbol
_atom_site_fract_x
_atom_site_fract_y
_atom_site_fract_z
Fe2 Fe 0.24017(3) 0.0000 0.20110(2)
O1 O 0.26408(10) 0.02850(10) 0.18449(10)
O2 O 0.30073(9) 0.03087(9) 0.21816(9)
O3 O 0.2719(3) 0.0000 0.2201(4)
C1 C 0.28751(12) 0.03763(10) 0.19458(9)
C2 C 0.31382(5) 0.07319(5) 0.19518(5)
H1 H 0.3209 0.0650 0.2103
C3 C 0.29194(5) 0.06242(5) 0.18294(5)
C4 C 0.28148(5) 0.07435(5) 0.16074(5)
H2 H 0.2666 0.0670 0.1524
C5 C 0.29289(5) 0.09706(5) 0.15078(5)
H3 H 0.2846 0.1064 0.1370
C6 C 0.31681(7) 0.10630(7) 0.16158(6)
C7 C 0.32535(4) 0.09587(4) 0.18531(4)
C8 C 0.34788(8) 0.10969(8) 0.19271(8)
C9 C 0.35384(8) 0.12751(8) 0.17278(9)
C10 C 0.33330(8) 0.12708(7) 0.15473(7)
C11 C 0.37209(13) 0.09482(9) 0.19495(11)
H4 H 0.3763 0.0869 0.1779
H5 H 0.3699 0.0810 0.2081
H6 H 0.3863 0.1065 0.2003
C12 C 0.35168(16) 0.1156(2) 0.22498(16)
H7 H 0.3375 0.1270 0.2311
H8 H 0.3686 0.1242 0.2280
H9 H 0.3511 0.0989 0.2346
Fe2ZB Fe 0.29890(2) 0.25983(3) 0.0000
Fe2EB Fe 0.5000 0.20110(2) 0.25983(3)
Fe2NC Fe 0.20110(2) 0.0000 0.25983(3)
Fe2JB Fe 0.0000 0.25983(3) 0.20110(2)
Fe2OA Fe 0.25983(3) 0.20110(2) 0.0000
Fe2AC Fe 0.29890(2) -0.25983(3) 0.0000
Fe2FB Fe 0.5000 -0.20110(2) 0.25983(3)
Fe2KB Fe 0.0000 -0.25983(3) 0.20110(2)
Fe2PA Fe 0.25983(3) -0.20110(2) 0.0000
Fe2TA Fe 0.29890(2) 0.0000 0.24017(3)
Fe2MA Fe 0.5000 0.24017(3) 0.20110(2)
Fe2H Fe 0.0000 0.20110(2) 0.24017(3)
Fe2D Fe 0.20110(2) 0.24017(3) 0.0000
Fe2LA Fe 0.5000 -0.24017(3) 0.20110(2)
Fe2K Fe 0.0000 -0.20110(2) 0.24017(3)
Fe2E Fe 0.20110(2) -0.24017(3) 0.0000
Fe2OB Fe 0.24017(3) 0.29890(2) 0.0000
Fe2W Fe 0.29890(2) 0.5000 0.25983(3)
Fe2UB Fe 0.25983(3) 0.5000 0.20110(2)
Fe2EC Fe 0.5000 0.29890(2) 0.24017(3)
Fe2DB Fe 0.5000 0.20110(2) -0.25983(3)
Fe2JA Fe 0.5000 0.24017(3) -0.20110(2)
Fe2C Fe 0.24017(3) 0.0000 -0.20110(2)
Fe2UA Fe 0.29890(2) 0.0000 -0.24017(3)
Fe2V Fe 0.29890(2) 0.5000 -0.25983(3)
Fe2VB Fe 0.25983(3) 0.5000 -0.20110(2)
Fe2DC Fe 0.5000 0.29890(2) -0.24017(3)
Fe2M Fe 0.5000 0.25983(3) 0.29890(2)
Fe2JC Fe 0.24017(3) 0.20110(2) 0.5000
Fe2CB Fe 0.29890(2) 0.24017(3) 0.5000
Fe2XA Fe 0.25983(3) 0.0000 0.29890(2)
Fe2HA Fe 0.0000 0.29890(2) 0.25983(3)
Fe2LB Fe 0.24017(3) -0.29890(2) 0.0000
O1ZB O 0.31551(10) 0.23592(10) 0.02850(10)
O1EB O 0.47150(10) 0.18449(10) 0.23592(10)
O1NC O 0.18449(10) 0.02850(10) 0.23592(10)
O1JB O 0.02850(10) 0.23592(10) 0.18449(10)
O1OA O 0.23592(10) 0.18449(10) 0.02850(10)
O1TC O 0.26408(10) -0.02850(10) 0.18449(10)
O1QF O 0.31551(10) -0.23592(10) 0.02850(10)
O1VE O 0.47150(10) -0.18449(10) 0.23592(10)
O1HG O 0.18449(10) -0.02850(10) 0.23592(10)
O1AF O 0.02850(10) -0.23592(10) 0.18449(10)
O1FE O 0.23592(10) -0.18449(10) 0.02850(10)
O1OB O 0.26408(10) 0.31551(10) 0.02850(10)
O1W O 0.31551(10) 0.47150(10) 0.23592(10)
O1MA O 0.47150(10) 0.26408(10) 0.18449(10)
O1PF O 0.31551(10) 0.23592(10) -0.02850(10)
O1XE O 0.47150(10) 0.18449(10) -0.23592(10)
O1SC O 0.26408(10) 0.02850(10) -0.18449(10)
O1EF O 0.26408(10) 0.31551(10) -0.02850(10)
O1LD O 0.31551(10) 0.47150(10) -0.23592(10)
O1DE O 0.47150(10) 0.26408(10) -0.18449(10)
O1M O 0.47150(10) 0.23592(10) 0.31551(10)
O1JC O 0.26408(10) 0.18449(10) 0.47150(10)
O1TA O 0.31551(10) 0.02850(10) 0.26408(10)
O1YE O 0.52850(10) 0.18449(10) 0.23592(10)
O1ZE O -0.02850(10) 0.23592(10) 0.18449(10)
O1IE O 0.23592(10) 0.18449(10) -0.02850(10)
O1AC O 0.31551(10) -0.23592(10) -0.02850(10)
O1FB O 0.52850(10) -0.18449(10) 0.23592(10)
O1KB O -0.02850(10) -0.23592(10) 0.18449(10)
O1PA O 0.23592(10) -0.18449(10) -0.02850(10)
O1JE O 0.31551(10) -0.02850(10) 0.26408(10)
O1CE O 0.52850(10) 0.26408(10) 0.18449(10)
O2ZB O 0.28184(9) 0.19927(9) 0.03087(9)
O2EB O 0.46913(9) 0.21816(9) 0.19927(9)
O2NC O 0.21816(9) 0.03087(9) 0.19927(9)
O2JB O 0.03087(9) 0.19927(9) 0.21816(9)
O2OA O 0.19927(9) 0.21816(9) 0.03087(9)
O2TC O 0.30073(9) -0.03087(9) 0.21816(9)
O2QF O 0.28184(9) -0.19927(9) 0.03087(9)
O2VE O 0.46913(9) -0.21816(9) 0.19927(9)
O2HG O 0.21816(9) -0.03087(9) 0.19927(9)
O2AF O 0.03087(9) -0.19927(9) 0.21816(9)
O2FE O 0.19927(9) -0.21816(9) 0.03087(9)
O2OB O 0.30073(9) 0.28184(9) 0.03087(9)
O2W O 0.28184(9) 0.46913(9) 0.19927(9)
O2MA O 0.46913(9) 0.30073(9) 0.21816(9)
O2PF O 0.28184(9) 0.19927(9) -0.03087(9)
O2XE O 0.46913(9) 0.21816(9) -0.19927(9)
O2SC O 0.30073(9) 0.03087(9) -0.21816(9)
O2EF O 0.30073(9) 0.28184(9) -0.03087(9)
O2LD O 0.28184(9) 0.46913(9) -0.19927(9)
O2DE O 0.46913(9) 0.30073(9) -0.21816(9)
O2M O 0.46913(9) 0.19927(9) 0.28184(9)
O2JC O 0.30073(9) 0.21816(9) 0.46913(9)
O2TA O 0.28184(9) 0.03087(9) 0.30073(9)
O2GD O 0.53087(9) 0.19927(9) 0.28184(9)
O2XA O 0.19927(9) 0.03087(9) 0.28184(9)
O2NE O 0.19927(9) -0.03087(9) 0.28184(9)
O2HA O 0.03087(9) 0.28184(9) 0.19927(9)
O2XD O -0.03087(9) 0.28184(9) 0.19927(9)
O2FF O 0.30073(9) -0.28184(9) 0.03087(9)
O2LB O 0.30073(9) -0.28184(9) -0.03087(9)
O2FD O 0.46913(9) -0.19927(9) 0.28184(9)
O2L O 0.53087(9) -0.19927(9) 0.28184(9)
O2AE O 0.03087(9) -0.28184(9) 0.19927(9)
O2GA O -0.03087(9) -0.28184(9) 0.19927(9)
O2AC O 0.28184(9) -0.19927(9) -0.03087(9)
O2YE O 0.53087(9) 0.21816(9) 0.19927(9)
O3NC O 0.2201(4) 0.0000 0.2281(3)
O3ZB O 0.2799(4) 0.2281(3) 0.0000
O3OB O 0.2719(3) 0.2799(4) 0.0000
O3EB O 0.5000 0.2201(4) 0.2281(3)
O3M O 0.5000 0.2281(3) 0.2799(4)
O3XA O 0.2281(3) 0.0000 0.2799(4)
O3JB O 0.0000 0.2281(3) 0.2201(4)
O3HA O 0.0000 0.2799(4) 0.2281(3)
O3OA O 0.2281(3) 0.2201(4) 0.0000
O3AC O 0.2799(4) -0.2281(3) 0.0000
O3LB O 0.2719(3) -0.2799(4) 0.0000
O3FB O 0.5000 -0.2201(4) 0.2281(3)
O3L O 0.5000 -0.2281(3) 0.2799(4)
O3KB O 0.0000 -0.2281(3) 0.2201(4)
O3GA O 0.0000 -0.2799(4) 0.2281(3)
O3PA O 0.2281(3) -0.2201(4) 0.0000
O3TA O 0.2799(4) 0.0000 0.2719(3)
O3MA O 0.5000 0.2719(3) 0.2201(4)
C1ZB C 0.30542(9) 0.21249(12) 0.03763(10)
C1EB C 0.46237(10) 0.19458(9) 0.21249(12)
C1NC C 0.19458(9) 0.03763(10) 0.21249(12)
C1JB C 0.03763(10) 0.21249(12) 0.19458(9)
C1OA C 0.21249(12) 0.19458(9) 0.03763(10)
C1TC C 0.28751(12) -0.03763(10) 0.19458(9)
C1QF C 0.30542(9) -0.21249(12) 0.03763(10)
C1VE C 0.46237(10) -0.19458(9) 0.21249(12)
C1HG C 0.19458(9) -0.03763(10) 0.21249(12)
C1AF C 0.03763(10) -0.21249(12) 0.19458(9)
C1FE C 0.21249(12) -0.19458(9) 0.03763(10)
C1OB C 0.28751(12) 0.30542(9) 0.03763(10)
C1W C 0.30542(9) 0.46237(10) 0.21249(12)
C1MA C 0.46237(10) 0.28751(12) 0.19458(9)
C1PF C 0.30542(9) 0.21249(12) -0.03763(10)
C1XE C 0.46237(10) 0.19458(9) -0.21249(12)
C1SC C 0.28751(12) 0.03763(10) -0.19458(9)
C1EF C 0.28751(12) 0.30542(9) -0.03763(10)
C1LD C 0.30542(9) 0.46237(10) -0.21249(12)
C1DE C 0.46237(10) 0.28751(12) -0.19458(9)
C1M C 0.46237(10) 0.21249(12) 0.30542(9)
C1JC C 0.28751(12) 0.19458(9) 0.46237(10)
C1TA C 0.30542(9) 0.03763(10) 0.28751(12)
C2ZB C 0.30482(5) 0.18618(5) 0.07319(5)
C2EB C 0.42681(5) 0.19518(5) 0.18618(5)
C2NC C 0.19518(5) 0.07319(5) 0.18618(5)
C2JB C 0.07319(5) 0.18618(5) 0.19518(5)
C2OA C 0.18618(5) 0.19518(5) 0.07319(5)
C2TC C 0.31382(5) -0.07319(5) 0.19518(5)
C2QF C 0.30482(5) -0.18618(5) 0.07319(5)
C2VE C 0.42681(5) -0.19518(5) 0.18618(5)
C2HG C 0.19518(5) -0.07319(5) 0.18618(5)
C2AF C 0.07319(5) -0.18618(5) 0.19518(5)
C2FE C 0.18618(5) -0.19518(5) 0.07319(5)
C2OB C 0.31382(5) 0.30482(5) 0.07319(5)
C2W C 0.30482(5) 0.42681(5) 0.18618(5)
C2MA C 0.42681(5) 0.31382(5) 0.19518(5)
C2PF C 0.30482(5) 0.18618(5) -0.07319(5)
C2XE C 0.42681(5) 0.19518(5) -0.18618(5)
C2SC C 0.31382(5) 0.07319(5) -0.19518(5)
C2EF C 0.31382(5) 0.30482(5) -0.07319(5)
C2LD C 0.30482(5) 0.42681(5) -0.18618(5)
C2DE C 0.42681(5) 0.31382(5) -0.19518(5)
C2M C 0.42681(5) 0.18618(5) 0.30482(5)
C2JC C 0.31382(5) 0.19518(5) 0.42681(5)
C2TA C 0.30482(5) 0.07319(5) 0.31382(5)
H1ZB H 0.2897 0.1791 0.0650
H1EB H 0.4350 0.2103 0.1791
H1NC H 0.2103 0.0650 0.1791
H1JB H 0.0650 0.1791 0.2103
H1OA H 0.1791 0.2103 0.0650
H1TC H 0.3209 -0.0650 0.2103
H1QF H 0.2897 -0.1791 0.0650
H1VE H 0.4350 -0.2103 0.1791
H1HG H 0.2103 -0.0650 0.1791
H1AF H 0.0650 -0.1791 0.2103
H1FE H 0.1791 -0.2103 0.0650
H1OB H 0.3209 0.2897 0.0650
H1W H 0.2897 0.4350 0.1791
H1MA H 0.4350 0.3209 0.2103
H1PF H 0.2897 0.1791 -0.0650
H1XE H 0.4350 0.2103 -0.1791
H1SC H 0.3209 0.0650 -0.2103
H1EF H 0.3209 0.2897 -0.0650
H1LD H 0.2897 0.4350 -0.1791
H1DE H 0.4350 0.3209 -0.2103
H1M H 0.4350 0.1791 0.2897
H1JC H 0.3209 0.2103 0.4350
H1TA H 0.2897 0.0650 0.3209
C3ZB C 0.31706(5) 0.20806(5) 0.06242(5)
C3EB C 0.43758(5) 0.18294(5) 0.20806(5)
C3NC C 0.18294(5) 0.06242(5) 0.20806(5)
C3JB C 0.06242(5) 0.20806(5) 0.18294(5)
C3OA C 0.20806(5) 0.18294(5) 0.06242(5)
C3TC C 0.29194(5) -0.06242(5) 0.18294(5)
C3QF C 0.31706(5) -0.20806(5) 0.06242(5)
C3VE C 0.43758(5) -0.18294(5) 0.20806(5)
C3HG C 0.18294(5) -0.06242(5) 0.20806(5)
C3AF C 0.06242(5) -0.20806(5) 0.18294(5)
C3FE C 0.20806(5) -0.18294(5) 0.06242(5)
C3OB C 0.29194(5) 0.31706(5) 0.06242(5)
C3W C 0.31706(5) 0.43758(5) 0.20806(5)
C3MA C 0.43758(5) 0.29194(5) 0.18294(5)
C3PF C 0.31706(5) 0.20806(5) -0.06242(5)
C3XE C 0.43758(5) 0.18294(5) -0.20806(5)
C3SC C 0.29194(5) 0.06242(5) -0.18294(5)
C3EF C 0.29194(5) 0.31706(5) -0.06242(5)
C3LD C 0.31706(5) 0.43758(5) -0.20806(5)
C3DE C 0.43758(5) 0.29194(5) -0.18294(5)
C3M C 0.43758(5) 0.20806(5) 0.31706(5)
C3JC C 0.29194(5) 0.18294(5) 0.43758(5)
C3TA C 0.31706(5) 0.06242(5) 0.29194(5)
C4ZB C 0.33926(5) 0.21852(5) 0.07435(5)
C4EB C 0.42565(5) 0.16074(5) 0.21852(5)
C4NC C 0.16074(5) 0.07435(5) 0.21852(5)
C4JB C 0.07435(5) 0.21852(5) 0.16074(5)
C4OA C 0.21852(5) 0.16074(5) 0.07435(5)
C4TC C 0.28148(5) -0.07435(5) 0.16074(5)
C4QF C 0.33926(5) -0.21852(5) 0.07435(5)
C4VE C 0.42565(5) -0.16074(5) 0.21852(5)
C4HG C 0.16074(5) -0.07435(5) 0.21852(5)
C4AF C 0.07435(5) -0.21852(5) 0.16074(5)
C4FE C 0.21852(5) -0.16074(5) 0.07435(5)
C4OB C 0.28148(5) 0.33926(5) 0.07435(5)
C4W C 0.33926(5) 0.42565(5) 0.21852(5)
C4MA C 0.42565(5) 0.28148(5) 0.16074(5)
C4PF C 0.33926(5) 0.21852(5) -0.07435(5)
C4XE C 0.42565(5) 0.16074(5) -0.21852(5)
C4SC C 0.28148(5) 0.07435(5) -0.16074(5)
C4EF C 0.28148(5) 0.33926(5) -0.07435(5)
C4LD C 0.33926(5) 0.42565(5) -0.21852(5)
C4DE C 0.42565(5) 0.28148(5) -0.16074(5)
C4M C 0.42565(5) 0.21852(5) 0.33926(5)
C4JC C 0.28148(5) 0.16074(5) 0.42565(5)
C4TA C 0.33926(5) 0.07435(5) 0.28148(5)
H2ZB H 0.3476 0.2334 0.0670
H2EB H 0.4330 0.1524 0.2334
H2NC H 0.1524 0.0670 0.2334
H2JB H 0.0670 0.2334 0.1524
H2OA H 0.2334 0.1524 0.0670
H2TC H 0.2666 -0.0670 0.1524
H2QF H 0.3476 -0.2334 0.0670
H2VE H 0.4330 -0.1524 0.2334
H2HG H 0.1524 -0.0670 0.2334
H2AF H 0.0670 -0.2334 0.1524
H2FE H 0.2334 -0.1524 0.0670
H2OB H 0.2666 0.3476 0.0670
H2W H 0.3476 0.4330 0.2334
H2MA H 0.4330 0.2666 0.1524
H2PF H 0.3476 0.2334 -0.0670
H2XE H 0.4330 0.1524 -0.2334
H2SC H 0.2666 0.0670 -0.1524
H2EF H 0.2666 0.3476 -0.0670
H2LD H 0.3476 0.4330 -0.2334
H2DE H 0.4330 0.2666 -0.1524
H2M H 0.4330 0.2334 0.3476
H2JC H 0.2666 0.1524 0.4330
H2TA H 0.3476 0.0670 0.2666
C5ZB C 0.34922(5) 0.20711(5) 0.09706(5)
C5EB C 0.40294(5) 0.15078(5) 0.20711(5)
C5NC C 0.15078(5) 0.09706(5) 0.20711(5)
C5JB C 0.09706(5) 0.20711(5) 0.15078(5)
C5OA C 0.20711(5) 0.15078(5) 0.09706(5)
C5TC C 0.29289(5) -0.09706(5) 0.15078(5)
C5QF C 0.34922(5) -0.20711(5) 0.09706(5)
C5VE C 0.40294(5) -0.15078(5) 0.20711(5)
C5HG C 0.15078(5) -0.09706(5) 0.20711(5)
C5AF C 0.09706(5) -0.20711(5) 0.15078(5)
C5FE C 0.20711(5) -0.15078(5) 0.09706(5)
C5OB C 0.29289(5) 0.34922(5) 0.09706(5)
C5W C 0.34922(5) 0.40294(5) 0.20711(5)
C5MA C 0.40294(5) 0.29289(5) 0.15078(5)
C5PF C 0.34922(5) 0.20711(5) -0.09706(5)
C5XE C 0.40294(5) 0.15078(5) -0.20711(5)
C5SC C 0.29289(5) 0.09706(5) -0.15078(5)
C5EF C 0.29289(5) 0.34922(5) -0.09706(5)
C5LD C 0.34922(5) 0.40294(5) -0.20711(5)
C5DE C 0.40294(5) 0.29289(5) -0.15078(5)
C5M C 0.40294(5) 0.20711(5) 0.34922(5)
C5JC C 0.29289(5) 0.15078(5) 0.40294(5)
C5TA C 0.34922(5) 0.09706(5) 0.29289(5)
H3ZB H 0.3630 0.2154 0.1064
H3EB H 0.3936 0.1370 0.2154
H3NC H 0.1370 0.1064 0.2154
H3JB H 0.1064 0.2154 0.1370
H3OA H 0.2154 0.1370 0.1064
H3TC H 0.2846 -0.1064 0.1370
H3QF H 0.3630 -0.2154 0.1064
H3VE H 0.3936 -0.1370 0.2154
H3HG H 0.1370 -0.1064 0.2154
H3AF H 0.1064 -0.2154 0.1370
H3FE H 0.2154 -0.1370 0.1064
H3OB H 0.2846 0.3630 0.1064
H3W H 0.3630 0.3936 0.2154
H3MA H 0.3936 0.2846 0.1370
H3PF H 0.3630 0.2154 -0.1064
H3XE H 0.3936 0.1370 -0.2154
H3SC H 0.2846 0.1064 -0.1370
H3EF H 0.2846 0.3630 -0.1064
H3LD H 0.3630 0.3936 -0.2154
H3DE H 0.3936 0.2846 -0.1370
H3M H 0.3936 0.2154 0.3630
H3JC H 0.2846 0.1370 0.3936
H3TA H 0.3630 0.1064 0.2846
C6ZB C 0.33842(6) 0.18319(7) 0.10630(7)
C6EB C 0.39370(7) 0.16158(6) 0.18319(7)
C6NC C 0.16158(6) 0.10630(7) 0.18319(7)
C6JB C 0.10630(7) 0.18319(7) 0.16158(6)
C6OA C 0.18319(7) 0.16158(6) 0.10630(7)
C6TC C 0.31681(7) -0.10630(7) 0.16158(6)
C6QF C 0.33842(6) -0.18319(7) 0.10630(7)
C6VE C 0.39370(7) -0.16158(6) 0.18319(7)
C6HG C 0.16158(6) -0.10630(7) 0.18319(7)
C6AF C 0.10630(7) -0.18319(7) 0.16158(6)
C6FE C 0.18319(7) -0.16158(6) 0.10630(7)
C6OB C 0.31681(7) 0.33842(6) 0.10630(7)
C6W C 0.33842(6) 0.39370(7) 0.18319(7)
C6MA C 0.39370(7) 0.31681(7) 0.16158(6)
C6PF C 0.33842(6) 0.18319(7) -0.10630(7)
C6XE C 0.39370(7) 0.16158(6) -0.18319(7)
C6SC C 0.31681(7) 0.10630(7) -0.16158(6)
C6EF C 0.31681(7) 0.33842(6) -0.10630(7)
C6LD C 0.33842(6) 0.39370(7) -0.18319(7)
C6DE C 0.39370(7) 0.31681(7) -0.16158(6)
C6M C 0.39370(7) 0.18319(7) 0.33842(6)
C6JC C 0.31681(7) 0.16158(6) 0.39370(7)
C6TA C 0.33842(6) 0.10630(7) 0.31681(7)
C7ZB C 0.31469(4) 0.17465(4) 0.09587(4)
C7EB C 0.40413(4) 0.18531(4) 0.17465(4)
C7NC C 0.18531(4) 0.09587(4) 0.17465(4)
C7JB C 0.09587(4) 0.17465(4) 0.18531(4)
C7OA C 0.17465(4) 0.18531(4) 0.09587(4)
C7TC C 0.32535(4) -0.09587(4) 0.18531(4)
C7QF C 0.31469(4) -0.17465(4) 0.09587(4)
C7VE C 0.40413(4) -0.18531(4) 0.17465(4)
C7HG C 0.18531(4) -0.09587(4) 0.17465(4)
C7AF C 0.09587(4) -0.17465(4) 0.18531(4)
C7FE C 0.17465(4) -0.18531(4) 0.09587(4)
C7OB C 0.32535(4) 0.31469(4) 0.09587(4)
C7W C 0.31469(4) 0.40413(4) 0.17465(4)
C7MA C 0.40413(4) 0.32535(4) 0.18531(4)
C7PF C 0.31469(4) 0.17465(4) -0.09587(4)
C7XE C 0.40413(4) 0.18531(4) -0.17465(4)
C7SC C 0.32535(4) 0.09587(4) -0.18531(4)
C7EF C 0.32535(4) 0.31469(4) -0.09587(4)
C7LD C 0.31469(4) 0.40413(4) -0.17465(4)
C7DE C 0.40413(4) 0.32535(4) -0.18531(4)
C7M C 0.40413(4) 0.17465(4) 0.31469(4)
C7JC C 0.32535(4) 0.18531(4) 0.40413(4)
C7TA C 0.31469(4) 0.09587(4) 0.32535(4)
C8ZB C 0.30729(8) 0.15212(8) 0.10969(8)
C8EB C 0.39031(8) 0.19271(8) 0.15212(8)
C8NC C 0.19271(8) 0.10969(8) 0.15212(8)
C8JB C 0.10969(8) 0.15212(8) 0.19271(8)
C8OA C 0.15212(8) 0.19271(8) 0.10969(8)
C8TC C 0.34788(8) -0.10969(8) 0.19271(8)
C8QF C 0.30729(8) -0.15212(8) 0.10969(8)
C8VE C 0.39031(8) -0.19271(8) 0.15212(8)
C8HG C 0.19271(8) -0.10969(8) 0.15212(8)
C8AF C 0.10969(8) -0.15212(8) 0.19271(8)
C8FE C 0.15212(8) -0.19271(8) 0.10969(8)
C8OB C 0.34788(8) 0.30729(8) 0.10969(8)
C8W C 0.30729(8) 0.39031(8) 0.15212(8)
C8MA C 0.39031(8) 0.34788(8) 0.19271(8)
C8PF C 0.30729(8) 0.15212(8) -0.10969(8)
C8XE C 0.39031(8) 0.19271(8) -0.15212(8)
C8SC C 0.34788(8) 0.10969(8) -0.19271(8)
C8EF C 0.34788(8) 0.30729(8) -0.10969(8)
C8LD C 0.30729(8) 0.39031(8) -0.15212(8)
C8DE C 0.39031(8) 0.34788(8) -0.19271(8)
C8M C 0.39031(8) 0.15212(8) 0.30729(8)
C8JC C 0.34788(8) 0.19271(8) 0.39031(8)
C8TA C 0.30729(8) 0.10969(8) 0.34788(8)
C9ZB C 0.32722(9) 0.14616(8) 0.12751(8)
C9EB C 0.37249(8) 0.17278(9) 0.14616(8)
C9NC C 0.17278(9) 0.12751(8) 0.14616(8)
C9JB C 0.12751(8) 0.14616(8) 0.17278(9)
C9OA C 0.14616(8) 0.17278(9) 0.12751(8)
C9TC C 0.35384(8) -0.12751(8) 0.17278(9)
C9QF C 0.32722(9) -0.14616(8) 0.12751(8)
C9VE C 0.37249(8) -0.17278(9) 0.14616(8)
C9HG C 0.17278(9) -0.12751(8) 0.14616(8)
C9AF C 0.12751(8) -0.14616(8) 0.17278(9)
C9FE C 0.14616(8) -0.17278(9) 0.12751(8)
C9OB C 0.35384(8) 0.32722(9) 0.12751(8)
C9W C 0.32722(9) 0.37249(8) 0.14616(8)
C9MA C 0.37249(8) 0.35384(8) 0.17278(9)
C9PF C 0.32722(9) 0.14616(8) -0.12751(8)
C9XE C 0.37249(8) 0.17278(9) -0.14616(8)
C9SC C 0.35384(8) 0.12751(8) -0.17278(9)
C9EF C 0.35384(8) 0.32722(9) -0.12751(8)
C9LD C 0.32722(9) 0.37249(8) -0.14616(8)
C9DE C 0.37249(8) 0.35384(8) -0.17278(9)
C9M C 0.37249(8) 0.14616(8) 0.32722(9)
C9JC C 0.35384(8) 0.17278(9) 0.37249(8)
C9TA C 0.32722(9) 0.12751(8) 0.35384(8)
C10ZB C 0.34527(7) 0.16670(8) 0.12708(7)
C10EB C 0.37292(7) 0.15473(7) 0.16670(8)
C10NC C 0.15473(7) 0.12708(7) 0.16670(8)
C10JB C 0.12708(7) 0.16670(8) 0.15473(7)
C10OA C 0.16670(8) 0.15473(7) 0.12708(7)
C10TC C 0.33330(8) -0.12708(7) 0.15473(7)
C10QF C 0.34527(7) -0.16670(8) 0.12708(7)
C10VE C 0.37292(7) -0.15473(7) 0.16670(8)
C10HG C 0.15473(7) -0.12708(7) 0.16670(8)
C10AF C 0.12708(7) -0.16670(8) 0.15473(7)
C10FE C 0.16670(8) -0.15473(7) 0.12708(7)
C10OB C 0.33330(8) 0.34527(7) 0.12708(7)
C10W C 0.34527(7) 0.37292(7) 0.16670(8)
C10MA C 0.37292(7) 0.33330(8) 0.15473(7)
C10PF C 0.34527(7) 0.16670(8) -0.12708(7)
C10XE C 0.37292(7) 0.15473(7) -0.16670(8)
C10SC C 0.33330(8) 0.12708(7) -0.15473(7)
C10EF C 0.33330(8) 0.34527(7) -0.12708(7)
C10LD C 0.34527(7) 0.37292(7) -0.16670(8)
C10DE C 0.37292(7) 0.33330(8) -0.15473(7)
C10M C 0.37292(7) 0.16670(8) 0.34527(7)
C10JC C 0.33330(8) 0.15473(7) 0.37292(7)
C10TA C 0.34527(7) 0.12708(7) 0.33330(8)
C11EB C 0.40518(9) 0.19495(11) 0.12791(13)
C11ZB C 0.30505(11) 0.12791(13) 0.09482(9)
C11NC C 0.19495(11) 0.09482(9) 0.12791(13)
C11OA C 0.12791(13) 0.19495(11) 0.09482(9)
C11JB C 0.09482(9) 0.12791(13) 0.19495(11)
C11TC C 0.37209(13) -0.09482(9) 0.19495(11)
C11VE C 0.40518(9) -0.19495(11) 0.12791(13)
C11QF C 0.30505(11) -0.12791(13) 0.09482(9)
C11HG C 0.19495(11) -0.09482(9) 0.12791(13)
C11FE C 0.12791(13) -0.19495(11) 0.09482(9)
C11AF C 0.09482(9) -0.12791(13) 0.19495(11)
C11OB C 0.37209(13) 0.30505(11) 0.09482(9)
C11MA C 0.40518(9) 0.37209(13) 0.19495(11)
C11W C 0.30505(11) 0.40518(9) 0.12791(13)
C11PF C 0.30505(11) 0.12791(13) -0.09482(9)
C11SC C 0.37209(13) 0.09482(9) -0.19495(11)
C11XE C 0.40518(9) 0.19495(11) -0.12791(13)
C11EF C 0.37209(13) 0.30505(11) -0.09482(9)
C11DE C 0.40518(9) 0.37209(13) -0.19495(11)
C11LD C 0.30505(11) 0.40518(9) -0.12791(13)
C11M C 0.40518(9) 0.12791(13) 0.30505(11)
C11TA C 0.30505(11) 0.09482(9) 0.37209(13)
C11JC C 0.37209(13) 0.19495(11) 0.40518(9)
H4EB H 0.4131 0.1779 0.1237
H4ZB H 0.3221 0.1237 0.0869
H4NC H 0.1779 0.0869 0.1237
H4OA H 0.1237 0.1779 0.0869
H4JB H 0.0869 0.1237 0.1779
H4TC H 0.3763 -0.0869 0.1779
H4VE H 0.4131 -0.1779 0.1237
H4QF H 0.3221 -0.1237 0.0869
H4HG H 0.1779 -0.0869 0.1237
H4FE H 0.1237 -0.1779 0.0869
H4AF H 0.0869 -0.1237 0.1779
H4OB H 0.3763 0.3221 0.0869
H4MA H 0.4131 0.3763 0.1779
H4W H 0.3221 0.4131 0.1237
H4PF H 0.3221 0.1237 -0.0869
H4SC H 0.3763 0.0869 -0.1779
H4XE H 0.4131 0.1779 -0.1237
H4EF H 0.3763 0.3221 -0.0869
H4DE H 0.4131 0.3763 -0.1779
H4LD H 0.3221 0.4131 -0.1237
H4M H 0.4131 0.1237 0.3221
H4TA H 0.3221 0.0869 0.3763
H4JC H 0.3763 0.1779 0.4131
H5EB H 0.4190 0.2081 0.1301
H5ZB H 0.2919 0.1301 0.0810
H5NC H 0.2081 0.0810 0.1301
H5OA H 0.1301 0.2081 0.0810
H5JB H 0.0810 0.1301 0.2081
H5TC H 0.3699 -0.0810 0.2081
H5VE H 0.4190 -0.2081 0.1301
H5QF H 0.2919 -0.1301 0.0810
H5HG H 0.2081 -0.0810 0.1301
H5FE H 0.1301 -0.2081 0.0810
H5AF H 0.0810 -0.1301 0.2081
H5OB H 0.3699 0.2919 0.0810
H5MA H 0.4190 0.3699 0.2081
H5W H 0.2919 0.4190 0.1301
H5PF H 0.2919 0.1301 -0.0810
H5SC H 0.3699 0.0810 -0.2081
H5XE H 0.4190 0.2081 -0.1301
H5EF H 0.3699 0.2919 -0.0810
H5DE H 0.4190 0.3699 -0.2081
H5LD H 0.2919 0.4190 -0.1301
H5M H 0.4190 0.1301 0.2919
H5TA H 0.2919 0.0810 0.3699
H5JC H 0.3699 0.2081 0.4190
H6EB H 0.3935 0.2003 0.1137
H6ZB H 0.2997 0.1137 0.1065
H6NC H 0.2003 0.1065 0.1137
H6OA H 0.1137 0.2003 0.1065
H6JB H 0.1065 0.1137 0.2003
H6TC H 0.3863 -0.1065 0.2003
H6VE H 0.3935 -0.2003 0.1137
H6QF H 0.2997 -0.1137 0.1065
H6HG H 0.2003 -0.1065 0.1137
H6FE H 0.1137 -0.2003 0.1065
H6AF H 0.1065 -0.1137 0.2003
H6OB H 0.3863 0.2997 0.1065
H6MA H 0.3935 0.3863 0.2003
H6W H 0.2997 0.3935 0.1137
H6PF H 0.2997 0.1137 -0.1065
H6SC H 0.3863 0.1065 -0.2003
H6XE H 0.3935 0.2003 -0.1137
H6EF H 0.3863 0.2997 -0.1065
H6DE H 0.3935 0.3863 -0.2003
H6LD H 0.2997 0.3935 -0.1137
H6M H 0.3935 0.1137 0.2997
H6TA H 0.2997 0.1065 0.3863
H6JC H 0.3863 0.2003 0.3935
C12EB C 0.3844(2) 0.22498(16) 0.14832(16)
C12ZB C 0.27502(16) 0.14832(16) 0.1156(2)
C12NC C 0.22498(16) 0.1156(2) 0.14832(16)
C12OA C 0.14832(16) 0.22498(16) 0.1156(2)
C12JB C 0.1156(2) 0.14832(16) 0.22498(16)
C12TC C 0.35168(16) -0.1156(2) 0.22498(16)
C12VE C 0.3844(2) -0.22498(16) 0.14832(16)
C12QF C 0.27502(16) -0.14832(16) 0.1156(2)
C12HG C 0.22498(16) -0.1156(2) 0.14832(16)
C12FE C 0.14832(16) -0.22498(16) 0.1156(2)
C12AF C 0.1156(2) -0.14832(16) 0.22498(16)
C12OB C 0.35168(16) 0.27502(16) 0.1156(2)
C12MA C 0.3844(2) 0.35168(16) 0.22498(16)
C12W C 0.27502(16) 0.3844(2) 0.14832(16)
C12PF C 0.27502(16) 0.14832(16) -0.1156(2)
C12SC C 0.35168(16) 0.1156(2) -0.22498(16)
C12XE C 0.3844(2) 0.22498(16) -0.14832(16)
C12EF C 0.35168(16) 0.27502(16) -0.1156(2)
C12DE C 0.3844(2) 0.35168(16) -0.22498(16)
C12LD C 0.27502(16) 0.3844(2) -0.14832(16)
C12M C 0.3844(2) 0.14832(16) 0.27502(16)
C12TA C 0.27502(16) 0.1156(2) 0.35168(16)
C12JC C 0.35168(16) 0.22498(16) 0.3844(2)
H7EB H 0.3730 0.2311 0.1625
H7ZB H 0.2689 0.1625 0.1270
H7NC H 0.2311 0.1270 0.1625
H7OA H 0.1625 0.2311 0.1270
H7JB H 0.1270 0.1625 0.2311
H7TC H 0.3375 -0.1270 0.2311
H7VE H 0.3730 -0.2311 0.1625
H7QF H 0.2689 -0.1625 0.1270
H7HG H 0.2311 -0.1270 0.1625
H7FE H 0.1625 -0.2311 0.1270
H7AF H 0.1270 -0.1625 0.2311
H7OB H 0.3375 0.2689 0.1270
H7MA H 0.3730 0.3375 0.2311
H7W H 0.2689 0.3730 0.1625
H7PF H 0.2689 0.1625 -0.1270
H7SC H 0.3375 0.1270 -0.2311
H7XE H 0.3730 0.2311 -0.1625
H7EF H 0.3375 0.2689 -0.1270
H7DE H 0.3730 0.3375 -0.2311
H7LD H 0.2689 0.3730 -0.1625
H7M H 0.3730 0.1625 0.2689
H7TA H 0.2689 0.1270 0.3375
H7JC H 0.3375 0.2311 0.3730
H8EB H 0.3758 0.2280 0.1314
H8ZB H 0.2720 0.1314 0.1242
H8NC H 0.2280 0.1242 0.1314
H8OA H 0.1314 0.2280 0.1242
H8JB H 0.1242 0.1314 0.2280
H8TC H 0.3686 -0.1242 0.2280
H8VE H 0.3758 -0.2280 0.1314
H8QF H 0.2720 -0.1314 0.1242
H8HG H 0.2280 -0.1242 0.1314
H8FE H 0.1314 -0.2280 0.1242
H8AF H 0.1242 -0.1314 0.2280
H8OB H 0.3686 0.2720 0.1242
H8MA H 0.3758 0.3686 0.2280
H8W H 0.2720 0.3758 0.1314
H8PF H 0.2720 0.1314 -0.1242
H8SC H 0.3686 0.1242 -0.2280
H8XE H 0.3758 0.2280 -0.1314
H8EF H 0.3686 0.2720 -0.1242
H8DE H 0.3758 0.3686 -0.2280
H8LD H 0.2720 0.3758 -0.1314
H8M H 0.3758 0.1314 0.2720
H8TA H 0.2720 0.1242 0.3686
H8JC H 0.3686 0.2280 0.3758
H9EB H 0.4011 0.2346 0.1489
H9ZB H 0.2654 0.1489 0.0989
H9NC H 0.2346 0.0989 0.1489
H9OA H 0.1489 0.2346 0.0989
H9JB H 0.0989 0.1489 0.2346
H9TC H 0.3511 -0.0989 0.2346
H9VE H 0.4011 -0.2346 0.1489
H9QF H 0.2654 -0.1489 0.0989
H9HG H 0.2346 -0.0989 0.1489
H9FE H 0.1489 -0.2346 0.0989
H9AF H 0.0989 -0.1489 0.2346
H9OB H 0.3511 0.2654 0.0989
H9MA H 0.4011 0.3511 0.2346
H9W H 0.2654 0.4011 0.1489
H9PF H 0.2654 0.1489 -0.0989
H9SC H 0.3511 0.0989 -0.2346
H9XE H 0.4011 0.2346 -0.1489
H9EF H 0.3511 0.2654 -0.0989
H9DE H 0.4011 0.3511 -0.2346
H9LD H 0.2654 0.4011 -0.1489
H9M H 0.4011 0.1489 0.2654
H9TA H 0.2654 0.0989 0.3511
H9JC H 0.3511 0.2346 0.4011
Fe1 Fe 0.2500 0.2500 0.2500
O4? O 0.2500 0.0000 0.2500
loop_
_geom_bond_atom_site_label_1
_geom_bond_atom_site_label_2
_geom_bond_site_symmetry_1
_geom_bond_site_symmetry_2
Fe2 O1 1_555 1_555
O1 C1 1_555 1_555
O2 C1 1_555 1_555
O3 Fe2 1_555 1_555
C1 C3 1_555 1_555
C2 H1 1_555 1_555
C3 C2 1_555 1_555
C4 C3 1_555 1_555
H2 C4 1_555 1_555
C5 C4 1_555 1_555
H3 C5 1_555 1_555
C6 C5 1_555 1_555
C7 C2 1_555 1_555
C8 C7 1_555 1_555
C9 C8 1_555 1_555
C10 C6 1_555 1_555
C11 C8 1_555 1_555
H4 C11 1_555 1_555
H5 C11 1_555 1_555
H6 C11 1_555 1_555
C12 C8 1_555 1_555
H7 C12 1_555 1_555
H8 C12 1_555 1_555
H9 C12 1_555 1_555
Fe2ZB O1ZB 1_555 1_555
Fe2EB O1EB 1_555 1_555
Fe2NC O1NC 1_555 1_555
Fe2JB O1JB 1_555 1_555
Fe2OA O1OA 1_555 1_555
Fe2AC O1QF 1_555 1_555
Fe2FB O1VE 1_555 1_555
Fe2KB O1AF 1_555 1_555
Fe2PA O1FE 1_555 1_555
Fe2TA O2 1_555 1_555
Fe2MA O1MA 1_555 1_555
Fe2H O2JB 1_555 1_555
Fe2D O2OA 1_555 1_555
Fe2LA O2VE 1_555 1_555
Fe2K O2AF 1_555 1_555
Fe2E O2FE 1_555 1_555
Fe2OB O1OB 1_555 1_555
Fe2W O1W 1_555 1_555
Fe2UB O2W 1_555 1_555
Fe2EC O2MA 1_555 1_555
Fe2DB O1XE 1_555 1_555
Fe2JA O1DE 1_555 1_555
Fe2C O1SC 1_555 1_555
Fe2UA O2SC 1_555 1_555
Fe2V O1LD 1_555 1_555
Fe2VB O2LD 1_555 1_555
Fe2DC O2DE 1_555 1_555
Fe2M O1M 1_555 1_555
Fe2JC O1JC 1_555 1_555
Fe2CB O2JC 1_555 1_555
Fe2XA O2TA 1_555 1_555
Fe2HA O3HA 1_555 1_555
Fe2LB O3LB 1_555 1_555
O1ZB C1ZB 1_555 1_555
O1EB C1EB 1_555 1_555
O1NC C1NC 1_555 1_555
O1JB C1JB 1_555 1_555
O1OA C1OA 1_555 1_555
O1TC Fe2 1_555 1_555
O1QF C1QF 1_555 1_555
O1VE C1VE 1_555 1_555
O1HG Fe2NC 1_555 1_555
O1AF C1AF 1_555 1_555
O1FE C1FE 1_555 1_555
O1OB C1OB 1_555 1_555
O1W C1W 1_555 1_555
O1MA C1MA 1_555 1_555
O1PF Fe2ZB 1_555 1_555
O1XE C1XE 1_555 1_555
O1SC C1SC 1_555 1_555
O1EF Fe2OB 1_555 1_555
O1LD C1LD 1_555 1_555
O1DE C1DE 1_555 1_555
O1M C1M 1_555 1_555
O1JC C1JC 1_555 1_555
O1TA Fe2TA 1_555 1_555
O1YE Fe2EB 1_555 1_555
O1ZE Fe2JB 1_555 1_555
O1IE Fe2OA 1_555 1_555
O1AC Fe2AC 1_555 1_555
O1FB Fe2FB 1_555 1_555
O1KB Fe2KB 1_555 1_555
O1PA Fe2PA 1_555 1_555
O1JE Fe2TA 1_555 1_555
O1CE Fe2MA 1_555 1_555
O2ZB Fe2OA 1_555 1_555
O2EB Fe2MA 1_555 1_555
O2NC Fe2 1_555 1_555
O2JB C1JB 1_555 1_555
O2OA C1OA 1_555 1_555
O2TC Fe2TA 1_555 1_555
O2QF Fe2PA 1_555 1_555
O2VE C1VE 1_555 1_555
O2HG Fe2 1_555 1_555
O2AF C1AF 1_555 1_555
O2FE C1FE 1_555 1_555
O2OB Fe2ZB 1_555 1_555
O2W C1W 1_555 1_555
O2MA C1MA 1_555 1_555
O2PF Fe2OA 1_555 1_555
O2XE Fe2JA 1_555 1_555
O2SC C1SC 1_555 1_555
O2EF Fe2ZB 1_555 1_555
O2LD C1LD 1_555 1_555
O2DE C1DE 1_555 1_555
O2M Fe2EB 1_555 1_555
O2JC C1JC 1_555 1_555
O2TA C1TA 1_555 1_555
O2GD Fe2EB 1_555 1_555
O2XA Fe2NC 1_555 1_555
O2NE Fe2NC 1_555 1_555
O2HA Fe2JB 1_555 1_555
O2XD Fe2JB 1_555 1_555
O2FF Fe2AC 1_555 1_555
O2LB Fe2AC 1_555 1_555
O2FD Fe2FB 1_555 1_555
O2L Fe2FB 1_555 1_555
O2AE Fe2KB 1_555 1_555
O2GA Fe2KB 1_555 1_555
O2AC Fe2PA 1_555 1_555
O2YE Fe2MA 1_555 1_555
O3NC Fe2 1_555 1_555
O3ZB Fe2ZB 1_555 1_555
O3OB Fe2ZB 1_555 1_555
O3EB Fe2EB 1_555 1_555
O3M Fe2EB 1_555 1_555
O3XA Fe2NC 1_555 1_555
O3JB Fe2JB 1_555 1_555
O3HA Fe2JB 1_555 1_555
O3OA Fe2OA 1_555 1_555
O3AC Fe2AC 1_555 1_555
O3LB Fe2AC 1_555 1_555
O3FB Fe2FB 1_555 1_555
O3L Fe2FB 1_555 1_555
O3KB Fe2KB 1_555 1_555
O3GA Fe2KB 1_555 1_555
O3PA Fe2PA 1_555 1_555
O3TA Fe2TA 1_555 1_555
O3MA Fe2MA 1_555 1_555
C1ZB O2ZB 1_555 1_555
C1EB O2EB 1_555 1_555
C1NC O2NC 1_555 1_555
C1JB C3JB 1_555 1_555
C1OA C3OA 1_555 1_555
C1TC O1TC 1_555 1_555
C1QF O2QF 1_555 1_555
C1VE C3VE 1_555 1_555
C1HG O1HG 1_555 1_555
C1AF C3AF 1_555 1_555
C1FE C3FE 1_555 1_555
C1OB O2OB 1_555 1_555
C1W C3W 1_555 1_555
C1MA C3MA 1_555 1_555
C1PF O1PF 1_555 1_555
C1XE O2XE 1_555 1_555
C1SC C3SC 1_555 1_555
C1EF O1EF 1_555 1_555
C1LD C3LD 1_555 1_555
C1DE C3DE 1_555 1_555
C1M O2M 1_555 1_555
C1JC C3JC 1_555 1_555
C1TA O1TA 1_555 1_555
C2ZB H1ZB 1_555 1_555
C2EB H1EB 1_555 1_555
C2NC H1NC 1_555 1_555
C2JB H1JB 1_555 1_555
C2OA H1OA 1_555 1_555
C2TC H1TC 1_555 1_555
C2QF H1QF 1_555 1_555
C2VE H1VE 1_555 1_555
C2HG H1HG 1_555 1_555
C2AF H1AF 1_555 1_555
C2FE H1FE 1_555 1_555
C2OB H1OB 1_555 1_555
C2W H1W 1_555 1_555
C2MA H1MA 1_555 1_555
C2PF H1PF 1_555 1_555
C2XE H1XE 1_555 1_555
C2SC H1SC 1_555 1_555
C2EF H1EF 1_555 1_555
C2LD H1LD 1_555 1_555
C2DE H1DE 1_555 1_555
C2M H1M 1_555 1_555
C2JC H1JC 1_555 1_555
C2TA H1TA 1_555 1_555
C3ZB C1ZB 1_555 1_555
C3EB C1EB 1_555 1_555
C3NC C1NC 1_555 1_555
C3JB C2JB 1_555 1_555
C3OA C2OA 1_555 1_555
C3TC C1TC 1_555 1_555
C3QF C1QF 1_555 1_555
C3VE C2VE 1_555 1_555
C3HG C1HG 1_555 1_555
C3AF C2AF 1_555 1_555
C3FE C2FE 1_555 1_555
C3OB C1OB 1_555 1_555
C3W C2W 1_555 1_555
C3MA C2MA 1_555 1_555
C3PF C1PF 1_555 1_555
C3XE C1XE 1_555 1_555
C3SC C2SC 1_555 1_555
C3EF C1EF 1_555 1_555
C3LD C2LD 1_555 1_555
C3DE C2DE 1_555 1_555
C3M C1M 1_555 1_555
C3JC C2JC 1_555 1_555
C3TA C1TA 1_555 1_555
C4ZB C3ZB 1_555 1_555
C4EB C3EB 1_555 1_555
C4NC C3NC 1_555 1_555
C4JB C3JB 1_555 1_555
C4OA C3OA 1_555 1_555
C4TC C3TC 1_555 1_555
C4QF C3QF 1_555 1_555
C4VE C3VE 1_555 1_555
C4HG C3HG 1_555 1_555
C4AF C3AF 1_555 1_555
C4FE C3FE 1_555 1_555
C4OB C3OB 1_555 1_555
C4W C3W 1_555 1_555
C4MA C3MA 1_555 1_555
C4PF C3PF 1_555 1_555
C4XE C3XE 1_555 1_555
C4SC C3SC 1_555 1_555
C4EF C3EF 1_555 1_555
C4LD C3LD 1_555 1_555
C4DE C3DE 1_555 1_555
C4M C3M 1_555 1_555
C4JC C3JC 1_555 1_555
C4TA C3TA 1_555 1_555
H2ZB C4ZB 1_555 1_555
H2EB C4EB 1_555 1_555
H2NC C4NC 1_555 1_555
H2JB C4JB 1_555 1_555
H2OA C4OA 1_555 1_555
H2TC C4TC 1_555 1_555
H2QF C4QF 1_555 1_555
H2VE C4VE 1_555 1_555
H2HG C4HG 1_555 1_555
H2AF C4AF 1_555 1_555
H2FE C4FE 1_555 1_555
H2OB C4OB 1_555 1_555
H2W C4W 1_555 1_555
H2MA C4MA 1_555 1_555
H2PF C4PF 1_555 1_555
H2XE C4XE 1_555 1_555
H2SC C4SC 1_555 1_555
H2EF C4EF 1_555 1_555
H2LD C4LD 1_555 1_555
H2DE C4DE 1_555 1_555
H2M C4M 1_555 1_555
H2JC C4JC 1_555 1_555
H2TA C4TA 1_555 1_555
C5ZB C4ZB 1_555 1_555
C5EB C4EB 1_555 1_555
C5NC C4NC 1_555 1_555
C5JB C4JB 1_555 1_555
C5OA C4OA 1_555 1_555
C5TC C4TC 1_555 1_555
C5QF C4QF 1_555 1_555
C5VE C4VE 1_555 1_555
C5HG C4HG 1_555 1_555
C5AF C4AF 1_555 1_555
C5FE C4FE 1_555 1_555
C5OB C4OB 1_555 1_555
C5W C4W 1_555 1_555
C5MA C4MA 1_555 1_555
C5PF C4PF 1_555 1_555
C5XE C4XE 1_555 1_555
C5SC C4SC 1_555 1_555
C5EF C4EF 1_555 1_555
C5LD C4LD 1_555 1_555
C5DE C4DE 1_555 1_555
C5M C4M 1_555 1_555
C5JC C4JC 1_555 1_555
C5TA C4TA 1_555 1_555
H3ZB C5ZB 1_555 1_555
H3EB C5EB 1_555 1_555
H3NC C5NC 1_555 1_555
H3JB C5JB 1_555 1_555
H3OA C5OA 1_555 1_555
H3TC C5TC 1_555 1_555
H3QF C5QF 1_555 1_555
H3VE C5VE 1_555 1_555
H3HG C5HG 1_555 1_555
H3AF C5AF 1_555 1_555
H3FE C5FE 1_555 1_555
H3OB C5OB 1_555 1_555
H3W C5W 1_555 1_555
H3MA C5MA 1_555 1_555
H3PF C5PF 1_555 1_555
H3XE C5XE 1_555 1_555
H3SC C5SC 1_555 1_555
H3EF C5EF 1_555 1_555
H3LD C5LD 1_555 1_555
H3DE C5DE 1_555 1_555
H3M C5M 1_555 1_555
H3JC C5JC 1_555 1_555
H3TA C5TA 1_555 1_555
C6ZB C5ZB 1_555 1_555
C6EB C5EB 1_555 1_555
C6NC C5NC 1_555 1_555
C6JB C5JB 1_555 1_555
C6OA C5OA 1_555 1_555
C6TC C5TC 1_555 1_555
C6QF C5QF 1_555 1_555
C6VE C5VE 1_555 1_555
C6HG C5HG 1_555 1_555
C6AF C5AF 1_555 1_555
C6FE C5FE 1_555 1_555
C6OB C5OB 1_555 1_555
C6W C5W 1_555 1_555
C6MA C5MA 1_555 1_555
C6PF C5PF 1_555 1_555
C6XE C5XE 1_555 1_555
C6SC C5SC 1_555 1_555
C6EF C5EF 1_555 1_555
C6LD C5LD 1_555 1_555
C6DE C5DE 1_555 1_555
C6M C5M 1_555 1_555
C6JC C5JC 1_555 1_555
C6TA C5TA 1_555 1_555
C7ZB C2ZB 1_555 1_555
C7EB C2EB 1_555 1_555
C7NC C2NC 1_555 1_555
C7JB C2JB 1_555 1_555
C7OA C2OA 1_555 1_555
C7TC C2TC 1_555 1_555
C7QF C2QF 1_555 1_555
C7VE C2VE 1_555 1_555
C7HG C2HG 1_555 1_555
C7AF C2AF 1_555 1_555
C7FE C2FE 1_555 1_555
C7OB C2OB 1_555 1_555
C7W C2W 1_555 1_555
C7MA C2MA 1_555 1_555
C7PF C2PF 1_555 1_555
C7XE C2XE 1_555 1_555
C7SC C2SC 1_555 1_555
C7EF C2EF 1_555 1_555
C7LD C2LD 1_555 1_555
C7DE C2DE 1_555 1_555
C7M C2M 1_555 1_555
C7JC C2JC 1_555 1_555
C7TA C2TA 1_555 1_555
C8ZB C7ZB 1_555 1_555
C8EB C7EB 1_555 1_555
C8NC C7NC 1_555 1_555
C8JB C7JB 1_555 1_555
C8OA C7OA 1_555 1_555
C8TC C7TC 1_555 1_555
C8QF C7QF 1_555 1_555
C8VE C7VE 1_555 1_555
C8HG C7HG 1_555 1_555
C8AF C7AF 1_555 1_555
C8FE C7FE 1_555 1_555
C8OB C7OB 1_555 1_555
C8W C7W 1_555 1_555
C8MA C7MA 1_555 1_555
C8PF C7PF 1_555 1_555
C8XE C7XE 1_555 1_555
C8SC C7SC 1_555 1_555
C8EF C7EF 1_555 1_555
C8LD C7LD 1_555 1_555
C8DE C7DE 1_555 1_555
C8M C7M 1_555 1_555
C8JC C7JC 1_555 1_555
C8TA C7TA 1_555 1_555
C9ZB C10 1_555 1_555
C9EB C8EB 1_555 1_555
C9NC C8NC 1_555 1_555
C9JB C8JB 1_555 1_555
C9OA C8OA 1_555 1_555
C9TC C8TC 1_555 1_555
C9QF C8QF 1_555 1_555
C9VE C8VE 1_555 1_555
C9HG C8HG 1_555 1_555
C9AF C8AF 1_555 1_555
C9FE C8FE 1_555 1_555
C9OB C8OB 1_555 1_555
C9W C8W 1_555 1_555
C9MA C8MA 1_555 1_555
C9PF C8PF 1_555 1_555
C9XE C8XE 1_555 1_555
C9SC C8SC 1_555 1_555
C9EF C8EF 1_555 1_555
C9LD C8LD 1_555 1_555
C9DE C8DE 1_555 1_555
C9M C8M 1_555 1_555
C9JC C8JC 1_555 1_555
C9TA C8TA 1_555 1_555
C10ZB C6ZB 1_555 1_555
C10EB C9 1_555 1_555
C10NC C6NC 1_555 1_555
C10JB C6JB 1_555 1_555
C10OA C6OA 1_555 1_555
C10TC C6TC 1_555 1_555
C10QF C6QF 1_555 1_555
C10VE C6VE 1_555 1_555
C10HG C6HG 1_555 1_555
C10AF C6AF 1_555 1_555
C10FE C6FE 1_555 1_555
C10OB C6OB 1_555 1_555
C10W C6W 1_555 1_555
C10MA C6MA 1_555 1_555
C10PF C6PF 1_555 1_555
C10XE C6XE 1_555 1_555
C10SC C6SC 1_555 1_555
C10EF C6EF 1_555 1_555
C10LD C6LD 1_555 1_555
C10DE C6DE 1_555 1_555
C10M C6M 1_555 1_555
C10JC C6JC 1_555 1_555
C10TA C6TA 1_555 1_555
C11EB C8EB 1_555 1_555
C11ZB C8ZB 1_555 1_555
C11NC C8NC 1_555 1_555
C11OA C8OA 1_555 1_555
C11JB C8JB 1_555 1_555
C11TC C8TC 1_555 1_555
C11VE C8VE 1_555 1_555
C11QF C8QF 1_555 1_555
C11HG C8HG 1_555 1_555
C11FE C8FE 1_555 1_555
C11AF C8AF 1_555 1_555
C11OB C8OB 1_555 1_555
C11MA C8MA 1_555 1_555
C11W C8W 1_555 1_555
C11PF C8PF 1_555 1_555
C11SC C8SC 1_555 1_555
C11XE C8XE 1_555 1_555
C11EF C8EF 1_555 1_555
C11DE C8DE 1_555 1_555
C11LD C8LD 1_555 1_555
C11M C8M 1_555 1_555
C11TA C8TA 1_555 1_555
C11JC C8JC 1_555 1_555
H4EB C11EB 1_555 1_555
H4ZB C11ZB 1_555 1_555
H4NC C11NC 1_555 1_555
H4OA C11OA 1_555 1_555
H4JB C11JB 1_555 1_555
H4TC C11TC 1_555 1_555
H4VE C11VE 1_555 1_555
H4QF C11QF 1_555 1_555
H4HG C11HG 1_555 1_555
H4FE C11FE 1_555 1_555
H4AF C11AF 1_555 1_555
H4OB C11OB 1_555 1_555
H4MA C11MA 1_555 1_555
H4W C11W 1_555 1_555
H4PF C11PF 1_555 1_555
H4SC C11SC 1_555 1_555
H4XE C11XE 1_555 1_555
H4EF C11EF 1_555 1_555
H4DE C11DE 1_555 1_555
H4LD C11LD 1_555 1_555
H4M C11M 1_555 1_555
H4TA C11TA 1_555 1_555
H4JC C11JC 1_555 1_555
H5EB C11EB 1_555 1_555
H5ZB C11ZB 1_555 1_555
H5NC C11NC 1_555 1_555
H5OA C11OA 1_555 1_555
H5JB C11JB 1_555 1_555
H5TC C11TC 1_555 1_555
H5VE C11VE 1_555 1_555
H5QF C11QF 1_555 1_555
H5HG C11HG 1_555 1_555
H5FE C11FE 1_555 1_555
H5AF C11AF 1_555 1_555
H5OB C11OB 1_555 1_555
H5MA C11MA 1_555 1_555
H5W C11W 1_555 1_555
H5PF C11PF 1_555 1_555
H5SC C11SC 1_555 1_555
H5XE C11XE 1_555 1_555
H5EF C11EF 1_555 1_555
H5DE C11DE 1_555 1_555
H5LD C11LD 1_555 1_555
H5M C11M 1_555 1_555
H5TA C11TA 1_555 1_555
H5JC C11JC 1_555 1_555
H6EB C11EB 1_555 1_555
H6ZB C11ZB 1_555 1_555
H6NC C11NC 1_555 1_555
H6OA C11OA 1_555 1_555
H6JB C11JB 1_555 1_555
H6TC C11TC 1_555 1_555
H6VE C11VE 1_555 1_555
H6QF C11QF 1_555 1_555
H6HG C11HG 1_555 1_555
H6FE C11FE 1_555 1_555
H6AF C11AF 1_555 1_555
H6OB C11OB 1_555 1_555
H6MA C11MA 1_555 1_555
H6W C11W 1_555 1_555
H6PF C11PF 1_555 1_555
H6SC C11SC 1_555 1_555
H6XE C11XE 1_555 1_555
H6EF C11EF 1_555 1_555
H6DE C11DE 1_555 1_555
H6LD C11LD 1_555 1_555
H6M C11M 1_555 1_555
H6TA C11TA 1_555 1_555
H6JC C11JC 1_555 1_555
C12EB C8EB 1_555 1_555
C12ZB C8ZB 1_555 1_555
C12NC C8NC 1_555 1_555
C12OA C8OA 1_555 1_555
C12JB C8JB 1_555 1_555
C12TC C8TC 1_555 1_555
C12VE C8VE 1_555 1_555
C12QF C8QF 1_555 1_555
C12HG C8HG 1_555 1_555
C12FE C8FE 1_555 1_555
C12AF C8AF 1_555 1_555
C12OB C8OB 1_555 1_555
C12MA C8MA 1_555 1_555
C12W C8W 1_555 1_555
C12PF C8PF 1_555 1_555
C12SC C8SC 1_555 1_555
C12XE C8XE 1_555 1_555
C12EF C8EF 1_555 1_555
C12DE C8DE 1_555 1_555
C12LD C8LD 1_555 1_555
C12M C8M 1_555 1_555
C12TA C8TA 1_555 1_555
C12JC C8JC 1_555 1_555
H7EB C12EB 1_555 1_555
H7ZB C12ZB 1_555 1_555
H7NC C12NC 1_555 1_555
H7OA C12OA 1_555 1_555
H7JB C12JB 1_555 1_555
H7TC C12TC 1_555 1_555
H7VE C12VE 1_555 1_555
H7QF C12QF 1_555 1_555
H7HG C12HG 1_555 1_555
H7FE C12FE 1_555 1_555
H7AF C12AF 1_555 1_555
H7OB C12OB 1_555 1_555
H7MA C12MA 1_555 1_555
H7W C12W 1_555 1_555
H7PF C12PF 1_555 1_555
H7SC C12SC 1_555 1_555
H7XE C12XE 1_555 1_555
H7EF C12EF 1_555 1_555
H7DE C12DE 1_555 1_555
H7LD C12LD 1_555 1_555
H7M C12M 1_555 1_555
H7TA C12TA 1_555 1_555
H7JC C12JC 1_555 1_555
H8EB C12EB 1_555 1_555
H8ZB C12ZB 1_555 1_555
H8NC C12NC 1_555 1_555
H8OA C12OA 1_555 1_555
H8JB C12JB 1_555 1_555
H8TC C12TC 1_555 1_555
H8VE C12VE 1_555 1_555
H8QF C12QF 1_555 1_555
H8HG C12HG 1_555 1_555
H8FE C12FE 1_555 1_555
H8AF C12AF 1_555 1_555
H8OB C12OB 1_555 1_555
H8MA C12MA 1_555 1_555
H8W C12W 1_555 1_555
H8PF C12PF 1_555 1_555
H8SC C12SC 1_555 1_555
H8XE C12XE 1_555 1_555
H8EF C12EF 1_555 1_555
H8DE C12DE 1_555 1_555
H8LD C12LD 1_555 1_555
H8M C12M 1_555 1_555
H8TA C12TA 1_555 1_555
H8JC C12JC 1_555 1_555
H9EB C12EB 1_555 1_555
H9ZB C12ZB 1_555 1_555
H9NC C12NC 1_555 1_555
H9OA C12OA 1_555 1_555
H9JB C12JB 1_555 1_555
H9TC C12TC 1_555 1_555
H9VE C12VE 1_555 1_555
H9QF C12QF 1_555 1_555
H9HG C12HG 1_555 1_555
H9FE C12FE 1_555 1_555
H9AF C12AF 1_555 1_555
H9OB C12OB 1_555 1_555
H9MA C12MA 1_555 1_555
H9W C12W 1_555 1_555
H9PF C12PF 1_555 1_555
H9SC C12SC 1_555 1_555
H9XE C12XE 1_555 1_555
H9EF C12EF 1_555 1_555
H9DE C12DE 1_555 1_555
H9LD C12LD 1_555 1_555
H9M C12M 1_555 1_555
H9TA C12TA 1_555 1_555
H9JC C12JC 1_555 1_555
O3 Fe2TA 1_555 1_555
C6 C7 1_555 1_555
C9 C10 1_555 1_555
Fe2NC O3NC 1_555 1_555
Fe2OA O3ZB 1_555 1_555
Fe2PA O3AC 1_555 1_555
Fe2MA O3EB 1_555 1_555
Fe2H O3JB 1_555 1_555
Fe2D O3OA 1_555 1_555
Fe2LA O3FB 1_555 1_555
Fe2K O3KB 1_555 1_555
Fe2E O3PA 1_555 1_555
Fe2OB O3OB 1_555 1_555
Fe2EC O3MA 1_555 1_555
Fe2M O3M 1_555 1_555
Fe2XA O3XA 1_555 1_555
Fe2XA O3TA 1_555 1_555
O2TC C1TC 1_555 1_555
O2HG C1HG 1_555 1_555
O2PF C1PF 1_555 1_555
O2EF C1EF 1_555 1_555
C2ZB C3ZB 1_555 1_555
C2EB C3EB 1_555 1_555
C2NC C3NC 1_555 1_555
C2TC C3TC 1_555 1_555
C2QF C3QF 1_555 1_555
C2HG C3HG 1_555 1_555
C2OB C3OB 1_555 1_555
C2PF C3PF 1_555 1_555
C2XE C3XE 1_555 1_555
C2EF C3EF 1_555 1_555
C2M C3M 1_555 1_555
C2TA C3TA 1_555 1_555
C6ZB C7ZB 1_555 1_555
C6EB C7EB 1_555 1_555
C6EB C10EB 1_555 1_555
C6NC C7NC 1_555 1_555
C6JB C7JB 1_555 1_555
C6OA C7OA 1_555 1_555
C6TC C7TC 1_555 1_555
C6QF C7QF 1_555 1_555
C6VE C7VE 1_555 1_555
C6HG C7HG 1_555 1_555
C6AF C7AF 1_555 1_555
C6FE C7FE 1_555 1_555
C6OB C7OB 1_555 1_555
C6W C7W 1_555 1_555
C6MA C7MA 1_555 1_555
C6PF C7PF 1_555 1_555
C6XE C7XE 1_555 1_555
C6SC C7SC 1_555 1_555
C6EF C7EF 1_555 1_555
C6LD C7LD 1_555 1_555
C6DE C7DE 1_555 1_555
C6M C7M 1_555 1_555
C6JC C7JC 1_555 1_555
C6TA C7TA 1_555 1_555
C8ZB C9ZB 1_555 1_555
C9ZB C10ZB 1_555 1_555
C9EB C10ZB 1_555 1_555
C9EB C10EB 1_555 1_555
C9NC C10NC 1_555 1_555
C9NC C10OA 1_555 1_555
C9JB C10NC 1_555 1_555
C9JB C10JB 1_555 1_555
C9OA C10JB 1_555 1_555
C9OA C10OA 1_555 1_555
C9TC C10TC 1_555 1_555
C9TC C10VE 1_555 1_555
C9QF C10TC 1_555 1_555
C9QF C10QF 1_555 1_555
C9VE C10QF 1_555 1_555
C9VE C10VE 1_555 1_555
C9HG C10HG 1_555 1_555
C9HG C10FE 1_555 1_555
C9AF C10HG 1_555 1_555
C9AF C10AF 1_555 1_555
C9FE C10AF 1_555 1_555
C9FE C10FE 1_555 1_555
C9OB C10OB 1_555 1_555
C9OB C10MA 1_555 1_555
C9W C10OB 1_555 1_555
C9W C10W 1_555 1_555
C9MA C10W 1_555 1_555
C9MA C10MA 1_555 1_555
C9PF C10PF 1_555 1_555
C9PF C10SC 1_555 1_555
C9XE C10PF 1_555 1_555
C9XE C10XE 1_555 1_555
C9SC C10XE 1_555 1_555
C9SC C10SC 1_555 1_555
C9EF C10EF 1_555 1_555
C9EF C10DE 1_555 1_555
C9LD C10EF 1_555 1_555
C9LD C10LD 1_555 1_555
C9DE C10LD 1_555 1_555
C9DE C10DE 1_555 1_555
C9M C10M 1_555 1_555
C9M C10TA 1_555 1_555
C9JC C10M 1_555 1_555
C9JC C10JC 1_555 1_555
C9TA C10JC 1_555 1_555
C9TA C10TA 1_555 1_555

#END
