
#######################################################################
#
#                 Cambridge Crystallographic Data Centre
#                                CCDC 
#
#######################################################################
#
# If this CIF has been generated from an entry in the Cambridge 
# Structural Database, then it will include bibliographic, chemical, 
# crystal, experimental, refinement or atomic coordinate data resulting 
# from the CCDC's data processing and validation procedures.
#
#######################################################################

data_VETVEW
_symmetry_cell_setting           tetragonal
_symmetry_space_group_name_H-M   'P 41'
_symmetry_Int_Tables_number      76
_space_group_name_Hall           'P 4w'
loop_
_symmetry_equiv_pos_site_id
_symmetry_equiv_pos_as_xyz
1 x,y,z
2 -x,-y,1/2+z
3 -y,x,1/4+z
4 y,-x,3/4+z
_cell_length_a                   10.0247(2)
_cell_length_b                   10.0247(2)
_cell_length_c                   29.1741(5)
_cell_angle_alpha                90
_cell_angle_beta                 90
_cell_angle_gamma                90
_cell_volume                     2931.84
loop_
_atom_site_label
_atom_site_type_symbol
_atom_site_fract_x
_atom_site_fract_y
_atom_site_fract_z
Fe1 Fe 0.40742(4) 0.05976(4) 0.055842(12)
S1 S 0.37598(12) 0.37237(12) 0.17584(3)
O1 O 0.21716(18) 0.09372(19) 0.05201(7)
O2 O 0.3968(2) -0.11286(19) 0.02834(7)
O3 O 0.9400(2) -0.3875(2) -0.13180(7)
O4 O 0.8758(2) 0.0580(2) -0.14099(8)
O5 O 0.7518(2) 0.1062(2) -0.03991(7)
N1 N 0.4222(2) 0.1966(2) -0.00062(8)
N2 N 0.6145(2) 0.0403(2) 0.04621(7)
N3 N 0.4366(3) 0.2099(2) 0.10191(9)
N4 N 0.7329(2) -0.0603(2) -0.09515(8)
N5 N 0.8956(3) -0.1665(2) -0.13789(8)
H1 H 0.9554 -0.1629 -0.1599
C1 C 0.6756(3) 0.0637(3) -0.07895(10)
H2 H 0.6849 0.1323 -0.1036
C2 C 0.5309(3) 0.0634(3) -0.06241(10)
H3 H 0.5111 -0.0152 -0.0430
H4 H 0.4671 0.0670 -0.0883
C3 C 0.5309(3) 0.1936(3) -0.03447(10)
H5 H 0.5193 0.2703 -0.0560
C4 C 0.6735(3) 0.2001(3) -0.01377(10)
H6 H 0.7104 0.2917 -0.0186
C5 C 0.6888(3) 0.1627(3) 0.03653(10)
H7 H 0.7843 0.1492 0.0438
H8 H 0.6548 0.2360 0.0560
C6 C 0.7038(3) -0.1832(3) -0.07521(10)
H9 H 0.6350 -0.1868 -0.0529
C7 C 0.7672(3) -0.2962(3) -0.08575(10)
C8 C 0.8712(3) -0.2897(3) -0.11927(10)
C9 C 0.8366(3) -0.0488(3) -0.12575(10)
C10 C 0.7364(3) -0.4285(3) -0.06371(12)
H10 H 0.6638 -0.4173 -0.0416
H11 H 0.8160 -0.4617 -0.0479
H12 H 0.7094 -0.4925 -0.0873
C11 C 0.3395(3) 0.2939(3) -0.00486(9)
H13 H 0.3605 0.3591 -0.0274
C12 C 0.2174(3) 0.3150(3) 0.02102(9)
C13 C 0.1604(3) 0.2120(3) 0.04842(10)
C14 C 0.0393(3) 0.2396(3) 0.07000(10)
H14 H -0.0019 0.1722 0.0880
C15 C -0.0219(3) 0.3613(4) 0.06595(11)
H15 H -0.1034 0.3771 0.0817
C16 C 0.0335(3) 0.4624(3) 0.03917(11)
H16 H -0.0092 0.5467 0.0366
C17 C 0.1522(3) 0.4370(3) 0.01645(11)
H17 H 0.1899 0.5040 -0.0026
C18 C 0.6776(3) -0.0708(3) 0.04594(9)
H18 H 0.7720 -0.0691 0.0431
C19 C 0.6116(3) -0.1993(3) 0.04969(10)
C20 C 0.4733(3) -0.2141(3) 0.04111(10)
C21 C 0.4162(3) -0.3414(3) 0.04694(10)
H19 H 0.3236 -0.3537 0.0413
C22 C 0.4921(4) -0.4474(3) 0.06056(12)
H20 H 0.4511 -0.5317 0.0651
C23 C 0.6295(4) -0.4338(3) 0.06797(11)
H21 H 0.6815 -0.5083 0.0772
C24 C 0.6884(3) -0.3110(3) 0.06168(11)
H22 H 0.7820 -0.3018 0.0655
C25 C 0.4104(3) 0.2769(3) 0.13291(10)
Fe1C Fe 1.05976(4) -0.40742(4) -0.194158(12)
O3B O 0.3875(2) -0.0600(2) 0.11820(7)
N6 N 1.2197(5) -0.0058(5) 0.24958(19)
C26 C 1.1559(5) 0.0621(5) 0.22920(15)
C27 C 1.0733(5) 0.1497(5) 0.20207(15)
H23 H 1.1279 0.2225 0.1898
H24 H 1.0022 0.1867 0.2213
H25 H 1.0338 0.0993 0.1767
N7 N 0.7723(3) 0.2367(4) 0.14611(10)
C28 C 0.7349(3) 0.1334(4) 0.15514(11)
C29 C 0.6887(4) 0.0010(4) 0.16779(13)
H26 H 0.7338 -0.0658 0.1488
H27 H 0.5922 -0.0049 0.1630
H28 H 0.7091 -0.0156 0.2001
loop_
_geom_bond_atom_site_label_1
_geom_bond_atom_site_label_2
_geom_bond_site_symmetry_1
_geom_bond_site_symmetry_2
Fe1 O1 1_555 1_555
S1 C25 1_555 1_555
O1 C13 1_555 1_555
O2 Fe1 1_555 1_555
O3 C8 1_555 1_555
O4 C9 1_555 1_555
O5 C1 1_555 1_555
N1 Fe1 1_555 1_555
N2 Fe1 1_555 1_555
N3 Fe1 1_555 1_555
N4 C1 1_555 1_555
N5 H1 1_555 1_555
C1 H2 1_555 1_555
C2 C1 1_555 1_555
H3 C2 1_555 1_555
H4 C2 1_555 1_555
C3 N1 1_555 1_555
H5 C3 1_555 1_555
C4 O5 1_555 1_555
H6 C4 1_555 1_555
C5 N2 1_555 1_555
H7 C5 1_555 1_555
H8 C5 1_555 1_555
C6 N4 1_555 1_555
H9 C6 1_555 1_555
C7 C6 1_555 1_555
C8 N5 1_555 1_555
C9 N4 1_555 1_555
C10 C7 1_555 1_555
H10 C10 1_555 1_555
H11 C10 1_555 1_555
H12 C10 1_555 1_555
C11 N1 1_555 1_555
H13 C11 1_555 1_555
C12 C11 1_555 1_555
C13 C12 1_555 1_555
C14 C13 1_555 1_555
H14 C14 1_555 1_555
C15 C14 1_555 1_555
H15 C15 1_555 1_555
C16 C15 1_555 1_555
H16 C16 1_555 1_555
C17 C12 1_555 1_555
H17 C17 1_555 1_555
C18 N2 1_555 1_555
H18 C18 1_555 1_555
C19 C18 1_555 1_555
C20 O2 1_555 1_555
C21 C20 1_555 1_555
H19 C21 1_555 1_555
C22 C21 1_555 1_555
H20 C22 1_555 1_555
C23 C22 1_555 1_555
H21 C23 1_555 1_555
C24 C19 1_555 1_555
H22 C24 1_555 1_555
C25 N3 1_555 1_555
N6 C26 1_555 1_555
C26 C27 1_555 1_555
C27 H23 1_555 1_555
H24 C27 1_555 1_555
H25 C27 1_555 1_555
N7 C28 1_555 1_555
C28 C29 1_555 1_555
C29 H26 1_555 1_555
H27 C29 1_555 1_555
H28 C29 1_555 1_555
Fe1C O3 1_555 1_555
O3B Fe1 1_555 1_555
N5 C9 1_555 1_555
C2 C3 1_555 1_555
C3 C4 1_555 1_555
C4 C5 1_555 1_555
C7 C8 1_555 1_555
C16 C17 1_555 1_555
C19 C20 1_555 1_555
C23 C24 1_555 1_555

#END
