
#######################################################################
#
#                 Cambridge Crystallographic Data Centre
#                                CCDC 
#
#######################################################################
#
# If this CIF has been generated from an entry in the Cambridge 
# Structural Database, then it will include bibliographic, chemical, 
# crystal, experimental, refinement or atomic coordinate data resulting 
# from the CCDC's data processing and validation procedures.
#
#######################################################################

data_VETVAS
_symmetry_cell_setting           triclinic
_symmetry_space_group_name_H-M   'P -1'
_symmetry_Int_Tables_number      2
_space_group_name_Hall           '-P 1'
loop_
_symmetry_equiv_pos_site_id
_symmetry_equiv_pos_as_xyz
1 x,y,z
2 -x,-y,-z
_cell_length_a                   16.1530(6)
_cell_length_b                   16.1512(6)
_cell_length_c                   31.2991(10)
_cell_angle_alpha                99.842(2)
_cell_angle_beta                 99.877(2)
_cell_angle_gamma                96.6724(18)
_cell_volume                     7836.64
loop_
_atom_site_label
_atom_site_type_symbol
_atom_site_fract_x
_atom_site_fract_y
_atom_site_fract_z
Nd1 Nd 0.18569(4) 0.14286(4) 0.199710(19)
Nd2 Nd 0.35685(4) -0.68577(4) 0.300270(19)
Nd3 Nd 0.35878(4) -0.52034(4) 0.413620(19)
Nd4 Nd 0.02035(4) 0.14115(4) 0.086370(19)
C1 C 0.6433(7) -0.4667(7) 0.1138(3)
C2 C 0.6733(8) -0.4850(8) 0.1558(4)
H1 H 0.7185 -0.5163 0.1626
C3 C 0.6270(7) -0.4504(7) 0.1850(4)
H2 H 0.6343 -0.4524 0.2156
C4 C 0.5650(7) -0.4106(7) 0.1604(3)
C5 C 0.4948(7) -0.3778(7) 0.1750(3)
C6 C 0.4420(7) -0.3326(6) 0.1517(4)
C7 C 0.3733(7) -0.2939(7) 0.1671(3)
H3 H 0.3525 -0.3014 0.1930
C8 C 0.3431(7) -0.2445(7) 0.1382(3)
H4 H 0.2989 -0.2108 0.1399
C9 C 0.3952(7) -0.2556(7) 0.1039(3)
C10 C 0.3865(7) -0.2106(7) 0.0682(3)
C11 C 0.4268(7) -0.2229(7) 0.0331(3)
C12 C 0.4211(7) -0.1793(8) -0.0035(4)
H5 H 0.3898 -0.1339 -0.0073
C13 C 0.4687(7) -0.2147(7) -0.0318(4)
H6 H 0.4760 -0.1981 -0.0588
C14 C 0.5060(7) -0.2812(7) -0.0141(3)
C15 C 0.5507(7) -0.3376(6) -0.0342(3)
C16 C 0.5840(7) -0.4045(7) -0.0167(3)
C17 C 0.6228(7) -0.4684(7) -0.0392(4)
H7 H 0.6270 -0.4763 -0.0695
C18 C 0.6528(8) -0.5164(8) -0.0102(4)
H8 H 0.6802 -0.5648 -0.0164
C19 C 0.6347(8) -0.4787(7) 0.0331(4)
C20 C 0.6656(7) -0.4994(7) 0.0740(4)
N1 N 0.5778(5) -0.4179(5) 0.1183(3)
H9 H 0.5498 -0.3959 0.0974
N2 N 0.4513(6) -0.3099(5) 0.1112(3)
N3 N 0.4806(6) -0.2845(6) 0.0258(3)
H10 H 0.4957 -0.3192 0.0436
N4 N 0.5853(5) -0.4144(5) 0.0265(3)
C21 C 0.4756(7) -0.3946(7) 0.2186(3)
C22 C 0.5304(7) -0.3614(7) 0.2581(3)
H11 H 0.5813 -0.3246 0.2589
C23 C 0.5109(8) -0.3821(7) 0.2971(4)
H12 H 0.5478 -0.3577 0.3246
C24 C 0.4382(7) -0.4379(6) 0.2961(3)
C25 C 0.3830(7) -0.4696(7) 0.2571(3)
H13 H 0.3330 -0.5076 0.2562
C26 C 0.4005(7) -0.4461(7) 0.2190(3)
H14 H 0.3601 -0.4656 0.1922
C27 C 0.4245(8) -0.4667(8) 0.3378(4)
O1 O 0.3725(5) -0.5360(5) 0.3332(2)
O2 O 0.4602(5) -0.4255(5) 0.3748(2)
C28 C 0.3289(8) -0.1464(8) 0.0705(3)
C29 C 0.2439(8) -0.1667(8) 0.0491(4)
H15 H 0.2239 -0.2202 0.0299
C30 C 0.1890(7) -0.1086(7) 0.0560(4)
H16 H 0.1313 -0.1221 0.0411
C31 C 0.2174(8) -0.0293(7) 0.0850(3)
C32 C 0.3015(7) -0.0072(8) 0.1041(4)
H17 H 0.3217 0.0478 0.1217
C33 C 0.3587(8) -0.0664(8) 0.0978(4)
H18 H 0.4168 -0.0520 0.1119
C34 C 0.1513(8) 0.0265(7) 0.0928(4)
O3 O 0.1758(5) 0.0947(4) 0.1205(2)
O4 O 0.0771(6) 0.0047(6) 0.0739(3)
C35 C 0.5718(7) -0.3256(8) -0.0778(4)
C36 C 0.5279(7) -0.3787(7) -0.1160(4)
H19 H 0.4830 -0.4213 -0.1149
C37 C 0.5495(8) -0.3698(7) -0.1565(4)
H20 H 0.5188 -0.4064 -0.1829
C38 C 0.6149(7) -0.3087(8) -0.1586(4)
C39 C 0.6577(8) -0.2526(8) -0.1203(4)
H21 H 0.7012 -0.2087 -0.1216
C40 C 0.6358(8) -0.2617(8) -0.0802(4)
H22 H 0.6649 -0.2237 -0.0539
C41 C 0.6376(8) -0.3037(7) -0.2024(4)
O5 O 0.7031(5) -0.2498(5) -0.2025(2)
O6 O 0.5930(5) -0.3507(5) -0.2358(2)
C42 C 0.7268(7) -0.5628(7) 0.0755(4)
C43 C 0.7101(9) -0.6364(8) 0.0902(5)
H23 H 0.6573 -0.6489 0.0990
C44 C 0.7664(9) -0.6928(9) 0.0927(5)
H24 H 0.7531 -0.7434 0.1034
C45 C 0.8442(8) -0.6757(9) 0.0794(5)
C46 C 0.8608(9) -0.6043(8) 0.0612(4)
H25 H 0.9111 -0.5942 0.0499
C47 C 0.8011(9) -0.5473(9) 0.0599(5)
H26 H 0.8120 -0.4975 0.0482
C48 C 0.9053(9) -0.7385(10) 0.0821(5)
O7 O 0.9037(7) -0.7877(7) 0.1081(4)
O8 O 0.9602(6) -0.7411(6) 0.0565(3)
C49 C 0.8947(7) -0.3851(7) 0.2106(3)
C50 C 0.9234(7) -0.4087(7) 0.1702(3)
H27 H 0.9587 -0.4506 0.1640
C51 C 0.8913(8) -0.3605(7) 0.1427(4)
H28 H 0.9020 -0.3604 0.1138
C52 C 0.8388(7) -0.3095(7) 0.1637(3)
C53 C 0.7908(7) -0.2539(7) 0.1455(4)
C54 C 0.7311(7) -0.2096(7) 0.1626(3)
C55 C 0.6838(7) -0.1512(7) 0.1425(4)
H29 H 0.6870 -0.1367 0.1146
C56 C 0.6341(8) -0.1206(7) 0.1701(3)
H30 H 0.5929 -0.0843 0.1644
C57 C 0.6553(7) -0.1531(6) 0.2096(3)
C58 C 0.6268(7) -0.1275(7) 0.2493(4)
C59 C 0.6526(7) -0.1548(7) 0.2898(3)
C60 C 0.6209(7) -0.1363(7) 0.3298(4)
H31 H 0.5830 -0.0968 0.3353
C61 C 0.6527(7) -0.1829(7) 0.3581(3)
H32 H 0.6403 -0.1839 0.3866
C62 C 0.7093(7) -0.2314(7) 0.3374(3)
C63 C 0.7550(7) -0.2907(7) 0.3555(3)
C64 C 0.8097(7) -0.3385(7) 0.3353(3)
C65 C 0.8600(7) -0.3933(7) 0.3570(3)
H33 H 0.8597 -0.4042 0.3859
C66 C 0.9074(8) -0.4263(8) 0.3287(4)
H34 H 0.9482 -0.4632 0.3339
C67 C 0.8838(6) -0.3942(7) 0.2890(3)
C68 C 0.9159(7) -0.4169(7) 0.2503(4)
N5 N 0.8407(6) -0.3273(6) 0.2052(3)
H35 H 0.8122 -0.3054 0.2247
N6 N 0.7135(5) -0.2094(5) 0.2043(3)
N7 N 0.7075(5) -0.2144(5) 0.2958(3)
H36 H 0.7359 -0.2370 0.2763
N8 N 0.8260(5) -0.3393(6) 0.2941(3)
C69 C 0.8139(8) -0.2351(8) 0.1021(4)
C70 C 0.8848(9) -0.1749(8) 0.1039(4)
H37 H 0.9166 -0.1444 0.1316
C71 C 0.9080(9) -0.1604(8) 0.0656(5)
H38 H 0.9569 -0.1204 0.0671
C72 C 0.8628(10) -0.2018(9) 0.0255(5)
C73 C 0.7902(9) -0.2628(9) 0.0226(4)
H39 H 0.7585 -0.2925 -0.0054
C74 C 0.7664(9) -0.2781(9) 0.0621(4)
H40 H 0.7177 -0.3181 0.0611
C75 C 0.8878(12) -0.1893(12) -0.0161(6)
O9 O 0.8580(8) -0.2227(10) -0.0505(4)
O10 O 0.9485(12) -0.1283(10) -0.0120(5)
C76 C 0.5673(7) -0.0666(8) 0.2502(4)
C77 C 0.5838(8) 0.0130(7) 0.2785(4)
H41 H 0.6364 0.0273 0.2990
C78 C 0.5282(7) 0.0718(7) 0.2785(4)
H42 H 0.5437 0.1261 0.2974
C79 C 0.4487(8) 0.0502(7) 0.2502(3)
C80 C 0.4299(7) -0.0276(7) 0.2215(4)
H43 H 0.3764 -0.0433 0.2019
C81 C 0.4898(8) -0.0824(7) 0.2216(4)
H44 H 0.4766 -0.1343 0.2005
C82 C 0.3899(8) 0.1134(8) 0.2506(4)
O11 O 0.3154(5) 0.0892(5) 0.2253(2)
O12 O 0.4106(5) 0.1843(5) 0.2743(2)
C83 C 0.7352(7) -0.3122(7) 0.3980(4)
C84 C 0.6769(9) -0.3849(9) 0.3964(4)
H45 H 0.6489 -0.4180 0.3685
C85 C 0.6595(8) -0.4091(9) 0.4342(4)
H46 H 0.6173 -0.4564 0.4326
C86 C 0.7043(10) -0.3639(10) 0.4750(5)
C87 C 0.7604(9) -0.2919(9) 0.4766(4)
H47 H 0.7867 -0.2587 0.5048
C88 C 0.7811(9) -0.2645(8) 0.4385(4)
H48 H 0.8232 -0.2171 0.4403
C89 C 0.6888(12) -0.3852(12) 0.5186(7)
O13 O 0.6305(12) -0.4477(12) 0.5134(5)
O14 O 0.7288(12) -0.3558(9) 0.5525(4)
C90 C 0.9764(8) -0.4795(7) 0.2494(4)
C91 C 1.1212(8) -0.5096(8) 0.2724(4)
H49 H 1.1780 -0.4917 0.2881
C92 C 1.0619(8) -0.4527(7) 0.2714(4)
H50 H 1.0795 -0.3950 0.2858
C93 C 1.0941(7) -0.5945(7) 0.2495(3)
C94 C 1.0089(7) -0.6207(7) 0.2282(4)
H51 H 0.9896 -0.6783 0.2141
C95 C 0.9527(8) -0.5613(7) 0.2279(4)
H52 H 0.8960 -0.5788 0.2120
C96 C 1.1569(8) -0.6568(8) 0.2496(4)
O15 O 1.2313(5) -0.6307(5) 0.2701(2)
O16 O 1.1290(5) -0.7317(5) 0.2291(2)
C97 C -0.0333(7) -0.1409(7) 0.3864(4)
C98 C -0.0159(8) -0.1748(8) 0.3428(4)
H53 H 0.0136 -0.2212 0.3354
C99 C -0.0504(7) -0.1265(7) 0.3153(4)
H54 H -0.0493 -0.1332 0.2847
C100 C -0.0889(7) -0.0635(7) 0.3398(4)
C101 C -0.1222(7) 0.0047(7) 0.3246(3)
C102 C -0.1664(7) 0.0583(7) 0.3491(4)
C103 C -0.2076(7) 0.1269(7) 0.3322(4)
H55 H -0.2012 0.1467 0.3058
C104 C -0.2567(7) 0.1566(7) 0.3615(3)
H56 H -0.2907 0.2006 0.3598
C105 C -0.2449(7) 0.1050(6) 0.3964(3)
C106 C -0.2870(7) 0.1144(7) 0.4315(3)
C107 C -0.2745(8) 0.0728(7) 0.4678(4)
C108 C -0.3195(7) 0.0780(8) 0.5034(4)
H57 H -0.3651 0.1093 0.5068
C109 C -0.2856(8) 0.0305(8) 0.5314(4)
H58 H -0.3031 0.0231 0.5581
C110 C -0.2191(7) -0.0068(7) 0.5143(3)
C111 C -0.1612(7) -0.0499(7) 0.5348(4)
C112 C -0.0937(7) -0.0840(7) 0.5160(4)
C113 C -0.0301(7) -0.1244(7) 0.5387(4)
H59 H -0.0225 -0.1299 0.5688
C114 C 0.0164(7) -0.1528(8) 0.5095(4)
H60 H 0.0649 -0.1804 0.5151
C115 C -0.0213(8) -0.1337(8) 0.4679(4)
C116 C 0.0000(7) -0.1638(7) 0.4269(4)
N9 N -0.0821(5) -0.0778(5) 0.3822(3)
H61 H -0.1050 -0.0510 0.4030
N10 N -0.1915(5) 0.0483(5) 0.3886(3)
N11 N -0.2173(6) 0.0192(5) 0.4745(3)
H62 H -0.1839 0.0031 0.4562
N12 N -0.0852(6) -0.0855(6) 0.4729(3)
C117 C -0.1061(7) 0.0246(7) 0.2812(3)
C118 C -0.0530(7) 0.0999(7) 0.2819(3)
H63 H -0.0324 0.1398 0.3088
C119 C -0.0306(6) 0.1157(7) 0.2424(3)
H64 H 0.0073 0.1655 0.2428
C120 C -0.0630(7) 0.0597(7) 0.2029(4)
C121 C -0.1184(8) -0.0125(8) 0.2026(4)
H65 H -0.1415 -0.0506 0.1754
C122 C -0.1407(7) -0.0304(7) 0.2414(4)
H66 H -0.1795 -0.0798 0.2406
C123 C -0.0340(8) 0.0766(8) 0.1623(4)
O17 O 0.0352(5) 0.1265(5) 0.1664(2)
O18 O -0.0754(5) 0.0388(5) 0.1246(3)
C124 C -0.3540(7) 0.1702(7) 0.4291(3)
C125 C -0.3321(9) 0.2562(7) 0.4508(4)
H67 H -0.2784 0.2753 0.4698
C126 C -0.3900(7) 0.3135(7) 0.4441(3)
H68 H -0.3756 0.3713 0.4587
C127 C -0.4684(7) 0.2852(7) 0.4161(3)
C128 C -0.4928(8) 0.2001(8) 0.3962(4)
H69 H -0.5480 0.1808 0.3787
C129 C -0.4338(7) 0.1423(7) 0.4025(4)
H70 H -0.4491 0.0842 0.3885
C130 C -0.5284(8) 0.3494(8) 0.4069(4)
O19 O -0.5967(5) 0.3230(5) 0.3786(2)
O20 O -0.5039(6) 0.4227(6) 0.4268(3)
C131 C -0.1736(7) -0.0694(7) 0.5781(3)
C132 C -0.1206(8) -0.0287(8) 0.6156(4)
H71 H -0.0767 0.0147 0.6142
C133 C -0.1282(7) -0.0485(8) 0.6572(4)
H72 H -0.0912 -0.0179 0.6835
C134 C -0.1915(7) -0.1143(7) 0.6588(3)
C135 C -0.2461(7) -0.1565(7) 0.6192(4)
H73 H -0.2898 -0.2007 0.6199
C136 C -0.2372(7) -0.1349(8) 0.5799(4)
H74 H -0.2745 -0.1644 0.5535
C137 C -0.1991(7) -0.1387(8) 0.7009(4)
O21 O -0.2502(5) -0.2025(5) 0.7029(2)
O22 O -0.1498(5) -0.0938(5) 0.7358(3)
C138 C 0.0623(8) -0.2270(7) 0.4255(4)
C139 C 0.1341(9) -0.2096(9) 0.4096(5)
H75 H 0.1457 -0.1571 0.4004
C140 C 0.1897(10) -0.2664(8) 0.4067(5)
H76 H 0.2387 -0.2532 0.3947
C141 C 0.1774(8) -0.3419(8) 0.4205(4)
C142 C 0.1046(10) -0.3615(10) 0.4387(5)
H77 H 0.0953 -0.4127 0.4494
C143 C 0.0455(9) -0.3019(8) 0.4404(4)
H78 H -0.0047 -0.3137 0.4516
C144 C 0.2397(10) -0.4056(9) 0.4177(5)
O23 O 0.2409(7) -0.4593(7) 0.4445(4)
O24 O 0.2872(7) -0.4043(7) 0.3911(3)
O25 O 0.5138(5) -0.6393(5) 0.3203(2)
C145 C 0.5660(9) -0.6132(8) 0.2993(4)
H79 H 0.5439 -0.6060 0.2702
N13 N 0.6469(7) -0.5947(7) 0.3125(3)
C146 C 0.6890(9) -0.6055(11) 0.3551(5)
H80 H 0.7378 -0.5605 0.3666
H81 H 0.7085 -0.6610 0.3523
H82 H 0.6492 -0.6023 0.3755
C147 C 0.7041(9) -0.5597(9) 0.2834(4)
H83 H 0.7510 -0.5929 0.2818
H84 H 0.7271 -0.5001 0.2962
H85 H 0.6709 -0.5638 0.2536
O26 O 0.1396(5) -0.0135(5) 0.1794(2)
C148 C 0.1130(8) -0.0641(10) 0.2005(4)
H86 H 0.1049 -0.0412 0.2293
N14 N 0.0946(7) -0.1464(6) 0.1875(3)
C149 C 0.0599(11) -0.2045(10) 0.2164(5)
H87 H 0.0018 -0.2312 0.2023
H88 H 0.0960 -0.2486 0.2198
H89 H 0.0597 -0.1708 0.2455
C150 C 0.1040(10) -0.1884(9) 0.1452(5)
H90 H 0.0997 -0.1490 0.1247
H91 H 0.1596 -0.2077 0.1477
H92 H 0.0591 -0.2375 0.1343
O27 O 0.1166(7) 0.2596(6) 0.1391(3)
H93 H 0.1277 0.3067 0.1249
H94 H 0.1688 0.2393 0.1486
O28 O 0.2411(6) -0.6173(6) 0.3606(3)
H95 H 0.1916 -0.6232 0.3736
H96 H 0.2589 -0.6718 0.3536
O29 O -0.0956(7) 0.0409(7) 0.0316(4)
H97 H -0.1130 -0.0063 0.0445
H98 H -0.0750 0.0209 0.0054
O30 O 0.4593(7) -0.4058(7) 0.4679(3)
H99 H 0.4281 -0.3627 0.4792
H100 H 0.4870 -0.4288 0.4919
Nd1A Nd 0.81431(4) -0.14286(4) -0.199710(19)
Nd1_2 Nd 1.18569(4) -0.85714(4) 0.199710(19)
Nd1A_2 Nd -0.18569(4) -0.14286(4) 0.800290(19)
Nd2A Nd 0.64315(4) -0.31423(4) -0.300270(19)
Nd2_2 Nd 0.35685(4) 0.31423(4) 0.300270(19)
Nd2_3 Nd 1.35685(4) -0.68577(4) 0.300270(19)
Nd2_4 Nd -0.64315(4) 0.31423(4) 0.300270(19)
Nd2A_2 Nd -0.35685(4) -0.31423(4) 0.699730(19)
Nd3A Nd 0.64122(4) -0.47966(4) 0.586380(19)
Nd3_2 Nd -0.64122(4) 0.47966(4) 0.413620(19)
Nd4_2 Nd 1.02035(4) -0.85885(4) 0.086370(19)
Nd4A Nd 0.97965(4) -0.14115(4) -0.086370(19)
O5A O 0.2969(5) 0.2498(5) 0.2025(2)
O6A O 0.4070(5) -0.6493(5) 0.2358(2)
O7_2 O -0.0963(7) 0.2123(7) 0.1081(4)
O8_2 O -0.0398(6) 0.2589(6) 0.0565(3)
O10A O 0.0515(12) 0.1283(10) 0.0120(5)
O12_2 O 0.4106(5) -0.8157(5) 0.2743(2)
O13A O 0.3695(12) -0.5523(12) 0.4866(5)
O15_2 O 0.2313(5) -0.6307(5) 0.2701(2)
O16_2 O 0.1290(5) 0.2683(5) 0.2291(2)
O19_2 O 0.4033(5) -0.6770(5) 0.3786(2)
O20_2 O 0.4961(6) -0.5773(6) 0.4268(3)
O21A O 0.2502(5) -0.7975(5) 0.2971(2)
O22A O 0.1498(5) 0.0938(5) 0.2642(3)
loop_
_geom_bond_atom_site_label_1
_geom_bond_atom_site_label_2
_geom_bond_site_symmetry_1
_geom_bond_site_symmetry_2
Nd1 O3 1_555 1_555
Nd2 O1 1_555 1_555
Nd3 O1 1_555 1_555
Nd4 O4 1_555 1_555
C1 C2 1_555 1_555
C2 H1 1_555 1_555
C3 C2 1_555 1_555
H2 C3 1_555 1_555
C4 C3 1_555 1_555
C5 C4 1_555 1_555
C6 C5 1_555 1_555
C7 C6 1_555 1_555
H3 C7 1_555 1_555
C8 C7 1_555 1_555
H4 C8 1_555 1_555
C9 C8 1_555 1_555
C10 C9 1_555 1_555
C11 C10 1_555 1_555
C12 C11 1_555 1_555
H5 C12 1_555 1_555
C13 C12 1_555 1_555
H6 C13 1_555 1_555
C14 C13 1_555 1_555
C15 C14 1_555 1_555
C16 C15 1_555 1_555
C17 C16 1_555 1_555
H7 C17 1_555 1_555
C18 C17 1_555 1_555
H8 C18 1_555 1_555
C19 C18 1_555 1_555
C20 C1 1_555 1_555
N1 C1 1_555 1_555
H9 N1 1_555 1_555
N2 C6 1_555 1_555
N3 C11 1_555 1_555
H10 N3 1_555 1_555
N4 C16 1_555 1_555
C21 C5 1_555 1_555
C22 C21 1_555 1_555
H11 C22 1_555 1_555
C23 C22 1_555 1_555
H12 C23 1_555 1_555
C24 C23 1_555 1_555
C25 C24 1_555 1_555
H13 C25 1_555 1_555
C26 C21 1_555 1_555
H14 C26 1_555 1_555
C27 C24 1_555 1_555
O1 C27 1_555 1_555
O2 Nd3 1_555 1_555
C28 C10 1_555 1_555
C29 C28 1_555 1_555
H15 C29 1_555 1_555
C30 C29 1_555 1_555
H16 C30 1_555 1_555
C31 C30 1_555 1_555
C32 C31 1_555 1_555
H17 C32 1_555 1_555
C33 C28 1_555 1_555
H18 C33 1_555 1_555
C34 C31 1_555 1_555
O3 C34 1_555 1_555
O4 C34 1_555 1_555
C35 C15 1_555 1_555
C36 C35 1_555 1_555
H19 C36 1_555 1_555
C37 C36 1_555 1_555
H20 C37 1_555 1_555
C38 C37 1_555 1_555
C39 C38 1_555 1_555
H21 C39 1_555 1_555
C40 C35 1_555 1_555
H22 C40 1_555 1_555
C41 C38 1_555 1_555
O5 C41 1_555 1_555
O6 C41 1_555 1_555
C42 C20 1_555 1_555
C43 C42 1_555 1_555
H23 C43 1_555 1_555
C44 C43 1_555 1_555
H24 C44 1_555 1_555
C45 C44 1_555 1_555
C46 C45 1_555 1_555
H25 C46 1_555 1_555
C47 C42 1_555 1_555
H26 C47 1_555 1_555
C48 C45 1_555 1_555
O7 C48 1_555 1_555
O8 C48 1_555 1_555
C49 C50 1_555 1_555
C50 H27 1_555 1_555
C51 C50 1_555 1_555
H28 C51 1_555 1_555
C52 C51 1_555 1_555
C53 C52 1_555 1_555
C54 C53 1_555 1_555
C55 C54 1_555 1_555
H29 C55 1_555 1_555
C56 C55 1_555 1_555
H30 C56 1_555 1_555
C57 C56 1_555 1_555
C58 C57 1_555 1_555
C59 C58 1_555 1_555
C60 C59 1_555 1_555
H31 C60 1_555 1_555
C61 C60 1_555 1_555
H32 C61 1_555 1_555
C62 C61 1_555 1_555
C63 C62 1_555 1_555
C64 C63 1_555 1_555
C65 C64 1_555 1_555
H33 C65 1_555 1_555
C66 C65 1_555 1_555
H34 C66 1_555 1_555
C67 C66 1_555 1_555
C68 C49 1_555 1_555
N5 C49 1_555 1_555
H35 N5 1_555 1_555
N6 C54 1_555 1_555
N7 C59 1_555 1_555
H36 N7 1_555 1_555
N8 C64 1_555 1_555
C69 C53 1_555 1_555
C70 C69 1_555 1_555
H37 C70 1_555 1_555
C71 C70 1_555 1_555
H38 C71 1_555 1_555
C72 C71 1_555 1_555
C73 C72 1_555 1_555
H39 C73 1_555 1_555
C74 C69 1_555 1_555
H40 C74 1_555 1_555
C75 C72 1_555 1_555
O9 C75 1_555 1_555
O10 C75 1_555 1_555
C76 C58 1_555 1_555
C77 C76 1_555 1_555
H41 C77 1_555 1_555
C78 C77 1_555 1_555
H42 C78 1_555 1_555
C79 C78 1_555 1_555
C80 C79 1_555 1_555
H43 C80 1_555 1_555
C81 C76 1_555 1_555
H44 C81 1_555 1_555
C82 C79 1_555 1_555
O11 Nd1 1_555 1_555
O12 C82 1_555 1_555
C83 C63 1_555 1_555
C84 C83 1_555 1_555
H45 C84 1_555 1_555
C85 C84 1_555 1_555
H46 C85 1_555 1_555
C86 C85 1_555 1_555
C87 C86 1_555 1_555
H47 C87 1_555 1_555
C88 C83 1_555 1_555
H48 C88 1_555 1_555
C89 C86 1_555 1_555
O13 C89 1_555 1_555
O14 C89 1_555 1_555
C90 C68 1_555 1_555
C91 H49 1_555 1_555
C92 C90 1_555 1_555
H50 C92 1_555 1_555
C93 C91 1_555 1_555
C94 C93 1_555 1_555
H51 C94 1_555 1_555
C95 C90 1_555 1_555
H52 C95 1_555 1_555
C96 C93 1_555 1_555
O15 C96 1_555 1_555
O16 C96 1_555 1_555
C97 C98 1_555 1_555
C98 H53 1_555 1_555
C99 C98 1_555 1_555
H54 C99 1_555 1_555
C100 C99 1_555 1_555
C101 C100 1_555 1_555
C102 C101 1_555 1_555
C103 C102 1_555 1_555
H55 C103 1_555 1_555
C104 C103 1_555 1_555
H56 C104 1_555 1_555
C105 C104 1_555 1_555
C106 C105 1_555 1_555
C107 C106 1_555 1_555
C108 C107 1_555 1_555
H57 C108 1_555 1_555
C109 C108 1_555 1_555
H58 C109 1_555 1_555
C110 C109 1_555 1_555
C111 C110 1_555 1_555
C112 C111 1_555 1_555
C113 C112 1_555 1_555
H59 C113 1_555 1_555
C114 C113 1_555 1_555
H60 C114 1_555 1_555
C115 C114 1_555 1_555
C116 C97 1_555 1_555
N9 C97 1_555 1_555
H61 N9 1_555 1_555
N10 C102 1_555 1_555
N11 C107 1_555 1_555
H62 N11 1_555 1_555
N12 C112 1_555 1_555
C117 C101 1_555 1_555
C118 C117 1_555 1_555
H63 C118 1_555 1_555
C119 C118 1_555 1_555
H64 C119 1_555 1_555
C120 C119 1_555 1_555
C121 C120 1_555 1_555
H65 C121 1_555 1_555
C122 C117 1_555 1_555
H66 C122 1_555 1_555
C123 C120 1_555 1_555
O17 Nd1 1_555 1_555
O18 Nd4 1_555 1_555
C124 C106 1_555 1_555
C125 C124 1_555 1_555
H67 C125 1_555 1_555
C126 C125 1_555 1_555
H68 C126 1_555 1_555
C127 C126 1_555 1_555
C128 C127 1_555 1_555
H69 C128 1_555 1_555
C129 C124 1_555 1_555
H70 C129 1_555 1_555
C130 C127 1_555 1_555
O19 C130 1_555 1_555
O20 C130 1_555 1_555
C131 C111 1_555 1_555
C132 C131 1_555 1_555
H71 C132 1_555 1_555
C133 C132 1_555 1_555
H72 C133 1_555 1_555
C134 C133 1_555 1_555
C135 C134 1_555 1_555
H73 C135 1_555 1_555
C136 C131 1_555 1_555
H74 C136 1_555 1_555
C137 C134 1_555 1_555
O21 C137 1_555 1_555
O22 C137 1_555 1_555
C138 C116 1_555 1_555
C139 C138 1_555 1_555
H75 C139 1_555 1_555
C140 C139 1_555 1_555
H76 C140 1_555 1_555
C141 C140 1_555 1_555
C142 C141 1_555 1_555
H77 C142 1_555 1_555
C143 C138 1_555 1_555
H78 C143 1_555 1_555
C144 C141 1_555 1_555
O23 Nd3 1_555 1_555
O24 Nd3 1_555 1_555
O25 Nd2 1_555 1_555
C145 O25 1_555 1_555
H79 C145 1_555 1_555
N13 C145 1_555 1_555
C146 N13 1_555 1_555
H80 C146 1_555 1_555
H81 C146 1_555 1_555
H82 C146 1_555 1_555
C147 N13 1_555 1_555
H83 C147 1_555 1_555
H84 C147 1_555 1_555
H85 C147 1_555 1_555
O26 Nd1 1_555 1_555
C148 O26 1_555 1_555
H86 C148 1_555 1_555
N14 C148 1_555 1_555
C149 N14 1_555 1_555
H87 C149 1_555 1_555
H88 C149 1_555 1_555
H89 C149 1_555 1_555
C150 N14 1_555 1_555
H90 C150 1_555 1_555
H91 C150 1_555 1_555
H92 C150 1_555 1_555
O27 Nd4 1_555 1_555
H93 O27 1_555 1_555
H94 O27 1_555 1_555
O28 Nd3 1_555 1_555
H95 O28 1_555 1_555
H96 O28 1_555 1_555
O29 Nd4 1_555 1_555
H97 O29 1_555 1_555
H98 O29 1_555 1_555
O30 Nd3 1_555 1_555
H99 O30 1_555 1_555
H100 O30 1_555 1_555
Nd1A O5 1_555 1_555
Nd1_2 O16 1_555 1_555
Nd1A_2 O22 1_555 1_555
Nd2A O6 1_555 1_555
Nd2_2 O12 1_555 1_555
Nd2_3 O15 1_555 1_555
Nd2_4 O19 1_555 1_555
Nd2A_2 O21 1_555 1_555
Nd3A O13 1_555 1_555
Nd3_2 O20 1_555 1_555
Nd4_2 O7 1_555 1_555
Nd4A O10 1_555 1_555
O5A Nd1 1_555 1_555
O6A Nd2 1_555 1_555
O7_2 Nd4 1_555 1_555
O8_2 Nd4 1_555 1_555
O10A Nd4 1_555 1_555
O12_2 Nd2 1_555 1_555
O13A Nd3 1_555 1_555
O15_2 Nd2 1_555 1_555
O16_2 Nd1 1_555 1_555
O19_2 Nd2 1_555 1_555
O20_2 Nd3 1_555 1_555
O21A Nd2 1_555 1_555
O22A Nd1 1_555 1_555
Nd4 O17 1_555 1_555
C4 N1 1_555 1_555
C9 N2 1_555 1_555
C14 N3 1_555 1_555
C19 C20 1_555 1_555
C19 N4 1_555 1_555
C25 C26 1_555 1_555
C27 O2 1_555 1_555
C32 C33 1_555 1_555
C39 C40 1_555 1_555
C46 C47 1_555 1_555
O8 Nd4_2 1_555 1_555
C52 N5 1_555 1_555
C57 N6 1_555 1_555
C62 N7 1_555 1_555
C67 C68 1_555 1_555
C67 N8 1_555 1_555
C73 C74 1_555 1_555
C80 C81 1_555 1_555
C82 O11 1_555 1_555
C87 C88 1_555 1_555
C91 C92 1_555 1_555
C94 C95 1_555 1_555
C100 N9 1_555 1_555
C105 N10 1_555 1_555
C110 N11 1_555 1_555
C115 C116 1_555 1_555
C115 N12 1_555 1_555
C121 C122 1_555 1_555
C123 O17 1_555 1_555
C123 O18 1_555 1_555
C128 C129 1_555 1_555
C135 C136 1_555 1_555
C142 C143 1_555 1_555
C144 O23 1_555 1_555
C144 O24 1_555 1_555

#END
