
#######################################################################
#
#                 Cambridge Crystallographic Data Centre
#                                CCDC 
#
#######################################################################
#
# If this CIF has been generated from an entry in the Cambridge 
# Structural Database, then it will include bibliographic, chemical, 
# crystal, experimental, refinement or atomic coordinate data resulting 
# from the CCDC's data processing and validation procedures.
#
#######################################################################

data_VEVFUX
_symmetry_cell_setting           monoclinic
_symmetry_space_group_name_H-M   'P 2/c'
_symmetry_Int_Tables_number      13
_space_group_name_Hall           '-P 2yc'
loop_
_symmetry_equiv_pos_site_id
_symmetry_equiv_pos_as_xyz
1 x,y,z
2 -x,y,1/2-z
3 -x,-y,-z
4 x,-y,1/2+z
_cell_length_a                   3.986(3)
_cell_length_b                   6.579(5)
_cell_length_c                   11.3990(10)
_cell_angle_alpha                90
_cell_angle_beta                 96.621(3)
_cell_angle_gamma                90
_cell_volume                     296.933
loop_
_atom_site_label
_atom_site_type_symbol
_atom_site_fract_x
_atom_site_fract_y
_atom_site_fract_z
Br1 Br -0.5000 0.51600(12) 0.2500
Cu1 Cu 0.0000 0.29448(15) 0.2500
N1 N 0.0046(12) 0.1194(7) 0.3985(4)
C1 C -0.1258(15) 0.1870(9) 0.4946(5)
C2 C 0.1293(16) -0.0686(9) 0.4061(5)
H1 H -0.25(2) 0.308(11) 0.482(7)
H2 H 0.22(2) -0.119(10) 0.357(6)
C2B C -0.1293(16) 0.0686(9) 0.5939(5)
N1B N -0.0046(12) -0.1194(7) 0.6015(4)
C1B C 0.1258(15) -0.1870(9) 0.5054(5)
H1B H 0.25(2) -0.308(11) 0.518(7)
H2B H -0.22(2) 0.119(10) 0.643(6)
Cu1_2 Cu -1.0000 0.29448(15) 0.2500
Br1_2 Br 0.5000 0.51600(12) 0.2500
N1A N -0.0046(12) 0.1194(7) 0.1015(4)
Cu1B Cu 0.0000 -0.29448(15) 0.7500
loop_
_geom_bond_atom_site_label_1
_geom_bond_atom_site_label_2
_geom_bond_site_symmetry_1
_geom_bond_site_symmetry_2
Br1 Cu1 1_555 1_555
Cu1 N1 1_555 1_555
N1 C1 1_555 1_555
C1 H1 1_555 1_555
C2 N1 1_555 1_555
H2 C2 1_555 1_555
C2B C1 1_555 1_555
N1B C2B 1_555 1_555
C1B C2 1_555 1_555
H1B C1B 1_555 1_555
H2B C2B 1_555 1_555
Cu1_2 Br1 1_555 1_555
Br1_2 Cu1 1_555 1_555
N1A Cu1 1_555 1_555
Cu1B N1B 1_555 1_555
N1B C1B 1_555 1_555

#END
