
#######################################################################
#
#                 Cambridge Crystallographic Data Centre
#                                CCDC 
#
#######################################################################
#
# If this CIF has been generated from an entry in the Cambridge 
# Structural Database, then it will include bibliographic, chemical, 
# crystal, experimental, refinement or atomic coordinate data resulting 
# from the CCDC's data processing and validation procedures.
#
#######################################################################

data_VEVGUY
_symmetry_cell_setting           monoclinic
_symmetry_space_group_name_H-M   'P 21/c'
_symmetry_Int_Tables_number      14
_space_group_name_Hall           '-P 2ybc'
loop_
_symmetry_equiv_pos_site_id
_symmetry_equiv_pos_as_xyz
1 x,y,z
2 x,1/2-y,1/2+z
3 -x,-y,-z
4 -x,1/2+y,1/2-z
_cell_length_a                   4.3718(6)
_cell_length_b                   17.718(2)
_cell_length_c                   14.7481(4)
_cell_angle_alpha                90
_cell_angle_beta                 110.1631(6)
_cell_angle_gamma                90
_cell_volume                     1072.37
loop_
_atom_site_label
_atom_site_type_symbol
_atom_site_fract_x
_atom_site_fract_y
_atom_site_fract_z
I1 I -0.53376(13) 0.39122(3) 0.08836(4)
I2 I 0.37823(13) 0.36724(3) 0.35518(4)
Cu1 Cu 0.0619(3) 0.43567(7) 0.18709(9)
Cu2 Cu -0.2353(3) 0.32329(6) 0.26017(9)
N1 N 0.0916(17) 0.5505(4) 0.2023(5)
N2 N 0.1915(17) 0.7079(4) 0.2284(5)
C1 C 0.205(2) 0.5924(5) 0.1465(7)
C2 C 0.256(2) 0.6704(5) 0.1602(6)
C3 C 0.075(2) 0.6669(5) 0.2886(6)
C4 C 0.000(2) 0.7028(5) 0.3617(7)
C5 C -0.121(2) 0.6630(6) 0.4222(7)
C6 C -0.174(3) 0.5853(6) 0.4078(7)
C7 C -0.104(2) 0.5479(5) 0.3359(7)
C8 C 0.020(2) 0.5871(5) 0.2742(6)
H1 H 0.2519 0.5693 0.0964
H2 H 0.3386 0.6966 0.1192
H3 H 0.0310 0.7546 0.3701
H4 H -0.1668 0.6873 0.4720
H5 H -0.2595 0.5584 0.4478
H6 H -0.1394 0.4961 0.3283
Cu1_2 Cu -0.9381(3) 0.43567(7) 0.18709(9)
Cu2_2 Cu 0.7647(3) 0.32329(6) 0.26017(9)
I1_2 I 0.46624(13) 0.39122(3) 0.08836(4)
I2_2 I -0.62177(13) 0.36724(3) 0.35518(4)
N2C N -0.1915(17) 0.2079(4) 0.2716(5)
Cu2C Cu 0.2353(3) 0.82329(6) 0.23983(9)
loop_
_geom_bond_atom_site_label_1
_geom_bond_atom_site_label_2
_geom_bond_site_symmetry_1
_geom_bond_site_symmetry_2
I1 Cu1 1_555 1_555
I2 Cu1 1_555 1_555
Cu1 N1 1_555 1_555
Cu2 I1 1_555 1_555
N1 C1 1_555 1_555
N2 C2 1_555 1_555
C1 C2 1_555 1_555
C2 H2 1_555 1_555
C3 N2 1_555 1_555
C4 C3 1_555 1_555
C5 C4 1_555 1_555
C6 C5 1_555 1_555
C7 C6 1_555 1_555
C8 N1 1_555 1_555
H1 C1 1_555 1_555
H3 C4 1_555 1_555
H4 C5 1_555 1_555
H5 C6 1_555 1_555
H6 C7 1_555 1_555
Cu1_2 I1 1_555 1_555
Cu2_2 I2 1_555 1_555
I1_2 Cu1 1_555 1_555
I2_2 Cu2 1_555 1_555
N2C Cu2 1_555 1_555
Cu2C N2 1_555 1_555
I2 Cu2 1_555 1_555
C3 C8 1_555 1_555
C7 C8 1_555 1_555
Cu1_2 I2_2 1_555 1_555
Cu2_2 I1_2 1_555 1_555

#END
