
#######################################################################
#
#                 Cambridge Crystallographic Data Centre
#                                CCDC 
#
#######################################################################
#
# If this CIF has been generated from an entry in the Cambridge 
# Structural Database, then it will include bibliographic, chemical, 
# crystal, experimental, refinement or atomic coordinate data resulting 
# from the CCDC's data processing and validation procedures.
#
#######################################################################

data_VEVGUY01
_symmetry_cell_setting           monoclinic
_symmetry_space_group_name_H-M   'P 21/n'
_symmetry_Int_Tables_number      14
_space_group_name_Hall           '-P 2yn'
loop_
_symmetry_equiv_pos_site_id
_symmetry_equiv_pos_as_xyz
1 x,y,z
2 1/2+x,1/2-y,1/2+z
3 -x,-y,-z
4 1/2-x,1/2+y,1/2-z
_cell_length_a                   4.356(2)
_cell_length_b                   17.651(5)
_cell_length_c                   13.767(5)
_cell_angle_alpha                90
_cell_angle_beta                 93.14(3)
_cell_angle_gamma                90
_cell_volume                     1056.92
loop_
_atom_site_label
_atom_site_type_symbol
_atom_site_fract_x
_atom_site_fract_y
_atom_site_fract_z
Cu1 Cu 1.6269(2) 0.56389(5) -0.18708(7)
Cu2 Cu 1.9904(2) 0.67496(5) -0.26073(7)
I1 I 1.47300(11) 0.63142(3) -0.35634(3)
I2 I 1.12632(11) 0.60830(3) -0.08810(3)
N1 N 1.5354(14) 0.2910(3) -0.2284(4)
C1 C 1.4038(19) 0.3284(4) -0.1585(5)
H1 H 1.2847 0.3018 -0.1160
C2 C 1.4393(18) 0.4073(4) -0.1468(5)
H2 H 1.3375 0.4310 -0.0976
N2 N 1.6092(15) 0.4488(3) -0.2020(4)
C3 C 1.7527(18) 0.4110(4) -0.2742(5)
C4 C 1.9446(18) 0.4515(4) -0.3363(5)
H3 H 1.9736 0.5033 -0.3279
C5 C 2.0873(19) 0.4140(4) -0.4087(6)
H4 H 2.2117 0.4410 -0.4493
C6 C 2.0488(18) 0.3359(4) -0.4226(5)
H5 H 2.1486 0.3116 -0.4718
C7 C 1.8641(17) 0.2950(4) -0.3638(5)
H6 H 1.8365 0.2433 -0.3740
C8 C 1.7157(16) 0.3318(4) -0.2875(5)
I2_2 I 2.12632(11) 0.60830(3) -0.08810(3)
I1_2 I 2.47300(11) 0.63142(3) -0.35634(3)
N1C N 1.9646(14) 0.7910(3) -0.2716(4)
Cu2_2 Cu 0.9904(2) 0.67496(5) -0.26073(7)
Cu1_2 Cu 0.6269(2) 0.56389(5) -0.18708(7)
Cu2C Cu 1.5096(2) 0.17496(5) -0.23927(7)
loop_
_geom_bond_atom_site_label_1
_geom_bond_atom_site_label_2
_geom_bond_site_symmetry_1
_geom_bond_site_symmetry_2
Cu1 I1 1_555 1_555
Cu2 I1 1_555 1_555
I1 Cu2_2 1_555 1_555
I2 Cu1 1_555 1_555
N1 C1 1_555 1_555
C1 H1 1_555 1_555
C2 C1 1_555 1_555
H2 C2 1_555 1_555
N2 Cu1 1_555 1_555
C3 N2 1_555 1_555
C4 C3 1_555 1_555
H3 C4 1_555 1_555
C5 C4 1_555 1_555
H4 C5 1_555 1_555
C6 C5 1_555 1_555
H5 C6 1_555 1_555
C7 C6 1_555 1_555
H6 C7 1_555 1_555
C8 N1 1_555 1_555
I2_2 Cu1 1_555 1_555
I1_2 Cu2 1_555 1_555
N1C Cu2 1_555 1_555
Cu2_2 I2 1_555 1_555
Cu1_2 I2 1_555 1_555
Cu2C N1 1_555 1_555
Cu2 I2_2 1_555 1_555
C2 N2 1_555 1_555
C3 C8 1_555 1_555
C7 C8 1_555 1_555

#END
