
#######################################################################
#
#                 Cambridge Crystallographic Data Centre
#                                CCDC 
#
#######################################################################
#
# If this CIF has been generated from an entry in the Cambridge 
# Structural Database, then it will include bibliographic, chemical, 
# crystal, experimental, refinement or atomic coordinate data resulting 
# from the CCDC's data processing and validation procedures.
#
#######################################################################

data_VEVHIP
_symmetry_cell_setting           orthorhombic
_symmetry_space_group_name_H-M   'P c c n'
_symmetry_Int_Tables_number      56
_space_group_name_Hall           '-P 2ab 2ac'
loop_
_symmetry_equiv_pos_site_id
_symmetry_equiv_pos_as_xyz
1 x,y,z
2 1/2-x,1/2-y,z
3 1/2+x,-y,1/2-z
4 -x,1/2+y,1/2-z
5 -x,-y,-z
6 1/2+x,1/2+y,-z
7 1/2-x,y,1/2+z
8 x,1/2-y,1/2+z
_cell_length_a                   8.5611(10)
_cell_length_b                   13.6327(11)
_cell_length_c                   14.2819(14)
_cell_angle_alpha                90
_cell_angle_beta                 90
_cell_angle_gamma                90
_cell_volume                     1666.85
loop_
_atom_site_label
_atom_site_type_symbol
_atom_site_fract_x
_atom_site_fract_y
_atom_site_fract_z
Cd1 Cd 0.2500 0.2500 0.39224(3)
Br1 Br 0.00014(5) 0.27514(4) 0.48743(3)
N1 N 0.1431(4) -0.03152(19) 0.2637(2)
N2 N 0.2067(4) 0.1193(2) 0.3008(2)
C1 C 0.1845(5) 0.0296(3) 0.3341(3)
C2 C 0.1414(5) 0.0224(3) 0.1831(3)
H1 H 0.1182 -0.0005 0.1234
C3 C 0.1793(5) 0.1145(3) 0.2063(3)
H2 H 0.1860 0.1670 0.1648
C4 C 0.1168(5) -0.1377(2) 0.2694(3)
H3 H 0.0473 -0.1574 0.2191
H4 H 0.0657 -0.1529 0.3283
C5 C 0.2661(4) -0.1954(3) 0.2625(3)
H5 H 0.3330 -0.1792 0.3151
H6 H 0.3205 -0.1777 0.2054
C6 C 0.2058(6) -0.0022(3) 0.4326(3)
H7 H 0.2992 -0.0408 0.4376
H8 H 0.1176 -0.0408 0.4517
H9 H 0.2143 0.0544 0.4723
N1A N 0.3569(4) -0.46848(19) 0.2637(2)
N2A N 0.2933(4) -0.6193(2) 0.3008(2)
C1A C 0.3155(5) -0.5296(3) 0.3341(3)
C2A C 0.3586(5) -0.5224(3) 0.1831(3)
H1A H 0.3818 -0.4995 0.1234
C3A C 0.3207(5) -0.6145(3) 0.2063(3)
H2A H 0.3140 -0.6670 0.1648
C4A C 0.3832(5) -0.3623(2) 0.2694(3)
H3A H 0.4527 -0.3426 0.2191
H4A H 0.4343 -0.3471 0.3283
C5A C 0.2339(4) -0.3046(3) 0.2625(3)
H5A H 0.1670 -0.3208 0.3151
H6A H 0.1795 -0.3223 0.2054
C6A C 0.2942(6) -0.4978(3) 0.4326(3)
H7A H 0.2008 -0.4592 0.4376
H8A H 0.3824 -0.4592 0.4517
H9A H 0.2857 -0.5544 0.4723
Br1A Br 0.49986(5) 0.22486(4) 0.48743(3)
Cd1_2 Cd 0.2500 -0.7500 0.39224(3)
N2A_2 N 0.2933(4) 0.3807(2) 0.3008(2)
loop_
_geom_bond_atom_site_label_1
_geom_bond_atom_site_label_2
_geom_bond_site_symmetry_1
_geom_bond_site_symmetry_2
Cd1 Br1 1_555 1_555
N1 C1 1_555 1_555
N2 Cd1 1_555 1_555
C1 N2 1_555 1_555
C2 N1 1_555 1_555
H1 C2 1_555 1_555
C3 N2 1_555 1_555
H2 C3 1_555 1_555
C4 N1 1_555 1_555
H3 C4 1_555 1_555
H4 C4 1_555 1_555
C5 C4 1_555 1_555
H5 C5 1_555 1_555
H6 C5 1_555 1_555
C6 C1 1_555 1_555
H7 C6 1_555 1_555
H8 C6 1_555 1_555
H9 C6 1_555 1_555
N1A C1A 1_555 1_555
N2A C1A 1_555 1_555
C1A C6A 1_555 1_555
C2A N1A 1_555 1_555
H1A C2A 1_555 1_555
C3A N2A 1_555 1_555
H2A C3A 1_555 1_555
C4A N1A 1_555 1_555
H3A C4A 1_555 1_555
H4A C4A 1_555 1_555
C5A C5 1_555 1_555
H5A C5A 1_555 1_555
H6A C5A 1_555 1_555
C6A H7A 1_555 1_555
H8A C6A 1_555 1_555
H9A C6A 1_555 1_555
Br1A Cd1 1_555 1_555
Cd1_2 N2A 1_555 1_555
N2A_2 Cd1 1_555 1_555
C2 C3 1_555 1_555
C2A C3A 1_555 1_555
C4A C5A 1_555 1_555

#END
