
#######################################################################
#
#                 Cambridge Crystallographic Data Centre
#                                CCDC 
#
#######################################################################
#
# If this CIF has been generated from an entry in the Cambridge 
# Structural Database, then it will include bibliographic, chemical, 
# crystal, experimental, refinement or atomic coordinate data resulting 
# from the CCDC's data processing and validation procedures.
#
#######################################################################

data_VEVJEL
_symmetry_cell_setting           triclinic
_symmetry_space_group_name_H-M   'P -1'
_symmetry_Int_Tables_number      2
_space_group_name_Hall           '-P 1'
loop_
_symmetry_equiv_pos_site_id
_symmetry_equiv_pos_as_xyz
1 x,y,z
2 -x,-y,-z
_cell_length_a                   8.4327(5)
_cell_length_b                   10.4990(9)
_cell_length_c                   13.907(1)
_cell_angle_alpha                74.083(3)
_cell_angle_beta                 77.501(2)
_cell_angle_gamma                62.8164(8)
_cell_volume                     1047.27
loop_
_atom_site_label
_atom_site_type_symbol
_atom_site_fract_x
_atom_site_fract_y
_atom_site_fract_z
Br1 Br 0.36822(4) 0.70875(3) -0.48570(2)
Cu1 Cu 0.37748(5) 0.46117(4) -0.41547(3)
P1 P 0.38775(10) 0.37714(9) -0.25559(5)
O1 O 0.5830(3) 0.2991(3) -0.21981(15)
O2 O 0.2901(3) 0.4849(3) -0.17578(17)
O3 O 0.3007(4) 0.2631(3) -0.20561(17)
N1 N 0.8456(3) 0.5134(3) -0.52984(18)
C1 C 0.8393(4) 0.5956(3) -0.4706(2)
C2 C 0.9923(4) 0.5821(4) -0.4411(3)
C3 C 0.6277(4) 0.2464(3) -0.1202(2)
C4 C 0.6507(5) 0.3343(4) -0.0742(3)
C5 C 0.7089(6) 0.2779(5) 0.0211(3)
C6 C 0.7440(6) 0.1376(6) 0.0668(3)
C7 C 0.7191(7) 0.0516(5) 0.0196(3)
C8 C 0.6600(6) 0.1058(4) -0.0748(3)
C9 C 0.1102(4) 0.5832(4) -0.1812(2)
C10 C -0.0221(5) 0.5429(4) -0.1260(3)
C11 C -0.1989(5) 0.6461(5) -0.1286(4)
C12 C -0.2402(5) 0.7814(5) -0.1869(4)
C13 C -0.1078(6) 0.8199(4) -0.2428(3)
C14 C 0.0694(5) 0.7207(4) -0.2398(3)
C15 C 0.2564(4) 0.1979(3) -0.2658(2)
C16 C 0.3845(5) 0.1003(4) -0.3200(3)
C17 C 0.3332(6) 0.0345(4) -0.3737(3)
C18 C 0.1551(7) 0.0687(5) -0.3735(3)
C19 C 0.0287(6) 0.1683(5) -0.3194(3)
C20 C 0.0785(5) 0.2321(4) -0.2644(3)
H1 H 1.2713 0.3361 -0.5515
H2 H 1.0177 0.3582 -0.6005
H3 H 0.6280 0.4304 -0.1058
H4 H 0.7238 0.3374 0.0538
H5 H 0.7849 0.1003 0.1301
H6 H 0.7420 -0.0445 0.0512
H7 H 0.6426 0.0469 -0.1068
H8 H 0.0063 0.4489 -0.0880
H9 H -0.2899 0.6222 -0.0900
H10 H -0.3595 0.8488 -0.1890
H11 H -0.1376 0.9130 -0.2827
H12 H 0.1601 0.7464 -0.2770
H13 H 0.5050 0.0780 -0.3210
H14 H 0.4201 -0.0334 -0.4102
H15 H 0.1213 0.0245 -0.4098
H16 H -0.0921 0.1932 -0.3197
H17 H -0.0081 0.2982 -0.2264
Br1A Br 0.63178(4) 0.29125(3) -0.51430(2)
Cu1A Cu 0.62252(5) 0.53883(4) -0.58453(3)
P1A P 0.61225(10) 0.62286(9) -0.74441(5)
O1A O 0.4170(3) 0.7009(3) -0.78019(15)
C3A C 0.3723(4) 0.7536(3) -0.8798(2)
C4A C 0.3493(5) 0.6657(4) -0.9258(3)
C5A C 0.2911(6) 0.7221(5) -1.0211(3)
C6A C 0.2560(6) 0.8624(6) -1.0668(3)
C7A C 0.2809(7) 0.9484(5) -1.0196(3)
C8A C 0.3400(6) 0.8942(4) -0.9252(3)
H7A H 0.3574 0.9531 -0.8932
H6A H 0.2580 1.0445 -1.0512
H5A H 0.2151 0.8997 -1.1301
H4A H 0.2762 0.6626 -1.0538
H3A H 0.3720 0.5696 -0.8942
O2A O 0.7099(3) 0.5151(3) -0.82422(17)
C9A C 0.8898(4) 0.4168(4) -0.8188(2)
C10A C 1.0221(5) 0.4571(4) -0.8740(3)
C11A C 1.1989(5) 0.3539(5) -0.8714(4)
C12A C 1.2402(5) 0.2186(5) -0.8131(4)
C13A C 1.1078(6) 0.1801(4) -0.7572(3)
C14A C 0.9306(5) 0.2793(4) -0.7602(3)
H12A H 0.8399 0.2536 -0.7230
H11A H 1.1376 0.0870 -0.7173
H10A H 1.3595 0.1512 -0.8110
H9A H 1.2899 0.3778 -0.9100
H8A H 0.9937 0.5511 -0.9120
O3A O 0.6993(4) 0.7369(3) -0.79439(17)
C15A C 0.7436(4) 0.8021(3) -0.7342(2)
C16A C 0.6155(5) 0.8997(4) -0.6800(3)
C17A C 0.6668(6) 0.9655(4) -0.6263(3)
C18A C 0.8449(7) 0.9313(5) -0.6265(3)
C19A C 0.9713(6) 0.8317(5) -0.6806(3)
C20A C 0.9215(5) 0.7679(4) -0.7356(3)
H17A H 1.0081 0.7018 -0.7736
H16A H 1.0921 0.8068 -0.6803
H15A H 0.8787 0.9755 -0.5902
H14A H 0.5799 1.0334 -0.5898
H13A H 0.4950 0.9220 -0.6790
N1A N 0.1544(3) 0.4866(3) -0.47016(18)
N1A_2 N 1.1544(3) 0.4866(3) -0.47016(18)
Cu1_2 Cu 1.37748(5) 0.46117(4) -0.41547(3)
C1A C 1.1607(4) 0.4044(3) -0.5294(2)
C2A C 1.0077(4) 0.4179(4) -0.5589(3)
H2A H 0.9823 0.6418 -0.3995
H1A H 0.7287 0.6639 -0.4485
loop_
_geom_bond_atom_site_label_1
_geom_bond_atom_site_label_2
_geom_bond_site_symmetry_1
_geom_bond_site_symmetry_2
Br1 Cu1 1_555 1_555
Cu1 P1 1_555 1_555
P1 O1 1_555 1_555
O1 C3 1_555 1_555
O2 P1 1_555 1_555
O3 P1 1_555 1_555
N1 C1 1_555 1_555
C1 C2 1_555 1_555
C2 N1A_2 1_555 1_555
C3 C4 1_555 1_555
C4 C5 1_555 1_555
C5 C6 1_555 1_555
C6 C7 1_555 1_555
C7 C8 1_555 1_555
C8 C3 1_555 1_555
C9 O2 1_555 1_555
C10 C9 1_555 1_555
C11 C10 1_555 1_555
C12 C11 1_555 1_555
C13 C12 1_555 1_555
C14 C9 1_555 1_555
C15 O3 1_555 1_555
C16 C15 1_555 1_555
C17 C16 1_555 1_555
C18 C17 1_555 1_555
C19 C18 1_555 1_555
C20 C15 1_555 1_555
H1 C1A 1_555 1_555
H2 C2A 1_555 1_555
H3 C4 1_555 1_555
H4 C5 1_555 1_555
H5 C6 1_555 1_555
H6 C7 1_555 1_555
H7 C8 1_555 1_555
H8 C10 1_555 1_555
H9 C11 1_555 1_555
H10 C12 1_555 1_555
H11 C13 1_555 1_555
H12 C14 1_555 1_555
H13 C16 1_555 1_555
H14 C17 1_555 1_555
H15 C18 1_555 1_555
H16 C19 1_555 1_555
H17 C20 1_555 1_555
Br1A Cu1 1_555 1_555
Cu1A Br1 1_555 1_555
P1A Cu1A 1_555 1_555
O1A P1A 1_555 1_555
C3A O1A 1_555 1_555
C4A C3A 1_555 1_555
C5A C4A 1_555 1_555
C6A C5A 1_555 1_555
C7A C6A 1_555 1_555
C8A C3A 1_555 1_555
H7A C8A 1_555 1_555
H6A C7A 1_555 1_555
H5A C6A 1_555 1_555
H4A C5A 1_555 1_555
H3A C4A 1_555 1_555
O2A P1A 1_555 1_555
C9A O2A 1_555 1_555
C10A C9A 1_555 1_555
C11A C10A 1_555 1_555
C12A C11A 1_555 1_555
C13A C12A 1_555 1_555
C14A C9A 1_555 1_555
H12A C14A 1_555 1_555
H11A C13A 1_555 1_555
H10A C12A 1_555 1_555
H9A C11A 1_555 1_555
H8A C10A 1_555 1_555
O3A P1A 1_555 1_555
C15A O3A 1_555 1_555
C16A C15A 1_555 1_555
C17A C16A 1_555 1_555
C18A C17A 1_555 1_555
C19A C18A 1_555 1_555
C20A C15A 1_555 1_555
H17A C20A 1_555 1_555
H16A C19A 1_555 1_555
H15A C18A 1_555 1_555
H14A C17A 1_555 1_555
H13A C16A 1_555 1_555
N1A Cu1 1_555 1_555
N1A_2 Cu1_2 1_555 1_555
C1A N1A_2 1_555 1_555
C2A N1 1_555 1_555
H2A C2 1_555 1_555
H1A C1 1_555 1_555
N1 Cu1A 1_555 1_555
C13 C14 1_555 1_555
C19 C20 1_555 1_555
Br1A Cu1A 1_555 1_555
C7A C8A 1_555 1_555
C13A C14A 1_555 1_555
C19A C20A 1_555 1_555
C1A C2A 1_555 1_555

#END
