
#######################################################################
#
#                 Cambridge Crystallographic Data Centre
#                                CCDC 
#
#######################################################################
#
# If this CIF has been generated from an entry in the Cambridge 
# Structural Database, then it will include bibliographic, chemical, 
# crystal, experimental, refinement or atomic coordinate data resulting 
# from the CCDC's data processing and validation procedures.
#
#######################################################################

data_VEVJUD
_symmetry_cell_setting           cubic
_symmetry_space_group_name_H-M   'I a -3 d'
_symmetry_Int_Tables_number      230
_space_group_name_Hall           '-I 4bd 2c 3'
loop_
_symmetry_equiv_pos_site_id
_symmetry_equiv_pos_as_xyz
1 x,y,z
2 1/4-y,3/4+x,1/4+z
3 -x,1/2-y,z
4 1/4+y,1/4-x,3/4+z
5 1/4+x,1/4-z,3/4+y
6 x,-y,1/2-z
7 3/4+x,1/4+z,1/4-y
8 3/4+z,1/4+y,1/4-x
9 1/2-x,y,-z
10 1/4-z,3/4+y,1/4+x
11 z,x,y
12 y,z,x
13 -y,1/2-z,x
14 z,-x,1/2-y
15 1/2-y,z,-x
16 -z,1/2-x,y
17 1/2-z,x,-y
18 y,-z,1/2-x
19 3/4+y,1/4+x,1/4-z
20 1/4-y,1/4-x,1/4-z
21 1/4-x,3/4+z,1/4+y
22 1/4-x,1/4-z,1/4-y
23 1/4+z,1/4-y,3/4+x
24 1/4-z,1/4-y,1/4-x
25 1/2+x,1/2+y,1/2+z
26 3/4-y,1/4+x,3/4+z
27 1/2-x,-y,1/2+z
28 3/4+y,3/4-x,1/4+z
29 3/4+x,3/4-z,1/4+y
30 1/2+x,1/2-y,-z
31 1/4+x,3/4+z,3/4-y
32 1/4+z,3/4+y,3/4-x
33 -x,1/2+y,1/2-z
34 3/4-z,1/4+y,3/4+x
35 1/2+z,1/2+x,1/2+y
36 1/2+y,1/2+z,1/2+x
37 1/2-y,-z,1/2+x
38 1/2+z,1/2-x,-y
39 -y,1/2+z,1/2-x
40 1/2-z,-x,1/2+y
41 -z,1/2+x,1/2-y
42 1/2+y,1/2-z,-x
43 1/4+y,3/4+x,3/4-z
44 3/4-y,3/4-x,3/4-z
45 3/4-x,1/4+z,3/4+y
46 3/4-x,3/4-z,3/4-y
47 3/4+z,3/4-y,1/4+x
48 3/4-z,3/4-y,3/4-x
49 -x,-y,-z
50 3/4+y,1/4-x,3/4-z
51 x,1/2+y,-z
52 3/4-y,3/4+x,1/4-z
53 3/4-x,3/4+z,1/4-y
54 -x,y,1/2+z
55 1/4-x,3/4-z,3/4+y
56 1/4-z,3/4-y,3/4+x
57 1/2+x,-y,z
58 3/4+z,1/4-y,3/4-x
59 -z,-x,-y
60 -y,-z,-x
61 y,1/2+z,-x
62 -z,x,1/2+y
63 1/2+y,-z,x
64 z,1/2+x,-y
65 1/2+z,-x,y
66 -y,z,1/2+x
67 1/4-y,3/4-x,3/4+z
68 3/4+y,3/4+x,3/4+z
69 3/4+x,1/4-z,3/4-y
70 3/4+x,3/4+z,3/4+y
71 3/4-z,3/4+y,1/4-x
72 3/4+z,3/4+y,3/4+x
73 1/2-x,1/2-y,1/2-z
74 1/4+y,3/4-x,1/4-z
75 1/2+x,y,1/2-z
76 1/4-y,1/4+x,3/4-z
77 1/4-x,1/4+z,3/4-y
78 1/2-x,1/2+y,z
79 3/4-x,1/4-z,1/4+y
80 3/4-z,1/4-y,1/4+x
81 x,1/2-y,1/2+z
82 1/4+z,3/4-y,1/4-x
83 1/2-z,1/2-x,1/2-y
84 1/2-y,1/2-z,1/2-x
85 1/2+y,z,1/2-x
86 1/2-z,1/2+x,y
87 y,1/2-z,1/2+x
88 1/2+z,x,1/2-y
89 z,1/2-x,1/2+y
90 1/2-y,1/2+z,x
91 3/4-y,1/4-x,1/4+z
92 1/4+y,1/4+x,1/4+z
93 1/4+x,3/4-z,1/4-y
94 1/4+x,1/4+z,1/4+y
95 1/4-z,1/4+y,3/4-x
96 1/4+z,1/4+y,1/4+x
_cell_length_a                   41.856(3)
_cell_length_b                   41.856(3)
_cell_length_c                   41.856(3)
_cell_angle_alpha                90
_cell_angle_beta                 90
_cell_angle_gamma                90
_cell_volume                     73328.6
loop_
_atom_site_label
_atom_site_type_symbol
_atom_site_fract_x
_atom_site_fract_y
_atom_site_fract_z
I1 I 0.802052(15) 0.661963(16) 0.016083(15)
Cu1 Cu 0.73887(2) 0.73740(2) 0.19622(2)
Cu2 Cu 0.73892(3) 0.64831(3) 0.02981(2)
S1 S 0.78601(4) 0.68833(4) 0.23944(4)
C1 C 0.7452(3) 0.6710(3) 0.0952(2)
H1 H 0.7589 0.6529 0.0962
C2 C 0.7418(3) 0.6899(3) 0.1227(3)
C3 C 0.7107(4) 0.7022(3) 0.0675(3)
H2 H 0.6982 0.7057 0.0489
C4 C 0.7217(4) 0.7155(3) 0.1213(3)
H3 H 0.7174 0.7279 0.1398
C5 C 0.7080(4) 0.7227(3) 0.0926(3)
H4 H 0.6966 0.7422 0.0901
N1 N 0.7306(2) 0.67683(19) 0.06849(17)
N2 N 0.75885(16) 0.69773(15) 0.18014(15)
N3 N 0.7796(3) 0.6564(3) 0.1527(2)
H5 H 0.7852 0.6438 0.1368
C6 C 0.7590(3) 0.6814(2) 0.1529(2)
N4 N 0.7895(3) 0.6561(3) 0.1841(2)
C7 C 0.7780(2) 0.68047(19) 0.20050(18)
I1H I 0.697948(15) 0.661963(16) -0.016083(15)
I1AC I 0.733917(15) 0.588037(16) 0.052052(15)
Cu1HB Cu 0.73740(2) 0.69622(2) 0.26113(2)
Cu1IB Cu 0.80378(2) 0.73887(2) 0.23740(2)
Cu2H Cu 0.76108(3) 0.64831(3) -0.02981(2)
Cu2EB Cu 0.77981(2) 0.60169(3) 0.01108(3)
S1HB S 0.68833(4) 0.73944(4) 0.21399(4)
S1IB S 0.76056(4) 0.78601(4) 0.18833(4)
loop_
_geom_bond_atom_site_label_1
_geom_bond_atom_site_label_2
_geom_bond_site_symmetry_1
_geom_bond_site_symmetry_2
I1 Cu2 1_555 1_555
Cu1 N2 1_555 1_555
Cu2 N1 1_555 1_555
S1 C7 1_555 1_555
C1 H1 1_555 1_555
C2 C1 1_555 1_555
C3 H2 1_555 1_555
C4 C2 1_555 1_555
H3 C4 1_555 1_555
C5 C3 1_555 1_555
H4 C5 1_555 1_555
N1 C1 1_555 1_555
N2 C6 1_555 1_555
N3 H5 1_555 1_555
C6 C2 1_555 1_555
N4 N3 1_555 1_555
C7 N2 1_555 1_555
I1H Cu2 1_555 1_555
I1AC Cu2 1_555 1_555
Cu1HB S1 1_555 1_555
Cu1IB S1 1_555 1_555
Cu2H I1 1_555 1_555
Cu2EB I1 1_555 1_555
S1HB Cu1 1_555 1_555
S1IB Cu1 1_555 1_555
C3 N1 1_555 1_555
C4 C5 1_555 1_555
N3 C6 1_555 1_555
N4 C7 1_555 1_555
I1H Cu2H 1_555 1_555
I1AC Cu2EB 1_555 1_555

#END
