
#######################################################################
#
#                 Cambridge Crystallographic Data Centre
#                                CCDC 
#
#######################################################################
#
# If this CIF has been generated from an entry in the Cambridge 
# Structural Database, then it will include bibliographic, chemical, 
# crystal, experimental, refinement or atomic coordinate data resulting 
# from the CCDC's data processing and validation procedures.
#
#######################################################################

data_VEVNOA
_symmetry_cell_setting           orthorhombic
_symmetry_space_group_name_H-M   'P c a 21'
_symmetry_Int_Tables_number      29
_space_group_name_Hall           'P 2c -2ac'
loop_
_symmetry_equiv_pos_site_id
_symmetry_equiv_pos_as_xyz
1 x,y,z
2 -x,-y,1/2+z
3 1/2-x,y,1/2+z
4 1/2+x,-y,z
_cell_length_a                   30.7323(5)
_cell_length_b                   8.30830(1)
_cell_length_c                   9.2173(2)
_cell_angle_alpha                90
_cell_angle_beta                 90
_cell_angle_gamma                90
_cell_volume                     2353.48
loop_
_atom_site_label
_atom_site_type_symbol
_atom_site_fract_x
_atom_site_fract_y
_atom_site_fract_z
C1 C 0.70684(9) -0.5042(3) 0.9623(3)
C2 C 0.73890(10) -0.3836(4) 0.9739(4)
C3 C 0.72423(10) -0.2631(4) 0.8856(4)
C4 C 0.70693(10) -0.6628(3) 1.0333(3)
C5 C 0.73247(13) -0.6916(4) 1.1533(4)
C6 C 0.68174(11) -0.9229(4) 1.0393(3)
C7 C 0.70697(12) -0.9604(4) 1.1565(4)
C8 C 0.73274(13) -0.8429(4) 1.2144(5)
C9 C 0.63485(9) -0.4477(3) 0.4065(3)
C10 C 0.64868(11) -0.3072(4) 0.3368(4)
C11 C 0.65915(10) -0.2037(4) 0.4461(3)
C12 C 0.61771(9) -0.5968(4) 0.3424(3)
C13 C 0.59477(11) -0.8575(4) 0.3729(4)
C14 C 0.58122(12) -0.8685(5) 0.2318(5)
C15 C 0.58682(14) -0.7381(5) 0.1421(4)
C16 C 0.60513(12) -0.6005(5) 0.1978(4)
C17 C 0.55479(9) -0.0369(3) 0.8498(3)
C18 C 0.54846(11) -0.1915(4) 0.9073(4)
C19 C 0.58555(11) -0.2741(4) 0.8708(3)
C20 C 0.52664(9) 0.1059(4) 0.8639(3)
C21 C 0.51240(11) 0.3685(4) 0.8025(4)
C22 C 0.47852(11) 0.3793(4) 0.8990(4)
C23 C 0.46795(11) 0.2466(4) 0.9811(5)
C24 C 0.49229(10) 0.1073(4) 0.9622(4)
B1 B 0.65749(9) -0.2030(4) 0.7264(4)
N1 N 0.68582(8) -0.3085(3) 0.8255(3)
N2 N 0.67482(8) -0.4599(3) 0.8725(3)
N3 N 0.68119(8) -0.7772(3) 0.9757(3)
N4 N 0.65212(8) -0.2781(3) 0.5735(3)
N5 N 0.63693(8) -0.4298(3) 0.5513(2)
N6 N 0.61308(9) -0.7242(3) 0.4294(3)
N7 N 0.61228(8) -0.1739(3) 0.7961(3)
N8 N 0.59317(8) -0.0262(2) 0.7816(3)
N9 N 0.53678(8) 0.2358(3) 0.7828(3)
K1 K 0.62972(2) -0.71429(7) 0.72466(7)
H1 H 0.7647(11) -0.387(4) 1.029(3)
H2 H 0.7363(10) -0.169(4) 0.865(3)
H3 H 0.7468(11) -0.609(3) 1.199(4)
H4 H 0.6628(10) -1.010(4) 0.995(4)
H5 H 0.7076(10) -1.067(4) 1.201(4)
H6 H 0.7507(11) -0.859(3) 1.290(4)
H7 H 0.6506(10) -0.287(4) 0.250(4)
H8 H 0.6729(10) -0.099(4) 0.448(4)
H9 H 0.5933(10) -0.942(4) 0.447(4)
H10 H 0.5703(10) -0.958(4) 0.204(4)
H11 H 0.5802(11) -0.744(4) 0.037(4)
H12 H 0.6112(12) -0.516(4) 0.137(4)
H13 H 0.5228(11) -0.228(4) 0.966(4)
H14 H 0.5960(10) -0.379(4) 0.890(3)
H15 H 0.5207(9) 0.456(4) 0.742(4)
H16 H 0.4624(10) 0.485(4) 0.910(3)
H17 H 0.4436(12) 0.238(4) 1.054(4)
H18 H 0.4855(10) 0.010(4) 1.023(3)
H19 H 0.6748(9) -0.084(3) 0.713(4)
N8_2 N 0.59317(8) -1.0262(2) 0.7816(3)
N9_2 N 0.53678(8) -0.7642(3) 0.7828(3)
K1_2 K 0.62972(2) 0.28571(7) 0.72466(7)
loop_
_geom_bond_atom_site_label_1
_geom_bond_atom_site_label_2
_geom_bond_site_symmetry_1
_geom_bond_site_symmetry_2
C1 C2 1_555 1_555
C2 C3 1_555 1_555
C3 N1 1_555 1_555
C4 C1 1_555 1_555
C5 C4 1_555 1_555
C6 C7 1_555 1_555
C7 C8 1_555 1_555
C8 C5 1_555 1_555
C9 C10 1_555 1_555
C10 C11 1_555 1_555
C11 N4 1_555 1_555
C12 C9 1_555 1_555
C13 C14 1_555 1_555
C14 C15 1_555 1_555
C15 C16 1_555 1_555
C16 C12 1_555 1_555
C17 C18 1_555 1_555
C18 C19 1_555 1_555
C19 N7 1_555 1_555
C20 C17 1_555 1_555
C21 C22 1_555 1_555
C22 C23 1_555 1_555
C23 C24 1_555 1_555
C24 C20 1_555 1_555
B1 N1 1_555 1_555
N1 N2 1_555 1_555
N2 C1 1_555 1_555
N3 C4 1_555 1_555
N4 B1 1_555 1_555
N5 C9 1_555 1_555
N6 C12 1_555 1_555
N7 B1 1_555 1_555
N8 C17 1_555 1_555
N9 C20 1_555 1_555
K1 N2 1_555 1_555
H1 C2 1_555 1_555
H2 C3 1_555 1_555
H3 C5 1_555 1_555
H4 C6 1_555 1_555
H5 C7 1_555 1_555
H6 C8 1_555 1_555
H7 C10 1_555 1_555
H8 C11 1_555 1_555
H9 C13 1_555 1_555
H10 C14 1_555 1_555
H11 C15 1_555 1_555
H12 C16 1_555 1_555
H13 C18 1_555 1_555
H14 C19 1_555 1_555
H15 C21 1_555 1_555
H16 C22 1_555 1_555
H17 C23 1_555 1_555
H18 C24 1_555 1_555
H19 B1 1_555 1_555
N8_2 K1 1_555 1_555
N9_2 K1 1_555 1_555
K1_2 N8 1_555 1_555
C6 N3 1_555 1_555
C13 N6 1_555 1_555
C21 N9 1_555 1_555
N3 K1 1_555 1_555
N4 N5 1_555 1_555
N5 K1 1_555 1_555
N6 K1 1_555 1_555
N7 N8 1_555 1_555
N9 K1_2 1_555 1_555

#END
