
#######################################################################
#
#                 Cambridge Crystallographic Data Centre
#                                CCDC 
#
#######################################################################
#
# If this CIF has been generated from an entry in the Cambridge 
# Structural Database, then it will include bibliographic, chemical, 
# crystal, experimental, refinement or atomic coordinate data resulting 
# from the CCDC's data processing and validation procedures.
#
#######################################################################

data_VEVRIZ
_symmetry_cell_setting           monoclinic
_symmetry_space_group_name_H-M   'P c'
_symmetry_Int_Tables_number      7
_space_group_name_Hall           'P -2yc'
loop_
_symmetry_equiv_pos_site_id
_symmetry_equiv_pos_as_xyz
1 x,y,z
2 x,-y,1/2+z
_cell_length_a                   7.9268(5)
_cell_length_b                   9.8740(5)
_cell_length_c                   7.8131(5)
_cell_angle_alpha                90
_cell_angle_beta                 108.318(5)
_cell_angle_gamma                90
_cell_volume                     580.537
loop_
_atom_site_label
_atom_site_type_symbol
_atom_site_fract_x
_atom_site_fract_y
_atom_site_fract_z
Cd1 Cd 0.27061(12) 0.25282(3) -0.07151(13)
S1 S 0.08432(14) 0.28622(14) 0.15564(15)
S2 S 0.43074(19) -0.21372(16) 0.17616(16)
O1 O 0.9810(5) 0.2054(4) 0.6987(5)
N1 N 0.2282(6) 0.5287(4) 0.3264(6)
N2 N 0.2955(7) 0.0272(4) 0.0050(6)
N3 N 0.5321(5) 0.3149(3) 0.1562(5)
C1 C 0.1728(7) 0.4276(4) 0.2556(6)
C2 C 0.3477(7) -0.0712(4) 0.0763(6)
C3 C 0.5906(4) 0.4426(3) 0.1684(4)
H1 H 0.5282 0.5048 0.0824
C4 C 0.7404(6) 0.4862(4) 0.3036(7)
H2 H 0.7786 0.5755 0.3075
C5 C 0.8303(4) 0.3952(3) 0.4307(4)
H3 H 0.9322 0.4224 0.5210
C6 C 0.7713(15) 0.2612(4) 0.4272(17)
C7 C 0.6206(4) 0.2269(3) 0.2823(4)
H4 H 0.5802 0.1380 0.2737
C8 C 0.8713(4) 0.1641(4) 0.5648(4)
C9 C 0.8340(8) 0.0166(5) 0.5388(8)
H5 H 0.9081 -0.0321 0.6412
H6 H 0.8585 -0.0132 0.4320
H7 H 0.7114 -0.0001 0.5262
Cd1_2 Cd 1.27061(12) 0.25282(3) 0.92849(13)
Cd1A Cd 0.27061(12) -0.25282(3) 0.42849(13)
Cd1A_2 Cd 0.27061(12) 0.74718(3) 0.42849(13)
S2A S 0.43074(19) 0.21372(16) -0.32384(16)
O1_2 O -0.0190(5) 0.2054(4) -0.3013(5)
N1A N 0.2282(6) 0.4713(4) -0.1736(6)
loop_
_geom_bond_atom_site_label_1
_geom_bond_atom_site_label_2
_geom_bond_site_symmetry_1
_geom_bond_site_symmetry_2
Cd1 S1 1_555 1_555
S1 C1 1_555 1_555
S2 C2 1_555 1_555
O1 C8 1_555 1_555
N1 C1 1_555 1_555
N2 Cd1 1_555 1_555
N3 Cd1 1_555 1_555
C2 N2 1_555 1_555
C3 N3 1_555 1_555
H1 C3 1_555 1_555
C4 C3 1_555 1_555
H2 C4 1_555 1_555
C5 C4 1_555 1_555
H3 C5 1_555 1_555
C6 C5 1_555 1_555
C7 N3 1_555 1_555
H4 C7 1_555 1_555
C8 C6 1_555 1_555
C9 C8 1_555 1_555
H5 C9 1_555 1_555
H6 C9 1_555 1_555
H7 C9 1_555 1_555
Cd1_2 O1 1_555 1_555
Cd1A S2 1_555 1_555
Cd1A_2 N1 1_555 1_555
S2A Cd1 1_555 1_555
O1_2 Cd1 1_555 1_555
N1A Cd1 1_555 1_555
C6 C7 1_555 1_555

#END
