
#######################################################################
#
#                 Cambridge Crystallographic Data Centre
#                                CCDC 
#
#######################################################################
#
# If this CIF has been generated from an entry in the Cambridge 
# Structural Database, then it will include bibliographic, chemical, 
# crystal, experimental, refinement or atomic coordinate data resulting 
# from the CCDC's data processing and validation procedures.
#
#######################################################################

data_VEVYEB
_symmetry_cell_setting           triclinic
_symmetry_space_group_name_H-M   'P -1'
_symmetry_Int_Tables_number      2
_space_group_name_Hall           '-P 1'
loop_
_symmetry_equiv_pos_site_id
_symmetry_equiv_pos_as_xyz
1 x,y,z
2 -x,-y,-z
_cell_length_a                   9.3712(19)
_cell_length_b                   11.446(2)
_cell_length_c                   12.627(3)
_cell_angle_alpha                65.86(3)
_cell_angle_beta                 73.89(3)
_cell_angle_gamma                86.84(3)
_cell_volume                     1184.79
loop_
_atom_site_label
_atom_site_type_symbol
_atom_site_fract_x
_atom_site_fract_y
_atom_site_fract_z
Gd1 Gd 0.25073(2) -0.027450(19) 0.483720(18)
O1 O 0.3683(3) 0.1971(2) 0.3872(2)
O2 O 0.2096(3) 0.1549(2) 0.3063(2)
O3 O 0.0568(3) 0.0807(3) 0.5595(2)
O4 O -0.1667(3) 0.1517(3) 0.5980(3)
O5 O 0.4552(3) -0.0161(3) 0.3180(3)
O6 O 0.6451(3) 0.0193(3) 0.3759(2)
O7 O 0.0815(3) -0.1916(3) 0.6606(2)
O8 O 0.3771(3) -0.2314(3) 0.5526(3)
N1 N 0.1608(5) 0.5997(4) -0.1414(4)
N2 N 0.5062(6) 0.3595(6) 0.6302(5)
N3 N 1.1781(6) 0.2541(5) -0.0462(5)
C1 C 0.2104(6) 0.5663(4) -0.0629(4)
C2 C 0.2768(5) 0.5283(4) 0.0352(4)
C3 C 0.3623(5) 0.6179(4) 0.0420(4)
H1 H 0.3771 0.7016 -0.0168
C4 C 0.4260(6) 0.5833(4) 0.1362(4)
H2 H 0.4825 0.6439 0.1416
C5 C 0.4056(5) 0.4595(4) 0.2214(4)
H3 H 0.4486 0.4364 0.2847
C6 C 0.3217(4) 0.3682(4) 0.2148(3)
C7 C 0.2560(4) 0.4029(4) 0.1215(4)
H4 H 0.1984 0.3425 0.1168
C8 C 0.2981(4) 0.2323(4) 0.3078(3)
C9 C 0.3849(6) 0.3607(6) 0.6343(5)
C10 C 0.2295(5) 0.3595(5) 0.6366(4)
C11 C 0.1376(6) 0.4465(5) 0.6624(5)
H5 H 0.1740 0.5093 0.6788
C12 C -0.0085(6) 0.4409(5) 0.6641(5)
H6 H -0.0714 0.5002 0.6820
C13 C -0.0639(5) 0.3477(4) 0.6393(4)
H7 H -0.1631 0.3453 0.6398
C14 C 0.0280(4) 0.2592(4) 0.6141(3)
C15 C 0.1757(5) 0.2651(4) 0.6119(4)
H8 H 0.2392 0.2062 0.5940
C16 C -0.0307(4) 0.1562(4) 0.5881(3)
C17 C 1.0641(7) 0.2021(5) -0.0151(5)
C18 C 0.9180(5) 0.1375(4) 0.0217(4)
C19 C 0.8676(7) 0.1151(5) -0.0610(5)
H9 H 0.9267 0.1407 -0.1403
C20 C 0.7291(7) 0.0546(6) -0.0258(5)
H10 H 0.6958 0.0367 -0.0808
C21 C 0.6389(6) 0.0202(5) 0.0912(4)
H11 H 0.5442 -0.0186 0.1139
C22 C 0.6889(4) 0.0432(4) 0.1741(4)
C23 C 0.8304(5) 0.1002(4) 0.1399(4)
H12 H 0.8665 0.1133 0.1960
C24 C 0.5888(4) 0.0118(3) 0.2988(4)
Gd1A Gd -0.25073(2) 0.027450(19) 0.516280(18)
Gd1A_2 Gd 0.74927(2) 0.027450(19) 0.516280(18)
O4A O 0.1667(3) -0.1517(3) 0.4020(3)
O6A O 0.3549(3) -0.0193(3) 0.6241(2)
loop_
_geom_bond_atom_site_label_1
_geom_bond_atom_site_label_2
_geom_bond_site_symmetry_1
_geom_bond_site_symmetry_2
Gd1 O1 1_555 1_555
O1 C8 1_555 1_555
O2 Gd1 1_555 1_555
O3 Gd1 1_555 1_555
O4 C16 1_555 1_555
O5 Gd1 1_555 1_555
O6 C24 1_555 1_555
O7 Gd1 1_555 1_555
O8 Gd1 1_555 1_555
N1 C1 1_555 1_555
N2 C9 1_555 1_555
N3 C17 1_555 1_555
C1 C2 1_555 1_555
C2 C3 1_555 1_555
C3 H1 1_555 1_555
C4 C3 1_555 1_555
H2 C4 1_555 1_555
C5 C4 1_555 1_555
H3 C5 1_555 1_555
C6 C5 1_555 1_555
C7 C2 1_555 1_555
H4 C7 1_555 1_555
C8 O2 1_555 1_555
C9 C10 1_555 1_555
C10 C11 1_555 1_555
C11 H5 1_555 1_555
C12 C11 1_555 1_555
H6 C12 1_555 1_555
C13 C12 1_555 1_555
H7 C13 1_555 1_555
C14 C13 1_555 1_555
C15 C10 1_555 1_555
H8 C15 1_555 1_555
C16 O3 1_555 1_555
C17 C18 1_555 1_555
C18 C19 1_555 1_555
C19 H9 1_555 1_555
C20 C19 1_555 1_555
H10 C20 1_555 1_555
C21 C20 1_555 1_555
H11 C21 1_555 1_555
C22 C21 1_555 1_555
C23 C18 1_555 1_555
H12 C23 1_555 1_555
C24 O5 1_555 1_555
Gd1A O4 1_555 1_555
Gd1A_2 O6 1_555 1_555
O4A Gd1 1_555 1_555
O6A Gd1 1_555 1_555
C6 C7 1_555 1_555
C6 C8 1_555 1_555
C14 C15 1_555 1_555
C14 C16 1_555 1_555
C22 C23 1_555 1_555
C22 C24 1_555 1_555

#END
