
#######################################################################
#
#                 Cambridge Crystallographic Data Centre
#                                CCDC 
#
#######################################################################
#
# If this CIF has been generated from an entry in the Cambridge 
# Structural Database, then it will include bibliographic, chemical, 
# crystal, experimental, refinement or atomic coordinate data resulting 
# from the CCDC's data processing and validation procedures.
#
#######################################################################

data_VEVYIF
_symmetry_cell_setting           triclinic
_symmetry_space_group_name_H-M   'P -1'
_symmetry_Int_Tables_number      2
_space_group_name_Hall           '-P 1'
loop_
_symmetry_equiv_pos_site_id
_symmetry_equiv_pos_as_xyz
1 x,y,z
2 -x,-y,-z
_cell_length_a                   9.3425(19)
_cell_length_b                   11.432(2)
_cell_length_c                   12.703(3)
_cell_angle_alpha                65.28(3)
_cell_angle_beta                 73.80(3)
_cell_angle_gamma                86.86(3)
_cell_volume                     1180.48
loop_
_atom_site_label
_atom_site_type_symbol
_atom_site_fract_x
_atom_site_fract_y
_atom_site_fract_z
Dy1 Dy 0.252362(18) -0.027738(18) 0.484374(16)
O1 O 0.3692(3) 0.1950(3) 0.3882(2)
O2 O 0.2098(3) 0.1529(3) 0.3084(2)
O3 O 0.0615(3) 0.0790(3) 0.5594(3)
O4 O -0.1641(3) 0.1484(3) 0.5960(3)
O5 O 0.4548(3) -0.0167(3) 0.3215(3)
O6 O 0.6447(3) 0.0216(3) 0.3765(2)
O7 O 0.0829(3) -0.1900(3) 0.6589(3)
O8 O 0.3749(3) -0.2311(3) 0.5526(3)
N1 N 0.1592(6) 0.5986(5) -0.1409(4)
N2 N 0.5056(6) 0.3611(6) 0.6304(6)
N3 N 1.1780(6) 0.2552(6) -0.0453(5)
C1 C 0.2098(6) 0.5647(5) -0.0622(4)
C2 C 0.2760(5) 0.5273(4) 0.0352(4)
C3 C 0.3626(5) 0.6180(4) 0.0415(4)
H1 H 0.3772 0.7025 -0.0174
C4 C 0.4269(6) 0.5829(5) 0.1352(5)
H2 H 0.4845 0.6438 0.1394
C5 C 0.4057(5) 0.4581(4) 0.2220(4)
H3 H 0.4487 0.4349 0.2851
C6 C 0.3211(4) 0.3669(4) 0.2162(3)
C7 C 0.2555(4) 0.4018(4) 0.1228(4)
H4 H 0.1976 0.3407 0.1192
C8 C 0.2986(4) 0.2310(4) 0.3098(3)
C9 C 0.3847(6) 0.3601(6) 0.6356(5)
C10 C 0.2270(5) 0.3581(5) 0.6374(4)
C11 C 0.1351(6) 0.4445(5) 0.6641(5)
H5 H 0.1708 0.5067 0.6816
C12 C -0.0130(6) 0.4381(5) 0.6647(5)
H6 H -0.0772 0.4970 0.6816
C13 C -0.0655(5) 0.3442(5) 0.6401(4)
H7 H -0.1652 0.3402 0.6416
C14 C 0.0276(4) 0.2566(4) 0.6136(3)
C15 C 0.1756(5) 0.2634(4) 0.6124(4)
H8 H 0.2402 0.2049 0.5950
C16 C -0.0272(4) 0.1535(4) 0.5878(3)
C17 C 1.0637(6) 0.2028(6) -0.0146(5)
C18 C 0.9189(5) 0.1372(5) 0.0227(4)
C19 C 0.8670(6) 0.1145(6) -0.0583(5)
H9 H 0.9263 0.1402 -0.1375
C20 C 0.7297(6) 0.0548(7) -0.0236(5)
H10 H 0.6961 0.0369 -0.0780
C21 C 0.6397(6) 0.0205(6) 0.0933(4)
H11 H 0.5446 -0.0187 0.1163
C22 C 0.6888(4) 0.0435(4) 0.1758(4)
C23 C 0.8301(5) 0.1001(4) 0.1417(4)
H12 H 0.8663 0.1136 0.1972
C24 C 0.5885(4) 0.0126(4) 0.3012(3)
Dy1A Dy -0.252362(18) 0.027738(18) 0.515626(16)
Dy1A_2 Dy 0.747638(18) 0.027738(18) 0.515626(16)
O4A O 0.1641(3) -0.1484(3) 0.4040(3)
O6A O 0.3553(3) -0.0216(3) 0.6235(2)
loop_
_geom_bond_atom_site_label_1
_geom_bond_atom_site_label_2
_geom_bond_site_symmetry_1
_geom_bond_site_symmetry_2
Dy1 O1 1_555 1_555
O1 C8 1_555 1_555
O2 Dy1 1_555 1_555
O3 Dy1 1_555 1_555
O4 C16 1_555 1_555
O5 Dy1 1_555 1_555
O6 C24 1_555 1_555
O7 Dy1 1_555 1_555
O8 Dy1 1_555 1_555
N1 C1 1_555 1_555
N2 C9 1_555 1_555
N3 C17 1_555 1_555
C1 C2 1_555 1_555
C2 C3 1_555 1_555
C3 H1 1_555 1_555
C4 C3 1_555 1_555
H2 C4 1_555 1_555
C5 C4 1_555 1_555
H3 C5 1_555 1_555
C6 C5 1_555 1_555
C7 C2 1_555 1_555
H4 C7 1_555 1_555
C8 O2 1_555 1_555
C9 C10 1_555 1_555
C10 C11 1_555 1_555
C11 H5 1_555 1_555
C12 C11 1_555 1_555
H6 C12 1_555 1_555
C13 C12 1_555 1_555
H7 C13 1_555 1_555
C14 C13 1_555 1_555
C15 C10 1_555 1_555
H8 C15 1_555 1_555
C16 O3 1_555 1_555
C17 C18 1_555 1_555
C18 C19 1_555 1_555
C19 H9 1_555 1_555
C20 C19 1_555 1_555
H10 C20 1_555 1_555
C21 C20 1_555 1_555
H11 C21 1_555 1_555
C22 C21 1_555 1_555
C23 C18 1_555 1_555
H12 C23 1_555 1_555
C24 O5 1_555 1_555
Dy1A O4 1_555 1_555
Dy1A_2 O6 1_555 1_555
O4A Dy1 1_555 1_555
O6A Dy1 1_555 1_555
C6 C7 1_555 1_555
C6 C8 1_555 1_555
C14 C15 1_555 1_555
C14 C16 1_555 1_555
C22 C23 1_555 1_555
C22 C24 1_555 1_555

#END
