
#######################################################################
#
#                 Cambridge Crystallographic Data Centre
#                                CCDC 
#
#######################################################################
#
# If this CIF has been generated from an entry in the Cambridge 
# Structural Database, then it will include bibliographic, chemical, 
# crystal, experimental, refinement or atomic coordinate data resulting 
# from the CCDC's data processing and validation procedures.
#
#######################################################################

data_VEVYAX
_symmetry_cell_setting           triclinic
_symmetry_space_group_name_H-M   'P -1'
_symmetry_Int_Tables_number      2
_space_group_name_Hall           '-P 1'
loop_
_symmetry_equiv_pos_site_id
_symmetry_equiv_pos_as_xyz
1 x,y,z
2 -x,-y,-z
_cell_length_a                   9.4063(19)
_cell_length_b                   11.485(2)
_cell_length_c                   12.616(3)
_cell_angle_alpha                66.38(3)
_cell_angle_beta                 74.01(3)
_cell_angle_gamma                86.96(3)
_cell_volume                     1197.88
loop_
_atom_site_label
_atom_site_type_symbol
_atom_site_fract_x
_atom_site_fract_y
_atom_site_fract_z
Nd1 Nd 0.24678(2) -0.026824(19) 0.482325(18)
O1 O 0.3677(3) 0.2001(3) 0.3846(3)
O2 O 0.2108(3) 0.1595(3) 0.3014(2)
O3 O 0.0434(3) 0.0851(3) 0.5595(3)
O4 O -0.1745(3) 0.1611(3) 0.6028(3)
O5 O 0.4574(3) -0.0146(3) 0.3144(3)
O6 O 0.6470(3) 0.0154(3) 0.3744(3)
O7 O 0.0806(3) -0.1954(3) 0.6623(3)
O8 O 0.3785(3) -0.2317(3) 0.5535(3)
N1 N 0.1632(6) 0.6012(4) -0.1414(4)
N2 N 0.5075(6) 0.3582(7) 0.6280(7)
N3 N 1.1757(7) 0.2549(6) -0.0459(6)
C1 C 0.2120(6) 0.5679(4) -0.0634(4)
C2 C 0.2795(5) 0.5302(4) 0.0343(4)
C3 C 0.3642(6) 0.6191(4) 0.0437(4)
H1 H 0.3790 0.7025 -0.0139
C4 C 0.4263(6) 0.5844(5) 0.1380(5)
H2 H 0.4822 0.6443 0.1446
C5 C 0.4053(5) 0.4605(4) 0.2228(4)
H3 H 0.4479 0.4372 0.2861
C6 C 0.3215(4) 0.3701(4) 0.2149(3)
C7 C 0.2576(5) 0.4048(4) 0.1201(4)
H4 H 0.2009 0.3451 0.1140
C8 C 0.2993(4) 0.2360(4) 0.3054(3)
C9 C 0.3864(6) 0.3615(6) 0.6323(6)
C10 C 0.2303(5) 0.3606(5) 0.6352(4)
C11 C 0.1421(6) 0.4502(6) 0.6607(5)
H5 H 0.1809 0.5127 0.6761
C12 C -0.0054(6) 0.4462(5) 0.6631(5)
H6 H -0.0659 0.5069 0.6799
C13 C -0.0645(5) 0.3531(5) 0.6409(4)
H7 H -0.1642 0.3508 0.6437
C14 C 0.0263(4) 0.2632(4) 0.6143(4)
C15 C 0.1742(5) 0.2670(4) 0.6121(4)
H8 H 0.2355 0.2068 0.5952
C16 C -0.0379(5) 0.1628(4) 0.5901(3)
C17 C 1.0628(7) 0.2036(6) -0.0165(5)
C18 C 0.9193(5) 0.1380(5) 0.0200(4)
C19 C 0.8682(7) 0.1154(6) -0.0631(5)
H9 H 0.9265 0.1418 -0.1423
C20 C 0.7322(7) 0.0543(7) -0.0291(5)
H10 H 0.7004 0.0347 -0.0840
C21 C 0.6415(6) 0.0213(6) 0.0873(5)
H11 H 0.5466 -0.0156 0.1088
C22 C 0.6914(4) 0.0430(4) 0.1711(4)
C23 C 0.8317(5) 0.0999(4) 0.1377(4)
H12 H 0.8673 0.1127 0.1943
C24 C 0.5906(4) 0.0119(4) 0.2956(4)
Nd1A Nd -0.24678(2) 0.026824(19) 0.517675(18)
Nd1A_2 Nd 0.75322(2) 0.026824(19) 0.517675(18)
O4A O 0.1745(3) -0.1611(3) 0.3972(3)
O6A O 0.3530(3) -0.0154(3) 0.6256(3)
loop_
_geom_bond_atom_site_label_1
_geom_bond_atom_site_label_2
_geom_bond_site_symmetry_1
_geom_bond_site_symmetry_2
Nd1 O1 1_555 1_555
O1 C8 1_555 1_555
O2 Nd1 1_555 1_555
O3 Nd1 1_555 1_555
O4 C16 1_555 1_555
O5 Nd1 1_555 1_555
O6 C24 1_555 1_555
O7 Nd1 1_555 1_555
O8 Nd1 1_555 1_555
N1 C1 1_555 1_555
N2 C9 1_555 1_555
N3 C17 1_555 1_555
C1 C2 1_555 1_555
C2 C3 1_555 1_555
C3 H1 1_555 1_555
C4 C3 1_555 1_555
H2 C4 1_555 1_555
C5 C4 1_555 1_555
H3 C5 1_555 1_555
C6 C5 1_555 1_555
C7 C2 1_555 1_555
H4 C7 1_555 1_555
C8 O2 1_555 1_555
C9 C10 1_555 1_555
C10 C11 1_555 1_555
C11 H5 1_555 1_555
C12 C11 1_555 1_555
H6 C12 1_555 1_555
C13 C12 1_555 1_555
H7 C13 1_555 1_555
C14 C13 1_555 1_555
C15 C10 1_555 1_555
H8 C15 1_555 1_555
C16 O3 1_555 1_555
C17 C18 1_555 1_555
C18 C19 1_555 1_555
C19 H9 1_555 1_555
C20 C19 1_555 1_555
H10 C20 1_555 1_555
C21 C20 1_555 1_555
H11 C21 1_555 1_555
C22 C21 1_555 1_555
C23 C18 1_555 1_555
H12 C23 1_555 1_555
C24 O5 1_555 1_555
Nd1A O4 1_555 1_555
Nd1A_2 O6 1_555 1_555
O4A Nd1 1_555 1_555
O6A Nd1 1_555 1_555
C6 C7 1_555 1_555
C6 C8 1_555 1_555
C14 C15 1_555 1_555
C14 C16 1_555 1_555
C22 C23 1_555 1_555
C22 C24 1_555 1_555

#END
