
#######################################################################
#
#                 Cambridge Crystallographic Data Centre
#                                CCDC 
#
#######################################################################
#
# If this CIF has been generated from an entry in the Cambridge 
# Structural Database, then it will include bibliographic, chemical, 
# crystal, experimental, refinement or atomic coordinate data resulting 
# from the CCDC's data processing and validation procedures.
#
#######################################################################

data_VEVYEB01
_symmetry_cell_setting           triclinic
_symmetry_space_group_name_H-M   'P -1'
_symmetry_Int_Tables_number      2
_space_group_name_Hall           '-P 1'
loop_
_symmetry_equiv_pos_site_id
_symmetry_equiv_pos_as_xyz
1 x,y,z
2 -x,-y,-z
_cell_length_a                   9.3749(9)
_cell_length_b                   11.4943(10)
_cell_length_c                   12.7024(11)
_cell_angle_alpha                65.563(4)
_cell_angle_beta                 73.788(5)
_cell_angle_gamma                86.757(5)
_cell_volume                     1193.89
loop_
_atom_site_label
_atom_site_type_symbol
_atom_site_fract_x
_atom_site_fract_y
_atom_site_fract_z
Gd1 Gd 0.748798(13) 1.027583(12) 0.015925(11)
O1 O 0.5448(2) 1.0166(2) 0.18091(19)
O2 O 0.3560(2) 0.9806(2) 0.12431(17)
O3 O 0.7905(2) 0.84572(18) 0.19328(16)
O4 O 0.6316(2) 0.80316(18) 0.11322(16)
O5 O 0.9427(2) 0.91943(18) -0.05981(17)
O6 O 1.1664(2) 0.8487(2) -0.0975(2)
O7 O 0.6236(2) 1.2304(2) -0.0535(2)
O8 O 0.9166(2) 1.1910(2) -0.15958(19)
N1 N -0.1778(5) 0.7471(4) 0.5446(4)
N2 N 0.8399(4) 0.4011(3) 0.6411(3)
N3 N 0.4958(5) 0.6412(5) -0.1311(5)
C1 C 0.4114(3) 0.9872(3) 0.2009(2)
C2 C 0.3108(3) 0.9561(3) 0.3254(3)
C3 C 0.1699(3) 0.9008(3) 0.3590(3)
H1 H 0.1339 0.8891 0.3026
C4 C 0.0812(4) 0.8624(3) 0.4768(3)
C5 C -0.0631(5) 0.7982(4) 0.5141(4)
C6 C 0.1329(5) 0.8839(4) 0.5592(3)
H2 H 0.0734 0.8580 0.6381
C7 C 0.2705(5) 0.9427(5) 0.5261(4)
H3 H 0.3034 0.9592 0.5815
C8 C 0.3619(4) 0.9781(4) 0.4086(3)
H4 H 0.4568 1.0164 0.3861
C9 C 0.7015(3) 0.7681(3) 0.1920(2)
C10 C 0.6793(3) 0.6325(3) 0.2847(2)
C11 C 0.7452(3) 0.5982(3) 0.3782(2)
H5 H 0.8025 0.6586 0.3827
C12 C 0.7239(3) 0.4723(3) 0.4649(3)
C13 C 0.7897(4) 0.4352(3) 0.5637(3)
C14 C 0.6380(4) 0.3827(3) 0.4588(3)
H6 H 0.6229 0.2992 0.5179
C15 C 0.5744(4) 0.4170(3) 0.3650(3)
H7 H 0.5179 0.3563 0.3603
C16 C 0.5950(3) 0.5416(3) 0.2784(3)
H8 H 0.5520 0.5646 0.2154
C17 C 1.0298(3) 0.8439(3) -0.0879(2)
C18 C 0.9728(3) 0.7414(3) -0.1137(2)
C19 C 0.8247(3) 0.7349(3) -0.1118(3)
H9 H 0.7608 0.7932 -0.0940
C20 C 0.7720(4) 0.6412(3) -0.1364(3)
C21 C 0.6171(5) 0.6386(4) -0.1348(4)
C22 C 0.8651(5) 0.5542(4) -0.1625(4)
H10 H 0.8293 0.4918 -0.1793
C23 C 1.0110(5) 0.5599(4) -0.1637(4)
H11 H 1.0743 0.5010 -0.1812
C24 C 1.0658(4) 0.6532(3) -0.1390(3)
H12 H 1.1650 0.6561 -0.1396
H13 H 1.0140(13) 1.187(3) -0.182(3)
H14 H 0.612(4) 1.294(3) -0.032(4)
H15 H 0.555(3) 1.238(3) -0.091(3)
H16 H 0.898(4) 1.263(2) -0.214(3)
Gd1A Gd 0.251202(13) 0.972417(12) -0.015925(11)
Gd1A_2 Gd 1.251202(13) 0.972417(12) -0.015925(11)
O2A O 0.6440(2) 1.0194(2) -0.12431(17)
O6A O 0.8336(2) 1.1513(2) 0.0975(2)
loop_
_geom_bond_atom_site_label_1
_geom_bond_atom_site_label_2
_geom_bond_site_symmetry_1
_geom_bond_site_symmetry_2
Gd1 O1 1_555 1_555
O1 C1 1_555 1_555
O2 C1 1_555 1_555
O3 Gd1 1_555 1_555
O4 Gd1 1_555 1_555
O5 Gd1 1_555 1_555
O6 C17 1_555 1_555
O7 Gd1 1_555 1_555
O8 Gd1 1_555 1_555
N1 C5 1_555 1_555
N2 C13 1_555 1_555
N3 C21 1_555 1_555
C1 C2 1_555 1_555
C2 C3 1_555 1_555
C3 H1 1_555 1_555
C4 C3 1_555 1_555
C5 C4 1_555 1_555
C6 C4 1_555 1_555
H2 C6 1_555 1_555
C7 C6 1_555 1_555
H3 C7 1_555 1_555
C8 C2 1_555 1_555
H4 C8 1_555 1_555
C9 O3 1_555 1_555
C10 C9 1_555 1_555
C11 C10 1_555 1_555
H5 C11 1_555 1_555
C12 C11 1_555 1_555
C13 C12 1_555 1_555
C14 C12 1_555 1_555
H6 C14 1_555 1_555
C15 C14 1_555 1_555
H7 C15 1_555 1_555
C16 C10 1_555 1_555
H8 C16 1_555 1_555
C17 O5 1_555 1_555
C18 C17 1_555 1_555
C19 C18 1_555 1_555
H9 C19 1_555 1_555
C20 C19 1_555 1_555
C21 C20 1_555 1_555
C22 C20 1_555 1_555
H10 C22 1_555 1_555
C23 C22 1_555 1_555
H11 C23 1_555 1_555
C24 C18 1_555 1_555
H12 C24 1_555 1_555
H13 O8 1_555 1_555
H14 O7 1_555 1_555
H15 O7 1_555 1_555
H16 O8 1_555 1_555
Gd1A O2 1_555 1_555
Gd1A_2 O6 1_555 1_555
O2A Gd1 1_555 1_555
O6A Gd1 1_555 1_555
O4 C9 1_555 1_555
C7 C8 1_555 1_555
C15 C16 1_555 1_555
C23 C24 1_555 1_555

#END
