
#######################################################################
#
#                 Cambridge Crystallographic Data Centre
#                                CCDC 
#
#######################################################################
#
# If this CIF has been generated from an entry in the Cambridge 
# Structural Database, then it will include bibliographic, chemical, 
# crystal, experimental, refinement or atomic coordinate data resulting 
# from the CCDC's data processing and validation procedures.
#
#######################################################################

data_VEVZUS
_symmetry_cell_setting           triclinic
_symmetry_space_group_name_H-M   'P -1'
_symmetry_Int_Tables_number      2
_space_group_name_Hall           '-P 1'
loop_
_symmetry_equiv_pos_site_id
_symmetry_equiv_pos_as_xyz
1 x,y,z
2 -x,-y,-z
_cell_length_a                   9.637(3)
_cell_length_b                   10.431(3)
_cell_length_c                   13.585(4)
_cell_angle_alpha                112.537(5)
_cell_angle_beta                 91.310(5)
_cell_angle_gamma                114.953(4)
_cell_volume                     1115.47
loop_
_atom_site_label
_atom_site_type_symbol
_atom_site_fract_x
_atom_site_fract_y
_atom_site_fract_z
Dy1 Dy 0.77364(4) 0.54336(4) 0.51295(3)
O1 O 0.8555(7) 0.5257(9) 0.3407(5)
O2 O 0.6058(8) 0.3798(10) 0.3264(6)
O3 O 0.2257(12) 0.1395(19) -0.0334(9)
O4 O 0.3212(11) 0.2145(14) -0.1593(7)
H1 H 0.2287 0.1656 -0.1912
O5 O 0.8578(16) 0.5437(17) -0.1124(9)
O6 O 1.0141(13) 0.6743(14) 0.0439(9)
O7 O 0.7082(8) 0.7061(8) 0.4641(6)
O8 O 0.4557(8) 0.6218(8) 0.4669(6)
O9 O 0.9879(7) 1.2218(7) 0.4298(6)
O10 O 0.8454(8) 1.3450(7) 0.4574(6)
O11 O 0.2912(11) 0.9782(13) 0.2467(11)
O12 O 0.1681(9) 0.7987(12) 0.2959(9)
O13 O 0.8969(8) 0.5520(10) 0.6723(6)
H2 H 0.8411 0.5075 0.7084
H3 H 0.9963 0.5994 0.6925
O14 O 0.7178(9) 0.7028(10) 0.6705(6)
H4 H 0.6429 0.6602 0.6976
H5 H 0.7730 0.8020 0.6994
N1 N 0.2877(10) 0.8935(11) 0.2872(8)
N2 N 0.8874(15) 0.5778(16) -0.0167(9)
C1 C 0.6805(12) 0.4191(14) 0.1716(8)
C2 C 0.8016(13) 0.5060(13) 0.1325(8)
H10 H 0.9028 0.5728 0.1754
C3 C 0.7633(14) 0.4878(15) 0.0261(9)
C4 C 0.6169(15) 0.3935(16) -0.0388(10)
H11 H 0.5965 0.3858 -0.1087
C5 C 0.4982(14) 0.3087(16) 0.0012(9)
C6 C 0.5314(13) 0.3234(15) 0.1062(9)
H12 H 0.4513 0.2674 0.1329
C7 C 0.7167(11) 0.4405(12) 0.2855(8)
C8 C 0.3330(15) 0.209(2) -0.0654(10)
C9 C 0.5789(10) 0.8256(10) 0.4137(7)
C10 C 0.4380(10) 0.8028(11) 0.3671(8)
H13 H 0.3450 0.7145 0.3559
C11 C 0.4394(10) 0.9160(11) 0.3374(8)
C12 C 0.5733(11) 1.0522(11) 0.3562(7)
H14 H 0.5689 1.1275 0.3375
C13 C 0.7122(9) 1.0725(10) 0.4032(7)
C14 C 0.7177(10) 0.9585(10) 0.4310(7)
H15 H 0.8131 0.9713 0.4608
C15 C 0.5807(10) 0.7075(11) 0.4508(8)
C16 C 0.8595(10) 1.2249(11) 0.4339(7)
Dy1A Dy 0.22636(4) 0.45664(4) 0.48705(3)
Dy1A_2 Dy 1.22636(4) 1.45664(4) 0.48705(3)
Dy1_2 Dy 0.77364(4) 1.54336(4) 0.51295(3)
O8A O 0.5443(8) 0.3782(8) 0.5331(6)
O9A O 1.0121(7) 0.7782(7) 0.5702(6)
O10_2 O 0.8454(8) 0.3450(7) 0.4574(6)
O15 O 0.0702(14) 0.1566(16) 0.1452(9)
H6 H -0.0134 0.1024 0.1602
H7 H 0.0666 0.1627 0.0846
O16 O 0.0419(10) 0.0583(11) 0.7274(7)
H8 H -0.0503 0.0063 0.6876
H9 H 0.0575 0.0594 0.7897
loop_
_geom_bond_atom_site_label_1
_geom_bond_atom_site_label_2
_geom_bond_site_symmetry_1
_geom_bond_site_symmetry_2
Dy1 O1 1_555 1_555
O1 C7 1_555 1_555
O2 Dy1 1_555 1_555
O3 C8 1_555 1_555
O4 H1 1_555 1_555
O5 N2 1_555 1_555
O6 N2 1_555 1_555
O7 Dy1 1_555 1_555
O8 C15 1_555 1_555
O9 C16 1_555 1_555
O10 C16 1_555 1_555
O11 N1 1_555 1_555
O12 N1 1_555 1_555
O13 Dy1 1_555 1_555
H2 O13 1_555 1_555
H3 O13 1_555 1_555
O14 Dy1 1_555 1_555
H4 O14 1_555 1_555
H5 O14 1_555 1_555
O15 H6 1_555 1_555
H7 O15 1_555 1_555
O16 H8 1_555 1_555
H9 O16 1_555 1_555
N1 C11 1_555 1_555
N2 C3 1_555 1_555
C1 C2 1_555 1_555
C2 H10 1_555 1_555
C3 C2 1_555 1_555
C4 C3 1_555 1_555
H11 C4 1_555 1_555
C5 C4 1_555 1_555
C6 C1 1_555 1_555
H12 C6 1_555 1_555
C7 O2 1_555 1_555
C8 O4 1_555 1_555
C9 C10 1_555 1_555
C10 H13 1_555 1_555
C11 C10 1_555 1_555
C12 C11 1_555 1_555
H14 C12 1_555 1_555
C13 C12 1_555 1_555
C14 C9 1_555 1_555
H15 C14 1_555 1_555
C15 O7 1_555 1_555
C16 C13 1_555 1_555
Dy1A O8 1_555 1_555
Dy1A_2 O9 1_555 1_555
Dy1_2 O10 1_555 1_555
O8A Dy1 1_555 1_555
O9A Dy1 1_555 1_555
O10_2 Dy1 1_555 1_555
C1 C7 1_555 1_555
C5 C6 1_555 1_555
C5 C8 1_555 1_555
C9 C15 1_555 1_555
C13 C14 1_555 1_555

#END
