
#######################################################################
#
#                 Cambridge Crystallographic Data Centre
#                                CCDC 
#
#######################################################################
#
# If this CIF has been generated from an entry in the Cambridge 
# Structural Database, then it will include bibliographic, chemical, 
# crystal, experimental, refinement or atomic coordinate data resulting 
# from the CCDC's data processing and validation procedures.
#
#######################################################################

data_VEWBAB
_symmetry_cell_setting           triclinic
_symmetry_space_group_name_H-M   'P -1'
_symmetry_Int_Tables_number      2
_space_group_name_Hall           '-P 1'
loop_
_symmetry_equiv_pos_site_id
_symmetry_equiv_pos_as_xyz
1 x,y,z
2 -x,-y,-z
_cell_length_a                   9.6834(2)
_cell_length_b                   10.4879(2)
_cell_length_c                   13.6043(2)
_cell_angle_alpha                67.5660(10)
_cell_angle_beta                 69.7990(10)
_cell_angle_gamma                65.0960(10)
_cell_volume                     1129.89
loop_
_atom_site_label
_atom_site_type_symbol
_atom_site_fract_x
_atom_site_fract_y
_atom_site_fract_z
Gd1 Gd 0.724638(11) 0.530302(10) 0.513115(8)
N1 N -0.2100(3) 0.8935(3) 0.7112(2)
N2 N 0.6132(4) 1.0934(3) -0.0167(2)
O1 O 0.48714(19) 0.71178(18) 0.57159(15)
O2 O 0.3481(2) 0.61465(18) 0.54153(15)
O3 O 0.2071(2) 1.25816(18) 0.53686(17)
O4 O -0.0439(2) 1.34453(18) 0.53418(16)
O5 O -0.3297(3) 0.9974(3) 0.7040(2)
O6 O -0.2084(3) 0.7686(3) 0.7533(3)
O7 O 0.8930(2) 0.55104(19) 0.32492(14)
O8 O 0.64444(19) 0.68394(19) 0.33843(13)
O9 O 1.2726(3) 0.6743(4) -0.0326(2)
O10 O 1.1797(3) 0.8732(3) -0.15834(18)
H1 H 1.2726 0.8594 -0.1868
O11 O 0.6431(4) 1.1581(4) -0.1127(2)
O12 O 0.4884(4) 1.1305(3) 0.0440(2)
O13 O 0.7830(2) 0.5318(2) 0.67209(16)
H2 H 0.8371 0.5823 0.6649
H3 H 0.7493 0.4819 0.7350
O14 O 0.6014(2) 0.3786(2) 0.67464(14)
H4 H 0.5464 0.3377 0.6687
H5 H 0.6133 0.3664 0.7370
C1 C 0.2139(2) 0.8321(2) 0.59629(18)
C2 C 0.2169(3) 0.9734(2) 0.56980(18)
H10 H 0.3117 0.9906 0.5408
C3 C 0.0790(3) 1.0887(2) 0.58660(18)
C4 C -0.0628(3) 1.0630(2) 0.63338(19)
H11 H -0.1560 1.1390 0.6443
C5 C -0.0600(3) 0.9205(3) 0.66295(19)
C6 C 0.0734(3) 0.8047(2) 0.64400(19)
H12 H 0.0695 0.7110 0.6626
C7 C 0.3596(3) 0.7112(2) 0.56790(18)
C8 C 0.0810(3) 1.2425(2) 0.54998(18)
C9 C 0.8189(3) 0.7487(3) 0.1699(2)
C10 C 0.9688(3) 0.7166(3) 0.1055(2)
H13 H 1.0477 0.6335 0.1321
C11 C 1.0019(4) 0.8076(4) 0.0015(2)
C12 C 0.8851(4) 0.9301(3) -0.0390(2)
H14 H 0.9059 0.9912 -0.1088
C13 C 0.7370(4) 0.9601(3) 0.0261(2)
C14 C 0.7006(3) 0.8728(3) 0.1304(2)
H15 H 0.5998 0.8965 0.1730
C15 C 0.7833(3) 0.6545(3) 0.28398(19)
C16 C 1.1652(4) 0.7763(4) -0.0648(2)
Gd1A Gd 0.275362(11) 0.469698(10) 0.486885(8)
Gd1A_2 Gd 0.275362(11) 1.469698(10) 0.486885(8)
Gd1_2 Gd -0.275362(11) 1.530302(10) 0.513115(8)
O2A O 0.6519(2) 0.38535(18) 0.45847(15)
O3A O 0.7929(2) 0.74184(18) 0.46314(17)
O4_2 O 0.9561(2) 0.34453(18) 0.53418(16)
O15 O 0.5685(4) 0.4914(4) 0.8554(2)
H6 H 0.5182 0.5676 0.8777
H7 H 0.5878 0.4073 0.9011
O16 O 0.4591(3) 0.8321(3) 0.7293(2)
H8 H 0.4414 0.7969 0.7982
H9 H 0.4676 0.7957 0.6805
loop_
_geom_bond_atom_site_label_1
_geom_bond_atom_site_label_2
_geom_bond_site_symmetry_1
_geom_bond_site_symmetry_2
Gd1 O1 1_555 1_555
N1 O5 1_555 1_555
N2 O11 1_555 1_555
O1 C7 1_555 1_555
O2 C7 1_555 1_555
O3 C8 1_555 1_555
O4 C8 1_555 1_555
O6 N1 1_555 1_555
O7 Gd1 1_555 1_555
O8 Gd1 1_555 1_555
O9 C16 1_555 1_555
O10 H1 1_555 1_555
O12 N2 1_555 1_555
O13 Gd1 1_555 1_555
H2 O13 1_555 1_555
H3 O13 1_555 1_555
O14 Gd1 1_555 1_555
H4 O14 1_555 1_555
H5 O14 1_555 1_555
O15 H6 1_555 1_555
H7 O15 1_555 1_555
O16 H8 1_555 1_555
H9 O16 1_555 1_555
C1 C2 1_555 1_555
C2 H10 1_555 1_555
C3 C2 1_555 1_555
C4 C3 1_555 1_555
H11 C4 1_555 1_555
C5 N1 1_555 1_555
C6 C1 1_555 1_555
H12 C6 1_555 1_555
C7 C1 1_555 1_555
C8 C3 1_555 1_555
C9 C10 1_555 1_555
C10 H13 1_555 1_555
C11 C10 1_555 1_555
C12 C11 1_555 1_555
H14 C12 1_555 1_555
C13 N2 1_555 1_555
C14 C9 1_555 1_555
H15 C14 1_555 1_555
C15 O7 1_555 1_555
C16 O10 1_555 1_555
Gd1A O2 1_555 1_555
Gd1A_2 O3 1_555 1_555
Gd1_2 O4 1_555 1_555
O2A Gd1 1_555 1_555
O3A Gd1 1_555 1_555
O4_2 Gd1 1_555 1_555
O8 C15 1_555 1_555
C4 C5 1_555 1_555
C5 C6 1_555 1_555
C9 C15 1_555 1_555
C11 C16 1_555 1_555
C12 C13 1_555 1_555
C13 C14 1_555 1_555

#END
