
#######################################################################
#
#                 Cambridge Crystallographic Data Centre
#                                CCDC 
#
#######################################################################
#
# If this CIF has been generated from an entry in the Cambridge 
# Structural Database, then it will include bibliographic, chemical, 
# crystal, experimental, refinement or atomic coordinate data resulting 
# from the CCDC's data processing and validation procedures.
#
#######################################################################

data_VEWBUW
_symmetry_cell_setting           orthorhombic
_symmetry_space_group_name_H-M   'F d d 2'
_symmetry_Int_Tables_number      43
_space_group_name_Hall           'F 2 -2d'
loop_
_symmetry_equiv_pos_site_id
_symmetry_equiv_pos_as_xyz
1 x,y,z
2 -x,-y,z
3 1/4+x,1/4-y,1/4+z
4 1/4-x,1/4+y,1/4+z
5 x,1/2+y,1/2+z
6 -x,1/2-y,1/2+z
7 1/4+x,3/4-y,3/4+z
8 1/4-x,3/4+y,3/4+z
9 1/2+x,y,1/2+z
10 1/2-x,-y,1/2+z
11 3/4+x,1/4-y,3/4+z
12 3/4-x,1/4+y,3/4+z
13 1/2+x,1/2+y,z
14 1/2-x,1/2-y,z
15 3/4+x,3/4-y,1/4+z
16 3/4-x,3/4+y,1/4+z
_cell_length_a                   29.3462(12)
_cell_length_b                   12.4029(5)
_cell_length_c                   23.4734(11)
_cell_angle_alpha                90
_cell_angle_beta                 90
_cell_angle_gamma                90
_cell_volume                     8543.8
loop_
_atom_site_label
_atom_site_type_symbol
_atom_site_fract_x
_atom_site_fract_y
_atom_site_fract_z
Fe1 Fe 0.0000 0.0000 0.307201(15)
N1 N 0.04096(6) -0.05019(13) 0.24638(8)
N2 N 0.03674(6) -0.05614(13) 0.37032(8)
N3 N 0.03937(6) 0.12841(13) 0.30218(7)
C1 C 0.07046(7) 0.12637(17) 0.25949(9)
C2 C 0.03646(9) 0.21800(18) 0.33433(10)
C3 C 0.07110(7) 0.02428(15) 0.22681(9)
C4 C 0.02111(7) -0.03370(16) 0.42331(9)
C5 C 0.09820(9) -0.1555(2) 0.41348(12)
C6 C 0.07534(8) -0.11596(19) 0.36655(10)
C7 C 0.04017(9) -0.14660(17) 0.21996(10)
C8 C 0.09937(8) 0.00445(19) 0.18084(10)
C9 C 0.08086(10) -0.1335(2) 0.46717(11)
C10 C 0.04224(10) -0.0721(2) 0.47194(10)
C11 C 0.09308(9) 0.30762(18) 0.27995(12)
C12 C 0.09805(8) 0.2142(2) 0.24760(11)
C13 C 0.06760(10) -0.1711(2) 0.17473(12)
C14 C 0.09773(10) -0.0948(2) 0.15426(11)
C15 C 0.06269(9) 0.30845(18) 0.32396(11)
H1 H 0.1244(9) -0.195(2) 0.4090(10)
H2 H 0.0226(8) -0.1913(19) 0.2353(11)
H3 H 0.1174(9) 0.067(2) 0.1674(12)
H4 H 0.1163(9) 0.201(2) 0.2215(12)
H5 H 0.0151(9) 0.2156(18) 0.3638(12)
H6 H 0.0861(8) -0.1277(19) 0.3307(11)
H7 H 0.0965(11) -0.153(3) 0.5026(15)
H8 H 0.1146(8) 0.368(2) 0.2714(10)
H9 H 0.0651(10) -0.229(2) 0.1620(13)
H10 H 0.0576(10) 0.366(3) 0.3432(14)
H11 H 0.0335(9) -0.063(2) 0.5041(12)
H12 H 0.1177(9) -0.114(2) 0.1212(13)
N2A N -0.03674(6) 0.05614(13) 0.37032(8)
C4A C -0.02111(7) 0.03370(16) 0.42331(9)
C5A C -0.09820(9) 0.1555(2) 0.41348(12)
C6A C -0.07534(8) 0.11596(19) 0.36655(10)
C9A C -0.08086(10) 0.1335(2) 0.46717(11)
C10A C -0.04224(10) 0.0721(2) 0.47194(10)
H1A H -0.1244(9) 0.195(2) 0.4090(10)
H6A H -0.0861(8) 0.1277(19) 0.3307(11)
H7A H -0.0965(11) 0.153(3) 0.5026(15)
H11A H -0.0335(9) 0.063(2) 0.5041(12)
N1A N -0.04096(6) 0.05019(13) 0.24638(8)
N3A N -0.03937(6) -0.12841(13) 0.30218(7)
C1A C -0.07046(7) -0.12637(17) 0.25949(9)
C2A C -0.03646(9) -0.21800(18) 0.33433(10)
C3A C -0.07110(7) -0.02428(15) 0.22681(9)
C7A C -0.04017(9) 0.14660(17) 0.21996(10)
C8A C -0.09937(8) -0.00445(19) 0.18084(10)
C11A C -0.09308(9) -0.30762(18) 0.27995(12)
C12A C -0.09805(8) -0.2142(2) 0.24760(11)
C13A C -0.06760(10) 0.1711(2) 0.17473(12)
C14A C -0.09773(10) 0.0948(2) 0.15426(11)
C15A C -0.06269(9) -0.30845(18) 0.32396(11)
H2A H -0.0226(8) 0.1913(19) 0.2353(11)
H3A H -0.1174(9) -0.067(2) 0.1674(12)
H4A H -0.1163(9) -0.201(2) 0.2215(12)
H5A H -0.0151(9) -0.2156(18) 0.3638(12)
H8A H -0.1146(8) -0.368(2) 0.2714(10)
H9A H -0.0651(10) 0.229(2) 0.1620(13)
H10A H -0.0576(10) -0.366(3) 0.3432(14)
H12A H -0.1177(9) 0.114(2) 0.1212(13)
Zn1 Zn 0.0000 0.0000 -0.02384(2)
Zn2 Zn 0.0000 -0.5000 0.158723(15)
N4 N 0.04121(9) -0.6378(2) 0.15000(11)
N5 N 0.04143(8) -0.43186(19) 0.22464(10)
N6 N 0.04249(8) -0.42113(19) 0.09341(10)
N7 N 0.04005(8) -0.92246(19) 0.03955(10)
N8 N 0.04195(9) -0.14524(18) -0.02261(12)
C16 C 0.05536(10) -0.7103(2) 0.12538(12)
C17 C 0.05289(8) -0.40743(18) 0.26927(10)
N9 N 0.06979(9) -0.37210(19) 0.31684(10)
N10 N 0.07647(9) -0.7892(2) 0.10033(13)
C18 C 0.05627(9) -0.3600(2) 0.06239(12)
C19 C 0.05591(10) -0.2165(2) 0.00191(12)
N11 N 0.07728(10) -0.2944(3) 0.02844(16)
C20 C 0.05416(9) -0.85759(19) 0.06916(11)
N12 N 0.04269(9) -0.43362(19) 0.40954(10)
C21 C 0.05422(9) -0.40795(18) 0.36528(10)
N4A N -0.04121(9) -0.3622(2) 0.15000(11)
N5A N -0.04143(8) -0.56814(19) 0.22464(10)
N6A N -0.04249(8) -0.57887(19) 0.09341(10)
N7A N -0.04005(8) -0.07754(19) 0.03955(10)
N8A N -0.04195(9) -0.85476(18) -0.02261(12)
C16A C -0.05536(10) -0.2897(2) 0.12538(12)
C17A C -0.05289(8) -0.59257(18) 0.26927(10)
N9A N -0.06979(9) -0.62790(19) 0.31684(10)
N10A N -0.07647(9) -0.2108(2) 0.10033(13)
C18A C -0.05627(9) -0.6400(2) 0.06239(12)
C19A C -0.05591(10) -0.7835(2) 0.00191(12)
N11A N -0.07728(10) -0.7056(3) 0.02844(16)
C20A C -0.05416(9) -0.14241(19) 0.06916(11)
N12A N -0.04269(9) -0.56638(19) 0.40954(10)
C21A C -0.05422(9) -0.59205(18) 0.36528(10)
Zn1_2 Zn 0.0000 -1.0000 -0.02384(2)
Zn1D Zn 0.0000 -0.5000 0.47616(2)
N7_2 N 0.04005(8) 0.07754(19) 0.03955(10)
N8A_2 N -0.04195(9) 0.14524(18) -0.02261(12)
N12D N 0.04269(9) 0.06638(19) -0.09046(10)
N12E N -0.04269(9) -0.06638(19) -0.09046(10)
loop_
_geom_bond_atom_site_label_1
_geom_bond_atom_site_label_2
_geom_bond_site_symmetry_1
_geom_bond_site_symmetry_2
Fe1 N1 1_555 1_555
N1 C3 1_555 1_555
N2 Fe1 1_555 1_555
N3 Fe1 1_555 1_555
C1 N3 1_555 1_555
C2 N3 1_555 1_555
C3 C1 1_555 1_555
C4 N2 1_555 1_555
C5 C6 1_555 1_555
C6 N2 1_555 1_555
C7 N1 1_555 1_555
C8 C3 1_555 1_555
C9 C5 1_555 1_555
C10 C4 1_555 1_555
C11 C12 1_555 1_555
C12 C1 1_555 1_555
C13 C7 1_555 1_555
C14 C8 1_555 1_555
C15 C2 1_555 1_555
H1 C5 1_555 1_555
H2 C7 1_555 1_555
H3 C8 1_555 1_555
H4 C12 1_555 1_555
H5 C2 1_555 1_555
H6 C6 1_555 1_555
H7 C9 1_555 1_555
H8 C11 1_555 1_555
H9 C13 1_555 1_555
H10 C15 1_555 1_555
H11 C10 1_555 1_555
H12 C14 1_555 1_555
Zn1 N8 1_555 1_555
Zn2 N4 1_555 1_555
N4 C16 1_555 1_555
N5 Zn2 1_555 1_555
N6 Zn2 1_555 1_555
N7 C20 1_555 1_555
N8 C19 1_555 1_555
C16 N10 1_555 1_555
C17 N5 1_555 1_555
N9 C17 1_555 1_555
N10 C20 1_555 1_555
C18 N6 1_555 1_555
C19 N11 1_555 1_555
N11 C18 1_555 1_555
N12 C21 1_555 1_555
C21 N9 1_555 1_555
N2A Fe1 1_555 1_555
C4A C4 1_555 1_555
C5A C6A 1_555 1_555
C6A N2A 1_555 1_555
C9A C5A 1_555 1_555
C10A C4A 1_555 1_555
H1A C5A 1_555 1_555
H6A C6A 1_555 1_555
H7A C9A 1_555 1_555
H11A C10A 1_555 1_555
N1A Fe1 1_555 1_555
N3A Fe1 1_555 1_555
C1A N3A 1_555 1_555
C2A N3A 1_555 1_555
C3A N1A 1_555 1_555
C7A N1A 1_555 1_555
C8A C3A 1_555 1_555
C11A C12A 1_555 1_555
C12A C1A 1_555 1_555
C13A C7A 1_555 1_555
C14A C8A 1_555 1_555
C15A C2A 1_555 1_555
H2A C7A 1_555 1_555
H3A C8A 1_555 1_555
H4A C12A 1_555 1_555
H5A C2A 1_555 1_555
H8A C11A 1_555 1_555
H9A C13A 1_555 1_555
H10A C15A 1_555 1_555
H12A C14A 1_555 1_555
N4A Zn2 1_555 1_555
N5A Zn2 1_555 1_555
N6A Zn2 1_555 1_555
N7A Zn1 1_555 1_555
N8A C19A 1_555 1_555
C16A N4A 1_555 1_555
C17A N5A 1_555 1_555
N9A C17A 1_555 1_555
N10A C16A 1_555 1_555
C18A N6A 1_555 1_555
C19A N11A 1_555 1_555
N11A C18A 1_555 1_555
C20A N7A 1_555 1_555
N12A C21A 1_555 1_555
C21A N9A 1_555 1_555
Zn1_2 N7 1_555 1_555
Zn1D N12 1_555 1_555
N7_2 Zn1 1_555 1_555
N8A_2 Zn1 1_555 1_555
N12D Zn1 1_555 1_555
N12E Zn1 1_555 1_555
C9 C10 1_555 1_555
C11 C15 1_555 1_555
C13 C14 1_555 1_555
N2A C4A 1_555 1_555
C9A C10A 1_555 1_555
C1A C3A 1_555 1_555
C11A C15A 1_555 1_555
C13A C14A 1_555 1_555
N8A Zn1_2 1_555 1_555
N10A C20A 1_555 1_555
N12A Zn1D 1_555 1_555

#END
