
#######################################################################
#
#                 Cambridge Crystallographic Data Centre
#                                CCDC 
#
#######################################################################
#
# If this CIF has been generated from an entry in the Cambridge 
# Structural Database, then it will include bibliographic, chemical, 
# crystal, experimental, refinement or atomic coordinate data resulting 
# from the CCDC's data processing and validation procedures.
#
#######################################################################

data_VEWDOR
_symmetry_cell_setting           orthorhombic
_symmetry_space_group_name_H-M   'P b c a'
_symmetry_Int_Tables_number      61
_space_group_name_Hall           '-P 2ac 2ab'
loop_
_symmetry_equiv_pos_site_id
_symmetry_equiv_pos_as_xyz
1 x,y,z
2 1/2-x,-y,1/2+z
3 1/2+x,1/2-y,-z
4 -x,1/2+y,1/2-z
5 -x,-y,-z
6 1/2+x,y,1/2-z
7 1/2-x,1/2+y,z
8 x,1/2-y,1/2+z
_cell_length_a                   12.1012(7)
_cell_length_b                   12.2827(10)
_cell_length_c                   12.6578(5)
_cell_angle_alpha                90
_cell_angle_beta                 90
_cell_angle_gamma                90
_cell_volume                     1881.4
loop_
_atom_site_label
_atom_site_type_symbol
_atom_site_fract_x
_atom_site_fract_y
_atom_site_fract_z
Gd1 Gd 0.08879(2) 0.77350(2) 0.231325(17)
Na1 Na -0.15510(18) 0.93829(19) -0.12413(17)
C1 C 0.0538(4) 0.8079(4) -0.0199(4)
C2 C 0.1461(4) 0.7201(4) -0.0145(4)
C3 C 0.0865(5) 0.4527(5) 0.1156(4)
C4 C 0.0029(4) 0.5172(4) 0.1805(4)
C5 C 0.1544(5) 0.3754(4) 0.1834(4)
O1 O 0.0233(3) 0.8475(3) 0.0663(3)
O2 O 0.0167(3) 0.8293(3) -0.1093(3)
O3 O 0.1665(3) 0.6718(3) -0.1005(3)
O4 O 0.1903(3) 0.7013(3) 0.0718(3)
O5 O -0.0042(3) 0.6174(3) 0.1665(3)
O6 O -0.0544(3) 0.4658(3) 0.2455(3)
O7 O 0.1049(3) 0.3054(3) 0.2387(3)
O8 O 0.2567(3) 0.3872(3) 0.1818(2)
O9 O -0.1762(5) 0.9819(4) 0.0693(3)
O10 O 0.2363(4) 0.6404(4) 0.2779(4)
H1 H 0.129(4) 0.503(5) 0.078(4)
H2 H 0.045(4) 0.418(4) 0.073(4)
H3 H 0.226(4) 0.604(5) 0.322(4)
H4 H 0.280(6) 0.671(7) 0.300(6)
H5 H -0.223(5) 0.940(6) 0.086(5)
H6 H -0.121(6) 0.946(6) 0.084(6)
Gd1G Gd 0.08879(2) 0.72650(2) -0.268675(17)
Gd1C Gd -0.08879(2) 0.27350(2) 0.268675(17)
Gd1F Gd 0.41121(2) 0.27350(2) 0.231325(17)
Na1B Na 0.34490(18) 0.56171(19) 0.12413(17)
Na1G Na -0.15510(18) 0.56171(19) 0.37587(17)
O2G O 0.0167(3) 0.6707(3) 0.3907(3)
O3G O 0.1665(3) 0.8282(3) 0.3995(3)
O4B O -0.3097(3) 0.7987(3) -0.0718(3)
O6C O 0.0544(3) 0.9658(3) 0.2545(3)
O6G O -0.0544(3) 1.0342(3) -0.2545(3)
O7C O -0.1049(3) 0.8054(3) 0.2613(3)
O8F O 0.2433(3) 0.8872(3) 0.1818(2)
O8B O -0.2433(3) 1.1128(3) -0.1818(2)
O10B O -0.2637(4) 0.8596(4) -0.2779(4)
H3B H -0.274(4) 0.896(5) -0.322(4)
H4B H -0.220(6) 0.829(7) -0.300(6)
loop_
_geom_bond_atom_site_label_1
_geom_bond_atom_site_label_2
_geom_bond_site_symmetry_1
_geom_bond_site_symmetry_2
Gd1 O1 1_555 1_555
Na1 O2 1_555 1_555
C1 C2 1_555 1_555
C2 O3 1_555 1_555
C3 C4 1_555 1_555
C4 O5 1_555 1_555
C5 C3 1_555 1_555
O1 C1 1_555 1_555
O2 C1 1_555 1_555
O3 Gd1G 1_555 1_555
O4 Gd1 1_555 1_555
O5 Gd1 1_555 1_555
O6 C4 1_555 1_555
O7 C5 1_555 1_555
O8 C5 1_555 1_555
O9 Na1 1_555 1_555
O10 Gd1 1_555 1_555
H1 C3 1_555 1_555
H2 C3 1_555 1_555
H3 O10 1_555 1_555
H4 O10 1_555 1_555
H5 O9 1_555 1_555
H6 O9 1_555 1_555
Gd1G O2 1_555 1_555
Gd1C O6 1_555 1_555
Gd1F O8 1_555 1_555
Na1B O4 1_555 1_555
Na1G O6 1_555 1_555
O2G Gd1 1_555 1_555
O3G Gd1 1_555 1_555
O4B Na1 1_555 1_555
O6C Gd1 1_555 1_555
O6G Na1 1_555 1_555
O7C Gd1 1_555 1_555
O8F Gd1 1_555 1_555
O8B Na1 1_555 1_555
O10B Na1 1_555 1_555
H3B O10B 1_555 1_555
H4B O10B 1_555 1_555
C2 O4 1_555 1_555
O7 Gd1C 1_555 1_555
O8 Na1B 1_555 1_555
O10 Na1B 1_555 1_555
Na1G O2G 1_555 1_555

#END
