
#######################################################################
#
#                 Cambridge Crystallographic Data Centre
#                                CCDC 
#
#######################################################################
#
# If this CIF has been generated from an entry in the Cambridge 
# Structural Database, then it will include bibliographic, chemical, 
# crystal, experimental, refinement or atomic coordinate data resulting 
# from the CCDC's data processing and validation procedures.
#
#######################################################################

data_VEWDUX
_symmetry_cell_setting           monoclinic
_symmetry_space_group_name_H-M   'C 2/m'
_symmetry_Int_Tables_number      12
_space_group_name_Hall           '-C 2y'
loop_
_symmetry_equiv_pos_site_id
_symmetry_equiv_pos_as_xyz
1 x,y,z
2 1/2+x,1/2+y,z
3 -x,y,-z
4 1/2-x,1/2+y,-z
5 -x,-y,-z
6 1/2-x,1/2-y,-z
7 x,-y,z
8 1/2+x,1/2-y,z
_cell_length_a                   17.385(3)
_cell_length_b                   18.976(4)
_cell_length_c                   12.221(2)
_cell_angle_alpha                90
_cell_angle_beta                 114.319(3)
_cell_angle_gamma                90
_cell_volume                     3673.94
loop_
_atom_site_label
_atom_site_type_symbol
_atom_site_fract_x
_atom_site_fract_y
_atom_site_fract_z
Cu1 Cu 0.2421(3) 0.8232(2) -0.2545(3)
N1 N 0.2456(13) 0.7824(9) -0.4034(15)
C1 C 0.3180(13) 0.7745(11) -0.4107(18)
C2 C 0.1767(16) 0.7574(12) -0.492(2)
H1 H 0.1234 0.7618 -0.4882
C3 C 0.401(2) 0.7969(19) -0.317(3)
H2 H 0.3920 0.8191 -0.2506
H3 H 0.4270 0.8308 -0.3515
H4 H 0.4373 0.7557 -0.2874
N2 N 0.2462(11) 0.7791(10) -0.1053(16)
C4 C 0.2988(15) 0.8017(12) 0.001(2)
H5 H 0.3370 0.8383 0.0043
C5 C 0.1981(14) 0.7246(14) -0.108(2)
C6 C 0.1413(19) 0.6945(14) -0.219(2)
H6 H 0.1121 0.6543 -0.2031
H7 H 0.0999 0.7300 -0.2658
H8 H 0.1732 0.6785 -0.2646
N3 N 0.2628(15) 0.9288(12) -0.2707(17)
C7 C 0.2028(16) 0.9655(16) -0.359(2)
C8 C 0.3224(17) 0.9626(14) -0.191(2)
H9 H 0.3675 0.9377 -0.1312
C9 C 0.134(4) 0.938(3) -0.461(5)
H10 H 0.1020 0.9771 -0.5120
H11 H 0.0973 0.9103 -0.4352
H12 H 0.1560 0.9080 -0.5072
Cu1E Cu 0.2579(3) 0.6768(2) -0.7455(3)
Cu1E_2 Cu 0.2579(3) 0.6768(2) 0.2545(3)
Cu1F Cu 0.2421(3) 1.1768(2) -0.2545(3)
Cu1_2 Cu 0.2421(3) 0.8232(2) -1.2545(3)
Cu1C Cu 0.2579(3) 0.3232(2) -0.7455(3)
Cu1_3 Cu 0.2421(3) 0.8232(2) 0.7455(3)
N1E N 0.2544(13) 0.7176(9) -0.5966(15)
N1E_2 N 0.2544(13) 0.7176(9) 0.4034(15)
N1_2 N 0.2456(13) 0.7824(9) 0.5966(15)
N1F N 0.2456(13) 1.2176(9) -0.4034(15)
C1E C 0.1820(13) 0.7255(11) -0.5893(18)
C1E_2 C 0.1820(13) 0.7255(11) 0.4107(18)
C1_2 C 0.3180(13) 0.7745(11) 0.5893(18)
C2E C 0.3233(16) 0.7426(12) -0.508(2)
C2E_2 C 0.3233(16) 0.7426(12) 0.492(2)
C2_2 C 0.1767(16) 0.7574(12) 0.508(2)
H1E H 0.3766 0.7382 -0.5118
H1E_2 H 0.3766 0.7382 0.4882
H1_2 H 0.1234 0.7618 0.5118
C3E C 0.099(2) 0.7031(19) -0.683(3)
C3E_2 C 0.099(2) 0.7031(19) 0.317(3)
C3_2 C 0.401(2) 0.7969(19) 0.683(3)
H2E H 0.1080 0.6809 -0.7494
H2E_2 H 0.1080 0.6809 0.2506
H2_2 H 0.3920 0.8191 0.7494
H3E H 0.0730 0.6692 -0.6485
H3E_2 H 0.0730 0.6692 0.3515
H3_2 H 0.4270 0.8308 0.6485
H4E H 0.0627 0.7443 -0.7126
H4E_2 H 0.0627 0.7443 0.2874
H4_2 H 0.4373 0.7557 0.7126
N2E N 0.2538(11) 0.7209(10) 0.1053(16)
N2E_2 N 0.2538(11) 0.7209(10) -0.8947(16)
N2_2 N 0.2462(11) 0.7791(10) -1.1053(16)
N2F N 0.2462(11) 1.2209(10) -0.1053(16)
C4E C 0.2012(15) 0.6983(12) -0.001(2)
C4E_2 C 0.2012(15) 0.6983(12) -1.001(2)
C4_2 C 0.2988(15) 0.8017(12) -0.999(2)
H5E H 0.1630 0.6617 -0.0043
H5E_2 H 0.1630 0.6617 -1.0043
H5_2 H 0.3370 0.8383 -0.9957
C5E C 0.3019(14) 0.7754(14) 0.108(2)
C5E_2 C 0.3019(14) 0.7754(14) -0.892(2)
C5_2 C 0.1981(14) 0.7246(14) -1.108(2)
C6E C 0.3587(19) 0.8055(14) 0.219(2)
C6E_2 C 0.3587(19) 0.8055(14) -0.781(2)
C6_2 C 0.1413(19) 0.6945(14) -1.219(2)
H6E H 0.3879 0.8457 0.2031
H6E_2 H 0.3879 0.8457 -0.7969
H6_2 H 0.1121 0.6543 -1.2031
H7E H 0.4001 0.7700 0.2658
H7E_2 H 0.4001 0.7700 -0.7342
H7_2 H 0.0999 0.7300 -1.2658
H8E H 0.3268 0.8215 0.2646
H8E_2 H 0.3268 0.8215 -0.7354
H8_2 H 0.1732 0.6785 -1.2646
N3F N 0.2628(15) 1.0712(12) -0.2707(17)
N3E N 0.2372(15) 0.5712(12) -0.7293(17)
N3C N 0.2372(15) 0.4288(12) -0.7293(17)
N3E_2 N 0.2372(15) 0.5712(12) 0.2707(17)
C7F C 0.2028(16) 1.0345(16) -0.359(2)
C7E C 0.2972(16) 0.5345(16) -0.641(2)
C7C C 0.2972(16) 0.4655(16) -0.641(2)
C8F C 0.3224(17) 1.0374(14) -0.191(2)
C8E C 0.1776(17) 0.5374(14) -0.809(2)
C8C C 0.1776(17) 0.4626(14) -0.809(2)
H9F H 0.3675 1.0623 -0.1312
H9E H 0.1325 0.5623 -0.8688
H9C H 0.1325 0.4377 -0.8688
C9F C 0.134(4) 1.062(3) -0.461(5)
C9E C 0.366(4) 0.562(3) -0.539(5)
C9C C 0.366(4) 0.438(3) -0.539(5)
H10F H 0.1020 1.0229 -0.5120
H10E H 0.3980 0.5229 -0.4880
H10C H 0.3980 0.4771 -0.4880
H11F H 0.0973 1.0897 -0.4352
H11E H 0.4027 0.5897 -0.5648
H11C H 0.4027 0.4103 -0.5648
H12F H 0.1560 1.0920 -0.5072
H12E H 0.3440 0.5920 -0.4928
H12C H 0.3440 0.4080 -0.4928
N4 N 0.923(5) 0.5000 0.404(6)
C10 C 0.847(4) 0.5000 0.538(4)
H13 H 0.8610 0.5000 0.6244
H14 H 0.8136 0.4578 0.5013
H15 H 0.8136 0.5422 0.5013
C11 C 0.929(5) 0.5000 0.518(5)
C12 C 1.001(3) 0.5000 0.400(5)
H16 H 0.9999 0.5000 0.3214
N4D N 1.077(5) 0.5000 0.596(6)
C10D C 1.153(4) 0.5000 0.462(4)
H13D H 1.1390 0.5000 0.3756
H14D H 1.1864 0.5422 0.4987
H14B H 1.1864 0.4578 0.4987
C11D C 1.071(5) 0.5000 0.482(5)
C12D C 0.999(3) 0.5000 0.600(5)
H16D H 1.0001 0.5000 0.6786
W1 W 0.44319(6) 0.59196(5) 0.20233(8)
W2 W 0.70959(7) 0.5000 0.03452(10)
W3 W 0.5000 0.68513(6) 0.0000
W4 W 0.65263(5) 0.59152(5) 0.23670(8)
Si1 Si 0.5000 0.5000 0.0000
O1 O 0.598(2) 0.5000 0.093(3)
O2 O 0.5189(15) 0.5686(13) 0.087(2)
O3 O 0.564(2) 0.5000 -0.064(3)
O4 O 0.673(2) 0.5000 0.302(2)
O5 O 0.5000 0.7741(11) 0.0000
O6 O 0.6035(12) 0.6649(15) 0.128(2)
O7 O 0.4463(12) 0.6669(15) 0.103(2)
O8 O 0.6622(15) 0.4327(9) -0.0813(16)
O9 O 0.7145(15) 0.5684(9) 0.1475(16)
O10 O 0.8128(15) 0.5000 0.054(3)
O11 O 0.7265(12) 0.6333(10) 0.3542(17)
O12 O 0.4151(10) 0.6392(9) 0.2968(14)
O13 O 0.445(2) 0.5000 0.259(2)
O14 O 0.5616(12) 0.5985(15) 0.280(2)
W1F W 0.44319(6) 0.40804(5) 0.20233(8)
W1D W 0.55681(6) 0.40804(5) -0.20233(8)
W1B W 0.55681(6) 0.59196(5) -0.20233(8)
W2D W 0.29041(7) 0.5000 -0.03452(10)
W3F W 0.5000 0.31487(6) 0.0000
W4D W 0.34737(5) 0.40848(5) -0.23670(8)
W4F W 0.65263(5) 0.40848(5) 0.23670(8)
W4B W 0.34737(5) 0.59152(5) -0.23670(8)
O1D O 0.402(2) 0.5000 -0.093(3)
O2F O 0.5189(15) 0.4314(13) 0.087(2)
O2D O 0.4811(15) 0.4314(13) -0.087(2)
O2B O 0.4811(15) 0.5686(13) -0.087(2)
O3D O 0.436(2) 0.5000 0.064(3)
O4D O 0.327(2) 0.5000 -0.302(2)
O5F O 0.5000 0.2259(11) 0.0000
O6B O 0.3965(12) 0.6649(15) -0.128(2)
O6F O 0.6035(12) 0.3351(15) 0.128(2)
O6D O 0.3965(12) 0.3351(15) -0.128(2)
O7B O 0.5537(12) 0.6669(15) -0.103(2)
O7F O 0.4463(12) 0.3331(15) 0.103(2)
O7D O 0.5537(12) 0.3331(15) -0.103(2)
O8F O 0.6622(15) 0.5673(9) -0.0813(16)
O8D O 0.3378(15) 0.5673(9) 0.0813(16)
O8B O 0.3378(15) 0.4327(9) 0.0813(16)
O9F O 0.7145(15) 0.4316(9) 0.1475(16)
O9D O 0.2855(15) 0.4316(9) -0.1475(16)
O9B O 0.2855(15) 0.5684(9) -0.1475(16)
O10D O 0.1872(15) 0.5000 -0.054(3)
O11D O 0.2735(12) 0.3667(10) -0.3542(17)
O11F O 0.7265(12) 0.3667(10) 0.3542(17)
O11B O 0.2735(12) 0.6333(10) -0.3542(17)
O12F O 0.4151(10) 0.3608(9) 0.2968(14)
O12D O 0.5849(10) 0.3608(9) -0.2968(14)
O12B O 0.5849(10) 0.6392(9) -0.2968(14)
O13D O 0.555(2) 0.5000 -0.259(2)
O14F O 0.5616(12) 0.4015(15) 0.280(2)
O14D O 0.4384(12) 0.4015(15) -0.280(2)
O14B O 0.4384(12) 0.5985(15) -0.280(2)
loop_
_geom_bond_atom_site_label_1
_geom_bond_atom_site_label_2
_geom_bond_site_symmetry_1
_geom_bond_site_symmetry_2
W1 O2 1_555 1_555
W2 O1 1_555 1_555
W3 O2 1_555 1_555
W4 O1 1_555 1_555
Si1 O1 1_555 1_555
O1 O3 1_555 1_555
O2 W4 1_555 1_555
O3 W2 1_555 1_555
O4 W4 1_555 1_555
O5 W3 1_555 1_555
O6 W3 1_555 1_555
O7 W1 1_555 1_555
O8 W2 1_555 1_555
O9 W2 1_555 1_555
O10 W2 1_555 1_555
O11 W4 1_555 1_555
O12 W1 1_555 1_555
O13 W1 1_555 1_555
O14 W1 1_555 1_555
Cu1 N1 1_555 1_555
N1 C1 1_555 1_555
C1 C3 1_555 1_555
C2 N1 1_555 1_555
H1 C2 1_555 1_555
C3 H2 1_555 1_555
H3 C3 1_555 1_555
H4 C3 1_555 1_555
N2 Cu1 1_555 1_555
C4 N2 1_555 1_555
H5 C4 1_555 1_555
C5 N2 1_555 1_555
C6 C5 1_555 1_555
H6 C6 1_555 1_555
H7 C6 1_555 1_555
H8 C6 1_555 1_555
N3 Cu1 1_555 1_555
C7 N3 1_555 1_555
C8 N3 1_555 1_555
H9 C8 1_555 1_555
C9 C7 1_555 1_555
H10 C9 1_555 1_555
H11 C9 1_555 1_555
H12 C9 1_555 1_555
N4 C11 1_555 1_555
C10 H13 1_555 1_555
H14 C10 1_555 1_555
H15 C10 1_555 1_555
C11 C10 1_555 1_555
C12 N4 1_555 1_555
H16 C12 1_555 1_555
W1F O13 1_555 1_555
W1D O3 1_555 1_555
W1B O3 1_555 1_555
W2D O1D 1_555 1_555
W3F O2F 1_555 1_555
W4D O1D 1_555 1_555
W4F O1 1_555 1_555
W4B O1D 1_555 1_555
O1D Si1 1_555 1_555
O2F Si1 1_555 1_555
O2D Si1 1_555 1_555
O2B W3 1_555 1_555
O3D W1 1_555 1_555
O4D W4D 1_555 1_555
O5F W3F 1_555 1_555
O6B W3 1_555 1_555
O6F W3F 1_555 1_555
O6D W3F 1_555 1_555
O7B W3 1_555 1_555
O7F W1F 1_555 1_555
O7D W1D 1_555 1_555
O8F W2 1_555 1_555
O8D W1 1_555 1_555
O8B W1F 1_555 1_555
O9F W2 1_555 1_555
O9D W2D 1_555 1_555
O9B W2D 1_555 1_555
O10D W2D 1_555 1_555
O11D W4D 1_555 1_555
O11F W4F 1_555 1_555
O11B W4B 1_555 1_555
O12F W1F 1_555 1_555
O12D W1D 1_555 1_555
O12B W1B 1_555 1_555
O13D W1D 1_555 1_555
O14F W1F 1_555 1_555
O14D W1D 1_555 1_555
O14B W1B 1_555 1_555
Cu1E N1E 1_555 1_555
Cu1E_2 N1E_2 1_555 1_555
Cu1F N1F 1_555 1_555
Cu1_2 N2_2 1_555 1_555
Cu1C N3C 1_555 1_555
Cu1_3 N1_2 1_555 1_555
N1E C1E 1_555 1_555
N1E_2 C1E_2 1_555 1_555
N1_2 C1_2 1_555 1_555
C1E C2 1_555 1_555
C1E_2 C2_2 1_555 1_555
C1_2 C2E_2 1_555 1_555
C2E C1 1_555 1_555
C2E_2 N1E_2 1_555 1_555
C2_2 N1_2 1_555 1_555
H1E C2E 1_555 1_555
H1E_2 C2E_2 1_555 1_555
H1_2 C2_2 1_555 1_555
C3E C1E 1_555 1_555
C3E_2 C1E_2 1_555 1_555
C3_2 C1_2 1_555 1_555
H2E C3E 1_555 1_555
H2E_2 C3E_2 1_555 1_555
H2_2 C3_2 1_555 1_555
H3E C3E 1_555 1_555
H3E_2 C3E_2 1_555 1_555
H3_2 C3_2 1_555 1_555
H4E C3E 1_555 1_555
H4E_2 C3E_2 1_555 1_555
H4_2 C3_2 1_555 1_555
N2E Cu1E_2 1_555 1_555
N2E_2 Cu1E 1_555 1_555
N2_2 C4_2 1_555 1_555
N2F Cu1F 1_555 1_555
C4E C5 1_555 1_555
C4E_2 N2E_2 1_555 1_555
C4_2 H5_2 1_555 1_555
H5E C4E 1_555 1_555
H5E_2 C4E_2 1_555 1_555
C5E C4 1_555 1_555
C5E_2 N2E_2 1_555 1_555
C5_2 N2_2 1_555 1_555
C6E C5E 1_555 1_555
C6E_2 C5E_2 1_555 1_555
C6_2 C5_2 1_555 1_555
H6E C6E 1_555 1_555
H6E_2 C6E_2 1_555 1_555
H6_2 C6_2 1_555 1_555
H7E C6E 1_555 1_555
H7E_2 C6E_2 1_555 1_555
H7_2 C6_2 1_555 1_555
H8E C6E 1_555 1_555
H8E_2 C6E_2 1_555 1_555
H8_2 C6_2 1_555 1_555
N3F Cu1F 1_555 1_555
N3E Cu1E 1_555 1_555
N3C C7C 1_555 1_555
N3E_2 Cu1E_2 1_555 1_555
C7F C7 1_555 1_555
C7E N3E 1_555 1_555
C7C C7E 1_555 1_555
C8F C8 1_555 1_555
C8E N3E 1_555 1_555
C8C N3C 1_555 1_555
H9F C8F 1_555 1_555
H9E C8E 1_555 1_555
H9C C8C 1_555 1_555
C9F C7F 1_555 1_555
C9E C7E 1_555 1_555
C9C C7C 1_555 1_555
H10F C9F 1_555 1_555
H10E C9E 1_555 1_555
H10C C9C 1_555 1_555
H11F C9F 1_555 1_555
H11E C9E 1_555 1_555
H11C C9C 1_555 1_555
H12F C9F 1_555 1_555
H12E C9E 1_555 1_555
H12C C9C 1_555 1_555
N4D C11D 1_555 1_555
C10D H13D 1_555 1_555
H14D C10D 1_555 1_555
H14B C10D 1_555 1_555
C11D C12 1_555 1_555
C12D C11 1_555 1_555
H16D C12D 1_555 1_555
W3 O7 1_555 1_555
W4 O6 1_555 1_555
W4 O9 1_555 1_555
W4 O14 1_555 1_555
Si1 O2 1_555 1_555
Si1 O3 1_555 1_555
Si1 O2B 1_555 1_555
Si1 O3D 1_555 1_555
O4 W4F 1_555 1_555
O8 W1D 1_555 1_555
W1F O2F 1_555 1_555
W1F O3D 1_555 1_555
W1D O2D 1_555 1_555
W1B O2B 1_555 1_555
W1B O7B 1_555 1_555
W1B O8F 1_555 1_555
W1B O13D 1_555 1_555
W2D O3D 1_555 1_555
W2D O8D 1_555 1_555
W2D O8B 1_555 1_555
W3F O2D 1_555 1_555
W3F O7F 1_555 1_555
W3F O7D 1_555 1_555
W4D O2D 1_555 1_555
W4D O6D 1_555 1_555
W4D O9D 1_555 1_555
W4D O14D 1_555 1_555
W4F O2F 1_555 1_555
W4F O6F 1_555 1_555
W4F O9F 1_555 1_555
W4F O14F 1_555 1_555
W4B O2B 1_555 1_555
W4B O4D 1_555 1_555
W4B O6B 1_555 1_555
W4B O9B 1_555 1_555
W4B O14B 1_555 1_555
O1D O3D 1_555 1_555
N1E C2E 1_555 1_555
N2E C4E 1_555 1_555
N2E C5E 1_555 1_555
C4E_2 C5_2 1_555 1_555
C4_2 C5E_2 1_555 1_555
N3F C7F 1_555 1_555
N3F C8F 1_555 1_555
C8E C8C 1_555 1_555
N4D C12D 1_555 1_555
C10D C11D 1_555 1_555

#END
