
#######################################################################
#
#                 Cambridge Crystallographic Data Centre
#                                CCDC 
#
#######################################################################
#
# If this CIF has been generated from an entry in the Cambridge 
# Structural Database, then it will include bibliographic, chemical, 
# crystal, experimental, refinement or atomic coordinate data resulting 
# from the CCDC's data processing and validation procedures.
#
#######################################################################

data_VEWDUY
_symmetry_cell_setting           monoclinic
_symmetry_space_group_name_H-M   'P 21/c'
_symmetry_Int_Tables_number      14
_space_group_name_Hall           '-P 2ybc'
loop_
_symmetry_equiv_pos_site_id
_symmetry_equiv_pos_as_xyz
1 x,y,z
2 -x,1/2+y,1/2-z
3 -x,-y,-z
4 x,1/2-y,1/2+z
_cell_length_a                   7.7373(12)
_cell_length_b                   15.894(2)
_cell_length_c                   19.076(3)
_cell_angle_alpha                90
_cell_angle_beta                 102.974(5)
_cell_angle_gamma                90
_cell_volume                     2286.02
loop_
_atom_site_label
_atom_site_type_symbol
_atom_site_fract_x
_atom_site_fract_y
_atom_site_fract_z
Co1 Co 0.81677(9) 0.35685(4) 0.15028(3)
O1 O 0.8216(4) 0.34478(19) 0.26728(16)
O2 O 0.5821(4) 0.3722(2) 0.18513(17)
O3 O 0.9113(4) 0.33138(19) 0.44345(17)
O4 O 0.9659(4) 0.77739(19) 0.35138(16)
O5 O 1.2337(5) 0.72522(19) 0.37728(18)
N1 N 0.9290(5) 0.4782(2) 0.1560(2)
N2 N 0.7263(5) 0.3980(2) 0.04444(19)
C1 C 0.6580(7) 0.3563(3) 0.2493(3)
C2 C 0.5454(6) 0.3478(2) 0.3036(2)
C3 C 0.3679(7) 0.3265(3) 0.2819(3)
H1 H 0.3170 0.3217 0.2330
C4 C 0.2652(7) 0.3123(3) 0.3310(4)
H2 H 0.1463 0.2977 0.3156
C5 C 0.3413(8) 0.3200(3) 0.4038(3)
H3 H 0.2739 0.3090 0.4374
C6 C 0.5167(7) 0.3441(3) 0.4266(3)
H4 H 0.5650 0.3513 0.4755
C7 C 0.6210(6) 0.3574(2) 0.3775(2)
C8 C 0.8110(7) 0.3815(3) 0.4065(2)
C9 C 0.8718(6) 0.4690(3) 0.3949(2)
C10 C 1.0510(6) 0.4863(3) 0.4149(2)
H5 H 1.1305 0.4443 0.4349
C11 C 1.1115(7) 0.5658(3) 0.4050(2)
H6 H 1.2328 0.5762 0.4168
C12 C 0.9969(7) 0.6304(3) 0.3782(2)
C13 C 0.8171(7) 0.6142(3) 0.3604(3)
H7 H 0.7372 0.6572 0.3434
C14 C 0.7556(7) 0.5329(3) 0.3681(3)
H8 H 0.6346 0.5218 0.3549
C15 C 1.0686(7) 0.7155(3) 0.3693(2)
C16 C 0.6244(6) 0.3570(3) -0.0103(2)
H9 H 0.5918 0.3018 -0.0033
C17 C 0.5649(7) 0.3931(3) -0.0774(3)
H10 H 0.4918 0.3627 -0.1140
C18 C 0.6127(6) 0.4727(3) -0.0900(2)
H11 H 0.5746 0.4970 -0.1351
C19 C 0.7213(6) 0.5181(3) -0.0333(2)
C20 C 0.7746(6) 0.4783(3) 0.0328(2)
C21 C 0.7821(7) 0.6022(3) -0.0403(3)
H12 H 0.7486 0.6293 -0.0845
C22 C 0.8851(7) 0.6429(3) 0.0147(3)
H13 H 0.9223 0.6974 0.0081
C23 C 0.9391(6) 0.6038(3) 0.0838(3)
C24 C 1.0483(7) 0.6425(3) 0.1443(3)
H14 H 1.0889 0.6971 0.1412
C25 C 1.0937(7) 0.5989(3) 0.2073(3)
H15 H 1.1658 0.6239 0.2475
C26 C 1.0323(7) 0.5169(3) 0.2116(3)
H16 H 1.0650 0.4883 0.2551
C27 C 0.8842(6) 0.5211(3) 0.0930(2)
Co1A Co 1.18323(9) 0.85685(4) 0.34972(3)
O4A O 1.0341(4) 0.27739(19) 0.14862(16)
O5A O 0.7663(5) 0.22522(19) 0.12272(18)
loop_
_geom_bond_atom_site_label_1
_geom_bond_atom_site_label_2
_geom_bond_site_symmetry_1
_geom_bond_site_symmetry_2
Co1 O1 1_555 1_555
O1 C1 1_555 1_555
O2 Co1 1_555 1_555
O3 C8 1_555 1_555
O4 C15 1_555 1_555
O5 C15 1_555 1_555
N1 Co1 1_555 1_555
N2 Co1 1_555 1_555
C1 O2 1_555 1_555
C2 C1 1_555 1_555
C3 C2 1_555 1_555
H1 C3 1_555 1_555
C4 C3 1_555 1_555
H2 C4 1_555 1_555
C5 C4 1_555 1_555
H3 C5 1_555 1_555
C6 C5 1_555 1_555
H4 C6 1_555 1_555
C7 C2 1_555 1_555
C8 C7 1_555 1_555
C9 C8 1_555 1_555
C10 C9 1_555 1_555
H5 C10 1_555 1_555
C11 C10 1_555 1_555
H6 C11 1_555 1_555
C12 C11 1_555 1_555
C13 C12 1_555 1_555
H7 C13 1_555 1_555
C14 C9 1_555 1_555
H8 C14 1_555 1_555
C15 C12 1_555 1_555
C16 N2 1_555 1_555
H9 C16 1_555 1_555
C17 C16 1_555 1_555
H10 C17 1_555 1_555
C18 C17 1_555 1_555
H11 C18 1_555 1_555
C19 C18 1_555 1_555
C20 N2 1_555 1_555
C21 C19 1_555 1_555
H12 C21 1_555 1_555
C22 C21 1_555 1_555
H13 C22 1_555 1_555
C23 C22 1_555 1_555
C24 C23 1_555 1_555
H14 C24 1_555 1_555
C25 C24 1_555 1_555
H15 C25 1_555 1_555
C26 N1 1_555 1_555
H16 C26 1_555 1_555
C27 N1 1_555 1_555
Co1A O4 1_555 1_555
O4A Co1 1_555 1_555
O5A Co1 1_555 1_555
O5 Co1A 1_555 1_555
C6 C7 1_555 1_555
C13 C14 1_555 1_555
C19 C20 1_555 1_555
C20 C27 1_555 1_555
C23 C27 1_555 1_555
C25 C26 1_555 1_555

#END
