
#######################################################################
#
#                 Cambridge Crystallographic Data Centre
#                                CCDC 
#
#######################################################################
#
# If this CIF has been generated from an entry in the Cambridge 
# Structural Database, then it will include bibliographic, chemical, 
# crystal, experimental, refinement or atomic coordinate data resulting 
# from the CCDC's data processing and validation procedures.
#
#######################################################################

data_VEWFUZ
_symmetry_cell_setting           monoclinic
_symmetry_space_group_name_H-M   'P 21/c'
_symmetry_Int_Tables_number      14
_space_group_name_Hall           '-P 2ybc'
loop_
_symmetry_equiv_pos_site_id
_symmetry_equiv_pos_as_xyz
1 x,y,z
2 -x,1/2+y,1/2-z
3 -x,-y,-z
4 x,1/2-y,1/2+z
_cell_length_a                   13.371(3)
_cell_length_b                   21.109(5)
_cell_length_c                   14.088(3)
_cell_angle_alpha                90
_cell_angle_beta                 118.33
_cell_angle_gamma                90
_cell_volume                     3500.07
loop_
_atom_site_label
_atom_site_type_symbol
_atom_site_fract_x
_atom_site_fract_y
_atom_site_fract_z
Cu1 Cu 0.23740(14) 0.17691(9) 1.15367(15)
Cu2 Cu -0.30700(16) 0.14028(11) 0.82295(17)
N1 N 0.0764(8) 0.1931(6) 1.0538(8)
C1 C 0.0381(11) 0.1788(7) 0.9512(11)
H1 H 0.0912 0.1751 0.9246
C2 C -0.0700(11) 0.1695(7) 0.8841(11)
H2 H -0.0927 0.1603 0.8107
C3 C -0.1166(10) 0.1937(7) 1.0162(10)
C4 C 0.0034(11) 0.2014(7) 1.0858(11)
C5 C -0.2013(12) 0.2004(10) 1.0503(12)
H3 H -0.2765 0.1919 0.9893
H4 H -0.1861 0.1702 1.1084
H5 H -0.1993 0.2436 1.0765
C6 C 0.0445(11) 0.2232(7) 1.2006(11)
H6 H 0.1275 0.2265 1.2375
H7 H 0.0114 0.2646 1.2004
H8 H 0.0211 0.1925 1.2384
N2 N -0.1501(10) 0.1726(7) 0.9171(10)
N3 N 0.5541(10) 0.3105(6) 1.2643(11)
C7 C 0.4894(12) 0.3128(8) 1.3123(12)
H9 H 0.5090 0.3411 1.3710
C8 C 0.3962(12) 0.2758(8) 1.2795(12)
H10 H 0.3483 0.2816 1.3115
C9 C 0.4355(11) 0.2287(9) 1.1591(12)
C10 C 0.5250(11) 0.2684(8) 1.1856(11)
C11 C 0.4070(15) 0.1808(11) 1.0732(12)
H11 H 0.3417 0.1558 1.0652
H12 H 0.4723 0.1528 1.0927
H13 H 0.3880 0.2022 1.0050
C12 C 0.5910(12) 0.2699(8) 1.1272(13)
H14 H 0.6505 0.3022 1.1589
H15 H 0.5407 0.2801 1.0512
H16 H 0.6260 0.2284 1.1323
N4 N 0.3691(9) 0.2311(5) 1.2034(9)
N5 N 0.2529(9) 0.0832(7) 1.1709(8)
C13 C 0.1990(12) 0.0469(8) 1.0822(15)
H17 H 0.1498 0.0661 1.0150
C14 C 0.2146(13) -0.0194(9) 1.0879(14)
H18 H 0.1749 -0.0443 1.0246
C15 C 0.3375(10) -0.0116(10) 1.2728(11)
C16 C 0.3200(10) 0.0541(6) 1.2634(10)
C17 C 0.4111(12) -0.0414(7) 1.3753(11)
H19 H 0.4121 -0.0872 1.3652
H20 H 0.3826 -0.0325 1.4265
H21 H 0.4883 -0.0245 1.4036
C18 C 0.3761(12) 0.0952(10) 1.3634(11)
H22 H 0.3558 0.1396 1.3434
H23 H 0.4588 0.0903 1.3967
H24 H 0.3500 0.0822 1.4148
N6 N 0.2849(9) -0.0479(6) 1.1814(9)
Cu1C Cu 1.23740(14) 0.32309(9) 1.65367(15)
Cu1C_2 Cu -0.76260(14) 0.32309(9) 0.65367(15)
Cu1A Cu 0.76260(14) 0.67691(9) 1.34633(15)
Cu2C Cu 0.69300(16) 0.35972(11) 1.32295(17)
Cu2B Cu 0.30700(16) -0.14028(11) 1.17705(17)
N1C N 1.0764(8) 0.3069(6) 1.5538(8)
C1C C 1.0381(11) 0.3212(7) 1.4512(11)
H1C H 1.0912 0.3249 1.4246
C2C C 0.9300(11) 0.3305(7) 1.3841(11)
H2C H 0.9073 0.3397 1.3107
C3C C 0.8834(10) 0.3063(7) 1.5162(10)
C4C C 1.0034(11) 0.2986(7) 1.5858(11)
C5C C 0.7987(12) 0.2996(10) 1.5503(12)
H3C H 0.7235 0.3081 1.4893
H4C H 0.8139 0.3298 1.6084
H5C H 0.8007 0.2564 1.5765
C6C C 1.0445(11) 0.2768(7) 1.7006(11)
H6C H 1.1275 0.2735 1.7375
H7C H 1.0114 0.2354 1.7004
H8C H 1.0211 0.3075 1.7384
N2C N 0.8499(10) 0.3274(7) 1.4171(10)
N2B N 0.1501(10) -0.1726(7) 1.0829(10)
N3C N -0.4459(10) 0.1895(6) 0.7643(11)
N3A N 0.4459(10) -0.1895(6) 1.2357(11)
C7C C -0.5106(12) 0.1872(8) 0.8123(12)
H9C H -0.4910 0.1589 0.8710
C8C C -0.6038(12) 0.2242(8) 0.7795(12)
H10C H -0.6517 0.2184 0.8115
C9C C -0.5645(11) 0.2713(9) 0.6591(12)
C10C C -0.4750(11) 0.2316(8) 0.6856(11)
C11C C -0.5930(15) 0.3192(11) 0.5732(12)
H11C H -0.6583 0.3442 0.5652
H12C H -0.5277 0.3472 0.5927
H13C H -0.6120 0.2978 0.5050
C12C C -0.4090(12) 0.2301(8) 0.6272(13)
H14C H -0.3495 0.1978 0.6589
H15C H -0.4593 0.2199 0.5512
H16C H -0.3740 0.2716 0.6323
N4C N -0.6309(9) 0.2689(5) 0.7034(9)
N5A N 0.7471(9) 0.5832(7) 1.3291(8)
C13A C 0.8010(12) 0.5469(8) 1.4178(15)
H17A H 0.8502 0.5661 1.4850
C14A C 0.7854(13) 0.4806(9) 1.4121(14)
H18A H 0.8251 0.4557 1.4754
C15A C 0.6625(10) 0.4884(10) 1.2272(11)
C16A C 0.6800(10) 0.5541(6) 1.2366(10)
C17A C 0.5889(12) 0.4586(7) 1.1247(11)
H19A H 0.5879 0.4128 1.1348
H20A H 0.6174 0.4675 1.0735
H21A H 0.5117 0.4755 1.0964
C18A C 0.6239(12) 0.5952(10) 1.1366(11)
H22A H 0.6442 0.6396 1.1566
H23A H 0.5412 0.5903 1.1033
H24A H 0.6500 0.5822 1.0852
N6B N -0.2849(9) 0.0479(6) 0.8186(9)
N6A N 0.7151(9) 0.4521(6) 1.3186(9)
W1 W 0.01033(4) 0.46356(3) 0.76236(5)
W2 W 0.16910(5) 0.37367(4) 0.99740(5)
W3 W -0.14845(5) 0.59353(4) 0.76943(5)
W4 W -0.12935(6) 0.36141(4) 0.85753(5)
W5 W 0.29744(5) 0.50864(5) 1.14939(5)
W6 W 0.15059(6) 0.59744(4) 0.91363(6)
Si1 Si 0.0000 0.5000 1.0000
O1 O 0.0959(6) 0.5473(4) 1.0393(10)
O2 O 0.0486(13) 0.4361(4) 1.0444(13)
O5 O -0.2678(10) 0.5407(9) 0.7569(9)
O6 O -0.1526(19) 0.3471(12) 0.9776(19)
O7 O 0.2697(16) 0.5564(11) 1.0203(12)
O8 O -0.2628(18) 0.4119(12) 0.7998(15)
O9 O 0.2824(13) 0.4318(11) 1.0676(11)
O10 O 0.1175(12) 0.5270(8) 0.8137(13)
O11 O -0.1893(12) 0.2969(7) 0.7959(11)
O12 O 0.0133(10) 0.4430(10) 0.6523(11)
O13 O -0.0939(10) 0.4030(5) 0.7572(10)
O14 O 0.1703(12) 0.3598(11) 1.1347(10)
O15 O 0.2464(12) 0.3129(7) 0.9969(13)
O16 O -0.0009(12) 0.6274(8) 0.8249(13)
O17 O 0.2194(8) 0.6436(6) 0.8669(9)
O18 O 0.0251(10) 0.3361(6) 0.9361(9)
O19 O 0.4403(10) 0.5151(7) 1.2218(10)
O20 O -0.1039(10) 0.5235(6) 0.7114(18)
O21 O -0.2157(11) 0.6379(6) 0.6581(9)
O22 O 0.1246(10) 0.4087(5) 0.8599(10)
W1B W -0.01033(4) 0.53644(3) 1.23764(5)
W2B W -0.16910(5) 0.62633(4) 1.00260(5)
W3B W 0.14845(5) 0.40647(4) 1.23057(5)
W4B W 0.12935(6) 0.63859(4) 1.14247(5)
W5B W -0.29744(5) 0.49136(5) 0.85061(5)
W6B W -0.15059(6) 0.40256(4) 1.08637(6)
O1B O -0.0959(6) 0.4527(4) 0.9607(10)
O2B O -0.0486(13) 0.5639(4) 0.9556(13)
O5B O 0.2678(10) 0.4593(9) 1.2431(9)
O6B O 0.1526(19) 0.6529(12) 1.0224(19)
O7B O -0.2697(16) 0.4436(11) 0.9797(12)
O8B O 0.2628(18) 0.5881(12) 1.2002(15)
O9B O -0.2824(13) 0.5682(11) 0.9324(11)
O10B O -0.1175(12) 0.4730(8) 1.1863(13)
O11B O 0.1893(12) 0.7031(7) 1.2041(11)
O12B O -0.0133(10) 0.5570(10) 1.3477(11)
O13B O 0.0939(10) 0.5970(5) 1.2428(10)
O14B O -0.1703(12) 0.6402(11) 0.8653(10)
O15B O -0.2464(12) 0.6871(7) 1.0031(13)
O16B O 0.0009(12) 0.3726(8) 1.1751(13)
O17B O -0.2194(8) 0.3564(6) 1.1331(9)
O18B O -0.0251(10) 0.6639(6) 1.0639(9)
O19B O -0.4403(10) 0.4849(7) 0.7782(10)
O20B O 0.1039(10) 0.4765(6) 1.2886(18)
O21B O 0.2157(11) 0.3621(6) 1.3419(9)
O22B O -0.1246(10) 0.5913(5) 1.1401(10)
O3? O -0.0555(16) 0.4984(10) 0.8790(5)
O4? O -0.0831(6) 0.5203(9) 1.0368(9)
loop_
_geom_bond_atom_site_label_1
_geom_bond_atom_site_label_2
_geom_bond_site_symmetry_1
_geom_bond_site_symmetry_2
W1 O10 1_555 1_555
W2 O2 1_555 1_555
W3 O5 1_555 1_555
W4 O6 1_555 1_555
W5 O1 1_555 1_555
W6 O1 1_555 1_555
Si1 O1 1_555 1_555
O1 W4B 1_555 1_555
O2 Si1 1_555 1_555
O5 W5B 1_555 1_555
O6 W6B 1_555 1_555
O7 W5 1_555 1_555
O8 W4 1_555 1_555
O9 W2 1_555 1_555
O10 W6 1_555 1_555
O11 W4 1_555 1_555
O12 W1 1_555 1_555
O13 W1 1_555 1_555
O14 W2 1_555 1_555
O15 W2 1_555 1_555
O16 W3 1_555 1_555
O17 W6 1_555 1_555
O18 W2 1_555 1_555
O19 W5 1_555 1_555
O20 W1 1_555 1_555
O21 W3 1_555 1_555
O22 W1 1_555 1_555
Cu1 N1 1_555 1_555
Cu2 N2 1_555 1_555
N1 C1 1_555 1_555
C1 H1 1_555 1_555
C2 C1 1_555 1_555
H2 C2 1_555 1_555
C3 C4 1_555 1_555
C4 N1 1_555 1_555
C5 C3 1_555 1_555
H3 C5 1_555 1_555
H4 C5 1_555 1_555
H5 C5 1_555 1_555
C6 C4 1_555 1_555
H6 C6 1_555 1_555
H7 C6 1_555 1_555
H8 C6 1_555 1_555
N2 C2 1_555 1_555
N3 C7 1_555 1_555
C7 H9 1_555 1_555
C8 C7 1_555 1_555
H10 C8 1_555 1_555
C9 C10 1_555 1_555
C10 N3 1_555 1_555
C11 C9 1_555 1_555
H11 C11 1_555 1_555
H12 C11 1_555 1_555
H13 C11 1_555 1_555
C12 C10 1_555 1_555
H14 C12 1_555 1_555
H15 C12 1_555 1_555
H16 C12 1_555 1_555
N4 Cu1 1_555 1_555
N5 Cu1 1_555 1_555
C13 N5 1_555 1_555
H17 C13 1_555 1_555
C14 C13 1_555 1_555
H18 C14 1_555 1_555
C15 C16 1_555 1_555
C16 N5 1_555 1_555
C17 C15 1_555 1_555
H19 C17 1_555 1_555
H20 C17 1_555 1_555
H21 C17 1_555 1_555
C18 C16 1_555 1_555
H22 C18 1_555 1_555
H23 C18 1_555 1_555
H24 C18 1_555 1_555
N6 C14 1_555 1_555
W1B O10B 1_555 1_555
W2B O2B 1_555 1_555
W3B O2 1_555 1_555
W4B O6B 1_555 1_555
W5B O8 1_555 1_555
W6B O1B 1_555 1_555
O1B W4 1_555 1_555
O2B W3 1_555 1_555
O5B W5 1_555 1_555
O6B W6 1_555 1_555
O7B W5B 1_555 1_555
O8B W5 1_555 1_555
O9B W2B 1_555 1_555
O10B W6B 1_555 1_555
O11B W4B 1_555 1_555
O12B W1B 1_555 1_555
O13B W1B 1_555 1_555
O14B W3 1_555 1_555
O15B W2B 1_555 1_555
O16B W3B 1_555 1_555
O17B W6B 1_555 1_555
O18B W2B 1_555 1_555
O19B W5B 1_555 1_555
O20B W1B 1_555 1_555
O21B W3B 1_555 1_555
O22B W1B 1_555 1_555
Cu1C N1C 1_555 1_555
Cu1C_2 N4C 1_555 1_555
Cu1A N5A 1_555 1_555
Cu2C N3 1_555 1_555
Cu2B N6 1_555 1_555
N1C C1C 1_555 1_555
C1C H1C 1_555 1_555
C2C C1C 1_555 1_555
H2C C2C 1_555 1_555
C3C C4C 1_555 1_555
C4C N1C 1_555 1_555
C5C C3C 1_555 1_555
H3C C5C 1_555 1_555
H4C C5C 1_555 1_555
H5C C5C 1_555 1_555
C6C C4C 1_555 1_555
H6C C6C 1_555 1_555
H7C C6C 1_555 1_555
H8C C6C 1_555 1_555
N2C Cu2C 1_555 1_555
N2B Cu2B 1_555 1_555
N3C Cu2 1_555 1_555
N3A Cu2B 1_555 1_555
C7C N3C 1_555 1_555
H9C C7C 1_555 1_555
C8C C7C 1_555 1_555
H10C C8C 1_555 1_555
C9C C10C 1_555 1_555
C10C N3C 1_555 1_555
C11C C9C 1_555 1_555
H11C C11C 1_555 1_555
H12C C11C 1_555 1_555
H13C C11C 1_555 1_555
C12C C10C 1_555 1_555
H14C C12C 1_555 1_555
H15C C12C 1_555 1_555
H16C C12C 1_555 1_555
N4C C8C 1_555 1_555
N5A C13A 1_555 1_555
C13A H17A 1_555 1_555
C14A C13A 1_555 1_555
H18A C14A 1_555 1_555
C15A C16A 1_555 1_555
C16A N5A 1_555 1_555
C17A C15A 1_555 1_555
H19A C17A 1_555 1_555
H20A C17A 1_555 1_555
H21A C17A 1_555 1_555
C18A C16A 1_555 1_555
H22A C18A 1_555 1_555
H23A C18A 1_555 1_555
H24A C18A 1_555 1_555
N6B Cu2 1_555 1_555
N6A Cu2C 1_555 1_555
W2 O22 1_555 1_555
W3 O20 1_555 1_555
W4 O13 1_555 1_555
W4 O18 1_555 1_555
W5 O9 1_555 1_555
W6 O7 1_555 1_555
W6 O16 1_555 1_555
Si1 O1B 1_555 1_555
Si1 O2B 1_555 1_555
O14 W3B 1_555 1_555
C3 N2 1_555 1_555
C8 N4 1_555 1_555
C9 N4 1_555 1_555
C15 N6 1_555 1_555
W2B O14B 1_555 1_555
W2B O22B 1_555 1_555
W3B O5B 1_555 1_555
W3B O20B 1_555 1_555
W4B O8B 1_555 1_555
W4B O13B 1_555 1_555
W4B O18B 1_555 1_555
W5B O1B 1_555 1_555
W5B O9B 1_555 1_555
W6B O7B 1_555 1_555
W6B O16B 1_555 1_555
C2C N2C 1_555 1_555
C3C N2C 1_555 1_555
C9C N4C 1_555 1_555
C14A N6A 1_555 1_555
C15A N6A 1_555 1_555

#END
