
#######################################################################
#
#                 Cambridge Crystallographic Data Centre
#                                CCDC 
#
#######################################################################
#
# If this CIF has been generated from an entry in the Cambridge 
# Structural Database, then it will include bibliographic, chemical, 
# crystal, experimental, refinement or atomic coordinate data resulting 
# from the CCDC's data processing and validation procedures.
#
#######################################################################

data_VEWFOT01
_symmetry_cell_setting           monoclinic
_symmetry_space_group_name_H-M   'C 2/m'
_symmetry_Int_Tables_number      12
_space_group_name_Hall           '-C 2y'
loop_
_symmetry_equiv_pos_site_id
_symmetry_equiv_pos_as_xyz
1 x,y,z
2 -x,y,-z
3 1/2+x,1/2+y,z
4 1/2-x,1/2+y,-z
5 -x,-y,-z
6 x,-y,z
7 1/2-x,1/2-y,-z
8 1/2+x,1/2-y,z
_cell_length_a                   15.035(5)
_cell_length_b                   20.369(5)
_cell_length_c                   11.504(5)
_cell_angle_alpha                90
_cell_angle_beta                 122.455(5)
_cell_angle_gamma                90
_cell_volume                     2972.82
loop_
_atom_site_label
_atom_site_type_symbol
_atom_site_fract_x
_atom_site_fract_y
_atom_site_fract_z
O1 O -0.501(7) -0.122(4) 0.187(9)
W1 W 0.0000 -0.17314(8) 0.5000
W2 W 0.25333(14) 0.0000 0.5523(2)
W3 W 0.04671(10) 0.08666(6) 0.27178(13)
W4 W 0.20731(11) -0.08620(6) 0.78039(13)
Si1 Si 0.0000 0.0000 0.5000
O2 O 0.059(6) 0.0000 0.418(7)
O3 O 0.129(6) 0.0000 0.617(8)
O4 O 0.371(3) 0.0000 0.576(3)
O5 O 0.0689(19) 0.1286(12) 0.165(2)
O6 O -0.105(2) 0.0914(14) 0.173(3)
O7 O 0.011(5) -0.257(2) 0.525(5)
O8 O 0.265(4) -0.065(2) 0.677(5)
O9 O 0.136(2) -0.1545(14) 0.651(3)
O10 O 0.027(3) 0.0000 0.193(4)
O11 O 0.3023(19) -0.1281(13) 0.908(3)
O12 O 0.052(2) -0.1538(14) 0.389(3)
O13 O 0.029(2) -0.0651(14) 0.594(3)
O14 O 0.236(3) 0.0000 0.851(4)
O15 O 0.185(2) 0.0622(14) 0.414(3)
W1D W 0.0000 0.17314(8) 0.5000
W2A W -0.25333(14) 0.0000 0.4477(2)
W3A W -0.04671(10) 0.08666(6) 0.72822(13)
W3E W 0.04671(10) -0.08666(6) 0.27178(13)
W3D W -0.04671(10) -0.08666(6) 0.72822(13)
W4D W -0.20731(11) 0.08620(6) 0.21961(13)
W4E W 0.20731(11) 0.08620(6) 0.78039(13)
W4A W -0.20731(11) -0.08620(6) 0.21961(13)
O2A O -0.059(6) 0.0000 0.582(7)
O3A O -0.129(6) 0.0000 0.383(8)
O4A O -0.371(3) 0.0000 0.424(3)
O5A O -0.0689(19) 0.1286(12) 0.835(2)
O5E O 0.0689(19) -0.1286(12) 0.165(2)
O5D O -0.0689(19) -0.1286(12) 0.835(2)
O6D O 0.105(2) -0.0914(14) 0.827(3)
O6A O 0.105(2) 0.0914(14) 0.827(3)
O6E O -0.105(2) -0.0914(14) 0.173(3)
O7A O -0.011(5) -0.257(2) 0.475(5)
O7E O 0.011(5) 0.257(2) 0.525(5)
O7D O -0.011(5) 0.257(2) 0.475(5)
O8E O 0.265(4) 0.065(2) 0.677(5)
O8A O -0.265(4) -0.065(2) 0.323(5)
O8D O -0.265(4) 0.065(2) 0.323(5)
O9A O -0.136(2) -0.1545(14) 0.349(3)
O9E O 0.136(2) 0.1545(14) 0.651(3)
O9D O -0.136(2) 0.1545(14) 0.349(3)
O10A O -0.027(3) 0.0000 0.807(4)
O11D O -0.3023(19) 0.1281(13) 0.092(3)
O11E O 0.3023(19) 0.1281(13) 0.908(3)
O11A O -0.3023(19) -0.1281(13) 0.092(3)
O12A O -0.052(2) -0.1538(14) 0.611(3)
O12E O 0.052(2) 0.1538(14) 0.389(3)
O12D O -0.052(2) 0.1538(14) 0.611(3)
O13E O 0.029(2) 0.0651(14) 0.594(3)
O13D O -0.029(2) 0.0651(14) 0.406(3)
O13A O -0.029(2) -0.0651(14) 0.406(3)
O14A O -0.236(3) 0.0000 0.149(4)
O15E O 0.185(2) -0.0622(14) 0.414(3)
O15A O -0.185(2) 0.0622(14) 0.586(3)
O15D O -0.185(2) -0.0622(14) 0.586(3)
Cu1 Cu 0.2096(5) -0.3346(3) 0.7215(7)
N1 N 0.235(3) -0.2814(15) 0.884(3)
N2 N 0.234(2) -0.2884(15) 0.595(4)
N3 N 0.191(2) -0.4312(13) 0.753(4)
C1 C 0.331(3) -0.2787(17) 0.994(4)
H1 H 0.3880 -0.2985 0.9970
C2 C 0.299(3) -0.2354(19) 0.635(4)
H2 H 0.3352 -0.2225 0.7268
C3 C 0.186(3) -0.3017(19) 0.462(4)
H3 H 0.1398 -0.3371 0.4275
C4 C 0.271(3) -0.4633(2) 0.852(4)
H4 H 0.3284 -0.4405 0.9218
C5 C 0.156(3) -0.2565(19) 0.889(4)
H5 H 0.0884 -0.2620 0.8124
C6 C 0.106(3) -0.4632(2) 0.665(4)
H6 H 0.0457 -0.4404 0.6011
Cu1F Cu 0.2904(5) -0.1654(3) 1.2785(7)
Cu1F_2 Cu 0.2904(5) -0.1654(3) 0.2785(7)
Cu1E Cu 0.2096(5) -0.6654(3) 0.7215(7)
Cu1_2 Cu 0.2096(5) -0.3346(3) 1.7215(7)
Cu1C Cu 0.2904(5) 0.1654(3) 1.2785(7)
Cu1_3 Cu 0.2096(5) -0.3346(3) -0.2785(7)
N1F N 0.265(3) -0.2186(15) 1.116(3)
N1F_2 N 0.265(3) -0.2186(15) 0.116(3)
N1_2 N 0.235(3) -0.2814(15) -0.116(3)
N1E N 0.235(3) -0.7186(15) 0.884(3)
N2F N 0.266(2) -0.2116(15) 0.405(4)
N2F_2 N 0.266(2) -0.2116(15) 1.405(4)
N2_2 N 0.234(2) -0.2884(15) 1.595(4)
N2E N 0.234(2) -0.7116(15) 0.595(4)
N3E N 0.191(2) -0.5688(13) 0.753(4)
N3F N 0.309(2) -0.0688(13) 1.247(4)
N3C N 0.309(2) 0.0688(13) 1.247(4)
N3F_2 N 0.309(2) -0.0688(13) 0.247(4)
C1F C 0.169(3) -0.2213(17) 1.006(4)
C1F_2 C 0.169(3) -0.2213(17) 0.006(4)
C1_2 C 0.331(3) -0.2787(17) -0.006(4)
H1F H 0.1120 -0.2015 1.0030
H1F_2 H 0.1120 -0.2015 0.0030
H1_2 H 0.3880 -0.2985 -0.0030
C2F C 0.201(3) -0.2646(19) 0.365(4)
C2F_2 C 0.201(3) -0.2646(19) 1.365(4)
C2_2 C 0.299(3) -0.2354(19) 1.635(4)
H2F H 0.1648 -0.2775 0.2732
H2F_2 H 0.1648 -0.2775 1.2732
H2_2 H 0.3352 -0.2225 1.7268
C3F C 0.314(3) -0.1983(19) 0.538(4)
C3F_2 C 0.314(3) -0.1983(19) 1.538(4)
C3_2 C 0.186(3) -0.3017(19) 1.462(4)
H3F H 0.3602 -0.1629 0.5725
H3F_2 H 0.3602 -0.1629 1.5725
H3_2 H 0.1398 -0.3371 1.4275
C4E C 0.271(3) -0.5367(2) 0.852(4)
C4F C 0.229(3) -0.0367(2) 1.148(4)
C4C C 0.229(3) 0.0367(2) 1.148(4)
H4E H 0.3284 -0.5595 0.9218
H4F H 0.1716 -0.0595 1.0782
H4C H 0.1716 0.0595 1.0782
C5F C 0.344(3) -0.2435(19) 1.111(4)
C5F_2 C 0.344(3) -0.2435(19) 0.111(4)
C5_2 C 0.156(3) -0.2565(19) -0.111(4)
H5F H 0.4116 -0.2380 1.1876
H5F_2 H 0.4116 -0.2380 0.1876
H5_2 H 0.0884 -0.2620 -0.1876
C6E C 0.106(3) -0.5368(2) 0.665(4)
C6F C 0.394(3) -0.0368(2) 1.335(4)
C6C C 0.394(3) 0.0368(2) 1.335(4)
H6E H 0.0457 -0.5596 0.6011
H6F H 0.4543 -0.0596 1.3989
H6C H 0.4543 0.0596 1.3989
loop_
_geom_bond_atom_site_label_1
_geom_bond_atom_site_label_2
_geom_bond_site_symmetry_1
_geom_bond_site_symmetry_2
Cu1 N1 1_555 1_555
N1 C1 1_555 1_555
N2 Cu1 1_555 1_555
N3 Cu1 1_555 1_555
C1 H1 1_555 1_555
C2 N2 1_555 1_555
H2 C2 1_555 1_555
C3 N2 1_555 1_555
H3 C3 1_555 1_555
C4 N3 1_555 1_555
H4 C4 1_555 1_555
C5 N1 1_555 1_555
H5 C5 1_555 1_555
C6 N3 1_555 1_555
H6 C6 1_555 1_555
W1 O7 1_555 1_555
W2 O2 1_555 1_555
W3 O2 1_555 1_555
W4 O3 1_555 1_555
Si1 O2 1_555 1_555
O2 W3E 1_555 1_555
O3 W2 1_555 1_555
O4 W2 1_555 1_555
O5 W3 1_555 1_555
O6 W3 1_555 1_555
O7 O7A 1_555 1_555
O8 W2 1_555 1_555
O9 W1 1_555 1_555
O10 W3 1_555 1_555
O11 W4 1_555 1_555
O12 W1 1_555 1_555
O13 W1 1_555 1_555
O14 W4 1_555 1_555
O15 W2 1_555 1_555
Cu1F N1F 1_555 1_555
Cu1F_2 N1F_2 1_555 1_555
Cu1E N1E 1_555 1_555
Cu1_2 N2_2 1_555 1_555
Cu1C N3C 1_555 1_555
Cu1_3 N1_2 1_555 1_555
N1F C1F 1_555 1_555
N1F_2 C1F_2 1_555 1_555
N1_2 C1_2 1_555 1_555
N2F Cu1F_2 1_555 1_555
N2F_2 Cu1F 1_555 1_555
N2_2 C2_2 1_555 1_555
N2E Cu1E 1_555 1_555
N3E Cu1E 1_555 1_555
N3F Cu1F 1_555 1_555
N3C C4C 1_555 1_555
N3F_2 Cu1F_2 1_555 1_555
C1F C5 1_555 1_555
C1F_2 H1F_2 1_555 1_555
C1_2 H1_2 1_555 1_555
H1F C1F 1_555 1_555
C2F C3 1_555 1_555
C2F_2 N2F_2 1_555 1_555
C2_2 H2_2 1_555 1_555
H2F C2F 1_555 1_555
H2F_2 C2F_2 1_555 1_555
C3F C2 1_555 1_555
C3F_2 N2F_2 1_555 1_555
C3_2 N2_2 1_555 1_555
H3F C3F 1_555 1_555
H3F_2 C3F_2 1_555 1_555
H3_2 C3_2 1_555 1_555
C4E C4 1_555 1_555
C4F N3F 1_555 1_555
C4C C4F 1_555 1_555
H4E C4E 1_555 1_555
H4F C4F 1_555 1_555
H4C C4C 1_555 1_555
C5F C1 1_555 1_555
C5F_2 N1F_2 1_555 1_555
C5_2 N1_2 1_555 1_555
H5F C5F 1_555 1_555
H5F_2 C5F_2 1_555 1_555
H5_2 C5_2 1_555 1_555
C6E C6 1_555 1_555
C6F N3F 1_555 1_555
C6C N3C 1_555 1_555
H6E C6E 1_555 1_555
H6F C6F 1_555 1_555
H6C C6C 1_555 1_555
W1D O7E 1_555 1_555
W2A O2A 1_555 1_555
W3A O2A 1_555 1_555
W3E O10 1_555 1_555
W3D O13 1_555 1_555
W4D O6 1_555 1_555
W4E O3 1_555 1_555
W4A O3A 1_555 1_555
O2A Si1 1_555 1_555
O3A Si1 1_555 1_555
O4A W2A 1_555 1_555
O5A W3A 1_555 1_555
O5E W3E 1_555 1_555
O5D W3D 1_555 1_555
O6D W4 1_555 1_555
O6A W3A 1_555 1_555
O6E W3E 1_555 1_555
O7A W1 1_555 1_555
O7E O7D 1_555 1_555
O7D W1D 1_555 1_555
O8E W2 1_555 1_555
O8A W2A 1_555 1_555
O8D W2A 1_555 1_555
O9A W1 1_555 1_555
O9E W1D 1_555 1_555
O9D W1D 1_555 1_555
O10A W3A 1_555 1_555
O11D W4D 1_555 1_555
O11E W4E 1_555 1_555
O11A W4A 1_555 1_555
O12A W1 1_555 1_555
O12E W3 1_555 1_555
O12D W1D 1_555 1_555
O13E Si1 1_555 1_555
O13D W3 1_555 1_555
O13A W1 1_555 1_555
O14A W4D 1_555 1_555
O15E W2 1_555 1_555
O15A W2A 1_555 1_555
O15D W2A 1_555 1_555
W3 O15 1_555 1_555
W4 O8 1_555 1_555
W4 O9 1_555 1_555
W4 O13 1_555 1_555
Si1 O3 1_555 1_555
Si1 O13 1_555 1_555
Si1 O13D 1_555 1_555
Si1 O13A 1_555 1_555
O12 W3E 1_555 1_555
O14 W4E 1_555 1_555
N1F C5F 1_555 1_555
N2F C2F 1_555 1_555
N2F C3F 1_555 1_555
N3E C4E 1_555 1_555
N3E C6E 1_555 1_555
C1F_2 C5_2 1_555 1_555
C1_2 C5F_2 1_555 1_555
C2F_2 C3_2 1_555 1_555
C2_2 C3F_2 1_555 1_555
C6F C6C 1_555 1_555
W1D O12E 1_555 1_555
W1D O13E 1_555 1_555
W1D O13D 1_555 1_555
W2A O3A 1_555 1_555
W3A O12D 1_555 1_555
W3A O13E 1_555 1_555
W3A O15A 1_555 1_555
W3E O13A 1_555 1_555
W3E O15E 1_555 1_555
W3D O2A 1_555 1_555
W3D O6D 1_555 1_555
W3D O10A 1_555 1_555
W3D O12A 1_555 1_555
W3D O15D 1_555 1_555
W4D O3A 1_555 1_555
W4D O8D 1_555 1_555
W4D O9D 1_555 1_555
W4D O13D 1_555 1_555
W4E O6A 1_555 1_555
W4E O8E 1_555 1_555
W4E O9E 1_555 1_555
W4E O13E 1_555 1_555
W4A O6E 1_555 1_555
W4A O8A 1_555 1_555
W4A O9A 1_555 1_555
W4A O13A 1_555 1_555
W4A O14A 1_555 1_555

#END
