
#######################################################################
#
#                 Cambridge Crystallographic Data Centre
#                                CCDC 
#
#######################################################################
#
# If this CIF has been generated from an entry in the Cambridge 
# Structural Database, then it will include bibliographic, chemical, 
# crystal, experimental, refinement or atomic coordinate data resulting 
# from the CCDC's data processing and validation procedures.
#
#######################################################################

data_VEWFEJ
_symmetry_cell_setting           rhombohedral
_symmetry_space_group_name_H-M   'R -3 m'
_symmetry_Int_Tables_number      166
_space_group_name_Hall           '-R 3 2"'
loop_
_symmetry_equiv_pos_site_id
_symmetry_equiv_pos_as_xyz
1 x,y,z
2 -y,x-y,z
3 -x+y,-x,z
4 y,x,-z
5 2/3+x,1/3+y,1/3+z
6 2/3-y,1/3+x-y,1/3+z
7 2/3-x+y,1/3-x,1/3+z
8 2/3+y,1/3+x,1/3-z
9 1/3+x,2/3+y,2/3+z
10 1/3+y,2/3+x,2/3-z
11 x-y,-y,-z
12 -x,-x+y,-z
13 1/3-y,2/3+x-y,2/3+z
14 1/3-x+y,2/3-x,2/3+z
15 1/3+x-y,2/3-y,2/3-z
16 1/3-x,2/3-x+y,2/3-z
17 2/3+x-y,1/3-y,1/3-z
18 2/3-x,1/3-x+y,1/3-z
19 -x,-y,-z
20 y,-x+y,-z
21 x-y,x,-z
22 -y,-x,z
23 1/3-x,2/3-y,2/3-z
24 1/3+y,2/3-x+y,2/3-z
25 1/3+x-y,2/3+x,2/3-z
26 1/3-y,2/3-x,2/3+z
27 2/3-x,1/3-y,1/3-z
28 2/3-y,1/3-x,1/3+z
29 -x+y,y,z
30 x,x-y,z
31 2/3+y,1/3-x+y,1/3-z
32 2/3+x-y,1/3+x,1/3-z
33 2/3-x+y,1/3+y,1/3+z
34 2/3+x,1/3+x-y,1/3+z
35 1/3-x+y,2/3+y,2/3+z
36 1/3+x,2/3+x-y,2/3+z
_cell_length_a                   20.225(3)
_cell_length_b                   20.225(3)
_cell_length_c                   23.057(6)
_cell_angle_alpha                90
_cell_angle_beta                 90
_cell_angle_gamma                120.00
_cell_volume                     8167.9
loop_
_atom_site_label
_atom_site_type_symbol
_atom_site_fract_x
_atom_site_fract_y
_atom_site_fract_z
Cu1 Cu 0.33362(4) 0.33362(4) 0.0000
N1 N 0.4307(3) 0.4307(3) 0.0000
C1 C 0.4464(2) 0.4863(2) 0.03829(19)
C2 C 0.3938(12) 0.4764(11) 0.0884(8)
H2 H 0.3469 0.4267 0.0852
H3 H 0.3810 0.5171 0.0874
H4 H 0.4194 0.4788 0.1251
N2 N 0.32138(19) 0.2292(2) -0.00494(19)
C3 C 0.3333(2) 0.2010(2) -0.05360(19)
C4 C 0.3533(6) 0.2464(8) -0.1110(5)
H6 H 0.3513 0.2933 -0.1053
H7 H 0.3165 0.2152 -0.1410
H8 H 0.4049 0.2594 -0.1232
C5 C 0.3042(2) 0.1870(2) 0.0429(2)
H9 H 0.2917 0.2039 0.0774
Cu1R Cu 0.66638(4) 0.66638(4) 0.0000
Cu1CA Cu 0.33362(4) 0.00000(6) 0.0000
Cu1BA Cu 0.00000(6) 0.33362(4) 0.0000
Cu1A Cu 0.66638(4) 0.00000(6) 0.0000
Cu1B Cu 0.00000(6) 0.66638(4) 0.0000
Cu1B_2 Cu 1.00000(6) 0.66638(4) 0.0000
Cu1A_2 Cu 0.66638(4) 1.00000(6) 0.0000
Cu1B_3 Cu 0.00000(6) -0.33362(4) 0.0000
Cu1A_3 Cu -0.33362(4) 0.00000(6) 0.0000
Cu1BA_2 Cu 1.00000(6) 0.33362(4) 0.0000
Cu1CA_2 Cu 0.33362(4) 1.00000(6) 0.0000
Cu1R_2 Cu 0.66638(4) -0.33362(4) 0.0000
Cu1R_3 Cu -0.33362(4) 0.66638(4) 0.0000
Cu1CA_3 Cu 1.33362(4) 1.00000(6) 0.0000
Cu1BA_3 Cu 1.00000(6) 1.33362(4) 0.0000
Cu1BA_4 Cu 0.00000(6) -0.66638(4) 0.0000
N1R N 0.5693(3) 0.5693(3) 0.0000
N1CA N 0.4307(3) 0.0000(4) 0.0000
N1A N 0.5693(3) 0.0000(4) 0.0000
N1BA N 0.0000(4) 0.4307(3) 0.0000
N1B N 0.0000(4) 0.5693(3) 0.0000
N1B_2 N 1.0000(4) 0.5693(3) 0.0000
N1BA_2 N 1.0000(4) 0.4307(3) 0.0000
N1A_2 N 0.5693(3) 1.0000(4) 0.0000
N1CA_2 N 0.4307(3) 1.0000(4) 0.0000
N1B_3 N 0.0000(4) -0.4307(3) 0.0000
N1BA_3 N 0.0000(4) -0.5693(3) 0.0000
N1A_3 N -0.4307(3) 0.0000(4) 0.0000
C1U C 0.5137(2) 0.5536(2) 0.03829(19)
C1R C 0.5536(2) 0.5137(2) -0.03829(19)
C1C C 0.4863(2) 0.4464(2) -0.03829(19)
C1CA C 0.4464(2) -0.0399(3) 0.03829(19)
C1A C 0.5137(2) -0.0399(3) 0.03829(19)
C1K C 0.5536(2) 0.0399(3) -0.03829(19)
C1S C 0.4863(2) 0.0399(3) -0.03829(19)
C1T C -0.0399(3) 0.4464(2) -0.03829(19)
C1J C -0.0399(3) 0.5137(2) -0.03829(19)
C1B C 0.0399(3) 0.5536(2) 0.03829(19)
C1BA C 0.0399(3) 0.4863(2) 0.03829(19)
C1B_2 C 1.0399(3) 0.5536(2) 0.03829(19)
C1BA_2 C 1.0399(3) 0.4863(2) 0.03829(19)
C1T_2 C 0.9601(3) 0.4464(2) -0.03829(19)
C1J_2 C 0.9601(3) 0.5137(2) -0.03829(19)
C1K_2 C 0.5536(2) 1.0399(3) -0.03829(19)
C1S_2 C 0.4863(2) 1.0399(3) -0.03829(19)
C1CA_2 C 0.4464(2) 0.9601(3) 0.03829(19)
C1A_2 C 0.5137(2) 0.9601(3) 0.03829(19)
C1J_3 C -0.0399(3) -0.4863(2) -0.03829(19)
C1T_3 C -0.0399(3) -0.5536(2) -0.03829(19)
C1BA_3 C 0.0399(3) -0.5137(2) 0.03829(19)
C1B_3 C 0.0399(3) -0.4464(2) 0.03829(19)
C2C C 0.4764(11) 0.3938(12) -0.0884(8)
C2R C 0.6062(12) 0.5236(11) -0.0884(8)
C2U C 0.5236(11) 0.6062(12) 0.0884(8)
C2CA C 0.3938(12) -0.0826(16) 0.0884(8)
C2S C 0.4764(11) 0.0826(16) -0.0884(8)
C2K C 0.6062(12) 0.0826(16) -0.0884(8)
C2A C 0.5236(11) -0.0826(16) 0.0884(8)
C2T C -0.0826(16) 0.3938(12) -0.0884(8)
C2BA C 0.0826(16) 0.4764(11) 0.0884(8)
C2B C 0.0826(16) 0.6062(12) 0.0884(8)
C2J C -0.0826(16) 0.5236(11) -0.0884(8)
C2B_2 C 1.0826(16) 0.6062(12) 0.0884(8)
C2J_2 C 0.9174(16) 0.5236(11) -0.0884(8)
C2T_2 C 0.9174(16) 0.3938(12) -0.0884(8)
C2BA_2 C 1.0826(16) 0.4764(11) 0.0884(8)
C2K_2 C 0.6062(12) 1.0826(16) -0.0884(8)
C2A_2 C 0.5236(11) 0.9174(16) 0.0884(8)
C2CA_2 C 0.3938(12) 0.9174(16) 0.0884(8)
C2S_2 C 0.4764(11) 1.0826(16) -0.0884(8)
C2J_3 C -0.0826(16) -0.4764(11) -0.0884(8)
C2B_3 C 0.0826(16) -0.3938(12) 0.0884(8)
C2BA_3 C 0.0826(16) -0.5236(11) 0.0884(8)
C2T_3 C -0.0826(16) -0.6062(12) -0.0884(8)
H2C H 0.4267 0.3469 -0.0852
H2R H 0.6531 0.5733 -0.0852
H2U H 0.5733 0.6531 0.0852
H2CA H 0.3469 -0.0798 0.0852
H2S H 0.4267 0.0798 -0.0852
H2K H 0.6531 0.0798 -0.0852
H2A H 0.5733 -0.0798 0.0852
H2T H -0.0798 0.3469 -0.0852
H2BA H 0.0798 0.4267 0.0852
H2B H 0.0798 0.6531 0.0852
H2J H -0.0798 0.5733 -0.0852
H2B_2 H 1.0798 0.6531 0.0852
H2J_2 H 0.9202 0.5733 -0.0852
H2T_2 H 0.9202 0.3469 -0.0852
H2BA_2 H 1.0798 0.4267 0.0852
H2K_2 H 0.6531 1.0798 -0.0852
H2A_2 H 0.5733 0.9202 0.0852
H2CA_2 H 0.3469 0.9202 0.0852
H2S_2 H 0.4267 1.0798 -0.0852
H2J_3 H -0.0798 -0.4267 -0.0852
H2B_3 H 0.0798 -0.3469 0.0852
H2BA_3 H 0.0798 -0.5733 0.0852
H2T_3 H -0.0798 -0.6531 -0.0852
H3C H 0.5171 0.3810 -0.0874
H3R H 0.6190 0.4829 -0.0874
H3U H 0.4829 0.6190 0.0874
H3CA H 0.3810 -0.1361 0.0874
H3S H 0.5171 0.1361 -0.0874
H3K H 0.6190 0.1361 -0.0874
H3A H 0.4829 -0.1361 0.0874
H3T H -0.1361 0.3810 -0.0874
H3BA H 0.1361 0.5171 0.0874
H3B H 0.1361 0.6190 0.0874
H3J H -0.1361 0.4829 -0.0874
H3B_2 H 1.1361 0.6190 0.0874
H3J_2 H 0.8639 0.4829 -0.0874
H3T_2 H 0.8639 0.3810 -0.0874
H3BA_2 H 1.1361 0.5171 0.0874
H3K_2 H 0.6190 1.1361 -0.0874
H3A_2 H 0.4829 0.8639 0.0874
H3CA_2 H 0.3810 0.8639 0.0874
H3S_2 H 0.5171 1.1361 -0.0874
H3J_3 H -0.1361 -0.5171 -0.0874
H3B_3 H 0.1361 -0.3810 0.0874
H3BA_3 H 0.1361 -0.4829 0.0874
H3T_3 H -0.1361 -0.6190 -0.0874
H4C H 0.4788 0.4194 -0.1251
H4R H 0.5806 0.5212 -0.1251
H4U H 0.5212 0.5806 0.1251
H4CA H 0.4194 -0.0594 0.1251
H4S H 0.4788 0.0594 -0.1251
H4K H 0.5806 0.0594 -0.1251
H4A H 0.5212 -0.0594 0.1251
H4T H -0.0594 0.4194 -0.1251
H4BA H 0.0594 0.4788 0.1251
H4B H 0.0594 0.5806 0.1251
H4J H -0.0594 0.5212 -0.1251
H4B_2 H 1.0594 0.5806 0.1251
H4J_2 H 0.9406 0.5212 -0.1251
H4T_2 H 0.9406 0.4194 -0.1251
H4BA_2 H 1.0594 0.4788 0.1251
H4K_2 H 0.5806 1.0594 -0.1251
H4A_2 H 0.5212 0.9406 0.1251
H4CA_2 H 0.4194 0.9406 0.1251
H4S_2 H 0.4788 1.0594 -0.1251
H4J_3 H -0.0594 -0.4788 -0.1251
H4B_3 H 0.0594 -0.4194 0.1251
H4BA_3 H 0.0594 -0.5212 0.1251
H4T_3 H -0.0594 -0.5806 -0.1251
N2CA N 0.32138(19) 0.09218(28) -0.00494(19)
N2C N 0.2292(2) 0.32138(19) 0.00494(19)
N2T N 0.09218(28) 0.32138(19) 0.00494(19)
N2U N 0.7708(2) 0.67862(19) -0.00494(19)
N2B N 0.90782(28) 0.67862(19) -0.00494(19)
N2R N 0.67862(19) 0.7708(2) 0.00494(19)
N2K N 0.67862(19) 0.90782(28) 0.00494(19)
N2S N 0.2292(2) -0.09218(28) 0.00494(19)
N2J N 0.09218(28) -0.2292(2) 0.00494(19)
N2BA N -0.09218(28) 0.2292(2) -0.00494(19)
N2A N -0.2292(2) 0.09218(28) -0.00494(19)
N2A_2 N 0.7708(2) 0.09218(28) -0.00494(19)
N2BA_2 N 0.90782(28) 0.2292(2) -0.00494(19)
N2K_2 N 0.67862(19) -0.09218(28) 0.00494(19)
N2R_2 N 0.67862(19) -0.2292(2) 0.00494(19)
N2J_2 N 0.09218(28) 0.7708(2) 0.00494(19)
N2S_2 N 0.2292(2) 0.90782(28) 0.00494(19)
N2B_2 N -0.09218(28) 0.67862(19) -0.00494(19)
N2U_2 N -0.2292(2) 0.67862(19) -0.00494(19)
N2J_3 N 1.09218(28) 0.7708(2) 0.00494(19)
N2S_3 N 1.2292(2) 0.90782(28) 0.00494(19)
N2A_3 N 0.7708(2) 1.09218(28) -0.00494(19)
N2BA_3 N 0.90782(28) 1.2292(2) -0.00494(19)
N2B_3 N -0.09218(28) -0.32138(19) -0.00494(19)
N2K_3 N -0.32138(19) -0.09218(28) 0.00494(19)
N2T_2 N 1.09218(28) 0.32138(19) 0.00494(19)
N2CA_2 N 0.32138(19) 1.09218(28) -0.00494(19)
C3CA C 0.3333(2) 0.1323(3) -0.05360(19)
C3C C 0.2010(2) 0.3333(2) 0.05360(19)
C3T C 0.1323(3) 0.3333(2) 0.05360(19)
C3U C 0.7990(2) 0.6667(2) -0.05360(19)
C3B C 0.8677(3) 0.6667(2) -0.05360(19)
C3R C 0.6667(2) 0.7990(2) 0.05360(19)
C3K C 0.6667(2) 0.8677(3) 0.05360(19)
C3S C 0.2010(2) -0.1323(3) 0.05360(19)
C3J C 0.1323(3) -0.2010(2) 0.05360(19)
C3BA C -0.1323(3) 0.2010(2) -0.05360(19)
C3A C -0.2010(2) 0.1323(3) -0.05360(19)
C3A_2 C 0.7990(2) 0.1323(3) -0.05360(19)
C3BA_2 C 0.8677(3) 0.2010(2) -0.05360(19)
C3K_2 C 0.6667(2) -0.1323(3) 0.05360(19)
C3R_2 C 0.6667(2) -0.2010(2) 0.05360(19)
C3J_2 C 0.1323(3) 0.7990(2) 0.05360(19)
C3S_2 C 0.2010(2) 0.8677(3) 0.05360(19)
C3B_2 C -0.1323(3) 0.6667(2) -0.05360(19)
C3U_2 C -0.2010(2) 0.6667(2) -0.05360(19)
C3J_3 C 1.1323(3) 0.7990(2) 0.05360(19)
C3S_3 C 1.2010(2) 0.8677(3) 0.05360(19)
C3A_3 C 0.7990(2) 1.1323(3) -0.05360(19)
C3BA_3 C 0.8677(3) 1.2010(2) -0.05360(19)
C4CA C 0.3533(6) 0.1069(10) -0.1110(5)
C4C C 0.2464(8) 0.3533(6) 0.1110(5)
C4T C 0.1069(10) 0.3533(6) 0.1110(5)
C4U C 0.7536(8) 0.6467(6) -0.1110(5)
C4B C 0.8931(10) 0.6467(6) -0.1110(5)
C4R C 0.6467(6) 0.7536(8) 0.1110(5)
C4K C 0.6467(6) 0.8931(10) 0.1110(5)
C4S C 0.2464(8) -0.1069(10) 0.1110(5)
C4J C 0.1069(10) -0.2464(8) 0.1110(5)
C4BA C -0.1069(10) 0.2464(8) -0.1110(5)
C4A C -0.2464(8) 0.1069(10) -0.1110(5)
C4A_2 C 0.7536(8) 0.1069(10) -0.1110(5)
C4BA_2 C 0.8931(10) 0.2464(8) -0.1110(5)
C4K_2 C 0.6467(6) -0.1069(10) 0.1110(5)
C4R_2 C 0.6467(6) -0.2464(8) 0.1110(5)
C4J_2 C 0.1069(10) 0.7536(8) 0.1110(5)
C4S_2 C 0.2464(8) 0.8931(10) 0.1110(5)
C4B_2 C -0.1069(10) 0.6467(6) -0.1110(5)
C4U_2 C -0.2464(8) 0.6467(6) -0.1110(5)
C4J_3 C 1.1069(10) 0.7536(8) 0.1110(5)
C4S_3 C 1.2464(8) 0.8931(10) 0.1110(5)
C4A_3 C 0.7536(8) 1.1069(10) -0.1110(5)
C4BA_3 C 0.8931(10) 1.2464(8) -0.1110(5)
H6CA H 0.3513 0.0580 -0.1053
H6C H 0.2933 0.3513 0.1053
H6T H 0.0580 0.3513 0.1053
H6U H 0.7067 0.6487 -0.1053
H6B H 0.9420 0.6487 -0.1053
H6R H 0.6487 0.7067 0.1053
H6K H 0.6487 0.9420 0.1053
H6S H 0.2933 -0.0580 0.1053
H6J H 0.0580 -0.2933 0.1053
H6BA H -0.0580 0.2933 -0.1053
H6A H -0.2933 0.0580 -0.1053
H6A_2 H 0.7067 0.0580 -0.1053
H6BA_2 H 0.9420 0.2933 -0.1053
H6K_2 H 0.6487 -0.0580 0.1053
H6R_2 H 0.6487 -0.2933 0.1053
H6J_2 H 0.0580 0.7067 0.1053
H6S_2 H 0.2933 0.9420 0.1053
H6B_2 H -0.0580 0.6487 -0.1053
H6U_2 H -0.2933 0.6487 -0.1053
H6J_3 H 1.0580 0.7067 0.1053
H6S_3 H 1.2933 0.9420 0.1053
H6A_3 H 0.7067 1.0580 -0.1053
H6BA_3 H 0.9420 1.2933 -0.1053
H7CA H 0.3165 0.1013 -0.1410
H7C H 0.2152 0.3165 0.1410
H7T H 0.1013 0.3165 0.1410
H7U H 0.7848 0.6835 -0.1410
H7B H 0.8987 0.6835 -0.1410
H7R H 0.6835 0.7848 0.1410
H7K H 0.6835 0.8987 0.1410
H7S H 0.2152 -0.1013 0.1410
H7J H 0.1013 -0.2152 0.1410
H7BA H -0.1013 0.2152 -0.1410
H7A H -0.2152 0.1013 -0.1410
H7A_2 H 0.7848 0.1013 -0.1410
H7BA_2 H 0.8987 0.2152 -0.1410
H7K_2 H 0.6835 -0.1013 0.1410
H7R_2 H 0.6835 -0.2152 0.1410
H7J_2 H 0.1013 0.7848 0.1410
H7S_2 H 0.2152 0.8987 0.1410
H7B_2 H -0.1013 0.6835 -0.1410
H7U_2 H -0.2152 0.6835 -0.1410
H7J_3 H 1.1013 0.7848 0.1410
H7S_3 H 1.2152 0.8987 0.1410
H7A_3 H 0.7848 1.1013 -0.1410
H7BA_3 H 0.8987 1.2152 -0.1410
H8CA H 0.4049 0.1455 -0.1232
H8C H 0.2594 0.4049 0.1232
H8T H 0.1455 0.4049 0.1232
H8U H 0.7406 0.5951 -0.1232
H8B H 0.8545 0.5951 -0.1232
H8R H 0.5951 0.7406 0.1232
H8K H 0.5951 0.8545 0.1232
H8S H 0.2594 -0.1455 0.1232
H8J H 0.1455 -0.2594 0.1232
H8BA H -0.1455 0.2594 -0.1232
H8A H -0.2594 0.1455 -0.1232
H8A_2 H 0.7406 0.1455 -0.1232
H8BA_2 H 0.8545 0.2594 -0.1232
H8K_2 H 0.5951 -0.1455 0.1232
H8R_2 H 0.5951 -0.2594 0.1232
H8J_2 H 0.1455 0.7406 0.1232
H8S_2 H 0.2594 0.8545 0.1232
H8B_2 H -0.1455 0.5951 -0.1232
H8U_2 H -0.2594 0.5951 -0.1232
H8J_3 H 1.1455 0.7406 0.1232
H8S_3 H 1.2594 0.8545 0.1232
H8A_3 H 0.7406 1.1455 -0.1232
H8BA_3 H 0.8545 1.2594 -0.1232
C5CA C 0.3042(2) 0.1172(3) 0.0429(2)
C5C C 0.1870(2) 0.3042(2) -0.0429(2)
C5T C 0.1172(3) 0.3042(2) -0.0429(2)
C5U C 0.8130(2) 0.6958(2) 0.0429(2)
C5B C 0.8828(3) 0.6958(2) 0.0429(2)
C5R C 0.6958(2) 0.8130(2) -0.0429(2)
C5K C 0.6958(2) 0.8828(3) -0.0429(2)
C5S C 0.1870(2) -0.1172(3) -0.0429(2)
C5J C 0.1172(3) -0.1870(2) -0.0429(2)
C5BA C -0.1172(3) 0.1870(2) 0.0429(2)
C5A C -0.1870(2) 0.1172(3) 0.0429(2)
C5A_2 C 0.8130(2) 0.1172(3) 0.0429(2)
C5BA_2 C 0.8828(3) 0.1870(2) 0.0429(2)
C5K_2 C 0.6958(2) -0.1172(3) -0.0429(2)
C5R_2 C 0.6958(2) -0.1870(2) -0.0429(2)
C5J_2 C 0.1172(3) 0.8130(2) -0.0429(2)
C5S_2 C 0.1870(2) 0.8828(3) -0.0429(2)
C5B_2 C -0.1172(3) 0.6958(2) 0.0429(2)
C5U_2 C -0.1870(2) 0.6958(2) 0.0429(2)
C5J_3 C 1.1172(3) 0.8130(2) -0.0429(2)
C5S_3 C 1.1870(2) 0.8828(3) -0.0429(2)
C5A_3 C 0.8130(2) 1.1172(3) 0.0429(2)
C5BA_3 C 0.8828(3) 1.1870(2) 0.0429(2)
H9CA H 0.2917 0.0878 0.0774
H9C H 0.2039 0.2917 -0.0774
H9T H 0.0878 0.2917 -0.0774
H9U H 0.7961 0.7083 0.0774
H9B H 0.9122 0.7083 0.0774
H9R H 0.7083 0.7961 -0.0774
H9K H 0.7083 0.9122 -0.0774
H9S H 0.2039 -0.0878 -0.0774
H9J H 0.0878 -0.2039 -0.0774
H9BA H -0.0878 0.2039 0.0774
H9A H -0.2039 0.0878 0.0774
H9A_2 H 0.7961 0.0878 0.0774
H9BA_2 H 0.9122 0.2039 0.0774
H9K_2 H 0.7083 -0.0878 -0.0774
H9R_2 H 0.7083 -0.2039 -0.0774
H9J_2 H 0.0878 0.7961 -0.0774
H9S_2 H 0.2039 0.9122 -0.0774
H9B_2 H -0.0878 0.7083 0.0774
H9U_2 H -0.2039 0.7083 0.0774
H9J_3 H 1.0878 0.7961 -0.0774
H9S_3 H 1.2039 0.9122 -0.0774
H9A_3 H 0.7961 1.0878 0.0774
H9BA_3 H 0.9122 1.2039 0.0774
O12 O 0.6667 0.3333 -0.1667
O13 O 0.4142(12) 0.5858(12) 0.1444(9)
Mo1 Mo 0.493018(16) 0.338206(17) 0.121850(17)
Mo2 Mo 0.605574(13) 0.394426(13) 0.24119(2)
Mo3 Mo 0.72256(3) 0.445120(14) -0.00886(2)
P1 P 0.6666 0.3333 0.11863(10)
O1 O 0.6666 0.3333 0.0523(3)
O2 O 0.62542(9) 0.37459(19) 0.14070(16)
O3 O 0.58527(12) 0.41473(12) 0.30680(18)
O4 O 0.7552(3) 0.51040(13) -0.0621(2)
O5 O 0.51737(14) 0.32306(14) 0.04365(12)
O6 O 0.40490(14) 0.32599(15) 0.11372(13)
O7 O 0.50886(14) 0.35831(14) 0.20189(13)
O8 O 0.70960(11) 0.4192(2) 0.24859(17)
O9 O 0.62318(11) 0.3768(2) -0.03921(17)
O10 O 0.4740(2) 0.23700(11) 0.13453(17)
O11 O 0.55402(11) 0.44598(11) 0.10742(17)
Mo1A Mo 0.661794(17) 0.154812(23) 0.121850(17)
Mo1B Mo 0.845188(23) 0.506982(16) 0.121850(17)
Mo1U Mo 0.661794(17) 0.506982(16) 0.121850(17)
Mo1CA Mo 0.493018(16) 0.154812(23) 0.121850(17)
Mo1BA Mo 0.845188(23) 0.338206(17) 0.121850(17)
Mo2A Mo 0.605574(13) 0.211148(18) 0.24119(2)
Mo2B Mo 0.788852(18) 0.394426(13) 0.24119(2)
Mo3B Mo 0.722560(33) 0.27744(3) -0.00886(2)
Mo3A Mo 0.554880(14) 0.277440(33) -0.00886(2)
O2A O 0.62541(19) 0.25083(21) 0.14070(16)
O2B O 0.74917(21) 0.37458(9) 0.14070(16)
O3A O 0.58527(12) 0.17054(17) 0.30680(18)
O3B O 0.82946(17) 0.41473(12) 0.30680(18)
O4B O 0.75520(33) 0.2448(3) -0.0621(2)
O4A O 0.48960(13) 0.24480(33) -0.0621(2)
O5B O 0.80569(20) 0.48263(14) 0.04365(12)
O5U O 0.67694(14) 0.48263(14) 0.04365(12)
O5A O 0.67694(14) 0.19431(20) 0.04365(12)
O5BA O 0.80569(20) 0.32306(14) 0.04365(12)
O5CA O 0.51737(14) 0.19431(20) 0.04365(12)
O6A O 0.67401(15) 0.07891(21) 0.11372(13)
O6B O 0.92109(21) 0.59510(14) 0.11372(13)
O6U O 0.67401(15) 0.59510(14) 0.11372(13)
O6CA O 0.40490(14) 0.07891(21) 0.11372(13)
O6BA O 0.92109(21) 0.32599(15) 0.11372(13)
O7U O 0.64169(14) 0.49114(14) 0.20189(13)
O7A O 0.64169(14) 0.15055(20) 0.20189(13)
O7CA O 0.50886(14) 0.15055(20) 0.20189(13)
O7B O 0.84945(20) 0.49114(14) 0.20189(13)
O7BA O 0.84945(20) 0.35831(14) 0.20189(13)
O8A O 0.5808(2) 0.29040(23) 0.24859(17)
O8B O 0.70960(23) 0.29040(11) 0.24859(17)
O9B O 0.75362(23) 0.37682(11) -0.03921(17)
O9A O 0.6232(2) 0.24638(23) -0.03921(17)
O10A O 0.76300(11) 0.23700(23) 0.13453(17)
O10B O 0.76300(23) 0.5260(2) 0.13453(17)
O11A O 0.55402(11) 0.10804(16) 0.10742(17)
O11B O 0.89196(16) 0.44598(11) 0.10742(17)
H1? H 0.4118(7) 0.4774(14) 0.0697(6)
H5? H 0.340(2) 0.2271(11) -0.0898(4)
loop_
_geom_bond_atom_site_label_1
_geom_bond_atom_site_label_2
_geom_bond_site_symmetry_1
_geom_bond_site_symmetry_2
Mo1 O2 1_555 1_555
Mo2 O2 1_555 1_555
Mo3 O1 1_555 1_555
P1 O1 1_555 1_555
O1 Mo3B 1_555 1_555
O2 P1 1_555 1_555
O3 Mo2 1_555 1_555
O4 Mo3 1_555 1_555
O5 Mo1 1_555 1_555
O6 Mo1 1_555 1_555
O7 Mo1 1_555 1_555
O8 Mo2 1_555 1_555
O9 Mo3 1_555 1_555
O10 Mo1 1_555 1_555
O11 Mo1 1_555 1_555
Cu1 N1 1_555 1_555
N1 C1 1_555 1_555
C1 C2 1_555 1_555
C2 H2 1_555 1_555
H3 C2 1_555 1_555
H4 C2 1_555 1_555
N2 Cu1 1_555 1_555
C3 N2 1_555 1_555
C4 C3 1_555 1_555
H6 C4 1_555 1_555
H7 C4 1_555 1_555
H8 C4 1_555 1_555
C5 N2 1_555 1_555
H9 C5 1_555 1_555
Mo1A O2A 1_555 1_555
Mo1B O2B 1_555 1_555
Mo1U O2 1_555 1_555
Mo1CA O10 1_555 1_555
Mo1BA O2B 1_555 1_555
Mo2A O2A 1_555 1_555
Mo2B O8 1_555 1_555
Mo3B O4B 1_555 1_555
Mo3A O1 1_555 1_555
O2A P1 1_555 1_555
O2B P1 1_555 1_555
O3A Mo2A 1_555 1_555
O3B Mo2B 1_555 1_555
O4A Mo3A 1_555 1_555
O5B Mo3 1_555 1_555
O5U Mo3 1_555 1_555
O5A Mo1A 1_555 1_555
O5BA Mo1BA 1_555 1_555
O5CA Mo1CA 1_555 1_555
O6A Mo1A 1_555 1_555
O6B Mo1B 1_555 1_555
O6U Mo1U 1_555 1_555
O6CA Mo1CA 1_555 1_555
O6BA Mo1BA 1_555 1_555
O7U Mo2 1_555 1_555
O7A Mo1A 1_555 1_555
O7CA Mo1CA 1_555 1_555
O7B Mo1B 1_555 1_555
O7BA Mo1BA 1_555 1_555
O8A Mo2 1_555 1_555
O8B Mo2A 1_555 1_555
O9B Mo3 1_555 1_555
O9A Mo3B 1_555 1_555
O10A Mo1A 1_555 1_555
O10B Mo1B 1_555 1_555
O11A Mo1A 1_555 1_555
O11B Mo1B 1_555 1_555
Cu1R N1R 1_555 1_555
Cu1CA N1CA 1_555 1_555
Cu1BA N1BA 1_555 1_555
Cu1A N1A 1_555 1_555
Cu1B N1B 1_555 1_555
Cu1B_2 N1B_2 1_555 1_555
Cu1A_2 N1A_2 1_555 1_555
Cu1B_3 N1B_3 1_555 1_555
Cu1A_3 N1A_3 1_555 1_555
Cu1BA_2 N1BA_2 1_555 1_555
Cu1CA_2 N1CA_2 1_555 1_555
Cu1R_2 N2R_2 1_555 1_555
Cu1R_3 N2U_2 1_555 1_555
Cu1CA_3 N2S_3 1_555 1_555
Cu1BA_3 N2BA_3 1_555 1_555
Cu1BA_4 N1BA_3 1_555 1_555
N1R C1U 1_555 1_555
N1CA C1CA 1_555 1_555
N1A C1A 1_555 1_555
N1BA C1T 1_555 1_555
N1B C1J 1_555 1_555
N1B_2 C1B_2 1_555 1_555
N1BA_2 C1BA_2 1_555 1_555
N1A_2 C1K_2 1_555 1_555
N1CA_2 C1S_2 1_555 1_555
N1B_3 C1J_3 1_555 1_555
N1BA_3 C1T_3 1_555 1_555
C1U C1 1_555 1_555
C1R N1R 1_555 1_555
C1C N1 1_555 1_555
C1CA C1A 1_555 1_555
C1A C2A 1_555 1_555
C1K N1A 1_555 1_555
C1S N1CA 1_555 1_555
C1T C1J 1_555 1_555
C1J C2J 1_555 1_555
C1B N1B 1_555 1_555
C1BA N1BA 1_555 1_555
C1B_2 C1BA_2 1_555 1_555
C1BA_2 C2BA_2 1_555 1_555
C1T_2 N1BA_2 1_555 1_555
C1J_2 N1B_2 1_555 1_555
C1K_2 C1S_2 1_555 1_555
C1S_2 C2S_2 1_555 1_555
C1CA_2 N1CA_2 1_555 1_555
C1A_2 N1A_2 1_555 1_555
C1J_3 C1T_3 1_555 1_555
C1T_3 C2T_3 1_555 1_555
C1BA_3 N1BA_3 1_555 1_555
C1B_3 N1B_3 1_555 1_555
C2C C1C 1_555 1_555
C2R C1R 1_555 1_555
C2U C1U 1_555 1_555
C2CA C1CA 1_555 1_555
C2S C1S 1_555 1_555
C2K C1K 1_555 1_555
C2A H2A 1_555 1_555
C2T C1T 1_555 1_555
C2BA C1BA 1_555 1_555
C2B C1B 1_555 1_555
C2J H2J 1_555 1_555
C2B_2 C1B_2 1_555 1_555
C2J_2 C1J_2 1_555 1_555
C2T_2 C1T_2 1_555 1_555
C2BA_2 H2BA_2 1_555 1_555
C2K_2 C1K_2 1_555 1_555
C2A_2 C1A_2 1_555 1_555
C2CA_2 C1CA_2 1_555 1_555
C2S_2 H2S_2 1_555 1_555
C2J_3 C1J_3 1_555 1_555
C2B_3 C1B_3 1_555 1_555
C2BA_3 C1BA_3 1_555 1_555
C2T_3 H2T_3 1_555 1_555
H2C C2C 1_555 1_555
H2R C2R 1_555 1_555
H2U C2U 1_555 1_555
H2CA C2CA 1_555 1_555
H2S C2S 1_555 1_555
H2K C2K 1_555 1_555
H2T C2T 1_555 1_555
H2BA C2BA 1_555 1_555
H2B C2B 1_555 1_555
H2B_2 C2B_2 1_555 1_555
H2J_2 C2J_2 1_555 1_555
H2T_2 C2T_2 1_555 1_555
H2K_2 C2K_2 1_555 1_555
H2A_2 C2A_2 1_555 1_555
H2CA_2 C2CA_2 1_555 1_555
H2J_3 C2J_3 1_555 1_555
H2B_3 C2B_3 1_555 1_555
H2BA_3 C2BA_3 1_555 1_555
H3C C2C 1_555 1_555
H3R C2R 1_555 1_555
H3U C2U 1_555 1_555
H3CA C2CA 1_555 1_555
H3S C2S 1_555 1_555
H3K C2K 1_555 1_555
H3A C2A 1_555 1_555
H3T C2T 1_555 1_555
H3BA C2BA 1_555 1_555
H3B C2B 1_555 1_555
H3J C2J 1_555 1_555
H3B_2 C2B_2 1_555 1_555
H3J_2 C2J_2 1_555 1_555
H3T_2 C2T_2 1_555 1_555
H3BA_2 C2BA_2 1_555 1_555
H3K_2 C2K_2 1_555 1_555
H3A_2 C2A_2 1_555 1_555
H3CA_2 C2CA_2 1_555 1_555
H3S_2 C2S_2 1_555 1_555
H3J_3 C2J_3 1_555 1_555
H3B_3 C2B_3 1_555 1_555
H3BA_3 C2BA_3 1_555 1_555
H3T_3 C2T_3 1_555 1_555
H4C C2C 1_555 1_555
H4R C2R 1_555 1_555
H4U C2U 1_555 1_555
H4CA C2CA 1_555 1_555
H4S C2S 1_555 1_555
H4K C2K 1_555 1_555
H4A C2A 1_555 1_555
H4T C2T 1_555 1_555
H4BA C2BA 1_555 1_555
H4B C2B 1_555 1_555
H4J C2J 1_555 1_555
H4B_2 C2B_2 1_555 1_555
H4J_2 C2J_2 1_555 1_555
H4T_2 C2T_2 1_555 1_555
H4BA_2 C2BA_2 1_555 1_555
H4K_2 C2K_2 1_555 1_555
H4A_2 C2A_2 1_555 1_555
H4CA_2 C2CA_2 1_555 1_555
H4S_2 C2S_2 1_555 1_555
H4J_3 C2J_3 1_555 1_555
H4B_3 C2B_3 1_555 1_555
H4BA_3 C2BA_3 1_555 1_555
H4T_3 C2T_3 1_555 1_555
N2CA Cu1CA 1_555 1_555
N2C Cu1 1_555 1_555
N2T Cu1BA 1_555 1_555
N2U Cu1R 1_555 1_555
N2B Cu1B_2 1_555 1_555
N2R Cu1R 1_555 1_555
N2K Cu1A_2 1_555 1_555
N2S Cu1CA 1_555 1_555
N2J Cu1B_3 1_555 1_555
N2BA Cu1BA 1_555 1_555
N2A Cu1A_3 1_555 1_555
N2A_2 Cu1A 1_555 1_555
N2BA_2 Cu1BA_2 1_555 1_555
N2K_2 Cu1A 1_555 1_555
N2R_2 C3R_2 1_555 1_555
N2J_2 Cu1B 1_555 1_555
N2S_2 Cu1CA_2 1_555 1_555
N2B_2 Cu1B 1_555 1_555
N2U_2 C3U_2 1_555 1_555
N2J_3 Cu1B_2 1_555 1_555
N2S_3 C3S_3 1_555 1_555
N2A_3 Cu1A_2 1_555 1_555
N2BA_3 C3BA_3 1_555 1_555
N2B_3 Cu1B_3 1_555 1_555
N2K_3 Cu1A_3 1_555 1_555
N2T_2 Cu1BA_2 1_555 1_555
N2CA_2 Cu1CA_2 1_555 1_555
C3CA C3 1_555 1_555
C3C N2C 1_555 1_555
C3T N2T 1_555 1_555
C3U N2U 1_555 1_555
C3B N2B 1_555 1_555
C3R N2R 1_555 1_555
C3K N2K 1_555 1_555
C3S N2S 1_555 1_555
C3J N2J 1_555 1_555
C3BA N2BA 1_555 1_555
C3A N2A 1_555 1_555
C3A_2 N2A_2 1_555 1_555
C3BA_2 N2BA_2 1_555 1_555
C3K_2 N2K_2 1_555 1_555
C3R_2 C3K_2 1_555 1_555
C3J_2 N2J_2 1_555 1_555
C3S_2 N2S_2 1_555 1_555
C3B_2 N2B_2 1_555 1_555
C3U_2 C3B_2 1_555 1_555
C3J_3 N2J_3 1_555 1_555
C3S_3 C3J_3 1_555 1_555
C3A_3 N2A_3 1_555 1_555
C3BA_3 C3A_3 1_555 1_555
C4CA C3CA 1_555 1_555
C4C C3C 1_555 1_555
C4T C3T 1_555 1_555
C4U C3U 1_555 1_555
C4B C3B 1_555 1_555
C4R C3R 1_555 1_555
C4K C3K 1_555 1_555
C4S C3S 1_555 1_555
C4J C3J 1_555 1_555
C4BA C3BA 1_555 1_555
C4A C3A 1_555 1_555
C4A_2 C3A_2 1_555 1_555
C4BA_2 C3BA_2 1_555 1_555
C4K_2 C3K_2 1_555 1_555
C4R_2 C3R_2 1_555 1_555
C4J_2 C3J_2 1_555 1_555
C4S_2 C3S_2 1_555 1_555
C4B_2 C3B_2 1_555 1_555
C4U_2 C3U_2 1_555 1_555
C4J_3 C3J_3 1_555 1_555
C4S_3 C3S_3 1_555 1_555
C4A_3 C3A_3 1_555 1_555
C4BA_3 C3BA_3 1_555 1_555
H6CA C4CA 1_555 1_555
H6C C4C 1_555 1_555
H6T C4T 1_555 1_555
H6U C4U 1_555 1_555
H6B C4B 1_555 1_555
H6R C4R 1_555 1_555
H6K C4K 1_555 1_555
H6S C4S 1_555 1_555
H6J C4J 1_555 1_555
H6BA C4BA 1_555 1_555
H6A C4A 1_555 1_555
H6A_2 C4A_2 1_555 1_555
H6BA_2 C4BA_2 1_555 1_555
H6K_2 C4K_2 1_555 1_555
H6R_2 C4R_2 1_555 1_555
H6J_2 C4J_2 1_555 1_555
H6S_2 C4S_2 1_555 1_555
H6B_2 C4B_2 1_555 1_555
H6U_2 C4U_2 1_555 1_555
H6J_3 C4J_3 1_555 1_555
H6S_3 C4S_3 1_555 1_555
H6A_3 C4A_3 1_555 1_555
H6BA_3 C4BA_3 1_555 1_555
H7CA C4CA 1_555 1_555
H7C C4C 1_555 1_555
H7T C4T 1_555 1_555
H7U C4U 1_555 1_555
H7B C4B 1_555 1_555
H7R C4R 1_555 1_555
H7K C4K 1_555 1_555
H7S C4S 1_555 1_555
H7J C4J 1_555 1_555
H7BA C4BA 1_555 1_555
H7A C4A 1_555 1_555
H7A_2 C4A_2 1_555 1_555
H7BA_2 C4BA_2 1_555 1_555
H7K_2 C4K_2 1_555 1_555
H7R_2 C4R_2 1_555 1_555
H7J_2 C4J_2 1_555 1_555
H7S_2 C4S_2 1_555 1_555
H7B_2 C4B_2 1_555 1_555
H7U_2 C4U_2 1_555 1_555
H7J_3 C4J_3 1_555 1_555
H7S_3 C4S_3 1_555 1_555
H7A_3 C4A_3 1_555 1_555
H7BA_3 C4BA_3 1_555 1_555
H8CA C4CA 1_555 1_555
H8C C4C 1_555 1_555
H8T C4T 1_555 1_555
H8U C4U 1_555 1_555
H8B C4B 1_555 1_555
H8R C4R 1_555 1_555
H8K C4K 1_555 1_555
H8S C4S 1_555 1_555
H8J C4J 1_555 1_555
H8BA C4BA 1_555 1_555
H8A C4A 1_555 1_555
H8A_2 C4A_2 1_555 1_555
H8BA_2 C4BA_2 1_555 1_555
H8K_2 C4K_2 1_555 1_555
H8R_2 C4R_2 1_555 1_555
H8J_2 C4J_2 1_555 1_555
H8S_2 C4S_2 1_555 1_555
H8B_2 C4B_2 1_555 1_555
H8U_2 C4U_2 1_555 1_555
H8J_3 C4J_3 1_555 1_555
H8S_3 C4S_3 1_555 1_555
H8A_3 C4A_3 1_555 1_555
H8BA_3 C4BA_3 1_555 1_555
C5CA C5 1_555 1_555
C5C N2C 1_555 1_555
C5T N2T 1_555 1_555
C5U N2U 1_555 1_555
C5B N2B 1_555 1_555
C5R N2R 1_555 1_555
C5K N2K 1_555 1_555
C5S N2S 1_555 1_555
C5J N2J 1_555 1_555
C5BA N2BA 1_555 1_555
C5A N2A 1_555 1_555
C5A_2 N2A_2 1_555 1_555
C5BA_2 N2BA_2 1_555 1_555
C5K_2 N2K_2 1_555 1_555
C5R_2 N2R_2 1_555 1_555
C5J_2 N2J_2 1_555 1_555
C5S_2 N2S_2 1_555 1_555
C5B_2 N2B_2 1_555 1_555
C5U_2 N2U_2 1_555 1_555
C5J_3 N2J_3 1_555 1_555
C5S_3 N2S_3 1_555 1_555
C5A_3 N2A_3 1_555 1_555
C5BA_3 N2BA_3 1_555 1_555
H9CA C5CA 1_555 1_555
H9C C5C 1_555 1_555
H9T C5T 1_555 1_555
H9U C5U 1_555 1_555
H9B C5B 1_555 1_555
H9R C5R 1_555 1_555
H9K C5K 1_555 1_555
H9S C5S 1_555 1_555
H9J C5J 1_555 1_555
H9BA C5BA 1_555 1_555
H9A C5A 1_555 1_555
H9A_2 C5A_2 1_555 1_555
H9BA_2 C5BA_2 1_555 1_555
H9K_2 C5K_2 1_555 1_555
H9R_2 C5R_2 1_555 1_555
H9J_2 C5J_2 1_555 1_555
H9S_2 C5S_2 1_555 1_555
H9B_2 C5B_2 1_555 1_555
H9U_2 C5U_2 1_555 1_555
H9J_3 C5J_3 1_555 1_555
H9S_3 C5S_3 1_555 1_555
H9A_3 C5A_3 1_555 1_555
H9BA_3 C5BA_3 1_555 1_555
Mo2 O7 1_555 1_555
O5 Mo3A 1_555 1_555
O9 Mo3A 1_555 1_555
O11 Mo1U 1_555 1_555
Mo1B O5B 1_555 1_555
Mo1U O5U 1_555 1_555
Mo1U O7U 1_555 1_555
Mo1U O10B 1_555 1_555
Mo1CA O2A 1_555 1_555
Mo1CA O11A 1_555 1_555
Mo1BA O10A 1_555 1_555
Mo1BA O11B 1_555 1_555
Mo2A O7A 1_555 1_555
Mo2A O7CA 1_555 1_555
Mo2A O8A 1_555 1_555
Mo2B O2B 1_555 1_555
Mo2B O7B 1_555 1_555
Mo2B O7BA 1_555 1_555
Mo2B O8B 1_555 1_555
Mo3B O5A 1_555 1_555
Mo3B O5BA 1_555 1_555
Mo3B O9B 1_555 1_555
Mo3A O5CA 1_555 1_555
Mo3A O9A 1_555 1_555
C1R C1C 1_555 1_555
C1K C1S 1_555 1_555
C1B C1BA 1_555 1_555
C1T_2 C1J_2 1_555 1_555
C1CA_2 C1A_2 1_555 1_555
C1BA_3 C1B_3 1_555 1_555
N2CA C3CA 1_555 1_555
N2CA C5CA 1_555 1_555
C3C C3T 1_555 1_555
C3U C3B 1_555 1_555
C3R C3K 1_555 1_555
C3S C3J 1_555 1_555
C3BA C3A 1_555 1_555
C3A_2 C3BA_2 1_555 1_555
C3J_2 C3S_2 1_555 1_555
C5C C5T 1_555 1_555
C5U C5B 1_555 1_555
C5R C5K 1_555 1_555
C5S C5J 1_555 1_555
C5BA C5A 1_555 1_555
C5A_2 C5BA_2 1_555 1_555
C5K_2 C5R_2 1_555 1_555
C5J_2 C5S_2 1_555 1_555
C5B_2 C5U_2 1_555 1_555
C5J_3 C5S_3 1_555 1_555
C5A_3 C5BA_3 1_555 1_555

#END
