
#######################################################################
#
#                 Cambridge Crystallographic Data Centre
#                                CCDC 
#
#######################################################################
#
# If this CIF has been generated from an entry in the Cambridge 
# Structural Database, then it will include bibliographic, chemical, 
# crystal, experimental, refinement or atomic coordinate data resulting 
# from the CCDC's data processing and validation procedures.
#
#######################################################################

data_VEWFAF
_symmetry_cell_setting           orthorhombic
_symmetry_space_group_name_H-M   'C c c m'
_symmetry_Int_Tables_number      66
_space_group_name_Hall           '-C 2 2n'
loop_
_symmetry_equiv_pos_site_id
_symmetry_equiv_pos_as_xyz
1 x,y,z
2 1/2+x,1/2+y,z
3 -x,-y,z
4 -x,y,1/2-z
5 x,-y,1/2-z
6 1/2-x,1/2-y,z
7 1/2-x,1/2+y,1/2-z
8 1/2+x,1/2-y,1/2-z
9 -x,-y,-z
10 1/2-x,1/2-y,-z
11 x,y,-z
12 x,-y,1/2+z
13 -x,y,1/2+z
14 1/2+x,1/2+y,-z
15 1/2+x,1/2-y,1/2+z
16 1/2-x,1/2+y,1/2+z
_cell_length_a                   17.740(5)
_cell_length_b                   22.157(6)
_cell_length_c                   22.245(6)
_cell_angle_alpha                90
_cell_angle_beta                 90
_cell_angle_gamma                90
_cell_volume                     8743.73
loop_
_atom_site_label
_atom_site_type_symbol
_atom_site_fract_x
_atom_site_fract_y
_atom_site_fract_z
Cu1 Cu -0.5000 0.0000 -0.2500
Cu2 Cu -0.5000 -0.5000 -0.2500
N1 N -0.5000 -0.0898(6) -0.2500
C1 C -0.4392(7) -0.1219(5) -0.2648(6)
H1 H -0.3955 -0.1001 -0.2766
C2 C -0.4344(7) -0.1836(5) -0.2645(6)
H2 H -0.3885 -0.2036 -0.2738
C3 C -0.5000 -0.2165(7) -0.2500
C4 C -0.5000 -0.2825(8) -0.2500
C5 C -0.4528(7) -0.3162(5) -0.2119(5)
H3 H -0.4190 -0.2959 -0.1856
C6 C -0.4550(6) -0.3786(5) -0.2120(5)
H4 H -0.4239 -0.4001 -0.1847
N2 N -0.5000 -0.4100(6) -0.2500
N3 N -0.5000 -0.5000 -0.1597(6)
C7 C -0.5539(7) -0.4713(5) -0.1277(5)
H5 H -0.5931 -0.4511 -0.1488
C8 C -0.5545(7) -0.4701(5) -0.0667(5)
H6 H -0.5930 -0.4484 -0.0464
C9 C -0.5000 -0.5000 -0.0331(8)
C10 C -0.5000 0.0000 -0.0332(7)
C11 C -0.4335(10) -0.0028(8) -0.0667(6)
H7 H -0.3865 -0.0045 -0.0464
C12 C -0.4348(11) -0.0033(8) -0.1277(6)
H8 H -0.3884 -0.0060 -0.1488
N4 N -0.5000 0.0000 -0.1599(6)
O15 O -0.3642(7) -0.5000 -0.2500
H9 H -0.331(8) -0.468(6) -0.258(7)
O20 O -0.6615(6) 0.0000 -0.2500
H19 H -0.6896 -0.0305 -0.2441
Cu1J Cu -0.5000 0.0000 0.2500
Cu2J Cu -0.5000 -0.5000 0.2500
Cu2_2 Cu -0.5000 0.5000 -0.2500
N1B N -0.5000 0.0898(6) -0.2500
C1C C -0.5608(7) -0.1219(5) -0.2352(6)
C1B C -0.5608(7) 0.1219(5) -0.2648(6)
C1D C -0.4392(7) 0.1219(5) -0.2352(6)
H1C H -0.6045 -0.1001 -0.2234
H1B H -0.6045 0.1001 -0.2766
H1D H -0.3955 0.1001 -0.2234
C2C C -0.5656(7) -0.1836(5) -0.2355(6)
C2B C -0.5656(7) 0.1836(5) -0.2645(6)
C2D C -0.4344(7) 0.1836(5) -0.2355(6)
H2C H -0.6115 -0.2036 -0.2262
H2B H -0.6115 0.2036 -0.2738
H2D H -0.3885 0.2036 -0.2262
C3B C -0.5000 0.2165(7) -0.2500
C4B C -0.5000 0.2825(8) -0.2500
C5C C -0.5472(7) -0.3162(5) -0.2881(5)
C5B C -0.5472(7) 0.3162(5) -0.2119(5)
C5D C -0.4528(7) 0.3162(5) -0.2881(5)
H3C H -0.5810 -0.2959 -0.3144
H3B H -0.5810 0.2959 -0.1856
H3D H -0.4190 0.2959 -0.3144
C6C C -0.5450(6) -0.3786(5) -0.2880(5)
C6B C -0.5450(6) 0.3786(5) -0.2120(5)
C6D C -0.4550(6) 0.3786(5) -0.2880(5)
H4C H -0.5761 -0.4001 -0.3153
H4B H -0.5761 0.4001 -0.1847
H4D H -0.4239 0.4001 -0.3153
N2B N -0.5000 0.4100(6) -0.2500
N2B_2 N -0.5000 -0.5900(6) -0.2500
N3J N -0.5000 -0.5000 0.1597(6)
N3C N -0.5000 -0.5000 -0.3403(6)
C7B C -0.4461(7) -0.5287(5) -0.1277(5)
C7J C -0.5539(7) -0.4713(5) 0.1277(5)
C7H C -0.4461(7) -0.5287(5) 0.1277(5)
H5B H -0.4069 -0.5489 -0.1488
H5H H -0.4069 -0.5489 0.1488
H5J H -0.5931 -0.4511 0.1488
C8B C -0.4455(7) -0.5299(5) -0.0667(5)
C8J C -0.5545(7) -0.4701(5) 0.0667(5)
C8H C -0.4455(7) -0.5299(5) 0.0667(5)
H6B H -0.4070 -0.5516 -0.0464
H6H H -0.4070 -0.5516 0.0464
H6J H -0.5930 -0.4484 0.0464
C9J C -0.5000 -0.5000 0.0331(8)
C10J C -0.5000 0.0000 0.0332(7)
C11J C -0.4335(10) -0.0028(8) 0.0667(6)
C11H C -0.5665(10) 0.0028(8) 0.0667(6)
C11B C -0.5665(10) 0.0028(8) -0.0667(6)
H7J H -0.3865 -0.0045 0.0464
H7H H -0.6135 0.0045 0.0464
H7B H -0.6135 0.0045 -0.0464
C12J C -0.4348(11) -0.0033(8) 0.1277(6)
C12H C -0.5652(11) 0.0033(8) 0.1277(6)
C12B C -0.5652(11) 0.0033(8) -0.1277(6)
H8J H -0.3884 -0.0060 0.1488
H8H H -0.6116 0.0060 0.1488
H8B H -0.6116 0.0060 -0.1488
N4J N -0.5000 0.0000 0.1599(6)
N4C N -0.5000 0.0000 -0.3401(6)
O15B O -0.6358(7) -0.5000 -0.2500
H9D H -0.331(8) -0.532(6) -0.242(7)
H9B H -0.669(8) -0.532(6) -0.258(7)
H9C H -0.669(8) -0.468(6) -0.242(7)
O20B O -0.3385(6) 0.0000 -0.2500
H19D H -0.6896 0.0305 -0.2559
H19B H -0.3104 0.0305 -0.2441
H19C H -0.3104 -0.0305 -0.2559
O16 O -0.2538(9) -0.6264(9) -0.1067(9)
H10 H -0.2625 -0.5952 -0.0856
H11 H -0.2138 -0.6444 -0.0954
O17 O -0.1219(8) -0.6764(8) -0.0654(8)
H12 H -0.0819 -0.6649 -0.0831
H13 H -0.1202 -0.6675 -0.0283
H14 H -0.1267 -0.7144 -0.0694
O18 O -0.2586(15) -0.5542(12) 0.0000
H15 H -0.2951 -0.5294 0.0000
H16 H -0.2187 -0.5329 0.0000
O19 O -0.3765(10) -0.7026(11) -0.0940(10)
H17 H -0.3463 -0.6852 -0.1181
H18 H -0.3849 -0.6871 -0.0597
O21 O -0.2624(6) -0.5971(5) -0.2316(6)
H20 H -0.2617 -0.6126 -0.1966
H21 H -0.2632 -0.6238 -0.2590
W1 W -0.39883(3) -0.17993(2) -0.07903(2)
W2 W -0.2500 -0.2500 -0.15838(3)
W3 W -0.21772(3) -0.11409(2) -0.07937(2)
W4 W -0.43040(5) -0.31607(4) 0.0000
Si1 Si -0.2500 -0.2500 0.0000
O2 O -0.2910(13) -0.3159(10) 0.0000
O3 O -0.3443(13) -0.2328(11) 0.0000
O4 O -0.2500 -0.2500 -0.2353(7)
O5 O -0.4209(18) -0.1541(8) 0.0000
O6 O -0.1176(6) -0.1349(9) -0.0599(5)
O7 O -0.4415(13) -0.2549(5) -0.0593(5)
O8 O -0.3473(5) -0.2198(5) -0.1417(7)
O9 O -0.2311(9) -0.0838(14) 0.0000
O10 O -0.2138(5) -0.1710(4) -0.1433(7)
O11 O -0.3230(5) -0.1190(5) -0.0836(6)
O12 O -0.2045(7) -0.0487(4) -0.1182(5)
O13 O -0.4703(5) -0.1465(4) -0.1161(4)
O14 O -0.5181(7) -0.3459(6) 0.0000
W1E W -0.10117(3) -0.32007(2) -0.07903(2)
W1I W -0.10117(3) -0.32007(2) 0.07903(2)
W1J W -0.39883(3) -0.17993(2) 0.07903(2)
W2J W -0.2500 -0.2500 0.15838(3)
W3E W -0.28228(3) -0.38591(2) -0.07937(2)
W3I W -0.28228(3) -0.38591(2) 0.07937(2)
W3J W -0.21772(3) -0.11409(2) 0.07937(2)
W4I W -0.06960(5) -0.18393(4) 0.0000
O2I O -0.2090(13) -0.1841(10) 0.0000
O3I O -0.1557(13) -0.2672(11) 0.0000
O4J O -0.2500 -0.2500 0.2353(7)
O5I O -0.0791(18) -0.3459(8) 0.0000
O6E O -0.3824(6) -0.3651(9) -0.0599(5)
O6I O -0.3824(6) -0.3651(9) 0.0599(5)
O6J O -0.1176(6) -0.1349(9) 0.0599(5)
O7E O -0.0585(13) -0.2451(5) -0.0593(5)
O7J O -0.4415(13) -0.2549(5) 0.0593(5)
O7I O -0.0585(13) -0.2451(5) 0.0593(5)
O8E O -0.1527(5) -0.2802(5) -0.1417(7)
O8I O -0.1527(5) -0.2802(5) 0.1417(7)
O8J O -0.3473(5) -0.2198(5) 0.1417(7)
O9I O -0.2689(9) -0.4162(14) 0.0000
O10E O -0.2862(5) -0.3290(4) -0.1433(7)
O10I O -0.2862(5) -0.3290(4) 0.1433(7)
O10J O -0.2138(5) -0.1710(4) 0.1433(7)
O11E O -0.1770(5) -0.3810(5) -0.0836(6)
O11I O -0.1770(5) -0.3810(5) 0.0836(6)
O11J O -0.3230(5) -0.1190(5) 0.0836(6)
O12E O -0.2955(7) -0.4513(4) -0.1182(5)
O12I O -0.2955(7) -0.4513(4) 0.1182(5)
O12J O -0.2045(7) -0.0487(4) 0.1182(5)
O13E O -0.0297(5) -0.3535(4) -0.1161(4)
O13I O -0.0297(5) -0.3535(4) 0.1161(4)
O13J O -0.4703(5) -0.1465(4) 0.1161(4)
O14I O 0.0181(7) -0.1541(6) 0.0000
O1? O -0.2675(8) -0.2142(7) -0.0594(6)
loop_
_geom_bond_atom_site_label_1
_geom_bond_atom_site_label_2
_geom_bond_site_symmetry_1
_geom_bond_site_symmetry_2
W1 O3 1_555 1_555
W2 O4 1_555 1_555
W3 O6 1_555 1_555
W4 O2 1_555 1_555
Si1 O2 1_555 1_555
O2 W3E 1_555 1_555
O3 W4 1_555 1_555
O5 W1 1_555 1_555
O6 W4I 1_555 1_555
O7 W1 1_555 1_555
O8 W1 1_555 1_555
O9 W3 1_555 1_555
O10 W2 1_555 1_555
O11 W1 1_555 1_555
O12 W3 1_555 1_555
O13 W1 1_555 1_555
O14 W4 1_555 1_555
Cu1 N1 1_555 1_555
Cu2 N2 1_555 1_555
N1 C1 1_555 1_555
C1 H1 1_555 1_555
C2 C1 1_555 1_555
H2 C2 1_555 1_555
C3 C2 1_555 1_555
C4 C3 1_555 1_555
C5 C4 1_555 1_555
H3 C5 1_555 1_555
C6 C5 1_555 1_555
H4 C6 1_555 1_555
N2 C6 1_555 1_555
N3 Cu2 1_555 1_555
C7 N3 1_555 1_555
H5 C7 1_555 1_555
C8 C7 1_555 1_555
H6 C8 1_555 1_555
C9 C8 1_555 1_555
C10 C11 1_555 1_555
C11 H7 1_555 1_555
C12 C11 1_555 1_555
H8 C12 1_555 1_555
N4 Cu1 1_555 1_555
O15 Cu2 1_555 1_555
H9 O15 1_555 1_555
O16 H10 1_555 1_555
H11 O16 1_555 1_555
O17 H12 1_555 1_555
H13 O17 1_555 1_555
H14 O17 1_555 1_555
O18 H15 1_555 1_555
H16 O18 1_555 1_555
O19 H17 1_555 1_555
H18 O19 1_555 1_555
O20 Cu1 1_555 1_555
H19 O20 1_555 1_555
O21 H20 1_555 1_555
H21 O21 1_555 1_555
W1E O3I 1_555 1_555
W1I O3I 1_555 1_555
W1J O3 1_555 1_555
W2J O4J 1_555 1_555
W3E O6E 1_555 1_555
W3I O2 1_555 1_555
W3J O9 1_555 1_555
W4I O2I 1_555 1_555
O2I W3 1_555 1_555
O3I Si1 1_555 1_555
O5I W1E 1_555 1_555
O6E W4 1_555 1_555
O6I W4 1_555 1_555
O6J W3J 1_555 1_555
O7E W1E 1_555 1_555
O7J W4 1_555 1_555
O7I W1I 1_555 1_555
O8E W2 1_555 1_555
O8I W1I 1_555 1_555
O8J W1J 1_555 1_555
O9I W3E 1_555 1_555
O10E W2 1_555 1_555
O10I W2J 1_555 1_555
O10J W2J 1_555 1_555
O11E W1E 1_555 1_555
O11I W1I 1_555 1_555
O11J W1J 1_555 1_555
O12E W3E 1_555 1_555
O12I W3I 1_555 1_555
O12J W3J 1_555 1_555
O13E W1E 1_555 1_555
O13I W1I 1_555 1_555
O13J W1J 1_555 1_555
O14I W4I 1_555 1_555
Cu1J N4J 1_555 1_555
Cu2J N3J 1_555 1_555
Cu2_2 N2B 1_555 1_555
N1B Cu1 1_555 1_555
C1C N1 1_555 1_555
C1B N1B 1_555 1_555
C1D N1B 1_555 1_555
H1C C1C 1_555 1_555
H1B C1B 1_555 1_555
H1D C1D 1_555 1_555
C2C C3 1_555 1_555
C2B C1B 1_555 1_555
C2D C1D 1_555 1_555
H2C C2C 1_555 1_555
H2B C2B 1_555 1_555
H2D C2D 1_555 1_555
C3B C2B 1_555 1_555
C4B C3B 1_555 1_555
C5C C4 1_555 1_555
C5B C4B 1_555 1_555
C5D C4B 1_555 1_555
H3C C5C 1_555 1_555
H3B C5B 1_555 1_555
H3D C5D 1_555 1_555
C6C N2 1_555 1_555
C6B C5B 1_555 1_555
C6D C5D 1_555 1_555
H4C C6C 1_555 1_555
H4B C6B 1_555 1_555
H4D C6D 1_555 1_555
N2B C6B 1_555 1_555
N2B_2 Cu2 1_555 1_555
N3J C7J 1_555 1_555
N3C Cu2 1_555 1_555
C7B N3 1_555 1_555
C7J H5J 1_555 1_555
C7H N3J 1_555 1_555
H5B C7B 1_555 1_555
H5H C7H 1_555 1_555
C8B C9 1_555 1_555
C8J C7J 1_555 1_555
C8H C7H 1_555 1_555
H6B C8B 1_555 1_555
H6H C8H 1_555 1_555
H6J C8J 1_555 1_555
C9J C9 1_555 1_555
C10J C10 1_555 1_555
C11J C10J 1_555 1_555
C11H C10J 1_555 1_555
C11B C10 1_555 1_555
H7J C11J 1_555 1_555
H7H C11H 1_555 1_555
H7B C11B 1_555 1_555
C12J C11J 1_555 1_555
C12H C11H 1_555 1_555
C12B N4 1_555 1_555
H8J C12J 1_555 1_555
H8H C12H 1_555 1_555
H8B C12B 1_555 1_555
N4J C12J 1_555 1_555
N4C Cu1 1_555 1_555
O15B Cu2 1_555 1_555
H9D O15 1_555 1_555
H9B O15B 1_555 1_555
H9C O15B 1_555 1_555
O20B Cu1 1_555 1_555
H19D O20 1_555 1_555
H19B O20B 1_555 1_555
H19C O20B 1_555 1_555
W2 O8 1_555 1_555
W3 O10 1_555 1_555
W3 O11 1_555 1_555
W4 O7 1_555 1_555
Si1 O3 1_555 1_555
Si1 O2I 1_555 1_555
O5 W1J 1_555 1_555
C12 N4 1_555 1_555
W1E O8E 1_555 1_555
W1I O5I 1_555 1_555
W1J O7J 1_555 1_555
W2J O8I 1_555 1_555
W2J O8J 1_555 1_555
W3E O10E 1_555 1_555
W3E O11E 1_555 1_555
W3I O6I 1_555 1_555
W3I O9I 1_555 1_555
W3I O10I 1_555 1_555
W3I O11I 1_555 1_555
W3J O2I 1_555 1_555
W3J O10J 1_555 1_555
W3J O11J 1_555 1_555
W4I O3I 1_555 1_555
W4I O6J 1_555 1_555
W4I O7E 1_555 1_555
W4I O7I 1_555 1_555
C1C C2C 1_555 1_555
C2D C3B 1_555 1_555
C5C C6C 1_555 1_555
C6D N2B 1_555 1_555
C7B C8B 1_555 1_555
C8J C9J 1_555 1_555
C8H C9J 1_555 1_555
C11B C12B 1_555 1_555
C12H N4J 1_555 1_555

#END
