
#######################################################################
#
#                 Cambridge Crystallographic Data Centre
#                                CCDC 
#
#######################################################################
#
# If this CIF has been generated from an entry in the Cambridge 
# Structural Database, then it will include bibliographic, chemical, 
# crystal, experimental, refinement or atomic coordinate data resulting 
# from the CCDC's data processing and validation procedures.
#
#######################################################################

data_VEWFIN
_symmetry_cell_setting           orthorhombic
_symmetry_space_group_name_H-M   'P b c a'
_symmetry_Int_Tables_number      61
_space_group_name_Hall           '-P 2ac 2ab'
loop_
_symmetry_equiv_pos_site_id
_symmetry_equiv_pos_as_xyz
1 x,y,z
2 1/2-x,-y,1/2+z
3 -x,1/2+y,1/2-z
4 1/2+x,1/2-y,-z
5 -x,-y,-z
6 1/2+x,y,1/2-z
7 x,1/2-y,1/2+z
8 1/2-x,1/2+y,z
_cell_length_a                   12.546(3)
_cell_length_b                   23.138(5)
_cell_length_c                   23.471(5)
_cell_angle_alpha                90
_cell_angle_beta                 90
_cell_angle_gamma                90
_cell_volume                     6813.38
loop_
_atom_site_label
_atom_site_type_symbol
_atom_site_fract_x
_atom_site_fract_y
_atom_site_fract_z
Ag1 Ag 0.9658(2) -0.18294(12) 0.54343(14)
Ag2 Ag 1.0909(2) 0.08570(12) 0.68918(13)
N1 N 1.223(2) 0.1144(12) 0.7445(13)
C1 C 1.244(2) 0.0846(13) 0.7912(12)
H1 H 1.1896 0.0617 0.8062
C2 C 1.346(3) 0.0852(15) 0.8207(15)
H2 H 1.3618 0.0616 0.8516
C3 C 1.397(3) 0.1565(14) 0.7572(14)
C4 C 1.478(3) 0.1995(17) 0.7380(18)
H3 H 1.5408 0.1962 0.7613
H4 H 1.4492 0.2378 0.7415
H5 H 1.4963 0.1922 0.6990
C5 C 1.295(3) 0.1534(15) 0.7291(15)
C6 C 1.269(2) 0.1882(13) 0.6803(13)
H6 H 1.1978 0.1798 0.6680
H7 H 1.3182 0.1799 0.6501
H8 H 1.2742 0.2284 0.6903
N2 N 1.415(2) 0.1242(12) 0.7980(12)
N3 N 1.067(3) -0.0015(13) 0.6432(14)
C7 C 1.012(3) -0.0003(14) 0.5950(14)
H9 H 0.9896 0.0340 0.5780
C8 C 0.990(2) -0.0532(12) 0.5726(12)
H10 H 0.9578 -0.0534 0.5369
C9 C 1.063(3) -0.1003(14) 0.6388(14)
C10 C 1.096(4) -0.1577(18) 0.6692(19)
H11 H 1.0684 -0.1900 0.6482
H12 H 1.0673 -0.1581 0.7071
H13 H 1.1723 -0.1602 0.6710
C11 C 1.094(3) -0.0503(14) 0.6671(14)
C12 C 1.158(4) -0.0451(19) 0.7228(19)
H14 H 1.1713 -0.0051 0.7307
H15 H 1.2241 -0.0653 0.7191
H16 H 1.1172 -0.0616 0.7534
N4 N 1.008(2) -0.1012(11) 0.5940(11)
N5 N 0.809(2) -0.2232(11) 0.5250(11)
C13 C 0.782(3) -0.2358(14) 0.4710(14)
H17 H 0.8297 -0.2251 0.4428
C14 C 0.692(2) -0.2622(11) 0.4537(12)
H18 H 0.6817 -0.2706 0.4154
C15 C 0.643(3) -0.2698(15) 0.5462(16)
C16 C 0.559(3) -0.2868(16) 0.5896(16)
H19 H 0.5027 -0.3073 0.5709
H20 H 0.5313 -0.2527 0.6074
H21 H 0.5911 -0.3112 0.6180
C17 C 0.741(3) -0.2397(16) 0.5620(16)
C18 C 0.761(4) -0.2271(18) 0.6232(17)
H22 H 0.8259 -0.2054 0.6269
H23 H 0.7673 -0.2627 0.6439
H24 H 0.7028 -0.2049 0.6383
N6 N 0.6190(19) -0.2760(10) 0.4920(10)
Ag1C Ag 1.4658(2) -0.31706(12) 0.45657(14)
Ag1C_2 Ag 0.4658(2) -0.31706(12) 0.45657(14)
Ag2E Ag 0.5909(2) 0.08570(12) 0.81082(13)
Ag2E_2 Ag 1.5909(2) 0.08570(12) 0.81082(13)
Ag2C Ag 1.5909(2) -0.58570(12) 0.31082(13)
N1E N 0.723(2) 0.1144(12) 0.7555(13)
C1E C 0.744(2) 0.0846(13) 0.7088(12)
H1E H 0.6896 0.0617 0.6938
C2E C 0.846(3) 0.0852(15) 0.6793(15)
H2E H 0.8618 0.0616 0.6484
C3E C 0.897(3) 0.1565(14) 0.7428(14)
C4E C 0.978(3) 0.1995(17) 0.7620(18)
H3E H 1.0408 0.1962 0.7387
H4E H 0.9492 0.2378 0.7585
H5E H 0.9963 0.1922 0.8010
C5E C 0.795(3) 0.1534(15) 0.7709(15)
C6E C 0.769(2) 0.1882(13) 0.8197(13)
H6E H 0.6978 0.1798 0.8320
H7E H 0.8182 0.1799 0.8499
H8E H 0.7742 0.2284 0.8097
N2E N 0.915(2) 0.1242(12) 0.7020(12)
N2_2 N 0.415(2) 0.1242(12) 0.7980(12)
N3C N 1.567(3) -0.4985(13) 0.3568(14)
N3E N 0.567(3) -0.0015(13) 0.8568(14)
C7C C 1.512(3) -0.4997(14) 0.4050(14)
H9C H 1.4896 -0.5340 0.4220
C8C C 1.490(2) -0.4468(12) 0.4274(12)
H10C H 1.4578 -0.4466 0.4631
C9C C 1.563(3) -0.3997(14) 0.3612(14)
C10C C 1.596(4) -0.3423(18) 0.3308(19)
H11C H 1.5684 -0.3100 0.3518
H12C H 1.5673 -0.3419 0.2929
H13C H 1.6723 -0.3398 0.3290
C11C C 1.594(3) -0.4497(14) 0.3329(14)
C12C C 1.658(4) -0.4549(19) 0.2772(19)
H14C H 1.6713 -0.4949 0.2693
H15C H 1.7241 -0.4347 0.2809
H16C H 1.6172 -0.4384 0.2466
N4C N 1.508(2) -0.3988(11) 0.4060(11)
N5C N 1.309(2) -0.2768(11) 0.4750(11)
C13C C 1.282(3) -0.2642(14) 0.5290(14)
H17C H 1.3297 -0.2749 0.5572
C14C C 1.192(2) -0.2378(11) 0.5463(12)
H18C H 1.1817 -0.2294 0.5846
C15C C 1.143(3) -0.2302(15) 0.4538(16)
C16C C 1.059(3) -0.2132(16) 0.4104(16)
H19C H 1.0027 -0.1927 0.4291
H20C H 1.0313 -0.2473 0.3926
H21C H 1.0911 -0.1888 0.3820
C17C C 1.241(3) -0.2603(16) 0.4380(16)
C18C C 1.261(4) -0.2729(18) 0.3768(17)
H22C H 1.3259 -0.2946 0.3731
H23C H 1.2673 -0.2373 0.3561
H24C H 1.2028 -0.2951 0.3617
N6C N 1.1190(19) -0.2240(10) 0.5080(10)
N6_2 N 1.6190(19) -0.2760(10) 0.4920(10)
W1 W 1.32177(11) 0.05752(6) 0.39971(6)
W2 W 1.57430(11) 0.11998(6) 0.41705(6)
W3 W 1.55087(11) -0.01680(6) 0.35426(6)
W4 W 1.25012(11) -0.06445(7) 0.48082(6)
W5 W 1.51968(12) 0.13757(6) 0.56270(7)
W6 W 1.26904(11) 0.07210(6) 0.54528(7)
Si1 Si 1.5000 0.0000 0.5000
O1 O 1.563(3) 0.0552(9) 0.4987(16)
O4 O 1.545(3) -0.0401(13) 0.4552(12)
O5 O 1.534(3) 0.1567(19) 0.4867(14)
O6 O 1.614(2) 0.1766(11) 0.3778(11)
O7 O 1.236(2) 0.0833(13) 0.3502(13)
O8 O 1.495(3) -0.0935(18) 0.3689(19)
O9 O 1.211(3) 0.0003(16) 0.5275(16)
O10 O 1.432(2) 0.1148(13) 0.4016(13)
O11 O 1.602(2) 0.0593(12) 0.3628(12)
O12 O 1.5289(18) 0.2042(10) 0.5949(10)
O13 O 1.125(2) -0.0937(11) 0.4712(11)
O14 O 1.412(2) 0.0095(13) 0.3522(13)
O15 O 1.1574(18) 0.1072(9) 0.5698(9)
O16 O 1.686(3) -0.0425(16) 0.3848(16)
O17 O 1.371(3) 0.1291(18) 0.5507(18)
O18 O 1.338(3) -0.1112(18) 0.4419(18)
O19 O 1.572(3) -0.0228(15) 0.2842(14)
O20 O 1.257(4) -0.0154(13) 0.4209(14)
O21 O 1.270(3) 0.0882(15) 0.4670(15)
O22 O 1.707(4) 0.1026(19) 0.4506(19)
W1D W 1.67823(11) -0.05752(6) 0.60029(6)
W2D W 1.42570(11) -0.11998(6) 0.58295(6)
W3D W 1.44913(11) 0.01680(6) 0.64574(6)
W4D W 1.74988(11) 0.06445(7) 0.51918(6)
W5D W 1.48032(12) -0.13757(6) 0.43730(7)
W6D W 1.73096(11) -0.07210(6) 0.45472(7)
O1D O 1.437(3) -0.0552(9) 0.5013(16)
O4D O 1.455(3) 0.0401(13) 0.5448(12)
O5D O 1.466(3) -0.1567(19) 0.5133(14)
O6D O 1.386(2) -0.1766(11) 0.6222(11)
O7D O 1.764(2) -0.0833(13) 0.6498(13)
O8D O 1.505(3) 0.0935(18) 0.6311(19)
O9D O 1.789(3) -0.0003(16) 0.4725(16)
O10D O 1.568(2) -0.1148(13) 0.5984(13)
O11D O 1.398(2) -0.0593(12) 0.6372(12)
O12D O 1.4711(18) -0.2042(10) 0.4051(10)
O13D O 1.875(2) 0.0937(11) 0.5288(11)
O14D O 1.588(2) -0.0095(13) 0.6478(13)
O15D O 1.8426(18) -0.1072(9) 0.4302(9)
O16D O 1.314(3) 0.0425(16) 0.6152(16)
O17D O 1.629(3) -0.1291(18) 0.4493(18)
O18D O 1.662(3) 0.1112(18) 0.5581(18)
O19D O 1.428(3) 0.0228(15) 0.7158(14)
O20D O 1.743(4) 0.0154(13) 0.5791(14)
O21D O 1.730(3) -0.0882(15) 0.5330(15)
O22D O 1.293(4) -0.1026(19) 0.5494(19)
O2? O 1.6142(11) -0.0131(16) 0.5142(15)
O3? O 1.492(3) 0.0282(14) 0.4429(8)
loop_
_geom_bond_atom_site_label_1
_geom_bond_atom_site_label_2
_geom_bond_site_symmetry_1
_geom_bond_site_symmetry_2
W1 O7 1_555 1_555
W2 O1 1_555 1_555
W3 O4 1_555 1_555
W4 O9 1_555 1_555
W5 O1 1_555 1_555
W6 O9 1_555 1_555
Ag1 N4 1_555 1_555
Ag2 N1 1_555 1_555
Si1 O1 1_555 1_555
O1 W4D 1_555 1_555
O4 Si1 1_555 1_555
O5 W2 1_555 1_555
O6 W2 1_555 1_555
O8 W3 1_555 1_555
O10 W1 1_555 1_555
O11 W2 1_555 1_555
O12 W5 1_555 1_555
O13 W4 1_555 1_555
O14 W1 1_555 1_555
O15 W6 1_555 1_555
O16 W3 1_555 1_555
O17 W5 1_555 1_555
O18 W4 1_555 1_555
O19 W3 1_555 1_555
O20 W1 1_555 1_555
O21 W1 1_555 1_555
O22 W2 1_555 1_555
N1 C1 1_555 1_555
C1 H1 1_555 1_555
C2 C1 1_555 1_555
H2 C2 1_555 1_555
C3 C4 1_555 1_555
C4 H3 1_555 1_555
H4 C4 1_555 1_555
H5 C4 1_555 1_555
C5 N1 1_555 1_555
C6 C5 1_555 1_555
H6 C6 1_555 1_555
H7 C6 1_555 1_555
H8 C6 1_555 1_555
N2 C2 1_555 1_555
N3 Ag2 1_555 1_555
C7 N3 1_555 1_555
H9 C7 1_555 1_555
C8 C7 1_555 1_555
H10 C8 1_555 1_555
C9 C10 1_555 1_555
C10 H11 1_555 1_555
H12 C10 1_555 1_555
H13 C10 1_555 1_555
C11 N3 1_555 1_555
C12 C11 1_555 1_555
H14 C12 1_555 1_555
H15 C12 1_555 1_555
H16 C12 1_555 1_555
N4 C8 1_555 1_555
N5 Ag1 1_555 1_555
C13 N5 1_555 1_555
H17 C13 1_555 1_555
C14 C13 1_555 1_555
H18 C14 1_555 1_555
C15 C16 1_555 1_555
C16 H19 1_555 1_555
H20 C16 1_555 1_555
H21 C16 1_555 1_555
C17 N5 1_555 1_555
C18 C17 1_555 1_555
H22 C18 1_555 1_555
H23 C18 1_555 1_555
H24 C18 1_555 1_555
N6 C14 1_555 1_555
W1D O7D 1_555 1_555
W2D O1D 1_555 1_555
W3D O4D 1_555 1_555
W4D O22 1_555 1_555
W5D O4 1_555 1_555
W6D O4 1_555 1_555
Ag1C N4C 1_555 1_555
Ag1C_2 N6 1_555 1_555
Ag2E N1E 1_555 1_555
Ag2E_2 N2 1_555 1_555
Ag2C N3C 1_555 1_555
O1D W4 1_555 1_555
O4D W5 1_555 1_555
O5D W2D 1_555 1_555
O6D W2D 1_555 1_555
O8D W5 1_555 1_555
O9D W4D 1_555 1_555
O10D W1D 1_555 1_555
O11D W2D 1_555 1_555
O12D W5D 1_555 1_555
O13D W4D 1_555 1_555
O14D W1D 1_555 1_555
O15D W6D 1_555 1_555
O16D W6 1_555 1_555
O17D W5D 1_555 1_555
O18D W5 1_555 1_555
O19D W3D 1_555 1_555
O20D W1D 1_555 1_555
O21D W1D 1_555 1_555
O22D W4 1_555 1_555
N1E C1E 1_555 1_555
C1E H1E 1_555 1_555
C2E C1E 1_555 1_555
H2E C2E 1_555 1_555
C3E C4E 1_555 1_555
C4E H3E 1_555 1_555
H4E C4E 1_555 1_555
H5E C4E 1_555 1_555
C5E N1E 1_555 1_555
C6E C5E 1_555 1_555
H6E C6E 1_555 1_555
H7E C6E 1_555 1_555
H8E C6E 1_555 1_555
N2E Ag2 1_555 1_555
N2_2 Ag2E 1_555 1_555
N3C C7C 1_555 1_555
N3E Ag2E 1_555 1_555
C7C H9C 1_555 1_555
C8C C7C 1_555 1_555
H10C C8C 1_555 1_555
C9C C10C 1_555 1_555
C10C H11C 1_555 1_555
H12C C10C 1_555 1_555
H13C C10C 1_555 1_555
C11C N3C 1_555 1_555
C12C C11C 1_555 1_555
H14C C12C 1_555 1_555
H15C C12C 1_555 1_555
H16C C12C 1_555 1_555
N4C C8C 1_555 1_555
N5C Ag1C 1_555 1_555
C13C N5C 1_555 1_555
H17C C13C 1_555 1_555
C14C C13C 1_555 1_555
H18C C14C 1_555 1_555
C15C C16C 1_555 1_555
C16C H19C 1_555 1_555
H20C C16C 1_555 1_555
H21C C16C 1_555 1_555
C17C N5C 1_555 1_555
C18C C17C 1_555 1_555
H22C C18C 1_555 1_555
H23C C18C 1_555 1_555
H24C C18C 1_555 1_555
N6C Ag1 1_555 1_555
N6_2 Ag1C 1_555 1_555
W2 O10 1_555 1_555
W3 O11 1_555 1_555
W3 O14 1_555 1_555
W4 O20 1_555 1_555
W5 O5 1_555 1_555
W6 O17 1_555 1_555
W6 O21 1_555 1_555
W6 O4D 1_555 1_555
Si1 O1D 1_555 1_555
Si1 O4D 1_555 1_555
O8 W5D 1_555 1_555
O16 W6D 1_555 1_555
O18 W5D 1_555 1_555
C3 C5 1_555 1_555
C3 N2 1_555 1_555
C9 C11 1_555 1_555
C9 N4 1_555 1_555
C15 C17 1_555 1_555
C15 N6 1_555 1_555
W2D O10D 1_555 1_555
W2D O22D 1_555 1_555
W3D O8D 1_555 1_555
W3D O11D 1_555 1_555
W3D O14D 1_555 1_555
W3D O16D 1_555 1_555
W4D O18D 1_555 1_555
W4D O20D 1_555 1_555
W5D O1D 1_555 1_555
W5D O5D 1_555 1_555
W6D O9D 1_555 1_555
W6D O17D 1_555 1_555
W6D O21D 1_555 1_555
C2E N2E 1_555 1_555
C3E C5E 1_555 1_555
C3E N2E 1_555 1_555
C9C C11C 1_555 1_555
C9C N4C 1_555 1_555
C14C N6C 1_555 1_555
C15C C17C 1_555 1_555
C15C N6C 1_555 1_555

#END
