
#######################################################################
#
#                 Cambridge Crystallographic Data Centre
#                                CCDC 
#
#######################################################################
#
# If this CIF has been generated from an entry in the Cambridge 
# Structural Database, then it will include bibliographic, chemical, 
# crystal, experimental, refinement or atomic coordinate data resulting 
# from the CCDC's data processing and validation procedures.
#
#######################################################################

data_VEWFAG
_symmetry_cell_setting           orthorhombic
_symmetry_space_group_name_H-M   'P b c n'
_symmetry_Int_Tables_number      60
_space_group_name_Hall           '-P 2n 2ab'
loop_
_symmetry_equiv_pos_site_id
_symmetry_equiv_pos_as_xyz
1 x,y,z
2 1/2-x,1/2-y,1/2+z
3 -x,y,1/2-z
4 1/2+x,1/2-y,-z
5 -x,-y,-z
6 1/2+x,1/2+y,1/2-z
7 x,-y,1/2+z
8 1/2-x,1/2+y,z
_cell_length_a                   12.159(6)
_cell_length_b                   6.865(4)
_cell_length_c                   29.162(16)
_cell_angle_alpha                90
_cell_angle_beta                 90
_cell_angle_gamma                90
_cell_volume                     2434.2
loop_
_atom_site_label
_atom_site_type_symbol
_atom_site_fract_x
_atom_site_fract_y
_atom_site_fract_z
Pb1 Pb 0.17688(4) 0.31070(6) 0.362636(14)
O1 O 0.3613(6) 0.4181(12) 0.3813(3)
O2 O 0.3390(7) 0.1388(12) 0.4175(3)
O3 O 0.5635(8) 0.7020(11) 0.3671(3)
O4 O 0.7006(6) 0.1039(11) 0.1825(2)
O5 O 0.6236(7) -0.1341(11) 0.2185(3)
C1 C 0.3916(10) 0.2890(16) 0.4096(4)
C2 C 0.4948(10) 0.3228(14) 0.4344(4)
C3 C 0.5066(12) 0.2419(17) 0.4774(4)
H1 H 0.4522 0.1597 0.4888
C4 C 0.5973(13) 0.281(2) 0.5036(4)
H2 H 0.6037 0.2275 0.5327
C5 C 0.6771(11) 0.3969(18) 0.4871(5)
H3 H 0.7390 0.4211 0.5049
C6 C 0.6689(10) 0.4793(19) 0.4449(4)
H4 H 0.7241 0.5610 0.4341
C7 C 0.5774(9) 0.4403(16) 0.4182(3)
C8 C 0.5770(10) 0.5272(17) 0.3715(4)
C9 C 0.5962(9) 0.4004(16) 0.3316(4)
C10 C 0.6073(10) 0.4795(18) 0.2888(4)
H5 H 0.6013 0.6135 0.2848
C11 C 0.6272(10) 0.3628(15) 0.2521(4)
H6 H 0.6362 0.4180 0.2233
C12 C 0.6341(10) 0.1641(15) 0.2571(4)
C13 C 0.6228(9) 0.0842(15) 0.3006(4)
H7 H 0.6274 -0.0500 0.3047
C14 C 0.6051(10) 0.2011(16) 0.3367(4)
H8 H 0.5986 0.1468 0.3658
C15 C 0.6526(9) 0.0380(17) 0.2178(4)
Pb1B Pb 0.82312(4) 0.31070(6) 0.137364(14)
Pb1E Pb 0.67688(4) -0.18930(6) 0.137364(14)
Pb1G Pb 0.32312(4) -0.18930(6) 0.362636(14)
Pb1G_2 Pb 0.32312(4) 0.81070(6) 0.362636(14)
O1G O 0.1387(6) -0.0819(12) 0.3813(3)
O2G O 0.1610(7) 0.6388(12) 0.4175(3)
O4B O 0.2994(6) 0.1039(11) 0.3175(2)
O4E O 0.2006(6) 0.6039(11) 0.3175(2)
O5E O 0.1236(7) 0.3659(11) 0.2815(3)
loop_
_geom_bond_atom_site_label_1
_geom_bond_atom_site_label_2
_geom_bond_site_symmetry_1
_geom_bond_site_symmetry_2
Pb1 O1 1_555 1_555
O1 C1 1_555 1_555
O2 Pb1 1_555 1_555
O3 C8 1_555 1_555
O4 C15 1_555 1_555
O5 C15 1_555 1_555
C1 O2 1_555 1_555
C2 C1 1_555 1_555
C3 C2 1_555 1_555
H1 C3 1_555 1_555
C4 C3 1_555 1_555
H2 C4 1_555 1_555
C5 C4 1_555 1_555
H3 C5 1_555 1_555
C6 C5 1_555 1_555
H4 C6 1_555 1_555
C7 C2 1_555 1_555
C8 C7 1_555 1_555
C9 C8 1_555 1_555
C10 C9 1_555 1_555
H5 C10 1_555 1_555
C11 C10 1_555 1_555
H6 C11 1_555 1_555
C12 C11 1_555 1_555
C13 C12 1_555 1_555
H7 C13 1_555 1_555
C14 C9 1_555 1_555
H8 C14 1_555 1_555
C15 C12 1_555 1_555
Pb1B O4 1_555 1_555
Pb1E O4 1_555 1_555
Pb1G O2 1_555 1_555
Pb1G_2 O1 1_555 1_555
O1G Pb1 1_555 1_555
O2G Pb1 1_555 1_555
O4B Pb1 1_555 1_555
O4E Pb1 1_555 1_555
O5E Pb1 1_555 1_555
O5 Pb1E 1_555 1_555
C6 C7 1_555 1_555
C13 C14 1_555 1_555
Pb1G O1G 1_555 1_555
Pb1G O4B 1_555 1_555
Pb1G_2 O2G 1_555 1_555
Pb1G_2 O4E 1_555 1_555

#END
