
#######################################################################
#
#                 Cambridge Crystallographic Data Centre
#                                CCDC 
#
#######################################################################
#
# If this CIF has been generated from an entry in the Cambridge 
# Structural Database, then it will include bibliographic, chemical, 
# crystal, experimental, refinement or atomic coordinate data resulting 
# from the CCDC's data processing and validation procedures.
#
#######################################################################

data_VEWFOT
_symmetry_cell_setting           triclinic
_symmetry_space_group_name_H-M   'P -1'
_symmetry_Int_Tables_number      2
_space_group_name_Hall           '-P 1'
loop_
_symmetry_equiv_pos_site_id
_symmetry_equiv_pos_as_xyz
1 x,y,z
2 -x,-y,-z
_cell_length_a                   11.818(2)
_cell_length_b                   12.130(2)
_cell_length_c                   12.237(3)
_cell_angle_alpha                114.618(3)
_cell_angle_beta                 99.606(3)
_cell_angle_gamma                95.554(3)
_cell_volume                     1545.1
loop_
_atom_site_label
_atom_site_type_symbol
_atom_site_fract_x
_atom_site_fract_y
_atom_site_fract_z
O1 O -0.3429(19) 1.3683(18) -0.2573(18)
W1 W 0.17773(7) 0.79506(7) 0.03447(7)
W2 W 0.00537(7) 0.72720(6) -0.25698(7)
W3 W 0.30524(7) 1.07530(7) 0.04834(7)
W4 W 0.18080(7) 1.07345(8) 0.28918(7)
W5 W 0.12360(8) 1.01475(8) -0.23632(7)
W6 W 0.12825(8) 1.28675(7) 0.02605(7)
Si1 Si 0.0000 1.0000 0.0000
O2 O 0.0972(13) 1.0680(17) -0.0289(19)
O3 O 0.009(2) 0.8672(9) -0.0437(18)
O4 O 0.123(2) 1.178(2) -0.1401(16)
O5 O 0.202(2) 0.9063(17) 0.2020(18)
O6 O 0.260(2) 1.0247(19) -0.126(2)
O7 O 0.256(3) 1.230(2) 0.0729(14)
O8 O 0.0301(18) 0.715(2) 0.0332(15)
O9 O 0.0988(15) 0.846(2) -0.275(3)
O10 O 0.0372(18) 1.0086(17) 0.306(2)
O11 O -0.123(2) 0.780(2) -0.318(2)
O12 O -0.0998(17) 0.6680(18) -0.1814(17)
O13 O 0.2639(18) 0.6973(18) 0.0472(17)
O14 O 0.0042(15) 0.5956(18) -0.3788(19)
O15 O 0.1270(16) 0.724(2) -0.1421(16)
O16 O 0.2916(19) 1.1169(13) 0.2116(17)
O17 O 0.2679(16) 1.1066(16) 0.4259(16)
O18 O 0.4512(15) 1.1180(14) 0.0739(15)
O19 O 0.289(2) 0.9113(15) 0.0218(16)
O20 O 0.1889(13) 1.4249(13) 0.0377(15)
O21 O 0.1797(14) 1.0159(16) -0.3505(14)
W1A W -0.17773(7) 1.20494(7) -0.03447(7)
W2A W -0.00537(7) 1.27280(6) 0.25698(7)
W3A W -0.30524(7) 0.92470(7) -0.04834(7)
W4A W -0.18080(7) 0.92655(8) -0.28918(7)
W5A W -0.12360(8) 0.98525(8) 0.23632(7)
W6A W -0.12825(8) 0.71325(7) -0.02605(7)
O2A O -0.0972(13) 0.9320(17) 0.0289(19)
O3A O -0.009(2) 1.1328(9) 0.0437(18)
O4A O -0.123(2) 0.822(2) 0.1401(16)
O5A O -0.202(2) 1.0937(17) -0.2020(18)
O6A O -0.260(2) 0.9753(19) 0.126(2)
O7A O -0.256(3) 0.770(2) -0.0729(14)
O8A O -0.0301(18) 1.285(2) -0.0332(15)
O9A O -0.0988(15) 1.154(2) 0.275(3)
O10A O -0.0372(18) 0.9914(17) -0.306(2)
O11A O 0.123(2) 1.220(2) 0.318(2)
O12A O 0.0998(17) 1.3320(18) 0.1814(17)
O13A O -0.2639(18) 1.3027(18) -0.0472(17)
O14A O -0.0042(15) 1.4044(18) 0.3788(19)
O15A O -0.1270(16) 1.276(2) 0.1421(16)
O16A O -0.2916(19) 0.8831(13) -0.2116(17)
O17A O -0.2679(16) 0.8934(16) -0.4259(16)
O18A O -0.4512(15) 0.8820(14) -0.0739(15)
O19A O -0.289(2) 1.0887(15) -0.0218(16)
O20A O -0.1889(13) 0.5751(13) -0.0377(15)
O21A O -0.1797(14) 0.9841(16) 0.3505(14)
Cu1 Cu 0.2881(3) 0.4895(5) -0.2221(4)
Cu2 Cu -0.2538(4) 0.1933(5) -0.4334(7)
N1 N 0.1378(15) 0.3854(19) -0.2603(16)
C1 C 0.047(3) 0.418(2) -0.207(2)
H1 H 0.0650 0.4918 -0.1321
C2 C -0.061(3) 0.3630(19) -0.245(2)
H2 H -0.1178 0.3988 -0.2022
C3 C -0.013(3) 0.208(2) -0.399(2)
H3 H -0.0306 0.1264 -0.4643
C4 C 0.110(2) 0.282(2) -0.3561(19)
H4 H 0.1669 0.2516 -0.4017
N2 N -0.0913(15) 0.253(2) -0.347(2)
N3 N 0.2721(16) 0.7168(16) -0.4585(18)
C5 C 0.332(2) 0.7681(19) -0.3318(18)
H5 H 0.3701 0.8519 -0.2928
C6 C 0.3358(18) 0.7078(18) -0.2685(19)
H6 H 0.3724 0.7497 -0.1830
C7 C 0.235(2) 0.533(2) -0.4371(19)
H7 H 0.1968 0.4494 -0.4734
C8 C 0.2291(18) 0.5939(17) -0.5098(17)
H8 H 0.1953 0.5501 -0.5958
N4 N 0.2900(17) 0.5852(18) -0.3182(14)
N5 N -0.390(2) 0.080(2) -0.471(2)
C9 C -0.425(3) -0.015(3) -0.585(2)
H9 H -0.3780 -0.0329 -0.6442
C10 C -0.455(3) 0.090(3) -0.389(3)
H10 H -0.4229 0.1496 -0.3061
N6 N 0.4118(18) 0.4946(18) -0.0927(16)
C11 C 0.500(2) 0.602(2) -0.019(2)
H11 H 0.5008 0.6732 -0.0336
C12 C 0.4236(18) 0.3996(19) -0.0670(17)
H12 H 0.3693 0.3251 -0.1179
Cu1A Cu 0.7119(3) 0.5105(5) 0.2221(4)
Cu1A_2 Cu -0.2881(3) 0.5105(5) -0.7779(4)
Cu2A Cu 0.2538(4) 0.8067(5) -0.5666(7)
Cu2A_2 Cu -0.7462(4) -0.1933(5) -0.5666(7)
Cu2A_3 Cu 1.2538(4) 0.8067(5) 0.4334(7)
N1A N 0.8622(15) 0.6146(19) 0.2603(16)
C1A C 0.953(3) 0.582(2) 0.207(2)
H1A H 0.9350 0.5082 0.1321
C2A C 1.061(3) 0.6370(19) 0.245(2)
H2A H 1.1178 0.6012 0.2022
C3A C 1.013(3) 0.792(2) 0.399(2)
H3A H 1.0306 0.8736 0.4643
C4A C 0.890(2) 0.718(2) 0.3561(19)
H4A H 0.8331 0.7484 0.4017
N2A N 1.0913(15) 0.747(2) 0.347(2)
N2A_2 N 0.0913(15) 0.747(2) -0.653(2)
N3A N -0.2721(16) 0.2832(16) -0.5415(18)
C5A C -0.332(2) 0.2319(19) -0.6682(18)
H5A H -0.3701 0.1481 -0.7072
C6A C -0.3358(18) 0.2922(18) -0.7315(19)
H6A H -0.3724 0.2503 -0.8170
C7A C -0.235(2) 0.467(2) -0.5629(19)
H7A H -0.1968 0.5506 -0.5266
C8A C -0.2291(18) 0.4061(17) -0.4902(17)
H8A H -0.1953 0.4499 -0.4042
N4A N -0.2900(17) 0.4148(18) -0.6818(14)
N4A_2 N 0.7100(17) 0.4148(18) 0.3182(14)
N5A N -0.610(2) -0.080(2) -0.529(2)
N5A_2 N 0.390(2) 0.920(2) -0.529(2)
C9A C -0.575(3) 0.015(3) -0.415(2)
H9A H -0.6220 0.0329 -0.3558
C10A C -0.545(3) -0.090(3) -0.611(3)
H10A H -0.5771 -0.1496 -0.6939
N6A N 0.5882(18) 0.5054(18) 0.0927(16)
C11A C 0.500(2) 0.398(2) 0.019(2)
H11A H 0.4992 0.3268 0.0336
C12A C 0.5764(18) 0.6004(19) 0.0670(17)
H12A H 0.6307 0.6749 0.1179
O22? O 0.011(2) 1.0606(16) 0.1377(8)
O23? O -0.1134(11) 1.0161(18) -0.0640(17)
loop_
_geom_bond_atom_site_label_1
_geom_bond_atom_site_label_2
_geom_bond_site_symmetry_1
_geom_bond_site_symmetry_2
Cu1 N1 1_555 1_555
Cu2 N2 1_555 1_555
N1 C1 1_555 1_555
C1 H1 1_555 1_555
C2 C1 1_555 1_555
H2 C2 1_555 1_555
C3 H3 1_555 1_555
C4 N1 1_555 1_555
H4 C4 1_555 1_555
N2 C2 1_555 1_555
N3 C5 1_555 1_555
C5 H5 1_555 1_555
C6 C5 1_555 1_555
H6 C6 1_555 1_555
C7 H7 1_555 1_555
C8 N3 1_555 1_555
H8 C8 1_555 1_555
N4 Cu1 1_555 1_555
N5 Cu2 1_555 1_555
C9 N5 1_555 1_555
H9 C9 1_555 1_555
C10 N5 1_555 1_555
H10 C10 1_555 1_555
N6 Cu1 1_555 1_555
C11 N6 1_555 1_555
H11 C11 1_555 1_555
C12 N6 1_555 1_555
H12 C12 1_555 1_555
W1 O3 1_555 1_555
W2 O3 1_555 1_555
W3 O2 1_555 1_555
W4 O5 1_555 1_555
W5 O2 1_555 1_555
W6 O2 1_555 1_555
Si1 O2 1_555 1_555
O3 Si1 1_555 1_555
O4 W5 1_555 1_555
O5 W1 1_555 1_555
O6 W3 1_555 1_555
O7 W3 1_555 1_555
O8 W1 1_555 1_555
O9 W2 1_555 1_555
O10 W4 1_555 1_555
O11 W2 1_555 1_555
O12 W2 1_555 1_555
O13 W1 1_555 1_555
O14 W2 1_555 1_555
O15 W1 1_555 1_555
O16 W3 1_555 1_555
O17 W4 1_555 1_555
O18 W3 1_555 1_555
O19 W1 1_555 1_555
O20 W6 1_555 1_555
O21 W5 1_555 1_555
Cu1A N1A 1_555 1_555
Cu1A_2 N4A 1_555 1_555
Cu2A N3 1_555 1_555
Cu2A_2 N5A 1_555 1_555
Cu2A_3 N2A 1_555 1_555
N1A C1A 1_555 1_555
C1A H1A 1_555 1_555
C2A C1A 1_555 1_555
H2A C2A 1_555 1_555
C3A H3A 1_555 1_555
C4A N1A 1_555 1_555
H4A C4A 1_555 1_555
N2A C2A 1_555 1_555
N2A_2 Cu2A 1_555 1_555
N3A Cu2 1_555 1_555
C5A N3A 1_555 1_555
H5A C5A 1_555 1_555
C6A C5A 1_555 1_555
H6A C6A 1_555 1_555
C7A H7A 1_555 1_555
C8A N3A 1_555 1_555
H8A C8A 1_555 1_555
N4A C6A 1_555 1_555
N4A_2 Cu1A 1_555 1_555
N5A C9A 1_555 1_555
N5A_2 Cu2A 1_555 1_555
C9A C10 1_555 1_555
H9A C9A 1_555 1_555
C10A C9 1_555 1_555
H10A C10A 1_555 1_555
N6A Cu1A 1_555 1_555
C11A C12 1_555 1_555
H11A C11A 1_555 1_555
C12A C11 1_555 1_555
H12A C12A 1_555 1_555
W1A O3A 1_555 1_555
W2A O3A 1_555 1_555
W3A O2A 1_555 1_555
W4A O11 1_555 1_555
W5A O10 1_555 1_555
W6A O3 1_555 1_555
O2A Si1 1_555 1_555
O3A W6 1_555 1_555
O4A W5A 1_555 1_555
O5A W1A 1_555 1_555
O6A W3A 1_555 1_555
O7A W3A 1_555 1_555
O8A W6 1_555 1_555
O9A W2A 1_555 1_555
O10A W5 1_555 1_555
O11A W4 1_555 1_555
O12A W6 1_555 1_555
O13A W1A 1_555 1_555
O14A W2A 1_555 1_555
O15A W1A 1_555 1_555
O16A W3A 1_555 1_555
O17A W4A 1_555 1_555
O18A W3A 1_555 1_555
O19A W1A 1_555 1_555
O20A W6A 1_555 1_555
O21A W5A 1_555 1_555
C3 C4 1_555 1_555
C3 N2 1_555 1_555
C6 N4 1_555 1_555
C7 C8 1_555 1_555
C7 N4 1_555 1_555
W2 O15 1_555 1_555
W3 O19 1_555 1_555
W4 O16 1_555 1_555
W5 O6 1_555 1_555
W5 O9 1_555 1_555
W6 O4 1_555 1_555
W6 O7 1_555 1_555
Si1 O3A 1_555 1_555
O8 W6A 1_555 1_555
O12 W6A 1_555 1_555
C3A C4A 1_555 1_555
C3A N2A 1_555 1_555
C7A C8A 1_555 1_555
C7A N4A 1_555 1_555
N5A C10A 1_555 1_555
N6A C11A 1_555 1_555
N6A C12A 1_555 1_555
W1A O8A 1_555 1_555
W2A O11A 1_555 1_555
W2A O12A 1_555 1_555
W2A O15A 1_555 1_555
W3A O19A 1_555 1_555
W4A O5A 1_555 1_555
W4A O10A 1_555 1_555
W4A O16A 1_555 1_555
W5A O2A 1_555 1_555
W5A O6A 1_555 1_555
W5A O9A 1_555 1_555
W6A O2A 1_555 1_555
W6A O4A 1_555 1_555
W6A O7A 1_555 1_555

#END
