
#######################################################################
#
#                 Cambridge Crystallographic Data Centre
#                                CCDC 
#
#######################################################################
#
# If this CIF has been generated from an entry in the Cambridge 
# Structural Database, then it will include bibliographic, chemical, 
# crystal, experimental, refinement or atomic coordinate data resulting 
# from the CCDC's data processing and validation procedures.
#
#######################################################################

data_VEWGEK
_symmetry_cell_setting           orthorhombic
_symmetry_space_group_name_H-M   'C c m 21'
_symmetry_Int_Tables_number      36
_space_group_name_Hall           'C 2n -2c'
loop_
_symmetry_equiv_pos_site_id
_symmetry_equiv_pos_as_xyz
1 x,y,z
2 -x,-y,1/2+z
3 -x,y,1/2+z
4 x,-y,z
5 1/2+x,1/2+y,z
6 1/2-x,1/2-y,1/2+z
7 1/2-x,1/2+y,1/2+z
8 1/2+x,1/2-y,z
_cell_length_a                   22.098(4)
_cell_length_b                   22.769(4)
_cell_length_c                   16.907(3)
_cell_angle_alpha                90
_cell_angle_beta                 90
_cell_angle_gamma                90
_cell_volume                     8506.75
loop_
_atom_site_label
_atom_site_type_symbol
_atom_site_fract_x
_atom_site_fract_y
_atom_site_fract_z
W1 W 0.303109(17) 0.425671(16) -0.15229(2)
W2 W 0.199477(17) 0.420854(17) -0.48606(2)
W3 W 0.24989(2) 0.347040(12) -0.32448(3)
W4 W 0.16972(3) 0.5000 -0.14659(4)
W5 W 0.34247(3) 0.5000 -0.49163(3)
W6 W 0.392798(17) 0.425726(16) -0.33196(2)
W7 W 0.115534(17) 0.420825(17) -0.31772(2)
Si1 Si 0.25222(16) 0.5000 -0.3196(2)
O1 O 0.3179(3) 0.5000 -0.3549(5)
O2 O 0.2199(2) 0.4434(2) -0.3494(3)
O3 O 0.2558(3) 0.5000 -0.2287(3)
O4 O 0.3733(5) 0.5000 -0.5806(6)
O5 O 0.3317(4) 0.3811(4) -0.0812(4)
O6 O 0.4547(3) 0.3815(3) -0.3271(5)
O7 O 0.2566(4) 0.2720(3) -0.3165(5)
O8 O 0.0460(3) 0.3906(3) -0.3064(5)
O9 O 0.1190(5) 0.5000 -0.0701(7)
O10 O 0.1635(3) 0.3511(3) -0.2989(4)
O11 O 0.3656(3) 0.4302(3) -0.2265(4)
O12 O 0.3287(4) 0.5000 -0.1086(6)
O13 O 0.4341(4) 0.5000 -0.3179(6)
O14 O 0.3293(3) 0.3697(3) -0.3466(5)
O15 O 0.2315(3) 0.3508(3) -0.4311(4)
O16 O 0.2809(3) 0.4431(4) -0.4992(5)
O17 O 0.1000(5) 0.5000 -0.3371(7)
O18 O 0.2245(3) 0.4411(3) -0.1042(4)
O19 O 0.1398(3) 0.4433(3) -0.2141(3)
O20 O 0.2655(3) 0.3730(3) -0.2199(4)
O21 O 0.1761(5) 0.5000 -0.4980(7)
O22 O 0.1258(3) 0.4094(3) -0.4283(4)
O23 O 0.3952(3) 0.4410(3) -0.4423(4)
O24 O 0.1787(4) 0.3907(4) -0.5723(5)
W1C W 0.303109(17) 0.574329(16) -0.15229(2)
W2C W 0.199477(17) 0.579146(17) -0.48606(2)
W3C W 0.24989(2) 0.652960(12) -0.32448(3)
W6C W 0.392798(17) 0.574274(16) -0.33196(2)
W7C W 0.115534(17) 0.579175(17) -0.31772(2)
O2C O 0.2199(2) 0.5566(2) -0.3494(3)
O5C O 0.3317(4) 0.6189(4) -0.0812(4)
O6C O 0.4547(3) 0.6185(3) -0.3271(5)
O7C O 0.2566(4) 0.7280(3) -0.3165(5)
O8C O 0.0460(3) 0.6094(3) -0.3064(5)
O10C O 0.1635(3) 0.6489(3) -0.2989(4)
O11C O 0.3656(3) 0.5698(3) -0.2265(4)
O14C O 0.3293(3) 0.6303(3) -0.3466(5)
O15C O 0.2315(3) 0.6492(3) -0.4311(4)
O16C O 0.2809(3) 0.5569(4) -0.4992(5)
O18C O 0.2245(3) 0.5589(3) -0.1042(4)
O19C O 0.1398(3) 0.5567(3) -0.2141(3)
O20C O 0.2655(3) 0.6270(3) -0.2199(4)
O22C O 0.1258(3) 0.5906(3) -0.4283(4)
O23C O 0.3952(3) 0.5590(3) -0.4423(4)
O24C O 0.1787(4) 0.6093(4) -0.5723(5)
Cu1 Cu -0.01897(4) 0.25012(7) -0.07313(10)
N1 N -0.1089(3) 0.2498(5) -0.0727(7)
C1 C -0.1395(4) 0.2529(4) -0.1387(6)
H1 H -0.1176 0.2568 -0.1867
C2 C -0.2025(4) 0.2508(4) -0.1424(5)
H2 H -0.2227 0.2516 -0.1920
C3 C -0.2353(3) 0.2475(5) -0.0726(8)
C4 C -0.2018(4) 0.2453(4) -0.0032(6)
H3 H -0.2219 0.2422 0.0463
C5 C -0.1413(4) 0.2476(5) -0.0055(7)
H4 H -0.1199 0.2478 0.0433
C6 C -0.3019(3) 0.2462(5) -0.0714(8)
C7 C -0.3337(4) 0.2065(5) -0.1145(7)
H5 H -0.3133 0.1768 -0.1436
C8 C -0.3977(4) 0.2102(5) -0.1152(6)
H6 H -0.4197 0.1831 -0.1468
C9 C -0.3956(4) 0.2885(5) -0.0322(6)
H7 H -0.4168 0.3183 -0.0043
C10 C -0.3348(4) 0.2881(5) -0.0273(5)
H8 H -0.3143 0.3155 0.0055
N2 N -0.4282(3) 0.2497(5) -0.0738(6)
N3 N -0.0199(3) 0.3437(3) -0.0749(5)
C11 C -0.0305(5) 0.3758(5) -0.1406(7)
H9 H -0.0385 0.3548 -0.1880
C12 C -0.0308(4) 0.4338(4) -0.1448(7)
H10 H -0.0383 0.4528 -0.1939
C13 C -0.0196(4) 0.4688(4) -0.0735(6)
C14 C -0.0063(5) 0.4358(4) -0.0072(6)
H11 H 0.0046 0.4557 0.0401
C15 C -0.0082(5) 0.3727(5) -0.0066(7)
H12 H -0.0013 0.3516 0.0410
N4 N -0.0200(3) 0.1571(3) -0.0716(5)
C16 C -0.0087(5) 0.1246(4) -0.1320(5)
H13 H 0.0019 0.1442 -0.1796
C17 C -0.0104(7) 0.0650(5) -0.1342(8)
H14 H -0.0054 0.0454 -0.1834
C18 C -0.0192(4) 0.0330(4) -0.0679(7)
C19 C -0.0297(6) 0.0650(5) -0.0046(7)
H15 H -0.0381 0.0460 0.0441
C20 C -0.0287(5) 0.1265(4) -0.0074(8)
H16 H -0.0347 0.1472 0.0407
O25 O -0.0103(3) 0.2502(3) -0.2178(4)
H25 H 0.0234 0.2371 -0.2345
H26 H -0.0397 0.2332 -0.2408
O26 O -0.0079(3) 0.2517(3) 0.0698(4)
H27 H 0.0242 0.2347 0.0857
H28 H -0.0387 0.2386 0.0941
Cu1G Cu 0.48103(4) 0.24988(7) -0.07313(10)
Cu1G_2 Cu -0.51897(4) 0.24988(7) -0.07313(10)
Cu1C Cu -0.01897(4) 0.74988(7) -0.07313(10)
Cu1C_2 Cu -0.01897(4) -0.25012(7) -0.07313(10)
N1G N 0.3911(3) 0.2502(5) -0.0727(7)
C1G C 0.3605(4) 0.2471(4) -0.1387(6)
H1G H 0.3824 0.2432 -0.1867
C2G C 0.2975(4) 0.2492(4) -0.1424(5)
H2G H 0.2773 0.2484 -0.1920
C3G C 0.2647(3) 0.2525(5) -0.0726(8)
C4G C 0.2982(4) 0.2547(4) -0.0032(6)
H3G H 0.2781 0.2578 0.0463
C5G C 0.3587(4) 0.2524(5) -0.0055(7)
H4G H 0.3801 0.2522 0.0433
C6G C 0.1981(3) 0.2538(5) -0.0714(8)
C7G C 0.1663(4) 0.2935(5) -0.1145(7)
H5G H 0.1867 0.3232 -0.1436
C8G C 0.1023(4) 0.2898(5) -0.1152(6)
H6G H 0.0803 0.3169 -0.1468
C9G C 0.1044(4) 0.2115(5) -0.0322(6)
H7G H 0.0832 0.1817 -0.0043
C10G C 0.1652(4) 0.2119(5) -0.0273(5)
H8G H 0.1857 0.1845 0.0055
N2G N 0.0718(3) 0.2503(5) -0.0738(6)
N2_2 N 0.5718(3) 0.2497(5) -0.0738(6)
N3C N -0.0199(3) 0.6563(3) -0.0749(5)
N3G N 0.4801(3) 0.1563(3) -0.0749(5)
C11C C -0.0305(5) 0.6242(5) -0.1406(7)
H9C H -0.0385 0.6452 -0.1880
C12C C -0.0308(4) 0.5662(4) -0.1448(7)
H10C H -0.0383 0.5472 -0.1939
C13C C -0.0196(4) 0.5312(4) -0.0735(6)
C14C C -0.0063(5) 0.5642(4) -0.0072(6)
H11C H 0.0046 0.5443 0.0401
C15C C -0.0082(5) 0.6273(5) -0.0066(7)
H12C H -0.0013 0.6484 0.0410
N4C N -0.0200(3) -0.1571(3) -0.0716(5)
N4G N 0.4800(3) 0.3429(3) -0.0716(5)
C16C C -0.0087(5) -0.1246(4) -0.1320(5)
H13C H 0.0019 -0.1442 -0.1796
C17C C -0.0104(7) -0.0650(5) -0.1342(8)
H14C H -0.0054 -0.0454 -0.1834
C18C C -0.0192(4) -0.0330(4) -0.0679(7)
C19C C -0.0297(6) -0.0650(5) -0.0046(7)
H15C H -0.0381 -0.0460 0.0441
C20C C -0.0287(5) -0.1265(4) -0.0074(8)
H16C H -0.0347 -0.1472 0.0407
O25G O 0.4897(3) 0.2498(3) -0.2178(4)
H25G H 0.5234 0.2629 -0.2345
H26G H 0.4603 0.2668 -0.2408
O26G O 0.4921(3) 0.2483(3) 0.0698(4)
H27G H 0.5242 0.2653 0.0857
H28G H 0.4613 0.2614 0.0941
N5 N 0.1543(6) 0.3464(3) 0.1600(4)
C21 C 0.1608(12) 0.3781(3) 0.0918(6)
H17 H 0.1688 0.3584 0.0434
C22 C 0.1560(9) 0.4386(3) 0.0927(5)
H18 H 0.1484 0.4593 0.0449
C23 C 0.1621(6) 0.4689(3) 0.1626(4)
C24 C 0.1768(7) 0.4363(3) 0.2294(5)
H19 H 0.1942 0.4546 0.2745
C25 C 0.1658(9) 0.3765(3) 0.2289(6)
H20 H 0.1661 0.3556 0.2775
N5C N 0.1543(6) 0.6536(3) 0.1600(4)
C21C C 0.1608(12) 0.6219(3) 0.0918(6)
H17C H 0.1688 0.6416 0.0434
C22C C 0.1560(9) 0.5614(3) 0.0927(5)
H18C H 0.1484 0.5407 0.0449
C23C C 0.1621(6) 0.5311(3) 0.1626(4)
C24C C 0.1768(7) 0.5637(3) 0.2294(5)
H19C H 0.1942 0.5454 0.2745
C25C C 0.1658(9) 0.6235(3) 0.2289(6)
H20C H 0.1661 0.6444 0.2775
N6 N -0.1590(6) 0.1561(3) 0.1811(4)
C26 C -0.1490(9) 0.1263(3) 0.2499(6)
H21 H -0.1342 0.1473 0.2944
C27 C -0.1596(12) 0.0668(3) 0.2571(4)
H22 H -0.1627 0.0493 0.3080
C28 C -0.1658(5) 0.0329(3) 0.1900(4)
C29 C -0.1653(9) 0.0620(3) 0.1183(5)
H23 H -0.1607 0.0405 0.0706
C30 C -0.1715(7) 0.1223(3) 0.1161(6)
H24 H -0.1846 0.1407 0.0687
N6C N -0.1590(6) -0.1561(3) 0.1811(4)
C26C C -0.1490(9) -0.1263(3) 0.2499(6)
H21C H -0.1342 -0.1473 0.2944
C27C C -0.1596(12) -0.0668(3) 0.2571(4)
H22C H -0.1627 -0.0493 0.3080
C28C C -0.1658(5) -0.0329(3) 0.1900(4)
C29C C -0.1653(9) -0.0620(3) 0.1183(5)
H23C H -0.1607 -0.0405 0.0706
C30C C -0.1715(7) -0.1223(3) 0.1161(6)
H24C H -0.1846 -0.1407 0.0687
O27 O -0.0917(3) 0.2539(3) 0.1909(4)
H29 H -0.1116 0.2857 0.1941
H30 H -0.1144 0.2239 0.1942
O28 O 0.0974(3) 0.2420(3) 0.1608(6)
H31 H 0.1159 0.2094 0.1577
H32 H 0.1212 0.2711 0.1572
loop_
_geom_bond_atom_site_label_1
_geom_bond_atom_site_label_2
_geom_bond_site_symmetry_1
_geom_bond_site_symmetry_2
W1 O3 1_555 1_555
W2 O2 1_555 1_555
W3 O2 1_555 1_555
W4 O3 1_555 1_555
W5 O1 1_555 1_555
W6 O1 1_555 1_555
W7 O2 1_555 1_555
Si1 O1 1_555 1_555
O1 W6C 1_555 1_555
O2 Si1 1_555 1_555
O3 Si1 1_555 1_555
O4 W5 1_555 1_555
O5 W1 1_555 1_555
O6 W6 1_555 1_555
O7 W3 1_555 1_555
O8 W7 1_555 1_555
O9 W4 1_555 1_555
O10 W3 1_555 1_555
O11 W1 1_555 1_555
O12 W1 1_555 1_555
O13 W6 1_555 1_555
O14 W3 1_555 1_555
O15 W2 1_555 1_555
O16 W2 1_555 1_555
O17 W7 1_555 1_555
O18 W1 1_555 1_555
O19 W4 1_555 1_555
O20 W1 1_555 1_555
O21 W2 1_555 1_555
O22 W2 1_555 1_555
O23 W5 1_555 1_555
O24 W2 1_555 1_555
Cu1 N1 1_555 1_555
N1 C1 1_555 1_555
C1 H1 1_555 1_555
C2 C1 1_555 1_555
H2 C2 1_555 1_555
C3 C2 1_555 1_555
C4 C3 1_555 1_555
H3 C4 1_555 1_555
C5 N1 1_555 1_555
H4 C5 1_555 1_555
C6 C3 1_555 1_555
C7 C6 1_555 1_555
H5 C7 1_555 1_555
C8 C7 1_555 1_555
H6 C8 1_555 1_555
C9 H7 1_555 1_555
C10 C6 1_555 1_555
H8 C10 1_555 1_555
N2 C8 1_555 1_555
N3 Cu1 1_555 1_555
C11 N3 1_555 1_555
H9 C11 1_555 1_555
C12 C11 1_555 1_555
H10 C12 1_555 1_555
C13 C12 1_555 1_555
C14 C13 1_555 1_555
H11 C14 1_555 1_555
C15 N3 1_555 1_555
H12 C15 1_555 1_555
N4 Cu1 1_555 1_555
C16 N4 1_555 1_555
H13 C16 1_555 1_555
C17 C16 1_555 1_555
H14 C17 1_555 1_555
C18 C17 1_555 1_555
C19 C18 1_555 1_555
H15 C19 1_555 1_555
C20 N4 1_555 1_555
H16 C20 1_555 1_555
N5 C21 1_555 1_555
C21 H17 1_555 1_555
C22 C21 1_555 1_555
H18 C22 1_555 1_555
C23 C22 1_555 1_555
C24 C23 1_555 1_555
H19 C24 1_555 1_555
C25 N5 1_555 1_555
H20 C25 1_555 1_555
N6 C26 1_555 1_555
C26 H21 1_555 1_555
C27 C26 1_555 1_555
H22 C27 1_555 1_555
C28 C27 1_555 1_555
C29 C28 1_555 1_555
H23 C29 1_555 1_555
C30 N6 1_555 1_555
H24 C30 1_555 1_555
O25 Cu1 1_555 1_555
H25 O25 1_555 1_555
H26 O25 1_555 1_555
O26 Cu1 1_555 1_555
H27 O26 1_555 1_555
H28 O26 1_555 1_555
O27 H29 1_555 1_555
H30 O27 1_555 1_555
O28 H31 1_555 1_555
H32 O28 1_555 1_555
W1C O3 1_555 1_555
W2C O21 1_555 1_555
W3C O2C 1_555 1_555
W6C O13 1_555 1_555
W7C O17 1_555 1_555
O2C Si1 1_555 1_555
O5C W1C 1_555 1_555
O6C W6C 1_555 1_555
O7C W3C 1_555 1_555
O8C W7C 1_555 1_555
O10C W3C 1_555 1_555
O11C W1C 1_555 1_555
O14C W3C 1_555 1_555
O15C W2C 1_555 1_555
O16C W5 1_555 1_555
O18C W4 1_555 1_555
O19C W4 1_555 1_555
O20C W1C 1_555 1_555
O22C W2C 1_555 1_555
O23C W5 1_555 1_555
O24C W2C 1_555 1_555
Cu1G N1G 1_555 1_555
Cu1G_2 N2 1_555 1_555
Cu1C N3C 1_555 1_555
Cu1C_2 N4C 1_555 1_555
N1G C1G 1_555 1_555
C1G H1G 1_555 1_555
C2G C1G 1_555 1_555
H2G C2G 1_555 1_555
C3G C2G 1_555 1_555
C4G C3G 1_555 1_555
H3G C4G 1_555 1_555
C5G N1G 1_555 1_555
H4G C5G 1_555 1_555
C6G C3G 1_555 1_555
C7G C6G 1_555 1_555
H5G C7G 1_555 1_555
C8G C7G 1_555 1_555
H6G C8G 1_555 1_555
C9G H7G 1_555 1_555
C10G C6G 1_555 1_555
H8G C10G 1_555 1_555
N2G Cu1 1_555 1_555
N2_2 Cu1G 1_555 1_555
N3C C11C 1_555 1_555
N3G Cu1G 1_555 1_555
C11C H9C 1_555 1_555
C12C C11C 1_555 1_555
H10C C12C 1_555 1_555
C13C C13 1_555 1_555
C14C C13C 1_555 1_555
H11C C14C 1_555 1_555
C15C N3C 1_555 1_555
H12C C15C 1_555 1_555
N4C C16C 1_555 1_555
N4G Cu1G 1_555 1_555
C16C H13C 1_555 1_555
C17C C16C 1_555 1_555
H14C C17C 1_555 1_555
C18C C18 1_555 1_555
C19C C18C 1_555 1_555
H15C C19C 1_555 1_555
C20C N4C 1_555 1_555
H16C C20C 1_555 1_555
N5C C21C 1_555 1_555
C21C H17C 1_555 1_555
C22C C21C 1_555 1_555
H18C C22C 1_555 1_555
C23C C23 1_555 1_555
C24C C23C 1_555 1_555
H19C C24C 1_555 1_555
C25C N5C 1_555 1_555
H20C C25C 1_555 1_555
N6C C26C 1_555 1_555
C26C H21C 1_555 1_555
C27C C26C 1_555 1_555
H22C C27C 1_555 1_555
C28C C28 1_555 1_555
C29C C28C 1_555 1_555
H23C C29C 1_555 1_555
C30C N6C 1_555 1_555
H24C C30C 1_555 1_555
O25G Cu1G 1_555 1_555
H25G O25G 1_555 1_555
H26G O25G 1_555 1_555
O26G Cu1G 1_555 1_555
H27G O26G 1_555 1_555
H28G O26G 1_555 1_555
W3 O15 1_555 1_555
W3 O20 1_555 1_555
W4 O18 1_555 1_555
W5 O16 1_555 1_555
W6 O11 1_555 1_555
W6 O14 1_555 1_555
W6 O23 1_555 1_555
W7 O10 1_555 1_555
W7 O19 1_555 1_555
W7 O22 1_555 1_555
O12 W1C 1_555 1_555
C4 C5 1_555 1_555
C9 C10 1_555 1_555
C9 N2 1_555 1_555
C14 C15 1_555 1_555
C19 C20 1_555 1_555
C24 C25 1_555 1_555
C29 C30 1_555 1_555
W1C O18C 1_555 1_555
W2C O2C 1_555 1_555
W2C O16C 1_555 1_555
W3C O15C 1_555 1_555
W3C O20C 1_555 1_555
W6C O11C 1_555 1_555
W6C O14C 1_555 1_555
W6C O23C 1_555 1_555
W7C O2C 1_555 1_555
W7C O10C 1_555 1_555
W7C O19C 1_555 1_555
W7C O22C 1_555 1_555
C4G C5G 1_555 1_555
C8G N2G 1_555 1_555
C9G C10G 1_555 1_555
C9G N2G 1_555 1_555
C12C C13C 1_555 1_555
C14C C15C 1_555 1_555
C17C C18C 1_555 1_555
C19C C20C 1_555 1_555
C22C C23C 1_555 1_555
C24C C25C 1_555 1_555
C27C C28C 1_555 1_555
C29C C30C 1_555 1_555

#END
