
#######################################################################
#
#                 Cambridge Crystallographic Data Centre
#                                CCDC 
#
#######################################################################
#
# If this CIF has been generated from an entry in the Cambridge 
# Structural Database, then it will include bibliographic, chemical, 
# crystal, experimental, refinement or atomic coordinate data resulting 
# from the CCDC's data processing and validation procedures.
#
#######################################################################

data_VEWGAG
_symmetry_cell_setting           triclinic
_symmetry_space_group_name_H-M   'P -1'
_symmetry_Int_Tables_number      2
_space_group_name_Hall           '-P 1'
loop_
_symmetry_equiv_pos_site_id
_symmetry_equiv_pos_as_xyz
1 x,y,z
2 -x,-y,-z
_cell_length_a                   11.280(3)
_cell_length_b                   14.974(4)
_cell_length_c                   15.557(4)
_cell_angle_alpha                105.665(5)
_cell_angle_beta                 102.262(5)
_cell_angle_gamma                106.328(4)
_cell_volume                     2306.84
loop_
_atom_site_label
_atom_site_type_symbol
_atom_site_fract_x
_atom_site_fract_y
_atom_site_fract_z
Cu1 Cu 0.7128(2) 0.13152(17) -0.40156(16)
Cu2 Cu 0.1307(2) -0.09593(17) 0.03723(16)
N1 N 1.4469(16) 0.6743(12) -0.0277(11)
C1 C 1.410(2) 0.5894(16) -0.0095(16)
H1 H 1.4602 0.5868 0.0448
C2 C 1.3032(19) 0.5069(15) -0.0655(13)
H2 H 1.2843 0.4498 -0.0501
C3 C 1.2215(18) 0.5095(13) -0.1475(13)
C4 C 1.2625(18) 0.5986(12) -0.1636(13)
H3 H 1.2132 0.6059 -0.2155
C5 C 1.371(2) 0.6735(16) -0.1064(15)
H4 H 1.3954 0.7298 -0.1227
C6 C 1.1016(16) 0.4256(12) -0.2053(12)
C7 C 1.0790(19) 0.3298(15) -0.2030(14)
H5 H 1.1409 0.3174 -0.1628
C8 C 0.9656(19) 0.2545(13) -0.2602(15)
H6 H 0.9551 0.1909 -0.2595
C9 C 0.8886(18) 0.3570(13) -0.3207(12)
H7 H 0.8254 0.3671 -0.3622
C10 C 0.9989(19) 0.4353(12) -0.2650(13)
H8 H 1.0061 0.4981 -0.2670
N2 N 0.8687(13) 0.2659(10) -0.3171(10)
N3 N 0.6107(13) 0.0897(10) -0.3215(10)
C11 C 0.5952(18) 0.0027(13) -0.3090(13)
H9 H 0.6336 -0.0388 -0.3386
C12 C 0.524(2) -0.0268(15) -0.2535(15)
H10 H 0.5116 -0.0890 -0.2482
C13 C 0.4722(17) 0.0335(11) -0.2068(11)
C14 C 0.4867(17) 0.1247(12) -0.2194(12)
H11 H 0.4522 0.1684 -0.1885
C15 C 0.5550(16) 0.1472(12) -0.2801(10)
H12 H 0.5616 0.2057 -0.2920
C16 C 0.3920(17) 0.0017(12) -0.1477(10)
C17 C 0.3138(18) -0.0968(12) -0.1713(11)
H13 H 0.3111 -0.1452 -0.2245
C18 C 0.2416(17) -0.1219(12) -0.1163(12)
H14 H 0.1909 -0.1886 -0.1334
C19 C 0.3157(17) 0.0356(13) -0.0150(12)
H15 H 0.3178 0.0816 0.0397
C20 C 0.3938(18) 0.0686(12) -0.0666(12)
H16 H 0.4466 0.1352 -0.0465
N4 N 0.2383(14) -0.0583(10) -0.0402(10)
N5 N 0.0853(14) -0.2491(9) 0.0112(10)
C21 C 0.160(2) -0.2749(14) 0.0670(15)
H17 H 0.2362 -0.2261 0.1105
C22 C 0.1313(17) -0.3730(16) 0.0655(13)
H18 H 0.1885 -0.3874 0.1074
C23 C 0.0186(15) -0.4486(11) 0.0019(11)
C24 C -0.0550(18) -0.4206(13) -0.0586(14)
H19 H -0.1287 -0.4683 -0.1059
C25 C -0.0207(19) -0.3173(13) -0.0507(13)
H20 H -0.0756 -0.2993 -0.0907
N6 N 1.0541(14) -0.0473(10) -0.8678(10)
C26 C 1.114(2) 0.0413(14) -0.7950(16)
H21 H 1.1922 0.0845 -0.7946
C27 C 1.0672(17) 0.0703(13) -0.7225(13)
H22 H 1.1124 0.1317 -0.6746
C28 C 0.9490(16) 0.0065(11) -0.7205(11)
C29 C 0.8856(17) -0.0847(12) -0.7971(12)
H23 H 0.8063 -0.1289 -0.8008
C30 C 0.9432(15) -0.1076(12) -0.8668(11)
H24 H 0.9015 -0.1687 -0.9155
C31 C 0.8921(17) 0.0345(12) -0.6459(12)
C32 C 0.829(2) -0.0346(12) -0.6101(13)
H25 H 0.8234 -0.1002 -0.6330
C33 C 0.7749(17) -0.0062(13) -0.5421(13)
H26 H 0.7378 -0.0525 -0.5168
C34 C 0.8325(18) 0.1526(13) -0.5430(12)
H27 H 0.8356 0.2176 -0.5198
C35 C 0.8889(17) 0.1271(11) -0.6106(13)
H28 H 0.9269 0.1753 -0.6336
N7 N 0.7732(14) 0.0857(10) -0.5100(10)
Cu1_2 Cu 1.7128(2) 0.13152(17) -1.40156(16)
Cu1_3 Cu -0.2872(2) 0.13152(17) 0.59844(16)
Cu2_2 Cu 1.1307(2) -0.09593(17) -0.96277(16)
Cu2A Cu -0.1307(2) -0.90407(17) -0.03723(16)
N1_2 N 2.4469(16) 0.6743(12) -1.0277(11)
C1_2 C 2.410(2) 0.5894(16) -1.0095(16)
H1_2 H 2.4602 0.5868 -0.9552
C2_2 C 2.3032(19) 0.5069(15) -1.0655(13)
H2_2 H 2.2843 0.4498 -1.0501
C3_2 C 2.2215(18) 0.5095(13) -1.1475(13)
C4_2 C 2.2625(18) 0.5986(12) -1.1636(13)
H3_2 H 2.2132 0.6059 -1.2155
C5_2 C 2.371(2) 0.6735(16) -1.1064(15)
H4_2 H 2.3954 0.7298 -1.1227
C6_2 C 2.1016(16) 0.4256(12) -1.2053(12)
C7_2 C 2.0790(19) 0.3298(15) -1.2030(14)
H5_2 H 2.1409 0.3174 -1.1628
C8_2 C 1.9656(19) 0.2545(13) -1.2602(15)
H6_2 H 1.9551 0.1909 -1.2595
C9_2 C 1.8886(18) 0.3570(13) -1.3207(12)
H7_2 H 1.8254 0.3671 -1.3622
C10_2 C 1.9989(19) 0.4353(12) -1.2650(13)
H8_2 H 2.0061 0.4981 -1.2670
N2_2 N 1.8687(13) 0.2659(10) -1.3171(10)
N3_2 N 1.6107(13) 0.0897(10) -1.3215(10)
C11_2 C 1.5952(18) 0.0027(13) -1.3090(13)
H9_2 H 1.6336 -0.0388 -1.3386
C12_2 C 1.524(2) -0.0268(15) -1.2535(15)
H10_2 H 1.5116 -0.0890 -1.2482
C13_2 C 1.4722(17) 0.0335(11) -1.2068(11)
C14_2 C 1.4867(17) 0.1247(12) -1.2194(12)
H11_2 H 1.4522 0.1684 -1.1885
C15_2 C 1.5550(16) 0.1472(12) -1.2801(10)
H12_2 H 1.5616 0.2057 -1.2920
C16_2 C 1.3920(17) 0.0017(12) -1.1477(10)
C17_2 C 1.3138(18) -0.0968(12) -1.1713(11)
H13_2 H 1.3111 -0.1452 -1.2245
C18_2 C 1.2416(17) -0.1219(12) -1.1163(12)
H14_2 H 1.1909 -0.1886 -1.1334
C19_2 C 1.3157(17) 0.0356(13) -1.0150(12)
H15_2 H 1.3178 0.0816 -0.9603
C20_2 C 1.3938(18) 0.0686(12) -1.0666(12)
H16_2 H 1.4466 0.1352 -1.0465
N4_2 N 1.2383(14) -0.0583(10) -1.0402(10)
N5A N -0.0853(14) -0.7509(9) -0.0112(10)
N5_2 N 1.0853(14) -0.2491(9) -0.9888(10)
C21A C -0.160(2) -0.7251(14) -0.0670(15)
H17A H -0.2362 -0.7739 -0.1105
C22A C -0.1313(17) -0.6270(16) -0.0655(13)
H18A H -0.1885 -0.6126 -0.1074
C23A C -0.0186(15) -0.5514(11) -0.0019(11)
C24A C 0.0550(18) -0.5794(13) 0.0586(14)
H19A H 0.1287 -0.5317 0.1059
C25A C 0.0207(19) -0.6827(13) 0.0507(13)
H20A H 0.0756 -0.7007 0.0907
N6_2 N 0.0541(14) -0.0473(10) 0.1322(10)
C26_2 C 0.114(2) 0.0413(14) 0.2050(16)
H21_2 H 0.1922 0.0845 0.2054
C27_2 C 0.0672(17) 0.0703(13) 0.2775(13)
H22_2 H 0.1124 0.1317 0.3254
C28_2 C -0.0510(16) 0.0065(11) 0.2795(11)
C29_2 C -0.1144(17) -0.0847(12) 0.2029(12)
H23_2 H -0.1937 -0.1289 0.1992
C30_2 C -0.0568(15) -0.1076(12) 0.1332(11)
H24_2 H -0.0985 -0.1687 0.0845
C31_2 C -0.1079(17) 0.0345(12) 0.3541(12)
C32_2 C -0.171(2) -0.0346(12) 0.3899(13)
H25_2 H -0.1766 -0.1002 0.3670
C33_2 C -0.2251(17) -0.0062(13) 0.4579(13)
H26_2 H -0.2622 -0.0525 0.4832
C34_2 C -0.1675(18) 0.1526(13) 0.4570(12)
H27_2 H -0.1644 0.2176 0.4802
C35_2 C -0.1111(17) 0.1271(11) 0.3894(13)
H28_2 H -0.0731 0.1753 0.3664
N7_2 N -0.2268(14) 0.0857(10) 0.4900(10)
N7_3 N 1.7732(14) 0.0857(10) -1.5100(10)
O23 O 0.342(4) 0.286(2) 0.795(3)
O24 O 0.2887(16) 0.3013(15) 0.0164(14)
W1 W 0.82341(6) 0.61569(5) 0.65276(5)
W2 W 0.57601(7) 0.69607(4) 0.71181(4)
W3 W 0.49512(7) 0.73265(5) 0.49611(5)
W4 W 0.74818(6) 0.41952(5) 0.44032(5)
W5 W 0.74296(6) 0.65237(5) 0.43613(5)
W6 W 0.58051(7) 0.46362(5) 0.71663(5)
Si1 Si 0.5000 0.5000 0.5000
O1 O 0.4699(16) 0.5895(9) 0.5472(11)
O2 O 0.4714(17) 0.4259(10) 0.5505(10)
O5 O 0.7454(16) 0.7037(11) 0.7077(13)
O6 O 0.7473(16) 0.5295(10) 0.7116(13)
O7 O 0.6030(13) 0.5923(12) 0.3212(11)
O8 O 0.5751(13) 0.7660(11) 0.6249(10)
O9 O 0.5672(15) 0.5875(12) 0.7576(14)
O10 O 0.3921(13) 0.6521(12) 0.6737(9)
O11 O 0.6586(12) 0.7431(13) 0.4796(10)
O12 O 0.5811(13) 0.3451(13) 0.6342(11)
O13 O 0.8319(19) 0.6780(10) 0.5611(9)
O14 O 0.8347(19) 0.5056(10) 0.5674(8)
O15 O 0.9781(12) 0.6713(9) 0.7266(9)
O16 O 0.7725(18) 0.5347(10) 0.4042(9)
O17 O 0.8621(16) 0.3760(12) 0.4125(10)
O18 O 0.6206(13) 0.4467(10) 0.8188(9)
O19 O 0.4900(13) 0.8435(9) 0.4909(10)
O20 O 0.6124(13) 0.7915(9) 0.8134(9)
O21 O 0.8560(14) 0.7266(10) 0.4057(9)
O22 O 0.6650(13) 0.3211(13) 0.4884(10)
W1A W 0.17659(6) 0.38431(5) 0.34724(5)
W2A W 0.42399(7) 0.30393(4) 0.28819(4)
W3A W 0.50488(7) 0.26735(5) 0.50389(5)
W4A W 0.25182(6) 0.58048(5) 0.55968(5)
W5A W 0.25704(6) 0.34763(5) 0.56387(5)
W6A W 0.41949(7) 0.53638(5) 0.28337(5)
O1A O 0.5301(16) 0.4105(9) 0.4528(11)
O2A O 0.5286(17) 0.5741(10) 0.4495(10)
O5A O 0.2546(16) 0.2963(11) 0.2923(13)
O6A O 0.2527(16) 0.4705(10) 0.2884(13)
O7A O 0.3970(13) 0.4077(12) 0.6788(11)
O8A O 0.4249(13) 0.2340(11) 0.3751(10)
O9A O 0.4328(15) 0.4125(12) 0.2424(14)
O10A O 0.6079(13) 0.3479(12) 0.3263(9)
O11A O 0.3414(12) 0.2569(13) 0.5204(10)
O12A O 0.4189(13) 0.6549(13) 0.3658(11)
O13A O 0.1681(19) 0.3220(10) 0.4389(9)
O14A O 0.1653(19) 0.4944(10) 0.4326(8)
O15A O 0.0219(12) 0.3287(9) 0.2734(9)
O16A O 0.2275(18) 0.4653(10) 0.5958(9)
O17A O 0.1379(16) 0.6240(12) 0.5875(10)
O18A O 0.3794(13) 0.5533(10) 0.1812(9)
O19A O 0.5100(13) 0.1565(9) 0.5091(10)
O20A O 0.3876(13) 0.2085(9) 0.1866(9)
O21A O 0.1440(14) 0.2734(10) 0.5943(9)
O22A O 0.3350(13) 0.6789(13) 0.5116(10)
O3? O 0.4161(14) 0.4498(11) 0.3980(6)
O4? O 0.6427(9) 0.5335(12) 0.5053(11)
loop_
_geom_bond_atom_site_label_1
_geom_bond_atom_site_label_2
_geom_bond_site_symmetry_1
_geom_bond_site_symmetry_2
W1 O5 1_555 1_555
W2 O1 1_555 1_555
W3 O1 1_555 1_555
W4 O14 1_555 1_555
W5 O7 1_555 1_555
W6 O2 1_555 1_555
Si1 O1 1_555 1_555
O1 W4A 1_555 1_555
O2 Si1 1_555 1_555
O5 W2 1_555 1_555
O6 W1 1_555 1_555
O7 W6A 1_555 1_555
O8 W2 1_555 1_555
O9 W2 1_555 1_555
O10 W2 1_555 1_555
O11 W3 1_555 1_555
O12 W6 1_555 1_555
O13 W1 1_555 1_555
O14 W1 1_555 1_555
O15 W1 1_555 1_555
O16 W4 1_555 1_555
O17 W4 1_555 1_555
O18 W6 1_555 1_555
O19 W3 1_555 1_555
O20 W2 1_555 1_555
O21 W5 1_555 1_555
O22 W4 1_555 1_555
Cu1 N2 1_555 1_555
Cu2 N4 1_555 1_555
N1 C1 1_555 1_555
C1 H1 1_555 1_555
C2 C1 1_555 1_555
H2 C2 1_555 1_555
C3 C2 1_555 1_555
C4 C3 1_555 1_555
H3 C4 1_555 1_555
C5 N1 1_555 1_555
H4 C5 1_555 1_555
C6 C3 1_555 1_555
C7 C6 1_555 1_555
H5 C7 1_555 1_555
C8 C7 1_555 1_555
H6 C8 1_555 1_555
C9 H7 1_555 1_555
C10 C6 1_555 1_555
H8 C10 1_555 1_555
N2 C8 1_555 1_555
N3 Cu1 1_555 1_555
C11 N3 1_555 1_555
H9 C11 1_555 1_555
C12 C11 1_555 1_555
H10 C12 1_555 1_555
C13 C12 1_555 1_555
C14 C13 1_555 1_555
H11 C14 1_555 1_555
C15 N3 1_555 1_555
H12 C15 1_555 1_555
C16 C13 1_555 1_555
C17 C16 1_555 1_555
H13 C17 1_555 1_555
C18 C17 1_555 1_555
H14 C18 1_555 1_555
C19 H15 1_555 1_555
C20 C16 1_555 1_555
H16 C20 1_555 1_555
N4 C18 1_555 1_555
N5 Cu2 1_555 1_555
C21 N5 1_555 1_555
H17 C21 1_555 1_555
C22 C21 1_555 1_555
H18 C22 1_555 1_555
C23 C22 1_555 1_555
C24 C23 1_555 1_555
H19 C24 1_555 1_555
C25 N5 1_555 1_555
H20 C25 1_555 1_555
N6 C26 1_555 1_555
C26 H21 1_555 1_555
C27 C26 1_555 1_555
H22 C27 1_555 1_555
C28 C27 1_555 1_555
C29 C28 1_555 1_555
H23 C29 1_555 1_555
C30 N6 1_555 1_555
H24 C30 1_555 1_555
C31 C28 1_555 1_555
C32 C31 1_555 1_555
H25 C32 1_555 1_555
C33 C32 1_555 1_555
H26 C33 1_555 1_555
C34 H27 1_555 1_555
C35 C31 1_555 1_555
H28 C35 1_555 1_555
N7 Cu1 1_555 1_555
W1A O5A 1_555 1_555
W2A O1A 1_555 1_555
W3A O2 1_555 1_555
W4A O10 1_555 1_555
W5A O2 1_555 1_555
W6A O2A 1_555 1_555
O1A W4 1_555 1_555
O2A W3 1_555 1_555
O5A W2A 1_555 1_555
O6A W1A 1_555 1_555
O7A W6 1_555 1_555
O8A W2A 1_555 1_555
O9A W2A 1_555 1_555
O10A W4 1_555 1_555
O11A W3A 1_555 1_555
O12A W3 1_555 1_555
O13A W1A 1_555 1_555
O14A W1A 1_555 1_555
O15A W1A 1_555 1_555
O16A W4A 1_555 1_555
O17A W4A 1_555 1_555
O18A W6A 1_555 1_555
O19A W3A 1_555 1_555
O20A W2A 1_555 1_555
O21A W5A 1_555 1_555
O22A W3 1_555 1_555
Cu1_2 N2_2 1_555 1_555
Cu1_3 N7_2 1_555 1_555
Cu2_2 N6 1_555 1_555
Cu2A N5A 1_555 1_555
N1_2 C1_2 1_555 1_555
C1_2 H1_2 1_555 1_555
C2_2 C1_2 1_555 1_555
H2_2 C2_2 1_555 1_555
C3_2 C2_2 1_555 1_555
C4_2 C3_2 1_555 1_555
H3_2 C4_2 1_555 1_555
C5_2 N1_2 1_555 1_555
H4_2 C5_2 1_555 1_555
C6_2 C3_2 1_555 1_555
C7_2 C6_2 1_555 1_555
H5_2 C7_2 1_555 1_555
C8_2 C7_2 1_555 1_555
H6_2 C8_2 1_555 1_555
C9_2 H7_2 1_555 1_555
C10_2 C6_2 1_555 1_555
H8_2 C10_2 1_555 1_555
N2_2 C8_2 1_555 1_555
N3_2 Cu1_2 1_555 1_555
C11_2 N3_2 1_555 1_555
H9_2 C11_2 1_555 1_555
C12_2 C11_2 1_555 1_555
H10_2 C12_2 1_555 1_555
C13_2 C12_2 1_555 1_555
C14_2 C13_2 1_555 1_555
H11_2 C14_2 1_555 1_555
C15_2 N3_2 1_555 1_555
H12_2 C15_2 1_555 1_555
C16_2 C13_2 1_555 1_555
C17_2 C16_2 1_555 1_555
H13_2 C17_2 1_555 1_555
C18_2 C17_2 1_555 1_555
H14_2 C18_2 1_555 1_555
C19_2 H15_2 1_555 1_555
C20_2 C16_2 1_555 1_555
H16_2 C20_2 1_555 1_555
N4_2 Cu2_2 1_555 1_555
N5A C21A 1_555 1_555
N5_2 Cu2_2 1_555 1_555
C21A H17A 1_555 1_555
C22A C21A 1_555 1_555
H18A C22A 1_555 1_555
C23A C23 1_555 1_555
C24A C23A 1_555 1_555
H19A C24A 1_555 1_555
C25A N5A 1_555 1_555
H20A C25A 1_555 1_555
N6_2 Cu2 1_555 1_555
C26_2 N6_2 1_555 1_555
H21_2 C26_2 1_555 1_555
C27_2 C26_2 1_555 1_555
H22_2 C27_2 1_555 1_555
C28_2 C27_2 1_555 1_555
C29_2 C28_2 1_555 1_555
H23_2 C29_2 1_555 1_555
C30_2 N6_2 1_555 1_555
H24_2 C30_2 1_555 1_555
C31_2 C28_2 1_555 1_555
C32_2 C31_2 1_555 1_555
H25_2 C32_2 1_555 1_555
C33_2 C32_2 1_555 1_555
H26_2 C33_2 1_555 1_555
C34_2 H27_2 1_555 1_555
C35_2 C31_2 1_555 1_555
H28_2 C35_2 1_555 1_555
N7_2 C33_2 1_555 1_555
N7_3 Cu1_2 1_555 1_555
W3 O8 1_555 1_555
W5 O11 1_555 1_555
W5 O13 1_555 1_555
W5 O16 1_555 1_555
W5 O2A 1_555 1_555
W6 O6 1_555 1_555
W6 O9 1_555 1_555
Si1 O1A 1_555 1_555
Si1 O2A 1_555 1_555
O12 W3A 1_555 1_555
O22 W3A 1_555 1_555
C4 C5 1_555 1_555
C9 C10 1_555 1_555
C9 N2 1_555 1_555
C14 C15 1_555 1_555
C19 C20 1_555 1_555
C19 N4 1_555 1_555
C24 C25 1_555 1_555
C29 C30 1_555 1_555
C33 N7 1_555 1_555
C34 C35 1_555 1_555
C34 N7 1_555 1_555
W2A O10A 1_555 1_555
W3A O1A 1_555 1_555
W3A O8A 1_555 1_555
W4A O14A 1_555 1_555
W4A O22A 1_555 1_555
W5A O7A 1_555 1_555
W5A O11A 1_555 1_555
W5A O13A 1_555 1_555
W5A O16A 1_555 1_555
W6A O6A 1_555 1_555
W6A O9A 1_555 1_555
W6A O12A 1_555 1_555
C4_2 C5_2 1_555 1_555
C9_2 C10_2 1_555 1_555
C9_2 N2_2 1_555 1_555
C14_2 C15_2 1_555 1_555
C18_2 N4_2 1_555 1_555
C19_2 C20_2 1_555 1_555
C19_2 N4_2 1_555 1_555
C22A C23A 1_555 1_555
C24A C25A 1_555 1_555
C29_2 C30_2 1_555 1_555
C34_2 C35_2 1_555 1_555
C34_2 N7_2 1_555 1_555

#END
