
#######################################################################
#
#                 Cambridge Crystallographic Data Centre
#                                CCDC 
#
#######################################################################
#
# If this CIF has been generated from an entry in the Cambridge 
# Structural Database, then it will include bibliographic, chemical, 
# crystal, experimental, refinement or atomic coordinate data resulting 
# from the CCDC's data processing and validation procedures.
#
#######################################################################

data_VEWHOV
_symmetry_cell_setting           orthorhombic
_symmetry_space_group_name_H-M   'P n n m'
_symmetry_Int_Tables_number      58
_space_group_name_Hall           '-P 2 2n'
loop_
_symmetry_equiv_pos_site_id
_symmetry_equiv_pos_as_xyz
1 x,y,z
2 -x,-y,z
3 1/2-x,1/2+y,1/2-z
4 1/2+x,1/2-y,1/2-z
5 -x,-y,-z
6 x,y,-z
7 1/2+x,1/2-y,1/2+z
8 1/2-x,1/2+y,1/2+z
_cell_length_a                   13.0496(19)
_cell_length_b                   7.6620(10)
_cell_length_c                   11.2523(16)
_cell_angle_alpha                90
_cell_angle_beta                 90
_cell_angle_gamma                90
_cell_volume                     1125.07
loop_
_atom_site_label
_atom_site_type_symbol
_atom_site_fract_x
_atom_site_fract_y
_atom_site_fract_z
Cu1 Cu 0.60563(9) 0.19862(15) 0.5000
Cu2 Cu 0.83458(12) 0.45772(16) 0.5000
Cu3 Cu 0.5000 0.5000 0.31993(11)
Cu4 Cu 0.50904(11) 0.31815(17) 1.0000
Cl1 Cl 0.63237(18) 0.5216(3) 0.5000
Cl2 Cl 0.8389(2) 0.1456(3) 0.5000
N1 N 0.5543(4) 0.2787(6) 0.7393(4)
N2 N 0.5966(3) 0.1579(6) 0.6662(4)
N3 N 0.5687(4) 0.2276(6) 0.8498(4)
N4 N 0.6197(4) 0.0756(6) 0.8500(4)
C1 C 0.6357(4) 0.0343(7) 0.7368(5)
C2 C 0.6901(5) -0.1230(8) 0.6949(5)
H1 H 0.7108 -0.1919 0.7620
H2 H 0.6453 -0.1904 0.6451
H3 H 0.7495 -0.0889 0.6503
Cu2G Cu 0.66542(12) -0.04228(16) 1.0000
Cu2G_2 Cu 0.66542(12) -0.04228(16) 0.0000
Cu3E Cu 0.5000 0.5000 0.68007(11)
Cu4F Cu 1.00904(11) 0.18185(17) 0.5000
Cu4_2 Cu 0.50904(11) 0.31815(17) 0.0000
Cl1D Cl 0.36763(18) 0.4784(3) 0.5000
Cl2F Cl 0.3389(2) 0.3544(3) 1.0000
N1E N 0.5543(4) 0.2787(6) 0.2607(4)
N1D N 0.4457(4) 0.7213(6) 0.2607(4)
N2E N 0.5966(3) 0.1579(6) 0.3338(4)
N3E N 0.5687(4) 0.2276(6) 0.1502(4)
N3E_2 N 0.5687(4) 0.2276(6) 1.1502(4)
N4E N 0.6197(4) 0.0756(6) 0.1500(4)
N4G N 0.8803(4) 0.5756(6) 0.3500(4)
N4B N 0.8803(4) 0.5756(6) 0.6500(4)
C1E C 0.6357(4) 0.0343(7) 0.2632(5)
C2E C 0.6901(5) -0.1230(8) 0.3051(5)
H1E H 0.7108 -0.1919 0.2380
H2E H 0.6453 -0.1904 0.3549
H3E H 0.7495 -0.0889 0.3497
loop_
_geom_bond_atom_site_label_1
_geom_bond_atom_site_label_2
_geom_bond_site_symmetry_1
_geom_bond_site_symmetry_2
Cu1 Cl1 1_555 1_555
Cu2 Cl1 1_555 1_555
Cu3 Cl1 1_555 1_555
Cu4 N3 1_555 1_555
Cl1 Cu3E 1_555 1_555
Cl2 Cu2 1_555 1_555
N1 N2 1_555 1_555
N2 Cu1 1_555 1_555
N3 N1 1_555 1_555
N4 N3 1_555 1_555
C1 N2 1_555 1_555
C2 C1 1_555 1_555
H1 C2 1_555 1_555
H2 C2 1_555 1_555
H3 C2 1_555 1_555
Cu2G N4 1_555 1_555
Cu2G_2 N4E 1_555 1_555
Cu3E N1 1_555 1_555
Cu4F Cl2 1_555 1_555
Cu4_2 N3E 1_555 1_555
Cl1D Cu3 1_555 1_555
Cl2F Cu4 1_555 1_555
N1E Cu3 1_555 1_555
N1D Cu3 1_555 1_555
N2E Cu1 1_555 1_555
N3E N1E 1_555 1_555
N3E_2 Cu4 1_555 1_555
N4E N3E 1_555 1_555
N4G Cu2 1_555 1_555
N4B Cu2 1_555 1_555
C1E N2E 1_555 1_555
C2E C1E 1_555 1_555
H1E C2E 1_555 1_555
H2E C2E 1_555 1_555
H3E C2E 1_555 1_555
N4 C1 1_555 1_555
Cu3E Cl1D 1_555 1_555
N1E N2E 1_555 1_555
N4E C1E 1_555 1_555

#END
