
#######################################################################
#
#                 Cambridge Crystallographic Data Centre
#                                CCDC 
#
#######################################################################
#
# If this CIF has been generated from an entry in the Cambridge 
# Structural Database, then it will include bibliographic, chemical, 
# crystal, experimental, refinement or atomic coordinate data resulting 
# from the CCDC's data processing and validation procedures.
#
#######################################################################

data_VEWHIQ
_symmetry_cell_setting           tetragonal
_symmetry_space_group_name_H-M   'P 4/n n c'
_symmetry_Int_Tables_number      126
_space_group_name_Hall           '-P 4a 2bc'
loop_
_symmetry_equiv_pos_site_id
_symmetry_equiv_pos_as_xyz
1 x,y,z
2 1/2-y,x,z
3 y,1/2-x,z
4 x,1/2-y,1/2-z
5 1/2-x,y,1/2-z
6 1/2-x,1/2-y,z
7 y,x,1/2-z
8 1/2-y,1/2-x,1/2-z
9 -x,-y,-z
10 1/2+y,-x,-z
11 -y,1/2+x,-z
12 -x,1/2+y,1/2+z
13 1/2+x,-y,1/2+z
14 1/2+x,1/2+y,-z
15 -y,-x,1/2+z
16 1/2+y,1/2+x,1/2+z
_cell_length_a                   11.7055(6)
_cell_length_b                   11.7055(6)
_cell_length_c                   7.3291(4)
_cell_angle_alpha                90
_cell_angle_beta                 90
_cell_angle_gamma                90
_cell_volume                     1004.22
loop_
_atom_site_label
_atom_site_type_symbol
_atom_site_fract_x
_atom_site_fract_y
_atom_site_fract_z
Zn1 Zn 0.7500 0.2500 0.0000
F1 F 0.7500 0.7500 0.0314(3)
N1 N 0.7500 0.56484(18) -0.2500
N2 N 0.72594(14) 0.38330(13) -0.1616(2)
N3 N 0.6714(2) 0.52924(17) 0.0438(3)
H1 H 0.6494 0.4794 0.1264
H2 H 0.6656 0.6029 0.0660
C1 C 0.71426(19) 0.49272(16) -0.1173(2)
Zn2 Zn 0.7500 0.7500 -0.2500
N2D N 0.77406(14) 0.38330(13) -0.3384(2)
N3D N 0.8286(2) 0.52924(17) -0.5438(3)
H1D H 0.8506 0.4794 -0.6264
H2D H 0.8344 0.6029 -0.5660
C1D C 0.78574(19) 0.49272(16) -0.3827(2)
Zn1A Zn 1.2500 0.7500 0.0000
N1A N 0.93516(18) 0.7500 -0.2500
N2A N 1.11670(13) 0.72594(14) -0.1616(2)
N3A N 0.97076(17) 0.6714(2) 0.0438(3)
H1A H 1.0206 0.6494 0.1264
H2A H 0.8971 0.6656 0.0660
C1A C 1.00728(16) 0.71426(19) -0.1173(2)
N2G N 1.11670(13) 0.77406(14) -0.3384(2)
N3G N 0.97076(17) 0.8286(2) -0.5438(3)
H1G H 1.0206 0.8506 -0.6264
H2G H 0.8971 0.8344 -0.5660
C1G C 1.00728(16) 0.78574(19) -0.3827(2)
N1B N 0.56484(18) 0.7500 -0.2500
N2B N 0.38330(13) 0.77406(14) -0.1616(2)
N3B N 0.52924(17) 0.8286(2) 0.0438(3)
H1B H 0.4794 0.8506 0.1264
H2B H 0.6029 0.8344 0.0660
C1B C 0.49272(16) 0.78574(19) -0.1173(2)
N2F N 0.38330(13) 0.72594(14) -0.3384(2)
N3F N 0.52924(17) 0.6714(2) -0.5438(3)
H1F H 0.4794 0.6494 -0.6264
H2F H 0.6029 0.6656 -0.5660
C1F C 0.49272(16) 0.71426(19) -0.3827(2)
F1C F 0.7500 0.7500 -0.5314(3)
N1C N 0.7500 0.93516(18) -0.2500
N2C N 0.72594(14) 1.11670(13) -0.3384(2)
N3C N 0.6714(2) 0.97076(17) -0.5438(3)
H1C H 0.6494 1.0206 -0.6264
H2C H 0.6656 0.8971 -0.5660
C1C C 0.71426(19) 1.00728(16) -0.3827(2)
N2E N 0.77406(14) 1.11670(13) -0.1616(2)
N3E N 0.8286(2) 0.97076(17) 0.0438(3)
H1E H 0.8506 1.0206 0.1264
H2E H 0.8344 0.8971 0.0660
C1E C 0.78574(19) 1.00728(16) -0.1173(2)
Zn1_2 Zn 0.7500 1.2500 0.0000
Zn1A_2 Zn 0.2500 0.7500 0.0000
Zn1C Zn 0.7500 0.2500 -0.5000
Zn1C_2 Zn 0.7500 1.2500 -0.5000
Zn1F Zn 0.2500 0.7500 -0.5000
Zn1F_2 Zn 1.2500 0.7500 -0.5000
N2B_2 N 1.38330(13) 0.77406(14) -0.1616(2)
N2E_2 N 0.77406(14) 0.11670(13) -0.1616(2)
N2H N 1.27406(14) 0.61670(13) 0.1616(2)
N2I N 0.88330(13) 0.27406(14) 0.1616(2)
N2J N 0.61670(13) 0.22594(14) 0.1616(2)
N2M N 1.22594(14) 0.88330(13) 0.1616(2)
loop_
_geom_bond_atom_site_label_1
_geom_bond_atom_site_label_2
_geom_bond_site_symmetry_1
_geom_bond_site_symmetry_2
Zn1 N2 1_555 1_555
F1 Zn2 1_555 1_555
N1 C1 1_555 1_555
N2 C1 1_555 1_555
N3 H1 1_555 1_555
H2 N3 1_555 1_555
C1 N3 1_555 1_555
Zn2 N1 1_555 1_555
N2D N2 1_555 1_555
N3D H1D 1_555 1_555
H2D N3D 1_555 1_555
C1D N1 1_555 1_555
Zn1A N2A 1_555 1_555
N1A Zn2 1_555 1_555
N2A C1A 1_555 1_555
N3A H1A 1_555 1_555
H2A N3A 1_555 1_555
C1A N1A 1_555 1_555
N2G N2A 1_555 1_555
N3G H1G 1_555 1_555
H2G N3G 1_555 1_555
C1G N1A 1_555 1_555
N1B Zn2 1_555 1_555
N2B C1B 1_555 1_555
N3B H1B 1_555 1_555
H2B N3B 1_555 1_555
C1B N1B 1_555 1_555
N2F N2B 1_555 1_555
N3F H1F 1_555 1_555
H2F N3F 1_555 1_555
C1F N1B 1_555 1_555
F1C Zn2 1_555 1_555
N1C Zn2 1_555 1_555
N2C C1C 1_555 1_555
N3C H1C 1_555 1_555
H2C N3C 1_555 1_555
C1C N1C 1_555 1_555
N2E N2C 1_555 1_555
N3E H1E 1_555 1_555
H2E N3E 1_555 1_555
C1E N1C 1_555 1_555
Zn1_2 N2E 1_555 1_555
Zn1A_2 N2B 1_555 1_555
Zn1C N2D 1_555 1_555
Zn1C_2 N2C 1_555 1_555
Zn1F N2F 1_555 1_555
Zn1F_2 N2G 1_555 1_555
N2B_2 Zn1A 1_555 1_555
N2E_2 Zn1 1_555 1_555
N2H Zn1A 1_555 1_555
N2I Zn1 1_555 1_555
N2J Zn1 1_555 1_555
N2M Zn1A 1_555 1_555
N2D C1D 1_555 1_555
N3D C1D 1_555 1_555
N3A C1A 1_555 1_555
N2G C1G 1_555 1_555
N3G C1G 1_555 1_555
N3B C1B 1_555 1_555
N2F C1F 1_555 1_555
N3F C1F 1_555 1_555
N3C C1C 1_555 1_555
N2E C1E 1_555 1_555
N3E C1E 1_555 1_555

#END
