
#######################################################################
#
#                 Cambridge Crystallographic Data Centre
#                                CCDC 
#
#######################################################################
#
# If this CIF has been generated from an entry in the Cambridge 
# Structural Database, then it will include bibliographic, chemical, 
# crystal, experimental, refinement or atomic coordinate data resulting 
# from the CCDC's data processing and validation procedures.
#
#######################################################################

data_VEWKOZ
_symmetry_cell_setting           triclinic
_symmetry_space_group_name_H-M   'P -1'
_symmetry_Int_Tables_number      2
_space_group_name_Hall           '-P 1'
loop_
_symmetry_equiv_pos_site_id
_symmetry_equiv_pos_as_xyz
1 x,y,z
2 -x,-y,-z
_cell_length_a                   10.7882(15)
_cell_length_b                   13.0533(18)
_cell_length_c                   13.0557(18)
_cell_angle_alpha                86.458(2)
_cell_angle_beta                 87.243(2)
_cell_angle_gamma                79.259(2)
_cell_volume                     1801.61
loop_
_atom_site_label
_atom_site_type_symbol
_atom_site_fract_x
_atom_site_fract_y
_atom_site_fract_z
O1 O 0.7840(6) 0.4058(5) 0.0054(3)
H1 H 0.7462 0.4553 -0.0335
H2 H 0.8550 0.3802 -0.0224
C1 C 0.60563(17) 0.68206(14) 0.55515(14)
H3 H 0.6860 0.6481 0.5354
C2 C 0.55460(17) 0.77390(14) 0.50136(14)
H4 H 0.6017 0.8013 0.4485
C3 C 0.43247(16) 0.82524(13) 0.52655(13)
C4 C 0.36915(17) 0.78026(14) 0.60850(14)
H5 H 0.2875 0.8112 0.6284
C5 C 0.42803(17) 0.68965(14) 0.65991(15)
H6 H 0.3845 0.6619 0.7149
C6 C 0.37088(16) 0.91977(13) 0.46543(14)
C7 C 0.40637(16) 0.93283(13) 0.36168(14)
H7 H 0.4720 0.8858 0.3324
C8 C 0.34251(16) 1.01678(13) 0.30278(13)
C9 C 0.24259(16) 1.08681(13) 0.34452(14)
H8 H 0.2000 1.1419 0.3037
C10 C 0.20652(16) 1.07418(13) 0.44787(14)
C11 C 0.27215(16) 0.99147(14) 0.50853(14)
H9 H 0.2501 0.9840 0.5780
C12 C 0.09438(16) 1.14664(14) 0.48997(14)
C13 C 0.06408(18) 1.25094(14) 0.45321(15)
H10 H 0.1173 1.2786 0.4054
C14 C -0.04700(19) 1.31257(15) 0.48931(15)
H11 H -0.0664 1.3816 0.4638
C15 C -0.09635(18) 1.17932(15) 0.59602(15)
H12 H -0.1501 1.1546 0.6455
C16 C 0.01251(17) 1.11174(14) 0.56453(14)
H13 H 0.0305 1.0438 0.5930
C17 C 0.48507(16) 0.98636(13) 0.15766(13)
C18 C 0.49108(16) 0.90247(13) 0.09679(13)
H14 H 0.4192 0.8749 0.0874
C19 C 0.60669(16) 0.85942(13) 0.04944(13)
C20 C 0.71298(16) 0.90325(14) 0.06461(13)
H15 H 0.7901 0.8747 0.0337
C21 C 0.70545(17) 0.98902(14) 0.12525(14)
C22 C 0.58964(17) 1.03081(14) 0.17255(14)
H16 H 0.5827 1.0876 0.2134
C23 C 0.61554(16) 0.77070(13) -0.01855(13)
C24 C 0.52515(17) 0.70596(14) -0.01501(14)
H17 H 0.4577 0.7162 0.0327
C25 C 0.53631(16) 0.62655(14) -0.08267(14)
H18 H 0.4753 0.5845 -0.0786
C26 C 0.71891(17) 0.66859(14) -0.15566(15)
H19 H 0.7861 0.6559 -0.2034
C27 C 0.71533(17) 0.74872(14) -0.09115(14)
H20 H 0.7790 0.7882 -0.0958
C28 C 0.81900(17) 1.03693(15) 0.13547(14)
C29 C 0.93977(19) 0.97654(16) 0.14507(16)
H21 H 0.9508 0.9041 0.1475
C30 C 1.0430(2) 1.02488(18) 0.15088(18)
H22 H 1.1223 0.9830 0.1574
C31 C 0.9191(2) 1.18651(18) 0.1381(2)
H23 H 0.9112 1.2588 0.1354
C32 C 0.8099(2) 1.14523(17) 0.13192(19)
H24 H 0.7318 1.1892 0.1255
C33 C 0.87595(16) 0.45793(13) 0.72005(14)
C34 C 1.01935(16) 0.43618(14) 0.71410(14)
H25 H 1.0457 0.4426 0.6415
C35 C 1.08188(16) 0.32765(14) 0.75588(16)
H26 H 1.0493 0.2745 0.7222
H27 H 1.0627 0.3200 0.8290
C36 C 1.22527(16) 0.31363(14) 0.73621(15)
H28 H 1.2647 0.2449 0.7630
H29 H 1.2438 0.3177 0.6628
C37 C 1.28139(16) 0.39655(14) 0.78649(14)
H30 H 1.2680 0.3866 0.8609
C38 C 1.21302(16) 0.50757(14) 0.75417(17)
H31 H 1.2427 0.5576 0.7943
H32 H 1.2339 0.5229 0.6824
C39 C 1.06914(17) 0.52003(14) 0.76935(16)
H33 H 1.0296 0.5887 0.7427
H34 H 1.0470 0.5143 0.8421
C40 C 1.42443(16) 0.38582(13) 0.76417(13)
Co1 Co 0.63639(2) 0.505643(17) 0.721431(18)
N1 N 0.54507(14) 0.63961(11) 0.63434(12)
N2 N -0.12750(15) 1.27824(13) 0.55863(13)
N3 N 0.63091(14) 0.60733(11) -0.15388(11)
N4 N 1.03462(18) 1.12898(16) 0.14759(17)
O2 O 0.36688(11) 1.03245(10) 0.19854(9)
O3 O 0.81373(11) 0.40965(10) 0.78494(10)
O4 O 0.81897(11) 0.52952(10) 0.66021(10)
O5 O 1.48403(12) 0.30239(10) 0.72961(12)
O6 O 1.47371(11) 0.46384(10) 0.78268(10)
O7 O 0.64078(12) 0.40255(10) 0.60341(10)
H35 H 0.5953 0.3600 0.6202
H36 H 0.7123 0.3635 0.5874
Co1_2 Co 0.63639(2) 0.505643(17) -0.278569(18)
Co1_3 Co 1.63639(2) 0.505643(17) 0.721431(18)
N3_2 N 0.63091(14) 0.60733(11) 0.84612(11)
O6_2 O 0.47371(11) 0.46384(10) 0.78268(10)
O8 O 0.72795(14) 0.21703(12) 0.81698(13)
H37 H 0.7119 0.2633 0.7683
H38 H 0.7959 0.2232 0.8444
loop_
_geom_bond_atom_site_label_1
_geom_bond_atom_site_label_2
_geom_bond_site_symmetry_1
_geom_bond_site_symmetry_2
O1 H1 1_555 1_555
H2 O1 1_555 1_555
C1 H3 1_555 1_555
C2 C1 1_555 1_555
H4 C2 1_555 1_555
C3 C2 1_555 1_555
C4 C3 1_555 1_555
H5 C4 1_555 1_555
C5 C4 1_555 1_555
H6 C5 1_555 1_555
C6 C3 1_555 1_555
C7 C6 1_555 1_555
H7 C7 1_555 1_555
C8 C7 1_555 1_555
C9 C8 1_555 1_555
H8 C9 1_555 1_555
C10 C9 1_555 1_555
C11 C6 1_555 1_555
H9 C11 1_555 1_555
C12 C10 1_555 1_555
C13 C12 1_555 1_555
H10 C13 1_555 1_555
C14 C13 1_555 1_555
H11 C14 1_555 1_555
C15 H12 1_555 1_555
C16 C12 1_555 1_555
H13 C16 1_555 1_555
C17 C18 1_555 1_555
C18 H14 1_555 1_555
C19 C18 1_555 1_555
C20 C19 1_555 1_555
H15 C20 1_555 1_555
C21 C20 1_555 1_555
C22 C17 1_555 1_555
H16 C22 1_555 1_555
C23 C19 1_555 1_555
C24 C23 1_555 1_555
H17 C24 1_555 1_555
C25 C24 1_555 1_555
H18 C25 1_555 1_555
C26 H19 1_555 1_555
C27 C23 1_555 1_555
H20 C27 1_555 1_555
C28 C21 1_555 1_555
C29 C28 1_555 1_555
H21 C29 1_555 1_555
C30 C29 1_555 1_555
H22 C30 1_555 1_555
C31 H23 1_555 1_555
C32 C28 1_555 1_555
H24 C32 1_555 1_555
C33 C34 1_555 1_555
C34 H25 1_555 1_555
C35 C34 1_555 1_555
H26 C35 1_555 1_555
H27 C35 1_555 1_555
C36 C35 1_555 1_555
H28 C36 1_555 1_555
H29 C36 1_555 1_555
C37 C36 1_555 1_555
H30 C37 1_555 1_555
C38 C37 1_555 1_555
H31 C38 1_555 1_555
H32 C38 1_555 1_555
C39 C34 1_555 1_555
H33 C39 1_555 1_555
H34 C39 1_555 1_555
C40 C37 1_555 1_555
Co1 N1 1_555 1_555
N1 C1 1_555 1_555
N2 C14 1_555 1_555
N3 C25 1_555 1_555
N4 C30 1_555 1_555
O2 C8 1_555 1_555
O3 C33 1_555 1_555
O4 C33 1_555 1_555
O5 C40 1_555 1_555
O6 C40 1_555 1_555
O7 Co1 1_555 1_555
H35 O7 1_555 1_555
H36 O7 1_555 1_555
O8 H37 1_555 1_555
H38 O8 1_555 1_555
Co1_2 N3 1_555 1_555
Co1_3 O6 1_555 1_555
N3_2 Co1 1_555 1_555
O6_2 Co1 1_555 1_555
C5 N1 1_555 1_555
C10 C11 1_555 1_555
C15 C16 1_555 1_555
C15 N2 1_555 1_555
C17 O2 1_555 1_555
C21 C22 1_555 1_555
C26 C27 1_555 1_555
C26 N3 1_555 1_555
C31 C32 1_555 1_555
C31 N4 1_555 1_555
C38 C39 1_555 1_555
Co1 O3 1_555 1_555
Co1 O4 1_555 1_555

#END
