
#######################################################################
#
#                 Cambridge Crystallographic Data Centre
#                                CCDC 
#
#######################################################################
#
# If this CIF has been generated from an entry in the Cambridge 
# Structural Database, then it will include bibliographic, chemical, 
# crystal, experimental, refinement or atomic coordinate data resulting 
# from the CCDC's data processing and validation procedures.
#
#######################################################################

data_VEWMIT
_symmetry_cell_setting           orthorhombic
_symmetry_space_group_name_H-M   'P 21 21 21'
_symmetry_Int_Tables_number      19
_space_group_name_Hall           'P 2ac 2ab'
loop_
_symmetry_equiv_pos_site_id
_symmetry_equiv_pos_as_xyz
1 x,y,z
2 1/2+x,1/2-y,-z
3 -x,1/2+y,1/2-z
4 1/2-x,-y,1/2+z
_cell_length_a                   7.564(1)
_cell_length_b                   10.227(1)
_cell_length_c                   12.024(1)
_cell_angle_alpha                90
_cell_angle_beta                 90
_cell_angle_gamma                90
_cell_volume                     930.141
loop_
_atom_site_label
_atom_site_type_symbol
_atom_site_fract_x
_atom_site_fract_y
_atom_site_fract_z
Ba1 Ba 0.25518(2) 0.11995(1) 0.01364(1)
O1 O 0.2436(3) -0.1229(2) -0.1074(2)
O2 O 0.2097(4) -0.1495(2) 0.0733(2)
O3 O 0.4008(3) -0.6334(3) 0.0435(3)
O4 O 0.1106(3) -0.6142(4) 0.0318(3)
O5 O 0.0472(4) 0.1195(4) 0.2030(2)
O6 O 0.4747(3) 0.0918(3) 0.2029(2)
O7 O 0.2411(4) 0.2163(2) -0.2049(2)
N1 N 0.2149(6) -0.3865(3) -0.1549(3)
C1 C 0.2157(4) -0.1938(3) -0.0234(3)
C2 C 0.1807(4) -0.3401(3) -0.0426(3)
C3 C 0.2839(5) -0.4181(3) 0.0419(4)
C4 C 0.2615(5) -0.5659(2) 0.0370(3)
H1 H 0.062(4) -0.337(3) -0.034(3)
H2 H 0.2444 -0.3369 -0.2011
H3 H 0.2421 -0.4455 -0.1746
H4 H 0.4114 -0.3927 0.0299
H5 H 0.2496 -0.3702 0.1217
H6 H 0.0837 0.1114 0.2682
H7 H -0.0314 0.1686 0.1984
H8 H 0.4219 0.0913 0.2679
H9 H 0.5477 0.0304 0.1984
H10 H 0.2495 0.1854 -0.2725
H11 H 0.1334 0.2586 -0.2150
O3_2 O 0.4008(3) 0.3666(3) 0.0435(3)
O3A O -0.0992(3) 0.1334(3) -0.0435(3)
O4_2 O 0.1106(3) 0.3858(4) 0.0318(3)
O4A O 0.6106(3) 0.1142(4) -0.0318(3)
Ba1_2 Ba 0.25518(2) -0.88005(1) 0.01364(1)
Ba1A Ba 0.75518(2) -0.61995(1) -0.01364(1)
Ba1A_2 Ba -0.24482(2) -0.61995(1) -0.01364(1)
loop_
_geom_bond_atom_site_label_1
_geom_bond_atom_site_label_2
_geom_bond_site_symmetry_1
_geom_bond_site_symmetry_2
Ba1 O1 1_555 1_555
O1 C1 1_555 1_555
O2 Ba1 1_555 1_555
O3 C4 1_555 1_555
O4 C4 1_555 1_555
O5 Ba1 1_555 1_555
O6 Ba1 1_555 1_555
O7 Ba1 1_555 1_555
N1 C2 1_555 1_555
C1 O2 1_555 1_555
C2 C1 1_555 1_555
C3 C2 1_555 1_555
C4 C3 1_555 1_555
H1 C2 1_555 1_555
H2 N1 1_555 1_555
H3 N1 1_555 1_555
H4 C3 1_555 1_555
H5 C3 1_555 1_555
H6 O5 1_555 1_555
H7 O5 1_555 1_555
H8 O6 1_555 1_555
H9 O6 1_555 1_555
H10 O7 1_555 1_555
H11 O7 1_555 1_555
O3_2 Ba1 1_555 1_555
O3A Ba1 1_555 1_555
O4_2 Ba1 1_555 1_555
O4A Ba1 1_555 1_555
Ba1_2 O3 1_555 1_555
Ba1A O3 1_555 1_555
Ba1A_2 O4 1_555 1_555
O4 Ba1_2 1_555 1_555

#END
