
#######################################################################
#
#                 Cambridge Crystallographic Data Centre
#                                CCDC 
#
#######################################################################
#
# If this CIF has been generated from an entry in the Cambridge 
# Structural Database, then it will include bibliographic, chemical, 
# crystal, experimental, refinement or atomic coordinate data resulting 
# from the CCDC's data processing and validation procedures.
#
#######################################################################

data_VEWMEP
_symmetry_cell_setting           orthorhombic
_symmetry_space_group_name_H-M   'P 21 21 21'
_symmetry_Int_Tables_number      19
_space_group_name_Hall           'P 2ac 2ab'
loop_
_symmetry_equiv_pos_site_id
_symmetry_equiv_pos_as_xyz
1 x,y,z
2 1/2+x,1/2-y,-z
3 -x,1/2+y,1/2-z
4 1/2-x,-y,1/2+z
_cell_length_a                   7.304(1)
_cell_length_b                   9.914(1)
_cell_length_c                   11.837(1)
_cell_angle_alpha                90
_cell_angle_beta                 90
_cell_angle_gamma                90
_cell_volume                     857.139
loop_
_atom_site_label
_atom_site_type_symbol
_atom_site_fract_x
_atom_site_fract_y
_atom_site_fract_z
Sr1 Sr 0.2512(2) 0.12343(6) 0.01532(3)
O1 O 0.247(1) -0.1101(4) -0.1041(3)
O2 O 0.1977(6) -0.1361(5) 0.0783(3)
O3 O 0.3983(9) -0.6359(8) 0.0410(7)
O4 O 0.0957(9) -0.6194(7) 0.0327(7)
O5 O 0.0536(9) 0.1264(7) 0.1947(8)
O6 O 0.4661(8) 0.0865(7) 0.1965(7)
O7 O 0.238(1) 0.2068(4) -0.1951(3)
N1 N 0.230(2) -0.3876(5) -0.1511(3)
C1 C 0.2138(9) -0.1831(6) -0.0196(5)
C2 C 0.1785(9) -0.3343(6) -0.0395(5)
C3 C 0.263(2) -0.4160(6) 0.0549(5)
C4 C 0.248(2) -0.5682(5) 0.0416(4)
H1 H 0.02929 -0.34152 -0.02755
H2 H 0.2613 -0.3215 -0.2018
H3 H 0.3659 -0.4254 -0.1492
H4 H 0.3882 -0.3870 0.0801
H5 H 0.2581 -0.3809 0.1420
H6 H 0.0738 0.0885 0.2700
H7 H 0.04363 0.21571 0.21094
H8 H 0.4457 0.0918 0.2708
H9 H 0.5530 0.0267 0.2005
H10 H 0.2445 0.1783 -0.2665
H11 H 0.1161 0.2606 -0.2179
O3_2 O 0.3983(9) 0.3641(8) 0.0410(7)
O3A O -0.1017(9) 0.1359(8) -0.0410(7)
O4_2 O 0.0957(9) 0.3806(7) 0.0327(7)
O4A O 0.5957(9) 0.1194(7) -0.0327(7)
Sr1_2 Sr 0.2512(2) -0.87657(6) 0.01532(3)
Sr1A Sr 0.7512(2) -0.62343(6) -0.01532(3)
Sr1A_2 Sr -0.2488(2) -0.62343(6) -0.01532(3)
loop_
_geom_bond_atom_site_label_1
_geom_bond_atom_site_label_2
_geom_bond_site_symmetry_1
_geom_bond_site_symmetry_2
Sr1 O1 1_555 1_555
O1 C1 1_555 1_555
O2 Sr1 1_555 1_555
O3 C4 1_555 1_555
O4 C4 1_555 1_555
O5 Sr1 1_555 1_555
O6 Sr1 1_555 1_555
O7 Sr1 1_555 1_555
N1 C2 1_555 1_555
C1 O2 1_555 1_555
C2 C1 1_555 1_555
C3 C2 1_555 1_555
C4 C3 1_555 1_555
H1 C2 1_555 1_555
H2 N1 1_555 1_555
H3 N1 1_555 1_555
H4 C3 1_555 1_555
H5 C3 1_555 1_555
H6 O5 1_555 1_555
H7 O5 1_555 1_555
H8 O6 1_555 1_555
H9 O6 1_555 1_555
H10 O7 1_555 1_555
H11 O7 1_555 1_555
O3_2 Sr1 1_555 1_555
O3A Sr1 1_555 1_555
O4_2 Sr1 1_555 1_555
O4A Sr1 1_555 1_555
Sr1_2 O3 1_555 1_555
Sr1A O3 1_555 1_555
Sr1A_2 O4 1_555 1_555
O4 Sr1_2 1_555 1_555

#END
