
#######################################################################
#
#                 Cambridge Crystallographic Data Centre
#                                CCDC 
#
#######################################################################
#
# If this CIF has been generated from an entry in the Cambridge 
# Structural Database, then it will include bibliographic, chemical, 
# crystal, experimental, refinement or atomic coordinate data resulting 
# from the CCDC's data processing and validation procedures.
#
#######################################################################

data_VEWQUL
_symmetry_cell_setting           triclinic
_symmetry_space_group_name_H-M   'P -1'
_symmetry_Int_Tables_number      2
_space_group_name_Hall           '-P 1'
loop_
_symmetry_equiv_pos_site_id
_symmetry_equiv_pos_as_xyz
1 x,y,z
2 -x,-y,-z
_cell_length_a                   13.3231(13)
_cell_length_b                   20.788(2)
_cell_length_c                   22.187(3)
_cell_angle_alpha                113.580(3)
_cell_angle_beta                 105.255(3)
_cell_angle_gamma                97.167(2)
_cell_volume                     5246.33
loop_
_atom_site_label
_atom_site_type_symbol
_atom_site_fract_x
_atom_site_fract_y
_atom_site_fract_z
O1 O 0.515(6) 0.988(4) 0.050(4)
H1 H 0.4629 0.9731 0.0602
H2 H 0.5408 0.9534 0.0306
Co1 Co 1.20008(8) 0.69341(5) 0.60170(5)
Co2 Co 1.07918(8) 0.64700(5) 0.07909(5)
Co3 Co 0.58040(8) 1.01654(5) 0.25767(5)
O2 O 1.2620(5) 0.7050(3) 0.6992(3)
O3 O 1.2871(5) 0.6046(3) 0.6280(3)
O4 O 1.5050(5) 0.6146(4) 0.9255(3)
O5 O 1.7157(5) 0.3575(3) 0.9287(3)
O6 O 1.8397(4) 0.4242(3) 0.9124(3)
O7 O 1.1439(5) 0.7793(3) 0.6130(3)
O8 O 1.0092(5) 0.7324(3) 0.6367(3)
O9 O 0.8890(5) 1.0168(3) 0.6270(3)
O10 O 0.6898(5) 0.9476(3) 0.3066(3)
O11 O 0.6337(5) 1.0435(3) 0.3590(3)
O12 O 0.9674(5) 0.7119(3) 0.0371(3)
O13 O 1.0328(4) 0.6258(3) -0.0222(3)
O14 O 0.7354(6) 0.6639(4) -0.2726(3)
O15 O 0.6322(7) 0.9560(4) -0.2675(4)
O16 O 0.4880(5) 0.9055(3) -0.2544(3)
N1 N 1.3248(5) 0.7187(3) 0.5719(3)
N2 N 1.4500(5) 0.7847(4) 0.5587(3)
N3 N 1.2862(6) 0.8367(4) 0.2512(3)
N4 N 1.1586(6) 0.7434(4) 0.1638(3)
N5 N 1.0887(5) 0.6097(3) 0.5174(3)
N6 N 1.0180(5) 0.5083(3) 0.4199(3)
N7 N 0.8344(5) 0.5166(4) 0.0942(3)
N8 N 0.9488(5) 0.6004(3) 0.0917(3)
N9 N 0.3032(6) 0.9574(4) -0.2224(4)
N10 N 0.1903(7) 0.8908(5) -0.2016(4)
N11 N 0.4846(5) 0.9187(3) 0.1853(3)
N12 N 0.3421(6) 0.8329(4) 0.1042(3)
C1 C 1.2982(6) 0.6501(4) 0.6889(4)
C2 C 1.3574(6) 0.6399(4) 0.7504(4)
C3 C 1.3785(7) 0.5748(5) 0.7420(4)
H3 H 1.3584 0.5368 0.6971
C4 C 1.4299(7) 0.5645(5) 0.7996(5)
H4 H 1.4441 0.5201 0.7936
C5 C 1.4590(6) 0.6212(5) 0.8651(4)
C6 C 1.4408(8) 0.6879(6) 0.8745(5)
H5 H 1.4628 0.7263 0.9193
C7 C 1.3905(8) 0.6971(5) 0.8180(5)
H6 H 1.3779 0.7420 0.8243
C8 C 1.5636(7) 0.5633(5) 0.9213(4)
C9 C 1.6633(7) 0.5744(5) 0.9136(5)
H7 H 1.6894 0.6147 0.9083
C10 C 1.7225(6) 0.5255(5) 0.9139(5)
H8 H 1.7900 0.5333 0.9096
C11 C 1.6844(6) 0.4642(4) 0.9207(4)
C12 C 1.5849(6) 0.4545(5) 0.9281(5)
H9 H 1.5579 0.4139 0.9327
C13 C 1.5246(7) 0.5044(5) 0.9289(5)
H10 H 1.4580 0.4976 0.9346
C14 C 1.7491(6) 0.4109(4) 0.9206(4)
C15 C 1.0566(6) 0.7803(4) 0.6268(4)
C16 C 1.0139(6) 0.8444(4) 0.6308(4)
C17 C 1.0772(7) 0.9039(5) 0.6316(5)
H11 H 1.1473 0.9045 0.6321
C18 C 1.0362(7) 0.9617(5) 0.6317(5)
H12 H 1.0782 1.0013 0.6321
C19 C 0.9319(7) 0.9602(4) 0.6311(4)
C20 C 0.8701(7) 0.9038(5) 0.6328(5)
H13 H 0.8007 0.9043 0.6336
C21 C 0.9109(7) 0.8460(5) 0.6333(5)
H14 H 0.8693 0.8081 0.6354
C22 C 0.8421(6) 1.0096(4) 0.5609(4)
C23 C 0.8359(7) 0.9497(5) 0.5000(4)
H15 H 0.8647 0.9120 0.5026
C24 C 0.7865(7) 0.9476(4) 0.4363(4)
H16 H 0.7821 0.9077 0.3957
C25 C 0.7435(6) 1.0025(4) 0.4310(4)
C26 C 0.7497(6) 1.0615(4) 0.4922(4)
H17 H 0.7198 1.0988 0.4895
C27 C 0.7996(6) 1.0652(4) 0.5567(4)
H18 H 0.8045 1.1053 0.5973
C28 C 0.6860(6) 0.9963(4) 0.3612(4)
C29 C 1.3628(6) 0.7833(4) 0.5774(4)
H19 H 1.3329 0.8225 0.5922
C30 C 1.3911(7) 0.6772(5) 0.5475(5)
H20 H 1.3836 0.6287 0.5382
C31 C 1.4679(7) 0.7172(5) 0.5391(5)
H21 H 1.5227 0.7020 0.5231
C32 C 1.5137(7) 0.8468(5) 0.5578(4)
H22 H 1.5881 0.8444 0.5682
H23 H 1.5112 0.8911 0.5949
C33 C 1.4773(6) 0.8514(4) 0.4899(4)
C34 C 1.5319(6) 0.9099(4) 0.4862(4)
H24 H 1.5900 0.9441 0.5248
C35 C 1.5015(7) 0.9184(5) 0.4257(4)
H25 H 1.5389 0.9584 0.4243
C36 C 1.4167(7) 0.8683(4) 0.3679(4)
C37 C 1.3609(7) 0.8103(4) 0.3716(4)
H26 H 1.3024 0.7766 0.3329
C38 C 1.3904(6) 0.8016(4) 0.4319(4)
H27 H 1.3518 0.7622 0.4335
C39 C 1.3911(7) 0.8795(5) 0.3030(4)
H28 H 1.3949 0.9306 0.3166
H29 H 1.4456 0.8676 0.2819
C40 C 1.2623(7) 0.7681(4) 0.2003(4)
H30 H 1.3128 0.7416 0.1920
C41 C 1.1903(8) 0.8560(5) 0.2466(5)
H31 H 1.1805 0.9000 0.2752
C42 C 1.1140(8) 0.7989(5) 0.1931(5)
H32 H 1.0412 0.7971 0.1779
C43 C 1.1084(7) 0.5556(4) 0.4689(4)
H33 H 1.1771 0.5513 0.4690
C44 C 0.9782(6) 0.5955(4) 0.4966(4)
H34 H 0.9399 0.6246 0.5201
C45 C 0.9342(7) 0.5329(5) 0.4370(4)
H35 H 0.8611 0.5109 0.4123
C46 C 1.0092(8) 0.4429(4) 0.3575(4)
H36 H 0.9697 0.4006 0.3579
H37 H 1.0807 0.4372 0.3587
C47 C 0.9527(7) 0.4467(4) 0.2913(4)
C48 C 0.9632(7) 0.5121(4) 0.2873(4)
H38 H 1.0045 0.5551 0.3268
C49 C 0.9130(7) 0.5138(4) 0.2254(4)
H39 H 0.9211 0.5579 0.2233
C50 C 0.8510(6) 0.4509(4) 0.1665(4)
C51 C 0.8407(7) 0.3861(4) 0.1699(4)
H40 H 0.7997 0.3432 0.1303
C52 C 0.8915(7) 0.3841(4) 0.2325(4)
H41 H 0.8836 0.3400 0.2344
C53 C 0.7941(7) 0.4508(4) 0.0979(4)
H42 H 0.8018 0.4097 0.0601
H43 H 0.7179 0.4444 0.0910
C54 C 0.9300(6) 0.5352(4) 0.0871(4)
H44 H 0.9765 0.5053 0.0799
C55 C 0.7915(7) 0.5749(5) 0.1050(4)
H45 H 0.7266 0.5786 0.1125
C56 C 0.8616(7) 0.6264(5) 0.1027(5)
H46 H 0.8524 0.6717 0.1078
C57 C 0.9705(6) 0.6687(4) -0.0198(4)
C58 C 0.9056(6) 0.6662(4) -0.0861(4)
C59 C 0.9044(6) 0.6154(4) -0.1504(4)
H47 H 0.9441 0.5813 -0.1520
C60 C 0.8455(7) 0.6148(5) -0.2115(4)
H48 H 0.8434 0.5795 -0.2544
C61 C 0.7892(7) 0.6670(4) -0.2091(4)
C62 C 0.7890(7) 0.7178(4) -0.1459(4)
H49 H 0.7501 0.7522 -0.1445
C63 C 0.8466(7) 0.7173(4) -0.0850(4)
H50 H 0.8462 0.7515 -0.0424
C64 C 0.6961(7) 0.7235(5) -0.2709(4)
C65 C 0.7615(7) 0.7816(6) -0.2675(5)
H51 H 0.8317 0.7814 -0.2663
C66 C 0.7237(7) 0.8404(5) -0.2660(5)
H52 H 0.7682 0.8800 -0.2639
C67 C 0.6188(7) 0.8408(4) -0.2677(4)
C68 C 0.5529(7) 0.7806(4) -0.2730(5)
H53 H 0.4820 0.7799 -0.2754
C69 C 0.5916(7) 0.7208(5) -0.2748(5)
H54 H 0.5472 0.6800 -0.2787
C70 C 0.5782(8) 0.9059(5) -0.2634(4)
C71 C 0.5135(7) 0.8539(4) 0.1588(4)
H55 H 0.5824 0.8478 0.1725
C72 C 0.4250(8) 0.8012(5) 0.1095(5)
H56 H 0.4216 0.7525 0.0841
C73 C 0.3806(7) 0.9031(4) 0.1505(4)
H57 H 0.3395 0.9367 0.1573
C74 C 0.2321(7) 0.7989(5) 0.0557(4)
H58 H 0.1831 0.8167 0.0800
H59 H 0.2173 0.7468 0.0399
C75 C 0.2112(7) 0.8136(4) -0.0068(4)
C76 C 0.2900(9) 0.8286(6) -0.0329(5)
H60 H 0.3615 0.8340 -0.0089
C77 C 0.2643(9) 0.8356(6) -0.0938(5)
H61 H 0.3186 0.8457 -0.1103
C78 C 0.1599(9) 0.8280(5) -0.1303(5)
C79 C 0.0824(10) 0.8161(10) -0.1029(8)
H62 H 0.0111 0.8125 -0.1260
C80 C 0.1084(9) 0.8095(9) -0.0425(7)
H63 H 0.0542 0.8019 -0.0250
C81 C 0.1301(11) 0.8270(7) -0.2019(6)
H64 H 0.1429 0.7838 -0.2346
H65 H 0.0537 0.8237 -0.2186
C82 C 0.2694(8) 0.8934(5) -0.2264(4)
H66 H 0.2980 0.8543 -0.2446
C83 C 0.1683(11) 0.9558(8) -0.1833(8)
H67 H 0.1148 0.9699 -0.1652
C84 C 0.2376(10) 0.9965(6) -0.1960(7)
H68 H 0.2404 1.0443 -0.1879
Co2A Co 1.92082(8) 0.35300(5) 0.92091(5)
Co3A Co 0.41960(8) 0.98346(5) -0.25767(5)
O6A O 1.1603(4) 0.5758(3) 0.0876(3)
O16A O 0.5120(5) 1.0945(3) 0.2544(3)
N9A N 0.6968(6) 1.0426(4) 0.2224(4)
O17 O 0.3286(6) 0.2478(5) 0.5096(4)
O18 O 0.2578(8) 0.3415(5) 0.5439(4)
H69 H 0.2361 0.3303 0.5020
O19 O 0.3766(6) 0.3127(4) 0.8224(4)
O20 O 0.1356(11) 0.1310(5) 0.9387(5)
O21 O 0.0224(10) 0.0872(5) 0.8289(6)
H70 H -0.0225 0.1105 0.8263
C85 C 0.3040(8) 0.2927(6) 0.5541(6)
C86 C 0.3238(7) 0.2980(5) 0.6250(5)
C87 C 0.3711(8) 0.2508(6) 0.6424(5)
H71 H 0.3928 0.2161 0.6101
C88 C 0.3876(9) 0.2534(6) 0.7079(5)
H72 H 0.4198 0.2208 0.7196
C89 C 0.3556(8) 0.3049(6) 0.7547(5)
C90 C 0.3098(10) 0.3546(6) 0.7395(6)
H73 H 0.2905 0.3900 0.7728
C91 C 0.2925(10) 0.3514(6) 0.6735(6)
H74 H 0.2607 0.3842 0.6619
C92 C 0.3361(9) 0.2745(6) 0.9013(5)
H75 H 0.3956 0.3108 0.9367
C93 C 0.2720(11) 0.2299(6) 0.9159(6)
H76 H 0.2896 0.2354 0.9615
C94 C 0.1823(10) 0.1771(5) 0.8643(6)
C95 C 0.1573(9) 0.1676(5) 0.7964(5)
H77 H 0.0966 0.1322 0.7613
C96 C 0.2237(8) 0.2114(5) 0.7805(5)
H78 H 0.2086 0.2042 0.7346
C97 C 0.1119(16) 0.1300(7) 0.8812(8)
C98 C 0.3107(8) 0.2647(5) 0.8326(5)
N13 N -0.0908(17) 0.0106(18) 0.9063(14)
C99 C 0.036(2) 0.064(13) 0.959(10)
H79 H 0.0652 0.0250 0.9632
H80 H 0.0529 0.1029 1.0052
C100 C -0.1472(14) 0.0244(10) 0.8478(9)
H81 H -0.2081 0.0422 0.8556
H82 H -0.0990 0.0596 0.8438
H83 H -0.1714 -0.0204 0.8054
C101 C -0.1338(15) -0.0270(10) 0.9351(10)
H84 H -0.1078 -0.0670 0.9329
O22 O -0.227(5) -0.033(7) 0.938(8)
C102 C 0.2674(16) 0.5685(9) 0.3492(9)
H85 H 0.2196 0.5977 0.3526
C103 C 0.4060(19) 0.5275(14) 0.3070(14)
H86 H 0.4761 0.5587 0.3383
H87 H 0.4071 0.5051 0.2601
H88 H 0.3870 0.4905 0.3205
C104 C 0.303(3) 0.6104(11) 0.2714(12)
H89 H 0.2474 0.5800 0.2268
H90 H 0.3671 0.6273 0.2643
H91 H 0.2790 0.6513 0.2971
N14 N 0.3311(10) 0.5715(7) 0.3116(7)
O23 O 0.2682(10) 0.5289(7) 0.3801(6)
C105 C 1.0303(18) 0.1892(11) 0.5802(13)
H92 H 0.9857 0.1414 0.5634
H93 H 1.0939 0.1983 0.6181
H94 H 1.0504 0.1927 0.5429
C106 C 0.981(2) 0.2620(14) 0.6805(6)
H95 H 0.9435 0.2984 0.6965
H96 H 1.0561 0.2809 0.7089
H97 H 0.9514 0.2197 0.6840
C107 C 0.9023(15) 0.2725(11) 0.5770(7)
H98 H 0.8947 0.2624 0.5310
N15 N 0.9704(7) 0.2424(5) 0.6072(5)
O24 O 0.8491(14) 0.3131(10) 0.6053(10)
O25 O 0.5702(8) 0.4780(5) 0.4247(5)
H99 H 0.5447 0.4799 0.4565
H100 H 0.5634 0.4339 0.3974
O26 O 0.3525(14) 0.4488(7) 0.4293(6)
H101 H 0.3937 0.4599 0.4095
H102 H 0.3465 0.4873 0.4600
O27 O 0.2125(7) 0.3351(5) 0.4210(4)
H103 H 0.2316 0.3702 0.4126
H104 H 0.1443 0.3228 0.4087
H105? H 0.0654 0.0804 0.9318
H106? H -0.2639 -0.0357 0.9571
O28? O -0.296(8) -0.027(5) 0.924(5)
H107? H -0.3329 -0.0668 0.8881
loop_
_geom_bond_atom_site_label_1
_geom_bond_atom_site_label_2
_geom_bond_site_symmetry_1
_geom_bond_site_symmetry_2
O1 H1 1_555 1_555
H2 O1 1_555 1_555
Co1 O2 1_555 1_555
Co2 O12 1_555 1_555
Co3 O11 1_555 1_555
O2 C1 1_555 1_555
O3 C1 1_555 1_555
O4 C5 1_555 1_555
O5 C14 1_555 1_555
O6 C14 1_555 1_555
O7 Co1 1_555 1_555
O8 C15 1_555 1_555
O9 C19 1_555 1_555
O10 C28 1_555 1_555
O11 C28 1_555 1_555
O12 C57 1_555 1_555
O13 Co2 1_555 1_555
O14 C61 1_555 1_555
O15 C70 1_555 1_555
O16 C70 1_555 1_555
N1 Co1 1_555 1_555
N2 C29 1_555 1_555
N3 C39 1_555 1_555
N4 Co2 1_555 1_555
N5 Co1 1_555 1_555
N6 C43 1_555 1_555
N7 C53 1_555 1_555
N8 Co2 1_555 1_555
N9 C82 1_555 1_555
N10 C81 1_555 1_555
N11 Co3 1_555 1_555
N12 C72 1_555 1_555
C1 C2 1_555 1_555
C2 C3 1_555 1_555
C3 H3 1_555 1_555
C4 C3 1_555 1_555
H4 C4 1_555 1_555
C5 C4 1_555 1_555
C6 C5 1_555 1_555
H5 C6 1_555 1_555
C7 C2 1_555 1_555
H6 C7 1_555 1_555
C8 O4 1_555 1_555
C9 C8 1_555 1_555
H7 C9 1_555 1_555
C10 C9 1_555 1_555
H8 C10 1_555 1_555
C11 C10 1_555 1_555
C12 C11 1_555 1_555
H9 C12 1_555 1_555
C13 C8 1_555 1_555
H10 C13 1_555 1_555
C14 C11 1_555 1_555
C15 O7 1_555 1_555
C16 C15 1_555 1_555
C17 C16 1_555 1_555
H11 C17 1_555 1_555
C18 C17 1_555 1_555
H12 C18 1_555 1_555
C19 C18 1_555 1_555
C20 C19 1_555 1_555
H13 C20 1_555 1_555
C21 C16 1_555 1_555
H14 C21 1_555 1_555
C22 O9 1_555 1_555
C23 C22 1_555 1_555
H15 C23 1_555 1_555
C24 C23 1_555 1_555
H16 C24 1_555 1_555
C25 C24 1_555 1_555
C26 C25 1_555 1_555
H17 C26 1_555 1_555
C27 C22 1_555 1_555
H18 C27 1_555 1_555
C28 C25 1_555 1_555
C29 N1 1_555 1_555
H19 C29 1_555 1_555
C30 N1 1_555 1_555
H20 C30 1_555 1_555
C31 N2 1_555 1_555
H21 C31 1_555 1_555
C32 N2 1_555 1_555
H22 C32 1_555 1_555
H23 C32 1_555 1_555
C33 C32 1_555 1_555
C34 C33 1_555 1_555
H24 C34 1_555 1_555
C35 C34 1_555 1_555
H25 C35 1_555 1_555
C36 C35 1_555 1_555
C37 C36 1_555 1_555
H26 C37 1_555 1_555
C38 C33 1_555 1_555
H27 C38 1_555 1_555
C39 C36 1_555 1_555
H28 C39 1_555 1_555
H29 C39 1_555 1_555
C40 N3 1_555 1_555
H30 C40 1_555 1_555
C41 N3 1_555 1_555
H31 C41 1_555 1_555
C42 N4 1_555 1_555
H32 C42 1_555 1_555
C43 N5 1_555 1_555
H33 C43 1_555 1_555
C44 N5 1_555 1_555
H34 C44 1_555 1_555
C45 N6 1_555 1_555
H35 C45 1_555 1_555
C46 N6 1_555 1_555
H36 C46 1_555 1_555
H37 C46 1_555 1_555
C47 C46 1_555 1_555
C48 C47 1_555 1_555
H38 C48 1_555 1_555
C49 C48 1_555 1_555
H39 C49 1_555 1_555
C50 C49 1_555 1_555
C51 C50 1_555 1_555
H40 C51 1_555 1_555
C52 C47 1_555 1_555
H41 C52 1_555 1_555
C53 C50 1_555 1_555
H42 C53 1_555 1_555
H43 C53 1_555 1_555
C54 N7 1_555 1_555
H44 C54 1_555 1_555
C55 N7 1_555 1_555
H45 C55 1_555 1_555
C56 N8 1_555 1_555
H46 C56 1_555 1_555
C57 O13 1_555 1_555
C58 C57 1_555 1_555
C59 C58 1_555 1_555
H47 C59 1_555 1_555
C60 C59 1_555 1_555
H48 C60 1_555 1_555
C61 C60 1_555 1_555
C62 C61 1_555 1_555
H49 C62 1_555 1_555
C63 C58 1_555 1_555
H50 C63 1_555 1_555
C64 O14 1_555 1_555
C65 C64 1_555 1_555
H51 C65 1_555 1_555
C66 C65 1_555 1_555
H52 C66 1_555 1_555
C67 C66 1_555 1_555
C68 C67 1_555 1_555
H53 C68 1_555 1_555
C69 C64 1_555 1_555
H54 C69 1_555 1_555
C70 C67 1_555 1_555
C71 N11 1_555 1_555
H55 C71 1_555 1_555
C72 C71 1_555 1_555
H56 C72 1_555 1_555
C73 N11 1_555 1_555
H57 C73 1_555 1_555
C74 N12 1_555 1_555
H58 C74 1_555 1_555
H59 C74 1_555 1_555
C75 C74 1_555 1_555
C76 C75 1_555 1_555
H60 C76 1_555 1_555
C77 C76 1_555 1_555
H61 C77 1_555 1_555
C78 C77 1_555 1_555
C79 C78 1_555 1_555
H62 C79 1_555 1_555
C80 C75 1_555 1_555
H63 C80 1_555 1_555
C81 C78 1_555 1_555
H64 C81 1_555 1_555
H65 C81 1_555 1_555
C82 N10 1_555 1_555
H66 C82 1_555 1_555
C83 N10 1_555 1_555
H67 C83 1_555 1_555
C84 N9 1_555 1_555
H68 C84 1_555 1_555
O17 C85 1_555 1_555
O18 H69 1_555 1_555
O19 C89 1_555 1_555
O20 C97 1_555 1_555
O21 H70 1_555 1_555
C85 O18 1_555 1_555
C86 C85 1_555 1_555
C87 C86 1_555 1_555
H71 C87 1_555 1_555
C88 C87 1_555 1_555
H72 C88 1_555 1_555
C89 C88 1_555 1_555
C90 C89 1_555 1_555
H73 C90 1_555 1_555
C91 C86 1_555 1_555
H74 C91 1_555 1_555
C92 H75 1_555 1_555
C93 C92 1_555 1_555
H76 C93 1_555 1_555
C94 C93 1_555 1_555
C95 C94 1_555 1_555
H77 C95 1_555 1_555
C96 C95 1_555 1_555
H78 C96 1_555 1_555
C97 O21 1_555 1_555
C98 O19 1_555 1_555
N13 C99 1_555 1_555
C99 H79 1_555 1_555
H80 C99 1_555 1_555
C100 N13 1_555 1_555
H81 C100 1_555 1_555
H82 C100 1_555 1_555
H83 C100 1_555 1_555
C101 N13 1_555 1_555
H84 C101 1_555 1_555
O22 C101 1_555 1_555
C102 H85 1_555 1_555
C103 H86 1_555 1_555
H87 C103 1_555 1_555
H88 C103 1_555 1_555
C104 H89 1_555 1_555
H90 C104 1_555 1_555
H91 C104 1_555 1_555
N14 C102 1_555 1_555
O23 C102 1_555 1_555
C105 H92 1_555 1_555
H93 C105 1_555 1_555
H94 C105 1_555 1_555
C106 H95 1_555 1_555
H96 C106 1_555 1_555
H97 C106 1_555 1_555
C107 H98 1_555 1_555
N15 C105 1_555 1_555
O24 C107 1_555 1_555
O25 H99 1_555 1_555
H100 O25 1_555 1_555
O26 H101 1_555 1_555
H102 O26 1_555 1_555
O27 H103 1_555 1_555
H104 O27 1_555 1_555
Co2A O6 1_555 1_555
Co3A O16 1_555 1_555
O6A Co2 1_555 1_555
O16A Co3 1_555 1_555
N9A Co3 1_555 1_555
N4 C40 1_555 1_555
N8 C54 1_555 1_555
N9 Co3A 1_555 1_555
N12 C73 1_555 1_555
C6 C7 1_555 1_555
C12 C13 1_555 1_555
C20 C21 1_555 1_555
C26 C27 1_555 1_555
C30 C31 1_555 1_555
C37 C38 1_555 1_555
C41 C42 1_555 1_555
C44 C45 1_555 1_555
C51 C52 1_555 1_555
C55 C56 1_555 1_555
C62 C63 1_555 1_555
C68 C69 1_555 1_555
C79 C80 1_555 1_555
C83 C84 1_555 1_555
C90 C91 1_555 1_555
C92 C98 1_555 1_555
C94 C97 1_555 1_555
C96 C98 1_555 1_555
C103 N14 1_555 1_555
C104 N14 1_555 1_555
C106 N15 1_555 1_555
C107 N15 1_555 1_555

#END
