
#######################################################################
#
#                 Cambridge Crystallographic Data Centre
#                                CCDC 
#
#######################################################################
#
# If this CIF has been generated from an entry in the Cambridge 
# Structural Database, then it will include bibliographic, chemical, 
# crystal, experimental, refinement or atomic coordinate data resulting 
# from the CCDC's data processing and validation procedures.
#
#######################################################################

data_VEWQOF
_symmetry_cell_setting           monoclinic
_symmetry_space_group_name_H-M   'C 2/c'
_symmetry_Int_Tables_number      15
_space_group_name_Hall           '-C 2yn'
loop_
_symmetry_equiv_pos_site_id
_symmetry_equiv_pos_as_xyz
1 x,y,z
2 -x,y,1/2-z
3 1/2+x,1/2+y,z
4 1/2-x,1/2+y,1/2-z
5 -x,-y,-z
6 x,-y,1/2+z
7 1/2-x,1/2-y,-z
8 1/2+x,1/2-y,1/2+z
_cell_length_a                   33.200(3)
_cell_length_b                   11.3866(10)
_cell_length_c                   17.7241(16)
_cell_angle_alpha                90
_cell_angle_beta                 120.302(4)
_cell_angle_gamma                90
_cell_volume                     5784.92
loop_
_atom_site_label
_atom_site_type_symbol
_atom_site_fract_x
_atom_site_fract_y
_atom_site_fract_z
Co1 Co 0.151121(19) 0.21313(5) 0.31800(4)
O1 O 0.10566(10) 0.1881(3) 0.1908(2)
O2 O 0.06520(13) 0.2135(3) 0.2557(2)
O3 O -0.09643(13) 0.1232(4) -0.1357(3)
O4 O -0.28545(13) 0.2872(3) -0.1681(3)
O5 O -0.30827(14) 0.1177(4) -0.2354(3)
N1 N 0.15811(13) 0.3364(3) 0.4073(3)
N2 N 0.19209(13) 0.4701(3) 0.5088(2)
N3 N 0.14981(12) 0.0578(4) 0.3728(2)
N4 N 0.12534(13) -0.1179(3) 0.3790(3)
C1 C 0.06643(15) 0.1929(4) 0.1883(3)
C2 C 0.02317(14) 0.1733(4) 0.1034(3)
C3 C 0.02432(16) 0.1646(5) 0.0263(3)
H1 H 0.0528 0.1681 0.0281
C4 C -0.01626(17) 0.1509(6) -0.0528(3)
H2 H -0.0154 0.1481 -0.1045
C5 C -0.05750(17) 0.1416(5) -0.0545(3)
C6 C -0.05994(16) 0.1485(5) 0.0213(3)
H3 H -0.0885 0.1432 0.0190
C7 C -0.01946(16) 0.1631(4) 0.0997(3)
H4 H -0.0206 0.1662 0.1511
C8 C -0.14046(16) 0.1402(6) -0.1476(3)
C9 C -0.1553(2) 0.2530(7) -0.1431(4)
H5 H -0.1355 0.3172 -0.1299
C10 C -0.19997(18) 0.2666(5) -0.1587(4)
H6 H -0.2101 0.3405 -0.1532
C11 C -0.23030(14) 0.1714(4) -0.1825(3)
C12 C -0.21492(17) 0.0612(5) -0.1895(3)
H7 H -0.2351 -0.0026 -0.2063
C13 C -0.16940(18) 0.0455(5) -0.1714(3)
H8 H -0.1589 -0.0285 -0.1756
C14 C -0.27798(16) 0.1913(5) -0.1971(3)
C15 C 0.12520(16) 0.3942(5) 0.4171(3)
H9 H 0.0934 0.3788 0.3852
C16 C 0.14534(17) 0.4770(5) 0.4795(3)
H10 H 0.1305 0.5282 0.4987
C17 C 0.19800(15) 0.3849(4) 0.4635(3)
H11 H 0.2267 0.3628 0.4709
C18 C 0.22850(17) 0.5468(4) 0.5723(3)
H12 H 0.2570 0.5015 0.6048
H13 H 0.2194 0.5740 0.6134
C19 C 0.23852(14) 0.6518(4) 0.5327(3)
C20 C 0.22246(17) 0.6628(4) 0.4444(3)
H14 H 0.2038 0.6041 0.4063
C21 C 0.26623(17) 0.7404(4) 0.5881(3)
H15 H 0.2773 0.7346 0.6478
C22 C 0.16270(17) 0.0322(5) 0.4576(3)
H16 H 0.1796 0.0818 0.5050
C23 C 0.14728(19) -0.0753(5) 0.4620(3)
H17 H 0.1509 -0.1128 0.5117
C24 C 0.12805(16) -0.0355(4) 0.3282(3)
H18 H 0.1159 -0.0436 0.2683
C25 C 0.10109(19) -0.2297(5) 0.3497(5)
H19 H 0.1104 -0.2792 0.4004
H20 H 0.1112 -0.2681 0.3131
C26 C 0.04889(18) -0.2216(4) 0.2995(3)
C27 C 0.02403(17) -0.1167(4) 0.2740(3)
H21 H 0.0400 -0.0456 0.2896
C28 C 0.0238(2) -0.3254(5) 0.2738(4)
H22 H 0.0397 -0.3966 0.2893
N1F N 0.34189(13) 1.1636(3) 0.5927(3)
N2F N 0.30791(13) 1.0299(3) 0.4912(2)
C15F C 0.37480(16) 1.1058(5) 0.5829(3)
H9F H 0.4066 1.1212 0.6148
C16F C 0.35466(17) 1.0230(5) 0.5205(3)
H10F H 0.3695 0.9718 0.5013
C17F C 0.30200(15) 1.1151(4) 0.5365(3)
H11F H 0.2733 1.1372 0.5291
C18F C 0.27150(17) 0.9532(4) 0.4277(3)
H12F H 0.2430 0.9985 0.3952
H13F H 0.2806 0.9260 0.3866
C19F C 0.26148(14) 0.8482(4) 0.4673(3)
C20F C 0.27754(17) 0.8372(4) 0.5556(3)
H14F H 0.2962 0.8959 0.5937
C21F C 0.23377(17) 0.7596(4) 0.4119(3)
H15F H 0.2227 0.7654 0.3522
N3A N -0.14981(12) 0.0578(4) 0.1272(2)
N4A N -0.12534(13) -0.1179(3) 0.1210(3)
C22A C -0.16270(17) 0.0322(5) 0.0424(3)
H16A H -0.1796 0.0818 -0.0050
C23A C -0.14728(19) -0.0753(5) 0.0380(3)
H17A H -0.1509 -0.1128 -0.0117
C24A C -0.12805(16) -0.0355(4) 0.1718(3)
H18A H -0.1159 -0.0436 0.2317
C25A C -0.10109(19) -0.2297(5) 0.1503(5)
H19A H -0.1104 -0.2792 0.0996
H20A H -0.1112 -0.2681 0.1869
C26A C -0.04889(18) -0.2216(4) 0.2005(3)
C27A C -0.02403(17) -0.1167(4) 0.2260(3)
H21A H -0.0400 -0.0456 0.2104
C28A C -0.0238(2) -0.3254(5) 0.2262(4)
H22A H -0.0397 -0.3966 0.2107
Co1A Co -0.151121(19) 0.21313(5) 0.18200(4)
O1A O -0.10566(10) 0.1881(3) 0.3092(2)
O2A O -0.06520(13) 0.2135(3) 0.2443(2)
O3A O 0.09643(13) 0.1232(4) 0.6357(3)
O4A O 0.28545(13) 0.2872(3) 0.6681(3)
O5A O 0.30827(14) 0.1177(4) 0.7354(3)
C1A C -0.06643(15) 0.1929(4) 0.3117(3)
C2A C -0.02317(14) 0.1733(4) 0.3966(3)
C3A C -0.02432(16) 0.1646(5) 0.4737(3)
H1A H -0.0528 0.1681 0.4719
C4A C 0.01626(17) 0.1509(6) 0.5528(3)
H2A H 0.0154 0.1481 0.6045
C5A C 0.05750(17) 0.1416(5) 0.5545(3)
C6A C 0.05994(16) 0.1485(5) 0.4787(3)
H3A H 0.0885 0.1432 0.4810
C7A C 0.01946(16) 0.1631(4) 0.4003(3)
H4A H 0.0206 0.1662 0.3489
C8A C 0.14046(16) 0.1402(6) 0.6476(3)
C9A C 0.1553(2) 0.2530(7) 0.6431(4)
H5A H 0.1355 0.3172 0.6299
C10A C 0.19997(18) 0.2666(5) 0.6587(4)
H6A H 0.2101 0.3405 0.6532
C11A C 0.23030(14) 0.1714(4) 0.6825(3)
C12A C 0.21492(17) 0.0612(5) 0.6895(3)
H7A H 0.2351 -0.0026 0.7063
C13A C 0.16940(18) 0.0455(5) 0.6714(3)
H8A H 0.1589 -0.0285 0.6756
C14A C 0.27798(16) 0.1913(5) 0.6971(3)
Co1F Co 0.348879(19) 0.28687(5) 0.68200(4)
Co1F_2 Co 0.348879(19) 1.28687(5) 0.68200(4)
Co1G Co -0.348879(19) 0.28687(5) -0.18200(4)
O4F O -0.21455(13) 0.2128(3) 0.1681(3)
O4G O 0.21455(13) 0.2128(3) 0.3319(3)
N1A N -0.15811(13) 0.3364(3) 0.0927(3)
O6 O 0.0000 0.3903(5) 0.2500
H23 H 0.0259 0.3601 0.2617
H23A H -0.0259 0.3601 0.2383
O7 O 0.1379(3) 0.2959(6) 0.0858(4)
H24 H 0.1410 0.3021 0.1363
H25 H 0.1124 0.2608 0.0519
O8 O 0.8827(9) 0.462(2) 0.7587(17)
H26 H 0.8548 0.4623 0.7484
H27 H 0.9011 0.4452 0.8122
O9 O 0.0000 0.5000 1.0000
H28 H -0.0083 0.4621 0.9531
H28D H 0.0083 0.5379 1.0469
H29? H 0.0113 0.5660 0.9976
H30? H -0.0049 0.3772 0.2919
loop_
_geom_bond_atom_site_label_1
_geom_bond_atom_site_label_2
_geom_bond_site_symmetry_1
_geom_bond_site_symmetry_2
Co1 O1 1_555 1_555
O1 C1 1_555 1_555
O2 C1 1_555 1_555
O3 C5 1_555 1_555
O4 C14 1_555 1_555
O5 C14 1_555 1_555
N1 Co1 1_555 1_555
N2 C16 1_555 1_555
N3 Co1 1_555 1_555
N4 C23 1_555 1_555
C1 C2 1_555 1_555
C2 C3 1_555 1_555
C3 H1 1_555 1_555
C4 C3 1_555 1_555
H2 C4 1_555 1_555
C5 C4 1_555 1_555
C6 C5 1_555 1_555
H3 C6 1_555 1_555
C7 C2 1_555 1_555
H4 C7 1_555 1_555
C8 O3 1_555 1_555
C9 C8 1_555 1_555
H5 C9 1_555 1_555
C10 C9 1_555 1_555
H6 C10 1_555 1_555
C11 C10 1_555 1_555
C12 C11 1_555 1_555
H7 C12 1_555 1_555
C13 C8 1_555 1_555
H8 C13 1_555 1_555
C14 C11 1_555 1_555
C15 N1 1_555 1_555
H9 C15 1_555 1_555
C16 C15 1_555 1_555
H10 C16 1_555 1_555
C17 N1 1_555 1_555
H11 C17 1_555 1_555
C18 N2 1_555 1_555
H12 C18 1_555 1_555
H13 C18 1_555 1_555
C19 C18 1_555 1_555
C20 C19 1_555 1_555
H14 C20 1_555 1_555
C21 C19 1_555 1_555
H15 C21 1_555 1_555
C22 N3 1_555 1_555
H16 C22 1_555 1_555
C23 C22 1_555 1_555
H17 C23 1_555 1_555
C24 N3 1_555 1_555
H18 C24 1_555 1_555
C25 N4 1_555 1_555
H19 C25 1_555 1_555
H20 C25 1_555 1_555
C26 C25 1_555 1_555
C27 C26 1_555 1_555
H21 C27 1_555 1_555
C28 C26 1_555 1_555
H22 C28 1_555 1_555
O6 H23 1_555 1_555
O7 H24 1_555 1_555
H25 O7 1_555 1_555
O8 H26 1_555 1_555
H27 O8 1_555 1_555
O9 H28 1_555 1_555
N1F C15F 1_555 1_555
N2F C16F 1_555 1_555
C15F H9F 1_555 1_555
C16F C15F 1_555 1_555
H10F C16F 1_555 1_555
C17F N1F 1_555 1_555
H11F C17F 1_555 1_555
C18F N2F 1_555 1_555
H12F C18F 1_555 1_555
H13F C18F 1_555 1_555
C19F C18F 1_555 1_555
C20F C21 1_555 1_555
H14F C20F 1_555 1_555
C21F C20 1_555 1_555
H15F C21F 1_555 1_555
N3A C22A 1_555 1_555
N4A C23A 1_555 1_555
C22A H16A 1_555 1_555
C23A C22A 1_555 1_555
H17A C23A 1_555 1_555
C24A N3A 1_555 1_555
H18A C24A 1_555 1_555
C25A N4A 1_555 1_555
H19A C25A 1_555 1_555
H20A C25A 1_555 1_555
C26A C25A 1_555 1_555
C27A C27 1_555 1_555
H21A C27A 1_555 1_555
C28A C28 1_555 1_555
H22A C28A 1_555 1_555
Co1A N3A 1_555 1_555
O1A Co1A 1_555 1_555
O2A C1A 1_555 1_555
O3A C5A 1_555 1_555
O4A C14A 1_555 1_555
O5A C14A 1_555 1_555
C1A O1A 1_555 1_555
C2A C1A 1_555 1_555
C3A C2A 1_555 1_555
H1A C3A 1_555 1_555
C4A C3A 1_555 1_555
H2A C4A 1_555 1_555
C5A C4A 1_555 1_555
C6A C5A 1_555 1_555
H3A C6A 1_555 1_555
C7A C2A 1_555 1_555
H4A C7A 1_555 1_555
C8A O3A 1_555 1_555
C9A C8A 1_555 1_555
H5A C9A 1_555 1_555
C10A C9A 1_555 1_555
H6A C10A 1_555 1_555
C11A C10A 1_555 1_555
C12A C11A 1_555 1_555
H7A C12A 1_555 1_555
C13A C8A 1_555 1_555
H8A C13A 1_555 1_555
C14A C11A 1_555 1_555
Co1F O4A 1_555 1_555
Co1F_2 N1F 1_555 1_555
Co1G O4 1_555 1_555
O4F Co1A 1_555 1_555
O4G Co1 1_555 1_555
N1A Co1A 1_555 1_555
H23A O6 1_555 1_555
H28D O9 1_555 1_555
N2 C17 1_555 1_555
N4 C24 1_555 1_555
C6 C7 1_555 1_555
C12 C13 1_555 1_555
N2F C17F 1_555 1_555
C19F C20F 1_555 1_555
C19F C21F 1_555 1_555
N4A C24A 1_555 1_555
C26A C27A 1_555 1_555
C26A C28A 1_555 1_555
C6A C7A 1_555 1_555
C12A C13A 1_555 1_555

#END
