
#######################################################################
#
#                 Cambridge Crystallographic Data Centre
#                                CCDC 
#
#######################################################################
#
# If this CIF has been generated from an entry in the Cambridge 
# Structural Database, then it will include bibliographic, chemical, 
# crystal, experimental, refinement or atomic coordinate data resulting 
# from the CCDC's data processing and validation procedures.
#
#######################################################################

data_VEWQIZ
_symmetry_cell_setting           triclinic
_symmetry_space_group_name_H-M   'P -1'
_symmetry_Int_Tables_number      2
_space_group_name_Hall           '-P 1'
loop_
_symmetry_equiv_pos_site_id
_symmetry_equiv_pos_as_xyz
1 x,y,z
2 -x,-y,-z
_cell_length_a                   13.0323(9)
_cell_length_b                   14.4913(9)
_cell_length_c                   15.0428(10)
_cell_angle_alpha                84.817(2)
_cell_angle_beta                 65.3960(10)
_cell_angle_gamma                78.2150(10)
_cell_volume                     2528.48
loop_
_atom_site_label
_atom_site_type_symbol
_atom_site_fract_x
_atom_site_fract_y
_atom_site_fract_z
Co1 Co 0.27420(5) 0.21070(4) 0.96189(4)
Co2 Co -0.20959(5) 0.60513(4) 0.43641(4)
O1 O 0.3660(3) 0.3053(2) 0.8830(3)
O2 O 0.3398(5) 0.3815(3) 1.0128(3)
O3 O 0.3532(4) 0.7174(2) 0.7083(3)
O4 O 0.1762(4) 1.0722(3) 0.9834(3)
O5 O 0.3055(3) 1.1262(2) 0.8516(3)
O6 O -0.0894(3) 0.4930(2) 0.3770(3)
O7 O -0.2520(3) 0.4430(2) 0.4438(3)
O8 O 0.1087(3) 0.0610(2) 0.2805(4)
O9 O -0.1256(4) -0.2919(3) 0.4301(3)
O10 O -0.1210(3) -0.2893(3) 0.2842(3)
N1 N 0.1160(3) 0.2899(2) 0.9999(3)
N2 N -0.0185(3) 0.3748(3) 0.9606(3)
N3 N -0.2410(3) 0.5483(3) 0.7193(3)
N4 N -0.2620(3) 0.5868(3) 0.5839(3)
N5 N 0.3460(3) 0.1417(3) 1.0497(3)
N6 N 0.4006(4) 0.0341(3) 1.1401(3)
N7 N 0.5080(3) -0.2692(2) 1.3742(3)
N8 N 0.6408(3) -0.3423(3) 1.4219(3)
C1 C 0.3568(4) 0.3783(3) 0.9271(4)
C2 C 0.3620(4) 0.4680(3) 0.8678(3)
C3 C 0.3760(4) 0.5497(3) 0.9009(3)
H1 H 0.3874 0.5479 0.9581
C4 C 0.3729(4) 0.6322(3) 0.8495(4)
H2 H 0.3835 0.6859 0.8717
C5 C 0.3543(4) 0.6372(3) 0.7655(3)
C6 C 0.3420(4) 0.5558(3) 0.7309(3)
H3 H 0.3309 0.5576 0.6735
C7 C 0.3465(4) 0.4737(3) 0.7818(4)
H4 H 0.3388 0.4196 0.7580
C8 C 0.3175(5) 0.8041(3) 0.7532(4)
C9 C 0.2195(5) 0.8241(4) 0.8373(4)
H5 H 0.1719 0.7799 0.8644
C10 C 0.1923(5) 0.9112(3) 0.8811(4)
H6 H 0.1271 0.9248 0.9390
C11 C 0.2609(4) 0.9777(3) 0.8398(4)
C12 C 0.3524(4) 0.9581(3) 0.7505(4)
H7 H 0.3945 1.0049 0.7184
C13 C 0.3829(4) 0.8710(3) 0.7076(4)
H8 H 0.4467 0.8580 0.6487
C14 C 0.2428(5) 1.0646(3) 0.8959(4)
C15 C 0.0282(4) 0.3279(4) 1.0815(4)
H9 H 0.0257 0.3186 1.1443
C16 C -0.0554(4) 0.3813(4) 1.0592(4)
H10 H -0.1243 0.4156 1.1023
C17 C 0.0843(4) 0.3186(4) 0.9285(4)
H11 H 0.1281 0.3018 0.8634
C18 C -0.0753(4) 0.4218(3) 0.8992(4)
H12 H -0.0169 0.4342 0.8358
H13 H -0.1193 0.4822 0.9281
C19 C -0.1547(4) 0.3681(3) 0.8839(4)
C20 C -0.1724(4) 0.2807(4) 0.9226(4)
H14 H -0.1300 0.2490 0.9565
C21 C -0.2525(5) 0.2394(4) 0.9116(4)
H15 H -0.2648 0.1804 0.9390
C22 C -0.3143(5) 0.2848(4) 0.8604(5)
H16 H -0.3701 0.2577 0.8548
C23 C -0.2935(5) 0.3697(4) 0.8180(4)
H17 H -0.3334 0.3994 0.7814
C24 C -0.2135(4) 0.4128(4) 0.8286(3)
C25 C -0.1866(4) 0.5065(4) 0.7849(4)
H18 H -0.2092 0.5502 0.8377
H19 H -0.1040 0.4996 0.7489
C26 C -0.3342(5) 0.6157(5) 0.7423(4)
H20 H -0.3810 0.6414 0.8038
C27 C -0.3466(5) 0.6389(5) 0.6583(4)
H21 H -0.4052 0.6842 0.6522
C28 C -0.1989(4) 0.5336(3) 0.6238(3)
H22 H -0.1326 0.4908 0.5896
C29 C 0.4363(4) 0.1677(4) 1.0628(4)
H23 H 0.4671 0.2219 1.0385
C30 C 0.4703(5) 0.0993(4) 1.1173(4)
H24 H 0.5304 0.0971 1.1360
C31 C 0.3288(4) 0.0623(4) 1.0970(3)
H25 H 0.2730 0.0295 1.1002
C32 C 0.4052(5) -0.0520(4) 1.1992(4)
H26 H 0.4816 -0.0898 1.1700
H27 H 0.3515 -0.0883 1.1969
C33 C 0.3777(4) -0.0345(3) 1.3045(3)
C34 C 0.3293(4) 0.0534(4) 1.3467(4)
H28 H 0.3139 0.1038 1.3085
C35 C 0.3033(5) 0.0689(4) 1.4419(4)
H29 H 0.2701 0.1291 1.4677
C36 C 0.3251(6) -0.0020(4) 1.4991(4)
H30 H 0.3074 0.0089 1.5643
C37 C 0.3747(5) -0.0927(4) 1.4599(4)
H31 H 0.3892 -0.1423 1.4993
C38 C 0.4022(4) -0.1087(3) 1.3621(3)
C39 C 0.4540(4) -0.2055(3) 1.3193(4)
H32 H 0.3943 -0.2331 1.3152
H33 H 0.5109 -0.1997 1.2532
C40 C 0.6157(4) -0.2754(3) 1.3648(3)
H34 H 0.6663 -0.2376 1.3235
C41 C 0.4615(4) -0.3380(3) 1.4410(3)
H35 H 0.3880 -0.3510 1.4615
C42 C 0.5431(4) -0.3823(3) 1.4704(3)
H36 H 0.5357 -0.4314 1.5155
C43 C -0.1456(4) 0.4264(3) 0.3998(3)
C44 C -0.0826(4) 0.3267(3) 0.3723(3)
C45 C -0.1374(4) 0.2559(4) 0.3782(5)
H37 H -0.2171 0.2679 0.4018
C46 C -0.0776(4) 0.1656(4) 0.3499(5)
H38 H -0.1169 0.1169 0.3564
C47 C 0.0396(4) 0.1482(3) 0.3124(4)
C48 C 0.0965(4) 0.2204(3) 0.3036(5)
H39 H 0.1763 0.2099 0.2766
C49 C 0.0350(4) 0.3068(3) 0.3348(4)
H40 H 0.0741 0.3551 0.3307
C50 C 0.0576(4) -0.0171(4) 0.2957(5)
C51 C 0.0148(5) -0.0379(4) 0.2328(5)
H41 H 0.0180 0.0017 0.1799
C52 C -0.0336(5) -0.1180(4) 0.2474(5)
H42 H -0.0612 -0.1331 0.2037
C53 C -0.0402(4) -0.1740(3) 0.3263(4)
C54 C 0.0048(6) -0.1534(4) 0.3889(4)
H43 H 0.0017 -0.1929 0.4419
C55 C 0.0542(6) -0.0749(4) 0.3737(5)
H44 H 0.0849 -0.0613 0.4158
C56 C -0.1001(5) -0.2592(4) 0.3465(4)
Co1_2 Co 0.27420(5) 1.21070(4) 0.96189(4)
Co2_2 Co -0.20959(5) -0.39487(4) 0.43641(4)
Co2_3 Co 0.79041(5) -0.39487(4) 1.43641(4)
O5_2 O 0.3055(3) 0.1262(2) 0.8516(3)
O9_2 O -0.1256(4) 0.7081(3) 0.4301(3)
N8_2 N -0.3592(3) 0.6577(3) 0.4219(3)
loop_
_geom_bond_atom_site_label_1
_geom_bond_atom_site_label_2
_geom_bond_site_symmetry_1
_geom_bond_site_symmetry_2
Co1 O1 1_555 1_555
Co2 O6 1_555 1_555
O1 C1 1_555 1_555
O2 C1 1_555 1_555
O3 C5 1_555 1_555
O4 C14 1_555 1_555
O5 C14 1_555 1_555
O6 C43 1_555 1_555
O7 C43 1_555 1_555
O8 C47 1_555 1_555
O9 C56 1_555 1_555
O10 C56 1_555 1_555
N1 Co1 1_555 1_555
N2 C16 1_555 1_555
N3 C25 1_555 1_555
N4 Co2 1_555 1_555
N5 Co1 1_555 1_555
N6 C30 1_555 1_555
N7 C39 1_555 1_555
N8 C40 1_555 1_555
C1 C2 1_555 1_555
C2 C3 1_555 1_555
C3 H1 1_555 1_555
C4 C3 1_555 1_555
H2 C4 1_555 1_555
C5 C4 1_555 1_555
C6 C5 1_555 1_555
H3 C6 1_555 1_555
C7 C2 1_555 1_555
H4 C7 1_555 1_555
C8 O3 1_555 1_555
C9 C8 1_555 1_555
H5 C9 1_555 1_555
C10 C9 1_555 1_555
H6 C10 1_555 1_555
C11 C10 1_555 1_555
C12 C11 1_555 1_555
H7 C12 1_555 1_555
C13 C8 1_555 1_555
H8 C13 1_555 1_555
C14 C11 1_555 1_555
C15 N1 1_555 1_555
H9 C15 1_555 1_555
C16 C15 1_555 1_555
H10 C16 1_555 1_555
C17 N1 1_555 1_555
H11 C17 1_555 1_555
C18 N2 1_555 1_555
H12 C18 1_555 1_555
H13 C18 1_555 1_555
C19 C18 1_555 1_555
C20 C19 1_555 1_555
H14 C20 1_555 1_555
C21 C20 1_555 1_555
H15 C21 1_555 1_555
C22 C21 1_555 1_555
H16 C22 1_555 1_555
C23 C22 1_555 1_555
H17 C23 1_555 1_555
C24 C19 1_555 1_555
C25 C24 1_555 1_555
H18 C25 1_555 1_555
H19 C25 1_555 1_555
C26 N3 1_555 1_555
H20 C26 1_555 1_555
C27 N4 1_555 1_555
H21 C27 1_555 1_555
C28 N3 1_555 1_555
H22 C28 1_555 1_555
C29 N5 1_555 1_555
H23 C29 1_555 1_555
C30 C29 1_555 1_555
H24 C30 1_555 1_555
C31 N5 1_555 1_555
H25 C31 1_555 1_555
C32 N6 1_555 1_555
H26 C32 1_555 1_555
H27 C32 1_555 1_555
C33 C32 1_555 1_555
C34 C33 1_555 1_555
H28 C34 1_555 1_555
C35 C34 1_555 1_555
H29 C35 1_555 1_555
C36 C35 1_555 1_555
H30 C36 1_555 1_555
C37 C36 1_555 1_555
H31 C37 1_555 1_555
C38 C33 1_555 1_555
C39 C38 1_555 1_555
H32 C39 1_555 1_555
H33 C39 1_555 1_555
C40 N7 1_555 1_555
H34 C40 1_555 1_555
C41 N7 1_555 1_555
H35 C41 1_555 1_555
C42 N8 1_555 1_555
H36 C42 1_555 1_555
C43 C44 1_555 1_555
C44 C45 1_555 1_555
C45 H37 1_555 1_555
C46 C45 1_555 1_555
H38 C46 1_555 1_555
C47 C46 1_555 1_555
C48 C47 1_555 1_555
H39 C48 1_555 1_555
C49 C44 1_555 1_555
H40 C49 1_555 1_555
C50 O8 1_555 1_555
C51 C50 1_555 1_555
H41 C51 1_555 1_555
C52 C51 1_555 1_555
H42 C52 1_555 1_555
C53 C52 1_555 1_555
C54 C53 1_555 1_555
H43 C54 1_555 1_555
C55 C50 1_555 1_555
H44 C55 1_555 1_555
C56 C53 1_555 1_555
Co1_2 O5 1_555 1_555
Co2_2 O9 1_555 1_555
Co2_3 N8 1_555 1_555
O5_2 Co1 1_555 1_555
O9_2 Co2 1_555 1_555
N8_2 Co2 1_555 1_555
N2 C17 1_555 1_555
N4 C28 1_555 1_555
N6 C31 1_555 1_555
C6 C7 1_555 1_555
C12 C13 1_555 1_555
C23 C24 1_555 1_555
C26 C27 1_555 1_555
C37 C38 1_555 1_555
C41 C42 1_555 1_555
C48 C49 1_555 1_555
C54 C55 1_555 1_555

#END
