
#######################################################################
#
#                 Cambridge Crystallographic Data Centre
#                                CCDC 
#
#######################################################################
#
# If this CIF has been generated from an entry in the Cambridge 
# Structural Database, then it will include bibliographic, chemical, 
# crystal, experimental, refinement or atomic coordinate data resulting 
# from the CCDC's data processing and validation procedures.
#
#######################################################################

data_VEWRIZ
_symmetry_cell_setting           monoclinic
_symmetry_space_group_name_H-M   'P 21/c'
_symmetry_Int_Tables_number      14
_space_group_name_Hall           '-P 2ybc'
loop_
_symmetry_equiv_pos_site_id
_symmetry_equiv_pos_as_xyz
1 x,y,z
2 -x,1/2+y,1/2-z
3 -x,-y,-z
4 x,1/2-y,1/2+z
_cell_length_a                   13.5213(6)
_cell_length_b                   19.5377(9)
_cell_length_c                   11.3302(5)
_cell_angle_alpha                90
_cell_angle_beta                 104.5450(10)
_cell_angle_gamma                90
_cell_volume                     2897.23
loop_
_atom_site_label
_atom_site_type_symbol
_atom_site_fract_x
_atom_site_fract_y
_atom_site_fract_z
C1 C 0.62804(19) 0.74312(14) 0.9829(3)
H1 H 0.6141 0.7766 0.9163
H2 H 0.7004 0.7453 1.0265
H3 H 0.5858 0.7535 1.0394
C2 C 0.60338(18) 0.67292(12) 0.9319(2)
C3 C 0.67090(17) 0.62963(13) 0.8860(2)
C4 C 0.61843(17) 0.57069(13) 0.8475(2)
C5 C 0.51857(17) 0.57904(12) 0.8715(2)
C6 C 0.44048(17) 0.53254(12) 0.8481(2)
H4 H 0.4538 0.4904 0.8131
C7 C 0.34218(17) 0.53944(11) 0.8697(2)
C8 C 0.26448(17) 0.48816(11) 0.8500(2)
C9 C 0.18478(17) 0.51546(11) 0.8906(2)
C10 C 0.21519(16) 0.58313(11) 0.9325(2)
C11 C 0.15790(17) 0.62995(12) 0.9840(2)
H5 H 0.0950 0.6131 0.9953
C12 C 0.18079(17) 0.69608(11) 1.0196(2)
C13 C 0.11902(17) 0.74374(12) 1.0682(2)
C14 C 0.16956(18) 0.80429(12) 1.0826(2)
C15 C 0.26330(18) 0.79349(12) 1.0453(2)
C16 C 0.3456(2) 0.84501(13) 1.0513(3)
H6 H 0.4109 0.8215 1.0585
H7 H 0.3507 0.8747 1.1223
H8 H 0.3295 0.8728 0.9769
C17 C 0.77871(18) 0.64730(15) 0.8850(3)
H9 H 0.8175 0.6044 0.8844
H10 H 0.8109 0.6722 0.9610
C18 C 0.7874(3) 0.69100(19) 0.7764(3)
H11 H 0.7626 0.6649 0.7009
H12 H 0.8590 0.7037 0.7852
H13 H 0.7461 0.7325 0.7733
C19 C 0.6533(2) 0.50950(14) 0.7896(3)
H14 H 0.6272 0.4675 0.8202
H15 H 0.7289 0.5076 0.8135
C20 C 0.6172(4) 0.5113(2) 0.6526(3)
H16 H 0.5423 0.5125 0.6285
H17 H 0.6413 0.4703 0.6185
H18 H 0.6443 0.5521 0.6217
C21 C 0.27051(18) 0.41828(12) 0.7965(2)
H19 H 0.2227 0.3873 0.8238
H20 H 0.3404 0.4000 0.8284
C22 C 0.2451(3) 0.41807(17) 0.6588(3)
H21 H 0.1749 0.4342 0.6264
H22 H 0.2516 0.3715 0.6297
H23 H 0.2923 0.4484 0.6309
C23 C 0.08442(17) 0.48243(12) 0.8908(2)
H24 H 0.0709 0.4895 0.9719
H25 H 0.0904 0.4325 0.8791
C24 C -0.00684(19) 0.50910(15) 0.7936(3)
H26 H -0.0145 0.5584 0.8050
H27 H -0.0689 0.4853 0.8007
H28 H 0.0042 0.5007 0.7126
C25 C 0.02191(19) 0.72624(14) 1.1014(2)
H29 H -0.0153 0.6912 1.0440
H30 H -0.0217 0.7676 1.0927
C26 C 0.0402(3) 0.69933(17) 1.2307(3)
H31 H 0.0838 0.6586 1.2401
H32 H -0.0253 0.6873 1.2474
H33 H 0.0740 0.7347 1.2882
C27 C 0.1368(2) 0.87173(13) 1.1231(2)
H34 H 0.1967 0.8951 1.1760
H35 H 0.0863 0.8638 1.1716
C28 C 0.0894(3) 0.91766(16) 1.0146(3)
H36 H 0.1384 0.9243 0.9649
H37 H 0.0720 0.9621 1.0442
H38 H 0.0274 0.8960 0.9651
C29 C 0.41530(18) 0.78485(12) 0.7597(2)
N1 N 0.51389(14) 0.64342(10) 0.92421(17)
N2 N 0.31017(13) 0.59704(9) 0.91771(16)
N3 N 0.26977(14) 0.73001(9) 1.00818(17)
N4 N 0.37817(16) 0.74909(10) 0.81738(18)
Ni1 Ni 0.38698(2) 0.683304(14) 0.96189(3)
S1 S 0.47445(5) 0.83408(3) 0.68024(6)
Ni1C Ni 0.38698(2) 0.816696(14) 0.46189(3)
S1C S 0.47445(5) 0.66592(3) 1.18024(6)
loop_
_geom_bond_atom_site_label_1
_geom_bond_atom_site_label_2
_geom_bond_site_symmetry_1
_geom_bond_site_symmetry_2
C1 H1 1_555 1_555
H2 C1 1_555 1_555
H3 C1 1_555 1_555
C2 C1 1_555 1_555
C3 C2 1_555 1_555
C4 C3 1_555 1_555
C5 C4 1_555 1_555
C6 C5 1_555 1_555
H4 C6 1_555 1_555
C7 C6 1_555 1_555
C8 C7 1_555 1_555
C9 C8 1_555 1_555
C10 C9 1_555 1_555
C11 C10 1_555 1_555
H5 C11 1_555 1_555
C12 C11 1_555 1_555
C13 C12 1_555 1_555
C14 C13 1_555 1_555
C15 C14 1_555 1_555
C16 C15 1_555 1_555
H6 C16 1_555 1_555
H7 C16 1_555 1_555
H8 C16 1_555 1_555
C17 C3 1_555 1_555
H9 C17 1_555 1_555
H10 C17 1_555 1_555
C18 C17 1_555 1_555
H11 C18 1_555 1_555
H12 C18 1_555 1_555
H13 C18 1_555 1_555
C19 C4 1_555 1_555
H14 C19 1_555 1_555
H15 C19 1_555 1_555
C20 C19 1_555 1_555
H16 C20 1_555 1_555
H17 C20 1_555 1_555
H18 C20 1_555 1_555
C21 C8 1_555 1_555
H19 C21 1_555 1_555
H20 C21 1_555 1_555
C22 C21 1_555 1_555
H21 C22 1_555 1_555
H22 C22 1_555 1_555
H23 C22 1_555 1_555
C23 C9 1_555 1_555
H24 C23 1_555 1_555
H25 C23 1_555 1_555
C24 C23 1_555 1_555
H26 C24 1_555 1_555
H27 C24 1_555 1_555
H28 C24 1_555 1_555
C25 C13 1_555 1_555
H29 C25 1_555 1_555
H30 C25 1_555 1_555
C26 C25 1_555 1_555
H31 C26 1_555 1_555
H32 C26 1_555 1_555
H33 C26 1_555 1_555
C27 C14 1_555 1_555
H34 C27 1_555 1_555
H35 C27 1_555 1_555
C28 C27 1_555 1_555
H36 C28 1_555 1_555
H37 C28 1_555 1_555
H38 C28 1_555 1_555
C29 N4 1_555 1_555
N1 C2 1_555 1_555
N2 C7 1_555 1_555
N3 C12 1_555 1_555
N4 Ni1 1_555 1_555
Ni1 N1 1_555 1_555
S1 C29 1_555 1_555
Ni1C S1 1_555 1_555
S1C Ni1 1_555 1_555
C5 N1 1_555 1_555
C10 N2 1_555 1_555
C15 N3 1_555 1_555
N2 Ni1 1_555 1_555
N3 Ni1 1_555 1_555

#END
