
#######################################################################
#
#                 Cambridge Crystallographic Data Centre
#                                CCDC 
#
#######################################################################
#
# If this CIF has been generated from an entry in the Cambridge 
# Structural Database, then it will include bibliographic, chemical, 
# crystal, experimental, refinement or atomic coordinate data resulting 
# from the CCDC's data processing and validation procedures.
#
#######################################################################

data_VEWRUL
_symmetry_cell_setting           monoclinic
_symmetry_space_group_name_H-M   'P 21'
_symmetry_Int_Tables_number      4
_space_group_name_Hall           'P 2yb'
loop_
_symmetry_equiv_pos_site_id
_symmetry_equiv_pos_as_xyz
1 x,y,z
2 -x,1/2+y,-z
_cell_length_a                   12.9401(8)
_cell_length_b                   15.7676(10)
_cell_length_c                   13.8538(9)
_cell_angle_alpha                90
_cell_angle_beta                 104.3800(10)
_cell_angle_gamma                90
_cell_volume                     2738.09
loop_
_atom_site_label
_atom_site_type_symbol
_atom_site_fract_x
_atom_site_fract_y
_atom_site_fract_z
C1 C 0.3626(2) 0.32611(15) -0.0314(2)
H1 H 0.3551 0.2692 -0.0055
H2 H 0.4380 0.3426 -0.0137
H3 H 0.3357 0.3260 -0.1041
C2 C 0.29970(17) 0.38803(14) 0.01307(16)
C3 C 0.31358(19) 0.47994(15) 0.01734(17)
C4 C 0.24290(18) 0.51003(14) 0.06670(16)
C5 C 0.18493(17) 0.43736(15) 0.09110(16)
C6 C 0.10223(18) 0.43806(14) 0.13767(16)
H4 H 0.0827 0.4921 0.1578
C7 C 0.04307(17) 0.36830(13) 0.15909(15)
C8 C -0.05072(17) 0.37289(14) 0.19611(16)
C9 C -0.08584(17) 0.29031(14) 0.20068(16)
C10 C -0.01216(16) 0.23755(15) 0.16605(15)
C11 C -0.01486(16) 0.14724(16) 0.16068(15)
H5 H -0.0716 0.1208 0.1816
C12 C 0.05301(18) 0.09379(14) 0.12951(16)
C13 C 0.04645(19) 0.00161(14) 0.12541(17)
C14 C 0.12802(19) -0.02532(14) 0.08674(16)
C15 C 0.18441(19) 0.05007(18) 0.06894(16)
C16 C 0.2808(2) 0.05317(16) 0.0265(2)
H6 H 0.2926 0.1116 0.0076
H7 H 0.2690 0.0166 -0.0325
H8 H 0.3436 0.0333 0.0766
C17 C 0.3905(2) 0.52716(16) -0.0270(2)
H9 H 0.4594 0.4965 -0.0116
H10 H 0.4031 0.5839 0.0042
C18 C 0.3512(3) 0.5376(2) -0.1397(2)
H11 H 0.3432 0.4816 -0.1715
H12 H 0.4030 0.5711 -0.1645
H13 H 0.2821 0.5668 -0.1556
C19 C 0.2238(2) 0.60042(14) 0.09271(19)
H14 H 0.2765 0.6374 0.0740
H15 H 0.2305 0.6049 0.1646
H16 H 0.1519 0.6178 0.0565
C20 C -0.09883(18) 0.45129(15) 0.22763(17)
H17 H -0.1759 0.4416 0.2210
H18 H -0.0917 0.4986 0.1827
C21 C -0.0458(2) 0.47645(16) 0.33527(18)
H19 H -0.0498 0.4289 0.3798
H20 H -0.0827 0.5257 0.3540
H21 H 0.0292 0.4908 0.3409
C22 C -0.18645(18) 0.26170(15) 0.22639(18)
H22 H -0.2008 0.2990 0.2791
H23 H -0.1765 0.2033 0.2532
C23 C -0.2824(2) 0.26360(19) 0.1360(2)
H24 H -0.2950 0.3219 0.1115
H25 H -0.3457 0.2426 0.1554
H26 H -0.2681 0.2275 0.0833
C24 C -0.0328(2) -0.05115(16) 0.1608(2)
H27 H -0.0362 -0.1078 0.1312
H28 H -0.1033 -0.0243 0.1408
H29 H -0.0110 -0.0559 0.2336
C25 C 0.1580(2) -0.11509(15) 0.06767(18)
H30 H 0.1846 -0.1162 0.0066
H31 H 0.0934 -0.1511 0.0557
C26 C 0.2428(3) -0.15229(19) 0.1535(3)
H32 H 0.3057 -0.1154 0.1681
H33 H 0.2628 -0.2089 0.1351
H34 H 0.2144 -0.1565 0.2127
C27 C 0.05961(18) 0.20486(16) -0.14449(18)
C28 C 0.39459(18) 0.19590(14) 0.22852(16)
C29 C 0.54386(18) 0.15801(14) 0.34936(17)
C30 C -0.07134(18) 0.16860(14) -0.28319(17)
C31 C 0.79559(19) 0.34156(16) 0.5197(2)
H35 H 0.8594 0.3321 0.5739
H36 H 0.8009 0.3967 0.4887
H37 H 0.7898 0.2967 0.4697
C32 C 0.69838(18) 0.34032(18) 0.56070(17)
C33 C 0.6352(2) 0.41332(15) 0.57666(17)
C34 C 0.55790(18) 0.38246(14) 0.61737(17)
C35 C 0.57406(17) 0.29070(14) 0.62695(17)
C36 C 0.51967(17) 0.23438(15) 0.67069(17)
H38 H 0.4629 0.2573 0.6947
C37 C 0.53734(16) 0.14568(15) 0.68494(16)
C38 C 0.48462(18) 0.09111(15) 0.73984(18)
C39 C 0.52641(17) 0.01074(14) 0.73430(16)
C40 C 0.60247(17) 0.01886(14) 0.67645(17)
C41 C 0.66110(17) -0.04888(14) 0.64777(16)
H39 H 0.6540 -0.1025 0.6768
C42 C 0.72635(19) -0.04695(14) 0.58378(17)
C43 C 0.77620(18) -0.11829(14) 0.54794(17)
C44 C 0.82683(18) -0.08693(14) 0.48009(17)
C45 C 0.80700(17) 0.00374(14) 0.47572(17)
C46 C 0.8498(2) 0.06620(16) 0.4135(2)
H40 H 0.8136 0.0582 0.3431
H41 H 0.9266 0.0571 0.4230
H42 H 0.8371 0.1240 0.4339
C47 C 0.6564(2) 0.50412(16) 0.5540(2)
H43 H 0.5899 0.5373 0.5460
H44 H 0.6777 0.5065 0.4902
C48 C 0.7442(3) 0.54425(19) 0.6362(2)
H45 H 0.7256 0.5386 0.7003
H46 H 0.7511 0.6044 0.6214
H47 H 0.8120 0.5153 0.6396
C49 C 0.4736(2) 0.43036(16) 0.6516(2)
H48 H 0.4989 0.4429 0.7229
H49 H 0.4086 0.3960 0.6402
H50 H 0.4580 0.4835 0.6142
C50 C 0.3976(2) 0.11597(18) 0.7885(2)
H51 H 0.4121 0.1738 0.8166
H52 H 0.3982 0.0767 0.8444
C51 C 0.2878(2) 0.1145(2) 0.7167(3)
H53 H 0.2858 0.1548 0.6625
H54 H 0.2339 0.1303 0.7523
H55 H 0.2727 0.0573 0.6891
C52 C 0.49464(19) -0.07172(15) 0.77428(17)
H56 H 0.4622 -0.0595 0.8304
H57 H 0.5593 -0.1065 0.8003
C53 C 0.4161(2) -0.12201(17) 0.6956(2)
H58 H 0.3525 -0.0875 0.6685
H59 H 0.3956 -0.1736 0.7255
H60 H 0.4494 -0.1374 0.6417
C54 C 0.7721(2) -0.20788(15) 0.5825(2)
H61 H 0.6990 -0.2294 0.5599
H62 H 0.7944 -0.2098 0.6554
H63 H 0.8201 -0.2431 0.5548
C55 C 0.8861(2) -0.13484(17) 0.4168(2)
H64 H 0.9157 -0.1875 0.4519
H65 H 0.9467 -0.0999 0.4081
C56 C 0.8163(3) -0.1576(2) 0.3153(2)
H66 H 0.7544 -0.1900 0.3234
H67 H 0.8573 -0.1919 0.2790
H68 H 0.7920 -0.1056 0.2778
N1 N 0.22551(14) 0.36363(11) 0.05654(13)
N2 N 0.06481(15) 0.28559(12) 0.14043(14)
N3 N 0.14071(15) 0.12017(11) 0.09438(14)
N4 N 0.10152(15) 0.23276(12) -0.06940(14)
N5 N 0.31577(14) 0.22833(12) 0.19015(14)
N6 N 0.4833(2) 0.15358(19) 0.25995(17)
N7 N 0.60516(15) 0.15506(13) 0.42491(13)
N8 N -0.15313(15) 0.16248(12) -0.33622(14)
N9 N 0.0262(2) 0.1670(3) -0.2294(2)
N10 N 0.66097(14) 0.26877(11) 0.58855(13)
N11 N 0.60790(14) 0.10096(11) 0.64680(14)
N12 N 0.74848(13) 0.02732(11) 0.53544(13)
Ni1 Ni 0.17750(2) 0.244447(14) 0.079337(19)
Ni2 Ni 0.70149(2) 0.146479(14) 0.566147(19)
N8_2 N 0.84687(15) 0.16248(12) 0.66378(14)
Ni2_2 Ni -0.29851(2) 0.146479(14) -0.433853(19)
loop_
_geom_bond_atom_site_label_1
_geom_bond_atom_site_label_2
_geom_bond_site_symmetry_1
_geom_bond_site_symmetry_2
C1 H1 1_555 1_555
H2 C1 1_555 1_555
H3 C1 1_555 1_555
C2 C1 1_555 1_555
C3 C2 1_555 1_555
C4 C3 1_555 1_555
C5 C4 1_555 1_555
C6 C5 1_555 1_555
H4 C6 1_555 1_555
C7 C6 1_555 1_555
C8 C7 1_555 1_555
C9 C8 1_555 1_555
C10 C9 1_555 1_555
C11 C10 1_555 1_555
H5 C11 1_555 1_555
C12 C11 1_555 1_555
C13 C12 1_555 1_555
C14 C13 1_555 1_555
C15 C14 1_555 1_555
C16 C15 1_555 1_555
H6 C16 1_555 1_555
H7 C16 1_555 1_555
H8 C16 1_555 1_555
C17 C3 1_555 1_555
H9 C17 1_555 1_555
H10 C17 1_555 1_555
C18 C17 1_555 1_555
H11 C18 1_555 1_555
H12 C18 1_555 1_555
H13 C18 1_555 1_555
C19 C4 1_555 1_555
H14 C19 1_555 1_555
H15 C19 1_555 1_555
H16 C19 1_555 1_555
C20 C8 1_555 1_555
H17 C20 1_555 1_555
H18 C20 1_555 1_555
C21 C20 1_555 1_555
H19 C21 1_555 1_555
H20 C21 1_555 1_555
H21 C21 1_555 1_555
C22 C9 1_555 1_555
H22 C22 1_555 1_555
H23 C22 1_555 1_555
C23 C22 1_555 1_555
H24 C23 1_555 1_555
H25 C23 1_555 1_555
H26 C23 1_555 1_555
C24 C13 1_555 1_555
H27 C24 1_555 1_555
H28 C24 1_555 1_555
H29 C24 1_555 1_555
C25 C14 1_555 1_555
H30 C25 1_555 1_555
H31 C25 1_555 1_555
C26 C25 1_555 1_555
H32 C26 1_555 1_555
H33 C26 1_555 1_555
H34 C26 1_555 1_555
C27 N4 1_555 1_555
C28 N5 1_555 1_555
C29 N6 1_555 1_555
C30 N8 1_555 1_555
C31 H35 1_555 1_555
H36 C31 1_555 1_555
H37 C31 1_555 1_555
C32 C31 1_555 1_555
C33 C32 1_555 1_555
C34 C33 1_555 1_555
C35 C34 1_555 1_555
C36 C35 1_555 1_555
H38 C36 1_555 1_555
C37 C36 1_555 1_555
C38 C37 1_555 1_555
C39 C38 1_555 1_555
C40 C39 1_555 1_555
C41 C40 1_555 1_555
H39 C41 1_555 1_555
C42 C41 1_555 1_555
C43 C42 1_555 1_555
C44 C43 1_555 1_555
C45 C44 1_555 1_555
C46 C45 1_555 1_555
H40 C46 1_555 1_555
H41 C46 1_555 1_555
H42 C46 1_555 1_555
C47 C33 1_555 1_555
H43 C47 1_555 1_555
H44 C47 1_555 1_555
C48 C47 1_555 1_555
H45 C48 1_555 1_555
H46 C48 1_555 1_555
H47 C48 1_555 1_555
C49 C34 1_555 1_555
H48 C49 1_555 1_555
H49 C49 1_555 1_555
H50 C49 1_555 1_555
C50 C38 1_555 1_555
H51 C50 1_555 1_555
H52 C50 1_555 1_555
C51 C50 1_555 1_555
H53 C51 1_555 1_555
H54 C51 1_555 1_555
H55 C51 1_555 1_555
C52 C39 1_555 1_555
H56 C52 1_555 1_555
H57 C52 1_555 1_555
C53 C52 1_555 1_555
H58 C53 1_555 1_555
H59 C53 1_555 1_555
H60 C53 1_555 1_555
C54 C43 1_555 1_555
H61 C54 1_555 1_555
H62 C54 1_555 1_555
H63 C54 1_555 1_555
C55 C44 1_555 1_555
H64 C55 1_555 1_555
H65 C55 1_555 1_555
C56 C55 1_555 1_555
H66 C56 1_555 1_555
H67 C56 1_555 1_555
H68 C56 1_555 1_555
N1 C2 1_555 1_555
N2 C7 1_555 1_555
N3 C12 1_555 1_555
N4 Ni1 1_555 1_555
N5 Ni1 1_555 1_555
N6 C28 1_555 1_555
N7 C29 1_555 1_555
N8 Ni2_2 1_555 1_555
N9 C27 1_555 1_555
N10 C32 1_555 1_555
N11 C37 1_555 1_555
N12 C42 1_555 1_555
Ni1 N1 1_555 1_555
Ni2 N7 1_555 1_555
N8_2 Ni2 1_555 1_555
C5 N1 1_555 1_555
C10 N2 1_555 1_555
C15 N3 1_555 1_555
C30 N9 1_555 1_555
C35 N10 1_555 1_555
C40 N11 1_555 1_555
C45 N12 1_555 1_555
N2 Ni1 1_555 1_555
N3 Ni1 1_555 1_555
N10 Ni2 1_555 1_555
N11 Ni2 1_555 1_555
N12 Ni2 1_555 1_555

#END
