
#######################################################################
#
#                 Cambridge Crystallographic Data Centre
#                                CCDC 
#
#######################################################################
#
# If this CIF has been generated from an entry in the Cambridge 
# Structural Database, then it will include bibliographic, chemical, 
# crystal, experimental, refinement or atomic coordinate data resulting 
# from the CCDC's data processing and validation procedures.
#
#######################################################################

data_VEWSAS
_symmetry_cell_setting           monoclinic
_symmetry_space_group_name_H-M   'P 21/n'
_symmetry_Int_Tables_number      14
_space_group_name_Hall           '-P 2yn'
loop_
_symmetry_equiv_pos_site_id
_symmetry_equiv_pos_as_xyz
1 x,y,z
2 1/2-x,1/2+y,1/2-z
3 -x,-y,-z
4 1/2+x,1/2-y,1/2+z
_cell_length_a                   8.4291(8)
_cell_length_b                   29.267(3)
_cell_length_c                   11.4946(11)
_cell_angle_alpha                90
_cell_angle_beta                 105.303(2)
_cell_angle_gamma                90
_cell_volume                     2735.11
loop_
_atom_site_label
_atom_site_type_symbol
_atom_site_fract_x
_atom_site_fract_y
_atom_site_fract_z
C1 C 0.2435(6) 0.93984(15) 0.3348(4)
H1 H 0.1659 0.9572 0.3646
H2 H 0.3532 0.9479 0.3790
H3 H 0.2261 0.9078 0.3449
C2 C 0.2208(5) 0.94999(13) 0.2051(4)
C3 C 0.2390(5) 0.99423(13) 0.1552(4)
C4 C 0.2095(5) 0.98831(13) 0.0344(4)
C5 C 0.1718(5) 0.94025(13) 0.0116(4)
C6 C 0.1310(5) 0.91903(13) -0.0973(4)
H4 H 0.1212 0.9378 -0.1641
C7 C 0.1015(5) 0.87189(13) -0.1221(3)
C8 C 0.0636(5) 0.85107(13) -0.2386(4)
C9 C 0.0620(4) 0.80469(13) -0.2193(3)
C10 C 0.0895(4) 0.79907(12) -0.0928(3)
C11 C 0.0916(4) 0.75697(12) -0.0331(3)
H5 H 0.0752 0.7312 -0.0822
C12 C 0.1145(4) 0.74899(12) 0.0866(3)
C13 C 0.1225(4) 0.70556(12) 0.1461(3)
C14 C 0.1501(4) 0.71430(12) 0.2656(3)
C15 C 0.1557(4) 0.76314(12) 0.2776(3)
C16 C 0.1775(5) 0.78937(14) 0.3912(3)
H6 H 0.2100 0.8201 0.3794
H7 H 0.2608 0.7751 0.4541
H8 H 0.0756 0.7899 0.4137
C17 C 0.2872(6) 1.03684(15) 0.2275(5)
H9 H 0.2371 1.0629 0.1797
H10 H 0.2453 1.0355 0.2983
C18 C 0.4688(8) 1.0433(2) 0.2660(9)
H11 H 0.5187 1.0180 0.3155
H12 H 0.4942 1.0712 0.3113
H13 H 0.5107 1.0449 0.1961
C19 C 0.2169(6) 1.02283(15) -0.0586(5)
H14 H 0.1991 1.0527 -0.0300
H15 H 0.1333 1.0164 -0.1314
H16 H 0.3230 1.0217 -0.0746
C20 C 0.0293(7) 0.87550(18) -0.3576(4)
H17 H -0.0391 0.8564 -0.4201
H18 H -0.0300 0.9036 -0.3533
C21 C 0.1804(8) 0.8858(2) -0.3874(6)
H19 H 0.2483 0.9045 -0.3251
H20 H 0.1569 0.9020 -0.4627
H21 H 0.2371 0.8579 -0.3943
C22 C 0.0437(4) 0.76716(13) -0.3086(3)
H22 H -0.0030 0.7794 -0.3887
H23 H -0.0326 0.7447 -0.2927
C23 C 0.2057(5) 0.74380(14) -0.3053(3)
H24 H 0.2840 0.7662 -0.3158
H25 H 0.1888 0.7217 -0.3690
H26 H 0.2468 0.7288 -0.2290
C24 C 0.1062(5) 0.66049(13) 0.0847(4)
H27 H 0.1577 0.6374 0.1415
H28 H 0.1585 0.6616 0.0200
H29 H -0.0082 0.6533 0.0530
C25 C 0.1739(5) 0.68087(13) 0.3676(3)
H30 H 0.2533 0.6934 0.4373
H31 H 0.2199 0.6529 0.3449
C26 C 0.0179(5) 0.66925(17) 0.4032(4)
H32 H -0.0228 0.6961 0.4336
H33 H 0.0412 0.6461 0.4645
H34 H -0.0635 0.6582 0.3339
C27 C 0.5413(4) 0.86405(13) 0.2323(3)
C28 C 0.6961(4) 0.88518(13) 0.2656(3)
C29 C 0.7244(5) 0.92130(17) 0.3493(5)
C30 C 0.8227(4) 0.87208(12) 0.2143(3)
N1 N 0.1831(3) 0.91839(10) 0.1214(3)
N2 N 0.1137(3) 0.83989(10) -0.0354(2)
N3 N 0.1369(3) 0.78366(10) 0.1734(3)
N4 N 0.4131(4) 0.84865(10) 0.2086(3)
N5 N 0.9298(4) 0.86287(10) 0.1742(3)
N6 N 0.7462(6) 0.95001(18) 0.4194(5)
Ni1 Ni 0.15407(5) 0.850560(14) 0.13805(4)
N5_2 N -0.0702(4) 0.86287(10) 0.1742(3)
Ni1_2 Ni 1.15407(5) 0.850560(14) 0.13805(4)
loop_
_geom_bond_atom_site_label_1
_geom_bond_atom_site_label_2
_geom_bond_site_symmetry_1
_geom_bond_site_symmetry_2
C1 H1 1_555 1_555
H2 C1 1_555 1_555
H3 C1 1_555 1_555
C2 C1 1_555 1_555
C3 C2 1_555 1_555
C4 C3 1_555 1_555
C5 C4 1_555 1_555
C6 C5 1_555 1_555
H4 C6 1_555 1_555
C7 C6 1_555 1_555
C8 C7 1_555 1_555
C9 C8 1_555 1_555
C10 C9 1_555 1_555
C11 C10 1_555 1_555
H5 C11 1_555 1_555
C12 C11 1_555 1_555
C13 C12 1_555 1_555
C14 C13 1_555 1_555
C15 C14 1_555 1_555
C16 C15 1_555 1_555
H6 C16 1_555 1_555
H7 C16 1_555 1_555
H8 C16 1_555 1_555
C17 C3 1_555 1_555
H9 C17 1_555 1_555
H10 C17 1_555 1_555
C18 C17 1_555 1_555
H11 C18 1_555 1_555
H12 C18 1_555 1_555
H13 C18 1_555 1_555
C19 C4 1_555 1_555
H14 C19 1_555 1_555
H15 C19 1_555 1_555
H16 C19 1_555 1_555
C20 C8 1_555 1_555
H17 C20 1_555 1_555
H18 C20 1_555 1_555
C21 C20 1_555 1_555
H19 C21 1_555 1_555
H20 C21 1_555 1_555
H21 C21 1_555 1_555
C22 C9 1_555 1_555
H22 C22 1_555 1_555
H23 C22 1_555 1_555
C23 C22 1_555 1_555
H24 C23 1_555 1_555
H25 C23 1_555 1_555
H26 C23 1_555 1_555
C24 C13 1_555 1_555
H27 C24 1_555 1_555
H28 C24 1_555 1_555
H29 C24 1_555 1_555
C25 C14 1_555 1_555
H30 C25 1_555 1_555
H31 C25 1_555 1_555
C26 C25 1_555 1_555
H32 C26 1_555 1_555
H33 C26 1_555 1_555
H34 C26 1_555 1_555
C27 C28 1_555 1_555
C28 C29 1_555 1_555
C29 N6 1_555 1_555
C30 C28 1_555 1_555
N1 C2 1_555 1_555
N2 C7 1_555 1_555
N3 C12 1_555 1_555
N4 C27 1_555 1_555
N5 C30 1_555 1_555
Ni1 N1 1_555 1_555
N5_2 Ni1 1_555 1_555
Ni1_2 N5 1_555 1_555
C5 N1 1_555 1_555
C10 N2 1_555 1_555
C15 N3 1_555 1_555
N2 Ni1 1_555 1_555
N3 Ni1 1_555 1_555
N4 Ni1 1_555 1_555

#END
