
#######################################################################
#
#                 Cambridge Crystallographic Data Centre
#                                CCDC 
#
#######################################################################
#
# If this CIF has been generated from an entry in the Cambridge 
# Structural Database, then it will include bibliographic, chemical, 
# crystal, experimental, refinement or atomic coordinate data resulting 
# from the CCDC's data processing and validation procedures.
#
#######################################################################

data_VEWVOK
_symmetry_cell_setting           monoclinic
_symmetry_space_group_name_H-M   'P 21/c'
_symmetry_Int_Tables_number      14
_space_group_name_Hall           '-P 2ybc'
loop_
_symmetry_equiv_pos_site_id
_symmetry_equiv_pos_as_xyz
1 x,y,z
2 -x,1/2+y,1/2-z
3 -x,-y,-z
4 x,1/2-y,1/2+z
_cell_length_a                   8.3428(8)
_cell_length_b                   14.6144(15)
_cell_length_c                   11.4870(10)
_cell_angle_alpha                90
_cell_angle_beta                 90.781(9)
_cell_angle_gamma                90
_cell_volume                     1400.42
loop_
_atom_site_label
_atom_site_type_symbol
_atom_site_fract_x
_atom_site_fract_y
_atom_site_fract_z
Y1 Y 0.72503(4) 0.13240(2) 0.06602(3)
O1 O 0.7337(4) 0.1657(2) 0.2668(2)
O2 O 0.7234(4) 0.2618(2) 0.4147(3)
C1 C 0.4964(5) 0.3758(2) 0.2545(4)
C2 C 0.6860(4) 0.2388(2) 0.3141(3)
N1 N 0.5428(4) 0.2601(2) 0.1280(3)
C3 C 0.5774(5) 0.2943(3) 0.2379(3)
N2 N 0.4143(4) 0.3911(2) 0.1504(3)
H1 H 0.3554 0.4379 0.1344
O3 O 0.3860(4) 0.5075(2) 0.3345(3)
C4 C 0.4666(5) 0.4362(3) 0.3555(4)
C5 C 0.4427(5) 0.3206(3) 0.0792(4)
O4 O 0.5127(4) 0.4100(2) 0.4550(3)
C6 C 0.2692(7) 0.3672(4) -0.2180(5)
H2 H 0.2761 0.4115 -0.2758
C7 C 0.3595(7) 0.3793(3) -0.1173(4)
H3 H 0.4213 0.4316 -0.1063
C8 C 0.2578(5) 0.2356(3) -0.0530(4)
H4 H 0.2522 0.1886 0.0014
C9 C 0.3554(5) 0.3115(3) -0.0331(4)
N3 N 0.1741(5) 0.2968(3) -0.2370(4)
C10 C 0.1699(6) 0.2318(4) -0.1550(5)
H5 H 0.1040 0.1814 -0.1677
O5 O 0.9452(4) 0.0417(2) 0.1351(3)
O6 O 0.9432(4) 0.2314(2) 0.0932(3)
H6 H 0.9103 0.2832 0.1064
O7 O 1.1437(4) -0.0530(2) 0.0880(3)
C11 C 1.0247(5) -0.0032(3) 0.0642(4)
H7 H 1.025(7) 0.216(4) 0.130(5)
O5B O 1.0548(4) -0.0417(2) -0.1351(3)
C11B C 0.9753(5) 0.0032(3) -0.0642(4)
O7B O 0.8563(4) 0.0530(2) -0.0880(3)
Y1B Y 1.27497(4) -0.13240(2) -0.06602(3)
O1B O 1.2663(4) -0.1657(2) -0.2668(2)
O2B O 1.2766(4) -0.2618(2) -0.4147(3)
C1B C 1.5036(5) -0.3758(2) -0.2545(4)
C2B C 1.3140(4) -0.2388(2) -0.3141(3)
N1B N 1.4572(4) -0.2601(2) -0.1280(3)
C3B C 1.4226(5) -0.2943(3) -0.2379(3)
N2B N 1.5857(4) -0.3911(2) -0.1504(3)
H1B H 1.6446 -0.4379 -0.1344
O3B O 1.6140(4) -0.5075(2) -0.3345(3)
C4B C 1.5334(5) -0.4362(3) -0.3555(4)
C5B C 1.5573(5) -0.3206(3) -0.0792(4)
O4B O 1.4873(4) -0.4100(2) -0.4550(3)
C6B C 1.7308(7) -0.3672(4) 0.2180(5)
H2B H 1.7239 -0.4115 0.2758
C7B C 1.6405(7) -0.3793(3) 0.1173(4)
H3B H 1.5787 -0.4316 0.1063
C8B C 1.7422(5) -0.2356(3) 0.0530(4)
H4B H 1.7478 -0.1886 -0.0014
C9B C 1.6446(5) -0.3115(3) 0.0331(4)
N3B N 1.8259(5) -0.2968(3) 0.2370(4)
C10B C 1.8301(6) -0.2318(4) 0.1550(5)
H5B H 1.8960 -0.1814 0.1677
O6B O 1.0568(4) -0.2314(2) -0.0932(3)
H6B H 1.0897 -0.2832 -0.1064
H7B H 0.975(7) -0.216(4) -0.130(5)
Y1A Y 0.27497(4) 0.63240(2) 0.43398(3)
Y1A_2 Y 1.27497(4) -0.36760(2) -0.56602(3)
Y1C Y 0.72503(4) 0.36760(2) 0.56602(3)
Y1C_2 Y 1.72503(4) -0.63240(2) -0.43398(3)
O2A O 1.2766(4) -0.2382(2) 0.0853(3)
O2C O 0.7234(4) 0.2382(2) -0.0853(3)
O3A O 0.6140(4) 0.0075(2) 0.1655(3)
O3C O 1.3860(4) -0.0075(2) -0.1655(3)
O4A O 1.4873(4) -0.0900(2) 0.0450(3)
O4C O 0.5127(4) 0.0900(2) -0.0450(3)
O8 O 0.8082(5) 0.0252(3) 0.4138(4)
H8 H 0.788(8) 0.070(5) 0.377(6)
H9 H 0.814(8) 0.041(5) 0.494(6)
O9 O 0.9160(5) 0.4229(3) 0.1443(3)
H10 H 0.9023 0.4274 0.2173
H11 H 1.0000 0.4520 0.1254
loop_
_geom_bond_atom_site_label_1
_geom_bond_atom_site_label_2
_geom_bond_site_symmetry_1
_geom_bond_site_symmetry_2
Y1 O1 1_555 1_555
O1 C2 1_555 1_555
O2 C2 1_555 1_555
C1 C3 1_555 1_555
C2 C3 1_555 1_555
N1 Y1 1_555 1_555
C3 N1 1_555 1_555
N2 C1 1_555 1_555
H1 N2 1_555 1_555
O3 C4 1_555 1_555
C4 C1 1_555 1_555
C5 N1 1_555 1_555
O4 C4 1_555 1_555
C6 H2 1_555 1_555
C7 C6 1_555 1_555
H3 C7 1_555 1_555
C8 H4 1_555 1_555
C9 C5 1_555 1_555
N3 C6 1_555 1_555
C10 C8 1_555 1_555
H5 C10 1_555 1_555
O5 Y1 1_555 1_555
O6 Y1 1_555 1_555
H6 O6 1_555 1_555
O7 C11 1_555 1_555
C11 O5 1_555 1_555
H7 O6 1_555 1_555
O8 H8 1_555 1_555
H9 O8 1_555 1_555
O9 H10 1_555 1_555
H11 O9 1_555 1_555
O5B C11B 1_555 1_555
C11B C11 1_555 1_555
O7B Y1 1_555 1_555
Y1B O7 1_555 1_555
O1B Y1B 1_555 1_555
O2B C2B 1_555 1_555
C1B C3B 1_555 1_555
C2B O1B 1_555 1_555
N1B Y1B 1_555 1_555
C3B C2B 1_555 1_555
N2B C1B 1_555 1_555
H1B N2B 1_555 1_555
O3B C4B 1_555 1_555
C4B C1B 1_555 1_555
C5B N1B 1_555 1_555
O4B C4B 1_555 1_555
C6B H2B 1_555 1_555
C7B C6B 1_555 1_555
H3B C7B 1_555 1_555
C8B H4B 1_555 1_555
C9B C5B 1_555 1_555
N3B C6B 1_555 1_555
C10B C8B 1_555 1_555
H5B C10B 1_555 1_555
O6B Y1B 1_555 1_555
H6B O6B 1_555 1_555
H7B O6B 1_555 1_555
Y1A O3 1_555 1_555
Y1A_2 O2B 1_555 1_555
Y1C O2 1_555 1_555
Y1C_2 O3B 1_555 1_555
O2A Y1B 1_555 1_555
O2C Y1 1_555 1_555
O3A Y1 1_555 1_555
O3C Y1B 1_555 1_555
O4A Y1B 1_555 1_555
O4C Y1 1_555 1_555
N2 C5 1_555 1_555
O4 Y1C 1_555 1_555
C7 C9 1_555 1_555
C8 C9 1_555 1_555
N3 C10 1_555 1_555
O5B Y1B 1_555 1_555
C11B O7B 1_555 1_555
N1B C3B 1_555 1_555
N2B C5B 1_555 1_555
O4B Y1A_2 1_555 1_555
C7B C9B 1_555 1_555
C8B C9B 1_555 1_555
N3B C10B 1_555 1_555

#END
