
#######################################################################
#
#                 Cambridge Crystallographic Data Centre
#                                CCDC 
#
#######################################################################
#
# If this CIF has been generated from an entry in the Cambridge 
# Structural Database, then it will include bibliographic, chemical, 
# crystal, experimental, refinement or atomic coordinate data resulting 
# from the CCDC's data processing and validation procedures.
#
#######################################################################

data_VEWYUS
_symmetry_cell_setting           monoclinic
_symmetry_space_group_name_H-M   'P 21'
_symmetry_Int_Tables_number      4
_space_group_name_Hall           'P 2yb'
loop_
_symmetry_equiv_pos_site_id
_symmetry_equiv_pos_as_xyz
1 x,y,z
2 -x,1/2+y,-z
_cell_length_a                   11.611(4)
_cell_length_b                   7.172(2)
_cell_length_c                   20.741(7)
_cell_angle_alpha                90
_cell_angle_beta                 101.028(6)
_cell_angle_gamma                90
_cell_volume                     1695.29
loop_
_atom_site_label
_atom_site_type_symbol
_atom_site_fract_x
_atom_site_fract_y
_atom_site_fract_z
Cu1 Cu 0.42590(4) 0.28344(6) 0.39340(2)
C1 C 0.4427(4) 0.1411(8) 0.2562(2)
H1 H 0.5236 0.1345 0.2700
C2 C 0.3941(4) 0.0891(10) 0.1922(2)
H2 H 0.4425 0.0483 0.1641
C3 C 0.2758(5) 0.0978(10) 0.1705(2)
H3 H 0.2430 0.0612 0.1280
C4 C 0.2032(4) 0.1630(8) 0.2133(2)
C5 C 0.0790(5) 0.1731(8) 0.1969(3)
H4 H 0.0410 0.1397 0.1549
C6 C 0.0146(4) 0.2299(9) 0.2409(3)
H5 H -0.0666 0.2364 0.2285
C7 C 0.0695(4) 0.2804(10) 0.3064(2)
C8 C 0.0102(4) 0.3432(10) 0.3557(3)
H6 H -0.0710 0.3552 0.3466
C9 C 0.0728(4) 0.3868(10) 0.4175(2)
H7 H 0.0339 0.4240 0.4506
C10 C 0.1944(4) 0.3746(9) 0.4296(2)
H8 H 0.2359 0.4045 0.4712
C11 C 0.1921(4) 0.2757(8) 0.3237(2)
C12 C 0.2612(4) 0.2112(7) 0.2769(2)
C13 C 0.6500(3) 0.3068(7) 0.4741(2)
H9 H 0.6521 0.1873 0.4972
C14 C 0.5669(4) 0.4345(7) 0.5022(2)
C15 C 0.7755(4) 0.3803(13) 0.4852(3)
H10 H 0.8238 0.2949 0.4666
H11 H 0.8053 0.3925 0.5315
H12 H 0.7764 0.4999 0.4645
N1 N 0.3781(3) 0.1994(6) 0.29822(19)
N2 N 0.2536(3) 0.3218(7) 0.38402(17)
N3 N 0.5996(3) 0.2710(10) 0.40416(17)
H25 H 0.6216 0.1577 0.3923
H26 H 0.6251 0.3572 0.3786
O1 O 0.4620(3) 0.4451(6) 0.47003(17)
O2 O 0.6007(3) 0.5117(6) 0.55502(16)
Cu1A Cu 0.57410(4) 0.78344(6) 0.60660(2)
O2A O 0.3993(3) 0.0117(6) 0.44498(16)
Cu2 Cu 0.08107(4) 0.59166(6) 0.10576(2)
C16 C 0.3128(4) 0.5074(8) 0.0693(2)
H13 H 0.2716 0.4817 0.0272
C17 C 0.4348(4) 0.4924(10) 0.0823(3)
H14 H 0.4739 0.4527 0.0496
C18 C 0.4966(4) 0.5360(10) 0.1432(3)
H15 H 0.5781 0.5308 0.1519
C19 C 0.4356(4) 0.5890(10) 0.1923(2)
C20 C 0.4917(4) 0.6419(9) 0.2576(3)
H16 H 0.5731 0.6375 0.2696
C21 C 0.4272(5) 0.6981(10) 0.3017(3)
H17 H 0.4656 0.7292 0.3439
C22 C 0.3032(4) 0.7116(7) 0.2861(2)
C23 C 0.2315(4) 0.7730(10) 0.3291(2)
H18 H 0.2648 0.8057 0.3720
C24 C 0.1144(4) 0.7847(11) 0.3083(2)
H19 H 0.0668 0.8261 0.3367
C25 C 0.0643(4) 0.7336(8) 0.2432(2)
H20 H -0.0165 0.7439 0.2292
C26 C 0.2458(4) 0.6617(7) 0.2223(2)
C27 C 0.3142(3) 0.6008(8) 0.1757(2)
C28 C -0.1451(3) 0.4664(7) 0.04492(19)
H21 H -0.1533 0.3503 0.0686
C29 C -0.0587(4) 0.4283(8) -0.0007(2)
C30 C -0.2677(4) 0.5248(10) 0.0105(3)
H22 H -0.3159 0.5452 0.0426
H23 H -0.3016 0.4281 -0.0192
H24 H -0.2628 0.6378 -0.0136
N4 N 0.1290(3) 0.6712(6) 0.20094(18)
N5 N 0.2538(3) 0.5575(7) 0.11550(17)
N6 N -0.0910(3) 0.6070(9) 0.09470(17)
H27 H -0.1129 0.5844 0.1333
H28 H -0.1154 0.7221 0.0813
O3 O 0.0483(3) 0.4505(6) 0.02423(17)
O4 O -0.0979(3) 0.3718(6) -0.05668(16)
Cu2A Cu -0.08107(4) 0.09166(6) -0.10576(2)
O4A O 0.0979(3) 0.8718(6) 0.05668(16)
Cl1 Cl 0.80096(18) 0.8409(4) 0.37337(9)
O5 O 0.7011(5) 0.8761(14) 0.3979(3)
O6 O 0.8960(6) 0.839(3) 0.4237(3)
O7 O 0.7946(10) 0.6672(18) 0.3435(4)
O8 O 0.8113(12) 0.975(2) 0.3265(5)
Cl2 Cl 0.69523(15) 0.0387(3) 0.12577(9)
O9 O 0.8032(4) 0.0069(10) 0.1070(3)
O10 O 0.7166(8) 0.2231(15) 0.1537(5)
O11 O 0.6643(7) -0.0513(17) 0.1755(4)
O12 O 0.6073(6) 0.041(3) 0.0755(3)
O13 O 0.7874(4) 0.6063(11) 0.2106(3)
H29 H 0.8171 0.6597 0.2544
H30 H 0.7559 0.7253 0.1863
O14 O 0.7158(5) 0.316(2) 0.2868(5)
H31 H 0.7452 0.2110 0.2992
H32 H 0.7687 0.3518 0.2561
loop_
_geom_bond_atom_site_label_1
_geom_bond_atom_site_label_2
_geom_bond_site_symmetry_1
_geom_bond_site_symmetry_2
Cu1 N1 1_555 1_555
Cu2 N4 1_555 1_555
Cl1 O5 1_555 1_555
Cl2 O9 1_555 1_555
C1 H1 1_555 1_555
C2 C1 1_555 1_555
H2 C2 1_555 1_555
C3 C2 1_555 1_555
H3 C3 1_555 1_555
C4 C3 1_555 1_555
C5 C4 1_555 1_555
H4 C5 1_555 1_555
C6 C5 1_555 1_555
H5 C6 1_555 1_555
C7 C6 1_555 1_555
C8 C7 1_555 1_555
H6 C8 1_555 1_555
C9 C8 1_555 1_555
H7 C9 1_555 1_555
C10 C9 1_555 1_555
H8 C10 1_555 1_555
C11 C7 1_555 1_555
C12 C4 1_555 1_555
C13 H9 1_555 1_555
C14 C13 1_555 1_555
C15 C13 1_555 1_555
H10 C15 1_555 1_555
H11 C15 1_555 1_555
H12 C15 1_555 1_555
C16 H13 1_555 1_555
C17 C16 1_555 1_555
H14 C17 1_555 1_555
C18 C17 1_555 1_555
H15 C18 1_555 1_555
C19 C18 1_555 1_555
C20 C19 1_555 1_555
H16 C20 1_555 1_555
C21 C20 1_555 1_555
H17 C21 1_555 1_555
C22 C21 1_555 1_555
C23 C22 1_555 1_555
H18 C23 1_555 1_555
C24 C23 1_555 1_555
H19 C24 1_555 1_555
C25 C24 1_555 1_555
H20 C25 1_555 1_555
C26 C22 1_555 1_555
C27 C19 1_555 1_555
C28 H21 1_555 1_555
C29 C28 1_555 1_555
C30 C28 1_555 1_555
H22 C30 1_555 1_555
H23 C30 1_555 1_555
H24 C30 1_555 1_555
N1 C1 1_555 1_555
N2 Cu1 1_555 1_555
N3 Cu1 1_555 1_555
H25 N3 1_555 1_555
H26 N3 1_555 1_555
N4 C25 1_555 1_555
N5 Cu2 1_555 1_555
N6 Cu2 1_555 1_555
H27 N6 1_555 1_555
H28 N6 1_555 1_555
O1 Cu1 1_555 1_555
O2 C14 1_555 1_555
O3 Cu2 1_555 1_555
O4 C29 1_555 1_555
O6 Cl1 1_555 1_555
O7 Cl1 1_555 1_555
O8 Cl1 1_555 1_555
O10 Cl2 1_555 1_555
O11 Cl2 1_555 1_555
O12 Cl2 1_555 1_555
O13 H29 1_555 1_555
H30 O13 1_555 1_555
O14 H31 1_555 1_555
H32 O14 1_555 1_555
Cu1A O2 1_555 1_555
Cu2A O4 1_555 1_555
O2A Cu1 1_555 1_555
O4A Cu2 1_555 1_555
C10 N2 1_555 1_555
C11 C12 1_555 1_555
C11 N2 1_555 1_555
C12 N1 1_555 1_555
C13 N3 1_555 1_555
C14 O1 1_555 1_555
C16 N5 1_555 1_555
C26 C27 1_555 1_555
C26 N4 1_555 1_555
C27 N5 1_555 1_555
C28 N6 1_555 1_555
C29 O3 1_555 1_555

#END
