
#######################################################################
#
#                 Cambridge Crystallographic Data Centre
#                                CCDC 
#
#######################################################################
#
# If this CIF has been generated from an entry in the Cambridge 
# Structural Database, then it will include bibliographic, chemical, 
# crystal, experimental, refinement or atomic coordinate data resulting 
# from the CCDC's data processing and validation procedures.
#
#######################################################################

data_VEXFUA
_symmetry_cell_setting           monoclinic
_symmetry_space_group_name_H-M   'P 21/n'
_symmetry_Int_Tables_number      14
_space_group_name_Hall           '-P 2yn'
loop_
_symmetry_equiv_pos_site_id
_symmetry_equiv_pos_as_xyz
1 x,y,z
2 1/2-x,1/2+y,1/2-z
3 -x,-y,-z
4 1/2+x,1/2-y,1/2+z
_cell_length_a                   17.0055(10)
_cell_length_b                   10.0063(3)
_cell_length_c                   19.1984(11)
_cell_angle_alpha                90
_cell_angle_beta                 101.019(4)
_cell_angle_gamma                90
_cell_volume                     3206.61
loop_
_atom_site_label
_atom_site_type_symbol
_atom_site_fract_x
_atom_site_fract_y
_atom_site_fract_z
Se1 Se -0.04218(4) 0.08467(7) 0.70191(3)
Se2 Se 0.07695(4) 0.06745(6) 0.87889(3)
Se3 Se 0.26369(4) 0.10678(6) 0.76003(3)
Se4 Se 0.36455(4) 0.09516(8) 0.61165(4)
P1 P -0.04044(9) 0.07349(14) 0.81404(7)
P2 P 0.25328(9) 0.10356(14) 0.64631(8)
K1 K 0.12127(11) -0.11838(14) 0.74889(9)
K2 K 0.10436(10) 0.33229(15) 0.77498(8)
O1 O -0.0919(2) 0.2004(4) 0.8293(2)
O2 O 0.1929(3) -0.0200(4) 0.6227(2)
O3 O -0.0180(4) 0.5030(8) 0.7156(4)
C1 C -0.0984(4) -0.0706(5) 0.8315(3)
C2 C -0.1749(4) -0.0894(7) 0.7915(4)
H1 H -0.1955 -0.0281 0.7547
C3 C -0.2219(5) -0.1980(7) 0.8049(4)
H2 H -0.2738 -0.2101 0.7767
C4 C -0.1938(5) -0.2867(7) 0.8580(4)
H3 H -0.2266 -0.3583 0.8680
C5 C -0.1168(6) -0.2710(7) 0.8971(4)
H4 H -0.0961 -0.3333 0.9333
C6 C -0.0699(5) -0.1640(6) 0.8833(4)
H5 H -0.0171 -0.1549 0.9101
C7 C -0.1031(4) 0.2580(6) 0.8988(3)
C8 C -0.1816(4) 0.3322(7) 0.8809(4)
H6 H -0.1778 0.4016 0.8457
H7 H -0.1936 0.3736 0.9239
H8 H -0.2245 0.2695 0.8614
C9 C -0.0348(4) 0.3558(7) 0.9241(4)
H9 H -0.0338 0.4236 0.8874
H10 H 0.0162 0.3073 0.9332
H11 H -0.0430 0.3993 0.9679
C10 C -0.1079(4) 0.1487(6) 0.9534(3)
H12 H -0.1526 0.0886 0.9352
H13 H -0.1164 0.1895 0.9978
H14 H -0.0577 0.0977 0.9623
C11 C 0.1962(4) 0.2496(5) 0.6086(3)
C12 C 0.2318(5) 0.3524(6) 0.5780(3)
H15 H 0.2871 0.3474 0.5758
C13 C 0.1878(6) 0.4616(6) 0.5509(4)
H16 H 0.2124 0.5316 0.5295
C14 C 0.1079(6) 0.4700(7) 0.5548(4)
H17 H 0.0776 0.5456 0.5354
C15 C 0.0713(5) 0.3696(7) 0.5864(4)
H18 H 0.0164 0.3766 0.5898
C16 C 0.1159(4) 0.2584(7) 0.6132(3)
H19 H 0.0915 0.1882 0.6347
C17 C 0.1676(5) -0.0794(6) 0.5506(3)
C18 C 0.0881(7) -0.1430(9) 0.5557(4)
H20 H 0.0494 -0.0731 0.5614
H21 H 0.0953 -0.2034 0.5966
H22 H 0.0680 -0.1937 0.5122
C19 C 0.2308(7) -0.1824(8) 0.5413(4)
H23 H 0.2353 -0.2495 0.5790
H24 H 0.2826 -0.1378 0.5438
H25 H 0.2152 -0.2261 0.4950
C20 C 0.1586(5) 0.0261(7) 0.4919(3)
H26 H 0.1171 0.0904 0.4983
H27 H 0.1432 -0.0175 0.4456
H28 H 0.2096 0.0729 0.4942
C21 C -0.0124(5) 0.6460(10) 0.6956(5)
H29 H 0.0366 0.6620 0.6759
H30 H -0.0111 0.7048 0.7372
C22 C -0.0864(7) 0.6716(11) 0.6403(6)
H31 H -0.1121 0.7572 0.6491
H32 H -0.0740 0.6729 0.5920
C23 C -0.1375(7) 0.5572(12) 0.6497(7)
H33 H -0.1903 0.5893 0.6574
H34 H -0.1463 0.5008 0.6065
C24 C -0.1000(7) 0.4821(18) 0.7083(9)
H35 H -0.1187 0.5115 0.7517
H36 H -0.1128 0.3861 0.7006
Se3A Se 0.23631(4) -0.39322(6) 0.73997(3)
Se3A_2 Se 0.23631(4) 0.60678(6) 0.73997(3)
Se4A Se 0.13545(4) -0.40484(8) 0.88835(4)
Se4A_2 Se 0.13545(4) 0.59516(8) 0.88835(4)
K1A K 0.37873(11) 0.38162(14) 0.75111(9)
K2A K 0.39564(10) -0.16771(15) 0.72502(8)
loop_
_geom_bond_atom_site_label_1
_geom_bond_atom_site_label_2
_geom_bond_site_symmetry_1
_geom_bond_site_symmetry_2
Se1 P1 1_555 1_555
Se2 P1 1_555 1_555
Se3 P2 1_555 1_555
Se4 P2 1_555 1_555
P1 O1 1_555 1_555
P2 O2 1_555 1_555
K1 Se1 1_555 1_555
K2 Se1 1_555 1_555
O1 C7 1_555 1_555
O2 K1 1_555 1_555
O3 K2 1_555 1_555
C1 P1 1_555 1_555
C2 C1 1_555 1_555
H1 C2 1_555 1_555
C3 C2 1_555 1_555
H2 C3 1_555 1_555
C4 C3 1_555 1_555
H3 C4 1_555 1_555
C5 C4 1_555 1_555
H4 C5 1_555 1_555
C6 C1 1_555 1_555
H5 C6 1_555 1_555
C7 C8 1_555 1_555
C8 H6 1_555 1_555
H7 C8 1_555 1_555
H8 C8 1_555 1_555
C9 C7 1_555 1_555
H9 C9 1_555 1_555
H10 C9 1_555 1_555
H11 C9 1_555 1_555
C10 C7 1_555 1_555
H12 C10 1_555 1_555
H13 C10 1_555 1_555
H14 C10 1_555 1_555
C11 P2 1_555 1_555
C12 C11 1_555 1_555
H15 C12 1_555 1_555
C13 C12 1_555 1_555
H16 C13 1_555 1_555
C14 C13 1_555 1_555
H17 C14 1_555 1_555
C15 C14 1_555 1_555
H18 C15 1_555 1_555
C16 C11 1_555 1_555
H19 C16 1_555 1_555
C17 O2 1_555 1_555
C18 C17 1_555 1_555
H20 C18 1_555 1_555
H21 C18 1_555 1_555
H22 C18 1_555 1_555
C19 C17 1_555 1_555
H23 C19 1_555 1_555
H24 C19 1_555 1_555
H25 C19 1_555 1_555
C20 C17 1_555 1_555
H26 C20 1_555 1_555
H27 C20 1_555 1_555
H28 C20 1_555 1_555
C21 O3 1_555 1_555
H29 C21 1_555 1_555
H30 C21 1_555 1_555
C22 C21 1_555 1_555
H31 C22 1_555 1_555
H32 C22 1_555 1_555
C23 C22 1_555 1_555
H33 C23 1_555 1_555
H34 C23 1_555 1_555
C24 O3 1_555 1_555
H35 C24 1_555 1_555
H36 C24 1_555 1_555
Se3A K1 1_555 1_555
Se3A_2 K2 1_555 1_555
Se4A K1 1_555 1_555
Se4A_2 K2 1_555 1_555
K1A Se3 1_555 1_555
K2A Se3 1_555 1_555
Se2 K1 1_555 1_555
Se2 K2 1_555 1_555
Se3 K1 1_555 1_555
Se3 K2 1_555 1_555
Se4 K1A 1_555 1_555
Se4 K2A 1_555 1_555
C5 C6 1_555 1_555
C15 C16 1_555 1_555
C23 C24 1_555 1_555
Se3A K2A 1_555 1_555
Se3A_2 K1A 1_555 1_555

#END
