
#######################################################################
#
#                 Cambridge Crystallographic Data Centre
#                                CCDC 
#
#######################################################################
#
# If this CIF has been generated from an entry in the Cambridge 
# Structural Database, then it will include bibliographic, chemical, 
# crystal, experimental, refinement or atomic coordinate data resulting 
# from the CCDC's data processing and validation procedures.
#
#######################################################################

data_VEXFAG
_symmetry_cell_setting           monoclinic
_symmetry_space_group_name_H-M   'P 21/a'
_symmetry_Int_Tables_number      14
_space_group_name_Hall           '-P 2yab'
loop_
_symmetry_equiv_pos_site_id
_symmetry_equiv_pos_as_xyz
1 x,y,z
2 1/2-x,1/2+y,-z
3 -x,-y,-z
4 1/2+x,1/2-y,z
_cell_length_a                   6.6243(13)
_cell_length_b                   24.637(4)
_cell_length_c                   8.963(2)
_cell_angle_alpha                90
_cell_angle_beta                 98.94(3)
_cell_angle_gamma                90
_cell_volume                     1445.02
loop_
_atom_site_label
_atom_site_type_symbol
_atom_site_fract_x
_atom_site_fract_y
_atom_site_fract_z
Ca1 Ca 0.25939(9) 0.547195(17) 0.50354(6)
C1 C 0.2600(4) 0.87949(8) 0.6775(3)
C2 C 0.2893(4) 0.87736(9) 0.8330(3)
H1 H 0.2981 0.9096 0.8875
C3 C 0.3060(4) 0.82806(10) 0.9109(3)
H2 H 0.3245 0.8277 1.0159
C4 C 0.2949(4) 0.78014(8) 0.8318(3)
C5 C 0.2492(4) 0.73025(9) 0.5905(3)
C6 C 0.2212(4) 0.72975(10) 0.4357(3)
H3 H 0.2182 0.6970 0.3840
C7 C 0.1971(4) 0.77873(10) 0.3560(3)
H4 H 0.1794 0.7780 0.2510
C8 C 0.1989(4) 0.82797(9) 0.4283(3)
C9 C 0.2409(4) 0.83046(9) 0.5906(3)
C10 C 0.2624(4) 0.78026(9) 0.6711(3)
C11 C 0.3117(4) 0.72817(9) 0.9149(3)
O1 O 0.3357(4) 0.72251(7) 1.0484(2)
O2 O 0.2960(3) 0.68052(6) 0.82889(19)
C12 C 0.2639(4) 0.67894(9) 0.6739(3)
O3 O 0.2503(3) 0.63445(6) 0.6175(2)
C13 C 0.2604(4) 0.93536(9) 0.6072(3)
O4 O 0.4031(3) 0.94794(6) 0.53700(18)
O5 O 0.1195(3) 0.96779(6) 0.62742(19)
C14 C 0.1276(4) 0.87673(9) 0.3308(3)
O6 O 0.2037(3) 0.88414(7) 0.2127(2)
O7 O -0.0135(3) 0.90392(7) 0.3727(2)
O8 O 0.2641(5) 0.51398(12) 0.7598(3)
O9 O 0.0707(4) 0.56157(11) 0.2511(3)
H5 H 0.109(5) 0.5912(12) 0.276(3)
H6 H -0.042(8) 0.5872(19) 0.221(5)
H7 H 0.206(8) 0.5023(19) 0.777(5)
Ca1C Ca 0.75939(9) 0.952805(17) 0.50354(6)
Ca1A Ca 0.24061(9) 1.047195(17) 0.49646(6)
Ca1C_2 Ca -0.24061(9) 0.952805(17) 0.50354(6)
O4C O -0.0969(3) 0.55206(6) 0.53700(18)
O4A O 0.0969(3) 0.44794(6) 0.46300(18)
O5C O 0.6195(3) 0.53221(6) 0.62742(19)
O5A O 0.3805(3) 0.46779(6) 0.37258(19)
O7C O 0.4865(3) 0.59608(7) 0.3727(2)
O10 O 0.3435(6) 0.56497(16) 0.0490(3)
H8 H 0.32(2) 0.557(5) -0.005(16)
loop_
_geom_bond_atom_site_label_1
_geom_bond_atom_site_label_2
_geom_bond_site_symmetry_1
_geom_bond_site_symmetry_2
Ca1 O3 1_555 1_555
C1 C2 1_555 1_555
C2 H1 1_555 1_555
C3 C2 1_555 1_555
H2 C3 1_555 1_555
C4 C3 1_555 1_555
C5 C6 1_555 1_555
C6 H3 1_555 1_555
C7 C6 1_555 1_555
H4 C7 1_555 1_555
C8 C7 1_555 1_555
C9 C1 1_555 1_555
C10 C4 1_555 1_555
C11 C4 1_555 1_555
O1 C11 1_555 1_555
O2 C11 1_555 1_555
C12 C5 1_555 1_555
O3 C12 1_555 1_555
C13 C1 1_555 1_555
O4 C13 1_555 1_555
O5 C13 1_555 1_555
C14 C8 1_555 1_555
O6 C14 1_555 1_555
O7 C14 1_555 1_555
O8 Ca1 1_555 1_555
O9 Ca1 1_555 1_555
O10 H8 1_555 1_555
H5 O9 1_555 1_555
H6 O9 1_555 1_555
H7 O8 1_555 1_555
Ca1C O4 1_555 1_555
Ca1A O4 1_555 1_555
Ca1C_2 O5 1_555 1_555
O4C Ca1 1_555 1_555
O4A Ca1 1_555 1_555
O5C Ca1 1_555 1_555
O5A Ca1 1_555 1_555
O7C Ca1 1_555 1_555
C5 C10 1_555 1_555
C8 C9 1_555 1_555
C9 C10 1_555 1_555
O2 C12 1_555 1_555
O5 Ca1A 1_555 1_555
O7 Ca1C_2 1_555 1_555

#END
