
#######################################################################
#
#                 Cambridge Crystallographic Data Centre
#                                CCDC 
#
#######################################################################
#
# If this CIF has been generated from an entry in the Cambridge 
# Structural Database, then it will include bibliographic, chemical, 
# crystal, experimental, refinement or atomic coordinate data resulting 
# from the CCDC's data processing and validation procedures.
#
#######################################################################

data_VEXFOU
_symmetry_cell_setting           triclinic
_symmetry_space_group_name_H-M   'P -1'
_symmetry_Int_Tables_number      2
_space_group_name_Hall           '-P 1'
loop_
_symmetry_equiv_pos_site_id
_symmetry_equiv_pos_as_xyz
1 x,y,z
2 -x,-y,-z
_cell_length_a                   7.188(4)
_cell_length_b                   8.305(4)
_cell_length_c                   12.541(4)
_cell_angle_alpha                115.96(4)
_cell_angle_beta                 93.62(4)
_cell_angle_gamma                92.14(4)
_cell_volume                     670.006
loop_
_atom_site_label
_atom_site_type_symbol
_atom_site_fract_x
_atom_site_fract_y
_atom_site_fract_z
Ba1 Ba 0.16096(3) 0.26774(2) 0.015168(15)
C1 C 0.2182(4) 0.4033(4) 0.4586(3)
C2 C 0.1693(5) 0.2531(4) 0.4734(3)
H1 H 0.1369 0.1438 0.4075
C3 C 0.1686(5) 0.2662(4) 0.5882(3)
H2 H 0.1360 0.1640 0.5976
C4 C 0.2150(4) 0.4271(4) 0.6888(3)
C5 C 0.2665(4) 0.5865(4) 0.6768(3)
C6 C 0.2679(4) 0.5711(4) 0.5587(3)
C7 C 0.3190(4) 0.7236(4) 0.5406(3)
C8 C 0.3734(5) 0.8863(4) 0.6356(3)
H3 H 0.4094 0.9849 0.6230
C9 C 0.3740(5) 0.9022(4) 0.7514(3)
H4 H 0.4126 1.0122 0.8152
C10 C 0.3191(4) 0.7596(4) 0.7736(3)
C11 C 0.2242(4) 0.3893(4) 0.3381(3)
O1 O 0.2744(4) 0.5403(3) 0.3253(2)
O2 O 0.1895(4) 0.2547(3) 0.2459(2)
C12 C 0.3136(5) 0.7116(4) 0.4200(3)
O3 O 0.3374(4) 0.8322(4) 0.3944(2)
C13 C 0.2034(4) 0.4176(4) 0.8064(3)
O4 O 0.3082(3) 0.3147(3) 0.82563(19)
O5 O 0.0842(3) 0.5053(3) 0.87229(19)
C14 C 0.3252(4) 0.8032(4) 0.9048(3)
O6 O 0.4552(3) 0.7438(3) 0.9456(2)
O7 O 0.2051(3) 0.9036(3) 0.96255(19)
O8 O 0.3190(4) 0.6188(4) 0.1070(2)
O9 O -0.0676(4) 0.1105(4) -0.1972(2)
H5 H 0.352(6) 0.640(5) 0.055(4)
H6 H 0.410(6) 0.640(5) 0.144(4)
H7 H -0.159(8) 0.176(7) -0.190(5)
H8 H -0.113(6) 0.040(6) -0.200(4)
Ba1_2 Ba 0.16096(3) 0.26774(2) 1.015168(15)
Ba1A Ba -0.16096(3) 0.73226(2) 0.984832(15)
Ba1A_2 Ba 0.83904(3) 0.73226(2) 0.984832(15)
Ba1_3 Ba 0.16096(3) 1.26774(2) 1.015168(15)
O4_2 O 0.3082(3) 0.3147(3) -0.17437(19)
O5A O -0.0842(3) 0.4947(3) 0.12771(19)
O6A O 0.5448(3) 0.2562(3) 0.0544(2)
O7_2 O 0.2051(3) -0.0964(3) -0.03745(19)
O7A O -0.2051(3) 0.0964(3) 0.03745(19)
loop_
_geom_bond_atom_site_label_1
_geom_bond_atom_site_label_2
_geom_bond_site_symmetry_1
_geom_bond_site_symmetry_2
Ba1 O2 1_555 1_555
C1 C2 1_555 1_555
C2 H1 1_555 1_555
C3 C2 1_555 1_555
H2 C3 1_555 1_555
C4 C3 1_555 1_555
C5 C4 1_555 1_555
C6 C1 1_555 1_555
C7 C6 1_555 1_555
C8 C7 1_555 1_555
H3 C8 1_555 1_555
C9 C8 1_555 1_555
H4 C9 1_555 1_555
C10 C5 1_555 1_555
C11 C1 1_555 1_555
O1 C11 1_555 1_555
O2 C11 1_555 1_555
C12 C7 1_555 1_555
O3 C12 1_555 1_555
C13 C4 1_555 1_555
O4 C13 1_555 1_555
O5 C13 1_555 1_555
C14 C10 1_555 1_555
O6 C14 1_555 1_555
O7 C14 1_555 1_555
O8 Ba1 1_555 1_555
O9 Ba1 1_555 1_555
H5 O8 1_555 1_555
H6 O8 1_555 1_555
H7 O9 1_555 1_555
H8 O9 1_555 1_555
Ba1_2 O4 1_555 1_555
Ba1A O5 1_555 1_555
Ba1A_2 O6 1_555 1_555
Ba1_3 O7 1_555 1_555
O4_2 Ba1 1_555 1_555
O5A Ba1 1_555 1_555
O6A Ba1 1_555 1_555
O7_2 Ba1 1_555 1_555
O7A Ba1 1_555 1_555
C5 C6 1_555 1_555
C9 C10 1_555 1_555
O1 C12 1_555 1_555
O7 Ba1A 1_555 1_555

#END
