
#######################################################################
#
#                 Cambridge Crystallographic Data Centre
#                                CCDC 
#
#######################################################################
#
# If this CIF has been generated from an entry in the Cambridge 
# Structural Database, then it will include bibliographic, chemical, 
# crystal, experimental, refinement or atomic coordinate data resulting 
# from the CCDC's data processing and validation procedures.
#
#######################################################################

data_VEXFEK
_symmetry_cell_setting           triclinic
_symmetry_space_group_name_H-M   'P -1'
_symmetry_Int_Tables_number      2
_space_group_name_Hall           '-P 1'
loop_
_symmetry_equiv_pos_site_id
_symmetry_equiv_pos_as_xyz
1 x,y,z
2 -x,-y,-z
_cell_length_a                   6.8779(14)
_cell_length_b                   8.9599(18)
_cell_length_c                   12.877(3)
_cell_angle_alpha                86.73(2)
_cell_angle_beta                 87.14(2)
_cell_angle_gamma                81.52(2)
_cell_volume                     782.904
loop_
_atom_site_label
_atom_site_type_symbol
_atom_site_fract_x
_atom_site_fract_y
_atom_site_fract_z
Sr1 Sr 0.24118(4) 0.47877(3) 0.100364(17)
C1 C 0.3211(4) 0.3872(3) -0.24153(18)
C2 C 0.3532(4) 0.2328(3) -0.2526(2)
H1 H 0.3819 0.1682 -0.1945
C3 C 0.3433(5) 0.1726(3) -0.3491(2)
H2 H 0.3663 0.0685 -0.3554
C4 C 0.2997(4) 0.2667(3) -0.43502(19)
C5 C 0.2363(4) 0.5209(3) -0.51849(18)
C6 C 0.2132(4) 0.6753(3) -0.5138(2)
H3 H 0.1843 0.7371 -0.5731
C7 C 0.2338(4) 0.7389(3) -0.41839(19)
H4 H 0.2190 0.8435 -0.4156
C8 C 0.2755(4) 0.6503(3) -0.32872(18)
C9 C 0.2913(4) 0.4893(3) -0.33043(18)
C10 C 0.2763(4) 0.4256(3) -0.42832(18)
C11 C 0.2998(4) 0.4347(3) -0.13024(17)
O1 O 0.1378(3) 0.5080(2) -0.10139(13)
O2 O 0.4385(3) 0.3904(2) -0.07089(13)
C12 C 0.3251(4) 0.7300(3) -0.23388(19)
O3 O 0.2146(4) 0.8496(2) -0.21176(16)
O4 O 0.4738(3) 0.6727(2) -0.18770(14)
C13 C 0.2168(4) 0.4542(3) -0.61863(19)
O5 O 0.2376(3) 0.3002(2) -0.62096(13)
O6 O 0.1813(3) 0.5249(2) -0.69938(14)
C14 C 0.2780(5) 0.2012(3) -0.5355(2)
O7 O 0.2911(4) 0.0695(2) -0.55001(17)
O8 O 0.1232(4) 0.7605(3) 0.1158(3)
O9 O 0.1479(5) 0.2148(3) 0.0862(3)
H5 H 0.126(8) 0.802(6) 0.170(4)
H6 H 0.160(7) 0.819(5) 0.078(4)
H7 H 0.079(10) 0.179(7) 0.122(5)
H8 H 0.206(11) 0.136(8) 0.057(5)
Sr1A Sr -0.24118(4) 0.52123(3) -0.100364(17)
Sr1A_2 Sr 0.75882(4) 0.52123(3) -0.100364(17)
Sr1_2 Sr 0.24118(4) 0.47877(3) -0.899636(17)
O1A O -0.1378(3) 0.4920(2) 0.10139(13)
O2A O 0.5615(3) 0.6096(2) 0.07089(13)
O4A O 0.5262(3) 0.3273(2) 0.18770(14)
O6_2 O 0.1813(3) 0.5249(2) 0.30062(14)
O10 O 0.3162(6) 0.9576(4) -0.0250(3)
H9 H 0.306(8) 0.925(6) -0.084(5)
H10 H 0.360(16) 0.894(11) 0.000(7)
O11 O 0.0907(5) 0.9458(3) 0.2873(3)
H11 H 0.117(4) 1.014(3) 0.241(2)
H12 H 0.166(10) 1.009(8) 0.317(5)
loop_
_geom_bond_atom_site_label_1
_geom_bond_atom_site_label_2
_geom_bond_site_symmetry_1
_geom_bond_site_symmetry_2
Sr1 O1 1_555 1_555
C1 C2 1_555 1_555
C2 H1 1_555 1_555
C3 C2 1_555 1_555
H2 C3 1_555 1_555
C4 C3 1_555 1_555
C5 C6 1_555 1_555
C6 H3 1_555 1_555
C7 C6 1_555 1_555
H4 C7 1_555 1_555
C8 C7 1_555 1_555
C9 C1 1_555 1_555
C10 C4 1_555 1_555
C11 C1 1_555 1_555
O1 C11 1_555 1_555
O2 Sr1 1_555 1_555
C12 C8 1_555 1_555
O3 C12 1_555 1_555
O4 C12 1_555 1_555
C13 C5 1_555 1_555
O5 C13 1_555 1_555
O6 C13 1_555 1_555
C14 C4 1_555 1_555
O7 C14 1_555 1_555
O8 Sr1 1_555 1_555
O9 Sr1 1_555 1_555
O10 H9 1_555 1_555
O11 H11 1_555 1_555
H5 O8 1_555 1_555
H6 O8 1_555 1_555
H7 O9 1_555 1_555
H8 O9 1_555 1_555
H10 O10 1_555 1_555
H12 O11 1_555 1_555
Sr1A O1 1_555 1_555
Sr1A_2 O2 1_555 1_555
Sr1_2 O6 1_555 1_555
O1A Sr1 1_555 1_555
O2A Sr1 1_555 1_555
O4A Sr1 1_555 1_555
O6_2 Sr1 1_555 1_555
C5 C10 1_555 1_555
C8 C9 1_555 1_555
C9 C10 1_555 1_555
C11 O2 1_555 1_555
O4 Sr1A_2 1_555 1_555
O5 C14 1_555 1_555
Sr1A O1A 1_555 1_555
Sr1A_2 O2A 1_555 1_555

#END
