
#######################################################################
#
#                 Cambridge Crystallographic Data Centre
#                                CCDC 
#
#######################################################################
#
# If this CIF has been generated from an entry in the Cambridge 
# Structural Database, then it will include bibliographic, chemical, 
# crystal, experimental, refinement or atomic coordinate data resulting 
# from the CCDC's data processing and validation procedures.
#
#######################################################################

data_VEXGEL
_symmetry_cell_setting           monoclinic
_symmetry_space_group_name_H-M   'P 21/n'
_symmetry_Int_Tables_number      14
_space_group_name_Hall           '-P 2yn'
loop_
_symmetry_equiv_pos_site_id
_symmetry_equiv_pos_as_xyz
1 x,y,z
2 1/2-x,1/2+y,1/2-z
3 -x,-y,-z
4 1/2+x,1/2-y,1/2+z
_cell_length_a                   12.0394(6)
_cell_length_b                   23.4696(10)
_cell_length_c                   12.0063(6)
_cell_angle_alpha                90
_cell_angle_beta                 116.301(4)
_cell_angle_gamma                90
_cell_volume                     3041.3
loop_
_atom_site_label
_atom_site_type_symbol
_atom_site_fract_x
_atom_site_fract_y
_atom_site_fract_z
Se1 Se 0.78870(3) 0.152520(12) 0.37686(3)
Se2 Se 0.74407(3) -0.001981(13) 0.33838(3)
Se3 Se 0.58780(3) 0.145500(13) 0.35886(3)
Se4 Se 0.99737(3) 0.076875(14) 0.31949(3)
Se5 Se 0.75007(3) 0.065065(14) 0.65465(3)
Se6 Se 0.41672(3) 0.096837(13) 0.49425(3)
K1 K 0.45318(6) 0.00827(3) 0.29414(6)
K2 K 0.99251(6) 0.06351(3) 0.60493(6)
P1 P 0.80496(7) 0.07166(3) 0.27690(7)
P2 P 0.60500(7) 0.12332(3) 0.55163(7)
C1 C 0.5802(3) 0.07078(14) 0.0610(3)
H1 H 0.5483 0.0504 0.1088
O1 O 0.2933(2) 0.05911(11) 0.0818(2)
O2 O 1.1043(2) 0.16448(10) 0.6618(2)
C2 C 0.7563(3) 0.20946(15) 0.7055(3)
H2 H 0.8236 0.1872 0.7088
C3 C 0.5028(3) 0.08441(14) -0.0621(3)
H3 H 0.4182 0.0734 -0.0984
C4 C 0.7795(3) 0.25999(16) 0.7725(3)
H4 H 0.8624 0.2723 0.8204
C5 C 0.6822(4) 0.29236(15) 0.7696(3)
H5 H 0.6982 0.3266 0.8162
C6 C 0.7044(3) 0.08697(13) 0.1143(3)
C7 C 0.0813(4) 0.0793(2) -0.0075(4)
H6 H 0.0636 0.0819 0.0654
H7 H 0.0029 0.0728 -0.0832
C8 C 0.5373(3) 0.22449(14) 0.6303(3)
H8 H 0.4541 0.2128 0.5813
C9 C 0.6352(3) 0.19126(13) 0.6336(3)
C10 C 0.5616(4) 0.27458(15) 0.6985(3)
H9 H 0.4948 0.2969 0.6964
C11 C 0.2806(4) 0.12013(18) 0.0723(4)
H10 H 0.3384 0.1366 0.0425
H11 H 0.2990 0.1370 0.1542
C12 C 0.1753(4) 0.0332(2) 0.0095(4)
H12 H 0.1629 0.0000 0.0537
H13 H 0.1684 0.0204 -0.0719
C13 C 0.7515(3) 0.11631(14) 0.0439(3)
H14 H 0.8364 0.1270 0.0795
C14 C 0.6734(3) 0.12986(16) -0.0791(3)
H15 H 0.7052 0.1501 -0.1273
C15 C 0.5496(3) 0.11411(15) -0.1318(3)
H16 H 0.4968 0.1237 -0.2157
C16 C 1.0512(4) 0.21930(16) 0.6585(4)
H17 H 1.0869 0.2365 0.7424
H18 H 0.9603 0.2163 0.6273
C17 C 1.2110(4) 0.23221(18) 0.5983(4)
H19 H 1.2231 0.2324 0.5220
H20 H 1.2766 0.2556 0.6625
C18 C 1.0825(3) 0.25456(16) 0.5719(4)
H21 H 1.0850 0.2957 0.5912
H22 H 1.0225 0.2482 0.4841
C19 C 0.1474(4) 0.1322(2) -0.0198(4)
H23 H 0.1157 0.1670 0.0030
H24 H 0.1389 0.1364 -0.1053
C20 C 1.2126(4) 0.1728(2) 0.6436(6)
H25 H 1.2138 0.1451 0.5818
H26 H 1.2878 0.1668 0.7227
Se2B Se 1.25593(3) 0.001981(13) 0.66162(3)
Se4B Se 1.00263(3) -0.076875(14) 0.68051(3)
Se5B Se 0.24993(3) -0.065065(14) 0.34535(3)
Se6B Se 0.58328(3) -0.096837(13) 0.50575(3)
K1B K 0.54682(6) -0.00827(3) 0.70586(6)
K1B_2 K 0.54682(6) -0.00827(3) -0.29414(6)
K2B K 1.00749(6) -0.06351(3) 0.39507(6)
C15B C 0.4504(3) -0.11411(15) 0.1318(3)
H16B H 0.5032 -0.1237 0.2157
loop_
_geom_bond_atom_site_label_1
_geom_bond_atom_site_label_2
_geom_bond_site_symmetry_1
_geom_bond_site_symmetry_2
Se1 Se3 1_555 1_555
Se2 K1 1_555 1_555
Se3 K1 1_555 1_555
Se4 K2 1_555 1_555
Se5 K2 1_555 1_555
Se6 K1 1_555 1_555
K1 O1 1_555 1_555
K2 Se1 1_555 1_555
P1 Se1 1_555 1_555
P2 Se3 1_555 1_555
C1 H1 1_555 1_555
O1 C11 1_555 1_555
O2 K2 1_555 1_555
C2 H2 1_555 1_555
C3 C1 1_555 1_555
H3 C3 1_555 1_555
C4 C2 1_555 1_555
H4 C4 1_555 1_555
C5 C4 1_555 1_555
H5 C5 1_555 1_555
C6 P1 1_555 1_555
C7 H6 1_555 1_555
H7 C7 1_555 1_555
C8 H8 1_555 1_555
C9 P2 1_555 1_555
C10 C5 1_555 1_555
H9 C10 1_555 1_555
C11 H10 1_555 1_555
H11 C11 1_555 1_555
C12 O1 1_555 1_555
H12 C12 1_555 1_555
H13 C12 1_555 1_555
C13 C6 1_555 1_555
H14 C13 1_555 1_555
C14 C13 1_555 1_555
H15 C14 1_555 1_555
C15 C3 1_555 1_555
H16 C15 1_555 1_555
C16 O2 1_555 1_555
H17 C16 1_555 1_555
H18 C16 1_555 1_555
C17 H19 1_555 1_555
H20 C17 1_555 1_555
C18 C16 1_555 1_555
H21 C18 1_555 1_555
H22 C18 1_555 1_555
C19 C7 1_555 1_555
H23 C19 1_555 1_555
H24 C19 1_555 1_555
C20 O2 1_555 1_555
H25 C20 1_555 1_555
H26 C20 1_555 1_555
Se2B K2 1_555 1_555
Se4B K2 1_555 1_555
Se5B K1 1_555 1_555
Se6B K1 1_555 1_555
K1B Se5 1_555 1_555
K1B_2 C15 1_555 1_555
K2B Se2 1_555 1_555
C15B K1 1_555 1_555
H16B C15B 1_555 1_555
Se2 K2 1_555 1_555
Se2 P1 1_555 1_555
Se4 P1 1_555 1_555
Se4 K2B 1_555 1_555
Se5 P2 1_555 1_555
Se6 P2 1_555 1_555
Se6 K1B 1_555 1_555
C1 C6 1_555 1_555
C2 C9 1_555 1_555
C7 C12 1_555 1_555
C8 C9 1_555 1_555
C8 C10 1_555 1_555
C11 C19 1_555 1_555
C14 C15 1_555 1_555
C17 C18 1_555 1_555
C17 C20 1_555 1_555
Se2B K2B 1_555 1_555
Se4B K2B 1_555 1_555
Se6B K1B 1_555 1_555

#END
