
#######################################################################
#
#                 Cambridge Crystallographic Data Centre
#                                CCDC 
#
#######################################################################
#
# If this CIF has been generated from an entry in the Cambridge 
# Structural Database, then it will include bibliographic, chemical, 
# crystal, experimental, refinement or atomic coordinate data resulting 
# from the CCDC's data processing and validation procedures.
#
#######################################################################

data_VEXGAH
_symmetry_cell_setting           monoclinic
_symmetry_space_group_name_H-M   'P 21/n'
_symmetry_Int_Tables_number      14
_space_group_name_Hall           '-P 2yn'
loop_
_symmetry_equiv_pos_site_id
_symmetry_equiv_pos_as_xyz
1 x,y,z
2 1/2-x,1/2+y,1/2-z
3 -x,-y,-z
4 1/2+x,1/2-y,1/2+z
_cell_length_a                   11.5501(8)
_cell_length_b                   24.8978(15)
_cell_length_c                   11.7555(9)
_cell_angle_alpha                90
_cell_angle_beta                 116.901(5)
_cell_angle_gamma                90
_cell_volume                     3014.74
loop_
_atom_site_label
_atom_site_type_symbol
_atom_site_fract_x
_atom_site_fract_y
_atom_site_fract_z
Se1 Se 0.49843(5) -0.090062(18) 1.02586(5)
Se2 Se 0.20749(5) -0.028749(18) 0.77300(5)
Se3 Se 0.24433(5) -0.023602(18) 1.14664(5)
Se4 Se -0.01503(5) -0.102323(18) 0.91191(5)
C1 C 0.2443(4) -0.15805(18) 0.8274(4)
C2 C 0.3150(5) -0.20460(18) 0.8858(5)
H1 H 0.3921 -0.2021 0.9640
C3 C 0.2716(5) -0.25423(19) 0.8288(5)
H2 H 0.3199 -0.2856 0.8680
C4 C 0.1583(5) -0.2586(2) 0.7150(5)
H3 H 0.1286 -0.2928 0.6771
C5 C 0.0892(5) -0.2127(2) 0.6576(5)
H4 H 0.0122 -0.2153 0.5792
C6 C 0.1317(5) -0.1627(2) 0.7141(5)
H5 H 0.0829 -0.1315 0.6744
C7 C 0.2565(5) -0.15558(18) 1.1270(5)
C8 C 0.3688(5) -0.1528(2) 1.2431(5)
H6 H 0.4090 -0.1191 1.2752
C9 C 0.4216(6) -0.1997(2) 1.3118(5)
H7 H 0.4978 -0.1979 1.3910
C10 C 0.3642(6) -0.2487(2) 1.2656(6)
H8 H 0.4007 -0.2805 1.3130
C11 C 0.2535(5) -0.2515(2) 1.1505(5)
H9 H 0.2141 -0.2854 1.1189
C12 C 0.1994(5) -0.20543(18) 1.0805(5)
H10 H 0.1236 -0.2077 1.0010
C13 C 0.4125(6) -0.1134(2) 0.6126(6)
H11 H 0.4069 -0.1077 0.5269
H12 H 0.3288 -0.1027 0.6100
C14 C 0.4407(6) -0.1723(2) 0.6507(6)
H13 H 0.3679 -0.1889 0.6604
H14 H 0.4556 -0.1927 0.5862
C15 C 0.5630(6) -0.1707(2) 0.7776(6)
H15 H 0.5418 -0.1711 0.8503
H16 H 0.6210 -0.2013 0.7858
C16 C 0.6235(5) -0.1178(2) 0.7693(6)
H17 H 0.6822 -0.1042 0.8555
H18 H 0.6735 -0.1219 0.7201
C17 C 0.3368(7) 0.0278(3) 0.4951(6)
H19 H 0.3601 -0.0104 0.4950
H20 H 0.3705 0.0487 0.4448
C18 C 0.1926(7) 0.0343(3) 0.4413(6)
H21 H 0.1521 0.0393 0.3477
H22 H 0.1530 0.0027 0.4612
C19 C 0.1776(7) 0.0834(3) 0.5062(7)
H23 H 0.1549 0.1149 0.4485
H24 H 0.1090 0.0783 0.5335
C20 C 0.3044(7) 0.0911(3) 0.6168(7)
H25 H 0.3426 0.1257 0.6091
H26 H 0.2940 0.0920 0.6959
C21 C -0.0913(6) 0.1148(2) 0.6561(6)
H27 H -0.1014 0.1059 0.5700
H28 H -0.1687 0.1018 0.6633
C22 C -0.0753(7) 0.1752(2) 0.6791(7)
H29 H -0.1531 0.1909 0.6810
H30 H -0.0610 0.1932 0.6113
C23 C 0.0425(7) 0.1812(2) 0.8073(7)
H31 H 0.0178 0.1817 0.8776
H32 H 0.0914 0.2143 0.8109
C24 C 0.1202(6) 0.1316(2) 0.8129(6)
H33 H 0.1792 0.1220 0.9024
H34 H 0.1723 0.1374 0.7664
O1 O 0.5161(4) -0.08216(13) 0.7054(3)
O2 O 0.3882(4) 0.04799(14) 0.6229(4)
O3 O 0.0251(4) 0.09051(13) 0.7530(4)
Na1 Na 0.48429(19) -0.00638(7) 0.81109(19)
Na2 Na 0.0369(2) 0.01936(7) 0.8815(2)
P1 P 0.29259(12) -0.09325(4) 0.90691(12)
P2 P 0.19005(12) -0.09527(4) 1.03148(12)
Se1B Se 0.50157(5) 0.090062(18) 0.97414(5)
Se3B Se 0.75567(5) 0.023602(18) 0.85336(5)
Se3B_2 Se -0.24433(5) 0.023602(18) 0.85336(5)
Na1B Na 0.51571(19) 0.00638(7) 1.18891(19)
Na2B Na -0.0369(2) -0.01936(7) 1.1185(2)
loop_
_geom_bond_atom_site_label_1
_geom_bond_atom_site_label_2
_geom_bond_site_symmetry_1
_geom_bond_site_symmetry_2
Se1 Na1 1_555 1_555
Se2 Na1 1_555 1_555
Se3 Na2 1_555 1_555
Se4 Na2 1_555 1_555
C1 C2 1_555 1_555
C2 H1 1_555 1_555
C3 C2 1_555 1_555
H2 C3 1_555 1_555
C4 C3 1_555 1_555
H3 C4 1_555 1_555
C5 C4 1_555 1_555
H4 C5 1_555 1_555
C6 C1 1_555 1_555
H5 C6 1_555 1_555
C7 C8 1_555 1_555
C8 H6 1_555 1_555
C9 C8 1_555 1_555
H7 C9 1_555 1_555
C10 C9 1_555 1_555
H8 C10 1_555 1_555
C11 C10 1_555 1_555
H9 C11 1_555 1_555
C12 C7 1_555 1_555
H10 C12 1_555 1_555
C13 H11 1_555 1_555
H12 C13 1_555 1_555
C14 C13 1_555 1_555
H13 C14 1_555 1_555
H14 C14 1_555 1_555
C15 C14 1_555 1_555
H15 C15 1_555 1_555
H16 C15 1_555 1_555
C16 C15 1_555 1_555
H17 C16 1_555 1_555
H18 C16 1_555 1_555
C17 H19 1_555 1_555
H20 C17 1_555 1_555
C18 C17 1_555 1_555
H21 C18 1_555 1_555
H22 C18 1_555 1_555
C19 C18 1_555 1_555
H23 C19 1_555 1_555
H24 C19 1_555 1_555
C20 C19 1_555 1_555
H25 C20 1_555 1_555
H26 C20 1_555 1_555
C21 H27 1_555 1_555
H28 C21 1_555 1_555
C22 C21 1_555 1_555
H29 C22 1_555 1_555
H30 C22 1_555 1_555
C23 C22 1_555 1_555
H31 C23 1_555 1_555
H32 C23 1_555 1_555
C24 C23 1_555 1_555
H33 C24 1_555 1_555
H34 C24 1_555 1_555
O1 C13 1_555 1_555
O2 C17 1_555 1_555
O3 C21 1_555 1_555
Na1 O1 1_555 1_555
Na2 Se2 1_555 1_555
P1 Se1 1_555 1_555
P2 Se3 1_555 1_555
Se1B Na1 1_555 1_555
Se3B Na1 1_555 1_555
Se3B_2 Na2 1_555 1_555
Na1B Se1 1_555 1_555
Na2B Se3 1_555 1_555
Se2 P1 1_555 1_555
Se3 Na1B 1_555 1_555
Se4 P2 1_555 1_555
C1 P1 1_555 1_555
C5 C6 1_555 1_555
C7 P2 1_555 1_555
C11 C12 1_555 1_555
C16 O1 1_555 1_555
C20 O2 1_555 1_555
C24 O3 1_555 1_555
O2 Na1 1_555 1_555
O3 Na2 1_555 1_555
P1 P2 1_555 1_555
Se1B Na1B 1_555 1_555
Se3B_2 Na2B 1_555 1_555

#END
