
#######################################################################
#
#                 Cambridge Crystallographic Data Centre
#                                CCDC 
#
#######################################################################
#
# If this CIF has been generated from an entry in the Cambridge 
# Structural Database, then it will include bibliographic, chemical, 
# crystal, experimental, refinement or atomic coordinate data resulting 
# from the CCDC's data processing and validation procedures.
#
#######################################################################

data_VEXHUD
_symmetry_cell_setting           monoclinic
_symmetry_space_group_name_H-M   'P 2/n'
_symmetry_Int_Tables_number      13
_space_group_name_Hall           '-P 2yac'
loop_
_symmetry_equiv_pos_site_id
_symmetry_equiv_pos_as_xyz
1 x,y,z
2 1/2-x,y,1/2-z
3 -x,-y,-z
4 1/2+x,-y,1/2+z
_cell_length_a                   15.3479(14)
_cell_length_b                   7.4932(7)
_cell_length_c                   24.383(2)
_cell_angle_alpha                90
_cell_angle_beta                 93.5900(10)
_cell_angle_gamma                90
_cell_volume                     2798.66
loop_
_atom_site_label
_atom_site_type_symbol
_atom_site_fract_x
_atom_site_fract_y
_atom_site_fract_z
Se1 Se 0.14167(3) 0.66080(6) 0.556936(17)
Ag1 Ag 0.20240(2) 0.77738(5) 0.468734(12)
Se2 Se 0.18628(3) 0.91138(6) 0.372700(16)
O1 O 0.31516(17) 0.8700(4) 0.58417(10)
O2 O 0.32504(16) 0.9998(4) 0.48566(11)
O3 O 0.35882(17) 0.6821(4) 0.38289(10)
O4 O 0.32806(17) 0.5557(4) 0.47907(11)
C1 C 0.4588(2) 1.0744(5) 0.45038(14)
C2 C 0.4066(2) 0.5299(5) 0.48659(14)
C3 C 0.5392(3) 0.7894(5) 0.63869(16)
H1 H 0.5697 0.7409 0.6704
C4 C 0.4492(2) 0.9285(5) 0.54480(14)
C5 C 0.3773(3) 0.3887(5) 0.57503(15)
H2 H 0.3169 0.4041 0.5651
C6 C 0.5088(3) 0.7078(5) 0.35965(15)
H3 H 0.4915 0.7556 0.3245
C7 C 0.4490(3) 0.7926(5) 0.63538(16)
H4 H 0.4179 0.7472 0.6649
C8 C 0.4044(2) 1.0002(5) 0.49387(14)
C9 C 0.4454(2) 0.6606(5) 0.39554(15)
C10 C 0.4708(2) 0.5844(5) 0.44721(14)
C11 C 0.4036(3) 0.3145(5) 0.62533(16)
H5 H 0.3611 0.2785 0.6497
C12 C 0.5858(2) 0.8562(5) 0.59622(15)
H6 H 0.6478 0.8546 0.5990
C13 C 0.2686(3) 0.8175(7) 0.63131(16)
H7 H 0.2850 0.8952 0.6631
H8 H 0.2825 0.6924 0.6416
C14 C 0.1732(3) 0.8364(7) 0.61504(18)
H9 H 0.1607 0.9587 0.6013
H10 H 0.1384 0.8150 0.6472
C15 C 0.2329(3) 0.7313(6) 0.32403(16)
H11 H 0.2124 0.6115 0.3345
H12 H 0.2109 0.7547 0.2857
C16 C 0.4393(2) 0.4406(5) 0.53918(14)
C17 C -0.0296(3) 0.6658(6) 0.5964(2)
H13 H -0.0004 0.6341 0.6305
C18 C 0.3313(3) 0.7354(6) 0.32782(15)
H14 H 0.3546 0.6521 0.3008
H15 H 0.3526 0.8571 0.3202
C19 C 0.0681(3) 0.8933(6) 0.34116(18)
C20 C -0.1208(3) 0.6758(7) 0.5911(3)
H16 H -0.1541 0.6480 0.6216
C21 C -0.0242(3) 0.7599(7) 0.5031(2)
H17 H 0.0087 0.7912 0.4727
C22 C 0.0170(3) 0.7022(6) 0.55160(19)
C23 C 0.0414(3) 1.0110(7) 0.29945(19)
H18 H 0.0793 1.1024 0.2881
C24 C 0.4034(2) 0.8624(5) 0.58875(15)
C25 C -0.1616(3) 0.7256(6) 0.5422(3)
H19 H -0.2236 0.7280 0.5384
C26 C -0.0964(3) 0.8592(8) 0.2890(2)
H20 H -0.1523 0.8460 0.2704
C27 C 0.0127(3) 0.7620(6) 0.3570(2)
H21 H 0.0308 0.6833 0.3860
C28 C -0.0424(3) 0.9916(8) 0.27458(19)
H22 H -0.0621 1.0736 0.2468
C29 C -0.0698(4) 0.7436(7) 0.3307(2)
H23 H -0.1078 0.6518 0.3415
C30 C -0.1151(3) 0.7715(7) 0.4992(3)
H24 H -0.1444 0.8121 0.4661
Se1B Se 0.85833(3) 1.33920(6) 0.443064(17)
O1B O 0.68484(17) 1.1300(4) 0.41583(10)
O2B O 0.67496(16) 1.0002(4) 0.51434(11)
C1B C 0.5412(2) 0.9256(5) 0.54962(14)
C3B C 0.4608(3) 1.2106(5) 0.36131(16)
H1B H 0.4303 1.2591 0.3296
C4B C 0.5508(2) 1.0715(5) 0.45520(14)
C7B C 0.5510(3) 1.2074(5) 0.36462(16)
H4B H 0.5821 1.2528 0.3351
C8B C 0.5956(2) 0.9998(5) 0.50613(14)
C12B C 0.4142(2) 1.1438(5) 0.40378(15)
H6B H 0.3522 1.1454 0.4010
C13B C 0.7314(3) 1.1825(7) 0.36869(16)
H7B H 0.7150 1.1048 0.3369
H8B H 0.7175 1.3076 0.3584
C14B C 0.8268(3) 1.1636(7) 0.38496(18)
H9B H 0.8393 1.0413 0.3987
H10B H 0.8616 1.1850 0.3528
C17B C 1.0296(3) 1.3342(6) 0.4036(2)
H13B H 1.0004 1.3659 0.3695
C20B C 1.1208(3) 1.3242(7) 0.4089(3)
H16B H 1.1541 1.3520 0.3784
C21B C 1.0242(3) 1.2401(7) 0.4969(2)
H17B H 0.9913 1.2088 0.5273
C22B C 0.9830(3) 1.2978(6) 0.44840(19)
C24B C 0.5966(2) 1.1376(5) 0.41125(15)
C25B C 1.1616(3) 1.2744(6) 0.4578(3)
H19B H 1.2236 1.2720 0.4616
C30B C 1.1151(3) 1.2285(7) 0.5008(3)
H24B H 1.1444 1.1879 0.5339
Se2B Se 0.81372(3) 0.08862(6) 0.627300(16)
O3B O 0.64118(17) 0.3179(4) 0.61711(10)
O4B O 0.67194(17) 0.4443(4) 0.52093(11)
C2B C 0.5934(2) 0.4701(5) 0.51341(14)
C5B C 0.6227(3) 0.6113(5) 0.42497(15)
H2B H 0.6831 0.5959 0.4349
C6B C 0.4912(3) 0.2922(5) 0.64035(15)
H3B H 0.5085 0.2444 0.6755
C9B C 0.5546(2) 0.3394(5) 0.60446(15)
C10B C 0.5292(2) 0.4156(5) 0.55279(14)
C11B C 0.5964(3) 0.6855(5) 0.37467(16)
H5B H 0.6389 0.7215 0.3503
C15B C 0.7671(3) 0.2687(6) 0.67597(16)
H11B H 0.7876 0.3885 0.6655
H12B H 0.7891 0.2453 0.7143
C16B C 0.5607(2) 0.5594(5) 0.46082(14)
C18B C 0.6687(3) 0.2646(6) 0.67218(15)
H14B H 0.6454 0.3479 0.6992
H15B H 0.6474 0.1429 0.6798
C19B C 0.9319(3) 0.1067(6) 0.65884(18)
C23B C 0.9586(3) -0.0110(7) 0.70055(19)
H18B H 0.9207 -0.1024 0.7119
C26B C 1.0964(3) 0.1408(8) 0.7110(2)
H20B H 1.1523 0.1540 0.7296
C27B C 0.9873(3) 0.2380(6) 0.6430(2)
H21B H 0.9692 0.3167 0.6140
C28B C 1.0424(3) 0.0084(8) 0.72542(19)
H22B H 1.0621 -0.0736 0.7532
C29B C 1.0698(4) 0.2564(7) 0.6693(2)
H23B H 1.1078 0.3482 0.6585
Ag1B Ag 0.79760(2) 0.22262(5) 0.531266(12)
Se1B_2 Se 0.85833(3) 0.33920(6) 0.443064(17)
Ag1B_2 Ag 0.79760(2) 1.22262(5) 0.531266(12)
O2B_2 O 0.67496(16) 0.0002(4) 0.51434(11)
F1 F 0.25442(19) 0.4463(4) 0.70388(11)
F2 F 0.1767(3) 0.6558(5) 0.74414(13)
B1 B 0.2500 0.5506(12) 0.7500
F1A F 0.24558(19) 0.4463(4) 0.79612(11)
F2A F 0.3233(3) 0.6558(5) 0.75586(13)
B2 B 0.2500 0.2755(11) 0.2500
F3 F 0.2703(4) 0.3058(8) 0.3116(2)
F4 F 0.1757(7) 0.3585(17) 0.2429(5)
F3A F 0.2297(4) 0.3058(8) 0.1884(2)
F4A F 0.3243(7) 0.3585(17) 0.2571(5)
F5? F 0.1778(9) 0.3482(16) 0.2689(5)
F6? F 0.2500 0.0921(5) 0.2500
loop_
_geom_bond_atom_site_label_1
_geom_bond_atom_site_label_2
_geom_bond_site_symmetry_1
_geom_bond_site_symmetry_2
Se1 Ag1 1_555 1_555
Ag1 Se2 1_555 1_555
Se2 C15 1_555 1_555
O1 C13 1_555 1_555
O2 Ag1 1_555 1_555
O3 C9 1_555 1_555
O4 Ag1 1_555 1_555
C1 C8 1_555 1_555
C2 O4 1_555 1_555
C3 H1 1_555 1_555
C4 C8 1_555 1_555
C5 H2 1_555 1_555
C6 H3 1_555 1_555
C7 C3 1_555 1_555
H4 C7 1_555 1_555
C8 O2 1_555 1_555
C9 C6 1_555 1_555
C10 C2 1_555 1_555
C11 C5 1_555 1_555
H5 C11 1_555 1_555
C12 C3 1_555 1_555
H6 C12 1_555 1_555
C13 H7 1_555 1_555
H8 C13 1_555 1_555
C14 Se1 1_555 1_555
H9 C14 1_555 1_555
H10 C14 1_555 1_555
C15 H11 1_555 1_555
H12 C15 1_555 1_555
C16 C2 1_555 1_555
C17 H13 1_555 1_555
C18 O3 1_555 1_555
H14 C18 1_555 1_555
H15 C18 1_555 1_555
C19 Se2 1_555 1_555
C20 C17 1_555 1_555
H16 C20 1_555 1_555
C21 H17 1_555 1_555
C22 Se1 1_555 1_555
C23 C19 1_555 1_555
H18 C23 1_555 1_555
C24 O1 1_555 1_555
C25 C20 1_555 1_555
H19 C25 1_555 1_555
C26 H20 1_555 1_555
C27 C19 1_555 1_555
H21 C27 1_555 1_555
C28 C23 1_555 1_555
H22 C28 1_555 1_555
C29 C26 1_555 1_555
H23 C29 1_555 1_555
C30 C21 1_555 1_555
H24 C30 1_555 1_555
F1 B1 1_555 1_555
F2 B1 1_555 1_555
B1 F1A 1_555 1_555
B2 F3 1_555 1_555
F4 B2 1_555 1_555
Se1B C14B 1_555 1_555
O1B C13B 1_555 1_555
O2B C8B 1_555 1_555
C1B C4 1_555 1_555
C3B H1B 1_555 1_555
C4B C1 1_555 1_555
C7B C3B 1_555 1_555
H4B C7B 1_555 1_555
C8B C1B 1_555 1_555
C12B C1 1_555 1_555
H6B C12B 1_555 1_555
C13B H7B 1_555 1_555
H8B C13B 1_555 1_555
C14B C13B 1_555 1_555
H9B C14B 1_555 1_555
H10B C14B 1_555 1_555
C17B H13B 1_555 1_555
C20B C17B 1_555 1_555
H16B C20B 1_555 1_555
C21B H17B 1_555 1_555
C22B Se1B 1_555 1_555
C24B O1B 1_555 1_555
C25B C20B 1_555 1_555
H19B C25B 1_555 1_555
C30B C21B 1_555 1_555
H24B C30B 1_555 1_555
Se2B C15B 1_555 1_555
O3B C9B 1_555 1_555
O4B C2B 1_555 1_555
C2B C10B 1_555 1_555
C5B H2B 1_555 1_555
C6B C11 1_555 1_555
H3B C6B 1_555 1_555
C9B C6B 1_555 1_555
C10B C16 1_555 1_555
C11B C6 1_555 1_555
H5B C11B 1_555 1_555
C15B H11B 1_555 1_555
H12B C15B 1_555 1_555
C16B C10 1_555 1_555
C18B O3B 1_555 1_555
H14B C18B 1_555 1_555
H15B C18B 1_555 1_555
C19B Se2B 1_555 1_555
C23B C19B 1_555 1_555
H18B C23B 1_555 1_555
C26B H20B 1_555 1_555
C27B C19B 1_555 1_555
H21B C27B 1_555 1_555
C28B C23B 1_555 1_555
H22B C28B 1_555 1_555
C29B C26B 1_555 1_555
H23B C29B 1_555 1_555
Ag1B Se2B 1_555 1_555
Se1B_2 Ag1B 1_555 1_555
Ag1B_2 Se1B 1_555 1_555
O2B_2 Ag1B 1_555 1_555
F2A B1 1_555 1_555
F3A B2 1_555 1_555
F4A B2 1_555 1_555
C4 C24 1_555 1_555
C5 C16 1_555 1_555
C7 C24 1_555 1_555
C9 C10 1_555 1_555
C12 C1B 1_555 1_555
C13 C14 1_555 1_555
C15 C18 1_555 1_555
C17 C22 1_555 1_555
C21 C22 1_555 1_555
C25 C30 1_555 1_555
C26 C28 1_555 1_555
C27 C29 1_555 1_555
O2B Ag1B_2 1_555 1_555
C3B C12B 1_555 1_555
C4B C8B 1_555 1_555
C4B C24B 1_555 1_555
C7B C24B 1_555 1_555
C17B C22B 1_555 1_555
C21B C22B 1_555 1_555
C25B C30B 1_555 1_555
O4B Ag1B 1_555 1_555
C2B C16B 1_555 1_555
C5B C11B 1_555 1_555
C5B C16B 1_555 1_555
C9B C10B 1_555 1_555
C15B C18B 1_555 1_555
C26B C28B 1_555 1_555
C27B C29B 1_555 1_555

#END
