
#######################################################################
#
#                 Cambridge Crystallographic Data Centre
#                                CCDC 
#
#######################################################################
#
# If this CIF has been generated from an entry in the Cambridge 
# Structural Database, then it will include bibliographic, chemical, 
# crystal, experimental, refinement or atomic coordinate data resulting 
# from the CCDC's data processing and validation procedures.
#
#######################################################################

data_VEXHOX
_symmetry_cell_setting           monoclinic
_symmetry_space_group_name_H-M   'C 2/c'
_symmetry_Int_Tables_number      15
_space_group_name_Hall           '-C 2yn'
loop_
_symmetry_equiv_pos_site_id
_symmetry_equiv_pos_as_xyz
1 x,y,z
2 -x,y,1/2-z
3 1/2+x,1/2+y,z
4 1/2-x,1/2+y,1/2-z
5 -x,-y,-z
6 x,-y,1/2+z
7 1/2-x,1/2-y,-z
8 1/2+x,1/2-y,1/2+z
_cell_length_a                   16.088(5)
_cell_length_b                   14.913(5)
_cell_length_c                   18.849(6)
_cell_angle_alpha                90
_cell_angle_beta                 100.982(4)
_cell_angle_gamma                90
_cell_volume                     4439.44
loop_
_atom_site_label
_atom_site_type_symbol
_atom_site_fract_x
_atom_site_fract_y
_atom_site_fract_z
C1 C 0.5889(3) 0.5771(3) 0.7581(2)
C2 C 0.6825(2) 0.5779(3) 0.7648(2)
C3 C 0.7164(3) 0.6326(3) 0.7170(2)
H1 H 0.6794 0.6649 0.6823
C4 C 0.8025(3) 0.6405(3) 0.7193(2)
C5 C 0.8569(3) 0.5922(3) 0.7713(2)
H2 H 0.9151 0.5968 0.7743
C6 C 0.8254(3) 0.5376(3) 0.8184(2)
H3 H 0.8630 0.5053 0.8527
C7 C 0.7380(3) 0.5290(3) 0.8164(2)
C8 C 0.7115(3) 0.4681(4) 0.8723(3)
C9 C 0.8341(3) 0.6978(3) 0.6664(2)
C10 C 0.0544(3) 0.1486(3) 1.1613(3)
H4 H 0.0325 0.1692 1.2005
C11 C 0.1380(3) 0.1298(4) 1.1715(3)
H5 H 0.1726 0.1404 1.2162
C12 C 0.1717(3) 0.0953(4) 1.1160(3)
C13 C 0.1188(3) 0.0867(4) 1.0504(3)
H6 H 0.1398 0.0660 1.0107
C14 C 0.0351(3) 0.1084(4) 1.0430(3)
H7 H 0.0001 0.1017 0.9980
C15 C 0.2629(3) 0.0626(5) 1.1282(3)
H8 H 0.2632 0.0006 1.1127
H9 H 0.2860 0.0642 1.1796
C16 C 0.3181(3) 0.1144(4) 1.0905(3)
H10 H 0.3220 0.1756 1.1082
H11 H 0.2946 0.1155 1.0392
C17 C 0.4080(3) 0.0710(4) 1.1036(3)
H12 H 0.4331 0.0749 1.1545
H13 H 0.4028 0.0080 1.0906
C18 C 0.4655(3) 0.1165(4) 1.0599(3)
C19 C 0.4453(3) 0.1197(4) 0.9859(4)
H14 H 0.3959 0.0923 0.9619
C20 C 0.4968(3) 0.1625(4) 0.9470(3)
H15 H 0.4815 0.1623 0.8969
C21 C 0.5889(3) 0.1973(4) 1.0488(3)
H16 H 0.6406 0.2215 1.0712
C22 C 0.5406(3) 0.1572(4) 1.0918(3)
H17 H 0.5579 0.1573 1.1418
C23 C 0.5371(3) 0.5777(3) 0.6905(2)
H18 H 0.5616 0.5778 0.6496
C24 C 0.5503(3) 0.5781(3) 0.8180(2)
H19 H 0.5834 0.5791 0.8642
N1 N 0.0016(2) 0.1390(3) 1.0979(2)
N2 N 0.5677(2) 0.2046(3) 0.9772(2)
Ni1 Ni 0.61669(3) 0.30544(4) 0.91501(3)
O1 O 0.7423(2) 0.4864(3) 0.93640(19)
O2 O 0.66174(18) 0.4050(2) 0.85156(15)
O3 O 0.90894(17) 0.7244(2) 0.67826(16)
O4 O 0.78398(17) 0.7228(2) 0.60826(16)
O5 O 0.67234(19) 0.3699(3) 1.0065(2)
H20 H 0.7041(19) 0.341(2) 1.0370(17)
H21 H 0.696(2) 0.405(3) 0.983(3)
C1A C 0.4111(3) 0.5771(3) 0.7419(2)
C2A C 0.3175(2) 0.5779(3) 0.7352(2)
C3A C 0.2836(3) 0.6326(3) 0.7830(2)
H1A H 0.3206 0.6649 0.8177
C4A C 0.1975(3) 0.6405(3) 0.7807(2)
C5A C 0.1431(3) 0.5922(3) 0.7287(2)
H2A H 0.0849 0.5968 0.7257
C6A C 0.1746(3) 0.5376(3) 0.6816(2)
H3A H 0.1370 0.5053 0.6473
C7A C 0.2620(3) 0.5290(3) 0.6836(2)
C8A C 0.2885(3) 0.4681(4) 0.6277(3)
C23A C 0.4629(3) 0.5777(3) 0.8095(2)
H18A H 0.4384 0.5778 0.8504
C24A C 0.4497(3) 0.5781(3) 0.6820(2)
H19A H 0.4166 0.5791 0.6358
O1A O 0.2577(2) 0.4864(3) 0.56360(19)
O2A O 0.33826(18) 0.4050(2) 0.64844(15)
C9A C 0.1659(3) 0.6978(3) 0.8336(2)
O3A O 0.09106(17) 0.7244(2) 0.82174(16)
O4A O 0.21602(17) 0.7228(2) 0.89174(16)
C10A C 0.9456(3) 0.1486(3) 0.3387(3)
H4A H 0.9675 0.1692 0.2995
C11A C 0.8620(3) 0.1298(4) 0.3285(3)
H5A H 0.8274 0.1404 0.2838
C12A C 0.8283(3) 0.0953(4) 0.3840(3)
C13A C 0.8812(3) 0.0867(4) 0.4496(3)
H6A H 0.8602 0.0660 0.4893
C14A C 0.9649(3) 0.1084(4) 0.4570(3)
H7A H 0.9999 0.1017 0.5020
C15A C 0.7371(3) 0.0626(5) 0.3718(3)
H8A H 0.7368 0.0006 0.3873
H9A H 0.7140 0.0642 0.3204
C16A C 0.6819(3) 0.1144(4) 0.4095(3)
H10A H 0.6780 0.1756 0.3918
H11A H 0.7054 0.1155 0.4608
C17A C 0.5920(3) 0.0710(4) 0.3964(3)
H12A H 0.5669 0.0749 0.3455
H13A H 0.5972 0.0080 0.4094
C18A C 0.5345(3) 0.1165(4) 0.4401(3)
C19A C 0.5547(3) 0.1197(4) 0.5141(4)
H14A H 0.6041 0.0923 0.5381
C20A C 0.5032(3) 0.1625(4) 0.5530(3)
H15A H 0.5185 0.1623 0.6031
C21A C 0.4111(3) 0.1973(4) 0.4512(3)
H16A H 0.3594 0.2215 0.4288
C22A C 0.4594(3) 0.1572(4) 0.4082(3)
H17A H 0.4421 0.1573 0.3582
N1A N 0.9984(2) 0.1390(3) 0.4021(2)
N2A N 0.4323(2) 0.2046(3) 0.5228(2)
Ni1A Ni 0.38331(3) 0.30544(4) 0.58499(3)
O5A O 0.32766(19) 0.3699(3) 0.4935(2)
H20A H 0.2959(19) 0.341(2) 0.4630(17)
H21A H 0.304(2) 0.405(3) 0.517(3)
N1F N 0.4984(2) 0.3610(3) 0.9021(2)
N1G N 0.5016(2) 0.3610(3) 0.5979(2)
Ni1B Ni 0.11669(3) 0.80544(4) 0.91501(3)
Ni1C Ni 0.88331(3) 0.80544(4) 0.58499(3)
Ni1F Ni -0.11669(3) 0.19456(4) 1.08499(3)
Ni1G Ni 1.11669(3) 0.19456(4) 0.41501(3)
O3B O 0.40894(17) 0.2244(2) 0.67826(16)
O3C O 0.59106(17) 0.2244(2) 0.82174(16)
O4B O 0.28398(17) 0.2228(2) 0.60826(16)
O4C O 0.71602(17) 0.2228(2) 0.89174(16)
loop_
_geom_bond_atom_site_label_1
_geom_bond_atom_site_label_2
_geom_bond_site_symmetry_1
_geom_bond_site_symmetry_2
C1 C2 1_555 1_555
C2 C3 1_555 1_555
C3 H1 1_555 1_555
C4 C3 1_555 1_555
C5 C4 1_555 1_555
H2 C5 1_555 1_555
C6 C5 1_555 1_555
H3 C6 1_555 1_555
C7 C2 1_555 1_555
C8 C7 1_555 1_555
C9 C4 1_555 1_555
C10 H4 1_555 1_555
C11 C10 1_555 1_555
H5 C11 1_555 1_555
C12 C11 1_555 1_555
C13 C12 1_555 1_555
H6 C13 1_555 1_555
C14 C13 1_555 1_555
H7 C14 1_555 1_555
C15 C12 1_555 1_555
H8 C15 1_555 1_555
H9 C15 1_555 1_555
C16 C15 1_555 1_555
H10 C16 1_555 1_555
H11 C16 1_555 1_555
C17 C16 1_555 1_555
H12 C17 1_555 1_555
H13 C17 1_555 1_555
C18 C17 1_555 1_555
C19 C18 1_555 1_555
H14 C19 1_555 1_555
C20 C19 1_555 1_555
H15 C20 1_555 1_555
C21 H16 1_555 1_555
C22 C18 1_555 1_555
H17 C22 1_555 1_555
C23 C1 1_555 1_555
H18 C23 1_555 1_555
C24 C1 1_555 1_555
H19 C24 1_555 1_555
N1 C10 1_555 1_555
N2 C20 1_555 1_555
Ni1 N2 1_555 1_555
O1 C8 1_555 1_555
O2 C8 1_555 1_555
O3 C9 1_555 1_555
O4 C9 1_555 1_555
O5 Ni1 1_555 1_555
H20 O5 1_555 1_555
H21 O5 1_555 1_555
C1A C2A 1_555 1_555
C2A C3A 1_555 1_555
C3A H1A 1_555 1_555
C4A C3A 1_555 1_555
C5A C4A 1_555 1_555
H2A C5A 1_555 1_555
C6A C5A 1_555 1_555
H3A C6A 1_555 1_555
C7A C2A 1_555 1_555
C8A C7A 1_555 1_555
C23A C24 1_555 1_555
H18A C23A 1_555 1_555
C24A C23 1_555 1_555
H19A C24A 1_555 1_555
O1A C8A 1_555 1_555
O2A C8A 1_555 1_555
C9A C4A 1_555 1_555
O3A C9A 1_555 1_555
O4A C9A 1_555 1_555
C10A H4A 1_555 1_555
C11A C10A 1_555 1_555
H5A C11A 1_555 1_555
C12A C11A 1_555 1_555
C13A C12A 1_555 1_555
H6A C13A 1_555 1_555
C14A C13A 1_555 1_555
H7A C14A 1_555 1_555
C15A C12A 1_555 1_555
H8A C15A 1_555 1_555
H9A C15A 1_555 1_555
C16A C15A 1_555 1_555
H10A C16A 1_555 1_555
H11A C16A 1_555 1_555
C17A C16A 1_555 1_555
H12A C17A 1_555 1_555
H13A C17A 1_555 1_555
C18A C17A 1_555 1_555
C19A C18A 1_555 1_555
H14A C19A 1_555 1_555
C20A C19A 1_555 1_555
H15A C20A 1_555 1_555
C21A H16A 1_555 1_555
C22A C18A 1_555 1_555
H17A C22A 1_555 1_555
N1A C10A 1_555 1_555
N2A C20A 1_555 1_555
Ni1A O2A 1_555 1_555
O5A Ni1A 1_555 1_555
H20A O5A 1_555 1_555
H21A O5A 1_555 1_555
N1F Ni1 1_555 1_555
N1G Ni1A 1_555 1_555
Ni1B O3A 1_555 1_555
Ni1C O3 1_555 1_555
Ni1F N1 1_555 1_555
Ni1G N1A 1_555 1_555
O3B Ni1A 1_555 1_555
O3C Ni1 1_555 1_555
O4B Ni1A 1_555 1_555
O4C Ni1 1_555 1_555
C6 C7 1_555 1_555
C14 N1 1_555 1_555
C21 C22 1_555 1_555
C21 N2 1_555 1_555
Ni1 O2 1_555 1_555
O4 Ni1C 1_555 1_555
C1A C23A 1_555 1_555
C1A C24A 1_555 1_555
C6A C7A 1_555 1_555
O4A Ni1B 1_555 1_555
C14A N1A 1_555 1_555
C21A C22A 1_555 1_555
C21A N2A 1_555 1_555
N2A Ni1A 1_555 1_555

#END
