
#######################################################################
#
#                 Cambridge Crystallographic Data Centre
#                                CCDC 
#
#######################################################################
#
# If this CIF has been generated from an entry in the Cambridge 
# Structural Database, then it will include bibliographic, chemical, 
# crystal, experimental, refinement or atomic coordinate data resulting 
# from the CCDC's data processing and validation procedures.
#
#######################################################################

data_VEXJOY
_symmetry_cell_setting           orthorhombic
_symmetry_space_group_name_H-M   'P b c n'
_symmetry_Int_Tables_number      60
_space_group_name_Hall           '-P 2n 2ab'
loop_
_symmetry_equiv_pos_site_id
_symmetry_equiv_pos_as_xyz
1 x,y,z
2 1/2-x,1/2-y,1/2+z
3 -x,y,1/2-z
4 1/2+x,1/2-y,-z
5 -x,-y,-z
6 1/2+x,1/2+y,1/2-z
7 x,-y,1/2+z
8 1/2-x,1/2+y,z
_cell_length_a                   24.0690(2)
_cell_length_b                   9.7704(2)
_cell_length_c                   15.4182(3)
_cell_angle_alpha                90
_cell_angle_beta                 90
_cell_angle_gamma                90
_cell_volume                     3625.8
loop_
_atom_site_label
_atom_site_type_symbol
_atom_site_fract_x
_atom_site_fract_y
_atom_site_fract_z
Mo1 Mo 0.5000 0.82931(6) 0.2500
Mo2 Mo 0.591238(15) 0.62789(4) 0.14012(2)
Mo3 Mo 0.567693(15) 0.29564(4) 0.19336(2)
Se1 Se 0.451981(17) 0.54231(4) 0.13108(2)
Cu1 Cu 0.37714(2) 0.27291(6) 0.09338(3)
O1 O 0.54794(14) 0.9358(3) 0.2953(2)
O2 O 0.53500(13) 0.7675(3) 0.14578(18)
O3 O 0.44031(12) 0.6467(3) 0.21617(18)
O4 O 0.59612(13) 0.6205(3) 0.02862(18)
O5 O 0.64966(13) 0.7114(3) 0.1719(2)
O6 O 0.61632(11) 0.4465(3) 0.16926(17)
O7 O 0.51832(11) 0.4895(3) 0.14720(18)
O8 O 0.55631(14) 0.2258(4) 0.0938(2)
O9 O 0.61479(13) 0.1866(3) 0.2390(2)
O10 O 0.5000 0.2523(4) 0.2500
O11 O 0.41863(12) 0.4001(3) 0.16559(18)
O12 O 0.44114(13) 0.1400(3) 0.0805(2)
N1 N 0.32827(15) 0.1539(4) 0.0232(2)
N2 N 0.30453(15) 0.3530(4) 0.1319(2)
C1 C 0.3420(2) 0.0594(5) -0.0337(3)
H1 H 0.3794 0.0404 -0.0429
C2 C 0.3017(2) -0.0138(5) -0.0812(3)
H2 H 0.3127 -0.0800 -0.1211
C3 C 0.2471(2) 0.0120(5) -0.0689(3)
H3 H 0.2204 -0.0375 -0.0993
C4 C 0.23068(19) 0.1147(5) -0.0095(3)
C5 C 0.17465(19) 0.1525(5) 0.0097(3)
H4 H 0.1459 0.1088 -0.0195
C6 C 0.16227(19) 0.2491(5) 0.0685(3)
H5 H 0.1253 0.2701 0.0796
C7 C 0.20501(19) 0.3201(5) 0.1145(3)
C8 C 0.1959(2) 0.4256(5) 0.1745(3)
H6 H 0.1599 0.4486 0.1908
C9 C 0.24020(19) 0.4947(6) 0.2088(3)
H7 H 0.2344 0.5678 0.2464
C10 C 0.29444(19) 0.4549(5) 0.1872(3)
H8 H 0.3242 0.5010 0.2121
C11 C 0.26046(18) 0.2894(4) 0.0960(3)
C12 C 0.27364(18) 0.1823(5) 0.0350(3)
Mo2B Mo 0.408762(15) 0.62789(4) 0.35988(2)
Mo2D Mo 0.408762(15) 0.37211(4) -0.14012(2)
Mo3B Mo 0.432307(15) 0.29564(4) 0.30664(2)
Se1B Se 0.548019(17) 0.54231(4) 0.36892(2)
Cu1B Cu 0.62286(2) 0.27291(6) 0.40662(3)
Cu1D Cu 0.62286(2) 0.72709(6) -0.09338(3)
O1B O 0.45206(14) 0.9358(3) 0.2047(2)
O2B O 0.46500(13) 0.7675(3) 0.35422(18)
O3B O 0.55969(12) 0.6467(3) 0.28383(18)
O4D O 0.40388(13) 0.3795(3) -0.02862(18)
O4B O 0.40388(13) 0.6205(3) 0.47138(18)
O4F O 0.59612(13) 0.3795(3) 0.52862(18)
O5B O 0.35034(13) 0.7114(3) 0.3281(2)
O6B O 0.38368(11) 0.4465(3) 0.33074(17)
O7B O 0.48168(11) 0.4895(3) 0.35280(18)
O8B O 0.44369(14) 0.2258(4) 0.4062(2)
O9B O 0.38521(13) 0.1866(3) 0.2610(2)
O11B O 0.58137(12) 0.4001(3) 0.33441(18)
O12B O 0.55886(13) 0.1400(3) 0.4195(2)
N1B N 0.67173(15) 0.1539(4) 0.4768(2)
N2B N 0.69547(15) 0.3530(4) 0.3681(2)
C1B C 0.6580(2) 0.0594(5) 0.5337(3)
H1B H 0.6206 0.0404 0.5429
C2B C 0.6983(2) -0.0138(5) 0.5812(3)
H2B H 0.6873 -0.0800 0.6211
C3B C 0.7529(2) 0.0120(5) 0.5689(3)
H3B H 0.7796 -0.0375 0.5993
C4B C 0.76932(19) 0.1147(5) 0.5095(3)
C5B C 0.82535(19) 0.1525(5) 0.4903(3)
H4B H 0.8541 0.1088 0.5195
C6B C 0.83773(19) 0.2491(5) 0.4315(3)
H5B H 0.8747 0.2701 0.4204
C7B C 0.79499(19) 0.3201(5) 0.3855(3)
C8B C 0.8041(2) 0.4256(5) 0.3255(3)
H6B H 0.8401 0.4486 0.3092
C9B C 0.75980(19) 0.4947(6) 0.2912(3)
H7B H 0.7656 0.5678 0.2536
C10B C 0.70556(19) 0.4549(5) 0.3128(3)
H8B H 0.6758 0.5010 0.2879
C11B C 0.73954(18) 0.2894(4) 0.4040(3)
C12B C 0.72636(18) 0.1823(5) 0.4650(3)
loop_
_geom_bond_atom_site_label_1
_geom_bond_atom_site_label_2
_geom_bond_site_symmetry_1
_geom_bond_site_symmetry_2
Mo1 O1 1_555 1_555
Mo2 O2 1_555 1_555
Mo3 O6 1_555 1_555
Se1 O3 1_555 1_555
Cu1 O11 1_555 1_555
O2 Mo1 1_555 1_555
O3 Mo1 1_555 1_555
O4 Mo2 1_555 1_555
O5 Mo2 1_555 1_555
O6 Mo2 1_555 1_555
O7 Mo2 1_555 1_555
O8 Mo3 1_555 1_555
O9 Mo3 1_555 1_555
O10 Mo3 1_555 1_555
O11 Se1 1_555 1_555
O12 Cu1 1_555 1_555
N1 Cu1 1_555 1_555
N2 Cu1 1_555 1_555
C1 N1 1_555 1_555
H1 C1 1_555 1_555
C2 C1 1_555 1_555
H2 C2 1_555 1_555
C3 C2 1_555 1_555
H3 C3 1_555 1_555
C4 C3 1_555 1_555
C5 C4 1_555 1_555
H4 C5 1_555 1_555
C6 C5 1_555 1_555
H5 C6 1_555 1_555
C7 C6 1_555 1_555
C8 C7 1_555 1_555
H6 C8 1_555 1_555
C9 C8 1_555 1_555
H7 C9 1_555 1_555
C10 N2 1_555 1_555
H8 C10 1_555 1_555
C11 N2 1_555 1_555
C12 N1 1_555 1_555
Mo2B O3 1_555 1_555
Mo2D O4D 1_555 1_555
Mo3B O10 1_555 1_555
Se1B O3B 1_555 1_555
Cu1B O4F 1_555 1_555
Cu1D O4 1_555 1_555
O1B Mo1 1_555 1_555
O2B Mo1 1_555 1_555
O3B Mo1 1_555 1_555
O4D Cu1 1_555 1_555
O4B Mo2B 1_555 1_555
O5B Mo2B 1_555 1_555
O6B Mo2B 1_555 1_555
O7B Mo2B 1_555 1_555
O8B Mo3B 1_555 1_555
O9B Mo3B 1_555 1_555
O11B Mo3 1_555 1_555
O12B Cu1B 1_555 1_555
N1B Cu1B 1_555 1_555
N2B Cu1B 1_555 1_555
C1B N1B 1_555 1_555
H1B C1B 1_555 1_555
C2B C1B 1_555 1_555
H2B C2B 1_555 1_555
C3B C2B 1_555 1_555
H3B C3B 1_555 1_555
C4B C3B 1_555 1_555
C5B C4B 1_555 1_555
H4B C5B 1_555 1_555
C6B C5B 1_555 1_555
H5B C6B 1_555 1_555
C7B C6B 1_555 1_555
C8B C7B 1_555 1_555
H6B C8B 1_555 1_555
C9B C8B 1_555 1_555
H7B C9B 1_555 1_555
C10B N2B 1_555 1_555
H8B C10B 1_555 1_555
C11B N2B 1_555 1_555
C12B N1B 1_555 1_555
Mo2 O3B 1_555 1_555
Mo3 O7 1_555 1_555
Se1 O7 1_555 1_555
O11 Mo3B 1_555 1_555
C4 C12 1_555 1_555
C7 C11 1_555 1_555
C9 C10 1_555 1_555
C11 C12 1_555 1_555
Mo2B O2B 1_555 1_555
Mo3B O6B 1_555 1_555
Mo3B O7B 1_555 1_555
Se1B O7B 1_555 1_555
Se1B O11B 1_555 1_555
Cu1B O11B 1_555 1_555
C4B C12B 1_555 1_555
C7B C11B 1_555 1_555
C9B C10B 1_555 1_555
C11B C12B 1_555 1_555

#END
