
#######################################################################
#
#                 Cambridge Crystallographic Data Centre
#                                CCDC 
#
#######################################################################
#
# If this CIF has been generated from an entry in the Cambridge 
# Structural Database, then it will include bibliographic, chemical, 
# crystal, experimental, refinement or atomic coordinate data resulting 
# from the CCDC's data processing and validation procedures.
#
#######################################################################

data_VEXLEQ
_symmetry_cell_setting           monoclinic
_symmetry_space_group_name_H-M   'C 2/c'
_symmetry_Int_Tables_number      15
_space_group_name_Hall           '-C 2yn'
loop_
_symmetry_equiv_pos_site_id
_symmetry_equiv_pos_as_xyz
1 x,y,z
2 1/2+x,1/2+y,z
3 -x,y,1/2-z
4 1/2-x,1/2+y,1/2-z
5 -x,-y,-z
6 1/2-x,1/2-y,-z
7 x,-y,1/2+z
8 1/2+x,1/2-y,1/2+z
_cell_length_a                   9.395(1)
_cell_length_b                   21.277(1)
_cell_length_c                   9.891(1)
_cell_angle_alpha                90
_cell_angle_beta                 98.591(9)
_cell_angle_gamma                90
_cell_volume                     1955
loop_
_atom_site_label
_atom_site_type_symbol
_atom_site_fract_x
_atom_site_fract_y
_atom_site_fract_z
Rb1 Rb 0.23898(8) 0.54906(2) 0.23932(8)
O1 O 0.5000 0.4661(3) 0.2500
O2 O 0.6483(4) 0.45773(18) 0.0489(4)
O3 O 0.7286(4) 0.36920(18) -0.0054(4)
O4 O 0.6587(4) 0.2704(2) 0.0912(4)
O5 O 0.6150(4) 0.17667(18) 0.2525(4)
N1 N 0.6525(5) 0.4006(3) 0.0665(5)
N2 N 0.5000 0.2046(4) 0.2500
C1 C 0.5000 0.4088(5) 0.2500
C2 C 0.5796(6) 0.3702(3) 0.1619(5)
C3 C 0.5834(6) 0.3045(3) 0.1673(6)
C4 C 0.5000 0.2730(4) 0.2500
O6 O 0.0000 0.4569(3) 0.2500
O7 O -0.0489(4) 0.4296(2) 0.5258(4)
O8 O -0.2512(5) 0.3855(2) 0.4658(4)
O9 O -0.1412(4) 0.2683(2) 0.4357(4)
O10 O -0.0641(4) 0.16712(16) 0.3324(4)
N3 N -0.1260(6) 0.3949(2) 0.4518(5)
N4 N 0.0000 0.1974(4) 0.2500
C5 C 0.0000 0.3983(4) 0.2500
C6 C -0.0645(6) 0.3603(3) 0.3446(6)
C7 C -0.0714(6) 0.2967(3) 0.3445(6)
C8 C 0.0000 0.2626(4) 0.2500
H1 H 0.695(4) 0.2938(16) 0.039(3)
H2 H -0.128(5) 0.2306(7) 0.428(5)
Rb1B Rb 0.76102(8) 0.54906(2) 0.26068(8)
Rb1B_2 Rb -0.23898(8) 0.54906(2) 0.26068(8)
Rb1D Rb 0.76102(8) 0.45094(2) -0.23932(8)
Rb1A Rb 0.73898(8) 0.04906(2) 0.23932(8)
Rb1F Rb 0.23898(8) 0.45094(2) 0.73932(8)
Rb1D_2 Rb -0.23898(8) 0.45094(2) 0.76068(8)
Rb1A_2 Rb -0.26102(8) 0.04906(2) 0.23932(8)
Rb1C Rb 0.26102(8) 0.04906(2) 0.26068(8)
Rb1F_2 Rb 0.23898(8) 0.45094(2) -0.26068(8)
Rb1D_3 Rb -0.23898(8) 0.45094(2) -0.23932(8)
Rb1_2 Rb 1.23898(8) 0.54906(2) 0.23932(8)
O2B O 0.3517(4) 0.45773(18) 0.4511(4)
O2D O 0.3517(4) 0.54227(18) -0.0489(4)
O2F O 0.6483(4) 0.54227(18) 0.5489(4)
O3B O 0.2714(4) 0.36920(18) 0.5054(4)
O3D O 0.2714(4) 0.63080(18) 0.0054(4)
O3F O 0.7286(4) 0.63080(18) 0.4946(4)
O4B O 0.3413(4) 0.2704(2) 0.4088(4)
O5B O 0.3850(4) 0.17667(18) 0.2475(4)
O5A O 0.1150(4) 0.67667(18) 0.2525(4)
O5C O 0.8850(4) 0.67667(18) 0.2475(4)
N1B N 0.3475(5) 0.4006(3) 0.4335(5)
C2B C 0.4204(6) 0.3702(3) 0.3381(5)
C3B C 0.4166(6) 0.3045(3) 0.3327(6)
O6_2 O 1.0000 0.4569(3) 0.2500
O7B O 0.0489(4) 0.4296(2) -0.0258(4)
O7F O -0.0489(4) 0.5704(2) 0.0258(4)
O7D O 0.0489(4) 0.5704(2) 0.4742(4)
O7F_2 O 0.9511(4) 0.5704(2) 0.0258(4)
O7D_2 O 1.0489(4) 0.5704(2) 0.4742(4)
O8B O 0.2512(5) 0.3855(2) 0.0342(4)
O8D O 0.2512(5) 0.6145(2) 0.5342(4)
O8F O 0.7488(5) 0.6145(2) -0.0342(4)
O9B O 0.1412(4) 0.2683(2) 0.0643(4)
O10B O 0.0641(4) 0.16712(16) 0.1676(4)
O10A O 0.4359(4) 0.66712(16) 0.3324(4)
O10C O 0.5641(4) 0.66712(16) 0.1676(4)
N3B N 0.1260(6) 0.3949(2) 0.0482(5)
C6B C 0.0645(6) 0.3603(3) 0.1554(6)
C7B C 0.0714(6) 0.2967(3) 0.1555(6)
H1B H 0.305(4) 0.2938(16) 0.461(3)
H2B H 0.128(5) 0.2306(7) 0.072(5)
loop_
_geom_bond_atom_site_label_1
_geom_bond_atom_site_label_2
_geom_bond_site_symmetry_1
_geom_bond_site_symmetry_2
Rb1 O1 1_555 1_555
O1 C1 1_555 1_555
O2 N1 1_555 1_555
O3 N1 1_555 1_555
O4 C3 1_555 1_555
O5 N2 1_555 1_555
N1 C2 1_555 1_555
N2 C4 1_555 1_555
C1 C2 1_555 1_555
C2 C3 1_555 1_555
C3 C4 1_555 1_555
C4 C3B 1_555 1_555
O6 Rb1 1_555 1_555
O7 N3 1_555 1_555
O8 N3 1_555 1_555
O9 C7 1_555 1_555
O10 N4 1_555 1_555
N3 C6 1_555 1_555
N4 C8 1_555 1_555
C5 O6 1_555 1_555
C6 C5 1_555 1_555
C7 C6 1_555 1_555
C8 C7 1_555 1_555
H1 O4 1_555 1_555
H2 O9 1_555 1_555
Rb1B O1 1_555 1_555
Rb1B_2 O6 1_555 1_555
Rb1D O2 1_555 1_555
Rb1A O5 1_555 1_555
Rb1F O7 1_555 1_555
Rb1D_2 O7 1_555 1_555
Rb1A_2 O10 1_555 1_555
Rb1C O5B 1_555 1_555
Rb1F_2 O2D 1_555 1_555
Rb1D_3 O7B 1_555 1_555
Rb1_2 O6_2 1_555 1_555
O2B Rb1 1_555 1_555
O2D Rb1 1_555 1_555
O2F Rb1B 1_555 1_555
O3B Rb1F 1_555 1_555
O3D Rb1 1_555 1_555
O3F Rb1B 1_555 1_555
O4B C3B 1_555 1_555
O5B N2 1_555 1_555
O5A Rb1 1_555 1_555
O5C Rb1B 1_555 1_555
N1B O2B 1_555 1_555
C2B C1 1_555 1_555
C3B C2B 1_555 1_555
O6_2 Rb1B 1_555 1_555
O7B Rb1F_2 1_555 1_555
O7F Rb1 1_555 1_555
O7D Rb1 1_555 1_555
O7F_2 Rb1B 1_555 1_555
O7D_2 Rb1B 1_555 1_555
O8B Rb1F_2 1_555 1_555
O8D Rb1 1_555 1_555
O8F Rb1B 1_555 1_555
O9B C7B 1_555 1_555
O10B N4 1_555 1_555
O10A Rb1 1_555 1_555
O10C Rb1B 1_555 1_555
N3B O7B 1_555 1_555
C6B C5 1_555 1_555
C7B C8 1_555 1_555
H1B O4B 1_555 1_555
H2B O9B 1_555 1_555
O2 Rb1B 1_555 1_555
O3 Rb1D 1_555 1_555
O8 Rb1D_2 1_555 1_555
Rb1B_2 O7F 1_555 1_555
Rb1B_2 O7D 1_555 1_555
Rb1F O2B 1_555 1_555
Rb1C O10B 1_555 1_555
Rb1_2 O7F_2 1_555 1_555
Rb1_2 O7D_2 1_555 1_555
O3B N1B 1_555 1_555
N1B C2B 1_555 1_555
O8B N3B 1_555 1_555
N3B C6B 1_555 1_555
C6B C7B 1_555 1_555

#END
