
#######################################################################
#
#                 Cambridge Crystallographic Data Centre
#                                CCDC 
#
#######################################################################
#
# If this CIF has been generated from an entry in the Cambridge 
# Structural Database, then it will include bibliographic, chemical, 
# crystal, experimental, refinement or atomic coordinate data resulting 
# from the CCDC's data processing and validation procedures.
#
#######################################################################

data_VEXMUI
_symmetry_cell_setting           triclinic
_symmetry_space_group_name_H-M   'P -1'
_symmetry_Int_Tables_number      2
_space_group_name_Hall           '-P 1'
loop_
_symmetry_equiv_pos_site_id
_symmetry_equiv_pos_as_xyz
1 x,y,z
2 -x,-y,-z
_cell_length_a                   10.507(5)
_cell_length_b                   10.580(5)
_cell_length_c                   10.725(5)
_cell_angle_alpha                101.281(5)
_cell_angle_beta                 108.121(5)
_cell_angle_gamma                90.551(5)
_cell_volume                     1108.03
loop_
_atom_site_label
_atom_site_type_symbol
_atom_site_fract_x
_atom_site_fract_y
_atom_site_fract_z
Co1 Co 0.93329(4) 0.38170(4) 0.02834(4)
Co2 Co 0.81011(4) 0.66836(4) 0.09378(4)
C1 C 1.4387(5) 0.6192(7) 0.6201(5)
H1 H 1.4288 0.5501 0.6634
H2 H 1.4424 0.7006 0.6798
H3 H 1.5201 0.6127 0.5972
C2 C 1.3207(4) 0.6099(5) 0.4946(4)
C3 C 1.2167(4) 0.5168(5) 0.4585(3)
H4 H 1.2197 0.4586 0.5138
C4 C 1.1068(3) 0.5056(3) 0.3423(3)
C5 C 1.1051(3) 0.5899(3) 0.2556(3)
C6 C 0.9852(4) 0.4206(4) 0.3220(4)
H5 H 0.9089 0.4731 0.3102
H6 H 0.9968 0.3888 0.4035
C7 C 0.8212(4) 0.2448(4) 0.2013(4)
H7 H 0.7533 0.3063 0.1843
H8 H 0.8305 0.2265 0.2887
C8 C 0.7706(5) 0.1194(4) 0.0956(5)
H9 H 0.8116 0.0485 0.1347
H10 H 0.6746 0.1063 0.0777
C9 C 0.7956(5) 0.1095(4) -0.0383(4)
H11 H 0.8857 0.0830 -0.0286
H12 H 0.7334 0.0420 -0.1040
C10 C 0.8085(4) 0.1987(3) -0.2218(4)
H13 H 0.7471 0.1264 -0.2793
H14 H 0.8989 0.1710 -0.2054
C11 C 1.2045(4) 0.6925(4) 0.2956(3)
C12 C 1.3113(4) 0.6996(4) 0.4146(4)
H15 H 1.3780 0.7668 0.4406
C13 C 1.0608(4) 0.2203(4) 0.2294(4)
H16 H 1.0227 0.1316 0.2037
H17 H 1.1115 0.2372 0.3243
C14 C 1.1551(4) 0.2363(3) 0.1511(3)
C15 C 0.6455(4) 0.2749(3) -0.1127(4)
H18 H 0.6056 0.2433 -0.0533
H19 H 0.5900 0.2395 -0.2043
C16 C 0.6480(3) 0.4207(3) -0.0866(3)
C17 C 0.9934(5) 0.9743(4) 0.4374(4)
H20 H 1.0449 1.0119 0.3958
C18 C 0.9006(4) 0.8591(4) 0.3579(4)
N1 N 0.9510(3) 0.3072(3) 0.2072(3)
N2 N 0.7812(3) 0.2301(3) -0.0916(3)
O1 O 1.0064(2) 0.5728(2) 0.1349(2)
O2 O 1.1067(2) 0.2873(2) 0.0482(2)
O3 O 1.2663(3) 0.1957(3) 0.1834(3)
O4 O 0.7615(2) 0.4810(2) -0.0213(2)
O5 O 0.5422(2) 0.4728(3) -0.1242(3)
O6 O 0.8920(3) 0.8297(2) 0.2347(2)
O7 O 0.8409(5) 0.7997(4) 0.4137(3)
O8 O 0.7243(3) 0.6048(2) 0.2235(3)
H21 H 0.641(2) 0.585(4) 0.193(4)
H22 H 0.752(4) 0.665(3) 0.290(3)
O9 O 0.6207(3) 0.7288(3) -0.0117(3)
H23 H 0.579(4) 0.656(3) -0.051(4)
H24 H 0.662(5) 0.762(4) -0.054(4)
C1A C 0.5613(5) 0.3808(7) -0.6201(5)
H1A H 0.5712 0.4499 -0.6634
H2A H 0.5576 0.2994 -0.6798
H3A H 0.4799 0.3873 -0.5972
C2A C 0.6793(4) 0.3901(5) -0.4946(4)
C3A C 0.7833(4) 0.4832(5) -0.4585(3)
H4A H 0.7803 0.5414 -0.5138
C4A C 0.8932(3) 0.4944(3) -0.3423(3)
C5A C 0.8949(3) 0.4101(3) -0.2556(3)
C6A C 1.0148(4) 0.5794(4) -0.3220(4)
H5A H 1.0911 0.5269 -0.3102
H6A H 1.0032 0.6112 -0.4035
C7A C 1.1788(4) 0.7552(4) -0.2013(4)
H7A H 1.2467 0.6937 -0.1843
H8A H 1.1695 0.7735 -0.2887
C8A C 1.2294(5) 0.8806(4) -0.0956(5)
H9A H 1.1884 0.9515 -0.1347
H10A H 1.3254 0.8937 -0.0777
C9A C 1.2044(5) 0.8905(4) 0.0383(4)
H11A H 1.1143 0.9170 0.0286
H12A H 1.2666 0.9580 0.1040
C10A C 1.1915(4) 0.8013(3) 0.2218(4)
H13A H 1.2529 0.8736 0.2793
H14A H 1.1011 0.8290 0.2054
C11A C 0.7955(4) 0.3075(4) -0.2956(3)
C12A C 0.6887(4) 0.3004(4) -0.4146(4)
H15A H 0.6220 0.2332 -0.4406
C13A C 0.9392(4) 0.7797(4) -0.2294(4)
H16A H 0.9773 0.8684 -0.2037
H17A H 0.8885 0.7628 -0.3243
C14A C 0.8449(4) 0.7637(3) -0.1511(3)
C15A C 1.3545(4) 0.7251(3) 0.1127(4)
H18A H 1.3944 0.7567 0.0533
H19A H 1.4100 0.7605 0.2043
C16A C 1.3520(3) 0.5793(3) 0.0866(3)
N1A N 1.0490(3) 0.6928(3) -0.2072(3)
N2A N 1.2188(3) 0.7699(3) 0.0916(3)
O1A O 0.9936(2) 0.4272(2) -0.1349(2)
O2A O 0.8933(2) 0.7127(2) -0.0482(2)
O3A O 0.7337(3) 0.8043(3) -0.1834(3)
O4A O 1.2385(2) 0.5190(2) 0.0213(2)
O5A O 1.4578(2) 0.5272(3) 0.1242(3)
C17A C 1.0066(5) 1.0257(4) 0.5626(4)
H20A H 0.9551 0.9881 0.6042
C18A C 1.0994(4) 1.1409(4) 0.6421(4)
O6A O 1.1080(3) 1.1703(2) 0.7653(2)
O7A O 1.1591(5) 1.2003(4) 0.5863(3)
Co1A Co 1.06671(4) 0.61830(4) -0.02834(4)
Co2A Co 1.18989(4) 0.33164(4) -0.09378(4)
O8A O 1.2757(3) 0.3952(2) -0.2235(3)
H21A H 1.359(2) 0.415(4) -0.193(4)
H22A H 1.248(4) 0.335(3) -0.290(3)
O9A O 1.3793(3) 0.2712(3) 0.0117(3)
H23A H 1.421(4) 0.344(3) 0.051(4)
H24A H 1.338(5) 0.238(4) 0.054(4)
Co2A_2 Co 1.18989(4) 1.33164(4) 0.90622(4)
O6A_2 O 1.1080(3) 0.1703(2) -0.2347(2)
O10 O 0.6369(10) -0.1118(10) -0.4520(12)
loop_
_geom_bond_atom_site_label_1
_geom_bond_atom_site_label_2
_geom_bond_site_symmetry_1
_geom_bond_site_symmetry_2
Co1 N1 1_555 1_555
Co2 O1 1_555 1_555
C1 H1 1_555 1_555
H2 C1 1_555 1_555
H3 C1 1_555 1_555
C2 C1 1_555 1_555
C3 C2 1_555 1_555
H4 C3 1_555 1_555
C4 C3 1_555 1_555
C5 C4 1_555 1_555
C6 C4 1_555 1_555
H5 C6 1_555 1_555
H6 C6 1_555 1_555
C7 H7 1_555 1_555
H8 C7 1_555 1_555
C8 C7 1_555 1_555
H9 C8 1_555 1_555
H10 C8 1_555 1_555
C9 C8 1_555 1_555
H11 C9 1_555 1_555
H12 C9 1_555 1_555
C10 H13 1_555 1_555
H14 C10 1_555 1_555
C11 C5 1_555 1_555
C12 C2 1_555 1_555
H15 C12 1_555 1_555
C13 H16 1_555 1_555
H17 C13 1_555 1_555
C14 C13 1_555 1_555
C15 H18 1_555 1_555
H19 C15 1_555 1_555
C16 C15 1_555 1_555
C17 H20 1_555 1_555
C18 C17 1_555 1_555
N1 C6 1_555 1_555
N2 Co1 1_555 1_555
O1 Co1 1_555 1_555
O2 Co1 1_555 1_555
O3 C14 1_555 1_555
O4 Co1 1_555 1_555
O5 C16 1_555 1_555
O6 Co2 1_555 1_555
O7 C18 1_555 1_555
O8 Co2 1_555 1_555
H21 O8 1_555 1_555
H22 O8 1_555 1_555
O9 Co2 1_555 1_555
H23 O9 1_555 1_555
H24 O9 1_555 1_555
C1A H1A 1_555 1_555
H2A C1A 1_555 1_555
H3A C1A 1_555 1_555
C2A C1A 1_555 1_555
C3A C2A 1_555 1_555
H4A C3A 1_555 1_555
C4A C3A 1_555 1_555
C5A C4A 1_555 1_555
C6A C4A 1_555 1_555
H5A C6A 1_555 1_555
H6A C6A 1_555 1_555
C7A H7A 1_555 1_555
H8A C7A 1_555 1_555
C8A C7A 1_555 1_555
H9A C8A 1_555 1_555
H10A C8A 1_555 1_555
C9A C8A 1_555 1_555
H11A C9A 1_555 1_555
H12A C9A 1_555 1_555
C10A C11 1_555 1_555
H13A C10A 1_555 1_555
H14A C10A 1_555 1_555
C11A C10 1_555 1_555
C12A C2A 1_555 1_555
H15A C12A 1_555 1_555
C13A H16A 1_555 1_555
H17A C13A 1_555 1_555
C14A C13A 1_555 1_555
C15A H18A 1_555 1_555
H19A C15A 1_555 1_555
C16A C15A 1_555 1_555
N1A C6A 1_555 1_555
N2A C9A 1_555 1_555
O1A Co1 1_555 1_555
O2A Co2 1_555 1_555
O3A C14A 1_555 1_555
O4A C16A 1_555 1_555
O5A C16A 1_555 1_555
C17A C17 1_555 1_555
H20A C17A 1_555 1_555
C18A C17A 1_555 1_555
O6A C18A 1_555 1_555
O7A C18A 1_555 1_555
Co1A O1 1_555 1_555
Co2A O2 1_555 1_555
O8A Co2A 1_555 1_555
H21A O8A 1_555 1_555
H22A O8A 1_555 1_555
O9A Co2A 1_555 1_555
H23A O9A 1_555 1_555
H24A O9A 1_555 1_555
Co2A_2 O6A 1_555 1_555
O6A_2 Co2A 1_555 1_555
Co2 O4 1_555 1_555
C5 O1 1_555 1_555
C7 N1 1_555 1_555
C9 N2 1_555 1_555
C10 N2 1_555 1_555
C11 C12 1_555 1_555
C13 N1 1_555 1_555
C14 O2 1_555 1_555
C15 N2 1_555 1_555
C16 O4 1_555 1_555
C18 O6 1_555 1_555
C5A C11A 1_555 1_555
C5A O1A 1_555 1_555
C7A N1A 1_555 1_555
C10A N2A 1_555 1_555
C11A C12A 1_555 1_555
C13A N1A 1_555 1_555
C14A O2A 1_555 1_555
C15A N2A 1_555 1_555
N1A Co1A 1_555 1_555
N2A Co1A 1_555 1_555
O1A Co1A 1_555 1_555
O1A Co2A 1_555 1_555
O2A Co1A 1_555 1_555
O4A Co1A 1_555 1_555
O4A Co2A 1_555 1_555

#END
