
#######################################################################
#
#                 Cambridge Crystallographic Data Centre
#                                CCDC 
#
#######################################################################
#
# If this CIF has been generated from an entry in the Cambridge 
# Structural Database, then it will include bibliographic, chemical, 
# crystal, experimental, refinement or atomic coordinate data resulting 
# from the CCDC's data processing and validation procedures.
#
#######################################################################

data_VEXMOB
_symmetry_cell_setting           monoclinic
_symmetry_space_group_name_H-M   'C 2'
_symmetry_Int_Tables_number      5
_space_group_name_Hall           'C 2y'
loop_
_symmetry_equiv_pos_site_id
_symmetry_equiv_pos_as_xyz
1 x,y,z
2 -x,y,-z
3 1/2+x,1/2+y,z
4 1/2-x,1/2+y,-z
_cell_length_a                   24.132(6)
_cell_length_b                   6.8438(16)
_cell_length_c                   11.751(3)
_cell_angle_alpha                90
_cell_angle_beta                 93.354(4)
_cell_angle_gamma                90
_cell_volume                     1937.41
loop_
_atom_site_label
_atom_site_type_symbol
_atom_site_fract_x
_atom_site_fract_y
_atom_site_fract_z
Ag1 Ag 0.01541(2) 0.61610(10) 0.72861(5)
Ag2 Ag 0.0000 0.38355(11) 0.5000
Ag3 Ag 0.0000 0.69262(14) 1.0000
N1 N -0.0763(3) 0.3538(10) 0.5859(6)
H1 H -0.0917 0.2359 0.5638
H2 H -0.0667 0.3442 0.6627
N2 N -0.0568(3) 0.7624(11) 0.6506(6)
H3 H -0.0585 0.8844 0.6830
H4 H -0.0505 0.7807 0.5749
N3 N 0.0787(3) 0.4491(11) 0.8173(6)
H5 H 0.0633 0.3954 0.8799
H6 H 0.0872 0.3468 0.7706
N4 N 0.0881(3) 0.7071(12) 1.0194(6)
H7 H 0.0968 0.8087 1.0686
H8 H 0.0999 0.5944 1.0560
C1 C -0.1205(3) 0.5017(13) 0.5725(7)
H9 H -0.1206 0.5540 0.4930
C2 C -0.1117(3) 0.6747(12) 0.6554(7)
H10 H -0.1148 0.6228 0.7343
C3 C -0.1584(4) 0.8213(13) 0.6332(8)
H11 H -0.1577 0.8708 0.5541
H12 H -0.1529 0.9337 0.6857
C4 C -0.2147(4) 0.7269(15) 0.6506(8)
H13 H -0.2160 0.6824 0.7306
H14 H -0.2446 0.8246 0.6361
C5 C -0.2246(4) 0.5551(13) 0.5715(8)
H15 H -0.2275 0.6013 0.4915
H16 H -0.2600 0.4903 0.5878
C6 C -0.1762(4) 0.4074(13) 0.5876(8)
H17 H -0.1764 0.3499 0.6649
H18 H -0.1819 0.3001 0.5316
C7 C 0.1325(3) 0.5408(13) 0.8585(7)
H19 H 0.1520 0.4490 0.9134
C8 C 0.1229(4) 0.7318(13) 0.9200(7)
H20 H 0.1035 0.8241 0.8651
C9 C 0.1796(4) 0.8229(16) 0.9603(8)
H21 H 0.1733 0.9511 0.9964
H22 H 0.1985 0.7368 1.0181
C10 C 0.2173(4) 0.8506(17) 0.8598(9)
H23 H 0.2006 0.9489 0.8063
H24 H 0.2540 0.8998 0.8888
C11 C 0.2244(4) 0.6599(16) 0.7977(9)
H25 H 0.2451 0.5668 0.8488
H26 H 0.2466 0.6827 0.7306
C12 C 0.1688(4) 0.5714(15) 0.7587(9)
H27 H 0.1750 0.4445 0.7211
H28 H 0.1496 0.6591 0.7022
Ag1A Ag -0.01541(2) 0.61610(10) 0.27139(5)
Ag3_2 Ag 0.0000 0.69262(14) 0.0000
N1A N 0.0763(3) 0.3538(10) 0.4141(6)
H1A H 0.0917 0.2359 0.4362
H2A H 0.0667 0.3442 0.3373
N2A N 0.0568(3) 0.7624(11) 0.3494(6)
H3A H 0.0585 0.8844 0.3170
H4A H 0.0505 0.7807 0.4251
N3A N -0.0787(3) 0.4491(11) 0.1827(6)
H5A H -0.0633 0.3954 0.1201
H6A H -0.0872 0.3468 0.2294
N4A N -0.0881(3) 0.7071(12) -0.0194(6)
N4A_2 N -0.0881(3) 0.7071(12) 0.9806(6)
H7A H -0.0968 0.8087 -0.0686
H7A_2 H -0.0968 0.8087 0.9314
H8A H -0.0999 0.5944 -0.0560
H8A_2 H -0.0999 0.5944 0.9440
C1A C 0.1205(3) 0.5017(13) 0.4275(7)
H9A H 0.1206 0.5540 0.5070
C2A C 0.1117(3) 0.6747(12) 0.3446(7)
H10A H 0.1148 0.6228 0.2657
C3A C 0.1584(4) 0.8213(13) 0.3668(8)
H11A H 0.1577 0.8708 0.4459
H12A H 0.1529 0.9337 0.3143
C4A C 0.2147(4) 0.7269(15) 0.3494(8)
H13A H 0.2160 0.6824 0.2694
H14A H 0.2446 0.8246 0.3639
C5A C 0.2246(4) 0.5551(13) 0.4285(8)
H15A H 0.2275 0.6013 0.5085
H16A H 0.2600 0.4903 0.4122
C6A C 0.1762(4) 0.4074(13) 0.4124(8)
H17A H 0.1764 0.3499 0.3351
H18A H 0.1819 0.3001 0.4684
C7A C -0.1325(3) 0.5408(13) 0.1415(7)
H19A H -0.1520 0.4490 0.0866
C8A C -0.1229(4) 0.7318(13) 0.0800(7)
H20A H -0.1035 0.8241 0.1349
C9A C -0.1796(4) 0.8229(16) 0.0397(8)
H21A H -0.1733 0.9511 0.0036
H22A H -0.1985 0.7368 -0.0181
C10A C -0.2173(4) 0.8506(17) 0.1402(9)
H23A H -0.2006 0.9489 0.1937
H24A H -0.2540 0.8998 0.1112
C11A C -0.2244(4) 0.6599(16) 0.2023(9)
H25A H -0.2451 0.5668 0.1512
H26A H -0.2466 0.6827 0.2694
C12A C -0.1688(4) 0.5714(15) 0.2413(9)
H27A H -0.1750 0.4445 0.2789
H28A H -0.1496 0.6591 0.2978
O1 O 0.1144(3) 0.1373(12) 0.6374(6)
O2 O 0.0329(4) 0.0813(13) 0.6940(11)
O3 O 0.0733(4) -0.1383(12) 0.5955(7)
N5 N 0.0731(3) 0.0271(11) 0.6430(6)
O4 O 0.0708(6) 0.1727(13) 0.0054(7)
O5 O 0.0645(4) 0.3518(10) 0.1562(6)
O6 O 0.0827(4) 0.0454(11) 0.1738(6)
N6 N 0.0731(4) 0.1919(13) 0.1112(7)
loop_
_geom_bond_atom_site_label_1
_geom_bond_atom_site_label_2
_geom_bond_site_symmetry_1
_geom_bond_site_symmetry_2
Ag1 N2 1_555 1_555
Ag2 N1 1_555 1_555
Ag3 N4 1_555 1_555
N1 H1 1_555 1_555
H2 N1 1_555 1_555
N2 H3 1_555 1_555
H4 N2 1_555 1_555
N3 Ag1 1_555 1_555
H5 N3 1_555 1_555
H6 N3 1_555 1_555
N4 H7 1_555 1_555
H8 N4 1_555 1_555
C1 N1 1_555 1_555
H9 C1 1_555 1_555
C2 N2 1_555 1_555
H10 C2 1_555 1_555
C3 C2 1_555 1_555
H11 C3 1_555 1_555
H12 C3 1_555 1_555
C4 C3 1_555 1_555
H13 C4 1_555 1_555
H14 C4 1_555 1_555
C5 C4 1_555 1_555
H15 C5 1_555 1_555
H16 C5 1_555 1_555
C6 C1 1_555 1_555
H17 C6 1_555 1_555
H18 C6 1_555 1_555
C7 N3 1_555 1_555
H19 C7 1_555 1_555
C8 N4 1_555 1_555
H20 C8 1_555 1_555
C9 C8 1_555 1_555
H21 C9 1_555 1_555
H22 C9 1_555 1_555
C10 C9 1_555 1_555
H23 C10 1_555 1_555
H24 C10 1_555 1_555
C11 C10 1_555 1_555
H25 C11 1_555 1_555
H26 C11 1_555 1_555
C12 C7 1_555 1_555
H27 C12 1_555 1_555
H28 C12 1_555 1_555
O1 N5 1_555 1_555
O2 N5 1_555 1_555
O3 N5 1_555 1_555
O4 N6 1_555 1_555
O5 N6 1_555 1_555
O6 N6 1_555 1_555
Ag1A N2A 1_555 1_555
Ag3_2 N4A 1_555 1_555
N1A Ag2 1_555 1_555
H1A N1A 1_555 1_555
H2A N1A 1_555 1_555
N2A H3A 1_555 1_555
H4A N2A 1_555 1_555
N3A Ag1A 1_555 1_555
H5A N3A 1_555 1_555
H6A N3A 1_555 1_555
N4A H7A 1_555 1_555
N4A_2 Ag3 1_555 1_555
H7A_2 N4A_2 1_555 1_555
H8A N4A 1_555 1_555
H8A_2 N4A_2 1_555 1_555
C1A N1A 1_555 1_555
H9A C1A 1_555 1_555
C2A N2A 1_555 1_555
H10A C2A 1_555 1_555
C3A C2A 1_555 1_555
H11A C3A 1_555 1_555
H12A C3A 1_555 1_555
C4A C3A 1_555 1_555
H13A C4A 1_555 1_555
H14A C4A 1_555 1_555
C5A C4A 1_555 1_555
H15A C5A 1_555 1_555
H16A C5A 1_555 1_555
C6A C1A 1_555 1_555
H17A C6A 1_555 1_555
H18A C6A 1_555 1_555
C7A N3A 1_555 1_555
H19A C7A 1_555 1_555
C8A N4A 1_555 1_555
H20A C8A 1_555 1_555
C9A C8A 1_555 1_555
H21A C9A 1_555 1_555
H22A C9A 1_555 1_555
C10A C9A 1_555 1_555
H23A C10A 1_555 1_555
H24A C10A 1_555 1_555
C11A C10A 1_555 1_555
H25A C11A 1_555 1_555
H26A C11A 1_555 1_555
C12A C7A 1_555 1_555
H27A C12A 1_555 1_555
H28A C12A 1_555 1_555
C1 C2 1_555 1_555
C5 C6 1_555 1_555
C7 C8 1_555 1_555
C11 C12 1_555 1_555
C1A C2A 1_555 1_555
C5A C6A 1_555 1_555
C7A C8A 1_555 1_555
C11A C12A 1_555 1_555

#END
