
#######################################################################
#
#                 Cambridge Crystallographic Data Centre
#                                CCDC 
#
#######################################################################
#
# If this CIF has been generated from an entry in the Cambridge 
# Structural Database, then it will include bibliographic, chemical, 
# crystal, experimental, refinement or atomic coordinate data resulting 
# from the CCDC's data processing and validation procedures.
#
#######################################################################

data_VEXNIX
_symmetry_cell_setting           triclinic
_symmetry_space_group_name_H-M   'P -1'
_symmetry_Int_Tables_number      2
_space_group_name_Hall           '-P 1'
loop_
_symmetry_equiv_pos_site_id
_symmetry_equiv_pos_as_xyz
1 x,y,z
2 -x,-y,-z
_cell_length_a                   12.722(3)
_cell_length_b                   13.796(3)
_cell_length_c                   14.181(3)
_cell_angle_alpha                79.70(3)
_cell_angle_beta                 68.75(3)
_cell_angle_gamma                80.00(3)
_cell_volume                     2266.2
loop_
_atom_site_label
_atom_site_type_symbol
_atom_site_fract_x
_atom_site_fract_y
_atom_site_fract_z
Zn1 Zn 0.77197(5) 0.35344(4) 0.75966(4)
Zn2 Zn 0.80939(5) 0.12095(4) 0.75317(4)
Zn3 Zn 0.94666(5) 0.26443(4) 0.54465(4)
Zn4 Zn 0.63928(5) 0.20520(4) 0.97666(4)
C1 C 0.3517(6) 0.2771(6) 0.5884(7)
H1 H 0.3387 0.2115 0.5850
H2 H 0.3531 0.3186 0.5260
H3 H 0.2918 0.3041 0.6446
C2 C 0.4652(5) 0.2723(5) 0.6036(5)
C3 C 0.5050(5) 0.3555(4) 0.6114(4)
H4 H 0.4619 0.4167 0.6063
C4 C 0.6074(5) 0.3519(4) 0.6267(4)
C5 C 0.6705(4) 0.2593(4) 0.6394(4)
C6 C 0.6368(5) 0.1748(4) 0.6219(4)
C7 C 0.5332(5) 0.1814(4) 0.6068(4)
H5 H 0.5091 0.1245 0.5988
C8 C 0.6541(5) 0.4473(4) 0.6168(4)
H6 H 0.7292 0.4444 0.5651
H7 H 0.6064 0.5009 0.5922
C9 C 0.7159(5) 0.0798(4) 0.6075(4)
H8 H 0.6870 0.0371 0.5775
H9 H 0.7894 0.0951 0.5592
C10 C 0.8108(5) -0.0691(4) 0.6724(4)
H10 H 0.8806 -0.0501 0.6201
H11 H 0.7760 -0.1066 0.6423
C11 C 0.8407(5) -0.1368(4) 0.7587(4)
H12 H 0.9084 -0.1810 0.7282
H13 H 0.7797 -0.1776 0.7939
C12 C 0.8621(5) -0.0893(4) 0.8394(4)
H14 H 0.7895 -0.0724 0.8912
H15 H 0.9067 -0.1383 0.8721
C13 C 0.7173(5) 0.5665(4) 0.6803(4)
H16 H 0.6726 0.6155 0.6475
H17 H 0.7919 0.5537 0.6296
C14 C 0.7308(5) 0.6114(4) 0.7642(4)
H18 H 0.6591 0.6494 0.7976
H19 H 0.7866 0.6580 0.7326
C15 C 0.7664(5) 0.5412(4) 0.8466(4)
H20 H 0.8005 0.5781 0.8778
H21 H 0.6988 0.5181 0.8991
C16 C 0.8716(5) 0.3953(4) 0.9002(4)
H22 H 0.8005 0.3771 0.9509
H23 H 0.9016 0.4376 0.9297
C17 C 0.9405(5) 0.0295(4) 0.8882(4)
H24 H 0.9916 -0.0230 0.9097
H25 H 0.8686 0.0329 0.9442
C18 C 0.9887(4) 0.1263(4) 0.8701(4)
C19 C 0.9190(4) 0.2172(4) 0.8651(4)
C20 C 0.9528(4) 0.3034(4) 0.8797(4)
C21 C 1.0608(5) 0.2996(4) 0.8844(4)
H26 H 1.0834 0.3573 0.8925
C22 C 1.1360(5) 0.2135(5) 0.8776(5)
C23 C 1.0966(5) 0.1274(4) 0.8740(4)
H27 H 1.1438 0.0678 0.8742
C24 C 1.2536(5) 0.2112(5) 0.8815(6)
H28 H 1.2928 0.1453 0.8751
H29 H 1.2477 0.2301 0.9453
H30 H 1.2951 0.2566 0.8264
C25 C 0.5515(4) 0.4829(4) 0.7905(4)
H31 H 0.4938 0.4880 0.7596
H32 H 0.5421 0.5443 0.8186
C26 C 0.5318(4) 0.3980(4) 0.8772(4)
C27 C 0.6219(5) 0.0007(4) 0.7792(4)
H33 H 0.6308 -0.0656 0.8144
H34 H 0.5681 0.0018 0.7449
C28 C 0.5745(4) 0.0740(4) 0.8569(4)
C29 C 0.9540(4) 0.4818(4) 0.7303(4)
H35 H 1.0092 0.4843 0.7621
H36 H 0.9396 0.5475 0.6960
C30 C 1.0032(4) 0.4085(4) 0.6517(4)
C31 C 1.0307(4) -0.0140(4) 0.7170(4)
H37 H 1.0305 -0.0704 0.6849
H38 H 1.0914 -0.0296 0.7453
C32 C 1.0542(4) 0.0766(4) 0.6362(4)
C33 C 0.7232(5) 0.2320(4) 1.1384(4)
C34 C 0.7479(5) 0.3044(4) 1.1935(4)
C35 C 0.7963(5) 0.2696(4) 1.2678(4)
H39 H 0.8147 0.2017 1.2824
C36 C 0.8176(4) 0.3341(4) 1.3208(4)
C37 C 0.7880(4) 0.4352(4) 1.3005(4)
H40 H 0.7997 0.4791 1.3374
C38 C 0.7411(5) 0.4706(4) 1.2256(4)
H41 H 0.7217 0.5384 1.2119
C39 C 0.7227(4) 0.4056(4) 1.1706(4)
H42 H 0.6935 0.4300 1.1184
C40 C 0.8710(4) 0.2959(4) 1.4009(4)
N1 N 0.6630(3) 0.4728(3) 0.7111(3)
N2 N 0.7326(4) 0.0232(3) 0.7023(3)
N3 N 0.8475(4) 0.4537(3) 0.8098(3)
N4 N 0.9216(4) 0.0015(3) 0.8002(3)
O1 O 0.7662(3) 0.2528(2) 0.6638(2)
O2 O 0.8192(3) 0.2200(2) 0.8496(2)
O3 O 0.6202(3) 0.3383(2) 0.8805(2)
O4 O 0.4359(3) 0.3926(3) 0.9389(3)
O5 O 0.6454(3) 0.1270(3) 0.8614(2)
O6 O 0.4749(3) 0.0751(3) 0.9143(3)
O7 O 0.9315(3) 0.3577(3) 0.6462(2)
O8 O 1.1028(3) 0.4053(3) 0.5971(3)
O9 O 0.9645(3) 0.1339(2) 0.6306(2)
O10 O 1.1506(3) 0.0879(3) 0.5817(3)
O11 O 0.8887(3) 0.3592(3) 1.4457(3)
O12 O 0.8998(3) 0.2061(3) 1.4207(3)
O13 O 0.6766(3) 0.2695(3) 1.0727(3)
O14 O 0.7464(6) 0.1417(3) 1.1611(5)
O15 O 0.6692(3) 0.0636(3) 1.0513(3)
H43 H 0.687(4) 0.067(5) 1.102(3)
H44 H 0.601(2) 0.0599(18) 1.067(3)
O16 O 0.4595(3) 0.2099(3) 1.0398(3)
H45 H 0.430(5) 0.267(2) 1.022(5)
H46 H 0.453(5) 0.169(3) 1.004(4)
O17 O 1.1214(3) 0.2686(3) 0.4766(3)
H47 H 1.135(6) 0.312(3) 0.504(4)
H48 H 1.144(6) 0.2119(18) 0.500(5)
Zn3_2 Zn 0.94666(5) 0.26443(4) 1.54465(4)
O11_2 O 0.8887(3) 0.3592(3) 0.4457(3)
O12_2 O 0.8998(3) 0.2061(3) 0.4207(3)
O18 O 0.6457(10) 0.0129(10) 0.3615(11)
loop_
_geom_bond_atom_site_label_1
_geom_bond_atom_site_label_2
_geom_bond_site_symmetry_1
_geom_bond_site_symmetry_2
Zn1 N1 1_555 1_555
Zn2 N2 1_555 1_555
Zn3 O1 1_555 1_555
Zn4 O2 1_555 1_555
C1 H1 1_555 1_555
H2 C1 1_555 1_555
H3 C1 1_555 1_555
C2 C1 1_555 1_555
C3 C2 1_555 1_555
H4 C3 1_555 1_555
C4 C3 1_555 1_555
C5 C4 1_555 1_555
C6 C5 1_555 1_555
C7 C2 1_555 1_555
H5 C7 1_555 1_555
C8 C4 1_555 1_555
H6 C8 1_555 1_555
H7 C8 1_555 1_555
C9 C6 1_555 1_555
H8 C9 1_555 1_555
H9 C9 1_555 1_555
C10 H10 1_555 1_555
H11 C10 1_555 1_555
C11 C10 1_555 1_555
H12 C11 1_555 1_555
H13 C11 1_555 1_555
C12 C11 1_555 1_555
H14 C12 1_555 1_555
H15 C12 1_555 1_555
C13 H16 1_555 1_555
H17 C13 1_555 1_555
C14 C13 1_555 1_555
H18 C14 1_555 1_555
H19 C14 1_555 1_555
C15 C14 1_555 1_555
H20 C15 1_555 1_555
H21 C15 1_555 1_555
C16 H22 1_555 1_555
H23 C16 1_555 1_555
C17 H24 1_555 1_555
H25 C17 1_555 1_555
C18 C17 1_555 1_555
C19 C18 1_555 1_555
C20 C16 1_555 1_555
C21 C20 1_555 1_555
H26 C21 1_555 1_555
C22 C21 1_555 1_555
C23 C18 1_555 1_555
H27 C23 1_555 1_555
C24 C22 1_555 1_555
H28 C24 1_555 1_555
H29 C24 1_555 1_555
H30 C24 1_555 1_555
C25 H31 1_555 1_555
H32 C25 1_555 1_555
C26 C25 1_555 1_555
C27 H33 1_555 1_555
H34 C27 1_555 1_555
C28 C27 1_555 1_555
C29 H35 1_555 1_555
H36 C29 1_555 1_555
C30 C29 1_555 1_555
C31 H37 1_555 1_555
H38 C31 1_555 1_555
C32 C31 1_555 1_555
C33 C34 1_555 1_555
C34 C35 1_555 1_555
C35 H39 1_555 1_555
C36 C35 1_555 1_555
C37 C36 1_555 1_555
H40 C37 1_555 1_555
C38 C37 1_555 1_555
H41 C38 1_555 1_555
C39 C34 1_555 1_555
H42 C39 1_555 1_555
C40 C36 1_555 1_555
N1 C8 1_555 1_555
N2 C9 1_555 1_555
N3 Zn1 1_555 1_555
N4 Zn2 1_555 1_555
O1 Zn1 1_555 1_555
O2 Zn1 1_555 1_555
O3 Zn1 1_555 1_555
O4 C26 1_555 1_555
O5 Zn2 1_555 1_555
O6 C28 1_555 1_555
O7 Zn1 1_555 1_555
O8 C30 1_555 1_555
O9 Zn2 1_555 1_555
O10 C32 1_555 1_555
O11 C40 1_555 1_555
O12 C40 1_555 1_555
O13 Zn4 1_555 1_555
O14 C33 1_555 1_555
O15 Zn4 1_555 1_555
H43 O15 1_555 1_555
H44 O15 1_555 1_555
O16 Zn4 1_555 1_555
H45 O16 1_555 1_555
H46 O16 1_555 1_555
O17 Zn3 1_555 1_555
H47 O17 1_555 1_555
H48 O17 1_555 1_555
Zn3_2 O11 1_555 1_555
O11_2 Zn3 1_555 1_555
O12_2 Zn3 1_555 1_555
Zn2 O1 1_555 1_555
Zn2 O2 1_555 1_555
Zn3 O7 1_555 1_555
Zn3 O9 1_555 1_555
Zn4 O3 1_555 1_555
Zn4 O5 1_555 1_555
C5 O1 1_555 1_555
C6 C7 1_555 1_555
C10 N2 1_555 1_555
C12 N4 1_555 1_555
C13 N1 1_555 1_555
C15 N3 1_555 1_555
C16 N3 1_555 1_555
C17 N4 1_555 1_555
C19 C20 1_555 1_555
C19 O2 1_555 1_555
C22 C23 1_555 1_555
C25 N1 1_555 1_555
C26 O3 1_555 1_555
C27 N2 1_555 1_555
C28 O5 1_555 1_555
C29 N3 1_555 1_555
C30 O7 1_555 1_555
C31 N4 1_555 1_555
C32 O9 1_555 1_555
C33 O13 1_555 1_555
C38 C39 1_555 1_555
O12 Zn3_2 1_555 1_555

#END
