
#######################################################################
#
#                 Cambridge Crystallographic Data Centre
#                                CCDC 
#
#######################################################################
#
# If this CIF has been generated from an entry in the Cambridge 
# Structural Database, then it will include bibliographic, chemical, 
# crystal, experimental, refinement or atomic coordinate data resulting 
# from the CCDC's data processing and validation procedures.
#
#######################################################################

data_VEXNOD
_symmetry_cell_setting           triclinic
_symmetry_space_group_name_H-M   'P -1'
_symmetry_Int_Tables_number      2
_space_group_name_Hall           '-P 1'
loop_
_symmetry_equiv_pos_site_id
_symmetry_equiv_pos_as_xyz
1 x,y,z
2 -x,-y,-z
_cell_length_a                   12.706(5)
_cell_length_b                   13.774(5)
_cell_length_c                   14.198(5)
_cell_angle_alpha                79.814(5)
_cell_angle_beta                 69.227(5)
_cell_angle_gamma                79.861(5)
_cell_volume                     2269.28
loop_
_atom_site_label
_atom_site_type_symbol
_atom_site_fract_x
_atom_site_fract_y
_atom_site_fract_z
Co1 Co 0.26998(5) 0.35090(4) 0.75775(4)
Co2 Co 0.14412(5) 0.20470(4) 0.96994(4)
Co3 Co 0.43644(5) 0.26143(4) 0.54594(4)
Co4 Co 0.30857(5) 0.12059(4) 0.75204(4)
C1 C -0.1573(6) 0.2733(6) 0.5928(6)
H1 H -0.1933 0.3408 0.5916
H2 H -0.2039 0.2327 0.6489
H3 H -0.1474 0.2491 0.5305
C2 C -0.0421(5) 0.2694(5) 0.6047(5)
C3 C -0.0017(4) 0.3544(4) 0.6121(4)
H4 H -0.0451 0.4157 0.6067
C4 C 0.1009(4) 0.3506(3) 0.6271(3)
C5 C 0.1655(4) 0.2584(3) 0.6386(3)
C6 C 0.1318(4) 0.1720(3) 0.6223(3)
C7 C 0.0277(5) 0.1789(4) 0.6083(4)
H5 H 0.0037 0.1215 0.6011
C8 C 0.2127(4) 0.0771(3) 0.6074(4)
H6 H 0.1840 0.0338 0.5778
H7 H 0.2853 0.0932 0.5589
C9 C 0.3093(4) -0.0714(3) 0.6719(4)
H8 H 0.3784 -0.0526 0.6194
H9 H 0.2736 -0.1089 0.6424
C10 C 0.3413(5) -0.1395(3) 0.7572(4)
H10 H 0.4091 -0.1832 0.7262
H11 H 0.2811 -0.1809 0.7921
C11 C 0.3632(4) -0.0923(3) 0.8378(4)
H12 H 0.2911 -0.0766 0.8900
H13 H 0.4094 -0.1413 0.8694
C12 C 0.4416(4) 0.0269(3) 0.8875(3)
H14 H 0.4940 -0.0256 0.9076
H15 H 0.3707 0.0298 0.9439
C13 C 0.4890(4) 0.1246(3) 0.8691(3)
C14 C 0.5970(4) 0.1248(4) 0.8740(4)
H16 H 0.6441 0.0650 0.8750
C15 C 0.6360(4) 0.2121(4) 0.8774(4)
C16 C 0.7538(5) 0.2111(5) 0.8813(6)
H17 H 0.7933 0.1450 0.8767
H18 H 0.7481 0.2321 0.9441
H19 H 0.7948 0.2556 0.8255
C17 C 0.5617(4) 0.2979(4) 0.8824(4)
H20 H 0.5847 0.3559 0.8893
C18 C 0.4540(4) 0.3020(3) 0.8778(3)
C19 C 0.4192(3) 0.2152(3) 0.8639(3)
C20 C 0.3714(4) 0.3948(3) 0.8969(3)
H21 H 0.3008 0.3765 0.9473
H22 H 0.4010 0.4379 0.9261
C21 C 0.2644(4) 0.5413(3) 0.8435(4)
H23 H 0.2985 0.5780 0.8751
H24 H 0.1968 0.5185 0.8952
C22 C 0.2290(5) 0.6122(3) 0.7607(4)
H25 H 0.1580 0.6514 0.7934
H26 H 0.2855 0.6577 0.7288
C23 C 0.2139(4) 0.5660(3) 0.6776(4)
H27 H 0.1685 0.6148 0.6450
H28 H 0.2879 0.5530 0.6270
C24 C 0.1477(4) 0.4462(3) 0.6166(4)
H29 H 0.2217 0.4434 0.5641
H30 H 0.0988 0.4999 0.5931
C25 C 0.5303(4) -0.0163(3) 0.7166(3)
H31 H 0.5304 -0.0725 0.6839
H32 H 0.5912 -0.0319 0.7450
C26 C 0.5514(4) 0.0743(3) 0.6385(3)
C27 C 0.4519(4) 0.4797(3) 0.7270(4)
H33 H 0.5076 0.4823 0.7584
H34 H 0.4374 0.5453 0.6924
C28 C 0.4997(4) 0.4067(3) 0.6501(4)
C29 C 0.0492(4) 0.4827(3) 0.7899(4)
H35 H -0.0100 0.4882 0.7602
H36 H 0.0409 0.5440 0.8179
C30 C 0.0318(4) 0.3980(3) 0.8753(3)
C31 C 0.1219(4) -0.0023(3) 0.7781(3)
H37 H 0.1315 -0.0686 0.8134
H38 H 0.0676 -0.0015 0.7441
C32 C 0.0762(4) 0.0715(3) 0.8542(3)
C33 C 0.3680(4) 0.3041(3) 0.4007(3)
C34 C 0.3165(4) 0.3389(3) 0.3199(3)
C35 C 0.2953(4) 0.2720(3) 0.2680(3)
H39 H 0.3122 0.2041 0.2848
C36 C 0.2489(4) 0.3061(3) 0.1907(3)
C37 C 0.2255(4) 0.4070(3) 0.1661(3)
H40 H 0.1969 0.4304 0.1133
C38 C 0.2441(4) 0.4740(3) 0.2190(4)
H41 H 0.2266 0.5419 0.2025
C39 C 0.2882(4) 0.4404(3) 0.2954(3)
H42 H 0.2994 0.4856 0.3314
C40 C 0.2243(5) 0.2328(4) 0.1366(4)
N1 N 0.2321(3) 0.0207(3) 0.7016(3)
N2 N 0.1601(3) 0.4721(3) 0.7088(3)
N3 N 0.4203(3) -0.0005(3) 0.7996(3)
N4 N 0.3455(3) 0.4531(3) 0.8069(3)
O1 O 0.2621(2) 0.2520(2) 0.6616(2)
O2 O 0.3189(2) 0.2175(2) 0.8488(2)
O3 O 0.1457(2) 0.1270(2) 0.8565(2)
O4 O -0.0234(3) 0.0731(2) 0.9125(3)
O5 O 0.1214(2) 0.3373(2) 0.8771(2)
O6 O -0.0622(3) 0.3917(3) 0.9384(3)
O7 O 0.4609(2) 0.1330(2) 0.6343(2)
O8 O 0.6477(3) 0.0859(3) 0.5804(3)
O9 O 0.4278(2) 0.3520(2) 0.6483(2)
O10 O 0.5983(3) 0.4037(3) 0.5933(3)
O11 O 0.3835(3) 0.3679(2) 0.4463(2)
O12 O 0.3948(3) 0.2130(2) 0.4255(2)
O13 O 0.2466(5) 0.1414(3) 0.1622(4)
O14 O 0.1801(3) 0.2686(2) 0.0697(2)
O15 O -0.0366(3) 0.2077(2) 1.0390(2)
H43 H -0.0609 0.2651 1.0125
H44 H -0.0524 0.1642 1.0116
O16 O 0.1732(3) 0.0640(2) 1.0473(2)
H45 H 0.1849 0.0809 1.0945
H46 H 0.1155 0.0389 1.0608
O17 O 0.6132(3) 0.2667(2) 0.4726(2)
H47 H 0.6258 0.3191 0.4860
H48 H 0.6383 0.2167 0.5056
Co2_2 Co 0.14412(5) 0.20470(4) -0.03006(4)
O14_2 O 0.1801(3) 0.2686(2) 1.0697(2)
O18 O 0.8524(9) 0.9823(9) 0.6333(9)
H49 H 0.9000 0.9629 0.6713
loop_
_geom_bond_atom_site_label_1
_geom_bond_atom_site_label_2
_geom_bond_site_symmetry_1
_geom_bond_site_symmetry_2
Co1 N2 1_555 1_555
Co2 O2 1_555 1_555
Co3 O1 1_555 1_555
Co4 N1 1_555 1_555
C1 H1 1_555 1_555
H2 C1 1_555 1_555
H3 C1 1_555 1_555
C2 C1 1_555 1_555
C3 C2 1_555 1_555
H4 C3 1_555 1_555
C4 C3 1_555 1_555
C5 C4 1_555 1_555
C6 C5 1_555 1_555
C7 C2 1_555 1_555
H5 C7 1_555 1_555
C8 C6 1_555 1_555
H6 C8 1_555 1_555
H7 C8 1_555 1_555
C9 H8 1_555 1_555
H9 C9 1_555 1_555
C10 C9 1_555 1_555
H10 C10 1_555 1_555
H11 C10 1_555 1_555
C11 C10 1_555 1_555
H12 C11 1_555 1_555
H13 C11 1_555 1_555
C12 H14 1_555 1_555
H15 C12 1_555 1_555
C13 C12 1_555 1_555
C14 C13 1_555 1_555
H16 C14 1_555 1_555
C15 C14 1_555 1_555
C16 C15 1_555 1_555
H17 C16 1_555 1_555
H18 C16 1_555 1_555
H19 C16 1_555 1_555
C17 C15 1_555 1_555
H20 C17 1_555 1_555
C18 C17 1_555 1_555
C19 C13 1_555 1_555
C20 C18 1_555 1_555
H21 C20 1_555 1_555
H22 C20 1_555 1_555
C21 H23 1_555 1_555
H24 C21 1_555 1_555
C22 C21 1_555 1_555
H25 C22 1_555 1_555
H26 C22 1_555 1_555
C23 C22 1_555 1_555
H27 C23 1_555 1_555
H28 C23 1_555 1_555
C24 C4 1_555 1_555
H29 C24 1_555 1_555
H30 C24 1_555 1_555
C25 H31 1_555 1_555
H32 C25 1_555 1_555
C26 C25 1_555 1_555
C27 H33 1_555 1_555
H34 C27 1_555 1_555
C28 C27 1_555 1_555
C29 H35 1_555 1_555
H36 C29 1_555 1_555
C30 C29 1_555 1_555
C31 H37 1_555 1_555
H38 C31 1_555 1_555
C32 C31 1_555 1_555
C33 C34 1_555 1_555
C34 C35 1_555 1_555
C35 H39 1_555 1_555
C36 C35 1_555 1_555
C37 C36 1_555 1_555
H40 C37 1_555 1_555
C38 C37 1_555 1_555
H41 C38 1_555 1_555
C39 C34 1_555 1_555
H42 C39 1_555 1_555
C40 C36 1_555 1_555
N1 C8 1_555 1_555
N2 C23 1_555 1_555
N3 Co4 1_555 1_555
N4 Co1 1_555 1_555
O1 Co1 1_555 1_555
O2 Co1 1_555 1_555
O3 Co2 1_555 1_555
O4 C32 1_555 1_555
O5 Co1 1_555 1_555
O6 C30 1_555 1_555
O7 Co3 1_555 1_555
O8 C26 1_555 1_555
O9 Co1 1_555 1_555
O10 C28 1_555 1_555
O11 Co3 1_555 1_555
O12 Co3 1_555 1_555
O13 C40 1_555 1_555
O14 C40 1_555 1_555
O15 Co2 1_555 1_555
H43 O15 1_555 1_555
H44 O15 1_555 1_555
O16 Co2 1_555 1_555
H45 O16 1_555 1_555
H46 O16 1_555 1_555
O17 Co3 1_555 1_555
H47 O17 1_555 1_555
H48 O17 1_555 1_555
O18 H49 1_555 1_555
Co2_2 O14 1_555 1_555
O14_2 Co2 1_555 1_555
Co2 O5 1_555 1_555
Co3 O9 1_555 1_555
Co4 O1 1_555 1_555
Co4 O2 1_555 1_555
Co4 O3 1_555 1_555
Co4 O7 1_555 1_555
C5 O1 1_555 1_555
C6 C7 1_555 1_555
C9 N1 1_555 1_555
C11 N3 1_555 1_555
C12 N3 1_555 1_555
C18 C19 1_555 1_555
C19 O2 1_555 1_555
C20 N4 1_555 1_555
C21 N4 1_555 1_555
C24 N2 1_555 1_555
C25 N3 1_555 1_555
C26 O7 1_555 1_555
C27 N4 1_555 1_555
C28 O9 1_555 1_555
C29 N2 1_555 1_555
C30 O5 1_555 1_555
C31 N1 1_555 1_555
C32 O3 1_555 1_555
C33 O11 1_555 1_555
C33 O12 1_555 1_555
C38 C39 1_555 1_555

#END
