
#######################################################################
#
#                 Cambridge Crystallographic Data Centre
#                                CCDC 
#
#######################################################################
#
# If this CIF has been generated from an entry in the Cambridge 
# Structural Database, then it will include bibliographic, chemical, 
# crystal, experimental, refinement or atomic coordinate data resulting 
# from the CCDC's data processing and validation procedures.
#
#######################################################################

data_VEXRAT
_symmetry_cell_setting           monoclinic
_symmetry_space_group_name_H-M   'P 21/c'
_symmetry_Int_Tables_number      14
_space_group_name_Hall           '-P 2ybc'
loop_
_symmetry_equiv_pos_site_id
_symmetry_equiv_pos_as_xyz
1 x,y,z
2 -x,1/2+y,1/2-z
3 -x,-y,-z
4 x,1/2-y,1/2+z
_cell_length_a                   24.514(4)
_cell_length_b                   10.8536(19)
_cell_length_c                   24.933(4)
_cell_angle_alpha                90
_cell_angle_beta                 97.737(2)
_cell_angle_gamma                90
_cell_volume                     6573.41
loop_
_atom_site_label
_atom_site_type_symbol
_atom_site_fract_x
_atom_site_fract_y
_atom_site_fract_z
Cl3 Cl 0.58131(7) 1.03260(15) 0.92775(6)
O1 O 0.68273(9) 1.3925(2) 0.63352(9)
O2 O 0.79010(9) 0.5025(2) 0.70389(9)
O3 O 0.59372(10) 1.4087(2) 0.71635(10)
O4 O 0.76725(13) 1.4768(3) 0.81961(11)
Na1 Na 0.70995(5) 1.18587(10) 0.64315(5)
Na2 Na 0.77342(5) 0.71065(10) 0.68337(5)
Na3 Na 0.70049(5) 1.44454(11) 0.73034(5)
Cl1 Cl 0.74198(3) 0.94872(7) 0.66565(4)
C1 C 0.73455(11) 1.1601(2) 0.77676(11)
C2 C 0.73493(11) 1.0050(3) 0.84301(11)
C3 C 0.79587(11) 1.0435(3) 0.83731(11)
C4 C 0.78260(11) 0.8343(3) 0.81334(11)
C5 C 0.83202(11) 1.2151(3) 0.77939(11)
H1 H 0.8167 1.2963 0.7687
H2 H 0.8604 1.2271 0.8106
C6 C 0.87566(11) 0.9149(3) 0.80838(11)
H3 H 0.8998 0.9617 0.8356
H4 H 0.8855 0.8277 0.8130
C7 C 0.84175(11) 1.1990(2) 0.68247(11)
C8 C 0.90340(11) 1.0761(3) 0.74041(11)
C9 C 0.91468(11) 1.0596(3) 0.67994(12)
C10 C 0.88386(10) 0.8730(3) 0.71282(11)
C11 C 0.86998(11) 1.1705(3) 0.59298(11)
H5 H 0.9067 1.1656 0.5818
H6 H 0.8571 1.2556 0.5873
C12 C 0.90632(10) 0.8666(3) 0.61959(11)
H7 H 0.9134 0.7793 0.6278
H8 H 0.9384 0.8994 0.6047
C13 C 0.77886(11) 1.1172(3) 0.54401(11)
C14 C 0.84878(11) 0.9718(3) 0.53720(11)
C15 C 0.79402(11) 0.9280(3) 0.50263(11)
C16 C 0.82114(11) 0.7828(3) 0.57113(11)
C17 C 0.69714(11) 1.0311(3) 0.48936(11)
H9 H 0.6858 1.1178 0.4872
H10 H 0.6930 0.9986 0.4524
C18 C 0.73745(11) 0.7285(3) 0.50869(11)
H11 H 0.7292 0.7366 0.4693
H12 H 0.7494 0.6434 0.5165
C19 C 0.63149(11) 1.0232(3) 0.55544(11)
C20 C 0.64386(11) 0.8357(3) 0.51172(11)
C21 C 0.60098(11) 0.8178(3) 0.55272(11)
C22 C 0.67949(11) 0.6969(3) 0.57988(12)
C23 C 0.55884(11) 0.9806(3) 0.61190(11)
H13 H 0.5497 1.0679 0.6060
H14 H 0.5244 0.9339 0.6047
C24 C 0.60664(11) 0.6813(3) 0.63799(11)
H15 H 0.5673 0.6673 0.6264
H16 H 0.6238 0.6007 0.6461
C25 C 0.60298(10) 1.0593(3) 0.69983(11)
C26 C 0.57573(11) 0.8509(3) 0.69955(11)
C27 C 0.60094(11) 0.8904(3) 0.75873(11)
C28 C 0.65512(11) 0.7337(2) 0.72774(11)
C29 C 0.64275(11) 1.0959(3) 0.79523(11)
H17 H 0.6293 1.0751 0.8294
H18 H 0.6334 1.1824 0.7872
C30 C 0.68467(11) 0.7987(3) 0.82102(11)
H19 H 0.6959 0.7123 0.8255
H20 H 0.6628 0.8185 0.8500
C31 C 0.72077(12) 1.0263(3) 0.89999(11)
H21 H 0.7415 0.9683 0.9250
H22 H 0.6815 1.0108 0.9004
C32 C 0.73448(13) 1.1585(3) 0.91891(13)
H23 H 0.7274 1.1674 0.9565
H24 H 0.7101 1.2157 0.8966
C33 C 0.79478(14) 1.1931(3) 0.91520(13)
H25 H 0.7955 1.2673 0.8929
H26 H 0.8132 1.2128 0.9515
C34 C 0.82690(12) 1.0902(3) 0.89095(12)
H27 H 0.8631 1.1215 0.8848
H28 H 0.8328 1.0217 0.9167
C35 C 0.95381(12) 1.1244(3) 0.77706(12)
H29 H 0.9434 1.1447 0.8126
H30 H 0.9820 1.0599 0.7821
C36 C 0.97750(13) 1.2382(3) 0.75316(14)
H31 H 1.0117 1.2614 0.7759
H32 H 0.9515 1.3065 0.7539
C37 C 0.98950(13) 1.2202(3) 0.69504(15)
H33 H 1.0288 1.2338 0.6938
H34 H 0.9691 1.2822 0.6718
C38 C 0.97383(12) 1.0918(3) 0.67259(13)
H35 H 0.9778 1.0891 0.6340
H36 H 0.9989 1.0306 0.6914
C39 C 0.89623(12) 0.9829(3) 0.50325(12)
H37 H 0.8893 1.0524 0.4782
H38 H 0.9306 0.9993 0.5271
C40 C 0.90232(13) 0.8652(3) 0.47131(13)
H39 H 0.9140 0.7983 0.4967
H40 H 0.9312 0.8772 0.4482
C41 C 0.84888(13) 0.8271(3) 0.43576(13)
H41 H 0.8394 0.7427 0.4450
H42 H 0.8550 0.8277 0.3977
C42 C 0.80008(13) 0.9129(3) 0.44269(12)
H43 H 0.8061 0.9938 0.4270
H44 H 0.7661 0.8784 0.4233
C43 C 0.61843(12) 0.8089(3) 0.45318(12)
H45 H 0.6434 0.8370 0.4281
H46 H 0.6129 0.7199 0.4482
C44 C 0.56360(13) 0.8751(3) 0.44110(13)
H47 H 0.5489 0.8628 0.4029
H48 H 0.5694 0.9637 0.4470
C45 C 0.52130(13) 0.8294(3) 0.47654(13)
H49 H 0.5009 0.9003 0.4879
H50 H 0.4949 0.7752 0.4549
C46 C 0.54715(12) 0.7599(3) 0.52669(12)
H51 H 0.5542 0.6746 0.5167
H52 H 0.5211 0.7581 0.5532
C47 C 0.51644(11) 0.8078(3) 0.69638(13)
H53 H 0.5036 0.7781 0.6597
H54 H 0.4930 0.8770 0.7040
C48 C 0.51165(13) 0.7043(3) 0.73712(13)
H55 H 0.5301 0.6306 0.7257
H56 H 0.4727 0.6841 0.7371
C49 C 0.53716(12) 0.7385(3) 0.79525(13)
H57 H 0.5090 0.7305 0.8195
H58 H 0.5669 0.6804 0.8075
C50 C 0.56008(11) 0.8694(3) 0.79917(12)
H59 H 0.5785 0.8841 0.8360
H60 H 0.5297 0.9283 0.7920
N1 N 0.70246(9) 1.0829(2) 0.80249(9)
N2 N 0.78854(9) 1.1391(2) 0.79600(9)
N3 N 0.73371(9) 0.8747(2) 0.82793(9)
N4 N 0.81917(9) 0.9305(2) 0.81894(9)
N5 N 0.85792(9) 1.1656(2) 0.73508(9)
N6 N 0.87451(9) 1.1431(2) 0.64997(9)
N7 N 0.88635(9) 0.9538(2) 0.75501(9)
N8 N 0.90124(9) 0.9306(2) 0.66949(9)
N9 N 0.83331(9) 1.0904(2) 0.55821(9)
N10 N 0.75489(9) 1.0250(2) 0.51178(10)
N11 N 0.85859(9) 0.8760(2) 0.57844(9)
N12 N 0.78295(9) 0.8106(2) 0.52763(9)
N13 N 0.66030(9) 0.9642(2) 0.51968(9)
N14 N 0.59500(9) 0.9428(2) 0.57281(9)
N15 N 0.68744(9) 0.7497(2) 0.53200(10)
N16 N 0.63029(9) 0.7358(2) 0.59344(9)
N17 N 0.58128(9) 0.9639(2) 0.66828(9)
N18 N 0.61425(9) 1.0196(2) 0.75250(9)
N19 N 0.61270(9) 0.7536(2) 0.68714(9)
N20 N 0.64976(9) 0.8111(2) 0.76968(9)
O5 O 0.71757(8) 1.23735(18) 0.74302(8)
O6 O 0.80452(8) 1.27182(18) 0.66678(8)
O7 O 0.75517(8) 1.21084(19) 0.55617(8)
O8 O 0.63627(8) 1.13200(19) 0.56832(8)
O9 O 0.60901(8) 1.16486(18) 0.68388(8)
O10 O 0.79281(8) 0.72929(19) 0.79989(9)
O11 O 0.87028(8) 0.76451(18) 0.71436(8)
O12 O 0.82249(8) 0.68858(19) 0.59850(8)
O13 O 0.71110(8) 0.62431(19) 0.60592(8)
O14 O 0.69124(8) 0.65542(18) 0.72686(8)
Cl2 Cl 0.64498(5) 1.45807(10) 0.83730(4)
O2_2 O 0.79010(9) 1.5025(2) 0.70389(9)
Na3_2 Na 0.70049(5) 0.44454(11) 0.73034(5)
O14_2 O 0.69124(8) 1.65542(18) 0.72686(8)
loop_
_geom_bond_atom_site_label_1
_geom_bond_atom_site_label_2
_geom_bond_site_symmetry_1
_geom_bond_site_symmetry_2
O1 Na1 1_555 1_555
O2 Na2 1_555 1_555
O3 Na3 1_555 1_555
O4 Na3 1_555 1_555
Na1 Cl1 1_555 1_555
Na2 Cl1 1_555 1_555
Na3 O1 1_555 1_555
C1 N1 1_555 1_555
C2 C3 1_555 1_555
C3 C34 1_555 1_555
C4 N3 1_555 1_555
C5 H1 1_555 1_555
H2 C5 1_555 1_555
C6 H3 1_555 1_555
H4 C6 1_555 1_555
C7 N5 1_555 1_555
C8 C9 1_555 1_555
C9 C38 1_555 1_555
C10 N7 1_555 1_555
C11 H5 1_555 1_555
H6 C11 1_555 1_555
C12 H7 1_555 1_555
H8 C12 1_555 1_555
C13 N9 1_555 1_555
C14 C15 1_555 1_555
C15 C42 1_555 1_555
C16 N11 1_555 1_555
C17 H9 1_555 1_555
H10 C17 1_555 1_555
C18 H11 1_555 1_555
H12 C18 1_555 1_555
C19 N13 1_555 1_555
C20 C21 1_555 1_555
C21 C46 1_555 1_555
C22 N15 1_555 1_555
C23 H13 1_555 1_555
H14 C23 1_555 1_555
C24 H15 1_555 1_555
H16 C24 1_555 1_555
C25 N17 1_555 1_555
C26 C27 1_555 1_555
C27 C50 1_555 1_555
C28 N19 1_555 1_555
C29 H17 1_555 1_555
H18 C29 1_555 1_555
C30 H19 1_555 1_555
H20 C30 1_555 1_555
C31 C2 1_555 1_555
H21 C31 1_555 1_555
H22 C31 1_555 1_555
C32 C31 1_555 1_555
H23 C32 1_555 1_555
H24 C32 1_555 1_555
C33 C32 1_555 1_555
H25 C33 1_555 1_555
H26 C33 1_555 1_555
C34 C33 1_555 1_555
H27 C34 1_555 1_555
H28 C34 1_555 1_555
C35 C8 1_555 1_555
H29 C35 1_555 1_555
H30 C35 1_555 1_555
C36 C35 1_555 1_555
H31 C36 1_555 1_555
H32 C36 1_555 1_555
C37 C36 1_555 1_555
H33 C37 1_555 1_555
H34 C37 1_555 1_555
C38 C37 1_555 1_555
H35 C38 1_555 1_555
H36 C38 1_555 1_555
C39 C14 1_555 1_555
H37 C39 1_555 1_555
H38 C39 1_555 1_555
C40 C39 1_555 1_555
H39 C40 1_555 1_555
H40 C40 1_555 1_555
C41 C40 1_555 1_555
H41 C41 1_555 1_555
H42 C41 1_555 1_555
C42 C41 1_555 1_555
H43 C42 1_555 1_555
H44 C42 1_555 1_555
C43 C20 1_555 1_555
H45 C43 1_555 1_555
H46 C43 1_555 1_555
C44 C43 1_555 1_555
H47 C44 1_555 1_555
H48 C44 1_555 1_555
C45 C44 1_555 1_555
H49 C45 1_555 1_555
H50 C45 1_555 1_555
C46 C45 1_555 1_555
H51 C46 1_555 1_555
H52 C46 1_555 1_555
C47 C26 1_555 1_555
H53 C47 1_555 1_555
H54 C47 1_555 1_555
C48 C47 1_555 1_555
H55 C48 1_555 1_555
H56 C48 1_555 1_555
C49 C48 1_555 1_555
H57 C49 1_555 1_555
H58 C49 1_555 1_555
C50 C49 1_555 1_555
H59 C50 1_555 1_555
H60 C50 1_555 1_555
N1 C2 1_555 1_555
N2 C1 1_555 1_555
N3 C2 1_555 1_555
N4 C3 1_555 1_555
N5 C5 1_555 1_555
N6 C7 1_555 1_555
N7 C6 1_555 1_555
N8 C9 1_555 1_555
N9 C11 1_555 1_555
N10 C13 1_555 1_555
N11 C12 1_555 1_555
N12 C15 1_555 1_555
N13 C17 1_555 1_555
N14 C19 1_555 1_555
N15 C18 1_555 1_555
N16 C21 1_555 1_555
N17 C23 1_555 1_555
N18 C25 1_555 1_555
N19 C24 1_555 1_555
N20 C27 1_555 1_555
O5 Na1 1_555 1_555
O6 Na1 1_555 1_555
O7 Na1 1_555 1_555
O8 Na1 1_555 1_555
O9 Na1 1_555 1_555
O10 Na2 1_555 1_555
O11 Na2 1_555 1_555
O12 Na2 1_555 1_555
O13 Na2 1_555 1_555
O14 Na2 1_555 1_555
Cl2 Na3 1_555 1_555
O2_2 Na3 1_555 1_555
Na3_2 O2 1_555 1_555
O14_2 Na3 1_555 1_555
Na3 O5 1_555 1_555
C1 O5 1_555 1_555
C3 N2 1_555 1_555
C4 N4 1_555 1_555
C4 O10 1_555 1_555
C5 N2 1_555 1_555
C6 N4 1_555 1_555
C7 O6 1_555 1_555
C8 N5 1_555 1_555
C8 N7 1_555 1_555
C9 N6 1_555 1_555
C10 N8 1_555 1_555
C10 O11 1_555 1_555
C11 N6 1_555 1_555
C12 N8 1_555 1_555
C13 O7 1_555 1_555
C14 N9 1_555 1_555
C14 N11 1_555 1_555
C15 N10 1_555 1_555
C16 N12 1_555 1_555
C16 O12 1_555 1_555
C17 N10 1_555 1_555
C18 N12 1_555 1_555
C19 O8 1_555 1_555
C20 N13 1_555 1_555
C20 N15 1_555 1_555
C21 N14 1_555 1_555
C22 N16 1_555 1_555
C22 O13 1_555 1_555
C23 N14 1_555 1_555
C24 N16 1_555 1_555
C25 O9 1_555 1_555
C26 N17 1_555 1_555
C26 N19 1_555 1_555
C27 N18 1_555 1_555
C28 N20 1_555 1_555
C28 O14 1_555 1_555
C29 N1 1_555 1_555
C29 N18 1_555 1_555
C30 N3 1_555 1_555
C30 N20 1_555 1_555
O14 Na3_2 1_555 1_555

#END
