
#######################################################################
#
#                 Cambridge Crystallographic Data Centre
#                                CCDC 
#
#######################################################################
#
# If this CIF has been generated from an entry in the Cambridge 
# Structural Database, then it will include bibliographic, chemical, 
# crystal, experimental, refinement or atomic coordinate data resulting 
# from the CCDC's data processing and validation procedures.
#
#######################################################################

data_VEXXED
_symmetry_cell_setting           monoclinic
_symmetry_space_group_name_H-M   'P 21/c'
_symmetry_Int_Tables_number      14
_space_group_name_Hall           '-P 2ybc'
loop_
_symmetry_equiv_pos_site_id
_symmetry_equiv_pos_as_xyz
1 x,y,z
2 -x,1/2+y,1/2-z
3 -x,-y,-z
4 x,1/2-y,1/2+z
_cell_length_a                   6.7101(3)
_cell_length_b                   15.5170(7)
_cell_length_c                   12.6527(6)
_cell_angle_alpha                90
_cell_angle_beta                 94.437(1)
_cell_angle_gamma                90
_cell_volume                     1313.46
loop_
_atom_site_label
_atom_site_type_symbol
_atom_site_fract_x
_atom_site_fract_y
_atom_site_fract_z
Ni1 Ni 0.26257(5) 0.452245(19) 0.05132(2)
Br1 Br 0.44377(4) 0.600166(16) 0.05791(2)
Br2 Br 0.05968(4) 0.487286(18) -0.127414(19)
N1 N 0.1734(3) 0.32701(13) 0.06815(18)
N2 N 0.4293(3) 0.42057(13) 0.19561(16)
H1 H 0.5578 0.4321 0.1818
C1 C 0.0307(4) 0.28786(18) 0.0073(3)
H2 H -0.0273 0.3169 -0.0516
C2 C -0.0346(5) 0.2057(2) 0.0282(3)
H3 H -0.1331 0.1793 -0.0163
C3 C 0.0493(6) 0.1640(2) 0.1161(4)
H4 H 0.0054 0.1092 0.1329
C4 C 0.1966(6) 0.2027(2) 0.1788(3)
H5 H 0.2546 0.1750 0.2387
C5 C 0.2584(4) 0.28431(17) 0.1515(2)
C6 C 0.4306(5) 0.32638(18) 0.2161(2)
H6 H 0.4085 0.3180 0.2910
C7 C 0.6279(5) 0.2832(2) 0.1963(3)
H7 H 0.6197 0.2228 0.2115
H8 H 0.7335 0.3086 0.2414
H9 H 0.6548 0.2910 0.1235
C8 C 0.4002(5) 0.4738(2) 0.2917(2)
H10 H 0.3660 0.5323 0.2675
C9 C 0.2309(5) 0.4417(2) 0.3536(2)
H11 H 0.1101 0.4392 0.3079
H12 H 0.2128 0.4804 0.4113
H13 H 0.2626 0.3853 0.3810
C10 C 0.5927(6) 0.4795(3) 0.3633(3)
H14 H 0.6986 0.5002 0.3231
H15 H 0.6267 0.4234 0.3912
H16 H 0.5742 0.5185 0.4206
Ni1B Ni -0.26257(5) 0.547755(19) -0.05132(2)
Ni1B_2 Ni 0.73743(5) 0.547755(19) -0.05132(2)
Br1B Br 0.55623(4) 0.399834(16) -0.05791(2)
Br2B Br -0.05968(4) 0.512714(18) 0.127414(19)
loop_
_geom_bond_atom_site_label_1
_geom_bond_atom_site_label_2
_geom_bond_site_symmetry_1
_geom_bond_site_symmetry_2
Ni1 Br1 1_555 1_555
Br1 Ni1B_2 1_555 1_555
Br2 Ni1 1_555 1_555
N1 Ni1 1_555 1_555
N2 Ni1 1_555 1_555
H1 N2 1_555 1_555
C1 N1 1_555 1_555
H2 C1 1_555 1_555
C2 C1 1_555 1_555
H3 C2 1_555 1_555
C3 C2 1_555 1_555
H4 C3 1_555 1_555
C4 C3 1_555 1_555
H5 C4 1_555 1_555
C5 N1 1_555 1_555
C6 N2 1_555 1_555
H6 C6 1_555 1_555
C7 C6 1_555 1_555
H7 C7 1_555 1_555
H8 C7 1_555 1_555
H9 C7 1_555 1_555
C8 N2 1_555 1_555
H10 C8 1_555 1_555
C9 C8 1_555 1_555
H11 C9 1_555 1_555
H12 C9 1_555 1_555
H13 C9 1_555 1_555
C10 C8 1_555 1_555
H14 C10 1_555 1_555
H15 C10 1_555 1_555
H16 C10 1_555 1_555
Ni1B Br2 1_555 1_555
Ni1B_2 Br1B 1_555 1_555
Br1B Ni1 1_555 1_555
Br2B Ni1 1_555 1_555
C4 C5 1_555 1_555
C5 C6 1_555 1_555
Ni1B Br2B 1_555 1_555

#END
