
#######################################################################
#
#                 Cambridge Crystallographic Data Centre
#                                CCDC 
#
#######################################################################
#
# If this CIF has been generated from an entry in the Cambridge 
# Structural Database, then it will include bibliographic, chemical, 
# crystal, experimental, refinement or atomic coordinate data resulting 
# from the CCDC's data processing and validation procedures.
#
#######################################################################

data_VEXYOM
_symmetry_cell_setting           monoclinic
_symmetry_space_group_name_H-M   'I 2/a'
_symmetry_Int_Tables_number      15
_space_group_name_Hall           '-I 2ya'
loop_
_symmetry_equiv_pos_site_id
_symmetry_equiv_pos_as_xyz
1 x,y,z
2 1/2+x,1/2+y,1/2+z
3 1/2-x,y,-z
4 -x,1/2+y,1/2-z
5 -x,-y,-z
6 1/2-x,1/2-y,1/2-z
7 1/2+x,-y,z
8 x,1/2-y,1/2+z
_cell_length_a                   13.516(1)
_cell_length_b                   10.141(2)
_cell_length_c                   18.693(1)
_cell_angle_alpha                90
_cell_angle_beta                 90.25(1)
_cell_angle_gamma                90
_cell_volume                     2562.15
loop_
_atom_site_label
_atom_site_type_symbol
_atom_site_fract_x
_atom_site_fract_y
_atom_site_fract_z
Na1 Na -0.5000 0.0000 0.5000
O1 O -0.1699(1) -0.0057(2) 0.4878(1)
O2 O -0.3850(2) 0.5962(2) 0.5838(2)
O3 O -0.4791(2) 0.4250(3) 0.5814(2)
O4 O -0.4704(2) -0.1227(2) 0.3975(1)
O5 O -0.3257(2) -0.2134(2) 0.4278(1)
O6 O -0.1830(3) -0.5478(4) 0.2713(2)
O7 O -0.2458(4) -0.5855(5) 0.1700(2)
O8 O -0.5212(2) -0.3247(2) 0.0841(1)
O9 O -0.5918(2) -0.3129(3) 0.6554(1)
N1 N -0.4007(2) 0.4814(3) 0.5698(2)
N2 N -0.2444(3) -0.5283(3) 0.2263(2)
N3 N -0.5301(2) -0.2695(3) 0.1418(1)
C1 C -0.2500 0.2025(4) 0.5000
C2 C -0.2500 0.0529(4) 0.5000
C3 C -0.3259(2) 0.2709(3) 0.5340(2)
C4 C -0.3232(2) 0.4068(3) 0.5337(2)
C5 C -0.2500 0.4779(4) 0.5000
C6 C -0.3954(2) -0.2705(3) 0.3156(2)
C7 C -0.4016(2) -0.1951(3) 0.3848(2)
C8 C -0.3227(2) -0.3653(3) 0.3047(2)
C9 C -0.3221(2) -0.4287(3) 0.2393(2)
C10 C -0.3875(2) -0.4003(3) 0.1843(2)
C11 C -0.4583(2) -0.3058(3) 0.1980(2)
C12 C -0.4647(2) -0.2579(3) 0.7634(2)
H1 H -0.1289(19) 0.2270(26) 0.4415(15)
H2 H -0.2500 0.5579(78) 0.5000
H3 H -0.2869(23) -0.1127(31) 0.8411(19)
H4 H -0.3928(27) -0.0554(39) 0.6420(23)
H5 H -0.5095(22) -0.3233(29) 0.7724(15)
H6 H -0.3273(30) -0.1396(44) 0.4726(25)
Na1B Na 0.0000 0.0000 0.5000
O1B O -0.3301(1) -0.0057(2) 0.5122(1)
O1F O -0.6699(1) 0.0057(2) 0.4878(1)
Na1C Na -0.5000 -0.5000 0.0000
Na1C_2 Na -0.5000 -0.5000 1.0000
O4G O -0.4704(2) -0.3773(2) 0.8975(1)
C7G C -0.4016(2) -0.3049(3) 0.8848(2)
O5G O -0.3257(2) -0.2866(2) 0.9278(1)
H6G H -0.3273(30) -0.3604(44) 0.9726(25)
C6G C -0.3954(2) -0.2295(3) 0.8156(2)
C8G C -0.3227(2) -0.1347(3) 0.8047(2)
C9G C -0.3221(2) -0.0713(3) 0.7393(2)
N2G N -0.2444(3) 0.0283(3) 0.7263(2)
O6G O -0.1830(3) 0.0478(4) 0.7713(2)
O7G O -0.2458(4) 0.0855(5) 0.6700(2)
C10G C -0.3875(2) -0.0997(3) 0.6843(2)
C11G C -0.4583(2) -0.1942(3) 0.6980(2)
N3G N -0.5301(2) -0.2305(3) 0.6418(1)
O8G O -0.5212(2) -0.1753(2) 0.5841(1)
O4D O -0.5296(2) 0.1227(2) 0.6025(1)
O8C O -0.4788(2) 0.1753(2) 0.4159(1)
O9G O -0.5918(2) -0.1871(3) 0.1554(1)
C12G C -0.4647(2) -0.2421(3) 0.2634(2)
H5G H -0.5095(22) -0.1767(29) 0.2724(15)
H4G H -0.3928(27) -0.4446(39) 0.1420(23)
H3G H -0.2869(23) -0.3873(31) 0.3411(19)
C4B C -0.1768(2) 0.4068(3) 0.4663(2)
N1B N -0.0993(2) 0.4814(3) 0.4302(2)
O2B O -0.1150(2) 0.5962(2) 0.4162(2)
O3B O -0.0209(2) 0.4250(3) 0.4186(2)
C3B C -0.1741(2) 0.2709(3) 0.4660(2)
H1B H -0.3711(19) 0.2270(26) 0.5585(15)
loop_
_geom_bond_atom_site_label_1
_geom_bond_atom_site_label_2
_geom_bond_site_symmetry_1
_geom_bond_site_symmetry_2
Na1 O4 1_555 1_555
O1 C2 1_555 1_555
O2 N1 1_555 1_555
O3 N1 1_555 1_555
O4 C7 1_555 1_555
O5 C7 1_555 1_555
O6 N2 1_555 1_555
O7 N2 1_555 1_555
O8 N3 1_555 1_555
O9 N3G 1_555 1_555
N1 C4 1_555 1_555
N2 C9 1_555 1_555
N3 C11 1_555 1_555
C1 C2 1_555 1_555
C2 O1B 1_555 1_555
C3 C1 1_555 1_555
C4 C3 1_555 1_555
C5 C4 1_555 1_555
C6 C7 1_555 1_555
C8 C6 1_555 1_555
C9 C8 1_555 1_555
C10 C9 1_555 1_555
C11 C10 1_555 1_555
C12 H5 1_555 1_555
H1 C3B 1_555 1_555
H2 C5 1_555 1_555
H3 C8G 1_555 1_555
H4 C10G 1_555 1_555
H6 O5 1_555 1_555
Na1B O1 1_555 1_555
O1B Na1 1_555 1_555
O1F Na1 1_555 1_555
Na1C O8 1_555 1_555
Na1C_2 O4G 1_555 1_555
O4G C7G 1_555 1_555
C7G O5G 1_555 1_555
O5G H6G 1_555 1_555
C6G C12 1_555 1_555
C8G C6G 1_555 1_555
C9G C8G 1_555 1_555
N2G C9G 1_555 1_555
O6G N2G 1_555 1_555
O7G N2G 1_555 1_555
C10G C9G 1_555 1_555
C11G C12 1_555 1_555
N3G C11G 1_555 1_555
O8G Na1 1_555 1_555
O4D Na1 1_555 1_555
O8C Na1 1_555 1_555
O9G N3 1_555 1_555
C12G C6 1_555 1_555
H5G C12G 1_555 1_555
H4G C10 1_555 1_555
H3G C8 1_555 1_555
C4B C5 1_555 1_555
N1B C4B 1_555 1_555
O2B N1B 1_555 1_555
O3B N1B 1_555 1_555
C3B C1 1_555 1_555
H1B C3 1_555 1_555
C11 C12G 1_555 1_555
C7G C6G 1_555 1_555
C10G C11G 1_555 1_555
N3G O8G 1_555 1_555
C4B C3B 1_555 1_555

#END
