
#######################################################################
#
#                 Cambridge Crystallographic Data Centre
#                                CCDC 
#
#######################################################################
#
# If this CIF has been generated from an entry in the Cambridge 
# Structural Database, then it will include bibliographic, chemical, 
# crystal, experimental, refinement or atomic coordinate data resulting 
# from the CCDC's data processing and validation procedures.
#
#######################################################################

data_VEYPEW
_symmetry_cell_setting           orthorhombic
_symmetry_space_group_name_H-M   'P b c a'
_symmetry_Int_Tables_number      61
_space_group_name_Hall           '-P 2ac 2ab'
loop_
_symmetry_equiv_pos_site_id
_symmetry_equiv_pos_as_xyz
1 x,y,z
2 1/2-x,-y,1/2+z
3 -x,1/2+y,1/2-z
4 1/2+x,1/2-y,-z
5 -x,-y,-z
6 1/2+x,y,1/2-z
7 x,1/2-y,1/2+z
8 1/2-x,1/2+y,z
_cell_length_a                   14.507(3)
_cell_length_b                   18.533(4)
_cell_length_c                   27.263(6)
_cell_angle_alpha                90
_cell_angle_beta                 90
_cell_angle_gamma                90
_cell_volume                     7329.88
loop_
_atom_site_label
_atom_site_type_symbol
_atom_site_fract_x
_atom_site_fract_y
_atom_site_fract_z
As1 As 0.39800(2) 0.38825(2) 0.538445(14)
As2 As 0.42453(2) 0.38654(2) 0.450311(13)
As3 As 0.54911(3) 0.29794(2) 0.440026(14)
As4 As 0.60680(2) 0.40872(2) 0.554911(14)
As5 As 0.63256(2) 0.40664(2) 0.466948(14)
As6 As 0.51165(3) 0.30155(2) 0.570002(14)
As7 As 0.54244(2) 0.21709(2) 0.507170(14)
C1 C 0.2861(3) 0.2793(2) 0.32934(17)
H1 H 0.3071 0.3032 0.3598
H2 H 0.3124 0.3061 0.3012
C2 C 0.3216(3) 0.2026(3) 0.32849(17)
H3 H 0.2974 0.1775 0.2991
H4 H 0.3897 0.2030 0.3263
Cs1 Cs 0.288129(15) 0.229040(13) 0.480210(9)
N1 N 0.2938(3) 0.1640(2) 0.37193(13)
H5 H 0.3312 0.1240 0.3736
H6 H 0.2353 0.1472 0.3657
N2 N 0.1850(2) 0.28236(19) 0.32686(13)
H7 H 0.1528 0.2422 0.3251
H8 H 0.1567 0.3243 0.3271
Pd1 Pd 0.514564(17) 0.498994(14) 0.450800(10)
As1D As 0.60200(2) 0.61175(2) 0.461555(14)
As4C As 0.10680(2) 0.09128(2) 0.445089(14)
As4D As 0.39320(2) 0.59128(2) 0.445089(14)
As5C As 0.13256(2) 0.09336(2) 0.533052(14)
As7C As 0.04244(2) 0.28291(2) 0.492830(14)
Cs1C Cs 0.788129(15) 0.270960(13) 0.519790(9)
Pd1D Pd 0.485436(17) 0.501006(14) 0.549200(10)
C3 C 0.4823(3) -0.0450(2) 0.56824(14)
H9 H 0.4563 -0.0527 0.5351
H10 H 0.4879 -0.0929 0.5841
C4 C 0.7013(2) 0.0372(2) 0.60655(14)
H11 H 0.6850 0.0886 0.6019
H12 H 0.7389 0.0215 0.5782
C5 C 0.7550(2) 0.0282(2) 0.65279(13)
H13 H 0.7728 -0.0230 0.6568
H14 H 0.8119 0.0576 0.6513
C6 C 0.3287(3) -0.0395(2) 0.60078(14)
H15 H 0.3071 -0.0521 0.5674
H16 H 0.2827 -0.0064 0.6153
C7 C 0.3798(3) 0.1921(2) 0.67895(14)
H17 H 0.3189 0.1804 0.6933
H18 H 0.3732 0.2359 0.6585
C8 C 0.5778(3) -0.0133(2) 0.56283(13)
H19 H 0.6161 -0.0453 0.5421
H20 H 0.5738 0.0344 0.5466
C9 C 0.4486(3) 0.2052(2) 0.71891(15)
H21 H 0.5090 0.2176 0.7043
H22 H 0.4282 0.2464 0.7393
C10 C 0.6009(3) -0.0340(2) 0.81103(15)
H23 H 0.6190 -0.0260 0.8456
H24 H 0.6500 -0.0631 0.7954
C11 C 0.3794(3) -0.1529(2) 0.70804(15)
H25 H 0.4304 -0.1810 0.6932
H26 H 0.3234 -0.1835 0.7080
C12 C 0.5402(3) 0.0874(2) 0.81551(14)
H27 H 0.5742 0.0988 0.8460
H28 H 0.4822 0.0629 0.8250
C13 C 0.4015(3) 0.0690(2) 0.57390(14)
H29 H 0.3624 0.0621 0.5445
H30 H 0.4615 0.0884 0.5627
C14 C 0.3322(3) -0.1078(2) 0.63140(15)
H31 H 0.2702 -0.1299 0.6330
H32 H 0.3749 -0.1429 0.6162
C15 C 0.6895(2) 0.0663(2) 0.78035(14)
H33 H 0.7238 0.0587 0.8113
H34 H 0.6852 0.1189 0.7747
C16 C 0.5166(3) 0.1562(2) 0.79027(15)
H35 H 0.4849 0.1889 0.8135
H36 H 0.5738 0.1803 0.7791
C17 C 0.4038(3) -0.1331(2) 0.75989(15)
H37 H 0.3534 -0.1042 0.7745
H38 H 0.4114 -0.1775 0.7797
C18 C 0.7431(2) 0.0328(2) 0.73904(14)
H39 H 0.8072 0.0511 0.7393
H40 H 0.7450 -0.0202 0.7431
C19 C 0.3560(3) 0.1244(2) 0.60696(13)
H41 H 0.3500 0.1709 0.5894
H42 H 0.2936 0.1078 0.6164
C20 C 0.5132(3) -0.0763(3) 0.81015(14)
H43 H 0.5216 -0.1218 0.8287
H44 H 0.4637 -0.0482 0.8262
K1 K 0.50441(5) 0.01831(4) 0.69122(3)
N3 N 0.5961(2) 0.03701(19) 0.78596(11)
N4 N 0.41708(19) -0.00137(17) 0.59672(11)
O1 O 0.45782(17) 0.14236(15) 0.74882(9)
O2 O 0.41158(18) 0.13364(14) 0.64985(9)
O3 O 0.36336(18) -0.08988(15) 0.67993(10)
O4 O 0.48711(18) -0.09265(16) 0.76056(10)
O5 O 0.69987(16) 0.05064(15) 0.69353(9)
O6 O 0.61909(16) -0.00567(14) 0.60968(9)
loop_
_geom_bond_atom_site_label_1
_geom_bond_atom_site_label_2
_geom_bond_site_symmetry_1
_geom_bond_site_symmetry_2
As1 As2 1_555 1_555
As2 As3 1_555 1_555
As3 As5 1_555 1_555
As4 As5 1_555 1_555
As5 Pd1 1_555 1_555
As6 As1 1_555 1_555
As7 As3 1_555 1_555
C1 H1 1_555 1_555
H2 C1 1_555 1_555
C2 C1 1_555 1_555
H3 C2 1_555 1_555
H4 C2 1_555 1_555
Cs1 As1 1_555 1_555
N1 C2 1_555 1_555
H5 N1 1_555 1_555
H6 N1 1_555 1_555
N2 C1 1_555 1_555
H7 N2 1_555 1_555
H8 N2 1_555 1_555
Pd1 As2 1_555 1_555
C3 H9 1_555 1_555
H10 C3 1_555 1_555
C4 H11 1_555 1_555
H12 C4 1_555 1_555
C5 C4 1_555 1_555
H13 C5 1_555 1_555
H14 C5 1_555 1_555
C6 H15 1_555 1_555
H16 C6 1_555 1_555
C7 H17 1_555 1_555
H18 C7 1_555 1_555
C8 C3 1_555 1_555
H19 C8 1_555 1_555
H20 C8 1_555 1_555
C9 C7 1_555 1_555
H21 C9 1_555 1_555
H22 C9 1_555 1_555
C10 H23 1_555 1_555
H24 C10 1_555 1_555
C11 H25 1_555 1_555
H26 C11 1_555 1_555
C12 H27 1_555 1_555
H28 C12 1_555 1_555
C13 H29 1_555 1_555
H30 C13 1_555 1_555
C14 C6 1_555 1_555
H31 C14 1_555 1_555
H32 C14 1_555 1_555
C15 H33 1_555 1_555
H34 C15 1_555 1_555
C16 C12 1_555 1_555
H35 C16 1_555 1_555
H36 C16 1_555 1_555
C17 C11 1_555 1_555
H37 C17 1_555 1_555
H38 C17 1_555 1_555
C18 C15 1_555 1_555
H39 C18 1_555 1_555
H40 C18 1_555 1_555
C19 C13 1_555 1_555
H41 C19 1_555 1_555
H42 C19 1_555 1_555
C20 C10 1_555 1_555
H43 C20 1_555 1_555
H44 C20 1_555 1_555
K1 N3 1_555 1_555
N3 C10 1_555 1_555
N4 C3 1_555 1_555
O1 C9 1_555 1_555
O2 C7 1_555 1_555
O3 C11 1_555 1_555
O4 C17 1_555 1_555
O5 C5 1_555 1_555
O6 C4 1_555 1_555
As1D Pd1 1_555 1_555
As4C Cs1 1_555 1_555
As4D Pd1 1_555 1_555
As5C Cs1 1_555 1_555
As7C Cs1 1_555 1_555
Cs1C As4 1_555 1_555
Pd1D As1 1_555 1_555
As2 Cs1 1_555 1_555
As4 As6 1_555 1_555
As4 Pd1D 1_555 1_555
As5 Cs1C 1_555 1_555
As6 As7 1_555 1_555
As7 Cs1 1_555 1_555
As7 Cs1C 1_555 1_555
Cs1 N1 1_555 1_555
Pd1 Pd1D 1_555 1_555
C6 N4 1_555 1_555
C8 O6 1_555 1_555
C12 N3 1_555 1_555
C13 N4 1_555 1_555
C14 O3 1_555 1_555
C15 N3 1_555 1_555
C16 O1 1_555 1_555
C18 O5 1_555 1_555
C19 O2 1_555 1_555
C20 O4 1_555 1_555
K1 N4 1_555 1_555
K1 O1 1_555 1_555
K1 O2 1_555 1_555
K1 O3 1_555 1_555
K1 O4 1_555 1_555
K1 O5 1_555 1_555
K1 O6 1_555 1_555
As4C As5C 1_555 1_555

#END
