
#######################################################################
#
#                 Cambridge Crystallographic Data Centre
#                                CCDC 
#
#######################################################################
#
# If this CIF has been generated from an entry in the Cambridge 
# Structural Database, then it will include bibliographic, chemical, 
# crystal, experimental, refinement or atomic coordinate data resulting 
# from the CCDC's data processing and validation procedures.
#
#######################################################################

data_VEYPUM
_symmetry_cell_setting           monoclinic
_symmetry_space_group_name_H-M   'P 21/c'
_symmetry_Int_Tables_number      14
_space_group_name_Hall           '-P 2ybc'
loop_
_symmetry_equiv_pos_site_id
_symmetry_equiv_pos_as_xyz
1 x,y,z
2 -x,1/2+y,1/2-z
3 -x,-y,-z
4 x,1/2-y,1/2+z
_cell_length_a                   14.611(6)
_cell_length_b                   15.551(6)
_cell_length_c                   8.837(4)
_cell_angle_alpha                90
_cell_angle_beta                 102.36(1)
_cell_angle_gamma                90
_cell_volume                     1961.37
loop_
_atom_site_label
_atom_site_type_symbol
_atom_site_fract_x
_atom_site_fract_y
_atom_site_fract_z
Cu1 Cu 0.80121(5) 0.15361(5) 0.18856(8)
Cl1 Cl 0.80052(13) -0.07857(11) 0.2986(2)
O1 O 0.8073(3) 0.1994(3) 0.3894(4)
N1 N 0.6719(3) 0.1230(3) 0.1958(5)
N2 N 0.8598(3) 0.0958(3) -0.0720(5)
O2 O 0.7166(3) 0.2214(3) 0.5558(5)
N3 N 0.6073(3) 0.0817(3) 0.0842(5)
H1 H 0.5503 0.0759 0.1008
N4 N 0.7859(3) 0.0988(3) -0.0048(6)
N5 N 0.9315(4) 0.1598(3) 0.1588(6)
C1 C 0.6462(4) 0.1536(3) 0.3183(7)
C2 C 0.9464(4) 0.1270(3) 0.0220(7)
O3 O 0.5613(3) 0.0096(3) -0.1376(5)
C3 C 0.7292(4) 0.1949(3) 0.4314(7)
C4 C 0.5530(4) 0.1548(3) 0.3482(7)
C5 C 0.5305(5) 0.1148(4) 0.4767(7)
H2 H 0.5773 0.0836 0.5464
C6 C 0.7146(4) 0.0607(4) -0.0968(6)
C7 C 1.0313(4) 0.1241(4) -0.0155(8)
H3 H 1.0384 0.1024 -0.1129
C8 C 1.1074(4) 0.1536(4) 0.0927(8)
H4 H 1.1679 0.1527 0.0696
C9 C 0.8363(4) 0.0564(4) -0.2135(6)
C10 C 0.6240(4) 0.0485(4) -0.0524(7)
O4 O 0.7346(4) -0.0426(4) 0.3747(8)
C11 C 1.0072(4) 0.1857(4) 0.2615(8)
H5 H 0.9993 0.2060 0.3593
C12 C 0.4414(5) 0.1199(5) 0.5042(8)
H6 H 0.4268 0.0915 0.5912
C13 C 0.7447(5) 0.0334(4) -0.2296(7)
H7 H 0.7077 0.0041 -0.3157
C14 C 1.0965(5) 0.1843(4) 0.2330(9)
H8 H 1.1487 0.2041 0.3084
C15 C 0.4826(5) 0.1991(5) 0.2488(9)
H9 H 0.4955 0.2255 0.1587
O5 O 0.8635(4) -0.0117(4) 0.2772(7)
C16 C 0.8989(5) 0.0467(5) -0.3221(7)
H10 H 0.8645 0.0200 -0.4180
H11 H 0.9521 0.0101 -0.2753
H12 H 0.9218 0.1033 -0.3454
C17 C 0.3746(5) 0.1654(5) 0.4070(9)
H13 H 0.3134 0.1701 0.4269
C18 C 0.3958(6) 0.2052(5) 0.2785(10)
H14 H 0.3488 0.2372 0.2105
O6 O 0.8488(7) -0.1422(4) 0.3930(9)
O7 O 0.7558(6) -0.1099(5) 0.1538(7)
Cu1C Cu 0.80121(5) 0.34639(5) 0.68856(8)
O2C O 0.7166(3) 0.2786(3) 0.0558(5)
loop_
_geom_bond_atom_site_label_1
_geom_bond_atom_site_label_2
_geom_bond_site_symmetry_1
_geom_bond_site_symmetry_2
Cu1 O1 1_555 1_555
Cl1 O4 1_555 1_555
O1 C3 1_555 1_555
N1 Cu1 1_555 1_555
N2 N4 1_555 1_555
O2 C3 1_555 1_555
N3 N1 1_555 1_555
H1 N3 1_555 1_555
N4 Cu1 1_555 1_555
N5 Cu1 1_555 1_555
C1 N1 1_555 1_555
C2 N2 1_555 1_555
O3 C10 1_555 1_555
C3 C1 1_555 1_555
C4 C1 1_555 1_555
C5 C4 1_555 1_555
H2 C5 1_555 1_555
C6 N4 1_555 1_555
C7 C2 1_555 1_555
H3 C7 1_555 1_555
C8 C7 1_555 1_555
H4 C8 1_555 1_555
C9 N2 1_555 1_555
C10 N3 1_555 1_555
C11 N5 1_555 1_555
H5 C11 1_555 1_555
C12 C5 1_555 1_555
H6 C12 1_555 1_555
C13 C6 1_555 1_555
H7 C13 1_555 1_555
C14 C8 1_555 1_555
H8 C14 1_555 1_555
C15 C4 1_555 1_555
H9 C15 1_555 1_555
O5 Cu1 1_555 1_555
C16 C9 1_555 1_555
H10 C16 1_555 1_555
H11 C16 1_555 1_555
H12 C16 1_555 1_555
C17 C12 1_555 1_555
H13 C17 1_555 1_555
C18 C15 1_555 1_555
H14 C18 1_555 1_555
O6 Cl1 1_555 1_555
O7 Cl1 1_555 1_555
Cu1C O2 1_555 1_555
O2C Cu1 1_555 1_555
Cl1 O5 1_555 1_555
N5 C2 1_555 1_555
C6 C10 1_555 1_555
C9 C13 1_555 1_555
C11 C14 1_555 1_555
C17 C18 1_555 1_555

#END
