
#######################################################################
#
#                 Cambridge Crystallographic Data Centre
#                                CCDC 
#
#######################################################################
#
# If this CIF has been generated from an entry in the Cambridge 
# Structural Database, then it will include bibliographic, chemical, 
# crystal, experimental, refinement or atomic coordinate data resulting 
# from the CCDC's data processing and validation procedures.
#
#######################################################################

data_VEYQEX
_symmetry_cell_setting           orthorhombic
_symmetry_space_group_name_H-M   'I c a b'
_symmetry_Int_Tables_number      73
_space_group_name_Hall           '-I 2a 2b'
loop_
_symmetry_equiv_pos_site_id
_symmetry_equiv_pos_as_xyz
1 x,y,z
2 1/2-x,-y,z
3 x,1/2-y,-z
4 -x,y,1/2-z
5 1/2+x,1/2+y,1/2+z
6 -x,1/2-y,1/2+z
7 1/2+x,-y,1/2-z
8 1/2-x,1/2+y,-z
9 -x,-y,-z
10 1/2+x,y,-z
11 -x,1/2+y,z
12 x,-y,1/2+z
13 1/2-x,1/2-y,1/2-z
14 x,1/2+y,1/2-z
15 1/2-x,y,1/2+z
16 1/2+x,1/2-y,z
_cell_length_a                   12.6415(16)
_cell_length_b                   21.044(3)
_cell_length_c                   28.970(4)
_cell_angle_alpha                90
_cell_angle_beta                 90
_cell_angle_gamma                90
_cell_volume                     7706.82
loop_
_atom_site_label
_atom_site_type_symbol
_atom_site_fract_x
_atom_site_fract_y
_atom_site_fract_z
Cu1 Cu 0.73894(2) 0.215853(11) 0.166809(8)
Cl1 Cl 0.96213(4) 0.31658(3) 0.14443(2)
O1 O 0.79620(13) 0.17233(7) 0.01259(5)
O2 O 0.67962(13) 0.29181(7) 0.19242(5)
O3 O 0.75170(15) 0.17080(8) 0.22531(5)
O4 O 0.61970(19) 0.38719(8) 0.17205(6)
N1 N 0.84055(15) 0.09234(8) 0.15339(6)
O5 O 0.88855(16) 0.36789(9) 0.14505(8)
O6 O 1.06047(15) 0.33663(10) 0.16342(9)
N2 N 0.73918(14) 0.24161(8) 0.06427(5)
N3 N 0.71288(13) 0.26146(7) 0.10773(5)
N4 N 0.80080(13) 0.14519(7) 0.13415(5)
C1 C 0.77997(15) 0.18380(9) 0.05316(6)
C2 C 0.80662(15) 0.13598(9) 0.08858(6)
C3 C 0.84942(19) 0.07658(10) 0.07928(7)
H1 H 0.8606 0.0584 0.0504
C4 C 0.66604(15) 0.31531(8) 0.11276(6)
C5 C 0.63088(16) 0.35610(9) 0.07436(7)
C6 C 0.65273(18) 0.33460(10) 0.16288(7)
C7 C 0.87189(18) 0.05008(9) 0.12163(7)
C8 C 0.56713(17) 0.32997(10) 0.03979(7)
H2 H 0.5442 0.2881 0.0421
O7 O 0.9210(2) 0.26721(13) 0.17327(12)
C9 C 0.53822(19) 0.36662(13) 0.00212(8)
H3 H 0.4963 0.3494 -0.0211
C10 C 0.6615(2) 0.41918(11) 0.07173(9)
H4 H 0.7022 0.4371 0.0951
C11 C 0.5717(2) 0.42849(13) -0.00070(9)
H5 H 0.5541 0.4526 -0.0265
O8 O 0.9707(3) 0.2910(2) 0.10093(12)
C12 C 0.6310(2) 0.45535(12) 0.03398(10)
H6 H 0.6508 0.4978 0.0321
C13 C 0.9221(3) -0.01131(12) 0.13489(9)
H7 H 0.9977 -0.0071 0.1334
H8 H 0.8996 -0.0440 0.1140
H9 H 0.9014 -0.0223 0.1658
H10 H 0.697(4) 0.142(2) 0.2309(15)
H11 H 0.785(3) 0.1882(15) 0.2454(12)
H12 H 0.7405(19) 0.2690(13) 0.0431(10)
H13 H 0.843(3) 0.0884(15) 0.1792(12)
Cu1O Cu 1.23894(2) 0.284147(11) 0.166809(8)
O6O O 0.56047(15) 0.16337(10) 0.16342(9)
loop_
_geom_bond_atom_site_label_1
_geom_bond_atom_site_label_2
_geom_bond_site_symmetry_1
_geom_bond_site_symmetry_2
Cu1 O2 1_555 1_555
Cl1 O5 1_555 1_555
O1 C1 1_555 1_555
O2 C6 1_555 1_555
O3 Cu1 1_555 1_555
O4 C6 1_555 1_555
N1 N4 1_555 1_555
O6 Cl1 1_555 1_555
N2 N3 1_555 1_555
N3 Cu1 1_555 1_555
N4 Cu1 1_555 1_555
C1 N2 1_555 1_555
C2 N4 1_555 1_555
C3 C2 1_555 1_555
H1 C3 1_555 1_555
C4 N3 1_555 1_555
C5 C4 1_555 1_555
C6 C4 1_555 1_555
C7 N1 1_555 1_555
C8 C5 1_555 1_555
H2 C8 1_555 1_555
O7 Cu1 1_555 1_555
C9 C8 1_555 1_555
H3 C9 1_555 1_555
C10 C5 1_555 1_555
H4 C10 1_555 1_555
C11 C9 1_555 1_555
H5 C11 1_555 1_555
O8 Cl1 1_555 1_555
C12 C10 1_555 1_555
H6 C12 1_555 1_555
C13 C7 1_555 1_555
H7 C13 1_555 1_555
H8 C13 1_555 1_555
H9 C13 1_555 1_555
H10 O3 1_555 1_555
H11 O3 1_555 1_555
H12 N2 1_555 1_555
H13 N1 1_555 1_555
Cu1O O6 1_555 1_555
O6O Cu1 1_555 1_555
Cl1 O7 1_555 1_555
C1 C2 1_555 1_555
C3 C7 1_555 1_555
C11 C12 1_555 1_555

#END
