
#######################################################################
#
#                 Cambridge Crystallographic Data Centre
#                                CCDC 
#
#######################################################################
#
# If this CIF has been generated from an entry in the Cambridge 
# Structural Database, then it will include bibliographic, chemical, 
# crystal, experimental, refinement or atomic coordinate data resulting 
# from the CCDC's data processing and validation procedures.
#
#######################################################################

data_VEYQOH
_symmetry_cell_setting           monoclinic
_symmetry_space_group_name_H-M   'P 21/c'
_symmetry_Int_Tables_number      14
_space_group_name_Hall           '-P 2ybc'
loop_
_symmetry_equiv_pos_site_id
_symmetry_equiv_pos_as_xyz
1 x,y,z
2 -x,1/2+y,1/2-z
3 -x,-y,-z
4 x,1/2-y,1/2+z
_cell_length_a                   17.714(3)
_cell_length_b                   25.160(4)
_cell_length_c                   19.773(3)
_cell_angle_alpha                90
_cell_angle_beta                 97.513(3)
_cell_angle_gamma                90
_cell_volume                     8736.86
loop_
_atom_site_label
_atom_site_type_symbol
_atom_site_fract_x
_atom_site_fract_y
_atom_site_fract_z
Ag1 Ag 0.297532(17) 0.385952(11) 0.144918(16)
Ag2 Ag 0.407497(17) 0.294642(12) 0.201576(18)
Ag3 Ag 0.19477(2) 0.879469(13) 0.29736(2)
Ag4 Ag 0.054793(18) 0.818994(12) 0.210717(16)
C1 C 0.3992(2) 0.47610(15) 0.2170(2)
H1 H 0.3999 0.4534 0.2555
C2 C 0.4335(2) 0.52535(15) 0.2260(2)
H2 H 0.4579 0.5355 0.2698
C3 C 0.4324(2) 0.55995(15) 0.1716(2)
C4 C 0.3971(2) 0.54214(16) 0.1087(2)
H3 H 0.3950 0.5643 0.0696
C5 C 0.3652(2) 0.49229(15) 0.1037(2)
H4 H 0.3419 0.4808 0.0602
C6 C 0.4637(2) 0.61507(15) 0.1812(2)
H5 H 0.4828 0.6268 0.1387
H6 H 0.5071 0.6151 0.2182
C7 C 0.4033(2) 0.65376(15) 0.1988(2)
H7 H 0.3803 0.6399 0.2383
H8 H 0.3625 0.6565 0.1596
C8 C 0.4362(2) 0.70923(16) 0.2161(3)
H9 H 0.4782 0.7064 0.2542
H10 H 0.4575 0.7237 0.1760
C9 C 0.3769(2) 0.74657(15) 0.2358(2)
C10 C 0.3694(2) 0.75658(17) 0.3027(3)
H11 H 0.4021 0.7393 0.3378
C11 C 0.3151(3) 0.79134(17) 0.3194(3)
H12 H 0.3116 0.7978 0.3662
C12 C 0.2730(3) 0.80598(17) 0.2066(3)
H13 H 0.2387 0.8228 0.1722
C13 C 0.3264(2) 0.77192(16) 0.1871(2)
H14 H 0.3288 0.7657 0.1400
C14 C 0.2173(2) 1.31905(15) 0.2474(2)
H15 H 0.2416 1.3440 0.2791
C15 C 0.1677(3) 1.28254(16) 0.2702(2)
H16 H 0.1579 1.2834 0.3163
C16 C 0.1511(2) 1.24543(16) 0.1603(2)
H17 H 0.1301 1.2195 0.1284
C17 C 0.2000(2) 1.28358(15) 0.1410(2)
H18 H 0.2110 1.2834 0.0952
C18 C 0.1327(2) 1.24488(15) 0.2260(2)
C19 C 0.0756(3) 1.20601(16) 0.2487(3)
H19 H 0.0301 1.2054 0.2139
H20 H 0.0594 1.2192 0.2918
C20 C 0.3474(2) 0.19733(16) 0.2698(2)
H21 H 0.3609 0.2179 0.3098
C21 C 0.3212(2) 0.14641(16) 0.2762(2)
H22 H 0.3165 0.1325 0.3201
C22 C 0.3016(2) 0.11532(14) 0.2189(2)
C23 C 0.3091(2) 0.13827(16) 0.1569(2)
H23 H 0.2961 0.1186 0.1160
C24 C 0.3353(2) 0.18972(16) 0.1540(2)
H24 H 0.3396 0.2048 0.1106
C25 C 0.2777(2) 0.05875(15) 0.2251(2)
H25 H 0.2440 0.0483 0.1833
H26 H 0.2486 0.0552 0.2643
C26 C 0.3467(2) 0.02170(14) 0.2352(2)
H27 H 0.3811 0.0328 0.2763
H28 H 0.3751 0.0245 0.1955
C27 C 0.3225(2) -0.03588(14) 0.2434(2)
H29 H 0.2921 -0.0382 0.2819
H30 H 0.2895 -0.0471 0.2016
C28 C 0.3884(2) -0.07311(14) 0.2562(2)
C29 C 0.4208(2) -0.08636(16) 0.3210(2)
H31 H 0.4014 -0.0714 0.3593
C30 C 0.4812(3) -0.12123(16) 0.3306(2)
H32 H 0.5025 -0.1297 0.3759
C31 C 0.4806(2) -0.13034(17) 0.2164(2)
H33 H 0.5015 -0.1456 0.1790
C32 C 0.4203(2) -0.09563(17) 0.2028(2)
H34 H 0.4008 -0.0872 0.1570
C33 C 0.1193(2) 0.98082(16) 0.3481(2)
H35 H 0.1338 0.9659 0.3920
C34 C 0.0889(2) 1.03112(15) 0.3443(2)
H36 H 0.0818 1.0497 0.3848
C35 C 0.0685(2) 1.05458(14) 0.2814(2)
C36 C 0.0768(2) 1.02403(16) 0.2247(2)
H37 H 0.0617 1.0379 0.1803
C37 C 0.1067(2) 0.97360(17) 0.2325(2)
H38 H 0.1114 0.9533 0.1927
C38 C 0.0414(2) 1.11156(15) 0.2748(2)
H39 H 0.0226 1.1225 0.3177
H40 H -0.0015 1.1141 0.2375
C39 C 0.1049(2) 1.14939(14) 0.2600(2)
H41 H 0.1262 1.1371 0.2188
H42 H 0.1463 1.1488 0.2988
C40 C 0.1515(2) 0.71990(15) 0.2612(2)
H43 H 0.1540 0.7374 0.3040
C41 C 0.1886(2) 0.67246(14) 0.2582(2)
H44 H 0.2176 0.6585 0.2980
C42 C 0.1838(2) 0.64482(15) 0.1974(2)
C43 C 0.1433(2) 0.66911(16) 0.1406(2)
H45 H 0.1393 0.6521 0.0973
C44 C 0.1094(2) 0.71736(16) 0.1469(2)
H46 H 0.0831 0.7334 0.1072
C45 C 0.2168(2) 0.58967(15) 0.1949(2)
H47 H 0.2627 0.5865 0.2291
H48 H 0.2321 0.5831 0.1492
C46 C 0.1578(2) 0.54851(14) 0.2096(2)
H49 H 0.1142 0.5496 0.1728
H50 H 0.1388 0.5575 0.2531
C47 C 0.1915(2) 0.49227(15) 0.2144(2)
H51 H 0.2092 0.4829 0.1705
H52 H 0.2362 0.4916 0.2502
C48 C 0.1344(2) 0.45164(14) 0.2311(2)
C49 C 0.1309(2) 0.43444(15) 0.2969(2)
H53 H 0.1659 0.4478 0.3333
C50 C 0.0816(2) 0.43009(15) 0.1803(2)
H54 H 0.0812 0.4406 0.1342
C51 C 0.0296(2) 0.39327(15) 0.1975(2)
H55 H -0.0056 0.3787 0.1619
C52 C 0.0769(2) 0.39807(16) 0.3097(2)
H56 H 0.0756 0.3873 0.3555
C53 C 0.1532(2) 0.42094(15) 0.02040(19)
C54 C 0.1623(2) 0.36661(15) -0.01026(18)
C55 C 0.0996(2) 0.33235(17) -0.0150(2)
H57 H 0.0520 0.3452 -0.0047
C56 C 0.1064(3) 0.27999(17) -0.0346(2)
H58 H 0.0637 0.2569 -0.0371
C57 C 0.1748(3) 0.26138(17) -0.0505(2)
H59 H 0.1802 0.2250 -0.0618
C58 C 0.2363(2) 0.29601(16) -0.0501(2)
H60 H 0.2825 0.2835 -0.0639
C59 C 0.2310(2) 0.34865(15) -0.02970(18)
C60 C 0.2963(2) 0.38546(14) -0.03555(18)
C61 C 0.2810(2) 0.43314(15) -0.07107(19)
H61 H 0.2298 0.4417 -0.0880
C62 C 0.3378(2) 0.46781(16) -0.0822(2)
H62 H 0.3256 0.5004 -0.1052
C63 C 0.4133(2) 0.45518(16) -0.0596(2)
H63 H 0.4532 0.4789 -0.0669
C64 C 0.4292(2) 0.40755(16) -0.0264(2)
H64 H 0.4808 0.3980 -0.0125
C65 C 0.3719(2) 0.37309(14) -0.01268(18)
C66 C 0.3952(2) 0.32501(14) 0.0316(2)
C67 C 0.0816(2) 0.86341(14) 0.07712(19)
C68 C 0.0911(2) 0.89152(15) 0.01171(19)
C69 C 0.0840(2) 0.94654(16) 0.0104(2)
H65 H 0.0772 0.9648 0.0512
C70 C 0.0867(3) 0.97505(16) -0.0484(2)
H66 H 0.0814 1.0126 -0.0484
C71 C 0.0972(3) 0.94854(18) -0.1073(2)
H67 H 0.0982 0.9677 -0.1486
C72 C 0.1062(3) 0.89374(17) -0.1063(2)
H68 H 0.1138 0.8758 -0.1471
C73 C 0.1044(2) 0.86450(15) -0.04665(19)
C74 C 0.1121(2) 0.80497(15) -0.04967(19)
C75 C 0.0463(2) 0.77609(17) -0.0700(2)
H69 H -0.0008 0.7944 -0.0795
C76 C 0.0471(2) 0.72147(17) -0.0770(2)
H70 H 0.0012 0.7030 -0.0921
C77 C 0.1140(2) 0.69376(16) -0.0622(2)
H71 H 0.1147 0.6562 -0.0664
C78 C 0.1799(2) 0.72126(16) -0.0412(2)
H72 H 0.2260 0.7021 -0.0303
C79 C 0.1809(2) 0.77694(15) -0.03544(19)
C80 C 0.2574(2) 0.80367(17) -0.0171(2)
N1 N 0.36503(17) 0.45895(12) 0.15641(16)
N2 N 0.23261(18) 1.32085(12) 0.18360(16)
N3 N 0.35472(18) 0.21891(12) 0.20911(17)
N4 N 0.51103(18) -0.14358(12) 0.27925(18)
N5 N 0.2668(2) 0.81666(13) 0.2721(2)
N6 N 0.12966(18) 0.95177(13) 0.29357(18)
N7 N 0.11155(18) 0.74296(12) 0.20635(17)
N8 N 0.02603(19) 0.37693(12) 0.26124(17)
O1 O 0.20919(14) 0.44035(10) 0.05816(13)
O2 O 0.08922(15) 0.44314(11) 0.00840(15)
O3 O 0.35598(15) 0.31342(10) 0.07752(14)
O4 O 0.45429(17) 0.30068(12) 0.01991(17)
O5 O 0.02532(17) 0.83382(11) 0.07842(15)
O6 O 0.12958(17) 0.87366(11) 0.12849(13)
O7 O 0.26253(17) 0.85189(12) -0.02917(18)
O8 O 0.31093(18) 0.77564(14) 0.0110(2)
Ag1_2 Ag 0.297532(17) 1.385952(11) 0.144918(16)
Ag2A Ag 0.592503(17) -0.205358(12) 0.298424(18)
Ag4A Ag -0.054793(18) 0.318994(12) 0.289283(16)
N2_2 N 0.23261(18) 0.32085(12) 0.18360(16)
N4A N 0.48897(18) 0.35642(12) 0.22075(18)
N8A N -0.02603(19) 0.87693(12) 0.23876(17)
C81 C 0.3217(4) 0.5424(3) 0.3951(4)
H73 H 0.2676 0.5346 0.3956
H74 H 0.3492 0.5376 0.4410
H75 H 0.3426 0.5183 0.3634
O9 O 0.3301(2) 0.59668(16) 0.3734(2)
H76 H 0.3146 0.6146 0.4053
C82 C 0.1022(3) 0.3929(2) 0.5590(3)
H77 H 0.1513 0.4105 0.5720
H78 H 0.0903 0.3705 0.5968
H79 H 0.0624 0.4197 0.5487
O10 O 0.1061(2) 0.3616(2) 0.5022(3)
H80 H 0.0681 0.3543 0.4728
O11 O 0.6486(3) 0.6118(4) 0.6301(4)
H81 H 0.6080 0.5984 0.6092
H82 H 0.6429 0.6450 0.6353
O12 O 0.5117(3) 0.70214(15) 0.4275(2)
H83 H 0.4903 0.6883 0.4592
H84 H 0.5247 0.7336 0.4393
O13 O 0.44402(18) 0.83162(14) 0.04183(18)
H85 H 0.4498 0.8652 0.0432
H86 H 0.3971 0.8246 0.0311
O14 O 0.5143(2) 0.56670(13) 0.55843(18)
H87 H 0.4904 0.5389 0.5675
H88 H 0.5312 0.5618 0.5206
O15 O 0.2328(3) 0.0918(2) -0.0494(2)
H89 H 0.1989 0.1138 -0.0408
H90 H 0.2618 0.1068 -0.0746
O16 O 0.4373(3) 0.2312(2) -0.1014(2)
H91 H 0.4364 0.2538 -0.0697
H92 H 0.4723 0.2088 -0.0888
O17 O 0.28107(19) 0.89688(12) 0.42122(17)
H93 H 0.2594 0.9134 0.4508
H94 H 0.3123 0.8747 0.4418
O18 O 0.06299(19) 0.55100(15) 0.0374(3)
H95 H 0.0744 0.5189 0.0299
H96 H 0.0158 0.5553 0.0240
O19 O 0.38618(19) 0.67710(14) -0.0074(2)
H97 H 0.4326 0.6836 -0.0111
H98 H 0.3639 0.7064 -0.0019
O20 O 0.4834(2) 0.61041(13) 0.35642(18)
H99 H 0.4370 0.6041 0.3598
H100 H 0.4960 0.6390 0.3780
O21 O 0.21238(18) 0.94933(12) 0.51788(17)
H101 H 0.2210 0.9817 0.5286
H102 H 0.1660 0.9428 0.5216
O22 O 0.44253(19) 0.46772(13) 0.56590(18)
H103 H 0.4612 0.4422 0.5908
H104 H 0.3944 0.4673 0.5647
O23 O 0.2853(2) 0.02460(14) 0.0541(2)
H105 H 0.2636 0.0394 0.0181
H106 H 0.2721 -0.0079 0.0539
O24 O 0.26384(18) -0.08093(12) 0.08216(17)
H107 H 0.2251 -0.0917 0.0994
H108 H 0.2679 -0.0996 0.0470
loop_
_geom_bond_atom_site_label_1
_geom_bond_atom_site_label_2
_geom_bond_site_symmetry_1
_geom_bond_site_symmetry_2
Ag1 Ag2 1_555 1_555
Ag2 N3 1_555 1_555
Ag3 Ag4 1_555 1_555
Ag4 N7 1_555 1_555
C1 H1 1_555 1_555
C2 C1 1_555 1_555
H2 C2 1_555 1_555
C3 C2 1_555 1_555
C4 C3 1_555 1_555
H3 C4 1_555 1_555
C5 C4 1_555 1_555
H4 C5 1_555 1_555
C6 C3 1_555 1_555
H5 C6 1_555 1_555
H6 C6 1_555 1_555
C7 C6 1_555 1_555
H7 C7 1_555 1_555
H8 C7 1_555 1_555
C8 C7 1_555 1_555
H9 C8 1_555 1_555
H10 C8 1_555 1_555
C9 C8 1_555 1_555
C10 C9 1_555 1_555
H11 C10 1_555 1_555
C11 C10 1_555 1_555
H12 C11 1_555 1_555
C12 H13 1_555 1_555
C13 C9 1_555 1_555
H14 C13 1_555 1_555
C14 H15 1_555 1_555
C15 C14 1_555 1_555
H16 C15 1_555 1_555
C16 H17 1_555 1_555
C17 C16 1_555 1_555
H18 C17 1_555 1_555
C18 C15 1_555 1_555
C19 C18 1_555 1_555
H19 C19 1_555 1_555
H20 C19 1_555 1_555
C20 H21 1_555 1_555
C21 C20 1_555 1_555
H22 C21 1_555 1_555
C22 C21 1_555 1_555
C23 C22 1_555 1_555
H23 C23 1_555 1_555
C24 C23 1_555 1_555
H24 C24 1_555 1_555
C25 C22 1_555 1_555
H25 C25 1_555 1_555
H26 C25 1_555 1_555
C26 C25 1_555 1_555
H27 C26 1_555 1_555
H28 C26 1_555 1_555
C27 C26 1_555 1_555
H29 C27 1_555 1_555
H30 C27 1_555 1_555
C28 C27 1_555 1_555
C29 C28 1_555 1_555
H31 C29 1_555 1_555
C30 C29 1_555 1_555
H32 C30 1_555 1_555
C31 H33 1_555 1_555
C32 C28 1_555 1_555
H34 C32 1_555 1_555
C33 H35 1_555 1_555
C34 C33 1_555 1_555
H36 C34 1_555 1_555
C35 C34 1_555 1_555
C36 C35 1_555 1_555
H37 C36 1_555 1_555
C37 C36 1_555 1_555
H38 C37 1_555 1_555
C38 C35 1_555 1_555
H39 C38 1_555 1_555
H40 C38 1_555 1_555
C39 C19 1_555 1_555
H41 C39 1_555 1_555
H42 C39 1_555 1_555
C40 H43 1_555 1_555
C41 C40 1_555 1_555
H44 C41 1_555 1_555
C42 C41 1_555 1_555
C43 C42 1_555 1_555
H45 C43 1_555 1_555
C44 C43 1_555 1_555
H46 C44 1_555 1_555
C45 C42 1_555 1_555
H47 C45 1_555 1_555
H48 C45 1_555 1_555
C46 C45 1_555 1_555
H49 C46 1_555 1_555
H50 C46 1_555 1_555
C47 C46 1_555 1_555
H51 C47 1_555 1_555
H52 C47 1_555 1_555
C48 C47 1_555 1_555
C49 C48 1_555 1_555
H53 C49 1_555 1_555
C50 C48 1_555 1_555
H54 C50 1_555 1_555
C51 C50 1_555 1_555
H55 C51 1_555 1_555
C52 C49 1_555 1_555
H56 C52 1_555 1_555
C53 C54 1_555 1_555
C54 C55 1_555 1_555
C55 H57 1_555 1_555
C56 C55 1_555 1_555
H58 C56 1_555 1_555
C57 C56 1_555 1_555
H59 C57 1_555 1_555
C58 C57 1_555 1_555
H60 C58 1_555 1_555
C59 C54 1_555 1_555
C60 C59 1_555 1_555
C61 C60 1_555 1_555
H61 C61 1_555 1_555
C62 C61 1_555 1_555
H62 C62 1_555 1_555
C63 C62 1_555 1_555
H63 C63 1_555 1_555
C64 C63 1_555 1_555
H64 C64 1_555 1_555
C65 C60 1_555 1_555
C66 C65 1_555 1_555
C67 C68 1_555 1_555
C68 C69 1_555 1_555
C69 H65 1_555 1_555
C70 C69 1_555 1_555
H66 C70 1_555 1_555
C71 C70 1_555 1_555
H67 C71 1_555 1_555
C72 C71 1_555 1_555
H68 C72 1_555 1_555
C73 C68 1_555 1_555
C74 C73 1_555 1_555
C75 C74 1_555 1_555
H69 C75 1_555 1_555
C76 C75 1_555 1_555
H70 C76 1_555 1_555
C77 C76 1_555 1_555
H71 C77 1_555 1_555
C78 C77 1_555 1_555
H72 C78 1_555 1_555
C79 C74 1_555 1_555
C80 C79 1_555 1_555
N1 Ag1 1_555 1_555
N2 C14 1_555 1_555
N3 C20 1_555 1_555
N4 C30 1_555 1_555
N5 Ag3 1_555 1_555
N6 Ag3 1_555 1_555
N7 C40 1_555 1_555
N8 C51 1_555 1_555
O1 Ag1 1_555 1_555
O2 C53 1_555 1_555
O3 Ag1 1_555 1_555
O4 C66 1_555 1_555
O5 Ag4 1_555 1_555
O6 Ag4 1_555 1_555
O7 C80 1_555 1_555
O8 C80 1_555 1_555
C81 H73 1_555 1_555
H74 C81 1_555 1_555
H75 C81 1_555 1_555
O9 C81 1_555 1_555
H76 O9 1_555 1_555
C82 H77 1_555 1_555
H78 C82 1_555 1_555
H79 C82 1_555 1_555
O10 C82 1_555 1_555
H80 O10 1_555 1_555
O11 H81 1_555 1_555
H82 O11 1_555 1_555
O12 H83 1_555 1_555
H84 O12 1_555 1_555
O13 H85 1_555 1_555
H86 O13 1_555 1_555
O14 H87 1_555 1_555
H88 O14 1_555 1_555
O15 H89 1_555 1_555
H90 O15 1_555 1_555
O16 H91 1_555 1_555
H92 O16 1_555 1_555
O17 H93 1_555 1_555
H94 O17 1_555 1_555
O18 H95 1_555 1_555
H96 O18 1_555 1_555
O19 H97 1_555 1_555
H98 O19 1_555 1_555
O20 H99 1_555 1_555
H100 O20 1_555 1_555
O21 H101 1_555 1_555
H102 O21 1_555 1_555
O22 H103 1_555 1_555
H104 O22 1_555 1_555
O23 H105 1_555 1_555
H106 O23 1_555 1_555
O24 H107 1_555 1_555
H108 O24 1_555 1_555
Ag1_2 N2 1_555 1_555
Ag2A N4 1_555 1_555
Ag4A N8 1_555 1_555
N2_2 Ag1 1_555 1_555
N4A Ag2 1_555 1_555
N8A Ag4 1_555 1_555
Ag2 O3 1_555 1_555
C1 N1 1_555 1_555
C5 N1 1_555 1_555
C11 N5 1_555 1_555
C12 C13 1_555 1_555
C12 N5 1_555 1_555
C16 C18 1_555 1_555
C17 N2 1_555 1_555
C24 N3 1_555 1_555
C31 C32 1_555 1_555
C31 N4 1_555 1_555
C33 N6 1_555 1_555
C37 N6 1_555 1_555
C38 C39 1_555 1_555
C44 N7 1_555 1_555
C52 N8 1_555 1_555
C53 O1 1_555 1_555
C58 C59 1_555 1_555
C64 C65 1_555 1_555
C66 O3 1_555 1_555
C67 O5 1_555 1_555
C67 O6 1_555 1_555
C72 C73 1_555 1_555
C78 C79 1_555 1_555

#END
