
#######################################################################
#
#                 Cambridge Crystallographic Data Centre
#                                CCDC 
#
#######################################################################
#
# If this CIF has been generated from an entry in the Cambridge 
# Structural Database, then it will include bibliographic, chemical, 
# crystal, experimental, refinement or atomic coordinate data resulting 
# from the CCDC's data processing and validation procedures.
#
#######################################################################

data_VEYREX
_symmetry_cell_setting           monoclinic
_symmetry_space_group_name_H-M   'C 2/c'
_symmetry_Int_Tables_number      15
_space_group_name_Hall           '-C 2yn'
loop_
_symmetry_equiv_pos_site_id
_symmetry_equiv_pos_as_xyz
1 x,y,z
2 1/2+x,1/2+y,z
3 -x,y,1/2-z
4 1/2-x,1/2+y,1/2-z
5 -x,-y,-z
6 1/2-x,1/2-y,-z
7 x,-y,1/2+z
8 1/2+x,1/2-y,1/2+z
_cell_length_a                   16.4190(3)
_cell_length_b                   17.0880(3)
_cell_length_c                   12.1130(2)
_cell_angle_alpha                90
_cell_angle_beta                 95.1070(10)
_cell_angle_gamma                90
_cell_volume                     3385.03
loop_
_atom_site_label
_atom_site_type_symbol
_atom_site_fract_x
_atom_site_fract_y
_atom_site_fract_z
Co1 Co 0.38328(4) 0.14570(4) 0.06142(4)
N1 N 0.2527(3) 0.1475(2) 0.0293(3)
N2 N 0.1433(2) 0.2319(2) -0.0303(3)
N3 N 0.5110(2) 0.1646(2) 0.1040(3)
N4 N 0.6095(2) 0.1648(3) 0.2597(3)
N5 N 0.3869(3) 0.0284(3) 0.1065(4)
N6 N 0.4000(3) -0.0963(3) 0.2015(3)
N7 N 0.3979(3) -0.1257(3) 0.3980(3)
C1 C 0.2199(3) 0.2152(3) -0.0001(3)
C2 C 0.2007(3) 0.0872(3) 0.0275(5)
H2 H 0.2203(3) 0.0377(3) 0.0475(5)
C3 C 0.1189(4) 0.0970(4) -0.0033(6)
H3 H 0.0828(4) 0.0551(4) -0.0042(6)
C4 C 0.0920(3) 0.1711(3) -0.0328(5)
H4 H 0.0369(3) 0.1790(3) -0.0550(5)
C5 C 0.5347(3) 0.1648(3) 0.2117(3)
C6 C 0.6694(3) 0.1636(4) 0.1916(4)
H6 H 0.7236(3) 0.1625(4) 0.2212(4)
C7 C 0.6518(3) 0.1641(4) 0.0778(5)
H7 H 0.6934(3) 0.1635(4) 0.0305(5)
C8 C 0.5712(3) 0.1655(4) 0.0365(4)
H8 H 0.5582(3) 0.1671(4) -0.0398(4)
C9 C 0.3928(3) -0.0282(3) 0.1569(4)
C10 C 0.3970(3) -0.1082(3) 0.3064(4)
Co1E Co 0.11672(4) 0.35430(4) -0.06142(4)
Co1B Co 0.61672(4) 0.14570(4) 0.43858(4)
Co1F Co 0.38328(4) -0.14570(4) 0.56142(4)
Co1F_2 Co 0.38328(4) -0.14570(4) -0.43858(4)
N1E N 0.2473(3) 0.3525(2) -0.0293(3)
N2E N 0.3567(2) 0.2681(2) 0.0303(3)
N3B N 0.4890(2) 0.1646(2) 0.3960(3)
N3E N -0.0110(2) 0.3354(2) -0.1040(3)
N4B N 0.3905(2) 0.1648(3) 0.2403(3)
N4G N 0.1095(2) 0.3352(3) -0.2403(3)
N5F N 0.3869(3) -0.0284(3) -0.3935(4)
N5E N 0.1131(3) 0.4716(3) -0.1065(4)
N6F N 0.4000(3) 0.0963(3) -0.2985(3)
N7F N 0.3979(3) 0.1257(3) -0.1020(3)
N7C N 0.1021(3) 0.3743(3) 0.1020(3)
C1E C 0.2801(3) 0.2848(3) 0.0001(3)
C2E C 0.2993(3) 0.4128(3) -0.0275(5)
H2E H 0.2797(3) 0.4623(3) -0.0475(5)
C3E C 0.3811(4) 0.4030(4) 0.0033(6)
H3E H 0.4172(4) 0.4449(4) 0.0042(6)
C4E C 0.4080(3) 0.3289(3) 0.0328(5)
H4E H 0.4631(3) 0.3210(3) 0.0550(5)
C5B C 0.4653(3) 0.1648(3) 0.2883(3)
C6B C 0.3306(3) 0.1636(4) 0.3084(4)
H6B H 0.2764(3) 0.1625(4) 0.2788(4)
C7B C 0.3482(3) 0.1641(4) 0.4222(5)
H7B H 0.3066(3) 0.1635(4) 0.4695(5)
C8B C 0.4288(3) 0.1655(4) 0.4635(4)
H8B H 0.4418(3) 0.1671(4) 0.5398(4)
C9F C 0.3928(3) 0.0282(3) -0.3431(4)
C10F C 0.3970(3) 0.1082(3) -0.1936(4)
Cl1 Cl 0.16217(15) 0.1173(2) 0.6761(2)
O1 O 0.2168(5) 0.1642(6) 0.7524(8)
O2 O 0.1735(7) 0.0428(5) 0.7227(8)
O3 O 0.0874(4) 0.1541(5) 0.6881(7)
O4 O 0.1915(6) 0.1194(6) 0.5748(7)
O5 O 0.0000 -0.0259(12) 0.7500
O6 O 0.3526(17) 0.2828(17) 0.7440(25)
O7 O 0.5076(35) 0.2903(25) 0.8083(37)
C11 C 0.5728(32) 0.3537(27) 0.8759(46)
H9 H 0.5875(32) 0.3330(27) 0.9486(46)
H10 H 0.5457(32) 0.4031(27) 0.8820(46)
H11 H 0.6213(32) 0.3609(27) 0.8381(46)
H1? H 0.2428(3) 0.2414(3) -0.0013(3)
H5? H 0.4916(3) 0.1652(3) 0.2604(3)
loop_
_geom_bond_atom_site_label_1
_geom_bond_atom_site_label_2
_geom_bond_site_symmetry_1
_geom_bond_site_symmetry_2
Co1 N1 1_555 1_555
N1 C1 1_555 1_555
N2 C1 1_555 1_555
N3 Co1 1_555 1_555
N4 C5 1_555 1_555
N5 Co1 1_555 1_555
N6 C9 1_555 1_555
N7 C10 1_555 1_555
C1 C1E 1_555 1_555
C2 N1 1_555 1_555
H2 C2 1_555 1_555
C3 C2 1_555 1_555
H3 C3 1_555 1_555
C4 N2 1_555 1_555
H4 C4 1_555 1_555
C5 N3 1_555 1_555
C6 N4 1_555 1_555
H6 C6 1_555 1_555
C7 C6 1_555 1_555
H7 C7 1_555 1_555
C8 N3 1_555 1_555
H8 C8 1_555 1_555
C9 N5 1_555 1_555
C10 N6 1_555 1_555
Cl1 O1 1_555 1_555
O2 Cl1 1_555 1_555
O3 Cl1 1_555 1_555
O4 Cl1 1_555 1_555
O7 C11 1_555 1_555
C11 H9 1_555 1_555
H10 C11 1_555 1_555
H11 C11 1_555 1_555
Co1E N2 1_555 1_555
Co1B N4 1_555 1_555
Co1F N7 1_555 1_555
Co1F_2 N5F 1_555 1_555
N1E Co1E 1_555 1_555
N2E Co1 1_555 1_555
N3B Co1B 1_555 1_555
N3E Co1E 1_555 1_555
N4B Co1 1_555 1_555
N4G Co1E 1_555 1_555
N5F C9F 1_555 1_555
N5E Co1E 1_555 1_555
N6F C9F 1_555 1_555
N7F Co1 1_555 1_555
N7C Co1E 1_555 1_555
C1E N1E 1_555 1_555
C2E N1E 1_555 1_555
H2E C2E 1_555 1_555
C3E C2E 1_555 1_555
H3E C3E 1_555 1_555
C4E N2E 1_555 1_555
H4E C4E 1_555 1_555
C5B C5 1_555 1_555
C6B N4B 1_555 1_555
H6B C6B 1_555 1_555
C7B C6B 1_555 1_555
H7B C7B 1_555 1_555
C8B N3B 1_555 1_555
H8B C8B 1_555 1_555
C10F N6F 1_555 1_555
C3 C4 1_555 1_555
C7 C8 1_555 1_555
N2E C1E 1_555 1_555
N3B C5B 1_555 1_555
N4B C5B 1_555 1_555
N7F C10F 1_555 1_555
C3E C4E 1_555 1_555
C7B C8B 1_555 1_555

#END
