
#######################################################################
#
#                 Cambridge Crystallographic Data Centre
#                                CCDC 
#
#######################################################################
#
# If this CIF has been generated from an entry in the Cambridge 
# Structural Database, then it will include bibliographic, chemical, 
# crystal, experimental, refinement or atomic coordinate data resulting 
# from the CCDC's data processing and validation procedures.
#
#######################################################################

data_VEYTOK
_symmetry_cell_setting           triclinic
_symmetry_space_group_name_H-M   'P -1'
_symmetry_Int_Tables_number      2
_space_group_name_Hall           '-P 1'
loop_
_symmetry_equiv_pos_site_id
_symmetry_equiv_pos_as_xyz
1 x,y,z
2 -x,-y,-z
_cell_length_a                   11.4215(12)
_cell_length_b                   13.8731(15)
_cell_length_c                   20.777(2)
_cell_angle_alpha                98.208(2)
_cell_angle_beta                 99.762(2)
_cell_angle_gamma                108.660(2)
_cell_volume                     3004.72
loop_
_atom_site_label
_atom_site_type_symbol
_atom_site_fract_x
_atom_site_fract_y
_atom_site_fract_z
Co1 Co 0.64544(6) -0.41464(4) 0.41745(3)
Co2 Co 0.30529(6) -0.09719(4) 0.73806(3)
Co3 Co 0.02842(6) 0.25959(4) 0.09910(3)
N1 N 0.7983(3) -0.2660(3) 0.44388(17)
N2 N 0.3224(5) -0.0665(4) 0.3871(2)
N3 N 0.2837(5) -0.0011(4) 0.4038(2)
N4 N 0.1808(4) 0.4064(3) 0.13523(17)
N5 N 0.5530(3) 0.9444(3) 0.24077(18)
N6 N -0.3890(4) 0.6294(3) 0.08537(18)
N7 N -0.3786(4) 0.6260(3) 0.02635(18)
N8 N -0.0044(4) 0.2560(3) -0.29025(18)
N9 N -0.0442(4) 0.3300(3) -0.28319(18)
O1 O 0.4937(4) -0.5555(3) 0.39534(18)
H1 H 0.481(6) -0.576(5) 0.419(3)
H2 H 0.486(5) -0.609(4) 0.360(3)
O2 O 0.5232(3) -0.3300(2) 0.39455(14)
O3 O 0.5628(3) -0.3522(2) 0.49748(14)
O4 O 0.3886(3) -0.1674(2) 0.66903(15)
O5 O 0.2666(3) -0.0834(2) 0.63382(14)
O6 O 0.1454(4) -0.2367(3) 0.7201(2)
H3 H 0.101(6) -0.231(5) 0.744(3)
H4 H 0.167(5) -0.295(4) 0.713(3)
O7 O 0.1307(4) 0.1656(3) 0.13361(17)
O8 O 0.0373(3) 0.2309(3) 0.20193(16)
O9 O -0.1336(4) 0.1302(3) 0.0528(2)
H5 H -0.1830 0.1115 0.0786
H6 H -0.1169 0.0790 0.0343
O10 O -0.0939(3) 0.3375(2) 0.11694(15)
O11 O -0.1338(4) 0.4050(3) 0.02840(16)
H7 H -0.0952 0.3699 0.0132
O12 O -0.2365(4) 0.4415(3) 0.31446(15)
H8 H -0.2393 0.4458 0.3539
O13 O -0.3261(3) 0.5632(2) 0.32181(14)
O14 O -0.6008(4) 0.8535(3) -0.18625(16)
O15 O -0.6333(4) 0.9277(3) -0.09344(19)
O16 O 0.0667(3) 0.2487(2) 0.00497(14)
O17 O -0.0709(4) 0.3043(3) -0.05378(16)
O18 O 0.2720(4) 0.0507(3) -0.12424(16)
H9 H 0.2940 -0.0002 -0.1254
O19 O 0.1873(3) -0.0179(2) -0.23294(15)
O20 O -0.1914(4) 0.4113(3) -0.57352(16)
O21 O -0.2449(4) 0.5323(3) -0.51703(15)
C1 C 0.8865(5) -0.2333(4) 0.5003(2)
H10 H 0.8931 -0.2817 0.5260
C2 C 0.9700(5) -0.1312(4) 0.5237(2)
H11 H 1.0320 -0.1138 0.5630
C3 C 0.9606(4) -0.0549(3) 0.4880(2)
C4 C 0.8705(5) -0.0905(4) 0.4268(2)
H12 H 0.8612 -0.0444 0.3997
C5 C 0.7959(5) -0.1944(4) 0.4074(2)
H13 H 0.7397 -0.2164 0.3657
C6 C 0.5140(4) -0.3114(3) 0.4549(2)
C7 C 0.4502(4) -0.2364(3) 0.4745(2)
C8 C 0.4305(4) -0.2172(3) 0.5384(2)
H14 H 0.4581 -0.2508 0.5703
C9 C 0.3692(4) -0.1475(3) 0.5553(2)
C10 C 0.3330(4) -0.0950(3) 0.5083(2)
H15 H 0.2939 -0.0476 0.5195
C11 C 0.3547(5) -0.1128(4) 0.4445(2)
C12 C 0.4123(4) -0.1842(4) 0.4277(2)
H16 H 0.4254 -0.1969 0.3848
C13 C 0.3403(4) -0.1319(3) 0.6227(2)
C14 C 0.2458(6) 0.0444(5) 0.3457(3)
C15 C 0.2449(6) 0.0048(4) 0.2814(3)
H17 H 0.2731 -0.0505 0.2722
C16 C 0.2002(6) 0.0492(4) 0.2276(3)
H18 H 0.2021 0.0249 0.1839
C17 C 0.1547(4) 0.1285(4) 0.2429(2)
C18 C 0.1589(7) 0.1641(6) 0.3098(3)
H19 H 0.1288 0.2177 0.3209
C19 C 0.2062(8) 0.1224(6) 0.3600(3)
H20 H 0.2101 0.1496 0.4042
C20 C 0.1037(4) 0.1764(4) 0.1900(2)
C21 C 0.1934(5) 0.4737(4) 0.0943(2)
H21 H 0.1500 0.4487 0.0498
C22 C 0.2666(5) 0.5770(4) 0.1143(2)
H22 H 0.2716 0.6200 0.0836
C23 C 0.3332(4) 0.6179(3) 0.1802(2)
C24 C 0.3271(5) 0.5482(4) 0.2223(2)
H23 H 0.3734 0.5709 0.2664
C25 C 0.2512(5) 0.4446(4) 0.1980(2)
H24 H 0.2488 0.3989 0.2269
C26 C 0.4063(4) 0.7311(3) 0.2028(2)
C27 C 0.3755(5) 0.8037(4) 0.1703(3)
H25 H 0.3043 0.7822 0.1352
C28 C 0.4507(5) 0.9077(4) 0.1902(2)
H26 H 0.4289 0.9545 0.1672
C29 C 0.5788(5) 0.8749(4) 0.2740(2)
H27 H 0.6473 0.8993 0.3108
C30 C 0.5103(5) 0.7699(4) 0.2571(2)
H28 H 0.5332 0.7251 0.2818
C31 C -0.1403(4) 0.3932(3) 0.0877(2)
C32 C -0.2087(4) 0.4536(3) 0.1211(2)
C33 C -0.2142(4) 0.4527(3) 0.1876(2)
H29 H -0.1755 0.4141 0.2107
C34 C -0.2768(4) 0.5090(3) 0.2198(2)
C35 C -0.3333(4) 0.5668(3) 0.1850(2)
H30 H -0.3748 0.6051 0.2062
C36 C -0.3284(4) 0.5678(3) 0.1185(2)
C37 C -0.2654(4) 0.5105(3) 0.0864(2)
H31 H -0.2620 0.5111 0.0421
C38 C -0.2805(4) 0.5053(3) 0.2909(2)
C39 C -0.4350(4) 0.6874(3) -0.0090(2)
C40 C -0.4910(5) 0.7529(4) 0.0202(2)
H32 H -0.4942 0.7584 0.0650
C41 C -0.5413(5) 0.8094(4) -0.0183(2)
H33 H -0.5777 0.8539 0.0010
C42 C -0.5387(4) 0.8012(3) -0.0855(2)
C43 C -0.4836(5) 0.7364(4) -0.1141(2)
H34 H -0.4814 0.7305 -0.1590
C44 C -0.4315(5) 0.6801(4) -0.0759(2)
H35 H -0.3936 0.6368 -0.0952
C45 C -0.5954(4) 0.8635(4) -0.1252(2)
C46 C 0.0110(5) 0.2607(3) -0.0484(2)
C47 C 0.0398(4) 0.2231(3) -0.1135(2)
C48 C 0.0007(4) 0.2571(3) -0.1697(2)
H36 H -0.0434 0.3029 -0.1674
C49 C 0.0272(4) 0.2228(3) -0.2300(2)
C50 C 0.0888(4) 0.1502(3) -0.2338(2)
H37 H 0.1029 0.1244 -0.2744
C51 C 0.1287(4) 0.1169(3) -0.1773(2)
C52 C 0.1059(4) 0.1541(3) -0.1165(2)
H38 H 0.1346 0.1332 -0.0781
C53 C 0.1988(4) 0.0423(3) -0.1804(2)
C54 C -0.0763(4) 0.3635(4) -0.3435(2)
C55 C -0.1195(6) 0.4457(4) -0.3388(2)
H39 H -0.1230 0.4782 -0.2972
C56 C -0.1575(6) 0.4803(4) -0.3951(2)
H40 H -0.1871 0.5355 -0.3913
C57 C -0.1515(4) 0.4323(3) -0.4574(2)
C58 C -0.1047(4) 0.3505(4) -0.4613(2)
H41 H -0.0983 0.3189 -0.5026
C59 C -0.0678(4) 0.3158(4) -0.4049(2)
H42 H -0.0376 0.2609 -0.4081
C60 C -0.1998(4) 0.4632(3) -0.5196(2)
N1A N 1.2017(3) 0.2660(3) 0.55612(17)
C1A C 1.1135(5) 0.2333(4) 0.4997(2)
H10A H 1.1069 0.2817 0.4740
C2A C 1.0300(5) 0.1312(4) 0.4763(2)
H11A H 0.9680 0.1138 0.4370
C3A C 1.0394(4) 0.0549(3) 0.5120(2)
C4A C 1.1295(5) 0.0905(4) 0.5732(2)
H12A H 1.1388 0.0444 0.6003
C5A C 1.2041(5) 0.1944(4) 0.5926(2)
H13A H 1.2603 0.2164 0.6343
Co1A Co 0.35456(6) 1.41464(4) 0.58255(3)
Co2A Co 0.69471(6) 1.09719(4) 0.26194(3)
Co3A Co 0.97158(6) 0.74041(4) 0.90090(3)
N2A N 0.6776(5) 1.0665(4) 0.6129(2)
N3A N 0.7163(5) 1.0011(4) 0.5962(2)
N4A N 0.8192(4) 0.5936(3) 0.86477(17)
N5A N 0.4470(3) 0.0556(3) 0.75923(18)
N6A N 1.3890(4) 0.3706(3) 0.91463(18)
N7A N 1.3786(4) 0.3740(3) 0.97365(18)
N8A N 1.0044(4) 0.7440(3) 1.29025(18)
N9A N 1.0442(4) 0.6700(3) 1.28319(18)
O1A O 0.5063(4) 1.5555(3) 0.60466(18)
H1A H 0.519(6) 1.576(5) 0.581(3)
H2A H 0.514(5) 1.609(4) 0.640(3)
O2A O 0.4768(3) 1.3300(2) 0.60545(14)
O3A O 0.4372(3) 1.3522(2) 0.50252(14)
O4A O 0.6114(3) 1.1674(2) 0.33097(15)
O5A O 0.7334(3) 1.0834(2) 0.36618(14)
O6A O 0.8546(4) 1.2367(3) 0.2799(2)
H3A H 0.899(6) 1.231(5) 0.256(3)
H4A H 0.833(5) 1.295(4) 0.287(3)
O7A O 0.8693(4) 0.8344(3) 0.86639(17)
O8A O 0.9627(3) 0.7691(3) 0.79807(16)
O9A O 1.1336(4) 0.8698(3) 0.9472(2)
H5A H 1.1830 0.8885 0.9214
H6A H 1.1169 0.9210 0.9657
O10A O 1.0939(3) 0.6625(2) 0.88306(15)
O11A O 1.1338(4) 0.5950(3) 0.97160(16)
H7A H 1.0952 0.6301 0.9868
O12A O 1.2365(4) 0.5585(3) 0.68554(15)
H8A H 1.2393 0.5542 0.6461
O13A O 1.3261(3) 0.4368(2) 0.67819(14)
O14A O 1.6008(4) 0.1465(3) 1.18625(16)
O15A O 1.6333(4) 0.0723(3) 1.09344(19)
O16A O 0.9333(3) 0.7513(2) 0.99503(14)
O17A O 1.0709(4) 0.6957(3) 1.05378(16)
O18A O 0.7280(4) 0.9493(3) 1.12424(16)
H9A H 0.7060 1.0002 1.1254
O19A O 0.8127(3) 1.0179(2) 1.23294(15)
O20A O 1.1914(4) 0.5887(3) 1.57352(16)
O21A O 1.2449(4) 0.4677(3) 1.51703(15)
C6A C 0.4860(4) 1.3114(3) 0.5451(2)
C7A C 0.5498(4) 1.2364(3) 0.5255(2)
C8A C 0.5695(4) 1.2172(3) 0.4616(2)
H14A H 0.5419 1.2508 0.4297
C9A C 0.6308(4) 1.1475(3) 0.4447(2)
C10A C 0.6670(4) 1.0950(3) 0.4917(2)
H15A H 0.7061 1.0476 0.4805
C11A C 0.6453(5) 1.1128(4) 0.5555(2)
C12A C 0.5877(4) 1.1842(4) 0.5723(2)
H16A H 0.5746 1.1969 0.6152
C13A C 0.6597(4) 1.1319(3) 0.3773(2)
C14A C 0.7542(6) 0.9556(5) 0.6543(3)
C15A C 0.7551(6) 0.9952(4) 0.7186(3)
H17A H 0.7269 1.0505 0.7278
C16A C 0.7998(6) 0.9508(4) 0.7724(3)
H18A H 0.7979 0.9751 0.8161
C17A C 0.8453(4) 0.8715(4) 0.7571(2)
C18A C 0.8411(7) 0.8359(6) 0.6902(3)
H19A H 0.8712 0.7823 0.6791
C19A C 0.7938(8) 0.8776(6) 0.6400(3)
H20A H 0.7899 0.8504 0.5958
C20A C 0.8963(4) 0.8236(4) 0.8100(2)
C21A C 0.8066(5) 0.5263(4) 0.9057(2)
H21A H 0.8500 0.5513 0.9502
C22A C 0.7334(5) 0.4230(4) 0.8857(2)
H22A H 0.7284 0.3800 0.9164
C23A C 0.6668(4) 0.3821(3) 0.8198(2)
C24A C 0.6729(5) 0.4518(4) 0.7777(2)
H23A H 0.6266 0.4291 0.7336
C25A C 0.7488(5) 0.5554(4) 0.8020(2)
H24A H 0.7512 0.6011 0.7731
C26A C 0.5937(4) 0.2689(3) 0.7972(2)
C27A C 0.6245(5) 0.1963(4) 0.8297(3)
H25A H 0.6957 0.2178 0.8648
C28A C 0.5493(5) 0.0923(4) 0.8098(2)
H26A H 0.5711 0.0455 0.8328
C29A C 0.4212(5) 0.1251(4) 0.7260(2)
H27A H 0.3527 0.1007 0.6892
C30A C 0.4897(5) 0.2301(4) 0.7429(2)
H28A H 0.4668 0.2749 0.7182
C31A C 1.1403(4) 0.6068(3) 0.9123(2)
C32A C 1.2087(4) 0.5464(3) 0.8789(2)
C33A C 1.2142(4) 0.5473(3) 0.8124(2)
H29A H 1.1755 0.5859 0.7893
C34A C 1.2768(4) 0.4910(3) 0.7802(2)
C35A C 1.3333(4) 0.4332(3) 0.8150(2)
H30A H 1.3748 0.3949 0.7938
C36A C 1.3284(4) 0.4322(3) 0.8815(2)
C37A C 1.2654(4) 0.4895(3) 0.9136(2)
H31A H 1.2620 0.4889 0.9579
C38A C 1.2805(4) 0.4947(3) 0.7091(2)
C39A C 1.4350(4) 0.3126(3) 1.0090(2)
C40A C 1.4910(5) 0.2471(4) 0.9798(2)
H32A H 1.4942 0.2416 0.9350
C41A C 1.5413(5) 0.1906(4) 1.0183(2)
H33A H 1.5777 0.1461 0.9990
C42A C 1.5387(4) 0.1988(3) 1.0855(2)
C43A C 1.4836(5) 0.2636(4) 1.1141(2)
H34A H 1.4814 0.2695 1.1590
C44A C 1.4315(5) 0.3199(4) 1.0759(2)
H35A H 1.3936 0.3632 1.0952
C45A C 1.5954(4) 0.1365(4) 1.1252(2)
C46A C 0.9890(5) 0.7393(3) 1.0484(2)
C47A C 0.9602(4) 0.7769(3) 1.1135(2)
C48A C 0.9993(4) 0.7429(3) 1.1697(2)
H36A H 1.0434 0.6971 1.1674
C49A C 0.9728(4) 0.7772(3) 1.2300(2)
C50A C 0.9112(4) 0.8498(3) 1.2338(2)
H37A H 0.8971 0.8756 1.2744
C51A C 0.8713(4) 0.8831(3) 1.1773(2)
C52A C 0.8941(4) 0.8459(3) 1.1165(2)
H38A H 0.8654 0.8668 1.0781
C53A C 0.8012(4) 0.9577(3) 1.1804(2)
C54A C 1.0763(4) 0.6365(4) 1.3435(2)
C55A C 1.1195(6) 0.5543(4) 1.3388(2)
H39A H 1.1230 0.5218 1.2972
C56A C 1.1575(6) 0.5197(4) 1.3951(2)
H40A H 1.1871 0.4645 1.3913
C57A C 1.1515(4) 0.5677(3) 1.4574(2)
C58A C 1.1047(4) 0.6495(4) 1.4613(2)
H41A H 1.0983 0.6811 1.5026
C59A C 1.0678(4) 0.6842(4) 1.4049(2)
H42A H 1.0376 0.7391 1.4081
C60A C 1.1998(4) 0.5368(3) 1.5196(2)
Co1_2 Co -0.35456(6) 0.58536(4) -0.58255(3)
Co1_3 Co -0.35456(6) 0.58536(4) 0.41745(3)
Co1A_2 Co 1.35456(6) 0.41464(4) 0.58255(3)
Co1A_3 Co 1.35456(6) 0.41464(4) 1.58255(3)
Co2_2 Co -0.69471(6) 0.90281(4) -0.26194(3)
Co2_3 Co 0.30529(6) -0.09719(4) -0.26194(3)
Co2A_2 Co 0.69471(6) 1.09719(4) 1.26194(3)
Co2A_3 Co 1.69471(6) 0.09719(4) 1.26194(3)
N1A_2 N 0.2017(3) 1.2660(3) 0.55612(17)
O13_2 O 0.6739(3) -0.4368(2) 0.32181(14)
O13A_2 O 0.3261(3) 1.4368(2) 0.67819(14)
O14_2 O 0.3992(4) -0.1465(3) 0.81375(16)
O14A_2 O 0.6008(4) 1.1465(3) 0.18625(16)
O19_2 O 0.1873(3) -0.0179(2) 0.76706(15)
O19A_2 O 0.8127(3) 1.0179(2) 0.23294(15)
O21_2 O 0.7551(4) -0.4677(3) 0.48297(15)
O21A_2 O 0.2449(4) 1.4677(3) 0.51703(15)
O22 O 0.4690(4) 0.2891(3) 0.28986(18)
O23 O -0.2024(8) -0.0423(5) -0.0412(4)
loop_
_geom_bond_atom_site_label_1
_geom_bond_atom_site_label_2
_geom_bond_site_symmetry_1
_geom_bond_site_symmetry_2
Co1 N1 1_555 1_555
Co2 O4 1_555 1_555
Co3 N4 1_555 1_555
N1 C1 1_555 1_555
N2 N3 1_555 1_555
N3 C14 1_555 1_555
N4 C21 1_555 1_555
N5 C28 1_555 1_555
N6 N7 1_555 1_555
N7 C39 1_555 1_555
N8 N9 1_555 1_555
N9 C54 1_555 1_555
O1 Co1 1_555 1_555
H1 O1 1_555 1_555
H2 O1 1_555 1_555
O2 Co1 1_555 1_555
O3 Co1 1_555 1_555
O4 C13 1_555 1_555
O5 Co2 1_555 1_555
O6 Co2 1_555 1_555
H3 O6 1_555 1_555
H4 O6 1_555 1_555
O7 Co3 1_555 1_555
O8 Co3 1_555 1_555
O9 Co3 1_555 1_555
H5 O9 1_555 1_555
H6 O9 1_555 1_555
O10 Co3 1_555 1_555
O11 H7 1_555 1_555
O12 H8 1_555 1_555
O13 C38 1_555 1_555
O14 C45 1_555 1_555
O15 C45 1_555 1_555
O16 Co3 1_555 1_555
O17 C46 1_555 1_555
O18 H9 1_555 1_555
O19 C53 1_555 1_555
O20 C60 1_555 1_555
O21 C60 1_555 1_555
C1 H10 1_555 1_555
C2 C1 1_555 1_555
H11 C2 1_555 1_555
C3 C2 1_555 1_555
C4 C3 1_555 1_555
H12 C4 1_555 1_555
C5 N1 1_555 1_555
H13 C5 1_555 1_555
C6 O2 1_555 1_555
C7 C6 1_555 1_555
C8 C7 1_555 1_555
H14 C8 1_555 1_555
C9 C8 1_555 1_555
C10 C9 1_555 1_555
H15 C10 1_555 1_555
C11 N2 1_555 1_555
C12 C7 1_555 1_555
H16 C12 1_555 1_555
C13 O5 1_555 1_555
C14 C15 1_555 1_555
C15 H17 1_555 1_555
C16 C15 1_555 1_555
H18 C16 1_555 1_555
C17 C16 1_555 1_555
C18 C17 1_555 1_555
H19 C18 1_555 1_555
C19 C14 1_555 1_555
H20 C19 1_555 1_555
C20 O7 1_555 1_555
C21 H21 1_555 1_555
C22 C21 1_555 1_555
H22 C22 1_555 1_555
C23 C22 1_555 1_555
C24 C23 1_555 1_555
H23 C24 1_555 1_555
C25 N4 1_555 1_555
H24 C25 1_555 1_555
C26 C23 1_555 1_555
C27 C26 1_555 1_555
H25 C27 1_555 1_555
C28 C27 1_555 1_555
H26 C28 1_555 1_555
C29 N5 1_555 1_555
H27 C29 1_555 1_555
C30 C26 1_555 1_555
H28 C30 1_555 1_555
C31 O10 1_555 1_555
C32 C31 1_555 1_555
C33 C32 1_555 1_555
H29 C33 1_555 1_555
C34 C33 1_555 1_555
C35 C34 1_555 1_555
H30 C35 1_555 1_555
C36 N6 1_555 1_555
C37 C32 1_555 1_555
H31 C37 1_555 1_555
C38 O12 1_555 1_555
C39 C40 1_555 1_555
C40 H32 1_555 1_555
C41 C40 1_555 1_555
H33 C41 1_555 1_555
C42 C41 1_555 1_555
C43 C42 1_555 1_555
H34 C43 1_555 1_555
C44 C39 1_555 1_555
H35 C44 1_555 1_555
C45 C42 1_555 1_555
C46 O16 1_555 1_555
C47 C46 1_555 1_555
C48 C47 1_555 1_555
H36 C48 1_555 1_555
C49 N8 1_555 1_555
C50 C49 1_555 1_555
H37 C50 1_555 1_555
C51 C50 1_555 1_555
C52 C47 1_555 1_555
H38 C52 1_555 1_555
C53 O18 1_555 1_555
C54 C55 1_555 1_555
C55 H39 1_555 1_555
C56 C55 1_555 1_555
H40 C56 1_555 1_555
C57 C56 1_555 1_555
C58 C57 1_555 1_555
H41 C58 1_555 1_555
C59 C54 1_555 1_555
H42 C59 1_555 1_555
C60 C57 1_555 1_555
N1A C1A 1_555 1_555
C1A H10A 1_555 1_555
C2A C1A 1_555 1_555
H11A C2A 1_555 1_555
C3A C3 1_555 1_555
C4A C3A 1_555 1_555
H12A C4A 1_555 1_555
C5A N1A 1_555 1_555
H13A C5A 1_555 1_555
Co1A O1A 1_555 1_555
Co2A N5 1_555 1_555
Co3A N4A 1_555 1_555
N2A N3A 1_555 1_555
N3A C14A 1_555 1_555
N4A C21A 1_555 1_555
N5A Co2 1_555 1_555
N6A N7A 1_555 1_555
N7A C39A 1_555 1_555
N8A N9A 1_555 1_555
N9A C54A 1_555 1_555
O1A H1A 1_555 1_555
H2A O1A 1_555 1_555
O2A Co1A 1_555 1_555
O3A Co1A 1_555 1_555
O4A Co2A 1_555 1_555
O5A Co2A 1_555 1_555
O6A Co2A 1_555 1_555
H3A O6A 1_555 1_555
H4A O6A 1_555 1_555
O7A Co3A 1_555 1_555
O8A Co3A 1_555 1_555
O9A Co3A 1_555 1_555
H5A O9A 1_555 1_555
H6A O9A 1_555 1_555
O10A Co3A 1_555 1_555
O11A H7A 1_555 1_555
O12A H8A 1_555 1_555
O13A C38A 1_555 1_555
O14A C45A 1_555 1_555
O15A C45A 1_555 1_555
O16A Co3A 1_555 1_555
O17A C46A 1_555 1_555
O18A H9A 1_555 1_555
O19A C53A 1_555 1_555
O20A C60A 1_555 1_555
O21A C60A 1_555 1_555
C6A O2A 1_555 1_555
C7A C6A 1_555 1_555
C8A C7A 1_555 1_555
H14A C8A 1_555 1_555
C9A C8A 1_555 1_555
C10A C9A 1_555 1_555
H15A C10A 1_555 1_555
C11A N2A 1_555 1_555
C12A C7A 1_555 1_555
H16A C12A 1_555 1_555
C13A O4A 1_555 1_555
C14A C15A 1_555 1_555
C15A H17A 1_555 1_555
C16A C15A 1_555 1_555
H18A C16A 1_555 1_555
C17A C16A 1_555 1_555
C18A C17A 1_555 1_555
H19A C18A 1_555 1_555
C19A C14A 1_555 1_555
H20A C19A 1_555 1_555
C20A O7A 1_555 1_555
C21A H21A 1_555 1_555
C22A C21A 1_555 1_555
H22A C22A 1_555 1_555
C23A C22A 1_555 1_555
C24A C23A 1_555 1_555
H23A C24A 1_555 1_555
C25A N4A 1_555 1_555
H24A C25A 1_555 1_555
C26A C23A 1_555 1_555
C27A C26A 1_555 1_555
H25A C27A 1_555 1_555
C28A N5A 1_555 1_555
H26A C28A 1_555 1_555
C29A N5A 1_555 1_555
H27A C29A 1_555 1_555
C30A C26A 1_555 1_555
H28A C30A 1_555 1_555
C31A O10A 1_555 1_555
C32A C31A 1_555 1_555
C33A C32A 1_555 1_555
H29A C33A 1_555 1_555
C34A C33A 1_555 1_555
C35A C34A 1_555 1_555
H30A C35A 1_555 1_555
C36A N6A 1_555 1_555
C37A C32A 1_555 1_555
H31A C37A 1_555 1_555
C38A O12A 1_555 1_555
C39A C40A 1_555 1_555
C40A H32A 1_555 1_555
C41A C40A 1_555 1_555
H33A C41A 1_555 1_555
C42A C41A 1_555 1_555
C43A C42A 1_555 1_555
H34A C43A 1_555 1_555
C44A C39A 1_555 1_555
H35A C44A 1_555 1_555
C45A C42A 1_555 1_555
C46A O16A 1_555 1_555
C47A C46A 1_555 1_555
C48A C47A 1_555 1_555
H36A C48A 1_555 1_555
C49A N8A 1_555 1_555
C50A C49A 1_555 1_555
H37A C50A 1_555 1_555
C51A C50A 1_555 1_555
C52A C47A 1_555 1_555
H38A C52A 1_555 1_555
C53A O18A 1_555 1_555
C54A C55A 1_555 1_555
C55A H39A 1_555 1_555
C56A C55A 1_555 1_555
H40A C56A 1_555 1_555
C57A C56A 1_555 1_555
C58A C57A 1_555 1_555
H41A C58A 1_555 1_555
C59A C54A 1_555 1_555
H42A C59A 1_555 1_555
C60A C57A 1_555 1_555
Co1_2 O21 1_555 1_555
Co1_3 O13 1_555 1_555
Co1A_2 N1A 1_555 1_555
Co1A_3 O21A 1_555 1_555
Co2_2 O14 1_555 1_555
Co2_3 O19 1_555 1_555
Co2A_2 O19A 1_555 1_555
Co2A_3 O14A 1_555 1_555
N1A_2 Co1A 1_555 1_555
O13_2 Co1 1_555 1_555
O13A_2 Co1A 1_555 1_555
O14_2 Co2 1_555 1_555
O14A_2 Co2A 1_555 1_555
O19_2 Co2 1_555 1_555
O19A_2 Co2A 1_555 1_555
O21_2 Co1 1_555 1_555
O21A_2 Co1A 1_555 1_555
O3 C6 1_555 1_555
O8 C20 1_555 1_555
O11 C31 1_555 1_555
C4 C5 1_555 1_555
C9 C13 1_555 1_555
C10 C11 1_555 1_555
C11 C12 1_555 1_555
C17 C20 1_555 1_555
C18 C19 1_555 1_555
C24 C25 1_555 1_555
C29 C30 1_555 1_555
C34 C38 1_555 1_555
C35 C36 1_555 1_555
C36 C37 1_555 1_555
C43 C44 1_555 1_555
C48 C49 1_555 1_555
C51 C52 1_555 1_555
C51 C53 1_555 1_555
C58 C59 1_555 1_555
C2A C3A 1_555 1_555
C4A C5A 1_555 1_555
O3A C6A 1_555 1_555
O5A C13A 1_555 1_555
O8A C20A 1_555 1_555
O11A C31A 1_555 1_555
O13A Co1A_2 1_555 1_555
C9A C13A 1_555 1_555
C10A C11A 1_555 1_555
C11A C12A 1_555 1_555
C17A C20A 1_555 1_555
C18A C19A 1_555 1_555
C24A C25A 1_555 1_555
C27A C28A 1_555 1_555
C29A C30A 1_555 1_555
C34A C38A 1_555 1_555
C35A C36A 1_555 1_555
C36A C37A 1_555 1_555
C43A C44A 1_555 1_555
C48A C49A 1_555 1_555
C51A C52A 1_555 1_555
C51A C53A 1_555 1_555
C58A C59A 1_555 1_555

#END
