
#######################################################################
#
#                 Cambridge Crystallographic Data Centre
#                                CCDC 
#
#######################################################################
#
# If this CIF has been generated from an entry in the Cambridge 
# Structural Database, then it will include bibliographic, chemical, 
# crystal, experimental, refinement or atomic coordinate data resulting 
# from the CCDC's data processing and validation procedures.
#
#######################################################################

data_VEYTID
_symmetry_cell_setting           monoclinic
_symmetry_space_group_name_H-M   'P 21/c'
_symmetry_Int_Tables_number      14
_space_group_name_Hall           '-P 2ybc'
loop_
_symmetry_equiv_pos_site_id
_symmetry_equiv_pos_as_xyz
1 x,y,z
2 -x,1/2+y,1/2-z
3 -x,-y,-z
4 x,1/2-y,1/2+z
_cell_length_a                   7.6763(5)
_cell_length_b                   13.1539(9)
_cell_length_c                   7.9693(5)
_cell_angle_alpha                90
_cell_angle_beta                 109.988(1)
_cell_angle_gamma                90
_cell_volume                     756.215
loop_
_atom_site_label
_atom_site_type_symbol
_atom_site_fract_x
_atom_site_fract_y
_atom_site_fract_z
Cd1 Cd 0.634820(19) 0.073946(11) 0.198849(18)
N1 N 0.8006(2) -0.06776(12) 0.3577(2)
N2 N 1.0702(2) -0.12508(13) 0.5867(2)
N3 N 0.5033(3) 0.13069(17) 0.4058(3)
N4 N 0.5711(3) 0.19658(14) 0.5052(2)
N5 N 0.6368(4) 0.25962(18) 0.6091(3)
N6 N 0.3562(3) -0.01043(17) 0.0682(2)
N7 N 0.2406(3) -0.02262(14) 0.1358(2)
N8 N 0.1307(3) -0.0336(3) 0.2015(3)
C1 C 0.9646(3) -0.05300(15) 0.4849(3)
C2 C 1.0085(3) -0.22100(17) 0.5541(3)
H1 H 1.0794 -0.2735 0.6222
C3 C 0.8425(3) -0.24377(18) 0.4219(3)
H2 H 0.8014 -0.3105 0.3979
C4 C 0.7407(3) -0.16371(17) 0.3273(3)
H3 H 0.6267 -0.1766 0.2396
Cd1B Cd 1.365180(19) -0.073946(11) 0.801151(18)
Cd1C Cd 0.634820(19) 0.426054(11) 0.698849(18)
Cd1B_2 Cd 0.365180(19) -0.073946(11) -0.198849(18)
Cd1C_2 Cd 0.634820(19) 0.426054(11) -0.301151(18)
N1B N 1.1994(2) 0.06776(12) 0.6423(2)
N2B N 0.9298(2) 0.12508(13) 0.4133(2)
N3C N 0.5033(3) 0.36931(17) -0.0942(3)
N3B N 1.4967(3) -0.13069(17) 0.5942(3)
N4C N 0.5711(3) 0.30342(14) 0.0052(2)
N5C N 0.6368(4) 0.24038(18) 0.1091(3)
N5A N 1.3632(4) -0.24038(18) 0.8909(3)
N6B N 0.6438(3) 0.01043(17) -0.0682(2)
N6_2 N 1.3562(3) -0.01043(17) 1.0682(2)
N6B_2 N 1.6438(3) 0.01043(17) 0.9318(2)
N7B N 0.7594(3) 0.02262(14) -0.1358(2)
N8B N 0.8693(3) 0.0336(3) -0.2015(3)
C1B C 1.0354(3) 0.05300(15) 0.5151(3)
C2B C 0.9915(3) 0.22100(17) 0.4459(3)
H1B H 0.9206 0.2735 0.3778
C3B C 1.1575(3) 0.24377(18) 0.5781(3)
H2B H 1.1986 0.3105 0.6021
C4B C 1.2593(3) 0.16371(17) 0.6727(3)
H3B H 1.3733 0.1766 0.7604
loop_
_geom_bond_atom_site_label_1
_geom_bond_atom_site_label_2
_geom_bond_site_symmetry_1
_geom_bond_site_symmetry_2
Cd1 N1 1_555 1_555
N1 C1 1_555 1_555
N2 C1 1_555 1_555
N3 Cd1 1_555 1_555
N4 N3 1_555 1_555
N5 N4 1_555 1_555
N6 Cd1 1_555 1_555
N7 N6 1_555 1_555
N8 N7 1_555 1_555
C1 C1B 1_555 1_555
C2 N2 1_555 1_555
H1 C2 1_555 1_555
C3 C2 1_555 1_555
H2 C3 1_555 1_555
C4 N1 1_555 1_555
H3 C4 1_555 1_555
Cd1B N2 1_555 1_555
Cd1C N5 1_555 1_555
Cd1B_2 N6 1_555 1_555
Cd1C_2 N3C 1_555 1_555
N1B Cd1B 1_555 1_555
N2B Cd1 1_555 1_555
N3C N4C 1_555 1_555
N3B Cd1B 1_555 1_555
N4C N5C 1_555 1_555
N5C Cd1 1_555 1_555
N5A Cd1B 1_555 1_555
N6B Cd1 1_555 1_555
N6_2 Cd1B 1_555 1_555
N6B_2 Cd1B 1_555 1_555
N7B N6B 1_555 1_555
N8B N7B 1_555 1_555
C1B N1B 1_555 1_555
C2B N2B 1_555 1_555
H1B C2B 1_555 1_555
C3B C2B 1_555 1_555
H2B C3B 1_555 1_555
C4B N1B 1_555 1_555
H3B C4B 1_555 1_555
C3 C4 1_555 1_555
Cd1B_2 N6B 1_555 1_555
N2B C1B 1_555 1_555
C3B C4B 1_555 1_555

#END
