
#######################################################################
#
#                 Cambridge Crystallographic Data Centre
#                                CCDC 
#
#######################################################################
#
# If this CIF has been generated from an entry in the Cambridge 
# Structural Database, then it will include bibliographic, chemical, 
# crystal, experimental, refinement or atomic coordinate data resulting 
# from the CCDC's data processing and validation procedures.
#
#######################################################################

data_VEYVAY
_symmetry_cell_setting           monoclinic
_symmetry_space_group_name_H-M   'P 21/c'
_symmetry_Int_Tables_number      14
_space_group_name_Hall           '-P 2ybc'
loop_
_symmetry_equiv_pos_site_id
_symmetry_equiv_pos_as_xyz
1 x,y,z
2 -x,1/2+y,1/2-z
3 -x,-y,-z
4 x,1/2-y,1/2+z
_cell_length_a                   19.986(3)
_cell_length_b                   11.382(2)
_cell_length_c                   15.228(4)
_cell_angle_alpha                90
_cell_angle_beta                 92.43(3)
_cell_angle_gamma                90
_cell_volume                     3460.96
loop_
_atom_site_label
_atom_site_type_symbol
_atom_site_fract_x
_atom_site_fract_y
_atom_site_fract_z
Co1 Co 0.00026(5) 0.79216(4) 0.36167(3)
Co2 Co 0.19236(2) 0.50133(7) 0.51129(6)
O1 O 0.10200(19) 0.7283(3) 0.5967(3)
O2 O 0.1925(2) 0.6831(3) 0.5213(3)
O3 O 0.10446(19) 0.7724(3) 0.3539(3)
O4 O 0.21318(17) 0.7981(3) 0.3347(3)
H1 H 0.2083 0.7364 0.3048
O5 O 0.1269(2) 1.0304(4) 0.2711(3)
O6 O 0.21156(19) 1.1537(3) 0.3108(3)
O7 O 0.1036(2) 1.2730(3) 0.4135(3)
O8 O 0.1931(2) 1.3202(3) 0.5002(3)
O9 O 0.10366(18) 1.2284(3) 0.6573(3)
O10 O 0.21315(17) 1.2067(3) 0.6866(3)
H2 H 0.2053 1.2504 0.7294
O11 O 0.1256(2) 0.9696(4) 0.7423(3)
O12 O 0.20995(18) 0.8496(3) 0.7122(3)
O13 O -0.0004(2) 0.6364(2) 0.42510(19)
H3 H -0.0340(19) 0.594(5) 0.432(4)
H4 H 0.0343(18) 0.601(5) 0.412(4)
O14 O -0.0003(3) 0.7276(2) 0.23032(19)
H5 H -0.035(2) 0.742(7) 0.199(5)
H6 H 0.034(2) 0.742(7) 0.202(5)
O15 O 0.0008(3) 0.9610(2) 0.3195(2)
H7 H -0.032(3) 0.986(6) 0.288(5)
H8 H 0.034(3) 0.992(6) 0.295(6)
O16 O 0.0007(3) 0.8668(3) 0.4918(2)
H9 H -0.022(3) 0.880(5) 0.536(2)
H10 H 0.030(2) 0.825(5) 0.518(4)
O17 O 0.1125(2) 0.4960(3) 0.5994(3)
O18 O 0.1124(2) 0.5064(3) 0.4121(3)
H11 H 0.122(3) 0.521(4) 0.3600(13)
H12 H 0.108(3) 0.4334(12) 0.406(4)
N1 N 0.5067(2) 0.4798(3) 0.7159(4)
N2 N 0.5771(2) 0.5614(4) 0.8304(3)
N3 N 0.4585(2) 0.5729(4) 0.8399(3)
N4 N 0.2691(2) 0.4858(4) 0.6135(3)
N5 N 0.7318(2) 0.4834(4) 0.5833(3)
N6 N 0.5486(3) 0.7369(4) 1.1312(4)
C1 C 0.1617(2) 0.8826(4) 0.5295(4)
C2 C 0.1637(2) 0.9163(4) 0.4426(4)
C3 C 0.1658(3) 1.0373(5) 0.4214(4)
C4 C 0.1626(3) 1.1203(4) 0.4873(4)
C5 C 0.1627(3) 1.0857(5) 0.5758(4)
C6 C 0.1631(3) 0.9667(5) 0.5988(4)
C7 C 0.1516(2) 0.7525(5) 0.5523(4)
C8 C 0.1585(2) 0.8222(4) 0.3712(4)
C9 C 0.1678(3) 1.0760(5) 0.3267(4)
C10 C 0.1533(2) 1.2475(5) 0.4637(4)
C11 C 0.1574(2) 1.1798(4) 0.6450(4)
C12 C 0.1658(3) 0.9261(5) 0.6923(4)
C13 C 0.4541(3) 0.5161(4) 0.7621(3)
C14 C 0.5662(2) 0.5109(4) 0.7520(4)
C15 C 0.5217(3) 0.5870(4) 0.8729(3)
C16 C 0.2780(3) 0.5675(5) 0.6762(4)
H13 H 0.2429 0.6222 0.6842
C17 C 0.3355(3) 0.5771(5) 0.7300(4)
H14 H 0.3391 0.6357 0.7744
C18 C 0.3872(3) 0.4993(5) 0.7176(4)
C19 C 0.3772(3) 0.4102(5) 0.6564(4)
H15 H 0.4110 0.3530 0.6483
C20 C 0.3181(3) 0.4056(5) 0.6078(4)
H16 H 0.3113 0.3421 0.5679
C21 C 0.6802(3) 0.4067(5) 0.5741(5)
H17 H 0.6812 0.3485 0.5294
C22 C 0.6256(3) 0.4106(5) 0.6282(5)
H18 H 0.5893 0.3576 0.6190
C23 C 0.6250(3) 0.4933(4) 0.6963(4)
C24 C 0.6803(3) 0.5666(5) 0.7079(4)
H19 H 0.6829 0.6208 0.7553
C25 C 0.7313(3) 0.5603(5) 0.6505(4)
H20 H 0.7681 0.6127 0.6585
C26 C 0.6010(3) 0.6986(5) 1.0861(4)
H21 H 0.6446 0.7052 1.1131
C27 C 0.5947(3) 0.6501(5) 1.0025(4)
H22 H 0.6330 0.6242 0.9730
C28 C 0.5301(3) 0.6404(5) 0.9626(4)
C29 C 0.4752(3) 0.6750(5) 1.0087(4)
H23 H 0.4309 0.6665 0.9845
C30 C 0.4878(3) 0.7234(5) 1.0927(5)
H24 H 0.4504 0.7482 1.1244
Co1B Co -0.00026(5) 1.20784(4) 0.63833(3)
Co2_2 Co 0.19236(2) 1.50133(7) 0.51129(6)
Co2B Co 0.80764(2) 0.49867(7) 0.48871(6)
O8_2 O 0.1931(2) 0.3202(3) 0.5002(3)
O9B O -0.10366(18) 0.7716(3) 0.3427(3)
N5B N 0.2682(2) 0.5166(4) 0.4167(3)
O19 O 0.3294(5) 0.8448(8) 0.6018(7)
loop_
_geom_bond_atom_site_label_1
_geom_bond_atom_site_label_2
_geom_bond_site_symmetry_1
_geom_bond_site_symmetry_2
Co1 O3 1_555 1_555
Co2 O2 1_555 1_555
O1 C7 1_555 1_555
O2 C7 1_555 1_555
O3 C8 1_555 1_555
O4 H1 1_555 1_555
O5 C9 1_555 1_555
O6 C9 1_555 1_555
O7 C10 1_555 1_555
O8 C10 1_555 1_555
O9 C11 1_555 1_555
O10 H2 1_555 1_555
O11 C12 1_555 1_555
O12 C12 1_555 1_555
O13 Co1 1_555 1_555
H3 O13 1_555 1_555
H4 O13 1_555 1_555
O14 Co1 1_555 1_555
H5 O14 1_555 1_555
H6 O14 1_555 1_555
O15 Co1 1_555 1_555
H7 O15 1_555 1_555
H8 O15 1_555 1_555
O16 Co1 1_555 1_555
H9 O16 1_555 1_555
H10 O16 1_555 1_555
O17 Co2 1_555 1_555
O18 Co2 1_555 1_555
H11 O18 1_555 1_555
H12 O18 1_555 1_555
N1 C13 1_555 1_555
N2 C14 1_555 1_555
N3 C13 1_555 1_555
N4 Co2 1_555 1_555
N5 C21 1_555 1_555
N6 C26 1_555 1_555
C1 C2 1_555 1_555
C2 C3 1_555 1_555
C3 C4 1_555 1_555
C4 C5 1_555 1_555
C5 C6 1_555 1_555
C6 C1 1_555 1_555
C7 C1 1_555 1_555
C8 O4 1_555 1_555
C9 C3 1_555 1_555
C10 C4 1_555 1_555
C11 O10 1_555 1_555
C12 C6 1_555 1_555
C13 C18 1_555 1_555
C14 N1 1_555 1_555
C15 N2 1_555 1_555
C16 N4 1_555 1_555
H13 C16 1_555 1_555
C17 C16 1_555 1_555
H14 C17 1_555 1_555
C18 C17 1_555 1_555
C19 C18 1_555 1_555
H15 C19 1_555 1_555
C20 N4 1_555 1_555
H16 C20 1_555 1_555
C21 H17 1_555 1_555
C22 C21 1_555 1_555
H18 C22 1_555 1_555
C23 C14 1_555 1_555
C24 C23 1_555 1_555
H19 C24 1_555 1_555
C25 N5 1_555 1_555
H20 C25 1_555 1_555
C26 H21 1_555 1_555
C27 C26 1_555 1_555
H22 C27 1_555 1_555
C28 C15 1_555 1_555
C29 C28 1_555 1_555
H23 C29 1_555 1_555
C30 N6 1_555 1_555
H24 C30 1_555 1_555
Co1B O9 1_555 1_555
Co2_2 O8 1_555 1_555
Co2B N5 1_555 1_555
O8_2 Co2 1_555 1_555
O9B Co1 1_555 1_555
N5B Co2 1_555 1_555
N3 C15 1_555 1_555
C2 C8 1_555 1_555
C5 C11 1_555 1_555
C19 C20 1_555 1_555
C22 C23 1_555 1_555
C24 C25 1_555 1_555
C27 C28 1_555 1_555
C29 C30 1_555 1_555

#END
