
#######################################################################
#
#                 Cambridge Crystallographic Data Centre
#                                CCDC 
#
#######################################################################
#
# If this CIF has been generated from an entry in the Cambridge 
# Structural Database, then it will include bibliographic, chemical, 
# crystal, experimental, refinement or atomic coordinate data resulting 
# from the CCDC's data processing and validation procedures.
#
#######################################################################

data_VEYVIG
_symmetry_cell_setting           triclinic
_symmetry_space_group_name_H-M   'P -1'
_symmetry_Int_Tables_number      2
_space_group_name_Hall           '-P 1'
loop_
_symmetry_equiv_pos_site_id
_symmetry_equiv_pos_as_xyz
1 x,y,z
2 -x,-y,-z
_cell_length_a                   11.3330(7)
_cell_length_b                   15.2656(10)
_cell_length_c                   15.6223(10)
_cell_angle_alpha                98.946(3)
_cell_angle_beta                 101.634(3)
_cell_angle_gamma                90.142(3)
_cell_volume                     2613.41
loop_
_atom_site_label
_atom_site_type_symbol
_atom_site_fract_x
_atom_site_fract_y
_atom_site_fract_z
Co1 Co 0.20426(6) 0.35556(5) 0.49943(5)
Co2 Co 0.57349(6) 0.54117(5) 0.76221(5)
O1 O 0.3182(3) 0.6001(3) 0.6351(3)
O2 O 0.5370(3) 0.4316(2) 0.6555(2)
O3 O 0.5504(3) 0.6181(2) 0.6557(2)
O4 O 0.3899(3) 0.5395(2) 0.7575(2)
O5 O 0.2468(3) 0.7346(2) 0.7722(3)
O6 O 0.3682(3) 0.4092(3) 0.5002(3)
O7 O 0.0905(3) 0.7593(2) 0.6666(3)
O8 O 0.2593(4) 0.2218(3) 0.4994(3)
O9 O -0.1059(3) 0.7317(2) 0.7765(2)
O10 O 0.0303(4) 0.3180(3) 0.4983(3)
O11 O -0.1831(3) 0.6776(2) 0.6371(2)
O12 O 0.1391(4) 0.4875(3) 0.5001(3)
O13 O -0.2433(3) 0.4437(3) 0.6327(3)
O14 O -0.2457(3) 0.5395(2) 0.7565(3)
O15 O 0.0009(3) 0.2929(2) 0.6625(2)
O16 O -0.0969(3) 0.3516(2) 0.7680(3)
O17 O 0.2591(3) 0.3642(2) 0.6352(2)
O18 O 0.2618(3) 0.3554(2) 0.7753(2)
N1 N 0.6201(4) 0.4736(3) 0.8726(3)
N2 N 0.5853(4) 0.6442(3) 0.8714(3)
C1 C 0.1798(4) 0.5489(3) 0.7113(3)
C2 C 0.1034(4) 0.6194(4) 0.7142(3)
C3 C -0.0192(4) 0.6030(3) 0.7120(3)
C4 C -0.0616(4) 0.5172(4) 0.7105(3)
C5 C 0.0171(4) 0.4475(3) 0.7119(3)
C6 C 0.1382(4) 0.4633(4) 0.7117(3)
C7 C 0.3067(4) 0.5656(3) 0.7004(3)
C8 C 0.1494(4) 0.7117(4) 0.7163(3)
C9 C -0.1088(4) 0.6751(3) 0.7056(3)
C10 C -0.1940(4) 0.4978(3) 0.6998(3)
C11 C -0.0304(4) 0.3564(4) 0.7127(3)
C12 C 0.2244(4) 0.3890(3) 0.7052(3)
C13 C 0.6516(5) 0.3894(4) 0.8692(4)
H1 H 0.6448 0.3546 0.8139
C14 C 0.6933(6) 0.3516(4) 0.9422(4)
H2 H 0.7145 0.2925 0.9366
C15 C 0.7036(6) 0.4019(5) 1.0244(5)
H3 H 0.7289 0.3769 1.0753
C16 C 0.6762(6) 0.4897(4) 1.0301(4)
H4 H 0.6858 0.5257 1.0850
C17 C 0.6339(5) 0.5243(4) 0.9532(4)
C18 C 0.6057(5) 0.6184(4) 0.9515(4)
C19 C 0.5978(6) 0.6769(4) 1.0264(4)
H5 H 0.6101 0.6578 1.0811
C20 C 0.5715(6) 0.7642(4) 1.0198(4)
H6 H 0.5694 0.8048 1.0703
C21 C 0.5486(6) 0.7903(4) 0.9388(4)
H7 H 0.5279 0.8482 0.9325
C22 C 0.5571(5) 0.7278(4) 0.8660(4)
H8 H 0.5424 0.7454 0.8105
Co1A Co -0.20426(6) 0.64444(5) 0.50057(5)
Co2_2 Co -0.42651(6) 0.54117(5) 0.76221(5)
O11A O 0.1831(3) 0.3224(2) 0.3629(2)
O14_2 O 0.7543(3) 0.5395(2) 0.7565(3)
Co3 Co -0.29475(6) 1.14221(5) 0.49984(5)
Co4 Co 0.07442(6) 1.04174(5) 0.76441(5)
O19 O 0.0358(3) 1.1165(2) 0.6555(2)
O20 O 0.0519(3) 0.9307(2) 0.6586(2)
O21 O -0.1311(4) 1.0898(3) 0.4991(3)
O22 O -0.3589(4) 1.0115(3) 0.5000(3)
O23 O -0.4674(3) 1.1790(3) 0.4993(3)
O24 O -0.2400(4) 1.2775(3) 0.4997(3)
O25 O -0.1088(3) 1.0346(2) 0.7599(2)
O26 O -0.1819(3) 0.9402(3) 0.6358(3)
O27 O -0.2378(3) 1.1759(3) 0.6361(2)
O28 O -0.2286(3) 1.2264(2) 0.7785(2)
O29 O -0.4901(3) 1.2597(2) 0.6656(3)
O30 O -0.5898(3) 1.2373(2) 0.7703(3)
O31 O -0.7408(3) 1.1030(3) 0.6359(3)
O32 O -0.7449(3) 1.0460(3) 0.7590(3)
O33 O -0.6854(3) 0.8666(2) 0.6364(2)
O34 O -0.6139(3) 0.8612(2) 0.7783(2)
O35 O -0.4169(3) 0.7920(2) 0.6650(3)
O36 O -0.2599(3) 0.8483(2) 0.7708(2)
N3 N 0.1120(4) 0.9759(3) 0.8764(3)
N4 N 0.1016(4) 1.1463(3) 0.8717(3)
C23 C -0.3205(4) 1.0159(4) 0.7126(3)
C24 C -0.3586(4) 1.1017(3) 0.7129(3)
C25 C -0.5611(4) 1.0514(3) 0.7120(3)
C26 C -0.4795(4) 1.1200(3) 0.7137(3)
C27 C -0.5221(4) 0.9645(3) 0.7124(3)
C28 C -0.4012(4) 0.9470(3) 0.7144(3)
C29 C -0.1930(4) 0.9947(3) 0.7025(3)
C30 C -0.2699(4) 1.1734(3) 0.7065(3)
C31 C -0.5232(4) 1.2139(3) 0.7161(3)
C32 C -0.6929(4) 1.0695(3) 0.7024(3)
C33 C -0.6144(4) 0.8924(4) 0.7064(3)
C34 C -0.3546(4) 0.8546(3) 0.7164(3)
C35 C 0.1175(6) 0.8889(4) 0.8739(4)
H9 H 0.0996 0.8523 0.8191
C36 C 0.1488(6) 0.8498(5) 0.9497(5)
H10 H 0.1519 0.7885 0.9455
C37 C 0.1749(6) 0.9030(5) 1.0306(5)
H11 H 0.1958 0.8784 1.0822
C38 C 0.1698(6) 0.9949(5) 1.0344(4)
H12 H 0.1876 1.0329 1.0883
C39 C 0.1373(5) 1.0276(4) 0.9557(4)
C40 C 0.1274(5) 1.1248(4) 0.9534(4)
C41 C 0.1394(6) 1.1875(4) 1.0281(4)
H13 H 0.1592 1.1708 1.0839
C42 C 0.1220(6) 1.2750(4) 1.0198(4)
H14 H 0.1267 1.3178 1.0699
C43 C 0.0975(6) 1.2988(4) 0.9372(4)
H15 H 0.0859 1.3577 0.9299
C44 C 0.0905(5) 1.2322(4) 0.8643(4)
H16 H 0.0775 1.2481 0.8082
Co3A Co -0.70525(6) 0.85779(5) 0.50016(5)
Co4_2 Co -0.92558(6) 1.04174(5) 0.76441(5)
O32_2 O 0.2551(3) 1.0460(3) 0.7590(3)
O33A O -0.3146(3) 1.1334(2) 0.3636(2)
O37 O 0.574(2) 0.9777(17) 0.0741(16)
O38 O 1.0589(19) 0.4938(16) 0.0832(15)
loop_
_geom_bond_atom_site_label_1
_geom_bond_atom_site_label_2
_geom_bond_site_symmetry_1
_geom_bond_site_symmetry_2
Co1 O6 1_555 1_555
Co2 O2 1_555 1_555
O1 C7 1_555 1_555
O3 Co2 1_555 1_555
O4 Co2 1_555 1_555
O5 C8 1_555 1_555
O7 C8 1_555 1_555
O8 Co1 1_555 1_555
O9 C9 1_555 1_555
O10 Co1 1_555 1_555
O11 C9 1_555 1_555
O12 Co1 1_555 1_555
O13 C10 1_555 1_555
O14 C10 1_555 1_555
O15 C11 1_555 1_555
O16 C11 1_555 1_555
O17 Co1 1_555 1_555
O18 C12 1_555 1_555
N1 Co2 1_555 1_555
N2 Co2 1_555 1_555
C1 C2 1_555 1_555
C2 C3 1_555 1_555
C3 C4 1_555 1_555
C4 C5 1_555 1_555
C5 C6 1_555 1_555
C6 C1 1_555 1_555
C7 O4 1_555 1_555
C8 C2 1_555 1_555
C9 C3 1_555 1_555
C10 C4 1_555 1_555
C11 C5 1_555 1_555
C12 O17 1_555 1_555
C13 N1 1_555 1_555
H1 C13 1_555 1_555
C14 C13 1_555 1_555
H2 C14 1_555 1_555
C15 C14 1_555 1_555
H3 C15 1_555 1_555
C16 C15 1_555 1_555
H4 C16 1_555 1_555
C17 N1 1_555 1_555
C18 N2 1_555 1_555
C19 C18 1_555 1_555
H5 C19 1_555 1_555
C20 C19 1_555 1_555
H6 C20 1_555 1_555
C21 C20 1_555 1_555
H7 C21 1_555 1_555
C22 N2 1_555 1_555
H8 C22 1_555 1_555
Co3 O21 1_555 1_555
Co4 O19 1_555 1_555
O20 Co4 1_555 1_555
O22 Co3 1_555 1_555
O23 Co3 1_555 1_555
O24 Co3 1_555 1_555
O25 Co4 1_555 1_555
O26 C29 1_555 1_555
O27 Co3 1_555 1_555
O28 C30 1_555 1_555
O29 C31 1_555 1_555
O30 C31 1_555 1_555
O31 C32 1_555 1_555
O32 C32 1_555 1_555
O33 C33 1_555 1_555
O34 C33 1_555 1_555
O35 C34 1_555 1_555
O36 C34 1_555 1_555
N3 Co4 1_555 1_555
N4 Co4 1_555 1_555
C23 C24 1_555 1_555
C24 C26 1_555 1_555
C25 C26 1_555 1_555
C26 C31 1_555 1_555
C27 C25 1_555 1_555
C28 C23 1_555 1_555
C29 O25 1_555 1_555
C30 O27 1_555 1_555
C32 C25 1_555 1_555
C33 C27 1_555 1_555
C34 C28 1_555 1_555
C35 N3 1_555 1_555
H9 C35 1_555 1_555
C36 C35 1_555 1_555
H10 C36 1_555 1_555
C37 C36 1_555 1_555
H11 C37 1_555 1_555
C38 C37 1_555 1_555
H12 C38 1_555 1_555
C39 N3 1_555 1_555
C40 N4 1_555 1_555
C41 C40 1_555 1_555
H13 C41 1_555 1_555
C42 C41 1_555 1_555
H14 C42 1_555 1_555
C43 C42 1_555 1_555
H15 C43 1_555 1_555
C44 N4 1_555 1_555
H16 C44 1_555 1_555
Co1A O11 1_555 1_555
Co2_2 O14 1_555 1_555
O11A Co1 1_555 1_555
O14_2 Co2 1_555 1_555
Co3A O33 1_555 1_555
Co4_2 O32 1_555 1_555
O32_2 Co4 1_555 1_555
O33A Co3 1_555 1_555
C1 C7 1_555 1_555
C6 C12 1_555 1_555
C16 C17 1_555 1_555
C17 C18 1_555 1_555
C21 C22 1_555 1_555
C23 C29 1_555 1_555
C24 C30 1_555 1_555
C27 C28 1_555 1_555
C38 C39 1_555 1_555
C39 C40 1_555 1_555
C43 C44 1_555 1_555

#END
