
#######################################################################
#
#                 Cambridge Crystallographic Data Centre
#                                CCDC 
#
#######################################################################
#
# If this CIF has been generated from an entry in the Cambridge 
# Structural Database, then it will include bibliographic, chemical, 
# crystal, experimental, refinement or atomic coordinate data resulting 
# from the CCDC's data processing and validation procedures.
#
#######################################################################

data_VEYVUQ
_symmetry_cell_setting           monoclinic
_symmetry_space_group_name_H-M   'P 21/n'
_symmetry_Int_Tables_number      14
_space_group_name_Hall           '-P 2yn'
loop_
_symmetry_equiv_pos_site_id
_symmetry_equiv_pos_as_xyz
1 x,y,z
2 1/2+x,1/2-y,1/2+z
3 -x,-y,-z
4 1/2-x,1/2+y,1/2-z
_cell_length_a                   3.521(1)
_cell_length_b                   18.146(3)
_cell_length_c                   10.335(2)
_cell_angle_alpha                90
_cell_angle_beta                 90.82(2)
_cell_angle_gamma                90
_cell_volume                     660.257
loop_
_atom_site_label
_atom_site_type_symbol
_atom_site_fract_x
_atom_site_fract_y
_atom_site_fract_z
O1 O 0.1833(3) 0.67445(5) 0.95856(10)
O2 O 0.4428(3) 0.56418(6) 0.93240(10)
O3 O 0.5027(3) 0.51440(6) 0.67499(10)
O4 O 0.1320(4) 0.67484(6) 0.36262(11)
N1 N 0.3146(4) 0.59612(7) 0.52363(12)
H1 H 0.3748 0.5638 0.4666
N2 N 0.0825(4) 0.71170(7) 0.57108(12)
H2 H -0.0064 0.7539 0.5480
C1 C 0.3028(4) 0.62251(8) 0.88927(14)
C2 C 0.2678(4) 0.63246(8) 0.74493(13)
C3 C 0.3708(4) 0.57625(8) 0.65242(14)
C4 C 0.1732(4) 0.66182(8) 0.47787(14)
C5 C 0.1277(4) 0.69703(8) 0.69882(14)
H3 H 0.0590 0.7331 0.7579
O5 O 0.0423(3) 0.41329(7) 0.83996(11)
H4 H 0.008(7) 0.3824(12) 0.907(2)
H5 H -0.005(7) 0.3860(12) 0.7673(19)
Li1 Li 0.5327(8) 0.46809(15) 0.8683(3)
Li1B Li 0.4673(8) 0.53191(15) 1.1317(3)
Li1_2 Li -0.4673(8) 0.46809(15) 0.8683(3)
O2B O 0.5572(3) 0.43582(6) 1.06760(10)
O5_2 O 1.0423(3) 0.41329(7) 0.83996(11)
H4_2 H 1.008(7) 0.3824(12) 0.907(2)
H5_2 H 0.995(7) 0.3860(12) 0.7673(19)
loop_
_geom_bond_atom_site_label_1
_geom_bond_atom_site_label_2
_geom_bond_site_symmetry_1
_geom_bond_site_symmetry_2
O1 C1 1_555 1_555
O2 C1 1_555 1_555
O3 C3 1_555 1_555
O4 C4 1_555 1_555
N1 H1 1_555 1_555
N2 H2 1_555 1_555
C1 C2 1_555 1_555
C2 C3 1_555 1_555
C3 N1 1_555 1_555
C4 N1 1_555 1_555
C5 N2 1_555 1_555
H3 C5 1_555 1_555
O5 H4 1_555 1_555
H5 O5 1_555 1_555
Li1 O2 1_555 1_555
Li1B O2 1_555 1_555
Li1_2 O5 1_555 1_555
O2B Li1 1_555 1_555
O5_2 Li1 1_555 1_555
H4_2 O5_2 1_555 1_555
H5_2 O5_2 1_555 1_555
O3 Li1 1_555 1_555
N2 C4 1_555 1_555
C2 C5 1_555 1_555
O5 Li1 1_555 1_555
Li1B O2B 1_555 1_555

#END
