
#######################################################################
#
#                 Cambridge Crystallographic Data Centre
#                                CCDC 
#
#######################################################################
#
# If this CIF has been generated from an entry in the Cambridge 
# Structural Database, then it will include bibliographic, chemical, 
# crystal, experimental, refinement or atomic coordinate data resulting 
# from the CCDC's data processing and validation procedures.
#
#######################################################################

data_VEYXAZ
_symmetry_cell_setting           monoclinic
_symmetry_space_group_name_H-M   'P 2/n'
_symmetry_Int_Tables_number      13
_space_group_name_Hall           '-P 2yac'
loop_
_symmetry_equiv_pos_site_id
_symmetry_equiv_pos_as_xyz
1 x,y,z
2 1/2-x,y,1/2-z
3 -x,-y,-z
4 1/2+x,-y,1/2+z
_cell_length_a                   8.0037(11)
_cell_length_b                   10.3851(13)
_cell_length_c                   18.407(3)
_cell_angle_alpha                90
_cell_angle_beta                 93.330(2)
_cell_angle_gamma                90
_cell_volume                     1527.39
loop_
_atom_site_label
_atom_site_type_symbol
_atom_site_fract_x
_atom_site_fract_y
_atom_site_fract_z
I1 I -1.06409(6) 0.59124(4) -0.15105(2)
I2 I -1.46339(5) 0.27969(4) -0.17440(2)
Cu1 Cu -1.14318(11) 0.35108(8) -0.18930(4)
Cu2 Cu -1.38696(12) 0.51900(8) -0.21025(4)
S1 S -0.7173(2) -0.07217(16) 0.01057(8)
N1 N -0.5145(6) -0.3593(5) -0.1485(3)
N2 N -1.0009(6) 0.2264(5) -0.1285(3)
C1 C -0.5794(9) -0.3955(6) -0.0863(3)
H1 H -0.5800 -0.4827 -0.0748
C2 C -0.6454(8) -0.3101(6) -0.0383(3)
H2 H -0.6907 -0.3397 0.0040
C3 C -0.6436(7) -0.1815(6) -0.0536(3)
C4 C -0.5738(9) -0.1421(6) -0.1173(3)
H3 H -0.5679 -0.0551 -0.1290
C5 C -0.5139(9) -0.2341(6) -0.1626(4)
H4 H -0.4703 -0.2069 -0.2057
C6 C -0.8229(7) 0.0423(6) -0.0465(3)
C7 C -0.8221(8) 0.1696(6) -0.0252(3)
H5 H -0.7609 0.1958 0.0167
C8 C -0.9133(8) 0.2569(6) -0.0670(3)
H6 H -0.9141 0.3421 -0.0516
C9 C -1.0034(9) 0.1025(6) -0.1473(3)
H7 H -1.0676 0.0781 -0.1888
C10 C -0.9164(8) 0.0095(6) -0.1088(3)
H8 H -0.9204 -0.0755 -0.1246
I1A I -1.43591(6) 0.59124(4) -0.34895(2)
I2A I -1.03661(5) 0.27969(4) -0.32560(2)
Cu1A Cu -1.35682(11) 0.35108(8) -0.31070(4)
Cu2A Cu -1.11304(12) 0.51900(8) -0.28975(4)
Cu2_2 Cu -0.38696(12) -0.48100(8) -0.21025(4)
N1_2 N -1.5145(6) 0.6407(5) -0.1485(3)
loop_
_geom_bond_atom_site_label_1
_geom_bond_atom_site_label_2
_geom_bond_site_symmetry_1
_geom_bond_site_symmetry_2
I1 Cu1 1_555 1_555
I2 Cu1 1_555 1_555
Cu1 N2 1_555 1_555
Cu2 I1 1_555 1_555
S1 C3 1_555 1_555
N1 C1 1_555 1_555
N2 C8 1_555 1_555
C1 H1 1_555 1_555
C2 C1 1_555 1_555
H2 C2 1_555 1_555
C3 C2 1_555 1_555
C4 C3 1_555 1_555
H3 C4 1_555 1_555
C5 N1 1_555 1_555
H4 C5 1_555 1_555
C6 S1 1_555 1_555
C7 C6 1_555 1_555
H5 C7 1_555 1_555
C8 C7 1_555 1_555
H6 C8 1_555 1_555
C9 N2 1_555 1_555
H7 C9 1_555 1_555
C10 C6 1_555 1_555
H8 C10 1_555 1_555
I1A Cu2 1_555 1_555
I2A Cu1 1_555 1_555
Cu1A I2 1_555 1_555
Cu2A I1 1_555 1_555
Cu2_2 N1 1_555 1_555
N1_2 Cu2 1_555 1_555
I2 Cu2 1_555 1_555
C4 C5 1_555 1_555
C9 C10 1_555 1_555
I1A Cu1A 1_555 1_555
I1A Cu2A 1_555 1_555
I2A Cu1A 1_555 1_555
I2A Cu2A 1_555 1_555

#END
