
#######################################################################
#
#                 Cambridge Crystallographic Data Centre
#                                CCDC 
#
#######################################################################
#
# If this CIF has been generated from an entry in the Cambridge 
# Structural Database, then it will include bibliographic, chemical, 
# crystal, experimental, refinement or atomic coordinate data resulting 
# from the CCDC's data processing and validation procedures.
#
#######################################################################

data_VEYXED
_symmetry_cell_setting           monoclinic
_symmetry_space_group_name_H-M   'C 2/c'
_symmetry_Int_Tables_number      15
_space_group_name_Hall           '-C 2yn'
loop_
_symmetry_equiv_pos_site_id
_symmetry_equiv_pos_as_xyz
1 x,y,z
2 1/2+x,1/2+y,z
3 -x,y,1/2-z
4 1/2-x,1/2+y,1/2-z
5 -x,-y,-z
6 1/2-x,1/2-y,-z
7 x,-y,1/2+z
8 1/2+x,1/2-y,1/2+z
_cell_length_a                   36.073(3)
_cell_length_b                   11.6925(9)
_cell_length_c                   14.6242(12)
_cell_angle_alpha                90
_cell_angle_beta                 96.524(2)
_cell_angle_gamma                90
_cell_volume                     6128.3
loop_
_atom_site_label
_atom_site_type_symbol
_atom_site_fract_x
_atom_site_fract_y
_atom_site_fract_z
I1 I 0.400483(16) 0.94833(5) 0.50643(5)
I2 I 0.377307(16) 0.63595(5) 0.65617(4)
I3 I 0.301584(16) 0.95231(5) 0.64589(4)
I4 I 0.254330(15) 0.61270(4) 0.61087(4)
I5 I 0.549600(13) 0.72647(4) 0.35067(4)
Cu1 Cu 0.39064(3) 0.72225(8) 0.47818(7)
Cu2 Cu 0.35484(3) 0.83865(9) 0.59098(8)
Cu3 Cu 0.31212(3) 0.72958(10) 0.68657(7)
Cu4 Cu 0.28618(3) 0.74320(14) 0.49476(9)
Cu5 Cu 0.47614(3) 0.77331(7) 0.32311(7)
S1 S 0.33209(5) 0.66629(19) 0.42118(13)
S2 S 0.44511(5) 0.67506(14) 0.42869(14)
N1 N 0.31002(18) 0.7281(6) -0.1751(4)
N2 N 0.31666(16) 0.7140(6) 0.1144(4)
N3 N 0.47095(18) -0.0534(5) 0.3318(4)
N4 N 0.45713(17) 0.2981(5) 0.3770(4)
C1 C 0.3247(2) 0.8139(7) -0.1216(5)
H1 H 0.3342 0.8771 -0.1498
C2 C 0.3265(2) 0.8126(7) -0.0266(5)
H2 H 0.3365 0.8743 0.0079
C3 C 0.3134(2) 0.7199(6) 0.0155(5)
C4 C 0.2980(3) 0.6302(8) -0.0374(6)
H3 H 0.2885 0.5660 -0.0105
C5 C 0.2973(3) 0.6394(7) -0.1303(6)
H4 H 0.2870 0.5787 -0.1656
C6 C 0.3495(2) 0.7380(9) 0.1641(6)
H5 H 0.3694 0.7633 0.1339
C7 C 0.3544(2) 0.7264(9) 0.2559(6)
H6 H 0.3776 0.7420 0.2878
C8 C 0.3255(2) 0.6918(7) 0.3045(5)
C9 C 0.2910(2) 0.6724(7) 0.2522(5)
H7 H 0.2704 0.6524 0.2817
C10 C 0.2873(2) 0.6824(7) 0.1598(5)
H8 H 0.2643 0.6675 0.1264
C11 C 0.4404(2) 0.0017(6) 0.2942(6)
H9 H 0.4220 -0.0396 0.2587
C12 C 0.4352(2) 0.1177(6) 0.3064(6)
H10 H 0.4140 0.1542 0.2784
C13 C 0.4618(2) 0.1777(5) 0.3602(5)
C14 C 0.4938(2) 0.1240(6) 0.3983(6)
H11 H 0.5126 0.1640 0.4335
C15 C 0.4969(2) 0.0072(6) 0.3819(6)
H12 H 0.5183 -0.0303 0.4075
C16 C 0.4247(2) 0.3404(6) 0.4031(6)
H13 H 0.4053 0.2904 0.4110
C17 C 0.4202(2) 0.4527(6) 0.4176(5)
H14 H 0.3976 0.4789 0.4343
C18 C 0.4489(2) 0.5314(6) 0.4080(5)
C19 C 0.4819(2) 0.4846(6) 0.3819(7)
H15 H 0.5016 0.5332 0.3733
C20 C 0.4859(2) 0.3711(6) 0.3688(6)
H16 H 0.5086 0.3427 0.3540
I4E I 0.245670(15) 0.88730(4) 0.38913(4)
I5B I 0.450400(13) 0.72647(4) 0.14933(4)
Cu3_2 Cu 0.31212(3) 0.72958(10) -0.31343(7)
Cu4E Cu 0.21382(3) 0.75680(14) 0.50524(9)
Cu5B Cu 0.52386(3) 0.77331(7) 0.17689(7)
Cu5_2 Cu 0.47614(3) -0.22669(7) 0.32311(7)
N1_2 N 0.31002(18) 0.7281(6) 0.8249(4)
N3_2 N 0.47095(18) 0.9466(5) 0.3318(4)
loop_
_geom_bond_atom_site_label_1
_geom_bond_atom_site_label_2
_geom_bond_site_symmetry_1
_geom_bond_site_symmetry_2
I1 Cu1 1_555 1_555
I2 Cu1 1_555 1_555
I3 Cu2 1_555 1_555
I4 Cu3 1_555 1_555
I5 Cu5 1_555 1_555
Cu1 S1 1_555 1_555
Cu2 I1 1_555 1_555
Cu3 I2 1_555 1_555
Cu4 I4 1_555 1_555
Cu5 S2 1_555 1_555
S1 Cu4 1_555 1_555
S2 Cu1 1_555 1_555
N1 C1 1_555 1_555
N2 C3 1_555 1_555
N3 C11 1_555 1_555
N4 C13 1_555 1_555
C1 H1 1_555 1_555
C2 C1 1_555 1_555
H2 C2 1_555 1_555
C3 C2 1_555 1_555
C4 C3 1_555 1_555
H3 C4 1_555 1_555
C5 N1 1_555 1_555
H4 C5 1_555 1_555
C6 N2 1_555 1_555
H5 C6 1_555 1_555
C7 C6 1_555 1_555
H6 C7 1_555 1_555
C8 S1 1_555 1_555
C9 C8 1_555 1_555
H7 C9 1_555 1_555
C10 N2 1_555 1_555
H8 C10 1_555 1_555
C11 H9 1_555 1_555
C12 C11 1_555 1_555
H10 C12 1_555 1_555
C13 C12 1_555 1_555
C14 C13 1_555 1_555
H11 C14 1_555 1_555
C15 N3 1_555 1_555
H12 C15 1_555 1_555
C16 N4 1_555 1_555
H13 C16 1_555 1_555
C17 C16 1_555 1_555
H14 C17 1_555 1_555
C18 S2 1_555 1_555
C19 C18 1_555 1_555
H15 C19 1_555 1_555
C20 N4 1_555 1_555
H16 C20 1_555 1_555
I4E Cu4 1_555 1_555
I5B Cu5 1_555 1_555
Cu3_2 N1 1_555 1_555
Cu4E I4 1_555 1_555
Cu5B I5 1_555 1_555
Cu5_2 N3 1_555 1_555
N1_2 Cu3 1_555 1_555
N3_2 Cu5 1_555 1_555
I2 Cu2 1_555 1_555
I3 Cu3 1_555 1_555
C4 C5 1_555 1_555
C7 C8 1_555 1_555
C9 C10 1_555 1_555
C14 C15 1_555 1_555
C17 C18 1_555 1_555
C19 C20 1_555 1_555
I4E Cu4E 1_555 1_555
I5B Cu5B 1_555 1_555

#END
