
#######################################################################
#
#                 Cambridge Crystallographic Data Centre
#                                CCDC 
#
#######################################################################
#
# If this CIF has been generated from an entry in the Cambridge 
# Structural Database, then it will include bibliographic, chemical, 
# crystal, experimental, refinement or atomic coordinate data resulting 
# from the CCDC's data processing and validation procedures.
#
#######################################################################

data_VEYXIH
_symmetry_cell_setting           triclinic
_symmetry_space_group_name_H-M   'P -1'
_symmetry_Int_Tables_number      2
_space_group_name_Hall           '-P 1'
loop_
_symmetry_equiv_pos_site_id
_symmetry_equiv_pos_as_xyz
1 x,y,z
2 -x,-y,-z
_cell_length_a                   9.745(1)
_cell_length_b                   10.221(1)
_cell_length_c                   10.287(1)
_cell_angle_alpha                60.877(2)
_cell_angle_beta                 61.959(1)
_cell_angle_gamma                81.087(2)
_cell_volume                     786.381
loop_
_atom_site_label
_atom_site_type_symbol
_atom_site_fract_x
_atom_site_fract_y
_atom_site_fract_z
I1 I 0.02081(5) 1.27119(5) 1.13742(6)
I2 I 0.45654(5) 1.54524(5) 0.77714(5)
I3 I 0.22672(5) 1.08820(5) 0.77968(5)
Cu1 Cu 0.16814(12) 1.54999(14) 0.97032(14)
Cu2 Cu 0.41908(10) 1.62287(10) 1.01741(12)
Cu3 Cu -0.03531(11) 1.15266(10) 0.97378(12)
S1 S 0.16084(18) 1.65331(18) 1.1549(2)
N1 N -0.1669(6) 1.2355(6) 1.5611(6)
N2 N -0.4456(6) 0.8249(6) 1.8662(7)
C1 C -0.0138(7) 1.2359(7) 1.5279(8)
H1 H 0.0223 1.1485 1.5866
C2 C 0.0858(7) 1.3615(7) 1.4110(8)
H2 H 0.1896 1.3595 1.3902
C3 C 0.0343(7) 1.4954(7) 1.3205(7)
C4 C -0.1267(7) 1.4935(7) 1.3666(8)
H3 H -0.1673 1.5814 1.3157
C5 C -0.2226(7) 1.3653(8) 1.4841(8)
H4 H -0.3284 1.3660 1.5124
C6 C -0.2651(7) 1.0965(7) 1.6676(8)
C7 C -0.2941(8) 1.0122(7) 1.8318(9)
H5 H -0.2533 1.0446 1.8780
C8 C -0.3864(8) 0.8773(8) 1.9258(9)
H6 H -0.4079 0.8201 2.0375
C9 C -0.4167(8) 0.9083(8) 1.7066(9)
H7 H -0.4589 0.8732 1.6636
C10 C -0.3252(8) 1.0464(8) 1.6015(9)
H8 H -0.3058 1.1024 1.4903
I1A I -0.02081(5) 1.72881(5) 0.86258(6)
I2A I 0.54346(5) 1.45476(5) 1.22286(5)
I3A I -0.22672(5) 0.91180(5) 1.22032(5)
Cu1A Cu -0.16814(12) 1.45001(14) 1.02968(14)
Cu2A Cu 0.58092(10) 1.37713(10) 0.98259(12)
Cu2_2 Cu -0.58092(10) 0.62287(10) 2.01741(12)
Cu3A Cu 0.03531(11) 0.84734(10) 1.02622(12)
Cu3A_2 Cu 0.03531(11) 1.84734(10) 1.02622(12)
S1A S -0.16084(18) 1.34669(18) 0.8451(2)
N2_2 N 0.5544(6) 1.8249(6) 0.8662(7)
loop_
_geom_bond_atom_site_label_1
_geom_bond_atom_site_label_2
_geom_bond_site_symmetry_1
_geom_bond_site_symmetry_2
I1 Cu1 1_555 1_555
I2 Cu1 1_555 1_555
I3 Cu3 1_555 1_555
Cu1 S1 1_555 1_555
Cu2 I2 1_555 1_555
Cu3 I1 1_555 1_555
S1 Cu2 1_555 1_555
N1 C1 1_555 1_555
N2 C8 1_555 1_555
C1 H1 1_555 1_555
C2 C1 1_555 1_555
H2 C2 1_555 1_555
C3 S1 1_555 1_555
C4 C3 1_555 1_555
H3 C4 1_555 1_555
C5 N1 1_555 1_555
H4 C5 1_555 1_555
C6 N1 1_555 1_555
C7 C6 1_555 1_555
H5 C7 1_555 1_555
C8 C7 1_555 1_555
H6 C8 1_555 1_555
C9 N2 1_555 1_555
H7 C9 1_555 1_555
C10 C6 1_555 1_555
H8 C10 1_555 1_555
I1A Cu1 1_555 1_555
I2A Cu2 1_555 1_555
I3A Cu3 1_555 1_555
Cu1A I1 1_555 1_555
Cu2A I2 1_555 1_555
Cu2_2 N2 1_555 1_555
Cu3A I3 1_555 1_555
Cu3A_2 S1 1_555 1_555
S1A Cu3 1_555 1_555
N2_2 Cu2 1_555 1_555
C2 C3 1_555 1_555
C4 C5 1_555 1_555
C9 C10 1_555 1_555
I1A Cu1A 1_555 1_555
I1A Cu3A_2 1_555 1_555
I2A Cu2A 1_555 1_555
I3A Cu3A 1_555 1_555
Cu1A S1A 1_555 1_555

#END
