
#######################################################################
#
#                 Cambridge Crystallographic Data Centre
#                                CCDC 
#
#######################################################################
#
# If this CIF has been generated from an entry in the Cambridge 
# Structural Database, then it will include bibliographic, chemical, 
# crystal, experimental, refinement or atomic coordinate data resulting 
# from the CCDC's data processing and validation procedures.
#
#######################################################################

data_VEYZII
_symmetry_cell_setting           monoclinic
_symmetry_space_group_name_H-M   'P 1 1 21/a'
_symmetry_Int_Tables_number      14
_space_group_name_Hall           '-P 2ac'
loop_
_symmetry_equiv_pos_site_id
_symmetry_equiv_pos_as_xyz
1 x,y,z
2 1/2-x,-y,1/2+z
3 -x,-y,-z
4 1/2+x,y,1/2-z
_cell_length_a                   9.307(3)
_cell_length_b                   10.086(3)
_cell_length_c                   16.385(5)
_cell_angle_alpha                90
_cell_angle_beta                 90
_cell_angle_gamma                91.7(1)
_cell_volume                     1537.39
loop_
_atom_site_label
_atom_site_type_symbol
_atom_site_fract_x
_atom_site_fract_y
_atom_site_fract_z
Cu1 Cu 0.0842(2) 0.3221(2) 0.2117(2)
Cl1 Cl 0.2952(4) 0.5144(5) 0.0965(4)
Cl2 Cl -0.3386(5) 0.6674(5) 0.0992(4)
Cl3 Cl 0.0600(7) 0.2262(6) 0.4157(4)
Cl4 Cl 0.3726(6) -0.1308(6) 0.1758(5)
O1 O -0.3313(10) 0.4455(12) 0.2096(8)
O2 O -0.1385(11) 0.3378(10) 0.2395(7)
O3 O 0.0910(13) 0.2076(11) 0.1183(8)
O4 O 0.1628(15) 0.0137(15) 0.0772(10)
N1 N 0.0284(12) 0.4811(13) 0.1441(8)
N2 N 0.1353(12) 0.1516(12) 0.2688(9)
C1 C -0.1966(17) 0.4257(13) 0.2016(11)
C2 C -0.1137(14) 0.5154(13) 0.1447(10)
C3 C 0.1161(14) 0.5624(13) 0.0943(10)
C4 C 0.0827(17) 0.6651(14) 0.0542(11)
C5 C -0.0679(19) 0.7010(19) 0.0533(10)
C6 C -0.1603(15) 0.6229(13) 0.1024(10)
C7 C 0.1448(17) 0.0975(14) 0.1266(10)
C8 C 0.1949(16) 0.0739(17) 0.2134(11)
C9 C 0.1551(19) 0.1316(17) 0.3500(11)
C10 C 0.2440(22) 0.0358(22) 0.3826(14)
C11 C 0.3141(21) -0.0404(18) 0.3229(16)
C12 C 0.2840(19) -0.0302(16) 0.2410(14)
O2C O 0.3615(11) 0.3378(10) 0.2605(7)
Cu1C Cu -0.4158(2) 0.3221(2) 0.2883(2)
O1C O 0.1687(10) 0.4455(12) 0.2904(8)
O2C_2 O -0.6385(11) 0.3378(10) 0.2605(7)
Cu1_2 Cu -0.9158(2) 0.3221(2) 0.2117(2)
C1C C -0.6966(17) 0.4257(13) 0.2984(11)
O3C O -0.4090(13) 0.2076(11) 0.3817(8)
C7C C -0.3552(17) 0.0975(14) 0.3734(10)
O4C O -0.3372(15) 0.0137(15) 0.4228(10)
C8C C -0.3051(16) 0.0739(17) 0.2866(11)
N2C N -0.3647(12) 0.1516(12) 0.2312(9)
N1C N -0.4716(12) 0.4811(13) 0.3559(8)
C2C C -0.6137(14) 0.5154(13) 0.3553(10)
O1C_2 O -0.8313(10) 0.4455(12) 0.2904(8)
C6C C -0.6603(15) 0.6229(13) 0.3976(10)
Cl2C Cl -0.8386(5) 0.6674(5) 0.4008(4)
C5C C -0.5679(19) 0.7010(19) 0.4467(10)
C4C C -0.4173(17) 0.6651(14) 0.4458(11)
C3C C -0.3839(14) 0.5624(13) 0.4057(10)
Cl1C Cl -0.2048(4) 0.5144(5) 0.4035(4)
C9C C -0.3449(19) 0.1316(17) 0.1500(11)
Cl3C Cl -0.4400(7) 0.2262(6) 0.0843(4)
C10C C -0.2560(22) 0.0358(22) 0.1174(14)
C11C C -0.1859(21) -0.0404(18) 0.1771(16)
C12C C -0.2160(19) -0.0302(16) 0.2590(14)
Cl4C Cl -0.1274(6) -0.1308(6) 0.3242(5)
loop_
_geom_bond_atom_site_label_1
_geom_bond_atom_site_label_2
_geom_bond_site_symmetry_1
_geom_bond_site_symmetry_2
Cu1 O2 1_555 1_555
Cl1 C3 1_555 1_555
Cl2 C6 1_555 1_555
Cl3 C9 1_555 1_555
Cl4 C12 1_555 1_555
O1 C1 1_555 1_555
O2 C1 1_555 1_555
O3 Cu1 1_555 1_555
O4 C7 1_555 1_555
N1 Cu1 1_555 1_555
N2 Cu1 1_555 1_555
C1 C2 1_555 1_555
C2 N1 1_555 1_555
C3 N1 1_555 1_555
C4 C3 1_555 1_555
C5 C4 1_555 1_555
C6 C2 1_555 1_555
C7 O3 1_555 1_555
C8 N2 1_555 1_555
C9 N2 1_555 1_555
C10 C9 1_555 1_555
C11 C10 1_555 1_555
C12 C8 1_555 1_555
O2C Cu1 1_555 1_555
Cu1C O1 1_555 1_555
O1C Cu1 1_555 1_555
O2C_2 Cu1C 1_555 1_555
Cu1_2 O2C_2 1_555 1_555
C1C O2C_2 1_555 1_555
O3C Cu1C 1_555 1_555
C7C O3C 1_555 1_555
O4C C7C 1_555 1_555
C8C C7C 1_555 1_555
N2C Cu1C 1_555 1_555
N1C Cu1C 1_555 1_555
C2C C1C 1_555 1_555
O1C_2 Cu1_2 1_555 1_555
C6C C2C 1_555 1_555
Cl2C C6C 1_555 1_555
C5C C6C 1_555 1_555
C4C C5C 1_555 1_555
C3C N1C 1_555 1_555
Cl1C C3C 1_555 1_555
C9C N2C 1_555 1_555
Cl3C C9C 1_555 1_555
C10C C9C 1_555 1_555
C11C C10C 1_555 1_555
C12C C8C 1_555 1_555
Cl4C C12C 1_555 1_555
O2 Cu1C 1_555 1_555
C5 C6 1_555 1_555
C7 C8 1_555 1_555
C11 C12 1_555 1_555
C1C O1C_2 1_555 1_555
C8C N2C 1_555 1_555
N1C C2C 1_555 1_555
C4C C3C 1_555 1_555
C11C C12C 1_555 1_555

#END
