
#######################################################################
#
#                 Cambridge Crystallographic Data Centre
#                                CCDC 
#
#######################################################################
#
# If this CIF has been generated from an entry in the Cambridge 
# Structural Database, then it will include bibliographic, chemical, 
# crystal, experimental, refinement or atomic coordinate data resulting 
# from the CCDC's data processing and validation procedures.
#
#######################################################################

data_VEZGIQ01
_symmetry_cell_setting           monoclinic
_symmetry_space_group_name_H-M   'P 21/c'
_symmetry_Int_Tables_number      14
_space_group_name_Hall           '-P 2ybc'
loop_
_symmetry_equiv_pos_site_id
_symmetry_equiv_pos_as_xyz
1 x,y,z
2 -x,1/2+y,1/2-z
3 -x,-y,-z
4 x,1/2-y,1/2+z
_cell_length_a                   9.962(4)
_cell_length_b                   14.709(6)
_cell_length_c                   13.730(6)
_cell_angle_alpha                90
_cell_angle_beta                 104.982(5)
_cell_angle_gamma                90
_cell_volume                     1943.48
loop_
_atom_site_label
_atom_site_type_symbol
_atom_site_fract_x
_atom_site_fract_y
_atom_site_fract_z
O1 O 0.0397(3) 0.5344(2) 0.6461(2)
H13 H 0.0185 0.5729 0.6849
H14 H 0.0585 0.4820 0.6682
O2 O 0.0139(4) 0.50494(19) 0.8461(2)
H15 H -0.0201 0.5401 0.8709
H17 H 0.0532 0.4554 0.8679
C1 C 0.8719(4) 0.7413(3) 0.2480(3)
C2 C 1.0021(4) 0.7201(3) 0.3290(3)
C3 C 1.1078(4) 0.6684(3) 0.3073(3)
H1 H 1.0982 0.6470 0.2422
C4 C 1.2276(4) 0.6486(3) 0.3824(3)
H2 H 1.2972 0.6133 0.3675
C5 C 1.2433(4) 0.6812(3) 0.4786(3)
H3 H 1.3240 0.6682 0.5283
C6 C 1.1405(4) 0.7330(3) 0.5020(3)
H4 H 1.1524 0.7546 0.5674
C7 C 1.0182(4) 0.7531(3) 0.4281(3)
C8 C 0.9057(4) 0.8025(3) 0.4623(3)
C9 C 0.5869(4) 0.5851(3) 0.2073(3)
H5 H 0.6727 0.5971 0.2518
C10 C 0.4897(5) 0.5358(3) 0.2416(3)
H6 H 0.5095 0.5160 0.3081
C11 C 0.3631(5) 0.5167(3) 0.1754(4)
H7 H 0.2963 0.4835 0.1965
C12 C 0.3368(4) 0.5476(3) 0.0766(3)
H8 H 0.2519 0.5356 0.0311
C13 C 0.4381(4) 0.5965(2) 0.0465(3)
C14 C 0.4226(4) 0.6323(3) -0.0568(3)
C15 C 0.3075(4) 0.6168(3) -0.1373(3)
H9 H 0.2336 0.5818 -0.1287
C16 C 0.3046(4) 0.6542(3) -0.2305(3)
H10 H 0.2280 0.6451 -0.2851
C17 C 0.4155(4) 0.7047(3) -0.2416(3)
H11 H 0.4148 0.7306 -0.3035
C18 C 0.5287(4) 0.7165(3) -0.1589(3)
H12 H 0.6043 0.7503 -0.1665
Cu1 Cu 0.68999(4) 0.69378(3) 0.05410(3)
N1 N 0.5322(3) 0.6807(2) -0.0685(2)
N2 N 0.5621(3) 0.6163(2) 0.1122(2)
O4 O 0.8008(3) 0.8080(2) 0.2582(2)
O5 O 0.8444(3) 0.68584(18) 0.1738(2)
O6 O 0.8111(3) 0.74982(18) 0.4785(2)
O7 O 0.9122(3) 0.8850(2) 0.4801(2)
O8 O 0.6097(4) 0.8439(3) 0.0854(3)
H21 H 0.5339 0.8280 0.0898
H22 H 0.6672 0.8558 0.1342
Cu1C Cu 0.68999(4) 0.80622(3) 0.55410(3)
O6C O 0.8111(3) 0.75018(18) -0.0215(2)
O9 O 0.8095(3) 0.5615(2) 0.4652(3)
H16 H 0.8182 0.6167 0.4567
H18 H 0.8406 0.5279 0.4140
O3? O 0.5571(7) 0.5127(5) 0.4935(6)
H19? H 0.6449 0.5048 0.4926
H20? H 0.5310 0.5548 0.4437
loop_
_geom_bond_atom_site_label_1
_geom_bond_atom_site_label_2
_geom_bond_site_symmetry_1
_geom_bond_site_symmetry_2
O1 H13 1_555 1_555
O2 H15 1_555 1_555
C1 C2 1_555 1_555
C2 C3 1_555 1_555
C3 H1 1_555 1_555
C4 C3 1_555 1_555
H2 C4 1_555 1_555
C5 C4 1_555 1_555
H3 C5 1_555 1_555
C6 C5 1_555 1_555
H4 C6 1_555 1_555
C7 C2 1_555 1_555
C8 C7 1_555 1_555
C9 H5 1_555 1_555
C10 C9 1_555 1_555
H6 C10 1_555 1_555
C11 C10 1_555 1_555
H7 C11 1_555 1_555
C12 C11 1_555 1_555
H8 C12 1_555 1_555
C13 C12 1_555 1_555
C14 C13 1_555 1_555
C15 C14 1_555 1_555
H9 C15 1_555 1_555
C16 C15 1_555 1_555
H10 C16 1_555 1_555
C17 C16 1_555 1_555
H11 C17 1_555 1_555
C18 C17 1_555 1_555
H12 C18 1_555 1_555
Cu1 N1 1_555 1_555
N1 C14 1_555 1_555
N2 C9 1_555 1_555
O4 C1 1_555 1_555
O5 C1 1_555 1_555
O6 C8 1_555 1_555
O7 C8 1_555 1_555
O8 Cu1 1_555 1_555
O9 H16 1_555 1_555
H14 O1 1_555 1_555
H17 O2 1_555 1_555
H18 O9 1_555 1_555
H21 O8 1_555 1_555
H22 O8 1_555 1_555
Cu1C O6 1_555 1_555
O6C Cu1 1_555 1_555
C6 C7 1_555 1_555
C13 N2 1_555 1_555
C18 N1 1_555 1_555
Cu1 N2 1_555 1_555
Cu1 O5 1_555 1_555

#END
