
#######################################################################
#
#                 Cambridge Crystallographic Data Centre
#                                CCDC 
#
#######################################################################
#
# If this CIF has been generated from an entry in the Cambridge 
# Structural Database, then it will include bibliographic, chemical, 
# crystal, experimental, refinement or atomic coordinate data resulting 
# from the CCDC's data processing and validation procedures.
#
#######################################################################

data_VEZLAP
_symmetry_cell_setting           triclinic
_symmetry_space_group_name_H-M   'P -1'
_symmetry_Int_Tables_number      2
_space_group_name_Hall           '-P 1'
loop_
_symmetry_equiv_pos_site_id
_symmetry_equiv_pos_as_xyz
1 x,y,z
2 -x,-y,-z
_cell_length_a                   13.4949(3)
_cell_length_b                   13.5043(4)
_cell_length_c                   18.1231(5)
_cell_angle_alpha                70.1100(10)
_cell_angle_beta                 83.5310(10)
_cell_angle_gamma                72.9180(10)
_cell_volume                     2968.42
loop_
_atom_site_label
_atom_site_type_symbol
_atom_site_fract_x
_atom_site_fract_y
_atom_site_fract_z
Hg1 Hg 0.763516(18) 0.074746(18) 0.758845(14)
Cl1 Cl 0.77672(17) 0.05743(19) 0.89353(10)
Cl2 Cl 0.78471(14) -0.06193(14) 0.70054(11)
Hg2 Hg 0.952405(18) 0.215354(18) 0.826382(13)
Cl3 Cl 0.87883(10) 0.21141(10) 0.69428(8)
Cl4 Cl 0.82757(15) 0.34555(13) 0.86860(10)
Hg3 Hg 0.009669(16) 1.382769(16) 0.603247(12)
Cl5 Cl 0.10987(11) 1.28588(12) 0.75023(8)
Cl6 Cl 0.11647(10) 1.52082(11) 0.53013(8)
S1 S 0.27548(12) 0.70162(12) 0.51164(8)
C1 C 0.2036(4) 0.7059(4) 0.5988(3)
C2 C 0.2356(4) 0.6265(4) 0.6716(3)
C3 C 0.1736(4) 0.6276(5) 0.7388(3)
C4 C 0.0799(5) 0.7057(6) 0.7329(4)
H1 H 0.0380 0.7071 0.7785
C5 C 0.0464(5) 0.7819(6) 0.6615(5)
H2 H -0.0194 0.8341 0.6578
C6 C 0.1083(5) 0.7827(5) 0.5947(4)
H3 H 0.0851 0.8365 0.5458
O1 O 0.3285(3) 0.5490(3) 0.6764(2)
C7 C 0.3186(4) 0.4493(4) 0.6704(4)
H4 H 0.2948 0.4622 0.6174
H5 H 0.2669 0.4223 0.7094
C8 C 0.4222(4) 0.3663(4) 0.6854(3)
C9 C 0.5120(4) 0.3938(5) 0.6896(3)
H6 H 0.5099 0.4676 0.6819
C10 C 0.6033(5) 0.3138(5) 0.7048(4)
H7 H 0.6641 0.3335 0.7084
N1 N 0.6117(4) 0.2089(4) 0.7149(3)
C11 C 0.5242(5) 0.1829(5) 0.7100(4)
H8 H 0.5287 0.1087 0.7170
C12 C 0.4302(4) 0.2571(5) 0.6953(4)
H9 H 0.3706 0.2352 0.6919
S2 S 0.20398(14) 0.52277(15) 0.83144(10)
C13 C 0.3334(5) 0.5122(5) 0.8506(3)
C14 C 0.3598(4) 0.5971(4) 0.8638(3)
C15 C 0.4610(4) 0.5836(4) 0.8843(3)
C16 C 0.5339(5) 0.4847(5) 0.8934(3)
H10 H 0.6030 0.4753 0.9067
C17 C 0.5070(6) 0.3990(5) 0.8833(3)
H11 H 0.5573 0.3303 0.8912
C18 C 0.4090(6) 0.4118(5) 0.8620(3)
H12 H 0.3918 0.3522 0.8550
O2 O 0.2858(3) 0.6965(3) 0.85151(19)
C19 C 0.2335(4) 0.7111(4) 0.9228(3)
H13 H 0.2846 0.6969 0.9628
H14 H 0.1897 0.6601 0.9443
C20 C 0.1680(4) 0.8273(4) 0.9012(3)
C21 C 0.1563(4) 0.8875(4) 0.9513(3)
H15 H 0.1891 0.8550 1.0009
C22 C 0.0968(4) 0.9948(5) 0.9293(3)
H16 H 0.0915 1.0360 0.9636
N2 N 0.0464(3) 1.0427(3) 0.8615(3)
C23 C 0.0566(5) 0.9848(5) 0.8127(3)
H17 H 0.0213 1.0186 0.7642
C24 C 0.1167(5) 0.8776(5) 0.8305(3)
H18 H 0.1227 0.8388 0.7945
S3 S 0.49498(12) 0.68586(13) 0.90881(8)
C25 C 0.4556(4) 0.8050(4) 0.8260(3)
C26 C 0.4951(4) 0.8078(4) 0.7505(3)
C27 C 0.4618(4) 0.9036(4) 0.6876(3)
C28 C 0.3925(4) 0.9961(5) 0.7006(4)
H19 H 0.3693 1.0608 0.6574
C29 C 0.3577(5) 0.9943(5) 0.7753(4)
H20 H 0.3124 1.0580 0.7841
C30 C 0.3898(4) 0.8981(5) 0.8377(3)
H21 H 0.3658 0.8966 0.8893
O3 O 0.5659(3) 0.7182(3) 0.73741(19)
C31 C 0.6694(4) 0.7056(5) 0.7591(4)
H22 H 0.6746 0.6788 0.8170
H23 H 0.6850 0.7775 0.7392
C32 C 0.7464(4) 0.6263(4) 0.7257(3)
C33 C 0.7173(4) 0.5657(4) 0.6890(3)
H24 H 0.6460 0.5710 0.6859
C34 C 0.7921(4) 0.4968(4) 0.6566(3)
H25 H 0.7711 0.4566 0.6302
N3 N 0.8928(3) 0.4853(3) 0.6616(2)
C35 C 0.9217(4) 0.5424(4) 0.6992(3)
H26 H 0.9936 0.5328 0.7039
C36 C 0.8519(4) 0.6138(4) 0.7308(3)
H27 H 0.8749 0.6542 0.7560
S4 S 0.51542(12) 0.92088(12) 0.59184(8)
C37 C 0.5008(4) 0.8131(4) 0.5628(3)
C38 C 0.4034(4) 0.8016(4) 0.5551(3)
C39 C 0.3960(4) 0.7191(4) 0.5277(3)
C40 C 0.4860(5) 0.6515(4) 0.5066(3)
H28 H 0.4816 0.5942 0.4890
C41 C 0.5821(5) 0.6670(5) 0.5110(3)
H29 H 0.6430 0.6228 0.4943
C42 C 0.5884(4) 0.7462(5) 0.5396(3)
H30 H 0.6544 0.7556 0.5436
O4 O 0.3166(3) 0.8739(3) 0.57278(19)
C43 C 0.2672(4) 0.9597(4) 0.5041(3)
H31 H 0.2226 0.9328 0.4800
H32 H 0.3204 0.9824 0.4649
C44 C 0.2031(4) 1.0550(4) 0.5282(3)
C45 C 0.1820(4) 1.0485(4) 0.6055(3)
H33 H 0.2048 0.9805 0.6459
C46 C 0.1280(4) 1.1403(4) 0.6241(3)
H34 H 0.1153 1.1348 0.6778
N4 N 0.0922(3) 1.2383(3) 0.5686(2)
C47 C 0.1101(4) 1.2444(4) 0.4937(3)
H35 H 0.0838 1.3128 0.4545
C48 C 0.1650(4) 1.1566(4) 0.4705(3)
H36 H 0.1770 1.1644 0.4164
Hg2_2 Hg -0.047595(18) 1.215354(18) 0.826382(13)
Cl3_2 Cl -0.12117(10) 1.21141(10) 0.69428(8)
Hg3_2 Hg 1.009669(16) 0.382769(16) 0.603247(12)
Hg3A Hg -0.009669(16) 1.617231(16) 0.396753(12)
Cl5_2 Cl 1.10987(11) 0.28588(12) 0.75023(8)
Cl6A Cl -0.11647(10) 1.47918(11) 0.46987(8)
N2_2 N 1.0464(3) 0.0427(3) 0.8615(3)
N3_2 N -0.1072(3) 1.4853(3) 0.6616(2)
C49 C 0.3709(11) 0.1100(14) -0.0311(9)
H37 H 0.3652 0.0340 -0.0031
Cl7 Cl 0.2688(4) 0.1822(4) -0.0962(2)
Cl8 Cl 0.4827(4) 0.1051(4) -0.0819(3)
Cl9 Cl 0.3681(6) 0.1771(7) 0.0378(3)
C50? C 0.1887(13) 0.2189(15) 0.0319(8)
H38? H 0.2293 0.1407 0.0548
Cl10? Cl 0.1616(6) 0.2475(5) -0.0611(3)
Cl11? Cl 0.2534(6) 0.3039(8) 0.0396(3)
Cl12? Cl 0.0788(7) 0.2433(7) 0.0763(6)
C51? C 0.1040(14) 0.3602(13) 0.0149(9)
H39? H 0.1702 0.3369 -0.0134
Cl13? Cl 0.1067(6) 0.4609(5) 0.0532(3)
Cl14? Cl 0.0006(7) 0.3975(12) -0.0417(5)
Cl15? Cl 0.0859(15) 0.2606(12) 0.0918(8)
loop_
_geom_bond_atom_site_label_1
_geom_bond_atom_site_label_2
_geom_bond_site_symmetry_1
_geom_bond_site_symmetry_2
Hg1 Cl1 1_555 1_555
Cl2 Hg1 1_555 1_555
Hg2 Cl3 1_555 1_555
Cl3 Hg1 1_555 1_555
Cl4 Hg2 1_555 1_555
Hg3 Cl5 1_555 1_555
Cl5 Hg2_2 1_555 1_555
Cl6 Hg3 1_555 1_555
S1 C1 1_555 1_555
C1 C2 1_555 1_555
C2 C3 1_555 1_555
C3 C4 1_555 1_555
C4 H1 1_555 1_555
C5 C4 1_555 1_555
H2 C5 1_555 1_555
C6 C1 1_555 1_555
H3 C6 1_555 1_555
O1 C2 1_555 1_555
C7 O1 1_555 1_555
H4 C7 1_555 1_555
H5 C7 1_555 1_555
C8 C7 1_555 1_555
C9 C8 1_555 1_555
H6 C9 1_555 1_555
C10 C9 1_555 1_555
H7 C10 1_555 1_555
N1 Hg1 1_555 1_555
C11 N1 1_555 1_555
H8 C11 1_555 1_555
C12 C8 1_555 1_555
H9 C12 1_555 1_555
S2 C3 1_555 1_555
C13 S2 1_555 1_555
C14 C13 1_555 1_555
C15 C14 1_555 1_555
C16 C15 1_555 1_555
H10 C16 1_555 1_555
C17 C16 1_555 1_555
H11 C17 1_555 1_555
C18 C13 1_555 1_555
H12 C18 1_555 1_555
O2 C14 1_555 1_555
C19 O2 1_555 1_555
H13 C19 1_555 1_555
H14 C19 1_555 1_555
C20 C19 1_555 1_555
C21 C20 1_555 1_555
H15 C21 1_555 1_555
C22 C21 1_555 1_555
H16 C22 1_555 1_555
N2 C22 1_555 1_555
C23 N2 1_555 1_555
H17 C23 1_555 1_555
C24 C20 1_555 1_555
H18 C24 1_555 1_555
S3 C15 1_555 1_555
C25 S3 1_555 1_555
C26 C25 1_555 1_555
C27 C26 1_555 1_555
C28 C27 1_555 1_555
H19 C28 1_555 1_555
C29 C28 1_555 1_555
H20 C29 1_555 1_555
C30 C25 1_555 1_555
H21 C30 1_555 1_555
O3 C26 1_555 1_555
C31 O3 1_555 1_555
H22 C31 1_555 1_555
H23 C31 1_555 1_555
C32 C31 1_555 1_555
C33 C32 1_555 1_555
H24 C33 1_555 1_555
C34 C33 1_555 1_555
H25 C34 1_555 1_555
N3 C34 1_555 1_555
C35 N3 1_555 1_555
H26 C35 1_555 1_555
C36 C32 1_555 1_555
H27 C36 1_555 1_555
S4 C27 1_555 1_555
C37 S4 1_555 1_555
C38 C37 1_555 1_555
C39 S1 1_555 1_555
C40 C39 1_555 1_555
H28 C40 1_555 1_555
C41 C40 1_555 1_555
H29 C41 1_555 1_555
C42 C37 1_555 1_555
H30 C42 1_555 1_555
O4 C38 1_555 1_555
C43 O4 1_555 1_555
H31 C43 1_555 1_555
H32 C43 1_555 1_555
C44 C43 1_555 1_555
C45 C44 1_555 1_555
H33 C45 1_555 1_555
C46 C45 1_555 1_555
H34 C46 1_555 1_555
N4 Hg3 1_555 1_555
C47 N4 1_555 1_555
H35 C47 1_555 1_555
C48 C44 1_555 1_555
H36 C48 1_555 1_555
C49 H37 1_555 1_555
Cl7 C49 1_555 1_555
Cl8 C49 1_555 1_555
Cl9 C49 1_555 1_555
Hg2_2 N2 1_555 1_555
Cl3_2 Hg3 1_555 1_555
Hg3_2 Cl3 1_555 1_555
Hg3A Cl6 1_555 1_555
Cl5_2 Hg2 1_555 1_555
Cl6A Hg3 1_555 1_555
N2_2 Hg2 1_555 1_555
N3_2 Hg3 1_555 1_555
C5 C6 1_555 1_555
C10 N1 1_555 1_555
C11 C12 1_555 1_555
C17 C18 1_555 1_555
C23 C24 1_555 1_555
C29 C30 1_555 1_555
N3 Hg3_2 1_555 1_555
C35 C36 1_555 1_555
C38 C39 1_555 1_555
C41 C42 1_555 1_555
C46 N4 1_555 1_555
C47 C48 1_555 1_555
Hg2_2 Cl3_2 1_555 1_555
Hg3_2 Cl5_2 1_555 1_555
Hg3A Cl6A 1_555 1_555

#END
