
#######################################################################
#
#                 Cambridge Crystallographic Data Centre
#                                CCDC 
#
#######################################################################
#
# If this CIF has been generated from an entry in the Cambridge 
# Structural Database, then it will include bibliographic, chemical, 
# crystal, experimental, refinement or atomic coordinate data resulting 
# from the CCDC's data processing and validation procedures.
#
#######################################################################

data_VEZLIX
_symmetry_cell_setting           orthorhombic
_symmetry_space_group_name_H-M   'C c c a'
_symmetry_Int_Tables_number      68
_space_group_name_Hall           '-C 2b 2bc'
loop_
_symmetry_equiv_pos_site_id
_symmetry_equiv_pos_as_xyz
1 x,y,z
2 1/2-x,-y,z
3 -x,y,1/2-z
4 1/2+x,-y,1/2-z
5 1/2+x,1/2+y,z
6 -x,1/2-y,z
7 1/2-x,1/2+y,1/2-z
8 x,1/2-y,1/2-z
9 -x,-y,-z
10 1/2+x,y,-z
11 x,-y,1/2+z
12 1/2-x,y,1/2+z
13 1/2-x,1/2-y,-z
14 x,1/2+y,-z
15 1/2+x,1/2-y,1/2+z
16 -x,1/2+y,1/2+z
_cell_length_a                   14.3514(3)
_cell_length_b                   21.4182(3)
_cell_length_c                   15.7934(3)
_cell_angle_alpha                90
_cell_angle_beta                 90
_cell_angle_gamma                90
_cell_volume                     4854.59
loop_
_atom_site_label
_atom_site_type_symbol
_atom_site_fract_x
_atom_site_fract_y
_atom_site_fract_z
Hg1 Hg 0.2500 1.0000 1.027925(6)
Cl1 Cl 0.39146(4) 1.03035(2) 1.09556(4)
S1 S 0.0000 0.93481(3) 0.7500
C1 C -0.05898(13) 0.88221(8) 0.81852(11)
C2 C -0.01030(12) 0.84062(8) 0.87010(10)
C3 C -0.05899(13) 0.80104(8) 0.92542(11)
C4 C -0.15580(14) 0.80486(9) 0.92932(12)
H1 H -0.1892 0.7781 0.9664
C5 C -0.20347(13) 0.84715(10) 0.87987(13)
H2 H -0.2694 0.8498 0.8837
C6 C -0.15576(13) 0.88572(9) 0.82475(12)
H3 H -0.1891 0.9148 0.7909
S2 S 0.0000 0.7500 0.99573(4)
O1 O 0.08500(9) 0.83584(6) 0.86450(8)
C7 C 0.13385(13) 0.88123(9) 0.91435(12)
H4 H 0.1240 0.8729 0.9754
H5 H 0.1103 0.9236 0.9015
C8 C 0.23563(12) 0.87710(9) 0.89347(12)
N1 N 0.29100(11) 0.92138(7) 0.92738(10)
C9 C 0.38266(14) 0.91971(10) 0.91083(14)
H6 H 0.4216 0.9506 0.9355
C10 C 0.42283(16) 0.87520(11) 0.85974(16)
H7 H 0.4878 0.8758 0.8481
C11 C 0.36566(16) 0.82935(11) 0.82575(16)
H8 H 0.3913 0.7976 0.7908
C12 C 0.27162(14) 0.83019(10) 0.84291(14)
H9 H 0.2319 0.7989 0.8203
C1B C 0.05898(13) 0.88221(8) 0.68148(11)
C2B C 0.01030(12) 0.84062(8) 0.62990(10)
C3B C 0.05899(13) 0.80104(8) 0.57458(11)
C4B C 0.15580(14) 0.80486(9) 0.57068(12)
H1B H 0.1892 0.7781 0.5336
C5B C 0.20347(13) 0.84715(10) 0.62013(13)
H2B H 0.2694 0.8498 0.6163
C6B C 0.15576(13) 0.88572(9) 0.67525(12)
H3B H 0.1891 0.9148 0.7091
S2B S 0.0000 0.7500 0.50427(4)
O1B O -0.08500(9) 0.83584(6) 0.63550(8)
C7B C -0.13385(13) 0.88123(9) 0.58565(12)
H4B H -0.1240 0.8729 0.5246
H5B H -0.1103 0.9236 0.5985
C8B C -0.23563(12) 0.87710(9) 0.60653(12)
N1B N -0.29100(11) 0.92138(7) 0.57262(10)
C9B C -0.38266(14) 0.91971(10) 0.58917(14)
H6B H -0.4216 0.9506 0.5645
C10B C -0.42283(16) 0.87520(11) 0.64026(16)
H7B H -0.4878 0.8758 0.6519
C11B C -0.36566(16) 0.82935(11) 0.67425(16)
H8B H -0.3913 0.7976 0.7092
C12B C -0.27162(14) 0.83019(10) 0.65709(14)
H9B H -0.2319 0.7989 0.6797
S1E S 0.0000 0.56519(3) 0.7500
C1E C 0.05898(13) 0.61779(8) 0.81852(11)
C2E C 0.01030(12) 0.65938(8) 0.87010(10)
C3E C 0.05899(13) 0.69896(8) 0.92542(11)
C4E C 0.15580(14) 0.69514(9) 0.92932(12)
H1E H 0.1892 0.7219 0.9664
C5E C 0.20347(13) 0.65285(10) 0.87987(13)
H2E H 0.2694 0.6502 0.8837
C6E C 0.15576(13) 0.61428(9) 0.82475(12)
H3E H 0.1891 0.5852 0.7909
O1E O -0.08500(9) 0.66416(6) 0.86450(8)
C7E C -0.13385(13) 0.61877(9) 0.91435(12)
H4E H -0.1240 0.6271 0.9754
H5E H -0.1103 0.5764 0.9015
C8E C -0.23563(12) 0.62290(9) 0.89347(12)
N1E N -0.29100(11) 0.57862(7) 0.92738(10)
C9E C -0.38266(14) 0.58029(10) 0.91083(14)
H6E H -0.4216 0.5494 0.9355
C10E C -0.42283(16) 0.62480(11) 0.85974(16)
H7E H -0.4878 0.6242 0.8481
C11E C -0.36566(16) 0.67065(11) 0.82575(16)
H8E H -0.3913 0.7024 0.7908
C12E C -0.27162(14) 0.66981(10) 0.84291(14)
H9E H -0.2319 0.7011 0.8203
C1G C -0.05898(13) 0.61779(8) 0.68148(11)
C2G C -0.01030(12) 0.65938(8) 0.62990(10)
C3G C -0.05899(13) 0.69896(8) 0.57458(11)
C4G C -0.15580(14) 0.69514(9) 0.57068(12)
H1G H -0.1892 0.7219 0.5336
C5G C -0.20347(13) 0.65285(10) 0.62013(13)
H2G H -0.2694 0.6502 0.6163
C6G C -0.15576(13) 0.61428(9) 0.67525(12)
H3G H -0.1891 0.5852 0.7091
O1G O 0.08500(9) 0.66416(6) 0.63550(8)
C7G C 0.13385(13) 0.61877(9) 0.58565(12)
H4G H 0.1240 0.6271 0.5246
H5G H 0.1103 0.5764 0.5985
C8G C 0.23563(12) 0.62290(9) 0.60653(12)
N1G N 0.29100(11) 0.57862(7) 0.57262(10)
C9G C 0.38266(14) 0.58029(10) 0.58917(14)
H6G H 0.4216 0.5494 0.5645
C10G C 0.42283(16) 0.62480(11) 0.64026(16)
H7G H 0.4878 0.6242 0.6519
C11G C 0.36566(16) 0.67065(11) 0.67425(16)
H8G H 0.3913 0.7024 0.7092
C12G C 0.27162(14) 0.66981(10) 0.65709(14)
H9G H 0.2319 0.7011 0.6797
Cl1A Cl 0.10854(4) 0.96965(2) 1.09556(4)
Hg1B Hg -0.2500 1.0000 0.472075(6)
Cl1B Cl -0.39146(4) 1.03035(2) 0.40444(4)
Cl1C Cl -0.10854(4) 0.96965(2) 0.40444(4)
Hg1D Hg -0.2500 0.5000 1.027925(6)
Hg1F Hg 0.2500 0.5000 0.472075(6)
N1A N 0.20900(11) 1.07862(7) 0.92738(10)
N1C N -0.20900(11) 1.07862(7) 0.57262(10)
loop_
_geom_bond_atom_site_label_1
_geom_bond_atom_site_label_2
_geom_bond_site_symmetry_1
_geom_bond_site_symmetry_2
Hg1 Cl1 1_555 1_555
S1 C1 1_555 1_555
C1 C2 1_555 1_555
C2 C3 1_555 1_555
C3 C4 1_555 1_555
C4 H1 1_555 1_555
C5 C4 1_555 1_555
H2 C5 1_555 1_555
C6 C1 1_555 1_555
H3 C6 1_555 1_555
S2 C3 1_555 1_555
O1 C2 1_555 1_555
C7 O1 1_555 1_555
H4 C7 1_555 1_555
H5 C7 1_555 1_555
C8 C7 1_555 1_555
N1 Hg1 1_555 1_555
C9 N1 1_555 1_555
H6 C9 1_555 1_555
C10 C9 1_555 1_555
H7 C10 1_555 1_555
C11 C10 1_555 1_555
H8 C11 1_555 1_555
C12 C8 1_555 1_555
H9 C12 1_555 1_555
C1B S1 1_555 1_555
C2B C1B 1_555 1_555
C3B C2B 1_555 1_555
C4B C3B 1_555 1_555
H1B C4B 1_555 1_555
C5B C4B 1_555 1_555
H2B C5B 1_555 1_555
C6B C1B 1_555 1_555
H3B C6B 1_555 1_555
S2B C3B 1_555 1_555
O1B C2B 1_555 1_555
C7B O1B 1_555 1_555
H4B C7B 1_555 1_555
H5B C7B 1_555 1_555
C8B C7B 1_555 1_555
N1B C8B 1_555 1_555
C9B N1B 1_555 1_555
H6B C9B 1_555 1_555
C10B C9B 1_555 1_555
H7B C10B 1_555 1_555
C11B C10B 1_555 1_555
H8B C11B 1_555 1_555
C12B C8B 1_555 1_555
H9B C12B 1_555 1_555
S1E C1E 1_555 1_555
C1E C2E 1_555 1_555
C2E C3E 1_555 1_555
C3E S2 1_555 1_555
C4E C3E 1_555 1_555
H1E C4E 1_555 1_555
C5E C4E 1_555 1_555
H2E C5E 1_555 1_555
C6E C1E 1_555 1_555
H3E C6E 1_555 1_555
O1E C2E 1_555 1_555
C7E O1E 1_555 1_555
H4E C7E 1_555 1_555
H5E C7E 1_555 1_555
C8E C7E 1_555 1_555
N1E C8E 1_555 1_555
C9E N1E 1_555 1_555
H6E C9E 1_555 1_555
C10E C9E 1_555 1_555
H7E C10E 1_555 1_555
C11E C10E 1_555 1_555
H8E C11E 1_555 1_555
C12E C8E 1_555 1_555
H9E C12E 1_555 1_555
C1G S1E 1_555 1_555
C2G C1G 1_555 1_555
C3G S2B 1_555 1_555
C4G C3G 1_555 1_555
H1G C4G 1_555 1_555
C5G C4G 1_555 1_555
H2G C5G 1_555 1_555
C6G C1G 1_555 1_555
H3G C6G 1_555 1_555
O1G C2G 1_555 1_555
C7G O1G 1_555 1_555
H4G C7G 1_555 1_555
H5G C7G 1_555 1_555
C8G C7G 1_555 1_555
N1G C8G 1_555 1_555
C9G N1G 1_555 1_555
H6G C9G 1_555 1_555
C10G C9G 1_555 1_555
H7G C10G 1_555 1_555
C11G C10G 1_555 1_555
H8G C11G 1_555 1_555
C12G C8G 1_555 1_555
H9G C12G 1_555 1_555
Cl1A Hg1 1_555 1_555
Hg1B N1B 1_555 1_555
Cl1B Hg1B 1_555 1_555
Cl1C Hg1B 1_555 1_555
Hg1D N1E 1_555 1_555
Hg1F N1G 1_555 1_555
N1A Hg1 1_555 1_555
N1C Hg1B 1_555 1_555
C5 C6 1_555 1_555
C8 N1 1_555 1_555
C11 C12 1_555 1_555
C5B C6B 1_555 1_555
C11B C12B 1_555 1_555
C5E C6E 1_555 1_555
C11E C12E 1_555 1_555
C2G C3G 1_555 1_555
C5G C6G 1_555 1_555
C11G C12G 1_555 1_555

#END
