
#######################################################################
#
#                 Cambridge Crystallographic Data Centre
#                                CCDC 
#
#######################################################################
#
# If this CIF has been generated from an entry in the Cambridge 
# Structural Database, then it will include bibliographic, chemical, 
# crystal, experimental, refinement or atomic coordinate data resulting 
# from the CCDC's data processing and validation procedures.
#
#######################################################################

data_VEZMIY
_symmetry_cell_setting           hexagonal
_symmetry_space_group_name_H-M   'P 61'
_symmetry_Int_Tables_number      169
_space_group_name_Hall           'P 61'
loop_
_symmetry_equiv_pos_site_id
_symmetry_equiv_pos_as_xyz
1 x,y,z
2 x-y,x,1/6+z
3 -y,x-y,1/3+z
4 -x,-y,1/2+z
5 -x+y,-x,2/3+z
6 y,-x+y,5/6+z
_cell_length_a                   20.609(3)
_cell_length_b                   20.609(3)
_cell_length_c                   28.314(4)
_cell_angle_alpha                90
_cell_angle_beta                 90
_cell_angle_gamma                120
_cell_volume                     10414.7
loop_
_atom_site_label
_atom_site_type_symbol
_atom_site_fract_x
_atom_site_fract_y
_atom_site_fract_z
Cd1 Cd -0.66700(3) 0.44366(3) 1.17511(2)
Cd2 Cd -0.23198(4) 0.76915(4) 1.001722(16)
Cd3 Cd -0.33411(3) 1.09013(3) 1.17523(2)
K1 K -0.75283(12) 0.39516(12) 1.04783(8)
K2 K -0.19305(18) 0.72914(16) 1.12998(12)
K3 K -0.51722(14) 1.05898(14) 1.13314(9)
N1 N -0.6288(4) 0.2799(5) 0.9917(3)
H1 H -0.6097 0.2915 0.9627
H2 H -0.6061 0.2599 1.0079
H3 H -0.6218 0.3212 1.0063
N2 N -0.4285(6) 0.6154(6) 1.1912(4)
H4 H -0.4373 0.6241 1.2206
H5 H -0.4709 0.5952 1.1747
H6 H -0.3951 0.6584 1.1778
N3 N -0.7654(7) 0.9354(7) 1.1880(4)
H7 H -0.7733 0.9466 1.2170
H8 H -0.8089 0.9108 1.1727
H9 H -0.7350 0.9774 1.1725
O1 O -0.9826(5) 0.4395(5) 1.3815(3)
O2 O -0.9954(3) 0.4020(3) 1.3069(2)
O3 O -0.6644(3) 0.5047(4) 1.2439(3)
O4 O -0.7758(3) 0.4502(4) 1.2097(2)
O5 O -0.8194(4) -0.0054(3) 1.2607(2)
O6 O -0.7815(4) 0.1013(4) 1.2997(2)
O7 O -0.7702(4) 0.3142(4) 1.1322(2)
O8 O -0.7306(4) 0.3260(3) 1.2053(2)
O9 O -0.6716(3) 0.5069(3) 1.1100(2)
O10 O -0.5590(4) 0.5632(4) 1.1420(3)
O11 O -0.3563(5) 0.7727(5) 0.9762(4)
O12 O -0.3415(4) 0.7319(5) 1.0430(3)
O13 O -0.6470(4) 1.1007(5) 1.3695(4)
O14 O -0.6510(4) 1.0506(4) 1.2989(3)
O15 O -0.3216(3) 1.1502(3) 1.2499(2)
O16 O -0.4193(4) 1.1248(5) 1.2070(3)
O17 O -0.3523(4) 1.1393(4) 1.1023(3)
O18 O -0.2516(4) 1.2142(4) 1.1466(2)
O19 O -0.0269(4) 1.4263(4) 0.9889(3)
O20 O -0.0234(3) 1.3647(4) 1.0513(2)
O21 O -0.2100(4) 1.0989(4) 1.1923(3)
O22 O -0.2751(4) 1.0402(5) 1.1284(3)
O23 O -0.1974(4) 0.8947(4) 1.0289(3)
O24 O -0.1569(4) 0.8333(4) 1.0679(2)
O25 O -0.7318(6) 0.3249(5) 0.9706(3)
H10 H -0.7061 0.3597 0.9469
O26 O -0.6016(5) 0.4097(5) 1.0464(3)
H11 H -0.6014 0.3674 1.0576
O27 O -0.2770(6) 0.6606(6) 1.2119(4)
H12 H -0.2657 0.6937 1.2369
O28 O -0.3222(4) 0.7502(5) 1.1352(3)
H13 H -0.3653 0.7070 1.1256
O29 O -0.6125(6) 0.9883(6) 1.2106(4)
H14 H -0.6101 1.0215 1.2337
O30 O -0.6612(5) 1.0620(5) 1.1316(3)
H15 H -0.7034 1.0188 1.1210
C1 C -0.8410(5) 0.4692(5) 1.2937(3)
H16 H -0.8726 0.4386 1.2700
C2 C -0.8728(4) 0.4782(6) 1.3357(3)
C3 C -0.8238(6) 0.5242(6) 1.3712(3)
H17 H -0.8432 0.5299 1.3996
C4 C -0.7467(7) 0.5614(6) 1.3644(4)
H18 H -0.7156 0.5940 1.3876
C5 C -0.7146(5) 0.5512(6) 1.3236(4)
H19 H -0.6629 0.5736 1.3201
C6 C -0.7653(5) 0.5041(5) 1.2870(4)
C7 C -0.9549(4) 0.4398(5) 1.3417(3)
C8 C -0.7343(4) 0.4857(5) 1.2438(3)
C9 C -0.7954(4) 0.1697(5) 1.2180(3)
H20 H -0.7658 0.2002 1.2425
C10 C -0.8287(4) 0.0928(5) 1.2219(3)
C11 C -0.8746(5) 0.0464(5) 1.1860(3)
H21 H -0.8968 -0.0054 1.1889
C12 C -0.8871(5) 0.0763(5) 1.1467(3)
H22 H -0.9178 0.0448 1.1229
C13 C -0.8543(5) 0.1540(5) 1.1417(3)
H23 H -0.8643 0.1739 1.1150
C14 C -0.8062(5) 0.2021(5) 1.1771(3)
C15 C -0.8093(5) 0.0594(5) 1.2641(3)
C16 C -0.7656(5) 0.2864(5) 1.1714(4)
C17 C -0.4955(5) 0.6550(5) 1.0639(4)
H24 H -0.4639 0.6562 1.0877
C18 C -0.5729(5) 0.6109(5) 1.0683(4)
C19 C -0.6213(6) 0.6142(5) 1.0359(4)
H25 H -0.6728 0.5871 1.0408
C20 C -0.5918(6) 0.6586(6) 0.9959(4)
H26 H -0.6236 0.6587 0.9726
C21 C -0.5132(6) 0.7038(6) 0.9907(4)
H27 H -0.4928 0.7375 0.9658
C22 C -0.4672(6) 0.6966(5) 1.0238(4)
C23 C -0.6022(5) 0.5581(5) 1.1089(3)
C24 C -0.3809(6) 0.7390(7) 1.0142(5)
C25 C -0.4965(5) 1.1298(5) 1.2893(3)
H28 H -0.5254 1.1009 1.2640
C26 C -0.5328(5) 1.1372(5) 1.3288(4)
C27 C -0.4896(6) 1.1812(6) 1.3658(4)
H29 H -0.5125 1.1842 1.3934
C28 C -0.4112(6) 1.2215(6) 1.3619(4)
H30 H -0.3824 1.2563 1.3849
C29 C -0.3770(5) 1.2087(6) 1.3233(3)
H31 H -0.3251 1.2305 1.3225
C30 C -0.4196(5) 1.1637(5) 1.2862(3)
C31 C -0.6159(6) 1.0950(6) 1.3335(5)
C32 C -0.3849(5) 1.1459(5) 1.2458(3)
C33 C -0.1777(5) 1.2993(6) 1.0665(4)
H32 H -0.1485 1.2956 1.0903
C34 C -0.2566(5) 1.2563(5) 1.0699(4)
C35 C -0.2987(5) 1.2645(7) 1.0359(4)
H33 H -0.3507 1.2350 1.0368
C36 C -0.2641(6) 1.3171(8) 0.9997(4)
H34 H -0.2927 1.3262 0.9782
C37 C -0.1856(6) 1.3558(7) 0.9963(4)
H35 H -0.1623 1.3885 0.9712
C38 C -0.1433(5) 1.3461(6) 1.0294(4)
C39 C -0.2895(5) 1.2016(7) 1.1089(4)
C40 C -0.0589(5) 1.3824(5) 1.0229(3)
C41 C -0.1829(5) 0.9795(6) 1.1091(3)
H36 H -0.216(4) 0.975(6) 1.090(3)
C42 C -0.1716(5) 1.0248(5) 1.1504(3)
C43 C -0.1191(5) 1.0305(6) 1.1832(4)
H37 H -0.1092 1.0610 1.2095
C44 C -0.0817(5) 0.9922(6) 1.1774(4)
H38 H -0.0466 0.9977 1.2000
C45 C -0.0940(5) 0.9452(6) 1.1390(4)
H39 H -0.0696 0.9178 1.1361
C46 C -0.1461(5) 0.9415(6) 1.1042(3)
C47 C -0.2208(5) 1.0587(6) 1.1558(4)
C48 C -0.1687(5) 0.8857(5) 1.0636(4)
C49 C -0.7427(8) 0.2056(7) 1.0385(4)
H40 H -0.7954 0.1701 1.0373
H41 H -0.7347 0.2504 1.0540
H42 H -0.7176 0.1844 1.0558
C50 C -0.7116(6) 0.2243(7) 0.9888(4)
H43 H -0.7175 0.1783 0.9746
C51 C -0.7475(7) 0.2547(6) 0.9563(4)
H44 H -0.7291 0.2574 0.9244
H45 H -0.8013 0.2212 0.9561
C52 C -0.5357(8) 0.4979(8) 0.9855(4)
H46 H -0.4868 0.5371 0.9761
H47 H -0.5689 0.5177 0.9879
H48 H -0.5545 0.4586 0.9624
C53 C -0.5305(7) 0.4674(7) 1.0323(4)
H49 H -0.4962 0.4481 1.0302
H50 H -0.5111 0.5071 1.0557
C54 C -0.3836(9) 0.5505(11) 1.1403(5)
H51 H -0.3626 0.5182 1.1389
H52 H -0.3492 0.5981 1.1265
H53 H -0.4300 0.5282 1.1232
C55 C -0.3979(6) 0.5618(6) 1.1918(4)
H54 H -0.4372 0.5135 1.2041
C56 C -0.3314(7) 0.5883(7) 1.2227(4)
H55 H -0.3464 0.5861 1.2554
H56 H -0.3107 0.5553 1.2191
C57 C -0.3045(8) 0.8354(8) 1.1959(5)
H57 H -0.3127 0.8744 1.2077
H58 H -0.2517 0.8540 1.1930
H59 H -0.3259 0.7937 1.2174
C58 C -0.3403(8) 0.8107(6) 1.1491(4)
H60 H -0.3194 0.8518 1.1266
H61 H -0.3940 0.7907 1.1511
C59 C -0.7176(9) 0.8679(10) 1.1418(5)
H62 H -0.7612 0.8528 1.1226
H63 H -0.7075 0.8273 1.1442
H64 H -0.6754 0.9104 1.1277
C60 C -0.7313(8) 0.8888(7) 1.1908(5)
H65 H -0.7701 0.8415 1.2045
C61 C -0.6638(7) 0.9116(8) 1.2213(5)
H66 H -0.6775 0.9059 1.2544
H67 H -0.6414 0.8809 1.2145
C62 C -0.6385(8) 1.1458(9) 1.1954(5)
H68 H -0.6445 1.1863 1.2068
H69 H -0.5861 1.1613 1.1943
H70 H -0.6638 1.1036 1.2162
C63 C -0.6720(8) 1.1236(9) 1.1457(4)
H71 H -0.7248 1.1080 1.1461
H72 H -0.6465 1.1653 1.1241
Cd1A Cd -1.11066(4) 0.33300(3) 1.34178(2)
Cd2B Cd -0.76915(4) -0.00113(6) 1.335055(16)
Cd2B_2 Cd -0.76915(4) 0.99887(6) 1.335055(16)
Cd3E Cd 0.09013(3) 1.42424(4) 1.00856(2)
K1A K -0.14799(17) 1.24717(12) 1.21450(8)
K2B K -0.72914(16) 1.07781(24) 1.46331(12)
K2E K -0.27086(16) 0.92219(24) 0.96331(12)
K3A K -0.57620(20) 0.48278(14) 1.29981(9)
K3B K -1.05898(14) 0.42380(20) 1.46647(9)
K3E K 0.05898(14) 1.57620(20) 0.96647(9)
O1D O -0.5779(7) 0.9826(5) 1.0482(3)
O1E O -0.5605(5) 0.4221(7) 1.2148(3)
O2E O -0.5980(3) 0.3974(4) 1.1402(2)
O3E O -0.4953(4) 1.1691(5) 1.0772(3)
O5D O -0.1860(5) 0.8194(4) 0.9274(2)
O6D O -0.1172(6) 0.7815(4) 0.9664(2)
O11A O -0.1290(7) 0.6437(5) 1.1429(4)
O13D O -0.2523(6) 0.6470(4) 1.0362(4)
O14D O -0.2984(6) 0.6510(4) 0.9656(3)
O15E O -0.8498(3) 0.4718(4) 1.0832(2)
O18E O -0.7858(4) 0.4658(6) 0.9799(2)
O19A O -0.4532(6) 0.9731(4) 1.1556(3)
O20A O -0.3881(5) 0.9766(3) 1.2180(2)
O21E O -0.9011(4) 0.3089(6) 1.0256(3)
O23A O -0.0921(6) 0.8026(4) 1.1956(3)
loop_
_geom_bond_atom_site_label_1
_geom_bond_atom_site_label_2
_geom_bond_site_symmetry_1
_geom_bond_site_symmetry_2
Cd1 O3 1_555 1_555
Cd2 O11 1_555 1_555
Cd3 O15 1_555 1_555
K1 O7 1_555 1_555
K2 O24 1_555 1_555
K3 O16 1_555 1_555
N1 H1 1_555 1_555
H2 N1 1_555 1_555
H3 N1 1_555 1_555
N2 H4 1_555 1_555
H5 N2 1_555 1_555
H6 N2 1_555 1_555
N3 H7 1_555 1_555
H8 N3 1_555 1_555
H9 N3 1_555 1_555
O1 C7 1_555 1_555
O2 C7 1_555 1_555
O3 C8 1_555 1_555
O4 Cd1 1_555 1_555
O5 C15 1_555 1_555
O6 C15 1_555 1_555
O7 Cd1 1_555 1_555
O8 Cd1 1_555 1_555
O9 Cd1 1_555 1_555
O10 Cd1 1_555 1_555
O11 C24 1_555 1_555
O12 Cd2 1_555 1_555
O13 C31 1_555 1_555
O14 C31 1_555 1_555
O15 C32 1_555 1_555
O16 Cd3 1_555 1_555
O17 Cd3 1_555 1_555
O18 Cd3 1_555 1_555
O19 C40 1_555 1_555
O20 C40 1_555 1_555
O21 Cd3 1_555 1_555
O22 Cd3 1_555 1_555
O23 Cd2 1_555 1_555
O24 Cd2 1_555 1_555
O25 K1 1_555 1_555
H10 O25 1_555 1_555
O26 K1 1_555 1_555
H11 O26 1_555 1_555
O27 K2 1_555 1_555
H12 O27 1_555 1_555
O28 K2 1_555 1_555
H13 O28 1_555 1_555
O29 K3 1_555 1_555
H14 O29 1_555 1_555
O30 K3 1_555 1_555
H15 O30 1_555 1_555
C1 H16 1_555 1_555
C2 C1 1_555 1_555
C3 C2 1_555 1_555
H17 C3 1_555 1_555
C4 C3 1_555 1_555
H18 C4 1_555 1_555
C5 C4 1_555 1_555
H19 C5 1_555 1_555
C6 C1 1_555 1_555
C7 C2 1_555 1_555
C8 O4 1_555 1_555
C9 H20 1_555 1_555
C10 C9 1_555 1_555
C11 C10 1_555 1_555
H21 C11 1_555 1_555
C12 C11 1_555 1_555
H22 C12 1_555 1_555
C13 C12 1_555 1_555
H23 C13 1_555 1_555
C14 C9 1_555 1_555
C15 C10 1_555 1_555
C16 O7 1_555 1_555
C17 H24 1_555 1_555
C18 C17 1_555 1_555
C19 C18 1_555 1_555
H25 C19 1_555 1_555
C20 C19 1_555 1_555
H26 C20 1_555 1_555
C21 C20 1_555 1_555
H27 C21 1_555 1_555
C22 C17 1_555 1_555
C23 O9 1_555 1_555
C24 O12 1_555 1_555
C25 H28 1_555 1_555
C26 C25 1_555 1_555
C27 C26 1_555 1_555
H29 C27 1_555 1_555
C28 C27 1_555 1_555
H30 C28 1_555 1_555
C29 C28 1_555 1_555
H31 C29 1_555 1_555
C30 C25 1_555 1_555
C31 C26 1_555 1_555
C32 O16 1_555 1_555
C33 H32 1_555 1_555
C34 C33 1_555 1_555
C35 C34 1_555 1_555
H33 C35 1_555 1_555
C36 C35 1_555 1_555
H34 C36 1_555 1_555
C37 C36 1_555 1_555
H35 C37 1_555 1_555
C38 C33 1_555 1_555
C39 O17 1_555 1_555
C40 C38 1_555 1_555
C41 H36 1_555 1_555
C42 C41 1_555 1_555
C43 C42 1_555 1_555
H37 C43 1_555 1_555
C44 C43 1_555 1_555
H38 C44 1_555 1_555
C45 C44 1_555 1_555
H39 C45 1_555 1_555
C46 C41 1_555 1_555
C47 O21 1_555 1_555
C48 O23 1_555 1_555
C49 H40 1_555 1_555
H41 C49 1_555 1_555
H42 C49 1_555 1_555
C50 N1 1_555 1_555
H43 C50 1_555 1_555
C51 O25 1_555 1_555
H44 C51 1_555 1_555
H45 C51 1_555 1_555
C52 H46 1_555 1_555
H47 C52 1_555 1_555
H48 C52 1_555 1_555
C53 O26 1_555 1_555
H49 C53 1_555 1_555
H50 C53 1_555 1_555
C54 H51 1_555 1_555
H52 C54 1_555 1_555
H53 C54 1_555 1_555
C55 N2 1_555 1_555
H54 C55 1_555 1_555
C56 O27 1_555 1_555
H55 C56 1_555 1_555
H56 C56 1_555 1_555
C57 H57 1_555 1_555
H58 C57 1_555 1_555
H59 C57 1_555 1_555
C58 O28 1_555 1_555
H60 C58 1_555 1_555
H61 C58 1_555 1_555
C59 H62 1_555 1_555
H63 C59 1_555 1_555
H64 C59 1_555 1_555
C60 N3 1_555 1_555
H65 C60 1_555 1_555
C61 O29 1_555 1_555
H66 C61 1_555 1_555
H67 C61 1_555 1_555
C62 H68 1_555 1_555
H69 C62 1_555 1_555
H70 C62 1_555 1_555
C63 O30 1_555 1_555
H71 C63 1_555 1_555
H72 C63 1_555 1_555
Cd1A O1 1_555 1_555
Cd2B O5 1_555 1_555
Cd2B_2 O13 1_555 1_555
Cd3E O19 1_555 1_555
K1A O15 1_555 1_555
K2B O13 1_555 1_555
K2E O11 1_555 1_555
K3A O3 1_555 1_555
K3B O1 1_555 1_555
K3E O19 1_555 1_555
O1D K3 1_555 1_555
O1E Cd1 1_555 1_555
O2E Cd1 1_555 1_555
O3E K3 1_555 1_555
O5D Cd2 1_555 1_555
O6D Cd2 1_555 1_555
O11A K2 1_555 1_555
O13D Cd2 1_555 1_555
O14D Cd2 1_555 1_555
O15E K1 1_555 1_555
O18E K1 1_555 1_555
O19A Cd3 1_555 1_555
O20A Cd3 1_555 1_555
O21E K1 1_555 1_555
O23A K2 1_555 1_555
K1 O9 1_555 1_555
K2 O13D 1_555 1_555
K3 O17 1_555 1_555
K3 O19A 1_555 1_555
O2 Cd1A 1_555 1_555
O6 Cd2B 1_555 1_555
O8 C16 1_555 1_555
O10 C23 1_555 1_555
O14 Cd2B_2 1_555 1_555
O18 C39 1_555 1_555
O18 K1A 1_555 1_555
O20 Cd3E 1_555 1_555
O21 K1A 1_555 1_555
O22 C47 1_555 1_555
O23 K2E 1_555 1_555
O24 C48 1_555 1_555
C5 C6 1_555 1_555
C6 C8 1_555 1_555
C13 C14 1_555 1_555
C14 C16 1_555 1_555
C18 C23 1_555 1_555
C21 C22 1_555 1_555
C22 C24 1_555 1_555
C29 C30 1_555 1_555
C30 C32 1_555 1_555
C34 C39 1_555 1_555
C37 C38 1_555 1_555
C42 C47 1_555 1_555
C45 C46 1_555 1_555
C46 C48 1_555 1_555
C49 C50 1_555 1_555
C50 C51 1_555 1_555
C52 C53 1_555 1_555
C54 C55 1_555 1_555
C55 C56 1_555 1_555
C57 C58 1_555 1_555
C59 C60 1_555 1_555
C60 C61 1_555 1_555
C62 C63 1_555 1_555
K3A O1E 1_555 1_555

#END
