
#######################################################################
#
#                 Cambridge Crystallographic Data Centre
#                                CCDC 
#
#######################################################################
#
# If this CIF has been generated from an entry in the Cambridge 
# Structural Database, then it will include bibliographic, chemical, 
# crystal, experimental, refinement or atomic coordinate data resulting 
# from the CCDC's data processing and validation procedures.
#
#######################################################################

data_VEZRUP
_symmetry_cell_setting           triclinic
_symmetry_space_group_name_H-M   'P -1'
_symmetry_Int_Tables_number      2
_space_group_name_Hall           '-P 1'
loop_
_symmetry_equiv_pos_site_id
_symmetry_equiv_pos_as_xyz
1 x,y,z
2 -x,-y,-z
_cell_length_a                   14.0539(4)
_cell_length_b                   15.7062(5)
_cell_length_c                   17.3266(4)
_cell_angle_alpha                85.636(2)
_cell_angle_beta                 66.492(2)
_cell_angle_gamma                81.586(2)
_cell_volume                     3468.73
loop_
_atom_site_label
_atom_site_type_symbol
_atom_site_fract_x
_atom_site_fract_y
_atom_site_fract_z
Ag1 Ag 0.90740(2) -0.047979(18) 0.034271(15)
Ag2 Ag 0.61113(2) 0.451741(19) 0.450688(16)
P1 P 0.89300(7) 0.01483(6) 0.16381(5)
P2 P 0.98453(7) 0.16170(6) 0.06176(5)
P3 P 0.54402(7) 0.35825(6) 0.57467(5)
P4 P 0.42333(7) 0.50395(6) 0.67600(5)
N1 N 0.9063(2) 0.12196(19) 0.15637(16)
N2 N 0.4986(2) 0.4071(2) 0.66973(17)
N3 N 0.7715(3) 0.0220(3) 0.0018(2)
N4 N 0.7257(3) 0.5324(2) 0.4733(2)
S1 S 0.80000(8) 0.34835(7) 0.34259(6)
S2 S 0.4259(3) 0.3688(4) 0.9539(2)
C1 C 0.8448(3) 0.1821(2) 0.2268(2)
H1 H 0.7733 0.1690 0.2516
H2 H 0.8436 0.2404 0.2038
C2 C 0.8862(3) 0.1788(2) 0.2957(2)
H3 H 0.9539 0.1997 0.2735
H4 H 0.8952 0.1197 0.3150
C3 C 0.8100(3) 0.2342(3) 0.3696(2)
H5 H 0.8330 0.2253 0.4158
H6 H 0.7413 0.2155 0.3887
C4 C 0.9127(3) 0.3753(3) 0.3538(3)
H7 H 0.9059 0.3644 0.4110
H8 H 0.9188 0.4351 0.3399
H9 H 0.9740 0.3409 0.3167
C5 C 0.4956(3) 0.3555(3) 0.7473(2)
H10 H 0.4244 0.3618 0.7891
H11 H 0.5156 0.2952 0.7331
C6 C 0.5660(3) 0.3816(3) 0.7850(3)
H12 H 0.5370 0.4368 0.8118
H13 H 0.6343 0.3873 0.7411
C7 C 0.5533(10) 0.3376(9) 0.8702(8)
H14 H 0.6075 0.3518 0.8865
H15 H 0.5633 0.2757 0.8638
C8 C 0.4470(10) 0.3396(11) 1.0458(8)
H16 H 0.4746 0.2798 1.0440
H17 H 0.3820 0.3492 1.0938
H18 H 0.4960 0.3738 1.0500
C9 C 0.7672(3) 0.0113(2) 0.2516(2)
C10 C 0.7582(3) -0.0008(3) 0.3351(2)
H19 H 0.8176 -0.0146 0.3470
C11 C 0.6596(4) 0.0081(4) 0.3996(3)
H20 H 0.6533 0.0014 0.4551
C12 C 0.5730(4) 0.0263(4) 0.3832(3)
H21 H 0.5078 0.0323 0.4276
C13 C 0.5788(4) 0.0360(4) 0.3029(3)
H22 H 0.5182 0.0474 0.2924
C14 C 0.6779(3) 0.0286(3) 0.2355(3)
H23 H 0.6829 0.0353 0.1803
C15 C 0.9873(3) -0.0433(3) 0.2025(2)
C16 C 1.0649(3) -0.0070(3) 0.2134(2)
H24 H 1.0654 0.0523 0.2078
C17 C 1.1417(4) -0.0581(4) 0.2327(3)
H25 H 1.1941 -0.0333 0.2392
C18 C 1.1402(5) -0.1459(4) 0.2421(3)
H26 H 1.1921 -0.1805 0.2546
C19 C 1.0625(5) -0.1821(4) 0.2331(3)
H27 H 1.0604 -0.2411 0.2416
C20 C 0.9870(4) -0.1318(3) 0.2117(3)
H28 H 0.9362 -0.1572 0.2034
C21 C 0.8984(3) 0.2338(2) 0.0240(2)
C22 C 0.9427(3) 0.2862(3) -0.0465(2)
H29 H 1.0151 0.2839 -0.0723
C23 C 0.8811(3) 0.3413(3) -0.0785(2)
H30 H 0.9120 0.3762 -0.1251
C24 C 0.7726(3) 0.3448(3) -0.0412(2)
H31 H 0.7307 0.3825 -0.0621
C25 C 0.7279(3) 0.2910(3) 0.0279(2)
H32 H 0.6556 0.2921 0.0525
C26 C 0.7898(3) 0.2360(3) 0.0602(2)
H33 H 0.7590 0.2003 0.1063
C27 C 1.0570(3) 0.2333(2) 0.0887(2)
C28 C 1.0194(3) 0.3197(2) 0.1084(2)
H34 H 0.9574 0.3441 0.1039
C29 C 1.0750(3) 0.3687(3) 0.1345(2)
H35 H 1.0496 0.4261 0.1481
C30 C 1.1662(4) 0.3338(3) 0.1406(3)
H36 H 1.2027 0.3677 0.1579
C31 C 1.2058(4) 0.2480(3) 0.1212(3)
H37 H 1.2680 0.2246 0.1259
C32 C 1.1520(3) 0.1984(3) 0.0948(2)
H38 H 1.1786 0.1413 0.0809
C33 C 0.4439(3) 0.2973(2) 0.5746(2)
C34 C 0.3646(4) 0.2723(3) 0.6465(3)
H39 H 0.3622 0.2848 0.6989
C35 C 0.2879(5) 0.2285(4) 0.6416(3)
H40 H 0.2336 0.2130 0.6903
C36 C 0.2934(5) 0.2085(4) 0.5644(3)
H41 H 0.2428 0.1787 0.5609
C37 C 0.3722(5) 0.2319(3) 0.4920(3)
H42 H 0.3756 0.2174 0.4398
C38 C 0.4464(4) 0.2769(3) 0.4971(3)
H43 H 0.4990 0.2938 0.4479
C39 C 0.6457(3) 0.2754(3) 0.5811(2)
C40 C 0.7376(3) 0.3026(3) 0.5787(2)
H44 H 0.7441 0.3610 0.5758
C41 C 0.8181(4) 0.2420(4) 0.5809(3)
H45 H 0.8788 0.2592 0.5805
C42 C 0.8079(5) 0.1552(4) 0.5835(3)
H46 H 0.8623 0.1145 0.5849
C43 C 0.7201(5) 0.1287(3) 0.5840(3)
H47 H 0.7155 0.0702 0.5847
C44 C 0.6384(4) 0.1876(3) 0.5835(3)
H48 H 0.5779 0.1690 0.5847
C45 C 0.3035(3) 0.4906(2) 0.7667(2)
C46 C 0.2874(3) 0.5079(3) 0.8491(2)
H49 H 0.3372 0.5325 0.8597
C47 C 0.1963(3) 0.4882(3) 0.9154(2)
H50 H 0.1851 0.4999 0.9704
C48 C 0.1229(3) 0.4512(3) 0.8996(3)
H51 H 0.0633 0.4368 0.9443
C49 C 0.1368(3) 0.4354(3) 0.8185(3)
H52 H 0.0861 0.4118 0.8082
C50 C 0.2268(3) 0.4550(3) 0.7525(2)
H53 H 0.2364 0.4442 0.6977
C51 C 0.4833(3) 0.5830(2) 0.7064(2)
C52 C 0.4236(3) 0.6616(3) 0.7386(2)
H54 H 0.3528 0.6702 0.7487
C53 C 0.4690(3) 0.7261(3) 0.7553(2)
H55 H 0.4286 0.7781 0.7762
C54 C 0.5742(4) 0.7145(3) 0.7413(3)
H56 H 0.6041 0.7578 0.7537
C55 C 0.6344(3) 0.6375(3) 0.7084(3)
H57 H 0.7050 0.6289 0.6990
C56 C 0.5897(3) 0.5735(3) 0.6897(2)
H58 H 0.6315 0.5231 0.6656
C57 C 0.7102(4) 0.0624(3) -0.0165(3)
C58 C 0.6320(5) 0.1161(4) -0.0395(4)
H59 H 0.6564 0.1703 -0.0617
H60 H 0.5679 0.1256 0.0094
H61 H 0.6198 0.0879 -0.0813
C59 C 0.7905(3) 0.5622(3) 0.4793(2)
C60 C 0.8761(4) 0.5993(4) 0.4860(4)
H62 H 0.8834 0.5793 0.5374
H63 H 0.8613 0.6609 0.4861
H64 H 0.9399 0.5820 0.4390
Ag1A Ag 1.09260(2) 0.047979(18) -0.034271(15)
Ag2A Ag 0.38887(2) 0.548259(19) 0.549312(16)
P2A P 1.01547(7) -0.16170(6) -0.06176(5)
P4A P 0.57667(7) 0.49605(6) 0.32400(5)
N5 N 0.7884(4) -0.1854(3) 0.1354(3)
C61 C 0.7122(4) -0.1688(3) 0.1273(3)
C62 C 0.6170(5) -0.1447(5) 0.1147(5)
H65 H 0.6273 -0.1011 0.0712
H66 H 0.5627 -0.1228 0.1660
H67 H 0.5971 -0.1942 0.0984
C63 C 0.0699(7) 0.0842(6) 0.4246(6)
H68 H 0.1117 0.0346 0.3918
H69 H -0.0032 0.0756 0.4450
C64 C 0.0999(8) 0.0923(6) 0.4998(6)
H70 H 0.0417 0.0885 0.5537
O1 O 0.1921(11) 0.0874(9) 0.4708(9)
C65 C 0.2341(9) 0.1352(12) 0.3922(9)
H71 H 0.2560 0.1887 0.3995
C66 C 0.1346(13) 0.1505(13) 0.3726(13)
H72 H 0.0983 0.2080 0.3882
H73 H 0.1520 0.1430 0.3132
B1 B 0.3966(18) 0.0494(16) 0.1841(17)
F1 F 0.3490(10) 0.0764(9) 0.2783(10)
F2 F 0.5062(14) 0.0642(13) 0.1498(14)
F3 F 0.3364(12) 0.0712(10) 0.1495(11)
F4 F 0.3923(17) -0.0383(14) 0.2094(15)
B2 B 0.8682(5) 0.4572(5) 0.7124(4)
F5 F 0.959(2) 0.4420(15) 0.7247(18)
F6 F 0.8700(12) 0.5113(11) 0.6576(9)
F7 F 0.8433(10) 0.3801(8) 0.7018(11)
F8 F 0.7915(14) 0.4846(8) 0.7889(10)
S3? S 0.4597(3) 0.3168(2) 0.94834(19)
C67? C 0.5769(10) 0.3113(8) 0.8518(7)
H74? H 0.6361 0.3194 0.8647
H75? H 0.5905 0.2546 0.8281
C68? C 0.4550(10) 0.4242(9) 0.9912(7)
H76? H 0.5122 0.4229 1.0084
H77? H 0.3901 0.4367 1.0388
H78? H 0.4602 0.4680 0.9484
O2? O 0.1277(9) 0.1853(7) 0.4763(7)
C69? C 0.1497(15) 0.2194(11) 0.3867(10)
H79? H 0.1219 0.2793 0.3843
H80? H 0.2232 0.2097 0.3496
C70? C 0.0869(16) 0.1593(11) 0.3735(13)
H81? H 0.0191 0.1907 0.3811
H82? H 0.1204 0.1418 0.3153
B3? B 0.418(3) 0.064(3) 0.152(2)
F9? F 0.4895(17) 0.0945(13) 0.1546(14)
F10? F 0.3367(8) 0.1174(6) 0.2150(7)
F11? F 0.3908(7) 0.0680(6) 0.0850(5)
F12? F 0.406(2) -0.0168(17) 0.1887(18)
F13? F 0.961(2) 0.4145(15) 0.7129(19)
F14? F 0.8809(9) 0.5456(7) 0.6821(7)
F15? F 0.8510(8) 0.4269(8) 0.6466(6)
F16? F 0.7859(11) 0.4535(11) 0.7825(9)
H83? H 0.2916 0.1015 0.3494
H84? H 0.1594 0.0514 0.4983
loop_
_geom_bond_atom_site_label_1
_geom_bond_atom_site_label_2
_geom_bond_site_symmetry_1
_geom_bond_site_symmetry_2
Ag1 P1 1_555 1_555
Ag2 P3 1_555 1_555
P1 N1 1_555 1_555
P2 N1 1_555 1_555
P3 N2 1_555 1_555
P4 N2 1_555 1_555
N1 C1 1_555 1_555
N2 C5 1_555 1_555
N3 Ag1 1_555 1_555
N4 Ag2 1_555 1_555
S1 Ag2 1_555 1_555
S2 C7 1_555 1_555
C1 H1 1_555 1_555
H2 C1 1_555 1_555
C2 C1 1_555 1_555
H3 C2 1_555 1_555
H4 C2 1_555 1_555
C3 S1 1_555 1_555
H5 C3 1_555 1_555
H6 C3 1_555 1_555
C4 S1 1_555 1_555
H7 C4 1_555 1_555
H8 C4 1_555 1_555
H9 C4 1_555 1_555
C5 H10 1_555 1_555
H11 C5 1_555 1_555
C6 C5 1_555 1_555
H12 C6 1_555 1_555
H13 C6 1_555 1_555
C7 C6 1_555 1_555
H14 C7 1_555 1_555
H15 C7 1_555 1_555
C8 S2 1_555 1_555
H16 C8 1_555 1_555
H17 C8 1_555 1_555
H18 C8 1_555 1_555
C9 P1 1_555 1_555
C10 C9 1_555 1_555
H19 C10 1_555 1_555
C11 C10 1_555 1_555
H20 C11 1_555 1_555
C12 C11 1_555 1_555
H21 C12 1_555 1_555
C13 C12 1_555 1_555
H22 C13 1_555 1_555
C14 C9 1_555 1_555
H23 C14 1_555 1_555
C15 P1 1_555 1_555
C16 C15 1_555 1_555
H24 C16 1_555 1_555
C17 C16 1_555 1_555
H25 C17 1_555 1_555
C18 C17 1_555 1_555
H26 C18 1_555 1_555
C19 C18 1_555 1_555
H27 C19 1_555 1_555
C20 C15 1_555 1_555
H28 C20 1_555 1_555
C21 P2 1_555 1_555
C22 C21 1_555 1_555
H29 C22 1_555 1_555
C23 C22 1_555 1_555
H30 C23 1_555 1_555
C24 C23 1_555 1_555
H31 C24 1_555 1_555
C25 C24 1_555 1_555
H32 C25 1_555 1_555
C26 C21 1_555 1_555
H33 C26 1_555 1_555
C27 P2 1_555 1_555
C28 C27 1_555 1_555
H34 C28 1_555 1_555
C29 C28 1_555 1_555
H35 C29 1_555 1_555
C30 C29 1_555 1_555
H36 C30 1_555 1_555
C31 C30 1_555 1_555
H37 C31 1_555 1_555
C32 C27 1_555 1_555
H38 C32 1_555 1_555
C33 P3 1_555 1_555
C34 C33 1_555 1_555
H39 C34 1_555 1_555
C35 C34 1_555 1_555
H40 C35 1_555 1_555
C36 C35 1_555 1_555
H41 C36 1_555 1_555
C37 C36 1_555 1_555
H42 C37 1_555 1_555
C38 C33 1_555 1_555
H43 C38 1_555 1_555
C39 P3 1_555 1_555
C40 C39 1_555 1_555
H44 C40 1_555 1_555
C41 C40 1_555 1_555
H45 C41 1_555 1_555
C42 C41 1_555 1_555
H46 C42 1_555 1_555
C43 C42 1_555 1_555
H47 C43 1_555 1_555
C44 C39 1_555 1_555
H48 C44 1_555 1_555
C45 P4 1_555 1_555
C46 C45 1_555 1_555
H49 C46 1_555 1_555
C47 C46 1_555 1_555
H50 C47 1_555 1_555
C48 C47 1_555 1_555
H51 C48 1_555 1_555
C49 C48 1_555 1_555
H52 C49 1_555 1_555
C50 C45 1_555 1_555
H53 C50 1_555 1_555
C51 P4 1_555 1_555
C52 C51 1_555 1_555
H54 C52 1_555 1_555
C53 C52 1_555 1_555
H55 C53 1_555 1_555
C54 C53 1_555 1_555
H56 C54 1_555 1_555
C55 C54 1_555 1_555
H57 C55 1_555 1_555
C56 C51 1_555 1_555
H58 C56 1_555 1_555
C57 N3 1_555 1_555
C58 C57 1_555 1_555
H59 C58 1_555 1_555
H60 C58 1_555 1_555
H61 C58 1_555 1_555
C59 N4 1_555 1_555
C60 C59 1_555 1_555
H62 C60 1_555 1_555
H63 C60 1_555 1_555
H64 C60 1_555 1_555
N5 C61 1_555 1_555
C61 C62 1_555 1_555
C62 H65 1_555 1_555
H66 C62 1_555 1_555
H67 C62 1_555 1_555
C63 H68 1_555 1_555
H69 C63 1_555 1_555
C64 C63 1_555 1_555
H70 C64 1_555 1_555
O1 C64 1_555 1_555
C65 O1 1_555 1_555
H71 C65 1_555 1_555
C66 C63 1_555 1_555
H72 C66 1_555 1_555
H73 C66 1_555 1_555
B1 F1 1_555 1_555
F2 B1 1_555 1_555
F3 B1 1_555 1_555
F4 B1 1_555 1_555
B2 F5 1_555 1_555
F6 B2 1_555 1_555
F7 B2 1_555 1_555
F8 B2 1_555 1_555
Ag1A Ag1 1_555 1_555
Ag2A Ag2 1_555 1_555
P2A Ag1 1_555 1_555
P4A Ag2 1_555 1_555
P2 Ag1A 1_555 1_555
P4 Ag2A 1_555 1_555
C2 C3 1_555 1_555
C13 C14 1_555 1_555
C19 C20 1_555 1_555
C25 C26 1_555 1_555
C31 C32 1_555 1_555
C37 C38 1_555 1_555
C43 C44 1_555 1_555
C49 C50 1_555 1_555
C55 C56 1_555 1_555
C65 C66 1_555 1_555

#END
