
#######################################################################
#
#                 Cambridge Crystallographic Data Centre
#                                CCDC 
#
#######################################################################
#
# If this CIF has been generated from an entry in the Cambridge 
# Structural Database, then it will include bibliographic, chemical, 
# crystal, experimental, refinement or atomic coordinate data resulting 
# from the CCDC's data processing and validation procedures.
#
#######################################################################

data_VEZVON
_symmetry_cell_setting           monoclinic
_symmetry_space_group_name_H-M   'C 2/c'
_symmetry_Int_Tables_number      15
_space_group_name_Hall           '-C 2yn'
loop_
_symmetry_equiv_pos_site_id
_symmetry_equiv_pos_as_xyz
1 x,y,z
2 -x,y,1/2-z
3 1/2+x,1/2+y,z
4 1/2-x,1/2+y,1/2-z
5 -x,-y,-z
6 x,-y,1/2+z
7 1/2-x,1/2-y,-z
8 1/2+x,1/2-y,1/2+z
_cell_length_a                   21.682(3)
_cell_length_b                   10.8253(11)
_cell_length_c                   12.0065(12)
_cell_angle_alpha                90
_cell_angle_beta                 121.662(4)
_cell_angle_gamma                90
_cell_volume                     2398.65
loop_
_atom_site_label
_atom_site_type_symbol
_atom_site_fract_x
_atom_site_fract_y
_atom_site_fract_z
Mn1 Mn 0.5000 0.39043(3) 0.2500
Mn2 Mn 0.5000 0.5000 0.0000
C1 C 0.43645(12) 0.24099(18) 0.3885(2)
C2 C 0.39219(12) 0.13311(18) 0.3890(2)
C3 C 0.34805(13) 0.1488(2) 0.4388(2)
H1 H 0.3473 0.2239 0.4758
C4 C 0.30528(13) 0.0530(2) 0.4335(2)
H2 H 0.2750 0.0638 0.4659
C5 C 0.34976(15) -0.0741(2) 0.3363(2)
H3 H 0.3507 -0.1511 0.3028
C6 C 0.39323(14) 0.0194(2) 0.3374(2)
H4 H 0.4228 0.0063 0.3039
C7 C 0.25713(14) -0.1550(2) 0.3734(2)
H5 H 0.2583 -0.2226 0.3215
H6 H 0.2080 -0.1233 0.3293
C8 C 0.27778(12) -0.20256(19) 0.5064(2)
H7 H 0.2800 -0.1344 0.5608
H8 H 0.3254 -0.2405 0.5481
C9 C 0.35895(13) 0.4612(2) -0.0286(2)
C10 C 0.60926(14) 0.6033(2) 0.2668(2)
N1 N 0.41673(10) 0.41785(17) 0.03673(17)
N2 N 0.56512(11) 0.52774(17) 0.21274(18)
N3 N 0.30668(10) -0.05570(16) 0.38219(18)
O1 O 0.44942(9) 0.24356(13) 0.29864(15)
O2 O 0.45411(10) 0.31755(14) 0.47793(16)
O3 O 0.30021(12) 0.5045(3) -0.0954(3)
O4 O 0.65540(13) 0.6794(2) 0.3215(2)
C1F C 0.06355(12) -0.74099(18) 0.6115(2)
C2F C 0.10781(12) -0.63311(18) 0.6110(2)
C3F C 0.15195(13) -0.6488(2) 0.5612(2)
H1F H 0.1527 -0.7239 0.5242
C4F C 0.19472(13) -0.5530(2) 0.5665(2)
H2F H 0.2250 -0.5638 0.5341
C5F C 0.15024(15) -0.4259(2) 0.6637(2)
H3F H 0.1493 -0.3489 0.6972
C6F C 0.10677(14) -0.5194(2) 0.6626(2)
H4F H 0.0772 -0.5063 0.6961
C7F C 0.24287(14) -0.3450(2) 0.6266(2)
H5F H 0.2417 -0.2774 0.6785
H6F H 0.2920 -0.3767 0.6707
C8F C 0.22222(12) -0.29744(19) 0.4936(2)
H7F H 0.2200 -0.3656 0.4392
H8F H 0.1746 -0.2595 0.4519
N3F N 0.19332(10) -0.44430(16) 0.61781(18)
O1F O 0.05058(9) -0.74356(13) 0.70136(15)
O2F O 0.04589(10) -0.81755(14) 0.52207(16)
C9A C 0.64105(13) 0.4612(2) 0.5286(2)
C10A C 0.39074(14) 0.6033(2) 0.2332(2)
N1A N 0.58327(10) 0.41785(17) 0.46327(17)
N2A N 0.43488(11) 0.52774(17) 0.28726(18)
O3A O 0.69979(12) 0.5045(3) 0.5954(3)
O4A O 0.34460(13) 0.6794(2) 0.1785(2)
Mn1F Mn 0.0000 -0.89043(3) 0.7500
Mn2A Mn 0.5000 0.5000 0.5000
Mn2C Mn 0.0000 -1.0000 0.5000
N1D N 0.58327(10) 0.58215(17) -0.03673(17)
N2D N 0.43488(11) 0.47226(17) -0.21274(18)
O1A O 0.55058(9) 0.24356(13) 0.20136(15)
O2A O 0.54589(10) 0.31755(14) 0.02207(16)
O2E O 0.45411(10) 0.68245(14) -0.02207(16)
O5 O 0.0000 0.3178(4) 0.2500
loop_
_geom_bond_atom_site_label_1
_geom_bond_atom_site_label_2
_geom_bond_site_symmetry_1
_geom_bond_site_symmetry_2
Mn1 N1 1_555 1_555
Mn2 N1 1_555 1_555
C1 C2 1_555 1_555
C2 C3 1_555 1_555
C3 H1 1_555 1_555
C4 C3 1_555 1_555
H2 C4 1_555 1_555
C5 H3 1_555 1_555
C6 C2 1_555 1_555
H4 C6 1_555 1_555
C7 H5 1_555 1_555
H6 C7 1_555 1_555
C8 C7 1_555 1_555
H7 C8 1_555 1_555
H8 C8 1_555 1_555
C9 N1 1_555 1_555
C10 N2 1_555 1_555
N2 Mn1 1_555 1_555
N3 C4 1_555 1_555
O1 Mn1 1_555 1_555
O2 C1 1_555 1_555
O3 C9 1_555 1_555
O4 C10 1_555 1_555
C1F C2F 1_555 1_555
C2F C3F 1_555 1_555
C3F H1F 1_555 1_555
C4F C3F 1_555 1_555
H2F C4F 1_555 1_555
C5F H3F 1_555 1_555
C6F C2F 1_555 1_555
H4F C6F 1_555 1_555
C7F H5F 1_555 1_555
H6F C7F 1_555 1_555
C8F C8 1_555 1_555
H7F C8F 1_555 1_555
H8F C8F 1_555 1_555
N3F C4F 1_555 1_555
O1F C1F 1_555 1_555
O2F C1F 1_555 1_555
C9A N1A 1_555 1_555
C10A N2A 1_555 1_555
N1A Mn1 1_555 1_555
N2A Mn1 1_555 1_555
O3A C9A 1_555 1_555
O4A C10A 1_555 1_555
Mn1F O1F 1_555 1_555
Mn2A O2 1_555 1_555
Mn2C O2F 1_555 1_555
N1D Mn2 1_555 1_555
N2D Mn2 1_555 1_555
O1A Mn1 1_555 1_555
O2A Mn2 1_555 1_555
O2E Mn2 1_555 1_555
Mn2 N2 1_555 1_555
C1 O1 1_555 1_555
C5 C6 1_555 1_555
C5 N3 1_555 1_555
C7 N3 1_555 1_555
C5F C6F 1_555 1_555
C5F N3F 1_555 1_555
C7F C8F 1_555 1_555
C7F N3F 1_555 1_555
N1A Mn2A 1_555 1_555
N2A Mn2A 1_555 1_555

#END
