
#######################################################################
#
#                 Cambridge Crystallographic Data Centre
#                                CCDC 
#
#######################################################################
#
# If this CIF has been generated from an entry in the Cambridge 
# Structural Database, then it will include bibliographic, chemical, 
# crystal, experimental, refinement or atomic coordinate data resulting 
# from the CCDC's data processing and validation procedures.
#
#######################################################################

data_VEZVUT
_symmetry_cell_setting           triclinic
_symmetry_space_group_name_H-M   'P -1'
_symmetry_Int_Tables_number      2
_space_group_name_Hall           '-P 1'
loop_
_symmetry_equiv_pos_site_id
_symmetry_equiv_pos_as_xyz
1 x,y,z
2 -x,-y,-z
_cell_length_a                   10.1109(17)
_cell_length_b                   11.0032(18)
_cell_length_c                   12.373(2)
_cell_angle_alpha                92.442(6)
_cell_angle_beta                 91.110(5)
_cell_angle_gamma                115.871(5)
_cell_volume                     1236.34
loop_
_atom_site_label
_atom_site_type_symbol
_atom_site_fract_x
_atom_site_fract_y
_atom_site_fract_z
Mn1 Mn 0.88635(7) 0.92713(6) 0.24788(5)
Mn2 Mn 1.0000 1.0000 0.0000
Mn3 Mn 1.0000 1.0000 0.5000
C1 C 0.6733(5) 0.9081(4) 0.0609(4)
C2 C 0.5143(4) 0.8441(4) 0.0191(3)
C3 C 0.4055(5) 0.8458(4) 0.0831(4)
H1 H 0.4293 0.8862 0.1528
C4 C 0.2632(5) 0.7889(4) 0.0450(4)
H2 H 0.1906 0.7935 0.0876
C5 C 0.3304(5) 0.7222(5) -0.1174(4)
H3 H 0.3036 0.6781 -0.1857
C6 C 0.4753(5) 0.7826(5) -0.0832(4)
H4 H 0.5471 0.7821 -0.1288
C7 C 0.0694(5) 0.6552(5) -0.0913(4)
H5 H 0.0620 0.6581 -0.1693
H6 H 0.0160 0.7016 -0.0592
C8 C 0.0002(5) 0.5091(5) -0.0606(4)
H7 H 0.0528 0.4631 -0.0946
H8 H -0.1005 0.4658 -0.0896
O1 O 0.7681(3) 0.9511(3) -0.0088(2)
O2 O 0.6930(3) 0.9104(3) 0.1607(2)
N1 N 1.0296(3) 1.1079(3) 0.1590(2)
N2 N 1.1422(5) 1.1950(4) 0.1947(3)
N3 N 1.2507(6) 1.2818(5) 0.2299(4)
N4 N 0.9314(4) 0.8054(4) 0.1040(3)
N5 N 0.8381(10) 0.7239(8) 0.0796(4)
N6 N 0.7197(8) 0.6089(7) 0.0489(7)
N7 N 0.8609(4) 1.0518(4) 0.3847(3)
N8 N 0.8670(4) 1.1608(4) 0.3733(3)
N9 N 0.8689(6) 1.2648(5) 0.3619(4)
N10 N 1.0832(5) 0.9485(4) 0.3484(3)
N11 N 1.1505(16) 0.8822(13) 0.3271(9)
N12 N 1.2106(19) 0.8206(19) 0.3074(9)
N13 N 0.2273(4) 0.7261(4) -0.0535(3)
O3 O 0.8402(3) 0.7915(3) 0.4935(2)
C9 C 0.7755(5) 0.7099(4) 0.4155(4)
C10 C 0.7018(5) 0.5622(4) 0.4422(3)
O4 O 0.7600(4) 0.7364(3) 0.3203(2)
C11 C 0.5882(5) 0.4676(4) 0.3776(4)
H9 H 0.5609 0.4914 0.3126
C12 C 0.7447(6) 0.5213(5) 0.5351(4)
H10 H 0.8232 0.5829 0.5788
C13 C 0.5154(5) 0.3380(4) 0.4098(4)
H11 H 0.4361 0.2747 0.3676
C14 C 0.6718(6) 0.3903(5) 0.5625(4)
H12 H 0.7022 0.3626 0.6244
N14 N 0.5573(4) 0.3015(4) 0.5015(3)
C15 C 0.4774(5) 0.1598(4) 0.5348(4)
H13 H 0.3741 0.1242 0.5128
H14 H 0.4847 0.1585 0.6130
C16 C 0.5420(5) 0.0723(4) 0.4835(4)
H15 H 0.6448 0.1068 0.5065
H16 H 0.5361 0.0746 0.4053
C1A C -0.6733(5) 0.0919(4) -0.0609(4)
C2A C -0.5143(4) 0.1559(4) -0.0191(3)
C3A C -0.4055(5) 0.1542(4) -0.0831(4)
H1A H -0.4293 0.1138 -0.1528
C4A C -0.2632(5) 0.2111(4) -0.0450(4)
H2A H -0.1906 0.2065 -0.0876
C5A C -0.3304(5) 0.2778(5) 0.1174(4)
H3A H -0.3036 0.3219 0.1857
C6A C -0.4753(5) 0.2174(5) 0.0832(4)
H4A H -0.5471 0.2179 0.1288
C7A C -0.0694(5) 0.3448(5) 0.0913(4)
H5A H -0.0620 0.3419 0.1693
H6A H -0.0160 0.2984 0.0592
C8A C -0.0002(5) 0.4909(5) 0.0606(4)
H7A H -0.0528 0.5369 0.0946
H8A H 0.1005 0.5342 0.0896
O1A O -0.7681(3) 0.0489(3) 0.0088(2)
O2A O -0.6930(3) 0.0896(3) -0.1607(2)
N13A N -0.2273(4) 0.2739(4) 0.0535(3)
O3A O 0.1598(3) -0.7915(3) 0.5065(2)
C9A C 0.2245(5) -0.7099(4) 0.5845(4)
C10A C 0.2982(5) -0.5622(4) 0.5578(3)
O4A O 0.2400(4) -0.7364(3) 0.6797(2)
C11A C 0.4118(5) -0.4676(4) 0.6224(4)
H9A H 0.4391 -0.4914 0.6874
C12A C 0.2553(6) -0.5213(5) 0.4649(4)
H10A H 0.1768 -0.5829 0.4212
C13A C 0.4846(5) -0.3380(4) 0.5902(4)
H11A H 0.5639 -0.2747 0.6324
C14A C 0.3282(6) -0.3903(5) 0.4375(4)
H12A H 0.2978 -0.3626 0.3756
N14A N 0.4427(4) -0.3015(4) 0.4985(3)
C15A C 0.5226(5) -0.1598(4) 0.4652(4)
H13A H 0.6259 -0.1242 0.4872
H14A H 0.5153 -0.1585 0.3870
C16A C 0.4580(5) -0.0723(4) 0.5165(4)
H15A H 0.3552 -0.1068 0.4935
H16A H 0.4639 -0.0746 0.5947
Mn1A Mn -0.88635(7) 0.07287(6) -0.24788(5)
N1A N -1.0296(3) -0.1079(3) -0.1590(2)
N2A N -1.1422(5) -0.1950(4) -0.1947(3)
N3A N -1.2507(6) -0.2818(5) -0.2299(4)
N4A N -0.9314(4) 0.1946(4) -0.1040(3)
N5A N -0.8381(10) 0.2761(8) -0.0796(4)
N6A N -0.7197(8) 0.3911(7) -0.0489(7)
N7A N -0.8609(4) -0.0518(4) -0.3847(3)
N8A N -0.8670(4) -0.1608(4) -0.3733(3)
N9A N -0.8689(6) -0.2648(5) -0.3619(4)
N10A N -1.0832(5) 0.0515(4) -0.3484(3)
N11A N -1.1505(16) 0.1178(13) -0.3271(9)
N12A N -1.2106(19) 0.1794(19) -0.3074(9)
Mn1A_2 Mn 0.11365(7) -0.92713(6) 0.75212(5)
Mn2_2 Mn -1.0000 0.0000 0.0000
Mn3_2 Mn -1.0000 0.0000 -0.5000
Mn3_3 Mn 0.0000 -1.0000 0.5000
O1A_2 O 1.2319(3) 1.0489(3) 0.0088(2)
N1A_2 N 0.9704(3) 0.8921(3) -0.1590(2)
N4A_2 N 1.0686(4) 1.1946(4) -0.1040(3)
N7A_2 N 1.1391(4) 0.9482(4) 0.6153(3)
N10A_2 N 0.9168(5) 1.0515(4) 0.6516(3)
O3A_2 O 1.1598(3) 1.2085(3) 0.5065(2)
O4A_2 O -0.7600(4) 0.2636(3) -0.3203(2)
O5 O 1.4121(9) 1.5823(7) 0.1852(6)
N15? N 1.1856(17) 0.9591(15) 0.3195(10)
N16? N 1.3059(16) 0.984(3) 0.2829(12)
loop_
_geom_bond_atom_site_label_1
_geom_bond_atom_site_label_2
_geom_bond_site_symmetry_1
_geom_bond_site_symmetry_2
Mn1 O2 1_555 1_555
Mn2 O1 1_555 1_555
Mn3 N7 1_555 1_555
C1 C2 1_555 1_555
C2 C3 1_555 1_555
C3 H1 1_555 1_555
C4 C3 1_555 1_555
H2 C4 1_555 1_555
C5 H3 1_555 1_555
C6 C2 1_555 1_555
H4 C6 1_555 1_555
C7 H5 1_555 1_555
H6 C7 1_555 1_555
C8 C7 1_555 1_555
H7 C8 1_555 1_555
H8 C8 1_555 1_555
O1 C1 1_555 1_555
O2 C1 1_555 1_555
N1 Mn1 1_555 1_555
N2 N1 1_555 1_555
N3 N2 1_555 1_555
N4 Mn1 1_555 1_555
N5 N4 1_555 1_555
N6 N5 1_555 1_555
N7 Mn1 1_555 1_555
N8 N7 1_555 1_555
N9 N8 1_555 1_555
N10 Mn1 1_555 1_555
N11 N10 1_555 1_555
N12 N11 1_555 1_555
N13 C4 1_555 1_555
O3 Mn3 1_555 1_555
C9 O3 1_555 1_555
C10 C9 1_555 1_555
O4 Mn1 1_555 1_555
C11 C10 1_555 1_555
H9 C11 1_555 1_555
C12 C10 1_555 1_555
H10 C12 1_555 1_555
C13 C11 1_555 1_555
H11 C13 1_555 1_555
C14 C12 1_555 1_555
H12 C14 1_555 1_555
N14 C13 1_555 1_555
C15 N14 1_555 1_555
H13 C15 1_555 1_555
H14 C15 1_555 1_555
C16 C15 1_555 1_555
H15 C16 1_555 1_555
H16 C16 1_555 1_555
C1A C2A 1_555 1_555
C2A C3A 1_555 1_555
C3A H1A 1_555 1_555
C4A C3A 1_555 1_555
H2A C4A 1_555 1_555
C5A H3A 1_555 1_555
C6A C2A 1_555 1_555
H4A C6A 1_555 1_555
C7A H5A 1_555 1_555
H6A C7A 1_555 1_555
C8A C8 1_555 1_555
H7A C8A 1_555 1_555
H8A C8A 1_555 1_555
O1A C1A 1_555 1_555
O2A C1A 1_555 1_555
N13A C4A 1_555 1_555
O3A C9A 1_555 1_555
C9A C10A 1_555 1_555
C10A C11A 1_555 1_555
O4A C9A 1_555 1_555
C11A H9A 1_555 1_555
C12A C10A 1_555 1_555
H10A C12A 1_555 1_555
C13A C11A 1_555 1_555
H11A C13A 1_555 1_555
C14A C12A 1_555 1_555
H12A C14A 1_555 1_555
N14A C13A 1_555 1_555
C15A N14A 1_555 1_555
H13A C15A 1_555 1_555
H14A C15A 1_555 1_555
C16A C16 1_555 1_555
H15A C16A 1_555 1_555
H16A C16A 1_555 1_555
Mn1A O2A 1_555 1_555
N1A Mn1A 1_555 1_555
N2A N1A 1_555 1_555
N3A N2A 1_555 1_555
N4A Mn1A 1_555 1_555
N5A N4A 1_555 1_555
N6A N5A 1_555 1_555
N7A Mn1A 1_555 1_555
N8A N7A 1_555 1_555
N9A N8A 1_555 1_555
N10A Mn1A 1_555 1_555
N11A N10A 1_555 1_555
N12A N11A 1_555 1_555
Mn1A_2 O4A 1_555 1_555
Mn2_2 O1A 1_555 1_555
Mn3_2 N7A 1_555 1_555
Mn3_3 O3A 1_555 1_555
O1A_2 Mn2 1_555 1_555
N1A_2 Mn2 1_555 1_555
N4A_2 Mn2 1_555 1_555
N7A_2 Mn3 1_555 1_555
N10A_2 Mn3 1_555 1_555
O3A_2 Mn3 1_555 1_555
O4A_2 Mn1A 1_555 1_555
Mn2 N1 1_555 1_555
Mn2 N4 1_555 1_555
Mn3 N10 1_555 1_555
C5 C6 1_555 1_555
C5 N13 1_555 1_555
C7 N13 1_555 1_555
C9 O4 1_555 1_555
C14 N14 1_555 1_555
C5A C6A 1_555 1_555
C5A N13A 1_555 1_555
C7A C8A 1_555 1_555
C7A N13A 1_555 1_555
C14A N14A 1_555 1_555
C15A C16A 1_555 1_555
N1A Mn2_2 1_555 1_555
N4A Mn2_2 1_555 1_555
N10A Mn3_2 1_555 1_555

#END
