
#######################################################################
#
#                 Cambridge Crystallographic Data Centre
#                                CCDC 
#
#######################################################################
#
# If this CIF has been generated from an entry in the Cambridge 
# Structural Database, then it will include bibliographic, chemical, 
# crystal, experimental, refinement or atomic coordinate data resulting 
# from the CCDC's data processing and validation procedures.
#
#######################################################################

data_VEZWEE
_symmetry_cell_setting           orthorhombic
_symmetry_space_group_name_H-M   'P n a 21'
_symmetry_Int_Tables_number      33
_space_group_name_Hall           'P 2c -2n'
loop_
_symmetry_equiv_pos_site_id
_symmetry_equiv_pos_as_xyz
1 x,y,z
2 -x,-y,1/2+z
3 1/2+x,1/2-y,z
4 1/2-x,1/2+y,1/2+z
_cell_length_a                   15.258(6)
_cell_length_b                   21.333(8)
_cell_length_c                   29.267(11)
_cell_angle_alpha                90
_cell_angle_beta                 90
_cell_angle_gamma                90
_cell_volume                     9526.38
loop_
_atom_site_label
_atom_site_type_symbol
_atom_site_fract_x
_atom_site_fract_y
_atom_site_fract_z
Mn1 Mn 0.36145(6) 0.27305(4) 0.23334(3)
Mn2 Mn 0.12909(6) 0.27696(4) 0.17966(3)
Mn3 Mn 0.17252(7) 0.50936(5) 0.15734(4)
Mn4 Mn 0.33289(7) 0.50327(5) 0.25526(4)
C1 C 0.1944(5) 0.2009(3) 0.2655(2)
C2 C 0.1696(4) 0.1482(3) 0.2981(2)
C3 C 0.2349(4) 0.1214(3) 0.3247(2)
H1 H 0.2922 0.1363 0.3238
C4 C 0.2119(5) 0.0721(4) 0.3524(3)
H2 H 0.2551 0.0532 0.3700
C5 C 0.0663(5) 0.0763(4) 0.3287(3)
H3 H 0.0093 0.0610 0.3302
C6 C 0.0863(5) 0.1242(4) 0.3005(3)
H4 H 0.0426 0.1414 0.2823
C7 C 0.1099(6) -0.0018(4) 0.3873(3)
H5 H 0.0648 -0.0284 0.3741
H6 H 0.1615 -0.0273 0.3927
C8 C 0.0789(6) 0.0249(4) 0.4302(3)
H7 H 0.0214 0.0433 0.4257
H8 H 0.1186 0.0578 0.4400
C9 C 0.0738(7) -0.0268(4) 0.4676(3)
H9 H 0.0359 -0.0606 0.4577
H10 H 0.1316 -0.0437 0.4736
C10 C 0.0365(8) 0.0045(5) 0.5108(3)
H11 H 0.0734 0.0394 0.5197
H12 H -0.0219 0.0204 0.5047
C11 C 0.0994(6) -0.0477(4) 0.5795(3)
H13 H 0.1485 -0.0222 0.5769
C12 C 0.0936(5) -0.0900(4) 0.6140(3)
H14 H 0.1370 -0.0910 0.6363
C13 C 0.0259(5) -0.1304(4) 0.6163(3)
C14 C -0.0389(7) -0.1269(6) 0.5835(3)
H15 H -0.0860 -0.1546 0.5839
C15 C -0.0323(7) -0.0816(6) 0.5502(4)
H16 H -0.0758 -0.0786 0.5281
C16 C 0.0177(4) -0.1794(3) 0.6544(2)
C17 C 0.2936(5) 0.2025(3) 0.1447(3)
C18 C 0.3282(4) 0.1588(4) 0.1072(3)
C19 C 0.4053(5) 0.1284(5) 0.1135(3)
H17 H 0.4398 0.1360 0.1391
C20 C 0.4310(6) 0.0859(6) 0.0805(4)
H18 H 0.4808 0.0618 0.0859
C21 C 0.3175(9) 0.1098(7) 0.0354(4)
H19 H 0.2870 0.1044 0.0082
C22 C 0.2879(7) 0.1509(6) 0.0677(3)
H20 H 0.2377 0.1742 0.0616
C23 C 0.4219(8) 0.0298(6) 0.0096(4)
H21 H 0.4750 0.0102 0.0209
H22 H 0.3779 -0.0026 0.0055
C24 C 0.4389(10) 0.0604(7) -0.0330(5)
H23 H 0.4859 0.0905 -0.0289
H24 H 0.3869 0.0831 -0.0425
C25 C 0.4652(9) 0.0122(7) -0.0709(6)
H25 H 0.4818 0.0350 -0.0983
H26 H 0.5160 -0.0112 -0.0607
C26 C 0.3986(6) -0.0295(5) -0.0817(4)
H27 H 0.3449 -0.0065 -0.0871
H28 H 0.3889 -0.0575 -0.0561
C27 C 0.4732(7) -0.1169(5) -0.1214(3)
H29 H 0.4965 -0.1273 -0.0930
C28 C 0.4947(6) -0.1528(4) -0.1582(3)
H30 H 0.5304 -0.1878 -0.1545
C29 C 0.4634(4) -0.1371(3) -0.2008(2)
C30 C 0.4103(5) -0.0848(4) -0.2040(3)
H31 H 0.3886 -0.0730 -0.2324
C31 C 0.3886(5) -0.0495(4) -0.1657(3)
H32 H 0.3531 -0.0142 -0.1681
C32 C 0.4882(4) -0.1755(3) -0.2420(3)
C33 C 0.1569(4) 0.3858(3) 0.0996(2)
C34 C 0.1597(4) 0.3597(3) 0.0509(2)
C35 C 0.1446(6) 0.2974(3) 0.0430(2)
H33 H 0.1299 0.2707 0.0669
C36 C 0.1517(7) 0.2750(4) -0.0013(3)
H34 H 0.1416 0.2327 -0.0070
C37 C 0.1850(5) 0.3741(4) -0.0295(3)
H35 H 0.1957 0.4004 -0.0542
C38 C 0.1816(5) 0.3982(4) 0.0142(3)
H36 H 0.1940 0.4404 0.0191
C39 C 0.1834(5) 0.2854(4) -0.0816(3)
H37 H 0.2185 0.2476 -0.0794
H38 H 0.2141 0.3148 -0.1012
C40 C 0.0947(6) 0.2695(4) -0.1027(3)
H39 H 0.0617 0.3077 -0.1076
H40 H 0.0617 0.2432 -0.0818
C41 C 0.1064(5) 0.2351(4) -0.1485(3)
H41 H 0.1337 0.2635 -0.1701
H42 H 0.1459 0.2000 -0.1440
C42 C 0.0222(6) 0.2111(3) -0.1687(3)
H43 H 0.0351 0.1805 -0.1922
H44 H -0.0121 0.1906 -0.1451
C43 C -0.0078(6) 0.2821(4) -0.2305(3)
H45 H 0.0372 0.2618 -0.2460
C44 C -0.0515(5) 0.3313(3) -0.2513(3)
H46 H -0.0364 0.3441 -0.2806
C45 C -0.1183(5) 0.3614(3) -0.2276(3)
C46 C -0.1400(5) 0.3403(4) -0.1832(3)
H47 H -0.1845 0.3593 -0.1665
C47 C -0.0932(5) 0.2910(3) -0.1656(3)
H48 H -0.1068 0.2763 -0.1365
C48 C -0.1671(5) 0.4155(3) -0.2498(3)
C49 C 0.3362(4) 0.3794(3) 0.3143(3)
C50 C 0.3218(4) 0.3537(3) 0.3616(2)
C51 C 0.3097(5) 0.2915(3) 0.3696(2)
H49 H 0.3104 0.2636 0.3452
C52 C 0.2966(5) 0.2693(4) 0.4125(3)
H50 H 0.2889 0.2266 0.4174
C53 C 0.3068(6) 0.3705(4) 0.4408(3)
H51 H 0.3058 0.3975 0.4657
C54 C 0.3204(5) 0.3950(4) 0.3988(3)
H52 H 0.3286 0.4379 0.3947
C55 C 0.2788(6) 0.2852(5) 0.4964(3)
H53 H 0.2459 0.3158 0.5139
H54 H 0.2448 0.2468 0.4950
C56 C 0.3661(6) 0.2724(4) 0.5198(3)
H55 H 0.4000 0.2428 0.5019
H56 H 0.3994 0.3110 0.5223
C57 C 0.3485(5) 0.2461(4) 0.5665(3)
H57 H 0.3195 0.2778 0.5848
H58 H 0.3087 0.2108 0.5636
C58 C 0.4293(6) 0.2249(4) 0.5910(3)
H59 H 0.4641 0.1993 0.5704
H60 H 0.4123 0.1989 0.6167
C59 C 0.4671(6) 0.3045(4) 0.6484(3)
H61 H 0.4193 0.2904 0.6652
C60 C 0.5176(5) 0.3515(4) 0.6654(3)
H62 H 0.5043 0.3701 0.6933
C61 C 0.5902(5) 0.3712(3) 0.6398(3)
C62 C 0.6045(5) 0.3447(4) 0.5980(3)
H63 H 0.6506 0.3591 0.5802
C63 C 0.5532(5) 0.2979(4) 0.5819(3)
H64 H 0.5644 0.2796 0.5537
C64 C 0.6514(5) 0.4204(3) 0.6602(3)
O1 O 0.1407(3) 0.2123(2) 0.2341(2)
O2 O 0.2654(3) 0.2261(3) 0.27261(18)
O3 O 0.0593(3) -0.1677(2) 0.69062(16)
O4 O -0.0290(3) -0.2246(2) 0.64630(17)
O5 O 0.2193(3) 0.2265(2) 0.13676(18)
O6 O 0.3395(4) 0.2099(3) 0.1778(2)
O7 O 0.5426(3) -0.2188(2) -0.23505(18)
O8 O 0.4514(3) -0.1611(2) -0.27855(16)
O9 O 0.1844(3) 0.4399(2) 0.10388(18)
O10 O 0.1215(3) 0.3523(2) 0.12956(17)
O11 O -0.1468(4) 0.4267(2) -0.2906(2)
O12 O -0.2204(4) 0.4444(2) -0.22460(19)
O13 O 0.3693(3) 0.3444(2) 0.28562(18)
O14 O 0.3129(4) 0.4356(2) 0.3078(2)
O15 O 0.7106(4) 0.4419(2) 0.63509(19)
O16 O 0.6370(4) 0.4345(3) 0.7014(2)
O17 O 0.0503(3) 0.4612(2) 0.1790(2)
O18 O 0.0923(5) 0.5643(3) 0.1096(2)
O19 O 0.4524(3) 0.4523(2) 0.2308(2)
O20 O 0.4164(4) 0.5551(3) 0.3016(2)
N1 N 0.2459(4) 0.3346(2) 0.2056(3)
N2 N 0.2470(4) 0.38934(19) 0.2062(2)
N3 N 0.2481(4) 0.4446(2) 0.2072(2)
N4 N 0.1315(4) 0.0506(3) 0.3551(2)
N5 N 0.0330(5) -0.0432(3) 0.5491(2)
N6 N 0.3898(5) 0.0780(4) 0.0434(2)
N7 N 0.4211(4) -0.0683(3) -0.1243(2)
N8 N 0.1727(4) 0.3129(3) -0.0361(2)
N9 N -0.0295(4) 0.2637(3) -0.1888(2)
N10 N 0.2947(4) 0.3099(3) 0.4481(2)
N11 N 0.4847(4) 0.2782(3) 0.6081(2)
Mn1A Mn 0.63855(6) -0.27305(4) -0.26666(3)
Mn1C Mn 0.13855(6) -0.22695(4) 0.73334(3)
Mn2A Mn -0.12909(6) -0.27696(4) 0.67966(3)
Mn2C Mn 0.37091(6) -0.22304(4) -0.32034(3)
Mn3A Mn -0.17252(7) 0.49064(5) -0.34266(4)
Mn3A_2 Mn 0.82748(7) 0.49064(5) 0.65734(4)
Mn4A Mn -0.33289(7) 0.49673(5) -0.24474(4)
Mn4A_2 Mn 0.66711(7) 0.49673(5) 0.75526(4)
O3C O 0.4407(3) 0.3323(2) 0.19062(16)
O4A O 0.0290(3) 0.2246(2) 0.14630(17)
O7A O 0.4574(3) 0.2188(2) 0.26495(18)
O8C O 0.0486(3) 0.3389(2) 0.22145(16)
O11A O 0.1468(4) 0.5733(2) 0.2094(2)
O12A O 0.2204(4) 0.5556(2) 0.27540(19)
O15A O 0.2894(4) 0.5581(2) 0.13509(19)
O16A O 0.3630(4) 0.5655(3) 0.2014(2)
C65 C 0.680(2) 0.4544(17) 0.1997(10)
O21 O 0.6055(6) 0.5017(4) 0.1960(3)
O22 O 0.2597(7) 0.5935(10) 0.3966(6)
O23 O 0.3378(9) 0.6319(4) 0.4538(4)
O24 O 0.4059(6) 0.5787(7) 0.3974(3)
O25 O 0.3216(8) 0.5292(4) 0.4534(3)
Cl1 Cl 0.32930(15) 0.58092(10) 0.42484(8)
O26 O 0.2553(8) 0.0907(8) 0.5159(4)
O27 O 0.3925(7) 0.0673(7) 0.5144(4)
O28 O 0.2990(8) 0.0297(4) 0.4606(4)
O29 O 0.3411(9) 0.1286(5) 0.4549(4)
Cl2 Cl 0.32112(17) 0.08234(12) 0.48662(9)
O30 O 0.0467(18) 0.1726(9) 0.4705(8)
O31 O 0.1289(8) 0.1897(7) 0.4082(5)
O32 O -0.0111(9) 0.2234(14) 0.4175(5)
O33 O 0.0850(8) 0.2645(9) 0.4594(8)
Cl3 Cl 0.06252(17) 0.21251(17) 0.43705(11)
O34 O 0.7806(9) 0.1943(7) 0.7114(8)
O35 O 0.6430(8) 0.2181(6) 0.6829(5)
O36 O 0.7603(7) 0.2807(7) 0.6720(4)
O37 O 0.6961(8) 0.2758(8) 0.7416(4)
Cl4 Cl 0.72052(19) 0.24232(17) 0.70308(11)
O38 O 0.413(3) 0.2181(8) -0.0162(16)
O39 O 0.3466(8) 0.2964(9) 0.0153(5)
O40 O 0.4818(8) 0.3138(9) -0.0104(6)
O41 O 0.3897(10) 0.2924(15) -0.0611(5)
Cl5 Cl 0.40552(19) 0.2750(2) -0.01683(13)
O42 O 0.5522(11) 0.0894(8) -0.1683(8)
O43 O 0.6669(16) 0.0690(15) -0.2119(5)
O44 O 0.6006(7) -0.0055(4) -0.1716(5)
O45 O 0.6848(7) 0.0690(5) -0.1371(4)
Cl6 Cl 0.6192(2) 0.05704(17) -0.16857(18)
O46 O 0.7372(17) 0.0955(12) 0.5712(13)
O47 O 0.7623(19) 0.0038(8) 0.5960(7)
O48 O 0.861(2) 0.0758(12) 0.6063(9)
O49 O 0.8247(19) 0.0541(10) 0.5419(5)
Cl7 Cl 0.8085(3) 0.05473(14) 0.58202(11)
O50 O 0.1942(6) -0.1606(4) 0.3098(3)
O51 O 0.5759(7) 0.5794(5) 0.2756(4)
O52 O -0.0784(9) 0.6133(8) 0.1291(5)
loop_
_geom_bond_atom_site_label_1
_geom_bond_atom_site_label_2
_geom_bond_site_symmetry_1
_geom_bond_site_symmetry_2
Mn1 O2 1_555 1_555
Mn2 O1 1_555 1_555
Mn3 O9 1_555 1_555
Mn4 O14 1_555 1_555
C1 C2 1_555 1_555
C2 C3 1_555 1_555
C3 H1 1_555 1_555
C4 C3 1_555 1_555
H2 C4 1_555 1_555
C5 H3 1_555 1_555
C6 C2 1_555 1_555
H4 C6 1_555 1_555
C7 H5 1_555 1_555
H6 C7 1_555 1_555
C8 C7 1_555 1_555
H7 C8 1_555 1_555
H8 C8 1_555 1_555
C9 C8 1_555 1_555
H9 C9 1_555 1_555
H10 C9 1_555 1_555
C10 C9 1_555 1_555
H11 C10 1_555 1_555
H12 C10 1_555 1_555
C11 H13 1_555 1_555
C12 C11 1_555 1_555
H14 C12 1_555 1_555
C13 C12 1_555 1_555
C14 C13 1_555 1_555
H15 C14 1_555 1_555
C15 C14 1_555 1_555
H16 C15 1_555 1_555
C16 C13 1_555 1_555
C17 C18 1_555 1_555
C18 C19 1_555 1_555
C19 H17 1_555 1_555
C20 C19 1_555 1_555
H18 C20 1_555 1_555
C21 H19 1_555 1_555
C22 C18 1_555 1_555
H20 C22 1_555 1_555
C23 H21 1_555 1_555
H22 C23 1_555 1_555
C24 C23 1_555 1_555
H23 C24 1_555 1_555
H24 C24 1_555 1_555
C25 C24 1_555 1_555
H25 C25 1_555 1_555
H26 C25 1_555 1_555
C26 C25 1_555 1_555
H27 C26 1_555 1_555
H28 C26 1_555 1_555
C27 H29 1_555 1_555
C28 C27 1_555 1_555
H30 C28 1_555 1_555
C29 C28 1_555 1_555
C30 C29 1_555 1_555
H31 C30 1_555 1_555
C31 C30 1_555 1_555
H32 C31 1_555 1_555
C32 C29 1_555 1_555
C33 C34 1_555 1_555
C34 C35 1_555 1_555
C35 H33 1_555 1_555
C36 C35 1_555 1_555
H34 C36 1_555 1_555
C37 H35 1_555 1_555
C38 C34 1_555 1_555
H36 C38 1_555 1_555
C39 H37 1_555 1_555
H38 C39 1_555 1_555
C40 C39 1_555 1_555
H39 C40 1_555 1_555
H40 C40 1_555 1_555
C41 C40 1_555 1_555
H41 C41 1_555 1_555
H42 C41 1_555 1_555
C42 C41 1_555 1_555
H43 C42 1_555 1_555
H44 C42 1_555 1_555
C43 H45 1_555 1_555
C44 C43 1_555 1_555
H46 C44 1_555 1_555
C45 C44 1_555 1_555
C46 C45 1_555 1_555
H47 C46 1_555 1_555
C47 C46 1_555 1_555
H48 C47 1_555 1_555
C48 C45 1_555 1_555
C49 C50 1_555 1_555
C50 C51 1_555 1_555
C51 H49 1_555 1_555
C52 C51 1_555 1_555
H50 C52 1_555 1_555
C53 H51 1_555 1_555
C54 C50 1_555 1_555
H52 C54 1_555 1_555
C55 H53 1_555 1_555
H54 C55 1_555 1_555
C56 C55 1_555 1_555
H55 C56 1_555 1_555
H56 C56 1_555 1_555
C57 C56 1_555 1_555
H57 C57 1_555 1_555
H58 C57 1_555 1_555
C58 C57 1_555 1_555
H59 C58 1_555 1_555
H60 C58 1_555 1_555
C59 H61 1_555 1_555
C60 C59 1_555 1_555
H62 C60 1_555 1_555
C61 C60 1_555 1_555
C62 C61 1_555 1_555
H63 C62 1_555 1_555
C63 C62 1_555 1_555
H64 C63 1_555 1_555
C64 C61 1_555 1_555
O1 C1 1_555 1_555
O2 C1 1_555 1_555
O3 C16 1_555 1_555
O4 C16 1_555 1_555
O5 Mn2 1_555 1_555
O6 Mn1 1_555 1_555
O7 C32 1_555 1_555
O8 C32 1_555 1_555
O9 C33 1_555 1_555
O10 Mn2 1_555 1_555
O11 C48 1_555 1_555
O12 C48 1_555 1_555
O13 Mn1 1_555 1_555
O14 C49 1_555 1_555
O15 C64 1_555 1_555
O16 C64 1_555 1_555
O17 Mn3 1_555 1_555
O18 Mn3 1_555 1_555
O19 Mn4 1_555 1_555
O20 Mn4 1_555 1_555
N1 Mn1 1_555 1_555
N2 N1 1_555 1_555
N3 Mn3 1_555 1_555
N4 C4 1_555 1_555
N5 C10 1_555 1_555
N6 C20 1_555 1_555
N7 C26 1_555 1_555
N8 C36 1_555 1_555
N9 C42 1_555 1_555
N10 C52 1_555 1_555
N11 C58 1_555 1_555
C65 O21 1_555 1_555
O22 Cl1 1_555 1_555
O23 Cl1 1_555 1_555
O24 Cl1 1_555 1_555
O25 Cl1 1_555 1_555
O26 Cl2 1_555 1_555
O27 Cl2 1_555 1_555
O28 Cl2 1_555 1_555
O29 Cl2 1_555 1_555
O30 Cl3 1_555 1_555
O31 Cl3 1_555 1_555
O32 Cl3 1_555 1_555
O33 Cl3 1_555 1_555
O34 Cl4 1_555 1_555
O35 Cl4 1_555 1_555
O36 Cl4 1_555 1_555
O37 Cl4 1_555 1_555
O38 Cl5 1_555 1_555
O39 Cl5 1_555 1_555
O40 Cl5 1_555 1_555
O41 Cl5 1_555 1_555
O42 Cl6 1_555 1_555
O43 Cl6 1_555 1_555
O44 Cl6 1_555 1_555
O45 Cl6 1_555 1_555
O46 Cl7 1_555 1_555
O47 Cl7 1_555 1_555
O48 Cl7 1_555 1_555
O49 Cl7 1_555 1_555
Mn1A O7 1_555 1_555
Mn1C O3 1_555 1_555
Mn2A O4 1_555 1_555
Mn2C O8 1_555 1_555
Mn3A O11 1_555 1_555
Mn3A_2 O15 1_555 1_555
Mn4A O12 1_555 1_555
Mn4A_2 O16 1_555 1_555
O3C Mn1 1_555 1_555
O4A Mn2 1_555 1_555
O7A Mn1 1_555 1_555
O8C Mn2 1_555 1_555
O11A Mn3 1_555 1_555
O12A Mn4 1_555 1_555
O15A Mn3 1_555 1_555
O16A Mn4 1_555 1_555
Mn2 N1 1_555 1_555
Mn4 N3 1_555 1_555
C5 C6 1_555 1_555
C5 N4 1_555 1_555
C7 N4 1_555 1_555
C11 N5 1_555 1_555
C15 N5 1_555 1_555
C17 O5 1_555 1_555
C17 O6 1_555 1_555
C21 C22 1_555 1_555
C21 N6 1_555 1_555
C23 N6 1_555 1_555
C27 N7 1_555 1_555
C31 N7 1_555 1_555
C33 O10 1_555 1_555
C37 C38 1_555 1_555
C37 N8 1_555 1_555
C39 N8 1_555 1_555
C43 N9 1_555 1_555
C47 N9 1_555 1_555
C49 O13 1_555 1_555
C53 C54 1_555 1_555
C53 N10 1_555 1_555
C55 N10 1_555 1_555
C59 N11 1_555 1_555
C63 N11 1_555 1_555
N2 N3 1_555 1_555

#END
