
#######################################################################
#
#                 Cambridge Crystallographic Data Centre
#                                CCDC 
#
#######################################################################
#
# If this CIF has been generated from an entry in the Cambridge 
# Structural Database, then it will include bibliographic, chemical, 
# crystal, experimental, refinement or atomic coordinate data resulting 
# from the CCDC's data processing and validation procedures.
#
#######################################################################

data_VEZWII
_symmetry_cell_setting           triclinic
_symmetry_space_group_name_H-M   'P -1'
_symmetry_Int_Tables_number      2
_space_group_name_Hall           '-P 1'
loop_
_symmetry_equiv_pos_site_id
_symmetry_equiv_pos_as_xyz
1 x,y,z
2 -x,-y,-z
_cell_length_a                   10.229(5)
_cell_length_b                   10.434(5)
_cell_length_c                   11.925(6)
_cell_angle_alpha                106.197(7)
_cell_angle_beta                 91.715(6)
_cell_angle_gamma                106.354(7)
_cell_volume                     1164.63
loop_
_atom_site_label
_atom_site_type_symbol
_atom_site_fract_x
_atom_site_fract_y
_atom_site_fract_z
Cu1 Cu 0.46368(5) 0.85235(5) 0.04118(4)
Cu2 Cu 0.62140(5) 1.12198(6) 0.23897(5)
C1 C 0.8192(5) 1.1584(4) 0.4235(4)
C2 C 0.9647(4) 1.1758(4) 0.4685(4)
C3 C 1.0580(5) 1.1446(5) 0.3931(5)
H1 H 1.0328 1.1168 0.3123
C4 C 1.1892(5) 1.1541(5) 0.4354(5)
H2 H 1.2508 1.1302 0.3838
C5 C 1.1392(6) 1.2324(6) 0.6275(5)
H3 H 1.1685 1.2650 0.7077
C6 C 1.0072(5) 1.2206(5) 0.5888(4)
H4 H 0.9467 1.2424 0.6425
C7 C 1.3695(5) 1.2134(5) 0.5986(6)
H5 H 1.3680 1.1879 0.6709
H6 H 1.4072 1.1511 0.5419
C8 C 1.4577(4) 1.3617(5) 0.6216(4)
H7 H 1.4099 1.4247 0.6646
H8 H 1.4739 1.3807 0.5473
C9 C 1.5939(4) 1.3894(5) 0.6916(4)
H9 H 1.5788 1.3602 0.7617
H10 H 1.6480 1.3365 0.6447
C10 C 1.6696(4) 1.5442(5) 0.7254(4)
H11 H 1.6858 1.5719 0.6546
H12 H 1.6130 1.5963 0.7692
C11 C 1.9158(5) 1.5776(5) 0.7438(4)
H13 H 1.9091 1.5473 0.6621
C12 C 2.0420(4) 1.6197(5) 0.8094(4)
H14 H 2.1206 1.6187 0.7725
C13 C 2.0503(4) 1.6635(4) 0.9310(4)
C14 C 1.9322(4) 1.6554(5) 0.9835(4)
H15 H 1.9352 1.6769 1.0648
C15 C 1.8077(5) 1.6144(5) 0.9133(4)
H16 H 1.7273 1.6111 0.9484
C16 C 2.1882(4) 1.7277(4) 1.0068(4)
N1 N 0.6373(4) 0.9378(4) 0.1462(4)
N2 N 0.7424(4) 0.9107(4) 0.1438(3)
N3 N 0.8443(5) 0.8868(6) 0.1468(5)
N4 N 0.4516(3) 1.0514(4) 0.1212(3)
N5 N 0.3463(4) 1.0798(4) 0.1421(3)
N6 N 0.2486(5) 1.1078(5) 0.1588(5)
N7 N 0.4956(4) 0.6694(4) -0.0190(4)
N8 N 0.4026(4) 0.5731(4) -0.0781(3)
N9 N 0.3156(5) 0.4787(5) -0.1348(4)
N10 N 0.5878(4) 1.2954(4) 0.3251(4)
N11 N 0.6828(4) 1.3847(4) 0.3888(4)
N12 N 0.7687(5) 1.4748(5) 0.4520(4)
N13 N 1.2259(4) 1.1980(4) 0.5519(4)
N14 N 1.8023(3) 1.5800(4) 0.7974(3)
O1 O 0.8043(3) 1.1651(4) 0.3207(3)
O2 O 0.7290(4) 1.1378(5) 0.4870(4)
O3 O 2.2828(3) 1.7874(3) 0.9565(3)
O4 O 2.1973(4) 1.7193(4) 1.1067(3)
Cu1_2 Cu 2.46368(5) 1.85235(5) 1.04118(4)
Cu1A Cu 0.53632(5) 1.14765(5) -0.04118(4)
N4A N 0.5484(3) 0.9486(4) -0.1212(3)
O3_2 O 0.2828(3) 0.7874(3) -0.0435(3)
O5 O 0.6326(7) 1.0639(6) 0.6818(5)
H17 H 0.696(8) 1.137(7) 0.730(3)
H18 H 0.632(5) 1.076(8) 0.614(3)
loop_
_geom_bond_atom_site_label_1
_geom_bond_atom_site_label_2
_geom_bond_site_symmetry_1
_geom_bond_site_symmetry_2
Cu1 N1 1_555 1_555
Cu2 N1 1_555 1_555
C1 C2 1_555 1_555
C2 C3 1_555 1_555
C3 H1 1_555 1_555
C4 C3 1_555 1_555
H2 C4 1_555 1_555
C5 H3 1_555 1_555
C6 C2 1_555 1_555
H4 C6 1_555 1_555
C7 H5 1_555 1_555
H6 C7 1_555 1_555
C8 C7 1_555 1_555
H7 C8 1_555 1_555
H8 C8 1_555 1_555
C9 C8 1_555 1_555
H9 C9 1_555 1_555
H10 C9 1_555 1_555
C10 C9 1_555 1_555
H11 C10 1_555 1_555
H12 C10 1_555 1_555
C11 H13 1_555 1_555
C12 C11 1_555 1_555
H14 C12 1_555 1_555
C13 C12 1_555 1_555
C14 C13 1_555 1_555
H15 C14 1_555 1_555
C15 C14 1_555 1_555
H16 C15 1_555 1_555
C16 C13 1_555 1_555
N1 N2 1_555 1_555
N2 N3 1_555 1_555
N4 Cu1 1_555 1_555
N5 N4 1_555 1_555
N6 N5 1_555 1_555
N7 Cu1 1_555 1_555
N8 N7 1_555 1_555
N9 N8 1_555 1_555
N10 Cu2 1_555 1_555
N11 N10 1_555 1_555
N12 N11 1_555 1_555
N13 C4 1_555 1_555
N14 C10 1_555 1_555
O1 Cu2 1_555 1_555
O2 C1 1_555 1_555
O3 C16 1_555 1_555
O4 C16 1_555 1_555
O5 H17 1_555 1_555
H18 O5 1_555 1_555
Cu1_2 O3 1_555 1_555
Cu1A N4 1_555 1_555
N4A Cu1 1_555 1_555
O3_2 Cu1 1_555 1_555
Cu2 N4 1_555 1_555
C1 O1 1_555 1_555
C5 C6 1_555 1_555
C5 N13 1_555 1_555
C7 N13 1_555 1_555
C11 N14 1_555 1_555
C15 N14 1_555 1_555
Cu1A N4A 1_555 1_555

#END
