
#######################################################################
#
#                 Cambridge Crystallographic Data Centre
#                                CCDC 
#
#######################################################################
#
# If this CIF has been generated from an entry in the Cambridge 
# Structural Database, then it will include bibliographic, chemical, 
# crystal, experimental, refinement or atomic coordinate data resulting 
# from the CCDC's data processing and validation procedures.
#
#######################################################################

data_VEZXEF
_symmetry_cell_setting           monoclinic
_symmetry_space_group_name_H-M   'P 21/c'
_symmetry_Int_Tables_number      14
_space_group_name_Hall           '-P 2ybc'
loop_
_symmetry_equiv_pos_site_id
_symmetry_equiv_pos_as_xyz
1 x,y,z
2 -x,1/2+y,1/2-z
3 -x,-y,-z
4 x,1/2-y,1/2+z
_cell_length_a                   11.70626(17)
_cell_length_b                   10.58915(16)
_cell_length_c                   28.8363(4)
_cell_angle_alpha                90
_cell_angle_beta                 94.2010(14)
_cell_angle_gamma                90
_cell_volume                     3564.92
loop_
_atom_site_label
_atom_site_type_symbol
_atom_site_fract_x
_atom_site_fract_y
_atom_site_fract_z
Ag1 Ag 0.48580(2) 0.44970(3) 0.230030(9)
Ag2 Ag 0.43144(3) 0.70713(3) 0.242878(12)
Cl1 Cl 0.48648(9) 0.65601(10) 0.32159(4)
Cl2 Cl 0.38163(9) 0.75891(10) 0.16486(4)
N1 N 0.2584(2) 0.3701(3) 0.27685(9)
N2 N 0.6668(2) 0.4904(3) 0.15966(9)
N3 N 0.7478(2) 0.5160(3) 0.22756(9)
C1 C 0.3147(3) 0.4043(3) 0.23973(11)
C2 C 0.5752(3) 0.4667(4) 0.12197(11)
H1 H 0.5130 0.5289 0.1249
H2 H 0.5428 0.3816 0.1264
N4 N 0.2335(2) 0.4006(3) 0.20384(9)
C3 C 0.2599(3) 0.4339(4) 0.15597(11)
H3 H 0.3250 0.3818 0.1471
H4 H 0.2839 0.5235 0.1553
C4 C 0.1414(3) 0.2921(4) 0.10193(11)
C5 C 0.6155(3) 0.4751(4) 0.07379(11)
C6 C 0.8309(3) 0.5313(3) 0.19676(12)
H5 H 0.9094 0.5497 0.2043
C7 C 0.0880(3) 0.5160(4) 0.10686(12)
C8 C 0.1293(3) 0.3641(3) 0.21822(12)
H6 H 0.0599 0.3544 0.1993
C9 C 0.6689(3) 0.4864(6) -0.01925(13)
H7 H 0.6855 0.4899 -0.0510
C10 C 0.1447(3) 0.3447(3) 0.26441(12)
H8 H 0.0884 0.3187 0.2845
C11 C 0.2082(3) 0.1851(4) 0.11589(12)
H9 H 0.2702 0.1949 0.1388
C12 C 0.1598(3) 0.4144(4) 0.12089(11)
C13 C 0.6528(3) 0.3659(4) 0.05187(12)
C14 C 0.7669(3) 0.5261(4) 0.27811(11)
H10 H 0.6935 0.5392 0.2917
H11 H 0.8177 0.5978 0.2860
H12 H 0.8024 0.4482 0.2906
C15 C 0.7799(3) 0.5154(3) 0.15378(12)
H13 H 0.8151 0.5205 0.1252
C16 C -0.0019(3) 0.4961(4) 0.07083(12)
C17 C 0.0996(4) 0.6394(4) 0.12662(14)
H14 H 0.1579 0.6552 0.1506
C18 C 0.0294(4) 0.1498(5) 0.04830(14)
H15 H -0.0307 0.1371 0.0248
C19 C -0.0181(3) 0.3753(5) 0.05216(12)
H16 H -0.0775 0.3626 0.0284
C20 C 0.1858(4) 0.0688(4) 0.09744(15)
H17 H 0.2321 -0.0010 0.1076
C21 C 0.0488(3) 0.2735(4) 0.06689(12)
C22 C 0.6662(3) 0.2465(4) 0.07456(15)
H18 H 0.6499 0.2394 0.1062
C23 C 0.6787(3) 0.3722(5) 0.00372(13)
C24 C 0.6089(3) 0.5915(4) 0.05011(12)
C25 C 0.0279(4) 0.7351(5) 0.11154(16)
H19 H 0.0362 0.8162 0.1255
C26 C 0.7127(4) 0.2582(6) -0.01850(18)
H20 H 0.7276 0.2601 -0.0504
C27 C 0.3122(3) 0.3548(4) 0.32391(12)
H21 H 0.2611 0.3879 0.3465
H22 H 0.3848 0.4012 0.3267
H23 H 0.3267 0.2650 0.3301
C28 C -0.0588(4) 0.7146(5) 0.07531(16)
H24 H -0.1075 0.7821 0.0648
C29 C 0.5744(3) 0.7064(4) 0.07091(15)
H25 H 0.5551 0.7058 0.1023
C30 C 0.6361(3) 0.5959(5) 0.00217(14)
C31 C 0.0937(4) 0.0508(5) 0.06313(15)
H26 H 0.0778 -0.0310 0.0508
C32 C -0.0721(4) 0.6000(5) 0.05584(14)
H27 H -0.1300 0.5880 0.0314
C33 C 0.6271(4) 0.7148(6) -0.02134(18)
H28 H 0.6445 0.7191 -0.0530
C34 C 0.5686(4) 0.8167(5) 0.0467(2)
H29 H 0.5464 0.8920 0.0615
C35 C 0.7015(4) 0.1436(5) 0.0520(2)
H30 H 0.7113 0.0659 0.0683
C36 C 0.7237(4) 0.1495(6) 0.0050(2)
H31 H 0.7469 0.0754 -0.0103
C37 C 0.5950(5) 0.8204(6) -0.0002(2)
H32 H 0.5900 0.8978 -0.0168
C38 C 0.6451(3) 0.4907(3) 0.20507(11)
Ag1A Ag 0.51420(2) 0.94970(3) 0.269970(9)
Ag2A Ag 0.56856(3) 0.20713(3) 0.257122(12)
Cl3 Cl 0.86189(9) 0.19690(10) 0.24801(4)
Cl4 Cl 0.92606(10) 0.09968(12) 0.15893(4)
C39 C 0.8228(4) 0.1811(4) 0.18805(15)
H33 H 0.7490 0.1354 0.1838
H34 H 0.8117 0.2660 0.1741
loop_
_geom_bond_atom_site_label_1
_geom_bond_atom_site_label_2
_geom_bond_site_symmetry_1
_geom_bond_site_symmetry_2
Ag1 Ag2 1_555 1_555
Ag2 Cl1 1_555 1_555
Cl2 Ag2 1_555 1_555
N1 C1 1_555 1_555
N2 C2 1_555 1_555
N3 C6 1_555 1_555
C1 Ag1 1_555 1_555
C2 H1 1_555 1_555
H2 C2 1_555 1_555
N4 C1 1_555 1_555
C3 N4 1_555 1_555
H3 C3 1_555 1_555
H4 C3 1_555 1_555
C4 C11 1_555 1_555
C5 C2 1_555 1_555
C6 H5 1_555 1_555
C7 C12 1_555 1_555
C8 N4 1_555 1_555
H6 C8 1_555 1_555
C9 H7 1_555 1_555
C10 N1 1_555 1_555
H8 C10 1_555 1_555
C11 H9 1_555 1_555
C12 C3 1_555 1_555
C13 C5 1_555 1_555
C14 N3 1_555 1_555
H10 C14 1_555 1_555
H11 C14 1_555 1_555
H12 C14 1_555 1_555
C15 N2 1_555 1_555
H13 C15 1_555 1_555
C16 C7 1_555 1_555
C17 C7 1_555 1_555
H14 C17 1_555 1_555
C18 H15 1_555 1_555
C19 C16 1_555 1_555
H16 C19 1_555 1_555
C20 C11 1_555 1_555
H17 C20 1_555 1_555
C21 C4 1_555 1_555
C22 C13 1_555 1_555
H18 C22 1_555 1_555
C23 C9 1_555 1_555
C24 C5 1_555 1_555
C25 C17 1_555 1_555
H19 C25 1_555 1_555
C26 C23 1_555 1_555
H20 C26 1_555 1_555
C27 N1 1_555 1_555
H21 C27 1_555 1_555
H22 C27 1_555 1_555
H23 C27 1_555 1_555
C28 C25 1_555 1_555
H24 C28 1_555 1_555
C29 C24 1_555 1_555
H25 C29 1_555 1_555
C30 C9 1_555 1_555
C31 C18 1_555 1_555
H26 C31 1_555 1_555
C32 C16 1_555 1_555
H27 C32 1_555 1_555
C33 C30 1_555 1_555
H28 C33 1_555 1_555
C34 C29 1_555 1_555
H29 C34 1_555 1_555
C35 C22 1_555 1_555
H30 C35 1_555 1_555
C36 C26 1_555 1_555
H31 C36 1_555 1_555
C37 C33 1_555 1_555
H32 C37 1_555 1_555
C38 Ag1 1_555 1_555
Cl3 C39 1_555 1_555
Cl4 C39 1_555 1_555
C39 H33 1_555 1_555
H34 C39 1_555 1_555
Ag1A Ag2 1_555 1_555
Ag2A Ag1 1_555 1_555
N2 C38 1_555 1_555
N3 C38 1_555 1_555
C4 C12 1_555 1_555
C6 C15 1_555 1_555
C8 C10 1_555 1_555
C13 C23 1_555 1_555
C18 C21 1_555 1_555
C19 C21 1_555 1_555
C20 C31 1_555 1_555
C24 C30 1_555 1_555
C28 C32 1_555 1_555
C34 C37 1_555 1_555
C35 C36 1_555 1_555

#END
