
#######################################################################
#
#                 Cambridge Crystallographic Data Centre
#                                CCDC 
#
#######################################################################
#
# If this CIF has been generated from an entry in the Cambridge 
# Structural Database, then it will include bibliographic, chemical, 
# crystal, experimental, refinement or atomic coordinate data resulting 
# from the CCDC's data processing and validation procedures.
#
#######################################################################

data_VEZZIL
_symmetry_cell_setting           monoclinic
_symmetry_space_group_name_H-M   'P 21/c'
_symmetry_Int_Tables_number      14
_space_group_name_Hall           '-P 2ybc'
loop_
_symmetry_equiv_pos_site_id
_symmetry_equiv_pos_as_xyz
1 x,y,z
2 -x,1/2+y,1/2-z
3 -x,-y,-z
4 x,1/2-y,1/2+z
_cell_length_a                   9.6153(13)
_cell_length_b                   14.644(2)
_cell_length_c                   11.5790(16)
_cell_angle_alpha                90
_cell_angle_beta                 103.514(3)
_cell_angle_gamma                90
_cell_volume                     1585.26
loop_
_atom_site_label
_atom_site_type_symbol
_atom_site_fract_x
_atom_site_fract_y
_atom_site_fract_z
Cu1 Cu 0.95984(3) 0.98960(2) 0.10415(3)
I1 I 1.221625(16) 0.950990(11) 0.084247(13)
S1 S 0.56514(7) 0.83901(5) -0.02487(5)
N1 N 0.8848(2) 0.88817(14) 0.19702(18)
N2 N 0.9806(2) 0.84963(14) 0.28445(18)
N3 N 0.9077(2) 0.79522(14) 0.34210(18)
N4 N 0.5160(2) 0.70369(17) 0.1187(2)
N5 N 1.0154(2) 0.91018(14) 0.76381(18)
C1 C 0.7656(3) 0.79861(17) 0.2939(2)
H1 H 0.6919 0.7665 0.3189
C2 C 0.7512(3) 0.85872(17) 0.2011(2)
C3 C 0.6174(3) 0.89312(18) 0.1202(2)
H2 H 0.6287 0.9594 0.1082
H3 H 0.5381 0.8856 0.1607
C4 C 0.4883(3) 0.73495(19) 0.0067(2)
C5 C 0.4046(3) 0.6875(2) -0.0893(3)
H4 H 0.3865 0.7121 -0.1673
C6 C 0.3487(4) 0.6041(2) -0.0684(3)
H5 H 0.2901 0.5707 -0.1318
C7 C 0.3790(3) 0.5694(2) 0.0464(3)
H6 H 0.3435 0.5115 0.0629
C8 C 0.4625(3) 0.6217(2) 0.1362(3)
H7 H 0.4830 0.5980 0.2147
C9 C 0.9825(3) 0.74681(17) 0.4492(2)
H8 H 1.0801 0.7308 0.4419
H9 H 0.9311 0.6893 0.4568
C10 C 0.8888(3) 0.89755(17) 0.6872(2)
H10 H 0.8063 0.9251 0.7039
C11 C 0.8734(3) 0.84589(18) 0.5845(2)
H11 H 0.7821 0.8393 0.5317
C12 C 0.9923(3) 0.80390(16) 0.5596(2)
C13 C 1.1224(3) 0.81465(18) 0.6403(2)
H12 H 1.2060 0.7857 0.6276
C14 C 1.1291(3) 0.86847(17) 0.7404(2)
H13 H 1.2190 0.8759 0.7949
Cu1B Cu 1.04016(3) 1.01040(2) -0.10415(3)
Cu1B_2 Cu 1.04016(3) 1.01040(2) 0.89585(3)
I1B I 0.778375(16) 1.049010(11) -0.084247(13)
N5B N 0.9846(2) 1.08982(14) 0.23619(18)
loop_
_geom_bond_atom_site_label_1
_geom_bond_atom_site_label_2
_geom_bond_site_symmetry_1
_geom_bond_site_symmetry_2
Cu1 I1 1_555 1_555
I1 Cu1B 1_555 1_555
S1 C3 1_555 1_555
N1 Cu1 1_555 1_555
N2 N1 1_555 1_555
N3 N2 1_555 1_555
N4 C4 1_555 1_555
N5 C10 1_555 1_555
C1 N3 1_555 1_555
H1 C1 1_555 1_555
C2 N1 1_555 1_555
C3 C2 1_555 1_555
H2 C3 1_555 1_555
H3 C3 1_555 1_555
C4 S1 1_555 1_555
C5 C4 1_555 1_555
H4 C5 1_555 1_555
C6 C5 1_555 1_555
H5 C6 1_555 1_555
C7 C6 1_555 1_555
H6 C7 1_555 1_555
C8 N4 1_555 1_555
H7 C8 1_555 1_555
C9 N3 1_555 1_555
H8 C9 1_555 1_555
H9 C9 1_555 1_555
C10 H10 1_555 1_555
C11 C10 1_555 1_555
H11 C11 1_555 1_555
C12 C9 1_555 1_555
C13 C12 1_555 1_555
H12 C13 1_555 1_555
C14 N5 1_555 1_555
H13 C14 1_555 1_555
Cu1B Cu1 1_555 1_555
Cu1B_2 N5 1_555 1_555
I1B Cu1 1_555 1_555
N5B Cu1 1_555 1_555
C1 C2 1_555 1_555
C7 C8 1_555 1_555
C11 C12 1_555 1_555
C13 C14 1_555 1_555
Cu1B I1B 1_555 1_555

#END
