
#######################################################################
#
#                 Cambridge Crystallographic Data Centre
#                                CCDC 
#
#######################################################################
#
# If this CIF has been generated from an entry in the Cambridge 
# Structural Database, then it will include bibliographic, chemical, 
# crystal, experimental, refinement or atomic coordinate data resulting 
# from the CCDC's data processing and validation procedures.
#
#######################################################################

data_VIBHAQ
_symmetry_cell_setting           orthorhombic
_symmetry_space_group_name_H-M   'F d d 2'
_symmetry_Int_Tables_number      43
_space_group_name_Hall           'F 2 -2d'
loop_
_symmetry_equiv_pos_site_id
_symmetry_equiv_pos_as_xyz
1 x,y,z
2 -x,-y,z
3 1/4-x,1/4+y,1/4+z
4 1/4+x,1/4-y,1/4+z
5 x,1/2+y,1/2+z
6 -x,1/2-y,1/2+z
7 1/4-x,3/4+y,3/4+z
8 1/4+x,3/4-y,3/4+z
9 1/2+x,y,1/2+z
10 1/2-x,-y,1/2+z
11 3/4-x,1/4+y,3/4+z
12 3/4+x,1/4-y,3/4+z
13 1/2+x,1/2+y,z
14 1/2-x,1/2-y,z
15 3/4-x,3/4+y,1/4+z
16 3/4+x,3/4-y,1/4+z
_cell_length_a                   21.1746(16)
_cell_length_b                   25.9524(19)
_cell_length_c                   12.2527(9)
_cell_angle_alpha                90
_cell_angle_beta                 90
_cell_angle_gamma                90
_cell_volume                     6733.25
loop_
_atom_site_label
_atom_site_type_symbol
_atom_site_fract_x
_atom_site_fract_y
_atom_site_fract_z
Ag1 Ag 0.078468(17) 0.034104(14) 0.56118(3)
Ag2 Ag -0.030070(18) 0.066608(15) 0.43446(3)
S1 S 0.08733(5) 0.06981(4) 0.36984(11)
S2 S 0.09103(5) -0.06270(4) 0.60957(11)
S3 S 0.19209(6) 0.07924(5) 0.62901(11)
S4 S 0.11720(8) 0.03657(6) 0.14381(12)
S5 S 0.26995(7) 0.07227(5) 0.83095(13)
S6 S 0.06791(8) -0.08928(7) 0.84120(13)
C1 C 0.08874(19) 0.01993(17) 0.2760(4)
N1 N 0.07276(17) -0.02670(14) 0.2882(3)
N2 N -0.02231(17) -0.06161(14) 0.7110(3)
C2 C 0.0369(2) -0.06917(14) 0.7152(4)
C3 C 0.21782(18) 0.04635(18) 0.7391(4)
C4 C -0.0532(3) -0.0698(2) 0.8170(5)
H1 H -0.0911 -0.0902 0.8068
H2 H -0.0653 -0.0369 0.8478
N3 N 0.2028(2) -0.00227(17) 0.7634(4)
C5 C 0.0756(2) -0.0568(2) 0.1861(4)
H3 H 0.0335 -0.0605 0.1561
H4 H 0.0920 -0.0909 0.2013
C6 C 0.1177(3) -0.0301(3) 0.1041(5)
H5 H 0.1013 -0.0342 0.0307
H6 H 0.1602 -0.0440 0.1068
C7 C 0.2365(3) -0.0250(2) 0.8543(5)
H7 H 0.2700 -0.0472 0.8277
H8 H 0.2079 -0.0456 0.8983
C8 C 0.2634(3) 0.0177(2) 0.9206(5)
H9 H 0.3045 0.0082 0.9489
H10 H 0.2358 0.0257 0.9816
C9 C -0.0092(3) -0.0973(4) 0.8946(6)
H11 H -0.0199 -0.1336 0.8991
H12 H -0.0121 -0.0824 0.9671
H13 H 0.1743 -0.0165 0.7231
Ag1A Ag -0.078468(17) -0.034104(14) 0.56118(3)
Ag2A Ag 0.030070(18) -0.066608(15) 0.43446(3)
Ag2C Ag 0.219930(18) 0.183392(15) 0.68446(3)
S2A S -0.09103(5) 0.06270(4) 0.60957(11)
S3K S -0.05791(6) 0.17076(5) 0.37901(11)
N1A N -0.07276(17) 0.02670(14) 0.2882(3)
N2A N 0.02231(17) 0.06161(14) 0.7110(3)
loop_
_geom_bond_atom_site_label_1
_geom_bond_atom_site_label_2
_geom_bond_site_symmetry_1
_geom_bond_site_symmetry_2
Ag1 S1 1_555 1_555
Ag2 S1 1_555 1_555
S1 C1 1_555 1_555
S2 Ag1 1_555 1_555
S3 Ag1 1_555 1_555
S4 C1 1_555 1_555
S5 C3 1_555 1_555
S6 C2 1_555 1_555
C1 N1 1_555 1_555
N1 C5 1_555 1_555
N2 C2 1_555 1_555
C2 S2 1_555 1_555
C3 S3 1_555 1_555
C4 N2 1_555 1_555
H1 C4 1_555 1_555
H2 C4 1_555 1_555
N3 C3 1_555 1_555
C5 H3 1_555 1_555
H4 C5 1_555 1_555
C6 S4 1_555 1_555
H5 C6 1_555 1_555
H6 C6 1_555 1_555
C7 N3 1_555 1_555
H7 C7 1_555 1_555
H8 C7 1_555 1_555
C8 S5 1_555 1_555
H9 C8 1_555 1_555
H10 C8 1_555 1_555
C9 S6 1_555 1_555
H11 C9 1_555 1_555
H12 C9 1_555 1_555
H13 N3 1_555 1_555
Ag1A N2 1_555 1_555
Ag2A S2 1_555 1_555
Ag2C S3 1_555 1_555
S2A Ag2 1_555 1_555
S3K Ag2 1_555 1_555
N1A Ag2 1_555 1_555
N2A Ag1 1_555 1_555
N1 Ag2A 1_555 1_555
C4 C9 1_555 1_555
C5 C6 1_555 1_555
C7 C8 1_555 1_555
Ag1A S2A 1_555 1_555

#END
