
#######################################################################
#
#                 Cambridge Crystallographic Data Centre
#                                CCDC 
#
#######################################################################
#
# If this CIF has been generated from an entry in the Cambridge 
# Structural Database, then it will include bibliographic, chemical, 
# crystal, experimental, refinement or atomic coordinate data resulting 
# from the CCDC's data processing and validation procedures.
#
#######################################################################

data_VIBJOF
_symmetry_cell_setting           monoclinic
_symmetry_space_group_name_H-M   'C c'
_symmetry_Int_Tables_number      9
_space_group_name_Hall           'C -2yc'
loop_
_symmetry_equiv_pos_site_id
_symmetry_equiv_pos_as_xyz
1 x,y,z
2 1/2+x,1/2+y,z
3 x,-y,1/2+z
4 1/2+x,1/2-y,1/2+z
_cell_length_a                   11.659(5)
_cell_length_b                   13.864(4)
_cell_length_c                   11.586(8)
_cell_angle_alpha                90
_cell_angle_beta                 94.09(4)
_cell_angle_gamma                90
_cell_volume                     1868
loop_
_atom_site_label
_atom_site_type_symbol
_atom_site_fract_x
_atom_site_fract_y
_atom_site_fract_z
U1 U 0.000 0.96427(4) 0.000
O1 O 0.148(1) 1.006(1) 0.031(1)
O2 O -0.137(1) 0.926(1) -0.028(1)
O3 O 0.086(1) 0.799(1) -0.018(1)
O4 O 0.054(1) 0.887(1) -0.182(1)
O5 O -0.005(1) 0.884(1) 0.176(1)
O6 O -0.023(1) 1.085(1) -0.132(1)
O7 O -0.062(1) 1.093(1) 0.120(1)
C1 C -0.028(2) 0.864(2) 0.281(2)
C2 C -0.071(2) 0.764(2) 0.289(2)
C3 C -0.088(2) 0.726(2) 0.396(2)
C4 C -0.122(3) 0.634(3) 0.410(3)
C5 C -0.144(2) 0.572(2) 0.330(2)
C6 C -0.130(3) 0.619(2) 0.194(3)
C7 C -0.086(2) 0.708(2) 0.197(3)
C8 C 0.084(2) 0.802(2) -0.124(2)
C9 C 0.108(2) 0.715(1) -0.184(2)
C10 C 0.118(2) 0.626(2) -0.135(2)
C11 C 0.142(2) 0.545(2) -0.200(2)
C12 C 0.158(3) 0.561(2) -0.292(3)
C13 C 0.154(2) 0.637(2) -0.372(2)
C14 C 0.126(2) 0.720(2) -0.313(2)
C1B C -0.028(2) 1.136(2) -0.219(2)
O6B O -0.023(1) 0.915(1) 0.368(1)
O5B O -0.005(1) 1.116(1) -0.324(1)
C2B C -0.071(2) 1.236(2) -0.211(2)
U1B U 0.000 1.03573(4) 0.500
U1B_2 U 0.000 1.03573(4) -0.500
C3B C -0.088(2) 1.274(2) -0.104(2)
C7B C -0.086(2) 1.292(2) -0.303(3)
O1B O 0.148(1) 0.994(1) 0.531(1)
O2B O -0.137(1) 1.074(1) 0.472(1)
O3B O 0.086(1) 1.201(1) 0.482(1)
O4B O 0.054(1) 1.113(1) 0.318(1)
O5B_2 O -0.005(1) 1.116(1) 0.676(1)
O7B O -0.062(1) 0.907(1) 0.620(1)
C4B C -0.122(3) 1.366(3) -0.090(3)
C6B C -0.130(3) 1.381(2) -0.306(3)
C8B C 0.084(2) 1.198(2) 0.376(2)
C5B C -0.144(2) 1.428(2) -0.170(2)
C9B C 0.108(2) 1.285(1) 0.316(2)
C10B C 0.118(2) 1.374(2) 0.365(2)
C14B C 0.126(2) 1.280(2) 0.187(2)
C11B C 0.142(2) 1.455(2) 0.300(2)
C13B C 0.154(2) 1.363(2) 0.128(2)
C12B C 0.158(3) 1.439(2) 0.208(3)
O8 O -0.249(2) 1.202(1) 0.136(1)
C15 C -0.270(3) 1.200(3) 0.268(3)
C16 C -0.225(4) 1.295(3) 0.293(4)
loop_
_geom_bond_atom_site_label_1
_geom_bond_atom_site_label_2
_geom_bond_site_symmetry_1
_geom_bond_site_symmetry_2
U1 O1 1_555 1_555
O2 U1 1_555 1_555
O3 U1 1_555 1_555
O4 U1 1_555 1_555
O5 U1 1_555 1_555
O6 U1 1_555 1_555
O7 U1 1_555 1_555
O8 C15 1_555 1_555
C1 O5 1_555 1_555
C2 C1 1_555 1_555
C3 C2 1_555 1_555
C4 C3 1_555 1_555
C5 C4 1_555 1_555
C6 C5 1_555 1_555
C7 C2 1_555 1_555
C8 O3 1_555 1_555
C9 C8 1_555 1_555
C10 C9 1_555 1_555
C11 C10 1_555 1_555
C12 C11 1_555 1_555
C13 C12 1_555 1_555
C14 C9 1_555 1_555
C15 C16 1_555 1_555
C1B O6 1_555 1_555
O6B C1 1_555 1_555
O5B C1B 1_555 1_555
C2B C1B 1_555 1_555
U1B O6B 1_555 1_555
U1B_2 O5B 1_555 1_555
C3B C2B 1_555 1_555
C7B C2B 1_555 1_555
O1B U1B 1_555 1_555
O2B U1B 1_555 1_555
O3B U1B 1_555 1_555
O4B U1B 1_555 1_555
O5B_2 U1B 1_555 1_555
O7B U1B 1_555 1_555
C4B C3B 1_555 1_555
C6B C7B 1_555 1_555
C8B O3B 1_555 1_555
C5B C4B 1_555 1_555
C9B C8B 1_555 1_555
C10B C9B 1_555 1_555
C14B C9B 1_555 1_555
C11B C10B 1_555 1_555
C13B C14B 1_555 1_555
C12B C11B 1_555 1_555
O4 C8 1_555 1_555
C6 C7 1_555 1_555
C13 C14 1_555 1_555
O4B C8B 1_555 1_555
C6B C5B 1_555 1_555
C13B C12B 1_555 1_555

#END
