
#######################################################################
#
#                 Cambridge Crystallographic Data Centre
#                                CCDC 
#
#######################################################################
#
# If this CIF has been generated from an entry in the Cambridge 
# Structural Database, then it will include bibliographic, chemical, 
# crystal, experimental, refinement or atomic coordinate data resulting 
# from the CCDC's data processing and validation procedures.
#
#######################################################################

data_VIBPAZ
_symmetry_cell_setting           rhombohedral
_symmetry_space_group_name_H-M   'R -3'
_symmetry_Int_Tables_number      148
_space_group_name_Hall           '-R 3'
loop_
_symmetry_equiv_pos_site_id
_symmetry_equiv_pos_as_xyz
1 x,y,z
2 -y,x-y,z
3 -x+y,-x,z
4 1/3+x,2/3+y,2/3+z
5 1/3-y,2/3+x-y,2/3+z
6 1/3-x+y,2/3-x,2/3+z
7 2/3+x,1/3+y,1/3+z
8 2/3-y,1/3+x-y,1/3+z
9 2/3-x+y,1/3-x,1/3+z
10 -x,-y,-z
11 y,-x+y,-z
12 x-y,x,-z
13 2/3-x,1/3-y,1/3-z
14 2/3+y,1/3-x+y,1/3-z
15 2/3+x-y,1/3+x,1/3-z
16 1/3-x,2/3-y,2/3-z
17 1/3+y,2/3-x+y,2/3-z
18 1/3+x-y,2/3+x,2/3-z
_cell_length_a                   14.02463(7)
_cell_length_b                   14.02463
_cell_length_c                   25.0329(2)
_cell_angle_alpha                90
_cell_angle_beta                 90
_cell_angle_gamma                120
_cell_volume                     4264.07
loop_
_atom_site_label
_atom_site_type_symbol
_atom_site_fract_x
_atom_site_fract_y
_atom_site_fract_z
C1 C 0.4588(10) -0.1068(8) 0.1012(4)
C2 C 0.5490(8) 0.0024(9) 0.0860(5)
N1 N 0.6509(7) -0.0033(8) 0.0700(5)
C3 C 0.7104(9) -0.0146(9) 0.1111(5)
C4 C 0.7276(8) 0.0897(8) 0.0340(5)
P1 P 0.79425(27) -0.08350(30) 0.09565(16)
P2 P 0.81115(30) 0.23458(28) 0.05953(15)
O1 O 0.8639(5) -0.0584(7) 0.14406(26)
O2 O 0.7172(6) -0.2015(6) 0.08248(35)
O3 O 0.8671(5) -0.0285(5) 0.04729(24)
O4 O 0.8973(6) 0.2396(5) 0.10347(32)
O5 O 0.8630(6) 0.3055(6) 0.01144(31)
O6 O 0.7364(7) 0.2634(7) 0.09223(31)
Zr1 Zr 0.6667 0.3333 0.13854(7)
Zr2 Zr 1.0 0.000 0.000
C1A C 1.1068(8) -0.4344(13) 0.1012(4)
C2A C 0.9976(9) -0.4534(12) 0.0860(5)
N1A N 1.0033(8) -0.3458(11) 0.0700(5)
C3A C 1.0146(9) -0.2750(13) 0.1111(5)
C4A C 0.9103(8) -0.3621(11) 0.0340(5)
P1A P 1.08350(30) -0.12225(40) 0.09565(16)
P2A P 0.76542(28) -0.42343(41) 0.05953(15)
O1A O 1.0584(7) -0.0777(9) 0.14406(26)
O2A O 1.2015(6) -0.0813(8) 0.08248(35)
O3A O 1.0285(5) -0.1044(7) 0.04729(24)
O4A O 0.7604(5) -0.3423(8) 0.10347(32)
O5A O 0.6945(6) -0.4425(8) 0.01144(31)
O6A O 0.7366(7) -0.5270(10) 0.09223(31)
C1I C 1.5412(10) 0.1068(8) -0.1012(4)
C2I C 1.4510(8) -0.0024(9) -0.0860(5)
N1I N 1.3491(7) 0.0033(8) -0.0700(5)
C3I C 1.2896(9) 0.0146(9) -0.1111(5)
C4I C 1.2724(8) -0.0897(8) -0.0340(5)
P1I P 1.20575(27) 0.08350(30) -0.09565(16)
P2I P 1.18885(30) -0.23458(28) -0.05953(15)
O1I O 1.1361(5) 0.0584(7) -0.14406(26)
O2I O 1.2828(6) 0.2015(6) -0.08248(35)
O3I O 1.1329(5) 0.0285(5) -0.04729(24)
O4I O 1.1027(6) -0.2396(5) -0.10347(32)
O5I O 1.1370(6) -0.3055(6) -0.01144(31)
O6I O 1.2636(7) -0.2634(7) -0.09223(31)
Zr1I Zr 1.3333 -0.3333 -0.13854(7)
C1K C 0.5656(13) -0.5412(10) -0.1012(4)
C2K C 0.5466(12) -0.4510(8) -0.0860(5)
N1K N 0.6542(11) -0.3491(7) -0.0700(5)
C3K C 0.7250(13) -0.2896(9) -0.1111(5)
C4K C 0.6379(11) -0.2724(8) -0.0340(5)
P1K P 0.87775(40) -0.20575(27) -0.09565(16)
P2K P 0.57657(41) -0.18885(30) -0.05953(15)
O1K O 0.9223(9) -0.1361(5) -0.14406(26)
O2K O 0.9187(8) -0.2828(6) -0.08248(35)
O3K O 0.8956(7) -0.1329(5) -0.04729(24)
O4K O 0.6577(8) -0.1027(6) -0.10347(32)
O5K O 0.5575(8) -0.1370(6) -0.01144(31)
O6K O 0.4730(10) -0.2636(7) -0.09223(31)
C1N C 0.2323(13) -0.2079(10) 0.2321(4)
C2N C 0.2133(12) -0.1177(8) 0.2473(5)
N1N N 0.3209(11) -0.0158(7) 0.2633(5)
C3N C 0.3917(13) 0.0437(9) 0.2222(5)
C4N C 0.3046(11) 0.0609(8) 0.2993(5)
P1N P 0.54442(40) 0.12758(27) 0.23768(16)
P2N P 0.24324(41) 0.14448(30) 0.27380(15)
O1N O 0.5890(9) 0.1972(5) 0.18927(26)
O2N O 0.5854(8) 0.0505(6) 0.25085(35)
O3N O 0.5623(7) 0.2004(5) 0.28604(24)
O4N O 0.3244(8) 0.2306(6) 0.22986(32)
O5N O 0.2242(8) 0.1963(6) 0.32189(31)
O6N O 0.1397(10) 0.0697(7) 0.24110(31)
C1M C 0.5599(8) 0.7677(13) 0.2321(4)
C2M C 0.6691(9) 0.7867(12) 0.2473(5)
N1M N 0.6634(8) 0.6791(11) 0.2633(5)
C3M C 0.6521(9) 0.6083(13) 0.2222(5)
C4M C 0.7564(8) 0.6954(11) 0.2993(5)
P1M P 0.58317(30) 0.45558(40) 0.23768(16)
P2M P 0.90125(28) 0.75676(41) 0.27380(15)
O1M O 0.6083(7) 0.4110(9) 0.18927(26)
O2M O 0.4652(6) 0.4146(8) 0.25085(35)
O3M O 0.6382(5) 0.4377(7) 0.28604(24)
O4M O 0.9063(5) 0.6756(8) 0.22986(32)
O5M O 0.9722(6) 0.7758(8) 0.32189(31)
O6M O 0.9301(7) 0.8603(10) 0.24110(31)
O1C O 1.1972(5) -0.3917(7) -0.18927(26)
O1D O 1.3917(7) -0.4110(9) -0.18927(26)
O1E O 1.4110(9) -0.1972(5) -0.18927(26)
O1L O 0.8028(5) 0.3917(7) 0.18927(26)
O3B O 1.1044(7) 0.1329(5) 0.04729(24)
O3J O 0.9715(5) 0.1044(7) -0.04729(24)
O6A_2 O 0.7366(7) 0.4730(10) 0.09223(31)
O6B O 0.5270(10) 0.2636(7) 0.09223(31)
O6J O 1.2634(7) -0.4730(10) -0.09223(31)
O6K_2 O 1.4730(10) -0.2636(7) -0.09223(31)
Zr1_2 Zr 0.6667 -0.6667 0.13854(7)
Zr1I_2 Zr 0.3333 -0.3333 -0.13854(7)
Zr1C Zr 1.0000 -0.0000 -0.19479(7)
Zr1L Zr -0.0000 0.0000 0.19479(7)
Zr1L_2 Zr 1.0000 0.0000 0.19479(7)
Zr1L_3 Zr 1.0000 1.0000 0.19479(7)
Zr2L Zr 0.666667 0.333333 0.333333
loop_
_geom_bond_atom_site_label_1
_geom_bond_atom_site_label_2
_geom_bond_site_symmetry_1
_geom_bond_site_symmetry_2
C1 C2 1_555 1_555
C2 N1 1_555 1_555
N1 C3 1_555 1_555
C3 P1 1_555 1_555
C4 N1 1_555 1_555
P1 O1 1_555 1_555
P2 C4 1_555 1_555
O1 Zr1L_2 1_555 1_555
O2 P1 1_555 1_555
O3 P1 1_555 1_555
O4 P2 1_555 1_555
O5 P2 1_555 1_555
O6 P2 1_555 1_555
Zr1 O6 1_555 1_555
Zr2 O3 1_555 1_555
C1A C2A 1_555 1_555
C2A N1A 1_555 1_555
N1A C3A 1_555 1_555
C3A P1A 1_555 1_555
C4A N1A 1_555 1_555
P1A O1A 1_555 1_555
P2A C4A 1_555 1_555
O1A Zr1L_2 1_555 1_555
O2A P1A 1_555 1_555
O3A Zr2 1_555 1_555
O4A P2A 1_555 1_555
O5A P2A 1_555 1_555
O6A P2A 1_555 1_555
C1I C2I 1_555 1_555
C2I N1I 1_555 1_555
N1I C3I 1_555 1_555
C3I P1I 1_555 1_555
C4I N1I 1_555 1_555
P1I O1I 1_555 1_555
P2I C4I 1_555 1_555
O1I Zr1C 1_555 1_555
O2I P1I 1_555 1_555
O3I Zr2 1_555 1_555
O4I P2I 1_555 1_555
O5I P2I 1_555 1_555
O6I P2I 1_555 1_555
Zr1I O6I 1_555 1_555
C1K C2K 1_555 1_555
C2K N1K 1_555 1_555
N1K C3K 1_555 1_555
C3K P1K 1_555 1_555
C4K N1K 1_555 1_555
P1K O1K 1_555 1_555
P2K C4K 1_555 1_555
O1K Zr1C 1_555 1_555
O2K P1K 1_555 1_555
O3K Zr2 1_555 1_555
O4K P2K 1_555 1_555
O5K P2K 1_555 1_555
O6K P2K 1_555 1_555
C1N C2N 1_555 1_555
C2N N1N 1_555 1_555
N1N C3N 1_555 1_555
C3N P1N 1_555 1_555
C4N N1N 1_555 1_555
P1N O1N 1_555 1_555
P2N C4N 1_555 1_555
O1N Zr1 1_555 1_555
O2N P1N 1_555 1_555
O3N P1N 1_555 1_555
O4N P2N 1_555 1_555
O5N P2N 1_555 1_555
O6N P2N 1_555 1_555
C1M C2M 1_555 1_555
C2M N1M 1_555 1_555
N1M C3M 1_555 1_555
C3M P1M 1_555 1_555
C4M N1M 1_555 1_555
P1M O1M 1_555 1_555
P2M C4M 1_555 1_555
O1M Zr1 1_555 1_555
O2M P1M 1_555 1_555
O3M P1M 1_555 1_555
O4M P2M 1_555 1_555
O5M P2M 1_555 1_555
O6M P2M 1_555 1_555
O1C Zr1I 1_555 1_555
O1D Zr1I 1_555 1_555
O1E Zr1I 1_555 1_555
O1L Zr1 1_555 1_555
O3B Zr2 1_555 1_555
O3J Zr2 1_555 1_555
O6A_2 Zr1 1_555 1_555
O6B Zr1 1_555 1_555
O6J Zr1I 1_555 1_555
O6K_2 Zr1I 1_555 1_555
Zr1_2 O6A 1_555 1_555
Zr1I_2 O6K 1_555 1_555
Zr1L O6N 1_555 1_555
Zr1L_3 O6M 1_555 1_555
Zr2L O3N 1_555 1_555
P1A O3A 1_555 1_555
P1I O3I 1_555 1_555
P1K O3K 1_555 1_555
O3M Zr2L 1_555 1_555

#END
