
#######################################################################
#
#                 Cambridge Crystallographic Data Centre
#                                CCDC 
#
#######################################################################
#
# If this CIF has been generated from an entry in the Cambridge 
# Structural Database, then it will include bibliographic, chemical, 
# crystal, experimental, refinement or atomic coordinate data resulting 
# from the CCDC's data processing and validation procedures.
#
#######################################################################

data_VIBPED
_symmetry_cell_setting           triclinic
_symmetry_space_group_name_H-M   'P -1'
_symmetry_Int_Tables_number      2
_space_group_name_Hall           '-P 1'
loop_
_symmetry_equiv_pos_site_id
_symmetry_equiv_pos_as_xyz
1 x,y,z
2 -x,-y,-z
_cell_length_a                   5.25279(9)
_cell_length_b                   8.5405(1)
_cell_length_c                   10.8457(2)
_cell_angle_alpha                84.869(1)
_cell_angle_beta                 88.183(1)
_cell_angle_gamma                72.651(1)
_cell_volume                     462.551
loop_
_atom_site_label
_atom_site_type_symbol
_atom_site_fract_x
_atom_site_fract_y
_atom_site_fract_z
Zr1 Zr 0.500 1.0 0.500
P1 P 1.4557(11) 0.1204(6) 0.8133(5)
P2 P 1.1533(10) 0.7296(7) 0.5353(5)
O1 O 1.6945(18) 0.1290(12) 0.8783(9)
O2 O 1.2529(18) 0.6115(11) 0.4385(9)
O3 O 1.2964(19) 0.0273(14) 0.8821(8)
O4 O 1.3514(18) 0.8210(12) 0.5657(8)
O5 O 0.8859(17) 0.8625(12) 0.5049(9)
O6 O 1.5571(20) 0.0679(13) 0.6782(8)
N1 N 1.3096(22) 0.4654(14) 0.7261(12)
C1 C 1.4738(27) 0.5297(20) 0.8010(14)
C2 C 1.0721(27) 0.6050(16) 0.6720(11)
C3 C 1.2210(25) 0.3304(11) 0.7817(13)
Zr2 Zr 2.0 0.000 1.0
F1 F 1.9954(16) -0.2141(10) 0.9509(7)
P1A P -0.4557(11) 1.8796(6) 0.1867(5)
P2A P -0.1533(10) 1.2704(7) 0.4647(5)
O1A O -0.6945(18) 1.8710(12) 0.1217(9)
O2A O -0.2529(18) 1.3885(11) 0.5615(9)
O3A O -0.2964(19) 1.9727(14) 0.1179(8)
O4A O -0.3514(18) 1.1790(12) 0.4343(8)
O5A O 0.1141(17) 1.1375(12) 0.4951(9)
O6A O -0.5571(20) 1.9321(13) 0.3218(8)
N1A N -0.3096(22) 1.5346(14) 0.2739(12)
C1A C -0.4738(27) 1.4703(20) 0.1990(14)
C2A C -0.0721(27) 1.3950(16) 0.3280(11)
C3A C -0.2210(25) 1.6696(11) 0.2183(13)
F1A F 2.0046(16) 0.2141(10) 1.0491(7)
Zr1_2 Zr -0.500 1.0 0.500
Zr1_3 Zr -0.500 2.0 0.500
Zr1_4 Zr 1.500 0.0 0.500
Zr1_5 Zr 1.500 1.0 0.500
O1A_2 O 2.3055(18) -0.1290(12) 1.1217(9)
O3_2 O 2.2964(19) 0.0273(14) 0.8821(8)
O3A_2 O 1.7036(19) -0.0273(14) 1.1179(8)
O4_2 O 0.3514(18) 0.8210(12) 0.5657(8)
O4A_2 O 0.6486(18) 1.1790(12) 0.4343(8)
O6_2 O 0.5571(20) 1.0679(13) 0.6782(8)
O6A_2 O 0.4429(20) 0.9321(13) 0.3218(8)
Zr2_2 Zr -1.0 2.000 0.0
Zr2_3 Zr 0.0 2.000 0.0
Zr2_4 Zr 1.0 0.000 1.0
loop_
_geom_bond_atom_site_label_1
_geom_bond_atom_site_label_2
_geom_bond_site_symmetry_1
_geom_bond_site_symmetry_2
Zr1 O5 1_555 1_555
P1 O1 1_555 1_555
P2 O2 1_555 1_555
O1 Zr2 1_555 1_555
O3 P1 1_555 1_555
O4 P2 1_555 1_555
O5 P2 1_555 1_555
O6 P1 1_555 1_555
N1 C1 1_555 1_555
C2 P2 1_555 1_555
C3 P1 1_555 1_555
Zr2 F1 1_555 1_555
P1A O1A 1_555 1_555
P2A O2A 1_555 1_555
O1A Zr2_2 1_555 1_555
O3A P1A 1_555 1_555
O4A P2A 1_555 1_555
O5A Zr1 1_555 1_555
O6A P1A 1_555 1_555
N1A C1A 1_555 1_555
C2A P2A 1_555 1_555
C3A P1A 1_555 1_555
F1A Zr2 1_555 1_555
Zr1_2 O4A 1_555 1_555
Zr1_3 O6A 1_555 1_555
Zr1_4 O6 1_555 1_555
Zr1_5 O4 1_555 1_555
O1A_2 Zr2 1_555 1_555
O3_2 Zr2 1_555 1_555
O3A_2 Zr2 1_555 1_555
O4_2 Zr1 1_555 1_555
O4A_2 Zr1 1_555 1_555
O6_2 Zr1 1_555 1_555
O6A_2 Zr1 1_555 1_555
Zr2_3 O3A 1_555 1_555
Zr2_4 O3 1_555 1_555
N1 C2 1_555 1_555
N1 C3 1_555 1_555
P2A O5A 1_555 1_555
N1A C2A 1_555 1_555
N1A C3A 1_555 1_555

#END
