
#######################################################################
#
#                 Cambridge Crystallographic Data Centre
#                                CCDC 
#
#######################################################################
#
# If this CIF has been generated from an entry in the Cambridge 
# Structural Database, then it will include bibliographic, chemical, 
# crystal, experimental, refinement or atomic coordinate data resulting 
# from the CCDC's data processing and validation procedures.
#
#######################################################################

data_VIBVEJ
_symmetry_cell_setting           triclinic
_symmetry_space_group_name_H-M   'P -1'
_symmetry_Int_Tables_number      2
_space_group_name_Hall           '-P 1'
loop_
_symmetry_equiv_pos_site_id
_symmetry_equiv_pos_as_xyz
1 x,y,z
2 -x,-y,-z
_cell_length_a                   9.2903(19)
_cell_length_b                   12.440(3)
_cell_length_c                   15.951(3)
_cell_angle_alpha                88.00(3)
_cell_angle_beta                 88.44(3)
_cell_angle_gamma                79.83(3)
_cell_volume                     1812.99
loop_
_atom_site_label
_atom_site_type_symbol
_atom_site_fract_x
_atom_site_fract_y
_atom_site_fract_z
Cd1 Cd -0.07518(3) 0.78068(2) 0.625134(17)
Cd2 Cd 0.0000 0.5000 0.5000
Cl1 Cl -0.82650(12) 1.03415(10) 0.84791(8)
Cl2 Cl -0.51080(14) 0.94257(14) 0.91234(9)
Cl3 Cl -0.40002(17) 0.73225(12) 0.11553(8)
Cl4 Cl -0.08372(16) 0.60193(11) 0.15583(8)
Cl5 Cl 0.65431(16) 0.53925(14) 0.90292(9)
Cl6 Cl 0.34182(18) 0.68367(13) 0.93722(8)
O1 O -0.8372(3) 0.8150(2) 0.56965(17)
O2 O -0.2768(3) 0.6942(2) 0.66132(17)
O3 O -0.5311(3) 0.9578(2) 0.3953(2)
O4 O -0.0439(3) 0.6866(2) 0.48319(17)
O5 O 0.5885(3) 0.3934(2) 0.59727(18)
O6 O 0.0548(3) 0.6201(2) 0.66741(18)
N1 N -0.6042(3) 0.7250(3) 0.5502(2)
H1 H -0.6324 0.6999 0.5051
N2 N -0.4574(3) 0.6906(2) 0.5697(2)
N3 N -0.3366(4) 0.9038(3) 0.4787(2)
H2 H -0.3689 0.9570 0.5110
N4 N -0.2120(4) 0.8332(2) 0.5042(2)
N5 N 0.3500(3) 0.4555(2) 0.5680(2)
H3 H 0.3651 0.4221 0.5214
N6 N 0.2080(3) 0.5123(2) 0.5819(2)
N7 N -0.1209(3) 0.9708(2) 0.6609(2)
N8 N -0.0944(3) 0.8022(2) 0.7759(2)
C1 C -0.7514(4) 0.9087(3) 0.7155(3)
H4 H -0.8461 0.9339 0.6975
C2 C -0.7057(4) 0.9439(3) 0.7892(3)
C3 C -0.5633(5) 0.9041(4) 0.8170(3)
C4 C -0.4665(4) 0.8337(3) 0.7683(3)
H5 H -0.3714 0.8094 0.7860
C5 C -0.5116(4) 0.7991(3) 0.6925(2)
C6 C -0.6552(4) 0.8349(3) 0.6677(2)
C7 C -0.7072(4) 0.7924(3) 0.5930(2)
C8 C -0.4102(4) 0.7258(3) 0.6394(2)
C9 C -0.3996(5) 0.8102(4) 0.2707(3)
H6 H -0.4905 0.8514 0.2580
C10 C -0.3249(5) 0.7418(4) 0.2131(3)
C11 C -0.1869(5) 0.6802(3) 0.2313(3)
C12 C -0.1299(4) 0.6835(3) 0.3092(3)
H7 H -0.0402 0.6406 0.3219
C13 C -0.2061(4) 0.7509(3) 0.3692(2)
C14 C -0.3388(4) 0.8182(3) 0.3489(2)
C15 C -0.4120(4) 0.8981(3) 0.4093(3)
C16 C -0.1518(4) 0.7554(3) 0.4545(2)
C17 C 0.5471(4) 0.4962(3) 0.7562(3)
H8 H 0.6388 0.4542 0.7462
C18 C 0.5188(5) 0.5510(3) 0.8295(3)
C19 C 0.3804(5) 0.6134(4) 0.8456(3)
C20 C 0.2734(5) 0.6205(3) 0.7864(3)
H9 H 0.1822 0.6631 0.7965
C21 C 0.2996(4) 0.5654(3) 0.7125(2)
C22 C 0.4381(4) 0.5033(3) 0.6963(2)
C23 C 0.4657(4) 0.4461(3) 0.6179(2)
C24 C 0.1827(4) 0.5679(3) 0.6517(2)
C25 C -0.1304(4) 1.0519(3) 0.6046(3)
H10 H -0.1174 1.0354 0.5481
C26 C -0.1593(5) 1.1620(4) 0.6265(3)
H11 H -0.1625 1.2172 0.5854
C27 C -0.1827(5) 1.1869(3) 0.7083(3)
H12 H -0.2046 1.2595 0.7235
C28 C -0.1736(4) 1.1033(3) 0.7699(3)
C29 C -0.1936(5) 1.1220(4) 0.8581(3)
H13 H -0.2170 1.1935 0.8759
C30 C -0.1797(5) 1.0403(4) 0.9158(3)
H14 H -0.1922 1.0555 0.9725
C31 C -0.1454(5) 0.9290(4) 0.8901(3)
C32 C -0.1338(5) 0.8383(4) 0.9459(3)
H15 H -0.1439 0.8490 1.0033
C33 C -0.1081(5) 0.7352(4) 0.9170(3)
H16 H -0.1035 0.6752 0.9539
C34 C -0.0887(4) 0.7214(3) 0.8316(3)
H17 H -0.0704 0.6504 0.8124
C35 C -0.1408(4) 0.9952(3) 0.7429(3)
C36 C -0.1252(4) 0.9060(3) 0.8044(2)
O7 O 0.1641(3) 0.5078(2) 0.38740(17)
Cd1A Cd 0.07518(3) 0.21932(2) 0.374866(17)
Cl1A Cl 0.82650(12) -0.03415(10) 0.15209(8)
Cl2A Cl 0.51080(14) 0.05743(14) 0.08766(9)
Cl3A Cl 0.40002(17) 0.26775(12) 0.88447(8)
Cl4A Cl 0.08372(16) 0.39807(11) 0.84417(8)
Cl5A Cl -0.65431(16) 0.46075(14) 0.09708(9)
Cl6A Cl -0.34182(18) 0.31633(13) 0.06278(8)
O1A O 0.8372(3) 0.1850(2) 0.43035(17)
O2A O 0.2768(3) 0.3058(2) 0.33868(17)
O3A O 0.5311(3) 0.0422(2) 0.6047(2)
O4A O 0.0439(3) 0.3134(2) 0.51681(17)
O5A O -0.5885(3) 0.6066(2) 0.40273(18)
O6A O -0.0548(3) 0.3799(2) 0.33259(18)
N1A N 0.6042(3) 0.2750(3) 0.4498(2)
H1A H 0.6324 0.3001 0.4949
N2A N 0.4574(3) 0.3094(2) 0.4303(2)
N3A N 0.3366(4) 0.0962(3) 0.5213(2)
H2A H 0.3689 0.0430 0.4890
N4A N 0.2120(4) 0.1668(2) 0.4958(2)
N5A N -0.3500(3) 0.5445(2) 0.4320(2)
H3A H -0.3651 0.5779 0.4786
N6A N -0.2080(3) 0.4877(2) 0.4181(2)
N7A N 0.1209(3) 0.0292(2) 0.3391(2)
N8A N 0.0944(3) 0.1978(2) 0.2241(2)
C1A C 0.7514(4) 0.0913(3) 0.2845(3)
H4A H 0.8461 0.0661 0.3025
C2A C 0.7057(4) 0.0561(3) 0.2108(3)
C3A C 0.5633(5) 0.0959(4) 0.1830(3)
C4A C 0.4665(4) 0.1663(3) 0.2317(3)
H5A H 0.3714 0.1906 0.2140
C5A C 0.5116(4) 0.2009(3) 0.3075(2)
C6A C 0.6552(4) 0.1651(3) 0.3323(2)
C7A C 0.7072(4) 0.2076(3) 0.4070(2)
C8A C 0.4102(4) 0.2742(3) 0.3606(2)
C9A C 0.3996(5) 0.1898(4) 0.7293(3)
H6A H 0.4905 0.1486 0.7420
C10A C 0.3249(5) 0.2582(4) 0.7869(3)
C11A C 0.1869(5) 0.3198(3) 0.7687(3)
C12A C 0.1299(4) 0.3165(3) 0.6908(3)
H7A H 0.0402 0.3594 0.6781
C13A C 0.2061(4) 0.2491(3) 0.6308(2)
C14A C 0.3388(4) 0.1818(3) 0.6511(2)
C15A C 0.4120(4) 0.1019(3) 0.5907(3)
C16A C 0.1518(4) 0.2446(3) 0.5455(2)
C17A C -0.5471(4) 0.5038(3) 0.2438(3)
H8A H -0.6388 0.5458 0.2538
C18A C -0.5188(5) 0.4490(3) 0.1705(3)
C19A C -0.3804(5) 0.3866(4) 0.1544(3)
C20A C -0.2734(5) 0.3795(3) 0.2136(3)
H9A H -0.1822 0.3369 0.2035
C21A C -0.2996(4) 0.4346(3) 0.2875(2)
C22A C -0.4381(4) 0.4967(3) 0.3037(2)
C23A C -0.4657(4) 0.5539(3) 0.3821(2)
C24A C -0.1827(4) 0.4321(3) 0.3483(2)
C25A C 0.1304(4) -0.0519(3) 0.3954(3)
H10A H 0.1174 -0.0354 0.4519
C26A C 0.1593(5) -0.1620(4) 0.3735(3)
H11A H 0.1625 -0.2172 0.4146
C27A C 0.1827(5) -0.1869(3) 0.2917(3)
H12A H 0.2046 -0.2595 0.2765
C28A C 0.1736(4) -0.1033(3) 0.2301(3)
C29A C 0.1936(5) -0.1220(4) 0.1419(3)
H13A H 0.2170 -0.1935 0.1241
C30A C 0.1797(5) -0.0403(4) 0.0842(3)
H14A H 0.1922 -0.0555 0.0275
C31A C 0.1454(5) 0.0710(4) 0.1099(3)
C32A C 0.1338(5) 0.1617(4) 0.0541(3)
H15A H 0.1439 0.1510 -0.0033
C33A C 0.1081(5) 0.2648(4) 0.0830(3)
H16A H 0.1035 0.3248 0.0461
C34A C 0.0887(4) 0.2786(3) 0.1684(3)
H17A H 0.0704 0.3496 0.1876
C35A C 0.1408(4) 0.0048(3) 0.2571(3)
C36A C 0.1252(4) 0.0940(3) 0.1956(2)
O7A O -0.1641(3) 0.4922(2) 0.61260(17)
Cd1_2 Cd -1.07518(3) 0.78068(2) 0.625134(17)
Cd1A_2 Cd 1.07518(3) 0.21932(2) 0.374866(17)
O1_2 O 0.1628(3) 0.8150(2) 0.56965(17)
O1A_2 O -0.1628(3) 0.1850(2) 0.43035(17)
loop_
_geom_bond_atom_site_label_1
_geom_bond_atom_site_label_2
_geom_bond_site_symmetry_1
_geom_bond_site_symmetry_2
Cd1 O2 1_555 1_555
Cd2 O4 1_555 1_555
Cl1 C2 1_555 1_555
Cl2 C3 1_555 1_555
Cl3 C10 1_555 1_555
Cl4 C11 1_555 1_555
Cl5 C18 1_555 1_555
Cl6 C19 1_555 1_555
O1 C7 1_555 1_555
O2 C8 1_555 1_555
O3 C15 1_555 1_555
O4 Cd1 1_555 1_555
O5 C23 1_555 1_555
O6 Cd1 1_555 1_555
N1 H1 1_555 1_555
N2 N1 1_555 1_555
N3 H2 1_555 1_555
N4 Cd1 1_555 1_555
N5 H3 1_555 1_555
N6 Cd2 1_555 1_555
N7 Cd1 1_555 1_555
N8 Cd1 1_555 1_555
C1 H4 1_555 1_555
C2 C1 1_555 1_555
C3 C2 1_555 1_555
C4 C3 1_555 1_555
H5 C4 1_555 1_555
C5 C4 1_555 1_555
C6 C1 1_555 1_555
C7 N1 1_555 1_555
C8 N2 1_555 1_555
C9 H6 1_555 1_555
C10 C9 1_555 1_555
C11 C10 1_555 1_555
C12 C11 1_555 1_555
H7 C12 1_555 1_555
C13 C12 1_555 1_555
C14 C9 1_555 1_555
C15 N3 1_555 1_555
C16 O4 1_555 1_555
C17 H8 1_555 1_555
C18 C17 1_555 1_555
C19 C18 1_555 1_555
C20 C19 1_555 1_555
H9 C20 1_555 1_555
C21 C20 1_555 1_555
C22 C17 1_555 1_555
C23 N5 1_555 1_555
C24 O6 1_555 1_555
C25 N7 1_555 1_555
H10 C25 1_555 1_555
C26 C25 1_555 1_555
H11 C26 1_555 1_555
C27 C26 1_555 1_555
H12 C27 1_555 1_555
C28 C27 1_555 1_555
C29 C28 1_555 1_555
H13 C29 1_555 1_555
C30 C29 1_555 1_555
H14 C30 1_555 1_555
C31 C30 1_555 1_555
C32 C31 1_555 1_555
H15 C32 1_555 1_555
C33 C32 1_555 1_555
H16 C33 1_555 1_555
C34 N8 1_555 1_555
H17 C34 1_555 1_555
C35 N7 1_555 1_555
C36 N8 1_555 1_555
O7 Cd2 1_555 1_555
Cd1A O2A 1_555 1_555
Cl1A C2A 1_555 1_555
Cl2A C3A 1_555 1_555
Cl3A C10A 1_555 1_555
Cl4A C11A 1_555 1_555
Cl5A C18A 1_555 1_555
Cl6A C19A 1_555 1_555
O1A C7A 1_555 1_555
O2A C8A 1_555 1_555
O3A C15A 1_555 1_555
O4A Cd2 1_555 1_555
O5A C23A 1_555 1_555
O6A Cd1A 1_555 1_555
N1A H1A 1_555 1_555
N2A N1A 1_555 1_555
N3A H2A 1_555 1_555
N4A Cd1A 1_555 1_555
N5A H3A 1_555 1_555
N6A Cd2 1_555 1_555
N7A Cd1A 1_555 1_555
N8A Cd1A 1_555 1_555
C1A H4A 1_555 1_555
C2A C1A 1_555 1_555
C3A C2A 1_555 1_555
C4A C3A 1_555 1_555
H5A C4A 1_555 1_555
C5A C4A 1_555 1_555
C6A C1A 1_555 1_555
C7A N1A 1_555 1_555
C8A N2A 1_555 1_555
C9A H6A 1_555 1_555
C10A C9A 1_555 1_555
C11A C10A 1_555 1_555
C12A C11A 1_555 1_555
H7A C12A 1_555 1_555
C13A C12A 1_555 1_555
C14A C9A 1_555 1_555
C15A N3A 1_555 1_555
C16A O4A 1_555 1_555
C17A H8A 1_555 1_555
C18A C17A 1_555 1_555
C19A C18A 1_555 1_555
C20A C19A 1_555 1_555
H9A C20A 1_555 1_555
C21A C20A 1_555 1_555
C22A C17A 1_555 1_555
C23A N5A 1_555 1_555
C24A O6A 1_555 1_555
C25A N7A 1_555 1_555
H10A C25A 1_555 1_555
C26A C25A 1_555 1_555
H11A C26A 1_555 1_555
C27A C26A 1_555 1_555
H12A C27A 1_555 1_555
C28A C27A 1_555 1_555
C29A C28A 1_555 1_555
H13A C29A 1_555 1_555
C30A C29A 1_555 1_555
H14A C30A 1_555 1_555
C31A C30A 1_555 1_555
C32A C31A 1_555 1_555
H15A C32A 1_555 1_555
C33A C32A 1_555 1_555
H16A C33A 1_555 1_555
C34A N8A 1_555 1_555
H17A C34A 1_555 1_555
C35A N7A 1_555 1_555
C36A N8A 1_555 1_555
O7A Cd2 1_555 1_555
Cd1_2 O1 1_555 1_555
Cd1A_2 O1A 1_555 1_555
O1_2 Cd1 1_555 1_555
O1A_2 Cd1A 1_555 1_555
N3 N4 1_555 1_555
N4 C16 1_555 1_555
N5 N6 1_555 1_555
N6 C24 1_555 1_555
C5 C6 1_555 1_555
C5 C8 1_555 1_555
C6 C7 1_555 1_555
C13 C14 1_555 1_555
C13 C16 1_555 1_555
C14 C15 1_555 1_555
C21 C22 1_555 1_555
C21 C24 1_555 1_555
C22 C23 1_555 1_555
C28 C35 1_555 1_555
C31 C36 1_555 1_555
C33 C34 1_555 1_555
C35 C36 1_555 1_555
Cd1A O4A 1_555 1_555
N3A N4A 1_555 1_555
N4A C16A 1_555 1_555
N5A N6A 1_555 1_555
N6A C24A 1_555 1_555
C5A C6A 1_555 1_555
C5A C8A 1_555 1_555
C6A C7A 1_555 1_555
C13A C14A 1_555 1_555
C13A C16A 1_555 1_555
C14A C15A 1_555 1_555
C21A C22A 1_555 1_555
C21A C24A 1_555 1_555
C22A C23A 1_555 1_555
C28A C35A 1_555 1_555
C31A C36A 1_555 1_555
C33A C34A 1_555 1_555
C35A C36A 1_555 1_555

#END
