
#######################################################################
#
#                 Cambridge Crystallographic Data Centre
#                                CCDC 
#
#######################################################################
#
# If this CIF has been generated from an entry in the Cambridge 
# Structural Database, then it will include bibliographic, chemical, 
# crystal, experimental, refinement or atomic coordinate data resulting 
# from the CCDC's data processing and validation procedures.
#
#######################################################################

data_VIBXUZ
_symmetry_cell_setting           orthorhombic
_symmetry_space_group_name_H-M   'I m c b'
_symmetry_Int_Tables_number      72
_space_group_name_Hall           '-I 2b 2a'
loop_
_symmetry_equiv_pos_site_id
_symmetry_equiv_pos_as_xyz
1 x,y,z
2 1/2+x,1/2+y,1/2+z
3 1/2-x,y,z
4 -x,1/2+y,1/2+z
5 x,-y,1/2+z
6 1/2+x,1/2-y,z
7 1/2-x,-y,1/2+z
8 -x,1/2-y,z
9 -x,-y,-z
10 1/2-x,1/2-y,1/2-z
11 1/2+x,-y,-z
12 x,1/2-y,1/2-z
13 -x,y,1/2-z
14 1/2-x,1/2+y,-z
15 1/2+x,y,1/2-z
16 x,1/2+y,-z
_cell_length_a                   5.676(1)
_cell_length_b                   9.614(3)
_cell_length_c                   18.708(3)
_cell_angle_alpha                90
_cell_angle_beta                 90
_cell_angle_gamma                90
_cell_volume                     1020.88
loop_
_atom_site_label
_atom_site_type_symbol
_atom_site_fract_x
_atom_site_fract_y
_atom_site_fract_z
Mg1 Mg 0.50000 0.2500 0.2500
C1 C 0.75000 0.3797(3) 0.3165(2)
C2 C 0.75000 0.5216(3) 0.2999(2)
C3 C 0.75000 0.6253(5) 0.3506(3)
C4 C 0.75000 0.5881(6) 0.4207(3)
C5 C 0.75000 0.4512(6) 0.4408(2)
C6 C 0.75000 0.3507(4) 0.3894(2)
H1 H 0.75000 0.5487(3) 0.2494(2)
H2 H 0.75000 0.7236(5) 0.3366(3)
H3 H 0.75000 0.6604(6) 0.4576(3)
H4 H 0.75000 0.4256(6) 0.4915(2)
H5 H 0.75000 0.2530(4) 0.4045(2)
C1I C 0.75000 0.1203(3) 0.1835(2)
C1L C 0.25000 0.3797(3) 0.1835(2)
C1E C 0.25000 0.1203(3) 0.3165(2)
Mg1I Mg 1.00000 0.2500 0.2500
Mg1I_2 Mg 0.00000 0.2500 0.2500
C2L C 0.25000 0.5216(3) 0.2001(2)
C6L C 0.25000 0.3507(4) 0.1106(2)
C3L C 0.25000 0.6253(5) 0.1494(3)
H1L H 0.25000 0.5487(3) 0.2506(2)
C5L C 0.25000 0.4512(6) 0.0592(2)
H5L H 0.25000 0.2530(4) 0.0955(2)
C4L C 0.25000 0.5881(6) 0.0793(3)
H2L H 0.25000 0.7236(5) 0.1634(3)
H4L H 0.25000 0.4256(6) 0.0085(2)
H3L H 0.25000 0.6604(6) 0.0424(3)
loop_
_geom_bond_atom_site_label_1
_geom_bond_atom_site_label_2
_geom_bond_site_symmetry_1
_geom_bond_site_symmetry_2
Mg1 C1 1_555 1_555
C1 C2 1_555 1_555
C2 C3 1_555 1_555
C3 C4 1_555 1_555
C4 C5 1_555 1_555
C5 C6 1_555 1_555
C6 C1 1_555 1_555
H1 C2 1_555 1_555
H2 C3 1_555 1_555
H3 C4 1_555 1_555
H4 C5 1_555 1_555
H5 C6 1_555 1_555
C1I Mg1 1_555 1_555
C1L Mg1 1_555 1_555
C1E Mg1 1_555 1_555
Mg1I C1 1_555 1_555
Mg1I_2 C1L 1_555 1_555
C2L C1L 1_555 1_555
C6L C1L 1_555 1_555
C3L C2L 1_555 1_555
H1L C2L 1_555 1_555
C5L C6L 1_555 1_555
H5L C6L 1_555 1_555
C4L C3L 1_555 1_555
H2L C3L 1_555 1_555
H4L C5L 1_555 1_555
H3L C4L 1_555 1_555
C1I Mg1I 1_555 1_555
C1E Mg1I_2 1_555 1_555
C5L C4L 1_555 1_555

#END
