
#######################################################################
#
#                 Cambridge Crystallographic Data Centre
#                                CCDC 
#
#######################################################################
#
# If this CIF has been generated from an entry in the Cambridge 
# Structural Database, then it will include bibliographic, chemical, 
# crystal, experimental, refinement or atomic coordinate data resulting 
# from the CCDC's data processing and validation procedures.
#
#######################################################################

data_VIBXUB
_symmetry_cell_setting           triclinic
_symmetry_space_group_name_H-M   'P -1'
_symmetry_Int_Tables_number      2
_space_group_name_Hall           '-P 1'
loop_
_symmetry_equiv_pos_site_id
_symmetry_equiv_pos_as_xyz
1 x,y,z
2 -x,-y,-z
_cell_length_a                   6.894(4)
_cell_length_b                   10.276(6)
_cell_length_c                   18.762(11)
_cell_angle_alpha                89.999(13)
_cell_angle_beta                 86.530(16)
_cell_angle_gamma                86.072(14)
_cell_volume                     1323.59
loop_
_atom_site_label
_atom_site_type_symbol
_atom_site_fract_x
_atom_site_fract_y
_atom_site_fract_z
Pd1 Pd -0.40635(6) 0.72248(4) 0.35784(2)
O1 O -0.3535(6) 0.6600(3) 0.46166(19)
O2 O -0.4495(5) 0.8642(3) 0.43969(19)
C1 C -0.3839(8) 0.7784(5) 0.4870(3)
O3 O -0.3510(6) 0.8103(4) 0.5481(2)
Na1 Na -0.2552(3) 1.0192(2) 0.51283(11)
C2 C -0.3636(7) 0.5688(5) 0.2937(3)
N1 N -0.3211(7) 0.4425(4) 0.3141(3)
C3 C -0.2859(9) 0.3434(6) 0.2677(3)
H1 H -0.2507 0.2583 0.2845
C4 C -0.3008(9) 0.3644(6) 0.1955(3)
H2 H -0.2788 0.2937 0.1628
C5 C -0.3476(9) 0.4887(6) 0.1712(3)
H3 H -0.3591 0.5044 0.1217
C6 C -0.3773(8) 0.5894(6) 0.2199(3)
C7 C -0.3105(9) 0.4108(5) 0.3903(3)
H4 H -0.4423 0.4150 0.4133
H5 H -0.2332 0.4737 0.4131
H6 H -0.2491 0.3227 0.3952
C8 C -0.4530(8) 0.8067(5) 0.2648(3)
N2 N -0.5013(6) 0.9367(4) 0.2528(2)
C9 C -0.5219(8) 0.9850(6) 0.1868(3)
H7 H -0.5551 1.0756 0.1814
C10 C -0.4963(9) 0.9072(6) 0.1271(3)
H8 H -0.5120 0.9430 0.0809
C11 C -0.4474(9) 0.7762(6) 0.1353(3)
H9 H -0.4290 0.7204 0.0948
C12 C -0.4254(8) 0.7264(5) 0.2027(3)
C13 C -0.5349(8) 1.0262(5) 0.3135(3)
H10 H -0.6571 1.0085 0.3399
H11 H -0.5431 1.1163 0.2962
H12 H -0.4270 1.0139 0.3450
Pd2 Pd 0.03543(6) 0.83917(4) 0.30448(2)
O4 O -0.0546(6) 1.0385(4) 0.3078(2)
C14 C -0.0568(8) 1.0403(6) 0.3771(3)
O5 O 0.0159(6) 0.9306(4) 0.4050(2)
O6 O -0.1259(7) 1.1316(4) 0.4151(2)
C15 C 0.1096(8) 0.6514(5) 0.3176(3)
N3 N 0.1389(6) 0.5903(4) 0.3819(3)
C16 C 0.1803(8) 0.4583(6) 0.3849(4)
H13 H 0.2005 0.4192 0.4299
C17 C 0.1936(10) 0.3823(6) 0.3265(4)
H14 H 0.2187 0.2906 0.3305
C18 C 0.1702(9) 0.4389(6) 0.2601(4)
H15 H 0.1826 0.3868 0.2180
C19 C 0.1287(8) 0.5722(6) 0.2560(3)
C20 C 0.1295(9) 0.6628(6) 0.4480(3)
H16 H 0.2374 0.7201 0.4475
H17 H 0.1392 0.6019 0.4881
H18 H 0.0055 0.7154 0.4533
C21 C 0.0562(8) 0.7813(6) 0.2037(3)
N4 N 0.0336(8) 0.8571(5) 0.1439(3)
C22 C 0.0588(11) 0.8074(8) 0.0768(3)
H19 H 0.0420 0.8640 0.0372
C23 C 0.1076(12) 0.6785(9) 0.0648(4)
H20 H 0.1272 0.6456 0.0174
C24 C 0.1283(10) 0.5954(7) 0.1227(3)
H21 H 0.1585 0.5046 0.1156
C25 C 0.1040(9) 0.6477(6) 0.1906(3)
C26 C -0.0167(10) 0.9975(7) 0.1506(3)
H22 H 0.0997 1.0450 0.1392
H23 H -0.0666 1.0180 0.1996
H24 H -0.1167 1.0234 0.1174
O2A O -0.5505(5) 1.1358(3) 0.56031(19)
Na1A Na -0.7448(3) 0.9808(2) 0.48717(11)
Na1A_2 Na 0.2552(3) 0.9808(2) 0.48717(11)
O5A O -0.0159(6) 1.0694(4) 0.5950(2)
B1 B 0.3614(15) 0.2408(8) 0.0574(4)
F1 F 0.2970(7) 0.2544(4) 0.12784(19)
F2 F 0.2768(6) 0.1413(4) 0.02593(19)
F3 F 0.3275(8) 0.3565(4) 0.0209(2)
F4 F 0.5653(7) 0.2078(5) 0.0562(2)
loop_
_geom_bond_atom_site_label_1
_geom_bond_atom_site_label_2
_geom_bond_site_symmetry_1
_geom_bond_site_symmetry_2
Pd1 O1 1_555 1_555
O1 C1 1_555 1_555
O2 Pd1 1_555 1_555
C1 O2 1_555 1_555
O3 C1 1_555 1_555
Na1 O2 1_555 1_555
C2 Pd1 1_555 1_555
N1 C2 1_555 1_555
C3 N1 1_555 1_555
H1 C3 1_555 1_555
C4 C3 1_555 1_555
H2 C4 1_555 1_555
C5 C4 1_555 1_555
H3 C5 1_555 1_555
C6 C2 1_555 1_555
C7 N1 1_555 1_555
H4 C7 1_555 1_555
H5 C7 1_555 1_555
H6 C7 1_555 1_555
C8 Pd1 1_555 1_555
N2 C8 1_555 1_555
C9 N2 1_555 1_555
H7 C9 1_555 1_555
C10 C9 1_555 1_555
H8 C10 1_555 1_555
C11 C10 1_555 1_555
H9 C11 1_555 1_555
C12 C6 1_555 1_555
C13 N2 1_555 1_555
H10 C13 1_555 1_555
H11 C13 1_555 1_555
H12 C13 1_555 1_555
Pd2 O4 1_555 1_555
O4 C14 1_555 1_555
C14 O5 1_555 1_555
O5 Na1 1_555 1_555
O6 Na1 1_555 1_555
C15 Pd2 1_555 1_555
N3 C15 1_555 1_555
C16 N3 1_555 1_555
H13 C16 1_555 1_555
C17 C16 1_555 1_555
H14 C17 1_555 1_555
C18 C17 1_555 1_555
H15 C18 1_555 1_555
C19 C15 1_555 1_555
C20 N3 1_555 1_555
H16 C20 1_555 1_555
H17 C20 1_555 1_555
H18 C20 1_555 1_555
C21 Pd2 1_555 1_555
N4 C21 1_555 1_555
C22 N4 1_555 1_555
H19 C22 1_555 1_555
C23 C22 1_555 1_555
H20 C23 1_555 1_555
C24 C23 1_555 1_555
H21 C24 1_555 1_555
C25 C19 1_555 1_555
C26 N4 1_555 1_555
H22 C26 1_555 1_555
H23 C26 1_555 1_555
H24 C26 1_555 1_555
B1 F1 1_555 1_555
F2 B1 1_555 1_555
F3 B1 1_555 1_555
F4 B1 1_555 1_555
O2A Na1 1_555 1_555
Na1A O2 1_555 1_555
Na1A_2 O5 1_555 1_555
O5A Na1 1_555 1_555
O3 Na1 1_555 1_555
C5 C6 1_555 1_555
C8 C12 1_555 1_555
C11 C12 1_555 1_555
Pd2 O5 1_555 1_555
C14 O6 1_555 1_555
C18 C19 1_555 1_555
C21 C25 1_555 1_555
C24 C25 1_555 1_555
O2A Na1A 1_555 1_555
Na1A_2 O5A 1_555 1_555

#END
