
#######################################################################
#
#                 Cambridge Crystallographic Data Centre
#                                CCDC 
#
#######################################################################
#
# If this CIF has been generated from an entry in the Cambridge 
# Structural Database, then it will include bibliographic, chemical, 
# crystal, experimental, refinement or atomic coordinate data resulting 
# from the CCDC's data processing and validation procedures.
#
#######################################################################

data_VIBXIP
_symmetry_cell_setting           tetragonal
_symmetry_space_group_name_H-M   'P 4/n m m'
_symmetry_Int_Tables_number      129
_space_group_name_Hall           '-P 4a 2a'
loop_
_symmetry_equiv_pos_site_id
_symmetry_equiv_pos_as_xyz
1 x,y,z
2 1/2-y,x,z
3 1/2-x,1/2-y,z
4 y,1/2-x,z
5 1/2+x,-y,-z
6 1/2+y,1/2+x,-z
7 -x,1/2+y,-z
8 -y,-x,-z
9 -x,-y,-z
10 1/2+y,-x,-z
11 1/2+x,1/2+y,-z
12 -y,1/2+x,-z
13 1/2-x,y,z
14 1/2-y,1/2-x,z
15 x,1/2-y,z
16 y,x,z
_cell_length_a                   14.053(5)
_cell_length_b                   14.053(5)
_cell_length_c                   17.071(5)
_cell_angle_alpha                90
_cell_angle_beta                 90
_cell_angle_gamma                90
_cell_volume                     3371.3
loop_
_atom_site_label
_atom_site_type_symbol
_atom_site_fract_x
_atom_site_fract_y
_atom_site_fract_z
P1 P 0.2500 0.2500 0.6880(4)
W1 W 0.12546(4) 0.12546(4) 0.54059(5)
W2 W 0.12357(4) 0.12357(4) 0.83497(5)
W3 W 0.2500 -0.00309(6) 0.68825(5)
O1 O 0.0657(7) 0.0657(7) 0.4726(8)
O2 O 0.2500 0.1170(12) 0.5027(11)
O3 O 0.3404(15) 0.2500 0.7405(12)
O4 O 0.1556(9) 0.0243(9) 0.6119(7)
O5 O 0.1178(14) 0.2500 0.8727(12)
O6 O 0.1551(10) 0.0234(10) 0.7635(8)
O7 O 0.2500 -0.1197(11) 0.6880(11)
O8 O 0.0647(8) 0.0647(8) 0.9036(9)
O9 O 0.1613(14) 0.2500 0.6363(11)
O3A O 0.2500 0.3404(15) 0.7405(12)
O9A O 0.2500 0.1613(14) 0.6363(11)
O3B O 0.1596(15) 0.2500 0.7405(12)
O9B O 0.3387(14) 0.2500 0.6363(11)
O3C O 0.2500 0.1596(15) 0.7405(12)
O9C O 0.2500 0.3387(14) 0.6363(11)
W1A W 0.37454(4) 0.12546(4) 0.54059(5)
W2A W 0.37643(4) 0.12357(4) 0.83497(5)
W3A W 0.50309(6) 0.2500 0.68825(5)
O1A O 0.4343(7) 0.0657(7) 0.4726(8)
O2A O 0.3830(12) 0.2500 0.5027(11)
O4A O 0.4757(9) 0.1556(9) 0.6119(7)
O5A O 0.2500 0.1178(14) 0.8727(12)
O6A O 0.4766(10) 0.1551(10) 0.7635(8)
O7A O 0.6197(11) 0.2500 0.6880(11)
O8A O 0.4353(8) 0.0647(8) 0.9036(9)
W1B W 0.37454(4) 0.37454(4) 0.54059(5)
W2B W 0.37643(4) 0.37643(4) 0.83497(5)
W3B W 0.2500 0.50309(6) 0.68825(5)
O1B O 0.4343(7) 0.4343(7) 0.4726(8)
O2B O 0.2500 0.3830(12) 0.5027(11)
O4B O 0.3444(9) 0.4757(9) 0.6119(7)
O5B O 0.3822(14) 0.2500 0.8727(12)
O6B O 0.3449(10) 0.4766(10) 0.7635(8)
O7B O 0.2500 0.6197(11) 0.6880(11)
O8B O 0.4353(8) 0.4353(8) 0.9036(9)
W1C W 0.12546(4) 0.37454(4) 0.54059(5)
W2C W 0.12357(4) 0.37643(4) 0.83497(5)
W3C W -0.00309(6) 0.2500 0.68825(5)
O1C O 0.0657(7) 0.4343(7) 0.4726(8)
O2C O 0.1170(12) 0.2500 0.5027(11)
O4C O 0.0243(9) 0.3444(9) 0.6119(7)
O5C O 0.2500 0.3822(14) 0.8727(12)
O6C O 0.0234(10) 0.3449(10) 0.7635(8)
O7C O -0.1197(11) 0.2500 0.6880(11)
O8C O 0.0647(8) 0.4353(8) 0.9036(9)
O4L O 0.3444(9) 0.0243(9) 0.6119(7)
O6L O 0.3449(10) 0.0234(10) 0.7635(8)
O4M O 0.4757(9) 0.3444(9) 0.6119(7)
O6M O 0.4766(10) 0.3449(10) 0.7635(8)
O4N O 0.1556(9) 0.4757(9) 0.6119(7)
O6N O 0.1551(10) 0.4766(10) 0.7635(8)
O4O O 0.0243(9) 0.1556(9) 0.6119(7)
O6O O 0.0234(10) 0.1551(10) 0.7635(8)
Ag1 Ag 0.01839(8) 0.01839(8) 0.32633(9)
Ag2 Ag 0.12697(8) -0.12697(8) 0.5000
C1 C 0.168(2) -0.0154(19) 0.1596(15)
H1 H 0.1166 -0.0533 0.1730
C2 C 0.2500 -0.019(2) 0.2032(18)
N1 N 0.1714(7) -0.0420(9) 0.3317(6)
C3 C 0.2500 -0.0304(17) 0.2859(15)
N2 N 0.2040(7) -0.0737(8) 0.3988(6)
C1L C 0.332(2) -0.0154(19) 0.1596(15)
H1L H 0.3834 -0.0533 0.1730
N1L N 0.3286(7) -0.0420(9) 0.3317(6)
N2L N 0.2960(7) -0.0737(8) 0.3988(6)
Ag1A Ag 0.48161(8) 0.01839(8) 0.32633(9)
Ag2I Ag 0.37303(8) -0.12697(8) 0.5000
N1O N -0.0420(9) 0.1714(7) 0.3317(6)
N2G N 0.0737(8) -0.2040(7) 0.6012(6)
C4? C 0.2500 -0.007(4) 0.038(3)
H2? H 0.2500 -0.0191 -0.0157
C5? C 0.169(4) 0.002(4) 0.076(3)
H3? H 0.1136 0.0182 0.0496
H4? H 0.1125 0.1119 0.0468
H5? H 0.2500 0.0145 -0.0042
H6? H 0.1119 0.1125 0.0468
H7? H 0.1119 0.1125 0.0468
H8? H 0.1125 0.1119 0.0468
C6? C 0.160(8) 0.072(9) 0.066(7)
C7? C 0.2500 0.052(8) 0.041(6)
loop_
_geom_bond_atom_site_label_1
_geom_bond_atom_site_label_2
_geom_bond_site_symmetry_1
_geom_bond_site_symmetry_2
P1 O3 1_555 1_555
W1 O1 1_555 1_555
W2 O5 1_555 1_555
W3 O4 1_555 1_555
O2 W1 1_555 1_555
O3 W2A 1_555 1_555
O4 W1 1_555 1_555
O5 W2C 1_555 1_555
O6 W2 1_555 1_555
O7 W3 1_555 1_555
O8 W2 1_555 1_555
O9 P1 1_555 1_555
Ag1 N1 1_555 1_555
Ag2 N2 1_555 1_555
C1 H1 1_555 1_555
C2 C1 1_555 1_555
N1 C3 1_555 1_555
C3 C2 1_555 1_555
N2 N1 1_555 1_555
O3A P1 1_555 1_555
O9A P1 1_555 1_555
O3B P1 1_555 1_555
O9B P1 1_555 1_555
O3C P1 1_555 1_555
O9C P1 1_555 1_555
W1A O2 1_555 1_555
W2A O3C 1_555 1_555
W3A O3 1_555 1_555
O1A W1A 1_555 1_555
O2A W1A 1_555 1_555
O4A W1A 1_555 1_555
O5A W2 1_555 1_555
O6A W2A 1_555 1_555
O7A W3A 1_555 1_555
O8A W2A 1_555 1_555
W1B O9B 1_555 1_555
W2B O3 1_555 1_555
W3B O3A 1_555 1_555
O1B W1B 1_555 1_555
O2B W1B 1_555 1_555
O4B W1B 1_555 1_555
O5B W2A 1_555 1_555
O6B W2B 1_555 1_555
O7B W3B 1_555 1_555
O8B W2B 1_555 1_555
W1C O9 1_555 1_555
W2C O3A 1_555 1_555
W3C O9 1_555 1_555
O1C W1C 1_555 1_555
O2C W1 1_555 1_555
O4C W1C 1_555 1_555
O5C W2B 1_555 1_555
O6C W2C 1_555 1_555
O7C W3C 1_555 1_555
O8C W2C 1_555 1_555
O4L W3 1_555 1_555
O6L W3 1_555 1_555
O4M W3A 1_555 1_555
O6M W3A 1_555 1_555
O4N W3B 1_555 1_555
O6N W3B 1_555 1_555
O4O W1 1_555 1_555
O6O W2 1_555 1_555
C1L C2 1_555 1_555
H1L C1L 1_555 1_555
N1L C3 1_555 1_555
N2L N2 1_555 1_555
Ag1A N1L 1_555 1_555
Ag2I N2L 1_555 1_555
N1O Ag1 1_555 1_555
N2G Ag2 1_555 1_555
W1 O9 1_555 1_555
W1 O9A 1_555 1_555
W2 O3B 1_555 1_555
W2 O3C 1_555 1_555
W3 O6 1_555 1_555
W3 O9A 1_555 1_555
W3 O3C 1_555 1_555
O3A W2B 1_555 1_555
O9A W1A 1_555 1_555
O3B W2C 1_555 1_555
O3B W3C 1_555 1_555
O9B W1A 1_555 1_555
O9B W3A 1_555 1_555
O9C W1B 1_555 1_555
O9C W3B 1_555 1_555
O9C W1C 1_555 1_555
W1A O4L 1_555 1_555
W2A O5A 1_555 1_555
W2A O6L 1_555 1_555
W3A O4A 1_555 1_555
W3A O6A 1_555 1_555
O2A W1B 1_555 1_555
W1B O4M 1_555 1_555
W2B O5B 1_555 1_555
W2B O6M 1_555 1_555
W3B O4B 1_555 1_555
W3B O6B 1_555 1_555
O2B W1C 1_555 1_555
W1C O2C 1_555 1_555
W1C O4N 1_555 1_555
W2C O5C 1_555 1_555
W2C O6N 1_555 1_555
W3C O4C 1_555 1_555
W3C O6C 1_555 1_555
W3C O4O 1_555 1_555
W3C O6O 1_555 1_555
N1L N2L 1_555 1_555

#END
