
#######################################################################
#
#                 Cambridge Crystallographic Data Centre
#                                CCDC 
#
#######################################################################
#
# If this CIF has been generated from an entry in the Cambridge 
# Structural Database, then it will include bibliographic, chemical, 
# crystal, experimental, refinement or atomic coordinate data resulting 
# from the CCDC's data processing and validation procedures.
#
#######################################################################

data_VIBYIQ
_symmetry_cell_setting           rhombohedral
_symmetry_space_group_name_H-M   'R -3'
_symmetry_Int_Tables_number      148
_space_group_name_Hall           '-R 3'
loop_
_symmetry_equiv_pos_site_id
_symmetry_equiv_pos_as_xyz
1 x,y,z
2 -y,x-y,z
3 -x+y,-x,z
4 2/3+x,1/3+y,1/3+z
5 2/3-y,1/3+x-y,1/3+z
6 2/3-x+y,1/3-x,1/3+z
7 1/3+x,2/3+y,2/3+z
8 1/3-y,2/3+x-y,2/3+z
9 1/3-x+y,2/3-x,2/3+z
10 -x,-y,-z
11 y,-x+y,-z
12 x-y,x,-z
13 1/3-x,2/3-y,2/3-z
14 1/3+y,2/3-x+y,2/3-z
15 1/3+x-y,2/3+x,2/3-z
16 2/3-x,1/3-y,1/3-z
17 2/3+y,1/3-x+y,1/3-z
18 2/3+x-y,1/3+x,1/3-z
_cell_length_a                   25.1437(13)
_cell_length_b                   25.1437(13)
_cell_length_c                   14.5663(15)
_cell_angle_alpha                90
_cell_angle_beta                 90
_cell_angle_gamma                120
_cell_volume                     7975.14
loop_
_atom_site_label
_atom_site_type_symbol
_atom_site_fract_x
_atom_site_fract_y
_atom_site_fract_z
Mn1 Mn 0.8333 0.6667 0.1667
Mn2 Mn 0.92276(4) 0.60176(5) -0.18663(7)
C1 C 0.8788(3) 0.6254(4) -0.0096(5)
C2 C 0.8252(3) 0.6066(3) -0.0713(5)
C3 C 0.7678(3) 0.5999(4) -0.0625(5)
C4 C 0.7335(4) 0.6075(4) 0.0153(5)
C5 C 0.7772(3) 0.5742(3) -0.1994(5)
C6 C 0.7616(3) 0.5512(4) -0.2953(5)
C7 C 0.7043(4) 0.5016(4) -0.3139(5)
H1 H 0.6752 0.4833 -0.2677
C8 C 0.6912(4) 0.4798(4) -0.4040(6)
C9 C 0.7334(4) 0.5070(4) -0.4734(6)
H2 H 0.7237 0.4926 -0.5334
C10 C 0.7894(4) 0.5550(4) -0.4530(5)
H3 H 0.8182 0.5731 -0.4997
C11 C 0.8054(4) 0.5783(4) -0.3646(5)
H4 H 0.8443 0.6112 -0.3519
C12 C 0.5998(5) 0.3861(5) -0.3617(8)
H5 H 0.6249 0.3707 -0.3368
H6 H 0.5639 0.3530 -0.3896
H7 H 0.5877 0.4038 -0.3134
N1 N 0.8313(2) 0.5899(3) -0.1588(4)
N2 N 0.7371(2) 0.5792(3) -0.1440(3)
O1 O 0.9232(2) 0.6217(3) -0.0423(3)
O2 O 0.8813(3) 0.6453(3) 0.0694(4)
O3 O 0.7532(3) 0.6160(3) 0.0953(4)
O4 O 0.6820(2) 0.6018(2) -0.0038(3)
O5 O 0.6331(3) 0.4306(4) -0.4274(5)
O6 O 0.9475(3) 0.6949(3) -0.2374(4)
H8 H 0.9849 0.7133 -0.2206
H9 H 0.9433 0.6805 -0.2914
O7 O 1.0245(3) 0.6477(3) -0.1695(4)
H10 H 1.0457 0.6458 -0.2135
H11 H 1.0296 0.6285 -0.1255
O8 O 0.8087(4) 0.5806(5) 0.2403(6)
H12 H 0.8348 0.5744 0.2706
H13 H 0.7714 0.5516 0.2535
Mn2O Mn 0.74391(4) 0.73157(5) 0.51996(7)
C1O C 0.7879(3) 0.7079(4) 0.3429(5)
C2O C 0.8415(3) 0.7267(3) 0.4046(5)
C3O C 0.8989(3) 0.7334(4) 0.3958(5)
C4O C 0.9332(4) 0.7258(4) 0.3180(5)
C5O C 0.8895(3) 0.7591(3) 0.5327(5)
C6O C 0.9051(3) 0.7821(4) 0.6286(5)
C7O C 0.9624(4) 0.8317(4) 0.6472(5)
H1O H 0.9915 0.8500 0.6010
C8O C 0.9755(4) 0.8535(4) 0.7373(6)
C9O C 0.9333(4) 0.8263(4) 0.8067(6)
H2O H 0.9430 0.8407 0.8667
C10O C 0.8773(4) 0.7783(4) 0.7863(5)
H3O H 0.8485 0.7602 0.8330
C11O C 0.8613(4) 0.7550(4) 0.6979(5)
H4O H 0.8224 0.7221 0.6852
C12O C 1.0669(5) 0.9472(5) 0.6950(8)
H5O H 1.0418 0.9626 0.6701
H6O H 1.1028 0.9803 0.7229
H7O H 1.0790 0.9295 0.6467
N1O N 0.8354(2) 0.7434(3) 0.4921(4)
N2O N 0.9296(2) 0.7541(3) 0.4773(3)
O1O O 0.7435(2) 0.7116(3) 0.3756(3)
O2O O 0.7854(3) 0.6880(3) 0.2639(4)
O3O O 0.9135(3) 0.7173(3) 0.2380(4)
O4O O 0.9847(2) 0.7315(2) 0.3371(3)
O5O O 1.0336(3) 0.9027(4) 0.7607(5)
O6O O 0.7192(3) 0.6384(3) 0.5707(4)
H8O H 0.6818 0.6200 0.5539
H9O H 0.7234 0.6528 0.6247
O7O O 0.6422(3) 0.6856(3) 0.5028(4)
H10O H 0.6210 0.6875 0.5468
H11O H 0.6371 0.7048 0.4588
O8O O 0.8580(4) 0.7527(5) 0.0930(6)
H12O H 0.8319 0.7589 0.0627
H13O H 0.8953 0.7817 0.0798
Mn2H Mn 1.01233(6) 0.74391(4) 0.48004(7)
Mn2N Mn 0.65433(6) 0.58943(4) -0.14670(7)
N2G N 0.7541(3) 0.8246(4) 0.5227(3)
N2M N 0.9125(3) 0.5088(4) -0.1893(3)
O4G O 0.7315(2) 0.7469(3) 0.6629(3)
O4M O 0.9351(2) 0.5865(3) -0.3295(3)
O9 O 0.9044(4) 0.5752(5) 0.3166(6)
H14 H 0.9379 0.6003 0.2893
H15 H 0.9136 0.5528 0.3511
loop_
_geom_bond_atom_site_label_1
_geom_bond_atom_site_label_2
_geom_bond_site_symmetry_1
_geom_bond_site_symmetry_2
Mn1 O2 1_555 1_555
Mn2 N1 1_555 1_555
C1 C2 1_555 1_555
C2 C3 1_555 1_555
C3 C4 1_555 1_555
C4 O3 1_555 1_555
C5 C6 1_555 1_555
C6 C7 1_555 1_555
C7 H1 1_555 1_555
C8 C7 1_555 1_555
C9 C8 1_555 1_555
H2 C9 1_555 1_555
C10 C9 1_555 1_555
H3 C10 1_555 1_555
C11 C6 1_555 1_555
H4 C11 1_555 1_555
C12 H5 1_555 1_555
H6 C12 1_555 1_555
H7 C12 1_555 1_555
N1 C2 1_555 1_555
N2 C3 1_555 1_555
O1 Mn2 1_555 1_555
O2 C1 1_555 1_555
O3 Mn1 1_555 1_555
O4 C4 1_555 1_555
O5 C8 1_555 1_555
O6 Mn2 1_555 1_555
H8 O6 1_555 1_555
H9 O6 1_555 1_555
O7 Mn2 1_555 1_555
H10 O7 1_555 1_555
H11 O7 1_555 1_555
O8 Mn1 1_555 1_555
H12 O8 1_555 1_555
H13 O8 1_555 1_555
O9 H14 1_555 1_555
H15 O9 1_555 1_555
Mn2O N1O 1_555 1_555
C1O C2O 1_555 1_555
C2O C3O 1_555 1_555
C3O C4O 1_555 1_555
C4O O3O 1_555 1_555
C5O C6O 1_555 1_555
C6O C7O 1_555 1_555
C7O H1O 1_555 1_555
C8O C7O 1_555 1_555
C9O C8O 1_555 1_555
H2O C9O 1_555 1_555
C10O C9O 1_555 1_555
H3O C10O 1_555 1_555
C11O C6O 1_555 1_555
H4O C11O 1_555 1_555
C12O H5O 1_555 1_555
H6O C12O 1_555 1_555
H7O C12O 1_555 1_555
N1O C2O 1_555 1_555
N2O C3O 1_555 1_555
O1O Mn2O 1_555 1_555
O2O Mn1 1_555 1_555
O3O Mn1 1_555 1_555
O4O C4O 1_555 1_555
O5O C8O 1_555 1_555
O6O Mn2O 1_555 1_555
H8O O6O 1_555 1_555
H9O O6O 1_555 1_555
O7O Mn2O 1_555 1_555
H10O O7O 1_555 1_555
H11O O7O 1_555 1_555
O8O Mn1 1_555 1_555
H12O O8O 1_555 1_555
H13O O8O 1_555 1_555
Mn2H N2O 1_555 1_555
Mn2N N2 1_555 1_555
N2G Mn2O 1_555 1_555
N2M Mn2 1_555 1_555
O4G Mn2O 1_555 1_555
O4M Mn2 1_555 1_555
C1 O1 1_555 1_555
C5 N1 1_555 1_555
C5 N2 1_555 1_555
C10 C11 1_555 1_555
C12 O5 1_555 1_555
O4 Mn2N 1_555 1_555
C1O O1O 1_555 1_555
C1O O2O 1_555 1_555
C5O N1O 1_555 1_555
C5O N2O 1_555 1_555
C10O C11O 1_555 1_555
C12O O5O 1_555 1_555
O4O Mn2H 1_555 1_555

#END
