
#######################################################################
#
#                 Cambridge Crystallographic Data Centre
#                                CCDC 
#
#######################################################################
#
# If this CIF has been generated from an entry in the Cambridge 
# Structural Database, then it will include bibliographic, chemical, 
# crystal, experimental, refinement or atomic coordinate data resulting 
# from the CCDC's data processing and validation procedures.
#
#######################################################################

data_VIBYUC
_symmetry_cell_setting           monoclinic
_symmetry_space_group_name_H-M   'P 21/n'
_symmetry_Int_Tables_number      14
_space_group_name_Hall           '-P 2yn'
loop_
_symmetry_equiv_pos_site_id
_symmetry_equiv_pos_as_xyz
1 x,y,z
2 1/2-x,1/2+y,1/2-z
3 -x,-y,-z
4 1/2+x,1/2-y,1/2+z
_cell_length_a                   11.949(2)
_cell_length_b                   16.406(3)
_cell_length_c                   12.630(2)
_cell_angle_alpha                90
_cell_angle_beta                 117.449(2)
_cell_angle_gamma                90
_cell_volume                     2197.19
loop_
_atom_site_label
_atom_site_type_symbol
_atom_site_fract_x
_atom_site_fract_y
_atom_site_fract_z
Zn1 Zn 0.844737(14) 0.235971(10) 0.790134(13)
O1 O 0.32567(10) 0.37244(7) 0.37842(9)
O2 O 0.39993(10) 0.42735(6) 0.55990(9)
N1 N 0.66001(11) 0.22769(7) 0.64269(10)
N2 N 0.50308(11) 0.25139(7) 0.45818(10)
N3 N 0.87274(11) 0.33749(7) 0.69255(10)
C1 C 0.65913(13) 0.13333(8) 0.38414(12)
H1 H 0.6617 0.1835 0.3511
C2 C 0.63644(13) 0.12988(8) 0.48305(11)
C3 C 0.63882(14) 0.05536(9) 0.53556(12)
H2 H 0.6302 0.0533 0.6050
C4 C 0.94563(13) 0.22708(8) 0.61645(12)
C5 C 0.60158(12) 0.20382(8) 0.52747(11)
C6 C 0.40160(13) 0.37324(9) 0.48654(12)
N4 N 0.93314(11) 0.17840(7) 0.69699(10)
C7 C 0.66944(13) -0.01373(8) 0.38287(12)
C8 C 0.67789(13) 0.06231(9) 0.33501(11)
C9 C 0.91619(14) 0.36369(9) 0.52597(12)
C10 C 0.88040(15) 0.44568(10) 0.52558(14)
H3 H 0.8794 0.4816 0.4683
C11 C 0.84439(13) 0.41580(9) 0.69199(13)
H4 H 0.8216 0.4343 0.7490
C12 C 0.90975(13) 0.31168(9) 0.61167(11)
C13 C 0.49832(12) 0.30931(8) 0.53397(11)
C14 C 0.96821(14) 0.10085(9) 0.70412(13)
H5 H 0.9583 0.0669 0.7582
C15 C 1.01946(15) 0.06834(10) 0.63338(15)
H6 H 1.0452 0.0142 0.6422
C16 C 0.65409(14) -0.01673(8) 0.48492(12)
H7 H 0.6539 -0.0667 0.5197
C17 C 0.99244(14) 0.19903(9) 0.53958(12)
C18 C 0.84722(14) 0.47191(9) 0.60970(14)
H8 H 0.8267 0.5263 0.6124
C19 C 1.00000(15) 0.25425(10) 0.45483(13)
H9 H 1.0319 0.2358 0.4044
C20 C 0.96163(15) 0.33247(10) 0.44706(13)
H10 H 0.9648 0.3665 0.3896
C21 C 1.03128(15) 0.11692(10) 0.55132(14)
H11 H 1.0647 0.0960 0.5035
O3 O 0.73524(9) 0.31568(6) 0.84670(8)
C22 C 0.59404(12) 0.29456(8) 0.64675(11)
C23 C 0.63475(13) 0.33855(8) 0.76011(11)
O4 O 0.70127(10) 0.05932(6) 0.23903(9)
O5 O 0.67853(10) -0.08070(6) 0.32298(9)
C24 C 0.74231(14) 0.13333(9) 0.20869(13)
H12 H 0.8166 0.1527 0.2765
H13 H 0.6768 0.1735 0.1854
H14 H 0.7612 0.1236 0.1437
C25 C 0.65452(16) -0.15784(9) 0.36174(13)
H15 H 0.5714 -0.1577 0.3557
H16 H 0.7156 -0.1672 0.4432
H17 H 0.6604 -0.2004 0.3123
O6 O 0.56630(10) 0.39721(7) 0.76399(9)
H18 H 0.477(3) 0.4170(18) 0.650(3)
Zn1C Zn 0.344737(14) 0.264029(10) 0.290134(13)
O1C O 0.82567(10) 0.12756(7) 0.87842(9)
N2C N 1.00308(11) 0.24861(7) 0.95818(10)
loop_
_geom_bond_atom_site_label_1
_geom_bond_atom_site_label_2
_geom_bond_site_symmetry_1
_geom_bond_site_symmetry_2
Zn1 N1 1_555 1_555
O1 C6 1_555 1_555
O2 C6 1_555 1_555
N1 C5 1_555 1_555
N2 C5 1_555 1_555
N3 Zn1 1_555 1_555
C1 H1 1_555 1_555
C2 C1 1_555 1_555
C3 C2 1_555 1_555
H2 C3 1_555 1_555
C4 N4 1_555 1_555
C5 C2 1_555 1_555
C6 C13 1_555 1_555
N4 Zn1 1_555 1_555
C7 C8 1_555 1_555
C8 C1 1_555 1_555
C9 C10 1_555 1_555
C10 H3 1_555 1_555
C11 N3 1_555 1_555
H4 C11 1_555 1_555
C12 N3 1_555 1_555
C13 N2 1_555 1_555
C14 N4 1_555 1_555
H5 C14 1_555 1_555
C15 C14 1_555 1_555
H6 C15 1_555 1_555
C16 C3 1_555 1_555
H7 C16 1_555 1_555
C17 C4 1_555 1_555
C18 C10 1_555 1_555
H8 C18 1_555 1_555
C19 C17 1_555 1_555
H9 C19 1_555 1_555
C20 C9 1_555 1_555
H10 C20 1_555 1_555
C21 C15 1_555 1_555
H11 C21 1_555 1_555
O3 Zn1 1_555 1_555
C22 N1 1_555 1_555
C23 O3 1_555 1_555
O4 C8 1_555 1_555
O5 C7 1_555 1_555
C24 O4 1_555 1_555
H12 C24 1_555 1_555
H13 C24 1_555 1_555
H14 C24 1_555 1_555
C25 O5 1_555 1_555
H15 C25 1_555 1_555
H16 C25 1_555 1_555
H17 C25 1_555 1_555
O6 C23 1_555 1_555
H18 O2 1_555 1_555
Zn1C O1 1_555 1_555
O1C Zn1 1_555 1_555
N2C Zn1 1_555 1_555
N2 Zn1C 1_555 1_555
C4 C12 1_555 1_555
C7 C16 1_555 1_555
C9 C12 1_555 1_555
C11 C18 1_555 1_555
C13 C22 1_555 1_555
C17 C21 1_555 1_555
C19 C20 1_555 1_555
C22 C23 1_555 1_555

#END
