
#######################################################################
#
#                 Cambridge Crystallographic Data Centre
#                                CCDC 
#
#######################################################################
#
# If this CIF has been generated from an entry in the Cambridge 
# Structural Database, then it will include bibliographic, chemical, 
# crystal, experimental, refinement or atomic coordinate data resulting 
# from the CCDC's data processing and validation procedures.
#
#######################################################################

data_VIBZEN
_symmetry_cell_setting           orthorhombic
_symmetry_space_group_name_H-M   'F d d d'
_symmetry_Int_Tables_number      70
_space_group_name_Hall           '-F 2uv 2vw'
loop_
_symmetry_equiv_pos_site_id
_symmetry_equiv_pos_as_xyz
1 x,y,z
2 3/4-x,3/4-y,z
3 3/4-x,y,3/4-z
4 x,3/4-y,3/4-z
5 x,1/2+y,1/2+z
6 3/4-x,1/4-y,1/2+z
7 3/4-x,1/2+y,1/4-z
8 x,1/4-y,1/4-z
9 1/2+x,y,1/2+z
10 1/4-x,3/4-y,1/2+z
11 1/4-x,y,1/4-z
12 1/2+x,3/4-y,1/4-z
13 1/2+x,1/2+y,z
14 1/4-x,1/4-y,z
15 1/4-x,1/2+y,3/4-z
16 1/2+x,1/4-y,3/4-z
17 -x,-y,-z
18 1/4+x,1/4+y,-z
19 1/4+x,-y,1/4+z
20 -x,1/4+y,1/4+z
21 -x,1/2-y,1/2-z
22 1/4+x,3/4+y,1/2-z
23 1/4+x,1/2-y,3/4+z
24 -x,3/4+y,3/4+z
25 1/2-x,-y,1/2-z
26 3/4+x,1/4+y,1/2-z
27 3/4+x,-y,3/4+z
28 1/2-x,1/4+y,3/4+z
29 1/2-x,1/2-y,-z
30 3/4+x,3/4+y,-z
31 3/4+x,1/2-y,1/4+z
32 1/2-x,3/4+y,1/4+z
_cell_length_a                   22.304(3)
_cell_length_b                   28.721(4)
_cell_length_c                   29.158(4)
_cell_angle_alpha                90
_cell_angle_beta                 90
_cell_angle_gamma                90
_cell_volume                     18678.4
loop_
_atom_site_label
_atom_site_type_symbol
_atom_site_fract_x
_atom_site_fract_y
_atom_site_fract_z
C1 C 0.8396(5) 0.2545(4) 0.9720(4)
C2 C 0.8946(5) 0.2501(4) 1.0004(4)
C3 C 0.9386(6) 0.2189(5) 0.9887(5)
H1 H 0.9347 0.2013 0.9621
C4 C 0.9886(5) 0.2132(5) 1.0160(4)
H2 H 1.0184 0.1921 1.0076
C5 C 0.9945(5) 0.2387(4) 1.0558(4)
C6 C 0.9502(5) 0.2698(5) 1.0683(5)
H3 H 0.9536 0.2863 1.0957
C7 C 0.9009(6) 0.2764(5) 1.0404(4)
H4 H 0.8721 0.2984 1.0482
C8 C 1.0488(5) 0.2321(5) 1.0856(4)
C9 C 0.7561(5) 0.2938(5) 0.9506(4)
C10 C 0.7159(6) 0.3343(4) 0.9550(4)
C11 C 0.6631(6) 0.3360(5) 0.9301(4)
H5 H 0.6537 0.3117 0.9102
C12 C 0.6245(6) 0.3730(5) 0.9344(4)
H6 H 0.5893 0.3738 0.9173
C13 C 0.6376(6) 0.4090(4) 0.9637(4)
C14 C 0.6898(6) 0.4079(5) 0.9885(6)
H7 H 0.6992 0.4325 1.0079
C15 C 0.7288(6) 0.3705(5) 0.9848(5)
H8 H 0.7636 0.3697 1.0024
C16 C 0.5934(6) 0.4483(5) 0.9698(5)
C17 C 0.7771(5) 0.2238(4) 0.9189(4)
C18 C 0.7609(5) 0.1858(4) 0.8870(4)
C19 C 0.7113(5) 0.1900(4) 0.8581(4)
H9 H 0.6873 0.2164 0.8595
C20 C 0.6979(5) 0.1548(4) 0.8275(4)
H10 H 0.6647 0.1576 0.8084
C21 C 0.7336(5) 0.1150(4) 0.8249(4)
C22 C 0.7824(5) 0.1104(4) 0.8538(4)
H11 H 0.8061 0.0838 0.8525
C23 C 0.7961(5) 0.1452(4) 0.8847(4)
H12 H 0.8288 0.1418 0.9042
C24 C 0.7204(5) 0.0790(4) 0.7889(4)
N1 N 0.8052(4) 0.2917(4) 0.9773(4)
N2 N 0.8280(5) 0.2195(4) 0.9431(4)
N3 N 0.7402(4) 0.2604(3) 0.9214(4)
O1 O 1.0463(4) 0.2464(4) 1.1263(3)
O2 O 1.0939(4) 0.2119(4) 1.0681(3)
O3 O 0.5453(4) 0.4458(4) 0.9468(3)
O4 O 0.6069(4) 0.4805(3) 0.9967(4)
O5 O 0.7485(4) 0.0415(3) 0.7880(3)
O6 O 0.6818(4) 0.0887(3) 0.7583(3)
O7 O 1.1913(6) 0.1468(5) 1.0893(6)
Sm1 Sm 1.19544(2) 0.221721(19) 1.048105(19)
O1J O 1.2037(4) 0.2464(4) 1.1237(3)
O3CA O 1.2953(4) 0.1958(4) 1.0532(3)
O4A O 1.1431(4) 0.2695(3) 0.9967(4)
O5O O 1.2485(4) 0.2085(3) 0.9620(3)
O5S O 1.2515(4) 0.2915(3) 1.0380(3)
O6O O 1.1818(4) 0.1613(3) 0.9917(3)
Sm1A Sm 0.55456(2) 0.528279(19) 1.048105(19)
Sm1J Sm 1.05456(2) 0.221721(19) 1.201895(19)
Sm1O Sm 0.69544(2) 0.028279(19) 0.701895(19)
Sm1Q Sm 0.44544(2) 0.471721(19) 0.951895(19)
Sm1W Sm 0.80456(2) -0.028279(19) 0.798105(19)
loop_
_geom_bond_atom_site_label_1
_geom_bond_atom_site_label_2
_geom_bond_site_symmetry_1
_geom_bond_site_symmetry_2
C1 C2 1_555 1_555
C2 C3 1_555 1_555
C3 H1 1_555 1_555
C4 C3 1_555 1_555
H2 C4 1_555 1_555
C5 C4 1_555 1_555
C6 C5 1_555 1_555
H3 C6 1_555 1_555
C7 C2 1_555 1_555
H4 C7 1_555 1_555
C8 C5 1_555 1_555
C9 C10 1_555 1_555
C10 C11 1_555 1_555
C11 H5 1_555 1_555
C12 C11 1_555 1_555
H6 C12 1_555 1_555
C13 C12 1_555 1_555
C14 C13 1_555 1_555
H7 C14 1_555 1_555
C15 C10 1_555 1_555
H8 C15 1_555 1_555
C16 C13 1_555 1_555
C17 C18 1_555 1_555
C18 C19 1_555 1_555
C19 H9 1_555 1_555
C20 C19 1_555 1_555
H10 C20 1_555 1_555
C21 C20 1_555 1_555
C22 C21 1_555 1_555
H11 C22 1_555 1_555
C23 C18 1_555 1_555
H12 C23 1_555 1_555
C24 C21 1_555 1_555
N1 C1 1_555 1_555
N2 C1 1_555 1_555
N3 C9 1_555 1_555
O1 C8 1_555 1_555
O2 C8 1_555 1_555
O3 C16 1_555 1_555
O4 C16 1_555 1_555
O5 C24 1_555 1_555
O6 C24 1_555 1_555
O7 Sm1 1_555 1_555
Sm1 O2 1_555 1_555
O1J Sm1 1_555 1_555
O3CA Sm1 1_555 1_555
O4A Sm1 1_555 1_555
O5O Sm1 1_555 1_555
O5S Sm1 1_555 1_555
O6O Sm1 1_555 1_555
Sm1A O4 1_555 1_555
Sm1J O1 1_555 1_555
Sm1O O5 1_555 1_555
Sm1Q O3 1_555 1_555
Sm1W O5 1_555 1_555
C6 C7 1_555 1_555
C9 N1 1_555 1_555
C14 C15 1_555 1_555
C17 N2 1_555 1_555
C17 N3 1_555 1_555
C22 C23 1_555 1_555
O6 Sm1O 1_555 1_555

#END
