
#######################################################################
#
#                 Cambridge Crystallographic Data Centre
#                                CCDC 
#
#######################################################################
#
# If this CIF has been generated from an entry in the Cambridge 
# Structural Database, then it will include bibliographic, chemical, 
# crystal, experimental, refinement or atomic coordinate data resulting 
# from the CCDC's data processing and validation procedures.
#
#######################################################################

data_VICHEW
_symmetry_cell_setting           triclinic
_symmetry_space_group_name_H-M   'P -1'
_symmetry_Int_Tables_number      2
_space_group_name_Hall           '-P 1'
loop_
_symmetry_equiv_pos_site_id
_symmetry_equiv_pos_as_xyz
1 x,y,z
2 -x,-y,-z
_cell_length_a                   8.4976(5)
_cell_length_b                   10.4677(5)
_cell_length_c                   12.1637(8)
_cell_angle_alpha                112.855(5)
_cell_angle_beta                 96.677(5)
_cell_angle_gamma                103.448(5)
_cell_volume                     943.568
loop_
_atom_site_label
_atom_site_type_symbol
_atom_site_fract_x
_atom_site_fract_y
_atom_site_fract_z
Er1 Er -0.252464(16) 0.074673(14) 0.546480(12)
C1 C -0.1739(5) -0.1110(4) 0.7094(3)
C2 C -0.2013(5) -0.2676(4) 0.6288(3)
C3 C -0.1155(5) -0.3494(4) 0.6642(3)
H1 H -0.0383 -0.3058 0.7389
C4 C -0.1453(5) -0.4952(4) 0.5883(3)
H2 H -0.0892 -0.5496 0.6126
C5 C -0.2585(5) -0.5598(4) 0.4766(3)
C6 C -0.2953(5) -0.7180(4) 0.3934(3)
C7 C -0.3424(5) -0.4792(4) 0.4410(3)
H3 H -0.4175 -0.5225 0.3653
C8 C -0.3153(5) -0.3342(4) 0.5175(3)
H4 H -0.3744 -0.2812 0.4937
C9 C 0.1414(4) 0.1920(4) 0.6580(3)
C10 C 0.2943(4) 0.3112(3) 0.7387(3)
C11 C 0.4392(4) 0.5311(3) 0.8730(3)
C12 C 0.4813(4) 0.6839(4) 0.9628(3)
C13 C 0.3634(5) 0.7475(4) 1.0084(4)
H5 H 0.2512 0.6943 0.9810
C14 C 0.4128(6) 0.8895(5) 1.0943(4)
H6 H 0.3331 0.9315 1.1254
C15 C 0.6875(6) 0.9094(5) 1.0918(4)
H7 H 0.7986 0.9655 1.1211
C16 C 0.6461(5) 0.7679(4) 1.0059(4)
H8 H 0.7286 0.7286 0.9768
C17 C 0.4642(4) 0.3301(3) 0.7506(3)
C18 C 0.5583(4) 0.2342(3) 0.6850(3)
N1 N 0.2833(3) 0.4411(3) 0.8172(2)
H9 H 0.1901 0.4619 0.8295
N2 N 0.5527(3) 0.4684(3) 0.8351(2)
N3 N 0.5706(5) 0.9675(3) 1.1337(3)
O1 O -0.0969(4) -0.0574(3) 0.8179(2)
O2 O -0.2369(3) -0.0389(3) 0.6622(2)
O3 O -0.2640(4) -0.8007(3) 0.4401(2)
O4 O -0.3550(4) -0.7609(3) 0.2823(2)
O5 O 0.0098(3) 0.2233(3) 0.6531(2)
O6 O 0.1537(3) 0.0670(2) 0.6006(2)
O7 O 0.4862(3) 0.1134(2) 0.5905(2)
O8 O 0.7126(3) 0.2730(3) 0.7191(2)
Er1_2 Er -0.252464(16) -0.925327(14) 0.546480(12)
Er1_3 Er 0.747536(16) 0.074673(14) 0.546480(12)
Er1A Er 0.252464(16) -0.074673(14) 0.453520(12)
O3_2 O -0.2640(4) 0.1993(3) 0.4401(2)
O6A O -0.1537(3) -0.0670(2) 0.3994(2)
O7_2 O -0.5138(3) 0.1134(2) 0.5905(2)
O7A O -0.4862(3) -0.1134(2) 0.4095(2)
O8_2 O -0.2874(3) 0.2730(3) 0.7191(2)
O9 O 0.0096(4) 0.4884(3) 0.1274(3)
O10 O 1.0143(8) 0.8159(6) 0.9657(5)
O11? O 1.0099(11) 0.7514(10) 1.0815(8)
loop_
_geom_bond_atom_site_label_1
_geom_bond_atom_site_label_2
_geom_bond_site_symmetry_1
_geom_bond_site_symmetry_2
Er1 O2 1_555 1_555
C1 C2 1_555 1_555
C2 C3 1_555 1_555
C3 H1 1_555 1_555
C4 C3 1_555 1_555
H2 C4 1_555 1_555
C5 C4 1_555 1_555
C6 C5 1_555 1_555
C7 C5 1_555 1_555
H3 C7 1_555 1_555
C8 C2 1_555 1_555
H4 C8 1_555 1_555
C9 C10 1_555 1_555
C10 C17 1_555 1_555
C11 C12 1_555 1_555
C12 C13 1_555 1_555
C13 H5 1_555 1_555
C14 C13 1_555 1_555
H6 C14 1_555 1_555
C15 H7 1_555 1_555
C16 C12 1_555 1_555
H8 C16 1_555 1_555
C17 C18 1_555 1_555
C18 O7 1_555 1_555
N1 C10 1_555 1_555
H9 N1 1_555 1_555
N2 C11 1_555 1_555
N3 C14 1_555 1_555
O1 C1 1_555 1_555
O2 C1 1_555 1_555
O3 C6 1_555 1_555
O4 C6 1_555 1_555
O5 Er1 1_555 1_555
O6 C9 1_555 1_555
O7 Er1_3 1_555 1_555
O8 C18 1_555 1_555
Er1_2 O3 1_555 1_555
Er1_3 O8 1_555 1_555
Er1A O6 1_555 1_555
O3_2 Er1 1_555 1_555
O6A Er1 1_555 1_555
O7_2 Er1 1_555 1_555
O7A Er1 1_555 1_555
O8_2 Er1 1_555 1_555
C7 C8 1_555 1_555
C9 O5 1_555 1_555
C11 N1 1_555 1_555
C15 C16 1_555 1_555
C15 N3 1_555 1_555
C17 N2 1_555 1_555
O7 Er1A 1_555 1_555

#END
