
#######################################################################
#
#                 Cambridge Crystallographic Data Centre
#                                CCDC 
#
#######################################################################
#
# If this CIF has been generated from an entry in the Cambridge 
# Structural Database, then it will include bibliographic, chemical, 
# crystal, experimental, refinement or atomic coordinate data resulting 
# from the CCDC's data processing and validation procedures.
#
#######################################################################

data_VICHAS
_symmetry_cell_setting           triclinic
_symmetry_space_group_name_H-M   'P -1'
_symmetry_Int_Tables_number      2
_space_group_name_Hall           '-P 1'
loop_
_symmetry_equiv_pos_site_id
_symmetry_equiv_pos_as_xyz
1 x,y,z
2 -x,-y,-z
_cell_length_a                   8.4828(5)
_cell_length_b                   10.4482(5)
_cell_length_c                   12.1414(8)
_cell_angle_alpha                112.753(5)
_cell_angle_beta                 96.732(5)
_cell_angle_gamma                103.420(5)
_cell_volume                     939.205
loop_
_atom_site_label
_atom_site_type_symbol
_atom_site_fract_x
_atom_site_fract_y
_atom_site_fract_z
Tm1 Tm -0.252797(17) 0.074312(15) 0.546457(13)
C1 C -0.1744(5) -0.1100(4) 0.7095(4)
C2 C -0.2007(5) -0.2676(4) 0.6290(3)
C3 C -0.1146(6) -0.3489(5) 0.6640(4)
H1 H -0.0366 -0.3050 0.7386
C4 C -0.1444(6) -0.4951(5) 0.5886(4)
H2 H -0.0877 -0.5493 0.6132
C5 C -0.2586(5) -0.5605(4) 0.4767(4)
C6 C -0.2964(6) -0.7190(4) 0.3933(4)
C7 C -0.3424(6) -0.4799(4) 0.4409(4)
H3 H -0.4173 -0.5231 0.3650
C8 C -0.3159(6) -0.3346(4) 0.5174(4)
H4 H -0.3757 -0.2817 0.4937
C9 C 0.1409(5) 0.1903(4) 0.6571(3)
C10 C 0.2941(4) 0.3099(4) 0.7377(3)
C11 C 0.4385(5) 0.5306(4) 0.8721(3)
C12 C 0.4815(5) 0.6828(4) 0.9626(3)
C13 C 0.3621(6) 0.7467(5) 1.0078(4)
H5 H 0.2497 0.6938 0.9796
C14 C 0.4120(7) 0.8888(5) 1.0944(4)
H6 H 0.3322 0.9308 1.1258
C15 C 0.6867(7) 0.9088(5) 1.0917(5)
H7 H 0.7981 0.9649 1.1207
C16 C 0.6452(6) 0.7667(5) 1.0056(4)
H8 H 0.7280 0.7275 0.9767
C17 C 0.4645(5) 0.3294(4) 0.7503(3)
C18 C 0.5574(4) 0.2329(4) 0.6843(3)
N1 N 0.2821(4) 0.4399(3) 0.8164(3)
H9 H 0.1890 0.4607 0.8287
N2 N 0.5524(4) 0.4676(3) 0.8349(3)
N3 N 0.5705(5) 0.9673(4) 1.1341(3)
O1 O -0.0970(5) -0.0569(3) 0.8177(3)
O2 O -0.2368(4) -0.0383(3) 0.6617(3)
O3 O -0.2645(4) -0.8018(3) 0.4403(3)
O4 O -0.3558(5) -0.7613(3) 0.2829(3)
O5 O 0.0084(3) 0.2216(3) 0.6532(3)
O6 O 0.1541(3) 0.0654(3) 0.5994(2)
O7 O 0.4854(3) 0.1125(3) 0.5900(2)
O8 O 0.7119(3) 0.2710(3) 0.7179(2)
Tm1_2 Tm -0.252797(17) -0.925688(15) 0.546457(13)
Tm1_3 Tm 0.747203(17) 0.074312(15) 0.546457(13)
Tm1A Tm 0.252797(17) -0.074312(15) 0.453543(13)
O3_2 O -0.2645(4) 0.1982(3) 0.4403(3)
O6A O -0.1541(3) -0.0654(3) 0.4006(2)
O7_2 O -0.5146(3) 0.1125(3) 0.5900(2)
O7A O -0.4854(3) -0.1125(3) 0.4100(2)
O8_2 O -0.2881(3) 0.2710(3) 0.7179(2)
O9 O 0.0099(4) 0.4893(4) 0.1265(3)
O10 O 1.0131(9) 0.8152(7) 0.9651(6)
O11? O 1.0117(14) 0.7539(12) 1.0816(9)
loop_
_geom_bond_atom_site_label_1
_geom_bond_atom_site_label_2
_geom_bond_site_symmetry_1
_geom_bond_site_symmetry_2
Tm1 O2 1_555 1_555
C1 C2 1_555 1_555
C2 C3 1_555 1_555
C3 H1 1_555 1_555
C4 C3 1_555 1_555
H2 C4 1_555 1_555
C5 C4 1_555 1_555
C6 C5 1_555 1_555
C7 C5 1_555 1_555
H3 C7 1_555 1_555
C8 C2 1_555 1_555
H4 C8 1_555 1_555
C9 C10 1_555 1_555
C10 C17 1_555 1_555
C11 C12 1_555 1_555
C12 C13 1_555 1_555
C13 H5 1_555 1_555
C14 C13 1_555 1_555
H6 C14 1_555 1_555
C15 H7 1_555 1_555
C16 C12 1_555 1_555
H8 C16 1_555 1_555
C17 C18 1_555 1_555
C18 O7 1_555 1_555
N1 C10 1_555 1_555
H9 N1 1_555 1_555
N2 C11 1_555 1_555
N3 C14 1_555 1_555
O1 C1 1_555 1_555
O2 C1 1_555 1_555
O3 C6 1_555 1_555
O4 C6 1_555 1_555
O5 Tm1 1_555 1_555
O6 C9 1_555 1_555
O7 Tm1_3 1_555 1_555
O8 C18 1_555 1_555
Tm1_2 O3 1_555 1_555
Tm1_3 O8 1_555 1_555
Tm1A O6 1_555 1_555
O3_2 Tm1 1_555 1_555
O6A Tm1 1_555 1_555
O7_2 Tm1 1_555 1_555
O7A Tm1 1_555 1_555
O8_2 Tm1 1_555 1_555
C7 C8 1_555 1_555
C9 O5 1_555 1_555
C11 N1 1_555 1_555
C15 C16 1_555 1_555
C15 N3 1_555 1_555
C17 N2 1_555 1_555
O7 Tm1A 1_555 1_555

#END
