
#######################################################################
#
#                 Cambridge Crystallographic Data Centre
#                                CCDC 
#
#######################################################################
#
# If this CIF has been generated from an entry in the Cambridge 
# Structural Database, then it will include bibliographic, chemical, 
# crystal, experimental, refinement or atomic coordinate data resulting 
# from the CCDC's data processing and validation procedures.
#
#######################################################################

data_VICHOG
_symmetry_cell_setting           monoclinic
_symmetry_space_group_name_H-M   'C 2/c'
_symmetry_Int_Tables_number      15
_space_group_name_Hall           '-C 2yn'
loop_
_symmetry_equiv_pos_site_id
_symmetry_equiv_pos_as_xyz
1 x,y,z
2 -x,y,1/2-z
3 1/2+x,1/2+y,z
4 1/2-x,1/2+y,1/2-z
5 -x,-y,-z
6 x,-y,1/2+z
7 1/2-x,1/2-y,-z
8 1/2+x,1/2-y,1/2+z
_cell_length_a                   20.836(4)
_cell_length_b                   9.4722(16)
_cell_length_c                   28.136(5)
_cell_angle_alpha                90
_cell_angle_beta                 106.372(3)
_cell_angle_gamma                90
_cell_volume                     5327.83
loop_
_atom_site_label
_atom_site_type_symbol
_atom_site_fract_x
_atom_site_fract_y
_atom_site_fract_z
Dy1 Dy 0.186955(11) 0.18781(2) 0.215964(9)
Dy2 Dy 0.0000 0.75515(3) 0.2500
O1 O 0.3288(2) 0.4646(4) 0.32618(16)
O2 O 0.2488(2) 0.3302(4) 0.27991(16)
O3 O 0.2673(2) -0.1349(4) 0.32454(16)
O4 O 0.21435(19) 0.0561(4) 0.28874(15)
O5 O -0.0034(2) -0.0368(4) 0.19909(19)
O6 O 0.09004(19) 0.0887(4) 0.22616(17)
O7 O 0.11852(18) 0.3733(4) 0.22665(16)
O8 O 0.0546(2) 0.5587(4) 0.22664(17)
O9 O 0.2964(2) 0.1031(4) 0.21830(17)
H1 H 0.3061 0.0162 0.2232
H2 H 0.3276 0.1530 0.2367
O10 O 0.1195(3) 0.2159(5) 0.13353(18)
H3 H 0.100(4) 0.160(6) 0.110(2)
H4 H 0.100(4) 0.296(4) 0.128(3)
O11 O 0.0534(3) 0.7033(5) 0.33240(19)
H5 H 0.070(4) 0.622(4) 0.339(3)
H6 H 0.072(4) 0.761(6) 0.355(2)
O12 O -0.1130(2) 0.8322(4) 0.23533(19)
H7 H -0.1228 0.9052 0.2495
H8 H -0.1317 0.8382 0.2044
N1 N 0.4004(2) 0.2409(5) 0.3733(2)
H9 H 0.423(4) 0.309(8) 0.376(3)
N2 N 0.3775(2) 0.0143(5) 0.37554(18)
N3 N 0.6158(3) 0.0427(7) 0.4939(2)
N4 N -0.0745(2) 0.1911(5) 0.1561(2)
H10 H -0.095(3) 0.113(4) 0.146(2)
N5 N -0.0562(2) 0.4196(5) 0.16375(19)
N6 N -0.2974(4) 0.3954(9) 0.0505(3)
C1 C 0.3023(3) 0.3470(5) 0.3134(2)
C2 C 0.3374(3) 0.2228(6) 0.3410(2)
C3 C 0.4225(3) 0.1138(5) 0.3927(2)
C4 C 0.4887(3) 0.0893(6) 0.4277(2)
C5 C 0.5311(4) 0.1990(8) 0.4487(3)
H11 H 0.5180 0.2919 0.4406
C6 C 0.5925(4) 0.1709(8) 0.4813(3)
H12 H 0.6193 0.2471 0.4955
C7 C 0.5754(3) -0.0640(8) 0.4736(3)
H13 H 0.5903 -0.1557 0.4820
C8 C 0.5121(3) -0.0452(7) 0.4405(3)
H14 H 0.4860 -0.1230 0.4272
C9 C 0.3244(3) 0.0810(5) 0.3430(2)
C10 C 0.2642(3) -0.0032(5) 0.3164(2)
C11 C 0.0283(3) 0.0767(6) 0.2037(2)
C12 C -0.0098(3) 0.2054(6) 0.1841(2)
C13 C -0.1004(3) 0.3208(6) 0.1445(2)
C14 C -0.1690(3) 0.3454(7) 0.1122(2)
C15 C -0.2093(4) 0.2388(8) 0.0897(4)
H15 H -0.1940 0.1462 0.0941
C16 C -0.2734(5) 0.2667(11) 0.0600(4)
H16 H -0.3006 0.1910 0.0461
C17 C -0.2589(5) 0.4998(10) 0.0748(4)
H17 H -0.2761 0.5910 0.0707
C18 C -0.1958(4) 0.4811(8) 0.1054(4)
H18 H -0.1712 0.5577 0.1215
C19 C 0.0016(3) 0.3506(6) 0.1888(2)
C20 C 0.0621(3) 0.4330(5) 0.2160(2)
Dy1A Dy -0.186955(11) 0.18781(2) 0.284036(9)
O1A O -0.3288(2) 0.4646(4) 0.17382(16)
O2A O -0.2488(2) 0.3302(4) 0.22009(16)
O3A O -0.2673(2) -0.1349(4) 0.17546(16)
O4A O -0.21435(19) 0.0561(4) 0.21126(15)
O5A O 0.0034(2) -0.0368(4) 0.30091(19)
O6A O -0.09004(19) 0.0887(4) 0.27384(17)
O7A O -0.11852(18) 0.3733(4) 0.27335(16)
O8A O -0.0546(2) 0.5587(4) 0.27336(17)
O9A O -0.2964(2) 0.1031(4) 0.28170(17)
H1A H -0.3061 0.0162 0.2768
H2A H -0.3276 0.1530 0.2633
O10A O -0.1195(3) 0.2159(5) 0.36647(18)
H3A H -0.100(4) 0.160(6) 0.390(2)
H4A H -0.100(4) 0.296(4) 0.372(3)
O11A O -0.0534(3) 0.7033(5) 0.16760(19)
H5A H -0.070(4) 0.622(4) 0.161(3)
H6A H -0.072(4) 0.761(6) 0.145(2)
O12A O 0.1130(2) 0.8322(4) 0.26467(19)
H7A H 0.1228 0.9052 0.2505
H8A H 0.1317 0.8382 0.2956
N1A N -0.4004(2) 0.2409(5) 0.1267(2)
H9A H -0.423(4) 0.309(8) 0.124(3)
N2A N -0.3775(2) 0.0143(5) 0.12446(18)
N3A N -0.6158(3) 0.0427(7) 0.0061(2)
N4A N 0.0745(2) 0.1911(5) 0.3439(2)
H10A H 0.095(3) 0.113(4) 0.354(2)
N5A N 0.0562(2) 0.4196(5) 0.33625(19)
N6A N 0.2974(4) 0.3954(9) 0.4495(3)
C1A C -0.3023(3) 0.3470(5) 0.1866(2)
C2A C -0.3374(3) 0.2228(6) 0.1590(2)
C3A C -0.4225(3) 0.1138(5) 0.1073(2)
C4A C -0.4887(3) 0.0893(6) 0.0723(2)
C5A C -0.5311(4) 0.1990(8) 0.0513(3)
H11A H -0.5180 0.2919 0.0594
C6A C -0.5925(4) 0.1709(8) 0.0187(3)
H12A H -0.6193 0.2471 0.0045
C7A C -0.5754(3) -0.0640(8) 0.0264(3)
H13A H -0.5903 -0.1557 0.0180
C8A C -0.5121(3) -0.0452(7) 0.0595(3)
H14A H -0.4860 -0.1230 0.0728
C9A C -0.3244(3) 0.0810(5) 0.1570(2)
C10A C -0.2642(3) -0.0032(5) 0.1836(2)
C11A C -0.0283(3) 0.0767(6) 0.2963(2)
C12A C 0.0098(3) 0.2054(6) 0.3159(2)
C13A C 0.1004(3) 0.3208(6) 0.3555(2)
C14A C 0.1690(3) 0.3454(7) 0.3878(2)
C15A C 0.2093(4) 0.2388(8) 0.4103(4)
H15A H 0.1940 0.1462 0.4059
C16A C 0.2734(5) 0.2667(11) 0.4400(4)
H16A H 0.3006 0.1910 0.4539
C17A C 0.2589(5) 0.4998(10) 0.4252(4)
H17A H 0.2761 0.5910 0.4293
C18A C 0.1958(4) 0.4811(8) 0.3946(4)
H18A H 0.1712 0.5577 0.3785
C19A C -0.0016(3) 0.3506(6) 0.3112(2)
C20A C -0.0621(3) 0.4330(5) 0.2840(2)
Dy1B Dy -0.313045(11) -0.31219(2) 0.215964(9)
Dy1B_2 Dy -0.313045(11) 0.68781(2) 0.215964(9)
Dy1C Dy 0.313045(11) -0.31219(2) 0.284036(9)
Dy1C_2 Dy 0.313045(11) 0.68781(2) 0.284036(9)
Dy2_2 Dy 0.0000 -0.24485(3) 0.2500
O1B O -0.1712(2) -0.0354(4) 0.32618(16)
O1C O 0.1712(2) -0.0354(4) 0.17382(16)
O3B O -0.2327(2) 0.3651(4) 0.32454(16)
O3C O 0.2327(2) 0.3651(4) 0.17546(16)
O5_2 O -0.0034(2) 0.9632(4) 0.19909(19)
O5A_2 O 0.0034(2) 0.9632(4) 0.30091(19)
O13 O 0.1300(3) 0.9125(7) 0.3915(3)
H19 H 0.169(2) 0.878(12) 0.397(3)
H20 H 0.126(5) 0.947(12) 0.418(2)
O14 O 0.7349(3) 0.1267(8) 0.5712(2)
H21 H 0.705(3) 0.085(11) 0.549(3)
H22 H 0.720(4) 0.145(12) 0.596(2)
N7 N 0.5141(6) 0.5572(17) 0.4421(5)
O15 O 0.4817(9) 0.610(3) 0.4704(7)
O16 O 0.5779(9) 0.544(3) 0.4583(7)
O17 O 0.4819(8) 0.5118(15) 0.3991(5)
O18? O 0.4363(7) 0.5112(12) 0.4337(4)
O19? O 0.5910(9) 0.534(3) 0.4784(7)
loop_
_geom_bond_atom_site_label_1
_geom_bond_atom_site_label_2
_geom_bond_site_symmetry_1
_geom_bond_site_symmetry_2
Dy1 O2 1_555 1_555
Dy2 O8 1_555 1_555
O1 C1 1_555 1_555
O2 C1 1_555 1_555
O3 C10 1_555 1_555
O4 Dy1 1_555 1_555
O5 C11 1_555 1_555
O6 Dy1 1_555 1_555
O7 Dy1 1_555 1_555
O8 C20 1_555 1_555
O9 Dy1 1_555 1_555
H1 O9 1_555 1_555
H2 O9 1_555 1_555
O10 Dy1 1_555 1_555
H3 O10 1_555 1_555
H4 O10 1_555 1_555
O11 Dy2 1_555 1_555
H5 O11 1_555 1_555
H6 O11 1_555 1_555
O12 Dy2 1_555 1_555
H7 O12 1_555 1_555
H8 O12 1_555 1_555
N1 H9 1_555 1_555
N2 C3 1_555 1_555
N3 C6 1_555 1_555
N4 H10 1_555 1_555
N5 C13 1_555 1_555
N6 C16 1_555 1_555
C1 C2 1_555 1_555
C2 N1 1_555 1_555
C3 N1 1_555 1_555
C4 C3 1_555 1_555
C5 C4 1_555 1_555
H11 C5 1_555 1_555
C6 C5 1_555 1_555
H12 C6 1_555 1_555
C7 N3 1_555 1_555
H13 C7 1_555 1_555
C8 C4 1_555 1_555
H14 C8 1_555 1_555
C9 N2 1_555 1_555
C10 O4 1_555 1_555
C11 O6 1_555 1_555
C12 N4 1_555 1_555
C13 N4 1_555 1_555
C14 C13 1_555 1_555
C15 C14 1_555 1_555
H15 C15 1_555 1_555
C16 C15 1_555 1_555
H16 C16 1_555 1_555
C17 N6 1_555 1_555
H17 C17 1_555 1_555
C18 C14 1_555 1_555
H18 C18 1_555 1_555
C19 N5 1_555 1_555
C20 O7 1_555 1_555
O13 H19 1_555 1_555
H20 O13 1_555 1_555
O14 H21 1_555 1_555
H22 O14 1_555 1_555
N7 O15 1_555 1_555
O16 N7 1_555 1_555
O17 N7 1_555 1_555
Dy1A O2A 1_555 1_555
O1A C1A 1_555 1_555
O2A C1A 1_555 1_555
O3A C10A 1_555 1_555
O4A Dy1A 1_555 1_555
O5A C11A 1_555 1_555
O6A Dy1A 1_555 1_555
O7A Dy1A 1_555 1_555
O8A Dy2 1_555 1_555
O9A Dy1A 1_555 1_555
H1A O9A 1_555 1_555
H2A O9A 1_555 1_555
O10A Dy1A 1_555 1_555
H3A O10A 1_555 1_555
H4A O10A 1_555 1_555
O11A Dy2 1_555 1_555
H5A O11A 1_555 1_555
H6A O11A 1_555 1_555
O12A Dy2 1_555 1_555
H7A O12A 1_555 1_555
H8A O12A 1_555 1_555
N1A H9A 1_555 1_555
N2A C3A 1_555 1_555
N3A C6A 1_555 1_555
N4A H10A 1_555 1_555
N5A C13A 1_555 1_555
N6A C16A 1_555 1_555
C1A C2A 1_555 1_555
C2A N1A 1_555 1_555
C3A N1A 1_555 1_555
C4A C3A 1_555 1_555
C5A C4A 1_555 1_555
H11A C5A 1_555 1_555
C6A C5A 1_555 1_555
H12A C6A 1_555 1_555
C7A N3A 1_555 1_555
H13A C7A 1_555 1_555
C8A C4A 1_555 1_555
H14A C8A 1_555 1_555
C9A N2A 1_555 1_555
C10A O4A 1_555 1_555
C11A O6A 1_555 1_555
C12A N4A 1_555 1_555
C13A N4A 1_555 1_555
C14A C13A 1_555 1_555
C15A C14A 1_555 1_555
H15A C15A 1_555 1_555
C16A C15A 1_555 1_555
H16A C16A 1_555 1_555
C17A N6A 1_555 1_555
H17A C17A 1_555 1_555
C18A C14A 1_555 1_555
H18A C18A 1_555 1_555
C19A N5A 1_555 1_555
C20A O7A 1_555 1_555
Dy1B O3A 1_555 1_555
Dy1B_2 O1A 1_555 1_555
Dy1C O3 1_555 1_555
Dy1C_2 O1 1_555 1_555
Dy2_2 O5 1_555 1_555
O1B Dy1A 1_555 1_555
O1C Dy1 1_555 1_555
O3B Dy1A 1_555 1_555
O3C Dy1 1_555 1_555
O5_2 Dy2 1_555 1_555
O5A_2 Dy2 1_555 1_555
C2 C9 1_555 1_555
C7 C8 1_555 1_555
C9 C10 1_555 1_555
C11 C12 1_555 1_555
C12 C19 1_555 1_555
C17 C18 1_555 1_555
C19 C20 1_555 1_555
O5A Dy2_2 1_555 1_555
O8A C20A 1_555 1_555
C2A C9A 1_555 1_555
C7A C8A 1_555 1_555
C9A C10A 1_555 1_555
C11A C12A 1_555 1_555
C12A C19A 1_555 1_555
C17A C18A 1_555 1_555
C19A C20A 1_555 1_555

#END
