
#######################################################################
#
#                 Cambridge Crystallographic Data Centre
#                                CCDC 
#
#######################################################################
#
# If this CIF has been generated from an entry in the Cambridge 
# Structural Database, then it will include bibliographic, chemical, 
# crystal, experimental, refinement or atomic coordinate data resulting 
# from the CCDC's data processing and validation procedures.
#
#######################################################################

data_VICJEY
_symmetry_cell_setting           triclinic
_symmetry_space_group_name_H-M   'P -1'
_symmetry_Int_Tables_number      2
_space_group_name_Hall           '-P 1'
loop_
_symmetry_equiv_pos_site_id
_symmetry_equiv_pos_as_xyz
1 x,y,z
2 -x,-y,-z
_cell_length_a                   14.1523(7)
_cell_length_b                   15.1344(7)
_cell_length_c                   18.0022(9)
_cell_angle_alpha                66.294(4)
_cell_angle_beta                 71.031(4)
_cell_angle_gamma                64.522(5)
_cell_volume                     3132.71
loop_
_atom_site_label
_atom_site_type_symbol
_atom_site_fract_x
_atom_site_fract_y
_atom_site_fract_z
Sm1 Sm 0.454339(18) 0.568240(19) 0.096749(14)
Sm2 Sm 0.551108(18) 0.431075(19) 0.403431(14)
C1 C 0.3141(4) 0.5954(4) 0.4879(3)
C2 C 0.3526(4) 0.5805(3) 0.2930(3)
C3 C 0.2450(3) 0.6012(4) 0.4380(3)
C4 C 0.2583(3) 0.5891(4) 0.3619(3)
C5 C 0.0938(4) 0.6118(4) 0.4190(3)
C6 C -0.0182(4) 0.6215(4) 0.4346(3)
C7 C -0.0541(4) 0.6021(4) 0.3816(3)
H1 H -0.0075 0.5834 0.3359
C8 C -0.1583(4) 0.6108(4) 0.3968(3)
H2 H -0.1811 0.5984 0.3602
C9 C -0.1944(4) 0.6537(4) 0.5128(3)
H3 H -0.2423 0.6706 0.5587
C10 C -0.0912(4) 0.6482(4) 0.5012(3)
H4 H -0.0709 0.6625 0.5382
C11 C 0.6498(4) 0.4121(4) 0.2068(3)
C12 C 0.6840(4) 0.3948(4) 0.0127(3)
C13 C 0.7431(3) 0.3982(4) 0.1389(3)
C14 C 0.7536(4) 0.3886(4) 0.0625(3)
C15 C 0.9073(4) 0.3734(4) 0.0803(3)
C16 C 1.0204(4) 0.3635(4) 0.0624(3)
C17 C 1.0871(4) 0.3469(5) -0.0092(3)
H5 H 1.0631 0.3388 -0.0475
C18 C 1.1904(4) 0.3426(5) -0.0233(4)
H6 H 1.2341 0.3343 -0.0731
C19 C 1.1658(4) 0.3634(5) 0.0990(4)
H7 H 1.1923 0.3686 0.1375
C20 C 1.0622(4) 0.3709(5) 0.1177(4)
H8 H 1.0200 0.3809 0.1674
N1 N 0.1399(3) 0.6173(3) 0.4710(2)
H9 H 0.1081 0.6291 0.5175
N2 N 0.1638(3) 0.5945(3) 0.3519(2)
N3 N -0.2291(3) 0.6362(3) 0.4615(3)
N4 N 0.8395(3) 0.3898(3) 0.1484(2)
N5 N 0.8588(3) 0.3722(3) 0.0278(2)
H10 H 0.8889 0.3626 -0.0196
N6 N 1.2315(3) 0.3494(4) 0.0300(3)
O1 O 0.2697(3) 0.6188(3) 0.5525(2)
O2 O 0.4155(2) 0.5674(2) 0.46483(19)
O3 O 0.4408(2) 0.5652(3) 0.30612(19)
O4 O 0.3350(2) 0.5923(2) 0.22447(18)
O5 O 0.6660(2) 0.4027(2) 0.27466(18)
O6 O 0.5598(2) 0.4304(2) 0.19309(19)
O7 O 0.5829(2) 0.4254(3) 0.03490(19)
O8 O 0.7274(2) 0.3730(3) -0.0525(2)
O9 O 0.5434(3) 0.6370(3) 0.1475(2)
O10 O 0.5835(3) 0.6314(3) -0.0127(2)
O11 O 0.3722(3) 0.7558(3) 0.0478(2)
O12 O 0.3770(3) 0.4310(3) 0.1543(2)
O13 O 0.6279(3) 0.5673(3) 0.3316(2)
O14 O 0.4582(3) 0.3626(3) 0.3538(2)
O15 O 0.4392(3) 0.3447(3) 0.5174(2)
O16 O 0.6528(3) 0.2462(3) 0.4413(2)
Sm1A Sm 0.545661(18) 0.431760(19) -0.096749(14)
Sm2A Sm 0.448892(18) 0.568925(19) 0.596569(14)
O1A O 0.7303(3) 0.3812(3) 0.4475(2)
O2A O 0.5845(2) 0.4326(2) 0.53517(19)
O7A O 0.4171(2) 0.5746(3) -0.03490(19)
O8A O 0.2726(2) 0.6270(3) 0.0525(2)
C21 C 1.1825(5) 0.1241(5) 0.2566(4)
C22 C 1.2334(5) 0.0705(5) 0.0804(4)
C23 C 1.1156(4) 0.1126(4) 0.2149(3)
C24 C 1.1350(4) 0.0917(4) 0.1419(3)
C25 C 0.9706(4) 0.1136(4) 0.1935(3)
C26 C 0.8608(4) 0.1216(4) 0.2061(3)
C27 C 0.8312(5) 0.0994(5) 0.1521(4)
H11 H 0.8813 0.0776 0.1088
C28 C 0.7257(5) 0.1101(5) 0.1627(4)
H12 H 0.7067 0.0957 0.1252
C29 C 0.6807(5) 0.1572(5) 0.2769(4)
H13 H 0.6300 0.1750 0.3215
C30 C 0.7839(5) 0.1505(4) 0.2699(4)
H14 H 0.8007 0.1655 0.3082
N7 N 1.0449(3) 0.0931(3) 0.1295(3)
N8 N 1.0108(3) 0.1262(3) 0.2463(3)
H15 H 0.9760 0.1403 0.2915
N9 N 0.6506(4) 0.1396(4) 0.2235(3)
O17 O 1.1391(4) 0.1523(4) 0.3196(3)
O18 O 1.2799(3) 0.1058(4) 0.2239(3)
O19 O 1.3191(3) 0.0673(4) 0.0949(3)
O20 O 1.2324(3) 0.0548(4) 0.0192(3)
C31 C -0.2681(5) 0.9074(5) 0.4126(4)
C32 C -0.1907(5) 0.8347(5) 0.2430(4)
C33 C -0.1659(4) 0.8856(4) 0.3566(3)
C34 C -0.1340(4) 0.8542(4) 0.2877(3)
C35 C 0.0005(4) 0.8651(4) 0.3143(3)
C36 C 0.1081(4) 0.8592(4) 0.3089(3)
C37 C 0.1886(4) 0.8401(4) 0.2425(4)
H16 H 0.1744 0.8334 0.1984
C38 C 0.2904(5) 0.8312(4) 0.2422(4)
H17 H 0.3437 0.8176 0.1975
C39 C 0.2371(5) 0.8621(5) 0.3660(4)
H18 H 0.2523 0.8707 0.4087
C40 C 0.1346(5) 0.8716(5) 0.3701(4)
H19 H 0.0825 0.8867 0.4150
N10 N -0.0816(4) 0.8924(3) 0.3732(3)
N11 N -0.0288(3) 0.8416(3) 0.2624(3)
H20 H 0.0120 0.8221 0.2206
N12 N 0.3157(4) 0.8411(4) 0.3033(3)
O21 O -0.2771(3) 0.9234(4) 0.4759(3)
O22 O -0.3491(3) 0.9069(4) 0.3929(3)
O23 O -0.2902(3) 0.8535(3) 0.2683(3)
O24 O -0.1384(3) 0.8018(4) 0.1833(3)
O25 O 0.0008(4) 0.4147(4) 0.8234(3)
O26 O 0.3747(4) 0.0717(4) 0.8759(3)
O27 O 0.0992(4) 0.0375(4) 0.4919(3)
O28 O 0.5343(4) 0.0058(4) 0.7008(4)
O29 O 0.5934(4) 0.0855(4) 0.5323(3)
O30 O 0.4506(4) 0.1674(4) 0.4169(3)
O31 O 0.4754(3) 0.2312(3) 0.6795(3)
O32 O 0.2582(4) 0.2467(4) 0.3332(3)
O33 O 0.4455(3) 0.2267(3) 0.2027(3)
O34 O 0.1837(3) 0.4567(3) 0.2606(2)
O35 O 0.5044(4) 0.1306(4) 0.0797(3)
O36 O 0.8853(3) 0.1589(3) 0.4068(3)
O37 O 0.8419(3) 0.4887(3) 0.2561(2)
O38 O 0.5211(4) 0.8413(4) 0.0852(3)
O39 O 0.1172(3) 0.7004(3) 0.1816(2)
O40 O 0.1686(3) 0.8880(3) 0.0400(3)
O41 O 0.0364(3) 0.6708(4) 0.6231(2)
O42 O 0.0016(4) 0.8370(5) 0.0347(3)
loop_
_geom_bond_atom_site_label_1
_geom_bond_atom_site_label_2
_geom_bond_site_symmetry_1
_geom_bond_site_symmetry_2
Sm1 O4 1_555 1_555
Sm2 O2 1_555 1_555
C1 C3 1_555 1_555
C2 C4 1_555 1_555
C3 C4 1_555 1_555
C4 N2 1_555 1_555
C5 C6 1_555 1_555
C6 C7 1_555 1_555
C7 H1 1_555 1_555
C8 C7 1_555 1_555
H2 C8 1_555 1_555
C9 H3 1_555 1_555
C10 C6 1_555 1_555
H4 C10 1_555 1_555
C11 C13 1_555 1_555
C12 C14 1_555 1_555
C13 C14 1_555 1_555
C14 N5 1_555 1_555
C15 C16 1_555 1_555
C16 C17 1_555 1_555
C17 H5 1_555 1_555
C18 C17 1_555 1_555
H6 C18 1_555 1_555
C19 H7 1_555 1_555
C20 C16 1_555 1_555
H8 C20 1_555 1_555
N1 C3 1_555 1_555
H9 N1 1_555 1_555
N2 C5 1_555 1_555
N3 C8 1_555 1_555
N4 C13 1_555 1_555
N5 C15 1_555 1_555
H10 N5 1_555 1_555
N6 C18 1_555 1_555
O1 C1 1_555 1_555
O2 C1 1_555 1_555
O3 Sm2 1_555 1_555
O4 C2 1_555 1_555
O5 Sm2 1_555 1_555
O6 Sm1 1_555 1_555
O7 Sm1 1_555 1_555
O8 C12 1_555 1_555
O9 Sm1 1_555 1_555
O10 Sm1 1_555 1_555
O11 Sm1 1_555 1_555
O12 Sm1 1_555 1_555
O13 Sm2 1_555 1_555
O14 Sm2 1_555 1_555
O15 Sm2 1_555 1_555
O16 Sm2 1_555 1_555
C21 C23 1_555 1_555
C22 C24 1_555 1_555
C23 C24 1_555 1_555
C24 N7 1_555 1_555
C25 C26 1_555 1_555
C26 C27 1_555 1_555
C27 H11 1_555 1_555
C28 C27 1_555 1_555
H12 C28 1_555 1_555
C29 H13 1_555 1_555
C30 C26 1_555 1_555
H14 C30 1_555 1_555
N7 C25 1_555 1_555
N8 C23 1_555 1_555
H15 N8 1_555 1_555
N9 C28 1_555 1_555
O17 C21 1_555 1_555
O18 C21 1_555 1_555
O19 C22 1_555 1_555
O20 C22 1_555 1_555
C31 C33 1_555 1_555
C32 C34 1_555 1_555
C33 C34 1_555 1_555
C34 N11 1_555 1_555
C35 C36 1_555 1_555
C36 C37 1_555 1_555
C37 H16 1_555 1_555
C38 C37 1_555 1_555
H17 C38 1_555 1_555
C39 H18 1_555 1_555
C40 C36 1_555 1_555
H19 C40 1_555 1_555
N10 C33 1_555 1_555
N11 C35 1_555 1_555
H20 N11 1_555 1_555
N12 C38 1_555 1_555
O21 C31 1_555 1_555
O22 C31 1_555 1_555
O23 C32 1_555 1_555
O24 C32 1_555 1_555
Sm1A O7 1_555 1_555
Sm2A O1 1_555 1_555
O1A Sm2 1_555 1_555
O2A Sm2 1_555 1_555
O7A Sm1 1_555 1_555
O8A Sm1 1_555 1_555
C2 O3 1_555 1_555
C5 N1 1_555 1_555
C9 C10 1_555 1_555
C9 N3 1_555 1_555
C11 O5 1_555 1_555
C11 O6 1_555 1_555
C12 O7 1_555 1_555
C15 N4 1_555 1_555
C19 C20 1_555 1_555
C19 N6 1_555 1_555
O2 Sm2A 1_555 1_555
O8 Sm1A 1_555 1_555
C25 N8 1_555 1_555
C29 C30 1_555 1_555
C29 N9 1_555 1_555
C35 N10 1_555 1_555
C39 C40 1_555 1_555
C39 N12 1_555 1_555
Sm1A O7A 1_555 1_555
Sm2A O2A 1_555 1_555

#END
