
#######################################################################
#
#                 Cambridge Crystallographic Data Centre
#                                CCDC 
#
#######################################################################
#
# If this CIF has been generated from an entry in the Cambridge 
# Structural Database, then it will include bibliographic, chemical, 
# crystal, experimental, refinement or atomic coordinate data resulting 
# from the CCDC's data processing and validation procedures.
#
#######################################################################

data_VICJAU
_symmetry_cell_setting           triclinic
_symmetry_space_group_name_H-M   'P -1'
_symmetry_Int_Tables_number      2
_space_group_name_Hall           '-P 1'
loop_
_symmetry_equiv_pos_site_id
_symmetry_equiv_pos_as_xyz
1 x,y,z
2 -x,-y,-z
_cell_length_a                   8.9815(3)
_cell_length_b                   14.0907(4)
_cell_length_c                   14.1747(5)
_cell_angle_alpha                67.246(3)
_cell_angle_beta                 78.097(3)
_cell_angle_gamma                71.811(3)
_cell_volume                     1564.11
loop_
_atom_site_label
_atom_site_type_symbol
_atom_site_fract_x
_atom_site_fract_y
_atom_site_fract_z
Eu1 Eu 0.28636(2) 0.952015(16) 0.568310(17)
O1 O 0.4991(4) 0.7718(2) 0.6232(3)
O2 O 0.5819(4) 0.9169(2) 0.5705(3)
O3 O 0.8789(4) 0.9410(2) 0.5675(2)
O4 O 1.1210(4) 0.8352(2) 0.5943(3)
O5 O 0.3713(5) 0.8755(3) 0.4336(3)
H1 H 0.397(8) 0.911(3) 0.375(2)
H2 H 0.390(8) 0.8114(12) 0.446(4)
O6 O 0.3143(4) 1.0719(3) 0.6417(4)
H3 H 0.243(3) 1.124(3) 0.644(5)
H4 H 0.400(2) 1.070(4) 0.654(5)
O7 O 0.0285(4) 1.0429(3) 0.6362(3)
H5 H 0.016(6) 1.042(5) 0.6957(17)
H6 H -0.041(5) 1.027(5) 0.620(4)
O8 O 0.2788(6) 0.8614(4) 0.7524(3)
H7 H 0.282(10) 0.899(4) 0.784(5)
H8 H 0.305(9) 0.7969(10) 0.782(5)
N1 N 0.7931(4) 0.6407(3) 0.6223(3)
H9 H 0.7194 0.6097 0.6334
N2 N 1.0316(4) 0.6628(3) 0.6017(3)
N3 N 1.1553(6) 0.2698(3) 0.6425(4)
C1 C 0.6087(5) 0.8159(3) 0.6008(3)
C2 C 0.7724(5) 0.7468(3) 0.6059(4)
C3 C 0.9487(5) 0.5941(3) 0.6180(4)
C4 C 1.0174(6) 0.4811(4) 0.6287(4)
C5 C 0.9269(7) 0.4114(4) 0.6506(5)
H10 H 0.8178 0.4336 0.6615
C6 C 1.0008(7) 0.3072(4) 0.6562(5)
H11 H 0.9381 0.2609 0.6705
C7 C 1.2419(8) 0.3382(5) 0.6220(6)
H12 H 1.3507 0.3140 0.6117
C8 C 1.1787(7) 0.4433(4) 0.6151(5)
H13 H 1.2440 0.4879 0.6014
C9 C 0.9232(5) 0.7582(3) 0.5940(3)
C10 C 0.9779(5) 0.8521(3) 0.5834(3)
Eu1_2 Eu 1.28636(2) 0.952015(16) 0.568310(17)
Eu1A Eu 0.71364(2) 1.047985(16) 0.431690(17)
O2A O 0.4181(4) 1.0831(2) 0.4295(3)
O3A O 0.1211(4) 1.0590(2) 0.4325(2)
O4_2 O 0.1210(4) 0.8352(2) 0.5943(3)
O9 O 0.5481(7) 0.6388(5) 0.1764(7)
O10 O 0.6294(9) 0.7852(4) 0.1283(6)
H14 H 0.7134 0.8017 0.1120
O11 O 0.8841(13) 0.8346(6) 0.0786(7)
O12 O 1.1375(12) 0.7545(7) 0.0658(6)
N4 N 0.8537(7) 0.5190(5) 0.1431(5)
H15 H 0.7874 0.4810 0.1599
N5 N 1.0808(9) 0.5627(6) 0.1010(5)
N6 N 1.2622(8) 0.1679(6) 0.1485(5)
C11 C 0.6551(12) 0.6847(6) 0.1454(9)
C12 C 0.8186(10) 0.6241(6) 0.1300(7)
C13 C 1.0120(8) 0.4847(6) 0.1248(5)
C14 C 1.0951(8) 0.3751(7) 0.1309(5)
C15 C 1.0183(8) 0.2973(6) 0.1562(5)
H16 H 0.9091 0.3127 0.1684
C16 C 1.1062(9) 0.1954(7) 0.1631(6)
H17 H 1.0531 0.1432 0.1789
C17 C 1.3346(9) 0.2433(9) 0.1243(8)
H18 H 1.4440 0.2247 0.1139
C18 C 1.2599(9) 0.3475(8) 0.1133(7)
H19 H 1.3166 0.3982 0.0948
C19 C 0.9625(12) 0.6494(8) 0.1018(6)
C20 C 0.9971(18) 0.7526(10) 0.0829(8)
O13 O 0.3424(6) 0.6713(5) 0.4849(8)
H20 H 0.259(8) 0.672(9) 0.522(7)
H21 H 0.354(13) 0.645(10) 0.441(7)
O14 O 0.4263(8) 0.9595(5) 0.2308(4)
H22 H 0.507(8) 0.938(7) 0.198(6)
H23 H 0.377(10) 1.021(3) 0.204(7)
O15 O 0.0388(8) 0.9633(6) 0.1661(5)
H24 H 0.109(9) 0.922(7) 0.143(7)
H25 H -0.031(9) 1.002(8) 0.128(6)
O16 O 0.3563(11) 0.6180(8) 0.8425(8)
O17 O 0.3806(12) 0.5962(10) 0.0388(9)
O18 O 0.3023(11) 0.8755(8) 0.0700(9)
O19 O 0.4407(15) 0.9684(9) -0.0071(9)
O19A O 0.5593(15) 1.0316(9) 0.0071(9)
O20 O 0.2934(13) 0.9964(9) 0.8675(9)
O21 O 0.3263(12) 0.7603(9) 0.2474(9)
O22 O 0.3195(9) 0.6174(6) 0.6998(6)
O23 O 0.5475(10) 0.5360(7) 0.6700(8)
O24? O 0.3641(11) 0.6689(8) 0.8863(8)
O25? O 0.4098(13) 0.4981(8) 0.1626(11)
O26? O 0.2417(15) 0.9087(9) 0.9155(8)
O27? O 0.5632(11) 0.5004(10) 0.5859(8)
loop_
_geom_bond_atom_site_label_1
_geom_bond_atom_site_label_2
_geom_bond_site_symmetry_1
_geom_bond_site_symmetry_2
Eu1 O1 1_555 1_555
O1 C1 1_555 1_555
O2 Eu1 1_555 1_555
O3 C10 1_555 1_555
O4 C10 1_555 1_555
O5 Eu1 1_555 1_555
H1 O5 1_555 1_555
H2 O5 1_555 1_555
O6 Eu1 1_555 1_555
H3 O6 1_555 1_555
H4 O6 1_555 1_555
O7 Eu1 1_555 1_555
H5 O7 1_555 1_555
H6 O7 1_555 1_555
O8 Eu1 1_555 1_555
H7 O8 1_555 1_555
H8 O8 1_555 1_555
N1 H9 1_555 1_555
N2 C3 1_555 1_555
N3 C6 1_555 1_555
C1 O2 1_555 1_555
C2 N1 1_555 1_555
C3 N1 1_555 1_555
C4 C3 1_555 1_555
C5 C4 1_555 1_555
H10 C5 1_555 1_555
C6 C5 1_555 1_555
H11 C6 1_555 1_555
C7 N3 1_555 1_555
H12 C7 1_555 1_555
C8 C4 1_555 1_555
H13 C8 1_555 1_555
C9 N2 1_555 1_555
C10 C9 1_555 1_555
O9 C11 1_555 1_555
O10 H14 1_555 1_555
O11 C20 1_555 1_555
O12 C20 1_555 1_555
N4 H15 1_555 1_555
N5 C13 1_555 1_555
N6 C16 1_555 1_555
C11 O10 1_555 1_555
C12 N4 1_555 1_555
C13 N4 1_555 1_555
C14 C13 1_555 1_555
C15 C14 1_555 1_555
H16 C15 1_555 1_555
C16 C15 1_555 1_555
H17 C16 1_555 1_555
C17 N6 1_555 1_555
H18 C17 1_555 1_555
C18 C14 1_555 1_555
H19 C18 1_555 1_555
C19 N5 1_555 1_555
C20 C19 1_555 1_555
O13 H20 1_555 1_555
H21 O13 1_555 1_555
O14 H22 1_555 1_555
H23 O14 1_555 1_555
O15 H24 1_555 1_555
H25 O15 1_555 1_555
Eu1_2 O4 1_555 1_555
Eu1A O2 1_555 1_555
O2A Eu1 1_555 1_555
O3A Eu1 1_555 1_555
O4_2 Eu1 1_555 1_555
O3 Eu1A 1_555 1_555
C1 C2 1_555 1_555
C2 C9 1_555 1_555
C7 C8 1_555 1_555
C11 C12 1_555 1_555
C12 C19 1_555 1_555
C17 C18 1_555 1_555
Eu1A O2A 1_555 1_555

#END
