
#######################################################################
#
#                 Cambridge Crystallographic Data Centre
#                                CCDC 
#
#######################################################################
#
# If this CIF has been generated from an entry in the Cambridge 
# Structural Database, then it will include bibliographic, chemical, 
# crystal, experimental, refinement or atomic coordinate data resulting 
# from the CCDC's data processing and validation procedures.
#
#######################################################################

data_VICJUM
_symmetry_cell_setting           monoclinic
_symmetry_space_group_name_H-M   'P 21/c'
_symmetry_Int_Tables_number      14
_space_group_name_Hall           '-P 2ybc'
loop_
_symmetry_equiv_pos_site_id
_symmetry_equiv_pos_as_xyz
1 x,y,z
2 -x,1/2+y,1/2-z
3 -x,-y,-z
4 x,1/2-y,1/2+z
_cell_length_a                   4.1947(7)
_cell_length_b                   17.6999(12)
_cell_length_c                   17.1048(8)
_cell_angle_alpha                90
_cell_angle_beta                 96.15(1)
_cell_angle_gamma                90
_cell_volume                     1262.65
loop_
_atom_site_label
_atom_site_type_symbol
_atom_site_fract_x
_atom_site_fract_y
_atom_site_fract_z
I1 I 0.37739(7) 0.17375(2) 0.17987(2)
Cu1 Cu -0.1217(2) 0.08909(4) 0.12610(4)
S1 S -0.1698(3) -0.02898(7) 0.17653(7)
S2 S -0.0062(4) -0.11497(8) 0.32372(8)
S3 S -0.2887(3) 0.08619(7) -0.00634(7)
S4 S -0.3510(3) 0.19777(7) -0.13868(7)
O1 O 0.599(1) 0.0347(2) 0.4068(2)
O2 O 0.220(1) 0.3364(3) -0.0210(3)
N1 N 0.228(1) 0.0146(3) 0.3012(2)
H1 H 0.28(2) 0.053(4) 0.282(4)
N2 N -0.021(1) 0.2226(2) -0.0072(3)
H2 H 0.11(1) 0.219(3) 0.033(4)
C1 C 0.029(1) -0.0361(3) 0.2651(3)
C2 C 0.247(2) -0.0732(3) 0.4058(3)
H3 H 0.359(2) -0.1281(3) 0.4043(3)
H4 H 0.080(2) -0.0732(3) 0.4496(3)
C3 C 0.388(1) -0.0020(3) 0.3745(3)
C4 C -0.209(1) 0.1692(3) -0.0443(3)
C5 C -0.144(1) 0.2874(3) -0.1277(3)
H5 H 0.050(1) 0.2970(3) -0.1633(3)
H6 H -0.289(1) 0.3378(3) -0.1270(3)
C6 C 0.041(1) 0.2871(3) -0.0476(3)
Cu1_2 Cu 0.8783(2) 0.08909(4) 0.12610(4)
I1_2 I -0.62261(7) 0.17375(2) 0.17987(2)
loop_
_geom_bond_atom_site_label_1
_geom_bond_atom_site_label_2
_geom_bond_site_symmetry_1
_geom_bond_site_symmetry_2
I1 Cu1 1_555 1_555
Cu1 S1 1_555 1_555
S1 C1 1_555 1_555
S2 C1 1_555 1_555
S3 Cu1 1_555 1_555
S4 C4 1_555 1_555
O1 C3 1_555 1_555
O2 C6 1_555 1_555
N1 H1 1_555 1_555
N2 H2 1_555 1_555
C1 N1 1_555 1_555
C2 S2 1_555 1_555
H3 C2 1_555 1_555
H4 C2 1_555 1_555
C3 N1 1_555 1_555
C4 S3 1_555 1_555
C5 S4 1_555 1_555
H5 C5 1_555 1_555
H6 C5 1_555 1_555
C6 N2 1_555 1_555
Cu1_2 I1 1_555 1_555
I1_2 Cu1 1_555 1_555
N2 C4 1_555 1_555
C2 C3 1_555 1_555
C5 C6 1_555 1_555

#END
