
#######################################################################
#
#                 Cambridge Crystallographic Data Centre
#                                CCDC 
#
#######################################################################
#
# If this CIF has been generated from an entry in the Cambridge 
# Structural Database, then it will include bibliographic, chemical, 
# crystal, experimental, refinement or atomic coordinate data resulting 
# from the CCDC's data processing and validation procedures.
#
#######################################################################

data_VICPUT
_symmetry_cell_setting           monoclinic
_symmetry_space_group_name_H-M   'P 21/n'
_symmetry_Int_Tables_number      14
_space_group_name_Hall           '-P 2yn'
loop_
_symmetry_equiv_pos_site_id
_symmetry_equiv_pos_as_xyz
1 x,y,z
2 1/2-x,1/2+y,1/2-z
3 -x,-y,-z
4 1/2+x,1/2-y,1/2+z
_cell_length_a                   11.737(5)
_cell_length_b                   26.844(10)
_cell_length_c                   23.194(9)
_cell_angle_alpha                90
_cell_angle_beta                 101.931(6)
_cell_angle_gamma                90
_cell_volume                     7149.82
loop_
_atom_site_label
_atom_site_type_symbol
_atom_site_fract_x
_atom_site_fract_y
_atom_site_fract_z
Ag1 Ag 0.22652(10) 0.16250(4) 0.89488(5)
Ag2 Ag 0.59492(10) -0.07993(4) 0.80366(5)
Ag3 Ag 0.54608(10) 0.05714(4) 0.72898(5)
Ag4 Ag 0.37412(11) 0.31708(4) 0.89176(6)
C1 C 0.1311(12) 0.3206(5) 0.8159(6)
C2 C 0.4584(11) 0.0658(5) 0.8437(6)
C3 C 0.0833(12) 0.3626(5) 0.8342(6)
H1 H 0.0387 0.3616 0.8640
C4 C 0.4970(13) 0.1133(5) 0.8668(7)
H2 H 0.5644 0.1161 0.8974
C5 C 0.4359(11) 0.1552(5) 0.8444(6)
C6 C 0.1039(11) 0.4073(5) 0.8068(6)
C7 C 0.1687(13) 0.4083(5) 0.7655(7)
H3 H 0.1814 0.4394 0.7483
C8 C 0.3402(12) 0.1509(5) 0.7960(6)
H4 H 0.3019 0.1800 0.7785
C9 C 0.3028(13) 0.1047(5) 0.7742(6)
H5 H 0.2367 0.1016 0.7430
C10 C 0.2180(13) 0.3658(5) 0.7470(6)
H6 H 0.2638 0.3674 0.7177
C11 C 0.3621(12) 0.0629(5) 0.7982(6)
H7 H 0.3360 0.0311 0.7830
C12 C 0.1982(12) 0.3212(5) 0.7724(6)
H8 H 0.2296 0.2911 0.7606
N1 N 0.1112(10) 0.2732(4) 0.8431(5)
N2 N 0.5262(10) 0.0225(4) 0.8653(6)
N3 N 0.0550(9) 0.4531(4) 0.8249(5)
N4 N 0.4733(10) 0.2031(4) 0.8666(6)
N5 N 0.0735(10) 0.1879(4) 0.8218(5)
N6 N 0.4996(9) -0.0627(4) 0.8747(5)
C13 C 0.4738(11) -0.0164(5) 0.8899(6)
C14 C 0.0497(12) 0.2358(5) 0.8062(6)
C15 C 0.3999(13) -0.0072(6) 0.9283(7)
H9 H 0.3840 0.0261 0.9380
C16 C -0.0333(14) 0.2485(6) 0.7544(7)
H10 H -0.0499 0.2823 0.7437
C17 C -0.0872(14) 0.2113(6) 0.7211(8)
H11 H -0.1399 0.2188 0.6853
C18 C 0.3493(13) -0.0465(6) 0.9524(7)
H12 H 0.2964 -0.0407 0.9777
C19 C -0.0673(13) 0.1616(7) 0.7381(7)
H13 H -0.1094 0.1353 0.7158
C20 C 0.3782(14) -0.0938(6) 0.9388(7)
H14 H 0.3480 -0.1218 0.9558
C21 C 0.0141(13) 0.1522(6) 0.7873(7)
H15 H 0.0304 0.1184 0.7982
C22 C 0.4529(13) -0.1004(5) 0.8993(7)
H16 H 0.4712 -0.1335 0.8897
N7 N 0.6717(10) 0.0419(4) 0.8132(5)
N8 N 0.2285(11) 0.2966(4) 0.9339(5)
C23 C 0.6475(12) 0.0204(5) 0.8597(7)
C24 C 0.1335(14) 0.2700(5) 0.9056(6)
C25 C 0.7288(13) -0.0025(6) 0.9052(7)
H17 H 0.7049 -0.0176 0.9378
C26 C 0.0635(17) 0.2407(6) 0.9346(8)
H18 H 0.0003 0.2219 0.9131
C27 C 0.8445(13) -0.0021(6) 0.9009(7)
H19 H 0.9021 -0.0182 0.9297
C28 C 0.090(2) 0.2403(7) 0.9951(10)
H20 H 0.0469 0.2195 1.0161
C29 C 0.8743(13) 0.0219(6) 0.8539(8)
H21 H 0.9540 0.0242 0.8517
C30 C 0.178(2) 0.2701(7) 1.0256(8)
H22 H 0.1910 0.2726 1.0673
C31 C 0.2476(18) 0.2963(6) 0.9946(7)
H23 H 0.3112 0.3150 1.0161
C32 C 0.7899(13) 0.0432(6) 0.8095(8)
H24 H 0.8122 0.0585 0.7766
N9 N -0.1430(10) 0.4363(4) 0.7831(5)
N10 N 0.3974(11) 0.1897(4) 0.9513(5)
C33 C 0.4795(12) 0.2125(5) 0.9266(7)
C34 C -0.0656(12) 0.4531(5) 0.8303(6)
C35 C -0.1011(13) 0.4722(6) 0.8798(7)
H25 H -0.0457 0.4859 0.9115
C36 C 0.5634(14) 0.2439(6) 0.9604(8)
H26 H 0.6186 0.2610 0.9430
C37 C -0.2156(14) 0.4710(6) 0.8818(8)
H27 H -0.2407 0.4834 0.9154
C38 C 0.5635(18) 0.2490(7) 1.0187(8)
H28 H 0.6196 0.2700 1.0424
C39 C 0.4848(19) 0.2248(7) 1.0435(8)
H29 H 0.4875 0.2282 1.0846
C40 C -0.2961(13) 0.4517(6) 0.8349(7)
H30 H -0.3766 0.4503 0.8359
C41 C -0.2557(13) 0.4342(6) 0.7860(7)
H31 H -0.3099 0.4205 0.7538
C42 C 0.4002(17) 0.1948(6) 1.0096(7)
H32 H 0.3448 0.1780 1.0272
N11 N 0.4874(10) 0.2848(4) 0.8326(6)
N12 N 0.1014(10) 0.5361(4) 0.8457(5)
C43 C 0.5139(12) 0.2359(6) 0.8284(7)
C44 C 0.1331(11) 0.4892(5) 0.8565(6)
C45 C 0.5750(14) 0.2195(6) 0.7868(7)
H33 H 0.5929 0.1851 0.7849
C46 C 0.2362(13) 0.4753(6) 0.8956(7)
H34 H 0.2583 0.4413 0.9004
C47 C 0.3044(14) 0.5117(7) 0.9267(8)
H35 H 0.3751 0.5033 0.9530
C48 C 0.6103(15) 0.2523(6) 0.7482(8)
H36 H 0.6515 0.2410 0.7195
C49 C 0.5836(14) 0.3026(6) 0.7527(8)
H37 H 0.6064 0.3267 0.7273
C50 C 0.2693(15) 0.5598(7) 0.9193(8)
H38 H 0.3119 0.5851 0.9430
C51 C 0.5237(14) 0.3161(6) 0.7948(8)
H39 H 0.5062 0.3505 0.7977
C52 C 0.1698(14) 0.5721(6) 0.8766(7)
H40 H 0.1500 0.6061 0.8691
N13 N 0.1625(11) 0.0661(5) 0.9405(6)
O1 O 0.2077(16) 0.0974(6) 0.9776(6)
O2 O 0.1599(10) 0.0739(4) 0.8866(5)
O3 O 0.1297(10) 0.0253(4) 0.9554(5)
N14 N 0.7579(17) -0.1607(7) 0.8548(7)
O4 O 0.7957(12) -0.1184(5) 0.8426(6)
O5 O 0.6490(14) -0.1671(5) 0.8472(6)
O6 O 0.8289(14) -0.1937(6) 0.8758(7)
N15 N 0.6479(15) 0.1322(6) 0.6615(6)
O7 O 0.5570(13) 0.1408(4) 0.6825(6)
O8 O 0.7015(10) 0.0900(5) 0.6734(5)
O9 O 0.6926(13) 0.1641(5) 0.6339(6)
N16 N 0.5014(11) 0.4076(6) 0.9358(8)
O10 O 0.4921(16) 0.3752(6) 0.9729(7)
O11 O 0.4538(10) 0.4006(4) 0.8828(5)
O12 O 0.5568(10) 0.4465(5) 0.9499(6)
Ag2A Ag -0.09492(10) 0.42007(4) 0.69634(5)
Ag3A Ag -0.04608(10) 0.55714(4) 0.77102(5)
N9A N 0.6430(10) -0.0637(4) 0.7169(5)
N12A N 0.3986(10) 0.0361(4) 0.6543(5)
C53 C 0.104(2) 0.4140(8) 1.0139(10)
H41 H 0.1283 0.4280 1.0536
H42 H 0.0943 0.4411 0.9848
H43 H 0.1642 0.3909 1.0063
C54 C -0.010(3) 0.3864(9) 1.0091(10)
H44 H 0.0005 0.3594 1.0388
H45 H -0.0695 0.4096 1.0178
O13 O -0.0480(10) 0.3661(5) 0.9534(5)
C55 C -0.1619(18) 0.3413(10) 0.9468(11)
H46 H -0.1579 0.3145 0.9764
H47 H -0.2220 0.3656 0.9527
C56 C -0.1914(19) 0.3205(10) 0.8871(11)
H48 H -0.2678 0.3043 0.8811
H49 H -0.1324 0.2960 0.8821
H50 H -0.1937 0.3473 0.8582
C57 C 0.305(3) 0.2324(10) 0.6574(12)
H51 H 0.3475 0.2302 0.6984
H52 H 0.2706 0.2000 0.6448
H53 H 0.2435 0.2575 0.6541
O14 O 0.378(3) 0.254(2) 0.6198(18)
H54 H 0.4274 0.2329 0.6140
N17 N -0.555(3) 0.5296(13) 0.7902(16)
C58 C -0.502(3) 0.5477(15) 0.8333(19)
C59 C -0.434(3) 0.5696(16) 0.8906(19)
H55 H -0.4793 0.5656 0.9214
H56 H -0.4203 0.6052 0.8851
H57 H -0.3594 0.5524 0.9023
N19 N -0.206(2) 0.1632(11) 0.9367(16)
C62 C -0.137(2) 0.1362(10) 0.9764(18)
C63 C -0.058(2) 0.1067(11) 1.014(2)
H61 H -0.0690 0.1114 1.0548
H62 H 0.0212 0.1164 1.0120
H63 H -0.0710 0.0717 1.0032
O15 O -0.5601(19) 0.3917(10) 0.6485(13)
O16 O 0.1445(14) -0.0206(7) 0.8113(9)
N18? N -0.466(5) 0.5973(19) 0.896(3)
C60? C -0.518(6) 0.631(2) 0.883(3)
C61? C -0.607(5) 0.668(2) 0.863(3)
H58? H -0.6248 0.6854 0.8973
H59? H -0.6772 0.6520 0.8409
H60? H -0.5780 0.6922 0.8376
loop_
_geom_bond_atom_site_label_1
_geom_bond_atom_site_label_2
_geom_bond_site_symmetry_1
_geom_bond_site_symmetry_2
Ag1 N5 1_555 1_555
Ag2 N6 1_555 1_555
Ag3 N7 1_555 1_555
Ag4 N8 1_555 1_555
C1 C3 1_555 1_555
C2 C4 1_555 1_555
C3 H1 1_555 1_555
C4 H2 1_555 1_555
C5 C4 1_555 1_555
C6 C3 1_555 1_555
C7 C6 1_555 1_555
H3 C7 1_555 1_555
C8 C5 1_555 1_555
H4 C8 1_555 1_555
C9 C8 1_555 1_555
H5 C9 1_555 1_555
C10 C7 1_555 1_555
H6 C10 1_555 1_555
C11 C2 1_555 1_555
H7 C11 1_555 1_555
C12 C1 1_555 1_555
H8 C12 1_555 1_555
N1 C1 1_555 1_555
N2 C2 1_555 1_555
N3 C6 1_555 1_555
N4 C5 1_555 1_555
N5 C14 1_555 1_555
N6 C13 1_555 1_555
C13 N2 1_555 1_555
C14 N1 1_555 1_555
C15 C13 1_555 1_555
H9 C15 1_555 1_555
C16 C14 1_555 1_555
H10 C16 1_555 1_555
C17 C16 1_555 1_555
H11 C17 1_555 1_555
C18 C15 1_555 1_555
H12 C18 1_555 1_555
C19 C17 1_555 1_555
H13 C19 1_555 1_555
C20 C18 1_555 1_555
H14 C20 1_555 1_555
C21 N5 1_555 1_555
H15 C21 1_555 1_555
C22 N6 1_555 1_555
H16 C22 1_555 1_555
N7 C23 1_555 1_555
N8 C24 1_555 1_555
C23 N2 1_555 1_555
C24 N1 1_555 1_555
C25 C23 1_555 1_555
H17 C25 1_555 1_555
C26 C24 1_555 1_555
H18 C26 1_555 1_555
C27 C25 1_555 1_555
H19 C27 1_555 1_555
C28 C26 1_555 1_555
H20 C28 1_555 1_555
C29 C27 1_555 1_555
H21 C29 1_555 1_555
C30 C28 1_555 1_555
H22 C30 1_555 1_555
C31 N8 1_555 1_555
H23 C31 1_555 1_555
C32 N7 1_555 1_555
H24 C32 1_555 1_555
N9 C34 1_555 1_555
N10 Ag1 1_555 1_555
C33 N4 1_555 1_555
C34 N3 1_555 1_555
C35 C34 1_555 1_555
H25 C35 1_555 1_555
C36 C33 1_555 1_555
H26 C36 1_555 1_555
C37 C35 1_555 1_555
H27 C37 1_555 1_555
C38 C36 1_555 1_555
H28 C38 1_555 1_555
C39 C38 1_555 1_555
H29 C39 1_555 1_555
C40 C37 1_555 1_555
H30 C40 1_555 1_555
C41 N9 1_555 1_555
H31 C41 1_555 1_555
C42 N10 1_555 1_555
H32 C42 1_555 1_555
N11 Ag4 1_555 1_555
N12 C44 1_555 1_555
C43 N4 1_555 1_555
C44 N3 1_555 1_555
C45 C43 1_555 1_555
H33 C45 1_555 1_555
C46 C44 1_555 1_555
H34 C46 1_555 1_555
C47 C46 1_555 1_555
H35 C47 1_555 1_555
C48 C45 1_555 1_555
H36 C48 1_555 1_555
C49 C48 1_555 1_555
H37 C49 1_555 1_555
C50 C47 1_555 1_555
H38 C50 1_555 1_555
C51 N11 1_555 1_555
H39 C51 1_555 1_555
C52 N12 1_555 1_555
H40 C52 1_555 1_555
N13 O1 1_555 1_555
O2 Ag1 1_555 1_555
O3 N13 1_555 1_555
N14 O4 1_555 1_555
O4 Ag2 1_555 1_555
O5 Ag2 1_555 1_555
O6 N14 1_555 1_555
N15 O7 1_555 1_555
O7 Ag3 1_555 1_555
O8 Ag3 1_555 1_555
O9 N15 1_555 1_555
N16 O10 1_555 1_555
O11 Ag4 1_555 1_555
O12 N16 1_555 1_555
C53 H41 1_555 1_555
H42 C53 1_555 1_555
H43 C53 1_555 1_555
C54 C53 1_555 1_555
H44 C54 1_555 1_555
H45 C54 1_555 1_555
O13 C54 1_555 1_555
C55 O13 1_555 1_555
H46 C55 1_555 1_555
H47 C55 1_555 1_555
C56 C55 1_555 1_555
H48 C56 1_555 1_555
H49 C56 1_555 1_555
H50 C56 1_555 1_555
C57 H51 1_555 1_555
H52 C57 1_555 1_555
H53 C57 1_555 1_555
O14 C57 1_555 1_555
H54 O14 1_555 1_555
N17 C58 1_555 1_555
C58 C59 1_555 1_555
C59 H55 1_555 1_555
H56 C59 1_555 1_555
H57 C59 1_555 1_555
N19 C62 1_555 1_555
C62 C63 1_555 1_555
C63 H61 1_555 1_555
H62 C63 1_555 1_555
H63 C63 1_555 1_555
Ag2A N9 1_555 1_555
Ag3A N12 1_555 1_555
N9A Ag2 1_555 1_555
N12A Ag3 1_555 1_555
C9 C11 1_555 1_555
C10 C12 1_555 1_555
C19 C21 1_555 1_555
C20 C22 1_555 1_555
C29 C32 1_555 1_555
C30 C31 1_555 1_555
N10 C33 1_555 1_555
C39 C42 1_555 1_555
C40 C41 1_555 1_555
N11 C43 1_555 1_555
C49 C51 1_555 1_555
C50 C52 1_555 1_555
N13 O2 1_555 1_555
N14 O5 1_555 1_555
N15 O8 1_555 1_555
N16 O11 1_555 1_555

#END
