
#######################################################################
#
#                 Cambridge Crystallographic Data Centre
#                                CCDC 
#
#######################################################################
#
# If this CIF has been generated from an entry in the Cambridge 
# Structural Database, then it will include bibliographic, chemical, 
# crystal, experimental, refinement or atomic coordinate data resulting 
# from the CCDC's data processing and validation procedures.
#
#######################################################################

data_VICQAA
_symmetry_cell_setting           monoclinic
_symmetry_space_group_name_H-M   'C c'
_symmetry_Int_Tables_number      9
_space_group_name_Hall           'C -2yc'
loop_
_symmetry_equiv_pos_site_id
_symmetry_equiv_pos_as_xyz
1 x,y,z
2 x,-y,1/2+z
3 1/2+x,1/2+y,z
4 1/2+x,1/2-y,1/2+z
_cell_length_a                   17.656(2)
_cell_length_b                   21.334(3)
_cell_length_c                   23.747(3)
_cell_angle_alpha                90
_cell_angle_beta                 94.719(2)
_cell_angle_gamma                90
_cell_volume                     8914.53
loop_
_atom_site_label
_atom_site_type_symbol
_atom_site_fract_x
_atom_site_fract_y
_atom_site_fract_z
Ag1 Ag -0.11423(2) 0.37013(2) 0.75562(2)
Ag2 Ag 0.11070(3) 0.36669(2) 0.75361(2)
Ag3 Ag 0.11597(3) 0.20196(2) 0.52589(2)
Ag4 Ag -0.12011(3) 0.22383(2) 0.99102(2)
C1 C 0.1846(3) 0.2842(2) 0.6213(3)
C2 C -0.1893(4) 0.3025(3) 0.8937(3)
C3 C 0.1120(3) 0.3106(2) 0.6212(3)
H1 H 0.0983 0.3458 0.5980
C4 C -0.1171(3) 0.3273(3) 0.8924(3)
H2 H -0.1029 0.3642 0.9131
C5 C -0.0655(4) 0.2972(3) 0.8602(3)
C6 C 0.0596(4) 0.2845(2) 0.6558(3)
C7 C 0.0786(4) 0.2329(3) 0.6891(3)
H3 H 0.0425 0.2148 0.7118
C8 C -0.0863(4) 0.2433(2) 0.8293(3)
H4 H -0.0511 0.2236 0.8068
C9 C 0.1516(4) 0.2074(3) 0.6888(3)
H5 H 0.1650 0.1718 0.7116
C10 C -0.1585(4) 0.2189(3) 0.8318(3)
H6 H -0.1721 0.1813 0.8120
C11 C 0.2041(4) 0.2332(3) 0.6558(3)
H7 H 0.2539 0.2160 0.6567
C12 C -0.2115(4) 0.2486(3) 0.8628(3)
H8 H -0.2617 0.2326 0.8631
N1 N -0.2454(3) 0.3325(2) 0.9255(2)
N2 N 0.2401(3) 0.3117(2) 0.5881(2)
N3 N -0.0139(3) 0.3127(2) 0.6569(2)
N4 N 0.0092(3) 0.3238(2) 0.8566(2)
N5 N -0.1752(3) 0.3153(2) 1.0127(2)
N6 N 0.1679(3) 0.2942(3) 0.5026(2)
C13 C -0.2269(3) 0.3508(3) 0.9810(3)
C14 C 0.2203(3) 0.3292(3) 0.5312(3)
C15 C 0.2528(4) 0.3817(3) 0.5075(3)
H9 H 0.2903 0.4058 0.5287
C16 C -0.2590(3) 0.4037(3) 1.0037(3)
H10 H -0.2942 0.4285 0.9809
C17 C 0.2292(4) 0.3979(3) 0.4525(3)
H11 H 0.2517 0.4324 0.4349
C18 C -0.2399(4) 0.4202(3) 1.0591(3)
H12 H -0.2629 0.4555 1.0752
C19 C -0.1864(4) 0.3844(3) 1.0912(3)
H13 H -0.1717 0.3949 1.1294
C20 C 0.1728(5) 0.3637(3) 0.4236(3)
H14 H 0.1546 0.3750 0.3863
C21 C -0.1554(4) 0.3332(3) 1.0662(3)
H15 H -0.1180 0.3094 1.0878
C22 C 0.1435(4) 0.3135(3) 0.4494(3)
H16 H 0.1039 0.2905 0.4293
N7 N 0.3718(3) 0.3238(2) 0.5854(2)
N8 N -0.3779(3) 0.3425(2) 0.9283(3)
C23 C -0.3176(4) 0.3469(3) 0.8978(3)
C24 C 0.3112(4) 0.3298(3) 0.6152(3)
C25 C -0.3228(5) 0.3666(3) 0.8415(3)
H17 H -0.2791 0.3695 0.8208
C26 C 0.3159(4) 0.3533(3) 0.6698(3)
H18 H 0.2719 0.3554 0.6902
C27 C -0.3947(5) 0.3818(4) 0.8171(4)
H19 H -0.4008 0.3947 0.7786
C28 C 0.3853(5) 0.3735(4) 0.6939(4)
H20 H 0.3899 0.3901 0.7311
C29 C 0.4475(5) 0.3692(3) 0.6634(4)
H21 H 0.4958 0.3826 0.6795
C30 C -0.4564(5) 0.3783(4) 0.8477(4)
H22 H -0.5057 0.3899 0.8320
C31 C 0.4400(4) 0.3452(3) 0.6089(3)
H23 H 0.4832 0.3436 0.5876
C32 C -0.4444(4) 0.3576(4) 0.9018(4)
H24 H -0.4878 0.3535 0.9227
N9 N -0.1313(3) 0.2923(2) 0.6932(2)
N10 N 0.1256(3) 0.2966(2) 0.8224(2)
C33 C -0.0786(4) 0.2741(3) 0.6585(3)
C34 C 0.0725(4) 0.2834(3) 0.8568(3)
C35 C -0.0867(5) 0.2186(3) 0.6273(4)
H25 H -0.0481 0.2054 0.6044
C36 C 0.0781(4) 0.2311(3) 0.8933(3)
H26 H 0.0398 0.2227 0.9182
C37 C -0.1515(5) 0.1837(3) 0.6305(4)
H27 H -0.1584 0.1462 0.6091
C38 C 0.1399(5) 0.1931(4) 0.8919(4)
H28 H 0.1448 0.1572 0.9156
C39 C -0.2065(5) 0.2030(3) 0.6648(4)
H29 H -0.2514 0.1790 0.6676
C40 C 0.1948(4) 0.2065(3) 0.8564(4)
H30 H 0.2376 0.1799 0.8543
C41 C -0.1946(4) 0.2576(3) 0.6946(3)
H31 H -0.2330 0.2716 0.7175
C42 C 0.1863(4) 0.2595(3) 0.8238(3)
H32 H 0.2261 0.2703 0.8010
N11 N 0.0321(3) 0.4117(2) 0.6862(2)
N12 N -0.0345(3) 0.4199(2) 0.8183(2)
C43 C 0.0182(3) 0.3890(3) 0.8514(3)
C44 C -0.0219(3) 0.3781(3) 0.6563(3)
C45 C 0.0811(4) 0.4194(3) 0.8795(3)
H33 H 0.1185 0.3966 0.9021
C46 C -0.0827(4) 0.4063(3) 0.6260(3)
H34 H -0.1207 0.3817 0.6058
C47 C 0.0864(4) 0.4833(3) 0.8731(4)
H35 H 0.1289 0.5052 0.8905
C48 C -0.0873(4) 0.4708(3) 0.6258(4)
H36 H -0.1287 0.4910 0.6051
C49 C 0.0306(4) 0.5155(3) 0.8417(4)
H37 H 0.0328 0.5598 0.8387
C50 C -0.0326(4) 0.5060(3) 0.6551(4)
H38 H -0.0353 0.5504 0.6554
C51 C -0.0278(4) 0.4829(3) 0.8149(3)
H39 H -0.0659 0.5054 0.7927
C52 C 0.0274(4) 0.4744(3) 0.6847(3)
H40 H 0.0664 0.4982 0.7046
N13 N -0.2167(4) 0.4375(3) 0.7428(3)
C53 C -0.2557(4) 0.4774(4) 0.7274(4)
C54 C -0.3041(5) 0.5280(4) 0.7062(5)
H41 H -0.3180 0.5539 0.7378
H42 H -0.3502 0.5108 0.6861
H43 H -0.2770 0.5537 0.6802
N14 N 0.0092(4) 0.2760(3) 1.0263(4)
C55 C 0.0702(5) 0.2869(3) 1.0293(4)
C56 C 0.1520(5) 0.3015(5) 1.0312(5)
H44 H 0.1779 0.2694 1.0103
H45 H 0.1735 0.3021 1.0706
H46 H 0.1590 0.3426 1.0140
N15 N -0.0709(4) 0.1403(3) 0.9515(3)
C57 C -0.0388(4) 0.0965(3) 0.9419(3)
C58 C 0.0031(5) 0.0408(4) 0.9291(4)
H47 H -0.0300 0.0041 0.9304
H48 H 0.0469 0.0359 0.9569
H49 H 0.0210 0.0446 0.8912
N16 N 0.0655(4) 0.1203(3) 0.5656(3)
C59 C 0.0289(4) 0.0784(3) 0.5745(3)
C60 C -0.0176(5) 0.0245(4) 0.5843(4)
H50 H 0.0140 -0.0084 0.6029
H51 H -0.0576 0.0365 0.6085
H52 H -0.0409 0.0088 0.5481
N17 N -0.0132(4) 0.2550(4) 0.4986(4)
C61 C -0.0700(6) 0.2674(6) 0.4790(5)
C62 C -0.1444(8) 0.2783(7) 0.4508(9)
H53 H -0.1789 0.2446 0.4602
H54 H -0.1641 0.3186 0.4631
H55 H -0.1409 0.2792 0.4098
N18 N 0.2073(4) 0.4422(3) 0.7573(3)
C63 C 0.2331(4) 0.4881(4) 0.7737(4)
C64 C 0.2671(6) 0.5464(4) 0.7932(5)
H56 H 0.2608 0.5777 0.7629
H57 H 0.2423 0.5613 0.8261
H58 H 0.3214 0.5400 0.8038
Ag3C Ag -0.38403(3) 0.29804(2) 1.02589(2)
Ag4C Ag 0.37989(3) 0.27617(2) 0.49102(2)
N7C N -0.1282(3) 0.1762(2) 1.0854(2)
N8C N 0.1221(3) 0.1575(2) 0.4283(3)
P1 P 0.17584(11) -0.10726(9) 0.56327(10)
F1 F 0.2393(3) -0.0708(3) 0.5996(3)
F2 F 0.1099(4) -0.1414(3) 0.5255(3)
F3 F 0.1515(7) -0.0466(4) 0.5322(7)
F4 F 0.1969(10) -0.1637(4) 0.5947(6)
F5 F 0.1214(7) -0.0884(9) 0.6049(7)
F6 F 0.2241(6) -0.1159(10) 0.5184(5)
P2 P 0.30633(13) 0.58154(10) 0.45548(11)
F7 F 0.3434(3) 0.5180(2) 0.4824(3)
F8 F 0.2643(3) 0.6418(3) 0.4305(3)
F9 F 0.2250(3) 0.5585(3) 0.4767(3)
F10 F 0.2783(5) 0.5421(3) 0.4022(3)
F11 F 0.3232(7) 0.6168(4) 0.5113(4)
F12 F 0.3815(4) 0.6013(4) 0.4344(7)
P3 P -0.01764(12) -0.05208(10) 0.25349(11)
F13 F -0.0561(5) -0.1087(4) 0.2787(5)
F14 F -0.0899(3) -0.0428(3) 0.2100(2)
F15 F 0.0549(4) -0.0564(5) 0.2960(3)
F16 F 0.0180(4) 0.0081(2) 0.2265(3)
F17 F 0.0228(4) -0.0922(3) 0.2088(3)
F18 F -0.0557(4) -0.0061(4) 0.2954(3)
P4 P 0.39084(13) -0.16309(11) 0.26428(10)
F19 F 0.3952(3) -0.1911(3) 0.2027(3)
F20 F 0.3844(4) -0.1319(3) 0.3240(3)
F21 F 0.3533(7) -0.1026(6) 0.2386(4)
F22 F 0.4655(5) -0.1293(5) 0.2580(5)
F23 F 0.4400(10) -0.2164(5) 0.2856(4)
F24 F 0.3146(8) -0.1885(10) 0.2657(6)
N19 N -0.3442(6) 0.1793(5) 0.7772(4)
C65 C -0.3795(5) 0.2017(5) 0.7397(6)
C66 C -0.4234(7) 0.2309(6) 0.6951(5)
H59 H -0.4614 0.2581 0.7105
H60 H -0.4490 0.1990 0.6708
H61 H -0.3902 0.2562 0.6729
N20 N -0.3497(7) -0.0903(5) 1.1415(6)
C67 C -0.3102(9) -0.0496(5) 1.1293(5)
C68 C -0.2612(13) -0.0019(6) 1.1156(8)
H62 H -0.2218 -0.0192 1.0933
H63 H -0.2373 0.0169 1.1503
H64 H -0.2899 0.0303 1.0935
O1 O -0.0984(9) 0.4814(7) 0.9494(7)
C69 C -0.2084(10) 0.5101(8) 0.8904(8)
H65 H -0.2497 0.5409 0.8889
H66 H -0.2281 0.4689 0.9005
H67 H -0.1879 0.5075 0.8534
C70 C -0.1515(13) 0.5281(11) 0.9306(11)
H68 H -0.1757 0.5443 0.9639
H69 H -0.1233 0.5633 0.9150
C71 C -0.0396(13) 0.4984(12) 0.9879(10)
H70 H -0.0603 0.5217 1.0193
H71 H -0.0049 0.5269 0.9694
C72 C 0.0017(11) 0.4467(8) 1.0099(8)
H72 H 0.0421 0.4610 1.0377
H73 H 0.0244 0.4246 0.9792
H74 H -0.0323 0.4182 1.0281
loop_
_geom_bond_atom_site_label_1
_geom_bond_atom_site_label_2
_geom_bond_site_symmetry_1
_geom_bond_site_symmetry_2
Ag1 N9 1_555 1_555
Ag2 N10 1_555 1_555
Ag3 N6 1_555 1_555
Ag4 N5 1_555 1_555
C1 C3 1_555 1_555
C2 C4 1_555 1_555
C3 H1 1_555 1_555
C4 H2 1_555 1_555
C5 C4 1_555 1_555
C6 C3 1_555 1_555
C7 C6 1_555 1_555
H3 C7 1_555 1_555
C8 C5 1_555 1_555
H4 C8 1_555 1_555
C9 C7 1_555 1_555
H5 C9 1_555 1_555
C10 C8 1_555 1_555
H6 C10 1_555 1_555
C11 C1 1_555 1_555
H7 C11 1_555 1_555
C12 C2 1_555 1_555
H8 C12 1_555 1_555
N1 C2 1_555 1_555
N2 C1 1_555 1_555
N3 C6 1_555 1_555
N4 C5 1_555 1_555
N5 C13 1_555 1_555
N6 C14 1_555 1_555
C13 N1 1_555 1_555
C14 N2 1_555 1_555
C15 C14 1_555 1_555
H9 C15 1_555 1_555
C16 C13 1_555 1_555
H10 C16 1_555 1_555
C17 C15 1_555 1_555
H11 C17 1_555 1_555
C18 C16 1_555 1_555
H12 C18 1_555 1_555
C19 C18 1_555 1_555
H13 C19 1_555 1_555
C20 C17 1_555 1_555
H14 C20 1_555 1_555
C21 N5 1_555 1_555
H15 C21 1_555 1_555
C22 N6 1_555 1_555
H16 C22 1_555 1_555
N7 C24 1_555 1_555
N8 C23 1_555 1_555
C23 N1 1_555 1_555
C24 N2 1_555 1_555
C25 C23 1_555 1_555
H17 C25 1_555 1_555
C26 C24 1_555 1_555
H18 C26 1_555 1_555
C27 C25 1_555 1_555
H19 C27 1_555 1_555
C28 C26 1_555 1_555
H20 C28 1_555 1_555
C29 C28 1_555 1_555
H21 C29 1_555 1_555
C30 C27 1_555 1_555
H22 C30 1_555 1_555
C31 N7 1_555 1_555
H23 C31 1_555 1_555
C32 N8 1_555 1_555
H24 C32 1_555 1_555
N9 C33 1_555 1_555
N10 C34 1_555 1_555
C33 N3 1_555 1_555
C34 N4 1_555 1_555
C35 C33 1_555 1_555
H25 C35 1_555 1_555
C36 C34 1_555 1_555
H26 C36 1_555 1_555
C37 C35 1_555 1_555
H27 C37 1_555 1_555
C38 C36 1_555 1_555
H28 C38 1_555 1_555
C39 C37 1_555 1_555
H29 C39 1_555 1_555
C40 C38 1_555 1_555
H30 C40 1_555 1_555
C41 N9 1_555 1_555
H31 C41 1_555 1_555
C42 N10 1_555 1_555
H32 C42 1_555 1_555
N11 Ag2 1_555 1_555
N12 Ag1 1_555 1_555
C43 N4 1_555 1_555
C44 N3 1_555 1_555
C45 C43 1_555 1_555
H33 C45 1_555 1_555
C46 C44 1_555 1_555
H34 C46 1_555 1_555
C47 C45 1_555 1_555
H35 C47 1_555 1_555
C48 C46 1_555 1_555
H36 C48 1_555 1_555
C49 C47 1_555 1_555
H37 C49 1_555 1_555
C50 C48 1_555 1_555
H38 C50 1_555 1_555
C51 N12 1_555 1_555
H39 C51 1_555 1_555
C52 N11 1_555 1_555
H40 C52 1_555 1_555
N13 Ag1 1_555 1_555
C53 N13 1_555 1_555
C54 C53 1_555 1_555
H41 C54 1_555 1_555
H42 C54 1_555 1_555
H43 C54 1_555 1_555
N14 Ag4 1_555 1_555
C55 N14 1_555 1_555
C56 C55 1_555 1_555
H44 C56 1_555 1_555
H45 C56 1_555 1_555
H46 C56 1_555 1_555
N15 Ag4 1_555 1_555
C57 N15 1_555 1_555
C58 C57 1_555 1_555
H47 C58 1_555 1_555
H48 C58 1_555 1_555
H49 C58 1_555 1_555
N16 Ag3 1_555 1_555
C59 N16 1_555 1_555
C60 C59 1_555 1_555
H50 C60 1_555 1_555
H51 C60 1_555 1_555
H52 C60 1_555 1_555
N17 Ag3 1_555 1_555
C61 N17 1_555 1_555
C62 C61 1_555 1_555
H53 C62 1_555 1_555
H54 C62 1_555 1_555
H55 C62 1_555 1_555
N18 Ag2 1_555 1_555
C63 N18 1_555 1_555
C64 C63 1_555 1_555
H56 C64 1_555 1_555
H57 C64 1_555 1_555
H58 C64 1_555 1_555
P1 F1 1_555 1_555
F2 P1 1_555 1_555
F3 P1 1_555 1_555
F4 P1 1_555 1_555
F5 P1 1_555 1_555
F6 P1 1_555 1_555
P2 F7 1_555 1_555
F8 P2 1_555 1_555
F9 P2 1_555 1_555
F10 P2 1_555 1_555
F11 P2 1_555 1_555
F12 P2 1_555 1_555
P3 F13 1_555 1_555
F14 P3 1_555 1_555
F15 P3 1_555 1_555
F16 P3 1_555 1_555
F17 P3 1_555 1_555
F18 P3 1_555 1_555
P4 F19 1_555 1_555
F20 P4 1_555 1_555
F21 P4 1_555 1_555
F22 P4 1_555 1_555
F23 P4 1_555 1_555
F24 P4 1_555 1_555
N19 C65 1_555 1_555
C65 C66 1_555 1_555
C66 H59 1_555 1_555
H60 C66 1_555 1_555
H61 C66 1_555 1_555
N20 C67 1_555 1_555
C67 C68 1_555 1_555
C68 H62 1_555 1_555
H63 C68 1_555 1_555
H64 C68 1_555 1_555
O1 C70 1_555 1_555
C69 H65 1_555 1_555
H66 C69 1_555 1_555
H67 C69 1_555 1_555
C70 C69 1_555 1_555
H68 C70 1_555 1_555
H69 C70 1_555 1_555
C71 O1 1_555 1_555
H70 C71 1_555 1_555
H71 C71 1_555 1_555
C72 C71 1_555 1_555
H72 C72 1_555 1_555
H73 C72 1_555 1_555
H74 C72 1_555 1_555
Ag3C N8 1_555 1_555
Ag4C N7 1_555 1_555
N7C Ag4 1_555 1_555
N8C Ag3 1_555 1_555
C9 C11 1_555 1_555
C10 C12 1_555 1_555
C19 C21 1_555 1_555
C20 C22 1_555 1_555
C29 C31 1_555 1_555
C30 C32 1_555 1_555
C39 C41 1_555 1_555
C40 C42 1_555 1_555
N11 C44 1_555 1_555
N12 C43 1_555 1_555
C49 C51 1_555 1_555
C50 C52 1_555 1_555

#END
