
#######################################################################
#
#                 Cambridge Crystallographic Data Centre
#                                CCDC 
#
#######################################################################
#
# If this CIF has been generated from an entry in the Cambridge 
# Structural Database, then it will include bibliographic, chemical, 
# crystal, experimental, refinement or atomic coordinate data resulting 
# from the CCDC's data processing and validation procedures.
#
#######################################################################

data_VICRIK
_symmetry_cell_setting           monoclinic
_symmetry_space_group_name_H-M   'P 21/c'
_symmetry_Int_Tables_number      14
_space_group_name_Hall           '-P 2ybc'
loop_
_symmetry_equiv_pos_site_id
_symmetry_equiv_pos_as_xyz
1 x,y,z
2 -x,1/2+y,1/2-z
3 -x,-y,-z
4 x,1/2-y,1/2+z
_cell_length_a                   10.0985(10)
_cell_length_b                   37.415(4)
_cell_length_c                   10.9657(10)
_cell_angle_alpha                90
_cell_angle_beta                 113.4810(10)
_cell_angle_gamma                90
_cell_volume                     3800.14
loop_
_atom_site_label
_atom_site_type_symbol
_atom_site_fract_x
_atom_site_fract_y
_atom_site_fract_z
C1 C 0.6426(5) 0.96129(13) 0.7364(5)
C2 C 0.7662(6) 0.94936(15) 0.7201(6)
H1 H 0.8046 0.9270 0.7524
C3 C 0.8314(7) 0.97048(18) 0.6564(6)
H2 H 0.9107 0.9616 0.6432
C4 C 0.7819(7) 1.00437(18) 0.6121(6)
H3 H 0.8280 1.0182 0.5703
C5 C 0.6648(7) 1.01742(16) 0.6299(5)
H4 H 0.6316 1.0403 0.6004
C6 C 0.5935(6) 0.99670(14) 0.6923(5)
C7 C 0.4707(6) 1.01142(14) 0.7065(5)
H5 H 0.4436 1.0346 0.6762
C8 C 0.2681(6) 1.00948(15) 0.7747(6)
H6 H 0.1811 0.9986 0.7104
H7 H 0.2628 1.0350 0.7586
C9 C 0.2780(6) 1.00230(15) 0.9134(6)
H8 H 0.3647 1.0135 0.9767
H9 H 0.2871 0.9767 0.9296
C10 C 0.1490(6) 1.01584(15) 0.9376(6)
H10 H 0.0611 1.0059 0.8714
H11 H 0.1566 1.0081 1.0245
C11 C 0.0376(6) 1.07277(17) 0.8436(6)
H12 H -0.0425 1.0600 0.7875
C12 C 0.0354(6) 1.11013(17) 0.8269(5)
C13 C -0.0862(7) 1.1258(2) 0.7255(6)
H13 H -0.1646 1.1115 0.6761
C14 C -0.0908(7) 1.1612(2) 0.6987(6)
H14 H -0.1714 1.1712 0.6319
C15 C 0.0273(8) 1.1823(2) 0.7731(7)
H15 H 0.0253 1.2066 0.7545
C16 C 0.1464(6) 1.16815(17) 0.8731(6)
H16 H 0.2238 1.1831 0.9200
C17 C 0.1547(5) 1.13170(15) 0.9066(5)
C18 C 0.5445(5) 0.78560(13) 0.8815(5)
C19 C 0.6342(7) 0.77722(16) 0.8147(6)
H17 H 0.6730 0.7956 0.7820
C20 C 0.6649(9) 0.74240(19) 0.7971(8)
H18 H 0.7259 0.7374 0.7542
C21 C 0.6058(9) 0.71441(19) 0.8426(8)
H19 H 0.6262 0.6909 0.8291
C22 C 0.5195(8) 0.72149(17) 0.9059(7)
H20 H 0.4824 0.7027 0.9380
C23 C 0.4836(6) 0.75691(14) 0.9250(6)
C24 C 0.3840(7) 0.76251(16) 0.9845(6)
H21 H 0.3479 0.7424 1.0109
C25 C 0.2277(7) 0.7980(2) 1.0584(7)
H22 H 0.2562 0.8169 1.1241
H23 H 0.2183 0.7761 1.1017
C26 C 0.0786(7) 0.8075(2) 0.9437(8)
H24 H 0.0673 0.7941 0.8645
H25 H 0.0011 0.8008 0.9700
C27 C 0.0689(6) 0.84608(19) 0.9135(6)
H26 H 0.0761 0.8595 0.9916
H27 H 0.1490 0.8530 0.8910
C28 C -0.0785(6) 0.86124(17) 0.6815(6)
H28 H 0.0060 0.8608 0.6668
C29 C -0.2079(5) 0.86865(14) 0.5725(5)
C30 C -0.2011(7) 0.87553(15) 0.4480(6)
H29 H -0.1124 0.8749 0.4410
C31 C -0.3227(7) 0.88309(16) 0.3384(6)
H30 H -0.3182 0.8878 0.2569
C32 C -0.4542(7) 0.88363(17) 0.3520(6)
H31 H -0.5380 0.8885 0.2775
C33 C -0.4651(6) 0.87735(15) 0.4702(5)
H32 H -0.5553 0.8778 0.4742
C34 C -0.3420(5) 0.87023(12) 0.5860(5)
La1 La 0.49386(3) 0.879383(7) 0.81365(3)
N1 N 0.3945(5) 0.99478(11) 0.7587(4)
H33 H 0.4169 0.9736 0.7880
N2 N 0.1421(5) 1.05480(13) 0.9306(5)
H34 H 0.2129 1.0681 0.9758
N3 N 0.3396(5) 0.79331(13) 1.0049(5)
H35 H 0.3777 0.8113 0.9842
N4 N -0.0683(5) 0.85490(14) 0.8019(5)
H36 H -0.1519 0.8525 0.8028
N5 N 0.2188(5) 0.92096(10) 0.6253(4)
N6 N 0.2660(5) 0.82194(11) 0.6428(4)
N7 N 0.3984(5) 0.90918(13) 1.0309(4)
O1 O 0.5786(4) 0.94145(9) 0.7947(4)
O2 O 0.2647(4) 1.11815(9) 1.0045(3)
O3 O 0.5176(4) 0.81858(9) 0.9010(3)
O4 O -0.3479(4) 0.86551(9) 0.7010(3)
O5 O 0.3062(4) 0.90791(10) 0.5812(4)
O6 O 0.1034(4) 0.93372(11) 0.5492(4)
O7 O 0.2549(4) 0.92061(9) 0.7490(3)
O8 O 0.3723(4) 0.82805(10) 0.6148(4)
O9 O 0.1883(5) 0.79610(11) 0.5980(5)
O10 O 0.2427(4) 0.84379(9) 0.7192(4)
O11 O 0.4860(4) 0.92744(10) 1.0020(4)
O12 O 0.3256(5) 0.92213(12) 1.0862(4)
O13 O 0.3884(4) 0.87657(10) 0.9985(4)
La1_2 La -0.50614(3) 0.879383(7) 0.81365(3)
La1B La 0.50614(3) 1.120617(7) 1.18635(3)
O2B O 0.7353(4) 0.88185(9) 0.9955(3)
O4_2 O 0.6521(4) 0.86551(9) 0.7010(3)
O14 O 1.031(3) 0.7657(11) 0.696(3)
H37 H 1.0936 0.7600 0.6695
C35 C 0.891(3) 0.7712(8) 0.580(3)
H38 H 0.8232 0.7823 0.6092
H39 H 0.8536 0.7485 0.5400
H40 H 0.9060 0.7862 0.5156
loop_
_geom_bond_atom_site_label_1
_geom_bond_atom_site_label_2
_geom_bond_site_symmetry_1
_geom_bond_site_symmetry_2
C1 C2 1_555 1_555
C2 H1 1_555 1_555
C3 C2 1_555 1_555
H2 C3 1_555 1_555
C4 C3 1_555 1_555
H3 C4 1_555 1_555
C5 C4 1_555 1_555
H4 C5 1_555 1_555
C6 C1 1_555 1_555
C7 C6 1_555 1_555
H5 C7 1_555 1_555
C8 H6 1_555 1_555
H7 C8 1_555 1_555
C9 C8 1_555 1_555
H8 C9 1_555 1_555
H9 C9 1_555 1_555
C10 C9 1_555 1_555
H10 C10 1_555 1_555
H11 C10 1_555 1_555
C11 H12 1_555 1_555
C12 C11 1_555 1_555
C13 C12 1_555 1_555
H13 C13 1_555 1_555
C14 C13 1_555 1_555
H14 C14 1_555 1_555
C15 C14 1_555 1_555
H15 C15 1_555 1_555
C16 C15 1_555 1_555
H16 C16 1_555 1_555
C17 C12 1_555 1_555
C18 C19 1_555 1_555
C19 H17 1_555 1_555
C20 C19 1_555 1_555
H18 C20 1_555 1_555
C21 C20 1_555 1_555
H19 C21 1_555 1_555
C22 C21 1_555 1_555
H20 C22 1_555 1_555
C23 C18 1_555 1_555
C24 C23 1_555 1_555
H21 C24 1_555 1_555
C25 H22 1_555 1_555
H23 C25 1_555 1_555
C26 C25 1_555 1_555
H24 C26 1_555 1_555
H25 C26 1_555 1_555
C27 C26 1_555 1_555
H26 C27 1_555 1_555
H27 C27 1_555 1_555
C28 H28 1_555 1_555
C29 C28 1_555 1_555
C30 C29 1_555 1_555
H29 C30 1_555 1_555
C31 C30 1_555 1_555
H30 C31 1_555 1_555
C32 C31 1_555 1_555
H31 C32 1_555 1_555
C33 C32 1_555 1_555
H32 C33 1_555 1_555
C34 C29 1_555 1_555
La1 O1 1_555 1_555
N1 C7 1_555 1_555
H33 N1 1_555 1_555
N2 C10 1_555 1_555
H34 N2 1_555 1_555
N3 C24 1_555 1_555
H35 N3 1_555 1_555
N4 C27 1_555 1_555
H36 N4 1_555 1_555
N5 O5 1_555 1_555
N6 O8 1_555 1_555
N7 O11 1_555 1_555
O1 C1 1_555 1_555
O2 C17 1_555 1_555
O3 C18 1_555 1_555
O4 C34 1_555 1_555
O5 La1 1_555 1_555
O6 N5 1_555 1_555
O7 La1 1_555 1_555
O8 La1 1_555 1_555
O9 N6 1_555 1_555
O10 La1 1_555 1_555
O11 La1 1_555 1_555
O12 N7 1_555 1_555
O13 La1 1_555 1_555
O14 H37 1_555 1_555
C35 O14 1_555 1_555
H38 C35 1_555 1_555
H39 C35 1_555 1_555
H40 C35 1_555 1_555
La1_2 O4 1_555 1_555
La1B O2 1_555 1_555
O2B La1 1_555 1_555
O4_2 La1 1_555 1_555
C5 C6 1_555 1_555
C8 N1 1_555 1_555
C11 N2 1_555 1_555
C16 C17 1_555 1_555
C22 C23 1_555 1_555
C25 N3 1_555 1_555
C28 N4 1_555 1_555
C33 C34 1_555 1_555
La1 O3 1_555 1_555
N5 O7 1_555 1_555
N6 O10 1_555 1_555
N7 O13 1_555 1_555

#END
