
#######################################################################
#
#                 Cambridge Crystallographic Data Centre
#                                CCDC 
#
#######################################################################
#
# If this CIF has been generated from an entry in the Cambridge 
# Structural Database, then it will include bibliographic, chemical, 
# crystal, experimental, refinement or atomic coordinate data resulting 
# from the CCDC's data processing and validation procedures.
#
#######################################################################

data_VICREF
_symmetry_cell_setting           tetragonal
_symmetry_space_group_name_H-M   'P 4/n c c'
_symmetry_Int_Tables_number      130
_space_group_name_Hall           '-P 4a 2ac'
loop_
_symmetry_equiv_pos_site_id
_symmetry_equiv_pos_as_xyz
1 x,y,z
2 1/2-y,x,z
3 y,1/2-x,z
4 1/2+y,1/2+x,1/2-z
5 1/2-x,1/2-y,z
6 -x,1/2+y,1/2-z
7 1/2+x,-y,1/2-z
8 -y,-x,1/2-z
9 -x,-y,-z
10 1/2+y,-x,-z
11 -y,1/2+x,-z
12 1/2-y,1/2-x,1/2+z
13 1/2+x,1/2+y,-z
14 x,1/2-y,1/2+z
15 1/2-x,y,1/2+z
16 y,x,1/2+z
_cell_length_a                   18.5157(6)
_cell_length_b                   18.5157(6)
_cell_length_c                   18.7076(10)
_cell_angle_alpha                90
_cell_angle_beta                 90
_cell_angle_gamma                90
_cell_volume                     6413.55
loop_
_atom_site_label
_atom_site_type_symbol
_atom_site_fract_x
_atom_site_fract_y
_atom_site_fract_z
Cl2 Cl 0.2812(8) -0.1737(6) -0.0553(5)
C14 C 0.2500 -0.2500 0.0000
Cl2J Cl 0.1737(6) -0.2188(8) 0.0553(5)
Cl2I Cl 0.3263(6) -0.2812(8) 0.0553(5)
Cl2D Cl 0.2188(8) -0.3263(6) -0.0553(5)
O1 O 0.2500 0.2500 0.2073(19)
O2 O 0.2500 0.2500 -0.104(4)
Fe1 Fe 0.5000 0.0000 0.0000
Cl1 Cl 0.68883(14) 0.18883(14) 0.2500
N1 N 0.4728(4) 0.0741(4) 0.1509(4)
S1 S 0.6838(4) -0.0583(7) 0.1732(3)
N2 N 0.5741(4) 0.1282(4) 0.1978(4)
N3 N 0.5231(4) 0.0231(4) 0.2500
C1 C 0.5244(5) 0.0753(5) 0.2023(5)
N4 N 0.4243(4) -0.0250(5) 0.0898(4)
C2 C 0.4219(5) 0.0151(5) 0.1484(5)
N5 N 0.4753(5) 0.1132(5) 0.0311(4)
C3 C 0.4627(5) 0.1301(5) 0.0998(5)
C4 C 0.3725(5) 0.0048(5) 0.2025(5)
H1 H 0.3723 0.0348 0.2424
C5 C 0.4599(7) 0.1643(6) -0.0177(7)
H2 H 0.4680 0.1538 -0.0656
C6 C 0.4368(6) 0.1958(6) 0.1224(6)
H3 H 0.4300 0.2053 0.1708
C7 C 0.3752(6) -0.0785(6) 0.0842(6)
H4 H 0.3753 -0.1067 0.0431
C8 C 0.3252(6) -0.0933(6) 0.1363(6)
H5 H 0.2929 -0.1314 0.1309
C9 C 0.3236(5) -0.0507(6) 0.1964(6)
H6 H 0.2900 -0.0593 0.2323
N6 N 0.5867(5) -0.0082(6) 0.0705(5)
C10 C 0.4209(7) 0.2482(6) 0.0708(7)
H7 H 0.4028 0.2931 0.0840
C11 C 0.6226(5) 0.1226(5) 0.2500
C12 C 0.4328(7) 0.2315(7) -0.0003(8)
H8 H 0.4227 0.2651 -0.0359
C13 C 0.6280(9) -0.0278(12) 0.1138(8)
Fe1C Fe 0.5000 0.0000 0.5000
Fe1C_2 Fe 0.5000 0.0000 -0.5000
Cl1H Cl 0.31117(14) -0.18883(14) -0.2500
N1C N 0.5741(4) -0.0272(4) 0.3491(4)
N1H N 0.5272(4) -0.0741(4) -0.1509(4)
N1K N 0.4259(4) 0.0272(4) -0.3491(4)
S1H S 0.3162(4) 0.0583(7) -0.1732(3)
S1C S 0.4417(7) 0.1838(4) 0.3268(3)
S1K S 0.5583(7) -0.1838(4) 0.6732(3)
N2C N 0.6282(4) 0.0741(4) 0.3022(4)
N2H N 0.4259(4) -0.1282(4) -0.1978(4)
N2K N 0.3718(4) -0.0741(4) -0.3022(4)
N3H N 0.4769(4) -0.0231(4) -0.2500
C1C C 0.5753(5) 0.0244(5) 0.2977(5)
C1H C 0.4756(5) -0.0753(5) -0.2023(5)
C1K C 0.4247(5) -0.0244(5) -0.2977(5)
N4C N 0.4750(5) -0.0757(4) 0.4102(4)
N4H N 0.5757(4) 0.0250(5) -0.0898(4)
N4K N 0.5250(5) 0.0757(4) -0.4102(4)
N4K_2 N 0.5250(5) 0.0757(4) 0.5898(4)
C2C C 0.5151(5) -0.0781(5) 0.3516(5)
C2H C 0.5781(5) -0.0151(5) -0.1484(5)
C2K C 0.4849(5) 0.0781(5) -0.3516(5)
N5C N 0.6132(5) -0.0247(5) 0.4689(4)
N5H N 0.5247(5) -0.1132(5) -0.0311(4)
N5K N 0.3868(5) 0.0247(5) -0.4689(4)
N5K_2 N 0.3868(5) 0.0247(5) 0.5311(4)
C3C C 0.6301(5) -0.0373(5) 0.4002(5)
C3H C 0.5373(5) -0.1301(5) -0.0998(5)
C3K C 0.3699(5) 0.0373(5) -0.4002(5)
C4C C 0.5048(5) -0.1275(5) 0.2975(5)
C4H C 0.6275(5) -0.0048(5) -0.2025(5)
C4K C 0.4952(5) 0.1275(5) -0.2975(5)
H1C H 0.5348 -0.1277 0.2576
H1H H 0.6277 -0.0348 -0.2424
H1K H 0.4652 0.1277 -0.2576
C5C C 0.6643(6) -0.0401(7) 0.5177(7)
C5H C 0.5401(7) -0.1643(6) 0.0177(7)
C5K C 0.3357(6) 0.0401(7) -0.5177(7)
H2C H 0.6538 -0.0320 0.5656
H2H H 0.5320 -0.1538 0.0656
H2K H 0.3462 0.0320 -0.5656
C6C C 0.6958(6) -0.0632(6) 0.3776(6)
C6H C 0.5632(6) -0.1958(6) -0.1224(6)
C6K C 0.3042(6) 0.0632(6) -0.3776(6)
H3C H 0.7053 -0.0700 0.3292
H3H H 0.5700 -0.2053 -0.1708
H3K H 0.2947 0.0700 -0.3292
C7C C 0.4215(6) -0.1248(6) 0.4158(6)
C7H C 0.6248(6) 0.0785(6) -0.0842(6)
C7K C 0.5785(6) 0.1248(6) -0.4158(6)
H4C H 0.3933 -0.1247 0.4569
H4H H 0.6247 0.1067 -0.0431
H4K H 0.6067 0.1247 -0.4569
C8C C 0.4067(6) -0.1748(6) 0.3637(6)
C8H C 0.6748(6) 0.0933(6) -0.1363(6)
C8K C 0.5933(6) 0.1748(6) -0.3637(6)
H5C H 0.3686 -0.2071 0.3691
H5H H 0.7071 0.1314 -0.1309
H5K H 0.6314 0.2071 -0.3691
C9C C 0.4493(6) -0.1764(5) 0.3036(6)
C9H C 0.6764(5) 0.0507(6) -0.1964(6)
C9K C 0.5507(6) 0.1764(5) -0.3036(6)
H6C H 0.4407 -0.2100 0.2677
H6H H 0.7100 0.0593 -0.2323
H6K H 0.5593 0.2100 -0.2677
N6H N 0.4133(5) 0.0082(6) -0.0705(5)
N6C N 0.4918(6) 0.0867(5) 0.4295(5)
N6K N 0.5082(6) -0.0867(5) 0.5705(5)
C10C C 0.7482(6) -0.0791(7) 0.4292(7)
C10H C 0.5791(7) -0.2482(6) -0.0708(7)
C10K C 0.2518(6) 0.0791(7) -0.4292(7)
H7C H 0.7931 -0.0972 0.4160
H7H H 0.5972 -0.2931 -0.0840
H7K H 0.2069 0.0972 -0.4160
C11H C 0.3774(5) -0.1226(5) -0.2500
C12C C 0.7315(7) -0.0672(7) 0.5003(8)
C12H C 0.5672(7) -0.2315(7) 0.0003(8)
C12K C 0.2685(7) 0.0672(7) -0.5003(8)
H8C H 0.7651 -0.0773 0.5359
H8H H 0.5773 -0.2651 0.0359
H8K H 0.2349 0.0773 -0.5359
C13H C 0.3720(9) 0.0278(12) -0.1138(8)
C13C C 0.4722(12) 0.1280(9) 0.3862(8)
C13K C 0.5278(12) -0.1280(9) 0.6138(8)
loop_
_geom_bond_atom_site_label_1
_geom_bond_atom_site_label_2
_geom_bond_site_symmetry_1
_geom_bond_site_symmetry_2
Fe1 N4 1_555 1_555
Cl1 C11 1_555 1_555
N1 C1 1_555 1_555
S1 C13 1_555 1_555
N2 C1 1_555 1_555
N3 C1 1_555 1_555
N4 C2 1_555 1_555
C2 N1 1_555 1_555
N5 Fe1 1_555 1_555
C3 N1 1_555 1_555
C4 C2 1_555 1_555
H1 C4 1_555 1_555
C5 N5 1_555 1_555
H2 C5 1_555 1_555
C6 C3 1_555 1_555
H3 C6 1_555 1_555
C7 N4 1_555 1_555
H4 C7 1_555 1_555
C8 C7 1_555 1_555
H5 C8 1_555 1_555
C9 C4 1_555 1_555
H6 C9 1_555 1_555
N6 Fe1 1_555 1_555
C10 C6 1_555 1_555
H7 C10 1_555 1_555
C11 N2 1_555 1_555
C12 C5 1_555 1_555
H8 C12 1_555 1_555
C13 N6 1_555 1_555
Cl2 C14 1_555 1_555
C14 Cl2J 1_555 1_555
Fe1C N4C 1_555 1_555
Fe1C_2 N4K 1_555 1_555
Cl1H C11H 1_555 1_555
N1C C1C 1_555 1_555
N1H C1H 1_555 1_555
N1K C1K 1_555 1_555
S1H C13H 1_555 1_555
S1C C13C 1_555 1_555
S1K C13K 1_555 1_555
N2C C11 1_555 1_555
N2H C1H 1_555 1_555
N2K C1K 1_555 1_555
N3H C1H 1_555 1_555
C1C N3 1_555 1_555
C1K N3H 1_555 1_555
N4C C2C 1_555 1_555
N4H Fe1 1_555 1_555
N4K C2K 1_555 1_555
N4K_2 Fe1C 1_555 1_555
C2C N1C 1_555 1_555
C2H N1H 1_555 1_555
C2K N1K 1_555 1_555
N5C Fe1C 1_555 1_555
N5H Fe1 1_555 1_555
N5K Fe1C_2 1_555 1_555
N5K_2 Fe1C 1_555 1_555
C3C N1C 1_555 1_555
C3H N1H 1_555 1_555
C3K N1K 1_555 1_555
C4C C2C 1_555 1_555
C4H C2H 1_555 1_555
C4K C2K 1_555 1_555
H1C C4C 1_555 1_555
H1H C4H 1_555 1_555
H1K C4K 1_555 1_555
C5C N5C 1_555 1_555
C5H N5H 1_555 1_555
C5K N5K 1_555 1_555
H2C C5C 1_555 1_555
H2H C5H 1_555 1_555
H2K C5K 1_555 1_555
C6C C3C 1_555 1_555
C6H C3H 1_555 1_555
C6K C3K 1_555 1_555
H3C C6C 1_555 1_555
H3H C6H 1_555 1_555
H3K C6K 1_555 1_555
C7C N4C 1_555 1_555
C7H N4H 1_555 1_555
C7K N4K 1_555 1_555
H4C C7C 1_555 1_555
H4H C7H 1_555 1_555
H4K C7K 1_555 1_555
C8C C7C 1_555 1_555
C8H C7H 1_555 1_555
C8K C7K 1_555 1_555
H5C C8C 1_555 1_555
H5H C8H 1_555 1_555
H5K C8K 1_555 1_555
C9C C4C 1_555 1_555
C9H C4H 1_555 1_555
C9K C4K 1_555 1_555
H6C C9C 1_555 1_555
H6H C9H 1_555 1_555
H6K C9K 1_555 1_555
N6H Fe1 1_555 1_555
N6C Fe1C 1_555 1_555
N6K Fe1C 1_555 1_555
C10C C6C 1_555 1_555
C10H C6H 1_555 1_555
C10K C6K 1_555 1_555
H7C C10C 1_555 1_555
H7H C10H 1_555 1_555
H7K C10K 1_555 1_555
C11H N2H 1_555 1_555
C12C C5C 1_555 1_555
C12H C5H 1_555 1_555
C12K C5K 1_555 1_555
H8C C12C 1_555 1_555
H8H C12H 1_555 1_555
H8K C12K 1_555 1_555
C13H N6H 1_555 1_555
C13C N6C 1_555 1_555
C13K N6K 1_555 1_555
Cl2I C14 1_555 1_555
Cl2D C14 1_555 1_555
N5 C3 1_555 1_555
C8 C9 1_555 1_555
C10 C12 1_555 1_555
N2C C1C 1_555 1_555
N2K C11H 1_555 1_555
N4H C2H 1_555 1_555
N5C C3C 1_555 1_555
N5H C3H 1_555 1_555
N5K C3K 1_555 1_555
C8C C9C 1_555 1_555
C8H C9H 1_555 1_555
C8K C9K 1_555 1_555
C10C C12C 1_555 1_555
C10H C12H 1_555 1_555
C10K C12K 1_555 1_555

#END
