
#######################################################################
#
#                 Cambridge Crystallographic Data Centre
#                                CCDC 
#
#######################################################################
#
# If this CIF has been generated from an entry in the Cambridge 
# Structural Database, then it will include bibliographic, chemical, 
# crystal, experimental, refinement or atomic coordinate data resulting 
# from the CCDC's data processing and validation procedures.
#
#######################################################################

data_VICRAC
_symmetry_cell_setting           monoclinic
_symmetry_space_group_name_H-M   'P 21/c'
_symmetry_Int_Tables_number      14
_space_group_name_Hall           '-P 2ybc'
loop_
_symmetry_equiv_pos_site_id
_symmetry_equiv_pos_as_xyz
1 x,y,z
2 -x,1/2+y,1/2-z
3 -x,-y,-z
4 x,1/2-y,1/2+z
_cell_length_a                   10.0985(10)
_cell_length_b                   37.415(4)
_cell_length_c                   10.9657(10)
_cell_angle_alpha                90
_cell_angle_beta                 113.4810(10)
_cell_angle_gamma                90
_cell_volume                     3800.14
loop_
_atom_site_label
_atom_site_type_symbol
_atom_site_fract_x
_atom_site_fract_y
_atom_site_fract_z
C1 C 0.6427(6) 0.96127(14) 0.7365(5)
C2 C 0.7661(7) 0.94935(16) 0.7201(6)
H1 H 0.8046 0.9270 0.7523
C3 C 0.8313(7) 0.9706(2) 0.6563(6)
H2 H 0.9105 0.9617 0.6429
C4 C 0.7819(8) 1.0045(2) 0.6121(6)
H3 H 0.8281 1.0183 0.5705
C5 C 0.6651(8) 1.01740(17) 0.6298(6)
H4 H 0.6318 1.0403 0.6002
C6 C 0.5934(6) 0.99668(15) 0.6923(5)
C7 C 0.4706(7) 1.01138(16) 0.7067(6)
H5 H 0.4435 1.0346 0.6764
C8 C 0.2681(7) 1.00947(17) 0.7748(6)
H6 H 0.1810 0.9986 0.7104
H7 H 0.2627 1.0350 0.7586
C9 C 0.2778(7) 1.00233(16) 0.9134(6)
H8 H 0.3646 1.0135 0.9767
H9 H 0.2867 0.9768 0.9295
C10 C 0.1489(7) 1.01595(17) 0.9376(7)
H10 H 0.0610 1.0060 0.8715
H11 H 0.1566 1.0082 1.0246
C11 C 0.0379(6) 1.07278(19) 0.8439(7)
H12 H -0.0423 1.0600 0.7879
C12 C 0.0354(6) 1.11013(18) 0.8267(6)
C13 C -0.0860(7) 1.1258(2) 0.7256(7)
H13 H -0.1644 1.1115 0.6763
C14 C -0.0907(8) 1.1610(3) 0.6988(7)
H14 H -0.1713 1.1710 0.6318
C15 C 0.0270(9) 1.1822(2) 0.7728(7)
H15 H 0.0248 1.2065 0.7539
C16 C 0.1464(7) 1.16813(19) 0.8730(6)
H16 H 0.2236 1.1831 0.9199
C17 C 0.1548(6) 1.13167(16) 0.9066(5)
C18 C 0.5446(6) 0.78561(14) 0.8817(6)
C19 C 0.6339(7) 0.77724(17) 0.8145(7)
H17 H 0.6726 0.7956 0.7818
C20 C 0.6643(10) 0.7424(2) 0.7968(9)
H18 H 0.7251 0.7374 0.7538
C21 C 0.6055(10) 0.7144(2) 0.8423(9)
H19 H 0.6256 0.6908 0.8284
C22 C 0.5197(9) 0.72151(18) 0.9062(8)
H20 H 0.4832 0.7027 0.9388
C23 C 0.4835(7) 0.75692(15) 0.9251(6)
C24 C 0.3840(7) 0.76258(18) 0.9845(7)
H21 H 0.3479 0.7425 1.0109
C25 C 0.2275(8) 0.7980(2) 1.0579(8)
H22 H 0.2562 0.8169 1.1240
H23 H 0.2178 0.7761 1.1010
C26 C 0.0791(8) 0.8077(2) 0.9440(9)
H24 H 0.0674 0.7942 0.8648
H25 H 0.0017 0.8010 0.9705
C27 C 0.0688(7) 0.8460(2) 0.9133(7)
H26 H 0.1489 0.8530 0.8908
H27 H 0.0760 0.8594 0.9913
C28 C -0.0784(7) 0.86124(19) 0.6819(7)
H28 H 0.0062 0.8608 0.6674
C29 C -0.2078(6) 0.86865(16) 0.5725(6)
C30 C -0.2014(7) 0.87556(17) 0.4479(6)
H29 H -0.1127 0.8749 0.4408
C31 C -0.3225(8) 0.88313(18) 0.3388(7)
H30 H -0.3178 0.8878 0.2573
C32 C -0.4541(8) 0.88368(19) 0.3522(6)
H31 H -0.5378 0.8886 0.2777
C33 C -0.4649(7) 0.87732(16) 0.4705(6)
H32 H -0.5552 0.8777 0.4745
C34 C -0.3422(6) 0.87025(14) 0.5860(5)
Pr1 Pr 0.49385(3) 0.879384(7) 0.81366(3)
N1 N 0.3944(5) 0.99479(12) 0.7586(5)
H33 H 0.4168 0.9736 0.7879
N2 N 0.1419(5) 1.05472(14) 0.9305(5)
H34 H 0.2127 1.0680 0.9758
N3 N 0.3396(5) 0.79330(15) 1.0050(5)
H35 H 0.3777 0.8113 0.9843
N4 N -0.0680(5) 0.85490(16) 0.8019(5)
H36 H -0.1517 0.8525 0.8028
N5 N 0.2188(5) 0.92096(11) 0.6253(5)
N6 N 0.2659(5) 0.82197(12) 0.6426(5)
N7 N 0.3985(6) 0.90920(14) 1.0309(4)
O1 O 0.5787(4) 0.94149(9) 0.7945(4)
O2 O 0.2646(4) 1.11815(10) 1.0044(4)
O3 O 0.5177(4) 0.81855(9) 0.9012(4)
O4 O -0.3479(4) 0.86552(10) 0.7009(4)
O5 O 0.3060(4) 0.90791(11) 0.5812(4)
O6 O 0.1037(4) 0.93372(12) 0.5495(5)
O7 O 0.2548(4) 0.92060(10) 0.7489(4)
O8 O 0.3722(4) 0.82805(11) 0.6148(4)
O9 O 0.1884(6) 0.79612(13) 0.5980(5)
O10 O 0.2427(4) 0.84377(10) 0.7191(4)
O11 O 0.4859(5) 0.92740(11) 1.0022(4)
O12 O 0.3257(6) 0.92214(13) 1.0862(5)
O13 O 0.3885(5) 0.87663(11) 0.9986(4)
Pr1_2 Pr -0.50615(3) 0.879384(7) 0.81366(3)
Pr1B Pr 0.50615(3) 1.120616(7) 1.18634(3)
O2B O 0.7354(4) 0.88185(10) 0.9956(4)
O4_2 O 0.6521(4) 0.86552(10) 0.7009(4)
O14 O 1.029(3) 0.7646(8) 0.692(3)
H37 H 1.0867 0.7801 0.6920
C35 C 0.889(3) 0.7713(8) 0.577(4)
H38 H 0.8258 0.7840 0.6089
H39 H 0.8456 0.7488 0.5404
H40 H 0.9032 0.7852 0.5102
loop_
_geom_bond_atom_site_label_1
_geom_bond_atom_site_label_2
_geom_bond_site_symmetry_1
_geom_bond_site_symmetry_2
C1 C2 1_555 1_555
C2 H1 1_555 1_555
C3 C2 1_555 1_555
H2 C3 1_555 1_555
C4 C3 1_555 1_555
H3 C4 1_555 1_555
C5 C4 1_555 1_555
H4 C5 1_555 1_555
C6 C1 1_555 1_555
C7 C6 1_555 1_555
H5 C7 1_555 1_555
C8 H6 1_555 1_555
H7 C8 1_555 1_555
C9 C8 1_555 1_555
H8 C9 1_555 1_555
H9 C9 1_555 1_555
C10 C9 1_555 1_555
H10 C10 1_555 1_555
H11 C10 1_555 1_555
C11 H12 1_555 1_555
C12 C11 1_555 1_555
C13 C12 1_555 1_555
H13 C13 1_555 1_555
C14 C13 1_555 1_555
H14 C14 1_555 1_555
C15 C14 1_555 1_555
H15 C15 1_555 1_555
C16 C15 1_555 1_555
H16 C16 1_555 1_555
C17 C12 1_555 1_555
C18 C19 1_555 1_555
C19 H17 1_555 1_555
C20 C19 1_555 1_555
H18 C20 1_555 1_555
C21 C20 1_555 1_555
H19 C21 1_555 1_555
C22 C21 1_555 1_555
H20 C22 1_555 1_555
C23 C18 1_555 1_555
C24 C23 1_555 1_555
H21 C24 1_555 1_555
C25 H22 1_555 1_555
H23 C25 1_555 1_555
C26 C25 1_555 1_555
H24 C26 1_555 1_555
H25 C26 1_555 1_555
C27 C26 1_555 1_555
H26 C27 1_555 1_555
H27 C27 1_555 1_555
C28 H28 1_555 1_555
C29 C28 1_555 1_555
C30 C29 1_555 1_555
H29 C30 1_555 1_555
C31 C30 1_555 1_555
H30 C31 1_555 1_555
C32 C31 1_555 1_555
H31 C32 1_555 1_555
C33 C32 1_555 1_555
H32 C33 1_555 1_555
C34 C29 1_555 1_555
Pr1 O1 1_555 1_555
N1 C7 1_555 1_555
H33 N1 1_555 1_555
N2 C10 1_555 1_555
H34 N2 1_555 1_555
N3 C24 1_555 1_555
H35 N3 1_555 1_555
N4 C27 1_555 1_555
H36 N4 1_555 1_555
N5 O5 1_555 1_555
N6 O8 1_555 1_555
N7 O11 1_555 1_555
O1 C1 1_555 1_555
O2 C17 1_555 1_555
O3 C18 1_555 1_555
O4 C34 1_555 1_555
O5 Pr1 1_555 1_555
O6 N5 1_555 1_555
O7 Pr1 1_555 1_555
O8 Pr1 1_555 1_555
O9 N6 1_555 1_555
O10 Pr1 1_555 1_555
O11 Pr1 1_555 1_555
O12 N7 1_555 1_555
O13 Pr1 1_555 1_555
O14 H37 1_555 1_555
C35 O14 1_555 1_555
H38 C35 1_555 1_555
H39 C35 1_555 1_555
H40 C35 1_555 1_555
Pr1_2 O4 1_555 1_555
Pr1B O2 1_555 1_555
O2B Pr1 1_555 1_555
O4_2 Pr1 1_555 1_555
C5 C6 1_555 1_555
C8 N1 1_555 1_555
C11 N2 1_555 1_555
C16 C17 1_555 1_555
C22 C23 1_555 1_555
C25 N3 1_555 1_555
C28 N4 1_555 1_555
C33 C34 1_555 1_555
Pr1 O3 1_555 1_555
N5 O7 1_555 1_555
N6 O10 1_555 1_555
N7 O13 1_555 1_555

#END
