
#######################################################################
#
#                 Cambridge Crystallographic Data Centre
#                                CCDC 
#
#######################################################################
#
# If this CIF has been generated from an entry in the Cambridge 
# Structural Database, then it will include bibliographic, chemical, 
# crystal, experimental, refinement or atomic coordinate data resulting 
# from the CCDC's data processing and validation procedures.
#
#######################################################################

data_VICSIL
_symmetry_cell_setting           triclinic
_symmetry_space_group_name_H-M   'P -1'
_symmetry_Int_Tables_number      2
_space_group_name_Hall           '-P 1'
loop_
_symmetry_equiv_pos_site_id
_symmetry_equiv_pos_as_xyz
1 x,y,z
2 -x,-y,-z
_cell_length_a                   9.7970(6)
_cell_length_b                   14.1459(10)
_cell_length_c                   15.7820(9)
_cell_angle_alpha                106.273(6)
_cell_angle_beta                 100.855(5)
_cell_angle_gamma                105.968(6)
_cell_volume                     1933.28
loop_
_atom_site_label
_atom_site_type_symbol
_atom_site_fract_x
_atom_site_fract_y
_atom_site_fract_z
Cu1 Cu -0.19523(4) 0.89383(3) 0.92725(3)
S1 S -0.02188(8) 0.48261(6) 0.70475(6)
O1 O -0.0563(2) 0.85018(18) 0.86639(15)
O2 O 0.1664(2) 0.95440(18) 0.96457(17)
O3 O 0.5944(2) 0.84864(18) 0.92721(16)
O4 O 0.5681(2) 0.7054(2) 0.81173(18)
O5 O -0.1283(3) 0.4568(2) 0.75497(18)
O6 O 0.0649(3) 0.41491(19) 0.69197(18)
O7 O -0.0931(3) 0.4931(2) 0.61876(17)
N1 N -0.2545(3) 1.0132(2) 0.71910(19)
N2 N -0.3365(3) 1.0571(3) 0.7676(2)
N3 N -0.2415(3) 0.9610(2) 0.8362(2)
N4 N -0.0515(3) 0.7553(2) 1.1075(2)
N5 N -0.0994(4) 0.8218(3) 1.1643(2)
N6 N -0.1379(3) 0.8369(2) 1.02513(19)
C1 C -0.3720(3) 1.0171(3) 0.5667(2)
C2 C -0.4662(3) 0.9150(3) 0.5147(2)
C3 C -0.5956(3) 0.8964(3) 0.4467(2)
C4 C -0.2295(3) 1.0350(3) 0.6368(2)
H1 H -0.1789 0.9897 0.6079
H2 H -0.1641 1.1080 0.6553
C5 C -0.4338(4) 0.8223(3) 0.5326(3)
H3 H -0.3278 0.8412 0.5579
H4 H -0.4689 0.7630 0.4752
H5 H -0.4840 0.8035 0.5760
C6 C -0.6927(4) 0.7841(3) 0.3881(3)
H6 H -0.6428 0.7539 0.3460
H7 H -0.7861 0.7831 0.3532
H8 H -0.7111 0.7433 0.4276
C7 C -0.3259(4) 1.0230(3) 0.8371(3)
H9 H -0.3725 1.0399 0.8832
C8 C -0.1987(3) 0.9575(3) 0.7612(2)
H10 H -0.1374 0.9209 0.7407
C9 C 0.0105(5) 0.5928(3) 1.0657(3)
C10 C 0.1353(5) 0.5864(3) 1.0375(3)
C11 C 0.1252(5) 0.4921(3) 0.9722(3)
C12 C 0.0199(5) 0.6890(3) 1.1427(3)
H11 H -0.0284 0.6666 1.1863
H12 H 0.1242 0.7305 1.1759
C13 C 0.2785(6) 0.6789(4) 1.0763(4)
H13 H 0.2569 0.7435 1.0890
H14 H 0.3349 0.6752 1.0319
H15 H 0.3357 0.6775 1.1329
C14 C 0.2609(5) 0.4822(4) 0.9435(4)
H16 H 0.3258 0.4705 0.9910
H17 H 0.3131 0.5462 0.9349
H18 H 0.2309 0.4234 0.8861
C15 C -0.1510(4) 0.8683(3) 1.1111(3)
H19 H -0.1936 0.9192 1.1313
C16 C -0.0739(4) 0.7658(3) 1.0258(2)
H20 H -0.0483 0.7283 0.9757
C17 C 0.1425(3) 0.7899(2) 0.8604(2)
C18 C 0.2955(3) 0.8128(3) 0.8793(2)
H21 H 0.3606 0.8809 0.9166
C19 C 0.3517(3) 0.7357(3) 0.8434(2)
C20 C 0.2559(3) 0.6342(3) 0.7897(2)
H22 H 0.2939 0.5818 0.7651
C21 C 0.1039(3) 0.6109(2) 0.7726(2)
C22 C 0.0478(3) 0.6888(2) 0.8064(2)
H23 H -0.0554 0.6731 0.7925
C23 C 0.0821(3) 0.8738(3) 0.9013(2)
C24 C 0.5175(3) 0.7643(3) 0.8617(2)
N1A N -0.7455(3) 0.9868(2) 0.28090(19)
N2A N -0.6635(3) 0.9429(3) 0.2324(2)
N3A N -0.7585(3) 1.0390(2) 0.1638(2)
C1A C -0.6280(3) 0.9829(3) 0.4333(2)
C2A C -0.5338(3) 1.0850(3) 0.4853(2)
C3A C -0.4044(3) 1.1036(3) 0.5533(2)
C4A C -0.7705(3) 0.9650(3) 0.3632(2)
H1A H -0.8211 1.0103 0.3921
H2A H -0.8359 0.8920 0.3447
C5A C -0.5662(4) 1.1777(3) 0.4674(3)
H3A H -0.6722 1.1588 0.4421
H4A H -0.5311 1.2370 0.5248
H5A H -0.5160 1.1965 0.4240
C6A C -0.3073(4) 1.2159(3) 0.6119(3)
H6A H -0.3572 1.2461 0.6540
H7A H -0.2139 1.2169 0.6468
H8A H -0.2889 1.2567 0.5724
C7A C -0.6741(4) 0.9770(3) 0.1629(3)
H9A H -0.6275 0.9601 0.1168
C8A C -0.8013(3) 1.0425(3) 0.2388(2)
H10A H -0.8626 1.0791 0.2593
N4A N 0.0515(3) 0.2447(2) 0.8925(2)
N5A N 0.0994(4) 0.1782(3) 0.8357(2)
N6A N 0.1379(3) 0.1631(2) 0.97487(19)
C9A C -0.0105(5) 0.4072(3) 0.9343(3)
C10A C -0.1353(5) 0.4136(3) 0.9625(3)
C11A C -0.1252(5) 0.5079(3) 1.0278(3)
C12A C -0.0199(5) 0.3110(3) 0.8573(3)
H11A H 0.0284 0.3334 0.8137
H12A H -0.1242 0.2695 0.8241
C13A C -0.2785(6) 0.3211(4) 0.9237(4)
H13A H -0.2569 0.2565 0.9110
H14A H -0.3349 0.3248 0.9681
H15A H -0.3357 0.3225 0.8671
C14A C -0.2609(5) 0.5178(4) 1.0565(4)
H16A H -0.3258 0.5295 1.0090
H17A H -0.3131 0.4538 1.0651
H18A H -0.2309 0.5766 1.1139
C15A C 0.1510(4) 0.1317(3) 0.8889(3)
H19A H 0.1936 0.0808 0.8687
C16A C 0.0739(4) 0.2342(3) 0.9742(2)
H20A H 0.0483 0.2717 1.0243
Cu1A Cu -0.80477(4) 1.10617(3) 0.07275(3)
S1A S -0.97812(8) 1.51739(6) 0.29525(6)
O1A O -0.9437(2) 1.14982(18) 0.13361(15)
O2A O -1.1664(2) 1.04560(18) 0.03543(17)
O3A O -1.5944(2) 1.15136(18) 0.07279(16)
O4A O -1.5681(2) 1.2946(2) 0.18827(18)
O5A O -0.8717(3) 1.5432(2) 0.24503(18)
O6A O -1.0649(3) 1.58509(19) 0.30803(18)
O7A O -0.9069(3) 1.5069(2) 0.38124(17)
C17A C -1.1425(3) 1.2101(2) 0.1396(2)
C18A C -1.2955(3) 1.1872(3) 0.1207(2)
H21A H -1.3606 1.1191 0.0834
C19A C -1.3517(3) 1.2643(3) 0.1566(2)
C20A C -1.2559(3) 1.3658(3) 0.2103(2)
H22A H -1.2939 1.4182 0.2349
C21A C -1.1039(3) 1.3891(2) 0.2274(2)
C22A C -1.0478(3) 1.3112(2) 0.1936(2)
H23A H -0.9446 1.3269 0.2075
C23A C -1.0821(3) 1.1262(3) 0.0987(2)
C24A C -1.5175(3) 1.2357(3) 0.1383(2)
Cu1_2 Cu -1.19523(4) 0.89383(3) -0.07275(3)
Cu1_3 Cu 0.80477(4) 0.89383(3) 0.92725(3)
Cu1A_2 Cu -1.80477(4) 1.10617(3) 0.07275(3)
Cu1A_3 Cu 0.19523(4) 0.10617(3) 1.07275(3)
Cu1A_4 Cu 0.19523(4) 1.10617(3) 1.07275(3)
O2_2 O -0.8336(2) 0.95440(18) -0.03543(17)
O2A_2 O -0.1664(2) 1.04560(18) 1.03543(17)
O3_2 O -0.4056(2) 0.84864(18) 0.92721(16)
O3A_2 O -0.5944(2) 1.15136(18) 0.07279(16)
N6A_2 N -0.8621(3) 1.1631(2) -0.02513(19)
Cu2 Cu 0.5000 0.5000 0.5000
O8 O 0.5956(3) 0.4478(2) 0.59277(17)
H24 H 0.693(2) 0.463(3) 0.600(2)
H25 H 0.578(4) 0.465(3) 0.6468(16)
O9 O 0.5756(3) 0.3981(2) 0.38287(19)
H26 H 0.528(4) 0.361(3) 0.3255(15)
H27 H 0.662(3) 0.389(3) 0.397(3)
N7 N 0.1186(3) 0.2679(2) 0.4778(2)
N8 N 0.1172(3) 0.2327(2) 0.3874(2)
N9 N 0.3075(3) 0.3832(2) 0.4678(2)
C25 C 0.0048(4) 0.1006(3) 0.5037(3)
C26 C 0.1104(4) 0.0886(3) 0.5695(3)
C27 C 0.1047(4) -0.0130(3) 0.5665(3)
C28 C 0.0043(4) 0.2100(3) 0.5116(3)
H28 H -0.0934 0.2042 0.4766
H29 H 0.0198 0.2504 0.5764
C29 C 0.2293(4) 0.1827(3) 0.6448(3)
H30 H 0.2101 0.1873 0.7036
H31 H 0.2290 0.2460 0.6323
H32 H 0.3253 0.1753 0.6467
C30 C 0.2173(4) -0.0258(3) 0.6388(3)
H33 H 0.1773 -0.0939 0.6443
H34 H 0.2391 0.0291 0.6977
H35 H 0.3076 -0.0206 0.6207
C31 C 0.2326(3) 0.3051(3) 0.3855(2)
H36 H 0.2610 0.3030 0.3315
C32 C 0.2311(4) 0.3569(3) 0.5235(3)
H37 H 0.2535 0.3959 0.5865
N7A N -0.1186(3) -0.2679(2) 0.5222(2)
N8A N -0.1172(3) -0.2327(2) 0.6126(2)
N9A N -0.3075(3) -0.3832(2) 0.5322(2)
C25A C -0.0048(4) -0.1006(3) 0.4963(3)
C26A C -0.1104(4) -0.0886(3) 0.4305(3)
C27A C -0.1047(4) 0.0130(3) 0.4335(3)
C28A C -0.0043(4) -0.2100(3) 0.4884(3)
H28A H 0.0934 -0.2042 0.5234
H29A H -0.0198 -0.2504 0.4236
C29A C -0.2293(4) -0.1827(3) 0.3552(3)
H30A H -0.2101 -0.1873 0.2964
H31A H -0.2290 -0.2460 0.3677
H32A H -0.3253 -0.1753 0.3533
C30A C -0.2173(4) 0.0258(3) 0.3612(3)
H33A H -0.1773 0.0939 0.3557
H34A H -0.2391 -0.0291 0.3023
H35A H -0.3076 0.0206 0.3793
C31A C -0.2326(3) -0.3051(3) 0.6145(2)
H36A H -0.2610 -0.3030 0.6685
C32A C -0.2311(4) -0.3569(3) 0.4765(3)
H37A H -0.2535 -0.3959 0.4135
O8A O 0.4044(3) 0.5522(2) 0.40723(17)
H24A H 0.307(2) 0.537(3) 0.400(2)
H25A H 0.422(4) 0.535(3) 0.3532(16)
O9A O 0.4244(3) 0.6019(2) 0.61713(19)
H26A H 0.472(4) 0.639(3) 0.6745(15)
H27A H 0.338(3) 0.611(3) 0.603(3)
Cu2_2 Cu -0.5000 -0.5000 0.5000
N9A_2 N 0.6925(3) 0.6168(2) 0.5322(2)
O10 O 0.8436(3) 0.3655(3) 0.4354(2)
H38 H 0.866(5) 0.403(3) 0.4952(15)
H39 H 0.902(4) 0.395(3) 0.407(3)
O11 O 0.6039(6) 0.5049(5) 0.7746(4)
O12? O 0.5114(13) 0.4956(9) 0.7491(7)
loop_
_geom_bond_atom_site_label_1
_geom_bond_atom_site_label_2
_geom_bond_site_symmetry_1
_geom_bond_site_symmetry_2
Cu1 O1 1_555 1_555
S1 O5 1_555 1_555
O1 C23 1_555 1_555
O2 C23 1_555 1_555
O3 C24 1_555 1_555
O4 C24 1_555 1_555
O6 S1 1_555 1_555
O7 S1 1_555 1_555
N1 N2 1_555 1_555
N2 C7 1_555 1_555
N3 Cu1 1_555 1_555
N4 N5 1_555 1_555
N5 C15 1_555 1_555
N6 Cu1 1_555 1_555
C1 C2 1_555 1_555
C2 C3 1_555 1_555
C3 C6 1_555 1_555
C4 N1 1_555 1_555
H1 C4 1_555 1_555
H2 C4 1_555 1_555
C5 C2 1_555 1_555
H3 C5 1_555 1_555
H4 C5 1_555 1_555
H5 C5 1_555 1_555
C6 H6 1_555 1_555
H7 C6 1_555 1_555
H8 C6 1_555 1_555
C7 N3 1_555 1_555
H9 C7 1_555 1_555
C8 N1 1_555 1_555
H10 C8 1_555 1_555
C9 C10 1_555 1_555
C10 C11 1_555 1_555
C11 C14 1_555 1_555
C12 N4 1_555 1_555
H11 C12 1_555 1_555
H12 C12 1_555 1_555
C13 C10 1_555 1_555
H13 C13 1_555 1_555
H14 C13 1_555 1_555
H15 C13 1_555 1_555
C14 H16 1_555 1_555
H17 C14 1_555 1_555
H18 C14 1_555 1_555
C15 N6 1_555 1_555
H19 C15 1_555 1_555
C16 N4 1_555 1_555
H20 C16 1_555 1_555
C17 C18 1_555 1_555
C18 H21 1_555 1_555
C19 C18 1_555 1_555
C20 C19 1_555 1_555
H22 C20 1_555 1_555
C21 S1 1_555 1_555
C22 C17 1_555 1_555
H23 C22 1_555 1_555
C23 C17 1_555 1_555
C24 C19 1_555 1_555
Cu2 O8 1_555 1_555
O8 H24 1_555 1_555
H25 O8 1_555 1_555
O9 Cu2 1_555 1_555
H26 O9 1_555 1_555
H27 O9 1_555 1_555
N7 N8 1_555 1_555
N8 C31 1_555 1_555
N9 Cu2 1_555 1_555
C25 C26 1_555 1_555
C26 C27 1_555 1_555
C27 C30 1_555 1_555
C28 N7 1_555 1_555
H28 C28 1_555 1_555
H29 C28 1_555 1_555
C29 C26 1_555 1_555
H30 C29 1_555 1_555
H31 C29 1_555 1_555
H32 C29 1_555 1_555
C30 H33 1_555 1_555
H34 C30 1_555 1_555
H35 C30 1_555 1_555
C31 N9 1_555 1_555
H36 C31 1_555 1_555
C32 N7 1_555 1_555
H37 C32 1_555 1_555
O10 H38 1_555 1_555
H39 O10 1_555 1_555
N1A N2A 1_555 1_555
N2A C7A 1_555 1_555
N3A C7A 1_555 1_555
C1A C3 1_555 1_555
C2A C1A 1_555 1_555
C3A C1 1_555 1_555
C4A N1A 1_555 1_555
H1A C4A 1_555 1_555
H2A C4A 1_555 1_555
C5A C2A 1_555 1_555
H3A C5A 1_555 1_555
H4A C5A 1_555 1_555
H5A C5A 1_555 1_555
C6A C3A 1_555 1_555
H6A C6A 1_555 1_555
H7A C6A 1_555 1_555
H8A C6A 1_555 1_555
C7A H9A 1_555 1_555
C8A N1A 1_555 1_555
H10A C8A 1_555 1_555
N4A N5A 1_555 1_555
N5A C15A 1_555 1_555
N6A C15A 1_555 1_555
C9A C11 1_555 1_555
C10A C9A 1_555 1_555
C11A C9 1_555 1_555
C12A N4A 1_555 1_555
H11A C12A 1_555 1_555
H12A C12A 1_555 1_555
C13A C10A 1_555 1_555
H13A C13A 1_555 1_555
H14A C13A 1_555 1_555
H15A C13A 1_555 1_555
C14A C11A 1_555 1_555
H16A C14A 1_555 1_555
H17A C14A 1_555 1_555
H18A C14A 1_555 1_555
C15A H19A 1_555 1_555
C16A N4A 1_555 1_555
H20A C16A 1_555 1_555
Cu1A N3A 1_555 1_555
S1A O5A 1_555 1_555
O1A Cu1A 1_555 1_555
O2A C23A 1_555 1_555
O3A C24A 1_555 1_555
O4A C24A 1_555 1_555
O6A S1A 1_555 1_555
O7A S1A 1_555 1_555
C17A C18A 1_555 1_555
C18A H21A 1_555 1_555
C19A C18A 1_555 1_555
C20A C19A 1_555 1_555
H22A C20A 1_555 1_555
C21A S1A 1_555 1_555
C22A C17A 1_555 1_555
H23A C22A 1_555 1_555
C23A O1A 1_555 1_555
C24A C19A 1_555 1_555
Cu1_2 O2A 1_555 1_555
Cu1_3 O3 1_555 1_555
Cu1A_2 O3A 1_555 1_555
Cu1A_3 N6A 1_555 1_555
Cu1A_4 O2 1_555 1_555
O2_2 Cu1A 1_555 1_555
O2A_2 Cu1 1_555 1_555
O3_2 Cu1 1_555 1_555
O3A_2 Cu1A 1_555 1_555
N6A_2 Cu1A 1_555 1_555
N7A N8A 1_555 1_555
N8A C31A 1_555 1_555
N9A C31A 1_555 1_555
C25A C27 1_555 1_555
C26A C25A 1_555 1_555
C27A C25 1_555 1_555
C28A N7A 1_555 1_555
H28A C28A 1_555 1_555
H29A C28A 1_555 1_555
C29A C26A 1_555 1_555
H30A C29A 1_555 1_555
H31A C29A 1_555 1_555
H32A C29A 1_555 1_555
C30A C27A 1_555 1_555
H33A C30A 1_555 1_555
H34A C30A 1_555 1_555
H35A C30A 1_555 1_555
C31A H36A 1_555 1_555
C32A N7A 1_555 1_555
H37A C32A 1_555 1_555
O8A Cu2 1_555 1_555
H24A O8A 1_555 1_555
H25A O8A 1_555 1_555
O9A Cu2 1_555 1_555
H26A O9A 1_555 1_555
H27A O9A 1_555 1_555
Cu2_2 N9A 1_555 1_555
N9A_2 Cu2 1_555 1_555
N3 C8 1_555 1_555
N6 C16 1_555 1_555
C1 C4 1_555 1_555
C9 C12 1_555 1_555
C20 C21 1_555 1_555
C21 C22 1_555 1_555
N9 C32 1_555 1_555
C25 C28 1_555 1_555
N3A C8A 1_555 1_555
C1A C4A 1_555 1_555
C2A C3A 1_555 1_555
N6A C16A 1_555 1_555
C9A C12A 1_555 1_555
C10A C11A 1_555 1_555
C17A C23A 1_555 1_555
C20A C21A 1_555 1_555
C21A C22A 1_555 1_555
N9A C32A 1_555 1_555
C25A C28A 1_555 1_555
C26A C27A 1_555 1_555

#END
