
#######################################################################
#
#                 Cambridge Crystallographic Data Centre
#                                CCDC 
#
#######################################################################
#
# If this CIF has been generated from an entry in the Cambridge 
# Structural Database, then it will include bibliographic, chemical, 
# crystal, experimental, refinement or atomic coordinate data resulting 
# from the CCDC's data processing and validation procedures.
#
#######################################################################

data_VICVUA
_symmetry_cell_setting           triclinic
_symmetry_space_group_name_H-M   'P -1'
_symmetry_Int_Tables_number      2
_space_group_name_Hall           '-P 1'
loop_
_symmetry_equiv_pos_site_id
_symmetry_equiv_pos_as_xyz
1 x,y,z
2 -x,-y,-z
_cell_length_a                   12.2417(4)
_cell_length_b                   12.8209(5)
_cell_length_c                   20.5866(8)
_cell_angle_alpha                94.519(3)
_cell_angle_beta                 90.329(3)
_cell_angle_gamma                111.576(3)
_cell_volume                     2993.22
loop_
_atom_site_label
_atom_site_type_symbol
_atom_site_fract_x
_atom_site_fract_y
_atom_site_fract_z
C1 C 0.5529(9) 0.4861(10) 0.4859(6)
C2 C 0.5298(10) 0.4566(10) 0.0040(6)
C3 C 0.7544(11) 0.8063(12) 0.1848(7)
H1 H 0.7131 0.7617 0.2193
H2 H 0.7881 0.8847 0.2018
C4 C 0.8494(10) 0.7662(11) 0.1596(7)
H3 H 0.8967 0.8169 0.1291
H4 H 0.9004 0.7648 0.1954
C5 C 0.8509(15) 0.6508(14) 0.3385(8)
H5 H 0.7980 0.6915 0.3425
H6 H 0.9039 0.6806 0.3038
C6 C 0.9196(16) 0.6692(14) 0.4002(9)
H7 H 0.9934 0.6599 0.3915
H8 H 0.9374 0.7458 0.4188
C7 C 0.7101(11) 0.2306(11) 0.4420(7)
H9 H 0.7599 0.2060 0.4131
H10 H 0.6909 0.1834 0.4781
C8 C 0.6009(12) 0.2216(11) 0.4062(7)
H11 H 0.5642 0.1470 0.3839
H12 H 0.5457 0.2345 0.4364
Cu1 Cu 0.64654(13) 0.64293(13) 0.08236(8)
Cu2 Cu 0.75446(13) 0.44793(14) 0.40002(8)
N1 N 0.6735(9) 0.7920(8) 0.1283(5)
H13 H 0.7056 0.8467 0.1015
H14 H 0.6051 0.7956 0.1418
N2 N 0.7926(8) 0.6532(9) 0.1270(5)
H15 H 0.7766 0.6019 0.1565
H16 H 0.8410 0.6389 0.0979
N3 N 0.7841(9) 0.5340(11) 0.3214(6)
H17 H 0.8235 0.5059 0.2927
H18 H 0.7151 0.5264 0.3022
N4 N 0.8583(10) 0.5935(9) 0.4456(6)
H19 H 0.8148 0.6237 0.4700
H20 H 0.9102 0.5816 0.4724
N5 N 0.7724(9) 0.3508(9) 0.4669(5)
H21 H 0.8491 0.3646 0.4747
H22 H 0.7416 0.3657 0.5044
N6 N 0.6336(9) 0.3078(9) 0.3583(5)
H23 H 0.5698 0.3214 0.3459
H24 H 0.6622 0.2829 0.3228
O1 O 0.5396(6) 0.5079(6) 0.2854(4)
O2 O 0.4126(7) 0.6500(7) 0.2685(4)
O3 O 0.3613(7) 0.3826(7) 0.3725(4)
O4 O 0.2410(6) 0.5219(7) 0.3608(4)
O5 O 0.6421(6) 0.4431(7) 0.1827(4)
O6 O 0.4527(6) 0.2854(6) 0.2430(4)
O7 O 0.4806(6) 0.5478(6) 0.1652(4)
O8 O 0.4083(6) 0.3300(6) 0.1273(4)
O9 O 0.3569(7) 0.1482(7) 0.0315(4)
O10 O 0.2340(7) 0.2957(6) 0.0373(4)
O11 O 0.1295(6) 0.0948(6) 0.0782(4)
O12 O 0.3048(6) 0.1275(6) 0.1633(4)
O13 O 0.1669(6) 0.2716(6) 0.1582(4)
O14 O 0.3130(6) 0.4231(6) 0.2319(4)
O15 O 0.2816(7) 0.2418(8) 0.4691(4)
O16 O 0.1325(7) 0.3106(7) 0.3918(4)
O17 O 0.1237(7) 0.1020(7) 0.3657(4)
O18 O 0.0539(7) 0.4845(8) 0.4403(4)
O19 O -0.0675(6) 0.3124(7) 0.3422(4)
O20 O 0.0389(6) 0.5157(7) 0.3069(4)
O21 O 0.0981(6) 0.3542(6) 0.2570(4)
O22 O -0.2595(7) 0.1577(8) 0.2729(5)
O23 O -0.1106(6) 0.3583(7) 0.2257(4)
O24 O -0.0349(7) 0.5822(7) 0.1962(4)
O25 O 0.0402(6) 0.4193(7) 0.1308(4)
O26 O 0.1921(6) 0.5731(7) 0.2109(4)
O27 O -0.0869(6) 0.1719(7) 0.1771(4)
O28 O -0.0477(7) 0.1224(7) 0.2929(4)
O29 O 0.0090(6) 0.2263(6) 0.0634(4)
O30 O 0.1088(7) 0.4269(7) 0.0006(4)
O31 O 0.2641(6) 0.4902(7) 0.1093(4)
O32 O -0.0352(7) -0.0938(7) 0.2985(4)
O33 O 0.3471(7) 0.1718(7) 0.3447(4)
O34 O 0.0285(6) 0.0417(7) 0.1910(4)
O35 O -0.1191(7) -0.0017(7) 0.0778(4)
O36 O 0.1960(7) 0.0148(7) 0.2615(4)
O37 O 0.2104(6) 0.2279(6) 0.2687(4)
O38 O 0.3910(7) 0.7176(7) 0.1495(4)
O39 O 0.4387(7) 0.0600(8) 0.2508(5)
O40 O 0.3989(9) 0.7420(8) 0.4025(5)
O41 O 0.6316(9) 0.7315(9) 0.3969(6)
O42 O 0.5811(7) 0.5146(8) 0.4308(4)
O43 O 0.5958(8) 0.4352(8) 0.5208(4)
O44 O 0.4904(6) 0.3650(7) -0.0291(4)
O45 O 0.6217(7) 0.4928(7) 0.0404(4)
P1 P 0.1984(2) 0.3199(2) 0.22955(13)
Tb1 Tb 0.44463(5) 0.57701(5) 0.36652(3)
W1 W 0.50281(4) 0.42839(4) 0.20771(2)
W2 W 0.29048(4) 0.20544(4) 0.08932(2)
W3 W 0.34688(4) 0.13425(4) 0.25322(2)
W4 W 0.25639(4) 0.25257(4) 0.38827(2)
W5 W 0.05577(4) 0.03938(4) 0.28331(2)
W6 W 0.09327(4) 0.43434(4) 0.36758(2)
W7 W -0.11158(4) 0.22496(4) 0.26457(2)
W8 W 0.02790(4) 0.48776(4) 0.21459(2)
W9 W -0.00490(4) 0.10801(4) 0.11762(2)
W10 W 0.13674(4) 0.37453(4) 0.07013(2)
W11 W 0.35184(4) 0.59618(4) 0.18897(2)
C1A C 0.4471(9) 0.5139(10) 0.5141(6)
O42A O 0.4189(7) 0.4854(8) 0.5692(4)
O43A O 0.4042(8) 0.5648(8) 0.4792(4)
C2A C 0.4702(10) 0.5434(10) -0.0040(6)
O45A O 0.3783(7) 0.5072(7) -0.0404(4)
O44A O 0.5096(6) 0.6350(7) 0.0291(4)
C3A C 0.2456(11) 0.1937(12) -0.1848(7)
H1A H 0.2869 0.2383 -0.2193
H2A H 0.2119 0.1153 -0.2018
C4A C 0.1506(10) 0.2338(11) -0.1596(7)
H3A H 0.1033 0.1831 -0.1291
H4A H 0.0996 0.2352 -0.1954
Cu1A Cu 0.35346(13) 0.35707(13) -0.08236(8)
N1A N 0.3265(9) 0.2080(8) -0.1283(5)
H13A H 0.2944 0.1533 -0.1015
H14A H 0.3949 0.2044 -0.1418
N2A N 0.2074(8) 0.3468(9) -0.1270(5)
H15A H 0.2234 0.3981 -0.1565
H16A H 0.1590 0.3611 -0.0979
O1A O 0.4604(6) 0.4921(6) -0.2854(4)
O2A O 0.5874(7) 0.3500(7) -0.2685(4)
O3A O 0.6387(7) 0.6174(7) -0.3725(4)
O4A O 0.7590(6) 0.4781(7) -0.3608(4)
O5A O 0.3579(6) 0.5569(7) -0.1827(4)
O6A O 0.5473(6) 0.7146(6) -0.2430(4)
O7A O 0.5194(6) 0.4522(6) -0.1652(4)
O8A O 0.5917(6) 0.6700(6) -0.1273(4)
O9A O 0.6431(7) 0.8518(7) -0.0315(4)
O10A O 0.7660(7) 0.7043(6) -0.0373(4)
O11A O 0.8705(6) 0.9052(6) -0.0782(4)
O12A O 0.6952(6) 0.8725(6) -0.1633(4)
O13A O 0.8331(6) 0.7284(6) -0.1582(4)
O14A O 0.6870(6) 0.5769(6) -0.2319(4)
O15A O 0.7184(7) 0.7582(8) -0.4691(4)
O16A O 0.8675(7) 0.6894(7) -0.3918(4)
O17A O 0.8763(7) 0.8980(7) -0.3657(4)
O18A O 0.9461(7) 0.5155(8) -0.4403(4)
O19A O 1.0675(6) 0.6876(7) -0.3422(4)
O20A O 0.9611(6) 0.4843(7) -0.3069(4)
O21A O 0.9019(6) 0.6458(6) -0.2570(4)
O22A O 1.2595(7) 0.8423(8) -0.2729(5)
O23A O 1.1106(6) 0.6417(7) -0.2257(4)
O24A O 1.0349(7) 0.4178(7) -0.1962(4)
O25A O 0.9598(6) 0.5807(7) -0.1308(4)
O26A O 0.8079(6) 0.4269(7) -0.2109(4)
O27A O 1.0869(6) 0.8281(7) -0.1771(4)
O28A O 1.0477(7) 0.8776(7) -0.2929(4)
O29A O 0.9910(6) 0.7737(6) -0.0634(4)
O30A O 0.8912(7) 0.5731(7) -0.0006(4)
O31A O 0.7359(6) 0.5098(7) -0.1093(4)
O32A O 1.0352(7) 1.0938(7) -0.2985(4)
O33A O 0.6529(7) 0.8282(7) -0.3447(4)
O34A O 0.9715(6) 0.9583(7) -0.1910(4)
O35A O 1.1191(7) 1.0017(7) -0.0778(4)
O36A O 0.8040(7) 0.9852(7) -0.2615(4)
O37A O 0.7896(6) 0.7721(6) -0.2687(4)
O38A O 0.6090(7) 0.2824(7) -0.1495(4)
O39A O 0.5613(7) 0.9400(8) -0.2508(5)
O40A O 0.6011(9) 0.2580(8) -0.4025(5)
O41A O 0.3684(9) 0.2685(9) -0.3969(6)
P1A P 0.8016(2) 0.6801(2) -0.22955(13)
Tb1A Tb 0.55537(5) 0.42299(5) -0.36652(3)
W1A W 0.49719(4) 0.57161(4) -0.20771(2)
W2A W 0.70952(4) 0.79456(4) -0.08932(2)
W3A W 0.65312(4) 0.86575(4) -0.25322(2)
W4A W 0.74361(4) 0.74743(4) -0.38827(2)
W5A W 0.94423(4) 0.96062(4) -0.28331(2)
W6A W 0.90673(4) 0.56566(4) -0.36758(2)
W7A W 1.11158(4) 0.77504(4) -0.26457(2)
W8A W 0.97210(4) 0.51224(4) -0.21459(2)
W9A W 1.00490(4) 0.89199(4) -0.11762(2)
W10A W 0.86326(4) 0.62547(4) -0.07013(2)
W11A W 0.64816(4) 0.40382(4) -0.18897(2)
C5A C 0.1491(15) 0.3492(14) 0.6615(8)
H5A H 0.2020 0.3085 0.6575
H6A H 0.0961 0.3194 0.6962
C6A C 0.0804(16) 0.3308(14) 0.5998(9)
H7A H 0.0066 0.3401 0.6085
H8A H 0.0626 0.2542 0.5812
C7A C 0.2899(11) 0.7694(11) 0.5580(7)
H9A H 0.2401 0.7940 0.5869
H10A H 0.3091 0.8166 0.5219
C8A C 0.3991(12) 0.7784(11) 0.5938(7)
H11A H 0.4358 0.8530 0.6161
H12A H 0.4543 0.7655 0.5636
Cu2A Cu 0.24554(13) 0.55207(14) 0.59998(8)
N3A N 0.2159(9) 0.4660(11) 0.6786(6)
H17A H 0.1765 0.4941 0.7073
H18A H 0.2849 0.4736 0.6978
N4A N 0.1417(10) 0.4065(9) 0.5544(6)
H19A H 0.1852 0.3763 0.5300
H20A H 0.0898 0.4184 0.5276
N5A N 0.2276(9) 0.6492(9) 0.5331(5)
H21A H 0.1509 0.6354 0.5253
H22A H 0.2584 0.6343 0.4956
N6A N 0.3664(9) 0.6922(9) 0.6417(5)
H23A H 0.4302 0.6786 0.6541
H24A H 0.3378 0.7171 0.6772
O42A_2 O 0.4189(7) 0.4854(8) -0.4308(4)
O43_2 O 0.5958(8) 0.4352(8) -0.4792(4)
Tb1A_2 Tb 0.55537(5) 0.42299(5) 0.63348(3)
C9 C 0.6213(12) 0.1975(15) 0.1354(7)
H25 H 0.5466 0.1960 0.1183
H26 H 0.6292 0.2247 0.1811
C10 C 0.6235(16) 0.0797(15) 0.1283(9)
H27 H 0.6780 0.0739 0.1609
H28 H 0.5460 0.0258 0.1361
Cu3 Cu 0.74320(15) 0.18936(14) 0.01834(9)
N7 N 0.7844(14) 0.0968(11) -0.0517(8)
H29 H 0.8270 0.0608 -0.0346
H30 H 0.7184 0.0448 -0.0707
N8 N 0.8358(11) 0.3211(11) -0.0332(9)
H31 H 0.7903 0.3595 -0.0432
H32 H 0.8986 0.3683 -0.0091
N9 N 0.7200(13) 0.2756(11) 0.0990(7)
H33 H 0.7864 0.3022 0.1242
H34 H 0.7022 0.3344 0.0883
N10 N 0.6577(10) 0.0525(10) 0.0653(6)
H35 H 0.5933 0.0084 0.0412
H36 H 0.7045 0.0130 0.0692
O46 O 0.5626(7) 0.1674(8) -0.0394(5)
C11 C 0.873(2) 0.2793(18) -0.0910(12)
H37 H 0.8367 0.2985 -0.1278
H38 H 0.9574 0.3181 -0.0931
C12 C 0.849(2) 0.1650(18) -0.0980(13)
H39 H 0.9232 0.1547 -0.1007
H40 H 0.8072 0.1361 -0.1398
O47 O 0.5555(11) 0.8986(10) 0.2594(7)
O48 O 0.7107(14) 0.9460(13) 0.3641(9)
O49 O 0.222(2) 0.9545(16) 0.4361(11)
O50 O 0.241(2) 0.791(2) 0.3258(17)
O51 O 0.4339(14) 0.0624(12) 0.5263(8)
O52 O 0.926(3) 0.078(4) 0.4564(16)
loop_
_geom_bond_atom_site_label_1
_geom_bond_atom_site_label_2
_geom_bond_site_symmetry_1
_geom_bond_site_symmetry_2
C1 O42 1_555 1_555
C2 O44 1_555 1_555
C3 H1 1_555 1_555
H2 C3 1_555 1_555
C4 C3 1_555 1_555
H3 C4 1_555 1_555
H4 C4 1_555 1_555
C5 H5 1_555 1_555
H6 C5 1_555 1_555
C6 C5 1_555 1_555
H7 C6 1_555 1_555
H8 C6 1_555 1_555
C7 H9 1_555 1_555
H10 C7 1_555 1_555
C8 C7 1_555 1_555
H11 C8 1_555 1_555
H12 C8 1_555 1_555
Cu1 N1 1_555 1_555
Cu2 N3 1_555 1_555
N1 C3 1_555 1_555
H13 N1 1_555 1_555
H14 N1 1_555 1_555
N2 C4 1_555 1_555
H15 N2 1_555 1_555
H16 N2 1_555 1_555
N3 C5 1_555 1_555
H17 N3 1_555 1_555
H18 N3 1_555 1_555
N4 C6 1_555 1_555
H19 N4 1_555 1_555
H20 N4 1_555 1_555
N5 C7 1_555 1_555
H21 N5 1_555 1_555
H22 N5 1_555 1_555
N6 C8 1_555 1_555
H23 N6 1_555 1_555
H24 N6 1_555 1_555
O1 Tb1 1_555 1_555
O2 Tb1 1_555 1_555
O3 Tb1 1_555 1_555
O4 Tb1 1_555 1_555
O5 W1 1_555 1_555
O6 W1 1_555 1_555
O7 Cu1 1_555 1_555
O8 W1 1_555 1_555
O9 W2 1_555 1_555
O10 W2 1_555 1_555
O11 W2 1_555 1_555
O12 W2 1_555 1_555
O13 P1 1_555 1_555
O14 P1 1_555 1_555
O15 W4 1_555 1_555
O16 W4 1_555 1_555
O17 W4 1_555 1_555
O18 W6 1_555 1_555
O19 W6 1_555 1_555
O20 W6 1_555 1_555
O21 P1 1_555 1_555
O22 W7 1_555 1_555
O23 W7 1_555 1_555
O24 W8 1_555 1_555
O25 W8 1_555 1_555
O26 W8 1_555 1_555
O27 W7 1_555 1_555
O28 W5 1_555 1_555
O29 W9 1_555 1_555
O30 W10 1_555 1_555
O31 W10 1_555 1_555
O32 W5 1_555 1_555
O33 W3 1_555 1_555
O34 W5 1_555 1_555
O35 W9 1_555 1_555
O36 W3 1_555 1_555
O37 P1 1_555 1_555
O38 W11 1_555 1_555
O39 W3 1_555 1_555
O40 Tb1 1_555 1_555
O41 Tb1 1_555 1_555
O42 Cu2 1_555 1_555
O43 C1 1_555 1_555
O44 Cu1A 1_555 1_555
O45 C2 1_555 1_555
Tb1 O42 1_555 1_555
W1 O1 1_555 1_555
W2 O8 1_555 1_555
W3 O6 1_555 1_555
W4 O3 1_555 1_555
W5 O17 1_555 1_555
W6 O4 1_555 1_555
W7 O19 1_555 1_555
W8 O20 1_555 1_555
W9 O11 1_555 1_555
W10 O10 1_555 1_555
W11 O2 1_555 1_555
C9 H25 1_555 1_555
H26 C9 1_555 1_555
C10 C9 1_555 1_555
H27 C10 1_555 1_555
H28 C10 1_555 1_555
Cu3 N7 1_555 1_555
N7 H29 1_555 1_555
H30 N7 1_555 1_555
N8 Cu3 1_555 1_555
H31 N8 1_555 1_555
H32 N8 1_555 1_555
N9 C9 1_555 1_555
H33 N9 1_555 1_555
H34 N9 1_555 1_555
N10 C10 1_555 1_555
H35 N10 1_555 1_555
H36 N10 1_555 1_555
O46 Cu3 1_555 1_555
C11 N8 1_555 1_555
H37 C11 1_555 1_555
H38 C11 1_555 1_555
C12 N7 1_555 1_555
H39 C12 1_555 1_555
H40 C12 1_555 1_555
C1A C1 1_555 1_555
O42A C1A 1_555 1_555
O43A Tb1 1_555 1_555
C2A C2 1_555 1_555
O45A C2A 1_555 1_555
O44A Cu1 1_555 1_555
C3A H1A 1_555 1_555
H2A C3A 1_555 1_555
C4A C3A 1_555 1_555
H3A C4A 1_555 1_555
H4A C4A 1_555 1_555
Cu1A O45A 1_555 1_555
N1A C3A 1_555 1_555
H13A N1A 1_555 1_555
H14A N1A 1_555 1_555
N2A C4A 1_555 1_555
H15A N2A 1_555 1_555
H16A N2A 1_555 1_555
O1A Tb1A 1_555 1_555
O2A Tb1A 1_555 1_555
O3A Tb1A 1_555 1_555
O4A Tb1A 1_555 1_555
O5A W1A 1_555 1_555
O6A W1A 1_555 1_555
O7A Cu1A 1_555 1_555
O8A W1A 1_555 1_555
O9A W2A 1_555 1_555
O10A W2A 1_555 1_555
O11A W2A 1_555 1_555
O12A W2A 1_555 1_555
O13A P1A 1_555 1_555
O14A P1A 1_555 1_555
O15A W4A 1_555 1_555
O16A W4A 1_555 1_555
O17A W4A 1_555 1_555
O18A W6A 1_555 1_555
O19A W6A 1_555 1_555
O20A W6A 1_555 1_555
O21A P1A 1_555 1_555
O22A W7A 1_555 1_555
O23A W7A 1_555 1_555
O24A W8A 1_555 1_555
O25A W8A 1_555 1_555
O26A W8A 1_555 1_555
O27A W7A 1_555 1_555
O28A W5A 1_555 1_555
O29A W9A 1_555 1_555
O30A W10A 1_555 1_555
O31A W10A 1_555 1_555
O32A W5A 1_555 1_555
O33A W3A 1_555 1_555
O34A W5A 1_555 1_555
O35A W9A 1_555 1_555
O36A W3A 1_555 1_555
O37A P1A 1_555 1_555
O38A W11A 1_555 1_555
O39A W3A 1_555 1_555
O40A Tb1A 1_555 1_555
O41A Tb1A 1_555 1_555
Tb1A O42A_2 1_555 1_555
W1A O1A 1_555 1_555
W2A O8A 1_555 1_555
W3A O6A 1_555 1_555
W4A O3A 1_555 1_555
W5A O17A 1_555 1_555
W6A O4A 1_555 1_555
W7A O19A 1_555 1_555
W8A O20A 1_555 1_555
W9A O11A 1_555 1_555
W10A O10A 1_555 1_555
W11A O2A 1_555 1_555
C5A H5A 1_555 1_555
H6A C5A 1_555 1_555
C6A C5A 1_555 1_555
H7A C6A 1_555 1_555
H8A C6A 1_555 1_555
C7A H9A 1_555 1_555
H10A C7A 1_555 1_555
C8A C7A 1_555 1_555
H11A C8A 1_555 1_555
H12A C8A 1_555 1_555
Cu2A O42A 1_555 1_555
N3A C5A 1_555 1_555
H17A N3A 1_555 1_555
H18A N3A 1_555 1_555
N4A C6A 1_555 1_555
H19A N4A 1_555 1_555
H20A N4A 1_555 1_555
N5A C7A 1_555 1_555
H21A N5A 1_555 1_555
H22A N5A 1_555 1_555
N6A C8A 1_555 1_555
H23A N6A 1_555 1_555
H24A N6A 1_555 1_555
O43_2 Tb1A 1_555 1_555
Tb1A_2 O43 1_555 1_555
Cu1 N2 1_555 1_555
Cu1 O45 1_555 1_555
Cu2 N4 1_555 1_555
Cu2 N5 1_555 1_555
Cu2 N6 1_555 1_555
O7 W1 1_555 1_555
O7 W11 1_555 1_555
O12 W3 1_555 1_555
O13 W2 1_555 1_555
O13 W9 1_555 1_555
O13 W10 1_555 1_555
O14 W1 1_555 1_555
O14 W11 1_555 1_555
O16 W6 1_555 1_555
O21 W6 1_555 1_555
O21 W8 1_555 1_555
O23 W8 1_555 1_555
O25 W10 1_555 1_555
O26 W11 1_555 1_555
O27 W9 1_555 1_555
O28 W7 1_555 1_555
O29 W10 1_555 1_555
O31 W11 1_555 1_555
O33 W4 1_555 1_555
O34 W9 1_555 1_555
O36 W5 1_555 1_555
O37 W3 1_555 1_555
O37 W4 1_555 1_555
Cu3 N9 1_555 1_555
Cu3 N10 1_555 1_555
C11 C12 1_555 1_555
C1A O43A 1_555 1_555
O42A Tb1A_2 1_555 1_555
C2A O44A 1_555 1_555
Cu1A N1A 1_555 1_555
Cu1A N2A 1_555 1_555
O7A W1A 1_555 1_555
O7A W11A 1_555 1_555
O12A W3A 1_555 1_555
O13A W2A 1_555 1_555
O13A W9A 1_555 1_555
O13A W10A 1_555 1_555
O14A W1A 1_555 1_555
O14A W11A 1_555 1_555
O16A W6A 1_555 1_555
O21A W6A 1_555 1_555
O21A W8A 1_555 1_555
O23A W8A 1_555 1_555
O25A W10A 1_555 1_555
O26A W11A 1_555 1_555
O27A W9A 1_555 1_555
O28A W7A 1_555 1_555
O29A W10A 1_555 1_555
O31A W11A 1_555 1_555
O33A W4A 1_555 1_555
O34A W9A 1_555 1_555
O36A W5A 1_555 1_555
O37A W3A 1_555 1_555
O37A W4A 1_555 1_555
Cu2A N3A 1_555 1_555
Cu2A N4A 1_555 1_555
Cu2A N5A 1_555 1_555
Cu2A N6A 1_555 1_555

#END
