
#######################################################################
#
#                 Cambridge Crystallographic Data Centre
#                                CCDC 
#
#######################################################################
#
# If this CIF has been generated from an entry in the Cambridge 
# Structural Database, then it will include bibliographic, chemical, 
# crystal, experimental, refinement or atomic coordinate data resulting 
# from the CCDC's data processing and validation procedures.
#
#######################################################################

data_VICYOX
_symmetry_cell_setting           triclinic
_symmetry_space_group_name_H-M   'P -1'
_symmetry_Int_Tables_number      2
_space_group_name_Hall           '-P 1'
loop_
_symmetry_equiv_pos_site_id
_symmetry_equiv_pos_as_xyz
1 x,y,z
2 -x,-y,-z
_cell_length_a                   9.5593(13)
_cell_length_b                   10.2131(14)
_cell_length_c                   11.9424(16)
_cell_angle_alpha                110.091(2)
_cell_angle_beta                 99.943(2)
_cell_angle_gamma                95.800(2)
_cell_volume                     1062.21
loop_
_atom_site_label
_atom_site_type_symbol
_atom_site_fract_x
_atom_site_fract_y
_atom_site_fract_z
Zn1 Zn 1.0000 0.0000 0.5000
Zn2 Zn 0.03414(8) 0.29728(8) 0.73249(7)
C1 C 0.7638(7) 0.1740(7) 0.5650(6)
C2 C 0.6068(7) 0.1694(6) 0.5188(6)
C3 C 0.5169(7) 0.2210(6) 0.5976(6)
H1 H 0.5555 0.2645 0.6812
C4 C 0.3715(7) 0.2086(7) 0.5532(6)
C5 C 0.3154(7) 0.1487(8) 0.4278(6)
H2 H 0.2184 0.1443 0.3960
C6 C 0.4055(8) 0.0961(9) 0.3515(6)
C7 C 0.5491(8) 0.1023(8) 0.3939(6)
H3 H 0.6069 0.0626 0.3405
C8 C 0.2743(7) 0.2554(7) 0.6405(6)
C9 C 0.2048(10) -0.0662(9) 0.0352(7)
C10 C 0.1730(8) -0.2112(8) -0.0189(7)
H4 H 0.1945 -0.2674 0.0265
C11 C 0.1091(7) -0.2715(7) -0.1409(6)
C12 C 0.0770(7) -0.1854(7) -0.2066(6)
H5 H 0.0375 -0.2263 -0.2902
C13 C 0.1029(7) -0.0400(7) -0.1493(6)
C14 C 0.1665(9) 0.0205(7) -0.0274(6)
H6 H 0.1835 0.1183 0.0126
C15 C 0.0761(7) -0.4317(7) -0.2060(7)
C16 C 0.0573(7) 0.0494(7) -0.2225(6)
O1 O 0.8258(5) 0.0939(5) 0.4930(4)
O2 O 0.8231(5) 0.2594(5) 0.6720(4)
O3 O 0.1366(4) 0.2157(4) 0.5982(4)
O4 O 0.3267(5) 0.3293(5) 0.7487(4)
O5 O 0.0812(5) -0.5050(4) -0.1421(4)
O6 O 0.0425(6) -0.4834(5) -0.3209(4)
O7 O 0.0033(5) -0.0112(5) -0.3322(4)
O8 O 0.0790(5) 0.1825(5) -0.1646(4)
N1 N 0.3579(5) 0.0030(5) 0.2170(4)
N2 N 0.2443(5) 0.0272(5) 0.1774(4)
O9 O 0.4261(8) -0.0922(7) 0.1670(6)
Zn2A Zn 0.96586(8) -0.29728(8) -0.73249(7)
C1A C 0.2362(7) -0.1740(7) -0.5650(6)
C2A C 0.3932(7) -0.1694(6) -0.5188(6)
C3A C 0.4831(7) -0.2210(6) -0.5976(6)
H1A H 0.4445 -0.2645 -0.6812
C4A C 0.6285(7) -0.2086(7) -0.5532(6)
C5A C 0.6846(7) -0.1487(8) -0.4278(6)
H2A H 0.7816 -0.1443 -0.3960
C6A C 0.5945(8) -0.0961(9) -0.3515(6)
C7A C 0.4509(8) -0.1023(8) -0.3939(6)
H3A H 0.3931 -0.0626 -0.3405
C8A C 0.7257(7) -0.2554(7) -0.6405(6)
C9A C 0.7952(10) 0.0662(9) -0.0352(7)
C10A C 0.8270(8) 0.2112(8) 0.0189(7)
H4A H 0.8055 0.2674 -0.0265
C11A C 0.8909(7) 0.2715(7) 0.1409(6)
C12A C 0.9230(7) 0.1854(7) 0.2066(6)
H5A H 0.9625 0.2263 0.2902
C13A C 0.8971(7) 0.0400(7) 0.1493(6)
C14A C 0.8335(9) -0.0205(7) 0.0274(6)
H6A H 0.8165 -0.1183 -0.0126
C15A C 0.9239(7) 0.4317(7) 0.2060(7)
C16A C 0.9427(7) -0.0494(7) 0.2225(6)
O1A O 0.1742(5) -0.0939(5) -0.4930(4)
O2A O 0.1769(5) -0.2594(5) -0.6720(4)
O3A O 0.8634(4) -0.2157(4) -0.5982(4)
O4A O 0.6733(5) -0.3293(5) -0.7487(4)
O5A O 0.9188(5) 0.5050(4) 0.1421(4)
O6A O 0.9575(6) 0.4834(5) 0.3209(4)
O7A O 0.9967(5) 0.0112(5) 0.3322(4)
O8A O 0.9210(5) -0.1825(5) 0.1646(4)
N1A N 0.6421(5) -0.0030(5) -0.2170(4)
N2A N 0.7557(5) -0.0272(5) -0.1774(4)
O9A O 0.5739(8) 0.0922(7) -0.1670(6)
Zn1_2 Zn 0.0000 0.0000 -0.5000
Zn1_3 Zn 0.0000 0.0000 0.5000
Zn1_4 Zn 1.0000 0.0000 -0.5000
Zn2_2 Zn 0.03414(8) -0.70272(8) -0.26751(7)
Zn2_3 Zn 0.03414(8) 0.29728(8) -0.26751(7)
Zn2_4 Zn 1.03414(8) 0.29728(8) 0.73249(7)
Zn2A_2 Zn -0.03414(8) -0.29728(8) -0.73249(7)
Zn2A_3 Zn 0.96586(8) -0.29728(8) 0.26751(7)
Zn2A_4 Zn 0.96586(8) 0.70272(8) 0.26751(7)
O1A_2 O 1.1742(5) -0.0939(5) 0.5070(4)
O2_2 O -0.1769(5) 0.2594(5) 0.6720(4)
O2A_2 O 1.1769(5) -0.2594(5) -0.6720(4)
O3_2 O 1.1366(4) 0.2157(4) 0.5982(4)
O3A_2 O 0.8634(4) -0.2157(4) 0.4018(4)
O5_2 O 0.0812(5) 0.4950(4) 0.8579(4)
O5A_2 O 0.9188(5) -0.4950(4) -0.8579(4)
O6_2 O 0.0425(6) 0.5166(5) 0.6791(4)
O6A_2 O 0.9575(6) -0.5166(5) -0.6791(4)
O7_2 O 1.0033(5) -0.0112(5) 0.6678(4)
O8_2 O 0.0790(5) 0.1825(5) 0.8354(4)
O8A_2 O 0.9210(5) -0.1825(5) -0.8354(4)
C17 C 0.2717(10) 0.4273(9) 0.0728(9)
H7 H 0.1903 0.4567 0.0409
C18 C 0.2985(9) 0.4440(8) 0.1900(7)
H8 H 0.2368 0.4842 0.2393
C19 C 0.4214(9) 0.4002(8) 0.2383(8)
C20 C 0.5092(10) 0.3399(10) 0.1617(10)
H9 H 0.5914 0.3098 0.1912
C21 C 0.4730(11) 0.3250(10) 0.0407(9)
H10 H 0.5303 0.2831 -0.0123
N3 N 0.3566(9) 0.3702(8) -0.0006(7)
H11 H 0.3360 0.3623 -0.0759
N4 N 0.4543(9) 0.4221(8) 0.3581(7)
H12 H 0.5315 0.3984 0.3885
H13 H 0.3981 0.4599 0.4043
O10 O 0.2233(5) 0.5252(5) 0.5028(4)
H14 H 0.1851 0.5500 0.5645
H15 H 0.1426 0.4957 0.4517
loop_
_geom_bond_atom_site_label_1
_geom_bond_atom_site_label_2
_geom_bond_site_symmetry_1
_geom_bond_site_symmetry_2
Zn1 O1 1_555 1_555
Zn2 O3 1_555 1_555
C1 C2 1_555 1_555
C2 C3 1_555 1_555
C3 H1 1_555 1_555
C4 C3 1_555 1_555
C5 C4 1_555 1_555
H2 C5 1_555 1_555
C6 C5 1_555 1_555
C7 C2 1_555 1_555
H3 C7 1_555 1_555
C8 C4 1_555 1_555
C9 C10 1_555 1_555
C10 H4 1_555 1_555
C11 C10 1_555 1_555
C12 C11 1_555 1_555
H5 C12 1_555 1_555
C13 C12 1_555 1_555
C14 C9 1_555 1_555
H6 C14 1_555 1_555
C15 C11 1_555 1_555
C16 C13 1_555 1_555
O1 C1 1_555 1_555
O2 C1 1_555 1_555
O3 C8 1_555 1_555
O4 C8 1_555 1_555
O5 C15 1_555 1_555
O6 C15 1_555 1_555
O7 C16 1_555 1_555
O8 C16 1_555 1_555
N1 C6 1_555 1_555
N2 C9 1_555 1_555
O9 N1 1_555 1_555
C17 H7 1_555 1_555
C18 C17 1_555 1_555
H8 C18 1_555 1_555
C19 C18 1_555 1_555
C20 C19 1_555 1_555
H9 C20 1_555 1_555
C21 C20 1_555 1_555
H10 C21 1_555 1_555
N3 C17 1_555 1_555
H11 N3 1_555 1_555
N4 C19 1_555 1_555
H12 N4 1_555 1_555
H13 N4 1_555 1_555
O10 H14 1_555 1_555
H15 O10 1_555 1_555
Zn2A O3A 1_555 1_555
C1A C2A 1_555 1_555
C2A C3A 1_555 1_555
C3A H1A 1_555 1_555
C4A C3A 1_555 1_555
C5A C4A 1_555 1_555
H2A C5A 1_555 1_555
C6A C5A 1_555 1_555
C7A C2A 1_555 1_555
H3A C7A 1_555 1_555
C8A C4A 1_555 1_555
C9A C10A 1_555 1_555
C10A H4A 1_555 1_555
C11A C10A 1_555 1_555
C12A C11A 1_555 1_555
H5A C12A 1_555 1_555
C13A C12A 1_555 1_555
C14A C9A 1_555 1_555
H6A C14A 1_555 1_555
C15A C11A 1_555 1_555
C16A C13A 1_555 1_555
O1A C1A 1_555 1_555
O2A C1A 1_555 1_555
O3A C8A 1_555 1_555
O4A C8A 1_555 1_555
O5A C15A 1_555 1_555
O6A C15A 1_555 1_555
O7A Zn1 1_555 1_555
O8A C16A 1_555 1_555
N1A C6A 1_555 1_555
N2A C9A 1_555 1_555
O9A N1A 1_555 1_555
Zn1_2 O7 1_555 1_555
Zn1_3 O3 1_555 1_555
Zn1_4 O3A 1_555 1_555
Zn2_2 O5 1_555 1_555
Zn2_3 O8 1_555 1_555
Zn2_4 O2 1_555 1_555
Zn2A_2 O2A 1_555 1_555
Zn2A_3 O8A 1_555 1_555
Zn2A_4 O5A 1_555 1_555
O1A_2 Zn1 1_555 1_555
O2_2 Zn2 1_555 1_555
O2A_2 Zn2A 1_555 1_555
O3_2 Zn1 1_555 1_555
O3A_2 Zn1 1_555 1_555
O5_2 Zn2 1_555 1_555
O5A_2 Zn2A 1_555 1_555
O6_2 Zn2 1_555 1_555
O6A_2 Zn2A 1_555 1_555
O7_2 Zn1 1_555 1_555
O8_2 Zn2 1_555 1_555
O8A_2 Zn2A 1_555 1_555
C6 C7 1_555 1_555
C13 C14 1_555 1_555
O6 Zn2_2 1_555 1_555
N1 N2 1_555 1_555
C21 N3 1_555 1_555
C6A C7A 1_555 1_555
C13A C14A 1_555 1_555
C16A O7A 1_555 1_555
O1A Zn1_2 1_555 1_555
O6A Zn2A_4 1_555 1_555
N1A N2A 1_555 1_555
Zn2_4 O3_2 1_555 1_555
Zn2A_3 O3A_2 1_555 1_555

#END
