
#######################################################################
#
#                 Cambridge Crystallographic Data Centre
#                                CCDC 
#
#######################################################################
#
# If this CIF has been generated from an entry in the Cambridge 
# Structural Database, then it will include bibliographic, chemical, 
# crystal, experimental, refinement or atomic coordinate data resulting 
# from the CCDC's data processing and validation procedures.
#
#######################################################################

data_VICYAI
_symmetry_cell_setting           triclinic
_symmetry_space_group_name_H-M   'P -1'
_symmetry_Int_Tables_number      2
_space_group_name_Hall           '-P 1'
loop_
_symmetry_equiv_pos_site_id
_symmetry_equiv_pos_as_xyz
1 x,y,z
2 -x,-y,-z
_cell_length_a                   8.8859(10)
_cell_length_b                   9.4092(10)
_cell_length_c                   10.0290(11)
_cell_angle_alpha                88.6710(10)
_cell_angle_beta                 69.2790(10)
_cell_angle_gamma                77.1820(10)
_cell_volume                     763.325
loop_
_atom_site_label
_atom_site_type_symbol
_atom_site_fract_x
_atom_site_fract_y
_atom_site_fract_z
Pt1 Pt 0.14772(3) 0.38305(3) 0.32843(3)
Cl1 Cl 0.3088(2) 0.2405(3) 0.4385(2)
Cl2 Cl 0.3732(3) 0.4647(3) 0.1875(3)
N1 N -0.0570(7) 0.3133(6) 0.4359(6)
N2 N -0.0057(7) 0.5018(6) 0.2418(6)
C1 C -0.1885(9) 0.3654(8) 0.3949(8)
C2 C -0.3318(9) 0.3234(9) 0.4535(9)
H1 H -0.4184 0.3574 0.4209
C3 C -0.3493(10) 0.2286(9) 0.5633(9)
H2 H -0.4477 0.1986 0.6050
C4 C -0.2197(9) 0.1793(8) 0.6101(8)
C5 C -0.0740(9) 0.2222(8) 0.5424(8)
H3 H 0.0152 0.1869 0.5714
C6 C -0.1585(9) 0.4729(8) 0.2846(7)
C7 C -0.2757(10) 0.5415(9) 0.2294(8)
H4 H -0.3782 0.5177 0.2575
C8 C -0.2383(10) 0.6468(9) 0.1315(9)
H5 H -0.3157 0.6944 0.0930
C9 C -0.0874(10) 0.6797(8) 0.0921(8)
C10 C 0.0291(9) 0.6051(8) 0.1465(8)
H6 H 0.1330 0.6263 0.1170
C11 C -0.2383(11) 0.0860(9) 0.7364(8)
C12 C -0.0372(11) 0.7909(8) -0.0165(9)
O1 O -0.3773(8) 0.0803(7) 0.8173(6)
O2 O -0.1023(8) 0.0217(8) 0.7500(7)
O3 O 0.1007(8) 0.8071(7) -0.0641(7)
Rb1 Rb 0.58620(13) 0.12023(12) 0.11828(11)
O4 O 0.7524(11) -0.0206(9) 0.2937(9)
O5 O -0.1591(8) 0.8599(7) -0.0509(6)
H7 H -0.1590 0.9198 -0.1018
O1_2 O 0.6227(8) 0.0803(7) -0.1827(6)
O1A O 0.3773(8) -0.0803(7) 0.1827(6)
O3A O 0.8993(8) 0.1929(7) 0.0641(7)
Rb1_2 Rb -0.41380(13) 0.12023(12) 1.11828(11)
Rb1A Rb -0.58620(13) -0.12023(12) 0.88172(11)
Rb1A_2 Rb 0.41380(13) 0.87977(12) -0.11828(11)
Rb1_3 Rb -0.41380(13) 1.12023(12) 0.11828(11)
O5_2 O 0.8409(8) -0.1401(7) -0.0509(6)
H7_2 H 0.8410 -0.0802 -0.1018
loop_
_geom_bond_atom_site_label_1
_geom_bond_atom_site_label_2
_geom_bond_site_symmetry_1
_geom_bond_site_symmetry_2
Pt1 Cl1 1_555 1_555
Cl1 Rb1 1_555 1_555
Cl2 Pt1 1_555 1_555
N1 Pt1 1_555 1_555
N2 Pt1 1_555 1_555
C1 N1 1_555 1_555
C2 C1 1_555 1_555
H1 C2 1_555 1_555
C3 C2 1_555 1_555
H2 C3 1_555 1_555
C4 C3 1_555 1_555
C5 N1 1_555 1_555
H3 C5 1_555 1_555
C6 N2 1_555 1_555
C7 C6 1_555 1_555
H4 C7 1_555 1_555
C8 C7 1_555 1_555
H5 C8 1_555 1_555
C9 C8 1_555 1_555
C10 N2 1_555 1_555
H6 C10 1_555 1_555
C11 C4 1_555 1_555
C12 C9 1_555 1_555
O1 C11 1_555 1_555
O2 C11 1_555 1_555
O3 C12 1_555 1_555
Rb1 Cl2 1_555 1_555
O4 Rb1 1_555 1_555
O5 C12 1_555 1_555
H7 O5 1_555 1_555
O1_2 Rb1 1_555 1_555
O1A Rb1 1_555 1_555
O3A Rb1 1_555 1_555
Rb1_2 O1 1_555 1_555
Rb1A O1 1_555 1_555
Rb1A_2 O3 1_555 1_555
Rb1_3 O5 1_555 1_555
O5_2 Rb1 1_555 1_555
H7_2 O5_2 1_555 1_555
C1 C6 1_555 1_555
C4 C5 1_555 1_555
C9 C10 1_555 1_555

#END
