
#######################################################################
#
#                 Cambridge Crystallographic Data Centre
#                                CCDC 
#
#######################################################################
#
# If this CIF has been generated from an entry in the Cambridge 
# Structural Database, then it will include bibliographic, chemical, 
# crystal, experimental, refinement or atomic coordinate data resulting 
# from the CCDC's data processing and validation procedures.
#
#######################################################################

data_VICYUD
_symmetry_cell_setting           monoclinic
_symmetry_space_group_name_H-M   'P 21/c'
_symmetry_Int_Tables_number      14
_space_group_name_Hall           '-P 2ybc'
loop_
_symmetry_equiv_pos_site_id
_symmetry_equiv_pos_as_xyz
1 x,y,z
2 -x,1/2+y,1/2-z
3 -x,-y,-z
4 x,1/2-y,1/2+z
_cell_length_a                   13.8359(19)
_cell_length_b                   12.9970(18)
_cell_length_c                   24.900(3)
_cell_angle_alpha                90
_cell_angle_beta                 118.689(6)
_cell_angle_gamma                90
_cell_volume                     3927.96
loop_
_atom_site_label
_atom_site_type_symbol
_atom_site_fract_x
_atom_site_fract_y
_atom_site_fract_z
Zn1 Zn 0.73448(13) 0.72333(12) 0.16127(8)
Zn2 Zn 0.22303(13) 0.39360(12) 0.22825(8)
C1 C 0.5922(14) 0.7845(12) 0.2251(9)
C2 C 0.4832(11) 0.7533(10) 0.1876(7)
C3 C 0.4366(13) 0.6799(11) 0.2100(7)
H1 H 0.4788 0.6592 0.2505
C4 C 0.335(2) 0.6365(14) 0.1776(12)
C5 C 0.2690(18) 0.6676(14) 0.1189(12)
H2 H 0.2010 0.6363 0.0953
C6 C 0.3050(14) 0.7494(16) 0.0937(7)
C7 C 0.4199(14) 0.7896(11) 0.1302(8)
H3 H 0.4473 0.8386 0.1137
C8 C 0.1765(16) 0.8726(13) -0.0571(9)
C9 C 0.2023(12) 0.9578(12) -0.0805(7)
H4 H 0.2600 1.0006 -0.0548
C10 C 0.1423(12) 0.9795(10) -0.1421(7)
C11 C 0.0499(11) 0.9155(11) -0.1802(7)
H5 H 0.0106 0.9282 -0.2220
C12 C 0.0183(11) 0.8349(10) -0.1553(7)
C13 C 0.0809(12) 0.8113(11) -0.0950(7)
H6 H 0.0621 0.7558 -0.0783
C14 C 0.299(2) 0.5523(18) 0.2002(13)
C15 C -0.0802(12) 0.7720(11) -0.1977(8)
C16 C 0.1765(13) 1.0617(12) -0.1690(8)
C17 C 0.5576(16) 0.7679(15) 0.0272(9)
H7 H 0.6018 0.8231 0.0288
C18 C 0.4615(18) 0.7517(17) -0.0265(10)
H8 H 0.4417 0.8007 -0.0572
C19 C 0.4035(19) 0.6824(19) -0.0365(10)
H9 H 0.3434 0.6727 -0.0752
C20 C 0.4265(15) 0.6115(15) 0.0123(9)
C21 C 0.3626(17) 0.5150(17) 0.0180(11)
H10 H 0.2974 0.4960 -0.0163
C22 C 0.396(2) 0.4594(19) 0.0683(14)
H11 H 0.3524 0.4045 0.0681
C23 C 0.4925(16) 0.4802(13) 0.1211(12)
C24 C 0.520(2) 0.4272(17) 0.1747(13)
H12 H 0.4758 0.3742 0.1756
C25 C 0.613(2) 0.4537(17) 0.2254(12)
H13 H 0.6329 0.4197 0.2622
C26 C 0.6815(15) 0.5361(14) 0.2225(10)
H14 H 0.7478 0.5505 0.2574
C27 C 0.5589(14) 0.5680(13) 0.1220(10)
C28 C 0.5266(14) 0.6306(13) 0.0691(8)
N1 N 0.5894(10) 0.7124(10) 0.0742(7)
N2 N 0.6543(12) 0.5907(9) 0.1733(7)
N3 N 0.2272(14) 0.7738(12) 0.0296(8)
N4 N 0.2487(14) 0.8465(12) 0.0086(8)
O1 O 0.6466(8) 0.8194(7) 0.2001(5)
O2 O 0.6348(9) 0.7907(9) 0.2803(6)
O3 O 0.3607(12) 0.5292(10) 0.2569(8)
O4 O 0.2195(12) 0.5087(10) 0.1719(7)
O5 O -0.1029(7) 0.6976(7) -0.1728(4)
O6 O -0.1331(8) 0.7985(7) -0.2514(5)
O7 O 0.2231(8) 1.1380(8) -0.1382(5)
O8 O 0.1536(7) 1.0480(7) -0.2242(5)
O9 O 0.3249(15) 0.9274(14) 0.0358(9)
O10 O 0.8214(11) 0.6300(12) 0.1312(7)
H15 H 0.8360 0.6136 0.1028
H16 H 0.8082 0.6806 0.1070
Zn1B Zn 0.26552(13) 1.27667(12) -0.16127(8)
Zn1C Zn -0.26552(13) 0.77667(12) -0.33873(8)
Zn2A Zn 0.77697(13) 0.89360(12) 0.27175(8)
Zn2B Zn -0.22303(13) 0.60640(12) -0.22825(8)
Zn2C Zn 0.22303(13) 1.10640(12) -0.27175(8)
O1A O 0.3534(8) 0.3194(7) 0.2999(5)
O2A O 0.3652(9) 0.2907(9) 0.2197(6)
O5B O 0.1029(7) 0.3024(7) 0.1728(4)
O6C O 0.8669(8) 0.7015(7) 0.2486(5)
O7B O 0.7769(8) 0.8620(8) 0.1382(5)
O8C O 0.1536(7) 0.4520(7) 0.2758(5)
C29 C 0.8762(17) 0.3687(19) 0.2109(12)
H17 H 0.9445 0.3996 0.2341
C30 C 0.911(2) 0.256(2) 0.3044(11)
H18 H 0.9209 0.3156 0.3291
H19 H 0.9811 0.2286 0.3130
H20 H 0.8706 0.2046 0.3136
C31 C 0.7423(14) 0.2255(15) 0.1986(11)
H21 H 0.7419 0.1623 0.2185
H22 H 0.7385 0.2104 0.1599
H23 H 0.6799 0.2664 0.1921
N5 N 0.8472(13) 0.2841(15) 0.2384(9)
O11 O 0.8161(17) 0.4030(16) 0.1583(9)
loop_
_geom_bond_atom_site_label_1
_geom_bond_atom_site_label_2
_geom_bond_site_symmetry_1
_geom_bond_site_symmetry_2
Zn1 N1 1_555 1_555
Zn2 O3 1_555 1_555
C1 C2 1_555 1_555
C2 C3 1_555 1_555
C3 H1 1_555 1_555
C4 C3 1_555 1_555
C5 C4 1_555 1_555
H2 C5 1_555 1_555
C6 C5 1_555 1_555
C7 C2 1_555 1_555
H3 C7 1_555 1_555
C8 C9 1_555 1_555
C9 H4 1_555 1_555
C10 C9 1_555 1_555
C11 C10 1_555 1_555
H5 C11 1_555 1_555
C12 C11 1_555 1_555
C13 C8 1_555 1_555
H6 C13 1_555 1_555
C14 C4 1_555 1_555
C15 C12 1_555 1_555
C16 C10 1_555 1_555
C17 H7 1_555 1_555
C18 C17 1_555 1_555
H8 C18 1_555 1_555
C19 C18 1_555 1_555
H9 C19 1_555 1_555
C20 C19 1_555 1_555
C21 C20 1_555 1_555
H10 C21 1_555 1_555
C22 C21 1_555 1_555
H11 C22 1_555 1_555
C23 C22 1_555 1_555
C24 C23 1_555 1_555
H12 C24 1_555 1_555
C25 C24 1_555 1_555
H13 C25 1_555 1_555
C26 C25 1_555 1_555
H14 C26 1_555 1_555
C27 C23 1_555 1_555
C28 C20 1_555 1_555
N1 C17 1_555 1_555
N2 Zn1 1_555 1_555
N3 C6 1_555 1_555
N4 C8 1_555 1_555
O1 Zn1 1_555 1_555
O2 C1 1_555 1_555
O3 C14 1_555 1_555
O4 Zn2 1_555 1_555
O5 C15 1_555 1_555
O6 C15 1_555 1_555
O7 C16 1_555 1_555
O8 C16 1_555 1_555
O9 N4 1_555 1_555
O10 Zn1 1_555 1_555
H15 O10 1_555 1_555
H16 O10 1_555 1_555
C29 H17 1_555 1_555
C30 H18 1_555 1_555
H19 C30 1_555 1_555
H20 C30 1_555 1_555
C31 H21 1_555 1_555
H22 C31 1_555 1_555
H23 C31 1_555 1_555
N5 C29 1_555 1_555
O11 C29 1_555 1_555
Zn1B O7 1_555 1_555
Zn1C O6 1_555 1_555
Zn2A O1 1_555 1_555
Zn2B O5 1_555 1_555
Zn2C O8 1_555 1_555
O1A Zn2 1_555 1_555
O2A Zn2 1_555 1_555
O5B Zn2 1_555 1_555
O6C Zn1 1_555 1_555
O7B Zn1 1_555 1_555
O8C Zn2 1_555 1_555
C1 O1 1_555 1_555
C6 C7 1_555 1_555
C12 C13 1_555 1_555
C14 O4 1_555 1_555
C26 N2 1_555 1_555
C27 C28 1_555 1_555
C27 N2 1_555 1_555
C28 N1 1_555 1_555
N3 N4 1_555 1_555
O2 Zn2A 1_555 1_555
C30 N5 1_555 1_555
C31 N5 1_555 1_555

#END
