
#######################################################################
#
#                 Cambridge Crystallographic Data Centre
#                                CCDC 
#
#######################################################################
#
# If this CIF has been generated from an entry in the Cambridge 
# Structural Database, then it will include bibliographic, chemical, 
# crystal, experimental, refinement or atomic coordinate data resulting 
# from the CCDC's data processing and validation procedures.
#
#######################################################################

data_VIDCAN
_symmetry_cell_setting           monoclinic
_symmetry_space_group_name_H-M   'P 21/c'
_symmetry_Int_Tables_number      14
_space_group_name_Hall           '-P 2ybc'
loop_
_symmetry_equiv_pos_site_id
_symmetry_equiv_pos_as_xyz
1 x,y,z
2 -x,1/2+y,1/2-z
3 -x,-y,-z
4 x,1/2-y,1/2+z
_cell_length_a                   16.173(3)
_cell_length_b                   9.987(2)
_cell_length_c                   12.728(3)
_cell_angle_alpha                90
_cell_angle_beta                 106.00(3)
_cell_angle_gamma                90
_cell_volume                     1976.18
loop_
_atom_site_label
_atom_site_type_symbol
_atom_site_fract_x
_atom_site_fract_y
_atom_site_fract_z
Sn1 Sn 0.461547(14) 0.56870(2) 0.273928(18)
O1 O 0.37149(16) 0.4081(2) 0.2850(2)
O2 O 0.45200(16) 0.2554(3) 0.2353(2)
O3 O 0.03331(17) 0.3038(2) 0.4847(2)
H1 H 0.0454 0.2417 0.4469
N1 N 0.0294(2) 0.0993(3) 0.3695(3)
C1 C 0.3819(3) 0.7089(4) 0.3249(3)
H2 H 0.3969 0.7109 0.4050
H3 H 0.3215 0.6825 0.2959
H4 H 0.3904 0.7981 0.2975
C2 C 0.5644(2) 0.4828(4) 0.3955(3)
H5 H 0.5597 0.5084 0.4680
H6 H 0.6192 0.5151 0.3863
H7 H 0.5619 0.3850 0.3885
C3 C 0.4440(3) 0.5426(4) 0.1038(3)
H8 H 0.3925 0.5912 0.0631
H9 H 0.4371 0.4471 0.0858
H10 H 0.4943 0.5774 0.0839
C4 C 0.3894(2) 0.2864(4) 0.2707(3)
C5 C 0.3301(2) 0.1804(3) 0.2942(3)
H11 H 0.3637 0.0958 0.3150
C6 C 0.2939(2) 0.2216(4) 0.3889(3)
H12 H 0.2684 0.3122 0.3745
H13 H 0.3414 0.2257 0.4572
C7 C 0.2253(2) 0.1234(4) 0.4041(3)
H14 H 0.2522 0.0354 0.4276
H15 H 0.2007 0.1569 0.4622
C8 C 0.1537(2) 0.1064(4) 0.2986(3)
H16 H 0.1295 0.1975 0.2759
C9 C 0.1913(2) 0.0548(4) 0.2086(3)
H17 H 0.2191 -0.0331 0.2302
H18 H 0.1447 0.0426 0.1402
C10 C 0.2572(2) 0.1541(4) 0.1896(3)
H19 H 0.2280 0.2397 0.1629
H20 H 0.2820 0.1187 0.1322
C11 C 0.0799(2) 0.0197(4) 0.3127(3)
H21 H 0.0432 -0.0091 0.2405
H22 H 0.1028 -0.0612 0.3559
C12 C -0.0495(2) 0.0737(4) 0.3655(3)
C13 C -0.0964(3) -0.0465(4) 0.3071(4)
H23 H -0.0636 -0.0853 0.2603
H24 H -0.1534 -0.0193 0.2622
H25 H -0.1027 -0.1132 0.3609
C14 C -0.0934(2) 0.1660(4) 0.4224(3)
C15 C -0.0493(2) 0.2770(4) 0.4812(3)
C16 C -0.0912(3) 0.3638(5) 0.5353(4)
H26 H -0.0611 0.4382 0.5744
C17 C -0.1761(3) 0.3423(5) 0.5322(4)
H27 H -0.2040 0.4010 0.5703
C18 C -0.2207(3) 0.2355(5) 0.4739(4)
H28 H -0.2795 0.2217 0.4709
C19 C -0.1799(3) 0.1495(5) 0.4204(3)
H29 H -0.2112 0.0764 0.3808
Sn1A Sn 0.538453(14) 0.06870(2) 0.226072(18)
O2A O 0.54800(16) 0.7554(3) 0.2647(2)
loop_
_geom_bond_atom_site_label_1
_geom_bond_atom_site_label_2
_geom_bond_site_symmetry_1
_geom_bond_site_symmetry_2
Sn1 O1 1_555 1_555
O1 C4 1_555 1_555
O2 C4 1_555 1_555
O3 H1 1_555 1_555
N1 C11 1_555 1_555
C1 Sn1 1_555 1_555
H2 C1 1_555 1_555
H3 C1 1_555 1_555
H4 C1 1_555 1_555
C2 Sn1 1_555 1_555
H5 C2 1_555 1_555
H6 C2 1_555 1_555
H7 C2 1_555 1_555
C3 Sn1 1_555 1_555
H8 C3 1_555 1_555
H9 C3 1_555 1_555
H10 C3 1_555 1_555
C4 C5 1_555 1_555
C5 H11 1_555 1_555
C6 C5 1_555 1_555
H12 C6 1_555 1_555
H13 C6 1_555 1_555
C7 C6 1_555 1_555
H14 C7 1_555 1_555
H15 C7 1_555 1_555
C8 C7 1_555 1_555
H16 C8 1_555 1_555
C9 C8 1_555 1_555
H17 C9 1_555 1_555
H18 C9 1_555 1_555
C10 C5 1_555 1_555
H19 C10 1_555 1_555
H20 C10 1_555 1_555
C11 C8 1_555 1_555
H21 C11 1_555 1_555
H22 C11 1_555 1_555
C12 N1 1_555 1_555
C13 C12 1_555 1_555
H23 C13 1_555 1_555
H24 C13 1_555 1_555
H25 C13 1_555 1_555
C14 C12 1_555 1_555
C15 O3 1_555 1_555
C16 C15 1_555 1_555
H26 C16 1_555 1_555
C17 C16 1_555 1_555
H27 C17 1_555 1_555
C18 C17 1_555 1_555
H28 C18 1_555 1_555
C19 C14 1_555 1_555
H29 C19 1_555 1_555
Sn1A O2 1_555 1_555
O2A Sn1 1_555 1_555
C9 C10 1_555 1_555
C14 C15 1_555 1_555
C18 C19 1_555 1_555

#END
