
#######################################################################
#
#                 Cambridge Crystallographic Data Centre
#                                CCDC 
#
#######################################################################
#
# If this CIF has been generated from an entry in the Cambridge 
# Structural Database, then it will include bibliographic, chemical, 
# crystal, experimental, refinement or atomic coordinate data resulting 
# from the CCDC's data processing and validation procedures.
#
#######################################################################

data_VIDDAP
_symmetry_cell_setting           triclinic
_symmetry_space_group_name_H-M   'P -1'
_symmetry_Int_Tables_number      2
_space_group_name_Hall           '-P 1'
loop_
_symmetry_equiv_pos_site_id
_symmetry_equiv_pos_as_xyz
1 x,y,z
2 -x,-y,-z
_cell_length_a                   8.1571(10)
_cell_length_b                   14.7919(18)
_cell_length_c                   20.877(3)
_cell_angle_alpha                108.625(2)
_cell_angle_beta                 95.964(2)
_cell_angle_gamma                98.671(2)
_cell_volume                     2328.5
loop_
_atom_site_label
_atom_site_type_symbol
_atom_site_fract_x
_atom_site_fract_y
_atom_site_fract_z
Co1 Co 0.31614(8) 1.07927(5) 0.42069(4)
Co2 Co 0.39430(9) 0.89888(5) 0.44906(4)
Co3 Co 0.0000 1.0000 0.5000
Co4 Co 0.5000 0.5000 0.0000
Co5 Co 0.37825(10) 0.66742(5) -0.11492(4)
O1 O 0.5374(4) 1.0366(2) 0.44944(17)
O2 O -0.3750(4) 0.8400(2) 0.46667(17)
O3 O 0.1887(4) 0.9665(2) 0.44491(16)
O4 O 0.8755(4) 1.0216(3) 0.41165(17)
O5 O 0.3558(5) 0.8510(2) 0.34388(17)
O6 O -0.4721(5) 0.5460(3) 0.10849(19)
O7 O 0.3182(5) 0.9859(3) 0.32024(18)
O8 O -0.4974(5) 0.4328(3) 0.1579(2)
O9 O 1.0897(4) 1.1102(3) 0.38425(19)
O10 O -0.1137(4) 0.8554(3) 0.44369(18)
N1 N -0.5611(5) 0.2071(3) 0.4044(2)
O11 O 0.3147(5) 0.5850(3) 0.0051(2)
N2 N 0.2216(5) 0.7683(3) 0.4454(2)
N3 N 0.6978(6) 0.6211(3) 0.0155(2)
O12 O -1.1170(5) 0.4432(3) 0.1486(2)
O13 O 0.3479(5) 0.7220(3) -0.0199(2)
N4 N 1.4362(6) 1.2144(3) 0.1065(2)
C1 C -0.4699(6) 0.5200(4) 0.1588(3)
C2 C -0.3227(6) 0.7425(3) 0.3581(3)
C3 C 0.9421(7) 1.0615(4) 0.3732(3)
C4 C -0.2658(6) 0.8187(3) 0.4279(3)
C5 C -0.5117(7) 0.5937(4) 0.2842(3)
C6 C 0.3350(7) 0.8440(4) 0.2302(3)
C7 C -0.4576(6) 0.6684(4) 0.3483(3)
H1 H -0.5140 0.6676 0.3847
O14 O -1.2025(5) 0.3204(3) 0.1829(2)
C8 C -0.6538(6) 0.5147(4) 0.2803(3)
C9 C 0.1469(7) 0.6975(4) 0.3873(3)
H2 H 0.1805 0.7002 0.3466
C10 C 0.3355(7) 0.8987(4) 0.3045(3)
C11 C 0.5832(7) 0.9641(4) 0.2206(3)
C12 C -0.2938(7) 0.6738(4) 0.2401(3)
H3 H -0.2396 0.6771 0.2036
C13 C -0.4274(7) 0.5978(4) 0.2296(3)
C14 C -0.4870(7) 0.2041(4) 0.3495(3)
H4 H -0.5063 0.1455 0.3133
C15 C 0.4237(7) 0.8243(4) 0.1217(3)
H5 H 0.4862 0.8490 0.0941
C16 C 0.2159(8) 0.6984(4) 0.1316(3)
H6 H 0.1441 0.6380 0.1127
C17 C 0.8305(6) 1.0491(4) 0.3069(3)
C18 C 0.1660(7) 0.7617(4) 0.5024(3)
H7 H 0.2150 0.8100 0.5437
C19 C 0.9203(8) 0.7054(4) -0.0220(3)
H8 H 0.9892 0.7035 -0.0550
C20 C 0.6877(7) 0.9763(4) 0.2809(3)
H9 H 0.6611 0.9341 0.3047
C21 C 0.3236(7) 0.6747(4) 0.0206(3)
C22 C 0.0234(7) 0.6208(4) 0.3838(3)
H10 H -0.0234 0.5737 0.3416
C23 C -0.5319(7) 0.2947(4) 0.4546(3)
H11 H -0.5866 0.3003 0.4922
C24 C 0.4410(7) 0.8785(4) 0.1913(3)
C25 C -0.2394(7) 0.7451(4) 0.3041(3)
H12 H -0.1473 0.7944 0.3106
C26 C -0.6420(8) 0.4661(4) 0.3274(3)
H13 H -0.5454 0.4830 0.3598
C27 C -0.9305(7) 0.4169(4) 0.2334(3)
C28 C -0.0311(7) 0.6139(4) 0.4429(3)
C29 C 0.7692(8) 1.1013(4) 0.2105(3)
H14 H 0.7952 1.1438 0.1868
C30 C 0.7156(8) 0.7020(4) 0.0699(3)
H15 H 0.6467 0.7011 0.1026
C31 C -0.3456(7) 0.3714(4) 0.3972(3)
C32 C 1.4138(8) 1.1318(4) 0.0526(3)
H16 H 1.4794 1.1303 0.0186
C33 C -0.7989(6) 0.4892(4) 0.2327(3)
H17 H -0.8091 0.5200 0.2004
C34 C 0.3146(7) 0.7340(4) 0.0926(3)
C35 C -0.4276(7) 0.3757(4) 0.4539(3)
H18 H -0.4108 0.4335 0.4908
C36 C 1.0796(8) 0.9623(4) 0.0902(4)
H19 H 1.0133 0.9682 0.1244
C37 C 0.9358(7) 0.7901(4) 0.0333(3)
C38 C 0.8724(7) 1.1105(4) 0.2699(3)
H20 H 0.9702 1.1579 0.2853
C39 C -0.3847(8) 0.2827(4) 0.3441(3)
H21 H -0.3405 0.2765 0.3039
C40 C 0.6261(7) 1.0281(4) 0.1862(3)
H22 H 0.5578 1.0220 0.1459
C41 C 1.3008(8) 1.0502(4) 0.0451(4)
H23 H 1.2899 0.9954 0.0063
C42 C 0.8027(8) 0.6235(5) -0.0285(3)
H24 H 0.7972 0.5674 -0.0658
C43 C -1.0931(8) 0.3933(4) 0.1846(3)
C44 C 1.2024(8) 1.0481(5) 0.0943(4)
C45 C -0.1563(7) 0.5330(4) 0.4444(3)
H25 H -0.1898 0.5386 0.4865
C46 C 0.2246(7) 0.7535(4) 0.1993(3)
H26 H 0.1552 0.7302 0.2255
C47 C -0.2273(8) 0.4532(4) 0.3931(3)
H27 H -0.1994 0.4484 0.3502
C48 C -0.9130(8) 0.3686(4) 0.2803(3)
H28 H -0.9992 0.3192 0.2796
C49 C 0.0425(7) 0.6890(4) 0.5042(3)
H29 H 0.0082 0.6895 0.5454
C50 C -0.7709(8) 0.3932(4) 0.3268(3)
H30 H -0.7599 0.3612 0.3583
C51 C 1.0571(8) 0.8768(4) 0.0406(4)
H31 H 1.1258 0.8718 0.0072
C52 C 0.8272(8) 0.7851(4) 0.0807(3)
H32 H 0.8321 0.8389 0.1195
C53 C 1.3409(9) 1.2134(5) 0.1548(4)
H33 H 1.3534 1.2691 0.1931
C54 C 1.2256(10) 1.1327(5) 0.1496(4)
H34 H 1.1615 1.1352 0.1842
Co1A Co -1.31614(8) -0.07927(5) -0.42069(4)
Co2A Co -1.39430(9) 0.10112(5) -0.44906(4)
Co5A Co -1.37825(10) 0.33258(5) 0.11492(4)
O1A O -1.5374(4) -0.0366(2) -0.44944(17)
O2A O -0.6250(4) 0.1600(2) -0.46667(17)
O3A O -1.1887(4) 0.0335(2) -0.44491(16)
O4A O -1.8755(4) -0.0216(3) -0.41165(17)
O5A O -1.3558(5) 0.1490(2) -0.34388(17)
O6A O -0.5279(5) 0.4540(3) -0.10849(19)
O7A O -1.3182(5) 0.0141(3) -0.32024(18)
O8A O -0.5026(5) 0.5672(3) -0.1579(2)
O9A O -2.0897(4) -0.1102(3) -0.38425(19)
O10A O -0.8863(4) 0.1446(3) -0.44369(18)
N1A N -0.4389(5) 0.7929(3) -0.4044(2)
O11A O -1.3147(5) 0.4150(3) -0.0051(2)
N2A N -1.2216(5) 0.2317(3) -0.4454(2)
O12A O 0.1170(5) 0.5568(3) -0.1486(2)
O13A O -1.3479(5) 0.2780(3) 0.0199(2)
C1A C -0.5301(6) 0.4800(4) -0.1588(3)
C2A C -0.6773(6) 0.2575(3) -0.3581(3)
C3A C -1.9421(7) -0.0615(4) -0.3732(3)
C4A C -0.7342(6) 0.1813(3) -0.4279(3)
C5A C -0.4883(7) 0.4063(4) -0.2842(3)
C6A C -1.3350(7) 0.1560(4) -0.2302(3)
C7A C -0.5424(6) 0.3316(4) -0.3483(3)
H1A H -0.4860 0.3324 -0.3847
O14A O 0.2025(5) 0.6796(3) -0.1829(2)
C8A C -0.3462(6) 0.4853(4) -0.2803(3)
C9A C -1.1469(7) 0.3025(4) -0.3873(3)
H2A H -1.1805 0.2998 -0.3466
C10A C -1.3355(7) 0.1013(4) -0.3045(3)
C11A C -1.5832(7) 0.0359(4) -0.2206(3)
C12A C -0.7062(7) 0.3262(4) -0.2401(3)
H3A H -0.7604 0.3229 -0.2036
C13A C -0.5726(7) 0.4022(4) -0.2296(3)
C14A C -0.5130(7) 0.7959(4) -0.3495(3)
H4A H -0.4937 0.8545 -0.3133
C15A C -1.4237(7) 0.1757(4) -0.1217(3)
H5A H -1.4862 0.1510 -0.0941
C16A C -1.2159(8) 0.3016(4) -0.1316(3)
H6A H -1.1441 0.3620 -0.1127
C17A C -1.8305(6) -0.0491(4) -0.3069(3)
C18A C -1.1660(7) 0.2383(4) -0.5024(3)
H7A H -1.2150 0.1900 -0.5437
C20A C -1.6877(7) 0.0237(4) -0.2809(3)
H9A H -1.6611 0.0659 -0.3047
C21A C -1.3236(7) 0.3253(4) -0.0206(3)
C22A C -1.0234(7) 0.3792(4) -0.3838(3)
H10A H -0.9766 0.4263 -0.3416
C23A C -0.4681(7) 0.7053(4) -0.4546(3)
H11A H -0.4134 0.6997 -0.4922
C24A C -1.4410(7) 0.1215(4) -0.1913(3)
C25A C -0.7606(7) 0.2549(4) -0.3041(3)
H12A H -0.8527 0.2056 -0.3106
C26A C -0.3580(8) 0.5339(4) -0.3274(3)
H13A H -0.4546 0.5170 -0.3598
C27A C -0.0695(7) 0.5831(4) -0.2334(3)
C28A C -0.9689(7) 0.3861(4) -0.4429(3)
C29A C -1.7692(8) -0.1013(4) -0.2105(3)
H14A H -1.7952 -0.1438 -0.1868
C31A C -0.6544(7) 0.6286(4) -0.3972(3)
C33A C -0.2011(6) 0.5108(4) -0.2327(3)
H17A H -0.1909 0.4800 -0.2004
C34A C -1.3146(7) 0.2660(4) -0.0926(3)
C35A C -0.5724(7) 0.6243(4) -0.4539(3)
H18A H -0.5892 0.5665 -0.4908
C38A C -1.8724(7) -0.1105(4) -0.2699(3)
H20A H -1.9702 -0.1579 -0.2853
C39A C -0.6153(8) 0.7173(4) -0.3441(3)
H21A H -0.6595 0.7235 -0.3039
C40A C -1.6261(7) -0.0281(4) -0.1862(3)
H22A H -1.5578 -0.0220 -0.1459
C43A C 0.0931(8) 0.6067(4) -0.1846(3)
C45A C -0.8437(7) 0.4670(4) -0.4444(3)
H25A H -0.8102 0.4614 -0.4865
C46A C -1.2246(7) 0.2465(4) -0.1993(3)
H26A H -1.1552 0.2698 -0.2255
C47A C -0.7727(8) 0.5468(4) -0.3931(3)
H27A H -0.8006 0.5516 -0.3502
C48A C -0.0870(8) 0.6314(4) -0.2803(3)
H28A H -0.0008 0.6808 -0.2796
C49A C -1.0425(7) 0.3110(4) -0.5042(3)
H29A H -1.0082 0.3105 -0.5454
C50A C -0.2291(8) 0.6068(4) -0.3268(3)
H30A H -0.2401 0.6388 -0.3583
N3A N 0.3022(6) 0.3789(3) -0.0155(2)
N4A N -0.4362(6) -0.2144(3) -0.1065(2)
C19A C 0.0797(8) 0.2946(4) 0.0220(3)
H8A H 0.0108 0.2965 0.0550
C30A C 0.2844(8) 0.2980(4) -0.0699(3)
H15A H 0.3533 0.2989 -0.1026
C32A C -0.4138(8) -0.1318(4) -0.0526(3)
H16A H -0.4794 -0.1303 -0.0186
C36A C -0.0796(8) 0.0377(4) -0.0902(4)
H19A H -0.0133 0.0318 -0.1244
C37A C 0.0642(7) 0.2099(4) -0.0333(3)
C41A C -0.3008(8) -0.0502(4) -0.0451(4)
H23A H -0.2899 0.0046 -0.0063
C42A C 0.1973(8) 0.3765(5) 0.0285(3)
H24A H 0.2028 0.4326 0.0658
C44A C -0.2024(8) -0.0481(5) -0.0943(4)
C51A C -0.0571(8) 0.1232(4) -0.0406(4)
H31A H -0.1258 0.1282 -0.0072
C52A C 0.1728(8) 0.2149(4) -0.0807(3)
H32A H 0.1679 0.1611 -0.1195
C53A C -0.3409(9) -0.2134(5) -0.1548(4)
H33A H -0.3534 -0.2691 -0.1931
C54A C -0.2256(10) -0.1327(5) -0.1496(4)
H34A H -0.1615 -0.1352 -0.1842
Co1_2 Co -0.68386(8) 0.07927(5) -0.57931(4)
Co1_3 Co -0.68386(8) 0.07927(5) 0.42069(4)
Co1_4 Co 1.31614(8) 1.07927(5) 0.42069(4)
Co1A_2 Co -2.31614(8) -0.07927(5) -0.42069(4)
Co1A_3 Co -0.31614(8) 0.92073(5) -0.42069(4)
Co1A_4 Co -0.31614(8) 0.92073(5) 0.57931(4)
Co2_2 Co -1.60570(9) -0.10112(5) -0.55094(4)
Co2_3 Co -0.60570(9) 0.89888(5) 0.44906(4)
Co2A_2 Co -0.39430(9) 0.10112(5) -0.44906(4)
Co2A_3 Co 0.60570(9) 1.10112(5) 0.55094(4)
Co3_2 Co -2.0000 0.0000 -0.5000
Co3_3 Co -1.0000 0.0000 -0.5000
Co3_4 Co 1.0000 1.0000 0.5000
Co4_2 Co -1.5000 0.5000 0.0000
Co4_3 Co -0.5000 0.5000 0.0000
Co5_2 Co -0.62175(10) -0.33258(5) -0.11492(4)
Co5_3 Co -0.62175(10) 0.66742(5) -0.11492(4)
Co5A_2 Co -0.37825(10) 0.33258(5) 0.11492(4)
Co5A_3 Co 1.62175(10) 1.33258(5) 0.11492(4)
O1_2 O -1.4626(4) 0.0366(2) -0.55056(17)
O1A_2 O 0.4626(4) 0.9634(2) 0.55056(17)
O2_2 O -1.3750(4) -0.1600(2) -0.53333(17)
O2_3 O 0.6250(4) 0.8400(2) 0.46667(17)
O2A_2 O -1.6250(4) 0.1600(2) -0.46667(17)
O2A_3 O 0.3750(4) 1.1600(2) 0.53333(17)
O3A_2 O -0.1887(4) 1.0335(2) 0.55509(16)
O4_2 O -0.1245(4) 1.0216(3) 0.41165(17)
O4A_2 O 0.1245(4) 0.9784(3) 0.58835(17)
O6_2 O 0.5279(5) 0.5460(3) 0.10849(19)
O6A_2 O 0.4721(5) 0.4540(3) -0.10849(19)
O8_2 O -1.4974(5) 0.4328(3) 0.1579(2)
O8A_2 O 0.4974(5) 0.5672(3) -0.1579(2)
O9_2 O 0.0897(4) 1.1102(3) 0.38425(19)
O9A_2 O -1.0897(4) -0.1102(3) -0.38425(19)
O10A_2 O 0.1137(4) 1.1446(3) 0.55631(18)
N1_2 N 0.4389(5) 1.2071(3) 0.4044(2)
N1A_2 N -1.4389(5) -0.2071(3) -0.4044(2)
O11A_2 O 0.6853(5) 0.4150(3) -0.0051(2)
N4_2 N -1.5638(6) 0.2144(3) 0.1065(2)
N4A_2 N 0.5638(6) 0.7856(3) -0.1065(2)
loop_
_geom_bond_atom_site_label_1
_geom_bond_atom_site_label_2
_geom_bond_site_symmetry_1
_geom_bond_site_symmetry_2
Co1 O1 1_555 1_555
Co2 O1 1_555 1_555
Co3 O3 1_555 1_555
Co4 O11 1_555 1_555
Co5 O13 1_555 1_555
O1 Co2A_3 1_555 1_555
O2 C4 1_555 1_555
O3 Co1 1_555 1_555
O4 C3 1_555 1_555
O5 Co2 1_555 1_555
O6 C1 1_555 1_555
O7 Co1 1_555 1_555
O8 C1 1_555 1_555
O9 C3 1_555 1_555
O10 Co3 1_555 1_555
N1 C14 1_555 1_555
O11 C21 1_555 1_555
N2 Co2 1_555 1_555
N3 Co4 1_555 1_555
O12 C43 1_555 1_555
O13 C21 1_555 1_555
N4 C32 1_555 1_555
C1 C13 1_555 1_555
C2 C4 1_555 1_555
C3 C17 1_555 1_555
C4 O10 1_555 1_555
C5 C7 1_555 1_555
C6 C10 1_555 1_555
C7 C2 1_555 1_555
H1 C7 1_555 1_555
O14 C43 1_555 1_555
C8 C5 1_555 1_555
C9 N2 1_555 1_555
H2 C9 1_555 1_555
C10 O5 1_555 1_555
C11 C20 1_555 1_555
C12 H3 1_555 1_555
C13 C5 1_555 1_555
C14 H4 1_555 1_555
C15 H5 1_555 1_555
C16 H6 1_555 1_555
C17 C20 1_555 1_555
C18 N2 1_555 1_555
H7 C18 1_555 1_555
C19 H8 1_555 1_555
C20 H9 1_555 1_555
C21 C34 1_555 1_555
C22 C9 1_555 1_555
H10 C22 1_555 1_555
C23 N1 1_555 1_555
H11 C23 1_555 1_555
C24 C6 1_555 1_555
C25 C2 1_555 1_555
H12 C25 1_555 1_555
C26 C8 1_555 1_555
H13 C26 1_555 1_555
C27 C33 1_555 1_555
C28 C22 1_555 1_555
C29 H14 1_555 1_555
C30 N3 1_555 1_555
H15 C30 1_555 1_555
C31 C35 1_555 1_555
C32 H16 1_555 1_555
C33 C8 1_555 1_555
H17 C33 1_555 1_555
C34 C15 1_555 1_555
C35 C23 1_555 1_555
H18 C35 1_555 1_555
C36 H19 1_555 1_555
C37 C19 1_555 1_555
C38 C17 1_555 1_555
H20 C38 1_555 1_555
C39 C14 1_555 1_555
H21 C39 1_555 1_555
C40 C11 1_555 1_555
H22 C40 1_555 1_555
C41 C32 1_555 1_555
H23 C41 1_555 1_555
C42 N3 1_555 1_555
H24 C42 1_555 1_555
C43 C27 1_555 1_555
C44 C36 1_555 1_555
C45 C28 1_555 1_555
H25 C45 1_555 1_555
C46 C6 1_555 1_555
H26 C46 1_555 1_555
C47 C31 1_555 1_555
H27 C47 1_555 1_555
C48 C27 1_555 1_555
H28 C48 1_555 1_555
C49 C18 1_555 1_555
H29 C49 1_555 1_555
C50 C26 1_555 1_555
H30 C50 1_555 1_555
C51 C36 1_555 1_555
H31 C51 1_555 1_555
C52 C30 1_555 1_555
H32 C52 1_555 1_555
C53 N4 1_555 1_555
H33 C53 1_555 1_555
C54 C44 1_555 1_555
H34 C54 1_555 1_555
Co1A O1A 1_555 1_555
Co2A O1A 1_555 1_555
Co5A O12 1_555 1_555
O1A Co2_2 1_555 1_555
O2A C4A 1_555 1_555
O3A Co1A 1_555 1_555
O4A C3A 1_555 1_555
O5A Co2A 1_555 1_555
O6A C1A 1_555 1_555
O7A Co1A 1_555 1_555
O8A C1A 1_555 1_555
O9A C3A 1_555 1_555
O10A C4A 1_555 1_555
N1A C14A 1_555 1_555
O11A C21A 1_555 1_555
N2A Co2A 1_555 1_555
O12A Co5 1_555 1_555
O13A Co5A 1_555 1_555
C1A C13A 1_555 1_555
C2A C4A 1_555 1_555
C3A C17A 1_555 1_555
C5A C7A 1_555 1_555
C6A C10A 1_555 1_555
C7A C2A 1_555 1_555
H1A C7A 1_555 1_555
O14A Co5 1_555 1_555
C8A C5A 1_555 1_555
C9A N2A 1_555 1_555
H2A C9A 1_555 1_555
C10A O5A 1_555 1_555
C11A C20A 1_555 1_555
C12A H3A 1_555 1_555
C13A C5A 1_555 1_555
C14A H4A 1_555 1_555
C15A H5A 1_555 1_555
C16A H6A 1_555 1_555
C17A C20A 1_555 1_555
C18A N2A 1_555 1_555
H7A C18A 1_555 1_555
C20A H9A 1_555 1_555
C21A O13A 1_555 1_555
C22A C9A 1_555 1_555
H10A C22A 1_555 1_555
C23A N1A 1_555 1_555
H11A C23A 1_555 1_555
C24A C6A 1_555 1_555
C25A C2A 1_555 1_555
H12A C25A 1_555 1_555
C26A C8A 1_555 1_555
H13A C26A 1_555 1_555
C27A C33A 1_555 1_555
C28A C22A 1_555 1_555
C29A H14A 1_555 1_555
C31A C35A 1_555 1_555
C33A C8A 1_555 1_555
H17A C33A 1_555 1_555
C34A C15A 1_555 1_555
C35A C23A 1_555 1_555
H18A C35A 1_555 1_555
C38A C17A 1_555 1_555
H20A C38A 1_555 1_555
C39A C14A 1_555 1_555
H21A C39A 1_555 1_555
C40A C11A 1_555 1_555
H22A C40A 1_555 1_555
C43A O12A 1_555 1_555
C45A C28A 1_555 1_555
H25A C45A 1_555 1_555
C46A C6A 1_555 1_555
H26A C46A 1_555 1_555
C47A C31A 1_555 1_555
H27A C47A 1_555 1_555
C48A C27A 1_555 1_555
H28A C48A 1_555 1_555
C49A C18A 1_555 1_555
H29A C49A 1_555 1_555
C50A C26A 1_555 1_555
H30A C50A 1_555 1_555
N3A Co4 1_555 1_555
N4A C32A 1_555 1_555
C19A H8A 1_555 1_555
C30A N3A 1_555 1_555
H15A C30A 1_555 1_555
C32A H16A 1_555 1_555
C36A H19A 1_555 1_555
C37A C19A 1_555 1_555
C41A C32A 1_555 1_555
H23A C41A 1_555 1_555
C42A N3A 1_555 1_555
H24A C42A 1_555 1_555
C44A C36A 1_555 1_555
C51A C36A 1_555 1_555
H31A C51A 1_555 1_555
C52A C30A 1_555 1_555
H32A C52A 1_555 1_555
C53A N4A 1_555 1_555
H33A C53A 1_555 1_555
C54A C44A 1_555 1_555
H34A C54A 1_555 1_555
Co1_2 O2A 1_555 1_555
Co1_3 N1 1_555 1_555
Co1_4 O9 1_555 1_555
Co1A_2 O9A 1_555 1_555
Co1A_3 N1A 1_555 1_555
Co1A_4 O2 1_555 1_555
Co2_2 O1_2 1_555 1_555
Co2_3 O2 1_555 1_555
Co2A_2 O2A 1_555 1_555
Co2A_3 O1A_2 1_555 1_555
Co3_2 O4A 1_555 1_555
Co3_3 O3A 1_555 1_555
Co3_4 O4 1_555 1_555
Co4_2 O11A 1_555 1_555
Co4_3 O6 1_555 1_555
Co5_2 N4A 1_555 1_555
Co5_3 O8A 1_555 1_555
Co5A_2 O8 1_555 1_555
Co5A_3 N4 1_555 1_555
O1_2 Co2A 1_555 1_555
O1A_2 Co2 1_555 1_555
O2_2 Co1A 1_555 1_555
O2_3 Co2 1_555 1_555
O2A_2 Co2A 1_555 1_555
O2A_3 Co1 1_555 1_555
O3A_2 Co3 1_555 1_555
O4_2 Co3 1_555 1_555
O4A_2 Co3 1_555 1_555
O6_2 Co4 1_555 1_555
O6A_2 Co4 1_555 1_555
O8_2 Co5A 1_555 1_555
O8A_2 Co5 1_555 1_555
O9_2 Co1 1_555 1_555
O9A_2 Co1A 1_555 1_555
O10A_2 Co3 1_555 1_555
N1_2 Co1 1_555 1_555
N1A_2 Co1A 1_555 1_555
O11A_2 Co4 1_555 1_555
N4_2 Co5A 1_555 1_555
N4A_2 Co5 1_555 1_555
Co2 O3 1_555 1_555
O7 C10 1_555 1_555
O14 Co5A 1_555 1_555
C11 C24 1_555 1_555
C12 C13 1_555 1_555
C12 C25 1_555 1_555
C15 C24 1_555 1_555
C16 C34 1_555 1_555
C16 C46 1_555 1_555
C19 C42 1_555 1_555
C28 C49 1_555 1_555
C29 C38 1_555 1_555
C29 C40 1_555 1_555
C31 C39 1_555 1_555
C37 C51 1_555 1_555
C37 C52 1_555 1_555
C41 C44 1_555 1_555
C45 C47 1_555 1_555
C48 C50 1_555 1_555
C53 C54 1_555 1_555
Co2A O3A 1_555 1_555
O6A Co4_3 1_555 1_555
O7A C10A 1_555 1_555
O10A Co3_3 1_555 1_555
O14A C43A 1_555 1_555
C11A C24A 1_555 1_555
C12A C13A 1_555 1_555
C12A C25A 1_555 1_555
C15A C24A 1_555 1_555
C16A C34A 1_555 1_555
C16A C46A 1_555 1_555
C21A C34A 1_555 1_555
C27A C43A 1_555 1_555
C28A C49A 1_555 1_555
C29A C38A 1_555 1_555
C29A C40A 1_555 1_555
C31A C39A 1_555 1_555
C45A C47A 1_555 1_555
C48A C50A 1_555 1_555
C19A C42A 1_555 1_555
C37A C51A 1_555 1_555
C37A C52A 1_555 1_555
C41A C44A 1_555 1_555
C53A C54A 1_555 1_555
Co1A_4 O3A_2 1_555 1_555
Co2_2 O2_2 1_555 1_555
Co2A_3 O2A_3 1_555 1_555

#END
