
#######################################################################
#
#                 Cambridge Crystallographic Data Centre
#                                CCDC 
#
#######################################################################
#
# If this CIF has been generated from an entry in the Cambridge 
# Structural Database, then it will include bibliographic, chemical, 
# crystal, experimental, refinement or atomic coordinate data resulting 
# from the CCDC's data processing and validation procedures.
#
#######################################################################

data_VIDJEZ
_symmetry_cell_setting           monoclinic
_symmetry_space_group_name_H-M   'C 2/m'
_symmetry_Int_Tables_number      12
_space_group_name_Hall           '-C 2y'
loop_
_symmetry_equiv_pos_site_id
_symmetry_equiv_pos_as_xyz
1 x,y,z
2 -x,y,-z
3 1/2+x,1/2+y,z
4 1/2-x,1/2+y,-z
5 -x,-y,-z
6 x,-y,z
7 1/2-x,1/2-y,-z
8 1/2+x,1/2-y,z
_cell_length_a                   14.5002(3)
_cell_length_b                   7.1357(2)
_cell_length_c                   11.3090(3)
_cell_angle_alpha                90
_cell_angle_beta                 116.9390(10)
_cell_angle_gamma                90
_cell_volume                     1043.16
loop_
_atom_site_label
_atom_site_type_symbol
_atom_site_fract_x
_atom_site_fract_y
_atom_site_fract_z
Co1 Co 0.2500 0.2500 0.5000
N1 N 0.33369(7) 0.09670(12) 0.41552(8)
N2 N 0.37042(9) 0.0000 0.25750(11)
N3 N 0.15996(9) 0.0000 0.47067(11)
N4 N 0.07055(9) 0.0000 0.39054(12)
N5 N -0.01528(11) 0.0000 0.31376(17)
O1 O 0.34550(6) 0.15771(10) -0.31083(6)
C1 C 0.35568(8) 0.15101(14) 0.32098(10)
H1 H 0.3607 0.2780 0.2994
C2 C 0.37785(10) 0.0000 0.13488(12)
C3 C 0.37814(8) 0.16934(14) 0.07449(9)
H2 H 0.3815 0.2845 0.1184
C4 C 0.37339(8) 0.16789(14) -0.05124(9)
H3 H 0.3734 0.2831 -0.0933
C5 C 0.36858(10) 0.0000 -0.11597(12)
C6 C 0.35281(10) 0.0000 -0.25783(12)
N1E N 0.33369(7) -0.09670(12) 0.41552(8)
O1E O 0.34550(6) -0.15771(10) -0.31083(6)
C1E C 0.35568(8) -0.15101(14) 0.32098(10)
H1E H 0.3607 -0.2780 0.2994
C3E C 0.37814(8) -0.16934(14) 0.07449(9)
H2E H 0.3815 -0.2845 0.1184
C4E C 0.37339(8) -0.16789(14) -0.05124(9)
H3E H 0.3734 -0.2831 -0.0933
Co1_2 Co 0.2500 0.2500 -0.5000
Co1C Co 0.2500 -0.2500 -0.5000
Co1C_2 Co 0.2500 -0.2500 0.5000
N1F N 0.16631(7) 0.40330(12) 0.58448(8)
N3C N 0.34004(9) 0.5000 0.52933(11)
O1_2 O 0.34550(6) 0.15771(10) 0.68917(6)
O1F O 0.15450(6) 0.34229(10) 0.31083(6)
loop_
_geom_bond_atom_site_label_1
_geom_bond_atom_site_label_2
_geom_bond_site_symmetry_1
_geom_bond_site_symmetry_2
Co1 N1 1_555 1_555
N1 C1 1_555 1_555
N2 C1 1_555 1_555
N3 Co1 1_555 1_555
N4 N3 1_555 1_555
N5 N4 1_555 1_555
O1 C6 1_555 1_555
C1 H1 1_555 1_555
C2 N2 1_555 1_555
C3 C2 1_555 1_555
H2 C3 1_555 1_555
C4 C3 1_555 1_555
H3 C4 1_555 1_555
C5 C4 1_555 1_555
C6 C5 1_555 1_555
N1E N1 1_555 1_555
O1E C6 1_555 1_555
C1E N2 1_555 1_555
H1E C1E 1_555 1_555
C3E C2 1_555 1_555
H2E C3E 1_555 1_555
C4E C5 1_555 1_555
H3E C4E 1_555 1_555
Co1_2 O1 1_555 1_555
Co1C O1E 1_555 1_555
Co1C_2 N3 1_555 1_555
N1F Co1 1_555 1_555
N3C Co1 1_555 1_555
O1_2 Co1 1_555 1_555
O1F Co1 1_555 1_555
N1E C1E 1_555 1_555
N1E Co1C_2 1_555 1_555
C3E C4E 1_555 1_555

#END
