
#######################################################################
#
#                 Cambridge Crystallographic Data Centre
#                                CCDC 
#
#######################################################################
#
# If this CIF has been generated from an entry in the Cambridge 
# Structural Database, then it will include bibliographic, chemical, 
# crystal, experimental, refinement or atomic coordinate data resulting 
# from the CCDC's data processing and validation procedures.
#
#######################################################################

data_VIDKEZ
_symmetry_cell_setting           monoclinic
_symmetry_space_group_name_H-M   'P 21/n'
_symmetry_Int_Tables_number      14
_space_group_name_Hall           '-P 2yn'
loop_
_symmetry_equiv_pos_site_id
_symmetry_equiv_pos_as_xyz
1 x,y,z
2 1/2-x,1/2+y,1/2-z
3 -x,-y,-z
4 1/2+x,1/2-y,1/2+z
_cell_length_a                   9.260(2)
_cell_length_b                   8.7283(18)
_cell_length_c                   9.671(2)
_cell_angle_alpha                90
_cell_angle_beta                 106.788(3)
_cell_angle_gamma                90
_cell_volume                     748.336
loop_
_atom_site_label
_atom_site_type_symbol
_atom_site_fract_x
_atom_site_fract_y
_atom_site_fract_z
Mn1 Mn 0.5000 0.0000 0.0000
N1 N 0.2917(5) 0.0792(5) 0.0622(4)
O1 O 0.0346(5) 0.2775(4) 0.4250(4)
O2 O 0.1985(5) 0.1665(4) 0.6121(4)
O3 O 0.6360(4) 0.0553(4) 0.2185(4)
H1 H 0.7067 0.0017 0.2725
H2 H 0.6703 0.1460 0.2219
C1 C 0.1243(7) 0.1730(6) 0.4810(6)
C2 C 0.1421(8) 0.0417(6) 0.3840(6)
H3 H 0.2328 -0.0146 0.4328
H4 H 0.0574 -0.0275 0.3721
C3 C 0.2762(7) 0.0467(6) 0.1934(5)
H5 H 0.3539 -0.0058 0.2588
C4 C 0.1512(6) 0.0869(6) 0.2364(5)
C5 C 0.0392(7) 0.1676(6) 0.1404(6)
H6 H -0.0462 0.1982 0.1653
C6 C 0.0546(7) 0.2029(6) 0.0071(6)
H7 H -0.0205 0.2573 -0.0594
C7 C 0.1825(7) 0.1567(6) -0.0273(6)
H8 H 0.1918 0.1816 -0.1178
Mn1C Mn 0.0000 0.5000 0.5000
Mn1C_2 Mn 1.0000 -0.5000 -0.5000
N1B N 0.7083(5) -0.0792(5) -0.0622(4)
O1B O 0.9654(5) -0.2775(4) -0.4250(4)
O1C O 0.5346(5) 0.2225(4) -0.0750(4)
O1A O 0.4654(5) -0.2225(4) 0.0750(4)
O2B O 0.8015(5) -0.1665(4) -0.6121(4)
O3B O 0.3640(4) -0.0553(4) -0.2185(4)
H1B H 0.2933 -0.0017 -0.2725
H2B H 0.3297 -0.1460 -0.2219
C1B C 0.8757(7) -0.1730(6) -0.4810(6)
C2B C 0.8579(8) -0.0417(6) -0.3840(6)
H3B H 0.7672 0.0146 -0.4328
H4B H 0.9426 0.0275 -0.3721
C3B C 0.7238(7) -0.0467(6) -0.1934(5)
H5B H 0.6461 0.0058 -0.2588
C4B C 0.8488(6) -0.0869(6) -0.2364(5)
C5B C 0.9608(7) -0.1676(6) -0.1404(6)
H6B H 1.0462 -0.1982 -0.1653
C6B C 0.9454(7) -0.2029(6) -0.0071(6)
H7B H 1.0205 -0.2573 0.0594
C7B C 0.8175(7) -0.1567(6) 0.0273(6)
H8B H 0.8082 -0.1816 0.1178
loop_
_geom_bond_atom_site_label_1
_geom_bond_atom_site_label_2
_geom_bond_site_symmetry_1
_geom_bond_site_symmetry_2
Mn1 N1 1_555 1_555
N1 C3 1_555 1_555
O1 C1 1_555 1_555
O2 C1 1_555 1_555
O3 Mn1 1_555 1_555
H1 O3 1_555 1_555
H2 O3 1_555 1_555
C1 C2 1_555 1_555
C2 H3 1_555 1_555
H4 C2 1_555 1_555
C3 H5 1_555 1_555
C4 C2 1_555 1_555
C5 C4 1_555 1_555
H6 C5 1_555 1_555
C6 C5 1_555 1_555
H7 C6 1_555 1_555
C7 N1 1_555 1_555
H8 C7 1_555 1_555
Mn1C O1 1_555 1_555
Mn1C_2 O1B 1_555 1_555
N1B Mn1 1_555 1_555
O1B C1B 1_555 1_555
O1C Mn1 1_555 1_555
O1A Mn1 1_555 1_555
O2B C1B 1_555 1_555
O3B Mn1 1_555 1_555
H1B O3B 1_555 1_555
H2B O3B 1_555 1_555
C1B C2B 1_555 1_555
C2B H3B 1_555 1_555
H4B C2B 1_555 1_555
C3B N1B 1_555 1_555
H5B C3B 1_555 1_555
C4B C2B 1_555 1_555
C5B C4B 1_555 1_555
H6B C5B 1_555 1_555
C6B C5B 1_555 1_555
H7B C6B 1_555 1_555
C7B N1B 1_555 1_555
H8B C7B 1_555 1_555
C3 C4 1_555 1_555
C6 C7 1_555 1_555
C3B C4B 1_555 1_555
C6B C7B 1_555 1_555

#END
