
#######################################################################
#
#                 Cambridge Crystallographic Data Centre
#                                CCDC 
#
#######################################################################
#
# If this CIF has been generated from an entry in the Cambridge 
# Structural Database, then it will include bibliographic, chemical, 
# crystal, experimental, refinement or atomic coordinate data resulting 
# from the CCDC's data processing and validation procedures.
#
#######################################################################

data_VIDMOK
_symmetry_cell_setting           orthorhombic
_symmetry_space_group_name_H-M   'P 21 21 21'
_symmetry_Int_Tables_number      19
_space_group_name_Hall           'P 2ac 2ab'
loop_
_symmetry_equiv_pos_site_id
_symmetry_equiv_pos_as_xyz
1 x,y,z
2 1/2+x,1/2-y,-z
3 -x,1/2+y,1/2-z
4 1/2-x,-y,1/2+z
_cell_length_a                   29.865(5)
_cell_length_b                   12.163(3)
_cell_length_c                   9.499(2)
_cell_angle_alpha                90
_cell_angle_beta                 90
_cell_angle_gamma                90
_cell_volume                     3450.49
loop_
_atom_site_label
_atom_site_type_symbol
_atom_site_fract_x
_atom_site_fract_y
_atom_site_fract_z
Na1 Na 0.33403(4) -0.0291(1) 0.0609(1)
C1 C 0.2491(1) -0.0150(3) 0.3210(4)
O1 O 0.21512(8) -0.0668(2) 0.4028(3)
C2 C 0.2944(1) -0.0263(3) 0.3935(4)
O2 O 0.32463(7) 0.0297(2) 0.3028(3)
C3 C 0.3072(1) -0.1475(3) 0.4122(4)
O3 O 0.2883(1) -0.1845(3) 0.5428(4)
C4 C 0.2917(1) -0.2198(3) 0.2906(5)
O4 O 0.32447(9) -0.2077(2) 0.1816(3)
C5 C 0.2459(1) -0.1840(3) 0.2341(5)
O5 O 0.24992(8) -0.0709(2) 0.1910(3)
C6 C 0.2098(1) -0.1769(4) 0.3461(6)
C7 C 0.3285(2) -0.2999(3) 0.0911(7)
C8 C 0.3619(2) -0.2758(4) -0.0194(7)
O6 O 0.3475(1) -0.1816(3) -0.0948(4)
C9 C 0.3763 -0.1672 -0.2068
C10 C 0.3887 -0.0499 -0.2358
O7 O 0.3883(1) 0.0220(3) -0.1278(4)
C11 C 0.4316(1) 0.0474(5) -0.0772(6)
C12 C 0.4257(2) 0.1233(6) 0.0419(5)
O8 O 0.40044(9) 0.0662(3) 0.1481(3)
C13 C 0.3892(2) 0.1354(5) 0.2631(5)
C14 C 0.3646(1) 0.0674(4) 0.3693(4)
H1 H 0.243(1) 0.068(4) 0.303(5)
H2 H 0.294(1) 0.010(4) 0.484(5)
H3 H 0.341(2) -0.147(4) 0.418(6)
H4 H 0.302(3) -0.248(9) 0.54(1)
H5 H 0.289(2) -0.300(5) 0.332(6)
H6 H 0.240(1) -0.225(4) 0.157(5)
H7 H 0.179(2) -0.179(5) 0.315(7)
H8 H 0.213(2) -0.233(5) 0.426(7)
H9 H 0.302(2) -0.300(4) 0.049(5)
H10 H 0.333(3) -0.377(9) 0.16(1)
H11 H 0.365(2) -0.345(5) -0.077(7)
H12 H 0.394(3) -0.267(6) 0.028(9)
H13 H 0.375 -0.217 -0.286
H14 H 0.404 -0.209 -0.187
H15 H 0.407 -0.052 -0.321
H16 H 0.367 -0.021 -0.308
H17 H 0.449(2) 0.081(4) -0.155(6)
H18 H 0.442(2) -0.033(6) -0.053(7)
H19 H 0.452(3) 0.145(7) 0.074(9)
H20 H 0.409(4) 0.191(9) 0.01(1)
H21 H 0.372(2) 0.185(6) 0.212(8)
H22 H 0.414(2) 0.157(5) 0.311(6)
H23 H 0.383(2) -0.005(5) 0.401(7)
H24 H 0.359(2) 0.112(4) 0.445(6)
Na1C Na 0.16597(4) 0.0291(1) 0.5609(1)
O1C O 0.28488(8) 0.0668(2) -0.0972(3)
B1 B 0.3992(1) 0.4610(3) 0.6238(4)
C15 C 0.41707(9) 0.5848(3) 0.5783(3)
C16 C 0.4040(1) 0.6318(3) 0.4489(4)
C17 C 0.4216(1) 0.7309(4) 0.4007(5)
C18 C 0.4533(1) 0.7873(1) 0.4790(5)
C19 C 0.4669(1) 0.7429(3) 0.6055(5)
C20 C 0.4489(1) 0.6448(3) 0.6528(4)
C21 C 0.4348(1) 0.3697(3) 0.5605(3)
C22 C 0.4365(1) 0.2618(3) 0.6091(4)
C23 C 0.4663(1) 0.1843(3) 0.5586(5)
C24 C 0.4959(1) 0.2120(4) 0.4522(5)
C25 C 0.4948(1) 0.3160(4) 0.3995(5)
C26 C 0.4649(1) 0.3930(3) 0.4513(5)
C27 C 0.3493(1) 0.4451(3) 0.5526(3)
C28 C 0.3148(1) 0.5208(3) 0.5818(5)
C29 C 0.2735(1) 0.5151(5) 0.5161(6)
C30 C 0.2650(1) 0.4353(6) 0.4177(6)
C31 C 0.2977(1) 0.3596(6) 0.3866(5)
C32 C 0.3392(1) 0.3637(4) 0.4552(4)
C33 C 0.3967(1) 0.4450(2) 0.7934(3)
C34 C 0.4358(1) 0.4463(3) 0.8800(4)
C35 C 0.4350(1) 0.4390(3) 1.0250(4)
C36 C 0.3950(1) 0.4260(3) 1.0963(4)
C37 C 0.3562(1) 0.4187(3) 1.0186(4)
C38 C 0.3571(1) 0.4285(3) 0.8725(4)
H25 H 0.381(2) 0.590(5) 0.393(6)
H26 H 0.412(2) 0.755(5) 0.308(6)
H27 H 0.465(2) 0.856(5) 0.444(6)
H28 H 0.488(2) 0.783(5) 0.659(6)
H29 H 0.458(1) 0.620(4) 0.740(5)
H30 H 0.419(1) 0.239(3) 0.682(5)
H31 H 0.465(2) 0.102(5) 0.589(6)
H32 H 0.517(2) 0.160(6) 0.419(8)
H33 H 0.512(2) 0.337(5) 0.328(6)
H34 H 0.466(1) 0.469(3) 0.421(4)
H35 H 0.319(2) 0.587(6) 0.652(7)
H36 H 0.251(2) 0.578(4) 0.540(6)
H37 H 0.240(2) 0.439(4) 0.364(6)
H38 H 0.292(2) 0.312(6) 0.324(8)
H39 H 0.363(2) 0.310(4) 0.438(5)
H40 H 0.461(1) 0.453(3) 0.841(4)
H41 H 0.465(1) 0.440(4) 1.081(5)
H42 H 0.395(1) 0.424(4) 1.204(5)
H43 H 0.327(2) 0.415(6) 1.069(7)
H44 H 0.331(2) 0.418(4) 0.811(5)
loop_
_geom_bond_atom_site_label_1
_geom_bond_atom_site_label_2
_geom_bond_site_symmetry_1
_geom_bond_site_symmetry_2
Na1 O2 1_555 1_555
C1 O1 1_555 1_555
O1 C6 1_555 1_555
C2 C1 1_555 1_555
O2 C2 1_555 1_555
C3 C2 1_555 1_555
O3 C3 1_555 1_555
C4 C3 1_555 1_555
O4 Na1 1_555 1_555
C5 C4 1_555 1_555
O5 C1 1_555 1_555
C6 C5 1_555 1_555
C7 O4 1_555 1_555
C8 C7 1_555 1_555
O6 Na1 1_555 1_555
C9 O6 1_555 1_555
C10 C9 1_555 1_555
O7 Na1 1_555 1_555
C11 O7 1_555 1_555
C12 C11 1_555 1_555
O8 Na1 1_555 1_555
C13 O8 1_555 1_555
C14 O2 1_555 1_555
B1 C15 1_555 1_555
C15 C16 1_555 1_555
C16 C17 1_555 1_555
C17 C18 1_555 1_555
C18 C19 1_555 1_555
C19 C20 1_555 1_555
C20 C15 1_555 1_555
C21 B1 1_555 1_555
C22 C21 1_555 1_555
C23 C22 1_555 1_555
C24 C23 1_555 1_555
C25 C24 1_555 1_555
C26 C21 1_555 1_555
C27 B1 1_555 1_555
C28 C27 1_555 1_555
C29 C28 1_555 1_555
C30 C29 1_555 1_555
C31 C30 1_555 1_555
C32 C27 1_555 1_555
C33 B1 1_555 1_555
C34 C33 1_555 1_555
C35 C34 1_555 1_555
C36 C35 1_555 1_555
C37 C36 1_555 1_555
C38 C33 1_555 1_555
H1 C1 1_555 1_555
H2 C2 1_555 1_555
H3 C3 1_555 1_555
H4 O3 1_555 1_555
H5 C4 1_555 1_555
H6 C5 1_555 1_555
H7 C6 1_555 1_555
H8 C6 1_555 1_555
H9 C7 1_555 1_555
H10 C7 1_555 1_555
H11 C8 1_555 1_555
H12 C8 1_555 1_555
H13 C9 1_555 1_555
H14 C9 1_555 1_555
H15 C10 1_555 1_555
H16 C10 1_555 1_555
H17 C11 1_555 1_555
H18 C11 1_555 1_555
H19 C12 1_555 1_555
H20 C12 1_555 1_555
H21 C13 1_555 1_555
H22 C13 1_555 1_555
H23 C14 1_555 1_555
H24 C14 1_555 1_555
H25 C16 1_555 1_555
H26 C17 1_555 1_555
H27 C18 1_555 1_555
H28 C19 1_555 1_555
H29 C20 1_555 1_555
H30 C22 1_555 1_555
H31 C23 1_555 1_555
H32 C24 1_555 1_555
H33 C25 1_555 1_555
H34 C26 1_555 1_555
H35 C28 1_555 1_555
H36 C29 1_555 1_555
H37 C30 1_555 1_555
H38 C31 1_555 1_555
H39 C32 1_555 1_555
H40 C34 1_555 1_555
H41 C35 1_555 1_555
H42 C36 1_555 1_555
H43 C37 1_555 1_555
H44 C38 1_555 1_555
Na1C O1 1_555 1_555
O1C Na1 1_555 1_555
C4 O4 1_555 1_555
C5 O5 1_555 1_555
C8 O6 1_555 1_555
C10 O7 1_555 1_555
C12 O8 1_555 1_555
C13 C14 1_555 1_555
C25 C26 1_555 1_555
C31 C32 1_555 1_555
C37 C38 1_555 1_555

#END
