
#######################################################################
#
#                 Cambridge Crystallographic Data Centre
#                                CCDC 
#
#######################################################################
#
# If this CIF has been generated from an entry in the Cambridge 
# Structural Database, then it will include bibliographic, chemical, 
# crystal, experimental, refinement or atomic coordinate data resulting 
# from the CCDC's data processing and validation procedures.
#
#######################################################################

data_VIDREH
_symmetry_cell_setting           triclinic
_symmetry_space_group_name_H-M   'P -1'
_symmetry_Int_Tables_number      2
_space_group_name_Hall           '-P 1'
loop_
_symmetry_equiv_pos_site_id
_symmetry_equiv_pos_as_xyz
1 x,y,z
2 -x,-y,-z
_cell_length_a                   9.5869(5)
_cell_length_b                   9.7706(6)
_cell_length_c                   13.3468(6)
_cell_angle_alpha                75.481(4)
_cell_angle_beta                 81.145(4)
_cell_angle_gamma                63.890(5)
_cell_volume                     1085.39
loop_
_atom_site_label
_atom_site_type_symbol
_atom_site_fract_x
_atom_site_fract_y
_atom_site_fract_z
Cd1 Cd -0.26790(2) 0.38306(2) 0.270487(17)
C1 C -0.0169(3) 0.1593(3) 0.1856(3)
C2 C 0.1177(3) 0.0473(4) 0.1313(3)
C3 C 0.2281(3) -0.0862(3) 0.1871(2)
H1 H 0.2166 -0.1080 0.2590
C4 C 0.3551(4) -0.1879(4) 0.1381(2)
C5 C 0.4785(3) -0.3274(3) 0.1994(3)
C6 C 0.3686(5) -0.1565(5) 0.0311(3)
H2 H 0.4525 -0.2248 -0.0029
C7 C 0.2581(6) -0.0238(6) -0.0262(3)
H3 H 0.2680 -0.0031 -0.0982
C8 C 0.1325(5) 0.0781(5) 0.0250(3)
H4 H 0.0584 0.1673 -0.0130
C9 C 0.0082(3) 0.4053(3) 0.3621(2)
H5 H 0.0073 0.3127 0.4020
C10 C 0.1195(3) 0.4482(3) 0.3793(2)
C11 C 0.1200(4) 0.5869(4) 0.3203(3)
H6 H 0.1926 0.6210 0.3299
C12 C 0.0102(5) 0.6726(4) 0.2470(3)
H7 H 0.0087 0.7655 0.2059
C13 C -0.0968(4) 0.6212(4) 0.2346(3)
H8 H -0.1702 0.6807 0.1848
C14 C 0.2320(3) 0.3496(3) 0.4599(2)
C15 C 0.3591(3) 0.1587(3) 0.5758(2)
C16 C 0.4203(3) 0.0094(3) 0.6488(2)
C17 C 0.3543(3) -0.0937(3) 0.6590(2)
H9 H 0.2698 -0.0640 0.6196
C18 C 0.5259(3) -0.2756(4) 0.7791(2)
H10 H 0.5633 -0.3736 0.8225
C19 C 0.5970(4) -0.1797(4) 0.7756(3)
H11 H 0.6796 -0.2112 0.8172
C20 C 0.5444(4) -0.0359(4) 0.7095(3)
H12 H 0.5918 0.0304 0.7057
N1 N -0.0991(3) 0.4888(3) 0.2915(2)
N2 N 0.2519(3) 0.2021(3) 0.5072(2)
N3 N 0.3996(3) 0.2760(3) 0.5681(2)
H13 H 0.4672 0.2732 0.6050
N4 N 0.3202(3) 0.3991(3) 0.4946(2)
N5 N 0.4043(3) -0.2333(3) 0.7221(2)
O1 O -0.0324(2) 0.1307(3) 0.28238(18)
O2 O -0.1104(3) 0.2809(3) 0.13090(18)
O3 O 0.4696(3) -0.3506(2) 0.29591(18)
O4 O 0.5868(3) -0.4187(3) 0.1498(2)
O5 O -0.2881(3) 0.3233(2) 0.44988(18)
H14 H -0.242(5) 0.2335(17) 0.4850(18)
H15 H -0.302(6) 0.391(2) 0.4842(18)
Cd1_2 Cd 0.73210(2) -0.61694(2) 0.270487(17)
Cd1A Cd 0.26790(2) -0.38306(2) 0.729513(17)
N5A N -0.4043(3) 0.2333(3) 0.2779(2)
O3_2 O -0.5304(3) 0.6494(2) 0.29591(18)
O4_2 O -0.4132(3) 0.5813(3) 0.1498(2)
O6 O 0.7933(10) 0.5362(8) 0.9616(5)
H16 H 0.889(2) 0.504(5) 0.939(4)
H17 H 0.778(5) 0.616(4) 0.985(4)
O7 O 0.8225(4) 0.0263(3) 0.5602(2)
H18 H 0.814(5) -0.046(4) 0.539(4)
H19 H 0.895(4) -0.017(5) 0.603(3)
loop_
_geom_bond_atom_site_label_1
_geom_bond_atom_site_label_2
_geom_bond_site_symmetry_1
_geom_bond_site_symmetry_2
Cd1 N1 1_555 1_555
C1 C2 1_555 1_555
C2 C3 1_555 1_555
C3 H1 1_555 1_555
C4 C3 1_555 1_555
C5 C4 1_555 1_555
C6 C4 1_555 1_555
H2 C6 1_555 1_555
C7 C6 1_555 1_555
H3 C7 1_555 1_555
C8 C2 1_555 1_555
H4 C8 1_555 1_555
C9 H5 1_555 1_555
C10 C9 1_555 1_555
C11 C10 1_555 1_555
H6 C11 1_555 1_555
C12 C11 1_555 1_555
H7 C12 1_555 1_555
C13 C12 1_555 1_555
H8 C13 1_555 1_555
C14 C10 1_555 1_555
C15 C16 1_555 1_555
C16 C17 1_555 1_555
C17 H9 1_555 1_555
C18 H10 1_555 1_555
C19 C18 1_555 1_555
H11 C19 1_555 1_555
C20 C16 1_555 1_555
H12 C20 1_555 1_555
N1 C9 1_555 1_555
N2 C14 1_555 1_555
N3 C15 1_555 1_555
H13 N3 1_555 1_555
N4 C14 1_555 1_555
N5 C17 1_555 1_555
O1 Cd1 1_555 1_555
O2 Cd1 1_555 1_555
O3 C5 1_555 1_555
O4 C5 1_555 1_555
O5 Cd1 1_555 1_555
H14 O5 1_555 1_555
H15 O5 1_555 1_555
O6 H16 1_555 1_555
H17 O6 1_555 1_555
O7 H18 1_555 1_555
H19 O7 1_555 1_555
Cd1_2 O3 1_555 1_555
Cd1A N5 1_555 1_555
N5A Cd1 1_555 1_555
O3_2 Cd1 1_555 1_555
O4_2 Cd1 1_555 1_555
C1 O1 1_555 1_555
C1 O2 1_555 1_555
C7 C8 1_555 1_555
C13 N1 1_555 1_555
C15 N2 1_555 1_555
C18 N5 1_555 1_555
C19 C20 1_555 1_555
N3 N4 1_555 1_555
O4 Cd1_2 1_555 1_555

#END
