
#######################################################################
#
#                 Cambridge Crystallographic Data Centre
#                                CCDC 
#
#######################################################################
#
# If this CIF has been generated from an entry in the Cambridge 
# Structural Database, then it will include bibliographic, chemical, 
# crystal, experimental, refinement or atomic coordinate data resulting 
# from the CCDC's data processing and validation procedures.
#
#######################################################################

data_VIDRIL
_symmetry_cell_setting           monoclinic
_symmetry_space_group_name_H-M   'P 21/c'
_symmetry_Int_Tables_number      14
_space_group_name_Hall           '-P 2ybc'
loop_
_symmetry_equiv_pos_site_id
_symmetry_equiv_pos_as_xyz
1 x,y,z
2 -x,1/2+y,1/2-z
3 -x,-y,-z
4 x,1/2-y,1/2+z
_cell_length_a                   14.495(3)
_cell_length_b                   16.313(3)
_cell_length_c                   19.838(4)
_cell_angle_alpha                90
_cell_angle_beta                 107.07(3)
_cell_angle_gamma                90
_cell_volume                     4484.19
loop_
_atom_site_label
_atom_site_type_symbol
_atom_site_fract_x
_atom_site_fract_y
_atom_site_fract_z
Cd1 Cd 0.39563(4) 0.27384(3) 0.18976(3)
Cd2 Cd 0.11605(4) 0.25444(3) 0.10389(3)
C1 C 0.3153(6) 0.3078(5) 0.0477(4)
C2 C 0.2840(5) 0.3078(5) -0.0304(4)
C3 C 0.3506(6) 0.2949(5) -0.0672(4)
H1 H 0.4158 0.2900 -0.0429
C4 C 0.3202(6) 0.2893(5) -0.1396(4)
H2 H 0.3653 0.2807 -0.1639
C5 C 0.2244(5) 0.2963(4) -0.1766(3)
C6 C 0.1918(6) 0.2859(4) -0.2547(4)
C7 C 0.1575(6) 0.3107(6) -0.1407(4)
H3 H 0.0926 0.3166 -0.1654
C8 C 0.1871(6) 0.3163(6) -0.0681(4)
H4 H 0.1418 0.3257 -0.0442
C9 C -0.0635(5) 0.2595(4) 0.0062(4)
C10 C -0.1581(5) 0.2580(4) -0.0514(4)
C11 C -0.1581(6) 0.2480(4) -0.1206(4)
H5 H -0.1003 0.2470 -0.1319
C12 C -0.2451(6) 0.2394(5) -0.1728(4)
H6 H -0.2454 0.2296 -0.2190
C13 C -0.3323(5) 0.2452(4) -0.1569(4)
C14 C -0.4266(6) 0.2378(5) -0.2136(4)
C15 C -0.3310(6) 0.2563(5) -0.0879(4)
H7 H -0.3888 0.2604 -0.0768
C16 C -0.2448(6) 0.2613(5) -0.0351(4)
H8 H -0.2447 0.2669 0.0115
C17 C 0.4019(6) 0.0819(5) 0.2074(4)
H9 H 0.4058 0.1007 0.2524
C18 C 0.3988(7) -0.0022(5) 0.1953(5)
H10 H 0.4025 -0.0389 0.2319
C19 C 0.3903(7) -0.0297(5) 0.1295(4)
H11 H 0.3868 -0.0857 0.1205
C20 C 0.3867(5) 0.0248(5) 0.0756(4)
C21 C 0.3921(6) 0.1081(5) 0.0922(4)
H12 H 0.3904 0.1459 0.0567
C22 C 0.3761(5) -0.0043(5) 0.0036(4)
C23 C 0.3631(6) -0.0131(5) -0.1039(4)
C24 C 0.3592(6) 0.0034(4) -0.1773(4)
C25 C 0.3415(7) -0.0592(5) -0.2274(4)
H13 H 0.3313 -0.1126 -0.2147
C26 C 0.3393(8) -0.0417(6) -0.2949(5)
H14 H 0.3283 -0.0831 -0.3286
C27 C 0.3532(7) 0.0367(5) -0.3126(4)
H15 H 0.3512 0.0479 -0.3590
C28 C 0.0902(7) 0.4476(5) 0.0894(4)
H16 H 0.0881 0.4325 0.0438
C29 C 0.0807(8) 0.5296(5) 0.1037(5)
H17 H 0.0727 0.5689 0.0685
C30 C 0.0833(7) 0.5522(5) 0.1719(4)
H18 H 0.0760 0.6068 0.1829
C31 C 0.0970(6) 0.4922(5) 0.2233(4)
C32 C 0.1071(6) 0.4119(5) 0.2047(4)
H19 H 0.1178 0.3717 0.2394
C33 C 0.1035(6) 0.5141(5) 0.2971(4)
C34 C 0.1152(5) 0.5073(4) 0.4037(4)
C35 C 0.1239(5) 0.4837(4) 0.4765(4)
C36 C 0.1225(6) 0.4024(5) 0.4967(4)
H20 H 0.1178 0.3619 0.4628
C37 C 0.1344(7) 0.5424(5) 0.5292(4)
H21 H 0.1379 0.5977 0.5186
C38 C 0.1395(7) 0.5193(5) 0.5955(4)
H22 H 0.1444 0.5583 0.6306
C39 C 0.1373(6) 0.4374(5) 0.6103(4)
H23 H 0.1429 0.4220 0.6564
C40 C 0.3724(6) 0.0806(5) -0.2004(4)
H24 H 0.3841 0.1234 -0.1680
N1 N 0.3995(5) 0.1363(4) 0.1572(3)
N2 N 0.3638(6) -0.0835(4) -0.0093(3)
N3 N 0.3560(6) -0.0874(4) -0.0792(3)
N4 N 0.3765(5) 0.0424(4) -0.0524(3)
N5 N 0.3694(5) 0.0976(4) -0.2672(3)
N6 N 0.1023(5) 0.3893(4) 0.1383(3)
N7 N 0.1126(5) 0.4599(4) 0.3499(3)
N8 N 0.1090(5) 0.5861(4) 0.3834(3)
N9 N 0.1024(6) 0.5916(4) 0.3147(3)
N10 N 0.1277(5) 0.3793(4) 0.5625(3)
O1 O 0.2526(4) 0.3029(4) 0.0804(3)
O2 O 0.4028(4) 0.3123(4) 0.0800(3)
O3 O 0.2523(4) 0.2719(4) -0.2876(3)
O4 O 0.1031(4) 0.2886(3) -0.2871(3)
O5 O 0.0095(4) 0.2870(3) -0.0077(3)
O6 O -0.0597(4) 0.2317(3) 0.0657(3)
O7 O -0.4286(4) 0.2134(4) -0.2733(3)
O8 O -0.5021(4) 0.2559(4) -0.1982(3)
H25 H 0.1021 0.6314 0.4062
H26 H 0.3569 -0.1309 -0.0952
Cd1C Cd -0.60437(4) 0.22616(3) -0.31024(3)
Cd1C_2 Cd 0.39563(4) 0.22616(3) -0.31024(3)
Cd2C Cd 0.11605(4) 0.24556(3) -0.39611(3)
Cd2C_2 Cd 0.11605(4) 0.24556(3) 0.60389(3)
N5C N 0.3694(5) 0.4024(4) 0.2328(3)
N10C N 0.1277(5) 0.1207(4) 0.0625(3)
O3C O 0.2523(4) 0.2281(4) 0.2124(3)
O4C O 0.1031(4) 0.2114(3) 0.2129(3)
O7C O 0.5714(4) 0.2866(4) 0.2267(3)
O8C O 0.4979(4) 0.2441(4) 0.3018(3)
O9 O 0.5934(14) 0.464(4) 0.978(4)
H27 H 0.5333 0.4731 0.9634
O10 O 0.9088(12) 0.2321(10) 0.7219(9)
H28 H 0.9632 0.2468 0.7185
H29 H 0.8757 0.2126 0.6869
O11 O 0.3248(8) 0.7545(5) 0.8671(5)
H30 H 0.3556 0.7419 0.8393
H31 H 0.3341 0.8016 0.8833
H32 H 0.4108 0.5149 0.8987
H33 H 0.3234 0.5189 0.8634
O12 O 0.365(3) 0.521(2) 0.8929(19)
H34 H 0.1775 0.5529 0.8074
O13 O 0.175(6) 0.585(4) 0.841(3)
H35 H 0.5131 0.3458 0.0575
O14 O 0.567(2) 0.359(2) 0.0451(17)
loop_
_geom_bond_atom_site_label_1
_geom_bond_atom_site_label_2
_geom_bond_site_symmetry_1
_geom_bond_site_symmetry_2
Cd1 N1 1_555 1_555
Cd2 N6 1_555 1_555
C1 C2 1_555 1_555
C2 C3 1_555 1_555
C3 H1 1_555 1_555
C4 C3 1_555 1_555
H2 C4 1_555 1_555
C5 C4 1_555 1_555
C6 C5 1_555 1_555
C7 C5 1_555 1_555
H3 C7 1_555 1_555
C8 C2 1_555 1_555
H4 C8 1_555 1_555
C9 C10 1_555 1_555
C10 C11 1_555 1_555
C11 H5 1_555 1_555
C12 C11 1_555 1_555
H6 C12 1_555 1_555
C13 C12 1_555 1_555
C14 C13 1_555 1_555
C15 C13 1_555 1_555
H7 C15 1_555 1_555
C16 C10 1_555 1_555
H8 C16 1_555 1_555
C17 H9 1_555 1_555
C18 C17 1_555 1_555
H10 C18 1_555 1_555
C19 C18 1_555 1_555
H11 C19 1_555 1_555
C20 C19 1_555 1_555
C21 C20 1_555 1_555
H12 C21 1_555 1_555
C22 C20 1_555 1_555
C23 C24 1_555 1_555
C24 C25 1_555 1_555
C25 H13 1_555 1_555
C26 C25 1_555 1_555
H14 C26 1_555 1_555
C27 C26 1_555 1_555
H15 C27 1_555 1_555
C28 H16 1_555 1_555
C29 C28 1_555 1_555
H17 C29 1_555 1_555
C30 C29 1_555 1_555
H18 C30 1_555 1_555
C31 C30 1_555 1_555
C32 C31 1_555 1_555
H19 C32 1_555 1_555
C33 C31 1_555 1_555
C34 C35 1_555 1_555
C35 C36 1_555 1_555
C36 H20 1_555 1_555
C37 C35 1_555 1_555
H21 C37 1_555 1_555
C38 C37 1_555 1_555
H22 C38 1_555 1_555
C39 C38 1_555 1_555
H23 C39 1_555 1_555
C40 C24 1_555 1_555
H24 C40 1_555 1_555
N1 C17 1_555 1_555
N2 C22 1_555 1_555
N3 C23 1_555 1_555
N4 C22 1_555 1_555
N5 C27 1_555 1_555
N6 C28 1_555 1_555
N7 C33 1_555 1_555
N8 C34 1_555 1_555
N9 C33 1_555 1_555
N10 C36 1_555 1_555
O1 Cd1 1_555 1_555
O2 Cd1 1_555 1_555
O3 C6 1_555 1_555
O4 C6 1_555 1_555
O5 Cd2 1_555 1_555
O6 Cd2 1_555 1_555
O7 C14 1_555 1_555
O8 C14 1_555 1_555
H25 N8 1_555 1_555
H26 N3 1_555 1_555
O9 H27 1_555 1_555
O10 H28 1_555 1_555
H29 O10 1_555 1_555
O11 H30 1_555 1_555
H31 O11 1_555 1_555
H32 O12 1_555 1_555
H33 O12 1_555 1_555
H34 O13 1_555 1_555
H35 O14 1_555 1_555
Cd1C O7 1_555 1_555
Cd1C_2 N5 1_555 1_555
Cd2C O3 1_555 1_555
Cd2C_2 N10 1_555 1_555
N5C Cd1 1_555 1_555
N10C Cd2 1_555 1_555
O3C Cd1 1_555 1_555
O4C Cd2 1_555 1_555
O7C Cd1 1_555 1_555
O8C Cd1 1_555 1_555
Cd2 O1 1_555 1_555
Cd2 O3C 1_555 1_555
C1 O1 1_555 1_555
C1 O2 1_555 1_555
C7 C8 1_555 1_555
C9 O5 1_555 1_555
C9 O6 1_555 1_555
C15 C16 1_555 1_555
C21 N1 1_555 1_555
C23 N4 1_555 1_555
C32 N6 1_555 1_555
C34 N7 1_555 1_555
C39 N10 1_555 1_555
C40 N5 1_555 1_555
N2 N3 1_555 1_555
N8 N9 1_555 1_555
O3 Cd1C_2 1_555 1_555
O4 Cd2C 1_555 1_555
O8 Cd1C 1_555 1_555

#END
