
#######################################################################
#
#                 Cambridge Crystallographic Data Centre
#                                CCDC 
#
#######################################################################
#
# If this CIF has been generated from an entry in the Cambridge 
# Structural Database, then it will include bibliographic, chemical, 
# crystal, experimental, refinement or atomic coordinate data resulting 
# from the CCDC's data processing and validation procedures.
#
#######################################################################

data_VIDSUY
_symmetry_cell_setting           monoclinic
_symmetry_space_group_name_H-M   'P 21/n'
_symmetry_Int_Tables_number      14
_space_group_name_Hall           '-P 2yn'
loop_
_symmetry_equiv_pos_site_id
_symmetry_equiv_pos_as_xyz
1 x,y,z
2 1/2-x,1/2+y,1/2-z
3 -x,-y,-z
4 1/2+x,1/2-y,1/2+z
_cell_length_a                   22.76(3)
_cell_length_b                   7.558(9)
_cell_length_c                   31.61(5)
_cell_angle_alpha                90
_cell_angle_beta                 97.626(19)
_cell_angle_gamma                90
_cell_volume                     5389.46
loop_
_atom_site_label
_atom_site_type_symbol
_atom_site_fract_x
_atom_site_fract_y
_atom_site_fract_z
N1 N -0.0593(5) 0.6136(14) 0.7339(3)
H1 H -0.0802 0.6128 0.7084
N2 N 0.0276(4) 0.5402(13) 0.6723(3)
H2 H -0.0097 0.5671 0.6637
N3 N 0.0295(5) 0.5052(14) 0.6014(4)
H3 H -0.0074 0.5436 0.5979
N4 N 0.1838(5) 0.7825(15) 0.5057(3)
H4 H 0.1627 0.7641 0.4807
N5 N 0.2622(5) 0.7024(14) 0.4738(3)
H5 H 0.2351 0.6931 0.4513
N6 N 0.2890(5) 0.6591(14) 0.3865(3)
H6 H 0.2507 0.6781 0.3853
C1 C -0.0809(7) 0.6430(19) 0.7719(5)
H7 H -0.1211 0.6693 0.7744
C2 C -0.0381(7) 0.630(2) 0.8045(5)
H8 H -0.0428 0.6453 0.8337
C3 C 0.0159(6) 0.5885(17) 0.7888(4)
C4 C 0.0747(6) 0.5635(16) 0.8059(5)
H9 H 0.0854 0.5716 0.8359
C5 C 0.1173(6) 0.5280(18) 0.7811(4)
H10 H 0.1572 0.5113 0.7938
C6 C 0.1027(5) 0.5159(15) 0.7364(4)
H11 H 0.1328 0.4880 0.7194
C7 C 0.0453(6) 0.5439(15) 0.7170(4)
C8 C 0.0008(5) 0.5858(17) 0.7429(4)
C9 C 0.0611(7) 0.5002(16) 0.6412(4)
C10 C 0.0572(6) 0.4464(19) 0.5646(4)
H12 H 0.0282 0.3755 0.5456
H13 H 0.0912 0.3685 0.5747
C11 C 0.0787(6) 0.5963(18) 0.5394(4)
H14 H 0.0450 0.6755 0.5297
H15 H 0.0936 0.5478 0.5138
C12 C 0.1279(6) 0.7043(17) 0.5651(4)
H16 H 0.1121 0.7567 0.5900
H17 H 0.1605 0.6230 0.5762
C13 C 0.1532(6) 0.8504(19) 0.5407(4)
H18 H 0.1208 0.9305 0.5288
H19 H 0.1816 0.9200 0.5606
C14 C 0.2421(6) 0.7473(17) 0.5100(4)
C15 C 0.3211(6) 0.6675(16) 0.4665(4)
C16 C 0.3697(5) 0.6536(18) 0.4958(5)
H20 H 0.3648 0.6628 0.5251
C17 C 0.4272(6) 0.6262(18) 0.4855(5)
H21 H 0.4608 0.6225 0.5068
C18 C 0.4322(7) 0.6055(18) 0.4435(5)
H22 H 0.4703 0.5814 0.4357
C19 C 0.3854(6) 0.6173(17) 0.4117(4)
C20 C 0.3763(7) 0.6052(19) 0.3640(5)
H23 H 0.4057 0.5837 0.3459
C21 C 0.3178(7) 0.6311(19) 0.3519(4)
H24 H 0.2992 0.6299 0.3232
C22 C 0.3281(5) 0.6539(18) 0.4239(4)
O1 O 0.1139(4) 0.4651(12) 0.6480(3)
O2 O 0.2733(4) 0.7487(12) 0.5456(3)
K1 K 0.32564(13) 0.8536(4) 0.62025(9)
O3 O 0.2558(5) 1.1621(17) 0.6126(4)
O4 O 0.2408(5) 0.923(2) 0.6786(3)
O5 O 0.3097(6) 0.6178(15) 0.6860(3)
O6 O 0.4198(5) 0.6362(15) 0.6551(4)
O7 O 0.4351(5) 0.8591(17) 0.5881(3)
O8 O 0.3644(7) 1.1640(16) 0.5785(4)
C23 C 0.2247(10) 1.201(3) 0.6468(7)
H25 H 0.1950 1.2938 0.6381
H26 H 0.2527 1.2472 0.6709
C24 C 0.1947(8) 1.046(3) 0.6611(6)
H27 H 0.1697 1.0793 0.6832
H28 H 0.1691 0.9908 0.6369
C25 C 0.2156(9) 0.775(3) 0.6886(7)
H29 H 0.1976 0.7126 0.6625
H30 H 0.1842 0.7995 0.7067
C26 C 0.2653(9) 0.662(3) 0.7131(6)
H31 H 0.2840 0.7283 0.7384
H32 H 0.2481 0.5520 0.7232
C27 C 0.3595(10) 0.548(2) 0.7074(7)
H33 H 0.3492 0.4413 0.7231
H34 H 0.3780 0.6347 0.7285
C28 C 0.4042(9) 0.497(3) 0.6772(7)
H35 H 0.4400 0.4460 0.6941
H36 H 0.3865 0.4050 0.6571
C29 C 0.4598(9) 0.600(3) 0.6260(7)
H37 H 0.4393 0.5359 0.6010
H38 H 0.4926 0.5250 0.6396
C30 C 0.4831(8) 0.766(3) 0.6125(7)
H39 H 0.4994 0.8371 0.6377
H40 H 0.5152 0.7441 0.5949
C31 C 0.4536(8) 1.021(3) 0.5703(7)
H41 H 0.4817 0.9953 0.5497
H42 H 0.4740 1.0966 0.5933
C32 C 0.4013(11) 1.113(3) 0.5486(6)
H43 H 0.4139 1.2187 0.5337
H44 H 0.3793 1.0338 0.5271
C33 C 0.3127(11) 1.244(3) 0.5584(6)
H45 H 0.2901 1.1576 0.5392
H46 H 0.3236 1.3443 0.5408
C34 C 0.2761(9) 1.308(2) 0.5884(7)
H47 H 0.2415 1.3710 0.5731
H48 H 0.2988 1.3926 0.6082
K2 K -0.13499(14) 0.9483(4) 0.63689(9)
O9 O -0.1322(5) 1.0328(13) 0.7255(3)
O10 O -0.2410(5) 0.9489(13) 0.6731(3)
O11 O -0.2321(5) 0.7863(13) 0.5923(3)
O12 O -0.1325(4) 0.8697(12) 0.5498(3)
O13 O -0.0256(4) 0.9397(11) 0.6047(3)
O14 O -0.0334(4) 1.0958(12) 0.6841(3)
C35 C -0.1872(8) 1.090(2) 0.7332(5)
H49 H -0.1971 1.2027 0.7178
H50 H -0.1867 1.1125 0.7641
C36 C -0.2332(8) 0.954(2) 0.7187(5)
H51 H -0.2204 0.8367 0.7304
H52 H -0.2711 0.9849 0.7290
C37 C -0.2795(8) 0.820(2) 0.6549(5)
H53 H -0.3184 0.8365 0.6651
H54 H -0.2641 0.7026 0.6649
C38 C -0.2887(6) 0.821(2) 0.6061(5)
H55 H -0.3176 0.7286 0.5951
H56 H -0.3040 0.9373 0.5953
C39 C -0.2364(6) 0.7880(19) 0.5467(4)
H57 H -0.2495 0.9062 0.5357
H58 H -0.2660 0.6998 0.5345
C40 C -0.1772(7) 0.745(2) 0.5338(5)
H59 H -0.1650 0.6256 0.5444
H60 H -0.1806 0.7427 0.5022
C41 C -0.0737(7) 0.825(2) 0.5413(5)
H61 H -0.0725 0.8173 0.5102
H62 H -0.0614 0.7094 0.5543
C42 C -0.0343(7) 0.965(2) 0.5600(4)
H63 H 0.0041 0.9598 0.5486
H64 H -0.0524 1.0826 0.5530
C43 C 0.0154(6) 1.067(2) 0.6244(5)
H65 H 0.0013 1.1879 0.6163
H66 H 0.0546 1.0499 0.6146
C44 C 0.0208(7) 1.046(2) 0.6712(5)
H67 H 0.0299 0.9212 0.6792
H68 H 0.0532 1.1215 0.6853
C45 C -0.0320(7) 1.100(2) 0.7303(5)
H69 H -0.0212 0.9824 0.7425
H70 H -0.0017 1.1864 0.7428
C46 C -0.0887(8) 1.151(2) 0.7405(4)
H71 H -0.0868 1.1600 0.7719
H72 H -0.0991 1.2688 0.7282
O15 O -0.1728(5) 0.4354(15) 0.6657(3)
O16 O -0.0968(4) 0.6031(13) 0.6487(3)
O17 O -0.0889(4) 0.3907(13) 0.5793(3)
O18 O -0.1728(4) 0.2542(13) 0.5930(3)
C47 C -0.1350(7) 0.476(2) 0.6420(5)
C48 C -0.1299(7) 0.366(2) 0.6008(5)
K2_2 K -0.13499(14) -0.0517(4) 0.63689(9)
O18_2 O -0.1728(4) 1.2542(13) 0.5930(3)
loop_
_geom_bond_atom_site_label_1
_geom_bond_atom_site_label_2
_geom_bond_site_symmetry_1
_geom_bond_site_symmetry_2
N1 H1 1_555 1_555
N2 H2 1_555 1_555
N3 H3 1_555 1_555
N4 H4 1_555 1_555
N5 H5 1_555 1_555
N6 H6 1_555 1_555
C1 N1 1_555 1_555
H7 C1 1_555 1_555
C2 C1 1_555 1_555
H8 C2 1_555 1_555
C3 C2 1_555 1_555
C4 C3 1_555 1_555
H9 C4 1_555 1_555
C5 C4 1_555 1_555
H10 C5 1_555 1_555
C6 C5 1_555 1_555
H11 C6 1_555 1_555
C7 N2 1_555 1_555
C8 N1 1_555 1_555
C9 N2 1_555 1_555
C10 N3 1_555 1_555
H12 C10 1_555 1_555
H13 C10 1_555 1_555
C11 C10 1_555 1_555
H14 C11 1_555 1_555
H15 C11 1_555 1_555
C12 C11 1_555 1_555
H16 C12 1_555 1_555
H17 C12 1_555 1_555
C13 N4 1_555 1_555
H18 C13 1_555 1_555
H19 C13 1_555 1_555
C14 N4 1_555 1_555
C15 N5 1_555 1_555
C16 C15 1_555 1_555
H20 C16 1_555 1_555
C17 C16 1_555 1_555
H21 C17 1_555 1_555
C18 C17 1_555 1_555
H22 C18 1_555 1_555
C19 C18 1_555 1_555
C20 C19 1_555 1_555
H23 C20 1_555 1_555
C21 N6 1_555 1_555
H24 C21 1_555 1_555
C22 N6 1_555 1_555
O1 C9 1_555 1_555
O2 C14 1_555 1_555
K1 O2 1_555 1_555
O3 K1 1_555 1_555
O4 K1 1_555 1_555
O5 K1 1_555 1_555
O6 K1 1_555 1_555
O7 K1 1_555 1_555
O8 K1 1_555 1_555
C23 O3 1_555 1_555
H25 C23 1_555 1_555
H26 C23 1_555 1_555
C24 O4 1_555 1_555
H27 C24 1_555 1_555
H28 C24 1_555 1_555
C25 O4 1_555 1_555
H29 C25 1_555 1_555
H30 C25 1_555 1_555
C26 O5 1_555 1_555
H31 C26 1_555 1_555
H32 C26 1_555 1_555
C27 O5 1_555 1_555
H33 C27 1_555 1_555
H34 C27 1_555 1_555
C28 O6 1_555 1_555
H35 C28 1_555 1_555
H36 C28 1_555 1_555
C29 O6 1_555 1_555
H37 C29 1_555 1_555
H38 C29 1_555 1_555
C30 O7 1_555 1_555
H39 C30 1_555 1_555
H40 C30 1_555 1_555
C31 O7 1_555 1_555
H41 C31 1_555 1_555
H42 C31 1_555 1_555
C32 O8 1_555 1_555
H43 C32 1_555 1_555
H44 C32 1_555 1_555
C33 O8 1_555 1_555
H45 C33 1_555 1_555
H46 C33 1_555 1_555
C34 O3 1_555 1_555
H47 C34 1_555 1_555
H48 C34 1_555 1_555
K2 O9 1_555 1_555
O9 C35 1_555 1_555
O10 K2 1_555 1_555
O11 K2 1_555 1_555
O12 K2 1_555 1_555
O13 K2 1_555 1_555
O14 K2 1_555 1_555
C35 H49 1_555 1_555
H50 C35 1_555 1_555
C36 O10 1_555 1_555
H51 C36 1_555 1_555
H52 C36 1_555 1_555
C37 O10 1_555 1_555
H53 C37 1_555 1_555
H54 C37 1_555 1_555
C38 O11 1_555 1_555
H55 C38 1_555 1_555
H56 C38 1_555 1_555
C39 O11 1_555 1_555
H57 C39 1_555 1_555
H58 C39 1_555 1_555
C40 O12 1_555 1_555
H59 C40 1_555 1_555
H60 C40 1_555 1_555
C41 O12 1_555 1_555
H61 C41 1_555 1_555
H62 C41 1_555 1_555
C42 O13 1_555 1_555
H63 C42 1_555 1_555
H64 C42 1_555 1_555
C43 O13 1_555 1_555
H65 C43 1_555 1_555
H66 C43 1_555 1_555
C44 O14 1_555 1_555
H67 C44 1_555 1_555
H68 C44 1_555 1_555
C45 O14 1_555 1_555
H69 C45 1_555 1_555
H70 C45 1_555 1_555
C46 O9 1_555 1_555
H71 C46 1_555 1_555
H72 C46 1_555 1_555
O15 C47 1_555 1_555
O16 K2 1_555 1_555
O17 C48 1_555 1_555
O18 C48 1_555 1_555
C47 O16 1_555 1_555
C48 C47 1_555 1_555
K2_2 O18 1_555 1_555
O18_2 K2 1_555 1_555
N3 C9 1_555 1_555
N5 C14 1_555 1_555
C3 C8 1_555 1_555
C6 C7 1_555 1_555
C7 C8 1_555 1_555
C12 C13 1_555 1_555
C15 C22 1_555 1_555
C19 C22 1_555 1_555
C20 C21 1_555 1_555
C23 C24 1_555 1_555
C25 C26 1_555 1_555
C27 C28 1_555 1_555
C29 C30 1_555 1_555
C31 C32 1_555 1_555
C33 C34 1_555 1_555
C35 C36 1_555 1_555
C37 C38 1_555 1_555
C39 C40 1_555 1_555
C41 C42 1_555 1_555
C43 C44 1_555 1_555
C45 C46 1_555 1_555

#END
