
#######################################################################
#
#                 Cambridge Crystallographic Data Centre
#                                CCDC 
#
#######################################################################
#
# If this CIF has been generated from an entry in the Cambridge 
# Structural Database, then it will include bibliographic, chemical, 
# crystal, experimental, refinement or atomic coordinate data resulting 
# from the CCDC's data processing and validation procedures.
#
#######################################################################

data_VIDVEK
_symmetry_cell_setting           rhombohedral
_symmetry_space_group_name_H-M   'R 3 c'
_symmetry_Int_Tables_number      161
_space_group_name_Hall           'R 3 -2"c'
loop_
_symmetry_equiv_pos_site_id
_symmetry_equiv_pos_as_xyz
1 x,y,z
2 -y,x-y,z
3 -x+y,-x,z
4 -x+y,y,1/2+z
5 -y,-x,1/2+z
6 x,x-y,1/2+z
7 1/3+x,2/3+y,2/3+z
8 1/3-y,2/3+x-y,2/3+z
9 1/3-x+y,2/3-x,2/3+z
10 1/3-x+y,2/3+y,1/6+z
11 1/3-y,2/3-x,1/6+z
12 1/3+x,2/3+x-y,1/6+z
13 2/3+x,1/3+y,1/3+z
14 2/3-y,1/3+x-y,1/3+z
15 2/3-x+y,1/3-x,1/3+z
16 2/3-x+y,1/3+y,5/6+z
17 2/3-y,1/3-x,5/6+z
18 2/3+x,1/3+x-y,5/6+z
_cell_length_a                   24.9084(11)
_cell_length_b                   24.9084(11)
_cell_length_c                   8.1932(4)
_cell_angle_alpha                90
_cell_angle_beta                 90
_cell_angle_gamma                120
_cell_volume                     4402.26
loop_
_atom_site_label
_atom_site_type_symbol
_atom_site_fract_x
_atom_site_fract_y
_atom_site_fract_z
Rb1 Rb 0.36109(15) 0.27087(18) 0.5259(6)
N1 N 0.23686(6) 0.26014(35) 0.53752(17)
C1 C 0.18896(13) 0.20563(29) 0.5959(4)
C2 C 0.15583(6) 0.21414(29) 0.72637(23)
C3 C 0.10560(11) 0.1624(4) 0.7983(5)
C4 C 0.08788(23) 0.10276(32) 0.7420(9)
C5 C 0.12025(30) 0.09444(27) 0.6139(11)
C6 C 0.17063(24) 0.14570(33) 0.5409(8)
C7 C 0.23469(8) 0.30473(28) 0.63047(30)
C8 C 0.18594(9) 0.27983(30) 0.74870(28)
C9 C 0.17798(19) 0.3199(4) 0.8525(6)
C10 C 0.21772(30) 0.3841(4) 0.8406(10)
C11 C 0.26553(29) 0.40847(28) 0.7249(10)
C12 C 0.27407(18) 0.36896(29) 0.6201(7)
H1 H 0.08326(8) 0.1679(5) 0.88610(33)
H2 H 0.05338(27) 0.0674(4) 0.7914(10)
H3 H 0.1078(4) 0.05339(29) 0.5760(14)
H4 H 0.19266(30) 0.1397(5) 0.4531(10)
H5 H 0.14528(20) 0.3035(5) 0.9320(6)
H6 H 0.2122(4) 0.4115(5) 0.9120(13)
H7 H 0.2926(4) 0.45250(28) 0.7175(13)
H8 H 0.30691(18) 0.3859(4) 0.5410(7)
Rb1H Rb 0.24311(23) 0.30558(15) 0.1926(6)
Rb1M Rb 0.39580(18) 0.42355(23) 0.8592(6)
Rb1J Rb 0.06246(18) 0.30558(15) 0.6926(6)
N1M N 0.40653(35) 0.31005(36) 0.87085(17)
C9P C 0.3468(4) 0.15535(19) 0.6858(6)
C11H C 0.47627(40) 0.40114(29) 0.3916(10)
C12H C 0.42822(34) 0.39260(18) 0.2868(7)
H5P H 0.3632(5) 0.18805(20) 0.7653(6)
H7H H 0.49323(49) 0.3741(4) 0.3842(13)
H8H H 0.41232(44) 0.35976(18) 0.2077(7)
loop_
_geom_bond_atom_site_label_1
_geom_bond_atom_site_label_2
_geom_bond_site_symmetry_1
_geom_bond_site_symmetry_2
Rb1 N1 1_555 1_555
N1 C1 1_555 1_555
C1 C2 1_555 1_555
C2 C3 1_555 1_555
C3 C4 1_555 1_555
C4 C5 1_555 1_555
C5 C6 1_555 1_555
C6 C1 1_555 1_555
C7 N1 1_555 1_555
C8 C2 1_555 1_555
C9 C8 1_555 1_555
C10 C9 1_555 1_555
C11 C10 1_555 1_555
C12 C7 1_555 1_555
H1 C3 1_555 1_555
H2 C4 1_555 1_555
H3 C5 1_555 1_555
H4 C6 1_555 1_555
H5 C9 1_555 1_555
H6 C10 1_555 1_555
H7 C11 1_555 1_555
H8 C12 1_555 1_555
Rb1H N1 1_555 1_555
Rb1M C11 1_555 1_555
Rb1J C9 1_555 1_555
N1M Rb1 1_555 1_555
C9P Rb1 1_555 1_555
C11H Rb1 1_555 1_555
C12H Rb1 1_555 1_555
H5P C9P 1_555 1_555
H7H C11H 1_555 1_555
H8H C12H 1_555 1_555
C7 C8 1_555 1_555
C11 C12 1_555 1_555
C12 Rb1M 1_555 1_555
Rb1M N1M 1_555 1_555
C11H C12H 1_555 1_555

#END
