
#######################################################################
#
#                 Cambridge Crystallographic Data Centre
#                                CCDC 
#
#######################################################################
#
# If this CIF has been generated from an entry in the Cambridge 
# Structural Database, then it will include bibliographic, chemical, 
# crystal, experimental, refinement or atomic coordinate data resulting 
# from the CCDC's data processing and validation procedures.
#
#######################################################################

data_VIDXAI
_symmetry_cell_setting           monoclinic
_symmetry_space_group_name_H-M   'C 2/m'
_symmetry_Int_Tables_number      12
_space_group_name_Hall           '-C 2y'
loop_
_symmetry_equiv_pos_site_id
_symmetry_equiv_pos_as_xyz
1 x,y,z
2 1/2+x,1/2+y,z
3 -x,y,-z
4 1/2-x,1/2+y,-z
5 -x,-y,-z
6 1/2-x,1/2-y,-z
7 x,-y,z
8 1/2+x,1/2-y,z
_cell_length_a                   13.977(5)
_cell_length_b                   6.816(2)
_cell_length_c                   7.761(3)
_cell_angle_alpha                90
_cell_angle_beta                 123.241(4)
_cell_angle_gamma                90
_cell_volume                     618.388
loop_
_atom_site_label
_atom_site_type_symbol
_atom_site_fract_x
_atom_site_fract_y
_atom_site_fract_z
Re1 Re 0.324085(19) 0.0000 0.40555(4)
O1 O 0.4489(4) 0.0000 0.6478(8)
O2 O 0.3153(4) 0.2056(6) 0.2681(7)
O3 O 0.2102(5) 0.0000 0.4288(10)
Cu1 Cu 0.5000 0.0000 1.0000
N1 N 0.5000 -0.2969(8) 1.0000
C1 C 0.5352(4) -0.3982(7) 0.8971(8)
H1 H 0.5602 -0.3310 0.8244
O4 O 0.3389(4) 0.0000 0.9121(8)
H2 H 0.297(3) 0.096(3) 0.865(8)
Re1D Re 0.675915(19) 0.0000 1.59445(4)
O1D O 0.5511(4) 0.0000 1.3522(8)
O2F O 0.3153(4) -0.2056(6) 0.2681(7)
O2D O 0.6847(4) -0.2056(6) 1.7319(7)
O2B O 0.6847(4) 0.2056(6) 1.7319(7)
O3D O 0.7898(5) 0.0000 1.5712(10)
Cu1_2 Cu 0.5000 -1.0000 1.0000
N1F N 0.5000 -0.7031(8) 1.0000
N1F_2 N 0.5000 0.2969(8) 1.0000
C1F C 0.5352(4) -0.6018(7) 0.8971(8)
C1D C 0.4648(4) -0.6018(7) 1.1029(8)
C1B C 0.4648(4) -0.3982(7) 1.1029(8)
H1B H 0.4398 -0.3310 1.1756
H1D H 0.4398 -0.6690 1.1756
H1F H 0.5602 -0.6690 0.8244
O4D O 0.6611(4) 0.0000 1.0879(8)
H2F H 0.297(3) -0.096(3) 0.865(8)
H2D H 0.703(3) -0.096(3) 1.135(8)
H2B H 0.703(3) 0.096(3) 1.135(8)
loop_
_geom_bond_atom_site_label_1
_geom_bond_atom_site_label_2
_geom_bond_site_symmetry_1
_geom_bond_site_symmetry_2
Re1 O1 1_555 1_555
O1 Cu1 1_555 1_555
O2 Re1 1_555 1_555
O3 Re1 1_555 1_555
Cu1 N1 1_555 1_555
N1 C1 1_555 1_555
C1 H1 1_555 1_555
O4 Cu1 1_555 1_555
H2 O4 1_555 1_555
Re1D O1D 1_555 1_555
O1D Cu1 1_555 1_555
O2F Re1 1_555 1_555
O2D Re1D 1_555 1_555
O2B Re1D 1_555 1_555
O3D Re1D 1_555 1_555
Cu1_2 N1F 1_555 1_555
N1F C1F 1_555 1_555
N1F_2 Cu1 1_555 1_555
C1F C1 1_555 1_555
C1D N1F 1_555 1_555
C1B N1 1_555 1_555
H1B C1B 1_555 1_555
H1D C1D 1_555 1_555
H1F C1F 1_555 1_555
O4D Cu1 1_555 1_555
H2F O4 1_555 1_555
H2D O4D 1_555 1_555
H2B O4D 1_555 1_555
C1D C1B 1_555 1_555

#END
