
#######################################################################
#
#                 Cambridge Crystallographic Data Centre
#                                CCDC 
#
#######################################################################
#
# If this CIF has been generated from an entry in the Cambridge 
# Structural Database, then it will include bibliographic, chemical, 
# crystal, experimental, refinement or atomic coordinate data resulting 
# from the CCDC's data processing and validation procedures.
#
#######################################################################

data_VIDYUE
_symmetry_cell_setting           monoclinic
_symmetry_space_group_name_H-M   'P 21/c'
_symmetry_Int_Tables_number      14
_space_group_name_Hall           '-P 2ybc'
loop_
_symmetry_equiv_pos_site_id
_symmetry_equiv_pos_as_xyz
1 x,y,z
2 -x,1/2+y,1/2-z
3 -x,-y,-z
4 x,1/2-y,1/2+z
_cell_length_a                   16.239(5)
_cell_length_b                   9.884(6)
_cell_length_c                   7.574(4)
_cell_angle_alpha                90
_cell_angle_beta                 100.516(5)
_cell_angle_gamma                90
_cell_volume                     1195.26
loop_
_atom_site_label
_atom_site_type_symbol
_atom_site_fract_x
_atom_site_fract_y
_atom_site_fract_z
O1 O 0.15147(15) -0.1220(2) -0.0375(3)
O2 O 0.33873(16) 0.0888(3) -0.0258(3)
O3 O 0.38859(15) -0.0587(2) 0.1913(3)
N1 N 0.02298(17) 0.2368(3) -0.1772(4)
N2 N 0.03957(17) -0.0024(3) -0.1883(4)
H1 H 0.0179 -0.0769 -0.2338
N3 N 0.13522(17) 0.3457(3) 0.0262(4)
N4 N 0.20811(17) 0.1599(3) 0.1325(4)
C1 C 0.1385(2) 0.1169(3) 0.0096(4)
C2 C 0.2741(2) 0.0765(3) 0.2308(4)
H2 H 0.2490 -0.0027 0.2752
H3 H 0.3024 0.1269 0.3341
C3 C 0.3388(2) 0.0303(3) 0.1210(5)
N5 N -0.07340(17) 0.1062(3) -0.3635(4)
H4 H -0.1018 0.1778 -0.3985
H5 H -0.0906 0.0285 -0.4066
C4 C 0.0952(2) 0.2329(3) -0.0531(4)
C5 C 0.2029(2) 0.2963(3) 0.1372(5)
H6 H 0.2420 0.3506 0.2097
C6 C 0.11437(19) -0.0104(3) -0.0661(4)
C7 C -0.0024(2) 0.1155(3) -0.2420(5)
K1 K 0.38752(5) -0.29145(8) -0.00322(10)
O4 O 0.25492(17) -0.2923(3) 0.2104(4)
O5 O 0.5513(2) -0.3114(4) 0.0030(5)
O6 O 0.43770(18) -0.4771(3) 0.2559(4)
H7 H 0.229(3) -0.323(5) 0.281(6)
H8 H 0.225(3) -0.238(5) 0.150(7)
H9 H 0.580(5) -0.245(5) -0.005(12)
H10 H 0.560(5) -0.364(6) -0.074(7)
H11 H 0.412(3) -0.511(7) 0.327(7)
H12 H 0.4865(13) -0.494(5) 0.292(6)
O3C O 0.38859(15) -0.4413(2) -0.3087(3)
K1C K 0.38752(5) -0.20855(8) 0.49678(10)
O4C O 0.25492(17) -0.2077(3) -0.2896(4)
loop_
_geom_bond_atom_site_label_1
_geom_bond_atom_site_label_2
_geom_bond_site_symmetry_1
_geom_bond_site_symmetry_2
O1 C6 1_555 1_555
O2 C3 1_555 1_555
O3 C3 1_555 1_555
N1 C4 1_555 1_555
N2 H1 1_555 1_555
N3 C4 1_555 1_555
N4 C1 1_555 1_555
C1 C4 1_555 1_555
C2 N4 1_555 1_555
H2 C2 1_555 1_555
H3 C2 1_555 1_555
C3 C2 1_555 1_555
N5 H4 1_555 1_555
H5 N5 1_555 1_555
C5 N3 1_555 1_555
H6 C5 1_555 1_555
C6 N2 1_555 1_555
C7 N1 1_555 1_555
K1 O3 1_555 1_555
O4 K1 1_555 1_555
O5 K1 1_555 1_555
O6 K1 1_555 1_555
H7 O4 1_555 1_555
H8 O4 1_555 1_555
H9 O5 1_555 1_555
H10 O5 1_555 1_555
H11 O6 1_555 1_555
H12 O6 1_555 1_555
O3C K1 1_555 1_555
K1C O3 1_555 1_555
O4C K1 1_555 1_555
N2 C7 1_555 1_555
N4 C5 1_555 1_555
C1 C6 1_555 1_555
N5 C7 1_555 1_555
O4 K1C 1_555 1_555

#END
