
#######################################################################
#
#                 Cambridge Crystallographic Data Centre
#                                CCDC 
#
#######################################################################
#
# If this CIF has been generated from an entry in the Cambridge 
# Structural Database, then it will include bibliographic, chemical, 
# crystal, experimental, refinement or atomic coordinate data resulting 
# from the CCDC's data processing and validation procedures.
#
#######################################################################

data_VIDZEP
_symmetry_cell_setting           monoclinic
_symmetry_space_group_name_H-M   'C c'
_symmetry_Int_Tables_number      9
_space_group_name_Hall           'C -2yc'
loop_
_symmetry_equiv_pos_site_id
_symmetry_equiv_pos_as_xyz
1 x,y,z
2 x,-y,1/2+z
3 1/2+x,1/2+y,z
4 1/2+x,1/2-y,1/2+z
_cell_length_a                   19.001(5)
_cell_length_b                   7.948(2)
_cell_length_c                   13.392(4)
_cell_angle_alpha                90
_cell_angle_beta                 120.803(3)
_cell_angle_gamma                90
_cell_volume                     1737.16
loop_
_atom_site_label
_atom_site_type_symbol
_atom_site_fract_x
_atom_site_fract_y
_atom_site_fract_z
Cd1 Cd 0.55152(2) 0.06771(3) 0.29585(2)
C1 C 0.3943(4) 0.0005(9) 0.0345(6)
H1 H 0.4212 0.0572 0.0029
C2 C 0.3671(3) -0.1131(7) 0.1551(5)
H2 H 0.3719 -0.1508 0.2241
C3 C 0.3018(3) -0.1368(7) 0.0479(5)
H3 H 0.2535 -0.1921 0.0297
C4 C 0.2666(4) -0.0610(7) -0.1546(5)
H4 H 0.2891 0.0176 -0.1863
H5 H 0.2129 -0.0202 -0.1742
C5 C 0.2573(4) -0.2321(9) -0.2107(5)
H6 H 0.2284 -0.3061 -0.1861
H7 H 0.2234 -0.2192 -0.2944
C6 C 0.3340(3) -0.3131(8) -0.1842(5)
H8 H 0.3646 -0.3397 -0.1019
H9 H 0.3662 -0.2329 -0.1988
C7 C 0.3256(4) -0.4713(7) -0.2511(5)
H10 H 0.3796 -0.5178 -0.2241
H11 H 0.2946 -0.5535 -0.2358
C8 C 0.2057(4) -0.4682(9) -0.4542(6)
H12 H 0.1690 -0.5172 -0.4364
C9 C 0.2561(3) -0.3533(6) -0.5469(5)
H13 H 0.2604 -0.3066 -0.6071
C10 C 0.3183(3) -0.3676(7) -0.4355(5)
H14 H 0.3724 -0.3342 -0.4051
C11 C 0.5429(3) 0.4500(5) 0.3731(4)
H15 H 0.5388 0.4672 0.3016
C12 C 0.5540(3) 0.5904(5) 0.4420(4)
C13 C 0.5545(3) 0.7599(5) 0.3914(4)
C14 C 0.5616(4) 0.5668(6) 0.5498(6)
C15 C 0.5816(4) 0.7087(6) 0.6357(5)
C16 C 0.5548(4) 0.4041(7) 0.5811(5)
H16 H 0.5578 0.3832 0.6515
C17 C 0.5433(3) 0.2730(7) 0.5062(5)
H17 H 0.5393 0.1647 0.5291
N1 N 0.4255(2) -0.0243(5) 0.1460(3)
N2 N 0.3193(3) -0.0653(6) -0.0287(4)
N3 N 0.2847(2) -0.4419(5) -0.3765(4)
N4 N 0.1859(2) -0.4176(5) -0.5576(4)
N5 N 0.5376(3) 0.2917(5) 0.4032(4)
O1 O 0.58191(18) 0.7700(4) 0.3254(3)
O2 O 0.5240(2) 0.8817(4) 0.4174(3)
O3 O 0.6472(2) 0.7814(4) 0.6735(3)
O4 O 0.5281(2) 0.7335(5) 0.6625(3)
Cd1_2 Cd 0.55152(2) 1.06771(3) 0.29585(2)
Cd1A Cd 0.55152(2) 0.93229(3) 0.79585(2)
Cd1B Cd 0.05152(2) -0.43229(3) -0.70415(2)
N4B N 0.6859(2) 0.0824(5) 0.4424(4)
O1_2 O 0.58191(18) -0.2300(4) 0.3254(3)
O2_2 O 0.5240(2) -0.1183(4) 0.4174(3)
O4A O 0.5281(2) 0.2665(5) 0.1625(3)
loop_
_geom_bond_atom_site_label_1
_geom_bond_atom_site_label_2
_geom_bond_site_symmetry_1
_geom_bond_site_symmetry_2
Cd1 N1 1_555 1_555
C1 H1 1_555 1_555
C2 H2 1_555 1_555
C3 C2 1_555 1_555
H3 C3 1_555 1_555
C4 H4 1_555 1_555
H5 C4 1_555 1_555
C5 C4 1_555 1_555
H6 C5 1_555 1_555
H7 C5 1_555 1_555
C6 C5 1_555 1_555
H8 C6 1_555 1_555
H9 C6 1_555 1_555
C7 C6 1_555 1_555
H10 C7 1_555 1_555
H11 C7 1_555 1_555
C8 H12 1_555 1_555
C9 H13 1_555 1_555
C10 C9 1_555 1_555
H14 C10 1_555 1_555
C11 H15 1_555 1_555
C12 C11 1_555 1_555
C13 C12 1_555 1_555
C14 C12 1_555 1_555
C15 C14 1_555 1_555
C16 C14 1_555 1_555
H16 C16 1_555 1_555
C17 C16 1_555 1_555
H17 C17 1_555 1_555
N1 C1 1_555 1_555
N2 C1 1_555 1_555
N3 C7 1_555 1_555
N4 C8 1_555 1_555
N5 Cd1 1_555 1_555
O1 C13 1_555 1_555
O2 C13 1_555 1_555
O3 C15 1_555 1_555
O4 C15 1_555 1_555
Cd1_2 O1 1_555 1_555
Cd1A O4 1_555 1_555
Cd1B N4 1_555 1_555
N4B Cd1 1_555 1_555
O1_2 Cd1 1_555 1_555
O2_2 Cd1 1_555 1_555
O4A Cd1 1_555 1_555
C2 N1 1_555 1_555
C3 N2 1_555 1_555
C4 N2 1_555 1_555
C8 N3 1_555 1_555
C9 N4 1_555 1_555
C10 N3 1_555 1_555
C11 N5 1_555 1_555
C17 N5 1_555 1_555
O2 Cd1_2 1_555 1_555

#END
