
#######################################################################
#
#                 Cambridge Crystallographic Data Centre
#                                CCDC 
#
#######################################################################
#
# If this CIF has been generated from an entry in the Cambridge 
# Structural Database, then it will include bibliographic, chemical, 
# crystal, experimental, refinement or atomic coordinate data resulting 
# from the CCDC's data processing and validation procedures.
#
#######################################################################

data_VIFBUJ
_symmetry_cell_setting           monoclinic
_symmetry_space_group_name_H-M   'P 21/m'
_symmetry_Int_Tables_number      11
_space_group_name_Hall           '-P 2yb'
loop_
_symmetry_equiv_pos_site_id
_symmetry_equiv_pos_as_xyz
1 x,y,z
2 -x,1/2+y,-z
3 -x,-y,-z
4 x,1/2-y,z
_cell_length_a                   11.2874(4)
_cell_length_b                   17.5352(3)
_cell_length_c                   11.8917(4)
_cell_angle_alpha                90
_cell_angle_beta                 106.7230(10)
_cell_angle_gamma                90
_cell_volume                     2254.14
loop_
_atom_site_label
_atom_site_type_symbol
_atom_site_fract_x
_atom_site_fract_y
_atom_site_fract_z
Tm1 Tm 0.23855(2) 0.998254(12) 0.35657(2)
Tm2 Tm -0.20569(2) 1.012803(13) 0.16784(2)
O1 O 0.6202(4) 1.1054(2) 0.6089(3)
O2 O -0.3541(4) 0.9733(2) 0.2554(4)
O3 O -0.3176(4) 1.1280(2) 0.1631(4)
O4 O 0.1105(4) 1.0500(2) -0.0359(4)
O5 O 0.2801(4) 1.1101(2) 0.4754(4)
O6 O 0.1070(4) 1.0519(2) 0.4684(3)
O7 O 0.6539(4) 1.0574(2) 0.4521(3)
O8 O 0.2523(4) 1.1122(2) -0.0931(3)
O9 O -0.1359(4) 1.0793(2) 0.3511(4)
O10 O 0.1877(5) 0.9330(3) 0.1731(4)
O11 O -0.3534(5) 1.0233(3) -0.0159(4)
O12 O 0.4305(5) 1.1036(2) 0.1489(4)
C1 C 0.0455(5) 1.1809(3) 0.6054(5)
O13 O 0.1104(5) 1.0735(2) 0.2252(4)
O14 O -0.0814(4) 1.1000(2) 0.1219(4)
O15 O -0.1213(4) 1.1030(2) 0.6142(4)
C2 C 0.1330(5) 1.1804(3) 0.5419(5)
C3 C -0.0069(6) 1.1088(3) 0.6437(5)
O16 O 0.3925(4) 1.0542(2) 0.3066(4)
C4 C 0.0751(5) 1.1813(3) 0.0994(4)
O17 O 0.0669(4) 1.0618(2) 0.7068(4)
C5 C 0.1416(5) 1.1810(3) 0.0167(5)
C6 C 0.0035(7) 1.25000 0.6359(7)
H1 H -0.0543 1.25000 0.678
C7 C 0.1754(5) 1.1100(3) 0.4948(5)
C8 C 0.5538(5) 1.1802(3) 0.4352(4)
C9 C 0.4374(8) 1.25000 0.2630(7)
H2 H 0.3857 1.25000 0.1864
C10 C 0.4290(5) 1.1075(3) 0.2525(5)
C11 C 0.0446(8) 1.25000 0.1407(7)
H3 H 0.0026 1.25000 0.1975
C12 C 0.0332(6) 1.1114(3) 0.1506(5)
C13 C 0.4758(5) 1.1805(3) 0.3198(4)
C14 C 0.1696(6) 1.1102(3) -0.0390(5)
C15 C 0.1758(8) 1.25000 0.5112(7)
H4 H 0.2339 1.25000 0.4694
C16 C 0.6093(5) 1.1104(3) 0.5011(5)
C17 C 0.1750(8) 1.25000 -0.0229(7)
C18 C 0.5913(8) 1.25000 0.4921(7)
H5 H 0.642 1.25000 0.5692
O5C O 0.2801(4) 1.3899(2) 0.4754(4)
O6C O 0.1070(4) 1.4481(2) 0.4684(3)
C2C C 0.1330(5) 1.3196(3) 0.5419(5)
C7C C 0.1754(5) 1.3900(3) 0.4948(5)
C1C C 0.0455(5) 1.3191(3) 0.6054(5)
O15C O -0.1213(4) 1.3970(2) 0.6142(4)
C3C C -0.0069(6) 1.3912(3) 0.6437(5)
O17C O 0.0669(4) 1.4382(2) 0.7068(4)
O12C O 0.4305(5) 1.3964(2) 0.1489(4)
O16C O 0.3925(4) 1.4458(2) 0.3066(4)
C8C C 0.5538(5) 1.3198(3) 0.4352(4)
C10C C 0.4290(5) 1.3925(3) 0.2525(5)
C13C C 0.4758(5) 1.3195(3) 0.3198(4)
O1C O 0.6202(4) 1.3946(2) 0.6089(3)
O7C O 0.6539(4) 1.4426(2) 0.4521(3)
C16C C 0.6093(5) 1.3896(3) 0.5011(5)
O13C O 0.1104(5) 1.4265(2) 0.2252(4)
O14C O -0.0814(4) 1.4000(2) 0.1219(4)
C4C C 0.0751(5) 1.3187(3) 0.0994(4)
C5C C 0.1416(5) 1.3190(3) 0.0167(5)
C12C C 0.0332(6) 1.3886(3) 0.1506(5)
O4C O 0.1105(4) 1.4500(2) -0.0359(4)
O8C O 0.2523(4) 1.3878(2) -0.0931(3)
C14C C 0.1696(6) 1.3898(3) -0.0390(5)
Tm2B Tm 0.20569(2) 0.987197(13) -0.16784(2)
O2B O 0.3541(4) 1.0267(2) -0.2554(4)
O3B O 0.3176(4) 0.8720(2) -0.1631(4)
O9B O 0.1359(4) 0.9207(2) -0.3511(4)
O11B O 0.3534(5) 0.9767(3) 0.0159(4)
Tm1B Tm 0.76145(2) 1.001746(12) 0.64343(2)
O10B O 0.8123(5) 1.0670(3) 0.8269(4)
Tm1A Tm -0.23855(2) 1.498254(12) 0.64343(2)
Tm1A_2 Tm 0.76145(2) 1.498254(12) 0.64343(2)
Tm1B_2 Tm -0.23855(2) 1.001746(12) 0.64343(2)
Tm1C Tm 0.23855(2) 1.501746(12) 0.35657(2)
Tm2A Tm 0.20569(2) 1.512803(13) -0.16784(2)
Tm2A_2 Tm 0.20569(2) 1.512803(13) 0.83216(2)
Tm2B_2 Tm 0.20569(2) 0.987197(13) 0.83216(2)
Tm2C Tm -0.20569(2) 1.487197(13) 0.16784(2)
O1B O 0.3798(4) 0.8946(2) 0.3911(3)
O4B O -0.1105(4) 0.9500(2) 0.0359(4)
O5B O 0.7199(4) 0.8899(2) 0.5246(4)
O6B O 0.8930(4) 0.9481(2) 0.5316(3)
O7B O 0.3461(4) 0.9426(2) 0.5479(3)
O8B O -0.2523(4) 0.8878(2) 0.0931(3)
O13B O 0.8896(5) 0.9265(2) 0.7748(4)
O14B O 0.0814(4) 0.9000(2) -0.1219(4)
O15_2 O 0.8787(4) 1.1030(2) 0.6142(4)
O15B O 0.1213(4) 0.8970(2) 0.3858(4)
O16B O 0.6075(4) 0.9458(2) 0.6934(4)
O17_2 O 0.0669(4) 1.0618(2) -0.2932(4)
O17B O -0.0669(4) 0.9382(2) 0.2932(4)
O18 O 0.2746(12) 0.75000 0.9815(10)
O19 O 0.1828(11) 0.75000 0.6851(8)
O20 O 0.4483(7) 0.1706(3) 0.7003(7)
O21 O 0.5019(6) 0.8456(4) 0.0611(7)
O22 O 0.204(2) 0.75000 1.1783(16)
loop_
_geom_bond_atom_site_label_1
_geom_bond_atom_site_label_2
_geom_bond_site_symmetry_1
_geom_bond_site_symmetry_2
Tm1 O5 1_555 1_555
Tm2 O2 1_555 1_555
O1 C16 1_555 1_555
O3 Tm2 1_555 1_555
O4 C14 1_555 1_555
O5 C7 1_555 1_555
O6 Tm1 1_555 1_555
O7 C16 1_555 1_555
O8 C14 1_555 1_555
O9 Tm2 1_555 1_555
O10 Tm1 1_555 1_555
O11 Tm2 1_555 1_555
O12 C10 1_555 1_555
C1 C2 1_555 1_555
O13 Tm1 1_555 1_555
O14 Tm2 1_555 1_555
O15 C3 1_555 1_555
C2 C7 1_555 1_555
C3 C1 1_555 1_555
O16 Tm1 1_555 1_555
C4 C5 1_555 1_555
O17 C3 1_555 1_555
C5 C14 1_555 1_555
C6 C1 1_555 1_555
H1 C6 1_555 1_555
C7 O6 1_555 1_555
C8 C13 1_555 1_555
C9 H2 1_555 1_555
C10 O16 1_555 1_555
C11 C4 1_555 1_555
H3 C11 1_555 1_555
C12 O13 1_555 1_555
C13 C9 1_555 1_555
C15 C2 1_555 1_555
H4 C15 1_555 1_555
C16 C8 1_555 1_555
C17 C5 1_555 1_555
C18 C8 1_555 1_555
H5 C18 1_555 1_555
O5C C7C 1_555 1_555
O6C C7C 1_555 1_555
C2C C15 1_555 1_555
C7C C2C 1_555 1_555
C1C C6 1_555 1_555
O15C C3C 1_555 1_555
C3C C1C 1_555 1_555
O17C C3C 1_555 1_555
O12C C10C 1_555 1_555
O16C C10C 1_555 1_555
C8C C18 1_555 1_555
C10C C13C 1_555 1_555
C13C C9 1_555 1_555
O1C C16C 1_555 1_555
O7C C16C 1_555 1_555
C16C C8C 1_555 1_555
O13C C12C 1_555 1_555
O14C C12C 1_555 1_555
C4C C11 1_555 1_555
C5C C17 1_555 1_555
C12C C4C 1_555 1_555
O4C C14C 1_555 1_555
O8C C14C 1_555 1_555
C14C C5C 1_555 1_555
Tm2B O4 1_555 1_555
O2B Tm2B 1_555 1_555
O3B Tm2B 1_555 1_555
O9B Tm2B 1_555 1_555
O11B Tm2B 1_555 1_555
Tm1B O1 1_555 1_555
O10B Tm1B 1_555 1_555
Tm1A O15C 1_555 1_555
Tm1A_2 O1C 1_555 1_555
Tm1B_2 O15 1_555 1_555
Tm1C O5C 1_555 1_555
Tm2A O4C 1_555 1_555
Tm2A_2 O17C 1_555 1_555
Tm2B_2 O17 1_555 1_555
Tm2C O14C 1_555 1_555
O1B Tm1 1_555 1_555
O4B Tm2 1_555 1_555
O5B Tm1B 1_555 1_555
O6B Tm1B 1_555 1_555
O7B Tm1 1_555 1_555
O8B Tm2 1_555 1_555
O13B Tm1B 1_555 1_555
O14B Tm2B 1_555 1_555
O15_2 Tm1B 1_555 1_555
O15B Tm1 1_555 1_555
O16B Tm1B 1_555 1_555
O17_2 Tm2B 1_555 1_555
O17B Tm2 1_555 1_555
O7 Tm1B 1_555 1_555
O8 Tm2B 1_555 1_555
O14 C12 1_555 1_555
C4 C12 1_555 1_555
C10 C13 1_555 1_555
O6C Tm1C 1_555 1_555
C2C C1C 1_555 1_555
O16C Tm1C 1_555 1_555
C8C C13C 1_555 1_555
O7C Tm1A_2 1_555 1_555
O13C Tm1C 1_555 1_555
C4C C5C 1_555 1_555
O8C Tm2A 1_555 1_555

#END
