
#######################################################################
#
#                 Cambridge Crystallographic Data Centre
#                                CCDC 
#
#######################################################################
#
# If this CIF has been generated from an entry in the Cambridge 
# Structural Database, then it will include bibliographic, chemical, 
# crystal, experimental, refinement or atomic coordinate data resulting 
# from the CCDC's data processing and validation procedures.
#
#######################################################################

data_VIFCIY
_symmetry_cell_setting           triclinic
_symmetry_space_group_name_H-M   'P -1'
_symmetry_Int_Tables_number      2
_space_group_name_Hall           '-P 1'
loop_
_symmetry_equiv_pos_site_id
_symmetry_equiv_pos_as_xyz
1 x,y,z
2 -x,-y,-z
_cell_length_a                   8.3540(8)
_cell_length_b                   9.9055(9)
_cell_length_c                   11.9259(12)
_cell_angle_alpha                91.3920(10)
_cell_angle_beta                 104.4280(10)
_cell_angle_gamma                114.077(2)
_cell_volume                     863.701
loop_
_atom_site_label
_atom_site_type_symbol
_atom_site_fract_x
_atom_site_fract_y
_atom_site_fract_z
Co1 Co 0.5000 0.0000 0.0000
Co2 Co 1.0000 0.5000 0.0000
N1 N 0.5630(3) 0.1974(3) 0.3382(2)
N2 N 0.5919(4) 0.0773(3) 0.3727(2)
N3 N 0.5187(3) 0.0620(2) 0.17718(19)
O1 O 1.0436(2) 0.34288(18) 0.10256(17)
O2 O 0.7795(2) 0.14459(18) 0.02537(16)
O3 O 0.5374(2) -0.18891(19) 0.04957(17)
O4 O 0.6479(3) -0.3476(2) 0.1178(2)
O5 O 1.1614(3) 0.6734(2) 0.14587(18)
O6 O 0.7705(3) 0.4583(2) 0.05399(19)
C1 C 0.9837(3) 0.1371(3) 0.2053(2)
C2 C 0.9585(3) -0.0121(3) 0.1914(2)
C3 C 1.0315(4) -0.0663(3) 0.2884(3)
H1 H 1.0200 -0.1637 0.2798
C4 C 1.1199(4) 0.0196(4) 0.3962(3)
H2 H 1.1674 -0.0193 0.4594
C5 C 1.1379(4) 0.1654(4) 0.4101(3)
H3 H 1.1933 0.2234 0.4834
C6 C 1.0733(4) 0.2234(3) 0.3149(2)
H4 H 1.0897 0.3222 0.3240
C7 C 0.9283(3) 0.2120(3) 0.1042(2)
C8 C 0.8584(3) -0.1179(3) 0.0776(2)
H5 H 0.9269 -0.1730 0.0652
H6 H 0.8478 -0.0614 0.0131
C9 C 0.6687(3) -0.2263(3) 0.0818(2)
C10 C 0.8099(4) 0.4184(3) 0.4647(3)
C11 C 0.8967(5) 0.5198(4) 0.3972(3)
H7 H 0.8280 0.5338 0.3279
C12 C 0.9150(5) 0.3995(4) 0.5681(3)
H8 H 0.8584 0.3320 0.6144
C13 C 0.6065(4) 0.3249(4) 0.4242(3)
H9 H 0.5624 0.2891 0.4906
H10 H 0.5460 0.3853 0.3891
C14 C 0.5625(4) -0.0001(3) 0.2731(3)
H11 H 0.5711 -0.0907 0.2686
C15 C 0.5211(4) 0.1862(3) 0.2225(2)
H12 H 0.4968 0.2559 0.1793
H13 H 1.211(5) 0.750(3) 0.115(4)
H14 H 0.736(5) 0.525(3) 0.066(3)
H15 H 1.246(3) 0.653(4) 0.187(3)
H16 H 0.678(3) 0.380(2) 0.017(3)
N1A N 1.4370(3) 0.8026(3) 0.6618(2)
N2A N 1.4081(4) 0.9227(3) 0.6273(2)
N3A N 1.4813(3) 0.9380(2) 0.82282(19)
C10A C 1.1901(4) 0.5816(3) 0.5353(3)
C11A C 1.1033(5) 0.4802(4) 0.6028(3)
H7A H 1.1720 0.4662 0.6721
C12A C 1.0850(5) 0.6005(4) 0.4319(3)
H8A H 1.1416 0.6680 0.3856
C13A C 1.3935(4) 0.6751(4) 0.5758(3)
H9A H 1.4376 0.7109 0.5094
H10A H 1.4540 0.6147 0.6109
C14A C 1.4375(4) 1.0001(3) 0.7269(3)
H11A H 1.4289 1.0907 0.7314
C15A C 1.4789(4) 0.8138(3) 0.7775(2)
H12A H 1.5032 0.7441 0.8207
O1A O -0.0436(2) -0.34288(18) -0.10256(17)
O2A O 0.2205(2) -0.14459(18) -0.02537(16)
O3A O 0.4626(2) 0.18891(19) -0.04957(17)
O4A O 0.3521(3) 0.3476(2) -0.1178(2)
C1A C 0.0163(3) -0.1371(3) -0.2053(2)
C2A C 0.0415(3) 0.0121(3) -0.1914(2)
C3A C -0.0315(4) 0.0663(3) -0.2884(3)
H1A H -0.0200 0.1637 -0.2798
C4A C -0.1199(4) -0.0196(4) -0.3962(3)
H2A H -0.1674 0.0193 -0.4594
C5A C -0.1379(4) -0.1654(4) -0.4101(3)
H3A H -0.1933 -0.2234 -0.4834
C6A C -0.0733(4) -0.2234(3) -0.3149(2)
H4A H -0.0897 -0.3222 -0.3240
C7A C 0.0717(3) -0.2120(3) -0.1042(2)
C8A C 0.1416(3) 0.1179(3) -0.0776(2)
H5A H 0.0731 0.1730 -0.0652
H6A H 0.1522 0.0614 -0.0131
C9A C 0.3313(3) 0.2263(3) -0.0818(2)
O5A O 0.8386(3) 0.3266(2) -0.14587(18)
H13A H 0.789(5) 0.250(3) -0.115(4)
H15A H 0.754(3) 0.347(4) -0.187(3)
O6A O 1.2295(3) 0.5417(2) -0.05399(19)
H14A H 1.264(5) 0.475(3) -0.066(3)
H16A H 1.322(3) 0.620(2) -0.017(3)
Co1_2 Co 1.5000 1.0000 1.0000
Co2_2 Co 0.0000 -0.5000 0.0000
N3A_2 N 0.4813(3) -0.0620(2) -0.17718(19)
O1A_2 O 0.9564(2) 0.65712(18) -0.10256(17)
O7 O 0.4009(3) 0.5440(3) 0.2506(2)
H17 H 0.2795 0.4679 0.2004
H18 H 0.4693 0.5722 0.2078
loop_
_geom_bond_atom_site_label_1
_geom_bond_atom_site_label_2
_geom_bond_site_symmetry_1
_geom_bond_site_symmetry_2
Co1 N3 1_555 1_555
Co2 O1 1_555 1_555
N1 N2 1_555 1_555
N2 C14 1_555 1_555
N3 C14 1_555 1_555
O1 C7 1_555 1_555
O2 Co1 1_555 1_555
O3 Co1 1_555 1_555
O4 C9 1_555 1_555
O5 Co2 1_555 1_555
O6 Co2 1_555 1_555
C1 C2 1_555 1_555
C2 C3 1_555 1_555
C3 H1 1_555 1_555
C4 C3 1_555 1_555
H2 C4 1_555 1_555
C5 C4 1_555 1_555
H3 C5 1_555 1_555
C6 C1 1_555 1_555
H4 C6 1_555 1_555
C7 O2 1_555 1_555
C8 C2 1_555 1_555
H5 C8 1_555 1_555
H6 C8 1_555 1_555
C9 O3 1_555 1_555
C10 C11 1_555 1_555
C11 H7 1_555 1_555
C12 C10 1_555 1_555
H8 C12 1_555 1_555
C13 N1 1_555 1_555
H9 C13 1_555 1_555
H10 C13 1_555 1_555
C14 H11 1_555 1_555
C15 N1 1_555 1_555
H12 C15 1_555 1_555
H13 O5 1_555 1_555
H14 O6 1_555 1_555
H15 O5 1_555 1_555
H16 O6 1_555 1_555
O7 H17 1_555 1_555
H18 O7 1_555 1_555
N1A N2A 1_555 1_555
N2A C14A 1_555 1_555
N3A C14A 1_555 1_555
C10A C11A 1_555 1_555
C11A C12 1_555 1_555
H7A C11A 1_555 1_555
C12A C11 1_555 1_555
H8A C12A 1_555 1_555
C13A N1A 1_555 1_555
H9A C13A 1_555 1_555
H10A C13A 1_555 1_555
C14A H11A 1_555 1_555
C15A N1A 1_555 1_555
H12A C15A 1_555 1_555
O1A C7A 1_555 1_555
O2A Co1 1_555 1_555
O3A Co1 1_555 1_555
O4A C9A 1_555 1_555
C1A C2A 1_555 1_555
C2A C3A 1_555 1_555
C3A H1A 1_555 1_555
C4A C3A 1_555 1_555
H2A C4A 1_555 1_555
C5A C4A 1_555 1_555
H3A C5A 1_555 1_555
C6A C1A 1_555 1_555
H4A C6A 1_555 1_555
C7A O2A 1_555 1_555
C8A C2A 1_555 1_555
H5A C8A 1_555 1_555
H6A C8A 1_555 1_555
C9A O3A 1_555 1_555
O5A Co2 1_555 1_555
H13A O5A 1_555 1_555
H15A O5A 1_555 1_555
O6A Co2 1_555 1_555
H14A O6A 1_555 1_555
H16A O6A 1_555 1_555
Co1_2 N3A 1_555 1_555
Co2_2 O1A 1_555 1_555
N3A_2 Co1 1_555 1_555
O1A_2 Co2 1_555 1_555
N3 C15 1_555 1_555
C1 C7 1_555 1_555
C5 C6 1_555 1_555
C8 C9 1_555 1_555
C10 C13 1_555 1_555
N3A C15A 1_555 1_555
C10A C12A 1_555 1_555
C10A C13A 1_555 1_555
C1A C7A 1_555 1_555
C5A C6A 1_555 1_555
C8A C9A 1_555 1_555

#END
