
#######################################################################
#
#                 Cambridge Crystallographic Data Centre
#                                CCDC 
#
#######################################################################
#
# If this CIF has been generated from an entry in the Cambridge 
# Structural Database, then it will include bibliographic, chemical, 
# crystal, experimental, refinement or atomic coordinate data resulting 
# from the CCDC's data processing and validation procedures.
#
#######################################################################

data_VIFCAQ
_symmetry_cell_setting           monoclinic
_symmetry_space_group_name_H-M   'P 21/c'
_symmetry_Int_Tables_number      14
_space_group_name_Hall           '-P 2ybc'
loop_
_symmetry_equiv_pos_site_id
_symmetry_equiv_pos_as_xyz
1 x,y,z
2 -x,1/2+y,1/2-z
3 -x,-y,-z
4 x,1/2-y,1/2+z
_cell_length_a                   11.47(4)
_cell_length_b                   13.33(4)
_cell_length_c                   19.23(5)
_cell_angle_alpha                90
_cell_angle_beta                 122.30(14)
_cell_angle_gamma                90
_cell_volume                     2485.22
loop_
_atom_site_label
_atom_site_type_symbol
_atom_site_fract_x
_atom_site_fract_y
_atom_site_fract_z
Ni1 Ni 1.0000 1.0000 1.0000
Ni2 Ni 0.0000 1.0000 0.5000
N1 N 0.9699(13) 0.8025(12) 0.8151(9)
N2 N 1.034(3) 0.8829(18) 0.7996(17)
N3 N 0.9953(14) 0.9238(9) 0.9016(9)
N4 N 0.2607(13) 0.7908(11) 0.4798(9)
N5 N 0.2629(19) 0.8694(16) 0.4296(12)
N6 N 0.1410(11) 0.9222(10) 0.4824(8)
O1 O 0.8492(10) 0.6124(7) 0.9342(8)
O2 O 0.6802(10) 0.5188(7) 0.8346(7)
O3 O 1.0025(13) 0.7836(8) 1.0939(8)
O4 O 0.8646(11) 0.8928(9) 0.9933(8)
O5 O -0.0705(11) 1.0775(7) 0.3845(6)
H1 H -0.1524 1.0595 0.3680
H2 H -0.0662 1.1412 0.3874
O6 O 1.1771(10) 0.9147(7) 1.0891(6)
H3 H 1.2338 0.9460 1.1330
H4 H 1.1294 0.8754 1.0990
C1 C 0.6293(17) 0.6824(12) 0.8642(12)
C2 C 0.5118(18) 0.6919(13) 0.7820(12)
H5 H 0.5020 0.6497 0.7407
C3 C 0.4108(16) 0.7657(13) 0.7641(12)
H6 H 0.3345 0.7702 0.7107
C4 C 0.421(2) 0.8354(13) 0.8264(14)
H7 H 0.3553 0.8843 0.8143
C5 C 0.5351(17) 0.8231(12) 0.9033(11)
H8 H 0.5441 0.8646 0.9447
C6 C 0.6482(15) 0.7467(12) 0.9265(10)
C7 C 0.7319(17) 0.5969(9) 0.8806(10)
C8 C 0.7683(15) 0.7456(12) 1.0149(9)
H9 H 0.7355 0.7637 1.0505
H10 H 0.8056 0.6782 1.0293
C9 C 0.8732(15) 0.8119(17) 1.0287(12)
C10 C 0.7717(16) 0.7079(14) 0.7060(10)
C11 C 0.7021(18) 0.6160(12) 0.6705(10)
H11 H 0.7503 0.5560 0.6899
C12 C 0.5649(15) 0.6139(12) 0.6080(10)
H12 H 0.5216 0.5528 0.5860
C13 C 0.4904(14) 0.7036(13) 0.5775(10)
C14 C 0.5520(18) 0.7913(13) 0.6131(11)
H13 H 0.5005 0.8501 0.5961
C15 C 0.7007(15) 0.7957(14) 0.6789(12)
H14 H 0.7441 0.8568 0.7009
C16 C 0.909(2) 0.7071(13) 0.7654(13)
H15 H 0.9591 0.6908 0.7394
H16 H 0.9247 0.6531 0.8034
C17 C 1.062(3) 0.9578(16) 0.8588(18)
H17 H 1.1118 1.0166 0.8684
C18 C 0.9529(14) 0.8297(12) 0.8802(10)
H18 H 0.9180 0.7887 0.9040
C19 C 0.3312(14) 0.6944(13) 0.5004(10)
H19 H 0.3299 0.6686 0.4528
H20 H 0.2824 0.6471 0.5142
C20 C 0.1845(17) 0.8254(14) 0.5069(11)
H21 H 0.1625 0.7882 0.5392
C21 C 0.1947(18) 0.9473(14) 0.4349(11)
H22 H 0.1847 1.0094 0.4103
N1B N -0.9699(13) 1.1975(12) 0.1849(9)
N2B N -1.034(3) 1.1171(18) 0.2004(17)
N3B N -0.9953(14) 1.0762(9) 0.0984(9)
N4B N -0.2607(13) 1.2092(11) 0.5202(9)
N5B N -0.2629(19) 1.1306(16) 0.5704(12)
N6B N -0.1410(11) 1.0778(10) 0.5176(8)
O5B O 0.0705(11) 0.9225(7) 0.6155(6)
H1B H 0.1524 0.9405 0.6320
H2B H 0.0662 0.8588 0.6126
C10B C -0.7717(16) 1.2921(14) 0.2940(10)
C11B C -0.7021(18) 1.3840(12) 0.3295(10)
H11B H -0.7503 1.4440 0.3101
C12B C -0.5649(15) 1.3861(12) 0.3920(10)
H12B H -0.5216 1.4472 0.4140
C13B C -0.4904(14) 1.2964(13) 0.4225(10)
C14B C -0.5520(18) 1.2087(13) 0.3869(11)
H13B H -0.5005 1.1499 0.4039
C15B C -0.7007(15) 1.2043(14) 0.3211(12)
H14B H -0.7441 1.1432 0.2991
C16B C -0.909(2) 1.2929(13) 0.2346(13)
H15B H -0.9591 1.3092 0.2606
H16B H -0.9247 1.3469 0.1966
C17B C -1.062(3) 1.0422(16) 0.1412(18)
H17B H -1.1118 0.9834 0.1316
C18B C -0.9529(14) 1.1703(12) 0.1198(10)
H18B H -0.9180 1.2113 0.0960
C19B C -0.3312(14) 1.3056(13) 0.4996(10)
H19B H -0.3299 1.3314 0.5472
H20B H -0.2824 1.3529 0.4858
C20B C -0.1845(17) 1.1746(14) 0.4931(11)
H21B H -0.1625 1.2118 0.4608
C21B C -0.1947(18) 1.0527(14) 0.5651(11)
H22B H -0.1847 0.9906 0.5897
O1B O 1.1508(10) 1.3876(7) 1.0658(8)
O2B O 1.3198(10) 1.4812(7) 1.1654(7)
O3B O 0.9975(13) 1.2164(8) 0.9061(8)
O4B O 1.1354(11) 1.1072(9) 1.0067(8)
C1B C 1.3707(17) 1.3176(12) 1.1358(12)
C2B C 1.4882(18) 1.3081(13) 1.2180(12)
H5B H 1.4980 1.3503 1.2593
C3B C 1.5892(16) 1.2343(13) 1.2359(12)
H6B H 1.6655 1.2298 1.2893
C4B C 1.579(2) 1.1646(13) 1.1736(14)
H7B H 1.6447 1.1157 1.1857
C5B C 1.4649(17) 1.1769(12) 1.0967(11)
H8B H 1.4559 1.1354 1.0553
C6B C 1.3518(15) 1.2533(12) 1.0735(10)
C7B C 1.2681(17) 1.4031(9) 1.1194(10)
C8B C 1.2317(15) 1.2544(12) 0.9851(9)
H9B H 1.2645 1.2363 0.9495
H10B H 1.1944 1.3218 0.9707
C9B C 1.1268(15) 1.1881(17) 0.9713(12)
O6B O 0.8229(10) 1.0853(7) 0.9109(6)
H3B H 0.7662 1.0540 0.8670
H4B H 0.8706 1.1246 0.9010
Ni1_2 Ni -1.0000 1.0000 0.0000
Ni2A Ni 1.0000 0.5000 1.0000
Ni2A_2 Ni 1.0000 1.5000 1.0000
N3B_2 N 1.0047(14) 1.0762(9) 1.0984(9)
O1A O 0.1508(10) 1.1124(7) 0.5658(8)
O1C O -0.1508(10) 0.8876(7) 0.4342(8)
O7 O 0.6162(13) 0.9662(8) 0.7803(9)
H23 H 0.5319 0.9821 0.7486
H24 H 0.6369 0.9240 0.7554
loop_
_geom_bond_atom_site_label_1
_geom_bond_atom_site_label_2
_geom_bond_site_symmetry_1
_geom_bond_site_symmetry_2
Ni1 N3 1_555 1_555
Ni2 N6 1_555 1_555
N1 N2 1_555 1_555
N2 C17 1_555 1_555
N3 C17 1_555 1_555
N4 N5 1_555 1_555
N5 C21 1_555 1_555
N6 C20 1_555 1_555
O1 C7 1_555 1_555
O2 C7 1_555 1_555
O3 C9 1_555 1_555
O4 Ni1 1_555 1_555
O5 Ni2 1_555 1_555
H1 O5 1_555 1_555
H2 O5 1_555 1_555
O6 Ni1 1_555 1_555
H3 O6 1_555 1_555
H4 O6 1_555 1_555
C1 C2 1_555 1_555
C2 H5 1_555 1_555
C3 C2 1_555 1_555
H6 C3 1_555 1_555
C4 C3 1_555 1_555
H7 C4 1_555 1_555
C5 C4 1_555 1_555
H8 C5 1_555 1_555
C6 C1 1_555 1_555
C7 C1 1_555 1_555
C8 C6 1_555 1_555
H9 C8 1_555 1_555
H10 C8 1_555 1_555
C9 O4 1_555 1_555
C10 C11 1_555 1_555
C11 H11 1_555 1_555
C12 C11 1_555 1_555
H12 C12 1_555 1_555
C13 C12 1_555 1_555
C14 C13 1_555 1_555
H13 C14 1_555 1_555
C15 C10 1_555 1_555
H14 C15 1_555 1_555
C16 N1 1_555 1_555
H15 C16 1_555 1_555
H16 C16 1_555 1_555
C17 H17 1_555 1_555
C18 N1 1_555 1_555
H18 C18 1_555 1_555
C19 N4 1_555 1_555
H19 C19 1_555 1_555
H20 C19 1_555 1_555
C20 N4 1_555 1_555
H21 C20 1_555 1_555
C21 N6 1_555 1_555
H22 C21 1_555 1_555
O7 H23 1_555 1_555
H24 O7 1_555 1_555
N1B N2B 1_555 1_555
N2B C17B 1_555 1_555
N3B C17B 1_555 1_555
N4B N5B 1_555 1_555
N5B C21B 1_555 1_555
N6B Ni2 1_555 1_555
O5B Ni2 1_555 1_555
H1B O5B 1_555 1_555
H2B O5B 1_555 1_555
C10B C11B 1_555 1_555
C11B H11B 1_555 1_555
C12B C11B 1_555 1_555
H12B C12B 1_555 1_555
C13B C12B 1_555 1_555
C14B C13B 1_555 1_555
H13B C14B 1_555 1_555
C15B C10B 1_555 1_555
H14B C15B 1_555 1_555
C16B N1B 1_555 1_555
H15B C16B 1_555 1_555
H16B C16B 1_555 1_555
C17B H17B 1_555 1_555
C18B N1B 1_555 1_555
H18B C18B 1_555 1_555
C19B N4B 1_555 1_555
H19B C19B 1_555 1_555
H20B C19B 1_555 1_555
C20B N4B 1_555 1_555
H21B C20B 1_555 1_555
C21B N6B 1_555 1_555
H22B C21B 1_555 1_555
O1B C7B 1_555 1_555
O2B C7B 1_555 1_555
O3B C9B 1_555 1_555
O4B Ni1 1_555 1_555
C1B C2B 1_555 1_555
C2B H5B 1_555 1_555
C3B C2B 1_555 1_555
H6B C3B 1_555 1_555
C4B C3B 1_555 1_555
H7B C4B 1_555 1_555
C5B C4B 1_555 1_555
H8B C5B 1_555 1_555
C6B C1B 1_555 1_555
C7B C1B 1_555 1_555
C8B C6B 1_555 1_555
H9B C8B 1_555 1_555
H10B C8B 1_555 1_555
C9B O4B 1_555 1_555
O6B Ni1 1_555 1_555
H3B O6B 1_555 1_555
H4B O6B 1_555 1_555
Ni1_2 N3B 1_555 1_555
Ni2A O1 1_555 1_555
Ni2A_2 O1B 1_555 1_555
N3B_2 Ni1 1_555 1_555
O1A Ni2 1_555 1_555
O1C Ni2 1_555 1_555
N3 C18 1_555 1_555
C5 C6 1_555 1_555
C8 C9 1_555 1_555
C10 C16 1_555 1_555
C13 C19 1_555 1_555
C14 C15 1_555 1_555
N3B C18B 1_555 1_555
N6B C20B 1_555 1_555
C10B C16B 1_555 1_555
C13B C19B 1_555 1_555
C14B C15B 1_555 1_555
C5B C6B 1_555 1_555
C8B C9B 1_555 1_555

#END
