
#######################################################################
#
#                 Cambridge Crystallographic Data Centre
#                                CCDC 
#
#######################################################################
#
# If this CIF has been generated from an entry in the Cambridge 
# Structural Database, then it will include bibliographic, chemical, 
# crystal, experimental, refinement or atomic coordinate data resulting 
# from the CCDC's data processing and validation procedures.
#
#######################################################################

data_VIFCOE
_symmetry_cell_setting           monoclinic
_symmetry_space_group_name_H-M   'P 21/c'
_symmetry_Int_Tables_number      14
_space_group_name_Hall           '-P 2ybc'
loop_
_symmetry_equiv_pos_site_id
_symmetry_equiv_pos_as_xyz
1 x,y,z
2 -x,1/2+y,1/2-z
3 -x,-y,-z
4 x,1/2-y,1/2+z
_cell_length_a                   14.727(8)
_cell_length_b                   8.897(5)
_cell_length_c                   16.937(9)
_cell_angle_alpha                90
_cell_angle_beta                 100.262(8)
_cell_angle_gamma                90
_cell_volume                     2183.69
loop_
_atom_site_label
_atom_site_type_symbol
_atom_site_fract_x
_atom_site_fract_y
_atom_site_fract_z
Co1 Co 0.47940(6) 0.63497(10) 0.33682(5)
N1 N 0.7677(4) 0.6755(6) 0.4284(4)
N2 N 0.7411(5) 0.6483(7) 0.5019(4)
N3 N 0.6168(4) 0.6668(6) 0.4030(3)
N4 N 0.7715(4) 0.0732(6) 0.3290(3)
N5 N 0.7965(4) -0.0154(6) 0.2699(4)
N6 N 0.6544(4) 0.0852(6) 0.2298(3)
O1 O 0.3529(3) 0.7123(5) 0.5397(3)
O2 O 0.4343(3) 0.6740(5) 0.4436(2)
O3 O 0.4766(3) 0.8549(5) 0.2904(2)
O4 O 0.4666(3) 1.1019(4) 0.2697(2)
O5 O 0.4866(3) 0.4016(4) 0.3662(2)
H1 H 0.4730 0.3264 0.3354
H2 H 0.5358 0.3810 0.3989
C1 C 0.2994(5) 0.8277(7) 0.4133(4)
C2 C 0.3271(5) 0.9619(7) 0.3822(4)
C3 C 0.2623(6) 1.0554(9) 0.3368(4)
H3 H 0.2807 1.1469 0.3183
C4 C 0.1701(7) 1.0130(11) 0.3189(5)
H4 H 0.1273 1.0738 0.2868
C5 C 0.1425(6) 0.8782(11) 0.3496(5)
H5 H 0.0809 0.8489 0.3380
C6 C 0.2067(5) 0.7881(9) 0.3972(4)
H6 H 0.1875 0.6999 0.4187
C7 C 0.3658(5) 0.7319(7) 0.4690(4)
C8 C 0.4280(5) 1.0095(7) 0.3923(4)
H7 H 0.4651 0.9496 0.4339
H8 H 0.4342 1.1143 0.4081
C9 C 0.4612(4) 0.9868(8) 0.3129(4)
C10 C 0.9011(5) 0.5195(10) 0.4039(5)
C11 C 0.8519(5) 0.3877(9) 0.4109(4)
H9 H 0.7934 0.3922 0.4244
C12 C 0.8918(5) 0.2453(9) 0.3971(4)
C13 C 0.9764(6) 0.2406(11) 0.3754(5)
H10 H 1.0016 0.1482 0.3653
C14 C 1.0256(7) 0.3698(13) 0.3681(7)
H11 H 1.0835 0.3639 0.3536
C15 C 0.9894(6) 0.5078(13) 0.3824(6)
H12 H 1.0233 0.5945 0.3777
C16 C 0.8642(5) 0.6717(8) 0.4201(5)
H13 H 0.9010 0.7110 0.4689
H14 H 0.8724 0.7384 0.3766
C17 C 0.6496(5) 0.6456(8) 0.4824(4)
H15 H 0.6113 0.6306 0.5199
C18 C 0.6919(5) 0.6814(8) 0.3728(4)
H16 H 0.6923 0.6944 0.3184
H17 H 0.7199 -0.0577 0.1628
H18 H 0.6570 0.1968 0.3351
C19 C 0.8346(5) 0.1058(8) 0.4046(4)
H19 H 0.8754 0.0207 0.4190
H20 H 0.7992 0.1205 0.4470
C20 C 0.7231(5) -0.0033(8) 0.2122(4)
C21 C 0.6885(5) 0.1320(8) 0.3044(4)
Co1A Co 0.52060(6) 0.13497(10) 0.16318(5)
Co1A_2 Co 0.52060(6) 1.13497(10) 0.16318(5)
N6A N 0.3456(4) 0.5852(6) 0.2702(3)
O4A O 0.5334(3) 0.6019(4) 0.2303(2)
loop_
_geom_bond_atom_site_label_1
_geom_bond_atom_site_label_2
_geom_bond_site_symmetry_1
_geom_bond_site_symmetry_2
Co1 N3 1_555 1_555
N1 N2 1_555 1_555
N2 C17 1_555 1_555
N3 C17 1_555 1_555
N4 N5 1_555 1_555
N5 C20 1_555 1_555
N6 C20 1_555 1_555
O1 C7 1_555 1_555
O2 Co1 1_555 1_555
O3 Co1 1_555 1_555
O4 C9 1_555 1_555
O5 Co1 1_555 1_555
H1 O5 1_555 1_555
H2 O5 1_555 1_555
C1 C2 1_555 1_555
C2 C3 1_555 1_555
C3 H3 1_555 1_555
C4 C3 1_555 1_555
H4 C4 1_555 1_555
C5 C4 1_555 1_555
H5 C5 1_555 1_555
C6 C1 1_555 1_555
H6 C6 1_555 1_555
C7 O2 1_555 1_555
C8 C2 1_555 1_555
H7 C8 1_555 1_555
H8 C8 1_555 1_555
C9 O3 1_555 1_555
C10 C11 1_555 1_555
C11 H9 1_555 1_555
C12 C11 1_555 1_555
C13 C12 1_555 1_555
H10 C13 1_555 1_555
C14 C13 1_555 1_555
H11 C14 1_555 1_555
C15 C10 1_555 1_555
H12 C15 1_555 1_555
C16 N1 1_555 1_555
H13 C16 1_555 1_555
H14 C16 1_555 1_555
C17 H15 1_555 1_555
C18 N1 1_555 1_555
H16 C18 1_555 1_555
H17 C20 1_555 1_555
H18 C21 1_555 1_555
C19 N4 1_555 1_555
H19 C19 1_555 1_555
H20 C19 1_555 1_555
C21 N4 1_555 1_555
Co1A N6 1_555 1_555
Co1A_2 O4 1_555 1_555
N6A Co1 1_555 1_555
O4A Co1 1_555 1_555
N3 C18 1_555 1_555
N6 C21 1_555 1_555
C1 C7 1_555 1_555
C5 C6 1_555 1_555
C8 C9 1_555 1_555
C10 C16 1_555 1_555
C12 C19 1_555 1_555
C14 C15 1_555 1_555

#END
