
#######################################################################
#
#                 Cambridge Crystallographic Data Centre
#                                CCDC 
#
#######################################################################
#
# If this CIF has been generated from an entry in the Cambridge 
# Structural Database, then it will include bibliographic, chemical, 
# crystal, experimental, refinement or atomic coordinate data resulting 
# from the CCDC's data processing and validation procedures.
#
#######################################################################

data_VIFCEU
_symmetry_cell_setting           triclinic
_symmetry_space_group_name_H-M   'P -1'
_symmetry_Int_Tables_number      2
_space_group_name_Hall           '-P 1'
loop_
_symmetry_equiv_pos_site_id
_symmetry_equiv_pos_as_xyz
1 x,y,z
2 -x,-y,-z
_cell_length_a                   9.3819(8)
_cell_length_b                   10.6295(11)
_cell_length_c                   11.8350(12)
_cell_angle_alpha                78.197(2)
_cell_angle_beta                 78.773(2)
_cell_angle_gamma                64.8030(10)
_cell_volume                     1037.62
loop_
_atom_site_label
_atom_site_type_symbol
_atom_site_fract_x
_atom_site_fract_y
_atom_site_fract_z
Co1 Co 0.30916(6) 1.20818(5) 0.40295(4)
N1 N 0.0629(4) 0.9969(3) 0.6257(3)
N2 N 0.1538(4) 1.1415(3) 0.5098(3)
N3 N 0.0992(4) 0.5417(3) 1.1530(3)
N4 N 0.2239(4) 0.3483(3) 1.2651(3)
O1 O 0.4300(3) 1.2518(3) 0.4969(2)
O2 O 0.1930(4) 1.4215(3) 0.5230(3)
O3 O 0.5172(3) 0.9485(3) 0.6654(3)
O4 O 0.6775(4) 1.0087(3) 0.7353(3)
C1 C 0.3826(4) 1.3853(4) 0.6463(3)
C2 C 0.4211(4) 1.2868(4) 0.7453(3)
C3 C 0.4748(5) 1.3169(5) 0.8324(4)
H1 H 0.5007 1.2520 0.8989
C4 C 0.4910(6) 1.4425(5) 0.8224(4)
H2 H 0.5291 1.4608 0.8815
C5 C 0.4508(6) 1.5400(5) 0.7255(4)
H3 H 0.4608 1.6246 0.7189
C6 C 0.3958(5) 1.5121(4) 0.6383(4)
H4 H 0.3672 1.5788 0.5731
C7 C 0.3286(5) 1.3538(4) 0.5481(3)
C8 C 0.4000(5) 1.1509(4) 0.7573(4)
H5 H 0.3148 1.1672 0.7138
H6 H 0.3675 1.1251 0.8385
C9 C 0.5470(5) 1.0278(4) 0.7156(3)
C10 C 0.0963(5) 0.8511(4) 0.8182(3)
C11 C 0.0268(5) 0.7814(4) 0.9086(3)
H7 H -0.0424 0.7474 0.8926
C12 C 0.0582(5) 0.7615(4) 1.0213(3)
C13 C 0.1589(6) 0.8145(5) 1.0446(4)
H8 H 0.1796 0.8035 1.1206
C14 C 0.2289(6) 0.8836(5) 0.9560(4)
H9 H 0.2971 0.9186 0.9723
C15 C 0.1982(5) 0.9010(5) 0.8439(4)
H10 H 0.2468 0.9469 0.7845
C16 C 0.0610(5) 0.8669(4) 0.6962(3)
H11 H 0.1391 0.7875 0.6591
H12 H -0.0425 0.8657 0.6991
C17 C 0.1879(5) 1.0095(4) 0.5542(3)
H13 H 0.2847 0.9354 0.5385
C18 C 0.0014(5) 1.2157(4) 0.5548(3)
H14 H -0.0543 1.3122 0.5382
C19 C -0.0564(5) 1.1271(4) 0.6275(3)
H15 H -0.1566 1.1506 0.6698
C20 C -0.0142(5) 0.6826(5) 1.1176(4)
H16 H -0.0546 0.7338 1.1840
H17 H -0.1031 0.6769 1.0919
C21 C 0.1111(5) 0.4744(4) 1.2625(3)
H18 H 0.0472 0.5127 1.3278
C22 C 0.2867(5) 0.3339(5) 1.1510(4)
H19 H 0.3694 0.2542 1.1255
C23 C 0.2106(5) 0.4524(4) 1.0820(3)
H20 H 0.2303 0.4698 1.0015
Co1_2 Co 0.30916(6) 0.20818(5) 1.40295(4)
Co1A Co 0.69084(6) 0.79182(5) 0.59705(4)
N4_2 N 0.2239(4) 1.3483(3) 0.2651(3)
O3A O 0.4828(3) 1.0515(3) 0.3346(3)
loop_
_geom_bond_atom_site_label_1
_geom_bond_atom_site_label_2
_geom_bond_site_symmetry_1
_geom_bond_site_symmetry_2
Co1 N2 1_555 1_555
N1 C16 1_555 1_555
N2 C17 1_555 1_555
N3 C20 1_555 1_555
N4 C21 1_555 1_555
O1 Co1 1_555 1_555
O2 C7 1_555 1_555
O3 C9 1_555 1_555
O4 C9 1_555 1_555
C1 C2 1_555 1_555
C2 C3 1_555 1_555
C3 H1 1_555 1_555
C4 C3 1_555 1_555
H2 C4 1_555 1_555
C5 C4 1_555 1_555
H3 C5 1_555 1_555
C6 C1 1_555 1_555
H4 C6 1_555 1_555
C7 O1 1_555 1_555
C8 C2 1_555 1_555
H5 C8 1_555 1_555
H6 C8 1_555 1_555
C9 C8 1_555 1_555
C10 C11 1_555 1_555
C11 H7 1_555 1_555
C12 C11 1_555 1_555
C13 C12 1_555 1_555
H8 C13 1_555 1_555
C14 C13 1_555 1_555
H9 C14 1_555 1_555
C15 C10 1_555 1_555
H10 C15 1_555 1_555
C16 C10 1_555 1_555
H11 C16 1_555 1_555
H12 C16 1_555 1_555
C17 N1 1_555 1_555
H13 C17 1_555 1_555
C18 N2 1_555 1_555
H14 C18 1_555 1_555
C19 N1 1_555 1_555
H15 C19 1_555 1_555
C20 C12 1_555 1_555
H16 C20 1_555 1_555
H17 C20 1_555 1_555
C21 N3 1_555 1_555
H18 C21 1_555 1_555
C22 N4 1_555 1_555
H19 C22 1_555 1_555
C23 N3 1_555 1_555
H20 C23 1_555 1_555
Co1_2 N4 1_555 1_555
Co1A O3 1_555 1_555
N4_2 Co1 1_555 1_555
O3A Co1 1_555 1_555
C1 C7 1_555 1_555
C5 C6 1_555 1_555
C14 C15 1_555 1_555
C18 C19 1_555 1_555
C22 C23 1_555 1_555

#END
