
#######################################################################
#
#                 Cambridge Crystallographic Data Centre
#                                CCDC 
#
#######################################################################
#
# If this CIF has been generated from an entry in the Cambridge 
# Structural Database, then it will include bibliographic, chemical, 
# crystal, experimental, refinement or atomic coordinate data resulting 
# from the CCDC's data processing and validation procedures.
#
#######################################################################

data_VIFDIZ
_symmetry_cell_setting           triclinic
_symmetry_space_group_name_H-M   'P -1'
_symmetry_Int_Tables_number      2
_space_group_name_Hall           '-P 1'
loop_
_symmetry_equiv_pos_site_id
_symmetry_equiv_pos_as_xyz
1 x,y,z
2 -x,-y,-z
_cell_length_a                   7.7501(8)
_cell_length_b                   8.6677(8)
_cell_length_c                   11.4926(12)
_cell_angle_alpha                106.744(9)
_cell_angle_beta                 92.718(8)
_cell_angle_gamma                102.944(8)
_cell_volume                     715.301
loop_
_atom_site_label
_atom_site_type_symbol
_atom_site_fract_x
_atom_site_fract_y
_atom_site_fract_z
Hg1 Hg 1.0000 0.5000 0.5000
Sb1 Sb 0.62176(8) 0.26035(7) 0.61894(5)
Mn1 Mn 0.42849(18) 0.32596(15) 0.36805(11)
S1 S 0.6629(3) 0.1703(3) 0.4094(2)
S2 S 0.3743(3) 0.3825(3) 0.59444(19)
S3 S 0.8519(3) 0.5307(3) 0.6773(2)
N1 N 0.4271(9) 0.2527(8) 0.1601(6)
N2 N 0.2176(9) 0.0886(7) 0.2899(6)
C1 C 0.5222(12) 0.3378(10) 0.0978(7)
H1 H 0.5988 0.4401 0.1404
C2 C 0.5141(12) 0.2824(11) -0.0294(8)
H2 H 0.5851 0.3466 -0.0699
C3 C 0.4016(12) 0.1335(10) -0.0941(8)
H3 H 0.3933 0.0962 -0.1791
C4 C 0.2980(11) 0.0370(10) -0.0306(7)
C5 C 0.1747(11) -0.1179(11) -0.0885(8)
H4 H 0.1617 -0.1614 -0.1733
C6 C 0.0776(12) -0.2018(11) -0.0247(8)
H5 H 0.0011 -0.3049 -0.0656
C7 C 0.0870(11) -0.1386(10) 0.1057(8)
C8 C -0.0179(11) -0.2191(10) 0.1777(9)
H6 H -0.0955 -0.3233 0.1420
C9 C -0.0046(12) -0.1430(11) 0.2997(8)
H7 H -0.0745 -0.1941 0.3483
C10 C 0.1128(12) 0.0101(10) 0.3515(8)
H8 H 0.1177 0.0606 0.4353
C11 C 0.2036(10) 0.0154(9) 0.1668(7)
C12 C 0.3139(11) 0.1052(10) 0.0991(7)
Sb1A Sb 0.37824(8) 0.73965(7) 0.38106(5)
Mn1A Mn 0.57151(18) 0.67404(15) 0.63195(11)
S1A S 0.3371(3) 0.8297(3) 0.5906(2)
S2A S 0.6257(3) 0.6175(3) 0.40556(19)
S3A S 0.1481(3) 0.4693(3) 0.3227(2)
N1A N 0.5729(9) 0.7473(8) 0.8399(6)
N2A N 0.7824(9) 0.9114(7) 0.7101(6)
C1A C 0.4778(12) 0.6622(10) 0.9022(7)
H1A H 0.4012 0.5599 0.8596
C2A C 0.4859(12) 0.7176(11) 1.0294(8)
H2A H 0.4149 0.6534 1.0699
C3A C 0.5984(12) 0.8665(10) 1.0941(8)
H3A H 0.6067 0.9038 1.1791
C4A C 0.7020(11) 0.9630(10) 1.0306(7)
C5A C 0.8253(11) 1.1179(11) 1.0885(8)
H4A H 0.8383 1.1614 1.1733
C6A C 0.9224(12) 1.2018(11) 1.0247(8)
H5A H 0.9989 1.3049 1.0656
C7A C 0.9130(11) 1.1386(10) 0.8943(8)
C8A C 1.0179(11) 1.2191(10) 0.8223(9)
H6A H 1.0955 1.3233 0.8580
C9A C 1.0046(12) 1.1430(11) 0.7003(8)
H7A H 1.0745 1.1941 0.6517
C10A C 0.8872(12) 0.9899(10) 0.6485(8)
H8A H 0.8823 0.9394 0.5647
C11A C 0.7964(10) 0.9846(9) 0.8332(7)
C12A C 0.6861(11) 0.8948(10) 0.9009(7)
Hg1_2 Hg 0.0000 0.5000 0.5000
S3A_2 S 1.1481(3) 0.4693(3) 0.3227(2)
loop_
_geom_bond_atom_site_label_1
_geom_bond_atom_site_label_2
_geom_bond_site_symmetry_1
_geom_bond_site_symmetry_2
Hg1 S3 1_555 1_555
Sb1 S1 1_555 1_555
Mn1 S1 1_555 1_555
S2 Sb1 1_555 1_555
S3 Sb1 1_555 1_555
N1 Mn1 1_555 1_555
N2 Mn1 1_555 1_555
C1 N1 1_555 1_555
H1 C1 1_555 1_555
C2 C1 1_555 1_555
H2 C2 1_555 1_555
C3 C2 1_555 1_555
H3 C3 1_555 1_555
C4 C3 1_555 1_555
C5 C4 1_555 1_555
H4 C5 1_555 1_555
C6 C5 1_555 1_555
H5 C6 1_555 1_555
C7 C6 1_555 1_555
C8 C7 1_555 1_555
H6 C8 1_555 1_555
C9 C8 1_555 1_555
H7 C9 1_555 1_555
C10 N2 1_555 1_555
H8 C10 1_555 1_555
C11 N2 1_555 1_555
C12 N1 1_555 1_555
Sb1A S1A 1_555 1_555
Mn1A S2 1_555 1_555
S1A Mn1A 1_555 1_555
S2A Mn1 1_555 1_555
S3A Sb1A 1_555 1_555
N1A Mn1A 1_555 1_555
N2A Mn1A 1_555 1_555
C1A N1A 1_555 1_555
H1A C1A 1_555 1_555
C2A C1A 1_555 1_555
H2A C2A 1_555 1_555
C3A C2A 1_555 1_555
H3A C3A 1_555 1_555
C4A C3A 1_555 1_555
C5A C4A 1_555 1_555
H4A C5A 1_555 1_555
C6A C5A 1_555 1_555
H5A C6A 1_555 1_555
C7A C6A 1_555 1_555
C8A C7A 1_555 1_555
H6A C8A 1_555 1_555
C9A C8A 1_555 1_555
H7A C9A 1_555 1_555
C10A N2A 1_555 1_555
H8A C10A 1_555 1_555
C11A N2A 1_555 1_555
C12A N1A 1_555 1_555
Hg1_2 S3A 1_555 1_555
S3A_2 Hg1 1_555 1_555
Mn1 S2 1_555 1_555
C4 C12 1_555 1_555
C7 C11 1_555 1_555
C9 C10 1_555 1_555
C11 C12 1_555 1_555
Sb1A S2A 1_555 1_555
Mn1A S2A 1_555 1_555
C4A C12A 1_555 1_555
C7A C11A 1_555 1_555
C9A C10A 1_555 1_555
C11A C12A 1_555 1_555

#END
