
#######################################################################
#
#                 Cambridge Crystallographic Data Centre
#                                CCDC 
#
#######################################################################
#
# If this CIF has been generated from an entry in the Cambridge 
# Structural Database, then it will include bibliographic, chemical, 
# crystal, experimental, refinement or atomic coordinate data resulting 
# from the CCDC's data processing and validation procedures.
#
#######################################################################

data_VIFFOG
_symmetry_cell_setting           triclinic
_symmetry_space_group_name_H-M   'P 1'
_symmetry_Int_Tables_number      1
_space_group_name_Hall           'P 1'
loop_
_symmetry_equiv_pos_site_id
_symmetry_equiv_pos_as_xyz
1 x,y,z
_cell_length_a                   13.3754(12)
_cell_length_b                   15.3953(14)
_cell_length_c                   15.7098(15)
_cell_angle_alpha                70.609(2)
_cell_angle_beta                 70.501(2)
_cell_angle_gamma                67.214(2)
_cell_volume                     2733.85
loop_
_atom_site_label
_atom_site_type_symbol
_atom_site_fract_x
_atom_site_fract_y
_atom_site_fract_z
Ni1 Ni 0.50434(10) 0.07251(9) 0.69420(9)
Ni2 Ni 1.59035(13) -0.39144(11) 0.25507(10)
O1 O 0.6491(7) 0.0354(6) 0.7065(6)
O2 O 0.4710(7) 0.1620(6) 0.7625(6)
O3 O 1.3555(9) -0.4435(8) 0.3481(9)
O4 O 1.4415(8) -0.3442(7) 0.3451(6)
O5 O -0.3254(9) 0.6234(7) 1.0308(6)
O6 O -0.2634(8) 0.5701(7) 1.1576(6)
O7 O 1.5294(8) -0.2741(6) 0.1468(6)
O8 O 1.5243(8) -0.4769(7) 0.2194(7)
N1 N 0.5372(9) -0.0158(8) 0.6245(8)
N2 N 0.3601(9) 0.1070(8) 0.6843(8)
N3 N 1.6524(10) -0.5126(8) 0.3585(8)
N4 N 1.6498(10) -0.3040(8) 0.2878(8)
C1 C 0.7392(10) -0.0210(9) 0.6639(8)
C2 C 0.8486(10) -0.0329(8) 0.6756(8)
C3 C 0.9438(12) -0.0937(9) 0.6295(9)
H1 H 1.0136 -0.1029 0.6399
C4 C 0.9430(11) -0.1424(9) 0.5687(9)
C5 C 0.8405(11) -0.1323(10) 0.5573(9)
H2 H 0.8382 -0.1652 0.5168
C6 C 0.7369(11) -0.0733(9) 0.6049(9)
C7 C 0.6387(11) -0.0681(9) 0.5900(10)
H3 H 0.6448 -0.1062 0.5506
C8 C 0.4381(7) -0.0283(7) 0.6170(7)
H4 H 0.4109 -0.0730 0.6754
C9 C 0.4544(11) -0.0684(9) 0.5329(9)
H5 H 0.5093 -0.1342 0.5378
H6 H 0.4821 -0.0257 0.4741
C10 C 0.3378(8) -0.0716(7) 0.5354(8)
H7 H 0.3441 -0.0910 0.4793
H8 H 0.3172 -0.1218 0.5902
C11 C 0.2473(12) 0.0216(10) 0.5396(11)
H9 H 0.1755 0.0114 0.5487
H10 H 0.2602 0.0684 0.4793
C12 C 0.2380(11) 0.0655(10) 0.6165(9)
H11 H 0.2116 0.0252 0.6777
H12 H 0.1832 0.1313 0.6103
C13 C 0.3517(7) 0.0709(7) 0.6108(7)
H13 H 0.3756 0.1134 0.5492
C14 C 0.2735(12) 0.1662(10) 0.7272(10)
H14 H 0.2037 0.1758 0.7166
C15 C 0.2708(11) 0.2174(9) 0.7868(9)
C16 C 0.1679(11) 0.2712(10) 0.8336(10)
H15 H 0.1010 0.2704 0.8254
C17 C 0.1609(11) 0.3253(9) 0.8912(9)
C18 C 0.2574(11) 0.3223(9) 0.9020(9)
H16 H 0.2516 0.3577 0.9437
C19 C 0.3653(11) 0.2735(10) 0.8597(10)
C20 C 0.3728(12) 0.2158(9) 0.7996(9)
C21 C 0.8520(11) 0.0228(10) 0.7391(9)
C22 C 0.7916(12) -0.0130(11) 0.8394(9)
H17 H 0.7945 0.0225 0.8795
H18 H 0.8282 -0.0824 0.8609
H19 H 0.7136 -0.0021 0.8418
C23 C 0.8019(10) 0.1301(8) 0.7076(9)
H20 H 0.7215 0.1461 0.7155
H21 H 0.8365 0.1515 0.6419
H22 H 0.8151 0.1630 0.7447
C24 C 0.9767(10) 0.0076(10) 0.7372(10)
H23 H 1.0183 0.0238 0.6728
H24 H 1.0118 -0.0602 0.7658
H25 H 0.9772 0.0498 0.7719
C25 C 0.4709(11) 0.2771(10) 0.8705(10)
C26 C 0.5352(12) 0.3171(11) 0.7797(11)
H26 H 0.6031 0.3208 0.7873
H27 H 0.4899 0.3822 0.7537
H28 H 0.5555 0.2751 0.7375
C27 C 0.5398(10) 0.1763(10) 0.9161(9)
H29 H 0.6073 0.1806 0.9238
H30 H 0.5608 0.1314 0.8766
H31 H 0.4951 0.1525 0.9770
C28 C 0.4432(13) 0.3475(12) 0.9322(12)
H32 H 0.3921 0.3291 0.9913
H33 H 0.4078 0.4138 0.9003
H34 H 0.5121 0.3443 0.9441
C29 C 1.0460(11) -0.2005(9) 0.5194(9)
C30 C 1.1430(12) -0.1837(11) 0.4988(10)
H35 H 1.1423 -0.1307 0.5175
C31 C 1.2468(12) -0.2379(10) 0.4515(10)
H36 H 1.3130 -0.2220 0.4391
C32 C 1.2481(10) -0.3139(10) 0.4244(9)
C33 C 1.1499(12) -0.3338(9) 0.4421(9)
H37 H 1.1495 -0.3854 0.4220
C34 C 1.0523(10) -0.2774(9) 0.4894(8)
H38 H 0.9857 -0.2927 0.5019
C35 C 1.3545(12) -0.3720(9) 0.3682(9)
C36 C 0.0492(12) 0.3840(10) 0.9411(9)
C37 C 0.0407(12) 0.4054(9) 1.0226(9)
H39 H 0.1032 0.3790 1.0495
C38 C -0.0592(11) 0.4658(10) 1.0655(9)
H40 H -0.0634 0.4794 1.1215
C39 C -0.1481(12) 0.5044(10) 1.0299(9)
C40 C -0.1409(11) 0.4862(9) 0.9468(10)
H41 H -0.2027 0.5152 0.9189
C41 C -0.0426(11) 0.4256(10) 0.9052(9)
H42 H -0.0390 0.4125 0.8491
C42 C -0.2543(11) 0.5709(8) 1.0758(9)
C43 C 1.6068(13) -0.5215(11) 0.4444(10)
H43 H 1.5496 -0.4657 0.4616
C44 C 1.6286(11) -0.5989(10) 0.5137(9)
H44 H 1.5844 -0.5998 0.5753
C45 C 1.7177(15) -0.6772(12) 0.4920(10)
H45 H 1.7384 -0.7350 0.5378
C46 C 1.7734(13) -0.6679(11) 0.4039(13)
H46 H 1.8397 -0.7180 0.3866
C47 C 1.7377(14) -0.5882(10) 0.3377(11)
H47 H 1.7754 -0.5870 0.2744
C48 C 1.5840(14) -0.2170(10) 0.3068(10)
H48 H 1.5063 -0.1997 0.3118
C49 C 1.6230(14) -0.1509(10) 0.3197(10)
H49 H 1.5734 -0.0894 0.3293
C50 C 1.7397(17) -0.1777(11) 0.3181(10)
H50 H 1.7700 -0.1358 0.3271
C51 C 1.8049(13) -0.2695(13) 0.3024(10)
H51 H 1.8826 -0.2907 0.2991
C52 C 1.7578(14) -0.3299(11) 0.2916(10)
H52 H 1.8042 -0.3937 0.2865
C53 C 1.4166(11) -0.2406(10) 0.1408(9)
H53 H 1.3887 -0.2960 0.1590
H54 H 1.4116 -0.2059 0.0768
H55 H 1.3714 -0.1968 0.1825
C54 C 1.5793(12) -0.5732(9) 0.2078(9)
H56 H 1.6572 -0.5800 0.1741
H57 H 1.5418 -0.5875 0.1725
H58 H 1.5769 -0.6186 0.2688
Ni2_2 Ni -0.40965(13) 0.60856(11) 1.25507(10)
O6_2 O 1.7366(8) -0.4299(7) 0.1576(6)
Ni3 Ni -0.01130(10) 0.57313(9) 0.68744(9)
Ni4 Ni -1.09682(13) 1.03739(11) 1.12628(11)
O9 O -0.1569(7) 0.6033(6) 0.6828(6)
O10 O 0.0237(7) 0.4889(6) 0.6139(7)
O11 O -0.8595(8) 1.0918(7) 1.0286(7)
O12 O -0.9453(8) 0.9886(7) 1.0338(7)
O13 O 0.8216(9) 0.0205(8) 0.3546(7)
O14 O 0.7586(8) 0.0747(7) 0.2241(7)
O15 O -1.0336(8) 0.9227(7) 1.2325(7)
O16 O -1.0329(7) 1.1206(6) 1.1642(6)
N5 N -0.0496(9) 0.6496(8) 0.7688(7)
N6 N 0.1382(9) 0.5478(8) 0.6854(8)
N7 N -1.1624(11) 0.9502(9) 1.0935(8)
N8 N -1.1612(10) 1.1571(9) 1.0258(8)
C55 C -0.2502(10) 0.6612(9) 0.7241(9)
C56 C -0.3525(10) 0.6740(9) 0.7064(9)
C57 C -0.4474(9) 0.7357(9) 0.7516(8)
H59 H -0.5172 0.7443 0.7416
C58 C -0.4470(10) 0.7860(9) 0.8111(8)
C59 C -0.3462(11) 0.7744(9) 0.8241(9)
H60 H -0.3428 0.8082 0.8633
C60 C -0.2492(10) 0.7141(8) 0.7809(8)
C61 C -0.1448(11) 0.7026(9) 0.8021(8)
H61 H -0.1494 0.7376 0.8437
C62 C 0.0467(8) 0.6307(8) 0.8073(7)
H62 H 0.0551 0.5673 0.8542
C63 C 0.0431(12) 0.7042(11) 0.8533(11)
H63 H 0.0347 0.7679 0.8085
H64 H -0.0225 0.7110 0.9066
C64 C 0.1469(9) 0.6748(9) 0.8864(8)
H65 H 0.1445 0.7265 0.9120
H66 H 0.1510 0.6150 0.9367
C65 C 0.2468(12) 0.6576(12) 0.8091(11)
H67 H 0.3140 0.6312 0.8346
H68 H 0.2487 0.7206 0.7653
C66 C 0.2538(12) 0.5890(11) 0.7552(11)
H69 H 0.3165 0.5898 0.6995
H70 H 0.2685 0.5221 0.7945
C67 C 0.1493(7) 0.6175(8) 0.7268(7)
H71 H 0.1420 0.6809 0.6801
C68 C 0.2230(11) 0.4927(10) 0.6451(9)
H72 H 0.2932 0.4887 0.6508
C69 C 0.2225(11) 0.4324(9) 0.5883(10)
C70 C 0.3273(11) 0.3741(10) 0.5463(9)
H73 H 0.3934 0.3735 0.5570
C71 C 0.3352(11) 0.3192(9) 0.4912(9)
C72 C 0.2325(10) 0.3182(9) 0.4812(9)
H74 H 0.2361 0.2785 0.4445
C73 C 0.1287(10) 0.3727(9) 0.5228(8)
C74 C 0.1212(10) 0.4344(9) 0.5762(9)
C75 C -0.3618(11) 0.6242(9) 0.6403(9)
C76 C -0.3136(13) 0.5126(9) 0.6807(11)
H75 H -0.2411 0.4985 0.6931
H76 H -0.3045 0.4771 0.6357
H77 H -0.3653 0.4925 0.7387
C77 C -0.2958(11) 0.6569(9) 0.5428(8)
H78 H -0.3316 0.7258 0.5184
H79 H -0.2935 0.6190 0.5026
H80 H -0.2195 0.6471 0.5447
C78 C -0.4772(12) 0.6467(11) 0.6329(10)
H81 H -0.5222 0.6231 0.6937
H82 H -0.4759 0.6149 0.5877
H83 H -0.5098 0.7169 0.6125
C79 C 0.0223(12) 0.3651(10) 0.5084(10)
C80 C 0.0495(13) 0.2940(12) 0.4514(11)
H84 H 0.1015 0.2324 0.4764
H85 H 0.0839 0.3198 0.3869
H86 H -0.0192 0.2834 0.4539
C81 C -0.0512(11) 0.3282(10) 0.6069(10)
H87 H -0.0119 0.2609 0.6334
H88 H -0.1229 0.3319 0.5998
H89 H -0.0642 0.3690 0.6484
C82 C -0.0457(14) 0.4620(11) 0.4606(11)
H90 H -0.1132 0.4557 0.4547
H91 H -0.0014 0.4835 0.3987
H92 H -0.0669 0.5095 0.4973
C83 C -0.5567(11) 0.8511(10) 0.8591(9)
C84 C -0.6598(11) 0.8289(10) 0.8804(9)
H93 H -0.6605 0.7763 0.8620
C85 C -0.7556(12) 0.8848(11) 0.9271(10)
H94 H -0.8227 0.8700 0.9407
C86 C -0.7593(11) 0.9637(9) 0.9561(9)
C87 C -0.6601(11) 0.9881(9) 0.9303(9)
H95 H -0.6620 1.0436 0.9454
C88 C -0.5585(11) 0.9325(9) 0.8829(9)
H96 H -0.4923 0.9495 0.8672
C89 C -0.8627(12) 1.0205(11) 1.0090(11)
C90 C 0.4417(11) 0.2608(9) 0.4425(10)
C91 C 0.4501(13) 0.2414(10) 0.3598(10)
H97 H 0.3869 0.2683 0.3337
C92 C 0.5496(11) 0.1829(10) 0.3140(10)
H98 H 0.5553 0.1730 0.2558
C93 C 0.6433(10) 0.1380(9) 0.3567(10)
C94 C 0.6348(12) 0.1605(9) 0.4378(10)
H99 H 0.6975 0.1343 0.4644
C95 C 0.5355(10) 0.2210(9) 0.4812(9)
H100 H 0.5312 0.2353 0.5369
C96 C 0.7499(12) 0.0697(11) 0.3078(10)
C97 C -1.0954(15) 0.8617(11) 1.0812(10)
H101 H -1.0185 0.8393 1.0811
C98 C -1.1463(17) 0.8060(12) 1.0686(10)
H102 H -1.1006 0.7436 1.0585
C99 C -1.2471(16) 0.8300(14) 1.0693(11)
H103 H -1.2776 0.7861 1.0641
C100 C -1.3109(16) 0.9206(13) 1.0778(10)
H104 H -1.3860 0.9443 1.0723
C101 C -1.2669(12) 0.9777(12) 1.0943(10)
H105 H -1.3138 1.0390 1.1066
C102 C -1.1055(13) 1.1613(11) 0.9343(10)
H106 H -1.0424 1.1095 0.9158
C103 C -1.1478(18) 1.2484(16) 0.8675(12)
H107 H -1.1148 1.2530 0.8031
C104 C -1.2322(16) 1.3219(12) 0.8956(14)
H108 H -1.2570 1.3789 0.8504
C105 C -1.2833(15) 1.3192(11) 0.9844(12)
H109 H -1.3408 1.3739 1.0035
C106 C -1.2490(12) 1.2323(10) 1.0487(11)
H110 H -1.2901 1.2263 1.1116
C107 C -0.9145(13) 0.8871(11) 1.2325(12)
H111 H -0.9035 0.8412 1.2917
H112 H -0.8892 0.9418 1.2244
H113 H -0.8714 0.8546 1.1814
C108 C -1.0884(14) 1.2188(11) 1.1779(12)
H114 H -1.1597 1.2217 1.2238
H115 H -1.1020 1.2637 1.1189
H116 H -1.0409 1.2372 1.2002
Ni4_2 Ni 0.90318(13) 0.03739(11) 0.12628(11)
O14_2 O -1.2414(8) 1.0747(7) 1.2241(7)
O17 O 0.5549(17) 0.5472(11) -0.0409(11)
C109 C 0.442(2) 0.5604(18) 0.0201(18)
H117 H 0.4119 0.5124 0.0183
H118 H 0.3936 0.6257 -0.0013
H119 H 0.4454 0.5518 0.0838
O18 O -0.0767(9) 0.1048(8) 0.4207(9)
C110 C 0.0346(13) 0.0780(10) 0.3847(11)
H120 H 0.0690 0.1093 0.4072
H121 H 0.0496 0.0980 0.3167
H122 H 0.0660 0.0075 0.4039
N9 N 0.2366(11) 0.4234(6) 0.2191(9)
C111 C 0.1693(10) 0.4524(6) 0.1574(8)
H123 H 0.1617 0.4055 0.1352
C112 C 0.1131(9) 0.5501(7) 0.1282(7)
H124 H 0.0671 0.5698 0.0861
C113 C 0.1242(9) 0.6187(5) 0.1607(8)
H125 H 0.0858 0.6855 0.1408
C114 C 0.1915(10) 0.5898(7) 0.2224(8)
H126 H 0.1991 0.6367 0.2446
C115 C 0.2477(10) 0.4921(8) 0.2516(8)
H127 H 0.2937 0.4724 0.2937
N10 N 0.2771(13) 0.2012(9) 0.1783(11)
C116 C 0.3214(12) 0.1546(11) 0.2561(10)
H128 H 0.3306 0.1915 0.2893
C117 C 0.3522(11) 0.0542(11) 0.2853(8)
H129 H 0.3824 0.0224 0.3385
C118 C 0.3387(11) 0.0003(9) 0.2368(10)
H130 H 0.3597 -0.0683 0.2567
C119 C 0.2944(12) 0.0469(11) 0.1589(9)
H131 H 0.2852 0.0100 0.1257
C120 C 0.2636(13) 0.1473(11) 0.1297(9)
H132 H 0.2334 0.1791 0.0765
loop_
_geom_bond_atom_site_label_1
_geom_bond_atom_site_label_2
_geom_bond_site_symmetry_1
_geom_bond_site_symmetry_2
Ni1 O1 1_555 1_555
Ni2 O4 1_555 1_555
Ni3 O9 1_555 1_555
Ni4 O12 1_555 1_555
O1 C1 1_555 1_555
O2 Ni1 1_555 1_555
O3 C35 1_555 1_555
O4 C35 1_555 1_555
O5 C42 1_555 1_555
O6 C42 1_555 1_555
O7 Ni2 1_555 1_555
O8 Ni2 1_555 1_555
O9 C55 1_555 1_555
O10 Ni3 1_555 1_555
O11 C89 1_555 1_555
O12 C89 1_555 1_555
O13 C96 1_555 1_555
O14 C96 1_555 1_555
O15 Ni4 1_555 1_555
O16 Ni4 1_555 1_555
O17 C109 1_555 1_555
O18 C110 1_555 1_555
N1 Ni1 1_555 1_555
N2 Ni1 1_555 1_555
N3 Ni2 1_555 1_555
N4 Ni2 1_555 1_555
N5 Ni3 1_555 1_555
N6 Ni3 1_555 1_555
N7 Ni4 1_555 1_555
N8 Ni4 1_555 1_555
C1 C2 1_555 1_555
C2 C3 1_555 1_555
C3 H1 1_555 1_555
C4 C3 1_555 1_555
C5 C4 1_555 1_555
H2 C5 1_555 1_555
C6 C1 1_555 1_555
C7 N1 1_555 1_555
H3 C7 1_555 1_555
C8 N1 1_555 1_555
H4 C8 1_555 1_555
C9 C8 1_555 1_555
H5 C9 1_555 1_555
H6 C9 1_555 1_555
C10 C9 1_555 1_555
H7 C10 1_555 1_555
H8 C10 1_555 1_555
C11 C10 1_555 1_555
H9 C11 1_555 1_555
H10 C11 1_555 1_555
C12 C11 1_555 1_555
H11 C12 1_555 1_555
H12 C12 1_555 1_555
C13 N2 1_555 1_555
H13 C13 1_555 1_555
C14 N2 1_555 1_555
H14 C14 1_555 1_555
C15 C14 1_555 1_555
C16 C15 1_555 1_555
H15 C16 1_555 1_555
C17 C16 1_555 1_555
C18 C17 1_555 1_555
H16 C18 1_555 1_555
C19 C18 1_555 1_555
C20 O2 1_555 1_555
C21 C2 1_555 1_555
C22 C21 1_555 1_555
H17 C22 1_555 1_555
H18 C22 1_555 1_555
H19 C22 1_555 1_555
C23 C21 1_555 1_555
H20 C23 1_555 1_555
H21 C23 1_555 1_555
H22 C23 1_555 1_555
C24 C21 1_555 1_555
H23 C24 1_555 1_555
H24 C24 1_555 1_555
H25 C24 1_555 1_555
C25 C19 1_555 1_555
C26 C25 1_555 1_555
H26 C26 1_555 1_555
H27 C26 1_555 1_555
H28 C26 1_555 1_555
C27 C25 1_555 1_555
H29 C27 1_555 1_555
H30 C27 1_555 1_555
H31 C27 1_555 1_555
C28 C25 1_555 1_555
H32 C28 1_555 1_555
H33 C28 1_555 1_555
H34 C28 1_555 1_555
C29 C4 1_555 1_555
C30 C29 1_555 1_555
H35 C30 1_555 1_555
C31 C30 1_555 1_555
H36 C31 1_555 1_555
C32 C31 1_555 1_555
C33 C32 1_555 1_555
H37 C33 1_555 1_555
C34 C29 1_555 1_555
H38 C34 1_555 1_555
C35 C32 1_555 1_555
C36 C17 1_555 1_555
C37 C36 1_555 1_555
H39 C37 1_555 1_555
C38 C37 1_555 1_555
H40 C38 1_555 1_555
C39 C38 1_555 1_555
C40 C39 1_555 1_555
H41 C40 1_555 1_555
C41 C36 1_555 1_555
H42 C41 1_555 1_555
C42 C39 1_555 1_555
C43 N3 1_555 1_555
H43 C43 1_555 1_555
C44 C43 1_555 1_555
H44 C44 1_555 1_555
C45 C44 1_555 1_555
H45 C45 1_555 1_555
C46 C45 1_555 1_555
H46 C46 1_555 1_555
C47 N3 1_555 1_555
H47 C47 1_555 1_555
C48 N4 1_555 1_555
H48 C48 1_555 1_555
C49 C48 1_555 1_555
H49 C49 1_555 1_555
C50 C49 1_555 1_555
H50 C50 1_555 1_555
C51 C50 1_555 1_555
H51 C51 1_555 1_555
C52 N4 1_555 1_555
H52 C52 1_555 1_555
C53 O7 1_555 1_555
H53 C53 1_555 1_555
H54 C53 1_555 1_555
H55 C53 1_555 1_555
C54 O8 1_555 1_555
H56 C54 1_555 1_555
H57 C54 1_555 1_555
H58 C54 1_555 1_555
C55 C56 1_555 1_555
C56 C57 1_555 1_555
C57 H59 1_555 1_555
C58 C57 1_555 1_555
C59 C58 1_555 1_555
H60 C59 1_555 1_555
C60 C55 1_555 1_555
C61 N5 1_555 1_555
H61 C61 1_555 1_555
C62 N5 1_555 1_555
H62 C62 1_555 1_555
C63 C62 1_555 1_555
H63 C63 1_555 1_555
H64 C63 1_555 1_555
C64 C63 1_555 1_555
H65 C64 1_555 1_555
H66 C64 1_555 1_555
C65 C64 1_555 1_555
H67 C65 1_555 1_555
H68 C65 1_555 1_555
C66 C65 1_555 1_555
H69 C66 1_555 1_555
H70 C66 1_555 1_555
C67 N6 1_555 1_555
H71 C67 1_555 1_555
C68 N6 1_555 1_555
H72 C68 1_555 1_555
C69 C68 1_555 1_555
C70 C69 1_555 1_555
H73 C70 1_555 1_555
C71 C70 1_555 1_555
C72 C71 1_555 1_555
H74 C72 1_555 1_555
C73 C72 1_555 1_555
C74 O10 1_555 1_555
C75 C56 1_555 1_555
C76 C75 1_555 1_555
H75 C76 1_555 1_555
H76 C76 1_555 1_555
H77 C76 1_555 1_555
C77 C75 1_555 1_555
H78 C77 1_555 1_555
H79 C77 1_555 1_555
H80 C77 1_555 1_555
C78 C75 1_555 1_555
H81 C78 1_555 1_555
H82 C78 1_555 1_555
H83 C78 1_555 1_555
C79 C73 1_555 1_555
C80 C79 1_555 1_555
H84 C80 1_555 1_555
H85 C80 1_555 1_555
H86 C80 1_555 1_555
C81 C79 1_555 1_555
H87 C81 1_555 1_555
H88 C81 1_555 1_555
H89 C81 1_555 1_555
C82 C79 1_555 1_555
H90 C82 1_555 1_555
H91 C82 1_555 1_555
H92 C82 1_555 1_555
C83 C58 1_555 1_555
C84 C83 1_555 1_555
H93 C84 1_555 1_555
C85 C84 1_555 1_555
H94 C85 1_555 1_555
C86 C85 1_555 1_555
C87 C86 1_555 1_555
H95 C87 1_555 1_555
C88 C83 1_555 1_555
H96 C88 1_555 1_555
C89 C86 1_555 1_555
C90 C71 1_555 1_555
C91 C90 1_555 1_555
H97 C91 1_555 1_555
C92 C91 1_555 1_555
H98 C92 1_555 1_555
C93 C92 1_555 1_555
C94 C93 1_555 1_555
H99 C94 1_555 1_555
C95 C90 1_555 1_555
H100 C95 1_555 1_555
C96 C93 1_555 1_555
C97 N7 1_555 1_555
H101 C97 1_555 1_555
C98 C97 1_555 1_555
H102 C98 1_555 1_555
C99 C98 1_555 1_555
H103 C99 1_555 1_555
C100 C99 1_555 1_555
H104 C100 1_555 1_555
C101 N7 1_555 1_555
H105 C101 1_555 1_555
C102 N8 1_555 1_555
H106 C102 1_555 1_555
C103 C102 1_555 1_555
H107 C103 1_555 1_555
C104 C103 1_555 1_555
H108 C104 1_555 1_555
C105 C104 1_555 1_555
H109 C105 1_555 1_555
C106 N8 1_555 1_555
H110 C106 1_555 1_555
C107 O15 1_555 1_555
H111 C107 1_555 1_555
H112 C107 1_555 1_555
H113 C107 1_555 1_555
C108 O16 1_555 1_555
H114 C108 1_555 1_555
H115 C108 1_555 1_555
H116 C108 1_555 1_555
C109 H117 1_555 1_555
H118 C109 1_555 1_555
H119 C109 1_555 1_555
C110 H120 1_555 1_555
H121 C110 1_555 1_555
H122 C110 1_555 1_555
N9 C111 1_555 1_555
C111 H123 1_555 1_555
C112 C111 1_555 1_555
H124 C112 1_555 1_555
C113 C112 1_555 1_555
H125 C113 1_555 1_555
C114 C113 1_555 1_555
H126 C114 1_555 1_555
C115 N9 1_555 1_555
H127 C115 1_555 1_555
N10 C116 1_555 1_555
C116 H128 1_555 1_555
C117 C116 1_555 1_555
H129 C117 1_555 1_555
C118 C117 1_555 1_555
H130 C118 1_555 1_555
C119 C118 1_555 1_555
H131 C119 1_555 1_555
C120 N10 1_555 1_555
H132 C120 1_555 1_555
Ni2_2 O6 1_555 1_555
Ni4_2 O14 1_555 1_555
O6_2 Ni2 1_555 1_555
O14_2 Ni4 1_555 1_555
C5 C6 1_555 1_555
C6 C7 1_555 1_555
C8 C13 1_555 1_555
C12 C13 1_555 1_555
C15 C20 1_555 1_555
C19 C20 1_555 1_555
C33 C34 1_555 1_555
C40 C41 1_555 1_555
C46 C47 1_555 1_555
C51 C52 1_555 1_555
C59 C60 1_555 1_555
C60 C61 1_555 1_555
C62 C67 1_555 1_555
C66 C67 1_555 1_555
C69 C74 1_555 1_555
C73 C74 1_555 1_555
C87 C88 1_555 1_555
C94 C95 1_555 1_555
C100 C101 1_555 1_555
C105 C106 1_555 1_555
C114 C115 1_555 1_555
C119 C120 1_555 1_555

#END
