
#######################################################################
#
#                 Cambridge Crystallographic Data Centre
#                                CCDC 
#
#######################################################################
#
# If this CIF has been generated from an entry in the Cambridge 
# Structural Database, then it will include bibliographic, chemical, 
# crystal, experimental, refinement or atomic coordinate data resulting 
# from the CCDC's data processing and validation procedures.
#
#######################################################################

data_VIFQAC
_symmetry_cell_setting           monoclinic
_symmetry_space_group_name_H-M   'P 21/c'
_symmetry_Int_Tables_number      14
_space_group_name_Hall           '-P 2ybc'
loop_
_symmetry_equiv_pos_site_id
_symmetry_equiv_pos_as_xyz
1 x,y,z
2 -x,1/2+y,1/2-z
3 -x,-y,-z
4 x,1/2-y,1/2+z
_cell_length_a                   9.321(2)
_cell_length_b                   18.141(4)
_cell_length_c                   12.783(3)
_cell_angle_alpha                90
_cell_angle_beta                 98.51(3)
_cell_angle_gamma                90
_cell_volume                     2137.71
loop_
_atom_site_label
_atom_site_type_symbol
_atom_site_fract_x
_atom_site_fract_y
_atom_site_fract_z
U1 U 0.1446(1) 0.1909(1) 0.2562(1)
Se1 Se 0.3176(2) 0.2787(1) 0.5099(1)
O1 O 0.251(1) 0.1182(5) 0.3136(7)
O2 O 0.038(1) 0.2653(5) 0.1984(7)
O3 O 0.359(1) 0.2710(6) 0.2633(7)
O4 O 0.181(1) 0.2523(6) 0.4203(7)
O5 O -0.054(1) 0.1596(7) 0.3437(8)
O6 O -0.005(1) 0.1066(5) 0.1470(7)
O7 O 0.247(1) 0.3259(5) 0.5999(6)
O8 O 0.421(1) 0.3330(6) 0.4530(7)
O9 O 0.400(1) 0.2088(6) 0.5659(7)
N1 N -0.181(1) 0.0385(6) 0.0596(8)
N2 N -0.220(2) 0.1405(8) 0.449(1)
C1 C -0.121(2) 0.1024(8) 0.084(1)
C2 C -0.187(2) 0.1729(8) 0.039(1)
C3 C -0.327(2) 0.0299(9) -0.004(1)
C4 C -0.325(2) 0.023(1) -0.119(1)
C5 C -0.110(2) -0.0291(8) 0.101(1)
C6 C -0.151(3) -0.051(1) 0.205(1)
C7 C -0.084(2) 0.1353(8) 0.431(1)
C8 C 0.031(2) 0.1036(9) 0.513(1)
C9 C -0.334(2) 0.171(1) 0.370(2)
C10 C -0.387(2) 0.117(1) 0.284(2)
C11 C -0.262(2) 0.127(1) 0.555(2)
C12 C -0.342(3) 0.062(2) 0.550(2)
H1 H -0.129 0.214 0.067
H2 H -0.190 0.171 -0.036
H3 H -0.284 0.179 0.055
H4 H -0.384 0.072 0.008
H5 H -0.373 -0.013 0.019
H6 H -0.269 -0.019 -0.132
H7 H -0.280 0.066 -0.144
H8 H -0.422 0.018 -0.157
H9 H -0.134 -0.069 0.051
H10 H -0.007 -0.022 0.110
H11 H -0.254 -0.059 0.197
H12 H -0.101 -0.095 0.231
H13 H -0.125 -0.012 0.256
H14 H 0.006 0.054 0.529
H15 H 0.122 0.104 0.486
H16 H 0.039 0.133 0.576
H17 H -0.414 0.187 0.403
H18 H -0.297 0.212 0.336
H19 H -0.425 0.075 0.318
H20 H -0.461 0.136 0.231
H21 H -0.306 0.101 0.251
H22 H 0.412 0.275 0.205
H23 H -0.370 0.053 0.618
H24 H -0.427 0.068 0.498
H25 H -0.285 0.022 0.531
O7C O 0.247(1) 0.1741(5) 0.0999(6)
U1C U 0.1446(1) 0.3091(1) 0.7562(1)
loop_
_geom_bond_atom_site_label_1
_geom_bond_atom_site_label_2
_geom_bond_site_symmetry_1
_geom_bond_site_symmetry_2
U1 O1 1_555 1_555
Se1 O4 1_555 1_555
O2 U1 1_555 1_555
O3 U1 1_555 1_555
O4 U1 1_555 1_555
O5 U1 1_555 1_555
O6 U1 1_555 1_555
O7 Se1 1_555 1_555
O8 Se1 1_555 1_555
O9 Se1 1_555 1_555
N1 C1 1_555 1_555
N2 C7 1_555 1_555
C1 O6 1_555 1_555
C2 C1 1_555 1_555
C3 N1 1_555 1_555
C4 C3 1_555 1_555
C5 N1 1_555 1_555
C6 C5 1_555 1_555
C7 O5 1_555 1_555
C8 C7 1_555 1_555
C9 N2 1_555 1_555
C10 C9 1_555 1_555
C11 N2 1_555 1_555
C12 C11 1_555 1_555
H1 C2 1_555 1_555
H2 C2 1_555 1_555
H3 C2 1_555 1_555
H4 C3 1_555 1_555
H5 C3 1_555 1_555
H6 C4 1_555 1_555
H7 C4 1_555 1_555
H8 C4 1_555 1_555
H9 C5 1_555 1_555
H10 C5 1_555 1_555
H11 C6 1_555 1_555
H12 C6 1_555 1_555
H13 C6 1_555 1_555
H14 C8 1_555 1_555
H15 C8 1_555 1_555
H16 C8 1_555 1_555
H17 C9 1_555 1_555
H18 C9 1_555 1_555
H19 C10 1_555 1_555
H20 C10 1_555 1_555
H21 C10 1_555 1_555
H22 O3 1_555 1_555
H23 C12 1_555 1_555
H24 C12 1_555 1_555
H25 C12 1_555 1_555
O7C U1 1_555 1_555
U1C O7 1_555 1_555

#END
