
#######################################################################
#
#                 Cambridge Crystallographic Data Centre
#                                CCDC 
#
#######################################################################
#
# If this CIF has been generated from an entry in the Cambridge 
# Structural Database, then it will include bibliographic, chemical, 
# crystal, experimental, refinement or atomic coordinate data resulting 
# from the CCDC's data processing and validation procedures.
#
#######################################################################

data_VIFQIM
_symmetry_cell_setting           monoclinic
_symmetry_space_group_name_H-M   'C 2/c'
_symmetry_Int_Tables_number      15
_space_group_name_Hall           '-C 2yn'
loop_
_symmetry_equiv_pos_site_id
_symmetry_equiv_pos_as_xyz
1 x,y,z
2 -x,y,1/2-z
3 1/2+x,1/2+y,z
4 1/2-x,1/2+y,1/2-z
5 -x,-y,-z
6 x,-y,1/2+z
7 1/2-x,1/2-y,-z
8 1/2+x,1/2-y,1/2+z
_cell_length_a                   22.109(3)
_cell_length_b                   8.2852(13)
_cell_length_c                   17.887(3)
_cell_angle_alpha                90
_cell_angle_beta                 104.826(2)
_cell_angle_gamma                90
_cell_volume                     3167.41
loop_
_atom_site_label
_atom_site_type_symbol
_atom_site_fract_x
_atom_site_fract_y
_atom_site_fract_z
Cd1 Cd 0.310140(13) 0.67494(3) 0.184468(15)
C1 C 0.3790(2) 0.1931(5) 0.2838(2)
H1 H 0.3688 0.0866 0.2917
C2 C 0.4362(2) 0.2643(6) 0.3096(2)
H2 H 0.4730 0.2167 0.3382
C3 C 0.42778(19) 0.4223(5) 0.2841(2)
H3 H 0.4591 0.5002 0.2937
C4 C 0.4640(3) 0.8339(7) 0.0811(4)
H4 H 0.5032 0.8747 0.0816
C5 C 0.4202(3) 0.7833(7) 0.0207(3)
H5 H 0.4234 0.7808 -0.0301
C6 C 0.37141(17) 0.7370(5) 0.0441(2)
H6 H 0.3346 0.6982 0.0115
C7 C 0.32949(17) 0.7496(4) 0.3372(2)
C8 C 0.34943(16) 0.7547(4) 0.42385(19)
C9 C 0.32259(16) 0.8546(4) 0.47019(19)
C10 C 0.34482(18) 0.8439(5) 0.5505(2)
H7 H 0.3271 0.9082 0.5819
C11 C 0.39256(18) 0.7394(5) 0.5837(2)
H8 H 0.4069 0.7342 0.6373
C12 C 0.41901(19) 0.6433(5) 0.5385(2)
H9 H 0.4514 0.5734 0.5613
C13 C 0.39762(19) 0.6502(5) 0.4588(2)
H10 H 0.4156 0.5843 0.4284
C14 C 0.27269(17) 0.9752(4) 0.43520(19)
N1 N 0.36930(14) 0.4482(4) 0.24428(17)
N2 N 0.34069(15) 0.3055(4) 0.24536(18)
H11 H 0.3018 0.2889 0.2235
N3 N 0.38076(15) 0.7520(4) 0.11955(19)
N4 N 0.4384(2) 0.8129(6) 0.1437(3)
H12 H 0.4569 0.8356 0.1909
O1 O 0.36485(13) 0.8065(3) 0.29945(15)
O2 O 0.28020(11) 0.6716(3) 0.30493(13)
O3 O 0.24494(14) 0.8839(4) 0.12705(17)
O4 O 0.24583(13) 1.0539(3) 0.47641(14)
O5 O 0.26184(13) 0.9934(3) 0.36269(13)
H13 H 0.237(2) 0.969(4) 0.152(2)
H14 H 0.253(2) 0.922(6) 0.0844(18)
Cd1C Cd 0.189860(13) 1.17494(3) 0.315532(15)
O5C O 0.23816(13) 0.4934(3) 0.13731(13)
loop_
_geom_bond_atom_site_label_1
_geom_bond_atom_site_label_2
_geom_bond_site_symmetry_1
_geom_bond_site_symmetry_2
Cd1 N1 1_555 1_555
C1 H1 1_555 1_555
C2 C1 1_555 1_555
H2 C2 1_555 1_555
C3 C2 1_555 1_555
H3 C3 1_555 1_555
C4 H4 1_555 1_555
C5 C4 1_555 1_555
H5 C5 1_555 1_555
C6 C5 1_555 1_555
H6 C6 1_555 1_555
C7 C8 1_555 1_555
C8 C9 1_555 1_555
C9 C10 1_555 1_555
C10 H7 1_555 1_555
C11 C10 1_555 1_555
H8 C11 1_555 1_555
C12 C11 1_555 1_555
H9 C12 1_555 1_555
C13 C8 1_555 1_555
H10 C13 1_555 1_555
C14 C9 1_555 1_555
N1 C3 1_555 1_555
N2 C1 1_555 1_555
H11 N2 1_555 1_555
N3 Cd1 1_555 1_555
N4 C4 1_555 1_555
H12 N4 1_555 1_555
O1 Cd1 1_555 1_555
O2 Cd1 1_555 1_555
O3 Cd1 1_555 1_555
O4 C14 1_555 1_555
O5 C14 1_555 1_555
H13 O3 1_555 1_555
H14 O3 1_555 1_555
Cd1C O5 1_555 1_555
O5C Cd1 1_555 1_555
C6 N3 1_555 1_555
C7 O1 1_555 1_555
C7 O2 1_555 1_555
C12 C13 1_555 1_555
N1 N2 1_555 1_555
N3 N4 1_555 1_555

#END
