
#######################################################################
#
#                 Cambridge Crystallographic Data Centre
#                                CCDC 
#
#######################################################################
#
# If this CIF has been generated from an entry in the Cambridge 
# Structural Database, then it will include bibliographic, chemical, 
# crystal, experimental, refinement or atomic coordinate data resulting 
# from the CCDC's data processing and validation procedures.
#
#######################################################################

data_VIFRAE
_symmetry_cell_setting           orthorhombic
_symmetry_space_group_name_H-M   'P c c n'
_symmetry_Int_Tables_number      56
_space_group_name_Hall           '-P 2ab 2ac'
loop_
_symmetry_equiv_pos_site_id
_symmetry_equiv_pos_as_xyz
1 x,y,z
2 1/2-x,1/2-y,z
3 -x,1/2+y,1/2-z
4 1/2+x,-y,1/2-z
5 -x,-y,-z
6 1/2+x,1/2+y,-z
7 x,1/2-y,1/2+z
8 1/2-x,y,1/2+z
_cell_length_a                   10.447(3)
_cell_length_b                   32.718(8)
_cell_length_c                   8.701(2)
_cell_angle_alpha                90
_cell_angle_beta                 90
_cell_angle_gamma                90
_cell_volume                     2974.04
loop_
_atom_site_label
_atom_site_type_symbol
_atom_site_fract_x
_atom_site_fract_y
_atom_site_fract_z
Pb1 Pb 1.123440(14) 0.368680(4) 0.907190(16)
Pb2 Pb 1.2500 0.2500 0.61350(2)
O1 O 0.9351(3) 0.33695(9) 0.8014(4)
O2 O 1.1001(3) 0.30396(10) 0.7116(4)
O3 O 1.0795(4) 0.18571(9) 0.6188(3)
O4 O 1.1450(3) 0.21500(11) 0.8315(4)
O5 O 1.2498(3) 0.40609(12) 1.1419(4)
O6 O 1.4307(3) 0.42720(10) 1.2417(4)
N1 N 0.9452(3) 0.40627(9) 1.0365(4)
C1 C 0.9825(4) 0.30753(12) 0.7284(5)
C2 C 0.8954(5) 0.27664(16) 0.6581(8)
H1 H 0.8787 0.2553 0.7311
H2 H 0.8163 0.2895 0.6297
H3 H 0.9351 0.2652 0.5684
C3 C 1.0861(4) 0.18665(13) 0.7624(5)
C4 C 1.0214(5) 0.15386(15) 0.8556(6)
H4 H 0.9302 0.1570 0.8480
H5 H 1.0470 0.1562 0.9612
H6 H 1.0457 0.1275 0.8170
C5 C 1.3480(4) 0.42705(12) 1.1366(5)
C6 C 1.3708(5) 0.45437(15) 1.0003(6)
H7 H 1.3148 0.4465 0.9180
H8 H 1.4582 0.4518 0.9674
H9 H 1.3541 0.4822 1.0286
C7 C 0.8294(4) 0.39003(14) 1.0632(6)
H10 H 0.8134 0.3635 1.0294
C8 C 0.7342(5) 0.41050(16) 1.1375(6)
H11 H 0.6552 0.3982 1.1545
C9 C 0.7575(5) 0.45015(15) 1.1873(6)
H12 H 0.6946 0.4647 1.2396
C10 C 0.8735(5) 0.46737(15) 1.1587(6)
H13 H 0.8903 0.4941 1.1894
C11 C 0.9657(4) 0.44504(13) 1.0839(5)
H14 H 1.0449 0.4570 1.0653
Pb1A Pb 1.376560(14) 0.131320(4) 0.907190(16)
Pb1F Pb 1.123440(14) 0.131320(4) 0.407190(16)
Pb1G Pb 1.376560(14) 0.368680(4) 1.407190(16)
Pb1G_2 Pb 1.376560(14) 0.368680(4) 0.407190(16)
O1A O 1.5649(3) 0.16305(9) 0.8014(4)
O2A O 1.3999(3) 0.19604(10) 0.7116(4)
O3A O 1.4205(4) 0.31429(9) 0.6188(3)
O3F O 1.0795(4) 0.31429(9) 1.1188(3)
O3G O 1.4205(4) 0.18571(9) 1.1188(3)
O4A O 1.3550(3) 0.28500(11) 0.8315(4)
O5G O 1.2502(3) 0.40609(12) 0.6419(4)
O5A O 1.2502(3) 0.09391(12) 1.1419(4)
O6G O 1.0693(3) 0.42720(10) 0.7417(4)
O6F O 1.4307(3) 0.07280(10) 0.7417(4)
N1A N 1.5548(3) 0.09373(9) 1.0365(4)
C1A C 1.5175(4) 0.19247(12) 0.7284(5)
C2A C 1.6046(5) 0.22336(16) 0.6581(8)
H1A H 1.6213 0.2447 0.7311
H2A H 1.6837 0.2105 0.6297
H3A H 1.5649 0.2348 0.5684
C3A C 1.4139(4) 0.31335(13) 0.7624(5)
C4A C 1.4786(5) 0.34614(15) 0.8556(6)
H4A H 1.5698 0.3430 0.8480
H5A H 1.4530 0.3438 0.9612
H6A H 1.4543 0.3725 0.8170
C5G C 1.1520(4) 0.42705(12) 0.6366(5)
C6G C 1.1292(5) 0.45437(15) 0.5003(6)
H7G H 1.1852 0.4465 0.4180
H8G H 1.0418 0.4518 0.4674
H9G H 1.1459 0.4822 0.5286
C7A C 1.6706(4) 0.10997(14) 1.0632(6)
H10A H 1.6866 0.1365 1.0294
C8A C 1.7658(5) 0.08950(16) 1.1375(6)
H11A H 1.8448 0.1018 1.1545
C9A C 1.7425(5) 0.04985(15) 1.1873(6)
H12A H 1.8054 0.0353 1.2396
C10A C 1.6265(5) 0.03263(15) 1.1587(6)
H13A H 1.6097 0.0059 1.1894
C11A C 1.5343(4) 0.05496(13) 1.0839(5)
H14A H 1.4551 0.0430 1.0653
loop_
_geom_bond_atom_site_label_1
_geom_bond_atom_site_label_2
_geom_bond_site_symmetry_1
_geom_bond_site_symmetry_2
Pb1 O1 1_555 1_555
Pb2 O2 1_555 1_555
O1 C1 1_555 1_555
O2 Pb1 1_555 1_555
O3 Pb2 1_555 1_555
O4 Pb2 1_555 1_555
O5 Pb1 1_555 1_555
O6 C5 1_555 1_555
N1 Pb1 1_555 1_555
C1 O2 1_555 1_555
C2 C1 1_555 1_555
H1 C2 1_555 1_555
H2 C2 1_555 1_555
H3 C2 1_555 1_555
C3 O3 1_555 1_555
C4 C3 1_555 1_555
H4 C4 1_555 1_555
H5 C4 1_555 1_555
H6 C4 1_555 1_555
C5 O5 1_555 1_555
C6 C5 1_555 1_555
H7 C6 1_555 1_555
H8 C6 1_555 1_555
H9 C6 1_555 1_555
C7 N1 1_555 1_555
H10 C7 1_555 1_555
C8 C7 1_555 1_555
H11 C8 1_555 1_555
C9 C8 1_555 1_555
H12 C9 1_555 1_555
C10 C9 1_555 1_555
H13 C10 1_555 1_555
C11 N1 1_555 1_555
H14 C11 1_555 1_555
Pb1A O1A 1_555 1_555
Pb1F O3 1_555 1_555
Pb1G O6 1_555 1_555
Pb1G_2 O3A 1_555 1_555
O1A C1A 1_555 1_555
O2A Pb2 1_555 1_555
O3A Pb2 1_555 1_555
O3F Pb1 1_555 1_555
O3G Pb1A 1_555 1_555
O4A Pb2 1_555 1_555
O5G Pb1G_2 1_555 1_555
O5A Pb1A 1_555 1_555
O6G Pb1 1_555 1_555
O6F Pb1A 1_555 1_555
N1A Pb1A 1_555 1_555
C1A O2A 1_555 1_555
C2A C1A 1_555 1_555
H1A C2A 1_555 1_555
H2A C2A 1_555 1_555
H3A C2A 1_555 1_555
C3A O3A 1_555 1_555
C4A C3A 1_555 1_555
H4A C4A 1_555 1_555
H5A C4A 1_555 1_555
H6A C4A 1_555 1_555
C5G O5G 1_555 1_555
C6G C5G 1_555 1_555
H7G C6G 1_555 1_555
H8G C6G 1_555 1_555
H9G C6G 1_555 1_555
C7A N1A 1_555 1_555
H10A C7A 1_555 1_555
C8A C7A 1_555 1_555
H11A C8A 1_555 1_555
C9A C8A 1_555 1_555
H12A C9A 1_555 1_555
C10A C9A 1_555 1_555
H13A C10A 1_555 1_555
C11A N1A 1_555 1_555
H14A C11A 1_555 1_555
O4 C3 1_555 1_555
C10 C11 1_555 1_555
Pb1A O2A 1_555 1_555
O4A C3A 1_555 1_555
O6G C5G 1_555 1_555
C10A C11A 1_555 1_555

#END
