
#######################################################################
#
#                 Cambridge Crystallographic Data Centre
#                                CCDC 
#
#######################################################################
#
# If this CIF has been generated from an entry in the Cambridge 
# Structural Database, then it will include bibliographic, chemical, 
# crystal, experimental, refinement or atomic coordinate data resulting 
# from the CCDC's data processing and validation procedures.
#
#######################################################################

data_VIFSIO
_symmetry_cell_setting           monoclinic
_symmetry_space_group_name_H-M   'P 2/c'
_symmetry_Int_Tables_number      13
_space_group_name_Hall           '-P 2yc'
loop_
_symmetry_equiv_pos_site_id
_symmetry_equiv_pos_as_xyz
1 x,y,z
2 -x,y,1/2-z
3 -x,-y,-z
4 x,-y,1/2+z
_cell_length_a                   9.2407(14)
_cell_length_b                   15.876(2)
_cell_length_c                   15.9418(18)
_cell_angle_alpha                90
_cell_angle_beta                 110.773(7)
_cell_angle_gamma                90
_cell_volume                     2186.71
loop_
_atom_site_label
_atom_site_type_symbol
_atom_site_fract_x
_atom_site_fract_y
_atom_site_fract_z
O1 O 0.4024(13) 0.9784(11) 0.6658(10)
H1 H 0.3519 0.9327 0.6601
H2 H 0.3536 1.0179 0.6802
Co1 Co 0.0000 0.57187(6) 0.2500
Co2 Co 1.0000 0.01892(6) 0.7500
O2 O -0.1093(6) 0.9138(3) 0.6579(3)
O3 O 0.0995(6) 0.9746(3) 0.6582(3)
O4 O -0.0835(11) 0.5551(8) 0.4022(15)
O5 O -0.028(2) 0.6594(6) 0.3301(6)
O6 O 0.5000 0.4380(3) 0.7500
N1 N 0.1704(6) 0.4907(3) 0.3211(3)
N2 N 0.3341(6) 0.4161(3) 0.4296(3)
N3 N 0.6657(6) 0.2016(3) 0.6149(3)
N4 N 0.8325(6) 0.0994(3) 0.6695(3)
C1 C -0.0011(9) 0.9185(4) 0.6289(5)
C2 C 0.0083(9) 0.8557(4) 0.5601(5)
H3 H 0.0673 0.8818 0.5267
C3 C 0.0902(11) 0.7778(5) 0.6019(6)
H4 H 0.0369 0.7526 0.6382
H5 H 0.1941 0.7922 0.6413
C4 C 0.1001(11) 0.7131(5) 0.5327(6)
H6 H 0.1666 0.7347 0.5023
H7 H 0.1459 0.6614 0.5632
C5 C -0.0577(9) 0.6942(5) 0.4644(5)
H8 H -0.1184 0.6667 0.4961
C6 C -0.1399(11) 0.7733(5) 0.4240(5)
H9 H -0.2437 0.7596 0.3840
H10 H -0.0860 0.7997 0.3885
C7 C -0.1498(10) 0.8358(6) 0.4946(5)
H11 H -0.1992 0.8872 0.4654
H12 H -0.2125 0.8120 0.5263
C8 C -0.0488(12) 0.6339(6) 0.3928(7)
C9 C 0.2292(7) 0.4776(4) 0.4078(4)
H13 H 0.2010 0.5078 0.4496
C10 C 0.3439(10) 0.3923(5) 0.3508(5)
H14 H 0.4110 0.3516 0.3438
C11 C 0.2439(10) 0.4356(5) 0.2847(5)
H15 H 0.2269 0.4294 0.2239
C12 C 0.4215(7) 0.3847(4) 0.5168(4)
C13 C 0.4193(7) 0.4266(4) 0.5923(4)
H16 H 0.3625 0.4759 0.5870
C14 C 0.5029(7) 0.3938(4) 0.6761(4)
C15 C 0.5891(7) 0.3206(4) 0.6843(4)
H17 H 0.6467 0.2993 0.7406
C16 C 0.5877(7) 0.2803(4) 0.6081(4)
C17 C 0.5044(7) 0.3117(4) 0.5233(4)
H18 H 0.5048 0.2839 0.4720
C18 C 0.6200(9) 0.1353(4) 0.5569(5)
H19 H 0.5340 0.1336 0.5042
C19 C 0.7212(9) 0.0739(4) 0.5899(5)
H20 H 0.7177 0.0214 0.5634
C20 C 0.7939(7) 0.1763(4) 0.6813(4)
H21 H 0.8489 0.2096 0.7301
N1A N 0.8296(6) 0.4907(3) 1.1789(3)
N2A N 0.6659(6) 0.4161(3) 1.0704(3)
N3A N 0.3343(6) 0.2016(3) 0.8851(3)
N4A N 0.1675(6) 0.0994(3) 0.8305(3)
C9A C 0.7708(7) 0.4776(4) 1.0922(4)
H13A H 0.7990 0.5078 1.0504
C10A C 0.6561(10) 0.3923(5) 1.1492(5)
H14A H 0.5890 0.3516 1.1562
C11A C 0.7561(10) 0.4356(5) 1.2153(5)
H15A H 0.7731 0.4294 1.2761
C12A C 0.5785(7) 0.3847(4) 0.9832(4)
C13A C 0.5807(7) 0.4266(4) 0.9077(4)
H16A H 0.6375 0.4759 0.9130
C14A C 0.4971(7) 0.3938(4) 0.8239(4)
C15A C 0.4109(7) 0.3206(4) 0.8157(4)
H17A H 0.3533 0.2993 0.7594
C16A C 0.4123(7) 0.2803(4) 0.8919(4)
C17A C 0.4956(7) 0.3117(4) 0.9767(4)
H18A H 0.4952 0.2839 1.0280
C18A C 0.3800(9) 0.1353(4) 0.9431(5)
H19A H 0.4660 0.1336 0.9958
C19A C 0.2788(9) 0.0739(4) 0.9101(5)
H20A H 0.2823 0.0214 0.9366
C20A C 0.2061(7) 0.1763(4) 0.8187(4)
H21A H 0.1511 0.2096 0.7699
O2A O 0.1093(6) 0.9138(3) -0.1579(3)
O3A O -0.0995(6) 0.9746(3) -0.1582(3)
O4A O 0.0835(11) 0.5551(8) 0.0978(15)
O5A O 0.028(2) 0.6594(6) 0.1699(6)
C1A C 0.0011(9) 0.9185(4) -0.1289(5)
C2A C -0.0083(9) 0.8557(4) -0.0601(5)
H3A H -0.0673 0.8818 -0.0267
C3A C -0.0902(11) 0.7778(5) -0.1019(6)
H4A H -0.0369 0.7526 -0.1382
H5A H -0.1941 0.7922 -0.1413
C4A C -0.1001(11) 0.7131(5) -0.0327(6)
H6A H -0.1666 0.7347 -0.0023
H7A H -0.1459 0.6614 -0.0632
C5A C 0.0577(9) 0.6942(5) 0.0356(5)
H8A H 0.1184 0.6667 0.0039
C6A C 0.1399(11) 0.7733(5) 0.0760(5)
H9A H 0.2437 0.7596 0.1160
H10A H 0.0860 0.7997 0.1115
C7A C 0.1498(10) 0.8358(6) 0.0054(5)
H11A H 0.1992 0.8872 0.0346
H12A H 0.2125 0.8120 -0.0263
C8A C 0.0488(12) 0.6339(6) 0.1072(7)
Co1_2 Co 1.0000 0.57187(6) 1.2500
Co2_2 Co 0.0000 0.01892(6) 0.7500
Co2_3 Co 0.0000 1.01892(6) -0.2500
Co2_4 Co 0.0000 1.01892(6) 0.7500
O2_2 O 0.8907(6) -0.0862(3) 0.6579(3)
O2A_2 O 1.1093(6) -0.0862(3) 0.8421(3)
O3_2 O 1.0995(6) -0.0254(3) 0.6582(3)
O3A_2 O 0.9005(6) -0.0254(3) 0.8418(3)
N1A_2 N -0.1704(6) 0.4907(3) 0.1789(3)
N4A_2 N 1.1675(6) 0.0994(3) 0.8305(3)
O7 O 0.3811(8) 0.1634(5) 0.3455(4)
H22 H 0.3888 0.1151 0.3698
H23 H 0.2864 0.1742 0.3165
O8? O 0.088(7) 0.6628(16) 0.361(3)
O9? O -0.106(3) 0.590(2) 0.348(2)
O10? O 0.5000 0.7280(12) 0.7500
H24? H 0.5582 0.7540 0.7277
H25? H 0.4722 0.7614 0.7831
loop_
_geom_bond_atom_site_label_1
_geom_bond_atom_site_label_2
_geom_bond_site_symmetry_1
_geom_bond_site_symmetry_2
O1 H1 1_555 1_555
H2 O1 1_555 1_555
Co1 O5 1_555 1_555
Co2 N4 1_555 1_555
O2 C1 1_555 1_555
O3 C1 1_555 1_555
O4 C8 1_555 1_555
O5 C8 1_555 1_555
O6 C14 1_555 1_555
N1 Co1 1_555 1_555
N2 C9 1_555 1_555
N3 C16 1_555 1_555
N4 C19 1_555 1_555
C1 C2 1_555 1_555
C2 H3 1_555 1_555
C3 C2 1_555 1_555
H4 C3 1_555 1_555
H5 C3 1_555 1_555
C4 C3 1_555 1_555
H6 C4 1_555 1_555
H7 C4 1_555 1_555
C5 C4 1_555 1_555
H8 C5 1_555 1_555
C6 C5 1_555 1_555
H9 C6 1_555 1_555
H10 C6 1_555 1_555
C7 C2 1_555 1_555
H11 C7 1_555 1_555
H12 C7 1_555 1_555
C8 C5 1_555 1_555
C9 N1 1_555 1_555
H13 C9 1_555 1_555
C10 N2 1_555 1_555
H14 C10 1_555 1_555
C11 N1 1_555 1_555
H15 C11 1_555 1_555
C12 N2 1_555 1_555
C13 C12 1_555 1_555
H16 C13 1_555 1_555
C14 C13 1_555 1_555
C15 C14 1_555 1_555
H17 C15 1_555 1_555
C16 C15 1_555 1_555
C17 C12 1_555 1_555
H18 C17 1_555 1_555
C18 N3 1_555 1_555
H19 C18 1_555 1_555
C19 C18 1_555 1_555
H20 C19 1_555 1_555
C20 N3 1_555 1_555
H21 C20 1_555 1_555
O7 H22 1_555 1_555
H23 O7 1_555 1_555
N1A C9A 1_555 1_555
N2A C9A 1_555 1_555
N3A C16A 1_555 1_555
N4A C19A 1_555 1_555
C9A H13A 1_555 1_555
C10A N2A 1_555 1_555
H14A C10A 1_555 1_555
C11A N1A 1_555 1_555
H15A C11A 1_555 1_555
C12A N2A 1_555 1_555
C13A C12A 1_555 1_555
H16A C13A 1_555 1_555
C14A O6 1_555 1_555
C15A C14A 1_555 1_555
H17A C15A 1_555 1_555
C16A C15A 1_555 1_555
C17A C12A 1_555 1_555
H18A C17A 1_555 1_555
C18A N3A 1_555 1_555
H19A C18A 1_555 1_555
C19A C18A 1_555 1_555
H20A C19A 1_555 1_555
C20A N3A 1_555 1_555
H21A C20A 1_555 1_555
O2A C1A 1_555 1_555
O3A C1A 1_555 1_555
O4A C8A 1_555 1_555
O5A Co1 1_555 1_555
C1A C2A 1_555 1_555
C2A H3A 1_555 1_555
C3A C2A 1_555 1_555
H4A C3A 1_555 1_555
H5A C3A 1_555 1_555
C4A C3A 1_555 1_555
H6A C4A 1_555 1_555
H7A C4A 1_555 1_555
C5A C4A 1_555 1_555
H8A C5A 1_555 1_555
C6A C5A 1_555 1_555
H9A C6A 1_555 1_555
H10A C6A 1_555 1_555
C7A C2A 1_555 1_555
H11A C7A 1_555 1_555
H12A C7A 1_555 1_555
C8A O5A 1_555 1_555
Co1_2 N1A 1_555 1_555
Co2_2 N4A 1_555 1_555
Co2_3 O2A 1_555 1_555
Co2_4 O2 1_555 1_555
O2_2 Co2 1_555 1_555
O2A_2 Co2 1_555 1_555
O3_2 Co2 1_555 1_555
O3A_2 Co2 1_555 1_555
N1A_2 Co1 1_555 1_555
N4A_2 Co2 1_555 1_555
O3 Co2_4 1_555 1_555
N4 C20 1_555 1_555
C6 C7 1_555 1_555
C10 C11 1_555 1_555
C16 C17 1_555 1_555
N4A C20A 1_555 1_555
C10A C11A 1_555 1_555
C13A C14A 1_555 1_555
C16A C17A 1_555 1_555
O3A Co2_3 1_555 1_555
C5A C8A 1_555 1_555
C6A C7A 1_555 1_555

#END
