
#######################################################################
#
#                 Cambridge Crystallographic Data Centre
#                                CCDC 
#
#######################################################################
#
# If this CIF has been generated from an entry in the Cambridge 
# Structural Database, then it will include bibliographic, chemical, 
# crystal, experimental, refinement or atomic coordinate data resulting 
# from the CCDC's data processing and validation procedures.
#
#######################################################################

data_VIGCET
_symmetry_cell_setting           monoclinic
_symmetry_space_group_name_H-M   'P 21/c'
_symmetry_Int_Tables_number      14
_space_group_name_Hall           '-P 2ybc'
loop_
_symmetry_equiv_pos_site_id
_symmetry_equiv_pos_as_xyz
1 x,y,z
2 -x,1/2+y,1/2-z
3 -x,-y,-z
4 x,1/2-y,1/2+z
_cell_length_a                   12.873(4)
_cell_length_b                   7.134(1)
_cell_length_c                   19.446(7)
_cell_angle_alpha                90
_cell_angle_beta                 111.29(3)
_cell_angle_gamma                90
_cell_volume                     1663.97
loop_
_atom_site_label
_atom_site_type_symbol
_atom_site_fract_x
_atom_site_fract_y
_atom_site_fract_z
Bi1 Bi 0.3673(1) 0.1008(1) 0.2196(1)
Cl1 Cl 0.1839(3) -0.0499(4) 0.1367(2)
Cl2 Cl 0.4805(3) -0.1595(4) 0.1674(2)
Cl3 Cl 0.3907(3) -0.1314(4) 0.3211(2)
Cl4 Cl 0.0214(3) 0.8176(6) 0.4557(2)
N1 N 0.2250(8) 0.5126(13) 0.1997(5)
N2 N 0.2724(8) 0.4192(12) 0.1573(4)
O1 O 0.3564(7) 0.2257(12) 0.0706(4)
O2 O 0.2476(7) 0.2604(11) 0.2724(4)
C1 C 0.4006(12) 0.1686(1) 0.0193(7)
C2 C 0.3950(11) 0.3030(23) -0.0283(6)
C3 C 0.3453(12) 0.4633(18) -0.0079(6)
C4 C 0.3220(10) 0.4075(17) 0.0522(6)
C5 C 0.2746(10) 0.4993(15) 0.0985(6)
C6 C 0.2135(9) 0.4244(15) 0.2570(6)
C7 C 0.1629(10) 0.5274(19) 0.3034(6)
C8 C 0.1558(12) 0.4328(16) 0.3640(7)
C9 C 0.1086(13) 0.5242(24) 0.4099(7)
C10 C 0.0749(11) 0.7005(20) 0.3969(7)
C11 C 0.0796(12) 0.7938(20) 0.3358(8)
C12 C 0.1232(11) 0.7081(20) 0.2897(7)
H1 H 0.2006 0.6385 0.1886
H2 H 0.4312 0.0478 0.0184
H3 H 0.4194 0.2953 -0.0688
H4 H 0.3316 0.5826 -0.0311
H5 H 0.2441 0.6214 0.0859
H6 H 0.1825 0.3079 0.3743
H7 H 0.1008 0.4590 0.4503
H8 H 0.0524 0.9185 0.3259
H9 H 0.1263 0.7734 0.2479
Cl2A Cl 0.5195(3) 0.3405(4) 0.3326(2)
Bi1A Bi 0.6327(1) -0.3992(1) 0.2804(1)
Bi1A_2 Bi 0.6327(1) 0.6008(1) 0.2804(1)
Cl1A Cl 0.8161(3) -0.5499(4) 0.3633(2)
Cl2A_2 Cl 0.5195(3) -0.6595(4) 0.3326(2)
Cl3A Cl 0.6093(3) -0.6314(4) 0.1789(2)
N2A N 0.7276(8) -0.0808(12) 0.3427(4)
O1A O 0.6436(7) -0.2743(12) 0.4294(4)
O2A O 0.7524(7) -0.2396(11) 0.2276(4)
N1A N 0.7750(8) 0.0126(13) 0.3003(5)
C5A C 0.7254(10) -0.0007(15) 0.4015(6)
C1A C 0.5994(12) -0.3314(1) 0.4807(7)
C4A C 0.6780(10) -0.0925(17) 0.4478(6)
C6A C 0.7865(9) -0.0756(15) 0.2430(6)
H1A H 0.7994 0.1385 0.3114
H5A H 0.7559 0.1214 0.4141
C2A C 0.6050(11) -0.1970(23) 0.5283(6)
H2A H 0.5688 -0.4522 0.4816
C3A C 0.6547(12) -0.0367(18) 0.5079(6)
C7A C 0.8371(10) 0.0274(19) 0.1966(6)
H3A H 0.5806 -0.2047 0.5688
H4A H 0.6684 0.0826 0.5311
C8A C 0.8442(12) -0.0672(16) 0.1360(7)
C12A C 0.8768(11) 0.2081(20) 0.2103(7)
C9A C 0.8914(13) 0.0242(24) 0.0901(7)
H6A H 0.8175 -0.1921 0.1257
C11A C 0.9204(12) 0.2938(20) 0.1642(8)
H9A H 0.8737 0.2734 0.2521
C10A C 0.9251(11) 0.2005(20) 0.1031(7)
H7A H 0.8992 -0.0410 0.0497
H8A H 0.9476 0.4185 0.1741
Cl4A Cl 0.9786(3) 0.3176(6) 0.0443(2)
loop_
_geom_bond_atom_site_label_1
_geom_bond_atom_site_label_2
_geom_bond_site_symmetry_1
_geom_bond_site_symmetry_2
Bi1 Cl1 1_555 1_555
Cl2 Bi1 1_555 1_555
Cl3 Bi1 1_555 1_555
Cl4 C10 1_555 1_555
N1 N2 1_555 1_555
N2 Bi1 1_555 1_555
O1 Bi1 1_555 1_555
O2 Bi1 1_555 1_555
C1 O1 1_555 1_555
C2 C1 1_555 1_555
C3 C2 1_555 1_555
C4 O1 1_555 1_555
C5 N2 1_555 1_555
C6 N1 1_555 1_555
C7 C6 1_555 1_555
C8 C7 1_555 1_555
C9 C8 1_555 1_555
C10 C9 1_555 1_555
C11 C10 1_555 1_555
C12 C7 1_555 1_555
H1 N1 1_555 1_555
H2 C1 1_555 1_555
H3 C2 1_555 1_555
H4 C3 1_555 1_555
H5 C5 1_555 1_555
H6 C8 1_555 1_555
H7 C9 1_555 1_555
H8 C11 1_555 1_555
H9 C12 1_555 1_555
Cl2A Bi1 1_555 1_555
Bi1A Cl2 1_555 1_555
Bi1A_2 Cl2A 1_555 1_555
Cl1A Bi1A 1_555 1_555
Cl2A_2 Bi1A 1_555 1_555
Cl3A Bi1A 1_555 1_555
N2A Bi1A 1_555 1_555
O1A Bi1A 1_555 1_555
O2A Bi1A 1_555 1_555
N1A N2A 1_555 1_555
C5A N2A 1_555 1_555
C1A O1A 1_555 1_555
C4A O1A 1_555 1_555
C6A O2A 1_555 1_555
H1A N1A 1_555 1_555
H5A C5A 1_555 1_555
C2A C1A 1_555 1_555
H2A C1A 1_555 1_555
C3A C4A 1_555 1_555
C7A C6A 1_555 1_555
H3A C2A 1_555 1_555
H4A C3A 1_555 1_555
C8A C7A 1_555 1_555
C12A C7A 1_555 1_555
C9A C8A 1_555 1_555
H6A C8A 1_555 1_555
C11A C12A 1_555 1_555
H9A C12A 1_555 1_555
C10A C9A 1_555 1_555
H7A C9A 1_555 1_555
H8A C11A 1_555 1_555
Cl4A C10A 1_555 1_555
O2 C6 1_555 1_555
C3 C4 1_555 1_555
C4 C5 1_555 1_555
C11 C12 1_555 1_555
N1A C6A 1_555 1_555
C5A C4A 1_555 1_555
C2A C3A 1_555 1_555
C11A C10A 1_555 1_555

#END
