
#######################################################################
#
#                 Cambridge Crystallographic Data Centre
#                                CCDC 
#
#######################################################################
#
# If this CIF has been generated from an entry in the Cambridge 
# Structural Database, then it will include bibliographic, chemical, 
# crystal, experimental, refinement or atomic coordinate data resulting 
# from the CCDC's data processing and validation procedures.
#
#######################################################################

data_VIGCAR
_symmetry_cell_setting           monoclinic
_symmetry_space_group_name_H-M   'C c'
_symmetry_Int_Tables_number      9
_space_group_name_Hall           'C -2yc'
loop_
_symmetry_equiv_pos_site_id
_symmetry_equiv_pos_as_xyz
1 x,y,z
2 x,-y,1/2+z
3 1/2+x,1/2+y,z
4 1/2+x,1/2-y,1/2+z
_cell_length_a                   13.190(3)
_cell_length_b                   5.2554(11)
_cell_length_c                   10.275(2)
_cell_angle_alpha                90
_cell_angle_beta                 107.22(3)
_cell_angle_gamma                90
_cell_volume                     680.323
loop_
_atom_site_label
_atom_site_type_symbol
_atom_site_fract_x
_atom_site_fract_y
_atom_site_fract_z
Co1 Co 1.15919(3) 0.17702(14) 0.89477(3)
P1 P 1.13852(12) 0.6468(3) 1.07188(15)
O1 O 1.2143(3) 0.4784(9) 1.0248(4)
O2 O 1.1415(3) 0.6045(7) 1.2199(4)
O3 O 1.1435(3) 0.9276(7) 1.0424(4)
N1 N 1.0073(4) 0.3270(10) 0.8950(5)
N2 N 0.8163(4) 0.5392(9) 0.8998(5)
O4 O 1.0750(3) -0.1129(7) 0.7458(4)
H1 H 1.0886 -0.0801 0.6716
H2 H 1.0976 -0.2626 0.7689
C1 C 1.0068(5) 0.5323(12) 0.9717(6)
C2 C 0.9079(7) 0.6363(12) 0.9729(9)
H3 H 0.9074 0.7779 1.0270
C3 C 0.8202(5) 0.3342(13) 0.8240(7)
H4 H 0.7570 0.2629 0.7707
C4 C 0.9142(6) 0.2265(13) 0.8226(8)
H5 H 0.9136 0.0813 0.7706
Co1_2 Co 1.15919(3) 1.17702(14) 0.89477(3)
Co1A Co 1.15919(3) 0.82298(14) 1.39477(3)
Co1B Co 0.65919(3) 0.67702(14) 0.89477(3)
O2A O 1.1415(3) 0.3955(7) 0.7199(4)
O3_2 O 1.1435(3) -0.0724(7) 1.0424(4)
N2B N 1.3163(4) 0.0392(9) 0.8998(5)
loop_
_geom_bond_atom_site_label_1
_geom_bond_atom_site_label_2
_geom_bond_site_symmetry_1
_geom_bond_site_symmetry_2
Co1 O1 1_555 1_555
P1 O1 1_555 1_555
O2 P1 1_555 1_555
O3 P1 1_555 1_555
N1 Co1 1_555 1_555
N2 C2 1_555 1_555
O4 Co1 1_555 1_555
H1 O4 1_555 1_555
H2 O4 1_555 1_555
C1 P1 1_555 1_555
C2 C1 1_555 1_555
H3 C2 1_555 1_555
C3 N2 1_555 1_555
H4 C3 1_555 1_555
C4 N1 1_555 1_555
H5 C4 1_555 1_555
Co1_2 O3 1_555 1_555
Co1A O2 1_555 1_555
Co1B N2 1_555 1_555
O2A Co1 1_555 1_555
O3_2 Co1 1_555 1_555
N2B Co1 1_555 1_555
N1 C1 1_555 1_555
C3 C4 1_555 1_555

#END
