
#######################################################################
#
#                 Cambridge Crystallographic Data Centre
#                                CCDC 
#
#######################################################################
#
# If this CIF has been generated from an entry in the Cambridge 
# Structural Database, then it will include bibliographic, chemical, 
# crystal, experimental, refinement or atomic coordinate data resulting 
# from the CCDC's data processing and validation procedures.
#
#######################################################################

data_VIGDEW
_symmetry_cell_setting           monoclinic
_symmetry_space_group_name_H-M   'P 21/n'
_symmetry_Int_Tables_number      14
_space_group_name_Hall           '-P 2yn'
loop_
_symmetry_equiv_pos_site_id
_symmetry_equiv_pos_as_xyz
1 x,y,z
2 1/2-x,1/2+y,1/2-z
3 -x,-y,-z
4 1/2+x,1/2-y,1/2+z
_cell_length_a                   13.2966(14)
_cell_length_b                   18.2077(17)
_cell_length_c                   17.7183(15)
_cell_angle_alpha                90
_cell_angle_beta                 106.1850(10)
_cell_angle_gamma                90
_cell_volume                     4119.6
loop_
_atom_site_label
_atom_site_type_symbol
_atom_site_fract_x
_atom_site_fract_y
_atom_site_fract_z
Ag1 Ag 0.94505(8) 0.62375(5) 0.46338(5)
Ag2 Ag 0.41364(9) 0.62111(5) 0.93339(6)
N1 N 0.9110(7) 0.5474(4) 0.5453(4)
N2 N 0.5128(7) 0.5442(4) 0.8983(5)
N3 N 0.9825(7) 0.6973(4) 0.3817(5)
N4 N 1.3381(8) 0.6960(4) -0.0067(5)
O1 O 0.2750(10) 0.6398(6) 0.7987(6)
H1 H 0.2804 0.6172 0.7580
H2 H 0.2240 0.6697 0.7847
C1 C 0.9813(9) 0.5300(6) 0.6102(6)
H3 H 1.0483 0.5492 0.6183
C2 C 0.9633(8) 0.4851(6) 0.6674(6)
H4 H 1.0173 0.4738 0.7119
C3 C 0.8643(8) 0.4571(5) 0.6581(5)
C4 C 0.7923(8) 0.4746(6) 0.5888(6)
H5 H 0.7247 0.4561 0.5787
C5 C 0.8165(9) 0.5183(6) 0.5341(6)
H6 H 0.7652 0.5282 0.4875
C6 C 0.6071(10) 0.5302(7) 0.9437(6)
H7 H 0.6268 0.5510 0.9936
C7 C 0.6793(8) 0.4862(6) 0.9216(5)
H8 H 0.7452 0.4785 0.9562
C8 C 0.6535(8) 0.4545(5) 0.8493(5)
C9 C 0.5552(9) 0.4694(6) 0.8043(6)
H9 H 0.5338 0.4495 0.7540
C10 C 0.4865(8) 0.5117(6) 0.8288(6)
H10 H 0.4191 0.5180 0.7959
C11 C 0.8357(8) 0.4123(5) 0.7202(6)
H11 H 0.8990 0.3977 0.7598
H12 H 0.7996 0.3681 0.6967
C12 C 0.7667(8) 0.4553(5) 0.7582(5)
H13 H 0.7058 0.4723 0.7179
H14 H 0.8046 0.4981 0.7837
C13 C 0.7304(8) 0.4105(5) 0.8191(6)
H15 H 0.6975 0.3654 0.7952
H16 H 0.7903 0.3976 0.8625
C14 C 1.0748(9) 0.7332(6) 0.4018(6)
H17 H 1.1192 0.7269 0.4521
C15 C 1.1054(8) 0.7785(6) 0.3508(6)
H18 H 1.1698 0.8022 0.3678
C16 C 1.0451(7) 0.7901(5) 0.2763(5)
C17 C 0.9514(9) 0.7525(6) 0.2571(6)
H19 H 0.9055 0.7583 0.2072
C18 C 0.9246(8) 0.7076(6) 0.3086(6)
H20 H 0.8616 0.6822 0.2918
C19 C 1.3893(8) 0.7229(6) 0.0623(6)
H21 H 1.4585 0.7088 0.0841
C20 C 1.3449(8) 0.7707(5) 0.1037(5)
H22 H 1.3852 0.7898 0.1512
C21 C 1.2423(7) 0.7904(5) 0.0756(5)
C22 C 1.1908(9) 0.7610(6) 0.0036(7)
H23 H 1.1205 0.7723 -0.0184
C23 C 1.2385(9) 0.7170(7) -0.0354(6)
H24 H 1.2009 0.7002 -0.0847
C24 C 1.0809(8) 0.8365(5) 0.2205(5)
H25 H 1.1284 0.8738 0.2494
H26 H 1.0212 0.8612 0.1856
C25 C 1.1364(7) 0.7909(5) 0.1721(5)
H27 H 1.0860 0.7580 0.1384
H28 H 1.1896 0.7609 0.2074
C26 C 1.1881(7) 0.8374(5) 0.1213(5)
H29 H 1.1352 0.8669 0.0853
H30 H 1.2385 0.8705 0.1547
Ag2_2 Ag 1.41364(9) 0.62111(5) -0.06661(6)
N4_2 N 0.3381(8) 0.6960(4) 0.9933(5)
N5 N 0.8460(7) 0.6865(4) 0.0390(5)
H31 H 0.8213 0.7205 0.0624
O2 O 0.9384(6) 0.8992(4) 0.0145(4)
O3 O 0.8332(6) 0.8320(4) 0.0623(4)
O4 O 0.6844(6) 0.6392(5) 0.1981(4)
O5 O 0.6617(7) 0.6878(5) 0.0832(5)
C27 C 0.8884(8) 0.8423(6) 0.0156(5)
C28 C 0.8927(7) 0.7818(6) -0.0416(5)
C29 C 0.8727(7) 0.7071(6) -0.0284(5)
C30 C 0.8783(8) 0.6564(6) -0.0866(6)
H32 H 0.8651 0.6072 -0.0791
C31 C 0.9023(9) 0.6761(7) -0.1534(6)
H33 H 0.9044 0.6411 -0.1912
C32 C 0.9237(9) 0.7492(7) -0.1645(6)
H34 H 0.9435 0.7634 -0.2087
C33 C 0.9154(8) 0.8005(7) -0.1098(5)
H35 H 0.9257 0.8498 -0.1195
C34 C 0.7040(8) 0.6443(6) 0.1347(6)
C35 C 0.7887(7) 0.5968(5) 0.1193(5)
C36 C 0.8546(8) 0.6176(5) 0.0725(5)
C37 C 0.9334(9) 0.5693(6) 0.0675(6)
H36 H 0.9824 0.5843 0.0421
C38 C 0.9407(10) 0.5003(7) 0.0989(6)
H37 H 0.9917 0.4683 0.0917
C39 C 0.8749(11) 0.4777(6) 0.1403(7)
H38 H 0.8794 0.4303 0.1606
C40 C 0.8013(9) 0.5261(6) 0.1518(6)
H39 H 0.7582 0.5115 0.1823
O6 O 1.1050(6) 0.6739(5) 0.5901(5)
H40 H 1.1263 0.7178 0.5889
H41 H 1.1574 0.6469 0.6112
O7 O 0.7780(7) 0.9245(5) 0.1626(5)
H42 H 0.7974 0.9006 0.1279
H43 H 0.7828 0.9701 0.1541
O8 O 0.9493(6) 0.0356(4) 0.0852(4)
H44 H 0.9418 -0.0081 0.0677
H45 H 0.9825 0.0599 0.0588
O9 O 0.7200(7) 0.5794(5) 0.3482(4)
H46 H 0.7009 0.5972 0.3021
H47 H 0.6657 0.5687 0.3623
O10 O 0.6080(9) 0.7691(7) 0.2416(6)
H48 H 0.6313 0.7265 0.2364
H49 H 0.6034 0.7929 0.1996
loop_
_geom_bond_atom_site_label_1
_geom_bond_atom_site_label_2
_geom_bond_site_symmetry_1
_geom_bond_site_symmetry_2
Ag1 N1 1_555 1_555
Ag2 N2 1_555 1_555
N1 C1 1_555 1_555
N2 C6 1_555 1_555
N3 Ag1 1_555 1_555
N4 C19 1_555 1_555
O1 Ag2 1_555 1_555
H1 O1 1_555 1_555
H2 O1 1_555 1_555
C1 H3 1_555 1_555
C2 C1 1_555 1_555
H4 C2 1_555 1_555
C3 C2 1_555 1_555
C4 C3 1_555 1_555
H5 C4 1_555 1_555
C5 N1 1_555 1_555
H6 C5 1_555 1_555
C6 H7 1_555 1_555
C7 C6 1_555 1_555
H8 C7 1_555 1_555
C8 C7 1_555 1_555
C9 C8 1_555 1_555
H9 C9 1_555 1_555
C10 N2 1_555 1_555
H10 C10 1_555 1_555
C11 C3 1_555 1_555
H11 C11 1_555 1_555
H12 C11 1_555 1_555
C12 C11 1_555 1_555
H13 C12 1_555 1_555
H14 C12 1_555 1_555
C13 C8 1_555 1_555
H15 C13 1_555 1_555
H16 C13 1_555 1_555
C14 N3 1_555 1_555
H17 C14 1_555 1_555
C15 C14 1_555 1_555
H18 C15 1_555 1_555
C16 C15 1_555 1_555
C17 C16 1_555 1_555
H19 C17 1_555 1_555
C18 N3 1_555 1_555
H20 C18 1_555 1_555
C19 H21 1_555 1_555
C20 C19 1_555 1_555
H22 C20 1_555 1_555
C21 C20 1_555 1_555
C22 C21 1_555 1_555
H23 C22 1_555 1_555
C23 N4 1_555 1_555
H24 C23 1_555 1_555
C24 C16 1_555 1_555
H25 C24 1_555 1_555
H26 C24 1_555 1_555
C25 C24 1_555 1_555
H27 C25 1_555 1_555
H28 C25 1_555 1_555
C26 C21 1_555 1_555
H29 C26 1_555 1_555
H30 C26 1_555 1_555
N5 H31 1_555 1_555
O2 C27 1_555 1_555
O3 C27 1_555 1_555
O4 C34 1_555 1_555
O5 C34 1_555 1_555
C27 C28 1_555 1_555
C28 C29 1_555 1_555
C29 N5 1_555 1_555
C30 C29 1_555 1_555
H32 C30 1_555 1_555
C31 C30 1_555 1_555
H33 C31 1_555 1_555
C32 C31 1_555 1_555
H34 C32 1_555 1_555
C33 C28 1_555 1_555
H35 C33 1_555 1_555
C34 C35 1_555 1_555
C35 C36 1_555 1_555
C36 N5 1_555 1_555
C37 C36 1_555 1_555
H36 C37 1_555 1_555
C38 C37 1_555 1_555
H37 C38 1_555 1_555
C39 C38 1_555 1_555
H38 C39 1_555 1_555
C40 C35 1_555 1_555
H39 C40 1_555 1_555
O6 H40 1_555 1_555
H41 O6 1_555 1_555
O7 H42 1_555 1_555
H43 O7 1_555 1_555
O8 H44 1_555 1_555
H45 O8 1_555 1_555
O9 H46 1_555 1_555
H47 O9 1_555 1_555
O10 H48 1_555 1_555
H49 O10 1_555 1_555
Ag2_2 N4 1_555 1_555
N4_2 Ag2 1_555 1_555
C4 C5 1_555 1_555
C9 C10 1_555 1_555
C12 C13 1_555 1_555
C17 C18 1_555 1_555
C22 C23 1_555 1_555
C25 C26 1_555 1_555
C32 C33 1_555 1_555
C39 C40 1_555 1_555

#END
