
#######################################################################
#
#                 Cambridge Crystallographic Data Centre
#                                CCDC 
#
#######################################################################
#
# If this CIF has been generated from an entry in the Cambridge 
# Structural Database, then it will include bibliographic, chemical, 
# crystal, experimental, refinement or atomic coordinate data resulting 
# from the CCDC's data processing and validation procedures.
#
#######################################################################

data_VIGDOG
_symmetry_cell_setting           monoclinic
_symmetry_space_group_name_H-M   'P 21/n'
_symmetry_Int_Tables_number      14
_space_group_name_Hall           '-P 2yn'
loop_
_symmetry_equiv_pos_site_id
_symmetry_equiv_pos_as_xyz
1 x,y,z
2 1/2-x,1/2+y,1/2-z
3 -x,-y,-z
4 1/2+x,1/2-y,1/2+z
_cell_length_a                   10.6830(9)
_cell_length_b                   17.4096(17)
_cell_length_c                   26.591(2)
_cell_angle_alpha                90
_cell_angle_beta                 98.1910(10)
_cell_angle_gamma                90
_cell_volume                     4895.12
loop_
_atom_site_label
_atom_site_type_symbol
_atom_site_fract_x
_atom_site_fract_y
_atom_site_fract_z
Ag1 Ag 0.19791(6) 0.76679(4) 0.676670(19)
N1 N 0.1187(6) 0.7562(3) 0.59860(19)
N2 N -0.2262(5) 0.7533(3) 0.25388(19)
O1 O 0.2182(6) 0.9128(3) 0.67799(19)
H1 H 0.1634 0.9346 0.6934
H2 H 0.2173 0.9320 0.6486
C1 C 0.0835(8) 0.8176(4) 0.5689(3)
H3 H 0.0934 0.8663 0.5832
C2 C 0.0345(8) 0.8111(4) 0.5193(3)
H4 H 0.0111 0.8551 0.5004
C3 C 0.0189(7) 0.7392(4) 0.4961(2)
C4 C 0.0555(7) 0.6765(4) 0.5268(3)
H5 H 0.0464 0.6272 0.5133
C5 C 0.1048(7) 0.6866(4) 0.5766(3)
H6 H 0.1299 0.6435 0.5961
C6 C -0.1900(7) 0.6937(4) 0.2844(3)
H7 H -0.1993 0.6448 0.2702
C7 C -0.1411(7) 0.6987(4) 0.3338(3)
H8 H -0.1188 0.6545 0.3525
C8 C -0.1243(7) 0.7707(4) 0.3566(2)
C9 C -0.1619(7) 0.8329(4) 0.3251(3)
H9 H -0.1537 0.8825 0.3382
C10 C -0.2106(7) 0.8223(4) 0.2751(2)
H10 H -0.2338 0.8653 0.2552
C11 C -0.0355(7) 0.7286(4) 0.4435(2)
H11 H -0.0459 0.6781 0.4323
C12 C -0.0717(7) 0.7824(4) 0.4097(2)
H12 H -0.0629 0.8330 0.4209
Ag1C Ag -0.30209(6) 0.73321(4) 0.176670(19)
N2C N 0.2738(5) 0.7467(3) 0.75388(19)
Ag2 Ag 0.36447(6) 0.72039(4) 0.51835(2)
N3 N 0.4381(6) 0.7391(4) 0.5967(2)
N4 N 0.7972(6) 0.7607(3) 0.93957(19)
O2 O 0.3452(5) 0.5793(3) 0.51744(19)
H13 H 0.2692 0.5639 0.5101
H14 H 0.3809 0.5581 0.5445
C13 C 0.4598(8) 0.8090(5) 0.6168(3)
H15 H 0.4352 0.8511 0.5963
C14 C 0.5145(8) 0.8226(4) 0.6646(3)
H16 H 0.5292 0.8729 0.6756
C15 C 0.5497(7) 0.7616(4) 0.6977(2)
C16 C 0.5264(7) 0.6888(4) 0.6775(3)
H17 H 0.5484 0.6459 0.6976
C17 C 0.4716(7) 0.6795(4) 0.6283(3)
H18 H 0.4566 0.6299 0.6159
C18 C 0.7780(7) 0.8198(4) 0.9074(3)
H19 H 0.7977 0.8688 0.9200
C19 C 0.7313(7) 0.8123(4) 0.8573(3)
H20 H 0.7203 0.8554 0.8364
C20 C 0.6998(7) 0.7394(4) 0.8373(3)
C21 C 0.7213(8) 0.6793(4) 0.8707(3)
H21 H 0.7034 0.6295 0.8592
C22 C 0.7688(8) 0.6912(4) 0.9207(3)
H22 H 0.7816 0.6490 0.9422
C23 C 0.6093(7) 0.7769(4) 0.7498(3)
H23 H 0.6265 0.8278 0.7588
C24 C 0.6407(7) 0.7242(4) 0.7850(3)
H24 H 0.6240 0.6733 0.7759
Ag2C Ag 0.86447(6) 0.77961(4) 1.01835(2)
N4C N 0.2972(6) 0.7393(3) 0.43957(19)
Ag3 Ag 0.47117(6) 0.23757(4) 0.66152(2)
N5 N 0.4010(5) 0.2546(3) 0.58319(19)
N6 N 0.0442(5) 0.2518(3) 0.23996(19)
O3 O 0.4583(6) 0.0883(3) 0.6677(2)
H25 H 0.4086 0.0609 0.6472
H26 H 0.5245 0.0622 0.6776
C25 C 0.3857(8) 0.3242(4) 0.5620(3)
H27 H 0.4087 0.3670 0.5821
C26 C 0.3371(8) 0.3351(4) 0.5115(3)
H28 H 0.3282 0.3846 0.4983
C27 C 0.3019(7) 0.2729(4) 0.4809(3)
C28 C 0.3191(8) 0.2014(4) 0.5035(3)
H29 H 0.2977 0.1575 0.4843
C29 C 0.3669(8) 0.1947(4) 0.5533(3)
H30 H 0.3762 0.1458 0.5673
C30 C 0.0616(7) 0.1841(4) 0.2627(2)
H31 H 0.0374 0.1403 0.2438
C31 C 0.1137(8) 0.1753(4) 0.3127(3)
H32 H 0.1238 0.1263 0.3266
C32 C 0.1513(7) 0.2387(4) 0.3425(2)
C33 C 0.1327(7) 0.3097(4) 0.3183(2)
H33 H 0.1565 0.3545 0.3362
C34 C 0.0800(7) 0.3138(4) 0.2688(3)
H34 H 0.0680 0.3621 0.2540
C35 C 0.2487(7) 0.2852(4) 0.4270(2)
H35 H 0.2433 0.3353 0.4148
C36 C 0.2077(7) 0.2283(4) 0.3948(2)
H36 H 0.2161 0.1783 0.4071
Ag3C Ag -0.02883(6) 0.26243(4) 0.16152(2)
N6C N 0.5442(5) 0.2482(3) 0.73996(19)
O4 O -0.1400(5) 0.4862(3) 0.5390(2)
O5 O -0.2196(4) 0.5205(3) 0.60827(19)
O6 O 0.4645(5) 0.4807(4) 0.6779(2)
O7 O 0.3844(5) 0.4974(3) 0.74909(19)
C37 C -0.1303(7) 0.5026(4) 0.5849(3)
C38 C 0.3761(7) 0.4916(4) 0.7021(3)
C39 C 0.0003(6) 0.4992(4) 0.6156(2)
C40 C 0.0173(6) 0.5069(4) 0.6685(3)
H37 H -0.0525 0.5135 0.6854
C41 C 0.1393(6) 0.5046(4) 0.6962(3)
H38 H 0.1498 0.5092 0.7314
C42 C 0.2444(6) 0.4956(4) 0.6717(2)
C43 C 0.2276(6) 0.4888(4) 0.6188(3)
H39 H 0.2977 0.4836 0.6020
C44 C 0.1055(6) 0.4899(4) 0.5909(3)
H40 H 0.0951 0.4843 0.5558
O8 O 0.7034(5) 1.0039(3) 0.4002(2)
O9 O 0.8262(5) 1.0041(4) 0.4739(2)
C45 C 0.7192(7) 1.0041(4) 0.4474(3)
C46 C 0.6066(6) 1.0028(4) 0.4746(3)
C47 C 0.6202(7) 0.9979(4) 0.5278(3)
H41 H 0.7005 0.9963 0.5465
C48 C 0.5154(7) 0.9953(4) 0.5522(3)
H42 H 0.5261 0.9923 0.5874
O8B O 0.2966(5) 0.9961(3) 0.5998(2)
O9B O 0.1738(5) 0.9959(4) 0.5261(2)
C45B C 0.2808(7) 0.9959(4) 0.5526(3)
C46B C 0.3934(6) 0.9972(4) 0.5254(3)
C47B C 0.3798(7) 1.0021(4) 0.4722(3)
H41B H 0.2995 1.0037 0.4535
C48B C 0.4846(7) 1.0047(4) 0.4478(3)
H42B H 0.4739 1.0077 0.4126
O10 O 0.5282(5) 0.4979(3) 0.57964(19)
H43 H 0.6076 0.5053 0.5854
H44 H 0.5014 0.4921 0.6080
O11 O 0.5889(5) 0.5158(3) 0.8288(2)
H45 H 0.5237 0.5101 0.8067
H46 H 0.5662 0.5151 0.8581
O12 O 0.6707(5) 0.0012(3) 0.6986(2)
H47 H 0.7376 0.0060 0.6849
H48 H 0.6922 -0.0023 0.7305
O13 O 0.0352(6) 0.9855(4) 0.4284(2)
H49 H -0.0378 0.9908 0.4371
H50 H 0.0893 0.9876 0.4551
O14 O 0.7193(5) 0.4924(4) 0.7036(2)
H51 H 0.6392 0.4881 0.6983
H52 H 0.7449 0.5013 0.6753
loop_
_geom_bond_atom_site_label_1
_geom_bond_atom_site_label_2
_geom_bond_site_symmetry_1
_geom_bond_site_symmetry_2
Ag1 N1 1_555 1_555
N1 C1 1_555 1_555
N2 C6 1_555 1_555
O1 Ag1 1_555 1_555
H1 O1 1_555 1_555
H2 O1 1_555 1_555
C1 H3 1_555 1_555
C2 C1 1_555 1_555
H4 C2 1_555 1_555
C3 C2 1_555 1_555
C4 C3 1_555 1_555
H5 C4 1_555 1_555
C5 N1 1_555 1_555
H6 C5 1_555 1_555
C6 H7 1_555 1_555
C7 C6 1_555 1_555
H8 C7 1_555 1_555
C8 C7 1_555 1_555
C9 C8 1_555 1_555
H9 C9 1_555 1_555
C10 N2 1_555 1_555
H10 C10 1_555 1_555
C11 C3 1_555 1_555
H11 C11 1_555 1_555
C12 C8 1_555 1_555
H12 C12 1_555 1_555
Ag2 N3 1_555 1_555
N3 C13 1_555 1_555
N4 C18 1_555 1_555
O2 Ag2 1_555 1_555
H13 O2 1_555 1_555
H14 O2 1_555 1_555
C13 H15 1_555 1_555
C14 C13 1_555 1_555
H16 C14 1_555 1_555
C15 C14 1_555 1_555
C16 C15 1_555 1_555
H17 C16 1_555 1_555
C17 N3 1_555 1_555
H18 C17 1_555 1_555
C18 H19 1_555 1_555
C19 C18 1_555 1_555
H20 C19 1_555 1_555
C20 C19 1_555 1_555
C21 C20 1_555 1_555
H21 C21 1_555 1_555
C22 N4 1_555 1_555
H22 C22 1_555 1_555
C23 C15 1_555 1_555
H23 C23 1_555 1_555
C24 C20 1_555 1_555
H24 C24 1_555 1_555
Ag3 N5 1_555 1_555
N5 C25 1_555 1_555
N6 C30 1_555 1_555
O3 Ag3 1_555 1_555
H25 O3 1_555 1_555
H26 O3 1_555 1_555
C25 H27 1_555 1_555
C26 C25 1_555 1_555
H28 C26 1_555 1_555
C27 C26 1_555 1_555
C28 C27 1_555 1_555
H29 C28 1_555 1_555
C29 N5 1_555 1_555
H30 C29 1_555 1_555
C30 H31 1_555 1_555
C31 C30 1_555 1_555
H32 C31 1_555 1_555
C32 C31 1_555 1_555
C33 C32 1_555 1_555
H33 C33 1_555 1_555
C34 N6 1_555 1_555
H34 C34 1_555 1_555
C35 C27 1_555 1_555
H35 C35 1_555 1_555
C36 C32 1_555 1_555
H36 C36 1_555 1_555
O4 C37 1_555 1_555
O5 C37 1_555 1_555
O6 C38 1_555 1_555
O7 C38 1_555 1_555
C37 C39 1_555 1_555
C38 C42 1_555 1_555
C39 C40 1_555 1_555
C40 H37 1_555 1_555
C41 C40 1_555 1_555
H38 C41 1_555 1_555
C42 C41 1_555 1_555
C43 C42 1_555 1_555
H39 C43 1_555 1_555
C44 C39 1_555 1_555
H40 C44 1_555 1_555
O8 C45 1_555 1_555
O9 C45 1_555 1_555
C45 C46 1_555 1_555
C46 C47 1_555 1_555
C47 H41 1_555 1_555
C48 C47 1_555 1_555
H42 C48 1_555 1_555
O10 H43 1_555 1_555
H44 O10 1_555 1_555
O11 H45 1_555 1_555
H46 O11 1_555 1_555
O12 H47 1_555 1_555
H48 O12 1_555 1_555
O13 H49 1_555 1_555
H50 O13 1_555 1_555
O14 H51 1_555 1_555
H52 O14 1_555 1_555
Ag1C N2 1_555 1_555
N2C Ag1 1_555 1_555
Ag2C N4 1_555 1_555
N4C Ag2 1_555 1_555
Ag3C N6 1_555 1_555
N6C Ag3 1_555 1_555
O8B C45B 1_555 1_555
O9B C45B 1_555 1_555
C45B C46B 1_555 1_555
C46B C48 1_555 1_555
C47B C46B 1_555 1_555
H41B C47B 1_555 1_555
C48B C46 1_555 1_555
H42B C48B 1_555 1_555
C4 C5 1_555 1_555
C9 C10 1_555 1_555
C11 C12 1_555 1_555
C16 C17 1_555 1_555
C21 C22 1_555 1_555
C23 C24 1_555 1_555
C28 C29 1_555 1_555
C33 C34 1_555 1_555
C35 C36 1_555 1_555
C43 C44 1_555 1_555
C47B C48B 1_555 1_555

#END
