
#######################################################################
#
#                 Cambridge Crystallographic Data Centre
#                                CCDC 
#
#######################################################################
#
# If this CIF has been generated from an entry in the Cambridge 
# Structural Database, then it will include bibliographic, chemical, 
# crystal, experimental, refinement or atomic coordinate data resulting 
# from the CCDC's data processing and validation procedures.
#
#######################################################################

data_VIGDUM
_symmetry_cell_setting           triclinic
_symmetry_space_group_name_H-M   'P -1'
_symmetry_Int_Tables_number      2
_space_group_name_Hall           '-P 1'
loop_
_symmetry_equiv_pos_site_id
_symmetry_equiv_pos_as_xyz
1 x,y,z
2 -x,-y,-z
_cell_length_a                   10.8520(11)
_cell_length_b                   12.0573(12)
_cell_length_c                   13.4407(13)
_cell_angle_alpha                86.764(2)
_cell_angle_beta                 84.9410(10)
_cell_angle_gamma                79.0670(10)
_cell_volume                     1718.59
loop_
_atom_site_label
_atom_site_type_symbol
_atom_site_fract_x
_atom_site_fract_y
_atom_site_fract_z
Ag1 Ag 0.87586(3) 0.17343(3) 0.77340(3)
Ag2 Ag -0.18768(3) 0.78633(3) 0.39690(3)
N1 N 0.7138(3) 0.2798(3) 0.7166(2)
N2 N -0.0086(3) 0.6842(3) 0.4324(2)
N3 N -0.9745(3) 1.1075(3) -0.1331(2)
N4 N -0.3483(3) 0.8487(3) 0.3100(2)
O1 O 0.9073(3) 0.0176(2) 0.6476(2)
H1 H 0.9754 0.0263 0.6145
H2 H 0.9217 -0.0443 0.6819
O2 O -0.1545(3) 0.9892(3) 0.4464(2)
H3 H -0.1407 1.0067 0.5042
H4 H -0.1920 1.0480 0.4161
O3 O -0.2854(3) 0.7944(3) 0.5698(2)
H5 H -0.2508 0.7824 0.6247
H6 H -0.3631 0.7922 0.5815
C1 C 0.6561(4) 0.3748(3) 0.7601(3)
H7 H 0.6910 0.3968 0.8149
C2 C 0.5489(4) 0.4419(3) 0.7289(3)
H8 H 0.5125 0.5069 0.7624
C3 C 0.4947(3) 0.4117(3) 0.6465(3)
C4 C 0.5540(4) 0.3145(3) 0.6003(3)
H9 H 0.5217 0.2909 0.5450
C5 C 0.6621(4) 0.2523(3) 0.6371(3)
H10 H 0.7012 0.1874 0.6045
C6 C 0.3793(4) 0.4840(3) 0.6134(3)
H11 H 0.3470 0.5480 0.6496
C7 C 0.3171(4) 0.4668(3) 0.5371(3)
H12 H 0.3469 0.4015 0.5020
C8 C 0.0491(4) 0.7120(3) 0.5095(3)
H13 H 0.0166 0.7801 0.5396
C9 C 0.1535(4) 0.6448(3) 0.5459(3)
H14 H 0.1899 0.6681 0.5993
C10 C 0.2048(4) 0.5426(3) 0.5034(3)
C11 C 0.1461(4) 0.5138(3) 0.4230(3)
H15 H 0.1776 0.4468 0.3909
C12 C 0.0410(4) 0.5855(3) 0.3916(3)
H16 H 0.0021 0.5640 0.3387
C13 C -0.9729(4) 1.1399(3) -0.0391(3)
H17 H -1.0389 1.1946 -0.0141
C14 C -0.8793(4) 1.0965(3) 0.0214(3)
H18 H -0.8827 1.1217 0.0859
C15 C -0.7785(4) 1.0143(3) -0.0136(3)
C16 C -0.7803(4) 0.9813(3) -0.1101(3)
H19 H -0.7153 0.9268 -0.1370
C17 C -0.8784(4) 1.0292(3) -0.1668(3)
H20 H -0.8774 1.0056 -0.2316
C18 C -0.6737(4) 0.9631(4) 0.0461(3)
H21 H -0.6135 0.9062 0.0171
C19 C -0.6569(4) 0.9905(3) 0.1373(3)
H22 H -0.7173 1.0467 0.1670
C20 C -0.4361(4) 0.9353(3) 0.3399(3)
H23 H -0.4285 0.9667 0.4002
C21 C -0.5377(4) 0.9813(3) 0.2868(3)
H24 H -0.5977 1.0406 0.3123
C22 C -0.5503(4) 0.9389(3) 0.1956(3)
C23 C -0.4581(4) 0.8483(4) 0.1640(3)
H25 H -0.4622 0.8165 0.1032
C24 C -0.3617(4) 0.8063(4) 0.2220(3)
H26 H -0.3021 0.7451 0.1996
Ag1_2 Ag -1.12414(3) 1.17343(3) -0.22660(3)
N3_2 N 1.0255(3) 0.1075(3) 0.8669(2)
N5 N 0.1993(3) 0.6897(3) 0.8113(2)
H27 H 0.1689 0.7470 0.7741
O4 O 0.4701(3) 0.7852(3) 0.6125(2)
O5 O 0.2714(3) 0.8433(3) 0.6700(2)
O6 O -0.0039(3) 0.8191(2) 0.7406(2)
O7 O -0.1806(3) 0.7543(3) 0.7491(3)
C25 C 0.3809(4) 0.7918(3) 0.6791(3)
C26 C 0.4088(4) 0.7354(3) 0.7810(3)
C27 C 0.3186(4) 0.6888(3) 0.8434(3)
C28 C 0.3498(4) 0.6452(4) 0.9383(3)
H28 H 0.2904 0.6161 0.9808
C29 C 0.4684(4) 0.6449(4) 0.9700(3)
H29 H 0.4875 0.6152 1.0333
C30 C 0.5576(4) 0.6879(4) 0.9088(3)
H30 H 0.6370 0.6871 0.9301
C31 C 0.5274(4) 0.7328(3) 0.8145(3)
H31 H 0.5877 0.7618 0.7728
C32 C -0.0671(4) 0.7434(4) 0.7630(3)
C33 C -0.0044(4) 0.6332(3) 0.8125(3)
C34 C 0.1244(4) 0.6091(3) 0.8324(3)
C35 C 0.1728(4) 0.5004(4) 0.8706(3)
H32 H 0.2578 0.4812 0.8812
C36 C 0.0965(4) 0.4218(4) 0.8926(3)
H33 H 0.1307 0.3507 0.9189
C37 C -0.0283(4) 0.4460(4) 0.8767(3)
H34 H -0.0796 0.3930 0.8931
C38 C -0.0765(4) 0.5507(4) 0.8359(3)
H35 H -0.1612 0.5668 0.8234
loop_
_geom_bond_atom_site_label_1
_geom_bond_atom_site_label_2
_geom_bond_site_symmetry_1
_geom_bond_site_symmetry_2
Ag1 N1 1_555 1_555
Ag2 N2 1_555 1_555
N1 C1 1_555 1_555
N2 C8 1_555 1_555
N3 C13 1_555 1_555
N4 Ag2 1_555 1_555
O1 Ag1 1_555 1_555
H1 O1 1_555 1_555
H2 O1 1_555 1_555
O2 Ag2 1_555 1_555
H3 O2 1_555 1_555
H4 O2 1_555 1_555
O3 Ag2 1_555 1_555
H5 O3 1_555 1_555
H6 O3 1_555 1_555
C1 H7 1_555 1_555
C2 C1 1_555 1_555
H8 C2 1_555 1_555
C3 C2 1_555 1_555
C4 C3 1_555 1_555
H9 C4 1_555 1_555
C5 N1 1_555 1_555
H10 C5 1_555 1_555
C6 C3 1_555 1_555
H11 C6 1_555 1_555
C7 C6 1_555 1_555
H12 C7 1_555 1_555
C8 H13 1_555 1_555
C9 C8 1_555 1_555
H14 C9 1_555 1_555
C10 C7 1_555 1_555
C11 C10 1_555 1_555
H15 C11 1_555 1_555
C12 N2 1_555 1_555
H16 C12 1_555 1_555
C13 H17 1_555 1_555
C14 C13 1_555 1_555
H18 C14 1_555 1_555
C15 C14 1_555 1_555
C16 C15 1_555 1_555
H19 C16 1_555 1_555
C17 N3 1_555 1_555
H20 C17 1_555 1_555
C18 C15 1_555 1_555
H21 C18 1_555 1_555
C19 C18 1_555 1_555
H22 C19 1_555 1_555
C20 N4 1_555 1_555
H23 C20 1_555 1_555
C21 C20 1_555 1_555
H24 C21 1_555 1_555
C22 C19 1_555 1_555
C23 C22 1_555 1_555
H25 C23 1_555 1_555
C24 N4 1_555 1_555
H26 C24 1_555 1_555
N5 H27 1_555 1_555
O4 C25 1_555 1_555
O5 C25 1_555 1_555
O6 C32 1_555 1_555
O7 C32 1_555 1_555
C25 C26 1_555 1_555
C26 C27 1_555 1_555
C27 N5 1_555 1_555
C28 C27 1_555 1_555
H28 C28 1_555 1_555
C29 C28 1_555 1_555
H29 C29 1_555 1_555
C30 C29 1_555 1_555
H30 C30 1_555 1_555
C31 C26 1_555 1_555
H31 C31 1_555 1_555
C32 C33 1_555 1_555
C33 C34 1_555 1_555
C34 N5 1_555 1_555
C35 C34 1_555 1_555
H32 C35 1_555 1_555
C36 C35 1_555 1_555
H33 C36 1_555 1_555
C37 C36 1_555 1_555
H34 C37 1_555 1_555
C38 C33 1_555 1_555
H35 C38 1_555 1_555
Ag1_2 N3 1_555 1_555
N3_2 Ag1 1_555 1_555
C4 C5 1_555 1_555
C9 C10 1_555 1_555
C11 C12 1_555 1_555
C16 C17 1_555 1_555
C21 C22 1_555 1_555
C23 C24 1_555 1_555
C30 C31 1_555 1_555
C37 C38 1_555 1_555

#END
