
#######################################################################
#
#                 Cambridge Crystallographic Data Centre
#                                CCDC 
#
#######################################################################
#
# If this CIF has been generated from an entry in the Cambridge 
# Structural Database, then it will include bibliographic, chemical, 
# crystal, experimental, refinement or atomic coordinate data resulting 
# from the CCDC's data processing and validation procedures.
#
#######################################################################

data_VIGFEY
_symmetry_cell_setting           monoclinic
_symmetry_space_group_name_H-M   'P 21/n'
_symmetry_Int_Tables_number      14
_space_group_name_Hall           '-P 2yn'
loop_
_symmetry_equiv_pos_site_id
_symmetry_equiv_pos_as_xyz
1 x,y,z
2 1/2-x,1/2+y,1/2-z
3 -x,-y,-z
4 1/2+x,1/2-y,1/2+z
_cell_length_a                   13.1581(12)
_cell_length_b                   18.089(2)
_cell_length_c                   18.1897(19)
_cell_angle_alpha                90
_cell_angle_beta                 91.2760(10)
_cell_angle_gamma                90
_cell_volume                     4328.38
loop_
_atom_site_label
_atom_site_type_symbol
_atom_site_fract_x
_atom_site_fract_y
_atom_site_fract_z
Ag1 Ag 0.35600(3) 0.758576(18) 0.496477(16)
N1 N 0.2505(2) 0.75086(17) 0.58510(16)
N2 N -0.0642(3) 0.75064(17) 0.89487(16)
C1 C 0.2015(3) 0.8121(2) 0.60508(19)
H1 H 0.2122 0.8552 0.5785
C2 C 0.1365(3) 0.8147(2) 0.66263(18)
H2 H 0.1040 0.8587 0.6742
C3 C 0.1191(3) 0.7512(2) 0.70391(18)
C4 C 0.1696(3) 0.6872(2) 0.68265(19)
H3 H 0.1603 0.6434 0.7083
C5 C 0.2333(3) 0.6888(2) 0.62372(19)
H4 H 0.2657 0.6454 0.6100
C6 C -0.0568(3) 0.6909(2) 0.8510(2)
H5 H -0.0918 0.6484 0.8641
C7 C -0.0014(3) 0.6892(2) 0.78905(18)
H6 H 0.0003 0.6464 0.7607
C8 C 0.0533(3) 0.7516(2) 0.76780(19)
C9 C 0.0454(3) 0.8140(2) 0.81302(19)
H7 H 0.0795 0.8573 0.8011
C10 C -0.0117(3) 0.8114(2) 0.8742(2)
H8 H -0.0150 0.8535 0.9034
Ag1C Ag -0.14400(3) 0.741424(18) 0.996477(16)
N2C N 0.4358(3) 0.74936(17) 0.39487(16)
O1 O 0.4651(2) 0.86827(14) 0.56172(14)
O2 O 0.3413(2) 0.90416(15) 0.48623(15)
C11 C 0.4175(3) 0.9173(2) 0.5263(2)
C12 C 0.4590(3) 0.9952(2) 0.5287(2)
H9 H 0.4877 1.0053 0.5772
H10 H 0.4044 1.0301 0.5191
O1B O 0.5349(2) 1.13173(14) 0.43828(14)
O2B O 0.6587(2) 1.09584(15) 0.51377(15)
C11B C 0.5825(3) 1.0827(2) 0.4737(2)
C12B C 0.5410(3) 1.0048(2) 0.4713(2)
H9B H 0.5123 0.9947 0.4228
H10B H 0.5956 0.9699 0.4809
Ag2 Ag 0.54868(3) 0.72363(2) 0.610832(17)
N3 N 0.4559(2) 0.73636(18) 0.70631(16)
N4 N 0.1474(2) 0.76969(18) 1.01809(15)
C13 C 0.4105(3) 0.8008(2) 0.7227(2)
H11 H 0.4200 0.8408 0.6915
C14 C 0.3509(3) 0.8106(2) 0.78274(19)
H12 H 0.3219 0.8565 0.7921
C15 C 0.3342(3) 0.7509(2) 0.82977(18)
C16 C 0.3813(3) 0.6845(2) 0.81302(19)
H13 H 0.3727 0.6434 0.8430
C17 C 0.4406(3) 0.6797(2) 0.7521(2)
H14 H 0.4717 0.6347 0.7421
C18 C 0.1539(3) 0.7062(2) 0.9794(2)
H15 H 0.1163 0.6657 0.9946
C19 C 0.2127(3) 0.6986(2) 0.91927(19)
H16 H 0.2147 0.6537 0.8945
C20 C 0.2697(3) 0.7578(2) 0.89504(19)
C21 C 0.2631(3) 0.8236(2) 0.93425(18)
H17 H 0.2995 0.8650 0.9197
C22 C 0.2024(3) 0.8268(2) 0.9945(2)
H18 H 0.1994 0.8711 1.0204
Ag2C Ag 0.04868(3) 0.77637(2) 1.110832(17)
N4C N 0.6474(2) 0.73031(18) 0.51809(15)
O3 O 0.4777(3) 0.59640(19) 0.54963(19)
H19 H 0.5225 0.5852 0.5822
H20 H 0.4259 0.5692 0.5554
Ag3 Ag 0.77065(3) 0.707902(18) 0.699707(16)
N5 N 0.6865(2) 0.72330(17) 0.80073(16)
N6 N 0.3776(2) 0.76952(17) 1.11177(16)
O4 O 0.8133(2) 0.57480(16) 0.71324(16)
O5 O 0.6663(2) 0.58074(16) 0.65273(15)
O6 O 0.8473(3) 0.4975(2) 0.51946(17)
O7 O 0.7073(3) 0.47520(19) 0.45594(17)
C23 C 0.6419(3) 0.7880(2) 0.8174(2)
H21 H 0.6486 0.8274 0.7850
C24 C 0.5875(3) 0.7988(2) 0.87922(19)
H22 H 0.5591 0.8448 0.8886
C25 C 0.5745(3) 0.7407(2) 0.92860(18)
C26 C 0.6215(3) 0.6747(2) 0.9121(2)
H23 H 0.6165 0.6348 0.9440
C27 C 0.6757(3) 0.6678(2) 0.84869(19)
H24 H 0.7063 0.6227 0.8387
C28 C 0.3877(3) 0.7039(2) 1.0782(2)
H25 H 0.3493 0.6643 1.0948
C29 C 0.4513(3) 0.6921(2) 1.0208(2)
H26 H 0.4555 0.6454 0.9996
C30 C 0.5097(3) 0.7501(2) 0.99415(18)
C31 C 0.5001(3) 0.8178(2) 1.02923(19)
H27 H 0.5378 0.8582 1.0138
C32 C 0.4351(3) 0.8250(2) 1.08667(19)
H28 H 0.4305 0.8708 1.1095
C33 C 0.7434(4) 0.5463(2) 0.6749(2)
C34 C 0.7533(3) 0.4651(2) 0.6553(2)
H29 H 0.8249 0.4523 0.6557
H30 H 0.7214 0.4360 0.6932
C35 C 0.7071(3) 0.4434(2) 0.5817(2)
H31 H 0.6365 0.4589 0.5805
H32 H 0.7080 0.3899 0.5781
C36 C 0.7582(4) 0.4750(2) 0.5140(2)
Ag3C Ag 0.27065(3) 0.792098(18) 1.199707(16)
N6C N 0.8776(2) 0.73048(17) 0.61177(16)
O8 O 0.0280(3) 0.47594(19) 0.59976(16)
H33 H -0.0308 0.4816 0.5802
H34 H 0.0718 0.4830 0.5668
O9 O 0.9853(3) 0.49670(19) 0.74900(16)
H35 H 1.0057 0.4871 0.7060
H36 H 0.9307 0.5216 0.7449
O10 O 0.2268(2) 0.01298(18) 0.42498(18)
H37 H 0.2604 -0.0221 0.4448
H38 H 0.2676 0.0394 0.4007
O11 O 0.7016(3) 0.5193(2) 0.31254(17)
H39 H 0.7079 0.5060 0.3572
H40 H 0.6393 0.5155 0.2997
O12 O 0.6313(3) 0.90181(18) 0.65454(16)
H41 H 0.5858 0.8885 0.6235
H42 H 0.6039 0.9301 0.6857
O13 O 0.8395(3) 0.9798(2) 0.4235(2)
H43 H 0.8152 0.9822 0.4664
H44 H 0.7906 0.9801 0.3922
O14 O 0.5048(3) 0.4948(2) 0.7175(2)
H45 H 0.5530 0.5201 0.7000
H46 H 0.5135 0.4920 0.7638
O15 O 0.3095(3) 0.0212(3) 0.6899(2)
H47 H 0.3710 0.0155 0.7041
H48 H 0.2715 0.0098 0.7254
O16 O 0.9731(3) 0.9826(3) 0.6327(2)
H49 H 0.9188 0.9876 0.6071
H50 H 1.0231 0.9964 0.6073
loop_
_geom_bond_atom_site_label_1
_geom_bond_atom_site_label_2
_geom_bond_site_symmetry_1
_geom_bond_site_symmetry_2
Ag1 N1 1_555 1_555
N1 C1 1_555 1_555
N2 C6 1_555 1_555
C1 H1 1_555 1_555
C2 C1 1_555 1_555
H2 C2 1_555 1_555
C3 C2 1_555 1_555
C4 C3 1_555 1_555
H3 C4 1_555 1_555
C5 N1 1_555 1_555
H4 C5 1_555 1_555
C6 H5 1_555 1_555
C7 C6 1_555 1_555
H6 C7 1_555 1_555
C8 C3 1_555 1_555
C9 C8 1_555 1_555
H7 C9 1_555 1_555
C10 N2 1_555 1_555
H8 C10 1_555 1_555
O1 C11 1_555 1_555
O2 C11 1_555 1_555
C11 C12 1_555 1_555
C12 H9 1_555 1_555
H10 C12 1_555 1_555
Ag2 N3 1_555 1_555
N3 C13 1_555 1_555
N4 C18 1_555 1_555
C13 H11 1_555 1_555
C14 C13 1_555 1_555
H12 C14 1_555 1_555
C15 C14 1_555 1_555
C16 C15 1_555 1_555
H13 C16 1_555 1_555
C17 N3 1_555 1_555
H14 C17 1_555 1_555
C18 H15 1_555 1_555
C19 C18 1_555 1_555
H16 C19 1_555 1_555
C20 C15 1_555 1_555
C21 C20 1_555 1_555
H17 C21 1_555 1_555
C22 N4 1_555 1_555
H18 C22 1_555 1_555
O3 H19 1_555 1_555
H20 O3 1_555 1_555
Ag3 N5 1_555 1_555
N5 C23 1_555 1_555
N6 C28 1_555 1_555
O4 Ag3 1_555 1_555
O5 C33 1_555 1_555
O6 C36 1_555 1_555
O7 C36 1_555 1_555
C23 H21 1_555 1_555
C24 C23 1_555 1_555
H22 C24 1_555 1_555
C25 C24 1_555 1_555
C26 C25 1_555 1_555
H23 C26 1_555 1_555
C27 N5 1_555 1_555
H24 C27 1_555 1_555
C28 H25 1_555 1_555
C29 C28 1_555 1_555
H26 C29 1_555 1_555
C30 C25 1_555 1_555
C31 C30 1_555 1_555
H27 C31 1_555 1_555
C32 N6 1_555 1_555
H28 C32 1_555 1_555
C33 O4 1_555 1_555
C34 C33 1_555 1_555
H29 C34 1_555 1_555
H30 C34 1_555 1_555
C35 C34 1_555 1_555
H31 C35 1_555 1_555
H32 C35 1_555 1_555
C36 C35 1_555 1_555
O8 H33 1_555 1_555
H34 O8 1_555 1_555
O9 H35 1_555 1_555
H36 O9 1_555 1_555
O10 H37 1_555 1_555
H38 O10 1_555 1_555
O11 H39 1_555 1_555
H40 O11 1_555 1_555
O12 H41 1_555 1_555
H42 O12 1_555 1_555
O13 H43 1_555 1_555
H44 O13 1_555 1_555
O14 H45 1_555 1_555
H46 O14 1_555 1_555
O15 H47 1_555 1_555
H48 O15 1_555 1_555
O16 H49 1_555 1_555
H50 O16 1_555 1_555
Ag1C N2 1_555 1_555
N2C Ag1 1_555 1_555
O1B C11B 1_555 1_555
O2B C11B 1_555 1_555
C11B C12B 1_555 1_555
C12B C12 1_555 1_555
H9B C12B 1_555 1_555
H10B C12B 1_555 1_555
Ag2C N4 1_555 1_555
N4C Ag2 1_555 1_555
Ag3C N6 1_555 1_555
N6C Ag3 1_555 1_555
C4 C5 1_555 1_555
C7 C8 1_555 1_555
C9 C10 1_555 1_555
C16 C17 1_555 1_555
C19 C20 1_555 1_555
C21 C22 1_555 1_555
C26 C27 1_555 1_555
C29 C30 1_555 1_555
C31 C32 1_555 1_555

#END
