
#######################################################################
#
#                 Cambridge Crystallographic Data Centre
#                                CCDC 
#
#######################################################################
#
# If this CIF has been generated from an entry in the Cambridge 
# Structural Database, then it will include bibliographic, chemical, 
# crystal, experimental, refinement or atomic coordinate data resulting 
# from the CCDC's data processing and validation procedures.
#
#######################################################################

data_VIGGAV
_symmetry_cell_setting           triclinic
_symmetry_space_group_name_H-M   'P -1'
_symmetry_Int_Tables_number      2
_space_group_name_Hall           '-P 1'
loop_
_symmetry_equiv_pos_site_id
_symmetry_equiv_pos_as_xyz
1 x,y,z
2 -x,-y,-z
_cell_length_a                   13.924(4)
_cell_length_b                   14.118(3)
_cell_length_c                   14.651(4)
_cell_angle_alpha                104.30(2)
_cell_angle_beta                 116.29(3)
_cell_angle_gamma                102.62(2)
_cell_volume                     2317.13
loop_
_atom_site_label
_atom_site_type_symbol
_atom_site_fract_x
_atom_site_fract_y
_atom_site_fract_z
Cd1 Cd 0.22328(14) 1.12818(13) 0.32697(15)
O1 O 0.0276(14) 1.0692(12) 0.4002(16)
H1 H -0.0099 1.0486 0.3326
O2 O 0.4781(13) 1.2729(12) 0.5645(12)
H2 H 0.4930 1.2566 0.5160
O3 O 0.0663(15) 1.0679(12) 0.1561(14)
O4 O -0.0744(15) 1.0148(17) 0.1902(18)
O5 O 0.3362(15) 1.1423(14) 0.2586(17)
O6 O 0.5133(18) 1.2204(19) 0.4099(19)
N1 N 0.1413(15) 1.1306(12) 0.4406(17)
N2 N 0.3632(19) 1.2139(19) 0.523(2)
N3 N 0.2210(14) 0.3023(13) 0.3440(13)
N4 N 0.2203(16) 0.9595(15) 0.3256(17)
C1 C 0.2090(18) 1.1674(16) 0.5462(19)
C2 C 0.3324(18) 1.2303(18) 0.588(2)
C3 C 0.404(3) 1.301(2) 0.704(2)
H3 H 0.4394 1.3708 0.7086
H4 H 0.4667 1.2778 0.7397
C4 C 0.348(3) 1.312(3) 0.772(3)
H5 H 0.4073 1.3416 0.8498
H6 H 0.3094 1.3612 0.7582
C5 C 0.267(3) 1.214(3) 0.744(3)
H7 H 0.2355 1.2242 0.7916
H8 H 0.3076 1.1666 0.7608
C6 C 0.165(2) 1.159(2) 0.622(3)
H9 H 0.1276 1.0848 0.6055
H10 H 0.1088 1.1914 0.6113
C7 C -0.034(2) 1.0304(19) 0.137(3)
H11 H -0.0906 1.0101 0.0628
C8 C 0.443(3) 1.180(2) 0.311(3)
H12 H 0.4753 1.1776 0.2672
C9 C 0.3033(19) 0.9283(18) 0.328(2)
H13 H 0.3688 0.9780 0.3412
C10 C 0.3009(19) 0.8271(18) 0.314(2)
H14 H 0.3650 0.8123 0.3205
C11 C 0.207(2) 0.7498(17) 0.291(2)
C12 C 0.1209(16) 0.7796(16) 0.2930(18)
H15 H 0.0583 0.7316 0.2865
C13 C 0.127(2) 0.8819(18) 0.3049(18)
H16 H 0.0638 0.8981 0.2984
C14 C 0.209(2) 0.6440(15) 0.284(2)
H17 H 0.1400 0.5924 0.2154
H18 H 0.2748 0.6394 0.2794
C15 C 0.2133(18) 0.6119(15) 0.3736(19)
H19 H 0.1470 0.6155 0.3788
H20 H 0.2822 0.6625 0.4429
C16 C 0.2144(18) 0.5031(16) 0.3611(18)
C17 C 0.1163(18) 0.4163(16) 0.3216(19)
H21 H 0.0465 0.4242 0.3042
C18 C 0.1225(18) 0.3187(15) 0.3083(19)
H22 H 0.0538 0.2604 0.2721
C19 C 0.319(2) 0.3861(16) 0.384(2)
H23 H 0.3898 0.3783 0.4074
C20 C 0.3115(18) 0.4803(17) 0.389(2)
H24 H 0.3794 0.5357 0.4144
Cd1_2 Cd 0.22328(14) 0.12818(13) 0.32697(15)
N3_2 N 0.2210(14) 1.3023(13) 0.3440(13)
Cd2 Cd 0.68339(15) 0.29081(14) 0.03974(17)
N5 N 0.8052(17) 0.3608(15) 0.234(2)
N6 N 0.7030(18) 0.1634(15) 0.123(2)
N7 N 0.8417(13) 0.2865(14) 0.0190(16)
N8 N 1.5268(14) 0.2873(14) 0.0641(16)
O7 O 0.8715(12) 0.4671(12) 0.3092(12)
H25 H 0.8650 0.5054 0.2747
O8 O 0.6448(12) 0.0573(12) 0.0601(13)
H26 H 0.6116 0.0472 -0.0057
O9 O 0.5678(17) 0.198(2) -0.1365(16)
O10 O 0.5510(19) 0.0299(17) -0.1439(19)
O11 O 0.6895(17) 0.4453(18) 0.022(2)
O12 O 0.846(2) 0.557(2) 0.183(3)
C21 C 0.815(2) 0.306(2) 0.286(2)
C22 C 0.763(3) 0.198(3) 0.234(3)
C23 C 0.7498(18) 0.1110(17) 0.2704(19)
H27 H 0.7935 0.0702 0.2573
H28 H 0.6691 0.0647 0.2302
C24 C 0.797(2) 0.162(2) 0.397(3)
H29 H 0.7387 0.1810 0.4078
H30 H 0.8128 0.1107 0.4297
C25 C 0.902(3) 0.255(3) 0.452(3)
H31 H 0.9582 0.2333 0.4397
H32 H 0.9324 0.2799 0.5307
C26 C 0.893(3) 0.350(3) 0.417(3)
H33 H 0.9696 0.3976 0.4424
H34 H 0.8588 0.3879 0.4499
C27 C 0.536(2) 0.097(3) -0.184(3)
H35 H 0.4945 0.0703 -0.2612
C28 C 0.771(3) 0.543(3) 0.095(4)
H36 H 0.7672 0.5999 0.0742
C29 C 0.8493(19) 0.1905(17) -0.015(2)
H37 H 0.7908 0.1298 -0.0330
C30 C 0.9395(17) 0.1821(18) -0.0237(19)
H38 H 0.9448 0.1162 -0.0409
C31 C 1.0218(17) 0.2644(18) -0.0085(18)
C32 C 1.0154(16) 0.3644(15) 0.0302(16)
H39 H 1.0735 0.4261 0.0490
C33 C 0.9230(18) 0.3684(17) 0.039(2)
H40 H 0.9182 0.4340 0.0615
C34 C 1.1272(15) 0.2648(18) -0.0148(18)
H41 H 1.1069 0.1990 -0.0722
H42 H 1.1497 0.3217 -0.0361
C35 C 1.2273(18) 0.2780(18) 0.0902(18)
H43 H 1.2056 0.2202 0.1107
H44 H 1.2467 0.3431 0.1482
C36 C 1.3342(19) 0.2809(19) 0.0833(19)
C37 C 1.428(2) 0.372(2) 0.129(2)
H45 H 1.4292 0.4359 0.1668
C38 C 1.516(2) 0.369(2) 0.119(3)
H46 H 1.5791 0.4327 0.1554
C39 C 1.4378(17) 0.2009(17) 0.018(2)
H47 H 1.4387 0.1394 -0.0224
C40 C 1.3417(14) 0.1941(17) 0.0262(17)
H48 H 1.2811 0.1291 -0.0081
Cd2_2 Cd 1.68339(15) 0.29081(14) 0.03974(17)
N8_2 N 0.5268(14) 0.2873(14) 0.0641(16)
loop_
_geom_bond_atom_site_label_1
_geom_bond_atom_site_label_2
_geom_bond_site_symmetry_1
_geom_bond_site_symmetry_2
Cd1 O3 1_555 1_555
O1 H1 1_555 1_555
O2 H2 1_555 1_555
O3 C7 1_555 1_555
O4 C7 1_555 1_555
O5 Cd1 1_555 1_555
O6 C8 1_555 1_555
N1 Cd1 1_555 1_555
N2 Cd1 1_555 1_555
N3 C18 1_555 1_555
N4 Cd1 1_555 1_555
C1 N1 1_555 1_555
C2 N2 1_555 1_555
C3 C2 1_555 1_555
H3 C3 1_555 1_555
H4 C3 1_555 1_555
C4 C3 1_555 1_555
H5 C4 1_555 1_555
H6 C4 1_555 1_555
C5 C4 1_555 1_555
H7 C5 1_555 1_555
H8 C5 1_555 1_555
C6 C1 1_555 1_555
H9 C6 1_555 1_555
H10 C6 1_555 1_555
C7 H11 1_555 1_555
C8 O5 1_555 1_555
H12 C8 1_555 1_555
C9 N4 1_555 1_555
H13 C9 1_555 1_555
C10 C9 1_555 1_555
H14 C10 1_555 1_555
C11 C10 1_555 1_555
C12 C11 1_555 1_555
H15 C12 1_555 1_555
C13 N4 1_555 1_555
H16 C13 1_555 1_555
C14 C11 1_555 1_555
H17 C14 1_555 1_555
H18 C14 1_555 1_555
C15 C14 1_555 1_555
H19 C15 1_555 1_555
H20 C15 1_555 1_555
C16 C15 1_555 1_555
C17 C16 1_555 1_555
H21 C17 1_555 1_555
C18 C17 1_555 1_555
H22 C18 1_555 1_555
C19 N3 1_555 1_555
H23 C19 1_555 1_555
C20 C16 1_555 1_555
H24 C20 1_555 1_555
Cd2 N5 1_555 1_555
N5 O7 1_555 1_555
N6 Cd2 1_555 1_555
N7 Cd2 1_555 1_555
N8 C38 1_555 1_555
O7 H25 1_555 1_555
O8 N6 1_555 1_555
H26 O8 1_555 1_555
O9 Cd2 1_555 1_555
O10 C27 1_555 1_555
O11 Cd2 1_555 1_555
O12 C28 1_555 1_555
C21 N5 1_555 1_555
C22 N6 1_555 1_555
C23 C22 1_555 1_555
H27 C23 1_555 1_555
H28 C23 1_555 1_555
C24 C23 1_555 1_555
H29 C24 1_555 1_555
H30 C24 1_555 1_555
C25 C24 1_555 1_555
H31 C25 1_555 1_555
H32 C25 1_555 1_555
C26 C21 1_555 1_555
H33 C26 1_555 1_555
H34 C26 1_555 1_555
C27 O9 1_555 1_555
H35 C27 1_555 1_555
C28 O11 1_555 1_555
H36 C28 1_555 1_555
C29 N7 1_555 1_555
H37 C29 1_555 1_555
C30 C29 1_555 1_555
H38 C30 1_555 1_555
C31 C30 1_555 1_555
C32 C31 1_555 1_555
H39 C32 1_555 1_555
C33 N7 1_555 1_555
H40 C33 1_555 1_555
C34 C31 1_555 1_555
H41 C34 1_555 1_555
H42 C34 1_555 1_555
C35 C34 1_555 1_555
H43 C35 1_555 1_555
H44 C35 1_555 1_555
C36 C35 1_555 1_555
C37 C36 1_555 1_555
H45 C37 1_555 1_555
C38 C37 1_555 1_555
H46 C38 1_555 1_555
C39 N8 1_555 1_555
H47 C39 1_555 1_555
C40 C36 1_555 1_555
H48 C40 1_555 1_555
Cd1_2 N3 1_555 1_555
N3_2 Cd1 1_555 1_555
Cd2_2 N8 1_555 1_555
N8_2 Cd2 1_555 1_555
O1 N1 1_555 1_555
O2 N2 1_555 1_555
C1 C2 1_555 1_555
C5 C6 1_555 1_555
C12 C13 1_555 1_555
C19 C20 1_555 1_555
C21 C22 1_555 1_555
C25 C26 1_555 1_555
C32 C33 1_555 1_555
C39 C40 1_555 1_555

#END
