
#######################################################################
#
#                 Cambridge Crystallographic Data Centre
#                                CCDC 
#
#######################################################################
#
# If this CIF has been generated from an entry in the Cambridge 
# Structural Database, then it will include bibliographic, chemical, 
# crystal, experimental, refinement or atomic coordinate data resulting 
# from the CCDC's data processing and validation procedures.
#
#######################################################################

data_VIGGOJ
_symmetry_cell_setting           monoclinic
_symmetry_space_group_name_H-M   'C 2/c'
_symmetry_Int_Tables_number      15
_space_group_name_Hall           '-C 2yn'
loop_
_symmetry_equiv_pos_site_id
_symmetry_equiv_pos_as_xyz
1 x,y,z
2 -x,y,1/2-z
3 1/2+x,1/2+y,z
4 1/2-x,1/2+y,1/2-z
5 -x,-y,-z
6 x,-y,1/2+z
7 1/2-x,1/2-y,-z
8 1/2+x,1/2-y,1/2+z
_cell_length_a                   27.588(6)
_cell_length_b                   10.349(2)
_cell_length_c                   27.614(6)
_cell_angle_alpha                90
_cell_angle_beta                 110.52(3)
_cell_angle_gamma                90
_cell_volume                     7383.78
loop_
_atom_site_label
_atom_site_type_symbol
_atom_site_fract_x
_atom_site_fract_y
_atom_site_fract_z
Pb1 Pb 0.770885(10) -0.10855(3) 0.612510(10)
Pb2 Pb 0.884646(10) 0.22505(2) 0.624633(10)
Pb3 Pb 1.0000 0.24376(4) 0.7500
C1 C 0.7217(3) 0.0834(7) 0.8373(3)
H1 H 0.7344 0.0662 0.8726
C2 C 0.7099(3) -0.0208(7) 0.8030(3)
H2 H 0.7152 -0.1051 0.8154
C3 C 0.6904(3) 0.0030(7) 0.7509(3)
H3 H 0.6818 -0.0650 0.7274
C4 C 0.6837(3) 0.1329(7) 0.7334(3)
C5 C 0.6640(3) 0.1709(7) 0.6804(3)
C6 C 0.6576(3) 0.2980(7) 0.6648(3)
C7 C 0.6709(3) 0.4001(7) 0.7019(3)
C8 C 0.6647(4) 0.5320(7) 0.6889(3)
H4 H 0.6514 0.5581 0.6545
C9 C 0.6786(4) 0.6210(8) 0.7280(4)
H5 H 0.6750 0.7087 0.7202
C10 C 0.6978(3) 0.5820(7) 0.7787(3)
H6 H 0.7066 0.6448 0.8044
C11 C 0.6908(3) 0.3669(7) 0.7548(3)
C12 C 0.6973(3) 0.2321(6) 0.7707(3)
C13 C 0.6307(3) 0.1849(7) 0.5964(3)
C14 C 0.6095(3) 0.1388(7) 0.5428(3)
C15 C 0.5738(3) 0.0373(8) 0.5310(3)
H7 H 0.5634 0.0016 0.5567
C16 C 0.5540(3) -0.0099(8) 0.4811(3)
H8 H 0.5307 -0.0784 0.4732
C17 C 0.5689(3) 0.0447(8) 0.4437(3)
H9 H 0.5551 0.0138 0.4100
C18 C 0.6030(3) 0.1420(6) 0.4544(2)
H10 H 0.6118 0.1793 0.4279
C19 C 0.6244(3) 0.1859(7) 0.5027(3)
C20 C 0.6622(3) 0.2942(7) 0.5081(3)
C21 C 0.6427(2) 0.3906(6) 0.4758(2)
H11 H 0.6094 0.3845 0.4514
C22 C 0.6708(3) 0.4966(8) 0.4783(3)
H12 H 0.6563 0.5650 0.4562
C23 C 0.7204(3) 0.5081(8) 0.5125(3)
H13 H 0.7391 0.5839 0.5144
C24 C 0.7419(3) 0.4040(8) 0.5441(3)
H14 H 0.7761 0.4084 0.5664
C25 C 0.7134(3) 0.2936(7) 0.5430(3)
C26 C 0.7395(3) 0.1801(9) 0.5761(3)
C27 C 0.8339(3) 0.2947(7) 0.9149(3)
C28 C 0.8883(3) 0.2472(7) 0.9257(3)
C29 C 0.9167(4) 0.1884(8) 0.9723(3)
H15 H 0.9015 0.1751 0.9971
C30 C 0.9667(4) 0.1498(9) 0.9822(4)
H16 H 0.9855 0.1139 1.0142
C31 C 0.9892(3) 0.1638(8) 0.9452(3)
H17 H 1.0229 0.1351 0.9518
C32 C 0.9617(3) 0.2205(7) 0.8981(3)
C33 C 0.9123(3) 0.2648(7) 0.8888(3)
H18 H 0.8946 0.3068 0.8579
C34 C 0.9852(3) 0.2377(7) 0.8567(3)
C35 C 0.9083(3) -0.0216(7) 0.6903(3)
C36 C 0.9205(3) -0.1502(7) 0.7171(3)
C37 C 0.9441(3) -0.1588(7) 0.7699(3)
H19 H 0.9532 -0.0838 0.7896
C38 C 0.9546(3) -0.2793(8) 0.7942(3)
H20 H 0.9695 -0.2842 0.8300
C39 C 0.9430(3) -0.3909(7) 0.7651(3)
H21 H 0.9506 -0.4709 0.7814
C40 C 0.9201(3) -0.3845(7) 0.7118(3)
C41 C 0.9077(3) -0.2647(6) 0.6874(3)
H22 H 0.8910 -0.2602 0.6518
C42 C 0.9064(3) -0.5057(7) 0.6796(3)
N1 N 0.7157(2) 0.2045(6) 0.8221(2)
N2 N 0.7045(2) 0.4589(5) 0.7926(2)
N3 N 0.6465(3) 0.0981(6) 0.6364(2)
N4 N 0.6361(3) 0.3059(6) 0.6117(2)
H23 H 0.6280 0.3743 0.5929
O1 O 0.7157(2) 0.0754(6) 0.5690(3)
O2 O 0.7833(3) 0.1980(8) 0.6091(3)
O3 O 0.8120(2) 0.2716(6) 0.9466(3)
O4 O 0.81204(19) 0.3577(5) 0.8736(2)
O5 O 0.9624(3) 0.3064(7) 0.8182(3)
O6 O 1.0271(2) 0.1764(6) 0.8617(3)
O7 O 0.8807(2) -0.0204(5) 0.6437(2)
O8 O 0.9247(2) 0.0798(5) 0.7157(2)
O9 O 0.8754(2) -0.5020(5) 0.6346(2)
O10 O 0.9274(2) -0.6106(5) 0.6994(2)
Pb1A Pb 1.229115(10) -0.10855(3) 0.887490(10)
Pb2A Pb 1.115354(10) 0.22505(2) 0.875367(10)
C1A C 1.2783(3) 0.0834(7) 0.6627(3)
H1A H 1.2656 0.0662 0.6274
C2A C 1.2901(3) -0.0208(7) 0.6970(3)
H2A H 1.2848 -0.1051 0.6846
C3A C 1.3096(3) 0.0030(7) 0.7491(3)
H3A H 1.3182 -0.0650 0.7726
C4A C 1.3163(3) 0.1329(7) 0.7666(3)
C5A C 1.3360(3) 0.1709(7) 0.8196(3)
C6A C 1.3424(3) 0.2980(7) 0.8352(3)
C7A C 1.3291(3) 0.4001(7) 0.7981(3)
C8A C 1.3353(4) 0.5320(7) 0.8111(3)
H4A H 1.3486 0.5581 0.8455
C9A C 1.3214(4) 0.6210(8) 0.7720(4)
H5A H 1.3250 0.7087 0.7798
C10A C 1.3022(3) 0.5820(7) 0.7213(3)
H6A H 1.2934 0.6448 0.6956
C11A C 1.3092(3) 0.3669(7) 0.7452(3)
C12A C 1.3027(3) 0.2321(6) 0.7293(3)
C13A C 1.3693(3) 0.1849(7) 0.9036(3)
C14A C 1.3905(3) 0.1388(7) 0.9572(3)
C15A C 1.4262(3) 0.0373(8) 0.9690(3)
H7A H 1.4366 0.0016 0.9433
C16A C 1.4460(3) -0.0099(8) 1.0189(3)
H8A H 1.4693 -0.0784 1.0268
C17A C 1.4311(3) 0.0447(8) 1.0563(3)
H9A H 1.4449 0.0138 1.0900
C18A C 1.3970(3) 0.1420(6) 1.0456(2)
H10A H 1.3882 0.1793 1.0721
C19A C 1.3756(3) 0.1859(7) 0.9973(3)
C20A C 1.3378(3) 0.2942(7) 0.9919(3)
C21A C 1.3573(2) 0.3906(6) 1.0242(2)
H11A H 1.3906 0.3845 1.0486
C22A C 1.3292(3) 0.4966(8) 1.0217(3)
H12A H 1.3437 0.5650 1.0438
C23A C 1.2796(3) 0.5081(8) 0.9875(3)
H13A H 1.2609 0.5839 0.9856
C24A C 1.2581(3) 0.4040(8) 0.9559(3)
H14A H 1.2239 0.4084 0.9336
C25A C 1.2866(3) 0.2936(7) 0.9570(3)
C26A C 1.2605(3) 0.1801(9) 0.9239(3)
C27A C 1.1661(3) 0.2947(7) 0.5851(3)
C28A C 1.1117(3) 0.2472(7) 0.5743(3)
C29A C 1.0833(4) 0.1884(8) 0.5277(3)
H15A H 1.0985 0.1751 0.5029
C30A C 1.0333(4) 0.1498(9) 0.5178(4)
H16A H 1.0145 0.1139 0.4858
C31A C 1.0108(3) 0.1638(8) 0.5548(3)
H17A H 0.9771 0.1351 0.5482
C32A C 1.0383(3) 0.2205(7) 0.6019(3)
C33A C 1.0877(3) 0.2648(7) 0.6112(3)
H18A H 1.1054 0.3068 0.6421
C34A C 1.0148(3) 0.2377(7) 0.6433(3)
C35A C 1.0917(3) -0.0216(7) 0.8097(3)
C36A C 1.0795(3) -0.1502(7) 0.7829(3)
C37A C 1.0559(3) -0.1588(7) 0.7301(3)
H19A H 1.0468 -0.0838 0.7104
C38A C 1.0454(3) -0.2793(8) 0.7058(3)
H20A H 1.0305 -0.2842 0.6700
C39A C 1.0570(3) -0.3909(7) 0.7349(3)
H21A H 1.0494 -0.4709 0.7186
C40A C 1.0799(3) -0.3845(7) 0.7882(3)
C41A C 1.0923(3) -0.2647(6) 0.8126(3)
H22A H 1.1090 -0.2602 0.8482
C42A C 1.0936(3) -0.5057(7) 0.8204(3)
N1A N 1.2843(2) 0.2045(6) 0.6779(2)
N2A N 1.2955(2) 0.4589(5) 0.7074(2)
N3A N 1.3535(3) 0.0981(6) 0.8636(2)
N4A N 1.3639(3) 0.3059(6) 0.8883(2)
H23A H 1.3720 0.3743 0.9071
O1A O 1.2843(2) 0.0754(6) 0.9310(3)
O2A O 1.2167(3) 0.1980(8) 0.8909(3)
O3A O 1.1880(2) 0.2716(6) 0.5534(3)
O4A O 1.18796(19) 0.3577(5) 0.6264(2)
O5A O 1.0376(3) 0.3064(7) 0.6818(3)
O6A O 0.9729(2) 0.1764(6) 0.6383(3)
O7A O 1.1193(2) -0.0204(5) 0.8563(2)
O8A O 1.0753(2) 0.0798(5) 0.7843(2)
O9A O 1.1246(2) -0.5020(5) 0.8654(2)
O10A O 1.0726(2) -0.6106(5) 0.8006(2)
Pb1B Pb 1.270885(10) 0.39145(3) 0.612510(10)
Pb1C Pb 0.729115(10) 0.39145(3) 0.887490(10)
Pb2_2 Pb 0.884646(10) -0.77495(2) 0.624633(10)
Pb2A_2 Pb 1.115354(10) -0.77495(2) 0.875367(10)
Pb3_2 Pb 1.0000 -0.75624(4) 0.7500
N1B N 1.2157(2) -0.2955(6) 0.8221(2)
N1C N 0.7843(2) -0.2955(6) 0.6779(2)
N2B N 1.2045(2) -0.0411(5) 0.7926(2)
N2C N 0.7955(2) -0.0411(5) 0.7074(2)
O3B O 1.3120(2) -0.2284(6) 0.9466(3)
O3C O 0.6880(2) -0.2284(6) 0.5534(3)
O4B O 1.31204(19) -0.1423(5) 0.8736(2)
O4C O 0.68796(19) -0.1423(5) 0.6264(2)
O10_2 O 0.9274(2) 0.3894(5) 0.6994(2)
O10A_2 O 1.0726(2) 0.3894(5) 0.8006(2)
O11 O 1.1750(3) 0.6941(6) 0.9411(3)
H24 H 1.172(5) 0.624(6) 0.924(4)
H25 H 1.163(5) 0.677(10) 0.965(3)
O12 O 0.9602(10) -0.115(2) 0.5985(8)
H26 H 0.961(8) -0.196(4) 0.595(8)
loop_
_geom_bond_atom_site_label_1
_geom_bond_atom_site_label_2
_geom_bond_site_symmetry_1
_geom_bond_site_symmetry_2
Pb1 O1 1_555 1_555
Pb2 O2 1_555 1_555
Pb3 O5 1_555 1_555
C1 H1 1_555 1_555
C2 C1 1_555 1_555
H2 C2 1_555 1_555
C3 C2 1_555 1_555
H3 C3 1_555 1_555
C4 C3 1_555 1_555
C5 C4 1_555 1_555
C6 C5 1_555 1_555
C7 C6 1_555 1_555
C8 C7 1_555 1_555
H4 C8 1_555 1_555
C9 C8 1_555 1_555
H5 C9 1_555 1_555
C10 C9 1_555 1_555
H6 C10 1_555 1_555
C11 C7 1_555 1_555
C12 C4 1_555 1_555
C13 C14 1_555 1_555
C14 C15 1_555 1_555
C15 H7 1_555 1_555
C16 C15 1_555 1_555
H8 C16 1_555 1_555
C17 C16 1_555 1_555
H9 C17 1_555 1_555
C18 C17 1_555 1_555
H10 C18 1_555 1_555
C19 C14 1_555 1_555
C20 C19 1_555 1_555
C21 C20 1_555 1_555
H11 C21 1_555 1_555
C22 C21 1_555 1_555
H12 C22 1_555 1_555
C23 C22 1_555 1_555
H13 C23 1_555 1_555
C24 C23 1_555 1_555
H14 C24 1_555 1_555
C25 C20 1_555 1_555
C26 C25 1_555 1_555
C27 C28 1_555 1_555
C28 C29 1_555 1_555
C29 H15 1_555 1_555
C30 C29 1_555 1_555
H16 C30 1_555 1_555
C31 C30 1_555 1_555
H17 C31 1_555 1_555
C32 C31 1_555 1_555
C33 C28 1_555 1_555
H18 C33 1_555 1_555
C34 C32 1_555 1_555
C35 C36 1_555 1_555
C36 C37 1_555 1_555
C37 H19 1_555 1_555
C38 C37 1_555 1_555
H20 C38 1_555 1_555
C39 C38 1_555 1_555
H21 C39 1_555 1_555
C40 C39 1_555 1_555
C41 C36 1_555 1_555
H22 C41 1_555 1_555
C42 C40 1_555 1_555
N1 C1 1_555 1_555
N2 C10 1_555 1_555
N3 C5 1_555 1_555
N4 C6 1_555 1_555
H23 N4 1_555 1_555
O1 C26 1_555 1_555
O2 C26 1_555 1_555
O3 C27 1_555 1_555
O4 C27 1_555 1_555
O5 C34 1_555 1_555
O6 C34 1_555 1_555
O7 Pb2 1_555 1_555
O8 Pb3 1_555 1_555
O9 C42 1_555 1_555
O10 C42 1_555 1_555
O11 H24 1_555 1_555
H25 O11 1_555 1_555
O12 H26 1_555 1_555
Pb1A O1A 1_555 1_555
Pb2A O6 1_555 1_555
C1A H1A 1_555 1_555
C2A C1A 1_555 1_555
H2A C2A 1_555 1_555
C3A C2A 1_555 1_555
H3A C3A 1_555 1_555
C4A C3A 1_555 1_555
C5A C4A 1_555 1_555
C6A C5A 1_555 1_555
C7A C6A 1_555 1_555
C8A C7A 1_555 1_555
H4A C8A 1_555 1_555
C9A C8A 1_555 1_555
H5A C9A 1_555 1_555
C10A C9A 1_555 1_555
H6A C10A 1_555 1_555
C11A C7A 1_555 1_555
C12A C4A 1_555 1_555
C13A C14A 1_555 1_555
C14A C15A 1_555 1_555
C15A H7A 1_555 1_555
C16A C15A 1_555 1_555
H8A C16A 1_555 1_555
C17A C16A 1_555 1_555
H9A C17A 1_555 1_555
C18A C17A 1_555 1_555
H10A C18A 1_555 1_555
C19A C14A 1_555 1_555
C20A C19A 1_555 1_555
C21A C20A 1_555 1_555
H11A C21A 1_555 1_555
C22A C21A 1_555 1_555
H12A C22A 1_555 1_555
C23A C22A 1_555 1_555
H13A C23A 1_555 1_555
C24A C23A 1_555 1_555
H14A C24A 1_555 1_555
C25A C20A 1_555 1_555
C26A C25A 1_555 1_555
C27A C28A 1_555 1_555
C28A C29A 1_555 1_555
C29A H15A 1_555 1_555
C30A C29A 1_555 1_555
H16A C30A 1_555 1_555
C31A C30A 1_555 1_555
H17A C31A 1_555 1_555
C32A C31A 1_555 1_555
C33A C28A 1_555 1_555
H18A C33A 1_555 1_555
C34A C32A 1_555 1_555
C35A C36A 1_555 1_555
C36A C37A 1_555 1_555
C37A H19A 1_555 1_555
C38A C37A 1_555 1_555
H20A C38A 1_555 1_555
C39A C38A 1_555 1_555
H21A C39A 1_555 1_555
C40A C39A 1_555 1_555
C41A C36A 1_555 1_555
H22A C41A 1_555 1_555
C42A C40A 1_555 1_555
N1A C1A 1_555 1_555
N2A C10A 1_555 1_555
N3A C5A 1_555 1_555
N4A C6A 1_555 1_555
H23A N4A 1_555 1_555
O1A C26A 1_555 1_555
O2A Pb2A 1_555 1_555
O3A C27A 1_555 1_555
O4A C27A 1_555 1_555
O5A Pb3 1_555 1_555
O6A Pb2 1_555 1_555
O7A Pb2A 1_555 1_555
O8A Pb3 1_555 1_555
O9A C42A 1_555 1_555
O10A C42A 1_555 1_555
Pb1B N1A 1_555 1_555
Pb1C N1 1_555 1_555
Pb2_2 O10 1_555 1_555
Pb2A_2 O10A 1_555 1_555
Pb3_2 O10 1_555 1_555
N1B Pb1A 1_555 1_555
N1C Pb1 1_555 1_555
N2B Pb1A 1_555 1_555
N2C Pb1 1_555 1_555
O3B Pb1A 1_555 1_555
O3C Pb1 1_555 1_555
O4B Pb1A 1_555 1_555
O4C Pb1 1_555 1_555
O10_2 Pb2 1_555 1_555
O10A_2 Pb3 1_555 1_555
Pb3 O10_2 1_555 1_555
C11 C12 1_555 1_555
C11 N2 1_555 1_555
C12 N1 1_555 1_555
C13 N3 1_555 1_555
C13 N4 1_555 1_555
C18 C19 1_555 1_555
C24 C25 1_555 1_555
C32 C33 1_555 1_555
C35 O7 1_555 1_555
C35 O8 1_555 1_555
C40 C41 1_555 1_555
N2 Pb1C 1_555 1_555
O3 Pb1C 1_555 1_555
O4 Pb1C 1_555 1_555
Pb2A O10A_2 1_555 1_555
C11A C12A 1_555 1_555
C11A N2A 1_555 1_555
C12A N1A 1_555 1_555
C13A N3A 1_555 1_555
C13A N4A 1_555 1_555
C18A C19A 1_555 1_555
C24A C25A 1_555 1_555
C26A O2A 1_555 1_555
C32A C33A 1_555 1_555
C34A O5A 1_555 1_555
C34A O6A 1_555 1_555
C35A O7A 1_555 1_555
C35A O8A 1_555 1_555
C40A C41A 1_555 1_555
N2A Pb1B 1_555 1_555
O3A Pb1B 1_555 1_555
O4A Pb1B 1_555 1_555
O10A Pb3_2 1_555 1_555

#END
