
#######################################################################
#
#                 Cambridge Crystallographic Data Centre
#                                CCDC 
#
#######################################################################
#
# If this CIF has been generated from an entry in the Cambridge 
# Structural Database, then it will include bibliographic, chemical, 
# crystal, experimental, refinement or atomic coordinate data resulting 
# from the CCDC's data processing and validation procedures.
#
#######################################################################

data_VIGHOK
_symmetry_cell_setting           monoclinic
_symmetry_space_group_name_H-M   'P 2/n'
_symmetry_Int_Tables_number      13
_space_group_name_Hall           '-P 2yac'
loop_
_symmetry_equiv_pos_site_id
_symmetry_equiv_pos_as_xyz
1 x,y,z
2 1/2-x,y,1/2-z
3 -x,-y,-z
4 1/2+x,-y,1/2+z
_cell_length_a                   12.036(2)
_cell_length_b                   16.838(3)
_cell_length_c                   40.383(8)
_cell_angle_alpha                90
_cell_angle_beta                 90.46(3)
_cell_angle_gamma                90
_cell_volume                     8183.84
loop_
_atom_site_label
_atom_site_type_symbol
_atom_site_fract_x
_atom_site_fract_y
_atom_site_fract_z
Zn1 Zn 0.42320(6) 0.58115(4) 0.171786(14)
Zn2 Zn 0.27242(6) 0.58586(4) 0.100398(15)
C1 C 0.1777(6) 0.6273(3) 0.16284(16)
O1 O 0.2703(4) 0.6206(2) 0.17713(10)
O2 O 0.1615(4) 0.6040(3) 0.13361(11)
C2 C 0.0865(6) 0.6620(3) 0.18103(14)
C3 C -0.0179(6) 0.6693(3) 0.16735(15)
H1 H -0.0288 0.6519 0.1457
C4 C -0.1081(6) 0.7012(4) 0.18401(17)
C5 C -0.0837(6) 0.7276(3) 0.21600(16)
C6 C 0.0192(6) 0.7255(3) 0.23190(15)
C7 C 0.1029(6) 0.6913(3) 0.21373(15)
H2 H 0.1732 0.6873 0.2233
C8 C -0.2212(6) 0.7061(4) 0.1686(2)
H3 H -0.2191 0.6845 0.1466
H4 H -0.2444 0.7605 0.1677
H5 H -0.2727 0.6762 0.1817
C9 C 0.0396(6) 0.7554(4) 0.26641(15)
H6 H 0.1163 0.7478 0.2722
H7 H -0.0063 0.7265 0.2816
H8 H 0.0217 0.8109 0.2675
C10 C -0.2500 0.7135(5) 0.2500
H9 H -0.2500 0.6582 0.2500
C11 C -0.2032(6) 0.8369(4) 0.2404(2)
H10 H -0.1656 0.8813 0.2326
N1 N -0.1756(4) 0.7590(3) 0.23493(12)
C12 C 0.4133(6) 0.4531(3) 0.12028(17)
O3 O 0.4531(4) 0.4868(2) 0.14583(11)
O4 O 0.3426(4) 0.4824(2) 0.10117(10)
C13 C 0.4616(5) 0.3734(3) 0.11179(15)
C14 C 0.5688(6) 0.2578(4) 0.1273(2)
C15 C 0.5281(6) 0.3335(4) 0.13409(17)
H11 H 0.5462 0.3576 0.1541
C16 C 0.5357(6) 0.2261(3) 0.0976(2)
C17 C 0.4730(7) 0.2627(4) 0.07348(18)
C18 C 0.4328(6) 0.3378(3) 0.08235(17)
H12 H 0.3852 0.3644 0.0679
C19 C 0.6412(7) 0.2162(4) 0.1530(2)
H13 H 0.6526 0.2508 0.1716
H14 H 0.7116 0.2032 0.1434
H15 H 0.6051 0.1685 0.1602
C20 C 0.4433(8) 0.2224(4) 0.04150(19)
H16 H 0.4761 0.1705 0.0410
H17 H 0.4707 0.2532 0.0233
H18 H 0.3640 0.2178 0.0397
C21 C 0.5234(6) 0.0782(5) 0.10099(17)
H19 H 0.4572 0.0775 0.1127
C22 C 0.6722(9) 0.1220(5) 0.0743(3)
H20 H 0.7259 0.1549 0.0652
C23 C 0.6703(9) 0.0418(5) 0.0752(3)
H21 H 0.7232 0.0093 0.0654
C24 C 0.5561(6) -0.0661(3) 0.0998(2)
C25 C 0.5790(6) -0.0936(4) 0.13102(19)
C26 C 0.5469(6) -0.1700(4) 0.13756(18)
H22 H 0.5621 -0.1910 0.1584
C27 C 0.4932(6) -0.2171(3) 0.11475(17)
C28 C 0.4738(7) -0.1859(4) 0.08357(18)
H23 H 0.4376 -0.2170 0.0678
C29 C 0.5062(8) -0.1104(4) 0.07515(19)
C30 C 0.6305(8) -0.0425(4) 0.1574(2)
H24 H 0.6393 -0.0729 0.1774
H25 H 0.5833 0.0023 0.1616
H26 H 0.7018 -0.0242 0.1502
C31 C 0.4883(9) -0.0782(4) 0.04009(19)
H27 H 0.5160 -0.0248 0.0389
H28 H 0.4104 -0.0785 0.0348
H29 H 0.5272 -0.1110 0.0246
O5 O 0.4870(3) -0.3271(2) 0.15112(11)
O6 O 0.3869(4) -0.3319(2) 0.10418(10)
C32 C 0.4527(6) -0.2980(3) 0.12394(17)
N2 N 0.5771(6) 0.1435(3) 0.09002(17)
N3 N 0.5827(7) 0.0153(3) 0.09196(18)
C33 C 0.5232(8) 0.5459(4) 0.23180(16)
C34 C 0.5207(6) 0.5088(3) 0.26614(14)
C35 C 0.4244(6) 0.4803(3) 0.27868(15)
H30 H 0.3595 0.4853 0.2662
C36 C 0.4192(6) 0.4442(3) 0.30919(14)
C37 C 0.5184(7) 0.4394(3) 0.32701(13)
C38 C 0.6172(7) 0.4682(4) 0.31569(15)
C39 C 0.6186(6) 0.5043(3) 0.28495(15)
H31 H 0.6843 0.5256 0.2768
C40 C 0.3118(6) 0.4109(4) 0.32209(15)
H32 H 0.2537 0.4195 0.3061
H33 H 0.2931 0.4371 0.3424
H34 H 0.3201 0.3550 0.3260
C41 C 0.7251(6) 0.4628(4) 0.33481(16)
H35 H 0.7833 0.4872 0.3223
H36 H 0.7431 0.4081 0.3387
H37 H 0.7175 0.4898 0.3556
C42 C 0.5245(5) 0.4310(3) 0.38824(16)
H38 H 0.5248 0.4852 0.3927
C43 C 0.5245(7) 0.3176(4) 0.36173(18)
H39 H 0.5240 0.2800 0.3448
C44 C 0.5319(7) 0.3035(4) 0.39402(19)
H40 H 0.5371 0.2536 0.4038
C45 C 0.5532(7) 0.3850(3) 0.44589(14)
C46 C 0.4659(6) 0.3853(3) 0.46730(16)
C47 C 0.4930(6) 0.3955(3) 0.50097(14)
H41 H 0.4364 0.3978 0.5165
C48 C 0.5997(7) 0.4022(3) 0.51112(16)
C49 C 0.6860(6) 0.3974(3) 0.48818(16)
H42 H 0.7594 0.3988 0.4955
C50 C 0.6633(7) 0.3907(4) 0.45475(16)
C51 C 0.3440(6) 0.3748(4) 0.45627(16)
H43 H 0.2967 0.3770 0.4753
H44 H 0.3352 0.3243 0.4455
H45 H 0.3240 0.4164 0.4411
C52 C 0.7568(7) 0.3880(5) 0.43023(18)
H46 H 0.8265 0.3935 0.4417
H47 H 0.7483 0.4306 0.4146
H48 H 0.7552 0.3381 0.4187
C53 C 0.6230(9) 0.4120(4) 0.54766(17)
N4 N 0.5178(4) 0.3986(3) 0.35821(12)
N5 N 0.5308(5) 0.3741(3) 0.41064(12)
O7 O 0.6116(5) 0.5760(3) 0.22134(10)
O8 O 0.7288(5) 0.4037(3) 0.55536(10)
O9 O 0.4334(4) 0.5431(2) 0.21550(10)
O10 O 0.5493(5) 0.4265(3) 0.56753(12)
C1A C -0.6777(6) 0.6273(3) 0.33716(16)
O1A O -0.7703(4) 0.6206(2) 0.32287(10)
O2A O -0.6615(4) 0.6040(3) 0.36639(11)
C2A C -0.5865(6) 0.6620(3) 0.31897(14)
C3A C -0.4821(6) 0.6693(3) 0.33265(15)
H1A H -0.4712 0.6519 0.3543
C4A C -0.3919(6) 0.7012(4) 0.31599(17)
C5A C -0.4163(6) 0.7276(3) 0.28400(16)
C6A C -0.5192(6) 0.7255(3) 0.26810(15)
C7A C -0.6029(6) 0.6913(3) 0.28627(15)
H2A H -0.6732 0.6873 0.2767
C8A C -0.2788(6) 0.7061(4) 0.3314(2)
H3A H -0.2809 0.6845 0.3534
H4A H -0.2556 0.7605 0.3323
H5A H -0.2273 0.6762 0.3183
C9A C -0.5396(6) 0.7554(4) 0.23359(15)
H6A H -0.6163 0.7478 0.2278
H7A H -0.4937 0.7265 0.2184
H8A H -0.5217 0.8109 0.2325
C11A C -0.2968(6) 0.8369(4) 0.2596(2)
H10A H -0.3344 0.8813 0.2674
N1A N -0.3244(4) 0.7590(3) 0.26507(12)
Zn1A Zn -0.92320(6) 0.58115(4) 0.328214(14)
Zn2A Zn -0.77242(6) 0.58586(4) 0.399602(15)
C12A C -0.9133(6) 0.4531(3) 0.37972(17)
O3A O -0.9531(4) 0.4868(2) 0.35417(11)
O4A O -0.8426(4) 0.4824(2) 0.39883(10)
C13A C -0.9616(5) 0.3734(3) 0.38821(15)
C14A C -1.0688(6) 0.2578(4) 0.3727(2)
C15A C -1.0281(6) 0.3335(4) 0.36591(17)
H11A H -1.0462 0.3576 0.3459
C16A C -1.0357(6) 0.2261(3) 0.4024(2)
C17A C -0.9730(7) 0.2627(4) 0.42652(18)
C18A C -0.9328(6) 0.3378(3) 0.41765(17)
H12A H -0.8852 0.3644 0.4321
C19A C -1.1412(7) 0.2162(4) 0.3470(2)
H13A H -1.1526 0.2508 0.3284
H14A H -1.2116 0.2032 0.3566
H15A H -1.1051 0.1685 0.3398
C20A C -0.9433(8) 0.2224(4) 0.45850(19)
H16A H -0.9761 0.1705 0.4590
H17A H -0.9707 0.2532 0.4767
H18A H -0.8640 0.2178 0.4603
C21A C -1.0234(6) 0.0782(5) 0.39901(17)
H19A H -0.9572 0.0775 0.3873
C22A C -1.1722(9) 0.1220(5) 0.4257(3)
H20A H -1.2259 0.1549 0.4348
C23A C -1.1703(9) 0.0418(5) 0.4248(3)
H21A H -1.2232 0.0093 0.4346
C24A C -1.0561(6) -0.0661(3) 0.4002(2)
C25A C -1.0790(6) -0.0936(4) 0.36898(19)
C26A C -1.0469(6) -0.1700(4) 0.36244(18)
H22A H -1.0621 -0.1910 0.3416
C27A C -0.9932(6) -0.2171(3) 0.38525(17)
C28A C -0.9738(7) -0.1859(4) 0.41643(18)
H23A H -0.9376 -0.2170 0.4322
C29A C -1.0062(8) -0.1104(4) 0.42485(19)
C30A C -1.1305(8) -0.0425(4) 0.3426(2)
H24A H -1.1393 -0.0729 0.3226
H25A H -1.0833 0.0023 0.3384
H26A H -1.2018 -0.0242 0.3498
C31A C -0.9883(9) -0.0782(4) 0.45991(19)
H27A H -1.0160 -0.0248 0.4611
H28A H -0.9104 -0.0785 0.4652
H29A H -1.0272 -0.1110 0.4754
O5A O -0.9870(3) -0.3271(2) 0.34888(11)
O6A O -0.8869(4) -0.3319(2) 0.39582(10)
C32A C -0.9527(6) -0.2980(3) 0.37606(17)
N2A N -1.0771(6) 0.1435(3) 0.40998(17)
N3A N -1.0827(7) 0.0153(3) 0.40804(18)
C33A C -1.0232(8) 0.5459(4) 0.26820(16)
C34A C -1.0207(6) 0.5088(3) 0.23386(14)
C35A C -0.9244(6) 0.4803(3) 0.22132(15)
H30A H -0.8595 0.4853 0.2338
C36A C -0.9192(6) 0.4442(3) 0.19081(14)
C37A C -1.0184(7) 0.4394(3) 0.17299(13)
C38A C -1.1172(7) 0.4682(4) 0.18431(15)
C39A C -1.1186(6) 0.5043(3) 0.21505(15)
H31A H -1.1843 0.5256 0.2232
C40A C -0.8118(6) 0.4109(4) 0.17791(15)
H32A H -0.7537 0.4195 0.1939
H33A H -0.7931 0.4371 0.1576
H34A H -0.8201 0.3550 0.1740
C41A C -1.2251(6) 0.4628(4) 0.16519(16)
H35A H -1.2833 0.4872 0.1777
H36A H -1.2431 0.4081 0.1613
H37A H -1.2175 0.4898 0.1444
C42A C -1.0245(5) 0.4310(3) 0.11176(16)
H38A H -1.0248 0.4852 0.1073
C43A C -1.0245(7) 0.3176(4) 0.13827(18)
H39A H -1.0240 0.2800 0.1552
C44A C -1.0319(7) 0.3035(4) 0.10598(19)
H40A H -1.0371 0.2536 0.0962
C45A C -1.0532(7) 0.3850(3) 0.05411(14)
C46A C -0.9659(6) 0.3853(3) 0.03270(16)
C47A C -0.9930(6) 0.3955(3) -0.00097(14)
H41A H -0.9364 0.3978 -0.0165
C48A C -1.0997(7) 0.4022(3) -0.01112(16)
C49A C -1.1860(6) 0.3974(3) 0.01182(16)
H42A H -1.2594 0.3988 0.0045
C50A C -1.1633(7) 0.3907(4) 0.04525(16)
C51A C -0.8440(6) 0.3748(4) 0.04373(16)
H43A H -0.7967 0.3770 0.0247
H44A H -0.8352 0.3243 0.0545
H45A H -0.8240 0.4164 0.0589
C52A C -1.2568(7) 0.3880(5) 0.06977(18)
H46A H -1.3265 0.3935 0.0583
H47A H -1.2483 0.4306 0.0854
H48A H -1.2552 0.3381 0.0813
C53A C -1.1230(9) 0.4120(4) -0.04766(17)
N4A N -1.0178(4) 0.3986(3) 0.14179(12)
N5A N -1.0308(5) 0.3741(3) 0.08936(12)
O7A O -1.1116(5) 0.5760(3) 0.27866(10)
O8A O -1.2288(5) 0.4037(3) -0.05536(10)
O9A O -0.9334(4) 0.5431(2) 0.28450(10)
O10A O -1.0493(5) 0.4265(3) -0.06753(12)
Zn1_2 Zn 0.42320(6) -0.41885(4) 0.171786(14)
Zn1A_2 Zn -0.92320(6) -0.41885(4) 0.328214(14)
Zn2_2 Zn 0.27242(6) -0.41414(4) 0.100398(15)
Zn2A_2 Zn -0.77242(6) -0.41414(4) 0.399602(15)
Zn2B Zn -1.27242(6) 0.41414(4) -0.100398(15)
Zn2C Zn 0.77242(6) 0.41414(4) 0.600398(15)
O5_2 O 0.4870(3) 0.6729(2) 0.15112(11)
O5A_2 O -0.9870(3) 0.6729(2) 0.34888(11)
O6_2 O 0.3869(4) 0.6681(2) 0.10418(10)
O6A_2 O -0.8869(4) 0.6681(2) 0.39582(10)
O8B O -0.7288(5) 0.5963(3) 0.44464(10)
O8C O 0.2288(5) 0.5963(3) 0.05536(10)
loop_
_geom_bond_atom_site_label_1
_geom_bond_atom_site_label_2
_geom_bond_site_symmetry_1
_geom_bond_site_symmetry_2
Zn1 O1 1_555 1_555
Zn2 O2 1_555 1_555
C1 O1 1_555 1_555
O2 C1 1_555 1_555
C2 C1 1_555 1_555
C3 C2 1_555 1_555
H1 C3 1_555 1_555
C4 C3 1_555 1_555
C5 C4 1_555 1_555
C6 C5 1_555 1_555
C7 C2 1_555 1_555
H2 C7 1_555 1_555
C8 C4 1_555 1_555
H3 C8 1_555 1_555
H4 C8 1_555 1_555
H5 C8 1_555 1_555
C9 C6 1_555 1_555
H6 C9 1_555 1_555
H7 C9 1_555 1_555
H8 C9 1_555 1_555
C10 H9 1_555 1_555
C11 H10 1_555 1_555
N1 C5 1_555 1_555
C12 O3 1_555 1_555
O3 Zn1 1_555 1_555
O4 Zn2 1_555 1_555
C13 C12 1_555 1_555
C14 C15 1_555 1_555
C15 C13 1_555 1_555
H11 C15 1_555 1_555
C16 C14 1_555 1_555
C17 C16 1_555 1_555
C18 C13 1_555 1_555
H12 C18 1_555 1_555
C19 C14 1_555 1_555
H13 C19 1_555 1_555
H14 C19 1_555 1_555
H15 C19 1_555 1_555
C20 C17 1_555 1_555
H16 C20 1_555 1_555
H17 C20 1_555 1_555
H18 C20 1_555 1_555
C21 H19 1_555 1_555
C22 H20 1_555 1_555
C23 C22 1_555 1_555
H21 C23 1_555 1_555
C24 C25 1_555 1_555
C25 C26 1_555 1_555
C26 H22 1_555 1_555
C27 C26 1_555 1_555
C28 C27 1_555 1_555
H23 C28 1_555 1_555
C29 C24 1_555 1_555
C30 C25 1_555 1_555
H24 C30 1_555 1_555
H25 C30 1_555 1_555
H26 C30 1_555 1_555
C31 C29 1_555 1_555
H27 C31 1_555 1_555
H28 C31 1_555 1_555
H29 C31 1_555 1_555
O5 C32 1_555 1_555
O6 C32 1_555 1_555
C32 C27 1_555 1_555
N2 C16 1_555 1_555
N3 C21 1_555 1_555
C33 C34 1_555 1_555
C34 C35 1_555 1_555
C35 H30 1_555 1_555
C36 C35 1_555 1_555
C37 C36 1_555 1_555
C38 C37 1_555 1_555
C39 C34 1_555 1_555
H31 C39 1_555 1_555
C40 C36 1_555 1_555
H32 C40 1_555 1_555
H33 C40 1_555 1_555
H34 C40 1_555 1_555
C41 C38 1_555 1_555
H35 C41 1_555 1_555
H36 C41 1_555 1_555
H37 C41 1_555 1_555
C42 H38 1_555 1_555
C43 H39 1_555 1_555
C44 C43 1_555 1_555
H40 C44 1_555 1_555
C45 C46 1_555 1_555
C46 C47 1_555 1_555
C47 H41 1_555 1_555
C48 C47 1_555 1_555
C49 C48 1_555 1_555
H42 C49 1_555 1_555
C50 C45 1_555 1_555
C51 C46 1_555 1_555
H43 C51 1_555 1_555
H44 C51 1_555 1_555
H45 C51 1_555 1_555
C52 C50 1_555 1_555
H46 C52 1_555 1_555
H47 C52 1_555 1_555
H48 C52 1_555 1_555
C53 C48 1_555 1_555
N4 C37 1_555 1_555
N5 C42 1_555 1_555
O7 C33 1_555 1_555
O8 C53 1_555 1_555
O9 Zn1 1_555 1_555
O10 C53 1_555 1_555
C1A O1A 1_555 1_555
O1A Zn1A 1_555 1_555
O2A C1A 1_555 1_555
C2A C1A 1_555 1_555
C3A C2A 1_555 1_555
H1A C3A 1_555 1_555
C4A C3A 1_555 1_555
C5A C4A 1_555 1_555
C6A C5A 1_555 1_555
C7A C2A 1_555 1_555
H2A C7A 1_555 1_555
C8A C4A 1_555 1_555
H3A C8A 1_555 1_555
H4A C8A 1_555 1_555
H5A C8A 1_555 1_555
C9A C6A 1_555 1_555
H6A C9A 1_555 1_555
H7A C9A 1_555 1_555
H8A C9A 1_555 1_555
C11A C11 1_555 1_555
H10A C11A 1_555 1_555
N1A C10 1_555 1_555
Zn1A O3A 1_555 1_555
Zn2A O2A 1_555 1_555
C12A O3A 1_555 1_555
O4A Zn2A 1_555 1_555
C13A C12A 1_555 1_555
C14A C15A 1_555 1_555
C15A C13A 1_555 1_555
H11A C15A 1_555 1_555
C16A C14A 1_555 1_555
C17A C16A 1_555 1_555
C18A C13A 1_555 1_555
H12A C18A 1_555 1_555
C19A C14A 1_555 1_555
H13A C19A 1_555 1_555
H14A C19A 1_555 1_555
H15A C19A 1_555 1_555
C20A C17A 1_555 1_555
H16A C20A 1_555 1_555
H17A C20A 1_555 1_555
H18A C20A 1_555 1_555
C21A H19A 1_555 1_555
C22A H20A 1_555 1_555
C23A C22A 1_555 1_555
H21A C23A 1_555 1_555
C24A C25A 1_555 1_555
C25A C26A 1_555 1_555
C26A H22A 1_555 1_555
C27A C26A 1_555 1_555
C28A C27A 1_555 1_555
H23A C28A 1_555 1_555
C29A C24A 1_555 1_555
C30A C25A 1_555 1_555
H24A C30A 1_555 1_555
H25A C30A 1_555 1_555
H26A C30A 1_555 1_555
C31A C29A 1_555 1_555
H27A C31A 1_555 1_555
H28A C31A 1_555 1_555
H29A C31A 1_555 1_555
O5A C32A 1_555 1_555
O6A C32A 1_555 1_555
C32A C27A 1_555 1_555
N2A C16A 1_555 1_555
N3A C21A 1_555 1_555
C33A C34A 1_555 1_555
C34A C35A 1_555 1_555
C35A H30A 1_555 1_555
C36A C35A 1_555 1_555
C37A C36A 1_555 1_555
C38A C37A 1_555 1_555
C39A C34A 1_555 1_555
H31A C39A 1_555 1_555
C40A C36A 1_555 1_555
H32A C40A 1_555 1_555
H33A C40A 1_555 1_555
H34A C40A 1_555 1_555
C41A C38A 1_555 1_555
H35A C41A 1_555 1_555
H36A C41A 1_555 1_555
H37A C41A 1_555 1_555
C42A H38A 1_555 1_555
C43A H39A 1_555 1_555
C44A C43A 1_555 1_555
H40A C44A 1_555 1_555
C45A C46A 1_555 1_555
C46A C47A 1_555 1_555
C47A H41A 1_555 1_555
C48A C47A 1_555 1_555
C49A C48A 1_555 1_555
H42A C49A 1_555 1_555
C50A C45A 1_555 1_555
C51A C46A 1_555 1_555
H43A C51A 1_555 1_555
H44A C51A 1_555 1_555
H45A C51A 1_555 1_555
C52A C50A 1_555 1_555
H46A C52A 1_555 1_555
H47A C52A 1_555 1_555
H48A C52A 1_555 1_555
C53A C48A 1_555 1_555
N4A C37A 1_555 1_555
N5A C42A 1_555 1_555
O7A C33A 1_555 1_555
O8A C53A 1_555 1_555
O9A Zn1A 1_555 1_555
O10A C53A 1_555 1_555
Zn1_2 O5 1_555 1_555
Zn1A_2 O5A 1_555 1_555
Zn2_2 O6 1_555 1_555
Zn2A_2 O6A 1_555 1_555
Zn2B O8A 1_555 1_555
Zn2C O8 1_555 1_555
O5_2 Zn1 1_555 1_555
O5A_2 Zn1A 1_555 1_555
O6_2 Zn2 1_555 1_555
O6A_2 Zn2A 1_555 1_555
O8B Zn2A 1_555 1_555
O8C Zn2 1_555 1_555
C6 C7 1_555 1_555
C10 N1 1_555 1_555
C11 N1 1_555 1_555
C12 O4 1_555 1_555
C17 C18 1_555 1_555
C21 N2 1_555 1_555
C22 N2 1_555 1_555
C23 N3 1_555 1_555
C24 N3 1_555 1_555
C28 C29 1_555 1_555
C33 O9 1_555 1_555
C38 C39 1_555 1_555
C42 N4 1_555 1_555
C43 N4 1_555 1_555
C44 N5 1_555 1_555
C45 N5 1_555 1_555
C49 C50 1_555 1_555
C5A N1A 1_555 1_555
C6A C7A 1_555 1_555
C11A N1A 1_555 1_555
C12A O4A 1_555 1_555
C17A C18A 1_555 1_555
C21A N2A 1_555 1_555
C22A N2A 1_555 1_555
C23A N3A 1_555 1_555
C24A N3A 1_555 1_555
C28A C29A 1_555 1_555
C33A O9A 1_555 1_555
C38A C39A 1_555 1_555
C42A N4A 1_555 1_555
C43A N4A 1_555 1_555
C44A N5A 1_555 1_555
C45A N5A 1_555 1_555
C49A C50A 1_555 1_555

#END
