
#######################################################################
#
#                 Cambridge Crystallographic Data Centre
#                                CCDC 
#
#######################################################################
#
# If this CIF has been generated from an entry in the Cambridge 
# Structural Database, then it will include bibliographic, chemical, 
# crystal, experimental, refinement or atomic coordinate data resulting 
# from the CCDC's data processing and validation procedures.
#
#######################################################################

data_VIGHID
_symmetry_cell_setting           monoclinic
_symmetry_space_group_name_H-M   'P 21'
_symmetry_Int_Tables_number      4
_space_group_name_Hall           'P 2yb'
loop_
_symmetry_equiv_pos_site_id
_symmetry_equiv_pos_as_xyz
1 x,y,z
2 -x,1/2+y,-z
_cell_length_a                   9.6823(4)
_cell_length_b                   9.1591(4)
_cell_length_c                   15.5664(6)
_cell_angle_alpha                90
_cell_angle_beta                 90.9110(10)
_cell_angle_gamma                90
_cell_volume                     1380.27
loop_
_atom_site_label
_atom_site_type_symbol
_atom_site_fract_x
_atom_site_fract_y
_atom_site_fract_z
N1 N 0.7994(3) 0.7525(3) 0.59984(16)
H1 H 0.8384 0.6939 0.6359
N2 N 0.7737(2) 0.9123(3) 0.49640(15)
N3 N 0.6946(2) 1.0745(3) 0.29356(14)
C1 C 0.8634(3) 0.8319(3) 0.54019(16)
C2 C 1.0095(3) 0.8323(3) 0.52143(16)
N4 N 1.0551(2) 0.9151(3) 0.45655(14)
C3 C 1.1949(3) 0.8882(3) 0.45513(18)
H2 H 1.2569 0.9289 0.4169
Cd1 Cd 0.374910(17) 0.868626(18) 0.117559(11)
Cd2 Cd 0.882020(18) 1.028690(19) 0.376920(10)
C4 C 0.1182(3) 0.9527(3) 0.22523(17)
N5 N 0.2492(2) 0.7242(3) 0.23277(16)
N6 N 0.0370(2) 0.7120(3) 0.27975(16)
H3 H -0.0447 0.7382 0.2943
C5 C 0.1343(3) 0.7997(3) 0.24748(17)
N7 N 0.1914(2) 1.0089(2) 0.16187(14)
N8 N 0.2863(3) 0.4801(3) -0.03465(18)
H4 H 0.3241 0.4021 -0.0541
N9 N 0.0262(2) 1.0448(3) 0.26047(13)
N10 N 0.5177(2) 1.0031(3) 0.20845(14)
C6 C 0.6366(3) 0.8165(3) 0.29865(16)
C7 C 0.4948(3) 0.5885(3) 0.03600(17)
N11 N 1.1091(2) 0.7549(3) 0.56162(15)
C8 C 0.6155(3) 0.9630(3) 0.26560(17)
N12 N 0.2620(2) 0.6896(3) 0.03081(16)
C9 C 0.5375(3) 1.1501(3) 0.1983(2)
H5 H 0.4860 1.2104 0.1619
C10 C 0.1365(3) 0.6474(4) -0.0031(2)
H6 H 0.0548 0.7002 0.0012
N13 N 0.5362(2) 0.7164(3) 0.30722(15)
H7 H 0.4507 0.7271 0.2928
C11 C 0.3495(3) 0.5871(3) 0.00973(18)
C12 C 0.6613(3) 0.7813(4) 0.5931(2)
H8 H 0.5914 0.7418 0.6263
N14 N 0.5920(3) 0.4982(3) 0.00735(15)
C13 C 1.2270(3) 0.7930(3) 0.5183(2)
H9 H 1.3153 0.7583 0.5308
C14 C 0.6447(3) 1.1943(3) 0.25008(19)
H10 H 0.6782 1.2892 0.2550
C15 C 0.1491(3) 0.5191(5) -0.0433(2)
H11 H 0.0795 0.4668 -0.0713
C16 C 0.0901(3) 0.5735(3) 0.2855(2)
H12 H 0.0458 0.4904 0.3056
C17 C 0.6753(3) 0.6474(3) 0.10879(18)
H13 H 0.7359 0.6922 0.1475
C18 C 0.5948(3) 0.5945(4) 0.3431(2)
H14 H 0.5505 0.5074 0.3563
C19 C 0.2203(3) 0.5829(3) 0.2559(2)
H15 H 0.2815 0.5050 0.2518
C20 C 0.0471(3) 1.1720(3) 0.21490(18)
H16 H 0.0002 1.2593 0.2234
N15 N 0.5379(2) 0.6813(3) 0.09723(14)
C21 C 0.7075(3) 0.5374(4) 0.05414(18)
H17 H 0.7943 0.4951 0.0492
C22 C 0.1464(3) 1.1503(3) 0.15595(18)
H18 H 0.1788 1.2200 0.1178
N16 N 0.7565(2) 0.7647(3) 0.32649(15)
C23 C 0.6469(3) 0.8779(4) 0.5290(2)
H19 H 0.5631 0.9161 0.5094
C24 C 0.7290(3) 0.6258(4) 0.3554(2)
H20 H 0.7939 0.5630 0.3799
Cd1A Cd 0.625090(17) 0.368626(18) -0.117559(11)
Cd2_2 Cd -0.117980(18) 1.028690(19) 0.376920(10)
Cd2A Cd 1.117980(18) 0.528690(19) 0.623080(10)
N9_2 N 1.0262(2) 1.0448(3) 0.26047(13)
N11A N 0.8909(2) 1.2549(3) 0.43838(15)
N14A N 0.4080(3) 0.9982(3) -0.00735(15)
loop_
_geom_bond_atom_site_label_1
_geom_bond_atom_site_label_2
_geom_bond_site_symmetry_1
_geom_bond_site_symmetry_2
N1 H1 1_555 1_555
N2 C1 1_555 1_555
N3 Cd2 1_555 1_555
C1 N1 1_555 1_555
C2 C1 1_555 1_555
N4 C2 1_555 1_555
C3 N4 1_555 1_555
H2 C3 1_555 1_555
Cd1 N5 1_555 1_555
Cd2 N2 1_555 1_555
C4 C5 1_555 1_555
N5 C5 1_555 1_555
N6 H3 1_555 1_555
C5 N6 1_555 1_555
N7 Cd1 1_555 1_555
N8 H4 1_555 1_555
N9 C4 1_555 1_555
N10 Cd1 1_555 1_555
C6 C8 1_555 1_555
C7 C11 1_555 1_555
N11 C2 1_555 1_555
C8 N3 1_555 1_555
N12 Cd1 1_555 1_555
C9 N10 1_555 1_555
H5 C9 1_555 1_555
C10 N12 1_555 1_555
H6 C10 1_555 1_555
N13 C6 1_555 1_555
H7 N13 1_555 1_555
C11 N8 1_555 1_555
C12 N1 1_555 1_555
H8 C12 1_555 1_555
N14 C7 1_555 1_555
C13 C3 1_555 1_555
H9 C13 1_555 1_555
C14 N3 1_555 1_555
H10 C14 1_555 1_555
C15 N8 1_555 1_555
H11 C15 1_555 1_555
C16 N6 1_555 1_555
H12 C16 1_555 1_555
C17 H13 1_555 1_555
C18 N13 1_555 1_555
H14 C18 1_555 1_555
C19 N5 1_555 1_555
H15 C19 1_555 1_555
C20 N9 1_555 1_555
H16 C20 1_555 1_555
N15 Cd1 1_555 1_555
C21 N14 1_555 1_555
H17 C21 1_555 1_555
C22 N7 1_555 1_555
H18 C22 1_555 1_555
N16 C6 1_555 1_555
C23 N2 1_555 1_555
H19 C23 1_555 1_555
C24 C18 1_555 1_555
H20 C24 1_555 1_555
Cd1A N14 1_555 1_555
Cd2_2 N9 1_555 1_555
Cd2A N11 1_555 1_555
N9_2 Cd2 1_555 1_555
N11A Cd2 1_555 1_555
N14A Cd1 1_555 1_555
N4 Cd2 1_555 1_555
C4 N7 1_555 1_555
N10 C8 1_555 1_555
C7 N15 1_555 1_555
N11 C13 1_555 1_555
N12 C11 1_555 1_555
C9 C14 1_555 1_555
C10 C15 1_555 1_555
C12 C23 1_555 1_555
C16 C19 1_555 1_555
C17 N15 1_555 1_555
C17 C21 1_555 1_555
C20 C22 1_555 1_555
N16 C24 1_555 1_555

#END
