
#######################################################################
#
#                 Cambridge Crystallographic Data Centre
#                                CCDC 
#
#######################################################################
#
# If this CIF has been generated from an entry in the Cambridge 
# Structural Database, then it will include bibliographic, chemical, 
# crystal, experimental, refinement or atomic coordinate data resulting 
# from the CCDC's data processing and validation procedures.
#
#######################################################################

data_VIGHAW
_symmetry_cell_setting           monoclinic
_symmetry_space_group_name_H-M   'C 2/c'
_symmetry_Int_Tables_number      15
_space_group_name_Hall           '-C 2yn'
loop_
_symmetry_equiv_pos_site_id
_symmetry_equiv_pos_as_xyz
1 x,y,z
2 -x,y,1/2-z
3 1/2+x,1/2+y,z
4 1/2-x,1/2+y,1/2-z
5 -x,-y,-z
6 x,-y,1/2+z
7 1/2-x,1/2-y,-z
8 1/2+x,1/2-y,1/2+z
_cell_length_a                   19.382(4)
_cell_length_b                   9.882(2)
_cell_length_c                   21.246(4)
_cell_angle_alpha                90
_cell_angle_beta                 91.67(3)
_cell_angle_gamma                90
_cell_volume                     4067.58
loop_
_atom_site_label
_atom_site_type_symbol
_atom_site_fract_x
_atom_site_fract_y
_atom_site_fract_z
Pb1 Pb 0.0000 -0.15383(2) 0.2500
C1 C -0.0308(2) -0.4526(5) 0.3273(2)
H1 H -0.0750 -0.4181 0.3200
C2 C -0.0247(2) -0.5843(5) 0.3499(2)
H2 H -0.0635 -0.6386 0.3544
C3 C 0.0399(2) -0.6317(4) 0.3655(2)
H3 H 0.0454 -0.7182 0.3821
C4 C 0.0979(2) -0.5494(4) 0.35633(18)
C5 C 0.1672(2) -0.5840(4) 0.37169(19)
C6 C 0.2222(2) -0.4981(4) 0.36252(19)
C7 C 0.2126(2) -0.3713(4) 0.3316(2)
C8 C 0.2669(2) -0.2843(5) 0.3150(2)
H4 H 0.3123 -0.3054 0.3263
C9 C 0.2518(3) -0.1689(5) 0.2822(3)
H5 H 0.2869 -0.1104 0.2708
C10 C 0.1829(3) -0.1396(5) 0.2659(2)
H6 H 0.1734 -0.0613 0.2430
C11 C 0.1449(2) -0.3331(4) 0.31389(19)
C12 C 0.0864(2) -0.4199(4) 0.32905(18)
C13 C 0.2655(2) -0.6764(4) 0.4042(2)
C14 C 0.3133(2) -0.7779(4) 0.42985(19)
C15 C 0.2968(2) -0.9158(5) 0.4244(2)
H7 H 0.2560 -0.9426 0.4039
C16 C 0.3416(3) -1.0119(5) 0.4497(2)
H8 H 0.3312 -1.1036 0.4476
C17 C 0.4022(2) -0.9674(5) 0.4782(2)
H9 H 0.4333 -1.0317 0.4937
C18 C 0.4185(2) -0.8372(4) 0.48487(18)
H10 H 0.4596 -0.8118 0.5053
C19 C 0.3750(2) -0.7438(4) 0.46170(18)
C20 C 0.3921(2) -0.6019(4) 0.48246(19)
C21 C 0.37874(19) -0.5829(4) 0.54304(16)
H11 H 0.3597 -0.6523 0.5664
C22 C 0.3928(2) -0.4640(5) 0.5697(2)
H12 H 0.3839 -0.4528 0.6122
C23 C 0.4199(3) -0.3569(5) 0.5374(2)
H13 H 0.4293 -0.2748 0.5573
C24 C 0.4326(2) -0.3752(4) 0.4745(2)
H14 H 0.4503 -0.3040 0.4513
C25 C 0.4194(2) -0.4990(4) 0.44531(19)
C26 C 0.4361(2) -0.5175(5) 0.3768(2)
N1 N 0.02207(19) -0.3739(4) 0.31560(17)
N2 N 0.13100(19) -0.2174(4) 0.28154(17)
N3 N 0.19546(18) -0.6994(4) 0.39890(16)
N4 N 0.28248(18) -0.5560(4) 0.38284(16)
H15 H 0.3232 -0.5214 0.3819
O1 O 0.44111(18) -0.6364(3) 0.35743(15)
O2 O 0.4452(2) -0.4129(4) 0.34540(16)
C1A C 0.0308(2) -0.4526(5) 0.1727(2)
H1A H 0.0750 -0.4181 0.1800
C2A C 0.0247(2) -0.5843(5) 0.1501(2)
H2A H 0.0635 -0.6386 0.1456
C3A C -0.0399(2) -0.6317(4) 0.1345(2)
H3A H -0.0454 -0.7182 0.1179
C4A C -0.0979(2) -0.5494(4) 0.14367(18)
C5A C -0.1672(2) -0.5840(4) 0.12831(19)
C6A C -0.2222(2) -0.4981(4) 0.13748(19)
C7A C -0.2126(2) -0.3713(4) 0.1684(2)
C8A C -0.2669(2) -0.2843(5) 0.1850(2)
H4A H -0.3123 -0.3054 0.1737
C9A C -0.2518(3) -0.1689(5) 0.2178(3)
H5A H -0.2869 -0.1104 0.2292
C10A C -0.1829(3) -0.1396(5) 0.2341(2)
H6A H -0.1734 -0.0613 0.2570
C11A C -0.1449(2) -0.3331(4) 0.18611(19)
C12A C -0.0864(2) -0.4199(4) 0.17095(18)
C13A C -0.2655(2) -0.6764(4) 0.0958(2)
C14A C -0.3133(2) -0.7779(4) 0.07015(19)
C15A C -0.2968(2) -0.9158(5) 0.0756(2)
H7A H -0.2560 -0.9426 0.0961
C16A C -0.3416(3) -1.0119(5) 0.0503(2)
H8A H -0.3312 -1.1036 0.0524
C17A C -0.4022(2) -0.9674(5) 0.0218(2)
H9A H -0.4333 -1.0317 0.0063
C18A C -0.4185(2) -0.8372(4) 0.01513(18)
H10A H -0.4596 -0.8118 -0.0053
C19A C -0.3750(2) -0.7438(4) 0.03830(18)
C20A C -0.3921(2) -0.6019(4) 0.01754(19)
C21A C -0.37874(19) -0.5829(4) -0.04304(16)
H11A H -0.3597 -0.6523 -0.0664
C22A C -0.3928(2) -0.4640(5) -0.0697(2)
H12A H -0.3839 -0.4528 -0.1122
C23A C -0.4199(3) -0.3569(5) -0.0374(2)
H13A H -0.4293 -0.2748 -0.0573
C24A C -0.4326(2) -0.3752(4) 0.0255(2)
H14A H -0.4503 -0.3040 0.0487
C25A C -0.4194(2) -0.4990(4) 0.05469(19)
C26A C -0.4361(2) -0.5175(5) 0.1232(2)
N1A N -0.02207(19) -0.3739(4) 0.18440(17)
N2A N -0.13100(19) -0.2174(4) 0.21846(17)
N3A N -0.19546(18) -0.6994(4) 0.10110(16)
N4A N -0.28248(18) -0.5560(4) 0.11716(16)
H15A H -0.3232 -0.5214 0.1181
O1A O -0.44111(18) -0.6364(3) 0.14257(15)
O2A O -0.4452(2) -0.4129(4) 0.15460(16)
Pb1B Pb -0.5000 -0.65383(2) 0.2500
Pb1B_2 Pb 0.5000 -0.65383(2) 0.2500
O1B O -0.05889(18) -0.1364(3) 0.35743(15)
O1C O 0.05889(18) -0.1364(3) 0.14257(15)
O3 O 0.0811(4) 0.1127(7) 0.2829(3)
H16 H 0.049(4) 0.163(8) 0.298(4)
H17 H 0.090(5) 0.136(9) 0.244(2)
loop_
_geom_bond_atom_site_label_1
_geom_bond_atom_site_label_2
_geom_bond_site_symmetry_1
_geom_bond_site_symmetry_2
Pb1 N1 1_555 1_555
C1 H1 1_555 1_555
C2 C1 1_555 1_555
H2 C2 1_555 1_555
C3 C2 1_555 1_555
H3 C3 1_555 1_555
C4 C3 1_555 1_555
C5 C4 1_555 1_555
C6 C5 1_555 1_555
C7 C6 1_555 1_555
C8 C7 1_555 1_555
H4 C8 1_555 1_555
C9 C8 1_555 1_555
H5 C9 1_555 1_555
C10 C9 1_555 1_555
H6 C10 1_555 1_555
C11 C7 1_555 1_555
C12 C4 1_555 1_555
C13 C14 1_555 1_555
C14 C15 1_555 1_555
C15 H7 1_555 1_555
C16 C15 1_555 1_555
H8 C16 1_555 1_555
C17 C16 1_555 1_555
H9 C17 1_555 1_555
C18 C17 1_555 1_555
H10 C18 1_555 1_555
C19 C14 1_555 1_555
C20 C19 1_555 1_555
C21 C20 1_555 1_555
H11 C21 1_555 1_555
C22 C21 1_555 1_555
H12 C22 1_555 1_555
C23 C22 1_555 1_555
H13 C23 1_555 1_555
C24 C23 1_555 1_555
H14 C24 1_555 1_555
C25 C20 1_555 1_555
C26 C25 1_555 1_555
N1 C1 1_555 1_555
N2 Pb1 1_555 1_555
N3 C5 1_555 1_555
N4 C6 1_555 1_555
H15 N4 1_555 1_555
O1 C26 1_555 1_555
O2 C26 1_555 1_555
O3 H16 1_555 1_555
H17 O3 1_555 1_555
C1A H1A 1_555 1_555
C2A C1A 1_555 1_555
H2A C2A 1_555 1_555
C3A C2A 1_555 1_555
H3A C3A 1_555 1_555
C4A C3A 1_555 1_555
C5A C4A 1_555 1_555
C6A C5A 1_555 1_555
C7A C6A 1_555 1_555
C8A C7A 1_555 1_555
H4A C8A 1_555 1_555
C9A C8A 1_555 1_555
H5A C9A 1_555 1_555
C10A C9A 1_555 1_555
H6A C10A 1_555 1_555
C11A C7A 1_555 1_555
C12A C4A 1_555 1_555
C13A C14A 1_555 1_555
C14A C15A 1_555 1_555
C15A H7A 1_555 1_555
C16A C15A 1_555 1_555
H8A C16A 1_555 1_555
C17A C16A 1_555 1_555
H9A C17A 1_555 1_555
C18A C17A 1_555 1_555
H10A C18A 1_555 1_555
C19A C14A 1_555 1_555
C20A C19A 1_555 1_555
C21A C20A 1_555 1_555
H11A C21A 1_555 1_555
C22A C21A 1_555 1_555
H12A C22A 1_555 1_555
C23A C22A 1_555 1_555
H13A C23A 1_555 1_555
C24A C23A 1_555 1_555
H14A C24A 1_555 1_555
C25A C20A 1_555 1_555
C26A C25A 1_555 1_555
N1A Pb1 1_555 1_555
N2A Pb1 1_555 1_555
N3A C5A 1_555 1_555
N4A C6A 1_555 1_555
H15A N4A 1_555 1_555
O1A C26A 1_555 1_555
O2A C26A 1_555 1_555
Pb1B O1A 1_555 1_555
Pb1B_2 O1 1_555 1_555
O1B Pb1 1_555 1_555
O1C Pb1 1_555 1_555
C10 N2 1_555 1_555
C11 C12 1_555 1_555
C11 N2 1_555 1_555
C12 N1 1_555 1_555
C13 N3 1_555 1_555
C13 N4 1_555 1_555
C18 C19 1_555 1_555
C24 C25 1_555 1_555
C1A N1A 1_555 1_555
C10A N2A 1_555 1_555
C11A C12A 1_555 1_555
C11A N2A 1_555 1_555
C12A N1A 1_555 1_555
C13A N3A 1_555 1_555
C13A N4A 1_555 1_555
C18A C19A 1_555 1_555
C24A C25A 1_555 1_555

#END
