
#######################################################################
#
#                 Cambridge Crystallographic Data Centre
#                                CCDC 
#
#######################################################################
#
# If this CIF has been generated from an entry in the Cambridge 
# Structural Database, then it will include bibliographic, chemical, 
# crystal, experimental, refinement or atomic coordinate data resulting 
# from the CCDC's data processing and validation procedures.
#
#######################################################################

data_VIGKAZ
_symmetry_cell_setting           monoclinic
_symmetry_space_group_name_H-M   'P 21/c'
_symmetry_Int_Tables_number      14
_space_group_name_Hall           '-P 2ybc'
loop_
_symmetry_equiv_pos_site_id
_symmetry_equiv_pos_as_xyz
1 x,y,z
2 -x,1/2+y,1/2-z
3 -x,-y,-z
4 x,1/2-y,1/2+z
_cell_length_a                   8.6002(5)
_cell_length_b                   20.3845(14)
_cell_length_c                   6.5027(4)
_cell_angle_alpha                90
_cell_angle_beta                 92.933(6)
_cell_angle_gamma                90
_cell_volume                     1138.5
loop_
_atom_site_label
_atom_site_type_symbol
_atom_site_fract_x
_atom_site_fract_y
_atom_site_fract_z
C1 C 0.2375(4) 0.4529(2) -0.3038(6)
C2 C 0.3326(4) 0.39522(17) -0.3744(5)
C3 C 0.2816(4) 0.35067(18) -0.5279(5)
C4 C 0.3799(4) 0.29984(18) -0.5792(6)
H1 H 0.3446 0.2691 -0.6765
C5 C 0.5295(4) 0.29347(18) -0.4899(6)
H2 H 0.5944 0.2598 -0.5294
C6 C 0.5794(4) 0.33782(18) -0.3424(6)
C7 C 0.4801(4) 0.38727(18) -0.2830(5)
C8 C 0.1303(4) 0.3555(2) -0.6439(6)
H3 H 0.1058 0.3244 -0.7451
C9 C 0.5110(5) 0.4077(2) 0.0713(6)
H4 H 0.4041 0.3956 0.0841
H5 H 0.5388 0.4415 0.1693
H6 H 0.5762 0.3701 0.0973
C10 C 0.8363(4) 0.2933(2) -0.3162(7)
H7 H 0.8051 0.2489 -0.2910
H8 H 0.9353 0.3015 -0.2461
H9 H 0.8447 0.2997 -0.4614
N1 N 0.0340(4) 0.39948(16) -0.6122(5)
O1 O 0.2495(3) 0.50471(13) -0.4033(4)
O2 O 0.1610(3) 0.44468(14) -0.1478(4)
O3 O -0.1009(3) 0.39422(14) -0.7421(5)
O4 O 0.7237(3) 0.33701(13) -0.2424(4)
O5 O 0.5319(3) 0.43156(12) -0.1336(4)
K1 K 0.15150(12) 0.52933(5) 0.19877(17)
H10 H -0.151(5) 0.4261(15) -0.698(7)
N1_2 N 0.0340(4) 0.39948(16) 0.3878(5)
O1_2 O 0.2495(3) 0.50471(13) 0.5967(4)
O2B O -0.1610(3) 0.55532(14) 0.1478(4)
O3B O 0.1009(3) 0.60578(14) -0.2579(5)
O4B O 0.2763(3) 0.66299(13) 0.2424(4)
O5B O 0.4681(3) 0.56844(12) 0.1336(4)
K1_2 K 0.15150(12) 0.52933(5) -0.80123(17)
K1B K -0.15150(12) 0.47067(5) -1.19877(17)
K1B_2 K -0.15150(12) 0.47067(5) -0.19877(17)
K1B_3 K 0.84850(12) 0.47067(5) -0.19877(17)
loop_
_geom_bond_atom_site_label_1
_geom_bond_atom_site_label_2
_geom_bond_site_symmetry_1
_geom_bond_site_symmetry_2
C1 C2 1_555 1_555
C2 C3 1_555 1_555
C3 C4 1_555 1_555
C4 H1 1_555 1_555
C5 C4 1_555 1_555
H2 C5 1_555 1_555
C6 C5 1_555 1_555
C7 C2 1_555 1_555
C8 C3 1_555 1_555
H3 C8 1_555 1_555
C9 H4 1_555 1_555
H5 C9 1_555 1_555
H6 C9 1_555 1_555
C10 H7 1_555 1_555
H8 C10 1_555 1_555
H9 C10 1_555 1_555
N1 C8 1_555 1_555
O1 C1 1_555 1_555
O2 C1 1_555 1_555
O3 N1 1_555 1_555
O4 C6 1_555 1_555
O5 C7 1_555 1_555
K1 O2 1_555 1_555
H10 O3 1_555 1_555
N1_2 K1 1_555 1_555
O1_2 K1 1_555 1_555
O2B K1 1_555 1_555
O3B K1 1_555 1_555
O4B K1 1_555 1_555
O5B K1 1_555 1_555
K1_2 N1 1_555 1_555
K1B O3 1_555 1_555
K1B_2 O2 1_555 1_555
K1B_3 O4 1_555 1_555
C6 C7 1_555 1_555
C9 O5 1_555 1_555
C10 O4 1_555 1_555
O1 K1_2 1_555 1_555
O5 K1B_3 1_555 1_555
O2B K1B_2 1_555 1_555

#END
