
#######################################################################
#
#                 Cambridge Crystallographic Data Centre
#                                CCDC 
#
#######################################################################
#
# If this CIF has been generated from an entry in the Cambridge 
# Structural Database, then it will include bibliographic, chemical, 
# crystal, experimental, refinement or atomic coordinate data resulting 
# from the CCDC's data processing and validation procedures.
#
#######################################################################

data_VIGNEG
_symmetry_cell_setting           triclinic
_symmetry_space_group_name_H-M   'P -1'
_symmetry_Int_Tables_number      2
_space_group_name_Hall           '-P 1'
loop_
_symmetry_equiv_pos_site_id
_symmetry_equiv_pos_as_xyz
1 x,y,z
2 -x,-y,-z
_cell_length_a                   9.1849(8)
_cell_length_b                   9.2065(9)
_cell_length_c                   12.9308(12)
_cell_angle_alpha                103.3070(10)
_cell_angle_beta                 104.7160(10)
_cell_angle_gamma                90.5900(10)
_cell_volume                     1026.42
loop_
_atom_site_label
_atom_site_type_symbol
_atom_site_fract_x
_atom_site_fract_y
_atom_site_fract_z
Ni1 Ni 0.60102(3) 0.13017(3) 0.34096(2)
N1 N 0.4038(2) 0.64195(18) 0.66989(14)
N2 N 0.6923(2) 0.0802(2) 0.20603(15)
O1 O 0.50218(17) 0.19001(16) 0.47169(11)
O2 O 0.37559(18) 0.10095(16) 0.23372(12)
H1 H 0.3126 0.1165 0.2725
H2 H 0.3593 0.0121 0.1937
O3 O 0.27668(18) 0.26601(19) 0.39842(13)
O4 O 0.62813(19) 0.18687(18) 0.77100(15)
N3 N 0.8085(2) 0.1163(2) 0.08357(15)
C1 C 0.6471(3) -0.0339(3) 0.11240(18)
H3 H 0.5779 -0.1136 0.1026
C2 C 0.4056(2) 0.3798(2) 0.58446(16)
C3 C 0.4987(3) 0.4703(2) 0.77917(18)
H4 H 0.5394 0.4541 0.8488
C4 C 0.9378(3) 0.3527(3) 0.08605(19)
C5 C 0.4700(2) 0.3511(2) 0.68710(17)
C6 C 0.8351(3) 0.4520(3) 0.0555(2)
H5 H 0.7496 0.4185 -0.0026
C7 C 0.3716(2) 0.5258(2) 0.58108(17)
H6 H 0.3237 0.5441 0.5133
C8 C 0.4670(3) 0.6128(2) 0.76757(18)
H7 H 0.4904 0.6916 0.8301
C9 C 0.5050(2) 0.1965(2) 0.70496(17)
C10 C 0.3897(2) 0.2667(2) 0.47532(16)
C11 C 0.7178(3) -0.0130(3) 0.03675(19)
H8 H 0.7070 -0.0743 -0.0332
C12 C 1.0658(3) 0.4059(3) 0.1709(3)
H9 H 1.1377 0.3404 0.1917
C13 C 0.9056(3) 0.1889(3) 0.0317(2)
H10 H 0.8560 0.1764 -0.0450
H11 H 0.9990 0.1416 0.0373
C14 C 0.7897(3) 0.1678(3) 0.18518(19)
H12 H 0.8393 0.2547 0.2346
C15 C 1.0878(3) 0.5559(3) 0.2251(2)
H13 H 1.1746 0.5900 0.2819
C16 C 0.9828(3) 0.6558(3) 0.19613(19)
C17 C 0.8573(3) 0.6020(3) 0.1103(2)
H14 H 0.7859 0.6675 0.0886
C18 C 1.0064(3) 0.8193(3) 0.2583(2)
H15 H 0.9149 0.8675 0.2378
H16 H 1.0843 0.8680 0.2382
N4 N 1.0491(2) 0.8345(2) 0.37673(16)
C19 C 1.1903(3) 0.8585(3) 0.44287(19)
C20 C 1.0481(3) 0.8052(3) 0.5383(2)
C21 C 0.9579(3) 0.8001(3) 0.4377(2)
O5 O 0.40389(17) 0.09422(15) 0.65560(12)
N5 N 1.1950(2) 0.84071(19) 0.54147(15)
H17 H 1.271(3) 0.884(3) 0.421(2)
H18 H 1.021(3) 0.789(3) 0.599(2)
H19 H 0.858(4) 0.783(4) 0.405(3)
Ni1A Ni 0.39898(3) -0.13017(3) 0.65904(2)
Ni1A_2 Ni 0.39898(3) 0.86983(3) 0.65904(2)
Ni1A_3 Ni 1.39898(3) 0.86983(3) 0.65904(2)
N1A N 0.5962(2) 0.35805(18) 0.33011(14)
O5A O 0.59611(17) -0.09422(15) 0.34440(12)
N5A N 0.8050(2) 0.15929(19) 0.45853(15)
loop_
_geom_bond_atom_site_label_1
_geom_bond_atom_site_label_2
_geom_bond_site_symmetry_1
_geom_bond_site_symmetry_2
Ni1 N2 1_555 1_555
N1 C7 1_555 1_555
N2 C1 1_555 1_555
O1 Ni1 1_555 1_555
O2 Ni1 1_555 1_555
H1 O2 1_555 1_555
H2 O2 1_555 1_555
O3 C10 1_555 1_555
O4 C9 1_555 1_555
N3 C11 1_555 1_555
C1 H3 1_555 1_555
C2 C5 1_555 1_555
C3 H4 1_555 1_555
C4 C6 1_555 1_555
C5 C3 1_555 1_555
C6 H5 1_555 1_555
C7 C2 1_555 1_555
H6 C7 1_555 1_555
C8 N1 1_555 1_555
H7 C8 1_555 1_555
C9 C5 1_555 1_555
C10 O1 1_555 1_555
C11 C1 1_555 1_555
H8 C11 1_555 1_555
C12 C4 1_555 1_555
H9 C12 1_555 1_555
C13 N3 1_555 1_555
H10 C13 1_555 1_555
H11 C13 1_555 1_555
C14 N2 1_555 1_555
H12 C14 1_555 1_555
C15 C12 1_555 1_555
H13 C15 1_555 1_555
C16 C15 1_555 1_555
C17 C6 1_555 1_555
H14 C17 1_555 1_555
C18 C16 1_555 1_555
H15 C18 1_555 1_555
H16 C18 1_555 1_555
N4 C18 1_555 1_555
C19 N4 1_555 1_555
C20 C21 1_555 1_555
C21 N4 1_555 1_555
O5 C9 1_555 1_555
N5 C19 1_555 1_555
H17 C19 1_555 1_555
H18 C20 1_555 1_555
H19 C21 1_555 1_555
Ni1A O5 1_555 1_555
Ni1A_2 N1 1_555 1_555
Ni1A_3 N5 1_555 1_555
N1A Ni1 1_555 1_555
O5A Ni1 1_555 1_555
N5A Ni1 1_555 1_555
N3 C14 1_555 1_555
C2 C10 1_555 1_555
C3 C8 1_555 1_555
C4 C13 1_555 1_555
C16 C17 1_555 1_555
C20 N5 1_555 1_555

#END
