
#######################################################################
#
#                 Cambridge Crystallographic Data Centre
#                                CCDC 
#
#######################################################################
#
# If this CIF has been generated from an entry in the Cambridge 
# Structural Database, then it will include bibliographic, chemical, 
# crystal, experimental, refinement or atomic coordinate data resulting 
# from the CCDC's data processing and validation procedures.
#
#######################################################################

data_VIGQUZ
_symmetry_cell_setting           monoclinic
_symmetry_space_group_name_H-M   'C 2/c'
_symmetry_Int_Tables_number      15
_space_group_name_Hall           '-C 2yn'
loop_
_symmetry_equiv_pos_site_id
_symmetry_equiv_pos_as_xyz
1 x,y,z
2 -x,y,1/2-z
3 1/2+x,1/2+y,z
4 1/2-x,1/2+y,1/2-z
5 -x,-y,-z
6 x,-y,1/2+z
7 1/2-x,1/2-y,-z
8 1/2+x,1/2-y,1/2+z
_cell_length_a                   23.4405(4)
_cell_length_b                   12.0253(2)
_cell_length_c                   19.3466(3)
_cell_angle_alpha                90
_cell_angle_beta                 104.3700(10)
_cell_angle_gamma                90
_cell_volume                     5282.78
loop_
_atom_site_label
_atom_site_type_symbol
_atom_site_fract_x
_atom_site_fract_y
_atom_site_fract_z
Cd1 Cd 0.426073(16) 0.62007(3) 0.139833(17)
P1 P 0.57459(6) 0.59811(12) 0.19127(6)
N1 N 0.3225(2) 0.6403(6) 0.1043(3)
N2 N 0.4019(2) 0.8043(4) 0.1452(2)
C1 C 0.6383(2) 0.6874(5) 0.2013(2)
C2 C 0.6323(4) 0.7980(7) 0.1849(4)
H1 H 0.5951 0.8296 0.1684
C3 C 0.6838(6) 0.8634(8) 0.1937(6)
H2 H 0.6804 0.9388 0.1828
C4 C 0.7391(5) 0.8174(10) 0.2181(5)
H3 H 0.7726 0.8615 0.2247
C5 C 0.7435(3) 0.7119(9) 0.2317(4)
H4 H 0.7807 0.6801 0.2458
C6 C 0.6939(3) 0.6444(6) 0.2257(3)
H5 H 0.6986 0.5698 0.2383
C7 C 0.5789(2) 0.5007(4) 0.1218(2)
H6 H 0.6143 0.4563 0.1374
H7 H 0.5454 0.4509 0.1137
C8 C 0.5798(2) 0.5583(5) 0.0527(2)
H8 H 0.5469 0.6096 0.0411
H9 H 0.6156 0.6022 0.0606
C9 C 0.5768(2) 0.4845(5) -0.0112(2)
C10 C 0.2837(3) 0.5581(10) 0.0849(3)
H10 H 0.2971 0.4855 0.0837
C11 C 0.2210(4) 0.5803(13) 0.0656(5)
H11 H 0.1943 0.5222 0.0523
C12 C 0.2021(4) 0.6818(14) 0.0670(5)
H12 H 0.1618 0.6958 0.0544
C13 C 0.2423(3) 0.7718(10) 0.0876(3)
C14 C 0.2250(5) 0.8854(11) 0.0896(5)
H13 H 0.1852 0.9032 0.0759
C15 C 0.2623(5) 0.9631(11) 0.1094(5)
H14 H 0.2492 1.0359 0.1103
C16 C 0.3227(5) 0.9408(9) 0.1297(4)
C17 C 0.3655(6) 1.0254(10) 0.1519(6)
H15 H 0.3540 1.0989 0.1548
C18 C 0.4230(6) 0.9980(8) 0.1688(6)
H16 H 0.4513 1.0533 0.1826
C19 C 0.4412(5) 0.8842(6) 0.1656(5)
H17 H 0.4811 0.8667 0.1782
C20 C 0.3440(3) 0.8300(7) 0.1272(3)
C21 C 0.3021(3) 0.7450(7) 0.1058(3)
O1 O 0.52057(16) 0.6691(3) 0.16794(18)
O2 O 0.58024(16) 0.5343(3) 0.25972(16)
O3 O 0.57443(19) 0.3808(4) -0.0065(2)
O4 O 0.57618(19) 0.5336(4) -0.07017(17)
Cd1A Cd 0.573927(16) 0.62007(3) 0.360167(17)
Cd1D Cd 0.573927(16) 0.37993(3) -0.139833(17)
O2A O 0.41976(16) 0.5343(3) 0.24028(16)
O3D O 0.42557(19) 0.6192(4) 0.0065(2)
O4D O 0.42382(19) 0.4664(4) 0.07017(17)
O5 O 0.6029(5) 0.3096(11) 0.2742(6)
O6 O 0.5366(8) 0.1780(17) 0.0311(10)
O7 O 0.5651(8) 0.7413(15) -0.0992(9)
O9 O 0.0780(10) 0.426(2) 0.0101(12)
O8? O 0.6262(10) 0.7355(19) -0.0719(12)
loop_
_geom_bond_atom_site_label_1
_geom_bond_atom_site_label_2
_geom_bond_site_symmetry_1
_geom_bond_site_symmetry_2
Cd1 N1 1_555 1_555
P1 C1 1_555 1_555
N1 C10 1_555 1_555
N2 Cd1 1_555 1_555
C1 C2 1_555 1_555
C2 H1 1_555 1_555
C3 C2 1_555 1_555
H2 C3 1_555 1_555
C4 C3 1_555 1_555
H3 C4 1_555 1_555
C5 C4 1_555 1_555
H4 C5 1_555 1_555
C6 C1 1_555 1_555
H5 C6 1_555 1_555
C7 P1 1_555 1_555
H6 C7 1_555 1_555
H7 C7 1_555 1_555
C8 C7 1_555 1_555
H8 C8 1_555 1_555
H9 C8 1_555 1_555
C9 C8 1_555 1_555
C10 H10 1_555 1_555
C11 C10 1_555 1_555
H11 C11 1_555 1_555
C12 C11 1_555 1_555
H12 C12 1_555 1_555
C13 C12 1_555 1_555
C14 C13 1_555 1_555
H13 C14 1_555 1_555
C15 C14 1_555 1_555
H14 C15 1_555 1_555
C16 C15 1_555 1_555
C17 C16 1_555 1_555
H15 C17 1_555 1_555
C18 C17 1_555 1_555
H16 C18 1_555 1_555
C19 N2 1_555 1_555
H17 C19 1_555 1_555
C20 N2 1_555 1_555
C21 N1 1_555 1_555
O1 Cd1 1_555 1_555
O2 P1 1_555 1_555
O3 C9 1_555 1_555
O4 C9 1_555 1_555
Cd1A O2 1_555 1_555
Cd1D O3 1_555 1_555
O2A Cd1 1_555 1_555
O3D Cd1 1_555 1_555
O4D Cd1 1_555 1_555
P1 O1 1_555 1_555
C5 C6 1_555 1_555
C13 C21 1_555 1_555
C16 C20 1_555 1_555
C18 C19 1_555 1_555
C20 C21 1_555 1_555
O4 Cd1D 1_555 1_555

#END
