
#######################################################################
#
#                 Cambridge Crystallographic Data Centre
#                                CCDC 
#
#######################################################################
#
# If this CIF has been generated from an entry in the Cambridge 
# Structural Database, then it will include bibliographic, chemical, 
# crystal, experimental, refinement or atomic coordinate data resulting 
# from the CCDC's data processing and validation procedures.
#
#######################################################################

data_VIGREK
_symmetry_cell_setting           monoclinic
_symmetry_space_group_name_H-M   'P 21/c'
_symmetry_Int_Tables_number      14
_space_group_name_Hall           '-P 2ybc'
loop_
_symmetry_equiv_pos_site_id
_symmetry_equiv_pos_as_xyz
1 x,y,z
2 -x,1/2+y,1/2-z
3 -x,-y,-z
4 x,1/2-y,1/2+z
_cell_length_a                   11.5555(3)
_cell_length_b                   12.3334(3)
_cell_length_c                   12.1325(3)
_cell_angle_alpha                90
_cell_angle_beta                 111.400(2)
_cell_angle_gamma                90
_cell_volume                     1609.9
loop_
_atom_site_label
_atom_site_type_symbol
_atom_site_fract_x
_atom_site_fract_y
_atom_site_fract_z
C1 C 0.2770(5) 0.9422(5) 0.5846(5)
H1 H 0.3389 0.9042 0.6431
C2 C 0.1591(5) 0.9445(5) 0.5882(5)
H2 H 0.1433 0.9103 0.6496
C3 C 0.0648(5) 0.9977(4) 0.5006(4)
C4 C 0.0966(5) 1.0489(4) 0.4145(5)
H3 H 0.0363 1.0861 0.3538
C5 C 0.2154(5) 1.0453(4) 0.4177(5)
H4 H 0.2342 1.0816 0.3592
C6 C 0.4496(4) 0.7460(4) 0.4143(4)
C7 C 0.3142(4) 0.7723(3) 0.3458(4)
C8 C 0.2250(4) 0.7206(4) 0.3809(4)
H5 H 0.2501 0.6721 0.4439
C9 C 0.1003(4) 0.7416(4) 0.3222(4)
H6 H 0.0424 0.7093 0.3485
C10 C 0.0594(4) 0.8098(4) 0.2249(4)
C11 C -0.0765(4) 0.8252(4) 0.1556(5)
C12 C 0.1480(4) 0.8617(4) 0.1904(4)
H7 H 0.1223 0.9083 0.1257
C13 C 0.2734(4) 0.8447(3) 0.2512(4)
Cd1 Cd 0.5000 1.0000 0.5000
Cd2 Cd 0.69143(3) 0.63517(3) 0.49367(3)
N1 N 0.3059(3) 0.9921(3) 0.5008(4)
O1 O 0.5204(3) 0.8137(3) 0.4818(3)
O2 O 0.4842(3) 0.6517(2) 0.4008(3)
O3 O -0.1568(3) 0.7805(3) 0.1856(3)
O4 O -0.1038(3) 0.8828(3) 0.0632(4)
O5 O 0.4243(3) 1.0082(3) 0.2954(3)
O6 O 0.4784(3) 0.8469(3) 0.2111(3)
O7 O 0.3118(3) 0.9637(3) 0.0922(3)
O8 O 0.7090(4) 0.7447(4) 0.3475(4)
H8 H 0.640(3) 0.772(6) 0.308(5)
H9 H 0.758(5) 0.751(6) 0.311(5)
O9 O 0.6509(4) 0.5385(3) 0.6365(3)
H10 H 0.611(5) 0.478(3) 0.617(5)
H11 H 0.628(5) 0.567(4) 0.689(4)
S1 S 0.38095(10) 0.92099(9) 0.20937(10)
C1B C -0.2770(5) 1.0578(5) 0.4154(5)
H1B H -0.3389 1.0958 0.3569
C2B C -0.1591(5) 1.0555(5) 0.4118(5)
H2B H -0.1433 1.0897 0.3504
C3B C -0.0648(5) 1.0023(4) 0.4994(4)
C4B C -0.0966(5) 0.9511(4) 0.5855(5)
H3B H -0.0363 0.9139 0.6462
C5B C -0.2154(5) 0.9547(4) 0.5823(5)
H4B H -0.2342 0.9184 0.6408
N1B N -0.3059(3) 1.0079(3) 0.4992(4)
C6C C -0.5504(4) 0.7540(4) -0.0857(4)
C7C C -0.6858(4) 0.7277(3) -0.1542(4)
C8C C -0.7750(4) 0.7794(4) -0.1191(4)
H5C H -0.7499 0.8279 -0.0561
C9C C -0.8997(4) 0.7584(4) -0.1778(4)
H6C H -0.9576 0.7907 -0.1515
C10C C -0.9406(4) 0.6902(4) -0.2751(4)
C11C C -1.0765(4) 0.6748(4) -0.3444(5)
C12C C -0.8520(4) 0.6383(4) -0.3096(4)
H7C H -0.8777 0.5917 -0.3743
C13C C -0.7266(4) 0.6553(3) -0.2488(4)
Cd2C Cd -0.30857(3) 0.86483(3) -0.00633(3)
O1C O -0.4796(3) 0.6863(3) -0.0182(3)
O2C O -0.5158(3) 0.8483(2) -0.0992(3)
O3C O -1.1568(3) 0.7195(3) -0.3144(3)
O4C O -1.1038(3) 0.6172(3) -0.4368(4)
O5C O -0.5757(3) 0.4918(3) -0.2046(3)
O6C O -0.5216(3) 0.6531(3) -0.2889(3)
O7C O -0.6882(3) 0.5363(3) -0.4078(3)
O8C O -0.2910(4) 0.7553(4) -0.1525(4)
H8C H -0.360(3) 0.728(6) -0.192(5)
H9C H -0.242(5) 0.749(6) -0.189(5)
O9C O -0.3491(4) 0.9615(3) 0.1365(3)
H10C H -0.389(5) 1.022(3) 0.117(5)
H11C H -0.372(5) 0.933(4) 0.189(4)
S1C S -0.61905(10) 0.57901(9) -0.29063(10)
Cd1_2 Cd -0.5000 1.0000 0.5000
Cd1A Cd -0.5000 0.5000 0.0000
Cd2_2 Cd -1.30857(3) 0.63517(3) -0.50633(3)
Cd2A Cd 0.30857(3) 1.13517(3) 0.00633(3)
Cd2B Cd -0.69143(3) 0.36483(3) -0.49367(3)
N1B_2 N 0.6941(3) 1.0079(3) 0.4992(4)
O1B O 0.4796(3) 1.1863(3) 0.5182(3)
O3C_2 O 0.8432(3) 0.7195(3) 0.6856(3)
O4C_2 O 0.8962(3) 0.6172(3) 0.5632(4)
O5B O 0.5757(3) 0.9918(3) 0.7046(3)
O7A O 0.6882(3) 0.4637(3) 0.4078(3)
O7B O -0.3118(3) 1.0363(3) -0.0922(3)
loop_
_geom_bond_atom_site_label_1
_geom_bond_atom_site_label_2
_geom_bond_site_symmetry_1
_geom_bond_site_symmetry_2
C1 H1 1_555 1_555
C2 C1 1_555 1_555
H2 C2 1_555 1_555
C3 C2 1_555 1_555
C4 C3 1_555 1_555
H3 C4 1_555 1_555
C5 C4 1_555 1_555
H4 C5 1_555 1_555
C6 C7 1_555 1_555
C7 C8 1_555 1_555
C8 H5 1_555 1_555
C9 C8 1_555 1_555
H6 C9 1_555 1_555
C10 C9 1_555 1_555
C11 C10 1_555 1_555
C12 C10 1_555 1_555
H7 C12 1_555 1_555
C13 C7 1_555 1_555
Cd1 N1 1_555 1_555
Cd2 O2 1_555 1_555
N1 C1 1_555 1_555
O1 C6 1_555 1_555
O2 C6 1_555 1_555
O3 C11 1_555 1_555
O4 C11 1_555 1_555
O5 Cd1 1_555 1_555
O6 S1 1_555 1_555
O7 S1 1_555 1_555
O8 Cd2 1_555 1_555
H8 O8 1_555 1_555
H9 O8 1_555 1_555
O9 Cd2 1_555 1_555
H10 O9 1_555 1_555
H11 O9 1_555 1_555
S1 C13 1_555 1_555
C1B H1B 1_555 1_555
C2B C1B 1_555 1_555
H2B C2B 1_555 1_555
C3B C3 1_555 1_555
C4B C3B 1_555 1_555
H3B C4B 1_555 1_555
C5B C4B 1_555 1_555
H4B C5B 1_555 1_555
N1B C1B 1_555 1_555
C6C C7C 1_555 1_555
C7C C8C 1_555 1_555
C8C H5C 1_555 1_555
C9C C8C 1_555 1_555
H6C C9C 1_555 1_555
C10C C9C 1_555 1_555
C11C C10C 1_555 1_555
C12C C10C 1_555 1_555
H7C C12C 1_555 1_555
C13C C7C 1_555 1_555
Cd2C O3 1_555 1_555
O1C C6C 1_555 1_555
O2C C6C 1_555 1_555
O3C C11C 1_555 1_555
O4C C11C 1_555 1_555
O5C S1C 1_555 1_555
O6C S1C 1_555 1_555
O7C S1C 1_555 1_555
O8C Cd2C 1_555 1_555
H8C O8C 1_555 1_555
H9C O8C 1_555 1_555
O9C Cd2C 1_555 1_555
H10C O9C 1_555 1_555
H11C O9C 1_555 1_555
S1C C13C 1_555 1_555
Cd1_2 N1B 1_555 1_555
Cd1A O1C 1_555 1_555
Cd2_2 O3C 1_555 1_555
Cd2A O7 1_555 1_555
Cd2B O7C 1_555 1_555
N1B_2 Cd1 1_555 1_555
O1B Cd1 1_555 1_555
O3C_2 Cd2 1_555 1_555
O4C_2 Cd2 1_555 1_555
O5B Cd1 1_555 1_555
O7A Cd2 1_555 1_555
O7B Cd2C 1_555 1_555
C5 N1 1_555 1_555
C12 C13 1_555 1_555
Cd1 O1 1_555 1_555
O4 Cd2C 1_555 1_555
O5 S1 1_555 1_555
C2B C3B 1_555 1_555
C5B N1B 1_555 1_555
C12C C13C 1_555 1_555
Cd2C O2C 1_555 1_555
O4C Cd2_2 1_555 1_555
O5C Cd1A 1_555 1_555

#END
