
#######################################################################
#
#                 Cambridge Crystallographic Data Centre
#                                CCDC 
#
#######################################################################
#
# If this CIF has been generated from an entry in the Cambridge 
# Structural Database, then it will include bibliographic, chemical, 
# crystal, experimental, refinement or atomic coordinate data resulting 
# from the CCDC's data processing and validation procedures.
#
#######################################################################

data_VIGSUA
_symmetry_cell_setting           orthorhombic
_symmetry_space_group_name_H-M   'P b c a'
_symmetry_Int_Tables_number      61
_space_group_name_Hall           '-P 2ac 2ab'
loop_
_symmetry_equiv_pos_site_id
_symmetry_equiv_pos_as_xyz
1 x,y,z
2 1/2-x,-y,1/2+z
3 -x,1/2+y,1/2-z
4 1/2+x,1/2-y,-z
5 -x,-y,-z
6 1/2+x,y,1/2-z
7 x,1/2-y,1/2+z
8 1/2-x,1/2+y,z
_cell_length_a                   14.6995(2)
_cell_length_b                   25.8284(3)
_cell_length_c                   32.3400(4)
_cell_angle_alpha                90
_cell_angle_beta                 90
_cell_angle_gamma                90
_cell_volume                     12278.4
loop_
_atom_site_label
_atom_site_type_symbol
_atom_site_fract_x
_atom_site_fract_y
_atom_site_fract_z
Au1 Au 0.44311(2) 0.007901(11) 0.084596(9)
Au2 Au 0.33856(2) -0.106109(12) 0.172093(9)
P1 P 0.50150(14) -0.07026(7) 0.07101(6)
P2 P 0.39898(13) -0.03840(8) 0.20544(6)
C1 C 0.5549(5) -0.0944(3) 0.1527(3)
C2 C 0.5237(5) -0.1128(3) 0.1148(3)
C3 C 0.5159(6) -0.1669(3) 0.1089(3)
H1 H 0.4939 -0.1796 0.0832
C4 C 0.5390(7) -0.2011(4) 0.1391(4)
H2 H 0.5306 -0.2371 0.1344
C5 C 0.5745(7) -0.1844(4) 0.1766(4)
C6 C 0.6028(10) -0.2197(5) 0.2081(5)
H3 H 0.5973 -0.2560 0.2038
C7 C 0.6357(11) -0.2024(6) 0.2423(5)
H4 H 0.6527 -0.2268 0.2629
C8 C 0.6477(8) -0.1496(5) 0.2508(4)
H5 H 0.6731 -0.1387 0.2763
C9 C 0.6218(6) -0.1139(4) 0.2213(3)
H6 H 0.6300 -0.0780 0.2264
C10 C 0.5839(6) -0.1302(4) 0.1840(3)
C11 C 0.5642(5) -0.0366(3) 0.1619(3)
C12 C 0.4992(5) -0.0083(3) 0.1822(2)
C13 C 0.5112(6) 0.0461(3) 0.1873(3)
H7 H 0.4660 0.0656 0.2013
C14 C 0.5872(7) 0.0704(4) 0.1722(3)
H8 H 0.5938 0.1068 0.1755
C15 C 0.6548(6) 0.0423(4) 0.1519(3)
C16 C 0.7363(7) 0.0664(5) 0.1367(3)
H9 H 0.7432 0.1028 0.1387
C17 C 0.8044(7) 0.0372(5) 0.1193(4)
H10 H 0.8578 0.0535 0.1091
C18 C 0.7950(7) -0.0163(5) 0.1168(4)
H11 H 0.8433 -0.0360 0.1052
C19 C 0.7202(6) -0.0413(4) 0.1302(3)
H12 H 0.7163 -0.0779 0.1280
C20 C 0.6465(6) -0.0124(4) 0.1477(3)
C21 C 0.6081(6) -0.0655(3) 0.0440(3)
C22 C 0.6357(6) -0.0193(3) 0.0264(2)
H13 H 0.5965 0.0099 0.0278
C23 C 0.7178(6) -0.0146(4) 0.0069(3)
H14 H 0.7358 0.0180 -0.0041
C24 C 0.7742(7) -0.0567(4) 0.0032(3)
H15 H 0.8310 -0.0537 -0.0107
C25 C 0.7475(8) -0.1035(4) 0.0199(4)
H16 H 0.7857 -0.1330 0.0171
C26 C 0.6674(7) -0.1079(4) 0.0404(4)
H17 H 0.6511 -0.1402 0.0525
C27 C 0.4246(6) -0.1057(3) 0.0378(3)
C28 C 0.3341(6) -0.1082(3) 0.0496(3)
H18 H 0.3153 -0.0929 0.0750
C29 C 0.2698(7) -0.1332(4) 0.0243(3)
H19 H 0.2084 -0.1360 0.0333
C30 C 0.2942(8) -0.1532(5) -0.0123(3)
H20 H 0.2499 -0.1701 -0.0289
C31 C 0.3832(9) -0.1497(5) -0.0263(4)
H21 H 0.4002 -0.1631 -0.0525
C32 C 0.4477(7) -0.1254(4) -0.0003(3)
H22 H 0.5090 -0.1226 -0.0094
C33 C 0.4340(5) -0.0588(3) 0.2566(2)
C34 C 0.3947(6) -0.1032(3) 0.2743(3)
H23 H 0.3492 -0.1217 0.2595
C35 C 0.4211(7) -0.1202(4) 0.3126(3)
H24 H 0.3929 -0.1498 0.3244
C36 C 0.4898(8) -0.0941(4) 0.3344(3)
H25 H 0.5109 -0.1068 0.3602
C37 C 0.5254(7) -0.0502(4) 0.3178(3)
H26 H 0.5688 -0.0310 0.3332
C38 C 0.5000(6) -0.0330(4) 0.2791(3)
H27 H 0.5281 -0.0030 0.2678
C39 C 0.3162(5) 0.0128(3) 0.2127(2)
C40 C 0.2521(5) 0.0215(3) 0.1823(2)
H28 H 0.2500 -0.0003 0.1587
C41 C 0.1908(6) 0.0622(4) 0.1861(3)
H29 H 0.1478 0.0685 0.1648
C42 C 0.1918(6) 0.0931(4) 0.2204(3)
H30 H 0.1493 0.1207 0.2230
C43 C 0.2548(7) 0.0843(3) 0.2516(3)
H31 H 0.2560 0.1062 0.2752
C44 C 0.3152(6) 0.0444(3) 0.2483(3)
H32 H 0.3567 0.0377 0.2702
N1 N 0.3906(5) 0.0817(2) 0.0940(2)
C45 C 0.3018(6) 0.0900(3) 0.0954(3)
H33 H 0.2616 0.0620 0.0899
C46 C 0.2657(6) 0.1377(3) 0.1044(3)
H34 H 0.2017 0.1424 0.1050
C47 C 0.3234(5) 0.1792(3) 0.1126(3)
C48 C 0.4160(6) 0.1699(3) 0.1100(3)
H35 H 0.4584 0.1971 0.1146
C49 C 0.4457(6) 0.1213(3) 0.1008(3)
H36 H 0.5094 0.1155 0.0991
N2 N 0.2168(4) 0.3250(2) 0.1504(2)
C50 C 0.1773(6) 0.2809(3) 0.1621(3)
H37 H 0.1256 0.2827 0.1796
C51 C 0.2078(6) 0.2332(3) 0.1498(3)
H38 H 0.1756 0.2027 0.1573
C52 C 0.2883(5) 0.2300(3) 0.1257(3)
C53 C 0.3307(6) 0.2761(3) 0.1154(3)
H39 H 0.3852 0.2754 0.0996
C54 C 0.2945(6) 0.3231(3) 0.1277(3)
H40 H 0.3243 0.3543 0.1203
Au2G Au 0.16144(2) 0.393891(12) 0.172093(9)
N2G N 0.2832(4) -0.1750(2) 0.1504(2)
O1 O 1.1223(5) 0.0203(3) 0.0907(2)
O2 O 1.1766(4) -0.0584(3) 0.1031(2)
C55 C 1.1255(5) -0.0275(3) 0.0865(2)
C56 C 1.0568(6) -0.0483(4) 0.0553(3)
F1 F 0.9771(4) -0.0238(4) 0.0576(2)
F2 F 1.0399(6) -0.0991(3) 0.0605(2)
F3 F 1.0875(5) -0.0437(3) 0.01674(17)
O3 O 0.8636(12) -0.3062(6) 0.1299(6)
O4 O 0.9306(10) -0.2293(7) 0.1066(8)
C57 C 0.8709(17) -0.2602(8) 0.1178(9)
C58 C 0.7822(14) -0.2390(6) 0.1072(5)
F4 F 0.7187(12) -0.2769(7) 0.1103(7)
F5 F 0.7616(14) -0.2272(6) 0.0676(5)
F6 F 0.7662(8) -0.1938(6) 0.1260(5)
O5 O 0.4744(5) -0.3396(3) 0.1625(3)
H41 H 0.4944 -0.3346 0.1385
C59 C 0.5387(9) -0.3664(6) 0.1854(5)
H42 H 0.5998 -0.3566 0.1762
H43 H 0.5300 -0.4037 0.1815
H44 H 0.5317 -0.3579 0.2148
O6 O 1.0300(8) 0.1089(4) 0.0905(4)
H45 H 1.0473 0.0780 0.0884
C60 C 0.9796(15) 0.1222(7) 0.0561(5)
H46 H 0.9289 0.0979 0.0530
H47 H 1.0184 0.1207 0.0315
H48 H 0.9558 0.1574 0.0595
C61 C 0.5351(17) 0.2276(13) 0.2019(7)
H49 H 0.5627 0.2166 0.1754
H50 H 0.5114 0.2632 0.1980
Cl1 Cl 0.6141(7) 0.2295(4) 0.2365(3)
Cl2 Cl 0.4428(8) 0.1864(4) 0.2129(3)
Cl3 Cl 0.9247(6) 0.2473(4) -0.0002(3)
Cl4 Cl 1.1082(6) 0.2310(3) 0.0370(3)
C62 C 1.0347(15) 0.2244(16) -0.0029(9)
H51 H 1.0308 0.1869 -0.0092
H52 H 1.0633 0.2410 -0.0273
loop_
_geom_bond_atom_site_label_1
_geom_bond_atom_site_label_2
_geom_bond_site_symmetry_1
_geom_bond_site_symmetry_2
Au1 P1 1_555 1_555
Au2 P2 1_555 1_555
P1 C2 1_555 1_555
P2 C12 1_555 1_555
C1 C2 1_555 1_555
C2 C3 1_555 1_555
C3 H1 1_555 1_555
C4 C3 1_555 1_555
H2 C4 1_555 1_555
C5 C4 1_555 1_555
C6 C5 1_555 1_555
H3 C6 1_555 1_555
C7 C6 1_555 1_555
H4 C7 1_555 1_555
C8 C7 1_555 1_555
H5 C8 1_555 1_555
C9 C8 1_555 1_555
H6 C9 1_555 1_555
C10 C1 1_555 1_555
C11 C1 1_555 1_555
C12 C11 1_555 1_555
C13 C12 1_555 1_555
H7 C13 1_555 1_555
C14 C13 1_555 1_555
H8 C14 1_555 1_555
C15 C14 1_555 1_555
C16 C15 1_555 1_555
H9 C16 1_555 1_555
C17 C16 1_555 1_555
H10 C17 1_555 1_555
C18 C17 1_555 1_555
H11 C18 1_555 1_555
C19 C18 1_555 1_555
H12 C19 1_555 1_555
C20 C11 1_555 1_555
C21 P1 1_555 1_555
C22 C21 1_555 1_555
H13 C22 1_555 1_555
C23 C22 1_555 1_555
H14 C23 1_555 1_555
C24 C23 1_555 1_555
H15 C24 1_555 1_555
C25 C24 1_555 1_555
H16 C25 1_555 1_555
C26 C21 1_555 1_555
H17 C26 1_555 1_555
C27 P1 1_555 1_555
C28 C27 1_555 1_555
H18 C28 1_555 1_555
C29 C28 1_555 1_555
H19 C29 1_555 1_555
C30 C29 1_555 1_555
H20 C30 1_555 1_555
C31 C30 1_555 1_555
H21 C31 1_555 1_555
C32 C27 1_555 1_555
H22 C32 1_555 1_555
C33 P2 1_555 1_555
C34 C33 1_555 1_555
H23 C34 1_555 1_555
C35 C34 1_555 1_555
H24 C35 1_555 1_555
C36 C35 1_555 1_555
H25 C36 1_555 1_555
C37 C36 1_555 1_555
H26 C37 1_555 1_555
C38 C33 1_555 1_555
H27 C38 1_555 1_555
C39 P2 1_555 1_555
C40 C39 1_555 1_555
H28 C40 1_555 1_555
C41 C40 1_555 1_555
H29 C41 1_555 1_555
C42 C41 1_555 1_555
H30 C42 1_555 1_555
C43 C42 1_555 1_555
H31 C43 1_555 1_555
C44 C39 1_555 1_555
H32 C44 1_555 1_555
N1 Au1 1_555 1_555
C45 N1 1_555 1_555
H33 C45 1_555 1_555
C46 C45 1_555 1_555
H34 C46 1_555 1_555
C47 C46 1_555 1_555
C48 C47 1_555 1_555
H35 C48 1_555 1_555
C49 N1 1_555 1_555
H36 C49 1_555 1_555
N2 C50 1_555 1_555
C50 H37 1_555 1_555
C51 C50 1_555 1_555
H38 C51 1_555 1_555
C52 C47 1_555 1_555
C53 C52 1_555 1_555
H39 C53 1_555 1_555
C54 N2 1_555 1_555
H40 C54 1_555 1_555
O1 C55 1_555 1_555
O2 C55 1_555 1_555
C55 C56 1_555 1_555
C56 F1 1_555 1_555
F2 C56 1_555 1_555
F3 C56 1_555 1_555
O3 C57 1_555 1_555
O4 C57 1_555 1_555
C57 C58 1_555 1_555
C58 F4 1_555 1_555
F5 C58 1_555 1_555
F6 C58 1_555 1_555
O5 H41 1_555 1_555
C59 O5 1_555 1_555
H42 C59 1_555 1_555
H43 C59 1_555 1_555
H44 C59 1_555 1_555
O6 H45 1_555 1_555
C60 O6 1_555 1_555
H46 C60 1_555 1_555
H47 C60 1_555 1_555
H48 C60 1_555 1_555
C61 H49 1_555 1_555
H50 C61 1_555 1_555
Cl1 C61 1_555 1_555
Cl2 C61 1_555 1_555
Cl3 C62 1_555 1_555
Cl4 C62 1_555 1_555
C62 H51 1_555 1_555
H52 C62 1_555 1_555
Au2G N2 1_555 1_555
N2G Au2 1_555 1_555
C5 C10 1_555 1_555
C9 C10 1_555 1_555
C15 C20 1_555 1_555
C19 C20 1_555 1_555
C25 C26 1_555 1_555
C31 C32 1_555 1_555
C37 C38 1_555 1_555
C43 C44 1_555 1_555
C48 C49 1_555 1_555
C51 C52 1_555 1_555
C53 C54 1_555 1_555

#END
