
#######################################################################
#
#                 Cambridge Crystallographic Data Centre
#                                CCDC 
#
#######################################################################
#
# If this CIF has been generated from an entry in the Cambridge 
# Structural Database, then it will include bibliographic, chemical, 
# crystal, experimental, refinement or atomic coordinate data resulting 
# from the CCDC's data processing and validation procedures.
#
#######################################################################

data_VIGTUC
_symmetry_cell_setting           triclinic
_symmetry_space_group_name_H-M   'P -1'
_symmetry_Int_Tables_number      2
_space_group_name_Hall           '-P 1'
loop_
_symmetry_equiv_pos_site_id
_symmetry_equiv_pos_as_xyz
1 x,y,z
2 -x,-y,-z
_cell_length_a                   9.6255(3)
_cell_length_b                   11.3582(4)
_cell_length_c                   14.3241(5)
_cell_angle_alpha                72.709(2)
_cell_angle_beta                 81.124(2)
_cell_angle_gamma                81.892(2)
_cell_volume                     1469.81
loop_
_atom_site_label
_atom_site_type_symbol
_atom_site_fract_x
_atom_site_fract_y
_atom_site_fract_z
N4 N 0.320(2) 0.897(2) 0.1612(14)
O13 O 0.325(3) 1.086(2) 0.0546(18)
C25 C 0.386(3) 0.770(2) 0.201(2)
H18 H 0.4702 0.7558 0.1584
H19 H 0.3210 0.7120 0.2045
H20 H 0.4102 0.7607 0.2655
C26 C 0.180(3) 0.926(3) 0.210(2)
H21 H 0.1450 1.0097 0.1790
H22 H 0.1861 0.9166 0.2782
H23 H 0.1168 0.8703 0.2052
C27 C 0.385(2) 0.981(2) 0.0853(16)
H24 H 0.4738 0.9592 0.0559
Nd1 Nd 0.7656(7) 0.4807(7) 1.0063(5)
O1 O 0.629(2) 0.675(2) 1.0156(15)
O2 O 1.083(2) 0.6541(15) 0.1102(16)
O3 O 0.8985(19) 0.5609(14) 0.0836(14)
C1 C 0.956(5) 0.606(3) 0.133(3)
C2 C 0.8840(13) 0.6256(11) 0.2322(7)
C3 C 0.9466(13) 0.6906(12) 0.2801(10)
H1 H 1.0248 0.7324 0.2484
C4 C 0.8924(14) 0.6931(11) 0.3753(10)
H2 H 0.9343 0.7366 0.4073
C5 C 0.7756(11) 0.6307(9) 0.4226(7)
C6 C 0.7130(11) 0.5656(11) 0.3748(8)
H3 H 0.6348 0.5238 0.4065
C7 C 0.7671(14) 0.5631(13) 0.2796(9)
H4 H 0.7252 0.5196 0.2476
O4 O 0.6040(19) 0.4768(14) 0.8936(18)
O5 O 0.4021(17) 0.5927(13) 0.8504(13)
C8 C 0.5255(17) 0.5443(10) 0.8327(15)
C9 C 0.6976(10) 0.6172(8) 0.5278(6)
C10 C 0.7852(8) 0.5684(10) 0.6017(7)
H5 H 0.8813 0.5493 0.5854
C11 C 0.7291(10) 0.5482(9) 0.6999(6)
H6 H 0.7876 0.5155 0.7493
C12 C 0.5854(10) 0.5768(8) 0.7242(6)
C13 C 0.4978(8) 0.6256(11) 0.6504(7)
H7 H 0.4017 0.6448 0.6667
C14 C 0.5539(10) 0.6459(10) 0.5522(7)
O6 O 0.501(2) 0.798(2) 0.4004(15)
O7 O 0.355(2) 0.669(2) 0.4804(15)
N1 N 0.461(2) 0.7072(17) 0.4743(13)
N2 N 1.2090(17) 0.1112(15) 1.4797(12)
O8 O 1.172(3) 0.137(3) 1.5598(14)
O9 O 1.3321(16) 0.080(3) 1.443(2)
O10 O 0.9084(16) 0.3446(16) 1.1262(14)
O11 O 1.1395(17) 0.3467(18) 1.1272(18)
C15 C 1.0283(18) 0.2962(17) 1.1564(17)
C16 C 1.0162(14) 0.2011(11) 1.2594(7)
C17 C 0.9136(11) 0.1184(11) 1.2872(9)
H8 H 0.8525 0.1182 1.2430
C18 C 0.9025(13) 0.0362(12) 1.3812(10)
H9 H 0.8339 -0.0191 1.3998
C19 C 0.9939(16) 0.0366(13) 1.4473(8)
C20 C 1.0965(13) 0.1193(11) 1.4195(8)
C21 C 1.1076(13) 0.2015(11) 1.3255(9)
H10 H 1.1762 0.2568 1.3068
O12 O 0.6748(17) 0.2651(12) 1.0382(13)
C22 C 0.7394(16) 0.1656(11) 1.0743(10)
H11 H 0.8283 0.1441 1.0445
C23 C 0.5501(19) 0.1092(18) 1.2077(14)
H12 H 0.5061 0.1890 1.1748
H13 H 0.5614 0.1074 1.2736
H14 H 0.4920 0.0462 1.2099
C24 C 0.773(2) -0.0326(15) 1.1936(16)
H15 H 0.8612 -0.0330 1.1518
H16 H 0.7241 -0.1006 1.1936
H17 H 0.7910 -0.0408 1.2595
N3 N 0.6838(15) 0.0874(12) 1.1561(10)
N2A N 0.7910(17) -0.1112(15) 1.5203(12)
O8A O 0.828(3) -0.137(3) 1.4402(14)
O9A O 0.6679(16) -0.080(3) 1.557(2)
O10A O 1.0916(16) -0.3446(16) 1.8738(14)
O11A O 0.8605(17) -0.3467(18) 1.8728(18)
C15A C 0.9717(18) -0.2962(17) 1.8436(17)
C16A C 0.9838(14) -0.2011(11) 1.7406(7)
C17A C 1.0864(11) -0.1184(11) 1.7128(9)
H8A H 1.1475 -0.1182 1.7570
C18A C 1.0975(13) -0.0362(12) 1.6188(10)
H9A H 1.1661 0.0191 1.6002
C19A C 1.0061(16) -0.0366(13) 1.5527(8)
C20A C 0.9035(13) -0.1193(11) 1.5805(8)
C21A C 0.8924(13) -0.2015(11) 1.6745(9)
H10A H 0.8238 -0.2568 1.6932
Nd1A Nd 0.2344(7) 0.5193(7) 0.9937(5)
O1A O 0.371(2) 0.325(2) 0.9844(15)
O2A O -0.083(2) 0.3459(15) 1.8898(16)
O3A O 0.1015(19) 0.4391(14) 1.9164(14)
C1A C 0.044(5) 0.394(3) 1.867(3)
C2A C 0.1160(13) 0.3744(11) 1.7678(7)
C3A C 0.0534(13) 0.3094(12) 1.7199(10)
H1A H -0.0248 0.2676 1.7516
C4A C 0.1076(14) 0.3069(11) 1.6247(10)
H2A H 0.0657 0.2634 1.5927
C5A C 0.2244(11) 0.3693(9) 1.5774(7)
C6A C 0.2870(11) 0.4344(11) 1.6252(8)
H3A H 0.3652 0.4762 1.5935
C7A C 0.2329(14) 0.4369(13) 1.7204(9)
H4A H 0.2748 0.4804 1.7524
O4A O 0.3960(19) 0.5232(14) 1.1064(18)
O5A O 0.5979(17) 0.4073(13) 1.1496(13)
C8A C 0.4745(17) 0.4557(10) 1.1673(15)
C9A C 0.3024(10) 0.3828(8) 1.4722(6)
C10A C 0.2148(8) 0.4316(10) 1.3983(7)
H5A H 0.1187 0.4507 1.4146
C11A C 0.2709(10) 0.4518(9) 1.3001(6)
H6A H 0.2124 0.4845 1.2507
C12A C 0.4146(10) 0.4232(8) 1.2758(6)
C13A C 0.5022(8) 0.3744(11) 1.3496(7)
H7A H 0.5983 0.3552 1.3333
C14A C 0.4461(10) 0.3541(10) 1.4478(7)
O6A O 0.499(2) 0.202(2) 1.5996(15)
O7A O 0.645(2) 0.331(2) 1.5196(15)
N1A N 0.539(2) 0.2928(17) 1.5257(13)
O12A O 0.3252(17) 0.7349(12) 0.9618(13)
C22A C 0.2606(16) 0.8344(11) 0.9257(10)
H11A H 0.1717 0.8559 0.9555
C23A C 0.4499(19) 0.8908(18) 0.7923(14)
H12A H 0.4939 0.8110 0.8252
H13A H 0.4386 0.8926 0.7264
H14A H 0.5080 0.9538 0.7901
C24A C 0.227(2) 1.0326(15) 0.8064(16)
H15A H 0.1388 1.0330 0.8482
H16A H 0.2759 1.1006 0.8064
H17A H 0.2090 1.0408 0.7405
N3A N 0.3162(15) 0.9126(12) 0.8439(10)
Nd1_2 Nd -0.2344(7) 0.4807(7) 2.0063(5)
Nd1_3 Nd 0.7656(7) -0.5193(7) 2.0063(5)
Nd1_4 Nd 0.7656(7) 0.4807(7) 0.0063(5)
Nd1A_2 Nd 0.2344(7) 0.5193(7) 1.9937(5)
Nd1A_3 Nd 1.2344(7) -0.4807(7) 1.9937(5)
Nd1A_4 Nd 1.2344(7) 0.5193(7) -0.0063(5)
Nd1A_5 Nd 1.2344(7) 0.5193(7) 0.9937(5)
O2_2 O 0.083(2) 0.6541(15) 1.1102(16)
O2A_2 O 0.917(2) 0.3459(15) 0.8898(16)
O3_2 O 0.8985(19) 0.5609(14) 1.0836(14)
O3A_2 O 0.1015(19) 0.4391(14) 0.9164(14)
O10A_2 O 0.0916(16) 0.6554(16) 0.8738(14)
O11_2 O 0.1395(17) 0.3467(18) 1.1272(18)
O11A_2 O 0.8605(17) 0.6533(18) 0.8728(18)
Nd2? Nd 0.7864(7) 0.4610(7) 1.0016(5)
O14? O 0.610(3) 0.667(3) 0.9891(17)
O15? O 1.086(2) 0.6201(15) 0.1113(17)
O16? O 0.881(2) 0.5979(14) 0.0831(14)
C28? C 0.959(5) 0.623(3) 0.136(3)
C29? C 0.8872(12) 0.6409(11) 0.2336(7)
C30? C 0.9677(10) 0.6615(13) 0.2988(10)
H25? H 1.0621 0.6756 0.2790
C31? C 0.9073(13) 0.6613(12) 0.3935(9)
H26? H 0.9612 0.6751 0.4370
C32? C 0.7662(13) 0.6404(8) 0.4230(7)
C33? C 0.6857(10) 0.6197(11) 0.3578(8)
H27? H 0.5913 0.6057 0.3776
C34? C 0.7461(12) 0.6199(12) 0.2632(8)
H28? H 0.6922 0.6061 0.2196
N5? N 0.496(3) 0.796(2) 0.4886(19)
O17? O 0.562(3) 0.873(2) 0.4231(17)
O18? O 0.357(3) 0.791(3) 0.5029(18)
O19? O 0.604(2) 0.5123(14) 0.8938(18)
O20? O 0.3899(15) 0.5549(12) 0.8444(12)
C35? C 0.524(2) 0.5456(10) 0.827(2)
C36? C 0.6900(11) 0.6357(10) 0.5225(8)
C37? C 0.7653(12) 0.5430(13) 0.5885(10)
H29? H 0.8468 0.5005 0.5656
C38? C 0.7188(17) 0.5140(11) 0.6887(9)
H30? H 0.7692 0.4520 0.7329
C39? C 0.5969(16) 0.5776(9) 0.7229(7)
C40? C 0.5216(12) 0.6702(10) 0.6569(8)
H31? H 0.4400 0.7128 0.6798
C41? C 0.5681(12) 0.6993(9) 0.5567(8)
O21? O 0.9231(11) 0.3084(10) 1.1133(9)
O22? O 1.1207(12) 0.3772(11) 1.1361(12)
O23? O 1.3724(16) 0.058(2) 1.409(3)
O24? O 1.270(2) -0.1194(14) 1.436(3)
N6? N 1.2686(13) -0.0027(14) 1.4196(12)
C42? C 1.0159(13) 0.3189(13) 1.1659(10)
C43? C 1.0179(10) 0.2282(8) 1.2668(6)
C44? C 0.8895(8) 0.2075(10) 1.3254(7)
H32? H 0.8068 0.2539 1.3041
C45? C 0.8847(9) 0.1176(11) 1.4159(7)
H33? H 0.7988 0.1038 1.4551
C46? C 1.0083(11) 0.0483(10) 1.4477(6)
C47? C 1.1367(9) 0.0689(9) 1.3891(7)
C48? C 1.1415(8) 0.1589(9) 1.2986(7)
H34? H 1.2274 0.1727 1.2594
O25? O 0.694(4) 0.258(2) 1.036(3)
C49? C 0.645(3) 0.174(2) 1.103(2)
H35? H 0.5591 0.1900 1.1386
C50? C 0.646(4) -0.036(3) 1.209(3)
H36? H 0.5544 -0.0036 1.2324
H37? H 0.7046 -0.0618 1.2618
H38? H 0.6377 -0.1060 1.1865
C51? C 0.845(4) 0.027(3) 1.077(3)
H39? H 0.8798 0.0987 1.0297
H40? H 0.8331 -0.0330 1.0444
H41? H 0.9110 -0.0089 1.1243
N7? N 0.712(3) 0.061(2) 1.1266(19)
loop_
_geom_bond_atom_site_label_1
_geom_bond_atom_site_label_2
_geom_bond_site_symmetry_1
_geom_bond_site_symmetry_2
Nd1 O1 1_555 1_555
O2 C1 1_555 1_555
O3 C1 1_555 1_555
C1 C2 1_555 1_555
C2 C3 1_555 1_555
C3 H1 1_555 1_555
C4 C3 1_555 1_555
H2 C4 1_555 1_555
C5 C4 1_555 1_555
C6 C5 1_555 1_555
H3 C6 1_555 1_555
C7 C2 1_555 1_555
H4 C7 1_555 1_555
O4 Nd1 1_555 1_555
O5 C8 1_555 1_555
C8 O4 1_555 1_555
C9 C5 1_555 1_555
C10 C9 1_555 1_555
H5 C10 1_555 1_555
C11 C10 1_555 1_555
H6 C11 1_555 1_555
C12 C8 1_555 1_555
C13 C12 1_555 1_555
H7 C13 1_555 1_555
C14 C9 1_555 1_555
O6 N1 1_555 1_555
O7 N1 1_555 1_555
N1 C14 1_555 1_555
N2 O8 1_555 1_555
O8 H9A 1_555 1_555
O9 N2 1_555 1_555
O10 Nd1 1_555 1_555
O11 C15 1_555 1_555
C15 O10 1_555 1_555
C16 C15 1_555 1_555
C17 C16 1_555 1_555
H8 C17 1_555 1_555
C18 C17 1_555 1_555
H9 C18 1_555 1_555
C19 C18 1_555 1_555
C20 N2 1_555 1_555
C21 C16 1_555 1_555
H10 C21 1_555 1_555
O12 Nd1 1_555 1_555
C22 O12 1_555 1_555
H11 C22 1_555 1_555
C23 H12 1_555 1_555
H13 C23 1_555 1_555
H14 C23 1_555 1_555
C24 H15 1_555 1_555
H16 C24 1_555 1_555
H17 C24 1_555 1_555
N3 C22 1_555 1_555
N4 C25 1_555 1_555
O13 C27 1_555 1_555
C25 H18 1_555 1_555
H19 C25 1_555 1_555
H20 C25 1_555 1_555
C26 N4 1_555 1_555
H21 C26 1_555 1_555
H22 C26 1_555 1_555
H23 C26 1_555 1_555
C27 N4 1_555 1_555
H24 C27 1_555 1_555
N2A O8A 1_555 1_555
O8A H9 1_555 1_555
O9A N2A 1_555 1_555
O10A C15A 1_555 1_555
O11A C15A 1_555 1_555
C15A C16A 1_555 1_555
C16A C17A 1_555 1_555
C17A H8A 1_555 1_555
C18A C17A 1_555 1_555
H9A C18A 1_555 1_555
C19A C19 1_555 1_555
C20A N2A 1_555 1_555
C21A C16A 1_555 1_555
H10A C21A 1_555 1_555
Nd1A O5 1_555 1_555
O1A Nd1A 1_555 1_555
O2A C1A 1_555 1_555
O3A C1A 1_555 1_555
C1A C2A 1_555 1_555
C2A C3A 1_555 1_555
C3A H1A 1_555 1_555
C4A C3A 1_555 1_555
H2A C4A 1_555 1_555
C5A C4A 1_555 1_555
C6A C5A 1_555 1_555
H3A C6A 1_555 1_555
C7A C2A 1_555 1_555
H4A C7A 1_555 1_555
O4A Nd1A 1_555 1_555
O5A Nd1 1_555 1_555
C8A O4A 1_555 1_555
C9A C5A 1_555 1_555
C10A C9A 1_555 1_555
H5A C10A 1_555 1_555
C11A C10A 1_555 1_555
H6A C11A 1_555 1_555
C12A C8A 1_555 1_555
C13A C12A 1_555 1_555
H7A C13A 1_555 1_555
C14A C9A 1_555 1_555
O6A N1A 1_555 1_555
O7A N1A 1_555 1_555
N1A C14A 1_555 1_555
O12A Nd1A 1_555 1_555
C22A O12A 1_555 1_555
H11A C22A 1_555 1_555
C23A H12A 1_555 1_555
H13A C23A 1_555 1_555
H14A C23A 1_555 1_555
C24A H15A 1_555 1_555
H16A C24A 1_555 1_555
H17A C24A 1_555 1_555
N3A C22A 1_555 1_555
Nd1_2 O2A 1_555 1_555
Nd1_3 O11A 1_555 1_555
Nd1_4 O3 1_555 1_555
Nd1A_2 O3A 1_555 1_555
Nd1A_3 O10A 1_555 1_555
Nd1A_4 O2 1_555 1_555
Nd1A_5 O11 1_555 1_555
O2_2 Nd1A 1_555 1_555
O2A_2 Nd1 1_555 1_555
O3_2 Nd1 1_555 1_555
O3A_2 Nd1A 1_555 1_555
O10A_2 Nd1A 1_555 1_555
O11_2 Nd1A 1_555 1_555
O11A_2 Nd1 1_555 1_555
C6 C7 1_555 1_555
C11 C12 1_555 1_555
C13 C14 1_555 1_555
C19 C20 1_555 1_555
C20 C21 1_555 1_555
C23 N3 1_555 1_555
C24 N3 1_555 1_555
C18A C19A 1_555 1_555
C19A C20A 1_555 1_555
C20A C21A 1_555 1_555
C6A C7A 1_555 1_555
O5A C8A 1_555 1_555
C11A C12A 1_555 1_555
C13A C14A 1_555 1_555
C23A N3A 1_555 1_555
C24A N3A 1_555 1_555

#END
