
#######################################################################
#
#                 Cambridge Crystallographic Data Centre
#                                CCDC 
#
#######################################################################
#
# If this CIF has been generated from an entry in the Cambridge 
# Structural Database, then it will include bibliographic, chemical, 
# crystal, experimental, refinement or atomic coordinate data resulting 
# from the CCDC's data processing and validation procedures.
#
#######################################################################

data_VIGTOW
_symmetry_cell_setting           triclinic
_symmetry_space_group_name_H-M   'P -1'
_symmetry_Int_Tables_number      2
_space_group_name_Hall           '-P 1'
loop_
_symmetry_equiv_pos_site_id
_symmetry_equiv_pos_as_xyz
1 x,y,z
2 -x,-y,-z
_cell_length_a                   9.6508(7)
_cell_length_b                   11.3218(9)
_cell_length_c                   14.3139(11)
_cell_angle_alpha                73.017(4)
_cell_angle_beta                 81.282(4)
_cell_angle_gamma                81.990(4)
_cell_volume                     1471.02
loop_
_atom_site_label
_atom_site_type_symbol
_atom_site_fract_x
_atom_site_fract_y
_atom_site_fract_z
N4 N 0.311(3) 0.903(2) 0.1608(17)
O13 O 0.303(4) 1.095(3) 0.059(2)
C25 C 0.385(4) 0.779(3) 0.197(3)
H17 H 0.4678 0.7683 0.1525
H18 H 0.3236 0.7169 0.2016
H19 H 0.4118 0.7694 0.2610
C26 C 0.170(3) 0.924(3) 0.211(3)
H20 H 0.1297 1.0066 0.1825
H21 H 0.1754 0.9123 0.2797
H22 H 0.1112 0.8653 0.2044
C27 C 0.369(3) 0.992(3) 0.0868(18)
H23 H 0.4594 0.9760 0.0565
Pr1 Pr 0.7750(5) 0.4841(4) 1.0060(3)
O1 O 0.6187(15) 0.6800(12) 1.0154(11)
O2 O 1.084(3) 0.6539(16) 0.1109(18)
O3 O 0.898(2) 0.5616(15) 0.0853(14)
C1 C 0.9582(10) 0.6170(9) 0.1350(7)
C2 C 0.8835(15) 0.6292(13) 0.2329(8)
C3 C 0.9479(14) 0.6918(14) 0.2821(11)
H1 H 1.0271 0.7321 0.2513
C4 C 0.8939(16) 0.6941(12) 0.3773(11)
H2 H 0.9370 0.7360 0.4102
C5 C 0.7755(13) 0.6338(10) 0.4233(8)
C6 C 0.7111(12) 0.5712(12) 0.3741(10)
H3 H 0.6319 0.5308 0.4049
C7 C 0.7651(16) 0.5688(14) 0.2789(10)
H4 H 0.7221 0.5269 0.2460
O4 O 0.6047(17) 0.4757(13) 0.8929(15)
O5 O 0.4033(17) 0.5917(14) 0.8494(14)
C8 C 0.5259(18) 0.5434(11) 0.8323(16)
C9 C 0.6949(12) 0.6194(9) 0.5271(7)
C10 C 0.7827(10) 0.5696(11) 0.6006(9)
H5 H 0.8785 0.5507 0.5840
C11 C 0.7273(12) 0.5481(11) 0.6989(8)
H6 H 0.7860 0.5148 0.7480
C12 C 0.5841(12) 0.5764(9) 0.7237(7)
C13 C 0.4964(10) 0.6262(12) 0.6502(9)
H7 H 0.4006 0.6451 0.6668
C14 C 0.5517(12) 0.6477(11) 0.5519(8)
O6 O 0.504(3) 0.798(2) 0.4021(17)
O7 O 0.357(2) 0.665(2) 0.4837(17)
N1 N 0.461(2) 0.702(2) 0.4788(15)
N2 N 1.207(2) 0.1058(17) 1.4794(14)
O8 O 1.170(3) 0.133(3) 1.5592(16)
O9 O 1.3299(19) 0.072(3) 1.445(2)
O10 O 0.677(2) 0.2660(15) 1.0383(15)
C15 C 0.7407(19) 0.1665(15) 1.0773(12)
H8 H 0.8297 0.1448 1.0481
C16 C 0.551(2) 0.116(2) 1.2092(16)
H9 H 0.5101 0.1958 1.1745
H10 H 0.5594 0.1150 1.2752
H11 H 0.4908 0.0537 1.2107
C17 C 0.772(3) -0.0291(18) 1.2012(18)
H12 H 0.8614 -0.0327 1.1614
H13 H 0.7229 -0.0976 1.2025
H14 H 0.7877 -0.0338 1.2670
N3 N 0.6880(18) 0.0885(15) 1.1597(11)
O11 O 0.911(2) 0.348(2) 1.130(2)
O12 O 1.141(2) 0.347(3) 1.130(3)
C18 C 1.030(2) 0.298(2) 1.158(2)
C19 C 1.014(2) 0.2030(15) 1.2588(10)
C20 C 0.9129(15) 0.1193(15) 1.2843(12)
H15 H 0.8517 0.1205 1.2396
C21 C 0.9031(17) 0.0338(17) 1.3766(13)
C22 C 0.994(2) 0.0320(16) 1.4434(12)
C23 C 1.0956(17) 0.1157(14) 1.4179(11)
C24 C 1.1054(18) 0.2012(14) 1.3256(11)
H16 H 1.1731 0.2572 1.3086
N2A N 0.793(2) -0.1058(17) 1.5206(14)
O8A O 0.830(3) -0.133(3) 1.4408(16)
O9A O 0.6701(19) -0.072(3) 1.555(2)
O11A O 1.089(2) -0.348(2) 1.870(2)
O12A O 0.859(2) -0.347(3) 1.870(3)
C18A C 0.970(2) -0.298(2) 1.842(2)
C19A C 0.986(2) -0.2030(15) 1.7412(10)
C20A C 1.0871(15) -0.1193(15) 1.7157(12)
H15A H 1.1483 -0.1205 1.7604
C21A C 1.0969(17) -0.0338(17) 1.6234(13)
C22A C 1.006(2) -0.0320(16) 1.5566(12)
C23A C 0.9044(17) -0.1157(14) 1.5821(11)
C24A C 0.8946(18) -0.2012(14) 1.6744(11)
H16A H 0.8269 -0.2572 1.6914
Pr1A Pr 0.2250(5) 0.5159(4) 0.9940(3)
O1A O 0.3813(15) 0.3200(12) 0.9846(11)
O2A O -0.084(3) 0.3461(16) 1.8891(18)
O3A O 0.102(2) 0.4384(15) 1.9147(14)
C1A C 0.0418(10) 0.3830(9) 1.8650(7)
C2A C 0.1165(15) 0.3708(13) 1.7671(8)
C3A C 0.0521(14) 0.3082(14) 1.7179(11)
H1A H -0.0271 0.2679 1.7487
C4A C 0.1061(16) 0.3059(12) 1.6227(11)
H2A H 0.0630 0.2640 1.5898
C5A C 0.2245(13) 0.3662(10) 1.5767(8)
C6A C 0.2889(12) 0.4288(12) 1.6259(10)
H3A H 0.3681 0.4692 1.5951
C7A C 0.2349(16) 0.4312(14) 1.7211(10)
H4A H 0.2779 0.4731 1.7540
O4A O 0.3953(17) 0.5243(13) 1.1071(15)
O5A O 0.5967(17) 0.4083(14) 1.1506(14)
C8A C 0.4741(18) 0.4566(11) 1.1677(16)
C9A C 0.3051(12) 0.3806(9) 1.4729(7)
C10A C 0.2173(10) 0.4304(11) 1.3994(9)
H5A H 0.1215 0.4493 1.4160
C11A C 0.2727(12) 0.4519(11) 1.3011(8)
H6A H 0.2140 0.4852 1.2520
C12A C 0.4159(12) 0.4236(9) 1.2763(7)
C13A C 0.5036(10) 0.3738(12) 1.3498(9)
H7A H 0.5994 0.3549 1.3332
C14A C 0.4483(12) 0.3523(11) 1.4481(8)
O6A O 0.496(3) 0.202(2) 1.5979(17)
O7A O 0.643(2) 0.335(2) 1.5163(17)
N1A N 0.539(2) 0.298(2) 1.5212(15)
O10A O 0.323(2) 0.7340(15) 0.9617(15)
C15A C 0.2593(19) 0.8335(15) 0.9227(12)
H8A H 0.1703 0.8552 0.9519
C16A C 0.449(2) 0.884(2) 0.7908(16)
H9A H 0.4899 0.8042 0.8255
H10A H 0.4406 0.8850 0.7248
H11A H 0.5092 0.9463 0.7893
C17A C 0.228(3) 1.0291(18) 0.7988(18)
H12A H 0.1386 1.0327 0.8386
H13A H 0.2771 1.0976 0.7975
H14A H 0.2123 1.0338 0.7330
N3A N 0.3120(18) 0.9115(15) 0.8403(11)
Pr1_2 Pr -0.2250(5) 0.4841(4) 2.0060(3)
Pr1_3 Pr 0.7750(5) -0.5159(4) 2.0060(3)
Pr1_4 Pr 0.7750(5) 0.4841(4) 0.0060(3)
Pr1A_2 Pr 0.2250(5) 0.5159(4) 1.9940(3)
Pr1A_3 Pr 1.2250(5) -0.4841(4) 1.9940(3)
Pr1A_4 Pr 1.2250(5) 0.5159(4) -0.0060(3)
Pr1A_5 Pr 1.2250(5) 0.5159(4) 0.9940(3)
O2_2 O 0.084(3) 0.6539(16) 1.1109(18)
O2A_2 O 0.916(3) 0.3461(16) 0.8891(18)
O3_2 O 0.898(2) 0.5616(15) 1.0853(14)
O3A_2 O 0.102(2) 0.4384(15) 0.9147(14)
O11A_2 O 0.089(2) 0.652(2) 0.870(2)
O12_2 O 0.141(2) 0.347(3) 1.130(3)
O12A_2 O 0.859(2) 0.653(3) 0.870(3)
O14? O 1.260(2) -0.056(3) 1.5201(16)
N5? N 1.2684(13) 0.0125(17) 1.4325(13)
O15? O 1.3795(14) 0.043(3) 1.375(2)
O16? O 0.691(4) 0.252(3) 1.031(3)
C28? C 0.644(3) 0.168(2) 1.099(2)
H24? H 0.5596 0.1867 1.1357
C29? C 0.641(5) -0.042(3) 1.208(3)
H25? H 0.5493 -0.0091 1.2307
H26? H 0.6994 -0.0652 1.2605
H27? H 0.6330 -0.1136 1.1870
C30? C 0.836(4) 0.016(3) 1.073(3)
H28? H 0.8700 0.0876 1.0239
H29? H 0.8208 -0.0441 1.0413
H30? H 0.9040 -0.0188 1.1182
N6? N 0.705(3) 0.053(2) 1.125(2)
O17? O 0.358(4) 0.794(3) 0.496(2)
O18? O 0.567(3) 0.875(3) 0.4301(19)
O19? O 0.604(2) 0.5164(15) 0.8936(18)
O20? O 0.3897(17) 0.5527(14) 0.8433(13)
Pr2? Pr 0.7780(6) 0.4538(4) 1.0016(4)
O21? O 1.087(3) 0.6202(18) 0.114(2)
O22? O 0.885(2) 0.6015(17) 0.0815(16)
C31? C 0.9582(10) 0.6170(9) 0.1350(7)
C32? C 0.8855(16) 0.6419(14) 0.2334(9)
C33? C 0.9668(13) 0.6585(17) 0.3000(13)
H31? H 1.0613 0.6712 0.2809
C34? C 0.9068(16) 0.6562(15) 0.3951(12)
H32? H 0.9612 0.6674 0.4396
C35? C 0.7656(16) 0.6373(9) 0.4235(9)
C36? C 0.6843(12) 0.6206(14) 0.3569(11)
H33? H 0.5898 0.6079 0.3760
C37? C 0.5972(18) 0.5759(9) 0.7237(9)
C38? C 0.5246(14) 0.6703(11) 0.6576(9)
H34? H 0.4447 0.7149 0.6802
O23? O 0.6215(18) 0.6615(14) 0.9906(13)
C39? C 0.522(2) 0.5457(10) 0.8283(19)
C40? C 0.5714(14) 0.6982(11) 0.5576(9)
N7? N 0.499(4) 0.798(3) 0.489(2)
O24? O 0.9209(12) 0.3113(11) 1.1150(9)
C41? C 1.0164(15) 0.3168(15) 1.1666(12)
C42? C 1.0181(11) 0.2232(9) 1.2669(6)
C43? C 0.8833(10) 0.1081(12) 1.4125(9)
C44? C 1.0073(12) 0.0476(11) 1.4494(7)
C45? C 0.8887(9) 0.1959(11) 1.3212(8)
C46? C 1.1421(9) 0.1626(10) 1.3038(8)
O25? O 1.1221(13) 0.3730(14) 1.1352(15)
C47? C 1.1367(10) 0.0748(10) 1.3950(8)
C48? C 0.6909(13) 0.6317(12) 0.5238(9)
C49? C 0.7634(14) 0.5373(14) 0.5900(11)
H35? H 0.8433 0.4927 0.5673
C50? C 0.7166(19) 0.5094(12) 0.6899(11)
H36? H 0.7652 0.4462 0.7342
C51? C 0.7443(16) 0.6229(16) 0.2619(10)
H37? H 0.6899 0.6117 0.2173
H38? H 0.8328 -0.0247 1.3948
H39? H 0.8058 0.2364 1.2965
H40? H 0.7914 0.0886 1.4512
H41? H 1.2287 0.1808 1.2674
loop_
_geom_bond_atom_site_label_1
_geom_bond_atom_site_label_2
_geom_bond_site_symmetry_1
_geom_bond_site_symmetry_2
Pr1 O1 1_555 1_555
O2 C1 1_555 1_555
O3 C1 1_555 1_555
C1 C2 1_555 1_555
C2 C3 1_555 1_555
C3 H1 1_555 1_555
C4 C3 1_555 1_555
H2 C4 1_555 1_555
C5 C4 1_555 1_555
C6 C5 1_555 1_555
H3 C6 1_555 1_555
C7 C2 1_555 1_555
H4 C7 1_555 1_555
O4 Pr1 1_555 1_555
O5 C8 1_555 1_555
C8 O4 1_555 1_555
C9 C5 1_555 1_555
C10 C9 1_555 1_555
H5 C10 1_555 1_555
C11 C10 1_555 1_555
H6 C11 1_555 1_555
C12 C8 1_555 1_555
C13 C12 1_555 1_555
H7 C13 1_555 1_555
C14 C9 1_555 1_555
O6 N1 1_555 1_555
O7 N1 1_555 1_555
N1 C14 1_555 1_555
N2 O8 1_555 1_555
O9 N2 1_555 1_555
O10 Pr1 1_555 1_555
C15 O10 1_555 1_555
H8 C15 1_555 1_555
C16 H9 1_555 1_555
H10 C16 1_555 1_555
H11 C16 1_555 1_555
C17 H12 1_555 1_555
H13 C17 1_555 1_555
H14 C17 1_555 1_555
N3 C15 1_555 1_555
O11 Pr1 1_555 1_555
O12 C18 1_555 1_555
C18 O11 1_555 1_555
C19 C18 1_555 1_555
C20 C19 1_555 1_555
H15 C20 1_555 1_555
C21 C20 1_555 1_555
C22 C21 1_555 1_555
C23 N2 1_555 1_555
C24 C19 1_555 1_555
H16 C24 1_555 1_555
N4 C25 1_555 1_555
O13 C27 1_555 1_555
C25 H17 1_555 1_555
H18 C25 1_555 1_555
H19 C25 1_555 1_555
C26 N4 1_555 1_555
H20 C26 1_555 1_555
H21 C26 1_555 1_555
H22 C26 1_555 1_555
C27 N4 1_555 1_555
H23 C27 1_555 1_555
N2A O8A 1_555 1_555
O9A N2A 1_555 1_555
O11A C18A 1_555 1_555
O12A C18A 1_555 1_555
C18A C19A 1_555 1_555
C19A C20A 1_555 1_555
C20A H15A 1_555 1_555
C21A C20A 1_555 1_555
C22A C22 1_555 1_555
C23A N2A 1_555 1_555
C24A C19A 1_555 1_555
H16A C24A 1_555 1_555
Pr1A O5 1_555 1_555
O1A Pr1A 1_555 1_555
O2A C1A 1_555 1_555
O3A C1A 1_555 1_555
C1A C2A 1_555 1_555
C2A C3A 1_555 1_555
C3A H1A 1_555 1_555
C4A C3A 1_555 1_555
H2A C4A 1_555 1_555
C5A C4A 1_555 1_555
C6A C5A 1_555 1_555
H3A C6A 1_555 1_555
C7A C2A 1_555 1_555
H4A C7A 1_555 1_555
O4A Pr1A 1_555 1_555
O5A Pr1 1_555 1_555
C8A O4A 1_555 1_555
C9A C5A 1_555 1_555
C10A C9A 1_555 1_555
H5A C10A 1_555 1_555
C11A C10A 1_555 1_555
H6A C11A 1_555 1_555
C12A C8A 1_555 1_555
C13A C12A 1_555 1_555
H7A C13A 1_555 1_555
C14A C9A 1_555 1_555
O6A N1A 1_555 1_555
O7A N1A 1_555 1_555
N1A C14A 1_555 1_555
O10A Pr1A 1_555 1_555
C15A O10A 1_555 1_555
H8A C15A 1_555 1_555
C16A H9A 1_555 1_555
H10A C16A 1_555 1_555
H11A C16A 1_555 1_555
C17A H12A 1_555 1_555
H13A C17A 1_555 1_555
H14A C17A 1_555 1_555
N3A C15A 1_555 1_555
Pr1_2 O2A 1_555 1_555
Pr1_3 O12A 1_555 1_555
Pr1_4 O3 1_555 1_555
Pr1A_2 O3A 1_555 1_555
Pr1A_3 O11A 1_555 1_555
Pr1A_4 O2 1_555 1_555
Pr1A_5 O12 1_555 1_555
O2_2 Pr1A 1_555 1_555
O2A_2 Pr1 1_555 1_555
O3_2 Pr1 1_555 1_555
O3A_2 Pr1A 1_555 1_555
O11A_2 Pr1A 1_555 1_555
O12_2 Pr1A 1_555 1_555
O12A_2 Pr1 1_555 1_555
C6 C7 1_555 1_555
C11 C12 1_555 1_555
C13 C14 1_555 1_555
C16 N3 1_555 1_555
C17 N3 1_555 1_555
C22 C23 1_555 1_555
C23 C24 1_555 1_555
C21A C22A 1_555 1_555
C22A C23A 1_555 1_555
C23A C24A 1_555 1_555
C6A C7A 1_555 1_555
O5A C8A 1_555 1_555
C11A C12A 1_555 1_555
C13A C14A 1_555 1_555
C16A N3A 1_555 1_555
C17A N3A 1_555 1_555

#END
