
#######################################################################
#
#                 Cambridge Crystallographic Data Centre
#                                CCDC 
#
#######################################################################
#
# If this CIF has been generated from an entry in the Cambridge 
# Structural Database, then it will include bibliographic, chemical, 
# crystal, experimental, refinement or atomic coordinate data resulting 
# from the CCDC's data processing and validation procedures.
#
#######################################################################

data_VIGTEM
_symmetry_cell_setting           triclinic
_symmetry_space_group_name_H-M   'P -1'
_symmetry_Int_Tables_number      2
_space_group_name_Hall           '-P 1'
loop_
_symmetry_equiv_pos_site_id
_symmetry_equiv_pos_as_xyz
1 x,y,z
2 -x,-y,-z
_cell_length_a                   9.6931(6)
_cell_length_b                   11.3006(8)
_cell_length_c                   14.3505(10)
_cell_angle_alpha                73.455(3)
_cell_angle_beta                 81.523(3)
_cell_angle_gamma                81.699(4)
_cell_volume                     1481.66
loop_
_atom_site_label
_atom_site_type_symbol
_atom_site_fract_x
_atom_site_fract_y
_atom_site_fract_z
N4 N 0.314(2) 0.9013(19) 0.1595(13)
O13 O 0.315(3) 1.090(2) 0.0560(17)
C25 C 0.385(3) 0.777(2) 0.202(2)
H18 H 0.4682 0.7624 0.1600
H19 H 0.3228 0.7157 0.2080
H20 H 0.4088 0.7733 0.2653
C26 C 0.167(2) 0.924(3) 0.199(2)
H21 H 0.1308 1.0075 0.1688
H22 H 0.1620 0.9122 0.2686
H23 H 0.1127 0.8669 0.1865
C27 C 0.379(2) 0.988(2) 0.0890(15)
H24 H 0.4718 0.9709 0.0653
La1 La 0.77767(4) 0.46955(4) 1.00376(2)
O1 O 0.625(4) 0.674(3) 1.022(2)
O2 O 1.086(2) 0.6605(14) 0.1141(16)
O3 O 0.9101(19) 0.5616(15) 0.0849(14)
C1 C 0.962(6) 0.611(3) 0.137(3)
C2 C 0.8866(13) 0.6295(11) 0.2368(7)
C3 C 0.9484(12) 0.6929(12) 0.2869(9)
H1 H 1.0270 0.7334 0.2572
C4 C 0.8928(13) 0.6958(11) 0.3813(9)
H2 H 0.9341 0.7382 0.4147
C5 C 0.7753(11) 0.6353(8) 0.4256(7)
C6 C 0.7135(11) 0.5719(12) 0.3756(8)
H3 H 0.6349 0.5314 0.4053
C7 C 0.7692(14) 0.5690(13) 0.2812(9)
H4 H 0.7278 0.5265 0.2477
O4 O 0.6004(17) 0.4765(12) 0.8922(14)
O5 O 0.3999(16) 0.5928(14) 0.8469(14)
C8 C 0.5240(17) 0.5444(10) 0.8299(14)
C9 C 0.6956(10) 0.6215(8) 0.5269(6)
C10 C 0.7816(8) 0.5706(10) 0.6011(7)
H5 H 0.8772 0.5510 0.5856
C11 C 0.7247(10) 0.5489(9) 0.6984(6)
H6 H 0.7822 0.5148 0.7480
C12 C 0.5818(10) 0.5782(8) 0.7216(6)
C13 C 0.4959(8) 0.6291(11) 0.6474(7)
H7 H 0.4003 0.6487 0.6629
C14 C 0.5528(10) 0.6508(10) 0.5501(6)
O6 O 0.504(2) 0.803(2) 0.4026(15)
O7 O 0.357(2) 0.673(2) 0.4806(14)
N1 N 0.462(2) 0.7124(17) 0.4737(12)
O8 O 0.9275(12) 0.3040(11) 1.1146(10)
O9 O 1.1250(13) 0.3704(12) 1.1378(13)
C15 C 1.0217(15) 0.3108(14) 1.1664(12)
C16 C 1.0220(9) 0.2220(8) 1.2682(5)
C17 C 0.8924(8) 0.2004(10) 1.3223(7)
H8 H 0.8106 0.2428 1.2971
C18 C 0.8852(8) 0.1154(11) 1.4140(7)
H9 H 0.7985 0.1009 1.4502
C19 C 1.0074(10) 0.0520(9) 1.4516(6)
C20 C 1.1370(8) 0.0737(9) 1.3975(7)
C21 C 1.1442(8) 0.1587(9) 1.3058(7)
H10 H 1.2309 0.1731 1.2696
O10 O 0.6728(19) 0.2598(13) 1.0358(14)
C22 C 0.7343(16) 0.1595(12) 1.0752(11)
H11 H 0.8220 0.1344 1.0467
C23 C 0.5452(19) 0.1136(19) 1.2081(14)
H12 H 0.5042 0.1937 1.1737
H13 H 0.5566 0.1144 1.2733
H14 H 0.4850 0.0519 1.2112
C24 C 0.761(2) -0.0357(16) 1.2010(17)
H15 H 0.8504 -0.0412 1.1624
H16 H 0.7108 -0.1030 1.2013
H17 H 0.7755 -0.0406 1.2668
N2 N 0.6783(16) 0.0851(13) 1.1583(10)
N3 N 1.2092(17) 0.1047(14) 1.4784(12)
O11 O 1.173(3) 0.118(3) 1.5626(13)
O12 O 1.3320(15) 0.086(3) 1.4363(18)
O8A O 1.0725(12) -0.3040(11) 1.8854(10)
O9A O 0.8750(13) -0.3704(12) 1.8622(13)
C15A C 0.9783(15) -0.3108(14) 1.8336(12)
C16A C 0.9780(9) -0.2220(8) 1.7318(5)
C17A C 1.1076(8) -0.2004(10) 1.6777(7)
H8A H 1.1894 -0.2428 1.7029
C18A C 1.1148(8) -0.1154(11) 1.5860(7)
H9A H 1.2015 -0.1009 1.5498
C19A C 0.9926(10) -0.0520(9) 1.5484(6)
C20A C 0.8630(8) -0.0737(9) 1.6025(7)
C21A C 0.8558(8) -0.1587(9) 1.6942(7)
H10A H 0.7691 -0.1731 1.7304
N3A N 0.7908(17) -0.1047(14) 1.5216(12)
O11A O 0.827(3) -0.118(3) 1.4374(13)
O12A O 0.6680(15) -0.086(3) 1.5637(18)
La1A La 0.22233(4) 0.53045(4) 0.99624(2)
O1A O 0.375(4) 0.326(3) 0.978(2)
O2A O -0.086(2) 0.3395(14) 1.8859(16)
O3A O 0.0899(19) 0.4384(15) 1.9151(14)
C1A C 0.038(6) 0.389(3) 1.863(3)
C2A C 0.1134(13) 0.3705(11) 1.7632(7)
C3A C 0.0516(12) 0.3071(12) 1.7131(9)
H1A H -0.0270 0.2666 1.7428
C4A C 0.1072(13) 0.3042(11) 1.6187(9)
H2A H 0.0659 0.2618 1.5853
C5A C 0.2247(11) 0.3647(8) 1.5744(7)
C6A C 0.2865(11) 0.4281(12) 1.6244(8)
H3A H 0.3651 0.4686 1.5947
C7A C 0.2308(14) 0.4310(13) 1.7188(9)
H4A H 0.2722 0.4735 1.7523
O4A O 0.3996(17) 0.5235(12) 1.1078(14)
O5A O 0.6001(16) 0.4072(14) 1.1531(14)
C8A C 0.4760(17) 0.4556(10) 1.1701(14)
C9A C 0.3044(10) 0.3785(8) 1.4731(6)
C10A C 0.2184(8) 0.4294(10) 1.3989(7)
H5A H 0.1228 0.4490 1.4144
C11A C 0.2753(10) 0.4511(9) 1.3016(6)
H6A H 0.2178 0.4852 1.2520
C12A C 0.4182(10) 0.4218(8) 1.2784(6)
C13A C 0.5041(8) 0.3709(11) 1.3526(7)
H7A H 0.5997 0.3513 1.3371
C14A C 0.4472(10) 0.3492(10) 1.4499(6)
O6A O 0.496(2) 0.197(2) 1.5974(15)
O7A O 0.643(2) 0.327(2) 1.5194(14)
N1A N 0.538(2) 0.2876(17) 1.5263(12)
O10A O 0.3272(19) 0.7402(13) 0.9642(14)
C22A C 0.2657(16) 0.8405(12) 0.9248(11)
H11A H 0.1780 0.8656 0.9533
C23A C 0.4548(19) 0.8864(19) 0.7919(14)
H12A H 0.4958 0.8063 0.8263
H13A H 0.4434 0.8856 0.7267
H14A H 0.5150 0.9481 0.7888
C24A C 0.239(2) 1.0357(16) 0.7990(17)
H15A H 0.1496 1.0412 0.8376
H16A H 0.2892 1.1030 0.7987
H17A H 0.2245 1.0406 0.7332
N2A N 0.3217(16) 0.9149(13) 0.8417(10)
La1_2 La -0.22233(4) 0.46955(4) 2.00376(2)
La1_3 La 0.77767(4) -0.53045(4) 2.00376(2)
La1_4 La 0.77767(4) 0.46955(4) 0.00376(2)
La1A_2 La 0.22233(4) 0.53045(4) 1.99624(2)
La1A_3 La 1.22233(4) -0.46955(4) 1.99624(2)
La1A_4 La 1.22233(4) 0.53045(4) -0.00376(2)
La1A_5 La 1.22233(4) 0.53045(4) 0.99624(2)
O2_2 O 0.086(2) 0.6605(14) 1.1141(16)
O2A_2 O 0.914(2) 0.3395(14) 0.8859(16)
O3_2 O 0.9101(19) 0.5616(15) 1.0849(14)
O3A_2 O 0.0899(19) 0.4384(15) 0.9151(14)
O8A_2 O 0.0725(12) 0.6960(11) 0.8854(10)
O9_2 O 0.1250(13) 0.3704(12) 1.1378(13)
O9A_2 O 0.8750(13) 0.6296(12) 0.8622(13)
La2? La 0.77767(4) 0.46955(4) 1.00376(2)
O14? O 0.611(5) 0.675(3) 0.995(3)
O15? O 1.089(3) 0.6259(16) 0.1187(18)
O16? O 0.892(2) 0.5965(15) 0.0836(15)
C28? C 0.965(6) 0.626(4) 0.139(4)
C29? C 0.8902(13) 0.6387(11) 0.2348(7)
C30? C 0.9677(10) 0.6575(14) 0.3024(10)
H25? H 1.0615 0.6712 0.2848
C31? C 0.9051(12) 0.6558(13) 0.3963(9)
H26? H 0.9570 0.6684 0.4416
C32? C 0.7649(12) 0.6353(8) 0.4226(7)
C33? C 0.6874(10) 0.6165(11) 0.3549(8)
H27? H 0.5936 0.6028 0.3725
C34? C 0.7500(13) 0.6182(13) 0.2610(8)
H28? H 0.6981 0.6056 0.2157
N5? N 0.502(3) 0.792(2) 0.4903(17)
O17? O 0.562(3) 0.872(2) 0.4270(17)
C35? C 0.519(2) 0.5477(10) 0.8254(19)
C36? C 0.6887(11) 0.6303(10) 0.5248(8)
C37? C 0.7617(12) 0.5372(13) 0.5914(10)
H29? H 0.8424 0.4928 0.5695
C38? C 0.7142(17) 0.5104(11) 0.6906(9)
H30? H 0.7630 0.4482 0.7351
C39? C 0.5936(16) 0.5768(9) 0.7232(8)
C40? C 0.5206(13) 0.6699(11) 0.6566(8)
H31? H 0.4400 0.7143 0.6784
C41? C 0.5682(13) 0.6966(10) 0.5574(8)
O18? O 0.914(2) 0.3355(19) 1.1272(17)
O19? O 1.143(2) 0.343(2) 1.130(2)
C42? C 1.031(2) 0.295(2) 1.161(2)
C43? C 1.0138(15) 0.2027(12) 1.2605(8)
C44? C 0.9131(12) 0.1197(12) 1.2851(9)
H32? H 0.8520 0.1213 1.2404
C45? C 0.9036(14) 0.0342(13) 1.3766(10)
H33? H 0.8362 -0.0213 1.3930
C46? C 0.9949(16) 0.0317(13) 1.4434(9)
C47? C 1.0956(13) 0.1147(11) 1.4188(9)
C48? C 1.1051(14) 0.2002(11) 1.3274(9)
H34? H 1.1725 0.2557 1.3109
O20? O 1.273(3) 0.000(3) 1.5263(14)
O21? O 1.349(2) -0.046(3) 1.382(2)
N6? N 1.2648(13) 0.0065(15) 1.4376(12)
O22? O 0.689(3) 0.256(2) 1.037(3)
C49? C 0.644(3) 0.1712(19) 1.103(2)
H35? H 0.5572 0.1869 1.1381
C50? C 0.646(4) -0.038(3) 1.210(2)
H36? H 0.5544 -0.0044 1.2325
H37? H 0.7035 -0.0630 1.2627
H38? H 0.6373 -0.1087 1.1875
C51? C 0.844(3) 0.025(3) 1.079(3)
H39? H 0.8766 0.0979 1.0325
H40? H 0.8352 -0.0355 1.0461
H41? H 0.9105 -0.0086 1.1261
N7? N 0.711(2) 0.0578(19) 1.1284(17)
O23? O 0.5997(19) 0.5159(14) 0.8914(16)
O24? O 0.3859(17) 0.5573(14) 0.8417(14)
O25? O 0.355(3) 0.792(3) 0.4973(18)
loop_
_geom_bond_atom_site_label_1
_geom_bond_atom_site_label_2
_geom_bond_site_symmetry_1
_geom_bond_site_symmetry_2
La1 O1 1_555 1_555
O2 C1 1_555 1_555
O3 C1 1_555 1_555
C1 C2 1_555 1_555
C2 C3 1_555 1_555
C3 H1 1_555 1_555
C4 C3 1_555 1_555
H2 C4 1_555 1_555
C5 C4 1_555 1_555
C6 C5 1_555 1_555
H3 C6 1_555 1_555
C7 C2 1_555 1_555
H4 C7 1_555 1_555
O4 La1 1_555 1_555
O5 C8 1_555 1_555
C8 O4 1_555 1_555
C9 C5 1_555 1_555
C10 C9 1_555 1_555
H5 C10 1_555 1_555
C11 C10 1_555 1_555
H6 C11 1_555 1_555
C12 C8 1_555 1_555
C13 C12 1_555 1_555
H7 C13 1_555 1_555
C14 C9 1_555 1_555
O6 N1 1_555 1_555
O7 N1 1_555 1_555
N1 C14 1_555 1_555
O8 La1 1_555 1_555
O9 C15 1_555 1_555
C15 O8 1_555 1_555
C16 C15 1_555 1_555
C17 C16 1_555 1_555
H8 C17 1_555 1_555
C18 C17 1_555 1_555
H9 C18 1_555 1_555
C19 C18 1_555 1_555
C20 C19 1_555 1_555
C21 C16 1_555 1_555
H10 C21 1_555 1_555
O10 La1 1_555 1_555
C22 O10 1_555 1_555
H11 C22 1_555 1_555
C23 H12 1_555 1_555
H13 C23 1_555 1_555
H14 C23 1_555 1_555
C24 H15 1_555 1_555
H16 C24 1_555 1_555
H17 C24 1_555 1_555
N2 C22 1_555 1_555
N3 C20 1_555 1_555
O11 N3 1_555 1_555
O12 N3 1_555 1_555
N4 C25 1_555 1_555
O13 C27 1_555 1_555
C25 H18 1_555 1_555
H19 C25 1_555 1_555
H20 C25 1_555 1_555
C26 N4 1_555 1_555
H21 C26 1_555 1_555
H22 C26 1_555 1_555
H23 C26 1_555 1_555
C27 N4 1_555 1_555
H24 C27 1_555 1_555
O8A C15A 1_555 1_555
O9A C15A 1_555 1_555
C15A C16A 1_555 1_555
C16A C17A 1_555 1_555
C17A H8A 1_555 1_555
C18A C17A 1_555 1_555
H9A C18A 1_555 1_555
C19A C19 1_555 1_555
C20A C19A 1_555 1_555
C21A C16A 1_555 1_555
H10A C21A 1_555 1_555
N3A C20A 1_555 1_555
O11A N3A 1_555 1_555
O12A N3A 1_555 1_555
La1A O5 1_555 1_555
O1A La1A 1_555 1_555
O2A C1A 1_555 1_555
O3A C1A 1_555 1_555
C1A C2A 1_555 1_555
C2A C3A 1_555 1_555
C3A H1A 1_555 1_555
C4A C3A 1_555 1_555
H2A C4A 1_555 1_555
C5A C4A 1_555 1_555
C6A C5A 1_555 1_555
H3A C6A 1_555 1_555
C7A C2A 1_555 1_555
H4A C7A 1_555 1_555
O4A La1A 1_555 1_555
O5A La1 1_555 1_555
C8A O4A 1_555 1_555
C9A C5A 1_555 1_555
C10A C9A 1_555 1_555
H5A C10A 1_555 1_555
C11A C10A 1_555 1_555
H6A C11A 1_555 1_555
C12A C8A 1_555 1_555
C13A C12A 1_555 1_555
H7A C13A 1_555 1_555
C14A C9A 1_555 1_555
O6A N1A 1_555 1_555
O7A N1A 1_555 1_555
N1A C14A 1_555 1_555
O10A La1A 1_555 1_555
C22A O10A 1_555 1_555
H11A C22A 1_555 1_555
C23A H12A 1_555 1_555
H13A C23A 1_555 1_555
H14A C23A 1_555 1_555
C24A H15A 1_555 1_555
H16A C24A 1_555 1_555
H17A C24A 1_555 1_555
N2A C22A 1_555 1_555
La1_2 O2A 1_555 1_555
La1_3 O9A 1_555 1_555
La1_4 O3 1_555 1_555
La1A_2 O3A 1_555 1_555
La1A_3 O8A 1_555 1_555
La1A_4 O2 1_555 1_555
La1A_5 O9 1_555 1_555
O2_2 La1A 1_555 1_555
O2A_2 La1 1_555 1_555
O3_2 La1 1_555 1_555
O3A_2 La1A 1_555 1_555
O8A_2 La1A 1_555 1_555
O9_2 La1A 1_555 1_555
O9A_2 La1 1_555 1_555
C6 C7 1_555 1_555
C11 C12 1_555 1_555
C13 C14 1_555 1_555
C20 C21 1_555 1_555
C23 N2 1_555 1_555
C24 N2 1_555 1_555
C18A C19A 1_555 1_555
C20A C21A 1_555 1_555
C6A C7A 1_555 1_555
O5A C8A 1_555 1_555
C11A C12A 1_555 1_555
C13A C14A 1_555 1_555
C23A N2A 1_555 1_555
C24A N2A 1_555 1_555

#END
