
#######################################################################
#
#                 Cambridge Crystallographic Data Centre
#                                CCDC 
#
#######################################################################
#
# If this CIF has been generated from an entry in the Cambridge 
# Structural Database, then it will include bibliographic, chemical, 
# crystal, experimental, refinement or atomic coordinate data resulting 
# from the CCDC's data processing and validation procedures.
#
#######################################################################

data_VIGTAH
_symmetry_cell_setting           monoclinic
_symmetry_space_group_name_H-M   'P 21/c'
_symmetry_Int_Tables_number      14
_space_group_name_Hall           '-P 2ybc'
loop_
_symmetry_equiv_pos_site_id
_symmetry_equiv_pos_as_xyz
1 x,y,z
2 -x,1/2+y,1/2-z
3 -x,-y,-z
4 x,1/2-y,1/2+z
_cell_length_a                   20.540(4)
_cell_length_b                   24.291(5)
_cell_length_c                   27.441(6)
_cell_angle_alpha                90
_cell_angle_beta                 111.67(3)
_cell_angle_gamma                90
_cell_volume                     12723.7
loop_
_atom_site_label
_atom_site_type_symbol
_atom_site_fract_x
_atom_site_fract_y
_atom_site_fract_z
C1 C -0.8148(11) 0.7369(7) 0.2639(7)
C2 C -0.8532(9) 0.7148(6) 0.2876(6)
C3 C -0.8382(11) 0.7250(7) 0.3422(7)
H1 H -0.8668 0.7089 0.3588
C4 C -0.7817(12) 0.7587(8) 0.3711(8)
H2 H -0.7712 0.7657 0.4073
C5 C -0.7407(12) 0.7821(7) 0.3443(8)
C6 C -0.6816(12) 0.8158(8) 0.3739(7)
H3 H -0.6707 0.8215 0.4103
C7 C -0.6401(13) 0.8403(9) 0.3492(8)
H4 H -0.5997 0.8612 0.3685
C8 C -0.6604(11) 0.8329(8) 0.2952(7)
H5 H -0.6345 0.8503 0.2772
C9 C -0.7190(12) 0.7997(6) 0.2667(8)
H6 H -0.7301 0.7955 0.2301
C10 C -0.7613(12) 0.7728(7) 0.2890(7)
C11 C -0.8261(11) 0.7229(7) 0.2083(7)
C12 C -0.7845(11) 0.6901(7) 0.1924(8)
C13 C -0.8021(12) 0.6804(7) 0.1361(7)
H7 H -0.7710 0.6579 0.1264
C14 C -0.8547(14) 0.6994(7) 0.0996(9)
H8 H -0.8609 0.6915 0.0642
C15 C -0.9030(14) 0.7313(8) 0.1098(8)
C16 C -0.9650(15) 0.7576(10) 0.0704(10)
H9 H -0.9758 0.7508 0.0341
C17 C -1.0020(15) 0.7879(10) 0.0839(10)
H10 H -1.0430 0.8003 0.0563
C18 C -0.9934(14) 0.8089(9) 0.1377(9)
H11 H -1.0236 0.8343 0.1452
C19 C -0.9343(12) 0.7852(8) 0.1742(8)
H12 H -0.9263 0.7923 0.2100
C20 C -0.8843(13) 0.7514(8) 0.1642(8)
C21 C -1.1791(9) 0.5835(7) -0.7024(7)
C22 C -1.1821(8) 0.5321(7) -0.6818(7)
C23 C -1.1594(9) 0.5239(7) -0.6256(7)
H13 H -1.1613 0.4877 -0.6130
C24 C -1.1332(12) 0.5689(8) -0.5865(8)
H14 H -1.1214 0.5633 -0.5499
C25 C -1.1276(12) 0.6195(7) -0.6075(8)
C26 C -1.1063(12) 0.6651(8) -0.5746(8)
H15 H -1.0955 0.6610 -0.5380
C27 C -1.1008(11) 0.7154(7) -0.5944(8)
H16 H -1.0821 0.7451 -0.5708
C28 C -1.1211(11) 0.7248(8) -0.6468(8)
H17 H -1.1157 0.7608 -0.6583
C29 C -1.1491(10) 0.6842(7) -0.6839(7)
H18 H -1.1670 0.6925 -0.7203
C30 C -1.1502(10) 0.6292(7) -0.6653(7)
C31 C -1.2081(11) 0.5966(6) -0.7614(7)
C32 C -1.2729(11) 0.6209(5) -0.7873(7)
C33 C -1.3021(12) 0.6305(7) -0.8393(7)
H19 H -1.3473 0.6461 -0.8564
C34 C -1.2533(13) 0.6132(8) -0.8670(7)
H20 H -1.2666 0.6230 -0.9029
C35 C -1.1918(13) 0.5846(7) -0.8444(7)
C36 C -1.1515(12) 0.5679(7) -0.8755(8)
H21 H -1.1660 0.5752 -0.9120
C37 C -1.0963(13) 0.5430(7) -0.8503(8)
H22 H -1.0774 0.5209 -0.8703
C38 C -1.0589(12) 0.5434(7) -0.7966(8)
H23 H -1.0105 0.5347 -0.7809
C39 C -1.0982(11) 0.5574(6) -0.7699(7)
H24 H -1.0796 0.5510 -0.7331
C40 C -1.1654(11) 0.5810(6) -0.7915(7)
C41 C -1.0078(7) 0.7097(5) 0.2386(5)
C42 C -1.0113(7) 0.7547(6) 0.2688(4)
H25 H -0.9723 0.7639 0.2994
C43 C -1.0720(8) 0.7863(5) 0.2540(5)
H26 H -1.0744 0.8171 0.2747
C44 C -1.1291(6) 0.7729(6) 0.2091(6)
H27 H -1.1705 0.7944 0.1991
C45 C -1.1255(7) 0.7278(6) 0.1790(4)
H28 H -1.1645 0.7186 0.1483
C46 C -1.0648(9) 0.6962(5) 0.1937(5)
H29 H -1.0624 0.6655 0.1731
C47 C -1.3126(7) 0.7144(4) -0.7335(5)
C48 C -1.2918(7) 0.7512(6) -0.7637(4)
H30 H -1.2871 0.7390 -0.7952
C49 C -1.2780(8) 0.8057(5) -0.7480(5)
H31 H -1.2638 0.8309 -0.7687
C50 C -1.2850(8) 0.8235(4) -0.7020(6)
H32 H -1.2755 0.8608 -0.6913
C51 C -1.3058(8) 0.7867(6) -0.6718(5)
H33 H -1.3105 0.7988 -0.6404
C52 C -1.3196(7) 0.7322(6) -0.6875(5)
H34 H -1.3338 0.7070 -0.6668
C53 C -0.9312(8) 0.6232(6) 0.3051(5)
C54 C -0.9667(7) 0.6336(5) 0.3385(6)
H35 H -0.9939 0.6661 0.3343
C55 C -0.9625(7) 0.5964(6) 0.3781(5)
H36 H -0.9868 0.6035 0.4009
C56 C -0.9227(8) 0.5488(5) 0.3843(5)
H37 H -0.9198 0.5234 0.4113
C57 C -0.8872(7) 0.5384(5) 0.3508(6)
H38 H -0.8600 0.5058 0.3550
C58 C -0.8914(8) 0.5755(7) 0.3113(5)
H39 H -0.8671 0.5684 0.2884
C59 C -1.4150(7) 0.6403(8) -0.8012(5)
C60 C -1.4542(9) 0.5922(5) -0.8150(6)
H40 H -1.4369 0.5591 -0.7962
C61 C -1.5188(9) 0.5925(7) -0.8562(7)
H41 H -1.5455 0.5596 -0.8657
C62 C -1.5441(7) 0.6409(9) -0.8837(5)
H42 H -1.5883 0.6411 -0.9119
C63 C -1.5049(11) 0.6890(7) -0.8700(7)
H43 H -1.5223 0.7221 -0.8888
C64 C -1.4404(10) 0.6887(6) -0.8287(7)
H44 H -1.4136 0.7216 -0.8193
C65 C -0.7047(10) 0.5903(6) 0.2108(6)
C66 C -0.7489(8) 0.5472(8) 0.2114(6)
H45 H -0.7819 0.5518 0.2279
C67 C -0.7449(10) 0.4973(6) 0.1878(7)
H46 H -0.7751 0.4679 0.1882
C68 C -0.6966(13) 0.4906(7) 0.1637(7)
H47 H -0.6938 0.4565 0.1476
C69 C -0.6524(10) 0.5337(11) 0.1631(7)
H48 H -0.6195 0.5291 0.1466
C70 C -0.6565(9) 0.5836(8) 0.1867(8)
H49 H -0.6263 0.6130 0.1863
C71 C -1.1331(8) 0.4395(6) -0.7297(6)
C72 C -1.0659(10) 0.4463(6) -0.6926(5)
H50 H -1.0591 0.4646 -0.6605
C73 C -1.0086(7) 0.4263(7) -0.7025(6)
H51 H -0.9626 0.4310 -0.6772
C74 C -1.0185(8) 0.3995(7) -0.7495(8)
H52 H -0.9793 0.3858 -0.7562
C75 C -1.0857(10) 0.3926(5) -0.7865(5)
H53 H -1.0925 0.3743 -0.8186
C76 C -1.1430(7) 0.4126(6) -0.7766(5)
H54 H -1.1890 0.4080 -0.8020
C77 C -0.6352(7) 0.6945(6) 0.2454(7)
C78 C -0.5790(10) 0.6923(6) 0.2931(5)
H55 H -0.5823 0.6708 0.3210
C79 C -0.5181(8) 0.7215(7) 0.2999(5)
H56 H -0.4797 0.7200 0.3325
C80 C -0.5133(8) 0.7529(6) 0.2590(8)
H57 H -0.4717 0.7729 0.2637
C81 C -0.5695(11) 0.7551(6) 0.2113(6)
H58 H -0.5662 0.7766 0.1834
C82 C -0.6304(8) 0.7259(7) 0.2045(5)
H59 H -0.6688 0.7274 0.1719
C83 C -1.2373(8) 0.4227(4) -0.6809(4)
C84 C -1.3067(7) 0.4213(5) -0.6848(4)
H60 H -1.3394 0.4470 -0.7066
C85 C -1.3282(6) 0.3822(6) -0.6569(5)
H61 H -1.3757 0.3813 -0.6596
C86 C -1.2803(8) 0.3446(5) -0.6250(5)
H62 H -1.2950 0.3180 -0.6059
C87 C -1.2109(8) 0.3460(5) -0.6211(4)
H63 H -1.1782 0.3203 -0.5993
C88 C -1.1894(6) 0.3850(5) -0.6491(5)
H64 H -1.1420 0.3860 -0.6464
N1 N -0.9472(9) 0.5767(6) 0.1150(6)
C89 C -0.9330(11) 0.5248(9) 0.1166(8)
H65 H -0.9104 0.5067 0.1492
C90 C -0.9515(12) 0.4959(8) 0.0699(8)
H66 H -0.9392 0.4581 0.0713
C91 C -0.9848(13) 0.5181(9) 0.0244(8)
C92 C -0.9938(14) 0.5685(10) 0.0281(9)
H67 H -1.0129 0.5875 -0.0043
C93 C -0.9812(14) 0.5986(9) 0.0691(9)
H68 H -0.9963 0.6359 0.0660
N2 N -1.2920(8) 0.4019(6) -0.3874(5)
C94 C -1.3012(10) 0.3746(9) -0.4307(7)
H69 H -1.3046 0.3356 -0.4309
C95 C -1.3061(11) 0.4030(9) -0.4769(8)
H70 H -1.3122 0.3823 -0.5077
C96 C -1.3024(11) 0.4600(9) -0.4789(7)
C97 C -1.2969(12) 0.4878(9) -0.4316(7)
H71 H -1.3014 0.5267 -0.4319
C98 C -1.2853(11) 0.4594(8) -0.3858(7)
H72 H -1.2728 0.4785 -0.3534
N3 N -1.3266(9) 0.5468(6) -0.6184(6)
C99 C -1.3631(11) 0.5052(8) -0.6180(7)
H73 H -1.3947 0.4931 -0.6513
C100 C -1.3631(12) 0.4755(8) -0.5762(7)
H74 H -1.3957 0.4466 -0.5800
C101 C -1.3156(13) 0.4888(9) -0.5299(8)
C102 C -1.2804(12) 0.5366(9) -0.5258(7)
H75 H -1.2530 0.5506 -0.4921
C103 C -1.2836(13) 0.5643(9) -0.5684(8)
H76 H -1.2561 0.5966 -0.5648
N4 N -1.3700(14) 0.4874(8) -0.8766(8)
C104 C -1.3480(17) 0.5018(8) -0.9146(10)
H77 H -1.3002 0.5083 -0.9090
C105 C -1.4012(17) 0.5063(9) -0.9630(10)
H78 H -1.3870 0.5188 -0.9903
C106 C -1.467(2) 0.4964(11) -0.9769(11)
C107 C -1.4924(16) 0.4846(9) -0.9369(10)
H79 H -1.5410 0.4814 -0.9434
C108 C -1.4354(17) 0.4772(9) -0.8818(10)
H80 H -1.4469 0.4657 -0.8528
Au1 Au -0.92974(5) 0.62094(3) 0.18521(3)
P1 P -0.9280(3) 0.6675(2) 0.25580(19)
Au2 Au -0.71364(5) 0.63140(3) 0.31761(3)
P2 P -0.7091(4) 0.6537(2) 0.2390(2)
Au3 Au -1.32820(6) 0.59199(3) -0.68322(3)
P3 P -1.3296(3) 0.6428(2) -0.75105(19)
Au4 Au -1.29634(6) 0.48249(4) -0.79904(3)
P4 P -1.2113(3) 0.47038(19) -0.72206(18)
C1B C -1.1852(11) 0.2631(7) -0.2639(7)
C2B C -1.1468(9) 0.2852(6) -0.2876(6)
C3B C -1.1618(11) 0.2750(7) -0.3422(7)
H1B H -1.1332 0.2911 -0.3588
C4B C -1.2183(12) 0.2413(8) -0.3711(8)
H2B H -1.2288 0.2343 -0.4073
C5B C -1.2593(12) 0.2179(7) -0.3443(8)
C6B C -1.3184(12) 0.1842(8) -0.3739(7)
H3B H -1.3293 0.1785 -0.4103
C7B C -1.3599(13) 0.1597(9) -0.3492(8)
H4B H -1.4003 0.1388 -0.3685
C8B C -1.3396(11) 0.1671(8) -0.2952(7)
H5B H -1.3655 0.1497 -0.2772
C9B C -1.2810(12) 0.2003(6) -0.2667(8)
H6B H -1.2699 0.2045 -0.2301
C10B C -1.2387(12) 0.2272(7) -0.2890(7)
C11B C -1.1739(11) 0.2771(7) -0.2083(7)
C12B C -1.2155(11) 0.3099(7) -0.1924(8)
C13B C -1.1979(12) 0.3196(7) -0.1361(7)
H7B H -1.2290 0.3421 -0.1264
C14B C -1.1453(14) 0.3006(7) -0.0996(9)
H8B H -1.1391 0.3085 -0.0642
C15B C -1.0970(14) 0.2687(8) -0.1098(8)
C16B C -1.0350(15) 0.2424(10) -0.0704(10)
H9B H -1.0242 0.2492 -0.0341
C17B C -0.9980(15) 0.2121(10) -0.0839(10)
H10B H -0.9570 0.1997 -0.0563
C18B C -1.0066(14) 0.1911(9) -0.1377(9)
H11B H -0.9764 0.1657 -0.1452
C19B C -1.0657(12) 0.2148(8) -0.1742(8)
H12B H -1.0737 0.2077 -0.2100
C20B C -1.1157(13) 0.2486(8) -0.1642(8)
C41B C -0.9922(7) 0.2903(5) -0.2386(5)
C42B C -0.9887(7) 0.2453(6) -0.2688(4)
H25B H -1.0277 0.2361 -0.2994
C43B C -0.9280(8) 0.2137(5) -0.2540(5)
H26B H -0.9256 0.1829 -0.2747
C44B C -0.8709(6) 0.2271(6) -0.2091(6)
H27B H -0.8295 0.2056 -0.1991
C45B C -0.8745(7) 0.2722(6) -0.1790(4)
H28B H -0.8355 0.2814 -0.1483
C46B C -0.9352(9) 0.3038(5) -0.1937(5)
H29B H -0.9376 0.3345 -0.1731
C53B C -1.0688(8) 0.3768(6) -0.3051(5)
C54B C -1.0333(7) 0.3664(5) -0.3385(6)
H35B H -1.0061 0.3339 -0.3343
C55B C -1.0375(7) 0.4036(6) -0.3781(5)
H36B H -1.0132 0.3965 -0.4009
C56B C -1.0773(8) 0.4512(5) -0.3843(5)
H37B H -1.0802 0.4766 -0.4113
C57B C -1.1128(7) 0.4616(5) -0.3508(6)
H38B H -1.1400 0.4942 -0.3550
C58B C -1.1086(8) 0.4245(7) -0.3113(5)
H39B H -1.1329 0.4316 -0.2884
C65B C -1.2953(10) 0.4097(6) -0.2108(6)
C66B C -1.2511(8) 0.4528(8) -0.2114(6)
H45B H -1.2181 0.4482 -0.2279
C67B C -1.2551(10) 0.5027(6) -0.1878(7)
H46B H -1.2249 0.5321 -0.1882
C68B C -1.3034(13) 0.5094(7) -0.1637(7)
H47B H -1.3062 0.5435 -0.1476
C69B C -1.3476(10) 0.4663(11) -0.1631(7)
H48B H -1.3805 0.4709 -0.1466
C70B C -1.3435(9) 0.4164(8) -0.1867(8)
H49B H -1.3737 0.3870 -0.1863
C77B C -1.3648(7) 0.3055(6) -0.2454(7)
C78B C -1.4210(10) 0.3077(6) -0.2931(5)
H55B H -1.4177 0.3292 -0.3210
C79B C -1.4819(8) 0.2785(7) -0.2999(5)
H56B H -1.5203 0.2800 -0.3325
C80B C -1.4867(8) 0.2471(6) -0.2590(8)
H57B H -1.5283 0.2271 -0.2637
C81B C -1.4305(11) 0.2449(6) -0.2113(6)
H58B H -1.4338 0.2234 -0.1834
C82B C -1.3696(8) 0.2741(7) -0.2045(5)
H59B H -1.3312 0.2726 -0.1719
N1B N -1.0528(9) 0.4233(6) -0.1150(6)
C89B C -1.0670(11) 0.4752(9) -0.1166(8)
H65B H -1.0896 0.4933 -0.1492
C90B C -1.0485(12) 0.5041(8) -0.0699(8)
H66B H -1.0608 0.5419 -0.0713
C91B C -1.0152(13) 0.4819(9) -0.0244(8)
C92B C -1.0062(14) 0.4315(10) -0.0281(9)
H67B H -0.9871 0.4125 0.0043
C93B C -1.0188(14) 0.4014(9) -0.0691(9)
H68B H -1.0037 0.3641 -0.0660
N2B N -0.7080(8) 0.5981(6) 0.3874(5)
N4B N -1.6300(14) 0.5126(8) -1.1234(8)
C104B C -1.6520(17) 0.4982(8) -1.0854(10)
H77B H -1.6998 0.4917 -1.0910
C105B C -1.5988(17) 0.4937(9) -1.0370(10)
H78B H -1.6130 0.4812 -1.0097
C106B C -1.533(2) 0.5036(11) -1.0231(11)
C107B C -1.5076(16) 0.5154(9) -1.0631(10)
H79B H -1.4590 0.5186 -1.0566
C108B C -1.5646(17) 0.5228(9) -1.1182(10)
H80B H -1.5531 0.5343 -1.1472
Au1B Au -1.07026(5) 0.37906(3) -0.18521(3)
P1B P -1.0720(3) 0.3325(2) -0.25580(19)
Au2B Au -1.28636(5) 0.36860(3) -0.31761(3)
P2B P -1.2909(4) 0.3463(2) -0.2390(2)
Au4B Au -1.70366(6) 0.51751(4) -1.20096(3)
loop_
_geom_bond_atom_site_label_1
_geom_bond_atom_site_label_2
_geom_bond_site_symmetry_1
_geom_bond_site_symmetry_2
C1 C2 1_555 1_555
C2 C3 1_555 1_555
C3 H1 1_555 1_555
C4 C3 1_555 1_555
H2 C4 1_555 1_555
C5 C4 1_555 1_555
C6 C5 1_555 1_555
H3 C6 1_555 1_555
C7 C6 1_555 1_555
H4 C7 1_555 1_555
C8 C7 1_555 1_555
H5 C8 1_555 1_555
C9 C8 1_555 1_555
H6 C9 1_555 1_555
C10 C1 1_555 1_555
C11 C1 1_555 1_555
C12 C11 1_555 1_555
C13 C12 1_555 1_555
H7 C13 1_555 1_555
C14 C13 1_555 1_555
H8 C14 1_555 1_555
C15 C14 1_555 1_555
C16 C15 1_555 1_555
H9 C16 1_555 1_555
C17 C16 1_555 1_555
H10 C17 1_555 1_555
C18 C17 1_555 1_555
H11 C18 1_555 1_555
C19 C18 1_555 1_555
H12 C19 1_555 1_555
C20 C11 1_555 1_555
C21 C22 1_555 1_555
C22 C23 1_555 1_555
C23 H13 1_555 1_555
C24 C23 1_555 1_555
H14 C24 1_555 1_555
C25 C24 1_555 1_555
C26 C25 1_555 1_555
H15 C26 1_555 1_555
C27 C26 1_555 1_555
H16 C27 1_555 1_555
C28 C27 1_555 1_555
H17 C28 1_555 1_555
C29 C28 1_555 1_555
H18 C29 1_555 1_555
C30 C21 1_555 1_555
C31 C21 1_555 1_555
C32 C31 1_555 1_555
C33 C32 1_555 1_555
H19 C33 1_555 1_555
C34 C33 1_555 1_555
H20 C34 1_555 1_555
C35 C34 1_555 1_555
C36 C35 1_555 1_555
H21 C36 1_555 1_555
C37 C36 1_555 1_555
H22 C37 1_555 1_555
C38 C37 1_555 1_555
H23 C38 1_555 1_555
C39 C38 1_555 1_555
H24 C39 1_555 1_555
C40 C31 1_555 1_555
C41 C42 1_555 1_555
C42 H25 1_555 1_555
C43 C42 1_555 1_555
H26 C43 1_555 1_555
C44 C43 1_555 1_555
H27 C44 1_555 1_555
C45 C44 1_555 1_555
H28 C45 1_555 1_555
C46 C41 1_555 1_555
H29 C46 1_555 1_555
C47 C48 1_555 1_555
C48 H30 1_555 1_555
C49 C48 1_555 1_555
H31 C49 1_555 1_555
C50 C49 1_555 1_555
H32 C50 1_555 1_555
C51 C50 1_555 1_555
H33 C51 1_555 1_555
C52 C47 1_555 1_555
H34 C52 1_555 1_555
C53 C54 1_555 1_555
C54 H35 1_555 1_555
C55 C54 1_555 1_555
H36 C55 1_555 1_555
C56 C55 1_555 1_555
H37 C56 1_555 1_555
C57 C56 1_555 1_555
H38 C57 1_555 1_555
C58 C53 1_555 1_555
H39 C58 1_555 1_555
C59 C60 1_555 1_555
C60 H40 1_555 1_555
C61 C60 1_555 1_555
H41 C61 1_555 1_555
C62 C61 1_555 1_555
H42 C62 1_555 1_555
C63 C62 1_555 1_555
H43 C63 1_555 1_555
C64 C59 1_555 1_555
H44 C64 1_555 1_555
C65 C66 1_555 1_555
C66 H45 1_555 1_555
C67 C66 1_555 1_555
H46 C67 1_555 1_555
C68 C67 1_555 1_555
H47 C68 1_555 1_555
C69 C68 1_555 1_555
H48 C69 1_555 1_555
C70 C65 1_555 1_555
H49 C70 1_555 1_555
C71 C72 1_555 1_555
C72 H50 1_555 1_555
C73 C72 1_555 1_555
H51 C73 1_555 1_555
C74 C73 1_555 1_555
H52 C74 1_555 1_555
C75 C74 1_555 1_555
H53 C75 1_555 1_555
C76 C71 1_555 1_555
H54 C76 1_555 1_555
C77 C78 1_555 1_555
C78 H55 1_555 1_555
C79 C78 1_555 1_555
H56 C79 1_555 1_555
C80 C79 1_555 1_555
H57 C80 1_555 1_555
C81 C80 1_555 1_555
H58 C81 1_555 1_555
C82 C77 1_555 1_555
H59 C82 1_555 1_555
C83 C84 1_555 1_555
C84 H60 1_555 1_555
C85 C84 1_555 1_555
H61 C85 1_555 1_555
C86 C85 1_555 1_555
H62 C86 1_555 1_555
C87 C86 1_555 1_555
H63 C87 1_555 1_555
C88 C83 1_555 1_555
H64 C88 1_555 1_555
N1 C89 1_555 1_555
C89 H65 1_555 1_555
C90 C89 1_555 1_555
H66 C90 1_555 1_555
C91 C90 1_555 1_555
C92 C91 1_555 1_555
H67 C92 1_555 1_555
C93 N1 1_555 1_555
H68 C93 1_555 1_555
N2 C94 1_555 1_555
C94 H69 1_555 1_555
C95 C94 1_555 1_555
H70 C95 1_555 1_555
C96 C95 1_555 1_555
C97 C96 1_555 1_555
H71 C97 1_555 1_555
C98 N2 1_555 1_555
H72 C98 1_555 1_555
N3 C99 1_555 1_555
C99 H73 1_555 1_555
C100 C99 1_555 1_555
H74 C100 1_555 1_555
C101 C96 1_555 1_555
C102 C101 1_555 1_555
H75 C102 1_555 1_555
C103 N3 1_555 1_555
H76 C103 1_555 1_555
N4 C104 1_555 1_555
C104 H77 1_555 1_555
C105 C104 1_555 1_555
H78 C105 1_555 1_555
C106 C105 1_555 1_555
C107 C106 1_555 1_555
H79 C107 1_555 1_555
C108 N4 1_555 1_555
H80 C108 1_555 1_555
Au1 N1 1_555 1_555
P1 C2 1_555 1_555
Au2 P2 1_555 1_555
P2 C12 1_555 1_555
Au3 N3 1_555 1_555
P3 C32 1_555 1_555
Au4 N4 1_555 1_555
P4 C22 1_555 1_555
C1B C2B 1_555 1_555
C2B C3B 1_555 1_555
C3B H1B 1_555 1_555
C4B C3B 1_555 1_555
H2B C4B 1_555 1_555
C5B C4B 1_555 1_555
C6B C5B 1_555 1_555
H3B C6B 1_555 1_555
C7B C6B 1_555 1_555
H4B C7B 1_555 1_555
C8B C7B 1_555 1_555
H5B C8B 1_555 1_555
C9B C8B 1_555 1_555
H6B C9B 1_555 1_555
C10B C1B 1_555 1_555
C11B C1B 1_555 1_555
C12B C11B 1_555 1_555
C13B C12B 1_555 1_555
H7B C13B 1_555 1_555
C14B C13B 1_555 1_555
H8B C14B 1_555 1_555
C15B C14B 1_555 1_555
C16B C15B 1_555 1_555
H9B C16B 1_555 1_555
C17B C16B 1_555 1_555
H10B C17B 1_555 1_555
C18B C17B 1_555 1_555
H11B C18B 1_555 1_555
C19B C18B 1_555 1_555
H12B C19B 1_555 1_555
C20B C11B 1_555 1_555
C41B C42B 1_555 1_555
C42B H25B 1_555 1_555
C43B C42B 1_555 1_555
H26B C43B 1_555 1_555
C44B C43B 1_555 1_555
H27B C44B 1_555 1_555
C45B C44B 1_555 1_555
H28B C45B 1_555 1_555
C46B C41B 1_555 1_555
H29B C46B 1_555 1_555
C53B C54B 1_555 1_555
C54B H35B 1_555 1_555
C55B C54B 1_555 1_555
H36B C55B 1_555 1_555
C56B C55B 1_555 1_555
H37B C56B 1_555 1_555
C57B C56B 1_555 1_555
H38B C57B 1_555 1_555
C58B C53B 1_555 1_555
H39B C58B 1_555 1_555
C65B C66B 1_555 1_555
C66B H45B 1_555 1_555
C67B C66B 1_555 1_555
H46B C67B 1_555 1_555
C68B C67B 1_555 1_555
H47B C68B 1_555 1_555
C69B C68B 1_555 1_555
H48B C69B 1_555 1_555
C70B C65B 1_555 1_555
H49B C70B 1_555 1_555
C77B C78B 1_555 1_555
C78B H55B 1_555 1_555
C79B C78B 1_555 1_555
H56B C79B 1_555 1_555
C80B C79B 1_555 1_555
H57B C80B 1_555 1_555
C81B C80B 1_555 1_555
H58B C81B 1_555 1_555
C82B C77B 1_555 1_555
H59B C82B 1_555 1_555
N1B C89B 1_555 1_555
C89B H65B 1_555 1_555
C90B C89B 1_555 1_555
H66B C90B 1_555 1_555
C91B C91 1_555 1_555
C92B C91B 1_555 1_555
H67B C92B 1_555 1_555
C93B N1B 1_555 1_555
H68B C93B 1_555 1_555
N2B Au2 1_555 1_555
N4B C104B 1_555 1_555
C104B H77B 1_555 1_555
C105B C104B 1_555 1_555
H78B C105B 1_555 1_555
C106B C106 1_555 1_555
C107B C106B 1_555 1_555
H79B C107B 1_555 1_555
C108B N4B 1_555 1_555
H80B C108B 1_555 1_555
Au1B N1B 1_555 1_555
P1B C2B 1_555 1_555
Au2B N2 1_555 1_555
P2B C12B 1_555 1_555
Au4B N4B 1_555 1_555
C5 C10 1_555 1_555
C9 C10 1_555 1_555
C15 C20 1_555 1_555
C19 C20 1_555 1_555
C25 C30 1_555 1_555
C29 C30 1_555 1_555
C35 C40 1_555 1_555
C39 C40 1_555 1_555
C41 P1 1_555 1_555
C45 C46 1_555 1_555
C47 P3 1_555 1_555
C51 C52 1_555 1_555
C53 P1 1_555 1_555
C57 C58 1_555 1_555
C59 P3 1_555 1_555
C63 C64 1_555 1_555
C65 P2 1_555 1_555
C69 C70 1_555 1_555
C71 P4 1_555 1_555
C75 C76 1_555 1_555
C77 P2 1_555 1_555
C81 C82 1_555 1_555
C83 P4 1_555 1_555
C87 C88 1_555 1_555
C92 C93 1_555 1_555
C97 C98 1_555 1_555
C100 C101 1_555 1_555
C102 C103 1_555 1_555
C107 C108 1_555 1_555
Au1 P1 1_555 1_555
Au3 P3 1_555 1_555
Au4 P4 1_555 1_555
C5B C10B 1_555 1_555
C9B C10B 1_555 1_555
C15B C20B 1_555 1_555
C19B C20B 1_555 1_555
C41B P1B 1_555 1_555
C45B C46B 1_555 1_555
C53B P1B 1_555 1_555
C57B C58B 1_555 1_555
C65B P2B 1_555 1_555
C69B C70B 1_555 1_555
C77B P2B 1_555 1_555
C81B C82B 1_555 1_555
C90B C91B 1_555 1_555
C92B C93B 1_555 1_555
C105B C106B 1_555 1_555
C107B C108B 1_555 1_555
Au1B P1B 1_555 1_555
Au2B P2B 1_555 1_555

#END
