
#######################################################################
#
#                 Cambridge Crystallographic Data Centre
#                                CCDC 
#
#######################################################################
#
# If this CIF has been generated from an entry in the Cambridge 
# Structural Database, then it will include bibliographic, chemical, 
# crystal, experimental, refinement or atomic coordinate data resulting 
# from the CCDC's data processing and validation procedures.
#
#######################################################################

data_VIGVIS
_symmetry_cell_setting           triclinic
_symmetry_space_group_name_H-M   'P -1'
_symmetry_Int_Tables_number      2
_space_group_name_Hall           '-P 1'
loop_
_symmetry_equiv_pos_site_id
_symmetry_equiv_pos_as_xyz
1 x,y,z
2 -x,-y,-z
_cell_length_a                   9.5532(6)
_cell_length_b                   11.4479(7)
_cell_length_c                   14.3067(8)
_cell_angle_alpha                71.998(3)
_cell_angle_beta                 80.740(3)
_cell_angle_gamma                81.872(3)
_cell_volume                     1461.63
loop_
_atom_site_label
_atom_site_type_symbol
_atom_site_fract_x
_atom_site_fract_y
_atom_site_fract_z
N4 N 0.334(3) 0.894(3) 0.156(2)
O13 O 0.354(4) 1.083(3) 0.050(2)
C25 C 0.394(5) 0.768(3) 0.201(3)
H18 H 0.4797 0.7488 0.1604
H19 H 0.3264 0.7109 0.2063
H20 H 0.4168 0.7600 0.2658
C26 C 0.185(4) 0.924(4) 0.193(3)
H21 H 0.1551 1.0085 0.1603
H22 H 0.1776 0.9129 0.2634
H23 H 0.1259 0.8708 0.1813
C27 C 0.410(3) 0.977(3) 0.085(2)
H24 H 0.5036 0.9549 0.0632
Gd1 Gd 0.7711(8) 0.4840(6) 1.0093(5)
O1 O 0.632(3) 0.676(3) 1.006(2)
O2 O 1.083(3) 0.6478(17) 0.1064(18)
O3 O 0.8906(18) 0.5595(15) 0.0847(13)
C1 C 0.952(4) 0.603(3) 0.130(3)
C2 C 0.8816(13) 0.6213(13) 0.2288(8)
C3 C 0.9457(14) 0.6873(13) 0.2742(10)
H1 H 1.0236 0.7298 0.2405
C4 C 0.8935(16) 0.6898(12) 0.3701(10)
H2 H 0.9364 0.7340 0.4005
C5 C 0.7771(12) 0.6263(10) 0.4206(7)
C6 C 0.7130(12) 0.5603(13) 0.3752(9)
H3 H 0.6351 0.5177 0.4089
C7 C 0.7652(15) 0.5577(14) 0.2793(9)
H4 H 0.7223 0.5136 0.2489
O4 O 0.6070(19) 0.4758(14) 0.8959(17)
O5 O 0.4038(17) 0.5910(14) 0.8534(14)
C8 C 0.5273(18) 0.5428(11) 0.8352(16)
C9 C 0.6991(12) 0.6125(9) 0.5289(7)
C10 C 0.7873(10) 0.5640(12) 0.6029(9)
H5 H 0.8841 0.5443 0.5863
C11 C 0.7309(13) 0.5448(11) 0.7017(8)
H6 H 0.7900 0.5123 0.7512
C12 C 0.5863(13) 0.5741(9) 0.7264(7)
C13 C 0.4981(10) 0.6226(13) 0.6524(9)
H7 H 0.4013 0.6422 0.6690
C14 C 0.5544(12) 0.6418(11) 0.5536(8)
O6 O 0.504(3) 0.793(2) 0.4001(17)
O7 O 0.354(2) 0.660(2) 0.4843(17)
N1 N 0.463(2) 0.7018(19) 0.4753(14)
N2 N 1.2153(18) 0.1086(15) 1.4753(13)
O8 O 1.182(3) 0.132(3) 1.5565(15)
O9 O 1.3382(17) 0.079(3) 1.436(2)
O10 O 0.9077(18) 0.3511(19) 1.1248(16)
O11 O 1.1409(18) 0.349(2) 1.1260(19)
C15 C 1.027(2) 0.3011(19) 1.1563(19)
C16 C 1.0161(17) 0.2040(12) 1.2577(9)
C17 C 0.9168(12) 0.1180(12) 1.2843(10)
H8 H 0.8561 0.1178 1.2396
C18 C 0.9082(15) 0.0322(14) 1.3776(11)
H9 H 0.8395 -0.0272 1.3959
C19 C 0.9990(18) 0.0324(14) 1.4444(10)
C20 C 1.0983(14) 0.1185(12) 1.4177(9)
C21 C 1.1069(16) 0.2043(12) 1.3244(10)
H10 H 1.1734 0.2618 1.3066
O12 O 0.680(2) 0.2706(13) 1.0399(14)
C22 C 0.7447(17) 0.1691(13) 1.0709(11)
H11 H 0.8321 0.1493 1.0372
C23 C 0.5598(18) 0.1069(17) 1.2089(13)
H12 H 0.5134 0.1863 1.1775
H13 H 0.5763 0.1041 1.2740
H14 H 0.5002 0.0439 1.2138
C24 C 0.778(2) -0.0340(15) 1.1836(15)
H15 H 0.8664 -0.0323 1.1405
H16 H 0.7264 -0.0983 1.1801
H17 H 0.7973 -0.0493 1.2504
N3 N 0.6914(15) 0.0870(13) 1.1521(10)
N2A N 0.7847(18) -0.1086(15) 1.5247(13)
O8A O 0.818(3) -0.132(3) 1.4435(15)
O9A O 0.6618(17) -0.079(3) 1.564(2)
O10A O 1.0923(18) -0.3511(19) 1.8752(16)
O11A O 0.8591(18) -0.349(2) 1.8740(19)
C15A C 0.973(2) -0.3011(19) 1.8437(19)
C16A C 0.9839(17) -0.2040(12) 1.7423(9)
C17A C 1.0832(12) -0.1180(12) 1.7157(10)
H8A H 1.1439 -0.1178 1.7604
C18A C 1.0918(15) -0.0322(14) 1.6224(11)
H9A H 1.1605 0.0272 1.6041
C19A C 1.0010(18) -0.0324(14) 1.5556(10)
C20A C 0.9017(14) -0.1185(12) 1.5823(9)
C21A C 0.8931(16) -0.2043(12) 1.6756(10)
H10A H 0.8266 -0.2618 1.6934
Gd1A Gd 0.2289(8) 0.5160(6) 0.9907(5)
O1A O 0.368(3) 0.324(3) 0.994(2)
O2A O -0.083(3) 0.3522(17) 1.8936(18)
O3A O 0.1094(18) 0.4405(15) 1.9153(13)
C1A C 0.048(4) 0.397(3) 1.870(3)
C2A C 0.1184(13) 0.3787(13) 1.7712(8)
C3A C 0.0543(14) 0.3127(13) 1.7258(10)
H1A H -0.0236 0.2702 1.7595
C4A C 0.1065(16) 0.3102(12) 1.6299(10)
H2A H 0.0636 0.2660 1.5995
C5A C 0.2229(12) 0.3737(10) 1.5794(7)
C6A C 0.2870(12) 0.4397(13) 1.6248(9)
H3A H 0.3649 0.4823 1.5911
C7A C 0.2348(15) 0.4423(14) 1.7207(9)
H4A H 0.2777 0.4864 1.7511
O4A O 0.3930(19) 0.5242(14) 1.1041(17)
O5A O 0.5962(17) 0.4090(14) 1.1466(14)
C8A C 0.4727(18) 0.4572(11) 1.1648(16)
C9A C 0.3009(12) 0.3875(9) 1.4711(7)
C10A C 0.2127(10) 0.4360(12) 1.3971(9)
H5A H 0.1159 0.4557 1.4137
C11A C 0.2691(13) 0.4552(11) 1.2983(8)
H6A H 0.2100 0.4877 1.2488
C12A C 0.4137(13) 0.4259(9) 1.2736(7)
C13A C 0.5019(10) 0.3774(13) 1.3476(9)
H7A H 0.5987 0.3578 1.3310
C14A C 0.4456(12) 0.3582(11) 1.4464(8)
O6A O 0.496(3) 0.207(2) 1.5999(17)
O7A O 0.646(2) 0.340(2) 1.5157(17)
N1A N 0.537(2) 0.2982(19) 1.5247(14)
O12A O 0.320(2) 0.7294(13) 0.9601(14)
C22A C 0.2553(17) 0.8309(13) 0.9291(11)
H11A H 0.1679 0.8507 0.9628
C23A C 0.4402(18) 0.8931(17) 0.7911(13)
H12A H 0.4866 0.8137 0.8225
H13A H 0.4237 0.8959 0.7260
H14A H 0.4998 0.9561 0.7862
C24A C 0.222(2) 1.0340(15) 0.8164(15)
H15A H 0.1336 1.0323 0.8595
H16A H 0.2736 1.0983 0.8199
H17A H 0.2027 1.0493 0.7496
N3A N 0.3086(15) 0.9130(13) 0.8479(10)
Gd1_2 Gd -0.2289(8) 0.4840(6) 2.0093(5)
Gd1_3 Gd 0.7711(8) -0.5160(6) 2.0093(5)
Gd1_4 Gd 0.7711(8) 0.4840(6) 0.0093(5)
Gd1A_2 Gd 0.2289(8) 0.5160(6) 1.9907(5)
Gd1A_3 Gd 1.2289(8) -0.4840(6) 1.9907(5)
Gd1A_4 Gd 1.2289(8) 0.5160(6) -0.0093(5)
Gd1A_5 Gd 1.2289(8) 0.5160(6) 0.9907(5)
O2_2 O 0.083(3) 0.6478(17) 1.1064(18)
O2A_2 O 0.917(3) 0.3522(17) 0.8936(18)
O3_2 O 0.8906(18) 0.5595(15) 1.0847(13)
O3A_2 O 0.1094(18) 0.4405(15) 0.9153(13)
O10A_2 O 0.0923(18) 0.6489(19) 0.8752(16)
O11_2 O 0.1409(18) 0.349(2) 1.1260(19)
O11A_2 O 0.8591(18) 0.651(2) 0.8740(19)
Gd2? Gd 0.7770(7) 0.4614(6) 0.9991(5)
O14? O 0.607(3) 0.661(4) 0.989(3)
O15? O 1.080(3) 0.6156(16) 0.1051(18)
O16? O 0.8705(19) 0.6017(15) 0.0803(13)
C28? C 0.953(4) 0.624(3) 0.133(3)
C29? C 0.8840(12) 0.6454(12) 0.2316(7)
C30? C 0.9681(10) 0.6672(14) 0.2941(10)
H25? H 1.0628 0.6818 0.2719
C31? C 0.9106(14) 0.6673(13) 0.3897(9)
H26? H 0.9668 0.6819 0.4315
C32? C 0.7690(14) 0.6456(8) 0.4228(7)
C33? C 0.6849(10) 0.6237(12) 0.3604(8)
H27? H 0.5902 0.6092 0.3826
C34? C 0.7424(12) 0.6236(13) 0.2648(8)
H28? H 0.6862 0.6090 0.2230
N5? N 0.490(4) 0.794(3) 0.485(2)
O17? O 0.564(3) 0.873(3) 0.423(2)
O18? O 0.360(3) 0.785(3) 0.4956(19)
O19? O 0.6080(18) 0.5129(14) 0.8963(16)
O20? O 0.3916(15) 0.5510(13) 0.8491(12)
C35? C 0.526(2) 0.5446(10) 0.8310(19)
C36? C 0.6911(12) 0.6404(11) 0.5208(8)
C37? C 0.7711(13) 0.5512(14) 0.5867(11)
H29? H 0.8551 0.5118 0.5632
C38? C 0.7255(19) 0.5210(12) 0.6878(10)
H30? H 0.7790 0.4613 0.7320
C39? C 0.6000(18) 0.5799(9) 0.7230(8)
C40? C 0.5201(14) 0.6690(11) 0.6570(8)
H31? H 0.4361 0.7085 0.6805
C41? C 0.5656(13) 0.6993(11) 0.5559(8)
O21? O 0.9182(12) 0.3135(11) 1.1120(10)
O22? O 1.1180(12) 0.3810(11) 1.1336(11)
O23? O 1.3823(14) 0.062(3) 1.387(3)
O24? O 1.260(2) -0.096(2) 1.487(2)
N6? N 1.2699(13) 0.0105(15) 1.4267(13)
C42? C 1.0137(14) 0.3214(14) 1.1640(11)
C43? C 1.0160(11) 0.2291(9) 1.2653(6)
C44? C 0.8861(9) 0.2053(11) 1.3236(8)
H32? H 0.8021 0.2480 1.3008
C45? C 0.8819(9) 0.1175(12) 1.4160(8)
H33? H 0.7925 0.1011 1.4562
C46? C 1.0075(11) 0.0536(10) 1.4501(7)
C47? C 1.1373(9) 0.0774(9) 1.3917(7)
C48? C 1.1416(9) 0.1652(9) 1.2993(7)
H34? H 1.2285 0.1811 1.2603
O25? O 0.686(5) 0.262(3) 1.033(3)
C49? C 0.638(4) 0.170(3) 1.092(3)
H35? H 0.5466 0.1795 1.1252
C50? C 0.643(5) -0.047(3) 1.184(3)
H36? H 0.5502 -0.0207 1.2110
H37? H 0.7021 -0.0829 1.2361
H38? H 0.6359 -0.1078 1.1515
C51? C 0.849(4) 0.038(3) 1.064(4)
H39? H 0.8770 0.1133 1.0172
H40? H 0.8496 -0.0228 1.0296
H41? H 0.9140 0.0078 1.1124
N7? N 0.708(3) 0.059(3) 1.112(2)
loop_
_geom_bond_atom_site_label_1
_geom_bond_atom_site_label_2
_geom_bond_site_symmetry_1
_geom_bond_site_symmetry_2
Gd1 O1 1_555 1_555
O2 C1 1_555 1_555
O3 C1 1_555 1_555
C1 C2 1_555 1_555
C2 C3 1_555 1_555
C3 H1 1_555 1_555
C4 C3 1_555 1_555
H2 C4 1_555 1_555
C5 C4 1_555 1_555
C6 C5 1_555 1_555
H3 C6 1_555 1_555
C7 C2 1_555 1_555
H4 C7 1_555 1_555
O4 Gd1 1_555 1_555
O5 C8 1_555 1_555
C8 O4 1_555 1_555
C9 C5 1_555 1_555
C10 C9 1_555 1_555
H5 C10 1_555 1_555
C11 C10 1_555 1_555
H6 C11 1_555 1_555
C12 C8 1_555 1_555
C13 C12 1_555 1_555
H7 C13 1_555 1_555
C14 C9 1_555 1_555
O6 N1 1_555 1_555
O7 N1 1_555 1_555
N1 C14 1_555 1_555
N2 O8 1_555 1_555
O8 H9A 1_555 1_555
O9 N2 1_555 1_555
O10 Gd1 1_555 1_555
O11 C15 1_555 1_555
C15 O10 1_555 1_555
C16 C15 1_555 1_555
C17 C16 1_555 1_555
H8 C17 1_555 1_555
C18 C17 1_555 1_555
H9 C18 1_555 1_555
C19 C18 1_555 1_555
C20 N2 1_555 1_555
C21 C16 1_555 1_555
H10 C21 1_555 1_555
O12 Gd1 1_555 1_555
C22 O12 1_555 1_555
H11 C22 1_555 1_555
C23 H12 1_555 1_555
H13 C23 1_555 1_555
H14 C23 1_555 1_555
C24 H15 1_555 1_555
H16 C24 1_555 1_555
H17 C24 1_555 1_555
N3 C22 1_555 1_555
N4 C25 1_555 1_555
O13 C27 1_555 1_555
C25 H18 1_555 1_555
H19 C25 1_555 1_555
H20 C25 1_555 1_555
C26 N4 1_555 1_555
H21 C26 1_555 1_555
H22 C26 1_555 1_555
H23 C26 1_555 1_555
C27 N4 1_555 1_555
H24 C27 1_555 1_555
N2A O8A 1_555 1_555
O8A H9 1_555 1_555
O9A N2A 1_555 1_555
O10A C15A 1_555 1_555
O11A C15A 1_555 1_555
C15A C16A 1_555 1_555
C16A C17A 1_555 1_555
C17A H8A 1_555 1_555
C18A C17A 1_555 1_555
H9A C18A 1_555 1_555
C19A C19 1_555 1_555
C20A N2A 1_555 1_555
C21A C16A 1_555 1_555
H10A C21A 1_555 1_555
Gd1A O5 1_555 1_555
O1A Gd1A 1_555 1_555
O2A C1A 1_555 1_555
O3A C1A 1_555 1_555
C1A C2A 1_555 1_555
C2A C3A 1_555 1_555
C3A H1A 1_555 1_555
C4A C3A 1_555 1_555
H2A C4A 1_555 1_555
C5A C4A 1_555 1_555
C6A C5A 1_555 1_555
H3A C6A 1_555 1_555
C7A C2A 1_555 1_555
H4A C7A 1_555 1_555
O4A Gd1A 1_555 1_555
O5A Gd1 1_555 1_555
C8A O4A 1_555 1_555
C9A C5A 1_555 1_555
C10A C9A 1_555 1_555
H5A C10A 1_555 1_555
C11A C10A 1_555 1_555
H6A C11A 1_555 1_555
C12A C8A 1_555 1_555
C13A C12A 1_555 1_555
H7A C13A 1_555 1_555
C14A C9A 1_555 1_555
O6A N1A 1_555 1_555
O7A N1A 1_555 1_555
N1A C14A 1_555 1_555
O12A Gd1A 1_555 1_555
C22A O12A 1_555 1_555
H11A C22A 1_555 1_555
C23A H12A 1_555 1_555
H13A C23A 1_555 1_555
H14A C23A 1_555 1_555
C24A H15A 1_555 1_555
H16A C24A 1_555 1_555
H17A C24A 1_555 1_555
N3A C22A 1_555 1_555
Gd1_2 O2A 1_555 1_555
Gd1_3 O11A 1_555 1_555
Gd1_4 O3 1_555 1_555
Gd1A_2 O3A 1_555 1_555
Gd1A_3 O10A 1_555 1_555
Gd1A_4 O2 1_555 1_555
Gd1A_5 O11 1_555 1_555
O2_2 Gd1A 1_555 1_555
O2A_2 Gd1 1_555 1_555
O3_2 Gd1 1_555 1_555
O3A_2 Gd1A 1_555 1_555
O10A_2 Gd1A 1_555 1_555
O11_2 Gd1A 1_555 1_555
O11A_2 Gd1 1_555 1_555
C6 C7 1_555 1_555
C11 C12 1_555 1_555
C13 C14 1_555 1_555
C19 C20 1_555 1_555
C20 C21 1_555 1_555
C23 N3 1_555 1_555
C24 N3 1_555 1_555
C18A C19A 1_555 1_555
C19A C20A 1_555 1_555
C20A C21A 1_555 1_555
C6A C7A 1_555 1_555
O5A C8A 1_555 1_555
C11A C12A 1_555 1_555
C13A C14A 1_555 1_555
C23A N3A 1_555 1_555
C24A N3A 1_555 1_555

#END
