
#######################################################################
#
#                 Cambridge Crystallographic Data Centre
#                                CCDC 
#
#######################################################################
#
# If this CIF has been generated from an entry in the Cambridge 
# Structural Database, then it will include bibliographic, chemical, 
# crystal, experimental, refinement or atomic coordinate data resulting 
# from the CCDC's data processing and validation procedures.
#
#######################################################################

data_VIGVOY
_symmetry_cell_setting           triclinic
_symmetry_space_group_name_H-M   'P -1'
_symmetry_Int_Tables_number      2
_space_group_name_Hall           '-P 1'
loop_
_symmetry_equiv_pos_site_id
_symmetry_equiv_pos_as_xyz
1 x,y,z
2 -x,-y,-z
_cell_length_a                   9.471(3)
_cell_length_b                   11.430(4)
_cell_length_c                   14.264(4)
_cell_angle_alpha                71.787(12)
_cell_angle_beta                 80.912(8)
_cell_angle_gamma                82.319(11)
_cell_volume                     1442.5
loop_
_atom_site_label
_atom_site_type_symbol
_atom_site_fract_x
_atom_site_fract_y
_atom_site_fract_z
N4 N 0.335(4) 0.899(3) 0.155(3)
O13 O 0.325(5) 1.092(3) 0.054(3)
C25 C 0.409(6) 0.774(4) 0.188(4)
H18 H 0.4921 0.7671 0.1408
H19 H 0.3450 0.7143 0.1911
H20 H 0.4383 0.7599 0.2521
C26 C 0.197(5) 0.919(4) 0.214(4)
H21 H 0.1549 1.0015 0.1866
H22 H 0.2119 0.9072 0.2817
H23 H 0.1334 0.8607 0.2130
C27 C 0.390(4) 0.989(4) 0.078(3)
H24 H 0.4780 0.9732 0.0424
Tb1 Tb 0.7746(3) 0.4909(4) 1.0068(2)
O1 O 0.611(3) 0.6825(19) 1.008(2)
O2 O 1.080(3) 0.648(2) 0.108(2)
O3 O 0.884(3) 0.554(2) 0.0809(18)
C1 C 0.949(5) 0.601(4) 0.123(4)
C2 C 0.881(2) 0.6234(19) 0.2284(12)
C3 C 0.9475(19) 0.6899(19) 0.2728(16)
H1 H 1.0261 0.7325 0.2381
C4 C 0.897(2) 0.6928(17) 0.3690(16)
H2 H 0.9413 0.7373 0.3987
C5 C 0.7793(18) 0.6292(14) 0.4209(12)
C6 C 0.7127(16) 0.5627(16) 0.3765(13)
H3 H 0.6342 0.5201 0.4111
C7 C 0.764(2) 0.5598(18) 0.2802(14)
H4 H 0.7190 0.5153 0.2505
O4 O 0.607(2) 0.4767(16) 0.8945(18)
O5 O 0.400(2) 0.5959(19) 0.8593(17)
C8 C 0.529(2) 0.5435(15) 0.8375(19)
C9 C 0.6975(18) 0.6133(12) 0.5283(13)
C10 C 0.7877(15) 0.5647(17) 0.6019(16)
H5 H 0.8851 0.5462 0.5846
C11 C 0.732(2) 0.5439(15) 0.7014(15)
H6 H 0.7928 0.5114 0.7506
C12 C 0.587(2) 0.5716(13) 0.7273(12)
C13 C 0.4967(16) 0.6201(17) 0.6537(14)
H7 H 0.3993 0.6387 0.6710
C14 C 0.5520(18) 0.6410(14) 0.5542(13)
O6 O 0.501(3) 0.780(3) 0.397(2)
O7 O 0.347(3) 0.659(3) 0.490(2)
N1 N 0.461(3) 0.697(2) 0.476(2)
N2 N 1.212(2) 0.1049(15) 1.4793(17)
O8 O 1.164(3) 0.107(3) 1.5662(18)
O9 O 1.342(2) 0.099(4) 1.441(2)
O10 O 0.906(3) 0.352(3) 1.128(2)
O11 O 1.139(3) 0.362(5) 1.129(5)
C15 C 1.030(3) 0.305(3) 1.153(3)
C16 C 1.014(2) 0.2025(18) 1.2566(13)
C17 C 0.9150(18) 0.1151(19) 1.2828(15)
H8 H 0.8512 0.1170 1.2389
C18 C 0.911(2) 0.0249(19) 1.3747(17)
H9 H 0.8435 -0.0342 1.3925
C19 C 1.006(2) 0.0221(16) 1.4404(15)
C20 C 1.106(2) 0.1095(13) 1.4141(14)
C21 C 1.110(2) 0.1997(15) 1.3222(14)
H10 H 1.1763 0.2582 1.3046
O12 O 0.680(3) 0.275(2) 1.0411(19)
C22 C 0.746(2) 0.176(2) 1.0781(16)
H11 H 0.8369 0.1578 1.0478
C23 C 0.552(3) 0.114(3) 1.210(2)
H12 H 0.5099 0.1943 1.1764
H13 H 0.5605 0.1101 1.2773
H14 H 0.4930 0.0520 1.2105
C24 C 0.776(3) -0.025(2) 1.201(2)
H15 H 0.8661 -0.0285 1.1601
H16 H 0.7231 -0.0922 1.2024
H17 H 0.7919 -0.0320 1.2671
N3 N 0.693(2) 0.0926(18) 1.1594(15)
N2A N 0.788(2) -0.1049(15) 1.5207(17)
O8A O 0.836(3) -0.107(3) 1.4338(18)
O9A O 0.658(2) -0.099(4) 1.559(2)
O10A O 1.094(3) -0.352(3) 1.872(2)
O11A O 0.861(3) -0.362(5) 1.871(5)
C15A C 0.970(3) -0.305(3) 1.847(3)
C16A C 0.986(2) -0.2025(18) 1.7434(13)
C17A C 1.0850(18) -0.1151(19) 1.7172(15)
H8A H 1.1488 -0.1170 1.7611
C18A C 1.089(2) -0.0249(19) 1.6253(17)
H9A H 1.1565 0.0342 1.6075
C19A C 0.994(2) -0.0221(16) 1.5596(15)
C20A C 0.894(2) -0.1095(13) 1.5859(14)
C21A C 0.890(2) -0.1997(15) 1.6778(14)
H10A H 0.8237 -0.2582 1.6954
Tb1A Tb 0.2254(3) 0.5091(4) 0.9932(2)
O1A O 0.389(3) 0.3175(19) 0.992(2)
O2A O -0.080(3) 0.352(2) 1.892(2)
O3A O 0.116(3) 0.446(2) 1.9191(18)
C1A C 0.051(5) 0.399(4) 1.877(4)
C2A C 0.119(2) 0.3766(19) 1.7716(12)
C3A C 0.0525(19) 0.3101(19) 1.7272(16)
H1A H -0.0261 0.2675 1.7619
C4A C 0.103(2) 0.3072(17) 1.6310(16)
H2A H 0.0587 0.2627 1.6013
C5A C 0.2207(18) 0.3708(14) 1.5791(12)
C6A C 0.2873(16) 0.4373(16) 1.6235(13)
H3A H 0.3658 0.4799 1.5889
C7A C 0.236(2) 0.4402(18) 1.7198(14)
H4A H 0.2810 0.4847 1.7495
O4A O 0.393(2) 0.5233(16) 1.1055(18)
O5A O 0.600(2) 0.4041(19) 1.1407(17)
C8A C 0.471(2) 0.4565(15) 1.1625(19)
C9A C 0.3025(18) 0.3867(12) 1.4717(13)
C10A C 0.2123(15) 0.4353(17) 1.3981(16)
H5A H 0.1149 0.4538 1.4154
C11A C 0.268(2) 0.4561(15) 1.2986(15)
H6A H 0.2072 0.4886 1.2494
C12A C 0.413(2) 0.4284(13) 1.2727(12)
C13A C 0.5033(16) 0.3799(17) 1.3463(14)
H7A H 0.6007 0.3613 1.3290
C14A C 0.4480(18) 0.3590(14) 1.4458(13)
O6A O 0.499(3) 0.220(3) 1.603(2)
O7A O 0.653(3) 0.341(3) 1.510(2)
N1A N 0.539(3) 0.303(2) 1.524(2)
O12A O 0.320(3) 0.725(2) 0.9589(19)
C22A C 0.254(2) 0.824(2) 0.9219(16)
H11A H 0.1631 0.8422 0.9522
C23A C 0.448(3) 0.886(3) 0.790(2)
H12A H 0.4901 0.8057 0.8236
H13A H 0.4395 0.8899 0.7227
H14A H 0.5070 0.9480 0.7895
C24A C 0.224(3) 1.025(2) 0.799(2)
H15A H 0.1339 1.0285 0.8399
H16A H 0.2769 1.0922 0.7976
H17A H 0.2081 1.0320 0.7329
N3A N 0.307(2) 0.9074(18) 0.8406(15)
Tb1_2 Tb -0.2254(3) 0.4909(4) 2.0068(2)
Tb1_3 Tb 0.7746(3) -0.5091(4) 2.0068(2)
Tb1_4 Tb 0.7746(3) 0.4909(4) 0.0068(2)
Tb1A_2 Tb 0.2254(3) 0.5091(4) 1.9932(2)
Tb1A_3 Tb 1.2254(3) -0.4909(4) 1.9932(2)
Tb1A_4 Tb 1.2254(3) 0.5091(4) -0.0068(2)
Tb1A_5 Tb 1.2254(3) 0.5091(4) 0.9932(2)
O2_2 O 0.080(3) 0.648(2) 1.108(2)
O2A_2 O 0.920(3) 0.352(2) 0.892(2)
O3_2 O 0.884(3) 0.554(2) 1.0809(18)
O3A_2 O 0.116(3) 0.446(2) 0.9191(18)
O10A_2 O 0.094(3) 0.648(3) 0.872(2)
O11_2 O 0.139(3) 0.362(5) 1.129(5)
O11A_2 O 0.861(3) 0.638(5) 0.871(5)
Tb2? Tb 0.7745(4) 0.4485(4) 1.0002(3)
O14? O 0.625(3) 0.654(2) 0.986(2)
O15? O 1.079(3) 0.612(2) 0.103(2)
O16? O 0.868(3) 0.602(2) 0.083(2)
C28? C 0.954(6) 0.624(5) 0.135(4)
C29? C 0.881(2) 0.6520(19) 0.2317(14)
C30? C 0.9668(18) 0.668(2) 0.2965(18)
H25? H 1.0633 0.6796 0.2755
C31? C 0.909(2) 0.665(2) 0.3928(17)
H26? H 0.9662 0.6756 0.4362
C32? C 0.764(2) 0.6471(13) 0.4242(13)
C33? C 0.6784(17) 0.6316(18) 0.3594(16)
H27? H 0.5820 0.6195 0.3804
C34? C 0.737(2) 0.634(2) 0.2631(15)
H28? H 0.6790 0.6236 0.2197
N5? N 0.496(5) 0.807(4) 0.488(3)
O17? O 0.561(4) 0.873(3) 0.421(3)
O18? O 0.358(5) 0.815(3) 0.505(3)
O19? O 0.612(2) 0.5222(19) 0.896(2)
O20? O 0.391(2) 0.5466(18) 0.8492(16)
C35? C 0.532(3) 0.5459(12) 0.834(2)
C36? C 0.6886(18) 0.6419(17) 0.5228(14)
C37? C 0.7654(19) 0.547(2) 0.5878(17)
H29? H 0.8461 0.5050 0.5632
C38? C 0.722(3) 0.5164(17) 0.6895(16)
H30? H 0.7730 0.4532 0.7330
C39? C 0.601(3) 0.5798(12) 0.7263(13)
C40? C 0.524(2) 0.6743(14) 0.6613(14)
H31? H 0.4435 0.7167 0.6859
C41? C 0.568(2) 0.7053(14) 0.5595(14)
O21? O 0.917(2) 0.3098(19) 1.1101(16)
O22? O 1.118(2) 0.376(3) 1.132(3)
O23? O 1.3801(19) 0.035(4) 1.379(2)
O24? O 1.252(3) -0.034(4) 1.5311(18)
N6? N 1.2655(18) 0.023(2) 1.4388(17)
C42? C 1.012(2) 0.317(3) 1.1624(19)
C43? C 1.0149(17) 0.2291(14) 1.2650(10)
C44? C 0.8828(15) 0.2047(15) 1.3217(12)
H32? H 0.7987 0.2445 1.2962
C45? C 0.8763(14) 0.1208(17) 1.4166(13)
H33? H 0.7870 0.1043 1.4549
C46? C 1.0020(17) 0.0613(14) 1.4547(11)
C47? C 1.1341(14) 0.0857(13) 1.3980(12)
C48? C 1.1406(14) 0.1697(14) 1.3031(11)
H34? H 1.2291 0.1860 1.2652
O25? O 0.688(7) 0.258(4) 1.026(5)
C49? C 0.622(5) 0.176(4) 1.087(4)
H35? H 0.5294 0.1970 1.1140
C50? C 0.591(7) -0.035(5) 1.189(5)
H36? H 0.4993 0.0021 1.2098
H37? H 0.6417 -0.0731 1.2460
H38? H 0.5768 -0.0974 1.1600
C51? C 0.817(6) 0.020(5) 1.077(6)
H39? H 0.8569 0.0888 1.0268
H40? H 0.8114 -0.0449 1.0485
H41? H 0.8762 -0.0100 1.1297
N7? N 0.674(5) 0.059(4) 1.117(3)
loop_
_geom_bond_atom_site_label_1
_geom_bond_atom_site_label_2
_geom_bond_site_symmetry_1
_geom_bond_site_symmetry_2
Tb1 O1 1_555 1_555
O2 C1 1_555 1_555
O3 C1 1_555 1_555
C1 C2 1_555 1_555
C2 C3 1_555 1_555
C3 H1 1_555 1_555
C4 C3 1_555 1_555
H2 C4 1_555 1_555
C5 C4 1_555 1_555
C6 C5 1_555 1_555
H3 C6 1_555 1_555
C7 C2 1_555 1_555
H4 C7 1_555 1_555
O4 Tb1 1_555 1_555
O5 C8 1_555 1_555
C8 O4 1_555 1_555
C9 C5 1_555 1_555
C10 C9 1_555 1_555
H5 C10 1_555 1_555
C11 C10 1_555 1_555
H6 C11 1_555 1_555
C12 C8 1_555 1_555
C13 C12 1_555 1_555
H7 C13 1_555 1_555
C14 C9 1_555 1_555
O6 N1 1_555 1_555
O7 N1 1_555 1_555
N1 C14 1_555 1_555
N2 O8 1_555 1_555
O8 C18A 1_555 1_555
O9 N2 1_555 1_555
O10 Tb1 1_555 1_555
O11 C15 1_555 1_555
C15 O10 1_555 1_555
C16 C15 1_555 1_555
C17 C16 1_555 1_555
H8 C17 1_555 1_555
C18 C17 1_555 1_555
H9 C18 1_555 1_555
C19 C18 1_555 1_555
C20 N2 1_555 1_555
C21 C16 1_555 1_555
H10 C21 1_555 1_555
O12 Tb1 1_555 1_555
C22 O12 1_555 1_555
H11 C22 1_555 1_555
C23 H12 1_555 1_555
H13 C23 1_555 1_555
H14 C23 1_555 1_555
C24 H15 1_555 1_555
H16 C24 1_555 1_555
H17 C24 1_555 1_555
N3 C22 1_555 1_555
N4 C25 1_555 1_555
O13 C27 1_555 1_555
C25 H18 1_555 1_555
H19 C25 1_555 1_555
H20 C25 1_555 1_555
C26 N4 1_555 1_555
H21 C26 1_555 1_555
H22 C26 1_555 1_555
H23 C26 1_555 1_555
C27 N4 1_555 1_555
H24 C27 1_555 1_555
N2A O8A 1_555 1_555
O8A C18 1_555 1_555
O9A N2A 1_555 1_555
O10A C15A 1_555 1_555
O11A C15A 1_555 1_555
C15A C16A 1_555 1_555
C16A C17A 1_555 1_555
C17A H8A 1_555 1_555
C18A C17A 1_555 1_555
H9A O8 1_555 1_555
C19A C19 1_555 1_555
C20A N2A 1_555 1_555
C21A C16A 1_555 1_555
H10A C21A 1_555 1_555
Tb1A O5 1_555 1_555
O1A Tb1A 1_555 1_555
O2A C1A 1_555 1_555
O3A C1A 1_555 1_555
C1A C2A 1_555 1_555
C2A C3A 1_555 1_555
C3A H1A 1_555 1_555
C4A C3A 1_555 1_555
H2A C4A 1_555 1_555
C5A C4A 1_555 1_555
C6A C5A 1_555 1_555
H3A C6A 1_555 1_555
C7A C2A 1_555 1_555
H4A C7A 1_555 1_555
O4A Tb1A 1_555 1_555
O5A Tb1 1_555 1_555
C8A O4A 1_555 1_555
C9A C5A 1_555 1_555
C10A C9A 1_555 1_555
H5A C10A 1_555 1_555
C11A C10A 1_555 1_555
H6A C11A 1_555 1_555
C12A C8A 1_555 1_555
C13A C12A 1_555 1_555
H7A C13A 1_555 1_555
C14A C9A 1_555 1_555
O6A N1A 1_555 1_555
O7A N1A 1_555 1_555
N1A C14A 1_555 1_555
O12A Tb1A 1_555 1_555
C22A O12A 1_555 1_555
H11A C22A 1_555 1_555
C23A H12A 1_555 1_555
H13A C23A 1_555 1_555
H14A C23A 1_555 1_555
C24A H15A 1_555 1_555
H16A C24A 1_555 1_555
H17A C24A 1_555 1_555
N3A C22A 1_555 1_555
Tb1_2 O2A 1_555 1_555
Tb1_3 O11A 1_555 1_555
Tb1_4 O3 1_555 1_555
Tb1A_2 O3A 1_555 1_555
Tb1A_3 O10A 1_555 1_555
Tb1A_4 O2 1_555 1_555
Tb1A_5 O11 1_555 1_555
O2_2 Tb1A 1_555 1_555
O2A_2 Tb1 1_555 1_555
O3_2 Tb1 1_555 1_555
O3A_2 Tb1A 1_555 1_555
O10A_2 Tb1A 1_555 1_555
O11_2 Tb1A 1_555 1_555
O11A_2 Tb1 1_555 1_555
C6 C7 1_555 1_555
C11 C12 1_555 1_555
C13 C14 1_555 1_555
H9 O8A 1_555 1_555
C19 C20 1_555 1_555
C20 C21 1_555 1_555
C23 N3 1_555 1_555
C24 N3 1_555 1_555
C18A H9A 1_555 1_555
C18A C19A 1_555 1_555
C19A C20A 1_555 1_555
C20A C21A 1_555 1_555
C6A C7A 1_555 1_555
O5A C8A 1_555 1_555
C11A C12A 1_555 1_555
C13A C14A 1_555 1_555
C23A N3A 1_555 1_555
C24A N3A 1_555 1_555

#END
