
#######################################################################
#
#                 Cambridge Crystallographic Data Centre
#                                CCDC 
#
#######################################################################
#
# If this CIF has been generated from an entry in the Cambridge 
# Structural Database, then it will include bibliographic, chemical, 
# crystal, experimental, refinement or atomic coordinate data resulting 
# from the CCDC's data processing and validation procedures.
#
#######################################################################

data_VIGVAK
_symmetry_cell_setting           triclinic
_symmetry_space_group_name_H-M   'P -1'
_symmetry_Int_Tables_number      2
_space_group_name_Hall           '-P 1'
loop_
_symmetry_equiv_pos_site_id
_symmetry_equiv_pos_as_xyz
1 x,y,z
2 -x,-y,-z
_cell_length_a                   9.5818(5)
_cell_length_b                   11.4188(7)
_cell_length_c                   14.3130(8)
_cell_angle_alpha                72.293(3)
_cell_angle_beta                 80.953(3)
_cell_angle_gamma                81.968(3)
_cell_volume                     1466.23
loop_
_atom_site_label
_atom_site_type_symbol
_atom_site_fract_x
_atom_site_fract_y
_atom_site_fract_z
N4 N 0.322(2) 0.899(2) 0.1580(16)
O13 O 0.330(3) 1.089(2) 0.053(2)
C25 C 0.386(4) 0.771(2) 0.197(3)
H18 H 0.4697 0.7568 0.1541
H19 H 0.3189 0.7146 0.2001
H20 H 0.4099 0.7597 0.2619
C26 C 0.180(3) 0.928(3) 0.207(3)
H21 H 0.1457 1.0112 0.1748
H22 H 0.1855 0.9183 0.2749
H23 H 0.1166 0.8724 0.2016
C27 C 0.388(3) 0.983(3) 0.0833(18)
H24 H 0.4781 0.9617 0.0541
Sm1 Sm 0.7747(5) 0.4866(3) 1.0063(3)
O1 O 0.6164(17) 0.6764(12) 1.0120(12)
O2 O 1.083(2) 0.6495(16) 0.1091(17)
O3 O 0.891(2) 0.5589(15) 0.0823(13)
C1 C 0.955(4) 0.603(3) 0.131(3)
C2 C 0.8828(14) 0.6220(13) 0.2312(8)
C3 C 0.9469(14) 0.6871(14) 0.2777(11)
H1 H 1.0254 0.7288 0.2450
C4 C 0.8938(16) 0.6899(13) 0.3732(11)
H2 H 0.9367 0.7335 0.4044
C5 C 0.7766(13) 0.6276(10) 0.4222(8)
C6 C 0.7125(12) 0.5625(12) 0.3756(9)
H3 H 0.6340 0.5208 0.4084
C7 C 0.7656(15) 0.5597(14) 0.2801(9)
H4 H 0.7227 0.5162 0.2489
O4 O 0.6070(19) 0.4768(15) 0.8946(18)
O5 O 0.4035(16) 0.5929(14) 0.8520(13)
C8 C 0.5271(17) 0.5437(11) 0.8349(17)
C9 C 0.6980(12) 0.6141(9) 0.5277(7)
C10 C 0.7869(10) 0.5674(11) 0.6012(9)
H5 H 0.8835 0.5493 0.5845
C11 C 0.7313(12) 0.5478(11) 0.6999(8)
H6 H 0.7908 0.5165 0.7491
C12 C 0.5868(12) 0.5748(9) 0.7250(7)
C13 C 0.4979(10) 0.6215(12) 0.6514(9)
H7 H 0.4013 0.6396 0.6682
C14 C 0.5535(12) 0.6411(11) 0.5528(8)
O6 O 0.508(3) 0.796(2) 0.4021(17)
O7 O 0.358(3) 0.654(2) 0.4828(17)
N1 N 0.461(3) 0.699(2) 0.4747(15)
N2 N 1.2122(19) 0.1052(15) 1.4737(13)
O8 O 1.175(3) 0.122(3) 1.5573(15)
O9 O 1.3369(18) 0.084(3) 1.434(2)
O10 O 0.906(2) 0.354(2) 1.1295(17)
O11 O 1.140(2) 0.349(3) 1.128(3)
C15 C 1.026(2) 0.301(2) 1.155(2)
C16 C 1.0105(19) 0.2016(14) 1.2568(10)
C17 C 0.9128(14) 0.1143(14) 1.2828(11)
H8 H 0.8510 0.1148 1.2386
C18 C 0.9076(17) 0.0263(16) 1.3747(13)
H9 H 0.8401 -0.0342 1.3927
C19 C 1.000(2) 0.0256(15) 1.4407(11)
C20 C 1.0977(17) 0.1128(13) 1.4147(11)
C21 C 1.1029(18) 0.2008(13) 1.3228(11)
H10 H 1.1682 0.2592 1.3055
O12 O 0.678(2) 0.2698(13) 1.0390(15)
C22 C 0.7449(18) 0.1700(13) 1.0743(12)
H11 H 0.8344 0.1517 1.0431
C23 C 0.556(2) 0.1095(19) 1.2076(15)
H12 H 0.5125 0.1894 1.1746
H13 H 0.5660 0.1065 1.2740
H14 H 0.4973 0.0472 1.2090
C24 C 0.778(2) -0.0303(16) 1.1947(18)
H15 H 0.8671 -0.0325 1.1538
H16 H 0.7270 -0.0972 1.1950
H17 H 0.7942 -0.0382 1.2609
N3 N 0.6934(17) 0.0878(14) 1.1555(11)
N2A N 0.7878(19) -0.1052(15) 1.5263(13)
O8A O 0.825(3) -0.122(3) 1.4427(15)
O9A O 0.6631(18) -0.084(3) 1.566(2)
O10A O 1.094(2) -0.354(2) 1.8705(17)
O11A O 0.860(2) -0.349(3) 1.872(3)
C15A C 0.974(2) -0.301(2) 1.845(2)
C16A C 0.9895(19) -0.2016(14) 1.7432(10)
C17A C 1.0872(14) -0.1143(14) 1.7172(11)
H8A H 1.1490 -0.1148 1.7614
C18A C 1.0924(17) -0.0263(16) 1.6253(13)
H9A H 1.1599 0.0342 1.6073
C19A C 1.000(2) -0.0256(15) 1.5593(11)
C20A C 0.9023(17) -0.1128(13) 1.5853(11)
C21A C 0.8971(18) -0.2008(13) 1.6772(11)
H10A H 0.8318 -0.2592 1.6945
Sm1A Sm 0.2253(5) 0.5134(3) 0.9937(3)
O1A O 0.3836(17) 0.3236(12) 0.9880(12)
O2A O -0.083(2) 0.3505(16) 1.8909(17)
O3A O 0.109(2) 0.4411(15) 1.9177(13)
C1A C 0.045(4) 0.397(3) 1.869(3)
C2A C 0.1172(14) 0.3780(13) 1.7688(8)
C3A C 0.0531(14) 0.3129(14) 1.7223(11)
H1A H -0.0254 0.2712 1.7550
C4A C 0.1062(16) 0.3101(13) 1.6268(11)
H2A H 0.0633 0.2665 1.5956
C5A C 0.2234(13) 0.3724(10) 1.5778(8)
C6A C 0.2875(12) 0.4375(12) 1.6244(9)
H3A H 0.3660 0.4792 1.5916
C7A C 0.2344(15) 0.4403(14) 1.7199(9)
H4A H 0.2773 0.4838 1.7511
O4A O 0.3930(19) 0.5232(15) 1.1054(18)
O5A O 0.5965(16) 0.4071(14) 1.1480(13)
C8A C 0.4729(17) 0.4563(11) 1.1651(17)
C9A C 0.3020(12) 0.3859(9) 1.4723(7)
C10A C 0.2131(10) 0.4326(11) 1.3988(9)
H5A H 0.1165 0.4507 1.4155
C11A C 0.2687(12) 0.4522(11) 1.3001(8)
H6A H 0.2092 0.4835 1.2509
C12A C 0.4132(12) 0.4252(9) 1.2750(7)
C13A C 0.5021(10) 0.3785(12) 1.3486(9)
H7A H 0.5987 0.3604 1.3318
C14A C 0.4465(12) 0.3589(11) 1.4472(8)
O6A O 0.492(3) 0.204(2) 1.5979(17)
O7A O 0.642(3) 0.346(2) 1.5172(17)
N1A N 0.539(3) 0.301(2) 1.5253(15)
O12A O 0.322(2) 0.7302(13) 0.9610(15)
C22A C 0.2551(18) 0.8300(13) 0.9257(12)
H11A H 0.1656 0.8483 0.9569
C23A C 0.444(2) 0.8905(19) 0.7924(15)
H12A H 0.4875 0.8106 0.8254
H13A H 0.4340 0.8935 0.7260
H14A H 0.5027 0.9528 0.7910
C24A C 0.222(2) 1.0303(16) 0.8053(18)
H15A H 0.1329 1.0325 0.8462
H16A H 0.2730 1.0972 0.8050
H17A H 0.2058 1.0382 0.7391
N3A N 0.3066(17) 0.9122(14) 0.8445(11)
Sm1_2 Sm -0.2253(5) 0.4866(3) 2.0063(3)
Sm1_3 Sm 0.7747(5) -0.5134(3) 2.0063(3)
Sm1_4 Sm 0.7747(5) 0.4866(3) 0.0063(3)
Sm1A_2 Sm 0.2253(5) 0.5134(3) 1.9937(3)
Sm1A_3 Sm 1.2253(5) -0.4866(3) 1.9937(3)
Sm1A_4 Sm 1.2253(5) 0.5134(3) -0.0063(3)
Sm1A_5 Sm 1.2253(5) 0.5134(3) 0.9937(3)
O2_2 O 0.083(2) 0.6495(16) 1.1091(17)
O2A_2 O 0.917(2) 0.3505(16) 0.8909(17)
O3_2 O 0.891(2) 0.5589(15) 1.0823(13)
O3A_2 O 0.109(2) 0.4411(15) 0.9177(13)
O10A_2 O 0.094(2) 0.646(2) 0.8705(17)
O11_2 O 0.140(2) 0.349(3) 1.128(3)
O11A_2 O 0.860(2) 0.651(3) 0.872(3)
Sm2? Sm 0.7746(5) 0.4560(4) 1.0019(3)
O14? O 0.6242(18) 0.6625(13) 0.9874(13)
O15? O 1.082(3) 0.6160(17) 0.1075(18)
O16? O 0.878(2) 0.6019(15) 0.0823(14)
C28? C 0.955(5) 0.625(3) 0.136(3)
C29? C 0.8853(14) 0.6434(13) 0.2323(8)
C30? C 0.9689(12) 0.6641(16) 0.2957(12)
H25? H 1.0636 0.6779 0.2743
C31? C 0.9111(16) 0.6640(14) 0.3911(11)
H26? H 0.9670 0.6779 0.4335
C32? C 0.7696(15) 0.6433(9) 0.4230(8)
C33? C 0.6860(11) 0.6226(12) 0.3597(9)
H27? H 0.5913 0.6087 0.3811
C34? C 0.7438(14) 0.6226(14) 0.2643(9)
H28? H 0.6879 0.6088 0.2219
N5? N 0.493(4) 0.798(3) 0.490(2)
O17? O 0.567(3) 0.875(3) 0.425(2)
O18? O 0.360(4) 0.799(3) 0.499(2)
O19? O 0.607(2) 0.5125(16) 0.8945(19)
O20? O 0.3908(16) 0.5517(13) 0.8451(12)
C35? C 0.525(2) 0.5442(10) 0.829(2)
C36? C 0.6898(12) 0.6384(11) 0.5227(9)
C37? C 0.7653(13) 0.5453(14) 0.5885(11)
H29? H 0.8471 0.5033 0.5653
C38? C 0.7185(19) 0.5147(12) 0.6892(10)
H30? H 0.7690 0.4524 0.7332
C39? C 0.5962(18) 0.5774(9) 0.7240(8)
C40? C 0.5207(14) 0.6706(11) 0.6582(9)
H31? H 0.4389 0.7125 0.6815
C41? C 0.5675(14) 0.7011(10) 0.5576(8)
O21? O 0.9182(11) 0.3142(11) 1.1134(8)
O22? O 1.1196(13) 0.3784(12) 1.1341(13)
O23? O 1.3796(14) 0.041(3) 1.3769(18)
O24? O 1.260(2) -0.023(3) 1.5306(14)
N6? N 1.2679(13) 0.0258(16) 1.4381(12)
C42? C 1.0155(14) 0.3179(15) 1.1651(11)
C43? C 1.0169(11) 0.2260(9) 1.2661(6)
C44? C 0.8862(9) 0.1968(11) 1.3202(8)
H32? H 0.8027 0.2346 1.2942
C45? C 0.8805(9) 0.1112(12) 1.4132(8)
H33? H 0.7897 0.0909 1.4509
C46? C 1.0053(12) 0.0548(10) 1.4522(7)
C47? C 1.1359(10) 0.0840(10) 1.3981(8)
C48? C 1.1417(9) 0.1696(10) 1.3050(7)
H34? H 1.2291 0.1891 1.2688
O25? O 0.686(5) 0.259(3) 1.034(4)
C49? C 0.636(4) 0.170(3) 1.096(3)
H35? H 0.5455 0.1826 1.1289
C50? C 0.636(5) -0.045(3) 1.196(3)
H36? H 0.5425 -0.0150 1.2198
H37? H 0.6923 -0.0764 1.2491
H38? H 0.6282 -0.1093 1.1671
C51? C 0.842(4) 0.030(4) 1.073(4)
H39? H 0.8728 0.1035 1.0244
H40? H 0.8398 -0.0327 1.0416
H41? H 0.9069 0.0014 1.1219
N7? N 0.703(3) 0.058(3) 1.120(2)
loop_
_geom_bond_atom_site_label_1
_geom_bond_atom_site_label_2
_geom_bond_site_symmetry_1
_geom_bond_site_symmetry_2
Sm1 O1 1_555 1_555
O2 C1 1_555 1_555
O3 C1 1_555 1_555
C1 C2 1_555 1_555
C2 C3 1_555 1_555
C3 H1 1_555 1_555
C4 C3 1_555 1_555
H2 C4 1_555 1_555
C5 C4 1_555 1_555
C6 C5 1_555 1_555
H3 C6 1_555 1_555
C7 C2 1_555 1_555
H4 C7 1_555 1_555
O4 Sm1 1_555 1_555
O5 C8 1_555 1_555
C8 O4 1_555 1_555
C9 C5 1_555 1_555
C10 C9 1_555 1_555
H5 C10 1_555 1_555
C11 C10 1_555 1_555
H6 C11 1_555 1_555
C12 C8 1_555 1_555
C13 C12 1_555 1_555
H7 C13 1_555 1_555
C14 C9 1_555 1_555
O6 N1 1_555 1_555
O7 N1 1_555 1_555
N1 C14 1_555 1_555
N2 O8 1_555 1_555
O8 H9A 1_555 1_555
O9 N2 1_555 1_555
O10 Sm1 1_555 1_555
O11 C15 1_555 1_555
C15 O10 1_555 1_555
C16 C15 1_555 1_555
C17 C16 1_555 1_555
H8 C17 1_555 1_555
C18 C17 1_555 1_555
H9 C18 1_555 1_555
C19 C18 1_555 1_555
C20 N2 1_555 1_555
C21 C16 1_555 1_555
H10 C21 1_555 1_555
O12 Sm1 1_555 1_555
C22 O12 1_555 1_555
H11 C22 1_555 1_555
C23 H12 1_555 1_555
H13 C23 1_555 1_555
H14 C23 1_555 1_555
C24 H15 1_555 1_555
H16 C24 1_555 1_555
H17 C24 1_555 1_555
N3 C22 1_555 1_555
N4 C25 1_555 1_555
O13 C27 1_555 1_555
C25 H18 1_555 1_555
H19 C25 1_555 1_555
H20 C25 1_555 1_555
C26 N4 1_555 1_555
H21 C26 1_555 1_555
H22 C26 1_555 1_555
H23 C26 1_555 1_555
C27 N4 1_555 1_555
H24 C27 1_555 1_555
N2A O8A 1_555 1_555
O8A H9 1_555 1_555
O9A N2A 1_555 1_555
O10A C15A 1_555 1_555
O11A C15A 1_555 1_555
C15A C16A 1_555 1_555
C16A C17A 1_555 1_555
C17A H8A 1_555 1_555
C18A C17A 1_555 1_555
H9A C18A 1_555 1_555
C19A C19 1_555 1_555
C20A N2A 1_555 1_555
C21A C16A 1_555 1_555
H10A C21A 1_555 1_555
Sm1A O5 1_555 1_555
O1A Sm1A 1_555 1_555
O2A C1A 1_555 1_555
O3A C1A 1_555 1_555
C1A C2A 1_555 1_555
C2A C3A 1_555 1_555
C3A H1A 1_555 1_555
C4A C3A 1_555 1_555
H2A C4A 1_555 1_555
C5A C4A 1_555 1_555
C6A C5A 1_555 1_555
H3A C6A 1_555 1_555
C7A C2A 1_555 1_555
H4A C7A 1_555 1_555
O4A Sm1A 1_555 1_555
O5A Sm1 1_555 1_555
C8A O4A 1_555 1_555
C9A C5A 1_555 1_555
C10A C9A 1_555 1_555
H5A C10A 1_555 1_555
C11A C10A 1_555 1_555
H6A C11A 1_555 1_555
C12A C8A 1_555 1_555
C13A C12A 1_555 1_555
H7A C13A 1_555 1_555
C14A C9A 1_555 1_555
O6A N1A 1_555 1_555
O7A N1A 1_555 1_555
N1A C14A 1_555 1_555
O12A Sm1A 1_555 1_555
C22A O12A 1_555 1_555
H11A C22A 1_555 1_555
C23A H12A 1_555 1_555
H13A C23A 1_555 1_555
H14A C23A 1_555 1_555
C24A H15A 1_555 1_555
H16A C24A 1_555 1_555
H17A C24A 1_555 1_555
N3A C22A 1_555 1_555
Sm1_2 O2A 1_555 1_555
Sm1_3 O11A 1_555 1_555
Sm1_4 O3 1_555 1_555
Sm1A_2 O3A 1_555 1_555
Sm1A_3 O10A 1_555 1_555
Sm1A_4 O2 1_555 1_555
Sm1A_5 O11 1_555 1_555
O2_2 Sm1A 1_555 1_555
O2A_2 Sm1 1_555 1_555
O3_2 Sm1 1_555 1_555
O3A_2 Sm1A 1_555 1_555
O10A_2 Sm1A 1_555 1_555
O11_2 Sm1A 1_555 1_555
O11A_2 Sm1 1_555 1_555
C6 C7 1_555 1_555
C11 C12 1_555 1_555
C13 C14 1_555 1_555
C19 C20 1_555 1_555
C20 C21 1_555 1_555
C23 N3 1_555 1_555
C24 N3 1_555 1_555
C18A C19A 1_555 1_555
C19A C20A 1_555 1_555
C20A C21A 1_555 1_555
C6A C7A 1_555 1_555
O5A C8A 1_555 1_555
C11A C12A 1_555 1_555
C13A C14A 1_555 1_555
C23A N3A 1_555 1_555
C24A N3A 1_555 1_555

#END
