
#######################################################################
#
#                 Cambridge Crystallographic Data Centre
#                                CCDC 
#
#######################################################################
#
# If this CIF has been generated from an entry in the Cambridge 
# Structural Database, then it will include bibliographic, chemical, 
# crystal, experimental, refinement or atomic coordinate data resulting 
# from the CCDC's data processing and validation procedures.
#
#######################################################################

data_VIGWAL
_symmetry_cell_setting           triclinic
_symmetry_space_group_name_H-M   'P -1'
_symmetry_Int_Tables_number      2
_space_group_name_Hall           '-P 1'
loop_
_symmetry_equiv_pos_site_id
_symmetry_equiv_pos_as_xyz
1 x,y,z
2 -x,-y,-z
_cell_length_a                   8.0568(10)
_cell_length_b                   10.3125(10)
_cell_length_c                   16.0151(16)
_cell_angle_alpha                98.594(8)
_cell_angle_beta                 94.875(9)
_cell_angle_gamma                93.583(9)
_cell_volume                     1307.1
loop_
_atom_site_label
_atom_site_type_symbol
_atom_site_fract_x
_atom_site_fract_y
_atom_site_fract_z
C1 C -0.2924(7) 0.0679(4) -0.0085(3)
C2 C -0.2285(7) 0.0445(5) 0.0570(3)
C3 C -0.1527(7) 0.0174(5) 0.1313(3)
C4 C -0.0839(7) -0.0095(5) 0.1954(3)
C5 C -0.3618(7) 0.0880(5) -0.0896(3)
C6 C -0.4466(7) 0.0376(5) -0.2248(3)
H1 H -0.4729 -0.0079 -0.2794
C7 C -0.4657(7) 0.1675(5) -0.1979(3)
H2 H -0.5082 0.226 -0.2316
C8 C -0.3425(9) -0.1474(5) -0.1560(4)
H3 H -0.3336 -0.1896 -0.2129
H4 H -0.4291 -0.1935 -0.1319
H5 H -0.2381 -0.1483 -0.1224
C9 C -0.0062(6) -0.0549(4) 0.2665(3)
C10 C 0.0972(7) -0.1947(5) 0.3456(3)
H6 H 0.1315 -0.2709 0.3642
C11 C 0.1109(7) -0.0718(5) 0.3911(3)
H7 H 0.1577 -0.0497 0.447
C12 C -0.0127(8) -0.2894(5) 0.1940(3)
H8 H 0.086 -0.3008 0.1649
H9 H -0.1007 -0.2661 0.1561
H10 H -0.0466 -0.37 0.2132
C13 C -0.2753(7) 0.2680(5) 0.4119(3)
C14 C -0.4198(7) 0.3415(5) 0.4422(4)
H11 H -0.4247 0.4206 0.4175
H12 H -0.4052 0.3635 0.5029
H13 H -0.5219 0.2872 0.4255
C15 C 0.1878(6) 0.4301(5) 0.3324(3)
C16 C 0.2989(8) 0.4903(5) 0.2755(3)
H14 H 0.3228 0.5823 0.2966
H15 H 0.2435 0.4795 0.2192
H16 H 0.4013 0.4475 0.2744
C17 C 0.2205(6) 0.2859(5) 0.5539(3)
C18 C 0.3286(7) 0.2456(5) 0.6245(3)
H17 H 0.4426 0.2483 0.6111
H18 H 0.2927 0.1578 0.6318
H19 H 0.3201 0.3048 0.6759
C19 C -0.2172(6) 0.6081(5) -0.0299(3)
C20 C -0.0508(7) 0.6690(5) -0.0461(4)
H20 H -0.0411 0.7607 -0.0227
H21 H -0.0423 0.6592 -0.1061
H22 H 0.037 0.6258 -0.0198
C21 C -0.6428(6) 0.5574(5) -0.1406(3)
C22 C -0.7324(7) 0.6002(5) -0.2173(3)
H23 H -0.8472 0.6107 -0.2079
H24 H -0.7267 0.5348 -0.2662
H25 H -0.6803 0.6824 -0.2268
N1 N -0.4123(5) 0.1978(4) -0.1133(2)
N2 N -0.3829(6) -0.0115(4) -0.1571(3)
N3 N 0.0454(6) 0.0156(4) 0.3423(3)
N4 N 0.0228(5) -0.1844(4) 0.2672(3)
O1 O -0.1287(4) 0.3186(3) 0.4409(2)
O2 O -0.2938(5) 0.1667(4) 0.3607(3)
O3 O 0.1475(4) 0.5001(3) 0.3967(2)
O4 O 0.1411(5) 0.3074(3) 0.3098(2)
O5 O 0.1637(4) 0.3980(3) 0.5654(2)
O6 O 0.1937(5) 0.2030(3) 0.4867(2)
O7 O -0.2545(4) 0.4906(3) -0.0621(2)
O8 O -0.3080(5) 0.6768(3) 0.0159(2)
O9 O -0.5851(5) 0.4467(3) -0.1482(2)
O10 O -0.6335(5) 0.6366(3) -0.0725(2)
Zn1 Zn 0.00000 0.50000 0.50000
Zn2 Zn -0.46055(7) 0.37417(5) -0.04817(3)
Zn3 Zn 0.03528(8) 0.20684(5) 0.38644(4)
C1A C -0.7076(7) 0.9321(4) 0.0085(3)
C2A C -0.7715(7) 0.9555(5) -0.0570(3)
C3A C -0.8473(7) 0.9826(5) -0.1313(3)
C4A C -0.9161(7) 1.0095(5) -0.1954(3)
C5A C -0.6382(7) 0.9120(5) 0.0896(3)
C6A C -0.5534(7) 0.9624(5) 0.2248(3)
H1A H -0.5271 1.0079 0.2794
C7A C -0.5343(7) 0.8325(5) 0.1979(3)
H2A H -0.4918 0.774 0.2316
C8A C -0.6575(9) 1.1474(5) 0.1560(4)
H3A H -0.6664 1.1896 0.2129
H4A H -0.5709 1.1935 0.1319
H5A H -0.7619 1.1483 0.1224
C9A C -0.9938(6) 1.0549(4) -0.2665(3)
C10A C -1.0972(7) 1.1947(5) -0.3456(3)
H6A H -1.1315 1.2709 -0.3642
C11A C -1.1109(7) 1.0718(5) -0.3911(3)
H7A H -1.1577 1.0497 -0.447
C12A C -0.9873(8) 1.2894(5) -0.1940(3)
H8A H -1.086 1.3008 -0.1649
H9A H -0.8993 1.2661 -0.1561
H10A H -0.9534 1.37 -0.2132
C13A C -0.7247(7) 0.7320(5) -0.4119(3)
C14A C -0.5802(7) 0.6585(5) -0.4422(4)
H11A H -0.5753 0.5794 -0.4175
H12A H -0.5948 0.6365 -0.5029
H13A H -0.4781 0.7128 -0.4255
C15A C -1.1878(6) 0.5699(5) -0.3324(3)
C16A C -1.2989(8) 0.5097(5) -0.2755(3)
H14A H -1.3228 0.4177 -0.2966
H15A H -1.2435 0.5205 -0.2192
H16A H -1.4013 0.5525 -0.2744
C17A C -1.2205(6) 0.7141(5) -0.5539(3)
C18A C -1.3286(7) 0.7544(5) -0.6245(3)
H17A H -1.4426 0.7517 -0.6111
H18A H -1.2927 0.8422 -0.6318
H19A H -1.3201 0.6952 -0.6759
C19A C -0.7828(6) 0.3919(5) 0.0299(3)
C20A C -0.9492(7) 0.3310(5) 0.0461(4)
H20A H -0.9589 0.2393 0.0227
H21A H -0.9577 0.3408 0.1061
H22A H -1.037 0.3742 0.0198
C21A C -0.3572(6) 0.4426(5) 0.1406(3)
C22A C -0.2676(7) 0.3998(5) 0.2173(3)
H23A H -0.1528 0.3893 0.2079
H24A H -0.2733 0.4652 0.2662
H25A H -0.3197 0.3176 0.2268
N1A N -0.5877(5) 0.8022(4) 0.1133(2)
N2A N -0.6171(6) 1.0115(4) 0.1571(3)
N3A N -1.0454(6) 0.9844(4) -0.3423(3)
N4A N -1.0228(5) 1.1844(4) -0.2672(3)
O1A O -0.8713(4) 0.6814(3) -0.4409(2)
O2A O -0.7062(5) 0.8333(4) -0.3607(3)
O3A O -1.1475(4) 0.4999(3) -0.3967(2)
O4A O -1.1411(5) 0.6926(3) -0.3098(2)
O5A O -1.1637(4) 0.6020(3) -0.5654(2)
O6A O -1.1937(5) 0.7970(3) -0.4867(2)
O7A O -0.7455(4) 0.5094(3) 0.0621(2)
O8A O -0.6920(5) 0.3232(3) -0.0159(2)
O9A O -0.4149(5) 0.5533(3) 0.1482(2)
O10A O -0.3665(5) 0.3634(3) 0.0725(2)
Zn2A Zn -0.53945(7) 0.62583(5) 0.04817(3)
Zn3A Zn -1.03528(8) 0.79316(5) -0.38644(4)
O1A_2 O 0.1287(4) 0.6814(3) 0.5591(2)
O3A_2 O -0.1475(4) 0.4999(3) 0.6033(2)
O5A_2 O -0.1637(4) 0.6020(3) 0.4346(2)
Zn1_2 Zn -1.00000 0.50000 -0.50000
loop_
_geom_bond_atom_site_label_1
_geom_bond_atom_site_label_2
_geom_bond_site_symmetry_1
_geom_bond_site_symmetry_2
C1 C2 1_555 1_555
C2 C3 1_555 1_555
C3 C4 1_555 1_555
C4 C9 1_555 1_555
C5 C1 1_555 1_555
C6 H1 1_555 1_555
C7 C6 1_555 1_555
H2 C7 1_555 1_555
C8 H3 1_555 1_555
H4 C8 1_555 1_555
H5 C8 1_555 1_555
C9 N3 1_555 1_555
C10 H6 1_555 1_555
C11 C10 1_555 1_555
H7 C11 1_555 1_555
C12 H8 1_555 1_555
H9 C12 1_555 1_555
H10 C12 1_555 1_555
C13 C14 1_555 1_555
C14 H11 1_555 1_555
H12 C14 1_555 1_555
H13 C14 1_555 1_555
C15 C16 1_555 1_555
C16 H14 1_555 1_555
H15 C16 1_555 1_555
H16 C16 1_555 1_555
C17 C18 1_555 1_555
C18 H17 1_555 1_555
H18 C18 1_555 1_555
H19 C18 1_555 1_555
C19 C20 1_555 1_555
C20 H20 1_555 1_555
H21 C20 1_555 1_555
H22 C20 1_555 1_555
C21 C22 1_555 1_555
C22 H23 1_555 1_555
H24 C22 1_555 1_555
H25 C22 1_555 1_555
N1 C5 1_555 1_555
N2 C5 1_555 1_555
N3 C11 1_555 1_555
N4 C9 1_555 1_555
O1 C13 1_555 1_555
O2 C13 1_555 1_555
O3 C15 1_555 1_555
O4 C15 1_555 1_555
O5 C17 1_555 1_555
O6 C17 1_555 1_555
O7 C19 1_555 1_555
O8 C19 1_555 1_555
O9 C21 1_555 1_555
O10 C21 1_555 1_555
Zn1 O1 1_555 1_555
Zn2 N1 1_555 1_555
Zn3 N3 1_555 1_555
C1A C2A 1_555 1_555
C2A C3A 1_555 1_555
C3A C4A 1_555 1_555
C4A C9A 1_555 1_555
C5A C1A 1_555 1_555
C6A H1A 1_555 1_555
C7A C6A 1_555 1_555
H2A C7A 1_555 1_555
C8A H3A 1_555 1_555
H4A C8A 1_555 1_555
H5A C8A 1_555 1_555
C9A N3A 1_555 1_555
C10A H6A 1_555 1_555
C11A C10A 1_555 1_555
H7A C11A 1_555 1_555
C12A H8A 1_555 1_555
H9A C12A 1_555 1_555
H10A C12A 1_555 1_555
C13A C14A 1_555 1_555
C14A H11A 1_555 1_555
H12A C14A 1_555 1_555
H13A C14A 1_555 1_555
C15A C16A 1_555 1_555
C16A H14A 1_555 1_555
H15A C16A 1_555 1_555
H16A C16A 1_555 1_555
C17A C18A 1_555 1_555
C18A H17A 1_555 1_555
H18A C18A 1_555 1_555
H19A C18A 1_555 1_555
C19A C20A 1_555 1_555
C20A H20A 1_555 1_555
H21A C20A 1_555 1_555
H22A C20A 1_555 1_555
C21A C22A 1_555 1_555
C22A H23A 1_555 1_555
H24A C22A 1_555 1_555
H25A C22A 1_555 1_555
N1A C5A 1_555 1_555
N2A C5A 1_555 1_555
N3A C11A 1_555 1_555
N4A C9A 1_555 1_555
O1A C13A 1_555 1_555
O2A C13A 1_555 1_555
O3A C15A 1_555 1_555
O4A C15A 1_555 1_555
O5A C17A 1_555 1_555
O6A C17A 1_555 1_555
O7A C19A 1_555 1_555
O8A Zn2 1_555 1_555
O9A C21A 1_555 1_555
O10A Zn2 1_555 1_555
Zn2A O8 1_555 1_555
Zn3A N3A 1_555 1_555
O1A_2 Zn1 1_555 1_555
O3A_2 Zn1 1_555 1_555
O5A_2 Zn1 1_555 1_555
Zn1_2 O1A 1_555 1_555
C6 N2 1_555 1_555
C7 N1 1_555 1_555
C8 N2 1_555 1_555
C10 N4 1_555 1_555
C12 N4 1_555 1_555
O1 Zn3 1_555 1_555
O3 Zn1 1_555 1_555
O4 Zn3 1_555 1_555
O5 Zn1 1_555 1_555
O6 Zn3 1_555 1_555
O7 Zn2 1_555 1_555
O9 Zn2 1_555 1_555
O10 Zn2A 1_555 1_555
C6A N2A 1_555 1_555
C7A N1A 1_555 1_555
C8A N2A 1_555 1_555
C10A N4A 1_555 1_555
C12A N4A 1_555 1_555
C19A O8A 1_555 1_555
C21A O10A 1_555 1_555
N1A Zn2A 1_555 1_555
O1A Zn3A 1_555 1_555
O3A Zn1_2 1_555 1_555
O4A Zn3A 1_555 1_555
O5A Zn1_2 1_555 1_555
O6A Zn3A 1_555 1_555
O7A Zn2A 1_555 1_555
O9A Zn2A 1_555 1_555

#END
