
#######################################################################
#
#                 Cambridge Crystallographic Data Centre
#                                CCDC 
#
#######################################################################
#
# If this CIF has been generated from an entry in the Cambridge 
# Structural Database, then it will include bibliographic, chemical, 
# crystal, experimental, refinement or atomic coordinate data resulting 
# from the CCDC's data processing and validation procedures.
#
#######################################################################

data_VIGXOA
_symmetry_cell_setting           triclinic
_symmetry_space_group_name_H-M   'P -1'
_symmetry_Int_Tables_number      2
_space_group_name_Hall           '-P 1'
loop_
_symmetry_equiv_pos_site_id
_symmetry_equiv_pos_as_xyz
1 x,y,z
2 -x,-y,-z
_cell_length_a                   10.3498(7)
_cell_length_b                   10.8338(8)
_cell_length_c                   20.2124(15)
_cell_angle_alpha                84.1010(10)
_cell_angle_beta                 78.4860(10)
_cell_angle_gamma                76.1720(10)
_cell_volume                     2152.78
loop_
_atom_site_label
_atom_site_type_symbol
_atom_site_fract_x
_atom_site_fract_y
_atom_site_fract_z
Cu1 Cu 0.93949(3) 0.36390(3) 0.410112(13)
Cu2 Cu 0.42774(3) -0.05809(2) 0.944977(13)
O1 O 0.0659(3) -0.3230(2) 1.08811(10)
O2 O 0.6820(2) 0.19500(18) 0.74295(10)
O3 O 0.3277(2) -0.17374(17) 0.84590(11)
O4 O 0.8499(2) 0.55906(18) 0.45296(10)
H1 H 0.867(3) 0.575(3) 0.4890(11)
H2 H 0.843(3) 0.624(2) 0.4272(13)
O5 O 0.17807(18) 0.16575(19) 0.39124(10)
O6 O 0.89410(17) 0.15788(17) 0.34103(10)
O7 O 0.35546(19) -0.81967(16) 0.87035(9)
O8 O 0.40432(18) -0.22915(15) 0.94197(8)
O9 O 0.46034(16) -0.89088(14) 0.95680(8)
O10 O 0.77501(16) 0.33670(15) 0.38703(8)
O11 O 0.11927(16) 0.35967(16) 0.42793(8)
N1 N 0.2427(2) -0.01581(18) 1.00529(10)
N2 N 0.0690(2) -0.1687(2) 1.15551(10)
H3 H 0.039(3) -0.143(3) 1.1953(10)
N3 N -0.01759(19) -0.53325(18) 1.32009(10)
N4 N 0.6032(2) -0.10467(18) 0.87747(10)
N5 N 0.7781(2) -0.0048(2) 0.71065(10)
H4 H 0.812(3) -0.052(2) 0.6762(11)
N6 N 0.88484(19) 0.27866(19) 0.50262(10)
C1 C 0.4225(3) 0.2716(3) 0.32802(13)
H5 H 0.4279 0.1904 0.3081
H6 H 0.3680 0.3412 0.3028
C2 C 0.4992(3) -0.4721(2) 0.86546(14)
H7 H 0.5548 -0.4685 0.8995
H8 H 0.5417 -0.4371 0.8216
C3 C -0.0666(3) -0.4415(3) 1.21298(14)
H9 H -0.1173 -0.4368 1.1781
C4 C 0.5784(3) 0.1772(3) 0.43653(14)
H10 H 0.6323 0.1033 0.4594
H11 H 0.5726 0.2538 0.4608
C5 C 0.4358(3) 0.1565(3) 0.44043(15)
H12 H 0.4412 0.0754 0.4204
H13 H 0.3904 0.1513 0.4883
C6 C 0.7960(3) -0.2671(3) 0.83943(14)
H14 H 0.8512 -0.3490 0.8472
C7 C 0.8284(3) -0.1943(2) 0.78146(13)
H15 H 0.9057 -0.2253 0.7485
C8 C 0.7264(3) 0.2873(2) 0.60607(14)
H16 H 0.6474 0.3326 0.6336
C9 C 0.5644(3) 0.2943(3) 0.32192(13)
H17 H 0.6092 0.2927 0.2738
H18 H 0.5577 0.3797 0.3375
C10 C 0.2884(3) -0.4469(2) 0.95340(13)
H19 H 0.3394 -0.4435 0.9895
H20 H 0.1953 -0.3954 0.9664
C11 C 0.0036(3) 0.0395(2) 1.09840(13)
H21 H -0.0773 0.0594 1.1309
C12 C 0.6507(2) 0.1942(2) 0.36344(13)
H22 H 0.6703 0.1110 0.3420
C13 C 0.1013(3) -0.3810(3) 1.25821(13)
H23 H 0.1683 -0.3332 1.2557
C14 C 0.4250(2) -0.6674(2) 0.92453(12)
H24 H 0.4793 -0.6710 0.9607
C15 C 0.0288(3) -0.3693(2) 1.20690(12)
C16 C 0.2832(2) -0.5844(2) 0.94670(13)
H25 H 0.2262 -0.5867 0.9131
H26 H 0.2410 -0.6194 0.9907
C17 C 0.4957(3) -0.6107(2) 0.85899(13)
H27 H 0.4476 -0.6150 0.8219
H28 H 0.5894 -0.6616 0.8473
C18 C 0.3546(2) 0.2665(2) 0.40224(12)
H29 H 0.3554 0.3474 0.4218
C19 C 0.0331(3) 0.1252(2) 1.04559(14)
H30 H -0.0285 0.2046 1.0406
C20 C 0.7969(2) 0.1715(2) 0.62965(12)
C21 C 0.0556(3) -0.2847(2) 1.14404(13)
C22 C 0.9126(3) 0.1102(2) 0.58823(12)
H31 H 0.9630 0.0300 0.6024
C23 C 0.7713(3) 0.3362(2) 0.54262(14)
H32 H 0.7198 0.4142 0.5264
C24 C 0.3565(3) -0.3912(2) 0.88666(12)
H33 H 0.3027 -0.3946 0.8512
C25 C 0.0753(3) -0.4635(3) 1.31347(13)
H34 H 0.1259 -0.4710 1.3486
C26 C 0.7465(3) -0.0751(2) 0.77190(12)
C27 C 0.0945(2) -0.0760(2) 1.10294(12)
C28 C 0.6829(3) -0.2200(2) 0.88613(13)
H35 H 0.6605 -0.2712 0.9259
C29 C 0.1529(2) 0.0949(2) 0.99996(13)
H36 H 0.1722 0.1545 0.9636
C30 C 0.9539(2) 0.1676(2) 0.52572(12)
H37 H 1.0349 0.1262 0.4980
C31 C -0.0877(3) -0.5205(3) 1.26998(13)
H38 H -0.1552 -0.5681 1.2739
C32 C 0.7461(3) 0.1216(2) 0.69996(12)
C33 C 0.2129(2) -0.1000(2) 1.05587(12)
H39 H 0.2755 -0.1792 1.0596
C34 C 0.2089(2) 0.2597(2) 0.40736(11)
C35 C 0.6346(2) -0.0323(2) 0.82145(12)
H40 H 0.5792 0.0502 0.8154
C36 C 0.7845(2) 0.2293(2) 0.36290(12)
C37 C 0.3619(2) -0.2534(2) 0.89076(12)
C38 C 0.4128(2) -0.8011(2) 0.91536(12)
Cu1_2 Cu -0.06051(3) -0.63610(3) 1.410112(13)
Cu1_3 Cu -0.06051(3) 0.36390(3) 0.410112(13)
Cu2_2 Cu 0.42774(3) -1.05809(2) 0.944977(13)
Cu2A Cu 0.57226(3) -0.94191(2) 1.055023(13)
O9_2 O 0.46034(16) 0.10912(14) 0.95680(8)
O9A O 0.53966(16) -0.10912(14) 1.04320(8)
O11_2 O 1.11927(16) 0.35967(16) 0.42793(8)
N3_2 N 0.98241(19) 0.46675(18) 0.32009(10)
O12 O 0.91722(19) -0.06255(18) 0.27798(10)
H41 H 0.9142 0.0042 0.2993
H42 H 0.8422 -0.0533 0.2629
O13 O 0.3192(3) 0.0467(2) 0.76902(11)
H43 H 0.3105 0.1011 0.7993
H44 H 0.3348 -0.0302 0.7876
O14 O 0.8035(3) 0.7892(3) 0.38849(17)
H45 H 0.8489 0.8300 0.3564
H46 H 0.7465 0.7589 0.3624
O15 O 0.5615(3) 0.5489(4) 0.4288(3)
H47 H 0.6063 0.6055 0.4327
H48 H 0.6154 0.4862 0.4066
O16 O 0.4452(4) 0.1576(4) 0.6437(3)
H49 H 0.4086 0.1249 0.6806
H50 H 0.4434 0.2322 0.6255
loop_
_geom_bond_atom_site_label_1
_geom_bond_atom_site_label_2
_geom_bond_site_symmetry_1
_geom_bond_site_symmetry_2
Cu1 O4 1_555 1_555
Cu2 O8 1_555 1_555
O1 C21 1_555 1_555
O2 C32 1_555 1_555
O3 C37 1_555 1_555
O4 H1 1_555 1_555
H2 O4 1_555 1_555
O5 C34 1_555 1_555
O6 C36 1_555 1_555
O7 C38 1_555 1_555
O8 C37 1_555 1_555
O9 C38 1_555 1_555
O10 Cu1 1_555 1_555
O11 C34 1_555 1_555
N1 Cu2 1_555 1_555
N2 H3 1_555 1_555
N3 C25 1_555 1_555
N4 Cu2 1_555 1_555
N5 H4 1_555 1_555
N6 Cu1 1_555 1_555
C1 H5 1_555 1_555
H6 C1 1_555 1_555
C2 H7 1_555 1_555
H8 C2 1_555 1_555
C3 H9 1_555 1_555
C4 H10 1_555 1_555
H11 C4 1_555 1_555
C5 C4 1_555 1_555
H12 C5 1_555 1_555
H13 C5 1_555 1_555
C6 H14 1_555 1_555
C7 C6 1_555 1_555
H15 C7 1_555 1_555
C8 H16 1_555 1_555
C9 C1 1_555 1_555
H17 C9 1_555 1_555
H18 C9 1_555 1_555
C10 H19 1_555 1_555
H20 C10 1_555 1_555
C11 H21 1_555 1_555
C12 C4 1_555 1_555
H22 C12 1_555 1_555
C13 H23 1_555 1_555
C14 H24 1_555 1_555
C15 C3 1_555 1_555
C16 C10 1_555 1_555
H25 C16 1_555 1_555
H26 C16 1_555 1_555
C17 C2 1_555 1_555
H27 C17 1_555 1_555
H28 C17 1_555 1_555
C18 C1 1_555 1_555
H29 C18 1_555 1_555
C19 C11 1_555 1_555
H30 C19 1_555 1_555
C20 C8 1_555 1_555
C21 N2 1_555 1_555
C22 C20 1_555 1_555
H31 C22 1_555 1_555
C23 N6 1_555 1_555
H32 C23 1_555 1_555
C24 C2 1_555 1_555
H33 C24 1_555 1_555
C25 C13 1_555 1_555
H34 C25 1_555 1_555
C26 N5 1_555 1_555
C27 N2 1_555 1_555
C28 N4 1_555 1_555
H35 C28 1_555 1_555
C29 N1 1_555 1_555
H36 C29 1_555 1_555
C30 N6 1_555 1_555
H37 C30 1_555 1_555
C31 N3 1_555 1_555
H38 C31 1_555 1_555
C32 N5 1_555 1_555
C33 N1 1_555 1_555
H39 C33 1_555 1_555
C34 C18 1_555 1_555
C35 N4 1_555 1_555
H40 C35 1_555 1_555
C36 O10 1_555 1_555
C37 C24 1_555 1_555
C38 C14 1_555 1_555
O12 H41 1_555 1_555
H42 O12 1_555 1_555
O13 H43 1_555 1_555
H44 O13 1_555 1_555
O14 H45 1_555 1_555
H46 O14 1_555 1_555
O15 H47 1_555 1_555
H48 O15 1_555 1_555
O16 H49 1_555 1_555
H50 O16 1_555 1_555
Cu1_2 N3 1_555 1_555
Cu1_3 O11 1_555 1_555
Cu2_2 O9 1_555 1_555
Cu2A O9 1_555 1_555
O9_2 Cu2 1_555 1_555
O9A Cu2 1_555 1_555
O11_2 Cu1 1_555 1_555
N3_2 Cu1 1_555 1_555
C3 C31 1_555 1_555
C5 C18 1_555 1_555
C6 C28 1_555 1_555
C7 C26 1_555 1_555
C8 C23 1_555 1_555
C9 C12 1_555 1_555
C10 C24 1_555 1_555
C11 C27 1_555 1_555
C12 C36 1_555 1_555
C13 C15 1_555 1_555
C14 C16 1_555 1_555
C14 C17 1_555 1_555
C15 C21 1_555 1_555
C19 C29 1_555 1_555
C20 C32 1_555 1_555
C22 C30 1_555 1_555
C26 C35 1_555 1_555
C27 C33 1_555 1_555

#END
