
#######################################################################
#
#                 Cambridge Crystallographic Data Centre
#                                CCDC 
#
#######################################################################
#
# If this CIF has been generated from an entry in the Cambridge 
# Structural Database, then it will include bibliographic, chemical, 
# crystal, experimental, refinement or atomic coordinate data resulting 
# from the CCDC's data processing and validation procedures.
#
#######################################################################

data_VIGYUH
_symmetry_cell_setting           monoclinic
_symmetry_space_group_name_H-M   'C 2/c'
_symmetry_Int_Tables_number      15
_space_group_name_Hall           '-C 2yn'
loop_
_symmetry_equiv_pos_site_id
_symmetry_equiv_pos_as_xyz
1 x,y,z
2 -x,y,1/2-z
3 1/2+x,1/2+y,z
4 1/2-x,1/2+y,1/2-z
5 -x,-y,-z
6 x,-y,1/2+z
7 1/2-x,1/2-y,-z
8 1/2+x,1/2-y,1/2+z
_cell_length_a                   22.241(5)
_cell_length_b                   8.9299(18)
_cell_length_c                   21.092(4)
_cell_angle_alpha                90
_cell_angle_beta                 116.253(7)
_cell_angle_gamma                90
_cell_volume                     3756.97
loop_
_atom_site_label
_atom_site_type_symbol
_atom_site_fract_x
_atom_site_fract_y
_atom_site_fract_z
Cu1 Cu 0.224763(17) 0.61050(4) 0.201487(17)
O1 O 0.22805(9) 0.5702(2) 0.11219(9)
O2 O 0.14941(10) 0.3914(2) 0.07869(10)
O3 O 0.21687(9) 0.4121(2) -0.21012(9)
O4 O 0.24964(10) 0.6457(2) -0.21189(10)
O5 O 0.55675(10) 0.5824(3) 0.47267(11)
N1 N 0.62475(11) 0.8480(3) 0.64945(12)
N2 N 0.32508(12) 0.5759(3) 0.25337(12)
N3 N 0.45534(13) 0.6968(3) 0.42330(13)
H1 H 0.4364(15) 0.764(3) 0.4400(16)
C1 C 0.48829(17) 0.8282(4) 0.56257(17)
H2 H 0.4415 0.8230 0.5326
C2 C 0.60091(15) 0.7710(3) 0.58885(14)
H3 H 0.6319 0.7216 0.5763
C3 C 0.53355(15) 0.7599(3) 0.54366(15)
C4 C 0.27302(14) 0.4431(3) -0.05903(14)
H4 H 0.2553 0.3437 -0.0797
H5 H 0.3205 0.4482 -0.0504
C5 C 0.23307(14) 0.5654(3) -0.11150(13)
H6 H 0.2547 0.6639 -0.0919
C6 C 0.16047(14) 0.5710(3) -0.12130(14)
H7 H 0.1369 0.6563 -0.1523
H8 H 0.1369 0.4778 -0.1446
C7 C 0.23377(13) 0.5428(3) -0.18274(14)
C8 C 0.19635(14) 0.4602(3) -0.00016(13)
H9 H 0.1753 0.3638 -0.0235
C9 C 0.19015(14) 0.4716(3) 0.06874(14)
C10 C 0.51252(16) 0.9046(5) 0.62629(17)
H10 H 0.4824 0.9512 0.6410
C11 C 0.15826(14) 0.5883(3) -0.05023(14)
H11 H 0.1111 0.5883 -0.0578
H12 H 0.1786 0.6852 -0.0286
C12 C 0.26918(14) 0.4596(3) 0.01116(14)
H13 H 0.2912 0.5542 0.0343
H14 H 0.2935 0.3757 0.0428
C13 C 0.58055(15) 0.9124(4) 0.66802(16)
H15 H 0.5967 0.9653 0.7115
C14 C 0.35734(15) 0.4786(4) 0.23090(15)
H16 H 0.3330 0.4275 0.1875
C15 C 0.35947(14) 0.6439(3) 0.31540(14)
H17 H 0.3365 0.7128 0.3313
C16 C 0.42691(15) 0.6188(3) 0.35769(14)
C17 C 0.42450(16) 0.4511(4) 0.26898(16)
H18 H 0.4462 0.3834 0.2511
C18 C 0.46099(16) 0.5210(4) 0.33333(16)
H19 H 0.5076 0.5030 0.3600
C19 C 0.51608(16) 0.6698(4) 0.47622(16)
Cu1E Cu 0.224763(17) 0.38950(4) -0.298513(17)
Cu1F Cu 0.275237(17) 0.88950(4) -0.201487(17)
Cu1G Cu 0.724763(17) 0.88950(4) 0.701487(17)
O3E O 0.21687(9) 0.5879(2) 0.28988(9)
O4F O 0.25036(10) 0.8543(2) 0.21189(10)
N1G N 0.12475(11) 0.6520(3) 0.14945(12)
loop_
_geom_bond_atom_site_label_1
_geom_bond_atom_site_label_2
_geom_bond_site_symmetry_1
_geom_bond_site_symmetry_2
Cu1 O1 1_555 1_555
O1 C9 1_555 1_555
O2 C9 1_555 1_555
O3 C7 1_555 1_555
O4 C7 1_555 1_555
O5 C19 1_555 1_555
N1 C2 1_555 1_555
N2 Cu1 1_555 1_555
N3 H1 1_555 1_555
C1 H2 1_555 1_555
C2 H3 1_555 1_555
C3 C1 1_555 1_555
C4 H4 1_555 1_555
H5 C4 1_555 1_555
C5 C4 1_555 1_555
H6 C5 1_555 1_555
C6 C5 1_555 1_555
H7 C6 1_555 1_555
H8 C6 1_555 1_555
C7 C5 1_555 1_555
C8 H9 1_555 1_555
C9 C8 1_555 1_555
C10 C1 1_555 1_555
H10 C10 1_555 1_555
C11 C6 1_555 1_555
H11 C11 1_555 1_555
H12 C11 1_555 1_555
C12 C4 1_555 1_555
H13 C12 1_555 1_555
H14 C12 1_555 1_555
C13 N1 1_555 1_555
H15 C13 1_555 1_555
C14 N2 1_555 1_555
H16 C14 1_555 1_555
C15 N2 1_555 1_555
H17 C15 1_555 1_555
C16 N3 1_555 1_555
C17 C14 1_555 1_555
H18 C17 1_555 1_555
C18 C16 1_555 1_555
H19 C18 1_555 1_555
C19 N3 1_555 1_555
Cu1E O3 1_555 1_555
Cu1F O4 1_555 1_555
Cu1G N1 1_555 1_555
O3E Cu1 1_555 1_555
O4F Cu1 1_555 1_555
N1G Cu1 1_555 1_555
C2 C3 1_555 1_555
C3 C19 1_555 1_555
C8 C11 1_555 1_555
C8 C12 1_555 1_555
C10 C13 1_555 1_555
C15 C16 1_555 1_555
C17 C18 1_555 1_555

#END
