
#######################################################################
#
#                 Cambridge Crystallographic Data Centre
#                                CCDC 
#
#######################################################################
#
# If this CIF has been generated from an entry in the Cambridge 
# Structural Database, then it will include bibliographic, chemical, 
# crystal, experimental, refinement or atomic coordinate data resulting 
# from the CCDC's data processing and validation procedures.
#
#######################################################################

data_VIGZES
_symmetry_cell_setting           monoclinic
_symmetry_space_group_name_H-M   'P 2/c'
_symmetry_Int_Tables_number      13
_space_group_name_Hall           '-P 2yc'
loop_
_symmetry_equiv_pos_site_id
_symmetry_equiv_pos_as_xyz
1 x,y,z
2 -x,y,1/2-z
3 -x,-y,-z
4 x,-y,1/2+z
_cell_length_a                   12.805(1)
_cell_length_b                   4.0989(3)
_cell_length_c                   16.246(1)
_cell_angle_alpha                90
_cell_angle_beta                 96.729(1)
_cell_angle_gamma                90
_cell_volume                     846.82
loop_
_atom_site_label
_atom_site_type_symbol
_atom_site_fract_x
_atom_site_fract_y
_atom_site_fract_z
Pb1 Pb 0.0000 -0.03079(3) 0.2500
Cl1 Cl 0.09546(7) 0.44970(17) 0.35713(5)
N1 N 0.1610(2) 0.0415(6) 0.16209(19)
N2 N 0.4646(2) 0.4573(6) 0.02817(18)
C1 C 0.2508(2) 0.1975(9) 0.18867(17)
H1 H 0.2632 0.2554 0.2443
C2 C 0.3255(2) 0.2757(8) 0.13758(17)
H2 H 0.3867 0.3836 0.1588
C3 C 0.30900(19) 0.1926(7) 0.05403(16)
C4 C 0.2166(3) 0.0294(6) 0.0267(2)
H3 H 0.2023 -0.0320 -0.0286
C5 C 0.1457(3) -0.0414(7) 0.0824(2)
H4 H 0.0844 -0.1526 0.0631
C6 C 0.38635(19) 0.2830(7) -0.00415(16)
C7 C 0.3667(2) 0.1730(8) -0.09262(17)
H5 H 0.4227 0.2483 -0.1223
H6 H 0.3012 0.2613 -0.1177
H7 H 0.3638 -0.0609 -0.0946
N1B N 0.8390(2) 0.9585(6) -0.16209(19)
N2B N 0.5354(2) 0.5427(6) -0.02817(18)
C1B C 0.7492(2) 0.8025(9) -0.18867(17)
H1B H 0.7368 0.7446 -0.2443
C2B C 0.6745(2) 0.7243(8) -0.13758(17)
H2B H 0.6133 0.6164 -0.1588
C3B C 0.69100(19) 0.8074(7) -0.05403(16)
C4B C 0.7834(3) 0.9706(6) -0.0267(2)
H3B H 0.7977 1.0320 0.0286
C5B C 0.8543(3) 1.0414(7) -0.0824(2)
H4B H 0.9156 1.1526 -0.0631
C6B C 0.61365(19) 0.7170(7) 0.00415(16)
C7B C 0.6333(2) 0.8270(8) 0.09262(17)
H5B H 0.5773 0.7517 0.1223
H6B H 0.6988 0.7387 0.1177
H7B H 0.6362 1.0609 0.0946
Cl1A Cl -0.09546(7) 0.44970(17) 0.14287(5)
Pb1_2 Pb 0.0000 0.96921(3) 0.2500
Pb1B Pb 1.0000 1.03079(3) -0.2500
Cl1_2 Cl 0.09546(7) -0.55030(17) 0.35713(5)
Cl1A_2 Cl -0.09546(7) -0.55030(17) 0.14287(5)
N1A N -0.1610(2) 0.0415(6) 0.33791(19)
loop_
_geom_bond_atom_site_label_1
_geom_bond_atom_site_label_2
_geom_bond_site_symmetry_1
_geom_bond_site_symmetry_2
Pb1 Cl1 1_555 1_555
Cl1 Pb1_2 1_555 1_555
N1 Pb1 1_555 1_555
N2 C6 1_555 1_555
C1 N1 1_555 1_555
H1 C1 1_555 1_555
C2 C1 1_555 1_555
H2 C2 1_555 1_555
C3 C2 1_555 1_555
C4 C3 1_555 1_555
H3 C4 1_555 1_555
C5 N1 1_555 1_555
H4 C5 1_555 1_555
C6 C3 1_555 1_555
C7 C6 1_555 1_555
H5 C7 1_555 1_555
H6 C7 1_555 1_555
H7 C7 1_555 1_555
N1B C1B 1_555 1_555
N2B N2 1_555 1_555
C1B H1B 1_555 1_555
C2B C1B 1_555 1_555
H2B C2B 1_555 1_555
C3B C2B 1_555 1_555
C4B C3B 1_555 1_555
H3B C4B 1_555 1_555
C5B N1B 1_555 1_555
H4B C5B 1_555 1_555
C6B N2B 1_555 1_555
C7B C6B 1_555 1_555
H5B C7B 1_555 1_555
H6B C7B 1_555 1_555
H7B C7B 1_555 1_555
Cl1A Pb1 1_555 1_555
Pb1_2 Cl1A 1_555 1_555
Pb1B N1B 1_555 1_555
Cl1_2 Pb1 1_555 1_555
Cl1A_2 Pb1 1_555 1_555
N1A Pb1 1_555 1_555
C4 C5 1_555 1_555
C3B C6B 1_555 1_555
C4B C5B 1_555 1_555

#END
