
#######################################################################
#
#                 Cambridge Crystallographic Data Centre
#                                CCDC 
#
#######################################################################
#
# If this CIF has been generated from an entry in the Cambridge 
# Structural Database, then it will include bibliographic, chemical, 
# crystal, experimental, refinement or atomic coordinate data resulting 
# from the CCDC's data processing and validation procedures.
#
#######################################################################

data_VIGZAO
_symmetry_cell_setting           monoclinic
_symmetry_space_group_name_H-M   'P 21/c'
_symmetry_Int_Tables_number      14
_space_group_name_Hall           '-P 2ybc'
loop_
_symmetry_equiv_pos_site_id
_symmetry_equiv_pos_as_xyz
1 x,y,z
2 -x,1/2+y,1/2-z
3 -x,-y,-z
4 x,1/2-y,1/2+z
_cell_length_a                   14.0972(11)
_cell_length_b                   8.2977(8)
_cell_length_c                   15.9525(14)
_cell_angle_alpha                90
_cell_angle_beta                 104.203(7)
_cell_angle_gamma                90
_cell_volume                     1808.99
loop_
_atom_site_label
_atom_site_type_symbol
_atom_site_fract_x
_atom_site_fract_y
_atom_site_fract_z
Pb1 Pb 1.50034(4) -0.01619(6) 0.37061(4)
N1 N 0.9601(12) 0.529(2) 0.3771(14)
C1 C 0.8900(13) 0.463(3) 0.4021(14)
C2 C 0.7216(14) 0.515(2) 0.4240(14)
H1 H 0.7138 0.4065 0.4342
C3 C 1.1047(18) 0.483(3) 0.3475(16)
C4 C 1.2783(16) 0.435(3) 0.3449(17)
H2 H 1.2871 0.5451 0.3384
C5 C 0.8085(13) 0.576(3) 0.4098(13)
N2 N 0.6573(12) 0.780(2) 0.4173(14)
N3 N 1.0352(12) 0.422(2) 0.3723(14)
N4 N 1.3471(10) 0.1754(19) 0.3536(11)
C6 C 1.1899(14) 0.381(3) 0.3467(14)
O1 O 1.4746(11) -0.267(2) 0.2469(12)
C7 C 1.3560(15) 0.334(3) 0.3523(16)
H3 H 1.4177 0.3785 0.3567
C8 C 1.1796(16) 0.217(3) 0.3511(19)
H4 H 1.1209 0.1714 0.3559
C9 C 1.2601(14) 0.121(3) 0.3482(19)
H5 H 1.2503 0.0106 0.3418
C10 C 0.7458(17) 0.839(3) 0.414(2)
H6 H 0.7560 0.9496 0.4157
O2 O 1.3434(12) -0.175(2) 0.2676(12)
C11 C 1.112(2) 0.658(3) 0.322(2)
H7 H 1.0585 0.7178 0.3334
H8 H 1.1112 0.6646 0.2621
H9 H 1.1728 0.7026 0.3559
O3 O 1.3412(12) -0.365(2) 0.1786(13)
C12 C 0.8849(16) 0.291(3) 0.424(2)
H10 H 0.8177 0.2582 0.4117
H11 H 0.9152 0.2750 0.4837
H12 H 0.9185 0.2285 0.3892
Cl1 Cl 1.4216(4) -0.1910(7) 0.4873(4)
N5 N 1.3892(12) -0.2704(19) 0.2322(10)
C13 C 0.6471(13) 0.626(3) 0.4220(16)
H13 H 0.5860 0.5868 0.4241
C14 C 0.8210(13) 0.738(2) 0.4067(19)
H14 H 0.8797 0.7800 0.4000
Pb1_2 Pb 0.50034(4) 0.98381(6) 0.37061(4)
Pb1A Pb 1.49966(4) -0.51619(6) 0.12939(4)
Pb1B Pb 1.49966(4) 0.01619(6) 0.62939(4)
N2_2 N 1.6573(12) -0.220(2) 0.4173(14)
O1A O 1.5254(11) 0.233(2) 0.2531(12)
O3A O 1.6588(12) 0.135(2) 0.3214(13)
Cl1B Cl 1.5784(4) 0.1910(7) 0.5127(4)
loop_
_geom_bond_atom_site_label_1
_geom_bond_atom_site_label_2
_geom_bond_site_symmetry_1
_geom_bond_site_symmetry_2
Pb1 N4 1_555 1_555
N1 C1 1_555 1_555
C1 C5 1_555 1_555
C2 H1 1_555 1_555
C3 N3 1_555 1_555
C4 H2 1_555 1_555
C5 C2 1_555 1_555
N2 C10 1_555 1_555
N3 N1 1_555 1_555
N4 C7 1_555 1_555
C6 C3 1_555 1_555
O1 Pb1 1_555 1_555
C7 C4 1_555 1_555
H3 C7 1_555 1_555
C8 C6 1_555 1_555
H4 C8 1_555 1_555
C9 N4 1_555 1_555
H5 C9 1_555 1_555
C10 H6 1_555 1_555
O2 Pb1 1_555 1_555
C11 C3 1_555 1_555
H7 C11 1_555 1_555
H8 C11 1_555 1_555
H9 C11 1_555 1_555
O3 N5 1_555 1_555
C12 C1 1_555 1_555
H10 C12 1_555 1_555
H11 C12 1_555 1_555
H12 C12 1_555 1_555
Cl1 Pb1 1_555 1_555
N5 O1 1_555 1_555
C13 C2 1_555 1_555
H13 C13 1_555 1_555
C14 C5 1_555 1_555
H14 C14 1_555 1_555
Pb1_2 N2 1_555 1_555
Pb1A O1 1_555 1_555
Pb1B Cl1 1_555 1_555
N2_2 Pb1 1_555 1_555
O1A Pb1 1_555 1_555
O3A Pb1 1_555 1_555
Cl1B Pb1 1_555 1_555
C4 C6 1_555 1_555
N2 C13 1_555 1_555
C8 C9 1_555 1_555
C10 C14 1_555 1_555
O2 N5 1_555 1_555
O3 Pb1A 1_555 1_555
Pb1B Cl1B 1_555 1_555

#END
