
#######################################################################
#
#                 Cambridge Crystallographic Data Centre
#                                CCDC 
#
#######################################################################
#
# If this CIF has been generated from an entry in the Cambridge 
# Structural Database, then it will include bibliographic, chemical, 
# crystal, experimental, refinement or atomic coordinate data resulting 
# from the CCDC's data processing and validation procedures.
#
#######################################################################

data_VIHGEA
_symmetry_cell_setting           orthorhombic
_symmetry_space_group_name_H-M   'C m c a'
_symmetry_Int_Tables_number      64
_space_group_name_Hall           '-C 2ac 2'
loop_
_symmetry_equiv_pos_site_id
_symmetry_equiv_pos_as_xyz
1 x,y,z
2 -x,1/2-y,1/2+z
3 -x,1/2+y,1/2-z
4 x,-y,-z
5 1/2+x,1/2+y,z
6 1/2-x,-y,1/2+z
7 1/2-x,y,1/2-z
8 1/2+x,1/2-y,-z
9 -x,-y,-z
10 x,1/2+y,1/2-z
11 x,1/2-y,1/2+z
12 -x,y,z
13 1/2-x,1/2-y,-z
14 1/2+x,y,1/2-z
15 1/2+x,-y,1/2+z
16 1/2-x,1/2+y,z
_cell_length_a                   42.216(2)
_cell_length_b                   17.4513(7)
_cell_length_c                   20.0960(9)
_cell_angle_alpha                90
_cell_angle_beta                 90
_cell_angle_gamma                90
_cell_volume                     14805.2
loop_
_atom_site_label
_atom_site_type_symbol
_atom_site_fract_x
_atom_site_fract_y
_atom_site_fract_z
Cu1 Cu 0.133301(17) -0.77370(4) 1.07750(4)
P1 P 0.15612(4) -0.78910(8) 0.98024(8)
C1 C 0.14115(13) -0.4809(3) 1.2621(3)
C2 C 0.13113(15) -0.3490(3) 1.2886(3)
H1 H 0.1235 -0.3014 1.2753
N1 N 0.13608(12) -0.6764(3) 1.1348(2)
N2 N 0.19340(12) -0.8984(3) 0.9231(3)
C3 C 0.13971(13) -0.5474(3) 1.2167(3)
C4 C 0.13024(16) -0.4087(3) 1.2438(3)
H2 H 0.1223 -0.4007 1.2011
C5 C 0.19218(13) -0.8475(3) 0.9734(3)
C6 C 0.01771(15) -0.7928(4) 1.0617(3)
C7 C 0.15399(14) -0.4242(3) 1.3658(3)
H3 H 0.1630 -0.4304 1.4077
C8 C 0.12827(14) -0.8373(4) 0.9239(3)
C9 C 0.21811(14) -0.8348(3) 1.0174(3)
C10 C 0.11384(16) -0.6216(4) 1.1326(3)
H4 H 0.0969 -0.6274 1.1033
C11 C 0.15962(14) -0.6665(3) 1.1770(3)
H5 H 0.1753 -0.7040 1.1788
C12 C 0.16935(15) -0.7041(4) 0.9341(3)
N3 N 0.14259(12) -0.3563(3) 1.3506(3)
C13 C 0.11502(15) -0.5571(3) 1.1721(3)
H6 H 0.0993 -0.5201 1.1688
C14 C 0.15347(15) -0.4857(3) 1.3246(3)
H7 H 0.1617 -0.5322 1.3394
C15 C 0.18956(17) -0.7104(4) 0.8794(4)
H8 H 0.1965 -0.7583 0.8653
N4 N 0.08407(13) -0.7869(3) 1.0683(3)
C16 C 0.22020(17) -0.9362(4) 0.9129(4)
H9 H 0.2208 -0.9719 0.8786
C17 C 0.06792(15) -0.7537(4) 1.0198(4)
H10 H 0.0790 -0.7282 0.9864
C18 C 0.21650(16) -0.7806(4) 1.0745(4)
H11 H 0.2364 -0.7807 1.0977
H12 H 0.1999 -0.7962 1.1042
H13 H 0.2122 -0.7299 1.0583
C19 C 0.1724(3) -0.5668(4) 0.9206(5)
H14 H 0.1675 -0.5177 0.9351
C20 C 0.16255(15) -0.6038(3) 1.2189(3)
H15 H 0.1796 -0.5999 1.2480
C21 C 0.11878(15) -0.8073(4) 0.8642(3)
H16 H 0.1286 -0.7635 0.8477
C22 C 0.08069(18) -0.9084(5) 0.8507(5)
H17 H 0.0650 -0.9322 0.8257
C23 C 0.11376(15) -0.9032(3) 0.9478(4)
H18 H 0.1198 -0.9232 0.9888
C24 C 0.24708(16) -0.9257(4) 0.9502(4)
H19 H 0.2657 -0.9517 0.9402
C25 C 0.09044(18) -0.9393(5) 0.9115(4)
H20 H 0.0812 -0.9841 0.9273
C26 C 0.24555(15) -0.8749(4) 1.0037(4)
H21 H 0.2633 -0.8679 1.0305
C27 C 0.1600(2) -0.6322(4) 0.9561(4)
H22 H 0.1463 -0.6264 0.9920
C28 C 0.09481(19) -0.8415(5) 0.8286(4)
H23 H 0.0880 -0.8193 0.7890
C29 C 0.1992(2) -0.6449(4) 0.8464(4)
H24 H 0.2118 -0.6496 0.8086
C30 C 0.03518(16) -0.7556(5) 1.0170(4)
H25 H 0.0250 -0.7299 0.9825
C31 C 0.1911(2) -0.5759(5) 0.8669(5)
H26 H 0.1983 -0.5330 0.8441
C32 C 0.0344(2) -0.8288(6) 1.1104(5)
H27 H 0.0236 -0.8554 1.1435
C33 C 0.06685(19) -0.8267(6) 1.1119(5)
H28 H 0.0773 -0.8542 1.1449
C6K C -0.01771(15) -0.7928(4) 1.0617(3)
N4K N -0.08407(13) -0.7869(3) 1.0683(3)
C17K C -0.06792(15) -0.7537(4) 1.0198(4)
H10K H -0.0790 -0.7282 0.9864
C30K C -0.03518(16) -0.7556(5) 1.0170(4)
H25K H -0.0250 -0.7299 0.9825
C32K C -0.0344(2) -0.8288(6) 1.1104(5)
H27K H -0.0236 -0.8554 1.1435
C33K C -0.06685(19) -0.8267(6) 1.1119(5)
H28K H -0.0773 -0.8542 1.1449
Cu1K Cu -0.133301(17) -0.77370(4) 1.07750(4)
P1K P -0.15612(4) -0.78910(8) 0.98024(8)
C1K C -0.14115(13) -0.4809(3) 1.2621(3)
C2K C -0.13113(15) -0.3490(3) 1.2886(3)
H1K H -0.1235 -0.3014 1.2753
N1K N -0.13608(12) -0.6764(3) 1.1348(2)
N2K N -0.19340(12) -0.8984(3) 0.9231(3)
C3K C -0.13971(13) -0.5474(3) 1.2167(3)
C4K C -0.13024(16) -0.4087(3) 1.2438(3)
H2K H -0.1223 -0.4007 1.2011
C5K C -0.19218(13) -0.8475(3) 0.9734(3)
C7K C -0.15399(14) -0.4242(3) 1.3658(3)
H3K H -0.1630 -0.4304 1.4077
C8K C -0.12827(14) -0.8373(4) 0.9239(3)
C9K C -0.21811(14) -0.8348(3) 1.0174(3)
C10K C -0.11384(16) -0.6216(4) 1.1326(3)
H4K H -0.0969 -0.6274 1.1033
C11K C -0.15962(14) -0.6665(3) 1.1770(3)
H5K H -0.1753 -0.7040 1.1788
C12K C -0.16935(15) -0.7041(4) 0.9341(3)
N3K N -0.14259(12) -0.3563(3) 1.3506(3)
C13K C -0.11502(15) -0.5571(3) 1.1721(3)
H6K H -0.0993 -0.5201 1.1688
C14K C -0.15347(15) -0.4857(3) 1.3246(3)
H7K H -0.1617 -0.5322 1.3394
C15K C -0.18956(17) -0.7104(4) 0.8794(4)
H8K H -0.1965 -0.7583 0.8653
C16K C -0.22020(17) -0.9362(4) 0.9129(4)
H9K H -0.2208 -0.9719 0.8786
C18K C -0.21650(16) -0.7806(4) 1.0745(4)
H11K H -0.2364 -0.7807 1.0977
H12K H -0.1999 -0.7962 1.1042
H13K H -0.2122 -0.7299 1.0583
C19K C -0.1724(3) -0.5668(4) 0.9206(5)
H14K H -0.1675 -0.5177 0.9351
C20K C -0.16255(15) -0.6038(3) 1.2189(3)
H15K H -0.1796 -0.5999 1.2480
C21K C -0.11878(15) -0.8073(4) 0.8642(3)
H16K H -0.1286 -0.7635 0.8477
C22K C -0.08069(18) -0.9084(5) 0.8507(5)
H17K H -0.0650 -0.9322 0.8257
C23K C -0.11376(15) -0.9032(3) 0.9478(4)
H18K H -0.1198 -0.9232 0.9888
C24K C -0.24708(16) -0.9257(4) 0.9502(4)
H19K H -0.2657 -0.9517 0.9402
C25K C -0.09044(18) -0.9393(5) 0.9115(4)
H20K H -0.0812 -0.9841 0.9273
C26K C -0.24555(15) -0.8749(4) 1.0037(4)
H21K H -0.2633 -0.8679 1.0305
C27K C -0.1600(2) -0.6322(4) 0.9561(4)
H22K H -0.1463 -0.6264 0.9920
C28K C -0.09481(19) -0.8415(5) 0.8286(4)
H23K H -0.0880 -0.8193 0.7890
C29K C -0.1992(2) -0.6449(4) 0.8464(4)
H24K H -0.2118 -0.6496 0.8086
C31K C -0.1911(2) -0.5759(5) 0.8669(5)
H26K H -0.1983 -0.5330 0.8441
Cu1B Cu -0.133301(17) -0.27370(4) 1.42250(4)
Cu1I Cu 0.133301(17) -0.27370(4) 1.42250(4)
N3B N -0.14259(12) -0.8563(3) 1.1494(3)
N3I N 0.14259(12) -0.8563(3) 1.1494(3)
B1 B 0.2500 -0.5241(19) 0.7500
F1 F 0.2713(6) -0.5773(13) 0.7995(12)
F2 F 0.2286(5) -0.4540(11) 0.7796(11)
F1F F 0.2287(6) -0.5773(13) 0.7005(12)
F2F F 0.2714(5) -0.4540(11) 0.7204(11)
loop_
_geom_bond_atom_site_label_1
_geom_bond_atom_site_label_2
_geom_bond_site_symmetry_1
_geom_bond_site_symmetry_2
Cu1 P1 1_555 1_555
P1 C5 1_555 1_555
C1 C3 1_555 1_555
C2 H1 1_555 1_555
N1 Cu1 1_555 1_555
N2 C5 1_555 1_555
C3 C13 1_555 1_555
C4 C1 1_555 1_555
H2 C4 1_555 1_555
C5 C9 1_555 1_555
C6 C30 1_555 1_555
C7 H3 1_555 1_555
C8 P1 1_555 1_555
C9 C18 1_555 1_555
C10 N1 1_555 1_555
H4 C10 1_555 1_555
C11 N1 1_555 1_555
H5 C11 1_555 1_555
C12 P1 1_555 1_555
N3 C2 1_555 1_555
C13 C10 1_555 1_555
H6 C13 1_555 1_555
C14 C1 1_555 1_555
H7 C14 1_555 1_555
C15 C12 1_555 1_555
H8 C15 1_555 1_555
N4 Cu1 1_555 1_555
C16 N2 1_555 1_555
H9 C16 1_555 1_555
C17 N4 1_555 1_555
H10 C17 1_555 1_555
C18 H11 1_555 1_555
H12 C18 1_555 1_555
H13 C18 1_555 1_555
C19 H14 1_555 1_555
C20 C3 1_555 1_555
H15 C20 1_555 1_555
C21 C8 1_555 1_555
H16 C21 1_555 1_555
C22 H17 1_555 1_555
C23 C8 1_555 1_555
H18 C23 1_555 1_555
C24 C16 1_555 1_555
H19 C24 1_555 1_555
C25 C22 1_555 1_555
H20 C25 1_555 1_555
C26 C9 1_555 1_555
H21 C26 1_555 1_555
C27 C12 1_555 1_555
H22 C27 1_555 1_555
C28 C21 1_555 1_555
H23 C28 1_555 1_555
C29 C15 1_555 1_555
H24 C29 1_555 1_555
C30 C17 1_555 1_555
H25 C30 1_555 1_555
C31 C19 1_555 1_555
H26 C31 1_555 1_555
C32 C6 1_555 1_555
H27 C32 1_555 1_555
C33 N4 1_555 1_555
H28 C33 1_555 1_555
B1 F1 1_555 1_555
F2 B1 1_555 1_555
C6K C6 1_555 1_555
N4K C17K 1_555 1_555
C17K H10K 1_555 1_555
C30K C6K 1_555 1_555
H25K C30K 1_555 1_555
C32K C6K 1_555 1_555
H27K C32K 1_555 1_555
C33K N4K 1_555 1_555
H28K C33K 1_555 1_555
Cu1K N4K 1_555 1_555
P1K Cu1K 1_555 1_555
C1K C3K 1_555 1_555
C2K H1K 1_555 1_555
N1K Cu1K 1_555 1_555
N2K C5K 1_555 1_555
C3K C13K 1_555 1_555
C4K C1K 1_555 1_555
H2K C4K 1_555 1_555
C5K P1K 1_555 1_555
C7K H3K 1_555 1_555
C8K P1K 1_555 1_555
C9K C5K 1_555 1_555
C10K N1K 1_555 1_555
H4K C10K 1_555 1_555
C11K N1K 1_555 1_555
H5K C11K 1_555 1_555
C12K P1K 1_555 1_555
N3K C2K 1_555 1_555
C13K C10K 1_555 1_555
H6K C13K 1_555 1_555
C14K C1K 1_555 1_555
H7K C14K 1_555 1_555
C15K C12K 1_555 1_555
H8K C15K 1_555 1_555
C16K N2K 1_555 1_555
H9K C16K 1_555 1_555
C18K C9K 1_555 1_555
H11K C18K 1_555 1_555
H12K C18K 1_555 1_555
H13K C18K 1_555 1_555
C19K H14K 1_555 1_555
C20K C3K 1_555 1_555
H15K C20K 1_555 1_555
C21K C8K 1_555 1_555
H16K C21K 1_555 1_555
C22K H17K 1_555 1_555
C23K C8K 1_555 1_555
H18K C23K 1_555 1_555
C24K C16K 1_555 1_555
H19K C24K 1_555 1_555
C25K C22K 1_555 1_555
H20K C25K 1_555 1_555
C26K C9K 1_555 1_555
H21K C26K 1_555 1_555
C27K C12K 1_555 1_555
H22K C27K 1_555 1_555
C28K C21K 1_555 1_555
H23K C28K 1_555 1_555
C29K C15K 1_555 1_555
H24K C29K 1_555 1_555
C31K C19K 1_555 1_555
H26K C31K 1_555 1_555
Cu1B N3K 1_555 1_555
Cu1I N3 1_555 1_555
N3B Cu1K 1_555 1_555
N3I Cu1 1_555 1_555
F1F B1 1_555 1_555
F2F B1 1_555 1_555
C2 C4 1_555 1_555
C7 N3 1_555 1_555
C7 C14 1_555 1_555
C11 C20 1_555 1_555
C19 C27 1_555 1_555
C22 C28 1_555 1_555
C23 C25 1_555 1_555
C24 C26 1_555 1_555
C29 C31 1_555 1_555
C32 C33 1_555 1_555
C17K C30K 1_555 1_555
C32K C33K 1_555 1_555
C2K C4K 1_555 1_555
C7K N3K 1_555 1_555
C7K C14K 1_555 1_555
C11K C20K 1_555 1_555
C19K C27K 1_555 1_555
C22K C28K 1_555 1_555
C23K C25K 1_555 1_555
C24K C26K 1_555 1_555
C29K C31K 1_555 1_555

#END
