
#######################################################################
#
#                 Cambridge Crystallographic Data Centre
#                                CCDC 
#
#######################################################################
#
# If this CIF has been generated from an entry in the Cambridge 
# Structural Database, then it will include bibliographic, chemical, 
# crystal, experimental, refinement or atomic coordinate data resulting 
# from the CCDC's data processing and validation procedures.
#
#######################################################################

data_VIHHEA
_symmetry_cell_setting           monoclinic
_symmetry_space_group_name_H-M   'C 2/c'
_symmetry_Int_Tables_number      15
_space_group_name_Hall           '-C 2yn'
loop_
_symmetry_equiv_pos_site_id
_symmetry_equiv_pos_as_xyz
1 x,y,z
2 1/2+x,1/2+y,z
3 -x,y,1/2-z
4 1/2-x,1/2+y,1/2-z
5 -x,-y,-z
6 1/2-x,1/2-y,-z
7 x,-y,1/2+z
8 1/2+x,1/2-y,1/2+z
_cell_length_a                   11.756(5)
_cell_length_b                   9.645(3)
_cell_length_c                   11.822(7)
_cell_angle_alpha                90
_cell_angle_beta                 107.10(4)
_cell_angle_gamma                90
_cell_volume                     1281.2
loop_
_atom_site_label
_atom_site_type_symbol
_atom_site_fract_x
_atom_site_fract_y
_atom_site_fract_z
V1 V 0.72426(4) 1.00117(6) 0.18255(4)
C1 C 0.6466(3) 0.7131(3) 0.1441(2)
C2 C 0.5737(3) 0.5998(3) 0.0705(2)
C3 C 0.6232(2) 0.4821(3) 0.0333(2)
C4 C 0.7552(3) 0.4560(3) 0.0639(2)
C5 C 0.4516(3) 0.6153(3) 0.0368(2)
O1 O 0.6253(2) 0.8343(2) 0.10337(17)
O2 O 0.8506(2) 0.9310(2) 0.20610(18)
O3 O 0.5437(3) 1.1048(4) 0.1425(3)
O4 O 0.7213(2) 0.6871(2) 0.24225(17)
O5 O 0.8191(2) 0.4608(2) 0.16919(16)
O6 O 0.7988(2) 0.4253(2) -0.01794(16)
H1 H 0.416(3) 0.683(4) 0.061(3)
H2 H 0.505(6) 1.125(7) 0.093(6)
H3 H 0.507(10) 1.098(13) 0.164(9)
V1D V 0.27574(4) -0.00117(6) -0.18255(4)
V1C V 0.77574(4) 0.50117(6) 0.31745(4)
V1E V 0.77574(4) 0.49883(6) -0.18255(4)
V1G V 0.22426(4) 0.49883(6) -0.31745(4)
V1A V 0.22426(4) 0.50117(6) 0.18255(4)
C1D C 0.3534(3) 0.2869(3) -0.1441(2)
C2D C 0.4263(3) 0.4002(3) -0.0705(2)
C3D C 0.3768(2) 0.5179(3) -0.0333(2)
C4D C 0.2448(3) 0.5440(3) -0.0639(2)
C5D C 0.5484(3) 0.3847(3) -0.0368(2)
O1D O 0.3747(2) 0.1657(2) -0.10337(17)
O2D O 0.1494(2) 0.0690(2) -0.20610(18)
O3D O 0.4563(3) -0.1048(4) -0.1425(3)
O4D O 0.2787(2) 0.3129(2) -0.24225(17)
O4C O 0.7787(2) 1.1871(2) 0.25775(17)
O4G O 0.2213(2) -0.1871(2) -0.25775(17)
O5D O 0.1809(2) 0.5392(2) -0.16919(16)
O5C O 0.6809(2) 0.9608(2) 0.33081(16)
O5G O 0.3191(2) 0.0392(2) -0.33081(16)
O6D O 0.2012(2) 0.5747(2) 0.01794(16)
O6E O 0.7012(2) 1.0747(2) 0.01794(16)
O6A O 0.2988(2) -0.0747(2) -0.01794(16)
H1D H 0.584(3) 0.317(4) -0.061(3)
H2D H 0.495(6) -0.125(7) -0.093(6)
H3D H 0.493(10) -0.098(13) -0.164(9)
loop_
_geom_bond_atom_site_label_1
_geom_bond_atom_site_label_2
_geom_bond_site_symmetry_1
_geom_bond_site_symmetry_2
V1 O1 1_555 1_555
C1 C2 1_555 1_555
C2 C3 1_555 1_555
C3 C4 1_555 1_555
C4 O5 1_555 1_555
C5 C2 1_555 1_555
O1 C1 1_555 1_555
O2 V1 1_555 1_555
O3 V1 1_555 1_555
O4 C1 1_555 1_555
O5 V1C 1_555 1_555
O6 C4 1_555 1_555
H1 C5 1_555 1_555
H2 O3 1_555 1_555
H3 O3 1_555 1_555
V1D O1D 1_555 1_555
V1C O4 1_555 1_555
V1E O6 1_555 1_555
V1G O4D 1_555 1_555
V1A O6D 1_555 1_555
C1D C2D 1_555 1_555
C2D C3D 1_555 1_555
C3D C5 1_555 1_555
C4D C3D 1_555 1_555
C5D C3 1_555 1_555
O1D C1D 1_555 1_555
O2D V1D 1_555 1_555
O3D V1D 1_555 1_555
O4D C1D 1_555 1_555
O4C V1 1_555 1_555
O4G V1D 1_555 1_555
O5D V1G 1_555 1_555
O5C V1 1_555 1_555
O5G V1D 1_555 1_555
O6D C4D 1_555 1_555
O6E V1 1_555 1_555
O6A V1D 1_555 1_555
H1D C5D 1_555 1_555
H2D O3D 1_555 1_555
H3D O3D 1_555 1_555
C2D C5D 1_555 1_555
C4D O5D 1_555 1_555

#END
