
#######################################################################
#
#                 Cambridge Crystallographic Data Centre
#                                CCDC 
#
#######################################################################
#
# If this CIF has been generated from an entry in the Cambridge 
# Structural Database, then it will include bibliographic, chemical, 
# crystal, experimental, refinement or atomic coordinate data resulting 
# from the CCDC's data processing and validation procedures.
#
#######################################################################

data_VIHHIE
_symmetry_cell_setting           monoclinic
_symmetry_space_group_name_H-M   'P 21/c'
_symmetry_Int_Tables_number      14
_space_group_name_Hall           '-P 2ybc'
loop_
_symmetry_equiv_pos_site_id
_symmetry_equiv_pos_as_xyz
1 x,y,z
2 -x,1/2+y,1/2-z
3 -x,-y,-z
4 x,1/2-y,1/2+z
_cell_length_a                   20.2502(12)
_cell_length_b                   20.1923(12)
_cell_length_c                   18.7067(13)
_cell_angle_alpha                90
_cell_angle_beta                 103.772(5)
_cell_angle_gamma                90
_cell_volume                     7429.23
loop_
_atom_site_label
_atom_site_type_symbol
_atom_site_fract_x
_atom_site_fract_y
_atom_site_fract_z
Cu1 Cu -0.13596(6) 0.12379(6) 0.23756(7)
Cu2 Cu 0.03408(5) 0.13106(5) 0.25449(6)
Cu3 Cu 0.20692(5) 0.12414(6) 0.26798(6)
Cu4 Cu 0.36727(6) 0.10315(5) 0.25809(6)
Cu5 Cu -0.47029(6) 0.09302(6) 0.24398(7)
Cu6 Cu -0.30250(5) 0.11108(5) 0.23495(6)
Br1 Br -0.06017(5) 0.19468(4) 0.18514(5)
Br2 Br -0.03785(5) 0.05805(4) 0.30446(5)
Br3 Br 0.10548(5) 0.15675(5) 0.17259(5)
Br4 Br 0.13153(4) 0.11407(5) 0.35473(5)
Br5 Br 0.27304(5) 0.02845(4) 0.23927(5)
Br6 Br 0.30970(5) 0.19324(4) 0.30191(5)
Br7 Br -0.57032(5) 0.16594(4) 0.18805(5)
Br8 Br -0.54275(5) 0.02523(5) 0.30374(5)
Br9 Br -0.40580(5) 0.08301(5) 0.14693(5)
Br10 Br -0.35924(5) 0.11573(5) 0.33428(5)
Br11 Br -0.21531(5) 0.18820(5) 0.29121(5)
Br12 Br -0.23040(5) 0.05426(5) 0.16972(5)
Cu4_2 Cu -0.63273(6) 0.10315(5) 0.25809(6)
Br7_2 Br 0.42968(5) 0.16594(4) 0.18805(5)
Br8_2 Br 0.45725(5) 0.02523(5) 0.30374(5)
Li1 Li 0.5987(8) 0.3302(7) 0.4056(8)
O1 O 0.6079(3) 0.4215(3) 0.4319(3)
C1 C 0.6734(5) 0.4531(5) 0.4617(6)
H1 H 0.7036 0.4473 0.4276
H2 H 0.6957 0.4333 0.5098
C2 C 0.6598(5) 0.5254(5) 0.4707(6)
H3 H 0.6721 0.5519 0.4312
H4 H 0.6860 0.5418 0.5190
C3 C 0.5839(5) 0.5293(4) 0.4655(5)
H5 H 0.5736 0.5225 0.5141
H6 H 0.5648 0.5722 0.4448
C4 C 0.5579(4) 0.4729(5) 0.4138(5)
H7 H 0.5135 0.4572 0.4206
H8 H 0.5523 0.4870 0.3620
O2 O 0.6035(3) 0.3232(3) 0.3061(3)
C5 C 0.6462(6) 0.3637(6) 0.2738(6)
H9 H 0.6947 0.3556 0.2976
H10 H 0.6361 0.4112 0.2792
C6 C 0.6309(8) 0.3444(7) 0.1930(6)
H11 H 0.6132 0.3828 0.1613
H12 H 0.6724 0.3279 0.1796
C7 C 0.5836(12) 0.2961(12) 0.1848(8)
H13 H 0.6014 0.2558 0.1658
H14 H 0.5426 0.3104 0.1476
C8 C 0.5649(6) 0.2803(5) 0.2497(5)
H15 H 0.5754 0.2333 0.2628
H16 H 0.5156 0.2875 0.2440
O3 O 0.5238(3) 0.2832(3) 0.4289(4)
C9 C 0.4854(5) 0.3000(5) 0.4818(6)
H17 H 0.4550 0.3380 0.4639
H18 H 0.5164 0.3126 0.5292
C10 C 0.4449(6) 0.2414(5) 0.4917(6)
H19 H 0.3985 0.2437 0.4596
H20 H 0.4420 0.2369 0.5436
C11 C 0.4852(6) 0.1844(5) 0.4693(6)
H21 H 0.5230 0.1704 0.5106
H22 H 0.4556 0.1459 0.4516
C12 C 0.5111(6) 0.2155(4) 0.4081(5)
H23 H 0.5534 0.1935 0.4030
H24 H 0.4767 0.2120 0.3608
O4 O 0.6789(3) 0.2908(3) 0.4694(3)
C13 C 0.7427(6) 0.2738(7) 0.4515(7)
H25 H 0.7696 0.3141 0.4480
H26 H 0.7346 0.2496 0.4042
C14 C 0.7783(8) 0.2314(8) 0.5126(11)
H27 H 0.7686 0.1841 0.5009
H28 H 0.8280 0.2386 0.5231
C15 C 0.7516(9) 0.2515(15) 0.5745(10)
H29 H 0.7786 0.2886 0.6012
H30 H 0.7534 0.2141 0.6091
C16 C 0.6808(7) 0.2722(7) 0.5443(6)
H31 H 0.6489 0.2354 0.5458
H32 H 0.6688 0.3103 0.5721
Li2 Li 0.0080(8) 0.3911(8) 0.3840(8)
O5 O 0.0048(3) 0.3099(3) 0.4358(3)
C17 C -0.0252(6) 0.2961(4) 0.4969(5)
H33 H -0.0746 0.3051 0.4830
H34 H -0.0043 0.3244 0.5395
C18 C -0.0125(6) 0.2250(4) 0.5162(6)
H35 H -0.0486 0.2063 0.5377
H36 H 0.0322 0.2185 0.5509
C19 C -0.0140(6) 0.1949(5) 0.4421(6)
H37 H 0.0122 0.1531 0.4475
H38 H -0.0612 0.1860 0.4145
C20 C 0.0182(7) 0.2461(5) 0.4044(6)
H39 H 0.0677 0.2382 0.4132
H40 H -0.0018 0.2453 0.3507
O6 O -0.0812(3) 0.4082(3) 0.3272(4)
C21 C -0.1378(7) 0.3634(7) 0.3113(7)
H41 H -0.1733 0.3779 0.3362
H42 H -0.1230 0.3181 0.3285
C22 C -0.1646(6) 0.3643(5) 0.2295(6)
H43 H -0.2149 0.3659 0.2167
H44 H -0.1499 0.3242 0.2071
C23 C -0.1350(6) 0.4269(5) 0.2023(5)
H45 H -0.1044 0.4155 0.1700
H46 H -0.1716 0.4563 0.1750
C24 C -0.0958(5) 0.4596(5) 0.2735(6)
H47 H -0.0531 0.4797 0.2665
H48 H -0.1235 0.4946 0.2891
O7 O 0.0677(3) 0.3766(3) 0.3177(4)
C25 C 0.0519(5) 0.3625(4) 0.2379(5)
H49 H 0.0306 0.4015 0.2094
H50 H 0.0204 0.3244 0.2259
C26 C 0.1193(6) 0.3466(5) 0.2203(6)
H51 H 0.1404 0.3867 0.2049
H52 H 0.1141 0.3125 0.1813
C27 C 0.1609(6) 0.3202(5) 0.2949(6)
H53 H 0.1493 0.2735 0.3025
H54 H 0.2104 0.3236 0.2984
C28 C 0.1397(5) 0.3646(5) 0.3481(6)
H55 H 0.1472 0.3433 0.3970
H56 H 0.1656 0.4067 0.3532
O8 O 0.0499(3) 0.4635(3) 0.4432(3)
C29 C 0.0718(5) 0.5240(4) 0.4159(5)
H57 H 0.0338 0.5559 0.4030
H58 H 0.0893 0.5154 0.3716
C30 C 0.1288(5) 0.5511(4) 0.4790(5)
H59 H 0.1654 0.5720 0.4599
H60 H 0.1108 0.5838 0.5090
C31 C 0.1538(5) 0.4897(5) 0.5228(6)
H61 H 0.1859 0.4644 0.5006
H62 H 0.1763 0.5006 0.5745
C32 C 0.0899(5) 0.4527(5) 0.5179(5)
H63 H 0.0993 0.4049 0.5271
H64 H 0.0657 0.4696 0.5542
Li3 Li 0.2650(9) 0.3927(9) 0.0817(8)
O9 O 0.2417(3) 0.3048(3) 0.0482(3)
C33 C 0.2567(5) 0.2728(4) -0.0148(5)
H65 H 0.2944 0.2956 -0.0300
H66 H 0.2162 0.2727 -0.0567
C34 C 0.2766(5) 0.2036(4) 0.0100(5)
H67 H 0.2676 0.1725 -0.0322
H68 H 0.3253 0.2011 0.0356
C35 C 0.2325(6) 0.1887(5) 0.0611(6)
H69 H 0.1890 0.1686 0.0343
H70 H 0.2556 0.1579 0.1004
C36 C 0.2208(6) 0.2536(5) 0.0923(6)
H71 H 0.1720 0.2588 0.0916
H72 H 0.2474 0.2569 0.1439
O10 O 0.3266(3) 0.4319(3) 0.0275(3)
C37 C 0.3919(5) 0.4604(5) 0.0589(5)
H73 H 0.4278 0.4260 0.0664
H74 H 0.3924 0.4812 0.1069
C38 C 0.4036(6) 0.5111(6) 0.0054(6)
H75 H 0.4343 0.4939 -0.0243
H76 H 0.4236 0.5519 0.0310
C39 C 0.3334(6) 0.5244(5) -0.0425(6)
H77 H 0.3088 0.5577 -0.0199
H78 H 0.3355 0.5396 -0.0922
C40 C 0.3016(5) 0.4588(5) -0.0451(5)
H79 H 0.2514 0.4626 -0.0570
H80 H 0.3148 0.4304 -0.0825
O11 O 0.1885(3) 0.4487(3) 0.0789(3)
C41 C 0.1976(5) 0.5182(5) 0.0966(6)
H81 H 0.2457 0.5313 0.1031
H82 H 0.1831 0.5285 0.1423
C42 C 0.1532(6) 0.5533(6) 0.0319(7)
H83 H 0.1384 0.5968 0.0467
H84 H 0.1777 0.5601 -0.0075
C43 C 0.0947(6) 0.5086(6) 0.0069(7)
H85 H 0.0836 0.5040 -0.0473
H86 H 0.0543 0.5259 0.0218
C44 C 0.1162(5) 0.4431(6) 0.0434(5)
H87 H 0.0898 0.4332 0.0804
H88 H 0.1085 0.4071 0.0064
O12 O 0.3168(3) 0.3850(3) 0.1828(3)
C45 C 0.3073(6) 0.4258(5) 0.2414(5)
H89 H 0.2594 0.4239 0.2453
H90 H 0.3189 0.4723 0.2332
C46 C 0.3548(6) 0.3983(5) 0.3111(6)
H91 H 0.3690 0.4331 0.3489
H92 H 0.3335 0.3613 0.3322
C47 C 0.4138(6) 0.3747(7) 0.2812(6)
H93 H 0.4439 0.4118 0.2753
H94 H 0.4408 0.3405 0.3134
C48 C 0.3777(6) 0.3462(6) 0.2079(6)
H95 H 0.4068 0.3492 0.1724
H96 H 0.3661 0.2992 0.2133
loop_
_geom_bond_atom_site_label_1
_geom_bond_atom_site_label_2
_geom_bond_site_symmetry_1
_geom_bond_site_symmetry_2
Cu1 Br1 1_555 1_555
Cu2 Br1 1_555 1_555
Cu3 Br3 1_555 1_555
Cu4 Br5 1_555 1_555
Cu5 Br7 1_555 1_555
Cu6 Br9 1_555 1_555
Br2 Cu1 1_555 1_555
Br3 Cu2 1_555 1_555
Br4 Cu2 1_555 1_555
Br5 Cu3 1_555 1_555
Br6 Cu3 1_555 1_555
Br7 Cu4_2 1_555 1_555
Br8 Cu5 1_555 1_555
Br9 Cu5 1_555 1_555
Br10 Cu5 1_555 1_555
Br11 Cu1 1_555 1_555
Br12 Cu1 1_555 1_555
Li1 O1 1_555 1_555
O1 C1 1_555 1_555
C1 H1 1_555 1_555
H2 C1 1_555 1_555
C2 C1 1_555 1_555
H3 C2 1_555 1_555
H4 C2 1_555 1_555
C3 C2 1_555 1_555
H5 C3 1_555 1_555
H6 C3 1_555 1_555
C4 O1 1_555 1_555
H7 C4 1_555 1_555
H8 C4 1_555 1_555
O2 Li1 1_555 1_555
C5 O2 1_555 1_555
H9 C5 1_555 1_555
H10 C5 1_555 1_555
C6 C5 1_555 1_555
H11 C6 1_555 1_555
H12 C6 1_555 1_555
C7 C6 1_555 1_555
H13 C7 1_555 1_555
H14 C7 1_555 1_555
C8 O2 1_555 1_555
H15 C8 1_555 1_555
H16 C8 1_555 1_555
O3 Li1 1_555 1_555
C9 O3 1_555 1_555
H17 C9 1_555 1_555
H18 C9 1_555 1_555
C10 C9 1_555 1_555
H19 C10 1_555 1_555
H20 C10 1_555 1_555
C11 C10 1_555 1_555
H21 C11 1_555 1_555
H22 C11 1_555 1_555
C12 O3 1_555 1_555
H23 C12 1_555 1_555
H24 C12 1_555 1_555
O4 Li1 1_555 1_555
C13 O4 1_555 1_555
H25 C13 1_555 1_555
H26 C13 1_555 1_555
C14 C13 1_555 1_555
H27 C14 1_555 1_555
H28 C14 1_555 1_555
C15 C14 1_555 1_555
H29 C15 1_555 1_555
H30 C15 1_555 1_555
C16 O4 1_555 1_555
H31 C16 1_555 1_555
H32 C16 1_555 1_555
Li2 O5 1_555 1_555
O5 C17 1_555 1_555
C17 H33 1_555 1_555
H34 C17 1_555 1_555
C18 C17 1_555 1_555
H35 C18 1_555 1_555
H36 C18 1_555 1_555
C19 C18 1_555 1_555
H37 C19 1_555 1_555
H38 C19 1_555 1_555
C20 O5 1_555 1_555
H39 C20 1_555 1_555
H40 C20 1_555 1_555
O6 Li2 1_555 1_555
C21 O6 1_555 1_555
H41 C21 1_555 1_555
H42 C21 1_555 1_555
C22 C21 1_555 1_555
H43 C22 1_555 1_555
H44 C22 1_555 1_555
C23 C22 1_555 1_555
H45 C23 1_555 1_555
H46 C23 1_555 1_555
C24 O6 1_555 1_555
H47 C24 1_555 1_555
H48 C24 1_555 1_555
O7 Li2 1_555 1_555
C25 O7 1_555 1_555
H49 C25 1_555 1_555
H50 C25 1_555 1_555
C26 C25 1_555 1_555
H51 C26 1_555 1_555
H52 C26 1_555 1_555
C27 C26 1_555 1_555
H53 C27 1_555 1_555
H54 C27 1_555 1_555
C28 O7 1_555 1_555
H55 C28 1_555 1_555
H56 C28 1_555 1_555
O8 Li2 1_555 1_555
C29 O8 1_555 1_555
H57 C29 1_555 1_555
H58 C29 1_555 1_555
C30 C29 1_555 1_555
H59 C30 1_555 1_555
H60 C30 1_555 1_555
C31 C30 1_555 1_555
H61 C31 1_555 1_555
H62 C31 1_555 1_555
C32 O8 1_555 1_555
H63 C32 1_555 1_555
H64 C32 1_555 1_555
Li3 O9 1_555 1_555
O9 C33 1_555 1_555
C33 H65 1_555 1_555
H66 C33 1_555 1_555
C34 C33 1_555 1_555
H67 C34 1_555 1_555
H68 C34 1_555 1_555
C35 C34 1_555 1_555
H69 C35 1_555 1_555
H70 C35 1_555 1_555
C36 O9 1_555 1_555
H71 C36 1_555 1_555
H72 C36 1_555 1_555
O10 Li3 1_555 1_555
C37 O10 1_555 1_555
H73 C37 1_555 1_555
H74 C37 1_555 1_555
C38 C37 1_555 1_555
H75 C38 1_555 1_555
H76 C38 1_555 1_555
C39 C38 1_555 1_555
H77 C39 1_555 1_555
H78 C39 1_555 1_555
C40 O10 1_555 1_555
H79 C40 1_555 1_555
H80 C40 1_555 1_555
O11 Li3 1_555 1_555
C41 O11 1_555 1_555
H81 C41 1_555 1_555
H82 C41 1_555 1_555
C42 C41 1_555 1_555
H83 C42 1_555 1_555
H84 C42 1_555 1_555
C43 C42 1_555 1_555
H85 C43 1_555 1_555
H86 C43 1_555 1_555
C44 O11 1_555 1_555
H87 C44 1_555 1_555
H88 C44 1_555 1_555
O12 Li3 1_555 1_555
C45 O12 1_555 1_555
H89 C45 1_555 1_555
H90 C45 1_555 1_555
C46 C45 1_555 1_555
H91 C46 1_555 1_555
H92 C46 1_555 1_555
C47 C46 1_555 1_555
H93 C47 1_555 1_555
H94 C47 1_555 1_555
C48 O12 1_555 1_555
H95 C48 1_555 1_555
H96 C48 1_555 1_555
Cu4_2 Br8 1_555 1_555
Br7_2 Cu4 1_555 1_555
Br8_2 Cu4 1_555 1_555
Cu2 Br2 1_555 1_555
Cu3 Br4 1_555 1_555
Cu4 Br6 1_555 1_555
Cu6 Br10 1_555 1_555
Cu6 Br11 1_555 1_555
Cu6 Br12 1_555 1_555
C3 C4 1_555 1_555
C7 C8 1_555 1_555
C11 C12 1_555 1_555
C15 C16 1_555 1_555
C19 C20 1_555 1_555
C23 C24 1_555 1_555
C27 C28 1_555 1_555
C31 C32 1_555 1_555
C35 C36 1_555 1_555
C39 C40 1_555 1_555
C43 C44 1_555 1_555
C47 C48 1_555 1_555

#END
