
#######################################################################
#
#                 Cambridge Crystallographic Data Centre
#                                CCDC 
#
#######################################################################
#
# If this CIF has been generated from an entry in the Cambridge 
# Structural Database, then it will include bibliographic, chemical, 
# crystal, experimental, refinement or atomic coordinate data resulting 
# from the CCDC's data processing and validation procedures.
#
#######################################################################

data_VIHKIH
_symmetry_cell_setting           orthorhombic
_symmetry_space_group_name_H-M   'P 21 21 21'
_symmetry_Int_Tables_number      19
_space_group_name_Hall           'P 2ac 2ab'
loop_
_symmetry_equiv_pos_site_id
_symmetry_equiv_pos_as_xyz
1 x,y,z
2 1/2-x,-y,1/2+z
3 1/2+x,1/2-y,-z
4 -x,1/2+y,1/2-z
_cell_length_a                   9.5774(12)
_cell_length_b                   11.8132(15)
_cell_length_c                   14.7182(18)
_cell_angle_alpha                90
_cell_angle_beta                 90
_cell_angle_gamma                90
_cell_volume                     1665.21
loop_
_atom_site_label
_atom_site_type_symbol
_atom_site_fract_x
_atom_site_fract_y
_atom_site_fract_z
Cd1 Cd 0.57543(3) 0.21863(3) 0.44049(2)
N1 N 0.5722(4) 0.4217(3) 0.4427(2)
O1 O 0.3822(3) 0.2243(3) 0.3469(2)
C1 C 0.5827(5) 0.6590(4) 0.4337(3)
O2 O 0.2855(3) 0.2710(3) 0.4792(2)
N2 N 0.5924(4) 1.0218(3) 0.4226(3)
O3 O 0.6796(3) 0.2469(3) 0.2961(2)
C2 C 0.1418(4) 0.2738(4) 0.3435(3)
H1 H 0.1189 0.2037 0.3085
O4 O 0.8424(3) 0.1230(3) 0.3251(2)
N3 N 0.7767(4) 0.1799(3) 0.2691(3)
O5 O 0.8011(4) 0.1751(3) 0.1856(2)
C3 C 0.6093(5) 0.4852(4) 0.5154(3)
H2 H 0.6317 0.4476 0.5705
C4 C 0.5398(5) 0.4774(4) 0.3670(3)
H3 H 0.5121 0.4343 0.3155
C5 C 0.5438(5) 0.5944(4) 0.3586(3)
H4 H 0.5206 0.6298 0.3026
C6 C 0.6162(5) 0.6022(4) 0.5133(3)
H5 H 0.6435 0.6433 0.5659
C7 C 0.6937(5) 0.8472(4) 0.4702(3)
H6 H 0.7660 0.8096 0.5025
C8 C 0.4898(5) 0.9620(4) 0.3812(3)
H7 H 0.4178 1.0023 0.3508
C9 C 0.6918(5) 0.9635(4) 0.4644(3)
H8 H 0.7660 1.0044 0.4920
C10 C 0.5874(4) 0.7850(4) 0.4280(3)
C11 C 0.4852(5) 0.8450(4) 0.3813(3)
H9 H 0.4131 0.8061 0.3499
C12 C -0.0005(5) 0.4175(5) 0.2738(3)
H10 H -0.0053 0.4969 0.2524
H11 H -0.0598 0.3695 0.2344
C13 C -0.0429(5) 0.4076(4) 0.3730(3)
H12 H -0.0077 0.4730 0.4083
H13 H -0.1458 0.4043 0.3790
C14 C 0.1496(5) 0.3748(5) 0.2764(4)
H14 H 0.2140 0.4341 0.2989
H15 H 0.1808 0.3497 0.2155
N4 N 0.0220(4) 0.3004(3) 0.4054(2)
C15 C 0.2792(5) 0.2549(3) 0.3942(3)
H16 H -0.049(6) 0.238(5) 0.387(4)
Cd1B Cd 0.07543(3) 0.28137(3) 0.55951(2)
Cd1_2 Cd 0.57543(3) 1.21863(3) 0.44049(2)
O2B O 0.7855(3) 0.2290(3) 0.5208(2)
N2_2 N 0.5924(4) 0.0218(3) 0.4226(3)
N4B N 0.5220(4) 0.1996(3) 0.5946(2)
H16B H 0.451(6) 0.262(5) 0.613(4)
loop_
_geom_bond_atom_site_label_1
_geom_bond_atom_site_label_2
_geom_bond_site_symmetry_1
_geom_bond_site_symmetry_2
Cd1 N1 1_555 1_555
N1 C3 1_555 1_555
O1 Cd1 1_555 1_555
C1 C5 1_555 1_555
O2 C15 1_555 1_555
N2 C8 1_555 1_555
O3 Cd1 1_555 1_555
C2 H1 1_555 1_555
O4 N3 1_555 1_555
N3 O3 1_555 1_555
O5 N3 1_555 1_555
C3 H2 1_555 1_555
C4 N1 1_555 1_555
H3 C4 1_555 1_555
C5 C4 1_555 1_555
H4 C5 1_555 1_555
C6 C1 1_555 1_555
H5 C6 1_555 1_555
C7 H6 1_555 1_555
C8 H7 1_555 1_555
C9 N2 1_555 1_555
H8 C9 1_555 1_555
C10 C1 1_555 1_555
C11 C8 1_555 1_555
H9 C11 1_555 1_555
C12 H10 1_555 1_555
H11 C12 1_555 1_555
C13 C12 1_555 1_555
H12 C13 1_555 1_555
H13 C13 1_555 1_555
C14 C2 1_555 1_555
H14 C14 1_555 1_555
H15 C14 1_555 1_555
N4 C2 1_555 1_555
C15 O1 1_555 1_555
H16 N4 1_555 1_555
Cd1B O2 1_555 1_555
Cd1_2 N2 1_555 1_555
O2B Cd1 1_555 1_555
N2_2 Cd1 1_555 1_555
N4B Cd1 1_555 1_555
H16B N4B 1_555 1_555
C2 C15 1_555 1_555
C3 C6 1_555 1_555
C7 C9 1_555 1_555
C7 C10 1_555 1_555
C10 C11 1_555 1_555
C12 C14 1_555 1_555
C13 N4 1_555 1_555
N4 Cd1B 1_555 1_555

#END
