
#######################################################################
#
#                 Cambridge Crystallographic Data Centre
#                                CCDC 
#
#######################################################################
#
# If this CIF has been generated from an entry in the Cambridge 
# Structural Database, then it will include bibliographic, chemical, 
# crystal, experimental, refinement or atomic coordinate data resulting 
# from the CCDC's data processing and validation procedures.
#
#######################################################################

data_VIHMEG
_symmetry_cell_setting           monoclinic
_symmetry_space_group_name_H-M   'C 2/c'
_symmetry_Int_Tables_number      15
_space_group_name_Hall           '-C 2yn'
loop_
_symmetry_equiv_pos_site_id
_symmetry_equiv_pos_as_xyz
1 x,y,z
2 -x,y,1/2-z
3 1/2+x,1/2+y,z
4 1/2-x,1/2+y,1/2-z
5 -x,-y,-z
6 x,-y,1/2+z
7 1/2-x,1/2-y,-z
8 1/2+x,1/2-y,1/2+z
_cell_length_a                   20.4149(16)
_cell_length_b                   9.8975(7)
_cell_length_c                   15.1888(11)
_cell_angle_alpha                90
_cell_angle_beta                 126.1300(10)
_cell_angle_gamma                90
_cell_volume                     2478.77
loop_
_atom_site_label
_atom_site_type_symbol
_atom_site_fract_x
_atom_site_fract_y
_atom_site_fract_z
Er1 Er 0.862354(10) 0.488348(16) 0.762459(13)
O1 O 0.98258(16) 0.6245(3) 0.8483(2)
O2 O 0.86956(18) 0.7325(3) 0.7336(3)
O3 O 0.87825(17) 1.2501(3) 0.7338(2)
O4 O 0.97716(18) 1.3443(3) 0.8835(2)
O5 O 1.24372(16) 1.0698(3) 1.0887(2)
O6 O 1.22513(16) 0.9097(3) 1.1709(2)
C1 C 0.9884(2) 0.8647(4) 0.8586(3)
C2 C 0.9484(2) 0.9870(4) 0.8157(3)
H1 H 0.8944 0.9881 0.7551
C3 C 0.9892(2) 1.1080(4) 0.8633(3)
C4 C 1.0706(2) 1.1047(4) 0.9505(3)
H2 H 1.0989 1.1854 0.9798
C5 C 1.1106(2) 0.9829(4) 0.9945(3)
C6 C 1.0686(2) 0.8625(4) 0.9495(3)
H3 H 1.0943 0.7805 0.9803
C7 C 0.9440(2) 0.7341(4) 0.8092(3)
C8 C 0.9458(2) 1.2402(4) 0.8238(3)
C9 C 1.1977(2) 0.9853(4) 1.0899(3)
O7 O 0.88347(17) 0.5862(3) 0.9157(2)
H4 H 0.9270 0.6064 0.9722
H5 H 0.8486 0.5630 0.9210
O8 O 0.79237(16) 0.3573(2) 0.81219(19)
H6 H 0.7868 0.2753 0.8136
H7 H 0.7660 0.4063 0.8232
O9 O 0.89603(14) 0.4942(3) 0.63897(18)
H8 H 0.8615 0.5084 0.5741
H9 H 0.9364 0.5383 0.6547
Er1_2 Er 0.862354(10) 1.488348(16) 0.762459(13)
Er1G Er 1.362354(10) 1.011652(16) 1.262459(13)
O3_2 O 0.87825(17) 0.2501(3) 0.7338(2)
O4_2 O 0.97716(18) 0.3443(3) 0.8835(2)
O5G O 0.74372(16) 0.4302(3) 0.5887(2)
O6G O 0.72513(16) 0.5903(3) 0.6709(2)
O10 O 0.74944(18) 0.4240(3) 0.4080(2)
H10 H 0.7666 0.3674 0.4592
H11 H 0.7119 0.3785 0.3566
O11 O 0.7646(3) 0.6963(3) 0.4912(2)
O12 O 0.7500(3) 0.7500(3) 0.5000(3)
loop_
_geom_bond_atom_site_label_1
_geom_bond_atom_site_label_2
_geom_bond_site_symmetry_1
_geom_bond_site_symmetry_2
Er1 O1 1_555 1_555
O1 C7 1_555 1_555
O2 Er1 1_555 1_555
O3 C8 1_555 1_555
O4 C8 1_555 1_555
O5 C9 1_555 1_555
O6 C9 1_555 1_555
C1 C2 1_555 1_555
C2 H1 1_555 1_555
C3 C2 1_555 1_555
C4 C3 1_555 1_555
H2 C4 1_555 1_555
C5 C4 1_555 1_555
C6 C1 1_555 1_555
H3 C6 1_555 1_555
C7 O2 1_555 1_555
C8 C3 1_555 1_555
C9 C5 1_555 1_555
O7 Er1 1_555 1_555
H4 O7 1_555 1_555
H5 O7 1_555 1_555
O8 Er1 1_555 1_555
H6 O8 1_555 1_555
H7 O8 1_555 1_555
O9 Er1 1_555 1_555
H8 O9 1_555 1_555
H9 O9 1_555 1_555
O10 H10 1_555 1_555
H11 O10 1_555 1_555
Er1_2 O3 1_555 1_555
Er1G O5 1_555 1_555
O3_2 Er1 1_555 1_555
O4_2 Er1 1_555 1_555
O5G Er1 1_555 1_555
O6G Er1 1_555 1_555
O4 Er1_2 1_555 1_555
O6 Er1G 1_555 1_555
C1 C7 1_555 1_555
C5 C6 1_555 1_555

#END
