
#######################################################################
#
#                 Cambridge Crystallographic Data Centre
#                                CCDC 
#
#######################################################################
#
# If this CIF has been generated from an entry in the Cambridge 
# Structural Database, then it will include bibliographic, chemical, 
# crystal, experimental, refinement or atomic coordinate data resulting 
# from the CCDC's data processing and validation procedures.
#
#######################################################################

data_VIHNOR
_symmetry_cell_setting           triclinic
_symmetry_space_group_name_H-M   'P -1'
_symmetry_Int_Tables_number      2
_space_group_name_Hall           '-P 1'
loop_
_symmetry_equiv_pos_site_id
_symmetry_equiv_pos_as_xyz
1 x,y,z
2 -x,-y,-z
_cell_length_a                   5.1010(10)
_cell_length_b                   7.0290(14)
_cell_length_c                   10.554(2)
_cell_angle_alpha                76.73(3)
_cell_angle_beta                 77.46(3)
_cell_angle_gamma                81.32(3)
_cell_volume                     357.482
loop_
_atom_site_label
_atom_site_type_symbol
_atom_site_fract_x
_atom_site_fract_y
_atom_site_fract_z
C1 C 0.1563(4) 0.9170(3) 0.7424(2)
C2 C 0.4252(4) 0.7832(3) 0.7548(2)
O1 O 0.5965(3) 0.7873(2) 0.64442(15)
O2 O -0.0291(4) 0.9161(3) 0.83739(17)
O3 O 0.1526(3) 1.0230(2) 0.62360(14)
O4 O 0.4612(4) 0.6866(3) 0.86326(16)
O5 O 0.3536(3) 0.8094(2) 0.42333(15)
Cr1 Cr 0.5000 1.0000 0.5000
K1 K 0.5000 1.0000 1.0000
C3 C 0.1308(5) 1.3790(3) 0.7839(2)
O6 O 0.3478(3) 1.2692(3) 0.79109(16)
N1 N -0.0714(5) 1.3787(3) 0.8895(2)
N2 N 0.0860(5) 1.4994(4) 0.6696(2)
H1 H 0.313(11) 0.742(5) 0.4966(19)
H2 H 0.223(6) 0.885(4) 0.412(5)
H3 H 0.222(8) 1.536(8) 0.601(4)
H4 H 0.009(10) 1.612(5) 0.697(5)
H5 H -0.042(7) 1.310(4) 0.970(2)
H6 H -0.214(5) 1.468(4) 0.888(3)
C1A C -0.1563(4) 1.0830(3) 1.2576(2)
C2A C -0.4252(4) 1.2168(3) 1.2452(2)
O1A O -0.5965(3) 1.2127(2) 1.35558(15)
O2A O 0.0291(4) 1.0839(3) 1.16261(17)
O3A O -0.1526(3) 0.9770(2) 1.37640(14)
O4A O -0.4612(4) 1.3134(3) 1.13674(16)
C3A C 0.8692(5) 0.6210(3) 1.2161(2)
O6A O 0.6522(3) 0.7308(3) 1.20891(16)
N1A N 1.0714(5) 0.6213(3) 1.1105(2)
N2A N 0.9140(5) 0.5006(4) 1.3304(2)
H3A H 0.778(8) 0.464(8) 1.399(4)
H4A H 0.991(10) 0.388(5) 1.303(5)
H5A H 1.042(7) 0.690(4) 1.030(2)
H6A H 1.214(5) 0.532(4) 1.112(3)
O5A O 0.6464(3) 1.1906(2) 0.57667(15)
H1A H 0.687(11) 1.258(5) 0.5034(19)
H2A H 0.777(6) 1.115(4) 0.588(5)
O1A_2 O 0.4035(3) 1.2127(2) 0.35558(15)
O2_2 O 0.9709(4) 0.9161(3) 0.83739(17)
O3A_2 O 0.8474(3) 0.9770(2) 0.37640(14)
O4A_2 O 0.5388(4) 1.3134(3) 1.13674(16)
Cr1_2 Cr -0.5000 1.0000 1.5000
K1_2 K -0.5000 1.0000 1.0000
loop_
_geom_bond_atom_site_label_1
_geom_bond_atom_site_label_2
_geom_bond_site_symmetry_1
_geom_bond_site_symmetry_2
C1 C2 1_555 1_555
C2 O1 1_555 1_555
O1 Cr1 1_555 1_555
O2 C1 1_555 1_555
O3 C1 1_555 1_555
O4 C2 1_555 1_555
O5 Cr1 1_555 1_555
Cr1 O3 1_555 1_555
K1 O4 1_555 1_555
C3 O6 1_555 1_555
O6 K1 1_555 1_555
N1 C3 1_555 1_555
N2 C3 1_555 1_555
H1 O5 1_555 1_555
H2 O5 1_555 1_555
H3 N2 1_555 1_555
H4 N2 1_555 1_555
H5 N1 1_555 1_555
H6 N1 1_555 1_555
C1A C2A 1_555 1_555
C2A O1A 1_555 1_555
O1A Cr1_2 1_555 1_555
O2A K1 1_555 1_555
O3A C1A 1_555 1_555
O4A C2A 1_555 1_555
C3A O6A 1_555 1_555
O6A K1 1_555 1_555
N1A C3A 1_555 1_555
N2A C3A 1_555 1_555
H3A N2A 1_555 1_555
H4A N2A 1_555 1_555
H5A N1A 1_555 1_555
H6A N1A 1_555 1_555
O5A Cr1 1_555 1_555
H1A O5A 1_555 1_555
H2A O5A 1_555 1_555
O1A_2 Cr1 1_555 1_555
O2_2 K1 1_555 1_555
O3A_2 Cr1 1_555 1_555
O4A_2 K1 1_555 1_555
Cr1_2 O3A 1_555 1_555
K1_2 O2 1_555 1_555
C1A O2A 1_555 1_555
O4A K1_2 1_555 1_555

#END
