
#######################################################################
#
#                 Cambridge Crystallographic Data Centre
#                                CCDC 
#
#######################################################################
#
# If this CIF has been generated from an entry in the Cambridge 
# Structural Database, then it will include bibliographic, chemical, 
# crystal, experimental, refinement or atomic coordinate data resulting 
# from the CCDC's data processing and validation procedures.
#
#######################################################################

data_VIHNAC
_symmetry_cell_setting           monoclinic
_symmetry_space_group_name_H-M   'P 21/n'
_symmetry_Int_Tables_number      14
_space_group_name_Hall           '-P 2yn'
loop_
_symmetry_equiv_pos_site_id
_symmetry_equiv_pos_as_xyz
1 x,y,z
2 1/2-x,1/2+y,1/2-z
3 -x,-y,-z
4 1/2+x,1/2-y,1/2+z
_cell_length_a                   12.1899(2)
_cell_length_b                   17.5678(2)
_cell_length_c                   13.4748(2)
_cell_angle_alpha                90
_cell_angle_beta                 112.653(1)
_cell_angle_gamma                90
_cell_volume                     2663.01
loop_
_atom_site_label
_atom_site_type_symbol
_atom_site_fract_x
_atom_site_fract_y
_atom_site_fract_z
Cu1 Cu 0.33281(3) 0.20233(2) 0.03609(3)
Cu2 Cu 0.23071(3) 0.73744(2) 0.02555(3)
S1 S 0.82168(7) 0.47087(4) 0.23992(6)
S2 S -0.31492(6) 0.03677(4) -0.26423(6)
K1 K 0.59153(8) 0.08741(5) -0.01968(7)
K2 K 0.05120(7) 0.40451(5) -0.03609(7)
O1 O 0.4568(3) 0.12449(17) 0.1469(3)
O2 O 0.4398(2) 0.28925(14) 0.0832(2)
O3 O 0.3883(3) 0.19485(16) -0.0862(2)
O4 O 0.2827(2) 0.36406(15) 0.0172(2)
O5 O 0.2520(2) 0.23559(14) 0.1366(2)
O6 O 0.3275(2) 0.64414(14) 0.0683(2)
O7 O 0.5088(2) 0.69243(14) 0.1574(2)
O8 O 0.3537(2) 0.79750(13) 0.13615(19)
O9 O 0.1488(2) -0.16377(14) -0.0307(2)
O10 O -0.0364(2) -0.20574(14) -0.1167(2)
O11 O 0.1036(2) 0.67393(14) -0.0763(2)
O12 O 0.2289(2) 0.11510(14) -0.0156(2)
O13 O 0.0874(2) 0.19335(15) -0.1147(2)
O14 O 0.8470(2) 0.38895(14) 0.23719(19)
O15 O 0.8643(2) 0.49775(17) 0.3507(2)
O16 O 0.8616(2) 0.51536(16) 0.1705(2)
O17 O -0.3241(2) 0.11818(14) -0.2925(2)
O18 O -0.3647(2) 0.02022(15) -0.1848(2)
O19 O -0.3610(2) -0.01034(16) -0.3590(2)
C1 C 0.4703(3) 0.42288(18) 0.1018(3)
C2 C 0.5938(3) 0.41515(18) 0.1501(3)
H1 H 0.6282 0.3671 0.1586
C3 C 0.6649(3) 0.47880(18) 0.1853(2)
C4 C 0.6147(3) 0.55102(18) 0.1777(2)
H2 H 0.6627 0.5934 0.2048
C5 C 0.4911(3) 0.55891(18) 0.1285(2)
C6 C 0.4193(3) 0.49559(18) 0.0893(2)
H3 H 0.3375 0.5014 0.0547
C7 C 0.3909(3) 0.35555(18) 0.0645(3)
C8 C 0.4401(3) 0.63758(19) 0.1179(3)
C9 C -0.0026(3) -0.07263(18) -0.1157(2)
C10 C 0.0793(3) -0.01161(19) -0.0837(2)
H4 H 0.1593 -0.0210 -0.0436
C11 C 0.0399(3) 0.06218(18) -0.1122(2)
C12 C -0.0807(3) 0.07661(18) -0.1703(2)
H5 H -0.1071 0.1262 -0.1897
C13 C -0.1605(3) 0.01674(18) -0.1990(2)
C14 C -0.1225(3) -0.05768(19) -0.1737(3)
H6 H -0.1769 -0.0975 -0.1955
C15 C 0.0395(3) -0.15298(19) -0.0857(3)
C16 C 0.1242(3) 0.12869(19) -0.0793(3)
O20 O 0.3382(2) 0.77270(16) -0.0918(2)
O21 O 0.1076(3) 0.71798(17) 0.1332(2)
Cu2_2 Cu 0.23071(3) -0.26256(2) 0.02555(3)
K1B K 0.40847(8) -0.08741(5) 0.01968(7)
K1B_2 K 0.40847(8) 0.91259(5) 0.01968(7)
K1C K 1.09153(8) 0.41259(5) 0.48032(7)
K1A K 0.90847(8) 0.58741(5) 0.51968(7)
K1_2 K -0.40847(8) 0.08741(5) -0.01968(7)
K2B K -0.05120(7) 0.59549(5) 0.03609(7)
K2B_2 K 0.94880(7) 0.59549(5) 0.03609(7)
K2C K -0.44880(7) 0.09549(5) -0.53609(7)
K2A K -0.55120(7) -0.09549(5) -0.46391(7)
O8B O 0.6463(2) 0.20250(13) -0.13615(19)
O9_2 O 0.1488(2) 0.83623(14) -0.0307(2)
O9B O 0.8512(2) 0.16377(14) 0.0307(2)
O11B O -0.1036(2) 0.32607(14) 0.0763(2)
O15C O 0.3643(2) 0.00225(17) -0.1493(2)
O15A O 0.6357(2) -0.00225(17) 0.1493(2)
O16B O 0.1384(2) 0.48464(16) -0.1705(2)
O17C O 0.1759(2) 0.38182(14) 0.2075(2)
O18_2 O 0.6353(2) 0.02022(15) -0.1848(2)
O19C O 0.1390(2) 0.51034(16) 0.1410(2)
O19A O -0.1390(2) 0.48966(16) -0.1410(2)
O20B O 0.6618(2) 0.22730(16) 0.0918(2)
O21B O -0.1076(3) 0.28202(17) -0.1332(2)
O22 O -0.3380(3) 1.18718(17) -0.7022(2)
loop_
_geom_bond_atom_site_label_1
_geom_bond_atom_site_label_2
_geom_bond_site_symmetry_1
_geom_bond_site_symmetry_2
Cu1 O1 1_555 1_555
Cu2 O6 1_555 1_555
S1 O14 1_555 1_555
S2 O17 1_555 1_555
K1 O1 1_555 1_555
K2 O4 1_555 1_555
O2 Cu1 1_555 1_555
O3 Cu1 1_555 1_555
O4 C7 1_555 1_555
O5 Cu1 1_555 1_555
O6 C8 1_555 1_555
O7 C8 1_555 1_555
O8 Cu2 1_555 1_555
O9 C15 1_555 1_555
O10 C15 1_555 1_555
O11 Cu2 1_555 1_555
O12 Cu1 1_555 1_555
O13 C16 1_555 1_555
O15 S1 1_555 1_555
O16 S1 1_555 1_555
O17 K2C 1_555 1_555
O18 S2 1_555 1_555
O19 S2 1_555 1_555
C1 C2 1_555 1_555
C2 H1 1_555 1_555
C3 S1 1_555 1_555
C4 C3 1_555 1_555
H2 C4 1_555 1_555
C5 C4 1_555 1_555
C6 C1 1_555 1_555
H3 C6 1_555 1_555
C7 O2 1_555 1_555
C8 C5 1_555 1_555
C9 C10 1_555 1_555
C10 H4 1_555 1_555
C11 C10 1_555 1_555
C12 C11 1_555 1_555
H5 C12 1_555 1_555
C13 S2 1_555 1_555
C14 C9 1_555 1_555
H6 C14 1_555 1_555
C15 C9 1_555 1_555
C16 O12 1_555 1_555
O20 Cu2 1_555 1_555
O21 Cu2 1_555 1_555
Cu2_2 O9 1_555 1_555
K1B O9 1_555 1_555
K1B_2 O8 1_555 1_555
K1C O15 1_555 1_555
K1A O15 1_555 1_555
K1_2 O18 1_555 1_555
K2B O11 1_555 1_555
K2B_2 O16 1_555 1_555
K2C O19 1_555 1_555
K2A O19 1_555 1_555
O8B K1 1_555 1_555
O9_2 Cu2 1_555 1_555
O9B K1 1_555 1_555
O11B K2 1_555 1_555
O15C K1 1_555 1_555
O15A K1 1_555 1_555
O16B K2 1_555 1_555
O17C K2 1_555 1_555
O18_2 K1 1_555 1_555
O19C K2 1_555 1_555
O19A K2 1_555 1_555
O20B K1 1_555 1_555
O21B K2 1_555 1_555
K1 O3 1_555 1_555
C1 C7 1_555 1_555
C2 C3 1_555 1_555
C5 C6 1_555 1_555
C11 C16 1_555 1_555
C12 C13 1_555 1_555
C13 C14 1_555 1_555
O20 K1B_2 1_555 1_555
O21 K2B 1_555 1_555
K1B O15C 1_555 1_555
K1B O15A 1_555 1_555
K1B_2 O9_2 1_555 1_555
K2B O19C 1_555 1_555
K2B O19A 1_555 1_555

#END
