
#######################################################################
#
#                 Cambridge Crystallographic Data Centre
#                                CCDC 
#
#######################################################################
#
# If this CIF has been generated from an entry in the Cambridge 
# Structural Database, then it will include bibliographic, chemical, 
# crystal, experimental, refinement or atomic coordinate data resulting 
# from the CCDC's data processing and validation procedures.
#
#######################################################################

data_VIHPIN
_symmetry_cell_setting           monoclinic
_symmetry_space_group_name_H-M   'P 21/c'
_symmetry_Int_Tables_number      14
_space_group_name_Hall           '-P 2ybc'
loop_
_symmetry_equiv_pos_site_id
_symmetry_equiv_pos_as_xyz
1 x,y,z
2 -x,1/2+y,1/2-z
3 -x,-y,-z
4 x,1/2-y,1/2+z
_cell_length_a                   12.831(4)
_cell_length_b                   14.525(4)
_cell_length_c                   9.539(3)
_cell_angle_alpha                90
_cell_angle_beta                 103.701(8)
_cell_angle_gamma                90
_cell_volume                     1727.2
loop_
_atom_site_label
_atom_site_type_symbol
_atom_site_fract_x
_atom_site_fract_y
_atom_site_fract_z
Cu1 Cu 0.33482(3) 0.44255(3) 0.58752(4)
O1 O 0.54332(18) 0.87121(16) 0.9605(3)
O2 O 0.6025(2) 0.77307(19) 0.8191(3)
O3 O 0.3343(3) 0.5668(2) 0.4514(3)
N1 N 0.4809(2) 0.6310(2) 0.8863(3)
N2 N 0.5634(2) 0.5696(2) 0.9121(3)
N3 N 0.4261(2) 0.5169(2) 0.7413(3)
N4 N 0.2295(2) 0.3858(2) 0.4225(3)
N5 N 0.2047(2) 0.43887(19) 0.6775(3)
C1 C 0.5264(3) 0.5027(3) 0.8228(4)
H1 H 0.5658 0.4498 0.8158
C2 C 0.4012(3) 0.5988(3) 0.7845(4)
H2 H 0.3367 0.6293 0.7482
C3 C 0.4861(3) 0.7175(2) 0.9638(4)
H3 H 0.5192 0.7069 1.0650
H4 H 0.4138 0.7398 0.9570
C4 C 0.5492(3) 0.7908(2) 0.9066(4)
C5 C 0.2466(3) 0.3603(3) 0.2967(4)
H5 H 0.3158 0.3632 0.2827
C6 C 0.1636(4) 0.3291(3) 0.1846(4)
H6 H 0.1777 0.3119 0.0971
C7 C 0.0615(4) 0.3239(3) 0.2034(5)
H7 H 0.0056 0.3043 0.1282
C8 C 0.0412(3) 0.3481(2) 0.3369(4)
C9 C 0.1287(3) 0.3801(2) 0.4441(4)
C10 C 0.1156(3) 0.4076(2) 0.5820(4)
C11 C 0.0153(3) 0.4000(3) 0.6152(4)
C12 C 0.0085(3) 0.4254(3) 0.7544(5)
H8 H -0.0568 0.4222 0.7807
C13 C 0.0985(4) 0.4547(3) 0.8513(5)
H9 H 0.0953 0.4707 0.9446
C14 C 0.1952(3) 0.4605(3) 0.8093(4)
H10 H 0.2559 0.4805 0.8766
C15 C -0.0612(3) 0.3423(3) 0.3725(5)
H11 H -0.1202 0.3213 0.3034
C16 C -0.0738(3) 0.3667(3) 0.5045(5)
H12 H -0.1412 0.3619 0.5242
H13 H 0.303(5) 0.570(4) 0.370(6)
H14 H 0.395(4) 0.581(3) 0.464(5)
Cu1A Cu 0.66518(3) 0.94255(3) 0.91248(4)
O1A O 0.45668(18) 0.37121(16) 0.5395(3)
O2A O 0.3975(2) 0.27307(19) 0.6809(3)
O4 O 0.2230(3) 0.5755(2) 0.1555(4)
O5 O 0.3106(3) 0.7009(3) 0.1776(4)
O6 O 0.2117(3) 0.6668(3) -0.0267(4)
N6 N 0.2461(3) 0.6493(2) 0.1017(4)
loop_
_geom_bond_atom_site_label_1
_geom_bond_atom_site_label_2
_geom_bond_site_symmetry_1
_geom_bond_site_symmetry_2
Cu1 O3 1_555 1_555
O1 C4 1_555 1_555
O2 C4 1_555 1_555
O3 H13 1_555 1_555
N1 N2 1_555 1_555
N2 C1 1_555 1_555
N3 Cu1 1_555 1_555
N4 Cu1 1_555 1_555
N5 Cu1 1_555 1_555
C1 N3 1_555 1_555
H1 C1 1_555 1_555
C2 N1 1_555 1_555
H2 C2 1_555 1_555
C3 N1 1_555 1_555
H3 C3 1_555 1_555
H4 C3 1_555 1_555
C4 C3 1_555 1_555
C5 N4 1_555 1_555
H5 C5 1_555 1_555
C6 C5 1_555 1_555
H6 C6 1_555 1_555
C7 C6 1_555 1_555
H7 C7 1_555 1_555
C8 C7 1_555 1_555
C9 N4 1_555 1_555
C10 N5 1_555 1_555
C11 C10 1_555 1_555
C12 C11 1_555 1_555
H8 C12 1_555 1_555
C13 C12 1_555 1_555
H9 C13 1_555 1_555
C14 N5 1_555 1_555
H10 C14 1_555 1_555
C15 C8 1_555 1_555
H11 C15 1_555 1_555
C16 C11 1_555 1_555
H12 C16 1_555 1_555
H14 O3 1_555 1_555
O4 N6 1_555 1_555
O5 N6 1_555 1_555
O6 N6 1_555 1_555
Cu1A O1 1_555 1_555
O1A Cu1 1_555 1_555
O2A Cu1 1_555 1_555
O2 Cu1A 1_555 1_555
N3 C2 1_555 1_555
C8 C9 1_555 1_555
C9 C10 1_555 1_555
C13 C14 1_555 1_555
C15 C16 1_555 1_555

#END
