
#######################################################################
#
#                 Cambridge Crystallographic Data Centre
#                                CCDC 
#
#######################################################################
#
# If this CIF has been generated from an entry in the Cambridge 
# Structural Database, then it will include bibliographic, chemical, 
# crystal, experimental, refinement or atomic coordinate data resulting 
# from the CCDC's data processing and validation procedures.
#
#######################################################################

data_VIHQEJ
_symmetry_cell_setting           monoclinic
_symmetry_space_group_name_H-M   'P 21/c'
_symmetry_Int_Tables_number      14
_space_group_name_Hall           '-P 2ybc'
loop_
_symmetry_equiv_pos_site_id
_symmetry_equiv_pos_as_xyz
1 x,y,z
2 -x,1/2+y,1/2-z
3 -x,-y,-z
4 x,1/2-y,1/2+z
_cell_length_a                   11.9785(10)
_cell_length_b                   11.9409(10)
_cell_length_c                   7.6080(6)
_cell_angle_alpha                90
_cell_angle_beta                 90.424(2)
_cell_angle_gamma                90
_cell_volume                     1088.17
loop_
_atom_site_label
_atom_site_type_symbol
_atom_site_fract_x
_atom_site_fract_y
_atom_site_fract_z
H1 H 0.752(4) 0.958(4) 0.910(6)
Tb1 Tb 0.744224(13) 0.803497(13) 1.18725(2)
O1 O 0.7413(2) 0.6000(2) 1.1642(3)
O2 O 0.7176(2) 0.5484(2) 0.8846(3)
O3 O 0.7636(2) 0.9668(2) 1.0017(4)
C1 C 0.9353(3) 0.8218(3) 1.4088(5)
O4 O 0.9334(2) 0.8730(2) 1.2679(3)
O5 O 0.5499(2) 0.8637(2) 1.1227(3)
O6 O 0.86154(18) 0.7471(2) 1.4422(3)
C2 C 0.5532(3) 0.8304(3) 0.9689(5)
O7 O 0.6364(2) 0.7706(2) 0.9193(3)
C3 C 0.4628(3) 0.8584(3) 0.8389(5)
H2 H 0.4055 0.9036 0.8964
H3 H 0.4293 0.7890 0.7942
H4 H 0.4947 0.9007 0.7410
C4 C 1.0218(3) 0.8474(3) 1.5476(5)
H5 H 1.0771 0.8996 1.5000
H6 H 1.0591 0.7780 1.5836
H7 H 0.9856 0.8814 1.6496
C5 C 0.6756(4) 0.4153(3) 1.1044(5)
H8 H 0.6025 0.4220 1.1605
H9 H 0.7296 0.3843 1.1886
H10 H 0.6695 0.3655 1.0023
C6 C 0.7145(3) 0.5302(3) 1.0450(4)
C7 C 0.8354(4) 1.0607(3) 1.0243(6)
H11 H 0.8523 1.0707 1.1496
H12 H 0.7985 1.1281 0.9788
H13 H 0.9049 1.0480 0.9602
Tb1C Tb 0.744224(13) 0.696503(13) 0.68725(2)
Tb1C_2 Tb 0.744224(13) 0.696503(13) 1.68725(2)
O2C O 0.7176(2) 0.9516(2) 1.3846(3)
O6C O 0.86154(18) 0.7529(2) 0.9422(3)
O7C O 0.6364(2) 0.7294(2) 1.4193(3)
loop_
_geom_bond_atom_site_label_1
_geom_bond_atom_site_label_2
_geom_bond_site_symmetry_1
_geom_bond_site_symmetry_2
H1 O3 1_555 1_555
Tb1 O1 1_555 1_555
O1 C6 1_555 1_555
O2 C6 1_555 1_555
O3 Tb1 1_555 1_555
C1 O4 1_555 1_555
O4 Tb1 1_555 1_555
O5 Tb1 1_555 1_555
O6 Tb1 1_555 1_555
C2 O5 1_555 1_555
O7 Tb1 1_555 1_555
C3 C2 1_555 1_555
H2 C3 1_555 1_555
H3 C3 1_555 1_555
H4 C3 1_555 1_555
C4 C1 1_555 1_555
H5 C4 1_555 1_555
H6 C4 1_555 1_555
H7 C4 1_555 1_555
C5 H8 1_555 1_555
H9 C5 1_555 1_555
H10 C5 1_555 1_555
C6 C5 1_555 1_555
C7 O3 1_555 1_555
H11 C7 1_555 1_555
H12 C7 1_555 1_555
H13 C7 1_555 1_555
Tb1C O2 1_555 1_555
Tb1C_2 O6 1_555 1_555
O2C Tb1 1_555 1_555
O6C Tb1 1_555 1_555
O7C Tb1 1_555 1_555
C1 O6 1_555 1_555
C2 O7 1_555 1_555
O7 Tb1C 1_555 1_555
Tb1C O6C 1_555 1_555
Tb1C_2 O7C 1_555 1_555

#END
