
#######################################################################
#
#                 Cambridge Crystallographic Data Centre
#                                CCDC 
#
#######################################################################
#
# If this CIF has been generated from an entry in the Cambridge 
# Structural Database, then it will include bibliographic, chemical, 
# crystal, experimental, refinement or atomic coordinate data resulting 
# from the CCDC's data processing and validation procedures.
#
#######################################################################

data_VIHXAM
_symmetry_cell_setting           monoclinic
_symmetry_space_group_name_H-M   'C 2/c'
_symmetry_Int_Tables_number      15
_space_group_name_Hall           '-C 2yn'
loop_
_symmetry_equiv_pos_site_id
_symmetry_equiv_pos_as_xyz
1 x,y,z
2 1/2+x,1/2+y,z
3 -x,y,1/2-z
4 1/2-x,1/2+y,1/2-z
5 -x,-y,-z
6 1/2-x,1/2-y,-z
7 x,-y,1/2+z
8 1/2+x,1/2-y,1/2+z
_cell_length_a                   15.973(3)
_cell_length_b                   13.994(3)
_cell_length_c                   9.078(2)
_cell_angle_alpha                90
_cell_angle_beta                 114.26(3)
_cell_angle_gamma                90
_cell_volume                     1849.98
loop_
_atom_site_label
_atom_site_type_symbol
_atom_site_fract_x
_atom_site_fract_y
_atom_site_fract_z
Cu1 Cu 0.0000 0.29187(13) 0.2500
Cu2 Cu 0.0000 0.63918(14) 0.2500
Cl1 Cl 0.0000 0.4595(2) 0.2500
Cl2 Cl 0.0000 0.1320(2) 0.2500
O1 O 0.1147(4) 0.2960(4) 0.4513(7)
O2 O 0.0126(4) 0.3124(5) 0.5556(7)
C1 C 0.0936(6) 0.3115(6) 0.5693(11)
C2 C 0.1692(6) 0.3335(6) 0.7286(10)
N1 N 0.1389(5) 0.3590(5) 0.8408(8)
C3 C 0.2605(6) 0.3276(7) 0.7563(11)
H1 H 0.273(8) 0.308(8) 0.670(13)
C4 C 0.3250(6) 0.3481(8) 0.9102(11)
H2 H 0.373(6) 0.328(6) 0.936(9)
C5 C 0.2968(6) 0.3738(6) 1.0335(10)
C6 C 0.2018(6) 0.3819(6) 0.9941(10)
C7 C 0.3590(7) 0.3933(7) 1.1921(12)
H3 H 0.408(7) 0.384(7) 1.216(12)
C8 C 0.3306(7) 0.4166(7) 1.3124(11)
H4 H 0.370(9) 0.432(8) 1.409(15)
C9 C 0.2343(7) 0.4250(7) 1.2684(12)
H5 H 0.210(6) 0.451(6) 1.342(11)
C10 C 0.1709(7) 0.4105(7) 1.1123(10)
H6 H 0.121(9) 0.401(9) 1.085(15)
Cu2F Cu 0.0000 0.36082(14) 0.7500
Cu2F_2 Cu 0.0000 0.36082(14) -0.2500
O1B O -0.1147(4) 0.2960(4) 0.0487(7)
O2B O -0.0126(4) 0.3124(5) -0.0556(7)
O2F O 0.0126(4) 0.6876(5) 0.0556(7)
O2D O -0.0126(4) 0.6876(5) 0.4444(7)
C1B C -0.0936(6) 0.3115(6) -0.0693(11)
C2B C -0.1692(6) 0.3335(6) -0.2286(10)
N1B N -0.1389(5) 0.3590(5) -0.3408(8)
N1F N 0.1389(5) 0.6410(5) 0.3408(8)
N1D N -0.1389(5) 0.6410(5) 0.1592(8)
C3B C -0.2605(6) 0.3276(7) -0.2563(11)
H1B H -0.273(8) 0.308(8) -0.170(13)
C4B C -0.3250(6) 0.3481(8) -0.4102(11)
H2B H -0.373(6) 0.328(6) -0.436(9)
C5B C -0.2968(6) 0.3738(6) -0.5335(10)
C6B C -0.2018(6) 0.3819(6) -0.4941(10)
C7B C -0.3590(7) 0.3933(7) -0.6921(12)
H3B H -0.408(7) 0.384(7) -0.716(12)
C8B C -0.3306(7) 0.4166(7) -0.8124(11)
H4B H -0.370(9) 0.432(8) -0.909(15)
C9B C -0.2343(7) 0.4250(7) -0.7684(12)
H5B H -0.210(6) 0.451(6) -0.842(11)
C10B C -0.1709(7) 0.4105(7) -0.6123(10)
H6B H -0.121(9) 0.401(9) -0.585(15)
loop_
_geom_bond_atom_site_label_1
_geom_bond_atom_site_label_2
_geom_bond_site_symmetry_1
_geom_bond_site_symmetry_2
Cu1 Cl1 1_555 1_555
Cu2 Cl1 1_555 1_555
Cl2 Cu1 1_555 1_555
O1 Cu1 1_555 1_555
O2 C1 1_555 1_555
C1 O1 1_555 1_555
C2 C1 1_555 1_555
N1 C2 1_555 1_555
C3 C2 1_555 1_555
H1 C3 1_555 1_555
C4 C3 1_555 1_555
H2 C4 1_555 1_555
C5 C4 1_555 1_555
C6 N1 1_555 1_555
C7 C5 1_555 1_555
H3 C7 1_555 1_555
C8 C7 1_555 1_555
H4 C8 1_555 1_555
C9 C8 1_555 1_555
H5 C9 1_555 1_555
C10 C6 1_555 1_555
H6 C10 1_555 1_555
Cu2F O2 1_555 1_555
Cu2F_2 O2B 1_555 1_555
O1B Cu1 1_555 1_555
O2B C1B 1_555 1_555
O2F Cu2 1_555 1_555
O2D Cu2 1_555 1_555
C1B O1B 1_555 1_555
C2B C1B 1_555 1_555
N1B Cu2F_2 1_555 1_555
N1F Cu2 1_555 1_555
N1D Cu2 1_555 1_555
C3B C2B 1_555 1_555
H1B C3B 1_555 1_555
C4B C3B 1_555 1_555
H2B C4B 1_555 1_555
C5B C4B 1_555 1_555
C6B N1B 1_555 1_555
C7B C5B 1_555 1_555
H3B C7B 1_555 1_555
C8B C7B 1_555 1_555
H4B C8B 1_555 1_555
C9B C8B 1_555 1_555
H5B C9B 1_555 1_555
C10B C6B 1_555 1_555
H6B C10B 1_555 1_555
N1 Cu2F 1_555 1_555
C5 C6 1_555 1_555
C9 C10 1_555 1_555
C2B N1B 1_555 1_555
C5B C6B 1_555 1_555
C9B C10B 1_555 1_555

#END
