
#######################################################################
#
#                 Cambridge Crystallographic Data Centre
#                                CCDC 
#
#######################################################################
#
# If this CIF has been generated from an entry in the Cambridge 
# Structural Database, then it will include bibliographic, chemical, 
# crystal, experimental, refinement or atomic coordinate data resulting 
# from the CCDC's data processing and validation procedures.
#
#######################################################################

data_VIHYER
_symmetry_cell_setting           monoclinic
_symmetry_space_group_name_H-M   'P 21/n'
_symmetry_Int_Tables_number      14
_space_group_name_Hall           '-P 2yn'
loop_
_symmetry_equiv_pos_site_id
_symmetry_equiv_pos_as_xyz
1 x,y,z
2 1/2-x,1/2+y,1/2-z
3 -x,-y,-z
4 1/2+x,1/2-y,1/2+z
_cell_length_a                   10.915(5)
_cell_length_b                   7.576(4)
_cell_length_c                   13.719(6)
_cell_angle_alpha                90
_cell_angle_beta                 92.976(19)
_cell_angle_gamma                90
_cell_volume                     1132.92
loop_
_atom_site_label
_atom_site_type_symbol
_atom_site_fract_x
_atom_site_fract_y
_atom_site_fract_z
Cd1 Cd 0.09893(3) 0.36876(4) 0.089509(19)
O1 O 0.1176(3) 0.0897(4) 0.1532(2)
O2 O 0.2046(3) -0.1709(4) 0.1377(2)
O3 O 0.2987(3) -0.4011(4) -0.0486(3)
O4 O 0.0997(3) -0.3975(3) -0.0187(2)
O5 O 0.2872(3) 0.4637(4) 0.1528(2)
H1 H 0.3012 0.5779 0.1382
H2 H 0.2891 0.4564 0.2184
N1 N 0.1580(3) 0.1707(4) -0.0340(2)
N2 N 0.2050(3) -0.0952(4) -0.1660(2)
N3 N 0.0308(3) 0.4323(5) 0.2460(2)
C1 C 0.1705(3) 0.0022(5) -0.0047(2)
C2 C 0.1924(3) -0.1313(5) -0.0712(2)
C3 C 0.1930(4) 0.0728(5) -0.1935(3)
H3 H 0.2003 0.1017 -0.2589
C4 C 0.1699(4) 0.2063(5) -0.1273(3)
H4 H 0.1626 0.3222 -0.1491
C5 C 0.1632(4) -0.0305(5) 0.1044(3)
C6 C 0.1999(4) -0.3264(5) -0.0437(3)
C7 C 0.0049(4) 0.4857(5) 0.4466(3)
C8 C 0.0357(4) 0.6237(6) 0.3850(3)
H5 H 0.0477 0.7371 0.4096
C9 C 0.0482(4) 0.5902(6) 0.2872(3)
H6 H 0.0701 0.6834 0.2477
C10 C -0.0004(4) 0.3007(6) 0.3052(3)
H7 H -0.0137 0.1893 0.2782
C11 C -0.0139(4) 0.3214(6) 0.4041(3)
H8 H -0.0355 0.2256 0.4419
Cd1_2 Cd 0.09893(3) 1.36876(4) 0.089509(19)
Cd1_3 Cd 0.09893(3) -0.63124(4) 0.089509(19)
Cd1B Cd -0.09893(3) -0.36876(4) -0.089509(19)
Cd1B_2 Cd -0.09893(3) 0.63124(4) 0.910491(19)
Cd1B_3 Cd -0.09893(3) 0.63124(4) -0.089509(19)
O1_2 O 0.1176(3) 1.0897(4) 0.1532(2)
O2_2 O 0.2046(3) 0.8291(4) 0.1377(2)
O3_2 O 0.2987(3) 0.5989(4) -0.0486(3)
O4_2 O 0.0997(3) 0.6025(3) -0.0187(2)
O4B O -0.0997(3) 0.3975(3) 0.0187(2)
O4_3 O 0.0997(3) 1.6025(3) -0.0187(2)
O4B_2 O -0.0997(3) 1.3975(3) 0.0187(2)
O5_2 O 0.2872(3) 1.4637(4) 0.1528(2)
H1_2 H 0.3012 1.5779 0.1382
H2_2 H 0.2891 1.4564 0.2184
N1_2 N 0.1580(3) 1.1707(4) -0.0340(2)
N2_2 N 0.2050(3) 0.9048(4) -0.1660(2)
N3B N -0.0308(3) 0.5677(5) 0.7540(2)
N3_2 N 0.0308(3) 1.4323(5) 0.2460(2)
C1_2 C 0.1705(3) 1.0022(5) -0.0047(2)
C2_2 C 0.1924(3) 0.8687(5) -0.0712(2)
C3_2 C 0.1930(4) 1.0728(5) -0.1935(3)
H3_2 H 0.2003 1.1017 -0.2589
C4_2 C 0.1699(4) 1.2063(5) -0.1273(3)
H4_2 H 0.1626 1.3222 -0.1491
C5_2 C 0.1632(4) 0.9695(5) 0.1044(3)
C6_2 C 0.1999(4) 0.6736(5) -0.0437(3)
C7B C -0.0049(4) 0.5143(5) 0.5534(3)
C8B C -0.0357(4) 0.3763(6) 0.6150(3)
H5B H -0.0477 0.2629 0.5904
C9B C -0.0482(4) 0.4098(6) 0.7128(3)
H6B H -0.0701 0.3166 0.7523
C10B C 0.0004(4) 0.6993(6) 0.6948(3)
H7B H 0.0137 0.8107 0.7218
C11B C 0.0139(4) 0.6786(6) 0.5959(3)
H8B H 0.0355 0.7744 0.5581
loop_
_geom_bond_atom_site_label_1
_geom_bond_atom_site_label_2
_geom_bond_site_symmetry_1
_geom_bond_site_symmetry_2
Cd1 O1 1_555 1_555
O1 C5 1_555 1_555
O2 C5 1_555 1_555
O3 C6 1_555 1_555
O4 C6 1_555 1_555
O5 Cd1 1_555 1_555
H1 O5 1_555 1_555
H2 O5 1_555 1_555
N1 Cd1 1_555 1_555
N2 C2 1_555 1_555
N3 Cd1 1_555 1_555
C1 N1 1_555 1_555
C2 C1 1_555 1_555
C3 N2 1_555 1_555
H3 C3 1_555 1_555
C4 N1 1_555 1_555
H4 C4 1_555 1_555
C5 C1 1_555 1_555
C6 C2 1_555 1_555
C7 C8 1_555 1_555
C8 H5 1_555 1_555
C9 N3 1_555 1_555
H6 C9 1_555 1_555
C10 N3 1_555 1_555
H7 C10 1_555 1_555
C11 C7 1_555 1_555
H8 C11 1_555 1_555
Cd1_2 O1_2 1_555 1_555
Cd1_3 O4 1_555 1_555
Cd1B O4 1_555 1_555
Cd1B_2 N3B 1_555 1_555
Cd1B_3 O4_2 1_555 1_555
O1_2 C5_2 1_555 1_555
O2_2 C5_2 1_555 1_555
O3_2 C6_2 1_555 1_555
O4_2 Cd1 1_555 1_555
O4B Cd1 1_555 1_555
O4_3 Cd1_2 1_555 1_555
O4B_2 Cd1_2 1_555 1_555
O5_2 Cd1_2 1_555 1_555
H1_2 O5_2 1_555 1_555
H2_2 O5_2 1_555 1_555
N1_2 Cd1_2 1_555 1_555
N2_2 C2_2 1_555 1_555
N3B C9B 1_555 1_555
N3_2 Cd1_2 1_555 1_555
C1_2 N1_2 1_555 1_555
C2_2 C1_2 1_555 1_555
C3_2 N2_2 1_555 1_555
H3_2 C3_2 1_555 1_555
C4_2 N1_2 1_555 1_555
H4_2 C4_2 1_555 1_555
C5_2 C1_2 1_555 1_555
C6_2 O4_2 1_555 1_555
C7B C7 1_555 1_555
C8B C7B 1_555 1_555
H5B C8B 1_555 1_555
C9B C8B 1_555 1_555
H6B C9B 1_555 1_555
C10B N3B 1_555 1_555
H7B C10B 1_555 1_555
C11B C7B 1_555 1_555
H8B C11B 1_555 1_555
C3 C4 1_555 1_555
C8 C9 1_555 1_555
C10 C11 1_555 1_555
Cd1B_3 O4B 1_555 1_555
C2_2 C6_2 1_555 1_555
C3_2 C4_2 1_555 1_555
C10B C11B 1_555 1_555

#END
