
#######################################################################
#
#                 Cambridge Crystallographic Data Centre
#                                CCDC 
#
#######################################################################
#
# If this CIF has been generated from an entry in the Cambridge 
# Structural Database, then it will include bibliographic, chemical, 
# crystal, experimental, refinement or atomic coordinate data resulting 
# from the CCDC's data processing and validation procedures.
#
#######################################################################

data_VIHYAN
_symmetry_cell_setting           monoclinic
_symmetry_space_group_name_H-M   'P 21/c'
_symmetry_Int_Tables_number      14
_space_group_name_Hall           '-P 2ybc'
loop_
_symmetry_equiv_pos_site_id
_symmetry_equiv_pos_as_xyz
1 x,y,z
2 -x,1/2+y,1/2-z
3 -x,-y,-z
4 x,1/2-y,1/2+z
_cell_length_a                   11.7975(11)
_cell_length_b                   14.4706(12)
_cell_length_c                   10.0012(8)
_cell_angle_alpha                90
_cell_angle_beta                 95.193(3)
_cell_angle_gamma                90
_cell_volume                     1700.37
loop_
_atom_site_label
_atom_site_type_symbol
_atom_site_fract_x
_atom_site_fract_y
_atom_site_fract_z
Cd1 Cd -0.352180(19) -0.108300(15) 0.44234(2)
O1 O -0.3589(2) -0.26528(16) 0.4805(2)
O2 O -0.4236(2) -0.40200(14) 0.4042(2)
O3 O -0.45111(19) -0.44631(15) 0.1102(2)
O4 O -0.62431(19) -0.47104(15) 0.1748(2)
N1 N -0.4884(2) -0.17693(17) 0.2848(3)
N2 N -0.6227(2) -0.27455(19) 0.0920(3)
N3 N -0.1814(2) -0.13672(18) 0.3417(3)
N4 N -0.1943(2) -0.08583(18) 0.6033(3)
C1 C -0.4870(2) -0.2694(2) 0.2840(3)
C2 C -0.5509(3) -0.3175(2) 0.1828(3)
C3 C -0.6265(3) -0.1829(2) 0.0976(4)
H1 H -0.6774 -0.1512 0.0377
C4 C -0.5562(3) -0.1333(2) 0.1908(4)
H2 H -0.5564 -0.0691 0.1877
C5 C -0.4161(3) -0.3165(2) 0.3992(3)
C6 C -0.5398(3) -0.4204(2) 0.1561(3)
C7 C -0.1751(4) -0.1618(2) 0.2147(4)
H3 H -0.2419 -0.1675 0.1584
C8 C -0.0708(4) -0.1799(3) 0.1631(4)
H4 H -0.0695 -0.1966 0.0735
C9 C 0.0279(4) -0.1733(3) 0.2427(4)
H5 H 0.0971 -0.1856 0.2086
C10 C 0.1252(3) -0.1402(3) 0.4697(4)
H6 H 0.1959 -0.1531 0.4398
C11 C 0.1185(3) -0.1149(2) 0.5978(4)
H7 H 0.1849 -0.1102 0.6551
C12 C 0.0006(3) -0.0701(3) 0.7815(4)
H8 H 0.0649 -0.0644 0.8420
C13 C -0.1048(3) -0.0541(3) 0.8228(3)
H9 H -0.1129 -0.0378 0.9113
C14 C -0.2007(3) -0.0628(3) 0.7298(3)
H10 H -0.2722 -0.0518 0.7589
C15 C 0.0118(3) -0.0950(2) 0.6478(4)
C16 C -0.0901(3) -0.1020(2) 0.5606(3)
C17 C -0.0834(3) -0.1290(2) 0.4225(3)
C18 C 0.0242(3) -0.1476(2) 0.3780(4)
Cd1C Cd -0.352180(19) -0.391700(15) -0.05766(2)
Cd1A Cd -0.647820(19) -0.608300(15) 0.05766(2)
O3C O -0.45111(19) -0.05369(15) 0.6102(2)
O4A O -0.37569(19) 0.02896(15) 0.3252(2)
O5 O -0.7264(2) -1.01208(18) -0.0730(3)
H11 H -0.6852 -1.0116 -0.1449
H12 H -0.6724 -0.9903 -0.0265
loop_
_geom_bond_atom_site_label_1
_geom_bond_atom_site_label_2
_geom_bond_site_symmetry_1
_geom_bond_site_symmetry_2
Cd1 O1 1_555 1_555
O1 C5 1_555 1_555
O2 C5 1_555 1_555
O3 C6 1_555 1_555
O4 C6 1_555 1_555
N1 Cd1 1_555 1_555
N2 C2 1_555 1_555
N3 Cd1 1_555 1_555
N4 Cd1 1_555 1_555
C1 N1 1_555 1_555
C2 C1 1_555 1_555
C3 N2 1_555 1_555
H1 C3 1_555 1_555
C4 N1 1_555 1_555
H2 C4 1_555 1_555
C5 C1 1_555 1_555
C6 C2 1_555 1_555
C7 N3 1_555 1_555
H3 C7 1_555 1_555
C8 C7 1_555 1_555
H4 C8 1_555 1_555
C9 C8 1_555 1_555
H5 C9 1_555 1_555
C10 H6 1_555 1_555
C11 C10 1_555 1_555
H7 C11 1_555 1_555
C12 H8 1_555 1_555
C13 C12 1_555 1_555
H9 C13 1_555 1_555
C14 N4 1_555 1_555
H10 C14 1_555 1_555
C15 C11 1_555 1_555
C16 N4 1_555 1_555
C17 N3 1_555 1_555
C18 C9 1_555 1_555
O5 H11 1_555 1_555
H12 O5 1_555 1_555
Cd1C O3 1_555 1_555
Cd1A O4 1_555 1_555
O3C Cd1 1_555 1_555
O4A Cd1 1_555 1_555
C3 C4 1_555 1_555
C10 C18 1_555 1_555
C12 C15 1_555 1_555
C13 C14 1_555 1_555
C15 C16 1_555 1_555
C16 C17 1_555 1_555
C17 C18 1_555 1_555

#END
