
#######################################################################
#
#                 Cambridge Crystallographic Data Centre
#                                CCDC 
#
#######################################################################
#
# If this CIF has been generated from an entry in the Cambridge 
# Structural Database, then it will include bibliographic, chemical, 
# crystal, experimental, refinement or atomic coordinate data resulting 
# from the CCDC's data processing and validation procedures.
#
#######################################################################

data_VIHYER01
_symmetry_cell_setting           monoclinic
_symmetry_space_group_name_H-M   'P 21/n'
_symmetry_Int_Tables_number      14
_space_group_name_Hall           '-P 2yn'
loop_
_symmetry_equiv_pos_site_id
_symmetry_equiv_pos_as_xyz
1 x,y,z
2 1/2-x,1/2+y,1/2-z
3 -x,-y,-z
4 1/2+x,1/2-y,1/2+z
_cell_length_a                   10.8808(18)
_cell_length_b                   7.5579(18)
_cell_length_c                   13.719(2)
_cell_angle_alpha                90
_cell_angle_beta                 92.954(12)
_cell_angle_gamma                90
_cell_volume                     1126.7
loop_
_atom_site_label
_atom_site_type_symbol
_atom_site_fract_x
_atom_site_fract_y
_atom_site_fract_z
Cd1 Cd 0.901188(19) 0.13106(3) 0.910262(14)
C1 C 0.8066(3) 0.4277(4) 1.1930(2)
H1 H 0.7983 0.3986 1.2582
C2 C 0.8297(3) 0.2937(4) 1.1275(2)
H2 H 0.8371 0.1776 1.1494
C3 C 0.8295(3) 0.4987(4) 1.0047(2)
C4 C 0.8086(3) 0.6328(4) 1.0712(2)
C5 C 0.7999(3) 0.8270(4) 1.0440(2)
C6 C 0.8363(3) 0.5313(4) 0.8957(2)
C7 C 1.0008(3) 0.1993(5) 0.6950(2)
H3 H 1.0140 0.3109 0.7221
C8 C 1.0143(3) 0.1793(5) 0.5960(2)
H4 H 1.0360 0.2754 0.5582
C9 C 0.9949(3) 0.0134(4) 0.55334(19)
C10 C 0.9656(3) -0.1237(4) 0.6150(2)
H5 H 0.9542 -0.2375 0.5903
C11 C 0.9532(3) -0.0915(5) 0.7132(2)
H6 H 0.9322 -0.1854 0.7528
N1 N 0.8414(2) 0.3298(3) 1.03317(17)
N2 N 0.7958(2) 0.5962(4) 1.16622(18)
N3 N 0.9698(2) 0.0680(4) 0.75401(17)
O1 O 0.8821(3) 0.4101(3) 0.84669(16)
O2 O 0.7941(2) 0.6712(3) 0.86226(16)
O3 O 0.9005(2) 0.8968(3) 1.01879(16)
O4 O 0.7018(2) 0.9022(3) 1.0502(2)
O5 O 0.7132(2) 0.0351(4) 0.84708(17)
H7 H 0.700(4) -0.074(3) 0.861(3)
H8 H 0.704(4) 0.051(5) 0.7873(15)
Cd1_2 Cd 0.901188(19) -0.86894(3) 0.910262(14)
Cd1_3 Cd 0.901188(19) 1.13106(3) 0.910262(14)
Cd1B Cd 1.098812(19) 0.86894(3) 1.089738(14)
Cd1B_2 Cd 1.098812(19) -0.13106(3) 0.089738(14)
Cd1B_3 Cd 1.098812(19) -0.13106(3) 1.089738(14)
C1_2 C 0.8066(3) -0.5723(4) 1.1930(2)
H1_2 H 0.7983 -0.6014 1.2582
C2_2 C 0.8297(3) -0.7063(4) 1.1275(2)
H2_2 H 0.8371 -0.8224 1.1494
C3_2 C 0.8295(3) -0.5013(4) 1.0047(2)
C4_2 C 0.8086(3) -0.3672(4) 1.0712(2)
C5_2 C 0.7999(3) -0.1730(4) 1.0440(2)
C6_2 C 0.8363(3) -0.4687(4) 0.8957(2)
C7B C 0.9992(3) -0.1993(5) 0.3050(2)
H3B H 0.9860 -0.3109 0.2779
C8B C 0.9857(3) -0.1793(5) 0.4040(2)
H4B H 0.9640 -0.2754 0.4418
C9B C 1.0051(3) -0.0134(4) 0.44666(19)
C10B C 1.0344(3) 0.1237(4) 0.3850(2)
H5B H 1.0458 0.2375 0.4097
C11B C 1.0468(3) 0.0915(5) 0.2868(2)
H6B H 1.0678 0.1854 0.2472
N1_2 N 0.8414(2) -0.6702(3) 1.03317(17)
N2_2 N 0.7958(2) -0.4038(4) 1.16622(18)
N3B N 1.0302(2) -0.0680(4) 0.24599(17)
N3_2 N 0.9698(2) -0.9320(4) 0.75401(17)
O1_2 O 0.8821(3) -0.5899(3) 0.84669(16)
O2_2 O 0.7941(2) -0.3288(3) 0.86226(16)
O3_2 O 0.9005(2) -0.1032(3) 1.01879(16)
O3B O 1.0995(2) 0.1032(3) 0.98121(16)
O3_3 O 0.9005(2) -1.1032(3) 1.01879(16)
O3B_2 O 1.0995(2) -0.8968(3) 0.98121(16)
O4_2 O 0.7018(2) -0.0978(3) 1.0502(2)
O5_2 O 0.7132(2) -0.9649(4) 0.84708(17)
H7_2 H 0.700(4) -1.074(3) 0.861(3)
H8_2 H 0.704(4) -0.949(5) 0.7873(15)
loop_
_geom_bond_atom_site_label_1
_geom_bond_atom_site_label_2
_geom_bond_site_symmetry_1
_geom_bond_site_symmetry_2
Cd1 N1 1_555 1_555
C1 H1 1_555 1_555
C2 C1 1_555 1_555
H2 C2 1_555 1_555
C3 C4 1_555 1_555
C4 C5 1_555 1_555
C5 O3 1_555 1_555
C6 C3 1_555 1_555
C7 H3 1_555 1_555
C8 C7 1_555 1_555
H4 C8 1_555 1_555
C9 C8 1_555 1_555
C10 C9 1_555 1_555
H5 C10 1_555 1_555
C11 C10 1_555 1_555
H6 C11 1_555 1_555
N1 C2 1_555 1_555
N2 C1 1_555 1_555
N3 Cd1 1_555 1_555
O1 Cd1 1_555 1_555
O2 C6 1_555 1_555
O3 Cd1_3 1_555 1_555
O4 C5 1_555 1_555
O5 Cd1 1_555 1_555
H7 O5 1_555 1_555
H8 O5 1_555 1_555
Cd1_2 N1_2 1_555 1_555
Cd1B O3 1_555 1_555
Cd1B_2 N3B 1_555 1_555
Cd1B_3 O3_2 1_555 1_555
C1_2 H1_2 1_555 1_555
C2_2 C1_2 1_555 1_555
H2_2 C2_2 1_555 1_555
C3_2 C4_2 1_555 1_555
C4_2 C5_2 1_555 1_555
C5_2 O3_2 1_555 1_555
C6_2 C3_2 1_555 1_555
C7B H3B 1_555 1_555
C8B C7B 1_555 1_555
H4B C8B 1_555 1_555
C9B C9 1_555 1_555
C10B C9B 1_555 1_555
H5B C10B 1_555 1_555
C11B C10B 1_555 1_555
H6B C11B 1_555 1_555
N1_2 C2_2 1_555 1_555
N2_2 C1_2 1_555 1_555
N3B C7B 1_555 1_555
N3_2 Cd1_2 1_555 1_555
O1_2 Cd1_2 1_555 1_555
O2_2 C6_2 1_555 1_555
O3_2 Cd1 1_555 1_555
O3B Cd1 1_555 1_555
O3_3 Cd1_2 1_555 1_555
O3B_2 Cd1_2 1_555 1_555
O4_2 C5_2 1_555 1_555
O5_2 Cd1_2 1_555 1_555
H7_2 O5_2 1_555 1_555
H8_2 O5_2 1_555 1_555
C3 N1 1_555 1_555
C4 N2 1_555 1_555
C6 O1 1_555 1_555
C7 N3 1_555 1_555
C11 N3 1_555 1_555
Cd1B_3 O3B 1_555 1_555
C3_2 N1_2 1_555 1_555
C4_2 N2_2 1_555 1_555
C6_2 O1_2 1_555 1_555
C8B C9B 1_555 1_555
C11B N3B 1_555 1_555

#END
