
#######################################################################
#
#                 Cambridge Crystallographic Data Centre
#                                CCDC 
#
#######################################################################
#
# If this CIF has been generated from an entry in the Cambridge 
# Structural Database, then it will include bibliographic, chemical, 
# crystal, experimental, refinement or atomic coordinate data resulting 
# from the CCDC's data processing and validation procedures.
#
#######################################################################

data_VIHYIW
_symmetry_cell_setting           triclinic
_symmetry_space_group_name_H-M   'P -1'
_symmetry_Int_Tables_number      2
_space_group_name_Hall           '-P 1'
loop_
_symmetry_equiv_pos_site_id
_symmetry_equiv_pos_as_xyz
1 x,y,z
2 -x,-y,-z
_cell_length_a                   8.8119(9)
_cell_length_b                   11.3672(12)
_cell_length_c                   11.689(2)
_cell_angle_alpha                108.992(2)
_cell_angle_beta                 98.580(2)
_cell_angle_gamma                108.0450(10)
_cell_volume                     1011.14
loop_
_atom_site_label
_atom_site_type_symbol
_atom_site_fract_x
_atom_site_fract_y
_atom_site_fract_z
Ni1 Ni 0.25573(3) 0.26112(2) -0.07708(2)
N1 N 0.4113(2) 0.24179(18) 0.06285(16)
N2 N 1.1080(2) 0.28056(17) 0.77588(16)
O1 O 0.33188(18) 0.13330(14) -0.21218(13)
O2 O 0.47266(18) 0.35168(14) -0.13094(14)
O3 O 0.0538(2) 0.13516(17) -0.83416(15)
O4 O 0.1854(3) 0.35806(16) -0.74683(16)
O5 O 0.23408(19) 0.42265(14) 0.05553(13)
H1 H 0.2117 0.4034 0.1171
H2 H 0.3178 0.4968 0.0851
O6 O 0.04485(19) 0.13273(15) -0.06286(14)
H3 H 0.0463 0.1399 0.0120
H4 H 0.0102 0.0492 -0.1087
C1 C 0.4458(3) 0.2347(2) -0.20925(19)
C2 C 0.5400(3) 0.2181(3) -0.3070(2)
H5 H 0.5534 0.1327 -0.3287
H6 H 0.6494 0.2898 -0.2744
C3 C 0.4421(3) 0.2229(2) -0.4228(2)
C4 C 0.3446(3) 0.1064(2) -0.5286(2)
H7 H 0.3422 0.0236 -0.5300
C5 C 0.2510(3) 0.1112(2) -0.6318(2)
H8 H 0.1877 0.0319 -0.7017
C6 C 0.2503(3) 0.2335(2) -0.6323(2)
C7 C 0.3474(4) 0.3495(2) -0.5259(2)
H9 H 0.3488 0.4323 -0.5239
C8 C 0.4418(4) 0.3450(2) -0.4232(2)
H10 H 0.5059 0.4245 -0.3536
C9 C 0.1557(3) 0.2434(2) -0.7456(2)
C10 C 0.5353(3) 0.3515(2) 0.1522(2)
H11 H 0.5501 0.4350 0.1491
C11 C 0.6409(3) 0.3464(2) 0.2476(2)
H12 H 0.7233 0.4254 0.3083
C12 C 0.6252(3) 0.2230(2) 0.2538(2)
C13 C 0.5002(3) 0.1091(2) 0.1590(2)
H13 H 0.4868 0.0240 0.1572
C14 C 0.3963(3) 0.1225(2) 0.0677(2)
H14 H 0.3117 0.0452 0.0066
C15 C 0.7321(3) 0.2119(3) 0.3553(2)
H15 H 0.7427 0.1296 0.3398
C16 C 0.8149(3) 0.3105(2) 0.4677(2)
H16 H 0.8072 0.3935 0.4814
C17 C 0.9175(3) 0.3001(2) 0.5720(2)
C18 C 0.9679(3) 0.1925(2) 0.5563(2)
H17 H 0.9388 0.1246 0.4768
C19 C 1.0602(3) 0.1870(2) 0.6581(2)
H18 H 1.0918 0.1139 0.6448
C20 C 1.0594(3) 0.3844(2) 0.7915(2)
H19 H 1.0896 0.4506 0.8722
C21 C 0.9671(3) 0.3975(2) 0.6938(2)
H20 H 0.9377 0.4719 0.7094
Ni1_2 Ni 1.25573(3) 0.26112(2) 0.92292(2)
N2_2 N 0.1080(2) 0.28056(17) -0.22412(16)
O7 O 0.2189(6) 0.7587(6) 0.0410(6)
H21 H 0.2941 0.7315 0.0621
H22 H 0.1557 0.7995 0.0640
loop_
_geom_bond_atom_site_label_1
_geom_bond_atom_site_label_2
_geom_bond_site_symmetry_1
_geom_bond_site_symmetry_2
Ni1 N1 1_555 1_555
N1 C10 1_555 1_555
N2 C19 1_555 1_555
O1 Ni1 1_555 1_555
O2 Ni1 1_555 1_555
O3 C9 1_555 1_555
O4 C9 1_555 1_555
O5 Ni1 1_555 1_555
H1 O5 1_555 1_555
H2 O5 1_555 1_555
O6 Ni1 1_555 1_555
H3 O6 1_555 1_555
H4 O6 1_555 1_555
C1 O1 1_555 1_555
C2 C1 1_555 1_555
H5 C2 1_555 1_555
H6 C2 1_555 1_555
C3 C2 1_555 1_555
C4 C3 1_555 1_555
H7 C4 1_555 1_555
C5 C4 1_555 1_555
H8 C5 1_555 1_555
C6 C5 1_555 1_555
C7 C6 1_555 1_555
H9 C7 1_555 1_555
C8 C3 1_555 1_555
H10 C8 1_555 1_555
C9 C6 1_555 1_555
C10 H11 1_555 1_555
C11 C10 1_555 1_555
H12 C11 1_555 1_555
C12 C11 1_555 1_555
C13 C12 1_555 1_555
H13 C13 1_555 1_555
C14 N1 1_555 1_555
H14 C14 1_555 1_555
C15 C12 1_555 1_555
H15 C15 1_555 1_555
C16 C15 1_555 1_555
H16 C16 1_555 1_555
C17 C16 1_555 1_555
C18 C17 1_555 1_555
H17 C18 1_555 1_555
C19 C18 1_555 1_555
H18 C19 1_555 1_555
C20 N2 1_555 1_555
H19 C20 1_555 1_555
C21 C17 1_555 1_555
H20 C21 1_555 1_555
O7 H21 1_555 1_555
H22 O7 1_555 1_555
Ni1_2 N2 1_555 1_555
N2_2 Ni1 1_555 1_555
O2 C1 1_555 1_555
C7 C8 1_555 1_555
C13 C14 1_555 1_555
C20 C21 1_555 1_555

#END
