
#######################################################################
#
#                 Cambridge Crystallographic Data Centre
#                                CCDC 
#
#######################################################################
#
# If this CIF has been generated from an entry in the Cambridge 
# Structural Database, then it will include bibliographic, chemical, 
# crystal, experimental, refinement or atomic coordinate data resulting 
# from the CCDC's data processing and validation procedures.
#
#######################################################################

data_VIHZIX
_symmetry_cell_setting           monoclinic
_symmetry_space_group_name_H-M   'C 2'
_symmetry_Int_Tables_number      5
_space_group_name_Hall           'C 2y'
loop_
_symmetry_equiv_pos_site_id
_symmetry_equiv_pos_as_xyz
1 x,y,z
2 -x,y,-z
3 1/2+x,1/2+y,z
4 1/2-x,1/2+y,-z
_cell_length_a                   18.372(9)
_cell_length_b                   3.8595(18)
_cell_length_c                   16.038(8)
_cell_angle_alpha                90
_cell_angle_beta                 115.086(7)
_cell_angle_gamma                90
_cell_volume                     1029.93
loop_
_atom_site_label
_atom_site_type_symbol
_atom_site_fract_x
_atom_site_fract_y
_atom_site_fract_z
Ta1 Ta 0.0000 1.0583(14) 0.0000
F1 F 0.0000 0.524(6) 0.0000
F2 F -0.0859(4) 1.044(5) 0.0360(4)
F3 F 0.0758(4) 1.015(4) 0.1258(4)
F2A F 0.0859(4) 1.044(5) -0.0360(4)
F3A F -0.0758(4) 1.015(4) -0.1258(4)
Ta1_2 Ta 0.0000 0.0583(14) 0.0000
F1_2 F 0.0000 1.524(6) 0.0000
Cu1 Cu 0.44181(6) 0.5590(19) 0.42753(7)
N1 N 0.5089(7) 0.289(3) 0.3860(7)
N2 N 0.3573(6) 0.476(3) 0.2968(6)
C1 C 0.5860(7) 0.219(2) 0.4393(8)
C2 C 0.6314(6) 0.058(2) 0.3994(7)
H1 H 0.6853 0.0082 0.4355
C3 C 0.5988(8) -0.027(3) 0.3096(9)
H2 H 0.6297 -0.1350 0.2838
C4 C 0.5159(6) 0.050(4) 0.2543(7)
H3 H 0.4921 -0.0042 0.1920
C5 C 0.4735(7) 0.202(3) 0.2937(7)
C6 C 0.3872(8) 0.310(4) 0.2428(8)
C7 C 0.3386(8) 0.230(4) 0.1551(8)
H4 H 0.3586 0.0986 0.1207
C8 C 0.2598(8) 0.338(4) 0.1153(9)
H5 H 0.2263 0.2780 0.0549
C9 C 0.2301(7) 0.547(8) 0.1695(8)
H6 H 0.1810 0.6623 0.1446
C10 C 0.2803(6) 0.557(7) 0.2585(7)
H7 H 0.2585 0.6297 0.2984
O1 O 0.6160(6) 0.306(4) 0.5235(6)
Cu1A Cu 0.55819(6) 0.5590(19) 0.57247(7)
N1A N 0.4911(7) 0.289(3) 0.6140(7)
N2A N 0.6427(6) 0.476(3) 0.7032(6)
C1A C 0.4140(7) 0.219(2) 0.5607(8)
C2A C 0.3686(6) 0.058(2) 0.6006(7)
H1A H 0.3147 0.0082 0.5645
C3A C 0.4012(8) -0.027(3) 0.6904(9)
H2A H 0.3703 -0.1350 0.7162
C4A C 0.4841(6) 0.050(4) 0.7457(7)
H3A H 0.5079 -0.0042 0.8080
C5A C 0.5265(7) 0.202(3) 0.7063(7)
C6A C 0.6128(8) 0.310(4) 0.7572(8)
C7A C 0.6614(8) 0.230(4) 0.8449(8)
H4A H 0.6414 0.0986 0.8793
C8A C 0.7402(8) 0.338(4) 0.8847(9)
H5A H 0.7737 0.2780 0.9451
C9A C 0.7699(7) 0.547(8) 0.8305(8)
H6A H 0.8190 0.6623 0.8554
C10A C 0.7197(6) 0.557(7) 0.7415(7)
H7A H 0.7415 0.6297 0.7016
O1A O 0.3840(6) 0.306(4) 0.4765(6)
loop_
_geom_bond_atom_site_label_1
_geom_bond_atom_site_label_2
_geom_bond_site_symmetry_1
_geom_bond_site_symmetry_2
Ta1 F1 1_555 1_555
F1 Ta1_2 1_555 1_555
F2 Ta1 1_555 1_555
F3 Ta1 1_555 1_555
Cu1 N1 1_555 1_555
N1 C1 1_555 1_555
N2 Cu1 1_555 1_555
C1 C2 1_555 1_555
C2 H1 1_555 1_555
C3 C2 1_555 1_555
H2 C3 1_555 1_555
C4 C3 1_555 1_555
H3 C4 1_555 1_555
C5 N1 1_555 1_555
C6 N2 1_555 1_555
C7 C6 1_555 1_555
H4 C7 1_555 1_555
C8 C7 1_555 1_555
H5 C8 1_555 1_555
C9 C8 1_555 1_555
H6 C9 1_555 1_555
C10 N2 1_555 1_555
H7 C10 1_555 1_555
O1 C1 1_555 1_555
F2A Ta1 1_555 1_555
F3A Ta1 1_555 1_555
F1_2 Ta1 1_555 1_555
Cu1A Cu1 1_555 1_555
N1A Cu1A 1_555 1_555
N2A Cu1A 1_555 1_555
C1A N1A 1_555 1_555
C2A C1A 1_555 1_555
H1A C2A 1_555 1_555
C3A C2A 1_555 1_555
H2A C3A 1_555 1_555
C4A C3A 1_555 1_555
H3A C4A 1_555 1_555
C5A N1A 1_555 1_555
C6A N2A 1_555 1_555
C7A C6A 1_555 1_555
H4A C7A 1_555 1_555
C8A C7A 1_555 1_555
H5A C8A 1_555 1_555
C9A C8A 1_555 1_555
H6A C9A 1_555 1_555
C10A N2A 1_555 1_555
H7A C10A 1_555 1_555
O1A Cu1 1_555 1_555
C4 C5 1_555 1_555
C5 C6 1_555 1_555
C9 C10 1_555 1_555
O1 Cu1A 1_555 1_555
C1A O1A 1_555 1_555
C4A C5A 1_555 1_555
C5A C6A 1_555 1_555
C9A C10A 1_555 1_555

#END
