
#######################################################################
#
#                 Cambridge Crystallographic Data Centre
#                                CCDC 
#
#######################################################################
#
# If this CIF has been generated from an entry in the Cambridge 
# Structural Database, then it will include bibliographic, chemical, 
# crystal, experimental, refinement or atomic coordinate data resulting 
# from the CCDC's data processing and validation procedures.
#
#######################################################################

data_VIJDAU
_symmetry_cell_setting           monoclinic
_symmetry_space_group_name_H-M   'P 21/c'
_symmetry_Int_Tables_number      14
_space_group_name_Hall           '-P 2ybc'
loop_
_symmetry_equiv_pos_site_id
_symmetry_equiv_pos_as_xyz
1 x,y,z
2 -x,1/2+y,1/2-z
3 -x,-y,-z
4 x,1/2-y,1/2+z
_cell_length_a                   18.0965(11)
_cell_length_b                   18.3267(12)
_cell_length_c                   21.7131(12)
_cell_angle_alpha                90
_cell_angle_beta                 96.159(4)
_cell_angle_gamma                90
_cell_volume                     7159.57
loop_
_atom_site_label
_atom_site_type_symbol
_atom_site_fract_x
_atom_site_fract_y
_atom_site_fract_z
Cu1 Cu 0.04861(6) 0.25123(8) 0.48055(6)
Cu2 Cu -0.04073(6) 0.23370(7) 0.56563(5)
Cu3 Cu 0.02513(6) 0.31975(8) 0.65841(6)
Cu4 Cu -0.05943(7) 0.20828(8) 0.26885(7)
Cu5 Cu 0.00106(7) 0.02452(11) 0.62340(8)
Cu6 Cu 0.01221(7) 0.43975(13) 0.36599(8)
O1 O -0.4321(3) 0.1089(3) 0.2487(3)
O2 O 0.5205(3) 0.0750(3) 0.4777(2)
O3 O -0.4130(3) 0.2078(3) 0.4595(3)
O4 O 0.4733(3) 0.3015(3) 0.3730(2)
O5 O 0.5269(3) 0.0981(3) 0.6792(2)
O6 O 0.5211(3) 0.5357(3) 0.3626(3)
O7 O -0.3559(3) -0.0234(3) 0.4983(3)
O8 O 0.4863(3) 0.4040(3) 0.3223(2)
O9 O -0.5333(3) 0.0455(3) 0.3531(2)
O10 O -0.3590(3) -0.1068(4) 0.5735(3)
O11 O 0.5042(3) 0.5625(3) 0.4589(3)
O12 O 0.4176(3) 0.1613(3) 0.5717(3)
O13 O -0.3634(3) 0.4076(4) 0.3794(3)
O14 O -0.4305(3) 0.1803(4) 0.3326(3)
O15 O 0.4306(3) 0.2296(3) 0.4885(3)
O16 O -0.3682(3) 0.4546(3) 0.2840(3)
O17 O 0.5925(3) 0.0986(4) 0.5984(3)
O18 O 0.3777(3) 0.3264(3) 0.8159(3)
O19 O 0.3642(3) 0.5161(3) 0.5024(3)
O20 O 0.3988(3) 0.3967(3) 0.7355(3)
O21 O 0.3701(3) 0.0358(4) 0.7404(3)
O22 O -0.4160(3) 0.3240(3) 0.4890(3)
N1 N 0.1381(4) 0.3161(5) 0.6825(3)
O23 O 0.3952(3) 0.4407(3) 0.4274(3)
O24 O 0.3838(3) 0.0041(4) 0.6444(3)
C1 C -0.3844(4) 0.2649(5) 0.4810(4)
N2 N -0.1703(4) 0.1969(5) 0.2729(4)
C2 C 0.3936(5) 0.2039(5) 0.5294(4)
C3 C -0.4020(5) 0.1521(5) 0.2887(4)
N3 N 0.1609(4) 0.2476(4) 0.5056(4)
C4 C -0.2495(4) -0.0380(5) 0.5705(4)
N4 N -0.1504(4) 0.2476(5) 0.5365(4)
C5 C -0.3340(4) 0.4299(5) 0.3335(4)
N5 N 0.1169(4) 0.4550(5) 0.3926(4)
C6 C 0.3599(5) 0.3552(5) 0.7648(4)
C7 C -0.3027(4) 0.2587(5) 0.5033(4)
C8 C 0.3440(5) 0.0224(5) 0.6864(5)
C9 C -0.3281(5) -0.0579(5) 0.5464(4)
C10 C -0.2618(5) 0.2058(6) 0.4794(4)
H1 H -0.2848 0.1714 0.4522
C11 C 0.4680(5) 0.3364(5) 0.3223(4)
C12 C 0.5110(5) 0.5824(5) 0.4033(5)
C13 C -0.2099(5) 0.1501(5) 0.2355(4)
H2 H -0.1857 0.1260 0.2058
N6 N -0.1040(4) 0.0015(5) 0.6121(4)
N7 N 0.1082(4) 0.0276(5) 0.6408(4)
C14 C -0.2501(4) 0.4292(5) 0.3386(4)
C15 C 0.3497(5) 0.4755(5) 0.4563(4)
C16 C 0.1867(5) 0.3531(6) 0.6522(4)
H3 H 0.1708 0.3708 0.6129
C17 C -0.2095(5) 0.4058(6) 0.3917(4)
H4 H -0.2330 0.3862 0.4240
C18 C -0.2258(5) 0.0335(6) 0.5692(4)
H5 H -0.2582 0.0703 0.5543
C19 C -0.2115(5) 0.4522(6) 0.2905(4)
H6 H -0.2373 0.4653 0.2528
C20 C 0.2586(5) 0.3664(6) 0.6761(4)
H7 H 0.2901 0.3934 0.6538
N8 N -0.0949(4) 0.4361(5) 0.3511(4)
C21 C -0.2671(5) 0.3086(6) 0.5429(4)
H8 H -0.2932 0.3470 0.5583
C22 C 0.2150(5) 0.4855(6) 0.4701(5)
H9 H 0.2286 0.5023 0.5102
C23 C 0.5815(5) 0.1215(5) 0.6509(5)
C24 C -0.1915(5) 0.3007(6) 0.5596(5)
H10 H -0.1679 0.3334 0.5880
C25 C -0.1343(5) 0.4559(6) 0.2982(5)
H11 H -0.1095 0.4727 0.2656
C26 C 0.5072(7) 0.6621(6) 0.3876(4)
H12 H 0.4576 0.6795 0.3899
H13 H 0.5205 0.6691 0.3464
H14 H 0.5411 0.6885 0.4164
C27 C 0.2070(5) 0.2823(6) 0.4724(5)
H15 H 0.1876 0.3151 0.4423
C28 C -0.2004(5) -0.0883(6) 0.5952(4)
H16 H -0.2153 -0.1365 0.5994
C29 C -0.1863(5) 0.2029(6) 0.4953(4)
H17 H -0.1590 0.1681 0.4763
C30 C -0.1529(5) 0.0494(6) 0.5906(5)
H18 H -0.1378 0.0978 0.5895
C31 C -0.2080(5) 0.2320(6) 0.3132(5)
H19 H -0.1827 0.2664 0.3389
C32 C 0.1409(6) 0.4783(6) 0.4487(5)
H20 H 0.1059 0.4906 0.4752
C33 C 0.1637(5) 0.2889(6) 0.7369(4)
H21 H 0.1314 0.2616 0.7582
C34 C 0.2348(4) 0.2983(6) 0.7638(4)
H22 H 0.2501 0.2772 0.8020
C35 C -0.1275(6) -0.0678(7) 0.6143(4)
H23 H -0.0937 -0.1036 0.6291
C36 C 0.4398(7) 0.3020(5) 0.2620(4)
H24 H 0.4211 0.2541 0.2694
H25 H 0.4796 0.2984 0.2363
H26 H 0.4006 0.3314 0.2417
C37 C 0.1423(5) 0.0631(7) 0.6875(5)
H27 H 0.1128 0.0892 0.7123
C38 C -0.1334(5) 0.4119(6) 0.3965(5)
H28 H -0.1067 0.3983 0.4337
C39 C 0.1900(5) 0.2042(6) 0.5500(5)
H29 H 0.1581 0.1809 0.5745
C40 C 0.6333(6) 0.1782(6) 0.6832(5)
H30 H 0.6668 0.1549 0.7145
H31 H 0.6613 0.2011 0.6534
H32 H 0.6046 0.2143 0.7020
C41 C 0.1527(6) -0.0074(7) 0.6062(6)
H33 H 0.1308 -0.0321 0.5715
C42 C 0.2439(5) 0.4435(7) 0.3755(5)
H34 H 0.2779 0.4305 0.3483
C43 C 0.1690(6) 0.4379(8) 0.3580(5)
H35 H 0.1542 0.4205 0.3183
C44 C 0.2677(4) 0.4684(5) 0.4332(4)
C45 C 0.2276(5) -0.0098(6) 0.6173(5)
H36 H 0.2556 -0.0351 0.5907
C46 C 0.2619(5) 0.0258(5) 0.6685(4)
C47 C 0.2176(5) 0.0655(7) 0.7033(5)
H37 H 0.2380 0.0933 0.7367
C48 C 0.2833(5) 0.3391(5) 0.7339(4)
C49 C 0.2821(5) 0.2718(5) 0.4810(4)
H38 H 0.3130 0.2966 0.4565
C50 C 0.3119(5) 0.2239(5) 0.5264(4)
C51 C 0.2654(4) 0.1915(6) 0.5624(4)
H39 H 0.2836 0.1612 0.5948
C52 C -0.2842(5) 0.1352(6) 0.2381(4)
H40 H -0.3088 0.1017 0.2110
C53 C -0.3209(5) 0.1703(5) 0.2810(4)
C54 C -0.2819(5) 0.2207(5) 0.3193(4)
H41 H -0.3054 0.2465 0.3485
Pr1 Pr 0.47251(2) 0.16858(3) 0.40151(2)
Pr2 Pr 0.52899(2) 0.42454(3) 0.43545(2)
Pr3 Pr 0.46879(2) 0.04089(3) 0.57381(2)
Pr4 Pr -0.51009(2) 0.00506(3) 0.24890(2)
I1 I 0.00821(3) 0.36886(4) 0.54307(3)
I2 I 0.00267(3) 0.11845(4) 0.50432(3)
I3 I -0.03250(4) 0.19093(4) 0.68224(3)
I4 I -0.01875(4) 0.42213(4) 0.73460(3)
I5 I 0.02153(4) 0.27241(4) 0.36135(3)
Cu4C Cu -0.05943(7) 0.29172(8) 0.76885(7)
O2B O 0.4795(3) -0.0750(3) 0.5223(2)
O3_2 O 0.5870(3) 0.2078(3) 0.4595(3)
O5B O -0.5269(3) -0.0981(3) 0.3208(2)
O6A O -0.5211(3) 0.0357(3) 0.1374(3)
O7B O 0.3559(3) 0.0234(3) 0.5017(3)
O8A O -0.4863(3) -0.0960(3) 0.1777(2)
O9B O 0.5333(3) -0.0455(3) 0.6469(2)
O9_2 O 0.4667(3) 0.0455(3) 0.3531(2)
O10B O 0.3590(3) 0.1068(4) 0.4265(3)
O11B O 0.4958(3) 0.4375(3) 0.5411(3)
O13_2 O 0.6366(3) 0.4076(4) 0.3794(3)
O14_2 O 0.5695(3) 0.1803(4) 0.3326(3)
O16A O -0.6318(3) -0.0454(3) 0.2160(3)
O18C O 0.3777(3) 0.1736(3) 0.3159(3)
O19B O 0.6358(3) 0.4839(3) 0.4976(3)
O20C O -0.6012(3) 0.1033(3) 0.2355(3)
O21B O -0.3701(3) -0.0358(4) 0.2596(3)
O22_2 O 0.5840(3) 0.3240(3) 0.4890(3)
Pr1_2 Pr -0.52749(2) 0.16858(3) 0.40151(2)
Pr1B Pr -0.47251(2) -0.16858(3) 0.59849(2)
Pr1C Pr 0.47251(2) 0.33142(3) 0.90151(2)
Pr2B Pr 0.47101(2) 0.57546(3) 0.56455(2)
Pr2_2 Pr -0.47101(2) 0.42454(3) 0.43545(2)
Pr3B Pr 0.53121(2) -0.04089(3) 0.42619(2)
Pr3B_2 Pr -0.46879(2) -0.04089(3) 0.42619(2)
Pr4B Pr 0.51009(2) -0.00506(3) 0.75110(2)
Pr4A Pr 0.51009(2) 0.50506(3) 0.25110(2)
Pr4A_2 Pr -0.48991(2) 0.50506(3) 0.25110(2)
Pr4C Pr 0.48991(2) 0.49494(3) 0.74890(2)
I3C I -0.03250(4) 0.30907(4) 0.18224(3)
I4C I -0.01875(4) 0.07787(4) 0.23460(3)
loop_
_geom_bond_atom_site_label_1
_geom_bond_atom_site_label_2
_geom_bond_site_symmetry_1
_geom_bond_site_symmetry_2
Cu1 N3 1_555 1_555
Cu2 N4 1_555 1_555
Cu3 N1 1_555 1_555
Cu4 N2 1_555 1_555
Cu5 N6 1_555 1_555
Cu6 N5 1_555 1_555
O1 C3 1_555 1_555
O2 Pr1 1_555 1_555
O3 C1 1_555 1_555
O4 C11 1_555 1_555
O5 C23 1_555 1_555
O6 C12 1_555 1_555
O7 C9 1_555 1_555
O8 C11 1_555 1_555
O9 Pr4 1_555 1_555
O10 C9 1_555 1_555
O11 C12 1_555 1_555
O12 C2 1_555 1_555
O13 C5 1_555 1_555
O14 C3 1_555 1_555
O15 C2 1_555 1_555
O16 C5 1_555 1_555
O17 C23 1_555 1_555
O18 C6 1_555 1_555
O19 C15 1_555 1_555
O20 C6 1_555 1_555
O21 C8 1_555 1_555
O22 C1 1_555 1_555
N1 C16 1_555 1_555
O23 C15 1_555 1_555
O24 C8 1_555 1_555
C1 C7 1_555 1_555
N2 C13 1_555 1_555
C2 C50 1_555 1_555
C3 C53 1_555 1_555
N3 C27 1_555 1_555
C4 C9 1_555 1_555
N4 C24 1_555 1_555
C5 C14 1_555 1_555
N5 C32 1_555 1_555
C6 C48 1_555 1_555
C7 C10 1_555 1_555
C8 C46 1_555 1_555
C10 H1 1_555 1_555
C11 C36 1_555 1_555
C12 C26 1_555 1_555
C13 H2 1_555 1_555
N6 C30 1_555 1_555
N7 Cu5 1_555 1_555
C14 C17 1_555 1_555
C15 C44 1_555 1_555
C16 H3 1_555 1_555
C17 H4 1_555 1_555
C18 C4 1_555 1_555
H5 C18 1_555 1_555
C19 C14 1_555 1_555
H6 C19 1_555 1_555
C20 C16 1_555 1_555
H7 C20 1_555 1_555
N8 Cu6 1_555 1_555
C21 C7 1_555 1_555
H8 C21 1_555 1_555
C22 H9 1_555 1_555
C23 C40 1_555 1_555
C24 C21 1_555 1_555
H10 C24 1_555 1_555
C25 C19 1_555 1_555
H11 C25 1_555 1_555
C26 H12 1_555 1_555
H13 C26 1_555 1_555
H14 C26 1_555 1_555
C27 H15 1_555 1_555
C28 C4 1_555 1_555
H16 C28 1_555 1_555
C29 N4 1_555 1_555
H17 C29 1_555 1_555
C30 C18 1_555 1_555
H18 C30 1_555 1_555
C31 N2 1_555 1_555
H19 C31 1_555 1_555
C32 C22 1_555 1_555
H20 C32 1_555 1_555
C33 N1 1_555 1_555
H21 C33 1_555 1_555
C34 C33 1_555 1_555
H22 C34 1_555 1_555
C35 N6 1_555 1_555
H23 C35 1_555 1_555
C36 H24 1_555 1_555
H25 C36 1_555 1_555
H26 C36 1_555 1_555
C37 N7 1_555 1_555
H27 C37 1_555 1_555
C38 C17 1_555 1_555
H28 C38 1_555 1_555
C39 N3 1_555 1_555
H29 C39 1_555 1_555
C40 H30 1_555 1_555
H31 C40 1_555 1_555
H32 C40 1_555 1_555
C41 N7 1_555 1_555
H33 C41 1_555 1_555
C42 H34 1_555 1_555
C43 N5 1_555 1_555
H35 C43 1_555 1_555
C44 C22 1_555 1_555
C45 C41 1_555 1_555
H36 C45 1_555 1_555
C46 C45 1_555 1_555
C47 C37 1_555 1_555
H37 C47 1_555 1_555
C48 C20 1_555 1_555
C49 C27 1_555 1_555
H38 C49 1_555 1_555
C50 C49 1_555 1_555
C51 C39 1_555 1_555
H39 C51 1_555 1_555
C52 C13 1_555 1_555
H40 C52 1_555 1_555
C53 C52 1_555 1_555
C54 C31 1_555 1_555
H41 C54 1_555 1_555
Pr1 O4 1_555 1_555
Pr2 O4 1_555 1_555
Pr3 O2 1_555 1_555
Pr4 O1 1_555 1_555
I1 Cu1 1_555 1_555
I2 Cu1 1_555 1_555
I3 Cu2 1_555 1_555
I4 Cu3 1_555 1_555
I5 Cu1 1_555 1_555
Cu4C I3 1_555 1_555
O2B Pr3 1_555 1_555
O3_2 Pr1 1_555 1_555
O5B Pr4 1_555 1_555
O6A Pr4 1_555 1_555
O7B Pr3 1_555 1_555
O8A Pr4 1_555 1_555
O9B Pr3 1_555 1_555
O9_2 Pr1 1_555 1_555
O10B Pr1 1_555 1_555
O11B Pr2 1_555 1_555
O13_2 Pr2 1_555 1_555
O14_2 Pr1 1_555 1_555
O16A Pr4 1_555 1_555
O18C Pr1 1_555 1_555
O19B Pr2 1_555 1_555
O20C Pr4 1_555 1_555
O21B Pr4 1_555 1_555
O22_2 Pr2 1_555 1_555
Pr1_2 O3 1_555 1_555
Pr1B O10 1_555 1_555
Pr1C O18 1_555 1_555
Pr2B O11 1_555 1_555
Pr2_2 O13 1_555 1_555
Pr3B O2 1_555 1_555
Pr3B_2 O7 1_555 1_555
Pr4B O5 1_555 1_555
Pr4A O6 1_555 1_555
Pr4A_2 O16 1_555 1_555
Pr4C O20 1_555 1_555
I3C Cu4 1_555 1_555
I4C Cu4 1_555 1_555
Cu2 I1 1_555 1_555
Cu2 I2 1_555 1_555
Cu3 I1 1_555 1_555
Cu3 I3 1_555 1_555
Cu4 I5 1_555 1_555
Cu5 I2 1_555 1_555
Cu6 I5 1_555 1_555
O5 Pr3 1_555 1_555
O6 Pr2 1_555 1_555
O8 Pr2 1_555 1_555
O8 Pr4A 1_555 1_555
O9 Pr1_2 1_555 1_555
O9 Pr3B_2 1_555 1_555
O11 Pr2 1_555 1_555
O12 Pr3 1_555 1_555
O14 Pr1_2 1_555 1_555
O15 Pr1 1_555 1_555
O17 Pr3 1_555 1_555
O19 Pr2B 1_555 1_555
O21 Pr4B 1_555 1_555
O22 Pr2_2 1_555 1_555
O23 Pr2 1_555 1_555
O24 Pr3 1_555 1_555
C10 C29 1_555 1_555
N8 C25 1_555 1_555
N8 C38 1_555 1_555
C28 C35 1_555 1_555
C34 C48 1_555 1_555
C42 C43 1_555 1_555
C42 C44 1_555 1_555
C46 C47 1_555 1_555
C50 C51 1_555 1_555
C53 C54 1_555 1_555
I4 Cu4C 1_555 1_555
O2B Pr3B 1_555 1_555
O5B Pr3B_2 1_555 1_555
O9B Pr4B 1_555 1_555
O9_2 Pr3B 1_555 1_555
O11B Pr2B 1_555 1_555

#END
