
#######################################################################
#
#                 Cambridge Crystallographic Data Centre
#                                CCDC 
#
#######################################################################
#
# If this CIF has been generated from an entry in the Cambridge 
# Structural Database, then it will include bibliographic, chemical, 
# crystal, experimental, refinement or atomic coordinate data resulting 
# from the CCDC's data processing and validation procedures.
#
#######################################################################

data_VIJGUS
_symmetry_cell_setting           orthorhombic
_symmetry_space_group_name_H-M   'P 21 21 2'
_symmetry_Int_Tables_number      18
_space_group_name_Hall           'P 2 2ab'
loop_
_symmetry_equiv_pos_site_id
_symmetry_equiv_pos_as_xyz
1 x,y,z
2 -x,-y,z
3 1/2+x,1/2-y,-z
4 1/2-x,1/2+y,-z
_cell_length_a                   11.7511(13)
_cell_length_b                   4.9808(5)
_cell_length_c                   8.9689(11)
_cell_angle_alpha                90
_cell_angle_beta                 90
_cell_angle_gamma                90
_cell_volume                     524.949
loop_
_atom_site_label
_atom_site_type_symbol
_atom_site_fract_x
_atom_site_fract_y
_atom_site_fract_z
Cu1 Cu 0.28876(5) 0.59117(12) 0.25437(10)
O1 O 0.2841(3) 0.3579(8) 0.4267(4)
O2 O 0.3280(3) 0.3216(8) 0.6691(5)
O3 O 0.3180(3) 0.8389(8) 0.0923(5)
O4 O 0.3772(4) 0.8606(8) -0.1436(5)
O5 O 0.4447(3) 0.7473(8) 0.3950(5)
H1 H 0.5061 0.725 0.3466
O6 O 0.3982(3) 0.3535(8) 0.1350(5)
H2 H 0.3708 0.2008 0.1228
C1 C 0.3420(5) 0.4121(12) 0.5400(7)
C2 C 0.4476(5) 0.5891(13) 0.5302(7)
H3 H 0.4501 0.7115 0.6185
C3 C 0.3726(5) 0.7461(12) -0.0224(7)
C4 C 0.4341(6) 0.4788(12) -0.0031(7)
H4 H 0.4134 0.3583 -0.088
O1A O 0.7159(3) 0.6421(8) 0.4267(4)
O2A O 0.6720(3) 0.6784(8) 0.6691(5)
O5A O 0.5553(3) 0.2527(8) 0.3950(5)
H1A H 0.4939 0.275 0.3466
C1A C 0.6580(5) 0.5879(12) 0.5400(7)
C2A C 0.5524(5) 0.4109(13) 0.5302(7)
H3A H 0.5499 0.2885 0.6185
O3A O 0.6820(3) 0.1611(8) 0.0923(5)
O4A O 0.6228(4) 0.1394(8) -0.1436(5)
O6A O 0.6018(3) 0.6465(8) 0.1350(5)
H2A H 0.6292 0.7992 0.1228
C3A C 0.6274(5) 0.2539(12) -0.0224(7)
C4A C 0.5659(6) 0.5212(12) -0.0031(7)
H4A H 0.5866 0.6417 -0.088
Cu1A Cu 0.71124(5) 0.40883(12) 0.25437(10)
Cu1B Cu 0.78876(5) -0.09117(12) -0.25437(10)
Cu1B_2 Cu 0.78876(5) 0.90883(12) 0.74563(10)
Cu1C Cu 0.21124(5) 0.09117(12) 0.74563(10)
Cu1C_2 Cu 0.21124(5) 1.09117(12) -0.25437(10)
O2B O 0.8280(3) 0.1784(8) 0.3309(5)
O2C O 0.1720(3) 0.8216(8) 0.3309(5)
O4B O 0.8772(4) 0.6394(8) 0.1436(5)
O4C O 0.1228(4) 0.3606(8) 0.1436(5)
loop_
_geom_bond_atom_site_label_1
_geom_bond_atom_site_label_2
_geom_bond_site_symmetry_1
_geom_bond_site_symmetry_2
Cu1 O1 1_555 1_555
O1 C1 1_555 1_555
O2 C1 1_555 1_555
O3 Cu1 1_555 1_555
O4 C3 1_555 1_555
O5 Cu1 1_555 1_555
H1 O5 1_555 1_555
O6 Cu1 1_555 1_555
H2 O6 1_555 1_555
C1 C2 1_555 1_555
C2 O5 1_555 1_555
H3 C2 1_555 1_555
C3 O3 1_555 1_555
C4 O6 1_555 1_555
H4 C4 1_555 1_555
O1A C1A 1_555 1_555
O2A C1A 1_555 1_555
O5A H1A 1_555 1_555
C1A C2A 1_555 1_555
C2A C2 1_555 1_555
H3A C2A 1_555 1_555
O3A C3A 1_555 1_555
O4A C3A 1_555 1_555
O6A H2A 1_555 1_555
C3A C4A 1_555 1_555
C4A C4 1_555 1_555
H4A C4A 1_555 1_555
Cu1A O1A 1_555 1_555
Cu1B O4A 1_555 1_555
Cu1B_2 O2A 1_555 1_555
Cu1C O2 1_555 1_555
Cu1C_2 O4 1_555 1_555
O2B Cu1A 1_555 1_555
O2C Cu1 1_555 1_555
O4B Cu1A 1_555 1_555
O4C Cu1 1_555 1_555
C3 C4 1_555 1_555
O5A C2A 1_555 1_555
O5A Cu1A 1_555 1_555
O3A Cu1A 1_555 1_555
O6A C4A 1_555 1_555
O6A Cu1A 1_555 1_555

#END
