
#######################################################################
#
#                 Cambridge Crystallographic Data Centre
#                                CCDC 
#
#######################################################################
#
# If this CIF has been generated from an entry in the Cambridge 
# Structural Database, then it will include bibliographic, chemical, 
# crystal, experimental, refinement or atomic coordinate data resulting 
# from the CCDC's data processing and validation procedures.
#
#######################################################################

data_VIJLAC
_symmetry_cell_setting           monoclinic
_symmetry_space_group_name_H-M   'P 21/n'
_symmetry_Int_Tables_number      14
_space_group_name_Hall           '-P 2yn'
loop_
_symmetry_equiv_pos_site_id
_symmetry_equiv_pos_as_xyz
1 x,y,z
2 1/2-x,1/2+y,1/2-z
3 -x,-y,-z
4 1/2+x,1/2-y,1/2+z
_cell_length_a                   13.3310(7)
_cell_length_b                   11.8088(6)
_cell_length_c                   19.3269(10)
_cell_angle_alpha                90
_cell_angle_beta                 92.8750(10)
_cell_angle_gamma                90
_cell_volume                     3038.67
loop_
_atom_site_label
_atom_site_type_symbol
_atom_site_fract_x
_atom_site_fract_y
_atom_site_fract_z
C1 C 0.3217(2) 0.3093(3) -0.31146(19)
H1 H 0.3140 0.3733 -0.3411
C2 C 0.3820(2) 0.3187(3) -0.25150(18)
H2 H 0.4152 0.3882 -0.2406
C3 C 0.3943(2) 0.2262(3) -0.20683(19)
C4 C 0.3464(2) 0.1254(3) -0.22690(18)
H3 H 0.3547 0.0594 -0.1991
C5 C 0.2867(2) 0.1221(3) -0.28780(18)
H4 H 0.2538 0.0533 -0.3006
C6 C 0.5523(3) 0.1589(3) -0.04498(19)
H5 H 0.5792 0.0943 -0.0213
C7 C 0.4960(2) 0.1430(3) -0.10594(18)
H6 H 0.4851 0.0689 -0.1239
C8 C 0.4550(2) 0.2370(3) -0.14128(19)
C9 C 0.4731(2) 0.3433(3) -0.11156(19)
H7 H 0.4458 0.4093 -0.1334
C10 C 0.5305(2) 0.3525(3) -0.05068(19)
H8 H 0.5419 0.4256 -0.0314
C11 C 0.0221(2) 0.1749(3) -0.93817(18)
H9 H 0.0155 0.1083 -0.9656
C12 C 0.0804(2) 0.1712(3) -0.87744(18)
H10 H 0.1133 0.1030 -0.8635
C13 C 0.0910(2) 0.2679(3) -0.83655(18)
C14 C 0.0424(2) 0.3666(3) -0.86015(18)
H11 H 0.0489 0.4347 -0.8342
C15 C -0.0153(2) 0.3640(3) -0.92169(18)
H12 H -0.0484 0.4312 -0.9373
C16 C 0.2171(2) 0.1636(3) -0.67032(17)
H13 H 0.2203 0.0960 -0.6437
C17 C 0.1584(2) 0.1653(3) -0.73081(17)
H14 H 0.1221 0.0996 -0.7454
C18 C 0.1520(2) 0.2638(3) -0.77079(18)
C19 C 0.2073(2) 0.3581(3) -0.74638(18)
H15 H 0.2050 0.4271 -0.7717
C20 C 0.2651(3) 0.3499(3) -0.68524(18)
H16 H 0.3025 0.4142 -0.6694
C21 C -0.0003(3) 0.3070(3) -0.3484(2)
C22 C -0.0926(3) 0.3490(4) -0.3129(3)
H17 H -0.0716 0.3935 -0.2719
H18 H -0.1327 0.2841 -0.2989
H19 H -0.1331 0.3966 -0.3451
C23 C 0.2374(3) -0.0014(3) -0.4826(2)
C24 C 0.2555(4) -0.1220(4) -0.5051(2)
H20 H 0.2367 -0.1299 -0.5546
H21 H 0.2147 -0.1736 -0.4784
H22 H 0.3267 -0.1408 -0.4970
C25 C 0.2967(2) 0.4539(3) -0.49573(18)
C26 C 0.2607(3) 0.5632(4) -0.4654(3)
H23 H 0.3141 0.5957 -0.4349
H24 H 0.2015 0.5484 -0.4386
H25 H 0.2429 0.6166 -0.5028
C27 C 0.5436(3) 0.2045(3) -0.63971(19)
C28 C 0.6340(3) 0.1817(4) -0.6827(2)
H26 H 0.6888 0.1504 -0.6529
H27 H 0.6560 0.2527 -0.7034
H28 H 0.6154 0.1274 -0.7195
Hg1 Hg 0.163230(9) 0.211050(11) -0.419660(7)
Hg2 Hg 0.377880(9) 0.247250(10) -0.555990(6)
N1 N 0.2737(2) 0.2129(2) -0.32936(16)
N2 N 0.5708(2) 0.2626(2) -0.01745(16)
N3 N -0.0261(2) 0.2694(2) -0.96000(16)
N4 N 0.2705(2) 0.2548(2) -0.64739(16)
O1 O 0.06017(19) 0.3782(2) -0.36975(14)
O2 O 0.0107(2) 0.2009(2) -0.35467(15)
O3 O 0.18757(19) 0.0127(2) -0.42950(14)
O4 O 0.27045(19) 0.0767(2) -0.51841(14)
O5 O 0.27363(18) 0.3616(2) -0.46719(14)
O6 O 0.35035(19) 0.4571(2) -0.54671(13)
O7 O 0.51978(19) 0.3055(2) -0.62874(14)
O8 O 0.4975(2) 0.1215(2) -0.61691(15)
Hg1C Hg 0.663230(9) 0.288950(11) 0.080340(7)
Hg2C Hg -0.122120(9) 0.252750(10) -1.055990(6)
N2C N 0.0708(2) 0.2374(2) -0.51745(16)
N3C N 0.4739(2) 0.2306(2) -0.46000(16)
O9 O 0.5095(2) 0.5511(2) -0.25585(16)
H29 H 0.505(4) 0.590(4) -0.289(3)
H30 H 0.509(3) 0.601(4) -0.224(3)
loop_
_geom_bond_atom_site_label_1
_geom_bond_atom_site_label_2
_geom_bond_site_symmetry_1
_geom_bond_site_symmetry_2
C1 H1 1_555 1_555
C2 C1 1_555 1_555
H2 C2 1_555 1_555
C3 C2 1_555 1_555
C4 C3 1_555 1_555
H3 C4 1_555 1_555
C5 C4 1_555 1_555
H4 C5 1_555 1_555
C6 H5 1_555 1_555
C7 C6 1_555 1_555
H6 C7 1_555 1_555
C8 C3 1_555 1_555
C9 C8 1_555 1_555
H7 C9 1_555 1_555
C10 C9 1_555 1_555
H8 C10 1_555 1_555
C11 H9 1_555 1_555
C12 C11 1_555 1_555
H10 C12 1_555 1_555
C13 C12 1_555 1_555
C14 C13 1_555 1_555
H11 C14 1_555 1_555
C15 C14 1_555 1_555
H12 C15 1_555 1_555
C16 H13 1_555 1_555
C17 C16 1_555 1_555
H14 C17 1_555 1_555
C18 C13 1_555 1_555
C19 C18 1_555 1_555
H15 C19 1_555 1_555
C20 C19 1_555 1_555
H16 C20 1_555 1_555
C21 C22 1_555 1_555
C22 H17 1_555 1_555
H18 C22 1_555 1_555
H19 C22 1_555 1_555
C23 C24 1_555 1_555
C24 H20 1_555 1_555
H21 C24 1_555 1_555
H22 C24 1_555 1_555
C25 C26 1_555 1_555
C26 H23 1_555 1_555
H24 C26 1_555 1_555
H25 C26 1_555 1_555
C27 C28 1_555 1_555
C28 H26 1_555 1_555
H27 C28 1_555 1_555
H28 C28 1_555 1_555
Hg1 N1 1_555 1_555
Hg2 N4 1_555 1_555
N1 C1 1_555 1_555
N2 C6 1_555 1_555
N3 C11 1_555 1_555
N4 C16 1_555 1_555
O1 C21 1_555 1_555
O2 C21 1_555 1_555
O3 C23 1_555 1_555
O4 C23 1_555 1_555
O5 C25 1_555 1_555
O6 C25 1_555 1_555
O7 C27 1_555 1_555
O8 C27 1_555 1_555
O9 H29 1_555 1_555
H30 O9 1_555 1_555
Hg1C N2 1_555 1_555
Hg2C N3 1_555 1_555
N2C Hg1 1_555 1_555
N3C Hg2 1_555 1_555
C5 N1 1_555 1_555
C7 C8 1_555 1_555
C10 N2 1_555 1_555
C15 N3 1_555 1_555
C17 C18 1_555 1_555
C20 N4 1_555 1_555
Hg1 O1 1_555 1_555
Hg1 O2 1_555 1_555
Hg1 O3 1_555 1_555
Hg1 O5 1_555 1_555
Hg2 O4 1_555 1_555
Hg2 O5 1_555 1_555
Hg2 O6 1_555 1_555
Hg2 O7 1_555 1_555
Hg2 O8 1_555 1_555

#END
