
#######################################################################
#
#                 Cambridge Crystallographic Data Centre
#                                CCDC 
#
#######################################################################
#
# If this CIF has been generated from an entry in the Cambridge 
# Structural Database, then it will include bibliographic, chemical, 
# crystal, experimental, refinement or atomic coordinate data resulting 
# from the CCDC's data processing and validation procedures.
#
#######################################################################

data_VIJMOS
_symmetry_cell_setting           orthorhombic
_symmetry_space_group_name_H-M   'P n m a'
_symmetry_Int_Tables_number      62
_space_group_name_Hall           '-P 2ac 2n'
loop_
_symmetry_equiv_pos_site_id
_symmetry_equiv_pos_as_xyz
1 x,y,z
2 1/2-x,-y,1/2+z
3 1/2+x,1/2-y,1/2-z
4 -x,1/2+y,-z
5 -x,-y,-z
6 1/2+x,y,1/2-z
7 1/2-x,1/2+y,1/2+z
8 x,1/2-y,z
_cell_length_a                   18.1564(6)
_cell_length_b                   13.8970(6)
_cell_length_c                   5.5576(2)
_cell_angle_alpha                90
_cell_angle_beta                 90
_cell_angle_gamma                90
_cell_volume                     1402.29
loop_
_atom_site_label
_atom_site_type_symbol
_atom_site_fract_x
_atom_site_fract_y
_atom_site_fract_z
Co1 Co 0.38244(3) 0.7500 0.97245(11)
N1 N 0.4430(2) 0.7500 1.2686(7)
C1 C 0.4738(3) 0.7500 1.4524(8)
S1 S 0.51709(7) 0.7500 1.7076(2)
N2 N 0.2792(2) 0.7500 1.0964(8)
C2 C 0.2270(3) 0.7500 1.2178(9)
S2 S 0.15683(8) 0.7500 1.3972(3)
N3 N 0.37355(14) 0.61650(18) 0.7953(5)
C3 C 0.31828(19) 0.6165(2) 0.6347(6)
H1 H 0.2851 0.6675 0.6390
C4 C 0.3074(2) 0.5459(3) 0.4636(7)
H2 H 0.2690 0.5501 0.3535
C5 C 0.3551(2) 0.4696(3) 0.4613(7)
H3 H 0.3499 0.4211 0.3473
C6 C 0.4107(2) 0.4653(3) 0.6293(7)
H4 H 0.4424 0.4128 0.6315
C7 C 0.41964(19) 0.5391(2) 0.7956(6)
C8 C 0.47667(18) 0.5359(2) 0.9814(6)
H5 H 0.4805 0.5890 1.0824
N3D N 0.62645(14) 0.38350(18) 1.2047(5)
C3D C 0.68172(19) 0.3835(2) 1.3653(6)
H1D H 0.7149 0.3325 1.3610
C4D C 0.6926(2) 0.4541(3) 1.5364(7)
H2D H 0.7310 0.4499 1.6465
C5D C 0.6449(2) 0.5304(3) 1.5387(7)
H3D H 0.6501 0.5789 1.6527
C6D C 0.5893(2) 0.5347(3) 1.3707(7)
H4D H 0.5576 0.5872 1.3685
C7D C 0.58036(19) 0.4609(2) 1.2044(6)
C8D C 0.52333(18) 0.4641(2) 1.0186(6)
H5D H 0.5195 0.4110 0.9176
Co1C Co 0.61756(3) 0.2500 1.02755(11)
N3G N 0.37355(14) 0.88350(18) 0.7953(5)
loop_
_geom_bond_atom_site_label_1
_geom_bond_atom_site_label_2
_geom_bond_site_symmetry_1
_geom_bond_site_symmetry_2
Co1 N1 1_555 1_555
N1 C1 1_555 1_555
C1 S1 1_555 1_555
N2 Co1 1_555 1_555
C2 N2 1_555 1_555
S2 C2 1_555 1_555
N3 Co1 1_555 1_555
C3 N3 1_555 1_555
H1 C3 1_555 1_555
C4 C3 1_555 1_555
H2 C4 1_555 1_555
C5 C4 1_555 1_555
H3 C5 1_555 1_555
C6 C5 1_555 1_555
H4 C6 1_555 1_555
C7 N3 1_555 1_555
C8 C7 1_555 1_555
H5 C8 1_555 1_555
N3D C3D 1_555 1_555
C3D H1D 1_555 1_555
C4D C3D 1_555 1_555
H2D C4D 1_555 1_555
C5D C4D 1_555 1_555
H3D C5D 1_555 1_555
C6D C5D 1_555 1_555
H4D C6D 1_555 1_555
C7D N3D 1_555 1_555
C8D C8 1_555 1_555
H5D C8D 1_555 1_555
Co1C N3D 1_555 1_555
N3G Co1 1_555 1_555
C6 C7 1_555 1_555
C6D C7D 1_555 1_555
C7D C8D 1_555 1_555

#END
