
#######################################################################
#
#                 Cambridge Crystallographic Data Centre
#                                CCDC 
#
#######################################################################
#
# If this CIF has been generated from an entry in the Cambridge 
# Structural Database, then it will include bibliographic, chemical, 
# crystal, experimental, refinement or atomic coordinate data resulting 
# from the CCDC's data processing and validation procedures.
#
#######################################################################

data_VIJPOV
_symmetry_cell_setting           monoclinic
_symmetry_space_group_name_H-M   'P 21/n'
_symmetry_Int_Tables_number      14
_space_group_name_Hall           '-P 2yn'
loop_
_symmetry_equiv_pos_site_id
_symmetry_equiv_pos_as_xyz
1 x,y,z
2 1/2-x,1/2+y,1/2-z
3 -x,-y,-z
4 1/2+x,1/2-y,1/2+z
_cell_length_a                   16.948(3)
_cell_length_b                   16.328(3)
_cell_length_c                   20.763(4)
_cell_angle_alpha                90
_cell_angle_beta                 111.61(3)
_cell_angle_gamma                90
_cell_volume                     5341.83
loop_
_atom_site_label
_atom_site_type_symbol
_atom_site_fract_x
_atom_site_fract_y
_atom_site_fract_z
Mn1 Mn 0.32588(4) 0.20906(3) 0.57483(3)
Mn2 Mn 0.18101(4) 0.11374(4) 0.64283(3)
N1 N 0.4257(2) 0.1640(2) 0.53138(17)
N2 N 0.6622(2) 0.3239(2) 0.23402(17)
N3 N 0.1121(2) 0.0012(2) 0.65706(17)
N4 N -0.3421(4) -0.2762(4) 0.6980(4)
O1 O 0.22814(19) 0.23906(17) 0.61850(14)
O2 O 0.0923(2) 0.2087(2) 0.57388(16)
O3 O 0.38384(19) 0.12629(17) 0.65747(15)
O4 O 0.3009(2) 0.07355(18) 0.70890(15)
O5 O 0.23459(18) 0.13964(17) 0.49481(13)
O6 O 0.1849(2) 0.05305(18) 0.55370(16)
O7 O 0.41074(19) 0.31420(16) 0.62538(13)
O8 O 0.32145(19) 0.32611(16) 0.51728(14)
C1 C 0.4636(3) 0.1012(3) 0.4434(2)
H1 H 0.4455 0.0808 0.3985
C2 C 0.4053(3) 0.1330(3) 0.4684(2)
H2 H 0.3484 0.1328 0.4394
C3 C 0.5081(3) 0.1631(3) 0.5711(2)
H3 H 0.5246 0.1844 0.6156
C4 C 0.5697(3) 0.1324(3) 0.5498(2)
H4 H 0.6262 0.1338 0.5797
C5 C 0.5486(3) 0.0994(2) 0.4843(2)
C6 C 0.6131(3) 0.0640(3) 0.4589(2)
H5 H 0.5945 0.0098 0.4405
H6 H 0.6662 0.0578 0.4979
C7 C 0.6290(4) 0.1142(3) 0.4038(3)
H7 H 0.6783 0.0904 0.3978
H8 H 0.5813 0.1044 0.3610
C8 C 0.6412(7) 0.1932(5) 0.4080(5)
H9 H 0.6938 0.2039 0.4466
H10 H 0.5958 0.2179 0.4193
C9 C 0.6455(5) 0.2372(3) 0.3444(3)
C10 C 0.7149(4) 0.2306(4) 0.3277(3)
H11 H 0.7590 0.1961 0.3534
C11 C 0.7215(3) 0.2739(3) 0.2732(2)
H12 H 0.7705 0.2676 0.2635
C12 C 0.5920(3) 0.3290(3) 0.2475(2)
H13 H 0.5479 0.3619 0.2195
C13 C 0.5817(4) 0.2869(3) 0.3019(3)
H14 H 0.5314 0.2922 0.3098
C14 C 0.1146(3) -0.1146(3) 0.7284(2)
H15 H 0.1338 -0.1377 0.7724
C15 C 0.1378(3) -0.0365(3) 0.7190(2)
H16 H 0.1733 -0.0080 0.7576
C16 C 0.0600(3) -0.0421(3) 0.6035(2)
H17 H 0.0400 -0.0177 0.5600
C17 C 0.0348(3) -0.1199(3) 0.6092(2)
H18 H -0.0016 -0.1470 0.5702
C18 C 0.0628(3) -0.1589(3) 0.6725(2)
C19 C 0.0396(3) -0.2467(3) 0.6808(3)
H19 H 0.0709 -0.2637 0.7281
H20 H 0.0579 -0.2811 0.6508
C20 C -0.0546(3) -0.2621(3) 0.6643(2)
H21 H -0.0873 -0.2387 0.6194
H22 H -0.0652 -0.3206 0.6618
C21 C -0.0823(3) -0.2263(4) 0.7165(3)
H23 H -0.0773 -0.1672 0.7149
H24 H -0.0442 -0.2444 0.7617
C22 C -0.1739(3) -0.2473(3) 0.7091(2)
C23 C -0.2337(3) -0.2823(3) 0.6512(3)
H25 H -0.2192 -0.2968 0.6137
C24 C -0.3137(4) -0.2956(4) 0.6489(3)
H26 H -0.3516 -0.3205 0.6093
C25 C -0.2847(6) -0.2414(5) 0.7534(5)
H27 H -0.3020 -0.2249 0.7890
C26 C -0.2010(5) -0.2279(4) 0.7615(3)
H28 H -0.1633 -0.2057 0.8026
C27 C 0.1521(3) 0.2581(3) 0.5824(2)
C28 C 0.1339(3) 0.3422(3) 0.5512(2)
C29 C 0.0652(4) 0.3535(4) 0.4922(3)
H29 H 0.0281 0.3103 0.4735
C30 C 0.0499(5) 0.4299(4) 0.4592(3)
H30 H 0.0048 0.4374 0.4174
C31 C 0.1041(5) 0.4938(5) 0.4908(4)
H31 H 0.0940 0.5447 0.4691
C32 C 0.1729(4) 0.4862(3) 0.5530(3)
C33 C 0.1869(3) 0.4070(3) 0.5808(3)
H32 H 0.2340 0.3978 0.6210
C34 C 0.2272(5) 0.5584(4) 0.5876(4)
H33 H 0.2066 0.6066 0.5601
H34 H 0.2848 0.5483 0.5921
H35 H 0.2249 0.5663 0.6327
C35 C 0.3695(3) 0.0785(2) 0.69956(19)
C36 C 0.4416(3) 0.0241(2) 0.74186(19)
C37 C 0.4280(3) -0.0364(3) 0.7832(2)
H36 H 0.3752 -0.0422 0.7869
C38 C 0.4949(4) -0.0885(3) 0.8194(3)
H37 H 0.4864 -0.1299 0.8469
C39 C 0.5732(4) -0.0793(4) 0.8145(3)
H38 H 0.6171 -0.1147 0.8388
C40 C 0.5877(3) -0.0184(3) 0.7743(3)
C41 C 0.5206(3) 0.0325(3) 0.7377(2)
H39 H 0.5291 0.0733 0.7096
C42 C 0.6743(4) -0.0076(5) 0.7679(4)
H40 H 0.7134 -0.0471 0.7966
H41 H 0.6952 0.0466 0.7825
H42 H 0.6684 -0.0154 0.7205
C43 C 0.1997(3) 0.0737(3) 0.5010(2)
C44 C 0.1742(2) 0.0141(3) 0.4424(2)
C45 C 0.1795(3) 0.0354(3) 0.3791(2)
H43 H 0.1970 0.0878 0.3728
C46 C 0.1588(4) -0.0209(5) 0.3260(3)
H44 H 0.1607 -0.0064 0.2832
C47 C 0.1353(4) -0.0985(4) 0.3369(3)
H45 H 0.1220 -0.1363 0.3010
C48 C 0.1307(3) -0.1228(3) 0.3989(3)
C49 C 0.1494(3) -0.0641(3) 0.4515(2)
H46 H 0.1451 -0.0781 0.4935
C50 C 0.1068(4) -0.2083(4) 0.4109(4)
H47 H 0.0959 -0.2403 0.3698
H48 H 0.0567 -0.2068 0.4222
H49 H 0.1525 -0.2326 0.4486
C51 C 0.3789(3) 0.3555(2) 0.5698(2)
C52 C 0.4104(3) 0.4405(2) 0.5673(2)
C53 C 0.4761(3) 0.4727(3) 0.6237(2)
H50 H 0.5007 0.4414 0.6635
C54 C 0.5049(3) 0.5510(3) 0.6205(3)
H51 H 0.5490 0.5726 0.6582
C55 C 0.4681(3) 0.5971(3) 0.5613(3)
H52 H 0.4885 0.6496 0.5594
C56 C 0.4021(3) 0.5676(3) 0.5052(2)
C57 C 0.3745(3) 0.4882(3) 0.5085(2)
H53 H 0.3309 0.4666 0.4705
C58 C 0.3621(4) 0.6195(3) 0.4415(3)
H54 H 0.3894 0.6721 0.4486
H55 H 0.3029 0.6265 0.4327
H56 H 0.3687 0.5930 0.4025
Mn2C Mn 0.68101(4) 0.38626(4) 0.14283(3)
N2C N 0.1622(2) 0.1761(2) 0.73402(17)
loop_
_geom_bond_atom_site_label_1
_geom_bond_atom_site_label_2
_geom_bond_site_symmetry_1
_geom_bond_site_symmetry_2
Mn1 N1 1_555 1_555
Mn2 N3 1_555 1_555
N1 C2 1_555 1_555
N2 C11 1_555 1_555
N3 C15 1_555 1_555
N4 C24 1_555 1_555
O1 Mn1 1_555 1_555
O2 Mn2 1_555 1_555
O3 Mn1 1_555 1_555
O4 Mn2 1_555 1_555
O5 Mn1 1_555 1_555
O6 Mn2 1_555 1_555
O7 Mn1 1_555 1_555
O8 Mn1 1_555 1_555
C1 H1 1_555 1_555
C2 C1 1_555 1_555
H2 C2 1_555 1_555
C3 N1 1_555 1_555
H3 C3 1_555 1_555
C4 C3 1_555 1_555
H4 C4 1_555 1_555
C5 C1 1_555 1_555
C6 C5 1_555 1_555
H5 C6 1_555 1_555
H6 C6 1_555 1_555
C7 C6 1_555 1_555
H7 C7 1_555 1_555
H8 C7 1_555 1_555
C8 C7 1_555 1_555
H9 C8 1_555 1_555
H10 C8 1_555 1_555
C9 C8 1_555 1_555
C10 C9 1_555 1_555
H11 C10 1_555 1_555
C11 C10 1_555 1_555
H12 C11 1_555 1_555
C12 N2 1_555 1_555
H13 C12 1_555 1_555
C13 C9 1_555 1_555
H14 C13 1_555 1_555
C14 H15 1_555 1_555
C15 C14 1_555 1_555
H16 C15 1_555 1_555
C16 N3 1_555 1_555
H17 C16 1_555 1_555
C17 C16 1_555 1_555
H18 C17 1_555 1_555
C18 C14 1_555 1_555
C19 C18 1_555 1_555
H19 C19 1_555 1_555
H20 C19 1_555 1_555
C20 C19 1_555 1_555
H21 C20 1_555 1_555
H22 C20 1_555 1_555
C21 C20 1_555 1_555
H23 C21 1_555 1_555
H24 C21 1_555 1_555
C22 C21 1_555 1_555
C23 C22 1_555 1_555
H25 C23 1_555 1_555
C24 C23 1_555 1_555
H26 C24 1_555 1_555
C25 N4 1_555 1_555
H27 C25 1_555 1_555
C26 C22 1_555 1_555
H28 C26 1_555 1_555
C27 O1 1_555 1_555
C28 C27 1_555 1_555
C29 C28 1_555 1_555
H29 C29 1_555 1_555
C30 C29 1_555 1_555
H30 C30 1_555 1_555
C31 C30 1_555 1_555
H31 C31 1_555 1_555
C32 C31 1_555 1_555
C33 C28 1_555 1_555
H32 C33 1_555 1_555
C34 C32 1_555 1_555
H33 C34 1_555 1_555
H34 C34 1_555 1_555
H35 C34 1_555 1_555
C35 O3 1_555 1_555
C36 C35 1_555 1_555
C37 C36 1_555 1_555
H36 C37 1_555 1_555
C38 C37 1_555 1_555
H37 C38 1_555 1_555
C39 C38 1_555 1_555
H38 C39 1_555 1_555
C40 C39 1_555 1_555
C41 C36 1_555 1_555
H39 C41 1_555 1_555
C42 C40 1_555 1_555
H40 C42 1_555 1_555
H41 C42 1_555 1_555
H42 C42 1_555 1_555
C43 O5 1_555 1_555
C44 C43 1_555 1_555
C45 C44 1_555 1_555
H43 C45 1_555 1_555
C46 C45 1_555 1_555
H44 C46 1_555 1_555
C47 C46 1_555 1_555
H45 C47 1_555 1_555
C48 C47 1_555 1_555
C49 C44 1_555 1_555
H46 C49 1_555 1_555
C50 C48 1_555 1_555
H47 C50 1_555 1_555
H48 C50 1_555 1_555
H49 C50 1_555 1_555
C51 O7 1_555 1_555
C52 C51 1_555 1_555
C53 C52 1_555 1_555
H50 C53 1_555 1_555
C54 C53 1_555 1_555
H51 C54 1_555 1_555
C55 C54 1_555 1_555
H52 C55 1_555 1_555
C56 C55 1_555 1_555
C57 C52 1_555 1_555
H53 C57 1_555 1_555
C58 C56 1_555 1_555
H54 C58 1_555 1_555
H55 C58 1_555 1_555
H56 C58 1_555 1_555
Mn2C N2 1_555 1_555
N2C Mn2 1_555 1_555
Mn2 O1 1_555 1_555
O2 C27 1_555 1_555
O4 C35 1_555 1_555
O6 C43 1_555 1_555
O8 C51 1_555 1_555
C4 C5 1_555 1_555
C12 C13 1_555 1_555
C17 C18 1_555 1_555
C25 C26 1_555 1_555
C32 C33 1_555 1_555
C40 C41 1_555 1_555
C48 C49 1_555 1_555
C56 C57 1_555 1_555

#END
