
#######################################################################
#
#                 Cambridge Crystallographic Data Centre
#                                CCDC 
#
#######################################################################
#
# If this CIF has been generated from an entry in the Cambridge 
# Structural Database, then it will include bibliographic, chemical, 
# crystal, experimental, refinement or atomic coordinate data resulting 
# from the CCDC's data processing and validation procedures.
#
#######################################################################

data_VIJPIP
_symmetry_cell_setting           triclinic
_symmetry_space_group_name_H-M   'P -1'
_symmetry_Int_Tables_number      2
_space_group_name_Hall           '-P 1'
loop_
_symmetry_equiv_pos_site_id
_symmetry_equiv_pos_as_xyz
1 x,y,z
2 -x,-y,-z
_cell_length_a                   11.589(2)
_cell_length_b                   13.307(3)
_cell_length_c                   15.418(3)
_cell_angle_alpha                88.07(3)
_cell_angle_beta                 77.92(3)
_cell_angle_gamma                69.44(3)
_cell_volume                     2174.88
loop_
_atom_site_label
_atom_site_type_symbol
_atom_site_fract_x
_atom_site_fract_y
_atom_site_fract_z
Mn1 Mn 0.45952(6) 0.60218(6) 0.39185(5)
O1 O 0.3943(4) 0.7560(3) 0.3270(3)
O2 O 0.4976(4) 0.6181(3) 0.2363(3)
C1 C 0.4171(5) 0.7886(5) 0.1734(4)
C2 C 0.4612(7) 0.7490(6) 0.0862(5)
H1 H 0.5074 0.6763 0.0741
C3 C 0.4368(8) 0.8172(7) 0.0168(5)
H2 H 0.4660 0.7891 -0.0413
C4 C 0.3714(8) 0.9239(7) 0.0320(5)
C5 C 0.3304(8) 0.9633(6) 0.1181(6)
H3 H 0.2861 1.0364 0.1298
C6 C 0.3533(7) 0.8971(5) 0.1876(5)
H4 H 0.3250 0.9263 0.2454
C7 C 0.4377(5) 0.7173(5) 0.2492(4)
C8 C 0.3463(10) 0.9980(8) -0.0457(6)
H5 H 0.3818 0.9563 -0.1007
H6 H 0.3844 1.0513 -0.0445
H7 H 0.2571 1.0327 -0.0403
O3 O 0.6160(3) 0.3133(3) 0.4816(2)
O4 O 0.5283(3) 0.4349(3) 0.3903(3)
C9 C 0.6949(4) 0.2768(4) 0.3278(3)
C10 C 0.7989(5) 0.1905(4) 0.3400(4)
H8 H 0.8134 0.1752 0.3969
C11 C 0.8821(6) 0.1261(5) 0.2675(5)
H9 H 0.9528 0.0693 0.2762
C12 C 0.8601(7) 0.1463(6) 0.1829(5)
C13 C 0.7543(8) 0.2323(7) 0.1718(4)
H10 H 0.7376 0.2460 0.1153
C14 C 0.6738(6) 0.2977(5) 0.2428(4)
H11 H 0.6050 0.3561 0.2337
C15 C 0.6074(4) 0.3470(4) 0.4046(4)
C16 C 0.9492(9) 0.0746(8) 0.1030(6)
H12 H 1.0168 0.0197 0.1227
H13 H 0.9831 0.1173 0.0611
H14 H 0.9035 0.0419 0.0753
N1 N 0.6538(3) 0.5998(3) 0.3951(3)
N2 N 1.2674(3) 0.5920(3) 0.3991(3)
C17 C 0.6755(4) 0.6564(4) 0.4555(4)
H15 H 0.6072 0.6991 0.4975
C18 C 0.7938(4) 0.6549(4) 0.4588(4)
H16 H 0.8033 0.6962 0.5024
C19 C 0.8983(4) 0.5931(4) 0.3983(3)
C20 C 1.0262(4) 0.5912(4) 0.3988(3)
C21 C 1.0442(5) 0.6689(5) 0.4445(5)
H17 H 0.9750 0.7237 0.4764
C22 C 1.1632(5) 0.6665(5) 0.4435(5)
H18 H 1.1720 0.7202 0.4758
C23 C 1.2483(5) 0.5167(5) 0.3567(5)
H19 H 1.3186 0.4619 0.3259
C24 C 1.1316(4) 0.5139(5) 0.3552(4)
H20 H 1.1250 0.4584 0.3238
C25 C 0.8748(4) 0.5347(5) 0.3354(4)
H21 H 0.9414 0.4914 0.2925
C26 C 0.7550(4) 0.5405(5) 0.3361(4)
H22 H 0.7429 0.5005 0.2928
Mn1_2 Mn 1.45952(6) 0.60218(6) 0.39185(5)
Mn1A Mn 0.54048(6) 0.39782(6) 0.60815(5)
O3A O 0.3840(3) 0.6867(3) 0.5184(2)
N2_2 N 0.2674(3) 0.5920(3) 0.3991(3)
Mn2 Mn 0.5000 1.0000 0.5000
O5 O 0.3960(4) 1.1080(3) 0.4153(3)
O6 O 0.2413(4) 1.0516(4) 0.4048(3)
C27 C 0.2750(6) 1.1845(4) 0.3087(4)
C28 C 0.1634(6) 1.2059(5) 0.2807(5)
H23 H 0.1043 1.1764 0.3088
C29 C 0.1410(8) 1.2715(6) 0.2106(5)
H24 H 0.0658 1.2859 0.1918
C30 C 0.2278(10) 1.3173(6) 0.1666(5)
C31 C 0.3345(8) 1.2972(6) 0.1980(5)
H25 H 0.3923 1.3288 0.1715
C32 C 0.3597(6) 1.2318(5) 0.2677(4)
H26 H 0.4340 1.2194 0.2874
C33 C 0.3062(6) 1.1098(5) 0.3815(4)
C34 C 0.2011(13) 1.3890(9) 0.0895(7)
H27 H 0.2711 1.4122 0.0674
H28 H 0.1263 1.4505 0.1090
H29 H 0.1891 1.3498 0.0431
N3 N 0.6561(4) 0.9202(4) 0.3775(3)
N4 N 1.1640(9) 0.6452(6) 0.0250(5)
C35 C 0.7755(6) 0.9151(5) 0.3721(4)
H30 H 0.7921 0.9486 0.4176
C36 C 0.8735(6) 0.8639(5) 0.3043(4)
H31 H 0.9537 0.8641 0.3043
C37 C 0.8546(6) 0.8118(4) 0.2360(4)
C38 C 0.9621(7) 0.7529(5) 0.1627(4)
C39 C 1.0843(8) 0.7336(8) 0.1653(6)
H32 H 1.1039 0.7575 0.2144
C40 C 1.1787(9) 0.6793(10) 0.0961(8)
H33 H 1.2610 0.6661 0.1017
C41 C 1.0502(12) 0.6615(10) 0.0222(7)
H34 H 1.0352 0.6363 -0.0283
C42 C 0.9456(9) 0.7141(8) 0.0892(6)
H35 H 0.8649 0.7221 0.0826
C43 C 0.7329(6) 0.8148(6) 0.2412(4)
H36 H 0.7153 0.7802 0.1970
C44 C 0.6381(6) 0.8683(5) 0.3109(4)
H37 H 0.5573 0.8688 0.3122
O7 O 0.6022(3) 1.1056(3) 0.5180(3)
H38 H 0.6340 1.0670 0.5573
H39 H 0.6545 1.1374 0.5068
O5A O 0.6040(4) 0.8920(3) 0.5847(3)
O6A O 0.7587(4) 0.9484(4) 0.5952(3)
C27A C 0.7250(6) 0.8155(4) 0.6913(4)
C28A C 0.8366(6) 0.7941(5) 0.7193(5)
H23A H 0.8957 0.8236 0.6912
C29A C 0.8590(8) 0.7285(6) 0.7894(5)
H24A H 0.9342 0.7141 0.8082
C30A C 0.7722(10) 0.6827(6) 0.8334(5)
C31A C 0.6655(8) 0.7028(6) 0.8020(5)
H25A H 0.6077 0.6712 0.8285
C32A C 0.6403(6) 0.7682(5) 0.7323(4)
H26A H 0.5660 0.7806 0.7126
C33A C 0.6938(6) 0.8902(5) 0.6185(4)
C34A C 0.7989(13) 0.6110(9) 0.9105(7)
H27A H 0.7289 0.5878 0.9326
H28A H 0.8737 0.5495 0.8910
H29A H 0.8109 0.6502 0.9569
N3A N 0.3439(4) 1.0798(4) 0.6225(3)
N4A N -0.1640(9) 1.3548(6) 0.9750(5)
C35A C 0.2245(6) 1.0849(5) 0.6279(4)
H30A H 0.2079 1.0514 0.5824
C36A C 0.1265(6) 1.1361(5) 0.6957(4)
H31A H 0.0463 1.1359 0.6957
C37A C 0.1454(6) 1.1882(4) 0.7640(4)
C38A C 0.0379(7) 1.2471(5) 0.8373(4)
C39A C -0.0843(8) 1.2664(8) 0.8347(6)
H32A H -0.1039 1.2425 0.7856
C40A C -0.1787(9) 1.3207(10) 0.9039(8)
H33A H -0.2610 1.3339 0.8983
C41A C -0.0502(12) 1.3385(10) 0.9778(7)
H34A H -0.0352 1.3637 1.0283
C42A C 0.0544(9) 1.2859(8) 0.9108(6)
H35A H 0.1351 1.2779 0.9174
C43A C 0.2671(6) 1.1852(6) 0.7588(4)
H36A H 0.2847 1.2198 0.8030
C44A C 0.3619(6) 1.1317(5) 0.6891(4)
H37A H 0.4427 1.1312 0.6878
O7A O 0.3978(3) 0.8944(3) 0.4820(3)
H38A H 0.3660 0.9330 0.4427
H39A H 0.3455 0.8626 0.4932
O8 O 0.7494(11) 0.5321(10) 0.1260(7)
H40 H 0.6785 0.5559 0.1572
H41 H 0.7576 0.5152 0.0754
O9 O 0.1244(12) 0.9104(15) 0.3717(10)
H42 H 0.1844 0.9210 0.3783
O10 O 0.5389(11) 0.4586(7) 0.0819(6)
H43 H 0.4836 0.4870 0.1230
H44 H 0.5890 0.4775 0.0928
O11? O 0.0342(11) 0.9774(14) 0.4288(10)
H45? H -0.0090 1.0075 0.4810
loop_
_geom_bond_atom_site_label_1
_geom_bond_atom_site_label_2
_geom_bond_site_symmetry_1
_geom_bond_site_symmetry_2
Mn1 O1 1_555 1_555
O1 C7 1_555 1_555
O2 Mn1 1_555 1_555
C1 C2 1_555 1_555
C2 H1 1_555 1_555
C3 C2 1_555 1_555
H2 C3 1_555 1_555
C4 C3 1_555 1_555
C5 C4 1_555 1_555
H3 C5 1_555 1_555
C6 C1 1_555 1_555
H4 C6 1_555 1_555
C7 O2 1_555 1_555
C8 C4 1_555 1_555
H5 C8 1_555 1_555
H6 C8 1_555 1_555
H7 C8 1_555 1_555
O3 C15 1_555 1_555
O4 Mn1 1_555 1_555
C9 C10 1_555 1_555
C10 H8 1_555 1_555
C11 C10 1_555 1_555
H9 C11 1_555 1_555
C12 C11 1_555 1_555
C13 C12 1_555 1_555
H10 C13 1_555 1_555
C14 C9 1_555 1_555
H11 C14 1_555 1_555
C15 O4 1_555 1_555
C16 C12 1_555 1_555
H12 C16 1_555 1_555
H13 C16 1_555 1_555
H14 C16 1_555 1_555
N1 Mn1 1_555 1_555
N2 C22 1_555 1_555
C17 N1 1_555 1_555
H15 C17 1_555 1_555
C18 C17 1_555 1_555
H16 C18 1_555 1_555
C19 C18 1_555 1_555
C20 C19 1_555 1_555
C21 C20 1_555 1_555
H17 C21 1_555 1_555
C22 C21 1_555 1_555
H18 C22 1_555 1_555
C23 N2 1_555 1_555
H19 C23 1_555 1_555
C24 C20 1_555 1_555
H20 C24 1_555 1_555
C25 C19 1_555 1_555
H21 C25 1_555 1_555
C26 N1 1_555 1_555
H22 C26 1_555 1_555
Mn2 O5 1_555 1_555
O5 C33 1_555 1_555
O6 C33 1_555 1_555
C27 C28 1_555 1_555
C28 H23 1_555 1_555
C29 C28 1_555 1_555
H24 C29 1_555 1_555
C30 C29 1_555 1_555
C31 C30 1_555 1_555
H25 C31 1_555 1_555
C32 C27 1_555 1_555
H26 C32 1_555 1_555
C33 C27 1_555 1_555
C34 C30 1_555 1_555
H27 C34 1_555 1_555
H28 C34 1_555 1_555
H29 C34 1_555 1_555
N3 Mn2 1_555 1_555
N4 C40 1_555 1_555
C35 N3 1_555 1_555
H30 C35 1_555 1_555
C36 C35 1_555 1_555
H31 C36 1_555 1_555
C37 C36 1_555 1_555
C38 C37 1_555 1_555
C39 C38 1_555 1_555
H32 C39 1_555 1_555
C40 C39 1_555 1_555
H33 C40 1_555 1_555
C41 N4 1_555 1_555
H34 C41 1_555 1_555
C42 C38 1_555 1_555
H35 C42 1_555 1_555
C43 C37 1_555 1_555
H36 C43 1_555 1_555
C44 N3 1_555 1_555
H37 C44 1_555 1_555
O7 Mn2 1_555 1_555
H38 O7 1_555 1_555
H39 O7 1_555 1_555
O8 H40 1_555 1_555
H41 O8 1_555 1_555
O9 H42 1_555 1_555
O10 H43 1_555 1_555
H44 O10 1_555 1_555
Mn1_2 N2 1_555 1_555
Mn1A O3 1_555 1_555
O3A Mn1 1_555 1_555
N2_2 Mn1 1_555 1_555
O5A Mn2 1_555 1_555
O6A C33A 1_555 1_555
C27A C28A 1_555 1_555
C28A H23A 1_555 1_555
C29A C28A 1_555 1_555
H24A C29A 1_555 1_555
C30A C29A 1_555 1_555
C31A C30A 1_555 1_555
H25A C31A 1_555 1_555
C32A C27A 1_555 1_555
H26A C32A 1_555 1_555
C33A O5A 1_555 1_555
C34A C30A 1_555 1_555
H27A C34A 1_555 1_555
H28A C34A 1_555 1_555
H29A C34A 1_555 1_555
N3A Mn2 1_555 1_555
N4A C40A 1_555 1_555
C35A N3A 1_555 1_555
H30A C35A 1_555 1_555
C36A C35A 1_555 1_555
H31A C36A 1_555 1_555
C37A C36A 1_555 1_555
C38A C37A 1_555 1_555
C39A C38A 1_555 1_555
H32A C39A 1_555 1_555
C40A C39A 1_555 1_555
H33A C40A 1_555 1_555
C41A N4A 1_555 1_555
H34A C41A 1_555 1_555
C42A C38A 1_555 1_555
H35A C42A 1_555 1_555
C43A C37A 1_555 1_555
H36A C43A 1_555 1_555
C44A N3A 1_555 1_555
H37A C44A 1_555 1_555
O7A Mn2 1_555 1_555
H38A O7A 1_555 1_555
H39A O7A 1_555 1_555
C1 C7 1_555 1_555
C5 C6 1_555 1_555
C9 C15 1_555 1_555
C13 C14 1_555 1_555
C23 C24 1_555 1_555
C25 C26 1_555 1_555
C31 C32 1_555 1_555
C41 C42 1_555 1_555
C43 C44 1_555 1_555
C27A C33A 1_555 1_555
C31A C32A 1_555 1_555
C41A C42A 1_555 1_555
C43A C44A 1_555 1_555

#END
