
#######################################################################
#
#                 Cambridge Crystallographic Data Centre
#                                CCDC 
#
#######################################################################
#
# If this CIF has been generated from an entry in the Cambridge 
# Structural Database, then it will include bibliographic, chemical, 
# crystal, experimental, refinement or atomic coordinate data resulting 
# from the CCDC's data processing and validation procedures.
#
#######################################################################

data_VIJPEL
_symmetry_cell_setting           monoclinic
_symmetry_space_group_name_H-M   'C c'
_symmetry_Int_Tables_number      9
_space_group_name_Hall           'C -2yc'
loop_
_symmetry_equiv_pos_site_id
_symmetry_equiv_pos_as_xyz
1 x,y,z
2 x,-y,1/2+z
3 1/2+x,1/2+y,z
4 1/2+x,1/2-y,1/2+z
_cell_length_a                   11.7124(12)
_cell_length_b                   16.6543(15)
_cell_length_c                   17.160(2)
_cell_angle_alpha                90
_cell_angle_beta                 107.439(2)
_cell_angle_gamma                90
_cell_volume                     3193.41
loop_
_atom_site_label
_atom_site_type_symbol
_atom_site_fract_x
_atom_site_fract_y
_atom_site_fract_z
Cd1 Cd 0.31532(7) 0.48208(6) 0.43884(5)
Cd2 Cd 0.25596(7) 0.64261(6) 0.26203(5)
N1 N 0.2813(10) 0.7408(7) 0.0640(7)
N2 N 0.3663(12) 0.7591(8) 0.0269(8)
N3 N 0.4018(11) 0.6930(8) 0.0056(7)
N4 N 0.3421(10) 0.6295(7) 0.0268(7)
N5 N 0.5159(13) 0.4715(7) 0.4432(9)
N6 N 1.1123(13) 0.4876(7) 0.4282(9)
N7 N 0.4580(14) 0.6424(7) 0.2720(10)
N8 N 1.0616(13) 0.6486(8) 0.2682(10)
O1 O 0.2718(9) 0.7824(6) 0.2451(6)
O2 O 0.2009(10) 0.9106(6) 0.1880(6)
O3 O 0.3982(10) 0.8669(7) 0.1925(6)
O4 O 0.2595(8) 0.5083(6) 0.2948(5)
O5 O 0.2624(7) 0.3830(5) 0.3331(6)
O6 O 0.3487(9) 0.5963(7) 0.5145(6)
O7 O 0.3147(10) 0.6653(9) 0.4009(7)
S1 S 0.1712(3) 0.6129(3) 0.1055(2)
S2 S 0.2792(4) 0.8448(2) 0.1873(2)
C1 C 0.2686(12) 0.6610(9) 0.0655(8)
C2 C 0.2101(13) 0.8021(9) 0.0884(8)
H1 H 0.1341 0.7787 0.0879
H2 H 0.1937 0.8449 0.0481
C3 C 0.5455(12) 0.4439(8) 0.3793(8)
H3 H 0.4857 0.4246 0.3344
C4 C 0.6624(11) 0.4431(8) 0.3777(8)
H4 H 0.6792 0.4242 0.3313
C5 C 0.7548(15) 0.4694(9) 0.4427(10)
C6 C 0.7230(11) 0.4958(9) 0.5116(8)
H5 H 0.7811 0.5137 0.5582
C7 C 0.6023(11) 0.4945(8) 0.5084(8)
H6 H 0.5818 0.5106 0.5543
C8 C 1.0412(11) 0.4266(9) 0.3973(8)
H7 H 1.0714 0.3864 0.3715
C9 C 0.9247(11) 0.4179(9) 0.4005(8)
H8 H 0.8786 0.3737 0.3771
C10 C 0.8802(15) 0.4765(9) 0.4392(10)
C11 C 0.9511(12) 0.5413(8) 0.4732(8)
H9 H 0.9233 0.5817 0.5002
C12 C 1.0658(12) 0.5436(8) 0.4654(8)
H10 H 1.1136 0.5874 0.4877
C13 C 0.5358(13) 0.6931(10) 0.3196(9)
H11 H 0.5090 0.7269 0.3535
C14 C 0.6541(12) 0.6984(9) 0.3214(9)
H12 H 0.7042 0.7359 0.3551
C15 C 0.6985(16) 0.6479(9) 0.2733(11)
C16 C 0.6151(13) 0.5942(9) 0.2257(9)
H13 H 0.6393 0.5582 0.1924
C17 C 0.4972(12) 0.5927(9) 0.2265(9)
H14 H 0.4446 0.5557 0.1940
C18 C 0.9907(11) 0.5864(8) 0.2440(8)
H15 H 1.0219 0.5418 0.2250
C19 C 0.8736(11) 0.5825(8) 0.2449(8)
H16 H 0.8288 0.5361 0.2282
C20 C 0.8245(15) 0.6476(8) 0.2706(10)
C21 C 0.8959(11) 0.7128(9) 0.3007(8)
H17 H 0.8669 0.7566 0.3225
C22 C 1.0159(11) 0.7111(9) 0.2973(9)
H18 H 1.0645 0.7555 0.3162
C23 C 0.2382(12) 0.4307(9) 0.2763(9)
C24 C 0.1869(16) 0.4045(11) 0.1905(10)
H19 H 0.2398 0.3666 0.1771
H20 H 0.1770 0.4502 0.1550
H21 H 0.1105 0.3797 0.1837
C25 C 0.3332(15) 0.6573(13) 0.4732(11)
C26 C 0.3370(17) 0.7364(11) 0.5199(11)
H22 H 0.3549 0.7799 0.4887
H23 H 0.3977 0.7331 0.5717
H24 H 0.2606 0.7455 0.5284
Cd1_2 Cd 1.31532(7) 0.48208(6) 0.43884(5)
Cd1A Cd 0.31532(7) 0.51792(6) -0.06116(5)
Cd2_2 Cd 1.25596(7) 0.64261(6) 0.26203(5)
N4A N 0.3421(10) 0.3705(7) 0.5268(7)
N6_2 N 0.1123(13) 0.4876(7) 0.4282(9)
N8_2 N 0.0616(13) 0.6486(8) 0.2682(10)
O8 O 0.4633(12) 0.6072(9) 0.6858(8)
H25 H 0.4243 0.6046 0.6354
H26 H 0.5373 0.6022 0.6905
loop_
_geom_bond_atom_site_label_1
_geom_bond_atom_site_label_2
_geom_bond_site_symmetry_1
_geom_bond_site_symmetry_2
Cd1 N5 1_555 1_555
Cd2 N7 1_555 1_555
N1 N2 1_555 1_555
N2 N3 1_555 1_555
N3 N4 1_555 1_555
N4 C1 1_555 1_555
N5 C3 1_555 1_555
N6 C8 1_555 1_555
N7 C13 1_555 1_555
N8 C18 1_555 1_555
O1 Cd2 1_555 1_555
O2 S2 1_555 1_555
O3 S2 1_555 1_555
O4 Cd1 1_555 1_555
O5 Cd1 1_555 1_555
O6 Cd1 1_555 1_555
O7 Cd2 1_555 1_555
S1 Cd2 1_555 1_555
S2 O1 1_555 1_555
C1 N1 1_555 1_555
C2 N1 1_555 1_555
H1 C2 1_555 1_555
H2 C2 1_555 1_555
C3 H3 1_555 1_555
C4 C3 1_555 1_555
H4 C4 1_555 1_555
C5 C4 1_555 1_555
C6 C5 1_555 1_555
H5 C6 1_555 1_555
C7 N5 1_555 1_555
H6 C7 1_555 1_555
C8 H7 1_555 1_555
C9 C8 1_555 1_555
H8 C9 1_555 1_555
C10 C5 1_555 1_555
C11 C10 1_555 1_555
H9 C11 1_555 1_555
C12 N6 1_555 1_555
H10 C12 1_555 1_555
C13 H11 1_555 1_555
C14 C13 1_555 1_555
H12 C14 1_555 1_555
C15 C14 1_555 1_555
C16 C15 1_555 1_555
H13 C16 1_555 1_555
C17 N7 1_555 1_555
H14 C17 1_555 1_555
C18 H15 1_555 1_555
C19 C18 1_555 1_555
H16 C19 1_555 1_555
C20 C15 1_555 1_555
C21 C20 1_555 1_555
H17 C21 1_555 1_555
C22 N8 1_555 1_555
H18 C22 1_555 1_555
C23 O4 1_555 1_555
C24 C23 1_555 1_555
H19 C24 1_555 1_555
H20 C24 1_555 1_555
H21 C24 1_555 1_555
C25 O6 1_555 1_555
C26 C25 1_555 1_555
H22 C26 1_555 1_555
H23 C26 1_555 1_555
H24 C26 1_555 1_555
O8 H25 1_555 1_555
H26 O8 1_555 1_555
Cd1_2 N6 1_555 1_555
Cd1A N4 1_555 1_555
Cd2_2 N8 1_555 1_555
N4A Cd1 1_555 1_555
N6_2 Cd1 1_555 1_555
N8_2 Cd2 1_555 1_555
Cd2 O4 1_555 1_555
O5 C23 1_555 1_555
O7 C25 1_555 1_555
S1 C1 1_555 1_555
S2 C2 1_555 1_555
C6 C7 1_555 1_555
C9 C10 1_555 1_555
C11 C12 1_555 1_555
C16 C17 1_555 1_555
C19 C20 1_555 1_555
C21 C22 1_555 1_555

#END
