
#######################################################################
#
#                 Cambridge Crystallographic Data Centre
#                                CCDC 
#
#######################################################################
#
# If this CIF has been generated from an entry in the Cambridge 
# Structural Database, then it will include bibliographic, chemical, 
# crystal, experimental, refinement or atomic coordinate data resulting 
# from the CCDC's data processing and validation procedures.
#
#######################################################################

data_VIJPAH
_symmetry_cell_setting           monoclinic
_symmetry_space_group_name_H-M   'C c'
_symmetry_Int_Tables_number      9
_space_group_name_Hall           'C -2yc'
loop_
_symmetry_equiv_pos_site_id
_symmetry_equiv_pos_as_xyz
1 x,y,z
2 x,-y,1/2+z
3 1/2+x,1/2+y,z
4 1/2+x,1/2-y,1/2+z
_cell_length_a                   24.426(3)
_cell_length_b                   11.90640(13)
_cell_length_c                   24.025(3)
_cell_angle_alpha                90
_cell_angle_beta                 115.269(2)
_cell_angle_gamma                90
_cell_volume                     6318.52
loop_
_atom_site_label
_atom_site_type_symbol
_atom_site_fract_x
_atom_site_fract_y
_atom_site_fract_z
Cd1 Cd 0.756102(17) 0.14451(4) 0.425563(17)
N1 N 0.5426(2) 0.1866(4) 0.3375(2)
N2 N 0.5158(3) 0.1750(5) 0.3758(3)
N3 N 0.5546(4) 0.1300(6) 0.4244(4)
N4 N 0.6091(3) 0.1123(5) 0.4214(3)
N5 N 0.7585(4) 0.3465(4) 0.4343(3)
N6 N 0.7618(4) 0.9448(4) 0.4338(3)
N7 N 0.7948(3) 0.1547(4) 0.3483(3)
N8 N 0.9135(3) 0.2341(5) 0.1272(3)
O1 O 0.5724(3) 0.4224(4) 0.3132(3)
O2 O 0.4730(3) 0.4163(4) 0.3111(3)
O3 O 0.4845(3) 0.4181(5) 0.2167(3)
O4 O 0.8577(3) 0.1391(3) 0.4949(3)
H1 H 0.8837 0.1674 0.4843
H2 H 0.8690 0.1511 0.5331
O5 O 0.7344(3) 0.1448(3) 0.5108(3)
H3 H 0.7221 0.2063 0.5194
H4 H 0.7170 0.0912 0.5202
S1 S 0.51085(11) 0.38708(18) 0.28052(12)
S2 S 0.64998(10) 0.14252(12) 0.33236(10)
C1 C 0.5110(4) 0.2362(6) 0.2775(3)
H5 H 0.4695 0.2093 0.2592
H6 H 0.5300 0.2123 0.2513
C2 C 0.6006(3) 0.1486(4) 0.3660(4)
C3 C 0.7148(3) 0.4081(5) 0.3915(3)
H7 H 0.6827 0.3711 0.3605
C4 C 0.7154(4) 0.5234(5) 0.3914(4)
H8 H 0.6840 0.5621 0.3606
C5 C 0.7617(4) 0.5829(5) 0.4363(3)
C6 C 0.8051(3) 0.5210(5) 0.4802(4)
H9 H 0.8375 0.5568 0.5115
C7 C 0.8019(3) 0.4057(5) 0.4793(4)
H10 H 0.8315 0.3664 0.5116
C8 C 0.7103(4) 0.8860(6) 0.4137(4)
H11 H 0.6738 0.9250 0.3978
C9 C 0.7087(4) 0.7699(5) 0.4152(4)
H12 H 0.6717 0.7330 0.4022
C10 C 0.7629(4) 0.7071(5) 0.4364(4)
C11 C 0.8147(3) 0.7695(6) 0.4576(4)
H13 H 0.8520 0.7332 0.4737
C12 C 0.8130(4) 0.8853(6) 0.4557(4)
H14 H 0.8495 0.9240 0.4705
C13 C 0.8149(4) 0.0683(5) 0.3277(4)
H15 H 0.8135 -0.0026 0.3432
C14 C 0.8381(4) 0.0776(6) 0.2842(4)
H16 H 0.8529 0.0143 0.2724
C15 C 0.8393(3) 0.1817(5) 0.2581(3)
C16 C 0.8166(4) 0.2693(6) 0.2783(4)
H17 H 0.8150 0.3406 0.2619
C17 C 0.7961(4) 0.2525(6) 0.3234(3)
H18 H 0.7823 0.3149 0.3369
C18 C 0.9042(4) 0.1315(6) 0.1435(4)
H19 H 0.9152 0.0705 0.1263
C19 C 0.8792(3) 0.1100(6) 0.1843(3)
H20 H 0.8721 0.0364 0.1925
C20 C 0.8646(3) 0.1989(5) 0.2128(3)
C21 C 0.8754(3) 0.3060(6) 0.1961(3)
H21 H 0.8663 0.3690 0.2135
C22 C 0.8993(4) 0.3190(6) 0.1543(5)
H22 H 0.9059 0.3916 0.1443
Cd1_2 Cd 0.756102(17) 1.14451(4) 0.425563(17)
N6_2 N 0.7618(4) -0.0552(4) 0.4338(3)
Cd2 Cd 0.600483(17) 0.17167(3) 0.662504(17)
N9 N 0.8127(2) 0.2200(4) 0.7524(2)
N10 N 0.8411(3) 0.2101(5) 0.7148(3)
N11 N 0.8011(4) 0.1636(5) 0.6639(4)
N12 N 0.7488(3) 0.1413(5) 0.6684(3)
N13 N 0.5937(4) 0.9702(4) 0.6583(4)
N14 N 0.5984(4) 0.3753(4) 0.6505(3)
N15 N 0.5621(3) 0.1889(5) 0.7390(3)
N16 N 0.4402(3) 0.2713(5) 0.9573(3)
O6 O 0.7820(3) 0.4574(4) 0.7752(3)
O7 O 0.8703(2) 0.4542(4) 0.8726(3)
O8 O 0.8820(3) 0.4509(4) 0.7768(3)
O9 O 0.4990(3) 0.1709(4) 0.5928(3)
H23 H 0.4711 0.2001 0.6004
H24 H 0.4857 0.1618 0.5542
O10 O 0.6190(3) 0.1588(4) 0.5762(3)
H25 H 0.6371 0.2121 0.5674
H26 H 0.6318 0.0969 0.5685
S3 S 0.84401(10) 0.42274(17) 0.80792(11)
S4 S 0.70634(10) 0.17036(12) 0.75734(10)
C23 C 0.8432(4) 0.2733(6) 0.8109(3)
H27 H 0.8847 0.2466 0.8300
H28 H 0.8239 0.2507 0.8370
C24 C 0.7558(3) 0.1771(4) 0.7237(3)
C25 C 0.6447(4) 0.9109(6) 0.6791(4)
H29 H 0.6812 0.9498 0.6956
C26 C 0.6466(4) 0.7977(6) 0.6778(4)
H30 H 0.6838 0.7612 0.6935
C27 C 0.5937(4) 0.7352(5) 0.6533(4)
C28 C 0.5391(4) 0.7958(6) 0.6317(4)
H31 H 0.5021 0.7585 0.6156
C29 C 0.5412(4) 0.9099(6) 0.6346(4)
H32 H 0.5048 0.9490 0.6196
C30 C 0.6415(3) 0.4349(5) 0.6942(4)
H33 H 0.6730 0.3960 0.7249
C31 C 0.6424(3) 0.5501(5) 0.6970(3)
H34 H 0.6742 0.5877 0.7281
C32 C 0.5955(4) 0.6088(5) 0.6530(4)
C33 C 0.5500(4) 0.5478(5) 0.6062(3)
H35 H 0.5181 0.5847 0.5749
C34 C 0.5531(4) 0.4317(6) 0.6072(3)
H36 H 0.5223 0.3915 0.5765
C35 C 0.5465(4) 0.1029(6) 0.7641(4)
H37 H 0.5513 0.0308 0.7519
C36 C 0.5234(5) 0.1141(6) 0.8075(4)
H38 H 0.5126 0.0505 0.8230
C37 C 0.5165(3) 0.2176(5) 0.8274(3)
C38 C 0.5337(4) 0.3047(6) 0.8023(5)
H39 H 0.5317 0.3774 0.8155
C39 C 0.5538(4) 0.2882(6) 0.7585(4)
H40 H 0.5624 0.3514 0.7408
C40 C 0.4480(4) 0.1694(6) 0.9403(5)
H41 H 0.4377 0.1085 0.9582
C41 C 0.4704(4) 0.1477(6) 0.8977(4)
H42 H 0.4726 0.0741 0.8858
C42 C 0.4897(3) 0.2349(5) 0.8729(3)
C43 C 0.4825(4) 0.3415(5) 0.8913(4)
H43 H 0.4944 0.4036 0.8757
C44 C 0.4576(4) 0.3567(6) 0.9329(4)
H44 H 0.4528 0.4294 0.9443
Cd2_2 Cd 0.600483(17) 1.17167(3) 0.662504(17)
N13_2 N 0.5937(4) -0.0298(4) 0.6583(4)
N17 N 0.6835(8) 0.3557(6) 0.5430(7)
N18 N 0.6623(4) 0.9479(5) 0.5497(4)
C45 C 0.7226(6) 0.4171(8) 0.5927(5)
H45 H 0.7517 0.3787 0.6258
C46 C 0.7209(4) 0.5326(6) 0.5957(4)
H46 H 0.7469 0.5713 0.6307
C47 C 0.6783(5) 0.5900(6) 0.5439(5)
C48 C 0.6407(4) 0.5264(6) 0.4962(4)
H47 H 0.6110 0.5611 0.4620
C49 C 0.6458(5) 0.4122(7) 0.4978(5)
H48 H 0.6198 0.3726 0.4632
C50 C 0.7169(5) 0.8988(7) 0.5737(5)
H49 H 0.7509 0.9443 0.5919
C51 C 0.7255(5) 0.7820(7) 0.5730(4)
H50 H 0.7642 0.7510 0.5901
C52 C 0.6745(5) 0.7144(6) 0.5459(5)
C53 C 0.6196(4) 0.7690(6) 0.5202(3)
H51 H 0.5841 0.7276 0.5012
C54 C 0.6168(5) 0.8824(7) 0.5225(4)
H52 H 0.5788 0.9156 0.5027
O11 O 0.9649(3) 0.3646(6) 0.9737(3)
H53 H 0.9338 0.3918 0.9444
H54 H 0.9936 0.3634 0.9626
O12 O 0.8895(3) 0.1745(4) 0.6157(3)
H55 H 0.9207 0.1467 0.6447
H56 H 0.8608 0.1741 0.6268
O13 O 0.4608(4) 0.3783(6) 0.4304(4)
H57 H 0.4643 0.3838 0.3968
H58 H 0.4622 0.3092 0.4398
O14 O 0.8963(4) 0.4150(5) 0.6593(4)
H59 H 0.8919 0.4204 0.6925
H60 H 0.8941 0.3461 0.6494
loop_
_geom_bond_atom_site_label_1
_geom_bond_atom_site_label_2
_geom_bond_site_symmetry_1
_geom_bond_site_symmetry_2
Cd1 N5 1_555 1_555
N1 N2 1_555 1_555
N2 N3 1_555 1_555
N3 N4 1_555 1_555
N4 C2 1_555 1_555
N5 C3 1_555 1_555
N6 C8 1_555 1_555
N7 Cd1 1_555 1_555
N8 C18 1_555 1_555
O1 S1 1_555 1_555
O2 S1 1_555 1_555
O3 S1 1_555 1_555
O4 Cd1 1_555 1_555
H1 O4 1_555 1_555
H2 O4 1_555 1_555
O5 Cd1 1_555 1_555
H3 O5 1_555 1_555
H4 O5 1_555 1_555
S1 C1 1_555 1_555
S2 Cd1 1_555 1_555
C1 N1 1_555 1_555
H5 C1 1_555 1_555
H6 C1 1_555 1_555
C2 N1 1_555 1_555
C3 H7 1_555 1_555
C4 C3 1_555 1_555
H8 C4 1_555 1_555
C5 C4 1_555 1_555
C6 C5 1_555 1_555
H9 C6 1_555 1_555
C7 N5 1_555 1_555
H10 C7 1_555 1_555
C8 H11 1_555 1_555
C9 C8 1_555 1_555
H12 C9 1_555 1_555
C10 C5 1_555 1_555
C11 C10 1_555 1_555
H13 C11 1_555 1_555
C12 N6 1_555 1_555
H14 C12 1_555 1_555
C13 N7 1_555 1_555
H15 C13 1_555 1_555
C14 C13 1_555 1_555
H16 C14 1_555 1_555
C15 C14 1_555 1_555
C16 C15 1_555 1_555
H17 C16 1_555 1_555
C17 N7 1_555 1_555
H18 C17 1_555 1_555
C18 H19 1_555 1_555
C19 C18 1_555 1_555
H20 C19 1_555 1_555
C20 C15 1_555 1_555
C21 C20 1_555 1_555
H21 C21 1_555 1_555
C22 N8 1_555 1_555
H22 C22 1_555 1_555
Cd2 N14 1_555 1_555
N9 N10 1_555 1_555
N10 N11 1_555 1_555
N11 N12 1_555 1_555
N12 C24 1_555 1_555
N13 C25 1_555 1_555
N14 C30 1_555 1_555
N15 Cd2 1_555 1_555
N16 C40 1_555 1_555
O6 S3 1_555 1_555
O7 S3 1_555 1_555
O8 S3 1_555 1_555
O9 Cd2 1_555 1_555
H23 O9 1_555 1_555
H24 O9 1_555 1_555
O10 Cd2 1_555 1_555
H25 O10 1_555 1_555
H26 O10 1_555 1_555
S3 C23 1_555 1_555
S4 Cd2 1_555 1_555
C23 N9 1_555 1_555
H27 C23 1_555 1_555
H28 C23 1_555 1_555
C24 N9 1_555 1_555
C25 H29 1_555 1_555
C26 C25 1_555 1_555
H30 C26 1_555 1_555
C27 C26 1_555 1_555
C28 C27 1_555 1_555
H31 C28 1_555 1_555
C29 N13 1_555 1_555
H32 C29 1_555 1_555
C30 H33 1_555 1_555
C31 C30 1_555 1_555
H34 C31 1_555 1_555
C32 C27 1_555 1_555
C33 C32 1_555 1_555
H35 C33 1_555 1_555
C34 N14 1_555 1_555
H36 C34 1_555 1_555
C35 N15 1_555 1_555
H37 C35 1_555 1_555
C36 C35 1_555 1_555
H38 C36 1_555 1_555
C37 C36 1_555 1_555
C38 C37 1_555 1_555
H39 C38 1_555 1_555
C39 N15 1_555 1_555
H40 C39 1_555 1_555
C40 H41 1_555 1_555
C41 C40 1_555 1_555
H42 C41 1_555 1_555
C42 C37 1_555 1_555
C43 C42 1_555 1_555
H43 C43 1_555 1_555
C44 N16 1_555 1_555
H44 C44 1_555 1_555
N17 C45 1_555 1_555
N18 C50 1_555 1_555
C45 H45 1_555 1_555
C46 C45 1_555 1_555
H46 C46 1_555 1_555
C47 C46 1_555 1_555
C48 C47 1_555 1_555
H47 C48 1_555 1_555
C49 N17 1_555 1_555
H48 C49 1_555 1_555
C50 H49 1_555 1_555
C51 C50 1_555 1_555
H50 C51 1_555 1_555
C52 C47 1_555 1_555
C53 C52 1_555 1_555
H51 C53 1_555 1_555
C54 N18 1_555 1_555
H52 C54 1_555 1_555
O11 H53 1_555 1_555
H54 O11 1_555 1_555
O12 H55 1_555 1_555
H56 O12 1_555 1_555
O13 H57 1_555 1_555
H58 O13 1_555 1_555
O14 H59 1_555 1_555
H60 O14 1_555 1_555
Cd1_2 N6 1_555 1_555
N6_2 Cd1 1_555 1_555
Cd2_2 N13 1_555 1_555
N13_2 Cd2 1_555 1_555
S2 C2 1_555 1_555
C6 C7 1_555 1_555
C9 C10 1_555 1_555
C11 C12 1_555 1_555
C16 C17 1_555 1_555
C19 C20 1_555 1_555
C21 C22 1_555 1_555
S4 C24 1_555 1_555
C28 C29 1_555 1_555
C31 C32 1_555 1_555
C33 C34 1_555 1_555
C38 C39 1_555 1_555
C41 C42 1_555 1_555
C43 C44 1_555 1_555
C48 C49 1_555 1_555
C51 C52 1_555 1_555
C53 C54 1_555 1_555

#END
