
#######################################################################
#
#                 Cambridge Crystallographic Data Centre
#                                CCDC 
#
#######################################################################
#
# If this CIF has been generated from an entry in the Cambridge 
# Structural Database, then it will include bibliographic, chemical, 
# crystal, experimental, refinement or atomic coordinate data resulting 
# from the CCDC's data processing and validation procedures.
#
#######################################################################

data_VIJQEL
_symmetry_cell_setting           triclinic
_symmetry_space_group_name_H-M   'P -1'
_symmetry_Int_Tables_number      2
_space_group_name_Hall           '-P 1'
loop_
_symmetry_equiv_pos_site_id
_symmetry_equiv_pos_as_xyz
1 x,y,z
2 -x,-y,-z
_cell_length_a                   7.2586(9)
_cell_length_b                   7.6691(10)
_cell_length_c                   10.6492(16)
_cell_angle_alpha                106.381(1)
_cell_angle_beta                 95.999(2)
_cell_angle_gamma                108.455(2)
_cell_volume                     527.123
loop_
_atom_site_label
_atom_site_type_symbol
_atom_site_fract_x
_atom_site_fract_y
_atom_site_fract_z
C1 C 0.6498(6) 0.7185(6) 0.8231(4)
C2 C 0.7178(6) 0.9076(6) 0.9329(4)
C3 C 0.7582(7) 0.9457(8) 1.0708(5)
H1 H 0.7465 0.8458 1.1061
C4 C 0.8164(8) 1.1380(9) 1.1535(5)
H2 H 0.8443 1.1669 1.2459
C5 C 0.8341(8) 1.2875(8) 1.1023(5)
H3 H 0.8731 1.4148 1.1605
C6 C 0.7946(7) 1.2508(7) 0.9657(5)
H4 H 0.8049 1.3505 0.9303
C7 C 0.7394(6) 1.0603(6) 0.8846(4)
C8 C 0.1343(5) 0.6344(5) 0.4685(4)
H5 H 0.2263 0.7300 0.4458
C9 C -0.0557(5) 0.6336(5) 0.4667(4)
H6 H -0.0908 0.7286 0.4432
N1 N 0.6232(5) 0.7339(4) 0.6980(3)
N2 N 0.1886(4) 0.5012(4) 0.5020(3)
O1 O 0.6182(6) 0.5617(5) 0.8442(3)
O2 O 0.8606(5) 1.0246(5) 0.6572(4)
O3 O 0.5154(5) 0.9925(4) 0.6510(3)
O4 O 0.4403(4) 0.3067(4) 0.6093(3)
S1 S 0.68499(15) 0.96098(13) 0.70909(9)
Fe1 Fe 0.5000 0.5000 0.5000
H7 H 0.484(6) 0.364(4) 0.688(2)
H8 H 0.402(6) 0.191(3) 0.595(3)
C1A C 0.3502(6) 0.2815(6) 0.1769(4)
C2A C 0.2822(6) 0.0924(6) 0.0671(4)
C3A C 0.2418(7) 0.0543(8) -0.0708(5)
H1A H 0.2535 0.1542 -0.1061
C4A C 0.1836(8) -0.1380(9) -0.1535(5)
H2A H 0.1557 -0.1669 -0.2459
C5A C 0.1659(8) -0.2875(8) -0.1023(5)
H3A H 0.1269 -0.4148 -0.1605
C6A C 0.2054(7) -0.2508(7) 0.0343(5)
H4A H 0.1951 -0.3505 0.0697
C7A C 0.2606(6) -0.0603(6) 0.1154(4)
C8A C -0.1343(5) 0.3656(5) 0.5315(4)
H5A H -0.2263 0.2700 0.5542
C9A C 0.0557(5) 0.3664(5) 0.5333(4)
H6A H 0.0908 0.2714 0.5568
N1A N 0.3768(5) 0.2661(4) 0.3020(3)
N2A N -0.1886(4) 0.4988(4) 0.4980(3)
N2A_2 N 0.8114(4) 0.4988(4) 0.4980(3)
O1A O 0.3818(6) 0.4383(5) 0.1558(3)
O2A O 0.1394(5) -0.0246(5) 0.3428(4)
O3A O 0.4846(5) 0.0075(4) 0.3490(3)
O4A O 0.5597(4) 0.6933(4) 0.3907(3)
S1A S 0.31501(15) 0.03902(13) 0.29091(9)
Fe1_2 Fe -0.5000 0.5000 0.5000
H7A H 0.516(6) 0.636(4) 0.312(2)
H8A H 0.598(6) 0.809(3) 0.405(3)
loop_
_geom_bond_atom_site_label_1
_geom_bond_atom_site_label_2
_geom_bond_site_symmetry_1
_geom_bond_site_symmetry_2
C1 C2 1_555 1_555
C2 C3 1_555 1_555
C3 H1 1_555 1_555
C4 C3 1_555 1_555
H2 C4 1_555 1_555
C5 C4 1_555 1_555
H3 C5 1_555 1_555
C6 C5 1_555 1_555
H4 C6 1_555 1_555
C7 C2 1_555 1_555
C8 H5 1_555 1_555
C9 C8 1_555 1_555
H6 C9 1_555 1_555
N1 C1 1_555 1_555
N2 C8 1_555 1_555
O1 C1 1_555 1_555
O2 S1 1_555 1_555
O3 S1 1_555 1_555
O4 Fe1 1_555 1_555
S1 C7 1_555 1_555
Fe1 N1 1_555 1_555
H7 O4 1_555 1_555
H8 O4 1_555 1_555
C1A C2A 1_555 1_555
C2A C3A 1_555 1_555
C3A H1A 1_555 1_555
C4A C3A 1_555 1_555
H2A C4A 1_555 1_555
C5A C4A 1_555 1_555
H3A C5A 1_555 1_555
C6A C5A 1_555 1_555
H4A C6A 1_555 1_555
C7A C2A 1_555 1_555
C8A H5A 1_555 1_555
C9A N2 1_555 1_555
H6A C9A 1_555 1_555
N1A Fe1 1_555 1_555
N2A C9 1_555 1_555
N2A_2 Fe1 1_555 1_555
O1A C1A 1_555 1_555
O2A S1A 1_555 1_555
O3A S1A 1_555 1_555
O4A Fe1 1_555 1_555
S1A C7A 1_555 1_555
Fe1_2 N2A 1_555 1_555
H7A O4A 1_555 1_555
H8A O4A 1_555 1_555
C6 C7 1_555 1_555
N1 S1 1_555 1_555
N2 Fe1 1_555 1_555
C1A N1A 1_555 1_555
C6A C7A 1_555 1_555
C8A C9A 1_555 1_555
C8A N2A 1_555 1_555
N1A S1A 1_555 1_555

#END
