
#######################################################################
#
#                 Cambridge Crystallographic Data Centre
#                                CCDC 
#
#######################################################################
#
# If this CIF has been generated from an entry in the Cambridge 
# Structural Database, then it will include bibliographic, chemical, 
# crystal, experimental, refinement or atomic coordinate data resulting 
# from the CCDC's data processing and validation procedures.
#
#######################################################################

data_VIJQIP
_symmetry_cell_setting           triclinic
_symmetry_space_group_name_H-M   'P -1'
_symmetry_Int_Tables_number      2
_space_group_name_Hall           '-P 1'
loop_
_symmetry_equiv_pos_site_id
_symmetry_equiv_pos_as_xyz
1 x,y,z
2 -x,-y,-z
_cell_length_a                   7.1879(11)
_cell_length_b                   7.6570(12)
_cell_length_c                   10.6357(17)
_cell_angle_alpha                106.468(12)
_cell_angle_beta                 95.816(13)
_cell_angle_gamma                108.515(12)
_cell_volume                     520.378
loop_
_atom_site_label
_atom_site_type_symbol
_atom_site_fract_x
_atom_site_fract_y
_atom_site_fract_z
C1 C -0.2395(4) -0.5586(4) -0.3837(2)
C2 C -0.2955(4) -0.7496(4) -0.4655(3)
H1 H -0.3071 -0.8503 -0.4307
C3 C -0.3336(5) -0.7843(5) -0.6019(3)
H2 H -0.3728 -0.9116 -0.6607
C4 C -0.3150(5) -0.6351(5) -0.6524(3)
H3 H -0.3428 -0.6636 -0.7448
C5 C -0.2554(4) -0.4423(5) -0.5689(3)
H4 H -0.2419 -0.3414 -0.6037
C6 C -0.2168(4) -0.4059(4) -0.4313(2)
C7 C -0.1471(4) -0.2141(4) -0.3209(2)
C8 C 0.4427(3) 0.1331(3) -0.0326(2)
H5 H 0.4083 0.2290 -0.0557
C9 C 0.6360(3) 0.1352(3) -0.0308(2)
N1 N -0.1213(3) -0.2323(3) -0.19646(18)
N2 N 0.3047(2) -0.0026(3) -0.00222(17)
O1 O -0.3641(3) -0.5240(3) -0.1574(2)
O2 O -0.0171(3) -0.4943(3) -0.14982(19)
O3 O -0.1135(4) -0.0591(3) -0.34096(19)
O4 O -0.0601(3) -0.1929(3) 0.1053(2)
S1 S -0.18651(9) -0.46057(8) -0.20821(6)
Co1 Co 0.0000 0.0000 0.0000
H6 H -0.062(4) -0.295(5) 0.087(3)
H7 H -0.003(6) -0.128(6) 0.185(4)
H8 H 0.730(4) 0.238(4) -0.053(3)
C1A C 0.2395(4) 0.5586(4) 0.3837(2)
C2A C 0.2955(4) 0.7496(4) 0.4655(3)
H1A H 0.3071 0.8503 0.4307
C3A C 0.3336(5) 0.7843(5) 0.6019(3)
H2A H 0.3728 0.9116 0.6607
C4A C 0.3150(5) 0.6351(5) 0.6524(3)
H3A H 0.3428 0.6636 0.7448
C5A C 0.2554(4) 0.4423(5) 0.5689(3)
H4A H 0.2419 0.3414 0.6037
C6A C 0.2168(4) 0.4059(4) 0.4313(2)
C7A C 0.1471(4) 0.2141(4) 0.3209(2)
C8A C 0.5573(3) -0.1331(3) 0.0326(2)
H5A H 0.5917 -0.2290 0.0557
C9A C 0.3640(3) -0.1352(3) 0.0308(2)
N1A N 0.1213(3) 0.2323(3) 0.19646(18)
N2A N 0.6953(2) 0.0026(3) 0.00222(17)
N2A_2 N -0.3047(2) 0.0026(3) 0.00222(17)
O1A O 0.3641(3) 0.5240(3) 0.1574(2)
O2A O 0.0171(3) 0.4943(3) 0.14982(19)
O3A O 0.1135(4) 0.0591(3) 0.34096(19)
O4A O 0.0601(3) 0.1929(3) -0.1053(2)
S1A S 0.18651(9) 0.46057(8) 0.20821(6)
Co1_2 Co 1.0000 0.0000 0.0000
H6A H 0.062(4) 0.295(5) -0.087(3)
H7A H 0.003(6) 0.128(6) -0.185(4)
H8A H 0.270(4) -0.238(4) 0.053(3)
loop_
_geom_bond_atom_site_label_1
_geom_bond_atom_site_label_2
_geom_bond_site_symmetry_1
_geom_bond_site_symmetry_2
C1 C2 1_555 1_555
C2 H1 1_555 1_555
C3 C2 1_555 1_555
H2 C3 1_555 1_555
C4 C3 1_555 1_555
H3 C4 1_555 1_555
C5 C4 1_555 1_555
H4 C5 1_555 1_555
C6 C1 1_555 1_555
C7 C6 1_555 1_555
C8 H5 1_555 1_555
C9 C8 1_555 1_555
N1 C7 1_555 1_555
N2 C8 1_555 1_555
O1 S1 1_555 1_555
O2 S1 1_555 1_555
O3 C7 1_555 1_555
O4 Co1 1_555 1_555
S1 C1 1_555 1_555
Co1 N1 1_555 1_555
H6 O4 1_555 1_555
H7 O4 1_555 1_555
H8 C9 1_555 1_555
C1A C2A 1_555 1_555
C2A H1A 1_555 1_555
C3A C2A 1_555 1_555
H2A C3A 1_555 1_555
C4A C3A 1_555 1_555
H3A C4A 1_555 1_555
C5A C4A 1_555 1_555
H4A C5A 1_555 1_555
C6A C1A 1_555 1_555
C7A C6A 1_555 1_555
C8A H5A 1_555 1_555
C9A N2 1_555 1_555
N1A Co1 1_555 1_555
N2A C9 1_555 1_555
N2A_2 Co1 1_555 1_555
O1A S1A 1_555 1_555
O2A S1A 1_555 1_555
O3A C7A 1_555 1_555
O4A Co1 1_555 1_555
S1A C1A 1_555 1_555
Co1_2 N2A 1_555 1_555
H6A O4A 1_555 1_555
H7A O4A 1_555 1_555
H8A C9A 1_555 1_555
C5 C6 1_555 1_555
N1 S1 1_555 1_555
N2 Co1 1_555 1_555
C5A C6A 1_555 1_555
C7A N1A 1_555 1_555
C8A C9A 1_555 1_555
C8A N2A 1_555 1_555
N1A S1A 1_555 1_555

#END
