
#######################################################################
#
#                 Cambridge Crystallographic Data Centre
#                                CCDC 
#
#######################################################################
#
# If this CIF has been generated from an entry in the Cambridge 
# Structural Database, then it will include bibliographic, chemical, 
# crystal, experimental, refinement or atomic coordinate data resulting 
# from the CCDC's data processing and validation procedures.
#
#######################################################################

data_VIJQAH
_symmetry_cell_setting           triclinic
_symmetry_space_group_name_H-M   'P -1'
_symmetry_Int_Tables_number      2
_space_group_name_Hall           '-P 1'
loop_
_symmetry_equiv_pos_site_id
_symmetry_equiv_pos_as_xyz
1 x,y,z
2 -x,-y,-z
_cell_length_a                   7.381(5)
_cell_length_b                   7.708(5)
_cell_length_c                   10.638(5)
_cell_angle_alpha                105.316(5)
_cell_angle_beta                 96.509(5)
_cell_angle_gamma                109.055(5)
_cell_volume                     538.358
loop_
_atom_site_label
_atom_site_type_symbol
_atom_site_fract_x
_atom_site_fract_y
_atom_site_fract_z
C1 C 0.1536(3) 0.2181(3) 0.3256(2)
C2 C 0.2203(3) 0.4068(3) 0.4352(2)
C3 C 0.2419(3) 0.5573(3) 0.3864(2)
C4 C 0.2949(4) 0.7468(4) 0.4673(3)
H1 H 0.3060 0.8473 0.4322
C5 C 0.3303(4) 0.7778(5) 0.6023(3)
H2 H 0.3676 0.9032 0.6605
C6 C 0.3123(4) 0.6297(5) 0.6540(3)
H3 H 0.3384 0.6568 0.7462
C7 C 0.2560(4) 0.4407(4) 0.5719(2)
H4 H 0.2427 0.3399 0.6070
C8 C -0.3654(3) 0.1367(3) -0.0293(2)
H5 H -0.2747 0.2343 -0.0510
C9 C -0.5536(3) 0.1340(3) -0.0322(2)
N1 N 0.1299(2) 0.2365(2) 0.20200(16)
N2 N -0.3095(2) 0.0043(2) 0.00338(16)
O1 O 0.1208(3) 0.0623(3) 0.34707(17)
O2 O 0.3650(3) 0.5290(3) 0.16234(18)
O3 O 0.0605(2) 0.1979(2) -0.11442(16)
O4 O 0.0238(3) 0.4916(2) 0.15113(16)
S1 S 0.19102(8) 0.46216(7) 0.21164(5)
Mn1 Mn 0.0000 0.0000 0.0000
H6 H 0.056(5) 0.318(3) -0.103(3)
H7 H -0.002(6) 0.123(4) -0.199(4)
H8 H -0.586(3) 0.227(3) -0.052(2)
C1A C -0.1536(3) -0.2181(3) -0.3256(2)
C2A C -0.2203(3) -0.4068(3) -0.4352(2)
C3A C -0.2419(3) -0.5573(3) -0.3864(2)
C4A C -0.2949(4) -0.7468(4) -0.4673(3)
H1A H -0.3060 -0.8473 -0.4322
C5A C -0.3303(4) -0.7778(5) -0.6023(3)
H2A H -0.3676 -0.9032 -0.6605
C6A C -0.3123(4) -0.6297(5) -0.6540(3)
H3A H -0.3384 -0.6568 -0.7462
C7A C -0.2560(4) -0.4407(4) -0.5719(2)
H4A H -0.2427 -0.3399 -0.6070
C8A C -0.6346(3) -0.1367(3) 0.0293(2)
H5A H -0.7253 -0.2343 0.0510
C9A C -0.4464(3) -0.1340(3) 0.0322(2)
N1A N -0.1299(2) -0.2365(2) -0.20200(16)
N2A N -0.6905(2) -0.0043(2) -0.00338(16)
N2A_2 N 0.3095(2) -0.0043(2) -0.00338(16)
O1A O -0.1208(3) -0.0623(3) -0.34707(17)
O2A O -0.3650(3) -0.5290(3) -0.16234(18)
O3A O -0.0605(2) -0.1979(2) 0.11442(16)
O4A O -0.0238(3) -0.4916(2) -0.15113(16)
S1A S -0.19102(8) -0.46216(7) -0.21164(5)
Mn1_2 Mn -1.0000 0.0000 0.0000
H6A H -0.056(5) -0.318(3) 0.103(3)
H7A H 0.002(6) -0.123(4) 0.199(4)
H8A H -0.414(3) -0.227(3) 0.052(2)
loop_
_geom_bond_atom_site_label_1
_geom_bond_atom_site_label_2
_geom_bond_site_symmetry_1
_geom_bond_site_symmetry_2
C1 C2 1_555 1_555
C2 C3 1_555 1_555
C3 C4 1_555 1_555
C4 H1 1_555 1_555
C5 C4 1_555 1_555
H2 C5 1_555 1_555
C6 C5 1_555 1_555
H3 C6 1_555 1_555
C7 C2 1_555 1_555
H4 C7 1_555 1_555
C8 H5 1_555 1_555
C9 C8 1_555 1_555
N1 C1 1_555 1_555
N2 C8 1_555 1_555
O1 C1 1_555 1_555
O2 S1 1_555 1_555
O3 Mn1 1_555 1_555
O4 S1 1_555 1_555
S1 C3 1_555 1_555
Mn1 N1 1_555 1_555
H6 O3 1_555 1_555
H7 O3 1_555 1_555
H8 C9 1_555 1_555
C1A C2A 1_555 1_555
C2A C3A 1_555 1_555
C3A C4A 1_555 1_555
C4A H1A 1_555 1_555
C5A C4A 1_555 1_555
H2A C5A 1_555 1_555
C6A C5A 1_555 1_555
H3A C6A 1_555 1_555
C7A C2A 1_555 1_555
H4A C7A 1_555 1_555
C8A H5A 1_555 1_555
C9A N2 1_555 1_555
N1A Mn1 1_555 1_555
N2A C9 1_555 1_555
N2A_2 Mn1 1_555 1_555
O1A C1A 1_555 1_555
O2A S1A 1_555 1_555
O3A Mn1 1_555 1_555
O4A S1A 1_555 1_555
S1A C3A 1_555 1_555
Mn1_2 N2A 1_555 1_555
H6A O3A 1_555 1_555
H7A O3A 1_555 1_555
H8A C9A 1_555 1_555
C6 C7 1_555 1_555
N1 S1 1_555 1_555
N2 Mn1 1_555 1_555
C1A N1A 1_555 1_555
C6A C7A 1_555 1_555
C8A C9A 1_555 1_555
C8A N2A 1_555 1_555
N1A S1A 1_555 1_555

#END
