
#######################################################################
#
#                 Cambridge Crystallographic Data Centre
#                                CCDC 
#
#######################################################################
#
# If this CIF has been generated from an entry in the Cambridge 
# Structural Database, then it will include bibliographic, chemical, 
# crystal, experimental, refinement or atomic coordinate data resulting 
# from the CCDC's data processing and validation procedures.
#
#######################################################################

data_VIJSAK
_symmetry_cell_setting           triclinic
_symmetry_space_group_name_H-M   'P -1'
_symmetry_Int_Tables_number      2
_space_group_name_Hall           '-P 1'
loop_
_symmetry_equiv_pos_site_id
_symmetry_equiv_pos_as_xyz
1 x,y,z
2 -x,-y,-z
_cell_length_a                   9.711(5)
_cell_length_b                   10.499(4)
_cell_length_c                   13.957(5)
_cell_angle_alpha                91.04(2)
_cell_angle_beta                 92.79(2)
_cell_angle_gamma                103.96(2)
_cell_volume                     1378.67
loop_
_atom_site_label
_atom_site_type_symbol
_atom_site_fract_x
_atom_site_fract_y
_atom_site_fract_z
Mn1 Mn 1.0000 1.0000 0.0000
Mn2 Mn 0.8315(2) 0.8772(2) 0.21001(13)
Mn3 Mn 0.5604(2) 0.5718(2) 0.25545(13)
Mn4 Mn 0.5000 0.5000 0.5000
Cl1 Cl 0.7782(4) 0.6311(3) 0.1624(2)
Cl2 Cl 0.6045(4) 0.8321(3) 0.2831(2)
Cl3 Cl 0.4905(4) 0.3329(3) 0.2153(2)
O1 O 1.1183(11) 0.9640(10) 0.1048(6)
O2 O 0.3453(10) 0.5348(10) 0.4208(6)
O3 O 0.8292(10) 0.9316(10) 0.0648(6)
O4 O 0.6294(10) 0.5427(10) 0.3989(6)
O5 O 1.0016(11) 1.2010(10) 0.0713(7)
H1 H 0.953(7) 1.172(5) 0.123(4)
O6 O 0.8707(13) 1.0967(12) 0.2399(9)
H2 H 0.900(9) 1.072(5) 0.298(4)
O7 O 0.5663(12) 0.7140(11) 0.5662(7)
H3 H 0.5571 0.7031 0.6238
N1 N 0.9496(15) 0.8577(13) 0.3542(8)
N2 N 1.0621(13) 0.9283(11) 0.1902(8)
N3 N 0.3944(13) 0.6083(11) 0.1431(8)
N4 N 0.3618(13) 0.5657(12) 0.3278(7)
C1 C 0.892(2) 0.8216(17) 0.4378(10)
H4 H 0.7943 0.7946 0.4407
C2 C 0.980(2) 0.8242(18) 0.5213(11)
H5 H 0.9394 0.7955 0.5783
C3 C 1.114(2) 0.8649(18) 0.5205(10)
H6 H 1.1691 0.8730 0.5777
C4 C 1.176(2) 0.8962(19) 0.4382(11)
H7 H 1.2743 0.9191 0.4371
C5 C 1.0925(16) 0.8947(14) 0.3534(9)
C6 C 1.1549(15) 0.9315(14) 0.2607(9)
C7 C 1.3112(17) 0.9698(17) 0.2495(11)
H8 H 1.3451 1.0632 0.2588
H9 H 1.3312 0.9445 0.1862
H10 H 1.3581 0.9265 0.2962
C8 C 0.4115(16) 0.6332(14) 0.0509(10)
H11 H 0.4969 0.6299 0.0247
C9 C 0.3043(17) 0.6640(15) -0.0076(9)
H12 H 0.3193 0.6791 -0.0721
C10 C 0.1817(14) 0.6723(12) 0.0265(8)
H13 H 0.1118 0.6958 -0.0123
C11 C 0.1622(15) 0.6454(14) 0.1192(9)
H14 H 0.0762 0.6484 0.1446
C12 C 0.2680(15) 0.6129(13) 0.1787(9)
C13 C 0.2479(14) 0.5799(13) 0.2810(9)
C14 C 0.1074(16) 0.5603(17) 0.3250(10)
H15 H 0.1190 0.6090 0.3849
H16 H 0.0706 0.4686 0.3359
H17 H 0.0424 0.5906 0.2823
C15 C 0.6914(15) 0.9357(16) 0.0265(10)
H18 H 0.6890 1.0251 0.0152
H19 H 0.6217 0.8993 0.0714
H20 H 0.6707 0.8854 -0.0329
C16 C 0.7597(16) 0.5012(17) 0.4011(10)
H21 H 0.7394 0.4081 0.3884
H22 H 0.8077 0.5216 0.4633
H23 H 0.8193 0.5459 0.3532
C17 C 1.1328(18) 1.2883(16) 0.1035(12)
H24 H 1.1952 1.2389 0.1312
H25 H 1.1155 1.3492 0.1508
H26 H 1.1762 1.3356 0.0501
C18 C 0.7646(19) 1.1613(17) 0.2507(12)
H27 H 0.8061 1.2532 0.2630
H28 H 0.7094 1.1260 0.3035
H29 H 0.7044 1.1499 0.1930
C19 C 0.4904(19) 0.8088(16) 0.5344(11)
H30 H 0.5093 0.8818 0.5796
H31 H 0.3903 0.7688 0.5296
H32 H 0.5211 0.8392 0.4726
Mn2A Mn 0.1685(2) 0.1228(2) 0.78999(13)
Mn3A Mn 0.4396(2) 0.4282(2) 0.74455(13)
Cl1A Cl 0.2218(4) 0.3689(3) 0.8376(2)
Cl2A Cl 0.3955(4) 0.1679(3) 0.7169(2)
Cl3A Cl 0.5095(4) 0.6671(3) 0.7847(2)
O1A O -0.1183(11) 0.0360(10) 0.8952(6)
O2A O 0.6547(10) 0.4652(10) 0.5792(6)
O3A O 0.1708(10) 0.0684(10) 0.9352(6)
O4A O 0.3706(10) 0.4573(10) 0.6011(6)
O6A O 0.1293(13) -0.0967(12) 0.7601(9)
H2A H 0.100(9) -0.072(5) 0.702(4)
O7A O 0.4337(12) 0.2860(11) 0.4338(7)
H3A H 0.4429 0.2969 0.3762
N1A N 0.0504(15) 0.1423(13) 0.6458(8)
N2A N -0.0621(13) 0.0717(11) 0.8098(8)
N3A N 0.6056(13) 0.3917(11) 0.8569(8)
N4A N 0.6382(13) 0.4343(12) 0.6722(7)
C1A C 0.108(2) 0.1784(17) 0.5622(10)
H4A H 0.2057 0.2054 0.5593
C2A C 0.020(2) 0.1758(18) 0.4787(11)
H5A H 0.0606 0.2045 0.4217
C3A C -0.114(2) 0.1351(18) 0.4795(10)
H6A H -0.1691 0.1270 0.4223
C4A C -0.176(2) 0.1038(19) 0.5618(11)
H7A H -0.2743 0.0809 0.5629
C5A C -0.0925(16) 0.1053(14) 0.6466(9)
C6A C -0.1549(15) 0.0685(14) 0.7393(9)
C7A C -0.3112(17) 0.0302(17) 0.7505(11)
H8A H -0.3451 -0.0632 0.7412
H9A H -0.3312 0.0555 0.8138
H10A H -0.3581 0.0735 0.7038
C8A C 0.5885(16) 0.3668(14) 0.9491(10)
H11A H 0.5031 0.3701 0.9753
C9A C 0.6957(17) 0.3360(15) 1.0076(9)
H12A H 0.6807 0.3209 1.0721
C10A C 0.8183(14) 0.3277(12) 0.9735(8)
H13A H 0.8882 0.3042 1.0123
C11A C 0.8378(15) 0.3546(14) 0.8808(9)
H14A H 0.9238 0.3516 0.8554
C12A C 0.7320(15) 0.3871(13) 0.8213(9)
C13A C 0.7521(14) 0.4201(13) 0.7190(9)
C14A C 0.8926(16) 0.4397(17) 0.6750(10)
H15A H 0.8810 0.3910 0.6151
H16A H 0.9294 0.5314 0.6641
H17A H 0.9576 0.4094 0.7177
C15A C 0.3086(15) 0.0643(16) 0.9735(10)
H18A H 0.3110 -0.0251 0.9848
H19A H 0.3783 0.1007 0.9286
H20A H 0.3293 0.1146 1.0329
C16A C 0.2403(16) 0.4988(17) 0.5989(10)
H21A H 0.2606 0.5919 0.6116
H22A H 0.1923 0.4784 0.5367
H23A H 0.1807 0.4541 0.6468
C18A C 0.2354(19) -0.1613(17) 0.7493(12)
H27A H 0.1939 -0.2532 0.7370
H28A H 0.2906 -0.1260 0.6965
H29A H 0.2956 -0.1499 0.8070
C19A C 0.5096(19) 0.1912(16) 0.4656(11)
H30A H 0.4907 0.1182 0.4204
H31A H 0.6097 0.2312 0.4704
H32A H 0.4789 0.1608 0.5274
O5A O 0.9984(11) 0.7990(10) -0.0713(7)
H1A H 1.047(7) 0.828(5) -0.123(4)
C17A C 0.8672(18) 0.7117(16) -0.1035(12)
H24A H 0.8048 0.7611 -0.1312
H25A H 0.8845 0.6508 -0.1508
H26A H 0.8238 0.6644 -0.0501
Mn1_2 Mn 0.0000 0.0000 1.0000
O1A_2 O 0.8817(11) 1.0360(10) -0.1048(6)
O3A_2 O 1.1708(10) 1.0684(10) -0.0648(6)
loop_
_geom_bond_atom_site_label_1
_geom_bond_atom_site_label_2
_geom_bond_site_symmetry_1
_geom_bond_site_symmetry_2
Mn1 O1 1_555 1_555
Mn2 Cl1 1_555 1_555
Mn3 Cl1 1_555 1_555
Mn4 O2 1_555 1_555
Cl2 Mn2 1_555 1_555
Cl3 Mn3 1_555 1_555
O1 N2 1_555 1_555
O2 N4 1_555 1_555
O3 Mn1 1_555 1_555
O4 Mn3 1_555 1_555
O5 Mn1 1_555 1_555
H1 O5 1_555 1_555
O6 Mn2 1_555 1_555
H2 O6 1_555 1_555
O7 Mn4 1_555 1_555
H3 O7 1_555 1_555
N1 Mn2 1_555 1_555
N2 Mn2 1_555 1_555
N3 Mn3 1_555 1_555
N4 Mn3 1_555 1_555
C1 N1 1_555 1_555
H4 C1 1_555 1_555
C2 C1 1_555 1_555
H5 C2 1_555 1_555
C3 C2 1_555 1_555
H6 C3 1_555 1_555
C4 C3 1_555 1_555
H7 C4 1_555 1_555
C5 N1 1_555 1_555
C6 N2 1_555 1_555
C7 C6 1_555 1_555
H8 C7 1_555 1_555
H9 C7 1_555 1_555
H10 C7 1_555 1_555
C8 N3 1_555 1_555
H11 C8 1_555 1_555
C9 C8 1_555 1_555
H12 C9 1_555 1_555
C10 C9 1_555 1_555
H13 C10 1_555 1_555
C11 C10 1_555 1_555
H14 C11 1_555 1_555
C12 N3 1_555 1_555
C13 N4 1_555 1_555
C14 C13 1_555 1_555
H15 C14 1_555 1_555
H16 C14 1_555 1_555
H17 C14 1_555 1_555
C15 O3 1_555 1_555
H18 C15 1_555 1_555
H19 C15 1_555 1_555
H20 C15 1_555 1_555
C16 O4 1_555 1_555
H21 C16 1_555 1_555
H22 C16 1_555 1_555
H23 C16 1_555 1_555
C17 O5 1_555 1_555
H24 C17 1_555 1_555
H25 C17 1_555 1_555
H26 C17 1_555 1_555
C18 O6 1_555 1_555
H27 C18 1_555 1_555
H28 C18 1_555 1_555
H29 C18 1_555 1_555
C19 O7 1_555 1_555
H30 C19 1_555 1_555
H31 C19 1_555 1_555
H32 C19 1_555 1_555
Mn2A Cl1A 1_555 1_555
Mn3A Cl1A 1_555 1_555
Cl2A Mn2A 1_555 1_555
Cl3A Mn3A 1_555 1_555
O1A N2A 1_555 1_555
O2A Mn4 1_555 1_555
O3A Mn2A 1_555 1_555
O4A Mn4 1_555 1_555
O6A Mn2A 1_555 1_555
H2A O6A 1_555 1_555
O7A Mn4 1_555 1_555
H3A O7A 1_555 1_555
N1A Mn2A 1_555 1_555
N2A Mn2A 1_555 1_555
N3A Mn3A 1_555 1_555
N4A Mn3A 1_555 1_555
C1A N1A 1_555 1_555
H4A C1A 1_555 1_555
C2A C1A 1_555 1_555
H5A C2A 1_555 1_555
C3A C2A 1_555 1_555
H6A C3A 1_555 1_555
C4A C3A 1_555 1_555
H7A C4A 1_555 1_555
C5A N1A 1_555 1_555
C6A N2A 1_555 1_555
C7A C6A 1_555 1_555
H8A C7A 1_555 1_555
H9A C7A 1_555 1_555
H10A C7A 1_555 1_555
C8A N3A 1_555 1_555
H11A C8A 1_555 1_555
C9A C8A 1_555 1_555
H12A C9A 1_555 1_555
C10A C9A 1_555 1_555
H13A C10A 1_555 1_555
C11A C10A 1_555 1_555
H14A C11A 1_555 1_555
C12A N3A 1_555 1_555
C13A N4A 1_555 1_555
C14A C13A 1_555 1_555
H15A C14A 1_555 1_555
H16A C14A 1_555 1_555
H17A C14A 1_555 1_555
C15A O3A 1_555 1_555
H18A C15A 1_555 1_555
H19A C15A 1_555 1_555
H20A C15A 1_555 1_555
C16A O4A 1_555 1_555
H21A C16A 1_555 1_555
H22A C16A 1_555 1_555
H23A C16A 1_555 1_555
C18A O6A 1_555 1_555
H27A C18A 1_555 1_555
H28A C18A 1_555 1_555
H29A C18A 1_555 1_555
C19A O7A 1_555 1_555
H30A C19A 1_555 1_555
H31A C19A 1_555 1_555
H32A C19A 1_555 1_555
O5A Mn1 1_555 1_555
H1A O5A 1_555 1_555
C17A O5A 1_555 1_555
H24A C17A 1_555 1_555
H25A C17A 1_555 1_555
H26A C17A 1_555 1_555
Mn1_2 O1A 1_555 1_555
O1A_2 Mn1 1_555 1_555
O3A_2 Mn1 1_555 1_555
Mn2 O3 1_555 1_555
Mn3 Cl2 1_555 1_555
Mn4 O4 1_555 1_555
C4 C5 1_555 1_555
C5 C6 1_555 1_555
C11 C12 1_555 1_555
C12 C13 1_555 1_555
Mn3A Cl2A 1_555 1_555
Mn3A O4A 1_555 1_555
O2A N4A 1_555 1_555
O3A Mn1_2 1_555 1_555
C4A C5A 1_555 1_555
C5A C6A 1_555 1_555
C11A C12A 1_555 1_555
C12A C13A 1_555 1_555

#END
