
#######################################################################
#
#                 Cambridge Crystallographic Data Centre
#                                CCDC 
#
#######################################################################
#
# If this CIF has been generated from an entry in the Cambridge 
# Structural Database, then it will include bibliographic, chemical, 
# crystal, experimental, refinement or atomic coordinate data resulting 
# from the CCDC's data processing and validation procedures.
#
#######################################################################

data_VIJSIS
_symmetry_cell_setting           monoclinic
_symmetry_space_group_name_H-M   'P 21/c'
_symmetry_Int_Tables_number      14
_space_group_name_Hall           '-P 2ybc'
loop_
_symmetry_equiv_pos_site_id
_symmetry_equiv_pos_as_xyz
1 x,y,z
2 -x,1/2+y,1/2-z
3 -x,-y,-z
4 x,1/2-y,1/2+z
_cell_length_a                   8.436(5)
_cell_length_b                   8.470(3)
_cell_length_c                   19.707(8)
_cell_angle_alpha                90
_cell_angle_beta                 114.12(2)
_cell_angle_gamma                90
_cell_volume                     1285.18
loop_
_atom_site_label
_atom_site_type_symbol
_atom_site_fract_x
_atom_site_fract_y
_atom_site_fract_z
Cu1 Cu 0.5000 0.0000 0.0000
Cu2 Cu 0.80218(4) -0.01269(3) -0.065432(15)
O1 O 0.5055(2) -0.1766(2) -0.06100(10)
O2 O 0.9920(2) 0.1347(2) -0.04521(9)
O3 O 0.8283(3) 0.2442(3) -0.15323(11)
O4 O 0.6753(3) 0.1057(2) -0.02044(10)
N1 N 0.8610(3) -0.1479(3) -0.13671(11)
N2 N 0.8772(3) -0.3125(3) -0.25354(13)
N3 N 0.6191(3) -0.1728(2) -0.09196(10)
C1 C 0.9888(4) -0.1204(4) -0.15851(16)
H1 H 1.0715 -0.0432 -0.1350
C2 C 0.9973(5) -0.2075(4) -0.21644(18)
H2 H 1.0902 -0.1917 -0.2296
C3 C 0.7482(3) -0.3392(3) -0.23207(13)
C4 C 0.7421(3) -0.2597(3) -0.17071(12)
C5 C 0.6109(3) -0.2798(3) -0.13988(12)
C6 C 0.4796(4) -0.4102(4) -0.15869(18)
H3 H 0.4104 -0.3969 -0.1307
H4 H 0.5383 -0.5101 -0.1466
H5 H 0.4060 -0.4070 -0.2109
C7 C 0.6133(4) -0.4552(4) -0.27975(18)
H6 H 0.6453 -0.4945 -0.3181
H7 H 0.5026 -0.4034 -0.3020
H8 H 0.6060 -0.5414 -0.2496
C8 C 0.9624(4) 0.2405(3) -0.09589(14)
C9 C 1.1040(5) 0.3596(4) -0.0804(2)
H9 H 1.1979 0.3363 -0.0336
H10 H 1.0597 0.4632 -0.0786
H11 H 1.1452 0.3558 -0.1192
C10 C 0.7011(6) 0.2709(4) -0.0101(2)
H12 H 0.7941 0.3027 -0.0233
H13 H 0.7301 0.2967 0.0410
H14 H 0.5966 0.3251 -0.0412
Cu2B Cu 0.19782(4) 0.01269(3) 0.065432(15)
O1B O 0.4945(2) 0.1766(2) 0.06100(10)
O2B O 0.0080(2) -0.1347(2) 0.04521(9)
O3B O 0.1717(3) -0.2442(3) 0.15323(11)
O4B O 0.3247(3) -0.1057(2) 0.02044(10)
N1B N 0.1390(3) 0.1479(3) 0.13671(11)
N2B N 0.1228(3) 0.3125(3) 0.25354(13)
N3B N 0.3809(3) 0.1728(2) 0.09196(10)
C1B C 0.0112(4) 0.1204(4) 0.15851(16)
H1B H -0.0715 0.0432 0.1350
C2B C 0.0027(5) 0.2075(4) 0.21644(18)
H2B H -0.0902 0.1917 0.2296
C3B C 0.2518(3) 0.3392(3) 0.23207(13)
C4B C 0.2579(3) 0.2597(3) 0.17071(12)
C5B C 0.3891(3) 0.2798(3) 0.13988(12)
C6B C 0.5204(4) 0.4102(4) 0.15869(18)
H3B H 0.5896 0.3969 0.1307
H4B H 0.4617 0.5101 0.1466
H5B H 0.5940 0.4070 0.2109
C7B C 0.3867(4) 0.4552(4) 0.27975(18)
H6B H 0.3547 0.4945 0.3181
H7B H 0.4974 0.4034 0.3020
H8B H 0.3940 0.5414 0.2496
C8B C 0.0376(4) -0.2405(3) 0.09589(14)
C9B C -0.1040(5) -0.3596(4) 0.0804(2)
H9B H -0.1979 -0.3363 0.0336
H10B H -0.0597 -0.4632 0.0786
H11B H -0.1452 -0.3558 0.1192
C10B C 0.2989(6) -0.2709(4) 0.0101(2)
H12B H 0.2059 -0.3027 0.0233
H13B H 0.2699 -0.2967 -0.0410
H14B H 0.4034 -0.3251 0.0412
Cu2_2 Cu -0.19782(4) -0.01269(3) -0.065432(15)
Cu2B_2 Cu 1.19782(4) 0.01269(3) 0.065432(15)
O2_2 O -0.0080(2) 0.1347(2) -0.04521(9)
O2B_2 O 1.0080(2) -0.1347(2) 0.04521(9)
loop_
_geom_bond_atom_site_label_1
_geom_bond_atom_site_label_2
_geom_bond_site_symmetry_1
_geom_bond_site_symmetry_2
Cu1 O1 1_555 1_555
Cu2 O2 1_555 1_555
O1 N3 1_555 1_555
O2 C8 1_555 1_555
O3 C8 1_555 1_555
O4 Cu1 1_555 1_555
N1 Cu2 1_555 1_555
N2 C2 1_555 1_555
N3 Cu2 1_555 1_555
C1 N1 1_555 1_555
H1 C1 1_555 1_555
C2 C1 1_555 1_555
H2 C2 1_555 1_555
C3 N2 1_555 1_555
C4 N1 1_555 1_555
C5 N3 1_555 1_555
C6 C5 1_555 1_555
H3 C6 1_555 1_555
H4 C6 1_555 1_555
H5 C6 1_555 1_555
C7 C3 1_555 1_555
H6 C7 1_555 1_555
H7 C7 1_555 1_555
H8 C7 1_555 1_555
C8 C9 1_555 1_555
C9 H9 1_555 1_555
H10 C9 1_555 1_555
H11 C9 1_555 1_555
C10 O4 1_555 1_555
H12 C10 1_555 1_555
H13 C10 1_555 1_555
H14 C10 1_555 1_555
Cu2B O2B 1_555 1_555
O1B Cu1 1_555 1_555
O2B C8B 1_555 1_555
O3B C8B 1_555 1_555
O4B Cu1 1_555 1_555
N1B Cu2B 1_555 1_555
N2B C2B 1_555 1_555
N3B Cu2B 1_555 1_555
C1B N1B 1_555 1_555
H1B C1B 1_555 1_555
C2B C1B 1_555 1_555
H2B C2B 1_555 1_555
C3B N2B 1_555 1_555
C4B N1B 1_555 1_555
C5B N3B 1_555 1_555
C6B C5B 1_555 1_555
H3B C6B 1_555 1_555
H4B C6B 1_555 1_555
H5B C6B 1_555 1_555
C7B C3B 1_555 1_555
H6B C7B 1_555 1_555
H7B C7B 1_555 1_555
H8B C7B 1_555 1_555
C8B C9B 1_555 1_555
C9B H9B 1_555 1_555
H10B C9B 1_555 1_555
H11B C9B 1_555 1_555
C10B O4B 1_555 1_555
H12B C10B 1_555 1_555
H13B C10B 1_555 1_555
H14B C10B 1_555 1_555
Cu2_2 O2B 1_555 1_555
Cu2B_2 O2 1_555 1_555
O2_2 Cu2B 1_555 1_555
O2B_2 Cu2 1_555 1_555
Cu2 O4 1_555 1_555
C3 C4 1_555 1_555
C4 C5 1_555 1_555
Cu2B O4B 1_555 1_555
O1B N3B 1_555 1_555
C3B C4B 1_555 1_555
C4B C5B 1_555 1_555
Cu2_2 O2_2 1_555 1_555
Cu2B_2 O2B_2 1_555 1_555

#END
