
#######################################################################
#
#                 Cambridge Crystallographic Data Centre
#                                CCDC 
#
#######################################################################
#
# If this CIF has been generated from an entry in the Cambridge 
# Structural Database, then it will include bibliographic, chemical, 
# crystal, experimental, refinement or atomic coordinate data resulting 
# from the CCDC's data processing and validation procedures.
#
#######################################################################

data_VIKDID
_symmetry_cell_setting           triclinic
_symmetry_space_group_name_H-M   'P 1'
_symmetry_Int_Tables_number      1
_space_group_name_Hall           'P 1'
loop_
_symmetry_equiv_pos_site_id
_symmetry_equiv_pos_as_xyz
1 x,y,z
_cell_length_a                   7.20440(10)
_cell_length_b                   11.29590(10)
_cell_length_c                   13.6932(2)
_cell_angle_alpha                70.8720(10)
_cell_angle_beta                 76.4360(10)
_cell_angle_gamma                74.5890(10)
_cell_volume                     1001.59
loop_
_atom_site_label
_atom_site_type_symbol
_atom_site_fract_x
_atom_site_fract_y
_atom_site_fract_z
Zn1 Zn 0.50020(4) 0.49999(3) 0.50000(2)
O1 O 0.6895(3) 0.4346(2) 0.38485(17)
O2 O 0.8194(3) 0.2799(2) 0.51287(16)
O3 O 1.1508(4) -0.07046(19) 0.32384(17)
O4 O 1.2618(4) -0.3575(2) 0.5234(2)
O5 O 1.3998(4) -0.2917(2) 0.3622(2)
O6 O 1.0672(4) 0.3287(2) 0.06085(16)
O7 O 1.1763(4) 0.3157(2) -0.20182(18)
O8 O 1.0586(5) 0.4765(2) -0.1298(2)
O17 O 0.4777(4) 0.3952(2) 0.65198(18)
H1 H 0.5676 0.3326 0.6757
H2 H 0.3717 0.3875 0.6949
O18 O 0.7069(4) 0.5919(2) 0.5134(2)
H3 H 0.7899 0.5459 0.5527
H4 H 0.6719 0.6667 0.5218
O19 O 0.3050(4) 0.4050(2) 0.4675(2)
H5 H 0.2063 0.4105 0.5141
H6 H 0.3398 0.3315 0.4584
C1 C 0.9180(4) 0.2574(3) 0.3402(2)
C2 C 0.9824(4) 0.1244(3) 0.3748(2)
H39 H 0.9591 0.0799 0.4454
C3 C 1.0815(5) 0.0614(3) 0.3009(2)
C4 C 1.1186(4) 0.1252(3) 0.1949(2)
H40 H 1.1890 0.0809 0.1468
C5 C 1.0486(4) 0.2556(3) 0.1624(2)
C6 C 0.9513(5) 0.3224(3) 0.2356(2)
H41 H 0.9090 0.4108 0.2136
C7 C 0.8031(4) 0.3279(3) 0.4184(2)
C8 C 1.1374(5) -0.1446(3) 0.4299(2)
H42 H 1.0049 -0.1570 0.4575
H43 H 1.1717 -0.1008 0.4713
C9 C 1.2758(5) -0.2724(3) 0.4360(3)
C10 C 1.1395(5) 0.2647(3) -0.0181(2)
H44 H 1.0651 0.2002 -0.0075
H45 H 1.2750 0.2226 -0.0152
C11 C 1.1210(5) 0.3627(3) -0.1237(2)
Zn1_2 Zn 1.50020(4) -0.50001(3) 0.50000(2)
O4_2 O 0.2618(4) 0.6425(2) 0.5234(2)
Zn2 Zn 1.09107(4) -0.01775(3) 0.75462(2)
O9 O 0.9041(3) 0.05406(19) 0.86500(17)
O10 O 0.7751(4) 0.2131(2) 0.73999(16)
O11 O 0.4494(4) 0.55586(19) 0.93352(17)
O12 O 0.3162(4) 0.8365(2) 0.73159(19)
O13 O 0.1907(4) 0.7768(2) 0.8983(2)
O14 O 0.5828(4) 0.1589(2) 1.19514(16)
O15 O 0.4309(4) 0.1582(2) 1.45986(17)
O16 O 0.5407(5) 0.0034(2) 1.3813(2)
O20 O 1.1147(4) 0.0933(3) 0.60334(19)
H7 H 1.2257 0.0959 0.5653
H8 H 1.0259 0.1397 0.5683
O21 O 0.8840(4) -0.1083(3) 0.7440(3)
H9 H 0.9317 -0.1700 0.7174
H10 H 0.7843 -0.0621 0.7160
O22 O 1.2974(4) 0.0640(3) 0.7922(2)
H11 H 1.2680 0.1351 0.8051
H12 H 1.4065 0.0546 0.7534
C12 C 0.7946(4) 0.1633(3) 0.8330(2)
C13 C 0.6929(4) 0.2321(3) 0.9140(2)
C14 C 0.6166(4) 0.3631(3) 0.8811(2)
H46 H 0.6261 0.4068 0.8101
C15 C 0.5266(5) 0.4270(3) 0.9558(2)
C16 C 0.5108(5) 0.3619(3) 1.0628(2)
H47 H 0.4486 0.4055 1.1124
C17 C 0.5881(4) 0.2331(3) 1.0936(2)
C18 C 0.6809(4) 0.1668(3) 1.0196(2)
H48 H 0.7342 0.0797 1.0410
C19 C 0.4421(5) 0.6258(3) 0.8262(2)
H49 H 0.3949 0.5789 0.7924
H50 H 0.5716 0.6377 0.7898
C20 C 0.3055(5) 0.7552(3) 0.8218(3)
C21 C 0.4896(5) 0.2183(3) 1.2755(2)
H51 H 0.3569 0.2610 1.2651
H52 H 0.5591 0.2818 1.2740
C22 C 0.4887(5) 0.1164(3) 1.3797(2)
Zn2_2 Zn 0.09107(4) 0.98225(3) 0.75462(2)
O12_2 O 1.3162(4) -0.1635(2) 0.73159(19)
Zn3 Zn 0.83895(6) -0.22965(4) 1.16257(3)
O23 O 0.5925(4) -0.1146(3) 1.2179(2)
H13 H 0.5077 -0.1567 1.2609
H14 H 0.6092 -0.0632 1.2471
O24 O 0.6677(4) -0.3664(2) 1.18827(19)
H15 H 0.6994 -0.4246 1.2439
H16 H 0.7241 -0.3993 1.1389
O25 O 0.9205(5) -0.3172(3) 1.3127(2)
H17 H 0.8392 -0.3465 1.3651
H18 H 1.0280 -0.3705 1.3114
O26 O 1.0768(4) -0.3539(3) 1.1004(2)
H19 H 1.0713 -0.3919 1.0576
H20 H 1.1789 -0.3893 1.1285
O27 O 1.0123(5) -0.1048(3) 1.1442(2)
H21 H 1.0628 -0.1281 1.1997
H22 H 0.9395 -0.0292 1.1392
O28 O 0.7652(4) -0.1549(2) 1.01018(18)
H23 H 0.7790 -0.2092 0.9766
H24 H 0.8172 -0.0931 0.9702
O29 O -0.0153(4) 0.4100(2) 0.6226(2)
H25 H 0.0081 0.4151 0.6794
H26 H -0.0582 0.3411 0.6377
O30 O 1.5912(6) -0.1901(3) 0.5556(2)
H27 H 1.4965 -0.1913 0.6062
H28 H 1.5590 -0.1303 0.5022
O31 O 1.6115(4) 0.0755(2) 0.6342(2)
H29 H 1.6390 0.1426 0.6361
H30 H 1.5541 0.0906 0.5830
O32 O 0.3399(5) -0.0597(4) 1.0130(3)
H31 H 0.3490 -0.1384 1.0455
H32 H 0.3618 -0.0500 0.9470
O33 O 0.9701(5) -0.3302(3) 0.6995(3)
H33 H 1.0121 -0.3888 0.7511
H34 H 1.0556 -0.3267 0.6449
O34 O 1.2910(5) -0.4540(3) 1.2606(3)
H35 H 1.3785 -0.4062 1.2377
H36 H 1.3035 -0.4956 1.3247
O35 O 0.7759(4) 0.6085(3) 0.9927(2)
H37 H 0.6812 0.6080 0.9664
H38 H 0.8822 0.5733 0.9621
loop_
_geom_bond_atom_site_label_1
_geom_bond_atom_site_label_2
_geom_bond_site_symmetry_1
_geom_bond_site_symmetry_2
Zn1 O1 1_555 1_555
Zn2 O9 1_555 1_555
Zn3 O23 1_555 1_555
O1 C7 1_555 1_555
O2 C7 1_555 1_555
O3 C3 1_555 1_555
O4 C9 1_555 1_555
O5 C9 1_555 1_555
O6 C5 1_555 1_555
O7 C11 1_555 1_555
O8 C11 1_555 1_555
O9 C12 1_555 1_555
O10 C12 1_555 1_555
O11 C15 1_555 1_555
O12 C20 1_555 1_555
O13 C20 1_555 1_555
O14 C17 1_555 1_555
O15 C22 1_555 1_555
O16 C22 1_555 1_555
O17 Zn1 1_555 1_555
H1 O17 1_555 1_555
H2 O17 1_555 1_555
O18 Zn1 1_555 1_555
H3 O18 1_555 1_555
H4 O18 1_555 1_555
O19 Zn1 1_555 1_555
H5 O19 1_555 1_555
H6 O19 1_555 1_555
O20 Zn2 1_555 1_555
H7 O20 1_555 1_555
H8 O20 1_555 1_555
O21 Zn2 1_555 1_555
H9 O21 1_555 1_555
H10 O21 1_555 1_555
O22 Zn2 1_555 1_555
H11 O22 1_555 1_555
H12 O22 1_555 1_555
O23 H13 1_555 1_555
H14 O23 1_555 1_555
O24 Zn3 1_555 1_555
H15 O24 1_555 1_555
H16 O24 1_555 1_555
O25 Zn3 1_555 1_555
H17 O25 1_555 1_555
H18 O25 1_555 1_555
O26 Zn3 1_555 1_555
H19 O26 1_555 1_555
H20 O26 1_555 1_555
O27 Zn3 1_555 1_555
H21 O27 1_555 1_555
H22 O27 1_555 1_555
O28 Zn3 1_555 1_555
H23 O28 1_555 1_555
H24 O28 1_555 1_555
O29 H25 1_555 1_555
H26 O29 1_555 1_555
O30 H27 1_555 1_555
H28 O30 1_555 1_555
O31 H29 1_555 1_555
H30 O31 1_555 1_555
O32 H31 1_555 1_555
H32 O32 1_555 1_555
O33 H33 1_555 1_555
H34 O33 1_555 1_555
O34 H35 1_555 1_555
H36 O34 1_555 1_555
O35 H37 1_555 1_555
H38 O35 1_555 1_555
C1 C2 1_555 1_555
C2 H39 1_555 1_555
C3 C2 1_555 1_555
C4 C3 1_555 1_555
H40 C4 1_555 1_555
C5 C4 1_555 1_555
C6 C1 1_555 1_555
H41 C6 1_555 1_555
C7 C1 1_555 1_555
C8 O3 1_555 1_555
H42 C8 1_555 1_555
H43 C8 1_555 1_555
C9 C8 1_555 1_555
C10 O6 1_555 1_555
H44 C10 1_555 1_555
H45 C10 1_555 1_555
C11 C10 1_555 1_555
C12 C13 1_555 1_555
C13 C14 1_555 1_555
C14 H46 1_555 1_555
C15 C14 1_555 1_555
C16 C15 1_555 1_555
H47 C16 1_555 1_555
C17 C16 1_555 1_555
C18 C13 1_555 1_555
H48 C18 1_555 1_555
C19 O11 1_555 1_555
H49 C19 1_555 1_555
H50 C19 1_555 1_555
C20 C19 1_555 1_555
C21 O14 1_555 1_555
H51 C21 1_555 1_555
H52 C21 1_555 1_555
C22 C21 1_555 1_555
Zn1_2 O4 1_555 1_555
Zn2_2 O12 1_555 1_555
O4_2 Zn1 1_555 1_555
O12_2 Zn2 1_555 1_555
C5 C6 1_555 1_555
C17 C18 1_555 1_555

#END
