
#######################################################################
#
#                 Cambridge Crystallographic Data Centre
#                                CCDC 
#
#######################################################################
#
# If this CIF has been generated from an entry in the Cambridge 
# Structural Database, then it will include bibliographic, chemical, 
# crystal, experimental, refinement or atomic coordinate data resulting 
# from the CCDC's data processing and validation procedures.
#
#######################################################################

data_VIKMOS
_symmetry_cell_setting           monoclinic
_symmetry_space_group_name_H-M   'P 21/n'
_symmetry_Int_Tables_number      14
_space_group_name_Hall           '-P 2yn'
loop_
_symmetry_equiv_pos_site_id
_symmetry_equiv_pos_as_xyz
1 x,y,z
2 1/2-x,1/2+y,1/2-z
3 -x,-y,-z
4 1/2+x,1/2-y,1/2+z
_cell_length_a                   20.117(2)
_cell_length_b                   7.4288(8)
_cell_length_c                   28.642(3)
_cell_angle_alpha                90
_cell_angle_beta                 109.346(2)
_cell_angle_gamma                90
_cell_volume                     4038.72
loop_
_atom_site_label
_atom_site_type_symbol
_atom_site_fract_x
_atom_site_fract_y
_atom_site_fract_z
Cu1 Cu 0.69755(3) 0.32214(10) 0.04653(2)
Cl1 Cl 0.65609(7) 0.79257(19) 0.01838(5)
O1 O 0.7037(2) 0.6481(5) 0.03407(15)
O2 O 0.6934(3) 0.9496(9) 0.0336(4)
O3 O 0.6066(4) 0.7960(12) 0.0423(3)
O4 O 0.6235(6) 0.7948(17) -0.0306(2)
N1 N 0.6623(2) 0.3196(5) -0.02677(13)
N2 N 0.5983(2) 0.2589(6) 0.03708(17)
N3 N 0.7993(2) 0.2630(6) 0.06155(14)
N4 N 0.7312(3) 0.3893(7) 0.11778(15)
C1 C 0.6957(3) 0.3628(8) -0.05838(19)
H1 H 0.7432 0.4045 -0.0419
C2 C 0.6618(4) 0.3513(9) -0.1093(2)
H2 H 0.6821 0.3804 -0.1264
C3 C 0.5934(4) 0.2970(9) -0.1272(2)
H3 H 0.5764 0.2900 -0.1627
C4 C 0.5593(3) 0.2578(8) -0.0954(2)
H4 H 0.5063 0.2100 -0.1041
C5 C 0.5946(3) 0.2694(7) -0.04521(19)
C6 C 0.5630(3) 0.2350(7) -0.0074(2)
H5 H 0.5240 0.1732 -0.0156
C7 C 0.5687(3) 0.2104(8) 0.0759(2)
H6 H 0.6024 0.1438 0.0999
H7 H 0.5218 0.1389 0.0611
C8 C 0.5640(4) 0.3672(11) 0.1074(3)
H8 H 0.5398 0.3374 0.1281
H9 H 0.5605 0.4904 0.0896
C9 C 0.8316(3) 0.1858(8) 0.03287(19)
H10 H 0.8013 0.1351 -0.0017
C10 C 0.9044(3) 0.1565(9) 0.0502(2)
H11 H 0.9244 0.0871 0.0295
C11 C 0.9426(3) 0.2052(9) 0.0977(3)
H12 H 0.9917 0.1896 0.1134
C12 C 0.9090(3) 0.2800(8) 0.1276(2)
H13 H 0.9336 0.2827 0.1625
C13 C 0.8372(3) 0.3045(7) 0.10839(18)
C14 C 0.7970(3) 0.3767(8) 0.13729(19)
H14 H 0.8201 0.4131 0.1712
C15 C 0.6894(5) 0.4687(16) 0.1467(3)
H15 H 0.7213 0.4787 0.1804
H16 H 0.6786 0.5902 0.1341
C16 C 0.6323(7) 0.414(2) 0.1462(5)
H17 H 0.6186 0.4889 0.1692
H18 H 0.6467 0.3000 0.1629
Cu2 Cu 0.04716(3) 0.76985(9) 0.19816(2)
Cl2 Cl 0.09722(7) 0.2743(2) 0.22394(5)
O5 O 0.0489(3) 0.4215(7) 0.2108(2)
O6 O 0.0578(3) 0.1163(7) 0.2119(3)
O7 O 0.1390(4) 0.2846(13) 0.2727(2)
O8 O 0.1413(3) 0.2869(11) 0.1945(2)
N5 N -0.0536(2) 0.8319(6) 0.18908(14)
N6 N 0.0061(2) 0.7050(6) 0.12802(13)
N7 N 0.0883(2) 0.7447(5) 0.27057(13)
N8 N 0.1479(2) 0.7862(7) 0.20298(17)
C17 C -0.0812(3) 0.9091(8) 0.21978(19)
H19 H -0.0473 0.9493 0.2571
C18 C -0.1533(3) 0.9444(9) 0.2063(2)
H20 H -0.1728 0.9832 0.2375
C19 C -0.1962(3) 0.8954(9) 0.1598(3)
H21 H -0.2440 0.9131 0.1493
C20 C -0.1673(3) 0.8188(8) 0.1276(2)
H22 H -0.1955 0.7856 0.0959
C21 C -0.0961(3) 0.7902(7) 0.14305(18)
C22 C -0.0600(3) 0.7163(7) 0.11123(18)
H23 H -0.0849 0.6784 0.0793
C23 C 0.0438(3) 0.6254(8) 0.09680(19)
H24 H 0.0157 0.5934 0.0643
H25 H 0.0771 0.5332 0.1193
C24 C 0.0849(4) 0.7715(10) 0.0803(2)
H26 H 0.1108 0.7147 0.0611
H27 H 0.0512 0.8534 0.0585
C25 C 0.0571(3) 0.7012(7) 0.30334(18)
H28 H 0.0024 0.6986 0.2869
C26 C 0.0957(3) 0.6732(9) 0.35285(19)
H29 H 0.0683 0.6376 0.3767
C27 C 0.1662(4) 0.6906(9) 0.3686(2)
H30 H 0.1897 0.6851 0.4062
C28 C 0.2001(3) 0.7327(9) 0.3348(2)
H31 H 0.2525 0.7596 0.3450
C29 C 0.1592(3) 0.7578(7) 0.28650(19)
C30 C 0.1878(3) 0.7902(8) 0.2471(2)
H32 H 0.2397 0.8192 0.2568
C31 C 0.1784(4) 0.8105(17) 0.1629(3)
H33 H 0.2191 0.8886 0.1752
H34 H 0.1951 0.6946 0.1559
C32 C 0.1395(6) 0.868(2) 0.1205(3)
H35 H 0.1697 0.9299 0.1055
H36 H 0.1118 0.9598 0.1296
Cu2_2 Cu 0.04716(3) -0.23015(9) 0.19816(2)
O6_2 O 0.0578(3) 1.1163(7) 0.2119(3)
Cl3 Cl 0.13771(8) 0.2937(2) 0.03605(5)
O9 O 0.1778(4) 0.1437(9) 0.0326(3)
O10 O 0.1389(4) 0.4289(10) 0.00139(19)
O11 O 0.1695(3) 0.3759(9) 0.08208(17)
O12 O 0.0676(3) 0.2402(10) 0.0266(3)
Cl4 Cl 0.61488(9) 0.9037(2) 0.21421(5)
O13 O 0.5726(5) 0.7491(12) 0.2138(4)
O14 O 0.6812(4) 0.8499(16) 0.2255(4)
O15 O 0.6101(4) 1.0223(13) 0.2497(2)
O16 O 0.5795(5) 0.9751(13) 0.1695(2)
loop_
_geom_bond_atom_site_label_1
_geom_bond_atom_site_label_2
_geom_bond_site_symmetry_1
_geom_bond_site_symmetry_2
Cu1 O1 1_555 1_555
Cl1 O1 1_555 1_555
O2 Cl1 1_555 1_555
O3 Cl1 1_555 1_555
O4 Cl1 1_555 1_555
N1 Cu1 1_555 1_555
N2 Cu1 1_555 1_555
N3 Cu1 1_555 1_555
N4 Cu1 1_555 1_555
C1 N1 1_555 1_555
H1 C1 1_555 1_555
C2 C1 1_555 1_555
H2 C2 1_555 1_555
C3 C2 1_555 1_555
H3 C3 1_555 1_555
C4 C3 1_555 1_555
H4 C4 1_555 1_555
C5 N1 1_555 1_555
C6 N2 1_555 1_555
H5 C6 1_555 1_555
C7 N2 1_555 1_555
H6 C7 1_555 1_555
H7 C7 1_555 1_555
C8 C7 1_555 1_555
H8 C8 1_555 1_555
H9 C8 1_555 1_555
C9 N3 1_555 1_555
H10 C9 1_555 1_555
C10 C9 1_555 1_555
H11 C10 1_555 1_555
C11 C10 1_555 1_555
H12 C11 1_555 1_555
C12 C11 1_555 1_555
H13 C12 1_555 1_555
C13 N3 1_555 1_555
C14 N4 1_555 1_555
H14 C14 1_555 1_555
C15 N4 1_555 1_555
H15 C15 1_555 1_555
H16 C15 1_555 1_555
C16 C8 1_555 1_555
H17 C16 1_555 1_555
H18 C16 1_555 1_555
Cu2 O5 1_555 1_555
Cl2 O5 1_555 1_555
O6 Cl2 1_555 1_555
O7 Cl2 1_555 1_555
O8 Cl2 1_555 1_555
N5 Cu2 1_555 1_555
N6 Cu2 1_555 1_555
N7 Cu2 1_555 1_555
N8 Cu2 1_555 1_555
C17 N5 1_555 1_555
H19 C17 1_555 1_555
C18 C17 1_555 1_555
H20 C18 1_555 1_555
C19 C18 1_555 1_555
H21 C19 1_555 1_555
C20 C19 1_555 1_555
H22 C20 1_555 1_555
C21 N5 1_555 1_555
C22 N6 1_555 1_555
H23 C22 1_555 1_555
C23 N6 1_555 1_555
H24 C23 1_555 1_555
H25 C23 1_555 1_555
C24 C23 1_555 1_555
H26 C24 1_555 1_555
H27 C24 1_555 1_555
C25 N7 1_555 1_555
H28 C25 1_555 1_555
C26 C25 1_555 1_555
H29 C26 1_555 1_555
C27 C26 1_555 1_555
H30 C27 1_555 1_555
C28 C27 1_555 1_555
H31 C28 1_555 1_555
C29 N7 1_555 1_555
C30 N8 1_555 1_555
H32 C30 1_555 1_555
C31 N8 1_555 1_555
H33 C31 1_555 1_555
H34 C31 1_555 1_555
C32 C24 1_555 1_555
H35 C32 1_555 1_555
H36 C32 1_555 1_555
Cl3 O9 1_555 1_555
O10 Cl3 1_555 1_555
O11 Cl3 1_555 1_555
O12 Cl3 1_555 1_555
Cl4 O13 1_555 1_555
O14 Cl4 1_555 1_555
O15 Cl4 1_555 1_555
O16 Cl4 1_555 1_555
Cu2_2 O6 1_555 1_555
O6_2 Cu2 1_555 1_555
C4 C5 1_555 1_555
C5 C6 1_555 1_555
C12 C13 1_555 1_555
C13 C14 1_555 1_555
C15 C16 1_555 1_555
C20 C21 1_555 1_555
C21 C22 1_555 1_555
C28 C29 1_555 1_555
C29 C30 1_555 1_555
C31 C32 1_555 1_555

#END
