
#######################################################################
#
#                 Cambridge Crystallographic Data Centre
#                                CCDC 
#
#######################################################################
#
# If this CIF has been generated from an entry in the Cambridge 
# Structural Database, then it will include bibliographic, chemical, 
# crystal, experimental, refinement or atomic coordinate data resulting 
# from the CCDC's data processing and validation procedures.
#
#######################################################################

data_VIKPAI
_symmetry_cell_setting           orthorhombic
_symmetry_space_group_name_H-M   'P 21 21 21'
_symmetry_Int_Tables_number      19
_space_group_name_Hall           'P 2ac 2ab'
loop_
_symmetry_equiv_pos_site_id
_symmetry_equiv_pos_as_xyz
1 x,y,z
2 1/2-x,-y,1/2+z
3 -x,1/2+y,1/2-z
4 1/2+x,1/2-y,-z
_cell_length_a                   9.2589(9)
_cell_length_b                   16.1630(14)
_cell_length_c                   16.8728(17)
_cell_angle_alpha                90
_cell_angle_beta                 90
_cell_angle_gamma                90
_cell_volume                     2525.04
loop_
_atom_site_label
_atom_site_type_symbol
_atom_site_fract_x
_atom_site_fract_y
_atom_site_fract_z
C1 C 0.577(3) 0.0362(15) 0.7011(15)
H1 H 0.6295 0.0389 0.7528
N1 N 0.636(3) 0.0893(11) 0.5694(10)
N2 N 0.639(2) 0.0999(10) 0.6490(10)
C2 C 0.722(4) 0.1648(17) 0.4535(12)
H2 H 0.6808 0.1173 0.4253
H3 H 0.8265 0.1666 0.4445
H4 H 0.6779 0.2159 0.4337
C3 C 0.693(3) 0.1566(14) 0.5391(12)
C4 C 0.726(3) 0.2116(13) 0.5999(11)
C5 C 0.684(3) 0.1782(12) 0.6727(11)
C6 C 0.678(3) 0.2036(14) 0.7556(11)
H5 H 0.7179 0.2595 0.7609
H6 H 0.7347 0.1651 0.7879
H7 H 0.5774 0.2034 0.7737
C7 C 0.785(3) 0.2976(14) 0.5917(13)
O1 O 0.829(2) 0.3327(10) 0.6566(9)
H8 H 0.8543 0.3817 0.6469
O2 O 0.796(2) 0.3324(10) 0.5255(9)
N3 N 0.342(2) 0.0891(12) 0.6634(11)
N4 N 0.425(2) 0.0477(12) 0.7171(11)
C8 C 0.090(2) 0.1293(17) 0.6554(15)
H9 H 0.1232 0.1500 0.6038
H10 H 0.0522 0.1753 0.6869
H11 H 0.0144 0.0879 0.6474
C9 C 0.213(3) 0.0910(16) 0.6977(13)
C10 C 0.215(2) 0.0488(14) 0.7693(13)
C11 C 0.353(2) 0.0173(15) 0.7826(12)
C12 C 0.426(3) -0.0365(17) 0.8398(12)
H12 H 0.3575 -0.0530 0.8812
H13 H 0.5070 -0.0067 0.8639
H14 H 0.4622 -0.0859 0.8127
C13 C 0.100(3) 0.0428(13) 0.8315(14)
O3 O 0.005(2) 0.1019(10) 0.8317(9)
O4 O 0.0892(19) -0.0189(10) 0.8773(9)
N5 N 0.507(2) -0.0754(11) 0.6118(11)
N6 N 0.603(2) -0.0471(10) 0.6667(10)
C14 C 0.471(3) -0.2006(14) 0.5355(15)
H15 H 0.3967 -0.1665 0.5101
H16 H 0.4252 -0.2475 0.5624
H17 H 0.5382 -0.2212 0.4953
C15 C 0.551(3) -0.1502(14) 0.5940(12)
C16 C 0.673(3) -0.1704(12) 0.6379(14)
C17 C 0.710(3) -0.1039(13) 0.6867(13)
C18 C 0.827(2) -0.0830(14) 0.7409(13)
H18 H 0.8924 -0.1305 0.7459
H19 H 0.7872 -0.0692 0.7930
H20 H 0.8806 -0.0355 0.7201
C19 C 0.756(3) -0.2495(14) 0.6387(19)
O5 O 0.696(2) -0.3115(10) 0.6030(9)
O6 O 0.881(2) -0.2529(10) 0.6711(10)
H21 H 0.9132 -0.3013 0.6676
Na1 Na 0.3874(13) 0.0380(6) 0.5198(5)
O7 O 0.189(2) -0.0633(11) 0.5142(11)
H22 H 0.1529 -0.0860 0.5629
H23 H 0.1283 -0.0885 0.4750
O2C O 0.296(2) 0.1676(10) 0.4745(9)
O4A O 0.4108(19) 0.0189(10) 0.3773(9)
Na1A Na 0.1126(13) -0.0380(6) 1.0198(5)
Na1C Na 0.8874(13) 0.4620(6) 0.4802(5)
O8 O -0.2580(19) 0.0549(12) 0.8863(10)
H24 H -0.3007 0.0596 0.9378
H25 H -0.1582 0.0670 0.8961
loop_
_geom_bond_atom_site_label_1
_geom_bond_atom_site_label_2
_geom_bond_site_symmetry_1
_geom_bond_site_symmetry_2
C1 H1 1_555 1_555
N1 N2 1_555 1_555
N2 C1 1_555 1_555
C2 H2 1_555 1_555
H3 C2 1_555 1_555
H4 C2 1_555 1_555
C3 N1 1_555 1_555
C4 C3 1_555 1_555
C5 N2 1_555 1_555
C6 C5 1_555 1_555
H5 C6 1_555 1_555
H6 C6 1_555 1_555
H7 C6 1_555 1_555
C7 C4 1_555 1_555
O1 C7 1_555 1_555
H8 O1 1_555 1_555
O2 C7 1_555 1_555
N3 N4 1_555 1_555
N4 C1 1_555 1_555
C8 H9 1_555 1_555
H10 C8 1_555 1_555
H11 C8 1_555 1_555
C9 N3 1_555 1_555
C10 C9 1_555 1_555
C11 N4 1_555 1_555
C12 C11 1_555 1_555
H12 C12 1_555 1_555
H13 C12 1_555 1_555
H14 C12 1_555 1_555
C13 C10 1_555 1_555
O3 C13 1_555 1_555
O4 C13 1_555 1_555
N5 N6 1_555 1_555
N6 C1 1_555 1_555
C14 H15 1_555 1_555
H16 C14 1_555 1_555
H17 C14 1_555 1_555
C15 N5 1_555 1_555
C16 C15 1_555 1_555
C17 N6 1_555 1_555
C18 C17 1_555 1_555
H18 C18 1_555 1_555
H19 C18 1_555 1_555
H20 C18 1_555 1_555
C19 C16 1_555 1_555
O5 C19 1_555 1_555
O6 C19 1_555 1_555
H21 O6 1_555 1_555
Na1 N1 1_555 1_555
O7 Na1 1_555 1_555
H22 O7 1_555 1_555
H23 O7 1_555 1_555
O8 H24 1_555 1_555
H25 O8 1_555 1_555
O2C Na1 1_555 1_555
O4A Na1 1_555 1_555
Na1A O4 1_555 1_555
Na1C O2 1_555 1_555
C2 C3 1_555 1_555
C4 C5 1_555 1_555
N3 Na1 1_555 1_555
C8 C9 1_555 1_555
C10 C11 1_555 1_555
N5 Na1 1_555 1_555
C14 C15 1_555 1_555
C16 C17 1_555 1_555

#END
