
#######################################################################
#
#                 Cambridge Crystallographic Data Centre
#                                CCDC 
#
#######################################################################
#
# If this CIF has been generated from an entry in the Cambridge 
# Structural Database, then it will include bibliographic, chemical, 
# crystal, experimental, refinement or atomic coordinate data resulting 
# from the CCDC's data processing and validation procedures.
#
#######################################################################

data_VIKROY
_symmetry_cell_setting           monoclinic
_symmetry_space_group_name_H-M   'P 21/c'
_symmetry_Int_Tables_number      14
_space_group_name_Hall           '-P 2ybc'
loop_
_symmetry_equiv_pos_site_id
_symmetry_equiv_pos_as_xyz
1 x,y,z
2 -x,1/2+y,1/2-z
3 -x,-y,-z
4 x,1/2-y,1/2+z
_cell_length_a                   11.4739(6)
_cell_length_b                   15.9431(7)
_cell_length_c                   13.4291(8)
_cell_angle_alpha                90
_cell_angle_beta                 114.048(7)
_cell_angle_gamma                90
_cell_volume                     2243.36
loop_
_atom_site_label
_atom_site_type_symbol
_atom_site_fract_x
_atom_site_fract_y
_atom_site_fract_z
C1 C 1.5548(2) 0.39910(19) 1.0747(2)
H1 H 1.5310 0.3429 1.0678
C2 C 0.8999(2) 0.63210(17) 0.6008(2)
H2 H 0.9834 0.6509 0.6227
C3 C 0.8213(2) 0.67478(17) 0.6381(2)
H3 H 0.8516 0.7217 0.6822
C4 C 0.6972(2) 0.64781(17) 0.6097(2)
C5 C 0.6583(2) 0.58020(18) 0.5387(2)
H4 H 0.5749 0.5606 0.5146
C6 C 0.7424(2) 0.54190(18) 0.5035(2)
H5 H 0.7130 0.4973 0.4550
C7 C 0.0121(4) 1.1782(2) 0.4638(3)
H6 H 0.0204 1.2030 0.4044
C8 C 0.0923(3) 1.11316(19) 0.5138(3)
H7 H 0.1542 1.0967 0.4897
C9 C 0.0816(2) 1.07171(17) 0.6006(2)
C10 C -0.0189(3) 1.0983(2) 0.6247(3)
H8 H -0.0370 1.0706 0.6778
C11 C -0.0921(3) 1.1658(2) 0.5700(3)
H9 H -0.1580 1.1822 0.5892
C12 C 0.1694(3) 1.00347(17) 0.6605(2)
C13 C 0.1460(3) 0.95092(19) 0.7323(3)
H10 H 0.0751 0.9611 0.7476
C14 C 0.2241(3) 0.8842(2) 0.7818(3)
H11 H 0.2066 0.8500 0.8301
C15 C 0.3280(3) 0.8685(2) 0.7589(3)
C16 C 0.3585(3) 0.9217(2) 0.6946(3)
H12 H 0.4323 0.9128 0.6832
C17 C 0.2804(3) 0.9890(2) 0.6458(3)
H13 H 0.3027 1.0253 0.6022
C18 C 0.4718(3) 0.7634(2) 0.7554(3)
C19 C 0.4114(3) 0.7278(3) 0.6543(3)
H14 H 0.3229 0.7292 0.6186
C20 C 0.4837(3) 0.6898(2) 0.6058(3)
H15 H 0.4433 0.6655 0.5373
C21 C 0.6160(2) 0.68767(17) 0.6584(2)
C22 C 0.6722(3) 0.7247(2) 0.7604(3)
H16 H 0.7607 0.7244 0.7969
C23 C 0.6007(3) 0.7619(2) 0.8091(3)
H17 H 0.6403 0.7857 0.8780
C24 C 1.1790(2) 0.46317(19) 0.7315(2)
C25 C 1.3388(3) 0.5745(2) 0.8383(2)
H18 H 1.2918 0.6130 0.7851
C26 C 1.2988(2) 0.49020(17) 0.8275(2)
C27 C 1.3672(2) 0.43308(19) 0.9036(2)
H19 H 1.3402 0.3775 0.8964
C28 C 1.4817(2) 0.45770(17) 0.9958(2)
N1 N 0.86374(18) 0.56559(13) 0.53535(17)
N2 N -0.0763(3) 1.20860(17) 0.4932(3)
Ni1 Ni 1.0000 0.5000 0.5000
O1 O 1.13149(16) 0.51694(11) 0.65671(14)
O2 O 1.13494(17) 0.39159(13) 0.73173(16)
O3 O 0.4003(2) 0.79838(16) 0.8081(2)
O4 O 1.06571(15) 0.61064(11) 0.45375(14)
H20 H 1.0046 0.6333 0.4007
H21 H 1.0928 0.6443 0.5075
C1B C 1.4452(2) 0.60090(19) 0.9253(2)
H1B H 1.4690 0.6571 0.9322
C24B C 1.8210(2) 0.53683(19) 1.2685(2)
C25B C 1.6612(3) 0.4255(2) 1.1617(2)
H18B H 1.7082 0.3870 1.2149
C26B C 1.7012(2) 0.50980(17) 1.1725(2)
C27B C 1.6328(2) 0.56692(19) 1.0964(2)
H19B H 1.6598 0.6225 1.1036
C28B C 1.5183(2) 0.54230(17) 1.0042(2)
O1B O 1.86851(16) 0.48306(11) 1.34329(14)
O2B O 1.86506(17) 0.60841(13) 1.26827(16)
C2B C 1.1001(2) 0.36790(17) 0.3992(2)
H2B H 1.0166 0.3491 0.3773
C3B C 1.1787(2) 0.32522(17) 0.3619(2)
H3B H 1.1484 0.2783 0.3178
C4B C 1.3028(2) 0.35219(17) 0.3903(2)
C5B C 1.3417(2) 0.41980(18) 0.4613(2)
H4B H 1.4251 0.4394 0.4854
C6B C 1.2576(2) 0.45810(18) 0.4965(2)
H5B H 1.2870 0.5027 0.5450
C7B C 1.9879(4) -0.1782(2) 0.5362(3)
H6B H 1.9796 -0.2030 0.5956
C8B C 1.9077(3) -0.11316(19) 0.4862(3)
H7B H 1.8458 -0.0967 0.5103
C9B C 1.9184(2) -0.07171(17) 0.3994(2)
C10B C 2.0189(3) -0.0983(2) 0.3753(3)
H8B H 2.0370 -0.0706 0.3222
C11B C 2.0921(3) -0.1658(2) 0.4300(3)
H9B H 2.1580 -0.1822 0.4108
C12B C 1.8306(3) -0.00347(17) 0.3395(2)
C13B C 1.8540(3) 0.04908(19) 0.2677(3)
H10B H 1.9249 0.0389 0.2524
C14B C 1.7759(3) 0.1158(2) 0.2182(3)
H11B H 1.7934 0.1500 0.1699
C15B C 1.6720(3) 0.1315(2) 0.2411(3)
C16B C 1.6415(3) 0.0783(2) 0.3054(3)
H12B H 1.5677 0.0872 0.3168
C17B C 1.7196(3) 0.0110(2) 0.3542(3)
H13B H 1.6973 -0.0253 0.3978
C18B C 1.5282(3) 0.2366(2) 0.2446(3)
C19B C 1.5886(3) 0.2722(3) 0.3457(3)
H14B H 1.6771 0.2708 0.3814
C20B C 1.5163(3) 0.3102(2) 0.3942(3)
H15B H 1.5567 0.3345 0.4627
C21B C 1.3840(2) 0.31233(17) 0.3416(2)
C22B C 1.3278(3) 0.2753(2) 0.2396(3)
H16B H 1.2393 0.2756 0.2031
C23B C 1.3993(3) 0.2381(2) 0.1909(3)
H17B H 1.3597 0.2143 0.1220
N1B N 1.13626(18) 0.43441(13) 0.46465(17)
N2B N 2.0763(3) -0.20860(17) 0.5068(3)
O3B O 1.5997(2) 0.20162(16) 0.1919(2)
O4B O 0.93429(15) 0.38936(11) 0.54625(14)
H20B H 0.9954 0.3667 0.5993
H21B H 0.9072 0.3557 0.4925
Ni1_2 Ni 2.0000 0.5000 1.5000
O1B_2 O 0.86851(16) 0.48306(11) 0.34329(14)
loop_
_geom_bond_atom_site_label_1
_geom_bond_atom_site_label_2
_geom_bond_site_symmetry_1
_geom_bond_site_symmetry_2
C1 H1 1_555 1_555
C2 H2 1_555 1_555
C3 C2 1_555 1_555
H3 C3 1_555 1_555
C4 C3 1_555 1_555
C5 C4 1_555 1_555
H4 C5 1_555 1_555
C6 C5 1_555 1_555
H5 C6 1_555 1_555
C7 H6 1_555 1_555
C8 C7 1_555 1_555
H7 C8 1_555 1_555
C9 C8 1_555 1_555
C10 C9 1_555 1_555
H8 C10 1_555 1_555
C11 C10 1_555 1_555
H9 C11 1_555 1_555
C12 C9 1_555 1_555
C13 C12 1_555 1_555
H10 C13 1_555 1_555
C14 C13 1_555 1_555
H11 C14 1_555 1_555
C15 C14 1_555 1_555
C16 C15 1_555 1_555
H12 C16 1_555 1_555
C17 C12 1_555 1_555
H13 C17 1_555 1_555
C18 C19 1_555 1_555
C19 H14 1_555 1_555
C20 C19 1_555 1_555
H15 C20 1_555 1_555
C21 C4 1_555 1_555
C22 C21 1_555 1_555
H16 C22 1_555 1_555
C23 C18 1_555 1_555
H17 C23 1_555 1_555
C24 C26 1_555 1_555
C25 H18 1_555 1_555
C26 C25 1_555 1_555
C27 C26 1_555 1_555
H19 C27 1_555 1_555
C28 C1 1_555 1_555
N1 C2 1_555 1_555
N2 C7 1_555 1_555
Ni1 N1 1_555 1_555
O1 C24 1_555 1_555
O2 C24 1_555 1_555
O3 C15 1_555 1_555
O4 Ni1 1_555 1_555
H20 O4 1_555 1_555
H21 O4 1_555 1_555
C1B C25 1_555 1_555
H1B C1B 1_555 1_555
C24B C26B 1_555 1_555
C25B C1 1_555 1_555
H18B C25B 1_555 1_555
C26B C25B 1_555 1_555
C27B C26B 1_555 1_555
H19B C27B 1_555 1_555
C28B C28 1_555 1_555
O1B C24B 1_555 1_555
O2B C24B 1_555 1_555
C2B H2B 1_555 1_555
C3B C2B 1_555 1_555
H3B C3B 1_555 1_555
C4B C3B 1_555 1_555
C5B C4B 1_555 1_555
H4B C5B 1_555 1_555
C6B C5B 1_555 1_555
H5B C6B 1_555 1_555
C7B H6B 1_555 1_555
C8B C7B 1_555 1_555
H7B C8B 1_555 1_555
C9B C8B 1_555 1_555
C10B C9B 1_555 1_555
H8B C10B 1_555 1_555
C11B C10B 1_555 1_555
H9B C11B 1_555 1_555
C12B C9B 1_555 1_555
C13B C12B 1_555 1_555
H10B C13B 1_555 1_555
C14B C13B 1_555 1_555
H11B C14B 1_555 1_555
C15B C14B 1_555 1_555
C16B C15B 1_555 1_555
H12B C16B 1_555 1_555
C17B C12B 1_555 1_555
H13B C17B 1_555 1_555
C18B C19B 1_555 1_555
C19B H14B 1_555 1_555
C20B C19B 1_555 1_555
H15B C20B 1_555 1_555
C21B C4B 1_555 1_555
C22B C21B 1_555 1_555
H16B C22B 1_555 1_555
C23B C18B 1_555 1_555
H17B C23B 1_555 1_555
N1B Ni1 1_555 1_555
N2B C7B 1_555 1_555
O3B C15B 1_555 1_555
O4B Ni1 1_555 1_555
H20B O4B 1_555 1_555
H21B O4B 1_555 1_555
Ni1_2 O1B 1_555 1_555
O1B_2 Ni1 1_555 1_555
C6 N1 1_555 1_555
C11 N2 1_555 1_555
C16 C17 1_555 1_555
C18 O3 1_555 1_555
C20 C21 1_555 1_555
C22 C23 1_555 1_555
C27 C28 1_555 1_555
Ni1 O1 1_555 1_555
C1B C28B 1_555 1_555
C27B C28B 1_555 1_555
C2B N1B 1_555 1_555
C6B N1B 1_555 1_555
C11B N2B 1_555 1_555
C16B C17B 1_555 1_555
C18B O3B 1_555 1_555
C20B C21B 1_555 1_555
C22B C23B 1_555 1_555

#END
