
#######################################################################
#
#                 Cambridge Crystallographic Data Centre
#                                CCDC 
#
#######################################################################
#
# If this CIF has been generated from an entry in the Cambridge 
# Structural Database, then it will include bibliographic, chemical, 
# crystal, experimental, refinement or atomic coordinate data resulting 
# from the CCDC's data processing and validation procedures.
#
#######################################################################

data_VIKSAL
_symmetry_cell_setting           triclinic
_symmetry_space_group_name_H-M   'P -1'
_symmetry_Int_Tables_number      2
_space_group_name_Hall           '-P 1'
loop_
_symmetry_equiv_pos_site_id
_symmetry_equiv_pos_as_xyz
1 x,y,z
2 -x,-y,-z
_cell_length_a                   9.560(7)
_cell_length_b                   12.946(10)
_cell_length_c                   13.849(11)
_cell_angle_alpha                90.163(10)
_cell_angle_beta                 108.773(9)
_cell_angle_gamma                95.518(9)
_cell_volume                     1614.26
loop_
_atom_site_label
_atom_site_type_symbol
_atom_site_fract_x
_atom_site_fract_y
_atom_site_fract_z
Ag1 Ag 0.09029(3) 0.24459(2) 0.33648(2)
N1 N 0.2835(3) 0.2553(2) 0.2788(2)
N2 N 0.4372(3) 0.3144(2) 0.1958(2)
N3 N 0.9311(3) 0.3858(2) 0.2933(3)
N4 N 0.0594(3) 0.2031(2) 0.4870(2)
N5 N 0.1199(3) 0.1824(2) 0.6552(2)
N6 N 0.0661(3) -0.1111(2) 0.7796(2)
C1 C 0.3400(3) 0.1709(3) 0.2472(2)
C2 C 0.3108(4) 0.0648(3) 0.2578(3)
H1 H 0.2469 0.0398 0.2927
C3 C 0.3800(4) -0.0015(3) 0.2145(3)
H2 H 0.3626 -0.0727 0.2207
C4 C 0.4753(4) 0.0351(3) 0.1619(3)
H3 H 0.5196 -0.0122 0.1336
C5 C 0.5057(4) 0.1397(3) 0.1506(3)
H4 H 0.5696 0.1640 0.1155
C6 C 0.4363(3) 0.2073(3) 0.1943(2)
C7 C 0.3426(4) 0.3380(3) 0.2465(3)
C8 C 0.3099(5) 0.4448(3) 0.2645(3)
H5 H 0.2032 0.4471 0.2429
H6 H 0.3497 0.4925 0.2236
C9 C 0.3757(7) 0.4793(4) 0.3750(4)
H7 H 0.3511 0.5481 0.3839
H8 H 0.4817 0.4794 0.3960
H9 H 0.3363 0.4325 0.4157
C10 C 0.5223(4) 0.3859(3) 0.1479(3)
H10 H 0.4692 0.4463 0.1259
H11 H 0.5309 0.3516 0.0880
C11 C 0.6758(4) 0.4204(3) 0.2204(3)
C12 C 0.7055(5) 0.5094(3) 0.2813(4)
H12 H 0.6309 0.5521 0.2769
C13 C 0.8473(5) 0.5351(3) 0.3493(4)
H13 H 0.8686 0.5943 0.3918
C14 C 0.9555(5) 0.4717(3) 0.3527(4)
H14 H 1.0503 0.4892 0.3985
C15 C 0.7942(4) 0.3627(3) 0.2289(3)
H15 H 0.7765 0.3036 0.1866
C16 C -0.0661(4) 0.2120(3) 0.5159(3)
C17 C -0.2091(4) 0.2305(3) 0.4579(3)
H16 H -0.2350 0.2378 0.3877
C18 C -0.3115(4) 0.2377(3) 0.5084(4)
H17 H -0.4084 0.2493 0.4715
C19 C -0.2722(5) 0.2277(3) 0.6133(4)
H18 H -0.3432 0.2345 0.6451
C20 C -0.1319(4) 0.2082(3) 0.6716(3)
H19 H -0.1066 0.2007 0.7418
C21 C -0.0300(4) 0.2003(2) 0.6208(3)
C22 C 0.1662(4) 0.1848(3) 0.5719(3)
C23 C 0.3188(4) 0.1660(3) 0.5739(3)
H20 H 0.3887 0.1872 0.6406
H21 H 0.3457 0.2087 0.5239
C24 C 0.3314(5) 0.0544(4) 0.5517(4)
H22 H 0.4281 0.0477 0.5469
H23 H 0.2569 0.0314 0.4884
H24 H 0.3173 0.0128 0.6057
C25 C 0.2061(4) 0.1685(3) 0.7615(3)
H25 H 0.1954 0.2261 0.8027
H26 H 0.3103 0.1708 0.7673
C26 C 0.1611(4) 0.0682(3) 0.8038(3)
C27 C 0.1843(5) 0.0609(3) 0.9076(3)
H27 H 0.2250 0.1186 0.9513
C28 C 0.1472(6) -0.0313(4) 0.9453(3)
H28 H 0.1616 -0.0371 1.0147
C29 C 0.0884(5) -0.1154(3) 0.8793(3)
H29 H 0.0631 -0.1779 0.9054
C30 C 0.1028(4) -0.0205(3) 0.7438(3)
H30 H 0.0880 -0.0171 0.6742
Ag1_2 Ag 1.09029(3) 0.24459(2) 0.33648(2)
Ag1A Ag -0.09029(3) -0.24459(2) 0.66352(2)
N3_2 N -0.0689(3) 0.3858(2) 0.2933(3)
N6A N -0.0661(3) 0.1111(2) 0.2204(2)
C31 C 0.9220(17) 0.5758(11) 0.0796(13)
H31 H 0.9462 0.5905 0.1515
H32 H 1.0083 0.5566 0.0656
H33 H 0.8441 0.5197 0.0587
O1 O 0.8712(11) 0.6702(9) 0.0222(8)
H34 H 0.9534 0.7072 0.0322
Cl1 Cl 0.36635(11) 0.70352(7) 0.10573(7)
O2 O 0.2294(5) 0.7397(4) 0.1060(5)
O3 O 0.4377(5) 0.7825(3) 0.0640(3)
O4 O 0.3390(6) 0.6084(3) 0.0533(3)
O5 O 0.4470(5) 0.6944(3) 0.2100(2)
loop_
_geom_bond_atom_site_label_1
_geom_bond_atom_site_label_2
_geom_bond_site_symmetry_1
_geom_bond_site_symmetry_2
Ag1 N1 1_555 1_555
N1 C1 1_555 1_555
N2 C6 1_555 1_555
N3 C14 1_555 1_555
N4 Ag1 1_555 1_555
N5 C21 1_555 1_555
N6 C29 1_555 1_555
C1 C2 1_555 1_555
C2 H1 1_555 1_555
C3 C2 1_555 1_555
H2 C3 1_555 1_555
C4 C3 1_555 1_555
H3 C4 1_555 1_555
C5 C4 1_555 1_555
H4 C5 1_555 1_555
C6 C1 1_555 1_555
C7 N1 1_555 1_555
C8 C7 1_555 1_555
H5 C8 1_555 1_555
H6 C8 1_555 1_555
C9 C8 1_555 1_555
H7 C9 1_555 1_555
H8 C9 1_555 1_555
H9 C9 1_555 1_555
C10 N2 1_555 1_555
H10 C10 1_555 1_555
H11 C10 1_555 1_555
C11 C10 1_555 1_555
C12 C11 1_555 1_555
H12 C12 1_555 1_555
C13 C12 1_555 1_555
H13 C13 1_555 1_555
C14 C13 1_555 1_555
H14 C14 1_555 1_555
C15 N3 1_555 1_555
H15 C15 1_555 1_555
C16 N4 1_555 1_555
C17 C16 1_555 1_555
H16 C17 1_555 1_555
C18 C17 1_555 1_555
H17 C18 1_555 1_555
C19 C18 1_555 1_555
H18 C19 1_555 1_555
C20 C19 1_555 1_555
H19 C20 1_555 1_555
C21 C16 1_555 1_555
C22 N4 1_555 1_555
C23 C22 1_555 1_555
H20 C23 1_555 1_555
H21 C23 1_555 1_555
C24 C23 1_555 1_555
H22 C24 1_555 1_555
H23 C24 1_555 1_555
H24 C24 1_555 1_555
C25 N5 1_555 1_555
H25 C25 1_555 1_555
H26 C25 1_555 1_555
C26 C25 1_555 1_555
C27 C26 1_555 1_555
H27 C27 1_555 1_555
C28 C27 1_555 1_555
H28 C28 1_555 1_555
C29 C28 1_555 1_555
H29 C29 1_555 1_555
C30 N6 1_555 1_555
H30 C30 1_555 1_555
C31 H31 1_555 1_555
H32 C31 1_555 1_555
H33 C31 1_555 1_555
O1 C31 1_555 1_555
H34 O1 1_555 1_555
Cl1 O2 1_555 1_555
O3 Cl1 1_555 1_555
O4 Cl1 1_555 1_555
O5 Cl1 1_555 1_555
Ag1_2 N3 1_555 1_555
Ag1A N6 1_555 1_555
N3_2 Ag1 1_555 1_555
N6A Ag1 1_555 1_555
N2 C7 1_555 1_555
N5 C22 1_555 1_555
C5 C6 1_555 1_555
C11 C15 1_555 1_555
C20 C21 1_555 1_555
C26 C30 1_555 1_555

#END
