
#######################################################################
#
#                 Cambridge Crystallographic Data Centre
#                                CCDC 
#
#######################################################################
#
# If this CIF has been generated from an entry in the Cambridge 
# Structural Database, then it will include bibliographic, chemical, 
# crystal, experimental, refinement or atomic coordinate data resulting 
# from the CCDC's data processing and validation procedures.
#
#######################################################################

data_VILBIC
_symmetry_cell_setting           triclinic
_symmetry_space_group_name_H-M   'P -1'
_symmetry_Int_Tables_number      2
_space_group_name_Hall           '-P 1'
loop_
_symmetry_equiv_pos_site_id
_symmetry_equiv_pos_as_xyz
1 x,y,z
2 -x,-y,-z
_cell_length_a                   10.3349(7)
_cell_length_b                   10.4943(7)
_cell_length_c                   18.0340(12)
_cell_angle_alpha                82.379(6)
_cell_angle_beta                 76.520(5)
_cell_angle_gamma                76.384(5)
_cell_volume                     1842.32
loop_
_atom_site_label
_atom_site_type_symbol
_atom_site_fract_x
_atom_site_fract_y
_atom_site_fract_z
K1 K 0.73375(6) 0.03107(5) 0.30062(3)
Mn1 Mn 0.27485(4) 0.44920(3) 0.32608(2)
B1 B 1.1150(3) -0.3073(3) 0.23553(17)
C1 C 0.3832(3) 0.2918(2) 0.31407(15)
O1 O 0.4514(2) 0.18511(18) 0.31118(14)
C2 C 0.3754(3) 0.4894(2) 0.38309(15)
O2 O 0.4324(3) 0.5115(2) 0.42744(13)
C3 C 1.0053(3) -0.2730(3) 0.1822(2)
H1 H 0.9970 -0.3542 0.1641
H2 H 1.0349 -0.2133 0.1382
H3 H 0.9168 -0.2306 0.2116
N1 N 1.2616(2) -0.3667(2) 0.18823(12)
N2 N 1.3490(2) -0.46260(19) 0.22289(12)
C4 C 1.4683(3) -0.4850(3) 0.17273(15)
H4 H 1.5474 -0.5467 0.1820
C5 C 1.4600(3) -0.4046(3) 0.10454(16)
H5 H 1.5295 -0.4010 0.0598
C6 C 1.3279(3) -0.3318(3) 0.11719(15)
H6 H 1.2897 -0.2674 0.0816
C7 C 1.0896(2) -0.4200(3) 0.30431(15)
C8 C 1.0888(3) -0.5547(3) 0.29458(18)
H7 H 1.0830 -0.5862 0.2487
C9 C 1.0981(3) -0.6321(3) 0.36461(19)
H8 H 1.1004 -0.7238 0.3734
C10 C 1.1034(3) -0.5496(3) 0.41891(18)
H9 H 1.1106 -0.5755 0.4706
C11 C 1.0960(3) -0.4188(3) 0.38173(16)
H10 H 1.0955 -0.3432 0.4055
N3 N 1.1314(2) -0.1792(2) 0.26604(13)
N4 N 1.0268(2) -0.0720(2) 0.28003(15)
C12 C 1.0805(3) 0.0159(3) 0.30244(19)
H11 H 1.0306 0.1007 0.3161
C13 C 1.2178(3) -0.0300(3) 0.30364(18)
H12 H 1.2780 0.0144 0.3172
C14 C 1.2454(3) -0.1552(3) 0.28047(17)
H13 H 1.3311 -0.2150 0.2754
O3 O 0.6845(2) 0.03901(19) 0.15033(12)
C15 C 0.6588(4) 0.1690(3) 0.11305(18)
H14 H 0.5661 0.2169 0.1354
H15 H 0.6649 0.1642 0.0579
C16 C 0.7621(4) 0.2402(3) 0.1235(2)
H16 H 0.8550 0.1864 0.1079
H17 H 0.7554 0.3247 0.0913
O4 O 0.73637(19) 0.26394(18) 0.20237(12)
C17 C 0.8191(3) 0.3445(3) 0.2188(2)
H18 H 0.8112 0.4276 0.1853
H19 H 0.9158 0.2979 0.2094
C18 C 0.7699(3) 0.3734(3) 0.3014(2)
H20 H 0.8163 0.4388 0.3128
H21 H 0.6707 0.4103 0.3120
O5 O 0.7991(2) 0.25408(17) 0.34851(13)
C19 C 0.7558(3) 0.2731(3) 0.4284(2)
H22 H 0.6559 0.3052 0.4415
H23 H 0.7995 0.3393 0.4413
C20 C 0.7961(4) 0.1431(3) 0.4729(2)
H24 H 0.8951 0.1077 0.4568
H25 H 0.7755 0.1552 0.5283
O6 O 0.7215(2) 0.0536(2) 0.45863(12)
C21 C 0.7605(4) -0.0760(3) 0.4944(2)
H26 H 0.7571 -0.0711 0.5493
H27 H 0.8548 -0.1167 0.4700
C22 C 0.6645(4) -0.1573(3) 0.48600(19)
H28 H 0.6825 -0.2434 0.5159
H29 H 0.5694 -0.1120 0.5056
O7 O 0.6837(2) -0.17634(19) 0.40673(12)
C23 C 0.5941(4) -0.2520(3) 0.3942(2)
H30 H 0.4984 -0.2046 0.4099
H31 H 0.6064 -0.3375 0.4252
C24 C 0.6249(3) -0.2744(3) 0.31069(19)
H32 H 0.7216 -0.3186 0.2945
H33 H 0.5674 -0.3318 0.3017
O8 O 0.5981(2) -0.15077(17) 0.26752(12)
C25 C 0.6146(3) -0.1650(3) 0.18794(18)
H34 H 0.5518 -0.2183 0.1807
H35 H 0.7090 -0.2105 0.1670
C26 C 0.5839(3) -0.0310(3) 0.14716(19)
H36 H 0.5834 -0.0391 0.0932
H37 H 0.4928 0.0176 0.1716
Mn1_2 Mn 1.27485(4) -0.55080(3) 0.32608(2)
N2_2 N 0.3490(2) 0.53740(19) 0.22289(12)
C7_2 C 0.0896(2) 0.5800(3) 0.30431(15)
C8_2 C 0.0888(3) 0.4453(3) 0.29458(18)
H7_2 H 0.0830 0.4138 0.2487
C9_2 C 0.0981(3) 0.3679(3) 0.36461(19)
H8_2 H 0.1004 0.2762 0.3734
C10_2 C 0.1034(3) 0.4504(3) 0.41891(18)
H9_2 H 0.1106 0.4245 0.4706
C11_2 C 0.0960(3) 0.5812(3) 0.38173(16)
H10_2 H 0.0955 0.6568 0.4055
C27 C 0.8181(5) 0.8399(4) 0.9349(3)
C28 C 0.7644(4) 0.7751(4) 0.8842(2)
H38 H 0.7334 0.8206 0.8403
C29 C 0.7624(4) 0.6453(4) 0.9047(2)
H39 H 0.7253 0.6009 0.8748
C30 C 0.8106(6) 0.5764(6) 0.9654(3)
H40 H 0.8098 0.4853 0.9752
C31 C 0.8594(6) 0.6348(6) 1.0119(3)
H41 H 0.8921 0.5859 1.0545
C32 C 0.8613(4) 0.7630(5) 0.9971(2)
H42 H 0.8939 0.8036 1.0310
C33 C 0.8176(10) 0.9787(6) 0.9209(5)
H43 H 0.7851 1.0131 0.8738
H44 H 0.9102 0.9920 0.9155
H45 H 0.7573 1.0251 0.9639
loop_
_geom_bond_atom_site_label_1
_geom_bond_atom_site_label_2
_geom_bond_site_symmetry_1
_geom_bond_site_symmetry_2
K1 O1 1_555 1_555
Mn1 C1 1_555 1_555
B1 C3 1_555 1_555
C1 O1 1_555 1_555
C2 Mn1 1_555 1_555
O2 C2 1_555 1_555
C3 H1 1_555 1_555
H2 C3 1_555 1_555
H3 C3 1_555 1_555
N1 B1 1_555 1_555
N2 N1 1_555 1_555
C4 N2 1_555 1_555
H4 C4 1_555 1_555
C5 C4 1_555 1_555
H5 C5 1_555 1_555
C6 N1 1_555 1_555
H6 C6 1_555 1_555
C7 B1 1_555 1_555
C8 C7 1_555 1_555
H7 C8 1_555 1_555
C9 C8 1_555 1_555
H8 C9 1_555 1_555
C10 C9 1_555 1_555
H9 C10 1_555 1_555
C11 C7 1_555 1_555
H10 C11 1_555 1_555
N3 B1 1_555 1_555
N4 K1 1_555 1_555
C12 N4 1_555 1_555
H11 C12 1_555 1_555
C13 C12 1_555 1_555
H12 C13 1_555 1_555
C14 N3 1_555 1_555
H13 C14 1_555 1_555
O3 K1 1_555 1_555
C15 O3 1_555 1_555
H14 C15 1_555 1_555
H15 C15 1_555 1_555
C16 C15 1_555 1_555
H16 C16 1_555 1_555
H17 C16 1_555 1_555
O4 K1 1_555 1_555
C17 O4 1_555 1_555
H18 C17 1_555 1_555
H19 C17 1_555 1_555
C18 C17 1_555 1_555
H20 C18 1_555 1_555
H21 C18 1_555 1_555
O5 K1 1_555 1_555
C19 O5 1_555 1_555
H22 C19 1_555 1_555
H23 C19 1_555 1_555
C20 C19 1_555 1_555
H24 C20 1_555 1_555
H25 C20 1_555 1_555
O6 K1 1_555 1_555
C21 O6 1_555 1_555
H26 C21 1_555 1_555
H27 C21 1_555 1_555
C22 C21 1_555 1_555
H28 C22 1_555 1_555
H29 C22 1_555 1_555
O7 K1 1_555 1_555
C23 O7 1_555 1_555
H30 C23 1_555 1_555
H31 C23 1_555 1_555
C24 C23 1_555 1_555
H32 C24 1_555 1_555
H33 C24 1_555 1_555
O8 K1 1_555 1_555
C25 O8 1_555 1_555
H34 C25 1_555 1_555
H35 C25 1_555 1_555
C26 O3 1_555 1_555
H36 C26 1_555 1_555
H37 C26 1_555 1_555
C27 C28 1_555 1_555
C28 H38 1_555 1_555
C29 C28 1_555 1_555
H39 C29 1_555 1_555
C30 C29 1_555 1_555
H40 C30 1_555 1_555
C31 C30 1_555 1_555
H41 C31 1_555 1_555
C32 C27 1_555 1_555
H42 C32 1_555 1_555
C33 C27 1_555 1_555
H43 C33 1_555 1_555
H44 C33 1_555 1_555
H45 C33 1_555 1_555
Mn1_2 N2 1_555 1_555
N2_2 Mn1 1_555 1_555
C7_2 Mn1 1_555 1_555
C8_2 Mn1 1_555 1_555
H7_2 C8_2 1_555 1_555
C9_2 Mn1 1_555 1_555
H8_2 C9_2 1_555 1_555
C10_2 Mn1 1_555 1_555
H9_2 C10_2 1_555 1_555
C11_2 Mn1 1_555 1_555
H10_2 C11_2 1_555 1_555
C5 C6 1_555 1_555
C7 Mn1_2 1_555 1_555
C8 Mn1_2 1_555 1_555
C9 Mn1_2 1_555 1_555
C10 C11 1_555 1_555
C10 Mn1_2 1_555 1_555
C11 Mn1_2 1_555 1_555
N3 N4 1_555 1_555
C13 C14 1_555 1_555
C16 O4 1_555 1_555
C18 O5 1_555 1_555
C20 O6 1_555 1_555
C22 O7 1_555 1_555
C24 O8 1_555 1_555
C25 C26 1_555 1_555
C31 C32 1_555 1_555
C7_2 C8_2 1_555 1_555
C7_2 C11_2 1_555 1_555
C8_2 C9_2 1_555 1_555
C9_2 C10_2 1_555 1_555
C10_2 C11_2 1_555 1_555

#END
