
#######################################################################
#
#                 Cambridge Crystallographic Data Centre
#                                CCDC 
#
#######################################################################
#
# If this CIF has been generated from an entry in the Cambridge 
# Structural Database, then it will include bibliographic, chemical, 
# crystal, experimental, refinement or atomic coordinate data resulting 
# from the CCDC's data processing and validation procedures.
#
#######################################################################

data_VILKUX
_symmetry_cell_setting           orthorhombic
_symmetry_space_group_name_H-M   'C c c 2'
_symmetry_Int_Tables_number      37
_space_group_name_Hall           'C 2 -2c'
loop_
_symmetry_equiv_pos_site_id
_symmetry_equiv_pos_as_xyz
1 x,y,z
2 -x,-y,z
3 -x,y,1/2+z
4 x,-y,1/2+z
5 1/2+x,1/2+y,z
6 1/2-x,1/2-y,z
7 1/2-x,1/2+y,1/2+z
8 1/2+x,1/2-y,1/2+z
_cell_length_a                   13.771(3)
_cell_length_b                   19.682(4)
_cell_length_c                   10.702(3)
_cell_angle_alpha                90
_cell_angle_beta                 90
_cell_angle_gamma                90
_cell_volume                     2900.68
loop_
_atom_site_label
_atom_site_type_symbol
_atom_site_fract_x
_atom_site_fract_y
_atom_site_fract_z
Cu1 Cu 0.7500 0.2500 0.22450(9)
S1 S 0.61753(10) 0.03914(7) -0.22068(14)
S2 S 0.73363(11) 0.02120(7) -0.33191(13)
N1 N 0.7157(3) 0.1812(2) 0.0901(4)
N2 N 0.7316(3) 0.1781(3) -0.6422(4)
C1 C 0.7750(3) 0.1680(3) -0.0050(5)
H1 H 0.8363 0.1878 -0.0049
C2 C 0.7502(3) 0.1262(3) -0.1040(6)
H2 H 0.7925 0.1199 -0.1707
C3 C 0.6612(3) 0.0944(2) -0.1013(4)
C4 C 0.5987(3) 0.1063(3) -0.0026(5)
H3 H 0.5379 0.0858 0.0006
C5 C 0.6289(3) 0.1492(3) 0.0903(5)
H4 H 0.5873 0.1567 0.1574
C6 C 0.7867(4) 0.1218(2) -0.6464(5)
H5 H 0.8263 0.1149 -0.7157
C7 C 0.7870(4) 0.0743(3) -0.5532(6)
H6 H 0.8261 0.0358 -0.5586
C8 C 0.7272(4) 0.0850(3) -0.4496(5)
C9 C 0.6712(4) 0.1427(3) -0.4436(5)
H7 H 0.6316 0.1511 -0.3751
C10 C 0.6757(4) 0.1877(3) -0.5424(5)
H8 H 0.6376 0.2267 -0.5390
Cl1 Cl 0.48207(8) 0.28975(8) 0.25429(15)
O1 O 0.5766(3) 0.2865(2) 0.1989(5)
O2 O 0.4130(5) 0.3113(6) 0.1724(9)
O3 O 0.4579(5) 0.2214(4) 0.2886(8)
O4 O 0.4856(5) 0.3295(4) 0.3603(7)
Cu1_2 Cu 0.7500 0.2500 -0.77550(9)
S1E S 0.88247(10) 0.46086(7) -0.22068(14)
S2E S 0.76637(11) 0.47880(7) -0.33191(13)
N1E N 0.7843(3) 0.3188(2) 0.0901(4)
N2E N 0.7684(3) 0.3219(3) -0.6422(4)
N2_2 N 0.7316(3) 0.1781(3) 0.3578(4)
N2E_2 N 0.7684(3) 0.3219(3) 0.3578(4)
C1E C 0.7250(3) 0.3320(3) -0.0050(5)
H1E H 0.6637 0.3122 -0.0049
C2E C 0.7498(3) 0.3738(3) -0.1040(6)
H2E H 0.7075 0.3801 -0.1707
C3E C 0.8388(3) 0.4056(2) -0.1013(4)
C4E C 0.9013(3) 0.3937(3) -0.0026(5)
H3E H 0.9621 0.4142 0.0006
C5E C 0.8711(3) 0.3508(3) 0.0903(5)
H4E H 0.9127 0.3433 0.1574
C6E C 0.7133(4) 0.3782(2) -0.6464(5)
H5E H 0.6737 0.3851 -0.7157
C7E C 0.7130(4) 0.4257(3) -0.5532(6)
H6E H 0.6739 0.4642 -0.5586
C8E C 0.7728(4) 0.4150(3) -0.4496(5)
C9E C 0.8288(4) 0.3573(3) -0.4436(5)
H7E H 0.8684 0.3489 -0.3751
C10E C 0.8243(4) 0.3123(3) -0.5424(5)
H8E H 0.8624 0.2733 -0.5390
Cl1E Cl 1.01793(8) 0.21025(8) 0.25429(15)
O1E O 0.9234(3) 0.2135(2) 0.1989(5)
O2E O 1.0870(5) 0.1887(6) 0.1724(9)
O3E O 1.0421(5) 0.2786(4) 0.2886(8)
O4E O 1.0144(5) 0.1705(4) 0.3603(7)
O5 O 0.5000 0.5000 0.330(2)
O6 O 0.4632(13) 0.4467(8) 0.581(3)
loop_
_geom_bond_atom_site_label_1
_geom_bond_atom_site_label_2
_geom_bond_site_symmetry_1
_geom_bond_site_symmetry_2
Cu1 N1 1_555 1_555
S1 S2 1_555 1_555
S2 C8 1_555 1_555
N1 C1 1_555 1_555
N2 C6 1_555 1_555
C1 H1 1_555 1_555
C2 C1 1_555 1_555
H2 C2 1_555 1_555
C3 S1 1_555 1_555
C4 C3 1_555 1_555
H3 C4 1_555 1_555
C5 N1 1_555 1_555
H4 C5 1_555 1_555
C6 H5 1_555 1_555
C7 C6 1_555 1_555
H6 C7 1_555 1_555
C8 C7 1_555 1_555
C9 C8 1_555 1_555
H7 C9 1_555 1_555
C10 N2 1_555 1_555
H8 C10 1_555 1_555
Cl1 O1 1_555 1_555
O1 Cu1 1_555 1_555
O2 Cl1 1_555 1_555
O3 Cl1 1_555 1_555
O4 Cl1 1_555 1_555
Cu1_2 N2 1_555 1_555
S1E S2E 1_555 1_555
S2E C8E 1_555 1_555
N1E Cu1 1_555 1_555
N2E Cu1_2 1_555 1_555
N2_2 Cu1 1_555 1_555
N2E_2 Cu1 1_555 1_555
C1E N1E 1_555 1_555
H1E C1E 1_555 1_555
C2E C1E 1_555 1_555
H2E C2E 1_555 1_555
C3E S1E 1_555 1_555
C4E C3E 1_555 1_555
H3E C4E 1_555 1_555
C5E N1E 1_555 1_555
H4E C5E 1_555 1_555
C6E N2E 1_555 1_555
H5E C6E 1_555 1_555
C7E C6E 1_555 1_555
H6E C7E 1_555 1_555
C8E C7E 1_555 1_555
C9E C8E 1_555 1_555
H7E C9E 1_555 1_555
C10E N2E 1_555 1_555
H8E C10E 1_555 1_555
Cl1E O1E 1_555 1_555
O1E Cu1 1_555 1_555
O2E Cl1E 1_555 1_555
O3E Cl1E 1_555 1_555
O4E Cl1E 1_555 1_555
C2 C3 1_555 1_555
C4 C5 1_555 1_555
C9 C10 1_555 1_555
C2E C3E 1_555 1_555
C4E C5E 1_555 1_555
C9E C10E 1_555 1_555

#END
