
#######################################################################
#
#                 Cambridge Crystallographic Data Centre
#                                CCDC 
#
#######################################################################
#
# If this CIF has been generated from an entry in the Cambridge 
# Structural Database, then it will include bibliographic, chemical, 
# crystal, experimental, refinement or atomic coordinate data resulting 
# from the CCDC's data processing and validation procedures.
#
#######################################################################

data_VILVUJ
_symmetry_cell_setting           tetragonal
_symmetry_space_group_name_H-M   'I -4'
_symmetry_Int_Tables_number      82
_space_group_name_Hall           'I -4'
loop_
_symmetry_equiv_pos_site_id
_symmetry_equiv_pos_as_xyz
1 x,y,z
2 -x,-y,z
3 y,-x,-z
4 -y,x,-z
5 1/2+x,1/2+y,1/2+z
6 1/2-x,1/2-y,1/2+z
7 1/2+y,1/2-x,1/2-z
8 1/2-y,1/2+x,1/2-z
_cell_length_a                   17.4460(15)
_cell_length_b                   17.4460(15)
_cell_length_c                   6.9858(6)
_cell_angle_alpha                90
_cell_angle_beta                 90
_cell_angle_gamma                90
_cell_volume                     2126.22
loop_
_atom_site_label
_atom_site_type_symbol
_atom_site_fract_x
_atom_site_fract_y
_atom_site_fract_z
Co1 Co 0.5000 1.0000 0.7500
K1 K 0.5000 1.0000 1.2500
O1 O 0.56905(9) 0.95519(9) 0.9407(2)
C1 C 0.62976(13) 0.91246(12) 0.8998(3)
C2 C 0.64543(13) 0.88734(12) 0.7124(3)
H1 H 0.6118 0.9009 0.6109
C3 C 0.70990(13) 0.84278(14) 0.6749(4)
H2 H 0.7199 0.8264 0.5476
C4 C 0.75965(14) 0.82198(13) 0.8204(4)
H3 H 0.8034 0.7913 0.7935
C5 C 0.74501(13) 0.84634(13) 1.0054(4)
H4 H 0.7789 0.8323 1.1058
C6 C 0.68108(14) 0.89113(13) 1.0456(3)
H5 H 0.6720 0.9075 1.1732
O1A O 0.43095(9) 1.04481(9) 0.9407(2)
C1A C 0.37024(13) 1.08754(12) 0.8998(3)
C2A C 0.35457(13) 1.11266(12) 0.7124(3)
H1A H 0.3882 1.0991 0.6109
C3A C 0.29010(13) 1.15722(14) 0.6749(4)
H2A H 0.2801 1.1736 0.5476
C4A C 0.24035(14) 1.17802(13) 0.8204(4)
H3A H 0.1966 1.2087 0.7935
C5A C 0.25499(13) 1.15366(13) 1.0054(4)
H4A H 0.2211 1.1677 1.1058
C6A C 0.31892(14) 1.10887(13) 1.0456(3)
H5A H 0.3280 1.0925 1.1732
O1F O 0.45519(9) 0.93095(9) 0.5593(2)
C1F C 0.41246(12) 0.87024(13) 0.6002(3)
C2F C 0.38734(12) 0.85457(13) 0.7876(3)
H1F H 0.4009 0.8882 0.8891
C3F C 0.34278(14) 0.79010(13) 0.8251(4)
H2F H 0.3264 0.7801 0.9524
C4F C 0.32198(13) 0.74035(14) 0.6796(4)
H3F H 0.2913 0.6966 0.7065
C5F C 0.34634(13) 0.75499(13) 0.4946(4)
H4F H 0.3323 0.7211 0.3942
C6F C 0.39113(13) 0.81892(14) 0.4544(3)
H5F H 0.4075 0.8280 0.3268
O1G O 0.54481(9) 1.06905(9) 0.5593(2)
C1G C 0.58754(12) 1.12976(13) 0.6002(3)
C2G C 0.61266(12) 1.14543(13) 0.7876(3)
H1G H 0.5991 1.1118 0.8891
C3G C 0.65722(14) 1.20990(13) 0.8251(4)
H2G H 0.6736 1.2199 0.9524
C4G C 0.67802(13) 1.25965(14) 0.6796(4)
H3G H 0.7087 1.3034 0.7065
C5G C 0.65366(13) 1.24501(13) 0.4946(4)
H4G H 0.6677 1.2789 0.3942
C6G C 0.60887(13) 1.18108(14) 0.4544(3)
H5G H 0.5925 1.1720 0.3268
K1_2 K 0.5000 1.0000 0.2500
O1F_2 O 0.45519(9) 0.93095(9) 1.5593(2)
O1G_2 O 0.54481(9) 1.06905(9) 1.5593(2)
P1 P 1.0000 1.0000 1.0000
C7 C 1.07502(12) 0.96445(12) 0.8486(3)
C8 C 1.05550(13) 0.91390(13) 0.7008(3)
H6 H 1.0034 0.9003 0.6804
C9 C 1.11210(14) 0.88381(13) 0.5845(3)
H7 H 1.0989 0.8493 0.4845
C10 C 1.18822(14) 0.90396(13) 0.6139(3)
H8 H 1.2271 0.8828 0.5345
C11 C 1.20777(12) 0.95458(12) 0.7581(4)
H9 H 1.2599 0.9687 0.7759
C12 C 1.15155(13) 0.98496(12) 0.8774(3)
H10 H 1.1651 1.0193 0.9774
C7A C 0.92498(12) 1.03555(12) 0.8486(3)
C8A C 0.94450(13) 1.08610(13) 0.7008(3)
H6A H 0.9966 1.0997 0.6804
C9A C 0.88790(14) 1.11619(13) 0.5845(3)
H7A H 0.9011 1.1507 0.4845
C10A C 0.81178(14) 1.09604(13) 0.6139(3)
H8A H 0.7729 1.1172 0.5345
C11A C 0.79223(12) 1.04542(12) 0.7581(4)
H9A H 0.7401 1.0313 0.7759
C12A C 0.84845(13) 1.01504(12) 0.8774(3)
H10A H 0.8349 0.9807 0.9774
C7B C 0.96445(12) 0.92498(12) 1.1514(3)
C8B C 0.91390(13) 0.94450(13) 1.2992(3)
H6B H 0.9003 0.9966 1.3196
C9B C 0.88381(13) 0.88790(14) 1.4155(3)
H7B H 0.8493 0.9011 1.5155
C10B C 0.90396(13) 0.81178(14) 1.3861(3)
H8B H 0.8828 0.7729 1.4655
C11B C 0.95458(12) 0.79223(12) 1.2419(4)
H9B H 0.9687 0.7401 1.2241
C12B C 0.98496(12) 0.84845(13) 1.1226(3)
H10B H 1.0193 0.8349 1.0226
C7C C 1.03555(12) 1.07502(12) 1.1514(3)
C8C C 1.08610(13) 1.05550(13) 1.2992(3)
H6C H 1.0997 1.0034 1.3196
C9C C 1.11619(13) 1.11210(14) 1.4155(3)
H7C H 1.1507 1.0989 1.5155
C10C C 1.09604(13) 1.18822(14) 1.3861(3)
H8C H 1.1172 1.2271 1.4655
C11C C 1.04542(12) 1.20777(12) 1.2419(4)
H9C H 1.0313 1.2599 1.2241
C12C C 1.01504(12) 1.15155(13) 1.1226(3)
H10C H 0.9807 1.1651 1.0226
loop_
_geom_bond_atom_site_label_1
_geom_bond_atom_site_label_2
_geom_bond_site_symmetry_1
_geom_bond_site_symmetry_2
Co1 O1 1_555 1_555
K1 O1 1_555 1_555
O1 C1 1_555 1_555
C1 C2 1_555 1_555
C2 H1 1_555 1_555
C3 C2 1_555 1_555
H2 C3 1_555 1_555
C4 C3 1_555 1_555
H3 C4 1_555 1_555
C5 C4 1_555 1_555
H4 C5 1_555 1_555
C6 C1 1_555 1_555
H5 C6 1_555 1_555
P1 C7 1_555 1_555
C7 C8 1_555 1_555
C8 H6 1_555 1_555
C9 C8 1_555 1_555
H7 C9 1_555 1_555
C10 C9 1_555 1_555
H8 C10 1_555 1_555
C11 C10 1_555 1_555
H9 C11 1_555 1_555
C12 C7 1_555 1_555
H10 C12 1_555 1_555
O1A Co1 1_555 1_555
C1A O1A 1_555 1_555
C2A C1A 1_555 1_555
H1A C2A 1_555 1_555
C3A C2A 1_555 1_555
H2A C3A 1_555 1_555
C4A C3A 1_555 1_555
H3A C4A 1_555 1_555
C5A C4A 1_555 1_555
H4A C5A 1_555 1_555
C6A C1A 1_555 1_555
H5A C6A 1_555 1_555
O1F Co1 1_555 1_555
C1F O1F 1_555 1_555
C2F C1F 1_555 1_555
H1F C2F 1_555 1_555
C3F C2F 1_555 1_555
H2F C3F 1_555 1_555
C4F C3F 1_555 1_555
H3F C4F 1_555 1_555
C5F C4F 1_555 1_555
H4F C5F 1_555 1_555
C6F C1F 1_555 1_555
H5F C6F 1_555 1_555
O1G Co1 1_555 1_555
C1G O1G 1_555 1_555
C2G C1G 1_555 1_555
H1G C2G 1_555 1_555
C3G C2G 1_555 1_555
H2G C3G 1_555 1_555
C4G C3G 1_555 1_555
H3G C4G 1_555 1_555
C5G C4G 1_555 1_555
H4G C5G 1_555 1_555
C6G C1G 1_555 1_555
H5G C6G 1_555 1_555
K1_2 O1F 1_555 1_555
O1F_2 K1 1_555 1_555
O1G_2 K1 1_555 1_555
C7A P1 1_555 1_555
C8A C7A 1_555 1_555
H6A C8A 1_555 1_555
C9A C8A 1_555 1_555
H7A C9A 1_555 1_555
C10A C9A 1_555 1_555
H8A C10A 1_555 1_555
C11A C10A 1_555 1_555
H9A C11A 1_555 1_555
C12A C7A 1_555 1_555
H10A C12A 1_555 1_555
C7B P1 1_555 1_555
C8B C7B 1_555 1_555
H6B C8B 1_555 1_555
C9B C8B 1_555 1_555
H7B C9B 1_555 1_555
C10B C9B 1_555 1_555
H8B C10B 1_555 1_555
C11B C10B 1_555 1_555
H9B C11B 1_555 1_555
C12B C7B 1_555 1_555
H10B C12B 1_555 1_555
C7C P1 1_555 1_555
C8C C7C 1_555 1_555
H6C C8C 1_555 1_555
C9C C8C 1_555 1_555
H7C C9C 1_555 1_555
C10C C9C 1_555 1_555
H8C C10C 1_555 1_555
C11C C10C 1_555 1_555
H9C C11C 1_555 1_555
C12C C7C 1_555 1_555
H10C C12C 1_555 1_555
K1 O1A 1_555 1_555
C5 C6 1_555 1_555
C11 C12 1_555 1_555
C5A C6A 1_555 1_555
C5F C6F 1_555 1_555
O1G K1_2 1_555 1_555
C5G C6G 1_555 1_555
C11A C12A 1_555 1_555
C11B C12B 1_555 1_555
C11C C12C 1_555 1_555

#END
