
#######################################################################
#
#                 Cambridge Crystallographic Data Centre
#                                CCDC 
#
#######################################################################
#
# If this CIF has been generated from an entry in the Cambridge 
# Structural Database, then it will include bibliographic, chemical, 
# crystal, experimental, refinement or atomic coordinate data resulting 
# from the CCDC's data processing and validation procedures.
#
#######################################################################

data_VILWIX
_symmetry_cell_setting           monoclinic
_symmetry_space_group_name_H-M   'P 21/c'
_symmetry_Int_Tables_number      14
_space_group_name_Hall           '-P 2ybc'
loop_
_symmetry_equiv_pos_site_id
_symmetry_equiv_pos_as_xyz
1 x,y,z
2 -x,1/2+y,1/2-z
3 -x,-y,-z
4 x,1/2-y,1/2+z
_cell_length_a                   10.0952(6)
_cell_length_b                   20.8523(13)
_cell_length_c                   17.1268(11)
_cell_angle_alpha                90
_cell_angle_beta                 90.5800(10)
_cell_angle_gamma                90
_cell_volume                     3605.15
loop_
_atom_site_label
_atom_site_type_symbol
_atom_site_fract_x
_atom_site_fract_y
_atom_site_fract_z
Ca1 Ca 0.18969(9) 0.33550(4) 0.68194(6)
Ca2 Ca -0.21592(9) 0.31886(5) 0.80404(6)
O1 O 0.0023(4) 0.3910(2) 0.6461(3)
O2 O -0.2004(4) 0.3837(2) 0.6958(2)
O3 O 0.1707(4) 0.3725(2) 0.8077(2)
O4 O -0.0304(4) 0.3638(2) 0.8597(2)
O5 O 0.3941(4) 0.2929(2) 0.7046(3)
O6 O 0.5883(4) 0.2770(2) 0.7621(3)
O7 O -0.1049(4) 0.2296(2) 0.7625(2)
O8 O 0.0821(4) 0.24000(19) 0.6944(3)
O9 O 0.2108(5) 0.31630(19) 0.5461(2)
O10 O 0.2988(4) 0.43448(17) 0.6582(3)
O11 O -0.3299(5) 0.4068(2) 0.8612(3)
O12 O -0.2507(5) 0.2700(2) 0.9262(2)
F1 F -0.2557(8) 0.4600(3) 0.5684(5)
F2 F -0.2043(11) 0.5112(3) 0.6569(5)
F3 F -0.0726(7) 0.4950(5) 0.5757(7)
F4 F 0.1597(7) 0.4796(2) 0.9080(3)
F5 F 0.0512(6) 0.4230(3) 0.9845(3)
F6 F 0.2427(5) 0.3986(3) 0.9582(3)
F7 F 0.4161(10) 0.1595(3) 0.7634(5)
F8 F 0.4135(11) 0.1753(3) 0.6503(5)
F9 F 0.5839(8) 0.1591(3) 0.7064(6)
F10 F -0.1107(8) 0.1214(3) 0.6643(5)
F11 F 0.0866(8) 0.1175(3) 0.6756(8)
F12 F -0.0237(10) 0.1043(3) 0.7634(4)
C1 C -0.1132(5) 0.4073(3) 0.6556(3)
C2 C -0.1551(7) 0.4664(4) 0.6095(5)
C3 C 0.0851(5) 0.3821(3) 0.8571(3)
C4 C 0.1326(7) 0.4226(3) 0.9263(4)
C5 C 0.4858(5) 0.2605(3) 0.7279(3)
C6 C 0.4741(7) 0.1888(3) 0.7117(5)
C7 C -0.0115(5) 0.2105(2) 0.7230(3)
C8 C -0.0153(6) 0.1393(3) 0.7041(4)
C9 C 0.1805(13) 0.3623(4) 0.4862(4)
H1 H 0.0883 0.3765 0.4905
H2 H 0.2383 0.3998 0.4915
C10 C 0.199(2) 0.3343(6) 0.4175(7)
H3 H 0.2732 0.3552 0.3910
H4 H 0.1196 0.3397 0.3849
C11 C 0.2264(18) 0.2689(5) 0.4263(5)
H5 H 0.3107 0.2582 0.4017
H6 H 0.1561 0.2432 0.4018
C12 C 0.2333(10) 0.2561(4) 0.5092(4)
H7 H 0.1654 0.2250 0.5242
H8 H 0.3205 0.2390 0.5239
C13 C 0.2444(7) 0.4942(3) 0.6855(5)
H9 H 0.1493 0.4962 0.6736
H10 H 0.2568 0.4980 0.7421
C14 C 0.3119(12) 0.5444(4) 0.6468(7)
H11 H 0.3306 0.5796 0.6832
H12 H 0.2574 0.5610 0.6037
C15 C 0.4322(9) 0.5188(4) 0.6177(6)
H13 H 0.5078 0.5357 0.6476
H14 H 0.4430 0.5305 0.5627
C16 C 0.4248(7) 0.4465(4) 0.6262(6)
H15 H 0.4334 0.4255 0.5753
H16 H 0.4951 0.4308 0.6611
C17 C -0.4622(9) 0.4184(5) 0.8625(9)
H17 H -0.5025 0.3967 0.9072
H18 H -0.5046 0.4026 0.8145
C18 C -0.4786(14) 0.4877(6) 0.8690(11)
H19 H -0.5176 0.5047 0.8206
H20 H -0.5384 0.4976 0.9120
C19 C -0.3604(12) 0.5149(5) 0.8822(9)
H21 H -0.3595 0.5363 0.9331
H22 H -0.3424 0.5471 0.8419
C20 C -0.2675(11) 0.4685(5) 0.8807(9)
H23 H -0.2234 0.4655 0.9318
H24 H -0.2004 0.4789 0.8417
C21 C -0.2140(12) 0.2959(5) 1.0021(5)
H25 H -0.1206 0.3087 1.0027
H26 H -0.2682 0.3335 1.0141
C22 C -0.2361(12) 0.2466(6) 1.0577(5)
H27 H -0.2681 0.2646 1.1069
H28 H -0.1541 0.2228 1.0683
C23 C -0.3358(13) 0.2048(6) 1.0226(6)
H29 H -0.4254 0.2189 1.0356
H30 H -0.3239 0.1603 1.0396
C24 C -0.3111(15) 0.2116(5) 0.9390(6)
H31 H -0.2538 0.1767 0.9211
H32 H -0.3950 0.2094 0.9097
Ca2_2 Ca 0.78408(9) 0.31886(5) 0.80404(6)
O6_2 O -0.4117(4) 0.2770(2) 0.7621(3)
loop_
_geom_bond_atom_site_label_1
_geom_bond_atom_site_label_2
_geom_bond_site_symmetry_1
_geom_bond_site_symmetry_2
Ca1 O1 1_555 1_555
Ca2 O2 1_555 1_555
O1 C1 1_555 1_555
O2 C1 1_555 1_555
O3 Ca1 1_555 1_555
O4 Ca2 1_555 1_555
O5 Ca1 1_555 1_555
O6 C5 1_555 1_555
O7 Ca2 1_555 1_555
O8 Ca1 1_555 1_555
O9 Ca1 1_555 1_555
O10 Ca1 1_555 1_555
O11 Ca2 1_555 1_555
O12 Ca2 1_555 1_555
F1 C2 1_555 1_555
F2 C2 1_555 1_555
F3 C2 1_555 1_555
F4 C4 1_555 1_555
F5 C4 1_555 1_555
F6 C4 1_555 1_555
F7 C6 1_555 1_555
F8 C6 1_555 1_555
F9 C6 1_555 1_555
F10 C8 1_555 1_555
F11 C8 1_555 1_555
F12 C8 1_555 1_555
C1 C2 1_555 1_555
C3 O3 1_555 1_555
C4 C3 1_555 1_555
C5 O5 1_555 1_555
C6 C5 1_555 1_555
C7 O7 1_555 1_555
C8 C7 1_555 1_555
C9 O9 1_555 1_555
H1 C9 1_555 1_555
H2 C9 1_555 1_555
C10 C9 1_555 1_555
H3 C10 1_555 1_555
H4 C10 1_555 1_555
C11 C10 1_555 1_555
H5 C11 1_555 1_555
H6 C11 1_555 1_555
C12 O9 1_555 1_555
H7 C12 1_555 1_555
H8 C12 1_555 1_555
C13 O10 1_555 1_555
H9 C13 1_555 1_555
H10 C13 1_555 1_555
C14 C13 1_555 1_555
H11 C14 1_555 1_555
H12 C14 1_555 1_555
C15 C14 1_555 1_555
H13 C15 1_555 1_555
H14 C15 1_555 1_555
C16 O10 1_555 1_555
H15 C16 1_555 1_555
H16 C16 1_555 1_555
C17 O11 1_555 1_555
H17 C17 1_555 1_555
H18 C17 1_555 1_555
C18 C17 1_555 1_555
H19 C18 1_555 1_555
H20 C18 1_555 1_555
C19 C18 1_555 1_555
H21 C19 1_555 1_555
H22 C19 1_555 1_555
C20 O11 1_555 1_555
H23 C20 1_555 1_555
H24 C20 1_555 1_555
C21 O12 1_555 1_555
H25 C21 1_555 1_555
H26 C21 1_555 1_555
C22 C21 1_555 1_555
H27 C22 1_555 1_555
H28 C22 1_555 1_555
C23 C22 1_555 1_555
H29 C23 1_555 1_555
H30 C23 1_555 1_555
C24 O12 1_555 1_555
H31 C24 1_555 1_555
H32 C24 1_555 1_555
Ca2_2 O6 1_555 1_555
O6_2 Ca2 1_555 1_555
O4 C3 1_555 1_555
O8 C7 1_555 1_555
C11 C12 1_555 1_555
C15 C16 1_555 1_555
C19 C20 1_555 1_555
C23 C24 1_555 1_555

#END
