
#######################################################################
#
#                 Cambridge Crystallographic Data Centre
#                                CCDC 
#
#######################################################################
#
# If this CIF has been generated from an entry in the Cambridge 
# Structural Database, then it will include bibliographic, chemical, 
# crystal, experimental, refinement or atomic coordinate data resulting 
# from the CCDC's data processing and validation procedures.
#
#######################################################################

data_VILWUJ
_symmetry_cell_setting           monoclinic
_symmetry_space_group_name_H-M   'P 21/c'
_symmetry_Int_Tables_number      14
_space_group_name_Hall           '-P 2ybc'
loop_
_symmetry_equiv_pos_site_id
_symmetry_equiv_pos_as_xyz
1 x,y,z
2 -x,1/2+y,1/2-z
3 -x,-y,-z
4 x,1/2-y,1/2+z
_cell_length_a                   13.177(3)
_cell_length_b                   19.169(4)
_cell_length_c                   8.5978(17)
_cell_angle_alpha                90
_cell_angle_beta                 102.418(3)
_cell_angle_gamma                90
_cell_volume                     2120.91
loop_
_atom_site_label
_atom_site_type_symbol
_atom_site_fract_x
_atom_site_fract_y
_atom_site_fract_z
Ba1 Ba 0.22149(2) 0.226072(15) 0.40731(3)
O1 O 0.3628(3) 0.24461(19) 0.7239(4)
O2 O 0.4025(3) 0.1539(2) 0.5862(4)
O3 O 0.1654(3) 0.09483(18) 0.5379(4)
O4 O 0.1202(3) 0.18664(18) 0.6657(4)
O5 O 0.1891(3) 0.15995(17) 0.1111(4)
O6 O 0.2839(3) 0.12354(19) -0.0600(4)
F1 F 0.5346(3) 0.11136(19) 0.8534(5)
F2 F 0.5948(2) 0.2100(2) 0.8038(4)
F3 F 0.5035(3) 0.2016(2) 0.9776(4)
F4 F 0.0862(3) 0.0162(2) 0.7427(5)
F5 F -0.0412(3) 0.0648(2) 0.5928(4)
F6 F 0.0182(3) 0.1031(2) 0.8254(5)
F7 F 0.1663(3) 0.01741(18) 0.1552(4)
F8 F 0.3107(3) 0.05550(19) 0.2911(4)
F9 F 0.3066(3) -0.00108(17) 0.0754(4)
N1 N 0.0001(3) 0.1920(2) 0.3065(5)
C1 C 0.4158(4) 0.1932(3) 0.7022(6)
C2 C 0.5109(4) 0.1786(3) 0.8361(6)
C3 C 0.1177(4) 0.1241(3) 0.6292(6)
C4 C 0.0441(4) 0.0769(3) 0.6981(7)
C5 C 0.2411(4) 0.1164(3) 0.0535(6)
C6 C 0.2556(4) 0.0463(3) 0.1403(6)
C7 C -0.0659(4) 0.2357(3) 0.3546(7)
H1 H -0.0383 0.2698 0.4306
C8 C -0.1714(5) 0.2337(4) 0.2995(8)
H2 H -0.2146 0.2659 0.3362
C9 C -0.2127(4) 0.1840(4) 0.1905(8)
H3 H -0.2848 0.1814 0.1504
C10 C -0.1474(5) 0.1384(3) 0.1413(7)
H4 H -0.1736 0.1035 0.0667
C11 C -0.0421(4) 0.1439(3) 0.2022(7)
H5 H 0.0022 0.1118 0.1677
Ba1C Ba 0.22149(2) 0.273928(15) 0.90731(3)
Ba1C_2 Ba 0.22149(2) 0.273928(15) -0.09269(3)
O1C O 0.3628(3) 0.25539(19) 0.2239(4)
O4C O 0.1202(3) 0.31336(18) 0.1657(4)
O5C O 0.1891(3) 0.34005(17) 0.6111(4)
O6C O 0.2839(3) 0.37646(19) 0.4400(4)
N2 N 0.7150(4) 0.0198(3) 0.4120(6)
C12 C 0.7105(5) 0.0756(3) 0.5038(7)
H6 H 0.7630 0.0834 0.5951
C13 C 0.6298(5) 0.1206(3) 0.4646(7)
H7 H 0.6263 0.1599 0.5287
C14 C 0.5537(5) 0.1091(3) 0.3323(8)
H8 H 0.4970 0.1399 0.3058
C15 C 0.5607(5) 0.0520(3) 0.2377(7)
H9 H 0.5096 0.0440 0.1447
C16 C 0.6430(5) 0.0067(3) 0.2807(8)
H10 H 0.6484 -0.0329 0.2185
H11 H 0.761(4) -0.017(3) 0.439(6)
loop_
_geom_bond_atom_site_label_1
_geom_bond_atom_site_label_2
_geom_bond_site_symmetry_1
_geom_bond_site_symmetry_2
Ba1 O1 1_555 1_555
O1 C1 1_555 1_555
O2 Ba1 1_555 1_555
O3 Ba1 1_555 1_555
O4 Ba1 1_555 1_555
O5 Ba1 1_555 1_555
O6 C5 1_555 1_555
F1 C2 1_555 1_555
F2 C2 1_555 1_555
F3 C2 1_555 1_555
F4 C4 1_555 1_555
F5 C4 1_555 1_555
F6 C4 1_555 1_555
F7 C6 1_555 1_555
F8 C6 1_555 1_555
F9 C6 1_555 1_555
N1 Ba1 1_555 1_555
N2 C12 1_555 1_555
C1 O2 1_555 1_555
C2 C1 1_555 1_555
C3 O3 1_555 1_555
C4 C3 1_555 1_555
C5 O5 1_555 1_555
C6 C5 1_555 1_555
C7 N1 1_555 1_555
H1 C7 1_555 1_555
C8 C7 1_555 1_555
H2 C8 1_555 1_555
C9 C8 1_555 1_555
H3 C9 1_555 1_555
C10 C9 1_555 1_555
H4 C10 1_555 1_555
C11 N1 1_555 1_555
H5 C11 1_555 1_555
C12 H6 1_555 1_555
C13 C12 1_555 1_555
H7 C13 1_555 1_555
C14 C13 1_555 1_555
H8 C14 1_555 1_555
C15 C14 1_555 1_555
H9 C15 1_555 1_555
C16 N2 1_555 1_555
H10 C16 1_555 1_555
H11 N2 1_555 1_555
Ba1C O1 1_555 1_555
Ba1C_2 O5 1_555 1_555
O1C Ba1 1_555 1_555
O4C Ba1 1_555 1_555
O5C Ba1 1_555 1_555
O6C Ba1 1_555 1_555
O4 C3 1_555 1_555
O4 Ba1C 1_555 1_555
O6 Ba1C_2 1_555 1_555
C10 C11 1_555 1_555
C15 C16 1_555 1_555
Ba1C O5C 1_555 1_555
Ba1C_2 O1C 1_555 1_555
Ba1C_2 O4C 1_555 1_555

#END
