
#######################################################################
#
#                 Cambridge Crystallographic Data Centre
#                                CCDC 
#
#######################################################################
#
# If this CIF has been generated from an entry in the Cambridge 
# Structural Database, then it will include bibliographic, chemical, 
# crystal, experimental, refinement or atomic coordinate data resulting 
# from the CCDC's data processing and validation procedures.
#
#######################################################################

data_VILXOE
_symmetry_cell_setting           orthorhombic
_symmetry_space_group_name_H-M   'P n a 21'
_symmetry_Int_Tables_number      33
_space_group_name_Hall           'P 2c -2n'
loop_
_symmetry_equiv_pos_site_id
_symmetry_equiv_pos_as_xyz
1 x,y,z
2 -x,-y,1/2+z
3 1/2+x,1/2-y,z
4 1/2-x,1/2+y,1/2+z
_cell_length_a                   7.7808(7)
_cell_length_b                   15.2752(13)
_cell_length_c                   10.8529(9)
_cell_angle_alpha                90
_cell_angle_beta                 90
_cell_angle_gamma                90
_cell_volume                     1289.9
loop_
_atom_site_label
_atom_site_type_symbol
_atom_site_fract_x
_atom_site_fract_y
_atom_site_fract_z
Mn1 Mn 0.01592(3) 0.294163(15) 0.70134(4)
O1 O -0.1158(2) 0.37275(12) 0.82920(16)
O2 O -0.3096(2) 0.26698(10) 0.82822(16)
O3 O -0.4744(2) 0.66782(12) 1.13821(19)
O4 O -0.20454(19) 0.61970(10) 1.13752(18)
O5 O -0.1091(3) 0.34258(16) 0.53529(18)
N1 N -0.8228(3) 0.39498(18) 1.0543(2)
H1 H -0.8900 0.4267 1.0987
H2 H -0.8598 0.3469 1.0227
N2 N -0.2398(3) 0.34846(18) 0.35318(19)
C1 C -0.4227(2) 0.52582(13) 1.06380(18)
C2 C -0.3134(2) 0.47574(12) 0.99066(17)
H3 H -0.2011 0.4939 0.9761
C3 C -0.3744(2) 0.39790(12) 0.93949(16)
C4 C -0.5422(3) 0.37112(15) 0.9620(2)
H4 H -0.5811 0.3186 0.9288
C5 C -0.6528(3) 0.42173(16) 1.03334(19)
C6 C -0.5917(3) 0.49941(14) 1.08401(18)
H5 H -0.6642 0.5340 1.1317
C7 C -0.3616(3) 0.61108(13) 1.11818(19)
C8 C -0.2598(3) 0.34302(14) 0.86001(18)
C9 C -0.2060(4) 0.3136(2) 0.4610(3)
H6 H -0.2625 0.2618 0.4810
C10 C -0.1607(6) 0.4276(3) 0.3103(3)
H7 H -0.2424 0.4746 0.3142
H8 H -0.1234 0.4199 0.2267
H9 H -0.0636 0.4412 0.3613
C11 C -0.3689(8) 0.3085(5) 0.2733(5)
H10 H -0.4048 0.2536 0.3079
H11 H -0.3206 0.2988 0.1931
H12 H -0.4662 0.3468 0.2665
Mn1B Mn -0.48408(3) 0.205837(15) 0.70134(4)
Mn1C Mn -0.51592(3) 0.794163(15) 1.20134(4)
Mn1A Mn -0.01592(3) 0.705837(15) 1.20134(4)
O2B O 0.1904(2) 0.23302(10) 0.82822(16)
O3C O -0.0256(2) 0.16782(12) 0.63821(19)
O4A O 0.20454(19) 0.38030(10) 0.63752(18)
loop_
_geom_bond_atom_site_label_1
_geom_bond_atom_site_label_2
_geom_bond_site_symmetry_1
_geom_bond_site_symmetry_2
Mn1 O1 1_555 1_555
O1 C8 1_555 1_555
O2 C8 1_555 1_555
O3 C7 1_555 1_555
O4 C7 1_555 1_555
O5 Mn1 1_555 1_555
N1 H1 1_555 1_555
H2 N1 1_555 1_555
N2 C9 1_555 1_555
C1 C2 1_555 1_555
C2 H3 1_555 1_555
C3 C2 1_555 1_555
C4 C3 1_555 1_555
H4 C4 1_555 1_555
C5 N1 1_555 1_555
C6 C1 1_555 1_555
H5 C6 1_555 1_555
C7 C1 1_555 1_555
C8 C3 1_555 1_555
C9 O5 1_555 1_555
H6 C9 1_555 1_555
C10 N2 1_555 1_555
H7 C10 1_555 1_555
H8 C10 1_555 1_555
H9 C10 1_555 1_555
C11 N2 1_555 1_555
H10 C11 1_555 1_555
H11 C11 1_555 1_555
H12 C11 1_555 1_555
Mn1B O2 1_555 1_555
Mn1C O3 1_555 1_555
Mn1A O4 1_555 1_555
O2B Mn1 1_555 1_555
O3C Mn1 1_555 1_555
O4A Mn1 1_555 1_555
C4 C5 1_555 1_555
C5 C6 1_555 1_555

#END
