
#######################################################################
#
#                 Cambridge Crystallographic Data Centre
#                                CCDC 
#
#######################################################################
#
# If this CIF has been generated from an entry in the Cambridge 
# Structural Database, then it will include bibliographic, chemical, 
# crystal, experimental, refinement or atomic coordinate data resulting 
# from the CCDC's data processing and validation procedures.
#
#######################################################################

data_VIMCAX
_symmetry_cell_setting           triclinic
_symmetry_space_group_name_H-M   'P -1'
_symmetry_Int_Tables_number      2
_space_group_name_Hall           '-P 1'
loop_
_symmetry_equiv_pos_site_id
_symmetry_equiv_pos_as_xyz
1 x,y,z
2 -x,-y,-z
_cell_length_a                   7.7431(4)
_cell_length_b                   9.6388(6)
_cell_length_c                   16.0603(9)
_cell_angle_alpha                78.780(5)
_cell_angle_beta                 89.746(4)
_cell_angle_gamma                67.578(5)
_cell_volume                     1083.63
loop_
_atom_site_label
_atom_site_type_symbol
_atom_site_fract_x
_atom_site_fract_y
_atom_site_fract_z
C1 C -0.4718(8) 0.5724(7) 0.2170(4)
H1 H -0.5427 0.5139 0.2333
C2 C -0.5617(9) 0.7206(7) 0.1742(4)
H2 H -0.6904 0.7624 0.1607
C3 C -0.4524(9) 0.8076(7) 0.1514(4)
H3 H -0.5089 0.9099 0.1236
C4 C -0.2629(9) 0.7412(7) 0.1701(4)
H4 H -0.1891 0.7977 0.1553
C5 C -0.1822(8) 0.5884(7) 0.2116(4)
C6 C 0.0289(8) 0.5038(7) 0.2360(4)
C7 C 0.1434(8) 0.4630(7) 0.1597(4)
C8 C 0.1147(9) 0.5574(8) 0.0803(4)
H5 H 0.0137 0.6516 0.0681
C9 C 0.2374(10) 0.5109(9) 0.0190(4)
H6 H 0.2183 0.5728 -0.0351
C10 C 0.3880(9) 0.3724(8) 0.0385(4)
H7 H 0.4731 0.3397 -0.0015
C11 C 0.4093(9) 0.2830(8) 0.1195(4)
H8 H 0.5107 0.1892 0.1335
C12 C 0.0288(10) 0.6526(8) 0.3400(4)
H9 H 0.0321 0.5673 0.3843
H10 H -0.1003 0.7245 0.3269
C13 C 0.1459(10) 0.7301(8) 0.3691(5)
H11 H 0.0980 0.7675 0.4191
H12 H 0.1413 0.8144 0.3248
H13 H 0.2732 0.6578 0.3820
C14 C 0.1469(9) 0.0690(8) 0.4346(4)
C15 C 0.6759(10) 0.1072(8) 0.3062(4)
C16 C -0.3436(9) 0.5774(8) 0.4513(4)
C17 C -0.4082(13) 0.7151(10) 0.4854(6)
H14 H -0.4483 0.8034 0.4394
H15 H -0.3080 0.7158 0.5201
H16 H -0.5113 0.7176 0.5194
N1 N -0.2858(7) 0.5069(6) 0.2368(3)
N2 N 0.2884(7) 0.3273(6) 0.1785(3)
N3 N -0.2916(8) 0.4687(7) 0.4247(4)
O1 O 0.0608(5) 0.3700(5) 0.2981(3)
O2 O 0.1046(5) 0.5993(5) 0.2661(3)
O3 O -0.0196(6) 0.1348(5) 0.4069(3)
O4 O 0.2883(6) 0.0858(5) 0.4025(3)
O5 O 0.5546(5) 0.0560(5) 0.2926(3)
O6 O 0.6395(5) 0.2401(5) 0.3174(3)
O7 O 0.1709(6) 0.0486(5) 0.2271(3)
O8 O -0.1176(7) 0.2330(5) 0.1636(3)
O9 O -0.0263(6) -0.0237(5) 0.1510(3)
O10 O 0.1266(7) 0.1294(6) 0.0781(3)
Cu1 Cu -0.15273(10) 0.31135(8) 0.31716(5)
Cu2 Cu 0.29503(10) 0.20216(8) 0.29106(5)
Cl1 Cl 0.0380(2) 0.09692(17) 0.15372(10)
H17 H 0.173(9) -0.001(8) 0.493(4)
H18 H 0.789(9) 0.047(7) 0.307(4)
O6_2 O -0.3605(5) 0.2401(5) 0.3174(3)
Cu1_2 Cu 0.84727(10) 0.31135(8) 0.31716(5)
loop_
_geom_bond_atom_site_label_1
_geom_bond_atom_site_label_2
_geom_bond_site_symmetry_1
_geom_bond_site_symmetry_2
C1 H1 1_555 1_555
C2 C1 1_555 1_555
H2 C2 1_555 1_555
C3 C2 1_555 1_555
H3 C3 1_555 1_555
C4 C3 1_555 1_555
H4 C4 1_555 1_555
C5 C4 1_555 1_555
C6 C5 1_555 1_555
C7 C6 1_555 1_555
C8 C7 1_555 1_555
H5 C8 1_555 1_555
C9 C8 1_555 1_555
H6 C9 1_555 1_555
C10 C9 1_555 1_555
H7 C10 1_555 1_555
C11 C10 1_555 1_555
H8 C11 1_555 1_555
C12 H9 1_555 1_555
H10 C12 1_555 1_555
C13 C12 1_555 1_555
H11 C13 1_555 1_555
H12 C13 1_555 1_555
H13 C13 1_555 1_555
C14 O3 1_555 1_555
C15 O5 1_555 1_555
C16 C17 1_555 1_555
C17 H14 1_555 1_555
H15 C17 1_555 1_555
H16 C17 1_555 1_555
N1 C1 1_555 1_555
N2 C7 1_555 1_555
N3 C16 1_555 1_555
O1 C6 1_555 1_555
O2 C6 1_555 1_555
O3 Cu1 1_555 1_555
O4 C14 1_555 1_555
O5 Cu2 1_555 1_555
O6 C15 1_555 1_555
O7 Cu2 1_555 1_555
O8 Cu1 1_555 1_555
O9 Cl1 1_555 1_555
O10 Cl1 1_555 1_555
Cu1 N1 1_555 1_555
Cu2 N2 1_555 1_555
Cl1 O7 1_555 1_555
H17 C14 1_555 1_555
H18 C15 1_555 1_555
O6_2 Cu1 1_555 1_555
Cu1_2 O6 1_555 1_555
C5 N1 1_555 1_555
C11 N2 1_555 1_555
C12 O2 1_555 1_555
N3 Cu1 1_555 1_555
O1 Cu1 1_555 1_555
O1 Cu2 1_555 1_555
O4 Cu2 1_555 1_555
O8 Cl1 1_555 1_555

#END
