
#######################################################################
#
#                 Cambridge Crystallographic Data Centre
#                                CCDC 
#
#######################################################################
#
# If this CIF has been generated from an entry in the Cambridge 
# Structural Database, then it will include bibliographic, chemical, 
# crystal, experimental, refinement or atomic coordinate data resulting 
# from the CCDC's data processing and validation procedures.
#
#######################################################################

data_VIMJOQ
_symmetry_cell_setting           triclinic
_symmetry_space_group_name_H-M   'P 1'
_symmetry_Int_Tables_number      1
_space_group_name_Hall           'P 1'
loop_
_symmetry_equiv_pos_site_id
_symmetry_equiv_pos_as_xyz
1 x,y,z
_cell_length_a                   9.154(2)
_cell_length_b                   13.576(3)
_cell_length_c                   15.424(3)
_cell_angle_alpha                94.88(3)
_cell_angle_beta                 91.21(3)
_cell_angle_gamma                96.56(3)
_cell_volume                     1896.44
loop_
_atom_site_label
_atom_site_type_symbol
_atom_site_fract_x
_atom_site_fract_y
_atom_site_fract_z
Cu2 Cu 0.5382(7) 0.0323(5) 0.6531(4)
N5 N 0.6764(12) 0.0855(10) 0.5610(9)
N6 N 0.5832(13) -0.0992(11) 0.6006(10)
N7 N 0.4221(12) -0.0375(10) 0.7403(10)
N8 N 0.4916(12) 0.1586(11) 0.7191(10)
C5 C 0.7581(13) 0.0101(11) 0.5290(11)
C6 C 0.6571(14) -0.0879(11) 0.5189(11)
C7 C 0.3205(14) 0.0337(11) 0.7790(12)
C8 C 0.4068(13) 0.1341(11) 0.7982(11)
H17 H 0.7345 0.1395 0.5845
H18 H 0.6215 0.1041 0.5175
H19 H 0.4996 -0.1406 0.5895
H20 H 0.6405 -0.1270 0.6374
H21 H 0.4803 -0.0556 0.7825
H22 H 0.3672 -0.0922 0.7153
H23 H 0.4362 0.1908 0.6846
H24 H 0.5763 0.1978 0.7330
H25 H 0.8414 0.0095 0.5678
H26 H 0.7942 0.0272 0.4736
H27 H 0.5874 -0.0928 0.4708
H28 H 0.7227 -0.1375 0.5079
H29 H 0.2769 0.0140 0.8319
H30 H 0.2440 0.0427 0.7379
H31 H 0.3543 0.1889 0.8172
H32 H 0.4762 0.1254 0.8436
Cu3 Cu 0.2949(5) 0.5603(4) 0.9096(3)
N9 N 0.3415(12) 0.6958(11) 0.8663(11)
N10 N 0.3851(13) 0.5156(11) 0.7938(10)
N11 N 0.2786(13) 0.4225(11) 0.9548(11)
N12 N 0.2146(12) 0.5957(9) 1.0206(9)
C9 C 0.4292(14) 0.6832(12) 0.7901(12)
C10 C 0.3844(13) 0.5768(10) 0.7409(11)
C11 C 0.1916(13) 0.4224(11) 1.0304(10)
C12 C 0.2204(14) 0.5346(12) 1.0880(12)
H33 H 0.3894 0.7370 0.9091
H34 H 0.2570 0.7199 0.8529
H35 H 0.3313 0.4594 0.7710
H36 H 0.4773 0.5017 0.8043
H37 H 0.3692 0.4064 0.9666
H38 H 0.2348 0.3771 0.9136
H39 H 0.1215 0.6088 1.0118
H40 H 0.2669 0.6528 1.0428
H41 H 0.5318 0.6922 0.8068
H42 H 0.4103 0.7330 0.7520
H43 H 0.2886 0.5741 0.7136
H44 H 0.4527 0.5629 0.6963
H45 H 0.2227 0.3750 1.0676
H46 H 0.0892 0.4042 1.0153
H47 H 0.1423 0.5433 1.1275
H48 H 0.3120 0.5442 1.1208
Cu4 Cu 0.0382(7) 0.0322(5) 0.1533(5)
N13 N 0.1723(13) 0.0566(11) 0.0457(11)
N14 N 0.0507(13) -0.1124(12) 0.1250(12)
N15 N -0.0802(12) 0.0166(10) 0.2555(9)
N16 N 0.0247(12) 0.1807(11) 0.1857(11)
C13 C 0.2241(13) -0.0525(10) 0.0280(11)
C14 C 0.1004(14) -0.1327(12) 0.0400(12)
C15 C -0.1562(14) 0.0914(11) 0.2794(12)
C16 C -0.0430(13) 0.1860(12) 0.2737(12)
H49 H 0.2465 0.1055 0.0587
H50 H 0.1193 0.0711 -0.0004
H51 H -0.0384 -0.1469 0.1296
H52 H 0.1130 -0.1329 0.1637
H53 H -0.0211 0.0068 0.3005
H54 H -0.1451 -0.0383 0.2449
H55 H -0.0343 0.2048 0.1473
H56 H 0.1145 0.2156 0.1864
H57 H 0.3028 -0.0580 0.0688
H58 H 0.2602 -0.0611 -0.0298
H59 H 0.0231 -0.1286 -0.0021
H60 H 0.1314 -0.1980 0.0323
H61 H -0.1922 0.0876 0.3372
H62 H -0.2377 0.0934 0.2397
H63 H -0.0890 0.2458 0.2842
H64 H 0.0336 0.1862 0.3172
Fe1 Fe 0.4857(5) 0.2794(4) 0.2107(4)
C17 C 0.2959(13) 0.4119(11) 0.2719(11)
C18 C 0.4497(13) 0.4728(12) 0.2856(11)
O1 O 0.2874(11) 0.3333(9) 0.2344(9)
O2 O 0.5522(10) 0.4140(8) 0.2738(7)
O3 O 0.4837(10) 0.5503(8) 0.3295(8)
O4 O 0.1911(10) 0.4547(8) 0.3020(8)
C19 C 0.7125(12) 0.2823(10) 0.0916(10)
C20 C 0.5706(11) 0.2839(10) 0.0367(10)
O5 O 0.6918(11) 0.2720(9) 0.1753(9)
O6 O 0.4584(11) 0.2847(9) 0.0814(9)
O7 O 0.5840(10) 0.2757(9) -0.0411(8)
O8 O 0.8358(11) 0.2861(9) 0.0582(9)
C21 C 0.4731(14) 0.1384(12) 0.3305(13)
C22 C 0.3575(13) 0.0945(12) 0.2525(12)
O9 O 0.5430(10) 0.2177(8) 0.3196(8)
O10 O 0.3950(10) 0.1391(8) 0.1860(8)
O11 O 0.2711(10) 0.0197(8) 0.2580(7)
O12 O 0.5025(11) 0.0759(9) 0.3859(9)
Fe2 Fe 0.1111(5) 0.2901(4) 0.5980(4)
C23 C 0.2632(13) 0.4547(11) 0.5301(11)
C24 C 0.0938(13) 0.4627(11) 0.5105(10)
O13 O 0.2844(10) 0.3735(8) 0.5616(7)
O14 O 0.0127(10) 0.3899(8) 0.5389(7)
O15 O 0.0534(10) 0.5383(8) 0.4852(7)
O16 O 0.3522(11) 0.5148(8) 0.5015(8)
C25 C 0.9000(13) 0.2701(12) -0.2751(11)
C26 C 1.0460(13) 0.3006(12) -0.2239(12)
O17 O 1.1510(11) 0.3280(10) -0.2703(9)
O18 O 0.9163(10) 0.2417(9) -0.3557(9)
O19 O 0.7851(11) 0.2637(10) -0.2303(9)
O20 O 1.0516(12) 0.2949(10) -0.1459(10)
C27 C 0.1094(13) 0.1182(12) 0.4838(11)
C28 C 0.2321(12) 0.1117(11) 0.5544(10)
O21 O 0.2439(10) 0.1857(8) 0.6111(8)
O22 O 0.0693(11) 0.2049(10) 0.4882(9)
O23 O 0.0776(10) 0.0404(8) 0.4306(8)
O24 O 0.3106(10) 0.0426(8) 0.5556(8)
Fe3 Fe 0.5935(5) 0.7846(4) 0.0988(4)
C29 C 0.5034(14) 0.7762(13) 0.2698(13)
C30 C 0.3609(14) 0.7811(13) 0.2152(13)
O25 O 0.6180(11) 0.7613(8) 0.2238(8)
O26 O 0.3820(12) 0.7869(10) 0.1386(10)
O27 O 0.5103(12) 0.7787(10) 0.3517(10)
O28 O 0.2458(13) 0.7697(11) 0.2531(11)
C31 C 0.7818(13) 0.6421(11) 0.0375(12)
C32 C 0.6231(13) 0.5947(12) 0.0206(11)
O29 O 0.7862(11) 0.7405(9) 0.0681(9)
O30 O 0.5266(11) 0.6460(9) 0.0549(7)
O31 O 0.6103(10) 0.5008(8) 0.0076(7)
O32 O 0.8845(11) 0.5928(8) 0.0256(8)
C33 C 0.6983(11) -0.0208(9) 0.0573(9)
C34 C 0.6050(12) -0.0651(10) -0.0198(10)
O33 O 0.7111(10) -0.0819(9) 0.1204(8)
O34 O 0.5564(11) -0.1627(9) -0.0150(9)
O35 O 0.7682(10) 0.0597(8) 0.0587(8)
O36 O 0.6044(10) -0.0287(8) -0.0877(8)
Fe4 Fe -0.0321(5) 0.7735(4) 0.7100(4)
C35 C 0.1859(13) 0.7935(12) 0.5815(12)
C36 C 0.0389(12) 0.7609(11) 0.5337(11)
O37 O 0.1756(11) 0.8122(9) 0.6631(9)
O38 O -0.0671(12) 0.7325(10) 0.5841(10)
O39 O 0.3005(11) 0.7920(10) 0.5466(9)
O40 O 0.0323(12) 0.7590(10) 0.4540(10)
C37 C 0.9623(13) -0.0522(12) -0.1736(12)
C38 C 0.8631(13) -0.0396(11) -0.2484(11)
O41 O 1.0324(10) -0.1309(9) -0.1821(8)
O42 O 0.8597(10) -0.1126(9) -0.3110(8)
O43 O 0.8005(10) 0.0341(8) -0.2496(8)
O44 O 0.9804(11) 0.0038(9) -0.1107(8)
C39 C 0.9837(13) 0.5938(11) -0.2109(11)
C40 C 0.8244(13) 0.5972(11) -0.2281(11)
O45 O 1.0651(10) 0.6613(8) -0.2471(7)
O46 O 0.7931(10) 0.6732(8) -0.2696(8)
O47 O 0.7275(10) 0.5298(8) -0.2121(7)
O48 O 1.0316(10) 0.5401(8) -0.1563(7)
K1 K 0.8000(7) 0.1483(5) -0.0939(5)
K2 K 0.2667(7) 0.6487(5) 0.3973(5)
K3 K 0.8127(7) 0.4159(5) -0.0887(5)
K4 K 0.2775(7) -0.0859(5) 0.4027(5)
O17_2 O 0.1510(11) 0.3280(10) 0.7297(9)
O18_2 O -0.0837(10) 0.2417(9) 0.6443(9)
Fe2_2 Fe 1.1111(5) 0.2901(4) -0.4020(4)
O33_2 O 0.7111(10) 0.9181(9) 0.1204(8)
O34_2 O 0.5564(11) 0.8373(9) -0.0150(9)
K4_2 K 0.2775(7) 0.9141(5) 0.4027(5)
Fe3_2 Fe 0.5935(5) -0.2154(4) 0.0988(4)
O41_2 O 0.0324(10) 0.8691(9) 0.8179(8)
O42_2 O -0.1403(10) 0.8874(9) 0.6890(8)
O45_2 O 0.0651(10) 0.6613(8) 0.7529(7)
O46_2 O -0.2069(10) 0.6732(8) 0.7304(8)
Fe4_2 Fe 0.9679(5) -0.2265(4) -0.2900(4)
Fe4_3 Fe 0.9679(5) 0.7735(4) -0.2900(4)
O27_2 O 0.5103(12) -0.2213(10) 0.3517(10)
O28_2 O 0.2458(13) -0.2303(11) 0.2531(11)
O39_2 O 0.3005(11) -0.2080(10) 0.5466(9)
O40_2 O 0.0323(12) -0.2410(10) 0.4540(10)
Cu1 Cu 0.7817(5) 0.5049(4) 0.3963(4)
N1 N 0.8085(13) 0.6342(11) 0.3467(11)
N2 N 0.8727(12) 0.4501(10) 0.2819(10)
N3 N 0.7411(13) 0.3684(12) 0.4402(12)
N4 N 0.6919(12) 0.5531(11) 0.5032(10)
C1 C 0.8914(14) 0.6236(12) 0.2629(11)
C2 C 0.8559(14) 0.5367(12) 0.2251(12)
C3 C 0.6389(14) 0.3675(12) 0.5130(12)
C4 C 0.6805(13) 0.4607(10) 0.5699(11)
H1 H 0.8564 0.6801 0.3860
H2 H 0.7202 0.6535 0.3341
H3 H 0.8270 0.3901 0.2618
H4 H 0.9691 0.4457 0.2907
H5 H 0.8257 0.3475 0.4582
H6 H 0.6999 0.3242 0.3973
H7 H 0.6018 0.5703 0.4919
H8 H 0.7481 0.6066 0.5292
H9 H 0.9945 0.6293 0.2779
H10 H 0.8748 0.6759 0.2270
H11 H 0.7539 0.5318 0.2076
H12 H 0.9127 0.5282 0.1739
H13 H 0.6416 0.3101 0.5451
H14 H 0.5401 0.3674 0.4907
H15 H 0.6073 0.4689 0.6127
H16 H 0.7733 0.4578 0.5992
loop_
_geom_bond_atom_site_label_1
_geom_bond_atom_site_label_2
_geom_bond_site_symmetry_1
_geom_bond_site_symmetry_2
Cu1 N1 1_555 1_555
N1 C1 1_555 1_555
N2 Cu1 1_555 1_555
N3 Cu1 1_555 1_555
N4 Cu1 1_555 1_555
C1 C2 1_555 1_555
C2 N2 1_555 1_555
C3 N3 1_555 1_555
C4 N4 1_555 1_555
Cu2 N5 1_555 1_555
N5 C5 1_555 1_555
N6 Cu2 1_555 1_555
N7 Cu2 1_555 1_555
N8 Cu2 1_555 1_555
C5 C6 1_555 1_555
C6 N6 1_555 1_555
C7 N7 1_555 1_555
C8 N8 1_555 1_555
Cu3 N9 1_555 1_555
N9 C9 1_555 1_555
N10 Cu3 1_555 1_555
N11 Cu3 1_555 1_555
N12 Cu3 1_555 1_555
C9 C10 1_555 1_555
C10 N10 1_555 1_555
C11 N11 1_555 1_555
C12 N12 1_555 1_555
Cu4 N13 1_555 1_555
N13 C13 1_555 1_555
N14 Cu4 1_555 1_555
N15 Cu4 1_555 1_555
N16 Cu4 1_555 1_555
C13 C14 1_555 1_555
C14 N14 1_555 1_555
C15 N15 1_555 1_555
C16 N16 1_555 1_555
Fe1 O1 1_555 1_555
C17 C18 1_555 1_555
C18 O2 1_555 1_555
O1 C17 1_555 1_555
O2 Fe1 1_555 1_555
O3 C18 1_555 1_555
O4 C17 1_555 1_555
C19 C20 1_555 1_555
C20 O6 1_555 1_555
O5 Fe1 1_555 1_555
O6 Fe1 1_555 1_555
O7 C20 1_555 1_555
O8 C19 1_555 1_555
C21 C22 1_555 1_555
C22 O10 1_555 1_555
O9 Fe1 1_555 1_555
O10 Fe1 1_555 1_555
O11 C22 1_555 1_555
O12 C21 1_555 1_555
Fe2 O13 1_555 1_555
C23 C24 1_555 1_555
C24 O14 1_555 1_555
O13 C23 1_555 1_555
O14 Fe2 1_555 1_555
O15 C24 1_555 1_555
O16 C23 1_555 1_555
C25 C26 1_555 1_555
C26 O17 1_555 1_555
O17 Fe2_2 1_555 1_555
O18 C25 1_555 1_555
O19 C25 1_555 1_555
O20 C26 1_555 1_555
C27 C28 1_555 1_555
C28 O21 1_555 1_555
O21 Fe2 1_555 1_555
O22 Fe2 1_555 1_555
O23 C27 1_555 1_555
O24 C28 1_555 1_555
Fe3 O25 1_555 1_555
C29 C30 1_555 1_555
C30 O26 1_555 1_555
O25 C29 1_555 1_555
O26 Fe3 1_555 1_555
O27 C29 1_555 1_555
O28 C30 1_555 1_555
C31 C32 1_555 1_555
C32 O30 1_555 1_555
O29 Fe3 1_555 1_555
O30 Fe3 1_555 1_555
O31 C32 1_555 1_555
O32 C31 1_555 1_555
C33 C34 1_555 1_555
C34 O34 1_555 1_555
O33 C33 1_555 1_555
O34 Fe3_2 1_555 1_555
O35 C33 1_555 1_555
O36 C34 1_555 1_555
Fe4 O37 1_555 1_555
C35 C36 1_555 1_555
C36 O38 1_555 1_555
O37 C35 1_555 1_555
O38 Fe4 1_555 1_555
O39 C35 1_555 1_555
O40 C36 1_555 1_555
C37 C38 1_555 1_555
C38 O42 1_555 1_555
O41 C37 1_555 1_555
O42 Fe4_2 1_555 1_555
O43 C38 1_555 1_555
O44 C37 1_555 1_555
C39 C40 1_555 1_555
C40 O46 1_555 1_555
O45 C39 1_555 1_555
O46 Fe4_3 1_555 1_555
O47 C40 1_555 1_555
O48 C39 1_555 1_555
K1 O7 1_555 1_555
K2 O3 1_555 1_555
K3 O7 1_555 1_555
K4 O11 1_555 1_555
H1 N1 1_555 1_555
H2 N1 1_555 1_555
H3 N2 1_555 1_555
H4 N2 1_555 1_555
H5 N3 1_555 1_555
H6 N3 1_555 1_555
H7 N4 1_555 1_555
H8 N4 1_555 1_555
H9 C1 1_555 1_555
H10 C1 1_555 1_555
H11 C2 1_555 1_555
H12 C2 1_555 1_555
H13 C3 1_555 1_555
H14 C3 1_555 1_555
H15 C4 1_555 1_555
H16 C4 1_555 1_555
H17 N5 1_555 1_555
H18 N5 1_555 1_555
H19 N6 1_555 1_555
H20 N6 1_555 1_555
H21 N7 1_555 1_555
H22 N7 1_555 1_555
H23 N8 1_555 1_555
H24 N8 1_555 1_555
H25 C5 1_555 1_555
H26 C5 1_555 1_555
H27 C6 1_555 1_555
H28 C6 1_555 1_555
H29 C7 1_555 1_555
H30 C7 1_555 1_555
H31 C8 1_555 1_555
H32 C8 1_555 1_555
H33 N9 1_555 1_555
H34 N9 1_555 1_555
H35 N10 1_555 1_555
H36 N10 1_555 1_555
H37 N11 1_555 1_555
H38 N11 1_555 1_555
H39 N12 1_555 1_555
H40 N12 1_555 1_555
H41 C9 1_555 1_555
H42 C9 1_555 1_555
H43 C10 1_555 1_555
H44 C10 1_555 1_555
H45 C11 1_555 1_555
H46 C11 1_555 1_555
H47 C12 1_555 1_555
H48 C12 1_555 1_555
H49 N13 1_555 1_555
H50 N13 1_555 1_555
H51 N14 1_555 1_555
H52 N14 1_555 1_555
H53 N15 1_555 1_555
H54 N15 1_555 1_555
H55 N16 1_555 1_555
H56 N16 1_555 1_555
H57 C13 1_555 1_555
H58 C13 1_555 1_555
H59 C14 1_555 1_555
H60 C14 1_555 1_555
H61 C15 1_555 1_555
H62 C15 1_555 1_555
H63 C16 1_555 1_555
H64 C16 1_555 1_555
O17_2 Fe2 1_555 1_555
O18_2 Fe2 1_555 1_555
Fe2_2 O18 1_555 1_555
O33_2 Fe3 1_555 1_555
O34_2 Fe3 1_555 1_555
K4_2 O27 1_555 1_555
Fe3_2 O33 1_555 1_555
O41_2 Fe4 1_555 1_555
O42_2 Fe4 1_555 1_555
O45_2 Fe4 1_555 1_555
O46_2 Fe4 1_555 1_555
Fe4_2 O41 1_555 1_555
Fe4_3 O45 1_555 1_555
O27_2 K4 1_555 1_555
O28_2 K4 1_555 1_555
O39_2 K4 1_555 1_555
O40_2 K4 1_555 1_555
C3 C4 1_555 1_555
C7 C8 1_555 1_555
C11 C12 1_555 1_555
C15 C16 1_555 1_555
O4 K2 1_555 1_555
C19 O5 1_555 1_555
O8 K1 1_555 1_555
O8 K3 1_555 1_555
C21 O9 1_555 1_555
O12 K4 1_555 1_555
O15 K2 1_555 1_555
O16 K2 1_555 1_555
O19 K1 1_555 1_555
O19 K3 1_555 1_555
O20 K1 1_555 1_555
O20 K3 1_555 1_555
C27 O22 1_555 1_555
O23 K4 1_555 1_555
O24 K4 1_555 1_555
O27 K2 1_555 1_555
O28 K2 1_555 1_555
O28 K4_2 1_555 1_555
C31 O29 1_555 1_555
O31 K3 1_555 1_555
O32 K3 1_555 1_555
O35 K1 1_555 1_555
O36 K1 1_555 1_555
O39 K2 1_555 1_555
O39 K4_2 1_555 1_555
O40 K2 1_555 1_555
O40 K4_2 1_555 1_555
O43 K1 1_555 1_555
O44 K1 1_555 1_555
O47 K3 1_555 1_555
O48 K3 1_555 1_555

#END
