
#######################################################################
#
#                 Cambridge Crystallographic Data Centre
#                                CCDC 
#
#######################################################################
#
# If this CIF has been generated from an entry in the Cambridge 
# Structural Database, then it will include bibliographic, chemical, 
# crystal, experimental, refinement or atomic coordinate data resulting 
# from the CCDC's data processing and validation procedures.
#
#######################################################################

data_VIMKUY
_symmetry_cell_setting           orthorhombic
_symmetry_space_group_name_H-M   'C m c 21'
_symmetry_Int_Tables_number      36
_space_group_name_Hall           'C 2n -2'
loop_
_symmetry_equiv_pos_site_id
_symmetry_equiv_pos_as_xyz
1 x,y,z
2 -x,-y,1/2+z
3 x,-y,1/2+z
4 -x,y,z
5 1/2+x,1/2+y,z
6 1/2-x,1/2-y,1/2+z
7 1/2+x,1/2-y,1/2+z
8 1/2-x,1/2+y,z
_cell_length_a                   18.856(2)
_cell_length_b                   12.1727(15)
_cell_length_c                   8.7140(9)
_cell_angle_alpha                90
_cell_angle_beta                 90
_cell_angle_gamma                90
_cell_volume                     2000.11
loop_
_atom_site_label
_atom_site_type_symbol
_atom_site_fract_x
_atom_site_fract_y
_atom_site_fract_z
Co1 Co 0.5000 0.92885(6) 0.82850(9)
C1 C 0.19996(18) 0.6967(3) 0.5796(4)
H1 H 0.1700 0.7319 0.5105
C2 C 0.26484(18) 0.7431(3) 0.6121(5)
H2 H 0.2780 0.8089 0.5661
C3 C 0.31091(17) 0.6908(3) 0.7147(4)
C4 C 0.28844(19) 0.5947(3) 0.7883(5)
H3 H 0.3178 0.5613 0.8601
C5 C 0.22252(18) 0.5485(3) 0.7551(5)
H4 H 0.2083 0.4845 0.8045
C6 C 0.17761(17) 0.5985(3) 0.6472(4)
C7 C 0.10702(18) 0.5502(3) 0.6026(5)
C8 C 0.43989(16) 0.6876(3) 0.7455(5)
C9 C 0.5000 0.5285(5) 0.7271(7)
C10 C 0.5664(2) 0.3595(4) 0.7005(6)
H5 H 0.5585 0.2903 0.6481
H6 H 0.6003 0.4012 0.6406
C11 C 0.5978(3) 0.3364(5) 0.8547(7)
H7 H 0.6414 0.2966 0.8423
H8 H 0.6070 0.4044 0.9067
H9 H 0.5652 0.2933 0.9140
N1 N 0.5000 0.7518(4) 0.7547(7)
N2 N 0.43703(18) 0.5792(3) 0.7369(5)
N3 N 0.5000 0.4197(4) 0.7052(8)
N4 N 0.37722(14) 0.7418(3) 0.7398(4)
H10 H 0.3778 0.8119 0.7523
O1 O 0.08602(14) 0.4648(3) 0.6698(4)
O2 O 0.07579(16) 0.6002(3) 0.4962(5)
O3 O 0.5000 1.0981(5) 0.8932(7)
Co1D Co 0.0000 0.42885(6) 0.82850(9)
Co1E Co 0.0000 0.57115(6) 0.32850(9)
Co1D_2 Co 1.0000 0.42885(6) 0.82850(9)
Co1E_2 Co 1.0000 0.57115(6) 0.32850(9)
C1C C 0.80004(18) 0.6967(3) 0.5796(4)
H1C H 0.8300 0.7319 0.5105
C2C C 0.73516(18) 0.7431(3) 0.6121(5)
H2C H 0.7220 0.8089 0.5661
C3C C 0.68909(17) 0.6908(3) 0.7147(4)
C4C C 0.71156(19) 0.5947(3) 0.7883(5)
H3C H 0.6822 0.5613 0.8601
C5C C 0.77748(18) 0.5485(3) 0.7551(5)
H4C H 0.7917 0.4845 0.8045
C6C C 0.82239(17) 0.5985(3) 0.6472(4)
C7C C 0.89298(18) 0.5502(3) 0.6026(5)
C8C C 0.56011(16) 0.6876(3) 0.7455(5)
C10C C 0.4336(2) 0.3595(4) 0.7005(6)
H5C H 0.4415 0.2903 0.6481
H6C H 0.3997 0.4012 0.6406
C11C C 0.4022(3) 0.3364(5) 0.8547(7)
H7C H 0.3586 0.2966 0.8423
H8C H 0.3930 0.4044 0.9067
H9C H 0.4348 0.2933 0.9140
N2C N 0.56297(18) 0.5792(3) 0.7369(5)
N4C N 0.62278(14) 0.7418(3) 0.7398(4)
H10C H 0.6222 0.8119 0.7523
O1C O 0.91398(14) 0.4648(3) 0.6698(4)
O1D O 0.58602(14) 0.9648(3) 0.6698(4)
O1G O 0.41398(14) 0.9648(3) 0.6698(4)
O2C O 0.92421(16) 0.6002(3) 0.4962(5)
O2E O 0.42421(16) 0.8998(3) 0.9962(5)
O2F O 0.57579(16) 0.8998(3) 0.9962(5)
loop_
_geom_bond_atom_site_label_1
_geom_bond_atom_site_label_2
_geom_bond_site_symmetry_1
_geom_bond_site_symmetry_2
Co1 N1 1_555 1_555
C1 H1 1_555 1_555
C2 C1 1_555 1_555
H2 C2 1_555 1_555
C3 C2 1_555 1_555
C4 C3 1_555 1_555
H3 C4 1_555 1_555
C5 C4 1_555 1_555
H4 C5 1_555 1_555
C6 C1 1_555 1_555
C7 C6 1_555 1_555
C8 N1 1_555 1_555
C9 N2 1_555 1_555
C10 H5 1_555 1_555
H6 C10 1_555 1_555
C11 C10 1_555 1_555
H7 C11 1_555 1_555
H8 C11 1_555 1_555
H9 C11 1_555 1_555
N1 C8C 1_555 1_555
N2 C8 1_555 1_555
N3 C9 1_555 1_555
N4 C3 1_555 1_555
H10 N4 1_555 1_555
O1 C7 1_555 1_555
O2 C7 1_555 1_555
O3 Co1 1_555 1_555
Co1D O1 1_555 1_555
Co1E O2 1_555 1_555
Co1D_2 O1C 1_555 1_555
Co1E_2 O2C 1_555 1_555
C1C H1C 1_555 1_555
C2C C1C 1_555 1_555
H2C C2C 1_555 1_555
C3C C2C 1_555 1_555
C4C C3C 1_555 1_555
H3C C4C 1_555 1_555
C5C C4C 1_555 1_555
H4C C5C 1_555 1_555
C6C C1C 1_555 1_555
C7C C6C 1_555 1_555
C8C N2C 1_555 1_555
C10C N3 1_555 1_555
H5C C10C 1_555 1_555
H6C C10C 1_555 1_555
C11C C10C 1_555 1_555
H7C C11C 1_555 1_555
H8C C11C 1_555 1_555
H9C C11C 1_555 1_555
N2C C9 1_555 1_555
N4C C3C 1_555 1_555
H10C N4C 1_555 1_555
O1C C7C 1_555 1_555
O1D Co1 1_555 1_555
O1G Co1 1_555 1_555
O2C C7C 1_555 1_555
O2E Co1 1_555 1_555
O2F Co1 1_555 1_555
C5 C6 1_555 1_555
C8 N4 1_555 1_555
C10 N3 1_555 1_555
C5C C6C 1_555 1_555
C8C N4C 1_555 1_555

#END
