
#######################################################################
#
#                 Cambridge Crystallographic Data Centre
#                                CCDC 
#
#######################################################################
#
# If this CIF has been generated from an entry in the Cambridge 
# Structural Database, then it will include bibliographic, chemical, 
# crystal, experimental, refinement or atomic coordinate data resulting 
# from the CCDC's data processing and validation procedures.
#
#######################################################################

data_VIMMUA
_symmetry_cell_setting           triclinic
_symmetry_space_group_name_H-M   'P -1'
_symmetry_Int_Tables_number      2
_space_group_name_Hall           '-P 1'
loop_
_symmetry_equiv_pos_site_id
_symmetry_equiv_pos_as_xyz
1 x,y,z
2 -x,-y,-z
_cell_length_a                   9.1420(18)
_cell_length_b                   9.5970(19)
_cell_length_c                   9.904(2)
_cell_angle_alpha                117.25(3)
_cell_angle_beta                 104.93(3)
_cell_angle_gamma                98.44(3)
_cell_volume                     710.087
loop_
_atom_site_label
_atom_site_type_symbol
_atom_site_fract_x
_atom_site_fract_y
_atom_site_fract_z
Cd1 Cd 0.97798(3) 0.31026(3) 0.53249(3)
O1 O 0.4739(4) 0.0125(4) -0.2844(5)
O2 O 0.4332(5) -0.2305(6) -0.4853(4)
N1 N 0.5050(4) -0.1167(5) -0.3448(5)
C1 C 0.8652(5) 0.0617(4) 0.2120(5)
C2 C 0.8033(4) -0.0553(4) 0.0299(4)
C3 C 0.6850(5) -0.0329(5) -0.0707(5)
H1 H 0.6418 0.0518 -0.0268
C4 C 0.6327(4) -0.1389(5) -0.2376(5)
O3 O 0.8134(4) 0.1819(3) 0.2650(3)
O4 O 0.9696(4) 0.0395(4) 0.3040(3)
O5 O 0.8681(4) 0.1421(4) 0.6132(4)
H2 H 0.9116 0.0520 0.5872
H3 H 0.7548 0.1001 0.5564
C5 C 0.8679(4) -0.1811(4) -0.0385(4)
H4 H 0.9466 -0.1966 0.0294
C6 C 0.8164(4) -0.2841(4) -0.2072(4)
C7 C 0.6956(4) -0.2644(5) -0.3101(4)
H5 H 0.6587 -0.3331 -0.4230
O6 O 0.9572(4) -0.4697(4) -0.1937(4)
O7 O 0.8738(3) -0.4779(3) -0.4275(3)
C8 C 0.8880(4) -0.4182(4) -0.2798(4)
N2 N 1.2294(4) 0.3685(4) 0.6784(4)
C9 C 1.3105(5) 0.2697(5) 0.6934(5)
H6 H 1.2667 0.1569 0.6471
C10 C 1.3364(5) 0.5228(5) 0.7647(5)
H7 H 1.3130 0.6179 0.7765
N3 N 1.4627(4) 0.3536(5) 0.7836(4)
H8 H 1.5364 0.3136 0.8085
C11 C 1.4817(5) 0.5149(6) 0.8302(6)
H9 H 1.5761 0.6020 0.8942
Cd1_2 Cd 0.97798(3) -0.68974(3) -0.46751(3)
Cd1A Cd 1.02202(3) -0.31026(3) -0.53249(3)
O6_2 O 0.9572(4) 0.5303(4) 0.8063(4)
O7_2 O 0.8738(3) 0.5221(3) 0.5725(3)
O7A O 1.1262(3) 0.4779(3) 0.4275(3)
O8 O 0.7824(4) 0.3409(5) 0.8901(4)
H10 H 0.8398 0.2965 0.9296
H11 H 0.8162 0.4448 0.9548
loop_
_geom_bond_atom_site_label_1
_geom_bond_atom_site_label_2
_geom_bond_site_symmetry_1
_geom_bond_site_symmetry_2
Cd1 O3 1_555 1_555
O1 N1 1_555 1_555
O2 N1 1_555 1_555
N1 C4 1_555 1_555
C1 C2 1_555 1_555
C2 C3 1_555 1_555
C3 H1 1_555 1_555
C4 C3 1_555 1_555
O3 C1 1_555 1_555
O4 Cd1 1_555 1_555
O5 Cd1 1_555 1_555
H2 O5 1_555 1_555
H3 O5 1_555 1_555
C5 C2 1_555 1_555
H4 C5 1_555 1_555
C6 C5 1_555 1_555
C7 C4 1_555 1_555
H5 C7 1_555 1_555
O6 C8 1_555 1_555
O7 C8 1_555 1_555
C8 C6 1_555 1_555
N2 Cd1 1_555 1_555
C9 N2 1_555 1_555
H6 C9 1_555 1_555
C10 N2 1_555 1_555
H7 C10 1_555 1_555
N3 C9 1_555 1_555
H8 N3 1_555 1_555
C11 C10 1_555 1_555
H9 C11 1_555 1_555
O8 H10 1_555 1_555
H11 O8 1_555 1_555
Cd1_2 O6 1_555 1_555
Cd1A O7 1_555 1_555
O6_2 Cd1 1_555 1_555
O7_2 Cd1 1_555 1_555
O7A Cd1 1_555 1_555
C1 O4 1_555 1_555
C6 C7 1_555 1_555
O7 Cd1_2 1_555 1_555
N3 C11 1_555 1_555

#END
