
#######################################################################
#
#                 Cambridge Crystallographic Data Centre
#                                CCDC 
#
#######################################################################
#
# If this CIF has been generated from an entry in the Cambridge 
# Structural Database, then it will include bibliographic, chemical, 
# crystal, experimental, refinement or atomic coordinate data resulting 
# from the CCDC's data processing and validation procedures.
#
#######################################################################

data_VIMNAH
_symmetry_cell_setting           triclinic
_symmetry_space_group_name_H-M   'P -1'
_symmetry_Int_Tables_number      2
_space_group_name_Hall           '-P 1'
loop_
_symmetry_equiv_pos_site_id
_symmetry_equiv_pos_as_xyz
1 x,y,z
2 -x,-y,-z
_cell_length_a                   8.1781(9)
_cell_length_b                   10.4752(12)
_cell_length_c                   17.291(2)
_cell_angle_alpha                78.35(2)
_cell_angle_beta                 84.08(2)
_cell_angle_gamma                81.40(3)
_cell_volume                     1430.37
loop_
_atom_site_label
_atom_site_type_symbol
_atom_site_fract_x
_atom_site_fract_y
_atom_site_fract_z
Cd1 Cd 1.17074(5) 0.08707(4) 0.24234(2)
Cd2 Cd 1.31208(5) -0.04899(4) -0.29731(2)
C1 C 1.1737(6) -0.0754(5) 0.1338(3)
C2 C 1.1301(6) -0.1504(5) 0.0778(3)
C3 C 1.0301(7) -0.2497(5) 0.1050(3)
H1 H 1.0025 -0.2770 0.1587
C4 C 0.9728(7) -0.3067(5) 0.0477(3)
C5 C 1.0125(6) -0.2652(5) -0.0347(3)
H2 H 0.9654 -0.2991 -0.0716
C6 C 1.1200(6) -0.1755(5) -0.0588(3)
C7 C 1.1752(6) -0.1147(5) -0.0020(3)
H3 H 1.2433 -0.0492 -0.0187
C8 C 1.1704(6) -0.1387(5) -0.1446(3)
C9 C 0.9805(7) 0.1214(5) 0.3885(3)
C10 C 0.9116(6) 0.1594(5) 0.4633(3)
C11 C 0.9805(6) 0.2516(5) 0.4919(3)
H4 H 1.0652 0.2946 0.4628
C12 C 0.9187(6) 0.2774(5) 0.5654(3)
C13 C 0.7959(6) 0.2252(5) 0.6098(3)
H5 H 0.7602 0.2471 0.6588
C14 C 0.7210(6) 0.1345(5) 0.5796(3)
C15 C 0.7742(6) 0.1061(5) 0.5055(3)
H6 H 0.7189 0.0518 0.4839
C16 C 0.5834(6) 0.0702(5) 0.6240(3)
C17 C 1.2380(7) 0.3813(6) 0.2216(3)
H7 H 1.1583 0.3768 0.2641
C18 C 1.3058(6) 0.4964(5) 0.1962(3)
H8 H 1.2700 0.5702 0.2186
C19 C 1.4285(6) 0.4965(5) 0.1364(3)
H9 H 1.4809 0.5713 0.1197
C20 C 1.4765(7) 0.3932(6) 0.1007(3)
H10 H 1.5578 0.3957 0.0589
C21 C 1.3970(7) 0.2808(6) 0.1301(3)
H11 H 1.4288 0.2072 0.1069
C22 C 1.5219(6) -0.2695(5) -0.3875(3)
H12 H 1.5810 -0.1999 -0.4095
C23 C 1.5589(7) -0.3821(5) -0.4155(3)
H13 H 1.6464 -0.3921 -0.4536
C24 C 1.4634(6) -0.4833(5) -0.3863(3)
H14 H 1.4788 -0.5591 -0.4079
C25 C 1.3475(7) -0.4689(5) -0.3256(3)
H15 H 1.2874 -0.5368 -0.3014
C26 C 1.3225(7) -0.3514(5) -0.3016(3)
H16 H 1.2393 -0.3414 -0.2616
N1 N 1.2812(5) 0.2746(5) 0.1879(2)
N2 N 1.4016(5) -0.2530(4) -0.3283(2)
N3 N 0.8691(6) -0.4112(5) 0.0743(3)
N4 N 0.9960(6) 0.3771(5) 0.5954(3)
O1 O 1.1084(5) -0.0982(4) 0.2064(2)
O2 O 1.2661(5) 0.0077(4) 0.1142(2)
O3 O 0.8565(6) -0.4579(4) 0.1448(3)
O4 O 0.8006(5) -0.4470(4) 0.0246(3)
O5 O 1.0904(5) -0.1722(4) -0.1930(2)
O6 O 1.2912(5) -0.0776(4) -0.1621(2)
O7 O 1.1081(5) 0.1706(4) 0.3529(2)
O8 O 0.9222(4) 0.0343(4) 0.3616(2)
O9 O 1.1209(5) 0.4201(4) 0.5591(3)
O10 O 0.9291(6) 0.4172(5) 0.6539(3)
O11 O 0.5904(5) 0.0299(4) 0.7011(2)
O12 O 0.4645(5) 0.0521(4) 0.5916(2)
O13 O 1.1903(4) 0.1626(4) -0.2847(2)
H17 H 1.1100 0.1564 -0.2494
H18 H 1.2617 0.2002 -0.2684
Cd1A Cd 0.82926(5) -0.08707(4) -0.24234(2)
Cd1A_2 Cd 0.82926(5) -0.08707(4) 0.75766(2)
Cd2A Cd 0.68792(5) 0.04899(4) 0.29731(2)
Cd2_2 Cd 0.31208(5) -0.04899(4) 0.70269(2)
O5A O 0.9096(5) 0.1722(4) 0.1930(2)
O8A O 1.0778(4) -0.0343(4) -0.3616(2)
O11A O 1.4096(5) -0.0299(4) 0.2989(2)
O11_2 O 1.5904(5) 0.0299(4) -0.2989(2)
O12_2 O 1.4645(5) 0.0521(4) -0.4084(2)
O14 O 0.5849(6) 0.7967(4) 0.1849(3)
H19 H 0.6362 0.7214 0.1805
H20 H 0.5226 0.8247 0.1470
O15 O 0.5661(11) 0.8688(8) 0.0407(5)
H21 H 0.5166 0.9469 0.0300
H22 H 0.6641 0.8658 0.0186
loop_
_geom_bond_atom_site_label_1
_geom_bond_atom_site_label_2
_geom_bond_site_symmetry_1
_geom_bond_site_symmetry_2
Cd1 N1 1_555 1_555
Cd2 N2 1_555 1_555
C1 C2 1_555 1_555
C2 C3 1_555 1_555
C3 H1 1_555 1_555
C4 C3 1_555 1_555
C5 C4 1_555 1_555
H2 C5 1_555 1_555
C6 C5 1_555 1_555
C7 C2 1_555 1_555
H3 C7 1_555 1_555
C8 C6 1_555 1_555
C9 C10 1_555 1_555
C10 C11 1_555 1_555
C11 H4 1_555 1_555
C12 C11 1_555 1_555
C13 C12 1_555 1_555
H5 C13 1_555 1_555
C14 C13 1_555 1_555
C15 C10 1_555 1_555
H6 C15 1_555 1_555
C16 C14 1_555 1_555
C17 H7 1_555 1_555
C18 C17 1_555 1_555
H8 C18 1_555 1_555
C19 C18 1_555 1_555
H9 C19 1_555 1_555
C20 C19 1_555 1_555
H10 C20 1_555 1_555
C21 C20 1_555 1_555
H11 C21 1_555 1_555
C22 H12 1_555 1_555
C23 C22 1_555 1_555
H13 C23 1_555 1_555
C24 C23 1_555 1_555
H14 C24 1_555 1_555
C25 C24 1_555 1_555
H15 C25 1_555 1_555
C26 C25 1_555 1_555
H16 C26 1_555 1_555
N1 C17 1_555 1_555
N2 C22 1_555 1_555
N3 C4 1_555 1_555
N4 C12 1_555 1_555
O1 Cd1 1_555 1_555
O2 Cd1 1_555 1_555
O3 N3 1_555 1_555
O4 N3 1_555 1_555
O5 Cd2 1_555 1_555
O6 Cd2 1_555 1_555
O7 Cd1 1_555 1_555
O8 Cd1 1_555 1_555
O9 N4 1_555 1_555
O10 N4 1_555 1_555
O11 C16 1_555 1_555
O12 C16 1_555 1_555
O13 Cd2 1_555 1_555
H17 O13 1_555 1_555
H18 O13 1_555 1_555
O14 H19 1_555 1_555
H20 O14 1_555 1_555
O15 H21 1_555 1_555
H22 O15 1_555 1_555
Cd1A O5 1_555 1_555
Cd1A_2 O11 1_555 1_555
Cd2A O8 1_555 1_555
Cd2_2 O11 1_555 1_555
O5A Cd1 1_555 1_555
O8A Cd2 1_555 1_555
O11A Cd1 1_555 1_555
O11_2 Cd2 1_555 1_555
O12_2 Cd2 1_555 1_555
C1 O1 1_555 1_555
C1 O2 1_555 1_555
C6 C7 1_555 1_555
C8 O5 1_555 1_555
C8 O6 1_555 1_555
C9 O7 1_555 1_555
C9 O8 1_555 1_555
C14 C15 1_555 1_555
C21 N1 1_555 1_555
C26 N2 1_555 1_555
O12 Cd2_2 1_555 1_555
Cd1A O8A 1_555 1_555
Cd2A O5A 1_555 1_555

#END
