
#######################################################################
#
#                 Cambridge Crystallographic Data Centre
#                                CCDC 
#
#######################################################################
#
# If this CIF has been generated from an entry in the Cambridge 
# Structural Database, then it will include bibliographic, chemical, 
# crystal, experimental, refinement or atomic coordinate data resulting 
# from the CCDC's data processing and validation procedures.
#
#######################################################################

data_VIMPUE
_symmetry_cell_setting           monoclinic
_symmetry_space_group_name_H-M   'P 21/n'
_symmetry_Int_Tables_number      14
_space_group_name_Hall           '-P 2yn'
loop_
_symmetry_equiv_pos_site_id
_symmetry_equiv_pos_as_xyz
1 x,y,z
2 1/2-x,1/2+y,1/2-z
3 -x,-y,-z
4 1/2+x,1/2-y,1/2+z
_cell_length_a                   12.6852(4)
_cell_length_b                   8.1924(3)
_cell_length_c                   12.8192(5)
_cell_angle_alpha                90
_cell_angle_beta                 99.738(2)
_cell_angle_gamma                90
_cell_volume                     1313
loop_
_atom_site_label
_atom_site_type_symbol
_atom_site_fract_x
_atom_site_fract_y
_atom_site_fract_z
Ag1 Ag 0.699132(13) 1.250122(18) 0.917913(12)
O1 O 0.66803(17) 0.9790(2) 0.83723(15)
N1 N 0.71747(13) 1.1776(2) 1.10167(13)
C1 C 0.89599(18) 1.2525(3) 0.95596(18)
C2 C 0.86520(18) 1.4082(3) 0.94865(19)
C3 C 0.54565(15) 1.3563(2) 0.78884(15)
C4 C 0.53434(16) 1.3941(3) 0.88803(17)
Cl1 Cl 0.70589(4) 0.82322(6) 0.88076(4)
C5 C 0.61862(16) 1.1625(3) 1.12742(17)
C6 C 0.79762(16) 1.2248(2) 1.17796(16)
C7 C 0.91993(16) 1.1535(3) 1.05579(15)
H1 H 0.9035 1.1990 0.8919
H2 H 0.8565 1.4669 1.0105
H3 H 0.8519 1.4604 0.8816
O2 O 0.64823(16) 0.7787(3) 0.96242(15)
O3 O 0.81753(12) 0.8344(2) 0.92327(14)
O4 O 0.68878(14) 0.7048(2) 0.79714(13)
H4 H 0.5624 1.1251 1.0742
C8 C 0.59455(17) 1.1975(3) 1.22525(18)
C9 C 0.77966(18) 1.2629(2) 1.28138(18)
N2 N 0.89818(14) 1.2355(2) 1.15091(14)
H5 H 0.8771 1.0519 1.0459
H6 H 0.9963 1.1219 1.0671
H7 H 0.5236 1.1870 1.2392
C10 C 0.67771(19) 1.2491(3) 1.30364(19)
H8 H 0.8370 1.2974 1.3343
C11 C 0.99189(16) 1.2864(2) 1.22682(16)
H9 H 0.6640 1.2748 1.3724
H10 H 0.9696 1.3669 1.2765
H11 H 1.0437 1.3405 1.1884
H12 H 1.0906 1.0760 1.2552
H13 H 0.9900 1.1709 1.4241
H14 H 1.0707 1.0141 1.4223
C3C C 1.04565(15) 1.1437(2) 1.28884(15)
C4C C 1.03434(16) 1.1059(3) 1.38803(17)
Ag1C Ag 1.199132(13) 1.249878(18) 1.417913(12)
loop_
_geom_bond_atom_site_label_1
_geom_bond_atom_site_label_2
_geom_bond_site_symmetry_1
_geom_bond_site_symmetry_2
Ag1 O1 1_555 1_555
O1 Cl1 1_555 1_555
N1 Ag1 1_555 1_555
C1 Ag1 1_555 1_555
C2 Ag1 1_555 1_555
C3 Ag1 1_555 1_555
C4 Ag1 1_555 1_555
Cl1 O2 1_555 1_555
C5 N1 1_555 1_555
C6 N1 1_555 1_555
C7 C1 1_555 1_555
H1 C1 1_555 1_555
H2 C2 1_555 1_555
H3 C2 1_555 1_555
O3 Cl1 1_555 1_555
O4 Cl1 1_555 1_555
H4 C5 1_555 1_555
C8 C5 1_555 1_555
C9 C6 1_555 1_555
N2 C6 1_555 1_555
H5 C7 1_555 1_555
H6 C7 1_555 1_555
H7 C8 1_555 1_555
C10 C8 1_555 1_555
H8 C9 1_555 1_555
C11 N2 1_555 1_555
H9 C10 1_555 1_555
H10 C11 1_555 1_555
H11 C11 1_555 1_555
H12 C3C 1_555 1_555
H13 C4C 1_555 1_555
H14 C4C 1_555 1_555
C3C C11 1_555 1_555
C4C C3C 1_555 1_555
Ag1C C3C 1_555 1_555
C1 C2 1_555 1_555
C3 C4 1_555 1_555
C7 N2 1_555 1_555
C9 C10 1_555 1_555
C4C Ag1C 1_555 1_555

#END
