
#######################################################################
#
#                 Cambridge Crystallographic Data Centre
#                                CCDC 
#
#######################################################################
#
# If this CIF has been generated from an entry in the Cambridge 
# Structural Database, then it will include bibliographic, chemical, 
# crystal, experimental, refinement or atomic coordinate data resulting 
# from the CCDC's data processing and validation procedures.
#
#######################################################################

data_VIMQEP
_symmetry_cell_setting           orthorhombic
_symmetry_space_group_name_H-M   'P 21 21 21'
_symmetry_Int_Tables_number      19
_space_group_name_Hall           'P 2ac 2ab'
loop_
_symmetry_equiv_pos_site_id
_symmetry_equiv_pos_as_xyz
1 x,y,z
2 1/2-x,-y,1/2+z
3 -x,1/2+y,1/2-z
4 1/2+x,1/2-y,-z
_cell_length_a                   11.6969(3)
_cell_length_b                   12.9740(3)
_cell_length_c                   20.0150(5)
_cell_angle_alpha                90
_cell_angle_beta                 90
_cell_angle_gamma                90
_cell_volume                     3037.39
loop_
_atom_site_label
_atom_site_type_symbol
_atom_site_fract_x
_atom_site_fract_y
_atom_site_fract_z
Ag1 Ag 0.62062(2) 0.742137(19) -0.148173(10)
C1 C 0.4288(3) 0.6799(2) -0.11648(15)
C2 C 0.4644(3) 0.6177(3) -0.16507(15)
N1 N 0.6729(2) 0.6335(2) -0.04412(11)
C3 C 0.4416(3) 0.6588(2) -0.04254(13)
H1 H 0.3926 0.7425 -0.1292
H2 H 0.5010 0.5544 -0.1543
H3 H 0.4532 0.6365 -0.2105
C4 C 0.7866(3) 0.6258(2) -0.03759(14)
C5 C 0.6113(3) 0.5528(2) -0.02208(13)
H4 H 0.4876 0.7148 -0.0224
H5 H 0.3649 0.6606 -0.0216
N2 N 0.4950(2) 0.5611(2) -0.02681(11)
C6 C 0.8398(3) 0.5394(3) -0.01238(14)
H6 H 0.8326 0.6825 -0.0509
N3 N 0.6551(2) 0.4647(2) 0.00406(11)
C7 C 0.4211(3) 0.4714(2) -0.02357(14)
C8 C 0.7694(3) 0.4602(3) 0.00740(14)
H7 H 0.9207 0.5348 -0.0089
Ag2 Ag 0.56296(2) 0.349760(19) 0.079430(11)
H8 H 0.4602 0.4133 -0.0460
H9 H 0.3506 0.4864 -0.0492
C9 C 0.3873(3) 0.4373(2) 0.04564(16)
H10 H 0.8036 0.3992 0.0243
C10 C 0.4169(3) 0.4830(3) 0.10175(15)
C11 C 0.6215(3) 0.1705(2) 0.09418(13)
C12 C 0.5143(3) 0.1798(2) 0.11482(16)
N4 N 0.7024(2) 0.38548(19) 0.16596(11)
H11 H 0.3405 0.3777 0.0491
H12 H 0.4637 0.5428 0.1007
H13 H 0.3916 0.4560 0.1433
C13 C 0.7274(3) 0.1789(2) 0.13721(14)
H14 H 0.6329 0.1572 0.0480
H15 H 0.4986 0.1930 0.1606
H16 H 0.4532 0.1732 0.0839
C14 C 0.7136(3) 0.4856(2) 0.17834(16)
C15 C 0.7192(3) 0.3204(2) 0.21774(14)
H17 H 0.7629 0.1098 0.1405
H18 H 0.7827 0.2248 0.1144
N5 N 0.7084(2) 0.21807(19) 0.20473(11)
C16 C 0.7364(3) 0.5236(3) 0.24139(16)
H19 H 0.7055 0.5329 0.1424
N6 N 0.7445(2) 0.3502(2) 0.28059(11)
C17 C 0.6970(3) 0.1437(2) 0.25862(14)
C18 C 0.7498(3) 0.4520(3) 0.29135(15)
H20 H 0.7426 0.5954 0.2498
H21 H 0.6465 0.0872 0.2435
H22 H 0.6591 0.1779 0.2969
C19 C 0.8080(3) 0.0979(2) 0.28231(14)
H23 H 0.7633 0.4757 0.3355
C20 C 0.9118(3) 0.1220(3) 0.26037(15)
H24 H 0.8035 0.0468 0.3162
H25 H 0.9208 0.1727 0.2265
H26 H 0.9770 0.0886 0.2786
O1 O 0.6595(4) 0.8699(2) -0.06456(14)
H27 H 0.622(4) 0.923(4) -0.068(2)
H28 H 0.644(4) 0.858(4) -0.024(3)
Ag1A Ag 0.87938(2) 0.257863(19) 0.351827(10)
N6A N 0.7555(2) 0.6498(2) -0.21941(11)
C19A C 0.6920(3) 0.9021(2) -0.21769(14)
C20A C 0.5882(3) 0.8780(3) -0.23963(15)
S1 S 0.03519(7) 0.33485(6) 0.10417(3)
O2 O -0.02608(19) 0.27987(17) 0.05299(10)
O3 O 0.0994(2) 0.42182(16) 0.08024(13)
O4 O -0.0258(2) 0.3503(2) 0.16516(10)
C21 C 0.1481(3) 0.2449(3) 0.12761(15)
F1 F 0.22005(15) 0.22826(14) 0.07722(11)
F2 F 0.2100(2) 0.28105(18) 0.17798(11)
F3 F 0.10662(17) 0.15334(15) 0.14532(9)
S2 S 0.59857(8) 0.78151(6) 0.11857(4)
O5 O 0.6298(3) 0.8571(2) 0.07003(12)
O6 O 0.6851(2) 0.70844(18) 0.13307(14)
O7 O 0.4858(2) 0.7391(2) 0.11193(12)
C22 C 0.5898(3) 0.8603(3) 0.19329(14)
F4 F 0.5559(3) 0.8046(2) 0.24500(10)
F5 F 0.51628(19) 0.93665(18) 0.18690(12)
F6 F 0.68992(19) 0.90109(17) 0.20930(11)
loop_
_geom_bond_atom_site_label_1
_geom_bond_atom_site_label_2
_geom_bond_site_symmetry_1
_geom_bond_site_symmetry_2
Ag1 C1 1_555 1_555
C1 C2 1_555 1_555
C2 Ag1 1_555 1_555
N1 Ag1 1_555 1_555
C3 C1 1_555 1_555
H1 C1 1_555 1_555
H2 C2 1_555 1_555
H3 C2 1_555 1_555
C4 N1 1_555 1_555
C5 N1 1_555 1_555
H4 C3 1_555 1_555
H5 C3 1_555 1_555
N2 C3 1_555 1_555
C6 C4 1_555 1_555
H6 C4 1_555 1_555
N3 C5 1_555 1_555
C7 N2 1_555 1_555
C8 C6 1_555 1_555
H7 C6 1_555 1_555
Ag2 N3 1_555 1_555
H8 C7 1_555 1_555
H9 C7 1_555 1_555
C9 C7 1_555 1_555
H10 C8 1_555 1_555
C10 Ag2 1_555 1_555
C11 Ag2 1_555 1_555
C12 Ag2 1_555 1_555
N4 Ag2 1_555 1_555
H11 C9 1_555 1_555
H12 C10 1_555 1_555
H13 C10 1_555 1_555
C13 C11 1_555 1_555
H14 C11 1_555 1_555
H15 C12 1_555 1_555
H16 C12 1_555 1_555
C14 N4 1_555 1_555
C15 N4 1_555 1_555
H17 C13 1_555 1_555
H18 C13 1_555 1_555
N5 C13 1_555 1_555
C16 C14 1_555 1_555
H19 C14 1_555 1_555
N6 C15 1_555 1_555
C17 N5 1_555 1_555
C18 C16 1_555 1_555
H20 C16 1_555 1_555
H21 C17 1_555 1_555
H22 C17 1_555 1_555
C19 C17 1_555 1_555
H23 C18 1_555 1_555
C20 C19 1_555 1_555
H24 C19 1_555 1_555
H25 C20 1_555 1_555
H26 C20 1_555 1_555
O1 Ag1 1_555 1_555
H27 O1 1_555 1_555
H28 O1 1_555 1_555
S1 O2 1_555 1_555
O3 S1 1_555 1_555
O4 S1 1_555 1_555
C21 S1 1_555 1_555
F1 C21 1_555 1_555
F2 C21 1_555 1_555
F3 C21 1_555 1_555
S2 O5 1_555 1_555
O6 S2 1_555 1_555
O7 S2 1_555 1_555
C22 S2 1_555 1_555
F4 C22 1_555 1_555
F5 C22 1_555 1_555
F6 C22 1_555 1_555
Ag1A N6 1_555 1_555
N6A Ag1 1_555 1_555
C19A Ag1 1_555 1_555
C20A Ag1 1_555 1_555
C5 N2 1_555 1_555
N3 C8 1_555 1_555
Ag2 C9 1_555 1_555
C9 C10 1_555 1_555
C11 C12 1_555 1_555
C15 N5 1_555 1_555
N6 C18 1_555 1_555
C19 Ag1A 1_555 1_555
C20 Ag1A 1_555 1_555
C19A C20A 1_555 1_555

#END
