
#######################################################################
#
#                 Cambridge Crystallographic Data Centre
#                                CCDC 
#
#######################################################################
#
# If this CIF has been generated from an entry in the Cambridge 
# Structural Database, then it will include bibliographic, chemical, 
# crystal, experimental, refinement or atomic coordinate data resulting 
# from the CCDC's data processing and validation procedures.
#
#######################################################################

data_VIMRAM
_symmetry_cell_setting           tetragonal
_symmetry_space_group_name_H-M   'P 4/n'
_symmetry_Int_Tables_number      85
_space_group_name_Hall           '-P 4a'
loop_
_symmetry_equiv_pos_site_id
_symmetry_equiv_pos_as_xyz
1 x,y,z
2 1/2-x,1/2-y,z
3 1/2-y,x,z
4 y,1/2-x,z
5 -x,-y,-z
6 1/2+x,1/2+y,-z
7 1/2+y,-x,-z
8 -y,1/2+x,-z
_cell_length_a                   24.1267(4)
_cell_length_b                   24.1267(4)
_cell_length_c                   11.3077(4)
_cell_angle_alpha                90
_cell_angle_beta                 90
_cell_angle_gamma                90
_cell_volume                     6582.19
loop_
_atom_site_label
_atom_site_type_symbol
_atom_site_fract_x
_atom_site_fract_y
_atom_site_fract_z
Cu1 Cu 0.462463(18) 0.50850(2) 0.10150(4)
Cu2 Cu 0.59865(2) 0.54413(2) 0.14732(5)
O1 O 0.55293(12) 0.56115(14) 0.2840(3)
O2 O 0.46950(11) 0.52079(13) 0.2678(2)
O3 O 0.48147(13) 0.88395(11) 0.8769(3)
O4 O 0.53538(13) 0.84798(11) 1.0174(3)
O5 O 0.33321(17) 0.5263(3) 0.5789(4)
O6 O 0.36639(12) 0.54173(13) 0.7766(3)
O7 O 0.3305(2) 0.6172(2) 0.6660(4)
O8 O 0.46971(15) 0.60707(12) 1.0414(3)
O9 O 0.56161(18) 0.64842(16) 1.0642(4)
O10 O 0.54199(16) 0.59180(13) 0.8950(4)
O11 O 0.54234(9) 0.49747(11) 0.0729(2)
H1 H 0.5461 0.4672 0.1048
O12 O 0.44732(15) 0.62987(12) 0.7738(3)
S1 S 0.35846(5) 0.56456(7) 0.66016(11)
S2 S 0.51978(6) 0.62974(5) 0.98420(14)
O13 O 0.65446(15) 0.59256(17) 0.2245(4)
H2 H 0.6916 0.5805 0.2149
H3 H 0.6556 0.6305 0.1987
C1 C 0.49113(17) 0.56937(16) 0.4439(4)
C2 C 0.44013(16) 0.55782(17) 0.4923(4)
H4 H 0.4153 0.5356 0.4509
C3 C 0.42530(17) 0.57869(17) 0.6016(4)
C4 C 0.4627(2) 0.61095(17) 0.6615(4)
C5 C 0.5134(2) 0.6212(2) 0.6165(4)
H5 H 0.5386 0.6422 0.6599
C6 C 0.5285(2) 0.6010(2) 0.5064(4)
H6 H 0.5634 0.6087 0.4752
C7 C 0.4658(2) 0.68249(18) 0.8059(4)
C8 C 0.49618(18) 0.68848(16) 0.9067(4)
C9 C 0.50922(18) 0.74128(17) 0.9465(4)
H7 H 0.5294 0.7456 1.0160
C10 C 0.49230(18) 0.78792(16) 0.8834(3)
C11 C 0.4627(2) 0.78017(18) 0.7802(4)
H8 H 0.4514 0.8108 0.7364
C12 C 0.4498(2) 0.7279(2) 0.7415(4)
H9 H 0.4301 0.7233 0.6715
C13 C 0.50639(18) 0.54816(17) 0.3219(4)
C14 C 0.50408(18) 0.84490(16) 0.9303(4)
Cu1_2 Cu 0.462463(18) 0.50850(2) 1.10150(4)
Cu1D Cu 0.537537(18) 0.49150(2) -0.10150(4)
Cu1D_2 Cu 0.537537(18) 0.49150(2) 0.89850(4)
Cu1G Cu 0.49150(2) 0.962463(18) 0.89850(4)
Cu2C Cu 0.54413(2) 0.90135(2) 1.14732(5)
Cu2D Cu 0.40135(2) 0.45587(2) 0.85268(5)
O3F O 0.38395(11) 0.51853(13) 0.1231(3)
O4B O 0.65202(11) 0.53538(13) 0.0174(3)
O6D O 0.63361(12) 0.45827(13) 0.2234(3)
O8_2 O 0.46971(15) 0.60707(12) 0.0414(3)
O10D O 0.45801(16) 0.40820(13) 0.1050(4)
O11D O 0.45766(9) 0.50253(11) -0.0729(2)
loop_
_geom_bond_atom_site_label_1
_geom_bond_atom_site_label_2
_geom_bond_site_symmetry_1
_geom_bond_site_symmetry_2
Cu1 O2 1_555 1_555
Cu2 O1 1_555 1_555
O1 C13 1_555 1_555
O2 C13 1_555 1_555
O3 C14 1_555 1_555
O4 C14 1_555 1_555
O5 S1 1_555 1_555
O6 S1 1_555 1_555
O7 S1 1_555 1_555
O8 S2 1_555 1_555
O9 S2 1_555 1_555
O10 S2 1_555 1_555
O11 Cu1 1_555 1_555
H1 O11 1_555 1_555
O12 C4 1_555 1_555
S1 C3 1_555 1_555
S2 C8 1_555 1_555
O13 Cu2 1_555 1_555
H2 O13 1_555 1_555
H3 O13 1_555 1_555
C1 C2 1_555 1_555
C2 H4 1_555 1_555
C3 C2 1_555 1_555
C4 C3 1_555 1_555
C5 C4 1_555 1_555
H5 C5 1_555 1_555
C6 C1 1_555 1_555
H6 C6 1_555 1_555
C7 O12 1_555 1_555
C8 C7 1_555 1_555
C9 C8 1_555 1_555
H7 C9 1_555 1_555
C10 C9 1_555 1_555
C11 C10 1_555 1_555
H8 C11 1_555 1_555
C12 C7 1_555 1_555
H9 C12 1_555 1_555
C13 C1 1_555 1_555
C14 C10 1_555 1_555
Cu1_2 O8 1_555 1_555
Cu1D O11 1_555 1_555
Cu1D_2 O10 1_555 1_555
Cu1G O3 1_555 1_555
Cu2C O4 1_555 1_555
Cu2D O6 1_555 1_555
O3F Cu1 1_555 1_555
O4B Cu2 1_555 1_555
O6D Cu2 1_555 1_555
O8_2 Cu1 1_555 1_555
O10D Cu1 1_555 1_555
O11D Cu1 1_555 1_555
Cu2 O11 1_555 1_555
C5 C6 1_555 1_555
C11 C12 1_555 1_555
Cu1D O11D 1_555 1_555

#END
