
#######################################################################
#
#                 Cambridge Crystallographic Data Centre
#                                CCDC 
#
#######################################################################
#
# If this CIF has been generated from an entry in the Cambridge 
# Structural Database, then it will include bibliographic, chemical, 
# crystal, experimental, refinement or atomic coordinate data resulting 
# from the CCDC's data processing and validation procedures.
#
#######################################################################

data_VIMSUG
_symmetry_cell_setting           monoclinic
_symmetry_space_group_name_H-M   'P 21/c'
_symmetry_Int_Tables_number      14
_space_group_name_Hall           '-P 2ybc'
loop_
_symmetry_equiv_pos_site_id
_symmetry_equiv_pos_as_xyz
1 x,y,z
2 -x,1/2+y,1/2-z
3 -x,-y,-z
4 x,1/2-y,1/2+z
_cell_length_a                   11.5921(2)
_cell_length_b                   9.2157(2)
_cell_length_c                   21.6622(4)
_cell_angle_alpha                90
_cell_angle_beta                 96.7398(9)
_cell_angle_gamma                90
_cell_volume                     2298.17
loop_
_atom_site_label
_atom_site_type_symbol
_atom_site_fract_x
_atom_site_fract_y
_atom_site_fract_z
Sn1 Sn 0.068339(16) 0.11236(2) 0.812173(9)
O1 O 0.02757(18) -0.1045(2) 0.77310(9)
O2 O 0.02385(18) -0.3426(2) 0.79122(9)
O3 O 0.13224(18) 0.2606(2) 0.88390(9)
N1 N 0.1331(2) -0.0481(3) 0.88567(10)
C1 C 0.0565(2) -0.2177(3) 0.80547(13)
C2 C 0.1409(2) -0.1985(3) 0.86413(13)
H1 H 0.1202 -0.2667 0.8970
C3 C 0.1461(2) -0.0255(3) 0.94492(13)
H2 H 0.1610 -0.1082 0.9708
C4 C 0.1402(2) 0.1127(3) 0.97565(13)
C5 C 0.1438(3) 0.1083(3) 1.04106(14)
H3 H 0.1503 0.0174 1.0618
C6 C 0.1381(3) 0.2331(4) 1.07514(15)
H4 H 0.1412 0.2289 1.1191
C7 C 0.1278(3) 0.3659(4) 1.04434(16)
H5 H 0.1225 0.4526 1.0676
C8 C 0.1250(3) 0.3733(3) 0.98048(15)
H6 H 0.1179 0.4652 0.9605
C9 C 0.1326(2) 0.2475(3) 0.94449(14)
C10 C 0.2236(2) 0.1419(3) 0.77090(14)
C11 C -0.1048(2) 0.1414(3) 0.83368(13)
C12 C 0.2631(3) -0.2350(4) 0.84700(14)
H7 H 0.2614 -0.3334 0.8285
H8 H 0.2827 -0.1657 0.8149
C13 C 0.3576(3) -0.2301(4) 0.90104(15)
C14 C 0.4448(3) -0.1276(4) 0.90339(17)
H9 H 0.4427 -0.0560 0.8717
C15 C 0.5349(3) -0.1277(5) 0.9510(2)
H10 H 0.5949 -0.0575 0.9512
C16 C 0.5387(3) -0.2275(5) 0.99782(19)
H11 H 0.6016 -0.2273 1.0302
C17 C 0.4517(3) -0.3274(5) 0.99790(17)
H12 H 0.4524 -0.3947 1.0312
C18 C 0.3618(3) -0.3305(4) 0.94888(16)
H13 H 0.3028 -0.4022 0.9484
C19 C 0.3100(3) 0.2359(4) 0.79704(16)
H14 H 0.2983 0.2912 0.8328
C20 C 0.4139(3) 0.2487(4) 0.77051(19)
H15 H 0.4725 0.3132 0.7883
C21 C 0.4318(3) 0.1687(5) 0.71900(19)
H16 H 0.5031 0.1766 0.7017
C22 C 0.3462(3) 0.0771(5) 0.69252(17)
H17 H 0.3583 0.0229 0.6566
C23 C 0.2421(3) 0.0634(4) 0.71795(15)
H18 H 0.1833 0.0002 0.6992
C24 C -0.1940(3) 0.0508(4) 0.80737(14)
H19 H -0.1782 -0.0200 0.7776
C25 C -0.3056(3) 0.0634(4) 0.82440(16)
H20 H -0.3656 0.0013 0.8063
C26 C -0.3292(3) 0.1667(4) 0.86782(16)
H21 H -0.4052 0.1743 0.8799
C27 C -0.2420(3) 0.2585(4) 0.89352(16)
H22 H -0.2582 0.3297 0.9230
C28 C -0.1307(3) 0.2469(3) 0.87618(15)
H23 H -0.0716 0.3114 0.8934
Sn1A Sn -0.068339(16) -0.38764(2) 0.687827(9)
O2A O -0.02385(18) 0.1574(2) 0.70878(9)
loop_
_geom_bond_atom_site_label_1
_geom_bond_atom_site_label_2
_geom_bond_site_symmetry_1
_geom_bond_site_symmetry_2
Sn1 O1 1_555 1_555
O1 C1 1_555 1_555
O2 C1 1_555 1_555
O3 Sn1 1_555 1_555
N1 Sn1 1_555 1_555
C1 C2 1_555 1_555
C2 N1 1_555 1_555
H1 C2 1_555 1_555
C3 N1 1_555 1_555
H2 C3 1_555 1_555
C4 C3 1_555 1_555
C5 C4 1_555 1_555
H3 C5 1_555 1_555
C6 C5 1_555 1_555
H4 C6 1_555 1_555
C7 C6 1_555 1_555
H5 C7 1_555 1_555
C8 C7 1_555 1_555
H6 C8 1_555 1_555
C9 O3 1_555 1_555
C10 Sn1 1_555 1_555
C11 Sn1 1_555 1_555
C12 C2 1_555 1_555
H7 C12 1_555 1_555
H8 C12 1_555 1_555
C13 C12 1_555 1_555
C14 C13 1_555 1_555
H9 C14 1_555 1_555
C15 C14 1_555 1_555
H10 C15 1_555 1_555
C16 C15 1_555 1_555
H11 C16 1_555 1_555
C17 C16 1_555 1_555
H12 C17 1_555 1_555
C18 C13 1_555 1_555
H13 C18 1_555 1_555
C19 C10 1_555 1_555
H14 C19 1_555 1_555
C20 C19 1_555 1_555
H15 C20 1_555 1_555
C21 C20 1_555 1_555
H16 C21 1_555 1_555
C22 C21 1_555 1_555
H17 C22 1_555 1_555
C23 C10 1_555 1_555
H18 C23 1_555 1_555
C24 C11 1_555 1_555
H19 C24 1_555 1_555
C25 C24 1_555 1_555
H20 C25 1_555 1_555
C26 C25 1_555 1_555
H21 C26 1_555 1_555
C27 C26 1_555 1_555
H22 C27 1_555 1_555
C28 C11 1_555 1_555
H23 C28 1_555 1_555
Sn1A O2 1_555 1_555
O2A Sn1 1_555 1_555
C4 C9 1_555 1_555
C8 C9 1_555 1_555
C17 C18 1_555 1_555
C22 C23 1_555 1_555
C27 C28 1_555 1_555

#END
