
#######################################################################
#
#                 Cambridge Crystallographic Data Centre
#                                CCDC 
#
#######################################################################
#
# If this CIF has been generated from an entry in the Cambridge 
# Structural Database, then it will include bibliographic, chemical, 
# crystal, experimental, refinement or atomic coordinate data resulting 
# from the CCDC's data processing and validation procedures.
#
#######################################################################

data_VIMTIV
_symmetry_cell_setting           orthorhombic
_symmetry_space_group_name_H-M   'P 21 21 21'
_symmetry_Int_Tables_number      19
_space_group_name_Hall           'P 2ac 2ab'
loop_
_symmetry_equiv_pos_site_id
_symmetry_equiv_pos_as_xyz
1 x,y,z
2 1/2-x,-y,1/2+z
3 1/2+x,1/2-y,-z
4 -x,1/2+y,1/2-z
_cell_length_a                   11.2346(1)
_cell_length_b                   12.5781(2)
_cell_length_c                   20.8002(3)
_cell_angle_alpha                90
_cell_angle_beta                 90
_cell_angle_gamma                90
_cell_volume                     2939.27
loop_
_atom_site_label
_atom_site_type_symbol
_atom_site_fract_x
_atom_site_fract_y
_atom_site_fract_z
Sn1 Sn 0.858648(13) 0.934052(12) 0.215368(8)
O1 O 0.89878(15) 0.79774(14) 0.15424(9)
O2 O 0.72397(16) 0.72238(16) 0.13006(11)
O3 O 1.15123(13) 0.56992(13) 0.21200(8)
N1 N 1.02455(18) 0.63200(16) 0.11708(11)
H1 H 1.041(3) 0.600(3) 0.1555(18)
C1 C 0.8318(2) 0.72519(19) 0.12993(13)
C2 C 0.9014(2) 0.63638(19) 0.09441(12)
H2 H 0.9036 0.6558 0.0478
C3 C 1.1168(2) 0.6785(2) 0.09191(12)
C4 C 1.2316(2) 0.6676(2) 0.12286(13)
C5 C 1.2449(2) 0.61150(19) 0.18222(13)
C6 C 1.3603(2) 0.60259(17) 0.20855(12)
H3 H 1.3713 0.5640 0.2474
C7 C 1.4569(2) 0.6486(2) 0.17913(14)
H4 H 1.5337 0.6410 0.1978
C8 C 1.4439(2) 0.7062(3) 0.12235(15)
H5 H 1.5108 0.7392 0.1027
C9 C 1.3326(2) 0.7146(2) 0.09522(14)
H6 H 1.3238 0.7537 0.0564
C10 C 0.8460(2) 0.52482(19) 0.09940(12)
H7 H 0.9090 0.4712 0.0919
H8 H 0.8158 0.5145 0.1437
C11 C 0.7454(2) 0.5053(2) 0.05257(13)
C12 C 0.7688(3) 0.4997(3) -0.01309(16)
H9 H 0.8478 0.5095 -0.0284
C13 C 0.6779(4) 0.4801(4) -0.05604(19)
H10 H 0.6948 0.4771 -0.1008
C14 C 0.5632(4) 0.4650(3) -0.0350(2)
H11 H 0.5011 0.4516 -0.0649
C15 C 0.5392(3) 0.4693(3) 0.0294(2)
H12 H 0.4601 0.4588 0.0443
C16 C 0.6300(3) 0.4891(2) 0.07299(14)
H13 H 0.6124 0.4916 0.1176
C17 C 0.7764(2) 1.0281(2) 0.14277(14)
C18 C 0.7117(3) 0.9830(3) 0.09283(17)
H14 H 0.7045 0.9078 0.0902
C19 C 0.6573(5) 1.0464(4) 0.04668(19)
H15 H 0.6130 1.0142 0.0130
C20 C 0.6671(4) 1.1547(4) 0.0493(2)
H16 H 0.6293 1.1979 0.0179
C21 C 0.7324(4) 1.2006(3) 0.0980(2)
H17 H 0.7401 1.2757 0.0996
C22 C 0.7872(3) 1.1386(2) 0.14483(18)
H18 H 0.8318 1.1715 0.1781
C23 C 0.7535(2) 0.84918(18) 0.28286(15)
C24 C 0.6344(2) 0.8272(2) 0.27226(14)
H19 H 0.5996 0.8456 0.2321
C25 C 0.5648(3) 0.7790(3) 0.31873(18)
H20 H 0.4831 0.7651 0.3105
C26 C 0.6137(4) 0.7516(3) 0.37641(19)
H21 H 0.5658 0.7190 0.4085
C27 C 0.7320(5) 0.7709(4) 0.38825(17)
H22 H 0.7664 0.7499 0.4280
C28 C 0.8015(3) 0.8213(3) 0.34189(16)
H23 H 0.8826 0.8366 0.3508
C29 C 1.04598(19) 0.95129(19) 0.22788(12)
C30 C 1.0996(2) 1.0519(2) 0.22787(12)
H24 H 1.0511 1.1136 0.2249
C31 C 1.2218(2) 1.0628(2) 0.23207(11)
H25 H 1.2564 1.1318 0.2320
C32 C 1.2943(2) 0.9736(2) 0.23636(13)
H26 H 1.3783 0.9812 0.2390
C33 C 1.2429(2) 0.8738(2) 0.23676(15)
H27 H 1.2917 0.8124 0.2403
C34 C 1.1196(2) 0.8629(2) 0.23192(13)
H28 H 1.0854 0.7938 0.2314
C35 C 1.1023(3) 0.7430(3) 0.03168(16)
H29 H 1.0763 0.6967 -0.0035
H30 H 1.1785 0.7759 0.0204
H31 H 1.0426 0.7986 0.0388
Sn1C Sn 1.141352(13) 0.434052(12) 0.284632(8)
O3C O 0.84877(13) 1.06992(13) 0.28800(8)
loop_
_geom_bond_atom_site_label_1
_geom_bond_atom_site_label_2
_geom_bond_site_symmetry_1
_geom_bond_site_symmetry_2
Sn1 O1 1_555 1_555
O1 C1 1_555 1_555
O2 C1 1_555 1_555
O3 C5 1_555 1_555
N1 H1 1_555 1_555
C1 C2 1_555 1_555
C2 N1 1_555 1_555
H2 C2 1_555 1_555
C3 N1 1_555 1_555
C4 C3 1_555 1_555
C5 C4 1_555 1_555
C6 C5 1_555 1_555
H3 C6 1_555 1_555
C7 C6 1_555 1_555
H4 C7 1_555 1_555
C8 C7 1_555 1_555
H5 C8 1_555 1_555
C9 C4 1_555 1_555
H6 C9 1_555 1_555
C10 C2 1_555 1_555
H7 C10 1_555 1_555
H8 C10 1_555 1_555
C11 C10 1_555 1_555
C12 C11 1_555 1_555
H9 C12 1_555 1_555
C13 C12 1_555 1_555
H10 C13 1_555 1_555
C14 C13 1_555 1_555
H11 C14 1_555 1_555
C15 C14 1_555 1_555
H12 C15 1_555 1_555
C16 C11 1_555 1_555
H13 C16 1_555 1_555
C17 Sn1 1_555 1_555
C18 C17 1_555 1_555
H14 C18 1_555 1_555
C19 C18 1_555 1_555
H15 C19 1_555 1_555
C20 C19 1_555 1_555
H16 C20 1_555 1_555
C21 C20 1_555 1_555
H17 C21 1_555 1_555
C22 C17 1_555 1_555
H18 C22 1_555 1_555
C23 Sn1 1_555 1_555
C24 C23 1_555 1_555
H19 C24 1_555 1_555
C25 C24 1_555 1_555
H20 C25 1_555 1_555
C26 C25 1_555 1_555
H21 C26 1_555 1_555
C27 C26 1_555 1_555
H22 C27 1_555 1_555
C28 C23 1_555 1_555
H23 C28 1_555 1_555
C29 Sn1 1_555 1_555
C30 C29 1_555 1_555
H24 C30 1_555 1_555
C31 C30 1_555 1_555
H25 C31 1_555 1_555
C32 C31 1_555 1_555
H26 C32 1_555 1_555
C33 C32 1_555 1_555
H27 C33 1_555 1_555
C34 C29 1_555 1_555
H28 C34 1_555 1_555
C35 C3 1_555 1_555
H29 C35 1_555 1_555
H30 C35 1_555 1_555
H31 C35 1_555 1_555
Sn1C O3 1_555 1_555
O3C Sn1 1_555 1_555
C8 C9 1_555 1_555
C15 C16 1_555 1_555
C21 C22 1_555 1_555
C27 C28 1_555 1_555
C33 C34 1_555 1_555

#END
