
#######################################################################
#
#                 Cambridge Crystallographic Data Centre
#                                CCDC 
#
#######################################################################
#
# If this CIF has been generated from an entry in the Cambridge 
# Structural Database, then it will include bibliographic, chemical, 
# crystal, experimental, refinement or atomic coordinate data resulting 
# from the CCDC's data processing and validation procedures.
#
#######################################################################

data_VIMWAQ
_symmetry_cell_setting           triclinic
_symmetry_space_group_name_H-M   'P -1'
_symmetry_Int_Tables_number      2
_space_group_name_Hall           '-P 1'
loop_
_symmetry_equiv_pos_site_id
_symmetry_equiv_pos_as_xyz
1 x,y,z
2 -x,-y,-z
_cell_length_a                   7.649(3)
_cell_length_b                   8.916(3)
_cell_length_c                   9.472(3)
_cell_angle_alpha                68.858(5)
_cell_angle_beta                 85.627(5)
_cell_angle_gamma                67.227(5)
_cell_volume                     554.018
loop_
_atom_site_label
_atom_site_type_symbol
_atom_site_fract_x
_atom_site_fract_y
_atom_site_fract_z
Mn1 Mn 0.5000 1.0000 0.5000
Mn2 Mn 0.29701(3) 1.45352(3) 0.49377(3)
O1 O 0.47943(19) 1.20812(16) 0.29294(14)
O2 O 0.2760(2) 1.47840(17) 0.26162(14)
O3 O 1.02002(18) 0.65570(17) 0.47238(15)
O4 O 0.71531(16) 0.81147(15) 0.41554(13)
O5 O 1.39204(16) 0.67766(15) 0.43628(13)
O6 O 1.28348(18) 0.95969(16) 0.40374(16)
N1 N 0.2776(2) 1.42833(19) -0.25291(16)
C1 C 0.3627(3) 1.3552(2) 0.21598(19)
C2 C 0.3261(3) 1.3856(2) 0.05121(19)
C3 C 0.4008(3) 1.2459(2) 0.0027(2)
H1 H 0.4695 1.1347 0.0713
C4 C 0.3729(3) 1.2723(2) -0.1474(2)
H2 H 0.4230 1.1762 -0.1773
C5 C 0.2034(3) 1.5624(2) -0.2048(2)
H3 H 0.1344 1.6720 -0.2755
C6 C 0.2233(3) 1.5472(2) -0.0561(2)
H4 H 0.1682 1.6445 -0.0282
C7 C 0.8892(2) 0.7927(2) 0.39952(18)
C8 C 0.9327(2) 0.9419(2) 0.2877(2)
H5 H 0.9090 1.0302 0.3317
H6 H 0.8476 0.9940 0.1970
C9 C 1.1381(2) 0.8848(2) 0.24358(19)
H7 H 1.1675 0.7848 0.2138
H8 H 1.1507 0.9786 0.1565
C10 C 1.2810(2) 0.8371(2) 0.37193(19)
Mn1_2 Mn 1.5000 1.0000 0.5000
Mn1_3 Mn -0.5000 1.0000 0.5000
Mn2A Mn 0.70299(3) 0.54648(3) 0.50623(3)
Mn2_2 Mn 1.29701(3) 0.45352(3) 0.49377(3)
Mn2A_2 Mn 1.70299(3) 0.54648(3) 0.50623(3)
Mn2_3 Mn 0.29701(3) 1.45352(3) -0.50623(3)
Mn2A_3 Mn 0.70299(3) 0.54648(3) 1.50623(3)
Mn2A_4 Mn -0.29701(3) 1.54648(3) 0.50623(3)
Mn2_4 Mn -0.70299(3) 1.45352(3) 0.49377(3)
O1A O 0.52057(19) 0.79188(16) 0.70706(14)
O2A O 0.7240(2) 0.52160(17) 0.73838(14)
O3A O -0.02002(18) 1.34430(17) 0.52762(15)
O3_2 O 0.02002(18) 1.65570(17) 0.47238(15)
O3A_2 O 0.97998(18) 0.34430(17) 0.52762(15)
O4A O 0.28469(16) 1.18853(15) 0.58446(13)
O5A O -0.39204(16) 1.32234(15) 0.56372(13)
O5_2 O 0.39204(16) 1.67766(15) 0.43628(13)
O5A_2 O 0.60796(16) 1.32234(15) 0.56372(13)
O5_3 O 0.39204(16) 0.67766(15) 0.43628(13)
O5A_3 O 0.60796(16) 0.32234(15) 0.56372(13)
O6A O -0.28348(18) 1.04031(16) 0.59626(16)
O6_2 O 0.28348(18) 0.95969(16) 0.40374(16)
O6A_2 O 0.71652(18) 1.04031(16) 0.59626(16)
N1A N 0.7224(2) 0.57167(19) 1.25291(16)
N1_2 N 0.2776(2) 1.42833(19) 0.74709(16)
N1A_2 N 0.7224(2) 0.57167(19) 0.25291(16)
C1A C 0.6373(3) 0.6448(2) 0.78402(19)
C2A C 0.6739(3) 0.6144(2) 0.94879(19)
C3A C 0.5992(3) 0.7541(2) 0.9973(2)
H1A H 0.5305 0.8653 0.9287
C4A C 0.6271(3) 0.7277(2) 1.1474(2)
H2A H 0.5770 0.8238 1.1773
C5A C 0.7966(3) 0.4376(2) 1.2048(2)
H3A H 0.8656 0.3280 1.2755
C6A C 0.7767(3) 0.4528(2) 1.0561(2)
H4A H 0.8318 0.3555 1.0282
C7A C 0.1108(2) 1.2073(2) 0.60048(18)
C8A C 0.0673(2) 1.0581(2) 0.7123(2)
H5A H 0.0910 0.9698 0.6683
H6A H 0.1524 1.0060 0.8030
C9A C -0.1381(2) 1.1152(2) 0.75642(19)
H7A H -0.1675 1.2152 0.7862
H8A H -0.1507 1.0214 0.8435
C10A C -0.2810(2) 1.1629(2) 0.62807(19)
loop_
_geom_bond_atom_site_label_1
_geom_bond_atom_site_label_2
_geom_bond_site_symmetry_1
_geom_bond_site_symmetry_2
Mn1 O1 1_555 1_555
Mn2 O2 1_555 1_555
O1 C1 1_555 1_555
O2 C1 1_555 1_555
O3 C7 1_555 1_555
O4 Mn1 1_555 1_555
O5 C10 1_555 1_555
O6 C10 1_555 1_555
N1 C4 1_555 1_555
C1 C2 1_555 1_555
C2 C3 1_555 1_555
C3 H1 1_555 1_555
C4 C3 1_555 1_555
H2 C4 1_555 1_555
C5 N1 1_555 1_555
H3 C5 1_555 1_555
C6 C2 1_555 1_555
H4 C6 1_555 1_555
C7 O4 1_555 1_555
C8 C7 1_555 1_555
H5 C8 1_555 1_555
H6 C8 1_555 1_555
C9 C8 1_555 1_555
H7 C9 1_555 1_555
H8 C9 1_555 1_555
C10 C9 1_555 1_555
Mn1_2 O6 1_555 1_555
Mn1_3 O6A 1_555 1_555
Mn2A O4 1_555 1_555
Mn2_2 O3 1_555 1_555
Mn2A_2 O5 1_555 1_555
Mn2_3 N1 1_555 1_555
Mn2A_3 N1A 1_555 1_555
Mn2A_4 O3A 1_555 1_555
Mn2_4 O5A 1_555 1_555
O1A Mn1 1_555 1_555
O2A Mn2A 1_555 1_555
O3A C7A 1_555 1_555
O3_2 Mn2 1_555 1_555
O3A_2 Mn2A 1_555 1_555
O4A Mn1 1_555 1_555
O5A Mn2A_4 1_555 1_555
O5_2 Mn2 1_555 1_555
O5A_2 Mn2 1_555 1_555
O5_3 Mn2A 1_555 1_555
O5A_3 Mn2A 1_555 1_555
O6A C10A 1_555 1_555
O6_2 Mn1 1_555 1_555
O6A_2 Mn1 1_555 1_555
N1A C4A 1_555 1_555
N1_2 Mn2 1_555 1_555
N1A_2 Mn2A 1_555 1_555
C1A O1A 1_555 1_555
C2A C1A 1_555 1_555
C3A C2A 1_555 1_555
H1A C3A 1_555 1_555
C4A C3A 1_555 1_555
H2A C4A 1_555 1_555
C5A N1A 1_555 1_555
H3A C5A 1_555 1_555
C6A C2A 1_555 1_555
H4A C6A 1_555 1_555
C7A O4A 1_555 1_555
C8A C7A 1_555 1_555
H5A C8A 1_555 1_555
H6A C8A 1_555 1_555
C9A C8A 1_555 1_555
H7A C9A 1_555 1_555
H8A C9A 1_555 1_555
C10A O5A 1_555 1_555
Mn2 O4A 1_555 1_555
O5 Mn2_2 1_555 1_555
C5 C6 1_555 1_555
O2A C1A 1_555 1_555
C5A C6A 1_555 1_555
C9A C10A 1_555 1_555

#END
