
#######################################################################
#
#                 Cambridge Crystallographic Data Centre
#                                CCDC 
#
#######################################################################
#
# If this CIF has been generated from an entry in the Cambridge 
# Structural Database, then it will include bibliographic, chemical, 
# crystal, experimental, refinement or atomic coordinate data resulting 
# from the CCDC's data processing and validation procedures.
#
#######################################################################

data_VIMXIZ
_symmetry_cell_setting           triclinic
_symmetry_space_group_name_H-M   'P -1'
_symmetry_Int_Tables_number      2
_space_group_name_Hall           '-P 1'
loop_
_symmetry_equiv_pos_site_id
_symmetry_equiv_pos_as_xyz
1 x,y,z
2 -x,-y,-z
_cell_length_a                   6.9022(19)
_cell_length_b                   9.625(3)
_cell_length_c                   9.699(3)
_cell_angle_alpha                77.193(7)
_cell_angle_beta                 78.779(5)
_cell_angle_gamma                87.223(8)
_cell_volume                     616.29
loop_
_atom_site_label
_atom_site_type_symbol
_atom_site_fract_x
_atom_site_fract_y
_atom_site_fract_z
Ni1 Ni 1.0000 0.0000 0.5000
Ni2 Ni 0.79526(12) 0.05562(8) 1.04294(9)
P1 P 0.9710(2) 0.20035(16) 0.73356(18)
P2 P 0.6490(2) -0.02142(16) 0.78854(18)
O1 O 1.0564(6) 0.1649(4) 0.5886(4)
O2 O 1.2099(6) -0.1202(4) 0.6060(4)
H1 H 1.3325 -0.1053 0.5733
H2 H 1.1365 -0.1335 0.5508
O3 O 1.0248(6) 0.0919(4) 0.8642(5)
O4 O 0.9244(6) 0.2160(4) 1.1089(5)
H3 H 0.8346 0.2180 1.1813
H4 H 1.0147 0.1936 1.1571
O5 O 1.0134(6) 0.3525(4) 0.7344(4)
O7 O 0.7794(6) -0.0778(4) 0.6694(4)
O8 O 0.6951(6) -0.0900(5) 0.9397(5)
O9 O 0.4295(6) -0.0336(4) 0.7882(4)
O10 O 0.6334(6) 0.2029(4) 0.9107(4)
H7 H 0.5104 0.1897 0.9384
N1 N 0.5950(7) 0.4157(5) 0.6534(5)
N2 N 0.6980(8) 0.6320(6) 0.5933(6)
H8 H 0.7665 0.7069 0.5503
C1 C 0.7255(9) 0.5048(6) 0.5593(7)
H9 H 0.8183 0.4821 0.4841
C2 C 0.5455(9) 0.6253(7) 0.7057(7)
H10 H 0.4947 0.7007 0.7476
C3 C 0.4797(9) 0.4886(6) 0.7468(7)
H11 H 0.3779 0.4520 0.8224
C4 C 0.5848(9) 0.2606(6) 0.6626(7)
H12 H 0.6365 0.2413 0.5683
H13 H 0.4475 0.2317 0.6892
C5 C 0.6984(9) 0.1717(6) 0.7702(7)
Ni2A Ni 1.20474(12) -0.05562(8) -0.04294(9)
Ni2A_2 Ni 1.20474(12) -0.05562(8) 0.95706(9)
Ni2A_3 Ni 0.20474(12) -0.05562(8) 0.95706(9)
Ni2_2 Ni 0.79526(12) 0.05562(8) 0.04294(9)
Ni2_3 Ni 1.79526(12) 0.05562(8) 0.04294(9)
P1A P 1.0290(2) -0.20035(16) 0.26644(18)
P2A P 1.3510(2) 0.02142(16) 0.21146(18)
O1A O 0.9436(6) -0.1649(4) 0.4114(4)
O2A O 0.7901(6) 0.1202(4) 0.3940(4)
H1A H 0.6675 0.1053 0.4267
H2A H 0.8635 0.1335 0.4492
O3A O 0.9752(6) -0.0919(4) 0.1358(5)
O3A_2 O 0.9752(6) -0.0919(4) 1.1358(5)
O3_2 O 1.0248(6) 0.0919(4) -0.1358(5)
O4A O 1.0756(6) -0.2160(4) -0.1089(5)
H3A H 1.1654 -0.2180 -0.1813
H4A H 0.9853 -0.1936 -0.1571
O5A O 0.9866(6) -0.3525(4) 0.2656(4)
O7A O 1.2206(6) 0.0778(4) 0.3306(4)
O8A O 1.3049(6) 0.0900(5) 0.0603(5)
O9A O 1.5705(6) 0.0336(4) 0.2118(4)
O9A_2 O 0.5705(6) 0.0336(4) 1.2118(4)
O9_2 O 1.4295(6) -0.0336(4) -0.2118(4)
O10A O 1.3666(6) -0.2029(4) 0.0893(4)
H7A H 1.4896 -0.1897 0.0616
N1A N 1.4050(7) -0.4157(5) 0.3466(5)
N2A N 1.3020(8) -0.6320(6) 0.4067(6)
H8A H 1.2335 -0.7069 0.4497
C1A C 1.2745(9) -0.5048(6) 0.4407(7)
H9A H 1.1817 -0.4821 0.5159
C2A C 1.4545(9) -0.6253(7) 0.2943(7)
H10A H 1.5053 -0.7007 0.2524
C3A C 1.5203(9) -0.4886(6) 0.2532(7)
H11A H 1.6221 -0.4520 0.1776
C4A C 1.4152(9) -0.2606(6) 0.3374(7)
H12A H 1.3635 -0.2413 0.4317
H13A H 1.5525 -0.2317 0.3108
C5A C 1.3016(9) -0.1717(6) 0.2298(7)
O6 O 0.8445(6) 0.4755(5) 0.9529(5)
H5 H 0.9016 0.4382 0.8844
H6 H 0.8741 0.4288 1.0305
loop_
_geom_bond_atom_site_label_1
_geom_bond_atom_site_label_2
_geom_bond_site_symmetry_1
_geom_bond_site_symmetry_2
Ni1 O1 1_555 1_555
Ni2 O3 1_555 1_555
P1 O1 1_555 1_555
P2 O7 1_555 1_555
O2 Ni1 1_555 1_555
H1 O2 1_555 1_555
H2 O2 1_555 1_555
O3 P1 1_555 1_555
O4 Ni2 1_555 1_555
H3 O4 1_555 1_555
H4 O4 1_555 1_555
O5 P1 1_555 1_555
O6 H5 1_555 1_555
H6 O6 1_555 1_555
O7 Ni1 1_555 1_555
O8 Ni2 1_555 1_555
O9 P2 1_555 1_555
O10 Ni2 1_555 1_555
H7 O10 1_555 1_555
N1 C1 1_555 1_555
N2 H8 1_555 1_555
C1 N2 1_555 1_555
H9 C1 1_555 1_555
C2 N2 1_555 1_555
H10 C2 1_555 1_555
C3 N1 1_555 1_555
H11 C3 1_555 1_555
C4 N1 1_555 1_555
H12 C4 1_555 1_555
H13 C4 1_555 1_555
C5 P1 1_555 1_555
Ni2A O3A 1_555 1_555
Ni2A_2 O3 1_555 1_555
Ni2A_3 O9 1_555 1_555
Ni2_2 O3A 1_555 1_555
Ni2_3 O9A 1_555 1_555
P1A O1A 1_555 1_555
P2A O7A 1_555 1_555
O1A Ni1 1_555 1_555
O2A Ni1 1_555 1_555
H1A O2A 1_555 1_555
H2A O2A 1_555 1_555
O3A P1A 1_555 1_555
O3A_2 Ni2 1_555 1_555
O3_2 Ni2A 1_555 1_555
O4A Ni2A 1_555 1_555
H3A O4A 1_555 1_555
H4A O4A 1_555 1_555
O5A P1A 1_555 1_555
O7A Ni1 1_555 1_555
O8A Ni2A 1_555 1_555
O9A P2A 1_555 1_555
O9A_2 Ni2 1_555 1_555
O9_2 Ni2A 1_555 1_555
O10A Ni2A 1_555 1_555
H7A O10A 1_555 1_555
N1A C1A 1_555 1_555
N2A H8A 1_555 1_555
C1A N2A 1_555 1_555
H9A C1A 1_555 1_555
C2A N2A 1_555 1_555
H10A C2A 1_555 1_555
C3A N1A 1_555 1_555
H11A C3A 1_555 1_555
C4A N1A 1_555 1_555
H12A C4A 1_555 1_555
H13A C4A 1_555 1_555
C5A P1A 1_555 1_555
P2 O8 1_555 1_555
P2 C5 1_555 1_555
O10 C5 1_555 1_555
C2 C3 1_555 1_555
C4 C5 1_555 1_555
Ni2A_2 O3A_2 1_555 1_555
Ni2_2 O3_2 1_555 1_555
P2A O8A 1_555 1_555
P2A C5A 1_555 1_555
O10A C5A 1_555 1_555
C2A C3A 1_555 1_555
C4A C5A 1_555 1_555

#END
