
#######################################################################
#
#                 Cambridge Crystallographic Data Centre
#                                CCDC 
#
#######################################################################
#
# If this CIF has been generated from an entry in the Cambridge 
# Structural Database, then it will include bibliographic, chemical, 
# crystal, experimental, refinement or atomic coordinate data resulting 
# from the CCDC's data processing and validation procedures.
#
#######################################################################

data_VINBAV11
_symmetry_cell_setting           monoclinic
_symmetry_space_group_name_H-M   'C 2/c'
_symmetry_Int_Tables_number      15
_space_group_name_Hall           '-C 2yn'
loop_
_symmetry_equiv_pos_site_id
_symmetry_equiv_pos_as_xyz
1 x,y,z
2 x,-y,1/2+z
3 1/2+x,1/2+y,z
4 1/2+x,1/2-y,1/2+z
5 -x,-y,-z
6 -x,y,1/2-z
7 1/2-x,1/2-y,-z
8 1/2-x,1/2+y,1/2-z
_cell_length_a                   23.20
_cell_length_b                   8.472
_cell_length_c                   14.801
_cell_angle_alpha                90
_cell_angle_beta                 118.41
_cell_angle_gamma                90
_cell_volume                     2558.78
loop_
_atom_site_label
_atom_site_type_symbol
_atom_site_fract_x
_atom_site_fract_y
_atom_site_fract_z
Mo1 Mo 0.2910 0.2820 0.0696
O1 O 0.2284 0.3876 0.1214
O2 O 0.1424 0.3179 -0.0254
O3 O 0.2978 0.5038 0.0104
O4 O 0.2110 0.4376 -0.1362
N1 N 0.3770 0.3685 0.2554
C1 C 0.1673 0.3859 0.0612
C2 C 0.1219 0.4659 0.0948
C3 C 0.2542 0.5365 -0.0802
C4 C 0.2526 0.7008 -0.1228
C5 C 0.3636 0.4720 0.3115
C6 C 0.4100 0.5238 0.4075
C7 C 0.4740 0.4713 0.4492
C8 C 0.4876 0.3589 0.3927
C9 C 0.4379 0.3111 0.2981
C7D C 0.5260 0.5287 0.5508
C6D C 0.5900 0.4762 0.5925
C5D C 0.6364 0.5280 0.6885
N1D N 0.6230 0.6315 0.7446
C9D C 0.5621 0.6889 0.7019
C8D C 0.5124 0.6411 0.6073
O1F O 0.2716 0.1124 -0.1214
O2F O 0.3576 0.1821 0.0254
C1F C 0.3327 0.1141 -0.0612
C2F C 0.3781 0.0341 -0.0948
O3F O 0.2022 -0.0038 -0.0104
O4F O 0.2890 0.0624 0.1362
C3F C 0.2458 -0.0365 0.0802
C4F C 0.2474 -0.2008 0.1228
Mo1F Mo 0.2090 0.2180 -0.0696
Mo1D Mo 0.7090 0.7180 0.9304
N1F N 0.1230 0.1315 -0.2554
loop_
_geom_bond_atom_site_label_1
_geom_bond_atom_site_label_2
_geom_bond_site_symmetry_1
_geom_bond_site_symmetry_2
Mo1 O1 1_555 1_555
O1 C1 1_555 1_555
O2 C1 1_555 1_555
O3 Mo1 1_555 1_555
O4 C3 1_555 1_555
N1 Mo1 1_555 1_555
C1 C2 1_555 1_555
C3 O3 1_555 1_555
C4 C3 1_555 1_555
C5 N1 1_555 1_555
C6 C5 1_555 1_555
C7 C6 1_555 1_555
C8 C7 1_555 1_555
C9 N1 1_555 1_555
C7D C7 1_555 1_555
C6D C7D 1_555 1_555
C5D C6D 1_555 1_555
N1D C5D 1_555 1_555
C9D N1D 1_555 1_555
C8D C7D 1_555 1_555
O1F C1F 1_555 1_555
O2F Mo1 1_555 1_555
C1F O2F 1_555 1_555
C2F C1F 1_555 1_555
O3F C3F 1_555 1_555
O4F Mo1 1_555 1_555
C3F O4F 1_555 1_555
C4F C3F 1_555 1_555
Mo1F Mo1 1_555 1_555
Mo1D N1D 1_555 1_555
N1F Mo1F 1_555 1_555
O2 Mo1F 1_555 1_555
O4 Mo1F 1_555 1_555
C8 C9 1_555 1_555
C9D C8D 1_555 1_555
O1F Mo1F 1_555 1_555
O3F Mo1F 1_555 1_555

#END
