
#######################################################################
#
#                 Cambridge Crystallographic Data Centre
#                                CCDC 
#
#######################################################################
#
# If this CIF has been generated from an entry in the Cambridge 
# Structural Database, then it will include bibliographic, chemical, 
# crystal, experimental, refinement or atomic coordinate data resulting 
# from the CCDC's data processing and validation procedures.
#
#######################################################################

data_VINBEB
_symmetry_cell_setting           triclinic
_symmetry_space_group_name_H-M   'P -1'
_symmetry_Int_Tables_number      2
_space_group_name_Hall           '-P 1'
loop_
_symmetry_equiv_pos_site_id
_symmetry_equiv_pos_as_xyz
1 x,y,z
2 -x,-y,-z
_cell_length_a                   10.733(2)
_cell_length_b                   13.380(3)
_cell_length_c                   17.141(3)
_cell_angle_alpha                100.06(3)
_cell_angle_beta                 96.15(3)
_cell_angle_gamma                112.15(3)
_cell_volume                     2204.1
loop_
_atom_site_label
_atom_site_type_symbol
_atom_site_fract_x
_atom_site_fract_y
_atom_site_fract_z
W1 W 0.61973(8) 0.93966(7) 0.70700(5)
Co1 Co 0.2848(3) 0.7151(2) 0.42608(17)
O1 O 0.0969(11) 0.6226(9) 0.3418(7)
N1 N 0.4584(13) 0.8123(11) 0.5208(9)
C1 C 0.5187(16) 0.8616(14) 0.5850(11)
Co2 Co 0.5000 1.0000 1.0000
O2 O 0.418(3) 0.828(2) 0.9942(17)
N2 N 0.567(2) 0.970(2) 0.8928(12)
C2 C 0.588(2) 0.9602(17) 0.8232(15)
O3 O 0.689(3) 1.019(3) 1.0644(12)
N3 N 0.3730(17) 0.7052(16) 0.7132(11)
C3 C 0.459(2) 0.7887(15) 0.7107(11)
N4 N 0.7685(18) 0.7838(18) 0.7633(15)
C4 C 0.718(2) 0.8378(17) 0.7491(17)
N5 N 0.893(2) 1.1393(18) 0.8251(11)
C5 C 0.803(2) 1.071(2) 0.7836(13)
N6 N 0.6756(14) 1.1593(12) 0.6282(10)
C6 C 0.6533(16) 1.0827(16) 0.6537(11)
N7 N 0.8563(19) 0.9652(14) 0.5976(11)
C7 C 0.773(2) 0.9504(17) 0.6370(11)
N8 N 0.3506(19) 1.0044(14) 0.7062(10)
C8 C 0.4388(19) 0.9780(14) 0.7050(11)
N9 N 0.3843(14) 0.6249(12) 0.3598(9)
C9 C 0.4425(18) 0.6480(17) 0.2988(12)
H1 H 0.4450 0.7124 0.2816
N10 N 0.2549(14) 0.5810(11) 0.4755(9)
C10 C 0.502(2) 0.584(2) 0.2567(12)
H2 H 0.5415 0.6036 0.2118
N11 N 0.1626(13) 0.7306(12) 0.5164(9)
C11 C 0.501(2) 0.4924(17) 0.2810(13)
H3 H 0.5428 0.4487 0.2538
N12 N 0.2968(13) 0.4258(12) 0.4823(9)
C12 C 0.437(2) 0.4611(17) 0.3497(11)
H4 H 0.4346 0.3986 0.3694
N13 N 0.1643(12) 0.4815(12) 0.5689(8)
C13 C 0.3794(17) 0.5302(16) 0.3824(11)
N14 N 0.1242(15) 0.3044(13) 0.6373(10)
C14 C 0.3107(16) 0.5106(15) 0.4510(12)
C15 C 0.1856(18) 0.5664(15) 0.5350(11)
C16 C 0.1326(16) 0.6543(15) 0.5605(11)
C17 C 0.0552(16) 0.6509(15) 0.6201(11)
H5 H 0.0368 0.5937 0.6487
C18 C 0.0048(17) 0.7309(16) 0.6376(13)
H6 H -0.0518 0.7297 0.6767
C19 C 0.042(2) 0.8149(16) 0.5943(15)
H7 H 0.0151 0.8750 0.6063
C20 C 0.1164(18) 0.8101(15) 0.5353(12)
H8 H 0.1366 0.8663 0.5058
C21 C 0.2274(18) 0.4153(14) 0.5424(12)
C22 C 0.2034(16) 0.3173(14) 0.5813(11)
C23 C 0.2716(17) 0.2454(15) 0.5571(11)
H9 H 0.3260 0.2548 0.5166
C24 C 0.250(2) 0.1597(16) 0.5992(13)
H10 H 0.2931 0.1098 0.5872
C25 C 0.171(2) 0.1470(16) 0.6558(12)
H11 H 0.1594 0.0897 0.6837
C26 C 0.1060(19) 0.2179(17) 0.6730(12)
H12 H 0.0467 0.2058 0.7109
W1A W 0.38027(8) 1.06034(7) 0.29300(5)
Co1A Co 0.7152(3) 1.2849(2) 0.57392(17)
O1A O 0.9031(11) 1.3774(9) 0.6582(7)
N1A N 0.5416(13) 1.1877(11) 0.4792(9)
C1A C 0.4813(16) 1.1384(14) 0.4150(11)
N2A N 0.433(2) 1.030(2) 0.1072(12)
C2A C 0.412(2) 1.0398(17) 0.1768(15)
N3A N 0.6270(17) 1.2948(16) 0.2868(11)
C3A C 0.541(2) 1.2113(15) 0.2893(11)
N4A N 0.2315(18) 1.2162(18) 0.2367(15)
C4A C 0.282(2) 1.1622(17) 0.2509(17)
N5A N 0.107(2) 0.8607(18) 0.1749(11)
C5A C 0.197(2) 0.929(2) 0.2164(13)
N6A N 0.3244(14) 0.8407(12) 0.3718(10)
C6A C 0.3467(16) 0.9173(16) 0.3463(11)
N7A N 0.1437(19) 1.0348(14) 0.4024(11)
C7A C 0.227(2) 1.0496(17) 0.3630(11)
N8A N 0.6494(19) 0.9956(14) 0.2938(10)
C8A C 0.5612(19) 1.0220(14) 0.2950(11)
N9A N 0.6157(14) 1.3751(12) 0.6402(9)
C9A C 0.5575(18) 1.3520(17) 0.7012(12)
H1A H 0.5550 1.2876 0.7184
N10A N 0.7451(14) 1.4190(11) 0.5245(9)
C10A C 0.498(2) 1.416(2) 0.7433(12)
H2A H 0.4585 1.3964 0.7882
N11A N 0.8374(13) 1.2694(12) 0.4836(9)
C11A C 0.499(2) 1.5076(17) 0.7190(13)
H3A H 0.4572 1.5513 0.7462
N12A N 0.7032(13) 1.5742(12) 0.5177(9)
C12A C 0.563(2) 1.5389(17) 0.6503(11)
H4A H 0.5654 1.6014 0.6306
N13A N 0.8357(12) 1.5185(12) 0.4311(8)
C13A C 0.6206(17) 1.4698(16) 0.6176(11)
N14A N 0.8758(15) 1.6956(13) 0.3627(10)
C14A C 0.6893(16) 1.4894(15) 0.5490(12)
C15A C 0.8144(18) 1.4336(15) 0.4650(11)
C16A C 0.8674(16) 1.3457(15) 0.4395(11)
C17A C 0.9448(16) 1.3491(15) 0.3799(11)
H5A H 0.9632 1.4063 0.3513
C18A C 0.9952(17) 1.2691(16) 0.3624(13)
H6A H 1.0518 1.2703 0.3233
C19A C 0.958(2) 1.1851(16) 0.4057(15)
H7A H 0.9849 1.1250 0.3937
C20A C 0.8836(18) 1.1899(15) 0.4647(12)
H8A H 0.8634 1.1337 0.4942
C21A C 0.7726(18) 1.5847(14) 0.4576(12)
C22A C 0.7966(16) 1.6827(14) 0.4187(11)
C23A C 0.7284(17) 1.7546(15) 0.4429(11)
H9A H 0.6740 1.7452 0.4834
C24A C 0.750(2) 1.8403(16) 0.4008(13)
H10A H 0.7069 1.8902 0.4128
C25A C 0.829(2) 1.8530(16) 0.3442(12)
H11A H 0.8406 1.9103 0.3163
C26A C 0.8940(19) 1.7821(17) 0.3270(12)
H12A H 0.9533 1.7942 0.2891
O2A O 0.582(3) 1.172(2) 1.0058(17)
O3A O 0.311(3) 0.981(3) 0.9356(12)
Co2_2 Co 0.5000 1.0000 0.0000
N2A_2 N 0.433(2) 1.030(2) 1.1072(12)
O4 O 0.889(3) 1.018(4) 1.1577(19)
loop_
_geom_bond_atom_site_label_1
_geom_bond_atom_site_label_2
_geom_bond_site_symmetry_1
_geom_bond_site_symmetry_2
W1 C1 1_555 1_555
Co1 O1 1_555 1_555
N1 Co1 1_555 1_555
C1 N1 1_555 1_555
Co2 O2 1_555 1_555
N2 Co2 1_555 1_555
C2 W1 1_555 1_555
O3 Co2 1_555 1_555
N3 C3 1_555 1_555
C3 W1 1_555 1_555
N4 C4 1_555 1_555
C4 W1 1_555 1_555
N5 C5 1_555 1_555
C5 W1 1_555 1_555
N6 C6 1_555 1_555
C6 W1 1_555 1_555
N7 C7 1_555 1_555
C7 W1 1_555 1_555
N8 C8 1_555 1_555
C8 W1 1_555 1_555
N9 Co1 1_555 1_555
C9 N9 1_555 1_555
H1 C9 1_555 1_555
N10 Co1 1_555 1_555
C10 C9 1_555 1_555
H2 C10 1_555 1_555
N11 Co1 1_555 1_555
C11 C10 1_555 1_555
H3 C11 1_555 1_555
N12 C14 1_555 1_555
C12 C11 1_555 1_555
H4 C12 1_555 1_555
N13 C15 1_555 1_555
C13 N9 1_555 1_555
N14 C22 1_555 1_555
C14 N10 1_555 1_555
C15 N10 1_555 1_555
C16 N11 1_555 1_555
C17 C16 1_555 1_555
H5 C17 1_555 1_555
C18 C17 1_555 1_555
H6 C18 1_555 1_555
C19 C18 1_555 1_555
H7 C19 1_555 1_555
C20 N11 1_555 1_555
H8 C20 1_555 1_555
C21 N12 1_555 1_555
C22 C21 1_555 1_555
C23 C22 1_555 1_555
H9 C23 1_555 1_555
C24 C23 1_555 1_555
H10 C24 1_555 1_555
C25 C24 1_555 1_555
H11 C25 1_555 1_555
C26 N14 1_555 1_555
H12 C26 1_555 1_555
W1A C1A 1_555 1_555
Co1A N6 1_555 1_555
O1A Co1A 1_555 1_555
N1A Co1A 1_555 1_555
C1A N1A 1_555 1_555
N2A C2A 1_555 1_555
C2A W1A 1_555 1_555
N3A C3A 1_555 1_555
C3A W1A 1_555 1_555
N4A C4A 1_555 1_555
C4A W1A 1_555 1_555
N5A C5A 1_555 1_555
C5A W1A 1_555 1_555
N6A Co1 1_555 1_555
C6A W1A 1_555 1_555
N7A C7A 1_555 1_555
C7A W1A 1_555 1_555
N8A C8A 1_555 1_555
C8A W1A 1_555 1_555
N9A Co1A 1_555 1_555
C9A N9A 1_555 1_555
H1A C9A 1_555 1_555
N10A Co1A 1_555 1_555
C10A C9A 1_555 1_555
H2A C10A 1_555 1_555
N11A Co1A 1_555 1_555
C11A C10A 1_555 1_555
H3A C11A 1_555 1_555
N12A C14A 1_555 1_555
C12A C11A 1_555 1_555
H4A C12A 1_555 1_555
N13A C15A 1_555 1_555
C13A N9A 1_555 1_555
N14A C22A 1_555 1_555
C14A N10A 1_555 1_555
C15A N10A 1_555 1_555
C16A N11A 1_555 1_555
C17A C16A 1_555 1_555
H5A C17A 1_555 1_555
C18A C17A 1_555 1_555
H6A C18A 1_555 1_555
C19A C18A 1_555 1_555
H7A C19A 1_555 1_555
C20A N11A 1_555 1_555
H8A C20A 1_555 1_555
C21A N12A 1_555 1_555
C22A C21A 1_555 1_555
C23A C22A 1_555 1_555
H9A C23A 1_555 1_555
C24A C23A 1_555 1_555
H10A C24A 1_555 1_555
C25A C24A 1_555 1_555
H11A C25A 1_555 1_555
C26A N14A 1_555 1_555
H12A C26A 1_555 1_555
O2A Co2 1_555 1_555
O3A Co2 1_555 1_555
Co2_2 N2A 1_555 1_555
N2A_2 Co2 1_555 1_555
N2 C2 1_555 1_555
C12 C13 1_555 1_555
N13 C21 1_555 1_555
C13 C14 1_555 1_555
C15 C16 1_555 1_555
C19 C20 1_555 1_555
C25 C26 1_555 1_555
N6A C6A 1_555 1_555
C12A C13A 1_555 1_555
N13A C21A 1_555 1_555
C13A C14A 1_555 1_555
C15A C16A 1_555 1_555
C19A C20A 1_555 1_555
C25A C26A 1_555 1_555

#END
