
#######################################################################
#
#                 Cambridge Crystallographic Data Centre
#                                CCDC 
#
#######################################################################
#
# If this CIF has been generated from an entry in the Cambridge 
# Structural Database, then it will include bibliographic, chemical, 
# crystal, experimental, refinement or atomic coordinate data resulting 
# from the CCDC's data processing and validation procedures.
#
#######################################################################

data_VINBAW
_symmetry_cell_setting           triclinic
_symmetry_space_group_name_H-M   'P -1'
_symmetry_Int_Tables_number      2
_space_group_name_Hall           '-P 1'
loop_
_symmetry_equiv_pos_site_id
_symmetry_equiv_pos_as_xyz
1 x,y,z
2 -x,-y,-z
_cell_length_a                   12.9200(12)
_cell_length_b                   13.9061(12)
_cell_length_c                   16.0531(14)
_cell_angle_alpha                93.852(2)
_cell_angle_beta                 94.519(2)
_cell_angle_gamma                96.530(2)
_cell_volume                     2848.14
loop_
_atom_site_label
_atom_site_type_symbol
_atom_site_fract_x
_atom_site_fract_y
_atom_site_fract_z
Mn1 Mn 0.5000 1.0000 0.0000
Mn2 Mn 0.0000 0.5000 0.5000
N1 N 0.3607(4) 1.0520(3) -0.0038(3)
C1 C 0.2681(4) 1.0100(4) -0.0487(3)
C2 C 0.1874(5) 1.0677(5) -0.0331(4)
H1 H 0.1170 1.0553 -0.0567
C3 C 0.2285(5) 1.1444(5) 0.0219(4)
H2 H 0.1925 1.1950 0.0438
C4 C 0.3364(5) 1.1333(4) 0.0398(4)
C5 C 0.2546(4) 0.9236(4) -0.0989(3)
C6 C 0.1504(2) 0.8923(3) -0.1465(2)
C7 C 0.0840(3) 0.8158(3) -0.1214(2)
H3 H 0.1040 0.7841 -0.0731
C8 C -0.0115(3) 0.7858(3) -0.1669(3)
H4 H -0.0569 0.7336 -0.1497
C9 C -0.0408(2) 0.8323(3) -0.2375(2)
H5 H -0.1061 0.8118 -0.2686
C10 C 0.0256(3) 0.9087(3) -0.2626(2)
H6 H 0.0056 0.9405 -0.3109
C11 C 0.1211(3) 0.9387(3) -0.2171(2)
H7 H 0.1665 0.9910 -0.2343
C12 C 0.4054(5) 1.1973(4) 0.0942(4)
C13 C 0.3633(5) 1.2779(5) 0.1425(4)
C14 C 0.3530(9) 1.3652(6) 0.1107(5)
H8 H 0.3691 1.3747 0.0549
C15 C 0.3191(8) 1.4403(7) 0.1589(6)
H9 H 0.3137 1.5012 0.1364
C16 C 0.2937(6) 1.4265(6) 0.2386(5)
H10 H 0.2683 1.4771 0.2709
C17 C 0.3049(6) 1.3406(6) 0.2715(5)
H11 H 0.2892 1.3317 0.3275
C18 C 0.3392(5) 1.2656(5) 0.2237(5)
H12 H 0.3462 1.2053 0.2470
C19 C 0.5113(5) 1.1881(4) 0.1089(4)
C20 C 0.5823(5) 1.2540(4) 0.1649(4)
H13 H 0.5660 1.3102 0.1957
C21 C 0.6775(5) 1.2207(4) 0.1655(4)
H14 H 0.7400 1.2498 0.1968
C22 C 0.3336(4) 0.8655(4) -0.1108(4)
N2 N 0.5635(3) 1.1166(3) 0.0748(3)
N3 N 0.4581(4) 0.9210(3) 0.1211(3)
C23 C 0.4991(5) 0.9583(4) 0.1976(4)
H15 H 0.5513 1.0127 0.2022
C24 C 0.4671(5) 0.9196(5) 0.2701(4)
H16 H 0.4977 0.9473 0.3233
C25 C 0.3908(5) 0.8408(4) 0.2649(4)
H17 H 0.3671 0.8146 0.3142
C26 C 0.3497(4) 0.8011(4) 0.1864(4)
C27 C 0.3856(4) 0.8443(4) 0.1163(4)
H18 H 0.3567 0.8175 0.0624
N4 N 0.2740(4) 0.7211(3) 0.1701(3)
H19 H 0.2597 0.6984 0.1175
C28 C 0.2190(4) 0.6741(4) 0.2295(4)
O1 O 0.2409(3) 0.6890(3) 0.3053(3)
N5 N 0.1417(4) 0.6060(3) 0.1933(3)
H20 H 0.1376 0.5972 0.1383
C29 C 0.0686(4) 0.5490(4) 0.2333(3)
C30 C 0.0694(5) 0.5472(4) 0.3198(4)
H21 H 0.1226 0.5871 0.3545
N6 N -0.0033(4) 0.4902(3) 0.3558(3)
C31 C -0.0792(5) 0.4346(4) 0.3066(4)
H22 H -0.1304 0.3944 0.3319
C32 C -0.0849(5) 0.4342(4) 0.2212(4)
H23 H -0.1404 0.3953 0.1880
C33 C -0.0102(5) 0.4902(4) 0.1835(4)
H24 H -0.0123 0.4888 0.1242
N7 N 0.0442(4) 0.6438(3) 0.5029(3)
C34 C 0.1452(4) 0.6901(4) 0.5108(4)
C35 C 0.0425(5) 0.8071(4) 0.4924(4)
H25 H 0.0175 0.8680 0.4858
C36 C -0.0204(4) 0.7151(4) 0.4913(4)
C37 C -0.1294(4) 0.7000(4) 0.4796(4)
C38 C -0.1851(3) 0.7865(2) 0.4585(2)
C39 C -0.1883(3) 0.8638(3) 0.51741(18)
H26 H -0.1597 0.8610 0.5734
C40 C -0.2335(3) 0.9452(2) 0.4944(2)
H27 H -0.2357 0.9981 0.5346
C41 C -0.2755(3) 0.9493(2) 0.4124(2)
H28 H -0.3063 1.0050 0.3967
C42 C -0.2723(3) 0.8720(3) 0.35353(19)
H29 H -0.3010 0.8748 0.2975
C43 C -0.2271(3) 0.7906(2) 0.3766(2)
H30 H -0.2249 0.7377 0.3363
C44 C -0.1895(4) 0.6113(4) 0.4811(4)
C45 C -0.3023(5) 0.5974(4) 0.4760(4)
H31 H -0.3474 0.6467 0.4724
C46 C -0.3316(5) 0.5011(4) 0.4772(4)
H32 H -0.4013 0.4700 0.4740
C47 C -0.2383(4) 0.4541(4) 0.4843(4)
N8 N -0.1512(4) 0.5224(3) 0.4896(3)
C48 C 0.2361(4) 0.6455(4) 0.5181(4)
C49 C 0.3378(2) 0.7115(3) 0.5331(2)
C50 C 0.4071(3) 0.7222(3) 0.47145(19)
H33 H 0.3909 0.6875 0.4182
C51 C 0.5001(3) 0.7839(3) 0.4878(2)
H34 H 0.5474 0.7912 0.4456
C52 C 0.5238(2) 0.8347(3) 0.5658(3)
H35 H 0.5873 0.8768 0.5769
C53 C 0.4545(3) 0.8239(3) 0.6274(2)
H36 H 0.4707 0.8587 0.6807
C54 C 0.3615(3) 0.7623(3) 0.6111(2)
H37 H 0.3142 0.7549 0.6532
C67 C 0.1426(5) 0.7919(4) 0.5044(4)
H48 H 0.2014 0.8401 0.5080
Mn2_2 Mn 1.0000 1.5000 -0.5000
N1A N 0.6393(4) 0.9480(3) 0.0038(3)
C1A C 0.7319(4) 0.9900(4) 0.0487(3)
C2A C 0.8126(5) 0.9323(5) 0.0331(4)
H1A H 0.8830 0.9447 0.0567
C3A C 0.7715(5) 0.8556(5) -0.0219(4)
H2A H 0.8075 0.8050 -0.0438
C4A C 0.6636(5) 0.8667(4) -0.0398(4)
C5A C 0.7454(4) 1.0764(4) 0.0989(3)
C6A C 0.8496(2) 1.1077(3) 0.1465(2)
C7A C 0.9160(3) 1.1842(3) 0.1214(2)
H3A H 0.8960 1.2159 0.0731
C8A C 1.0115(3) 1.2142(3) 0.1669(3)
H4A H 1.0569 1.2664 0.1497
C9A C 1.0408(2) 1.1677(3) 0.2375(2)
H5A H 1.1061 1.1882 0.2686
C10A C 0.9744(3) 1.0913(3) 0.2626(2)
H6A H 0.9944 1.0595 0.3109
C11A C 0.8789(3) 1.0613(3) 0.2171(2)
H7A H 0.8335 1.0090 0.2343
C12A C 0.5946(5) 0.8027(4) -0.0942(4)
C13A C 0.6367(5) 0.7221(5) -0.1425(4)
C14A C 0.6470(9) 0.6348(6) -0.1107(5)
H8A H 0.6309 0.6253 -0.0549
C15A C 0.6809(8) 0.5597(7) -0.1589(6)
H9A H 0.6863 0.4988 -0.1364
C16A C 0.7063(6) 0.5735(6) -0.2386(5)
H10A H 0.7317 0.5229 -0.2709
C17A C 0.6951(6) 0.6594(6) -0.2715(5)
H11A H 0.7108 0.6683 -0.3275
C18A C 0.6608(5) 0.7344(5) -0.2237(5)
H12A H 0.6538 0.7947 -0.2470
C19A C 0.4887(5) 0.8119(4) -0.1089(4)
C20A C 0.4177(5) 0.7460(4) -0.1649(4)
H13A H 0.4340 0.6898 -0.1957
C21A C 0.3225(5) 0.7793(4) -0.1655(4)
H14A H 0.2600 0.7502 -0.1968
C22A C 0.6664(4) 1.1345(4) 0.1108(4)
N2A N 0.4365(3) 0.8834(3) -0.0748(3)
N3A N 0.5419(4) 1.0790(3) -0.1211(3)
C23A C 0.5009(5) 1.0417(4) -0.1976(4)
H15A H 0.4487 0.9873 -0.2022
C24A C 0.5329(5) 1.0804(5) -0.2701(4)
H16A H 0.5023 1.0527 -0.3233
C25A C 0.6092(5) 1.1592(4) -0.2649(4)
H17A H 0.6329 1.1854 -0.3142
C26A C 0.6503(4) 1.1989(4) -0.1864(4)
C27A C 0.6144(4) 1.1557(4) -0.1163(4)
H18A H 0.6433 1.1825 -0.0624
N4A N 0.7260(4) 1.2789(3) -0.1701(3)
H19A H 0.7403 1.3016 -0.1175
C28A C 0.7810(4) 1.3259(4) -0.2295(4)
O1A O 0.7591(3) 1.3110(3) -0.3053(3)
N5A N 0.8583(4) 1.3940(3) -0.1933(3)
H20A H 0.8624 1.4028 -0.1383
C29A C 0.9314(4) 1.4510(4) -0.2333(3)
C30A C 0.9306(5) 1.4528(4) -0.3198(4)
H21A H 0.8774 1.4129 -0.3545
N6A N 1.0033(4) 1.5098(3) -0.3558(3)
N6A_2 N 0.0033(4) 0.5098(3) 0.6442(3)
C31A C 1.0792(5) 1.5654(4) -0.3066(4)
H22A H 1.1304 1.6056 -0.3319
C32A C 1.0849(5) 1.5658(4) -0.2212(4)
H23A H 1.1404 1.6047 -0.1880
C33A C 1.0102(5) 1.5098(4) -0.1835(4)
H24A H 1.0123 1.5112 -0.1242
N7A N -0.0442(4) 0.3562(3) 0.4971(3)
C34A C -0.1452(4) 0.3099(4) 0.4892(4)
C35A C -0.0425(5) 0.1929(4) 0.5076(4)
H25A H -0.0175 0.1320 0.5142
C36A C 0.0204(4) 0.2849(4) 0.5087(4)
C37A C 0.1294(4) 0.3000(4) 0.5204(4)
C38A C 0.1851(3) 0.2135(2) 0.5415(2)
C39A C 0.1883(3) 0.1362(3) 0.48259(18)
H26A H 0.1597 0.1390 0.4266
C40A C 0.2335(3) 0.0548(2) 0.5056(2)
H27A H 0.2357 0.0019 0.4654
C41A C 0.2755(3) 0.0507(2) 0.5876(2)
H28A H 0.3063 -0.0050 0.6033
C42A C 0.2723(3) 0.1280(3) 0.64647(19)
H29A H 0.3010 0.1252 0.7025
C43A C 0.2271(3) 0.2094(2) 0.6234(2)
H30A H 0.2249 0.2623 0.6637
C44A C 0.1895(4) 0.3887(4) 0.5189(4)
C45A C 0.3023(5) 0.4026(4) 0.5240(4)
H31A H 0.3474 0.3533 0.5276
C46A C 0.3316(5) 0.4989(4) 0.5228(4)
H32A H 0.4013 0.5300 0.5260
C47A C 0.2383(4) 0.5459(4) 0.5157(4)
N8A N 0.1512(4) 0.4776(3) 0.5104(3)
C48A C -0.2361(4) 0.3545(4) 0.4819(4)
C49A C -0.3378(2) 0.2885(3) 0.4669(2)
C50A C -0.4071(3) 0.2778(3) 0.52855(19)
H33A H -0.3909 0.3125 0.5818
C51A C -0.5001(3) 0.2161(3) 0.5122(2)
H34A H -0.5474 0.2088 0.5544
C52A C -0.5238(2) 0.1653(3) 0.4342(3)
H35A H -0.5873 0.1232 0.4231
C53A C -0.4545(3) 0.1761(3) 0.3726(2)
H36A H -0.4707 0.1413 0.3193
C54A C -0.3615(3) 0.2377(3) 0.3889(2)
H37A H -0.3142 0.2451 0.3468
C67A C -0.1426(5) 0.2081(4) 0.4956(4)
H48A H -0.2014 0.1599 0.4920
Cl1 Cl 0.16558(14) 0.61309(12) 0.99830(9)
O2 O 0.2364(4) 1.0273(4) 0.3113(3)
O3 O 0.2672(4) 1.0278(4) 0.1805(3)
N9 N 0.2174(5) 0.9955(5) 0.2365(4)
C55 C 0.1359(3) 0.9194(3) 0.2150(3)
C56 C 0.1025(4) 0.8922(3) 0.1315(3)
H38 H 0.1342 0.9254 0.0884
C57 C 0.0227(4) 0.8166(4) 0.1109(3)
H39 H -0.0001 0.7980 0.0538
C58 C -0.0237(3) 0.7681(3) 0.1739(4)
H40 H -0.0782 0.7164 0.1598
C59 C 0.0097(4) 0.7952(4) 0.2574(3)
H41 H -0.0220 0.7620 0.3005
C60 C 0.0895(4) 0.8708(4) 0.2780(2)
H42 H 0.1124 0.8894 0.3351
O4 O 0.4454(5) 0.5710(5) 0.6893(4)
O5 O 0.5181(5) 0.4408(5) 0.6511(4)
N10 N 0.4620(6) 0.4850(6) 0.6953(5)
C61 C 0.4075(5) 0.4294(4) 0.7549(4)
C62 C 0.4351(5) 0.3391(4) 0.7737(4)
H43 H 0.4884 0.3121 0.7457
C63 C 0.3847(6) 0.2882(4) 0.8336(5)
H44 H 0.4035 0.2265 0.8464
C64 C 0.3067(5) 0.3277(5) 0.8746(4)
H45 H 0.2723 0.2929 0.9155
C65 C 0.2792(5) 0.4180(5) 0.8558(5)
H46 H 0.2259 0.4450 0.8838
C66 C 0.3296(5) 0.4689(4) 0.7960(5)
H47 H 0.3107 0.5306 0.7831
O6 O 0.9073(5) 0.6270(5) 0.9966(4)
loop_
_geom_bond_atom_site_label_1
_geom_bond_atom_site_label_2
_geom_bond_site_symmetry_1
_geom_bond_site_symmetry_2
Mn1 N1 1_555 1_555
Mn2 N6 1_555 1_555
N1 C1 1_555 1_555
C1 C2 1_555 1_555
C2 H1 1_555 1_555
C3 C2 1_555 1_555
H2 C3 1_555 1_555
C4 N1 1_555 1_555
C5 C1 1_555 1_555
C6 C5 1_555 1_555
C7 C6 1_555 1_555
H3 C7 1_555 1_555
C8 C7 1_555 1_555
H4 C8 1_555 1_555
C9 C8 1_555 1_555
H5 C9 1_555 1_555
C10 C9 1_555 1_555
H6 C10 1_555 1_555
C11 C6 1_555 1_555
H7 C11 1_555 1_555
C12 C4 1_555 1_555
C13 C12 1_555 1_555
C14 C13 1_555 1_555
H8 C14 1_555 1_555
C15 C14 1_555 1_555
H9 C15 1_555 1_555
C16 C15 1_555 1_555
H10 C16 1_555 1_555
C17 C16 1_555 1_555
H11 C17 1_555 1_555
C18 C13 1_555 1_555
H12 C18 1_555 1_555
C19 C12 1_555 1_555
C20 C19 1_555 1_555
H13 C20 1_555 1_555
C21 C20 1_555 1_555
H14 C21 1_555 1_555
C22 C5 1_555 1_555
N2 Mn1 1_555 1_555
N3 Mn1 1_555 1_555
C23 N3 1_555 1_555
H15 C23 1_555 1_555
C24 C23 1_555 1_555
H16 C24 1_555 1_555
C25 C24 1_555 1_555
H17 C25 1_555 1_555
C26 C25 1_555 1_555
C27 N3 1_555 1_555
H18 C27 1_555 1_555
N4 C26 1_555 1_555
H19 N4 1_555 1_555
C28 N4 1_555 1_555
O1 C28 1_555 1_555
N5 C28 1_555 1_555
H20 N5 1_555 1_555
C29 N5 1_555 1_555
C30 C29 1_555 1_555
H21 C30 1_555 1_555
N6 C30 1_555 1_555
C31 N6 1_555 1_555
H22 C31 1_555 1_555
C32 C31 1_555 1_555
H23 C32 1_555 1_555
C33 C29 1_555 1_555
H24 C33 1_555 1_555
N7 Mn2 1_555 1_555
C34 N7 1_555 1_555
C35 H25 1_555 1_555
C36 N7 1_555 1_555
C37 C36 1_555 1_555
C38 C37 1_555 1_555
C39 C38 1_555 1_555
H26 C39 1_555 1_555
C40 C39 1_555 1_555
H27 C40 1_555 1_555
C41 C40 1_555 1_555
H28 C41 1_555 1_555
C42 C41 1_555 1_555
H29 C42 1_555 1_555
C43 C38 1_555 1_555
H30 C43 1_555 1_555
C44 C37 1_555 1_555
C45 C44 1_555 1_555
H31 C45 1_555 1_555
C46 C45 1_555 1_555
H32 C46 1_555 1_555
C47 C46 1_555 1_555
N8 Mn2 1_555 1_555
C48 C34 1_555 1_555
C49 C48 1_555 1_555
C50 C49 1_555 1_555
H33 C50 1_555 1_555
C51 C50 1_555 1_555
H34 C51 1_555 1_555
C52 C51 1_555 1_555
H35 C52 1_555 1_555
C53 C52 1_555 1_555
H36 C53 1_555 1_555
C54 C49 1_555 1_555
H37 C54 1_555 1_555
O2 N9 1_555 1_555
O3 N9 1_555 1_555
N9 C55 1_555 1_555
C55 C56 1_555 1_555
C56 H38 1_555 1_555
C57 C56 1_555 1_555
H39 C57 1_555 1_555
C58 C57 1_555 1_555
H40 C58 1_555 1_555
C59 C58 1_555 1_555
H41 C59 1_555 1_555
C60 C55 1_555 1_555
H42 C60 1_555 1_555
O4 N10 1_555 1_555
O5 N10 1_555 1_555
N10 C61 1_555 1_555
C61 C62 1_555 1_555
C62 H43 1_555 1_555
C63 C62 1_555 1_555
H44 C63 1_555 1_555
C64 C63 1_555 1_555
H45 C64 1_555 1_555
C65 C64 1_555 1_555
H46 C65 1_555 1_555
C66 C61 1_555 1_555
H47 C66 1_555 1_555
C67 C34 1_555 1_555
H48 C67 1_555 1_555
Mn2_2 N6A 1_555 1_555
N1A Mn1 1_555 1_555
C1A N1A 1_555 1_555
C2A C1A 1_555 1_555
H1A C2A 1_555 1_555
C3A C2A 1_555 1_555
H2A C3A 1_555 1_555
C4A N1A 1_555 1_555
C5A C1A 1_555 1_555
C6A C5A 1_555 1_555
C7A C6A 1_555 1_555
H3A C7A 1_555 1_555
C8A C7A 1_555 1_555
H4A C8A 1_555 1_555
C9A C8A 1_555 1_555
H5A C9A 1_555 1_555
C10A C9A 1_555 1_555
H6A C10A 1_555 1_555
C11A C6A 1_555 1_555
H7A C11A 1_555 1_555
C12A C4A 1_555 1_555
C13A C12A 1_555 1_555
C14A C13A 1_555 1_555
H8A C14A 1_555 1_555
C15A C14A 1_555 1_555
H9A C15A 1_555 1_555
C16A C15A 1_555 1_555
H10A C16A 1_555 1_555
C17A C16A 1_555 1_555
H11A C17A 1_555 1_555
C18A C13A 1_555 1_555
H12A C18A 1_555 1_555
C19A C12A 1_555 1_555
C20A C19A 1_555 1_555
H13A C20A 1_555 1_555
C21A C22 1_555 1_555
H14A C21A 1_555 1_555
C22A C21 1_555 1_555
N2A Mn1 1_555 1_555
N3A Mn1 1_555 1_555
C23A N3A 1_555 1_555
H15A C23A 1_555 1_555
C24A C23A 1_555 1_555
H16A C24A 1_555 1_555
C25A C24A 1_555 1_555
H17A C25A 1_555 1_555
C26A C25A 1_555 1_555
C27A N3A 1_555 1_555
H18A C27A 1_555 1_555
N4A C26A 1_555 1_555
H19A N4A 1_555 1_555
C28A N4A 1_555 1_555
O1A C28A 1_555 1_555
N5A C28A 1_555 1_555
H20A N5A 1_555 1_555
C29A N5A 1_555 1_555
C30A C29A 1_555 1_555
H21A C30A 1_555 1_555
N6A C30A 1_555 1_555
N6A_2 Mn2 1_555 1_555
C31A N6A 1_555 1_555
H22A C31A 1_555 1_555
C32A C31A 1_555 1_555
H23A C32A 1_555 1_555
C33A C29A 1_555 1_555
H24A C33A 1_555 1_555
N7A Mn2 1_555 1_555
C34A N7A 1_555 1_555
C35A H25A 1_555 1_555
C36A N7A 1_555 1_555
C37A C36A 1_555 1_555
C38A C37A 1_555 1_555
C39A C38A 1_555 1_555
H26A C39A 1_555 1_555
C40A C39A 1_555 1_555
H27A C40A 1_555 1_555
C41A C40A 1_555 1_555
H28A C41A 1_555 1_555
C42A C41A 1_555 1_555
H29A C42A 1_555 1_555
C43A C38A 1_555 1_555
H30A C43A 1_555 1_555
C44A C37A 1_555 1_555
C45A C44A 1_555 1_555
H31A C45A 1_555 1_555
C46A C45A 1_555 1_555
H32A C46A 1_555 1_555
C47A C48 1_555 1_555
N8A Mn2 1_555 1_555
C48A C47 1_555 1_555
C49A C48A 1_555 1_555
C50A C49A 1_555 1_555
H33A C50A 1_555 1_555
C51A C50A 1_555 1_555
H34A C51A 1_555 1_555
C52A C51A 1_555 1_555
H35A C52A 1_555 1_555
C53A C52A 1_555 1_555
H36A C53A 1_555 1_555
C54A C49A 1_555 1_555
H37A C54A 1_555 1_555
C67A C34A 1_555 1_555
H48A C67A 1_555 1_555
C3 C4 1_555 1_555
C10 C11 1_555 1_555
C17 C18 1_555 1_555
C19 N2 1_555 1_555
C22 N2A 1_555 1_555
N2 C22A 1_555 1_555
C26 C27 1_555 1_555
C32 C33 1_555 1_555
C35 C36 1_555 1_555
C35 C67 1_555 1_555
C42 C43 1_555 1_555
C44 N8 1_555 1_555
C47 N8 1_555 1_555
C53 C54 1_555 1_555
C59 C60 1_555 1_555
C65 C66 1_555 1_555
C3A C4A 1_555 1_555
C5A C22A 1_555 1_555
C10A C11A 1_555 1_555
C17A C18A 1_555 1_555
C19A N2A 1_555 1_555
C20A C21A 1_555 1_555
C26A C27A 1_555 1_555
C32A C33A 1_555 1_555
C34A C48A 1_555 1_555
C35A C36A 1_555 1_555
C35A C67A 1_555 1_555
C42A C43A 1_555 1_555
C44A N8A 1_555 1_555
C46A C47A 1_555 1_555
C47A N8A 1_555 1_555
C53A C54A 1_555 1_555

#END
