
#######################################################################
#
#                 Cambridge Crystallographic Data Centre
#                                CCDC 
#
#######################################################################
#
# If this CIF has been generated from an entry in the Cambridge 
# Structural Database, then it will include bibliographic, chemical, 
# crystal, experimental, refinement or atomic coordinate data resulting 
# from the CCDC's data processing and validation procedures.
#
#######################################################################

data_VINHIL
_symmetry_cell_setting           monoclinic
_symmetry_space_group_name_H-M   'C c'
_symmetry_Int_Tables_number      9
_space_group_name_Hall           'C -2yc'
loop_
_symmetry_equiv_pos_site_id
_symmetry_equiv_pos_as_xyz
1 x,y,z
2 x,-y,1/2+z
3 1/2+x,1/2+y,z
4 1/2+x,1/2-y,1/2+z
_cell_length_a                   13.6556(14)
_cell_length_b                   28.194(2)
_cell_length_c                   17.2693(16)
_cell_angle_alpha                90
_cell_angle_beta                 107.080(10)
_cell_angle_gamma                90
_cell_volume                     6355.54
loop_
_atom_site_label
_atom_site_type_symbol
_atom_site_fract_x
_atom_site_fract_y
_atom_site_fract_z
C1 C 0.7376(7) 0.1269(3) 0.9412(5)
H1 H 0.8025 0.1090 0.9608
H2 H 0.7205 0.1397 0.9891
C2 C 0.7521(7) 0.1679(3) 0.8881(5)
H3 H 0.6896 0.1878 0.8719
H4 H 0.8103 0.1880 0.9180
C3 C 0.8640(6) 0.1450(3) 0.8129(4)
H5 H 0.9176 0.1574 0.8567
C4 C 0.8891(6) 0.1237(3) 0.7435(4)
C5 C 0.9873(6) 0.1255(3) 0.7404(5)
H6 H 1.0391 0.1402 0.7828
C6 C 1.0110(6) 0.1054(3) 0.6742(5)
H7 H 1.0786 0.1069 0.6698
C7 C 0.9342(6) 0.0836(2) 0.6159(5)
H8 H 0.9477 0.0704 0.5694
C8 C 0.8346(5) 0.0808(2) 0.6250(4)
C9 C 0.7520(7) 0.0560(3) 0.5629(5)
H9 H 0.6884 0.0573 0.5783
H10 H 0.7716 0.0228 0.5592
H11 H 0.7415 0.0715 0.5103
C10 C 0.5567(6) 0.1112(3) 0.8963(5)
H12 H 0.5589 0.1451 0.9118
H13 H 0.5333 0.0928 0.9363
C11 C 0.4790(6) 0.1045(3) 0.8102(5)
H14 H 0.4730 0.0706 0.7945
H15 H 0.4104 0.1166 0.8086
C12 C 0.4836(7) 0.1722(3) 0.7325(6)
H16 H 0.4241 0.1820 0.7460
C13 C 0.5297(7) 0.2042(3) 0.6837(5)
C14 C 0.4823(12) 0.2458(4) 0.6590(8)
H17 H 0.4227 0.2546 0.6733
C15 C 0.5224(11) 0.2756(4) 0.6124(10)
H18 H 0.4940 0.3061 0.5965
C16 C 0.6050(9) 0.2594(3) 0.5899(7)
H19 H 0.6340 0.2784 0.5568
C17 C 0.6455(6) 0.2155(2) 0.6155(5)
C18 C 0.7366(7) 0.1976(3) 0.5897(5)
H20 H 0.7564 0.1661 0.6127
H21 H 0.7943 0.2195 0.6095
H22 H 0.7177 0.1959 0.5305
C19 C 0.6786(8) 0.0463(3) 0.9085(5)
H23 H 0.6132 0.0287 0.8963
H24 H 0.7179 0.0399 0.9655
C20 C 0.7411(7) 0.0289(3) 0.8513(5)
H25 H 0.8083 0.0451 0.8646
H26 H 0.7529 -0.0057 0.8570
C21 C 0.6316(6) 0.0075(2) 0.7247(5)
H27 H 0.6398 -0.0241 0.7448
C22 C 0.5630(5) 0.0174(2) 0.6419(5)
C23 C 0.5159(6) -0.0209(3) 0.5936(6)
H28 H 0.5282 -0.0527 0.6123
C24 C 0.4515(7) -0.0107(3) 0.5186(6)
H29 H 0.4182 -0.0355 0.4835
C25 C 0.4357(6) 0.0345(4) 0.4952(5)
H30 H 0.3886 0.0416 0.4439
C26 C 0.4874(5) 0.0718(3) 0.5447(5)
C27 C 0.4707(9) 0.1224(3) 0.5175(7)
H31 H 0.5130 0.1432 0.5597
H32 H 0.3984 0.1307 0.5074
H33 H 0.4900 0.1265 0.4675
N1 N 0.6583(5) 0.0958(2) 0.8980(4)
N2 N 0.7725(5) 0.1473(2) 0.8156(3)
N3 N 0.8116(4) 0.10178(18) 0.6876(3)
N4 N 0.5232(5) 0.1325(2) 0.7557(4)
N5 N 0.6079(4) 0.18664(19) 0.6610(4)
N6 N 0.6787(4) 0.04087(19) 0.7679(4)
N7 N 0.5502(5) 0.0629(2) 0.6188(4)
Fe1 Fe 0.65615(7) 0.11183(3) 0.71832(6)
C28 C 0.5467(5) 0.4471(2) 0.6400(4)
C29 C 0.4423(5) 0.4608(2) 0.5792(4)
C30 C 0.2953(5) 0.3403(2) 0.6662(4)
C31 C 0.2164(6) 0.3768(2) 0.6798(4)
C32 C -0.0974(6) 0.2979(3) 0.5664(5)
C33 C -0.0401(5) 0.2969(2) 0.5002(5)
C34 C 0.4722(6) 0.4893(2) 0.8274(4)
C35 C 0.4860(6) 0.4420(2) 0.8695(4)
C36 C 0.1858(5) 0.2513(2) 0.8199(5)
C37 C 0.1892(5) 0.2076(2) 0.7649(4)
C38 C 0.7223(5) 0.4130(2) 0.4601(4)
C39 C 0.6247(5) 0.3835(2) 0.4566(4)
O1 O 0.6262(4) 0.45730(19) 0.6237(3)
O2 O 0.4422(4) 0.48178(17) 0.5167(3)
O3 O 0.5406(4) 0.42601(17) 0.7037(3)
O4 O 0.3651(4) 0.44763(18) 0.5992(3)
O5 O 0.3829(4) 0.35634(17) 0.6749(3)
O6 O 0.2543(4) 0.41752(16) 0.7049(3)
O7 O 0.2666(4) 0.29953(17) 0.6475(4)
O8 O 0.1273(4) 0.36380(17) 0.6658(4)
O9 O -0.0477(4) 0.2878(2) 0.6361(3)
O10 O 0.0524(4) 0.28672(18) 0.5215(3)
O11 O -0.1907(4) 0.30770(18) 0.5408(3)
O12 O -0.0950(4) 0.30618(17) 0.4293(3)
O13 O 0.7240(4) 0.45543(16) 0.4760(3)
O14 O 0.5556(4) 0.40184(18) 0.4778(3)
O15 O 0.4182(4) 0.48868(17) 0.7528(3)
O16 O 0.4506(4) 0.40592(17) 0.8260(3)
O17 O 0.5138(5) 0.52474(17) 0.8653(3)
O18 O 0.5293(5) 0.44018(18) 0.9448(3)
O19 O 0.1537(4) 0.28958(17) 0.7868(4)
O20 O 0.1579(4) 0.21283(16) 0.6914(3)
O21 O 0.2181(4) 0.24343(16) 0.8943(3)
O22 O 0.2234(4) 0.17039(15) 0.8038(3)
O23 O 0.7941(4) 0.39000(16) 0.4436(3)
O24 O 0.6270(4) 0.34040(16) 0.4323(3)
Cr1 Cr 0.40076(8) 0.42336(4) 0.71085(6)
Cr2 Cr 0.76189(8) 0.32230(3) 0.42276(6)
Mn1 Mn 0.59197(9) 0.48837(4) 0.49746(6)
Mn2 Mn 0.11553(9) 0.28588(4) 0.65367(8)
O25 O 0.684(2) 0.5459(11) 0.5635(16)
C40 C 0.7718(15) 0.5405(6) 0.6301(12)
O11_2 O 0.8093(4) 0.30770(18) 0.5408(3)
O12_2 O 0.9050(4) 0.30618(17) 0.4293(3)
O17A O 0.5138(5) 0.47526(17) 0.3653(3)
O18A O 0.5293(5) 0.55982(18) 0.4448(3)
O21C O 0.7181(4) 0.25657(16) 0.3943(3)
O22C O 0.7234(4) 0.32961(15) 0.3038(3)
Cr2_2 Cr -0.23811(8) 0.32230(3) 0.42276(6)
Cr2C Cr 0.26189(8) 0.17770(3) 0.92276(6)
Mn1A Mn 0.59197(9) 0.51163(4) 0.99746(6)
N8 N 0.0902(16) 0.4060(8) 0.8494(13)
C41 C 0.278(2) 0.3679(9) 0.9117(13)
C42 C 0.175(2) 0.3865(8) 0.8783(14)
O27 O 0.7213(10) 0.3946(6) 0.8305(7)
O28 O 0.7258(13) 0.3774(5) 0.9899(9)
C43 C 0.717(3) 0.3607(9) 1.0674(16)
O29 O 0.433(4) 0.7447(11) 0.7795(13)
C44 C 0.436(3) 0.7757(13) 0.8435(17)
O30 O 0.8860(11) 0.4228(5) 0.7576(6)
C45 C 0.942(2) 0.4631(12) 0.7884(15)
O26? O 0.708(2) 0.5367(13) 0.580(2)
O31? O 0.8608(13) 0.3953(7) 0.6936(11)
C46? C 0.756(2) 0.5226(9) 0.7837(12)
O32? O 0.8212(10) 0.5141(4) 0.7299(8)
loop_
_geom_bond_atom_site_label_1
_geom_bond_atom_site_label_2
_geom_bond_site_symmetry_1
_geom_bond_site_symmetry_2
C1 H1 1_555 1_555
H2 C1 1_555 1_555
C2 C1 1_555 1_555
H3 C2 1_555 1_555
H4 C2 1_555 1_555
C3 H5 1_555 1_555
C4 C3 1_555 1_555
C5 C4 1_555 1_555
H6 C5 1_555 1_555
C6 C5 1_555 1_555
H7 C6 1_555 1_555
C7 C6 1_555 1_555
H8 C7 1_555 1_555
C8 C7 1_555 1_555
C9 C8 1_555 1_555
H9 C9 1_555 1_555
H10 C9 1_555 1_555
H11 C9 1_555 1_555
C10 H12 1_555 1_555
H13 C10 1_555 1_555
C11 C10 1_555 1_555
H14 C11 1_555 1_555
H15 C11 1_555 1_555
C12 H16 1_555 1_555
C13 C12 1_555 1_555
C14 C13 1_555 1_555
H17 C14 1_555 1_555
C15 C14 1_555 1_555
H18 C15 1_555 1_555
C16 C15 1_555 1_555
H19 C16 1_555 1_555
C17 C16 1_555 1_555
C18 C17 1_555 1_555
H20 C18 1_555 1_555
H21 C18 1_555 1_555
H22 C18 1_555 1_555
C19 H23 1_555 1_555
H24 C19 1_555 1_555
C20 C19 1_555 1_555
H25 C20 1_555 1_555
H26 C20 1_555 1_555
C21 H27 1_555 1_555
C22 C21 1_555 1_555
C23 C22 1_555 1_555
H28 C23 1_555 1_555
C24 C23 1_555 1_555
H29 C24 1_555 1_555
C25 C24 1_555 1_555
H30 C25 1_555 1_555
C26 C25 1_555 1_555
C27 C26 1_555 1_555
H31 C27 1_555 1_555
H32 C27 1_555 1_555
H33 C27 1_555 1_555
N1 C1 1_555 1_555
N2 C2 1_555 1_555
N3 C4 1_555 1_555
N4 C11 1_555 1_555
N5 C13 1_555 1_555
N6 C20 1_555 1_555
N7 C22 1_555 1_555
Fe1 N2 1_555 1_555
C28 C29 1_555 1_555
C29 O2 1_555 1_555
C30 C31 1_555 1_555
C31 O6 1_555 1_555
C32 C33 1_555 1_555
C33 O10 1_555 1_555
C34 C35 1_555 1_555
C35 O16 1_555 1_555
C36 C37 1_555 1_555
C37 O20 1_555 1_555
C38 C39 1_555 1_555
C39 O14 1_555 1_555
O1 C28 1_555 1_555
O2 Mn1 1_555 1_555
O3 C28 1_555 1_555
O4 C29 1_555 1_555
O5 C30 1_555 1_555
O6 Cr1 1_555 1_555
O7 C30 1_555 1_555
O8 C31 1_555 1_555
O9 C32 1_555 1_555
O10 Mn2 1_555 1_555
O11 C32 1_555 1_555
O12 C33 1_555 1_555
O13 C38 1_555 1_555
O15 C34 1_555 1_555
O16 Cr1 1_555 1_555
O17 C34 1_555 1_555
O18 C35 1_555 1_555
O19 C36 1_555 1_555
O20 Mn2 1_555 1_555
O21 C36 1_555 1_555
O22 C37 1_555 1_555
O23 C38 1_555 1_555
O24 C39 1_555 1_555
Cr1 O3 1_555 1_555
Cr2 O23 1_555 1_555
Mn1 O1 1_555 1_555
Mn2 O7 1_555 1_555
O25 Mn1 1_555 1_555
C40 O25 1_555 1_555
N8 C42 1_555 1_555
C41 C42 1_555 1_555
O28 C43 1_555 1_555
O29 C44 1_555 1_555
O30 C45 1_555 1_555
O11_2 Cr2 1_555 1_555
O12_2 Cr2 1_555 1_555
O17A Mn1 1_555 1_555
O18A Mn1 1_555 1_555
O21C Cr2 1_555 1_555
O22C Cr2 1_555 1_555
Cr2_2 O11 1_555 1_555
Cr2C O21 1_555 1_555
Mn1A O17 1_555 1_555
C3 N2 1_555 1_555
C8 N3 1_555 1_555
C10 N1 1_555 1_555
C12 N4 1_555 1_555
C17 N5 1_555 1_555
C19 N1 1_555 1_555
C21 N6 1_555 1_555
C26 N7 1_555 1_555
N3 Fe1 1_555 1_555
N4 Fe1 1_555 1_555
N5 Fe1 1_555 1_555
N6 Fe1 1_555 1_555
N7 Fe1 1_555 1_555
O4 Cr1 1_555 1_555
O5 Cr1 1_555 1_555
O8 Mn2 1_555 1_555
O9 Mn2 1_555 1_555
O12 Cr2_2 1_555 1_555
O13 Mn1 1_555 1_555
O15 Cr1 1_555 1_555
O18 Mn1A 1_555 1_555
O19 Mn2 1_555 1_555
O22 Cr2C 1_555 1_555
O24 Cr2 1_555 1_555

#END
