
#######################################################################
#
#                 Cambridge Crystallographic Data Centre
#                                CCDC 
#
#######################################################################
#
# If this CIF has been generated from an entry in the Cambridge 
# Structural Database, then it will include bibliographic, chemical, 
# crystal, experimental, refinement or atomic coordinate data resulting 
# from the CCDC's data processing and validation procedures.
#
#######################################################################

data_VINLOU
_symmetry_cell_setting           monoclinic
_symmetry_space_group_name_H-M   'P 21/c'
_symmetry_Int_Tables_number      14
_space_group_name_Hall           '-P 2ybc'
loop_
_symmetry_equiv_pos_site_id
_symmetry_equiv_pos_as_xyz
1 x,y,z
2 -x,1/2+y,1/2-z
3 -x,-y,-z
4 x,1/2-y,1/2+z
_cell_length_a                   17.278(6)
_cell_length_b                   15.234(5)
_cell_length_c                   16.161(5)
_cell_angle_alpha                90
_cell_angle_beta                 111.221(5)
_cell_angle_gamma                90
_cell_volume                     3965.34
loop_
_atom_site_label
_atom_site_type_symbol
_atom_site_fract_x
_atom_site_fract_y
_atom_site_fract_z
Cu1 Cu 0.5000 0.5000 0.5000
Cu2 Cu 0.0000 0.5000 0.5000
N1 N 0.2460(4) 0.4401(5) 0.4881(4)
N2 N 0.4598(3) 0.4129(4) 0.5653(4)
N3 N 0.3850(4) 0.3393(4) 0.6279(4)
N4 N 0.0279(4) 0.4607(4) 0.3985(4)
N5 N 0.0951(4) 0.4190(4) 0.3119(4)
N6 N 0.5945(4) 0.5769(5) 0.6471(4)
N7 N 0.0671(5) 0.3521(5) 0.5839(5)
O1 O 0.6088(3) 0.5125(4) 0.6058(3)
O2 O 0.5235(4) 0.6094(4) 0.6188(4)
O3 O 0.6500(4) 0.6056(5) 0.7128(4)
O4 O 0.0955(3) 0.4292(4) 0.5829(3)
O5 O -0.0061(4) 0.3389(4) 0.5391(4)
O6 O 0.1137(4) 0.2953(4) 0.6290(5)
C1 C 0.3895(4) 0.4109(5) 0.5804(4)
C2 C 0.3206(4) 0.4733(5) 0.5457(4)
C3 C 0.3276(5) 0.5623(5) 0.5652(5)
H1 H 0.3777 0.5849 0.6036
C4 C 0.2613(5) 0.6166(5) 0.5282(6)
H2 H 0.2667 0.6762 0.5416
C5 C 0.1873(5) 0.5847(5) 0.4720(5)
H3 H 0.1426 0.6226 0.4483
C6 C 0.1779(4) 0.4972(5) 0.4499(4)
C7 C 0.1005(4) 0.4603(5) 0.3875(5)
C8 C 0.5033(4) 0.3380(5) 0.6024(5)
C9 C 0.4572(5) 0.2916(5) 0.6430(5)
C10 C 0.4842(6) 0.2122(5) 0.6853(6)
H4 H 0.4529 0.1811 0.7117
C11 C 0.5583(7) 0.1820(6) 0.6864(7)
H5 H 0.5797 0.1304 0.7168
C12 C 0.6029(6) 0.2256(6) 0.6439(7)
H6 H 0.6517 0.2007 0.6431
C13 C 0.5775(5) 0.3046(6) 0.6028(5)
H7 H 0.6091 0.3347 0.5761
C14 C 0.3236(5) 0.3205(5) 0.6692(5)
H8 H 0.3192 0.2575 0.6752
H9 H 0.2697 0.3423 0.6313
C15 C 0.3484(5) 0.3632(6) 0.7594(5)
C16 C 0.3164(7) 0.4434(7) 0.7656(7)
H10 H 0.2790 0.4701 0.7152
C17 C 0.3395(9) 0.4855(8) 0.8470(10)
H11 H 0.3161 0.5392 0.8522
C18 C 0.3976(9) 0.4467(10) 0.9200(10)
H12 H 0.4175 0.4777 0.9731
C19 C 0.4257(8) 0.3670(10) 0.9169(8)
H13 H 0.4609 0.3395 0.9681
C20 C 0.4010(7) 0.3238(7) 0.8330(7)
H14 H 0.4213 0.2680 0.8290
C21 C -0.0272(4) 0.4166(5) 0.3259(5)
C22 C 0.0145(5) 0.3898(5) 0.2714(5)
C23 C -0.0252(6) 0.3436(6) 0.1932(6)
H15 H 0.0025 0.3269 0.1560
C24 C -0.1048(6) 0.3245(7) 0.1743(7)
H16 H -0.1328 0.2930 0.1228
C25 C -0.1476(6) 0.3493(6) 0.2274(7)
H17 H -0.2033 0.3341 0.2107
C26 C -0.1105(5) 0.3960(6) 0.3049(6)
H18 H -0.1395 0.4126 0.3410
C27 C 0.1591(5) 0.4145(6) 0.2712(5)
H19 H 0.1559 0.3579 0.2426
H20 H 0.2137 0.4194 0.3174
C28 C 0.1487(6) 0.4861(7) 0.2040(6)
C29 C 0.1122(9) 0.4760(11) 0.1194(9)
H21 H 0.0896 0.4216 0.0974
C30 C 0.1056(11) 0.5470(14) 0.0584(11)
H22 H 0.0852 0.5372 -0.0025
C31 C 0.1277(11) 0.6217(13) 0.0888(13)
H23 H 0.1109 0.6698 0.0510
C32 C 0.1750(12) 0.6353(11) 0.1743(12)
H24 H 0.2016 0.6887 0.1934
C33 C 0.1830(10) 0.5647(9) 0.2348(8)
H25 H 0.2117 0.5729 0.2953
Cu2_2 Cu 1.0000 0.5000 0.5000
N1B N 0.7540(4) 0.5599(5) 0.5119(4)
N2B N 0.5402(3) 0.5871(4) 0.4347(4)
N3B N 0.6150(4) 0.6607(4) 0.3721(4)
N4B N 0.9721(4) 0.5393(4) 0.6015(4)
N4B_2 N -0.0279(4) 0.5393(4) 0.6015(4)
N5B N 0.9049(4) 0.5810(4) 0.6881(4)
N6B N 0.4055(4) 0.4231(5) 0.3529(4)
N7B N -0.0671(5) 0.6479(5) 0.4161(5)
O1B O 0.3912(3) 0.4875(4) 0.3942(3)
O2B O 0.4765(4) 0.3906(4) 0.3812(4)
O3B O 0.3500(4) 0.3944(5) 0.2872(4)
O4B O -0.0955(3) 0.5708(4) 0.4171(3)
O5B O 0.0061(4) 0.6611(4) 0.4609(4)
O6B O -0.1137(4) 0.7047(4) 0.3710(5)
C1B C 0.6105(4) 0.5891(5) 0.4196(4)
C2B C 0.6794(4) 0.5267(5) 0.4543(4)
C3B C 0.6724(5) 0.4377(5) 0.4348(5)
H1B H 0.6223 0.4151 0.3964
C4B C 0.7387(5) 0.3834(5) 0.4718(6)
H2B H 0.7333 0.3238 0.4584
C5B C 0.8127(5) 0.4153(5) 0.5280(5)
H3B H 0.8574 0.3774 0.5517
C6B C 0.8221(4) 0.5028(5) 0.5501(4)
C7B C 0.8995(4) 0.5397(5) 0.6125(5)
C8B C 0.4967(4) 0.6620(5) 0.3976(5)
C9B C 0.5428(5) 0.7084(5) 0.3570(5)
C10B C 0.5158(6) 0.7878(5) 0.3147(6)
H4B H 0.5471 0.8189 0.2883
C11B C 0.4417(7) 0.8180(6) 0.3136(7)
H5B H 0.4203 0.8696 0.2832
C12B C 0.3971(6) 0.7744(6) 0.3561(7)
H6B H 0.3483 0.7993 0.3569
C13B C 0.4225(5) 0.6954(6) 0.3972(5)
H7B H 0.3909 0.6653 0.4239
C14B C 0.6764(5) 0.6795(5) 0.3308(5)
H8B H 0.6808 0.7425 0.3248
H9B H 0.7303 0.6577 0.3687
C15B C 0.6516(5) 0.6368(6) 0.2406(5)
C16B C 0.6836(7) 0.5566(7) 0.2344(7)
H10B H 0.7210 0.5299 0.2848
C17B C 0.6605(9) 0.5145(8) 0.1530(10)
H11B H 0.6839 0.4608 0.1478
C18B C 0.6024(9) 0.5533(10) 0.0800(10)
H12B H 0.5825 0.5223 0.0269
C19B C 0.5743(8) 0.6330(10) 0.0831(8)
H13B H 0.5391 0.6605 0.0319
C20B C 0.5990(7) 0.6762(7) 0.1670(7)
H14B H 0.5787 0.7320 0.1710
C21B C 1.0272(4) 0.5834(5) 0.6741(5)
C22B C 0.9855(5) 0.6102(5) 0.7286(5)
C23B C 1.0252(6) 0.6564(6) 0.8068(6)
H15B H 0.9975 0.6731 0.8440
C24B C 1.1048(6) 0.6755(7) 0.8257(7)
H16B H 1.1328 0.7070 0.8772
C25B C 1.1476(6) 0.6507(6) 0.7726(7)
H17B H 1.2033 0.6659 0.7893
C26B C 1.1105(5) 0.6040(6) 0.6951(6)
H18B H 1.1395 0.5874 0.6590
C27B C 0.8409(5) 0.5855(6) 0.7288(5)
H19B H 0.8441 0.6421 0.7574
H20B H 0.7863 0.5806 0.6826
C28B C 0.8513(6) 0.5139(7) 0.7960(6)
C29B C 0.8878(9) 0.5240(11) 0.8806(9)
H21B H 0.9104 0.5784 0.9026
C30B C 0.8944(11) 0.4530(14) 0.9416(11)
H22B H 0.9148 0.4628 1.0025
C31B C 0.8723(11) 0.3783(13) 0.9112(13)
H23B H 0.8891 0.3302 0.9490
C32B C 0.8250(12) 0.3647(11) 0.8257(12)
H24B H 0.7984 0.3113 0.8066
C33B C 0.8170(10) 0.4353(9) 0.7652(8)
H25B H 0.7883 0.4271 0.7047
N8 N 0.1229(9) 0.3363(7) 0.8736(8)
O7 O 0.2381(11) 0.2588(8) 0.9504(10)
C34 C 0.2010(9) 0.3126(11) 0.8861(11)
H26 H 0.2278 0.3342 0.8498
C35 C 0.0805(12) 0.3956(11) 0.8065(10)
H27 H 0.0255 0.4046 0.8065
H28 H 0.0772 0.3724 0.7501
H29 H 0.1097 0.4505 0.8168
C36 C 0.0921(11) 0.2909(11) 0.9316(11)
H30 H 0.0360 0.3090 0.9205
H31 H 0.1260 0.3041 0.9920
H32 H 0.0934 0.2289 0.9216
N9 N 0.3483(9) 0.5718(10) 0.0972(10)
O8 O 0.2866(6) 0.6587(9) -0.0116(6)
C37 C 0.3404(11) 0.6491(12) 0.0506(12)
H33 H 0.3802 0.6930 0.0713
C38 C 0.4106(13) 0.5681(15) 0.1806(11)
H34 H 0.4075 0.5131 0.2083
H35 H 0.4038 0.6154 0.2166
H36 H 0.4638 0.5730 0.1747
C39 C 0.3058(11) 0.4947(12) 0.0776(12)
H37 H 0.3263 0.4558 0.1276
H38 H 0.3134 0.4682 0.0271
H39 H 0.2478 0.5056 0.0642
loop_
_geom_bond_atom_site_label_1
_geom_bond_atom_site_label_2
_geom_bond_site_symmetry_1
_geom_bond_site_symmetry_2
Cu1 N2 1_555 1_555
Cu2 N4 1_555 1_555
N1 C2 1_555 1_555
N2 C1 1_555 1_555
N3 C1 1_555 1_555
N4 C7 1_555 1_555
N5 C7 1_555 1_555
N6 O1 1_555 1_555
N7 O4 1_555 1_555
N8 C34 1_555 1_555
N9 C37 1_555 1_555
O1 Cu1 1_555 1_555
O2 Cu1 1_555 1_555
O3 N6 1_555 1_555
O4 Cu2 1_555 1_555
O5 Cu2 1_555 1_555
O6 N7 1_555 1_555
O7 C34 1_555 1_555
O8 C37 1_555 1_555
C1 C2 1_555 1_555
C2 C3 1_555 1_555
C3 H1 1_555 1_555
C4 C3 1_555 1_555
H2 C4 1_555 1_555
C5 C4 1_555 1_555
H3 C5 1_555 1_555
C6 N1 1_555 1_555
C7 C6 1_555 1_555
C8 N2 1_555 1_555
C9 N3 1_555 1_555
C10 C9 1_555 1_555
H4 C10 1_555 1_555
C11 C10 1_555 1_555
H5 C11 1_555 1_555
C12 C11 1_555 1_555
H6 C12 1_555 1_555
C13 C8 1_555 1_555
H7 C13 1_555 1_555
C14 N3 1_555 1_555
H8 C14 1_555 1_555
H9 C14 1_555 1_555
C15 C14 1_555 1_555
C16 C15 1_555 1_555
H10 C16 1_555 1_555
C17 C16 1_555 1_555
H11 C17 1_555 1_555
C18 C17 1_555 1_555
H12 C18 1_555 1_555
C19 C18 1_555 1_555
H13 C19 1_555 1_555
C20 C15 1_555 1_555
H14 C20 1_555 1_555
C21 N4 1_555 1_555
C22 N5 1_555 1_555
C23 C22 1_555 1_555
H15 C23 1_555 1_555
C24 C23 1_555 1_555
H16 C24 1_555 1_555
C25 C24 1_555 1_555
H17 C25 1_555 1_555
C26 C21 1_555 1_555
H18 C26 1_555 1_555
C27 N5 1_555 1_555
H19 C27 1_555 1_555
H20 C27 1_555 1_555
C28 C27 1_555 1_555
C29 C28 1_555 1_555
H21 C29 1_555 1_555
C30 C29 1_555 1_555
H22 C30 1_555 1_555
C31 C30 1_555 1_555
H23 C31 1_555 1_555
C32 C31 1_555 1_555
H24 C32 1_555 1_555
C33 C28 1_555 1_555
H25 C33 1_555 1_555
C34 H26 1_555 1_555
C35 N8 1_555 1_555
H27 C35 1_555 1_555
H28 C35 1_555 1_555
H29 C35 1_555 1_555
C36 N8 1_555 1_555
H30 C36 1_555 1_555
H31 C36 1_555 1_555
H32 C36 1_555 1_555
C37 H33 1_555 1_555
C38 N9 1_555 1_555
H34 C38 1_555 1_555
H35 C38 1_555 1_555
H36 C38 1_555 1_555
C39 N9 1_555 1_555
H37 C39 1_555 1_555
H38 C39 1_555 1_555
H39 C39 1_555 1_555
Cu2_2 N4B 1_555 1_555
N1B C2B 1_555 1_555
N2B Cu1 1_555 1_555
N3B C1B 1_555 1_555
N4B C7B 1_555 1_555
N4B_2 Cu2 1_555 1_555
N5B C7B 1_555 1_555
N6B O1B 1_555 1_555
N7B O4B 1_555 1_555
O1B Cu1 1_555 1_555
O2B Cu1 1_555 1_555
O3B N6B 1_555 1_555
O4B Cu2 1_555 1_555
O5B Cu2 1_555 1_555
O6B N7B 1_555 1_555
C1B N2B 1_555 1_555
C2B C1B 1_555 1_555
C3B C2B 1_555 1_555
H1B C3B 1_555 1_555
C4B C3B 1_555 1_555
H2B C4B 1_555 1_555
C5B C4B 1_555 1_555
H3B C5B 1_555 1_555
C6B N1B 1_555 1_555
C7B C6B 1_555 1_555
C8B N2B 1_555 1_555
C9B N3B 1_555 1_555
C10B C9B 1_555 1_555
H4B C10B 1_555 1_555
C11B C10B 1_555 1_555
H5B C11B 1_555 1_555
C12B C11B 1_555 1_555
H6B C12B 1_555 1_555
C13B C8B 1_555 1_555
H7B C13B 1_555 1_555
C14B N3B 1_555 1_555
H8B C14B 1_555 1_555
H9B C14B 1_555 1_555
C15B C14B 1_555 1_555
C16B C15B 1_555 1_555
H10B C16B 1_555 1_555
C17B C16B 1_555 1_555
H11B C17B 1_555 1_555
C18B C17B 1_555 1_555
H12B C18B 1_555 1_555
C19B C18B 1_555 1_555
H13B C19B 1_555 1_555
C20B C15B 1_555 1_555
H14B C20B 1_555 1_555
C21B N4B 1_555 1_555
C22B N5B 1_555 1_555
C23B C22B 1_555 1_555
H15B C23B 1_555 1_555
C24B C23B 1_555 1_555
H16B C24B 1_555 1_555
C25B C24B 1_555 1_555
H17B C25B 1_555 1_555
C26B C21B 1_555 1_555
H18B C26B 1_555 1_555
C27B N5B 1_555 1_555
H19B C27B 1_555 1_555
H20B C27B 1_555 1_555
C28B C27B 1_555 1_555
C29B C28B 1_555 1_555
H21B C29B 1_555 1_555
C30B C29B 1_555 1_555
H22B C30B 1_555 1_555
C31B C30B 1_555 1_555
H23B C31B 1_555 1_555
C32B C31B 1_555 1_555
H24B C32B 1_555 1_555
C33B C28B 1_555 1_555
H25B C33B 1_555 1_555
N6 O2 1_555 1_555
N7 O5 1_555 1_555
C5 C6 1_555 1_555
C8 C9 1_555 1_555
C12 C13 1_555 1_555
C19 C20 1_555 1_555
C21 C22 1_555 1_555
C25 C26 1_555 1_555
C32 C33 1_555 1_555
N6B O2B 1_555 1_555
N7B O5B 1_555 1_555
C5B C6B 1_555 1_555
C8B C9B 1_555 1_555
C12B C13B 1_555 1_555
C19B C20B 1_555 1_555
C21B C22B 1_555 1_555
C25B C26B 1_555 1_555
C32B C33B 1_555 1_555

#END
