
#######################################################################
#
#                 Cambridge Crystallographic Data Centre
#                                CCDC 
#
#######################################################################
#
# If this CIF has been generated from an entry in the Cambridge 
# Structural Database, then it will include bibliographic, chemical, 
# crystal, experimental, refinement or atomic coordinate data resulting 
# from the CCDC's data processing and validation procedures.
#
#######################################################################

data_VINMAH
_symmetry_cell_setting           monoclinic
_symmetry_space_group_name_H-M   'P 21/c'
_symmetry_Int_Tables_number      14
_space_group_name_Hall           '-P 2ybc'
loop_
_symmetry_equiv_pos_site_id
_symmetry_equiv_pos_as_xyz
1 x,y,z
2 -x,1/2+y,1/2-z
3 -x,-y,-z
4 x,1/2-y,1/2+z
_cell_length_a                   11.1266(7)
_cell_length_b                   18.3128(12)
_cell_length_c                   6.9248(4)
_cell_angle_alpha                90
_cell_angle_beta                 106.8360(10)
_cell_angle_gamma                90
_cell_volume                     1350.51
loop_
_atom_site_label
_atom_site_type_symbol
_atom_site_fract_x
_atom_site_fract_y
_atom_site_fract_z
Mn1 Mn 0.89075(3) 0.210828(15) 0.68906(5)
Cl1 Cl 1.02725(5) 0.20174(2) 0.42637(8)
Cl2 Cl 0.75943(5) 0.20462(3) 0.93929(8)
N1 N 1.01663(15) 0.11447(8) 0.8255(3)
N2 N 0.79126(15) 0.10775(9) 0.5393(3)
C1 C 1.1293(2) 0.11779(11) 0.9600(3)
H1 H 1.1572 0.1625 1.0199
C2 C 1.2072(2) 0.05724(12) 1.0153(4)
H2 H 1.2860 0.0616 1.1088
C3 C 1.1657(2) -0.00890(12) 0.9292(4)
H3 H 1.2158 -0.0503 0.9644
C4 C 1.0488(2) -0.01355(11) 0.7899(3)
H4 H 1.0189 -0.0580 0.7299
C5 C 0.97638(19) 0.04926(10) 0.7408(3)
C6 C 0.8520(2) 0.04892(11) 0.5922(3)
H5 H 0.8171 0.0049 0.5359
C7 C 0.6698(2) 0.10491(12) 0.3828(3)
H6 H 0.6587 0.0567 0.3220
H7 H 0.6701 0.1400 0.2780
C8 C 0.5606(2) 0.12118(11) 0.4642(3)
C9 C 0.5446(2) 0.08293(13) 0.6263(4)
H8 H 0.6034 0.0479 0.6892
C10 C 0.4423(2) 0.09591(15) 0.6967(4)
H9 H 0.4336 0.0704 0.8080
C11 C 0.3541(3) 0.14626(17) 0.6029(5)
H10 H 0.2845 0.1544 0.6488
C12 C 0.3680(3) 0.18443(16) 0.4425(5)
H11 H 0.3076 0.2185 0.3784
C13 C 0.4723(2) 0.17285(14) 0.3736(4)
H12 H 0.4823 0.2001 0.2659
Mn1C Mn 0.89075(3) 0.289172(15) 0.18906(5)
Mn1C_2 Mn 0.89075(3) 0.289172(15) 1.18906(5)
Cl1C Cl 1.02725(5) 0.29826(2) 0.92637(8)
Cl2C Cl 0.75943(5) 0.29538(3) 0.43929(8)
loop_
_geom_bond_atom_site_label_1
_geom_bond_atom_site_label_2
_geom_bond_site_symmetry_1
_geom_bond_site_symmetry_2
Mn1 Cl1 1_555 1_555
Cl1 Mn1C 1_555 1_555
Cl2 Mn1 1_555 1_555
N1 Mn1 1_555 1_555
N2 Mn1 1_555 1_555
C1 N1 1_555 1_555
H1 C1 1_555 1_555
C2 C1 1_555 1_555
H2 C2 1_555 1_555
C3 C2 1_555 1_555
H3 C3 1_555 1_555
C4 C3 1_555 1_555
H4 C4 1_555 1_555
C5 N1 1_555 1_555
C6 N2 1_555 1_555
H5 C6 1_555 1_555
C7 N2 1_555 1_555
H6 C7 1_555 1_555
H7 C7 1_555 1_555
C8 C7 1_555 1_555
C9 C8 1_555 1_555
H8 C9 1_555 1_555
C10 C9 1_555 1_555
H9 C10 1_555 1_555
C11 C10 1_555 1_555
H10 C11 1_555 1_555
C12 C11 1_555 1_555
H11 C12 1_555 1_555
C13 C8 1_555 1_555
H12 C13 1_555 1_555
Mn1C Cl2C 1_555 1_555
Mn1C_2 Cl2 1_555 1_555
Cl1C Mn1 1_555 1_555
Cl2C Mn1 1_555 1_555
C4 C5 1_555 1_555
C5 C6 1_555 1_555
C12 C13 1_555 1_555
Mn1C_2 Cl1C 1_555 1_555

#END
