
#######################################################################
#
#                 Cambridge Crystallographic Data Centre
#                                CCDC 
#
#######################################################################
#
# If this CIF has been generated from an entry in the Cambridge 
# Structural Database, then it will include bibliographic, chemical, 
# crystal, experimental, refinement or atomic coordinate data resulting 
# from the CCDC's data processing and validation procedures.
#
#######################################################################

data_VINNAJ
_symmetry_cell_setting           monoclinic
_symmetry_space_group_name_H-M   'C 2/c'
_symmetry_Int_Tables_number      15
_space_group_name_Hall           '-C 2yn'
loop_
_symmetry_equiv_pos_site_id
_symmetry_equiv_pos_as_xyz
1 x,y,z
2 -x,y,1/2-z
3 1/2+x,1/2+y,z
4 1/2-x,1/2+y,1/2-z
5 -x,-y,-z
6 x,-y,1/2+z
7 1/2-x,1/2-y,-z
8 1/2+x,1/2-y,1/2+z
_cell_length_a                   6.9876(18)
_cell_length_b                   6.3236(16)
_cell_length_c                   25.565(7)
_cell_angle_alpha                90
_cell_angle_beta                 95.046(3)
_cell_angle_gamma                90
_cell_volume                     1125.26
loop_
_atom_site_label
_atom_site_type_symbol
_atom_site_fract_x
_atom_site_fract_y
_atom_site_fract_z
Ba1 Ba 0.5000 0.0000 0.5000
O1 O 0.70931(19) 0.3106(2) 0.55376(5)
O2 O 0.6597(2) 0.6573(2) 0.54763(5)
N1 N 0.5621(2) 0.2871(3) 0.64848(6)
N2 N 0.5145(2) 0.0900(3) 0.63147(7)
N3 N 0.5831(3) -0.0389(3) 0.66815(7)
N4 N 0.6762(3) 0.0711(3) 0.70877(7)
C1 C 0.6608(3) 0.2713(3) 0.69544(8)
H1 H 0.7118 0.3868 0.7160
C2 C 0.5198(3) 0.4738(3) 0.61617(8)
H2 H 0.5458 0.6021 0.6378
H3 H 0.3818 0.4739 0.6035
C3 C 0.6403(3) 0.4813(3) 0.56882(7)
O1D O 0.29069(19) -0.3106(2) 0.44624(5)
O2D O 0.3403(2) -0.6573(2) 0.45237(5)
N1D N 0.4379(2) -0.2871(3) 0.35152(6)
N2D N 0.4855(2) -0.0900(3) 0.36853(7)
N3D N 0.4169(3) 0.0389(3) 0.33185(7)
N4D N 0.3238(3) -0.0711(3) 0.29123(7)
C1D C 0.3392(3) -0.2713(3) 0.30456(8)
H1D H 0.2882 -0.3868 0.2840
C2D C 0.4802(3) -0.4738(3) 0.38383(8)
H2D H 0.4542 -0.6021 0.3622
H3D H 0.6182 -0.4739 0.3965
C3D C 0.3597(3) -0.4813(3) 0.43118(7)
Ba1_2 Ba 0.5000 -1.0000 0.5000
Ba1_3 Ba 0.5000 1.0000 0.5000
Ba1B Ba 0.0000 -0.5000 0.5000
Ba1B_2 Ba 1.0000 0.5000 0.5000
O1B O 0.20931(19) -0.1894(2) 0.55376(5)
O1F O 0.79069(19) 0.1894(2) 0.44624(5)
O2_2 O 0.6597(2) -0.3427(2) 0.54763(5)
O2B O 0.1597(2) 0.1573(2) 0.54763(5)
O2D_2 O 0.3403(2) 0.3427(2) 0.45237(5)
O2F O 0.8403(2) -0.1573(2) 0.45237(5)
loop_
_geom_bond_atom_site_label_1
_geom_bond_atom_site_label_2
_geom_bond_site_symmetry_1
_geom_bond_site_symmetry_2
Ba1 O1 1_555 1_555
O1 C3 1_555 1_555
O2 C3 1_555 1_555
N1 N2 1_555 1_555
N2 N3 1_555 1_555
N3 N4 1_555 1_555
N4 C1 1_555 1_555
C1 N1 1_555 1_555
H1 C1 1_555 1_555
C2 N1 1_555 1_555
H2 C2 1_555 1_555
H3 C2 1_555 1_555
C3 C2 1_555 1_555
O1D Ba1 1_555 1_555
O2D C3D 1_555 1_555
N1D N2D 1_555 1_555
N2D N3D 1_555 1_555
N3D N4D 1_555 1_555
N4D C1D 1_555 1_555
C1D N1D 1_555 1_555
H1D C1D 1_555 1_555
C2D N1D 1_555 1_555
H2D C2D 1_555 1_555
H3D C2D 1_555 1_555
C3D O1D 1_555 1_555
Ba1_2 O2D 1_555 1_555
Ba1_3 O2 1_555 1_555
Ba1B O1D 1_555 1_555
Ba1B_2 O1 1_555 1_555
O1B Ba1 1_555 1_555
O1F Ba1 1_555 1_555
O2_2 Ba1 1_555 1_555
O2B Ba1 1_555 1_555
O2D_2 Ba1 1_555 1_555
O2F Ba1 1_555 1_555
O2 Ba1B_2 1_555 1_555
O2D Ba1B 1_555 1_555
C2D C3D 1_555 1_555
Ba1B O1B 1_555 1_555
Ba1B_2 O1F 1_555 1_555

#END
