
#######################################################################
#
#                 Cambridge Crystallographic Data Centre
#                                CCDC 
#
#######################################################################
#
# If this CIF has been generated from an entry in the Cambridge 
# Structural Database, then it will include bibliographic, chemical, 
# crystal, experimental, refinement or atomic coordinate data resulting 
# from the CCDC's data processing and validation procedures.
#
#######################################################################

data_VINNAH
_symmetry_cell_setting           monoclinic
_symmetry_space_group_name_H-M   'P 21/a'
_symmetry_Int_Tables_number      14
_space_group_name_Hall           '-P 2yab'
loop_
_symmetry_equiv_pos_site_id
_symmetry_equiv_pos_as_xyz
1 x,y,z
2 1/2-x,1/2+y,-z
3 -x,-y,-z
4 1/2+x,1/2-y,z
_cell_length_a                   11.409(3)
_cell_length_b                   10.365(3)
_cell_length_c                   20.326(7)
_cell_angle_alpha                90
_cell_angle_beta                 92.16
_cell_angle_gamma                90
_cell_volume                     2401.93
loop_
_atom_site_label
_atom_site_type_symbol
_atom_site_fract_x
_atom_site_fract_y
_atom_site_fract_z
Pb1 Pb 0.1985(1) 0.1565(1) 0.2758(1)
S1 S 0.0515(5) 0.0788(5) 0.3999(3)
S2 S -0.0383(5) 0.2754(5) 0.3033(3)
C1 C -0.0522(17) 0.1759(20) 0.3683(10)
O1 O -0.1598(12) 0.1809(14) 0.3933(7)
C2 C -0.1900(20) 0.1166(20) 0.4560(11)
C3 C -0.3178(19) 0.0800(21) 0.4492(11)
C4 C -0.1684(22) 0.2195(23) 0.5088(11)
S3 S 0.3142(5) 0.0783(5) 0.1566(3)
S4 S 0.1585(5) 0.3083(5) 0.1556(3)
C5 C 0.2637(18) 0.2177(18) 0.1211(11)
O2 O 0.3041(13) 0.2654(14) 0.0665(7)
C6 C 0.3982(21) 0.1946(23) 0.0311(11)
C7 C 0.3357(23) 0.1204(25) -0.0232(13)
C8 C 0.4699(22) 0.3059(24) 0.0029(13)
N1 N 0.2635(14) -0.0848(15) 0.3055(8)
N2 N 0.0632(15) -0.0203(15) 0.2282(9)
C9 C 0.3613(18) -0.1074(17) 0.3429(10)
C10 C 0.3897(18) -0.2359(18) 0.3582(10)
C11 C 0.3267(16) -0.3389(20) 0.3300(9)
C12 C 0.2249(17) -0.3103(16) 0.2914(10)
C13 C 0.1976(19) -0.1805(15) 0.2788(11)
C14 C 0.0943(16) -0.1484(20) 0.2363(9)
C15 C 0.0294(18) -0.2503(19) 0.2067(9)
C16 C -0.0692(18) -0.2122(18) 0.1666(10)
C17 C -0.0977(18) -0.0823(18) 0.1592(10)
C18 C -0.0301(16) 0.0122(17) 0.1900(9)
C19 C 0.1626(18) -0.4102(17) 0.2572(10)
C20 C 0.0655(18) -0.3792(17) 0.2201(10)
S2C S 0.4617(5) 0.2246(5) 0.3033(3)
Pb1C Pb -0.3015(1) 0.3435(1) 0.2758(1)
loop_
_geom_bond_atom_site_label_1
_geom_bond_atom_site_label_2
_geom_bond_site_symmetry_1
_geom_bond_site_symmetry_2
Pb1 S1 1_555 1_555
S1 C1 1_555 1_555
S2 Pb1 1_555 1_555
C1 S2 1_555 1_555
O1 C1 1_555 1_555
C2 O1 1_555 1_555
C3 C2 1_555 1_555
C4 C2 1_555 1_555
S3 Pb1 1_555 1_555
S4 Pb1 1_555 1_555
C5 S3 1_555 1_555
O2 C5 1_555 1_555
C6 O2 1_555 1_555
C7 C6 1_555 1_555
C8 C6 1_555 1_555
N1 Pb1 1_555 1_555
N2 Pb1 1_555 1_555
C9 N1 1_555 1_555
C10 C9 1_555 1_555
C11 C10 1_555 1_555
C12 C11 1_555 1_555
C13 N1 1_555 1_555
C14 N2 1_555 1_555
C15 C14 1_555 1_555
C16 C15 1_555 1_555
C17 C16 1_555 1_555
C18 N2 1_555 1_555
C19 C12 1_555 1_555
C20 C15 1_555 1_555
S2C Pb1 1_555 1_555
Pb1C S2 1_555 1_555
S4 C5 1_555 1_555
C12 C13 1_555 1_555
C13 C14 1_555 1_555
C17 C18 1_555 1_555
C19 C20 1_555 1_555

#END
