
#######################################################################
#
#                 Cambridge Crystallographic Data Centre
#                                CCDC 
#
#######################################################################
#
# If this CIF has been generated from an entry in the Cambridge 
# Structural Database, then it will include bibliographic, chemical, 
# crystal, experimental, refinement or atomic coordinate data resulting 
# from the CCDC's data processing and validation procedures.
#
#######################################################################

data_VINSOB
_symmetry_cell_setting           monoclinic
_symmetry_space_group_name_H-M   'P 21/n'
_symmetry_Int_Tables_number      14
_space_group_name_Hall           '-P 2yn'
loop_
_symmetry_equiv_pos_site_id
_symmetry_equiv_pos_as_xyz
1 x,y,z
2 1/2-x,1/2+y,1/2-z
3 -x,-y,-z
4 1/2+x,1/2-y,1/2+z
_cell_length_a                   9.428(2)
_cell_length_b                   14.950(3)
_cell_length_c                   18.141(3)
_cell_angle_alpha                90
_cell_angle_beta                 93.73(1)
_cell_angle_gamma                90
_cell_volume                     2551.53
loop_
_atom_site_label
_atom_site_type_symbol
_atom_site_fract_x
_atom_site_fract_y
_atom_site_fract_z
Er1 Er 0.195112(17) 0.583350(11) 0.500547(9)
Cu1 Cu 0.5000 0.0000 0.5000
O1 O 0.2276(3) 0.43094(19) 0.50380(17)
O2 O 0.0265(3) 0.3546(2) 0.5102(2)
O3 O 0.3565(3) -0.05365(19) 0.42834(15)
O4 O 0.1840(3) -0.1228(2) 0.48647(16)
O5 O 0.3946(3) 0.56735(18) 0.41807(15)
O6 O 0.2709(3) 0.69106(19) 0.41251(15)
O7 O 0.1057(3) 0.5478(2) 0.61038(16)
O8 O -0.0915(3) 0.4662(2) 0.60972(16)
O9 O 0.2219(3) 0.7203(2) 0.56805(17)
O10 O 0.4048(3) 0.5705(2) 0.57588(16)
C1 C 0.1576(4) -0.1050(3) 0.3564(2)
N1 N 0.3860(3) 0.1133(2) 0.49736(17)
N2 N 0.0137(5) -0.1247(3) 0.2175(2)
N3 N 0.5739(5) 0.7292(3) 0.1968(2)
N4 N 0.0925(4) 0.4498(4) 0.8722(2)
C2 C 0.4529(4) 0.1930(3) 0.4985(2)
H1 H 0.5517 0.1935 0.4994
C3 C 0.3833(4) 0.2728(3) 0.4984(2)
H2 H 0.4341 0.3262 0.4986
C4 C 0.2358(4) 0.2740(3) 0.49817(19)
C5 C 0.1650(4) 0.1930(3) 0.4947(2)
H3 H 0.0663 0.1912 0.4928
C6 C 0.2427(4) 0.1143(3) 0.4941(2)
H4 H 0.1942 0.0601 0.4913
C7 C 0.1565(4) 0.3606(3) 0.5037(2)
C8 C 0.1263(6) -0.0717(4) 0.2278(3)
H5 H 0.1575 -0.0414 0.1871
C9 C 0.1997(5) -0.0590(3) 0.2953(3)
H6 H 0.2766 -0.0199 0.2997
C10 C 0.0423(4) -0.1615(3) 0.3461(2)
H7 H 0.0107 -0.1946 0.3853
C11 C -0.0256(5) -0.1680(3) 0.2761(3)
H8 H -0.1042 -0.2055 0.2701
C12 C 0.2383(4) -0.0942(3) 0.4308(2)
C13 C 0.6310(6) 0.6690(4) 0.2434(3)
H9 H 0.7198 0.6463 0.2337
C14 C 0.5692(5) 0.6372(3) 0.3052(3)
H10 H 0.6146 0.5942 0.3354
C15 C 0.4379(4) 0.6709(3) 0.3211(2)
C16 C 0.3772(5) 0.7340(3) 0.2739(3)
H11 H 0.2896 0.7589 0.2831
C17 C 0.4469(6) 0.7603(4) 0.2127(3)
H12 H 0.4026 0.8021 0.1808
C18 C 0.3644(4) 0.6409(3) 0.3882(2)
C19 C 0.1586(5) 0.5133(4) 0.8385(3)
H13 H 0.2221 0.5487 0.8669
C20 C 0.1408(5) 0.5315(4) 0.7642(2)
H14 H 0.1906 0.5779 0.7434
C21 C 0.0475(4) 0.4793(3) 0.7211(2)
C22 C -0.0189(5) 0.4099(3) 0.7545(2)
H15 H -0.0799 0.3719 0.7271
C23 C 0.0067(5) 0.3977(4) 0.8295(3)
H16 H -0.0384 0.3503 0.8516
C24 C 0.0190(4) 0.4989(3) 0.6402(2)
H17 H 0.212(5) 0.760(2) 0.537(2)
H18 H 0.171(4) 0.732(3) 0.6015(19)
H19 H 0.462(3) 0.5295(19) 0.575(2)
H20 H 0.430(5) 0.596(3) 0.6141(16)
Er1B Er 0.804888(17) -0.583350(11) 0.499453(9)
Er1B_2 Er -0.195112(17) 0.416650(11) 0.499453(9)
Er1_2 Er 1.195112(17) -0.416650(11) 0.500547(9)
O1B O 0.7724(3) -0.43094(19) 0.49620(17)
O2B O 0.9735(3) -0.3546(2) 0.4898(2)
O2B_2 O -0.0265(3) 0.6454(2) 0.4898(2)
O2_2 O 1.0265(3) -0.6454(2) 0.5102(2)
O3B O 0.6435(3) 0.05365(19) 0.57166(15)
O4B O 0.8160(3) 0.1228(2) 0.51353(16)
O5B O 0.6054(3) -0.56735(18) 0.58193(15)
O6B O 0.7291(3) -0.69106(19) 0.58749(15)
O7B O -0.1057(3) 0.4522(2) 0.38962(16)
O7B_2 O 0.8943(3) -0.5478(2) 0.38962(16)
O8B O 0.0915(3) 0.5338(2) 0.39028(16)
O8_2 O 0.9085(3) -0.5338(2) 0.60972(16)
O9B O 0.7781(3) -0.7203(2) 0.43195(17)
O10B O 0.5952(3) -0.5705(2) 0.42412(16)
C1B C 0.8424(4) 0.1050(3) 0.6436(2)
N1B N 0.6140(3) -0.1133(2) 0.50264(17)
N2B N 0.9863(5) 0.1247(3) 0.7825(2)
N3B N 0.4261(5) -0.7292(3) 0.8032(2)
N4B N -0.0925(4) 0.5502(4) 0.1278(2)
C2B C 0.5471(4) -0.1930(3) 0.5015(2)
H1B H 0.4483 -0.1935 0.5006
C3B C 0.6167(4) -0.2728(3) 0.5016(2)
H2B H 0.5659 -0.3262 0.5014
C4B C 0.7642(4) -0.2740(3) 0.50183(19)
C5B C 0.8350(4) -0.1930(3) 0.5053(2)
H3B H 0.9337 -0.1912 0.5072
C6B C 0.7573(4) -0.1143(3) 0.5059(2)
H4B H 0.8058 -0.0601 0.5087
C7B C 0.8435(4) -0.3606(3) 0.4963(2)
C8B C 0.8737(6) 0.0717(4) 0.7722(3)
H5B H 0.8425 0.0414 0.8129
C9B C 0.8003(5) 0.0590(3) 0.7047(3)
H6B H 0.7234 0.0199 0.7003
C10B C 0.9577(4) 0.1615(3) 0.6539(2)
H7B H 0.9893 0.1946 0.6147
C11B C 1.0256(5) 0.1680(3) 0.7239(3)
H8B H 1.1042 0.2055 0.7299
C12B C 0.7617(4) 0.0942(3) 0.5692(2)
C13B C 0.3690(6) -0.6690(4) 0.7566(3)
H9B H 0.2802 -0.6463 0.7663
C14B C 0.4308(5) -0.6372(3) 0.6948(3)
H10B H 0.3854 -0.5942 0.6646
C15B C 0.5621(4) -0.6709(3) 0.6789(2)
C16B C 0.6228(5) -0.7340(3) 0.7261(3)
H11B H 0.7104 -0.7589 0.7169
C17B C 0.5531(6) -0.7603(4) 0.7873(3)
H12B H 0.5974 -0.8021 0.8192
C18B C 0.6356(4) -0.6409(3) 0.6118(2)
C19B C -0.1586(5) 0.4867(4) 0.1615(3)
H13B H -0.2221 0.4513 0.1331
C20B C -0.1408(5) 0.4685(4) 0.2358(2)
H14B H -0.1906 0.4221 0.2566
C21B C -0.0475(4) 0.5207(3) 0.2789(2)
C22B C 0.0189(5) 0.5901(3) 0.2455(2)
H15B H 0.0799 0.6281 0.2729
C23B C -0.0067(5) 0.6023(4) 0.1705(3)
H16B H 0.0384 0.6497 0.1484
C24B C -0.0190(4) 0.5011(3) 0.3598(2)
H17B H 0.788(5) -0.760(2) 0.463(2)
H18B H 0.829(4) -0.732(3) 0.3985(19)
H19B H 0.538(3) -0.5295(19) 0.425(2)
H20B H 0.570(5) -0.596(3) 0.3859(16)
loop_
_geom_bond_atom_site_label_1
_geom_bond_atom_site_label_2
_geom_bond_site_symmetry_1
_geom_bond_site_symmetry_2
Er1 O1 1_555 1_555
Cu1 O3 1_555 1_555
O1 C7 1_555 1_555
O2 C7 1_555 1_555
O3 C12 1_555 1_555
O4 C12 1_555 1_555
O5 Er1 1_555 1_555
O6 Er1 1_555 1_555
O7 Er1 1_555 1_555
O8 C24 1_555 1_555
O9 Er1 1_555 1_555
O10 Er1 1_555 1_555
C1 C9 1_555 1_555
N1 Cu1 1_555 1_555
N2 C8 1_555 1_555
N3 C13 1_555 1_555
N4 C19 1_555 1_555
C2 N1 1_555 1_555
H1 C2 1_555 1_555
C3 C2 1_555 1_555
H2 C3 1_555 1_555
C4 C3 1_555 1_555
C5 C4 1_555 1_555
H3 C5 1_555 1_555
C6 N1 1_555 1_555
H4 C6 1_555 1_555
C7 C4 1_555 1_555
C8 H5 1_555 1_555
C9 C8 1_555 1_555
H6 C9 1_555 1_555
C10 C1 1_555 1_555
H7 C10 1_555 1_555
C11 N2 1_555 1_555
H8 C11 1_555 1_555
C12 C1 1_555 1_555
C13 H9 1_555 1_555
C14 C13 1_555 1_555
H10 C14 1_555 1_555
C15 C14 1_555 1_555
C16 C15 1_555 1_555
H11 C16 1_555 1_555
C17 N3 1_555 1_555
H12 C17 1_555 1_555
C18 O5 1_555 1_555
C19 H13 1_555 1_555
C20 C19 1_555 1_555
H14 C20 1_555 1_555
C21 C20 1_555 1_555
C22 C21 1_555 1_555
H15 C22 1_555 1_555
C23 N4 1_555 1_555
H16 C23 1_555 1_555
C24 O7 1_555 1_555
H17 O9 1_555 1_555
H18 O9 1_555 1_555
H19 O10 1_555 1_555
H20 O10 1_555 1_555
Er1B O1B 1_555 1_555
Er1B_2 O2 1_555 1_555
Er1_2 O2B 1_555 1_555
O1B C7B 1_555 1_555
O2B C7B 1_555 1_555
O2B_2 Er1 1_555 1_555
O2_2 Er1B 1_555 1_555
O3B Cu1 1_555 1_555
O4B C12B 1_555 1_555
O5B Er1B 1_555 1_555
O6B Er1B 1_555 1_555
O7B Er1B_2 1_555 1_555
O7B_2 Er1B 1_555 1_555
O8B Er1 1_555 1_555
O8_2 Er1B 1_555 1_555
O9B Er1B 1_555 1_555
O10B Er1B 1_555 1_555
C1B C9B 1_555 1_555
N1B Cu1 1_555 1_555
N2B C8B 1_555 1_555
N3B C13B 1_555 1_555
N4B C19B 1_555 1_555
C2B N1B 1_555 1_555
H1B C2B 1_555 1_555
C3B C2B 1_555 1_555
H2B C3B 1_555 1_555
C4B C3B 1_555 1_555
C5B C4B 1_555 1_555
H3B C5B 1_555 1_555
C6B N1B 1_555 1_555
H4B C6B 1_555 1_555
C7B C4B 1_555 1_555
C8B H5B 1_555 1_555
C9B C8B 1_555 1_555
H6B C9B 1_555 1_555
C10B C1B 1_555 1_555
H7B C10B 1_555 1_555
C11B N2B 1_555 1_555
H8B C11B 1_555 1_555
C12B O3B 1_555 1_555
C13B H9B 1_555 1_555
C14B C13B 1_555 1_555
H10B C14B 1_555 1_555
C15B C14B 1_555 1_555
C16B C15B 1_555 1_555
H11B C16B 1_555 1_555
C17B N3B 1_555 1_555
H12B C17B 1_555 1_555
C18B O5B 1_555 1_555
C19B H13B 1_555 1_555
C20B C19B 1_555 1_555
H14B C20B 1_555 1_555
C21B C20B 1_555 1_555
C22B C21B 1_555 1_555
H15B C22B 1_555 1_555
C23B N4B 1_555 1_555
H16B C23B 1_555 1_555
C24B O7B 1_555 1_555
H17B O9B 1_555 1_555
H18B O9B 1_555 1_555
H19B O10B 1_555 1_555
H20B O10B 1_555 1_555
O6 C18 1_555 1_555
O8 Er1B_2 1_555 1_555
C5 C6 1_555 1_555
C10 C11 1_555 1_555
C15 C18 1_555 1_555
C16 C17 1_555 1_555
C21 C24 1_555 1_555
C22 C23 1_555 1_555
O6B C18B 1_555 1_555
O8B C24B 1_555 1_555
C1B C12B 1_555 1_555
C5B C6B 1_555 1_555
C10B C11B 1_555 1_555
C15B C18B 1_555 1_555
C16B C17B 1_555 1_555
C21B C24B 1_555 1_555
C22B C23B 1_555 1_555

#END
