
#######################################################################
#
#                 Cambridge Crystallographic Data Centre
#                                CCDC 
#
#######################################################################
#
# If this CIF has been generated from an entry in the Cambridge 
# Structural Database, then it will include bibliographic, chemical, 
# crystal, experimental, refinement or atomic coordinate data resulting 
# from the CCDC's data processing and validation procedures.
#
#######################################################################

data_VINSIV
_symmetry_cell_setting           monoclinic
_symmetry_space_group_name_H-M   'P 21/n'
_symmetry_Int_Tables_number      14
_space_group_name_Hall           '-P 2yn'
loop_
_symmetry_equiv_pos_site_id
_symmetry_equiv_pos_as_xyz
1 x,y,z
2 1/2-x,1/2+y,1/2-z
3 -x,-y,-z
4 1/2+x,1/2-y,1/2+z
_cell_length_a                   9.4896(14)
_cell_length_b                   14.993(2)
_cell_length_c                   18.225(3)
_cell_angle_alpha                90
_cell_angle_beta                 93.815(3)
_cell_angle_gamma                90
_cell_volume                     2587.26
loop_
_atom_site_label
_atom_site_type_symbol
_atom_site_fract_x
_atom_site_fract_y
_atom_site_fract_z
Gd1 Gd -0.696270(8) -0.415490(5) -0.000600(4)
Cu1 Cu 0.0000 0.0000 0.0000
C1 C -0.9415(2) -0.32803(14) 0.17960(11)
C2 C -0.8805(3) -0.26569(17) 0.22751(14)
H1 H -0.7929 -0.2413 0.2190
C3 C -0.9505(3) -0.23978(19) 0.28823(15)
H2 H -0.9072 -0.1984 0.3204
C4 C -1.1335(3) -0.3315(2) 0.25667(17)
H3 H -1.2211 -0.3549 0.2664
C5 C -1.0711(3) -0.36235(18) 0.19487(15)
H4 H -1.1156 -0.4051 0.1645
C6 C -0.86696(19) -0.35704(13) 0.11306(10)
C7 C -0.4517(2) -0.47927(13) 0.22191(10)
C8 C -0.3591(3) -0.53082(19) 0.26482(12)
H5 H -0.3088 -0.5766 0.2441
C9 C -0.3422(3) -0.5134(2) 0.33932(14)
H6 H -0.2800 -0.5491 0.3678
C10 C -0.4922(3) -0.39706(19) 0.32970(14)
H7 H -0.5360 -0.3493 0.3515
C11 C -0.5181(2) -0.40921(14) 0.25514(13)
H8 H -0.5787 -0.3713 0.2278
C12 C -0.4809(2) -0.49846(13) 0.14143(10)
C13 C -0.2630(2) -0.27211(12) -0.00174(10)
C14 C -0.1169(2) -0.27204(12) -0.00169(11)
H9 H -0.0672 -0.3255 -0.0018
C15 C -0.0465(2) -0.19162(12) -0.00148(11)
H10 H 0.0516 -0.1919 -0.0007
C16 C -0.2554(2) -0.11348(13) -0.00523(11)
H11 H -0.3028 -0.0591 -0.0075
C17 C -0.3340(2) -0.19130(13) -0.00500(11)
H12 H -0.4321 -0.1894 -0.0070
C18 C -0.3421(2) -0.35935(13) 0.00405(11)
C19 C 0.3393(2) -0.10420(13) 0.14354(11)
C20 C 0.4546(2) -0.16019(15) 0.15345(12)
H13 H 0.4862 -0.1927 0.1143
C21 C 0.5223(2) -0.16686(17) 0.22315(14)
H14 H 0.6002 -0.2044 0.2291
C22 C 0.3698(3) -0.07101(19) 0.27182(16)
H15 H 0.3381 -0.0412 0.3123
C23 C 0.2971(3) -0.05904(17) 0.20431(14)
H16 H 0.2200 -0.0207 0.1998
C24 C 0.2598(2) -0.09349(12) 0.06895(11)
N1 N -1.0770(3) -0.27128(15) 0.30280(12)
N2 N -0.4086(2) -0.44933(19) 0.37254(11)
N3 N -0.11399(16) -0.11326(10) -0.00237(9)
N4 N 0.4833(2) -0.12336(15) 0.28166(11)
O1 O -0.89758(15) -0.43072(9) 0.08303(8)
O2 O -0.77530(16) -0.30638(9) 0.08895(8)
O3 O -0.58980(17) -0.46592(13) 0.11122(9)
O4 O -0.60489(19) -0.45239(12) -0.11209(9)
O5 O -0.47089(16) -0.35354(11) 0.01023(11)
O6 O 0.27125(18) 0.42924(10) -0.00416(10)
O7 O 0.14176(15) -0.05361(10) 0.07134(8)
O8 O 0.31433(17) -0.12162(12) 0.01408(9)
O9 O -0.90952(17) -0.42922(12) -0.07787(9)
H17 H -0.933(3) -0.4049(17) -0.1164(17)
H18 H -0.957(3) -0.4626(19) -0.0751(15)
O10 O -0.72252(17) -0.27595(10) -0.06902(9)
H19 H -0.685(3) -0.266(2) -0.1034(18)
H20 H -0.713(3) -0.229(2) -0.0484(17)
Gd1B Gd -0.303730(8) -0.584510(5) 0.000600(4)
Gd1B_2 Gd 0.696270(8) 0.415490(5) 0.000600(4)
Gd1_2 Gd 0.303730(8) 0.584510(5) -0.000600(4)
C1B C 0.9415(2) 0.32803(14) -0.17960(11)
C2B C 0.8805(3) 0.26569(17) -0.22751(14)
H1B H 0.7929 0.2413 -0.2190
C3B C 0.9505(3) 0.23978(19) -0.28823(15)
H2B H 0.9072 0.1984 -0.3204
C4B C 1.1335(3) 0.3315(2) -0.25667(17)
H3B H 1.2211 0.3549 -0.2664
C5B C 1.0711(3) 0.36235(18) -0.19487(15)
H4B H 1.1156 0.4051 -0.1645
C6B C 0.86696(19) 0.35704(13) -0.11306(10)
C7B C -0.5483(2) -0.52073(13) -0.22191(10)
C8B C -0.6409(3) -0.46918(19) -0.26482(12)
H5B H -0.6912 -0.4234 -0.2441
C9B C -0.6578(3) -0.4866(2) -0.33932(14)
H6B H -0.7200 -0.4509 -0.3678
C10B C -0.5078(3) -0.60294(19) -0.32970(14)
H7B H -0.4640 -0.6507 -0.3515
C11B C -0.4819(2) -0.59079(14) -0.25514(13)
H8B H -0.4213 -0.6287 -0.2278
C12B C -0.5191(2) -0.50154(13) -0.14143(10)
C13B C 0.2630(2) 0.27211(12) 0.00174(10)
C14B C 0.1169(2) 0.27204(12) 0.00169(11)
H9B H 0.0672 0.3255 0.0018
C15B C 0.0465(2) 0.19162(12) 0.00148(11)
H10B H -0.0516 0.1919 0.0007
C16B C 0.2554(2) 0.11348(13) 0.00523(11)
H11B H 0.3028 0.0591 0.0075
C17B C 0.3340(2) 0.19130(13) 0.00500(11)
H12B H 0.4321 0.1894 0.0070
C18B C 0.3421(2) 0.35935(13) -0.00405(11)
C19B C -0.3393(2) 0.10420(13) -0.14354(11)
C20B C -0.4546(2) 0.16019(15) -0.15345(12)
H13B H -0.4862 0.1927 -0.1143
C21B C -0.5223(2) 0.16686(17) -0.22315(14)
H14B H -0.6002 0.2044 -0.2291
C22B C -0.3698(3) 0.07101(19) -0.27182(16)
H15B H -0.3381 0.0412 -0.3123
C23B C -0.2971(3) 0.05904(17) -0.20431(14)
H16B H -0.2200 0.0207 -0.1998
C24B C -0.2598(2) 0.09349(12) -0.06895(11)
N1B N 1.0770(3) 0.27128(15) -0.30280(12)
N2B N -0.5914(2) -0.55067(19) -0.37254(11)
N3B N 0.11399(16) 0.11326(10) 0.00237(9)
N4B N -0.4833(2) 0.12336(15) -0.28166(11)
O1B O 0.89758(15) 0.43072(9) -0.08303(8)
O2B O 0.77530(16) 0.30638(9) -0.08895(8)
O3B O -0.41020(17) -0.53408(13) -0.11122(9)
O3B_2 O 0.58980(17) 0.46592(13) -0.11122(9)
O4B O -0.39511(19) -0.54761(12) 0.11209(9)
O4B_2 O 0.60489(19) 0.45239(12) 0.11209(9)
O5B O 0.47089(16) 0.35354(11) -0.01023(11)
O6B O 0.72875(18) 0.57076(10) 0.00416(10)
O6_2 O -0.72875(18) -0.57076(10) -0.00416(10)
O6B_2 O -0.27125(18) -0.42924(10) 0.00416(10)
O7B O -0.14176(15) 0.05361(10) -0.07134(8)
O8B O -0.31433(17) 0.12162(12) -0.01408(9)
O9B O 0.90952(17) 0.42922(12) 0.07787(9)
H17B H 0.933(3) 0.4049(17) 0.1164(17)
H18B H 0.957(3) 0.4626(19) 0.0751(15)
O10B O 0.72252(17) 0.27595(10) 0.06902(9)
H19B H 0.685(3) 0.266(2) 0.1034(18)
H20B H 0.713(3) 0.229(2) 0.0484(17)
loop_
_geom_bond_atom_site_label_1
_geom_bond_atom_site_label_2
_geom_bond_site_symmetry_1
_geom_bond_site_symmetry_2
Gd1 O1 1_555 1_555
Cu1 N3 1_555 1_555
C1 C2 1_555 1_555
C2 H1 1_555 1_555
C3 C2 1_555 1_555
H2 C3 1_555 1_555
C4 H3 1_555 1_555
C5 C1 1_555 1_555
H4 C5 1_555 1_555
C6 C1 1_555 1_555
C7 C8 1_555 1_555
C8 H5 1_555 1_555
C9 C8 1_555 1_555
H6 C9 1_555 1_555
C10 H7 1_555 1_555
C11 C7 1_555 1_555
H8 C11 1_555 1_555
C12 C7 1_555 1_555
C13 C14 1_555 1_555
C14 H9 1_555 1_555
C15 C14 1_555 1_555
H10 C15 1_555 1_555
C16 H11 1_555 1_555
C17 C13 1_555 1_555
H12 C17 1_555 1_555
C18 C13 1_555 1_555
C19 C20 1_555 1_555
C20 H13 1_555 1_555
C21 C20 1_555 1_555
H14 C21 1_555 1_555
C22 H15 1_555 1_555
C23 C19 1_555 1_555
H16 C23 1_555 1_555
C24 C19 1_555 1_555
N1 C3 1_555 1_555
N2 C9 1_555 1_555
N3 C15 1_555 1_555
N4 C21 1_555 1_555
O1 C6 1_555 1_555
O2 Gd1 1_555 1_555
O3 Gd1 1_555 1_555
O4 Gd1 1_555 1_555
O5 Gd1 1_555 1_555
O6 Gd1_2 1_555 1_555
O7 Cu1 1_555 1_555
O8 C24 1_555 1_555
O9 Gd1 1_555 1_555
H17 O9 1_555 1_555
H18 O9 1_555 1_555
O10 Gd1 1_555 1_555
H19 O10 1_555 1_555
H20 O10 1_555 1_555
Gd1B O3B 1_555 1_555
Gd1B_2 O1B 1_555 1_555
C1B C2B 1_555 1_555
C2B H1B 1_555 1_555
C3B C2B 1_555 1_555
H2B C3B 1_555 1_555
C4B H3B 1_555 1_555
C5B C1B 1_555 1_555
H4B C5B 1_555 1_555
C6B C1B 1_555 1_555
C7B C8B 1_555 1_555
C8B H5B 1_555 1_555
C9B C8B 1_555 1_555
H6B C9B 1_555 1_555
C10B H7B 1_555 1_555
C11B C7B 1_555 1_555
H8B C11B 1_555 1_555
C12B O4 1_555 1_555
C13B C14B 1_555 1_555
C14B H9B 1_555 1_555
C15B C14B 1_555 1_555
H10B C15B 1_555 1_555
C16B H11B 1_555 1_555
C17B C13B 1_555 1_555
H12B C17B 1_555 1_555
C18B O6 1_555 1_555
C19B C20B 1_555 1_555
C20B H13B 1_555 1_555
C21B C20B 1_555 1_555
H14B C21B 1_555 1_555
C22B H15B 1_555 1_555
C23B C19B 1_555 1_555
H16B C23B 1_555 1_555
C24B C19B 1_555 1_555
N1B C3B 1_555 1_555
N2B C9B 1_555 1_555
N3B Cu1 1_555 1_555
N4B C21B 1_555 1_555
O1B C6B 1_555 1_555
O2B Gd1B_2 1_555 1_555
O3B C12B 1_555 1_555
O3B_2 Gd1B_2 1_555 1_555
O4B C12 1_555 1_555
O4B_2 Gd1B_2 1_555 1_555
O5B Gd1B_2 1_555 1_555
O6B Gd1B_2 1_555 1_555
O6_2 Gd1 1_555 1_555
O6B_2 C18 1_555 1_555
O7B Cu1 1_555 1_555
O8B C24B 1_555 1_555
O9B Gd1B_2 1_555 1_555
H17B O9B 1_555 1_555
H18B O9B 1_555 1_555
O10B Gd1B_2 1_555 1_555
H19B O10B 1_555 1_555
H20B O10B 1_555 1_555
C4 C5 1_555 1_555
C4 N1 1_555 1_555
C6 O2 1_555 1_555
C10 C11 1_555 1_555
C10 N2 1_555 1_555
C12 O3 1_555 1_555
C16 C17 1_555 1_555
C16 N3 1_555 1_555
C18 O5 1_555 1_555
C22 C23 1_555 1_555
C22 N4 1_555 1_555
C24 O7 1_555 1_555
Gd1B O4B 1_555 1_555
Gd1B O6B_2 1_555 1_555
C4B C5B 1_555 1_555
C4B N1B 1_555 1_555
C6B O2B 1_555 1_555
C7B C12B 1_555 1_555
C10B C11B 1_555 1_555
C10B N2B 1_555 1_555
C13B C18B 1_555 1_555
C15B N3B 1_555 1_555
C16B C17B 1_555 1_555
C16B N3B 1_555 1_555
C18B O5B 1_555 1_555
C22B C23B 1_555 1_555
C22B N4B 1_555 1_555
C24B O7B 1_555 1_555

#END
