
#######################################################################
#
#                 Cambridge Crystallographic Data Centre
#                                CCDC 
#
#######################################################################
#
# If this CIF has been generated from an entry in the Cambridge 
# Structural Database, then it will include bibliographic, chemical, 
# crystal, experimental, refinement or atomic coordinate data resulting 
# from the CCDC's data processing and validation procedures.
#
#######################################################################

data_VINTAO
_symmetry_cell_setting           monoclinic
_symmetry_space_group_name_H-M   'C 2/m'
_symmetry_Int_Tables_number      12
_space_group_name_Hall           '-C 2y'
loop_
_symmetry_equiv_pos_site_id
_symmetry_equiv_pos_as_xyz
1 x,y,z
2 1/2+x,1/2+y,z
3 -x,y,-z
4 1/2-x,1/2+y,-z
5 -x,-y,-z
6 1/2-x,1/2-y,-z
7 x,-y,z
8 1/2+x,1/2-y,z
_cell_length_a                   11.2892(17)
_cell_length_b                   16.663(2)
_cell_length_c                   7.4223(11)
_cell_angle_alpha                90.00
_cell_angle_beta                 108.926(2)
_cell_angle_gamma                90.00
_cell_volume                     1320.74
loop_
_atom_site_label
_atom_site_type_symbol
_atom_site_fract_x
_atom_site_fract_y
_atom_site_fract_z
Ni1 Ni 0.5000 0.0000 0.5000
S1 S 0.0000 0.29104(3) 0.0000
S2 S 0.77661(6) 0.0000 1.14849(9)
N1 N 0.38712(12) 0.09355(8) 0.57249(18)
H1 H 0.3479 0.0704 0.6470
H2 H 0.4412 0.1294 0.6458
N2 N 0.60601(18) 0.0000 0.7790(3)
C1 C 0.07902(15) 0.15671(11) 0.2330(2)
H3 H -0.0038 0.1394 0.1938
C2 C 0.16994(16) 0.11373(10) 0.3684(3)
H4 H 0.1478 0.0672 0.4190
C3 C 0.29375(14) 0.13885(9) 0.4302(2)
C4 C 0.32543(14) 0.20756(9) 0.3514(2)
H5 H 0.4082 0.2249 0.3908
C5 C 0.23521(14) 0.25076(10) 0.2146(2)
H6 H 0.2578 0.2967 0.1622
C6 C 0.11147(14) 0.22586(10) 0.1553(2)
C7 C 0.6753(2) 0.0000 0.9317(3)
Ni1_2 Ni -0.5000 0.0000 -0.5000
S1F S 0.0000 -0.29104(3) 0.0000
S2D S 0.22339(6) 0.0000 -0.14849(9)
N1B N -0.38712(12) 0.09355(8) -0.57249(18)
N1D N -0.38712(12) -0.09355(8) -0.57249(18)
N1F N 0.38712(12) -0.09355(8) 0.57249(18)
N1D_2 N 0.61288(12) -0.09355(8) 0.42751(18)
N1B_2 N 0.61288(12) 0.09355(8) 0.42751(18)
H1D H -0.3479 -0.0704 -0.6470
H1F H 0.3479 -0.0704 0.6470
H1B H -0.3479 0.0704 -0.6470
H1D_2 H 0.6521 -0.0704 0.3530
H1B_2 H 0.6521 0.0704 0.3530
H2D H -0.4412 -0.1294 -0.6458
H2F H 0.4412 -0.1294 0.6458
H2B H -0.4412 0.1294 -0.6458
H2D_2 H 0.5588 -0.1294 0.3542
H2B_2 H 0.5588 0.1294 0.3542
N2D N 0.39399(18) 0.0000 0.2210(3)
C1B C -0.07902(15) 0.15671(11) -0.2330(2)
C1D C -0.07902(15) -0.15671(11) -0.2330(2)
C1F C 0.07902(15) -0.15671(11) 0.2330(2)
H3B H 0.0038 0.1394 -0.1938
H3D H 0.0038 -0.1394 -0.1938
H3F H -0.0038 -0.1394 0.1938
C2B C -0.16994(16) 0.11373(10) -0.3684(3)
C2D C -0.16994(16) -0.11373(10) -0.3684(3)
C2F C 0.16994(16) -0.11373(10) 0.3684(3)
H4B H -0.1478 0.0672 -0.4190
H4F H 0.1478 -0.0672 0.4190
H4D H -0.1478 -0.0672 -0.4190
C3B C -0.29375(14) 0.13885(9) -0.4302(2)
C3D C -0.29375(14) -0.13885(9) -0.4302(2)
C3F C 0.29375(14) -0.13885(9) 0.4302(2)
C4F C 0.32543(14) -0.20756(9) 0.3514(2)
C4D C -0.32543(14) -0.20756(9) -0.3514(2)
C4B C -0.32543(14) 0.20756(9) -0.3514(2)
H5F H 0.4082 -0.2249 0.3908
H5D H -0.4082 -0.2249 -0.3908
H5B H -0.4082 0.2249 -0.3908
C5F C 0.23521(14) -0.25076(10) 0.2146(2)
C5D C -0.23521(14) -0.25076(10) -0.2146(2)
C5B C -0.23521(14) 0.25076(10) -0.2146(2)
H6F H 0.2578 -0.2967 0.1622
H6D H -0.2578 -0.2967 -0.1622
H6B H -0.2578 0.2967 -0.1622
C6B C -0.11147(14) 0.22586(10) -0.1553(2)
C6D C -0.11147(14) -0.22586(10) -0.1553(2)
C6F C 0.11147(14) -0.22586(10) 0.1553(2)
C7D C 0.3247(2) 0.0000 0.0683(3)
loop_
_geom_bond_atom_site_label_1
_geom_bond_atom_site_label_2
_geom_bond_site_symmetry_1
_geom_bond_site_symmetry_2
Ni1 N1 1_555 1_555
S1 C6 1_555 1_555
S2 C7 1_555 1_555
N1 H1 1_555 1_555
H2 N1 1_555 1_555
N2 Ni1 1_555 1_555
C1 H3 1_555 1_555
C2 C1 1_555 1_555
H4 C2 1_555 1_555
C3 N1 1_555 1_555
C4 C3 1_555 1_555
H5 C4 1_555 1_555
C5 C4 1_555 1_555
H6 C5 1_555 1_555
C6 C1 1_555 1_555
C7 N2 1_555 1_555
Ni1_2 N1B 1_555 1_555
S1F C6D 1_555 1_555
S2D C7D 1_555 1_555
N1B H1B 1_555 1_555
N1D Ni1_2 1_555 1_555
N1F Ni1 1_555 1_555
N1D_2 Ni1 1_555 1_555
N1B_2 Ni1 1_555 1_555
H1D N1D 1_555 1_555
H1F N1F 1_555 1_555
H1D_2 N1D_2 1_555 1_555
H1B_2 N1B_2 1_555 1_555
H2D N1D 1_555 1_555
H2F N1F 1_555 1_555
H2B N1B 1_555 1_555
H2D_2 N1D_2 1_555 1_555
H2B_2 N1B_2 1_555 1_555
N2D Ni1 1_555 1_555
C1B H3B 1_555 1_555
C1D H3D 1_555 1_555
C1F H3F 1_555 1_555
C2B C1B 1_555 1_555
C2D C1D 1_555 1_555
C2F C1F 1_555 1_555
H4B C2B 1_555 1_555
H4F C2F 1_555 1_555
H4D C2D 1_555 1_555
C3B N1B 1_555 1_555
C3D N1D 1_555 1_555
C3F N1F 1_555 1_555
C4F C3F 1_555 1_555
C4D C3D 1_555 1_555
C4B C3B 1_555 1_555
H5F C4F 1_555 1_555
H5D C4D 1_555 1_555
H5B C4B 1_555 1_555
C5F C4F 1_555 1_555
C5D C4D 1_555 1_555
C5B C4B 1_555 1_555
H6F C5F 1_555 1_555
H6D C5D 1_555 1_555
H6B C5B 1_555 1_555
C6B S1 1_555 1_555
C6D C1D 1_555 1_555
C6F S1F 1_555 1_555
C7D N2D 1_555 1_555
C2 C3 1_555 1_555
C5 C6 1_555 1_555
C1B C6B 1_555 1_555
C1F C6F 1_555 1_555
C2B C3B 1_555 1_555
C2D C3D 1_555 1_555
C2F C3F 1_555 1_555
C5F C6F 1_555 1_555
C5D C6D 1_555 1_555
C5B C6B 1_555 1_555

#END
