
#######################################################################
#
#                 Cambridge Crystallographic Data Centre
#                                CCDC 
#
#######################################################################
#
# If this CIF has been generated from an entry in the Cambridge 
# Structural Database, then it will include bibliographic, chemical, 
# crystal, experimental, refinement or atomic coordinate data resulting 
# from the CCDC's data processing and validation procedures.
#
#######################################################################

data_VIPFAC
_symmetry_cell_setting           monoclinic
_symmetry_space_group_name_H-M   'C 2/c'
_symmetry_Int_Tables_number      15
_space_group_name_Hall           '-C 2yn'
loop_
_symmetry_equiv_pos_site_id
_symmetry_equiv_pos_as_xyz
1 x,y,z
2 1/2+x,1/2+y,z
3 -x,y,1/2-z
4 1/2-x,1/2+y,1/2-z
5 -x,-y,-z
6 1/2-x,1/2-y,-z
7 x,-y,1/2+z
8 1/2+x,1/2-y,1/2+z
_cell_length_a                   24.547(1)
_cell_length_b                   9.7033(4)
_cell_length_c                   7.2799(4)
_cell_angle_alpha                90
_cell_angle_beta                 104.354(3)
_cell_angle_gamma                90
_cell_volume                     1679.85
loop_
_atom_site_label
_atom_site_type_symbol
_atom_site_fract_x
_atom_site_fract_y
_atom_site_fract_z
Cu1 Cu 0.7500 0.2500 0.5000
S1 S 0.83784(6) 0.24411(12) 0.15547(17)
S2 S 0.95845(12) 0.3224(3) 0.7409(4)
O1 O 0.80327(18) 0.3750(4) 0.6636(5)
H1 H 0.806(2) 0.352(6) 0.782(3)
H2 H 0.809(3) 0.458(3) 0.624(9)
O2 O 0.71788(19) 0.4063(4) 0.3386(6)
H3 H 0.698(2) 0.464(6) 0.389(9)
H4 H 0.702(3) 0.379(9) 0.223(5)
O3 O 0.81274(18) 0.2124(5) 0.3092(6)
O4 O 0.8138(2) 0.3632(4) 0.0455(6)
O5 O 0.83745(18) 0.1247(4) 0.0348(5)
C1 C 0.9091(3) 0.2854(9) 0.2606(11)
H5 H 0.9282 0.2995 0.1605
H6 H 0.9103 0.3718 0.3284
C2 C 0.9403(4) 0.1805(11) 0.3932(14)
H7 H 0.9801 0.1920 0.4010
H8 H 0.9295 0.0902 0.3391
C3 C 0.9324(4) 0.1818(11) 0.5922(14)
H9 H 0.9497 0.0989 0.6552
H10 H 0.8924 0.1751 0.5829
Cu1B Cu 1.2500 0.2500 1.0000
S1B S 1.16216(6) 0.24411(12) 1.34453(17)
S2B S 1.04155(12) 0.3224(3) 0.7591(4)
O1E O 0.69673(18) 0.1250(4) 0.3364(5)
H1E H 0.694(2) 0.148(6) 0.218(3)
H2E H 0.691(3) 0.042(3) 0.376(9)
O2E O 0.78212(19) 0.0937(4) 0.6614(6)
H3E H 0.802(2) 0.036(6) 0.611(9)
H4E H 0.798(3) 0.121(9) 0.777(5)
O3B O 1.18726(18) 0.2124(5) 1.1908(6)
O3E O 0.68726(18) 0.2876(5) 0.6908(6)
O4B O 1.1862(2) 0.3632(4) 1.4545(6)
O5B O 1.16255(18) 0.1247(4) 1.4652(5)
C1B C 1.0909(3) 0.2854(9) 1.2394(11)
H5B H 1.0718 0.2995 1.3395
H6B H 1.0897 0.3718 1.1716
C2B C 1.0597(4) 0.1805(11) 1.1068(14)
H7B H 1.0199 0.1920 1.0990
H8B H 1.0705 0.0902 1.1609
C3B C 1.0676(4) 0.1818(11) 0.9078(14)
H9B H 1.0503 0.0989 0.8448
H10B H 1.1076 0.1751 0.9171
loop_
_geom_bond_atom_site_label_1
_geom_bond_atom_site_label_2
_geom_bond_site_symmetry_1
_geom_bond_site_symmetry_2
Cu1 O1 1_555 1_555
S1 O3 1_555 1_555
S2 C3 1_555 1_555
O1 H1 1_555 1_555
H2 O1 1_555 1_555
O2 Cu1 1_555 1_555
H3 O2 1_555 1_555
H4 O2 1_555 1_555
O3 Cu1 1_555 1_555
O4 S1 1_555 1_555
O5 S1 1_555 1_555
C1 S1 1_555 1_555
H5 C1 1_555 1_555
H6 C1 1_555 1_555
C2 C1 1_555 1_555
H7 C2 1_555 1_555
H8 C2 1_555 1_555
C3 C2 1_555 1_555
H9 C3 1_555 1_555
H10 C3 1_555 1_555
Cu1B O3B 1_555 1_555
S1B O3B 1_555 1_555
S2B S2 1_555 1_555
O1E Cu1 1_555 1_555
H1E O1E 1_555 1_555
H2E O1E 1_555 1_555
O2E Cu1 1_555 1_555
H3E O2E 1_555 1_555
H4E O2E 1_555 1_555
O3E Cu1 1_555 1_555
O4B S1B 1_555 1_555
O5B S1B 1_555 1_555
C1B S1B 1_555 1_555
H5B C1B 1_555 1_555
H6B C1B 1_555 1_555
C2B C1B 1_555 1_555
H7B C2B 1_555 1_555
H8B C2B 1_555 1_555
C3B S2B 1_555 1_555
H9B C3B 1_555 1_555
H10B C3B 1_555 1_555
C2B C3B 1_555 1_555

#END
