
#######################################################################
#
#                 Cambridge Crystallographic Data Centre
#                                CCDC 
#
#######################################################################
#
# If this CIF has been generated from an entry in the Cambridge 
# Structural Database, then it will include bibliographic, chemical, 
# crystal, experimental, refinement or atomic coordinate data resulting 
# from the CCDC's data processing and validation procedures.
#
#######################################################################

data_VIPJUB
_symmetry_cell_setting           monoclinic
_symmetry_space_group_name_H-M   'P 21/n'
_symmetry_Int_Tables_number      14
_space_group_name_Hall           '-P 2yn'
loop_
_symmetry_equiv_pos_site_id
_symmetry_equiv_pos_as_xyz
1 x,y,z
2 1/2-x,1/2+y,1/2-z
3 -x,-y,-z
4 1/2+x,1/2-y,1/2+z
_cell_length_a                   9.092(4)
_cell_length_b                   29.484(12)
_cell_length_c                   9.093(4)
_cell_angle_alpha                90
_cell_angle_beta                 117.04(5)
_cell_angle_gamma                90
_cell_volume                     2171.1
loop_
_atom_site_label
_atom_site_type_symbol
_atom_site_fract_x
_atom_site_fract_y
_atom_site_fract_z
Mn1 Mn 0.08054(8) 0.77496(2) 0.17702(8)
N1 N 0.0985(5) 0.82429(12) 0.3769(5)
N2 N 0.2457(6) 1.00602(14) 1.2814(5)
O1 O 0.2343(4) 0.72909(10) 0.3640(4)
O2 O 0.4275(4) 0.67763(10) 0.4928(4)
O3 O -0.1982(4) 0.72026(11) 0.4508(4)
O4 O -0.1964(4) 0.69710(10) 0.6838(4)
O5 O 0.1668(5) 0.56862(13) 0.9914(5)
H1 H 0.207(9) 0.5450(16) 1.053(8)
O6 O 0.2656(5) 0.52384(14) 0.8624(5)
O7 O 0.1871(4) 0.61208(10) 0.3631(4)
C1 C 0.2901(6) 0.68908(16) 0.3824(6)
C2 C 0.1810(6) 0.65122(14) 0.2664(6)
H2 H 0.0680 0.6618 0.2062
H3 H 0.2207 0.6434 0.1871
C3 C 0.1330(6) 0.61900(15) 0.4797(6)
C4 C 0.0275(5) 0.65374(15) 0.4728(6)
H4 H -0.0090 0.6743 0.3857
C5 C -0.0241(5) 0.65832(15) 0.5929(5)
C6 C -0.1483(5) 0.69491(15) 0.5735(6)
C7 C 0.0334(5) 0.62846(15) 0.7259(6)
H5 H 0.0015 0.6321 0.8090
C8 C 0.1386(6) 0.59313(15) 0.7347(6)
C9 C 0.1977(7) 0.55817(18) 0.8694(7)
C10 C 0.1859(6) 0.58831(15) 0.6106(6)
H6 H 0.2538 0.5643 0.6145
C11 C 0.1988(7) 0.85953(18) 0.4142(7)
H7 H 0.2571 0.8636 0.3536
C12 C 0.2233(7) 0.89050(18) 0.5358(7)
H8 H 0.2956 0.9146 0.5542
C13 C 0.1415(6) 0.88614(15) 0.6306(6)
C14 C 0.0361(7) 0.84947(19) 0.5929(7)
H9 H -0.0223 0.8442 0.6528
C15 C 0.0178(7) 0.82062(19) 0.4663(7)
H10 H -0.0568 0.7968 0.4419
C16 C 0.1737(6) 0.91804(16) 0.7660(7)
H11 H 0.2323 0.9441 0.7684
C17 C 0.1294(6) 0.91401(17) 0.8833(6)
H12 H 0.0656 0.8889 0.8794
C18 C 0.1720(6) 0.94565(15) 1.0201(6)
C19 C 0.2978(6) 0.97689(16) 1.0661(6)
H13 H 0.3606 0.9784 1.0092
C20 C 0.3306(7) 1.00578(17) 1.1957(7)
H14 H 0.4172 1.0263 1.2249
C21 C 0.1256(7) 0.97604(18) 1.2396(7)
H15 H 0.0647 0.9756 1.2986
C22 C 0.0855(7) 0.94500(17) 1.1114(7)
H16 H 0.0012 0.9240 1.0876
O8 O 0.0814(4) 0.72696(12) -0.0097(4)
H17 H 0.143(4) 0.7384(15) -0.048(5)
H18 H -0.008(3) 0.7231(14) -0.094(4)
O9 O -0.1337(4) 0.74191(14) 0.1860(5)
H19 H -0.215(4) 0.7461(19) 0.096(3)
H20 H -0.163(5) 0.7363(17) 0.256(4)
Mn1C Mn -0.41946(8) 0.72504(2) 0.67702(8)
Mn1C_2 Mn 0.58054(8) 0.72504(2) 0.67702(8)
O2C O -0.0725(4) 0.82237(10) -0.0072(4)
O4C O 0.3036(4) 0.80290(10) 0.1838(4)
loop_
_geom_bond_atom_site_label_1
_geom_bond_atom_site_label_2
_geom_bond_site_symmetry_1
_geom_bond_site_symmetry_2
Mn1 N1 1_555 1_555
N1 C11 1_555 1_555
N2 C20 1_555 1_555
O1 Mn1 1_555 1_555
O2 C1 1_555 1_555
O3 C6 1_555 1_555
O4 C6 1_555 1_555
O5 H1 1_555 1_555
O6 C9 1_555 1_555
O7 C2 1_555 1_555
C1 O1 1_555 1_555
C2 C1 1_555 1_555
H2 C2 1_555 1_555
H3 C2 1_555 1_555
C3 O7 1_555 1_555
C4 C3 1_555 1_555
H4 C4 1_555 1_555
C5 C4 1_555 1_555
C6 C5 1_555 1_555
C7 C5 1_555 1_555
H5 C7 1_555 1_555
C8 C7 1_555 1_555
C9 O5 1_555 1_555
C10 C3 1_555 1_555
H6 C10 1_555 1_555
C11 H7 1_555 1_555
C12 C11 1_555 1_555
H8 C12 1_555 1_555
C13 C12 1_555 1_555
C14 C13 1_555 1_555
H9 C14 1_555 1_555
C15 N1 1_555 1_555
H10 C15 1_555 1_555
C16 C13 1_555 1_555
H11 C16 1_555 1_555
C17 C16 1_555 1_555
H12 C17 1_555 1_555
C18 C17 1_555 1_555
C19 C18 1_555 1_555
H13 C19 1_555 1_555
C20 C19 1_555 1_555
H14 C20 1_555 1_555
C21 N2 1_555 1_555
H15 C21 1_555 1_555
C22 C18 1_555 1_555
H16 C22 1_555 1_555
O8 Mn1 1_555 1_555
H17 O8 1_555 1_555
H18 O8 1_555 1_555
O9 Mn1 1_555 1_555
H19 O9 1_555 1_555
H20 O9 1_555 1_555
Mn1C O4 1_555 1_555
Mn1C_2 O2 1_555 1_555
O2C Mn1 1_555 1_555
O4C Mn1 1_555 1_555
C8 C9 1_555 1_555
C8 C10 1_555 1_555
C14 C15 1_555 1_555
C21 C22 1_555 1_555

#END
