
#######################################################################
#
#                 Cambridge Crystallographic Data Centre
#                                CCDC 
#
#######################################################################
#
# If this CIF has been generated from an entry in the Cambridge 
# Structural Database, then it will include bibliographic, chemical, 
# crystal, experimental, refinement or atomic coordinate data resulting 
# from the CCDC's data processing and validation procedures.
#
#######################################################################

data_VIPJEK
_symmetry_cell_setting           triclinic
_symmetry_space_group_name_H-M   'P -1'
_symmetry_Int_Tables_number      2
_space_group_name_Hall           '-P 1'
loop_
_symmetry_equiv_pos_site_id
_symmetry_equiv_pos_as_xyz
1 x,y,z
2 -x,-y,-z
_cell_length_a                   11.2883(4)
_cell_length_b                   13.0045(4)
_cell_length_c                   14.3048(6)
_cell_angle_alpha                84.252(2)
_cell_angle_beta                 82.162(2)
_cell_angle_gamma                88.661(2)
_cell_volume                     2069.75
loop_
_atom_site_label
_atom_site_type_symbol
_atom_site_fract_x
_atom_site_fract_y
_atom_site_fract_z
Cu1 Cu -0.16838(4) 0.30331(4) -0.21611(4)
Cu2 Cu 0.11032(4) 0.15354(4) -0.03562(4)
Cu3 Cu 0.02413(4) 0.39091(4) 0.17881(4)
Cu4 Cu -0.26721(4) 0.53354(4) 0.00644(4)
Cu5 Cu -0.06169(4) 0.35647(4) -0.02993(3)
Cu6 Cu 0.0000 0.5000 -0.5000
O1 O 0.1317(4) -0.1183(3) -0.1450(3)
O2 O 0.1407(2) 0.0170(2) -0.0683(2)
O3 O -0.1107(2) 0.1629(2) -0.2435(2)
O4 O -0.0329(2) 0.2925(2) -0.1460(2)
O5 O -0.3012(3) 0.7805(2) 0.1481(2)
O6 O -0.3396(2) 0.6474(2) 0.0727(2)
O7 O -0.0817(2) 0.4949(2) 0.2399(2)
O8 O -0.0790(3) 0.4181(2) 0.0848(2)
O9 O 0.2905(3) 0.3072(3) 0.3312(3)
O10 O 0.1310(3) 0.3706(2) 0.2717(2)
O11 O 0.1898(2) 0.1342(2) 0.0781(2)
O12 O 0.0745(2) 0.2841(2) 0.0095(2)
O13 O -0.4666(3) 0.3630(3) -0.3435(3)
O14 O -0.3028(3) 0.3049(2) -0.2858(2)
O15 O -0.3684(2) 0.5406(2) -0.0942(2)
O16 O -0.1668(2) 0.4558(2) -0.08251(19)
O17 O -0.0331(3) 0.3828(2) -0.3454(2)
H1 H 0.0045 0.4208 -0.3136
H2 H 0.0225 0.3289 -0.3702
O18 O -0.1069(3) 0.2475(2) 0.2772(2)
H3 H -0.1185 0.1953 0.2452
H4 H -0.0857 0.2075 0.3300
O19 O -0.3965(3) 0.3831(2) 0.0839(2)
H5 H -0.4677 0.4086 0.0884
H6 H -0.3829 0.3639 0.1401
O20 O -0.2360(3) 0.2305(2) 0.0054(2)
H7 H -0.2019 0.1974 0.0562
H8 H -0.2852 0.2765 0.0330
N1 N 0.0144(3) 0.1905(2) -0.1370(2)
N2 N -0.2320(3) 0.4227(2) -0.1522(2)
N3 N 0.1110(3) 0.2949(3) 0.0986(2)
N4 N -0.1614(3) 0.4987(2) 0.1016(2)
N5 N 0.0713(5) 0.6150(3) -0.4424(3)
H9 H 0.0323 0.6764 -0.4566
H10 H 0.0635 0.6013 -0.3776
N6 N 0.1723(5) 0.4546(4) -0.5350(3)
H11 H 0.1809 0.3852 -0.5170
H12 H 0.1940 0.4658 -0.5995
C1 C 0.1025(4) -0.0274(3) -0.1325(3)
C2 C 0.0168(4) 0.0228(3) -0.1974(3)
H13 H 0.0559 0.0187 -0.2632
H14 H -0.0544 -0.0220 -0.1887
C3 C -0.0289(3) 0.1321(3) -0.1918(3)
C4 C -0.3907(4) 0.3686(3) -0.2885(3)
C5 C -0.4115(4) 0.4562(3) -0.2262(3)
H15 H -0.4111 0.5208 -0.2691
H16 H -0.4937 0.4484 -0.1922
C6 C -0.3318(4) 0.4735(3) -0.1534(3)
C7 C 0.1717(4) 0.2133(3) 0.1259(3)
C8 C 0.2250(4) 0.2110(3) 0.2173(3)
H17 H 0.3114 0.1955 0.2020
H18 H 0.1898 0.1511 0.2592
C9 C 0.2149(4) 0.3029(3) 0.2763(3)
C10 C -0.1570(4) 0.5323(3) 0.1832(3)
C11 C -0.2417(4) 0.6168(3) 0.2150(3)
H19 H -0.1988 0.6615 0.2511
H20 H -0.3082 0.5844 0.2597
C12 C -0.2961(3) 0.6863(3) 0.1388(3)
C13 C 0.1990(7) 0.6228(4) -0.4819(4)
H21 H 0.2427 0.6611 -0.4411
H22 H 0.2078 0.6600 -0.5463
C14 C 0.2483(7) 0.5148(5) -0.4860(4)
H23 H 0.3308 0.5169 -0.5201
H24 H 0.2511 0.4818 -0.4209
Cu1A Cu 0.16838(4) 0.69669(4) -0.78389(4)
Cu2A Cu -0.11032(4) 0.84646(4) 0.03562(4)
Cu2A_2 Cu -0.11032(4) 0.84646(4) -0.96438(4)
Cu2_2 Cu 0.11032(4) 0.15354(4) -1.03562(4)
Cu3A Cu -0.02413(4) 0.60909(4) -0.17881(4)
Cu3A_2 Cu -0.02413(4) 0.60909(4) -1.17881(4)
Cu3_2 Cu 0.02413(4) 0.39091(4) -0.82119(4)
Cu4A Cu 0.26721(4) 0.46646(4) -1.00644(4)
Cu5A Cu 0.06169(4) 0.64353(4) -0.97007(3)
O1A O -0.1317(4) 1.1183(3) -0.8550(3)
O2A O -0.1407(2) 0.9830(2) -0.9317(2)
O3A O 0.1107(2) 0.8371(2) -0.7565(2)
O4A O 0.0329(2) 0.7075(2) -0.8540(2)
O5A O 0.3012(3) 0.2195(2) -0.1481(2)
O5_2 O -0.3012(3) 0.7805(2) -0.8519(2)
O5A_2 O 0.3012(3) 0.2195(2) -1.1481(2)
O6A O 0.3396(2) 0.3526(2) -1.0727(2)
O7A O 0.0817(2) 0.5051(2) -1.2399(2)
O8A O 0.0790(3) 0.5819(2) -1.0848(2)
O9A O -0.2905(3) 0.6928(3) -1.3312(3)
O10A O -0.1310(3) 0.6294(2) -1.2717(2)
O11A O -0.1898(2) 0.8658(2) -1.0781(2)
O12A O -0.0745(2) 0.7159(2) -1.0095(2)
O13A O 0.4666(3) 0.6370(3) -0.6565(3)
O14A O 0.3028(3) 0.6951(2) -0.7142(2)
O15A O 0.3684(2) 0.4594(2) -0.9058(2)
O16A O 0.1668(2) 0.5442(2) 0.08251(19)
O16A_2 O 0.1668(2) 0.5442(2) -0.91749(19)
O16_2 O -0.1668(2) 0.4558(2) -1.08251(19)
O17A O 0.0331(3) 0.6172(2) -0.6546(2)
H1A H -0.0045 0.5792 -0.6864
H2A H -0.0225 0.6711 -0.6298
O18A O 0.1069(3) 0.7525(2) -1.2772(2)
H3A H 0.1185 0.8047 -1.2452
H4A H 0.0857 0.7925 -1.3300
O19A O 0.3965(3) 0.6169(2) -1.0839(2)
H5A H 0.4677 0.5914 -1.0884
H6A H 0.3829 0.6361 -1.1401
O20A O 0.2360(3) 0.7695(2) -1.0054(2)
H7A H 0.2019 0.8026 -1.0562
H8A H 0.2852 0.7235 -1.0330
N1A N -0.0144(3) 0.8095(2) -0.8630(2)
N2A N 0.2320(3) 0.5773(2) -0.8478(2)
N3A N -0.1110(3) 0.7051(3) -1.0986(2)
N4A N 0.1614(3) 0.5013(2) -1.1016(2)
N5A N -0.0713(5) 0.3850(3) -0.5576(3)
H9A H -0.0323 0.3236 -0.5434
H10A H -0.0635 0.3987 -0.6224
N6A N -0.1723(5) 0.5454(4) -0.4650(3)
H11A H -0.1809 0.6148 -0.4830
H12A H -0.1940 0.5342 -0.4005
C1A C -0.1025(4) 1.0274(3) -0.8675(3)
C2A C -0.0168(4) 0.9772(3) -0.8026(3)
H13A H -0.0559 0.9813 -0.7368
H14A H 0.0544 1.0220 -0.8113
C3A C 0.0289(3) 0.8679(3) -0.8082(3)
C4A C 0.3907(4) 0.6314(3) -0.7115(3)
C5A C 0.4115(4) 0.5438(3) -0.7738(3)
H15A H 0.4111 0.4792 -0.7309
H16A H 0.4937 0.5516 -0.8078
C6A C 0.3318(4) 0.5265(3) -0.8466(3)
C7A C -0.1717(4) 0.7867(3) -1.1259(3)
C8A C -0.2250(4) 0.7890(3) -1.2173(3)
H17A H -0.3114 0.8045 -1.2020
H18A H -0.1898 0.8489 -1.2592
C9A C -0.2149(4) 0.6971(3) -1.2763(3)
C10A C 0.1570(4) 0.4677(3) -1.1832(3)
C11A C 0.2417(4) 0.3832(3) -1.2150(3)
H19A H 0.1988 0.3385 -1.2511
H20A H 0.3082 0.4156 -1.2597
C12A C 0.2961(3) 0.3137(3) -1.1388(3)
C13A C -0.1990(7) 0.3772(4) -0.5181(4)
H21A H -0.2427 0.3389 -0.5589
H22A H -0.2078 0.3400 -0.4537
C14A C -0.2483(7) 0.4852(5) -0.5140(4)
H23A H -0.3308 0.4831 -0.4799
H24A H -0.2511 0.5182 -0.5791
Cu7 Cu 0.5000 1.0000 0.0000
O21 O 0.5367(3) 0.8098(2) -0.0321(3)
H25 H 0.5738 0.7644 0.0027
H26 H 0.4626 0.7931 -0.0214
N7 N 0.3528(3) 0.9544(3) 0.0868(3)
H27 H 0.2975 1.0076 0.0898
H28 H 0.3192 0.8995 0.0646
N8 N 0.5803(3) 0.9845(3) 0.1173(3)
H29 H 0.6269 0.9255 0.1185
H30 H 0.6284 1.0403 0.1185
C15 C 0.3868(5) 0.9239(6) 0.1811(5)
H31 H 0.3189 0.9375 0.2300
H32 H 0.4043 0.8488 0.1873
C16 C 0.4885(5) 0.9784(7) 0.1969(4)
H33 H 0.5211 0.9434 0.2528
H34 H 0.4637 1.0492 0.2115
O21A O 0.4633(3) 1.1902(2) 0.0321(3)
H25A H 0.4262 1.2356 -0.0027
H26A H 0.5374 1.2069 0.0214
N7A N 0.6472(3) 1.0456(3) -0.0868(3)
H27A H 0.7025 0.9924 -0.0898
H28A H 0.6808 1.1005 -0.0646
N8A N 0.4197(3) 1.0155(3) -0.1173(3)
H29A H 0.3731 1.0745 -0.1185
H30A H 0.3716 0.9597 -0.1185
C15A C 0.6132(5) 1.0761(6) -0.1811(5)
H31A H 0.6811 1.0625 -0.2300
H32A H 0.5957 1.1512 -0.1873
C16A C 0.5115(5) 1.0216(7) -0.1969(4)
H33A H 0.4789 1.0566 -0.2528
H34A H 0.5363 0.9508 -0.2115
O22 O 0.0030(3) 0.1388(2) 0.4395(2)
H35 H -0.0412 0.1046 0.4943
H36 H 0.0030 0.0857 0.4008
O23 O 0.4602(5) 0.1778(4) 0.3862(3)
H37 H 0.3788 0.2089 0.4002
H38 H 0.4658 0.1489 0.4415
O24 O 0.6635(3) 0.3400(3) 0.2647(3)
H39 H 0.7398 0.3189 0.2667
H40 H 0.6181 0.3320 0.3176
O25 O 0.7166(5) 0.0486(4) 0.3706(4)
H41 H 0.6566 0.0817 0.3719
H42 H 0.7125 -0.0157 0.3596
O26 O 0.1300(3) 0.9547(3) 0.3945(2)
H43 H 0.1029 0.9392 0.3443
H44 H 0.2136 0.9606 0.3908
O27 O 0.3545(3) 0.9771(3) 0.4382(3)
H45 H 0.3635 1.0413 0.4209
H46 H 0.3324 0.9691 0.4977
O28 O 0.5042(3) 0.8034(2) 0.4298(2)
H47 H 0.4424 0.7588 0.4120
H48 H 0.4423 0.8544 0.4524
O29 O 0.7187(3) 0.8522(3) 0.3207(2)
H49 H 0.7098 0.8214 0.2620
H50 H 0.6458 0.8375 0.3587
O30 O 0.8785(3) 0.7582(2) 0.4306(2)
H51 H 0.9029 0.8010 0.4647
H52 H 0.8272 0.8009 0.4015
O31 O 0.5327(11) 0.4215(9) 0.4082(7)
H53 H 0.5138 0.4830 0.3892
H54 H 0.4928 0.3917 0.4578
O32 O 0.5944(10) 0.1534(8) 0.2438(8)
H55 H 0.6659 0.1718 0.2449
H56 H 0.5468 0.1618 0.2939
loop_
_geom_bond_atom_site_label_1
_geom_bond_atom_site_label_2
_geom_bond_site_symmetry_1
_geom_bond_site_symmetry_2
Cu1 O3 1_555 1_555
Cu2 O2 1_555 1_555
Cu3 O7 1_555 1_555
Cu4 O6 1_555 1_555
Cu5 O4 1_555 1_555
Cu6 O17 1_555 1_555
O1 C1 1_555 1_555
O2 C1 1_555 1_555
O3 C3 1_555 1_555
O4 Cu1 1_555 1_555
O5 C12 1_555 1_555
O6 C12 1_555 1_555
O7 C10 1_555 1_555
O8 Cu3 1_555 1_555
O9 C9 1_555 1_555
O10 Cu3 1_555 1_555
O11 Cu2 1_555 1_555
O12 Cu2 1_555 1_555
O13 C4 1_555 1_555
O14 Cu1 1_555 1_555
O15 Cu4 1_555 1_555
O16 Cu4 1_555 1_555
O17 Cu1 1_555 1_555
H1 O17 1_555 1_555
H2 O17 1_555 1_555
O18 Cu3 1_555 1_555
H3 O18 1_555 1_555
H4 O18 1_555 1_555
O19 Cu4 1_555 1_555
H5 O19 1_555 1_555
H6 O19 1_555 1_555
O20 Cu5 1_555 1_555
H7 O20 1_555 1_555
H8 O20 1_555 1_555
N1 Cu2 1_555 1_555
N2 Cu1 1_555 1_555
N3 Cu3 1_555 1_555
N4 Cu4 1_555 1_555
N5 Cu6 1_555 1_555
H9 N5 1_555 1_555
H10 N5 1_555 1_555
N6 Cu6 1_555 1_555
H11 N6 1_555 1_555
H12 N6 1_555 1_555
C1 C2 1_555 1_555
C2 H13 1_555 1_555
H14 C2 1_555 1_555
C3 N1 1_555 1_555
C4 O14 1_555 1_555
C5 C4 1_555 1_555
H15 C5 1_555 1_555
H16 C5 1_555 1_555
C6 O15 1_555 1_555
C7 O11 1_555 1_555
C8 C7 1_555 1_555
H17 C8 1_555 1_555
H18 C8 1_555 1_555
C9 O10 1_555 1_555
C10 N4 1_555 1_555
C11 C10 1_555 1_555
H19 C11 1_555 1_555
H20 C11 1_555 1_555
C12 C11 1_555 1_555
C13 N5 1_555 1_555
H21 C13 1_555 1_555
H22 C13 1_555 1_555
C14 N6 1_555 1_555
H23 C14 1_555 1_555
H24 C14 1_555 1_555
Cu7 O21 1_555 1_555
O21 H25 1_555 1_555
H26 O21 1_555 1_555
N7 Cu7 1_555 1_555
H27 N7 1_555 1_555
H28 N7 1_555 1_555
N8 Cu7 1_555 1_555
H29 N8 1_555 1_555
H30 N8 1_555 1_555
C15 N7 1_555 1_555
H31 C15 1_555 1_555
H32 C15 1_555 1_555
C16 N8 1_555 1_555
H33 C16 1_555 1_555
H34 C16 1_555 1_555
O22 H35 1_555 1_555
H36 O22 1_555 1_555
O23 H37 1_555 1_555
H38 O23 1_555 1_555
O24 H39 1_555 1_555
H40 O24 1_555 1_555
O25 H41 1_555 1_555
H42 O25 1_555 1_555
O26 H43 1_555 1_555
H44 O26 1_555 1_555
O27 H45 1_555 1_555
H46 O27 1_555 1_555
O28 H47 1_555 1_555
H48 O28 1_555 1_555
O29 H49 1_555 1_555
H50 O29 1_555 1_555
O30 H51 1_555 1_555
H52 O30 1_555 1_555
O31 H53 1_555 1_555
H54 O31 1_555 1_555
O32 H55 1_555 1_555
H56 O32 1_555 1_555
Cu1A O3A 1_555 1_555
Cu2A O5 1_555 1_555
Cu2A_2 O2A 1_555 1_555
Cu2_2 O5A_2 1_555 1_555
Cu3A O16 1_555 1_555
Cu3A_2 O7A 1_555 1_555
Cu3_2 O16A_2 1_555 1_555
Cu4A O6A 1_555 1_555
Cu5A O4A 1_555 1_555
O1A C1A 1_555 1_555
O2A C1A 1_555 1_555
O3A C3A 1_555 1_555
O4A Cu1A 1_555 1_555
O5A Cu2 1_555 1_555
O5_2 Cu2A_2 1_555 1_555
O5A_2 C12A 1_555 1_555
O6A C12A 1_555 1_555
O7A C10A 1_555 1_555
O8A Cu3A_2 1_555 1_555
O9A C9A 1_555 1_555
O10A Cu3A_2 1_555 1_555
O11A Cu2A_2 1_555 1_555
O12A Cu2A_2 1_555 1_555
O13A C4A 1_555 1_555
O14A Cu1A 1_555 1_555
O15A Cu4A 1_555 1_555
O16A Cu3 1_555 1_555
O16A_2 Cu4A 1_555 1_555
O16_2 Cu3A_2 1_555 1_555
O17A Cu6 1_555 1_555
H1A O17A 1_555 1_555
H2A O17A 1_555 1_555
O18A Cu3A_2 1_555 1_555
H3A O18A 1_555 1_555
H4A O18A 1_555 1_555
O19A Cu4A 1_555 1_555
H5A O19A 1_555 1_555
H6A O19A 1_555 1_555
O20A Cu5A 1_555 1_555
H7A O20A 1_555 1_555
H8A O20A 1_555 1_555
N1A Cu2A_2 1_555 1_555
N2A Cu1A 1_555 1_555
N3A Cu3A_2 1_555 1_555
N4A Cu4A 1_555 1_555
N5A Cu6 1_555 1_555
H9A N5A 1_555 1_555
H10A N5A 1_555 1_555
N6A Cu6 1_555 1_555
H11A N6A 1_555 1_555
H12A N6A 1_555 1_555
C1A C2A 1_555 1_555
C2A H13A 1_555 1_555
H14A C2A 1_555 1_555
C3A N1A 1_555 1_555
C4A O14A 1_555 1_555
C5A C4A 1_555 1_555
H15A C5A 1_555 1_555
H16A C5A 1_555 1_555
C6A O15A 1_555 1_555
C7A O11A 1_555 1_555
C8A C7A 1_555 1_555
H17A C8A 1_555 1_555
H18A C8A 1_555 1_555
C9A O10A 1_555 1_555
C10A N4A 1_555 1_555
C11A C10A 1_555 1_555
H19A C11A 1_555 1_555
H20A C11A 1_555 1_555
C12A C11A 1_555 1_555
C13A N5A 1_555 1_555
H21A C13A 1_555 1_555
H22A C13A 1_555 1_555
C14A N6A 1_555 1_555
H23A C14A 1_555 1_555
H24A C14A 1_555 1_555
O21A Cu7 1_555 1_555
H25A O21A 1_555 1_555
H26A O21A 1_555 1_555
N7A Cu7 1_555 1_555
H27A N7A 1_555 1_555
H28A N7A 1_555 1_555
N8A Cu7 1_555 1_555
H29A N8A 1_555 1_555
H30A N8A 1_555 1_555
C15A N7A 1_555 1_555
H31A C15A 1_555 1_555
H32A C15A 1_555 1_555
C16A N8A 1_555 1_555
H33A C16A 1_555 1_555
H34A C16A 1_555 1_555
Cu5 O8 1_555 1_555
Cu5 O12 1_555 1_555
Cu5 O16 1_555 1_555
O4 N1 1_555 1_555
O8 N4 1_555 1_555
O12 N3 1_555 1_555
O16 N2 1_555 1_555
N2 C6 1_555 1_555
N3 C7 1_555 1_555
C2 C3 1_555 1_555
C5 C6 1_555 1_555
C8 C9 1_555 1_555
C13 C14 1_555 1_555
C15 C16 1_555 1_555
Cu1A O17A 1_555 1_555
Cu5A O8A 1_555 1_555
Cu5A O12A 1_555 1_555
Cu5A O16A_2 1_555 1_555
O4A N1A 1_555 1_555
O8A N4A 1_555 1_555
O12A N3A 1_555 1_555
O16A_2 N2A 1_555 1_555
N2A C6A 1_555 1_555
N3A C7A 1_555 1_555
C2A C3A 1_555 1_555
C5A C6A 1_555 1_555
C8A C9A 1_555 1_555
C13A C14A 1_555 1_555
C15A C16A 1_555 1_555

#END
