
#######################################################################
#
#                 Cambridge Crystallographic Data Centre
#                                CCDC 
#
#######################################################################
#
# If this CIF has been generated from an entry in the Cambridge 
# Structural Database, then it will include bibliographic, chemical, 
# crystal, experimental, refinement or atomic coordinate data resulting 
# from the CCDC's data processing and validation procedures.
#
#######################################################################

data_VIPMUD
_symmetry_cell_setting           monoclinic
_symmetry_space_group_name_H-M   'P 21/n'
_symmetry_Int_Tables_number      14
_space_group_name_Hall           '-P 2yn'
loop_
_symmetry_equiv_pos_site_id
_symmetry_equiv_pos_as_xyz
1 x,y,z
2 1/2-x,1/2+y,1/2-z
3 -x,-y,-z
4 1/2+x,1/2-y,1/2+z
_cell_length_a                   16.4478(6)
_cell_length_b                   16.0645(6)
_cell_length_c                   16.4498(6)
_cell_angle_alpha                90
_cell_angle_beta                 97.4490(10)
_cell_angle_gamma                90
_cell_volume                     4309.78
loop_
_atom_site_label
_atom_site_type_symbol
_atom_site_fract_x
_atom_site_fract_y
_atom_site_fract_z
Bi1 Bi 0.646722(13) 0.162750(13) 0.204157(13)
Bi2 Bi 0.844343(13) -0.000749(13) 0.214273(13)
I1 I 0.65999(3) 0.29729(2) 0.33304(2)
I2 I 0.61953(3) 0.28146(3) 0.06898(3)
I3 I 0.47187(2) 0.12843(3) 0.20523(2)
I4 I 0.84798(3) 0.18450(3) 0.20793(3)
I5 I 0.70955(2) 0.02842(2) 0.34504(2)
I6 I 0.67179(2) 0.01228(2) 0.08663(2)
I7 I 0.98578(3) -0.00649(3) 0.34003(3)
I8 I 0.93500(2) -0.00379(3) 0.07609(2)
Bi2A Bi 0.655657(13) 0.499251(13) 0.285727(13)
I1A I 0.84001(3) -0.20271(2) 0.16696(2)
C1 C 0.0900(4) 0.3616(4) 0.0094(3)
H1 H 0.1375 0.3519 -0.0164
C2 C 0.0156(4) 0.3744(4) -0.0390(4)
H2 H 0.0126 0.3754 -0.0971
C3 C -0.0543(4) 0.3859(5) -0.0015(4)
H3 H -0.1062 0.3934 -0.0334
C4 C -0.0474(4) 0.3863(4) 0.0828(4)
H4 H -0.0947 0.3945 0.1095
C5 C 0.0280(3) 0.3747(3) 0.1284(3)
C6 C 0.0435(4) 0.3748(3) 0.2188(3)
C7 C -0.0124(4) 0.3841(4) 0.2736(4)
H5 H -0.0688 0.3930 0.2545
C8 C 0.0144(4) 0.3804(4) 0.3564(4)
H6 H -0.0235 0.3864 0.3950
C9 C 0.0973(4) 0.3678(4) 0.3834(4)
H7 H 0.1165 0.3656 0.4404
C10 C 0.1515(3) 0.3587(3) 0.3261(3)
C11 C 0.2401(4) 0.3437(3) 0.3413(3)
C12 C 0.2852(4) 0.3353(3) 0.4181(3)
H8 H 0.2590 0.3384 0.4662
C13 C 0.3692(4) 0.3225(4) 0.4238(4)
H9 H 0.4014 0.3163 0.4757
C14 C 0.4050(4) 0.3188(3) 0.3530(4)
H10 H 0.4626 0.3114 0.3556
C15 C 0.3570(3) 0.3259(3) 0.2782(4)
H11 H 0.3827 0.3225 0.2299
C16 C 0.1328(3) 0.1762(4) 0.1949(3)
H12 H 0.0988 0.2014 0.2304
C17 C 0.1269(4) 0.0914(3) 0.1813(4)
H13 H 0.0891 0.0590 0.2068
C18 C 0.1755(4) 0.0548(4) 0.1312(4)
H14 H 0.1717 -0.0034 0.1212
C19 C 0.2310(4) 0.1026(4) 0.0946(4)
H15 H 0.2665 0.0774 0.0605
C20 C 0.2335(3) 0.1879(3) 0.1086(3)
C21 C 0.2852(3) 0.2468(3) 0.0700(3)
C22 C 0.3393(4) 0.2301(4) 0.0141(3)
H16 H 0.3492 0.1746 -0.0017
C23 C 0.3785(4) 0.2962(4) -0.0181(4)
H17 H 0.4159 0.2857 -0.0563
C24 C 0.3642(3) 0.3774(4) 0.0045(4)
H18 H 0.3910 0.4227 -0.0179
C25 C 0.3099(3) 0.3909(3) 0.0605(3)
C26 C 0.2830(3) 0.4702(3) 0.0926(3)
C27 C 0.3076(3) 0.5480(4) 0.0681(4)
H19 H 0.3448 0.5526 0.0287
C28 C 0.2774(4) 0.6185(4) 0.1017(4)
H20 H 0.2929 0.6722 0.0850
C29 C 0.2243(4) 0.6101(3) 0.1599(3)
H21 H 0.2042 0.6579 0.1848
C30 C 0.2009(3) 0.5313(3) 0.1815(3)
H22 H 0.1629 0.5259 0.2200
Fe1 Fe 0.19783(5) 0.34626(4) 0.16868(4)
N1 N 0.0971(3) 0.3624(3) 0.0916(3)
N2 N 0.1241(3) 0.3629(3) 0.2456(3)
N3 N 0.2752(3) 0.3375(3) 0.2705(3)
N4 N 0.1856(3) 0.2245(3) 0.1593(3)
N5 N 0.2715(3) 0.3260(3) 0.0924(3)
N6 N 0.2303(3) 0.4616(3) 0.1494(3)
loop_
_geom_bond_atom_site_label_1
_geom_bond_atom_site_label_2
_geom_bond_site_symmetry_1
_geom_bond_site_symmetry_2
Bi1 I1 1_555 1_555
Bi2 I4 1_555 1_555
I1 Bi2A 1_555 1_555
I2 Bi1 1_555 1_555
I3 Bi1 1_555 1_555
I4 Bi1 1_555 1_555
I5 Bi1 1_555 1_555
I6 Bi1 1_555 1_555
I7 Bi2 1_555 1_555
I8 Bi2 1_555 1_555
C1 H1 1_555 1_555
C2 C1 1_555 1_555
H2 C2 1_555 1_555
C3 C2 1_555 1_555
H3 C3 1_555 1_555
C4 C3 1_555 1_555
H4 C4 1_555 1_555
C5 C4 1_555 1_555
C6 C5 1_555 1_555
C7 C6 1_555 1_555
H5 C7 1_555 1_555
C8 C7 1_555 1_555
H6 C8 1_555 1_555
C9 C8 1_555 1_555
H7 C9 1_555 1_555
C10 C9 1_555 1_555
C11 C10 1_555 1_555
C12 C11 1_555 1_555
H8 C12 1_555 1_555
C13 C12 1_555 1_555
H9 C13 1_555 1_555
C14 C13 1_555 1_555
H10 C14 1_555 1_555
C15 C14 1_555 1_555
H11 C15 1_555 1_555
C16 H12 1_555 1_555
C17 C16 1_555 1_555
H13 C17 1_555 1_555
C18 C17 1_555 1_555
H14 C18 1_555 1_555
C19 C18 1_555 1_555
H15 C19 1_555 1_555
C20 C19 1_555 1_555
C21 C20 1_555 1_555
C22 C21 1_555 1_555
H16 C22 1_555 1_555
C23 C22 1_555 1_555
H17 C23 1_555 1_555
C24 C23 1_555 1_555
H18 C24 1_555 1_555
C25 C24 1_555 1_555
C26 C25 1_555 1_555
C27 C26 1_555 1_555
H19 C27 1_555 1_555
C28 C27 1_555 1_555
H20 C28 1_555 1_555
C29 C28 1_555 1_555
H21 C29 1_555 1_555
C30 C29 1_555 1_555
H22 C30 1_555 1_555
Fe1 N1 1_555 1_555
N1 C1 1_555 1_555
N2 C6 1_555 1_555
N3 C11 1_555 1_555
N4 C16 1_555 1_555
N5 C21 1_555 1_555
N6 C26 1_555 1_555
I1A Bi2 1_555 1_555
Bi2 I5 1_555 1_555
Bi2 I6 1_555 1_555
C5 N1 1_555 1_555
C10 N2 1_555 1_555
C15 N3 1_555 1_555
C20 N4 1_555 1_555
C25 N5 1_555 1_555
C30 N6 1_555 1_555
Fe1 N2 1_555 1_555
Fe1 N3 1_555 1_555
Fe1 N4 1_555 1_555
Fe1 N5 1_555 1_555
Fe1 N6 1_555 1_555

#END
