
#######################################################################
#
#                 Cambridge Crystallographic Data Centre
#                                CCDC 
#
#######################################################################
#
# If this CIF has been generated from an entry in the Cambridge 
# Structural Database, then it will include bibliographic, chemical, 
# crystal, experimental, refinement or atomic coordinate data resulting 
# from the CCDC's data processing and validation procedures.
#
#######################################################################

data_VIPNAK
_symmetry_cell_setting           triclinic
_symmetry_space_group_name_H-M   'P -1'
_symmetry_Int_Tables_number      2
_space_group_name_Hall           '-P 1'
loop_
_symmetry_equiv_pos_site_id
_symmetry_equiv_pos_as_xyz
1 x,y,z
2 -x,-y,-z
_cell_length_a                   11.8798(5)
_cell_length_b                   15.2805(7)
_cell_length_c                   16.1889(7)
_cell_angle_alpha                63.9240(10)
_cell_angle_beta                 74.0420(10)
_cell_angle_gamma                73.2540(10)
_cell_volume                     2489.84
loop_
_atom_site_label
_atom_site_type_symbol
_atom_site_fract_x
_atom_site_fract_y
_atom_site_fract_z
Pb1 Pb 0.15930(3) 0.05604(3) 0.37349(3)
Pb2 Pb 0.47679(3) 0.12305(3) 0.34135(3)
Pb3 Pb -0.21756(3) 0.21694(3) 0.31605(3)
I1 I -0.07898(6) 0.15770(5) 0.49284(4)
I2 I 0.03328(6) 0.11080(6) 0.21220(5)
I3 I 0.24349(6) 0.26283(5) 0.27013(4)
I4 I 0.30968(6) 0.01843(5) 0.53666(4)
I5 I 0.40772(6) -0.03531(5) 0.27901(5)
I6 I 0.50828(6) 0.28126(5) 0.40121(5)
I7 I 0.68266(6) 0.19435(5) 0.16378(4)
I8 I -0.18098(7) 0.42628(6) 0.22382(5)
Pb1A Pb -0.15930(3) -0.05604(3) 0.62651(3)
Pb2A Pb 0.52321(3) -0.12305(3) 0.65865(3)
Pb3A Pb 0.21756(3) -0.21694(3) 0.68395(3)
Pb3_2 Pb 0.78244(3) 0.21694(3) 0.31605(3)
I1A I 0.07898(6) -0.15770(5) 0.50716(4)
I4A I 0.69032(6) -0.01843(5) 0.46334(4)
I4A_2 I -0.30968(6) -0.01843(5) 0.46334(4)
I6_2 I -0.49172(6) 0.28126(5) 0.40121(5)
I7_2 I -0.31734(6) 0.19435(5) 0.16378(4)
Co1 Co 0.19258(12) 0.67320(10) 0.21747(9)
C1 C 0.3793(9) 0.4964(7) 0.1896(7)
H1 H 0.3259 0.4561 0.2359
C2 C 0.4862(10) 0.4504(9) 0.1476(7)
H2 H 0.5043 0.3804 0.1659
C3 C 0.5625(9) 0.5079(9) 0.0808(7)
H3 H 0.6355 0.4783 0.0526
C4 C 0.5324(8) 0.6116(8) 0.0538(6)
C5 C 0.6073(9) 0.6779(9) -0.0162(7)
H4 H 0.6811 0.6515 -0.0462
C6 C 0.5752(9) 0.7772(9) -0.0403(7)
H5 H 0.6246 0.8195 -0.0893
C7 C 0.4680(9) 0.8195(8) 0.0068(6)
C8 C 0.4305(11) 0.9197(8) -0.0123(7)
H6 H 0.4783 0.9652 -0.0585
C9 C 0.3263(11) 0.9539(8) 0.0342(7)
H7 H 0.3017 1.0227 0.0221
C10 C 0.2554(10) 0.8863(8) 0.1003(7)
H8 H 0.1810 0.9109 0.1312
C11 C 0.3916(9) 0.7555(7) 0.0763(6)
C12 C 0.4276(8) 0.6516(8) 0.0999(6)
C13 C 0.1301(11) 0.6285(8) 0.0630(7)
H9 H 0.2120 0.5993 0.0517
C14 C 0.0519(11) 0.6227(8) 0.0158(7)
H10 H 0.0797 0.5894 -0.0258
C15 C -0.0644(11) 0.6653(8) 0.0308(7)
H11 H -0.1185 0.6616 -0.0007
C16 C -0.1066(9) 0.7146(8) 0.0914(7)
C17 C -0.2242(11) 0.7625(9) 0.1115(8)
H12 H -0.2837 0.7578 0.0853
C18 C -0.2571(11) 0.8143(9) 0.1656(9)
H13 H -0.3379 0.8467 0.1755
C19 C -0.1718(9) 0.8213(7) 0.2084(7)
C20 C -0.1967(10) 0.8799(8) 0.2618(7)
H14 H -0.2746 0.9173 0.2716
C21 C -0.1089(11) 0.8819(9) 0.2982(9)
H15 H -0.1245 0.9231 0.3317
C22 C 0.0050(9) 0.8243(8) 0.2874(7)
H16 H 0.0642 0.8240 0.3167
C23 C -0.0547(9) 0.7712(7) 0.1957(7)
C24 C -0.0202(9) 0.7182(7) 0.1357(7)
C25 C 0.0557(9) 0.4949(8) 0.3217(7)
H17 H 0.0239 0.5186 0.2662
C26 C 0.0266(9) 0.4087(8) 0.3947(7)
H18 H -0.0253 0.3752 0.3891
C27 C 0.0730(9) 0.3714(8) 0.4756(7)
H19 H 0.0547 0.3119 0.5260
C28 C 0.1470(9) 0.4234(7) 0.4813(7)
C29 C 0.2009(10) 0.3911(8) 0.5624(7)
H20 H 0.1873 0.3308 0.6135
C30 C 0.2708(10) 0.4447(7) 0.5676(7)
H21 H 0.3039 0.4224 0.6222
C31 C 0.2940(9) 0.5344(8) 0.4908(7)
C32 C 0.3624(9) 0.5957(8) 0.4908(7)
H22 H 0.3968 0.5771 0.5441
C33 C 0.3802(10) 0.6818(8) 0.4154(7)
H23 H 0.4246 0.7239 0.4165
C34 C 0.3323(9) 0.7060(8) 0.3377(7)
H24 H 0.3488 0.7638 0.2842
C35 C 0.2458(8) 0.5681(7) 0.4094(7)
C36 C 0.1720(9) 0.5106(7) 0.4055(7)
N1 N 0.3509(7) 0.5927(6) 0.1671(6)
N2 N 0.2874(7) 0.7895(6) 0.1216(5)
N3 N 0.0955(7) 0.6731(6) 0.1228(5)
N4 N 0.0315(7) 0.7705(6) 0.2374(5)
N5 N 0.1258(7) 0.5459(6) 0.3258(6)
N6 N 0.2646(7) 0.6531(6) 0.3336(5)
O2 O 0.931(3) 0.086(2) 0.019(2)
O1? O 0.991(2) 0.032(2) 0.0292(17)
loop_
_geom_bond_atom_site_label_1
_geom_bond_atom_site_label_2
_geom_bond_site_symmetry_1
_geom_bond_site_symmetry_2
Pb1 I1 1_555 1_555
Pb2 I3 1_555 1_555
Pb3 I1 1_555 1_555
I1 Pb1A 1_555 1_555
I2 Pb1 1_555 1_555
I3 Pb1 1_555 1_555
I4 Pb1 1_555 1_555
I5 Pb1 1_555 1_555
I6 Pb2 1_555 1_555
I7 Pb2 1_555 1_555
I8 Pb3 1_555 1_555
Co1 N1 1_555 1_555
C1 H1 1_555 1_555
C2 C1 1_555 1_555
H2 C2 1_555 1_555
C3 C2 1_555 1_555
H3 C3 1_555 1_555
C4 C3 1_555 1_555
C5 C4 1_555 1_555
H4 C5 1_555 1_555
C6 C5 1_555 1_555
H5 C6 1_555 1_555
C7 C6 1_555 1_555
C8 C7 1_555 1_555
H6 C8 1_555 1_555
C9 C8 1_555 1_555
H7 C9 1_555 1_555
C10 C9 1_555 1_555
H8 C10 1_555 1_555
C11 C7 1_555 1_555
C12 C4 1_555 1_555
C13 H9 1_555 1_555
C14 C13 1_555 1_555
H10 C14 1_555 1_555
C15 C14 1_555 1_555
H11 C15 1_555 1_555
C16 C15 1_555 1_555
C17 C16 1_555 1_555
H12 C17 1_555 1_555
C18 C17 1_555 1_555
H13 C18 1_555 1_555
C19 C18 1_555 1_555
C20 C19 1_555 1_555
H14 C20 1_555 1_555
C21 C20 1_555 1_555
H15 C21 1_555 1_555
C22 C21 1_555 1_555
H16 C22 1_555 1_555
C23 C19 1_555 1_555
C24 C16 1_555 1_555
C25 H17 1_555 1_555
C26 C25 1_555 1_555
H18 C26 1_555 1_555
C27 C26 1_555 1_555
H19 C27 1_555 1_555
C28 C27 1_555 1_555
C29 C28 1_555 1_555
H20 C29 1_555 1_555
C30 C29 1_555 1_555
H21 C30 1_555 1_555
C31 C30 1_555 1_555
C32 C31 1_555 1_555
H22 C32 1_555 1_555
C33 C32 1_555 1_555
H23 C33 1_555 1_555
C34 C33 1_555 1_555
H24 C34 1_555 1_555
C35 C31 1_555 1_555
C36 C28 1_555 1_555
N1 C1 1_555 1_555
N2 Co1 1_555 1_555
N3 Co1 1_555 1_555
N4 Co1 1_555 1_555
N5 Co1 1_555 1_555
N6 Co1 1_555 1_555
Pb1A I1A 1_555 1_555
Pb2A I4 1_555 1_555
Pb3A I4 1_555 1_555
Pb3_2 I6 1_555 1_555
I1A Pb1 1_555 1_555
I4A Pb2 1_555 1_555
I4A_2 Pb3 1_555 1_555
I6_2 Pb3 1_555 1_555
I7_2 Pb3 1_555 1_555
Pb2 I4 1_555 1_555
Pb2 I5 1_555 1_555
Pb3 I2 1_555 1_555
I7 Pb3_2 1_555 1_555
C10 N2 1_555 1_555
C11 C12 1_555 1_555
C11 N2 1_555 1_555
C12 N1 1_555 1_555
C13 N3 1_555 1_555
C22 N4 1_555 1_555
C23 C24 1_555 1_555
C23 N4 1_555 1_555
C24 N3 1_555 1_555
C25 N5 1_555 1_555
C34 N6 1_555 1_555
C35 C36 1_555 1_555
C35 N6 1_555 1_555
C36 N5 1_555 1_555
Pb1A I4A_2 1_555 1_555
Pb2A I4A 1_555 1_555
Pb3A I1A 1_555 1_555
Pb3_2 I4A 1_555 1_555

#END
