
#######################################################################
#
#                 Cambridge Crystallographic Data Centre
#                                CCDC 
#
#######################################################################
#
# If this CIF has been generated from an entry in the Cambridge 
# Structural Database, then it will include bibliographic, chemical, 
# crystal, experimental, refinement or atomic coordinate data resulting 
# from the CCDC's data processing and validation procedures.
#
#######################################################################

data_VIPRAP
_symmetry_cell_setting           monoclinic
_symmetry_space_group_name_H-M   'P 21/c'
_symmetry_Int_Tables_number      14
_space_group_name_Hall           '-P 2ybc'
loop_
_symmetry_equiv_pos_site_id
_symmetry_equiv_pos_as_xyz
1 x,y,z
2 -x,1/2+y,1/2-z
3 -x,-y,-z
4 x,1/2-y,1/2+z
_cell_length_a                   15.672(5)
_cell_length_b                   23.839(5)
_cell_length_c                   27.654(5)
_cell_angle_alpha                90
_cell_angle_beta                 115.850(12)
_cell_angle_gamma                90
_cell_volume                     9297.87
loop_
_atom_site_label
_atom_site_type_symbol
_atom_site_fract_x
_atom_site_fract_y
_atom_site_fract_z
C1 C 1.2586(13) 0.9329(8) 0.3391(7)
H1 H 1.2954 0.9271 0.3756
N1 N 1.2799(8) 0.9623(5) 0.5959(4)
O1 O 1.6568(4) 0.8346(3) 0.6054(2)
O2 O 1.8628(6) 0.9081(4) 0.8314(3)
H2 H 1.8973 0.8793 0.8354
H3 H 1.8755 0.9224 0.8619
P1 P 1.9885(2) 0.85478(13) 0.76022(11)
Mo1 Mo 1.46489(6) 0.76042(4) 0.64377(3)
Cd1 Cd 1.62951(5) 0.74392(3) 0.57348(3)
C2 C 1.2955(12) 0.9623(7) 0.3091(7)
H4 H 1.3578 0.9751 0.3248
N2 N 1.2419(10) 0.9712(6) 0.2595(6)
H5 H 1.2662 0.9879 0.2409
O3 O 1.5964(4) 0.6517(3) 0.5403(2)
O4 O 1.3883(5) 0.9085(3) 0.8092(3)
H6 H 1.3786 0.9428 0.8138
H7 H 1.3612 0.8878 0.8234
P2 P 1.47535(19) 0.87345(11) 0.71454(10)
Mo2 Mo 1.79011(7) 0.65163(4) 0.69577(3)
Cd2 Cd 1.39608(6) 0.99275(4) 0.67875(3)
C3 C 1.151(2) 0.9565(12) 0.2347(13)
H8 H 1.1132 0.9665 0.1993
O5 O 1.5368(5) 0.7176(3) 0.6131(3)
P3 P 1.2931(2) 1.09754(13) 0.72127(13)
Mo3 Mo 1.88364(6) 0.73974(4) 0.68929(3)
Cd3 Cd 1.54798(6) 0.89104(3) 0.85048(3)
C4 C 1.116(2) 0.9247(14) 0.2650(14)
H9 H 1.0536 0.9122 0.2487
O6 O 1.7632(5) 0.7052(3) 0.6372(3)
P4 P 1.70470(19) 0.77341(11) 0.72479(10)
Mo4 Mo 1.59203(6) 0.88131(4) 0.63847(3)
Cd4 Cd 1.70659(5) 0.88345(3) 0.79052(3)
C5 C 1.1676(14) 0.9125(9) 0.3146(10)
O7 O 1.6507(5) 0.6230(3) 0.6485(3)
P5 P 1.7765(2) 0.88930(12) 0.93088(10)
Mo5 Mo 1.54944(6) 0.66370(4) 0.66902(3)
C6 C 1.1402(19) 0.8829(9) 0.3633(15)
H10 H 1.0777 0.8660 0.3464
H11 H 1.1856 0.8537 0.3821
O8 O 1.4411(6) 1.0407(3) 0.6238(3)
P6 P 1.26452(19) 0.63610(12) 0.38494(10)
Mo6 Mo 1.46696(6) 0.83672(4) 0.45350(3)
C7 C 1.1422(17) 0.9296(11) 0.4051(9)
H12 H 1.2074 0.9385 0.4293
H13 H 1.1121 0.9636 0.3859
O9 O 1.4946(5) 0.7811(3) 0.5110(2)
P7 P 1.54768(18) 0.78609(11) 0.92182(10)
Mo7 Mo 1.70634(6) 0.82273(4) 0.47547(3)
C8 C 1.0955(17) 0.9111(11) 0.4346(9)
H14 H 1.0906 0.8705 0.4349
H15 H 1.0336 0.9281 0.4234
O10 O 1.7089(5) 0.9007(3) 0.7020(2)
P8 P 1.4518(2) 1.10293(12) 0.62782(11)
Mo8 Mo 1.48078(6) 0.61550(4) 0.48638(3)
C9 C 1.1712(19) 0.9352(13) 0.4881(11)
O11 O 1.8242(5) 0.8358(3) 0.9610(3)
P9 P 1.5998(2) 1.00914(12) 0.79874(11)
Mo9 Mo 1.37227(6) 0.74875(4) 0.45998(3)
C10 C 1.2358(14) 0.8988(8) 0.5224(7)
H16 H 1.2444 0.8636 0.5107
O12 O 2.0725(5) 0.8768(3) 0.7492(3)
Mo10 Mo 1.65863(6) 0.60500(4) 0.50600(3)
C11 C 1.2871(10) 0.9145(6) 0.5738(6)
H17 H 1.3322 0.8891 0.5961
O13 O 1.8903(5) 0.6957(3) 0.7503(3)
Mo11 Mo 1.78846(6) 0.72498(4) 0.50103(3)
C12 C 1.2151(15) 0.9979(8) 0.5629(8)
H18 H 1.2037 1.0308 0.5771
O14 O 1.7201(5) 0.7697(3) 0.5327(3)
Mo12 Mo 1.77103(6) 0.87235(4) 0.65905(3)
C13 C 1.165(2) 0.9881(13) 0.5092(13)
H19 H 1.1269 1.0161 0.4866
O15 O 1.1807(5) 0.6114(3) 0.3941(3)
O16 O 1.5568(5) 0.9805(3) 0.8324(3)
O17 O 1.5262(5) 1.1221(3) 0.6094(3)
O18 O 1.2407(5) 0.6320(3) 0.3265(3)
O19 O 1.8470(5) 0.8112(3) 0.6382(2)
O20 O 1.5047(5) 0.7135(3) 0.7074(3)
O21 O 1.8991(5) 0.8869(3) 0.7237(3)
O22 O 1.4890(5) 1.1217(3) 0.6885(3)
O23 O 1.7472(5) 0.7702(3) 0.4365(3)
O24 O 1.5248(5) 1.0307(3) 0.7452(3)
O25 O 1.6757(5) 0.9747(3) 0.7922(3)
O26 O 1.3552(5) 0.7403(3) 0.6034(3)
O27 O 1.7798(5) 0.6557(3) 0.5481(3)
O28 O 1.5425(5) 0.9133(3) 0.9425(3)
O29 O 1.5194(5) 0.9053(3) 0.6821(3)
O30 O 1.6586(5) 1.0631(3) 0.8323(3)
O31 O 1.8556(5) 0.9273(3) 0.9299(3)
O32 O 1.9773(5) 0.7921(3) 0.7468(3)
O33 O 1.4739(5) 0.8296(3) 0.5983(3)
O34 O 1.6921(4) 0.7096(3) 0.7160(3)
O35 O 1.3975(5) 0.9113(3) 0.7162(3)
O36 O 1.4692(5) 0.5614(3) 0.5214(3)
O37 O 1.6907(5) 0.5482(3) 0.5452(3)
O38 O 1.4293(5) 0.8186(3) 0.6858(3)
O39 O 1.5611(5) 0.9376(3) 0.5985(3)
O40 O 1.4723(4) 0.8055(3) 0.9407(3)
O41 O 1.5517(5) 0.8618(3) 0.7715(3)
O42 O 1.7274(5) 0.9203(3) 0.9613(3)
O43 O 1.5614(4) 0.7228(3) 0.9313(3)
O44 O 2.0121(5) 0.8645(4) 0.8187(3)
O45 O 1.2954(6) 1.0406(3) 0.7018(3)
O46 O 1.4074(5) 0.6758(3) 0.5090(3)
O47 O 1.4156(5) 0.8881(3) 0.4726(3)
O48 O 1.6093(4) 0.8016(3) 0.6874(2)
O49 O 1.2984(5) 0.7785(3) 0.4813(3)
O50 O 1.5171(5) 0.8019(3) 0.8638(2)
O51 O 1.7801(4) 0.7928(3) 0.7062(2)
O52 O 1.3899(5) 1.1172(3) 0.7621(3)
O53 O 1.2603(6) 1.1384(4) 0.6696(4)
O54 O 1.6428(4) 0.8152(3) 0.9585(2)
O55 O 1.7337(5) 0.7908(3) 0.7825(2)
O56 O 1.3631(5) 0.7945(3) 0.3997(3)
O57 O 1.6078(5) 0.8649(3) 0.4970(3)
O58 O 1.3523(5) 0.6022(3) 0.4203(3)
O59 O 1.2748(5) 0.6977(3) 0.4028(3)
O60 O 1.3572(5) 1.1341(3) 0.5977(3)
O61 O 1.8996(5) 0.7442(3) 0.5405(3)
O62 O 1.7989(5) 0.8665(3) 0.5066(3)
O63 O 1.7813(5) 0.9262(3) 0.6236(3)
O64 O 1.2192(5) 1.1058(3) 0.7418(3)
O65 O 1.8457(5) 0.6015(3) 0.6788(3)
O66 O 1.9602(5) 0.7098(3) 0.6702(3)
O67 O 1.4595(5) 0.6195(3) 0.6349(3)
O68 O 1.7038(5) 0.8757(3) 0.8744(3)
Mo2A Mo 1.20989(7) 1.15163(4) 0.80423(3)
Mo5A Mo 1.45056(6) 1.16370(4) 0.83098(3)
Mo6B Mo 1.53304(6) 1.16328(4) 0.54650(3)
Mo6C Mo 1.46696(6) 0.66328(4) 0.95350(3)
Mo7B Mo 1.29366(6) 1.17727(4) 0.52453(3)
Mo7C Mo 1.70634(6) 0.67727(4) 0.97547(3)
Mo8C Mo 1.48078(6) 0.88450(4) 0.98638(3)
O11C O 1.8242(5) 0.6642(3) 0.4610(3)
Mo9C Mo 1.37227(6) 0.75125(4) 0.95998(3)
Mo10C Mo 1.65863(6) 0.89500(4) 1.00600(3)
Mo11C Mo 1.78846(6) 0.77502(4) 1.00103(3)
O17B O 1.4738(5) 0.8779(3) 0.3906(3)
O28C O 1.5425(5) 0.5867(3) 0.4425(3)
O40C O 1.4723(4) 0.6945(3) 0.4407(3)
O42C O 1.7274(5) 0.5797(3) 0.4613(3)
O43C O 1.5614(4) 0.7772(3) 0.4313(3)
O52A O 1.6101(5) 0.6172(3) 0.7379(3)
O54C O 1.6428(4) 0.6848(3) 0.4585(2)
O60B O 1.6428(5) 0.8659(3) 0.4023(3)
O64A O 1.7808(5) 0.6058(3) 0.7582(3)
N3 N 0.9623(12) 0.7381(5) -0.1506(5)
H20 H 0.9363 0.7303 -0.1843
N4 N 1.2927(7) 0.7724(5) 0.2970(4)
H21 H 1.3177 0.7761 0.3314
N5 N 1.1716(13) 0.9688(6) -0.0133(8)
H22 H 1.1791 1.0019 -0.0232
N6 N 1.0813(9) 0.5619(5) 0.1620(5)
H23 H 1.0712 0.5318 0.1760
C14 C 1.0857(14) 0.9499(9) -0.0281(9)
H24 H 1.0343 0.9717 -0.0503
C15 C 1.0702(10) 0.8998(7) -0.0117(6)
H25 H 1.0083 0.8879 -0.0217
C16 C 1.1442(9) 0.8659(6) 0.0194(4)
C17 C 1.2355(9) 0.8856(6) 0.0320(5)
H26 H 1.2875 0.8626 0.0508
C18 C 1.2493(11) 0.9382(7) 0.0171(6)
H27 H 1.3100 0.9524 0.0274
C19 C 0.9129(10) 0.7305(7) -0.1229(6)
H28 H 0.8504 0.7182 -0.1397
C20 C 0.9552(10) 0.7411(7) -0.0689(5)
H29 H 0.9214 0.7351 -0.0488
C21 C 1.0468(8) 0.7604(5) -0.0440(4)
C22 C 1.0918(9) 0.7692(6) -0.0745(5)
H30 H 1.1529 0.7838 -0.0585
C23 C 1.0526(12) 0.7577(7) -0.1279(6)
H31 H 1.0863 0.7630 -0.1481
C24 C 1.0057(10) 0.5902(6) 0.1274(6)
H32 H 0.9446 0.5763 0.1163
C25 C 1.1719(11) 0.5769(7) 0.1767(6)
H33 H 1.2219 0.5539 0.1984
C26 C 1.1877(11) 0.6280(7) 0.1582(5)
H34 H 1.2495 0.6409 0.1699
C27 C 1.1138(10) 0.6602(6) 0.1227(5)
C28 C 1.0214(9) 0.6398(6) 0.1090(5)
H35 H 0.9697 0.6613 0.0866
C29 C 1.3011(10) 0.7855(6) 0.2165(5)
H36 H 1.3351 0.7977 0.1981
C30 C 1.2112(9) 0.7635(5) 0.1880(4)
C31 C 1.1648(9) 0.7446(5) 0.2186(5)
H37 H 1.1047 0.7287 0.2018
C32 C 1.2091(9) 0.7500(6) 0.2731(5)
H38 H 1.1788 0.7375 0.2935
C33 C 1.3406(10) 0.7896(7) 0.2713(5)
H39 H 1.4012 0.8044 0.2900
C34 C 1.0832(9) 0.7148(5) 0.0420(5)
H40 H 1.0465 0.6848 0.0224
C35 C 1.1291(11) 0.7133(6) 0.1002(5)
C36 C 1.1609(12) 0.7617(6) 0.1285(5)
C37 C 1.1742(10) 0.8109(6) 0.1019(5)
H41 H 1.2115 0.8406 0.1217
C38 C 1.1278(12) 0.8127(6) 0.0434(6)
C39 C 1.0954(11) 0.7641(6) 0.0149(5)
O69 O 1.4216(12) 1.0112(5) 0.5126(5)
H42 H 1.4263 1.0145 0.5443
H43 H 1.4314 0.9769 0.5080
O70 O 1.0736(12) 0.4752(7) 0.2196(9)
H44 H 1.0932 0.4437 0.2140
H45 H 1.1151 0.5002 0.2241
O71 O 1.6108(7) 0.7630(5) 0.3185(4)
H46 H 1.6394 0.7752 0.3505
H47 H 1.6523 0.7490 0.3099
O72 O 1.4212(11) 0.4915(5) 0.3747(5)
H48 H 1.4008 0.5183 0.3522
H49 H 1.4029 0.4962 0.3991
O73 O 0.9445(15) 0.9298(9) 0.0866(9)
H50 H 0.9567 0.9241 0.1193
H51 H 0.9866 0.9139 0.0796
O74 O 1.072(4) 0.5037(11) 0.328(3)
H52 H 1.0372 0.5330 0.3189
H53 H 1.0542 0.4833 0.3478
O75 O 1.1392(9) 0.9683(6) 0.1095(7)
H54 H 1.1847 0.9465 0.1134
H55 H 1.1436 0.9984 0.0942
loop_
_geom_bond_atom_site_label_1
_geom_bond_atom_site_label_2
_geom_bond_site_symmetry_1
_geom_bond_site_symmetry_2
C1 H1 1_555 1_555
N1 Cd2 1_555 1_555
O1 Cd1 1_555 1_555
O2 H2 1_555 1_555
H3 O2 1_555 1_555
P1 O12 1_555 1_555
Mo1 O5 1_555 1_555
Cd1 O3 1_555 1_555
C2 C1 1_555 1_555
H4 C2 1_555 1_555
N2 C2 1_555 1_555
H5 N2 1_555 1_555
O3 Mo8 1_555 1_555
O4 H6 1_555 1_555
H7 O4 1_555 1_555
P2 O29 1_555 1_555
Mo2 Mo3 1_555 1_555
Cd2 O8 1_555 1_555
C3 N2 1_555 1_555
H8 C3 1_555 1_555
O5 Cd1 1_555 1_555
P3 O45 1_555 1_555
Mo3 O6 1_555 1_555
Cd3 O4 1_555 1_555
C4 C3 1_555 1_555
H9 C4 1_555 1_555
O6 Cd1 1_555 1_555
P4 O34 1_555 1_555
Mo4 O1 1_555 1_555
Cd4 O2 1_555 1_555
C5 C1 1_555 1_555
O7 Mo2 1_555 1_555
P5 O11 1_555 1_555
Mo5 Mo1 1_555 1_555
C6 C5 1_555 1_555
H10 C6 1_555 1_555
H11 C6 1_555 1_555
O8 P8 1_555 1_555
P6 O15 1_555 1_555
Mo6 O9 1_555 1_555
C7 C6 1_555 1_555
H12 C7 1_555 1_555
H13 C7 1_555 1_555
O9 Cd1 1_555 1_555
P7 O40 1_555 1_555
Mo7 Mo11 1_555 1_555
C8 C7 1_555 1_555
H14 C8 1_555 1_555
H15 C8 1_555 1_555
O10 Mo4 1_555 1_555
P8 O17 1_555 1_555
Mo8 Mo10 1_555 1_555
C9 C8 1_555 1_555
O11 Mo11C 1_555 1_555
P9 O16 1_555 1_555
Mo9 Mo6 1_555 1_555
C10 C9 1_555 1_555
H16 C10 1_555 1_555
Mo10 O3 1_555 1_555
C11 N1 1_555 1_555
H17 C11 1_555 1_555
O13 Mo2 1_555 1_555
Mo11 O14 1_555 1_555
C12 N1 1_555 1_555
H18 C12 1_555 1_555
O14 Cd1 1_555 1_555
Mo12 O1 1_555 1_555
C13 C9 1_555 1_555
H19 C13 1_555 1_555
O16 Cd3 1_555 1_555
O17 Mo6B 1_555 1_555
O18 P6 1_555 1_555
O19 Mo3 1_555 1_555
O20 Mo1 1_555 1_555
O21 P1 1_555 1_555
O22 P8 1_555 1_555
O23 Mo7 1_555 1_555
O24 Cd2 1_555 1_555
O25 Cd4 1_555 1_555
O26 Mo1 1_555 1_555
O27 Mo10 1_555 1_555
O28 Cd3 1_555 1_555
O29 Cd2 1_555 1_555
O30 P9 1_555 1_555
O31 P5 1_555 1_555
O32 P1 1_555 1_555
O33 Mo1 1_555 1_555
O34 Mo2 1_555 1_555
O35 P2 1_555 1_555
O36 Mo8 1_555 1_555
O37 Mo10 1_555 1_555
O38 Mo1 1_555 1_555
O39 Mo4 1_555 1_555
O40 Mo8C 1_555 1_555
O41 P2 1_555 1_555
O42 P5 1_555 1_555
O43 P7 1_555 1_555
O44 P1 1_555 1_555
O45 Cd2 1_555 1_555
O46 Mo8 1_555 1_555
O47 Mo6 1_555 1_555
O48 Mo1 1_555 1_555
O49 Mo9 1_555 1_555
O50 Cd3 1_555 1_555
O51 Mo3 1_555 1_555
O52 P3 1_555 1_555
O53 P3 1_555 1_555
O54 P7 1_555 1_555
O55 P4 1_555 1_555
O56 Mo6 1_555 1_555
O57 Mo6 1_555 1_555
O58 P6 1_555 1_555
O59 P6 1_555 1_555
O60 P8 1_555 1_555
O61 Mo11 1_555 1_555
O62 Mo7 1_555 1_555
O63 Mo12 1_555 1_555
O64 P3 1_555 1_555
O65 Mo2 1_555 1_555
O66 Mo3 1_555 1_555
O67 Mo5 1_555 1_555
O68 Cd3 1_555 1_555
N3 H20 1_555 1_555
N4 H21 1_555 1_555
N5 H22 1_555 1_555
N6 H23 1_555 1_555
C14 N5 1_555 1_555
H24 C14 1_555 1_555
C15 C14 1_555 1_555
H25 C15 1_555 1_555
C16 C15 1_555 1_555
C17 C16 1_555 1_555
H26 C17 1_555 1_555
C18 N5 1_555 1_555
H27 C18 1_555 1_555
C19 N3 1_555 1_555
H28 C19 1_555 1_555
C20 C19 1_555 1_555
H29 C20 1_555 1_555
C21 C20 1_555 1_555
C22 C21 1_555 1_555
H30 C22 1_555 1_555
C23 N3 1_555 1_555
H31 C23 1_555 1_555
C24 N6 1_555 1_555
H32 C24 1_555 1_555
C25 N6 1_555 1_555
H33 C25 1_555 1_555
C26 C25 1_555 1_555
H34 C26 1_555 1_555
C27 C26 1_555 1_555
C28 C24 1_555 1_555
H35 C28 1_555 1_555
C29 H36 1_555 1_555
C30 C29 1_555 1_555
C31 C30 1_555 1_555
H37 C31 1_555 1_555
C32 N4 1_555 1_555
H38 C32 1_555 1_555
C33 N4 1_555 1_555
H39 C33 1_555 1_555
C34 H40 1_555 1_555
C35 C27 1_555 1_555
C36 C30 1_555 1_555
C37 C36 1_555 1_555
H41 C37 1_555 1_555
C38 C16 1_555 1_555
C39 C21 1_555 1_555
O69 H42 1_555 1_555
H43 O69 1_555 1_555
O70 H44 1_555 1_555
H45 O70 1_555 1_555
O71 H46 1_555 1_555
H47 O71 1_555 1_555
O72 H48 1_555 1_555
H49 O72 1_555 1_555
O73 H50 1_555 1_555
H51 O73 1_555 1_555
O74 H52 1_555 1_555
H53 O74 1_555 1_555
O75 H54 1_555 1_555
H55 O75 1_555 1_555
Mo2A O64 1_555 1_555
Mo5A O52 1_555 1_555
Mo6C O43 1_555 1_555
Mo7B O60 1_555 1_555
Mo7C O43 1_555 1_555
Mo8C O28 1_555 1_555
O11C Mo11 1_555 1_555
Mo9C O40 1_555 1_555
Mo10C O28 1_555 1_555
Mo11C O54 1_555 1_555
O17B Mo6 1_555 1_555
O28C Mo8 1_555 1_555
O40C Mo8 1_555 1_555
O42C Mo10 1_555 1_555
O43C Mo6 1_555 1_555
O52A Mo5 1_555 1_555
O54C Mo10 1_555 1_555
O60B Mo7 1_555 1_555
O64A Mo2 1_555 1_555
P2 O38 1_555 1_555
Mo2 O6 1_555 1_555
Cd2 O35 1_555 1_555
O5 Mo5 1_555 1_555
Mo3 O13 1_555 1_555
Mo3 O32 1_555 1_555
Cd3 O41 1_555 1_555
C4 C5 1_555 1_555
P4 O48 1_555 1_555
P4 O51 1_555 1_555
Mo4 Mo12 1_555 1_555
Mo4 O29 1_555 1_555
Mo4 O33 1_555 1_555
Mo4 O48 1_555 1_555
Cd4 O10 1_555 1_555
Cd4 O41 1_555 1_555
Cd4 O55 1_555 1_555
Cd4 O68 1_555 1_555
O7 Mo5 1_555 1_555
P5 O68 1_555 1_555
Mo5 O20 1_555 1_555
Mo5 O34 1_555 1_555
O9 Mo9 1_555 1_555
P7 O50 1_555 1_555
Mo7 O14 1_555 1_555
Mo7 O57 1_555 1_555
Mo7 O43C 1_555 1_555
O10 Mo12 1_555 1_555
Mo8 O58 1_555 1_555
P9 O24 1_555 1_555
P9 O25 1_555 1_555
Mo9 O46 1_555 1_555
Mo9 O56 1_555 1_555
Mo9 O59 1_555 1_555
Mo9 O40C 1_555 1_555
C10 C11 1_555 1_555
Mo10 O28C 1_555 1_555
Mo11 O23 1_555 1_555
Mo11 O27 1_555 1_555
Mo11 O54C 1_555 1_555
C12 C13 1_555 1_555
Mo12 O19 1_555 1_555
Mo12 O21 1_555 1_555
Mo12 O51 1_555 1_555
O42 Mo10C 1_555 1_555
O54 Mo10C 1_555 1_555
C17 C18 1_555 1_555
C22 C23 1_555 1_555
C27 C28 1_555 1_555
C29 C33 1_555 1_555
C31 C32 1_555 1_555
C34 C35 1_555 1_555
C34 C39 1_555 1_555
C35 C36 1_555 1_555
C37 C38 1_555 1_555
C38 C39 1_555 1_555
Mo6C Mo9C 1_555 1_555
Mo7C Mo11C 1_555 1_555
Mo8C Mo10C 1_555 1_555

#END
