
#######################################################################
#
#                 Cambridge Crystallographic Data Centre
#                                CCDC 
#
#######################################################################
#
# If this CIF has been generated from an entry in the Cambridge 
# Structural Database, then it will include bibliographic, chemical, 
# crystal, experimental, refinement or atomic coordinate data resulting 
# from the CCDC's data processing and validation procedures.
#
#######################################################################

data_VIPSOE
_symmetry_cell_setting           monoclinic
_symmetry_space_group_name_H-M   'C 2/c'
_symmetry_Int_Tables_number      15
_space_group_name_Hall           '-C 2yn'
loop_
_symmetry_equiv_pos_site_id
_symmetry_equiv_pos_as_xyz
1 x,y,z
2 -x,y,1/2-z
3 1/2+x,1/2+y,z
4 1/2-x,1/2+y,1/2-z
5 -x,-y,-z
6 x,-y,1/2+z
7 1/2-x,1/2-y,-z
8 1/2+x,1/2-y,1/2+z
_cell_length_a                   27.3970(17)
_cell_length_b                   9.5764(6)
_cell_length_c                   21.6754(14)
_cell_angle_alpha                90
_cell_angle_beta                 97.433(1)
_cell_angle_gamma                90
_cell_volume                     5639.07
loop_
_atom_site_label
_atom_site_type_symbol
_atom_site_fract_x
_atom_site_fract_y
_atom_site_fract_z
Pr1 Pr 0.014443(5) 0.250000(14) 0.008512(7)
C1 C 0.08267(9) -0.0154(3) 0.06113(13)
C2 C 0.12798(9) -0.0851(3) 0.09282(12)
C3 C 0.05948(9) 0.5746(3) 0.17173(12)
C4 C 0.04362(9) 0.5108(3) 0.10933(12)
C5 C 0.21188(10) -0.2111(3) 0.15102(14)
C6 C 0.26088(11) 0.8308(3) 0.39077(15)
C7 C 0.33610(11) -0.3437(3) 0.18593(14)
H1 H 0.3323 -0.3976 0.2207
C8 C 0.09428(10) 0.6972(3) 0.28360(13)
C9 C 0.15967(11) -0.0134(3) 0.13644(16)
H2 H 0.1527 0.0785 0.1459
C10 C 0.08283(12) 0.4950(3) 0.22016(14)
H3 H 0.0867 0.3995 0.2148
C11 C 0.10043(13) 0.5567(4) 0.27647(14)
H4 H 0.1162 0.5033 0.3089
C12 C 0.34745(11) -0.1805(3) 0.08407(14)
H5 H 0.3513 -0.1246 0.0500
C13 C 0.29695(11) -0.2675(3) 0.15686(14)
C14 C 0.05244(12) 0.7155(3) 0.18124(14)
H6 H 0.0355 0.7690 0.1496
C15 C 0.31376(12) 0.8545(3) 0.41214(17)
C16 C 0.17743(11) 0.8314(4) 0.41406(14)
H7 H 0.1548 0.8484 0.4417
C17 C 0.16187(11) 0.7811(3) 0.35461(14)
C18 C 0.13862(12) -0.2214(3) 0.07976(17)
H8 H 0.1172 -0.2720 0.0513
C19 C 0.20161(12) -0.0762(4) 0.16618(16)
H9 H 0.2225 -0.0279 0.1960
C20 C 0.18108(13) -0.2837(4) 0.10883(18)
H10 H 0.1884 -0.3754 0.0994
C21 C 0.30232(11) -0.1854(4) 0.10597(15)
H11 H 0.2759 -0.1340 0.0866
C22 C 0.38089(11) -0.3398(3) 0.16320(14)
H12 H 0.4071 -0.3926 0.1823
C23 C 0.24464(12) 0.7818(4) 0.33152(15)
H13 H 0.2672 0.7660 0.3037
C24 C 0.22675(12) 0.8557(4) 0.43135(15)
H14 H 0.2374 0.8894 0.4710
C25 C 0.07024(12) 0.7778(3) 0.23706(14)
H15 H 0.0660 0.8730 0.2430
C26 C 0.38714(10) -0.2577(3) 0.11215(14)
C27 C 0.19530(12) 0.7562(3) 0.31339(15)
H16 H 0.1847 0.7224 0.2737
C28 C 0.43485(10) -0.2515(3) 0.08701(13)
O1 O 0.05551(7) 0.3854(2) 0.10037(9)
O2 O 0.11178(8) 0.7623(2) 0.34028(10)
O3 O 0.34277(8) 0.8348(3) 0.36883(12)
H17 H 0.3715 0.8454 0.3840
O4 O 0.32852(9) 0.8911(3) 0.46497(12)
O5 O 0.08076(8) 0.1151(2) 0.06299(11)
O6 O 0.25350(8) -0.2782(3) 0.18227(11)
O7 O 0.46781(7) -0.3427(2) 0.10035(9)
O8 O 0.44170(7) -0.1528(2) 0.04974(10)
O9 O 0.01975(7) 0.5838(2) 0.06788(9)
O10 O 0.04446(8) 0.1241(2) -0.08121(10)
H18 H 0.0200 0.0888 -0.1040
H19 H 0.0591 0.1815 -0.1024
O11 O 0.08179(7) 0.38020(19) -0.03119(9)
H20 H 0.0752 0.4617 -0.0446
H21 H 0.1106 0.3833 -0.0120
O12 O 0.04866(7) -0.0880(2) 0.03345(10)
Pr1B Pr 0.514443(5) -0.250000(14) 0.008512(7)
Pr1D Pr -0.014443(5) -0.250000(14) -0.008512(7)
Pr1D_2 Pr -0.014443(5) 0.750000(14) -0.008512(7)
O7B O -0.03219(7) 0.1573(2) 0.10035(9)
O8B O -0.05830(7) 0.3472(2) 0.04974(10)
O9D O -0.01975(7) 0.4162(2) -0.06788(9)
O12D O -0.04866(7) 0.0880(2) -0.03345(10)
O13 O 0.5392(3) 0.6238(7) 0.2092(3)
H22 H 0.5098 0.5933 0.2009
H23 H 0.5419 0.6668 0.1755
loop_
_geom_bond_atom_site_label_1
_geom_bond_atom_site_label_2
_geom_bond_site_symmetry_1
_geom_bond_site_symmetry_2
Pr1 O1 1_555 1_555
C1 C2 1_555 1_555
C2 C9 1_555 1_555
C3 C4 1_555 1_555
C4 O1 1_555 1_555
C5 C19 1_555 1_555
C6 C15 1_555 1_555
C7 H1 1_555 1_555
C8 C11 1_555 1_555
C9 H2 1_555 1_555
C10 C3 1_555 1_555
H3 C10 1_555 1_555
C11 C10 1_555 1_555
H4 C11 1_555 1_555
C12 H5 1_555 1_555
C13 C7 1_555 1_555
C14 C3 1_555 1_555
H6 C14 1_555 1_555
C15 O3 1_555 1_555
C16 H7 1_555 1_555
C17 C16 1_555 1_555
C18 C2 1_555 1_555
H8 C18 1_555 1_555
C19 C9 1_555 1_555
H9 C19 1_555 1_555
C20 C5 1_555 1_555
H10 C20 1_555 1_555
C21 C12 1_555 1_555
H11 C21 1_555 1_555
C22 C7 1_555 1_555
H12 C22 1_555 1_555
C23 C6 1_555 1_555
H13 C23 1_555 1_555
C24 C6 1_555 1_555
H14 C24 1_555 1_555
C25 C8 1_555 1_555
H15 C25 1_555 1_555
C26 C12 1_555 1_555
C27 C17 1_555 1_555
H16 C27 1_555 1_555
C28 C26 1_555 1_555
O2 C8 1_555 1_555
O3 H17 1_555 1_555
O4 C15 1_555 1_555
O5 Pr1 1_555 1_555
O6 C5 1_555 1_555
O7 C28 1_555 1_555
O8 C28 1_555 1_555
O9 C4 1_555 1_555
O10 Pr1 1_555 1_555
H18 O10 1_555 1_555
H19 O10 1_555 1_555
O11 Pr1 1_555 1_555
H20 O11 1_555 1_555
H21 O11 1_555 1_555
O12 C1 1_555 1_555
O13 H22 1_555 1_555
H23 O13 1_555 1_555
Pr1B O7 1_555 1_555
Pr1D O12 1_555 1_555
Pr1D_2 O9 1_555 1_555
O7B Pr1 1_555 1_555
O8B Pr1 1_555 1_555
O9D Pr1 1_555 1_555
O12D Pr1 1_555 1_555
C1 O5 1_555 1_555
C13 C21 1_555 1_555
C13 O6 1_555 1_555
C14 C25 1_555 1_555
C16 C24 1_555 1_555
C17 O2 1_555 1_555
C18 C20 1_555 1_555
C22 C26 1_555 1_555
C23 C27 1_555 1_555
O8 Pr1B 1_555 1_555

#END
