
#######################################################################
#
#                 Cambridge Crystallographic Data Centre
#                                CCDC 
#
#######################################################################
#
# If this CIF has been generated from an entry in the Cambridge 
# Structural Database, then it will include bibliographic, chemical, 
# crystal, experimental, refinement or atomic coordinate data resulting 
# from the CCDC's data processing and validation procedures.
#
#######################################################################

data_VIPSUK
_symmetry_cell_setting           triclinic
_symmetry_space_group_name_H-M   'P -1'
_symmetry_Int_Tables_number      2
_space_group_name_Hall           '-P 1'
loop_
_symmetry_equiv_pos_site_id
_symmetry_equiv_pos_as_xyz
1 x,y,z
2 -x,-y,-z
_cell_length_a                   10.2310(6)
_cell_length_b                   11.8118(6)
_cell_length_c                   14.3588(9)
_cell_angle_alpha                91.191(7)
_cell_angle_beta                 107.481(5)
_cell_angle_gamma                106.074(6)
_cell_volume                     1580.1
loop_
_atom_site_label
_atom_site_type_symbol
_atom_site_fract_x
_atom_site_fract_y
_atom_site_fract_z
Zn1 Zn 1.32995(12) 0.41377(10) 0.39336(8)
Cl1 Cl 1.4508(3) 0.6199(2) 0.45651(17)
F1 F 0.7971(10) -0.0762(7) -0.0678(5)
F2 F 0.6122(9) 0.2436(7) -0.0664(4)
F3 F 0.8098(7) 0.2576(6) 0.7540(4)
F4 F 1.2544(8) 0.3386(7) 0.9953(4)
N1 N 0.5148(8) 0.3554(8) 0.1793(5)
N2 N 0.5348(9) 0.4724(7) 0.1718(6)
N3 N 0.4536(8) 0.4152(7) 0.2976(5)
N4 N 1.1903(9) 0.4025(7) 0.4804(5)
N5 N 1.0061(8) 0.3403(6) 0.5307(5)
N6 N 1.0891(8) 0.4430(6) 0.5911(5)
N7 N 1.1616(8) 0.4340(7) 0.2632(5)
N8 N 1.0182(9) 0.4016(9) 0.1051(6)
N9 N 0.9478(8) 0.4220(7) 0.1671(5)
N10 N 0.7509(8) -0.2201(7) 0.6379(5)
N11 N 0.8367(9) -0.0419(7) 0.7239(6)
N12 N 0.7677(8) -0.0339(7) 0.6293(5)
O1 O 0.7534(7) 0.2765(6) 0.2468(4)
H1 H 0.6956 0.2212 0.2602
O2 O 0.9802(7) 0.1089(6) 0.5651(4)
H2 H 0.9323 0.0797 0.5087
C1 C 0.7769(15) 0.0150(10) -0.0176(9)
C2 C 0.7008(14) 0.0812(11) -0.0685(8)
H3 H 0.6611 0.0669 -0.1366
C3 C 0.6831(12) 0.1716(11) -0.0163(8)
C4 C 0.7305(10) 0.1914(8) 0.0866(6)
C5 C 0.8047(12) 0.1152(9) 0.1326(7)
H4 H 0.8379 0.1228 0.2009
C6 C 0.8309(14) 0.0295(9) 0.0817(8)
H5 H 0.8848 -0.0178 0.1146
C7 C 0.7064(10) 0.2849(8) 0.1446(6)
C8 C 0.5481(11) 0.2778(9) 0.1112(7)
H6 H 0.5219 0.3018 0.0456
H7 H 0.4911 0.1963 0.1083
C9 C 0.4661(10) 0.3227(9) 0.2527(7)
H8 H 0.4441 0.2460 0.2701
C10 C 0.4963(11) 0.5041(9) 0.2440(7)
H9 H 0.4978 0.5816 0.2584
C11 C 1.1463(11) 0.4096(10) 0.1657(7)
H10 H 1.2202 0.3997 0.1446
C12 C 1.0311(11) 0.4394(8) 0.2601(7)
H11 H 1.0035 0.4532 0.3144
C13 C 0.7955(10) 0.4106(9) 0.1330(7)
H12 H 0.7669 0.4244 0.0644
H13 H 0.7766 0.4699 0.1706
C14 C 0.9018(10) 0.1666(8) 0.6051(6)
C15 C 0.9956(10) 0.2149(8) 0.7112(6)
C16 C 0.9466(11) 0.2552(8) 0.7784(7)
C17 C 1.0282(12) 0.2959(9) 0.8753(6)
H14 H 0.9900 0.3211 0.9202
C18 C 1.1686(12) 0.2967(10) 0.9008(6)
C19 C 1.2280(12) 0.2644(9) 0.8356(7)
H15 H 1.3248 0.2691 0.8550
C20 C 1.1427(10) 0.2248(8) 0.7411(7)
H16 H 1.1826 0.2039 0.6955
C21 C 0.7561(10) 0.0805(8) 0.5970(7)
H17 H 0.7120 0.1149 0.6367
H18 H 0.6944 0.0683 0.5292
C22 C 0.7170(11) -0.1387(9) 0.5789(7)
H19 H 0.6653 -0.1546 0.5122
C23 C 0.8252(11) -0.1510(9) 0.7257(7)
H20 H 0.8644 -0.1822 0.7827
C24 C 1.0684(10) 0.3188(8) 0.4666(6)
H21 H 1.0314 0.2539 0.4187
C25 C 1.1980(11) 0.4760(8) 0.5568(6)
H22 H 1.2742 0.5445 0.5829
C26 C 0.8744(10) 0.2674(8) 0.5427(7)
H23 H 0.8054 0.2338 0.4787
H24 H 0.8341 0.3160 0.5745
Zn1_2 Zn 0.32995(12) 0.41377(10) 0.39336(8)
Zn1A Zn 0.67005(12) -0.41377(10) 0.60664(8)
Zn1A_2 Zn 1.67005(12) 0.58623(10) 0.60664(8)
Cl1A Cl 1.5492(3) 0.3801(2) 0.54349(17)
N3_2 N 1.4536(8) 0.4152(7) 0.2976(5)
N10A N 1.2491(8) 0.2201(7) 0.3621(5)
Cl2 Cl 0.4395(3) 0.9322(2) 0.6822(2)
O3 O 0.5759(12) 0.8041(10) 0.3197(8)
H25 H 0.5660 0.8728 0.3247
H26 H 0.5394 0.7628 0.3585
O4 O 0.1267(8) 0.9438(6) 0.6285(5)
H27 H 0.0960 0.9921 0.6543
H28 H 0.2165 0.9582 0.6394
loop_
_geom_bond_atom_site_label_1
_geom_bond_atom_site_label_2
_geom_bond_site_symmetry_1
_geom_bond_site_symmetry_2
Zn1 Cl1 1_555 1_555
Cl1 Zn1A_2 1_555 1_555
F1 C1 1_555 1_555
F2 C3 1_555 1_555
F3 C16 1_555 1_555
F4 C18 1_555 1_555
N1 N2 1_555 1_555
N2 C10 1_555 1_555
N3 C9 1_555 1_555
N4 Zn1 1_555 1_555
N5 N6 1_555 1_555
N6 C25 1_555 1_555
N7 Zn1 1_555 1_555
N8 N9 1_555 1_555
N9 C12 1_555 1_555
N10 C22 1_555 1_555
N11 N12 1_555 1_555
N12 C21 1_555 1_555
O1 H1 1_555 1_555
O2 H2 1_555 1_555
C1 C2 1_555 1_555
C2 H3 1_555 1_555
C3 C2 1_555 1_555
C4 C3 1_555 1_555
C5 C4 1_555 1_555
H4 C5 1_555 1_555
C6 C1 1_555 1_555
H5 C6 1_555 1_555
C7 O1 1_555 1_555
C8 N1 1_555 1_555
H6 C8 1_555 1_555
H7 C8 1_555 1_555
C9 N1 1_555 1_555
H8 C9 1_555 1_555
C10 N3 1_555 1_555
H9 C10 1_555 1_555
C11 N7 1_555 1_555
H10 C11 1_555 1_555
C12 N7 1_555 1_555
H11 C12 1_555 1_555
C13 N9 1_555 1_555
H12 C13 1_555 1_555
H13 C13 1_555 1_555
C14 O2 1_555 1_555
C15 C14 1_555 1_555
C16 C15 1_555 1_555
C17 C16 1_555 1_555
H14 C17 1_555 1_555
C18 C17 1_555 1_555
C19 C18 1_555 1_555
H15 C19 1_555 1_555
C20 C15 1_555 1_555
H16 C20 1_555 1_555
C21 C14 1_555 1_555
H17 C21 1_555 1_555
H18 C21 1_555 1_555
C22 N12 1_555 1_555
H19 C22 1_555 1_555
C23 N10 1_555 1_555
H20 C23 1_555 1_555
C24 N4 1_555 1_555
H21 C24 1_555 1_555
C25 N4 1_555 1_555
H22 C25 1_555 1_555
C26 N5 1_555 1_555
H23 C26 1_555 1_555
H24 C26 1_555 1_555
O3 H25 1_555 1_555
H26 O3 1_555 1_555
O4 H27 1_555 1_555
H28 O4 1_555 1_555
Zn1_2 N3 1_555 1_555
Zn1A N10 1_555 1_555
Zn1A_2 Cl1A 1_555 1_555
Cl1A Zn1 1_555 1_555
N3_2 Zn1 1_555 1_555
N10A Zn1 1_555 1_555
N5 C24 1_555 1_555
N8 C11 1_555 1_555
N11 C23 1_555 1_555
C4 C7 1_555 1_555
C5 C6 1_555 1_555
C7 C8 1_555 1_555
C7 C13 1_555 1_555
C14 C26 1_555 1_555
C19 C20 1_555 1_555

#END
