
#######################################################################
#
#                 Cambridge Crystallographic Data Centre
#                                CCDC 
#
#######################################################################
#
# If this CIF has been generated from an entry in the Cambridge 
# Structural Database, then it will include bibliographic, chemical, 
# crystal, experimental, refinement or atomic coordinate data resulting 
# from the CCDC's data processing and validation procedures.
#
#######################################################################

data_VIPTOE
_symmetry_cell_setting           triclinic
_symmetry_space_group_name_H-M   'P -1'
_symmetry_Int_Tables_number      2
_space_group_name_Hall           '-P 1'
loop_
_symmetry_equiv_pos_site_id
_symmetry_equiv_pos_as_xyz
1 x,y,z
2 -x,-y,-z
_cell_length_a                   8.8363(13)
_cell_length_b                   10.4211(16)
_cell_length_c                   10.8556(16)
_cell_angle_alpha                78.769(3)
_cell_angle_beta                 75.255(3)
_cell_angle_gamma                68.710(3)
_cell_volume                     894.904
loop_
_atom_site_label
_atom_site_type_symbol
_atom_site_fract_x
_atom_site_fract_y
_atom_site_fract_z
O1 O -0.0120(6) -0.8483(5) -0.1568(4)
H13 H -0.0827 -0.8045 -0.2084
H16 H 0.0804 -0.8657 -0.2160
Co1 Co -0.00478(11) -0.24428(9) -0.20834(8)
N1 N -0.2498(6) -0.2105(5) -0.0939(5)
C1 C -0.2889(8) -0.2315(6) 0.0336(6)
H1 H -0.2022 -0.2657 0.0805
C2 C -0.4500(8) -0.2055(7) 0.0999(6)
C3 C -0.5800(8) -0.1514(7) 0.0312(7)
H2 H -0.6926 -0.1293 0.0747
C4 C -0.5392(8) -0.1316(6) -0.0999(6)
H3 H -0.6233 -0.0945 -0.1493
C5 C -0.3735(8) -0.1665(6) -0.1593(6)
H4 H -0.3458 -0.1592 -0.2503
N2 N -0.4783(8) -0.2291(7) 0.2369(6)
H5 H -0.4092 -0.2149 0.2743
C6 C -0.5983(9) -0.2701(7) 0.3115(7)
O2 O -0.7071(6) -0.2945(5) 0.2680(4)
C7 C -0.5965(9) -0.2946(7) 0.4524(6)
C8 C -0.4520(8) -0.3421(6) 0.5018(7)
H6 H -0.3464 -0.3613 0.4459
C9 C -0.4649(8) -0.3610(6) 0.6339(7)
H7 H -0.3686 -0.3948 0.6702
C10 C -0.6203(8) -0.3297(7) 0.7108(6)
H8 H -0.6285 -0.3403 0.8009
N3 N -0.7621(7) -0.2847(5) 0.6657(5)
C11 C -0.7479(8) -0.2699(6) 0.5384(6)
H9 H -0.8462 -0.2410 0.5051
O3 O -1.0561(5) -0.3528(4) 0.6784(4)
C12 C -0.9789(10) -0.4799(7) 0.6674(6)
O4 O -0.8763(7) -0.5637(5) 0.7375(5)
C13 C -0.9871(8) -0.5382(7) 0.5548(6)
H10 H -1.0267 -0.3660 0.4376
O5 O 0.0563(5) -0.1304(4) -0.1009(4)
O6 O -0.0947(5) -0.0539(4) -0.3255(4)
O7 O 0.0967(6) -0.4263(4) -0.0830(4)
H12 H 0.0249 -0.1620 -0.0079
H14 H -0.1099 -0.0716 -0.4038
H15 H -0.0148 -0.0137 -0.3520
H17 H 0.0351 -0.0342 -0.1215
H20 H 0.1251 -0.4960 -0.1359
Co1_2 Co -1.00478(11) -0.24428(9) 0.79166(8)
Co1A Co -0.99522(11) -0.75572(9) 0.20834(8)
Co1_3 Co -2.00478(11) -0.24428(9) 1.79166(8)
N1_2 N -1.2498(6) -0.2105(5) 0.9061(5)
C1_2 C -1.2889(8) -0.2315(6) 1.0336(6)
H1_2 H -1.2022 -0.2657 1.0805
C2_2 C -1.4500(8) -0.2055(7) 1.0999(6)
C3_2 C -1.5800(8) -0.1514(7) 1.0312(7)
H2_2 H -1.6926 -0.1293 1.0747
C4_2 C -1.5392(8) -0.1316(6) 0.9001(6)
H3_2 H -1.6233 -0.0945 0.8507
C5_2 C -1.3735(8) -0.1665(6) 0.8407(6)
H4_2 H -1.3458 -0.1592 0.7497
N2_2 N -1.4783(8) -0.2291(7) 1.2369(6)
H5_2 H -1.4092 -0.2149 1.2743
C6_2 C -1.5983(9) -0.2701(7) 1.3115(7)
O2_2 O -1.7071(6) -0.2945(5) 1.2680(4)
C7_2 C -1.5965(9) -0.2946(7) 1.4524(6)
C8_2 C -1.4520(8) -0.3421(6) 1.5018(7)
H6_2 H -1.3464 -0.3613 1.4459
C9_2 C -1.4649(8) -0.3610(6) 1.6339(7)
H7_2 H -1.3686 -0.3948 1.6702
C10_2 C -1.6203(8) -0.3297(7) 1.7108(6)
H8_2 H -1.6285 -0.3403 1.8009
N3_2 N 0.2379(7) -0.2847(5) -0.3343(5)
N3_3 N -1.7621(7) -0.2847(5) 1.6657(5)
C11_2 C -1.7479(8) -0.2699(6) 1.5384(6)
H9_2 H -1.8462 -0.2410 1.5051
O3_2 O -0.0561(5) -0.3528(4) -0.3216(4)
O3A O -0.9439(5) -0.6472(4) 0.3216(4)
C12A C -1.0211(10) -0.5201(7) 0.3326(6)
O4A O -1.1237(7) -0.4363(5) 0.2625(5)
C13A C -1.0129(8) -0.4618(7) 0.4452(6)
H10A H -0.9733 -0.6340 0.5624
O5_2 O -0.9437(5) -0.1304(4) 0.8991(4)
O6_2 O -1.0947(5) -0.0539(4) 0.6745(4)
O7_2 O -0.9033(6) -0.4263(4) 0.9170(4)
H12_2 H -0.9751 -0.1620 0.9921
H14_2 H -1.1099 -0.0716 0.5962
H15_2 H -1.0148 -0.0137 0.6480
H17_2 H -0.9649 -0.0342 0.8785
H20_2 H -0.8749 -0.4960 0.8641
O8 O -0.2754(5) -0.1121(5) -0.6828(4)
C14 C -0.2666(8) -0.0725(6) -0.5829(6)
O9 O -0.1336(5) -0.0780(4) -0.5567(4)
C15 C -0.4257(8) -0.0110(6) -0.4901(6)
H11 H -0.4180 0.0133 -0.4125
O8A O -0.7246(5) 0.1121(5) -0.3172(4)
C14A C -0.7334(8) 0.0725(6) -0.4171(6)
O9A O -0.8664(5) 0.0780(4) -0.4433(4)
C15A C -0.5743(8) 0.0110(6) -0.5099(6)
H11A H -0.5820 -0.0133 -0.5875
O10 O -0.6632(7) -0.4665(5) -0.9391(5)
H18 H -0.6873 -0.4036 -0.8815
H19 H -0.5611 -0.4819 -0.9805
loop_
_geom_bond_atom_site_label_1
_geom_bond_atom_site_label_2
_geom_bond_site_symmetry_1
_geom_bond_site_symmetry_2
O1 H13 1_555 1_555
Co1 N1 1_555 1_555
N1 C1 1_555 1_555
C1 H1 1_555 1_555
C2 C1 1_555 1_555
C3 C2 1_555 1_555
H2 C3 1_555 1_555
C4 C3 1_555 1_555
H3 C4 1_555 1_555
C5 N1 1_555 1_555
H4 C5 1_555 1_555
N2 C2 1_555 1_555
H5 N2 1_555 1_555
C6 N2 1_555 1_555
O2 C6 1_555 1_555
C7 C6 1_555 1_555
C8 C7 1_555 1_555
H6 C8 1_555 1_555
C9 C8 1_555 1_555
H7 C9 1_555 1_555
C10 C9 1_555 1_555
H8 C10 1_555 1_555
N3 C10 1_555 1_555
C11 C7 1_555 1_555
H9 C11 1_555 1_555
O3 C12 1_555 1_555
C12 O4 1_555 1_555
C13 C12 1_555 1_555
H10 C13A 1_555 1_555
O5 Co1 1_555 1_555
O6 Co1 1_555 1_555
O7 Co1 1_555 1_555
O8 C14 1_555 1_555
C14 O9 1_555 1_555
C15 C14 1_555 1_555
H11 C15 1_555 1_555
O10 H18 1_555 1_555
H12 O5 1_555 1_555
H14 O6 1_555 1_555
H15 O6 1_555 1_555
H16 O1 1_555 1_555
H17 O5 1_555 1_555
H19 O10 1_555 1_555
H20 O7 1_555 1_555
Co1_2 N3 1_555 1_555
Co1A O3A 1_555 1_555
Co1_3 N3_3 1_555 1_555
N1_2 Co1_2 1_555 1_555
C1_2 N1_2 1_555 1_555
H1_2 C1_2 1_555 1_555
C2_2 C1_2 1_555 1_555
C3_2 C2_2 1_555 1_555
H2_2 C3_2 1_555 1_555
C4_2 C3_2 1_555 1_555
H3_2 C4_2 1_555 1_555
C5_2 N1_2 1_555 1_555
H4_2 C5_2 1_555 1_555
N2_2 C2_2 1_555 1_555
H5_2 N2_2 1_555 1_555
C6_2 N2_2 1_555 1_555
O2_2 C6_2 1_555 1_555
C7_2 C6_2 1_555 1_555
C8_2 C7_2 1_555 1_555
H6_2 C8_2 1_555 1_555
C9_2 C8_2 1_555 1_555
H7_2 C9_2 1_555 1_555
C10_2 C9_2 1_555 1_555
H8_2 C10_2 1_555 1_555
N3_2 Co1 1_555 1_555
N3_3 C10_2 1_555 1_555
C11_2 C7_2 1_555 1_555
H9_2 C11_2 1_555 1_555
O3_2 Co1 1_555 1_555
O3A C12A 1_555 1_555
C12A O4A 1_555 1_555
C13A C13 1_555 1_555
H10A C13 1_555 1_555
O5_2 Co1_2 1_555 1_555
O6_2 Co1_2 1_555 1_555
O7_2 Co1_2 1_555 1_555
O8A C14A 1_555 1_555
C14A O9A 1_555 1_555
C15A C15 1_555 1_555
H11A C15A 1_555 1_555
H12_2 O5_2 1_555 1_555
H14_2 O6_2 1_555 1_555
H15_2 O6_2 1_555 1_555
H17_2 O5_2 1_555 1_555
H20_2 O7_2 1_555 1_555
C4 C5 1_555 1_555
N3 C11 1_555 1_555
O3 Co1_2 1_555 1_555
C4_2 C5_2 1_555 1_555
N3_3 C11_2 1_555 1_555
C12A C13A 1_555 1_555
C14A C15A 1_555 1_555

#END
