
#######################################################################
#
#                 Cambridge Crystallographic Data Centre
#                                CCDC 
#
#######################################################################
#
# If this CIF has been generated from an entry in the Cambridge 
# Structural Database, then it will include bibliographic, chemical, 
# crystal, experimental, refinement or atomic coordinate data resulting 
# from the CCDC's data processing and validation procedures.
#
#######################################################################

data_VIPVUM
_symmetry_cell_setting           triclinic
_symmetry_space_group_name_H-M   'P -1'
_symmetry_Int_Tables_number      2
_space_group_name_Hall           '-P 1'
loop_
_symmetry_equiv_pos_site_id
_symmetry_equiv_pos_as_xyz
1 x,y,z
2 -x,-y,-z
_cell_length_a                   12.175(3)
_cell_length_b                   12.937(3)
_cell_length_c                   13.847(3)
_cell_angle_alpha                88.391(3)
_cell_angle_beta                 76.116(3)
_cell_angle_gamma                77.176(3)
_cell_volume                     2063.75
loop_
_atom_site_label
_atom_site_type_symbol
_atom_site_fract_x
_atom_site_fract_y
_atom_site_fract_z
Tb1 Tb 0.606211(15) 0.826414(13) 0.727736(13)
S1 S 0.54058(10) 0.75874(9) 1.00056(8)
O1 O 0.5977(3) 0.7626(2) 0.8925(2)
N1 N 0.7434(3) 0.9299(3) 0.5962(3)
C1 C 0.7544(4) 0.9260(4) 0.4969(3)
H1 H 0.7222 0.8770 0.4717
O2 O 0.5040(3) 0.9833(3) 0.8392(4)
S2 S 0.91275(8) 0.68035(8) 0.70247(8)
N2 N 0.7506(3) 0.9219(3) 0.7954(3)
O3 O 0.6295(3) 0.7314(3) 1.0593(2)
O4 O 0.4872(3) 0.9697(3) 0.6430(3)
C2 C 0.8119(4) 0.9922(4) 0.4283(4)
H2 H 0.8195 0.9843 0.3603
S3 S 0.54801(9) 0.75695(8) 0.48103(7)
N3 N 0.3850(3) 0.8088(3) 0.7791(2)
O5 O 0.4517(3) 0.8560(3) 1.0366(3)
C3 C 0.8564(4) 1.0683(4) 0.4646(4)
H3 H 0.8913 1.1144 0.4213
N4 N 0.5651(3) 0.6287(2) 0.7373(2)
O7 O 0.7898(2) 0.7105(2) 0.6924(2)
C4 C 0.8951(4) 1.1526(4) 0.6123(5)
H4 H 0.9242 1.2043 0.5727
O9 O 0.9818(3) 0.7550(2) 0.6544(3)
C5 C 0.8969(4) 1.1496(4) 0.7100(5)
H5 H 0.9268 1.1997 0.7362
O11 O 0.9179(3) 0.6570(3) 0.8057(2)
C6 C 0.8660(4) 1.0560(4) 0.8744(4)
H6 H 0.9009 1.1011 0.9018
O12 O 0.6047(3) 0.7569(2) 0.5655(2)
C7 C 0.8261(4) 0.9746(4) 0.9304(4)
H7 H 0.8369 0.9625 0.9943
O13 O 0.6359(3) 0.7331(2) 0.3855(2)
C8 C 0.7685(4) 0.9106(4) 0.8874(4)
H8 H 0.7414 0.8572 0.9256
O14 O 0.4595(3) 0.8557(2) 0.4804(2)
C9 C 0.8482(4) 1.0758(3) 0.5683(4)
C10 C 0.8528(4) 1.0693(3) 0.7747(4)
C11 C 0.7938(3) 1.0015(3) 0.6318(3)
C12 C 0.7969(3) 0.9989(3) 0.7369(3)
C13 C 0.2959(4) 0.8955(3) 0.8010(3)
H9 H 0.3136 0.9619 0.7990
C14 C 0.1772(4) 0.8902(4) 0.8268(3)
H10 H 0.1194 0.9519 0.8418
C15 C 0.1478(4) 0.7921(4) 0.8295(3)
H11 H 0.0705 0.7874 0.8451
C16 C 0.2148(4) 0.5928(4) 0.8108(3)
H12 H 0.1382 0.5855 0.8264
C17 C 0.3020(4) 0.5053(4) 0.7909(3)
H13 H 0.2842 0.4388 0.7936
C18 C 0.5166(4) 0.4224(3) 0.7440(3)
H14 H 0.5018 0.3547 0.7462
C19 C 0.6301(4) 0.4355(3) 0.7197(3)
H15 H 0.6921 0.3770 0.7055
C20 C 0.6495(4) 0.5403(3) 0.7168(3)
H16 H 0.7259 0.5479 0.6996
C21 C 0.2389(4) 0.6983(3) 0.8080(3)
C22 C 0.4232(4) 0.5128(3) 0.7654(3)
C23 C 0.3568(3) 0.7103(3) 0.7832(3)
C24 C 0.4514(3) 0.6158(3) 0.7613(3)
C25 C 0.4671(4) 0.6509(3) 1.0117(3)
C26 C 0.5332(4) 0.5412(3) 0.9921(3)
C27 C 0.6575(4) 0.5113(4) 0.9595(3)
H17 H 0.6995 0.5641 0.9480
C28 C 0.7160(4) 0.4070(4) 0.9449(3)
H18 H 0.7967 0.3902 0.9258
C29 C 0.3465(4) 0.6759(4) 1.0409(3)
H19 H 0.3066 0.7463 1.0512
C30 C 0.9713(3) 0.5558(3) 0.6322(3)
C31 C 0.9741(3) 0.5504(3) 0.5269(3)
C32 C 0.9281(3) 0.6403(3) 0.4720(3)
H20 H 0.8943 0.7052 0.5055
C33 C 0.9329(4) 0.6325(3) 0.3722(3)
H21 H 0.9032 0.6918 0.3391
C34 C 1.0163(3) 0.4667(3) 0.6810(3)
H22 H 1.0134 0.4716 0.7485
C35 C 0.4719(3) 0.6505(3) 0.5027(3)
C36 C 0.5344(3) 0.5400(3) 0.4926(3)
C37 C 0.6595(3) 0.5072(3) 0.4686(3)
H23 H 0.7036 0.5584 0.4602
C38 C 0.7151(3) 0.4012(3) 0.4577(3)
H24 H 0.7957 0.3820 0.4405
C39 C 0.3507(3) 0.6786(3) 0.5274(3)
H25 H 0.3129 0.7498 0.5342
Tb1A Tb 0.393789(15) 0.173586(13) 1.272264(13)
Tb1A_2 Tb 1.393789(15) 0.173586(13) 0.272264(13)
Tb1A_3 Tb 0.393789(15) 0.173586(13) 0.272264(13)
S1A S 0.45942(10) 0.24126(9) 0.99944(8)
O1A O 0.4023(3) 0.2374(2) 1.1075(2)
N1A N 0.2566(3) 0.0701(3) 1.4038(3)
C1A C 0.2456(4) 0.0740(4) 1.5031(3)
H1A H 0.2778 0.1230 1.5283
O2A O 0.4960(3) 0.0167(3) 1.1608(4)
S2A S 1.08725(8) 0.31965(8) 0.29753(8)
N2A N 0.2494(3) 0.0781(3) 1.2046(3)
O3A O 0.3705(3) 0.2686(3) 0.9407(2)
O4A O 0.5128(3) 0.0303(3) 1.3570(3)
C2A C 0.1881(4) 0.0078(4) 1.5717(4)
H2A H 0.1805 0.0157 1.6397
S3A S 0.45199(9) 0.24305(8) 0.51897(7)
N3A N 0.6150(3) 0.1912(3) 1.2209(2)
O5A O 0.5483(3) 0.1440(3) 0.9634(3)
C3A C 0.1436(4) -0.0683(4) 1.5354(4)
H3A H 0.1087 -0.1144 1.5787
N4A N 0.4349(3) 0.3713(2) 1.2627(2)
O7A O 0.2102(2) 0.2895(2) 1.3076(2)
O7A_2 O 1.2102(2) 0.2895(2) 0.3076(2)
C4A C 0.1049(4) -0.1526(4) 1.3877(5)
H4A H 0.0758 -0.2043 1.4273
O9A O 1.0182(3) 0.2450(2) 0.3456(3)
C5A C 0.1031(4) -0.1496(4) 1.2900(5)
H5A H 0.0732 -0.1997 1.2638
O11A O 1.0821(3) 0.3430(3) 0.1943(2)
C6A C 0.1340(4) -0.0560(4) 1.1256(4)
H6A H 0.0991 -0.1011 1.0982
O12A O 0.3953(3) 0.2431(2) 1.4345(2)
O12A_2 O 0.3953(3) 0.2431(2) 0.4345(2)
C7A C 0.1739(4) 0.0254(4) 1.0696(4)
H7A H 0.1631 0.0375 1.0057
O13A O 0.3641(3) 0.2669(2) 0.6145(2)
C8A C 0.2315(4) 0.0894(4) 1.1126(4)
H8A H 0.2586 0.1428 1.0744
O14A O 0.5405(3) 0.1443(2) 0.5196(2)
C9A C 0.1518(4) -0.0758(3) 1.4317(4)
C10A C 0.1472(4) -0.0693(3) 1.2253(4)
C11A C 0.2062(3) -0.0015(3) 1.3682(3)
C12A C 0.2031(3) 0.0011(3) 1.2631(3)
C13A C 0.7041(4) 0.1045(3) 1.1990(3)
H9A H 0.6864 0.0381 1.2010
C14A C 0.8228(4) 0.1098(4) 1.1732(3)
H10A H 0.8806 0.0481 1.1582
C15A C 0.8522(4) 0.2079(4) 1.1705(3)
H11A H 0.9295 0.2126 1.1549
C16A C 0.7852(4) 0.4072(4) 1.1892(3)
H12A H 0.8618 0.4145 1.1736
C17A C 0.6980(4) 0.4947(4) 1.2091(3)
H13A H 0.7158 0.5612 1.2064
C18A C 0.4834(4) 0.5776(3) 1.2560(3)
H14A H 0.4982 0.6453 1.2538
C19A C 0.3699(4) 0.5645(3) 1.2803(3)
H15A H 0.3079 0.6230 1.2945
C20A C 0.3505(4) 0.4597(3) 1.2832(3)
H16A H 0.2741 0.4521 1.3004
C21A C 0.7611(4) 0.3017(3) 1.1920(3)
C22A C 0.5768(4) 0.4872(3) 1.2346(3)
C23A C 0.6432(3) 0.2897(3) 1.2168(3)
C24A C 0.5486(3) 0.3842(3) 1.2387(3)
C25A C 0.5329(4) 0.3491(3) 0.9883(3)
C26A C 0.4668(4) 0.4588(3) 1.0079(3)
C27A C 0.3425(4) 0.4887(4) 1.0405(3)
H17A H 0.3005 0.4359 1.0520
C28A C 0.2840(4) 0.5930(4) 1.0551(3)
H18A H 0.2033 0.6098 1.0742
C29A C 0.6535(4) 0.3241(4) 0.9591(3)
H19A H 0.6934 0.2537 0.9488
C30A C 1.0287(3) 0.4442(3) 0.3678(3)
C31A C 1.0259(3) 0.4496(3) 0.4731(3)
C32A C 1.0719(3) 0.3597(3) 0.5280(3)
H20A H 1.1057 0.2948 0.4945
C33A C 1.0671(4) 0.3675(3) 0.6278(3)
H21A H 1.0968 0.3082 0.6609
C34A C 0.9837(3) 0.5333(3) 0.3190(3)
H22A H 0.9866 0.5284 0.2515
C35A C 0.5281(3) 0.3495(3) 0.4973(3)
C36A C 0.4656(3) 0.4600(3) 0.5074(3)
C37A C 0.3405(3) 0.4928(3) 0.5314(3)
H23A H 0.2964 0.4416 0.5398
C38A C 0.2849(3) 0.5988(3) 0.5423(3)
H24A H 0.2043 0.6180 0.5595
C39A C 0.6493(3) 0.3214(3) 0.4726(3)
H25A H 0.6871 0.2502 0.4658
O6 O 0.6786(4) 0.8393(3) 0.2071(3)
O8 O 0.9191(7) 0.6099(6) 1.0082(4)
O10 O 0.9341(5) 0.7876(6) 0.1278(5)
loop_
_geom_bond_atom_site_label_1
_geom_bond_atom_site_label_2
_geom_bond_site_symmetry_1
_geom_bond_site_symmetry_2
Tb1 O1 1_555 1_555
S1 O1 1_555 1_555
N1 Tb1 1_555 1_555
C1 N1 1_555 1_555
H1 C1 1_555 1_555
O2 Tb1 1_555 1_555
S2 O7 1_555 1_555
N2 Tb1 1_555 1_555
O3 S1 1_555 1_555
O4 Tb1 1_555 1_555
C2 C1 1_555 1_555
H2 C2 1_555 1_555
S3 O12 1_555 1_555
N3 Tb1 1_555 1_555
O5 S1 1_555 1_555
C3 C2 1_555 1_555
H3 C3 1_555 1_555
N4 Tb1 1_555 1_555
O7 Tb1 1_555 1_555
C4 H4 1_555 1_555
O9 S2 1_555 1_555
C5 C4 1_555 1_555
H5 C5 1_555 1_555
O11 S2 1_555 1_555
C6 H6 1_555 1_555
O12 Tb1 1_555 1_555
C7 C6 1_555 1_555
H7 C7 1_555 1_555
O13 S3 1_555 1_555
C8 N2 1_555 1_555
H8 C8 1_555 1_555
O14 S3 1_555 1_555
C9 C3 1_555 1_555
C10 C5 1_555 1_555
C11 N1 1_555 1_555
C12 N2 1_555 1_555
C13 N3 1_555 1_555
H9 C13 1_555 1_555
C14 C13 1_555 1_555
H10 C14 1_555 1_555
C15 C14 1_555 1_555
H11 C15 1_555 1_555
C16 H12 1_555 1_555
C17 C16 1_555 1_555
H13 C17 1_555 1_555
C18 H14 1_555 1_555
C19 C18 1_555 1_555
H15 C19 1_555 1_555
C20 N4 1_555 1_555
H16 C20 1_555 1_555
C21 C15 1_555 1_555
C22 C17 1_555 1_555
C23 N3 1_555 1_555
C24 N4 1_555 1_555
C25 S1 1_555 1_555
C26 C25 1_555 1_555
C27 C26 1_555 1_555
H17 C27 1_555 1_555
C28 C27 1_555 1_555
H18 C28 1_555 1_555
C29 C25 1_555 1_555
H19 C29 1_555 1_555
C30 S2 1_555 1_555
C31 C30 1_555 1_555
C32 C31 1_555 1_555
H20 C32 1_555 1_555
C33 C32 1_555 1_555
H21 C33 1_555 1_555
C34 C30 1_555 1_555
H22 C34 1_555 1_555
C35 S3 1_555 1_555
C36 C35 1_555 1_555
C37 C36 1_555 1_555
H23 C37 1_555 1_555
C38 C37 1_555 1_555
H24 C38 1_555 1_555
C39 C35 1_555 1_555
H25 C39 1_555 1_555
Tb1A O1A 1_555 1_555
Tb1A_2 O7A_2 1_555 1_555
Tb1A_3 O12A_2 1_555 1_555
S1A O1A 1_555 1_555
N1A Tb1A 1_555 1_555
C1A N1A 1_555 1_555
H1A C1A 1_555 1_555
O2A Tb1A 1_555 1_555
S2A O7A_2 1_555 1_555
N2A Tb1A 1_555 1_555
O3A S1A 1_555 1_555
O4A Tb1A 1_555 1_555
C2A C1A 1_555 1_555
H2A C2A 1_555 1_555
S3A O12A_2 1_555 1_555
N3A Tb1A 1_555 1_555
O5A S1A 1_555 1_555
C3A C2A 1_555 1_555
H3A C3A 1_555 1_555
N4A Tb1A 1_555 1_555
O7A Tb1A 1_555 1_555
C4A H4A 1_555 1_555
O9A S2A 1_555 1_555
C5A C4A 1_555 1_555
H5A C5A 1_555 1_555
O11A S2A 1_555 1_555
C6A H6A 1_555 1_555
O12A Tb1A 1_555 1_555
C7A C6A 1_555 1_555
H7A C7A 1_555 1_555
O13A S3A 1_555 1_555
C8A N2A 1_555 1_555
H8A C8A 1_555 1_555
O14A S3A 1_555 1_555
C9A C3A 1_555 1_555
C10A C5A 1_555 1_555
C11A N1A 1_555 1_555
C12A N2A 1_555 1_555
C13A N3A 1_555 1_555
H9A C13A 1_555 1_555
C14A C13A 1_555 1_555
H10A C14A 1_555 1_555
C15A C14A 1_555 1_555
H11A C15A 1_555 1_555
C16A H12A 1_555 1_555
C17A C16A 1_555 1_555
H13A C17A 1_555 1_555
C18A H14A 1_555 1_555
C19A C18A 1_555 1_555
H15A C19A 1_555 1_555
C20A N4A 1_555 1_555
H16A C20A 1_555 1_555
C21A C15A 1_555 1_555
C22A C17A 1_555 1_555
C23A N3A 1_555 1_555
C24A N4A 1_555 1_555
C25A S1A 1_555 1_555
C26A C26 1_555 1_555
C27A C26A 1_555 1_555
H17A C27A 1_555 1_555
C28A C29 1_555 1_555
H18A C28A 1_555 1_555
C29A C28 1_555 1_555
H19A C29A 1_555 1_555
C30A S2A 1_555 1_555
C31A C31 1_555 1_555
C32A C31A 1_555 1_555
H20A C32A 1_555 1_555
C33A C34 1_555 1_555
H21A C33A 1_555 1_555
C34A C33 1_555 1_555
H22A C34A 1_555 1_555
C35A S3A 1_555 1_555
C36A C36 1_555 1_555
C37A C36A 1_555 1_555
H23A C37A 1_555 1_555
C38A C39 1_555 1_555
H24A C38A 1_555 1_555
C39A C38 1_555 1_555
H25A C39A 1_555 1_555
C4 C9 1_555 1_555
C6 C10 1_555 1_555
C7 C8 1_555 1_555
C9 C11 1_555 1_555
C10 C12 1_555 1_555
C11 C12 1_555 1_555
C16 C21 1_555 1_555
C18 C22 1_555 1_555
C19 C20 1_555 1_555
C21 C23 1_555 1_555
C22 C24 1_555 1_555
C23 C24 1_555 1_555
C4A C9A 1_555 1_555
C6A C10A 1_555 1_555
C7A C8A 1_555 1_555
C9A C11A 1_555 1_555
C10A C12A 1_555 1_555
C11A C12A 1_555 1_555
C16A C21A 1_555 1_555
C18A C22A 1_555 1_555
C19A C20A 1_555 1_555
C21A C23A 1_555 1_555
C22A C24A 1_555 1_555
C23A C24A 1_555 1_555
C25A C26A 1_555 1_555
C25A C29A 1_555 1_555
C27A C28A 1_555 1_555
C30A C31A 1_555 1_555
C30A C34A 1_555 1_555
C32A C33A 1_555 1_555
C35A C36A 1_555 1_555
C35A C39A 1_555 1_555
C37A C38A 1_555 1_555

#END
