
#######################################################################
#
#                 Cambridge Crystallographic Data Centre
#                                CCDC 
#
#######################################################################
#
# If this CIF has been generated from an entry in the Cambridge 
# Structural Database, then it will include bibliographic, chemical, 
# crystal, experimental, refinement or atomic coordinate data resulting 
# from the CCDC's data processing and validation procedures.
#
#######################################################################

data_VIPVOG
_symmetry_cell_setting           triclinic
_symmetry_space_group_name_H-M   'P -1'
_symmetry_Int_Tables_number      2
_space_group_name_Hall           '-P 1'
loop_
_symmetry_equiv_pos_site_id
_symmetry_equiv_pos_as_xyz
1 x,y,z
2 -x,-y,-z
_cell_length_a                   12.0480(10)
_cell_length_b                   12.7670(10)
_cell_length_c                   13.6822(11)
_cell_angle_alpha                88.2590(10)
_cell_angle_beta                 75.7810(10)
_cell_angle_gamma                77.0320(10)
_cell_volume                     1987.36
loop_
_atom_site_label
_atom_site_type_symbol
_atom_site_fract_x
_atom_site_fract_y
_atom_site_fract_z
Nd1 Nd 0.60558(2) 0.827302(18) 0.728346(17)
S1 S 0.53998(11) 0.75794(10) 1.00484(8)
O1 O 0.5968(3) 0.7636(3) 0.8970(2)
N1 N 0.7514(3) 0.9253(3) 0.7944(3)
C1 C 0.7673(4) 0.9151(4) 0.8866(4)
H1 H 0.7370 0.8630 0.9266
O2 O 0.5003(4) 0.9889(4) 0.8409(4)
S2 S 0.91538(10) 0.67796(9) 0.70301(9)
N2 N 0.7448(3) 0.9327(3) 0.5951(3)
O3 O 0.4839(3) 0.9729(3) 0.6426(3)
O4 O 0.6273(3) 0.7296(3) 1.0633(2)
C2 C 0.8271(5) 0.9779(5) 0.9281(4)
H2 H 0.8392 0.9652 0.9924
S3 S 0.54915(10) 0.75567(9) 0.47857(8)
N3 N 0.5619(3) 0.6283(3) 0.7386(3)
O5 O 0.4521(3) 0.8531(3) 1.0425(3)
C3 C 0.8669(5) 1.0579(4) 0.8721(5)
H3 H 0.9021 1.1037 0.8995
O7 O 0.7929(2) 0.7082(2) 0.6943(2)
N4 N 0.3822(3) 0.8075(3) 0.7817(3)
C4 C 0.8546(4) 1.0711(4) 0.7733(4)
O9 O 0.9210(3) 0.6540(3) 0.8057(3)
C5 C 0.8994(5) 1.1503(4) 0.7076(6)
H4 H 0.9303 1.2009 0.7333
O11 O 0.9843(3) 0.7534(3) 0.6545(3)
C6 C 0.8975(5) 1.1527(4) 0.6105(6)
H5 H 0.9279 1.2045 0.5702
O12 O 0.6055(3) 0.7564(2) 0.5626(2)
C7 C 0.8494(4) 1.0769(4) 0.5653(4)
O13 O 0.6366(3) 0.7318(3) 0.3836(2)
C8 C 0.8569(4) 1.0712(4) 0.4632(4)
H6 H 0.8922 1.1181 0.4195
O14 O 0.4614(3) 0.8543(2) 0.4771(2)
C9 C 0.8117(4) 0.9955(4) 0.4271(4)
H7 H 0.8187 0.9877 0.3583
C10 C 0.7547(4) 0.9301(4) 0.4961(4)
H8 H 0.7212 0.8812 0.4710
C11 C 0.7952(4) 1.0039(3) 0.6309(4)
C12 C 0.7991(4) 0.9997(3) 0.7347(4)
C13 C 0.6459(4) 0.5398(3) 0.7172(3)
H9 H 0.7232 0.5475 0.6995
C14 C 0.6270(4) 0.4361(4) 0.7195(3)
H10 H 0.6902 0.3771 0.7045
C15 C 0.5156(4) 0.4222(4) 0.7437(3)
H11 H 0.5014 0.3534 0.7458
C16 C 0.4212(4) 0.5127(3) 0.7657(3)
C17 C 0.3008(5) 0.5050(4) 0.7911(4)
H12 H 0.2834 0.4375 0.7932
C18 C 0.2126(4) 0.5925(4) 0.8120(4)
H13 H 0.1352 0.5850 0.8280
C19 C 0.2367(4) 0.6974(4) 0.8099(3)
C20 C 0.1464(4) 0.7901(4) 0.8320(4)
H14 H 0.0683 0.7850 0.8481
C21 C 0.1744(4) 0.8880(4) 0.8296(4)
H15 H 0.1156 0.9504 0.8448
C22 C 0.2927(4) 0.8933(4) 0.8039(4)
H16 H 0.3102 0.9608 0.8023
C23 C 0.3540(4) 0.7095(3) 0.7858(3)
C24 C 0.4481(4) 0.6154(3) 0.7623(3)
C25 C 0.4670(4) 0.6504(4) 1.0145(3)
C26 C 0.3485(4) 0.6749(4) 1.0422(4)
H17 H 0.3084 0.7465 1.0528
C27 C 0.2839(4) 0.5926(4) 1.0554(4)
H18 H 0.2022 0.6099 1.0747
C28 C 0.3430(4) 0.4890(4) 1.0395(3)
H19 H 0.3006 0.4354 1.0502
C29 C 0.5323(4) 0.5414(4) 0.9931(3)
C30 C 0.9731(3) 0.5545(3) 0.6325(3)
C31 C 1.0183(4) 0.4651(4) 0.6792(4)
H20 H 1.0159 0.4691 0.7475
C32 C 1.0685(4) 0.3669(4) 0.6253(4)
H21 H 1.0995 0.3066 0.6581
C33 C 1.0722(4) 0.3596(3) 0.5257(3)
H22 H 1.1057 0.2940 0.4913
C34 C 0.9741(3) 0.5502(3) 0.5272(3)
C35 C 0.4723(4) 0.6504(3) 0.5010(3)
C36 C 0.3531(4) 0.6790(4) 0.5269(3)
H23 H 0.3153 0.7514 0.5344
C37 C 0.2868(4) 0.5996(4) 0.5424(3)
H24 H 0.2052 0.6196 0.5596
C38 C 0.3413(4) 0.4940(4) 0.5324(3)
H25 H 0.2963 0.4424 0.5417
C39 C 0.5346(4) 0.5394(3) 0.4921(3)
Nd1A Nd 0.39442(2) 0.172698(18) 1.271654(17)
Nd1A_2 Nd 1.39442(2) 0.172698(18) 0.271654(17)
Nd1A_3 Nd 0.39442(2) 0.172698(18) 0.271654(17)
S1A S 0.46002(11) 0.24206(10) 0.99516(8)
O1A O 0.4032(3) 0.2364(3) 1.1030(2)
N1A N 0.2486(3) 0.0747(3) 1.2056(3)
C1A C 0.2327(4) 0.0849(4) 1.1134(4)
H1A H 0.2630 0.1370 1.0734
O2A O 0.4997(4) 0.0111(4) 1.1591(4)
S2A S 1.08462(10) 0.32204(9) 0.29699(9)
N2A N 0.2552(3) 0.0673(3) 1.4049(3)
O3A O 0.5161(3) 0.0271(3) 1.3574(3)
O4A O 0.3727(3) 0.2704(3) 0.9367(2)
C2A C 0.1729(5) 0.0221(5) 1.0719(4)
H2A H 0.1608 0.0348 1.0076
S3A S 0.45085(10) 0.24433(9) 0.52143(8)
N3A N 0.4381(3) 0.3717(3) 1.2614(3)
O5A O 0.5479(3) 0.1469(3) 0.9575(3)
C3A C 0.1331(5) -0.0579(4) 1.1279(5)
H3A H 0.0979 -0.1037 1.1005
O7A O 0.2071(2) 0.2918(2) 1.3057(2)
O7A_2 O 1.2071(2) 0.2918(2) 0.3057(2)
N4A N 0.6178(3) 0.1925(3) 1.2183(3)
C4A C 0.1454(4) -0.0711(4) 1.2267(4)
O9A O 1.0790(3) 0.3460(3) 0.1943(3)
C5A C 0.1006(5) -0.1503(4) 1.2924(6)
H4A H 0.0697 -0.2009 1.2667
O11A O 1.0157(3) 0.2466(3) 0.3455(3)
C6A C 0.1025(5) -0.1527(4) 1.3895(6)
H5A H 0.0721 -0.2045 1.4298
O12A O 0.3945(3) 0.2436(2) 1.4374(2)
O12A_2 O 0.3945(3) 0.2436(2) 0.4374(2)
C7A C 0.1506(4) -0.0769(4) 1.4347(4)
O13A O 0.3634(3) 0.2682(3) 0.6164(2)
C8A C 0.1431(4) -0.0712(4) 1.5368(4)
H6A H 0.1078 -0.1181 1.5805
O14A O 0.5386(3) 0.1457(2) 0.5229(2)
C9A C 0.1883(4) 0.0045(4) 1.5729(4)
H7A H 0.1813 0.0123 1.6417
C10A C 0.2453(4) 0.0699(4) 1.5039(4)
H8A H 0.2788 0.1188 1.5290
C11A C 0.2048(4) -0.0039(3) 1.3691(4)
C12A C 0.2009(4) 0.0003(3) 1.2653(4)
C13A C 0.3541(4) 0.4602(3) 1.2828(3)
H9A H 0.2768 0.4525 1.3005
C14A C 0.3730(4) 0.5639(4) 1.2805(3)
H10A H 0.3098 0.6229 1.2955
C15A C 0.4844(4) 0.5778(4) 1.2563(3)
H11A H 0.4986 0.6466 1.2542
C16A C 0.5788(4) 0.4873(3) 1.2343(3)
C17A C 0.6992(5) 0.4950(4) 1.2089(4)
H12A H 0.7166 0.5625 1.2068
C18A C 0.7874(4) 0.4075(4) 1.1880(4)
H13A H 0.8648 0.4150 1.1720
C19A C 0.7633(4) 0.3026(4) 1.1901(3)
C20A C 0.8536(4) 0.2099(4) 1.1680(4)
H14A H 0.9317 0.2150 1.1519
C21A C 0.8256(4) 0.1120(4) 1.1704(4)
H15A H 0.8844 0.0496 1.1552
C22A C 0.7073(4) 0.1067(4) 1.1961(4)
H16A H 0.6898 0.0392 1.1977
C23A C 0.6460(4) 0.2905(3) 1.2142(3)
C24A C 0.5519(4) 0.3846(3) 1.2377(3)
C25A C 0.5330(4) 0.3496(4) 0.9855(3)
C26A C 0.6515(4) 0.3251(4) 0.9578(4)
H17A H 0.6916 0.2535 0.9472
C27A C 0.7161(4) 0.4074(4) 0.9446(4)
H18A H 0.7978 0.3901 0.9253
C28A C 0.6570(4) 0.5110(4) 0.9605(3)
H19A H 0.6994 0.5646 0.9498
C29A C 0.4677(4) 0.4586(4) 1.0069(3)
C30A C 1.0269(3) 0.4455(3) 0.3675(3)
C31A C 0.9817(4) 0.5349(4) 0.3208(4)
H20A H 0.9841 0.5309 0.2525
C32A C 0.9315(4) 0.6331(4) 0.3747(4)
H21A H 0.9005 0.6934 0.3419
C33A C 0.9278(4) 0.6404(3) 0.4743(3)
H22A H 0.8943 0.7060 0.5087
C34A C 1.0259(3) 0.4498(3) 0.4728(3)
C35A C 0.5277(4) 0.3496(3) 0.4990(3)
C36A C 0.6469(4) 0.3210(4) 0.4731(3)
H23A H 0.6847 0.2486 0.4656
C37A C 0.7132(4) 0.4004(4) 0.4576(3)
H24A H 0.7948 0.3804 0.4404
C38A C 0.6587(4) 0.5060(4) 0.4676(3)
H25A H 0.7037 0.5576 0.4583
C39A C 0.4654(4) 0.4606(3) 0.5079(3)
O6 O 0.6848(4) 0.8382(3) 0.2067(3)
O8 O 0.9189(7) 0.6105(6) 1.0071(4)
O10 O 0.9389(5) 0.7864(5) 0.1248(4)
loop_
_geom_bond_atom_site_label_1
_geom_bond_atom_site_label_2
_geom_bond_site_symmetry_1
_geom_bond_site_symmetry_2
Nd1 O1 1_555 1_555
S1 O1 1_555 1_555
N1 Nd1 1_555 1_555
C1 N1 1_555 1_555
H1 C1 1_555 1_555
O2 Nd1 1_555 1_555
S2 O7 1_555 1_555
N2 Nd1 1_555 1_555
O3 Nd1 1_555 1_555
O4 S1 1_555 1_555
C2 C1 1_555 1_555
H2 C2 1_555 1_555
S3 O12 1_555 1_555
N3 Nd1 1_555 1_555
O5 S1 1_555 1_555
C3 C2 1_555 1_555
H3 C3 1_555 1_555
O7 Nd1 1_555 1_555
N4 Nd1 1_555 1_555
C4 C3 1_555 1_555
O9 S2 1_555 1_555
C5 C4 1_555 1_555
H4 C5 1_555 1_555
O11 S2 1_555 1_555
C6 C5 1_555 1_555
H5 C6 1_555 1_555
O12 Nd1 1_555 1_555
C7 C6 1_555 1_555
O13 S3 1_555 1_555
C8 C7 1_555 1_555
H6 C8 1_555 1_555
O14 S3 1_555 1_555
C9 C8 1_555 1_555
H7 C9 1_555 1_555
C10 N2 1_555 1_555
H8 C10 1_555 1_555
C11 N2 1_555 1_555
C12 N1 1_555 1_555
C13 N3 1_555 1_555
H9 C13 1_555 1_555
C14 C13 1_555 1_555
H10 C14 1_555 1_555
C15 C14 1_555 1_555
H11 C15 1_555 1_555
C16 C15 1_555 1_555
C17 C16 1_555 1_555
H12 C17 1_555 1_555
C18 C17 1_555 1_555
H13 C18 1_555 1_555
C19 C18 1_555 1_555
C20 C19 1_555 1_555
H14 C20 1_555 1_555
C21 C20 1_555 1_555
H15 C21 1_555 1_555
C22 N4 1_555 1_555
H16 C22 1_555 1_555
C23 N4 1_555 1_555
C24 N3 1_555 1_555
C25 S1 1_555 1_555
C26 C25 1_555 1_555
H17 C26 1_555 1_555
C27 C26 1_555 1_555
H18 C27 1_555 1_555
C28 C27 1_555 1_555
H19 C28 1_555 1_555
C29 C25 1_555 1_555
C30 S2 1_555 1_555
C31 C30 1_555 1_555
H20 C31 1_555 1_555
C32 C31 1_555 1_555
H21 C32 1_555 1_555
C33 C32 1_555 1_555
H22 C33 1_555 1_555
C34 C30 1_555 1_555
C35 S3 1_555 1_555
C36 C35 1_555 1_555
H23 C36 1_555 1_555
C37 C36 1_555 1_555
H24 C37 1_555 1_555
C38 C37 1_555 1_555
H25 C38 1_555 1_555
C39 C35 1_555 1_555
Nd1A O1A 1_555 1_555
Nd1A_2 O7A_2 1_555 1_555
Nd1A_3 O12A_2 1_555 1_555
S1A O1A 1_555 1_555
N1A Nd1A 1_555 1_555
C1A N1A 1_555 1_555
H1A C1A 1_555 1_555
O2A Nd1A 1_555 1_555
S2A O7A_2 1_555 1_555
N2A Nd1A 1_555 1_555
O3A Nd1A 1_555 1_555
O4A S1A 1_555 1_555
C2A C1A 1_555 1_555
H2A C2A 1_555 1_555
S3A O12A_2 1_555 1_555
N3A Nd1A 1_555 1_555
O5A S1A 1_555 1_555
C3A C2A 1_555 1_555
H3A C3A 1_555 1_555
O7A Nd1A 1_555 1_555
N4A Nd1A 1_555 1_555
C4A C3A 1_555 1_555
O9A S2A 1_555 1_555
C5A C4A 1_555 1_555
H4A C5A 1_555 1_555
O11A S2A 1_555 1_555
C6A C5A 1_555 1_555
H5A C6A 1_555 1_555
O12A Nd1A 1_555 1_555
C7A C6A 1_555 1_555
O13A S3A 1_555 1_555
C8A C7A 1_555 1_555
H6A C8A 1_555 1_555
O14A S3A 1_555 1_555
C9A C8A 1_555 1_555
H7A C9A 1_555 1_555
C10A N2A 1_555 1_555
H8A C10A 1_555 1_555
C11A N2A 1_555 1_555
C12A N1A 1_555 1_555
C13A N3A 1_555 1_555
H9A C13A 1_555 1_555
C14A C13A 1_555 1_555
H10A C14A 1_555 1_555
C15A C14A 1_555 1_555
H11A C15A 1_555 1_555
C16A C15A 1_555 1_555
C17A C16A 1_555 1_555
H12A C17A 1_555 1_555
C18A C17A 1_555 1_555
H13A C18A 1_555 1_555
C19A C18A 1_555 1_555
C20A C19A 1_555 1_555
H14A C20A 1_555 1_555
C21A C20A 1_555 1_555
H15A C21A 1_555 1_555
C22A N4A 1_555 1_555
H16A C22A 1_555 1_555
C23A N4A 1_555 1_555
C24A N3A 1_555 1_555
C25A S1A 1_555 1_555
C26A C25A 1_555 1_555
H17A C26A 1_555 1_555
C27A C26A 1_555 1_555
H18A C27A 1_555 1_555
C28A C29 1_555 1_555
H19A C28A 1_555 1_555
C29A C28 1_555 1_555
C30A S2A 1_555 1_555
C31A C30A 1_555 1_555
H20A C31A 1_555 1_555
C32A C31A 1_555 1_555
H21A C32A 1_555 1_555
C33A C34 1_555 1_555
H22A C33A 1_555 1_555
C34A C33 1_555 1_555
C35A S3A 1_555 1_555
C36A C35A 1_555 1_555
H23A C36A 1_555 1_555
C37A C36A 1_555 1_555
H24A C37A 1_555 1_555
C38A C39 1_555 1_555
H25A C38A 1_555 1_555
C39A C38 1_555 1_555
C4 C12 1_555 1_555
C7 C11 1_555 1_555
C9 C10 1_555 1_555
C11 C12 1_555 1_555
C16 C24 1_555 1_555
C19 C23 1_555 1_555
C21 C22 1_555 1_555
C23 C24 1_555 1_555
C29 C29A 1_555 1_555
C34 C34A 1_555 1_555
C39 C39A 1_555 1_555
C4A C12A 1_555 1_555
C7A C11A 1_555 1_555
C9A C10A 1_555 1_555
C11A C12A 1_555 1_555
C16A C24A 1_555 1_555
C19A C23A 1_555 1_555
C21A C22A 1_555 1_555
C23A C24A 1_555 1_555
C25A C29A 1_555 1_555
C27A C28A 1_555 1_555
C30A C34A 1_555 1_555
C32A C33A 1_555 1_555
C35A C39A 1_555 1_555
C37A C38A 1_555 1_555

#END
