
#######################################################################
#
#                 Cambridge Crystallographic Data Centre
#                                CCDC 
#
#######################################################################
#
# If this CIF has been generated from an entry in the Cambridge 
# Structural Database, then it will include bibliographic, chemical, 
# crystal, experimental, refinement or atomic coordinate data resulting 
# from the CCDC's data processing and validation procedures.
#
#######################################################################

data_VIPVIA
_symmetry_cell_setting           triclinic
_symmetry_space_group_name_H-M   'P -1'
_symmetry_Int_Tables_number      2
_space_group_name_Hall           '-P 1'
loop_
_symmetry_equiv_pos_site_id
_symmetry_equiv_pos_as_xyz
1 x,y,z
2 -x,-y,-z
_cell_length_a                   11.9725(10)
_cell_length_b                   12.7153(10)
_cell_length_c                   13.5923(11)
_cell_angle_alpha                88.2990(10)
_cell_angle_beta                 75.8550(10)
_cell_angle_gamma                77.1280(10)
_cell_volume                     1955.38
loop_
_atom_site_label
_atom_site_type_symbol
_atom_site_fract_x
_atom_site_fract_y
_atom_site_fract_z
Gd1 Gd 0.605848(15) 0.826703(12) 0.727930(13)
S1 S 0.53990(10) 0.75898(9) 1.00165(7)
O1 O 0.5968(3) 0.7635(2) 0.89299(19)
N1 N 0.7502(3) 0.9233(2) 0.7953(2)
C1 C 0.7678(4) 0.9118(4) 0.8878(3)
H1 H 0.7396 0.8578 0.9272
O2 O 0.5032(3) 0.9847(3) 0.8395(3)
S2 S 0.91301(8) 0.68018(8) 0.70259(8)
N2 N 0.7437(3) 0.9302(2) 0.5958(2)
O3 O 0.4868(3) 0.9708(2) 0.6433(3)
O4 O 0.6283(3) 0.7313(3) 1.0603(2)
C2 C 0.8262(4) 0.9758(4) 0.9301(4)
H2 H 0.8376 0.9634 0.9951
S3 S 0.54831(9) 0.75667(7) 0.48052(7)
N3 N 0.5643(3) 0.6285(2) 0.7376(2)
O5 O 0.4514(3) 0.8557(2) 1.0381(2)
C3 C 0.8659(4) 1.0561(4) 0.8744(4)
H3 H 0.9011 1.1020 0.9025
O7 O 0.7900(2) 0.71004(19) 0.69275(19)
N4 N 0.3844(3) 0.8088(2) 0.7798(2)
C4 C 0.8540(4) 1.0701(3) 0.7743(4)
O8 O 0.9178(3) 0.6567(2) 0.8067(2)
C5 C 0.8981(4) 1.1498(4) 0.7091(5)
H4 H 0.9293 1.2004 0.7352
O10 O 0.9821(3) 0.7552(2) 0.6544(2)
C6 C 0.8955(4) 1.1528(4) 0.6106(5)
H5 H 0.9246 1.2056 0.5700
O11 O 0.6044(2) 0.75717(19) 0.56544(19)
C7 C 0.8486(4) 1.0759(3) 0.5669(4)
O12 O 0.6354(3) 0.7331(2) 0.3853(2)
C8 C 0.8574(4) 1.0688(4) 0.4638(4)
H6 H 0.8937 1.1153 0.4196
O13 O 0.4603(3) 0.8554(2) 0.4796(2)
C9 C 0.8123(4) 0.9929(4) 0.4279(4)
H7 H 0.8197 0.9851 0.3586
C10 C 0.7550(4) 0.9271(3) 0.4964(3)
H8 H 0.7222 0.8774 0.4707
C11 C 0.7945(3) 1.0021(3) 0.6316(3)
C12 C 0.7972(3) 0.9988(3) 0.7371(3)
C13 C 0.6483(4) 0.5403(3) 0.7171(3)
H9 H 0.7261 0.5480 0.6999
C14 C 0.6290(4) 0.4356(3) 0.7192(3)
H10 H 0.6923 0.3761 0.7042
C15 C 0.5159(4) 0.4226(3) 0.7438(3)
H11 H 0.5009 0.3538 0.7461
C16 C 0.4219(4) 0.5135(3) 0.7659(3)
C17 C 0.3010(4) 0.5061(4) 0.7912(3)
H12 H 0.2830 0.4384 0.7938
C18 C 0.2142(4) 0.5929(4) 0.8112(3)
H13 H 0.1363 0.5856 0.8271
C19 C 0.2387(4) 0.6984(3) 0.8085(3)
C20 C 0.1477(4) 0.7915(4) 0.8300(3)
H14 H 0.0690 0.7865 0.8458
C21 C 0.1765(4) 0.8892(4) 0.8273(3)
H15 H 0.1175 0.9519 0.8424
C22 C 0.2944(4) 0.8949(3) 0.8018(3)
H16 H 0.3119 0.9627 0.8000
C23 C 0.3562(3) 0.7104(3) 0.7834(3)
C24 C 0.4513(3) 0.6158(3) 0.7611(3)
C25 C 0.4669(4) 0.6510(3) 1.0120(3)
C26 C 0.3469(4) 0.6753(3) 1.0409(3)
H17 H 0.3063 0.7471 1.0516
C27 C 0.2834(4) 0.5932(3) 1.0549(3)
H18 H 0.2012 0.6104 1.0739
C28 C 0.3430(4) 0.4883(4) 1.0405(3)
H19 H 0.3006 0.4342 1.0530
C29 C 0.5328(3) 0.5410(3) 0.9930(3)
C30 C 0.9717(3) 0.5560(3) 0.6323(3)
C31 C 1.0161(3) 0.4668(3) 0.6809(3)
H20 H 1.0127 0.4712 0.7498
C32 C 1.0672(4) 0.3678(3) 0.6267(3)
H21 H 1.0980 0.3077 0.6602
C33 C 1.0718(3) 0.3592(3) 0.5273(3)
H22 H 1.1059 0.2931 0.4933
C34 C 0.9744(3) 0.5504(3) 0.5271(3)
C35 C 0.4721(3) 0.6503(3) 0.5021(3)
C36 C 0.3515(3) 0.6783(3) 0.5275(3)
H23 H 0.3131 0.7507 0.5354
C37 C 0.2852(3) 0.5989(3) 0.5418(3)
H24 H 0.2031 0.6187 0.5583
C38 C 0.3407(3) 0.4928(3) 0.5316(3)
H25 H 0.2959 0.4406 0.5407
C39 C 0.5344(3) 0.5398(3) 0.4926(3)
Gd1A Gd 0.394152(15) 0.173297(12) 1.272070(13)
Gd1A_2 Gd 1.394152(15) 0.173297(12) 0.272070(13)
Gd1A_3 Gd 0.394152(15) 0.173297(12) 0.272070(13)
S1A S 0.46010(10) 0.24102(9) 0.99835(7)
O1A O 0.4032(3) 0.2365(2) 1.10701(19)
N1A N 0.2498(3) 0.0767(2) 1.2047(2)
C1A C 0.2322(4) 0.0882(4) 1.1122(3)
H1A H 0.2604 0.1422 1.0728
O2A O 0.4968(3) 0.0153(3) 1.1605(3)
S2A S 1.08699(8) 0.31982(8) 0.29741(8)
N2A N 0.2563(3) 0.0698(2) 1.4042(2)
O3A O 0.5132(3) 0.0292(2) 1.3567(3)
O4A O 0.3717(3) 0.2687(3) 0.9397(2)
C2A C 0.1738(4) 0.0242(4) 1.0699(4)
H2A H 0.1624 0.0366 1.0049
S3A S 0.45169(9) 0.24333(7) 0.51948(7)
N3A N 0.4357(3) 0.3715(2) 1.2624(2)
O5A O 0.5486(3) 0.1443(2) 0.9619(2)
C3A C 0.1341(4) -0.0561(4) 1.1256(4)
H3A H 0.0989 -0.1020 1.0975
O7A O 0.2100(2) 0.28996(19) 1.30725(19)
O7A_2 O 1.2100(2) 0.28996(19) 0.30725(19)
N4A N 0.6156(3) 0.1912(2) 1.2202(2)
C4A C 0.1460(4) -0.0701(3) 1.2257(4)
O8A O 1.0822(3) 0.3433(2) 0.1933(2)
C5A C 0.1019(4) -0.1498(4) 1.2909(5)
H4A H 0.0707 -0.2004 1.2648
O10A O 1.0179(3) 0.2448(2) 0.3456(2)
C6A C 0.1045(4) -0.1528(4) 1.3894(5)
H5A H 0.0754 -0.2056 1.4300
O11A O 0.3956(2) 0.24283(19) 1.43456(19)
O11A_2 O 0.3956(2) 0.24283(19) 0.43456(19)
C7A C 0.1514(4) -0.0759(3) 1.4331(4)
O12A O 0.3646(3) 0.2669(2) 0.6147(2)
C8A C 0.1426(4) -0.0688(4) 1.5362(4)
H6A H 0.1063 -0.1153 1.5804
O13A O 0.5397(3) 0.1446(2) 0.5204(2)
C9A C 0.1877(4) 0.0071(4) 1.5721(4)
H7A H 0.1803 0.0149 1.6414
C10A C 0.2450(4) 0.0729(3) 1.5036(3)
H8A H 0.2778 0.1226 1.5293
C11A C 0.2055(3) -0.0021(3) 1.3684(3)
C12A C 0.2028(3) 0.0012(3) 1.2629(3)
C13A C 0.3517(4) 0.4597(3) 1.2829(3)
H9A H 0.2739 0.4520 1.3001
C14A C 0.3710(4) 0.5644(3) 1.2808(3)
H10A H 0.3077 0.6239 1.2958
C15A C 0.4841(4) 0.5774(3) 1.2562(3)
H11A H 0.4991 0.6462 1.2539
C16A C 0.5781(4) 0.4865(3) 1.2341(3)
C17A C 0.6990(4) 0.4939(4) 1.2088(3)
H12A H 0.7170 0.5616 1.2062
C18A C 0.7858(4) 0.4071(4) 1.1888(3)
H13A H 0.8637 0.4144 1.1729
C19A C 0.7613(4) 0.3016(3) 1.1915(3)
C20A C 0.8523(4) 0.2085(4) 1.1700(3)
H14A H 0.9310 0.2135 1.1542
C21A C 0.8235(4) 0.1108(4) 1.1727(3)
H15A H 0.8825 0.0481 1.1576
C22A C 0.7056(4) 0.1051(3) 1.1982(3)
H16A H 0.6881 0.0373 1.2000
C23A C 0.6438(3) 0.2896(3) 1.2166(3)
C24A C 0.5487(3) 0.3842(3) 1.2389(3)
C25A C 0.5331(4) 0.3490(3) 0.9880(3)
C26A C 0.6531(4) 0.3247(3) 0.9591(3)
H17A H 0.6937 0.2529 0.9484
C27A C 0.7166(4) 0.4068(3) 0.9451(3)
H18A H 0.7988 0.3896 0.9261
C28A C 0.6570(4) 0.5117(4) 0.9595(3)
H19A H 0.6994 0.5658 0.9470
C29A C 0.4672(3) 0.4590(3) 1.0070(3)
C30A C 1.0283(3) 0.4440(3) 0.3677(3)
C31A C 0.9839(3) 0.5332(3) 0.3191(3)
H20A H 0.9873 0.5288 0.2502
C32A C 0.9328(4) 0.6322(3) 0.3733(3)
H21A H 0.9020 0.6923 0.3398
C33A C 0.9282(3) 0.6408(3) 0.4727(3)
H22A H 0.8941 0.7069 0.5067
C34A C 1.0256(3) 0.4496(3) 0.4729(3)
C35A C 0.5279(3) 0.3497(3) 0.4979(3)
C36A C 0.6485(3) 0.3217(3) 0.4725(3)
H23A H 0.6869 0.2493 0.4646
C37A C 0.7148(3) 0.4011(3) 0.4582(3)
H24A H 0.7969 0.3813 0.4417
C38A C 0.6593(3) 0.5072(3) 0.4684(3)
H25A H 0.7041 0.5594 0.4593
C39A C 0.4656(3) 0.4602(3) 0.5074(3)
O6 O 0.6807(4) 0.8396(2) 0.2076(2)
O9 O 0.9201(6) 0.6106(5) 1.0072(4)
O14 O 0.9350(5) 0.7879(5) 0.1257(4)
loop_
_geom_bond_atom_site_label_1
_geom_bond_atom_site_label_2
_geom_bond_site_symmetry_1
_geom_bond_site_symmetry_2
Gd1 O1 1_555 1_555
S1 O1 1_555 1_555
N1 Gd1 1_555 1_555
C1 N1 1_555 1_555
H1 C1 1_555 1_555
O2 Gd1 1_555 1_555
S2 O7 1_555 1_555
N2 Gd1 1_555 1_555
O3 Gd1 1_555 1_555
O4 S1 1_555 1_555
C2 C1 1_555 1_555
H2 C2 1_555 1_555
S3 O11 1_555 1_555
N3 Gd1 1_555 1_555
O5 S1 1_555 1_555
C3 C2 1_555 1_555
H3 C3 1_555 1_555
O7 Gd1 1_555 1_555
N4 Gd1 1_555 1_555
C4 C3 1_555 1_555
O8 S2 1_555 1_555
C5 C4 1_555 1_555
H4 C5 1_555 1_555
O10 S2 1_555 1_555
C6 C5 1_555 1_555
H5 C6 1_555 1_555
O11 Gd1 1_555 1_555
C7 C6 1_555 1_555
O12 S3 1_555 1_555
C8 C7 1_555 1_555
H6 C8 1_555 1_555
O13 S3 1_555 1_555
C9 C8 1_555 1_555
H7 C9 1_555 1_555
C10 N2 1_555 1_555
H8 C10 1_555 1_555
C11 N2 1_555 1_555
C12 N1 1_555 1_555
C13 N3 1_555 1_555
H9 C13 1_555 1_555
C14 C13 1_555 1_555
H10 C14 1_555 1_555
C15 C14 1_555 1_555
H11 C15 1_555 1_555
C16 C15 1_555 1_555
C17 C16 1_555 1_555
H12 C17 1_555 1_555
C18 C17 1_555 1_555
H13 C18 1_555 1_555
C19 C18 1_555 1_555
C20 C19 1_555 1_555
H14 C20 1_555 1_555
C21 C20 1_555 1_555
H15 C21 1_555 1_555
C22 N4 1_555 1_555
H16 C22 1_555 1_555
C23 N4 1_555 1_555
C24 N3 1_555 1_555
C25 S1 1_555 1_555
C26 C25 1_555 1_555
H17 C26 1_555 1_555
C27 C26 1_555 1_555
H18 C27 1_555 1_555
C28 C27 1_555 1_555
H19 C28 1_555 1_555
C29 C25 1_555 1_555
C30 S2 1_555 1_555
C31 C30 1_555 1_555
H20 C31 1_555 1_555
C32 C31 1_555 1_555
H21 C32 1_555 1_555
C33 C32 1_555 1_555
H22 C33 1_555 1_555
C34 C30 1_555 1_555
C35 S3 1_555 1_555
C36 C35 1_555 1_555
H23 C36 1_555 1_555
C37 C36 1_555 1_555
H24 C37 1_555 1_555
C38 C37 1_555 1_555
H25 C38 1_555 1_555
C39 C35 1_555 1_555
Gd1A O1A 1_555 1_555
Gd1A_2 O7A_2 1_555 1_555
Gd1A_3 O11A_2 1_555 1_555
S1A O1A 1_555 1_555
N1A Gd1A 1_555 1_555
C1A N1A 1_555 1_555
H1A C1A 1_555 1_555
O2A Gd1A 1_555 1_555
S2A O7A_2 1_555 1_555
N2A Gd1A 1_555 1_555
O3A Gd1A 1_555 1_555
O4A S1A 1_555 1_555
C2A C1A 1_555 1_555
H2A C2A 1_555 1_555
S3A O11A_2 1_555 1_555
N3A Gd1A 1_555 1_555
O5A S1A 1_555 1_555
C3A C2A 1_555 1_555
H3A C3A 1_555 1_555
O7A Gd1A 1_555 1_555
N4A Gd1A 1_555 1_555
C4A C3A 1_555 1_555
O8A S2A 1_555 1_555
C5A C4A 1_555 1_555
H4A C5A 1_555 1_555
O10A S2A 1_555 1_555
C6A C5A 1_555 1_555
H5A C6A 1_555 1_555
O11A Gd1A 1_555 1_555
C7A C6A 1_555 1_555
O12A S3A 1_555 1_555
C8A C7A 1_555 1_555
H6A C8A 1_555 1_555
O13A S3A 1_555 1_555
C9A C8A 1_555 1_555
H7A C9A 1_555 1_555
C10A N2A 1_555 1_555
H8A C10A 1_555 1_555
C11A N2A 1_555 1_555
C12A N1A 1_555 1_555
C13A N3A 1_555 1_555
H9A C13A 1_555 1_555
C14A C13A 1_555 1_555
H10A C14A 1_555 1_555
C15A C14A 1_555 1_555
H11A C15A 1_555 1_555
C16A C15A 1_555 1_555
C17A C16A 1_555 1_555
H12A C17A 1_555 1_555
C18A C17A 1_555 1_555
H13A C18A 1_555 1_555
C19A C18A 1_555 1_555
C20A C19A 1_555 1_555
H14A C20A 1_555 1_555
C21A C20A 1_555 1_555
H15A C21A 1_555 1_555
C22A N4A 1_555 1_555
H16A C22A 1_555 1_555
C23A N4A 1_555 1_555
C24A N3A 1_555 1_555
C25A S1A 1_555 1_555
C26A C25A 1_555 1_555
H17A C26A 1_555 1_555
C27A C26A 1_555 1_555
H18A C27A 1_555 1_555
C28A C29 1_555 1_555
H19A C28A 1_555 1_555
C29A C28 1_555 1_555
C30A S2A 1_555 1_555
C31A C30A 1_555 1_555
H20A C31A 1_555 1_555
C32A C31A 1_555 1_555
H21A C32A 1_555 1_555
C33A C34 1_555 1_555
H22A C33A 1_555 1_555
C34A C33 1_555 1_555
C35A S3A 1_555 1_555
C36A C35A 1_555 1_555
H23A C36A 1_555 1_555
C37A C36A 1_555 1_555
H24A C37A 1_555 1_555
C38A C39 1_555 1_555
H25A C38A 1_555 1_555
C39A C38 1_555 1_555
C4 C12 1_555 1_555
C7 C11 1_555 1_555
C9 C10 1_555 1_555
C11 C12 1_555 1_555
C16 C24 1_555 1_555
C19 C23 1_555 1_555
C21 C22 1_555 1_555
C23 C24 1_555 1_555
C29 C29A 1_555 1_555
C34 C34A 1_555 1_555
C39 C39A 1_555 1_555
C4A C12A 1_555 1_555
C7A C11A 1_555 1_555
C9A C10A 1_555 1_555
C11A C12A 1_555 1_555
C16A C24A 1_555 1_555
C19A C23A 1_555 1_555
C21A C22A 1_555 1_555
C23A C24A 1_555 1_555
C25A C29A 1_555 1_555
C27A C28A 1_555 1_555
C30A C34A 1_555 1_555
C32A C33A 1_555 1_555
C35A C39A 1_555 1_555
C37A C38A 1_555 1_555

#END
