
#######################################################################
#
#                 Cambridge Crystallographic Data Centre
#                                CCDC 
#
#######################################################################
#
# If this CIF has been generated from an entry in the Cambridge 
# Structural Database, then it will include bibliographic, chemical, 
# crystal, experimental, refinement or atomic coordinate data resulting 
# from the CCDC's data processing and validation procedures.
#
#######################################################################

data_VIPXOI
_symmetry_cell_setting           monoclinic
_symmetry_space_group_name_H-M   'C 2/c'
_symmetry_Int_Tables_number      15
_space_group_name_Hall           '-C 2yn'
loop_
_symmetry_equiv_pos_site_id
_symmetry_equiv_pos_as_xyz
1 x,y,z
2 1/2+x,1/2+y,z
3 -x,y,1/2-z
4 1/2-x,1/2+y,1/2-z
5 -x,-y,-z
6 1/2-x,1/2-y,-z
7 x,-y,1/2+z
8 1/2+x,1/2-y,1/2+z
_cell_length_a                   25.896(2)
_cell_length_b                   11.0511(9)
_cell_length_c                   17.3434(15)
_cell_angle_alpha                90
_cell_angle_beta                 118.826(2)
_cell_angle_gamma                90
_cell_volume                     4348.31
loop_
_atom_site_label
_atom_site_type_symbol
_atom_site_fract_x
_atom_site_fract_y
_atom_site_fract_z
C1 C 0.20860(18) 0.8443(3) 0.0470(3)
C2 C 0.16448(18) 0.7654(4) -0.0086(3)
H1 H 0.1535 0.7009 0.0148
C3 C 0.13736(18) 0.7826(4) -0.0974(3)
C4 C 0.15421(18) 0.8742(4) -0.1332(3)
H2 H 0.1346 0.8847 -0.1939
C5 C 0.2008(2) 0.9536(4) -0.0801(3)
C6 C 0.22698(19) 0.9337(3) 0.0109(3)
H3 H 0.2581 0.9832 0.0483
C7 C 0.2344(2) 0.8362(4) 0.1450(3)
C8 C 0.0879(2) 0.7004(5) -0.1593(3)
C9 C 0.2168(2) 1.0528(4) -0.1175(3)
C10 C -0.00410(19) 0.0543(4) -0.4782(3)
H4 H 0.0001 0.0273 -0.4216
C11 C 0.0454(2) 0.1506(4) -0.4577(3)
H5 H 0.0821 0.1088 -0.4419
H6 H 0.0351 0.1970 -0.5106
C12 C -0.06399(18) 0.1139(4) -0.5283(3)
C13 C -0.10302(19) 0.1144(3) -0.4981(3)
H7 H -0.0932 0.0796 -0.4440
C14 C -0.15856(16) 0.1675(3) -0.5487(2)
H8 H -0.1842 0.1703 -0.5254
C15 C -0.1345(2) 0.2188(4) -0.6552(3)
H9 H -0.1437 0.2574 -0.7079
C16 C -0.08019(19) 0.1681(4) -0.6068(3)
H10 H -0.0535 0.1708 -0.6283
C17 C 0.0551(2) 0.2375(4) -0.3837(3)
C18 C 0.0369(2) 0.3572(4) -0.4023(3)
H11 H 0.0238 0.3877 -0.4587
C19 C 0.0383(2) 0.4315(4) -0.3366(3)
H12 H 0.0261 0.5116 -0.3491
C20 C 0.0761(2) 0.2661(4) -0.2337(3)
H13 H 0.0892 0.2356 -0.1773
C21 C 0.0747(2) 0.1919(4) -0.2994(3)
H14 H 0.0868 0.1117 -0.2870
N1 N -0.17613(15) 0.2136(3) -0.6271(2)
N2 N 0.05789(17) 0.3859(4) -0.2523(2)
O1 O 0.27283(16) 0.9089(3) 0.1948(2)
O2 O 0.21332(15) 0.7564(3) 0.1742(2)
O3 O 0.07260(15) 0.6163(3) -0.1281(2)
O4 O 0.06139(15) 0.7189(3) -0.2383(2)
O5 O 0.19290(17) 1.0741(4) -0.1978(2)
O6 O 0.25547(18) 1.1243(4) -0.0688(2)
O7 O -0.30404(16) 0.1382(3) -0.6871(2)
H15 H -0.3209 0.1606 -0.6505
H16 H -0.2775 0.0715 -0.6608
Zn1 Zn -0.25999(3) 0.27894(5) -0.69924(3)
Zn2 Zn 0.0000 0.56340(6) -0.2500
C1B C -0.20860(18) 0.8443(3) -0.5470(3)
C2B C -0.16448(18) 0.7654(4) -0.4914(3)
H1B H -0.1535 0.7009 -0.5148
C3B C -0.13736(18) 0.7826(4) -0.4026(3)
C4B C -0.15421(18) 0.8742(4) -0.3668(3)
H2B H -0.1346 0.8847 -0.3061
C5B C -0.2008(2) 0.9536(4) -0.4199(3)
C6B C -0.22698(19) 0.9337(3) -0.5109(3)
H3B H -0.2581 0.9832 -0.5483
C7B C -0.2344(2) 0.8362(4) -0.6450(3)
C8B C -0.0879(2) 0.7004(5) -0.3407(3)
C9B C -0.2168(2) 1.0528(4) -0.3825(3)
C10D C 0.00410(19) -0.0543(4) -0.5218(3)
H4D H -0.0001 -0.0273 -0.5784
C11D C -0.0454(2) -0.1506(4) -0.5423(3)
H5D H -0.0821 -0.1088 -0.5581
H6D H -0.0351 -0.1970 -0.4894
C12D C 0.06399(18) -0.1139(4) -0.4717(3)
C13D C 0.10302(19) -0.1144(3) -0.5019(3)
H7D H 0.0932 -0.0796 -0.5560
C14D C 0.15856(16) -0.1675(3) -0.4513(2)
H8D H 0.1842 -0.1703 -0.4746
C15D C 0.1345(2) -0.2188(4) -0.3448(3)
H9D H 0.1437 -0.2574 -0.2921
C16D C 0.08019(19) -0.1681(4) -0.3932(3)
H10D H 0.0535 -0.1708 -0.3717
C17D C -0.0551(2) -0.2375(4) -0.6163(3)
C18D C -0.0369(2) -0.3572(4) -0.5977(3)
H11D H -0.0238 -0.3877 -0.5413
C19D C -0.0383(2) -0.4315(4) -0.6634(3)
H12D H -0.0261 -0.5116 -0.6509
C20D C -0.0761(2) -0.2661(4) -0.7663(3)
H13D H -0.0892 -0.2356 -0.8227
C21D C -0.0747(2) -0.1919(4) -0.7006(3)
H14D H -0.0868 -0.1117 -0.7130
N1D N 0.17613(15) -0.2136(3) -0.3729(2)
N2D N -0.05789(17) -0.3859(4) -0.7477(2)
N2B N -0.05789(17) 0.3859(4) -0.2477(2)
O1B O -0.27283(16) 0.9089(3) -0.6948(2)
O2B O -0.21332(15) 0.7564(3) -0.6742(2)
O2A O -0.28668(15) 0.2564(3) -0.8258(2)
O2E O 0.28668(15) -0.2564(3) -0.1742(2)
O3B O -0.07260(15) 0.6163(3) -0.3719(2)
O4B O -0.06139(15) 0.7189(3) -0.2617(2)
O5B O -0.19290(17) 1.0741(4) -0.3022(2)
O5G O -0.30710(17) 0.4259(4) -0.6978(2)
O5C O 0.30710(17) -0.4259(4) -0.3022(2)
O6B O -0.25547(18) 1.1243(4) -0.4312(2)
O6G O -0.24453(18) 0.3757(4) -0.5688(2)
O6C O 0.24453(18) -0.3757(4) -0.4312(2)
O7D O 0.30404(16) -0.1382(3) -0.3129(2)
H15D H 0.3209 -0.1606 -0.3495
H16D H 0.2775 -0.0715 -0.3392
Zn1D Zn 0.25999(3) -0.27894(5) -0.30076(3)
Zn1A Zn 0.24001(3) 0.77894(5) 0.30076(3)
Zn1G Zn 0.24001(3) 1.22106(5) -0.19924(3)
Zn1C Zn -0.24001(3) 0.77894(5) -0.80076(3)
Zn1E Zn -0.24001(3) 1.22106(5) -0.30076(3)
Zn2F Zn 0.0000 -0.56340(6) -0.7500
O8 O 0.1287(3) 0.5526(6) 0.4253(4)
H17 H 0.1150 0.4817 0.4092
H18 H 0.1533 0.5523 0.4800
O9 O 1.0000 0.9558(6) 0.7500
H19 H 0.9633 0.9715 0.7246
H19B H 1.0367 0.9715 0.7754
H20? H 1.0065 0.8897 0.7782
loop_
_geom_bond_atom_site_label_1
_geom_bond_atom_site_label_2
_geom_bond_site_symmetry_1
_geom_bond_site_symmetry_2
C1 C2 1_555 1_555
C2 H1 1_555 1_555
C3 C2 1_555 1_555
C4 C3 1_555 1_555
H2 C4 1_555 1_555
C5 C4 1_555 1_555
C6 C1 1_555 1_555
H3 C6 1_555 1_555
C7 C1 1_555 1_555
C8 C3 1_555 1_555
C9 C5 1_555 1_555
C10 H4 1_555 1_555
C11 C10 1_555 1_555
H5 C11 1_555 1_555
H6 C11 1_555 1_555
C12 C10 1_555 1_555
C13 C12 1_555 1_555
H7 C13 1_555 1_555
C14 C13 1_555 1_555
H8 C14 1_555 1_555
C15 H9 1_555 1_555
C16 C12 1_555 1_555
H10 C16 1_555 1_555
C17 C11 1_555 1_555
C18 C17 1_555 1_555
H11 C18 1_555 1_555
C19 C18 1_555 1_555
H12 C19 1_555 1_555
C20 H13 1_555 1_555
C21 C17 1_555 1_555
H14 C21 1_555 1_555
N1 C14 1_555 1_555
N2 C19 1_555 1_555
O1 C7 1_555 1_555
O2 C7 1_555 1_555
O3 C8 1_555 1_555
O4 C8 1_555 1_555
O5 C9 1_555 1_555
O6 C9 1_555 1_555
O7 H15 1_555 1_555
H16 O7 1_555 1_555
O8 H17 1_555 1_555
H18 O8 1_555 1_555
O9 H19 1_555 1_555
Zn1 N1 1_555 1_555
Zn2 N2 1_555 1_555
C1B C2B 1_555 1_555
C2B H1B 1_555 1_555
C3B C2B 1_555 1_555
C4B C3B 1_555 1_555
H2B C4B 1_555 1_555
C5B C4B 1_555 1_555
C6B C1B 1_555 1_555
H3B C6B 1_555 1_555
C7B C1B 1_555 1_555
C8B C3B 1_555 1_555
C9B C5B 1_555 1_555
C10D C10 1_555 1_555
H4D C10D 1_555 1_555
C11D C10D 1_555 1_555
H5D C11D 1_555 1_555
H6D C11D 1_555 1_555
C12D C10D 1_555 1_555
C13D C12D 1_555 1_555
H7D C13D 1_555 1_555
C14D C13D 1_555 1_555
H8D C14D 1_555 1_555
C15D H9D 1_555 1_555
C16D C12D 1_555 1_555
H10D C16D 1_555 1_555
C17D C11D 1_555 1_555
C18D C17D 1_555 1_555
H11D C18D 1_555 1_555
C19D C18D 1_555 1_555
H12D C19D 1_555 1_555
C20D H13D 1_555 1_555
C21D C17D 1_555 1_555
H14D C21D 1_555 1_555
N1D C14D 1_555 1_555
N2D C19D 1_555 1_555
N2B Zn2 1_555 1_555
O1B C7B 1_555 1_555
O2B C7B 1_555 1_555
O2A Zn1 1_555 1_555
O2E Zn1D 1_555 1_555
O3B Zn2 1_555 1_555
O4B Zn2 1_555 1_555
O5B C9B 1_555 1_555
O5G Zn1 1_555 1_555
O5C Zn1D 1_555 1_555
O6B C9B 1_555 1_555
O6G Zn1 1_555 1_555
O6C Zn1D 1_555 1_555
O7D H15D 1_555 1_555
H16D O7D 1_555 1_555
H19B O9 1_555 1_555
Zn1D N1D 1_555 1_555
Zn1A O2 1_555 1_555
Zn1G O5 1_555 1_555
Zn1C O2B 1_555 1_555
Zn1E O5B 1_555 1_555
Zn2F N2D 1_555 1_555
C5 C6 1_555 1_555
C15 C16 1_555 1_555
C15 N1 1_555 1_555
C20 C21 1_555 1_555
C20 N2 1_555 1_555
O3 Zn2 1_555 1_555
O4 Zn2 1_555 1_555
O6 Zn1G 1_555 1_555
O7 Zn1 1_555 1_555
C5B C6B 1_555 1_555
C8B O3B 1_555 1_555
C8B O4B 1_555 1_555
C15D C16D 1_555 1_555
C15D N1D 1_555 1_555
C20D C21D 1_555 1_555
C20D N2D 1_555 1_555
O6B Zn1E 1_555 1_555
O7D Zn1D 1_555 1_555

#END
