
#######################################################################
#
#                 Cambridge Crystallographic Data Centre
#                                CCDC 
#
#######################################################################
#
# If this CIF has been generated from an entry in the Cambridge 
# Structural Database, then it will include bibliographic, chemical, 
# crystal, experimental, refinement or atomic coordinate data resulting 
# from the CCDC's data processing and validation procedures.
#
#######################################################################

data_VIPXIC
_symmetry_cell_setting           triclinic
_symmetry_space_group_name_H-M   'P -1'
_symmetry_Int_Tables_number      2
_space_group_name_Hall           '-P 1'
loop_
_symmetry_equiv_pos_site_id
_symmetry_equiv_pos_as_xyz
1 x,y,z
2 -x,-y,-z
_cell_length_a                   9.848(3)
_cell_length_b                   9.927(3)
_cell_length_c                   11.596(3)
_cell_angle_alpha                70.257(5)
_cell_angle_beta                 65.314(4)
_cell_angle_gamma                71.302(4)
_cell_volume                     947.891
loop_
_atom_site_label
_atom_site_type_symbol
_atom_site_fract_x
_atom_site_fract_y
_atom_site_fract_z
Mn1 Mn -0.88419(3) 0.32011(3) 0.37758(3)
C1 C -0.6100(2) 0.1899(3) 0.1456(2)
H1 H -0.6804 0.2346 0.1029
C2 C -0.5484(2) 0.1328(2) 0.3273(2)
H2 H -0.5750 0.1367 0.4132
C3 C -0.4042(2) 0.0579(2) 0.2674(2)
H3 H -0.3355 0.0144 0.3120
C4 C -0.4683(3) 0.1169(2) 0.0792(2)
H4 H -0.4444 0.1142 -0.0067
C5 C -0.3624(2) 0.0480(2) 0.1403(2)
C6 C -0.2069(2) -0.0342(2) 0.0718(2)
H5 H -0.2064 -0.0466 -0.0079
H6 H -0.1871 -0.1309 0.1273
C7 C -0.0786(2) 0.04321(19) 0.03771(18)
H7 H -0.0743 0.0470 0.1194
C8 C -0.1050(2) 0.1979(2) -0.04300(18)
C9 C -0.1033(2) 0.3172(2) -0.0078(2)
H8 H -0.0935 0.3055 0.0716
C10 C -0.1163(3) 0.4537(2) -0.0919(2)
H9 H -0.1147 0.5327 -0.0668
C11 C -0.1341(3) 0.3632(2) -0.2388(2)
H10 H -0.1446 0.3777 -0.3184
C12 C -0.1226(3) 0.2239(2) -0.1606(2)
H11 H -0.1268 0.1472 -0.1873
C13 C -0.7850(2) 0.4626(2) 0.53429(19)
C14 C -0.6736(2) 0.4150(2) 0.60461(19)
C15 C -0.7031(2) 0.4734(3) 0.7076(2)
H12 H -0.7913 0.5439 0.7323
C16 C -0.6015(3) 0.4270(3) 0.7738(2)
H13 H -0.6218 0.4660 0.8432
C17 C -0.4695(3) 0.3226(3) 0.7371(2)
H14 H -0.4027 0.2905 0.7832
C18 C -0.4364(2) 0.2657(2) 0.63240(19)
C19 C -0.5387(2) 0.3131(2) 0.56666(19)
H15 H -0.5168 0.2761 0.4956
C20 C -0.2895(2) 0.1560(2) 0.5890(2)
N1 N -0.65169(19) 0.19987(19) 0.26897(18)
N2 N -0.1310(2) 0.47887(18) -0.20662(17)
O1 O -0.76909(17) 0.38491(16) 0.46197(16)
O2 O -1.11549(16) 0.42214(15) 0.45063(15)
O3 O -0.25106(17) 0.13069(16) 0.47933(15)
O4 O -0.21479(16) 0.09724(16) 0.66520(15)
O5 O -0.91854(17) 0.13509(15) 0.54501(14)
H16 H -1.0115 0.1280 0.5753
H17 H -0.8614 0.0572 0.5216
O6 O -0.96490(17) 0.19412(16) 0.28990(15)
H18 H -1.0619 0.2158 0.3140
H19 H -0.9355 0.1026 0.3168
Mn1A Mn 0.88419(3) -0.32011(3) -0.37758(3)
Mn1A_2 Mn -0.11581(3) 0.67989(3) -0.37758(3)
Mn1A_3 Mn -1.11581(3) 0.67989(3) 0.62242(3)
Mn1_2 Mn 0.11581(3) -0.67989(3) 0.37758(3)
C1A C 0.6100(2) -0.1899(3) -0.1456(2)
H1A H 0.6804 -0.2346 -0.1029
C2A C 0.5484(2) -0.1328(2) -0.3273(2)
H2A H 0.5750 -0.1367 -0.4132
C3A C 0.4042(2) -0.0579(2) -0.2674(2)
H3A H 0.3355 -0.0144 -0.3120
C4A C 0.4683(3) -0.1169(2) -0.0792(2)
H4A H 0.4444 -0.1142 0.0067
C5A C 0.3624(2) -0.0480(2) -0.1403(2)
C6A C 0.2069(2) 0.0342(2) -0.0718(2)
H5A H 0.2064 0.0466 0.0079
H6A H 0.1871 0.1309 -0.1273
C7A C 0.0786(2) -0.04321(19) -0.03771(18)
H7A H 0.0743 -0.0470 -0.1194
C8A C 0.1050(2) -0.1979(2) 0.04300(18)
C9A C 0.1033(2) -0.3172(2) 0.0078(2)
H8A H 0.0935 -0.3055 -0.0716
C10A C 0.1163(3) -0.4537(2) 0.0919(2)
H9A H 0.1147 -0.5327 0.0668
C11A C 0.1341(3) -0.3632(2) 0.2388(2)
H10A H 0.1446 -0.3777 0.3184
C12A C 0.1226(3) -0.2239(2) 0.1606(2)
H11A H 0.1268 -0.1472 0.1873
C13A C -1.2150(2) 0.5374(2) 0.46571(19)
C14A C -1.3264(2) 0.5850(2) 0.39539(19)
C15A C -1.2969(2) 0.5266(3) 0.2924(2)
H12A H -1.2087 0.4561 0.2677
C16A C -1.3985(3) 0.5730(3) 0.2262(2)
H13A H -1.3782 0.5340 0.1568
C17A C -1.5305(3) 0.6774(3) 0.2629(2)
H14A H -1.5973 0.7095 0.2168
C18A C -1.5636(2) 0.7343(2) 0.36760(19)
C19A C -1.4613(2) 0.6869(2) 0.43334(19)
H15A H -1.4832 0.7239 0.5044
C20A C -1.7105(2) 0.8440(2) 0.4110(2)
N1A N 0.65169(19) -0.19987(19) -0.26897(18)
N2_2 N 0.8690(2) -0.52113(18) -0.20662(17)
N2A N -0.8690(2) 0.52113(18) 0.20662(17)
N2A_2 N 0.1310(2) -0.47887(18) 0.20662(17)
O1A O 0.76909(17) -0.38491(16) -0.46197(16)
O1A_2 O -1.23091(17) 0.61509(16) 0.53803(16)
O2A O 1.11549(16) -0.42214(15) -0.45063(15)
O2A_2 O -0.88451(16) 0.57786(15) 0.54937(15)
O3A O -1.74894(17) 0.86931(16) 0.52067(15)
O4A O -1.78521(16) 0.90276(16) 0.33480(15)
O5A O 0.91854(17) -0.13509(15) -0.54501(14)
H16A H 1.0115 -0.1280 -0.5753
H17A H 0.8614 -0.0572 -0.5216
O6A O 0.96490(17) -0.19412(16) -0.28990(15)
H18A H 1.0619 -0.2158 -0.3140
H19A H 0.9355 -0.1026 -0.3168
loop_
_geom_bond_atom_site_label_1
_geom_bond_atom_site_label_2
_geom_bond_site_symmetry_1
_geom_bond_site_symmetry_2
Mn1 N1 1_555 1_555
C1 H1 1_555 1_555
C2 H2 1_555 1_555
C3 C2 1_555 1_555
H3 C3 1_555 1_555
C4 C1 1_555 1_555
H4 C4 1_555 1_555
C5 C3 1_555 1_555
C6 C5 1_555 1_555
H5 C6 1_555 1_555
H6 C6 1_555 1_555
C7 C6 1_555 1_555
H7 C7 1_555 1_555
C8 C7 1_555 1_555
C9 C8 1_555 1_555
H8 C9 1_555 1_555
C10 C9 1_555 1_555
H9 C10 1_555 1_555
C11 H10 1_555 1_555
C12 C8 1_555 1_555
H11 C12 1_555 1_555
C13 C14 1_555 1_555
C14 C15 1_555 1_555
C15 H12 1_555 1_555
C16 C15 1_555 1_555
H13 C16 1_555 1_555
C17 C16 1_555 1_555
H14 C17 1_555 1_555
C18 C17 1_555 1_555
C19 C14 1_555 1_555
H15 C19 1_555 1_555
C20 C18 1_555 1_555
N1 C1 1_555 1_555
N2 C10 1_555 1_555
O1 Mn1 1_555 1_555
O2 Mn1 1_555 1_555
O3 C20 1_555 1_555
O4 C20 1_555 1_555
O5 Mn1 1_555 1_555
H16 O5 1_555 1_555
H17 O5 1_555 1_555
O6 Mn1 1_555 1_555
H18 O6 1_555 1_555
H19 O6 1_555 1_555
Mn1A N1A 1_555 1_555
Mn1A_2 N2 1_555 1_555
Mn1A_3 O1A_2 1_555 1_555
Mn1_2 N2A_2 1_555 1_555
C1A H1A 1_555 1_555
C2A H2A 1_555 1_555
C3A C2A 1_555 1_555
H3A C3A 1_555 1_555
C4A C1A 1_555 1_555
H4A C4A 1_555 1_555
C5A C3A 1_555 1_555
C6A C5A 1_555 1_555
H5A C6A 1_555 1_555
H6A C6A 1_555 1_555
C7A C7 1_555 1_555
H7A C7A 1_555 1_555
C8A C7A 1_555 1_555
C9A C8A 1_555 1_555
H8A C9A 1_555 1_555
C10A C9A 1_555 1_555
H9A C10A 1_555 1_555
C11A H10A 1_555 1_555
C12A C8A 1_555 1_555
H11A C12A 1_555 1_555
C13A O2 1_555 1_555
C14A C13A 1_555 1_555
C15A C14A 1_555 1_555
H12A C15A 1_555 1_555
C16A C15A 1_555 1_555
H13A C16A 1_555 1_555
C17A C16A 1_555 1_555
H14A C17A 1_555 1_555
C18A C17A 1_555 1_555
C19A C14A 1_555 1_555
H15A C19A 1_555 1_555
C20A C18A 1_555 1_555
N1A C1A 1_555 1_555
N2_2 Mn1A 1_555 1_555
N2A Mn1 1_555 1_555
N2A_2 C10A 1_555 1_555
O1A Mn1A 1_555 1_555
O1A_2 C13A 1_555 1_555
O2A Mn1A 1_555 1_555
O2A_2 C13 1_555 1_555
O3A C20A 1_555 1_555
O4A C20A 1_555 1_555
O5A Mn1A 1_555 1_555
H16A O5A 1_555 1_555
H17A O5A 1_555 1_555
O6A Mn1A 1_555 1_555
H18A O6A 1_555 1_555
H19A O6A 1_555 1_555
C2 N1 1_555 1_555
C4 C5 1_555 1_555
C11 C12 1_555 1_555
C11 N2 1_555 1_555
C13 O1 1_555 1_555
C18 C19 1_555 1_555
Mn1A_3 O2A_2 1_555 1_555
C2A N1A 1_555 1_555
C4A C5A 1_555 1_555
C6A C7A 1_555 1_555
C11A C12A 1_555 1_555
C11A N2A_2 1_555 1_555
C18A C19A 1_555 1_555

#END
