
#######################################################################
#
#                 Cambridge Crystallographic Data Centre
#                                CCDC 
#
#######################################################################
#
# If this CIF has been generated from an entry in the Cambridge 
# Structural Database, then it will include bibliographic, chemical, 
# crystal, experimental, refinement or atomic coordinate data resulting 
# from the CCDC's data processing and validation procedures.
#
#######################################################################

data_VIPYAU
_symmetry_cell_setting           monoclinic
_symmetry_space_group_name_H-M   'P 21/n'
_symmetry_Int_Tables_number      14
_space_group_name_Hall           '-P 2yn'
loop_
_symmetry_equiv_pos_site_id
_symmetry_equiv_pos_as_xyz
1 x,y,z
2 1/2-x,1/2+y,1/2-z
3 -x,-y,-z
4 1/2+x,1/2-y,1/2+z
_cell_length_a                   5.874(1)
_cell_length_b                   16.003(3)
_cell_length_c                   8.408(2)
_cell_angle_alpha                90
_cell_angle_beta                 103.99(2)
_cell_angle_gamma                90
_cell_volume                     766.922
loop_
_atom_site_label
_atom_site_type_symbol
_atom_site_fract_x
_atom_site_fract_y
_atom_site_fract_z
Pr1 Pr 0.02489(4) 0.10532(1) 0.32919(2)
Cl1 Cl 0.2221(2) 0.26523(7) 0.2827(1)
O1 O -0.2144(5) 0.0238(2) 0.4882(4)
O2 O 0.1315(7) 0.0969(2) 0.0577(4)
O3 O -0.5549(5) 0.0772(2) 0.3508(4)
O4 O 0.0912(7) 0.0263(2) -0.1771(4)
O5 O 0.2099(6) 0.1458(2) 0.6218(4)
O6 O -0.2178(6) 0.2167(2) 0.4219(4)
O7 O -0.3357(6) 0.1401(3) 0.1019(5)
C1 C -0.4325(7) 0.0296(3) 0.4550(5)
C2 C 0.0626(8) 0.0364(3) -0.0334(5)
C1B C -0.5675(7) -0.0296(3) 0.5450(5)
O1B O -0.7856(5) -0.0238(2) 0.5118(4)
O3B O -0.4451(5) -0.0772(2) 0.6492(4)
C2B C -0.0626(8) -0.0364(3) 0.0334(5)
O2B O -0.1315(7) -0.0969(2) -0.0577(4)
O4B O -0.0912(7) -0.0263(2) 0.1771(4)
Pr1B Pr -1.02489(4) -0.10532(1) 0.67081(2)
Cl1B Cl -1.2221(2) -0.26523(7) 0.7173(1)
O5B O -1.2099(6) -0.1458(2) 0.3782(4)
O6B O -0.7822(6) -0.2167(2) 0.5781(4)
O7B O -0.6643(6) -0.1401(3) 0.8981(5)
O1B_2 O 0.2144(5) -0.0238(2) 0.5118(4)
O3_2 O 0.4451(5) 0.0772(2) 0.3508(4)
Pr1B_2 Pr -0.02489(4) -0.10532(1) 0.67081(2)
Pr1_2 Pr -0.97511(4) 0.10532(1) 0.32919(2)
Pr1B_3 Pr -0.02489(4) -0.10532(1) -0.32919(2)
O1_2 O -1.2144(5) 0.0238(2) 0.4882(4)
O2B_2 O -1.1315(7) -0.0969(2) 0.9423(4)
O3B_2 O -1.4451(5) -0.0772(2) 0.6492(4)
O4_2 O -0.9088(7) 0.0263(2) 0.8229(4)
loop_
_geom_bond_atom_site_label_1
_geom_bond_atom_site_label_2
_geom_bond_site_symmetry_1
_geom_bond_site_symmetry_2
Pr1 Cl1 1_555 1_555
O1 Pr1 1_555 1_555
O2 Pr1 1_555 1_555
O3 C1 1_555 1_555
O4 C2 1_555 1_555
O5 Pr1 1_555 1_555
O6 Pr1 1_555 1_555
O7 Pr1 1_555 1_555
C1 O1 1_555 1_555
C2 O2 1_555 1_555
C1B C1 1_555 1_555
O1B C1B 1_555 1_555
O3B C1B 1_555 1_555
C2B C2 1_555 1_555
O2B C2B 1_555 1_555
O4B Pr1 1_555 1_555
Pr1B O1B 1_555 1_555
Cl1B Pr1B 1_555 1_555
O5B Pr1B 1_555 1_555
O6B Pr1B 1_555 1_555
O7B Pr1B 1_555 1_555
O1B_2 Pr1 1_555 1_555
O3_2 Pr1 1_555 1_555
Pr1B_2 O1 1_555 1_555
Pr1_2 O3 1_555 1_555
Pr1B_3 O4 1_555 1_555
O1_2 Pr1B 1_555 1_555
O2B_2 Pr1B 1_555 1_555
O3B_2 Pr1B 1_555 1_555
O4_2 Pr1B 1_555 1_555
O1B Pr1_2 1_555 1_555
O3B Pr1B_2 1_555 1_555
C2B O4B 1_555 1_555
O2B Pr1B_3 1_555 1_555
O1B_2 Pr1B_2 1_555 1_555
Pr1_2 O1_2 1_555 1_555

#END
