
#######################################################################
#
#                 Cambridge Crystallographic Data Centre
#                                CCDC 
#
#######################################################################
#
# If this CIF has been generated from an entry in the Cambridge 
# Structural Database, then it will include bibliographic, chemical, 
# crystal, experimental, refinement or atomic coordinate data resulting 
# from the CCDC's data processing and validation procedures.
#
#######################################################################

data_VIPYEY
_symmetry_cell_setting           monoclinic
_symmetry_space_group_name_H-M   'P 21/n'
_symmetry_Int_Tables_number      14
_space_group_name_Hall           '-P 2yn'
loop_
_symmetry_equiv_pos_site_id
_symmetry_equiv_pos_as_xyz
1 x,y,z
2 1/2-x,1/2+y,1/2-z
3 -x,-y,-z
4 1/2+x,1/2-y,1/2+z
_cell_length_a                   5.941(2)
_cell_length_b                   16.260(7)
_cell_length_c                   8.494(4)
_cell_angle_alpha                90
_cell_angle_beta                 104.28(3)
_cell_angle_gamma                90
_cell_volume                     795.173
loop_
_atom_site_label
_atom_site_type_symbol
_atom_site_fract_x
_atom_site_fract_y
_atom_site_fract_z
Pr1 Pr 0.02450(5) 0.10142(2) 0.32819(4)
Br1 Br 0.2268(1) 0.26926(4) 0.28139(8)
O1 O -0.2192(7) 0.0228(3) 0.4846(5)
O2 O 0.1287(9) 0.0951(3) 0.0599(6)
O3 O -0.5578(8) 0.0765(3) 0.3527(6)
O4 O 0.0818(9) 0.0290(3) -0.1766(5)
O5 O 0.1998(8) 0.1450(3) 0.6181(6)
O6 O -0.2147(8) 0.2112(3) 0.4148(6)
O7 O -0.3371(9) 0.1337(4) 0.1066(6)
C1 C -0.4387(10) 0.0292(4) 0.4514(8)
C2 C 0.0613(11) 0.0361(4) -0.0333(7)
C1B C -0.5613(10) -0.0292(4) 0.5486(8)
O1B O -0.7808(7) -0.0228(3) 0.5154(5)
O3B O -0.4422(8) -0.0765(3) 0.6473(6)
C2B C -0.0613(11) -0.0361(4) 0.0333(7)
O2B O -0.1287(9) -0.0951(3) -0.0599(6)
O4B O -0.0818(9) -0.0290(3) 0.1766(5)
Pr1B Pr -1.02450(5) -0.10142(2) 0.67181(4)
Br1B Br -1.2268(1) -0.26926(4) 0.71861(8)
O5B O -1.1998(8) -0.1450(3) 0.3819(6)
O6B O -0.7853(8) -0.2112(3) 0.5852(6)
O7B O -0.6629(9) -0.1337(4) 0.8934(6)
O1B_2 O 0.2192(7) -0.0228(3) 0.5154(5)
O3_2 O 0.4422(8) 0.0765(3) 0.3527(6)
Pr1B_2 Pr -0.02450(5) -0.10142(2) 0.67181(4)
Pr1_2 Pr -0.97550(5) 0.10142(2) 0.32819(4)
Pr1B_3 Pr -0.02450(5) -0.10142(2) -0.32819(4)
O1_2 O -1.2192(7) 0.0228(3) 0.4846(5)
O2B_2 O -1.1287(9) -0.0951(3) 0.9401(6)
O3B_2 O -1.4422(8) -0.0765(3) 0.6473(6)
O4_2 O -0.9182(9) 0.0290(3) 0.8234(5)
loop_
_geom_bond_atom_site_label_1
_geom_bond_atom_site_label_2
_geom_bond_site_symmetry_1
_geom_bond_site_symmetry_2
Pr1 Br1 1_555 1_555
O1 Pr1 1_555 1_555
O2 Pr1 1_555 1_555
O3 C1 1_555 1_555
O4 C2 1_555 1_555
O5 Pr1 1_555 1_555
O6 Pr1 1_555 1_555
O7 Pr1 1_555 1_555
C1 O1 1_555 1_555
C2 O2 1_555 1_555
C1B C1 1_555 1_555
O1B C1B 1_555 1_555
O3B C1B 1_555 1_555
C2B C2 1_555 1_555
O2B C2B 1_555 1_555
O4B Pr1 1_555 1_555
Pr1B O1B 1_555 1_555
Br1B Pr1B 1_555 1_555
O5B Pr1B 1_555 1_555
O6B Pr1B 1_555 1_555
O7B Pr1B 1_555 1_555
O1B_2 Pr1 1_555 1_555
O3_2 Pr1 1_555 1_555
Pr1B_2 O1 1_555 1_555
Pr1_2 O3 1_555 1_555
Pr1B_3 O4 1_555 1_555
O1_2 Pr1B 1_555 1_555
O2B_2 Pr1B 1_555 1_555
O3B_2 Pr1B 1_555 1_555
O4_2 Pr1B 1_555 1_555
O1B Pr1_2 1_555 1_555
O3B Pr1B_2 1_555 1_555
C2B O4B 1_555 1_555
O2B Pr1B_3 1_555 1_555
O1B_2 Pr1B_2 1_555 1_555
Pr1_2 O1_2 1_555 1_555

#END
