
#######################################################################
#
#                 Cambridge Crystallographic Data Centre
#                                CCDC 
#
#######################################################################
#
# If this CIF has been generated from an entry in the Cambridge 
# Structural Database, then it will include bibliographic, chemical, 
# crystal, experimental, refinement or atomic coordinate data resulting 
# from the CCDC's data processing and validation procedures.
#
#######################################################################

data_VIQCUV
_symmetry_cell_setting           monoclinic
_symmetry_space_group_name_H-M   'C 2/c'
_symmetry_Int_Tables_number      15
_space_group_name_Hall           '-C 2yn'
loop_
_symmetry_equiv_pos_site_id
_symmetry_equiv_pos_as_xyz
1 x,y,z
2 -x,y,1/2-z
3 1/2+x,1/2+y,z
4 1/2-x,1/2+y,1/2-z
5 -x,-y,-z
6 x,-y,1/2+z
7 1/2-x,1/2-y,-z
8 1/2+x,1/2-y,1/2+z
_cell_length_a                   30.7179(12)
_cell_length_b                   6.9997(4)
_cell_length_c                   19.1087(8)
_cell_angle_alpha                90
_cell_angle_beta                 127.380(4)
_cell_angle_gamma                90
_cell_volume                     3264.86
loop_
_atom_site_label
_atom_site_type_symbol
_atom_site_fract_x
_atom_site_fract_y
_atom_site_fract_z
C1 C 0.24120(12) 0.9956(5) 0.4982(2)
Cd1 Cd 0.0000 1.0000 0.5000
O1 O 0.05976(9) 0.9816(3) 0.46635(14)
O2 O 0.02945(9) 0.6921(3) 0.40359(16)
N1 N 0.32140(11) 1.0799(4) 0.55083(17)
H1 H 0.3512 1.1028 0.5573
N2 N 0.26286(10) 1.0634(4) 0.58015(17)
N3 N 0.43417(10) 1.3620(4) 0.86245(17)
C2 C 0.35524(13) 1.1978(5) 0.6980(2)
C3 C 0.05881(12) 0.8365(5) 0.4246(2)
C4 C 0.09699(13) 0.8445(5) 0.3995(2)
C5 C 0.16770(12) 0.8452(4) 0.3552(2)
H2 H 0.1915 0.8427 0.3404
C6 C 0.14843(12) 0.9256(5) 0.4561(2)
H3 H 0.1586 0.9830 0.5079
C7 C 0.18515(12) 0.9218(5) 0.4362(2)
C8 C 0.40958(12) 1.2181(5) 0.7296(2)
H4 H 0.4205 1.1760 0.6962
C9 C 0.34190(13) 1.2617(5) 0.7515(2)
H5 H 0.3062 1.2508 0.7332
C10 C 0.38203(13) 1.3417(5) 0.8319(2)
H6 H 0.3724 1.3839 0.8670
C11 C 0.11524(12) 0.7732(5) 0.2972(2)
H7 H 0.1033 0.7286 0.2424
C12 C 0.08038(13) 0.7670(5) 0.3199(2)
H8 H 0.0460 0.7112 0.2821
C13 C 0.31357(12) 1.1142(5) 0.6116(2)
C14 C 0.44675(13) 1.3010(5) 0.8104(2)
H9 H 0.4827 1.3155 0.8300
N4 N 0.27558(10) 1.0039(4) 0.47807(17)
O3 O -0.03633(10) 0.6950(4) 0.45713(16)
H10 H -0.0196(13) 0.657(6) 0.432(2)
H11 H -0.0743(7) 0.690(6) 0.415(2)
C1D C -0.24120(12) 1.0044(5) 0.5018(2)
O1D O -0.05976(9) 1.0184(3) 0.53365(14)
O2D O -0.02945(9) 1.3079(3) 0.59641(16)
N1D N -0.32140(11) 0.9201(4) 0.44917(17)
H1D H -0.3512 0.8972 0.4427
N2D N -0.26286(10) 0.9366(4) 0.41985(17)
N3D N -0.43417(10) 0.6380(4) 0.13755(17)
C2D C -0.35524(13) 0.8022(5) 0.3020(2)
C3D C -0.05881(12) 1.1635(5) 0.5754(2)
C4D C -0.09699(13) 1.1555(5) 0.6005(2)
C5D C -0.16770(12) 1.1548(4) 0.6448(2)
H2D H -0.1915 1.1573 0.6596
C6D C -0.14843(12) 1.0744(5) 0.5439(2)
H3D H -0.1586 1.0170 0.4921
C7D C -0.18515(12) 1.0782(5) 0.5638(2)
C8D C -0.40958(12) 0.7819(5) 0.2704(2)
H4D H -0.4205 0.8240 0.3038
C9D C -0.34190(13) 0.7383(5) 0.2485(2)
H5D H -0.3062 0.7492 0.2668
C10D C -0.38203(13) 0.6583(5) 0.1681(2)
H6D H -0.3724 0.6161 0.1330
C11D C -0.11524(12) 1.2268(5) 0.7028(2)
H7D H -0.1033 1.2714 0.7576
C12D C -0.08038(13) 1.2330(5) 0.6801(2)
H8D H -0.0460 1.2888 0.7179
C13D C -0.31357(12) 0.8858(5) 0.3884(2)
C14D C -0.44675(13) 0.6990(5) 0.1896(2)
H9D H -0.4827 0.6845 0.1700
N4D N -0.27558(10) 0.9961(4) 0.52193(17)
O3D O 0.03633(10) 1.3050(4) 0.54287(16)
H10D H 0.0196(13) 1.343(6) 0.568(2)
H11D H 0.0743(7) 1.310(6) 0.585(2)
Cd1C Cd -0.5000 0.5000 0.0000
Cd1C_2 Cd 0.5000 1.5000 1.0000
N3C N 0.06583(10) 0.8620(4) 0.63755(17)
N3G N -0.06583(10) 1.1380(4) 0.36245(17)
O4 O 0.21807(9) 0.0051(3) 0.67247(15)
H12 H 0.2430(13) 0.025(6) 0.7335(12)
H13 H 0.2363(15) 0.027(6) 0.649(2)
O5 O 0.28865(10) 0.8961(3) 0.34884(15)
H14 H 0.2874(17) 0.761(3) 0.348(3)
H15 H 0.2814(18) 0.938(5) 0.387(2)
O6 O 0.41291(10) 0.1479(4) 0.56387(16)
H16 H 0.4319(12) 0.041(3) 0.568(2)
H17 H 0.4237(17) 0.256(3) 0.550(3)
O7 O 0.14832(10) 0.6841(4) 0.15629(17)
H18 H 0.1682(16) 0.789(4) 0.156(3)
H19 H 0.1622(18) 0.573(3) 0.148(3)
loop_
_geom_bond_atom_site_label_1
_geom_bond_atom_site_label_2
_geom_bond_site_symmetry_1
_geom_bond_site_symmetry_2
C1 N2 1_555 1_555
Cd1 O1 1_555 1_555
O1 C3 1_555 1_555
O2 C3 1_555 1_555
N1 H1 1_555 1_555
N2 C13 1_555 1_555
N3 C10 1_555 1_555
C2 C8 1_555 1_555
C3 C4 1_555 1_555
C4 C6 1_555 1_555
C5 H2 1_555 1_555
C6 H3 1_555 1_555
C7 C1 1_555 1_555
C8 H4 1_555 1_555
C9 C2 1_555 1_555
H5 C9 1_555 1_555
C10 C9 1_555 1_555
H6 C10 1_555 1_555
C11 C5 1_555 1_555
H7 C11 1_555 1_555
C12 C4 1_555 1_555
H8 C12 1_555 1_555
C13 N1 1_555 1_555
C14 N3 1_555 1_555
H9 C14 1_555 1_555
N4 C1 1_555 1_555
O3 Cd1 1_555 1_555
H10 O3 1_555 1_555
H11 O3 1_555 1_555
O4 H12 1_555 1_555
H13 O4 1_555 1_555
O5 H14 1_555 1_555
H15 O5 1_555 1_555
O6 H16 1_555 1_555
H17 O6 1_555 1_555
O7 H18 1_555 1_555
H19 O7 1_555 1_555
C1D N2D 1_555 1_555
O1D Cd1 1_555 1_555
O2D C3D 1_555 1_555
N1D H1D 1_555 1_555
N2D C13D 1_555 1_555
N3D C10D 1_555 1_555
C2D C8D 1_555 1_555
C3D O1D 1_555 1_555
C4D C3D 1_555 1_555
C5D H2D 1_555 1_555
C6D C4D 1_555 1_555
H3D C6D 1_555 1_555
C7D C1D 1_555 1_555
C8D H4D 1_555 1_555
C9D C2D 1_555 1_555
H5D C9D 1_555 1_555
C10D C9D 1_555 1_555
H6D C10D 1_555 1_555
C11D C5D 1_555 1_555
H7D C11D 1_555 1_555
C12D C4D 1_555 1_555
H8D C12D 1_555 1_555
C13D N1D 1_555 1_555
C14D N3D 1_555 1_555
H9D C14D 1_555 1_555
N4D C1D 1_555 1_555
O3D Cd1 1_555 1_555
H10D O3D 1_555 1_555
H11D O3D 1_555 1_555
Cd1C N3D 1_555 1_555
Cd1C_2 N3 1_555 1_555
N3C Cd1 1_555 1_555
N3G Cd1 1_555 1_555
N1 N4 1_555 1_555
C2 C13 1_555 1_555
C5 C7 1_555 1_555
C6 C7 1_555 1_555
C8 C14 1_555 1_555
C11 C12 1_555 1_555
N1D N4D 1_555 1_555
C2D C13D 1_555 1_555
C5D C7D 1_555 1_555
C6D C7D 1_555 1_555
C8D C14D 1_555 1_555
C11D C12D 1_555 1_555

#END
