
#######################################################################
#
#                 Cambridge Crystallographic Data Centre
#                                CCDC 
#
#######################################################################
#
# If this CIF has been generated from an entry in the Cambridge 
# Structural Database, then it will include bibliographic, chemical, 
# crystal, experimental, refinement or atomic coordinate data resulting 
# from the CCDC's data processing and validation procedures.
#
#######################################################################

data_VIQCOP
_symmetry_cell_setting           tetragonal
_symmetry_space_group_name_H-M   'P 41 2 2'
_symmetry_Int_Tables_number      91
_space_group_name_Hall           'P 4w 2c'
loop_
_symmetry_equiv_pos_site_id
_symmetry_equiv_pos_as_xyz
1 x,y,z
2 -x,-y,1/2+z
3 -y,x,1/4+z
4 y,-x,3/4+z
5 -x,y,-z
6 x,-y,1/2-z
7 y,x,3/4-z
8 -y,-x,1/4-z
_cell_length_a                   10.0386(2)
_cell_length_b                   10.0386(2)
_cell_length_c                   26.4595(8)
_cell_angle_alpha                90
_cell_angle_beta                 90
_cell_angle_gamma                90
_cell_volume                     2666.42
loop_
_atom_site_label
_atom_site_type_symbol
_atom_site_fract_x
_atom_site_fract_y
_atom_site_fract_z
C1 C 0.1394(3) 0.6978(3) 0.05252(11)
Zn1 Zn 0.0000 0.88346(5) 0.0000
C2 C 0.8002(4) 0.1025(4) 0.01321(12)
H1 H 0.8262 0.1290 -0.0190
O1 O 0.1950(3) 0.6772(3) 0.01165(7)
N1 N 0.8605(3) -0.0010(3) 0.03385(9)
N2 N 0.4815(3) 0.3061(3) 0.09521(9)
O2 O 0.0562(2) 0.7896(2) 0.06022(7)
C3 C 0.3020(3) 0.4393(3) 0.13684(11)
C4 C 0.1712(3) 0.6114(3) 0.09746(10)
N3 N 0.4355(3) 0.2582(3) 0.17342(10)
H2 H 0.3976 0.2619 0.2025
C5 C 0.6619(3) 0.1348(3) 0.08583(12)
C6 C 0.1060(3) 0.6358(3) 0.14297(10)
H3 H 0.0405 0.7012 0.1449
C7 C 0.1393(4) 0.5620(4) 0.18524(11)
H4 H 0.0955 0.5774 0.2157
C8 C 0.7006(4) 0.1733(4) 0.03707(11)
H5 H 0.6599 0.2451 0.0211
C9 C 0.7252(4) 0.0273(4) 0.10710(12)
H6 H 0.7019 -0.0011 0.1394
N4 N 0.5331(3) 0.1731(3) 0.16131(10)
C10 C 0.2674(3) 0.5135(4) 0.09423(11)
H7 H 0.3094 0.4970 0.0635
C11 C 0.4048(3) 0.3362(3) 0.13443(11)
C12 C 0.8227(4) -0.0378(4) 0.08068(12)
H8 H 0.8645 -0.1104 0.0957
C13 C 0.2374(3) 0.4656(3) 0.18249(11)
H9 H 0.2605 0.4178 0.2113
C14 C 0.5587(3) 0.2056(3) 0.11343(11)
C1D C -0.1394(3) 0.6978(3) -0.05252(11)
C2D C -0.8002(4) 0.1025(4) -0.01321(12)
H1D H -0.8262 0.1290 0.0190
O1D O -0.1950(3) 0.6772(3) -0.01165(7)
N1D N -0.8605(3) -0.0010(3) -0.03385(9)
N2D N -0.4815(3) 0.3061(3) -0.09521(9)
O2D O -0.0562(2) 0.7896(2) -0.06022(7)
C3D C -0.3020(3) 0.4393(3) -0.13684(11)
C4D C -0.1712(3) 0.6114(3) -0.09746(10)
N3D N -0.4355(3) 0.2582(3) -0.17342(10)
H2D H -0.3976 0.2619 -0.2025
C5D C -0.6619(3) 0.1348(3) -0.08583(12)
C6D C -0.1060(3) 0.6358(3) -0.14297(10)
H3D H -0.0405 0.7012 -0.1449
C7D C -0.1393(4) 0.5620(4) -0.18524(11)
H4D H -0.0955 0.5774 -0.2157
C8D C -0.7006(4) 0.1733(4) -0.03707(11)
H5D H -0.6599 0.2451 -0.0211
C9D C -0.7252(4) 0.0273(4) -0.10710(12)
H6D H -0.7019 -0.0011 -0.1394
N4D N -0.5331(3) 0.1731(3) -0.16131(10)
C10D C -0.2674(3) 0.5135(4) -0.09423(11)
H7D H -0.3094 0.4970 -0.0635
C11D C -0.4048(3) 0.3362(3) -0.13443(11)
C12D C -0.8227(4) -0.0378(4) -0.08068(12)
H8D H -0.8645 -0.1104 -0.0957
C13D C -0.2374(3) 0.4656(3) -0.18249(11)
H9D H -0.2605 0.4178 -0.2113
C14D C -0.5587(3) 0.2056(3) -0.11343(11)
Zn1_2 Zn -1.0000 -0.11654(5) 0.0000
Zn1_3 Zn 1.0000 -0.11654(5) 0.0000
N1_2 N -0.1395(3) 0.9990(3) 0.03385(9)
N1D_2 N 0.1395(3) 0.9990(3) -0.03385(9)
O3 O 0.6500(4) 1.0000 0.2500
O4 O 0.5000 0.4629(5) 0.0000
loop_
_geom_bond_atom_site_label_1
_geom_bond_atom_site_label_2
_geom_bond_site_symmetry_1
_geom_bond_site_symmetry_2
C1 O1 1_555 1_555
Zn1 O2 1_555 1_555
C2 H1 1_555 1_555
N1 C2 1_555 1_555
N2 C11 1_555 1_555
O2 C1 1_555 1_555
C3 C10 1_555 1_555
C4 C1 1_555 1_555
N3 H2 1_555 1_555
C5 C8 1_555 1_555
C6 C4 1_555 1_555
H3 C6 1_555 1_555
C7 C6 1_555 1_555
H4 C7 1_555 1_555
C8 C2 1_555 1_555
H5 C8 1_555 1_555
C9 C5 1_555 1_555
H6 C9 1_555 1_555
N4 N3 1_555 1_555
C10 C4 1_555 1_555
H7 C10 1_555 1_555
C11 C3 1_555 1_555
C12 N1 1_555 1_555
H8 C12 1_555 1_555
C13 C3 1_555 1_555
H9 C13 1_555 1_555
C14 N2 1_555 1_555
C1D O1D 1_555 1_555
C2D H1D 1_555 1_555
N1D C2D 1_555 1_555
N2D C11D 1_555 1_555
O2D Zn1 1_555 1_555
C3D C10D 1_555 1_555
C4D C1D 1_555 1_555
N3D H2D 1_555 1_555
C5D C8D 1_555 1_555
C6D C4D 1_555 1_555
H3D C6D 1_555 1_555
C7D C6D 1_555 1_555
H4D C7D 1_555 1_555
C8D C2D 1_555 1_555
H5D C8D 1_555 1_555
C9D C5D 1_555 1_555
H6D C9D 1_555 1_555
N4D N3D 1_555 1_555
C10D C4D 1_555 1_555
H7D C10D 1_555 1_555
C11D C3D 1_555 1_555
C12D N1D 1_555 1_555
H8D C12D 1_555 1_555
C13D C3D 1_555 1_555
H9D C13D 1_555 1_555
C14D N2D 1_555 1_555
Zn1_2 N1D 1_555 1_555
Zn1_3 N1 1_555 1_555
N1_2 Zn1 1_555 1_555
N1D_2 Zn1 1_555 1_555
N3 C11 1_555 1_555
C5 C14 1_555 1_555
C7 C13 1_555 1_555
C9 C12 1_555 1_555
N4 C14 1_555 1_555
C1D O2D 1_555 1_555
N3D C11D 1_555 1_555
C5D C14D 1_555 1_555
C7D C13D 1_555 1_555
C9D C12D 1_555 1_555
N4D C14D 1_555 1_555

#END
