
#######################################################################
#
#                 Cambridge Crystallographic Data Centre
#                                CCDC 
#
#######################################################################
#
# If this CIF has been generated from an entry in the Cambridge 
# Structural Database, then it will include bibliographic, chemical, 
# crystal, experimental, refinement or atomic coordinate data resulting 
# from the CCDC's data processing and validation procedures.
#
#######################################################################

data_VIQCAA
_symmetry_cell_setting           triclinic
_symmetry_space_group_name_H-M   'P -1'
_symmetry_Int_Tables_number      2
_space_group_name_Hall           '-P 1'
loop_
_symmetry_equiv_pos_site_id
_symmetry_equiv_pos_as_xyz
1 x,y,z
2 -x,-y,-z
_cell_length_a                   6.981(4)
_cell_length_b                   9.485(9)
_cell_length_c                   9.80(1)
_cell_angle_alpha                111.69(8)
_cell_angle_beta                 91.74(6)
_cell_angle_gamma                97.42(6)
_cell_volume                     595.76
loop_
_atom_site_label
_atom_site_type_symbol
_atom_site_fract_x
_atom_site_fract_y
_atom_site_fract_z
O1 O 0.0965(3) 0.2362(2) 0.4646(2)
H1 H 0.0413 0.2321 0.3878
H2 H 0.0891 0.3267 0.5242
O2 O 0.2137(3) -0.1077(2) 0.32722(18)
O3 O 0.4979(3) -0.2469(2) 0.5155(2)
H3 H 0.4462 -0.3140 0.4386
H4 H 0.6194 -0.2415 0.5338
H7 H 0.1930 -0.2006 0.3201
H8 H 0.1894 -0.1071 0.2417
Na1 Na 0.5000 0.0000 0.5000
Na2 Na 0.0000 0.0000 0.5000
N1 N 0.2392(3) 0.1009(2) 0.9320(2)
N2 N 0.3042(3) -0.1393(2) 0.7834(2)
O5 O 0.2830(3) 0.0462(2) 0.6883(2)
N3 N 0.2518(3) -0.0823(2) 1.0411(2)
N4 N 0.1877(3) 0.1762(2) 1.1636(2)
N5 N 0.2078(3) 0.2496(2) 0.9720(2)
N6 N 0.3065(3) -0.3216(2) 0.8873(2)
C1 C 0.2861(3) -0.1769(3) 0.9043(3)
C2 C 0.2274(3) 0.0565(3) 1.0474(3)
C3 C 0.2780(3) -0.0009(3) 0.7900(2)
N7 N 0.1795(3) 0.2904(2) 1.1098(2)
C4 C 0.2853(5) -0.3721(3) 1.0098(3)
H9 H 0.3051 -0.4773 0.9787
H10 H 0.1573 -0.3629 1.0418
H11 H 0.3793 -0.3095 1.0897
C5 C 0.3306(4) -0.4345(3) 0.7443(3)
H12 H 0.3432 -0.5303 0.7534
H13 H 0.4450 -0.3999 0.7066
H14 H 0.2196 -0.4484 0.6778
O1A O -0.0965(3) -0.2362(2) 0.5354(2)
H1A H -0.0413 -0.2321 0.6122
H2A H -0.0891 -0.3267 0.4758
O2A O 0.7863(3) 0.1077(2) 0.67278(18)
O2A_2 O -0.2137(3) 0.1077(2) 0.67278(18)
O3A O 0.5021(3) 0.2469(2) 0.4845(2)
H3A H 0.5538 0.3140 0.5614
H4A H 0.3806 0.2415 0.4662
H7A H 0.8070 0.2006 0.6799
H7A_2 H -0.1930 0.2006 0.6799
H8A H 0.8106 0.1071 0.7583
H8A_2 H -0.1894 0.1071 0.7583
Na2_2 Na 1.0000 0.0000 0.5000
N1A N 0.7608(3) -0.1009(2) 0.0680(2)
N2A N 0.6958(3) 0.1393(2) 0.2166(2)
O5A O 0.7170(3) -0.0462(2) 0.3117(2)
O5A_2 O -0.2830(3) -0.0462(2) 0.3117(2)
N3A N 0.7482(3) 0.0823(2) -0.0411(2)
N4A N 0.8123(3) -0.1762(2) -0.1636(2)
N5A N 0.7922(3) -0.2496(2) 0.0280(2)
N6A N 0.6935(3) 0.3216(2) 0.1127(2)
C1A C 0.7139(3) 0.1769(3) 0.0957(3)
C2A C 0.7726(3) -0.0565(3) -0.0474(3)
C3A C 0.7220(3) 0.0009(3) 0.2100(2)
N7A N 0.8205(3) -0.2904(2) -0.1098(2)
C4A C 0.7147(5) 0.3721(3) -0.0098(3)
H9A H 0.6949 0.4773 0.0213
H10A H 0.8427 0.3629 -0.0418
H11A H 0.6207 0.3095 -0.0897
C5A C 0.6694(4) 0.4345(3) 0.2557(3)
H12A H 0.6568 0.5303 0.2466
H13A H 0.5550 0.3999 0.2934
H14A H 0.7804 0.4484 0.3222
O4 O 0.1635(3) -0.4075(2) 0.3436(2)
H5 H 0.1708 -0.3916 0.2632
H6 H 0.1310 -0.3282 0.4078
loop_
_geom_bond_atom_site_label_1
_geom_bond_atom_site_label_2
_geom_bond_site_symmetry_1
_geom_bond_site_symmetry_2
O1 H1 1_555 1_555
H2 O1 1_555 1_555
O2 H7 1_555 1_555
O3 H3 1_555 1_555
H4 O3 1_555 1_555
O4 H5 1_555 1_555
H6 O4 1_555 1_555
H8 O2 1_555 1_555
Na1 O2 1_555 1_555
Na2 O1 1_555 1_555
N1 N5 1_555 1_555
N2 C1 1_555 1_555
O5 Na1 1_555 1_555
N3 C1 1_555 1_555
N4 C2 1_555 1_555
N5 N7 1_555 1_555
N6 C1 1_555 1_555
C2 N1 1_555 1_555
C3 N1 1_555 1_555
N7 N4 1_555 1_555
C4 N6 1_555 1_555
H9 C4 1_555 1_555
H10 C4 1_555 1_555
H11 C4 1_555 1_555
C5 N6 1_555 1_555
H12 C5 1_555 1_555
H13 C5 1_555 1_555
H14 C5 1_555 1_555
O1A Na2 1_555 1_555
H1A O1A 1_555 1_555
H2A O1A 1_555 1_555
O2A Na1 1_555 1_555
O2A_2 Na2 1_555 1_555
O3A Na1 1_555 1_555
H3A O3A 1_555 1_555
H4A O3A 1_555 1_555
H7A O2A 1_555 1_555
H7A_2 O2A_2 1_555 1_555
H8A O2A 1_555 1_555
H8A_2 O2A_2 1_555 1_555
Na2_2 O2A 1_555 1_555
N1A N5A 1_555 1_555
N2A C1A 1_555 1_555
O5A Na1 1_555 1_555
O5A_2 Na2 1_555 1_555
N3A C1A 1_555 1_555
N4A C2A 1_555 1_555
N5A N7A 1_555 1_555
N6A C1A 1_555 1_555
C2A N1A 1_555 1_555
C3A N1A 1_555 1_555
N7A N4A 1_555 1_555
C4A N6A 1_555 1_555
H9A C4A 1_555 1_555
H10A C4A 1_555 1_555
H11A C4A 1_555 1_555
C5A N6A 1_555 1_555
H12A C5A 1_555 1_555
H13A C5A 1_555 1_555
H14A C5A 1_555 1_555
O2 Na2 1_555 1_555
O3 Na1 1_555 1_555
Na2 O5 1_555 1_555
N2 C3 1_555 1_555
O5 C3 1_555 1_555
N3 C2 1_555 1_555
Na2_2 O5A 1_555 1_555
N2A C3A 1_555 1_555
O5A C3A 1_555 1_555
N3A C2A 1_555 1_555

#END
