
#######################################################################
#
#                 Cambridge Crystallographic Data Centre
#                                CCDC 
#
#######################################################################
#
# If this CIF has been generated from an entry in the Cambridge 
# Structural Database, then it will include bibliographic, chemical, 
# crystal, experimental, refinement or atomic coordinate data resulting 
# from the CCDC's data processing and validation procedures.
#
#######################################################################

data_VIQDEG
_symmetry_cell_setting           monoclinic
_symmetry_space_group_name_H-M   'P 21/c'
_symmetry_Int_Tables_number      14
_space_group_name_Hall           '-P 2ybc'
loop_
_symmetry_equiv_pos_site_id
_symmetry_equiv_pos_as_xyz
1 x,y,z
2 -x,1/2+y,1/2-z
3 -x,-y,-z
4 x,1/2-y,1/2+z
_cell_length_a                   12.9802(6)
_cell_length_b                   13.9605(6)
_cell_length_c                   15.0889(6)
_cell_angle_alpha                90
_cell_angle_beta                 102.463(4)
_cell_angle_gamma                90
_cell_volume                     2669.83
loop_
_atom_site_label
_atom_site_type_symbol
_atom_site_fract_x
_atom_site_fract_y
_atom_site_fract_z
Ni1 Ni 0.21211(3) 0.51267(3) 0.54849(2)
O1 O 0.08454(15) 0.60128(15) 0.58063(12)
O2 O 0.20078(15) 0.52516(15) 0.68333(12)
O3 O 0.10532(16) 0.40036(15) 0.53877(13)
O4 O 0.33809(15) 0.42241(14) 0.57388(13)
O5 O 0.25886(17) 0.28345(16) 0.53165(16)
N1 N 0.46044(18) -0.02857(17) 0.60661(16)
N2 N 0.59747(19) -0.11806(17) 0.68113(16)
N3 N 0.61995(19) -0.02317(17) 0.68996(17)
H1 H 0.6782 0.0004 0.7203
N4 N 0.1681(2) 0.48216(19) 0.99518(16)
H2 H 0.1846 0.4508 0.9512
N5 N 0.1996(2) 0.45905(19) 1.08407(16)
N6 N 0.09574(19) 0.59161(18) 1.06584(15)
N7 N 0.19161(19) 0.52035(17) 1.40963(16)
C1 C 0.3338(2) -0.1993(2) 0.5595(2)
H3 H 0.3040 -0.1402 0.5405
N8 N 0.31275(18) -0.36900(17) 0.56667(15)
C2 C 0.3379(2) 0.3326(2) 0.56712(19)
C3 C 0.4411(2) 0.2812(2) 0.60269(19)
C4 C 0.5335(2) 0.3321(2) 0.63302(19)
H4 H 0.5323 0.3987 0.6312
C5 C 0.6276(2) 0.2849(2) 0.6660(2)
H5 H 0.6894 0.3198 0.6855
C6 C 0.6298(2) 0.1863(2) 0.6701(2)
H6 H 0.6930 0.1547 0.6929
C7 C 0.5374(2) 0.1339(2) 0.64005(19)
C8 C 0.4432(2) 0.1817(2) 0.60639(19)
H7 H 0.3813 0.1471 0.5863
C9 C 0.5383(2) 0.0287(2) 0.64449(18)
C10 C 0.5000(2) -0.1176(2) 0.63003(18)
C11 C 0.4386(2) -0.2052(2) 0.60557(18)
C12 C 0.4789(2) -0.2951(2) 0.6300(2)
H8 H 0.5489 -0.3023 0.6602
C13 C 0.1203(2) 0.5788(2) 0.66281(18)
C14 C 0.0704(2) 0.6137(2) 0.73728(19)
C15 C -0.0073(2) 0.6831(2) 0.7245(2)
H9 H -0.0325 0.7088 0.6671
C16 C -0.0476(3) 0.7145(2) 0.7976(2)
H10 H -0.0999 0.7612 0.7891
C17 C -0.0096(3) 0.6761(2) 0.8836(2)
H11 H -0.0356 0.6983 0.9326
C18 C 0.0663(2) 0.6051(2) 0.89652(19)
C19 C 0.1062(2) 0.5742(2) 0.82279(18)
H12 H 0.1575 0.5266 0.8310
C20 C 0.1080(2) 0.5605(2) 0.98557(19)
C21 C 0.1541(2) 0.5267(2) 1.12307(19)
C22 C 0.2574(3) 0.4735(2) 1.3686(2)
H13 H 0.3124 0.4389 1.4040
C23 C 0.2478(2) 0.4741(2) 1.2761(2)
H14 H 0.2947 0.4395 1.2499
C24 C 0.1672(2) 0.5270(2) 1.22215(19)
C25 C 0.0995(2) 0.5773(2) 1.26501(19)
H15 H 0.0454 0.6144 1.2314
C26 C 0.1136(2) 0.5713(2) 1.35800(19)
H16 H 0.0671 0.6041 1.3862
C27 C 0.2748(2) -0.2816(2) 0.5424(2)
H17 H 0.2046 -0.2761 0.5122
C28 C 0.4144(2) -0.3746(2) 0.6095(2)
H18 H 0.4430 -0.4347 0.6261
H19 H 0.047(2) 0.403(3) 0.489(2)
H20 H 0.146(3) 0.348(2) 0.526(2)
Ni1_2 Ni 0.21211(3) -0.48733(3) 0.54849(2)
Ni1_3 Ni 0.21211(3) 0.51267(3) 1.54849(2)
N7_2 N 0.19161(19) 0.52035(17) 0.40963(16)
N8_2 N 0.31275(18) 0.63100(17) 0.56667(15)
O6 O 0.78972(19) 0.83607(18) 0.61525(16)
H21 H 0.783(3) 0.788(2) 0.571(2)
H22 H 0.729(2) 0.833(3) 0.641(2)
loop_
_geom_bond_atom_site_label_1
_geom_bond_atom_site_label_2
_geom_bond_site_symmetry_1
_geom_bond_site_symmetry_2
Ni1 O1 1_555 1_555
O1 C13 1_555 1_555
O2 Ni1 1_555 1_555
O3 Ni1 1_555 1_555
O4 Ni1 1_555 1_555
O5 C2 1_555 1_555
N1 C9 1_555 1_555
N2 N3 1_555 1_555
N3 H1 1_555 1_555
N4 H2 1_555 1_555
N5 N4 1_555 1_555
N6 C20 1_555 1_555
N7 C22 1_555 1_555
C1 H3 1_555 1_555
N8 C27 1_555 1_555
C2 O4 1_555 1_555
C3 C2 1_555 1_555
C4 C3 1_555 1_555
H4 C4 1_555 1_555
C5 C4 1_555 1_555
H5 C5 1_555 1_555
C6 C5 1_555 1_555
H6 C6 1_555 1_555
C7 C6 1_555 1_555
C8 C3 1_555 1_555
H7 C8 1_555 1_555
C9 N3 1_555 1_555
C10 N1 1_555 1_555
C11 C1 1_555 1_555
C12 C11 1_555 1_555
H8 C12 1_555 1_555
C13 O2 1_555 1_555
C14 C13 1_555 1_555
C15 C14 1_555 1_555
H9 C15 1_555 1_555
C16 C15 1_555 1_555
H10 C16 1_555 1_555
C17 C16 1_555 1_555
H11 C17 1_555 1_555
C18 C17 1_555 1_555
C19 C14 1_555 1_555
H12 C19 1_555 1_555
C20 N4 1_555 1_555
C21 N5 1_555 1_555
C22 H13 1_555 1_555
C23 C22 1_555 1_555
H14 C23 1_555 1_555
C24 C21 1_555 1_555
C25 C24 1_555 1_555
H15 C25 1_555 1_555
C26 N7 1_555 1_555
H16 C26 1_555 1_555
C27 C1 1_555 1_555
H17 C27 1_555 1_555
C28 N8 1_555 1_555
H18 C28 1_555 1_555
H19 O3 1_555 1_555
H20 O3 1_555 1_555
O6 H21 1_555 1_555
H22 O6 1_555 1_555
Ni1_2 N8 1_555 1_555
Ni1_3 N7 1_555 1_555
N7_2 Ni1 1_555 1_555
N8_2 Ni1 1_555 1_555
N2 C10 1_555 1_555
N6 C21 1_555 1_555
C7 C8 1_555 1_555
C7 C9 1_555 1_555
C10 C11 1_555 1_555
C12 C28 1_555 1_555
C18 C19 1_555 1_555
C18 C20 1_555 1_555
C23 C24 1_555 1_555
C25 C26 1_555 1_555

#END
