
#######################################################################
#
#                 Cambridge Crystallographic Data Centre
#                                CCDC 
#
#######################################################################
#
# If this CIF has been generated from an entry in the Cambridge 
# Structural Database, then it will include bibliographic, chemical, 
# crystal, experimental, refinement or atomic coordinate data resulting 
# from the CCDC's data processing and validation procedures.
#
#######################################################################

data_VIQDAC
_symmetry_cell_setting           monoclinic
_symmetry_space_group_name_H-M   'P 21/c'
_symmetry_Int_Tables_number      14
_space_group_name_Hall           '-P 2ybc'
loop_
_symmetry_equiv_pos_site_id
_symmetry_equiv_pos_as_xyz
1 x,y,z
2 -x,1/2+y,1/2-z
3 -x,-y,-z
4 x,1/2-y,1/2+z
_cell_length_a                   13.1742(4)
_cell_length_b                   14.0167(4)
_cell_length_c                   15.1557(5)
_cell_angle_alpha                90
_cell_angle_beta                 103.318(3)
_cell_angle_gamma                90
_cell_volume                     2723.37
loop_
_atom_site_label
_atom_site_type_symbol
_atom_site_fract_x
_atom_site_fract_y
_atom_site_fract_z
Co1 Co 0.21329(2) 0.51222(2) 0.55073(2)
O1 O 0.20046(13) 0.52842(13) -0.31445(11)
O2 O 0.08337(13) 0.60175(12) -0.41741(11)
O3 O 0.10573(13) 0.39800(13) 0.53840(12)
O4 O 0.33810(13) 0.42092(11) 0.57875(12)
O5 O 0.26077(15) 0.28324(13) 0.53431(17)
N1 N 0.31499(15) -0.36638(14) 0.56836(13)
N2 N 0.19051(17) 0.52085(14) 0.40926(14)
N3 N 0.16792(18) 0.48237(16) -0.00323(14)
H1 H 0.1846 0.4512 -0.0467
N4 N 0.46064(15) -0.02787(14) 0.60684(15)
N5 N 0.61996(16) -0.02221(14) 0.68694(15)
H2 H 0.6785 0.0011 0.7161
N6 N 0.59762(16) -0.11646(14) 0.67808(15)
C1 C 0.4167(2) -0.37169(18) 0.60701(19)
H3 H 0.4461 -0.4316 0.6214
C2 C 0.1536(2) 0.52622(19) 0.12372(17)
C3 C 0.11958(18) 0.57991(17) -0.33547(16)
C4 C 0.4802(2) -0.29290(18) 0.6266(2)
H4 H 0.5505 -0.3002 0.6542
C5 C 0.6275(2) 0.18645(19) 0.6699(2)
H5 H 0.6905 0.1550 0.6915
C6 C 0.53808(18) 0.02952(17) 0.64400(17)
C7 C 0.1148(2) 0.57264(19) 0.35656(17)
H6 H 0.0696 0.6065 0.3838
C8 C 0.43941(18) -0.20324(17) 0.60530(17)
C9 C 0.3350(2) -0.19769(18) 0.5641(2)
H7 H 0.3042 -0.1387 0.5476
C10 C 0.53651(18) 0.13429(16) 0.64064(17)
C11 C 0.6250(2) 0.28463(19) 0.6671(2)
H8 H 0.6862 0.3194 0.6864
C12 C 0.1662(2) 0.52726(18) 0.22193(16)
C13 C -0.0080(2) 0.67483(19) -0.11664(19)
H9 H -0.0340 0.6964 -0.0682
C14 C 0.06812(19) 0.60459(18) -0.10312(16)
C15 C 0.10825(19) 0.56053(18) -0.01417(16)
C16 C 0.10679(18) 0.57491(18) -0.17561(16)
H10 H 0.1578 0.5277 -0.1669
C17 C -0.0058(2) 0.68283(19) -0.27439(18)
H11 H -0.0311 0.7090 -0.3316
C18 C -0.0452(2) 0.7129(2) -0.20232(19)
H12 H -0.0973 0.7591 -0.2113
C19 C 0.44319(19) 0.18183(17) 0.60836(17)
H13 H 0.3820 0.1472 0.5884
C20 C 0.1010(2) 0.57795(19) 0.26368(17)
H14 H 0.0480 0.6155 0.2295
C21 C 0.2448(2) 0.4740(2) 0.27683(19)
H15 H 0.2909 0.4389 0.2516
C22 C 0.2537(2) 0.4737(2) 0.36843(18)
H16 H 0.3074 0.4382 0.4042
C23 C 0.2764(2) -0.27943(19) 0.5474(2)
H17 H 0.2059 -0.2738 0.5198
C24 C 0.07126(18) 0.61402(17) -0.26176(16)
C25 C 0.3384(2) 0.33174(18) 0.57050(18)
C26 C 0.44036(19) 0.28069(17) 0.60556(17)
N7 N 0.09636(16) 0.59090(15) 0.06569(13)
N8 N 0.19829(18) 0.45920(17) 0.08513(15)
C27 C 0.5317(2) 0.33114(18) 0.63568(19)
H18 H 0.5302 0.3975 0.6347
C28 C 0.50073(18) -0.11598(17) 0.62911(17)
H19 H 0.144(2) 0.345(2) 0.526(2)
H20 H 0.0465(19) 0.400(2) 0.492(2)
Co1_2 Co 0.21329(2) -0.48778(2) 0.55073(2)
Co1_3 Co 0.21329(2) 0.51222(2) -0.44927(2)
O1_2 O 0.20046(13) 0.52842(13) 0.68555(11)
O2_2 O 0.08337(13) 0.60175(12) 0.58259(11)
N1_2 N 0.31499(15) 0.63362(14) 0.56836(13)
O6 O 0.21134(18) 0.33615(16) 0.88707(16)
H21 H 0.222(3) 0.293(2) 0.9346(19)
H22 H 0.271(2) 0.339(3) 0.863(2)
loop_
_geom_bond_atom_site_label_1
_geom_bond_atom_site_label_2
_geom_bond_site_symmetry_1
_geom_bond_site_symmetry_2
Co1 O3 1_555 1_555
O1 C3 1_555 1_555
O2 C3 1_555 1_555
O3 H19 1_555 1_555
O4 Co1 1_555 1_555
O5 C25 1_555 1_555
N1 C1 1_555 1_555
N2 Co1 1_555 1_555
N3 H1 1_555 1_555
N4 C6 1_555 1_555
N5 H2 1_555 1_555
N6 N5 1_555 1_555
C1 H3 1_555 1_555
C2 C12 1_555 1_555
C3 C24 1_555 1_555
C4 C1 1_555 1_555
H4 C4 1_555 1_555
C5 H5 1_555 1_555
C6 N5 1_555 1_555
C7 N2 1_555 1_555
H6 C7 1_555 1_555
C8 C4 1_555 1_555
C9 C8 1_555 1_555
H7 C9 1_555 1_555
C10 C5 1_555 1_555
C11 C5 1_555 1_555
H8 C11 1_555 1_555
C12 C20 1_555 1_555
C13 H9 1_555 1_555
C14 C13 1_555 1_555
C15 N3 1_555 1_555
C16 C14 1_555 1_555
H10 C16 1_555 1_555
C17 H11 1_555 1_555
C18 C13 1_555 1_555
H12 C18 1_555 1_555
C19 C10 1_555 1_555
H13 C19 1_555 1_555
C20 C7 1_555 1_555
H14 C20 1_555 1_555
C21 C12 1_555 1_555
H15 C21 1_555 1_555
C22 N2 1_555 1_555
H16 C22 1_555 1_555
C23 N1 1_555 1_555
H17 C23 1_555 1_555
C24 C16 1_555 1_555
C25 O4 1_555 1_555
C26 C19 1_555 1_555
N7 C2 1_555 1_555
N8 N3 1_555 1_555
C27 C11 1_555 1_555
H18 C27 1_555 1_555
C28 N4 1_555 1_555
H20 O3 1_555 1_555
O6 H21 1_555 1_555
H22 O6 1_555 1_555
Co1_2 N1 1_555 1_555
Co1_3 O1 1_555 1_555
O1_2 Co1 1_555 1_555
O2_2 Co1 1_555 1_555
N1_2 Co1 1_555 1_555
O2 Co1_3 1_555 1_555
N6 C28 1_555 1_555
C2 N8 1_555 1_555
C6 C10 1_555 1_555
C8 C28 1_555 1_555
C9 C23 1_555 1_555
C14 C15 1_555 1_555
C15 N7 1_555 1_555
C17 C18 1_555 1_555
C17 C24 1_555 1_555
C21 C22 1_555 1_555
C25 C26 1_555 1_555
C26 C27 1_555 1_555

#END
