
#######################################################################
#
#                 Cambridge Crystallographic Data Centre
#                                CCDC 
#
#######################################################################
#
# If this CIF has been generated from an entry in the Cambridge 
# Structural Database, then it will include bibliographic, chemical, 
# crystal, experimental, refinement or atomic coordinate data resulting 
# from the CCDC's data processing and validation procedures.
#
#######################################################################

data_VIQKIQ
_symmetry_cell_setting           monoclinic
_symmetry_space_group_name_H-M   'P 21/n'
_symmetry_Int_Tables_number      14
_space_group_name_Hall           '-P 2yn'
loop_
_symmetry_equiv_pos_site_id
_symmetry_equiv_pos_as_xyz
1 x,y,z
2 1/2-x,1/2+y,1/2-z
3 -x,-y,-z
4 1/2+x,1/2-y,1/2+z
_cell_length_a                   5.8092(12)
_cell_length_b                   14.635(3)
_cell_length_c                   27.600(6)
_cell_angle_alpha                90
_cell_angle_beta                 91.87(3)
_cell_angle_gamma                90
_cell_volume                     2345.24
loop_
_atom_site_label
_atom_site_type_symbol
_atom_site_fract_x
_atom_site_fract_y
_atom_site_fract_z
C1 C 0.4790(4) 0.12450(17) -0.00903(8)
H1 H 0.4997 0.1093 0.0235
C2 C 0.6371(4) 0.09219(17) -0.04221(9)
H2 H 0.7596 0.0554 -0.0318
C3 C 0.6096(4) 0.11542(17) -0.09034(9)
H3 H 0.7119 0.0938 -0.1129
C4 C 0.4259(4) 0.17202(15) -0.10503(7)
C5 C 0.2744(4) 0.20030(15) -0.06972(7)
C6 C 0.0836(4) 0.25939(15) -0.08175(7)
C7 C -0.2261(4) 0.33950(17) -0.05277(8)
H4 H -0.3182 0.3559 -0.0272
C8 C -0.2754(4) 0.37489(18) -0.09876(9)
H5 H -0.3974 0.4154 -0.1035
C9 C -0.1446(4) 0.35019(17) -0.13711(8)
H6 H -0.1790 0.3726 -0.1680
C10 C 0.0412(4) 0.29078(15) -0.12899(7)
C11 C 0.1980(4) 0.26118(16) -0.16618(7)
C12 C 0.3847(4) 0.20461(16) -0.15441(7)
C13 C 0.4951(6) 0.2109(2) -0.23221(10)
H7 H 0.5960 0.1955 -0.2564
C14 C 0.3086(6) 0.2657(2) -0.24421(9)
H8 H 0.2875 0.2849 -0.2762
C15 C -0.1443(4) 0.3508(2) 0.07387(8)
C16 C -0.2925(4) 0.38171(17) 0.11430(7)
C17 C -0.2267(4) 0.45479(18) 0.14310(9)
H9 H -0.0891 0.4848 0.1374
C18 C -0.3623(4) 0.48415(17) 0.18046(8)
H10 H -0.3158 0.5330 0.2000
C19 C -0.5678(4) 0.43965(17) 0.18814(7)
C20 C -0.6358(4) 0.36678(18) 0.15973(8)
H11 H -0.7745 0.3374 0.1652
C21 C -0.4979(4) 0.33725(18) 0.12300(8)
H12 H -0.5429 0.2874 0.1041
C22 C -0.4232(4) 0.51097(18) 0.33805(8)
H13 H -0.2904 0.4936 0.3554
C23 C -0.5780(4) 0.56945(16) 0.35915(7)
C24 C -0.5366(4) 0.60147(17) 0.41048(7)
C25 C -0.7731(4) 0.59633(18) 0.33245(8)
H14 H -0.8773 0.6364 0.3460
C26 C -0.8138(4) 0.5641(2) 0.28603(8)
H15 H -0.9448 0.5823 0.2683
C27 C -0.6593(4) 0.50457(17) 0.26594(7)
C28 C -0.4628(4) 0.47786(18) 0.29149(8)
H16 H -0.3584 0.4382 0.2777
N1 N 0.3008(3) 0.17603(13) -0.02252(6)
N2 N -0.0514(3) 0.28303(13) -0.04452(6)
N3 N 0.5371(4) 0.17933(17) -0.18796(7)
N4 N 0.1586(4) 0.29205(16) -0.21202(7)
O1 O -0.2016(3) 0.27603(14) 0.05340(6)
O2 O 0.0231(4) 0.3962(2) 0.06309(8)
O4 O -0.7268(3) 0.47003(14) 0.22092(6)
O5 O -0.3897(3) 0.56465(15) 0.43667(6)
O6 O -0.6671(3) 0.66682(14) 0.42371(6)
Cu1 Cu 0.05118(5) 0.22577(2) 0.018498(8)
O6A O 0.1671(3) 0.16682(14) 0.07629(6)
Cu1A Cu -0.55118(5) 0.72577(2) 0.481502(8)
O3 O 0.3162(5) 0.4364(2) -0.01300(11)
H17 H 0.314(9) 0.413(3) 0.0136(15)
H18 H 0.198(6) 0.474(3) -0.0176(17)
loop_
_geom_bond_atom_site_label_1
_geom_bond_atom_site_label_2
_geom_bond_site_symmetry_1
_geom_bond_site_symmetry_2
C1 H1 1_555 1_555
C2 C1 1_555 1_555
H2 C2 1_555 1_555
C3 C2 1_555 1_555
H3 C3 1_555 1_555
C4 C3 1_555 1_555
C5 C4 1_555 1_555
C6 C5 1_555 1_555
C7 H4 1_555 1_555
C8 C7 1_555 1_555
H5 C8 1_555 1_555
C9 C8 1_555 1_555
H6 C9 1_555 1_555
C10 C6 1_555 1_555
C11 C10 1_555 1_555
C12 C4 1_555 1_555
C13 H7 1_555 1_555
C14 C13 1_555 1_555
H8 C14 1_555 1_555
C15 C16 1_555 1_555
C16 C17 1_555 1_555
C17 H9 1_555 1_555
C18 C17 1_555 1_555
H10 C18 1_555 1_555
C19 C18 1_555 1_555
C20 C19 1_555 1_555
H11 C20 1_555 1_555
C21 C16 1_555 1_555
H12 C21 1_555 1_555
C22 H13 1_555 1_555
C23 C22 1_555 1_555
C24 C23 1_555 1_555
C25 C23 1_555 1_555
H14 C25 1_555 1_555
C26 C25 1_555 1_555
H15 C26 1_555 1_555
C27 C26 1_555 1_555
C28 C22 1_555 1_555
H16 C28 1_555 1_555
N1 C1 1_555 1_555
N2 C6 1_555 1_555
N3 C12 1_555 1_555
N4 C11 1_555 1_555
O1 C15 1_555 1_555
O2 C15 1_555 1_555
O3 H17 1_555 1_555
H18 O3 1_555 1_555
O4 C19 1_555 1_555
O5 C24 1_555 1_555
O6 C24 1_555 1_555
Cu1 N1 1_555 1_555
O6A Cu1 1_555 1_555
Cu1A O6 1_555 1_555
C5 N1 1_555 1_555
C7 N2 1_555 1_555
C9 C10 1_555 1_555
C11 C12 1_555 1_555
C13 N3 1_555 1_555
C14 N4 1_555 1_555
C20 C21 1_555 1_555
C27 C28 1_555 1_555
C27 O4 1_555 1_555
N2 Cu1 1_555 1_555
O1 Cu1 1_555 1_555

#END
