
#######################################################################
#
#                 Cambridge Crystallographic Data Centre
#                                CCDC 
#
#######################################################################
#
# If this CIF has been generated from an entry in the Cambridge 
# Structural Database, then it will include bibliographic, chemical, 
# crystal, experimental, refinement or atomic coordinate data resulting 
# from the CCDC's data processing and validation procedures.
#
#######################################################################

data_VIQLEN
_symmetry_cell_setting           triclinic
_symmetry_space_group_name_H-M   'P -1'
_symmetry_Int_Tables_number      2
_space_group_name_Hall           '-P 1'
loop_
_symmetry_equiv_pos_site_id
_symmetry_equiv_pos_as_xyz
1 x,y,z
2 -x,-y,-z
_cell_length_a                   8.9061(12)
_cell_length_b                   9.8617(14)
_cell_length_c                   10.6066(15)
_cell_angle_alpha                100.014(2)
_cell_angle_beta                 94.614(2)
_cell_angle_gamma                111.107(2)
_cell_volume                     845.39
loop_
_atom_site_label
_atom_site_type_symbol
_atom_site_fract_x
_atom_site_fract_y
_atom_site_fract_z
C1 C 0.2172(5) 0.6757(4) 0.8133(4)
C2 C 0.2508(5) 0.6119(4) 0.9271(4)
H1 H 0.3512 0.6809 0.9819
H2 H 0.1631 0.5985 0.9783
C3 C 0.2504(4) 0.3788(4) 0.9701(3)
C4 C 0.1930(5) 0.3990(4) 1.0865(3)
H3 H 0.1710 0.4835 1.1153
C5 C 0.1686(5) 0.2912(4) 1.1597(4)
H4 H 0.1291 0.3035 1.2376
C6 C 0.2024(5) 0.1649(4) 1.1181(3)
C7 C 0.2670(5) 0.1497(4) 1.0044(4)
H5 H 0.2949 0.0682 0.9777
C8 C 0.2900(5) 0.2567(4) 0.9304(4)
H6 H 0.3323 0.2460 0.8537
C9 C 0.1705(5) -0.0791(4) 1.1446(4)
H7 H 0.2825 -0.0712 1.1469
H8 H 0.1173 -0.1140 1.0551
C10 C 0.4694(5) 0.4290(5) 0.6597(4)
H9 H 0.5053 0.5092 0.7305
C11 C 0.5664(5) 0.3722(5) 0.5957(4)
H10 H 0.6792 0.4049 0.6140
C12 C 0.3132(5) 0.2476(4) 0.5073(4)
H11 H 0.2210 0.1777 0.4522
C13 C 0.5125(5) 0.1560(4) 0.4063(4)
H12 H 0.6299 0.1973 0.4099
H13 H 0.4630 0.1487 0.3192
C14 C 0.4608(5) 0.0011(4) 0.4346(4)
H14 H 0.3434 -0.0399 0.4303
H15 H 0.4886 -0.0625 0.3679
C15 C 0.0841(5) -0.1884(4) 1.2237(4)
N1 N 0.3108(4) 0.3507(3) 0.6041(3)
N2 N 0.4651(4) 0.2568(4) 0.4986(3)
O1 O 0.1532(3) 0.5861(3) 0.7026(2)
O2 O 0.2463(4) 0.8100(3) 0.8349(3)
O3 O -0.0434(4) 0.3118(3) 0.4941(3)
O4 O 0.2645(3) 0.4722(3) 0.8831(2)
O6 O 0.1672(3) 0.0630(3) 1.1958(2)
O7 O 0.0000(3) -0.1547(3) 1.3035(3)
O8 O 0.0941(4) -0.3126(3) 1.2033(3)
Zn1 Zn 0.10926(6) 0.37051(5) 0.66421(4)
H17 H -0.062(5) 0.351(4) 0.437(3)
H18 H -0.047(5) 0.230(2) 0.476(3)
C1A C -0.2172(5) -0.6757(4) 1.1867(4)
C2A C -0.2508(5) -0.6119(4) 1.0729(4)
H1A H -0.3512 -0.6809 1.0181
H2A H -0.1631 -0.5985 1.0217
C3A C -0.2504(4) -0.3788(4) 1.0299(3)
C4A C -0.1930(5) -0.3990(4) 0.9135(3)
H3A H -0.1710 -0.4835 0.8847
C5A C -0.1686(5) -0.2912(4) 0.8403(4)
H4A H -0.1291 -0.3035 0.7624
C6A C -0.2024(5) -0.1649(4) 0.8819(3)
C7A C -0.2670(5) -0.1497(4) 0.9956(4)
H5A H -0.2949 -0.0682 1.0223
C8A C -0.2900(5) -0.2567(4) 1.0696(4)
H6A H -0.3323 -0.2460 1.1463
C9A C -0.1705(5) 0.0791(4) 0.8554(4)
H7A H -0.2825 0.0712 0.8531
H8A H -0.1173 0.1140 0.9449
C10A C 0.5306(5) -0.4290(5) 0.3403(4)
H9A H 0.4947 -0.5092 0.2695
C11A C 0.4336(5) -0.3722(5) 0.4043(4)
H10A H 0.3208 -0.4049 0.3860
C12A C 0.6868(5) -0.2476(4) 0.4927(4)
H11A H 0.7790 -0.1777 0.5478
C13A C 0.4875(5) -0.1560(4) 0.5937(4)
H12A H 0.3701 -0.1973 0.5901
H13A H 0.5370 -0.1487 0.6808
C14A C 0.5392(5) -0.0011(4) 0.5654(4)
H14A H 0.6566 0.0399 0.5697
H15A H 0.5114 0.0625 0.6321
C15A C -0.0841(5) 0.1884(4) 0.7763(4)
N1A N 0.6892(4) -0.3507(3) 0.3959(3)
N2A N 0.5349(4) -0.2568(4) 0.5014(3)
O1A O -0.1532(3) -0.5861(3) 1.2974(2)
O1A_2 O 0.8468(3) -0.5861(3) 0.2974(2)
O2A O -0.2463(4) -0.8100(3) 1.1651(3)
O3A O 1.0434(4) -0.3118(3) 0.5059(3)
O4A O -0.2645(3) -0.4722(3) 1.1169(2)
O4A_2 O 0.7355(3) -0.4722(3) 0.1169(2)
O6A O -0.1672(3) -0.0630(3) 0.8042(2)
O7A O 0.0000(3) 0.1547(3) 0.6965(3)
O7_2 O 1.0000(3) -0.1547(3) 0.3035(3)
O8A O -0.0941(4) 0.3126(3) 0.7967(3)
O8_2 O 1.0941(4) -0.3126(3) 0.2033(3)
Zn1A Zn 0.89074(6) -0.37051(5) 0.33579(4)
Zn1A_2 Zn -0.10926(6) -0.37051(5) 1.33579(4)
H17A H 1.062(5) -0.351(4) 0.563(3)
H18A H 1.047(5) -0.230(2) 0.524(3)
O5 O -0.1611(4) 0.0431(3) 0.3437(3)
H16 H -0.096(4) 0.004(5) 0.324(3)
H19 H -0.199(4) 0.060(4) 0.273(2)
loop_
_geom_bond_atom_site_label_1
_geom_bond_atom_site_label_2
_geom_bond_site_symmetry_1
_geom_bond_site_symmetry_2
C1 C2 1_555 1_555
C2 H1 1_555 1_555
H2 C2 1_555 1_555
C3 C4 1_555 1_555
C4 H3 1_555 1_555
C5 C4 1_555 1_555
H4 C5 1_555 1_555
C6 C5 1_555 1_555
C7 C6 1_555 1_555
H5 C7 1_555 1_555
C8 C3 1_555 1_555
H6 C8 1_555 1_555
C9 H7 1_555 1_555
H8 C9 1_555 1_555
C10 H9 1_555 1_555
C11 C10 1_555 1_555
H10 C11 1_555 1_555
C12 H11 1_555 1_555
C13 H12 1_555 1_555
H13 C13 1_555 1_555
C14 C13 1_555 1_555
H14 C14 1_555 1_555
H15 C14 1_555 1_555
C15 C9 1_555 1_555
N1 C10 1_555 1_555
N2 C11 1_555 1_555
O1 C1 1_555 1_555
O2 C1 1_555 1_555
O3 Zn1 1_555 1_555
O4 C2 1_555 1_555
O5 H16 1_555 1_555
O6 C6 1_555 1_555
O7 C15 1_555 1_555
O8 C15 1_555 1_555
Zn1 N1 1_555 1_555
H17 O3 1_555 1_555
H18 O3 1_555 1_555
H19 O5 1_555 1_555
C1A C2A 1_555 1_555
C2A H1A 1_555 1_555
H2A C2A 1_555 1_555
C3A C4A 1_555 1_555
C4A H3A 1_555 1_555
C5A C4A 1_555 1_555
H4A C5A 1_555 1_555
C6A C5A 1_555 1_555
C7A C6A 1_555 1_555
H5A C7A 1_555 1_555
C8A C3A 1_555 1_555
H6A C8A 1_555 1_555
C9A H7A 1_555 1_555
H8A C9A 1_555 1_555
C10A H9A 1_555 1_555
C11A C10A 1_555 1_555
H10A C11A 1_555 1_555
C12A H11A 1_555 1_555
C13A H12A 1_555 1_555
H13A C13A 1_555 1_555
C14A C14 1_555 1_555
H14A C14A 1_555 1_555
H15A C14A 1_555 1_555
C15A C9A 1_555 1_555
N1A C10A 1_555 1_555
N2A C11A 1_555 1_555
O1A C1A 1_555 1_555
O1A_2 Zn1A 1_555 1_555
O2A C1A 1_555 1_555
O3A Zn1A 1_555 1_555
O4A C2A 1_555 1_555
O4A_2 Zn1A 1_555 1_555
O6A C6A 1_555 1_555
O7A Zn1 1_555 1_555
O7_2 Zn1A 1_555 1_555
O8A Zn1 1_555 1_555
O8_2 Zn1A 1_555 1_555
Zn1A N1A 1_555 1_555
Zn1A_2 O7 1_555 1_555
H17A O3A 1_555 1_555
H18A O3A 1_555 1_555
C3 O4 1_555 1_555
C7 C8 1_555 1_555
C9 O6 1_555 1_555
C12 N1 1_555 1_555
C12 N2 1_555 1_555
C13 N2 1_555 1_555
O1 Zn1 1_555 1_555
O4 Zn1 1_555 1_555
O8 Zn1A_2 1_555 1_555
C3A O4A 1_555 1_555
C7A C8A 1_555 1_555
C9A O6A 1_555 1_555
C12A N1A 1_555 1_555
C12A N2A 1_555 1_555
C13A C14A 1_555 1_555
C13A N2A 1_555 1_555
C15A O7A 1_555 1_555
C15A O8A 1_555 1_555
O1A Zn1A_2 1_555 1_555
O4A Zn1A_2 1_555 1_555

#END
