
#######################################################################
#
#                 Cambridge Crystallographic Data Centre
#                                CCDC 
#
#######################################################################
#
# If this CIF has been generated from an entry in the Cambridge 
# Structural Database, then it will include bibliographic, chemical, 
# crystal, experimental, refinement or atomic coordinate data resulting 
# from the CCDC's data processing and validation procedures.
#
#######################################################################

data_VIQNUF
_symmetry_cell_setting           orthorhombic
_symmetry_space_group_name_H-M   'P 21 21 21'
_symmetry_Int_Tables_number      19
_space_group_name_Hall           'P 2ac 2ab'
loop_
_symmetry_equiv_pos_site_id
_symmetry_equiv_pos_as_xyz
1 x,y,z
2 1/2-x,-y,1/2+z
3 1/2+x,1/2-y,-z
4 -x,1/2+y,1/2-z
_cell_length_a                   6.7770(3)
_cell_length_b                   16.2626(6)
_cell_length_c                   17.3730(5)
_cell_angle_alpha                90
_cell_angle_beta                 90
_cell_angle_gamma                90
_cell_volume                     1914.71
loop_
_atom_site_label
_atom_site_type_symbol
_atom_site_fract_x
_atom_site_fract_y
_atom_site_fract_z
Mn1 Mn 0.75683(7) 0.39945(2) 0.849961(18)
O1 O 0.8310(3) 0.52190(13) 0.86239(14)
O2 O 0.5582(4) 0.59275(14) 0.84588(16)
O3 O 0.9809(3) 0.64933(14) 0.98274(10)
O4 O 1.4164(3) 0.61980(12) 1.30356(9)
O5 O 1.6748(3) 0.61228(13) 1.22776(9)
O6 O 0.4470(3) 0.43660(15) 0.85866(13)
H1 H 0.334(2) 0.4252(19) 0.8405(17)
H2 H 0.459(9) 0.4888(8) 0.853(3)
N1 N 0.7321(4) 0.26198(12) 0.86540(11)
N2 N 0.7755(4) 0.37423(14) 0.97641(10)
C1 C 0.7385(5) 0.58737(15) 0.85466(13)
C2 C 0.8625(5) 0.66545(18) 0.85678(16)
H3 H 0.8992 0.6800 0.8046
H4 H 0.7827 0.7099 0.8773
C3 C 1.0480(5) 0.65767(19) 0.90479(14)
H5 H 1.1236 0.6098 0.8893
H6 H 1.1300 0.7062 0.8992
C4 C 1.1170(4) 0.64004(19) 1.04023(15)
C5 C 1.3162(4) 0.6315(2) 1.02968(15)
H7 H 1.3696 0.6316 0.9804
C6 C 1.4373(4) 0.62257(17) 1.09374(14)
H8 H 1.5725 0.6161 1.0868
C7 C 1.3603(4) 0.62311(19) 1.16835(14)
C8 C 1.1573(4) 0.6318(2) 1.17619(15)
H9 H 1.1020 0.6323 1.2252
C9 C 1.0369(4) 0.6398(2) 1.11337(16)
H10 H 0.9013 0.6450 1.1199
C10 C 1.4908(4) 0.61775(16) 1.23693(13)
C11 C 0.7252(5) 0.20784(18) 0.80691(16)
H11 H 0.7117 0.2280 0.7571
C12 C 0.7371(6) 0.12452(18) 0.8171(2)
H12 H 0.7305 0.0889 0.7753
C13 C 0.7589(5) 0.09507(19) 0.8902(2)
H13 H 0.7694 0.0388 0.8986
C14 C 0.7654(5) 0.14913(17) 0.95166(18)
H14 H 0.7786 0.1296 1.0017
C15 C 0.7520(5) 0.23271(14) 0.93762(14)
C16 C 0.7595(4) 0.29574(16) 0.99965(13)
C17 C 0.7479(5) 0.2761(2) 1.07716(14)
H15 H 0.7367 0.2216 1.0928
C18 C 0.7533(6) 0.3384(3) 1.13051(15)
H16 H 0.7459 0.3262 1.1827
C19 C 0.7696(5) 0.4191(2) 1.10699(16)
H17 H 0.7728 0.4618 1.1426
C20 C 0.7808(5) 0.4344(2) 1.02932(15)
H18 H 0.7924 0.4886 1.0128
Mn1A Mn 1.74317(7) 0.60055(2) 1.349961(18)
O4A O 1.0836(3) 0.38020(12) 0.80356(9)
O5A O 0.8252(3) 0.38772(13) 0.72776(9)
loop_
_geom_bond_atom_site_label_1
_geom_bond_atom_site_label_2
_geom_bond_site_symmetry_1
_geom_bond_site_symmetry_2
Mn1 O1 1_555 1_555
O1 C1 1_555 1_555
O2 C1 1_555 1_555
O3 C3 1_555 1_555
O4 C10 1_555 1_555
O5 C10 1_555 1_555
O6 Mn1 1_555 1_555
H1 O6 1_555 1_555
H2 O6 1_555 1_555
N1 Mn1 1_555 1_555
N2 Mn1 1_555 1_555
C1 C2 1_555 1_555
C2 H3 1_555 1_555
H4 C2 1_555 1_555
C3 C2 1_555 1_555
H5 C3 1_555 1_555
H6 C3 1_555 1_555
C4 O3 1_555 1_555
C5 C4 1_555 1_555
H7 C5 1_555 1_555
C6 C5 1_555 1_555
H8 C6 1_555 1_555
C7 C6 1_555 1_555
C8 C7 1_555 1_555
H9 C8 1_555 1_555
C9 C4 1_555 1_555
H10 C9 1_555 1_555
C10 C7 1_555 1_555
C11 N1 1_555 1_555
H11 C11 1_555 1_555
C12 C11 1_555 1_555
H12 C12 1_555 1_555
C13 C12 1_555 1_555
H13 C13 1_555 1_555
C14 C13 1_555 1_555
H14 C14 1_555 1_555
C15 N1 1_555 1_555
C16 N2 1_555 1_555
C17 C16 1_555 1_555
H15 C17 1_555 1_555
C18 C17 1_555 1_555
H16 C18 1_555 1_555
C19 C18 1_555 1_555
H17 C19 1_555 1_555
C20 N2 1_555 1_555
H18 C20 1_555 1_555
Mn1A O4 1_555 1_555
O4A Mn1 1_555 1_555
O5A Mn1 1_555 1_555
O5 Mn1A 1_555 1_555
C8 C9 1_555 1_555
C14 C15 1_555 1_555
C15 C16 1_555 1_555
C19 C20 1_555 1_555

#END
