
#######################################################################
#
#                 Cambridge Crystallographic Data Centre
#                                CCDC 
#
#######################################################################
#
# If this CIF has been generated from an entry in the Cambridge 
# Structural Database, then it will include bibliographic, chemical, 
# crystal, experimental, refinement or atomic coordinate data resulting 
# from the CCDC's data processing and validation procedures.
#
#######################################################################

data_VIQPOC
_symmetry_cell_setting           monoclinic
_symmetry_space_group_name_H-M   'P 21/c'
_symmetry_Int_Tables_number      14
_space_group_name_Hall           '-P 2ybc'
loop_
_symmetry_equiv_pos_site_id
_symmetry_equiv_pos_as_xyz
1 x,y,z
2 -x,1/2+y,1/2-z
3 -x,-y,-z
4 x,1/2-y,1/2+z
_cell_length_a                   8.7806(7)
_cell_length_b                   25.0804(19)
_cell_length_c                   13.0384(10)
_cell_angle_alpha                90
_cell_angle_beta                 108.1870(10)
_cell_angle_gamma                90
_cell_volume                     2727.89
loop_
_atom_site_label
_atom_site_type_symbol
_atom_site_fract_x
_atom_site_fract_y
_atom_site_fract_z
Ag1 Ag 0.10426(2) 0.112896(8) 0.356761(14)
N1 N 0.3373(2) 0.07653(8) 0.38889(16)
N2 N 0.5473(2) 0.02685(8) 0.39770(15)
N3 N 0.6937(2) 0.00108(8) 0.28006(15)
N4 N 0.8458(2) 0.02863(8) 0.18606(16)
C1 C 0.3860(3) 0.03124(10) 0.35869(18)
H1 H 0.3184 0.0057 0.3162
C2 C 0.4741(3) 0.10270(11) 0.4493(2)
H2 H 0.4765 0.1359 0.4814
C3 C 0.6042(3) 0.07253(11) 0.4548(2)
H3 H 0.7108 0.0810 0.4901
C4 C 0.6424(3) -0.01510(10) 0.37134(19)
H4 H 0.5794 -0.0475 0.3535
H5 H 0.7355 -0.0223 0.4332
C5 C 0.5932(3) 0.01331(11) 0.17889(19)
H6 H 0.4820 0.0106 0.1545
C6 C 0.6885(3) 0.03008(10) 0.12243(19)
H7 H 0.6531 0.0411 0.0507
C7 C 0.8438(3) 0.01130(9) 0.28102(19)
H8 H 0.9344 0.0068 0.3407
S1 S -0.22265(7) 0.09113(2) 0.87186(4)
O1 O 0.1889(2) 0.14421(6) 0.55978(13)
O2 O 0.0085(2) 0.07970(7) 0.54181(13)
O3 O 0.1435(2) 0.25940(7) 0.98469(14)
H9 H 0.180(4) 0.2898(15) 1.012(3)
O4 O 0.2522(3) 0.28032(8) 0.85632(18)
O5 O -0.3634(3) 0.08396(11) 0.78078(18)
O6 O -0.1443(3) 0.04107(8) 0.9106(2)
O7 O -0.2491(3) 0.12245(9) 0.95720(19)
C8 C 0.1711(3) 0.25122(9) 0.89177(19)
C9 C 0.0900(3) 0.20231(9) 0.83563(18)
C10 C -0.0161(3) 0.17392(9) 0.87511(17)
H10 H -0.0386 0.1856 0.9365
C11 C -0.0878(3) 0.12831(9) 0.82257(17)
C12 C -0.0548(3) 0.11065(8) 0.73070(17)
H11 H -0.1037 0.0799 0.6959
C13 C 0.0510(3) 0.13868(9) 0.69054(17)
C14 C 0.0840(3) 0.11888(8) 0.58975(17)
C15 C 0.1234(3) 0.18460(9) 0.74370(17)
H12 H 0.1945 0.2036 0.7177
Ag2 Ag -0.96283(2) 0.058191(8) 0.133862(15)
N5 N -0.1213(2) 0.15511(9) 0.29949(17)
N6 N -0.3465(2) 0.18875(8) 0.19395(17)
N7 N -0.5960(2) 0.15515(8) 0.07485(17)
N8 N -0.7819(2) 0.09997(9) 0.08939(17)
C16 C -0.1996(3) 0.18112(12) 0.3621(2)
H13 H -0.1624 0.1839 0.4369
C17 C -0.3380(3) 0.20182(12) 0.2978(2)
H14 H -0.4129 0.2211 0.3195
C18 C -0.4806(3) 0.19881(11) 0.0974(2)
H15 H -0.4409 0.2035 0.0364
H16 H -0.5337 0.2316 0.1066
C19 C -0.6193(3) 0.11867(11) -0.0072(2)
H17 H -0.5666 0.1173 -0.0589
C20 C -0.7343(3) 0.08537(11) 0.0026(2)
H18 H -0.7754 0.0567 -0.0428
C21 C -0.6965(3) 0.14267(11) 0.1308(2)
H19 H -0.7048 0.1615 0.1903
C22 C -0.2139(3) 0.16068(11) 0.1996(2)
H20 H -0.1906 0.1469 0.1399
N4_2 N -1.1542(2) 0.02863(8) 0.18606(16)
Ag2_2 Ag 1.03717(2) 0.058191(8) 0.133862(15)
O8 O 0.4893(4) 0.18388(12) 0.6826(3)
H21 H 0.403(4) 0.171(2) 0.647(3)
H22 H 0.513(6) 0.179(2) 0.7481(10)
loop_
_geom_bond_atom_site_label_1
_geom_bond_atom_site_label_2
_geom_bond_site_symmetry_1
_geom_bond_site_symmetry_2
Ag1 N1 1_555 1_555
N1 C1 1_555 1_555
N2 C1 1_555 1_555
N3 C4 1_555 1_555
N4 C6 1_555 1_555
C1 H1 1_555 1_555
C2 N1 1_555 1_555
H2 C2 1_555 1_555
C3 N2 1_555 1_555
H3 C3 1_555 1_555
C4 N2 1_555 1_555
H4 C4 1_555 1_555
H5 C4 1_555 1_555
C5 N3 1_555 1_555
H6 C5 1_555 1_555
C6 C5 1_555 1_555
H7 C6 1_555 1_555
C7 N3 1_555 1_555
H8 C7 1_555 1_555
S1 O5 1_555 1_555
O1 Ag1 1_555 1_555
O2 C14 1_555 1_555
O3 H9 1_555 1_555
O4 C8 1_555 1_555
O6 S1 1_555 1_555
O7 S1 1_555 1_555
C8 O3 1_555 1_555
C9 C8 1_555 1_555
C10 C9 1_555 1_555
H10 C10 1_555 1_555
C11 S1 1_555 1_555
C12 C11 1_555 1_555
H11 C12 1_555 1_555
C13 C12 1_555 1_555
C14 O1 1_555 1_555
C15 C9 1_555 1_555
H12 C15 1_555 1_555
Ag2 N8 1_555 1_555
N5 Ag1 1_555 1_555
N6 C17 1_555 1_555
N7 C18 1_555 1_555
N8 C20 1_555 1_555
C16 N5 1_555 1_555
H13 C16 1_555 1_555
C17 C16 1_555 1_555
H14 C17 1_555 1_555
C18 N6 1_555 1_555
H15 C18 1_555 1_555
H16 C18 1_555 1_555
C19 N7 1_555 1_555
H17 C19 1_555 1_555
C20 C19 1_555 1_555
H18 C20 1_555 1_555
C21 N7 1_555 1_555
H19 C21 1_555 1_555
C22 N5 1_555 1_555
H20 C22 1_555 1_555
O8 H21 1_555 1_555
H22 O8 1_555 1_555
N4_2 Ag2 1_555 1_555
Ag2_2 N4 1_555 1_555
N4 C7 1_555 1_555
C2 C3 1_555 1_555
C10 C11 1_555 1_555
C13 C14 1_555 1_555
C13 C15 1_555 1_555
N6 C22 1_555 1_555
N8 C21 1_555 1_555

#END
