
#######################################################################
#
#                 Cambridge Crystallographic Data Centre
#                                CCDC 
#
#######################################################################
#
# If this CIF has been generated from an entry in the Cambridge 
# Structural Database, then it will include bibliographic, chemical, 
# crystal, experimental, refinement or atomic coordinate data resulting 
# from the CCDC's data processing and validation procedures.
#
#######################################################################

data_VIQPAN
_symmetry_cell_setting           orthorhombic
_symmetry_space_group_name_H-M   'P 21 21 21'
_symmetry_Int_Tables_number      19
_space_group_name_Hall           'P 2ac 2ab'
loop_
_symmetry_equiv_pos_site_id
_symmetry_equiv_pos_as_xyz
1 x,y,z
2 1/2-x,-y,1/2+z
3 1/2+x,1/2-y,-z
4 -x,1/2+y,1/2-z
_cell_length_a                   6.7193(2)
_cell_length_b                   16.1369(5)
_cell_length_c                   17.2762(7)
_cell_angle_alpha                90
_cell_angle_beta                 90
_cell_angle_gamma                90
_cell_volume                     1873.24
loop_
_atom_site_label
_atom_site_type_symbol
_atom_site_fract_x
_atom_site_fract_y
_atom_site_fract_z
Co1 Co 0.76489(5) 0.398602(19) 0.855061(19)
O1 O 0.8432(3) 0.51878(12) 0.86177(15)
O2 O 0.5641(3) 0.58949(13) 0.84844(18)
O3 O 0.9850(3) 0.64927(14) 0.98563(12)
O4 O 1.4181(3) 0.62191(12) 1.31063(11)
O5 O 1.6780(3) 0.60698(13) 1.23548(11)
O6 O 0.4572(3) 0.43293(15) 0.86584(15)
H1 H 0.351(5) 0.421(3) 0.841(3)
H2 H 0.472(10) 0.4855(10) 0.858(3)
N1 N 0.7355(3) 0.26736(12) 0.86476(13)
N2 N 0.7761(3) 0.37846(13) 0.97567(12)
C1 C 0.7464(5) 0.58424(15) 0.85589(15)
C2 C 0.8697(5) 0.66325(17) 0.85777(19)
H3 H 0.7878 0.7080 0.8774
H4 H 0.9084 0.6774 0.8053
C3 C 1.0561(5) 0.65662(19) 0.90742(18)
H5 H 1.1336 0.6083 0.8930
H6 H 1.1384 0.7056 0.9016
C4 C 1.1199(4) 0.63966(18) 1.04414(19)
C5 C 1.3226(4) 0.62954(18) 1.03432(18)
H7 H 1.3781 0.6289 0.9850
C6 C 1.4423(4) 0.62027(17) 1.09954(18)
H8 H 1.5785 0.6128 1.0932
C7 C 1.3635(4) 0.62183(18) 1.17393(17)
C8 C 1.1589(4) 0.6321(2) 1.18138(19)
H9 H 1.1024 0.6334 1.2305
C9 C 1.0378(5) 0.6405(2) 1.11728(19)
H10 H 0.9011 0.6466 1.1234
C10 C 1.4924(4) 0.61640(16) 1.24370(16)
C11 C 0.7263(5) 0.21451(17) 0.80494(18)
H11 H 0.7152 0.2359 0.7551
C12 C 0.7325(6) 0.12974(18) 0.8145(2)
H12 H 0.7225 0.0946 0.7720
C13 C 0.7535(5) 0.09824(18) 0.8873(2)
H13 H 0.7629 0.0413 0.8949
C14 C 0.7608(5) 0.15235(17) 0.9502(2)
H14 H 0.7712 0.1320 1.0004
C15 C 0.7525(4) 0.23639(15) 0.93690(16)
C16 C 0.7603(4) 0.29919(16) 0.99980(15)
C17 C 0.7481(5) 0.2795(2) 1.07764(16)
H15 H 0.7364 0.2246 1.0935
C18 C 0.7535(5) 0.3428(2) 1.13136(17)
H16 H 0.7468 0.3308 1.1839
C19 C 0.7688(5) 0.4237(2) 1.10691(18)
H17 H 0.7711 0.4669 1.1426
C20 C 0.7804(5) 0.43962(19) 1.02912(17)
H18 H 0.7917 0.4943 1.0126
Co1A Co 1.73511(5) 0.601398(19) 1.355061(19)
O4A O 1.0819(3) 0.37809(12) 0.81063(11)
O5A O 0.8220(3) 0.39302(13) 0.73548(11)
loop_
_geom_bond_atom_site_label_1
_geom_bond_atom_site_label_2
_geom_bond_site_symmetry_1
_geom_bond_site_symmetry_2
Co1 O1 1_555 1_555
O1 C1 1_555 1_555
O2 C1 1_555 1_555
O3 C3 1_555 1_555
O4 C10 1_555 1_555
O5 C10 1_555 1_555
O6 Co1 1_555 1_555
H1 O6 1_555 1_555
H2 O6 1_555 1_555
N1 Co1 1_555 1_555
N2 Co1 1_555 1_555
C1 C2 1_555 1_555
C2 H3 1_555 1_555
H4 C2 1_555 1_555
C3 C2 1_555 1_555
H5 C3 1_555 1_555
H6 C3 1_555 1_555
C4 O3 1_555 1_555
C5 C4 1_555 1_555
H7 C5 1_555 1_555
C6 C5 1_555 1_555
H8 C6 1_555 1_555
C7 C6 1_555 1_555
C8 C7 1_555 1_555
H9 C8 1_555 1_555
C9 C4 1_555 1_555
H10 C9 1_555 1_555
C10 C7 1_555 1_555
C11 N1 1_555 1_555
H11 C11 1_555 1_555
C12 C11 1_555 1_555
H12 C12 1_555 1_555
C13 C12 1_555 1_555
H13 C13 1_555 1_555
C14 C13 1_555 1_555
H14 C14 1_555 1_555
C15 N1 1_555 1_555
C16 N2 1_555 1_555
C17 C16 1_555 1_555
H15 C17 1_555 1_555
C18 C17 1_555 1_555
H16 C18 1_555 1_555
C19 C18 1_555 1_555
H17 C19 1_555 1_555
C20 N2 1_555 1_555
H18 C20 1_555 1_555
Co1A O4 1_555 1_555
O4A Co1 1_555 1_555
O5A Co1 1_555 1_555
O5 Co1A 1_555 1_555
C8 C9 1_555 1_555
C14 C15 1_555 1_555
C15 C16 1_555 1_555
C19 C20 1_555 1_555

#END
