
#######################################################################
#
#                 Cambridge Crystallographic Data Centre
#                                CCDC 
#
#######################################################################
#
# If this CIF has been generated from an entry in the Cambridge 
# Structural Database, then it will include bibliographic, chemical, 
# crystal, experimental, refinement or atomic coordinate data resulting 
# from the CCDC's data processing and validation procedures.
#
#######################################################################

data_VIQQIX
_symmetry_cell_setting           triclinic
_symmetry_space_group_name_H-M   'P -1'
_symmetry_Int_Tables_number      2
_space_group_name_Hall           '-P 1'
loop_
_symmetry_equiv_pos_site_id
_symmetry_equiv_pos_as_xyz
1 x,y,z
2 -x,-y,-z
_cell_length_a                   8.4598(5)
_cell_length_b                   8.7939(5)
_cell_length_c                   18.5836(11)
_cell_angle_alpha                80.2270(10)
_cell_angle_beta                 81.5540(10)
_cell_angle_gamma                74.6730(10)
_cell_volume                     1306.41
loop_
_atom_site_label
_atom_site_type_symbol
_atom_site_fract_x
_atom_site_fract_y
_atom_site_fract_z
Ag1 Ag 1.25864(5) 0.47543(4) 0.157978(18)
Ag2 Ag 0.75032(5) 0.30770(4) 0.183465(19)
Ag3 Ag 0.72326(5) -0.56901(4) 0.512744(17)
S1 S 0.98318(12) -0.07988(11) 0.17399(5)
O1 O 1.0962(5) 0.2900(4) 0.23009(17)
O2 O 1.2985(4) 0.0871(5) 0.1961(2)
O3 O 0.9703(4) 0.0817(3) 0.13754(15)
O4 O 0.8311(4) -0.1294(4) 0.17880(17)
O5 O 1.1249(5) -0.1936(4) 0.14397(18)
O6 O 0.7820(4) -0.3575(4) 0.43375(17)
O7 O 0.9275(5) -0.3147(4) 0.51628(17)
O8 O 0.5878(4) 0.1378(5) 0.1365(2)
H1 H 0.4851 0.1805 0.1430
H2 H 0.6081 0.0445 0.1603
N1 N 1.3540(4) 0.5597(4) 0.24422(18)
N2 N 1.2052(5) 0.4399(5) 0.3403(2)
H3 H 1.1686 0.3968 0.3074
H4 H 1.1721 0.4196 0.3885
N3 N 1.3599(4) 0.5991(4) 0.36751(18)
N4 N 0.6845(5) 0.2400(4) 0.30382(19)
N5 N 0.8273(5) 0.4033(5) 0.3351(2)
H5 H 0.8527 0.4542 0.3683
H6 H 0.8730 0.4149 0.2883
N6 N 0.6574(5) 0.2973(4) 0.42763(19)
N7 N 0.7602(5) 0.4838(4) 0.08206(18)
N8 N 0.6839(7) 0.3356(5) 0.0083(2)
H7 H 0.6687 0.3186 -0.0363
H8 H 0.6622 0.2680 0.0484
N9 N 0.7698(5) 0.5590(4) -0.04707(18)
C1 C 1.1671(5) 0.1456(5) 0.2328(2)
C2 C 1.0900(5) 0.0271(5) 0.2867(2)
C3 C 1.0111(5) -0.0774(5) 0.2669(2)
C4 C 0.9425(5) -0.1794(4) 0.3210(2)
H9 H 0.8857 -0.2456 0.3075
C5 C 0.9578(5) -0.1833(4) 0.3945(2)
C6 C 1.0422(5) -0.0831(5) 0.4141(2)
H10 H 1.0580 -0.0881 0.4630
C7 C 1.1026(5) 0.0237(5) 0.3610(2)
H11 H 1.1526 0.0948 0.3751
C8 C 0.8846(5) -0.2940(5) 0.4532(2)
C9 C 1.3084(5) 0.5340(5) 0.3174(2)
C10 C 1.4630(6) 0.6931(6) 0.3423(3)
H12 H 1.5019 0.7380 0.3758
C11 C 1.5136(6) 0.7258(6) 0.2693(3)
H13 H 1.5854 0.7912 0.2527
C12 C 1.4529(5) 0.6573(5) 0.2217(2)
H14 H 1.4823 0.6802 0.1716
C13 C 0.7228(5) 0.3107(5) 0.3559(2)
C14 C 0.5531(6) 0.2027(6) 0.4458(3)
H15 H 0.5034 0.1931 0.4939
C15 C 0.5156(7) 0.1196(7) 0.3977(3)
H16 H 0.4461 0.0513 0.4126
C16 C 0.5855(6) 0.1415(6) 0.3262(3)
H17 H 0.5630 0.0857 0.2923
C17 C 0.7386(5) 0.4600(5) 0.0150(2)
C18 C 0.8249(6) 0.6852(5) -0.0399(2)
H18 H 0.8466 0.7545 -0.0818
C19 C 0.8500(6) 0.7150(5) 0.0267(3)
H19 H 0.8906 0.8013 0.0309
C20 C 0.8130(6) 0.6126(5) 0.0869(2)
H20 H 0.8247 0.6329 0.1331
Ag1A Ag 0.74136(5) 0.52457(4) -0.157978(18)
Ag3_2 Ag 0.72326(5) 0.43099(4) 0.512744(17)
Ag3A Ag 1.27674(5) 0.56901(4) 0.487256(17)
N3A N 0.6401(4) -0.5991(4) 0.63249(18)
N6_2 N 0.6574(5) -0.7027(4) 0.42763(19)
N9A N 1.2302(5) 0.4410(4) 0.04707(18)
O9 O 0.4242(8) 0.8977(8) 0.0613(3)
H21 H 0.4977 0.8253 0.0775
H22 H 0.3656 0.9444 0.0962
loop_
_geom_bond_atom_site_label_1
_geom_bond_atom_site_label_2
_geom_bond_site_symmetry_1
_geom_bond_site_symmetry_2
Ag1 O1 1_555 1_555
Ag2 O3 1_555 1_555
Ag3 O6 1_555 1_555
S1 O3 1_555 1_555
O1 C1 1_555 1_555
O2 C1 1_555 1_555
O4 S1 1_555 1_555
O5 S1 1_555 1_555
O6 C8 1_555 1_555
O7 C8 1_555 1_555
O8 Ag2 1_555 1_555
H1 O8 1_555 1_555
H2 O8 1_555 1_555
N1 Ag1 1_555 1_555
N2 H3 1_555 1_555
H4 N2 1_555 1_555
N3 C9 1_555 1_555
N4 Ag2 1_555 1_555
N5 H5 1_555 1_555
H6 N5 1_555 1_555
N6 C13 1_555 1_555
N7 Ag2 1_555 1_555
N8 H7 1_555 1_555
H8 N8 1_555 1_555
N9 C17 1_555 1_555
C1 C2 1_555 1_555
C2 C3 1_555 1_555
C3 S1 1_555 1_555
C4 C3 1_555 1_555
H9 C4 1_555 1_555
C5 C4 1_555 1_555
C6 C5 1_555 1_555
H10 C6 1_555 1_555
C7 C2 1_555 1_555
H11 C7 1_555 1_555
C8 C5 1_555 1_555
C9 N1 1_555 1_555
C10 N3 1_555 1_555
H12 C10 1_555 1_555
C11 C10 1_555 1_555
H13 C11 1_555 1_555
C12 N1 1_555 1_555
H14 C12 1_555 1_555
C13 N4 1_555 1_555
C14 N6 1_555 1_555
H15 C14 1_555 1_555
C15 C14 1_555 1_555
H16 C15 1_555 1_555
C16 N4 1_555 1_555
H17 C16 1_555 1_555
C17 N7 1_555 1_555
C18 N9 1_555 1_555
H18 C18 1_555 1_555
C19 C18 1_555 1_555
H19 C19 1_555 1_555
C20 N7 1_555 1_555
H20 C20 1_555 1_555
O9 H21 1_555 1_555
H22 O9 1_555 1_555
Ag1A N9 1_555 1_555
Ag3_2 N6 1_555 1_555
Ag3A N3 1_555 1_555
N3A Ag3 1_555 1_555
N6_2 Ag3 1_555 1_555
N9A Ag1 1_555 1_555
N2 C9 1_555 1_555
N5 C13 1_555 1_555
N8 C17 1_555 1_555
C6 C7 1_555 1_555
C11 C12 1_555 1_555
C15 C16 1_555 1_555
C19 C20 1_555 1_555

#END
