
#######################################################################
#
#                 Cambridge Crystallographic Data Centre
#                                CCDC 
#
#######################################################################
#
# If this CIF has been generated from an entry in the Cambridge 
# Structural Database, then it will include bibliographic, chemical, 
# crystal, experimental, refinement or atomic coordinate data resulting 
# from the CCDC's data processing and validation procedures.
#
#######################################################################

data_VIQTUM
_symmetry_cell_setting           monoclinic
_symmetry_space_group_name_H-M   'C 2/c'
_symmetry_Int_Tables_number      15
_space_group_name_Hall           '-C 2yn'
loop_
_symmetry_equiv_pos_site_id
_symmetry_equiv_pos_as_xyz
1 x,y,z
2 -x,y,1/2-z
3 1/2+x,1/2+y,z
4 1/2-x,1/2+y,1/2-z
5 -x,-y,-z
6 x,-y,1/2+z
7 1/2-x,1/2-y,-z
8 1/2+x,1/2-y,1/2+z
_cell_length_a                   11.156(2)
_cell_length_b                   14.659(3)
_cell_length_c                   15.887(3)
_cell_angle_alpha                90
_cell_angle_beta                 96.07(3)
_cell_angle_gamma                90
_cell_volume                     2583.53
loop_
_atom_site_label
_atom_site_type_symbol
_atom_site_fract_x
_atom_site_fract_y
_atom_site_fract_z
Mn1 Mn 0.36914(3) 0.73674(2) 0.42522(2)
Mn2 Mn 0.5000 0.62106(3) 0.2500
O1 O 0.54200(15) 0.71787(11) 0.35205(10)
O2 O 0.72986(16) 0.76526(13) 0.33967(11)
O3 O 0.77451(15) 1.01512(11) 0.56725(10)
O4 O 0.31850(15) 0.80217(11) 0.55390(10)
O5 O 0.36727(15) 0.91453(12) 0.64747(11)
O6 O 0.31107(18) 0.85040(13) 0.34424(12)
O7 O 0.42150(17) 0.60531(13) 0.47596(12)
O8 O 0.32102(15) 0.65326(12) 0.29041(11)
O9 O 0.52009(18) 0.51457(13) 0.34499(12)
N1 N 0.52220(17) 0.81985(13) 0.48515(12)
C1 C 0.6352(2) 0.76621(16) 0.37481(14)
C2 C 0.6252(2) 0.82861(15) 0.44875(14)
C3 C 0.7137(2) 0.89153(15) 0.47464(15)
H1 H 0.7852 0.8949 0.4471
C4 C 0.6970(2) 0.95074(15) 0.54235(14)
C5 C 0.5906(2) 0.93861(16) 0.58166(15)
H2 H 0.5764 0.9748 0.6292
C6 C 0.5074(2) 0.87417(15) 0.55087(14)
C7 C 0.3885(2) 0.86337(15) 0.58808(14)
H3 H 0.356(4) 0.874(3) 0.316(3)
H4 H 0.287(3) 0.897(2) 0.370(2)
H5 H 0.376(4) 0.569(3) 0.498(3)
H6 H 0.448(3) 0.574(3) 0.444(2)
H7 H 0.262(4) 0.625(3) 0.307(3)
H8 H 0.298(3) 0.688(3) 0.252(2)
H9 H 0.587(4) 0.511(3) 0.370(2)
H10 H 0.489(4) 0.463(3) 0.333(2)
Mn1A Mn 0.63086(3) 0.73674(2) 0.07478(2)
O1A O 0.45800(15) 0.71787(11) 0.14795(10)
O2A O 0.27014(16) 0.76526(13) 0.16033(11)
O3A O 0.22549(15) 1.01512(11) -0.06725(10)
O4A O 0.68150(15) 0.80217(11) -0.05390(10)
O5A O 0.63273(15) 0.91453(12) -0.14747(11)
O6A O 0.68893(18) 0.85040(13) 0.15576(12)
O7A O 0.57850(17) 0.60531(13) 0.02404(12)
O8A O 0.67898(15) 0.65326(12) 0.20959(11)
O9A O 0.47991(18) 0.51457(13) 0.15501(12)
N1A N 0.47780(17) 0.81985(13) 0.01485(12)
C1A C 0.3648(2) 0.76621(16) 0.12519(14)
C2A C 0.3748(2) 0.82861(15) 0.05125(14)
C3A C 0.2863(2) 0.89153(15) 0.02536(15)
H1A H 0.2148 0.8949 0.0529
C4A C 0.3030(2) 0.95074(15) -0.04235(14)
C5A C 0.4094(2) 0.93861(16) -0.08166(15)
H2A H 0.4236 0.9748 -0.1292
C6A C 0.4926(2) 0.87417(15) -0.05087(14)
C7A C 0.6115(2) 0.86337(15) -0.08808(14)
H3A H 0.644(4) 0.874(3) 0.184(3)
H4A H 0.713(3) 0.897(2) 0.130(2)
H5A H 0.624(4) 0.569(3) 0.002(3)
H6A H 0.552(3) 0.574(3) 0.056(2)
H7A H 0.738(4) 0.625(3) 0.193(3)
H8A H 0.702(3) 0.688(3) 0.248(2)
H9A H 0.413(4) 0.511(3) 0.130(2)
H10A H 0.511(4) 0.463(3) 0.167(2)
Mn1F Mn 0.13086(3) 0.76326(2) 0.57478(2)
Mn1G Mn 0.86914(3) 0.76326(2) -0.07478(2)
O4F O 0.18150(15) 0.69783(11) 0.44610(10)
O4G O 0.81850(15) 0.69783(11) 0.05390(10)
O10 O 0.0000 0.44449(19) 0.2500
H11 H 0.044(4) 0.481(3) 0.287(3)
H11A H -0.044(4) 0.481(3) 0.213(3)
O11 O 0.9566(3) 0.8385(2) 0.3335(4)
H12 H 0.904(6) 0.813(4) 0.334(3)
H13 H 0.920(6) 0.855(4) 0.292(4)
loop_
_geom_bond_atom_site_label_1
_geom_bond_atom_site_label_2
_geom_bond_site_symmetry_1
_geom_bond_site_symmetry_2
Mn1 O1 1_555 1_555
Mn2 O1 1_555 1_555
O1 C1 1_555 1_555
O2 C1 1_555 1_555
O3 C4 1_555 1_555
O4 Mn1 1_555 1_555
O5 C7 1_555 1_555
O6 Mn1 1_555 1_555
O7 Mn1 1_555 1_555
O8 Mn1 1_555 1_555
O9 Mn2 1_555 1_555
N1 Mn1 1_555 1_555
C1 C2 1_555 1_555
C2 N1 1_555 1_555
C3 C2 1_555 1_555
H1 C3 1_555 1_555
C4 C3 1_555 1_555
C5 C4 1_555 1_555
H2 C5 1_555 1_555
C6 N1 1_555 1_555
C7 O4 1_555 1_555
H3 O6 1_555 1_555
H4 O6 1_555 1_555
H5 O7 1_555 1_555
H6 O7 1_555 1_555
H7 O8 1_555 1_555
H8 O8 1_555 1_555
H9 O9 1_555 1_555
H10 O9 1_555 1_555
O10 H11 1_555 1_555
O11 H12 1_555 1_555
H13 O11 1_555 1_555
Mn1A O1A 1_555 1_555
O1A Mn2 1_555 1_555
O2A C1A 1_555 1_555
O3A C4A 1_555 1_555
O4A Mn1A 1_555 1_555
O5A C7A 1_555 1_555
O6A Mn1A 1_555 1_555
O7A Mn1A 1_555 1_555
O8A Mn2 1_555 1_555
O9A Mn2 1_555 1_555
N1A Mn1A 1_555 1_555
C1A O1A 1_555 1_555
C2A N1A 1_555 1_555
C3A C2A 1_555 1_555
H1A C3A 1_555 1_555
C4A C3A 1_555 1_555
C5A C4A 1_555 1_555
H2A C5A 1_555 1_555
C6A N1A 1_555 1_555
C7A O4A 1_555 1_555
H3A O6A 1_555 1_555
H4A O6A 1_555 1_555
H5A O7A 1_555 1_555
H6A O7A 1_555 1_555
H7A O8A 1_555 1_555
H8A O8A 1_555 1_555
H9A O9A 1_555 1_555
H10A O9A 1_555 1_555
Mn1F O4 1_555 1_555
Mn1G O4A 1_555 1_555
O4F Mn1 1_555 1_555
O4G Mn1A 1_555 1_555
H11A O10 1_555 1_555
Mn2 O8 1_555 1_555
C5 C6 1_555 1_555
C6 C7 1_555 1_555
Mn1A O8A 1_555 1_555
C1A C2A 1_555 1_555
C5A C6A 1_555 1_555
C6A C7A 1_555 1_555
Mn1F O4F 1_555 1_555
Mn1G O4G 1_555 1_555

#END
