
#######################################################################
#
#                 Cambridge Crystallographic Data Centre
#                                CCDC 
#
#######################################################################
#
# If this CIF has been generated from an entry in the Cambridge 
# Structural Database, then it will include bibliographic, chemical, 
# crystal, experimental, refinement or atomic coordinate data resulting 
# from the CCDC's data processing and validation procedures.
#
#######################################################################

data_VIQTEW
_symmetry_cell_setting           monoclinic
_symmetry_space_group_name_H-M   'P 21/c'
_symmetry_Int_Tables_number      14
_space_group_name_Hall           '-P 2ybc'
loop_
_symmetry_equiv_pos_site_id
_symmetry_equiv_pos_as_xyz
1 x,y,z
2 -x,1/2+y,1/2-z
3 -x,-y,-z
4 x,1/2-y,1/2+z
_cell_length_a                   9.6843(7)
_cell_length_b                   20.4651(14)
_cell_length_c                   19.3745(13)
_cell_angle_alpha                90
_cell_angle_beta                 93.4070(10)
_cell_angle_gamma                90
_cell_volume                     3833.05
loop_
_atom_site_label
_atom_site_type_symbol
_atom_site_fract_x
_atom_site_fract_y
_atom_site_fract_z
Ni1 Ni 0.67833(3) 0.765958(13) 0.117889(14)
O1 O 0.75550(18) 0.76556(7) 0.22276(8)
N1 N 0.5171(2) 1.22811(9) 0.37199(10)
O2 O 0.68677(17) 0.78019(7) 0.01018(8)
N2 N 0.6006(2) 0.86155(9) 0.13719(10)
N3 N 0.7330(2) 0.66560(9) 0.10116(10)
N4 N 0.6738(2) 1.16777(10) 0.32212(11)
C1 C 0.6169(2) 1.20822(11) 0.42235(12)
C2 C 0.9157(3) 0.80733(11) 0.04810(14)
N5 N 0.87248(19) 0.79446(9) 0.11035(10)
N6 N 0.7236(2) 0.57079(9) 0.04404(10)
C3 C 0.9558(2) 0.79663(11) 0.16777(14)
N7 N 0.5121(2) 0.94121(9) 0.19988(10)
C4 C 0.5559(2) 1.20278(12) 0.31413(13)
H1 H 0.5070 1.2084 0.2718
C5 C 0.6306(3) 1.22097(12) 0.49278(13)
H2 H 0.5622 1.2440 0.5142
C6 C 0.7169(2) 1.17054(11) 0.39126(12)
C7 C 0.5076(2) 0.89774(11) 0.09482(12)
O3 O 0.8299(2) 0.81501(11) -0.06848(10)
C8 C 0.5987(3) 0.88921(11) 0.19827(12)
H3 H 0.6517 0.8746 0.2368
C9 C 0.7917(2) 0.61719(10) 0.14401(12)
C10 C 0.8491(2) 0.61934(11) 0.21139(13)
H4 H 0.8504 0.6584 0.2360
C11 C 0.4778(3) 0.97791(13) 0.26161(14)
H5 H 0.5177 0.9554 0.3021
H6 H 0.3782 0.9777 0.2645
O4 O 0.9436(3) 0.79028(11) 0.28938(11)
C12 C 0.6925(3) 0.52398(12) -0.01234(14)
H7 H 0.7724 0.4962 -0.0173
H8 H 0.6755 0.5478 -0.0553
C13 C 0.5272(3) 1.04776(12) 0.26375(15)
H9 H 0.4850 1.0700 0.3013
H10 H 0.4953 1.0691 0.2210
C14 C 0.6955(2) 0.63550(11) 0.04308(13)
H11 H 0.6536 0.6567 0.0049
C15 C 0.9043(3) 0.56313(12) 0.24183(13)
C16 C 0.7871(2) 0.55747(11) 0.10830(12)
C17 C 0.8348(2) 1.14842(12) 0.42844(14)
H12 H 0.9011 1.1240 0.4071
C18 C 0.4669(2) 0.89105(11) 0.02554(12)
H13 H 0.5067 0.8591 -0.0010
C19 C 0.3671(3) 0.93212(12) -0.00386(13)
C20 C 0.3514(3) 0.99009(12) 0.10450(14)
H14 H 0.3149 1.0233 0.1307
C21 C 0.8431(3) 0.50087(11) 0.13817(14)
H15 H 0.8399 0.4616 0.1140
C22 C 0.8813(3) 0.78301(11) 0.23284(14)
C23 C 0.8027(3) 0.80057(11) -0.00915(13)
C24 C 0.7470(3) 1.19901(13) 0.53074(13)
C25 C 1.0531(3) 0.82433(13) 0.04090(17)
H16 H 1.0845 0.8345 -0.0023
C26 C 1.1421(3) 0.82583(14) 0.09935(19)
H17 H 1.2347 0.8364 0.0955
C27 C 0.3090(3) 0.98197(12) 0.03607(15)
C28 C 0.4504(2) 0.94734(11) 0.13363(12)
C29 C 0.9659(3) 0.56618(14) 0.31532(14)
H18 H 0.9465 0.6080 0.3349
H19 H 1.0642 0.5600 0.3155
H20 H 0.9261 0.5324 0.3422
C30 C 0.9032(3) 0.50409(12) 0.20425(15)
C31 C 0.5669(3) 0.48118(12) 0.00007(16)
H21 H 0.5586 0.4479 -0.0356
H22 H 0.5821 0.4592 0.0442
C32 C 0.8511(3) 1.16368(12) 0.49790(14)
C33 C 0.6831(3) 1.05576(13) 0.27324(14)
H23 H 0.7261 1.0305 0.2380
H24 H 0.7144 1.0379 0.3179
C34 C 1.0945(3) 0.81170(12) 0.16334(17)
H25 H 1.1543 0.8123 0.2027
C35 C 0.9845(3) 1.14510(15) 0.53794(16)
H26 H 1.0325 1.1129 0.5125
H27 H 0.9638 1.1275 0.5821
H28 H 1.0418 1.1831 0.5446
C36 C 0.3205(3) 0.92298(15) -0.07909(14)
H29 H 0.3760 0.8899 -0.0990
H30 H 0.3308 0.9634 -0.1034
H31 H 0.2252 0.9099 -0.0826
C37 C 0.2000(3) 1.02703(15) 0.00259(17)
H32 H 0.1700 1.0574 0.0363
H33 H 0.1225 1.0016 -0.0152
H34 H 0.2386 1.0505 -0.0346
C38 C 0.9654(4) 0.44277(14) 0.23738(18)
H35 H 0.9470 0.4062 0.2073
H36 H 0.9251 0.4351 0.2807
H37 H 1.0636 0.4483 0.2451
C39 C 0.7633(4) 1.21398(18) 0.60752(15)
H38 H 0.6837 1.2375 0.6212
H39 H 0.8448 1.2400 0.6168
H40 H 0.7719 1.1738 0.6331
C40 C 0.7315(3) 1.12654(13) 0.26918(14)
H41 H 0.8317 1.1278 0.2747
H42 H 0.7043 1.1440 0.2238
N3B N 0.2670(2) 0.33440(9) -0.10116(10)
N6B N 0.2764(2) 0.42921(9) -0.04404(10)
C9B C 0.2083(2) 0.38281(10) -0.14401(12)
C10B C 0.1509(2) 0.38066(11) -0.21139(13)
H4B H 0.1496 0.3416 -0.2360
C12B C 0.3075(3) 0.47602(12) 0.01234(14)
H7B H 0.2276 0.5038 0.0173
H8B H 0.3245 0.4522 0.0553
C14B C 0.3045(2) 0.36450(11) -0.04308(13)
H11B H 0.3464 0.3433 -0.0049
C15B C 0.0957(3) 0.43687(12) -0.24183(13)
C16B C 0.2129(2) 0.44253(11) -0.10830(12)
C21B C 0.1569(3) 0.49913(11) -0.13817(14)
H15B H 0.1601 0.5384 -0.1140
C29B C 0.0341(3) 0.43382(14) -0.31532(14)
H18B H 0.0535 0.3920 -0.3349
H19B H -0.0642 0.4400 -0.3155
H20B H 0.0739 0.4676 -0.3422
C30B C 0.0968(3) 0.49591(12) -0.20425(15)
C31B C 0.4331(3) 0.51882(12) -0.00007(16)
H21B H 0.4414 0.5521 0.0356
H22B H 0.4179 0.5408 -0.0442
C38B C 0.0346(4) 0.55723(14) -0.23738(18)
H35B H 0.0530 0.5938 -0.2073
H36B H 0.0749 0.5649 -0.2807
H37B H -0.0636 0.5517 -0.2451
Ni1B Ni 0.32167(3) 0.234042(13) -0.117889(14)
O1B O 0.24450(18) 0.23444(7) -0.22276(8)
N1B N 0.4829(2) -0.22811(9) -0.37199(10)
O2B O 0.31323(17) 0.21981(7) -0.01018(8)
N2B N 0.3994(2) 0.13845(9) -0.13719(10)
N4B N 0.3262(2) -0.16777(10) -0.32212(11)
C1B C 0.3831(2) -0.20822(11) -0.42235(12)
C2B C 0.0843(3) 0.19267(11) -0.04810(14)
N5B N 0.12752(19) 0.20554(9) -0.11035(10)
C3B C 0.0442(2) 0.20337(11) -0.16777(14)
N7B N 0.4879(2) 0.05879(9) -0.19988(10)
C4B C 0.4441(2) -0.20278(12) -0.31413(13)
H1B H 0.4930 -0.2084 -0.2718
C5B C 0.3694(3) -0.22097(12) -0.49278(13)
H2B H 0.4378 -0.2440 -0.5142
C6B C 0.2831(2) -0.17054(11) -0.39126(12)
C7B C 0.4924(2) 0.10226(11) -0.09482(12)
O3B O 0.1701(2) 0.18499(11) 0.06848(10)
C8B C 0.4013(3) 0.11079(11) -0.19827(12)
H3B H 0.3483 0.1254 -0.2368
C11B C 0.5222(3) 0.02209(13) -0.26161(14)
H5B H 0.4823 0.0446 -0.3021
H6B H 0.6218 0.0223 -0.2645
O4B O 0.0564(3) 0.20972(11) -0.28938(11)
C13B C 0.4728(3) -0.04776(12) -0.26375(15)
H9B H 0.5150 -0.0700 -0.3013
H10B H 0.5047 -0.0691 -0.2210
C17B C 0.1652(2) -0.14842(12) -0.42844(14)
H12B H 0.0989 -0.1240 -0.4071
C18B C 0.5331(2) 0.10895(11) -0.02554(12)
H13B H 0.4933 0.1409 0.0010
C19B C 0.6329(3) 0.06788(12) 0.00386(13)
C20B C 0.6486(3) 0.00991(12) -0.10450(14)
H14B H 0.6851 -0.0233 -0.1307
C22B C 0.1187(3) 0.21699(11) -0.23284(14)
C23B C 0.1973(3) 0.19943(11) 0.00915(13)
C24B C 0.2530(3) -0.19901(13) -0.53074(13)
C25B C -0.0531(3) 0.17567(13) -0.04090(17)
H16B H -0.0845 0.1655 0.0023
C26B C -0.1421(3) 0.17417(14) -0.09935(19)
H17B H -0.2347 0.1636 -0.0955
C27B C 0.6910(3) 0.01803(12) -0.03607(15)
C28B C 0.5496(2) 0.05266(11) -0.13363(12)
C32B C 0.1489(3) -0.16368(12) -0.49790(14)
C33B C 0.3169(3) -0.05576(13) -0.27324(14)
H23B H 0.2739 -0.0305 -0.2380
H24B H 0.2856 -0.0379 -0.3179
C34B C -0.0945(3) 0.18830(12) -0.16334(17)
H25B H -0.1543 0.1877 -0.2027
C35B C 0.0155(3) -0.14510(15) -0.53794(16)
H26B H -0.0325 -0.1129 -0.5125
H27B H 0.0362 -0.1275 -0.5821
H28B H -0.0418 -0.1831 -0.5446
C36B C 0.6795(3) 0.07702(15) 0.07909(14)
H29B H 0.6240 0.1101 0.0990
H30B H 0.6692 0.0366 0.1034
H31B H 0.7748 0.0901 0.0826
C37B C 0.8000(3) -0.02703(15) -0.00259(17)
H32B H 0.8300 -0.0574 -0.0363
H33B H 0.8775 -0.0016 0.0152
H34B H 0.7614 -0.0505 0.0346
C39B C 0.2367(4) -0.21398(18) -0.60752(15)
H38B H 0.3163 -0.2375 -0.6212
H39B H 0.1552 -0.2400 -0.6168
H40B H 0.2281 -0.1738 -0.6331
C40B C 0.2685(3) -0.12654(13) -0.26918(14)
H41B H 0.1683 -0.1278 -0.2747
H42B H 0.2957 -0.1440 -0.2238
Ni1A Ni 0.32167(3) 1.265958(13) 0.382111(14)
Ni1C Ni 0.67833(3) -0.265958(13) -0.382111(14)
N1A N 0.4829(2) 0.72811(9) 0.12801(10)
N1C N 0.5171(2) 0.27189(9) -0.12801(10)
O5 O 0.6138(3) 0.77920(17) 0.83642(13)
H43 H 0.6587 0.8078 0.8605
H44 H 0.6622 0.7614 0.8077
O6 O 0.6962(4) 0.85146(15) 0.36664(13)
loop_
_geom_bond_atom_site_label_1
_geom_bond_atom_site_label_2
_geom_bond_site_symmetry_1
_geom_bond_site_symmetry_2
Ni1 O1 1_555 1_555
O1 C22 1_555 1_555
N1 C1 1_555 1_555
O2 Ni1 1_555 1_555
N2 Ni1 1_555 1_555
N3 Ni1 1_555 1_555
N4 C4 1_555 1_555
C1 C5 1_555 1_555
C2 N5 1_555 1_555
N5 Ni1 1_555 1_555
N6 C12 1_555 1_555
C3 N5 1_555 1_555
N7 C8 1_555 1_555
C4 N1 1_555 1_555
H1 C4 1_555 1_555
C5 H2 1_555 1_555
C6 N4 1_555 1_555
C7 N2 1_555 1_555
O3 C23 1_555 1_555
C8 N2 1_555 1_555
H3 C8 1_555 1_555
C9 N3 1_555 1_555
C10 C9 1_555 1_555
H4 C10 1_555 1_555
C11 N7 1_555 1_555
H5 C11 1_555 1_555
H6 C11 1_555 1_555
O4 C22 1_555 1_555
C12 H7 1_555 1_555
H8 C12 1_555 1_555
C13 C11 1_555 1_555
H9 C13 1_555 1_555
H10 C13 1_555 1_555
C14 N3 1_555 1_555
H11 C14 1_555 1_555
C15 C10 1_555 1_555
C16 N6 1_555 1_555
C17 C6 1_555 1_555
H12 C17 1_555 1_555
C18 C7 1_555 1_555
H13 C18 1_555 1_555
C19 C18 1_555 1_555
C20 H14 1_555 1_555
C21 C16 1_555 1_555
H15 C21 1_555 1_555
C22 C3 1_555 1_555
C23 O2 1_555 1_555
C24 C5 1_555 1_555
C25 C2 1_555 1_555
H16 C25 1_555 1_555
C26 C25 1_555 1_555
H17 C26 1_555 1_555
C27 C19 1_555 1_555
C28 N7 1_555 1_555
C29 C15 1_555 1_555
H18 C29 1_555 1_555
H19 C29 1_555 1_555
H20 C29 1_555 1_555
C30 C15 1_555 1_555
C31 C12 1_555 1_555
H21 C31 1_555 1_555
H22 C31 1_555 1_555
C32 C17 1_555 1_555
C33 C13 1_555 1_555
H23 C33 1_555 1_555
H24 C33 1_555 1_555
C34 C3 1_555 1_555
H25 C34 1_555 1_555
C35 C32 1_555 1_555
H26 C35 1_555 1_555
H27 C35 1_555 1_555
H28 C35 1_555 1_555
C36 C19 1_555 1_555
H29 C36 1_555 1_555
H30 C36 1_555 1_555
H31 C36 1_555 1_555
C37 C27 1_555 1_555
H32 C37 1_555 1_555
H33 C37 1_555 1_555
H34 C37 1_555 1_555
C38 C30 1_555 1_555
H35 C38 1_555 1_555
H36 C38 1_555 1_555
H37 C38 1_555 1_555
C39 C24 1_555 1_555
H38 C39 1_555 1_555
H39 C39 1_555 1_555
H40 C39 1_555 1_555
C40 N4 1_555 1_555
H41 C40 1_555 1_555
H42 C40 1_555 1_555
O5 H43 1_555 1_555
H44 O5 1_555 1_555
N3B C9B 1_555 1_555
N6B C12B 1_555 1_555
C9B C10B 1_555 1_555
C10B H4B 1_555 1_555
C12B H7B 1_555 1_555
H8B C12B 1_555 1_555
C14B N3B 1_555 1_555
H11B C14B 1_555 1_555
C15B C10B 1_555 1_555
C16B N6B 1_555 1_555
C21B C16B 1_555 1_555
H15B C21B 1_555 1_555
C29B C15B 1_555 1_555
H18B C29B 1_555 1_555
H19B C29B 1_555 1_555
H20B C29B 1_555 1_555
C30B C15B 1_555 1_555
C31B C31 1_555 1_555
H21B C31B 1_555 1_555
H22B C31B 1_555 1_555
C38B C30B 1_555 1_555
H35B C38B 1_555 1_555
H36B C38B 1_555 1_555
H37B C38B 1_555 1_555
Ni1B N3B 1_555 1_555
O1B Ni1B 1_555 1_555
N1B C1B 1_555 1_555
O2B Ni1B 1_555 1_555
N2B Ni1B 1_555 1_555
N4B C4B 1_555 1_555
C1B C5B 1_555 1_555
C2B N5B 1_555 1_555
N5B Ni1B 1_555 1_555
C3B N5B 1_555 1_555
N7B C8B 1_555 1_555
C4B N1B 1_555 1_555
H1B C4B 1_555 1_555
C5B H2B 1_555 1_555
C6B N4B 1_555 1_555
C7B N2B 1_555 1_555
O3B C23B 1_555 1_555
C8B N2B 1_555 1_555
H3B C8B 1_555 1_555
C11B N7B 1_555 1_555
H5B C11B 1_555 1_555
H6B C11B 1_555 1_555
O4B C22B 1_555 1_555
C13B C11B 1_555 1_555
H9B C13B 1_555 1_555
H10B C13B 1_555 1_555
C17B C6B 1_555 1_555
H12B C17B 1_555 1_555
C18B C7B 1_555 1_555
H13B C18B 1_555 1_555
C19B C18B 1_555 1_555
C20B H14B 1_555 1_555
C22B O1B 1_555 1_555
C23B O2B 1_555 1_555
C24B C5B 1_555 1_555
C25B C2B 1_555 1_555
H16B C25B 1_555 1_555
C26B C25B 1_555 1_555
H17B C26B 1_555 1_555
C27B C19B 1_555 1_555
C28B N7B 1_555 1_555
C32B C17B 1_555 1_555
C33B C13B 1_555 1_555
H23B C33B 1_555 1_555
H24B C33B 1_555 1_555
C34B C3B 1_555 1_555
H25B C34B 1_555 1_555
C35B C32B 1_555 1_555
H26B C35B 1_555 1_555
H27B C35B 1_555 1_555
H28B C35B 1_555 1_555
C36B C19B 1_555 1_555
H29B C36B 1_555 1_555
H30B C36B 1_555 1_555
H31B C36B 1_555 1_555
C37B C27B 1_555 1_555
H32B C37B 1_555 1_555
H33B C37B 1_555 1_555
H34B C37B 1_555 1_555
C39B C24B 1_555 1_555
H38B C39B 1_555 1_555
H39B C39B 1_555 1_555
H40B C39B 1_555 1_555
C40B N4B 1_555 1_555
H41B C40B 1_555 1_555
H42B C40B 1_555 1_555
Ni1A N1 1_555 1_555
Ni1C N1B 1_555 1_555
N1A Ni1 1_555 1_555
N1C Ni1B 1_555 1_555
C1 C6 1_555 1_555
C2 C23 1_555 1_555
N6 C14 1_555 1_555
C7 C28 1_555 1_555
C9 C16 1_555 1_555
C20 C27 1_555 1_555
C20 C28 1_555 1_555
C21 C30 1_555 1_555
C24 C32 1_555 1_555
C26 C34 1_555 1_555
C33 C40 1_555 1_555
N6B C14B 1_555 1_555
C9B C16B 1_555 1_555
C12B C31B 1_555 1_555
C21B C30B 1_555 1_555
C1B C6B 1_555 1_555
C2B C23B 1_555 1_555
C3B C22B 1_555 1_555
C7B C28B 1_555 1_555
C20B C27B 1_555 1_555
C20B C28B 1_555 1_555
C24B C32B 1_555 1_555
C26B C34B 1_555 1_555
C33B C40B 1_555 1_555

#END
