
#######################################################################
#
#                 Cambridge Crystallographic Data Centre
#                                CCDC 
#
#######################################################################
#
# If this CIF has been generated from an entry in the Cambridge 
# Structural Database, then it will include bibliographic, chemical, 
# crystal, experimental, refinement or atomic coordinate data resulting 
# from the CCDC's data processing and validation procedures.
#
#######################################################################

data_VIQVEY
_symmetry_cell_setting           triclinic
_symmetry_space_group_name_H-M   'P -1'
_symmetry_Int_Tables_number      2
_space_group_name_Hall           '-P 1'
loop_
_symmetry_equiv_pos_site_id
_symmetry_equiv_pos_as_xyz
1 x,y,z
2 -x,-y,-z
_cell_length_a                   12.472(4)
_cell_length_b                   12.760(4)
_cell_length_c                   14.192(4)
_cell_angle_alpha                76.778(5)
_cell_angle_beta                 80.258(5)
_cell_angle_gamma                68.709(4)
_cell_volume                     2039.35
loop_
_atom_site_label
_atom_site_type_symbol
_atom_site_fract_x
_atom_site_fract_y
_atom_site_fract_z
Cd1 Cd 0.33555(3) 0.70091(3) 0.70573(3)
Cd2 Cd 0.47331(3) 0.65745(3) 0.40932(3)
S1 S 0.14084(11) 0.87936(11) 0.64153(10)
S2 S 0.17337(11) 0.60709(11) 0.82497(10)
S3 S 0.23750(12) 0.84680(11) 0.99173(10)
S4 S 0.24515(12) 0.74045(11) 1.34910(10)
C1 C 0.3638(4) 0.8528(4) 0.4890(4)
C2 C 0.3091(4) 0.9605(4) 0.5311(4)
C3 C 0.3601(4) 1.0455(4) 0.4965(4)
H1 H 0.4154 1.0379 0.4433
C4 C 0.3295(5) 1.1404(5) 0.5401(5)
H2 H 0.3630 1.1967 0.5155
C5 C 0.2496(5) 1.1508(5) 0.6200(5)
H3 H 0.2329 1.2119 0.6519
C6 C 0.1934(5) 1.0712(5) 0.6539(4)
H4 H 0.1371 1.0809 0.7064
C7 C 0.2217(4) 0.9755(4) 0.6084(4)
C8 C 0.0447(4) 0.9241(5) 0.7487(4)
H5 H 0.0890 0.9019 0.8044
H6 H 0.0085 1.0066 0.7371
C9 C -0.0475(4) 0.8678(5) 0.7693(4)
C10 C -0.1460(5) 0.9219(5) 0.7193(4)
H7 H -0.1508 0.9882 0.6737
C11 C -0.2360(5) 0.8805(6) 0.7351(5)
H8 H -0.3016 0.9197 0.7020
C12 C -0.2284(5) 0.7803(6) 0.8005(5)
H9 H -0.2880 0.7504 0.8104
C13 C -0.1313(5) 0.7242(5) 0.8515(4)
H10 H -0.1269 0.6571 0.8960
C14 C -0.0402(4) 0.7672(4) 0.8369(4)
C15 C 0.0604(4) 0.7024(5) 0.8969(4)
H11 H 0.0358 0.6582 0.9562
H12 H 0.0897 0.7554 0.9144
C16 C 0.2791(4) 0.5234(4) 0.9087(4)
C17 C 0.2587(5) 0.5340(4) 1.0067(4)
H13 H 0.1913 0.5873 1.0292
C18 C 0.3411(5) 0.4635(5) 1.0702(4)
H14 H 0.3278 0.4705 1.1353
C19 C 0.4417(5) 0.3838(5) 1.0387(4)
H15 H 0.4957 0.3374 1.0819
C20 C 0.4606(5) 0.3742(4) 0.9419(4)
H16 H 0.5279 0.3195 0.9208
C21 C 0.3831(4) 0.4431(4) 0.8748(4)
C22 C 0.4142(4) 0.4316(4) 0.7699(4)
C23 C 0.3972(5) 0.8627(4) 0.7921(4)
C24 C 0.3799(4) 0.9469(4) 0.8569(4)
C25 C 0.4345(5) 1.0279(5) 0.8247(4)
H17 H 0.4775 1.0285 0.7644
C26 C 0.4272(5) 1.1076(5) 0.8795(5)
H18 H 0.4637 1.1616 0.8561
C27 C 0.3651(5) 1.1055(5) 0.9688(4)
H19 H 0.3610 1.1576 1.0068
C28 C 0.3086(5) 1.0275(5) 1.0036(4)
H20 H 0.2664 1.0283 1.0643
C29 C 0.3135(4) 0.9464(4) 0.9486(4)
C30 C 0.1630(5) 0.8841(5) 1.1078(4)
H21 H 0.2182 0.8743 1.1525
H22 H 0.1115 0.9630 1.0988
C31 C 0.0956(4) 0.8040(4) 1.1460(4)
C32 C -0.0127(5) 0.8318(5) 1.1132(4)
H23 H -0.0423 0.9016 1.0721
C33 C -0.0775(6) 0.7601(7) 1.1390(5)
H24 H -0.1491 0.7809 1.1157
C34 C -0.0337(6) 0.6574(6) 1.2000(5)
H25 H -0.0751 0.6070 1.2167
C35 C 0.0713(6) 0.6282(5) 1.2369(4)
H26 H 0.0981 0.5595 1.2800
C36 C 0.1380(5) 0.6999(5) 1.2105(4)
C37 C 0.2523(5) 0.6640(5) 1.2514(4)
H27 H 0.3096 0.6783 1.1996
H28 H 0.2770 0.5824 1.2768
C38 C 0.1602(4) 0.6830(4) 1.4475(4)
C39 C 0.0485(5) 0.7573(5) 1.4655(4)
H29 H 0.0233 0.8284 1.4253
C40 C -0.0258(5) 0.7274(6) 1.5424(5)
H30 H -0.1003 0.7780 1.5532
C41 C 0.0099(6) 0.6244(6) 1.6020(6)
H31 H -0.0393 0.6046 1.6543
C42 C 0.1211(6) 0.5482(6) 1.5842(5)
H32 H 0.1439 0.4770 1.6246
C43 C 0.1995(4) 0.5749(4) 1.5081(4)
C44 C 0.3202(5) 0.4875(4) 1.5040(4)
O1 O 0.4159(3) 0.8556(3) 0.4060(3)
O2 O 0.5399(4) 0.6328(4) 0.7001(3)
H33 H 0.582(5) 0.604(4) 0.653(3)
H34 H 0.549(5) 0.698(3) 0.690(4)
O3 O 0.3615(3) 0.7555(3) 0.5413(2)
O4 O 0.3748(3) 0.5153(3) 0.7027(3)
O5 O 0.4839(3) 0.3362(3) 0.7514(3)
O6 O 0.3291(3) 0.8033(3) 0.8132(3)
O7 O 0.4739(4) 0.8532(3) 0.7225(3)
O8 O 0.4014(3) 0.5106(3) 1.4487(4)
O9 O 0.3376(3) 0.3926(3) 1.5575(3)
Cd2_2 Cd 0.47331(3) 0.65745(3) 1.40932(3)
Cd2A Cd 0.52669(3) 0.34255(3) 0.59068(3)
Cd2A_2 Cd 0.52669(3) 0.34255(3) 1.59068(3)
S4_2 S 0.24515(12) 0.74045(11) 0.34910(10)
O5A O 0.5161(3) 0.6638(3) 0.2486(3)
O8_2 O 0.4014(3) 0.5106(3) 0.4487(4)
O8A O 0.5986(3) 0.4894(3) 0.5513(4)
O9A O 0.6624(3) 0.6074(3) 0.4425(3)
loop_
_geom_bond_atom_site_label_1
_geom_bond_atom_site_label_2
_geom_bond_site_symmetry_1
_geom_bond_site_symmetry_2
Cd1 S1 1_555 1_555
Cd2 O1 1_555 1_555
S1 C7 1_555 1_555
S2 Cd1 1_555 1_555
S3 C29 1_555 1_555
S4 C37 1_555 1_555
C1 C2 1_555 1_555
C2 C3 1_555 1_555
C3 H1 1_555 1_555
C4 C3 1_555 1_555
H2 C4 1_555 1_555
C5 C4 1_555 1_555
H3 C5 1_555 1_555
C6 C5 1_555 1_555
H4 C6 1_555 1_555
C7 C2 1_555 1_555
C8 S1 1_555 1_555
H5 C8 1_555 1_555
H6 C8 1_555 1_555
C9 C8 1_555 1_555
C10 C9 1_555 1_555
H7 C10 1_555 1_555
C11 C10 1_555 1_555
H8 C11 1_555 1_555
C12 C11 1_555 1_555
H9 C12 1_555 1_555
C13 C12 1_555 1_555
H10 C13 1_555 1_555
C14 C9 1_555 1_555
C15 S2 1_555 1_555
H11 C15 1_555 1_555
H12 C15 1_555 1_555
C16 S2 1_555 1_555
C17 C16 1_555 1_555
H13 C17 1_555 1_555
C18 C17 1_555 1_555
H14 C18 1_555 1_555
C19 C18 1_555 1_555
H15 C19 1_555 1_555
C20 C19 1_555 1_555
H16 C20 1_555 1_555
C21 C16 1_555 1_555
C22 C21 1_555 1_555
C23 C24 1_555 1_555
C24 C25 1_555 1_555
C25 H17 1_555 1_555
C26 C25 1_555 1_555
H18 C26 1_555 1_555
C27 C26 1_555 1_555
H19 C27 1_555 1_555
C28 C27 1_555 1_555
H20 C28 1_555 1_555
C29 C24 1_555 1_555
C30 S3 1_555 1_555
H21 C30 1_555 1_555
H22 C30 1_555 1_555
C31 C30 1_555 1_555
C32 C31 1_555 1_555
H23 C32 1_555 1_555
C33 C32 1_555 1_555
H24 C33 1_555 1_555
C34 C33 1_555 1_555
H25 C34 1_555 1_555
C35 C34 1_555 1_555
H26 C35 1_555 1_555
C36 C31 1_555 1_555
C37 C36 1_555 1_555
H27 C37 1_555 1_555
H28 C37 1_555 1_555
C38 S4 1_555 1_555
C39 C38 1_555 1_555
H29 C39 1_555 1_555
C40 C39 1_555 1_555
H30 C40 1_555 1_555
C41 C40 1_555 1_555
H31 C41 1_555 1_555
C42 C41 1_555 1_555
H32 C42 1_555 1_555
C43 C38 1_555 1_555
C44 C43 1_555 1_555
O1 C1 1_555 1_555
O2 Cd1 1_555 1_555
H33 O2 1_555 1_555
H34 O2 1_555 1_555
O3 Cd1 1_555 1_555
O4 Cd1 1_555 1_555
O5 C22 1_555 1_555
O6 Cd1 1_555 1_555
O7 C23 1_555 1_555
O8 C44 1_555 1_555
O9 C44 1_555 1_555
Cd2_2 S4 1_555 1_555
Cd2A O5 1_555 1_555
Cd2A_2 O8 1_555 1_555
S4_2 Cd2 1_555 1_555
O5A Cd2 1_555 1_555
O8_2 Cd2 1_555 1_555
O8A Cd2 1_555 1_555
O9A Cd2 1_555 1_555
Cd2 O3 1_555 1_555
C1 O3 1_555 1_555
C6 C7 1_555 1_555
C13 C14 1_555 1_555
C14 C15 1_555 1_555
C20 C21 1_555 1_555
C22 O4 1_555 1_555
C23 O6 1_555 1_555
C28 C29 1_555 1_555
C35 C36 1_555 1_555
C42 C43 1_555 1_555
O8 Cd2_2 1_555 1_555
O9 Cd2A_2 1_555 1_555
Cd2A O8_2 1_555 1_555
Cd2A O8A 1_555 1_555

#END
