
#######################################################################
#
#                 Cambridge Crystallographic Data Centre
#                                CCDC 
#
#######################################################################
#
# If this CIF has been generated from an entry in the Cambridge 
# Structural Database, then it will include bibliographic, chemical, 
# crystal, experimental, refinement or atomic coordinate data resulting 
# from the CCDC's data processing and validation procedures.
#
#######################################################################

data_VIQYEA
_symmetry_cell_setting           orthorhombic
_symmetry_space_group_name_H-M   'P 21 21 21'
_symmetry_Int_Tables_number      19
_space_group_name_Hall           'P 2ac 2ab'
loop_
_symmetry_equiv_pos_site_id
_symmetry_equiv_pos_as_xyz
1 x,y,z
2 1/2-x,-y,1/2+z
3 1/2+x,1/2-y,-z
4 -x,1/2+y,1/2-z
_cell_length_a                   8.7159(1)
_cell_length_b                   10.1124(1)
_cell_length_c                   15.1177(2)
_cell_angle_alpha                90
_cell_angle_beta                 90
_cell_angle_gamma                90
_cell_volume                     1332.45
loop_
_atom_site_label
_atom_site_type_symbol
_atom_site_fract_x
_atom_site_fract_y
_atom_site_fract_z
Zn1 Zn 0.76499(2) 0.581358(18) 0.054015(12)
Cl1 Cl 0.95396(5) 0.67637(4) 0.13723(3)
O1 O 0.74408(15) 0.56446(12) -0.07708(7)
O2 O 0.97001(15) 0.60140(15) -0.14318(9)
O3 O 0.66575(16) 0.77615(13) 0.02836(10)
H1 H 0.613(3) 0.812(3) 0.0626(18)
H2 H 0.618(4) 0.785(3) -0.020(2)
N1 N 0.63221(17) 0.82038(15) -0.38484(9)
N2 N 0.65413(16) 0.61543(15) -0.43297(9)
N3 N 1.10474(16) 0.62176(15) -0.33696(10)
N4 N 0.93473(16) 0.47812(15) -0.38619(9)
C1 C 0.8282(2) 0.58938(17) -0.14333(11)
C2 C 0.7395(2) 0.60377(17) -0.22957(10)
H3 H 0.653(3) 0.650(2) -0.2171(14)
H4 H 0.707(2) 0.514(2) -0.2471(14)
C3 C 0.82575(19) 0.67388(17) -0.30594(11)
H5 H 0.866(2) 0.754(2) -0.2832(14)
C4 C 0.70912(19) 0.70436(16) -0.37684(10)
C5 C 0.5211(2) 0.80204(19) -0.44855(13)
H6 H 0.464(3) 0.874(3) -0.4635(17)
C6 C 0.5360(2) 0.6770(2) -0.47807(12)
H7 H 0.472(3) 0.629(2) -0.5220(15)
C7 C 0.6603(2) 0.94441(19) -0.33747(14)
H8 H 0.764(3) 0.964(2) -0.3364(17)
H9 H 0.611(3) 1.017(2) -0.3673(15)
H10 H 0.627(3) 0.937(3) -0.274(2)
C8 C 0.95392(18) 0.59214(17) -0.34276(10)
C9 C 1.1855(2) 0.52309(19) -0.37917(12)
H11 H 1.293(2) 0.524(2) -0.3836(13)
C10 C 1.08068(19) 0.43543(18) -0.40904(11)
H12 H 1.097(2) 0.352(2) -0.4385(15)
C11 C 1.1740(2) 0.7387(2) -0.29680(15)
H13 H 1.159(4) 0.811(4) -0.334(2)
H14 H 1.132(3) 0.750(3) -0.242(2)
H15 H 1.281(4) 0.727(3) -0.2880(19)
Zn1A Zn 0.73501(2) 0.418642(18) -0.445985(12)
N2A N 0.84587(16) 0.38457(15) 0.06703(9)
N4A N 0.56527(16) 0.52188(15) 0.11381(9)
loop_
_geom_bond_atom_site_label_1
_geom_bond_atom_site_label_2
_geom_bond_site_symmetry_1
_geom_bond_site_symmetry_2
Zn1 Cl1 1_555 1_555
O1 Zn1 1_555 1_555
O2 C1 1_555 1_555
O3 Zn1 1_555 1_555
H1 O3 1_555 1_555
H2 O3 1_555 1_555
N1 C4 1_555 1_555
N2 C4 1_555 1_555
N3 C8 1_555 1_555
N4 C8 1_555 1_555
C1 O1 1_555 1_555
C2 C1 1_555 1_555
H3 C2 1_555 1_555
H4 C2 1_555 1_555
C3 C2 1_555 1_555
H5 C3 1_555 1_555
C4 C3 1_555 1_555
C5 N1 1_555 1_555
H6 C5 1_555 1_555
C6 N2 1_555 1_555
H7 C6 1_555 1_555
C7 N1 1_555 1_555
H8 C7 1_555 1_555
H9 C7 1_555 1_555
H10 C7 1_555 1_555
C8 C3 1_555 1_555
C9 N3 1_555 1_555
H11 C9 1_555 1_555
C10 N4 1_555 1_555
H12 C10 1_555 1_555
C11 N3 1_555 1_555
H13 C11 1_555 1_555
H14 C11 1_555 1_555
H15 C11 1_555 1_555
Zn1A N2 1_555 1_555
N2A Zn1 1_555 1_555
N4A Zn1 1_555 1_555
N4 Zn1A 1_555 1_555
C5 C6 1_555 1_555
C9 C10 1_555 1_555

#END
