
#######################################################################
#
#                 Cambridge Crystallographic Data Centre
#                                CCDC 
#
#######################################################################
#
# If this CIF has been generated from an entry in the Cambridge 
# Structural Database, then it will include bibliographic, chemical, 
# crystal, experimental, refinement or atomic coordinate data resulting 
# from the CCDC's data processing and validation procedures.
#
#######################################################################

data_VIQYIE
_symmetry_cell_setting           monoclinic
_symmetry_space_group_name_H-M   'C c'
_symmetry_Int_Tables_number      9
_space_group_name_Hall           'C -2yc'
loop_
_symmetry_equiv_pos_site_id
_symmetry_equiv_pos_as_xyz
1 x,y,z
2 x,-y,1/2+z
3 1/2+x,1/2+y,z
4 1/2+x,1/2-y,1/2+z
_cell_length_a                   10.1766(2)
_cell_length_b                   23.8561(6)
_cell_length_c                   9.1995(2)
_cell_angle_alpha                90
_cell_angle_beta                 107.0078(14)
_cell_angle_gamma                90
_cell_volume                     2135.72
loop_
_atom_site_label
_atom_site_type_symbol
_atom_site_fract_x
_atom_site_fract_y
_atom_site_fract_z
Zn1 Zn 0.49678(3) 0.624237(11) 0.00214(3)
Cl1 Cl 0.54764(8) 0.69425(3) -0.13005(8)
O1 O 0.3994(2) 0.55828(8) -0.1046(2)
O2 O 0.5729(3) 0.54482(10) -0.2000(4)
N1 N 0.7369(2) 0.43457(10) -0.0809(3)
N2 N 0.6481(2) 0.40182(9) -0.3114(2)
N3 N 0.3373(2) 0.33886(9) -0.1453(3)
N4 N 0.3757(2) 0.35043(9) -0.3675(2)
C1 C 0.4627(3) 0.53048(11) -0.1823(3)
C2 C 0.3954(3) 0.47588(11) -0.2513(3)
H1 H 0.3007 0.4742 -0.2427
H2 H 0.3894 0.4748 -0.3606
C3 C 0.4776(3) 0.42412(11) -0.1704(3)
H3 H 0.4870 0.4274 -0.0595
C4 C 0.6201(3) 0.42031(10) -0.1874(3)
C5 C 0.8437(3) 0.42479(12) -0.1407(3)
H4 H 0.9383 0.4314 -0.0911
C6 C 0.7897(3) 0.40396(11) -0.2833(3)
C7 C 0.7513(4) 0.46039(16) 0.0681(3)
H5 H 0.7737 0.5006 0.0632
H6 H 0.6624 0.4578 0.0911
C8 C 0.8616(5) 0.43301(17) 0.1952(4)
H7 H 0.9504 0.4362 0.1744
H8 H 0.8667 0.4518 0.2915
H9 H 0.8391 0.3933 0.2022
C9 C 0.9958(3) 0.41094(13) -0.3819(4)
H10 H 1.0591 0.4050 -0.2800
H11 H 1.0362 0.3955 -0.4579
H12 H 0.9795 0.4512 -0.3998
C10 C 0.8589(3) 0.38122(12) -0.3945(3)
H13 H 0.7964 0.3871 -0.4996
C11 C 0.8828(4) 0.31810(14) -0.3685(4)
H14 H 0.7948 0.2994 -0.3794
H15 H 0.9247 0.3030 -0.4436
H16 H 0.9443 0.3116 -0.2660
C12 C 0.3981(3) 0.37106(11) -0.2276(3)
C13 C 0.2721(3) 0.29562(11) -0.2383(3)
H17 H 0.2201 0.2664 -0.2118
C14 C 0.2961(3) 0.30272(11) -0.3751(3)
C15 C 0.3404(3) 0.34659(13) 0.0138(3)
H18 H 0.3303 0.3096 0.0582
H19 H 0.4309 0.3621 0.0713
C16 C 0.2287(4) 0.38527(16) 0.0317(4)
H20 H 0.1386 0.3694 -0.0214
H21 H 0.2366 0.3895 0.1398
H22 H 0.2383 0.4220 -0.0118
C17 C 0.1840(5) 0.21346(15) -0.4898(5)
H23 H 0.1023 0.2217 -0.4578
H24 H 0.1574 0.1916 -0.5841
H25 H 0.2496 0.1919 -0.4102
C18 C 0.2505(3) 0.26815(13) -0.5166(3)
H26 H 0.3338 0.2586 -0.5482
C19 C 0.1527(5) 0.30103(17) -0.6459(4)
H27 H 0.1914 0.3382 -0.6529
H28 H 0.1401 0.2809 -0.7418
H29 H 0.0637 0.3051 -0.6259
Zn1A Zn 0.49678(3) 0.375763(11) -0.49786(3)
N2A N 0.6481(2) 0.59818(9) 0.1886(2)
N4A N 0.3757(2) 0.64957(9) 0.1325(2)
loop_
_geom_bond_atom_site_label_1
_geom_bond_atom_site_label_2
_geom_bond_site_symmetry_1
_geom_bond_site_symmetry_2
Zn1 Cl1 1_555 1_555
O1 Zn1 1_555 1_555
O2 C1 1_555 1_555
N1 C4 1_555 1_555
N2 C4 1_555 1_555
N3 C12 1_555 1_555
N4 C12 1_555 1_555
C1 O1 1_555 1_555
C2 C1 1_555 1_555
H1 C2 1_555 1_555
H2 C2 1_555 1_555
C3 C2 1_555 1_555
H3 C3 1_555 1_555
C4 C3 1_555 1_555
C5 N1 1_555 1_555
H4 C5 1_555 1_555
C6 N2 1_555 1_555
C7 N1 1_555 1_555
H5 C7 1_555 1_555
H6 C7 1_555 1_555
C8 C7 1_555 1_555
H7 C8 1_555 1_555
H8 C8 1_555 1_555
H9 C8 1_555 1_555
C9 H10 1_555 1_555
H11 C9 1_555 1_555
H12 C9 1_555 1_555
C10 C6 1_555 1_555
H13 C10 1_555 1_555
C11 C10 1_555 1_555
H14 C11 1_555 1_555
H15 C11 1_555 1_555
H16 C11 1_555 1_555
C12 C3 1_555 1_555
C13 N3 1_555 1_555
H17 C13 1_555 1_555
C14 N4 1_555 1_555
C15 N3 1_555 1_555
H18 C15 1_555 1_555
H19 C15 1_555 1_555
C16 C15 1_555 1_555
H20 C16 1_555 1_555
H21 C16 1_555 1_555
H22 C16 1_555 1_555
C17 H23 1_555 1_555
H24 C17 1_555 1_555
H25 C17 1_555 1_555
C18 C14 1_555 1_555
H26 C18 1_555 1_555
C19 C18 1_555 1_555
H27 C19 1_555 1_555
H28 C19 1_555 1_555
H29 C19 1_555 1_555
Zn1A N2 1_555 1_555
N2A Zn1 1_555 1_555
N4A Zn1 1_555 1_555
N4 Zn1A 1_555 1_555
C5 C6 1_555 1_555
C9 C10 1_555 1_555
C13 C14 1_555 1_555
C17 C18 1_555 1_555

#END
