
#######################################################################
#
#                 Cambridge Crystallographic Data Centre
#                                CCDC 
#
#######################################################################
#
# If this CIF has been generated from an entry in the Cambridge 
# Structural Database, then it will include bibliographic, chemical, 
# crystal, experimental, refinement or atomic coordinate data resulting 
# from the CCDC's data processing and validation procedures.
#
#######################################################################

data_VIQZAX
_symmetry_cell_setting           triclinic
_symmetry_space_group_name_H-M   'P -1'
_symmetry_Int_Tables_number      2
_space_group_name_Hall           '-P 1'
loop_
_symmetry_equiv_pos_site_id
_symmetry_equiv_pos_as_xyz
1 x,y,z
2 -x,-y,-z
_cell_length_a                   9.9634(7)
_cell_length_b                   12.0617(11)
_cell_length_c                   14.8889(9)
_cell_angle_alpha                113.021(3)
_cell_angle_beta                 90.365(3)
_cell_angle_gamma                102.513(3)
_cell_volume                     1599.38
loop_
_atom_site_label
_atom_site_type_symbol
_atom_site_fract_x
_atom_site_fract_y
_atom_site_fract_z
Zn1 Zn 0.63434(3) 0.34057(3) 0.36262(2)
Zn2 Zn 0.13397(3) 0.33929(3) 0.03342(2)
O1 O 0.5295(2) 0.26840(19) 0.23218(14)
O2 O 0.3338(2) 0.1703(2) 0.26837(15)
N1 N 0.3957(2) 0.1270(2) -0.13403(16)
N2 N 0.2233(2) 0.2088(2) -0.06970(16)
N3 N 0.5544(2) 0.4663(2) 0.12800(17)
N4 N 0.3283(2) 0.4334(2) 0.10276(17)
C1 C 0.4046(3) 0.2085(3) 0.2130(2)
C2 C 0.3360(3) 0.1761(3) 0.11130(19)
H1 H 0.2449 0.1971 0.1184
H2 H 0.3194 0.0853 0.0736
C3 C 0.4192(3) 0.2419(2) 0.05151(19)
H3 H 0.5133 0.2247 0.0467
C4 C 0.3455(3) 0.1915(2) -0.05029(19)
C5 C 0.3006(3) 0.1030(3) -0.2106(2)
H4 H 0.3077 0.0598 -0.2785
C6 C 0.1948(3) 0.1530(3) -0.1705(2)
H5 H 0.1138 0.1502 -0.2061
C7 C 0.5249(3) 0.0863(3) -0.1436(2)
H6 H 0.6032 0.1589 -0.1186
H7 H 0.5317 0.0368 -0.2128
H8 H 0.5263 0.0358 -0.1058
C8 C 0.4337(3) 0.3802(3) 0.09557(19)
C9 C 0.5239(3) 0.5810(3) 0.1580(2)
H9 H 0.5881 0.6595 0.1843
C10 C 0.3854(3) 0.5602(3) 0.1426(2)
H10 H 0.3350 0.6225 0.1567
C11 C 0.6938(3) 0.4461(3) 0.1311(3)
H11 H 0.7010 0.4035 0.1745
H12 H 0.7616 0.5262 0.1561
H13 H 0.7122 0.3950 0.0649
O3 O 1.0342(2) 0.26488(19) 0.11718(15)
O4 O 0.8315(2) 0.1877(2) 0.02421(15)
N5 N 0.9027(2) 0.1349(2) 0.39798(17)
N6 N 0.7240(2) 0.2076(2) 0.37925(16)
N7 N 1.0520(3) 0.4718(2) 0.34629(18)
N8 N 0.8263(3) 0.4349(2) 0.35156(18)
C12 C 0.9058(3) 0.2131(3) 0.0998(2)
C13 C 0.8393(3) 0.1777(3) 0.18019(19)
H14 H 0.8273 0.0873 0.1602
H15 H 0.7461 0.1946 0.1850
C14 C 0.9208(3) 0.2458(3) 0.28309(19)
H16 H 1.0158 0.2306 0.2784
C15 C 0.8495(3) 0.1955(2) 0.35300(19)
C16 C 0.8057(3) 0.1054(3) 0.4560(2)
H17 H 0.8136 0.0617 0.4960
C17 C 0.6967(3) 0.1512(3) 0.44454(19)
H18 H 0.6146 0.1455 0.4763
C18 C 1.0398(3) 0.1076(3) 0.3897(2)
H19 H 1.0429 0.0453 0.3239
H20 H 1.0579 0.0756 0.4386
H21 H 1.1103 0.1836 0.4011
C19 C 0.9329(3) 0.3837(3) 0.32547(19)
C20 C 1.0194(4) 0.5844(3) 0.3873(3)
H22 H 1.0822 0.6634 0.4094
C21 C 0.8805(4) 0.5620(3) 0.3904(3)
H23 H 0.8289 0.6233 0.4151
C22 C 1.1919(3) 0.4538(3) 0.3303(3)
H24 H 1.2114 0.4004 0.3618
H25 H 1.2587 0.5343 0.3587
H26 H 1.1993 0.4145 0.2598
O5 O 0.5634(2) 0.5170(2) 0.39636(15)
O6 O 0.4530(2) 0.63542(19) 0.51129(15)
C23 C 0.5054(3) 0.5443(3) 0.4735(2)
O7 O 0.0670(2) 0.5146(2) 0.11335(15)
O8 O -0.0452(2) 0.63520(19) 0.07696(15)
C24 C 0.0067(3) 0.5432(3) 0.0546(2)
Zn1A Zn 0.36566(3) 0.65943(3) 0.63738(2)
Zn1_2 Zn -0.36566(3) 0.34057(3) 0.36262(2)
Zn2_2 Zn 1.13397(3) 0.33929(3) 0.03342(2)
Zn2A Zn -0.13397(3) 0.66071(3) -0.03342(2)
Zn2A_2 Zn 0.86603(3) 0.66071(3) 0.96658(2)
O1A O 0.4705(2) 0.73160(19) 0.76782(14)
O2A O 0.6662(2) 0.8297(2) 0.73163(15)
N1A N 0.6043(2) 0.8730(2) 1.13403(16)
N2A N 0.7767(2) 0.7912(2) 1.06970(16)
N2_2 N 1.2233(2) 0.2088(2) -0.06970(16)
N3A N 0.4456(2) 0.5337(2) 0.87200(17)
N4A N 0.6717(2) 0.5666(2) 0.89724(17)
N4_2 N 1.3283(2) 0.4334(2) 0.10276(17)
C1A C 0.5954(3) 0.7915(3) 0.7870(2)
C2A C 0.6640(3) 0.8239(3) 0.88870(19)
H1A H 0.7551 0.8029 0.8816
H2A H 0.6806 0.9147 0.9264
C3A C 0.5808(3) 0.7581(2) 0.94849(19)
H3A H 0.4867 0.7753 0.9533
C4A C 0.6545(3) 0.8085(2) 1.05029(19)
C5A C 0.6994(3) 0.8970(3) 1.2106(2)
H4A H 0.6923 0.9402 1.2785
C6A C 0.8052(3) 0.8470(3) 1.1705(2)
H5A H 0.8862 0.8498 1.2061
C7A C 0.4751(3) 0.9137(3) 1.1436(2)
H6A H 0.3968 0.8411 1.1186
H7A H 0.4683 0.9632 1.2128
H8A H 0.4737 0.9642 1.1058
C8A C 0.5663(3) 0.6198(3) 0.90443(19)
C9A C 0.4761(3) 0.4190(3) 0.8420(2)
H9A H 0.4119 0.3405 0.8157
C10A C 0.6146(3) 0.4398(3) 0.8574(2)
H10A H 0.6650 0.3775 0.8433
C11A C 0.3062(3) 0.5539(3) 0.8689(3)
H11A H 0.2990 0.5965 0.8255
H12A H 0.2384 0.4738 0.8439
H13A H 0.2878 0.6050 0.9351
O3_2 O 0.0342(2) 0.26488(19) 0.11718(15)
O4_2 O -0.1685(2) 0.1877(2) 0.02421(15)
N5_2 N -0.0973(2) 0.1349(2) 0.39798(17)
N6_2 N -0.2760(2) 0.2076(2) 0.37925(16)
N6A N 0.2760(2) 0.7924(2) 0.62075(16)
N7_2 N 0.0520(3) 0.4718(2) 0.34629(18)
N8_2 N -0.1737(3) 0.4349(2) 0.35156(18)
N8A N 0.1737(3) 0.5651(2) 0.64844(18)
C12_2 C -0.0942(3) 0.2131(3) 0.0998(2)
C13_2 C -0.1607(3) 0.1777(3) 0.18019(19)
H14_2 H -0.1727 0.0873 0.1602
H15_2 H -0.2539 0.1946 0.1850
C14_2 C -0.0792(3) 0.2458(3) 0.28309(19)
H16_2 H 0.0158 0.2306 0.2784
C15_2 C -0.1505(3) 0.1955(2) 0.35300(19)
C16_2 C -0.1943(3) 0.1054(3) 0.4560(2)
H17_2 H -0.1864 0.0617 0.4960
C17_2 C -0.3033(3) 0.1512(3) 0.44454(19)
H18_2 H -0.3854 0.1455 0.4763
C18_2 C 0.0398(3) 0.1076(3) 0.3897(2)
H19_2 H 0.0429 0.0453 0.3239
H20_2 H 0.0579 0.0756 0.4386
H21_2 H 0.1103 0.1836 0.4011
C19_2 C -0.0671(3) 0.3837(3) 0.32547(19)
C20_2 C 0.0194(4) 0.5844(3) 0.3873(3)
H22_2 H 0.0822 0.6634 0.4094
C21_2 C -0.1195(4) 0.5620(3) 0.3904(3)
H23_2 H -0.1711 0.6233 0.4151
C22_2 C 0.1919(3) 0.4538(3) 0.3303(3)
H24_2 H 0.2114 0.4004 0.3618
H25_2 H 0.2587 0.5343 0.3587
H26_2 H 0.1993 0.4145 0.2598
O5A O 0.4366(2) 0.4830(2) 0.60364(15)
O6A O 0.5470(2) 0.36458(19) 0.48871(15)
C23A C 0.4946(3) 0.4557(3) 0.5265(2)
O7A O -0.0670(2) 0.4854(2) -0.11335(15)
O7_2 O 1.0670(2) 0.5146(2) 0.11335(15)
O8A O 0.0452(2) 0.36480(19) -0.07696(15)
O8A_2 O 1.0452(2) 0.36480(19) -0.07696(15)
C24A C -0.0067(3) 0.4568(3) -0.0546(2)
O9 O 0.3678(3) 0.2387(2) 0.61356(17)
H27 H 0.3404 0.1796 0.5578
H28 H 0.4145 0.2951 0.5994
O10 O 0.3423(2) 0.0799(2) 0.41761(16)
H29 H 0.3446 0.1176 0.3821
H30 H 0.3802 0.0051 0.3984
O11 O 0.4249(3) 0.8598(2) 0.34157(19)
H31 H 0.3438 0.8153 0.3243
H32 H 0.4767 0.8314 0.3653
O12 O 0.1485(2) 0.9225(2) 0.17825(16)
H33 H 0.1553 0.8861 0.1152
H34 H 0.1917 1.0015 0.2051
O13 O 0.1457(3) 0.7615(2) 0.27284(18)
H35 H 0.1162 0.6951 0.2178
H36 H 0.1493 0.8037 0.2416
O14 O 0.0770(4) 0.1529(4) 0.6136(3)
H37 H 0.1847 0.2066 0.6346
H38 H -0.0117 0.1921 0.6496
loop_
_geom_bond_atom_site_label_1
_geom_bond_atom_site_label_2
_geom_bond_site_symmetry_1
_geom_bond_site_symmetry_2
Zn1 O1 1_555 1_555
Zn2 N2 1_555 1_555
O1 C1 1_555 1_555
O2 C1 1_555 1_555
N1 C4 1_555 1_555
N2 C4 1_555 1_555
N3 C8 1_555 1_555
N4 Zn2 1_555 1_555
C1 C2 1_555 1_555
C2 H1 1_555 1_555
H2 C2 1_555 1_555
C3 C2 1_555 1_555
H3 C3 1_555 1_555
C4 C3 1_555 1_555
C5 N1 1_555 1_555
H4 C5 1_555 1_555
C6 N2 1_555 1_555
H5 C6 1_555 1_555
C7 N1 1_555 1_555
H6 C7 1_555 1_555
H7 C7 1_555 1_555
H8 C7 1_555 1_555
C8 N4 1_555 1_555
C9 N3 1_555 1_555
H9 C9 1_555 1_555
C10 N4 1_555 1_555
H10 C10 1_555 1_555
C11 N3 1_555 1_555
H11 C11 1_555 1_555
H12 C11 1_555 1_555
H13 C11 1_555 1_555
O3 C12 1_555 1_555
O4 C12 1_555 1_555
N5 C15 1_555 1_555
N6 Zn1 1_555 1_555
N7 C19 1_555 1_555
N8 Zn1 1_555 1_555
C12 C13 1_555 1_555
C13 H14 1_555 1_555
H15 C13 1_555 1_555
C14 C13 1_555 1_555
H16 C14 1_555 1_555
C15 N6 1_555 1_555
C16 N5 1_555 1_555
H17 C16 1_555 1_555
C17 N6 1_555 1_555
H18 C17 1_555 1_555
C18 N5 1_555 1_555
H19 C18 1_555 1_555
H20 C18 1_555 1_555
H21 C18 1_555 1_555
C19 N8 1_555 1_555
C20 N7 1_555 1_555
H22 C20 1_555 1_555
C21 N8 1_555 1_555
H23 C21 1_555 1_555
C22 N7 1_555 1_555
H24 C22 1_555 1_555
H25 C22 1_555 1_555
H26 C22 1_555 1_555
O5 Zn1 1_555 1_555
O6 C23 1_555 1_555
C23 O5 1_555 1_555
O7 Zn2 1_555 1_555
O8 C24 1_555 1_555
C24 O7 1_555 1_555
O9 H27 1_555 1_555
H28 O9 1_555 1_555
O10 H29 1_555 1_555
H30 O10 1_555 1_555
O11 H31 1_555 1_555
H32 O11 1_555 1_555
O12 H33 1_555 1_555
H34 O12 1_555 1_555
O13 H35 1_555 1_555
H36 O13 1_555 1_555
O14 H37 1_555 1_555
H38 O14 1_555 1_555
Zn1A O6 1_555 1_555
Zn1_2 N6_2 1_555 1_555
Zn2_2 O3 1_555 1_555
Zn2A O8 1_555 1_555
Zn2A_2 N2A 1_555 1_555
O1A Zn1A 1_555 1_555
O2A C1A 1_555 1_555
N1A C4A 1_555 1_555
N2A C4A 1_555 1_555
N2_2 Zn2_2 1_555 1_555
N3A C8A 1_555 1_555
N4A Zn2A_2 1_555 1_555
N4_2 Zn2_2 1_555 1_555
C1A O1A 1_555 1_555
C2A C1A 1_555 1_555
H1A C2A 1_555 1_555
H2A C2A 1_555 1_555
C3A C2A 1_555 1_555
H3A C3A 1_555 1_555
C4A C3A 1_555 1_555
C5A N1A 1_555 1_555
H4A C5A 1_555 1_555
C6A N2A 1_555 1_555
H5A C6A 1_555 1_555
C7A N1A 1_555 1_555
H6A C7A 1_555 1_555
H7A C7A 1_555 1_555
H8A C7A 1_555 1_555
C8A N4A 1_555 1_555
C9A N3A 1_555 1_555
H9A C9A 1_555 1_555
C10A N4A 1_555 1_555
H10A C10A 1_555 1_555
C11A N3A 1_555 1_555
H11A C11A 1_555 1_555
H12A C11A 1_555 1_555
H13A C11A 1_555 1_555
O3_2 Zn2 1_555 1_555
O4_2 C12_2 1_555 1_555
N5_2 C15_2 1_555 1_555
N6_2 C15_2 1_555 1_555
N6A Zn1A 1_555 1_555
N7_2 C19_2 1_555 1_555
N8_2 Zn1_2 1_555 1_555
N8A Zn1A 1_555 1_555
C12_2 O3_2 1_555 1_555
C13_2 C12_2 1_555 1_555
H14_2 C13_2 1_555 1_555
H15_2 C13_2 1_555 1_555
C14_2 C13_2 1_555 1_555
H16_2 C14_2 1_555 1_555
C15_2 C14_2 1_555 1_555
C16_2 N5_2 1_555 1_555
H17_2 C16_2 1_555 1_555
C17_2 N6_2 1_555 1_555
H18_2 C17_2 1_555 1_555
C18_2 N5_2 1_555 1_555
H19_2 C18_2 1_555 1_555
H20_2 C18_2 1_555 1_555
H21_2 C18_2 1_555 1_555
C19_2 N8_2 1_555 1_555
C20_2 N7_2 1_555 1_555
H22_2 C20_2 1_555 1_555
C21_2 N8_2 1_555 1_555
H23_2 C21_2 1_555 1_555
C22_2 N7_2 1_555 1_555
H24_2 C22_2 1_555 1_555
H25_2 C22_2 1_555 1_555
H26_2 C22_2 1_555 1_555
O5A Zn1A 1_555 1_555
O6A Zn1 1_555 1_555
C23A C23 1_555 1_555
O7A Zn2A 1_555 1_555
O7_2 Zn2_2 1_555 1_555
O8A Zn2 1_555 1_555
O8A_2 Zn2_2 1_555 1_555
C24A C24 1_555 1_555
C3 C8 1_555 1_555
C5 C6 1_555 1_555
C9 C10 1_555 1_555
C14 C15 1_555 1_555
C14 C19 1_555 1_555
C16 C17 1_555 1_555
C20 C21 1_555 1_555
C3A C8A 1_555 1_555
C5A C6A 1_555 1_555
C9A C10A 1_555 1_555
C14_2 C19_2 1_555 1_555
C16_2 C17_2 1_555 1_555
C20_2 C21_2 1_555 1_555
O5A C23A 1_555 1_555
O6A C23A 1_555 1_555
O7A C24A 1_555 1_555
O8A C24A 1_555 1_555

#END
