
#######################################################################
#
#                 Cambridge Crystallographic Data Centre
#                                CCDC 
#
#######################################################################
#
# If this CIF has been generated from an entry in the Cambridge 
# Structural Database, then it will include bibliographic, chemical, 
# crystal, experimental, refinement or atomic coordinate data resulting 
# from the CCDC's data processing and validation procedures.
#
#######################################################################

data_VIRCUW
_symmetry_cell_setting           monoclinic
_symmetry_space_group_name_H-M   'P 21/c'
_symmetry_Int_Tables_number      14
_space_group_name_Hall           '-P 2ybc'
loop_
_symmetry_equiv_pos_site_id
_symmetry_equiv_pos_as_xyz
1 x,y,z
2 -x,1/2+y,1/2-z
3 -x,-y,-z
4 x,1/2-y,1/2+z
_cell_length_a                   11.3662(8)
_cell_length_b                   16.9906(12)
_cell_length_c                   18.1108(10)
_cell_angle_alpha                90
_cell_angle_beta                 125.694(3)
_cell_angle_gamma                90
_cell_volume                     2840.5
loop_
_atom_site_label
_atom_site_type_symbol
_atom_site_fract_x
_atom_site_fract_y
_atom_site_fract_z
Ag1 Ag -0.34653(4) 0.52224(3) 0.12286(3)
N1 N -0.1601(5) 0.5251(2) 0.1210(3)
N2 N 0.4785(5) 0.5240(2) 0.1367(3)
C1 C -0.0773(6) 0.4605(3) 0.1425(4)
H1 H -0.1055 0.4149 0.1566
C2 C 0.0447(6) 0.4573(3) 0.1452(4)
H2 H 0.0964 0.4105 0.1604
C3 C 0.0920(5) 0.5240(3) 0.1251(3)
C4 C 0.0065(5) 0.5905(3) 0.1016(4)
H3 H 0.0321 0.6365 0.0865
C5 C -0.1155(5) 0.5892(3) 0.1003(4)
H4 H -0.1700 0.6351 0.0844
C6 C 0.2262(5) 0.5238(3) 0.1305(3)
C7 C 0.3025(5) 0.5926(3) 0.1439(3)
H5 H 0.2697 0.6404 0.1507
C8 C 0.4257(5) 0.5902(3) 0.1470(3)
H6 H 0.4754 0.6371 0.1569
C9 C 0.4066(6) 0.4563(3) 0.1258(4)
H7 H 0.4431 0.4092 0.1209
C10 C 0.2833(6) 0.4545(3) 0.1218(4)
H8 H 0.2367 0.4069 0.1132
Ag1_2 Ag 0.65347(4) 0.52224(3) 0.12286(3)
N2_2 N -0.5215(5) 0.5240(2) 0.1367(3)
Ag2 Ag 1.04087(5) 0.98356(3) 0.12181(3)
N3 N 0.8578(5) 0.9916(2) 0.1268(3)
N4 N 0.2184(5) 0.9926(2) 0.1111(3)
C11 C 0.7820(5) 0.9258(3) 0.1156(4)
H9 H 0.8167 0.8781 0.1103
C12 C 0.6590(5) 0.9247(3) 0.1114(4)
H10 H 0.6114 0.8773 0.1023
C13 C 0.6030(5) 0.9942(3) 0.1208(3)
C14 C 0.6818(6) 1.0624(3) 0.1334(4)
H11 H 0.6506 1.1108 0.1400
C15 C 0.8044(5) 1.0583(3) 0.1360(4)
H12 H 0.8540 1.1048 0.1447
C16 C 0.4710(5) 0.9937(3) 0.1167(3)
C17 C 0.3934(5) 0.9253(3) 0.1023(4)
H13 H 0.4257 0.8778 0.0946
C18 C 0.2703(6) 0.9267(3) 0.0991(4)
H14 H 0.2203 0.8798 0.0882
C19 C 0.2925(5) 1.0595(3) 0.1255(3)
H15 H 0.2589 1.1060 0.1342
C20 C 0.4148(5) 1.0620(3) 0.1279(3)
H16 H 0.4612 1.1099 0.1371
Ag2_2 Ag 0.04087(5) 0.98356(3) 0.12181(3)
N4_2 N 1.2184(5) 0.9926(2) 0.1111(3)
S1 S 0.27634(12) 0.79442(7) 0.27380(8)
O1 O 0.4895(3) 0.7506(2) 0.5474(2)
H17 H 0.5744 0.7647 0.5777
O2 O 0.4495(4) 0.8668(2) 0.4793(2)
O3 O 0.4194(3) 0.7604(2) 0.3331(2)
O4 O 0.2725(4) 0.87877(18) 0.2659(2)
O5 O 0.1919(3) 0.75563(19) 0.1856(2)
O6 O -0.2525(3) 0.7223(2) 0.1570(2)
O7 O -0.2736(4) 0.7239(3) 0.2702(3)
C21 C 0.4109(5) 0.8013(3) 0.4837(3)
C22 C 0.2553(4) 0.7756(3) 0.4187(3)
C23 C 0.1842(4) 0.7721(2) 0.3252(3)
C24 C 0.0382(5) 0.7541(2) 0.2684(3)
H18 H -0.0079 0.7511 0.2060
C25 C -0.0395(4) 0.7406(3) 0.3037(3)
C26 C 0.0318(5) 0.7406(3) 0.3973(3)
H19 H -0.0188 0.7294 0.4219
C27 C 0.1777(5) 0.7573(3) 0.4536(3)
H20 H 0.2251 0.7563 0.5162
C28 C -0.2005(5) 0.7269(3) 0.2409(3)
O8 O 0.9554(4) 0.8370(2) 0.0458(2)
H21 H 0.8909 0.8065 0.0047
H22 H 1.0324 0.8104 0.0802
O9 O 0.7241(4) 0.7593(2) 0.4177(3)
H23 H 0.6641 0.7673 0.4305
H24 H 0.6954 0.7830 0.3685
loop_
_geom_bond_atom_site_label_1
_geom_bond_atom_site_label_2
_geom_bond_site_symmetry_1
_geom_bond_site_symmetry_2
Ag1 N1 1_555 1_555
N1 C1 1_555 1_555
N2 C8 1_555 1_555
C1 H1 1_555 1_555
C2 C1 1_555 1_555
H2 C2 1_555 1_555
C3 C2 1_555 1_555
C4 C3 1_555 1_555
H3 C4 1_555 1_555
C5 N1 1_555 1_555
H4 C5 1_555 1_555
C6 C3 1_555 1_555
C7 C6 1_555 1_555
H5 C7 1_555 1_555
C8 C7 1_555 1_555
H6 C8 1_555 1_555
C9 N2 1_555 1_555
H7 C9 1_555 1_555
C10 C6 1_555 1_555
H8 C10 1_555 1_555
Ag2 N3 1_555 1_555
N3 C11 1_555 1_555
N4 C18 1_555 1_555
C11 H9 1_555 1_555
C12 C11 1_555 1_555
H10 C12 1_555 1_555
C13 C12 1_555 1_555
C14 C13 1_555 1_555
H11 C14 1_555 1_555
C15 N3 1_555 1_555
H12 C15 1_555 1_555
C16 C13 1_555 1_555
C17 C16 1_555 1_555
H13 C17 1_555 1_555
C18 C17 1_555 1_555
H14 C18 1_555 1_555
C19 N4 1_555 1_555
H15 C19 1_555 1_555
C20 C16 1_555 1_555
H16 C20 1_555 1_555
S1 O3 1_555 1_555
O1 H17 1_555 1_555
O2 C21 1_555 1_555
O4 S1 1_555 1_555
O5 S1 1_555 1_555
O6 C28 1_555 1_555
O7 C28 1_555 1_555
C21 O1 1_555 1_555
C22 C21 1_555 1_555
C23 S1 1_555 1_555
C24 C23 1_555 1_555
H18 C24 1_555 1_555
C25 C24 1_555 1_555
C26 C25 1_555 1_555
H19 C26 1_555 1_555
C27 C22 1_555 1_555
H20 C27 1_555 1_555
C28 C25 1_555 1_555
O8 H21 1_555 1_555
H22 O8 1_555 1_555
O9 H23 1_555 1_555
H24 O9 1_555 1_555
Ag1_2 N2 1_555 1_555
N2_2 Ag1 1_555 1_555
Ag2_2 N4 1_555 1_555
N4_2 Ag2 1_555 1_555
C4 C5 1_555 1_555
C9 C10 1_555 1_555
C14 C15 1_555 1_555
C19 C20 1_555 1_555
C22 C23 1_555 1_555
C26 C27 1_555 1_555

#END
