
#######################################################################
#
#                 Cambridge Crystallographic Data Centre
#                                CCDC 
#
#######################################################################
#
# If this CIF has been generated from an entry in the Cambridge 
# Structural Database, then it will include bibliographic, chemical, 
# crystal, experimental, refinement or atomic coordinate data resulting 
# from the CCDC's data processing and validation procedures.
#
#######################################################################

data_VIRCIK
_symmetry_cell_setting           monoclinic
_symmetry_space_group_name_H-M   'C c'
_symmetry_Int_Tables_number      9
_space_group_name_Hall           'C -2yc'
loop_
_symmetry_equiv_pos_site_id
_symmetry_equiv_pos_as_xyz
1 x,y,z
2 x,-y,1/2+z
3 1/2+x,1/2+y,z
4 1/2+x,1/2-y,1/2+z
_cell_length_a                   15.6825(7)
_cell_length_b                   16.3751(8)
_cell_length_c                   17.7881(9)
_cell_angle_alpha                90
_cell_angle_beta                 100.5770(10)
_cell_angle_gamma                90
_cell_volume                     4490.41
loop_
_atom_site_label
_atom_site_type_symbol
_atom_site_fract_x
_atom_site_fract_y
_atom_site_fract_z
Ag1 Ag 0.41279(4) 0.93304(4) 0.28140(4)
N1 N 0.3285(4) 0.8314(4) 0.2873(4)
N2 N 0.0195(4) 0.5171(3) 0.2827(4)
C1 C 0.2948(6) 0.7924(6) 0.2233(5)
H1 H 0.3116 0.8080 0.1779
C2 C 0.2354(6) 0.7293(5) 0.2215(5)
H2 H 0.2144 0.7030 0.1754
C3 C 0.2077(4) 0.7055(4) 0.2852(4)
C4 C 0.2421(4) 0.7457(4) 0.3516(4)
H3 H 0.2247 0.7312 0.3970
C5 C 0.3032(5) 0.8085(5) 0.3518(4)
H4 H 0.3264 0.8345 0.3975
C6 C 0.1425(4) 0.6382(4) 0.2842(4)
C7 C 0.0880(5) 0.6176(5) 0.2188(4)
H5 H 0.0915 0.6435 0.1729
C8 C 0.0272(5) 0.5575(5) 0.2215(5)
H6 H -0.0108 0.5450 0.1764
C9 C 0.0738(5) 0.5351(4) 0.3459(4)
H7 H 0.0701 0.5064 0.3903
C10 C 0.1358(5) 0.5949(4) 0.3488(4)
H8 H 0.1733 0.6059 0.3946
S1 S 0.12774(10) 1.13337(12) 0.11731(10)
O1 O 0.3068(3) 1.0217(3) 0.1794(3)
O2 O 0.3215(4) 0.9903(4) 0.0621(3)
O3 O 0.1425(3) 1.1380(3) 0.1994(2)
O4 O 0.1211(4) 1.0497(4) 0.0879(3)
O5 O 0.0573(3) 1.1838(5) 0.0807(4)
O6 O 0.2281(4) 1.4246(3) 0.0376(4)
O7 O 0.3690(3) 1.4218(3) 0.0530(4)
C11 C 0.3073(4) 1.0385(4) 0.1126(4)
C12 C 0.2971(4) 1.1279(4) 0.0897(3)
C13 C 0.2232(3) 1.1745(4) 0.0904(3)
C14 C 0.2223(4) 1.2581(4) 0.0746(3)
H9 H 0.1719 1.2880 0.0740
C15 C 0.2968(4) 1.2970(4) 0.0596(3)
C16 C 0.3687(4) 1.2505(4) 0.0566(4)
H10 H 0.4180 1.2750 0.0445
C17 C 0.3686(4) 1.1663(4) 0.0716(3)
H11 H 0.4181 1.1358 0.0692
C18 C 0.2968(5) 1.3874(5) 0.0488(4)
Ag2 Ag 0.06290(3) 1.21610(4) 0.29887(3)
N3 N -0.0367(3) 1.1258(3) 0.2968(3)
N4 N -0.3490(3) 0.8165(3) 0.3003(3)
C19 C -0.0660(5) 1.1066(5) 0.3609(4)
H12 H -0.0444 1.1352 0.4056
C20 C -0.1263(4) 1.0469(4) 0.3633(3)
H13 H -0.1444 1.0347 0.4090
C21 C -0.1602(4) 1.0045(3) 0.2971(3)
C22 C -0.1292(5) 1.0249(4) 0.2315(4)
H14 H -0.1505 0.9982 0.1858
C23 C -0.0677(5) 1.0839(5) 0.2337(4)
H15 H -0.0465 1.0954 0.1893
C24 C -0.2260(4) 0.9388(3) 0.2981(4)
C25 C -0.2277(4) 0.8940(4) 0.3632(4)
H16 H -0.1870 0.9036 0.4073
C26 C -0.2898(4) 0.8349(4) 0.3626(4)
H17 H -0.2909 0.8063 0.4076
C27 C -0.3461(4) 0.8587(4) 0.2382(4)
H18 H -0.3859 0.8459 0.1942
C28 C -0.2878(4) 0.9211(4) 0.2339(4)
H19 H -0.2900 0.9505 0.1889
Ag1B Ag -0.08721(4) 0.43304(4) 0.28140(4)
N2B N 0.5195(4) 1.0171(3) 0.2827(4)
Ag2B Ag -0.43710(3) 0.71610(4) 0.29887(3)
N4B N 0.1510(3) 1.3165(3) 0.3003(3)
Ag3 Ag 0.27595(3) 0.09110(4) 0.32113(4)
N5 N 0.3682(3) 0.1892(3) 0.3266(3)
N6 N 0.6825(4) 0.4967(3) 0.3291(3)
C29 C 0.3707(5) 0.2346(4) 0.2653(4)
H20 H 0.3301 0.2247 0.2212
C30 C 0.4307(4) 0.2960(4) 0.2638(4)
H21 H 0.4311 0.3255 0.2192
C31 C 0.4906(4) 0.3130(3) 0.3296(3)
C32 C 0.4858(4) 0.2673(4) 0.3925(3)
H22 H 0.5238 0.2775 0.4382
C33 C 0.4252(5) 0.2061(4) 0.3889(4)
H23 H 0.4243 0.1750 0.4325
C34 C 0.5560(4) 0.3778(4) 0.3291(3)
C35 C 0.5904(4) 0.4197(4) 0.3949(4)
H24 H 0.5713 0.4082 0.4402
C36 C 0.6532(5) 0.4788(4) 0.3937(4)
H25 H 0.6757 0.5067 0.4385
C37 C 0.6501(4) 0.4561(4) 0.2654(4)
H26 H 0.6702 0.4683 0.2206
C38 C 0.5867(4) 0.3958(4) 0.2639(4)
H27 H 0.5655 0.3680 0.2187
Ag3B Ag 0.77595(3) 0.59110(4) 0.32113(4)
N6B N 0.1825(4) -0.0033(3) 0.3291(3)
O8 O 0.1055(5) 0.2017(4) 0.4693(4)
H28 H 0.1270 0.1844 0.4317
H29 H 0.0557 0.2220 0.4530
O9 O 0.0560(5) 0.3568(5) 0.4922(7)
H30 H 0.0476 0.4076 0.4843
H31 H 0.0079 0.3336 0.4940
O10 O 0.0452(4) 0.1029(3) 0.5705(4)
H32 H -0.0062 0.1007 0.5450
H33 H 0.0494 0.0725 0.6097
O11 O 0.4147(4) 0.0183(3) 0.9451(3)
H34 H 0.3903 0.0321 0.9003
H35 H 0.3794 0.0249 0.9757
O12 O 0.0483(4) 0.4271(6) 0.0278(5)
H36 H 0.0706 0.4644 0.0585
H37 H 0.0489 0.4420 -0.0179
O13 O 0.9044(6) 0.0845(4) 0.0294(4)
H38 H 0.9438 0.0765 0.0684
H39 H 0.9095 0.0497 -0.0049
O14 O 0.2143(6) 0.5905(5) 0.0603(4)
H40 H 0.2225 0.5402 0.0708
H41 H 0.2075 0.6162 0.1003
O15 O 0.9566(5) 0.3455(9) 0.1222(5)
H42 H 0.9873 0.3262 0.0917
H43 H 0.9454 0.3954 0.1116
O16 O 0.8429(13) 0.2120(9) 0.0649(8)
H44 H 0.8808 0.2134 0.1057
H45 H 0.8595 0.1797 0.0331
O17 O 0.7795(6) 0.3410(4) 1.0040(7)
H46 H 0.7833 0.3595 0.9601
H47 H 0.7826 0.3802 1.0357
loop_
_geom_bond_atom_site_label_1
_geom_bond_atom_site_label_2
_geom_bond_site_symmetry_1
_geom_bond_site_symmetry_2
Ag1 N1 1_555 1_555
N1 C1 1_555 1_555
N2 C8 1_555 1_555
C1 H1 1_555 1_555
C2 C1 1_555 1_555
H2 C2 1_555 1_555
C3 C2 1_555 1_555
C4 C3 1_555 1_555
H3 C4 1_555 1_555
C5 N1 1_555 1_555
H4 C5 1_555 1_555
C6 C3 1_555 1_555
C7 C6 1_555 1_555
H5 C7 1_555 1_555
C8 C7 1_555 1_555
H6 C8 1_555 1_555
C9 N2 1_555 1_555
H7 C9 1_555 1_555
C10 C6 1_555 1_555
H8 C10 1_555 1_555
S1 O3 1_555 1_555
O1 Ag1 1_555 1_555
O2 C11 1_555 1_555
O3 Ag2 1_555 1_555
O4 S1 1_555 1_555
O5 S1 1_555 1_555
O6 C18 1_555 1_555
O7 C18 1_555 1_555
C11 O1 1_555 1_555
C12 C11 1_555 1_555
C13 S1 1_555 1_555
C14 C13 1_555 1_555
H9 C14 1_555 1_555
C15 C14 1_555 1_555
C16 C15 1_555 1_555
H10 C16 1_555 1_555
C17 C12 1_555 1_555
H11 C17 1_555 1_555
C18 C15 1_555 1_555
Ag2 N3 1_555 1_555
N3 C19 1_555 1_555
N4 C26 1_555 1_555
C19 H12 1_555 1_555
C20 C19 1_555 1_555
H13 C20 1_555 1_555
C21 C20 1_555 1_555
C22 C21 1_555 1_555
H14 C22 1_555 1_555
C23 N3 1_555 1_555
H15 C23 1_555 1_555
C24 C21 1_555 1_555
C25 C24 1_555 1_555
H16 C25 1_555 1_555
C26 C25 1_555 1_555
H17 C26 1_555 1_555
C27 N4 1_555 1_555
H18 C27 1_555 1_555
C28 C24 1_555 1_555
H19 C28 1_555 1_555
Ag3 N5 1_555 1_555
N5 C29 1_555 1_555
N6 C36 1_555 1_555
C29 H20 1_555 1_555
C30 C29 1_555 1_555
H21 C30 1_555 1_555
C31 C30 1_555 1_555
C32 C31 1_555 1_555
H22 C32 1_555 1_555
C33 N5 1_555 1_555
H23 C33 1_555 1_555
C34 C31 1_555 1_555
C35 C34 1_555 1_555
H24 C35 1_555 1_555
C36 C35 1_555 1_555
H25 C36 1_555 1_555
C37 N6 1_555 1_555
H26 C37 1_555 1_555
C38 C34 1_555 1_555
H27 C38 1_555 1_555
O8 H28 1_555 1_555
H29 O8 1_555 1_555
O9 H30 1_555 1_555
H31 O9 1_555 1_555
O10 H32 1_555 1_555
H33 O10 1_555 1_555
O11 H34 1_555 1_555
H35 O11 1_555 1_555
O12 H36 1_555 1_555
H37 O12 1_555 1_555
O13 H38 1_555 1_555
H39 O13 1_555 1_555
O14 H40 1_555 1_555
H41 O14 1_555 1_555
O15 H42 1_555 1_555
H43 O15 1_555 1_555
O16 H44 1_555 1_555
H45 O16 1_555 1_555
O17 H46 1_555 1_555
H47 O17 1_555 1_555
Ag1B N2 1_555 1_555
N2B Ag1 1_555 1_555
Ag2B N4 1_555 1_555
N4B Ag2 1_555 1_555
Ag3B N6 1_555 1_555
N6B Ag3 1_555 1_555
C4 C5 1_555 1_555
C9 C10 1_555 1_555
C12 C13 1_555 1_555
C16 C17 1_555 1_555
C22 C23 1_555 1_555
C27 C28 1_555 1_555
C32 C33 1_555 1_555
C37 C38 1_555 1_555

#END
