
#######################################################################
#
#                 Cambridge Crystallographic Data Centre
#                                CCDC 
#
#######################################################################
#
# If this CIF has been generated from an entry in the Cambridge 
# Structural Database, then it will include bibliographic, chemical, 
# crystal, experimental, refinement or atomic coordinate data resulting 
# from the CCDC's data processing and validation procedures.
#
#######################################################################

data_VIRJOW
_symmetry_cell_setting           triclinic
_symmetry_space_group_name_H-M   'P -1'
_symmetry_Int_Tables_number      2
_space_group_name_Hall           '-P 1'
loop_
_symmetry_equiv_pos_site_id
_symmetry_equiv_pos_as_xyz
1 x,y,z
2 -x,-y,-z
_cell_length_a                   7.0008(10)
_cell_length_b                   9.7164(11)
_cell_length_c                   16.693(2)
_cell_angle_alpha                94.219(10)
_cell_angle_beta                 99.415(11)
_cell_angle_gamma                92.663(10)
_cell_volume                     1115.19
loop_
_atom_site_label
_atom_site_type_symbol
_atom_site_fract_x
_atom_site_fract_y
_atom_site_fract_z
Zn1 Zn 0.57842(14) 0.79793(8) 0.24502(6)
S1 S 0.8929(3) 0.75480(18) 0.32172(13)
S2 S 0.5324(3) 0.63014(18) 0.35930(13)
S3 S 0.2327(3) 0.79382(18) 0.17494(13)
S4 S 0.5132(3) 0.59144(18) 0.14502(13)
O1 O 0.5433(8) 0.9724(5) 0.3256(3)
O2 O 0.6877(8) 0.9224(5) 0.1666(3)
C1 C 0.7756(11) 0.6512(6) 0.3776(5)
C2 C 0.8931(11) 0.5744(6) 0.4414(5)
C3 C 0.8025(11) 0.4993(7) 0.4943(5)
C4 C 1.0929(11) 0.5736(7) 0.4484(5)
C5 C 0.2862(11) 0.6488(7) 0.1230(5)
C6 C 0.1387(11) 0.5734(7) 0.0602(5)
C7 C -0.0537(11) 0.6044(7) 0.0513(5)
C8 C 0.1917(12) 0.4664(7) 0.0086(5)
C9 C 0.4010(12) 0.9729(7) 0.3606(5)
C10 C 0.4952(16) 1.2006(8) 0.4275(6)
C11 C 0.2024(15) 1.0727(8) 0.4531(7)
C12 C 0.5972(11) 1.0225(6) 0.1404(5)
C13 C 0.5403(13) 1.2125(7) 0.0556(6)
C14 C 0.8180(13) 1.0656(8) 0.0469(6)
N1 N 0.3650(11) 1.0765(6) 0.4111(5)
N2 N 0.6479(10) 1.0955(6) 0.0826(4)
H1 H 0.658484 0.497791 0.491135
H2 H 1.16262 0.626520 0.411600
H3 H -0.093520 0.679020 0.088600
H4 H 0.32952 0.440310 0.014490
H5 H 0.312744 0.887449 0.347623
H6 H 0.632080 1.173670 0.441460
H7 H 0.461000 1.25934 0.474240
H8 H 0.481810 1.253830 0.378050
H9 H 0.200580 1.162450 0.486270
H10 H 0.079770 1.057290 0.412590
H11 H 0.213200 0.995560 0.48983
H12 H 0.481880 1.04465 0.166220
H13 H 0.630780 1.296590 0.061080
H14 H 0.437700 1.228950 0.089880
H15 H 0.478290 1.192410 -0.002690
H16 H 0.918240 1.143830 0.062700
H17 H 0.781590 1.05383 -0.01374
H18 H 0.871520 0.978620 0.067220
Zn1A Zn 1.42158(14) 0.20207(8) 0.75498(6)
Zn1A_2 Zn -0.57842(14) 0.20207(8) -0.24502(6)
S1A S 1.1071(3) 0.24520(18) 0.67828(13)
S2A S 1.4676(3) 0.36986(18) 0.64070(13)
S3A S -0.2327(3) 0.20618(18) -0.17494(13)
S3A_2 S 1.7673(3) 0.20618(18) 0.82506(13)
S4A S -0.5132(3) 0.40856(18) -0.14502(13)
S4A_2 S 1.4868(3) 0.40856(18) 0.85498(13)
O1A O 1.4567(8) 0.0276(5) 0.6744(3)
O2A O 1.3123(8) 0.0776(5) 0.8334(3)
C1A C 1.2244(11) 0.3488(6) 0.6224(5)
C2A C 1.1069(11) 0.4256(6) 0.5586(5)
C3A C 1.1975(11) 0.5007(7) 0.5057(5)
C4A C 0.9071(11) 0.4264(7) 0.5516(5)
C5A C -0.2862(11) 0.3512(7) -0.1230(5)
C6A C -0.1387(11) 0.4266(7) -0.0602(5)
C7A C 0.0537(11) 0.3956(7) -0.0513(5)
C8A C -0.1917(12) 0.5336(7) -0.0086(5)
C9A C 1.5990(12) 0.0271(7) 0.6394(5)
C10A C 1.5048(16) -0.2006(8) 0.5725(6)
C11A C 1.7976(15) -0.0727(8) 0.5469(7)
C12A C 1.4028(11) -0.0225(6) 0.8596(5)
C13A C 1.4597(13) -0.2125(7) 0.9444(6)
C14A C 1.1820(13) -0.0656(8) 0.9531(6)
N1A N 1.6350(11) -0.0765(6) 0.5889(5)
N2A N 1.3521(10) -0.0955(6) 0.9174(4)
H1A H 1.341516 0.502209 0.508865
H2A H 0.83738 0.373480 0.588400
H3A H 0.093520 0.320980 -0.088600
H4A H -0.32952 0.559690 -0.014490
H5A H 1.687256 0.112551 0.652377
H6A H 1.367920 -0.173670 0.558540
H7A H 1.539000 -0.25934 0.525760
H8A H 1.518190 -0.253830 0.621950
H9A H 1.799420 -0.162450 0.513730
H10A H 1.920230 -0.057290 0.587410
H11A H 1.786800 0.004440 0.51017
H12A H 1.518120 -0.04465 0.833780
H13A H 1.369220 -0.296590 0.938920
H14A H 1.562300 -0.228950 0.910120
H15A H 1.521710 -0.192410 1.002690
H16A H 1.081760 -0.143830 0.937300
H17A H 1.218410 -0.05383 1.01374
H18A H 1.128480 0.021380 0.932780
O3 O 0.7647(10) 0.8440(6) 0.7974(5)
C15 C 0.9141(14) 0.8424(8) 0.7666(6)
C16 C 0.9366(17) 0.5970(9) 0.7690(8)
C17 C 1.1797(16) 0.7361(10) 0.7142(7)
N3 N 1.0066(11) 0.7309(6) 0.7505(5)
H19 H 0.962324 0.935669 0.754248
H20 H 1.049230 0.541210 0.787970
H21 H 0.856380 0.548360 0.718950
H22 H 0.855560 0.60868 0.812810
H23 H 1.28844 0.698900 0.751380
H24 H 1.214810 0.83406 0.705180
H25 H 1.155890 0.679030 0.660780
loop_
_geom_bond_atom_site_label_1
_geom_bond_atom_site_label_2
_geom_bond_site_symmetry_1
_geom_bond_site_symmetry_2
Zn1 S1 1_555 1_555
S1 C1 1_555 1_555
S2 Zn1 1_555 1_555
S3 Zn1 1_555 1_555
S4 Zn1 1_555 1_555
O1 Zn1 1_555 1_555
O2 Zn1 1_555 1_555
O3 C15 1_555 1_555
C1 S2 1_555 1_555
C2 C1 1_555 1_555
C3 C2 1_555 1_555
C4 C2 1_555 1_555
C5 S3 1_555 1_555
C6 C5 1_555 1_555
C7 C6 1_555 1_555
C8 C6 1_555 1_555
C9 O1 1_555 1_555
C10 N1 1_555 1_555
C11 N1 1_555 1_555
C12 O2 1_555 1_555
C13 N2 1_555 1_555
C14 N2 1_555 1_555
C15 N3 1_555 1_555
C16 N3 1_555 1_555
C17 N3 1_555 1_555
N1 C9 1_555 1_555
N2 C12 1_555 1_555
H1 C3 1_555 1_555
H2 C4 1_555 1_555
H3 C7 1_555 1_555
H4 C8 1_555 1_555
H5 C9 1_555 1_555
H6 C10 1_555 1_555
H7 C10 1_555 1_555
H8 C10 1_555 1_555
H9 C11 1_555 1_555
H10 C11 1_555 1_555
H11 C11 1_555 1_555
H12 C12 1_555 1_555
H13 C13 1_555 1_555
H14 C13 1_555 1_555
H15 C13 1_555 1_555
H16 C14 1_555 1_555
H17 C14 1_555 1_555
H18 C14 1_555 1_555
H19 C15 1_555 1_555
H20 C16 1_555 1_555
H21 C16 1_555 1_555
H22 C16 1_555 1_555
H23 C17 1_555 1_555
H24 C17 1_555 1_555
H25 C17 1_555 1_555
Zn1A S1A 1_555 1_555
Zn1A_2 S3A 1_555 1_555
S1A C1A 1_555 1_555
S2A Zn1A 1_555 1_555
S3A C5A 1_555 1_555
S3A_2 Zn1A 1_555 1_555
S4A Zn1A_2 1_555 1_555
S4A_2 Zn1A 1_555 1_555
O1A Zn1A 1_555 1_555
O2A Zn1A 1_555 1_555
C1A S2A 1_555 1_555
C2A C1A 1_555 1_555
C3A C4 1_555 1_555
C4A C3 1_555 1_555
C5A S4A 1_555 1_555
C6A C5A 1_555 1_555
C7A C8 1_555 1_555
C8A C7 1_555 1_555
C9A O1A 1_555 1_555
C10A N1A 1_555 1_555
C11A N1A 1_555 1_555
C12A O2A 1_555 1_555
C13A N2A 1_555 1_555
C14A N2A 1_555 1_555
N1A C9A 1_555 1_555
N2A C12A 1_555 1_555
H1A C3A 1_555 1_555
H2A C4A 1_555 1_555
H3A C7A 1_555 1_555
H4A C8A 1_555 1_555
H5A C9A 1_555 1_555
H6A C10A 1_555 1_555
H7A C10A 1_555 1_555
H8A C10A 1_555 1_555
H9A C11A 1_555 1_555
H10A C11A 1_555 1_555
H11A C11A 1_555 1_555
H12A C12A 1_555 1_555
H13A C13A 1_555 1_555
H14A C13A 1_555 1_555
H15A C13A 1_555 1_555
H16A C14A 1_555 1_555
H17A C14A 1_555 1_555
H18A C14A 1_555 1_555
S4 C5 1_555 1_555
C2A C3A 1_555 1_555
C2A C4A 1_555 1_555
C6A C7A 1_555 1_555
C6A C8A 1_555 1_555

#END
