
#######################################################################
#
#                 Cambridge Crystallographic Data Centre
#                                CCDC 
#
#######################################################################
#
# If this CIF has been generated from an entry in the Cambridge 
# Structural Database, then it will include bibliographic, chemical, 
# crystal, experimental, refinement or atomic coordinate data resulting 
# from the CCDC's data processing and validation procedures.
#
#######################################################################

data_VIRPIW
_symmetry_cell_setting           rhombohedral
_symmetry_space_group_name_H-M   'R 3 m'
_symmetry_Int_Tables_number      160
_space_group_name_Hall           'R 3 -2"'
loop_
_symmetry_equiv_pos_site_id
_symmetry_equiv_pos_as_xyz
1 x,y,z
2 -y,x-y,z
3 -x+y,-x,z
4 -y,-x,z
5 -x+y,y,z
6 x,x-y,z
7 2/3+x,1/3+y,1/3+z
8 2/3-y,1/3+x-y,1/3+z
9 2/3-x+y,1/3-x,1/3+z
10 2/3-y,1/3-x,1/3+z
11 2/3-x+y,1/3+y,1/3+z
12 2/3+x,1/3+x-y,1/3+z
13 1/3+x,2/3+y,2/3+z
14 1/3-y,2/3+x-y,2/3+z
15 1/3-x+y,2/3-x,2/3+z
16 1/3-y,2/3-x,2/3+z
17 1/3-x+y,2/3+y,2/3+z
18 1/3+x,2/3+x-y,2/3+z
_cell_length_a                   14.2395(5)
_cell_length_b                   14.2395(5)
_cell_length_c                   8.5007(6)
_cell_angle_alpha                90
_cell_angle_beta                 90
_cell_angle_gamma                120.00
_cell_volume                     1492.71
loop_
_atom_site_label
_atom_site_type_symbol
_atom_site_fract_x
_atom_site_fract_y
_atom_site_fract_z
Fe1 Fe 0.91704(3) 0.83409(6) 0.48159(8)
S1 S 0.78135(5) 0.56270(10) 0.54630(16)
O1 O 1.0000 1.0000 0.4346(8)
O2 O 0.8397(2) 0.6794(4) 0.5559(12)
O3 O 0.8476(3) 0.5246(3) 0.6256(5)
O4 O 0.7687(4) 0.5375(8) 0.3803(9)
N1 N 0.8081(3) 0.8557(3) 0.6377(5)
N2 N 0.6616(6) 0.8308(3) 0.7524(8)
C1 C 0.7190(4) 0.7837(4) 0.7097(6)
H1 H 0.6990 0.7117 0.7280
H2 H 0.625(7) 0.812(3) 0.778(10)
Fe1B Fe 0.91705(7) 1.08296(3) 0.48159(8)
Fe1A Fe 1.16591(6) 1.08295(7) 0.48159(8)
Fe1G Fe 0.83258(6) 0.41628(7) 0.81492(8)
Fe1H Fe 0.58372(7) 0.41629(3) 0.81492(8)
Fe1N Fe 1.25038(7) 0.74963(3) 0.14826(8)
Fe1M Fe 0.49924(6) 0.74962(7) 0.14826(8)
S1N S 1.11468(11) 0.88532(5) 0.21297(16)
S1M S 0.77063(10) 0.88532(11) 0.21297(16)
O2N O 1.1730(4) 0.8270(2) 0.2226(12)
O2M O 0.6539(4) 0.8270(4) 0.2226(12)
O2B O 0.8397(4) 1.1603(2) 0.5559(12)
O2A O 1.3206(4) 1.1603(4) 0.5559(12)
O3D O 0.6770(4) 0.5246(3) 0.6256(5)
O3N O 1.0103(4) 0.8191(3) 0.2923(5)
O3Q O 1.1809(3) 0.9897(4) 0.2923(5)
O3O O 0.8087(3) 0.8191(3) 0.2923(5)
O3M O 0.8087(3) 0.9897(4) 0.2923(5)
O3P O 1.0103(4) 1.1913(3) 0.2923(5)
O3L O 1.1809(3) 1.1913(3) 0.2923(5)
O4N O 1.1021(9) 0.8980(4) 0.0470(9)
O4O O 0.7958(8) 0.8980(4) 0.0470(9)
N1E N 0.8081(3) 0.9524(4) 0.6377(5)
N1D N 1.0476(4) 0.8557(3) 0.6377(5)
N1A N 1.1443(3) 0.9524(4) 0.6377(5)
N1B N 1.0476(4) 1.1919(3) 0.6377(5)
N1C N 1.1443(3) 1.1919(3) 0.6377(5)
N2A N 1.1692(3) 0.8308(7) 0.7524(8)
N2B N 1.1692(7) 1.3384(6) 0.7524(8)
C1E C 0.7190(4) 0.9353(6) 0.7097(6)
C1D C 1.0647(6) 0.7837(4) 0.7097(6)
C1A C 1.2163(4) 0.9353(6) 0.7097(6)
C1B C 1.0647(6) 1.2810(4) 0.7097(6)
C1C C 1.2163(4) 1.2810(4) 0.7097(6)
H1E H 0.6990 0.9873 0.7280
H1D H 1.0127 0.7117 0.7280
H1A H 1.2883 0.9873 0.7280
H1B H 1.0127 1.3010 0.7280
H1C H 1.2883 1.3010 0.7280
H2D H 1.187(8) 0.812(3) 0.778(10)
H2B H 1.187(8) 1.375(7) 0.778(10)
O5 O 0.6667 0.3333 0.2348(18)
loop_
_geom_bond_atom_site_label_1
_geom_bond_atom_site_label_2
_geom_bond_site_symmetry_1
_geom_bond_site_symmetry_2
Fe1 O1 1_555 1_555
S1 O2 1_555 1_555
O1 Fe1B 1_555 1_555
O2 Fe1 1_555 1_555
O3 S1 1_555 1_555
O4 S1 1_555 1_555
N1 Fe1 1_555 1_555
N2 C1 1_555 1_555
C1 N1 1_555 1_555
H1 C1 1_555 1_555
H2 N2 1_555 1_555
Fe1B O2B 1_555 1_555
Fe1A O1 1_555 1_555
Fe1G O3 1_555 1_555
Fe1H O3D 1_555 1_555
Fe1N O2N 1_555 1_555
Fe1M O2M 1_555 1_555
S1N O2N 1_555 1_555
S1M O2M 1_555 1_555
O2A Fe1A 1_555 1_555
O3D S1 1_555 1_555
O3N Fe1 1_555 1_555
O3Q Fe1A 1_555 1_555
O3O Fe1 1_555 1_555
O3M Fe1B 1_555 1_555
O3P Fe1B 1_555 1_555
O3L Fe1A 1_555 1_555
O4N S1N 1_555 1_555
O4O S1M 1_555 1_555
N1E N1 1_555 1_555
N1D Fe1 1_555 1_555
N1A Fe1A 1_555 1_555
N1B Fe1B 1_555 1_555
N1C Fe1A 1_555 1_555
N2A C1D 1_555 1_555
N2B C1B 1_555 1_555
C1E N2 1_555 1_555
C1D N1D 1_555 1_555
C1A N1A 1_555 1_555
C1B N1B 1_555 1_555
C1C N1C 1_555 1_555
H1E C1E 1_555 1_555
H1D C1D 1_555 1_555
H1A C1A 1_555 1_555
H1B C1B 1_555 1_555
H1C C1C 1_555 1_555
H2D N2A 1_555 1_555
H2B N2B 1_555 1_555
Fe1B N1E 1_555 1_555
S1N O3N 1_555 1_555
S1N O3Q 1_555 1_555
S1M O3O 1_555 1_555
S1M O3M 1_555 1_555
N1E C1E 1_555 1_555
N1D N1A 1_555 1_555
N1B N1C 1_555 1_555
N2A C1A 1_555 1_555
N2B C1C 1_555 1_555

#END
