
#######################################################################
#
#                 Cambridge Crystallographic Data Centre
#                                CCDC 
#
#######################################################################
#
# If this CIF has been generated from an entry in the Cambridge 
# Structural Database, then it will include bibliographic, chemical, 
# crystal, experimental, refinement or atomic coordinate data resulting 
# from the CCDC's data processing and validation procedures.
#
#######################################################################

data_VIRQES
_symmetry_cell_setting           triclinic
_symmetry_space_group_name_H-M   'P -1'
_symmetry_Int_Tables_number      2
_space_group_name_Hall           '-P 1'
loop_
_symmetry_equiv_pos_site_id
_symmetry_equiv_pos_as_xyz
1 x,y,z
2 -x,-y,-z
_cell_length_a                   7.830(4)
_cell_length_b                   8.041(4)
_cell_length_c                   9.652(7)
_cell_angle_alpha                76.29(5)
_cell_angle_beta                 78.47(6)
_cell_angle_gamma                86.36(6)
_cell_volume                     578.388
loop_
_atom_site_label
_atom_site_type_symbol
_atom_site_fract_x
_atom_site_fract_y
_atom_site_fract_z
Mn1 Mn 1.19076(9) -0.68967(9) 0.61460(8)
Mn2 Mn 0.84283(9) -0.96611(9) 0.74818(8)
P1 P 1.0778(2) -0.2671(2) 0.5903(1)
O1 O 1.4157(4) -0.6399(4) 0.7039(4)
O2 O 1.3444(4) -0.9384(4) 0.6493(4)
O3 O 1.0311(4) -0.8415(4) 0.8382(3)
O4 O 1.0744(4) -0.4595(4) 0.6350(4)
O5 O 1.3454(5) -0.6416(6) 0.3914(5)
O6 O 1.1862(4) -0.9015(4) 1.0164(4)
O7 O 1.5904(4) -1.0531(4) 0.7169(4)
O8 O 1.6538(4) -0.7610(4) 0.7830(4)
O9 O 1.2748(4) -0.2141(5) 0.5650(4)
O10 O 0.9717(4) -0.1893(4) 0.7099(3)
O11 O 1.0166(4) -0.1985(4) 0.4458(3)
C1 C 1.5196(6) -0.7620(6) 0.7308(5)
C2 C 1.4817(6) -0.9330(6) 0.6951(5)
C3 C 1.0639(6) -0.9265(6) 0.9589(5)
H1 H 1.413(9) -0.585(9) 0.367(8)
H2 H 1.381(8) -0.735(8) 0.364(7)
H8 H 1.284(7) -0.126(7) 0.585(6)
C3A C 0.9361(6) -1.0735(6) 1.0411(5)
O3A O 0.9689(4) -1.1585(4) 1.1618(3)
O6A O 0.8138(4) -1.0985(4) 0.9836(4)
P1A P 0.9222(2) -0.7329(2) 0.4097(1)
O4A O 0.9256(4) -0.5405(4) 0.3650(4)
O9A O 0.7252(4) -0.7859(5) 0.4350(4)
O10A O 1.0283(4) -0.8107(4) 0.2901(3)
O11A O 0.9834(4) -0.8015(4) 0.5542(3)
H8A H 0.716(7) -0.874(7) 0.415(6)
Mn1A Mn 0.80924(9) -1.31033(9) 1.38540(8)
Mn2A Mn 1.15717(9) -1.03389(9) 1.25182(8)
O1_2 O 0.4157(4) -0.6399(4) 0.7039(4)
O2_2 O 0.3444(4) -0.9384(4) 0.6493(4)
O7_2 O 0.5904(4) -1.0531(4) 0.7169(4)
O8_2 O 0.6538(4) -0.7610(4) 0.7830(4)
C1_2 C 0.5196(6) -0.7620(6) 0.7308(5)
C2_2 C 0.4817(6) -0.9330(6) 0.6951(5)
O5A O 0.6546(5) -1.3584(6) 1.6086(5)
H1A H 0.587(9) -1.415(9) 1.633(8)
H2A H 0.619(8) -1.265(8) 1.636(7)
O10_2 O 0.9717(4) -1.1893(4) 0.7099(3)
Mn2_2 Mn 1.84283(9) -0.96611(9) 0.74818(8)
Mn2_3 Mn 0.84283(9) 0.03389(9) 0.74818(8)
Mn1A_2 Mn 0.80924(9) -0.31033(9) 0.38540(8)
Mn2A_2 Mn 1.15717(9) -0.03389(9) 0.25182(8)
Mn2A_3 Mn 1.15717(9) -1.03389(9) 0.25182(8)
O1A O 0.5843(4) -1.3601(4) 1.2961(4)
O2A O 0.6556(4) -1.0616(4) 1.3507(4)
O4A_2 O 0.9256(4) -1.5405(4) 1.3650(4)
O11_2 O 1.0166(4) -1.1985(4) 1.4458(3)
O7A O 1.4096(4) -0.9469(4) 1.2831(4)
O8A O 1.3462(4) -1.2390(4) 1.2170(4)
O10A_2 O 1.0283(4) -0.8107(4) 1.2901(3)
Mn1_2 Mn 0.19076(9) -0.68967(9) 0.61460(8)
O12 O 0.5254(10) -0.675(1) 1.0501(9)
N1 N 0.8169(6) -0.4842(7) 0.8976(5)
C4 C 0.9043(8) -0.5198(8) 1.0242(6)
H3 H 0.8585 -0.3806 0.8326
H4 H 0.6956 -0.4787 0.9275
H5 H 0.8460 -0.5759 0.8470
H6 H 0.845(6) -0.460(6) 1.086(6)
H7 H 0.888(7) -0.647(7) 1.076(6)
C4A C 1.0957(8) -0.4802(8) 0.9758(6)
N1A N 1.1831(6) -0.5158(7) 1.1024(5)
H3A H 1.1415 -0.6194 1.1674
H4A H 1.3044 -0.5213 1.0725
H5A H 1.1540 -0.4241 1.1530
H6A H 1.155(6) -0.540(6) 0.914(6)
H7A H 1.112(7) -0.353(7) 0.924(6)
loop_
_geom_bond_atom_site_label_1
_geom_bond_atom_site_label_2
_geom_bond_site_symmetry_1
_geom_bond_site_symmetry_2
Mn1 O1 1_555 1_555
Mn2 O3 1_555 1_555
P1 O4 1_555 1_555
O1 C1 1_555 1_555
O2 Mn1 1_555 1_555
O3 Mn1 1_555 1_555
O4 Mn1 1_555 1_555
O5 Mn1 1_555 1_555
O6 C3 1_555 1_555
O7 C2 1_555 1_555
O8 C1 1_555 1_555
O9 P1 1_555 1_555
O10 P1 1_555 1_555
O11 P1 1_555 1_555
N1 C4 1_555 1_555
C1 C2 1_555 1_555
C2 O2 1_555 1_555
C3 O3 1_555 1_555
C4 H6 1_555 1_555
H1 O5 1_555 1_555
H2 O5 1_555 1_555
H3 N1 1_555 1_555
H4 N1 1_555 1_555
H5 N1 1_555 1_555
H7 C4 1_555 1_555
H8 O9 1_555 1_555
C3A C3 1_555 1_555
O3A C3A 1_555 1_555
O6A Mn2 1_555 1_555
C4A C4 1_555 1_555
N1A C4A 1_555 1_555
H3A N1A 1_555 1_555
H4A N1A 1_555 1_555
H5A N1A 1_555 1_555
H6A C4A 1_555 1_555
H7A C4A 1_555 1_555
P1A O4A 1_555 1_555
O4A Mn1A_2 1_555 1_555
O9A P1A 1_555 1_555
O10A P1A 1_555 1_555
O11A Mn1 1_555 1_555
H8A O9A 1_555 1_555
Mn1A O3A 1_555 1_555
Mn2A O6 1_555 1_555
O1_2 C1_2 1_555 1_555
O2_2 C2_2 1_555 1_555
O7_2 Mn2 1_555 1_555
O8_2 Mn2 1_555 1_555
C1_2 O8_2 1_555 1_555
C2_2 O7_2 1_555 1_555
O5A Mn1A 1_555 1_555
H1A O5A 1_555 1_555
H2A O5A 1_555 1_555
O10_2 Mn2 1_555 1_555
Mn2_2 O7 1_555 1_555
Mn2_3 O10 1_555 1_555
Mn1A_2 O11 1_555 1_555
Mn2A_2 O11 1_555 1_555
Mn2A_3 O10A 1_555 1_555
O1A Mn1A 1_555 1_555
O2A Mn1A 1_555 1_555
O4A_2 Mn1A 1_555 1_555
O11_2 Mn1A 1_555 1_555
O7A Mn2A 1_555 1_555
O8A Mn2A 1_555 1_555
O10A_2 Mn2A 1_555 1_555
Mn1_2 O1_2 1_555 1_555
Mn2 O11A 1_555 1_555
O8 Mn2_2 1_555 1_555
C3A O6A 1_555 1_555
O3A Mn2A 1_555 1_555
P1A O11A 1_555 1_555
Mn2A O11_2 1_555 1_555
O2_2 Mn1_2 1_555 1_555
C1_2 C2_2 1_555 1_555

#END
