
#######################################################################
#
#                 Cambridge Crystallographic Data Centre
#                                CCDC 
#
#######################################################################
#
# If this CIF has been generated from an entry in the Cambridge 
# Structural Database, then it will include bibliographic, chemical, 
# crystal, experimental, refinement or atomic coordinate data resulting 
# from the CCDC's data processing and validation procedures.
#
#######################################################################

data_VIRQAO
_symmetry_cell_setting           monoclinic
_symmetry_space_group_name_H-M   'P 21/n'
_symmetry_Int_Tables_number      14
_space_group_name_Hall           '-P 2yn'
loop_
_symmetry_equiv_pos_site_id
_symmetry_equiv_pos_as_xyz
1 x,y,z
2 1/2+x,1/2-y,1/2+z
3 -x,-y,-z
4 1/2-x,1/2+y,1/2-z
_cell_length_a                   5.4573(4)
_cell_length_b                   8.9650(7)
_cell_length_c                   15.253(1)
_cell_angle_alpha                90
_cell_angle_beta                 98.924(1)
_cell_angle_gamma                90
_cell_volume                     737.215
loop_
_atom_site_label
_atom_site_type_symbol
_atom_site_fract_x
_atom_site_fract_y
_atom_site_fract_z
Mn1 Mn 0.1010(1) 0.48380(6) 0.81816(4)
P1 P -0.3903(2) 0.2596(1) 0.81943(7)
O1 O 0.2249(5) 0.3986(3) 0.9566(2)
O2 O -0.1476(5) 0.3016(3) 0.7899(2)
O3 O -0.4537(5) 0.0956(3) 0.8012(2)
O4 O 0.3711(6) 0.6762(4) 0.8505(2)
O5 O 0.1248(5) 0.3943(3) 1.0927(2)
O6 O -0.6025(5) 0.3602(3) 0.7795(2)
O7 O -0.3452(8) 0.2784(5) 0.9252(3)
C1 C 0.1010(7) 0.4402(4) 1.0142(3)
H1 H 0.37(1) 0.720(7) 0.810(4)
H2 H 0.51(1) 0.646(7) 0.871(4)
H8 H -0.46(2) 0.29(1) 0.933(6)
C1B C -0.1010(7) 0.5598(4) 0.9858(3)
O1B O -0.2249(5) 0.6014(3) 1.0434(2)
O5B O -0.1248(5) 0.6057(3) 0.9073(2)
P1C P -0.1097(2) 0.7596(1) 0.68057(7)
O2C O -0.3524(5) 0.8016(3) 0.7101(2)
O3C O -0.0463(5) 0.5956(3) 0.6988(2)
O6C O 0.1025(5) 0.8602(3) 0.7205(2)
O7C O -0.1548(8) 0.7784(5) 0.5748(3)
H8C H -0.04(2) 0.79(1) 0.567(6)
Mn1B Mn -0.1010(1) 0.51620(6) 1.18184(4)
O4B O -0.3711(6) 0.3238(4) 1.1495(2)
H1B H -0.37(1) 0.280(7) 1.190(4)
H2B H -0.51(1) 0.354(7) 1.129(4)
O6_2 O 0.3975(5) 0.3602(3) 0.7795(2)
Mn1C Mn -0.6010(1) -0.01620(6) 0.68184(4)
Mn1_2 Mn -0.8990(1) 0.48380(6) 0.81816(4)
Mn1C_2 Mn -0.6010(1) 0.98380(6) 0.68184(4)
Mn1C_3 Mn 0.3990(1) 0.98380(6) 0.68184(4)
O2B O 0.1476(5) 0.6984(3) 1.2101(2)
O3A O 0.0463(5) 0.4044(3) 1.3012(2)
O6B O -0.3975(5) 0.6398(3) 1.2205(2)
N1 N -0.0578(8) 0.9267(4) 0.8829(2)
C2 C 0.0765(8) 1.0043(5) 0.9623(3)
H3 H 0.032(8) 0.924(4) 0.837(3)
H4 H -0.10(1) 0.824(7) 0.898(4)
H5 H 0.231(7) 0.955(4) 0.979(2)
H6 H 0.082(8) 1.105(5) 0.947(3)
H7 H -0.195(9) 0.978(5) 0.859(3)
C2B C -0.0765(8) 0.9957(5) 1.0377(3)
N1B N 0.0578(8) 1.0733(4) 1.1171(2)
H3B H -0.032(8) 1.076(4) 1.163(3)
H4B H 0.10(1) 1.176(7) 1.102(4)
H7B H 0.195(9) 1.022(5) 1.141(3)
H5B H -0.231(7) 1.045(4) 1.021(2)
H6B H -0.082(8) 0.895(5) 1.053(3)
loop_
_geom_bond_atom_site_label_1
_geom_bond_atom_site_label_2
_geom_bond_site_symmetry_1
_geom_bond_site_symmetry_2
Mn1 O1 1_555 1_555
P1 O2 1_555 1_555
O1 C1 1_555 1_555
O2 Mn1 1_555 1_555
O3 P1 1_555 1_555
O4 Mn1 1_555 1_555
O5 C1 1_555 1_555
O6 P1 1_555 1_555
O7 P1 1_555 1_555
N1 C2 1_555 1_555
C1 C1B 1_555 1_555
C2 H5 1_555 1_555
H1 O4 1_555 1_555
H2 O4 1_555 1_555
H3 N1 1_555 1_555
H4 N1 1_555 1_555
H6 C2 1_555 1_555
H7 N1 1_555 1_555
H8 O7 1_555 1_555
C1B O1B 1_555 1_555
O1B Mn1B 1_555 1_555
O5B Mn1 1_555 1_555
C2B C2 1_555 1_555
N1B C2B 1_555 1_555
H3B N1B 1_555 1_555
H4B N1B 1_555 1_555
H7B N1B 1_555 1_555
H5B C2B 1_555 1_555
H6B C2B 1_555 1_555
P1C O2C 1_555 1_555
O2C Mn1C_2 1_555 1_555
O3C Mn1 1_555 1_555
O6C P1C 1_555 1_555
O7C P1C 1_555 1_555
H8C O7C 1_555 1_555
Mn1B O5 1_555 1_555
O4B Mn1B 1_555 1_555
H1B O4B 1_555 1_555
H2B O4B 1_555 1_555
O6_2 Mn1 1_555 1_555
Mn1C O3 1_555 1_555
Mn1_2 O6 1_555 1_555
Mn1C_3 O6C 1_555 1_555
O2B Mn1B 1_555 1_555
O3A Mn1B 1_555 1_555
O6B Mn1B 1_555 1_555
C1B O5B 1_555 1_555
P1C O3C 1_555 1_555

#END
