
#######################################################################
#
#                 Cambridge Crystallographic Data Centre
#                                CCDC 
#
#######################################################################
#
# If this CIF has been generated from an entry in the Cambridge 
# Structural Database, then it will include bibliographic, chemical, 
# crystal, experimental, refinement or atomic coordinate data resulting 
# from the CCDC's data processing and validation procedures.
#
#######################################################################

data_VIRRUL
_symmetry_cell_setting           triclinic
_symmetry_space_group_name_H-M   'P -1'
_symmetry_Int_Tables_number      2
_space_group_name_Hall           '-P 1'
loop_
_symmetry_equiv_pos_site_id
_symmetry_equiv_pos_as_xyz
1 x,y,z
2 -x,-y,-z
_cell_length_a                   10.9446(9)
_cell_length_b                   15.2526(12)
_cell_length_c                   16.0944(13)
_cell_angle_alpha                102.7930(10)
_cell_angle_beta                 105.4210(10)
_cell_angle_gamma                99.0340(10)
_cell_volume                     2458.17
loop_
_atom_site_label
_atom_site_type_symbol
_atom_site_fract_x
_atom_site_fract_y
_atom_site_fract_z
Cd1 Cd 0.57330(5) 0.42433(3) 0.07156(3)
Cd2 Cd 1.42647(5) 1.07572(3) -0.07153(3)
O1 O 1.6677(5) 1.3122(3) -0.8528(3)
O2 O 1.3317(5) 1.1883(3) -0.1477(3)
O3 O 1.3659(5) 1.6531(3) -0.9382(3)
O4 O 1.4331(5) 1.5244(3) -0.9397(3)
O5 O 1.5692(5) 0.9756(3) -0.0587(3)
O6 O 1.6317(5) 0.8470(3) -0.0620(3)
O7 O 0.3834(4) 0.3124(3) 0.0109(3)
O8 O 1.8037(5) 0.9379(3) -0.3847(3)
O9 O 1.1938(5) 1.5606(4) -0.6162(3)
O10 O 1.5671(5) 1.4068(4) -0.7876(3)
O11 O 1.6166(4) 1.1878(3) -0.0124(3)
O12 O 1.6328(5) 1.1591(4) -0.5196(4)
O13 O 1.3650(5) 1.3408(4) -0.4814(3)
O14 O 1.4357(5) 1.0929(4) -0.2108(3)
N1 N 1.0805(6) 0.8440(4) -0.1782(4)
C1 C 1.3357(6) 1.5796(5) -0.8273(4)
C2 C 1.6938(7) 1.0060(5) -0.1882(5)
H1 H 1.6829 1.0585 -0.1513
N2 N 0.9146(6) 0.6549(4) 0.1759(4)
C3 C 0.8097(6) 0.5974(4) 0.1117(4)
H2 H 0.7723 0.6065 0.0561
N3 N 0.7672(5) 0.5264(4) 0.1388(4)
N4 N 1.2314(5) 0.9732(4) -0.1362(4)
C4 C 1.1832(8) 0.8973(5) -0.1157(5)
H3 H 1.2197 0.8842 -0.0620
C5 C 1.6625(6) 0.9225(4) -0.1720(4)
C6 C 1.2475(7) 1.5620(5) -0.6861(4)
C7 C 1.7374(8) 1.1270(6) -0.4834(5)
C8 C 1.3380(8) 1.3370(6) -0.3388(5)
H4 H 1.3205 1.3954 -0.3316
C9 C 1.7549(7) 0.9372(5) -0.3149(5)
C10 C 1.2808(7) 1.6484(5) -0.6983(4)
H5 H 1.2766 1.7006 -0.6574
C11 C 1.0074(7) 0.7527(5) -0.0840(5)
C12 C 1.3835(6) 1.5872(4) -0.9060(4)
C13 C 1.6621(7) 1.1613(5) -0.6628(5)
H6 H 1.6793 1.1027 -0.6714
C14 C 1.2545(7) 1.3705(5) -0.5184(4)
C15 C 1.8213(7) 1.0180(5) -0.4118(4)
C16 C 1.7236(7) 0.8519(5) -0.3003(4)
H7 H 1.7333 0.7995 -0.3380
C17 C 1.3195(7) 1.6567(4) -0.7698(4)
H8 H 1.3354 1.7142 -0.7807
C18 C 1.3702(7) 1.2064(5) -0.2829(4)
C19 C 1.2797(6) 1.4492(4) -0.5495(4)
H9 H 1.3640 1.4788 -0.5432
C20 C 0.9939(8) 0.7481(5) 0.0862(6)
C21 C 1.3394(7) 1.2932(4) -0.2721(5)
H10 H 1.3202 1.3208 -0.2210
C22 C 1.6598(7) 1.2091(5) -0.7264(5)
H11 H 1.6775 1.1820 -0.7784
C23 C 1.6379(8) 1.2041(6) -0.5857(5)
C24 C 1.0560(7) 0.6897(6) 0.0415(5)
H12 H 1.0934 0.6484 0.0688
C25 C 1.1727(8) 1.4801(5) -0.5899(4)
C26 C 1.6772(6) 0.8447(5) -0.2286(4)
H13 H 1.6560 0.7872 -0.2188
C27 C 1.6191(7) 0.9136(5) -0.0951(5)
C28 C 1.9466(9) 1.0597(6) -0.4044(6)
H14 H 2.0163 1.0354 -0.3804
C29 C 1.7418(8) 1.0144(5) -0.2590(5)
H15 H 1.7647 1.0721 -0.2681
C30 C 1.6325(6) 1.2952(5) -0.7163(4)
C31 C 1.0502(7) 1.4402(7) -0.5975(6)
H16 H 0.9803 1.4629 -0.6243
C32 C 1.7182(8) 1.0534(5) -0.4508(5)
H17 H 1.6341 1.0259 -0.4545
C33 C 1.3622(7) 1.2952(5) -0.4151(5)
C34 C 1.3066(7) 1.4926(5) -0.8128(4)
H18 H 1.3181 1.4409 -0.8505
C35 C 0.9428(8) 0.8101(5) -0.0416(6)
H19 H 0.9042 0.8507 -0.0694
C36 C 1.2614(7) 1.4839(4) -0.7430(4)
H20 H 1.2400 1.4262 -0.7337
C37 C 1.6032(8) 1.3345(5) -0.6396(4)
H21 H 1.5784 1.3906 -0.6327
C38 C 1.3957(7) 1.1666(5) -0.3590(5)
H22 H 1.4150 1.1087 -0.3659
C39 C 1.0590(7) 0.8845(5) -0.2478(5)
H23 H 0.9934 0.8624 -0.3028
C40 C 1.6206(8) 1.3395(5) -0.7907(5)
C41 C 1.0125(8) 0.7548(5) -0.1745(5)
H24 H 1.0556 0.7076 -0.1956
H25 H 0.9241 0.7395 -0.2150
C42 C 1.3938(7) 1.2096(5) -0.4268(5)
H26 H 1.4129 1.1821 -0.4781
C43 C 0.9406(7) 0.6163(6) 0.2461(5)
H27 H 1.0081 0.6408 0.2999
C44 C 0.9840(8) 0.7457(5) 0.1775(5)
H28 H 1.0709 0.7609 0.2201
H29 H 0.9387 0.7920 0.1974
C45 C 1.6117(8) 1.2885(6) -0.5729(5)
H30 H 1.5992 1.3165 -0.5192
C46 C 1.1527(7) 0.9621(5) -0.2196(5)
H31 H 1.1622 1.0034 -0.2535
C47 C 1.9669(9) 1.1380(7) -0.4333(6)
H32 H 2.0514 1.1688 -0.4248
C48 C 0.8508(8) 0.5364(6) 0.2232(5)
H33 H 0.8461 0.4955 0.2579
C49 C 1.3779(6) 1.1577(5) -0.2096(4)
C50 C 1.8623(8) 1.1714(7) -0.4748(6)
H34 H 1.8762 1.2226 -0.4964
C51 C 1.0311(8) 1.3654(8) -0.5649(7)
H35 H 0.9469 1.3386 -0.5684
C52 C 0.9362(7) 0.8067(6) 0.0421(6)
H36 H 0.8916 0.8449 0.0697
C53 C 1.0632(8) 0.6917(5) -0.0417(5)
H37 H 1.1055 0.6521 -0.0701
C54 C 1.1295(8) 1.3289(6) -0.5280(6)
H38 H 1.1126 1.2761 -0.5094
Cd1_2 Cd 1.57330(5) 1.42433(3) -0.92844(3)
Cd1A Cd 1.42670(5) 1.57567(3) -1.07156(3)
Cd2A Cd 1.57353(5) 0.92428(3) 0.07153(3)
O1_2 O 0.6677(5) 0.3122(3) 0.1472(3)
O3A O 0.6341(5) 0.3469(3) -0.0618(3)
O4_2 O 0.4331(5) 0.5244(3) 0.0603(3)
O4A O 0.5669(5) 0.4756(3) -0.0603(3)
O5A O 1.4308(5) 1.0244(3) 0.0587(3)
O6A O 1.3683(5) 1.1530(3) 0.0620(3)
O10_2 O 0.5671(5) 0.4068(4) 0.2124(3)
loop_
_geom_bond_atom_site_label_1
_geom_bond_atom_site_label_2
_geom_bond_site_symmetry_1
_geom_bond_site_symmetry_2
Cd1 O7 1_555 1_555
Cd2 O2 1_555 1_555
O1 C40 1_555 1_555
O2 C49 1_555 1_555
O3 C12 1_555 1_555
O4 C12 1_555 1_555
O5 Cd2 1_555 1_555
O6 C27 1_555 1_555
O8 C9 1_555 1_555
O9 C6 1_555 1_555
O10 C40 1_555 1_555
O11 Cd2 1_555 1_555
O12 C7 1_555 1_555
O13 C14 1_555 1_555
O14 Cd2 1_555 1_555
N1 C4 1_555 1_555
C1 C12 1_555 1_555
C2 H1 1_555 1_555
N2 C3 1_555 1_555
C3 H2 1_555 1_555
N3 Cd1 1_555 1_555
N4 Cd2 1_555 1_555
C4 N4 1_555 1_555
H3 C4 1_555 1_555
C5 C2 1_555 1_555
C6 C10 1_555 1_555
C7 C32 1_555 1_555
C8 H4 1_555 1_555
C9 C16 1_555 1_555
C10 H5 1_555 1_555
C11 C35 1_555 1_555
C13 H6 1_555 1_555
C14 C19 1_555 1_555
C15 O8 1_555 1_555
C16 H7 1_555 1_555
C17 C1 1_555 1_555
H8 C17 1_555 1_555
C18 C21 1_555 1_555
C19 H9 1_555 1_555
C20 C24 1_555 1_555
C21 C8 1_555 1_555
H10 C21 1_555 1_555
C22 C13 1_555 1_555
H11 C22 1_555 1_555
C23 O12 1_555 1_555
C24 H12 1_555 1_555
C25 O9 1_555 1_555
C26 C5 1_555 1_555
H13 C26 1_555 1_555
C27 O5 1_555 1_555
C28 C15 1_555 1_555
H14 C28 1_555 1_555
C29 C2 1_555 1_555
H15 C29 1_555 1_555
C30 C22 1_555 1_555
C31 C25 1_555 1_555
H16 C31 1_555 1_555
C32 C15 1_555 1_555
H17 C32 1_555 1_555
C33 O13 1_555 1_555
C34 C1 1_555 1_555
H18 C34 1_555 1_555
C35 H19 1_555 1_555
C36 C6 1_555 1_555
H20 C36 1_555 1_555
C37 C30 1_555 1_555
H21 C37 1_555 1_555
C38 C18 1_555 1_555
H22 C38 1_555 1_555
C39 N1 1_555 1_555
H23 C39 1_555 1_555
C40 C30 1_555 1_555
C41 N1 1_555 1_555
H24 C41 1_555 1_555
H25 C41 1_555 1_555
C42 C33 1_555 1_555
H26 C42 1_555 1_555
C43 N2 1_555 1_555
H27 C43 1_555 1_555
C44 N2 1_555 1_555
H28 C44 1_555 1_555
H29 C44 1_555 1_555
C45 C23 1_555 1_555
H30 C45 1_555 1_555
C46 N4 1_555 1_555
H31 C46 1_555 1_555
C47 C28 1_555 1_555
H32 C47 1_555 1_555
C48 N3 1_555 1_555
H33 C48 1_555 1_555
C49 O14 1_555 1_555
C50 C7 1_555 1_555
H34 C50 1_555 1_555
C51 C31 1_555 1_555
H35 C51 1_555 1_555
C52 C20 1_555 1_555
H36 C52 1_555 1_555
C53 C11 1_555 1_555
H37 C53 1_555 1_555
C54 C14 1_555 1_555
H38 C54 1_555 1_555
Cd1_2 O1 1_555 1_555
Cd1A O3 1_555 1_555
Cd2A O5 1_555 1_555
O1_2 Cd1 1_555 1_555
O3A Cd1 1_555 1_555
O4_2 Cd1 1_555 1_555
O4A Cd1 1_555 1_555
O5A Cd2 1_555 1_555
O6A Cd2 1_555 1_555
O10_2 Cd1 1_555 1_555
O4 Cd1_2 1_555 1_555
O4 Cd1A 1_555 1_555
O6 Cd2A 1_555 1_555
O10 Cd1_2 1_555 1_555
C3 N3 1_555 1_555
C5 C27 1_555 1_555
C8 C33 1_555 1_555
C9 C29 1_555 1_555
C10 C17 1_555 1_555
C11 C41 1_555 1_555
C13 C23 1_555 1_555
C16 C26 1_555 1_555
C18 C49 1_555 1_555
C19 C25 1_555 1_555
C20 C44 1_555 1_555
C24 C53 1_555 1_555
C34 C36 1_555 1_555
C35 C52 1_555 1_555
C37 C45 1_555 1_555
C38 C42 1_555 1_555
C39 C46 1_555 1_555
C43 C48 1_555 1_555
C47 C50 1_555 1_555
C51 C54 1_555 1_555
Cd2A O5A 1_555 1_555

#END
