
#######################################################################
#
#                 Cambridge Crystallographic Data Centre
#                                CCDC 
#
#######################################################################
#
# If this CIF has been generated from an entry in the Cambridge 
# Structural Database, then it will include bibliographic, chemical, 
# crystal, experimental, refinement or atomic coordinate data resulting 
# from the CCDC's data processing and validation procedures.
#
#######################################################################

data_VIRROF
_symmetry_cell_setting           triclinic
_symmetry_space_group_name_H-M   'P -1'
_symmetry_Int_Tables_number      2
_space_group_name_Hall           '-P 1'
loop_
_symmetry_equiv_pos_site_id
_symmetry_equiv_pos_as_xyz
1 x,y,z
2 -x,-y,-z
_cell_length_a                   11.0578(5)
_cell_length_b                   11.4735(5)
_cell_length_c                   28.3323(12)
_cell_angle_alpha                94.6960(10)
_cell_angle_beta                 90.3450(10)
_cell_angle_gamma                95.7970(10)
_cell_volume                     3563.81
loop_
_atom_site_label
_atom_site_type_symbol
_atom_site_fract_x
_atom_site_fract_y
_atom_site_fract_z
C1 C -0.4306(3) 0.3528(3) 0.47326(11)
H1 H -0.3722 0.4096 0.4635
C2 C -0.5491(3) 0.3511(3) 0.45602(12)
H2 H -0.5690 0.4065 0.4359
C3 C -0.6349(3) 0.2677(3) 0.46906(11)
H3 H -0.7140 0.2644 0.4573
C4 C -0.6043(2) 0.1862(2) 0.50028(9)
C5 C -0.6894(2) 0.0976(3) 0.51653(10)
H4 H -0.7687 0.0890 0.5047
C6 C -0.6578(2) 0.0258(2) 0.54869(11)
H5 H -0.7157 -0.0308 0.5590
C7 C -0.5364(2) 0.0353(2) 0.56735(9)
C8 C -0.5002(3) -0.0349(2) 0.60194(11)
H6 H -0.5561 -0.0898 0.6144
C9 C -0.3819(3) -0.0220(3) 0.61716(11)
H7 H -0.3567 -0.0679 0.6402
C10 C -0.2991(2) 0.0605(2) 0.59798(9)
H8 H -0.2183 0.0668 0.6081
C11 C -0.4488(2) 0.1189(2) 0.55080(8)
C12 C -0.4829(2) 0.1963(2) 0.51696(8)
C13 C 0.7917(3) -0.3540(3) 1.06172(11)
H9 H 0.8698 -0.3182 1.0578
C14 C 0.7757(4) -0.4493(3) 1.09006(12)
H10 H 0.8420 -0.4750 1.1051
C15 C 0.6624(4) -0.5031(3) 1.09517(11)
H11 H 0.6508 -0.5671 1.1133
C16 C 0.5637(3) -0.4635(2) 1.07355(9)
C17 C 0.4400(3) -0.5168(3) 1.07593(10)
H12 H 0.4238 -0.5827 1.0928
C18 C 0.3485(3) -0.4740(3) 1.05454(11)
H13 H 0.2699 -0.5099 1.0573
C19 C 0.3685(3) -0.3741(3) 1.02751(9)
C20 C 0.2752(3) -0.3252(3) 1.00441(10)
H14 H 0.1952 -0.3583 1.0062
C21 C 0.3015(3) -0.2299(3) 0.97946(10)
H15 H 0.2399 -0.1960 0.9648
C22 C 0.4230(2) -0.1836(3) 0.97627(9)
H16 H 0.4404 -0.1187 0.9589
C23 C 0.4873(2) -0.3213(2) 1.02285(8)
C24 C 0.5864(2) -0.3659(2) 1.04600(8)
C25 C 0.7867(2) -0.0591(2) 1.07947(8)
C26 C 0.8327(2) -0.0587(2) 1.12914(8)
C27 C 0.7515(3) -0.0929(3) 1.16370(9)
H17 H 0.6686 -0.1037 1.1569
C28 C 0.7939(3) -0.1109(3) 1.20835(9)
H18 H 0.7398 -0.1348 1.2315
C29 C 0.9157(3) -0.0934(2) 1.21817(9)
C30 C 0.9964(3) -0.0524(3) 1.18535(10)
H19 H 1.0784 -0.0355 1.1932
C31 C 0.9549(3) -0.0364(3) 1.14040(9)
H20 H 1.0095 -0.0106 1.1177
C32 C 0.9889(3) -0.2264(2) 1.26891(8)
C33 C 1.0702(3) -0.2352(3) 1.30522(9)
H21 H 1.1078 -0.1676 1.3217
C34 C 1.0957(3) -0.3440(3) 1.31693(10)
H22 H 1.1497 -0.3499 1.3417
C35 C 1.0415(3) -0.4453(3) 1.29212(10)
H23 H 1.0576 -0.5191 1.3003
C36 C 0.9634(2) -0.4342(2) 1.25523(9)
C37 C 0.9361(2) -0.3254(2) 1.24279(8)
H24 H 0.8835 -0.3194 1.2175
C38 C 1.0731(2) -0.5677(2) 1.18098(9)
H25 H 1.1255 -0.5141 1.1997
C39 C 1.1150(2) -0.6270(2) 1.14051(9)
H26 H 1.1960 -0.6122 1.1322
C40 C 1.0385(2) -0.7079(2) 1.11226(8)
C41 C 0.9181(2) -0.7301(2) 1.12645(9)
H27 H 0.8656 -0.7857 1.1087
C42 C 0.8760(2) -0.6713(2) 1.16610(10)
H28 H 0.7955 -0.6868 1.1749
C43 C 0.9530(2) -0.5892(2) 1.19299(8)
C44 C 1.0818(2) -0.7718(2) 1.06817(9)
C45 C -0.1896(2) 0.2652(2) 0.38399(8)
C46 C -0.1705(2) 0.1575(2) 0.36127(9)
H29 H -0.1323 0.1040 0.3776
C47 C -0.2068(2) 0.1281(2) 0.31498(9)
H30 H -0.1903 0.0565 0.2999
C48 C -0.2673(2) 0.2043(2) 0.29106(9)
C49 C -0.2860(3) 0.3119(3) 0.31228(10)
H31 H -0.3256 0.3642 0.2959
C50 C -0.2457(3) 0.3429(2) 0.35862(10)
H32 H -0.2565 0.4171 0.3727
C51 C -0.4140(3) 0.1778(2) 0.22644(9)
C52 C -0.5156(3) 0.1850(3) 0.25387(10)
H33 H -0.5095 0.1888 0.2867
C53 C -0.6264(3) 0.1864(3) 0.23165(10)
C54 C -0.6375(3) 0.1809(3) 0.18319(11)
H34 H -0.7128 0.1835 0.1688
C55 C -0.5356(3) 0.1714(3) 0.15652(10)
H35 H -0.5425 0.1662 0.1237
C56 C -0.4239(3) 0.1695(2) 0.17734(9)
H36 H -0.3554 0.1627 0.1588
C57 C -0.1576(2) 0.2945(2) 0.43570(8)
C58 C -0.7434(3) 0.2595(3) 0.29700(10)
C59 C -0.8287(3) 0.2220(3) 0.32925(11)
H37 H -0.8728 0.1486 0.3240
C60 C -0.8478(2) 0.2941(2) 0.36932(10)
H38 H -0.9037 0.2681 0.3916
C61 C -0.7846(2) 0.4054(2) 0.37685(8)
C62 C -0.7005(2) 0.4422(2) 0.34353(9)
H39 H -0.6580 0.5166 0.3481
C63 C -0.6792(3) 0.3695(3) 0.30371(9)
H40 H -0.6222 0.3943 0.2817
C64 C -0.8093(2) 0.4843(2) 0.41972(8)
C65 C 0.0245(2) 0.26664(19) 0.56380(8)
C66 C 0.1431(2) 0.2660(2) 0.58857(8)
C67 C 0.1573(2) 0.1848(2) 0.62167(8)
H41 H 0.0935 0.1285 0.6272
C68 C 0.2657(3) 0.1879(3) 0.64611(9)
H42 H 0.2751 0.1350 0.6687
C69 C 0.3600(2) 0.2702(3) 0.63686(10)
C70 C 0.3496(2) 0.3494(2) 0.60367(10)
H43 H 0.4147 0.4035 0.5975
C71 C 0.2399(2) 0.3471(2) 0.57966(9)
H44 H 0.2312 0.4006 0.5573
C72 C 0.4773(2) 0.3264(2) 0.70639(9)
C73 C 0.3907(2) 0.3941(2) 0.72526(9)
H45 H 0.3208 0.4023 0.7080
C74 C 0.4092(3) 0.4496(3) 0.77022(10)
H46 H 0.3507 0.4949 0.7833
C75 C 0.5128(3) 0.4391(3) 0.79594(11)
H47 H 0.5258 0.4785 0.8258
C76 C 0.5967(3) 0.3690(3) 0.77654(10)
C77 C 0.5813(2) 0.3127(2) 0.73216(10)
H48 H 0.6392 0.2661 0.7195
C78 C 0.7068(2) 0.2825(2) 0.83512(9)
C79 C 0.8173(2) 0.2845(2) 0.85849(9)
H49 H 0.8827 0.3372 0.8513
C80 C 0.8288(2) 0.2073(2) 0.89253(9)
H50 H 0.9028 0.2086 0.9084
C81 C 0.7328(2) 0.1277(2) 0.90369(8)
C82 C 0.6221(2) 0.1297(2) 0.88097(9)
H51 H 0.5558 0.0787 0.8888
C83 C 0.6089(2) 0.2070(3) 0.84668(10)
H52 H 0.5341 0.2078 0.8315
C84 C 0.7509(2) 0.0422(2) 0.93954(8)
N1 N -0.39649(18) 0.27819(18) 0.50272(7)
N2 N -0.33028(17) 0.13025(17) 0.56600(7)
N3 N 0.51441(19) -0.22735(18) 0.99669(7)
N4 N 0.7000(2) -0.31333(19) 1.04047(7)
O1 O 0.86146(16) -0.08140(16) 1.04601(6)
O2 O 0.67893(18) -0.04996(18) 1.07074(7)
O3 O 0.9610(2) -0.11350(17) 1.26265(6)
O4 O 0.90048(17) -0.53368(16) 1.23142(7)
O5 O 1.00358(17) -0.83818(16) 1.04379(7)
O6 O 1.19301(17) -0.75392(16) 1.05837(6)
O7 O -0.14577(16) 0.39971(14) 0.45215(6)
O8 O -0.15314(15) 0.20959(14) 0.46120(6)
O9 O -0.29853(18) 0.1708(2) 0.24392(6)
O10 O -0.7335(2) 0.1831(2) 0.25751(8)
O11 O -0.86972(17) 0.43942(16) 0.45219(6)
O12 O -0.76661(16) 0.59046(16) 0.42044(6)
O13 O 0.00723(16) 0.34960(14) 0.53893(6)
O14 O -0.05870(15) 0.18540(15) 0.56842(6)
O15 O 0.47080(18) 0.2716(2) 0.66128(8)
O16 O 0.70503(18) 0.3614(2) 0.80107(8)
O17 O 0.85518(17) 0.04614(18) 0.95761(6)
O18 O 0.66255(17) -0.02889(16) 0.94956(6)
Mn1 Mn -0.20481(3) 0.26612(3) 0.532262(12)
Mn2 Mn 0.0000 0.5000 0.5000
Mn3 Mn 0.71095(3) -0.15389(3) 0.994849(12)
Mn4 Mn 1.0000 0.0000 1.0000
C1A C -0.5694(3) 0.6472(3) 0.52674(11)
H1A H -0.6278 0.5904 0.5365
C2A C -0.4509(3) 0.6489(3) 0.54398(12)
H2A H -0.4310 0.5935 0.5641
C3A C -0.3651(3) 0.7323(3) 0.53094(11)
H3A H -0.2860 0.7356 0.5427
C4A C -0.3957(2) 0.8138(2) 0.49972(9)
C5A C -0.3106(2) 0.9024(3) 0.48347(10)
H4A H -0.2313 0.9110 0.4953
C6A C -0.3422(2) 0.9742(2) 0.45131(11)
H5A H -0.2843 1.0308 0.4410
C7A C -0.4636(2) 0.9647(2) 0.43265(9)
C8A C -0.4998(3) 1.0349(2) 0.39806(11)
H6A H -0.4439 1.0898 0.3856
C9A C -0.6181(3) 1.0220(3) 0.38284(11)
H7A H -0.6433 1.0679 0.3598
C10A C -0.7009(2) 0.9395(2) 0.40202(9)
H8A H -0.7817 0.9332 0.3919
C11A C -0.5512(2) 0.8811(2) 0.44920(8)
C12A C -0.5171(2) 0.8037(2) 0.48304(8)
C13A C -1.7917(3) 1.3540(3) -0.06172(11)
H9A H -1.8698 1.3182 -0.0578
C14A C -1.7757(4) 1.4493(3) -0.09006(12)
H10A H -1.8420 1.4750 -0.1051
C15A C -1.6624(4) 1.5031(3) -0.09517(11)
H11A H -1.6508 1.5671 -0.1133
C16A C -1.5637(3) 1.4635(2) -0.07355(9)
C17A C -1.4400(3) 1.5168(3) -0.07593(10)
H12A H -1.4238 1.5827 -0.0928
C18A C -1.3485(3) 1.4740(3) -0.05454(11)
H13A H -1.2699 1.5099 -0.0573
C19A C -1.3685(3) 1.3741(3) -0.02751(9)
C20A C -1.2752(3) 1.3252(3) -0.00441(10)
H14A H -1.1952 1.3583 -0.0062
C21A C -1.3015(3) 1.2299(3) 0.02054(10)
H15A H -1.2399 1.1960 0.0352
C22A C -1.4230(2) 1.1836(3) 0.02373(9)
H16A H -1.4404 1.1187 0.0411
C23A C -1.4873(2) 1.3213(2) -0.02285(8)
C24A C -1.5864(2) 1.3659(2) -0.04600(8)
C25A C -1.7867(2) 1.0591(2) -0.07947(8)
C26A C -1.8327(2) 1.0587(2) -0.12914(8)
C27A C -1.7515(3) 1.0929(3) -0.16370(9)
H17A H -1.6686 1.1037 -0.1569
C28A C -1.7939(3) 1.1109(3) -0.20835(9)
H18A H -1.7398 1.1348 -0.2315
C29A C -1.9157(3) 1.0934(2) -0.21817(9)
C30A C -1.9964(3) 1.0524(3) -0.18535(10)
H19A H -2.0784 1.0355 -0.1932
C31A C -1.9549(3) 1.0364(3) -0.14040(9)
H20A H -2.0095 1.0106 -0.1177
C32A C -1.9889(3) 1.2264(2) -0.26891(8)
C33A C -2.0702(3) 1.2352(3) -0.30522(9)
H21A H -2.1078 1.1676 -0.3217
C34A C -2.0957(3) 1.3440(3) -0.31693(10)
H22A H -2.1497 1.3499 -0.3417
C35A C -2.0415(3) 1.4453(3) -0.29212(10)
H23A H -2.0576 1.5191 -0.3003
C36A C -1.9634(2) 1.4342(2) -0.25523(9)
C37A C -1.9361(2) 1.3254(2) -0.24279(8)
H24A H -1.8835 1.3194 -0.2175
C38A C -2.0731(2) 1.5677(2) -0.18098(9)
H25A H -2.1255 1.5141 -0.1997
C39A C -2.1150(2) 1.6270(2) -0.14051(9)
H26A H -2.1960 1.6122 -0.1322
C40A C -2.0385(2) 1.7079(2) -0.11226(8)
C41A C -1.9181(2) 1.7301(2) -0.12645(9)
H27A H -1.8656 1.7857 -0.1087
C42A C -1.8760(2) 1.6713(2) -0.16610(10)
H28A H -1.7955 1.6868 -0.1749
C43A C -1.9530(2) 1.5892(2) -0.19299(8)
C44A C -2.0818(2) 1.7718(2) -0.06817(9)
C45A C -0.8104(2) 0.7348(2) 0.61601(8)
C46A C -0.8295(2) 0.8425(2) 0.63873(9)
H29A H -0.8677 0.8960 0.6224
C47A C -0.7932(2) 0.8719(2) 0.68502(9)
H30A H -0.8097 0.9435 0.7001
C48A C -0.7327(2) 0.7957(2) 0.70894(9)
C49A C -0.7140(3) 0.6881(3) 0.68772(10)
H31A H -0.6744 0.6358 0.7041
C50A C -0.7543(3) 0.6571(2) 0.64138(10)
H32A H -0.7435 0.5829 0.6273
C51A C -0.5860(3) 0.8222(2) 0.77356(9)
C52A C -0.4844(3) 0.8150(3) 0.74613(10)
H33A H -0.4905 0.8112 0.7133
C53A C -0.3736(3) 0.8136(3) 0.76835(10)
C54A C -0.3625(3) 0.8191(3) 0.81681(11)
H34A H -0.2872 0.8165 0.8312
C55A C -0.4644(3) 0.8286(3) 0.84348(10)
H35A H -0.4575 0.8338 0.8763
C56A C -0.5761(3) 0.8305(2) 0.82266(9)
H36A H -0.6446 0.8373 0.8412
C57A C -0.8424(2) 0.7055(2) 0.56430(8)
C58A C -0.2566(3) 0.7405(3) 0.70300(10)
C59A C -0.1713(3) 0.7780(3) 0.67075(11)
H37A H -0.1272 0.8514 0.6760
C60A C -0.1522(2) 0.7059(2) 0.63068(10)
H38A H -0.0963 0.7319 0.6084
C61A C -0.2154(2) 0.5946(2) 0.62315(8)
C62A C -0.2995(2) 0.5578(2) 0.65647(9)
H39A H -0.3420 0.4834 0.6519
C63A C -0.3208(3) 0.6305(3) 0.69629(9)
H40A H -0.3778 0.6057 0.7183
C64A C -0.1907(2) 0.5157(2) 0.58028(8)
C65A C -1.0245(2) 0.73336(19) 0.43620(8)
C66A C -1.1431(2) 0.7340(2) 0.41143(8)
C67A C -1.1573(2) 0.8152(2) 0.37833(8)
H41A H -1.0935 0.8715 0.3728
C68A C -1.2657(3) 0.8121(3) 0.35389(9)
H42A H -1.2751 0.8650 0.3313
C69A C -1.3600(2) 0.7298(3) 0.36314(10)
C70A C -1.3496(2) 0.6506(2) 0.39633(10)
H43A H -1.4147 0.5965 0.4025
C71A C -1.2399(2) 0.6529(2) 0.42034(9)
H44A H -1.2312 0.5994 0.4427
C72A C -1.4773(2) 0.6736(2) 0.29361(9)
C73A C -1.3907(2) 0.6059(2) 0.27474(9)
H45A H -1.3208 0.5977 0.2920
C74A C -1.4092(3) 0.5504(3) 0.22978(10)
H46A H -1.3507 0.5051 0.2167
C75A C -1.5128(3) 0.5609(3) 0.20406(11)
H47A H -1.5258 0.5215 0.1742
C76A C -1.5967(3) 0.6310(3) 0.22346(10)
C77A C -1.5813(2) 0.6873(2) 0.26784(10)
H48A H -1.6392 0.7339 0.2805
C78A C -1.7068(2) 0.7175(2) 0.16488(9)
C79A C -1.8173(2) 0.7155(2) 0.14151(9)
H49A H -1.8827 0.6628 0.1487
C80A C -1.8288(2) 0.7927(2) 0.10747(9)
H50A H -1.9028 0.7914 0.0916
C81A C -1.7328(2) 0.8723(2) 0.09631(8)
C82A C -1.6221(2) 0.8703(2) 0.11903(9)
H51A H -1.5558 0.9213 0.1112
C83A C -1.6089(2) 0.7930(3) 0.15332(10)
H52A H -1.5341 0.7922 0.1685
C84A C -1.7509(2) 0.9578(2) 0.06046(8)
N1A N -0.60351(18) 0.72181(18) 0.49728(7)
N2A N -0.66972(17) 0.86975(17) 0.43400(7)
N3A N -1.51441(19) 1.22735(18) 0.00331(7)
N4A N -1.7000(2) 1.31333(19) -0.04047(7)
O1A O -1.86146(16) 1.08140(16) -0.04601(6)
O2A O -1.67893(18) 1.04996(18) -0.07074(7)
O3A O -1.9610(2) 1.11350(17) -0.26265(6)
O4A O -1.90048(17) 1.53368(16) -0.23142(7)
O5A O -2.00358(17) 1.83818(16) -0.04379(7)
O6A O -2.19301(17) 1.75392(16) -0.05837(6)
O7A O -0.85423(16) 0.60029(14) 0.54785(6)
O8A O -0.84686(15) 0.79041(14) 0.53880(6)
O9A O -0.70147(18) 0.8292(2) 0.75608(6)
O10A O -0.2665(2) 0.8169(2) 0.74249(8)
O11A O -0.13028(17) 0.56058(16) 0.54781(6)
O12A O -0.23339(16) 0.40954(16) 0.57956(6)
O13A O -1.00723(16) 0.65040(14) 0.46107(6)
O14A O -0.94130(15) 0.81460(15) 0.43158(6)
O15A O -1.47080(18) 0.7284(2) 0.33872(8)
O16A O -1.70503(18) 0.6386(2) 0.19893(8)
O17A O -1.85518(17) 0.95386(18) 0.04239(6)
O18A O -1.66255(17) 1.02889(16) 0.05044(6)
Mn1A Mn -0.79519(3) 0.73388(3) 0.467738(12)
Mn3A Mn -1.71095(3) 1.15389(3) 0.005151(12)
O1A_2 O 1.13854(16) 0.08140(16) 0.95399(6)
O5_2 O 1.00358(17) 0.16182(16) 1.04379(7)
O5A_2 O 0.99642(17) -0.16182(16) 0.95621(7)
O6_2 O -1.80699(17) 1.24608(16) 0.05837(6)
O6A_2 O 0.80699(17) -0.24608(16) 0.94163(6)
O7A_2 O 0.14577(16) 0.60029(14) 0.54785(6)
O11_2 O 0.13028(17) 0.43942(16) 0.45219(6)
O13A_2 O -0.00723(16) 0.65040(14) 0.46107(6)
O17A_2 O 1.14482(17) -0.04614(18) 1.04239(6)
Mn2_2 Mn -1.0000 0.5000 0.5000
Mn3_2 Mn -2.28905(3) 1.84611(3) -0.005151(12)
Mn3A_2 Mn 1.28905(3) -0.84611(3) 1.005151(12)
Mn4_2 Mn -2.0000 1.0000 0.0000
Mn4_3 Mn -2.0000 2.0000 0.0000
Mn4_4 Mn 1.0000 -1.0000 1.0000
O19 O -0.9491(2) 0.0689(2) 0.44639(9)
loop_
_geom_bond_atom_site_label_1
_geom_bond_atom_site_label_2
_geom_bond_site_symmetry_1
_geom_bond_site_symmetry_2
C1 H1 1_555 1_555
C2 C1 1_555 1_555
H2 C2 1_555 1_555
C3 C2 1_555 1_555
H3 C3 1_555 1_555
C4 C3 1_555 1_555
C5 C4 1_555 1_555
H4 C5 1_555 1_555
C6 C5 1_555 1_555
H5 C6 1_555 1_555
C7 C6 1_555 1_555
C8 C7 1_555 1_555
H6 C8 1_555 1_555
C9 C8 1_555 1_555
H7 C9 1_555 1_555
C10 C9 1_555 1_555
H8 C10 1_555 1_555
C11 C7 1_555 1_555
C12 C4 1_555 1_555
C13 H9 1_555 1_555
C14 C13 1_555 1_555
H10 C14 1_555 1_555
C15 C14 1_555 1_555
H11 C15 1_555 1_555
C16 C15 1_555 1_555
C17 C16 1_555 1_555
H12 C17 1_555 1_555
C18 C17 1_555 1_555
H13 C18 1_555 1_555
C19 C18 1_555 1_555
C20 C19 1_555 1_555
H14 C20 1_555 1_555
C21 C20 1_555 1_555
H15 C21 1_555 1_555
C22 C21 1_555 1_555
H16 C22 1_555 1_555
C23 C19 1_555 1_555
C24 C16 1_555 1_555
C25 C26 1_555 1_555
C26 C27 1_555 1_555
C27 H17 1_555 1_555
C28 C27 1_555 1_555
H18 C28 1_555 1_555
C29 C28 1_555 1_555
C30 C29 1_555 1_555
H19 C30 1_555 1_555
C31 C26 1_555 1_555
H20 C31 1_555 1_555
C32 C33 1_555 1_555
C33 H21 1_555 1_555
C34 C33 1_555 1_555
H22 C34 1_555 1_555
C35 C34 1_555 1_555
H23 C35 1_555 1_555
C36 C35 1_555 1_555
C37 C32 1_555 1_555
H24 C37 1_555 1_555
C38 H25 1_555 1_555
C39 C38 1_555 1_555
H26 C39 1_555 1_555
C40 C39 1_555 1_555
C41 C40 1_555 1_555
H27 C41 1_555 1_555
C42 C41 1_555 1_555
H28 C42 1_555 1_555
C43 C38 1_555 1_555
C44 C40 1_555 1_555
C45 C46 1_555 1_555
C46 H29 1_555 1_555
C47 C46 1_555 1_555
H30 C47 1_555 1_555
C48 C47 1_555 1_555
C49 C48 1_555 1_555
H31 C49 1_555 1_555
C50 C45 1_555 1_555
H32 C50 1_555 1_555
C51 C52 1_555 1_555
C52 H33 1_555 1_555
C53 C52 1_555 1_555
C54 C53 1_555 1_555
H34 C54 1_555 1_555
C55 C54 1_555 1_555
H35 C55 1_555 1_555
C56 C51 1_555 1_555
H36 C56 1_555 1_555
C57 C45 1_555 1_555
C58 C59 1_555 1_555
C59 H37 1_555 1_555
C60 C59 1_555 1_555
H38 C60 1_555 1_555
C61 C60 1_555 1_555
C62 C61 1_555 1_555
H39 C62 1_555 1_555
C63 C58 1_555 1_555
H40 C63 1_555 1_555
C64 C61 1_555 1_555
C65 C66 1_555 1_555
C66 C67 1_555 1_555
C67 H41 1_555 1_555
C68 C67 1_555 1_555
H42 C68 1_555 1_555
C69 C68 1_555 1_555
C70 C69 1_555 1_555
H43 C70 1_555 1_555
C71 C66 1_555 1_555
H44 C71 1_555 1_555
C72 C73 1_555 1_555
C73 H45 1_555 1_555
C74 C73 1_555 1_555
H46 C74 1_555 1_555
C75 C74 1_555 1_555
H47 C75 1_555 1_555
C76 C75 1_555 1_555
C77 C72 1_555 1_555
H48 C77 1_555 1_555
C78 C79 1_555 1_555
C79 H49 1_555 1_555
C80 C79 1_555 1_555
H50 C80 1_555 1_555
C81 C80 1_555 1_555
C82 C81 1_555 1_555
H51 C82 1_555 1_555
C83 C78 1_555 1_555
H52 C83 1_555 1_555
C84 C81 1_555 1_555
N1 C1 1_555 1_555
N2 C10 1_555 1_555
N3 C22 1_555 1_555
N4 C13 1_555 1_555
O1 C25 1_555 1_555
O2 C25 1_555 1_555
O3 C29 1_555 1_555
O4 C36 1_555 1_555
O5 C44 1_555 1_555
O6 C44 1_555 1_555
O7 C57 1_555 1_555
O8 C57 1_555 1_555
O9 C48 1_555 1_555
O10 C53 1_555 1_555
O11 C64 1_555 1_555
O12 C64 1_555 1_555
O13 C65 1_555 1_555
O14 C65 1_555 1_555
O15 C69 1_555 1_555
O16 C76 1_555 1_555
O17 C84 1_555 1_555
O18 C84 1_555 1_555
Mn1 N1 1_555 1_555
Mn2 O7 1_555 1_555
Mn3 N3 1_555 1_555
Mn4 O1 1_555 1_555
C1A H1A 1_555 1_555
C2A C1A 1_555 1_555
H2A C2A 1_555 1_555
C3A C2A 1_555 1_555
H3A C3A 1_555 1_555
C4A C3A 1_555 1_555
C5A C4A 1_555 1_555
H4A C5A 1_555 1_555
C6A C5A 1_555 1_555
H5A C6A 1_555 1_555
C7A C6A 1_555 1_555
C8A C7A 1_555 1_555
H6A C8A 1_555 1_555
C9A C8A 1_555 1_555
H7A C9A 1_555 1_555
C10A C9A 1_555 1_555
H8A C10A 1_555 1_555
C11A C7A 1_555 1_555
C12A C4A 1_555 1_555
C13A H9A 1_555 1_555
C14A C13A 1_555 1_555
H10A C14A 1_555 1_555
C15A C14A 1_555 1_555
H11A C15A 1_555 1_555
C16A C15A 1_555 1_555
C17A C16A 1_555 1_555
H12A C17A 1_555 1_555
C18A C17A 1_555 1_555
H13A C18A 1_555 1_555
C19A C18A 1_555 1_555
C20A C19A 1_555 1_555
H14A C20A 1_555 1_555
C21A C20A 1_555 1_555
H15A C21A 1_555 1_555
C22A C21A 1_555 1_555
H16A C22A 1_555 1_555
C23A C19A 1_555 1_555
C24A C16A 1_555 1_555
C25A C26A 1_555 1_555
C26A C27A 1_555 1_555
C27A H17A 1_555 1_555
C28A C27A 1_555 1_555
H18A C28A 1_555 1_555
C29A C28A 1_555 1_555
C30A C29A 1_555 1_555
H19A C30A 1_555 1_555
C31A C26A 1_555 1_555
H20A C31A 1_555 1_555
C32A C33A 1_555 1_555
C33A H21A 1_555 1_555
C34A C33A 1_555 1_555
H22A C34A 1_555 1_555
C35A C34A 1_555 1_555
H23A C35A 1_555 1_555
C36A C35A 1_555 1_555
C37A C32A 1_555 1_555
H24A C37A 1_555 1_555
C38A H25A 1_555 1_555
C39A C38A 1_555 1_555
H26A C39A 1_555 1_555
C40A C39A 1_555 1_555
C41A C40A 1_555 1_555
H27A C41A 1_555 1_555
C42A C41A 1_555 1_555
H28A C42A 1_555 1_555
C43A C38A 1_555 1_555
C44A C40A 1_555 1_555
C45A C46A 1_555 1_555
C46A H29A 1_555 1_555
C47A C46A 1_555 1_555
H30A C47A 1_555 1_555
C48A C47A 1_555 1_555
C49A C48A 1_555 1_555
H31A C49A 1_555 1_555
C50A C45A 1_555 1_555
H32A C50A 1_555 1_555
C51A C52A 1_555 1_555
C52A H33A 1_555 1_555
C53A C52A 1_555 1_555
C54A C53A 1_555 1_555
H34A C54A 1_555 1_555
C55A C54A 1_555 1_555
H35A C55A 1_555 1_555
C56A C51A 1_555 1_555
H36A C56A 1_555 1_555
C57A C45A 1_555 1_555
C58A C59A 1_555 1_555
C59A H37A 1_555 1_555
C60A C59A 1_555 1_555
H38A C60A 1_555 1_555
C61A C60A 1_555 1_555
C62A C61A 1_555 1_555
H39A C62A 1_555 1_555
C63A C58A 1_555 1_555
H40A C63A 1_555 1_555
C64A C61A 1_555 1_555
C65A C66A 1_555 1_555
C66A C67A 1_555 1_555
C67A H41A 1_555 1_555
C68A C67A 1_555 1_555
H42A C68A 1_555 1_555
C69A C68A 1_555 1_555
C70A C69A 1_555 1_555
H43A C70A 1_555 1_555
C71A C66A 1_555 1_555
H44A C71A 1_555 1_555
C72A C73A 1_555 1_555
C73A H45A 1_555 1_555
C74A C73A 1_555 1_555
H46A C74A 1_555 1_555
C75A C74A 1_555 1_555
H47A C75A 1_555 1_555
C76A C75A 1_555 1_555
C77A C72A 1_555 1_555
H48A C77A 1_555 1_555
C78A C79A 1_555 1_555
C79A H49A 1_555 1_555
C80A C79A 1_555 1_555
H50A C80A 1_555 1_555
C81A C80A 1_555 1_555
C82A C81A 1_555 1_555
H51A C82A 1_555 1_555
C83A C78A 1_555 1_555
H52A C83A 1_555 1_555
C84A C81A 1_555 1_555
N1A C1A 1_555 1_555
N2A C10A 1_555 1_555
N3A C22A 1_555 1_555
N4A C13A 1_555 1_555
O1A C25A 1_555 1_555
O2A C25A 1_555 1_555
O3A C29A 1_555 1_555
O4A C36A 1_555 1_555
O5A C44A 1_555 1_555
O6A C44A 1_555 1_555
O7A C57A 1_555 1_555
O8A C57A 1_555 1_555
O9A C48A 1_555 1_555
O10A C53A 1_555 1_555
O11A Mn2 1_555 1_555
O12A Mn1 1_555 1_555
O13A C65A 1_555 1_555
O14A C65A 1_555 1_555
O15A C69A 1_555 1_555
O16A C76A 1_555 1_555
O17A C84A 1_555 1_555
O18A C84A 1_555 1_555
Mn1A O12 1_555 1_555
Mn3A N3A 1_555 1_555
O1A_2 Mn4 1_555 1_555
O5_2 Mn4 1_555 1_555
O5A_2 Mn4 1_555 1_555
O6_2 Mn3A 1_555 1_555
O6A_2 Mn3 1_555 1_555
O7A_2 Mn2 1_555 1_555
O11_2 Mn2 1_555 1_555
O13A_2 Mn2 1_555 1_555
O17A_2 Mn4 1_555 1_555
Mn2_2 O11 1_555 1_555
Mn3_2 O6A 1_555 1_555
Mn3A_2 O6 1_555 1_555
Mn4_2 O1A 1_555 1_555
Mn4_3 O5A 1_555 1_555
Mn4_4 O5 1_555 1_555
C11 C12 1_555 1_555
C11 N2 1_555 1_555
C12 N1 1_555 1_555
C23 C24 1_555 1_555
C23 N3 1_555 1_555
C24 N4 1_555 1_555
C30 C31 1_555 1_555
C32 O3 1_555 1_555
C36 C37 1_555 1_555
C42 C43 1_555 1_555
C43 O4 1_555 1_555
C49 C50 1_555 1_555
C51 O9 1_555 1_555
C55 C56 1_555 1_555
C58 O10 1_555 1_555
C62 C63 1_555 1_555
C70 C71 1_555 1_555
C72 O15 1_555 1_555
C76 C77 1_555 1_555
C78 O16 1_555 1_555
C82 C83 1_555 1_555
N2 Mn1 1_555 1_555
N4 Mn3 1_555 1_555
O1 Mn3 1_555 1_555
O2 Mn3 1_555 1_555
O8 Mn1 1_555 1_555
O13 Mn1 1_555 1_555
O13 Mn2 1_555 1_555
O14 Mn1 1_555 1_555
O17 Mn4 1_555 1_555
O18 Mn3 1_555 1_555
C11A C12A 1_555 1_555
C11A N2A 1_555 1_555
C12A N1A 1_555 1_555
C23A C24A 1_555 1_555
C23A N3A 1_555 1_555
C24A N4A 1_555 1_555
C30A C31A 1_555 1_555
C32A O3A 1_555 1_555
C36A C37A 1_555 1_555
C42A C43A 1_555 1_555
C43A O4A 1_555 1_555
C49A C50A 1_555 1_555
C51A O9A 1_555 1_555
C55A C56A 1_555 1_555
C58A O10A 1_555 1_555
C62A C63A 1_555 1_555
C64A O11A 1_555 1_555
C64A O12A 1_555 1_555
C70A C71A 1_555 1_555
C72A O15A 1_555 1_555
C76A C77A 1_555 1_555
C78A O16A 1_555 1_555
C82A C83A 1_555 1_555
N1A Mn1A 1_555 1_555
N2A Mn1A 1_555 1_555
N4A Mn3A 1_555 1_555
O1A Mn3A 1_555 1_555
O2A Mn3A 1_555 1_555
O7A Mn2_2 1_555 1_555
O8A Mn1A 1_555 1_555
O13A Mn1A 1_555 1_555
O13A Mn2_2 1_555 1_555
O14A Mn1A 1_555 1_555
O17A Mn4_2 1_555 1_555
O18A Mn3A 1_555 1_555

#END
