
#######################################################################
#
#                 Cambridge Crystallographic Data Centre
#                                CCDC 
#
#######################################################################
#
# If this CIF has been generated from an entry in the Cambridge 
# Structural Database, then it will include bibliographic, chemical, 
# crystal, experimental, refinement or atomic coordinate data resulting 
# from the CCDC's data processing and validation procedures.
#
#######################################################################

data_VIRSAS
_symmetry_cell_setting           orthorhombic
_symmetry_space_group_name_H-M   'F d d 2'
_symmetry_Int_Tables_number      43
_space_group_name_Hall           'F 2 -2d'
loop_
_symmetry_equiv_pos_site_id
_symmetry_equiv_pos_as_xyz
1 x,y,z
2 -x,-y,z
3 1/4-x,1/4+y,1/4+z
4 1/4+x,1/4-y,1/4+z
5 x,1/2+y,1/2+z
6 -x,1/2-y,1/2+z
7 1/4-x,3/4+y,3/4+z
8 1/4+x,3/4-y,3/4+z
9 1/2+x,y,1/2+z
10 1/2-x,-y,1/2+z
11 3/4-x,1/4+y,3/4+z
12 3/4+x,1/4-y,3/4+z
13 1/2+x,1/2+y,z
14 1/2-x,1/2-y,z
15 3/4-x,3/4+y,1/4+z
16 3/4+x,3/4-y,1/4+z
_cell_length_a                   18.281(2)
_cell_length_b                   36.104(4)
_cell_length_c                   17.145(2)
_cell_angle_alpha                90
_cell_angle_beta                 90
_cell_angle_gamma                90
_cell_volume                     11316
loop_
_atom_site_label
_atom_site_type_symbol
_atom_site_fract_x
_atom_site_fract_y
_atom_site_fract_z
Ni1 Ni 0.45110(3) 0.216938(14) 0.07788(3)
O1 O 0.50517(15) 0.19433(8) 0.98208(16)
O2 O 0.46723(19) 0.06300(8) 0.73819(18)
O3 O 0.48641(18) 0.17575(8) 0.15571(18)
O4 O 0.39623(16) 0.21338(8) 0.18501(17)
O5 O 0.4611(2) 0.14251(9) 0.51786(18)
O6 O 0.39420(16) 0.17565(8) 1.01151(18)
N1 N 0.39942(19) 0.25732(10) 0.0131(2)
N2 N 0.02964(19) 0.25246(10) -0.3779(2)
C1 C 0.4649(2) 0.10344(12) 0.6251(3)
H1 H 0.4771 0.1241 0.6550
C2 C 0.4543(2) 0.10665(13) 0.5454(3)
C3 C 0.4403(3) 0.18748(13) 0.2039(3)
C4 C 0.4622(3) 0.09258(11) 0.7907(2)
C5 C 0.4548(2) 0.14538(11) 0.9063(2)
C6 C 0.4572(2) 0.06937(12) 0.6591(3)
C7 C 0.3229(3) 0.30335(12) -0.0913(3)
C8 C 0.4542(3) 0.15095(13) 0.4380(3)
C9 C 0.1373(3) 0.29630(12) -0.3050(3)
C10 C 0.4915(3) 0.14574(13) 0.3062(3)
H2 H 0.5201 0.1346 0.2680
C11 C 0.3965(3) 0.12201(12) 0.8918(3)
H3 H 0.3543 0.1241 0.9217
C12 C 0.4390(3) 0.03855(12) 0.6157(3)
H4 H 0.4334 0.0155 0.6393
C13 C 0.4422(2) 0.17340(12) 0.2857(2)
C14 C 0.5172(2) 0.14235(12) 0.8602(2)
H5 H 0.5563 0.1584 0.8679
C15 C 0.4357(3) 0.07667(13) 0.5002(3)
H6 H 0.4276 0.0792 0.4469
C16 C 0.5210(2) 0.11550(12) 0.8033(2)
H7 H 0.5632 0.1129 0.7735
C17 C 0.4294(3) 0.04268(13) 0.5367(3)
H8 H 0.4182 0.0219 0.5069
C18 C 0.3987(3) 0.18898(12) 0.3424(3)
H9 H 0.3651 0.2072 0.3289
C19 C 0.4508(2) 0.17316(12) 0.9701(2)
C20 C 0.0971(2) 0.25474(12) -0.4055(3)
H10 H 0.1084 0.2414 -0.4504
C21 C 0.1936(3) 0.31972(13) -0.2650(3)
H11 H 0.1715 0.3431 -0.2504
H12 H 0.2328 0.3250 -0.3015
C22 C 0.3996(2) 0.09575(12) 0.8341(3)
H13 H 0.3599 0.0803 0.8247
C23 C 0.4045(3) 0.17793(12) 0.4187(3)
H14 H 0.3751 0.1886 0.4569
C24 C 0.1513(3) 0.27545(12) -0.3721(3)
H15 H 0.1977 0.2757 -0.3942
C25 C 0.2972(3) 0.29658(13) -0.0174(3)
H16 H 0.2538 0.3073 -0.0006
C26 C 0.3887(3) 0.28715(14) -0.1113(3)
H17 H 0.4088 0.2913 -0.1603
C27 C 0.2812(3) 0.32594(12) -0.1501(3)
H18 H 0.3150 0.3367 -0.1873
H19 H 0.2559 0.3460 -0.1237
C28 C 0.3365(3) 0.27361(13) 0.0321(3)
H20 H 0.3177 0.2693 0.0816
C29 C 0.4981(3) 0.13470(14) 0.3831(3)
H21 H 0.5318 0.1166 0.3973
C30 C 0.0672(3) 0.29436(16) -0.2780(3)
H22 H 0.0540 0.3078 -0.2339
C31 C 0.4246(3) 0.26463(13) -0.0580(3)
H23 H 0.4688 0.2540 -0.0728
C32 C 0.0158(3) 0.27292(15) -0.3148(3)
H24 H -0.0315 0.2726 -0.2946
C33 C 0.2257(3) 0.30187(13) -0.1931(3)
H25 H 0.2493 0.2789 -0.2081
H26 H 0.1862 0.2957 -0.1576
Ni1_2 Ni 0.45110(3) 0.216938(14) 1.07788(3)
Ni1H Ni -0.04890(3) 0.216938(14) -0.42212(3)
O1_2 O 0.50517(15) 0.19433(8) -0.01792(16)
O6_2 O 0.39420(16) 0.17565(8) 0.01151(18)
N2H N 0.52964(19) 0.25246(10) 0.1221(2)
loop_
_geom_bond_atom_site_label_1
_geom_bond_atom_site_label_2
_geom_bond_site_symmetry_1
_geom_bond_site_symmetry_2
Ni1 O3 1_555 1_555
O1 C19 1_555 1_555
O2 C4 1_555 1_555
O3 C3 1_555 1_555
O4 Ni1 1_555 1_555
O5 C2 1_555 1_555
O6 C19 1_555 1_555
N1 Ni1 1_555 1_555
N2 C20 1_555 1_555
C1 H1 1_555 1_555
C2 C1 1_555 1_555
C3 O4 1_555 1_555
C4 C16 1_555 1_555
C5 C11 1_555 1_555
C6 O2 1_555 1_555
C7 C25 1_555 1_555
C8 O5 1_555 1_555
C9 C21 1_555 1_555
C10 H2 1_555 1_555
C11 H3 1_555 1_555
C12 C6 1_555 1_555
H4 C12 1_555 1_555
C13 C3 1_555 1_555
C14 C5 1_555 1_555
H5 C14 1_555 1_555
C15 C2 1_555 1_555
H6 C15 1_555 1_555
C16 C14 1_555 1_555
H7 C16 1_555 1_555
C17 C12 1_555 1_555
H8 C17 1_555 1_555
C18 C13 1_555 1_555
H9 C18 1_555 1_555
C19 C5 1_555 1_555
C20 H10 1_555 1_555
C21 H11 1_555 1_555
H12 C21 1_555 1_555
C22 C4 1_555 1_555
H13 C22 1_555 1_555
C23 C8 1_555 1_555
H14 C23 1_555 1_555
C24 C9 1_555 1_555
H15 C24 1_555 1_555
C25 H16 1_555 1_555
C26 C7 1_555 1_555
H17 C26 1_555 1_555
C27 C7 1_555 1_555
H18 C27 1_555 1_555
H19 C27 1_555 1_555
C28 N1 1_555 1_555
H20 C28 1_555 1_555
C29 C8 1_555 1_555
H21 C29 1_555 1_555
C30 C9 1_555 1_555
H22 C30 1_555 1_555
C31 N1 1_555 1_555
H23 C31 1_555 1_555
C32 N2 1_555 1_555
H24 C32 1_555 1_555
C33 C21 1_555 1_555
H25 C33 1_555 1_555
H26 C33 1_555 1_555
Ni1_2 O1 1_555 1_555
Ni1H N2 1_555 1_555
O1_2 Ni1 1_555 1_555
O6_2 Ni1 1_555 1_555
N2H Ni1 1_555 1_555
O6 Ni1_2 1_555 1_555
C1 C6 1_555 1_555
C10 C13 1_555 1_555
C10 C29 1_555 1_555
C11 C22 1_555 1_555
C15 C17 1_555 1_555
C18 C23 1_555 1_555
C20 C24 1_555 1_555
C25 C28 1_555 1_555
C26 C31 1_555 1_555
C27 C33 1_555 1_555
C30 C32 1_555 1_555

#END
