
#######################################################################
#
#                 Cambridge Crystallographic Data Centre
#                                CCDC 
#
#######################################################################
#
# If this CIF has been generated from an entry in the Cambridge 
# Structural Database, then it will include bibliographic, chemical, 
# crystal, experimental, refinement or atomic coordinate data resulting 
# from the CCDC's data processing and validation procedures.
#
#######################################################################

data_VIRSEW
_symmetry_cell_setting           monoclinic
_symmetry_space_group_name_H-M   'C c'
_symmetry_Int_Tables_number      9
_space_group_name_Hall           'C -2yc'
loop_
_symmetry_equiv_pos_site_id
_symmetry_equiv_pos_as_xyz
1 x,y,z
2 x,-y,1/2+z
3 1/2+x,1/2+y,z
4 1/2+x,1/2-y,1/2+z
_cell_length_a                   8.7642(6)
_cell_length_b                   31.696(2)
_cell_length_c                   10.7597(7)
_cell_angle_alpha                90
_cell_angle_beta                 110.8820(10)
_cell_angle_gamma                90
_cell_volume                     2792.61
loop_
_atom_site_label
_atom_site_type_symbol
_atom_site_fract_x
_atom_site_fract_y
_atom_site_fract_z
Ni1 Ni 0.33293(7) 0.419229(17) 0.50212(6)
O1 O -0.2945(4) -0.03150(11) 0.3683(3)
O2 O -0.1909(4) -0.02257(11) 0.5833(3)
O3 O 0.2604(5) 0.36577(13) 0.3754(4)
O4 O 0.1049(5) 0.39014(12) 0.4792(4)
N1 N 0.7013(5) 0.46375(15) 0.3717(5)
N2 N 0.5410(5) 0.43618(16) 0.4673(4)
O5 O -0.3797(8) 0.16643(13) 0.4265(5)
C1 C -0.3043(6) 0.06149(16) 0.5608(5)
H1 H -0.2814 0.0485 0.6430
N3 N 0.5976(6) 0.38480(15) -0.1131(4)
C2 C -0.2645(5) -0.00780(15) 0.4681(5)
C3 C -0.3335(8) 0.10415(17) 0.5486(6)
H2 H -0.3317 0.1200 0.6219
N4 N 0.4459(6) 0.38949(14) -0.3241(4)
C4 C 0.1260(8) 0.36492(16) 0.3954(5)
C5 C -0.0086(9) 0.33615(18) 0.3187(6)
C6 C 0.5470(6) 0.45985(17) 0.3686(5)
H3 H 0.4565 0.4723 0.3051
C7 C -0.3651(8) 0.12317(16) 0.4285(6)
C8 C -0.3088(5) 0.03767(15) 0.4519(5)
C9 C -0.3746(7) 0.10013(17) 0.3152(5)
H4 H -0.4007 0.1133 0.2330
C10 C 0.8047(7) 0.4534(2) 0.1878(6)
H5 H 0.8645 0.4682 0.1407
H6 H 0.8776 0.4328 0.2455
C11 C -0.3873(8) 0.21341(19) 0.2572(6)
H7 H -0.2745 0.2161 0.2959
C12 C 0.4388(8) 0.34897(19) -0.2826(6)
H8 H 0.3800 0.3270 -0.3353
C13 C 0.7537(8) 0.4847(2) 0.2721(7)
H9 H 0.8447 0.5032 0.3169
H10 H 0.6648 0.5018 0.2149
C14 C -0.3444(6) 0.05737(16) 0.3284(5)
H11 H -0.3477 0.0415 0.2547
O6 O -0.3989(10) 0.2629(2) 0.0849(5)
C15 C 0.6610(8) 0.4308(2) 0.0880(6)
H12 H 0.5927 0.4510 0.0248
H13 H 0.5958 0.4177 0.1337
C16 C -0.4692(9) 0.18614(17) 0.3089(6)
C17 C 0.6995(8) 0.4250(2) 0.5350(6)
H14 H 0.7335 0.4079 0.6103
C18 C -0.1521(10) 0.3367(2) 0.3406(7)
H15 H -0.1629 0.3543 0.4063
C19 C 0.0080(11) 0.3099(2) 0.2196(7)
H16 H 0.1057 0.3089 0.2040
C20 C 0.7205(8) 0.3971(2) 0.0138(6)
H17 H 0.8159 0.4076 -0.0019
H18 H 0.7535 0.3723 0.0699
C21 C -0.4748(11) 0.23730(19) 0.1456(7)
C22 C -0.2656(13) 0.2858(3) 0.1689(7)
C23 C 0.7988(6) 0.4416(2) 0.4795(7)
H19 H 0.9117 0.4388 0.5082
C24 C -0.6297(11) 0.1815(3) 0.2537(9)
H20 H -0.6826 0.1624 0.2903
C25 C -0.7171(10) 0.2038(3) 0.1457(10)
H21 H -0.8294 0.1998 0.1078
C26 C -0.1239(14) 0.2851(2) 0.1451(8)
H22 H -0.1147 0.2679 0.0781
C27 C -0.6423(11) 0.2328(2) 0.0905(8)
H23 H -0.7034 0.2489 0.0176
C28 C 0.5312(9) 0.3463(2) -0.1526(7)
H24 H 0.5467 0.3224 -0.0995
C29 C -0.2841(12) 0.3115(3) 0.2661(8)
H25 H -0.3818 0.3120 0.2818
C30 C 0.5392(9) 0.40936(19) -0.2196(6)
H26 H 0.5629 0.4380 -0.2192
Ni1_2 Ni 0.33293(7) 0.419229(17) -0.49788(6)
Ni1B Ni -0.16707(7) -0.080771(17) 0.50212(6)
O1B O 0.2055(4) 0.46850(11) 0.3683(3)
O2B O 0.3091(4) 0.47743(11) 0.5833(3)
N4_2 N 0.4459(6) 0.38949(14) 0.6759(4)
O7 O 0.4194(13) 0.2869(3) 0.4039(11)
loop_
_geom_bond_atom_site_label_1
_geom_bond_atom_site_label_2
_geom_bond_site_symmetry_1
_geom_bond_site_symmetry_2
Ni1 O3 1_555 1_555
O1 C2 1_555 1_555
O2 C2 1_555 1_555
O3 C4 1_555 1_555
O4 Ni1 1_555 1_555
N1 C6 1_555 1_555
N2 Ni1 1_555 1_555
O5 C7 1_555 1_555
C1 H1 1_555 1_555
N3 C20 1_555 1_555
C2 C8 1_555 1_555
C3 C1 1_555 1_555
H2 C3 1_555 1_555
N4 C12 1_555 1_555
C4 O4 1_555 1_555
C5 C4 1_555 1_555
C6 N2 1_555 1_555
H3 C6 1_555 1_555
C7 C3 1_555 1_555
C8 C1 1_555 1_555
C9 C7 1_555 1_555
H4 C9 1_555 1_555
C10 H5 1_555 1_555
H6 C10 1_555 1_555
C11 H7 1_555 1_555
C12 H8 1_555 1_555
C13 N1 1_555 1_555
H9 C13 1_555 1_555
H10 C13 1_555 1_555
C14 C8 1_555 1_555
H11 C14 1_555 1_555
O6 C21 1_555 1_555
C15 C10 1_555 1_555
H12 C15 1_555 1_555
H13 C15 1_555 1_555
C16 O5 1_555 1_555
C17 N2 1_555 1_555
H14 C17 1_555 1_555
C18 C5 1_555 1_555
H15 C18 1_555 1_555
C19 C5 1_555 1_555
H16 C19 1_555 1_555
C20 C15 1_555 1_555
H17 C20 1_555 1_555
H18 C20 1_555 1_555
C21 C11 1_555 1_555
C22 O6 1_555 1_555
C23 N1 1_555 1_555
H19 C23 1_555 1_555
C24 C16 1_555 1_555
H20 C24 1_555 1_555
C25 C24 1_555 1_555
H21 C25 1_555 1_555
C26 C19 1_555 1_555
H22 C26 1_555 1_555
C27 C21 1_555 1_555
H23 C27 1_555 1_555
C28 N3 1_555 1_555
H24 C28 1_555 1_555
C29 C18 1_555 1_555
H25 C29 1_555 1_555
C30 N3 1_555 1_555
H26 C30 1_555 1_555
Ni1_2 N4 1_555 1_555
Ni1B O1 1_555 1_555
O1B Ni1 1_555 1_555
O2B Ni1 1_555 1_555
N4_2 Ni1 1_555 1_555
O2 Ni1B 1_555 1_555
N4 C30 1_555 1_555
C9 C14 1_555 1_555
C10 C13 1_555 1_555
C11 C16 1_555 1_555
C12 C28 1_555 1_555
C17 C23 1_555 1_555
C22 C26 1_555 1_555
C22 C29 1_555 1_555
C25 C27 1_555 1_555

#END
