
#######################################################################
#
#                 Cambridge Crystallographic Data Centre
#                                CCDC 
#
#######################################################################
#
# If this CIF has been generated from an entry in the Cambridge 
# Structural Database, then it will include bibliographic, chemical, 
# crystal, experimental, refinement or atomic coordinate data resulting 
# from the CCDC's data processing and validation procedures.
#
#######################################################################

data_VIRTUL
_symmetry_cell_setting           monoclinic
_symmetry_space_group_name_H-M   'P 21/c'
_symmetry_Int_Tables_number      14
_space_group_name_Hall           '-P 2ybc'
loop_
_symmetry_equiv_pos_site_id
_symmetry_equiv_pos_as_xyz
1 x,y,z
2 -x,1/2+y,1/2-z
3 -x,-y,-z
4 x,1/2-y,1/2+z
_cell_length_a                   5.3657(7)
_cell_length_b                   15.133(3)
_cell_length_c                   13.041(4)
_cell_angle_alpha                90
_cell_angle_beta                 99.54(2)
_cell_angle_gamma                90
_cell_volume                     1044.27
loop_
_atom_site_label
_atom_site_type_symbol
_atom_site_fract_x
_atom_site_fract_y
_atom_site_fract_z
Ag1 Ag 0.2306(1) 0.0377(1) 0.0469(1)
Cl1 Cl 0.3124(5) 0.1082(2) 0.3112(2)
O1 O 0.3807(22) 0.0573(8) 0.2305(7)
O2 O 0.4160(19) 0.1929(6) 0.3029(10)
O3 O 0.4204(19) 0.0678(6) 0.4070(6)
O4 O 0.0500(15) 0.1169(6) 0.3023(8)
O5 O -0.0019(11) 0.1589(4) 0.0367(5)
O6 O -0.3740(12) 0.0924(4) -0.0036(6)
C1 C -0.2318(16) 0.1561(5) 0.0304(6)
C2 C -0.3722(18) 0.2381(6) 0.0571(8)
N1 N -0.1934(13) 0.3030(4) 0.1120(5)
C3 C -0.0609(20) 0.3558(6) 0.0584(8)
C4 C 0.1186(20) 0.4113(6) 0.1087(9)
C5 C 0.1608(22) 0.4136(7) 0.2152(10)
C6 C 0.0281(24) 0.3597(7) 0.2683(8)
C7 C -0.1535(20) 0.3048(7) 0.2164(7)
H1 H -0.4922 0.2218 0.1007
H2 H -0.4594 0.2641 -0.0059
H3 H -0.0934 0.3546 -0.0162
H4 H 0.2148 0.4483 0.0700
H5 H 0.2833 0.4535 0.2517
H6 H 0.0616 0.3594 0.3429
H7 H -0.2518 0.2680 0.2545
Ag1B Ag -0.2306(1) -0.0377(1) -0.0469(1)
Ag1B_2 Ag 0.7694(1) -0.0377(1) -0.0469(1)
O6_2 O 0.6260(12) 0.0924(4) -0.0036(6)
O6B O 0.3740(12) -0.0924(4) 0.0036(6)
Ag1_2 Ag -0.7694(1) 0.0377(1) 0.0469(1)
loop_
_geom_bond_atom_site_label_1
_geom_bond_atom_site_label_2
_geom_bond_site_symmetry_1
_geom_bond_site_symmetry_2
Ag1 O1 1_555 1_555
Cl1 O1 1_555 1_555
O2 Cl1 1_555 1_555
O3 Cl1 1_555 1_555
O4 Cl1 1_555 1_555
O5 Ag1 1_555 1_555
O6 C1 1_555 1_555
C1 O5 1_555 1_555
C2 C1 1_555 1_555
N1 C2 1_555 1_555
C3 N1 1_555 1_555
C4 C3 1_555 1_555
C5 C4 1_555 1_555
C6 C5 1_555 1_555
C7 N1 1_555 1_555
H1 C2 1_555 1_555
H2 C2 1_555 1_555
H3 C3 1_555 1_555
H4 C4 1_555 1_555
H5 C5 1_555 1_555
H6 C6 1_555 1_555
H7 C7 1_555 1_555
Ag1B Ag1 1_555 1_555
Ag1B_2 O6_2 1_555 1_555
O6_2 Ag1 1_555 1_555
O6B Ag1 1_555 1_555
Ag1_2 O6 1_555 1_555
O6 Ag1B 1_555 1_555
C6 C7 1_555 1_555
Ag1B_2 O6B 1_555 1_555

#END
