
#######################################################################
#
#                 Cambridge Crystallographic Data Centre
#                                CCDC 
#
#######################################################################
#
# If this CIF has been generated from an entry in the Cambridge 
# Structural Database, then it will include bibliographic, chemical, 
# crystal, experimental, refinement or atomic coordinate data resulting 
# from the CCDC's data processing and validation procedures.
#
#######################################################################

data_VIRVOI
_symmetry_cell_setting           triclinic
_symmetry_space_group_name_H-M   'P -1'
_symmetry_Int_Tables_number      2
_space_group_name_Hall           '-P 1'
loop_
_symmetry_equiv_pos_site_id
_symmetry_equiv_pos_as_xyz
1 x,y,z
2 -x,-y,-z
_cell_length_a                   7.3992(5)
_cell_length_b                   12.6509(8)
_cell_length_c                   13.2265(9)
_cell_angle_alpha                103.3250(10)
_cell_angle_beta                 91.7670(10)
_cell_angle_gamma                94.634(2)
_cell_volume                     1199.26
loop_
_atom_site_label
_atom_site_type_symbol
_atom_site_fract_x
_atom_site_fract_y
_atom_site_fract_z
Co1 Co 0.47830(6) 0.43971(3) 0.38743(3)
Co2 Co 0.5000 0.5000 0.0000
O1 O 0.5189(3) 0.39776(19) 0.52834(18)
C1 C 0.4349(5) 0.3061(3) 0.5453(3)
C2 C 0.3642(5) 0.3046(3) 0.6429(3)
H1 H 0.3699 0.3697 0.6948
C3 C 0.2878(5) 0.2106(3) 0.6632(3)
H2 H 0.2460 0.2115 0.7297
C4 C 0.2702(5) 0.1122(3) 0.5868(3)
C5 C 0.3349(5) 0.1158(3) 0.4901(3)
C6 C 0.4214(5) 0.2088(3) 0.4669(3)
C7 C 0.5114(5) 0.2034(3) 0.3654(3)
H3 H 0.6415 0.2253 0.3799
H4 H 0.4981 0.1278 0.3244
N1 N 0.4344(4) 0.2744(2) 0.3029(2)
C8 C 0.2379(5) 0.2487(3) 0.2806(3)
H5 H 0.2055 0.1731 0.2845
H6 H 0.2085 0.2540 0.2093
C9 C 0.1234(5) 0.3230(3) 0.3543(3)
O2 O 0.2012(3) 0.4145(2) 0.40404(19)
O3 O -0.0375(4) 0.2923(2) 0.3582(2)
C10 C 0.5317(5) 0.2705(3) 0.2062(3)
H7 H 0.4848 0.2059 0.1528
H8 H 0.6614 0.2656 0.2196
C11 C 0.5050(5) 0.3731(3) 0.1678(3)
O4 O 0.4711(4) 0.45613(19) 0.23532(19)
O5 O 0.5227(4) 0.3694(2) 0.0742(2)
C12 C 0.2382(5) -0.0744(3) 0.4232(3)
C13 C 0.1802(5) -0.0797(3) 0.5233(3)
H9 H 0.1301 -0.1467 0.5340
C14 C 0.1951(5) 0.0092(3) 0.6038(3)
C15 C 0.1364(6) 0.0003(3) 0.7095(3)
H10 H 0.0946 -0.0749 0.7074
H11 H 0.0385 0.0463 0.7295
H12 H 0.2382 0.0238 0.7599
O6 O 0.3183(4) 0.0231(2) 0.4107(2)
O7 O 0.2267(5) -0.1489(2) 0.3454(2)
O8 O 0.7684(3) 0.4625(2) 0.3905(2)
H13 H 0.795(7) 0.516(4) 0.452(4)
H14 H 0.841(7) 0.417(4) 0.396(4)
O9 O 0.6722(5) 0.4191(4) -0.1065(3)
H15 H 0.655(8) 0.431(5) -0.163(5)
H16 H 0.638(9) 0.361(6) -0.121(5)
O10 O 0.7246(5) 0.5929(3) 0.0827(3)
H17 H 0.792(8) 0.603(5) 0.051(5)
H18 H 0.774(8) 0.572(5) 0.115(5)
Co1A Co 0.52170(6) 0.56029(3) -0.38743(3)
Co1A_2 Co 0.52170(6) 0.56029(3) 0.61257(3)
Co1_2 Co 0.47830(6) 0.43971(3) -0.61257(3)
O1A O 0.4811(3) 0.60224(19) -0.52834(18)
O1A_2 O 0.4811(3) 0.60224(19) 0.47166(18)
O1_2 O 0.5189(3) 0.39776(19) -0.47166(18)
C1A C 0.5651(5) 0.6939(3) -0.5453(3)
C2A C 0.6358(5) 0.6954(3) -0.6429(3)
H1A H 0.6301 0.6303 -0.6948
C3A C 0.7122(5) 0.7894(3) -0.6632(3)
H2A H 0.7540 0.7885 -0.7297
C4A C 0.7298(5) 0.8878(3) -0.5868(3)
C5A C 0.6651(5) 0.8842(3) -0.4901(3)
C6A C 0.5786(5) 0.7912(3) -0.4669(3)
C7A C 0.4886(5) 0.7966(3) -0.3654(3)
H3A H 0.3585 0.7747 -0.3799
H4A H 0.5019 0.8722 -0.3244
N1A N 0.5656(4) 0.7256(2) -0.3029(2)
C8A C 0.7621(5) 0.7513(3) -0.2806(3)
H5A H 0.7945 0.8269 -0.2845
H6A H 0.7915 0.7460 -0.2093
C9A C 0.8766(5) 0.6770(3) -0.3543(3)
O2A O 0.7988(3) 0.5855(2) -0.40404(19)
O3A O 1.0375(4) 0.7077(2) -0.3582(2)
C10A C 0.4683(5) 0.7295(3) -0.2062(3)
H7A H 0.5152 0.7941 -0.1528
H8A H 0.3386 0.7344 -0.2196
C11A C 0.4950(5) 0.6269(3) -0.1678(3)
O4A O 0.5289(4) 0.54387(19) -0.23532(19)
O5A O 0.4773(4) 0.6306(2) -0.0742(2)
C12A C 0.7618(5) 1.0744(3) -0.4232(3)
C13A C 0.8198(5) 1.0797(3) -0.5233(3)
H9A H 0.8699 1.1467 -0.5340
C14A C 0.8049(5) 0.9908(3) -0.6038(3)
C15A C 0.8636(6) 0.9997(3) -0.7095(3)
H10A H 0.9054 1.0749 -0.7074
H11A H 0.9615 0.9537 -0.7295
H12A H 0.7618 0.9762 -0.7599
O6A O 0.6817(4) 0.9769(2) -0.4107(2)
O7A O 0.7733(5) 1.1489(2) -0.3454(2)
O8A O 0.2316(3) 0.5375(2) -0.3905(2)
H13A H 0.205(7) 0.484(4) -0.452(4)
H14A H 0.159(7) 0.583(4) -0.396(4)
O9A O 0.3278(5) 0.5809(4) 0.1065(3)
H15A H 0.345(8) 0.569(5) 0.163(5)
H16A H 0.362(9) 0.639(6) 0.121(5)
O10A O 0.2754(5) 0.4071(3) -0.0827(3)
H17A H 0.208(8) 0.397(5) -0.051(5)
H18A H 0.226(8) 0.428(5) -0.115(5)
O11 O 1.1808(6) 0.6276(3) 0.3221(3)
H19 H 1.113(8) 0.626(5) 0.377(5)
H20 H 1.208(8) 0.694(5) 0.331(4)
O12 O 0.9215(5) 0.4918(3) 0.2049(3)
H21 H 1.002(8) 0.545(5) 0.240(4)
H22 H 0.868(8) 0.472(5) 0.254(5)
O13 O 0.9618(17) 0.6831(10) -0.0443(10)
O15 O 0.7261(13) 0.2027(6) -0.1344(5)
O16 O 0.3580(19) 0.1628(8) -0.0536(8)
O17 O 1.048(3) 0.8689(16) 0.0302(15)
O14? O 1.0223(15) 0.6494(10) -0.0214(9)
O18? O 0.600(3) 0.1563(16) -0.1271(15)
loop_
_geom_bond_atom_site_label_1
_geom_bond_atom_site_label_2
_geom_bond_site_symmetry_1
_geom_bond_site_symmetry_2
Co1 O1 1_555 1_555
Co2 O5 1_555 1_555
O1 C1 1_555 1_555
C1 C2 1_555 1_555
C2 H1 1_555 1_555
C3 C2 1_555 1_555
H2 C3 1_555 1_555
C4 C3 1_555 1_555
C5 C4 1_555 1_555
C6 C1 1_555 1_555
C7 C6 1_555 1_555
H3 C7 1_555 1_555
H4 C7 1_555 1_555
N1 Co1 1_555 1_555
C8 N1 1_555 1_555
H5 C8 1_555 1_555
H6 C8 1_555 1_555
C9 C8 1_555 1_555
O2 Co1 1_555 1_555
O3 C9 1_555 1_555
C10 N1 1_555 1_555
H7 C10 1_555 1_555
H8 C10 1_555 1_555
C11 C10 1_555 1_555
O4 Co1 1_555 1_555
O5 C11 1_555 1_555
C12 C13 1_555 1_555
C13 H9 1_555 1_555
C14 C4 1_555 1_555
C15 C14 1_555 1_555
H10 C15 1_555 1_555
H11 C15 1_555 1_555
H12 C15 1_555 1_555
O6 C5 1_555 1_555
O7 C12 1_555 1_555
O8 Co1 1_555 1_555
H13 O8 1_555 1_555
H14 O8 1_555 1_555
O9 Co2 1_555 1_555
H15 O9 1_555 1_555
H16 O9 1_555 1_555
O10 Co2 1_555 1_555
H17 O10 1_555 1_555
H18 O10 1_555 1_555
O11 H19 1_555 1_555
H20 O11 1_555 1_555
O12 H21 1_555 1_555
H22 O12 1_555 1_555
Co1A O1A 1_555 1_555
Co1A_2 O1 1_555 1_555
Co1_2 O1A 1_555 1_555
O1A C1A 1_555 1_555
O1A_2 Co1 1_555 1_555
O1_2 Co1A 1_555 1_555
C1A C2A 1_555 1_555
C2A H1A 1_555 1_555
C3A C2A 1_555 1_555
H2A C3A 1_555 1_555
C4A C3A 1_555 1_555
C5A C4A 1_555 1_555
C6A C1A 1_555 1_555
C7A C6A 1_555 1_555
H3A C7A 1_555 1_555
H4A C7A 1_555 1_555
N1A Co1A 1_555 1_555
C8A N1A 1_555 1_555
H5A C8A 1_555 1_555
H6A C8A 1_555 1_555
C9A C8A 1_555 1_555
O2A Co1A 1_555 1_555
O3A C9A 1_555 1_555
C10A N1A 1_555 1_555
H7A C10A 1_555 1_555
H8A C10A 1_555 1_555
C11A C10A 1_555 1_555
O4A Co1A 1_555 1_555
O5A Co2 1_555 1_555
C12A C13A 1_555 1_555
C13A H9A 1_555 1_555
C14A C4A 1_555 1_555
C15A C14A 1_555 1_555
H10A C15A 1_555 1_555
H11A C15A 1_555 1_555
H12A C15A 1_555 1_555
O6A C5A 1_555 1_555
O7A C12A 1_555 1_555
O8A Co1A 1_555 1_555
H13A O8A 1_555 1_555
H14A O8A 1_555 1_555
O9A Co2 1_555 1_555
H15A O9A 1_555 1_555
H16A O9A 1_555 1_555
O10A Co2 1_555 1_555
H17A O10A 1_555 1_555
H18A O10A 1_555 1_555
C5 C6 1_555 1_555
C7 N1 1_555 1_555
C9 O2 1_555 1_555
C11 O4 1_555 1_555
C12 O6 1_555 1_555
C13 C14 1_555 1_555
Co1A_2 O1A_2 1_555 1_555
Co1_2 O1_2 1_555 1_555
C5A C6A 1_555 1_555
C7A N1A 1_555 1_555
C9A O2A 1_555 1_555
C11A O4A 1_555 1_555
C11A O5A 1_555 1_555
C12A O6A 1_555 1_555
C13A C14A 1_555 1_555

#END
