
#######################################################################
#
#                 Cambridge Crystallographic Data Centre
#                                CCDC 
#
#######################################################################
#
# If this CIF has been generated from an entry in the Cambridge 
# Structural Database, then it will include bibliographic, chemical, 
# crystal, experimental, refinement or atomic coordinate data resulting 
# from the CCDC's data processing and validation procedures.
#
#######################################################################

data_VIRVEY
_symmetry_cell_setting           orthorhombic
_symmetry_space_group_name_H-M   'P n a 21'
_symmetry_Int_Tables_number      33
_space_group_name_Hall           'P 2c -2n'
loop_
_symmetry_equiv_pos_site_id
_symmetry_equiv_pos_as_xyz
1 x,y,z
2 1/2-x,1/2+y,1/2+z
3 1/2+x,1/2-y,z
4 -x,-y,1/2+z
_cell_length_a                   23.340(4)
_cell_length_b                   12.766(2)
_cell_length_c                   14.903(3)
_cell_angle_alpha                90
_cell_angle_beta                 90
_cell_angle_gamma                90
_cell_volume                     4440.47
loop_
_atom_site_label
_atom_site_type_symbol
_atom_site_fract_x
_atom_site_fract_y
_atom_site_fract_z
Pt1 Pt 0.744111(7) -0.026660(17) 0.14927(10)
Zn1 Zn 0.90137(3) 0.15056(6) 0.51172(11)
Zn2 Zn 1.01532(2) 0.25254(6) 0.39420(11)
Cl1 Cl 0.73887(7) -0.0578(2) 0.30162(16)
Cl2 Cl 0.74880(7) 0.00597(19) -0.00227(15)
O1 O 0.90207(18) 0.1063(4) 0.3815(3)
O2 O 0.98378(18) 0.1491(4) 0.3081(3)
O3 O 1.01610(18) -0.0928(4) 0.0422(4)
O4 O 0.93819(19) -0.1609(4) -0.0254(3)
O5 O 0.55770(18) -0.2077(4) -0.0299(3)
O6 O 0.4821(2) -0.1122(4) 0.0024(4)
O7 O 0.4896(2) 0.1087(5) 0.2848(4)
O8 O 0.5747(2) 0.1771(4) 0.3171(3)
O9 O 0.8179(2) 0.2073(5) 0.4836(4)
O10 O 0.8729(2) 0.0026(5) 0.5515(4)
O11 O 0.8907(2) 0.1945(4) 0.6457(4)
N1 N 0.83128(17) -0.0193(4) 0.1571(5)
N2 N 0.65775(16) -0.0243(4) 0.1463(6)
N3 N 0.7227(3) 0.1840(6) 0.4714(5)
N4 N 0.8252(6) -0.1483(9) 0.5572(8)
N5 N 0.8738(4) 0.1220(7) 0.7815(5)
C1 C 0.8546(2) 0.0369(6) 0.2240(5)
C2 C 0.9130(2) 0.0511(5) 0.2322(4)
C3 C 0.9490(2) 0.0096(5) 0.1669(4)
C4 C 0.9248(2) -0.0501(5) 0.0987(4)
C5 C 0.8656(2) -0.0626(6) 0.0943(4)
C6 C 0.9350(3) 0.1060(6) 0.3148(4)
C7 C 0.9632(2) -0.1054(5) 0.0320(4)
C8 C 0.6260(2) -0.0805(6) 0.0849(4)
C9 C 0.5669(3) -0.0743(6) 0.0823(4)
C10 C 0.5389(2) -0.0093(5) 0.1414(6)
C11 C 0.5711(3) 0.0458(5) 0.2038(4)
C12 C 0.6294(3) 0.0387(6) 0.2036(4)
C13 C 0.5328(3) -0.1339(5) 0.0152(4)
C14 C 0.5420(3) 0.1161(6) 0.2727(5)
C15 C 0.7733(3) 0.1717(6) 0.5110(6)
C16 C 0.7184(4) 0.2418(8) 0.3880(7)
C17 C 0.6702(4) 0.1316(10) 0.5042(10)
C18 C 0.8395(4) -0.0599(7) 0.5216(6)
C19 C 0.7816(9) -0.2196(14) 0.5158(14)
C20 C 0.8473(7) -0.1834(13) 0.6382(11)
C21 C 0.8980(4) 0.1296(7) 0.7048(5)
C22 C 0.8880(5) 0.0446(9) 0.8493(7)
C23 C 0.8255(6) 0.1893(14) 0.8031(10)
H1 H 0.8306 0.0679 0.2664
H2 H 0.9882 0.0216 0.1688
H3 H 0.8491 -0.1014 0.0484
H4 H 0.6451 -0.1230 0.0440
H5 H 0.4994 -0.0028 0.1396
H6 H 0.6503 0.0783 0.2439
H7 H 0.7743 0.1324 0.5639
H8 H 0.7504 0.2883 0.3825
H9 H 0.6839 0.2822 0.3878
H10 H 0.7183 0.1941 0.3383
H11 H 0.6781 0.0977 0.5607
H12 H 0.6401 0.1815 0.5124
H13 H 0.6579 0.0802 0.4613
H14 H 0.8219 -0.0427 0.4671
H15 H 0.7811 -0.2852 0.5478
H16 H 0.7912 -0.2324 0.4538
H17 H 0.7442 -0.1879 0.5194
H18 H 0.8594 -0.1247 0.6746
H19 H 0.8795 -0.2284 0.6258
H20 H 0.8183 -0.2224 0.6702
H21 H 0.9252 0.0776 0.6931
H22 H 0.8672 0.0609 0.9033
H23 H 0.9284 0.0481 0.8605
H24 H 0.8779 -0.0245 0.8279
H25 H 0.8077 0.1643 0.8574
H26 H 0.8392 0.2596 0.8126
H27 H 0.7985 0.1885 0.7542
Zn1C Zn 1.09863(3) -0.15056(6) 0.01172(11)
Zn1A Zn 0.59863(3) -0.34944(6) 0.01172(11)
Zn2C Zn 0.98468(2) -0.25254(6) -0.10580(11)
Zn2A Zn 0.48468(2) -0.24746(6) -0.10580(11)
Zn2B Zn 0.51532(2) 0.24746(6) 0.39420(11)
O3C O 0.98390(18) 0.0928(4) 0.5422(4)
O4C O 1.06181(19) 0.1609(4) 0.4746(3)
O5A O 0.94230(18) 0.2923(4) 0.4701(3)
O6A O 1.0179(2) 0.3878(4) 0.5024(4)
O7B O 0.9896(2) 0.3913(5) 0.2848(4)
O8B O 1.0747(2) 0.3229(4) 0.3171(3)
O12 O 0.4890(5) -0.3541(9) 0.3274(7)
N6 N 0.4119(6) -0.2557(11) 0.2785(8)
C24 C 0.4372(8) -0.3309(12) 0.3268(8)
C25 C 0.4466(9) -0.1951(13) 0.2148(10)
C26 C 0.3533(9) -0.2341(14) 0.2964(11)
H28 H 0.4134 -0.3702 0.3643
H29 H 0.4852 -0.2220 0.2145
H30 H 0.4465 -0.1227 0.2333
H31 H 0.4302 -0.2011 0.1555
H32 H 0.3362 -0.2031 0.2439
H33 H 0.3509 -0.1862 0.3464
H34 H 0.3341 -0.2986 0.3119
O13 O 0.4022(10) -0.1570(16) 0.4852(13)
N7 N 0.5059(16) -0.187(2) 0.4760(17)
C27 C 0.4549(15) -0.1334(13) 0.4571(11)
C28 C 0.5513(11) -0.1458(16) 0.4207(13)
C29 C 0.5103(9) -0.2697(14) 0.5416(12)
H35 H 0.4582 -0.0746 0.4205
H36 H 0.5409 -0.0774 0.3995
H37 H 0.5858 -0.1405 0.4559
H38 H 0.5573 -0.1918 0.3703
H39 H 0.4699 -0.2819 0.5681
H40 H 0.5390 -0.2442 0.5898
H41 H 0.5256 -0.3353 0.5084
O14 O 0.7580(5) -0.4936(10) 0.1760(8)
N8 N 0.8274(5) -0.5895(9) 0.2407(7)
C30 C 0.7830(4) -0.5266(7) 0.2399(6)
C31 C 0.8520(12) -0.6433(19) 0.164(2)
C32 C 0.8545(6) -0.6262(11) 0.3224(11)
H42 H 0.7690 -0.5044 0.2953
H43 H 0.8864 -0.6943 0.1936
H44 H 0.8687 -0.5810 0.1193
H45 H 0.8155 -0.6895 0.1345
H46 H 0.8307 -0.6083 0.3731
H47 H 0.8912 -0.5923 0.3285
H48 H 0.8595 -0.7010 0.3192
loop_
_geom_bond_atom_site_label_1
_geom_bond_atom_site_label_2
_geom_bond_site_symmetry_1
_geom_bond_site_symmetry_2
Pt1 Cl1 1_555 1_555
Zn1 O1 1_555 1_555
Zn2 O2 1_555 1_555
Cl2 Pt1 1_555 1_555
O1 C6 1_555 1_555
O2 C6 1_555 1_555
O3 C7 1_555 1_555
O4 C7 1_555 1_555
O5 C13 1_555 1_555
O6 C13 1_555 1_555
O7 C14 1_555 1_555
O8 C14 1_555 1_555
O9 Zn1 1_555 1_555
O10 Zn1 1_555 1_555
O11 Zn1 1_555 1_555
O12 C24 1_555 1_555
O13 C27 1_555 1_555
O14 C30 1_555 1_555
N1 Pt1 1_555 1_555
N2 Pt1 1_555 1_555
N3 C15 1_555 1_555
N4 C18 1_555 1_555
N5 C21 1_555 1_555
N6 C24 1_555 1_555
N7 C27 1_555 1_555
N8 C30 1_555 1_555
C1 N1 1_555 1_555
C2 C1 1_555 1_555
C3 C2 1_555 1_555
C4 C3 1_555 1_555
C5 N1 1_555 1_555
C6 C2 1_555 1_555
C7 C4 1_555 1_555
C8 N2 1_555 1_555
C9 C8 1_555 1_555
C10 C9 1_555 1_555
C11 C10 1_555 1_555
C12 N2 1_555 1_555
C13 C9 1_555 1_555
C14 C11 1_555 1_555
C15 O9 1_555 1_555
C16 N3 1_555 1_555
C17 N3 1_555 1_555
C18 O10 1_555 1_555
C19 N4 1_555 1_555
C20 N4 1_555 1_555
C21 O11 1_555 1_555
C22 N5 1_555 1_555
C23 N5 1_555 1_555
C24 H28 1_555 1_555
C25 N6 1_555 1_555
C26 N6 1_555 1_555
C27 H35 1_555 1_555
C28 N7 1_555 1_555
C29 N7 1_555 1_555
C30 H42 1_555 1_555
C31 N8 1_555 1_555
C32 N8 1_555 1_555
H1 C1 1_555 1_555
H2 C3 1_555 1_555
H3 C5 1_555 1_555
H4 C8 1_555 1_555
H5 C10 1_555 1_555
H6 C12 1_555 1_555
H7 C15 1_555 1_555
H8 C16 1_555 1_555
H9 C16 1_555 1_555
H10 C16 1_555 1_555
H11 C17 1_555 1_555
H12 C17 1_555 1_555
H13 C17 1_555 1_555
H14 C18 1_555 1_555
H15 C19 1_555 1_555
H16 C19 1_555 1_555
H17 C19 1_555 1_555
H18 C20 1_555 1_555
H19 C20 1_555 1_555
H20 C20 1_555 1_555
H21 C21 1_555 1_555
H22 C22 1_555 1_555
H23 C22 1_555 1_555
H24 C22 1_555 1_555
H25 C23 1_555 1_555
H26 C23 1_555 1_555
H27 C23 1_555 1_555
H29 C25 1_555 1_555
H30 C25 1_555 1_555
H31 C25 1_555 1_555
H32 C26 1_555 1_555
H33 C26 1_555 1_555
H34 C26 1_555 1_555
H36 C28 1_555 1_555
H37 C28 1_555 1_555
H38 C28 1_555 1_555
H39 C29 1_555 1_555
H40 C29 1_555 1_555
H41 C29 1_555 1_555
H43 C31 1_555 1_555
H44 C31 1_555 1_555
H45 C31 1_555 1_555
H46 C32 1_555 1_555
H47 C32 1_555 1_555
H48 C32 1_555 1_555
Zn1C O3 1_555 1_555
Zn1A O5 1_555 1_555
Zn2C O4 1_555 1_555
Zn2A O5 1_555 1_555
Zn2B O7 1_555 1_555
O3C Zn1 1_555 1_555
O4C Zn2 1_555 1_555
O5A Zn1 1_555 1_555
O6A Zn2 1_555 1_555
O7B Zn2 1_555 1_555
O8B Zn2 1_555 1_555
Zn2 O5A 1_555 1_555
O6 Zn2A 1_555 1_555
O8 Zn2B 1_555 1_555
C4 C5 1_555 1_555
C11 C12 1_555 1_555

#END
