
#######################################################################
#
#                 Cambridge Crystallographic Data Centre
#                                CCDC 
#
#######################################################################
#
# If this CIF has been generated from an entry in the Cambridge 
# Structural Database, then it will include bibliographic, chemical, 
# crystal, experimental, refinement or atomic coordinate data resulting 
# from the CCDC's data processing and validation procedures.
#
#######################################################################

data_VIRVAU
_symmetry_cell_setting           triclinic
_symmetry_space_group_name_H-M   'P -1'
_symmetry_Int_Tables_number      2
_space_group_name_Hall           '-P 1'
loop_
_symmetry_equiv_pos_site_id
_symmetry_equiv_pos_as_xyz
1 x,y,z
2 -x,-y,-z
_cell_length_a                   7.6642(11)
_cell_length_b                   10.7953(15)
_cell_length_c                   13.982(2)
_cell_angle_alpha                71.459(2)
_cell_angle_beta                 85.220(2)
_cell_angle_gamma                86.616(2)
_cell_volume                     1092.33
loop_
_atom_site_label
_atom_site_type_symbol
_atom_site_fract_x
_atom_site_fract_y
_atom_site_fract_z
Pt1 Pt 0.746392(12) -0.010754(9) 0.020835(7)
Ce1 Ce 0.49805(2) 0.417391(14) 0.335821(10)
Cl1 Cl 0.87070(9) -0.21969(7) 0.06489(5)
Cl2 Cl 0.63296(9) 0.20086(6) -0.02482(5)
N1 N 0.7003(3) -0.0276(2) 0.16916(17)
N2 N 0.7781(3) -0.0024(2) -0.12612(17)
C1 C 0.7479(4) 0.0623(3) 0.2099(2)
C2 C 0.7285(3) 0.0402(2) 0.31411(19)
C3 C 0.6533(3) -0.0735(3) 0.37798(19)
C4 C 0.5942(3) -0.1616(2) 0.3347(2)
C5 C 0.6220(3) -0.1373(3) 0.2312(2)
C6 C 0.7870(4) 0.1401(3) 0.3576(2)
C7 C 0.5020(3) -0.2838(3) 0.3991(2)
C8 C 0.7180(3) -0.1011(3) -0.1531(2)
C9 C 0.7254(3) -0.0991(3) -0.2527(2)
C10 C 0.7964(3) 0.0084(3) -0.3282(2)
C11 C 0.8595(3) 0.1106(3) -0.3009(2)
C12 C 0.8472(3) 0.1009(3) -0.1988(2)
C13 C 0.6516(4) -0.2098(3) -0.2787(2)
C14 C 0.9408(4) 0.2303(3) -0.3758(2)
O1 O 0.7521(3) 0.2573(2) 0.32019(17)
O2 O 0.8747(3) 0.0890(2) 0.43659(16)
O3 O 0.4517(3) -0.2897(2) 0.48796(15)
O4 O 0.4783(3) -0.3682(2) 0.35772(18)
O5 O 0.5884(3) -0.3042(2) -0.20936(16)
O6 O 0.6527(3) -0.2016(2) -0.37094(16)
O7 O 0.9689(3) 0.2349(2) -0.46799(16)
O8 O 0.9796(3) 0.3186(2) -0.34247(18)
O9 O 0.6472(5) 0.5280(3) 0.1671(2)
O10 O 0.2543(4) 0.5526(3) 0.2298(2)
O11 O 0.2170(3) 0.4234(2) 0.4416(2)
O12 O 0.7992(3) 0.4781(3) 0.3799(3)
H1 H 0.8879 0.1442 0.4648
H2 H 0.7947 0.1406 0.1677
H3 H 0.6435 -0.0914 0.4475
H4 H 0.5851 -0.1972 0.2031
H5 H 0.6680 -0.1725 -0.1026
H6 H 0.7491 0.5044 0.1857
H7 H 0.6821 0.6040 0.1506
H8 H 0.7986 0.0118 -0.3951
H9 H 0.1975 0.4849 0.2423
H10 H 0.1850 0.5971 0.2568
H11 H 0.2083 0.4519 0.4980
H12 H 0.1532 0.3636 0.4725
H13 H 0.8885 0.1691 -0.1801
H14 H 0.8577 0.5413 0.3712
H15 H 0.8548 0.4110 0.4095
Pt1A Pt 0.253608(12) 0.010754(9) 0.979165(7)
Pt1A_2 Pt 0.253608(12) 0.010754(9) -0.020835(7)
Ce1A Ce 0.50195(2) -0.417391(14) 0.664179(10)
Ce1_2 Ce 0.49805(2) -0.582609(14) 0.335821(10)
Ce1A_2 Ce 0.50195(2) -0.417391(14) -0.335821(10)
Ce1A_3 Ce 0.50195(2) 0.582609(14) 0.664179(10)
Cl1A Cl 0.12930(9) 0.21969(7) 0.93511(5)
Cl2A Cl 0.36704(9) -0.20086(6) 1.02482(5)
N1A N 0.2997(3) 0.0276(2) 0.83084(17)
N2A N 0.2219(3) 0.0024(2) 0.12612(17)
N2A_2 N 0.2219(3) 0.0024(2) 1.12612(17)
C1A C 0.2521(4) -0.0623(3) 0.7901(2)
C2A C 0.2715(3) -0.0402(2) 0.68589(19)
C3A C 0.3467(3) 0.0735(3) 0.62202(19)
C4A C 0.4058(3) 0.1616(2) 0.6653(2)
C5A C 0.3780(3) 0.1373(3) 0.7688(2)
C6A C 0.2130(4) -0.1401(3) 0.6424(2)
C7A C 0.4980(3) 0.2838(3) 0.6009(2)
C8A C 0.2820(3) 0.1011(3) 0.1531(2)
C9A C 0.2746(3) 0.0991(3) 0.2527(2)
C10A C 0.2036(3) -0.0084(3) 0.3282(2)
C11A C 0.1405(3) -0.1106(3) 0.3009(2)
C12A C 0.1528(3) -0.1009(3) 0.1988(2)
C13A C 0.3484(4) 0.2098(3) 0.2787(2)
C14A C 0.0592(4) -0.2303(3) 0.3758(2)
O1A O 0.2479(3) -0.2573(2) 0.67981(17)
O2A O 0.1253(3) -0.0890(2) 0.56341(16)
O3A O 0.5483(3) 0.2897(2) 0.51204(15)
O4A O 0.5217(3) 0.3682(2) 0.64228(18)
O4_2 O 0.4783(3) 0.6318(2) 0.35772(18)
O4A_2 O 0.5217(3) -0.6318(2) 0.64228(18)
O5A O 0.4116(3) 0.3042(2) 0.20936(16)
O5_2 O 0.5884(3) -0.3042(2) 0.79064(16)
O6A O 0.3473(3) 0.2016(2) 0.37094(16)
O6_2 O 0.6527(3) -0.2016(2) 0.62906(16)
O7A O 0.0311(3) -0.2349(2) 0.46799(16)
O8A O 0.0204(3) -0.3186(2) 0.34247(18)
O9A O 0.3528(5) -0.5280(3) 0.8329(2)
O10A O 0.7457(4) -0.5526(3) 0.7702(2)
O11A O 0.7830(3) -0.4234(2) 0.5584(2)
O12A O 0.2008(3) -0.4781(3) 0.6201(3)
H1A H 0.1121 -0.1442 0.5352
H2A H 0.2053 -0.1406 0.8323
H3A H 0.3565 0.0914 0.5525
H4A H 0.4149 0.1972 0.7969
H5A H 0.3320 0.1725 0.1026
H6A H 0.2509 -0.5044 0.8143
H7A H 0.3179 -0.6040 0.8494
H8A H 0.2014 -0.0118 0.3951
H9A H 0.8025 -0.4849 0.7577
H10A H 0.8150 -0.5971 0.7432
H11A H 0.7917 -0.4519 0.5020
H12A H 0.8468 -0.3636 0.5275
H13A H 0.1115 -0.1691 0.1801
H14A H 0.1423 -0.5413 0.6288
H15A H 0.1452 -0.4110 0.5905
O14 O 0.0227(12) 0.3962(10) 0.1682(14)
O15 O 0.5000 0.5000 0.0000
O13? O -0.1122(14) 0.3921(12) 0.0618(12)
loop_
_geom_bond_atom_site_label_1
_geom_bond_atom_site_label_2
_geom_bond_site_symmetry_1
_geom_bond_site_symmetry_2
Pt1 Cl1 1_555 1_555
Ce1 O1 1_555 1_555
Cl2 Pt1 1_555 1_555
N1 Pt1 1_555 1_555
N2 Pt1 1_555 1_555
C1 N1 1_555 1_555
C2 C1 1_555 1_555
C3 C2 1_555 1_555
C4 C3 1_555 1_555
C5 N1 1_555 1_555
C6 C2 1_555 1_555
C7 C4 1_555 1_555
C8 N2 1_555 1_555
C9 C8 1_555 1_555
C10 C9 1_555 1_555
C11 C10 1_555 1_555
C12 N2 1_555 1_555
C13 C9 1_555 1_555
C14 C11 1_555 1_555
O1 C6 1_555 1_555
O2 C6 1_555 1_555
O3 C7 1_555 1_555
O4 C7 1_555 1_555
O5 C13 1_555 1_555
O6 C13 1_555 1_555
O7 C14 1_555 1_555
O8 C14 1_555 1_555
O9 Ce1 1_555 1_555
O10 Ce1 1_555 1_555
O11 Ce1 1_555 1_555
O12 Ce1 1_555 1_555
H1 O2 1_555 1_555
H2 C1 1_555 1_555
H3 C3 1_555 1_555
H4 C5 1_555 1_555
H5 C8 1_555 1_555
H6 O9 1_555 1_555
H7 O9 1_555 1_555
H8 C10 1_555 1_555
H9 O10 1_555 1_555
H10 O10 1_555 1_555
H11 O11 1_555 1_555
H12 O11 1_555 1_555
H13 C12 1_555 1_555
H14 O12 1_555 1_555
H15 O12 1_555 1_555
Pt1A Cl1A 1_555 1_555
Pt1A_2 N2A 1_555 1_555
Ce1A O3 1_555 1_555
Ce1_2 O4 1_555 1_555
Ce1A_2 O5 1_555 1_555
Ce1A_3 O4A 1_555 1_555
Cl2A Pt1A 1_555 1_555
N1A Pt1A 1_555 1_555
N2A C8A 1_555 1_555
N2A_2 Pt1A 1_555 1_555
C1A N1A 1_555 1_555
C2A C1A 1_555 1_555
C3A C2A 1_555 1_555
C4A C3A 1_555 1_555
C5A N1A 1_555 1_555
C6A C2A 1_555 1_555
C7A C4A 1_555 1_555
C8A C9A 1_555 1_555
C9A C10A 1_555 1_555
C10A C11A 1_555 1_555
C11A C12A 1_555 1_555
C12A N2A 1_555 1_555
C13A C9A 1_555 1_555
C14A C11A 1_555 1_555
O1A Ce1A 1_555 1_555
O2A C6A 1_555 1_555
O3A Ce1 1_555 1_555
O4A C7A 1_555 1_555
O4_2 Ce1 1_555 1_555
O4A_2 Ce1A 1_555 1_555
O5A Ce1 1_555 1_555
O5_2 Ce1A 1_555 1_555
O6A Ce1 1_555 1_555
O6_2 Ce1A 1_555 1_555
O7A C14A 1_555 1_555
O8A C14A 1_555 1_555
O9A Ce1A 1_555 1_555
O10A Ce1A 1_555 1_555
O11A Ce1A 1_555 1_555
O12A Ce1A 1_555 1_555
H1A O2A 1_555 1_555
H2A C1A 1_555 1_555
H3A C3A 1_555 1_555
H4A C5A 1_555 1_555
H5A C8A 1_555 1_555
H6A O9A 1_555 1_555
H7A O9A 1_555 1_555
H8A C10A 1_555 1_555
H9A O10A 1_555 1_555
H10A O10A 1_555 1_555
H11A O11A 1_555 1_555
H12A O11A 1_555 1_555
H13A C12A 1_555 1_555
H14A O12A 1_555 1_555
H15A O12A 1_555 1_555
C4 C5 1_555 1_555
C11 C12 1_555 1_555
O6 Ce1A_2 1_555 1_555
C4A C5A 1_555 1_555
C6A O1A 1_555 1_555
C7A O3A 1_555 1_555
C13A O5A 1_555 1_555
C13A O6A 1_555 1_555

#END
