
#######################################################################
#
#                 Cambridge Crystallographic Data Centre
#                                CCDC 
#
#######################################################################
#
# If this CIF has been generated from an entry in the Cambridge 
# Structural Database, then it will include bibliographic, chemical, 
# crystal, experimental, refinement or atomic coordinate data resulting 
# from the CCDC's data processing and validation procedures.
#
#######################################################################

data_VIRWOK
_symmetry_cell_setting           tetragonal
_symmetry_space_group_name_H-M   'P 43'
_symmetry_Int_Tables_number      78
_space_group_name_Hall           'P 4cw'
loop_
_symmetry_equiv_pos_site_id
_symmetry_equiv_pos_as_xyz
1 x,y,z
2 -x,-y,1/2+z
3 -y,x,3/4+z
4 y,-x,1/4+z
_cell_length_a                   9.3837(4)
_cell_length_b                   9.3837(4)
_cell_length_c                   30.344(3)
_cell_angle_alpha                90
_cell_angle_beta                 90
_cell_angle_gamma                90
_cell_volume                     2671.91
loop_
_atom_site_label
_atom_site_type_symbol
_atom_site_fract_x
_atom_site_fract_y
_atom_site_fract_z
Zn1 Zn 0.66824(6) 0.26032(6) 0.190661(18)
C1 C 0.4042(7) 0.4255(7) 0.1745(3)
H1 H 0.4257 0.4461 0.1439
H2 H 0.3036 0.4434 0.1792
C2 C 0.4855(8) 0.5155(9) 0.2020(3)
H3 H 0.4588 0.4984 0.2324
H4 H 0.4630 0.6139 0.1951
C3 C 0.7189(9) 0.5806(6) 0.1657(2)
H5 H 0.6844 0.5570 0.1365
H6 H 0.8198 0.5580 0.1666
C4 C 0.7012(8) 0.7409(6) 0.1728(2)
C5 C 0.7504(7) 0.8054(7) 0.2111(2)
H7 H 0.7939 0.7522 0.2332
C6 C 0.7330(7) 0.9490(6) 0.2153(2)
H8 H 0.7688 0.9919 0.2406
C7 C 0.6192(7) 0.9674(6) 0.1493(2)
H9 H 0.5731 1.0220 0.1281
C8 C 0.6348(9) 0.8222(7) 0.1422(2)
H10 H 0.5998 0.7810 0.1165
C9 C 0.3505(6) 0.2069(8) 0.2184(2)
H11 H 0.3766 0.2473 0.2466
H12 H 0.3719 0.1058 0.2193
C10 C 0.1913(6) 0.2263(7) 0.2113(2)
C11 C 0.1204(7) 0.1507(8) 0.1785(2)
H13 H 0.1697 0.0887 0.1601
C12 C -0.0271(6) 0.1701(7) 0.1739(2)
H14 H -0.0745 0.1174 0.1525
C13 C -0.0338(6) 0.3332(6) 0.2294(2)
H15 H -0.0861 0.3952 0.2470
C14 C 0.1106(6) 0.3219(8) 0.2366(2)
H16 H 0.1544 0.3775 0.2580
N1 N 0.4364(5) 0.2735(5) 0.18399(18)
H17 H 0.4151 0.2255 0.1588
N2 N 0.6469(5) 0.4927(5) 0.19698(18)
H18 H 0.6853 0.5150 0.2236
N3 N 0.6686(5) 1.0324(4) 0.18602(18)
N4 N -0.1024(5) 0.2590(5) 0.19834(16)
O1 O 0.6876(5) 0.2824(5) 0.11932(15)
O2 O 0.6547(4) 0.2463(4) 0.26388(16)
Zn1_2 Zn -0.33176(6) 0.26032(6) 0.190661(18)
Zn1_3 Zn 0.66824(6) 1.26032(6) 0.190661(18)
N3_2 N 0.6686(5) 0.0324(4) 0.18602(18)
N4_2 N 0.8976(5) 0.2590(5) 0.19834(16)
Cl1 Cl 0.1320(3) -0.2601(3) 0.16372(11)
O3 O 0.0400(12) -0.1671(10) 0.1422(4)
O4 O 0.2631(11) -0.1983(15) 0.1726(4)
O5 O 0.0867(16) -0.3537(18) 0.1887(6)
O6 O 0.200(3) -0.321(3) 0.1256(10)
C15 C 0.2388(8) 0.2926(12) 0.0371(3)
H19 H 0.2715 0.2969 0.0065
C16 C 0.1597(9) 0.4303(11) 0.0490(6)
H20 H 0.2172 0.4880 0.0687
H21 H 0.1400 0.4851 0.0226
C17 C 0.0225(9) 0.3881(9) 0.0712(3)
H22 H 0.0284 0.4024 0.1028
H23 H -0.0570 0.4429 0.0598
C18 C 0.0063(7) 0.2364(8) 0.0607(2)
C19 C 0.3630(7) 0.2654(8) 0.0671(2)
N5 N 0.1250(6) 0.1903(8) 0.0411(2)
H24 H 0.1331 0.1045 0.0315
O7 O -0.1002(5) 0.1614(6) 0.06816(17)
O8 O 0.4632(5) 0.3551(6) 0.06544(16)
O9 O 0.3649(6) 0.1544(7) 0.0902(2)
O10 O -0.0990(7) -0.1381(7) 0.05921(19)
O11 O 0.6432(7) 0.5131(6) 0.29760(19)
O12 O 0.3072(9) -0.1234(9) 0.0649(3)
loop_
_geom_bond_atom_site_label_1
_geom_bond_atom_site_label_2
_geom_bond_site_symmetry_1
_geom_bond_site_symmetry_2
Zn1 N1 1_555 1_555
C1 H1 1_555 1_555
H2 C1 1_555 1_555
C2 C1 1_555 1_555
H3 C2 1_555 1_555
H4 C2 1_555 1_555
C3 H5 1_555 1_555
H6 C3 1_555 1_555
C4 C3 1_555 1_555
C5 C4 1_555 1_555
H7 C5 1_555 1_555
C6 C5 1_555 1_555
H8 C6 1_555 1_555
C7 H9 1_555 1_555
C8 C4 1_555 1_555
H10 C8 1_555 1_555
C9 H11 1_555 1_555
H12 C9 1_555 1_555
C10 C9 1_555 1_555
C11 C10 1_555 1_555
H13 C11 1_555 1_555
C12 C11 1_555 1_555
H14 C12 1_555 1_555
C13 H15 1_555 1_555
C14 C10 1_555 1_555
H16 C14 1_555 1_555
N1 C1 1_555 1_555
H17 N1 1_555 1_555
N2 Zn1 1_555 1_555
H18 N2 1_555 1_555
N3 C6 1_555 1_555
N4 C12 1_555 1_555
O1 Zn1 1_555 1_555
O2 Zn1 1_555 1_555
Cl1 O3 1_555 1_555
O4 Cl1 1_555 1_555
O5 Cl1 1_555 1_555
O6 Cl1 1_555 1_555
C15 H19 1_555 1_555
C16 C15 1_555 1_555
H20 C16 1_555 1_555
H21 C16 1_555 1_555
C17 C16 1_555 1_555
H22 C17 1_555 1_555
H23 C17 1_555 1_555
C18 C17 1_555 1_555
C19 C15 1_555 1_555
N5 C15 1_555 1_555
H24 N5 1_555 1_555
O7 C18 1_555 1_555
O8 C19 1_555 1_555
O9 C19 1_555 1_555
Zn1_2 N4 1_555 1_555
Zn1_3 N3 1_555 1_555
N3_2 Zn1 1_555 1_555
N4_2 Zn1 1_555 1_555
C2 N2 1_555 1_555
C3 N2 1_555 1_555
C7 C8 1_555 1_555
C7 N3 1_555 1_555
C9 N1 1_555 1_555
C13 C14 1_555 1_555
C13 N4 1_555 1_555
C18 N5 1_555 1_555

#END
