
#######################################################################
#
#                 Cambridge Crystallographic Data Centre
#                                CCDC 
#
#######################################################################
#
# If this CIF has been generated from an entry in the Cambridge 
# Structural Database, then it will include bibliographic, chemical, 
# crystal, experimental, refinement or atomic coordinate data resulting 
# from the CCDC's data processing and validation procedures.
#
#######################################################################

data_VIRXIF
_symmetry_cell_setting           trigonal
_symmetry_space_group_name_H-M   'P 32 2 1'
_symmetry_Int_Tables_number      154
_space_group_name_Hall           'P 32 2"'
loop_
_symmetry_equiv_pos_site_id
_symmetry_equiv_pos_as_xyz
1 x,y,z
2 -y,x-y,2/3+z
3 -x+y,-x,1/3+z
4 x-y,-y,1/3-z
5 -x,-x+y,2/3-z
6 y,x,-z
_cell_length_a                   14.3807(3)
_cell_length_b                   14.3807(3)
_cell_length_c                   14.3552(3)
_cell_angle_alpha                90
_cell_angle_beta                 90
_cell_angle_gamma                120
_cell_volume                     2570.99
loop_
_atom_site_label
_atom_site_type_symbol
_atom_site_fract_x
_atom_site_fract_y
_atom_site_fract_z
Zn1 Zn 0.58507(9) 0.25785(8) 0.83541(6)
Zn2 Zn 0.34366(11) 0.0000 0.6667
P1 P 0.53270(17) 0.22012(18) 0.61950(15)
P2 P 0.36435(19) 0.20870(19) 0.75924(15)
O1 O 0.4649(5) 0.1036(5) 0.5932(4)
O2 O 0.6028(6) 0.2372(6) 0.7036(4)
O3 O 0.4481(6) 0.2516(7) 0.8368(4)
O4 O 0.2836(6) 0.2428(6) 0.7719(5)
O5 O 0.3134(7) 0.0883(6) 0.7471(5)
C1 C 0.4399(7) 0.2709(7) 0.6507(6)
O6 O 0.3672(6) 0.2479(7) 0.5739(4)
H1 H 0.3060 0.2239 0.5938
C2 C 0.5068(8) 0.3921(7) 0.6582(7)
H2 H 0.5610 0.4092 0.7057
H3 H 0.5440 0.4195 0.5995
N1 N 0.4502(7) 0.4490(6) 0.6801(5)
C3 C 0.4686(8) 0.5109(8) 0.7558(6)
H4 H 0.5165 0.5204 0.8033
C4 C 0.3752(11) 0.4522(10) 0.6266(7)
H5 H 0.3469 0.4154 0.5711
C5 C 0.3489(10) 0.5210(9) 0.6705(7)
H6 H 0.3000 0.5407 0.6494
N2 N 0.4087(7) 0.5557(7) 0.7525(5)
O7 O 0.5955(5) 0.2857(5) 0.5372(4)
Zn1C Zn 0.32722(12) -0.25785(8) 0.49792(6)
P1C P 0.31258(25) -0.22012(18) 0.71383(15)
P2C P 0.15565(27) -0.20870(19) 0.57409(15)
O1C O 0.3613(7) -0.1036(5) 0.7401(4)
O2C O 0.3656(8) -0.2372(6) 0.6297(4)
O3C O 0.1965(9) -0.2516(7) 0.4965(4)
O4C O 0.0408(8) -0.2428(6) 0.5614(5)
O5C O 0.2251(9) -0.0883(6) 0.5862(5)
C1C C 0.1690(10) -0.2709(7) 0.6826(6)
O6C O 0.1193(9) -0.2479(7) 0.7594(4)
H1C H 0.0821 -0.2239 0.7395
C2C C 0.1147(11) -0.3921(7) 0.6751(7)
H2C H 0.1518 -0.4092 0.6276
H3C H 0.1245 -0.4195 0.7338
N1C N 0.0012(9) -0.4490(6) 0.6532(5)
C3C C -0.0423(11) -0.5109(8) 0.5775(6)
H4C H -0.0039 -0.5204 0.5300
C4C C -0.0770(15) -0.4522(10) 0.7067(7)
H5C H -0.0685 -0.4154 0.7622
C5C C -0.1721(13) -0.5210(9) 0.6628(7)
H6C H -0.2407 -0.5407 0.6839
N2C N -0.1470(10) -0.5557(7) 0.5808(5)
O7C O 0.3098(7) -0.2857(5) 0.7961(4)
Zn1A Zn -0.25785(8) -0.67278(12) 0.50208(6)
Zn1A_2 Zn 0.74215(8) 0.32722(12) 0.50208(6)
Zn1D Zn 0.41493(9) -0.32722(12) 0.83126(6)
Zn1D_2 Zn 0.41493(9) 0.67278(12) 0.83126(6)
N2A N 0.4443(7) -0.1470(10) 0.4192(5)
N2D N 0.5913(7) 0.1470(10) 0.9142(5)
O7B O 0.6902(7) 0.4045(5) 0.8705(4)
O7E O 0.2857(5) -0.4045(5) 0.4628(4)
N3 N 0.6314(14) 1.0000 0.6667
H7 H 0.6122 1.0368 0.6280
N4 N 0.8242(19) 1.0000 0.6667
H8 H 0.8419 0.9616 0.7047
C6 C 0.6370(18) 0.9224(17) 0.6112(15)
H9 H 0.5819 0.8524 0.6330
H10 H 0.6176 0.9306 0.5482
C7 C 0.726(2) 0.9206(15) 0.6064(18)
H11 H 0.7487 0.9325 0.5418
H12 H 0.7096 0.8485 0.6223
H7C H 0.5754 0.9632 0.7053
H8C H 0.8803 1.0384 0.6286
C6C C 0.7146(25) 1.0776(17) 0.7221(15)
H9C H 0.7295 1.1476 0.7003
H10C H 0.6870 1.0694 0.7851
C7C C 0.8054(25) 1.0794(15) 0.7269(18)
H11C H 0.8162 1.0675 0.7915
H12C H 0.8611 1.1515 0.7110
H13? H 0.6122 1.0368 0.6280
H14? H 0.8419 0.9616 0.7047
loop_
_geom_bond_atom_site_label_1
_geom_bond_atom_site_label_2
_geom_bond_site_symmetry_1
_geom_bond_site_symmetry_2
Zn1 O2 1_555 1_555
Zn2 O1 1_555 1_555
P1 O1 1_555 1_555
P2 O3 1_555 1_555
O2 P1 1_555 1_555
O3 Zn1 1_555 1_555
O4 P2 1_555 1_555
O5 Zn2 1_555 1_555
C1 P1 1_555 1_555
O6 C1 1_555 1_555
H1 O6 1_555 1_555
C2 C1 1_555 1_555
H2 C2 1_555 1_555
H3 C2 1_555 1_555
N1 C2 1_555 1_555
C3 N1 1_555 1_555
H4 C3 1_555 1_555
C4 N1 1_555 1_555
H5 C4 1_555 1_555
C5 C4 1_555 1_555
H6 C5 1_555 1_555
N2 C3 1_555 1_555
O7 P1 1_555 1_555
N3 H7 1_555 1_555
N4 H8 1_555 1_555
C6 N3 1_555 1_555
H9 C6 1_555 1_555
H10 C6 1_555 1_555
C7 N4 1_555 1_555
H11 C7 1_555 1_555
H12 C7 1_555 1_555
Zn1C O2C 1_555 1_555
P1C O1C 1_555 1_555
P2C O3C 1_555 1_555
O1C Zn2 1_555 1_555
O2C P1C 1_555 1_555
O3C Zn1C 1_555 1_555
O4C P2C 1_555 1_555
O5C Zn2 1_555 1_555
C1C P1C 1_555 1_555
O6C C1C 1_555 1_555
H1C O6C 1_555 1_555
C2C C1C 1_555 1_555
H2C C2C 1_555 1_555
H3C C2C 1_555 1_555
N1C C2C 1_555 1_555
C3C N1C 1_555 1_555
H4C C3C 1_555 1_555
C4C N1C 1_555 1_555
H5C C4C 1_555 1_555
C5C C4C 1_555 1_555
H6C C5C 1_555 1_555
N2C C3C 1_555 1_555
O7C P1C 1_555 1_555
Zn1A N2C 1_555 1_555
Zn1A_2 O7 1_555 1_555
Zn1D O7C 1_555 1_555
Zn1D_2 N2 1_555 1_555
N2A Zn1C 1_555 1_555
N2D Zn1 1_555 1_555
O7B Zn1 1_555 1_555
O7E Zn1C 1_555 1_555
H7C N3 1_555 1_555
H8C N4 1_555 1_555
C6C N3 1_555 1_555
H9C C6C 1_555 1_555
H10C C6C 1_555 1_555
C7C N4 1_555 1_555
H11C C7C 1_555 1_555
H12C C7C 1_555 1_555
P2 O5 1_555 1_555
P2 C1 1_555 1_555
C5 N2 1_555 1_555
C6 C7 1_555 1_555
P2C O5C 1_555 1_555
P2C C1C 1_555 1_555
C5C N2C 1_555 1_555
C6C C7C 1_555 1_555

#END
