
#######################################################################
#
#                 Cambridge Crystallographic Data Centre
#                                CCDC 
#
#######################################################################
#
# If this CIF has been generated from an entry in the Cambridge 
# Structural Database, then it will include bibliographic, chemical, 
# crystal, experimental, refinement or atomic coordinate data resulting 
# from the CCDC's data processing and validation procedures.
#
#######################################################################

data_VIRXAX
_symmetry_cell_setting           triclinic
_symmetry_space_group_name_H-M   'P -1'
_symmetry_Int_Tables_number      2
_space_group_name_Hall           '-P 1'
loop_
_symmetry_equiv_pos_site_id
_symmetry_equiv_pos_as_xyz
1 x,y,z
2 -x,-y,-z
_cell_length_a                   8.9012(8)
_cell_length_b                   8.9692(8)
_cell_length_c                   10.1085(7)
_cell_angle_alpha                76.626(7)
_cell_angle_beta                 70.921(7)
_cell_angle_gamma                67.717(8)
_cell_volume                     700.402
loop_
_atom_site_label
_atom_site_type_symbol
_atom_site_fract_x
_atom_site_fract_y
_atom_site_fract_z
Zn1 Zn 0.28530(4) 1.25682(4) 0.03825(4)
P1 P 0.34196(10) 0.89598(9) 0.18923(8)
O1 O 0.2329(3) 1.0715(2) 0.1649(2)
O2 O 0.3135(3) 0.8313(3) 0.3441(2)
O3 O 0.3220(3) 0.6139(2) 0.1843(2)
H1 H 0.3332 0.5476 0.1349
O4 O 0.1568(3) 1.3650(3) -0.1124(2)
C1 C 0.0232(4) 1.4806(4) -0.0755(3)
N1 N -0.0109(3) 0.8472(3) 0.2872(3)
C2 C 0.2709(4) 0.7737(4) 0.1120(3)
C3 C 0.0792(4) 0.8408(4) 0.1371(3)
H2 H 0.0479 0.9492 0.0868
H3 H 0.0446 0.7730 0.0990
N2 N -0.1516(4) 0.9467(4) 0.4834(3)
C4 C -0.0209(4) 0.7195(4) 0.3895(4)
H4 H 0.0242 0.6102 0.3768
C5 C -0.0903(4) 0.9838(4) 0.3466(4)
H5 H -0.1010 1.0881 0.2998
C6 C -0.1081(5) 0.7809(5) 0.5122(4)
P2 P 0.36670(10) 0.76769(10) -0.07996(9)
O5 O 0.5290(2) 0.8657(2) 0.1185(2)
O6 O -0.0751(3) 1.5644(3) -0.1499(2)
O7 O 0.3204(3) 0.9491(3) -0.1485(2)
H6 H 0.3810 0.9914 -0.1360
O8 O 0.2844(3) 0.6838(3) -0.1314(2)
O9 O 0.5554(3) 0.6879(3) -0.1023(2)
H7 H -0.135(4) 0.732(4) 0.598(3)
H8 H -0.215(5) 1.030(5) 0.546(4)
O4A O -0.1568(3) 1.6350(3) 0.1124(2)
C1A C -0.0232(4) 1.5194(4) 0.0755(3)
O6A O 0.0751(3) 1.4356(3) 0.1499(2)
Zn1A Zn -0.28530(4) 1.74318(4) -0.03825(4)
P1A P -0.34196(10) 2.10402(9) -0.18923(8)
O1A O -0.2329(3) 1.9285(2) -0.1649(2)
O2A O -0.3135(3) 2.1687(3) -0.3441(2)
O3A O -0.3220(3) 2.3861(2) -0.1843(2)
H1A H -0.3332 2.4524 -0.1349
N1A N 0.0109(3) 2.1528(3) -0.2872(3)
C2A C -0.2709(4) 2.2263(4) -0.1120(3)
C3A C -0.0792(4) 2.1592(4) -0.1371(3)
H2A H -0.0479 2.0508 -0.0868
H3A H -0.0446 2.2270 -0.0990
N2A N 0.1516(4) 2.0533(4) -0.4834(3)
C4A C 0.0209(4) 2.2805(4) -0.3895(4)
H4A H -0.0242 2.3898 -0.3768
C5A C 0.0903(4) 2.0162(4) -0.3466(4)
H5A H 0.1010 1.9119 -0.2998
C6A C 0.1081(5) 2.2191(5) -0.5122(4)
P2A P -0.36670(10) 2.23231(10) 0.07996(9)
O5A O -0.5290(2) 2.1343(2) -0.1185(2)
O7A O -0.3204(3) 2.0509(3) 0.1485(2)
H6A H -0.3810 2.0086 0.1360
O8A O -0.2844(3) 2.3162(3) 0.1314(2)
O9A O -0.5554(3) 2.3121(3) 0.1023(2)
H7A H 0.135(4) 2.268(4) -0.598(3)
H8A H 0.215(5) 1.970(5) -0.546(4)
Zn1_2 Zn -0.71470(4) 2.25682(4) 0.03825(4)
Zn1A_2 Zn 0.71470(4) 0.74318(4) -0.03825(4)
O5_2 O -0.4710(2) 1.8657(2) 0.1185(2)
O5A_2 O 0.4710(2) 1.1343(2) -0.1185(2)
O9_2 O -0.4446(3) 1.6879(3) -0.1023(2)
O9A_2 O 0.4446(3) 1.3121(3) 0.1023(2)
N3 N 0.5497(3) 0.5021(3) 0.3509(3)
H9 H 0.4806 0.6000 0.3244
H10 H 0.6142 0.4547 0.2726
C7 C 0.4478(4) 0.4007(4) 0.4437(3)
H11 H 0.5219 0.2931 0.4681
H12 H 0.3766 0.3898 0.3940
C8 C 0.6594(4) 0.5234(5) 0.4247(4)
H13 H 0.7226 0.5922 0.3632
H14 H 0.7389 0.4189 0.4483
N3A N 0.4503(3) 0.4979(3) 0.6491(3)
H9A H 0.5194 0.4000 0.6756
H10A H 0.3858 0.5453 0.7274
C7A C 0.5522(4) 0.5993(4) 0.5563(3)
H11A H 0.4781 0.7069 0.5319
H12A H 0.6234 0.6102 0.6060
C8A C 0.3406(4) 0.4766(5) 0.5753(4)
H13A H 0.2774 0.4078 0.6368
H14A H 0.2611 0.5811 0.5517
loop_
_geom_bond_atom_site_label_1
_geom_bond_atom_site_label_2
_geom_bond_site_symmetry_1
_geom_bond_site_symmetry_2
Zn1 O1 1_555 1_555
P1 O1 1_555 1_555
O2 P1 1_555 1_555
O3 H1 1_555 1_555
O4 Zn1 1_555 1_555
C1 O4 1_555 1_555
N1 C3 1_555 1_555
C2 P1 1_555 1_555
C3 C2 1_555 1_555
H2 C3 1_555 1_555
H3 C3 1_555 1_555
N2 C5 1_555 1_555
C4 N1 1_555 1_555
H4 C4 1_555 1_555
C5 N1 1_555 1_555
H5 C5 1_555 1_555
C6 N2 1_555 1_555
P2 C2 1_555 1_555
O5 P1 1_555 1_555
O6 C1 1_555 1_555
O7 P2 1_555 1_555
H6 O7 1_555 1_555
O8 P2 1_555 1_555
O9 P2 1_555 1_555
H7 C6 1_555 1_555
H8 N2 1_555 1_555
N3 H9 1_555 1_555
H10 N3 1_555 1_555
C7 N3 1_555 1_555
H11 C7 1_555 1_555
H12 C7 1_555 1_555
C8 N3 1_555 1_555
H13 C8 1_555 1_555
H14 C8 1_555 1_555
O4A C1A 1_555 1_555
C1A C1 1_555 1_555
O6A Zn1 1_555 1_555
Zn1A O6 1_555 1_555
P1A O1A 1_555 1_555
O1A Zn1A 1_555 1_555
O2A P1A 1_555 1_555
O3A H1A 1_555 1_555
N1A C3A 1_555 1_555
C2A P1A 1_555 1_555
C3A C2A 1_555 1_555
H2A C3A 1_555 1_555
H3A C3A 1_555 1_555
N2A C5A 1_555 1_555
C4A N1A 1_555 1_555
H4A C4A 1_555 1_555
C5A N1A 1_555 1_555
H5A C5A 1_555 1_555
C6A N2A 1_555 1_555
P2A C2A 1_555 1_555
O5A P1A 1_555 1_555
O7A P2A 1_555 1_555
H6A O7A 1_555 1_555
O8A P2A 1_555 1_555
O9A P2A 1_555 1_555
H7A C6A 1_555 1_555
H8A N2A 1_555 1_555
Zn1_2 O5A 1_555 1_555
Zn1A_2 O5 1_555 1_555
O5_2 Zn1A 1_555 1_555
O5A_2 Zn1 1_555 1_555
O9_2 Zn1A 1_555 1_555
O9A_2 Zn1 1_555 1_555
N3A H9A 1_555 1_555
H10A N3A 1_555 1_555
C7A C8 1_555 1_555
H11A C7A 1_555 1_555
H12A C7A 1_555 1_555
C8A C7 1_555 1_555
H13A C8A 1_555 1_555
H14A C8A 1_555 1_555
O3 C2 1_555 1_555
C4 C6 1_555 1_555
O9 Zn1A_2 1_555 1_555
O4A Zn1A 1_555 1_555
C1A O6A 1_555 1_555
O3A C2A 1_555 1_555
C4A C6A 1_555 1_555
O9A Zn1_2 1_555 1_555
N3A C7A 1_555 1_555
N3A C8A 1_555 1_555

#END
