
#######################################################################
#
#                 Cambridge Crystallographic Data Centre
#                                CCDC 
#
#######################################################################
#
# If this CIF has been generated from an entry in the Cambridge 
# Structural Database, then it will include bibliographic, chemical, 
# crystal, experimental, refinement or atomic coordinate data resulting 
# from the CCDC's data processing and validation procedures.
#
#######################################################################

data_VIRZAX
_symmetry_cell_setting           monoclinic
_symmetry_space_group_name_H-M   'P 21/n'
_symmetry_Int_Tables_number      14
_space_group_name_Hall           '-P 2yn'
loop_
_symmetry_equiv_pos_site_id
_symmetry_equiv_pos_as_xyz
1 x,y,z
2 1/2-x,1/2+y,1/2-z
3 -x,-y,-z
4 1/2+x,1/2-y,1/2+z
_cell_length_a                   7.5740(10)
_cell_length_b                   11.9380(10)
_cell_length_c                   18.817(3)
_cell_angle_alpha                90
_cell_angle_beta                 98.480(10)
_cell_angle_gamma                90
_cell_volume                     1682.8
loop_
_atom_site_label
_atom_site_type_symbol
_atom_site_fract_x
_atom_site_fract_y
_atom_site_fract_z
Ni1 Ni 0.88850(5) 0.32432(3) 0.578908(18)
N1 N 0.7005(4) 0.3221(2) 0.48462(14)
N2 N 0.8560(4) 0.1529(2) 0.56324(14)
C1 C 0.6320(4) 0.4073(3) 0.44448(19)
H1 H 0.6511 0.4796 0.4622
C2 C 0.5315(5) 0.3923(4) 0.3762(2)
H2 H 0.4859 0.4541 0.3494
C3 C 0.5009(5) 0.2865(4) 0.34931(18)
H3 H 0.4356 0.2759 0.3039
C4 C 0.5687(5) 0.1939(3) 0.39058(18)
C5 C 0.5419(5) 0.0792(4) 0.36827(19)
H4 H 0.4762 0.0635 0.3236
C6 C 0.6098(5) -0.0059(3) 0.4105(2)
H5 H 0.5875 -0.0793 0.3950
C7 C 0.7162(5) 0.0142(3) 0.47904(19)
C8 C 0.7961(5) -0.0703(3) 0.5247(2)
H6 H 0.7786 -0.1453 0.5122
C9 C 0.8995(5) -0.0416(3) 0.5876(2)
H7 H 0.9523 -0.0970 0.6185
C10 C 0.9258(5) 0.0707(3) 0.60562(19)
H8 H 0.9951 0.0889 0.6491
C11 C 0.7482(4) 0.1255(2) 0.50152(16)
C12 C 0.6697(4) 0.2165(3) 0.45784(16)
C13 C 0.9059(4) 0.5424(2) 0.65446(14)
C14 C 0.9867(5) 0.6582(3) 0.66543(15)
H9 H 0.8935 0.7136 0.6532
H10 H 1.0737 0.6682 0.6330
C15 C 1.0771(5) 0.6788(2) 0.74222(16)
H11 H 1.1787 0.6289 0.7526
H12 H 0.9939 0.6606 0.7751
C16 C 1.1407(4) 0.7993(3) 0.75551(15)
H13 H 1.2149 0.8207 0.7199
H14 H 1.0385 0.8492 0.7508
C17 C 1.2461(4) 0.8107(2) 0.82995(15)
O1 O 0.9058(3) 0.49727(17) 0.59262(10)
O2 O 0.8411(3) 0.49961(19) 0.70485(11)
O3 O 1.4119(3) 0.8022(2) 0.83531(11)
O4 O 1.1606(3) 0.8245(2) 0.88223(12)
O5 O 0.7094(3) 0.31092(19) 0.65175(13)
O6 O 1.0796(3) 0.33419(18) 0.50978(12)
H15 H 0.608(7) 0.314(3) 0.635(3)
H16 H 0.739(6) 0.366(4) 0.674(2)
H17 H 1.164(6) 0.337(3) 0.536(2)
H18 H 1.085(5) 0.383(4) 0.483(2)
O3A O 1.0881(3) 0.3022(2) 0.66469(11)
Ni1A Ni 1.61150(5) 0.82432(3) 0.921092(18)
loop_
_geom_bond_atom_site_label_1
_geom_bond_atom_site_label_2
_geom_bond_site_symmetry_1
_geom_bond_site_symmetry_2
Ni1 N1 1_555 1_555
N1 C1 1_555 1_555
N2 Ni1 1_555 1_555
C1 H1 1_555 1_555
C2 C1 1_555 1_555
H2 C2 1_555 1_555
C3 C2 1_555 1_555
H3 C3 1_555 1_555
C4 C3 1_555 1_555
C5 C4 1_555 1_555
H4 C5 1_555 1_555
C6 C5 1_555 1_555
H5 C6 1_555 1_555
C7 C6 1_555 1_555
C8 C7 1_555 1_555
H6 C8 1_555 1_555
C9 C8 1_555 1_555
H7 C9 1_555 1_555
C10 N2 1_555 1_555
H8 C10 1_555 1_555
C11 N2 1_555 1_555
C12 N1 1_555 1_555
C13 C14 1_555 1_555
C14 H9 1_555 1_555
H10 C14 1_555 1_555
C15 C14 1_555 1_555
H11 C15 1_555 1_555
H12 C15 1_555 1_555
C16 C15 1_555 1_555
H13 C16 1_555 1_555
H14 C16 1_555 1_555
C17 C16 1_555 1_555
O1 Ni1 1_555 1_555
O2 C13 1_555 1_555
O3 C17 1_555 1_555
O4 C17 1_555 1_555
O5 Ni1 1_555 1_555
O6 Ni1 1_555 1_555
H15 O5 1_555 1_555
H16 O5 1_555 1_555
H17 O6 1_555 1_555
H18 O6 1_555 1_555
O3A Ni1 1_555 1_555
Ni1A O3 1_555 1_555
C4 C12 1_555 1_555
C7 C11 1_555 1_555
C9 C10 1_555 1_555
C11 C12 1_555 1_555
C13 O1 1_555 1_555

#END
