
#######################################################################
#
#                 Cambridge Crystallographic Data Centre
#                                CCDC 
#
#######################################################################
#
# If this CIF has been generated from an entry in the Cambridge 
# Structural Database, then it will include bibliographic, chemical, 
# crystal, experimental, refinement or atomic coordinate data resulting 
# from the CCDC's data processing and validation procedures.
#
#######################################################################

data_VISDOQ
_symmetry_cell_setting           orthorhombic
_symmetry_space_group_name_H-M   'C m c m'
_symmetry_Int_Tables_number      63
_space_group_name_Hall           '-C 2n 2'
loop_
_symmetry_equiv_pos_site_id
_symmetry_equiv_pos_as_xyz
1 x,y,z
2 x,-y,1/2+z
3 -x,y,z
4 1/2+x,1/2+y,z
5 1/2+x,1/2-y,1/2+z
6 1/2-x,1/2+y,z
7 x,y,1/2-z
8 1/2+x,1/2+y,1/2-z
9 -x,-y,-z
10 -x,y,1/2-z
11 x,-y,-z
12 1/2-x,1/2-y,-z
13 1/2-x,1/2+y,1/2-z
14 1/2+x,1/2-y,-z
15 -x,-y,1/2+z
16 1/2-x,1/2-y,1/2+z
_cell_length_a                   5.8292(4)
_cell_length_b                   21.0386(16)
_cell_length_c                   8.4691(6)
_cell_angle_alpha                90
_cell_angle_beta                 90
_cell_angle_gamma                90
_cell_volume                     1038.64
loop_
_atom_site_label
_atom_site_type_symbol
_atom_site_fract_x
_atom_site_fract_y
_atom_site_fract_z
Cs1 Cs 0.5000 0.516073(9) 0.7500
S1 S 0.0000 0.40568(3) 0.59104(6)
O1 O 0.2094(3) 0.41579(6) 0.50421(16)
N1 N 0.0000 0.44525(13) 0.7500
C1 C 0.0000 0.32730(10) 0.6683(2)
C2 C 0.0000 0.27094(11) 0.5837(3)
H1 H 0.0000 0.2710 0.4715
C3 C 0.0000 0.21466(11) 0.6679(3)
H2 H 0.0000 0.1753 0.6127
O1B O -0.2094(3) 0.41579(6) 0.50421(16)
S1F S 0.0000 0.40568(3) 0.90896(6)
O1F O 0.2094(3) 0.41579(6) 0.99579(16)
O1I O -0.2094(3) 0.41579(6) 0.99579(16)
C1F C 0.0000 0.32730(10) 0.8317(2)
C3F C 0.0000 0.21466(11) 0.8321(3)
C2F C 0.0000 0.27094(11) 0.9163(3)
H1F H 0.0000 0.2710 1.0285
H2F H 0.0000 0.1753 0.8873
Cs1A Cs 0.5000 0.483927(9) 0.2500
Cs1A_2 Cs 0.5000 0.483927(9) 1.2500
O1A O 0.2094(3) 0.58421(6) 1.00421(16)
O1B_2 O 0.7906(3) 0.41579(6) 0.50421(16)
O1H O 0.7906(3) 0.58421(6) 0.49579(16)
O1I_2 O 0.7906(3) 0.41579(6) 0.99579(16)
O1J O 0.2094(3) 0.58421(6) 0.49579(16)
O1N O 0.7906(3) 0.58421(6) 1.00421(16)
N1_2 N 1.0000 0.44525(13) 0.7500
Cs1_2 Cs -0.5000 0.516073(9) 0.7500
Cs1A_3 Cs -0.5000 0.483927(9) 0.2500
Cs1A_4 Cs -0.5000 0.483927(9) 1.2500
loop_
_geom_bond_atom_site_label_1
_geom_bond_atom_site_label_2
_geom_bond_site_symmetry_1
_geom_bond_site_symmetry_2
Cs1 O1 1_555 1_555
S1 O1 1_555 1_555
O1 Cs1A 1_555 1_555
N1 Cs1 1_555 1_555
C1 S1 1_555 1_555
C2 C1 1_555 1_555
H1 C2 1_555 1_555
C3 C2 1_555 1_555
H2 C3 1_555 1_555
O1B S1 1_555 1_555
S1F N1 1_555 1_555
O1F Cs1 1_555 1_555
O1I S1F 1_555 1_555
C1F C1 1_555 1_555
C3F C3 1_555 1_555
C2F C1F 1_555 1_555
H1F C2F 1_555 1_555
H2F C3F 1_555 1_555
Cs1A O1B_2 1_555 1_555
Cs1A_2 O1F 1_555 1_555
O1A Cs1 1_555 1_555
O1B_2 Cs1 1_555 1_555
O1H Cs1 1_555 1_555
O1I_2 Cs1 1_555 1_555
O1J Cs1 1_555 1_555
O1N Cs1 1_555 1_555
N1_2 Cs1 1_555 1_555
Cs1_2 N1 1_555 1_555
Cs1A_3 O1B 1_555 1_555
Cs1A_4 O1I 1_555 1_555
S1 N1 1_555 1_555
O1B Cs1_2 1_555 1_555
S1F O1F 1_555 1_555
S1F C1F 1_555 1_555
O1I Cs1_2 1_555 1_555
C3F C2F 1_555 1_555
Cs1A O1H 1_555 1_555
Cs1A O1J 1_555 1_555
Cs1A_2 O1A 1_555 1_555
Cs1A_2 O1I_2 1_555 1_555
Cs1A_2 O1N 1_555 1_555

#END
