
#######################################################################
#
#                 Cambridge Crystallographic Data Centre
#                                CCDC 
#
#######################################################################
#
# If this CIF has been generated from an entry in the Cambridge 
# Structural Database, then it will include bibliographic, chemical, 
# crystal, experimental, refinement or atomic coordinate data resulting 
# from the CCDC's data processing and validation procedures.
#
#######################################################################

data_VISHEK
_symmetry_cell_setting           triclinic
_symmetry_space_group_name_H-M   'P -1'
_symmetry_Int_Tables_number      2
_space_group_name_Hall           '-P 1'
loop_
_symmetry_equiv_pos_site_id
_symmetry_equiv_pos_as_xyz
1 x,y,z
2 -x,-y,-z
_cell_length_a                   9.388(2)
_cell_length_b                   9.800(4)
_cell_length_c                   10.701(3)
_cell_angle_alpha                73.56(3)
_cell_angle_beta                 75.79(2)
_cell_angle_gamma                89.50(3)
_cell_volume                     913.419
loop_
_atom_site_label
_atom_site_type_symbol
_atom_site_fract_x
_atom_site_fract_y
_atom_site_fract_z
I1 I 0.96335(4) 0.18552(4) 0.65545(4)
I2 I 1.17818(5) 0.16940(5) 0.96376(4)
I3 I 1.02321(5) 0.57315(4) 0.77782(4)
I4 I 0.69511(5) 0.23730(5) 1.03946(4)
Cu1 Cu 0.8316(1) 0.3576(1) 0.78706(9)
Cu2 Cu 0.9735(1) 0.3553(1) 0.99936(9)
Cu3 Cu 0.9251(1) 0.1006(1) 0.9182(1)
N1 N 0.6857(5) 0.4617(5) 0.6846(5)
N2 N 0.3191(6) 1.0320(5) 0.3647(5)
C1 C 0.5503(7) 0.4890(7) 0.7477(7)
C2 C 0.4671(7) 0.5888(7) 0.6830(6)
C3 C 0.5229(6) 0.6666(6) 0.5490(6)
C4 C 0.6575(7) 0.6322(7) 0.4820(7)
C5 C 0.7345(7) 0.5288(7) 0.5526(6)
C6 C 0.2867(7) 0.9783(8) 0.4998(7)
C7 C 0.3465(7) 0.8575(7) 0.5604(7)
C8 C 0.4466(6) 0.7880(6) 0.4837(6)
C9 C 0.4735(7) 0.8428(7) 0.3443(7)
C10 C 0.4096(7) 0.9631(7) 0.2873(7)
C11 C 0.2497(8) 1.1604(7) 0.3013(7)
H1 H 0.520(6) 0.426(6) 0.843(6)
H2 H 0.381(6) 0.618(6) 0.732(5)
H3 H 0.695(6) 0.704(6) 0.387(6)
H4 H 0.834(7) 0.495(7) 0.505(6)
H5 H 0.216(6) 1.025(6) 0.550(5)
H6 H 0.331(8) 0.824(8) 0.662(7)
H7 H 0.533(8) 0.803(8) 0.280(8)
H8 H 0.433(9) 0.995(8) 0.188(8)
Cu3A Cu 1.0749(1) -0.1006(1) 1.0818(1)
Cu2A Cu 1.0265(1) 0.6447(1) 1.00064(9)
I3A I 0.97679(5) 0.42685(4) 1.22218(4)
I2A I 0.82182(5) -0.16940(5) 1.03624(4)
loop_
_geom_bond_atom_site_label_1
_geom_bond_atom_site_label_2
_geom_bond_site_symmetry_1
_geom_bond_site_symmetry_2
I1 Cu1 1_555 1_555
I2 Cu2 1_555 1_555
I3 Cu1 1_555 1_555
I4 Cu1 1_555 1_555
Cu1 N1 1_555 1_555
Cu2 I3 1_555 1_555
Cu3 I1 1_555 1_555
N1 C1 1_555 1_555
N2 C6 1_555 1_555
C1 C2 1_555 1_555
C2 C3 1_555 1_555
C3 C4 1_555 1_555
C4 C5 1_555 1_555
C5 N1 1_555 1_555
C6 C7 1_555 1_555
C7 C8 1_555 1_555
C8 C3 1_555 1_555
C9 C8 1_555 1_555
C10 N2 1_555 1_555
C11 N2 1_555 1_555
H1 C1 1_555 1_555
H2 C2 1_555 1_555
H3 C4 1_555 1_555
H4 C5 1_555 1_555
H5 C6 1_555 1_555
H6 C7 1_555 1_555
H7 C9 1_555 1_555
H8 C10 1_555 1_555
Cu3A I2 1_555 1_555
Cu2A I3 1_555 1_555
I3A Cu2 1_555 1_555
I2A Cu3 1_555 1_555
I2 Cu3 1_555 1_555
I4 Cu2 1_555 1_555
I4 Cu3 1_555 1_555
C9 C10 1_555 1_555
Cu3A I2A 1_555 1_555
Cu2A I3A 1_555 1_555

#END
