
#######################################################################
#
#                 Cambridge Crystallographic Data Centre
#                                CCDC 
#
#######################################################################
#
# If this CIF has been generated from an entry in the Cambridge 
# Structural Database, then it will include bibliographic, chemical, 
# crystal, experimental, refinement or atomic coordinate data resulting 
# from the CCDC's data processing and validation procedures.
#
#######################################################################

data_VISHAG
_symmetry_cell_setting           rhombohedral
_symmetry_space_group_name_H-M   'R 3 c'
_symmetry_Int_Tables_number      161
_space_group_name_Hall           'R 3 -2"c'
loop_
_symmetry_equiv_pos_site_id
_symmetry_equiv_pos_as_xyz
1 x,y,z
2 1/3+x,2/3+y,2/3+z
3 2/3+x,1/3+y,1/3+z
4 -y,x-y,z
5 -x+y,-x,z
6 1/3-y,2/3+x-y,2/3+z
7 1/3-x+y,2/3-x,2/3+z
8 2/3-y,1/3+x-y,1/3+z
9 2/3-x+y,1/3-x,1/3+z
10 -y,-x,1/2+z
11 1/3-y,2/3-x,1/6+z
12 2/3-y,1/3-x,5/6+z
13 -x+y,y,1/2+z
14 x,x-y,1/2+z
15 1/3-x+y,2/3+y,1/6+z
16 1/3+x,2/3+x-y,1/6+z
17 2/3-x+y,1/3+y,5/6+z
18 2/3+x,1/3+x-y,5/6+z
_cell_length_a                   30.53(2)
_cell_length_b                   30.53(2)
_cell_length_c                   6.719(3)
_cell_angle_alpha                90
_cell_angle_beta                 90
_cell_angle_gamma                120
_cell_volume                     5423.62
loop_
_atom_site_label
_atom_site_type_symbol
_atom_site_fract_x
_atom_site_fract_y
_atom_site_fract_z
I1 I -0.08735(4) -0.00338(4) 0.24110
Cu1 Cu -0.00361(8) 0.07427(8) 0.3559(3)
N1 N -0.0061(6) 0.1375(5) 0.237(2)
C1 C -0.0481(6) 0.1343(7) 0.144(3)
C2 C -0.0486(7) 0.1781(6) 0.092(3)
N2 N -0.0093(6) 0.2225(6) 0.136(2)
C3 C 0.0324(7) 0.2271(6) 0.222(3)
C4 C 0.0346(6) 0.1843(6) 0.279(3)
C5 C -0.0101(6) 0.2705(5) 0.084(3)
Cu1C Cu -0.07427(8) -0.07788(11) 0.3559(3)
Cu1I Cu -0.07427(8) 0.00361(8) -0.1441(3)
I1D I 0.08397(6) 0.08735(4) 0.24110
I1I I 0.00338(4) 0.08735(4) 0.74110
I2 I 0.08846(4) 0.26976(4) -0.2598(2)
I3 I 0.24079(4) 0.38077(4) -0.2538(3)
Cu2 Cu 0.16423(9) 0.32600(9) -0.5058(5)
Cu2L Cu 0.16177(13) 0.32600(9) -0.0058(5)
Cu2L_2 Cu 0.16177(13) 0.32600(9) -1.0058(5)
I2L I 0.18130(6) 0.26976(4) -0.7598(2)
I3L I 0.13998(6) 0.38077(4) -0.7538(3)
loop_
_geom_bond_atom_site_label_1
_geom_bond_atom_site_label_2
_geom_bond_site_symmetry_1
_geom_bond_site_symmetry_2
I1 Cu1 1_555 1_555
I2 Cu2 1_555 1_555
I3 Cu2 1_555 1_555
Cu1 N1 1_555 1_555
Cu2 I2L 1_555 1_555
N1 C1 1_555 1_555
C1 C2 1_555 1_555
C2 N2 1_555 1_555
N2 C3 1_555 1_555
C3 C4 1_555 1_555
C4 N1 1_555 1_555
C5 N2 1_555 1_555
Cu1C I1 1_555 1_555
Cu1I I1 1_555 1_555
Cu2L I2 1_555 1_555
Cu2L_2 I2L 1_555 1_555
I1D Cu1 1_555 1_555
I1I Cu1 1_555 1_555
I3L Cu2 1_555 1_555
I3 Cu2L 1_555 1_555
Cu2L_2 I3L 1_555 1_555

#END
