
#######################################################################
#
#                 Cambridge Crystallographic Data Centre
#                                CCDC 
#
#######################################################################
#
# If this CIF has been generated from an entry in the Cambridge 
# Structural Database, then it will include bibliographic, chemical, 
# crystal, experimental, refinement or atomic coordinate data resulting 
# from the CCDC's data processing and validation procedures.
#
#######################################################################

data_VISMOA
_symmetry_cell_setting           monoclinic
_symmetry_space_group_name_H-M   'P 21/c'
_symmetry_Int_Tables_number      14
_space_group_name_Hall           '-P 2ybc'
loop_
_symmetry_equiv_pos_site_id
_symmetry_equiv_pos_as_xyz
1 x,y,z
2 -x,1/2+y,1/2-z
3 -x,-y,-z
4 x,1/2-y,1/2+z
_cell_length_a                   14.637(3)
_cell_length_b                   6.9126(14)
_cell_length_c                   22.169(4)
_cell_angle_alpha                90
_cell_angle_beta                 108.11(3)
_cell_angle_gamma                90
_cell_volume                     2131.94
loop_
_atom_site_label
_atom_site_type_symbol
_atom_site_fract_x
_atom_site_fract_y
_atom_site_fract_z
Tb1 Tb 0.06935(3) 0.15490(7) 0.28795(2)
Tb2 Tb 0.27050(3) 0.64736(8) 0.25668(2)
C1 C 0.1472(7) 0.1660(15) 0.4451(5)
C2 C 0.1520(7) 0.2049(16) 0.5077(5)
H1 H 0.2108 0.2064 0.5397
C3 C 0.0675(7) 0.2407(16) 0.5216(5)
C4 C -0.0199(7) 0.2385(15) 0.4720(5)
H2 H -0.0780 0.2624 0.4793
C5 C -0.0157(7) 0.1993(14) 0.4117(5)
C6 C 0.2348(7) 0.1184(16) 0.4254(5)
C7 C -0.1031(7) 0.1785(15) 0.3541(5)
C8 C 0.3971(7) 0.4236(14) 0.1766(5)
C9 C 0.4217(8) 0.2978(15) 0.1362(5)
H3 H 0.4696 0.3301 0.1185
C10 C 0.3739(7) 0.1214(16) 0.1222(5)
C11 C 0.3024(7) 0.0775(16) 0.1508(5)
H4 H 0.2693 -0.0393 0.1430
C12 C 0.2839(7) 0.2130(14) 0.1903(5)
C13 C 0.4432(7) 0.6212(16) 0.1946(5)
C14 C 0.2101(7) 0.1836(15) 0.2231(5)
N1 N 0.0653(6) 0.1660(12) 0.3973(4)
N2 N 0.3271(6) 0.3855(12) 0.2028(4)
O1 O 0.2182(5) 0.1134(10) 0.3653(3)
O2 O 0.3111(5) 0.0831(13) 0.4665(4)
O3 O -0.0886(4) 0.1658(10) 0.3006(3)
O4 O -0.1863(5) 0.1761(10) 0.3585(3)
O5 O 0.3995(5) 0.7331(10) 0.2225(3)
O6 O 0.5168(5) 0.6598(11) 0.1813(4)
O7 O 0.1838(5) 0.3326(10) 0.2477(3)
O8 O 0.1744(5) 0.0195(11) 0.2268(4)
O9 O 0.3961(5) 0.0048(11) 0.0815(4)
H5 H 0.3689 -0.0994 0.0805
O10 O 0.0720(5) 0.2754(12) 0.5821(3)
H6 H 0.0175 0.2881 0.5843
O11 O -0.0994(5) 0.1563(11) 0.0926(3)
O12 O -0.1977(4) 0.1655(10) 0.1613(3)
O13 O -0.0462(5) -0.0129(10) 0.1943(3)
O14 O -0.0438(4) 0.3230(10) 0.1936(3)
O15 O 0.3811(5) 0.4787(11) 0.3355(3)
H7 H 0.3698 0.3623 0.3432
H8 H 0.4333 0.5327 0.3569
O16 O 0.3456(5) 0.9059(10) 0.3232(3)
H9 H 0.4053 0.9715 0.3197
H10 H 0.3393 0.9237 0.3573
S1 S -0.10041(17) 0.1572(4) 0.15779(12)
Tb1A Tb -0.06935(3) 0.65490(7) 0.21205(2)
Tb1A_2 Tb -0.06935(3) -0.34510(7) 0.21205(2)
Tb2A Tb -0.27050(3) 0.14736(8) 0.24332(2)
O4A O 0.1863(5) 0.6761(10) 0.1415(3)
O12A O 0.1977(4) 0.6655(10) 0.3387(3)
O13A O 0.0462(5) 0.4871(10) 0.3057(3)
O14A O 0.0438(4) -0.1770(10) 0.3064(3)
O17 O 0.2870(6) 0.6971(13) 0.0526(4)
O18 O 0.4252(13) 0.527(3) 0.4594(8)
O19? O 0.4832(15) 0.893(3) 0.4902(10)
O20? O 0.4180(15) 0.653(4) 0.4512(10)
loop_
_geom_bond_atom_site_label_1
_geom_bond_atom_site_label_2
_geom_bond_site_symmetry_1
_geom_bond_site_symmetry_2
Tb1 N1 1_555 1_555
Tb2 N2 1_555 1_555
C1 C2 1_555 1_555
C2 H1 1_555 1_555
C3 C2 1_555 1_555
C4 C3 1_555 1_555
H2 C4 1_555 1_555
C5 C4 1_555 1_555
C6 C1 1_555 1_555
C7 C5 1_555 1_555
C8 C9 1_555 1_555
C9 H3 1_555 1_555
C10 C9 1_555 1_555
C11 C10 1_555 1_555
H4 C11 1_555 1_555
C12 C11 1_555 1_555
C13 C8 1_555 1_555
C14 C12 1_555 1_555
N1 C1 1_555 1_555
N2 C8 1_555 1_555
O1 Tb1 1_555 1_555
O2 C6 1_555 1_555
O3 Tb1 1_555 1_555
O4 C7 1_555 1_555
O5 Tb2 1_555 1_555
O6 C13 1_555 1_555
O7 Tb1 1_555 1_555
O8 Tb1 1_555 1_555
O9 C10 1_555 1_555
H5 O9 1_555 1_555
O10 C3 1_555 1_555
H6 O10 1_555 1_555
O11 S1 1_555 1_555
O12 S1 1_555 1_555
O13 Tb1 1_555 1_555
O14 Tb1 1_555 1_555
O15 Tb2 1_555 1_555
H7 O15 1_555 1_555
H8 O15 1_555 1_555
O16 Tb2 1_555 1_555
H9 O16 1_555 1_555
H10 O16 1_555 1_555
S1 O13 1_555 1_555
Tb1A O14 1_555 1_555
Tb1A_2 O13 1_555 1_555
Tb2A O4 1_555 1_555
O4A Tb2 1_555 1_555
O12A Tb2 1_555 1_555
O13A Tb1 1_555 1_555
O14A Tb1 1_555 1_555
Tb2 O7 1_555 1_555
C5 N1 1_555 1_555
C6 O1 1_555 1_555
C7 O3 1_555 1_555
C12 N2 1_555 1_555
C13 O5 1_555 1_555
C14 O7 1_555 1_555
C14 O8 1_555 1_555
O12 Tb2A 1_555 1_555
O14 S1 1_555 1_555
Tb1A O13A 1_555 1_555
Tb1A_2 O14A 1_555 1_555

#END
