
#######################################################################
#
#                 Cambridge Crystallographic Data Centre
#                                CCDC 
#
#######################################################################
#
# If this CIF has been generated from an entry in the Cambridge 
# Structural Database, then it will include bibliographic, chemical, 
# crystal, experimental, refinement or atomic coordinate data resulting 
# from the CCDC's data processing and validation procedures.
#
#######################################################################

data_VITFAG
_symmetry_cell_setting           orthorhombic
_symmetry_space_group_name_H-M   'P 21 21 2'
_symmetry_Int_Tables_number      18
_space_group_name_Hall           'P 2 2ab'
loop_
_symmetry_equiv_pos_site_id
_symmetry_equiv_pos_as_xyz
1 x,y,z
2 -x,-y,z
3 1/2-x,1/2+y,-z
4 1/2+x,1/2-y,-z
_cell_length_a                   16.0139(3)
_cell_length_b                   18.4185(4)
_cell_length_c                   6.39700(10)
_cell_angle_alpha                90
_cell_angle_beta                 90
_cell_angle_gamma                90
_cell_volume                     1886.81
loop_
_atom_site_label
_atom_site_type_symbol
_atom_site_fract_x
_atom_site_fract_y
_atom_site_fract_z
Mg1 Mg 0.76380(4) 0.87461(3) 0.55382(8)
O1 O 0.79328(8) 0.78362(7) 0.7248(2)
O2 O 0.76991(8) 0.46291(7) 0.62645(19)
O3 O 0.67231(8) 0.89964(7) 0.7706(2)
H1 H 0.6767(15) 0.8646(12) 0.840(4)
O4 O 0.67364(8) 0.81461(8) 0.3913(2)
H2 H 0.6866(16) 0.8028(13) 0.297(4)
O5 O 0.85663(8) 0.84803(8) 0.3461(2)
H3 H 0.8509(15) 0.8816(12) 0.282(4)
O6 O 0.85296(8) 0.93282(7) 0.7201(2)
H4 H 0.8385(15) 0.9428(14) 0.818(4)
O7 O 0.70485(8) 0.78352(7) 0.99176(19)
O8 O 0.67734(8) 0.45833(7) 0.8852(2)
C1 C 0.76270(11) 0.75455(10) 0.8848(3)
C2 C 0.79501(12) 0.67942(10) 0.9510(3)
C3 C 0.81812(15) 0.67978(13) 1.1818(3)
H5 H 0.7683(16) 0.6903(12) 1.276(4)
H6 H 0.8401(15) 0.6288(14) 1.231(4)
H7 H 0.8682(16) 0.7127(13) 1.205(4)
C4 C 0.74148(12) 0.48535(10) 0.7975(3)
C5 C 0.78262(12) 0.54879(10) 0.9074(3)
H8 H 0.7896(13) 0.5396(11) 1.062(3)
C6 C 0.86868(13) 0.57053(12) 0.8238(4)
H9 H 0.8776(14) 0.5500(12) 0.671(4)
H10 H 0.9076(14) 0.5480(12) 0.926(4)
C7 C 0.87124(13) 0.65372(12) 0.8228(4)
H11 H 0.8635(14) 0.6681(12) 0.676(4)
H12 H 0.9230(15) 0.6734(11) 0.880(4)
C8 C 0.72804(13) 0.61848(11) 0.8999(3)
C9 C 0.69296(14) 0.62920(12) 0.6811(3)
H13 H 0.6540(15) 0.5924(12) 0.651(4)
H14 H 0.6619(14) 0.6734(14) 0.667(3)
H15 H 0.7425(15) 0.6260(11) 0.580(3)
C10 C 0.65600(14) 0.61637(13) 1.0579(4)
H16 H 0.6741(15) 0.6038(12) 1.208(4)
H17 H 0.6236(15) 0.6642(14) 1.050(4)
H18 H 0.6119(15) 0.5784(13) 1.011(4)
C11 C 0.94041(12) 0.83416(11) 0.4080(3)
H19 H 0.9762(14) 0.8262(11) 0.293(4)
H20 H 0.9395(14) 0.7898(13) 0.482(4)
C12 C 0.97762(13) 0.89367(13) 0.5399(3)
H21 H 1.0328(17) 0.8825(12) 0.563(3)
H22 H 0.9759(14) 0.9419(14) 0.467(4)
C13 C 0.93557(13) 0.90466(13) 0.7501(3)
H23 H 0.9320(15) 0.8574(13) 0.817(4)
H24 H 0.9676(15) 0.9348(13) 0.832(4)
C14 C 0.58836(12) 0.83740(14) 0.3751(4)
H25 H 0.5577(15) 0.8024(13) 0.292(4)
H26 H 0.5833(15) 0.8852(13) 0.302(4)
C15 C 0.55135(13) 0.84786(13) 0.5899(3)
H27 H 0.4945(17) 0.8545(12) 0.571(3)
H28 H 0.5528(15) 0.8051(14) 0.672(4)
C16 C 0.58741(12) 0.91077(13) 0.7128(4)
H29 H 0.5838(14) 0.9537(13) 0.624(4)
H30 H 0.5527(15) 0.9193(11) 0.838(4)
Mg1B Mg 0.73620(4) 0.37461(3) 0.44618(8)
O2B O 0.73009(8) 0.96291(7) 0.37355(19)
loop_
_geom_bond_atom_site_label_1
_geom_bond_atom_site_label_2
_geom_bond_site_symmetry_1
_geom_bond_site_symmetry_2
Mg1 O1 1_555 1_555
O1 C1 1_555 1_555
O2 C4 1_555 1_555
O3 Mg1 1_555 1_555
H1 O3 1_555 1_555
O4 Mg1 1_555 1_555
H2 O4 1_555 1_555
O5 Mg1 1_555 1_555
H3 O5 1_555 1_555
O6 Mg1 1_555 1_555
H4 O6 1_555 1_555
O7 C1 1_555 1_555
O8 C4 1_555 1_555
C1 C2 1_555 1_555
C2 C3 1_555 1_555
C3 H5 1_555 1_555
H6 C3 1_555 1_555
H7 C3 1_555 1_555
C4 C5 1_555 1_555
C5 H8 1_555 1_555
C6 C5 1_555 1_555
H9 C6 1_555 1_555
H10 C6 1_555 1_555
C7 C2 1_555 1_555
H11 C7 1_555 1_555
H12 C7 1_555 1_555
C8 C2 1_555 1_555
C9 C8 1_555 1_555
H13 C9 1_555 1_555
H14 C9 1_555 1_555
H15 C9 1_555 1_555
C10 C8 1_555 1_555
H16 C10 1_555 1_555
H17 C10 1_555 1_555
H18 C10 1_555 1_555
C11 O5 1_555 1_555
H19 C11 1_555 1_555
H20 C11 1_555 1_555
C12 C11 1_555 1_555
H21 C12 1_555 1_555
H22 C12 1_555 1_555
C13 O6 1_555 1_555
H23 C13 1_555 1_555
H24 C13 1_555 1_555
C14 O4 1_555 1_555
H25 C14 1_555 1_555
H26 C14 1_555 1_555
C15 C14 1_555 1_555
H27 C15 1_555 1_555
H28 C15 1_555 1_555
C16 O3 1_555 1_555
H29 C16 1_555 1_555
H30 C16 1_555 1_555
Mg1B O2 1_555 1_555
O2B Mg1 1_555 1_555
C5 C8 1_555 1_555
C6 C7 1_555 1_555
C12 C13 1_555 1_555
C15 C16 1_555 1_555

#END
