
#######################################################################
#
#                 Cambridge Crystallographic Data Centre
#                                CCDC 
#
#######################################################################
#
# If this CIF has been generated from an entry in the Cambridge 
# Structural Database, then it will include bibliographic, chemical, 
# crystal, experimental, refinement or atomic coordinate data resulting 
# from the CCDC's data processing and validation procedures.
#
#######################################################################

data_VITGOW
_symmetry_cell_setting           monoclinic
_symmetry_space_group_name_H-M   'C 2/c'
_symmetry_Int_Tables_number      15
_space_group_name_Hall           '-C 2yn'
loop_
_symmetry_equiv_pos_site_id
_symmetry_equiv_pos_as_xyz
1 x,y,z
2 -x,y,1/2-z
3 1/2+x,1/2+y,z
4 1/2-x,1/2+y,1/2-z
5 -x,-y,-z
6 x,-y,1/2+z
7 1/2-x,1/2-y,-z
8 1/2+x,1/2-y,1/2+z
_cell_length_a                   24.7472(8)
_cell_length_b                   9.05351(17)
_cell_length_c                   14.5479(5)
_cell_angle_alpha                90
_cell_angle_beta                 124.736(5)
_cell_angle_gamma                90
_cell_volume                     2678.57
loop_
_atom_site_label
_atom_site_type_symbol
_atom_site_fract_x
_atom_site_fract_y
_atom_site_fract_z
Er1 Er -0.000320(6) 0.797674(14) 0.046091(10)
O1 O -0.05429(13) 0.6903(2) 0.1205(2)
H1 H -0.0384 0.6047 0.1460
H2 H -0.0487 0.7442 0.1733
O2 O 0.01786(10) 1.0693(2) 0.10667(17)
O3 O 0.05849(12) 0.9003(2) 0.23734(19)
C1 C 0.03622(16) 1.2701(3) 0.2905(3)
C2 C 0.07499(15) 1.1530(3) 0.2953(2)
C3 C 0.08686(14) 0.4799(3) 0.1482(2)
O4 O 0.39844(10) 0.3602(2) 0.41180(19)
O5 O 0.06058(11) 0.5990(2) 0.14770(19)
O6 O 0.05622(11) 0.3702(2) 0.08828(19)
O7 O 0.39946(11) 0.5881(2) 0.47273(19)
C4 C 0.04871(14) 1.0340(3) 0.2089(3)
C5 C 0.16731(17) 1.2696(4) 0.4558(3)
H3 H 0.2115 1.2708 0.5151
N1 N 0.06230(14) 1.3862(3) 0.3600(2)
C6 C 0.19396(16) 0.3712(4) 0.2030(3)
H4 H 0.1709 0.3043 0.1443
C7 C 0.37104(15) 0.4723(3) 0.4197(3)
C8 C 0.16025(15) 0.4709(3) 0.2259(3)
C9 C 0.26365(15) 0.5651(3) 0.3817(3)
H5 H 0.2869 0.6294 0.4421
C10 C 0.26195(17) 0.3720(4) 0.2678(3)
H6 H 0.2843 0.3061 0.2516
C11 C 0.19578(15) 0.5649(3) 0.3174(3)
H7 H 0.1736 0.6282 0.3355
C12 C 0.29740(15) 0.4694(3) 0.3563(3)
C13 C 0.12635(17) 1.3834(4) 0.4403(3)
H8 H 0.1445 1.4635 0.4888
C14 C 0.14134(16) 1.1527(4) 0.3810(3)
H9 H 0.1681 1.0750 0.3884
O2A O -0.01786(10) 1.0693(2) 0.39333(17)
O3A O -0.05849(12) 0.9003(2) 0.26266(19)
C1A C -0.03622(16) 1.2701(3) 0.2095(3)
C2A C -0.07499(15) 1.1530(3) 0.2047(2)
C4A C -0.04871(14) 1.0340(3) 0.2911(3)
C5A C -0.16731(17) 1.2696(4) 0.0442(3)
H3A H -0.2115 1.2708 -0.0151
N1A N -0.06230(14) 1.3862(3) 0.1400(2)
C13A C -0.12635(17) 1.3834(4) 0.0597(3)
H8A H -0.1445 1.4635 0.0112
C14A C -0.14134(16) 1.1527(4) 0.1190(3)
H9A H -0.1681 1.0750 0.1116
Er1A Er 0.000320(6) 0.797674(14) 0.453909(10)
O1A O 0.05429(13) 0.6903(2) 0.3795(2)
H1A H 0.0384 0.6047 0.3540
H2A H 0.0487 0.7442 0.3267
C3A C -0.08686(14) 0.4799(3) 0.3518(2)
O4A O -0.39844(10) 0.3602(2) 0.08820(19)
O5A O -0.06058(11) 0.5990(2) 0.35230(19)
O6A O -0.05622(11) 0.3702(2) 0.41172(19)
O7A O -0.39946(11) 0.5881(2) 0.02727(19)
C6A C -0.19396(16) 0.3712(4) 0.2970(3)
H4A H -0.1709 0.3043 0.3557
C7A C -0.37104(15) 0.4723(3) 0.0803(3)
C8A C -0.16025(15) 0.4709(3) 0.2741(3)
C9A C -0.26365(15) 0.5651(3) 0.1183(3)
H5A H -0.2869 0.6294 0.0579
C10A C -0.26195(17) 0.3720(4) 0.2322(3)
H6A H -0.2843 0.3061 0.2484
C11A C -0.19578(15) 0.5649(3) 0.1826(3)
H7A H -0.1736 0.6282 0.1645
C12A C -0.29740(15) 0.4694(3) 0.1437(3)
Er1B Er -0.500320(6) 0.297674(14) 0.046091(10)
Er1C Er 0.500320(6) 0.297674(14) 0.453909(10)
Er1D Er 0.000320(6) 0.202326(14) -0.046091(10)
Er1D_2 Er 0.000320(6) 1.202326(14) -0.046091(10)
Er1E Er -0.000320(6) 0.202326(14) 0.546091(10)
Er1E_2 Er -0.000320(6) 1.202326(14) 0.546091(10)
Er1F Er -0.499680(6) 0.702326(14) -0.046091(10)
Er1G Er 0.499680(6) 0.702326(14) 0.546091(10)
O2D O -0.01786(10) 0.9307(2) -0.10667(17)
O2E O 0.01786(10) 0.9307(2) 0.60667(17)
O4B O -0.10156(10) 0.8602(2) 0.41180(19)
O4C O 0.10156(10) 0.8602(2) 0.08820(19)
O6D O -0.05622(11) 0.6298(2) -0.08828(19)
O6E O 0.05622(11) 0.6298(2) 0.58828(19)
O7F O 0.10054(11) 0.9119(2) 0.52727(19)
O7G O -0.10054(11) 0.9119(2) -0.02727(19)
loop_
_geom_bond_atom_site_label_1
_geom_bond_atom_site_label_2
_geom_bond_site_symmetry_1
_geom_bond_site_symmetry_2
Er1 O1 1_555 1_555
O1 H1 1_555 1_555
H2 O1 1_555 1_555
O2 Er1 1_555 1_555
O3 Er1 1_555 1_555
C1 C2 1_555 1_555
C2 C4 1_555 1_555
C3 O5 1_555 1_555
O4 C7 1_555 1_555
O5 Er1 1_555 1_555
O6 C3 1_555 1_555
O7 C7 1_555 1_555
C4 O2 1_555 1_555
C5 H3 1_555 1_555
N1 C1 1_555 1_555
C6 H4 1_555 1_555
C7 C12 1_555 1_555
C8 C3 1_555 1_555
C9 H5 1_555 1_555
C10 C6 1_555 1_555
H6 C10 1_555 1_555
C11 C8 1_555 1_555
H7 C11 1_555 1_555
C12 C9 1_555 1_555
C13 C5 1_555 1_555
H8 C13 1_555 1_555
C14 C2 1_555 1_555
H9 C14 1_555 1_555
O2A C4A 1_555 1_555
O3A C4A 1_555 1_555
C1A C1 1_555 1_555
C2A C1A 1_555 1_555
C4A C2A 1_555 1_555
C5A H3A 1_555 1_555
N1A C1A 1_555 1_555
C13A C5A 1_555 1_555
H8A C13A 1_555 1_555
C14A C2A 1_555 1_555
H9A C14A 1_555 1_555
Er1A O2A 1_555 1_555
O1A Er1A 1_555 1_555
H1A O1A 1_555 1_555
H2A O1A 1_555 1_555
C3A O5A 1_555 1_555
O4A C7A 1_555 1_555
O5A Er1A 1_555 1_555
O6A C3A 1_555 1_555
O7A C7A 1_555 1_555
C6A H4A 1_555 1_555
C7A C12A 1_555 1_555
C8A C3A 1_555 1_555
C9A H5A 1_555 1_555
C10A C6A 1_555 1_555
H6A C10A 1_555 1_555
C11A C8A 1_555 1_555
H7A C11A 1_555 1_555
C12A C9A 1_555 1_555
Er1B O4A 1_555 1_555
Er1C O4 1_555 1_555
Er1D O6 1_555 1_555
Er1D_2 O2 1_555 1_555
Er1E O6A 1_555 1_555
Er1E_2 O2A 1_555 1_555
Er1F O7A 1_555 1_555
Er1G O7 1_555 1_555
O2D Er1 1_555 1_555
O2E Er1A 1_555 1_555
O4B Er1A 1_555 1_555
O4C Er1 1_555 1_555
O6D Er1 1_555 1_555
O6E Er1A 1_555 1_555
O7F Er1A 1_555 1_555
O7G Er1 1_555 1_555
O3 C4 1_555 1_555
C5 C14 1_555 1_555
N1 C13 1_555 1_555
C6 C8 1_555 1_555
C9 C11 1_555 1_555
C10 C12 1_555 1_555
O3A Er1A 1_555 1_555
C5A C14A 1_555 1_555
N1A C13A 1_555 1_555
C6A C8A 1_555 1_555
C9A C11A 1_555 1_555
C10A C12A 1_555 1_555
Er1D_2 O2D 1_555 1_555
Er1E_2 O2E 1_555 1_555

#END
