
#######################################################################
#
#                 Cambridge Crystallographic Data Centre
#                                CCDC 
#
#######################################################################
#
# If this CIF has been generated from an entry in the Cambridge 
# Structural Database, then it will include bibliographic, chemical, 
# crystal, experimental, refinement or atomic coordinate data resulting 
# from the CCDC's data processing and validation procedures.
#
#######################################################################

data_VITJUF
_symmetry_cell_setting           monoclinic
_symmetry_space_group_name_H-M   'P 21'
_symmetry_Int_Tables_number      4
_space_group_name_Hall           'P 2yb'
loop_
_symmetry_equiv_pos_site_id
_symmetry_equiv_pos_as_xyz
1 x,y,z
2 -x,1/2+y,-z
_cell_length_a                   10.6700(15)
_cell_length_b                   7.4055(11)
_cell_length_c                   14.410(2)
_cell_angle_alpha                90
_cell_angle_beta                 90.240(3)
_cell_angle_gamma                90
_cell_volume                     1138.62
loop_
_atom_site_label
_atom_site_type_symbol
_atom_site_fract_x
_atom_site_fract_y
_atom_site_fract_z
H1 H 0.6973 -0.5258 0.0336
H2 H 1.1983 0.0355 0.3829
H3 H 0.7198 -0.3956 0.0915
H4 H 1.1852 -0.0516 0.4489
Mn1 Mn 0.53724(9) -0.26344(12) -0.00371(6)
Mn2 Mn 1.03903(8) 0.21405(12) 0.49834(6)
O1 O 0.8343(4) 0.2298(7) 0.4764(3)
O2 O 1.0633(5) 0.3252(7) 0.3639(3)
O3 O 0.9078(4) -0.0331(7) 0.4391(3)
C1 C 0.6263(9) 0.3092(10) 0.3116(5)
H5 H 0.6949 0.3769 0.3372
H6 H 0.5531 0.3268 0.3490
H7 H 0.6096 0.3498 0.2495
C2 C 0.6604(6) 0.1074(9) 0.3099(4)
O4 O 1.2027(4) 0.0558(7) 0.4501(3)
C3 C 1.0266(6) 0.4678(10) 0.3269(4)
C4 C 0.8165(6) 0.0747(9) 0.4445(4)
C5 C 0.6866(6) 0.0227(9) 0.4080(4)
C6 C 0.5900(7) 0.0826(12) 0.4794(5)
H8 H 0.6108 0.0316 0.5388
H9 H 0.5084 0.0418 0.4606
H10 H 0.5901 0.2119 0.4838
O5 O 0.9768(5) 0.5967(8) 0.3717(3)
C7 C 0.5630(8) -0.1989(12) 0.3219(5)
H11 H 0.4875 -0.2344 0.3545
H12 H 0.5815 -0.2897 0.2754
C8 C 1.0421(6) 0.4967(10) 0.2230(5)
C9 C 0.6725(7) -0.1802(10) 0.3900(5)
H13 H 0.7486 -0.2292 0.3634
H14 H 0.6548 -0.2438 0.4473
C10 C 0.7741(7) 0.0806(11) 0.2470(4)
H15 H 0.7550 0.1246 0.1859
H16 H 0.7944 -0.0455 0.2439
H17 H 0.8443 0.1460 0.2719
O6 O 1.3362(5) 0.7481(7) 0.0221(4)
O7 O 1.4038(5) 0.4816(7) 0.0659(3)
O8 O 0.5719(5) -0.1527(8) 0.1286(3)
O9 O 0.4802(5) 0.1177(8) 0.1342(3)
C11 C 1.3154(6) 0.5961(10) 0.0592(4)
O10 O 0.6980(5) -0.4237(8) 0.0393(4)
C12 C 1.1845(7) 0.5567(11) 0.0955(5)
H18 H 1.1254 0.6313 0.0600
C13 C 0.5448(6) -0.0120(9) 0.2757(4)
H19 H 0.4684 0.0416 0.3013
C14 C 0.5305(6) -0.0169(10) 0.1718(4)
C15 C 1.2744(7) 0.5418(15) 0.2603(5)
H20 H 1.2897 0.4146 0.2539
H21 H 1.2532 0.5684 0.3235
H22 H 1.3484 0.6075 0.2434
C16 C 1.0641(11) 0.3120(17) 0.1685(7)
H23 H 1.1070 0.2254 0.2079
H24 H 0.9846 0.2606 0.1490
C17 C 1.1523 0.8209 0.2041
H25 H 1.1754 0.8750 0.1461
H26 H 1.2068 0.8644 0.2524
H27 H 1.0672 0.8521 0.2185
C18 C 1.1652 0.5974 0.1962
C19 C 0.9296 0.5879 0.1850
H28 H 0.8650 0.5897 0.2312
H29 H 0.9003 0.5237 0.1313
H30 H 0.9506 0.7095 0.1679
C20 C 1.1466 0.3593 0.0816
H31 H 1.2201 0.2823 0.0790
H32 H 1.0989 0.3447 0.0247
Mn1_2 Mn 1.53724(9) 0.73656(12) -0.00371(6)
Mn1A Mn 0.46276(9) 0.23656(12) 0.00371(6)
Mn1A_2 Mn 1.46276(9) 0.23656(12) 0.00371(6)
Mn2A Mn 0.96097(8) -0.28595(12) 0.50166(6)
Mn2A_2 Mn 0.96097(8) 0.71405(12) 0.50166(6)
O3A O 1.0922(4) 0.4669(7) 0.5609(3)
O5A O 1.0232(5) 0.0967(8) 0.6283(3)
O6_2 O 0.3362(5) -0.2519(7) 0.0221(4)
O7A O 0.5962(5) -0.0184(7) -0.0659(3)
O9A O 0.5198(5) -0.3823(8) -0.1342(3)
loop_
_geom_bond_atom_site_label_1
_geom_bond_atom_site_label_2
_geom_bond_site_symmetry_1
_geom_bond_site_symmetry_2
H1 O10 1_555 1_555
H2 O4 1_555 1_555
H3 O10 1_555 1_555
H4 O4 1_555 1_555
Mn1 O8 1_555 1_555
Mn2 O1 1_555 1_555
O1 C4 1_555 1_555
O2 Mn2 1_555 1_555
O3 Mn2 1_555 1_555
C1 H5 1_555 1_555
H6 C1 1_555 1_555
H7 C1 1_555 1_555
C2 C1 1_555 1_555
O4 Mn2 1_555 1_555
C3 O2 1_555 1_555
C4 O3 1_555 1_555
C5 C2 1_555 1_555
C6 C5 1_555 1_555
H8 C6 1_555 1_555
H9 C6 1_555 1_555
H10 C6 1_555 1_555
O5 C3 1_555 1_555
C7 H11 1_555 1_555
H12 C7 1_555 1_555
C8 C3 1_555 1_555
C9 C5 1_555 1_555
H13 C9 1_555 1_555
H14 C9 1_555 1_555
C10 C2 1_555 1_555
H15 C10 1_555 1_555
H16 C10 1_555 1_555
H17 C10 1_555 1_555
O6 C11 1_555 1_555
O7 C11 1_555 1_555
O8 C14 1_555 1_555
O9 C14 1_555 1_555
C11 C12 1_555 1_555
O10 Mn1 1_555 1_555
C12 H18 1_555 1_555
C13 C2 1_555 1_555
H19 C13 1_555 1_555
C14 C13 1_555 1_555
C15 H20 1_555 1_555
H21 C15 1_555 1_555
H22 C15 1_555 1_555
C16 C8 1_555 1_555
H23 C16 1_555 1_555
H24 C16 1_555 1_555
C17 H25 1_555 1_555
H26 C17 1_555 1_555
H27 C17 1_555 1_555
C18 C8 1_555 1_555
C19 C8 1_555 1_555
H28 C19 1_555 1_555
H29 C19 1_555 1_555
H30 C19 1_555 1_555
C20 C12 1_555 1_555
H31 C20 1_555 1_555
H32 C20 1_555 1_555
Mn1_2 O6 1_555 1_555
Mn1A O9 1_555 1_555
Mn1A_2 O7 1_555 1_555
Mn2A O3 1_555 1_555
Mn2A_2 O5 1_555 1_555
O3A Mn2 1_555 1_555
O5A Mn2 1_555 1_555
O6_2 Mn1 1_555 1_555
O7A Mn1 1_555 1_555
O9A Mn1 1_555 1_555
C4 C5 1_555 1_555
C7 C9 1_555 1_555
C7 C13 1_555 1_555
C12 C18 1_555 1_555
C15 C18 1_555 1_555
C16 C20 1_555 1_555
C17 C18 1_555 1_555
Mn2A_2 O3A 1_555 1_555

#END
