
#######################################################################
#
#                 Cambridge Crystallographic Data Centre
#                                CCDC 
#
#######################################################################
#
# If this CIF has been generated from an entry in the Cambridge 
# Structural Database, then it will include bibliographic, chemical, 
# crystal, experimental, refinement or atomic coordinate data resulting 
# from the CCDC's data processing and validation procedures.
#
#######################################################################

data_VITJIT
_symmetry_cell_setting           trigonal
_symmetry_space_group_name_H-M   'P 32 2 1'
_symmetry_Int_Tables_number      154
_space_group_name_Hall           'P 32 2"'
loop_
_symmetry_equiv_pos_site_id
_symmetry_equiv_pos_as_xyz
1 x,y,z
2 -y,x-y,2/3+z
3 -x+y,-x,1/3+z
4 y,x,-z
5 x-y,-y,1/3-z
6 -x,-x+y,2/3-z
_cell_length_a                   6.9146(6)
_cell_length_b                   6.9146(6)
_cell_length_c                   28.228(5)
_cell_angle_alpha                90
_cell_angle_beta                 90
_cell_angle_gamma                120
_cell_volume                     1168.81
loop_
_atom_site_label
_atom_site_type_symbol
_atom_site_fract_x
_atom_site_fract_y
_atom_site_fract_z
C1 C 0.0741 0.8158 0.1632
H1 H -0.0027 0.8042 0.1924
H2 H 0.0735 0.6787 0.1575
H3 H 0.0003 0.8441 0.1376
C2 C 0.3055 1.0000 0.1667
C3 C 0.6780 1.2113 0.1284
H4 H 0.6884 1.3457 0.1153
H5 H 0.7963 1.1884 0.1163
H6 H 0.0030 1.4112 0.0153
H7 H 0.1418 1.4870 0.0476
Ni1 Ni 0.23996(13) 1.23996(13) 0.0000
O1 O 0.3256(7) 1.1693(7) 0.06510(14)
O2 O 0.3074(9) 0.8469(8) 0.04734(18)
N1 N -0.0617(9) 0.9383(9) 0.0000
O3 O 0.0758(7) 1.3837(7) 0.03424(15)
C4 C -0.1731(10) 0.8496(10) 0.0400(2)
H8 H -0.1161 0.9250 0.0684
C5 C 0.4480(10) 1.0078(11) 0.1242(2)
C6 C 0.3513(10) 1.0067(11) 0.0753(2)
N2 N -0.4594(10) 0.5406(10) 0.0000
C7 C -0.3708(10) 0.6487(10) 0.0403(2)
H9 H -0.4428 0.5884 0.0689
C8 C 0.459(2) 0.804(2) 0.1418(4)
H10 H 0.5907 0.8089 0.1287
H11 H 0.3293 0.6701 0.1300
C1D C 0.2583 1.1842 0.1701
H1D H 0.1931 1.1958 0.1409
H2D H 0.3948 1.3213 0.1758
H3D H 0.1562 1.1559 0.1957
C3D C 0.4667 0.7887 0.2049
H4D H 0.3427 0.6543 0.2180
H5D H 0.6079 0.8116 0.2170
O1D O 0.1563(10) 0.8307(7) 0.26823(14)
O2D O 0.4605(12) 1.1531(8) 0.28599(18)
C5D C 0.4402(15) 0.9922(11) 0.2091(2)
C6D C 0.3446(15) 0.9933(11) 0.2580(2)
C8D C 0.655(3) 1.196(2) 0.1915(4)
H10D H 0.7818 1.1911 0.2046
H11D H 0.6592 1.3299 0.2033
C4C C -0.1504(10) 0.8269(10) -0.0400(2)
H8C H -0.0750 0.8839 -0.0684
C7C C -0.3513(10) 0.6292(10) -0.0403(2)
H9C H -0.4116 0.5572 -0.0689
H6C H 0.4112 1.0030 -0.0153
H7C H 0.4870 1.1418 -0.0476
O3C O 0.3837(7) 1.0758(7) -0.03424(15)
Ni1_2 Ni -0.76004(13) 0.23996(13) 0.0000
Ni1B Ni 0.00000(18) 0.76004(13) 0.3333
O1C O 0.1693(7) 1.3256(7) -0.06510(14)
N2_2 N 0.5406(10) 1.5406(10) 0.0000
loop_
_geom_bond_atom_site_label_1
_geom_bond_atom_site_label_2
_geom_bond_site_symmetry_1
_geom_bond_site_symmetry_2
C1 H1 1_555 1_555
H2 C1 1_555 1_555
H3 C1 1_555 1_555
C2 C1 1_555 1_555
C3 H4 1_555 1_555
H5 C3 1_555 1_555
H6 O3 1_555 1_555
H7 O3 1_555 1_555
Ni1 O1 1_555 1_555
O1 C6 1_555 1_555
O2 C6 1_555 1_555
N1 Ni1 1_555 1_555
O3 Ni1 1_555 1_555
C4 N1 1_555 1_555
H8 C4 1_555 1_555
C5 C2 1_555 1_555
C6 C5 1_555 1_555
N2 C7 1_555 1_555
C7 C4 1_555 1_555
H9 C7 1_555 1_555
C8 C5 1_555 1_555
H10 C8 1_555 1_555
H11 C8 1_555 1_555
C1D C2 1_555 1_555
H1D C1D 1_555 1_555
H2D C1D 1_555 1_555
H3D C1D 1_555 1_555
C3D C8 1_555 1_555
H4D C3D 1_555 1_555
H5D C3D 1_555 1_555
O1D C6D 1_555 1_555
O2D C6D 1_555 1_555
C5D C2 1_555 1_555
C6D C5D 1_555 1_555
C8D C3 1_555 1_555
H10D C8D 1_555 1_555
H11D C8D 1_555 1_555
C4C N1 1_555 1_555
H8C C4C 1_555 1_555
C7C N2 1_555 1_555
H9C C7C 1_555 1_555
H6C O3C 1_555 1_555
H7C O3C 1_555 1_555
O3C Ni1 1_555 1_555
Ni1_2 N2 1_555 1_555
Ni1B O1D 1_555 1_555
O1C Ni1 1_555 1_555
N2_2 Ni1 1_555 1_555
C3 C5 1_555 1_555
C3D C5D 1_555 1_555
C5D C8D 1_555 1_555
C4C C7C 1_555 1_555

#END
