
#######################################################################
#
#                 Cambridge Crystallographic Data Centre
#                                CCDC 
#
#######################################################################
#
# If this CIF has been generated from an entry in the Cambridge 
# Structural Database, then it will include bibliographic, chemical, 
# crystal, experimental, refinement or atomic coordinate data resulting 
# from the CCDC's data processing and validation procedures.
#
#######################################################################

data_VITKUG
_symmetry_cell_setting           monoclinic
_symmetry_space_group_name_H-M   'P 2/c'
_symmetry_Int_Tables_number      13
_space_group_name_Hall           '-P 2yc'
loop_
_symmetry_equiv_pos_site_id
_symmetry_equiv_pos_as_xyz
1 x,y,z
2 -x,y,1/2-z
3 -x,-y,-z
4 x,-y,1/2+z
_cell_length_a                   11.5934(11)
_cell_length_b                   10.5944(7)
_cell_length_c                   15.822(2)
_cell_angle_alpha                90
_cell_angle_beta                 106.130(11)
_cell_angle_gamma                90
_cell_volume                     1866.84
loop_
_atom_site_label
_atom_site_type_symbol
_atom_site_fract_x
_atom_site_fract_y
_atom_site_fract_z
Cu1 Cu 0.01480(4) 0.63677(4) 0.00079(3)
Cu2 Cu 0.14067(4) 0.49758(4) 0.18562(3)
C1 C 0.0170(3) 0.1110(3) 0.2105(2)
C2 C 0.0176(3) -0.1183(3) 0.2108(2)
C3 C 0.0327(3) -0.0032(4) 0.1729(2)
C4 C 0.0387(3) 0.2308(3) 0.1667(2)
C5 C 0.0438(3) -0.2364(3) 0.1659(2)
O1 O 0.1042(2) 0.3137(2) 0.2120(2)
O2 O -0.0105(3) 0.2332(3) 0.0848(2)
O3 O 0.1082(2) -0.3195(2) 0.2107(2)
O4 O 0.0005(2) -0.2339(2) 0.0828(2)
O5 O 0.0058(2) 0.5016(2) 0.08290(14)
H1 H 0.0541(35) -0.0045(39) 0.1206(27)
H2 H -0.0613(25) 0.5050(48) 0.0994(30)
C6 C 0.3925(3) 0.4956(4) -0.0674(2)
C7 C 0.3897(3) 0.5059(4) 0.0200(2)
C8 C 0.4973(3) 0.5102(4) 0.0865(2)
C9 C 0.2783(3) 0.4828(4) -0.1407(2)
C10 C 0.2754(3) 0.5233(4) 0.0479(2)
O6 O 0.2842(2) 0.5125(3) -0.2173(2)
O7 O 0.1882(2) 0.4422(4) -0.1224(2)
O8 O 0.2520(2) 0.4405(3) 0.0975(2)
O9 O 0.2173(2) 0.6228(3) 0.0255(2)
H3 H 0.4990(34) 0.5203(38) 0.1481(26)
C1A C -0.0170(3) 0.1110(3) 0.2895(2)
C2A C -0.0176(3) -0.1183(3) 0.2892(2)
C3A C -0.0327(3) -0.0032(4) 0.3271(2)
C4A C -0.0387(3) 0.2308(3) 0.3333(2)
C5A C -0.0438(3) -0.2364(3) 0.3341(2)
O1A O -0.1042(2) 0.3137(2) 0.2880(2)
O2A O 0.0105(3) 0.2332(3) 0.4152(2)
O3A O -0.1082(2) -0.3195(2) 0.2893(2)
O4A O -0.0005(2) -0.2339(2) 0.4172(2)
H1A H -0.0541(35) -0.0045(39) 0.3794(27)
C6B C 0.6075(3) 0.5044(4) 0.0674(2)
C7B C 0.6103(3) 0.4941(4) -0.0200(2)
C8B C 0.5027(3) 0.4898(4) -0.0865(2)
C9B C 0.7217(3) 0.5172(4) 0.1407(2)
C10B C 0.7246(3) 0.4767(4) -0.0479(2)
O6B O 0.7158(2) 0.4875(3) 0.2173(2)
O7B O 0.8118(2) 0.5578(4) 0.1224(2)
O8B O 0.7480(2) 0.5595(3) -0.0975(2)
O9B O 0.7827(2) 0.3772(3) -0.0255(2)
H3B H 0.5010(34) 0.4797(38) -0.1481(26)
Cu1B Cu -0.01480(4) 0.36323(4) -0.00079(3)
Cu2B Cu -0.14067(4) 0.50242(4) -0.18562(3)
O5B O -0.0058(2) 0.4984(2) -0.08290(14)
H2B H 0.0613(25) 0.4950(48) -0.0994(30)
Cu1_2 Cu 0.01480(4) -0.36323(4) 0.00079(3)
Cu1C Cu 0.01480(4) 0.36323(4) 0.50079(3)
Cu1B_2 Cu 0.98520(4) 0.36323(4) -0.00079(3)
Cu1A Cu -0.01480(4) -0.36323(4) 0.49921(3)
Cu2_2 Cu 0.14067(4) -0.50242(4) 0.18562(3)
Cu2C Cu 0.14067(4) 0.50242(4) -0.31438(3)
Cu2B_2 Cu 0.85933(4) 0.50242(4) -0.18562(3)
Cu2A Cu -0.14067(4) -0.50242(4) 0.31438(3)
Cu2A_2 Cu -0.14067(4) 0.49758(4) 0.31438(3)
Cu2A_3 Cu 0.85933(4) 0.49758(4) 0.31438(3)
O1B O -0.1042(2) 0.6863(2) -0.2120(2)
O2B O 0.0105(3) 0.7668(3) -0.0848(2)
O3_2 O 0.1082(2) 0.6805(2) 0.2107(2)
O3B O -0.1082(2) 0.3195(2) -0.2107(2)
O4_2 O 0.0005(2) 0.7661(2) 0.0828(2)
O4B O -0.0005(2) 0.2339(2) -0.0828(2)
O6C O 0.2842(2) 0.4875(3) 0.2827(2)
O6A O -0.2842(2) 0.5125(3) -0.2827(2)
O8B_2 O -0.2520(2) 0.5595(3) -0.0975(2)
O9B_2 O -0.2173(2) 0.3772(3) -0.0255(2)
N1 N -0.2916(4) 0.1477(5) 0.0275(3)
C11 C -0.4065(6) 0.1402(7) -0.0430(5)
C12 C -0.3875(7) 0.1388(6) -0.1329(5)
C13 C -0.5084(9) 0.1354(8) -0.2041(6)
H4 H -0.3030(55) 0.1485(62) 0.0818(18)
H5 H -0.2541(50) 0.2160(36) 0.0132(39)
H6 H -0.2533(51) 0.0744(32) 0.0243(42)
H7 H -0.4509(63) 0.2077(49) -0.0369(55)
H8 H -0.4447(67) 0.0691(45) -0.0343(55)
H9 H -0.3469(67) 0.0705(51) -0.1434(55)
H10 H -0.3572(70) 0.2134(40) -0.1443(54)
H11 H -0.5481(68) 0.0652(48) -0.1954(55)
H12 H -0.5463(67) 0.2105(40) -0.2058(56)
N1A N -0.7084(4) 0.1477(5) -0.5275(3)
C11A C -0.5935(6) 0.1402(7) -0.4570(5)
C12A C -0.6125(7) 0.1388(6) -0.3671(5)
C13A C -0.4916(9) 0.1354(8) -0.2959(6)
H4A H -0.6970(55) 0.1485(62) -0.5818(18)
H5A H -0.7459(50) 0.2160(36) -0.5132(39)
H6A H -0.7467(51) 0.0744(32) -0.5243(42)
H7A H -0.5491(63) 0.2077(49) -0.4631(55)
H8A H -0.5553(67) 0.0691(45) -0.4657(55)
H9A H -0.6531(67) 0.0705(51) -0.3566(55)
H10A H -0.6428(70) 0.2134(40) -0.3557(54)
H11A H -0.4519(68) 0.0652(48) -0.3046(55)
H12A H -0.4537(67) 0.2105(40) -0.2942(56)
O10 O -0.3736(4) 0.7835(4) -0.1356(3)
H13 H -0.3717(87) 0.7798(99) -0.1920(21)
H14 H -0.3384(80) 0.7077(43) -0.1213(64)
O11 O 0.3668(4) 0.2165(5) 0.3171(3)
H15 H 0.3268(77) 0.2901(48) 0.3133(64)
H16 H 0.4359(47) 0.2056(97) 0.3594(46)
O12 O 0.2059(6) 0.0845(6) -0.0006(4)
H17 H 0.1453(60) 0.1319(79) -0.0326(55)
H18 H 0.2643(65) 0.1409(73) 0.0223(63)
loop_
_geom_bond_atom_site_label_1
_geom_bond_atom_site_label_2
_geom_bond_site_symmetry_1
_geom_bond_site_symmetry_2
Cu1 O5 1_555 1_555
Cu2 O1 1_555 1_555
C1 C3 1_555 1_555
C2 C3 1_555 1_555
C3 H1 1_555 1_555
C4 C1 1_555 1_555
C5 C2 1_555 1_555
O1 C4 1_555 1_555
O2 C4 1_555 1_555
O3 C5 1_555 1_555
O4 C5 1_555 1_555
O5 Cu2 1_555 1_555
H2 O5 1_555 1_555
C6 C7 1_555 1_555
C7 C8 1_555 1_555
C8 H3 1_555 1_555
C9 C6 1_555 1_555
C10 C7 1_555 1_555
O6 C9 1_555 1_555
O7 C9 1_555 1_555
O8 Cu2 1_555 1_555
O9 Cu1 1_555 1_555
N1 C11 1_555 1_555
C11 C12 1_555 1_555
C12 C13 1_555 1_555
C13 H11 1_555 1_555
H4 N1 1_555 1_555
H5 N1 1_555 1_555
H6 N1 1_555 1_555
H7 C11 1_555 1_555
H8 C11 1_555 1_555
H9 C12 1_555 1_555
H10 C12 1_555 1_555
H12 C13 1_555 1_555
O10 H13 1_555 1_555
H14 O10 1_555 1_555
O11 H15 1_555 1_555
H16 O11 1_555 1_555
O12 H17 1_555 1_555
H18 O12 1_555 1_555
C1A C1 1_555 1_555
C2A C2 1_555 1_555
C3A C1A 1_555 1_555
C4A C1A 1_555 1_555
C5A C2A 1_555 1_555
O1A C4A 1_555 1_555
O2A C4A 1_555 1_555
O3A C5A 1_555 1_555
O4A C5A 1_555 1_555
H1A C3A 1_555 1_555
C6B C8 1_555 1_555
C7B C6B 1_555 1_555
C8B C6 1_555 1_555
C9B C6B 1_555 1_555
C10B C7B 1_555 1_555
O6B C9B 1_555 1_555
O7B C9B 1_555 1_555
O8B C10B 1_555 1_555
O9B C10B 1_555 1_555
H3B C8B 1_555 1_555
Cu1B O2 1_555 1_555
Cu2B O5B 1_555 1_555
O5B Cu1 1_555 1_555
H2B O5B 1_555 1_555
Cu1_2 O4 1_555 1_555
Cu1C O2A 1_555 1_555
Cu1B_2 O9B 1_555 1_555
Cu1A O4A 1_555 1_555
Cu2_2 O3 1_555 1_555
Cu2C O6 1_555 1_555
Cu2B_2 O8B 1_555 1_555
Cu2A O3A 1_555 1_555
Cu2A_2 O1A 1_555 1_555
Cu2A_3 O6B 1_555 1_555
O1B Cu2B 1_555 1_555
O2B Cu1 1_555 1_555
O3_2 Cu2 1_555 1_555
O3B Cu2B 1_555 1_555
O4_2 Cu1 1_555 1_555
O4B Cu1B 1_555 1_555
O6C Cu2 1_555 1_555
O6A Cu2B 1_555 1_555
O8B_2 Cu2B 1_555 1_555
O9B_2 Cu1B 1_555 1_555
N1A C11A 1_555 1_555
C11A C12A 1_555 1_555
C12A C13A 1_555 1_555
C13A C13 1_555 1_555
H4A N1A 1_555 1_555
H5A N1A 1_555 1_555
H6A N1A 1_555 1_555
H7A C11A 1_555 1_555
H8A C11A 1_555 1_555
H9A C12A 1_555 1_555
H10A C12A 1_555 1_555
H11A C13A 1_555 1_555
H12A C13A 1_555 1_555
O5 Cu1B 1_555 1_555
C10 O8 1_555 1_555
C10 O9 1_555 1_555
C2A C3A 1_555 1_555
C7B C8B 1_555 1_555
Cu1B O5B 1_555 1_555

#END
