
#######################################################################
#
#                 Cambridge Crystallographic Data Centre
#                                CCDC 
#
#######################################################################
#
# If this CIF has been generated from an entry in the Cambridge 
# Structural Database, then it will include bibliographic, chemical, 
# crystal, experimental, refinement or atomic coordinate data resulting 
# from the CCDC's data processing and validation procedures.
#
#######################################################################

data_VITNIX
_symmetry_cell_setting           triclinic
_symmetry_space_group_name_H-M   'P -1'
_symmetry_Int_Tables_number      2
_space_group_name_Hall           '-P 1'
loop_
_symmetry_equiv_pos_site_id
_symmetry_equiv_pos_as_xyz
1 x,y,z
2 -x,-y,-z
_cell_length_a                   11.303(4)
_cell_length_b                   14.935(5)
_cell_length_c                   16.547(5)
_cell_angle_alpha                92.596(6)
_cell_angle_beta                 92.460(5)
_cell_angle_gamma                102.299(5)
_cell_volume                     2722.44
loop_
_atom_site_label
_atom_site_type_symbol
_atom_site_fract_x
_atom_site_fract_y
_atom_site_fract_z
P2 P 0.3260(4) 0.5461(3) 0.1198(2)
P3 P 0.1399(4) 0.3599(3) -0.0105(3)
Cu1 Cu 0.1933(2) 0.35810(18) 0.18530(13)
Cu2 Cu 0.3790(2) 0.50151(14) -0.06014(11)
Cu3 Cu 0.1264(2) 0.56332(14) -0.01740(12)
O23 O 0.4139(12) 0.5339(8) 0.0536(7)
O24 O 0.4014(13) 0.6361(10) 0.1688(8)
H1 H 0.3623 0.6497 0.2063
O25 O 0.3098(12) 0.4701(10) 0.1772(7)
O26 O 0.2098(12) 0.5650(8) 0.0877(7)
O27 O 0.2611(12) 0.3918(9) -0.0454(8)
O28 O 0.1480(14) 0.3343(10) 0.0755(8)
O29 O 0.0709(14) 0.2681(9) -0.0563(9)
H2 H 0.0624 0.2765 -0.1047
O30 O 0.0601(11) 0.4290(8) -0.0202(7)
C1 C 0.243(2) 0.7569(14) 0.0320(12)
H3 H 0.2311 0.7384 0.0845
C2 C 0.303(2) 0.8475(15) 0.0224(14)
C3 C 0.314(2) 0.8750(14) -0.0562(13)
H4 H 0.3555 0.9339 -0.0666
C4 C 0.262(2) 0.8109(13) -0.1202(12)
H5 H 0.2644 0.8292 -0.1732
C5 C 0.2091(18) 0.7234(12) -0.1056(10)
C6 C 0.1545(18) 0.6503(12) -0.1673(10)
C7 C 0.1543(19) 0.6599(14) -0.2496(11)
H6 H 0.1887 0.7158 -0.2702
C8 C 0.102(2) 0.5847(15) -0.3014(12)
H7 H 0.1035 0.5903 -0.3571
C9 C 0.0481(18) 0.5039(13) -0.2725(11)
C10 C 0.0498(17) 0.4974(13) -0.1905(11)
H8 H 0.0121 0.4423 -0.1698
C11 C -0.007(2) 0.4210(15) -0.3259(12)
H9 H 0.0147 0.4315 -0.3806
H10 H -0.0941 0.4093 -0.3238
H11 H 0.0215 0.3690 -0.3077
C12 C 0.356(2) 0.9109(14) 0.0935(13)
H12 H 0.4257 0.9543 0.0775
H13 H 0.3809 0.8759 0.1360
H14 H 0.2971 0.9430 0.1126
C13 C 0.525(2) 0.6950(14) -0.0424(12)
H15 H 0.5163 0.6887 0.0128
C14 C 0.596(2) 0.7772(15) -0.0653(15)
C15 C 0.601(2) 0.7846(17) -0.1492(15)
H16 H 0.6446 0.8377 -0.1700
C16 C 0.540(2) 0.7120(17) -0.2015(14)
H17 H 0.5405 0.7184 -0.2571
C17 C 0.4776(18) 0.6296(15) -0.1719(11)
C18 C 0.4247(19) 0.5485(15) -0.2216(10)
C19 C 0.4367(19) 0.5334(17) -0.3053(12)
H18 H 0.4754 0.5800 -0.3366
C20 C 0.388(2) 0.4457(18) -0.3389(13)
H19 H 0.3992 0.4346 -0.3935
C21 C 0.327(2) 0.3760(17) -0.2996(12)
C22 C 0.3210(18) 0.3972(15) -0.2175(12)
H20 H 0.2803 0.3510 -0.1867
C23 C 0.275(2) 0.2775(16) -0.3299(13)
H21 H 0.2139 0.2497 -0.2945
H22 H 0.3381 0.2439 -0.3307
H23 H 0.2388 0.2767 -0.3837
C24 C 0.664(2) 0.8475(17) -0.0075(15)
H24 H 0.7490 0.8477 -0.0088
H25 H 0.6374 0.8349 0.0459
H26 H 0.6506 0.9064 -0.0214
C25 C 0.0507(19) 0.1657(16) 0.1548(13)
H27 H 0.0573 0.1772 0.1002
C26 C -0.0134(19) 0.0788(16) 0.1756(13)
C27 C -0.0210(18) 0.0665(15) 0.2607(13)
H28 H -0.0566 0.0093 0.2785
C28 C 0.0215(17) 0.1349(15) 0.3141(12)
H29 H 0.0088 0.1274 0.3687
C29 C 0.0856(17) 0.2188(14) 0.2893(12)
C30 C 0.1415(16) 0.3000(13) 0.3423(11)
C31 C 0.1287(18) 0.3066(15) 0.4272(12)
H30 H 0.0878 0.2565 0.4536
C32 C 0.1784(19) 0.3893(16) 0.4703(13)
H31 H 0.1742 0.3939 0.5263
C33 C 0.234(2) 0.4648(16) 0.4298(12)
C34 C 0.2440(19) 0.4542(16) 0.3497(12)
H32 H 0.2854 0.5042 0.3233
C35 C 0.283(2) 0.5573(16) 0.4752(13)
H33 H 0.2681 0.5522 0.5317
H34 H 0.2430 0.6024 0.4537
H35 H 0.3686 0.5757 0.4689
C36 C -0.059(2) 0.0059(16) 0.1125(13)
H36 H -0.0440 -0.0512 0.1303
H37 H -0.0181 0.0207 0.0636
H38 H -0.1446 0.0003 0.1024
N1 N 0.2007(15) 0.6958(11) -0.0283(9)
N2 N 0.1041(14) 0.5676(10) -0.1382(9)
N3 N 0.4672(15) 0.6248(11) -0.0916(9)
N4 N 0.3692(15) 0.4793(12) -0.1784(9)
N5 N 0.1014(16) 0.2313(12) 0.2089(10)
N6 N 0.1979(15) 0.3760(12) 0.3049(10)
Cu2A Cu 0.6210(2) 0.49849(14) 0.06014(11)
Cu3A Cu -0.1264(2) 0.43668(14) 0.01740(12)
O23A O 0.5861(12) 0.4661(8) -0.0536(7)
O30A O -0.0601(11) 0.5710(8) 0.0202(7)
O31 O 0.0357(18) 0.8295(18) 0.3539(15)
O32 O 0.062(3) 0.762(2) 0.1993(13)
W1 W 0.67830(8) -0.03275(7) 0.67332(5)
W2 W 0.61474(7) -0.01070(5) 0.30305(4)
W3 W 0.62259(7) 0.18872(5) 0.63868(5)
W4 W 0.54739(9) -0.22204(6) 0.53916(5)
W5 W 0.74260(7) 0.17364(6) 0.44409(5)
W6 W 0.78795(7) -0.05109(5) 0.47618(4)
P1 P 0.5000 0.0000 0.5000
O1 O 0.561(2) 0.1002(15) 0.5061(12)
O2 O 0.606(2) 0.0203(14) 0.4533(12)
O3 O 0.596(2) -0.0527(14) 0.5328(12)
O4 O 0.474(2) -0.0292(15) 0.4120(12)
O5 O 0.3911(14) -0.2315(12) 0.5742(8)
O6 O 0.7598(12) -0.0437(10) 0.7560(8)
O7 O 0.5280(12) -0.0337(10) 0.7182(11)
O8 O 0.7925(14) -0.0261(10) 0.5920(8)
O9 O 0.6928(15) -0.1656(10) 0.4916(8)
O10 O 0.5703(13) -0.3267(9) 0.5543(8)
O11 O 0.9194(15) -0.0775(10) 0.4652(9)
O12 O 0.7287(13) -0.0574(9) 0.3687(8)
O13 O 0.5110(14) -0.1319(10) 0.3068(10)
O14 O 0.8235(13) 0.0786(8) 0.4702(7)
O15 O 0.6688(13) -0.0175(9) 0.2120(7)
O16 O 0.6960(13) 0.1073(8) 0.3428(7)
O17 O 0.8578(13) 0.2559(9) 0.4203(8)
O18 O 0.5224(14) 0.2369(12) 0.5684(9)
O19 O 0.6835(11) 0.2786(9) 0.7028(8)
O20 O 0.7382(14) 0.2029(11) 0.5555(8)
O21 O 0.7005(13) 0.0952(10) 0.6736(10)
O22 O 0.6092(15) -0.1561(10) 0.6361(9)
O1A O 0.439(2) -0.1002(15) 0.4939(12)
O2A O 0.394(2) -0.0203(14) 0.5467(12)
O3A O 0.404(2) 0.0527(14) 0.4672(12)
O4A O 0.526(2) 0.0292(15) 0.5880(12)
W1A W 0.32170(8) 0.03275(7) 0.32668(5)
W2A W 0.38526(7) 0.01070(5) 0.69695(4)
W3A W 0.37741(7) -0.18872(5) 0.36132(5)
W4A W 0.45261(9) 0.22204(6) 0.46084(5)
W5A W 0.25740(7) -0.17364(6) 0.55591(5)
W6A W 0.21205(7) 0.05109(5) 0.52382(4)
O5A O 0.6089(14) 0.2315(12) 0.4258(8)
O6A O 0.2402(12) 0.0437(10) 0.2440(8)
O7A O 0.4720(12) 0.0337(10) 0.2818(11)
O8A O 0.2075(14) 0.0261(10) 0.4080(8)
O9A O 0.3072(15) 0.1656(10) 0.5084(8)
O10A O 0.4297(13) 0.3267(9) 0.4457(8)
O11A O 0.0806(15) 0.0775(10) 0.5348(9)
O12A O 0.2713(13) 0.0574(9) 0.6313(8)
O13A O 0.4890(14) 0.1319(10) 0.6932(10)
O14A O 0.1765(13) -0.0786(8) 0.5298(7)
O15A O 0.3312(13) 0.0175(9) 0.7880(7)
O16A O 0.3040(13) -0.1073(8) 0.6572(7)
O17A O 0.1422(13) -0.2559(9) 0.5797(8)
O18A O 0.4776(14) -0.2369(12) 0.4316(9)
O19A O 0.3165(11) -0.2786(9) 0.2972(8)
O20A O 0.2618(14) -0.2029(11) 0.4445(8)
O21A O 0.2995(13) -0.0952(10) 0.3264(10)
O22A O 0.3908(15) 0.1561(10) 0.3639(9)
loop_
_geom_bond_atom_site_label_1
_geom_bond_atom_site_label_2
_geom_bond_site_symmetry_1
_geom_bond_site_symmetry_2
W1 O3 1_555 1_555
W2 O4 1_555 1_555
W3 O18 1_555 1_555
W4 O3 1_555 1_555
W5 O1 1_555 1_555
W6 O3 1_555 1_555
P1 O1 1_555 1_555
O1 O2 1_555 1_555
O2 W5 1_555 1_555
O3 P1 1_555 1_555
O4 P1 1_555 1_555
O5 W4 1_555 1_555
O6 W1 1_555 1_555
O7 W1 1_555 1_555
O8 W1 1_555 1_555
O9 W4 1_555 1_555
O10 W4 1_555 1_555
O11 W6 1_555 1_555
O12 W2 1_555 1_555
O13 W2 1_555 1_555
O14 W5 1_555 1_555
O15 W2 1_555 1_555
O16 W2 1_555 1_555
O17 W5 1_555 1_555
O18 W4A 1_555 1_555
O19 W3 1_555 1_555
O20 W3 1_555 1_555
O21 W1 1_555 1_555
O22 W1 1_555 1_555
P2 O23 1_555 1_555
P3 O27 1_555 1_555
Cu1 O25 1_555 1_555
Cu2 O23 1_555 1_555
Cu3 O26 1_555 1_555
O23 Cu2A 1_555 1_555
O24 P2 1_555 1_555
H1 O24 1_555 1_555
O25 P2 1_555 1_555
O26 P2 1_555 1_555
O27 Cu2 1_555 1_555
O28 P3 1_555 1_555
O29 P3 1_555 1_555
H2 O29 1_555 1_555
O30 P3 1_555 1_555
C1 H3 1_555 1_555
C2 C1 1_555 1_555
C3 C2 1_555 1_555
H4 C3 1_555 1_555
C4 C3 1_555 1_555
H5 C4 1_555 1_555
C5 C4 1_555 1_555
C6 C5 1_555 1_555
C7 C6 1_555 1_555
H6 C7 1_555 1_555
C8 C7 1_555 1_555
H7 C8 1_555 1_555
C9 C8 1_555 1_555
C10 C9 1_555 1_555
H8 C10 1_555 1_555
C11 C9 1_555 1_555
H9 C11 1_555 1_555
H10 C11 1_555 1_555
H11 C11 1_555 1_555
C12 C2 1_555 1_555
H12 C12 1_555 1_555
H13 C12 1_555 1_555
H14 C12 1_555 1_555
C13 H15 1_555 1_555
C14 C13 1_555 1_555
C15 C14 1_555 1_555
H16 C15 1_555 1_555
C16 C15 1_555 1_555
H17 C16 1_555 1_555
C17 C16 1_555 1_555
C18 C17 1_555 1_555
C19 C18 1_555 1_555
H18 C19 1_555 1_555
C20 C19 1_555 1_555
H19 C20 1_555 1_555
C21 C20 1_555 1_555
C22 C21 1_555 1_555
H20 C22 1_555 1_555
C23 C21 1_555 1_555
H21 C23 1_555 1_555
H22 C23 1_555 1_555
H23 C23 1_555 1_555
C24 C14 1_555 1_555
H24 C24 1_555 1_555
H25 C24 1_555 1_555
H26 C24 1_555 1_555
C25 H27 1_555 1_555
C26 C25 1_555 1_555
C27 C26 1_555 1_555
H28 C27 1_555 1_555
C28 C27 1_555 1_555
H29 C28 1_555 1_555
C29 C28 1_555 1_555
C30 C29 1_555 1_555
C31 C30 1_555 1_555
H30 C31 1_555 1_555
C32 C31 1_555 1_555
H31 C32 1_555 1_555
C33 C32 1_555 1_555
C34 C33 1_555 1_555
H32 C34 1_555 1_555
C35 C33 1_555 1_555
H33 C35 1_555 1_555
H34 C35 1_555 1_555
H35 C35 1_555 1_555
C36 C26 1_555 1_555
H36 C36 1_555 1_555
H37 C36 1_555 1_555
H38 C36 1_555 1_555
N1 Cu3 1_555 1_555
N2 Cu3 1_555 1_555
N3 Cu2 1_555 1_555
N4 Cu2 1_555 1_555
N5 Cu1 1_555 1_555
N6 Cu1 1_555 1_555
O1A P1 1_555 1_555
O2A P1 1_555 1_555
O3A P1 1_555 1_555
O4A W3 1_555 1_555
W1A O3A 1_555 1_555
W2A O7 1_555 1_555
W3A O4 1_555 1_555
W4A O3A 1_555 1_555
W5A O5 1_555 1_555
W6A O3A 1_555 1_555
O5A W5 1_555 1_555
O6A W1A 1_555 1_555
O7A W2 1_555 1_555
O8A W1A 1_555 1_555
O9A W4A 1_555 1_555
O10A W4A 1_555 1_555
O11A W6A 1_555 1_555
O12A W2A 1_555 1_555
O13A W3 1_555 1_555
O14A W5A 1_555 1_555
O15A W2A 1_555 1_555
O16A W2A 1_555 1_555
O17A W5A 1_555 1_555
O18A W4 1_555 1_555
O19A W3A 1_555 1_555
O20A W3A 1_555 1_555
O21A W1A 1_555 1_555
O22A W1A 1_555 1_555
Cu2A O23A 1_555 1_555
Cu3A O30 1_555 1_555
O23A Cu2 1_555 1_555
O30A Cu3 1_555 1_555
W3 O21 1_555 1_555
W4 O22 1_555 1_555
W5 O16 1_555 1_555
W5 O20 1_555 1_555
W6 O8 1_555 1_555
W6 O9 1_555 1_555
W6 O12 1_555 1_555
W6 O14 1_555 1_555
P1 O2 1_555 1_555
P1 O4A 1_555 1_555
O1 O4A 1_555 1_555
O2 O3 1_555 1_555
O2 O4 1_555 1_555
O4 O1A 1_555 1_555
O13 W3A 1_555 1_555
Cu1 O28 1_555 1_555
Cu3 O30 1_555 1_555
C1 N1 1_555 1_555
C5 N1 1_555 1_555
C6 N2 1_555 1_555
C10 N2 1_555 1_555
C13 N3 1_555 1_555
C17 N3 1_555 1_555
C18 N4 1_555 1_555
C22 N4 1_555 1_555
C25 N5 1_555 1_555
C29 N5 1_555 1_555
C30 N6 1_555 1_555
C34 N6 1_555 1_555
O1A O2A 1_555 1_555
O1A W5A 1_555 1_555
O2A O3A 1_555 1_555
O2A O4A 1_555 1_555
O2A W5A 1_555 1_555
O4A W2A 1_555 1_555
W1A O7A 1_555 1_555
W2A O13A 1_555 1_555
W3A O18A 1_555 1_555
W3A O21A 1_555 1_555
W4A O5A 1_555 1_555
W4A O22A 1_555 1_555
W5A O16A 1_555 1_555
W5A O20A 1_555 1_555
W6A O8A 1_555 1_555
W6A O9A 1_555 1_555
W6A O12A 1_555 1_555
W6A O14A 1_555 1_555
Cu3A O30A 1_555 1_555

#END
