
#######################################################################
#
#                 Cambridge Crystallographic Data Centre
#                                CCDC 
#
#######################################################################
#
# If this CIF has been generated from an entry in the Cambridge 
# Structural Database, then it will include bibliographic, chemical, 
# crystal, experimental, refinement or atomic coordinate data resulting 
# from the CCDC's data processing and validation procedures.
#
#######################################################################

data_VITPIZ
_symmetry_cell_setting           orthorhombic
_symmetry_space_group_name_H-M   'P 21 2 21'
_symmetry_Int_Tables_number      18
_space_group_name_Hall           'P 2ac 2ac'
loop_
_symmetry_equiv_pos_site_id
_symmetry_equiv_pos_as_xyz
1 x,y,z
2 1/2-x,-y,1/2+z
3 1/2+x,-y,1/2-z
4 -x,y,-z
_cell_length_a                   14.849(2)
_cell_length_b                   13.7459(15)
_cell_length_c                   9.3362(12)
_cell_angle_alpha                90
_cell_angle_beta                 90
_cell_angle_gamma                90
_cell_volume                     1905.64
loop_
_atom_site_label
_atom_site_type_symbol
_atom_site_fract_x
_atom_site_fract_y
_atom_site_fract_z
Cu1 Cu 0.896004(18) 0.01965(2) 0.14109(3)
O1 O 0.99471(11) -0.01353(13) 0.26716(19)
O2 O 0.81547(12) 0.04514(12) -0.02246(19)
C1 C 0.92727(15) -0.18629(17) 0.1311(3)
H1 H 0.9124 -0.2472 0.0920
N1 N 0.91768(13) 0.16106(15) 0.1693(2)
N2 N 0.87698(12) -0.11350(14) 0.0931(2)
C2 C 1.03061(15) -0.09610(18) 0.2941(3)
O3 O 1.12977(13) -0.27813(15) 0.3002(3)
C3 C 1.10146(19) -0.09183(19) 0.4091(3)
H2 H 1.1267 -0.1562 0.4235
H3 H 1.0745 -0.0692 0.4977
H4 H 1.1488 -0.0474 0.3803
C4 C 0.72727(16) -0.25519(17) 0.1588(3)
C5 C 0.84604(17) 0.22074(18) 0.1706(3)
H5 H 0.7883 0.1937 0.1594
C6 C 1.00322(16) -0.18392(18) 0.2263(3)
C7 C 0.79923(16) -0.12791(17) -0.0016(3)
H6 H 0.8136 -0.1777 -0.0746
C8 C 0.71451(16) -0.15913(17) 0.0841(3)
H7 H 0.7005 -0.1091 0.1554
H8 H 0.6631 -0.1639 0.0186
C9 C 0.75710(18) -0.2586(2) 0.3010(3)
H9 H 0.7679 -0.2004 0.3510
C10 C 0.9390(2) 0.3595(2) 0.2001(4)
H10 H 0.9464 0.4269 0.2116
C11 C 1.05245(18) -0.2748(2) 0.2517(3)
C12 C 1.0134(2) 0.2991(2) 0.1954(5)
H11 H 1.0718 0.3250 0.2018
C13 C 0.7708(2) -0.34741(19) 0.3686(3)
H12 H 0.7930 -0.3490 0.4629
C14 C 1.0083(2) -0.3716(2) 0.2183(5)
H13 H 0.9484 -0.3605 0.1804
H14 H 1.0042 -0.4100 0.3052
H15 H 1.0441 -0.4063 0.1480
C15 C 0.7520(2) -0.4331(2) 0.2983(4)
H16 H 0.7596 -0.4930 0.3453
C16 C 0.7107(2) -0.3428(2) 0.0886(3)
H17 H 0.6917 -0.3422 -0.0074
C17 C 0.8538(2) 0.3200(2) 0.1878(3)
H18 H 0.8024 0.3598 0.1911
C18 C 0.7221(3) -0.4305(2) 0.1586(4)
H19 H 0.7092 -0.4890 0.1105
C19 C 1.00048(19) 0.2003(2) 0.1810(4)
H20 H 1.0510 0.1591 0.1793
O4 O 0.72513(12) -0.02982(14) -0.17782(19)
C20 C 0.77782(15) -0.03024(18) -0.0754(3)
Cu1A Cu 0.603996(18) -0.01965(2) -0.35891(3)
O4A O 0.77487(12) 0.02982(14) 0.32218(19)
loop_
_geom_bond_atom_site_label_1
_geom_bond_atom_site_label_2
_geom_bond_site_symmetry_1
_geom_bond_site_symmetry_2
Cu1 O1 1_555 1_555
O1 C2 1_555 1_555
O2 Cu1 1_555 1_555
C1 H1 1_555 1_555
N1 Cu1 1_555 1_555
N2 Cu1 1_555 1_555
C2 C3 1_555 1_555
O3 C11 1_555 1_555
C3 H2 1_555 1_555
H3 C3 1_555 1_555
H4 C3 1_555 1_555
C4 C8 1_555 1_555
C5 N1 1_555 1_555
H5 C5 1_555 1_555
C6 C1 1_555 1_555
C7 N2 1_555 1_555
H6 C7 1_555 1_555
C8 C7 1_555 1_555
H7 C8 1_555 1_555
H8 C8 1_555 1_555
C9 C4 1_555 1_555
H9 C9 1_555 1_555
C10 H10 1_555 1_555
C11 C6 1_555 1_555
C12 C10 1_555 1_555
H11 C12 1_555 1_555
C13 C9 1_555 1_555
H12 C13 1_555 1_555
C14 C11 1_555 1_555
H13 C14 1_555 1_555
H14 C14 1_555 1_555
H15 C14 1_555 1_555
C15 C13 1_555 1_555
H16 C15 1_555 1_555
C16 C4 1_555 1_555
H17 C16 1_555 1_555
C17 C5 1_555 1_555
H18 C17 1_555 1_555
C18 C15 1_555 1_555
H19 C18 1_555 1_555
C19 N1 1_555 1_555
H20 C19 1_555 1_555
O4 C20 1_555 1_555
C20 O2 1_555 1_555
Cu1A O4 1_555 1_555
O4A Cu1 1_555 1_555
C1 N2 1_555 1_555
C2 C6 1_555 1_555
C7 C20 1_555 1_555
C10 C17 1_555 1_555
C12 C19 1_555 1_555
C16 C18 1_555 1_555

#END
