
#######################################################################
#
#                 Cambridge Crystallographic Data Centre
#                                CCDC 
#
#######################################################################
#
# If this CIF has been generated from an entry in the Cambridge 
# Structural Database, then it will include bibliographic, chemical, 
# crystal, experimental, refinement or atomic coordinate data resulting 
# from the CCDC's data processing and validation procedures.
#
#######################################################################

data_VITPOF
_symmetry_cell_setting           monoclinic
_symmetry_space_group_name_H-M   'P 21'
_symmetry_Int_Tables_number      4
_space_group_name_Hall           'P 2yb'
loop_
_symmetry_equiv_pos_site_id
_symmetry_equiv_pos_as_xyz
1 x,y,z
2 -x,1/2+y,-z
_cell_length_a                   5.0638(13)
_cell_length_b                   8.3475(12)
_cell_length_c                   18.744(4)
_cell_angle_alpha                90
_cell_angle_beta                 93.09(2)
_cell_angle_gamma                90
_cell_volume                     791.158
loop_
_atom_site_label
_atom_site_type_symbol
_atom_site_fract_x
_atom_site_fract_y
_atom_site_fract_z
Cu1 Cu 0.07234(12) 0.47937(11) 0.79632(4)
O1 O 0.3013(8) 0.5760(6) 0.7294(2)
N1 N -0.0687(9) 0.3408(7) 0.7226(2)
O2 O -0.2405(7) 0.4145(5) 0.8461(2)
N2 N 0.2007(10) 0.6251(7) 0.8748(3)
O3 O -0.0333(8) 0.0598(6) 0.8328(2)
H1 H 0.102(9) 0.114(8) 0.828(4)
C1 C 0.1803(10) 0.4350(7) 0.6225(3)
C2 C -0.3844(10) 0.3097(8) 0.8123(3)
C3 C 0.4052(13) 0.8076(9) 0.9886(4)
H2 H 0.4755 0.8691 1.0278
C4 C 0.2026(12) 0.7005(9) 0.9978(4)
H3 H 0.1318 0.6873 1.0433
C5 C 0.1042(12) 0.6131(9) 0.9400(4)
H4 H -0.0379 0.5412 0.9465
O4 O -0.6053(8) 0.2669(6) 0.8334(3)
C6 C 0.3247(11) 0.5537(8) 0.6626(4)
C7 C -0.2801(11) 0.2321(8) 0.7454(3)
H5 H -0.4248 0.2248 0.7070
C8 C -0.0289(10) -0.0203(18) 0.7076(4)
H6 H -0.1363 -0.0179 0.6625
H7 H 0.0072 -0.1318 0.7213
H8 H 0.1385 0.0357 0.7016
C9 C -0.0160(11) 0.3414(8) 0.6551(3)
H9 H -0.1193 0.2722 0.6246
C10 C 0.3992(14) 0.7333(10) 0.8664(4)
H10 H 0.4670 0.7462 0.8205
C11 C 0.5043(13) 0.8245(9) 0.9224(4)
H11 H 0.6436 0.8980 0.9152
C12 C -0.1792(12) 0.0624(8) 0.7661(3)
H12 H -0.3406 -0.0040 0.7725
O5 O 0.4034(9) 0.4697(13) 0.5158(2)
C13 C 0.5181(12) 0.6654(9) 0.6302(4)
H13 H 0.5257 0.6422 0.5791
H14 H 0.6938 0.6504 0.6537
H15 H 0.4609 0.7764 0.6365
C14 C 0.2205(12) 0.4084(9) 0.5475(4)
C15 C 0.0301(15) 0.3028(11) 0.5042(4)
H16 H 0.0830 0.2979 0.4547
H17 H -0.1488 0.3472 0.5052
H18 H 0.0326 0.1947 0.5247
Cu1_2 Cu -0.92766(12) 0.47937(11) 0.79632(4)
O4_2 O 0.3947(8) 0.2669(6) 0.8334(3)
loop_
_geom_bond_atom_site_label_1
_geom_bond_atom_site_label_2
_geom_bond_site_symmetry_1
_geom_bond_site_symmetry_2
Cu1 O1 1_555 1_555
O1 C6 1_555 1_555
N1 Cu1 1_555 1_555
O2 Cu1 1_555 1_555
N2 Cu1 1_555 1_555
O3 H1 1_555 1_555
C1 C6 1_555 1_555
C2 O2 1_555 1_555
C3 H2 1_555 1_555
C4 C3 1_555 1_555
H3 C4 1_555 1_555
C5 N2 1_555 1_555
H4 C5 1_555 1_555
O4 C2 1_555 1_555
C6 C13 1_555 1_555
C7 N1 1_555 1_555
H5 C7 1_555 1_555
C8 H6 1_555 1_555
H7 C8 1_555 1_555
H8 C8 1_555 1_555
C9 N1 1_555 1_555
H9 C9 1_555 1_555
C10 N2 1_555 1_555
H10 C10 1_555 1_555
C11 C3 1_555 1_555
H11 C11 1_555 1_555
C12 O3 1_555 1_555
H12 C12 1_555 1_555
O5 C14 1_555 1_555
C13 H13 1_555 1_555
H14 C13 1_555 1_555
H15 C13 1_555 1_555
C14 C1 1_555 1_555
C15 C14 1_555 1_555
H16 C15 1_555 1_555
H17 C15 1_555 1_555
H18 C15 1_555 1_555
Cu1_2 O4 1_555 1_555
O4_2 Cu1 1_555 1_555
C1 C9 1_555 1_555
C2 C7 1_555 1_555
C4 C5 1_555 1_555
C7 C12 1_555 1_555
C8 C12 1_555 1_555
C10 C11 1_555 1_555

#END
