
#######################################################################
#
#                 Cambridge Crystallographic Data Centre
#                                CCDC 
#
#######################################################################
#
# If this CIF has been generated from an entry in the Cambridge 
# Structural Database, then it will include bibliographic, chemical, 
# crystal, experimental, refinement or atomic coordinate data resulting 
# from the CCDC's data processing and validation procedures.
#
#######################################################################

data_VITXAY
_symmetry_cell_setting           monoclinic
_symmetry_space_group_name_H-M   'C 2/c'
_symmetry_Int_Tables_number      15
_space_group_name_Hall           '-C 2yn'
loop_
_symmetry_equiv_pos_site_id
_symmetry_equiv_pos_as_xyz
1 x,y,z
2 1/2+x,1/2+y,z
3 -x,y,1/2-z
4 1/2-x,1/2+y,1/2-z
5 -x,-y,-z
6 1/2-x,1/2-y,-z
7 x,-y,1/2+z
8 1/2+x,1/2-y,1/2+z
_cell_length_a                   38.930(12)
_cell_length_b                   13.750(4)
_cell_length_c                   22.523(7)
_cell_angle_alpha                90
_cell_angle_beta                 92.302(7)
_cell_angle_gamma                90
_cell_volume                     12046.6
loop_
_atom_site_label
_atom_site_type_symbol
_atom_site_fract_x
_atom_site_fract_y
_atom_site_fract_z
Ir1 Ir 0.643591(15) 0.67994(4) 0.56776(2)
Ag1 Ag 0.71273(3) 0.67967(9) 0.67946(5)
Ag2 Ag 0.67281(3) 0.31342(8) 0.64079(4)
Ag3 Ag 0.66234(3) 1.04959(7) 0.66073(5)
S1 S 0.75604(12) 0.6666(3) 0.8006(2)
S2 S 0.63873(11) 0.1802(3) 0.52716(14)
S3 S 0.60900(11) 0.2047(3) 0.73169(16)
F1 F 0.6980(3) 0.6560(7) 0.8533(6)
F2 F 0.7408(3) 0.5919(9) 0.9015(5)
F3 F 0.7370(3) 0.7474(7) 0.8975(5)
F4 F 0.6718(3) 0.2118(11) 0.4337(5)
F5 F 0.6643(3) 0.0629(10) 0.4526(4)
F6 F 0.7020(3) 0.1468(12) 0.5047(6)
F7 F 0.5495(3) 0.2671(11) 0.6924(5)
F8 F 0.5739(3) 0.1705(10) 0.6330(4)
F9 F 0.5513(3) 0.1170(9) 0.7099(5)
O1 O 0.7428(3) 0.7481(7) 0.7684(6)
O2 O 0.7480(3) 0.5765(7) 0.7729(5)
O3 O 0.7910(2) 0.6772(7) 0.8246(4)
O4 O 0.6502(3) 0.2707(7) 0.5501(4)
O5 O 0.6086(3) 0.1840(7) 0.4898(4)
O6 O 0.6405(3) 0.1029(6) 0.5699(4)
O7 O 0.6258(3) 0.2813(7) 0.6985(4)
O8 O 0.6253(3) 0.1097(6) 0.7277(4)
O9 O 0.5985(3) 0.2299(8) 0.7890(4)
O10 O 0.7665(3) 0.6850(8) 0.6331(5)
N1 N 0.6237(3) 0.5935(7) 0.4963(4)
N2 N 0.6163(3) 0.7798(7) 0.5123(4)
C1 C 0.6309(4) 0.4993(10) 0.4854(5)
H1 H 0.6470 0.4678 0.5118
C2 C 0.6169(4) 0.4454(10) 0.4394(6)
H2 H 0.6216 0.3777 0.4369
C3 C 0.5960(4) 0.4902(10) 0.3964(5)
C4 C 0.5899(4) 0.5920(9) 0.4055(5)
H3 H 0.5756 0.6268 0.3777
C5 C 0.6047(4) 0.6403(8) 0.4544(6)
C6 C 0.5989(3) 0.7441(8) 0.4637(5)
C7 C 0.5792(3) 0.8014(8) 0.4268(5)
H4 H 0.5674 0.7717 0.3938
C8 C 0.5755(3) 0.9005(9) 0.4348(5)
C9 C 0.5940(4) 0.9383(9) 0.4852(6)
H5 H 0.5932 1.0058 0.4940
C10 C 0.6131(4) 0.8765(10) 0.5214(7)
H6 H 0.6249 0.9037 0.5552
C11 C 0.5795(4) 0.4347(9) 0.3442(6)
C12 C 0.6060(5) 0.4186(17) 0.2988(8)
H7 H 0.6151 0.4814 0.2863
H8 H 0.5955 0.3848 0.2643
H9 H 0.6248 0.3789 0.3162
C13 C 0.5494(4) 0.4921(10) 0.3151(6)
H10 H 0.5579 0.5536 0.2994
H11 H 0.5323 0.5055 0.3447
H12 H 0.5388 0.4537 0.2826
C14 C 0.5636(5) 0.3391(10) 0.3654(8)
H13 H 0.5816 0.2986 0.3846
H14 H 0.5531 0.3042 0.3313
H15 H 0.5459 0.3534 0.3940
C15 C 0.5548(4) 0.9695(10) 0.3940(6)
C16 C 0.5333(4) 1.0398(9) 0.4320(6)
H16 H 0.5200 1.0839 0.4057
H17 H 0.5488 1.0777 0.4584
H18 H 0.5176 1.0020 0.4559
C17 C 0.5792(4) 1.0251(10) 0.3569(6)
H19 H 0.5923 0.9795 0.3331
H20 H 0.5951 1.0625 0.3829
H21 H 0.5662 1.0696 0.3305
C18 C 0.5288(4) 0.9148(10) 0.3570(6)
H22 H 0.5406 0.8685 0.3316
H23 H 0.5153 0.9604 0.3321
H24 H 0.5135 0.8794 0.3828
C19 C 0.6723(3) 0.5782(8) 0.6104(5)
C20 C 0.7005(4) 0.5352(10) 0.5808(6)
C21 C 0.7207(4) 0.4630(9) 0.6071(7)
H25 H 0.7392 0.4369 0.5859
C22 C 0.7148(4) 0.4274(8) 0.6640(7)
H26 H 0.7354 0.4034 0.6875
C23 C 0.6890(4) 0.4722(10) 0.6964(6)
C24 C 0.6695(4) 0.5427(8) 0.6702(6)
H27 H 0.6470 0.5553 0.6886
C25 C 0.7098(4) 0.5721(10) 0.5198(6)
H28 H 0.7294 0.5350 0.5059
H29 H 0.7160 0.6412 0.5226
H30 H 0.6901 0.5641 0.4918
C26 C 0.6844(5) 0.4430(10) 0.7622(6)
H31 H 0.6900 0.4987 0.7880
H32 H 0.6998 0.3887 0.7727
H33 H 0.6605 0.4233 0.7675
C27 C 0.6644(3) 0.7775(8) 0.6265(6)
C28 C 0.6887(3) 0.8452(8) 0.6084(5)
C29 C 0.7036(4) 0.9127(9) 0.6467(6)
H34 H 0.7204 0.9563 0.6328
C30 C 0.6942(4) 0.9175(9) 0.7062(5)
H35 H 0.7045 0.9646 0.7322
C31 C 0.6697(4) 0.8533(8) 0.7271(5)
C32 C 0.6547(4) 0.7837(8) 0.6864(6)
H36 H 0.6334 0.7492 0.6979
C33 C 0.7009(4) 0.8418(10) 0.5445(5)
H37 H 0.7177 0.8939 0.5388
H38 H 0.6812 0.8506 0.5165
H39 H 0.7117 0.7787 0.5373
C34 C 0.6580(4) 0.8611(10) 0.7912(6)
H40 H 0.6713 0.9118 0.8122
H41 H 0.6617 0.7987 0.8115
H42 H 0.6335 0.8778 0.7908
C35 C 0.6007(3) 0.6650(8) 0.6136(5)
C36 C 0.5840(4) 0.5747(11) 0.6226(5)
C37 C 0.5542(5) 0.5734(12) 0.6520(7)
H43 H 0.5441 0.5127 0.6613
C38 C 0.5383(4) 0.6587(14) 0.6687(7)
H44 H 0.5162 0.6557 0.6851
C39 C 0.5538(5) 0.7469(15) 0.6619(7)
C40 C 0.5845(4) 0.7507(9) 0.6331(5)
H45 H 0.5949 0.8120 0.6264
C41 C 0.5964(5) 0.4750(10) 0.6044(7)
H46 H 0.5798 0.4257 0.6161
H47 H 0.6188 0.4617 0.6242
H48 H 0.5986 0.4732 0.5612
C42 C 0.5384(5) 0.8467(13) 0.6840(7)
H49 H 0.5168 0.8344 0.7037
H50 H 0.5340 0.8897 0.6498
H51 H 0.5549 0.8777 0.7120
C43 C 0.7843(4) 0.7674(10) 0.6207(6)
H52 H 0.7791 0.8191 0.6496
H53 H 0.7776 0.7910 0.5803
C44 C 0.8212(5) 0.7452(14) 0.6241(9)
H54 H 0.8325 0.7798 0.6582
H55 H 0.8321 0.7665 0.5873
C45 C 0.8255(5) 0.6356(13) 0.6320(8)
H56 H 0.8337 0.6041 0.5956
H57 H 0.8413 0.6194 0.6662
C46 C 0.7927(5) 0.6121(15) 0.6423(13)
H58 H 0.7919 0.5897 0.6840
H59 H 0.7864 0.5558 0.6167
C52 C 0.7332(5) 0.6685(15) 0.8619(12)
C53 C 0.6732(7) 0.1465(14) 0.4785(9)
C54 C 0.5687(4) 0.1882(19) 0.6893(7)
Ag2C Ag 0.82719(3) 0.81342(8) 0.85921(4)
Ag3C Ag 0.83766(3) 0.54959(7) 0.83927(5)
Ag3_2 Ag 0.66234(3) 0.04959(7) 0.66073(5)
O3C O 0.7090(2) 0.1772(7) 0.6754(4)
O3C_2 O 0.7090(2) 1.1772(7) 0.6754(4)
O6_2 O 0.6405(3) 1.1029(6) 0.5699(4)
O8_2 O 0.6253(3) 1.1097(6) 0.7277(4)
O11 O 0.5156(6) 0.6167(14) 0.4580(10)
C48 C 0.5195(7) 0.6298(18) 0.5145(11)
C49 C 0.4801(7) 0.7340(17) 0.4802(12)
C50 C 0.5030(7) 0.7284(16) 0.5159(11)
C51 C 0.4882(11) 0.661(3) 0.4251(18)
C47? C 0.4906(9) 0.550(2) 0.5090(13)
loop_
_geom_bond_atom_site_label_1
_geom_bond_atom_site_label_2
_geom_bond_site_symmetry_1
_geom_bond_site_symmetry_2
Ir1 N1 1_555 1_555
Ag1 O1 1_555 1_555
Ag2 O4 1_555 1_555
Ag3 C29 1_555 1_555
S1 O1 1_555 1_555
S2 O4 1_555 1_555
S3 O7 1_555 1_555
F1 C52 1_555 1_555
F2 C52 1_555 1_555
F3 C52 1_555 1_555
F4 C53 1_555 1_555
F5 C53 1_555 1_555
F6 C53 1_555 1_555
F7 C54 1_555 1_555
F8 C54 1_555 1_555
F9 C54 1_555 1_555
O2 S1 1_555 1_555
O3 S1 1_555 1_555
O5 S2 1_555 1_555
O6 S2 1_555 1_555
O7 Ag2 1_555 1_555
O8 S3 1_555 1_555
O9 S3 1_555 1_555
O10 Ag1 1_555 1_555
N1 C1 1_555 1_555
N2 Ir1 1_555 1_555
C1 H1 1_555 1_555
C2 C1 1_555 1_555
H2 C2 1_555 1_555
C3 C2 1_555 1_555
C4 C3 1_555 1_555
H3 C4 1_555 1_555
C5 N1 1_555 1_555
C6 N2 1_555 1_555
C7 C6 1_555 1_555
H4 C7 1_555 1_555
C8 C7 1_555 1_555
C9 C8 1_555 1_555
H5 C9 1_555 1_555
C10 N2 1_555 1_555
H6 C10 1_555 1_555
C11 C3 1_555 1_555
C12 C11 1_555 1_555
H7 C12 1_555 1_555
H8 C12 1_555 1_555
H9 C12 1_555 1_555
C13 C11 1_555 1_555
H10 C13 1_555 1_555
H11 C13 1_555 1_555
H12 C13 1_555 1_555
C14 C11 1_555 1_555
H13 C14 1_555 1_555
H14 C14 1_555 1_555
H15 C14 1_555 1_555
C15 C8 1_555 1_555
C16 C15 1_555 1_555
H16 C16 1_555 1_555
H17 C16 1_555 1_555
H18 C16 1_555 1_555
C17 C15 1_555 1_555
H19 C17 1_555 1_555
H20 C17 1_555 1_555
H21 C17 1_555 1_555
C18 C15 1_555 1_555
H22 C18 1_555 1_555
H23 C18 1_555 1_555
H24 C18 1_555 1_555
C19 Ir1 1_555 1_555
C20 C19 1_555 1_555
C21 C20 1_555 1_555
H25 C21 1_555 1_555
C22 Ag2 1_555 1_555
H26 C22 1_555 1_555
C23 Ag2 1_555 1_555
C24 Ag1 1_555 1_555
H27 C24 1_555 1_555
C25 C20 1_555 1_555
H28 C25 1_555 1_555
H29 C25 1_555 1_555
H30 C25 1_555 1_555
C26 C23 1_555 1_555
H31 C26 1_555 1_555
H32 C26 1_555 1_555
H33 C26 1_555 1_555
C27 Ir1 1_555 1_555
C28 C27 1_555 1_555
C29 C28 1_555 1_555
H34 C29 1_555 1_555
C30 Ag3 1_555 1_555
H35 C30 1_555 1_555
C31 C30 1_555 1_555
C32 Ag1 1_555 1_555
H36 C32 1_555 1_555
C33 C28 1_555 1_555
H37 C33 1_555 1_555
H38 C33 1_555 1_555
H39 C33 1_555 1_555
C34 C31 1_555 1_555
H40 C34 1_555 1_555
H41 C34 1_555 1_555
H42 C34 1_555 1_555
C35 Ir1 1_555 1_555
C36 C35 1_555 1_555
C37 C36 1_555 1_555
H43 C37 1_555 1_555
C38 C37 1_555 1_555
H44 C38 1_555 1_555
C39 C38 1_555 1_555
C40 C35 1_555 1_555
H45 C40 1_555 1_555
C41 C36 1_555 1_555
H46 C41 1_555 1_555
H47 C41 1_555 1_555
H48 C41 1_555 1_555
C42 C39 1_555 1_555
H49 C42 1_555 1_555
H50 C42 1_555 1_555
H51 C42 1_555 1_555
C43 O10 1_555 1_555
H52 C43 1_555 1_555
H53 C43 1_555 1_555
C44 C43 1_555 1_555
H54 C44 1_555 1_555
H55 C44 1_555 1_555
C45 C44 1_555 1_555
H56 C45 1_555 1_555
H57 C45 1_555 1_555
C46 O10 1_555 1_555
H58 C46 1_555 1_555
H59 C46 1_555 1_555
O11 C48 1_555 1_555
C48 C50 1_555 1_555
C49 C50 1_555 1_555
C51 O11 1_555 1_555
C52 S1 1_555 1_555
C53 S2 1_555 1_555
C54 S3 1_555 1_555
Ag2C O3 1_555 1_555
Ag3C O3 1_555 1_555
Ag3_2 O6 1_555 1_555
O3C Ag2 1_555 1_555
O3C_2 Ag3 1_555 1_555
O6_2 Ag3 1_555 1_555
O8_2 Ag3 1_555 1_555
Ag1 C19 1_555 1_555
Ag1 C27 1_555 1_555
O8 Ag3_2 1_555 1_555
C4 C5 1_555 1_555
C5 C6 1_555 1_555
C9 C10 1_555 1_555
C19 C24 1_555 1_555
C21 C22 1_555 1_555
C22 C23 1_555 1_555
C23 C24 1_555 1_555
C27 C32 1_555 1_555
C29 C30 1_555 1_555
C31 C32 1_555 1_555
C39 C40 1_555 1_555
C45 C46 1_555 1_555
C49 C51 1_555 1_555
Ag3_2 O3C 1_555 1_555

#END
