
#######################################################################
#
#                 Cambridge Crystallographic Data Centre
#                                CCDC 
#
#######################################################################
#
# If this CIF has been generated from an entry in the Cambridge 
# Structural Database, then it will include bibliographic, chemical, 
# crystal, experimental, refinement or atomic coordinate data resulting 
# from the CCDC's data processing and validation procedures.
#
#######################################################################

data_VITYOO
_symmetry_cell_setting           monoclinic
_symmetry_space_group_name_H-M   'C 2/c'
_symmetry_Int_Tables_number      15
_space_group_name_Hall           '-C 2yn'
loop_
_symmetry_equiv_pos_site_id
_symmetry_equiv_pos_as_xyz
1 x,y,z
2 -x,y,1/2-z
3 1/2+x,1/2+y,z
4 1/2-x,1/2+y,1/2-z
5 -x,-y,-z
6 x,-y,1/2+z
7 1/2-x,1/2-y,-z
8 1/2+x,1/2-y,1/2+z
_cell_length_a                   12.143(2)
_cell_length_b                   24.875(5)
_cell_length_c                   19.669(4)
_cell_angle_alpha                90
_cell_angle_beta                 102.90(3)
_cell_angle_gamma                90
_cell_volume                     5791.21
loop_
_atom_site_label
_atom_site_type_symbol
_atom_site_fract_x
_atom_site_fract_y
_atom_site_fract_z
Nd1 Nd -0.07944(2) 0.449539(14) 0.055232(16)
O1 O 0.0597(6) 0.3899(3) 0.1368(4)
O2 O 0.0250(4) 0.3993(2) -0.0162(3)
O3 O -0.2582(4) 0.4532(2) 0.1030(3)
O4 O -0.0972(4) 0.4686(3) 0.1757(3)
O5 O -0.1618(5) 0.3588(3) 0.0485(4)
O6 O -0.2369(4) 0.4543(2) -0.0504(3)
O7 O 0.0917(4) 0.5013(2) 0.0703(2)
O8 O -0.1360(5) 0.5435(2) 0.0571(3)
C1 C 0.1123(7) 0.4120(3) -0.0355(5)
C2 C -0.2028(5) 0.4673(3) 0.1621(3)
C3 C 0.2063(11) 0.3708(4) -0.0213(11)
C4 C -0.2636(5) 0.4818(3) 0.2185(3)
C5 C 0.1827(11) 0.3172(4) -0.0136(10)
C6 C 0.3246(9) 0.3898(4) -0.0024(7)
C7 C -0.3807(5) 0.4821(3) 0.2052(3)
C8 C -0.2006(5) 0.4931(3) 0.2853(3)
C9 C 0.2730(13) 0.2818(6) 0.0115(10)
H1 H 0.1086 0.3047 -0.0247
C10 C 0.4158(10) 0.3562(6) 0.0237(11)
H2 H 0.3388 0.4261 -0.0082
H3 H -0.4221 0.4732 0.1609
C11 C -0.4377(5) 0.4955(3) 0.2574(3)
H4 H -0.1221 0.4919 0.2948
C12 C -0.2562(5) 0.5061(3) 0.3375(3)
C13 C 0.3911(13) 0.3019(6) 0.0311(9)
C14 C 0.5375(13) 0.3738(6) 0.0325(10)
C15 C -0.3735(5) 0.5083(3) 0.3233(3)
C16 C -0.1913(5) 0.5186(3) 0.4101(3)
H5 H 0.4494 0.2780 0.0486
O9 O 0.5349(11) 0.4206(6) 0.0375(6)
O10 O 0.6105(7) 0.3411(4) 0.0463(7)
H6 H -0.4096 0.5184 0.3583
O7D O -0.0917(4) 0.4987(2) -0.0703(2)
Nd1D Nd 0.07944(2) 0.550461(14) -0.055232(16)
O8D O 0.1360(5) 0.4565(2) -0.0571(3)
C9F C 0.2270(13) 0.2182(6) -0.0115(10)
C11A C -0.5623(5) 0.4955(3) 0.2426(3)
C5F C 0.3173(11) 0.1828(4) 0.0136(10)
C13F C 0.1089(13) 0.1981(6) -0.0311(9)
C7A C -0.6193(5) 0.4821(3) 0.2948(3)
C15A C -0.6265(5) 0.5083(3) 0.1767(3)
O6E O -0.2369(4) 0.5457(2) 0.4496(3)
O7A O -0.0917(4) 0.5013(2) 0.4297(2)
C3F C 0.2937(11) 0.1292(4) 0.0213(11)
H1F H 0.3914 0.1953 0.0247
C10F C 0.0842(10) 0.1438(6) -0.0237(11)
H5F H 0.0506 0.2220 -0.0486
C4A C -0.7364(5) 0.4818(3) 0.2815(3)
H3A H -0.5779 0.4732 0.3391
H6A H -0.5904 0.5184 0.1417
C12A C -0.7438(5) 0.5061(3) 0.1625(3)
Nd1E Nd -0.07944(2) 0.550461(14) 0.555232(16)
Nd1A Nd 0.07944(2) 0.449539(14) 0.444768(16)
C1F C 0.3877(7) 0.0880(3) 0.0355(5)
C6F C 0.1754(9) 0.1102(4) 0.0024(7)
C14F C -0.0375(13) 0.1262(6) -0.0325(10)
C2A C -0.7972(5) 0.4673(3) 0.3379(3)
C8A C -0.7994(5) 0.4931(3) 0.2147(3)
C16A C -0.8087(5) 0.5186(3) 0.0899(3)
O2F O 0.4750(4) 0.1007(2) 0.0162(3)
O8B O 0.3640(5) 0.0435(2) 0.0571(3)
H2F H 0.1612 0.0739 0.0082
O9F O -0.0349(11) 0.0794(6) -0.0375(6)
O10F O -0.1105(7) 0.1589(4) -0.0463(7)
O3A O -0.7418(4) 0.4532(2) 0.3970(3)
O4A O -0.9028(4) 0.4686(3) 0.3243(3)
H4A H -0.8779 0.4919 0.2052
O6D O -0.7631(4) 0.5457(2) 0.0504(3)
O7_2 O -0.9083(4) 0.5013(2) 0.0703(2)
Nd1F Nd 0.57944(2) 0.050461(14) -0.055232(16)
Nd1B Nd 0.42056(2) -0.050461(14) 0.055232(16)
Nd1A_2 Nd -0.92056(2) 0.449539(14) 0.444768(16)
Nd1D_2 Nd -0.92056(2) 0.550461(14) -0.055232(16)
Nd1_2 Nd -1.07944(2) 0.449539(14) 0.055232(16)
O1A O -1.0597(6) 0.3899(3) 0.3632(4)
O5A O -0.8382(5) 0.3588(3) 0.4515(4)
O6A O -0.7631(4) 0.4543(2) 0.5504(3)
O7A_2 O -1.0917(4) 0.5013(2) 0.4297(2)
O7E O -0.9083(4) 0.4987(2) 0.5703(2)
O2A O -1.0250(4) 0.3993(2) 0.5162(3)
O8A O -0.8640(5) 0.5435(2) 0.4429(3)
loop_
_geom_bond_atom_site_label_1
_geom_bond_atom_site_label_2
_geom_bond_site_symmetry_1
_geom_bond_site_symmetry_2
Nd1 O1 1_555 1_555
O2 Nd1 1_555 1_555
O3 Nd1 1_555 1_555
O4 Nd1 1_555 1_555
O5 Nd1 1_555 1_555
O6 Nd1 1_555 1_555
O7 Nd1 1_555 1_555
O8 Nd1 1_555 1_555
C1 O2 1_555 1_555
C2 O3 1_555 1_555
C3 C1 1_555 1_555
C4 C2 1_555 1_555
C5 C3 1_555 1_555
C6 C3 1_555 1_555
C7 C4 1_555 1_555
C8 C4 1_555 1_555
C9 C5 1_555 1_555
H1 C5 1_555 1_555
C10 C6 1_555 1_555
H2 C6 1_555 1_555
H3 C7 1_555 1_555
C11 C7 1_555 1_555
H4 C8 1_555 1_555
C12 C8 1_555 1_555
C13 C9 1_555 1_555
C14 C10 1_555 1_555
C15 C11 1_555 1_555
C16 C12 1_555 1_555
H5 C13 1_555 1_555
O9 C14 1_555 1_555
O10 C14 1_555 1_555
H6 C15 1_555 1_555
O7D Nd1 1_555 1_555
Nd1D O7 1_555 1_555
O8D C1 1_555 1_555
C9F C9 1_555 1_555
C11A C11 1_555 1_555
C5F C9F 1_555 1_555
C13F C9F 1_555 1_555
C7A C11A 1_555 1_555
C15A C11A 1_555 1_555
O6E C16 1_555 1_555
O7A C16 1_555 1_555
C3F C5F 1_555 1_555
H1F C5F 1_555 1_555
C10F C13F 1_555 1_555
H5F C13F 1_555 1_555
C4A C7A 1_555 1_555
H3A C7A 1_555 1_555
H6A C15A 1_555 1_555
C12A C15A 1_555 1_555
Nd1E O6E 1_555 1_555
Nd1A O7A 1_555 1_555
C1F C3F 1_555 1_555
C6F C3F 1_555 1_555
C14F C10F 1_555 1_555
C2A C4A 1_555 1_555
C8A C4A 1_555 1_555
C16A C12A 1_555 1_555
O2F C1F 1_555 1_555
O8B C1F 1_555 1_555
H2F C6F 1_555 1_555
O9F C14F 1_555 1_555
O10F C14F 1_555 1_555
O3A C2A 1_555 1_555
O4A C2A 1_555 1_555
H4A C8A 1_555 1_555
O6D C16A 1_555 1_555
O7_2 C16A 1_555 1_555
Nd1F O2F 1_555 1_555
Nd1B O8B 1_555 1_555
Nd1A_2 O3A 1_555 1_555
Nd1D_2 O6D 1_555 1_555
Nd1_2 O7_2 1_555 1_555
O1A Nd1A_2 1_555 1_555
O5A Nd1A_2 1_555 1_555
O6A Nd1A_2 1_555 1_555
O7A_2 Nd1A_2 1_555 1_555
O7E Nd1A_2 1_555 1_555
O2A Nd1A_2 1_555 1_555
O8A Nd1A_2 1_555 1_555
O4 C2 1_555 1_555
C10 C13 1_555 1_555
C12 C15 1_555 1_555
O7D Nd1D 1_555 1_555
Nd1D O8D 1_555 1_555
O7A Nd1E 1_555 1_555
C10F C6F 1_555 1_555
C12A C8A 1_555 1_555
O4A Nd1A_2 1_555 1_555
O7_2 Nd1D_2 1_555 1_555

#END
