
#######################################################################
#
#                 Cambridge Crystallographic Data Centre
#                                CCDC 
#
#######################################################################
#
# If this CIF has been generated from an entry in the Cambridge 
# Structural Database, then it will include bibliographic, chemical, 
# crystal, experimental, refinement or atomic coordinate data resulting 
# from the CCDC's data processing and validation procedures.
#
#######################################################################

data_VITYUU
_symmetry_cell_setting           triclinic
_symmetry_space_group_name_H-M   'P -1'
_symmetry_Int_Tables_number      2
_space_group_name_Hall           '-P 1'
loop_
_symmetry_equiv_pos_site_id
_symmetry_equiv_pos_as_xyz
1 x,y,z
2 -x,-y,-z
_cell_length_a                   11.660(2)
_cell_length_b                   12.245(2)
_cell_length_c                   13.568(3)
_cell_angle_alpha                64.88(3)
_cell_angle_beta                 68.25(3)
_cell_angle_gamma                88.14(3)
_cell_volume                     1611.06
loop_
_atom_site_label
_atom_site_type_symbol
_atom_site_fract_x
_atom_site_fract_y
_atom_site_fract_z
Eu1 Eu 0.0000 0.0000 0.0000
Eu2 Eu 0.07117(2) 0.17060(2) 0.17231(2)
O1 O 0.2100(3) 0.1936(3) -0.0201(3)
O2 O 0.0281(3) -0.0299(3) 0.1863(3)
O3 O 0.9343(3) 0.1573(3) 0.0559(3)
O4 O -0.0593(4) -0.1287(3) 0.6286(3)
O5 O 0.7660(3) -0.0555(3) -0.2083(3)
O6 O 0.0013(4) -0.3004(3) 0.7234(3)
O7 O 0.9767(3) 0.3313(3) 0.0549(3)
O8 O 0.7628(3) 0.6764(3) -0.0976(3)
O9 O -0.0410(4) -0.1889(3) 0.1804(3)
O10 O 0.2148(3) 0.0465(3) -0.0751(4)
O11 O 0.6434(4) 0.6723(4) -0.1914(4)
O12 O -0.1443(4) 0.0960(5) 0.3046(4)
C1 C -0.0068(4) -0.1440(4) 0.2337(4)
C2 C -0.0062(4) -0.2264(4) 0.3518(4)
C3 C 0.7108(5) 0.6230(5) -0.1345(5)
C4 C 0.2677(4) 0.1264(5) -0.0644(4)
C5 C 0.4081(4) 0.1387(4) -0.1067(4)
C6 C 0.4671(4) 0.0517(4) -0.1420(4)
H1 H 0.4215 -0.0041 -0.1484
C7 C 0.5917(4) 0.0495(4) -0.1668(4)
C8 C 0.6600(4) 0.1331(4) -0.1582(4)
H2 H 0.7452 0.1320 -0.1777
C9 C 0.6039(4) 0.2193(4) -0.1209(4)
C10 C 0.4754(4) 0.2212(4) -0.0967(4)
H3 H 0.4357 0.2788 -0.0738
C11 C -0.0234(5) -0.2293(5) 0.6364(4)
C12 C 0.9211(4) 0.2686(4) 0.0292(4)
C13 C 0.6533(5) -0.0519(4) -0.1913(4)
C14 C -0.0098(5) -0.1844(5) 0.4330(4)
H4 H -0.0107 -0.1023 0.4150
O13 O 0.5813(3) -0.1304(3) -0.1911(4)
C15 C -0.0039(5) -0.3498(5) 0.3798(4)
H5 H -0.0032 -0.3760 0.3245
C16 C -0.0027(5) -0.4348(5) 0.4865(5)
C17 C -0.0083(5) -0.3912(5) 0.5679(5)
H6 H -0.0095 -0.4457 0.6414
C18 C -0.0120(5) -0.2692(5) 0.5424(4)
C19 C 0.8162(5) 0.4438(5) -0.0599(5)
H7 H 0.8634 0.4924 -0.0472
C20 C 0.8331(5) 0.3231(5) -0.0302(4)
C21 C 0.7635(4) 0.2511(5) -0.0512(4)
H8 H 0.7746 0.1700 -0.0315
C22 C 0.6770(4) 0.2996(4) -0.1016(4)
C23 C 0.6590(5) 0.4215(5) -0.1288(5)
H9 H 0.6003 0.4541 -0.1602
C24 C 0.7294(5) 0.4932(4) -0.1084(5)
O2A O -0.0281(3) -0.9701(3) 0.8137(3)
O4A O 0.0593(4) -0.8713(3) 0.3714(3)
O6A O -0.0013(4) -0.6996(3) 0.2766(3)
O9A O 0.0410(4) -0.8111(3) 0.8196(3)
C1A C 0.0068(4) -0.8560(4) 0.7663(4)
C2A C 0.0062(4) -0.7736(4) 0.6482(4)
C11A C 0.0234(5) -0.7707(5) 0.3636(4)
C14A C 0.0098(5) -0.8156(5) 0.5670(4)
H4A H 0.0107 -0.8977 0.5850
C15A C 0.0039(5) -0.6502(5) 0.6202(4)
H5A H 0.0032 -0.6240 0.6755
C16A C 0.0027(5) -0.5652(5) 0.5135(5)
C17A C 0.0083(5) -0.6088(5) 0.4321(5)
H6A H 0.0095 -0.5543 0.3586
C18A C 0.0120(5) -0.7308(5) 0.4576(4)
Eu2A Eu -0.07117(2) -1.17060(2) 0.82769(2)
O1A O -0.2100(3) -1.1936(3) 1.0201(3)
O3A O -0.9343(3) -1.1573(3) 0.9441(3)
O5A O -0.7660(3) -0.9445(3) 1.2083(3)
O7A O -0.9767(3) -1.3313(3) 0.9451(3)
O8A O -0.7628(3) -1.6764(3) 1.0976(3)
O10A O -0.2148(3) -1.0465(3) 1.0751(4)
O11A O -0.6434(4) -1.6723(4) 1.1914(4)
O12A O 0.1443(4) -1.0960(5) 0.6954(4)
C3A C -0.7108(5) -1.6230(5) 1.1345(5)
C4A C -0.2677(4) -1.1264(5) 1.0644(4)
C5A C -0.4081(4) -1.1387(4) 1.1067(4)
C6A C -0.4671(4) -1.0517(4) 1.1420(4)
H1A H -0.4215 -0.9959 1.1484
C7A C -0.5917(4) -1.0495(4) 1.1668(4)
C8A C -0.6600(4) -1.1331(4) 1.1582(4)
H2A H -0.7452 -1.1320 1.1777
C9A C -0.6039(4) -1.2193(4) 1.1209(4)
C10A C -0.4754(4) -1.2212(4) 1.0967(4)
H3A H -0.4357 -1.2788 1.0738
C12A C -0.9211(4) -1.2686(4) 0.9708(4)
C13A C -0.6533(5) -0.9481(4) 1.1913(4)
O13A O -0.5813(3) -0.8696(3) 1.1911(4)
C19A C -0.8162(5) -1.4438(5) 1.0599(5)
H7A H -0.8634 -1.4924 1.0472
C20A C -0.8331(5) -1.3231(5) 1.0302(4)
C21A C -0.7635(4) -1.2511(5) 1.0512(4)
H8A H -0.7746 -1.1700 1.0315
C22A C -0.6770(4) -1.2996(4) 1.1016(4)
C23A C -0.6590(5) -1.4215(5) 1.1288(5)
H9A H -0.6003 -1.4541 1.1602
C24A C -0.7294(5) -1.4932(4) 1.1084(5)
Eu1_2 Eu -1.0000 -1.0000 1.0000
Eu1_3 Eu 0.0000 -1.0000 1.0000
Eu1_4 Eu 1.0000 0.0000 0.0000
Eu2_2 Eu -0.92883(2) -1.82940(2) 1.17231(2)
Eu2_3 Eu -0.92883(2) -0.82940(2) 1.17231(2)
Eu2_4 Eu 0.07117(2) -0.82940(2) 0.17231(2)
Eu2_5 Eu 1.07117(2) 0.17060(2) 0.17231(2)
Eu2A_2 Eu -1.07117(2) -1.17060(2) 0.82769(2)
Eu2A_3 Eu -0.07117(2) -0.17060(2) 0.82769(2)
Eu2A_4 Eu 0.92883(2) -0.17060(2) -0.17231(2)
Eu2A_5 Eu 0.92883(2) 0.82940(2) -0.17231(2)
O2A_2 O -0.0281(3) 0.0299(3) -0.1863(3)
O3_2 O -0.0657(3) 0.1573(3) 0.0559(3)
O3A_2 O 0.0657(3) -1.1573(3) 0.9441(3)
O3A_3 O 0.0657(3) -0.1573(3) -0.0559(3)
O4_2 O -0.0593(4) -1.1287(3) 0.6286(3)
O4A_2 O 0.0593(4) 0.1287(3) 0.3714(3)
O5_2 O -0.2340(3) -1.0555(3) 0.7917(3)
O5A_2 O 0.2340(3) 0.0555(3) 0.2083(3)
O6_2 O 0.0013(4) -1.3004(3) 0.7234(3)
O6A_2 O -0.0013(4) 0.3004(3) 0.2766(3)
O7_2 O -0.0233(3) 0.3313(3) 0.0549(3)
O7A_2 O 0.0233(3) -1.3313(3) 0.9451(3)
O8_2 O -0.2372(3) -1.3236(3) 0.9024(3)
O8A_2 O 0.2372(3) 0.3236(3) 0.0976(3)
O9A_2 O 0.0410(4) 0.1889(3) -0.1804(3)
O10A_2 O -0.2148(3) -0.0465(3) 0.0751(4)
loop_
_geom_bond_atom_site_label_1
_geom_bond_atom_site_label_2
_geom_bond_site_symmetry_1
_geom_bond_site_symmetry_2
Eu1 O2 1_555 1_555
Eu2 O1 1_555 1_555
O1 C4 1_555 1_555
O2 Eu2 1_555 1_555
O3 C12 1_555 1_555
O4 C11 1_555 1_555
O5 C13 1_555 1_555
O6 C11 1_555 1_555
O7 C12 1_555 1_555
O8 C3 1_555 1_555
O9 Eu1 1_555 1_555
O10 Eu1 1_555 1_555
O11 C3 1_555 1_555
O12 Eu2 1_555 1_555
C1 O2 1_555 1_555
C2 C1 1_555 1_555
C3 C24 1_555 1_555
C4 O10 1_555 1_555
C5 C4 1_555 1_555
C6 C5 1_555 1_555
H1 C6 1_555 1_555
C7 C6 1_555 1_555
C8 C7 1_555 1_555
H2 C8 1_555 1_555
C9 C8 1_555 1_555
C10 C5 1_555 1_555
H3 C10 1_555 1_555
C11 C18 1_555 1_555
C12 C20 1_555 1_555
C13 C7 1_555 1_555
C14 C2 1_555 1_555
H4 C14 1_555 1_555
O13 C13 1_555 1_555
C15 C2 1_555 1_555
H5 C15 1_555 1_555
C16 C15 1_555 1_555
C17 C16 1_555 1_555
H6 C17 1_555 1_555
C18 C14 1_555 1_555
C19 H7 1_555 1_555
C20 C19 1_555 1_555
C21 C20 1_555 1_555
H8 C21 1_555 1_555
C22 C9 1_555 1_555
C23 C22 1_555 1_555
H9 C23 1_555 1_555
C24 C19 1_555 1_555
O2A C1A 1_555 1_555
O4A C11A 1_555 1_555
O6A C11A 1_555 1_555
O9A C1A 1_555 1_555
C1A C2A 1_555 1_555
C2A C14A 1_555 1_555
C11A C18A 1_555 1_555
C14A H4A 1_555 1_555
C15A C2A 1_555 1_555
H5A C15A 1_555 1_555
C16A C16 1_555 1_555
C17A C16A 1_555 1_555
H6A C17A 1_555 1_555
C18A C14A 1_555 1_555
Eu2A O2A 1_555 1_555
O1A Eu2A 1_555 1_555
O3A C12A 1_555 1_555
O5A C13A 1_555 1_555
O7A C12A 1_555 1_555
O8A C3A 1_555 1_555
O10A C4A 1_555 1_555
O11A C3A 1_555 1_555
O12A Eu2A 1_555 1_555
C3A C24A 1_555 1_555
C4A O1A 1_555 1_555
C5A C4A 1_555 1_555
C6A C5A 1_555 1_555
H1A C6A 1_555 1_555
C7A C6A 1_555 1_555
C8A C7A 1_555 1_555
H2A C8A 1_555 1_555
C9A C8A 1_555 1_555
C10A C5A 1_555 1_555
H3A C10A 1_555 1_555
C12A C20A 1_555 1_555
C13A C7A 1_555 1_555
O13A C13A 1_555 1_555
C19A H7A 1_555 1_555
C20A C19A 1_555 1_555
C21A C20A 1_555 1_555
H8A C21A 1_555 1_555
C22A C9A 1_555 1_555
C23A C22A 1_555 1_555
H9A C23A 1_555 1_555
C24A C19A 1_555 1_555
Eu1_2 O3A 1_555 1_555
Eu1_3 O2A 1_555 1_555
Eu1_4 O3 1_555 1_555
Eu2_2 O8A 1_555 1_555
Eu2_3 O5A 1_555 1_555
Eu2_4 O4A 1_555 1_555
Eu2_5 O3 1_555 1_555
Eu2A_2 O3A 1_555 1_555
Eu2A_3 O4 1_555 1_555
Eu2A_4 O5 1_555 1_555
Eu2A_5 O8 1_555 1_555
O2A_2 Eu1 1_555 1_555
O3_2 Eu1 1_555 1_555
O3A_2 Eu2A 1_555 1_555
O3A_3 Eu1 1_555 1_555
O4_2 Eu2A 1_555 1_555
O4A_2 Eu2 1_555 1_555
O5_2 Eu2A 1_555 1_555
O5A_2 Eu2 1_555 1_555
O6_2 Eu2A 1_555 1_555
O6A_2 Eu2 1_555 1_555
O7_2 Eu2 1_555 1_555
O7A_2 Eu2A 1_555 1_555
O8_2 Eu2A 1_555 1_555
O8A_2 Eu2 1_555 1_555
O9A_2 Eu1 1_555 1_555
O10A_2 Eu1 1_555 1_555
Eu2 O3_2 1_555 1_555
O6 Eu2A_3 1_555 1_555
O7 Eu2_5 1_555 1_555
O9 C1 1_555 1_555
C9 C10 1_555 1_555
C17 C18 1_555 1_555
C21 C22 1_555 1_555
C23 C24 1_555 1_555
O6A Eu2_4 1_555 1_555
O9A Eu1_3 1_555 1_555
C15A C16A 1_555 1_555
C17A C18A 1_555 1_555
O7A Eu2A_2 1_555 1_555
O10A Eu1_3 1_555 1_555
C9A C10A 1_555 1_555
C21A C22A 1_555 1_555
C23A C24A 1_555 1_555
Eu1_3 O3A_2 1_555 1_555

#END
