
#######################################################################
#
#                 Cambridge Crystallographic Data Centre
#                                CCDC 
#
#######################################################################
#
# If this CIF has been generated from an entry in the Cambridge 
# Structural Database, then it will include bibliographic, chemical, 
# crystal, experimental, refinement or atomic coordinate data resulting 
# from the CCDC's data processing and validation procedures.
#
#######################################################################

data_VITZEF
_symmetry_cell_setting           triclinic
_symmetry_space_group_name_H-M   'P -1'
_symmetry_Int_Tables_number      2
_space_group_name_Hall           '-P 1'
loop_
_symmetry_equiv_pos_site_id
_symmetry_equiv_pos_as_xyz
1 x,y,z
2 -x,-y,-z
_cell_length_a                   11.647(2)
_cell_length_b                   12.247(2)
_cell_length_c                   13.604(3)
_cell_angle_alpha                65.01(3)
_cell_angle_beta                 67.88(3)
_cell_angle_gamma                88.32(3)
_cell_volume                     1609.79
loop_
_atom_site_label
_atom_site_type_symbol
_atom_site_fract_x
_atom_site_fract_y
_atom_site_fract_z
Sm1 Sm 0.5000 1.0000 0.5000
O1 O 0.4751(3) 1.0307(3) 0.3117(3)
O2 O 0.5403(3) 1.1900(3) 0.3197(3)
O3 O 0.2824(3) 0.9522(3) 0.5804(3)
O4 O 0.5673(3) 0.8423(2) 0.4421(2)
C1 C 0.4910(4) 0.8557(3) 0.7350(4)
Sm2 Sm 0.570525(19) 1.171174(17) 0.671858(17)
C2 C 0.7691(4) 1.1275(4) 0.4322(4)
C3 C 0.4923(4) 0.7727(4) 0.8524(3)
O5 O 0.7397(3) 1.3255(2) 0.5936(3)
O6 O 0.3524(3) 1.0969(4) 0.8070(3)
O7 O 0.7093(3) 1.1920(3) 0.4779(3)
O8 O 0.5004(3) 1.3023(3) 0.7760(3)
O9 O 0.5600(3) 1.1292(3) 0.8713(3)
O10 O 0.4748(3) 1.3319(3) 0.5556(3)
O11 O 0.7352(3) 1.0566(2) 0.7051(3)
C4 C 0.9082(4) 1.1373(3) 0.3928(3)
C5 C 0.4891(4) 0.8148(4) 0.9338(4)
C6 C 0.4962(4) 0.6500(4) 0.8795(4)
C7 C 0.9760(4) 1.2210(3) 0.4033(3)
C8 C 0.9683(4) 1.0514(4) 0.3575(4)
C9 C 0.4859(4) 0.7311(4) 1.0422(4)
H1 H 0.4891 0.8970 0.9157
C10 C 0.4977(4) 0.5645(4) 0.9864(4)
H2 H 0.4979 0.6240 0.8239
C11 C 1.1028(4) 1.2192(3) 0.3796(3)
H3 H 0.9360 1.2783 0.4264
H4 H 0.9235 0.9962 0.3496
C12 C 1.0928(4) 1.0486(4) 0.3345(3)
C13 C 0.4909(5) 0.6090(4) 1.0685(4)
C14 C 0.4752(4) 0.7705(4) 1.1364(4)
C15 C 1.1608(4) 1.1319(4) 0.3438(4)
C16 C 1.1752(4) 1.2981(3) 0.4005(4)
C17 C 1.1555(4) 0.9482(3) 0.3088(4)
H5 H 0.4898 0.5553 1.1418
H6 H 1.2459 1.1303 0.3262
C18 C 1.1585(4) 1.4197(4) 0.3745(4)
C19 C 1.2605(4) 1.2512(4) 0.4508(3)
O12 O 1.0826(3) 0.8689(3) 0.3103(3)
C20 C 1.2274(4) 1.4899(4) 0.3969(4)
H7 H 1.1009 1.4533 0.3421
C21 C 1.3300(4) 1.3223(4) 0.4725(4)
H8 H 1.2715 1.1702 0.4705
C22 C 1.2083(4) 1.6216(4) 0.3700(4)
C23 C 1.3134(4) 1.4433(4) 0.4439(4)
C24 C 1.4198(4) 1.2680(4) 0.5299(4)
O13 O 1.1420(3) 1.6702(3) 0.3132(3)
H9 H 1.3603 1.4923 0.4566
O1A O 0.5249(3) 0.9693(3) 0.6883(3)
O2A O 0.4597(3) 0.8100(3) 0.6803(3)
O3A O 0.7176(3) 1.0478(3) 0.4196(3)
O4A O 0.4327(3) 1.1577(2) 0.5579(2)
C10A C 0.5023(4) 0.4355(4) 1.0136(4)
O9A O 0.4400(3) 0.8708(3) 1.1287(3)
O8A O 0.4996(3) 0.6977(3) 1.2240(3)
C13A C 0.5091(5) 0.3910(4) 0.9315(4)
C6A C 0.5038(4) 0.3500(4) 1.1205(4)
O11A O 1.2648(3) 0.9434(2) 0.2949(3)
Sm2A Sm 0.429475(19) 0.828826(17) 1.328142(17)
H5A H 0.5102 0.4447 0.8582
C9A C 0.5141(4) 0.2689(4) 0.9578(4)
C3A C 0.5077(4) 0.2273(4) 1.1476(3)
H2A H 0.5021 0.3760 1.1761
Sm2A_2 Sm 1.429475(19) 0.828826(17) 0.328142(17)
C5A C 0.5109(4) 0.1852(4) 1.0662(4)
C14A C 0.5248(4) 0.2295(4) 0.8636(4)
C1A C 0.5090(4) 0.1443(3) 1.2650(4)
Sm2_2 Sm 0.570525(19) 0.171174(17) 0.671858(17)
H1A H 0.5109 0.1030 1.0843
O9_2 O 0.5600(3) 0.1292(3) 0.8713(3)
O8_2 O 0.5004(3) 0.3023(3) 0.7760(3)
O2_2 O 0.5403(3) 0.1900(3) 1.3197(3)
O1_2 O 0.4751(3) 0.0307(3) 1.3117(3)
O5A O 1.2603(3) 1.6745(2) 0.4064(3)
O4A_2 O 1.4327(3) 1.1577(2) 0.5579(2)
O10_2 O 1.4748(3) 1.3319(3) 0.5556(3)
Sm1_2 Sm 0.5000 0.0000 1.5000
Sm2A_3 Sm 0.429475(19) -0.171174(17) 1.328142(17)
Sm2A_4 Sm 1.429475(19) 1.828826(17) 0.328142(17)
Sm2_3 Sm 1.570525(19) 1.171174(17) 0.671858(17)
Sm1_3 Sm 1.5000 1.0000 0.5000
O4_2 O 0.5673(3) -0.1577(2) 1.4421(2)
O3_2 O 0.2824(3) -0.0478(3) 1.5804(3)
O5A_2 O 0.2603(3) -0.3255(2) 1.4064(3)
O7A O 0.2907(3) -0.1920(3) 1.5221(3)
O6A O 0.6476(3) -0.0969(4) 1.1930(3)
O9A_2 O 0.4400(3) -0.1292(3) 1.1287(3)
O10A O 0.5252(3) -0.3319(3) 1.4444(3)
O11A_2 O 0.2648(3) -0.0566(2) 1.2949(3)
O8A_2 O 0.4996(3) -0.3023(3) 1.2240(3)
C2A C 0.2309(4) -0.1275(4) 1.5678(4)
C4A C 0.0918(4) -0.1373(3) 1.6072(3)
C7A C 0.0240(4) -0.2210(3) 1.5967(3)
C8A C 0.0317(4) -0.0514(4) 1.6425(4)
C11A C -0.1028(4) -0.2192(3) 1.6204(3)
H3A H 0.0640 -0.2783 1.5736
C12A C -0.0928(4) -0.0486(4) 1.6655(3)
H4A H 0.0765 0.0038 1.6504
C15A C -0.1608(4) -0.1319(4) 1.6562(4)
C16A C -0.1752(4) -0.2981(3) 1.5995(4)
C17A C -0.1555(4) 0.0518(3) 1.6912(4)
H6A H -0.2459 -0.1303 1.6738
C19A C -0.2605(4) -0.2512(4) 1.5492(3)
C18A C -0.1585(4) -0.4197(4) 1.6255(4)
O12A O -0.0826(3) 0.1311(3) 1.6897(3)
O11_2 O -0.2648(3) 0.0566(2) 1.7051(3)
C21A C -0.3300(4) -0.3223(4) 1.5275(4)
H8A H -0.2715 -0.1702 1.5295
C20A C -0.2274(4) -0.4899(4) 1.6031(4)
H7A H -0.1009 -0.4533 1.6579
Sm2_4 Sm -0.429475(19) 0.171174(17) 1.671858(17)
C24A C -0.4198(4) -0.2680(4) 1.4701(4)
C23A C -0.3134(4) -0.4433(4) 1.5561(4)
C22A C -0.2083(4) -0.6216(4) 1.6300(4)
O4_3 O -0.4327(3) -0.1577(2) 1.4421(2)
O10A_2 O -0.4748(3) -0.3319(3) 1.4444(3)
H9A H -0.3603 -0.4923 1.5434
O13A O -0.1420(3) -0.6702(3) 1.6868(3)
O5_2 O -0.2603(3) -0.6745(2) 1.5936(3)
Sm1_4 Sm -0.5000 0.0000 1.5000
Sm2A_5 Sm -0.570525(19) -0.171174(17) 1.328142(17)
Sm2_5 Sm -0.429475(19) -0.828826(17) 1.671858(17)
loop_
_geom_bond_atom_site_label_1
_geom_bond_atom_site_label_2
_geom_bond_site_symmetry_1
_geom_bond_site_symmetry_2
Sm1 O1 1_555 1_555
O2 Sm1 1_555 1_555
O3 Sm1 1_555 1_555
O4 Sm1 1_555 1_555
C1 C3 1_555 1_555
Sm2 O5 1_555 1_555
C2 O7 1_555 1_555
C3 C5 1_555 1_555
O6 Sm2 1_555 1_555
O7 Sm2 1_555 1_555
O8 Sm2 1_555 1_555
O9 Sm2 1_555 1_555
O10 Sm2 1_555 1_555
O11 Sm2 1_555 1_555
C4 C2 1_555 1_555
C5 C9 1_555 1_555
C6 C3 1_555 1_555
C7 C4 1_555 1_555
C8 C4 1_555 1_555
C9 C13 1_555 1_555
H1 C5 1_555 1_555
C10 C6 1_555 1_555
H2 C6 1_555 1_555
C11 C7 1_555 1_555
H3 C7 1_555 1_555
H4 C8 1_555 1_555
C12 C8 1_555 1_555
C13 C10 1_555 1_555
C14 C9 1_555 1_555
C15 C11 1_555 1_555
C16 C11 1_555 1_555
C17 C12 1_555 1_555
H5 C13 1_555 1_555
H6 C15 1_555 1_555
C18 C16 1_555 1_555
C19 C16 1_555 1_555
O12 C17 1_555 1_555
C20 C18 1_555 1_555
H7 C18 1_555 1_555
C21 C19 1_555 1_555
H8 C19 1_555 1_555
C22 C20 1_555 1_555
C23 C20 1_555 1_555
C24 C21 1_555 1_555
O13 C22 1_555 1_555
H9 C23 1_555 1_555
O1A Sm1 1_555 1_555
O2A Sm1 1_555 1_555
O3A Sm1 1_555 1_555
O4A Sm1 1_555 1_555
C10A C10 1_555 1_555
O9A C14 1_555 1_555
O8A C14 1_555 1_555
C13A C10A 1_555 1_555
C6A C10A 1_555 1_555
O11A C17 1_555 1_555
Sm2A O9A 1_555 1_555
H5A C13A 1_555 1_555
C9A C13A 1_555 1_555
C3A C6A 1_555 1_555
H2A C6A 1_555 1_555
Sm2A_2 O11A 1_555 1_555
C5A C9A 1_555 1_555
C14A C9A 1_555 1_555
C1A C3A 1_555 1_555
Sm2_2 O9_2 1_555 1_555
H1A C5A 1_555 1_555
O9_2 C14A 1_555 1_555
O8_2 C14A 1_555 1_555
O2_2 C1A 1_555 1_555
O1_2 C1A 1_555 1_555
O5A C22 1_555 1_555
O4A_2 C24 1_555 1_555
O10_2 C24 1_555 1_555
Sm1_2 O2_2 1_555 1_555
Sm2A_3 O1_2 1_555 1_555
Sm2A_4 O5A 1_555 1_555
Sm2_3 O4A_2 1_555 1_555
Sm1_3 O4A_2 1_555 1_555
O4_2 Sm1_2 1_555 1_555
O3_2 Sm1_2 1_555 1_555
O5A_2 Sm2A_3 1_555 1_555
O7A Sm2A_3 1_555 1_555
O6A Sm2A_3 1_555 1_555
O9A_2 Sm2A_3 1_555 1_555
O10A Sm2A_3 1_555 1_555
O11A_2 Sm2A_3 1_555 1_555
O8A_2 Sm2A_3 1_555 1_555
C2A O3_2 1_555 1_555
C4A C2A 1_555 1_555
C7A C4A 1_555 1_555
C8A C4A 1_555 1_555
C11A C7A 1_555 1_555
H3A C7A 1_555 1_555
C12A C8A 1_555 1_555
H4A C8A 1_555 1_555
C15A C11A 1_555 1_555
C16A C11A 1_555 1_555
C17A C12A 1_555 1_555
H6A C15A 1_555 1_555
C19A C16A 1_555 1_555
C18A C16A 1_555 1_555
O12A C17A 1_555 1_555
O11_2 C17A 1_555 1_555
C21A C19A 1_555 1_555
H8A C19A 1_555 1_555
C20A C18A 1_555 1_555
H7A C18A 1_555 1_555
Sm2_4 O11_2 1_555 1_555
C24A C21A 1_555 1_555
C23A C21A 1_555 1_555
C22A C20A 1_555 1_555
O4_3 C24A 1_555 1_555
O10A_2 C24A 1_555 1_555
H9A C23A 1_555 1_555
O13A C22A 1_555 1_555
O5_2 C22A 1_555 1_555
Sm1_4 O4_3 1_555 1_555
Sm2A_5 O4_3 1_555 1_555
Sm2_5 O5_2 1_555 1_555
C1 O1A 1_555 1_555
C1 O2A 1_555 1_555
Sm2 O1A 1_555 1_555
Sm2 O4A 1_555 1_555
C2 O3A 1_555 1_555
C12 C15 1_555 1_555
C21 C23 1_555 1_555
O8A Sm2A 1_555 1_555
C3A C5A 1_555 1_555
Sm2_2 O8_2 1_555 1_555
O1_2 Sm1_2 1_555 1_555
O10_2 Sm2_3 1_555 1_555
Sm2A_3 O4_2 1_555 1_555
O7A C2A 1_555 1_555
C12A C15A 1_555 1_555
C20A C23A 1_555 1_555
O10A_2 Sm2A_5 1_555 1_555

#END
