
#######################################################################
#
#                 Cambridge Crystallographic Data Centre
#                                CCDC 
#
#######################################################################
#
# If this CIF has been generated from an entry in the Cambridge 
# Structural Database, then it will include bibliographic, chemical, 
# crystal, experimental, refinement or atomic coordinate data resulting 
# from the CCDC's data processing and validation procedures.
#
#######################################################################

data_VITZIJ
_symmetry_cell_setting           triclinic
_symmetry_space_group_name_H-M   'P -1'
_symmetry_Int_Tables_number      2
_space_group_name_Hall           '-P 1'
loop_
_symmetry_equiv_pos_site_id
_symmetry_equiv_pos_as_xyz
1 x,y,z
2 -x,-y,-z
_cell_length_a                   11.5976(11)
_cell_length_b                   12.2130(11)
_cell_length_c                   13.5187(12)
_cell_angle_alpha                65.039(6)
_cell_angle_beta                 68.351(6)
_cell_angle_gamma                87.858(6)
_cell_volume                     1597.52
loop_
_atom_site_label
_atom_site_type_symbol
_atom_site_fract_x
_atom_site_fract_y
_atom_site_fract_z
O1 O 0.9715(4) 0.5286(3) 0.3120(4)
O2 O 1.0647(4) 0.3448(3) 0.4443(4)
Dy1 Dy 1.0000 0.5000 0.5000
O3 O 0.7895(4) 0.4534(4) 0.5720(4)
O4 O 1.0393(5) 0.6847(4) 0.3217(4)
Dy2 Dy 1.07124(3) 0.66999(2) 0.67256(2)
C1 C 0.9937(6) 0.3591(5) 0.7335(5)
C2 C 1.2653(6) 0.6278(5) 0.4378(5)
O5 O 1.2362(4) 0.5572(3) 0.7062(4)
O6 O 0.9789(4) 0.8278(3) 0.5548(4)
O7 O 1.0580(5) 0.6296(3) 0.8692(4)
O8 O 0.9950(5) 0.7999(4) 0.7756(4)
O9 O 1.2082(4) 0.6943(4) 0.4830(4)
O10 O 0.8548(5) 0.5961(5) 0.8025(4)
O11 O 1.2338(4) 0.8225(3) 0.6010(4)
C3 C 0.9947(6) 0.2748(5) 0.8522(5)
C4 C 1.4060(5) 0.6383(5) 0.3939(5)
C5 C 0.9974(6) 0.1503(5) 0.8794(5)
C6 C 0.9927(6) 0.3166(5) 0.9338(5)
C7 C 1.4747(5) 0.7227(5) 0.4030(5)
C8 C 1.4655(6) 0.5533(5) 0.3573(5)
C9 C 0.9983(7) 0.0657(5) 0.9870(5)
H1 H 0.9986 0.1240 0.8237
C10 C 0.9884(7) 0.2326(5) 1.0437(5)
H2 H 0.9942 0.3993 0.9150
C11 C 1.6013(6) 0.7195(4) 0.3783(5)
H3 H 1.4353 0.7810 0.4257
C12 C 1.5904(6) 0.5498(5) 0.3322(5)
H4 H 1.4199 0.4983 0.3499
C13 C 0.9942(6) 0.1081(5) 1.0684(5)
C14 C 0.9791(6) 0.2706(5) 1.1379(5)
C15 C 1.6754(6) 0.8006(5) 0.3974(5)
C16 C 1.6590(6) 0.6343(5) 0.3415(5)
C17 C 1.6543(6) 0.4494(5) 0.3069(5)
H5 H 0.9953 0.0535 1.1411
C18 C 1.7626(5) 0.7517(5) 0.4488(5)
C19 C 1.6597(6) 0.9215(5) 0.3707(5)
H6 H 1.7446 0.6332 0.3227
O12 O 1.5836(4) 0.3712(4) 0.3048(4)
C20 C 1.8338(6) 0.8222(5) 0.4697(5)
H7 H 1.7728 0.6702 0.4693
H8 H 1.6019 0.9554 0.3376
C21 C 1.7288(6) 0.9928(5) 0.3925(6)
C22 C 1.9227(5) 0.7670(5) 0.5283(5)
C23 C 1.8173(6) 0.9433(5) 0.4404(5)
C24 C 1.7116(6) 1.1223(5) 0.3654(6)
H9 H 1.8654 0.9919 0.4526
O13 O 1.6416(5) 1.1716(4) 0.3115(5)
O1A O 1.0285(4) 0.4714(3) 0.6880(4)
O2A O 0.9353(4) 0.6552(3) 0.5557(4)
O3A O 1.2105(4) 0.5466(4) 0.4280(4)
O4A O 0.9607(5) 0.3153(4) 0.6783(4)
C9A C 1.0017(7) -0.0657(5) 1.0130(5)
Dy2_2 Dy 1.07124(3) -0.33001(2) 0.67256(2)
C5A C 1.0026(6) -0.1503(5) 1.1206(5)
C13A C 1.0058(6) -0.1081(5) 0.9316(5)
O7A O 0.9420(5) 0.3704(3) 1.1308(4)
O8A O 1.0050(5) 0.2001(4) 1.2244(4)
O5A O 1.7638(4) 0.4428(3) 0.2938(4)
O7_2 O 1.0580(5) -0.3704(3) 0.8692(4)
O8_2 O 0.9950(5) -0.2001(4) 0.7756(4)
C3A C 1.0053(6) -0.2748(5) 1.1478(5)
H1A H 1.0014 -0.1240 1.1763
C10A C 1.0116(7) -0.2326(5) 0.9563(5)
H5A H 1.0047 -0.0535 0.8589
Dy2A Dy 0.92876(3) 0.33001(2) 1.32744(2)
Dy2A_2 Dy 1.92876(3) 0.33001(2) 0.32744(2)
C14A C 1.0209(6) -0.2706(5) 0.8621(5)
C6A C 1.0073(6) -0.3166(5) 1.0662(5)
C1A C 1.0063(6) -0.3591(5) 1.2665(5)
Dy1_2 Dy 2.0000 0.5000 0.5000
H2A H 1.0058 -0.3993 1.0850
O1_2 O 0.9715(4) -0.4714(3) 1.3120(4)
O4_2 O 1.0393(5) -0.3153(4) 1.3217(4)
O2A_2 O 1.9353(4) 0.6552(3) 0.5557(4)
O6_2 O 1.9789(4) 0.8278(3) 0.5548(4)
O11A O 1.7662(4) 1.1775(3) 0.3990(4)
Dy1_3 Dy 1.0000 -0.5000 1.5000
Dy2A_3 Dy 0.92876(3) -0.66999(2) 1.32744(2)
Dy2_3 Dy 2.07124(3) 0.66999(2) 0.67256(2)
Dy2A_4 Dy 1.92876(3) 1.33001(2) 0.32744(2)
O3_2 O 0.7895(4) -0.5466(4) 1.5720(4)
O2_2 O 1.0647(4) -0.6552(3) 1.4443(4)
O11A_2 O 0.7662(4) -0.8225(3) 1.3990(4)
O9A O 0.7918(4) -0.6943(4) 1.5170(4)
O10A O 1.1452(5) -0.5961(5) 1.1975(4)
O7A_2 O 0.9420(5) -0.6296(3) 1.1308(4)
O5A_2 O 0.7638(4) -0.5572(3) 1.2938(4)
O6A O 1.0211(4) -0.8278(3) 1.4452(4)
O8A_2 O 1.0050(5) -0.7999(4) 1.2244(4)
C2A C 0.7347(6) -0.6278(5) 1.5622(5)
C4A C 0.5940(5) -0.6383(5) 1.6061(5)
C8A C 0.5345(6) -0.5533(5) 1.6427(5)
C7A C 0.5253(5) -0.7227(5) 1.5970(5)
C12A C 0.4096(6) -0.5498(5) 1.6678(5)
H4A H 0.5801 -0.4983 1.6501
C11A C 0.3987(6) -0.7195(4) 1.6217(5)
H3A H 0.5647 -0.7810 1.5743
C17A C 0.3457(6) -0.4494(5) 1.6931(5)
C16A C 0.3410(6) -0.6343(5) 1.6585(5)
C15A C 0.3246(6) -0.8006(5) 1.6026(5)
O5_2 O 0.2362(4) -0.4428(3) 1.7062(4)
O12A O 0.4164(4) -0.3712(4) 1.6952(4)
H6A H 0.2554 -0.6332 1.6773
C19A C 0.3403(6) -0.9215(5) 1.6293(5)
C18A C 0.2374(5) -0.7517(5) 1.5512(5)
Dy2_4 Dy 0.07124(3) -0.33001(2) 1.67256(2)
C21A C 0.2712(6) -0.9928(5) 1.6075(6)
H8A H 0.3981 -0.9554 1.6624
H7A H 0.2272 -0.6702 1.5307
C20A C 0.1662(6) -0.8222(5) 1.5303(5)
C24A C 0.2884(6) -1.1223(5) 1.6346(6)
C23A C 0.1827(6) -0.9433(5) 1.5596(5)
C22A C 0.0773(5) -0.7670(5) 1.4717(5)
O11_2 O 0.2338(4) -1.1775(3) 1.6010(4)
O13A O 0.3584(5) -1.1716(4) 1.6885(5)
H9A H 0.1346 -0.9919 1.5474
O2_3 O 0.0647(4) -0.6552(3) 1.4443(4)
O6A_2 O 0.0211(4) -0.8278(3) 1.4452(4)
Dy2_5 Dy 0.07124(3) -1.33001(2) 1.67256(2)
Dy1_4 Dy 0.0000 -0.5000 1.5000
Dy2A_5 Dy -0.07124(3) -0.66999(2) 1.32744(2)
loop_
_geom_bond_atom_site_label_1
_geom_bond_atom_site_label_2
_geom_bond_site_symmetry_1
_geom_bond_site_symmetry_2
O1 Dy1 1_555 1_555
O2 Dy1 1_555 1_555
Dy1 O3 1_555 1_555
O4 Dy1 1_555 1_555
Dy2 O5 1_555 1_555
C1 C3 1_555 1_555
C2 O9 1_555 1_555
O6 Dy2 1_555 1_555
O7 Dy2 1_555 1_555
O8 Dy2 1_555 1_555
O9 Dy2 1_555 1_555
O10 Dy2 1_555 1_555
O11 Dy2 1_555 1_555
C3 C5 1_555 1_555
C4 C2 1_555 1_555
C5 C9 1_555 1_555
C6 C3 1_555 1_555
C7 C4 1_555 1_555
C8 C4 1_555 1_555
C9 C13 1_555 1_555
H1 C5 1_555 1_555
C10 C6 1_555 1_555
H2 C6 1_555 1_555
C11 C7 1_555 1_555
H3 C7 1_555 1_555
C12 C8 1_555 1_555
H4 C8 1_555 1_555
C13 C10 1_555 1_555
C14 C10 1_555 1_555
C15 C11 1_555 1_555
C16 C11 1_555 1_555
C17 C12 1_555 1_555
H5 C13 1_555 1_555
C18 C15 1_555 1_555
C19 C15 1_555 1_555
H6 C16 1_555 1_555
O12 C17 1_555 1_555
C20 C18 1_555 1_555
H7 C18 1_555 1_555
H8 C19 1_555 1_555
C21 C19 1_555 1_555
C22 C20 1_555 1_555
C23 C20 1_555 1_555
C24 C21 1_555 1_555
H9 C23 1_555 1_555
O13 C24 1_555 1_555
O1A Dy1 1_555 1_555
O2A Dy1 1_555 1_555
O3A Dy1 1_555 1_555
O4A Dy1 1_555 1_555
C9A C9 1_555 1_555
Dy2_2 O7_2 1_555 1_555
C5A C9A 1_555 1_555
C13A C9A 1_555 1_555
O7A C14 1_555 1_555
O8A C14 1_555 1_555
O5A C17 1_555 1_555
O7_2 C14A 1_555 1_555
O8_2 Dy2_2 1_555 1_555
C3A C5A 1_555 1_555
H1A C5A 1_555 1_555
C10A C13A 1_555 1_555
H5A C13A 1_555 1_555
Dy2A O7A 1_555 1_555
Dy2A_2 O5A 1_555 1_555
C14A O8_2 1_555 1_555
C6A C3A 1_555 1_555
C1A C3A 1_555 1_555
Dy1_2 O2A_2 1_555 1_555
H2A C6A 1_555 1_555
O1_2 C1A 1_555 1_555
O4_2 C1A 1_555 1_555
O2A_2 C22 1_555 1_555
O6_2 C22 1_555 1_555
O11A C24 1_555 1_555
Dy1_3 O1_2 1_555 1_555
Dy2A_3 O1_2 1_555 1_555
Dy2_3 O2A_2 1_555 1_555
Dy2A_4 O11A 1_555 1_555
O3_2 Dy1_3 1_555 1_555
O2_2 Dy1_3 1_555 1_555
O11A_2 Dy2A_3 1_555 1_555
O9A Dy2A_3 1_555 1_555
O10A Dy2A_3 1_555 1_555
O7A_2 Dy2A_3 1_555 1_555
O5A_2 Dy2A_3 1_555 1_555
O6A Dy2A_3 1_555 1_555
O8A_2 Dy2A_3 1_555 1_555
C2A O3_2 1_555 1_555
C4A C2A 1_555 1_555
C8A C4A 1_555 1_555
C7A C4A 1_555 1_555
C12A C8A 1_555 1_555
H4A C8A 1_555 1_555
C11A C7A 1_555 1_555
H3A C7A 1_555 1_555
C17A C12A 1_555 1_555
C16A C12A 1_555 1_555
C15A C11A 1_555 1_555
O5_2 C17A 1_555 1_555
O12A C17A 1_555 1_555
H6A C16A 1_555 1_555
C19A C15A 1_555 1_555
C18A C15A 1_555 1_555
Dy2_4 O5_2 1_555 1_555
C21A C19A 1_555 1_555
H8A C19A 1_555 1_555
H7A C18A 1_555 1_555
C20A C18A 1_555 1_555
C24A C21A 1_555 1_555
C23A C21A 1_555 1_555
C22A C20A 1_555 1_555
O11_2 C24A 1_555 1_555
O13A C24A 1_555 1_555
H9A C23A 1_555 1_555
O2_3 C22A 1_555 1_555
O6A_2 C22A 1_555 1_555
Dy2_5 O11_2 1_555 1_555
Dy1_4 O2_3 1_555 1_555
Dy2A_5 O2_3 1_555 1_555
Dy2 O1A 1_555 1_555
Dy2 O2A 1_555 1_555
C1 O1A 1_555 1_555
C1 O4A 1_555 1_555
C2 O3A 1_555 1_555
C12 C16 1_555 1_555
C21 C23 1_555 1_555
O8A Dy2A 1_555 1_555
C10A C14A 1_555 1_555
C10A C6A 1_555 1_555
O4_2 Dy1_3 1_555 1_555
O6_2 Dy2_3 1_555 1_555
Dy2A_3 O2_2 1_555 1_555
O9A C2A 1_555 1_555
C11A C16A 1_555 1_555
C20A C23A 1_555 1_555
O6A_2 Dy2A_5 1_555 1_555

#END
