
#######################################################################
#
#                 Cambridge Crystallographic Data Centre
#                                CCDC 
#
#######################################################################
#
# If this CIF has been generated from an entry in the Cambridge 
# Structural Database, then it will include bibliographic, chemical, 
# crystal, experimental, refinement or atomic coordinate data resulting 
# from the CCDC's data processing and validation procedures.
#
#######################################################################

data_VITZOP
_symmetry_cell_setting           monoclinic
_symmetry_space_group_name_H-M   'C 2/c'
_symmetry_Int_Tables_number      15
_space_group_name_Hall           '-C 2yn'
loop_
_symmetry_equiv_pos_site_id
_symmetry_equiv_pos_as_xyz
1 x,y,z
2 -x,y,1/2-z
3 1/2+x,1/2+y,z
4 1/2-x,1/2+y,1/2-z
5 -x,-y,-z
6 x,-y,1/2+z
7 1/2-x,1/2-y,-z
8 1/2+x,1/2-y,1/2+z
_cell_length_a                   19.318(4)
_cell_length_b                   14.082(3)
_cell_length_c                   8.8793(18)
_cell_angle_alpha                90
_cell_angle_beta                 100.31(3)
_cell_angle_gamma                90
_cell_volume                     2376.49
loop_
_atom_site_label
_atom_site_type_symbol
_atom_site_fract_x
_atom_site_fract_y
_atom_site_fract_z
O1 O 0.19967(11) 0.30406(14) 0.1467(2)
O2 O 0.09074(11) 0.25276(15) 0.0893(3)
C1 C 0.13606(16) 0.31634(19) 0.0833(3)
C2 C 0.5000 0.6330(3) 0.2500
O3 O 0.30365(15) 0.62736(16) 0.4930(3)
Er1 Er 0.328467(6) 0.651634(7) 0.241836(13)
O4 O 0.21438(12) 0.66769(15) 0.1335(3)
O5 O 0.14880(12) 0.73893(13) -0.0656(2)
O6 O 0.31189(14) 0.48837(14) 0.2787(3)
C3 C 0.12755(15) 0.57595(18) -0.0266(3)
O7 O 0.44270(11) 0.59175(16) 0.2513(3)
C4 C 0.16701(15) 0.66745(18) 0.0168(3)
O8 O 0.32601(15) 0.43818(14) 0.5171(3)
C5 C 0.30864(17) 0.4261(2) 0.3778(3)
C6 C 0.15136(15) 0.49123(19) 0.0460(3)
H1 H 0.1915 0.4903 0.1215
C7 C 0.06882(15) 0.57657(18) -0.1428(3)
H2 H 0.0543 0.6334 -0.1918
C8 C 0.11385(15) 0.40789(19) 0.0032(3)
C9 C 0.03120(15) 0.49317(19) -0.1875(3)
C10 C 0.05401(16) 0.41034(19) -0.1092(3)
H3 H 0.0283 0.3548 -0.1329
O1A O -0.19967(11) 0.30406(14) -0.6467(2)
O2A O -0.09074(11) 0.25276(15) -0.5893(3)
C1A C -0.13606(16) 0.31634(19) -0.5833(3)
O4A O -0.21438(12) 0.66769(15) -0.6335(3)
C3A C -0.12755(15) 0.57595(18) -0.4734(3)
C4A C -0.16701(15) 0.66745(18) -0.5168(3)
C6A C -0.15136(15) 0.49123(19) -0.5460(3)
H1A H -0.1915 0.4903 -0.6215
C7A C -0.06882(15) 0.57657(18) -0.3572(3)
H2A H -0.0543 0.6334 -0.3082
C8A C -0.11385(15) 0.40789(19) -0.5032(3)
C9A C -0.03120(15) 0.49317(19) -0.3125(3)
C10A C -0.05401(16) 0.41034(19) -0.3908(3)
H3A H -0.0283 0.3548 -0.3671
O5A O -0.14880(12) 0.73893(13) -0.4344(2)
O7A O 0.55730(11) 0.59175(16) 0.2487(3)
O3A O -0.30365(15) 0.62736(16) -0.9930(3)
Er1A Er -0.328467(6) 0.651634(7) -0.741836(13)
O6A O -0.31189(14) 0.48837(14) -0.7787(3)
O8A O -0.32601(15) 0.43818(14) -1.0171(3)
C5A C -0.30864(17) 0.4261(2) -0.8778(3)
O1B O -0.30033(11) 0.80406(14) -0.8533(2)
O1C O 0.30033(11) 0.80406(14) 0.3533(2)
O2B O -0.40926(11) 0.75276(15) -0.9107(3)
O2C O 0.40926(11) 0.75276(15) 0.4107(3)
Er1A_2 Er 0.671533(6) 0.651634(7) 0.258164(13)
Er1B Er -0.171533(6) 0.151634(7) -0.758164(13)
Er1C Er 0.171533(6) 0.151634(7) 0.258164(13)
Er1D Er -0.328467(6) 0.348366(7) -1.241836(13)
Er1E Er 0.328467(6) 0.348366(7) 0.741836(13)
Er1F Er 0.171533(6) 0.848366(7) -0.241836(13)
Er1G Er -0.171533(6) 0.848366(7) -0.258164(13)
O5F O 0.35120(12) 0.76107(13) 0.0656(2)
O5G O -0.35120(12) 0.76107(13) -0.5656(2)
O7A_2 O -0.44270(11) 0.59175(16) -0.7513(3)
O8D O -0.32601(15) 0.56182(14) -0.5171(3)
O8E O 0.32601(15) 0.56182(14) 0.0171(3)
loop_
_geom_bond_atom_site_label_1
_geom_bond_atom_site_label_2
_geom_bond_site_symmetry_1
_geom_bond_site_symmetry_2
O1 C1 1_555 1_555
O2 C1 1_555 1_555
C1 C8 1_555 1_555
C2 O7 1_555 1_555
O3 Er1 1_555 1_555
Er1 O4 1_555 1_555
O4 C4 1_555 1_555
O5 C4 1_555 1_555
O6 Er1 1_555 1_555
C3 C4 1_555 1_555
O7 Er1 1_555 1_555
O8 C5 1_555 1_555
C5 O6 1_555 1_555
C6 C3 1_555 1_555
H1 C6 1_555 1_555
C7 C3 1_555 1_555
H2 C7 1_555 1_555
C8 C6 1_555 1_555
C9 C7 1_555 1_555
C10 C8 1_555 1_555
H3 C10 1_555 1_555
O1A C1A 1_555 1_555
O2A C1A 1_555 1_555
C1A C8A 1_555 1_555
O4A C4A 1_555 1_555
C3A C4A 1_555 1_555
C4A O5A 1_555 1_555
C6A C3A 1_555 1_555
H1A C6A 1_555 1_555
C7A C3A 1_555 1_555
H2A C7A 1_555 1_555
C8A C6A 1_555 1_555
C9A C9 1_555 1_555
C10A C8A 1_555 1_555
H3A C10A 1_555 1_555
O5A Er1G 1_555 1_555
O7A C2 1_555 1_555
O3A Er1A 1_555 1_555
Er1A O4A 1_555 1_555
O6A Er1A 1_555 1_555
O8A C5A 1_555 1_555
C5A O6A 1_555 1_555
O1B Er1A 1_555 1_555
O1C Er1 1_555 1_555
O2B Er1A 1_555 1_555
O2C Er1 1_555 1_555
Er1A_2 O7A 1_555 1_555
Er1B O1A 1_555 1_555
Er1C O1 1_555 1_555
Er1D O8A 1_555 1_555
Er1E O8 1_555 1_555
Er1F O5 1_555 1_555
O5F Er1 1_555 1_555
O5G Er1A 1_555 1_555
O7A_2 Er1A 1_555 1_555
O8D Er1A 1_555 1_555
O8E Er1 1_555 1_555
O2 Er1C 1_555 1_555
C9 C10 1_555 1_555
O2A Er1B 1_555 1_555
C7A C9A 1_555 1_555
C9A C10A 1_555 1_555

#END
