
#######################################################################
#
#                 Cambridge Crystallographic Data Centre
#                                CCDC 
#
#######################################################################
#
# If this CIF has been generated from an entry in the Cambridge 
# Structural Database, then it will include bibliographic, chemical, 
# crystal, experimental, refinement or atomic coordinate data resulting 
# from the CCDC's data processing and validation procedures.
#
#######################################################################

data_VITZAB
_symmetry_cell_setting           triclinic
_symmetry_space_group_name_H-M   'P -1'
_symmetry_Int_Tables_number      2
_space_group_name_Hall           '-P 1'
loop_
_symmetry_equiv_pos_site_id
_symmetry_equiv_pos_as_xyz
1 x,y,z
2 -x,-y,-z
_cell_length_a                   11.609(2)
_cell_length_b                   12.227(2)
_cell_length_c                   13.554(3)
_cell_angle_alpha                65.00(3)
_cell_angle_beta                 69.14(3)
_cell_angle_gamma                87.75(3)
_cell_volume                     1615.24
loop_
_atom_site_label
_atom_site_type_symbol
_atom_site_fract_x
_atom_site_fract_y
_atom_site_fract_z
O1 O 0.6410(5) 0.9024(6) 0.2005(5)
O2 O 0.5619(5) 1.1299(4) -0.1306(4)
O3 O 0.4986(5) 1.3006(4) -0.2244(4)
C1 C 0.5238(6) 1.2287(5) -0.1363(5)
O4 O 1.2908(4) 0.8067(4) 0.5155(4)
O5 O 1.2891(4) 0.9537(4) 0.5705(4)
C2 C 1.2362(5) 0.8728(5) 0.5605(5)
C3 C 1.0264(5) 0.7785(5) 0.5953(5)
H1 H 1.0657 0.7211 0.5717
C4 C 1.0958(5) 0.8626(5) 0.6043(5)
C5 C 1.0375(5) 0.9487(5) 0.6400(5)
H2 H 1.0836 1.0045 0.6460
O6 O 0.7388(4) 1.0552(4) 0.7088(4)
O7 O 0.9202(4) 1.1299(4) 0.6919(5)
C6 C 0.8496(6) 1.0521(5) 0.6926(5)
C7 C 0.9113(5) 0.9511(5) 0.6665(5)
C8 C 0.8427(5) 0.8671(5) 0.6576(5)
H3 H 0.7576 0.8688 0.6763
C9 C 0.8990(5) 0.7800(5) 0.6211(5)
O8 O 0.7331(4) 0.3220(4) 0.6035(4)
C10 C 0.7892(6) 0.3777(6) 0.6344(6)
C11 C 0.7714(6) 0.5072(5) 0.6086(6)
C12 C 0.6826(6) 0.5559(6) 0.5606(6)
H4 H 0.6341 0.5074 0.5488
C13 C 0.6668(6) 0.6786(5) 0.5304(6)
Tb1 Tb 0.5000 1.0000 0.5000
Tb2 Tb 0.42632(2) 0.83031(2) 0.32690(2)
O9 O 0.5637(4) 0.8453(4) 0.4441(4)
O10 O 0.4681(5) 1.0297(4) 0.3129(4)
O11 O 0.5213(4) 0.6715(4) 0.4452(4)
O12 O 0.5339(6) 1.1856(4) 0.3233(4)
O13 O 0.8595(5) 0.3283(4) 0.6910(5)
C14 C 0.5023(5) 1.1412(5) 0.2667(5)
C15 C 0.5774(5) 0.7330(5) 0.4714(5)
C16 C 0.8254(5) 0.7006(5) 0.6021(5)
C17 C 0.5039(6) 1.2257(5) 0.1487(5)
C18 C 0.8418(6) 0.5791(5) 0.6290(6)
H5 H 0.9008 0.5456 0.6610
C19 C 0.5078(6) 1.1854(5) 0.0663(5)
H6 H 0.5078 1.1031 0.0844
C20 C 0.7380(5) 0.7491(5) 0.5514(6)
H7 H 0.7272 0.8305 0.5311
C21 C 0.5013(7) 1.3476(6) 0.1220(5)
H8 H 0.4995 1.3733 0.1780
C22 C 0.5011(7) 1.4337(5) 0.0143(5)
C23 C 0.5118(7) 1.2686(6) -0.0432(5)
C24 C 0.5087(7) 1.3905(6) -0.0681(6)
H9 H 0.5117 1.4455 -0.1420
O2A O 0.4381(5) 1.8701(4) 0.1306(4)
O3A O 0.5014(5) 1.6994(4) 0.2244(4)
C1A C 0.4762(6) 1.7713(5) 0.1363(5)
O10A O 0.5319(5) 1.9703(4) -0.3129(4)
O12A O 0.4661(6) 1.8144(4) -0.3233(4)
C14A C 0.4977(5) 1.8588(5) -0.2667(5)
C17A C 0.4961(6) 1.7743(5) -0.1487(5)
C19A C 0.4922(6) 1.8146(5) -0.0663(5)
H6A H 0.4922 1.8969 -0.0844
C21A C 0.4987(7) 1.6524(6) -0.1220(5)
H8A H 0.5005 1.6267 -0.1780
C22A C 0.4989(7) 1.5663(5) -0.0143(5)
C23A C 0.4882(7) 1.7314(6) 0.0432(5)
C24A C 0.4913(7) 1.6095(6) 0.0681(6)
H9A H 0.4883 1.5545 0.1420
O1A O 0.3590(5) 0.0976(6) 0.7995(5)
O4A O -0.2908(4) 0.1933(4) 0.4845(4)
O5A O -0.2891(4) 0.0463(4) 0.4295(4)
C2A C -0.2362(5) 0.1272(5) 0.4395(5)
C3A C -0.0264(5) 0.2215(5) 0.4047(5)
H1A H -0.0657 0.2789 0.4283
C4A C -0.0958(5) 0.1374(5) 0.3957(5)
C5A C -0.0375(5) 0.0513(5) 0.3600(5)
H2A H -0.0836 -0.0045 0.3540
O6A O 0.2612(4) -0.0552(4) 0.2912(4)
O7A O 0.0798(4) -0.1299(4) 0.3081(5)
C6A C 0.1504(6) -0.0521(5) 0.3074(5)
C7A C 0.0887(5) 0.0489(5) 0.3335(5)
C8A C 0.1573(5) 0.1329(5) 0.3424(5)
H3A H 0.2424 0.1312 0.3237
C9A C 0.1010(5) 0.2200(5) 0.3789(5)
O8A O 0.2669(4) 0.6780(4) 0.3965(4)
C10A C 0.2108(6) 0.6223(6) 0.3656(6)
C11A C 0.2286(6) 0.4928(5) 0.3914(6)
C12A C 0.3174(6) 0.4441(6) 0.4394(6)
H4A H 0.3659 0.4926 0.4512
C13A C 0.3332(6) 0.3214(5) 0.4696(6)
Tb2A Tb 0.57368(2) 0.16969(2) 0.67310(2)
O9A O 0.4363(4) 0.1547(4) 0.5559(4)
O11A O 0.4787(4) 0.3285(4) 0.5548(4)
O13A O 0.1405(5) 0.6717(4) 0.3090(5)
C15A C 0.4226(5) 0.2670(5) 0.5286(5)
C16A C 0.1746(5) 0.2994(5) 0.3979(5)
C18A C 0.1582(6) 0.4209(5) 0.3710(6)
H5A H 0.0992 0.4544 0.3390
C20A C 0.2620(5) 0.2509(5) 0.4486(6)
H7A H 0.2728 0.1695 0.4689
O2_2 O 0.5619(5) 0.1299(4) 0.8694(4)
O2A_2 O 0.4381(5) 0.8701(4) 0.1306(4)
O3_2 O 0.4986(5) 0.3006(4) 0.7756(4)
O3A_2 O 0.5014(5) 0.6994(4) 0.2244(4)
O4_2 O 0.2908(4) 0.8067(4) 0.5155(4)
O4A_2 O 0.7092(4) 0.1933(4) 0.4845(4)
O5_2 O 0.2891(4) 0.9537(4) 0.5705(4)
O5A_2 O 0.7109(4) 1.0463(4) 0.4295(4)
O6_2 O 0.7388(4) 0.0552(4) 0.7088(4)
O6A_2 O 0.2612(4) 0.9448(4) 0.2912(4)
Tb1_2 Tb -0.5000 0.0000 0.5000
Tb1_3 Tb 0.5000 0.0000 0.5000
Tb1_4 Tb 0.5000 2.0000 -0.5000
Tb1_5 Tb 1.5000 1.0000 0.5000
Tb2_2 Tb 0.42632(2) -0.16969(2) 0.32690(2)
Tb2_3 Tb 0.42632(2) 1.83031(2) 0.32690(2)
Tb2_4 Tb 1.42632(2) 0.83031(2) 0.32690(2)
Tb2A_2 Tb -0.42632(2) 0.16969(2) 0.67310(2)
Tb2A_3 Tb 0.57368(2) 1.16969(2) -0.32690(2)
Tb2A_4 Tb 0.57368(2) 1.16969(2) 0.67310(2)
Tb2A_5 Tb 0.57368(2) 2.16969(2) -0.32690(2)
O9A_2 O 0.4363(4) 1.1547(4) 0.5559(4)
O10A_2 O 0.5319(5) -0.0297(4) 0.6871(4)
O10A_3 O 0.5319(5) 0.9703(4) 0.6871(4)
O12A_2 O 0.4661(6) 0.8144(4) 0.6767(4)
loop_
_geom_bond_atom_site_label_1
_geom_bond_atom_site_label_2
_geom_bond_site_symmetry_1
_geom_bond_site_symmetry_2
O1 Tb2 1_555 1_555
O2 C1 1_555 1_555
O3 C1 1_555 1_555
C1 C23 1_555 1_555
O4 C2 1_555 1_555
O5 C2 1_555 1_555
C2 C4 1_555 1_555
C3 H1 1_555 1_555
C4 C3 1_555 1_555
C5 C4 1_555 1_555
H2 C5 1_555 1_555
O6 C6 1_555 1_555
O7 C6 1_555 1_555
C6 C7 1_555 1_555
C7 C5 1_555 1_555
C8 C7 1_555 1_555
H3 C8 1_555 1_555
C9 C3 1_555 1_555
O8 C10 1_555 1_555
C10 C11 1_555 1_555
C11 C12 1_555 1_555
C12 H4 1_555 1_555
C13 C12 1_555 1_555
Tb1 O9 1_555 1_555
Tb2 O9 1_555 1_555
O9 C15 1_555 1_555
O10 Tb1 1_555 1_555
O11 Tb2 1_555 1_555
O12 Tb1 1_555 1_555
O13 C10 1_555 1_555
C14 O10 1_555 1_555
C15 C13 1_555 1_555
C16 C9 1_555 1_555
C17 C14 1_555 1_555
C18 C11 1_555 1_555
H5 C18 1_555 1_555
C19 C17 1_555 1_555
H6 C19 1_555 1_555
C20 C13 1_555 1_555
H7 C20 1_555 1_555
C21 C17 1_555 1_555
H8 C21 1_555 1_555
C22 C21 1_555 1_555
C23 C19 1_555 1_555
C24 C22 1_555 1_555
H9 C24 1_555 1_555
O2A C1A 1_555 1_555
O3A C1A 1_555 1_555
C1A C23A 1_555 1_555
O10A C14A 1_555 1_555
O12A C14A 1_555 1_555
C14A C17A 1_555 1_555
C17A C19A 1_555 1_555
C19A H6A 1_555 1_555
C21A C17A 1_555 1_555
H8A C21A 1_555 1_555
C22A C22 1_555 1_555
C23A C19A 1_555 1_555
C24A C22A 1_555 1_555
H9A C24A 1_555 1_555
O1A Tb2A 1_555 1_555
O4A C2A 1_555 1_555
O5A C2A 1_555 1_555
C2A C4A 1_555 1_555
C3A H1A 1_555 1_555
C4A C3A 1_555 1_555
C5A C4A 1_555 1_555
H2A C5A 1_555 1_555
O6A C6A 1_555 1_555
O7A C6A 1_555 1_555
C6A C7A 1_555 1_555
C7A C5A 1_555 1_555
C8A C7A 1_555 1_555
H3A C8A 1_555 1_555
C9A C3A 1_555 1_555
O8A Tb2 1_555 1_555
C10A O8A 1_555 1_555
C11A C10A 1_555 1_555
C12A C11A 1_555 1_555
H4A C12A 1_555 1_555
C13A C12A 1_555 1_555
Tb2A O8 1_555 1_555
O9A Tb2A 1_555 1_555
O11A Tb2A 1_555 1_555
O13A C10A 1_555 1_555
C15A C13A 1_555 1_555
C16A C9A 1_555 1_555
C18A C11A 1_555 1_555
H5A C18A 1_555 1_555
C20A C13A 1_555 1_555
H7A C20A 1_555 1_555
O2_2 Tb2A 1_555 1_555
O2A_2 Tb2 1_555 1_555
O3_2 Tb2A 1_555 1_555
O3A_2 Tb2 1_555 1_555
O4_2 Tb2 1_555 1_555
O4A_2 Tb2A 1_555 1_555
O5_2 Tb1 1_555 1_555
O5A_2 Tb1 1_555 1_555
O6_2 Tb2A 1_555 1_555
O6A_2 Tb2 1_555 1_555
Tb1_2 O5A 1_555 1_555
Tb1_3 O9A 1_555 1_555
Tb1_4 O10A 1_555 1_555
Tb1_5 O5 1_555 1_555
Tb2_2 O6A 1_555 1_555
Tb2_3 O2A 1_555 1_555
Tb2_4 O4 1_555 1_555
Tb2A_2 O4A 1_555 1_555
Tb2A_3 O2 1_555 1_555
Tb2A_4 O6 1_555 1_555
Tb2A_5 O10A 1_555 1_555
O9A_2 Tb1 1_555 1_555
O10A_2 Tb2A 1_555 1_555
O10A_3 Tb1 1_555 1_555
O12A_2 Tb1 1_555 1_555
O3 Tb2A_3 1_555 1_555
C8 C9 1_555 1_555
Tb2 O10 1_555 1_555
O11 C15 1_555 1_555
O12 C14 1_555 1_555
C16 C18 1_555 1_555
C16 C20 1_555 1_555
C23 C24 1_555 1_555
O3A Tb2_3 1_555 1_555
O12A Tb1_4 1_555 1_555
C21A C22A 1_555 1_555
C23A C24A 1_555 1_555
C8A C9A 1_555 1_555
O9A C15A 1_555 1_555
O11A C15A 1_555 1_555
C16A C18A 1_555 1_555
C16A C20A 1_555 1_555
Tb1_3 O10A_2 1_555 1_555
Tb2A_4 O9A_2 1_555 1_555
Tb2A_4 O10A_3 1_555 1_555

#END
