
#######################################################################
#
#                 Cambridge Crystallographic Data Centre
#                                CCDC 
#
#######################################################################
#
# If this CIF has been generated from an entry in the Cambridge 
# Structural Database, then it will include bibliographic, chemical, 
# crystal, experimental, refinement or atomic coordinate data resulting 
# from the CCDC's data processing and validation procedures.
#
#######################################################################

data_VIVDOV
_symmetry_cell_setting           monoclinic
_symmetry_space_group_name_H-M   'C 2/c'
_symmetry_Int_Tables_number      15
_space_group_name_Hall           '-C 2yn'
loop_
_symmetry_equiv_pos_site_id
_symmetry_equiv_pos_as_xyz
1 x,y,z
2 -x,y,1/2-z
3 1/2+x,1/2+y,z
4 1/2-x,1/2+y,1/2-z
5 -x,-y,-z
6 x,-y,1/2+z
7 1/2-x,1/2-y,-z
8 1/2+x,1/2-y,1/2+z
_cell_length_a                   23.163
_cell_length_b                   7.127
_cell_length_c                   18.336
_cell_angle_alpha                90
_cell_angle_beta                 113.21
_cell_angle_gamma                90
_cell_volume                     2781.97
loop_
_atom_site_label
_atom_site_type_symbol
_atom_site_fract_x
_atom_site_fract_y
_atom_site_fract_z
Zn1 Zn 0.753924(14) 0.78673(5) 0.315475(19)
O1 O 0.81175(10) 0.7867(3) 0.26224(12)
O2 O 0.74760(9) 1.0020(3) 0.18715(12)
O3 O 0.81443(11) 0.8959(3) -0.09997(13)
O4 O 0.79278(10) 1.1793(3) -0.06973(12)
N1 N 0.66176(10) 0.8463(3) 0.28550(14)
C1 C 0.79533(13) 0.8982(4) 0.20476(17)
C2 C 0.83454(12) 0.9064(4) 0.15726(16)
C3 C 0.80996(12) 0.9628(4) 0.07865(16)
H1 H 0.7676 0.9939 0.0542
C4 C 0.84770(12) 0.9736(4) 0.03603(15)
C5 C 0.91238(12) 0.9376(4) 0.07400(16)
C6 C 0.93579(13) 0.8820(4) 0.15228(17)
H2 H 0.9785 0.8575 0.1779
C7 C 0.89791(13) 0.8617(5) 0.19396(17)
H3 H 0.9146 0.8186 0.2460
C8 C 0.81692(12) 1.0153(4) -0.05130(16)
C9 C 0.95597(12) 0.9682(4) 0.03377(15)
C10 C 1.00289(13) 0.8370(4) 0.04150(18)
H4 H 1.0050 0.7266 0.0694
C11 C 0.95396(13) 1.1309(4) -0.00828(18)
H5 H 0.9231 1.2200 -0.0142
C12 C 0.61746(14) 0.8194(5) 0.21279(18)
H6 H 0.6299 0.7944 0.1714
C13 C 0.55448(14) 0.8269(4) 0.19664(19)
H7 H 0.5253 0.8069 0.1452
C14 C 0.53401(12) 0.8649(4) 0.25755(17)
C15 C 0.57981(13) 0.8971(4) 0.33168(18)
H8 H 0.5685 0.9253 0.3738
C16 C 0.64234(13) 0.8876(4) 0.34382(18)
H9 H 0.6724 0.9108 0.3945
O1D O 1.18825(10) 1.2133(3) -0.26224(12)
O2D O 1.25240(9) 0.9980(3) -0.18715(12)
O3D O 1.18557(11) 1.1041(3) 0.09997(13)
O4D O 1.20722(10) 0.8207(3) 0.06973(12)
C1D C 1.20467(13) 1.1018(4) -0.20476(17)
C2D C 1.16546(12) 1.0936(4) -0.15726(16)
C3D C 1.19004(12) 1.0372(4) -0.07865(16)
H1D H 1.2324 1.0061 -0.0542
C4D C 1.15230(12) 1.0264(4) -0.03603(15)
C5D C 1.08762(12) 1.0624(4) -0.07400(16)
C6D C 1.06421(13) 1.1180(4) -0.15228(17)
H2D H 1.0215 1.1425 -0.1779
C7D C 1.10209(13) 1.1383(5) -0.19396(17)
H3D H 1.0854 1.1814 -0.2460
C8D C 1.18308(12) 0.9847(4) 0.05130(16)
C9D C 1.04403(12) 1.0318(4) -0.03377(15)
C10D C 0.99711(13) 1.1630(4) -0.04150(18)
H4D H 0.9950 1.2734 -0.0694
C11D C 1.04604(13) 0.8691(4) 0.00828(18)
H5D H 1.0769 0.7800 0.0142
N1A N 0.33824(10) 0.8463(3) 0.21450(14)
C12A C 0.38254(14) 0.8194(5) 0.28721(18)
H6A H 0.3701 0.7944 0.3286
C13A C 0.44552(14) 0.8269(4) 0.30336(19)
H7A H 0.4747 0.8069 0.3548
C14A C 0.46599(12) 0.8649(4) 0.24245(17)
C15A C 0.42019(13) 0.8971(4) 0.16832(18)
H8A H 0.4315 0.9253 0.1262
C16A C 0.35766(13) 0.8876(4) 0.15618(18)
H9A H 0.3276 0.9108 0.1055
Zn1A Zn 0.246076(14) 0.78673(5) 0.184525(19)
Zn1A_2 Zn 1.246076(14) 0.78673(5) 0.184525(19)
Zn1C Zn 0.746076(14) 1.28673(5) 0.184525(19)
Zn1D Zn 1.246076(14) 1.21327(5) -0.315475(19)
Zn1E Zn 0.753924(14) 1.21327(5) -0.184525(19)
Zn1G Zn 1.253924(14) 0.71327(5) -0.184525(19)
O1A O 0.18825(10) 0.7867(3) 0.23776(12)
O2B O 0.24760(9) 0.5020(3) 0.18715(12)
O2C O 0.75240(9) 0.5020(3) 0.31285(12)
O4D_2 O 0.20722(10) 0.8207(3) 0.06973(12)
O4E O 0.79278(10) 0.8207(3) 0.43027(12)
O5 O 0.86638(15) 0.4649(5) 0.4821(2)
H10 H 0.8406(19) 0.556(5) 0.460(3)
H11 H 0.850(3) 0.373(7) 0.450(4)
loop_
_geom_bond_atom_site_label_1
_geom_bond_atom_site_label_2
_geom_bond_site_symmetry_1
_geom_bond_site_symmetry_2
Zn1 O1 1_555 1_555
O1 C1 1_555 1_555
O2 C1 1_555 1_555
O3 C8 1_555 1_555
O4 C8 1_555 1_555
N1 Zn1 1_555 1_555
C1 C2 1_555 1_555
C2 C3 1_555 1_555
C3 H1 1_555 1_555
C4 C3 1_555 1_555
C5 C4 1_555 1_555
C6 C5 1_555 1_555
H2 C6 1_555 1_555
C7 C2 1_555 1_555
H3 C7 1_555 1_555
C8 C4 1_555 1_555
C9 C5 1_555 1_555
C10 C9 1_555 1_555
H4 C10 1_555 1_555
C11 C9 1_555 1_555
H5 C11 1_555 1_555
C12 N1 1_555 1_555
H6 C12 1_555 1_555
C13 C12 1_555 1_555
H7 C13 1_555 1_555
C14 C13 1_555 1_555
C15 C14 1_555 1_555
H8 C15 1_555 1_555
C16 N1 1_555 1_555
H9 C16 1_555 1_555
O5 H10 1_555 1_555
H11 O5 1_555 1_555
O1D C1D 1_555 1_555
O2D C1D 1_555 1_555
O3D C8D 1_555 1_555
O4D C8D 1_555 1_555
C1D C2D 1_555 1_555
C2D C3D 1_555 1_555
C3D H1D 1_555 1_555
C4D C3D 1_555 1_555
C5D C4D 1_555 1_555
C6D C5D 1_555 1_555
H2D C6D 1_555 1_555
C7D C2D 1_555 1_555
H3D C7D 1_555 1_555
C8D C4D 1_555 1_555
C9D C5D 1_555 1_555
C10D C11 1_555 1_555
H4D C10D 1_555 1_555
C11D C10 1_555 1_555
H5D C11D 1_555 1_555
N1A C12A 1_555 1_555
C12A H6A 1_555 1_555
C13A C12A 1_555 1_555
H7A C13A 1_555 1_555
C14A C14 1_555 1_555
C15A C14A 1_555 1_555
H8A C15A 1_555 1_555
C16A N1A 1_555 1_555
H9A C16A 1_555 1_555
Zn1A N1A 1_555 1_555
Zn1A_2 O4D 1_555 1_555
Zn1C O2 1_555 1_555
Zn1D O1D 1_555 1_555
Zn1E O4 1_555 1_555
Zn1G O2D 1_555 1_555
O1A Zn1A 1_555 1_555
O2B Zn1A 1_555 1_555
O2C Zn1 1_555 1_555
O4D_2 Zn1A 1_555 1_555
O4E Zn1 1_555 1_555
C6 C7 1_555 1_555
C15 C16 1_555 1_555
C6D C7D 1_555 1_555
C9D C10D 1_555 1_555
C9D C11D 1_555 1_555
C13A C14A 1_555 1_555
C15A C16A 1_555 1_555

#END
