
#######################################################################
#
#                 Cambridge Crystallographic Data Centre
#                                CCDC 
#
#######################################################################
#
# If this CIF has been generated from an entry in the Cambridge 
# Structural Database, then it will include bibliographic, chemical, 
# crystal, experimental, refinement or atomic coordinate data resulting 
# from the CCDC's data processing and validation procedures.
#
#######################################################################

data_VIVFUB
_symmetry_cell_setting           triclinic
_symmetry_space_group_name_H-M   'P -1'
_symmetry_Int_Tables_number      2
_space_group_name_Hall           '-P 1'
loop_
_symmetry_equiv_pos_site_id
_symmetry_equiv_pos_as_xyz
1 x,y,z
2 -x,-y,-z
_cell_length_a                   9.548(5)
_cell_length_b                   10.926(3)
_cell_length_c                   11.065(3)
_cell_angle_alpha                65.47(2)
_cell_angle_beta                 68.83(4)
_cell_angle_gamma                79.48(3)
_cell_volume                     978.537
loop_
_atom_site_label
_atom_site_type_symbol
_atom_site_fract_x
_atom_site_fract_y
_atom_site_fract_z
Sb1 Sb 0.27818(5) 1.24425(4) -0.22204(5)
F1 F 0.2104(5) 1.2710(5) -0.3704(5)
F2 F 0.1268(5) 1.3658(4) -0.1729(5)
F3 F 0.4085(5) 1.3827(4) -0.3395(6)
F4 F 0.4289(5) 1.1233(4) -0.2737(5)
F5 F 0.1476(6) 1.1064(4) -0.1053(6)
F6 F 0.3409(6) 1.2176(6) -0.0741(5)
Ag1 Ag 0.25730(8) 0.80582(6) -0.13864(7)
Br1 Br 0.26673(9) 0.83643(7) 0.09160(8)
O1 O 0.2865(6) 0.5875(4) 0.0286(5)
C1 C 0.3149(7) 0.5545(6) 0.1356(6)
C2 C 0.2872(7) 0.6479(6) 0.2147(6)
C3 C 0.1473(7) 0.6063(6) 0.3396(7)
C4 C 0.1017(8) 0.6949(7) 0.4274(8)
C5 C 0.2125(7) 0.6877(7) 0.4958(7)
C6 C 0.3729(6) 0.4149(6) 0.2011(6)
C7 C 0.4413(7) 0.3797(6) 0.3023(7)
C8 C 0.4947(8) 0.2468(7) 0.3591(8)
C9 C 0.4775(8) 0.1516(7) 0.3131(8)
C10 C 0.4100(9) 0.1879(7) 0.2106(8)
C11 C 0.3548(8) 0.3189(6) 0.1562(7)
C12 C 0.1583(7) 0.7678(6) 0.5884(7)
C13 C 0.1836(8) 0.9041(7) 0.5329(8)
C14 C 0.1363(9) 0.9766(8) 0.617(1)
C15 C 0.0594(9) 0.9224(8) 0.752(1)
C16 C 0.0288(9) 0.783(1) 0.813(1)
C17 C 0.0808(8) 0.7083(7) 0.7278(8)
H1 H 0.386(7) 0.650(6) 0.231(6)
H2 H 0.168(6) 0.510(5) 0.405(6)
H3 H 0.092(7) 0.608(7) 0.280(7)
H4 H 0.123(6) 0.803(6) 0.347(6)
H5 H 0.01(1) 0.690(9) 0.49(1)
H6 H 0.2309 0.5837 0.5590
H7 H 0.3170 0.7272 0.4159
H8 H 0.446(8) 0.448(7) 0.348(7)
H9 H 0.541(9) 0.216(8) 0.457(9)
H10 H 0.500(8) 0.068(7) 0.356(7)
H11 H 0.379(7) 0.108(6) 0.185(6)
H12 H 0.2981 0.3462 0.0794
H13 H 0.235(6) 0.953(8) 0.447(8)
H14 H 0.152(9) 1.054(8) 0.595(9)
H15 H 0.017(9) 0.961(7) 0.819(8)
H16 H -0.020(9) 0.735(8) 0.898(9)
H17 H 0.0616 0.6018 0.7732
C9A C 0.5225(8) 0.8484(7) -0.3131(8)
C15_2 C 0.0594(9) 0.9224(8) -0.248(1)
C16_2 C 0.0288(9) 0.783(1) -0.187(1)
Ag1A Ag 0.74270(8) 0.19418(6) 0.13864(7)
Ag1_2 Ag 0.25730(8) 0.80582(6) 0.86136(7)
H10A H 0.500(8) 0.932(7) -0.356(7)
H15_2 H 0.017(9) 0.961(7) -0.181(8)
H16_2 H -0.020(9) 0.735(8) -0.102(9)
loop_
_geom_bond_atom_site_label_1
_geom_bond_atom_site_label_2
_geom_bond_site_symmetry_1
_geom_bond_site_symmetry_2
Sb1 F1 1_555 1_555
F2 Sb1 1_555 1_555
F3 Sb1 1_555 1_555
F4 Sb1 1_555 1_555
F5 Sb1 1_555 1_555
F6 Sb1 1_555 1_555
Ag1 Br1 1_555 1_555
Br1 C2 1_555 1_555
O1 Ag1 1_555 1_555
C1 O1 1_555 1_555
C2 C1 1_555 1_555
C3 C2 1_555 1_555
C4 C3 1_555 1_555
C5 C4 1_555 1_555
C6 C1 1_555 1_555
C7 C6 1_555 1_555
C8 C7 1_555 1_555
C9 C8 1_555 1_555
C10 C9 1_555 1_555
C11 C6 1_555 1_555
C12 C5 1_555 1_555
C13 C12 1_555 1_555
C14 C13 1_555 1_555
C15 C14 1_555 1_555
C16 C15 1_555 1_555
C17 C12 1_555 1_555
H1 C2 1_555 1_555
H2 C3 1_555 1_555
H3 C3 1_555 1_555
H4 C4 1_555 1_555
H5 C4 1_555 1_555
H6 C5 1_555 1_555
H7 C5 1_555 1_555
H8 C7 1_555 1_555
H9 C8 1_555 1_555
H10 C9 1_555 1_555
H11 C10 1_555 1_555
H12 C11 1_555 1_555
H13 C13 1_555 1_555
H14 C14 1_555 1_555
H15 C15 1_555 1_555
H16 C16 1_555 1_555
H17 C17 1_555 1_555
C9A Ag1 1_555 1_555
C15_2 Ag1 1_555 1_555
C16_2 Ag1 1_555 1_555
Ag1A C9 1_555 1_555
Ag1_2 C15 1_555 1_555
H10A C9A 1_555 1_555
H15_2 C15_2 1_555 1_555
H16_2 C16_2 1_555 1_555
C10 C11 1_555 1_555
C16 C17 1_555 1_555
C16 Ag1_2 1_555 1_555
C15_2 C16_2 1_555 1_555

#END
