
#######################################################################
#
#                 Cambridge Crystallographic Data Centre
#                                CCDC 
#
#######################################################################
#
# If this CIF has been generated from an entry in the Cambridge 
# Structural Database, then it will include bibliographic, chemical, 
# crystal, experimental, refinement or atomic coordinate data resulting 
# from the CCDC's data processing and validation procedures.
#
#######################################################################

data_VIVGAI
_symmetry_cell_setting           monoclinic
_symmetry_space_group_name_H-M   'P 21/c'
_symmetry_Int_Tables_number      14
_space_group_name_Hall           '-P 2ybc'
loop_
_symmetry_equiv_pos_site_id
_symmetry_equiv_pos_as_xyz
1 x,y,z
2 -x,1/2+y,1/2-z
3 -x,-y,-z
4 x,1/2-y,1/2+z
_cell_length_a                   7.441(2)
_cell_length_b                   26.660(9)
_cell_length_c                   10.789(5)
_cell_angle_alpha                90
_cell_angle_beta                 108.59(3)
_cell_angle_gamma                90
_cell_volume                     2028.62
loop_
_atom_site_label
_atom_site_type_symbol
_atom_site_fract_x
_atom_site_fract_y
_atom_site_fract_z
Sb1 Sb 0.3505(2) 0.39118(6) 0.7153(1)
F1 F 0.612(2) 0.3987(7) 0.742(1)
F2 F 0.300(2) 0.4270(5) 0.554(1)
F3 F 0.397(2) 0.3556(6) 0.872(1)
F4 F 0.353(2) 0.4539(6) 0.791(1)
F5 F 0.350(2) 0.3304(6) 0.637(1)
F6 F 0.091(2) 0.3845(9) 0.689(1)
Ag1 Ag 0.6223(2) 0.60351(9) 0.7185(2)
Br1 Br 0.3321(3) 0.5608(1) 0.5228(2)
Br2 Br 0.6469(4) 0.6955(1) 0.8471(3)
O1 O 0.353(2) 0.5908(8) 0.801(1)
O2 O 0.862(2) 0.6537(6) 0.675(1)
C1 C 0.209(3) 0.5672(8) 0.750(2)
C2 C 0.158(3) 0.5444(9) 0.615(2)
C3 C 0.070(3) 0.5571(8) 0.822(2)
C4 C 0.108(3) 0.5812(9) 0.945(2)
C5 C -0.020(3) 0.575(1) 1.013(2)
C6 C -0.194(3) 0.547(1) 0.956(2)
C7 C -0.229(3) 0.5240(9) 0.834(2)
C8 C -0.094(3) 0.5295(9) 0.769(2)
C9 C 0.889(3) 0.6975(8) 0.689(2)
C10 C 0.788(3) 0.7318(9) 0.758(2)
C11 C 1.032(3) 0.7217(9) 0.634(2)
C12 C 1.076(3) 0.772(1) 0.651(2)
C13 C 1.210(4) 0.792(1) 0.599(3)
C14 C 1.290(4) 0.761(1) 0.528(3)
C15 C 1.248(4) 0.712(1) 0.510(2)
C16 C 1.112(3) 0.692(1) 0.561(2)
H1 H 0.234 0.6036 0.984
H2 H 0.011 0.591 1.109
H3 H -0.298 0.545 1.006
H4 H -0.355 0.5020 0.793
H5 H -0.118 0.5119 0.675
H6 H 0.155 0.5041 0.625
H7 H 0.019 0.5577 0.559
H8 H 1.008 0.795 0.705
H9 H 1.250 0.831 0.613
H10 H 1.390 0.777 0.485
H11 H 1.319 0.688 0.458
H12 H 1.070 0.653 0.544
H13 H 0.893 0.7542 0.829
H14 H 0.693 0.7561 0.687
C7_2 C 0.771(3) 0.5240(9) 0.834(2)
Ag1_2 Ag -0.3777(2) 0.60351(9) 0.7185(2)
H4_2 H 0.645 0.5020 0.793
loop_
_geom_bond_atom_site_label_1
_geom_bond_atom_site_label_2
_geom_bond_site_symmetry_1
_geom_bond_site_symmetry_2
Sb1 F1 1_555 1_555
F2 Sb1 1_555 1_555
F3 Sb1 1_555 1_555
F4 Sb1 1_555 1_555
F5 Sb1 1_555 1_555
F6 Sb1 1_555 1_555
Ag1 Br1 1_555 1_555
Br1 C2 1_555 1_555
Br2 Ag1 1_555 1_555
O1 Ag1 1_555 1_555
O2 Ag1 1_555 1_555
C1 O1 1_555 1_555
C2 C1 1_555 1_555
C3 C1 1_555 1_555
C4 C3 1_555 1_555
C5 C4 1_555 1_555
C6 C5 1_555 1_555
C7 C6 1_555 1_555
C8 C3 1_555 1_555
C9 O2 1_555 1_555
C10 Br2 1_555 1_555
C11 C9 1_555 1_555
C12 C11 1_555 1_555
C13 C12 1_555 1_555
C14 C13 1_555 1_555
C15 C14 1_555 1_555
C16 C11 1_555 1_555
H1 C4 1_555 1_555
H2 C5 1_555 1_555
H3 C6 1_555 1_555
H4 C7 1_555 1_555
H5 C8 1_555 1_555
H6 C2 1_555 1_555
H7 C2 1_555 1_555
H8 C12 1_555 1_555
H9 C13 1_555 1_555
H10 C14 1_555 1_555
H11 C15 1_555 1_555
H12 C16 1_555 1_555
H13 C10 1_555 1_555
H14 C10 1_555 1_555
C7_2 Ag1 1_555 1_555
Ag1_2 C7 1_555 1_555
H4_2 C7_2 1_555 1_555
C7 C8 1_555 1_555
C9 C10 1_555 1_555
C15 C16 1_555 1_555

#END
