
#######################################################################
#
#                 Cambridge Crystallographic Data Centre
#                                CCDC 
#
#######################################################################
#
# If this CIF has been generated from an entry in the Cambridge 
# Structural Database, then it will include bibliographic, chemical, 
# crystal, experimental, refinement or atomic coordinate data resulting 
# from the CCDC's data processing and validation procedures.
#
#######################################################################

data_VIVGAK
_symmetry_cell_setting           monoclinic
_symmetry_space_group_name_H-M   'C c'
_symmetry_Int_Tables_number      9
_space_group_name_Hall           'C -2yc'
loop_
_symmetry_equiv_pos_site_id
_symmetry_equiv_pos_as_xyz
1 x,y,z
2 x,-y,1/2+z
3 1/2+x,1/2+y,z
4 1/2+x,1/2-y,1/2+z
_cell_length_a                   9.5063(8)
_cell_length_b                   13.6782(11)
_cell_length_c                   20.8777(16)
_cell_angle_alpha                90
_cell_angle_beta                 92.9460(10)
_cell_angle_gamma                90
_cell_volume                     2711.12
loop_
_atom_site_label
_atom_site_type_symbol
_atom_site_fract_x
_atom_site_fract_y
_atom_site_fract_z
Co1 Co -0.36592(3) 0.10994(3) 0.31639(2)
S1 S 0.16176(7) 0.26830(6) 0.32591(4)
O1 O -0.1951(2) 0.07388(19) 0.36887(12)
C1 C -0.0950(3) 0.1310(2) 0.35558(16)
N1 N -0.34568(13) 0.04462(9) 0.22663(6)
O2 O -0.10377(13) 0.18782(9) 0.31024(6)
C2 C 0.03500(13) 0.12561(9) 0.39877(6)
N2 N -0.0927(3) -0.1202(2) 0.15208(13)
H1 H -0.0997 -0.1620 0.1213
O3 O 0.4355(2) 0.18457(18) 0.27905(11)
C3 C 0.0400(4) 0.0620(3) 0.45076(17)
H2 H -0.0380 0.0235 0.4585
N3 N 0.1143(3) -0.23621(19) 0.10945(12)
O4 O 0.5660(2) 0.23778(16) 0.36041(12)
C4 C 0.1596(4) 0.0554(3) 0.49116(18)
H3 H 0.1634 0.0138 0.5265
N4 N 0.0498(3) -0.3523(2) 0.00682(12)
H4 H -0.0087 -0.3224 0.0301
O5 O 0.0615(3) -0.0566(2) 0.22861(13)
C5 C 0.2729(4) 0.1129(3) 0.47693(17)
H5 H 0.3544 0.1081 0.5034
N5 N 0.0092(3) -0.50905(18) -0.13697(11)
N6 N 0.2732(3) 0.1751(2) 0.42765(13)
O6 O 0.2816(2) -0.39440(19) 0.00316(11)
C6 C 0.1568(3) 0.1819(2) 0.38935(15)
C7 C 0.3390(3) 0.3135(2) 0.34068(17)
H6 H 0.3513 0.3714 0.3147
H7 H 0.3513 0.3327 0.3853
C8 C 0.4514(3) 0.2402(2) 0.32607(15)
C9 C -0.4553(4) 0.0359(3) 0.18434(16)
H8 H -0.5377 0.0699 0.1916
C10 C -0.4506(4) -0.0216(3) 0.13035(18)
H9 H -0.5282 -0.0257 0.1015
C11 C -0.3288(4) -0.0732(3) 0.11963(16)
H10 H -0.3238 -0.1127 0.0836
C12 C -0.2137(4) -0.0654(2) 0.16343(16)
C13 C -0.2267(3) -0.0033(2) 0.21532(15)
H11 H -0.1490 0.0054 0.2436
C14 C 0.0340(4) -0.1141(3) 0.18456(16)
C15 C 0.1459(3) -0.1825(2) 0.16200(15)
C16 C 0.2740(4) -0.1861(3) 0.19565(16)
H12 H 0.2903 -0.1481 0.2323
C17 C 0.3787(4) -0.2467(3) 0.17449(16)
H13 H 0.4664 -0.2501 0.1962
C18 C 0.3485(3) -0.3018(2) 0.12014(15)
H14 H 0.4161 -0.3433 0.1044
C19 C 0.2171(3) -0.2947(2) 0.08943(14)
C20 C 0.1854(3) -0.3521(3) 0.02882(15)
C21 C -0.0071(3) -0.3957(2) -0.04984(15)
C22 C 0.0627(3) -0.4687(2) -0.08212(14)
H15 H 0.1495 -0.4905 -0.0652
C23 C -0.1174(3) -0.4801(2) -0.15977(15)
H16 H -0.1557 -0.5092 -0.1969
C24 C -0.1940(4) -0.4087(2) -0.13059(15)
H17 H -0.2821 -0.3902 -0.1478
C25 C -0.1375(3) -0.3650(2) -0.07508(15)
H18 H -0.1864 -0.3157 -0.0551
Co1_2 Co 0.63408(3) 0.10994(3) 0.31639(2)
Co1C Co 0.13408(3) -0.60994(3) -0.18361(2)
O3_2 O -0.5645(2) 0.18457(18) 0.27905(11)
O4_2 O -0.4340(2) 0.23778(16) 0.36041(12)
N5C N -0.4908(3) 0.00905(18) 0.36303(11)
O7 O -0.21063(13) -0.29582(9) 0.07513(6)
H19 H -0.1909 -0.3537 0.0874
H20 H -0.2826 -0.2842 0.0529
O8 O 0.20430(13) 0.12307(9) 0.19018(6)
H21 H 0.1296 0.0914 0.1800
H22 H 0.2069 0.1322 0.2305
O9 O 0.5510(3) 0.2780(3) 0.49149(15)
H23 H 0.5721 0.3084 0.5262
H24 H 0.5964 0.2244 0.4924
loop_
_geom_bond_atom_site_label_1
_geom_bond_atom_site_label_2
_geom_bond_site_symmetry_1
_geom_bond_site_symmetry_2
Co1 O1 1_555 1_555
S1 C6 1_555 1_555
O1 C1 1_555 1_555
C1 O2 1_555 1_555
N1 Co1 1_555 1_555
C2 C1 1_555 1_555
N2 H1 1_555 1_555
O3 C8 1_555 1_555
C3 C2 1_555 1_555
H2 C3 1_555 1_555
N3 C15 1_555 1_555
O4 C8 1_555 1_555
C4 C3 1_555 1_555
H3 C4 1_555 1_555
N4 H4 1_555 1_555
O5 C14 1_555 1_555
C5 C4 1_555 1_555
H5 C5 1_555 1_555
N5 C22 1_555 1_555
N6 C5 1_555 1_555
O6 C20 1_555 1_555
C6 C2 1_555 1_555
C7 S1 1_555 1_555
H6 C7 1_555 1_555
H7 C7 1_555 1_555
C8 C7 1_555 1_555
C9 N1 1_555 1_555
H8 C9 1_555 1_555
C10 C9 1_555 1_555
H9 C10 1_555 1_555
C11 C10 1_555 1_555
H10 C11 1_555 1_555
C12 N2 1_555 1_555
C13 N1 1_555 1_555
H11 C13 1_555 1_555
C14 N2 1_555 1_555
C15 C14 1_555 1_555
C16 C15 1_555 1_555
H12 C16 1_555 1_555
C17 C16 1_555 1_555
H13 C17 1_555 1_555
C18 C17 1_555 1_555
H14 C18 1_555 1_555
C19 N3 1_555 1_555
C20 N4 1_555 1_555
C21 N4 1_555 1_555
C22 C21 1_555 1_555
H15 C22 1_555 1_555
C23 N5 1_555 1_555
H16 C23 1_555 1_555
C24 C23 1_555 1_555
H17 C24 1_555 1_555
C25 C21 1_555 1_555
H18 C25 1_555 1_555
O7 H19 1_555 1_555
H20 O7 1_555 1_555
O8 H21 1_555 1_555
H22 O8 1_555 1_555
O9 H23 1_555 1_555
H24 O9 1_555 1_555
Co1_2 O3 1_555 1_555
Co1C N5 1_555 1_555
O3_2 Co1 1_555 1_555
O4_2 Co1 1_555 1_555
N5C Co1 1_555 1_555
O4 Co1_2 1_555 1_555
N6 C6 1_555 1_555
C11 C12 1_555 1_555
C12 C13 1_555 1_555
C18 C19 1_555 1_555
C19 C20 1_555 1_555
C24 C25 1_555 1_555

#END
