
#######################################################################
#
#                 Cambridge Crystallographic Data Centre
#                                CCDC 
#
#######################################################################
#
# If this CIF has been generated from an entry in the Cambridge 
# Structural Database, then it will include bibliographic, chemical, 
# crystal, experimental, refinement or atomic coordinate data resulting 
# from the CCDC's data processing and validation procedures.
#
#######################################################################

data_VIVJER
_symmetry_cell_setting           monoclinic
_symmetry_space_group_name_H-M   'C 2/c'
_symmetry_Int_Tables_number      15
_space_group_name_Hall           '-C 2yn'
loop_
_symmetry_equiv_pos_site_id
_symmetry_equiv_pos_as_xyz
1 x,y,z
2 -x,y,1/2-z
3 1/2+x,1/2+y,z
4 1/2-x,1/2+y,1/2-z
5 -x,-y,-z
6 x,-y,1/2+z
7 1/2-x,1/2-y,-z
8 1/2+x,1/2-y,1/2+z
_cell_length_a                   36.4558(8)
_cell_length_b                   9.4352(2)
_cell_length_c                   18.0345(4)
_cell_angle_alpha                90
_cell_angle_beta                 94.9460(10)
_cell_angle_gamma                90
_cell_volume                     6180.19
loop_
_atom_site_label
_atom_site_type_symbol
_atom_site_fract_x
_atom_site_fract_y
_atom_site_fract_z
C1 C 0.42411(11) 0.7282(4) 0.3606(2)
C2 C 0.47721(10) 0.0370(4) 0.5554(2)
C3 C 0.45256(10) 0.0785(4) 0.6136(2)
C4 C 0.44240(12) 0.4441(4) 0.6450(2)
C5 C 0.42921(11) 0.6718(4) 0.4386(2)
C6 C 0.21891(12) 0.3977(5) 0.9653(2)
H1 H 0.2372 0.4407 0.9966
C7 C 0.43761(10) 0.5364(4) 0.5763(2)
C8 C 0.21110(11) 0.1492(5) 0.8002(3)
C9 C 0.07485(15) 0.6668(5) 1.2528(3)
H2 H 0.0618 0.6536 1.2942
C10 C 0.11393(12) 0.7066(5) 1.1327(2)
C11 C 0.11241(11) 0.5800(4) 1.1685(2)
H3 H 0.1251 0.5038 1.1502
C12 C 0.51217(11) -0.0139(5) 0.5744(2)
H4 H 0.5206 -0.0240 0.6243
C13 C 0.39868(11) 0.6269(5) 0.4736(2)
H5 H 0.3752 0.6431 0.4509
C14 C 0.18255(11) 0.4258(5) 0.9748(2)
C15 C 0.46789(12) 0.5916(5) 0.5445(2)
H6 H 0.4912 0.5847 0.5698
C16 C 0.07382(18) 0.7969(6) 1.2194(3)
H7 H 0.0597 0.8698 1.2369
C17 C 0.22862(12) 0.3075(5) 0.9107(2)
H8 H 0.2534 0.2913 0.9050
C18 C 0.40284(11) 0.5593(5) 0.5407(2)
H9 H 0.3822 0.5283 0.5628
C19 C 0.46378(12) 0.6567(5) 0.4755(3)
H10 H 0.4844 0.6904 0.4540
C20 C 0.15533(12) 0.3595(5) 0.9278(2)
H11 H 0.1306 0.3766 0.9335
C21 C 0.16516(12) 0.2690(5) 0.8730(2)
H12 H 0.1469 0.2260 0.8416
C22 C 0.46506(11) 0.0501(5) 0.4804(2)
H13 H 0.4414 0.0834 0.4669
C23 C 0.20192(11) 0.2404(4) 0.8638(2)
C24 C 0.17479(12) 0.5304(5) 1.0343(2)
C25 C 0.28175(10) 0.1011(5) 0.7011(2)
C26 C 0.31955(11) 0.0970(5) 0.7145(2)
H14 H 0.3296 0.0323 0.7494
C27 C 0.32791(12) 0.2716(5) 0.6302(2)
H15 H 0.3434 0.3313 0.6063
C28 C 0.26706(12) 0.1951(5) 0.6483(3)
H16 H 0.2417 0.2007 0.6370
C29 C 0.25873(12) 0.0060(5) 0.7462(3)
H17 H 0.2388 -0.0344 0.7139
H18 H 0.2738 -0.0713 0.7672
C30 C 0.13682(14) 0.7303(5) 1.0683(3)
H19 H 0.1247 0.8013 1.0357
H20 H 0.1605 0.7687 1.0874
C31 C 0.09406(17) 0.8181(5) 1.1593(3)
H21 H 0.0944 0.9067 1.1367
C32 C 0.29059(13) 0.2808(5) 0.6125(3)
H22 H 0.2812 0.3446 0.5764
Cd1 Cd 0.405467(7) 0.17000(3) 0.716735(15)
Cd2 Cd 0.5000 0.26945(4) 0.7500
N1 N 0.34263(9) 0.1797(4) 0.68057(19)
N2 N 0.24356(10) 0.0845(4) 0.8061(2)
N3 N 0.14332(11) 0.6044(4) 1.0239(2)
N4 N 0.09382(9) 0.5580(4) 1.22840(18)
O1 O 0.41455(8) 0.3874(3) 0.66692(16)
O2 O 0.47486(8) 0.4315(3) 0.67432(17)
O3 O 0.39177(8) 0.7436(3) 0.33116(15)
O4 O 0.45170(8) 0.7587(3) 0.32678(15)
O5 O 0.41856(7) 0.0875(4) 0.59665(15)
O6 O 0.46629(7) 0.1017(3) 0.67914(14)
O7 O 0.18968(9) 0.1379(4) 0.7445(2)
O8 O 0.19715(9) 0.5509(4) 1.08748(19)
H23 H 0.2558(11) 0.096(4) 0.843(2)
H24 H 0.1281(11) 0.587(4) 0.989(2)
C2D C 0.52279(10) -0.0370(4) 0.4446(2)
C3D C 0.54744(10) -0.0785(4) 0.3864(2)
C12D C 0.48783(11) 0.0139(5) 0.4256(2)
H4D H 0.4794 0.0240 0.3757
C22D C 0.53494(11) -0.0501(5) 0.5196(2)
H13D H 0.5586 -0.0834 0.5331
O5D O 0.58144(7) -0.0875(4) 0.40335(15)
O6D O 0.53371(7) -0.1017(3) 0.32086(14)
C1A C 0.57589(11) 0.7282(4) 1.1394(2)
C4A C 0.55760(12) 0.4441(4) 0.8550(2)
C5A C 0.57079(11) 0.6718(4) 1.0614(2)
C6A C 0.78109(12) 0.3977(5) 0.5347(2)
H1A H 0.7628 0.4407 0.5034
C7A C 0.56239(10) 0.5364(4) 0.9237(2)
C8A C 0.78890(11) 0.1492(5) 0.6998(3)
C9A C 0.92515(15) 0.6668(5) 0.2472(3)
H2A H 0.9382 0.6536 0.2058
C10A C 0.88607(12) 0.7066(5) 0.3673(2)
C11A C 0.88759(11) 0.5800(4) 0.3315(2)
H3A H 0.8749 0.5038 0.3498
C13A C 0.60132(11) 0.6269(5) 1.0264(2)
H5A H 0.6248 0.6431 1.0491
C14A C 0.81745(11) 0.4258(5) 0.5252(2)
C15A C 0.53211(12) 0.5916(5) 0.9555(2)
H6A H 0.5088 0.5847 0.9302
C16A C 0.92618(18) 0.7969(6) 0.2806(3)
H7A H 0.9403 0.8698 0.2631
C17A C 0.77138(12) 0.3075(5) 0.5893(2)
H8A H 0.7466 0.2913 0.5950
C18A C 0.59716(11) 0.5593(5) 0.9593(2)
H9A H 0.6178 0.5283 0.9372
C19A C 0.53622(12) 0.6567(5) 1.0245(3)
H10A H 0.5156 0.6904 1.0460
C20A C 0.84467(12) 0.3595(5) 0.5722(2)
H11A H 0.8694 0.3766 0.5665
C21A C 0.83484(12) 0.2690(5) 0.6270(2)
H12A H 0.8531 0.2260 0.6584
C23A C 0.79808(11) 0.2404(4) 0.6362(2)
C24A C 0.82521(12) 0.5304(5) 0.4657(2)
C25A C 0.71825(10) 0.1011(5) 0.7989(2)
C26A C 0.68045(11) 0.0970(5) 0.7855(2)
H14A H 0.6704 0.0323 0.7506
C27A C 0.67209(12) 0.2716(5) 0.8698(2)
H15A H 0.6566 0.3313 0.8937
C28A C 0.73294(12) 0.1951(5) 0.8517(3)
H16A H 0.7583 0.2007 0.8630
C29A C 0.74127(12) 0.0060(5) 0.7538(3)
H17A H 0.7612 -0.0344 0.7861
H18A H 0.7262 -0.0713 0.7328
C30A C 0.86318(14) 0.7303(5) 0.4317(3)
H19A H 0.8753 0.8013 0.4643
H20A H 0.8395 0.7687 0.4126
C31A C 0.90594(17) 0.8181(5) 0.3407(3)
H21A H 0.9056 0.9067 0.3633
C32A C 0.70941(13) 0.2808(5) 0.8875(3)
H22A H 0.7188 0.3446 0.9236
Cd1A Cd 0.594533(7) 0.17000(3) 0.783265(15)
N1A N 0.65737(9) 0.1797(4) 0.81943(19)
N2A N 0.75644(10) 0.0845(4) 0.6939(2)
N3A N 0.85668(11) 0.6044(4) 0.4761(2)
N4A N 0.90618(9) 0.5580(4) 0.27160(18)
O1A O 0.58545(8) 0.3874(3) 0.83308(16)
O2A O 0.52514(8) 0.4315(3) 0.82568(17)
O3A O 0.60823(8) 0.7436(3) 1.16884(15)
O4A O 0.54830(8) 0.7587(3) 1.17322(15)
O7A O 0.81032(9) 0.1379(4) 0.7555(2)
O8A O 0.80285(9) 0.5509(4) 0.41252(19)
H23A H 0.7442(11) 0.096(4) 0.657(2)
H24A H 0.8719(11) 0.587(4) 0.511(2)
Cd1D Cd 0.594533(7) -0.17000(3) 0.283265(15)
Cd1D_2 Cd 0.594533(7) 0.83000(3) 1.283265(15)
Cd1E Cd 0.405467(7) 0.83000(3) 0.216735(15)
Cd1F Cd 0.094533(7) 0.33000(3) 1.283265(15)
Cd1G Cd 0.905467(7) 0.33000(3) 0.216735(15)
Cd2D Cd 0.5000 -0.26945(4) 0.2500
Cd2D_2 Cd 0.5000 0.73055(4) 0.2500
Cd2D_3 Cd 0.5000 0.73055(4) 1.2500
N4F N 0.40618(9) -0.0580(4) 0.77160(18)
N4G N 0.59382(9) -0.0580(4) 0.72840(18)
O3D O 0.60823(8) 0.2564(3) 0.66884(15)
O3E O 0.39177(8) 0.2564(3) 0.83116(15)
O4D O 0.54830(8) 0.2413(3) 0.67322(15)
O4E O 0.45170(8) 0.2413(3) 0.82678(15)
O5A O 0.58144(7) 0.0875(4) 0.90335(15)
O6A O 0.53371(7) 0.1017(3) 0.82086(14)
O9 O 0.32294(12) 0.6069(6) 0.3446(3)
H25 H 0.3431(12) 0.649(7) 0.339(4)
H26 H 0.325(2) 0.549(7) 0.309(3)
O10 O 0.19158(15) 0.0211(6) 0.0160(3)
loop_
_geom_bond_atom_site_label_1
_geom_bond_atom_site_label_2
_geom_bond_site_symmetry_1
_geom_bond_site_symmetry_2
C1 C5 1_555 1_555
C2 C3 1_555 1_555
C3 O5 1_555 1_555
C4 C7 1_555 1_555
C5 C13 1_555 1_555
C6 H1 1_555 1_555
C7 C15 1_555 1_555
C8 C23 1_555 1_555
C9 H2 1_555 1_555
C10 C11 1_555 1_555
C11 H3 1_555 1_555
C12 C2 1_555 1_555
H4 C12 1_555 1_555
C13 H5 1_555 1_555
C14 C6 1_555 1_555
C15 H6 1_555 1_555
C16 C9 1_555 1_555
H7 C16 1_555 1_555
C17 C6 1_555 1_555
H8 C17 1_555 1_555
C18 C7 1_555 1_555
H9 C18 1_555 1_555
C19 C5 1_555 1_555
H10 C19 1_555 1_555
C20 C14 1_555 1_555
H11 C20 1_555 1_555
C21 C20 1_555 1_555
H12 C21 1_555 1_555
C22 C2 1_555 1_555
H13 C22 1_555 1_555
C23 C17 1_555 1_555
C24 C14 1_555 1_555
C25 C26 1_555 1_555
C26 H14 1_555 1_555
C27 H15 1_555 1_555
C28 C25 1_555 1_555
H16 C28 1_555 1_555
C29 C25 1_555 1_555
H17 C29 1_555 1_555
H18 C29 1_555 1_555
C30 C10 1_555 1_555
H19 C30 1_555 1_555
H20 C30 1_555 1_555
C31 C10 1_555 1_555
H21 C31 1_555 1_555
C32 C27 1_555 1_555
H22 C32 1_555 1_555
Cd1 N1 1_555 1_555
Cd2 O2 1_555 1_555
N1 C26 1_555 1_555
N2 C8 1_555 1_555
N3 C24 1_555 1_555
N4 C9 1_555 1_555
O1 C4 1_555 1_555
O2 C4 1_555 1_555
O3 C1 1_555 1_555
O4 C1 1_555 1_555
O5 Cd1 1_555 1_555
O6 C3 1_555 1_555
O7 C8 1_555 1_555
O8 C24 1_555 1_555
H23 N2 1_555 1_555
H24 N3 1_555 1_555
O9 H25 1_555 1_555
H26 O9 1_555 1_555
C2D C3D 1_555 1_555
C3D O5D 1_555 1_555
C12D C22 1_555 1_555
H4D C12D 1_555 1_555
C22D C12 1_555 1_555
H13D C22D 1_555 1_555
O5D Cd1D 1_555 1_555
O6D C3D 1_555 1_555
C1A C5A 1_555 1_555
C4A C7A 1_555 1_555
C5A C13A 1_555 1_555
C6A H1A 1_555 1_555
C7A C15A 1_555 1_555
C8A C23A 1_555 1_555
C9A H2A 1_555 1_555
C10A C11A 1_555 1_555
C11A H3A 1_555 1_555
C13A H5A 1_555 1_555
C14A C6A 1_555 1_555
C15A H6A 1_555 1_555
C16A C9A 1_555 1_555
H7A C16A 1_555 1_555
C17A C6A 1_555 1_555
H8A C17A 1_555 1_555
C18A C7A 1_555 1_555
H9A C18A 1_555 1_555
C19A C5A 1_555 1_555
H10A C19A 1_555 1_555
C20A C14A 1_555 1_555
H11A C20A 1_555 1_555
C21A C20A 1_555 1_555
H12A C21A 1_555 1_555
C23A C17A 1_555 1_555
C24A C14A 1_555 1_555
C25A C26A 1_555 1_555
C26A H14A 1_555 1_555
C27A H15A 1_555 1_555
C28A C25A 1_555 1_555
H16A C28A 1_555 1_555
C29A C25A 1_555 1_555
H17A C29A 1_555 1_555
H18A C29A 1_555 1_555
C30A C10A 1_555 1_555
H19A C30A 1_555 1_555
H20A C30A 1_555 1_555
C31A C10A 1_555 1_555
H21A C31A 1_555 1_555
C32A C27A 1_555 1_555
H22A C32A 1_555 1_555
Cd1A N1A 1_555 1_555
N1A C26A 1_555 1_555
N2A C8A 1_555 1_555
N3A C24A 1_555 1_555
N4A C9A 1_555 1_555
O1A C4A 1_555 1_555
O2A Cd2 1_555 1_555
O3A C1A 1_555 1_555
O4A C1A 1_555 1_555
O7A C8A 1_555 1_555
O8A C24A 1_555 1_555
H23A N2A 1_555 1_555
H24A N3A 1_555 1_555
Cd1D O6D 1_555 1_555
Cd1D_2 O3A 1_555 1_555
Cd1E O3 1_555 1_555
Cd1F N4 1_555 1_555
Cd1G N4A 1_555 1_555
Cd2D O6D 1_555 1_555
Cd2D_2 O4 1_555 1_555
Cd2D_3 O4A 1_555 1_555
N4F Cd1 1_555 1_555
N4G Cd1A 1_555 1_555
O3D Cd1A 1_555 1_555
O3E Cd1 1_555 1_555
O4D Cd2 1_555 1_555
O4E Cd1 1_555 1_555
O5A Cd1A 1_555 1_555
O6A Cd2 1_555 1_555
C11 N4 1_555 1_555
C13 C18 1_555 1_555
C15 C19 1_555 1_555
C16 C31 1_555 1_555
C21 C23 1_555 1_555
C27 N1 1_555 1_555
C28 C32 1_555 1_555
C29 N2 1_555 1_555
C30 N3 1_555 1_555
Cd1 O1 1_555 1_555
Cd1 O6 1_555 1_555
Cd2 O6 1_555 1_555
Cd2 O4E 1_555 1_555
O4 Cd1E 1_555 1_555
C2D C12D 1_555 1_555
C2D C22D 1_555 1_555
C4A O2A 1_555 1_555
C11A N4A 1_555 1_555
C13A C18A 1_555 1_555
C15A C19A 1_555 1_555
C16A C31A 1_555 1_555
C21A C23A 1_555 1_555
C27A N1A 1_555 1_555
C28A C32A 1_555 1_555
C29A N2A 1_555 1_555
C30A N3A 1_555 1_555
Cd1A O1A 1_555 1_555
Cd1A O4D 1_555 1_555
Cd1A O6A 1_555 1_555
O4A Cd1D_2 1_555 1_555

#END
