
#######################################################################
#
#                 Cambridge Crystallographic Data Centre
#                                CCDC 
#
#######################################################################
#
# If this CIF has been generated from an entry in the Cambridge 
# Structural Database, then it will include bibliographic, chemical, 
# crystal, experimental, refinement or atomic coordinate data resulting 
# from the CCDC's data processing and validation procedures.
#
#######################################################################

data_VIVJIV
_symmetry_cell_setting           monoclinic
_symmetry_space_group_name_H-M   'P 21/c'
_symmetry_Int_Tables_number      14
_space_group_name_Hall           '-P 2ybc'
loop_
_symmetry_equiv_pos_site_id
_symmetry_equiv_pos_as_xyz
1 x,y,z
2 -x,1/2+y,1/2-z
3 -x,-y,-z
4 x,1/2-y,1/2+z
_cell_length_a                   18.1077(18)
_cell_length_b                   15.6823(15)
_cell_length_c                   9.5487(9)
_cell_angle_alpha                90
_cell_angle_beta                 93.563(5)
_cell_angle_gamma                90
_cell_volume                     2706.31
loop_
_atom_site_label
_atom_site_type_symbol
_atom_site_fract_x
_atom_site_fract_y
_atom_site_fract_z
C1 C 0.92382(14) 0.49698(18) 0.5083(3)
C2 C 1.33211(14) 0.87603(16) 0.2351(3)
H1 H 1.2833 0.8939 0.2395
C3 C 0.84194(15) 0.49088(18) 0.5204(3)
C4 C 0.47909(17) 0.46697(18) 0.8702(3)
H2 H 0.4647 0.4444 0.7827
C5 C 1.22172(14) 0.71423(17) 0.3606(3)
C6 C 1.31868(14) 0.80427(19) 0.4672(3)
H3 H 1.3408 0.7549 0.5145
H4 H 1.3212 0.8514 0.5331
C7 C 0.63483(16) 0.6643(2) 0.4685(3)
H5 H 0.6007 0.6528 0.5348
C8 C 0.57148(17) 0.52931(17) 1.0269(3)
H6 H 0.6195 0.5490 1.0460
C9 C 1.12102(16) 0.63857(18) 0.2243(3)
H7 H 1.1573 0.6050 0.1870
C10 C 0.78757(15) 0.7124(2) 0.1584(3)
H8 H 0.7819 0.6674 0.0889
H9 H 0.7767 0.7662 0.1114
C11 C 1.36263(14) 0.82648(16) 0.3436(3)
C12 C 1.04754(16) 0.62405(19) 0.1847(3)
H10 H 1.0348 0.5807 0.1213
C13 C 1.14123(14) 0.70247(17) 0.3188(3)
C14 C 0.73247(15) 0.69841(18) 0.2690(3)
C15 C 0.96545(16) 0.5579(2) 0.5817(3)
H11 H 0.9422 0.5976 0.6365
C16 C 0.72527(15) 0.61897(18) 0.3293(3)
H12 H 0.7549 0.5750 0.2991
C17 C 0.68867(17) 0.7629(2) 0.3157(3)
H13 H 0.6927 0.8178 0.2802
C18 C 1.47296(16) 0.8243(2) 0.2200(3)
H14 H 1.5216 0.8068 0.2127
C19 C 0.95883(16) 0.4396(2) 0.4259(3)
H15 H 0.9312 0.3989 0.3749
C20 C 0.99269(16) 0.67310(19) 0.2380(3)
C21 C 1.43920(14) 0.87482(18) 0.1184(3)
H16 H 1.4659 0.8923 0.0434
C22 C 0.91404(17) 0.6554(2) 0.1873(3)
C23 C 1.43436(16) 0.7994(2) 0.3336(3)
H17 H 1.4567 0.7646 0.4027
C24 C 1.08623(16) 0.7513(2) 0.3735(3)
H18 H 1.0989 0.7942 0.4379
C25 C 0.60526(19) 0.49431(19) 0.7823(3)
C26 C 0.63860(17) 0.7454(2) 0.4158(3)
H19 H 0.6080 0.7881 0.4469
C27 C 1.01262(16) 0.7370(2) 0.3332(3)
H20 H 0.9762 0.7705 0.3703
C28 C 0.55088(16) 0.49640(18) 0.8959(3)
Cd1 Cd 0.694555(10) 0.471848(11) 0.562437(18)
N1 N 0.67827(12) 0.60116(15) 0.4284(2)
N2 N 0.86390(13) 0.71341(17) 0.2165(3)
H21 H 0.8773 0.7540 0.2730
N3 N 1.24165(12) 0.78598(14) 0.4274(2)
H22 H 1.2082 0.8222 0.4473
N4 N 1.36880(11) 0.89973(13) 0.1242(2)
O1 O 0.67030(15) 0.51663(16) 0.8078(3)
O2 O 0.58226(14) 0.46970(19) 0.6642(2)
O3 O 0.89895(13) 0.59020(16) 0.1186(3)
O4 O 1.26824(10) 0.66007(12) 0.3328(2)
O5 O 0.80462(10) 0.44385(14) 0.4371(2)
O6 O 0.81175(10) 0.53204(13) 0.6148(2)
C1B C 1.07618(14) 0.50302(18) 0.4917(3)
C3B C 1.15806(15) 0.50912(18) 0.4796(3)
C15B C 1.03455(16) 0.4421(2) 0.4183(3)
H11B H 1.0578 0.4024 0.3635
C19B C 1.04117(16) 0.5604(2) 0.5741(3)
H15B H 1.0688 0.6011 0.6251
O5B O 1.19538(10) 0.55615(14) 0.5629(2)
O6B O 1.18825(10) 0.46796(13) 0.3852(2)
C4B C 0.52091(17) 0.53303(18) 1.1298(3)
H2B H 0.5353 0.5556 1.2173
C8B C 0.42852(17) 0.47069(17) 0.9731(3)
H6B H 0.3805 0.4510 0.9540
C25B C 0.39474(19) 0.50569(19) 1.2177(3)
C28B C 0.44912(16) 0.50360(18) 1.1041(3)
O1B O 0.32970(15) 0.48337(16) 1.1922(3)
O2B O 0.41774(14) 0.53030(19) 1.3358(2)
C2B C -0.33211(14) 0.12397(16) 1.7649(3)
H1B H -0.2833 0.1061 1.7605
C5B C -0.22172(14) 0.28577(17) 1.6394(3)
C6B C -0.31868(14) 0.19573(19) 1.5328(3)
H3B H -0.3408 0.2451 1.4855
H4B H -0.3212 0.1486 1.4669
C7B C 0.36517(16) 0.3357(2) 1.5315(3)
H5B H 0.3993 0.3472 1.4652
C9B C -0.12102(16) 0.36143(18) 1.7757(3)
H7B H -0.1573 0.3950 1.8130
C10B C 0.21243(15) 0.2876(2) 1.8416(3)
H8B H 0.2181 0.3326 1.9111
H9B H 0.2233 0.2338 1.8886
C11B C -0.36263(14) 0.17352(16) 1.6564(3)
C12B C -0.04754(16) 0.37595(19) 1.8153(3)
H10B H -0.0348 0.4193 1.8787
C13B C -0.14123(14) 0.29753(17) 1.6812(3)
C14B C 0.26753(15) 0.30159(18) 1.7310(3)
C16B C 0.27473(15) 0.38103(18) 1.6707(3)
H12B H 0.2451 0.4250 1.7009
C17B C 0.31133(17) 0.2371(2) 1.6843(3)
H13B H 0.3073 0.1822 1.7198
C18B C -0.47296(16) 0.1757(2) 1.7800(3)
H14B H -0.5216 0.1932 1.7873
C20B C 0.00731(16) 0.32690(19) 1.7620(3)
C21B C -0.43920(14) 0.12518(18) 1.8816(3)
H16B H -0.4659 0.1077 1.9566
C22B C 0.08596(17) 0.3446(2) 1.8127(3)
C23B C -0.43436(16) 0.2006(2) 1.6664(3)
H17B H -0.4567 0.2354 1.5973
C24B C -0.08623(16) 0.2487(2) 1.6265(3)
H18B H -0.0989 0.2058 1.5621
C26B C 0.36140(17) 0.2546(2) 1.5842(3)
H19B H 0.3920 0.2119 1.5531
C27B C -0.01262(16) 0.2630(2) 1.6668(3)
H20B H 0.0238 0.2295 1.6297
Cd1B Cd 0.305445(10) 0.528152(11) 1.437563(18)
N1B N 0.32173(12) 0.39884(15) 1.5716(2)
N2B N 0.13610(13) 0.28659(17) 1.7835(3)
H21B H 0.1227 0.2460 1.7270
N3B N -0.24165(12) 0.21402(14) 1.5726(2)
H22B H -0.2082 0.1778 1.5527
N4B N -0.36880(11) 0.10027(13) 1.8758(2)
O3B O 0.10105(13) 0.40980(16) 1.8814(3)
O4B O -0.26824(10) 0.33993(12) 1.6672(2)
Cd1_2 Cd -0.305445(10) 0.471848(11) 1.562437(18)
Cd1A Cd 1.305445(10) 0.971848(11) -0.062437(18)
Cd1B_2 Cd 1.305445(10) 0.528152(11) 0.437563(18)
Cd1C Cd -0.305445(10) 0.028152(11) 2.062437(18)
N4A N 0.63120(11) 0.39973(13) 0.3758(2)
N4C N 0.36880(11) 0.60027(13) 1.6242(2)
O4_2 O 0.26824(10) 0.66007(12) 1.3328(2)
O4B_2 O 0.73176(10) 0.33993(12) 0.6672(2)
O5B_2 O 0.19538(10) 0.55615(14) 1.5629(2)
O6B_2 O 0.18825(10) 0.46796(13) 1.3852(2)
H23 H 0.851(3) 0.589(2) 0.781(4)
H24 H 0.889(2) 0.605(3) 0.893(5)
O7 O 0.85498(18) 0.62856(18) 0.8426(3)
O8 O 0.7856(2) 0.46702(18) 0.0372(4)
O9? O 0.8400(7) 0.4402(7) 0.1403(11)
loop_
_geom_bond_atom_site_label_1
_geom_bond_atom_site_label_2
_geom_bond_site_symmetry_1
_geom_bond_site_symmetry_2
C1 C3 1_555 1_555
C2 H1 1_555 1_555
C3 O5 1_555 1_555
C4 H2 1_555 1_555
C5 C13 1_555 1_555
C6 H3 1_555 1_555
H4 C6 1_555 1_555
C7 H5 1_555 1_555
C8 H6 1_555 1_555
C9 H7 1_555 1_555
C10 H8 1_555 1_555
H9 C10 1_555 1_555
C11 C2 1_555 1_555
C12 C9 1_555 1_555
H10 C12 1_555 1_555
C13 C9 1_555 1_555
C14 C10 1_555 1_555
C15 C1 1_555 1_555
H11 C15 1_555 1_555
C16 C14 1_555 1_555
H12 C16 1_555 1_555
C17 C14 1_555 1_555
H13 C17 1_555 1_555
C18 H14 1_555 1_555
C19 C1 1_555 1_555
H15 C19 1_555 1_555
C20 C12 1_555 1_555
C21 C18 1_555 1_555
H16 C21 1_555 1_555
C22 C20 1_555 1_555
C23 C11 1_555 1_555
H17 C23 1_555 1_555
C24 C13 1_555 1_555
H18 C24 1_555 1_555
C25 C28 1_555 1_555
C26 C7 1_555 1_555
H19 C26 1_555 1_555
C27 C20 1_555 1_555
H20 C27 1_555 1_555
C28 C4 1_555 1_555
Cd1 N1 1_555 1_555
N1 C7 1_555 1_555
N2 C10 1_555 1_555
H21 N2 1_555 1_555
N3 C5 1_555 1_555
H22 N3 1_555 1_555
N4 C2 1_555 1_555
O1 C25 1_555 1_555
O2 C25 1_555 1_555
O3 C22 1_555 1_555
O4 C5 1_555 1_555
O5 Cd1 1_555 1_555
O6 C3 1_555 1_555
H23 O7 1_555 1_555
H24 O7 1_555 1_555
C1B C3B 1_555 1_555
C3B O5B 1_555 1_555
C15B C19 1_555 1_555
H11B C15B 1_555 1_555
C19B C15 1_555 1_555
H15B C19B 1_555 1_555
O5B Cd1B_2 1_555 1_555
O6B C3B 1_555 1_555
C4B C8 1_555 1_555
H2B C4B 1_555 1_555
C8B C4 1_555 1_555
H6B C8B 1_555 1_555
C25B C28B 1_555 1_555
C28B C4B 1_555 1_555
O1B C25B 1_555 1_555
O2B C25B 1_555 1_555
C2B H1B 1_555 1_555
C5B C13B 1_555 1_555
C6B H3B 1_555 1_555
H4B C6B 1_555 1_555
C7B H5B 1_555 1_555
C9B H7B 1_555 1_555
C10B H8B 1_555 1_555
H9B C10B 1_555 1_555
C11B C2B 1_555 1_555
C12B C9B 1_555 1_555
H10B C12B 1_555 1_555
C13B C9B 1_555 1_555
C14B C10B 1_555 1_555
C16B C14B 1_555 1_555
H12B C16B 1_555 1_555
C17B C14B 1_555 1_555
H13B C17B 1_555 1_555
C18B H14B 1_555 1_555
C20B C12B 1_555 1_555
C21B C18B 1_555 1_555
H16B C21B 1_555 1_555
C22B C20B 1_555 1_555
C23B C11B 1_555 1_555
H17B C23B 1_555 1_555
C24B C13B 1_555 1_555
H18B C24B 1_555 1_555
C26B C7B 1_555 1_555
H19B C26B 1_555 1_555
C27B C20B 1_555 1_555
H20B C27B 1_555 1_555
Cd1B O1B 1_555 1_555
N1B C7B 1_555 1_555
N2B C10B 1_555 1_555
H21B N2B 1_555 1_555
N3B C5B 1_555 1_555
H22B N3B 1_555 1_555
N4B C2B 1_555 1_555
O3B C22B 1_555 1_555
O4B C5B 1_555 1_555
Cd1_2 O4B 1_555 1_555
Cd1A N4 1_555 1_555
Cd1B_2 O4 1_555 1_555
Cd1C N4B 1_555 1_555
N4A Cd1 1_555 1_555
N4C Cd1B 1_555 1_555
O4_2 Cd1B 1_555 1_555
O4B_2 Cd1 1_555 1_555
O5B_2 Cd1B 1_555 1_555
O6B_2 Cd1B 1_555 1_555
C6 C11 1_555 1_555
C6 N3 1_555 1_555
C8 C28 1_555 1_555
C16 N1 1_555 1_555
C17 C26 1_555 1_555
C18 C23 1_555 1_555
C21 N4 1_555 1_555
C22 N2 1_555 1_555
C24 C27 1_555 1_555
Cd1 O1 1_555 1_555
Cd1 O2 1_555 1_555
Cd1 O6 1_555 1_555
C1B C15B 1_555 1_555
C1B C19B 1_555 1_555
O6B Cd1B_2 1_555 1_555
C8B C28B 1_555 1_555
O2B Cd1B 1_555 1_555
C6B C11B 1_555 1_555
C6B N3B 1_555 1_555
C16B N1B 1_555 1_555
C17B C26B 1_555 1_555
C18B C23B 1_555 1_555
C21B N4B 1_555 1_555
C22B N2B 1_555 1_555
C24B C27B 1_555 1_555
Cd1B N1B 1_555 1_555

#END
