
#######################################################################
#
#                 Cambridge Crystallographic Data Centre
#                                CCDC 
#
#######################################################################
#
# If this CIF has been generated from an entry in the Cambridge 
# Structural Database, then it will include bibliographic, chemical, 
# crystal, experimental, refinement or atomic coordinate data resulting 
# from the CCDC's data processing and validation procedures.
#
#######################################################################

data_VIVLAP
_symmetry_cell_setting           triclinic
_symmetry_space_group_name_H-M   'P -1'
_symmetry_Int_Tables_number      2
_space_group_name_Hall           '-P 1'
loop_
_symmetry_equiv_pos_site_id
_symmetry_equiv_pos_as_xyz
1 x,y,z
2 -x,-y,-z
_cell_length_a                   7.9418(5)
_cell_length_b                   12.0870(6)
_cell_length_c                   13.3580(6)
_cell_angle_alpha                112.101(4)
_cell_angle_beta                 105.051(5)
_cell_angle_gamma                91.197(4)
_cell_volume                     1137.17
loop_
_atom_site_label
_atom_site_type_symbol
_atom_site_fract_x
_atom_site_fract_y
_atom_site_fract_z
Tb1 Tb 0.24936(3) -1.019010(19) -0.989302(18)
C1 C 0.8382(7) -0.6025(5) -0.4443(4)
C2 C 0.8635(8) -0.8009(5) -0.4344(4)
C3 C 1.0322(8) -0.6176(5) -0.2774(4)
C4 C 1.0017(8) -0.4214(4) -0.2862(5)
H1 H 1.0054 -0.3897 -0.3425
H2 H 1.1167 -0.3997 -0.2311
C5 C 0.8660(8) -0.3671(5) -0.2289(6)
H3 H 0.8524 -0.4080 -0.1808
H4 H 0.7543 -0.3828 -0.2862
C6 C 0.9048(7) -0.2338(4) -0.1585(4)
C7 C 0.6450(7) -0.7849(5) -0.5928(4)
H5 H 0.5685 -0.7255 -0.6012
H6 H 0.5763 -0.8479 -0.5862
C8 C 0.7032(8) -0.8388(6) -0.6970(4)
H7 H 0.7569 -0.7750 -0.7106
H8 H 0.7911 -0.8909 -0.6859
C9 C 0.5522(7) -0.9096(5) -0.7971(4)
C10 C 1.0728(8) -0.8157(5) -0.2703(5)
H9 H 1.1895 -0.7759 -0.2225
H10 H 1.0852 -0.8932 -0.3244
C11 C 0.9634(8) -0.8349(6) -0.1979(5)
H11 H 0.9445 -0.7573 -0.1472
H12 H 0.8493 -0.8793 -0.2463
C12 C 1.0529(7) -0.9028(4) -0.1302(4)
N1 N 0.9594(6) -0.5530(4) -0.3405(3)
N2 N 0.9889(6) -0.7419(4) -0.3310(4)
N3 N 0.7896(6) -0.7271(4) -0.4875(3)
O1 O 0.7736(7) -0.5432(4) -0.4963(4)
O2 O 0.3478(8) -1.1856(4) -0.9623(5)
H13 H 0.3881 -1.1832 -0.8919
H14 H 0.3459 -1.2534 -1.0220
O3 O 1.1304(7) -0.5705(4) -0.1847(4)
O4 O 0.8222(7) -0.9083(3) -0.4754(4)
O5 O 0.7854(5) -0.1837(3) -0.1206(3)
O6 O 1.0585(5) -0.1847(3) -0.1402(3)
O7 O 0.9648(5) -0.9474(3) -0.0855(3)
O8 O 1.2132(5) -0.9151(3) -0.1191(3)
O9 O 0.5553(4) -0.9140(3) -0.8943(3)
O10 O 0.4241(5) -0.9588(4) -0.7860(3)
Tb1_2 Tb 1.24936(3) -1.019010(19) 0.010698(18)
Tb1_3 Tb 1.24936(3) -0.019010(19) 0.010698(18)
Tb1A Tb 0.75064(3) -0.980990(19) -1.010698(18)
Tb1A_2 Tb 0.75064(3) -0.980990(19) -0.010698(18)
Tb1A_3 Tb 0.75064(3) 0.019010(19) -0.010698(18)
O5A O 0.2146(5) -0.8163(3) -0.8794(3)
O6_2 O 0.0585(5) -1.1847(3) -1.1402(3)
O7_2 O -0.0352(5) -0.9474(3) -1.0855(3)
O7A O 0.0352(5) -1.0526(3) -0.9145(3)
O8_2 O 0.2132(5) -0.9151(3) -1.1191(3)
O9A O 0.4447(4) -1.0860(3) -1.1057(3)
loop_
_geom_bond_atom_site_label_1
_geom_bond_atom_site_label_2
_geom_bond_site_symmetry_1
_geom_bond_site_symmetry_2
Tb1 O2 1_555 1_555
C1 N1 1_555 1_555
C2 N2 1_555 1_555
C3 N1 1_555 1_555
C4 H1 1_555 1_555
H2 C4 1_555 1_555
C5 C4 1_555 1_555
H3 C5 1_555 1_555
H4 C5 1_555 1_555
C6 C5 1_555 1_555
C7 H5 1_555 1_555
H6 C7 1_555 1_555
C8 C7 1_555 1_555
H7 C8 1_555 1_555
H8 C8 1_555 1_555
C9 C8 1_555 1_555
C10 H9 1_555 1_555
H10 C10 1_555 1_555
C11 C10 1_555 1_555
H11 C11 1_555 1_555
H12 C11 1_555 1_555
C12 C11 1_555 1_555
N1 C4 1_555 1_555
N2 C3 1_555 1_555
N3 C1 1_555 1_555
O1 C1 1_555 1_555
O2 H13 1_555 1_555
H14 O2 1_555 1_555
O3 C3 1_555 1_555
O4 C2 1_555 1_555
O5 C6 1_555 1_555
O6 C6 1_555 1_555
O7 C12 1_555 1_555
O8 C12 1_555 1_555
O9 Tb1 1_555 1_555
O10 Tb1 1_555 1_555
Tb1_2 O7 1_555 1_555
Tb1_3 O6 1_555 1_555
Tb1A O9 1_555 1_555
Tb1A_2 O7 1_555 1_555
Tb1A_3 O5 1_555 1_555
O5A Tb1 1_555 1_555
O6_2 Tb1 1_555 1_555
O7_2 Tb1 1_555 1_555
O7A Tb1 1_555 1_555
O8_2 Tb1 1_555 1_555
O9A Tb1 1_555 1_555
C2 N3 1_555 1_555
C7 N3 1_555 1_555
C9 O9 1_555 1_555
C9 O10 1_555 1_555
C10 N2 1_555 1_555
O8 Tb1_2 1_555 1_555
Tb1A O9A 1_555 1_555

#END
