
#######################################################################
#
#                 Cambridge Crystallographic Data Centre
#                                CCDC 
#
#######################################################################
#
# If this CIF has been generated from an entry in the Cambridge 
# Structural Database, then it will include bibliographic, chemical, 
# crystal, experimental, refinement or atomic coordinate data resulting 
# from the CCDC's data processing and validation procedures.
#
#######################################################################

data_VIVPOG
_symmetry_cell_setting           orthorhombic
_symmetry_space_group_name_H-M   'P b c a'
_symmetry_Int_Tables_number      61
_space_group_name_Hall           '-P 2ac 2ab'
loop_
_symmetry_equiv_pos_site_id
_symmetry_equiv_pos_as_xyz
1 x,y,z
2 1/2-x,-y,1/2+z
3 1/2+x,1/2-y,-z
4 -x,1/2+y,1/2-z
5 -x,-y,-z
6 1/2+x,y,1/2-z
7 1/2-x,1/2+y,z
8 x,1/2-y,1/2+z
_cell_length_a                   39.0511(13)
_cell_length_b                   57.409(2)
_cell_length_c                   17.4346(5)
_cell_angle_alpha                90
_cell_angle_beta                 90
_cell_angle_gamma                90
_cell_volume                     39086.4
loop_
_atom_site_label
_atom_site_type_symbol
_atom_site_fract_x
_atom_site_fract_y
_atom_site_fract_z
Ni1 Ni 0.20197(3) 0.03625(2) 0.11520(6)
Ni2 Ni 0.41858(4) 0.08557(3) -0.27755(7)
P1 P 0.23462(6) 0.03062(5) -0.06198(13)
P2 P 0.24914(6) 0.07831(5) 0.19769(13)
P3 P 0.37587(8) 0.10076(5) -0.12469(14)
P4 P 0.39171(8) 0.03371(5) -0.34027(14)
O1 O 0.41148(17) -0.01184(11) 0.0044(3)
O2 O 0.45476(16) 0.03182(12) 0.1140(3)
O3 O 0.38216(17) 0.00872(11) 0.1820(3)
O4 O 0.34755(19) -0.04035(12) 0.0822(3)
O9 O 0.21793(17) 0.04073(12) 0.0088(3)
O10 O 0.23748(16) 0.05575(11) 0.1629(3)
O11 O 0.3847(2) 0.08614(12) -0.1946(4)
O12 O 0.4115(2) 0.05271(15) -0.3038(5)
O17 O 0.1561(2) 0.02242(15) 0.0768(4)
O18 O 0.1625(2) 0.05902(15) 0.0978(4)
O19 O 0.1140(2) 0.04539(19) 0.0485(6)
O20 O 0.22649(17) 0.00569(12) 0.1495(3)
O21 O 0.19211(18) 0.02258(14) 0.2285(4)
O22 O 0.2235(2) -0.00660(15) 0.2665(4)
O23 O 0.4634(3) 0.08603(18) -0.3389(4)
O24 O 0.4641(2) 0.07961(16) -0.2185(4)
O25 O 0.5123(3) 0.0794(3) -0.2833(8)
O26 O 0.4182(2) 0.12277(14) -0.2796(5)
O27 O 0.3858(2) 0.10239(15) -0.3555(4)
O28 O 0.3796(3) 0.13978(17) -0.3545(5)
N1 N 0.1423(3) 0.0422(2) 0.0729(5)
N2 N 0.2139(2) 0.00717(15) 0.2156(4)
N3 N 0.4815(3) 0.0811(2) -0.2800(7)
N4 N 0.3940(3) 0.1224(2) -0.3311(5)
C1 C 0.3590(3) -0.03336(18) -0.0813(5)
C2 C 0.4528(2) 0.02505(18) -0.0510(6)
C3 C 0.4019(2) 0.05639(17) 0.1992(5)
C4 C 0.3147(3) -0.00654(16) 0.1804(5)
C9 C 0.4368(5) -0.0278(3) 0.0286(10)
C10 C 0.4362(8) -0.0412(8) 0.075(3)
C11 C 0.4622(4) -0.0589(3) 0.1044(12)
C12 C 0.4838(3) 0.0470(2) 0.1278(6)
C13 C 0.5094(3) 0.0335(3) 0.1745(6)
C14 C 0.4989(3) 0.0271(3) 0.2546(7)
C15 C 0.4039(4) -0.0004(2) 0.2381(7)
C16 C 0.3897(4) -0.0212(3) 0.2817(10)
C17 C 0.4136(7) -0.0320(4) 0.3371(15)
C18 C 0.3263(4) -0.06066(19) 0.0774(7)
C19 C 0.3475(4) -0.0811(2) 0.1076(9)
C20 C 0.3272(8) -0.1032(3) 0.0977(14)
C33 C 0.2278(3) 0.0001(2) -0.0704(8)
C34 C 0.1944(4) -0.0097(5) -0.0752(11)
C35 C 0.1981(11) -0.0372(3) -0.0518(11)
C36 C 0.2174(2) 0.0451(2) -0.1454(5)
C37 C 0.2241(4) 0.0709(3) -0.1485(7)
C38 C 0.2103(5) 0.0836(4) -0.2169(9)
C39 C 0.2154(3) 0.0948(2) 0.2421(6)
C40 C 0.1967(3) 0.0827(2) 0.3052(7)
C41 C 0.1690(4) 0.0974(2) 0.3401(8)
C42 C 0.2686(2) 0.09684(19) 0.1251(5)
C43 C 0.2440(3) 0.1015(2) 0.0581(6)
C44 C 0.2618(4) 0.1147(3) -0.0049(7)
C45 C 0.4147(4) 0.1124(3) -0.0824(8)
C46 C 0.4207(7) 0.1243(3) -0.0074(10)
C47 C 0.4599(7) 0.1227(5) 0.0064(17)
C48 C 0.3467(4) 0.1240(2) -0.1487(6)
C49 C 0.3173(3) 0.1148(3) -0.1967(7)
C50 C 0.2917(6) 0.1348(4) -0.2164(12)
C51 C 0.3931(5) 0.0353(3) -0.4434(6)
C52 C 0.4221(13) 0.0318(5) -0.4835(10)
C53 C 0.4152(10) 0.0323(3) -0.5746(8)
C54 C 0.3474(3) 0.0336(2) -0.3145(6)
C55 C 0.3296(3) 0.0575(2) -0.3329(6)
C56 C 0.2918(3) 0.0573(2) -0.3097(9)
C81 C 0.3578(2) 0.02423(15) 0.2077(4)
C82 C 0.3247(2) 0.01664(14) 0.2121(4)
C83 C 0.2997(3) 0.03322(17) 0.2371(4)
C84 C 0.3079(3) 0.05606(17) 0.2524(5)
C85 C 0.3423(2) 0.06299(16) 0.2439(4)
C86 C 0.3677(2) 0.04737(16) 0.2213(4)
C87 C 0.2799(3) 0.07336(18) 0.2721(5)
C88 C 0.4291(2) 0.04340(16) 0.0731(5)
C89 C 0.4051(2) 0.05658(15) 0.1119(5)
C90 C 0.3815(2) 0.06907(16) 0.0702(5)
C91 C 0.3806(2) 0.06749(16) -0.0096(5)
C92 C 0.4027(2) 0.05284(16) -0.0470(5)
C93 C 0.4285(2) 0.04136(16) -0.0079(5)
C94 C 0.3553(3) 0.08260(19) -0.0543(6)
C95 C 0.4110(2) -0.00781(15) -0.0740(5)
C96 C 0.3870(2) -0.01836(16) -0.1165(5)
C97 C 0.3865(3) -0.01406(17) -0.1973(5)
C98 C 0.4092(3) 0.00166(17) -0.2293(5)
C99 C 0.4323(2) 0.01374(17) -0.1833(5)
C100 C 0.4324(2) 0.00952(16) -0.1016(5)
C101 C 0.4092(3) 0.00608(19) -0.3156(5)
C102 C 0.3321(2) -0.02126(15) 0.0476(5)
C103 C 0.3362(2) -0.01780(17) -0.0320(5)
C104 C 0.3192(2) 0.00044(15) -0.0657(4)
C105 C 0.3003(2) 0.01681(15) -0.0244(5)
C106 C 0.2995(2) 0.01409(16) 0.0566(5)
C107 C 0.3148(2) -0.00452(15) 0.0904(4)
C108 C 0.2799(2) 0.03538(16) -0.0644(5)
H1 H 0.3694 -0.0458 -0.0494
H2 H 0.3453 -0.0408 -0.1223
H3 H 0.4691 0.0343 -0.0822
H4 H 0.4662 0.0156 -0.0140
H5 H 0.4200 0.0464 0.2216
H6 H 0.4049 0.0724 0.2194
H7 H 0.2916 -0.0109 0.1989
H8 H 0.3311 -0.0186 0.1971
H17 H 0.4429 -0.0366 -0.0183
H18 H 0.4570 -0.0180 0.0406
H19 H 0.4158 -0.0508 0.0628
H20 H 0.4299 -0.0322 0.1215
H21 H 0.4745 -0.0658 0.0609
H22 H 0.4503 -0.0713 0.1327
H23 H 0.4785 -0.0512 0.1386
H24 H 0.4764 0.0611 0.1561
H25 H 0.4941 0.0519 0.0785
H26 H 0.5148 0.0189 0.1464
H27 H 0.5308 0.0427 0.1775
H28 H 0.4919 0.0411 0.2823
H29 H 0.5182 0.0197 0.2811
H30 H 0.4796 0.0161 0.2525
H31 H 0.4093 0.0121 0.2754
H32 H 0.4257 -0.0050 0.2134
H33 H 0.3689 -0.0162 0.3096
H34 H 0.3827 -0.0332 0.2440
H35 H 0.4318 -0.0402 0.3092
H36 H 0.4011 -0.0431 0.3693
H37 H 0.4237 -0.0198 0.3695
H38 H 0.3194 -0.0635 0.0236
H39 H 0.3054 -0.0586 0.1088
H40 H 0.3693 -0.0822 0.0790
H41 H 0.3529 -0.0787 0.1626
H42 H 0.3183 -0.1040 0.0453
H43 H 0.3081 -0.1034 0.1341
H44 H 0.3420 -0.1167 0.1074
H79 H 0.2404 -0.0051 -0.1166
H80 H 0.2392 -0.0073 -0.0258
H81 H 0.1853 -0.0082 -0.1279
H82 H 0.1786 -0.0017 -0.0395
H83 H 0.1760 -0.0431 -0.0340
H84 H 0.2151 -0.0388 -0.0107
H85 H 0.2055 -0.0462 -0.0967
H86 H 0.2273 0.0378 -0.1918
H87 H 0.1923 0.0425 -0.1467
H88 H 0.2143 0.0781 -0.1018
H89 H 0.2492 0.0734 -0.1467
H90 H 0.1924 0.0742 -0.2413
H91 H 0.2288 0.0864 -0.2537
H92 H 0.2005 0.0985 -0.2006
H93 H 0.2253 0.1093 0.2628
H94 H 0.1986 0.0992 0.2020
H95 H 0.2132 0.0783 0.3457
H96 H 0.1864 0.0682 0.2849
H97 H 0.1792 0.1111 0.3644
H98 H 0.1567 0.0882 0.3787
H99 H 0.1530 0.1023 0.2999
H100 H 0.2754 0.1118 0.1487
H101 H 0.2896 0.0892 0.1053
H102 H 0.2353 0.0865 0.0378
H103 H 0.2242 0.1107 0.0766
H104 H 0.2685 0.1301 0.0138
H105 H 0.2463 0.1164 -0.0487
H106 H 0.2823 0.1061 -0.0210
H107 H 0.4308 0.0991 -0.0823
H108 H 0.4236 0.1234 -0.1213
H109 H 0.4080 0.1164 0.0342
H110 H 0.4133 0.1408 -0.0099
H111 H 0.4688 0.1086 -0.0179
H112 H 0.4644 0.1221 0.0617
H113 H 0.4711 0.1364 -0.0157
H114 H 0.3376 0.1311 -0.1011
H115 H 0.3590 0.1362 -0.1776
H116 H 0.3052 0.1024 -0.1680
H117 H 0.3263 0.1079 -0.2447
H118 H 0.2850 0.1429 -0.1692
H119 H 0.2713 0.1282 -0.2409
H120 H 0.3027 0.1459 -0.2514
H121 H 0.3761 0.0239 -0.4628
H122 H 0.3845 0.0509 -0.4577
H123 H 0.4320 0.0166 -0.4692
H124 H 0.4389 0.0441 -0.4702
H125 H 0.4009 0.0190 -0.5890
H126 H 0.4370 0.0315 -0.6020
H127 H 0.4033 0.0468 -0.5882
H128 H 0.3356 0.0210 -0.3428
H129 H 0.3452 0.0303 -0.2590
H130 H 0.3416 0.0702 -0.3051
H131 H 0.3315 0.0608 -0.3886
H132 H 0.2795 0.0457 -0.3404
H133 H 0.2819 0.0728 -0.3186
H134 H 0.2898 0.0534 -0.2552
H194 H 0.2767 0.0283 0.2433
H195 H 0.3483 0.0787 0.2537
H196 H 0.2907 0.0884 0.2854
H197 H 0.2676 0.0677 0.3182
H198 H 0.3657 0.0789 0.0960
H199 H 0.4003 0.0505 -0.1007
H200 H 0.3426 0.0926 -0.0178
H201 H 0.3385 0.0724 -0.0803
H202 H 0.3705 -0.0220 -0.2290
H203 H 0.4478 0.0246 -0.2054
H204 H 0.3958 -0.0063 -0.3413
H205 H 0.4331 0.0052 -0.3348
H206 H 0.3204 0.0020 -0.1199
H207 H 0.2883 0.0254 0.0874
H208 H 0.2874 0.0362 -0.1186
H209 H 0.2850 0.0506 -0.0402
Ni3 Ni 0.33465(4) 0.14501(2) 0.25865(7)
Ni4 Ni 0.49735(12) 0.23253(4) 0.70593(10)
P5 P 0.36079(10) 0.12289(5) 0.42304(15)
P6 P 0.39020(9) 0.18687(6) 0.22317(19)
P7 P 0.47007(14) 0.17834(7) 0.7233(2)
P8 P 0.52063(16) 0.25898(10) 0.3863(2)
O5 O 0.5399(2) 0.13173(15) 0.2042(4)
O6 O 0.5233(3) 0.10502(13) 0.3523(4)
O7 O 0.5757(3) 0.1206(2) 0.5012(6)
O8 O 0.5796(4) 0.1531(2) 0.3564(7)
O13 O 0.3513(2) 0.12386(13) 0.3386(4)
O14 O 0.3744(2) 0.16576(12) 0.2616(4)
O15 O 0.4896(4) 0.19979(18) 0.7406(4)
O16 O 0.5071(4) 0.2558(2) 0.3051(5)
O29 O 0.3510(2) 0.12493(13) 0.1663(4)
O30 O 0.3209(2) 0.15596(15) 0.1453(4)
O31 O 0.3381(3) 0.13493(16) 0.0479(4)
O32 O 0.2847(2) 0.13138(13) 0.2728(4)
O33 O 0.3005(3) 0.16302(15) 0.3307(4)
O34 O 0.2504(3) 0.14805(19) 0.3567(6)
O35 O 0.4614(4) 0.23004(18) 0.6139(6)
O36 O 0.4432(5) 0.2479(2) 0.7150(10)
O37 O 0.4051(5) 0.2449(3) 0.6150(10)
O38 O 0.5438(4) 0.2273(2) 0.6508(9)
O39 O 0.5168(5) 0.2621(2) 0.6522(6)
O40 O 0.5670(4) 0.2578(3) 0.5984(7)
N5 N 0.3371(3) 0.13838(18) 0.1173(5)
N6 N 0.2772(4) 0.14747(18) 0.3210(6)
N7 N 0.4366(6) 0.2421(3) 0.6483(10)
N8 N 0.5427(4) 0.2489(3) 0.6343(9)
C5 C 0.4736(4) 0.11183(18) 0.2378(6)
C6 C 0.5567(3) 0.1803(2) 0.2299(8)
C7 C 0.5852(4) 0.1707(4) 0.5133(10)
C8 C 0.5099(4) 0.09834(19) 0.5109(6)
C21 C 0.5448(4) 0.1298(3) 0.1229(8)
C22 C 0.5733(5) 0.1120(4) 0.1082(9)
C23 C 0.5836(6) 0.1117(5) 0.0277(13)
C24 C 0.5392(4) 0.0841(2) 0.3275(6)
C25 C 0.5763(3) 0.0874(2) 0.3163(7)
C26 C 0.5941(4) 0.0663(2) 0.2808(7)
C27 C 0.6230(11) 0.1034(7) 0.525(2)
C28 C 0.6442(18) 0.0893(9) 0.583(3)
C29 C 0.5925(7) 0.1107(5) 0.576(2)
C30 C 0.6170(8) 0.1488(3) 0.327(2)
C31 C 0.6549(19) 0.1508(6) 0.336(4)
C32 C 0.6448(18) 0.1256(15) 0.384(4)
C57 C 0.3225(4) 0.1218(2) 0.4818(6)
C58 C 0.3002(5) 0.1017(3) 0.4730(8)
C59 C 0.2675(5) 0.1030(3) 0.5160(7)
C60 C 0.3862(4) 0.1473(2) 0.4540(7)
C61 C 0.3679(4) 0.1699(2) 0.4618(7)
C62 C 0.3906(5) 0.1894(2) 0.4901(9)
C63 C 0.3644(5) 0.2116(3) 0.2228(13)
C64 C 0.3558(8) 0.2189(3) 0.2959(14)
C65 C 0.3287(9) 0.2409(4) 0.298(2)
C66 C 0.3986(5) 0.1808(3) 0.1199(8)
C67 C 0.4187(6) 0.1964(4) 0.0779(11)
C68 C 0.4194(6) 0.1887(4) -0.0064(9)
C69 C 0.4936(5) 0.1528(3) 0.7622(9)
C70 C 0.5300(6) 0.1435(7) 0.772(2)
C71 C 0.5209(10) 0.1295(6) 0.846(2)
C72 C 0.4277(7) 0.1790(4) 0.7673(10)
C73 C 0.4068(9) 0.1970(4) 0.7359(11)
C74 C 0.3733(11) 0.1945(4) 0.7839(19)
C75 C 0.4945(4) 0.2405(3) 0.4449(8)
C76 C 0.4616(7) 0.2405(10) 0.4333(19)
C77 C 0.4357(5) 0.2492(4) 0.4100(12)
C78 C 0.5152(7) 0.2887(4) 0.4132(9)
C79 C 0.5247(9) 0.2935(4) 0.4883(16)
C80 C 0.5157(10) 0.3195(5) 0.5104(12)
C109 C 0.5146(4) 0.1474(2) 0.2238(6)
C110 C 0.4815(4) 0.13828(18) 0.2350(5)
C111 C 0.4546(4) 0.15339(19) 0.2504(6)
C112 C 0.4600(3) 0.1771(2) 0.2550(7)
C113 C 0.4917(3) 0.1855(2) 0.2444(6)
C114 C 0.5201(3) 0.1711(2) 0.2322(6)
C115 C 0.4302(3) 0.1932(2) 0.2676(7)
C116 C 0.5765(4) 0.1769(3) 0.3669(10)
C117 C 0.5663(3) 0.1906(2) 0.3061(8)
C118 C 0.5647(3) 0.2144(3) 0.3164(9)
C119 C 0.5690(4) 0.2246(3) 0.3878(11)
C120 C 0.5769(4) 0.2097(4) 0.4527(9)
C121 C 0.5793(3) 0.1865(3) 0.4408(11)
C122 C 0.5636(5) 0.2516(4) 0.3952(9)
C123 C 0.5479(4) 0.1340(3) 0.5221(7)
C124 C 0.5161(3) 0.1238(2) 0.5356(6)
C125 C 0.4905(3) 0.1367(2) 0.5652(6)
C126 C 0.4934(3) 0.15998(18) 0.5824(6)
C127 C 0.5239(4) 0.1706(2) 0.5627(7)
C128 C 0.5521(3) 0.1582(3) 0.5345(8)
C129 C 0.4651(4) 0.17324(19) 0.6196(6)
C130 C 0.4900(4) 0.10161(19) 0.3734(6)
C131 C 0.4824(4) 0.09781(17) 0.4513(5)
C132 C 0.4475(3) 0.09565(19) 0.4719(6)
C133 C 0.4206(3) 0.09766(17) 0.4173(6)
C134 C 0.4303(4) 0.10194(18) 0.3411(6)
C135 C 0.4640(4) 0.10453(17) 0.3181(5)
C136 C 0.3842(3) 0.0965(2) 0.4418(6)
H9 H 0.4544 0.1083 0.2024
H10 H 0.4939 0.1029 0.2207
H11 H 0.5726 0.1674 0.2172
H12 H 0.5587 0.1923 0.1894
H13 H 0.6033 0.1591 0.5024
H14 H 0.5929 0.1805 0.5569
H15 H 0.5313 0.0916 0.4899
H16 H 0.5029 0.0889 0.5558
H45 H 0.5512 0.1451 0.1012
H46 H 0.5233 0.1246 0.0982
H47 H 0.5933 0.1159 0.1404
H48 H 0.5652 0.0963 0.1232
H49 H 0.5635 0.1141 -0.0049
H50 H 0.5940 0.0966 0.0156
H51 H 0.6003 0.1241 0.0184
H52 H 0.5287 0.0790 0.2787
H53 H 0.5354 0.0718 0.3661
H54 H 0.5870 0.0908 0.3665
H55 H 0.5799 0.1011 0.2827
H56 H 0.5902 0.0526 0.3131
H57 H 0.6188 0.0694 0.2772
H58 H 0.5849 0.0635 0.2294
H59 H 0.6155 0.0936 0.4814
H60 H 0.6358 0.1170 0.5057
H61 H 0.6648 0.0834 0.5582
H62 H 0.6305 0.0763 0.6024
H63 H 0.6507 0.0994 0.6262
H67 H 0.5982 0.1227 0.6145
H68 H 0.5799 0.0975 0.5989
H69 H 0.6155 0.1317 0.3180
H70 H 0.6147 0.1555 0.2748
H71 H 0.6631 0.1639 0.3676
H72 H 0.6685 0.1488 0.2881
H73 H 0.6657 0.1187 0.4053
H74 H 0.6341 0.1145 0.3484
H75 H 0.6288 0.1292 0.4256
H135 H 0.3296 0.1227 0.5362
H136 H 0.3089 0.1360 0.4709
H137 H 0.3127 0.0876 0.4900
H138 H 0.2949 0.0997 0.4178
H139 H 0.2722 0.1028 0.5712
H140 H 0.2530 0.0897 0.5024
H141 H 0.2556 0.1175 0.5027
H142 H 0.3965 0.1433 0.5042
H143 H 0.4052 0.1494 0.4171
H144 H 0.3486 0.1680 0.4980
H145 H 0.3582 0.1743 0.4113
H146 H 0.3967 0.1866 0.5438
H147 H 0.3784 0.2043 0.4858
H148 H 0.4115 0.1900 0.4589
H149 H 0.3766 0.2244 0.1962
H150 H 0.3432 0.2083 0.1936
H151 H 0.3769 0.2234 0.3233
H152 H 0.3455 0.2056 0.3239
H153 H 0.3381 0.2539 0.2687
H154 H 0.3252 0.2458 0.3516
H155 H 0.3068 0.2361 0.2762
H156 H 0.4095 0.1653 0.1165
H157 H 0.3761 0.1796 0.0938
H158 H 0.4422 0.1966 0.0988
H159 H 0.4091 0.2123 0.0819
H160 H 0.4250 0.1721 -0.0094
H161 H 0.4368 0.1977 -0.0341
H162 H 0.3969 0.1915 -0.0297
H163 H 0.4848 0.1521 0.8154
H164 H 0.4822 0.1397 0.7355
H165 H 0.5471 0.1559 0.7811
H166 H 0.5374 0.1334 0.7289
H167 H 0.5413 0.1213 0.8645
H168 H 0.5029 0.1181 0.8341
H169 H 0.5127 0.1402 0.8855
H173 H 0.4163 0.1638 0.7592
H174 H 0.4301 0.1815 0.8232
H175 H 0.4024 0.1945 0.6806
H176 H 0.4173 0.2126 0.7432
H177 H 0.3638 0.1789 0.7765
H178 H 0.3566 0.2062 0.7671
H179 H 0.3785 0.1969 0.8384
H180 H 0.5027 0.2243 0.4383
H181 H 0.4985 0.2448 0.4991
H182 H 0.4596 0.2253 0.4071
H183 H 0.4541 0.2372 0.4864
H184 H 0.4412 0.2612 0.3720
H185 H 0.4233 0.2563 0.4529
H186 H 0.4213 0.2372 0.3862
H187 H 0.5289 0.2985 0.3782
H188 H 0.4909 0.2930 0.4063
H189 H 0.5497 0.2909 0.4943
H190 H 0.5127 0.2827 0.5235
H191 H 0.5247 0.3230 0.5617
H192 H 0.4908 0.3215 0.5104
H193 H 0.5260 0.3301 0.4730
H210 H 0.4323 0.1473 0.2579
H211 H 0.4950 0.2019 0.2453
H212 H 0.4374 0.2089 0.2504
H213 H 0.4262 0.1942 0.3236
H214 H 0.5605 0.2241 0.2732
H215 H 0.5803 0.2162 0.5023
H216 H 0.5770 0.2597 0.3549
H217 H 0.5722 0.2569 0.4457
H218 H 0.4692 0.1292 0.5747
H219 H 0.5258 0.1870 0.5684
H220 H 0.4435 0.1647 0.6111
H221 H 0.4631 0.1885 0.5937
H222 H 0.4418 0.0928 0.5241
H223 H 0.4128 0.1031 0.3033
H224 H 0.3834 0.0931 0.4975
H225 H 0.3729 0.0834 0.4147
Ni4G Ni 0.49735(12) 0.26747(4) 0.20593(10)
O16G O 0.5071(4) 0.2442(2) 0.8051(5)
H64? H 0.6325 0.0893 0.6330
H65? H 0.6668 0.0964 0.5888
H66? H 0.6466 0.0733 0.5650
H76? H 0.6200 0.1229 0.3810
H77? H 0.6516 0.1271 0.4378
H78? H 0.6569 0.1124 0.3606
H170? H 0.4966 0.1317 0.8582
H171? H 0.5350 0.1350 0.8886
H172? H 0.5253 0.1129 0.8372
loop_
_geom_bond_atom_site_label_1
_geom_bond_atom_site_label_2
_geom_bond_site_symmetry_1
_geom_bond_site_symmetry_2
Ni1 O9 1_555 1_555
Ni2 O11 1_555 1_555
Ni3 O13 1_555 1_555
Ni4 O15 1_555 1_555
P1 O9 1_555 1_555
P2 O10 1_555 1_555
P3 O11 1_555 1_555
P4 O12 1_555 1_555
P5 O13 1_555 1_555
P6 O14 1_555 1_555
P7 O15 1_555 1_555
P8 O16 1_555 1_555
O1 C9 1_555 1_555
O2 C12 1_555 1_555
O3 C15 1_555 1_555
O4 C18 1_555 1_555
O5 C21 1_555 1_555
O6 C24 1_555 1_555
O7 C29 1_555 1_555
O8 C30 1_555 1_555
O10 Ni1 1_555 1_555
O12 Ni2 1_555 1_555
O14 Ni3 1_555 1_555
O16 Ni4G 1_555 1_555
O17 Ni1 1_555 1_555
O18 Ni1 1_555 1_555
O19 N1 1_555 1_555
O20 Ni1 1_555 1_555
O21 Ni1 1_555 1_555
O22 N2 1_555 1_555
O23 Ni2 1_555 1_555
O24 Ni2 1_555 1_555
O25 N3 1_555 1_555
O26 Ni2 1_555 1_555
O27 Ni2 1_555 1_555
O28 N4 1_555 1_555
O29 Ni3 1_555 1_555
O30 Ni3 1_555 1_555
O31 N5 1_555 1_555
O32 Ni3 1_555 1_555
O33 Ni3 1_555 1_555
O34 N6 1_555 1_555
O35 Ni4 1_555 1_555
O36 Ni4 1_555 1_555
O37 N7 1_555 1_555
O38 Ni4 1_555 1_555
O39 Ni4 1_555 1_555
O40 N8 1_555 1_555
N1 O17 1_555 1_555
N2 O20 1_555 1_555
N3 O23 1_555 1_555
N4 O26 1_555 1_555
N5 O29 1_555 1_555
N6 O32 1_555 1_555
N7 O35 1_555 1_555
N8 O38 1_555 1_555
C1 C96 1_555 1_555
C2 C93 1_555 1_555
C3 C86 1_555 1_555
C4 C82 1_555 1_555
C5 C110 1_555 1_555
C6 C114 1_555 1_555
C7 C121 1_555 1_555
C8 C124 1_555 1_555
C9 C10 1_555 1_555
C10 C11 1_555 1_555
C11 H21 1_555 1_555
C12 C13 1_555 1_555
C13 C14 1_555 1_555
C14 H28 1_555 1_555
C15 C16 1_555 1_555
C16 C17 1_555 1_555
C17 H35 1_555 1_555
C18 C19 1_555 1_555
C19 C20 1_555 1_555
C20 H42 1_555 1_555
C21 C22 1_555 1_555
C22 C23 1_555 1_555
C23 H49 1_555 1_555
C24 C25 1_555 1_555
C25 C26 1_555 1_555
C26 H56 1_555 1_555
C27 C28 1_555 1_555
C28 H61 1_555 1_555
C29 C27 1_555 1_555
C30 C31 1_555 1_555
C31 C32 1_555 1_555
C32 H73 1_555 1_555
C33 P1 1_555 1_555
C34 C33 1_555 1_555
C35 C34 1_555 1_555
C36 P1 1_555 1_555
C37 C36 1_555 1_555
C38 C37 1_555 1_555
C39 P2 1_555 1_555
C40 C39 1_555 1_555
C41 C40 1_555 1_555
C42 P2 1_555 1_555
C43 C42 1_555 1_555
C44 C43 1_555 1_555
C45 P3 1_555 1_555
C46 C45 1_555 1_555
C47 C46 1_555 1_555
C48 P3 1_555 1_555
C49 C48 1_555 1_555
C50 C49 1_555 1_555
C51 P4 1_555 1_555
C52 C51 1_555 1_555
C53 C52 1_555 1_555
C54 P4 1_555 1_555
C55 C54 1_555 1_555
C56 C55 1_555 1_555
C57 P5 1_555 1_555
C58 C57 1_555 1_555
C59 C58 1_555 1_555
C60 P5 1_555 1_555
C61 C60 1_555 1_555
C62 C61 1_555 1_555
C63 P6 1_555 1_555
C64 C63 1_555 1_555
C65 C64 1_555 1_555
C66 P6 1_555 1_555
C67 C66 1_555 1_555
C68 C67 1_555 1_555
C69 P7 1_555 1_555
C70 C69 1_555 1_555
C71 C70 1_555 1_555
C72 P7 1_555 1_555
C73 C72 1_555 1_555
C74 C73 1_555 1_555
C75 P8 1_555 1_555
C76 C75 1_555 1_555
C77 C76 1_555 1_555
C78 P8 1_555 1_555
C79 C78 1_555 1_555
C80 C79 1_555 1_555
C81 O3 1_555 1_555
C82 C81 1_555 1_555
C83 C82 1_555 1_555
C84 C83 1_555 1_555
C85 C84 1_555 1_555
C86 C81 1_555 1_555
C87 P2 1_555 1_555
C88 O2 1_555 1_555
C89 C3 1_555 1_555
C90 C89 1_555 1_555
C91 C90 1_555 1_555
C92 C91 1_555 1_555
C93 C88 1_555 1_555
C94 P3 1_555 1_555
C95 O1 1_555 1_555
C96 C95 1_555 1_555
C97 C96 1_555 1_555
C98 C97 1_555 1_555
C99 C98 1_555 1_555
C100 C2 1_555 1_555
C101 P4 1_555 1_555
C102 O4 1_555 1_555
C103 C1 1_555 1_555
C104 C103 1_555 1_555
C105 C104 1_555 1_555
C106 C105 1_555 1_555
C107 C4 1_555 1_555
C108 P1 1_555 1_555
C109 O5 1_555 1_555
C110 C109 1_555 1_555
C111 C110 1_555 1_555
C112 C111 1_555 1_555
C113 C112 1_555 1_555
C114 C109 1_555 1_555
C115 P6 1_555 1_555
C116 O8 1_555 1_555
C117 C6 1_555 1_555
C118 C117 1_555 1_555
C119 C118 1_555 1_555
C120 C119 1_555 1_555
C121 C116 1_555 1_555
C122 P8 1_555 1_555
C123 O7 1_555 1_555
C124 C123 1_555 1_555
C125 C124 1_555 1_555
C126 C125 1_555 1_555
C127 C126 1_555 1_555
C128 C7 1_555 1_555
C129 P7 1_555 1_555
C130 O6 1_555 1_555
C131 C8 1_555 1_555
C132 C131 1_555 1_555
C133 C132 1_555 1_555
C134 C133 1_555 1_555
C135 C5 1_555 1_555
C136 P5 1_555 1_555
H1 C1 1_555 1_555
H2 C1 1_555 1_555
H3 C2 1_555 1_555
H4 C2 1_555 1_555
H5 C3 1_555 1_555
H6 C3 1_555 1_555
H7 C4 1_555 1_555
H8 C4 1_555 1_555
H9 C5 1_555 1_555
H10 C5 1_555 1_555
H11 C6 1_555 1_555
H12 C6 1_555 1_555
H13 C7 1_555 1_555
H14 C7 1_555 1_555
H15 C8 1_555 1_555
H16 C8 1_555 1_555
H17 C9 1_555 1_555
H18 C9 1_555 1_555
H19 C10 1_555 1_555
H20 C10 1_555 1_555
H22 C11 1_555 1_555
H23 C11 1_555 1_555
H24 C12 1_555 1_555
H25 C12 1_555 1_555
H26 C13 1_555 1_555
H27 C13 1_555 1_555
H29 C14 1_555 1_555
H30 C14 1_555 1_555
H31 C15 1_555 1_555
H32 C15 1_555 1_555
H33 C16 1_555 1_555
H34 C16 1_555 1_555
H36 C17 1_555 1_555
H37 C17 1_555 1_555
H38 C18 1_555 1_555
H39 C18 1_555 1_555
H40 C19 1_555 1_555
H41 C19 1_555 1_555
H43 C20 1_555 1_555
H44 C20 1_555 1_555
H45 C21 1_555 1_555
H46 C21 1_555 1_555
H47 C22 1_555 1_555
H48 C22 1_555 1_555
H50 C23 1_555 1_555
H51 C23 1_555 1_555
H52 C24 1_555 1_555
H53 C24 1_555 1_555
H54 C25 1_555 1_555
H55 C25 1_555 1_555
H57 C26 1_555 1_555
H58 C26 1_555 1_555
H59 C27 1_555 1_555
H60 C27 1_555 1_555
H62 C28 1_555 1_555
H63 C28 1_555 1_555
H67 C29 1_555 1_555
H68 C29 1_555 1_555
H69 C30 1_555 1_555
H70 C30 1_555 1_555
H71 C31 1_555 1_555
H72 C31 1_555 1_555
H74 C32 1_555 1_555
H75 C32 1_555 1_555
H79 C33 1_555 1_555
H80 C33 1_555 1_555
H81 C34 1_555 1_555
H82 C34 1_555 1_555
H83 C35 1_555 1_555
H84 C35 1_555 1_555
H85 C35 1_555 1_555
H86 C36 1_555 1_555
H87 C36 1_555 1_555
H88 C37 1_555 1_555
H89 C37 1_555 1_555
H90 C38 1_555 1_555
H91 C38 1_555 1_555
H92 C38 1_555 1_555
H93 C39 1_555 1_555
H94 C39 1_555 1_555
H95 C40 1_555 1_555
H96 C40 1_555 1_555
H97 C41 1_555 1_555
H98 C41 1_555 1_555
H99 C41 1_555 1_555
H100 C42 1_555 1_555
H101 C42 1_555 1_555
H102 C43 1_555 1_555
H103 C43 1_555 1_555
H104 C44 1_555 1_555
H105 C44 1_555 1_555
H106 C44 1_555 1_555
H107 C45 1_555 1_555
H108 C45 1_555 1_555
H109 C46 1_555 1_555
H110 C46 1_555 1_555
H111 C47 1_555 1_555
H112 C47 1_555 1_555
H113 C47 1_555 1_555
H114 C48 1_555 1_555
H115 C48 1_555 1_555
H116 C49 1_555 1_555
H117 C49 1_555 1_555
H118 C50 1_555 1_555
H119 C50 1_555 1_555
H120 C50 1_555 1_555
H121 C51 1_555 1_555
H122 C51 1_555 1_555
H123 C52 1_555 1_555
H124 C52 1_555 1_555
H125 C53 1_555 1_555
H126 C53 1_555 1_555
H127 C53 1_555 1_555
H128 C54 1_555 1_555
H129 C54 1_555 1_555
H130 C55 1_555 1_555
H131 C55 1_555 1_555
H132 C56 1_555 1_555
H133 C56 1_555 1_555
H134 C56 1_555 1_555
H135 C57 1_555 1_555
H136 C57 1_555 1_555
H137 C58 1_555 1_555
H138 C58 1_555 1_555
H139 C59 1_555 1_555
H140 C59 1_555 1_555
H141 C59 1_555 1_555
H142 C60 1_555 1_555
H143 C60 1_555 1_555
H144 C61 1_555 1_555
H145 C61 1_555 1_555
H146 C62 1_555 1_555
H147 C62 1_555 1_555
H148 C62 1_555 1_555
H149 C63 1_555 1_555
H150 C63 1_555 1_555
H151 C64 1_555 1_555
H152 C64 1_555 1_555
H153 C65 1_555 1_555
H154 C65 1_555 1_555
H155 C65 1_555 1_555
H156 C66 1_555 1_555
H157 C66 1_555 1_555
H158 C67 1_555 1_555
H159 C67 1_555 1_555
H160 C68 1_555 1_555
H161 C68 1_555 1_555
H162 C68 1_555 1_555
H163 C69 1_555 1_555
H164 C69 1_555 1_555
H165 C70 1_555 1_555
H166 C70 1_555 1_555
H167 C71 1_555 1_555
H168 C71 1_555 1_555
H169 C71 1_555 1_555
H173 C72 1_555 1_555
H174 C72 1_555 1_555
H175 C73 1_555 1_555
H176 C73 1_555 1_555
H177 C74 1_555 1_555
H178 C74 1_555 1_555
H179 C74 1_555 1_555
H180 C75 1_555 1_555
H181 C75 1_555 1_555
H182 C76 1_555 1_555
H183 C76 1_555 1_555
H184 C77 1_555 1_555
H185 C77 1_555 1_555
H186 C77 1_555 1_555
H187 C78 1_555 1_555
H188 C78 1_555 1_555
H189 C79 1_555 1_555
H190 C79 1_555 1_555
H191 C80 1_555 1_555
H192 C80 1_555 1_555
H193 C80 1_555 1_555
H194 C83 1_555 1_555
H195 C85 1_555 1_555
H196 C87 1_555 1_555
H197 C87 1_555 1_555
H198 C90 1_555 1_555
H199 C92 1_555 1_555
H200 C94 1_555 1_555
H201 C94 1_555 1_555
H202 C97 1_555 1_555
H203 C99 1_555 1_555
H204 C101 1_555 1_555
H205 C101 1_555 1_555
H206 C104 1_555 1_555
H207 C106 1_555 1_555
H208 C108 1_555 1_555
H209 C108 1_555 1_555
H210 C111 1_555 1_555
H211 C113 1_555 1_555
H212 C115 1_555 1_555
H213 C115 1_555 1_555
H214 C118 1_555 1_555
H215 C120 1_555 1_555
H216 C122 1_555 1_555
H217 C122 1_555 1_555
H218 C125 1_555 1_555
H219 C127 1_555 1_555
H220 C129 1_555 1_555
H221 C129 1_555 1_555
H222 C132 1_555 1_555
H223 C134 1_555 1_555
H224 C136 1_555 1_555
H225 C136 1_555 1_555
O16G Ni4 1_555 1_555
O18 N1 1_555 1_555
O21 N2 1_555 1_555
O24 N3 1_555 1_555
O27 N4 1_555 1_555
O30 N5 1_555 1_555
O33 N6 1_555 1_555
O36 N7 1_555 1_555
O39 N8 1_555 1_555
C84 C87 1_555 1_555
C85 C86 1_555 1_555
C88 C89 1_555 1_555
C91 C94 1_555 1_555
C92 C93 1_555 1_555
C95 C100 1_555 1_555
C98 C101 1_555 1_555
C99 C100 1_555 1_555
C102 C103 1_555 1_555
C102 C107 1_555 1_555
C105 C108 1_555 1_555
C106 C107 1_555 1_555
C112 C115 1_555 1_555
C113 C114 1_555 1_555
C116 C117 1_555 1_555
C119 C122 1_555 1_555
C120 C121 1_555 1_555
C123 C128 1_555 1_555
C126 C129 1_555 1_555
C127 C128 1_555 1_555
C130 C131 1_555 1_555
C130 C135 1_555 1_555
C133 C136 1_555 1_555
C134 C135 1_555 1_555

#END
