
#######################################################################
#
#                 Cambridge Crystallographic Data Centre
#                                CCDC 
#
#######################################################################
#
# If this CIF has been generated from an entry in the Cambridge 
# Structural Database, then it will include bibliographic, chemical, 
# crystal, experimental, refinement or atomic coordinate data resulting 
# from the CCDC's data processing and validation procedures.
#
#######################################################################

data_VIVREY
_symmetry_cell_setting           monoclinic
_symmetry_space_group_name_H-M   'P 21/c'
_symmetry_Int_Tables_number      14
_space_group_name_Hall           '-P 2ybc'
loop_
_symmetry_equiv_pos_site_id
_symmetry_equiv_pos_as_xyz
1 x,y,z
2 -x,1/2+y,1/2-z
3 -x,-y,-z
4 x,1/2-y,1/2+z
_cell_length_a                   14.033(3)
_cell_length_b                   13.923(4)
_cell_length_c                   11.396(4)
_cell_angle_alpha                90
_cell_angle_beta                 108.33(3)
_cell_angle_gamma                90
_cell_volume                     2113.59
loop_
_atom_site_label
_atom_site_type_symbol
_atom_site_fract_x
_atom_site_fract_y
_atom_site_fract_z
K1 K 0.39461(8) 0.58487(8) 0.29722(10)
K2 K 0.40310(7) 0.63325(8) 0.68447(10)
P1 P 0.32947(9) 0.40671(11) 0.48103(12)
O1 O 0.2213(2) 0.4603(2) 0.4349(3)
O2 O 0.0999(2) 0.3503(2) 0.1402(3)
O3 O 0.1973(2) 0.4908(2) 0.1773(3)
O4 O 0.3534(2) 0.3947(2) 0.3545(3)
O5 O 0.3152(2) 0.3091(2) 0.5296(3)
O6 O 0.4032(2) 0.4740(2) 0.5586(3)
C1 C 0.1467(3) 0.4099(4) 0.3391(4)
H1 H 0.0819 0.4443 0.3190
H2 H 0.1373 0.3447 0.3681
C2 C 0.1791(3) 0.4028(4) 0.2246(4)
C3 C 0.2790(3) 0.3479(3) 0.2520(4)
H3 H 0.2699 0.2804 0.2736
H4 H 0.3016 0.3481 0.1780
C4 C 0.1118(3) 0.3308(4) 0.0229(4)
H5 H 0.1302 0.3901 -0.0111
H6 H 0.0486 0.3061 -0.0336
H7 H 0.1648 0.2828 0.0325
C5 C 0.1201(3) 0.5612(4) 0.1591(4)
H8 H 0.0550 0.5321 0.1152
H9 H 0.1332 0.6145 0.1101
H10 H 0.1191 0.5854 0.2395
P2 P 0.30676(9) 0.70304(10) -0.03997(12)
O7 O 0.2029(2) 0.7270(2) -0.1495(3)
O8 O 0.0968(2) 0.4924(3) -0.2453(3)
O9 O 0.2037(2) 0.5799(2) -0.3267(3)
O10 O 0.3412(2) 0.6048(2) -0.0919(3)
O11 O 0.2881(2) 0.6862(2) 0.0783(3)
O12 O 0.3818(2) 0.7768(2) -0.0468(3)
C6 C 0.1312(3) 0.6493(4) -0.1772(4)
H11 H 0.0689 0.6701 -0.2413
H12 H 0.1140 0.6320 -0.1020
C7 C 0.1743(3) 0.5623(4) -0.2228(4)
C8 C 0.2688(3) 0.5280(4) -0.1225(4)
H13 H 0.2517 0.5084 -0.0481
H14 H 0.2975 0.4718 -0.1526
C9 C 0.1190(4) 0.4017(4) -0.2883(4)
H15 H 0.1475 0.4114 -0.3555
H16 H 0.0571 0.3638 -0.3186
H17 H 0.1674 0.3673 -0.2203
C10 C 0.1300(3) 0.6220(4) -0.4298(4)
H18 H 0.0649 0.5910 -0.4412
H19 H 0.1497 0.6131 -0.5043
H20 H 0.1246 0.6907 -0.4147
O13 O 0.4619(3) 0.4821(4) 0.1348(4)
H21 H 0.465(4) 0.434(5) 0.088(5)
H22 H 0.464(4) 0.525(3) 0.087(4)
O14 O 0.5301(2) 0.7139(3) 0.2485(3)
H23 H 0.569(4) 0.704(4) 0.302(5)
H24 H 0.541(4) 0.691(4) 0.169(4)
K1C K 0.39461(8) 0.91513(8) 0.79722(10)
K1B K 0.60539(8) 0.41513(8) 0.70278(10)
K1C_2 K 0.39461(8) 0.91513(8) -0.20278(10)
K2C K 0.40310(7) 0.86675(8) 0.18447(10)
K2B K 0.59690(7) 0.36675(8) 0.31553(10)
K2_2 K 0.40310(7) 0.63325(8) -0.31553(10)
O6B O 0.5968(2) 0.5260(2) 0.4414(3)
O9_2 O 0.2037(2) 0.5799(2) 0.6733(3)
O10_2 O 0.3412(2) 0.6048(2) 0.9081(3)
O11C O 0.2881(2) 0.8138(2) 0.5783(3)
O12C O 0.3818(2) 0.7232(2) 0.4532(3)
O13B O 0.5381(3) 0.5179(4) 0.8652(4)
H21B H 0.535(4) 0.566(5) 0.912(5)
H22B H 0.536(4) 0.475(3) 0.913(4)
O14C O 0.5301(2) 0.7861(3) 0.7485(3)
H23C H 0.569(4) 0.796(4) 0.802(5)
H24C H 0.541(4) 0.809(4) 0.669(4)
O15 O 0.4374(3) 0.1761(3) 0.4792(3)
H25 H 0.490(4) 0.207(4) 0.512(4)
H26 H 0.396(4) 0.207(4) 0.498(5)
loop_
_geom_bond_atom_site_label_1
_geom_bond_atom_site_label_2
_geom_bond_site_symmetry_1
_geom_bond_site_symmetry_2
K1 O3 1_555 1_555
K2 O6 1_555 1_555
P1 O1 1_555 1_555
O1 C1 1_555 1_555
O2 C2 1_555 1_555
O3 C2 1_555 1_555
O4 K1 1_555 1_555
O5 P1 1_555 1_555
O6 K1 1_555 1_555
C1 H1 1_555 1_555
H2 C1 1_555 1_555
C2 C1 1_555 1_555
C3 O4 1_555 1_555
H3 C3 1_555 1_555
H4 C3 1_555 1_555
C4 O2 1_555 1_555
H5 C4 1_555 1_555
H6 C4 1_555 1_555
H7 C4 1_555 1_555
C5 O3 1_555 1_555
H8 C5 1_555 1_555
H9 C5 1_555 1_555
H10 C5 1_555 1_555
P2 O7 1_555 1_555
O7 C6 1_555 1_555
O8 C7 1_555 1_555
O9 C7 1_555 1_555
O10 P2 1_555 1_555
O11 K1 1_555 1_555
O12 P2 1_555 1_555
C6 H11 1_555 1_555
H12 C6 1_555 1_555
C7 C6 1_555 1_555
C8 O10 1_555 1_555
H13 C8 1_555 1_555
H14 C8 1_555 1_555
C9 O8 1_555 1_555
H15 C9 1_555 1_555
H16 C9 1_555 1_555
H17 C9 1_555 1_555
C10 O9 1_555 1_555
H18 C10 1_555 1_555
H19 C10 1_555 1_555
H20 C10 1_555 1_555
O13 K1 1_555 1_555
H21 O13 1_555 1_555
H22 O13 1_555 1_555
O14 K1 1_555 1_555
H23 O14 1_555 1_555
H24 O14 1_555 1_555
O15 H25 1_555 1_555
H26 O15 1_555 1_555
K1C O11C 1_555 1_555
K1B O6 1_555 1_555
K1C_2 O12 1_555 1_555
K2C O11 1_555 1_555
K2B O13 1_555 1_555
K2_2 O9 1_555 1_555
O6B K1 1_555 1_555
O9_2 K2 1_555 1_555
O10_2 K2 1_555 1_555
O11C K2 1_555 1_555
O12C K1 1_555 1_555
O13B K2 1_555 1_555
H21B O13B 1_555 1_555
H22B O13B 1_555 1_555
O14C K2 1_555 1_555
H23C O14C 1_555 1_555
H24C O14C 1_555 1_555
K2 O12C 1_555 1_555
P1 O4 1_555 1_555
P1 O6 1_555 1_555
C2 C3 1_555 1_555
P2 O11 1_555 1_555
O10 K2_2 1_555 1_555
O12 K2C 1_555 1_555
C7 C8 1_555 1_555
O14 K2C 1_555 1_555
K1C O14C 1_555 1_555
K1B O6B 1_555 1_555
K1B O13B 1_555 1_555
K2B O6B 1_555 1_555

#END
