
#######################################################################
#
#                 Cambridge Crystallographic Data Centre
#                                CCDC 
#
#######################################################################
#
# If this CIF has been generated from an entry in the Cambridge 
# Structural Database, then it will include bibliographic, chemical, 
# crystal, experimental, refinement or atomic coordinate data resulting 
# from the CCDC's data processing and validation procedures.
#
#######################################################################

data_VIVRUO
_symmetry_cell_setting           monoclinic
_symmetry_space_group_name_H-M   'P 21/n'
_symmetry_Int_Tables_number      14
_space_group_name_Hall           '-P 2yn'
loop_
_symmetry_equiv_pos_site_id
_symmetry_equiv_pos_as_xyz
1 x,y,z
2 1/2-x,1/2+y,1/2-z
3 -x,-y,-z
4 1/2+x,1/2-y,1/2+z
_cell_length_a                   17.667(3)
_cell_length_b                   10.059(2)
_cell_length_c                   17.734(3)
_cell_angle_alpha                90
_cell_angle_beta                 115.77(3)
_cell_angle_gamma                90
_cell_volume                     2838.12
loop_
_atom_site_label
_atom_site_type_symbol
_atom_site_fract_x
_atom_site_fract_y
_atom_site_fract_z
Ca1 Ca 0.86361(3) -0.37477(4) 0.38335(3)
K1 K 0.86185(3) 0.27947(5) 0.27189(3)
P1 P 0.81685(4) -0.09437(6) 0.23349(4)
O1 O 0.84600(9) -0.09731(15) 0.15983(10)
O2 O 1.06712(10) -0.02364(15) 0.25598(10)
O3 O 0.95482(9) 0.12776(14) 0.20879(10)
O4 O 0.88241(9) 0.00670(14) 0.29991(10)
O5 O 0.82470(10) -0.22889(14) 0.27098(10)
O6 O 0.73287(9) -0.03018(15) 0.19954(10)
C1 C 0.93429(15) -0.1126(2) 0.18395(17)
H1 H 0.9421(14) -0.112(2) 0.1333(16)
H2 H 0.9540(13) -0.201(2) 0.2099(14)
C2 C 0.98348(14) -0.0004(2) 0.24208(15)
C3 C 0.97104(15) -0.0083(3) 0.32176(16)
H3 H 0.9923(13) -0.094(2) 0.3493(14)
H4 H 0.9969(14) 0.064(2) 0.3577(15)
C4 C 1.12595(17) 0.0746(3) 0.3071(2)
H5 H 1.1810(18) 0.055(3) 0.3000(17)
H6 H 1.1311(17) 0.062(3) 0.365(2)
H7 H 1.1125(16) 0.165(3) 0.2873(17)
C5 C 0.94369(19) 0.1476(3) 0.12422(17)
H8 H 0.9332(14) 0.242(3) 0.1131(15)
H9 H 0.8958(16) 0.095(3) 0.0852(17)
H10 H 0.9959(15) 0.117(2) 0.1203(14)
P2 P 0.93541(4) -0.52560(6) 0.59125(4)
O7 O 0.89616(10) -0.65646(14) 0.61280(10)
O8 O 0.68806(10) -0.54658(16) 0.57533(10)
O9 O 0.80668(10) -0.55042(15) 0.70449(10)
O10 O 0.89936(9) -0.41029(14) 0.62872(10)
O11 O 0.89902(9) -0.51553(15) 0.49808(10)
O12 O 1.02803(9) -0.52864(15) 0.64160(10)
C6 C 0.80579(16) -0.6547(2) 0.57867(18)
H11 H 0.7862(13) -0.740(2) 0.5875(14)
H12 H 0.7812(12) -0.645(2) 0.5187(14)
C7 C 0.77725(14) -0.5403(2) 0.61672(15)
C8 C 0.80927(15) -0.4084(2) 0.60007(17)
H13 H 0.7833(14) -0.385(2) 0.5391(16)
H14 H 0.7991(13) -0.339(2) 0.6287(14)
C9 C 0.64570(18) -0.4442(3) 0.5982(2)
H15 H 0.5871(17) -0.468(2) 0.5748(16)
H16 H 0.6497(16) -0.360(3) 0.5787(17)
H17 H 0.6666(16) -0.435(2) 0.6570(18)
C10 C 0.7949(2) -0.6766(3) 0.7348(2)
H18 H 0.8092(17) -0.665(3) 0.7916(19)
H19 H 0.8351(14) -0.746(2) 0.7311(14)
H20 H 0.7380(16) -0.710(2) 0.7058(16)
P3 P 0.75701(4) -0.12037(6) 0.44037(4)
O13 O 0.68307(10) -0.05104(14) 0.36101(10)
O14 O 0.60133(10) 0.18811(14) 0.45703(10)
O15 O 0.54965(9) -0.02700(15) 0.41468(10)
O16 O 0.71487(9) -0.13128(14) 0.50449(9)
O17 O 0.83162(10) -0.03111(15) 0.47638(10)
O18 O 0.76524(10) -0.25753(14) 0.41348(10)
C11 C 0.65507(17) 0.0750(2) 0.37765(17)
H21 H 0.6129(14) 0.103(2) 0.3252(15)
H22 H 0.7013(14) 0.142(2) 0.4020(13)
C12 C 0.61985(14) 0.0571(2) 0.44187(15)
C13 C 0.68424(16) -0.0074(2) 0.52166(16)
H23 H 0.7325(15) 0.056(2) 0.5493(15)
H24 H 0.6587(13) -0.027(2) 0.5605(14)
C14 C 0.56263(19) 0.2016(3) 0.51301(19)
H25 H 0.5383(15) 0.292(3) 0.5027(15)
H26 H 0.6067(17) 0.198(3) 0.5744(18)
H27 H 0.5194(16) 0.138(3) 0.5007(15)
C15 C 0.48160(19) 0.0056(3) 0.33519(19)
H28 H 0.4347(17) -0.047(3) 0.3297(16)
H29 H 0.4949(16) -0.022(3) 0.2905(18)
H30 H 0.4679(15) 0.104(3) 0.3307(16)
O19 O 0.95093(13) -0.20456(19) 0.46748(12)
H31 H 0.9296(17) -0.147(3) 0.4794(18)
H32 H 1.0008(18) -0.194(3) 0.5016(18)
O20 O 0.88086(11) 0.2105(2) 0.42826(11)
H33 H 0.8734(18) 0.270(3) 0.4505(19)
H34 H 0.8544(18) 0.140(3) 0.4389(19)
Ca1A Ca 0.63639(3) 0.12523(4) 0.11665(3)
Ca1B Ca 1.13639(3) -0.62523(4) 0.61665(3)
K1A K 0.63815(3) -0.22053(5) 0.22811(3)
K1B K 1.13815(3) -0.27947(5) 0.72811(3)
O5A O 0.67530(10) 0.27111(14) 0.22902(10)
O6A O 0.76713(9) -0.53018(15) 0.30046(10)
O6A_2 O 0.76713(9) 0.46982(15) 0.30046(10)
O12B O 0.97197(9) -0.47136(15) 0.35840(10)
O12B_2 O 0.97197(9) 0.52864(15) 0.35840(10)
O13A O 0.81693(10) 0.44896(14) 0.13899(10)
O18A O 0.73476(10) 0.24247(14) 0.08652(10)
loop_
_geom_bond_atom_site_label_1
_geom_bond_atom_site_label_2
_geom_bond_site_symmetry_1
_geom_bond_site_symmetry_2
Ca1 O5 1_555 1_555
K1 O3 1_555 1_555
P1 O1 1_555 1_555
O1 C1 1_555 1_555
O2 C2 1_555 1_555
O3 C2 1_555 1_555
O4 K1 1_555 1_555
O5 P1 1_555 1_555
O6 P1 1_555 1_555
C1 H1 1_555 1_555
H2 C1 1_555 1_555
C2 C1 1_555 1_555
C3 O4 1_555 1_555
H3 C3 1_555 1_555
H4 C3 1_555 1_555
C4 O2 1_555 1_555
H5 C4 1_555 1_555
H6 C4 1_555 1_555
H7 C4 1_555 1_555
C5 O3 1_555 1_555
H8 C5 1_555 1_555
H9 C5 1_555 1_555
H10 C5 1_555 1_555
P2 O7 1_555 1_555
O7 C6 1_555 1_555
O8 C7 1_555 1_555
O9 C7 1_555 1_555
O10 P2 1_555 1_555
O11 Ca1 1_555 1_555
O12 P2 1_555 1_555
C6 H11 1_555 1_555
H12 C6 1_555 1_555
C7 C6 1_555 1_555
C8 O10 1_555 1_555
H13 C8 1_555 1_555
H14 C8 1_555 1_555
C9 O8 1_555 1_555
H15 C9 1_555 1_555
H16 C9 1_555 1_555
H17 C9 1_555 1_555
C10 O9 1_555 1_555
H18 C10 1_555 1_555
H19 C10 1_555 1_555
H20 C10 1_555 1_555
P3 O13 1_555 1_555
O13 C11 1_555 1_555
O14 C12 1_555 1_555
O15 C12 1_555 1_555
O16 P3 1_555 1_555
O17 P3 1_555 1_555
O18 Ca1 1_555 1_555
C11 H21 1_555 1_555
H22 C11 1_555 1_555
C12 C11 1_555 1_555
C13 O16 1_555 1_555
H23 C13 1_555 1_555
H24 C13 1_555 1_555
C14 O14 1_555 1_555
H25 C14 1_555 1_555
H26 C14 1_555 1_555
H27 C14 1_555 1_555
C15 O15 1_555 1_555
H28 C15 1_555 1_555
H29 C15 1_555 1_555
H30 C15 1_555 1_555
O19 Ca1 1_555 1_555
H31 O19 1_555 1_555
H32 O19 1_555 1_555
O20 K1 1_555 1_555
H33 O20 1_555 1_555
H34 O20 1_555 1_555
Ca1A O6 1_555 1_555
Ca1B O12 1_555 1_555
K1A O5 1_555 1_555
K1B O12 1_555 1_555
O5A K1 1_555 1_555
O6A Ca1 1_555 1_555
O6A_2 K1 1_555 1_555
O12B Ca1 1_555 1_555
O12B_2 K1 1_555 1_555
O13A K1 1_555 1_555
O18A K1 1_555 1_555
P1 O4 1_555 1_555
O6 K1A 1_555 1_555
C2 C3 1_555 1_555
P2 O11 1_555 1_555
C7 C8 1_555 1_555
P3 O18 1_555 1_555
O13 K1A 1_555 1_555
O18 K1A 1_555 1_555
C12 C13 1_555 1_555
Ca1A O5A 1_555 1_555
Ca1A O18A 1_555 1_555

#END
