
#######################################################################
#
#                 Cambridge Crystallographic Data Centre
#                                CCDC 
#
#######################################################################
#
# If this CIF has been generated from an entry in the Cambridge 
# Structural Database, then it will include bibliographic, chemical, 
# crystal, experimental, refinement or atomic coordinate data resulting 
# from the CCDC's data processing and validation procedures.
#
#######################################################################

data_VIVRIC
_symmetry_cell_setting           monoclinic
_symmetry_space_group_name_H-M   'C 2/c'
_symmetry_Int_Tables_number      15
_space_group_name_Hall           '-C 2yn'
loop_
_symmetry_equiv_pos_site_id
_symmetry_equiv_pos_as_xyz
1 x,y,z
2 1/2+x,1/2+y,z
3 -x,y,1/2-z
4 1/2-x,1/2+y,1/2-z
5 -x,-y,-z
6 1/2-x,1/2-y,-z
7 x,-y,1/2+z
8 1/2+x,1/2-y,1/2+z
_cell_length_a                   34.593(6)
_cell_length_b                   6.995(3)
_cell_length_c                   8.187(3)
_cell_angle_alpha                90
_cell_angle_beta                 102.20(3)
_cell_angle_gamma                90
_cell_volume                     1936.33
loop_
_atom_site_label
_atom_site_type_symbol
_atom_site_fract_x
_atom_site_fract_y
_atom_site_fract_z
K1 K 0.462827(19) 0.31484(9) 0.41876(8)
P1 P 0.42806(2) 0.77703(10) 0.46087(9)
O1 O 0.41084(6) 0.6253(3) 0.3130(2)
O2 O 0.31278(6) 0.8099(3) 0.1428(2)
O3 O 0.32943(6) 0.5751(3) 0.3498(2)
O4 O 0.38910(6) 0.8139(3) 0.5360(2)
O5 O 0.43911(6) 0.9566(3) 0.3865(2)
O6 O 0.45741(6) 0.6689(3) 0.5846(2)
C1 C 0.37749(8) 0.6929(4) 0.1894(3)
H1 H 0.3695 0.5944 0.1019
H2 H 0.3849 0.8101 0.1356
C2 C 0.34299(9) 0.7359(4) 0.2738(3)
C3 C 0.35518(9) 0.8796(4) 0.4152(4)
H3 H 0.3615 1.0035 0.3683
H4 H 0.3328 0.9004 0.4712
C4 C 0.27751(9) 0.8688(5) 0.1936(4)
H5 H 0.2682 0.7652 0.2562
H6 H 0.2570 0.8992 0.0946
H7 H 0.2831 0.9824 0.2648
C5 C 0.32261(10) 0.4035(4) 0.2511(4)
H8 H 0.3059 0.4331 0.1415
H9 H 0.3093 0.3089 0.3081
H10 H 0.3480 0.3517 0.2362
O7 O 0.5000 0.2030(5) 0.7500
H11 H 0.5166(10) 0.144(5) 0.716(5)
K1_2 K 0.462827(19) -0.68516(9) 0.41876(8)
K1D K 0.537173(19) 0.68516(9) 0.58124(8)
K1_3 K 0.462827(19) 1.31484(9) 0.41876(8)
K1F K 0.462827(19) 0.68516(9) 0.91876(8)
K1B K 0.537173(19) 0.31484(9) 1.08124(8)
K1F_2 K 0.462827(19) -0.31484(9) 0.91876(8)
K1D_2 K 0.537173(19) -0.31484(9) 0.58124(8)
P1_2 P 0.42806(2) -0.22297(10) 0.46087(9)
O1_2 O 0.41084(6) -0.3747(3) 0.3130(2)
O2_2 O 0.31278(6) -0.1901(3) 0.1428(2)
O3_2 O 0.32943(6) -0.4249(3) 0.3498(2)
O4_2 O 0.38910(6) -0.1861(3) 0.5360(2)
O5_2 O 0.43911(6) -0.0434(3) 0.3865(2)
O5_3 O 0.43911(6) -1.0434(3) 0.3865(2)
O6_2 O 0.45741(6) -0.3311(3) 0.5846(2)
O6F O 0.45741(6) 0.3311(3) 0.0846(2)
O6D O 0.54259(6) 0.3311(3) 0.4154(2)
O6F_2 O 0.45741(6) -0.6689(3) 0.0846(2)
O6D_2 O 0.54259(6) -0.6689(3) 0.4154(2)
C1_2 C 0.37749(8) -0.3071(4) 0.1894(3)
H1_2 H 0.3695 -0.4056 0.1019
H2_2 H 0.3849 -0.1899 0.1356
C2_2 C 0.34299(9) -0.2641(4) 0.2738(3)
C3_2 C 0.35518(9) -0.1204(4) 0.4152(4)
H3_2 H 0.3615 0.0035 0.3683
H4_2 H 0.3328 -0.0996 0.4712
C4_2 C 0.27751(9) -0.1312(5) 0.1936(4)
H5_2 H 0.2682 -0.2348 0.2562
H6_2 H 0.2570 -0.1008 0.0946
H7_2 H 0.2831 -0.0176 0.2648
C5_2 C 0.32261(10) -0.5965(4) 0.2511(4)
H8_2 H 0.3059 -0.5669 0.1415
H9_2 H 0.3093 -0.6911 0.3081
H10_2 H 0.3480 -0.6483 0.2362
O7_2 O 0.5000 -0.7970(5) 0.7500
H11B H 0.4834(10) 0.144(5) 0.784(5)
H11_2 H 0.5166(10) -0.856(5) 0.716(5)
H11B_2 H 0.4834(10) -0.856(5) 0.784(5)
loop_
_geom_bond_atom_site_label_1
_geom_bond_atom_site_label_2
_geom_bond_site_symmetry_1
_geom_bond_site_symmetry_2
K1 O1 1_555 1_555
P1 O1 1_555 1_555
O1 C1 1_555 1_555
O2 C2 1_555 1_555
O3 C2 1_555 1_555
O4 P1 1_555 1_555
O5 P1 1_555 1_555
O6 K1 1_555 1_555
C1 H1 1_555 1_555
H2 C1 1_555 1_555
C2 C1 1_555 1_555
C3 O4 1_555 1_555
H3 C3 1_555 1_555
H4 C3 1_555 1_555
C4 O2 1_555 1_555
H5 C4 1_555 1_555
H6 C4 1_555 1_555
H7 C4 1_555 1_555
C5 O3 1_555 1_555
H8 C5 1_555 1_555
H9 C5 1_555 1_555
H10 C5 1_555 1_555
O7 K1 1_555 1_555
H11 O7 1_555 1_555
K1_2 O1_2 1_555 1_555
K1D O6 1_555 1_555
K1_3 O5 1_555 1_555
K1F O6 1_555 1_555
K1B O7 1_555 1_555
K1F_2 O6_2 1_555 1_555
K1D_2 O6_2 1_555 1_555
P1_2 O1_2 1_555 1_555
O1_2 C1_2 1_555 1_555
O2_2 C2_2 1_555 1_555
O3_2 C2_2 1_555 1_555
O4_2 P1_2 1_555 1_555
O5_2 K1 1_555 1_555
O5_3 K1_2 1_555 1_555
O6_2 K1_2 1_555 1_555
O6F K1 1_555 1_555
O6D K1 1_555 1_555
O6F_2 K1_2 1_555 1_555
O6D_2 K1_2 1_555 1_555
C1_2 H1_2 1_555 1_555
H2_2 C1_2 1_555 1_555
C2_2 C1_2 1_555 1_555
C3_2 O4_2 1_555 1_555
H3_2 C3_2 1_555 1_555
H4_2 C3_2 1_555 1_555
C4_2 O2_2 1_555 1_555
H5_2 C4_2 1_555 1_555
H6_2 C4_2 1_555 1_555
H7_2 C4_2 1_555 1_555
C5_2 O3_2 1_555 1_555
H8_2 C5_2 1_555 1_555
H9_2 C5_2 1_555 1_555
H10_2 C5_2 1_555 1_555
O7_2 K1_2 1_555 1_555
H11B O7 1_555 1_555
H11_2 O7_2 1_555 1_555
H11B_2 O7_2 1_555 1_555
P1 O6 1_555 1_555
C2 C3 1_555 1_555
K1D O6D 1_555 1_555
K1D_2 O6D_2 1_555 1_555
P1_2 O5_2 1_555 1_555
P1_2 O6_2 1_555 1_555
C2_2 C3_2 1_555 1_555

#END
