
#######################################################################
#
#                 Cambridge Crystallographic Data Centre
#                                CCDC 
#
#######################################################################
#
# If this CIF has been generated from an entry in the Cambridge 
# Structural Database, then it will include bibliographic, chemical, 
# crystal, experimental, refinement or atomic coordinate data resulting 
# from the CCDC's data processing and validation procedures.
#
#######################################################################

data_VIVSIE
_symmetry_cell_setting           monoclinic
_symmetry_space_group_name_H-M   'C 2/c'
_symmetry_Int_Tables_number      15
_space_group_name_Hall           '-C 2yn'
loop_
_symmetry_equiv_pos_site_id
_symmetry_equiv_pos_as_xyz
1 x,y,z
2 -x,y,1/2-z
3 1/2+x,1/2+y,z
4 1/2-x,1/2+y,1/2-z
5 -x,-y,-z
6 x,-y,1/2+z
7 1/2-x,1/2-y,-z
8 1/2+x,1/2-y,1/2+z
_cell_length_a                   26.230(5)
_cell_length_b                   10.680(2)
_cell_length_c                   27.040(5)
_cell_angle_alpha                90
_cell_angle_beta                 104.50(3)
_cell_angle_gamma                90
_cell_volume                     7333.61
loop_
_atom_site_label
_atom_site_type_symbol
_atom_site_fract_x
_atom_site_fract_y
_atom_site_fract_z
Zn1 Zn 0.387208(9) 0.28124(3) 1.076818(10)
Zn2 Zn 0.497616(9) 0.15886(3) 1.074435(10)
N1 N 0.32736(7) 0.4080(2) 1.07139(8)
N2 N 0.07357(7) 0.6276(2) 1.07408(7)
O1 O 0.46444(6) 0.31683(19) 1.09494(7)
O2 O 0.46518(7) 0.1911(2) 1.00068(6)
O3 O 0.38442(7) 0.2554(2) 1.00278(7)
O4 O 0.32533(9) 0.3330(2) 0.73842(7)
O5 O 0.45681(8) -0.0037(2) 0.58674(7)
O6 O 0.50530(8) -0.0930(2) 0.65528(8)
O7 O 0.44808(8) 0.4294(3) 1.15808(10)
O8 O 0.71857(8) 0.3841(3) 1.27624(8)
O9 O 0.83646(11) 0.6051(4) 1.07410(9)
O10 O 0.87572(8) 0.7026(3) 1.14266(9)
C1 C 0.41931(9) 0.2278(3) 0.98008(9)
C2 C 0.40450(9) 0.2387(3) 0.92268(9)
C3 C 0.35207(9) 0.2527(3) 0.89580(9)
H1 H 0.3259 0.2573 0.9135
C4 C 0.33858(9) 0.2597(3) 0.84318(9)
H2 H 0.3034 0.2678 0.8255
C5 C 0.37769(10) 0.2545(3) 0.81641(9)
C6 C 0.36224(10) 0.2674(3) 0.75918(9)
C7 C 0.39320(10) 0.1969(3) 0.72868(9)
C8 C 0.41550(10) 0.0816(3) 0.74447(9)
H3 H 0.4134 0.0493 0.7758
C9 C 0.44087(9) 0.0142(3) 0.71416(9)
H4 H 0.4556 -0.0633 0.7251
C10 C 0.44443(9) 0.0617(3) 0.66734(9)
C11 C 0.47105(9) -0.0161(3) 0.63495(10)
C12 C 0.42179(13) 0.1768(3) 0.65114(11)
H5 H 0.4237 0.2089 0.6197
C13 C 0.39652(13) 0.2438(3) 0.68158(11)
H6 H 0.3815 0.3210 0.6705
C14 C 0.43020(10) 0.2420(3) 0.84335(10)
H7 H 0.4564 0.2394 0.8257
C15 C 0.44361(9) 0.2333(3) 0.89601(9)
H8 H 0.4787 0.2239 0.9137
C16 C 0.47933(9) 0.3802(3) 1.13803(10)
C17 C 0.53751(9) 0.3869(3) 1.16067(10)
C18 C 0.55741(10) 0.3640(4) 1.21264(11)
H9 H 0.5344 0.3459 1.2329
C19 C 0.61109(10) 0.3679(3) 1.23440(11)
H10 H 0.6241 0.3508 1.2690
C20 C 0.64576(9) 0.3975(3) 1.20430(10)
C21 C 0.70307(9) 0.4056(3) 1.23081(10)
C22 C 0.74170(8) 0.4489(3) 1.20168(10)
C23 C 0.77416(9) 0.5474(3) 1.22267(10)
H11 H 0.7729 0.5795 1.2543
C24 C 0.80854(10) 0.5986(3) 1.19679(11)
H12 H 0.8306 0.6641 1.2113
C25 C 0.81014(9) 0.5529(3) 1.14959(10)
C26 C 0.84322(10) 0.6225(4) 1.12040(12)
C27 C 0.77984(11) 0.4514(4) 1.12942(12)
H13 H 0.7823 0.4179 1.0983
C28 C 0.74547(11) 0.3984(3) 1.15532(12)
H14 H 0.7251 0.3294 1.1417
C29 C 0.62561(9) 0.4246(3) 1.15301(10)
H15 H 0.6483 0.4479 1.1331
C30 C 0.57166(9) 0.4171(3) 1.13097(10)
H16 H 0.5586 0.4325 1.0962
C31 C 0.28719(11) 0.4056(4) 1.02990(11)
H17 H 0.2922 0.3685 1.0004
C32 C 0.23823(11) 0.4559(4) 1.02893(11)
H18 H 0.2112 0.4523 0.9992
C33 C 0.22975(8) 0.5114(3) 1.07251(9)
C34 C 0.27205(10) 0.5183(3) 1.11482(10)
H19 H 0.2686 0.5586 1.1443
C35 C 0.31965(9) 0.4647(3) 1.11297(11)
H20 H 0.3475 0.4683 1.1420
C36 C 0.17589(8) 0.5567(3) 1.07307(9)
C37 C 0.13723(9) 0.5751(3) 1.02773(9)
H21 H 0.1451 0.5639 0.9964
C38 C 0.08708(9) 0.6104(3) 1.02980(9)
H22 H 0.0617 0.6226 0.9993
C39 C 0.11048(9) 0.6089(3) 1.11761(9)
H23 H 0.1014 0.6199 1.1484
C40 C 0.16169(9) 0.5739(3) 1.11868(9)
H24 H 0.1863 0.5620 1.1497
Zn1B Zn 0.887208(9) 0.78124(3) 1.076818(10)
Zn2B Zn -0.002384(9) 0.65886(3) 1.074435(10)
Zn2E Zn 0.497616(9) -0.15886(3) 0.574435(10)
N2B N 0.57357(7) 0.1276(2) 1.07408(7)
O5E O 0.45681(8) 0.0037(2) 1.08674(7)
O6E O 0.50530(8) 0.0930(2) 1.15528(8)
O9B O 0.33646(11) 0.1051(4) 1.07410(9)
O10B O 0.37572(8) 0.2026(3) 1.14266(9)
loop_
_geom_bond_atom_site_label_1
_geom_bond_atom_site_label_2
_geom_bond_site_symmetry_1
_geom_bond_site_symmetry_2
Zn1 N1 1_555 1_555
Zn2 O1 1_555 1_555
N1 C31 1_555 1_555
N2 C38 1_555 1_555
O1 Zn1 1_555 1_555
O2 Zn2 1_555 1_555
O3 Zn1 1_555 1_555
O4 C6 1_555 1_555
O5 C11 1_555 1_555
O6 C11 1_555 1_555
O7 C16 1_555 1_555
O8 C21 1_555 1_555
O9 C26 1_555 1_555
O10 C26 1_555 1_555
C1 O2 1_555 1_555
C2 C1 1_555 1_555
C3 C2 1_555 1_555
H1 C3 1_555 1_555
C4 C3 1_555 1_555
H2 C4 1_555 1_555
C5 C4 1_555 1_555
C6 C5 1_555 1_555
C7 C6 1_555 1_555
C8 C7 1_555 1_555
H3 C8 1_555 1_555
C9 C8 1_555 1_555
H4 C9 1_555 1_555
C10 C9 1_555 1_555
C11 C10 1_555 1_555
C12 C10 1_555 1_555
H5 C12 1_555 1_555
C13 C7 1_555 1_555
H6 C13 1_555 1_555
C14 C5 1_555 1_555
H7 C14 1_555 1_555
C15 C2 1_555 1_555
H8 C15 1_555 1_555
C16 O1 1_555 1_555
C17 C16 1_555 1_555
C18 C17 1_555 1_555
H9 C18 1_555 1_555
C19 C18 1_555 1_555
H10 C19 1_555 1_555
C20 C19 1_555 1_555
C21 C20 1_555 1_555
C22 C21 1_555 1_555
C23 C22 1_555 1_555
H11 C23 1_555 1_555
C24 C23 1_555 1_555
H12 C24 1_555 1_555
C25 C24 1_555 1_555
C26 C25 1_555 1_555
C27 C25 1_555 1_555
H13 C27 1_555 1_555
C28 C22 1_555 1_555
H14 C28 1_555 1_555
C29 C20 1_555 1_555
H15 C29 1_555 1_555
C30 C17 1_555 1_555
H16 C30 1_555 1_555
C31 H17 1_555 1_555
C32 C31 1_555 1_555
H18 C32 1_555 1_555
C33 C32 1_555 1_555
C34 C33 1_555 1_555
H19 C34 1_555 1_555
C35 N1 1_555 1_555
H20 C35 1_555 1_555
C36 C33 1_555 1_555
C37 C36 1_555 1_555
H21 C37 1_555 1_555
C38 C37 1_555 1_555
H22 C38 1_555 1_555
C39 N2 1_555 1_555
H23 C39 1_555 1_555
C40 C36 1_555 1_555
H24 C40 1_555 1_555
Zn1B O9 1_555 1_555
Zn2B N2 1_555 1_555
Zn2E O5 1_555 1_555
N2B Zn2 1_555 1_555
O5E Zn2 1_555 1_555
O6E Zn2 1_555 1_555
O9B Zn1 1_555 1_555
O10B Zn1 1_555 1_555
O3 C1 1_555 1_555
O6 Zn2E 1_555 1_555
O10 Zn1B 1_555 1_555
C12 C13 1_555 1_555
C14 C15 1_555 1_555
C27 C28 1_555 1_555
C29 C30 1_555 1_555
C34 C35 1_555 1_555
C39 C40 1_555 1_555

#END
