
#######################################################################
#
#                 Cambridge Crystallographic Data Centre
#                                CCDC 
#
#######################################################################
#
# If this CIF has been generated from an entry in the Cambridge 
# Structural Database, then it will include bibliographic, chemical, 
# crystal, experimental, refinement or atomic coordinate data resulting 
# from the CCDC's data processing and validation procedures.
#
#######################################################################

data_VIVSEA
_symmetry_cell_setting           monoclinic
_symmetry_space_group_name_H-M   'C 2/c'
_symmetry_Int_Tables_number      15
_space_group_name_Hall           '-C 2yn'
loop_
_symmetry_equiv_pos_site_id
_symmetry_equiv_pos_as_xyz
1 x,y,z
2 -x,y,1/2-z
3 1/2+x,1/2+y,z
4 1/2-x,1/2+y,1/2-z
5 -x,-y,-z
6 x,-y,1/2+z
7 1/2-x,1/2-y,-z
8 1/2+x,1/2-y,1/2+z
_cell_length_a                   21.150(4)
_cell_length_b                   18.850(4)
_cell_length_c                   26.200(5)
_cell_angle_alpha                90
_cell_angle_beta                 102.90(3)
_cell_angle_gamma                90
_cell_volume                     10181.7
loop_
_atom_site_label
_atom_site_type_symbol
_atom_site_fract_x
_atom_site_fract_y
_atom_site_fract_z
Zn1 Zn 0.037230(16) 0.146818(19) 0.410881(12)
Zn2 Zn 0.128541(14) 0.284792(18) 0.428853(12)
N1 N 0.19600(12) 0.36077(14) 0.43445(10)
N2 N 0.45200(13) 0.59510(16) 0.41994(10)
O1 O -0.00829(11) 0.23240(13) 0.37465(10)
O2 O 0.04731(11) 0.33197(14) 0.39933(11)
O3 O 0.13245(12) 0.26260(14) 0.50288(9)
O4 O 0.06259(11) 0.17195(13) 0.48756(8)
O5 O 0.1739(3) 0.2326(3) 0.76706(13)
O6 O 0.04091(12) -0.09661(14) 0.84148(9)
O7 O 0.08189(13) -0.03667(15) 0.91277(9)
O8 O -0.24993(18) 0.4485(2) 0.22707(12)
O9 O -0.35285(12) 0.68797(14) 0.40710(10)
O10 O -0.34587(15) 0.75508(15) 0.33968(12)
C1 C -0.00238(14) 0.29820(19) 0.37581(13)
C2 C 0.10024(14) 0.21285(16) 0.51722(11)
C3 C 0.10915(15) 0.20399(19) 0.57517(11)
C4 C 0.16568(18) 0.2291(2) 0.60825(14)
H1 H 0.1970 0.2516 0.5942
C5 C 0.1754(2) 0.2207(3) 0.66162(15)
H2 H 0.2137 0.2370 0.6833
C6 C 0.1287(2) 0.1882(2) 0.68354(13)
C7 C 0.1409(3) 0.1867(3) 0.74197(15)
C8 C 0.1155(2) 0.1277(2) 0.77054(13)
C9 C 0.09925(19) 0.0611(2) 0.74875(12)
H3 H 0.1003 0.0528 0.7140
C10 C 0.08151(18) 0.0069(2) 0.77866(13)
H4 H 0.0695 -0.0372 0.7637
C11 C 0.08182(15) 0.01871(19) 0.83104(12)
C12 C 0.06703(15) -0.04115(19) 0.86372(12)
C13 C 0.0969(2) 0.0856(2) 0.85267(13)
H5 H 0.0956 0.0939 0.8874
C14 C 0.1139(2) 0.1396(2) 0.82293(15)
H6 H 0.1243 0.1841 0.8377
C15 C 0.0721(2) 0.1630(2) 0.65049(14)
H7 H 0.0404 0.1413 0.6647
C16 C 0.06271(17) 0.1702(2) 0.59696(13)
H8 H 0.0252 0.1524 0.5752
C17 C 0.24433(14) 0.37123(18) 0.47649(11)
H9 H 0.2446 0.3450 0.5066
C18 C 0.29396(14) 0.41945(18) 0.47703(11)
H10 H 0.3270 0.4248 0.5068
C19 C 0.29376(14) 0.45979(18) 0.43255(11)
C20 C 0.24129(18) 0.4512(2) 0.38995(13)
H11 H 0.2380 0.4789 0.3601
C21 C 0.19444(18) 0.4014(2) 0.39244(13)
H12 H 0.1602 0.3957 0.3635
C22 C 0.34801(15) 0.50802(18) 0.42860(12)
C23 C 0.3924(2) 0.5301(3) 0.47208(14)
H13 H 0.3881 0.5170 0.5054
C24 C 0.4441(2) 0.5724(3) 0.46562(14)
H14 H 0.4748 0.5853 0.4954
C25 C 0.40905(19) 0.5724(3) 0.37736(14)
H15 H 0.4144 0.5866 0.3446
C26 C 0.35753(19) 0.5292(3) 0.38002(14)
H16 H 0.3292 0.5143 0.3495
C27 C -0.05924(15) 0.34221(19) 0.34836(14)
C28 C -0.06610(17) 0.4110(2) 0.36436(17)
H17 H -0.0347 0.4307 0.3912
C29 C -0.11964(19) 0.4508(2) 0.34063(17)
H18 H -0.1244 0.4968 0.3520
C30 C -0.16600(17) 0.4223(2) 0.30014(14)
C31 C -0.22299(18) 0.4647(2) 0.27098(14)
C32 C -0.24735(16) 0.5263(2) 0.29734(13)
C33 C -0.25220(17) 0.5237(2) 0.34964(13)
H19 H -0.2357 0.4851 0.3705
C34 C -0.28190(16) 0.5792(2) 0.37027(13)
H20 H -0.2857 0.5770 0.4049
C35 C -0.30599(14) 0.63778(18) 0.34016(12)
C36 C -0.33722(14) 0.69810(19) 0.36232(13)
C37 C -0.29981(18) 0.6409(2) 0.28837(14)
H21 H -0.3147 0.6806 0.2681
C38 C -0.27154(19) 0.5851(2) 0.26683(13)
H22 H -0.2687 0.5870 0.2319
C39 C -0.1573(2) 0.3546(2) 0.2824(2)
H23 H -0.1869 0.3365 0.2537
C40 C -0.1050(2) 0.3137(2) 0.30676(19)
H24 H -0.1004 0.2675 0.2955
Zn1B Zn -0.462770(16) 0.646818(19) 0.410881(12)
Zn1B_2 Zn 0.537230(16) 0.646818(19) 0.410881(12)
Zn1E Zn 0.037230(16) -0.146818(19) 0.910881(12)
Zn2B Zn -0.371459(14) 0.784792(18) 0.428853(12)
N2B N -0.04800(13) 0.09510(16) 0.41994(10)
O6E O 0.04091(12) 0.09661(14) 0.34148(9)
O7E O 0.08189(13) 0.03667(15) 0.41277(9)
O9B O 0.14715(12) 0.18797(14) 0.40710(10)
O10B O 0.15413(15) 0.25508(15) 0.33968(12)
loop_
_geom_bond_atom_site_label_1
_geom_bond_atom_site_label_2
_geom_bond_site_symmetry_1
_geom_bond_site_symmetry_2
Zn1 O1 1_555 1_555
Zn2 N1 1_555 1_555
N1 C17 1_555 1_555
N2 C24 1_555 1_555
O1 C1 1_555 1_555
O2 Zn2 1_555 1_555
O3 Zn2 1_555 1_555
O4 Zn1 1_555 1_555
O5 C7 1_555 1_555
O6 C12 1_555 1_555
O7 C12 1_555 1_555
O8 C31 1_555 1_555
O9 C36 1_555 1_555
O10 C36 1_555 1_555
C1 O2 1_555 1_555
C2 O3 1_555 1_555
C3 C2 1_555 1_555
C4 C3 1_555 1_555
H1 C4 1_555 1_555
C5 C4 1_555 1_555
H2 C5 1_555 1_555
C6 C5 1_555 1_555
C7 C6 1_555 1_555
C8 C7 1_555 1_555
C9 C8 1_555 1_555
H3 C9 1_555 1_555
C10 C9 1_555 1_555
H4 C10 1_555 1_555
C11 C10 1_555 1_555
C12 C11 1_555 1_555
C13 C11 1_555 1_555
H5 C13 1_555 1_555
C14 C8 1_555 1_555
H6 C14 1_555 1_555
C15 C6 1_555 1_555
H7 C15 1_555 1_555
C16 C3 1_555 1_555
H8 C16 1_555 1_555
C17 H9 1_555 1_555
C18 C17 1_555 1_555
H10 C18 1_555 1_555
C19 C18 1_555 1_555
C20 C19 1_555 1_555
H11 C20 1_555 1_555
C21 N1 1_555 1_555
H12 C21 1_555 1_555
C22 C19 1_555 1_555
C23 C22 1_555 1_555
H13 C23 1_555 1_555
C24 C23 1_555 1_555
H14 C24 1_555 1_555
C25 N2 1_555 1_555
H15 C25 1_555 1_555
C26 C22 1_555 1_555
H16 C26 1_555 1_555
C27 C1 1_555 1_555
C28 C27 1_555 1_555
H17 C28 1_555 1_555
C29 C28 1_555 1_555
H18 C29 1_555 1_555
C30 C29 1_555 1_555
C31 C30 1_555 1_555
C32 C31 1_555 1_555
C33 C32 1_555 1_555
H19 C33 1_555 1_555
C34 C33 1_555 1_555
H20 C34 1_555 1_555
C35 C34 1_555 1_555
C36 C35 1_555 1_555
C37 C35 1_555 1_555
H21 C37 1_555 1_555
C38 C32 1_555 1_555
H22 C38 1_555 1_555
C39 C30 1_555 1_555
H23 C39 1_555 1_555
C40 C27 1_555 1_555
H24 C40 1_555 1_555
Zn1B O9 1_555 1_555
Zn1B_2 N2 1_555 1_555
Zn1E O6 1_555 1_555
Zn2B O9 1_555 1_555
N2B Zn1 1_555 1_555
O6E Zn1 1_555 1_555
O7E Zn1 1_555 1_555
O9B Zn1 1_555 1_555
O10B Zn2 1_555 1_555
Zn2 O9B 1_555 1_555
O4 C2 1_555 1_555
O7 Zn1E 1_555 1_555
O10 Zn2B 1_555 1_555
C13 C14 1_555 1_555
C15 C16 1_555 1_555
C20 C21 1_555 1_555
C25 C26 1_555 1_555
C37 C38 1_555 1_555
C39 C40 1_555 1_555

#END
