
#######################################################################
#
#                 Cambridge Crystallographic Data Centre
#                                CCDC 
#
#######################################################################
#
# If this CIF has been generated from an entry in the Cambridge 
# Structural Database, then it will include bibliographic, chemical, 
# crystal, experimental, refinement or atomic coordinate data resulting 
# from the CCDC's data processing and validation procedures.
#
#######################################################################

data_VIWBIO
_symmetry_cell_setting           orthorhombic
_symmetry_space_group_name_H-M   'P 21 21 21'
_symmetry_Int_Tables_number      19
_space_group_name_Hall           'P 2ac 2ab'
loop_
_symmetry_equiv_pos_site_id
_symmetry_equiv_pos_as_xyz
1 x,y,z
2 1/2-x,-y,1/2+z
3 1/2+x,1/2-y,-z
4 -x,1/2+y,1/2-z
_cell_length_a                   7.749(5)
_cell_length_b                   16.6960(10)
_cell_length_c                   17.1650(10)
_cell_angle_alpha                90
_cell_angle_beta                 90
_cell_angle_gamma                90
_cell_volume                     2220.76
loop_
_atom_site_label
_atom_site_type_symbol
_atom_site_fract_x
_atom_site_fract_y
_atom_site_fract_z
Zn1 Zn 0.66453(3) 0.411877(15) 0.301023(14)
O1 O 0.88129(19) 0.43184(11) 0.35573(8)
O2 O 0.7419(2) 0.43207(13) 0.46768(11)
O3 O 1.0079(2) 0.61683(12) 0.66964(9)
O4 O 0.7329(2) 0.59947(11) 0.69436(9)
N1 N 0.4953(2) 0.50383(11) 0.30604(11)
N2 N 0.2824(2) 0.58676(12) 0.28231(10)
N3 N -0.3109(2) 0.73078(12) 0.15983(11)
N4 N -0.5297(2) 0.81415(12) 0.16184(11)
C1 C 0.8727(3) 0.44209(13) 0.42956(13)
C2 C 1.0388(3) 0.46532(13) 0.46917(12)
C3 C 1.1750(3) 0.41135(15) 0.46964(12)
H1 H 1.1631 0.3627 0.4437
C4 C 1.3269(3) 0.42817(16) 0.50754(13)
H2 H 1.4158 0.3908 0.5085
C5 C 1.3460(3) 0.50110(16) 0.54418(13)
H3 H 1.4491 0.5133 0.5693
C6 C 1.2134(3) 0.55604(16) 0.54381(13)
H4 H 1.2288 0.6053 0.5681
C7 C 1.0556(3) 0.53893(14) 0.50753(11)
C8 C 0.9165(3) 0.60106(13) 0.50124(11)
C9 C 0.8834(3) 0.63223(14) 0.42744(13)
H5 H 0.9467 0.6133 0.3853
C10 C 0.7598(3) 0.69024(15) 0.41481(14)
H6 H 0.7454 0.7120 0.3654
C11 C 0.6581(4) 0.71580(14) 0.47555(14)
H7 H 0.5717 0.7535 0.4672
C12 C 0.6857(3) 0.68482(13) 0.54917(13)
H8 H 0.6149 0.7011 0.5900
C13 C 0.8159(3) 0.63023(12) 0.56367(11)
C14 C 0.8546(3) 0.61191(13) 0.64754(12)
C15 C 0.3526(3) 0.60803(15) 0.35334(14)
H9 H 0.3174 0.6498 0.3855
C16 C 0.4818(3) 0.55646(15) 0.36655(14)
H10 H 0.5519 0.5565 0.4105
C17 C 0.3725(3) 0.52358(14) 0.25683(13)
H11 H 0.3510 0.4970 0.2102
C18 C 0.1354(3) 0.62313(13) 0.24625(12)
C19 C 0.1251(3) 0.70521(14) 0.24260(14)
H12 H 0.2155 0.7367 0.2608
C20 C -0.0210(3) 0.74036(14) 0.21152(14)
H13 H -0.0292 0.7958 0.2082
C21 C -0.1534(3) 0.69330(13) 0.18564(11)
C22 C -0.1419(3) 0.61130(14) 0.18758(13)
H14 H -0.2316 0.5800 0.1683
C23 C 0.0035(3) 0.57549(14) 0.21833(13)
H15 H 0.0126 0.5200 0.2202
C24 C -0.3830(3) 0.79484(14) 0.19467(14)
H16 H -0.3348 0.8219 0.2367
C25 C -0.5522(3) 0.76029(16) 0.10255(15)
H17 H -0.6456 0.7596 0.0685
C26 C -0.4197(3) 0.70861(16) 0.10084(16)
H18 H -0.4048 0.6662 0.0664
Zn1A Zn 0.83547(3) 0.588123(15) 0.801023(14)
Zn1C Zn -0.66453(3) 0.911877(15) 0.198977(14)
O4A O 0.7671(2) 0.40053(11) 0.19436(9)
N4C N 0.5297(2) 0.31415(12) 0.33816(11)
loop_
_geom_bond_atom_site_label_1
_geom_bond_atom_site_label_2
_geom_bond_site_symmetry_1
_geom_bond_site_symmetry_2
Zn1 O1 1_555 1_555
O1 C1 1_555 1_555
O2 C1 1_555 1_555
O3 C14 1_555 1_555
O4 C14 1_555 1_555
N1 Zn1 1_555 1_555
N2 C15 1_555 1_555
N3 C21 1_555 1_555
N4 C24 1_555 1_555
C1 C2 1_555 1_555
C2 C3 1_555 1_555
C3 H1 1_555 1_555
C4 C3 1_555 1_555
H2 C4 1_555 1_555
C5 C4 1_555 1_555
H3 C5 1_555 1_555
C6 C5 1_555 1_555
H4 C6 1_555 1_555
C7 C2 1_555 1_555
C8 C7 1_555 1_555
C9 C8 1_555 1_555
H5 C9 1_555 1_555
C10 C9 1_555 1_555
H6 C10 1_555 1_555
C11 C10 1_555 1_555
H7 C11 1_555 1_555
C12 C11 1_555 1_555
H8 C12 1_555 1_555
C13 C8 1_555 1_555
C14 C13 1_555 1_555
C15 H9 1_555 1_555
C16 N1 1_555 1_555
H10 C16 1_555 1_555
C17 N1 1_555 1_555
H11 C17 1_555 1_555
C18 N2 1_555 1_555
C19 C18 1_555 1_555
H12 C19 1_555 1_555
C20 C19 1_555 1_555
H13 C20 1_555 1_555
C21 C20 1_555 1_555
C22 C21 1_555 1_555
H14 C22 1_555 1_555
C23 C18 1_555 1_555
H15 C23 1_555 1_555
C24 N3 1_555 1_555
H16 C24 1_555 1_555
C25 N4 1_555 1_555
H17 C25 1_555 1_555
C26 N3 1_555 1_555
H18 C26 1_555 1_555
Zn1A O4 1_555 1_555
Zn1C N4 1_555 1_555
O4A Zn1 1_555 1_555
N4C Zn1 1_555 1_555
N2 C17 1_555 1_555
C6 C7 1_555 1_555
C12 C13 1_555 1_555
C15 C16 1_555 1_555
C22 C23 1_555 1_555
C25 C26 1_555 1_555

#END
