
#######################################################################
#
#                 Cambridge Crystallographic Data Centre
#                                CCDC 
#
#######################################################################
#
# If this CIF has been generated from an entry in the Cambridge 
# Structural Database, then it will include bibliographic, chemical, 
# crystal, experimental, refinement or atomic coordinate data resulting 
# from the CCDC's data processing and validation procedures.
#
#######################################################################

data_VIWFUE
_symmetry_cell_setting           monoclinic
_symmetry_space_group_name_H-M   'C 2/c'
_symmetry_Int_Tables_number      15
_space_group_name_Hall           '-C 2yn'
loop_
_symmetry_equiv_pos_site_id
_symmetry_equiv_pos_as_xyz
1 x,y,z
2 -x,y,1/2-z
3 1/2+x,1/2+y,z
4 1/2-x,1/2+y,1/2-z
5 -x,-y,-z
6 x,-y,1/2+z
7 1/2-x,1/2-y,-z
8 1/2+x,1/2-y,1/2+z
_cell_length_a                   19.1498(6)
_cell_length_b                   17.7070(4)
_cell_length_c                   29.3088(7)
_cell_angle_alpha                90
_cell_angle_beta                 103.2520(10)
_cell_angle_gamma                90
_cell_volume                     9673.55
loop_
_atom_site_label
_atom_site_type_symbol
_atom_site_fract_x
_atom_site_fract_y
_atom_site_fract_z
Nb1 Nb 0.206915(11) 0.847105(13) 0.132074(8)
Mn1 Mn 0.25452(2) 0.60348(2) 0.255181(14)
Mn2 Mn 0.0000 1.0000 0.0000
O1 O 0.06533(11) 0.93028(13) -0.03991(7)
N1 N 0.23849(12) 0.70728(13) 0.21260(8)
N2 N 0.07317(12) 0.95164(13) 0.06350(8)
N3 N 0.22937(12) 1.00750(14) 0.19707(9)
N4 N 0.28936(13) 0.96497(15) 0.06842(9)
N5 N 0.07680(13) 0.85412(14) 0.19427(9)
N6 N 0.08247(13) 0.71960(14) 0.07677(9)
N7 N 0.38246(13) 0.84720(14) 0.19110(9)
N8 N 0.28110(14) 0.72489(16) 0.06612(9)
N9 N 0.15008(12) 0.55413(14) 0.21140(8)
N10 N -0.05779(14) 0.48252(17) 0.14675(11)
N11 N 0.32642(13) 0.55941(14) 0.20961(8)
N12 N 0.48799(19) 0.4975(2) 0.14239(11)
N13 N 0.18035(12) 0.65732(14) 0.29838(8)
N14 N 0.04405(16) 0.76405(19) 0.37146(10)
N15 N 0.35664(12) 0.65678(14) 0.30033(8)
N16 N 0.53291(18) 0.7743(3) 0.38017(11)
N17 N -0.07403(12) 0.90242(14) -0.00345(9)
N18 N -0.20071(17) 0.70779(18) -0.03223(11)
C1 C 0.22761(13) 0.75337(15) 0.18423(9)
C2 C 0.11894(14) 0.91717(15) 0.08669(9)
C3 C 0.22128(13) 0.95380(16) 0.17406(10)
C4 C 0.26163(14) 0.92472(16) 0.08976(10)
C5 C 0.12079(14) 0.85179(15) 0.17301(9)
C6 C 0.12385(14) 0.76237(15) 0.09663(9)
C7 C 0.32332(14) 0.84786(15) 0.17052(9)
C8 C 0.25756(14) 0.76697(16) 0.08866(10)
C9 C 0.10932(16) 0.59109(17) 0.17498(10)
C10 C 0.04009(16) 0.57077(17) 0.15335(11)
C11 C 0.00958(15) 0.50709(17) 0.16883(11)
C12 C 0.05187(16) 0.46678(17) 0.20604(11)
C13 C 0.12001(16) 0.49207(17) 0.22600(10)
C14 C 0.33652(16) 0.59566(17) 0.17131(10)
C15 C 0.39003(18) 0.57879(18) 0.14857(11)
C16 C 0.43679(17) 0.51872(19) 0.16468(11)
C17 C 0.42573(17) 0.47986(19) 0.20404(11)
C18 C 0.37180(16) 0.50218(17) 0.22518(10)
C19 C 0.37483(16) 0.65227(19) 0.34725(11)
C20 C 0.43202(18) 0.6902(3) 0.37530(11)
C21 C 0.47670(17) 0.7342(2) 0.35433(11)
C22 C 0.45887(16) 0.73774(18) 0.30517(11)
C23 C 0.39987(16) 0.69954(18) 0.28043(10)
C24 C 0.13004(15) 0.70829(16) 0.27811(10)
C25 C 0.08343(15) 0.74344(17) 0.30041(10)
C26 C 0.08638(15) 0.72685(18) 0.34756(10)
C27 C 0.13688(15) 0.67289(18) 0.36890(10)
C28 C 0.18140(15) 0.64029(17) 0.34333(10)
C29 C -0.14350(15) 0.90521(18) -0.02734(11)
C30 C -0.18730(16) 0.84357(19) -0.03662(11)
C31 C -0.16011(17) 0.77082(18) -0.02248(11)
C32 C -0.08835(16) 0.76775(17) 0.00291(11)
C33 C -0.04890(15) 0.83309(17) 0.01128(10)
H1 H 0.1092 0.9410 -0.0369
H2 H 0.0697 0.8827 -0.0339
H3 H 0.1294 0.6340 0.1633
H4 H 0.0135 0.6000 0.1281
H5 H -0.0769 0.4433 0.1600
H6 H -0.0852 0.5172 0.1288
H7 H 0.0338 0.4224 0.2175
H8 H 0.5214 0.4621 0.1529
H9 H 0.4911 0.5232 0.1159
H10 H 0.1477 0.4643 0.2516
H11 H 0.3046 0.6356 0.1591
H12 H 0.0021 0.7785 0.3531
H13 H 0.0386 0.7446 0.3989
H14 H 0.3952 0.6076 0.1222
H15 H 0.5521 0.7491 0.4071
H16 H 0.5679 0.7831 0.3646
H17 H 0.4554 0.4381 0.2162
H18 H 0.3664 0.4756 0.2523
H19 H -0.1822 0.6650 -0.0192
H20 H -0.2495 0.7097 -0.0434
H21 H 0.3465 0.6209 0.3622
H22 H 0.4409 0.6863 0.4085
H23 H 0.4876 0.7665 0.2891
H24 H 0.3888 0.7035 0.2472
H25 H 0.1268 0.7206 0.2461
H26 H 0.0494 0.7788 0.2840
H27 H 0.1405 0.6588 0.4006
H28 H 0.2149 0.6035 0.3585
H29 H -0.1629 0.9530 -0.0383
H30 H -0.2361 0.8495 -0.0526
H31 H -0.0673 0.7208 0.0142
H32 H -0.0006 0.8294 0.0286
Nb1D Nb -0.206915(11) 1.152895(13) -0.132074(8)
Mn1D Mn -0.25452(2) 1.39652(2) -0.255181(14)
O1D O -0.06533(11) 1.06972(13) 0.03991(7)
N1D N -0.23849(12) 1.29272(13) -0.21260(8)
N2D N -0.07317(12) 1.04836(13) -0.06350(8)
N3D N -0.22937(12) 0.99250(14) -0.19707(9)
N4D N -0.28936(13) 1.03503(15) -0.06842(9)
N5D N -0.07680(13) 1.14588(14) -0.19427(9)
N6D N -0.08247(13) 1.28040(14) -0.07677(9)
N7D N -0.38246(13) 1.15280(14) -0.19110(9)
N8D N -0.28110(14) 1.27511(16) -0.06612(9)
N9D N -0.15008(12) 1.44587(14) -0.21140(8)
N10D N 0.05779(14) 1.51748(17) -0.14675(11)
N11D N -0.32642(13) 1.44059(14) -0.20961(8)
N12D N -0.48799(19) 1.5025(2) -0.14239(11)
N13D N -0.18035(12) 1.34268(14) -0.29838(8)
N14D N -0.04405(16) 1.23595(19) -0.37146(10)
N15D N -0.35664(12) 1.34322(14) -0.30033(8)
N16D N -0.53291(18) 1.2257(3) -0.38017(11)
N17D N 0.07403(12) 1.09758(14) 0.00345(9)
N18D N 0.20071(17) 1.29221(18) 0.03223(11)
C1D C -0.22761(13) 1.24663(15) -0.18423(9)
C2D C -0.11894(14) 1.08283(15) -0.08669(9)
C3D C -0.22128(13) 1.04620(16) -0.17406(10)
C4D C -0.26163(14) 1.07528(16) -0.08976(10)
C5D C -0.12079(14) 1.14821(15) -0.17301(9)
C6D C -0.12385(14) 1.23763(15) -0.09663(9)
C7D C -0.32332(14) 1.15214(15) -0.17052(9)
C8D C -0.25756(14) 1.23303(16) -0.08866(10)
C9D C -0.10932(16) 1.40891(17) -0.17498(10)
C10D C -0.04009(16) 1.42923(17) -0.15335(11)
C11D C -0.00958(15) 1.49291(17) -0.16883(11)
C12D C -0.05187(16) 1.53322(17) -0.20604(11)
C13D C -0.12001(16) 1.50793(17) -0.22600(10)
C14D C -0.33652(16) 1.40434(17) -0.17131(10)
C15D C -0.39003(18) 1.42121(18) -0.14857(11)
C16D C -0.43679(17) 1.48128(19) -0.16468(11)
C17D C -0.42573(17) 1.52014(19) -0.20404(11)
C18D C -0.37180(16) 1.49782(17) -0.22518(10)
C19D C -0.37483(16) 1.34773(19) -0.34725(11)
C20D C -0.43202(18) 1.3098(3) -0.37530(11)
C21D C -0.47670(17) 1.2658(2) -0.35433(11)
C22D C -0.45887(16) 1.26226(18) -0.30517(11)
C23D C -0.39987(16) 1.30046(18) -0.28043(10)
C24D C -0.13004(15) 1.29171(16) -0.27811(10)
C25D C -0.08343(15) 1.25656(17) -0.30041(10)
C26D C -0.08638(15) 1.27315(18) -0.34756(10)
C27D C -0.13688(15) 1.32711(18) -0.36890(10)
C28D C -0.18140(15) 1.35971(17) -0.34333(10)
C29D C 0.14350(15) 1.09479(18) 0.02734(11)
C30D C 0.18730(16) 1.15643(19) 0.03662(11)
C31D C 0.16011(17) 1.22918(18) 0.02248(11)
C32D C 0.08835(16) 1.23225(17) -0.00291(11)
C33D C 0.04890(15) 1.16691(17) -0.01128(10)
H1D H -0.1092 1.0590 0.0369
H2D H -0.0697 1.1173 0.0339
H3D H -0.1294 1.3660 -0.1633
H4D H -0.0135 1.4000 -0.1281
H5D H 0.0769 1.5567 -0.1600
H6D H 0.0852 1.4828 -0.1288
H7D H -0.0338 1.5776 -0.2175
H8D H -0.5214 1.5379 -0.1529
H9D H -0.4911 1.4768 -0.1159
H10D H -0.1477 1.5357 -0.2516
H11D H -0.3046 1.3644 -0.1591
H12D H -0.0021 1.2215 -0.3531
H13D H -0.0386 1.2554 -0.3989
H14D H -0.3952 1.3924 -0.1222
H15D H -0.5521 1.2509 -0.4071
H16D H -0.5679 1.2169 -0.3646
H17D H -0.4554 1.5619 -0.2162
H18D H -0.3664 1.5244 -0.2523
H19D H 0.1822 1.3350 0.0192
H20D H 0.2495 1.2903 0.0434
H21D H -0.3465 1.3791 -0.3622
H22D H -0.4409 1.3137 -0.4085
H23D H -0.4876 1.2335 -0.2891
H24D H -0.3888 1.2965 -0.2472
H25D H -0.1268 1.2794 -0.2461
H26D H -0.0494 1.2212 -0.2840
H27D H -0.1405 1.3412 -0.4006
H28D H -0.2149 1.3965 -0.3585
H29D H 0.1629 1.0470 0.0383
H30D H 0.2361 1.1505 0.0526
H31D H 0.0673 1.2792 -0.0142
H32D H 0.0006 1.1706 -0.0286
Mn1C Mn 0.24548(2) 1.10348(2) 0.244819(14)
Mn1G Mn -0.24548(2) 0.89652(2) -0.244819(14)
N3C N 0.27063(12) 0.50750(14) 0.30293(9)
N3G N -0.27063(12) 1.49250(14) -0.30293(9)
O2 O -0.13835(16) 0.57950(15) 0.02461(10)
O3 O 0.01297(17) 0.58632(16) 0.03280(10)
O4 O 0.0077(2) 0.5626(3) -0.05882(12)
O6 O 0.10066(13) 0.77762(14) -0.02080(8)
O7 O 0.21826(13) 0.92893(14) -0.02977(8)
N19 N -0.2339(2) 0.5372(2) -0.08512(12)
N20 N -0.2061(3) 0.6735(3) -0.19186(16)
C34 C -0.1675(3) 0.5456(3) -0.09276(14)
C35 C -0.1560(3) 0.5935(3) -0.12680(14)
C36 C -0.2140(3) 0.6308(2) -0.15520(15)
C37 C -0.2818(3) 0.6221(3) -0.14549(17)
C38 C -0.2898(3) 0.5755(3) -0.11022(16)
H33 H -0.2406 0.5058 -0.0632
H34 H -0.1285 0.5181 -0.0743
H35 H -0.1088 0.6014 -0.1311
H36 H -0.3219 0.6486 -0.1634
H37 H -0.3356 0.5700 -0.1033
O5? O 0.0705(19) 0.609(3) -0.0457(11)
O8? O 0.2105(12) 1.0085(13) -0.0286(8)
loop_
_geom_bond_atom_site_label_1
_geom_bond_atom_site_label_2
_geom_bond_site_symmetry_1
_geom_bond_site_symmetry_2
Nb1 C1 1_555 1_555
Mn1 N1 1_555 1_555
Mn2 O1 1_555 1_555
O1 H1 1_555 1_555
N1 C1 1_555 1_555
N2 Mn2 1_555 1_555
N3 C3 1_555 1_555
N4 C4 1_555 1_555
N5 C5 1_555 1_555
N6 C6 1_555 1_555
N7 C7 1_555 1_555
N8 C8 1_555 1_555
N9 Mn1 1_555 1_555
N10 C11 1_555 1_555
N11 Mn1 1_555 1_555
N12 C16 1_555 1_555
N13 Mn1 1_555 1_555
N14 C26 1_555 1_555
N15 Mn1 1_555 1_555
N16 C21 1_555 1_555
N17 Mn2 1_555 1_555
N18 C31 1_555 1_555
C2 Nb1 1_555 1_555
C3 Nb1 1_555 1_555
C4 Nb1 1_555 1_555
C5 Nb1 1_555 1_555
C6 Nb1 1_555 1_555
C7 Nb1 1_555 1_555
C8 Nb1 1_555 1_555
C9 N9 1_555 1_555
C10 C9 1_555 1_555
C11 C10 1_555 1_555
C12 C11 1_555 1_555
C13 N9 1_555 1_555
C14 N11 1_555 1_555
C15 C14 1_555 1_555
C16 C15 1_555 1_555
C17 C16 1_555 1_555
C18 N11 1_555 1_555
C19 N15 1_555 1_555
C20 C19 1_555 1_555
C21 C20 1_555 1_555
C22 C21 1_555 1_555
C23 N15 1_555 1_555
C24 N13 1_555 1_555
C25 C24 1_555 1_555
C26 C25 1_555 1_555
C27 C26 1_555 1_555
C28 N13 1_555 1_555
C29 N17 1_555 1_555
C30 C29 1_555 1_555
C31 C30 1_555 1_555
C32 C31 1_555 1_555
C33 N17 1_555 1_555
H2 O1 1_555 1_555
H3 C9 1_555 1_555
H4 C10 1_555 1_555
H5 N10 1_555 1_555
H6 N10 1_555 1_555
H7 C12 1_555 1_555
H8 N12 1_555 1_555
H9 N12 1_555 1_555
H10 C13 1_555 1_555
H11 C14 1_555 1_555
H12 N14 1_555 1_555
H13 N14 1_555 1_555
H14 C15 1_555 1_555
H15 N16 1_555 1_555
H16 N16 1_555 1_555
H17 C17 1_555 1_555
H18 C18 1_555 1_555
H19 N18 1_555 1_555
H20 N18 1_555 1_555
H21 C19 1_555 1_555
H22 C20 1_555 1_555
H23 C22 1_555 1_555
H24 C23 1_555 1_555
H25 C24 1_555 1_555
H26 C25 1_555 1_555
H27 C27 1_555 1_555
H28 C28 1_555 1_555
H29 C29 1_555 1_555
H30 C30 1_555 1_555
H31 C32 1_555 1_555
H32 C33 1_555 1_555
N19 C34 1_555 1_555
N20 C36 1_555 1_555
C34 C35 1_555 1_555
C35 C36 1_555 1_555
C36 C37 1_555 1_555
C37 C38 1_555 1_555
C38 N19 1_555 1_555
H33 N19 1_555 1_555
H34 C34 1_555 1_555
H35 C35 1_555 1_555
H36 C37 1_555 1_555
H37 C38 1_555 1_555
Nb1D C1D 1_555 1_555
Mn1D N1D 1_555 1_555
O1D Mn2 1_555 1_555
N1D C1D 1_555 1_555
N2D Mn2 1_555 1_555
N3D C3D 1_555 1_555
N4D C4D 1_555 1_555
N5D C5D 1_555 1_555
N6D C6D 1_555 1_555
N7D C7D 1_555 1_555
N8D C8D 1_555 1_555
N9D Mn1D 1_555 1_555
N10D C11D 1_555 1_555
N11D Mn1D 1_555 1_555
N12D C16D 1_555 1_555
N13D Mn1D 1_555 1_555
N14D C26D 1_555 1_555
N15D Mn1D 1_555 1_555
N16D C21D 1_555 1_555
N17D Mn2 1_555 1_555
N18D C31D 1_555 1_555
C2D Nb1D 1_555 1_555
C3D Nb1D 1_555 1_555
C4D Nb1D 1_555 1_555
C5D Nb1D 1_555 1_555
C6D Nb1D 1_555 1_555
C7D Nb1D 1_555 1_555
C8D Nb1D 1_555 1_555
C9D N9D 1_555 1_555
C10D C9D 1_555 1_555
C11D C10D 1_555 1_555
C12D C11D 1_555 1_555
C13D N9D 1_555 1_555
C14D N11D 1_555 1_555
C15D C14D 1_555 1_555
C16D C15D 1_555 1_555
C17D C16D 1_555 1_555
C18D N11D 1_555 1_555
C19D N15D 1_555 1_555
C20D C19D 1_555 1_555
C21D C20D 1_555 1_555
C22D C21D 1_555 1_555
C23D N15D 1_555 1_555
C24D N13D 1_555 1_555
C25D C24D 1_555 1_555
C26D C25D 1_555 1_555
C27D C26D 1_555 1_555
C28D N13D 1_555 1_555
C29D N17D 1_555 1_555
C30D C29D 1_555 1_555
C31D C30D 1_555 1_555
C32D C31D 1_555 1_555
C33D N17D 1_555 1_555
H1D O1D 1_555 1_555
H2D O1D 1_555 1_555
H3D C9D 1_555 1_555
H4D C10D 1_555 1_555
H5D N10D 1_555 1_555
H6D N10D 1_555 1_555
H7D C12D 1_555 1_555
H8D N12D 1_555 1_555
H9D N12D 1_555 1_555
H10D C13D 1_555 1_555
H11D C14D 1_555 1_555
H12D N14D 1_555 1_555
H13D N14D 1_555 1_555
H14D C15D 1_555 1_555
H15D N16D 1_555 1_555
H16D N16D 1_555 1_555
H17D C17D 1_555 1_555
H18D C18D 1_555 1_555
H19D N18D 1_555 1_555
H20D N18D 1_555 1_555
H21D C19D 1_555 1_555
H22D C20D 1_555 1_555
H23D C22D 1_555 1_555
H24D C23D 1_555 1_555
H25D C24D 1_555 1_555
H26D C25D 1_555 1_555
H27D C27D 1_555 1_555
H28D C28D 1_555 1_555
H29D C29D 1_555 1_555
H30D C30D 1_555 1_555
H31D C32D 1_555 1_555
H32D C33D 1_555 1_555
Mn1C N3 1_555 1_555
Mn1G N3D 1_555 1_555
N3C Mn1 1_555 1_555
N3G Mn1D 1_555 1_555
N2 C2 1_555 1_555
C12 C13 1_555 1_555
C17 C18 1_555 1_555
C22 C23 1_555 1_555
C27 C28 1_555 1_555
C32 C33 1_555 1_555
N2D C2D 1_555 1_555
C12D C13D 1_555 1_555
C17D C18D 1_555 1_555
C22D C23D 1_555 1_555
C27D C28D 1_555 1_555
C32D C33D 1_555 1_555

#END
