
#######################################################################
#
#                 Cambridge Crystallographic Data Centre
#                                CCDC 
#
#######################################################################
#
# If this CIF has been generated from an entry in the Cambridge 
# Structural Database, then it will include bibliographic, chemical, 
# crystal, experimental, refinement or atomic coordinate data resulting 
# from the CCDC's data processing and validation procedures.
#
#######################################################################

data_VIWHUG
_symmetry_cell_setting           monoclinic
_symmetry_space_group_name_H-M   'C 2/c'
_symmetry_Int_Tables_number      15
_space_group_name_Hall           '-C 2yn'
loop_
_symmetry_equiv_pos_site_id
_symmetry_equiv_pos_as_xyz
1 x,y,z
2 -x,y,1/2-z
3 1/2+x,1/2+y,z
4 1/2-x,1/2+y,1/2-z
5 -x,-y,-z
6 x,-y,1/2+z
7 1/2-x,1/2-y,-z
8 1/2+x,1/2-y,1/2+z
_cell_length_a                   35.942(3)
_cell_length_b                   8.2640(10)
_cell_length_c                   19.180(2)
_cell_angle_alpha                90
_cell_angle_beta                 110.6100(10)
_cell_angle_gamma                90
_cell_volume                     5332.32
loop_
_atom_site_label
_atom_site_type_symbol
_atom_site_fract_x
_atom_site_fract_y
_atom_site_fract_z
C1 C 0.71816(17) 0.6950(7) 0.6374(3)
C2 C 0.66702(16) 0.4137(6) 0.6367(3)
C3 C 0.67391(17) 0.7051(6) 0.6017(3)
C4 C 0.64965(15) 0.5707(6) 0.6005(3)
C5 C 0.60969(17) 0.5888(7) 0.5668(3)
C6 C 0.5916(2) 0.7309(8) 0.5347(4)
H1 H 0.5641 0.7380 0.5120
C7 C 0.6162(2) 0.8644(9) 0.5376(4)
H2 H 0.6051 0.9619 0.5160
C8 C 0.65624(19) 0.8514(7) 0.5720(4)
H3 H 0.6721 0.9421 0.5757
C9 C 0.57140(16) 0.3566(7) 0.5127(3)
C10 C 0.58646(18) 0.3452(8) 0.4567(3)
H4 H 0.6055 0.4185 0.4541
C11 C 0.5734(2) 0.2258(8) 0.4046(4)
H5 H 0.5840 0.2180 0.3669
C12 C 0.54467(19) 0.1161(7) 0.4067(3)
C13 C 0.5282(2) 0.1349(8) 0.4598(4)
H6 H 0.5074 0.0678 0.4597
C14 C 0.54195(19) 0.2525(7) 0.5141(4)
H7 H 0.5312 0.2611 0.5515
C15 C 0.5331(3) -0.0215(9) 0.3522(4)
C16 C 0.68455(16) -0.1068(6) 0.7746(3)
H8 H 0.7118 -0.1235 0.7954
C17 C 0.65950(17) -0.2365(6) 0.7678(4)
H9 H 0.6701 -0.3388 0.7827
C18 C 0.61847(17) -0.2159(6) 0.7387(3)
C19 C 0.60479(19) -0.0579(7) 0.7135(4)
H10 H 0.5777 -0.0371 0.6918
C20 C 0.63153(17) 0.0620(7) 0.7212(4)
H11 H 0.6220 0.1645 0.7039
C21 C 0.57807(18) -0.6050(7) 0.7815(4)
H12 H 0.5876 -0.6941 0.8122
C22 C 0.60401(18) -0.4852(7) 0.7809(4)
H13 H 0.6307 -0.4942 0.8107
C23 C 0.59096(16) -0.3497(6) 0.7360(3)
C24 C 0.55175(18) -0.3481(8) 0.6924(4)
H14 H 0.5415 -0.2614 0.6605
C25 C 0.52704(18) -0.4746(8) 0.6953(4)
H15 H 0.5005 -0.4714 0.6644
N1 N 0.67115(14) 0.0415(5) 0.7525(3)
N2 N 0.53979(14) -0.5997(5) 0.7402(3)
O1 O 0.73686(11) 0.8202(5) 0.6702(2)
O2 O 0.73522(12) 0.5667(5) 0.6368(3)
O3 O 0.67917(11) 0.4128(4) 0.7072(2)
O4 O 0.66728(13) 0.2969(5) 0.5965(2)
O5 O 0.58472(12) 0.4628(5) 0.5717(2)
O6 O 0.5515(3) -0.0463(8) 0.3105(4)
O7 O 0.5057(2) -0.1053(8) 0.3489(3)
O8 O 0.73353(12) 0.1498(5) 0.6883(2)
H16 H 0.7263 0.0528 0.6903
H17 H 0.7163 0.1993 0.6527
O9 O 0.68907(13) 0.3061(5) 0.8624(2)
H18 H 0.7105 0.3225 0.8987
H19 H 0.6737 0.2463 0.8755
Zn1 Zn 0.708535(19) 0.23539(7) 0.77248(4)
Zn2 Zn 0.5000 -0.77502(10) 0.7500
C1A C 0.28184(17) 0.6950(7) 0.8626(3)
C2A C 0.33298(16) 0.4137(6) 0.8633(3)
C3A C 0.32609(17) 0.7051(6) 0.8983(3)
C4A C 0.35035(15) 0.5707(6) 0.8995(3)
C5A C 0.39031(17) 0.5888(7) 0.9332(3)
C6A C 0.4084(2) 0.7309(8) 0.9653(4)
H1A H 0.4359 0.7380 0.9880
C7A C 0.3838(2) 0.8644(9) 0.9624(4)
H2A H 0.3949 0.9619 0.9840
C8A C 0.34376(19) 0.8514(7) 0.9280(4)
H3A H 0.3279 0.9421 0.9243
C9A C 0.42860(16) 0.3566(7) 0.9873(3)
C10A C 0.41354(18) 0.3452(8) 1.0433(3)
H4A H 0.3945 0.4185 1.0459
C11A C 0.4266(2) 0.2258(8) 1.0954(4)
H5A H 0.4160 0.2180 1.1331
C12A C 0.45533(19) 0.1161(7) 1.0933(3)
C13A C 0.4718(2) 0.1349(8) 1.0402(4)
H6A H 0.4926 0.0678 1.0403
C14A C 0.45805(19) 0.2525(7) 0.9859(4)
H7A H 0.4688 0.2611 0.9485
C15A C 0.4669(3) -0.0215(9) 1.1478(4)
C16A C 0.31545(16) -0.1068(6) 0.7254(3)
H8A H 0.2882 -0.1235 0.7046
C17A C 0.34050(17) -0.2365(6) 0.7322(4)
H9A H 0.3299 -0.3388 0.7173
C18A C 0.38153(17) -0.2159(6) 0.7613(3)
C19A C 0.39521(19) -0.0579(7) 0.7865(4)
H10A H 0.4223 -0.0371 0.8082
C20A C 0.36847(17) 0.0620(7) 0.7788(4)
H11A H 0.3780 0.1645 0.7961
C21A C 0.42193(18) -0.6050(7) 0.7185(4)
H12A H 0.4124 -0.6941 0.6878
C22A C 0.39599(18) -0.4852(7) 0.7191(4)
H13A H 0.3693 -0.4942 0.6893
C23A C 0.40904(16) -0.3497(6) 0.7640(3)
C24A C 0.44825(18) -0.3481(8) 0.8076(4)
H14A H 0.4585 -0.2614 0.8395
C25A C 0.47296(18) -0.4746(8) 0.8047(4)
H15A H 0.4995 -0.4714 0.8356
N1A N 0.32885(14) 0.0415(5) 0.7475(3)
N2A N 0.46021(14) -0.5997(5) 0.7598(3)
O1A O 0.26314(11) 0.8202(5) 0.8298(2)
O2A O 0.26478(12) 0.5667(5) 0.8632(3)
O3A O 0.32083(11) 0.4128(4) 0.7928(2)
O4A O 0.33272(13) 0.2969(5) 0.9035(2)
O5A O 0.41528(12) 0.4628(5) 0.9283(2)
O6A O 0.4485(3) -0.0463(8) 1.1895(4)
O7A O 0.4943(2) -0.1053(8) 1.1511(3)
O8A O 0.26647(12) 0.1498(5) 0.8117(2)
H16A H 0.2737 0.0528 0.8097
H17A H 0.2837 0.1993 0.8473
O9A O 0.31093(13) 0.3061(5) 0.6376(2)
H18A H 0.2895 0.3225 0.6013
H19A H 0.3263 0.2463 0.6245
Zn1A Zn 0.291465(19) 0.23539(7) 0.72752(4)
O1B O 0.23686(11) 0.3202(5) 0.6702(2)
O1C O 0.76314(11) 0.3202(5) 0.8298(2)
O2B O 0.23522(12) 0.0667(5) 0.6368(3)
O2C O 0.76478(12) 0.0667(5) 0.8632(3)
O6D O 0.4485(3) -0.9537(8) 0.6895(4)
O6E O 0.5515(3) -0.9537(8) 0.8105(4)
O7D O 0.4943(2) -0.8947(8) 0.6511(3)
O7E O 0.5057(2) -0.8947(8) 0.8489(3)
Zn1B Zn 0.208535(19) 0.73539(7) 0.77248(4)
Zn1C Zn 0.791465(19) 0.73539(7) 0.72752(4)
Zn2D Zn 0.5000 -0.22498(10) 0.2500
Zn2D_2 Zn 0.5000 -0.22498(10) 1.2500
O10 O 0.6859(2) 0.2092(10) 0.4742(4)
H20 H 0.6844 0.2965 0.4483
H21 H 0.6797 0.2328 0.5117
O11 O 0.6441(2) 0.0758(10) 0.8967(4)
H22 H 0.6478 0.0596 0.8560
H23 H 0.6667 0.0821 0.9311
O12 O 0.7386(3) 0.5048(11) 0.9825(6)
loop_
_geom_bond_atom_site_label_1
_geom_bond_atom_site_label_2
_geom_bond_site_symmetry_1
_geom_bond_site_symmetry_2
C1 C3 1_555 1_555
C2 C4 1_555 1_555
C3 C4 1_555 1_555
C4 C5 1_555 1_555
C5 C6 1_555 1_555
C6 H1 1_555 1_555
C7 C6 1_555 1_555
H2 C7 1_555 1_555
C8 C3 1_555 1_555
H3 C8 1_555 1_555
C9 C10 1_555 1_555
C10 H4 1_555 1_555
C11 C10 1_555 1_555
H5 C11 1_555 1_555
C12 C11 1_555 1_555
C13 C12 1_555 1_555
H6 C13 1_555 1_555
C14 C9 1_555 1_555
H7 C14 1_555 1_555
C15 C12 1_555 1_555
C16 H8 1_555 1_555
C17 C16 1_555 1_555
H9 C17 1_555 1_555
C18 C17 1_555 1_555
C19 C18 1_555 1_555
H10 C19 1_555 1_555
C20 C19 1_555 1_555
H11 C20 1_555 1_555
C21 H12 1_555 1_555
C22 C21 1_555 1_555
H13 C22 1_555 1_555
C23 C18 1_555 1_555
C24 C23 1_555 1_555
H14 C24 1_555 1_555
C25 C24 1_555 1_555
H15 C25 1_555 1_555
N1 C16 1_555 1_555
N2 C21 1_555 1_555
O1 C1 1_555 1_555
O2 C1 1_555 1_555
O3 C2 1_555 1_555
O4 C2 1_555 1_555
O5 C5 1_555 1_555
O6 C15 1_555 1_555
O7 C15 1_555 1_555
O8 H16 1_555 1_555
H17 O8 1_555 1_555
O9 H18 1_555 1_555
H19 O9 1_555 1_555
Zn1 N1 1_555 1_555
Zn2 N2 1_555 1_555
O10 H20 1_555 1_555
H21 O10 1_555 1_555
O11 H22 1_555 1_555
H23 O11 1_555 1_555
C1A C3A 1_555 1_555
C2A C4A 1_555 1_555
C3A C4A 1_555 1_555
C4A C5A 1_555 1_555
C5A C6A 1_555 1_555
C6A H1A 1_555 1_555
C7A C6A 1_555 1_555
H2A C7A 1_555 1_555
C8A C3A 1_555 1_555
H3A C8A 1_555 1_555
C9A C10A 1_555 1_555
C10A H4A 1_555 1_555
C11A C10A 1_555 1_555
H5A C11A 1_555 1_555
C12A C11A 1_555 1_555
C13A C12A 1_555 1_555
H6A C13A 1_555 1_555
C14A C9A 1_555 1_555
H7A C14A 1_555 1_555
C15A C12A 1_555 1_555
C16A H8A 1_555 1_555
C17A C16A 1_555 1_555
H9A C17A 1_555 1_555
C18A C17A 1_555 1_555
C19A C18A 1_555 1_555
H10A C19A 1_555 1_555
C20A C19A 1_555 1_555
H11A C20A 1_555 1_555
C21A H12A 1_555 1_555
C22A C21A 1_555 1_555
H13A C22A 1_555 1_555
C23A C18A 1_555 1_555
C24A C23A 1_555 1_555
H14A C24A 1_555 1_555
C25A C24A 1_555 1_555
H15A C25A 1_555 1_555
N1A C16A 1_555 1_555
N2A Zn2 1_555 1_555
O1A C1A 1_555 1_555
O2A C1A 1_555 1_555
O3A C2A 1_555 1_555
O4A C2A 1_555 1_555
O5A C5A 1_555 1_555
O6A C15A 1_555 1_555
O7A C15A 1_555 1_555
O8A H16A 1_555 1_555
H17A O8A 1_555 1_555
O9A H18A 1_555 1_555
H19A O9A 1_555 1_555
Zn1A N1A 1_555 1_555
O1B Zn1A 1_555 1_555
O1C Zn1 1_555 1_555
O2B Zn1A 1_555 1_555
O2C Zn1 1_555 1_555
O6D Zn2 1_555 1_555
O6E Zn2 1_555 1_555
O7D Zn2 1_555 1_555
O7E Zn2 1_555 1_555
Zn1B O1A 1_555 1_555
Zn1C O1 1_555 1_555
Zn2D O6 1_555 1_555
Zn2D_2 O6A 1_555 1_555
C7 C8 1_555 1_555
C9 O5 1_555 1_555
C13 C14 1_555 1_555
C20 N1 1_555 1_555
C22 C23 1_555 1_555
C25 N2 1_555 1_555
O2 Zn1C 1_555 1_555
O3 Zn1 1_555 1_555
O7 Zn2D 1_555 1_555
O8 Zn1 1_555 1_555
O9 Zn1 1_555 1_555
C7A C8A 1_555 1_555
C9A O5A 1_555 1_555
C13A C14A 1_555 1_555
C20A N1A 1_555 1_555
C21A N2A 1_555 1_555
C22A C23A 1_555 1_555
C25A N2A 1_555 1_555
O2A Zn1B 1_555 1_555
O3A Zn1A 1_555 1_555
O7A Zn2D_2 1_555 1_555
O8A Zn1A 1_555 1_555
O9A Zn1A 1_555 1_555

#END
