
#######################################################################
#
#                 Cambridge Crystallographic Data Centre
#                                CCDC 
#
#######################################################################
#
# If this CIF has been generated from an entry in the Cambridge 
# Structural Database, then it will include bibliographic, chemical, 
# crystal, experimental, refinement or atomic coordinate data resulting 
# from the CCDC's data processing and validation procedures.
#
#######################################################################

data_VIWHIU
_symmetry_cell_setting           monoclinic
_symmetry_space_group_name_H-M   'C 2/c'
_symmetry_Int_Tables_number      15
_space_group_name_Hall           '-C 2yn'
loop_
_symmetry_equiv_pos_site_id
_symmetry_equiv_pos_as_xyz
1 x,y,z
2 -x,y,1/2-z
3 1/2+x,1/2+y,z
4 1/2-x,1/2+y,1/2-z
5 -x,-y,-z
6 x,-y,1/2+z
7 1/2-x,1/2-y,-z
8 1/2+x,1/2-y,1/2+z
_cell_length_a                   19.9577(10)
_cell_length_b                   17.7046(10)
_cell_length_c                   14.7378(8)
_cell_angle_alpha                90
_cell_angle_beta                 120.6740(10)
_cell_angle_gamma                90
_cell_volume                     4478.89
loop_
_atom_site_label
_atom_site_type_symbol
_atom_site_fract_x
_atom_site_fract_y
_atom_site_fract_z
C1 C 1.02365(9) 0.38247(9) 1.39700(12)
C2 C 0.88764(8) 0.48167(9) 1.32126(11)
C3 C 0.94382(9) 0.35374(9) 1.31829(12)
C4 C 0.88154(9) 0.40413(9) 1.27584(12)
C5 C 0.80976(9) 0.38170(9) 1.19124(12)
C6 C 0.79848(10) 0.30932(10) 1.15137(13)
H1 H 0.7508 0.2951 1.0938
C7 C 0.85965(11) 0.25809(10) 1.19884(15)
H2 H 0.8520 0.2086 1.1743
C8 C 0.93190(10) 0.27940(10) 1.28218(14)
H3 H 0.9721 0.2443 1.3138
C9 C 0.67759(9) 0.42424(10) 1.07721(13)
C10 C 0.62652(11) 0.41457(11) 1.11329(16)
H4 H 0.6451 0.4138 1.1854
C11 C 0.54768(12) 0.40599(13) 1.04226(19)
H5 H 0.5133 0.3986 1.0664
C12 C 0.52033(11) 0.40840(14) 0.93528(19)
H6 H 0.4676 0.4017 0.8871
C13 C 0.57122(11) 0.42077(14) 0.90046(16)
H7 H 0.5519 0.4237 0.8283
C14 C 0.65109(10) 0.42908(11) 0.96983(14)
C15 C 0.70294(11) 0.44469(13) 0.92541(14)
C16 C 0.72691(10) 0.37686(10) 0.70620(14)
H8 H 0.7095 0.4254 0.7074
C17 C 0.68430(10) 0.33299(10) 0.61733(14)
H9 H 0.6392 0.3521 0.5599
C18 C 0.70878(9) 0.26050(10) 0.61386(13)
C19 C 0.77923(11) 0.23708(11) 0.69935(14)
H10 H 0.7997 0.1901 0.6983
C20 C 0.81862(10) 0.28366(11) 0.78566(14)
H11 H 0.8653 0.2668 0.8426
C21 C 0.64790(10) 0.09890(10) 0.42124(14)
H12 H 0.6713 0.0599 0.4052
C22 C 0.69471(10) 0.14896(11) 0.50011(13)
H13 H 0.7486 0.1433 0.5363
C23 C 0.66126(9) 0.20782(10) 0.52539(12)
C24 C 0.58061(10) 0.21285(11) 0.46921(15)
H14 H 0.5556 0.2514 0.4834
C25 C 0.53781(10) 0.16014(11) 0.39221(15)
H15 H 0.4838 0.1637 0.3561
N1 N 0.79261(8) 0.35202(8) 0.79103(11)
N2 N 0.57014(8) 0.10412(8) 0.36688(11)
O1 O 1.06388(7) 0.34754(7) 1.48342(9)
O2 O 1.04881(6) 0.44091(7) 1.37602(9)
O3 O 0.91581(7) 0.53462(6) 1.29632(10)
O4 O 0.86141(7) 0.48681(7) 1.38299(9)
O5 O 0.75509(6) 0.43915(7) 1.15154(9)
O6 O 0.76853(8) 0.41284(8) 0.97150(11)
O7 O 0.67816(11) 0.48498(14) 0.84718(14)
Zn1 Zn 0.845294(10) 0.415036(11) 0.928405(14)
Zn2 Zn 0.5000 0.022730(14) 0.2500
C1A C -0.02365(9) 0.38247(9) -0.89700(12)
C2A C 0.11236(8) 0.48167(9) -0.82126(11)
C3A C 0.05618(9) 0.35374(9) -0.81829(12)
C4A C 0.11846(9) 0.40413(9) -0.77584(12)
C5A C 0.19024(9) 0.38170(9) -0.69124(12)
C6A C 0.20152(10) 0.30932(10) -0.65137(13)
H1A H 0.2492 0.2951 -0.5938
C7A C 0.14035(11) 0.25809(10) -0.69884(15)
H2A H 0.1480 0.2086 -0.6743
C8A C 0.06810(10) 0.27940(10) -0.78218(14)
H3A H 0.0279 0.2443 -0.8138
C9A C 0.32241(9) 0.42424(10) -0.57721(13)
C10A C 0.37348(11) 0.41457(11) -0.61329(16)
H4A H 0.3549 0.4138 -0.6854
C11A C 0.45232(12) 0.40599(13) -0.54226(19)
H5A H 0.4867 0.3986 -0.5664
C12A C 0.47967(11) 0.40840(14) -0.43528(19)
H6A H 0.5324 0.4017 -0.3871
C13A C 0.42878(11) 0.42077(14) -0.40046(16)
H7A H 0.4481 0.4237 -0.3283
C14A C 0.34891(10) 0.42908(11) -0.46983(14)
C15A C 0.29706(11) 0.44469(13) -0.42541(14)
C16A C 0.27309(10) 0.37686(10) -0.20620(14)
H8A H 0.2905 0.4254 -0.2074
C17A C 0.31570(10) 0.33299(10) -0.11733(14)
H9A H 0.3608 0.3521 -0.0599
C18A C 0.29122(9) 0.26050(10) -0.11386(13)
C19A C 0.22077(11) 0.23708(11) -0.19935(14)
H10A H 0.2003 0.1901 -0.1983
C20A C 0.18138(10) 0.28366(11) -0.28566(14)
H11A H 0.1347 0.2668 -0.3426
C21A C 0.35210(10) 0.09890(10) 0.07876(14)
H12A H 0.3287 0.0599 0.0948
C22A C 0.30529(10) 0.14896(11) -0.00011(13)
H13A H 0.2514 0.1433 -0.0363
C23A C 0.33874(9) 0.20782(10) -0.02539(12)
C24A C 0.41939(10) 0.21285(11) 0.03079(15)
H14A H 0.4444 0.2514 0.0166
C25A C 0.46219(10) 0.16014(11) 0.10779(15)
H15A H 0.5162 0.1637 0.1439
N1A N 0.20739(8) 0.35202(8) -0.29103(11)
N2A N 0.42986(8) 0.10412(8) 0.13312(11)
O1A O -0.06388(7) 0.34754(7) -0.98342(9)
O2A O -0.04881(6) 0.44091(7) -0.87602(9)
O3A O 0.08419(7) 0.53462(6) -0.79632(10)
O4A O 0.13859(7) 0.48681(7) -0.88299(9)
O5A O 0.24491(6) 0.43915(7) -0.65154(9)
O6A O 0.23147(8) 0.41284(8) -0.47150(11)
O7A O 0.32184(11) 0.48498(14) -0.34718(14)
Zn1A Zn 0.154706(10) 0.415036(11) -0.428405(14)
O1_2 O 0.06388(7) 0.34754(7) -0.51658(9)
O1A_2 O 0.93612(7) 0.34754(7) 1.01658(9)
O2B O 0.54881(6) -0.05909(7) 0.37602(9)
O2C O 0.45119(6) -0.05909(7) 0.12398(9)
O3B O 0.41581(7) 0.03462(6) 0.29632(10)
O3C O 0.58419(7) 0.03462(6) 0.20368(10)
O4D O 0.13859(7) 0.51319(7) -0.38299(9)
O4E O 0.86141(7) 0.51319(7) 0.88299(9)
Zn1_2 Zn -0.154706(10) 0.415036(11) -1.071595(14)
Zn1A_2 Zn 1.154706(10) 0.415036(11) 1.571595(14)
Zn1D Zn 0.154706(10) 0.584964(11) -0.928405(14)
Zn1E Zn 0.845294(10) 0.584964(11) 1.428405(14)
Zn2B Zn 0.0000 0.522730(14) -0.7500
Zn2B_2 Zn 1.0000 0.522730(14) 1.2500
O8 O 0.58544(16) 0.61133(15) 0.8307(2)
H16 H 0.5388 0.5974 0.8082
H17 H 0.6108 0.5745 0.8259
loop_
_geom_bond_atom_site_label_1
_geom_bond_atom_site_label_2
_geom_bond_site_symmetry_1
_geom_bond_site_symmetry_2
C1 C3 1_555 1_555
C2 C4 1_555 1_555
C3 C4 1_555 1_555
C4 C5 1_555 1_555
C5 C6 1_555 1_555
C6 H1 1_555 1_555
C7 C6 1_555 1_555
H2 C7 1_555 1_555
C8 C3 1_555 1_555
H3 C8 1_555 1_555
C9 C10 1_555 1_555
C10 H4 1_555 1_555
C11 C10 1_555 1_555
H5 C11 1_555 1_555
C12 C11 1_555 1_555
H6 C12 1_555 1_555
C13 C12 1_555 1_555
H7 C13 1_555 1_555
C14 C9 1_555 1_555
C15 C14 1_555 1_555
C16 H8 1_555 1_555
C17 C16 1_555 1_555
H9 C17 1_555 1_555
C18 C17 1_555 1_555
C19 C18 1_555 1_555
H10 C19 1_555 1_555
C20 C19 1_555 1_555
H11 C20 1_555 1_555
C21 H12 1_555 1_555
C22 C21 1_555 1_555
H13 C22 1_555 1_555
C23 C18 1_555 1_555
C24 C23 1_555 1_555
H14 C24 1_555 1_555
C25 C24 1_555 1_555
H15 C25 1_555 1_555
N1 C16 1_555 1_555
N2 C21 1_555 1_555
O1 C1 1_555 1_555
O2 C1 1_555 1_555
O3 C2 1_555 1_555
O4 C2 1_555 1_555
O5 C5 1_555 1_555
O6 C15 1_555 1_555
O7 C15 1_555 1_555
Zn1 N1 1_555 1_555
Zn2 N2 1_555 1_555
O8 H16 1_555 1_555
H17 O8 1_555 1_555
C1A C3A 1_555 1_555
C2A C4A 1_555 1_555
C3A C4A 1_555 1_555
C4A C5A 1_555 1_555
C5A C6A 1_555 1_555
C6A H1A 1_555 1_555
C7A C6A 1_555 1_555
H2A C7A 1_555 1_555
C8A C3A 1_555 1_555
H3A C8A 1_555 1_555
C9A C10A 1_555 1_555
C10A H4A 1_555 1_555
C11A C10A 1_555 1_555
H5A C11A 1_555 1_555
C12A C11A 1_555 1_555
H6A C12A 1_555 1_555
C13A C12A 1_555 1_555
H7A C13A 1_555 1_555
C14A C9A 1_555 1_555
C15A C14A 1_555 1_555
C16A H8A 1_555 1_555
C17A C16A 1_555 1_555
H9A C17A 1_555 1_555
C18A C17A 1_555 1_555
C19A C18A 1_555 1_555
H10A C19A 1_555 1_555
C20A C19A 1_555 1_555
H11A C20A 1_555 1_555
C21A H12A 1_555 1_555
C22A C21A 1_555 1_555
H13A C22A 1_555 1_555
C23A C18A 1_555 1_555
C24A C23A 1_555 1_555
H14A C24A 1_555 1_555
C25A C24A 1_555 1_555
H15A C25A 1_555 1_555
N1A C16A 1_555 1_555
N2A Zn2 1_555 1_555
O1A C1A 1_555 1_555
O2A C1A 1_555 1_555
O3A C2A 1_555 1_555
O4A C2A 1_555 1_555
O5A C5A 1_555 1_555
O6A C15A 1_555 1_555
O7A C15A 1_555 1_555
Zn1A N1A 1_555 1_555
O1_2 Zn1A 1_555 1_555
O1A_2 Zn1 1_555 1_555
O2B Zn2 1_555 1_555
O2C Zn2 1_555 1_555
O3B Zn2 1_555 1_555
O3C Zn2 1_555 1_555
O4D Zn1A 1_555 1_555
O4E Zn1 1_555 1_555
Zn1_2 O1A 1_555 1_555
Zn1A_2 O1 1_555 1_555
Zn1D O4A 1_555 1_555
Zn1E O4 1_555 1_555
Zn2B O2A 1_555 1_555
Zn2B_2 O2 1_555 1_555
C7 C8 1_555 1_555
C9 O5 1_555 1_555
C13 C14 1_555 1_555
C20 N1 1_555 1_555
C22 C23 1_555 1_555
C25 N2 1_555 1_555
O3 Zn2B_2 1_555 1_555
O6 Zn1 1_555 1_555
C7A C8A 1_555 1_555
C9A O5A 1_555 1_555
C13A C14A 1_555 1_555
C20A N1A 1_555 1_555
C21A N2A 1_555 1_555
C22A C23A 1_555 1_555
C25A N2A 1_555 1_555
O3A Zn2B 1_555 1_555
O6A Zn1A 1_555 1_555

#END
