
#######################################################################
#
#                 Cambridge Crystallographic Data Centre
#                                CCDC 
#
#######################################################################
#
# If this CIF has been generated from an entry in the Cambridge 
# Structural Database, then it will include bibliographic, chemical, 
# crystal, experimental, refinement or atomic coordinate data resulting 
# from the CCDC's data processing and validation procedures.
#
#######################################################################

data_VIWHOA
_symmetry_cell_setting           triclinic
_symmetry_space_group_name_H-M   'P 1'
_symmetry_Int_Tables_number      1
_space_group_name_Hall           'P 1'
loop_
_symmetry_equiv_pos_site_id
_symmetry_equiv_pos_as_xyz
1 x,y,z
_cell_length_a                   9.2930(6)
_cell_length_b                   10.1006(6)
_cell_length_c                   10.9952(6)
_cell_angle_alpha                99.790(4)
_cell_angle_beta                 90.398(4)
_cell_angle_gamma                105.709(5)
_cell_volume                     977.518
loop_
_atom_site_label
_atom_site_type_symbol
_atom_site_fract_x
_atom_site_fract_y
_atom_site_fract_z
C1 C 0.2626(9) 0.7330(8) 0.1327(7)
C2 C 0.1612(10) 0.6063(9) 0.3583(8)
C3 C 0.1024(10) 0.6451(7) 0.1399(8)
C4 C 0.0592(9) 0.5800(8) 0.2401(7)
C5 C -0.0821(10) 0.4868(8) 0.2365(8)
H1 H -0.1111 0.4437 0.3041
C6 C -0.1787(11) 0.4575(8) 0.1360(8)
H2 H -0.2715 0.3923 0.1340
C7 C -0.1380(11) 0.5260(8) 0.0349(8)
C8 C 0.0006(10) 0.6199(8) 0.0392(8)
H3 H 0.0271 0.6675 -0.0262
C9 C -0.2191(10) 0.5699(8) -0.1543(7)
C10 C -0.2786(9) 0.6832(8) -0.1547(8)
C11 C -0.2627(11) 0.7464(9) -0.2581(9)
H4 H -0.3003 0.8228 -0.2581
C12 C -0.1937(13) 0.7009(11) -0.3605(9)
H5 H -0.1874 0.7449 -0.4288
C13 C -0.1338(12) 0.5895(11) -0.3619(10)
H6 H -0.0840 0.5602 -0.4299
C14 C -0.1485(12) 0.5211(11) -0.2600(8)
H7 H -0.1120 0.4437 -0.2616
C15 C -0.3529(9) 0.7436(8) -0.0424(7)
C16 C 0.6666(9) 1.0714(7) 0.2752(7)
C17 C 0.5732(9) 0.9099(7) 0.4986(6)
C18 C 0.7594(9) 1.0909(8) 0.3934(8)
C19 C 0.7145(9) 1.0267(7) 0.4953(7)
C20 C 0.8047(11) 1.0691(8) 0.6048(8)
H8 H 0.7739 1.0291 0.6737
C21 C 0.9385(10) 1.1696(7) 0.6106(7)
C22 C 0.9874(10) 1.2361(8) 0.5124(8)
H9 H 1.0783 1.3045 0.5169
C23 C 0.8922(10) 1.1945(8) 0.4062(8)
H10 H 0.9204 1.2397 0.3396
C24 C 1.0159(10) 1.1433(8) 0.8160(8)
C25 C 0.9477(13) 1.1921(10) 0.9155(10)
H11 H 0.9063 1.2660 0.9138
C26 C 0.9405(13) 1.1317(11) 1.0187(9)
H12 H 0.8950 1.1662 1.0874
C27 C 0.9990(13) 1.0206(11) 1.0230(10)
H13 H 0.9945 0.9806 1.0935
C28 C 1.0654(11) 0.9703(10) 0.9178(8)
H14 H 1.1048 0.8953 0.9200
C29 C 1.0758(11) 1.0272(8) 0.8087(8)
C30 C 1.1483(10) 0.9685(9) 0.7023(8)
C31 C 0.4944(11) 1.1022(9) -0.1397(9)
H15 H 0.5332 1.0327 -0.1817
C32 C 0.4681(11) 1.1980(8) -0.2024(8)
H16 H 0.4856 1.1908 -0.2861
C33 C 0.4147(9) 1.3082(8) -0.1431(8)
C34 C 0.3913(11) 1.3093(9) -0.0205(8)
H17 H 0.3576 1.3806 0.0244
C35 C 0.4168(11) 1.2066(8) 0.0380(8)
H18 H 0.3979 1.2102 0.1212
C36 C 0.2829(11) 1.6085(9) -0.2204(9)
H19 H 0.2296 1.6687 -0.1831
C37 C 0.3075(10) 1.5063(8) -0.1572(8)
H20 H 0.2697 1.4986 -0.0799
C38 C 0.3867(10) 1.4186(9) -0.2097(8)
C39 C 0.4365(11) 1.4325(9) -0.3269(8)
H21 H 0.4876 1.3717 -0.3669
C40 C 0.4110(11) 1.5338(9) -0.3835(8)
H22 H 0.4486 1.5429 -0.4607
N1 N 0.4676(9) 1.1023(6) -0.0200(6)
N2 N 0.3333(9) 1.6221(7) -0.3322(7)
O1 O 0.2847(7) 0.8351(6) 0.0762(6)
O2 O 0.3577(6) 0.6945(6) 0.1836(6)
O3 O 0.1861(7) 0.7281(6) 0.4234(5)
O4 O 0.2099(11) 0.5120(7) 0.3817(8)
O5 O -0.2397(6) 0.4894(6) -0.0617(5)
O6 O -0.3506(8) 0.6989(6) 0.0553(5)
O7 O -0.4113(8) 0.8385(6) -0.0606(5)
O8 O 0.5998(8) 0.9509(6) 0.2180(7)
O9 O 0.6659(8) 1.1740(6) 0.2312(6)
O10 O 0.5396(7) 0.8027(6) 0.4187(5)
O11 O 0.4945(7) 0.9262(5) 0.5894(5)
O12 O 1.0350(7) 1.2199(5) 0.7176(5)
O13 O 1.1691(9) 1.0237(7) 0.6090(6)
O14 O 1.1940(7) 0.8634(6) 0.7180(6)
O15 O 0.8055(8) 0.7693(8) 0.2867(7)
H23 H 0.8331 0.7031 0.2440
H24 H 0.8793 0.8413 0.3047
O16 O 0.5203(8) 0.5368(6) 0.2612(6)
H25 H 0.4297 0.5359 0.2483
H26 H 0.5277 0.4938 0.3204
Zn1 Zn 0.49129(9) 0.94383(8) 0.06040(8)
Zn2 Zn 0.58719(10) 0.74403(9) 0.23746(8)
Zn3 Zn 1.29930(9) 0.77926(8) 0.58296(7)
N2_2 N 1.3333(9) 0.6221(7) 0.6678(7)
O3_2 O 1.1861(7) 0.7281(6) 0.4234(5)
O6_2 O 0.6494(8) 0.6989(6) 0.0553(5)
O7_2 O 0.5887(8) 0.8385(6) -0.0606(5)
O11_2 O 1.4945(7) 0.9262(5) 0.5894(5)
Zn1_2 Zn -0.50871(9) 0.94383(8) 0.06040(8)
Zn2_2 Zn -0.41281(10) 0.74403(9) 0.23746(8)
Zn3_2 Zn 0.29930(9) 0.77926(8) 0.58296(7)
Zn3_3 Zn 0.29930(9) 1.77926(8) -0.41704(7)
O17 O 1.0773(10) 0.9482(9) 0.3657(7)
H27 H 1.1001 0.8816 0.3926
H28 H 1.1178 0.9580 0.2972
O18 O 0.5864(13) 0.3749(9) 0.4041(8)
H29 H 0.5997 0.3200 0.4541
H30 H 0.5914 0.3328 0.3315
loop_
_geom_bond_atom_site_label_1
_geom_bond_atom_site_label_2
_geom_bond_site_symmetry_1
_geom_bond_site_symmetry_2
C1 C3 1_555 1_555
C2 C4 1_555 1_555
C3 C4 1_555 1_555
C4 C5 1_555 1_555
C5 H1 1_555 1_555
C6 C5 1_555 1_555
H2 C6 1_555 1_555
C7 C6 1_555 1_555
C8 C3 1_555 1_555
H3 C8 1_555 1_555
C9 C10 1_555 1_555
C10 C11 1_555 1_555
C11 H4 1_555 1_555
C12 C11 1_555 1_555
H5 C12 1_555 1_555
C13 C12 1_555 1_555
H6 C13 1_555 1_555
C14 C9 1_555 1_555
H7 C14 1_555 1_555
C15 C10 1_555 1_555
C16 C18 1_555 1_555
C17 C19 1_555 1_555
C18 C19 1_555 1_555
C19 C20 1_555 1_555
C20 H8 1_555 1_555
C21 C20 1_555 1_555
C22 C21 1_555 1_555
H9 C22 1_555 1_555
C23 C18 1_555 1_555
H10 C23 1_555 1_555
C24 C25 1_555 1_555
C25 H11 1_555 1_555
C26 C25 1_555 1_555
H12 C26 1_555 1_555
C27 C26 1_555 1_555
H13 C27 1_555 1_555
C28 C27 1_555 1_555
H14 C28 1_555 1_555
C29 C24 1_555 1_555
C30 C29 1_555 1_555
C31 H15 1_555 1_555
C32 C31 1_555 1_555
H16 C32 1_555 1_555
C33 C32 1_555 1_555
C34 C33 1_555 1_555
H17 C34 1_555 1_555
C35 C34 1_555 1_555
H18 C35 1_555 1_555
C36 H19 1_555 1_555
C37 C36 1_555 1_555
H20 C37 1_555 1_555
C38 C33 1_555 1_555
C39 C38 1_555 1_555
H21 C39 1_555 1_555
C40 C39 1_555 1_555
H22 C40 1_555 1_555
N1 C31 1_555 1_555
N2 C36 1_555 1_555
O1 C1 1_555 1_555
O2 C1 1_555 1_555
O3 C2 1_555 1_555
O4 C2 1_555 1_555
O5 C7 1_555 1_555
O6 C15 1_555 1_555
O7 C15 1_555 1_555
O8 C16 1_555 1_555
O9 C16 1_555 1_555
O10 C17 1_555 1_555
O11 C17 1_555 1_555
O12 C21 1_555 1_555
O13 C30 1_555 1_555
O14 C30 1_555 1_555
O15 H23 1_555 1_555
H24 O15 1_555 1_555
O16 H25 1_555 1_555
H26 O16 1_555 1_555
Zn1 N1 1_555 1_555
Zn2 O2 1_555 1_555
Zn3 O14 1_555 1_555
O17 H27 1_555 1_555
H28 O17 1_555 1_555
O18 H29 1_555 1_555
H30 O18 1_555 1_555
N2_2 Zn3 1_555 1_555
O3_2 Zn3 1_555 1_555
O6_2 Zn2 1_555 1_555
O7_2 Zn1 1_555 1_555
O11_2 Zn3 1_555 1_555
Zn1_2 O7 1_555 1_555
Zn2_2 O6 1_555 1_555
Zn3_2 O3 1_555 1_555
Zn3_3 N2 1_555 1_555
C7 C8 1_555 1_555
C9 O5 1_555 1_555
C13 C14 1_555 1_555
C22 C23 1_555 1_555
C24 O12 1_555 1_555
C28 C29 1_555 1_555
C35 N1 1_555 1_555
C37 C38 1_555 1_555
C40 N2 1_555 1_555
O1 Zn1 1_555 1_555
O8 Zn1 1_555 1_555
O8 Zn2 1_555 1_555
O10 Zn2 1_555 1_555
O11 Zn3_2 1_555 1_555
O15 Zn2 1_555 1_555
O16 Zn2 1_555 1_555

#END
