
#######################################################################
#
#                 Cambridge Crystallographic Data Centre
#                                CCDC 
#
#######################################################################
#
# If this CIF has been generated from an entry in the Cambridge 
# Structural Database, then it will include bibliographic, chemical, 
# crystal, experimental, refinement or atomic coordinate data resulting 
# from the CCDC's data processing and validation procedures.
#
#######################################################################

data_VIWJIW
_symmetry_cell_setting           triclinic
_symmetry_space_group_name_H-M   'P -1'
_symmetry_Int_Tables_number      2
_space_group_name_Hall           '-P 1'
loop_
_symmetry_equiv_pos_site_id
_symmetry_equiv_pos_as_xyz
1 x,y,z
2 -x,-y,-z
_cell_length_a                   9.1852(8)
_cell_length_b                   9.7669(6)
_cell_length_c                   16.3436(9)
_cell_angle_alpha                75.310(5)
_cell_angle_beta                 77.796(6)
_cell_angle_gamma                66.404(7)
_cell_volume                     1289.67
loop_
_atom_site_label
_atom_site_type_symbol
_atom_site_fract_x
_atom_site_fract_y
_atom_site_fract_z
C1 C 0.4294(3) 0.9522(2) 0.17360(12)
C2 C 0.1870(3) 1.2077(2) 0.06554(14)
C3 C 0.2560(3) 1.0295(2) 0.20756(13)
C4 C 0.1440(3) 1.1468(2) 0.15798(13)
C5 C -0.0134(3) 1.2099(3) 0.19446(15)
H1 H -0.0877 1.2875 0.1615
C6 C -0.0616(3) 1.1595(3) 0.27883(15)
H2 H -0.1670 1.2038 0.3024
C7 C 0.0479(3) 1.0428(3) 0.32798(14)
H3 H 0.0164 1.0066 0.3845
C8 C 0.2048(3) 0.9807(2) 0.29197(14)
C9 C 0.3493(3) 0.8565(2) 0.41468(13)
C10 C 0.2838(3) 0.9817(3) 0.45423(14)
H4 H 0.2109 1.0727 0.4288
C11 C 0.3293(3) 0.9685(3) 0.53250(14)
H5 H 0.2849 1.0515 0.5598
C12 C 0.4391(3) 0.8347(3) 0.57097(14)
C13 C 0.5053(3) 0.7108(3) 0.52960(15)
H6 H 0.5808 0.6207 0.5541
C14 C 0.4591(3) 0.7212(3) 0.45230(15)
H7 H 0.5018 0.6376 0.4255
C15 C 0.4966(3) 0.8226(3) 0.65189(14)
C16 C 0.7046(2) 0.4480(2) 0.03245(14)
H8 H 0.7764 0.4605 -0.0157
C17 C 0.5493(3) 0.4776(3) 0.15066(14)
H9 H 0.4936 0.5160 0.1995
C18 C 0.5447(3) 0.3554(3) 0.12786(15)
H10 H 0.4863 0.2953 0.1575
C19 C 0.6745(3) 0.2206(2) 0.00251(15)
H11 H 0.6536 0.2695 -0.0556
H12 H 0.6015 0.1672 0.0265
C20 C 0.9419(3) 0.0877(2) -0.07497(14)
H13 H 0.9031 0.1465 -0.1257
C21 C 0.8440(3) 0.1074(2) 0.00159(14)
C22 C 0.9031(3) 0.0184(3) 0.07686(15)
H14 H 0.8385 0.0301 0.1287
C23 C 0.8483(3) 0.7311(3) 0.23103(14)
H15 H 0.7658 0.8133 0.2508
C24 C 0.9885(3) 0.5548(2) 0.15889(14)
H16 H 1.0194 0.4931 0.1185
C25 C 1.0776(3) 0.5411(3) 0.21839(15)
H17 H 1.1795 0.4696 0.2269
C26 C 1.0352(4) 0.6890(3) 0.33370(16)
H18 H 0.9719 0.7941 0.3385
H19 H 1.1465 0.6793 0.3197
C27 C 0.9569(4) 0.4735(3) 0.43117(17)
H20 H 0.9274 0.4550 0.3852
C28 C 1.0157(3) 0.5884(3) 0.41908(15)
C29 C 1.0580(4) 0.6137(3) 0.48881(17)
H21 H 1.0972 0.6908 0.4816
O1 O 0.46076(18) 0.83248(16) 0.14670(10)
O2 O 0.52927(18) 1.00634(17) 0.17787(9)
O3 O 0.32411(18) 1.13754(17) 0.02807(10)
O4 O 0.0899(2) 1.32528(18) 0.02888(10)
O5 O 0.31800(19) 0.85484(17) 0.33614(10)
O6 O 0.6074(2) 0.7154(2) 0.68138(11)
O7 O 0.4139(2) 0.94376(19) 0.68764(10)
H22 H 0.4474 0.9427 0.7323
Zn1 Zn 0.67928(3) 0.73331(3) 0.088032(17)
N1 N 0.6495(2) 0.53625(19) 0.09009(12)
N2 N 0.6434(2) 0.33808(19) 0.05249(12)
N3 N 0.8447(2) 0.6743(2) 0.16715(11)
N4 N 0.9877(2) 0.6542(2) 0.26397(12)
C16A C 1.2954(2) -0.4480(2) -0.03245(14)
H8A H 1.2236 -0.4605 0.0157
C17A C 1.4507(3) -0.4776(3) -0.15066(14)
H9A H 1.5064 -0.5160 -0.1995
C18A C 1.4553(3) -0.3554(3) -0.12786(15)
H10A H 1.5137 -0.2953 -0.1575
C19A C 1.3255(3) -0.2206(2) -0.00251(15)
H11A H 1.3464 -0.2695 0.0556
H12A H 1.3985 -0.1672 -0.0265
C20A C 1.0581(3) -0.0877(2) 0.07497(14)
H13A H 1.0969 -0.1465 0.1257
C21A C 1.1560(3) -0.1074(2) -0.00159(14)
C22A C 1.0969(3) -0.0184(3) -0.07686(15)
H14A H 1.1615 -0.0301 -0.1287
N1A N 1.3505(2) -0.53625(19) -0.09009(12)
N2A N 1.3566(2) -0.33808(19) -0.05249(12)
C23A C 1.1517(3) 0.2689(3) 0.76897(14)
H15A H 1.2342 0.1867 0.7492
C24A C 1.0115(3) 0.4452(2) 0.84111(14)
H16A H 0.9806 0.5069 0.8815
C25A C 0.9224(3) 0.4589(3) 0.78161(15)
H17A H 0.8205 0.5304 0.7731
C26A C 0.9648(4) 0.3110(3) 0.66630(16)
H18A H 1.0281 0.2059 0.6615
H19A H 0.8535 0.3207 0.6803
C27A C 1.0431(4) 0.5265(3) 0.56883(17)
H20A H 1.0726 0.5450 0.6148
C28A C 0.9843(3) 0.4116(3) 0.58092(15)
C29A C 0.9420(4) 0.3863(3) 0.51119(17)
H21A H 0.9028 0.3092 0.5184
N3A N 1.1553(2) 0.3257(2) 0.83285(11)
N4A N 1.0123(2) 0.3458(2) 0.73603(12)
C1A C 0.5706(3) 1.0478(2) -0.17360(12)
C2A C 0.8130(3) 0.7923(2) -0.06554(14)
C3A C 0.7440(3) 0.9705(2) -0.20756(13)
C4A C 0.8560(3) 0.8532(2) -0.15798(13)
C5A C 1.0134(3) 0.7901(3) -0.19446(15)
H1A H 1.0877 0.7125 -0.1615
C6A C 1.0616(3) 0.8405(3) -0.27883(15)
H2A H 1.1670 0.7962 -0.3024
C7A C 0.9521(3) 0.9572(3) -0.32798(14)
H3A H 0.9836 0.9934 -0.3845
C8A C 0.7952(3) 1.0193(2) -0.29197(14)
C9A C 0.6507(3) 1.1435(2) -0.41468(13)
C10A C 0.7162(3) 1.0183(3) -0.45423(14)
H4A H 0.7891 0.9273 -0.4288
C11A C 0.6707(3) 1.0315(3) -0.53250(14)
H5A H 0.7151 0.9485 -0.5598
C12A C 0.5609(3) 1.1653(3) -0.57097(14)
C13A C 0.4947(3) 1.2892(3) -0.52960(15)
H6A H 0.4192 1.3793 -0.5541
C14A C 0.5409(3) 1.2788(3) -0.45230(15)
H7A H 0.4982 1.3624 -0.4255
C15A C 0.5034(3) 1.1774(3) -0.65189(14)
O1A O 0.53924(18) 1.16752(16) -0.14670(10)
O2A O 0.47073(18) 0.99366(17) -0.17787(9)
O3A O 0.67589(18) 0.86246(17) -0.02807(10)
O4A O 0.9101(2) 0.67472(18) -0.02888(10)
O5A O 0.68200(19) 1.14516(17) -0.33614(10)
O6A O 0.3926(2) 1.2846(2) -0.68138(11)
O7A O 0.5861(2) 1.05624(19) -0.68764(10)
H22A H 0.5526 1.0573 -0.7323
Zn1A Zn 0.32072(3) 1.26669(3) -0.088032(17)
Zn1A_2 Zn 1.32072(3) -0.73331(3) -0.088032(17)
Zn1A_3 Zn 1.32072(3) 0.26669(3) 0.911968(17)
N1A_2 N 0.3505(2) 1.46375(19) -0.09009(12)
N3A_2 N 0.1553(2) 1.3257(2) -0.16715(11)
loop_
_geom_bond_atom_site_label_1
_geom_bond_atom_site_label_2
_geom_bond_site_symmetry_1
_geom_bond_site_symmetry_2
C1 C3 1_555 1_555
C2 C4 1_555 1_555
C3 C4 1_555 1_555
C4 C5 1_555 1_555
C5 H1 1_555 1_555
C6 C5 1_555 1_555
H2 C6 1_555 1_555
C7 C6 1_555 1_555
H3 C7 1_555 1_555
C8 C3 1_555 1_555
C9 C10 1_555 1_555
C10 H4 1_555 1_555
C11 C10 1_555 1_555
H5 C11 1_555 1_555
C12 C11 1_555 1_555
C13 C12 1_555 1_555
H6 C13 1_555 1_555
C14 C9 1_555 1_555
H7 C14 1_555 1_555
C15 C12 1_555 1_555
C16 H8 1_555 1_555
C17 H9 1_555 1_555
C18 C17 1_555 1_555
H10 C18 1_555 1_555
C19 H11 1_555 1_555
H12 C19 1_555 1_555
C20 H13 1_555 1_555
C21 C19 1_555 1_555
C22 C21 1_555 1_555
H14 C22 1_555 1_555
C23 H15 1_555 1_555
C24 H16 1_555 1_555
C25 C24 1_555 1_555
H17 C25 1_555 1_555
C26 H18 1_555 1_555
H19 C26 1_555 1_555
C27 H20 1_555 1_555
C28 C26 1_555 1_555
C29 C28 1_555 1_555
H21 C29 1_555 1_555
O1 C1 1_555 1_555
O2 C1 1_555 1_555
O3 C2 1_555 1_555
O4 C2 1_555 1_555
O5 C8 1_555 1_555
O6 C15 1_555 1_555
O7 C15 1_555 1_555
H22 O7 1_555 1_555
Zn1 O1 1_555 1_555
N1 C16 1_555 1_555
N2 C16 1_555 1_555
N3 C23 1_555 1_555
N4 C23 1_555 1_555
C16A H8A 1_555 1_555
C17A H9A 1_555 1_555
C18A C17A 1_555 1_555
H10A C18A 1_555 1_555
C19A H11A 1_555 1_555
H12A C19A 1_555 1_555
C20A C22 1_555 1_555
H13A C20A 1_555 1_555
C21A C19A 1_555 1_555
C22A C20 1_555 1_555
H14A C22A 1_555 1_555
N1A C16A 1_555 1_555
N2A C16A 1_555 1_555
C23A H15A 1_555 1_555
C24A H16A 1_555 1_555
C25A C24A 1_555 1_555
H17A C25A 1_555 1_555
C26A H18A 1_555 1_555
H19A C26A 1_555 1_555
C27A C29 1_555 1_555
H20A C27A 1_555 1_555
C28A C26A 1_555 1_555
C29A C27 1_555 1_555
H21A C29A 1_555 1_555
N3A C23A 1_555 1_555
N4A C23A 1_555 1_555
C1A C3A 1_555 1_555
C2A C4A 1_555 1_555
C3A C4A 1_555 1_555
C4A C5A 1_555 1_555
C5A H1A 1_555 1_555
C6A C5A 1_555 1_555
H2A C6A 1_555 1_555
C7A C6A 1_555 1_555
H3A C7A 1_555 1_555
C8A C3A 1_555 1_555
C9A C10A 1_555 1_555
C10A H4A 1_555 1_555
C11A C10A 1_555 1_555
H5A C11A 1_555 1_555
C12A C11A 1_555 1_555
C13A C12A 1_555 1_555
H6A C13A 1_555 1_555
C14A C9A 1_555 1_555
H7A C14A 1_555 1_555
C15A C12A 1_555 1_555
O1A C1A 1_555 1_555
O2A C1A 1_555 1_555
O3A Zn1 1_555 1_555
O4A Zn1 1_555 1_555
O5A C8A 1_555 1_555
O6A C15A 1_555 1_555
O7A C15A 1_555 1_555
H22A O7A 1_555 1_555
Zn1A O3 1_555 1_555
Zn1A_2 N1A 1_555 1_555
Zn1A_3 N3A 1_555 1_555
N1A_2 Zn1A 1_555 1_555
N3A_2 Zn1A 1_555 1_555
C7 C8 1_555 1_555
C9 O5 1_555 1_555
C13 C14 1_555 1_555
C17 N1 1_555 1_555
C18 N2 1_555 1_555
C19 N2 1_555 1_555
C20 C21 1_555 1_555
C24 N3 1_555 1_555
C25 N4 1_555 1_555
C26 N4 1_555 1_555
C27 C28 1_555 1_555
O4 Zn1A 1_555 1_555
Zn1 N1 1_555 1_555
Zn1 N3 1_555 1_555
C17A N1A 1_555 1_555
C18A N2A 1_555 1_555
C19A N2A 1_555 1_555
C20A C21A 1_555 1_555
C21A C22A 1_555 1_555
C24A N3A 1_555 1_555
C25A N4A 1_555 1_555
C26A N4A 1_555 1_555
C27A C28A 1_555 1_555
C28A C29A 1_555 1_555
C2A O3A 1_555 1_555
C2A O4A 1_555 1_555
C7A C8A 1_555 1_555
C9A O5A 1_555 1_555
C13A C14A 1_555 1_555
O1A Zn1A 1_555 1_555

#END
