
#######################################################################
#
#                 Cambridge Crystallographic Data Centre
#                                CCDC 
#
#######################################################################
#
# If this CIF has been generated from an entry in the Cambridge 
# Structural Database, then it will include bibliographic, chemical, 
# crystal, experimental, refinement or atomic coordinate data resulting 
# from the CCDC's data processing and validation procedures.
#
#######################################################################

data_VIWKES
_symmetry_cell_setting           monoclinic
_symmetry_space_group_name_H-M   'P 2/c'
_symmetry_Int_Tables_number      13
_space_group_name_Hall           '-P 2yc'
loop_
_symmetry_equiv_pos_site_id
_symmetry_equiv_pos_as_xyz
1 x,y,z
2 -x,y,1/2-z
3 -x,-y,-z
4 x,-y,1/2+z
_cell_length_a                   10.662(3)
_cell_length_b                   6.9165(18)
_cell_length_c                   21.335(5)
_cell_angle_alpha                90
_cell_angle_beta                 101.146(4)
_cell_angle_gamma                90
_cell_volume                     1543.65
loop_
_atom_site_label
_atom_site_type_symbol
_atom_site_fract_x
_atom_site_fract_y
_atom_site_fract_z
Ba1 Ba 0.5000 0.90568(5) 0.7500
Cu1 Cu 0.70008(4) 0.79877(8) 1.03715(2)
C1 C 0.4210(4) 0.7210(6) 0.9961(2)
C2 C 0.3109(4) 0.6829(7) 0.9499(2)
H1 H 0.3156 0.6890 0.9069
C3 C 0.1959(4) 0.6366(7) 0.9667(2)
H2 H 0.1245 0.6136 0.9350
C4 C 0.1856(4) 0.6243(7) 1.0289(2)
H3 H 0.1082 0.5917 1.0401
C5 C 0.2922(4) 0.6609(7) 1.0754(2)
H4 H 0.2856 0.6533 1.1182
C6 C 0.4103(4) 0.7096(6) 1.0598(2)
C7 C 0.5146(4) 0.7449(7) 1.1180(2)
C8 C 1.0359(4) 0.7848(9) 1.1711(2)
H5 H 1.0897 0.7403 1.2078
C9 C 0.9614(4) 0.9421(7) 1.0840(2)
H6 H 0.9563 1.0274 1.0499
C10 C 0.9169(4) 0.7209(8) 1.1470(2)
H7 H 0.8736 0.6250 1.1648
C11 C 0.5519(4) 0.7837(6) 0.91832(19)
C12 C 0.6890(4) 0.8380(7) 0.91134(19)
N1 N 0.5387(3) 0.7682(5) 0.97887(15)
N2 N 0.8704(3) 0.8215(6) 1.09186(17)
N3 N 1.0623(3) 0.9254(6) 1.13173(18)
H8 H 1.1315 0.9922 1.1365
O1 O 0.7097(3) 0.8641(5) 0.85734(13)
O2 O 0.4736(3) 0.7653(6) 0.86823(14)
O3 O 0.7724(2) 0.8539(5) 0.96263(13)
O4 O 0.6293(3) 0.7678(5) 1.11137(13)
O5 O 0.7323(3) 1.0322(6) 0.72527(16)
H9 H 0.7114 1.0964 0.6909
H10 H 0.7768 0.9304 0.7246
O6 O 0.4863(3) 0.7515(5) 1.17116(14)
O7 O 0.3581(4) 0.5293(6) 0.7463(2)
H11 H 0.2794 0.5576 0.7421
H12 H 0.3773 0.4384 0.7804
Ba1C Ba 0.5000 1.09432(5) 1.2500
Ba1C_2 Ba 0.5000 1.09432(5) 0.2500
Cu1A Cu 0.29992(4) 0.79877(8) 0.46285(2)
C1A C 0.5790(4) 0.7210(6) 0.5039(2)
C2A C 0.6891(4) 0.6829(7) 0.5501(2)
H1A H 0.6844 0.6890 0.5931
C3A C 0.8041(4) 0.6366(7) 0.5333(2)
H2A H 0.8755 0.6136 0.5650
C4A C 0.8144(4) 0.6243(7) 0.4711(2)
H3A H 0.8918 0.5917 0.4599
C5A C 0.7078(4) 0.6609(7) 0.4246(2)
H4A H 0.7144 0.6533 0.3818
C6A C 0.5897(4) 0.7096(6) 0.4402(2)
C7A C 0.4854(4) 0.7449(7) 0.3820(2)
C8A C -0.0359(4) 0.7848(9) 0.3289(2)
H5A H -0.0897 0.7403 0.2922
C9A C 0.0386(4) 0.9421(7) 0.4160(2)
H6A H 0.0437 1.0274 0.4501
C10A C 0.0831(4) 0.7209(8) 0.3530(2)
H7A H 0.1264 0.6250 0.3352
C11A C 0.4481(4) 0.7837(6) 0.58168(19)
C12A C 0.3110(4) 0.8380(7) 0.58866(19)
N1A N 0.4613(3) 0.7682(5) 0.52113(15)
N2A N 0.1296(3) 0.8215(6) 0.40814(17)
N3A N -0.0623(3) 0.9254(6) 0.36827(18)
H8A H -0.1315 0.9922 0.3635
O1A O 0.2903(3) 0.8641(5) 0.64266(13)
O2A O 0.5264(3) 0.7653(6) 0.63177(14)
O3A O 0.2276(2) 0.8539(5) 0.53737(13)
O4A O 0.3707(3) 0.7678(5) 0.38863(13)
O5A O 0.2677(3) 1.0322(6) 0.77473(16)
H9A H 0.2886 1.0964 0.8091
H10A H 0.2232 0.9304 0.7754
O6A O 0.5137(3) 0.7515(5) 0.32884(14)
O6C O 0.4863(3) 1.2485(5) 0.67116(14)
O6B O 0.5137(3) 1.2485(5) 0.82884(14)
O7A O 0.6419(4) 0.5293(6) 0.7537(2)
H11A H 0.7206 0.5576 0.7579
H12A H 0.6227 0.4384 0.7196
O8 O 0.874(3) 0.681(4) 0.7671(15)
O9? O 0.8713(19) 0.711(3) 0.7229(13)
loop_
_geom_bond_atom_site_label_1
_geom_bond_atom_site_label_2
_geom_bond_site_symmetry_1
_geom_bond_site_symmetry_2
Ba1 O1 1_555 1_555
Cu1 N1 1_555 1_555
C1 C2 1_555 1_555
C2 H1 1_555 1_555
C3 C2 1_555 1_555
H2 C3 1_555 1_555
C4 C3 1_555 1_555
H3 C4 1_555 1_555
C5 C4 1_555 1_555
H4 C5 1_555 1_555
C6 C1 1_555 1_555
C7 C6 1_555 1_555
C8 H5 1_555 1_555
C9 H6 1_555 1_555
C10 C8 1_555 1_555
H7 C10 1_555 1_555
C11 C12 1_555 1_555
C12 O1 1_555 1_555
N1 C1 1_555 1_555
N2 Cu1 1_555 1_555
N3 C8 1_555 1_555
H8 N3 1_555 1_555
O2 Ba1 1_555 1_555
O3 Cu1 1_555 1_555
O4 Cu1 1_555 1_555
O5 Ba1 1_555 1_555
H9 O5 1_555 1_555
H10 O5 1_555 1_555
O6 C7 1_555 1_555
O7 Ba1 1_555 1_555
H11 O7 1_555 1_555
H12 O7 1_555 1_555
Ba1C O6 1_555 1_555
Ba1C_2 O6A 1_555 1_555
Cu1A N1A 1_555 1_555
C1A C2A 1_555 1_555
C2A H1A 1_555 1_555
C3A C2A 1_555 1_555
H2A C3A 1_555 1_555
C4A C3A 1_555 1_555
H3A C4A 1_555 1_555
C5A C4A 1_555 1_555
H4A C5A 1_555 1_555
C6A C1A 1_555 1_555
C7A C6A 1_555 1_555
C8A H5A 1_555 1_555
C9A H6A 1_555 1_555
C10A C8A 1_555 1_555
H7A C10A 1_555 1_555
C11A C12A 1_555 1_555
C12A O1A 1_555 1_555
N1A C1A 1_555 1_555
N2A Cu1A 1_555 1_555
N3A C8A 1_555 1_555
H8A N3A 1_555 1_555
O1A Ba1 1_555 1_555
O2A Ba1 1_555 1_555
O3A Cu1A 1_555 1_555
O4A Cu1A 1_555 1_555
O5A Ba1 1_555 1_555
H9A O5A 1_555 1_555
H10A O5A 1_555 1_555
O6A C7A 1_555 1_555
O6C Ba1 1_555 1_555
O6B Ba1 1_555 1_555
O7A Ba1 1_555 1_555
H11A O7A 1_555 1_555
H12A O7A 1_555 1_555
C5 C6 1_555 1_555
C7 O4 1_555 1_555
C9 N2 1_555 1_555
C9 N3 1_555 1_555
C10 N2 1_555 1_555
C11 N1 1_555 1_555
C11 O2 1_555 1_555
C12 O3 1_555 1_555
C5A C6A 1_555 1_555
C7A O4A 1_555 1_555
C9A N2A 1_555 1_555
C9A N3A 1_555 1_555
C10A N2A 1_555 1_555
C11A N1A 1_555 1_555
C11A O2A 1_555 1_555
C12A O3A 1_555 1_555

#END
